# Generated by pormake.
# Topology fgl, (4,4)-cn, num edge types: 1
# Building blocks:
#     Node 0, Type 0, BuildingBlock: ESEHIV_clean_sbu_0, # of connection points: 4
#     Node 1, Type 0, BuildingBlock: ESEHIV_clean_sbu_0, # of connection points: 4
#     Node 2, Type 0, BuildingBlock: ESEHIV_clean_sbu_0, # of connection points: 4
#     Node 3, Type 0, BuildingBlock: ESEHIV_clean_sbu_0, # of connection points: 4
#     Node 4, Type 0, BuildingBlock: ESEHIV_clean_sbu_0, # of connection points: 4
#     Node 5, Type 0, BuildingBlock: ESEHIV_clean_sbu_0, # of connection points: 4
#     Node 6, Type 0, BuildingBlock: ESEHIV_clean_sbu_0, # of connection points: 4
#     Node 7, Type 0, BuildingBlock: ESEHIV_clean_sbu_0, # of connection points: 4
#     Node 8, Type 0, BuildingBlock: ESEHIV_clean_sbu_0, # of connection points: 4
#     Node 9, Type 0, BuildingBlock: ESEHIV_clean_sbu_0, # of connection points: 4
#     Node 10, Type 0, BuildingBlock: ESEHIV_clean_sbu_0, # of connection points: 4
#     Node 11, Type 0, BuildingBlock: ESEHIV_clean_sbu_0, # of connection points: 4
#     Node 12, Type 0, BuildingBlock: ESEHIV_clean_sbu_0, # of connection points: 4
#     Node 13, Type 0, BuildingBlock: ESEHIV_clean_sbu_0, # of connection points: 4
#     Node 14, Type 0, BuildingBlock: ESEHIV_clean_sbu_0, # of connection points: 4
#     Node 15, Type 0, BuildingBlock: ESEHIV_clean_sbu_0, # of connection points: 4
#     Node 16, Type 0, BuildingBlock: ESEHIV_clean_sbu_0, # of connection points: 4
#     Node 17, Type 0, BuildingBlock: ESEHIV_clean_sbu_0, # of connection points: 4
#     Node 18, Type 1, BuildingBlock: KUFVIS_clean_sbu_0, # of connection points: 4
#     Node 19, Type 1, BuildingBlock: KUFVIS_clean_sbu_0, # of connection points: 4
#     Node 20, Type 1, BuildingBlock: KUFVIS_clean_sbu_0, # of connection points: 4
#     Node 21, Type 1, BuildingBlock: KUFVIS_clean_sbu_0, # of connection points: 4
#     Node 22, Type 1, BuildingBlock: KUFVIS_clean_sbu_0, # of connection points: 4
#     Node 23, Type 1, BuildingBlock: KUFVIS_clean_sbu_0, # of connection points: 4
#     Node 24, Type 1, BuildingBlock: KUFVIS_clean_sbu_0, # of connection points: 4
#     Node 25, Type 1, BuildingBlock: KUFVIS_clean_sbu_0, # of connection points: 4
#     Node 26, Type 1, BuildingBlock: KUFVIS_clean_sbu_0, # of connection points: 4
#     Node 27, Type 1, BuildingBlock: KUFVIS_clean_sbu_0, # of connection points: 4
#     Node 28, Type 1, BuildingBlock: KUFVIS_clean_sbu_0, # of connection points: 4
#     Node 29, Type 1, BuildingBlock: KUFVIS_clean_sbu_0, # of connection points: 4
#     Node 30, Type 1, BuildingBlock: KUFVIS_clean_sbu_0, # of connection points: 4
#     Node 31, Type 1, BuildingBlock: KUFVIS_clean_sbu_0, # of connection points: 4
#     Node 32, Type 1, BuildingBlock: KUFVIS_clean_sbu_0, # of connection points: 4
#     Node 33, Type 1, BuildingBlock: KUFVIS_clean_sbu_0, # of connection points: 4
#     Node 34, Type 1, BuildingBlock: KUFVIS_clean_sbu_0, # of connection points: 4
#     Node 35, Type 1, BuildingBlock: KUFVIS_clean_sbu_0, # of connection points: 4
#     Edge 36, Type (0, 1), BuildingBlock: EZIPEK_clean_linker_0, # of connection points: 2
#     Edge 37, Type (0, 1), BuildingBlock: EZIPEK_clean_linker_0, # of connection points: 2
#     Edge 38, Type (0, 1), BuildingBlock: EZIPEK_clean_linker_0, # of connection points: 2
#     Edge 39, Type (0, 1), BuildingBlock: EZIPEK_clean_linker_0, # of connection points: 2
#     Edge 40, Type (0, 1), BuildingBlock: EZIPEK_clean_linker_0, # of connection points: 2
#     Edge 41, Type (0, 1), BuildingBlock: EZIPEK_clean_linker_0, # of connection points: 2
#     Edge 42, Type (0, 1), BuildingBlock: EZIPEK_clean_linker_0, # of connection points: 2
#     Edge 43, Type (0, 1), BuildingBlock: EZIPEK_clean_linker_0, # of connection points: 2
#     Edge 44, Type (0, 1), BuildingBlock: EZIPEK_clean_linker_0, # of connection points: 2
#     Edge 45, Type (0, 1), BuildingBlock: EZIPEK_clean_linker_0, # of connection points: 2
#     Edge 46, Type (0, 1), BuildingBlock: EZIPEK_clean_linker_0, # of connection points: 2
#     Edge 47, Type (0, 1), BuildingBlock: EZIPEK_clean_linker_0, # of connection points: 2
#     Edge 48, Type (0, 1), BuildingBlock: EZIPEK_clean_linker_0, # of connection points: 2
#     Edge 49, Type (0, 1), BuildingBlock: EZIPEK_clean_linker_0, # of connection points: 2
#     Edge 50, Type (0, 1), BuildingBlock: EZIPEK_clean_linker_0, # of connection points: 2
#     Edge 51, Type (0, 1), BuildingBlock: EZIPEK_clean_linker_0, # of connection points: 2
#     Edge 52, Type (0, 1), BuildingBlock: EZIPEK_clean_linker_0, # of connection points: 2
#     Edge 53, Type (0, 1), BuildingBlock: EZIPEK_clean_linker_0, # of connection points: 2
#     Edge 54, Type (0, 1), BuildingBlock: EZIPEK_clean_linker_0, # of connection points: 2
#     Edge 55, Type (0, 1), BuildingBlock: EZIPEK_clean_linker_0, # of connection points: 2
#     Edge 56, Type (0, 1), BuildingBlock: EZIPEK_clean_linker_0, # of connection points: 2
#     Edge 57, Type (0, 1), BuildingBlock: EZIPEK_clean_linker_0, # of connection points: 2
#     Edge 58, Type (0, 1), BuildingBlock: EZIPEK_clean_linker_0, # of connection points: 2
#     Edge 59, Type (0, 1), BuildingBlock: EZIPEK_clean_linker_0, # of connection points: 2
#     Edge 60, Type (0, 1), BuildingBlock: EZIPEK_clean_linker_0, # of connection points: 2
#     Edge 61, Type (0, 1), BuildingBlock: EZIPEK_clean_linker_0, # of connection points: 2
#     Edge 62, Type (0, 1), BuildingBlock: EZIPEK_clean_linker_0, # of connection points: 2
#     Edge 63, Type (0, 1), BuildingBlock: EZIPEK_clean_linker_0, # of connection points: 2
#     Edge 64, Type (0, 1), BuildingBlock: EZIPEK_clean_linker_0, # of connection points: 2
#     Edge 65, Type (0, 1), BuildingBlock: EZIPEK_clean_linker_0, # of connection points: 2
#     Edge 66, Type (0, 1), BuildingBlock: EZIPEK_clean_linker_0, # of connection points: 2
#     Edge 67, Type (0, 1), BuildingBlock: EZIPEK_clean_linker_0, # of connection points: 2
#     Edge 68, Type (0, 1), BuildingBlock: EZIPEK_clean_linker_0, # of connection points: 2
#     Edge 69, Type (0, 1), BuildingBlock: EZIPEK_clean_linker_0, # of connection points: 2
#     Edge 70, Type (0, 1), BuildingBlock: EZIPEK_clean_linker_0, # of connection points: 2
#     Edge 71, Type (0, 1), BuildingBlock: EZIPEK_clean_linker_0, # of connection points: 2
#     Edge 72, Type (0, 1), BuildingBlock: EZIPEK_clean_linker_0, # of connection points: 2
#     Edge 73, Type (0, 1), BuildingBlock: EZIPEK_clean_linker_0, # of connection points: 2
#     Edge 74, Type (0, 1), BuildingBlock: EZIPEK_clean_linker_0, # of connection points: 2
#     Edge 75, Type (0, 1), BuildingBlock: EZIPEK_clean_linker_0, # of connection points: 2
#     Edge 76, Type (0, 1), BuildingBlock: EZIPEK_clean_linker_0, # of connection points: 2
#     Edge 77, Type (0, 1), BuildingBlock: EZIPEK_clean_linker_0, # of connection points: 2
#     Edge 78, Type (0, 1), BuildingBlock: EZIPEK_clean_linker_0, # of connection points: 2
#     Edge 79, Type (0, 1), BuildingBlock: EZIPEK_clean_linker_0, # of connection points: 2
#     Edge 80, Type (0, 1), BuildingBlock: EZIPEK_clean_linker_0, # of connection points: 2
#     Edge 81, Type (0, 1), BuildingBlock: EZIPEK_clean_linker_0, # of connection points: 2
#     Edge 82, Type (0, 1), BuildingBlock: EZIPEK_clean_linker_0, # of connection points: 2
#     Edge 83, Type (0, 1), BuildingBlock: EZIPEK_clean_linker_0, # of connection points: 2
#     Edge 84, Type (0, 1), BuildingBlock: EZIPEK_clean_linker_0, # of connection points: 2
#     Edge 85, Type (0, 1), BuildingBlock: EZIPEK_clean_linker_0, # of connection points: 2
#     Edge 86, Type (0, 1), BuildingBlock: EZIPEK_clean_linker_0, # of connection points: 2
#     Edge 87, Type (0, 1), BuildingBlock: EZIPEK_clean_linker_0, # of connection points: 2
#     Edge 88, Type (0, 1), BuildingBlock: EZIPEK_clean_linker_0, # of connection points: 2
#     Edge 89, Type (0, 1), BuildingBlock: EZIPEK_clean_linker_0, # of connection points: 2
#     Edge 90, Type (0, 1), BuildingBlock: EZIPEK_clean_linker_0, # of connection points: 2
#     Edge 91, Type (0, 1), BuildingBlock: EZIPEK_clean_linker_0, # of connection points: 2
#     Edge 92, Type (0, 1), BuildingBlock: EZIPEK_clean_linker_0, # of connection points: 2
#     Edge 93, Type (0, 1), BuildingBlock: EZIPEK_clean_linker_0, # of connection points: 2
#     Edge 94, Type (0, 1), BuildingBlock: EZIPEK_clean_linker_0, # of connection points: 2
#     Edge 95, Type (0, 1), BuildingBlock: EZIPEK_clean_linker_0, # of connection points: 2
#     Edge 96, Type (0, 1), BuildingBlock: EZIPEK_clean_linker_0, # of connection points: 2
#     Edge 97, Type (0, 1), BuildingBlock: EZIPEK_clean_linker_0, # of connection points: 2
#     Edge 98, Type (0, 1), BuildingBlock: EZIPEK_clean_linker_0, # of connection points: 2
#     Edge 99, Type (0, 1), BuildingBlock: EZIPEK_clean_linker_0, # of connection points: 2
#     Edge 100, Type (0, 1), BuildingBlock: EZIPEK_clean_linker_0, # of connection points: 2
#     Edge 101, Type (0, 1), BuildingBlock: EZIPEK_clean_linker_0, # of connection points: 2
#     Edge 102, Type (0, 1), BuildingBlock: EZIPEK_clean_linker_0, # of connection points: 2
#     Edge 103, Type (0, 1), BuildingBlock: EZIPEK_clean_linker_0, # of connection points: 2
#     Edge 104, Type (0, 1), BuildingBlock: EZIPEK_clean_linker_0, # of connection points: 2
#     Edge 105, Type (0, 1), BuildingBlock: EZIPEK_clean_linker_0, # of connection points: 2
#     Edge 106, Type (0, 1), BuildingBlock: EZIPEK_clean_linker_0, # of connection points: 2
#     Edge 107, Type (0, 1), BuildingBlock: EZIPEK_clean_linker_0, # of connection points: 2
# Relax obj value: 0.025
# Max RMSD: 0.141
# Mean RMSD: 0.075
data_MOF--net-fgl--node1-ESEHIV_clean_sbu_0--node2-KUFVIS_clean_sbu_0--edge1-EZIPEK_clean_linker_0
_symmetry_space_group_name_H-M    P1
_symmetry_Int_Tables_number       1
_symmetry_cell_setting            triclinic
loop_
_symmetry_equiv_pos_as_xyz
'x, y, z'
_cell_length_a     54.465408
_cell_length_b     56.218901
_cell_length_c     37.509144
_cell_angle_alpha  89.260457
_cell_angle_beta   89.904674
_cell_angle_gamma 119.64056
loop_
_atom_site_label
_atom_site_type_symbol
_atom_site_fract_x
_atom_site_fract_y
_atom_site_fract_z
_atom_type_partial_charge
Cu0 Cu 0.04251 0.56777 0.9996 0.0
N1 N 0.06098 0.59059 0.03891 0.0
N2 N 0.06362 0.61367 0.08883 0.0
C3 C 0.04888 0.60187 0.05904 0.0
C4 C 0.08635 0.61006 0.08719 0.0
C5 C 0.08483 0.59609 0.05626 0.0
O6 O 0.01908 0.58252 0.98172 0.0
C7 C 0.03162 0.52017 0.04003 0.0
O8 O 0.0446 0.5371 0.06608 0.0
H9 H 0.02861 0.59997 0.0532 0.0
H10 H 0.09917 0.58901 0.04823 0.0
N11 N 0.06501 0.56999 0.96 0.0
N12 N 0.07018 0.55039 0.91049 0.0
C13 C 0.06564 0.54808 0.94628 0.0
C14 C 0.07016 0.58703 0.93194 0.0
C15 C 0.07331 0.57509 0.9016 0.0
C16 C 0.99513 0.5785 0.99243 0.0
O17 O 0.97986 0.55801 1.01441 0.0
H18 H 0.05941 0.52936 0.96134 0.0
H19 H 0.06805 0.60517 0.93257 0.0
O20 O 0.02423 0.52873 1.01266 0.0
H21 H 0.10217 0.61593 0.10771 0.0
H22 H 0.07531 0.58291 0.87459 0.0
Cu23 Cu 0.53118 0.56528 0.04181 0.0
N24 N 0.53211 0.57606 0.99163 0.0
N25 N 0.54842 0.59384 0.93745 0.0
C26 C 0.55467 0.58695 0.9694 0.0
C27 C 0.52092 0.58677 0.93939 0.0
C28 C 0.51089 0.57582 0.97299 0.0
O29 O 0.55828 0.60606 0.05426 0.0
C30 C 0.50612 0.50563 0.02323 0.0
O31 O 0.53234 0.51062 0.02154 0.0
H32 H 0.57533 0.59025 0.97659 0.0
H33 H 0.48981 0.56872 0.98336 0.0
N34 N 0.53066 0.55431 0.09176 0.0
N35 N 0.51518 0.53471 0.14534 0.0
C36 C 0.50817 0.54178 0.11399 0.0
C37 C 0.55247 0.55506 0.10957 0.0
C38 C 0.54296 0.54297 0.14273 0.0
C39 C 0.58528 0.61872 0.05245 0.0
O40 O 0.59831 0.60549 0.04254 0.0
H41 H 0.48701 0.5372 0.10703 0.0
H42 H 0.57359 0.56316 0.09881 0.0
O43 O 0.50134 0.52518 0.03033 0.0
H44 H 0.50925 0.59002 0.91838 0.0
H45 H 0.55526 0.53998 0.16312 0.0
Cu46 Cu 0.53124 0.05103 0.03828 0.0
N47 N 0.52205 0.0611 0.99463 0.0
N48 N 0.49754 0.05759 0.94567 0.0
C49 C 0.50154 0.04394 0.97272 0.0
C50 C 0.51636 0.08422 0.95024 0.0
C51 C 0.5315 0.08635 0.98057 0.0
O52 O 0.49667 0.02827 0.06511 0.0
C53 C 0.5789 0.05578 1.01293 0.0
O54 O 0.57956 0.07879 1.00517 0.0
H55 H 0.48874 0.02212 0.97761 0.0
H56 H 0.54777 0.10508 0.99192 0.0
N57 N 0.55095 0.08045 0.06842 0.0
N58 N 0.57569 0.10073 0.11673 0.0
C59 C 0.56416 0.07799 0.09715 0.0
C60 C 0.55388 0.10568 0.07007 0.0
C61 C 0.56958 0.11847 0.09992 0.0
C62 C 0.48016 0.03828 0.06503 0.0
O63 O 0.48664 0.05975 0.04459 0.0
H64 H 0.56504 0.05966 0.10388 0.0
H65 H 0.54475 0.11398 0.05162 0.0
O66 O 0.55702 0.037 0.02874 0.0
H67 H 0.51829 0.10091 0.93352 0.0
H68 H 0.57575 0.1389 0.10879 0.0
Cu69 Cu 0.52592 0.05209 0.54314 0.0
N70 N 0.52434 0.0377 0.49798 0.0
N71 N 0.54098 0.03867 0.44318 0.0
C72 C 0.54598 0.05092 0.47499 0.0
C73 C 0.51482 0.01667 0.44603 0.0
C74 C 0.50469 1.01588 0.48025 0.0
O75 O 0.56495 0.06157 0.55966 0.0
C76 C 0.48961 0.0719 0.51792 0.0
O77 O 0.47883 0.04838 0.50162 0.0
H78 H 0.5649 0.06985 0.48122 0.0
H79 H 0.48424 1.00103 0.49099 0.0
N80 N 0.5015 0.02709 0.57755 0.0
N81 N 0.47409 1.01524 0.62652 0.0
C82 C 0.48206 0.03025 0.59599 0.0
C83 C 0.50612 1.00964 0.59751 0.0
C84 C 0.48929 1.00228 0.62763 0.0
C85 C 0.57234 0.04324 0.55478 0.0
O86 O 0.55474 0.0206 0.5386 0.0
H87 H 0.47645 0.0457 0.58958 0.0
H88 H 0.52267 1.00492 0.59269 0.0
O89 O 0.51202 0.0793 0.53677 0.0
H90 H 0.50371 1.00259 0.42479 0.0
H91 H 0.48952 0.98982 0.64974 0.0
Cu92 Cu 0.04282 0.56507 0.50859 0.0
N93 N 0.0662 0.56096 0.54303 0.0
N94 N 0.07191 0.53935 0.59109 0.0
C95 C 0.05941 0.5366 0.55901 0.0
C96 C 0.08725 0.56667 0.59555 0.0
C97 C 0.08376 0.57982 0.56618 0.0
O98 O 1.01488 0.5272 0.50025 0.0
C99 C 0.0477 0.61286 0.5311 0.0
O100 O 0.07237 0.62115 0.51583 0.0
H101 H 0.04336 0.51714 0.54917 0.0
H102 H 0.09146 0.60154 0.56374 0.0
N103 N 0.05789 0.5833 0.464 0.0
N104 N 0.05999 0.60659 0.41364 0.0
C105 C 0.04412 0.59211 0.44211 0.0
C106 C 0.08344 0.59253 0.44857 0.0
C107 C 0.08474 0.60681 0.41746 0.0
C108 C 0.01973 0.51447 0.47581 0.0
O109 O 0.03667 0.52839 0.44921 0.0
H110 H 0.02297 0.58844 0.4474 0.0
H111 H 0.10016 0.58965 0.45954 0.0
O112 O 0.02935 0.58742 0.5314 0.0
H113 H 0.09898 0.57646 0.61931 0.0
H114 H 0.10263 0.61699 0.39941 0.0
Cu115 Cu 0.52174 0.54813 0.54164 0.0
N116 N 0.55694 0.55875 0.52129 0.0
N117 N 0.5998 0.58954 0.5015 0.0
C118 C 0.5791 0.58397 0.52525 0.0
C119 C 0.59091 0.56642 0.48271 0.0
C120 C 0.56447 0.54727 0.49528 0.0
O121 O 0.52913 0.57303 0.58171 0.0
C122 C 0.50078 0.54995 0.47148 0.0
O123 O 0.52734 0.56322 0.46129 0.0
H124 H 0.57921 0.59883 0.54328 0.0
H125 H 0.55099 0.52723 0.48449 0.0
N126 N 0.50459 0.51263 0.5594 0.0
N127 N 0.46685 0.47215 0.57109 0.0
C128 C 0.47681 0.4991 0.56652 0.0
C129 C 0.51272 0.49357 0.55941 0.0
C130 C 0.48924 0.46832 0.56675 0.0
C131 C 0.54631 0.57301 0.60494 0.0
O132 O 0.55507 0.55515 0.60182 0.0
H133 H 0.46368 0.50851 0.56503 0.0
H134 H 0.53358 0.49741 0.55197 0.0
O135 O 0.4947 0.54552 0.50468 0.0
H136 H 0.60231 0.56395 0.46073 0.0
H137 H 0.48826 0.44862 0.56662 0.0
Cu138 Cu 0.70628 0.90382 0.36514 0.0
N139 N 0.72374 0.93853 0.34429 0.0
N140 N 0.72444 0.976 0.32287 0.0
C141 C 0.70986 0.95258 0.3417 0.0
C142 C 0.74865 0.97676 0.31284 0.0
C143 C 0.74831 0.9536 0.32653 0.0
O144 O 0.68708 0.90822 0.4091 0.0
C145 C 0.70077 0.88014 0.2966 0.0
O146 O 0.72764 0.89873 0.29638 0.0
H147 H 0.6888 0.94515 0.35237 0.0
H148 H 0.76437 0.94784 0.3229 0.0
N149 N 0.73141 0.89267 0.38175 0.0
N150 N 0.74186 0.85955 0.39246 0.0
C151 C 0.73226 0.87092 0.36855 0.0
C152 C 0.74187 0.8956 0.41498 0.0
C153 C 0.74836 0.87515 0.42164 0.0
C154 C 0.70189 0.92917 0.42893 0.0
O155 O 0.72802 0.94638 0.41911 0.0
H156 H 0.72244 0.86111 0.34399 0.0
H157 H 0.74166 0.9094 0.43457 0.0
O158 O 0.68579 0.87838 0.32436 0.0
H159 H 0.76518 0.99275 0.29664 0.0
H160 H 0.7547 0.8705 0.44694 0.0
Cu161 Cu 0.20056 0.90353 0.40029 0.0
N162 N 0.16597 0.88616 0.37601 0.0
N163 N 0.13212 0.85236 0.34416 0.0
C164 C 0.15436 0.85987 0.36594 0.0
C165 C 0.12952 0.87496 0.34042 0.0
C166 C 0.15026 0.89572 0.36038 0.0
O167 O 0.19534 0.87771 0.43997 0.0
C168 C 0.22811 0.92648 0.3367 0.0
O169 O 0.20821 0.93319 0.33716 0.0
H170 H 0.16308 0.84685 0.37295 0.0
H171 H 0.15439 0.91658 0.36196 0.0
N172 N 0.21218 0.93828 0.42001 0.0
N173 N 0.24383 0.98119 0.43602 0.0
C174 C 0.23874 0.95946 0.41593 0.0
C175 C 0.20002 0.94673 0.44429 0.0
C176 C 0.2195 0.97314 0.45428 0.0
C177 C 0.17275 0.86974 0.45862 0.0
O178 O 0.15588 0.87942 0.45063 0.0
H179 H 0.25467 0.95849 0.39976 0.0
H180 H 0.17891 0.93432 0.45504 0.0
O181 O 0.22907 0.91169 0.36245 0.0
H182 H 0.11408 0.87649 0.32386 0.0
H183 H 0.21623 0.98529 0.47388 0.0
Cu184 Cu 0.19741 0.41448 0.36218 0.0
N185 N 0.1968 0.43245 0.31976 0.0
N186 N 0.18029 0.43701 0.26717 0.0
C187 C 0.17879 0.41949 0.293 0.0
C188 C 0.20022 0.46204 0.27765 0.0
C189 C 0.21038 0.45919 0.31027 0.0
O190 O 0.15765 0.39106 0.37769 0.0
C191 C 0.24721 0.41719 0.34104 0.0
O192 O 0.25159 0.44181 0.33391 0.0
H193 H 0.16359 0.39781 0.29353 0.0
H194 H 0.22564 0.47555 0.32649 0.0
N195 N 0.21339 0.43636 0.40197 0.0
N196 N 0.23286 0.43833 0.4551 0.0
C197 C 0.21061 0.42382 0.4338 0.0
C198 C 0.23724 0.4607 0.40422 0.0
C199 C 0.24925 0.46198 0.4371 0.0
C200 C 0.14247 0.40261 0.37502 0.0
O201 O 0.15351 0.42666 0.35906 0.0
H202 H 0.195 0.4026 0.43888 0.0
H203 H 0.2474 0.47468 0.38206 0.0
O204 O 0.22295 0.39934 0.35351 0.0
H205 H 0.20578 0.48106 0.26374 0.0
H206 H 0.27014 0.47745 0.44518 0.0
Cu207 Cu 0.19728 0.36939 0.87638 0.0
N208 N 0.19549 0.34572 0.84103 0.0
N209 N 0.20912 0.33862 0.78828 0.0
C210 C 0.21518 0.35599 0.81523 0.0
C211 C 0.18478 0.31593 0.79766 0.0
C212 C 0.17653 0.32022 0.83088 0.0
O213 O 0.23734 0.38533 0.89243 0.0
C214 C 0.15975 0.37918 0.83385 0.0
O215 O 0.1513 0.35376 0.82544 0.0
H216 H 0.23231 0.37695 0.81467 0.0
H217 H 0.15717 0.30671 0.84512 0.0
N218 N 0.17504 0.35333 0.91713 0.0
N219 N 0.15195 0.35641 0.96474 0.0
C220 C 0.15633 0.36052 0.92924 0.0
C221 C 0.18225 0.34379 0.94609 0.0
C222 C 0.1682 0.34581 0.97544 0.0
C223 C 0.24522 0.36741 0.89767 0.0
O224 O 0.2271 0.34164 0.89191 0.0
H225 H 0.14876 0.37169 0.91331 0.0
H226 H 0.19877 0.33854 0.94685 0.0
O227 O 0.18137 0.39162 0.85426 0.0
H228 H 0.17314 0.29832 0.78094 0.0
H229 H 0.17111 0.34155 1.00287 0.0
Cu230 Cu 0.70926 0.89734 0.8599 0.0
N231 N 0.72496 0.87645 0.84323 0.0
N232 N 0.72464 0.83807 0.82725 0.0
C233 C 0.71042 0.84884 0.84359 0.0
C234 C 0.74917 0.85969 0.81592 0.0
C235 C 0.74928 0.88343 0.82574 0.0
O236 O 0.68779 0.87315 0.90222 0.0
C237 C 0.6868 0.92316 0.8075 0.0
O238 O 0.67975 0.93332 0.83439 0.0
H239 H 0.68928 0.8368 0.85451 0.0
H240 H 0.76542 0.90419 0.81937 0.0
N241 N 0.73654 0.93178 0.87692 0.0
N242 N 0.7549 0.97493 0.89547 0.0
C243 C 0.73122 0.95185 0.8866 0.0
C244 C 0.76469 0.94258 0.88036 0.0
C245 C 0.77609 0.96927 0.89187 0.0
C246 C 0.69264 0.88066 0.93496 0.0
O247 O 0.70351 0.9068 0.94175 0.0
H248 H 0.71037 0.94964 0.88746 0.0
H249 H 0.77618 0.93195 0.87461 0.0
O250 O 0.69488 0.90556 0.81401 0.0
H251 H 0.76532 0.85836 0.80066 0.0
H252 H 0.79815 0.98347 0.89684 0.0
Cu253 Cu 0.19444 0.87131 0.89859 0.0
N254 N 0.19194 0.85135 0.85711 0.0
N255 N 0.17404 0.83159 0.80462 0.0
C256 C 0.16952 0.84155 0.83497 0.0
C257 C 0.20016 0.83477 0.80782 0.0
C258 C 0.2111 0.84679 0.84031 0.0
O259 O 0.15665 0.85109 0.9179 0.0
C260 C 0.21954 0.91938 0.85551 0.0
O261 O 0.20883 0.90253 0.82902 0.0
H262 H 0.15088 0.84319 0.84006 0.0
H263 H 0.23193 0.85269 0.85022 0.0
N264 N 0.21782 0.87156 0.93547 0.0
N265 N 0.24179 0.88722 0.98627 0.0
C266 C 0.23225 0.89349 0.95647 0.0
C267 C 0.21828 0.85063 0.95274 0.0
C268 C 0.23321 0.86029 0.98411 0.0
C269 C 0.13597 0.85535 0.91507 0.0
O270 O 0.13978 0.87877 0.90212 0.0
H271 H 0.23407 0.91328 0.95127 0.0
H272 H 0.20695 0.82955 0.94441 0.0
O273 O 0.21061 0.91038 0.88692 0.0
H274 H 0.21086 0.82956 0.78764 0.0
H275 H 0.23636 0.84829 1.0045 0.0
Cu276 Cu 0.35421 0.22128 0.72186 0.0
N277 N 0.32214 0.22089 0.70378 0.0
N278 N 0.29575 0.23493 0.67518 0.0
C279 C 0.32068 0.24259 0.69098 0.0
C280 C 0.2807 0.20748 0.67833 0.0
C281 C 0.29712 0.19882 0.69612 0.0
O282 O 0.37022 0.24834 0.76139 0.0
C283 C 0.37445 0.22714 0.648 0.0
O284 O 0.3622 0.24184 0.64187 0.0
H285 H 0.33812 0.2634 0.69134 0.0
H286 H 0.29178 0.17784 0.70142 0.0
N287 N 0.34324 0.18715 0.74205 0.0
N288 N 0.34285 0.14777 0.75014 0.0
C289 C 0.35524 0.17213 0.7332 0.0
C290 C 0.32245 0.17165 0.76552 0.0
C291 C 0.3222 0.14712 0.77065 0.0
C292 C 0.35305 0.24825 0.78509 0.0
O293 O 0.3259 0.23141 0.78125 0.0
H294 H 0.37259 0.17875 0.7144 0.0
H295 H 0.30821 0.17752 0.77752 0.0
O296 O 0.37749 0.22151 0.68035 0.0
H297 H 0.26003 0.19468 0.66707 0.0
H298 H 0.3079 0.1301 0.7876 0.0
Cu299 Cu 0.86116 0.2312 0.68016 0.0
N300 N 0.85268 0.24808 0.64321 0.0
N301 N 0.86452 0.27456 0.5944 0.0
C302 C 0.86915 0.257 0.61391 0.0
C303 C 0.84399 0.27669 0.61178 0.0
C304 C 0.83667 0.26021 0.64215 0.0
O305 O 0.90241 0.25857 0.68411 0.0
C306 C 0.83708 0.16979 0.68289 0.0
O307 O 0.85085 0.17222 0.71257 0.0
H308 H 0.88637 0.25298 0.60901 0.0
H309 H 0.8227 0.25915 0.66341 0.0
N310 N 0.84485 0.23343 0.72269 0.0
N311 N 0.82393 0.21948 0.77593 0.0
C312 C 0.82501 0.21235 0.74202 0.0
C313 C 0.85587 0.25491 0.74466 0.0
C314 C 0.84328 0.24629 0.77773 0.0
C315 C 0.91846 0.26564 0.71147 0.0
O316 O 0.91172 0.24788 0.73791 0.0
H317 H 0.81272 0.1919 0.73206 0.0
H318 H 0.8732 0.27497 0.73775 0.0
O319 O 0.84199 0.19162 0.66562 0.0
H320 H 0.83676 0.29093 0.60478 0.0
H321 H 0.84868 0.25841 0.80163 0.0
Cu322 Cu 0.87325 0.73279 0.69354 0.0
N323 N 0.877 0.75279 0.65199 0.0
N324 N 0.86566 0.7599 0.59756 0.0
C325 C 0.86172 0.74121 0.62283 0.0
C326 C 0.88518 0.78427 0.61051 0.0
C327 C 0.89227 0.77977 0.64434 0.0
O328 O 0.83273 0.70762 0.70422 0.0
C329 C 0.92581 0.73914 0.6856 0.0
O330 O 0.93102 0.76421 0.69091 0.0
H331 H 0.84591 0.71976 0.62154 0.0
H332 H 0.90625 0.79516 0.66272 0.0
N333 N 0.88566 0.75375 0.73412 0.0
N334 N 0.90448 0.7637 0.78804 0.0
C335 C 0.89473 0.74524 0.76204 0.0
C336 C 0.88916 0.77839 0.74293 0.0
C337 C 0.90105 0.78471 0.77654 0.0
C338 C 0.81555 0.71624 0.69637 0.0
O339 O 0.82488 0.73864 0.67694 0.0
H340 H 0.89534 0.72629 0.76263 0.0
H341 H 0.8843 0.79111 0.72583 0.0
O342 O 0.90015 0.71957 0.68623 0.0
H343 H 0.89181 0.80394 0.59781 0.0
H344 H 0.90783 0.80361 0.79064 0.0
Cu345 Cu 0.84304 0.70987 0.17824 0.0
N346 N 0.83635 0.6905 0.13635 0.0
N347 N 0.84897 0.68055 0.08485 0.0
C348 C 0.85494 0.69984 0.10926 0.0
C349 C 0.82515 0.65819 0.09628 0.0
C350 C 0.81743 0.66439 0.12855 0.0
O351 O 0.88365 0.72286 0.18999 0.0
C352 C 0.80449 0.72764 0.15604 0.0
O353 O 0.79331 0.7037 0.1407 0.0
H354 H 0.87391 0.71971 0.10894 0.0
H355 H 0.80046 0.65044 0.14608 0.0
N356 N 0.82378 0.68701 0.21663 0.0
N357 N 0.81129 0.68396 0.27381 0.0
C358 C 0.81092 0.69424 0.24129 0.0
C359 C 0.83141 0.67056 0.23391 0.0
C360 C 0.82415 0.669 0.26934 0.0
C361 C 0.89303 0.70603 0.18566 0.0
O362 O 0.87673 0.68243 0.17068 0.0
H363 H 0.80505 0.70981 0.23664 0.0
H364 H 0.84457 0.66317 0.22289 0.0
O365 O 0.8278 0.73588 0.17296 0.0
H366 H 0.81539 0.63845 0.08359 0.0
H367 H 0.83002 0.65965 0.29062 0.0
Cu368 Cu 0.379 0.22872 0.21506 0.0
N369 N 0.39297 0.20543 0.2013 0.0
N370 N 0.39029 0.16483 0.19145 0.0
C371 C 0.3766 0.17784 0.20288 0.0
C372 C 0.41637 0.18498 0.18198 0.0
C373 C 0.41798 0.21004 0.18805 0.0
O374 O 0.35732 0.20641 0.25802 0.0
C375 C 0.35807 0.25466 0.16136 0.0
O376 O 0.3515 0.26554 0.18786 0.0
H377 H 0.35487 0.16742 0.21212 0.0
H378 H 0.43598 0.23006 0.18284 0.0
N379 N 0.40582 0.26367 0.23165 0.0
N380 N 0.42179 0.30622 0.25181 0.0
C381 C 0.39901 0.28251 0.24257 0.0
C382 C 0.43417 0.27603 0.23435 0.0
C383 C 0.44408 0.30232 0.24693 0.0
C384 C 0.36176 0.21504 0.29025 0.0
O385 O 0.36837 0.24048 0.29599 0.0
H386 H 0.37761 0.27884 0.24442 0.0
H387 H 0.44677 0.26672 0.22758 0.0
O388 O 0.36524 0.23647 0.1684 0.0
H389 H 0.43296 0.18178 0.17126 0.0
H390 H 0.46587 0.3174 0.25191 0.0
Cu391 Cu 0.85371 0.25963 0.18067 0.0
N392 N 0.83596 0.25957 0.13842 0.0
N393 N 0.81487 0.241 0.08705 0.0
C394 C 0.81904 0.23632 0.12119 0.0
C395 C 0.83011 0.26844 0.08238 0.0
C396 C 0.84311 0.27986 0.11422 0.0
O397 O 0.8292 0.22447 0.20321 0.0
C398 C 0.91322 0.27952 0.18431 0.0
O399 O 0.91064 0.27785 0.2191 0.0
H400 H 0.81163 0.21613 0.13269 0.0
H401 H 0.85815 0.30115 0.11871 0.0
N402 N 0.85754 0.28599 0.21347 0.0
N403 N 0.87434 0.30949 0.26335 0.0
C404 C 0.86631 0.28576 0.24684 0.0
C405 C 0.8584 0.31023 0.20933 0.0
C406 C 0.86906 0.32497 0.24022 0.0
C407 C 0.80643 0.22271 0.21524 0.0
O408 O 0.80277 0.24407 0.21292 0.0
H409 H 0.8694 0.2695 0.25764 0.0
H410 H 0.85431 0.31769 0.18459 0.0
O411 O 0.89134 0.26805 0.16499 0.0
H412 H 0.83242 0.27928 0.05744 0.0
H413 H 0.87519 0.34625 0.24397 0.0
Mn414 Mn 0.03458 0.70388 0.2525 0.0
Mn415 Mn 0.97447 0.64383 0.25525 0.0
C416 C 0.99353 0.70191 0.22992 0.0
C417 C 0.06517 0.74529 0.28114 0.0
C418 C 0.02297 0.65623 0.20308 0.0
O419 O 0.04301 0.68026 0.28783 0.0
O420 O 0.99941 0.64362 0.29444 0.0
C421 C 0.95067 0.6483 0.32413 0.0
N422 N 0.94821 0.64478 0.28821 0.0
C423 C 0.90172 0.63978 0.28911 0.0
C424 C 0.90367 0.64319 0.32616 0.0
C425 C 0.9283 0.64758 0.34371 0.0
C426 C 0.92472 0.64077 0.27101 0.0
H427 H 0.9696 0.65171 0.33768 0.0
C428 C 0.02561 0.65737 0.30291 0.0
O429 O 0.07398 0.736 0.25545 0.0
O430 O 0.03924 0.72969 0.29132 0.0
N431 N 0.94857 0.64153 0.21911 0.0
C432 C 0.95143 0.64216 0.18297 0.0
C433 C 0.92897 0.6388 0.1613 0.0
C434 C 0.90398 0.63537 0.177 0.0
C435 C 0.90187 0.63575 0.21419 0.0
C436 C 0.92482 0.63885 0.23443 0.0
H437 H 0.97101 0.64605 0.1707 0.0
O438 O 1.0183 0.72185 0.22125 0.0
O439 O 0.99379 0.68383 0.25202 0.0
O440 O 0.03717 0.68193 0.20964 0.0
O441 O 1.00023 0.64049 0.2203 0.0
C442 C 0.87808 0.63369 0.23194 0.0
C443 C 0.87804 0.63585 0.26936 0.0
H444 H 0.88649 0.64271 0.34134 0.0
H445 H 0.93004 0.65039 0.37227 0.0
H446 H 0.93111 0.63929 0.13258 0.0
H447 H 0.88677 0.63303 0.16027 0.0
H448 H 0.85985 0.63076 0.21696 0.0
H449 H 0.85984 0.63478 0.28264 0.0
Mn450 Mn 0.40328 0.4345 0.31409 0.0
Mn451 Mn 0.38806 0.48412 0.29201 0.0
C452 C 0.35764 0.427 0.32471 0.0
C453 C 0.40957 0.39764 0.2972 0.0
C454 C 0.42446 0.48773 0.35589 0.0
O455 O 0.43585 0.46049 0.28086 0.0
O456 O 0.41915 0.48774 0.2609 0.0
C457 C 0.36583 0.46617 0.21951 0.0
N458 N 0.36246 0.47319 0.25303 0.0
C459 C 0.31852 0.4708 0.23745 0.0
C460 C 0.32147 0.46356 0.20271 0.0
C461 C 0.34513 0.461 0.1938 0.0
C462 C 0.33947 0.475 0.26213 0.0
H463 H 0.38422 0.46463 0.21246 0.0
C464 C 0.43692 0.47917 0.26005 0.0
O465 O 0.42253 0.41265 0.32432 0.0
O466 O 0.39281 0.4038 0.27985 0.0
N467 N 0.358 0.4834 0.31937 0.0
C468 C 0.35715 0.48833 0.35466 0.0
C469 C 0.3352 0.4921 0.36789 0.0
C470 C 0.31415 0.49041 0.34477 0.0
C471 C 0.3149 0.48434 0.30877 0.0
C472 C 0.33739 0.48096 0.29713 0.0
H473 H 0.37279 0.48884 0.37265 0.0
O474 O 0.36646 0.41194 0.34044 0.0
O475 O 0.3756 0.44541 0.30248 0.0
O476 O 0.41897 0.4628 0.35453 0.0
O477 O 0.41505 0.49793 0.3326 0.0
C478 C 0.2943 0.48161 0.28391 0.0
C479 C 0.29578 0.4743 0.24847 0.0
H480 H 0.30573 0.45992 0.1827 0.0
H481 H 0.34756 0.45539 0.16707 0.0
H482 H 0.3344 0.49611 0.39588 0.0
H483 H 0.29728 0.49335 0.35509 0.0
H484 H 0.277 0.48476 0.29185 0.0
H485 H 0.27945 0.47162 0.22986 0.0
Mn486 Mn 0.67065 0.08438 0.28696 0.0
Mn487 Mn 0.67153 0.14366 0.3006 0.0
C488 C 0.70784 0.12468 0.26555 0.0
C489 C 0.68234 0.0511 0.30239 0.0
C490 C 0.63903 0.10653 0.24107 0.0
O491 O 0.6414 0.07375 0.32671 0.0
O492 O 0.64001 0.11271 0.32756 0.0
C493 C 0.69181 0.14531 0.37431 0.0
N494 N 0.69441 0.15791 0.34214 0.0
C495 C 0.73845 0.19675 0.35946 0.0
C496 C 0.73544 0.18475 0.39334 0.0
C497 C 0.71215 0.15879 0.40067 0.0
C498 C 0.71747 0.18231 0.33429 0.0
H499 H 0.67468 0.12488 0.37961 0.0
C500 C 0.63034 0.08778 0.33744 0.0
O501 O 0.66207 0.04608 0.28027 0.0
O502 O 0.69414 0.07473 0.31763 0.0
N503 N 0.69982 0.17591 0.27669 0.0
C504 C 0.69875 0.18528 0.24335 0.0
C505 C 0.72032 0.21114 0.23184 0.0
C506 C 0.74248 0.22729 0.25493 0.0
C507 C 0.74246 0.21774 0.28964 0.0
C508 C 0.72003 0.19207 0.29984 0.0
H509 H 0.68158 0.17307 0.22563 0.0
O510 O 0.70236 0.10156 0.2519 0.0
O511 O 0.69158 0.12355 0.29177 0.0
O512 O 0.64345 0.08709 0.25097 0.0
O513 O 0.6494 0.12957 0.25673 0.0
C514 C 0.76357 0.23285 0.31468 0.0
C515 C 0.76172 0.22223 0.34948 0.0
H516 H 0.75117 0.19503 0.41368 0.0
H517 H 0.71008 0.14903 0.42642 0.0
H518 H 0.7199 0.21855 0.20521 0.0
H519 H 0.75915 0.24716 0.24592 0.0
H520 H 0.78137 0.25261 0.30743 0.0
H521 H 0.77826 0.23386 0.36838 0.0
Mn522 Mn 0.05144 0.43237 0.76874 0.0
Mn523 Mn 0.07627 0.41006 0.70185 0.0
C524 C 0.0795 0.41245 0.7823 0.0
C525 C 0.0564 0.46751 0.80785 0.0
C526 C 1.01481 0.37871 0.7273 0.0
O527 O 0.04827 0.45287 0.72465 0.0
O528 O 0.06925 0.43996 0.68315 0.0
C529 C 0.13103 0.459 0.68331 0.0
N530 N 0.11622 0.43275 0.69584 0.0
C531 C 0.15831 0.42895 0.69699 0.0
C532 C 0.17413 0.4563 0.68548 0.0
C533 C 0.16039 0.47138 0.67854 0.0
C534 C 0.12919 0.41794 0.70213 0.0
H535 H 0.12045 0.47014 0.67611 0.0
C536 C 0.05834 0.45453 0.69327 0.0
O537 O 0.03189 0.44707 0.79983 0.0
O538 O 0.07788 0.46796 0.79222 0.0
N539 N 0.08446 0.38205 0.71676 0.0
C540 C 0.06618 0.35565 0.7269 0.0
C541 C 0.07658 0.33774 0.73431 0.0
C542 C 0.10553 0.34691 0.73038 0.0
C543 C 0.12381 0.37398 0.71927 0.0
C544 C 0.11237 0.39109 0.71304 0.0
H545 H 0.04382 0.34822 0.72951 0.0
O546 O 0.06233 0.41317 0.80575 0.0
O547 O 0.07919 0.42285 0.75113 0.0
O548 O 1.0174 0.39518 0.75227 0.0
O549 O 0.03511 0.38384 0.70581 0.0
C550 C 0.15287 0.38445 0.71347 0.0
C551 C 0.17019 0.412 0.70266 0.0
H552 H 0.19673 0.46574 0.68121 0.0
H553 H 0.17231 0.4923 0.66881 0.0
H554 H 0.06227 0.31684 0.74274 0.0
H555 H 0.11348 0.33297 0.73577 0.0
H556 H 0.16181 0.37119 0.7166 0.0
H557 H 0.19255 0.41993 0.69825 0.0
Mn558 Mn 0.6544 0.67189 0.75418 0.0
Mn559 Mn 0.69684 0.67761 0.82367 0.0
C560 C 0.70126 0.68271 0.74347 0.0
C561 C 0.61965 0.64522 0.71234 0.0
C562 C 0.68536 0.72335 0.80114 0.0
O563 O 0.62616 0.6538 0.79501 0.0
O564 O 0.6563 0.6587 0.83895 0.0
C565 C 0.67628 0.61812 0.83082 0.0
N566 N 0.698 0.64415 0.8258 0.0
C567 C 0.73138 0.62812 0.81965 0.0
C568 C 0.70936 0.60117 0.8247 0.0
C569 C 0.68168 0.59616 0.83028 0.0
C570 C 0.72464 0.64915 0.81997 0.0
H571 H 0.655 0.61412 0.83516 0.0
C572 C 0.63136 0.65039 0.82717 0.0
O573 O 0.62346 0.66881 0.72227 0.0
O574 O 0.63587 0.63697 0.72672 0.0
N575 N 0.73666 0.69495 0.81494 0.0
C576 C 0.75591 0.72216 0.81666 0.0
C577 C 0.78488 0.7308 0.81463 0.0
C578 C 0.79381 0.71139 0.81123 0.0
C579 C 0.77373 0.68346 0.81188 0.0
C580 C 0.74519 0.67608 0.81494 0.0
H581 H 0.74921 0.73718 0.81966 0.0
O582 O 0.68703 0.68756 0.71957 0.0
O583 O 0.68744 0.67093 0.77279 0.0
O584 O 0.66787 0.70985 0.77651 0.0
O585 O 0.6974 0.7132 0.82055 0.0
C586 C 0.78099 0.66265 0.811 0.0
C587 C 0.75979 0.63497 0.81456 0.0
H588 H 0.71347 0.58418 0.82451 0.0
H589 H 0.66456 0.57541 0.83423 0.0
H590 H 0.80028 0.75238 0.81543 0.0
H591 H 0.81613 0.71815 0.80908 0.0
H592 H 0.80286 0.66774 0.80817 0.0
H593 H 0.76563 0.61915 0.81408 0.0
Mn594 Mn 0.38013 0.02868 0.8011 0.0
Mn595 Mn 0.33388 0.99824 0.73507 0.0
C596 C 0.33243 1.00295 0.81494 0.0
C597 C 0.41291 0.02969 0.84097 0.0
C598 C 0.36403 0.05943 0.74809 0.0
O599 O 0.40447 0.03015 0.7588 0.0
O600 O 0.37092 1.00181 0.72074 0.0
C601 C 0.32745 0.94271 0.73534 0.0
N602 N 0.31597 0.95922 0.73916 0.0
C603 C 0.26962 0.92031 0.74816 0.0
C604 C 0.2811 0.90294 0.74514 0.0
C605 C 0.31017 0.91421 0.73864 0.0
C606 C 0.28798 0.94856 0.7452 0.0
H607 H 0.34952 0.95121 0.72944 0.0
C608 C 0.39679 0.01636 0.73019 0.0
O609 O 0.41414 0.052 0.82912 0.0
O610 O 0.39278 1.00652 0.82946 0.0
N611 N 0.29744 0.99368 0.74597 0.0
C612 C 0.28949 1.01313 0.74789 0.0
C613 C 0.26091 1.00518 0.75302 0.0
C614 C 0.24073 0.97729 0.7558 0.0
C615 C 0.24938 0.95766 0.75347 0.0
C616 C 0.27813 0.96679 0.74827 0.0
H617 H 0.30476 0.03459 0.74566 0.0
O618 O 0.34984 0.02055 0.83743 0.0
O619 O 0.34379 1.00061 0.7856 0.0
O620 O 0.37394 0.05807 0.77822 0.0
O621 O 0.35026 0.03839 0.72884 0.0
C622 C 0.23053 0.92938 0.75605 0.0
C623 C 0.24063 0.91067 0.7537 0.0
H624 H 0.26776 0.88093 0.74743 0.0
H625 H 0.31919 0.90096 0.73583 0.0
H626 H 0.25446 0.0205 0.75484 0.0
H627 H 0.21868 0.97119 0.75988 0.0
H628 H 0.20827 0.92202 0.7602 0.0
H629 H 0.22602 0.88892 0.75602 0.0
Mn630 Mn 0.70499 0.02121 0.61451 0.0
Mn631 Mn 0.63817 0.96735 0.61658 0.0
C632 C 0.66695 0.02616 0.59161 0.0
C633 C 0.74406 0.06203 0.63746 0.0
C634 C 0.68256 0.97183 0.56278 0.0
O635 O 0.70662 0.99554 0.65422 0.0
O636 O 0.66092 0.96212 0.65491 0.0
C637 C 0.61988 0.97633 0.68722 0.0
N638 N 0.616 0.97309 0.65137 0.0
C639 C 0.57264 0.97451 0.65518 0.0
C640 C 0.57608 0.97771 0.69216 0.0
C641 C 0.59992 0.97883 0.7082 0.0
C642 C 0.5935 0.97264 0.63557 0.0
H643 H 0.63804 0.97699 0.69973 0.0
C644 C 0.68599 0.97339 0.66773 0.0
O645 O 0.74727 0.04686 0.61432 0.0
O646 O 0.71835 0.05279 0.64896 0.0
N647 N 0.61353 0.96969 0.58214 0.0
C648 C 0.61384 0.96758 0.54598 0.0
C649 C 0.59186 0.96699 0.52581 0.0
C650 C 0.56947 0.96792 0.54304 0.0
C651 C 0.5694 0.96968 0.58028 0.0
C652 C 0.59209 0.97064 0.59895 0.0
H653 H 0.63074 0.96644 0.53251 0.0
O654 O 0.69283 0.0421 0.58102 0.0
O655 O 0.66403 1.0073 0.61453 0.0
O656 O 0.70223 0.99487 0.57389 0.0
O657 O 0.65838 0.95923 0.57822 0.0
C658 C 0.54757 0.97028 0.59961 0.0
C659 C 0.54932 0.97305 0.63699 0.0
H660 H 0.56061 0.97942 0.70847 0.0
H661 H 0.60279 0.98142 0.73671 0.0
H662 H 0.59208 0.9656 0.49707 0.0
H663 H 0.55243 0.96725 0.52742 0.0
H664 H 0.52929 0.96849 0.58589 0.0
H665 H 0.53262 0.97402 0.65147 0.0
Mn666 Mn 0.07312 0.75132 0.62175 0.0
Mn667 Mn 0.06993 0.80942 0.62737 0.0
C668 C 0.03386 0.75038 0.64793 0.0
C669 C 0.06363 0.71154 0.59235 0.0
C670 C 0.10447 0.79531 0.67813 0.0
O671 O 0.10305 0.7763 0.58495 0.0
O672 O 0.09948 0.81425 0.5915 0.0
C673 C 0.0479 0.80778 0.55469 0.0
N674 N 0.04525 0.8088 0.59068 0.0
C675 C 1.00124 0.80871 0.58433 0.0
C676 C 1.00358 0.80778 0.54721 0.0
C677 C 0.02697 0.80721 0.53235 0.0
C678 C 0.0226 0.8089 0.60527 0.0
H679 H 0.06579 0.80731 0.54308 0.0
C680 C 0.11028 0.80106 0.57669 0.0
O681 O 0.08333 0.7221 0.61615 0.0
O682 O 0.05047 0.72477 0.58439 0.0
N683 N 0.04229 0.80818 0.66 0.0
C684 C 0.04362 0.80986 0.6962 0.0
C685 C 0.0221 0.81112 0.71519 0.0
C686 C 0.99964 0.81105 0.69677 0.0
C687 C 0.99909 0.81003 0.65944 0.0
C688 C 0.02124 0.80896 0.64194 0.0
H689 H 0.06099 0.81025 0.71055 0.0
O690 O 0.04027 0.73154 0.65536 0.0
O691 O 0.05094 0.76945 0.62569 0.0
O692 O 0.09928 0.77311 0.66294 0.0
O693 O 0.09454 0.81048 0.66703 0.0
C694 C 0.97762 0.81037 0.63888 0.0
C695 C 0.97855 0.80943 0.60137 0.0
H696 H 0.98752 0.80745 0.52988 0.0
H697 H 0.02888 0.80639 0.50372 0.0
H698 H 0.02304 0.81234 0.74393 0.0
H699 H 0.98312 0.81214 0.71148 0.0
H700 H 0.9603 0.81134 0.65163 0.0
H701 H 0.96175 0.80939 0.58589 0.0
Mn702 Mn 0.30156 0.3676 0.59835 0.0
Mn703 Mn 0.32689 0.43163 0.62878 0.0
C704 C 0.34725 0.40094 0.58359 0.0
C705 C 0.29284 0.32359 0.60962 0.0
C706 C 0.28504 0.40843 0.56781 0.0
O707 O 0.27455 0.36266 0.63812 0.0
O708 O 0.29551 0.40512 0.66072 0.0
C709 C 0.35079 0.42548 0.6969 0.0
N710 N 0.35428 0.43847 0.66483 0.0
C711 C 0.40323 0.46969 0.67686 0.0
C712 C 0.40012 0.45674 0.71009 0.0
C713 C 0.37382 0.43444 0.72006 0.0
C714 C 0.37962 0.45964 0.65472 0.0
H715 H 0.33061 0.40839 0.70476 0.0
C716 C 0.27692 0.3796 0.66175 0.0
O717 O 0.27782 0.32812 0.58649 0.0
O718 O 0.31322 0.34444 0.62506 0.0
N719 N 0.35775 0.45916 0.60125 0.0
C720 C 0.3574 0.46909 0.56803 0.0
C721 C 0.3822 0.4912 0.55386 0.0
C722 C 0.40695 0.50317 0.57419 0.0
C723 C 0.40673 0.49284 0.60849 0.0
C724 C 0.38141 0.47072 0.62117 0.0
H725 H 0.33838 0.46022 0.55238 0.0
O726 O 0.33421 0.37901 0.56466 0.0
O727 O 0.33295 0.40259 0.61027 0.0
O728 O 0.28396 0.3852 0.567 0.0
O729 O 0.29965 0.42679 0.59054 0.0
C730 C 0.43059 0.50372 0.63069 0.0
C731 C 0.4289 0.49204 0.66474 0.0
H732 H 0.41782 0.46366 0.72808 0.0
H733 H 0.37128 0.42426 0.74559 0.0
H734 H 0.38219 0.49908 0.52739 0.0
H735 H 0.42595 0.52035 0.56322 0.0
H736 H 0.45041 0.52099 0.62181 0.0
H737 H 0.44749 0.50035 0.68134 0.0
Mn738 Mn 0.69417 0.78685 0.12572 0.0
Mn739 Mn 0.72454 0.77386 0.05447 0.0
C740 C 0.72704 0.77099 0.13466 0.0
C741 C 0.69159 0.81517 0.17152 0.0
C742 C 0.6648 0.73399 0.08041 0.0
O743 O 0.68708 0.80762 0.08388 0.0
O744 O 0.70856 0.7979 0.0395 0.0
C745 C 0.77177 0.83023 0.04183 0.0
N746 N 0.76246 0.80321 0.04835 0.0
C747 C 0.80978 0.8104 0.04426 0.0
C748 C 0.81985 0.83833 0.03763 0.0
C749 C 0.80075 0.8483 0.03655 0.0
C750 C 0.7807 0.79347 0.0499 0.0
H751 H 0.75717 0.83789 0.04047 0.0
C752 C 0.69502 0.80958 0.05109 0.0
O753 O 0.66958 0.79332 0.16047 0.0
O754 O 0.71505 0.82161 0.15481 0.0
N755 N 0.74125 0.75134 0.06337 0.0
C756 C 0.72812 0.72374 0.06919 0.0
C757 C 0.74426 0.71053 0.07093 0.0
C758 C 0.77362 0.72565 0.06555 0.0
C759 C 0.78657 0.75384 0.05842 0.0
C760 C 0.76943 0.76595 0.05735 0.0
H761 H 0.70549 0.71183 0.07266 0.0
O762 O 0.70895 0.76839 0.1591 0.0
O763 O 0.72579 0.78321 0.1054 0.0
O764 O 0.6643 0.7491 0.10538 0.0
O765 O 0.68605 0.74182 0.05948 0.0
C766 C 0.81582 0.7704 0.05225 0.0
C767 C 0.82744 0.7987 0.04537 0.0
H768 H 0.84217 0.85229 0.03326 0.0
H769 H 0.80833 0.86982 0.03137 0.0
H770 H 0.73405 0.68871 0.07614 0.0
H771 H 0.78599 0.71538 0.06673 0.0
H772 H 0.8296 0.76163 0.05303 0.0
H773 H 0.84999 0.81127 0.041 0.0
Mn774 Mn 0.32804 0.99339 0.14421 0.0
Mn775 Mn 0.37336 1.01079 0.21342 0.0
C776 C 0.37569 1.01016 0.13375 0.0
C777 C 0.29815 0.96054 0.10277 0.0
C778 C 0.35334 0.04886 0.18366 0.0
O779 O 0.30124 0.97441 0.18633 0.0
O780 O 0.3334 0.98856 0.23027 0.0
C781 C 0.36159 0.95441 0.23023 0.0
N782 N 0.38019 0.98077 0.22054 0.0
C783 C 0.41802 0.9705 0.2152 0.0
C784 C 0.39917 0.94319 0.22476 0.0
C785 C 0.37083 0.93514 0.23237 0.0
C786 C 0.40749 0.98871 0.21309 0.0
H787 H 0.33989 0.94813 0.23635 0.0
C788 C 0.30799 0.97513 0.21903 0.0
O789 O 0.29583 0.98196 0.10971 0.0
O790 O 0.31646 0.95747 0.12122 0.0
N791 N 0.41281 0.03184 0.20228 0.0
C792 C 0.42905 0.0596 0.1996 0.0
C793 C 0.45839 0.07149 0.19481 0.0
C794 C 0.4708 0.05477 0.19357 0.0
C795 C 0.45391 0.02644 0.19872 0.0
C796 C 0.42486 1.01584 0.20404 0.0
H797 H 0.41967 0.07259 0.20095 0.0
O798 O 0.35967 1.01119 0.10903 0.0
O799 O 0.3634 0.99926 0.16407 0.0
O800 O 0.33578 0.03176 0.16127 0.0
O801 O 0.36807 0.04291 0.20484 0.0
C802 C 0.4649 1.00843 0.20006 0.0
C803 C 0.44691 0.98042 0.20804 0.0
H804 H 0.40626 0.92831 0.22663 0.0
H805 H 0.35617 0.91413 0.23997 0.0
H806 H 0.47139 0.09348 0.19192 0.0
H807 H 0.49337 0.06395 0.18952 0.0
H808 H 0.48722 1.01599 0.1956 0.0
H809 H 0.45563 0.9668 0.20933 0.0
Mn810 Mn 0.06415 0.4006 0.11345 0.0
Mn811 Mn 1.01735 0.36074 0.05158 0.0
C812 C 1.01826 0.36937 0.13053 0.0
C813 C 0.09991 0.40984 0.15432 0.0
C814 C 0.03934 0.4221 0.05708 0.0
O815 O 0.0889 0.4021 0.07142 0.0
O816 O 0.05588 0.36848 0.03748 0.0
C817 C 0.01951 0.3091 0.056 0.0
N818 N 1.00469 0.32262 0.05933 0.0
C819 C 0.96156 0.28028 0.07072 0.0
C820 C 0.97665 0.26612 0.06872 0.0
C821 C 1.00575 0.2806 0.06117 0.0
C822 C 0.97654 0.30877 0.0658 0.0
H823 H 0.04152 0.3199 0.04881 0.0
C824 C 0.08159 0.38525 0.0457 0.0
O825 O 0.09709 0.42927 0.13945 0.0
O826 O 0.08245 0.38493 0.14493 0.0
N827 N 0.97937 0.35141 0.06386 0.0
C828 C 0.96802 0.3681 0.06703 0.0
C829 C 0.93879 0.35665 0.07225 0.0
C830 C 0.92157 0.32814 0.07509 0.0
C831 C 0.93386 0.31138 0.07361 0.0
C832 C 0.96306 0.32396 0.06755 0.0
H833 H 0.9812 0.38997 0.06648 0.0
O834 O 0.03385 0.39008 0.15057 0.0
O835 O 0.02994 0.36789 0.10116 0.0
O836 O 0.05159 0.42477 0.08688 0.0
O837 O 0.02795 0.39955 0.04031 0.0
C838 C 0.91833 0.28275 0.07838 0.0
C839 C 0.93221 0.26723 0.07719 0.0
H840 H 0.96605 0.2441 0.07246 0.0
H841 H 1.01747 0.26977 0.05887 0.0
H842 H 0.9296 0.36979 0.07458 0.0
H843 H 0.89908 0.31939 0.0793 0.0
H844 H 0.89575 0.27249 0.08334 0.0
H845 H 0.92009 0.24524 0.08114 0.0
Mn846 Mn 0.37852 0.35327 0.96825 0.0
Mn847 Mn 0.31273 0.29825 0.9682 0.0
C848 C 0.3409 0.35661 0.94193 0.0
C849 C 0.41471 0.3946 0.99267 0.0
C850 C 0.35923 0.30463 0.91659 0.0
O851 O 0.38027 0.32813 1.00855 0.0
O852 O 0.33509 0.29392 1.00769 0.0
C853 C 0.29292 0.30738 0.03765 0.0
N854 N 0.28949 0.30352 1.00182 0.0
C855 C 0.24581 0.30442 1.00377 0.0
C856 C 0.24876 0.3082 0.04071 0.0
C857 C 0.27253 0.30988 0.05767 0.0
C858 C 0.26707 0.30258 0.98511 0.0
H859 H 0.31108 0.30857 0.05087 0.0
C860 C 0.3598 0.30568 0.02151 0.0
O861 O 0.42018 0.38033 0.97046 0.0
O862 O 0.3885 0.38409 1.00265 0.0
N863 N 0.28812 0.29941 0.93266 0.0
C864 C 0.28873 0.29642 0.89671 0.0
C865 C 0.26659 0.29468 0.87575 0.0
C866 C 0.24373 0.29537 0.89201 0.0
C867 C 0.24337 0.29812 0.92908 0.0
C868 C 0.26617 0.30005 0.94856 0.0
H869 H 0.30595 0.29534 0.88404 0.0
O870 O 0.36695 0.37329 0.93289 0.0
O871 O 0.33762 0.33817 0.96575 0.0
O872 O 0.37828 0.32774 0.92829 0.0
O873 O 0.33472 0.29124 0.93117 0.0
C874 C 0.22117 0.29882 0.94752 0.0
C875 C 0.22258 0.30237 0.98475 0.0
H876 H 0.23296 0.30993 0.05629 0.0
H877 H 0.27504 0.31293 0.08615 0.0
H878 H 0.26701 0.29254 0.84715 0.0
H879 H 0.22655 0.29371 0.87575 0.0
H880 H 0.20297 0.2968 0.93329 0.0
H881 H 0.20564 0.30343 0.99849 0.0
Mn882 Mn 0.7366 0.1042 0.94648 0.0
Mn883 Mn 0.70126 0.13846 0.93013 0.0
C884 C 0.69114 0.0881 0.97 0.0
C885 C 0.74841 0.07076 0.93091 0.0
C886 C 0.7478 0.15694 0.98491 0.0
O887 O 0.75956 0.1297 0.90535 0.0
O888 O 0.73312 0.14966 0.89614 0.0
C889 C 0.67816 0.11309 0.86052 0.0
N890 N 0.67418 0.11999 0.89383 0.0
C891 C 0.62546 0.10539 0.88197 0.0
C892 C 0.62893 0.09807 0.8475 0.0
C893 C 0.65534 0.10167 0.83686 0.0
C894 C 0.64864 0.11557 0.90481 0.0
H895 H 0.69861 0.11641 0.8521 0.0
C896 C 0.75432 0.14662 0.88873 0.0
O897 O 0.76422 0.09056 0.95204 0.0
O898 O 0.72639 0.07081 0.91802 0.0
N899 N 0.66975 0.13093 0.95997 0.0
C900 C 0.67024 0.1397 0.99382 0.0
C901 C 0.6463 0.13969 1.00767 0.0
C902 C 0.62236 0.13127 0.98632 0.0
C903 C 0.62201 0.1216 0.95192 0.0
C904 C 0.64654 0.12221 0.9395 0.0
H905 H 0.68906 0.1475 1.00977 0.0
O906 O 0.70803 0.08047 0.98368 0.0
O907 O 0.70107 0.10456 0.94256 0.0
O908 O 0.75377 0.13796 0.97909 0.0
O909 O 0.72789 0.15814 0.96872 0.0
C910 C 0.59864 0.11221 0.92903 0.0
C911 C 0.60013 0.10353 0.89437 0.0
H912 H 0.61155 0.08985 0.82892 0.0
H913 H 0.65822 0.09611 0.81029 0.0
H914 H 0.64659 0.14691 0.03435 0.0
H915 H 0.60424 0.13209 0.99676 0.0
H916 H 0.57947 0.11172 0.9377 0.0
H917 H 0.58189 0.09606 0.87721 0.0
Mn918 Mn 0.98593 0.71554 0.94457 0.0
Mn919 Mn 0.99239 0.77556 0.97369 0.0
C920 C 0.02888 0.75582 0.93797 0.0
C921 C 0.98485 0.67389 0.95664 0.0
C922 C 0.96546 0.7502 0.90331 0.0
O923 O 0.95035 0.70323 0.97425 0.0
O924 O 0.95797 0.74393 0.99399 0.0
C925 C 1.00324 0.76714 0.04882 0.0
N926 N 1.01121 0.78292 1.01854 0.0
C927 C 0.05245 0.81824 0.04705 0.0
C928 C 0.04465 0.80242 0.07857 0.0
C929 C 0.01999 0.7767 0.0794 0.0
C930 C 0.03517 0.80742 1.01724 0.0
H931 H 0.98425 0.74743 0.04964 0.0
C932 C 0.94327 0.71792 0.99232 0.0
O933 O 0.97182 0.67691 0.92954 0.0
O934 O 0.99843 0.69498 0.97689 0.0
N935 N 0.02437 0.80907 0.95755 0.0
C936 C 0.02733 0.82307 0.92648 0.0
C937 C 0.05066 0.84937 0.9214 0.0
C938 C 0.06998 0.8617 0.94911 0.0
C939 C 0.06536 0.84783 0.98189 0.0
C940 C 0.04188 0.82149 0.98515 0.0
H941 H 1.01144 0.8147 0.90631 0.0
O942 O 0.02384 0.73394 0.92092 0.0
O943 O 1.00943 0.75293 0.96078 0.0
O944 O 0.96937 0.72954 0.90552 0.0
O945 O 0.97336 0.76883 0.92689 0.0
C946 C 0.08292 0.85927 1.01162 0.0
C947 C 0.07662 0.84437 0.04408 0.0
H948 H 0.05741 0.80984 0.1023 0.0
H949 H 1.01383 0.76433 0.1036 0.0
H950 H 0.05341 0.86033 0.89645 0.0
H951 H 0.08788 0.88205 0.9452 0.0
H952 H 0.10135 0.87948 1.00977 0.0
H953 H 0.09037 0.8533 0.06669 0.0
Mn954 Mn 0.3848 0.13667 0.48272 0.0
Mn955 Mn 0.41131 0.12002 0.4113 0.0
C956 C 0.41678 0.12025 0.49179 0.0
C957 C 0.38486 0.1674 0.52614 0.0
C958 C 0.3519 0.08257 0.44021 0.0
O959 O 0.37563 0.15523 0.44036 0.0
O960 O 0.39398 0.14257 0.39547 0.0
C961 C 0.45694 0.17641 0.39476 0.0
N962 N 0.44862 0.14969 0.40226 0.0
C963 C 0.49625 0.15814 0.39606 0.0
C964 C 0.5053 0.18571 0.38808 0.0
C965 C 0.48556 0.1949 0.38759 0.0
C966 C 0.46749 0.14073 0.40328 0.0
H967 H 0.44187 0.18356 0.39418 0.0
C968 C 0.38107 0.1548 0.40709 0.0
O969 O 0.36219 0.14517 0.51742 0.0
O970 O 0.4075 0.17276 0.50815 0.0
N971 N 0.42942 0.09875 0.42075 0.0
C972 C 0.4177 0.07194 0.43068 0.0
C973 C 0.4346 0.05953 0.43249 0.0
C974 C 0.46348 0.07483 0.42398 0.0
C975 C 0.47521 0.10246 0.41402 0.0
C976 C 0.45725 0.11364 0.4125 0.0
H977 H 0.39599 0.06052 0.43891 0.0
O978 O 0.40007 0.1195 0.51695 0.0
O979 O 0.41481 0.13129 0.46169 0.0
O980 O 0.35388 0.09852 0.46553 0.0
O981 O 0.37253 0.08815 0.41886 0.0
C982 C 0.50411 0.11944 0.40604 0.0
C983 C 0.51467 0.1473 0.39729 0.0
H984 H 0.52735 0.2 0.38242 0.0
H985 H 0.49237 0.21616 0.38157 0.0
H986 H 0.42547 0.03834 0.44098 0.0
H987 H 0.47653 0.06529 0.42574 0.0
H988 H 0.51846 0.11136 0.40705 0.0
H989 H 0.53701 0.16024 0.39171 0.0
Mn990 Mn 0.98253 0.36372 0.42639 0.0
Mn991 Mn 1.01835 0.36112 0.49859 0.0
C992 C 0.02872 0.37254 0.41917 0.0
C993 C 0.95009 0.34338 0.38123 0.0
C994 C 1.00739 0.40819 0.4827 0.0
O995 O 0.95169 0.34448 0.46404 0.0
O996 O 0.97707 0.34059 0.50873 0.0
C997 C 0.99872 0.30183 0.49538 0.0
N998 N 0.02034 0.32817 0.49588 0.0
C999 C 0.05488 0.31351 0.49097 0.0
C1000 C 0.033 0.28622 0.49067 0.0
C1001 C 1.0048 0.28037 0.49277 0.0
C1002 C 0.04751 0.33403 0.49331 0.0
H1003 H 0.977 0.29725 0.49678 0.0
C1004 C 0.95373 0.3363 0.49513 0.0
O1005 O 0.95521 0.36647 0.39454 0.0
O1006 O 0.96372 0.33167 0.39415 0.0
N1007 N 0.05869 0.37968 0.49386 0.0
C1008 C 0.07735 0.40687 0.49718 0.0
C1009 C 0.10646 0.41608 0.49785 0.0
C1010 C 0.11619 0.39727 0.49473 0.0
C1011 C 0.09663 0.36931 0.49221 0.0
C1012 C 0.06784 0.36128 0.4929 0.0
H1013 H 0.07011 0.42145 0.49861 0.0
O1014 O 1.01689 0.38013 0.39498 0.0
O1015 O 1.01277 0.35917 0.44653 0.0
O1016 O 0.99618 0.39928 0.45254 0.0
O1017 O 1.01707 0.396 0.50256 0.0
C1018 C 0.10457 0.34903 0.48984 0.0
C1019 C 0.0837 0.32115 0.48894 0.0
H1020 H 0.0376 0.26961 0.48875 0.0
H1021 H 0.98778 0.25937 0.49238 0.0
H1022 H 0.12138 0.4377 0.50021 0.0
H1023 H 0.13868 0.40451 0.49463 0.0
H1024 H 0.12667 0.35465 0.48889 0.0
H1025 H 0.09004 0.30573 0.48706 0.0
Mn1026 Mn 0.74499 0.72427 0.45356 0.0
Mn1027 Mn 0.69899 0.69101 0.38867 0.0
C1028 C 0.69884 0.69205 0.46846 0.0
C1029 C 0.78116 0.73124 0.49162 0.0
C1030 C 0.72585 0.75195 0.4015 0.0
O1031 O 0.7694 0.7282 0.4098 0.0
O1032 O 0.73608 0.69579 0.37468 0.0
C1033 C 0.69439 0.63626 0.38744 0.0
N1034 N 0.68209 0.65201 0.39191 0.0
C1035 C 0.63594 0.61209 0.39683 0.0
C1036 C 0.64824 0.59546 0.39311 0.0
C1037 C 0.67762 0.60762 0.38845 0.0
C1038 C 0.65382 0.6405 0.39632 0.0
H1039 H 0.71676 0.64548 0.38283 0.0
C1040 C 0.76182 0.71208 0.38322 0.0
O1041 O 0.77785 0.75125 0.48024 0.0
O1042 O 0.76354 0.70674 0.48077 0.0
N1043 N 0.66223 0.68508 0.40131 0.0
C1044 C 0.65391 0.70374 0.40841 0.0
C1045 C 0.62508 0.69499 0.41299 0.0
C1046 C 0.6051 0.66705 0.41088 0.0
C1047 C 0.61425 0.64804 0.40534 0.0
C1048 C 0.64326 0.65804 0.4007 0.0
H1049 H 0.66915 0.72506 0.41117 0.0
O1050 O 0.71429 0.71084 0.4911 0.0
O1051 O 0.71086 0.69333 0.43824 0.0
O1052 O 0.73339 0.75053 0.43296 0.0
O1053 O 0.71463 0.73126 0.38121 0.0
C1054 C 0.59577 0.61954 0.40508 0.0
C1055 C 0.60662 0.60158 0.40092 0.0
H1056 H 0.63533 0.57337 0.39359 0.0
H1057 H 0.68728 0.59496 0.3852 0.0
H1058 H 0.6183 0.70973 0.4184 0.0
H1059 H 0.58288 0.66034 0.41466 0.0
H1060 H 0.57323 0.61121 0.40866 0.0
H1061 H 0.59223 0.57971 0.40104 0.0
C1062 C 0.06118 0.49716 0.04007 0.0
C1063 C 0.03405 0.4949 0.0376 0.0
C1064 C 1.01353 0.44546 0.02935 0.0
C1065 C 0.0389 0.44689 0.04196 0.0
N1066 N 0.0888 0.47498 0.05263 0.0
N1067 N 0.98385 0.46637 0.03004 0.0
C1068 C 0.06334 0.4731 0.04523 0.0
C1069 C 1.01008 0.46893 0.03191 0.0
N1070 N 0.08491 0.52216 0.03553 0.0
N1071 N 0.99348 0.42259 1.01292 0.0
H1072 H 0.9805 0.48306 0.03159 0.0
H1073 H 0.96535 0.44745 0.02986 0.0
H1074 H 0.99646 0.40623 1.00659 0.0
H1075 H 0.97567 0.42149 1.00105 0.0
H1076 H 0.10524 0.52492 0.0338 0.0
H1077 H 0.08414 0.53993 0.02949 0.0
H1078 H 0.10646 0.49298 0.06061 0.0
H1079 H 0.09206 0.45822 0.05131 0.0
C1080 C 0.61548 0.66809 0.03173 0.0
C1081 C 0.60231 0.64883 0.06009 0.0
C1082 C 0.62717 0.68599 0.10329 0.0
C1083 C 0.63999 0.70549 0.0747 0.0
N1084 N 0.63846 0.71561 1.01232 0.0
N1085 N 0.59084 0.64044 0.12262 0.0
C1086 C 0.63172 0.69661 0.03912 0.0
C1087 C 0.60651 0.65819 0.09575 0.0
N1088 N 0.61292 0.65917 0.99752 0.0
N1089 N 0.63571 0.69326 0.1376 0.0
H1090 H 0.57651 0.61983 0.1184 0.0
H1091 H 0.59029 0.64658 0.14855 0.0
H1092 H 0.64962 0.71313 0.14531 0.0
H1093 H 0.63032 0.67914 0.1585 0.0
H1094 H 0.62489 0.67172 0.97628 0.0
H1095 H 0.60023 0.63876 0.99069 0.0
H1096 H 0.63075 0.71063 0.9865 0.0
H1097 H 0.64912 0.7366 1.01687 0.0
C1098 C 0.43548 1.00183 0.09639 0.0
C1099 C 0.45637 0.02966 0.09074 0.0
C1100 C 0.42528 0.04454 0.11714 0.0
C1101 C 0.40481 0.01698 0.12433 0.0
N1102 N 0.39254 0.96943 0.12772 0.0
N1103 N 0.47493 0.07648 0.10889 0.0
C1104 C 0.41078 0.99564 0.11665 0.0
C1105 C 0.45243 0.0507 0.10535 0.0
N1106 N 0.43795 0.98145 0.08032 0.0
N1107 N 0.41884 0.06493 0.12132 0.0
H1108 H 0.49565 0.08107 0.10358 0.0
H1109 H 0.47348 0.09227 0.12116 0.0
H1110 H 0.39989 0.06149 0.13267 0.0
H1111 H 0.43198 0.08497 0.11232 0.0
H1112 H 0.42175 0.96116 0.08009 0.0
H1113 H 0.45531 0.98495 0.06481 0.0
H1114 H 0.39728 0.95365 0.12623 0.0
H1115 H 0.37374 0.96393 0.14134 0.0
C1116 C 0.48437 0.11398 0.50265 0.0
C1117 C 0.47273 0.08679 0.51654 0.0
C1118 C 0.42488 0.0817 0.51266 0.0
C1119 C 0.43644 0.10893 0.49917 0.0
N1120 N 0.47775 0.15301 0.48927 0.0
N1121 N 0.43212 0.04723 0.54229 0.0
C1122 C 0.46639 0.1257 0.49665 0.0
C1123 C 0.44309 0.07156 0.52392 0.0
N1124 N 0.51232 0.12818 0.49342 0.0
N1125 N 0.39624 0.06462 0.51236 0.0
H1126 H 0.444 0.03819 0.54975 0.0
H1127 H 0.41172 0.03709 0.55292 0.0
H1128 H 0.38205 0.07062 0.50315 0.0
H1129 H 0.38658 0.04363 0.5173 0.0
H1130 H 0.52158 0.14678 0.47951 0.0
H1131 H 0.52599 0.12045 0.49756 0.0
H1132 H 0.49927 0.16698 0.49049 0.0
H1133 H 0.46539 0.16212 0.48442 0.0
C1134 C 0.98739 0.46373 0.48391 0.0
C1135 C 1.01505 0.48663 0.48392 0.0
C1136 C 0.03361 0.45682 0.50335 0.0
C1137 C 1.00788 0.43376 0.49417 0.0
N1138 N 0.95814 0.41418 0.48274 0.0
N1139 N 0.0654 0.5048 0.49248 0.0
C1140 C 0.98396 0.43694 0.48705 0.0
C1141 C 0.03846 0.48315 0.49324 0.0
N1142 N 0.96463 0.46762 0.48049 0.0
N1143 N 0.05256 0.45383 0.52386 0.0
H1144 H 0.07029 0.52495 0.48747 0.0
H1145 H 0.0831 0.50239 0.49514 0.0
H1146 H 0.04746 0.43518 0.53605 0.0
H1147 H 0.07099 0.47036 0.53342 0.0
H1148 H 0.94376 0.45206 0.48341 0.0
H1149 H 0.96664 0.48693 0.47681 0.0
H1150 H 0.94042 0.41459 0.47322 0.0
H1151 H 0.95465 0.39451 0.48833 0.0
C1152 C 0.65151 0.61707 0.494 0.0
C1153 C 0.6249 0.61568 0.49546 0.0
C1154 C 0.64829 0.66574 0.48906 0.0
C1155 C 0.67387 0.66627 0.48065 0.0
N1156 N 0.7003 0.64223 0.47504 0.0
N1157 N 0.59734 0.63848 0.48923 0.0
C1158 C 0.67561 0.64185 0.48301 0.0
C1159 C 0.62308 0.64002 0.49218 0.0
N1160 N 0.65398 0.59515 0.50525 0.0
N1161 N 0.64792 0.68967 0.49312 0.0
H1162 H 0.57863 0.62006 0.48609 0.0
H1163 H 0.59472 0.65545 0.48534 0.0
H1164 H 0.66586 0.70883 0.48959 0.0
H1165 H 0.63042 0.69051 0.50274 0.0
H1166 H 0.67329 0.59572 0.50808 0.0
H1167 H 0.63701 0.5773 0.51571 0.0
H1168 H 0.70157 0.62452 0.47144 0.0
H1169 H 0.7193 0.66012 0.47009 0.0
C1170 C 0.97951 0.61288 1.00907 0.0
C1171 C 0.98686 0.59947 0.98256 0.0
C1172 C 0.99246 0.63473 0.93856 0.0
C1173 C 0.98388 0.64732 0.9646 0.0
N1174 N 0.96089 0.64321 0.02105 0.0
N1175 N 0.99221 0.59345 0.92005 0.0
C1176 C 0.97485 0.6348 0.99877 0.0
C1177 C 0.99071 0.6091 0.94663 0.0
N1178 N 0.97848 0.60606 0.04437 0.0
N1179 N 1.00376 0.64785 0.9068 0.0
H1180 H 0.99008 0.5742 0.92491 0.0
H1181 H 0.99242 0.59817 0.89306 0.0
H1182 H 1.00617 0.66694 0.90008 0.0
H1183 H 1.0132 0.64098 0.88851 0.0
H1184 H 0.97692 0.61771 0.06471 0.0
H1185 H 0.98141 0.59022 0.05392 0.0
H1186 H 0.9514 0.63315 0.04494 0.0
H1187 H 0.95597 0.65826 1.01358 0.0
C1188 C 0.48012 0.45415 0.03564 0.0
C1189 C 0.48203 0.47714 1.01656 0.0
C1190 C 0.43722 0.44614 0.98659 0.0
C1191 C 0.43698 0.42299 1.00278 0.0
N1192 N 0.45972 0.40469 0.04017 0.0
N1193 N 0.46495 0.49392 0.9686 0.0
C1194 C 0.45895 0.42696 0.02648 0.0
C1195 C 0.46112 0.47285 0.99082 0.0
N1196 N 0.49772 0.45828 0.06368 0.0
N1197 N 0.41462 0.44271 0.96693 0.0
H1198 H 0.48261 0.51341 0.96958 0.0
H1199 H 0.45218 0.49145 0.94675 0.0
H1200 H 0.39726 0.42359 0.96189 0.0
H1201 H 0.412 0.45893 0.95805 0.0
H1202 H 0.49541 0.44276 0.08115 0.0
H1203 H 0.5131 0.47766 0.0717 0.0
H1204 H 0.47688 0.40601 0.05405 0.0
H1205 H 0.44384 0.38463 0.03572 0.0
C1206 C 0.62576 0.06228 0.02995 0.0
C1207 C 0.60435 0.0539 1.00406 0.0
C1208 C 0.63904 0.06127 0.9573 0.0
C1209 C 0.66116 0.07519 0.98214 0.0
N1210 N 0.6757 0.08987 0.04247 0.0
N1211 N 0.58986 0.04495 0.94295 0.0
C1212 C 0.65458 0.07547 1.01877 0.0
C1213 C 0.61075 0.05291 0.9677 0.0
N1214 N 0.61841 0.05791 0.0652 0.0
N1215 N 0.64494 0.05549 0.92414 0.0
H1216 H 0.56871 0.03735 0.95011 0.0
H1217 H 0.59364 0.04701 0.91555 0.0
H1218 H 0.66527 0.06057 0.9159 0.0
H1219 H 0.62943 0.04346 0.90598 0.0
H1220 H 0.63273 0.06124 0.0855 0.0
H1221 H 0.59736 0.04811 0.07364 0.0
H1222 H 0.67205 0.09294 0.0688 0.0
H1223 H 0.69698 0.10083 0.03514 0.0
C1224 C 0.61813 0.04526 0.53841 0.0
C1225 C 0.60031 0.04596 0.56558 0.0
C1226 C 0.62914 0.03826 0.6103 0.0
C1227 C 0.64391 0.03304 0.58272 0.0
N1228 N 0.65085 0.03022 0.51977 0.0
N1229 N 0.58777 0.04145 0.62775 0.0
C1230 C 0.6382 0.03659 0.54657 0.0
C1231 C 0.60572 0.04226 0.60169 0.0
N1232 N 0.61598 0.05325 0.50454 0.0
N1233 N 0.63806 0.04036 0.64473 0.0
H1234 H 0.57121 0.04525 0.62257 0.0
H1235 H 0.58829 0.03548 0.65401 0.0
H1236 H 0.65534 0.03826 0.65212 0.0
H1237 H 0.62998 0.04661 0.66552 0.0
H1238 H 0.62993 0.05585 0.48391 0.0
H1239 H 0.60188 0.0601 0.49805 0.0
H1240 H 0.64529 0.02919 0.49307 0.0
H1241 H 0.66501 0.02323 0.52458 0.0
C1242 C 0.04384 0.65469 0.5253 0.0
C1243 C 0.0428 0.6338 0.54773 0.0
C1244 C 0.04818 0.66162 0.59986 0.0
C1245 C 0.055 0.68442 0.57687 0.0
N1246 N 0.06178 0.70323 0.51699 0.0
N1247 N 0.04486 0.61716 0.60652 0.0
C1248 C 0.05305 0.68106 0.53934 0.0
C1249 C 0.0448 0.637 0.58516 0.0
N1250 N 0.0361 0.64919 0.49047 0.0
N1251 N 0.04403 0.66316 0.63551 0.0
H1252 H 0.04131 0.59844 0.59679 0.0
H1253 H 0.04992 0.61989 0.63348 0.0
H1254 H 0.04527 0.68048 0.64711 0.0
H1255 H 0.03647 0.64637 0.65291 0.0
H1256 H 0.03391 0.66279 0.47342 0.0
H1257 H 0.02897 0.6298 0.47988 0.0
H1258 H 0.06355 0.70226 0.48946 0.0
H1259 H 0.06986 0.72313 0.52607 0.0
C1260 C 0.42017 0.44747 0.54302 0.0
C1261 C 0.43744 0.45184 0.57314 0.0
C1262 C 0.39613 0.41994 0.6085 0.0
C1263 C 0.37833 0.41861 0.57992 0.0
N1264 N 0.3731 0.43182 0.52019 0.0
N1265 N 0.44258 0.44455 0.63513 0.0
C1266 C 0.39029 0.43235 0.54703 0.0
C1267 C 0.42562 0.43855 0.606 0.0
N1268 N 0.43262 0.45754 0.51051 0.0
N1269 N 0.38508 0.40274 0.63743 0.0
H1270 H 0.46432 0.45793 0.63381 0.0
H1271 H 0.43493 0.43795 0.66093 0.0
H1272 H 0.36373 0.38834 0.64014 0.0
H1273 H 0.39739 0.401 0.65739 0.0
H1274 H 0.4216 0.45327 0.48667 0.0
H1275 H 0.45451 0.46833 0.50702 0.0
H1276 H 0.3804 0.44369 0.49698 0.0
H1277 H 0.35116 0.4212 0.52241 0.0
C1278 C 0.71157 0.80957 0.38492 0.0
C1279 C 0.73865 0.83261 0.39041 0.0
C1280 C 0.75899 0.80249 0.3947 0.0
C1281 C 0.73177 0.7795 0.38873 0.0
N1282 N 0.68602 0.76373 0.36218 0.0
N1283 N 0.78898 0.85194 0.39167 0.0
C1284 C 0.70926 0.78379 0.37852 0.0
C1285 C 0.7627 0.82934 0.39251 0.0
N1286 N 0.68785 0.81184 0.38811 0.0
N1287 N 0.78118 0.79858 0.40287 0.0
H1288 H 0.79205 0.87176 0.3898 0.0
H1289 H 0.80758 0.85104 0.38978 0.0
H1290 H 0.77983 0.77947 0.40166 0.0
H1291 H 0.80053 0.81402 0.41195 0.0
H1292 H 0.66752 0.795 0.3873 0.0
H1293 H 0.68842 0.82987 0.39567 0.0
H1294 H 0.66991 0.7668 0.35226 0.0
H1295 H 0.6847 0.74547 0.35424 0.0
C1296 C 0.29612 1.00666 0.44116 0.0
C1297 C 0.27039 1.00695 0.43796 0.0
C1298 C 0.29786 0.05746 0.43562 0.0
C1299 C 0.32372 0.0567 0.4351 0.0
N1300 N 0.34372 0.02814 0.41901 0.0
N1301 N 0.24771 0.03312 0.42239 0.0
C1302 C 0.32195 0.03065 0.4326 0.0
C1303 C 0.27144 0.03253 0.4327 0.0
N1304 N 0.29611 0.98356 0.45273 0.0
N1305 N 0.29832 0.08193 0.43741 0.0
H1306 H 0.2286 1.01545 0.41763 0.0
H1307 H 0.24777 0.05102 0.41472 0.0
H1308 H 0.31674 0.10079 0.43494 0.0
H1309 H 0.2803 0.08339 0.44255 0.0
H1310 H 0.31473 0.98313 0.45768 0.0
H1311 H 0.27774 0.96614 0.46143 0.0
H1312 H 0.3426 1.00922 0.41589 0.0
H1313 H 0.35989 0.04379 0.40421 0.0
C1314 C 0.09191 0.36481 0.39051 0.0
C1315 C 0.11429 0.3923 0.39308 0.0
C1316 C 0.08052 0.40626 0.41391 0.0
C1317 C 0.05845 0.37869 0.41369 0.0
N1318 N 0.04363 0.3309 0.40668 0.0
N1319 N 0.13074 0.43653 0.41952 0.0
C1320 C 0.0644 0.35766 0.40392 0.0
C1321 C 0.10878 0.4122 0.40848 0.0
N1322 N 0.09622 0.34596 0.37316 0.0
N1323 N 0.07468 0.42692 0.41966 0.0
H1324 H 0.15159 0.44048 0.41961 0.0
H1325 H 0.128 0.45121 0.43286 0.0
H1326 H 0.0546 0.42351 0.4264 0.0
H1327 H 0.08957 0.44752 0.41584 0.0
H1328 H 0.08 0.32652 0.36683 0.0
H1329 H 0.1157 0.35031 0.36259 0.0
H1330 H 0.04735 0.31455 0.40387 0.0
H1331 H 0.02305 0.32502 0.41476 0.0
C1332 C 0.15023 0.4145 0.80246 0.0
C1333 C 0.1406 0.39031 0.82357 0.0
C1334 C 0.09136 0.37921 0.81271 0.0
C1335 C 0.10088 0.40435 0.79389 0.0
N1336 N 0.14005 0.44903 0.77864 0.0
N1337 N 0.10182 0.35315 0.85572 0.0
C1338 C 0.13054 0.42293 0.79096 0.0
C1339 C 0.11111 0.37377 0.83071 0.0
N1340 N 0.17793 0.42893 0.79215 0.0
N1341 N 0.06336 0.35988 0.81236 0.0
H1342 H 0.11534 0.34852 0.86999 0.0
H1343 H 0.08102 0.34249 0.865 0.0
H1344 H 0.04835 0.36273 0.79873 0.0
H1345 H 0.05555 0.33996 0.82205 0.0
H1346 H 0.18558 0.44495 0.7735 0.0
H1347 H 0.19285 0.4235 0.80013 0.0
H1348 H 0.16122 0.46419 0.77921 0.0
H1349 H 0.1266 0.45628 0.77065 0.0
C1350 C 0.71077 0.79131 0.84897 0.0
C1351 C 0.71418 0.80939 0.82048 0.0
C1352 C 0.69819 0.77153 0.7784 0.0
C1353 C 0.69298 0.75269 0.80739 0.0
N1354 N 0.68698 0.74465 0.87127 0.0
N1355 N 0.70458 0.8158 0.75984 0.0
C1356 C 0.69721 0.76261 0.843 0.0
C1357 C 0.70593 0.79919 0.78573 0.0
N1358 N 0.72108 0.80172 0.88174 0.0
N1359 N 0.6972 0.76384 0.74376 0.0
H1360 H 0.70994 0.83605 0.76446 0.0
H1361 H 0.69555 0.80878 0.73499 0.0
H1362 H 0.69116 0.74414 0.73572 0.0
H1363 H 0.70469 0.77784 0.72252 0.0
H1364 H 0.722 0.78995 0.90283 0.0
H1365 H 0.73107 0.82265 0.88679 0.0
H1366 H 0.68706 0.75073 0.89741 0.0
H1367 H 0.67545 0.72352 0.86836 0.0
C1368 C 0.25476 0.9693 0.84381 0.0
C1369 C 0.24898 0.94218 0.85061 0.0
C1370 C 0.29765 0.95498 0.83409 0.0
C1371 C 0.30359 0.98222 0.82714 0.0
N1372 N 0.29014 0.01693 0.83309 0.0
N1373 N 0.26669 0.91119 0.8623 0.0
C1374 C 0.28291 0.98994 0.83471 0.0
C1375 C 0.27098 0.93563 0.84869 0.0
N1376 N 0.23318 0.97506 0.84483 0.0
N1377 N 0.31746 0.94745 0.82679 0.0
H1378 H 0.24779 0.89697 0.87445 0.0
H1379 H 0.2826 0.90617 0.86519 0.0
H1380 H 0.33823 0.96123 0.81938 0.0
H1381 H 0.31286 0.92715 0.82605 0.0
H1382 H 0.23516 0.99361 0.8362 0.0
H1383 H 0.21267 0.96053 0.85256 0.0
H1384 H 0.27694 0.02422 0.84171 0.0
H1385 H 0.31007 0.03237 0.82482 0.0
C1386 C 0.73228 0.02344 0.3225 0.0
C1387 C 0.71493 0.99533 0.3152 0.0
C1388 C 0.67512 1.00312 0.30518 0.0
C1389 C 0.69346 0.03183 0.30731 0.0
N1390 N 0.74228 0.06882 0.30575 0.0
N1391 N 0.67208 0.96037 0.28875 0.0
C1392 C 0.72291 0.04199 0.31245 0.0
C1393 C 0.687 0.98575 0.30311 0.0
N1394 N 0.75707 0.03247 0.34031 0.0
N1395 N 0.64647 0.99214 0.3069 0.0
H1396 H 0.68096 0.9479 0.28452 0.0
H1397 H 0.65231 0.95332 0.27721 0.0
H1398 H 0.63676 1.00377 0.3118 0.0
H1399 H 0.63263 0.97109 0.30805 0.0
H1400 H 0.76913 0.05264 0.34864 0.0
H1401 H 0.76381 0.01932 0.35035 0.0
H1402 H 0.76399 0.0762 0.30697 0.0
H1403 H 0.73716 0.08272 0.29418 0.0
C1404 C 0.08563 0.81234 0.32882 0.0
C1405 C 0.11552 0.82596 0.32743 0.0
C1406 C 0.11269 0.78521 0.29995 0.0
C1407 C 0.08289 0.77328 0.29659 0.0
N1408 N 0.04316 0.78163 0.29779 0.0
N1409 N 0.15704 0.8278 0.30157 0.0
C1410 C 0.06989 0.78856 0.30815 0.0
C1411 C 0.12898 0.81312 0.30999 0.0
N1412 N 0.07208 0.82134 0.35082 0.0
N1413 N 0.12555 0.76988 0.29531 0.0
H1414 H 0.16909 0.84877 0.30588 0.0
H1415 H 0.16728 0.81985 0.28637 0.0
H1416 H 0.11443 0.7489 0.29088 0.0
H1417 H 0.14694 0.77742 0.30035 0.0
H1418 H 0.05024 0.8106 0.35474 0.0
H1419 H 0.08282 0.83753 0.36822 0.0
H1420 H 0.03394 0.79355 0.30377 0.0
H1421 H 0.03184 0.76654 0.27921 0.0
C1422 C 0.29193 0.42248 0.36801 0.0
C1423 C 0.27237 0.41313 0.33947 0.0
C1424 C 0.30848 0.41179 0.30108 0.0
C1425 C 0.32787 0.42111 0.32994 0.0
N1426 N 0.33555 0.42864 0.39318 0.0
N1427 N 0.26029 0.39531 0.28042 0.0
C1428 C 0.31856 0.42379 0.36423 0.0
C1429 C 0.28015 0.40654 0.3065 0.0
N1430 N 0.28617 0.43259 0.39776 0.0
N1431 N 0.31727 0.40811 0.26848 0.0
H1432 H 0.23957 0.39131 0.28399 0.0
H1433 H 0.26346 0.38818 0.25638 0.0
H1434 H 0.33701 0.40985 0.26419 0.0
H1435 H 0.30564 0.40439 0.24523 0.0
H1436 H 0.30074 0.44281 0.41775 0.0
H1437 H 0.26733 0.43274 0.40098 0.0
H1438 H 0.32847 0.42735 0.41933 0.0
H1439 H 0.35626 0.4324 0.39143 0.0
C1440 C 0.27911 0.37169 0.9461 0.0
C1441 C 0.27406 0.37365 0.90938 0.0
C1442 C 0.31295 0.365 0.89389 0.0
C1443 C 0.31783 0.36257 0.93072 0.0
N1444 N 0.31068 0.37147 0.99159 0.0
N1445 N 0.29022 0.37893 0.84884 0.0
C1446 C 0.30244 0.3683 0.95677 0.0
C1447 C 0.29248 0.37262 0.88352 0.0
N1448 N 0.26094 0.37217 0.97083 0.0
N1449 N 0.32672 0.35849 0.86873 0.0
H1450 H 0.27578 0.38505 0.84108 0.0
H1451 H 0.30426 0.38087 0.82867 0.0
H1452 H 0.34113 0.35212 0.87531 0.0
H1453 H 0.32205 0.35687 0.84169 0.0
H1454 H 0.26079 0.36703 0.99763 0.0
H1455 H 0.24513 0.37671 0.96398 0.0
H1456 H 0.30204 0.3781 1.01126 0.0
H1457 H 0.32791 0.36981 1.00044 0.0
C1458 C 0.74593 1.00185 0.93988 0.0
C1459 C 0.7566 1.00032 0.90607 0.0
C1460 C 0.76754 0.04741 0.89207 0.0
C1461 C 0.75367 0.04764 0.92398 0.0
N1462 N 0.7282 0.02478 0.97782 0.0
N1463 N 0.77544 0.02024 0.84846 0.0
C1464 C 0.74263 0.02482 0.94794 0.0
C1465 C 0.76708 0.02285 0.88183 0.0
N1466 N 0.73952 0.98141 0.96443 0.0
N1467 N 0.78158 0.07085 0.87197 0.0
H1468 H 0.77539 1.00255 0.84033 0.0
H1469 H 0.78045 0.03468 0.82805 0.0
H1470 H 0.78268 0.08917 0.87936 0.0
H1471 H 0.79419 0.07289 0.84997 0.0
H1472 H 0.73406 0.98215 0.99083 0.0
H1473 H 0.74202 0.96456 0.95905 0.0
H1474 H 0.71681 1.00766 0.99422 0.0
H1475 H 0.72627 0.0416 0.98527 0.0
C1476 C 0.10087 0.81844 0.95591 0.0
C1477 C 0.10734 0.83162 0.92183 0.0
C1478 C 0.06394 0.79371 0.89764 0.0
C1479 C 0.05614 0.78167 0.93233 0.0
N1480 N 0.0701 0.77834 0.99227 0.0
N1481 N 0.09371 0.83339 0.86094 0.0
C1482 C 0.07547 0.79288 0.96093 0.0
C1483 C 0.08851 0.81973 0.89295 0.0
N1484 N 0.11852 0.83115 0.98382 0.0
N1485 N 0.04888 0.77962 0.86859 0.0
H1486 H 0.11213 0.85158 0.85497 0.0
H1487 H 0.07873 0.82773 0.84088 0.0
H1488 H 0.03005 0.76108 0.87016 0.0
H1489 H 0.05597 0.78536 0.84241 0.0
H1490 H 0.11434 0.82414 1.01011 0.0
H1491 H 0.13668 0.85028 0.9813 0.0
H1492 H 0.08415 0.78384 1.01334 0.0
H1493 H 0.05198 0.75945 0.99668 0.0
C1494 C 0.3742 0.12922 0.76406 0.0
C1495 C 0.35042 0.12691 0.74591 0.0
C1496 C 0.34482 0.08645 0.71505 0.0
C1497 C 0.36505 0.08584 0.73831 0.0
N1498 N 0.40842 0.11368 0.76927 0.0
N1499 N 0.31338 0.10464 0.70323 0.0
C1500 C 0.38275 0.10951 0.75812 0.0
C1501 C 0.33592 0.10598 0.72087 0.0
N1502 N 0.38777 0.14964 0.78807 0.0
N1503 N 0.33602 0.07011 0.68587 0.0
H1504 H 0.30718 0.11936 0.7061 0.0
H1505 H 0.29981 0.08817 0.68765 0.0
H1506 H 0.34565 0.05899 0.67777 0.0
H1507 H 0.32245 0.07067 0.66681 0.0
H1508 H 0.40346 0.15087 0.80502 0.0
H1509 H 0.38184 0.16436 0.79282 0.0
H1510 H 0.42336 0.13143 0.78165 0.0
H1511 H 0.41605 0.10063 0.76205 0.0
C1512 C 0.95868 0.3112 0.68546 0.0
C1513 C 0.94256 0.29513 0.71547 0.0
C1514 C 0.9741 0.33388 0.75398 0.0
C1515 C 0.98798 0.351 0.72374 0.0
N1516 N 0.98663 0.35691 0.66004 0.0
N1517 N 0.93042 0.29693 0.77744 0.0
C1518 C 0.97811 0.33991 0.6893 0.0
C1519 C 0.94893 0.30811 0.74945 0.0
N1520 N 0.95671 0.29906 0.65348 0.0
N1521 N 0.98528 0.3412 0.78726 0.0
H1522 H 0.9107 0.27952 0.77561 0.0
H1523 H 0.93311 0.3071 0.8014 0.0
H1524 H 1.00384 0.35917 0.79261 0.0
H1525 H 0.97751 0.32784 0.80918 0.0
H1526 H 0.96975 0.30946 0.63174 0.0
H1527 H 0.94468 0.27803 0.64988 0.0
H1528 H 0.97841 0.35038 0.63471 0.0
H1529 H 0.99927 0.3781 0.66187 0.0
C1530 C 0.78076 0.72559 0.72728 0.0
C1531 C 0.78739 0.70578 0.71428 0.0
C1532 C 0.73853 0.66981 0.72804 0.0
C1533 C 0.73127 0.69027 0.73605 0.0
N1534 N 0.74507 0.73811 0.73857 0.0
N1535 N 0.77184 0.65888 0.69951 0.0
C1536 C 0.75223 0.71828 0.73376 0.0
C1537 C 0.76618 0.67772 0.71436 0.0
N1538 N 0.80204 0.7512 0.73552 0.0
N1539 N 0.71895 0.64284 0.73316 0.0
H1540 H 0.79162 0.66392 0.68918 0.0
H1541 H 0.75651 0.63866 0.69513 0.0
H1542 H 0.69834 0.63634 0.74178 0.0
H1543 H 0.7237 0.62707 0.73169 0.0
H1544 H 0.79865 0.76593 0.74754 0.0
H1545 H 0.82331 0.75651 0.73489 0.0
H1546 H 0.75861 0.75873 0.73253 0.0
H1547 H 0.7251 0.73368 0.74709 0.0
C1548 C 0.75762 0.72539 0.16537 0.0
C1549 C 0.78686 0.74171 0.15702 0.0
C1550 C 0.77784 0.77949 0.14018 0.0
C1551 C 0.74806 0.76121 0.14187 0.0
N1552 N 0.70993 0.71526 0.15274 0.0
N1553 N 0.82506 0.78493 0.13606 0.0
C1554 C 0.73811 0.73386 0.15403 0.0
C1555 C 0.79714 0.76912 0.14477 0.0
N1556 N 0.74849 0.7019 0.18519 0.0
N1557 N 0.78771 0.80683 0.13487 0.0
H1558 H 0.8396 0.77814 0.13924 0.0
H1559 H 0.83351 0.80407 0.12366 0.0
H1560 H 0.77436 0.81501 0.13134 0.0
H1561 H 0.80894 0.82161 0.13665 0.0
H1562 H 0.72794 0.69048 0.19514 0.0
H1563 H 0.76227 0.69564 0.19525 0.0
H1564 H 0.70173 0.69437 0.15746 0.0
H1565 H 0.69513 0.72015 0.14282 0.0
C1566 C 0.37283 0.12272 0.15562 0.0
C1567 C 0.37897 0.13545 0.18924 0.0
C1568 C 0.36075 0.09027 0.21842 0.0
C1569 C 0.35854 0.0779 0.18472 0.0
N1570 N 0.36552 0.084 0.12053 0.0
N1571 N 0.38139 0.13204 0.25282 0.0
C1572 C 0.36508 0.09449 0.15305 0.0
C1573 C 0.37348 0.11935 0.2207 0.0
N1574 N 0.37374 0.13759 0.12607 0.0
N1575 N 0.34978 0.07412 0.24823 0.0
H1576 H 0.39081 0.15322 0.25524 0.0
H1577 H 0.38082 0.12193 0.27653 0.0
H1578 H 0.33953 0.05282 0.24754 0.0
H1579 H 0.34819 0.08158 0.27289 0.0
H1580 H 0.36645 0.12898 0.1012 0.0
H1581 H 0.37934 0.15819 0.12724 0.0
H1582 H 0.37383 0.09608 0.09761 0.0
H1583 H 0.35967 0.06365 0.1164 0.0
C1584 C 0.96361 0.29814 0.16461 0.0
C1585 C 0.93979 0.30171 0.16847 0.0
C1586 C 0.96849 0.35037 0.15208 0.0
C1587 C 0.99154 0.34625 0.14452 0.0
N1588 N 1.01219 0.31681 0.14448 0.0
N1589 N 0.91807 0.32983 0.15963 0.0
C1590 C 0.98943 0.32025 0.15101 0.0
C1591 C 0.94184 0.32746 0.16059 0.0
N1592 N 0.96157 0.27371 0.17452 0.0
N1593 N 0.97194 0.37618 0.15102 0.0
H1594 H 0.89797 0.31343 0.16422 0.0
H1595 H 0.91779 0.3473 0.15068 0.0
H1596 H 0.9905 0.39339 0.14238 0.0
H1597 H 0.95698 0.38087 0.16091 0.0
H1598 H 0.97864 0.2703 0.17599 0.0
H1599 H 0.94261 0.25684 0.18298 0.0
H1600 H 1.01124 0.29788 0.14419 0.0
H1601 H 0.0322 0.33293 0.13798 0.0
C1602 C 0.27334 0.26357 0.67049 0.0
C1603 C 0.28892 0.25251 0.65455 0.0
C1604 C 0.30096 0.28395 0.6035 0.0
C1605 C 0.28642 0.29583 0.62027 0.0
N1606 N 0.25237 0.29272 0.6637 0.0
N1607 N 0.31107 0.24647 0.60282 0.0
C1608 C 0.27035 0.28409 0.65181 0.0
C1609 C 0.30053 0.26084 0.61984 0.0
N1610 N 0.26276 0.25536 0.70421 0.0
N1611 N 0.3161 0.29555 0.57291 0.0
H1612 H 0.31042 0.22926 0.61448 0.0
H1613 H 0.31806 0.25 0.57643 0.0
H1614 H 0.31569 0.31177 0.55961 0.0
H1615 H 0.32984 0.2899 0.56145 0.0
H1616 H 0.25383 0.26469 0.71913 0.0
H1617 H 0.26434 0.23995 0.71802 0.0
H1618 H 0.23851 0.28372 0.68516 0.0
H1619 H 0.24962 0.30748 0.64997 0.0
C1620 C 0.79394 0.12234 0.69639 0.0
C1621 C 0.81384 0.14165 0.67118 0.0
C1622 C 0.78634 0.10943 0.62334 0.0
C1623 C 0.76851 0.08922 0.64898 0.0
N1624 N 0.7606 0.07482 0.71062 0.0
N1625 N 0.83182 0.14964 0.61078 0.0
C1626 C 0.7739 0.09524 0.68567 0.0
C1627 C 0.8108 0.13404 0.63466 0.0
N1628 N 0.79273 0.13008 0.73036 0.0
N1629 N 0.77933 0.10587 0.5881 0.0
H1630 H 0.85051 0.16698 0.61806 0.0
H1631 H 0.8321 0.14369 0.58466 0.0
H1632 H 0.76131 0.08882 0.57867 0.0
H1633 H 0.78977 0.12112 0.56875 0.0
H1634 H 0.77659 0.11789 0.7483 0.0
H1635 H 0.80574 0.14968 0.73944 0.0
H1636 H 0.76592 0.07728 0.73753 0.0
H1637 H 0.74653 0.05465 0.70389 0.0
C1638 C 0.96841 0.736 0.70283 0.0
C1639 C 0.95014 0.73553 0.67562 0.0
C1640 C 0.98537 0.74148 0.63018 0.0
C1641 C 1.00515 0.74567 0.65754 0.0
N1642 N 1.01599 0.74749 0.72007 0.0
N1643 N 0.94156 0.73993 0.61361 0.0
C1644 C 0.99663 0.74266 0.69396 0.0
C1645 C 0.95863 0.73859 0.63933 0.0
N1646 N 0.95858 0.73011 0.7372 0.0
N1647 N 0.99166 0.73925 0.59551 0.0
H1648 H 0.92128 0.73656 0.61904 0.0
H1649 H 0.94807 0.74595 0.58731 0.0
H1650 H 1.01076 0.74091 0.58746 0.0
H1651 H 0.97706 0.73339 0.57497 0.0
H1652 H 0.96971 0.72795 0.75832 0.0
H1653 H 0.938 0.72509 0.74413 0.0
H1654 H 1.01226 0.74843 0.74707 0.0
H1655 H 0.03689 0.7529 0.71454 0.0
C1656 C 0.94113 0.71243 0.17223 0.0
C1657 C 0.92138 0.71103 0.19811 0.0
C1658 C 0.95032 0.70628 0.24538 0.0
C1659 C 0.96777 0.70368 0.21913 0.0
N1660 N 0.97957 0.70404 0.15701 0.0
N1661 N 0.90613 0.70506 0.25943 0.0
C1662 C 0.96329 0.70707 0.18239 0.0
C1663 C 0.92585 0.70776 0.23475 0.0
N1664 N 0.93878 0.71933 0.13781 0.0
N1665 N 0.95779 0.70862 0.28047 0.0
H1666 H 0.88904 0.70777 0.25307 0.0
H1667 H 0.90591 0.69882 0.28574 0.0
H1668 H 0.97559 0.70804 0.28943 0.0
H1669 H 0.94772 0.71341 0.30043 0.0
H1670 H 0.95379 0.72348 0.11795 0.0
H1671 H 0.92289 0.72345 0.1298 0.0
H1672 H 0.97573 0.70336 0.12978 0.0
H1673 H 0.99563 0.69972 0.16318 0.0
C1674 C 0.43052 0.35359 0.24177 0.0
C1675 C 0.42149 0.33032 0.26446 0.0
C1676 C 0.40424 0.3509 0.3084 0.0
C1677 C 0.41413 0.37464 0.28624 0.0
N1678 N 0.44157 0.40094 0.23528 0.0
N1679 N 0.40506 0.30883 0.32179 0.0
C1680 C 0.42866 0.37664 0.25384 0.0
C1681 C 0.40991 0.32963 0.29855 0.0
N1682 N 0.44005 0.35322 0.20821 0.0
N1683 N 0.38847 0.34821 0.33814 0.0
H1684 H 0.40958 0.29341 0.31527 0.0
H1685 H 0.39909 0.30814 0.34833 0.0
H1686 H 0.38394 0.36332 0.34623 0.0
H1687 H 0.37809 0.33026 0.35336 0.0
H1688 H 0.44399 0.36807 0.18873 0.0
H1689 H 0.44226 0.33696 0.19902 0.0
H1690 H 0.4548 0.40471 0.21334 0.0
H1691 H 0.44103 0.41828 0.24368 0.0
C1692 C 0.7584 0.1832 0.20516 0.0
C1693 C 0.78243 0.19639 0.22737 0.0
C1694 C 0.75712 0.16308 0.27559 0.0
C1695 C 0.73314 0.15003 0.25321 0.0
N1696 N 0.7121 0.14459 0.19533 0.0
N1697 N 0.80425 0.20161 0.28465 0.0
C1698 C 0.73437 0.15899 0.21745 0.0
C1699 C 0.78181 0.18688 0.26277 0.0
N1700 N 0.75753 0.1951 0.17347 0.0
N1701 N 0.7566 0.15198 0.30846 0.0
H1702 H 0.82288 0.21869 0.2758 0.0
H1703 H 0.80408 0.19806 0.31195 0.0
H1704 H 0.73884 0.13478 0.31886 0.0
H1705 H 0.77409 0.15866 0.32486 0.0
H1706 H 0.73946 0.18835 0.1581 0.0
H1707 H 0.77404 0.2135 0.16392 0.0
H1708 H 0.71315 0.14713 0.16772 0.0
H1709 H 0.69264 0.12931 0.20473 0.0
C1710 C 0.04285 0.5027 0.88696 0.0
C1711 C 0.06695 0.52932 0.88557 0.0
C1712 C 0.08152 0.51672 0.82995 0.0
C1713 C 0.05989 0.4889 0.83451 0.0
N1714 N 0.02512 0.45488 0.87501 0.0
N1715 N 0.11272 0.55916 0.85954 0.0
C1716 C 0.042 0.48168 0.86522 0.0
C1717 C 0.08736 0.53555 0.85818 0.0
N1718 N 0.01999 0.49761 0.90745 0.0
N1719 N 0.09558 0.52578 0.79814 0.0
H1720 H 0.11816 0.57272 0.88063 0.0
H1721 H 0.12932 0.56359 0.84193 0.0
H1722 H 0.09049 0.51355 0.7757 0.0
H1723 H 0.10983 0.54636 0.79277 0.0
H1724 H 1.00112 0.47901 0.90703 0.0
H1725 H 1.01853 0.51289 0.92109 0.0
H1726 H 1.01359 0.44901 0.89883 0.0
H1727 H 0.02543 0.43876 0.86204 0.0
C1728 C 0.58102 0.63687 0.90547 0.0
C1729 C 0.56778 0.60797 0.9083 0.0
C1730 C 0.59223 0.6067 0.85386 0.0
C1731 C 0.60741 0.63578 0.85279 0.0
N1732 N 0.61616 0.67894 0.87603 0.0
N1733 N 0.56084 0.56504 0.88724 0.0
C1734 C 0.60165 0.65098 0.87814 0.0
C1735 C 0.57331 0.59279 0.88287 0.0
N1736 N 0.57348 0.65061 0.92889 0.0
N1737 N 0.5957 0.59249 0.82684 0.0
H1738 H 0.54627 0.55444 0.90764 0.0
H1739 H 0.56584 0.55262 0.87209 0.0
H1740 H 0.60962 0.60207 0.80551 0.0
H1741 H 0.58358 0.57141 0.82404 0.0
H1742 H 0.58032 0.67144 0.92714 0.0
H1743 H 0.5592 0.64077 0.94982 0.0
H1744 H 0.61566 0.69168 0.89552 0.0
H1745 H 0.6294 0.68962 0.85454 0.0
C1746 C 0.44726 0.03808 0.93026 0.0
C1747 C 0.47545 0.04667 0.91971 0.0
C1748 C 0.46165 0.03996 0.85699 0.0
C1749 C 0.43341 0.03119 0.86767 0.0
N1750 N 0.39783 1.01592 0.91392 0.0
N1751 N 0.50901 0.05111 0.87496 0.0
C1752 C 0.4257 0.02809 0.90421 0.0
C1753 C 0.48246 0.04608 0.88354 0.0
N1754 N 0.44149 0.04124 0.96478 0.0
N1755 N 0.46857 0.04305 0.82153 0.0
H1756 H 0.52446 0.05556 0.89421 0.0
H1757 H 0.51514 0.04888 0.8495 0.0
H1758 H 0.45348 0.03729 0.80151 0.0
H1759 H 0.48922 0.05225 0.81186 0.0
H1760 H 0.42196 0.03813 0.97352 0.0
H1761 H 0.45697 0.04927 0.98428 0.0
H1762 H 0.39069 1.01066 0.94014 0.0
H1763 H 0.38155 1.00887 0.89539 0.0
C1764 C 0.43392 0.99111 0.66893 0.0
C1765 C 0.45609 1.01588 0.65446 0.0
C1766 C 0.43972 0.04169 0.6902 0.0
C1767 C 0.41894 0.01689 0.7065 0.0
N1768 N 0.40429 0.96984 0.72074 0.0
N1769 N 0.48536 0.06473 0.66067 0.0
C1770 C 0.41839 0.99208 0.69867 0.0
C1771 C 0.46059 0.04126 0.6678 0.0
N1772 N 0.4268 0.96672 0.65349 0.0
N1773 N 0.43917 0.06545 0.69513 0.0
H1774 H 0.50205 0.0648 0.64692 0.0
H1775 H 0.49059 0.08342 0.67213 0.0
H1776 H 0.42412 0.06662 0.71111 0.0
H1777 H 0.45221 0.08344 0.68089 0.0
H1778 H 0.40921 0.94837 0.66156 0.0
H1779 H 0.43653 0.96529 0.6303 0.0
H1780 H 0.40492 0.95176 0.71753 0.0
H1781 H 0.39523 0.97097 0.74475 0.0
C1782 C 0.09147 0.519 0.63441 0.0
C1783 C 0.06782 0.51792 0.61694 0.0
C1784 C 0.03725 0.47394 0.64853 0.0
C1785 C 0.06071 0.47676 0.66833 0.0
N1786 N 0.10801 0.50744 0.68813 0.0
N1787 N 1.017 0.4977 0.61628 0.0
C1788 C 0.08719 0.50096 0.66371 0.0
C1789 C 0.04028 0.49621 0.62632 0.0
N1790 N 0.11814 0.53633 0.62206 0.0
N1791 N 1.01211 0.45007 0.6508 0.0
H1792 H 1.01837 0.51483 0.60336 0.0
H1793 H 0.9966 0.48356 0.62473 0.0
H1794 H 1.00907 0.43379 0.66745 0.0
H1795 H 0.99513 0.44579 0.63421 0.0
H1796 H 0.1359 0.53624 0.63224 0.0
H1797 H 0.12212 0.54829 0.59902 0.0
H1798 H 0.12686 0.52608 0.68757 0.0
H1799 H 0.10517 0.4954 0.71086 0.0
C1800 C 0.57716 0.62148 0.62584 0.0
C1801 C 0.55859 0.59342 0.63421 0.0
C1802 C 0.57542 0.60171 0.69626 0.0
C1803 C 0.59743 0.62816 0.68603 0.0
N1804 N 0.62067 0.66278 0.64014 0.0
N1805 N 0.53862 0.55683 0.67788 0.0
C1806 C 0.59843 0.63812 0.6507 0.0
C1807 C 0.55719 0.58365 0.66973 0.0
N1808 N 0.57455 0.63232 0.59423 0.0
N1809 N 0.57145 0.59418 0.73153 0.0
H1810 H 0.52331 0.54381 0.66003 0.0
H1811 H 0.53892 0.54724 0.70168 0.0
H1812 H 0.58403 0.60712 0.75159 0.0
H1813 H 0.55429 0.57624 0.74134 0.0
H1814 H 0.58585 0.65313 0.58791 0.0
H1815 H 0.55885 0.62107 0.5759 0.0
H1816 H 0.62447 0.66966 0.61373 0.0
H1817 H 0.63682 0.67546 0.65724 0.0
C1818 C 0.02736 0.60669 0.13439 0.0
C1819 C 0.05421 0.62358 0.1187 0.0
C1820 C 0.06282 0.65781 0.16433 0.0
C1821 C 0.03362 0.64385 0.17489 0.0
N1822 N 0.98684 0.60416 0.16298 0.0
N1823 N 0.09612 0.66777 0.11575 0.0
C1824 C 1.01548 0.61805 0.15806 0.0
C1825 C 0.07149 0.64995 0.13271 0.0
N1826 N 1.01352 0.57924 0.12808 0.0
N1827 N 0.0829 0.67701 0.18576 0.0
H1828 H 0.10274 0.66289 0.09221 0.0
H1829 H 0.10828 0.68814 0.12322 0.0
H1830 H 0.07869 0.68041 0.21171 0.0
H1831 H 0.10445 0.68627 0.17998 0.0
H1832 H 0.99511 0.56539 0.14168 0.0
H1833 H 0.02231 0.56991 0.11279 0.0
H1834 H 0.97349 0.5878 0.14699 0.0
H1835 H 0.9755 0.60929 0.18026 0.0
C1836 C 0.47621 0.49202 0.17155 0.0
C1837 C 0.49665 0.52003 0.17496 0.0
C1838 C 0.48195 0.51875 0.23718 0.0
C1839 C 0.45942 0.49171 0.23241 0.0
N1840 N 0.43294 0.45326 0.19414 0.0
N1841 N 0.5174 0.56119 0.2091 0.0
C1842 C 0.45605 0.4784 0.1994 0.0
C1843 C 0.49925 0.53366 0.20742 0.0
N1844 N 0.47662 0.47836 0.14193 0.0
N1845 N 0.48688 0.53 0.27031 0.0
H1846 H 0.52996 0.57263 0.18749 0.0
H1847 H 0.51842 0.57306 0.2307 0.0
H1848 H 0.47454 0.51951 0.29257 0.0
H1849 H 0.50449 0.54864 0.27643 0.0
H1850 H 0.4642 0.45727 0.13913 0.0
H1851 H 0.49123 0.48793 0.1213 0.0
H1852 H 0.42755 0.44385 0.16945 0.0
H1853 H 0.41802 0.44246 0.21412 0.0
C1854 C 0.61783 0.10437 0.14471 0.0
C1855 C 0.59218 0.1046 0.14815 0.0
C1856 C 0.59647 0.10531 0.21318 0.0
C1857 C 0.62102 0.10263 0.20957 0.0
N1858 N 0.64968 0.09135 0.17136 0.0
N1859 N 0.55448 0.10133 0.18491 0.0
C1860 C 0.63015 0.09967 0.17522 0.0
C1861 C 0.5808 0.10415 0.18224 0.0
N1862 N 0.6307 0.10925 0.11208 0.0
N1863 N 0.58789 0.10847 0.2462 0.0
H1864 H 0.54265 0.10043 0.16262 0.0
H1865 H 0.5436 0.09804 0.20893 0.0
H1866 H 0.59703 0.10661 0.26973 0.0
H1867 H 0.57236 0.11386 0.25024 0.0
H1868 H 0.65111 0.1125 0.10856 0.0
H1869 H 0.62208 0.11293 0.08924 0.0
H1870 H 0.65499 0.08669 0.14672 0.0
H1871 H 0.65838 0.08617 0.19269 0.0
C1872 C 0.56883 0.03349 0.39391 0.0
C1873 C 0.5596 0.0494 0.4125 0.0
C1874 C 0.59714 0.09073 0.38403 0.0
C1875 C 0.605 0.0747 0.36227 0.0
N1876 N 0.58789 0.02925 0.33793 0.0
N1877 N 0.55813 0.09136 0.41396 0.0
C1878 C 0.58778 0.04554 0.36454 0.0
C1879 C 0.57141 0.07739 0.40353 0.0
N1880 N 0.56052 1.00732 0.4047 0.0
N1881 N 0.61446 0.11816 0.38873 0.0
H1882 H 0.53859 0.08169 0.4271 0.0
H1883 H 0.56489 0.11147 0.40574 0.0
H1884 H 0.63496 0.12937 0.37914 0.0
H1885 H 0.60971 0.12929 0.40679 0.0
H1886 H 0.56886 0.99592 0.39348 0.0
H1887 H 0.54764 0.99814 0.42697 0.0
H1888 H 0.57438 1.00812 0.33817 0.0
H1889 H 0.59788 0.03696 0.31341 0.0
C1890 C 0.03976 0.60556 0.3539 0.0
C1891 C 0.05234 0.61979 0.38557 0.0
C1892 C 0.04732 0.65881 0.36371 0.0
C1893 C 0.03613 0.64517 0.33099 0.0
N1894 N 0.02683 0.60765 0.29244 0.0
N1895 N 0.07222 0.6613 0.4187 0.0
C1896 C 0.03372 0.61905 0.32545 0.0
C1897 C 0.05737 0.64687 0.38981 0.0
N1898 N 0.03315 0.57883 0.35138 0.0
N1899 N 0.04712 0.68252 0.3706 0.0
H1900 H 0.07917 0.65279 0.43841 0.0
H1901 H 0.07931 0.68206 0.42194 0.0
H1902 H 0.03982 0.69174 0.35243 0.0
H1903 H 0.0521 0.69196 0.39529 0.0
H1904 H 0.02113 0.5661 0.3309 0.0
H1905 H 0.03807 0.56882 0.37136 0.0
H1906 H 0.0274 0.59006 0.28555 0.0
H1907 H 0.02303 0.61715 0.27076 0.0
C1908 C 0.46126 0.54264 0.42959 0.0
C1909 C 0.47912 0.53355 0.44432 0.0
C1910 C 0.46586 0.50009 0.39667 0.0
C1911 C 0.44456 0.50587 0.3845 0.0
N1912 N 0.42269 0.53449 0.39081 0.0
N1913 N 0.49308 0.49909 0.44684 0.0
C1914 C 0.44244 0.5277 0.40127 0.0
C1915 C 0.4796 0.51079 0.42947 0.0
N1916 N 0.46309 0.5663 0.44168 0.0
N1917 N 0.4749 0.48627 0.3755 0.0
H1918 H 0.50248 0.50575 0.47162 0.0
H1919 H 0.49193 0.48092 0.43864 0.0
H1920 H 0.46837 0.48124 0.34921 0.0
H1921 H 0.49191 0.4835 0.3821 0.0
H1922 H 0.45359 0.57627 0.42913 0.0
H1923 H 0.47575 0.57701 0.46313 0.0
H1924 H 0.41667 0.54597 0.40643 0.0
H1925 H 0.4122 0.52907 0.36675 0.0
C1926 C 0.69542 0.87325 0.22979 0.0
C1927 C 0.69043 0.86131 0.26475 0.0
C1928 C 0.68473 0.81868 0.23833 0.0
C1929 C 0.69016 0.8308 0.20346 0.0
N1930 N 0.69522 0.86766 0.16535 0.0
N1931 N 0.674 0.82058 0.30102 0.0
C1932 C 0.69388 0.85754 0.19907 0.0
C1933 C 0.68289 0.83329 0.26851 0.0
N1934 N 0.70224 0.90006 0.22612 0.0
N1935 N 0.6829 0.79368 0.24296 0.0
H1936 H 0.67237 0.83054 0.32335 0.0
H1937 H 0.66564 0.79965 0.30523 0.0
H1938 H 0.68409 0.78238 0.22186 0.0
H1939 H 0.68239 0.78496 0.26779 0.0
H1940 H 0.7099 0.91147 0.20261 0.0
H1941 H 0.70101 0.91129 0.24732 0.0
H1942 H 0.69504 0.88574 0.15969 0.0
H1943 H 0.69443 0.85688 0.14254 0.0
C1944 C 0.25417 0.92113 0.28386 0.0
C1945 C 0.24974 0.93833 0.30739 0.0
C1946 C 0.27838 0.97788 0.26766 0.0
C1947 C 0.28539 0.96144 0.24657 0.0
N1948 N 0.28112 0.91764 0.23435 0.0
N1949 N 0.26138 0.98423 0.3241 0.0
C1950 C 0.27359 0.93308 0.2546 0.0
C1951 C 0.26288 0.96702 0.29989 0.0
N1952 N 0.23875 0.89334 0.28828 0.0
N1953 N 0.2857 1.00374 0.25609 0.0
H1954 H 0.24994 0.97752 0.34779 0.0
H1955 H 0.27351 1.00547 0.32221 0.0
H1956 H 0.29637 1.012 0.23202 0.0
H1957 H 0.27865 1.01585 0.26821 0.0
H1958 H 0.23859 0.87956 0.26989 0.0
H1959 H 0.22437 0.88385 0.30918 0.0
H1960 H 0.27626 0.89777 0.24122 0.0
H1961 H 0.29347 0.92526 0.21128 0.0
C1962 C 0.13591 0.43268 0.24403 0.0
C1963 C 0.16052 0.43062 0.2385 0.0
C1964 C 0.14563 0.4149 0.17741 0.0
C1965 C 0.12044 0.41592 0.18349 0.0
N1966 N 0.08919 0.42154 0.22378 0.0
N1967 N 0.18809 0.41745 0.20253 0.0
C1968 C 0.11495 0.42374 0.21714 0.0
C1969 C 0.16514 0.42101 0.20586 0.0
N1970 N 0.13286 0.4435 0.27503 0.0
N1971 N 0.15121 0.40889 0.14419 0.0
H1972 H 0.20304 0.42271 0.22265 0.0
H1973 H 0.19163 0.40805 0.18096 0.0
H1974 H 0.13711 0.40385 0.12308 0.0
H1975 H 0.1703 0.4103 0.1368 0.0
H1976 H 0.11712 0.44852 0.27948 0.0
H1977 H 0.1473 0.44918 0.29578 0.0
H1978 H 0.08259 0.42407 0.24879 0.0
H1979 H 0.07328 0.41503 0.20479 0.0
C1980 C 0.11712 0.34692 1.01312 0.0
C1981 C 0.13648 0.36522 0.98731 0.0
C1982 C 0.1217 0.39887 1.00169 0.0
C1983 C 0.10347 0.38086 0.02851 0.0
N1984 N 0.09264 0.34297 0.06852 0.0
N1985 N 0.16378 0.41203 0.96614 0.0
C1986 C 0.10405 0.35656 0.0371 0.0
C1987 C 0.14075 0.39229 0.98414 0.0
N1988 N 0.1098 0.31993 1.01348 0.0
N1989 N 0.1206 0.42192 0.99265 0.0
H1990 H 0.17947 0.40852 0.95583 0.0
H1991 H 0.16901 0.43254 0.96529 0.0
H1992 H 0.10745 0.4276 1.00586 0.0
H1993 H 0.13136 0.43429 0.9707 0.0
H1994 H 0.09386 0.30542 0.02999 0.0
H1995 H 0.11726 0.31154 0.99461 0.0
H1996 H 0.09472 0.32639 0.07732 0.0
H1997 H 0.08343 0.34991 0.08712 0.0
C1998 C 0.71519 0.87082 0.98866 0.0
C1999 C 0.69179 0.86156 0.96497 0.0
C2000 C 0.66883 0.81762 0.99943 0.0
C2001 C 0.69114 0.82821 0.02473 0.0
N2002 N 0.73168 0.86785 0.04773 0.0
N2003 N 0.6441 0.82694 0.95186 0.0
C2004 C 0.71293 0.85579 0.02073 0.0
C2005 C 0.66797 0.83508 0.97144 0.0
N2006 N 0.7406 0.89294 0.97935 0.0
N2007 N 0.64849 0.79073 1.00201 0.0
H2008 H 0.64258 0.83915 0.93181 0.0
H2009 H 0.6251 0.80916 0.9574 0.0
H2010 H 0.64747 0.7782 0.02339 0.0
H2011 H 0.63357 0.78063 0.98232 0.0
H2012 H 0.75895 0.89899 0.994 0.0
H2013 H 0.74439 0.90302 0.95474 0.0
H2014 H 0.7464 0.88869 0.04782 0.0
H2015 H 0.73058 0.85757 0.07156 0.0
C2016 C 0.28546 0.9202 1.01676 0.0
C2017 C 0.25564 0.90515 1.01585 0.0
C2018 C 0.25319 0.9256 0.07258 0.0
C2019 C 0.28313 0.94195 0.07243 0.0
N2020 N 0.32757 0.95822 0.04121 0.0
N2021 N 0.21065 0.89512 0.03999 0.0
C2022 C 0.29923 0.94007 0.0437 0.0
C2023 C 0.23937 0.90837 0.04297 0.0
N2024 N 0.30056 0.91516 0.99182 0.0
N2025 N 0.2381 0.92569 0.10168 0.0
H2026 H 0.20007 0.88165 1.01937 0.0
H2027 H 0.19742 0.89862 0.0565 0.0
H2028 H 0.24752 0.93801 0.12368 0.0
H2029 H 0.21659 0.91229 0.10528 0.0
H2030 H 0.32231 0.92302 0.99291 0.0
H2031 H 0.29091 0.90139 0.97118 0.0
H2032 H 0.34 0.95987 1.01919 0.0
H2033 H 0.3384 0.97345 0.0598 0.0
C2034 C 0.68688 0.92188 0.49491 0.0
C2035 C 0.69102 0.9364 0.46207 0.0
C2036 C 0.69232 0.97481 0.49547 0.0
C2037 C 0.68674 0.95989 0.52839 0.0
N2038 N 0.67552 0.91743 0.55838 0.0
N2039 N 0.69071 0.97375 0.43075 0.0
C2040 C 0.68278 0.93276 0.52763 0.0
C2041 C 0.69163 0.96197 0.46244 0.0
N2042 N 0.68834 0.89832 0.49513 0.0
N2043 N 0.69889 1.00163 0.49539 0.0
H2044 H 0.68954 0.96463 0.40637 0.0
H2045 H 0.68791 0.99075 0.4287 0.0
H2046 H 0.69909 1.01201 0.51817 0.0
H2047 H 0.70663 1.01447 0.47303 0.0
H2048 H 0.68911 0.88833 0.5183 0.0
H2049 H 0.69033 0.88946 0.47182 0.0
H2050 H 0.66888 0.8966 0.55917 0.0
H2051 H 0.67489 0.92528 0.58316 0.0
C2052 C 0.14081 0.8223 0.482 0.0
C2053 C 0.16362 0.84893 0.48824 0.0
C2054 C 0.1567 0.8394 0.55285 0.0
C2055 C 0.13071 0.81516 0.54646 0.0
N2056 N 0.09707 0.78404 0.50429 0.0
N2057 N 0.19381 0.88319 0.5296 0.0
C2058 C 0.12275 0.80643 0.51083 0.0
C2059 C 0.17201 0.85742 0.52374 0.0
N2060 N 0.13642 0.81232 0.44823 0.0
N2061 N 0.16685 0.8449 0.58677 0.0
H2062 H 0.20608 0.89624 0.50883 0.0
H2063 H 0.19892 0.89201 0.55467 0.0
H2064 H 0.15646 0.83146 0.60806 0.0
H2065 H 0.18665 0.86105 0.59317 0.0
H2066 H 0.12167 0.79225 0.44199 0.0
H2067 H 0.14985 0.82346 0.42713 0.0
H2068 H 0.08865 0.77853 0.47887 0.0
H2069 H 0.08307 0.77201 0.52445 0.0
C2070 C 0.25184 0.40898 0.47851 0.0
C2071 C 0.2421 0.42785 0.48452 0.0
C2072 C 0.2554 0.42975 0.54739 0.0
C2073 C 0.26981 0.41502 0.5395 0.0
N2074 N 0.28796 0.39792 0.49323 0.0
N2075 N 0.23618 0.4577 0.52437 0.0
C2076 C 0.26965 0.40652 0.50392 0.0
C2077 C 0.2445 0.43877 0.51892 0.0
N2078 N 0.24425 0.39312 0.4489 0.0
N2079 N 0.25082 0.43402 0.58193 0.0
H2080 H 0.22654 0.46334 0.50454 0.0
H2081 H 0.24032 0.46883 0.54774 0.0
H2082 H 0.25702 0.42658 0.60359 0.0
H2083 H 0.23821 0.44236 0.5891 0.0
H2084 H 0.24875 0.37725 0.44583 0.0
H2085 H 0.23153 0.39387 0.42888 0.0
H2086 H 0.29028 0.39415 0.46663 0.0
H2087 H 0.30335 0.39796 0.50963 0.0
C2088 C 0.22258 0.3671 0.73361 0.0
C2089 C 0.22327 0.34613 0.75423 0.0
C2090 C 0.26117 0.34906 0.71607 0.0
C2091 C 0.25862 0.36836 0.6937 0.0
N2092 N 0.23372 0.3923 0.67777 0.0
N2093 N 0.24096 0.31509 0.76394 0.0
C2094 C 0.23853 0.37652 0.7016 0.0
C2095 C 0.24169 0.33625 0.74478 0.0
N2096 N 0.20739 0.3788 0.74539 0.0
N2097 N 0.28326 0.34431 0.71121 0.0
H2098 H 0.22784 0.30633 0.78617 0.0
H2099 H 0.25178 0.30498 0.75645 0.0
H2100 H 0.29856 0.35407 0.69132 0.0
H2101 H 0.28789 0.3325 0.72856 0.0
H2102 H 0.21092 0.39772 0.73582 0.0
H2103 H 0.19241 0.37035 0.76587 0.0
H2104 H 0.21703 0.39624 0.68034 0.0
H2105 H 0.24487 0.3994 0.65383 0.0
C2106 C 0.70294 0.9647 0.76594 0.0
C2107 C 0.68926 0.93565 0.77029 0.0
C2108 C 0.68013 0.93224 0.70513 0.0
C2109 C 0.68978 0.9609 0.70225 0.0
N2110 N 0.70454 1.00302 0.73365 0.0
N2111 N 0.66181 0.89155 0.74334 0.0
C2112 C 0.69975 0.97677 0.73365 0.0
C2113 C 0.67723 0.91936 0.73957 0.0
N2114 N 0.72001 0.9811 0.79225 0.0
N2115 N 0.67431 0.91733 0.67476 0.0
H2116 H 0.65889 0.88145 0.76779 0.0
H2117 H 0.64992 0.8787 0.72286 0.0
H2118 H 0.6768 0.92611 0.64941 0.0
H2119 H 0.66986 0.89706 0.67452 0.0
H2120 H 0.73252 1.00225 0.78915 0.0
H2121 H 0.72434 0.97337 0.81532 0.0
H2122 H 0.70893 1.01448 0.75677 0.0
H2123 H 0.70114 1.01236 0.71152 0.0
C2124 C 0.13813 0.79388 0.76806 0.0
C2125 C 0.15601 0.82219 0.77358 0.0
C2126 C 0.14315 0.83214 0.71487 0.0
C2127 C 0.12279 0.80408 0.71066 0.0
N2128 N 0.0966 0.75906 0.73848 0.0
N2129 N 0.16881 0.86821 0.75651 0.0
C2130 C 0.11916 0.78504 0.7386 0.0
C2131 C 0.15646 0.84127 0.74828 0.0
N2132 N 0.13906 0.77547 0.79127 0.0
N2133 N 0.15098 0.85009 0.68662 0.0
H2134 H 0.17839 0.87547 0.7809 0.0
H2135 H 0.16672 0.88248 0.7407 0.0
H2136 H 0.14314 0.84426 0.66102 0.0
H2137 H 0.16771 0.87013 0.68777 0.0
H2138 H 0.12881 0.75449 0.78675 0.0
H2139 H 0.15178 0.78151 0.81385 0.0
H2140 H 0.09152 0.74534 0.75983 0.0
H2141 H 0.08114 0.75204 0.71895 0.0
C2142 C 0.35568 0.19806 0.593 0.0
C2143 C 0.37823 0.21199 0.61731 0.0
C2144 C 0.4055 0.19531 0.58323 0.0
C2145 C 0.38436 0.1849 0.55623 0.0
N2146 N 0.34283 0.18402 0.53213 0.0
N2147 N 0.42677 0.22721 0.63191 0.0
C2148 C 0.36056 0.18866 0.56013 0.0
C2149 C 0.40383 0.21162 0.61133 0.0
N2150 N 0.32892 0.19204 0.60216 0.0
N2151 N 0.42629 0.18843 0.58358 0.0
H2152 H 0.42631 0.23928 0.65249 0.0
H2153 H 0.44681 0.23001 0.62646 0.0
H2154 H 0.42776 0.17563 0.56493 0.0
H2155 H 0.44038 0.19312 0.60457 0.0
H2156 H 0.31139 0.17998 0.58652 0.0
H2157 H 0.32374 0.19587 0.6274 0.0
H2158 H 0.32654 0.18869 0.53291 0.0
H2159 H 0.34651 0.17879 0.50689 0.0
C2160 C 0.88145 0.28315 0.53226 0.0
C2161 C 0.88376 0.29265 0.56747 0.0
C2162 C 0.92827 0.3338 0.55178 0.0
C2163 C 0.92812 0.32237 0.51816 0.0
N2164 N 0.90546 0.28522 0.47677 0.0
N2165 N 0.91034 0.32542 0.61245 0.0
C2166 C 0.90471 0.29696 0.50816 0.0
C2167 C 0.9073 0.31772 0.57761 0.0
N2168 N 0.85697 0.26063 0.52233 0.0
N2169 N 0.94818 0.36024 0.55876 0.0
H2170 H 0.89524 0.31429 0.63205 0.0
H2171 H 0.92866 0.34176 0.62246 0.0
H2172 H 0.9637 0.37281 0.54032 0.0
H2173 H 0.94772 0.37055 0.58139 0.0
H2174 H 0.85259 0.25374 0.49625 0.0
H2175 H 0.84 0.25016 0.54002 0.0
H2176 H 0.8904 0.26549 0.46966 0.0
H2177 H 0.92227 0.29444 0.45868 0.0
C2178 C 0.82116 0.75624 0.57718 0.0
C2179 C 0.84592 0.75492 0.5695 0.0
C2180 C 0.82789 0.7368 0.51032 0.0
C2181 C 0.80241 0.73651 0.51909 0.0
N2182 N 0.77231 0.74081 0.56267 0.0
N2183 N 0.87231 0.74161 0.53147 0.0
C2184 C 0.79836 0.74483 0.55305 0.0
C2185 C 0.84913 0.74451 0.53674 0.0
N2186 N 0.81959 0.76862 0.60753 0.0
N2187 N 0.83204 0.73053 0.47656 0.0
H2188 H 0.88856 0.74817 0.55005 0.0
H2189 H 0.87482 0.73158 0.50983 0.0
H2190 H 0.81655 0.72411 0.45697 0.0
H2191 H 0.85122 0.73303 0.46733 0.0
H2192 H 0.80341 0.77289 0.61288 0.0
H2193 H 0.83567 0.77676 0.62625 0.0
H2194 H 0.76712 0.74371 0.58835 0.0
H2195 H 0.75492 0.73202 0.54581 0.0
C2196 C 0.81521 0.7208 0.31274 0.0
C2197 C 0.80509 0.69253 0.30701 0.0
C2198 C 0.78018 0.68221 0.3639 0.0
C2199 C 0.78314 0.70863 0.36341 0.0
N2200 N 0.80449 0.75411 0.33783 0.0
N2201 N 0.77576 0.64559 0.32699 0.0
C2202 C 0.8014 0.72851 0.33835 0.0
C2203 C 0.78748 0.67295 0.33297 0.0
N2204 N 0.83823 0.74005 0.29423 0.0
N2205 N 0.76985 0.66596 0.39366 0.0
H2206 H 0.77885 0.63777 0.30346 0.0
H2207 H 0.76067 0.63072 0.34402 0.0
H2208 H 0.76457 0.67273 0.41673 0.0
H2209 H 0.76911 0.64714 0.3963 0.0
H2210 H 0.84757 0.76094 0.29909 0.0
H2211 H 0.84985 0.73476 0.27714 0.0
H2212 H 0.81521 0.7684 0.31751 0.0
H2213 H 0.79498 0.76039 0.3568 0.0
C2214 C 0.38998 0.21203 0.34268 0.0
C2215 C 0.36573 0.19884 0.32039 0.0
C2216 C 0.35139 0.15596 0.35493 0.0
C2217 C 0.37367 0.17021 0.37967 0.0
N2218 N 0.41117 0.21338 0.40004 0.0
N2219 N 0.32094 0.15858 0.30943 0.0
C2220 C 0.39178 0.19877 0.3746 0.0
C2221 C 0.34578 0.17083 0.32763 0.0
N2222 N 0.4126 0.2364 0.332 0.0
N2223 N 0.33583 0.12807 0.35702 0.0
H2224 H 0.3159 0.16879 0.2899 0.0
H2225 H 0.30433 0.13916 0.31589 0.0
H2226 H 0.33871 0.11665 0.37701 0.0
H2227 H 0.32155 0.11621 0.33754 0.0
H2228 H 0.43177 0.24563 0.34542 0.0
H2229 H 0.41373 0.24564 0.30733 0.0
H2230 H 0.42292 0.23468 0.39958 0.0
H2231 H 0.41364 0.20441 0.42328 0.0
C2232 C 0.88207 0.31293 0.32818 0.0
C2233 C 0.89327 0.31867 0.29312 0.0
C2234 C 0.94112 0.33543 0.31618 0.0
C2235 C 0.93019 0.33191 0.35135 0.0
N2236 N 0.89095 0.31874 0.3918 0.0
N2237 N 0.93312 0.3371 0.25286 0.0
C2238 C 0.9008 0.32101 0.35765 0.0
C2239 C 0.92275 0.33037 0.2869 0.0
N2240 N 0.85342 0.29917 0.33295 0.0
N2241 N 0.96902 0.34342 0.31086 0.0
H2242 H 0.92015 0.33303 0.23084 0.0
H2243 H 0.9545 0.34824 0.24635 0.0
H2244 H 0.98328 0.34803 0.33166 0.0
H2245 H 0.9778 0.34363 0.28612 0.0
H2246 H 0.84343 0.29167 0.3575 0.0
H2247 H 0.83947 0.29389 0.31164 0.0
H2248 H 0.87034 0.31376 0.39818 0.0
H2249 H 0.90385 0.32297 0.41405 0.0
C2250 C 0.35643 0.25065 0.85246 0.0
C2251 C 0.36243 0.26465 0.81891 0.0
C2252 C 0.37207 0.30694 0.85001 0.0
C2253 C 0.36487 0.29257 0.88356 0.0
N2254 N 0.35835 0.2532 0.91722 0.0
N2255 N 0.38206 0.30732 0.78647 0.0
C2256 C 0.35952 0.26513 0.88482 0.0
C2257 C 0.37242 0.29325 0.81804 0.0
N2258 N 0.34717 0.22318 0.8533 0.0
N2259 N 0.37699 0.33322 0.84818 0.0
H2260 H 0.38187 0.2978 0.76272 0.0
H2261 H 0.39238 0.32857 0.78419 0.0
H2262 H 0.37869 0.34465 0.87053 0.0
H2263 H 0.37815 0.34349 0.82441 0.0
H2264 H 0.33871 0.21081 0.87594 0.0
H2265 H 0.34694 0.21243 0.83071 0.0
H2266 H 0.35705 0.2342 0.92047 0.0
H2267 H 0.36161 0.26366 0.94106 0.0
C2268 C 0.79157 0.20866 0.82745 0.0
C2269 C 0.80776 0.20157 0.80514 0.0
C2270 C 0.7882 0.15724 0.83613 0.0
C2271 C 0.77445 0.16564 0.86105 0.0
N2272 N 0.77395 0.20455 0.88727 0.0
N2273 N 0.82933 0.17338 0.79795 0.0
C2274 C 0.77931 0.19294 0.85878 0.0
C2275 C 0.80849 0.17709 0.81231 0.0
N2276 N 0.78722 0.22988 0.81853 0.0
N2277 N 0.78115 0.13042 0.83367 0.0
H2278 H 0.8457 0.18844 0.78248 0.0
H2279 H 0.83185 0.15666 0.80469 0.0
H2280 H 0.76451 0.1148 0.84811 0.0
H2281 H 0.78971 0.1235 0.8142 0.0
H2282 H 0.77368 0.23432 0.83307 0.0
H2283 H 0.79455 0.24092 0.79464 0.0
H2284 H 0.7789 0.225 0.88734 0.0
H2285 H 0.76866 0.19493 0.91221 0.0
C2286 C 0.90509 0.74287 0.84556 0.0
C2287 C 0.91991 0.76224 0.81815 0.0
C2288 C 0.96495 0.77279 0.84516 0.0
C2289 C 0.95012 0.75258 0.87202 0.0
N2290 N 0.90656 0.71356 0.89238 0.0
N2291 N 0.96343 0.79182 0.78735 0.0
C2292 C 0.92028 0.73614 0.87066 0.0
C2293 C 0.94975 0.7763 0.81679 0.0
N2294 N 0.87639 0.73123 0.84764 0.0
N2295 N 0.99364 0.78825 0.8465 0.0
H2296 H 0.95288 0.79455 0.76593 0.0
H2297 H 0.98502 0.8005 0.7829 0.0
H2298 H 1.00534 0.78434 0.86506 0.0
H2299 H 1.00566 0.80554 0.8306 0.0
H2300 H 0.86429 0.71883 0.86887 0.0
H2301 H 0.86501 0.73609 0.82943 0.0
H2302 H 0.88514 0.69939 0.89032 0.0
H2303 H 0.91706 0.70757 0.91047 0.0
C2304 C 0.88891 0.67578 0.06374 0.0
C2305 C 0.86808 0.68325 0.05675 0.0
C2306 C 0.8943 0.70953 1.00386 0.0
C2307 C 0.91663 0.70445 1.0131 0.0
N2308 N 0.93731 0.68634 0.05456 0.0
N2309 N 0.84982 0.70657 0.0214 0.0
C2310 C 0.91434 0.6881 0.04342 0.0
C2311 C 0.87027 0.69955 0.02668 0.0
N2312 N 0.88457 0.65743 0.09055 0.0
N2313 N 0.89633 0.7242 0.97357 0.0
H2314 H 0.83151 0.69838 0.0371 0.0
H2315 H 0.85118 0.72094 1.0026 0.0
H2316 H 0.91451 0.73367 0.95776 0.0
H2317 H 0.87974 0.72619 0.96311 0.0
H2318 H 0.89745 0.64884 0.09467 0.0
H2319 H 0.8666 0.64888 0.10678 0.0
H2320 H 0.93803 0.67723 0.07857 0.0
H2321 H 0.95673 0.6961 0.04125 0.0
C2322 C 0.37664 0.29627 0.11959 0.0
C2323 C 0.3614 0.26721 0.12409 0.0
C2324 C 0.35226 0.26406 0.05907 0.0
C2325 C 0.36327 0.29298 0.05603 0.0
N2326 N 0.381 0.33572 0.08722 0.0
N2327 N 0.33193 0.2234 0.09746 0.0
C2328 C 0.37431 0.30886 0.08728 0.0
C2329 C 0.34864 0.25108 0.09354 0.0
N2330 N 0.39435 0.31208 0.14579 0.0
N2331 N 0.34594 0.24895 0.02883 0.0
H2332 H 0.32859 0.21325 0.12196 0.0
H2333 H 0.31949 0.21085 0.07706 0.0
H2334 H 0.34915 0.25773 1.0034 0.0
H2335 H 0.34045 0.22838 0.02883 0.0
H2336 H 0.40803 0.33304 0.14252 0.0
H2337 H 0.39792 0.3038 0.16891 0.0
H2338 H 0.38612 0.34726 0.11033 0.0
H2339 H 0.37859 0.34576 0.06515 0.0
C2340 C 0.77848 0.22299 0.0399 0.0
C2341 C 0.79859 0.22052 0.06093 0.0
C2342 C 0.78067 0.1743 0.03837 0.0
C2343 C 0.76476 0.17886 1.01165 0.0
N2344 N 0.75622 0.21361 0.9829 0.0
N2345 N 0.82403 0.19614 0.07163 0.0
C2346 C 0.76576 0.20491 1.0111 0.0
C2347 C 0.80139 0.19692 0.05749 0.0
N2348 N 0.77064 0.24191 0.04795 0.0
N2349 N 0.77499 0.14851 0.04771 0.0
H2350 H 0.84078 0.21313 0.08334 0.0
H2351 H 0.8276 0.17977 0.0676 0.0
H2352 H 0.75719 0.13091 0.03903 0.0
H2353 H 0.78543 0.1448 0.06849 0.0
H2354 H 0.75413 0.24274 0.03502 0.0
H2355 H 0.77815 0.25436 0.0702 0.0
H2356 H 0.75901 0.23334 0.98131 0.0
H2357 H 0.74916 0.20333 0.95912 0.0
loop_
_geom_bond_atom_site_label_1
_geom_bond_atom_site_label_2
_geom_bond_distance
_geom_bond_site_symmetry_2
_ccdc_geom_bond_type
Cu0 N1 1.999 . S
Cu0 O6 1.974 1_554 S
Cu0 N11 1.985 1_554 S
Cu0 O20 1.959 . S
N1 Cu0 1.999 . S
N1 C3 1.263 . S
N1 C5 1.389 . S
N2 C3 1.358 . S
N2 C4 1.400 . S
C3 N1 1.263 . S
C3 N2 1.358 . S
C3 H9 0.930 . S
C4 N2 1.400 . S
C4 C5 1.351 . S
C4 H21 0.930 . S
C5 N1 1.389 . S
C5 C4 1.351 . S
C5 H10 0.930 . S
O6 Cu0 1.974 1_556 S
O6 C16 1.282 . S
C7 O8 1.261 . S
C7 O20 1.251 . S
O8 C7 1.261 . S
H9 C3 0.930 . S
H10 C5 0.930 . S
N11 Cu0 1.985 1_556 S
N11 C13 1.335 . S
N11 C14 1.390 . S
N12 C13 1.345 . S
N12 C15 1.336 . S
C13 N11 1.335 . S
C13 N12 1.345 . S
C13 H18 0.930 . S
C14 N11 1.390 . S
C14 C15 1.346 . S
C14 H19 0.930 . S
C15 N12 1.336 . S
C15 C14 1.346 . S
C15 H22 0.929 . S
C16 O6 1.282 . S
C16 O17 1.216 . S
O17 C16 1.216 . S
H18 C13 0.930 . S
H19 C14 0.930 . S
O20 Cu0 1.959 . S
O20 C7 1.251 . S
H21 C4 0.930 . S
H22 C15 0.929 . S
Cu23 N24 1.999 1_554 S
Cu23 O29 1.974 . S
Cu23 N34 1.985 . S
Cu23 O43 1.959 1_554 S
N24 Cu23 1.999 1_556 S
N24 C26 1.263 . S
N24 C28 1.389 . S
N25 C26 1.358 . S
N25 C27 1.400 . S
C26 N24 1.263 . S
C26 N25 1.358 . S
C26 H32 0.930 . S
C27 N25 1.400 . S
C27 C28 1.351 . S
C27 H44 0.930 . S
C28 N24 1.389 . S
C28 C27 1.351 . S
C28 H33 0.930 . S
O29 Cu23 1.974 . S
O29 C39 1.282 . S
C30 O31 1.257 1_556 S
C30 O43 1.251 . S
O31 C30 1.257 1_554 S
H32 C26 0.930 . S
H33 C28 0.930 . S
N34 Cu23 1.985 . S
N34 C36 1.335 . S
N34 C37 1.390 . S
N35 C36 1.345 . S
N35 C38 1.336 . S
C36 N34 1.335 . S
C36 N35 1.345 . S
C36 H41 0.930 . S
C37 N34 1.390 . S
C37 C38 1.346 . S
C37 H42 0.930 . S
C38 N35 1.336 . S
C38 C37 1.346 . S
C38 H45 0.929 . S
C39 O29 1.282 . S
C39 O40 1.216 . S
O40 C39 1.216 . S
H41 C36 0.930 . S
H42 C37 0.930 . S
O43 Cu23 1.959 1_556 S
O43 C30 1.251 . S
H44 C27 0.930 . S
H45 C38 0.929 . S
Cu46 N47 1.999 1_554 S
Cu46 O52 1.974 . S
Cu46 N57 1.985 . S
Cu46 O66 1.947 . S
N47 Cu46 1.999 1_556 S
N47 C49 1.263 . S
N47 C51 1.389 . S
N48 C49 1.358 . S
N48 C50 1.400 . S
C49 N47 1.263 . S
C49 N48 1.358 . S
C49 H55 0.930 1_565 S
C50 N48 1.400 . S
C50 C51 1.351 . S
C50 H67 0.930 . S
C51 N47 1.389 . S
C51 C50 1.351 . S
C51 H56 0.930 . S
O52 Cu46 1.974 . S
O52 C62 1.282 1_565 S
C53 O54 1.261 . S
C53 O66 1.222 1_545 S
O54 C53 1.261 . S
H55 C49 0.930 1_545 S
H56 C51 0.930 . S
N57 Cu46 1.985 . S
N57 C59 1.339 . S
N57 C60 1.386 1_565 S
N58 C59 1.345 1_545 S
N58 C61 1.336 . S
C59 N57 1.339 . S
C59 N58 1.345 1_565 S
C59 H64 0.930 . S
C60 N57 1.386 1_545 S
C60 C61 1.346 . S
C60 H65 0.930 . S
C61 N58 1.336 . S
C61 C60 1.346 . S
C61 H68 0.929 . S
C62 O52 1.282 1_545 S
C62 O63 1.216 . S
O63 C62 1.216 . S
H64 C59 0.930 . S
H65 C60 0.930 . S
O66 Cu46 1.947 . S
O66 C53 1.222 1_565 S
H67 C50 0.930 . S
H68 C61 0.929 . S
Cu69 N70 1.999 . S
Cu69 O75 1.974 . S
Cu69 N80 1.985 . S
Cu69 O89 1.959 . S
N70 Cu69 1.999 . S
N70 C72 1.263 . S
N70 C74 1.389 . S
N71 C72 1.358 . S
N71 C73 1.400 . S
C72 N70 1.263 . S
C72 N71 1.358 . S
C72 H78 0.930 . S
C73 N71 1.400 . S
C73 C74 1.351 . S
C73 H90 0.930 . S
C74 N70 1.389 . S
C74 C73 1.351 . S
C74 H79 0.930 . S
O75 Cu69 1.974 . S
O75 C85 1.282 . S
C76 O77 1.261 . S
C76 O89 1.251 . S
O77 C76 1.261 . S
H78 C72 0.930 . S
H79 C74 0.930 . S
N80 Cu69 1.985 . S
N80 C82 1.335 . S
N80 C83 1.390 . S
N81 C82 1.345 . S
N81 C84 1.336 . S
C82 N80 1.335 . S
C82 N81 1.345 . S
C82 H87 0.930 . S
C83 N80 1.390 . S
C83 C84 1.346 . S
C83 H88 0.930 . S
C84 N81 1.336 . S
C84 C83 1.346 . S
C84 H91 0.929 1_545 S
C85 O75 1.282 . S
C85 O86 1.216 1_545 S
O86 C85 1.216 1_565 S
H87 C82 0.930 . S
H88 C83 0.930 . S
O89 Cu69 1.959 . S
O89 C76 1.251 . S
H90 C73 0.930 . S
H91 C84 0.929 1_565 S
Cu92 N93 1.999 . S
Cu92 O98 1.974 . S
Cu92 N103 1.985 . S
Cu92 O112 1.959 . S
N93 Cu92 1.999 . S
N93 C95 1.263 . S
N93 C97 1.389 . S
N94 C95 1.358 . S
N94 C96 1.400 . S
C95 N93 1.263 . S
C95 N94 1.358 . S
C95 H101 0.930 . S
C96 N94 1.400 . S
C96 C97 1.351 . S
C96 H113 0.930 . S
C97 N93 1.389 . S
C97 C96 1.351 . S
C97 H102 0.930 . S
O98 Cu92 1.974 . S
O98 C108 1.282 . S
C99 O100 1.261 . S
C99 O112 1.251 . S
O100 C99 1.261 . S
H101 C95 0.930 . S
H102 C97 0.930 . S
N103 Cu92 1.985 . S
N103 C105 1.335 . S
N103 C106 1.390 . S
N104 C105 1.345 . S
N104 C107 1.336 . S
C105 N103 1.335 . S
C105 N104 1.345 . S
C105 H110 0.930 . S
C106 N103 1.390 . S
C106 C107 1.346 . S
C106 H111 0.930 . S
C107 N104 1.336 . S
C107 C106 1.346 . S
C107 H114 0.929 . S
C108 O98 1.282 . S
C108 O109 1.216 . S
O109 C108 1.216 . S
H110 C105 0.930 . S
H111 C106 0.930 . S
O112 Cu92 1.959 . S
O112 C99 1.251 . S
H113 C96 0.930 . S
H114 C107 0.929 . S
Cu115 N116 1.999 . S
Cu115 O121 1.974 . S
Cu115 N126 1.985 . S
Cu115 O135 1.959 . S
N116 Cu115 1.999 . S
N116 C118 1.263 . S
N116 C120 1.389 . S
N117 C118 1.358 . S
N117 C119 1.400 . S
C118 N116 1.263 . S
C118 N117 1.358 . S
C118 H124 0.930 . S
C119 N117 1.400 . S
C119 C120 1.351 . S
C119 H136 0.930 . S
C120 N116 1.389 . S
C120 C119 1.351 . S
C120 H125 0.930 . S
O121 Cu115 1.974 . S
O121 C131 1.282 . S
C122 O123 1.261 . S
C122 O135 1.251 . S
O123 C122 1.261 . S
H124 C118 0.930 . S
H125 C120 0.930 . S
N126 Cu115 1.985 . S
N126 C128 1.335 . S
N126 C129 1.390 . S
N127 C128 1.345 . S
N127 C130 1.336 . S
C128 N126 1.335 . S
C128 N127 1.345 . S
C128 H133 0.930 . S
C129 N126 1.390 . S
C129 C130 1.346 . S
C129 H134 0.930 . S
C130 N127 1.336 . S
C130 C129 1.346 . S
C130 H137 0.929 . S
C131 O121 1.282 . S
C131 O132 1.216 . S
O132 C131 1.216 . S
H133 C128 0.930 . S
H134 C129 0.930 . S
O135 Cu115 1.959 . S
O135 C122 1.251 . S
H136 C119 0.930 . S
H137 C130 0.929 . S
Cu138 N139 1.999 . S
Cu138 O144 1.974 . S
Cu138 N149 1.985 . S
Cu138 O158 1.959 . S
N139 Cu138 1.999 . S
N139 C141 1.263 . S
N139 C143 1.389 . S
N140 C141 1.358 . S
N140 C142 1.400 . S
C141 N139 1.263 . S
C141 N140 1.358 . S
C141 H147 0.930 . S
C142 N140 1.400 . S
C142 C143 1.351 . S
C142 H159 0.930 . S
C143 N139 1.389 . S
C143 C142 1.351 . S
C143 H148 0.930 . S
O144 Cu138 1.974 . S
O144 C154 1.282 . S
C145 O146 1.261 . S
C145 O158 1.251 . S
O146 C145 1.261 . S
H147 C141 0.930 . S
H148 C143 0.930 . S
N149 Cu138 1.985 . S
N149 C151 1.335 . S
N149 C152 1.390 . S
N150 C151 1.345 . S
N150 C153 1.336 . S
C151 N149 1.335 . S
C151 N150 1.345 . S
C151 H156 0.930 . S
C152 N149 1.390 . S
C152 C153 1.346 . S
C152 H157 0.930 . S
C153 N150 1.336 . S
C153 C152 1.346 . S
C153 H160 0.929 . S
C154 O144 1.282 . S
C154 O155 1.216 . S
O155 C154 1.216 . S
H156 C151 0.930 . S
H157 C152 0.930 . S
O158 Cu138 1.959 . S
O158 C145 1.251 . S
H159 C142 0.930 . S
H160 C153 0.929 . S
Cu161 N162 1.999 . S
Cu161 O167 1.974 . S
Cu161 N172 1.985 . S
Cu161 O181 1.959 . S
N162 Cu161 1.999 . S
N162 C164 1.263 . S
N162 C166 1.389 . S
N163 C164 1.358 . S
N163 C165 1.400 . S
C164 N162 1.263 . S
C164 N163 1.358 . S
C164 H170 0.930 . S
C165 N163 1.400 . S
C165 C166 1.351 . S
C165 H182 0.930 . S
C166 N162 1.389 . S
C166 C165 1.351 . S
C166 H171 0.930 . S
O167 Cu161 1.974 . S
O167 C177 1.282 . S
C168 O169 1.261 . S
C168 O181 1.251 . S
O169 C168 1.261 . S
H170 C164 0.930 . S
H171 C166 0.930 . S
N172 Cu161 1.985 . S
N172 C174 1.335 . S
N172 C175 1.390 . S
N173 C174 1.345 . S
N173 C176 1.336 . S
C174 N172 1.335 . S
C174 N173 1.345 . S
C174 H179 0.930 . S
C175 N172 1.390 . S
C175 C176 1.346 . S
C175 H180 0.930 . S
C176 N173 1.336 . S
C176 C175 1.346 . S
C176 H183 0.929 . S
C177 O167 1.282 . S
C177 O178 1.216 . S
O178 C177 1.216 . S
H179 C174 0.930 . S
H180 C175 0.930 . S
O181 Cu161 1.959 . S
O181 C168 1.251 . S
H182 C165 0.930 . S
H183 C176 0.929 . S
Cu184 N185 1.999 . S
Cu184 O190 1.974 . S
Cu184 N195 1.985 . S
Cu184 O204 1.959 . S
N185 Cu184 1.999 . S
N185 C187 1.263 . S
N185 C189 1.389 . S
N186 C187 1.358 . S
N186 C188 1.400 . S
C187 N185 1.263 . S
C187 N186 1.358 . S
C187 H193 0.930 . S
C188 N186 1.400 . S
C188 C189 1.351 . S
C188 H205 0.930 . S
C189 N185 1.389 . S
C189 C188 1.351 . S
C189 H194 0.930 . S
O190 Cu184 1.974 . S
O190 C200 1.282 . S
C191 O192 1.261 . S
C191 O204 1.251 . S
O192 C191 1.261 . S
H193 C187 0.930 . S
H194 C189 0.930 . S
N195 Cu184 1.985 . S
N195 C197 1.335 . S
N195 C198 1.390 . S
N196 C197 1.345 . S
N196 C199 1.336 . S
C197 N195 1.335 . S
C197 N196 1.345 . S
C197 H202 0.930 . S
C198 N195 1.390 . S
C198 C199 1.346 . S
C198 H203 0.930 . S
C199 N196 1.336 . S
C199 C198 1.346 . S
C199 H206 0.929 . S
C200 O190 1.282 . S
C200 O201 1.216 . S
O201 C200 1.216 . S
H202 C197 0.930 . S
H203 C198 0.930 . S
O204 Cu184 1.959 . S
O204 C191 1.251 . S
H205 C188 0.930 . S
H206 C199 0.929 . S
Cu207 N208 1.999 . S
Cu207 O213 1.974 . S
Cu207 N218 1.985 . S
Cu207 O227 1.959 . S
N208 Cu207 1.999 . S
N208 C210 1.263 . S
N208 C212 1.389 . S
N209 C210 1.358 . S
N209 C211 1.400 . S
C210 N208 1.263 . S
C210 N209 1.358 . S
C210 H216 0.930 . S
C211 N209 1.400 . S
C211 C212 1.351 . S
C211 H228 0.930 . S
C212 N208 1.389 . S
C212 C211 1.351 . S
C212 H217 0.930 . S
O213 Cu207 1.974 . S
O213 C223 1.282 . S
C214 O215 1.261 . S
C214 O227 1.251 . S
O215 C214 1.261 . S
H216 C210 0.930 . S
H217 C212 0.930 . S
N218 Cu207 1.985 . S
N218 C220 1.335 . S
N218 C221 1.390 . S
N219 C220 1.345 . S
N219 C222 1.336 . S
C220 N218 1.335 . S
C220 N219 1.345 . S
C220 H225 0.930 . S
C221 N218 1.390 . S
C221 C222 1.346 . S
C221 H226 0.930 . S
C222 N219 1.336 . S
C222 C221 1.346 . S
C222 H229 0.929 . S
C223 O213 1.282 . S
C223 O224 1.216 . S
O224 C223 1.216 . S
H225 C220 0.930 . S
H226 C221 0.930 . S
O227 Cu207 1.959 . S
O227 C214 1.251 . S
H228 C211 0.930 . S
H229 C222 0.929 . S
Cu230 N231 1.999 . S
Cu230 O236 1.974 . S
Cu230 N241 1.985 . S
Cu230 O250 1.959 . S
N231 Cu230 1.999 . S
N231 C233 1.263 . S
N231 C235 1.389 . S
N232 C233 1.358 . S
N232 C234 1.400 . S
C233 N231 1.263 . S
C233 N232 1.358 . S
C233 H239 0.930 . S
C234 N232 1.400 . S
C234 C235 1.351 . S
C234 H251 0.930 . S
C235 N231 1.389 . S
C235 C234 1.351 . S
C235 H240 0.930 . S
O236 Cu230 1.974 . S
O236 C246 1.282 . S
C237 O238 1.261 . S
C237 O250 1.251 . S
O238 C237 1.261 . S
H239 C233 0.930 . S
H240 C235 0.930 . S
N241 Cu230 1.985 . S
N241 C243 1.335 . S
N241 C244 1.390 . S
N242 C243 1.345 . S
N242 C245 1.336 . S
C243 N241 1.335 . S
C243 N242 1.345 . S
C243 H248 0.930 . S
C244 N241 1.390 . S
C244 C245 1.346 . S
C244 H249 0.930 . S
C245 N242 1.336 . S
C245 C244 1.346 . S
C245 H252 0.929 . S
C246 O236 1.282 . S
C246 O247 1.216 . S
O247 C246 1.216 . S
H248 C243 0.930 . S
H249 C244 0.930 . S
O250 Cu230 1.959 . S
O250 C237 1.251 . S
H251 C234 0.930 . S
H252 C245 0.929 . S
Cu253 N254 1.999 . S
Cu253 O259 1.974 . S
Cu253 N264 1.985 . S
Cu253 O273 1.959 . S
N254 Cu253 1.999 . S
N254 C256 1.263 . S
N254 C258 1.389 . S
N255 C256 1.358 . S
N255 C257 1.400 . S
C256 N254 1.263 . S
C256 N255 1.358 . S
C256 H262 0.930 . S
C257 N255 1.400 . S
C257 C258 1.351 . S
C257 H274 0.930 . S
C258 N254 1.389 . S
C258 C257 1.351 . S
C258 H263 0.930 . S
O259 Cu253 1.974 . S
O259 C269 1.282 . S
C260 O261 1.261 . S
C260 O273 1.251 . S
O261 C260 1.261 . S
H262 C256 0.930 . S
H263 C258 0.930 . S
N264 Cu253 1.985 . S
N264 C266 1.335 . S
N264 C267 1.390 . S
N265 C266 1.345 . S
N265 C268 1.336 . S
C266 N264 1.335 . S
C266 N265 1.345 . S
C266 H271 0.930 . S
C267 N264 1.390 . S
C267 C268 1.346 . S
C267 H272 0.930 . S
C268 N265 1.336 . S
C268 C267 1.346 . S
C268 H275 0.929 . S
C269 O259 1.282 . S
C269 O270 1.216 . S
O270 C269 1.216 . S
H271 C266 0.930 . S
H272 C267 0.930 . S
O273 Cu253 1.959 . S
O273 C260 1.251 . S
H274 C257 0.930 . S
H275 C268 0.929 . S
Cu276 N277 1.999 . S
Cu276 O282 1.974 . S
Cu276 N287 1.985 . S
Cu276 O296 1.959 . S
N277 Cu276 1.999 . S
N277 C279 1.263 . S
N277 C281 1.389 . S
N278 C279 1.358 . S
N278 C280 1.400 . S
C279 N277 1.263 . S
C279 N278 1.358 . S
C279 H285 0.930 . S
C280 N278 1.400 . S
C280 C281 1.351 . S
C280 H297 0.930 . S
C281 N277 1.389 . S
C281 C280 1.351 . S
C281 H286 0.930 . S
O282 Cu276 1.974 . S
O282 C292 1.282 . S
C283 O284 1.261 . S
C283 O296 1.251 . S
O284 C283 1.261 . S
H285 C279 0.930 . S
H286 C281 0.930 . S
N287 Cu276 1.985 . S
N287 C289 1.335 . S
N287 C290 1.390 . S
N288 C289 1.345 . S
N288 C291 1.336 . S
C289 N287 1.335 . S
C289 N288 1.345 . S
C289 H294 0.930 . S
C290 N287 1.390 . S
C290 C291 1.346 . S
C290 H295 0.930 . S
C291 N288 1.336 . S
C291 C290 1.346 . S
C291 H298 0.929 . S
C292 O282 1.282 . S
C292 O293 1.216 . S
O293 C292 1.216 . S
H294 C289 0.930 . S
H295 C290 0.930 . S
O296 Cu276 1.959 . S
O296 C283 1.251 . S
H297 C280 0.930 . S
H298 C291 0.929 . S
Cu299 N300 1.999 . S
Cu299 O305 1.974 . S
Cu299 N310 1.985 . S
Cu299 O319 1.959 . S
N300 Cu299 1.999 . S
N300 C302 1.263 . S
N300 C304 1.389 . S
N301 C302 1.358 . S
N301 C303 1.400 . S
C302 N300 1.263 . S
C302 N301 1.358 . S
C302 H308 0.930 . S
C303 N301 1.400 . S
C303 C304 1.351 . S
C303 H320 0.930 . S
C304 N300 1.389 . S
C304 C303 1.351 . S
C304 H309 0.930 . S
O305 Cu299 1.974 . S
O305 C315 1.282 . S
C306 O307 1.261 . S
C306 O319 1.251 . S
O307 C306 1.261 . S
H308 C302 0.930 . S
H309 C304 0.930 . S
N310 Cu299 1.985 . S
N310 C312 1.335 . S
N310 C313 1.390 . S
N311 C312 1.345 . S
N311 C314 1.336 . S
C312 N310 1.335 . S
C312 N311 1.345 . S
C312 H317 0.930 . S
C313 N310 1.390 . S
C313 C314 1.346 . S
C313 H318 0.930 . S
C314 N311 1.336 . S
C314 C313 1.346 . S
C314 H321 0.929 . S
C315 O305 1.282 . S
C315 O316 1.216 . S
O316 C315 1.216 . S
H317 C312 0.930 . S
H318 C313 0.930 . S
O319 Cu299 1.959 . S
O319 C306 1.251 . S
H320 C303 0.930 . S
H321 C314 0.929 . S
Cu322 N323 1.999 . S
Cu322 O328 1.974 . S
Cu322 N333 1.985 . S
Cu322 O342 1.959 . S
N323 Cu322 1.999 . S
N323 C325 1.263 . S
N323 C327 1.389 . S
N324 C325 1.358 . S
N324 C326 1.400 . S
C325 N323 1.263 . S
C325 N324 1.358 . S
C325 H331 0.930 . S
C326 N324 1.400 . S
C326 C327 1.351 . S
C326 H343 0.930 . S
C327 N323 1.389 . S
C327 C326 1.351 . S
C327 H332 0.930 . S
O328 Cu322 1.974 . S
O328 C338 1.282 . S
C329 O330 1.261 . S
C329 O342 1.251 . S
O330 C329 1.261 . S
H331 C325 0.930 . S
H332 C327 0.930 . S
N333 Cu322 1.985 . S
N333 C335 1.335 . S
N333 C336 1.390 . S
N334 C335 1.345 . S
N334 C337 1.336 . S
C335 N333 1.335 . S
C335 N334 1.345 . S
C335 H340 0.930 . S
C336 N333 1.390 . S
C336 C337 1.346 . S
C336 H341 0.930 . S
C337 N334 1.336 . S
C337 C336 1.346 . S
C337 H344 0.929 . S
C338 O328 1.282 . S
C338 O339 1.216 . S
O339 C338 1.216 . S
H340 C335 0.930 . S
H341 C336 0.930 . S
O342 Cu322 1.959 . S
O342 C329 1.251 . S
H343 C326 0.930 . S
H344 C337 0.929 . S
Cu345 N346 1.999 . S
Cu345 O351 1.974 . S
Cu345 N356 1.985 . S
Cu345 O365 1.959 . S
N346 Cu345 1.999 . S
N346 C348 1.263 . S
N346 C350 1.389 . S
N347 C348 1.358 . S
N347 C349 1.400 . S
C348 N346 1.263 . S
C348 N347 1.358 . S
C348 H354 0.930 . S
C349 N347 1.400 . S
C349 C350 1.351 . S
C349 H366 0.930 . S
C350 N346 1.389 . S
C350 C349 1.351 . S
C350 H355 0.930 . S
O351 Cu345 1.974 . S
O351 C361 1.282 . S
C352 O353 1.261 . S
C352 O365 1.251 . S
O353 C352 1.261 . S
H354 C348 0.930 . S
H355 C350 0.930 . S
N356 Cu345 1.985 . S
N356 C358 1.335 . S
N356 C359 1.390 . S
N357 C358 1.345 . S
N357 C360 1.336 . S
C358 N356 1.335 . S
C358 N357 1.345 . S
C358 H363 0.930 . S
C359 N356 1.390 . S
C359 C360 1.346 . S
C359 H364 0.930 . S
C360 N357 1.336 . S
C360 C359 1.346 . S
C360 H367 0.929 . S
C361 O351 1.282 . S
C361 O362 1.216 . S
O362 C361 1.216 . S
H363 C358 0.930 . S
H364 C359 0.930 . S
O365 Cu345 1.959 . S
O365 C352 1.251 . S
H366 C349 0.930 . S
H367 C360 0.929 . S
Cu368 N369 1.999 . S
Cu368 O374 1.974 . S
Cu368 N379 1.985 . S
Cu368 O388 1.959 . S
N369 Cu368 1.999 . S
N369 C371 1.263 . S
N369 C373 1.389 . S
N370 C371 1.358 . S
N370 C372 1.400 . S
C371 N369 1.263 . S
C371 N370 1.358 . S
C371 H377 0.930 . S
C372 N370 1.400 . S
C372 C373 1.351 . S
C372 H389 0.930 . S
C373 N369 1.389 . S
C373 C372 1.351 . S
C373 H378 0.930 . S
O374 Cu368 1.974 . S
O374 C384 1.282 . S
C375 O376 1.261 . S
C375 O388 1.251 . S
O376 C375 1.261 . S
H377 C371 0.930 . S
H378 C373 0.930 . S
N379 Cu368 1.985 . S
N379 C381 1.335 . S
N379 C382 1.390 . S
N380 C381 1.345 . S
N380 C383 1.336 . S
C381 N379 1.335 . S
C381 N380 1.345 . S
C381 H386 0.930 . S
C382 N379 1.390 . S
C382 C383 1.346 . S
C382 H387 0.930 . S
C383 N380 1.336 . S
C383 C382 1.346 . S
C383 H390 0.929 . S
C384 O374 1.282 . S
C384 O385 1.216 . S
O385 C384 1.216 . S
H386 C381 0.930 . S
H387 C382 0.930 . S
O388 Cu368 1.959 . S
O388 C375 1.251 . S
H389 C372 0.930 . S
H390 C383 0.929 . S
Cu391 N392 1.999 . S
Cu391 O397 1.974 . S
Cu391 N402 1.985 . S
Cu391 O411 1.959 . S
N392 Cu391 1.999 . S
N392 C394 1.263 . S
N392 C396 1.389 . S
N393 C394 1.358 . S
N393 C395 1.400 . S
C394 N392 1.263 . S
C394 N393 1.358 . S
C394 H400 0.930 . S
C395 N393 1.400 . S
C395 C396 1.351 . S
C395 H412 0.930 . S
C396 N392 1.389 . S
C396 C395 1.351 . S
C396 H401 0.930 . S
O397 Cu391 1.974 . S
O397 C407 1.282 . S
C398 O399 1.261 . S
C398 O411 1.251 . S
O399 C398 1.261 . S
H400 C394 0.930 . S
H401 C396 0.930 . S
N402 Cu391 1.985 . S
N402 C404 1.335 . S
N402 C405 1.390 . S
N403 C404 1.345 . S
N403 C406 1.336 . S
C404 N402 1.335 . S
C404 N403 1.345 . S
C404 H409 0.930 . S
C405 N402 1.390 . S
C405 C406 1.346 . S
C405 H410 0.930 . S
C406 N403 1.336 . S
C406 C405 1.346 . S
C406 H413 0.929 . S
C407 O397 1.282 . S
C407 O408 1.216 . S
O408 C407 1.216 . S
H409 C404 0.930 . S
H410 C405 0.930 . S
O411 Cu391 1.959 . S
O411 C398 1.251 . S
H412 C395 0.930 . S
H413 C406 0.929 . S
Mn414 O419 2.095 . S
Mn414 O429 2.162 . S
Mn414 O430 2.297 . S
Mn414 O438 2.385 1_455 S
Mn414 O439 2.209 1_455 S
Mn414 O440 2.094 . S
Mn415 O420 2.121 . S
Mn415 N422 2.257 . S
Mn415 N431 2.282 . S
Mn415 O439 2.215 . S
Mn415 O441 2.117 . S
C416 O438 1.234 . S
C416 O439 1.283 . S
C417 O429 1.281 . S
C417 O430 1.236 . S
C418 O440 1.240 . S
C418 O441 1.264 1_455 S
O419 Mn414 2.095 . S
O419 C428 1.250 . S
O420 Mn415 2.121 . S
O420 C428 1.258 1_655 S
C421 N422 1.326 . S
C421 C425 1.460 . S
C421 H427 0.929 . S
N422 Mn415 2.257 . S
N422 C421 1.326 . S
N422 C426 1.362 . S
C423 C424 1.258 . S
C423 C426 1.431 . S
C423 C443 1.449 . S
C424 C423 1.258 . S
C424 C425 1.477 . S
C424 H444 0.931 . S
C425 C421 1.460 . S
C425 C424 1.477 . S
C425 H445 0.930 . S
C426 N422 1.362 . S
C426 C423 1.431 . S
C426 C436 1.476 . S
H427 C421 0.929 . S
C428 O419 1.250 . S
C428 O420 1.258 1_455 S
O429 Mn414 2.162 . S
O429 C417 1.281 . S
O430 Mn414 2.297 . S
O430 C417 1.236 . S
N431 Mn415 2.282 . S
N431 C432 1.328 . S
N431 C436 1.318 . S
C432 N431 1.328 . S
C432 C433 1.457 . S
C432 H437 0.929 . S
C433 C432 1.457 . S
C433 C434 1.291 . S
C433 H446 0.931 . S
C434 C433 1.291 . S
C434 C435 1.373 . S
C434 H447 0.929 . S
C435 C434 1.373 . S
C435 C436 1.396 . S
C435 C442 1.403 . S
C436 C426 1.476 . S
C436 N431 1.318 . S
C436 C435 1.396 . S
H437 C432 0.929 . S
O438 Mn414 2.385 1_655 S
O438 C416 1.234 . S
O439 Mn414 2.209 1_655 S
O439 Mn415 2.215 . S
O439 C416 1.283 . S
O440 Mn414 2.094 . S
O440 C418 1.240 . S
O441 Mn415 2.117 . S
O441 C418 1.264 1_655 S
C442 C435 1.403 . S
C442 C443 1.399 . S
C442 H448 0.929 . S
C443 C423 1.449 . S
C443 C442 1.399 . S
C443 H449 0.930 . S
H444 C424 0.931 . S
H445 C425 0.930 . S
H446 C433 0.931 . S
H447 C434 0.929 . S
H448 C442 0.929 . S
H449 C443 0.930 . S
Mn450 O455 2.095 . S
Mn450 O465 2.162 . S
Mn450 O466 2.297 . S
Mn450 O474 2.385 . S
Mn450 O475 2.209 . S
Mn450 O476 2.094 . S
Mn451 O456 2.121 . S
Mn451 N458 2.257 . S
Mn451 N467 2.282 . S
Mn451 O475 2.215 . S
Mn451 O477 2.117 . S
C452 O474 1.234 . S
C452 O475 1.283 . S
C453 O465 1.281 . S
C453 O466 1.236 . S
C454 O476 1.240 . S
C454 O477 1.264 . S
O455 Mn450 2.095 . S
O455 C464 1.250 . S
O456 Mn451 2.121 . S
O456 C464 1.258 . S
C457 N458 1.326 . S
C457 C461 1.460 . S
C457 H463 0.929 . S
N458 Mn451 2.257 . S
N458 C457 1.326 . S
N458 C462 1.362 . S
C459 C460 1.258 . S
C459 C462 1.431 . S
C459 C479 1.449 . S
C460 C459 1.258 . S
C460 C461 1.477 . S
C460 H480 0.931 . S
C461 C457 1.460 . S
C461 C460 1.477 . S
C461 H481 0.930 . S
C462 N458 1.362 . S
C462 C459 1.431 . S
C462 C472 1.476 . S
H463 C457 0.929 . S
C464 O455 1.250 . S
C464 O456 1.258 . S
O465 Mn450 2.162 . S
O465 C453 1.281 . S
O466 Mn450 2.297 . S
O466 C453 1.236 . S
N467 Mn451 2.282 . S
N467 C468 1.328 . S
N467 C472 1.318 . S
C468 N467 1.328 . S
C468 C469 1.457 . S
C468 H473 0.929 . S
C469 C468 1.457 . S
C469 C470 1.291 . S
C469 H482 0.931 . S
C470 C469 1.291 . S
C470 C471 1.373 . S
C470 H483 0.929 . S
C471 C470 1.373 . S
C471 C472 1.396 . S
C471 C478 1.403 . S
C472 C462 1.476 . S
C472 N467 1.318 . S
C472 C471 1.396 . S
H473 C468 0.929 . S
O474 Mn450 2.385 . S
O474 C452 1.234 . S
O475 Mn450 2.209 . S
O475 Mn451 2.215 . S
O475 C452 1.283 . S
O476 Mn450 2.094 . S
O476 C454 1.240 . S
O477 Mn451 2.117 . S
O477 C454 1.264 . S
C478 C471 1.403 . S
C478 C479 1.399 . S
C478 H484 0.929 . S
C479 C459 1.449 . S
C479 C478 1.399 . S
C479 H485 0.930 . S
H480 C460 0.931 . S
H481 C461 0.930 . S
H482 C469 0.931 . S
H483 C470 0.929 . S
H484 C478 0.929 . S
H485 C479 0.930 . S
Mn486 O491 2.095 . S
Mn486 O501 2.162 . S
Mn486 O502 2.297 . S
Mn486 O510 2.385 . S
Mn486 O511 2.209 . S
Mn486 O512 2.094 . S
Mn487 O492 2.121 . S
Mn487 N494 2.257 . S
Mn487 N503 2.282 . S
Mn487 O511 2.215 . S
Mn487 O513 2.117 . S
C488 O510 1.234 . S
C488 O511 1.283 . S
C489 O501 1.281 . S
C489 O502 1.236 . S
C490 O512 1.240 . S
C490 O513 1.264 . S
O491 Mn486 2.095 . S
O491 C500 1.250 . S
O492 Mn487 2.121 . S
O492 C500 1.258 . S
C493 N494 1.326 . S
C493 C497 1.460 . S
C493 H499 0.929 . S
N494 Mn487 2.257 . S
N494 C493 1.326 . S
N494 C498 1.362 . S
C495 C496 1.258 . S
C495 C498 1.431 . S
C495 C515 1.449 . S
C496 C495 1.258 . S
C496 C497 1.477 . S
C496 H516 0.931 . S
C497 C493 1.460 . S
C497 C496 1.477 . S
C497 H517 0.930 . S
C498 N494 1.362 . S
C498 C495 1.431 . S
C498 C508 1.476 . S
H499 C493 0.929 . S
C500 O491 1.250 . S
C500 O492 1.258 . S
O501 Mn486 2.162 . S
O501 C489 1.281 . S
O502 Mn486 2.297 . S
O502 C489 1.236 . S
N503 Mn487 2.282 . S
N503 C504 1.328 . S
N503 C508 1.318 . S
C504 N503 1.328 . S
C504 C505 1.457 . S
C504 H509 0.929 . S
C505 C504 1.457 . S
C505 C506 1.291 . S
C505 H518 0.931 . S
C506 C505 1.291 . S
C506 C507 1.373 . S
C506 H519 0.929 . S
C507 C506 1.373 . S
C507 C508 1.396 . S
C507 C514 1.403 . S
C508 C498 1.476 . S
C508 N503 1.318 . S
C508 C507 1.396 . S
H509 C504 0.929 . S
O510 Mn486 2.385 . S
O510 C488 1.234 . S
O511 Mn486 2.209 . S
O511 Mn487 2.215 . S
O511 C488 1.283 . S
O512 Mn486 2.094 . S
O512 C490 1.240 . S
O513 Mn487 2.117 . S
O513 C490 1.264 . S
C514 C507 1.403 . S
C514 C515 1.399 . S
C514 H520 0.929 . S
C515 C495 1.449 . S
C515 C514 1.399 . S
C515 H521 0.930 . S
H516 C496 0.931 . S
H517 C497 0.930 . S
H518 C505 0.931 . S
H519 C506 0.929 . S
H520 C514 0.929 . S
H521 C515 0.930 . S
Mn522 O527 2.095 . S
Mn522 O537 2.162 1_455 S
Mn522 O538 2.297 . S
Mn522 O546 2.385 . S
Mn522 O547 2.209 . S
Mn522 O548 2.094 1_455 S
Mn523 O528 2.121 . S
Mn523 N530 2.257 . S
Mn523 N539 2.282 . S
Mn523 O547 2.215 . S
Mn523 O549 2.117 1_455 S
C524 O546 1.234 . S
C524 O547 1.283 . S
C525 O537 1.281 1_455 S
C525 O538 1.236 . S
C526 O548 1.240 . S
C526 O549 1.264 . S
O527 Mn522 2.095 . S
O527 C536 1.250 . S
O528 Mn523 2.121 . S
O528 C536 1.258 . S
C529 N530 1.326 . S
C529 C533 1.460 . S
C529 H535 0.929 . S
N530 Mn523 2.257 . S
N530 C529 1.326 . S
N530 C534 1.362 . S
C531 C532 1.258 . S
C531 C534 1.431 . S
C531 C551 1.449 . S
C532 C531 1.258 . S
C532 C533 1.477 . S
C532 H552 0.931 . S
C533 C529 1.460 . S
C533 C532 1.477 . S
C533 H553 0.930 . S
C534 N530 1.362 . S
C534 C531 1.431 . S
C534 C544 1.476 . S
H535 C529 0.929 . S
C536 O527 1.250 . S
C536 O528 1.258 . S
O537 Mn522 2.162 1_655 S
O537 C525 1.281 1_655 S
O538 Mn522 2.297 . S
O538 C525 1.236 . S
N539 Mn523 2.282 . S
N539 C540 1.328 . S
N539 C544 1.318 . S
C540 N539 1.328 . S
C540 C541 1.457 . S
C540 H545 0.929 . S
C541 C540 1.457 . S
C541 C542 1.291 . S
C541 H554 0.931 . S
C542 C541 1.291 . S
C542 C543 1.373 . S
C542 H555 0.929 . S
C543 C542 1.373 . S
C543 C544 1.396 . S
C543 C550 1.403 . S
C544 C534 1.476 . S
C544 N539 1.318 . S
C544 C543 1.396 . S
H545 C540 0.929 . S
O546 Mn522 2.385 . S
O546 C524 1.234 . S
O547 Mn522 2.209 . S
O547 Mn523 2.215 . S
O547 C524 1.283 . S
O548 Mn522 2.094 1_655 S
O548 C526 1.240 . S
O549 Mn523 2.117 1_655 S
O549 C526 1.264 . S
C550 C543 1.403 . S
C550 C551 1.399 . S
C550 H556 0.929 . S
C551 C531 1.449 . S
C551 C550 1.399 . S
C551 H557 0.930 . S
H552 C532 0.931 . S
H553 C533 0.930 . S
H554 C541 0.931 . S
H555 C542 0.929 . S
H556 C550 0.929 . S
H557 C551 0.930 . S
Mn558 O563 2.095 . S
Mn558 O573 2.162 . S
Mn558 O574 2.297 . S
Mn558 O582 2.385 . S
Mn558 O583 2.209 . S
Mn558 O584 2.094 . S
Mn559 O564 2.121 . S
Mn559 N566 2.257 . S
Mn559 N575 2.282 . S
Mn559 O583 2.215 . S
Mn559 O585 2.117 . S
C560 O582 1.234 . S
C560 O583 1.283 . S
C561 O573 1.281 . S
C561 O574 1.236 . S
C562 O584 1.240 . S
C562 O585 1.264 . S
O563 Mn558 2.095 . S
O563 C572 1.250 . S
O564 Mn559 2.121 . S
O564 C572 1.258 . S
C565 N566 1.326 . S
C565 C569 1.460 . S
C565 H571 0.929 . S
N566 Mn559 2.257 . S
N566 C565 1.326 . S
N566 C570 1.362 . S
C567 C568 1.258 . S
C567 C570 1.431 . S
C567 C587 1.449 . S
C568 C567 1.258 . S
C568 C569 1.477 . S
C568 H588 0.931 . S
C569 C565 1.460 . S
C569 C568 1.477 . S
C569 H589 0.930 . S
C570 N566 1.362 . S
C570 C567 1.431 . S
C570 C580 1.476 . S
H571 C565 0.929 . S
C572 O563 1.250 . S
C572 O564 1.258 . S
O573 Mn558 2.162 . S
O573 C561 1.281 . S
O574 Mn558 2.297 . S
O574 C561 1.236 . S
N575 Mn559 2.282 . S
N575 C576 1.328 . S
N575 C580 1.318 . S
C576 N575 1.328 . S
C576 C577 1.457 . S
C576 H581 0.929 . S
C577 C576 1.457 . S
C577 C578 1.291 . S
C577 H590 0.931 . S
C578 C577 1.291 . S
C578 C579 1.373 . S
C578 H591 0.929 . S
C579 C578 1.373 . S
C579 C580 1.396 . S
C579 C586 1.403 . S
C580 C570 1.476 . S
C580 N575 1.318 . S
C580 C579 1.396 . S
H581 C576 0.929 . S
O582 Mn558 2.385 . S
O582 C560 1.234 . S
O583 Mn558 2.209 . S
O583 Mn559 2.215 . S
O583 C560 1.283 . S
O584 Mn558 2.094 . S
O584 C562 1.240 . S
O585 Mn559 2.117 . S
O585 C562 1.264 . S
C586 C579 1.403 . S
C586 C587 1.399 . S
C586 H592 0.929 . S
C587 C567 1.449 . S
C587 C586 1.399 . S
C587 H593 0.930 . S
H588 C568 0.931 . S
H589 C569 0.930 . S
H590 C577 0.931 . S
H591 C578 0.929 . S
H592 C586 0.929 . S
H593 C587 0.930 . S
Mn594 O599 2.095 . S
Mn594 O609 2.162 . S
Mn594 O610 2.297 1_545 S
Mn594 O618 2.385 . S
Mn594 O619 2.209 1_545 S
Mn594 O620 2.094 . S
Mn595 O600 2.121 . S
Mn595 N602 2.257 1_545 S
Mn595 N611 2.283 1_545 S
Mn595 O619 2.215 1_545 S
Mn595 O621 2.117 . S
C596 O618 1.234 1_565 S
C596 O619 1.283 . S
C597 O609 1.281 . S
C597 O610 1.236 1_545 S
C598 O620 1.240 . S
C598 O621 1.264 . S
O599 Mn594 2.095 . S
O599 C608 1.250 . S
O600 Mn595 2.121 . S
O600 C608 1.258 . S
C601 N602 1.326 . S
C601 C605 1.460 . S
C601 H607 0.929 . S
N602 Mn595 2.257 1_565 S
N602 C601 1.326 . S
N602 C606 1.362 . S
C603 C604 1.258 . S
C603 C606 1.431 . S
C603 C623 1.449 . S
C604 C603 1.258 . S
C604 C605 1.477 . S
C604 H624 0.931 . S
C605 C601 1.460 . S
C605 C604 1.477 . S
C605 H625 0.930 . S
C606 N602 1.362 . S
C606 C603 1.431 . S
C606 C616 1.476 . S
H607 C601 0.929 . S
C608 O599 1.250 . S
C608 O600 1.258 . S
O609 Mn594 2.162 . S
O609 C597 1.281 . S
O610 Mn594 2.297 1_565 S
O610 C597 1.236 1_565 S
N611 Mn595 2.283 1_565 S
N611 C612 1.326 1_565 S
N611 C616 1.319 . S
C612 N611 1.326 1_545 S
C612 C613 1.457 . S
C612 H617 0.929 . S
C613 C612 1.457 . S
C613 C614 1.291 1_545 S
C613 H626 0.931 . S
C614 C613 1.291 1_565 S
C614 C615 1.373 . S
C614 H627 0.929 . S
C615 C614 1.373 . S
C615 C616 1.396 . S
C615 C622 1.403 . S
C616 C606 1.476 . S
C616 N611 1.319 . S
C616 C615 1.396 . S
H617 C612 0.929 . S
O618 Mn594 2.385 . S
O618 C596 1.234 1_545 S
O619 Mn594 2.209 1_565 S
O619 Mn595 2.215 1_565 S
O619 C596 1.283 . S
O620 Mn594 2.094 . S
O620 C598 1.240 . S
O621 Mn595 2.117 . S
O621 C598 1.264 . S
C622 C615 1.403 . S
C622 C623 1.399 . S
C622 H628 0.929 . S
C623 C603 1.449 . S
C623 C622 1.399 . S
C623 H629 0.930 . S
H624 C604 0.931 . S
H625 C605 0.930 . S
H626 C613 0.931 . S
H627 C614 0.929 . S
H628 C622 0.929 . S
H629 C623 0.930 . S
Mn630 O635 2.095 1_545 S
Mn630 O645 2.162 . S
Mn630 O646 2.297 . S
Mn630 O654 2.385 . S
Mn630 O655 2.209 1_545 S
Mn630 O656 2.094 1_545 S
Mn631 O636 2.121 . S
Mn631 N638 2.257 . S
Mn631 N647 2.282 . S
Mn631 O655 2.215 . S
Mn631 O657 2.117 . S
C632 O654 1.234 . S
C632 O655 1.283 1_545 S
C633 O645 1.281 . S
C633 O646 1.236 . S
C634 O656 1.240 . S
C634 O657 1.264 . S
O635 Mn630 2.095 1_565 S
O635 C644 1.250 . S
O636 Mn631 2.121 . S
O636 C644 1.258 . S
C637 N638 1.326 . S
C637 C641 1.460 . S
C637 H643 0.929 . S
N638 Mn631 2.257 . S
N638 C637 1.326 . S
N638 C642 1.362 . S
C639 C640 1.258 . S
C639 C642 1.431 . S
C639 C659 1.449 . S
C640 C639 1.258 . S
C640 C641 1.477 . S
C640 H660 0.931 . S
C641 C637 1.460 . S
C641 C640 1.477 . S
C641 H661 0.930 . S
C642 N638 1.362 . S
C642 C639 1.431 . S
C642 C652 1.476 . S
H643 C637 0.929 . S
C644 O635 1.250 . S
C644 O636 1.258 . S
O645 Mn630 2.162 . S
O645 C633 1.281 . S
O646 Mn630 2.297 . S
O646 C633 1.236 . S
N647 Mn631 2.282 . S
N647 C648 1.328 . S
N647 C652 1.318 . S
C648 N647 1.328 . S
C648 C649 1.457 . S
C648 H653 0.929 . S
C649 C648 1.457 . S
C649 C650 1.291 . S
C649 H662 0.931 . S
C650 C649 1.291 . S
C650 C651 1.373 . S
C650 H663 0.929 . S
C651 C650 1.373 . S
C651 C652 1.396 . S
C651 C658 1.403 . S
C652 C642 1.476 . S
C652 N647 1.318 . S
C652 C651 1.396 . S
H653 C648 0.929 . S
O654 Mn630 2.385 . S
O654 C632 1.234 . S
O655 Mn630 2.209 1_565 S
O655 Mn631 2.215 . S
O655 C632 1.283 1_565 S
O656 Mn630 2.094 1_565 S
O656 C634 1.240 . S
O657 Mn631 2.117 . S
O657 C634 1.264 . S
C658 C651 1.403 . S
C658 C659 1.399 . S
C658 H664 0.929 . S
C659 C639 1.449 . S
C659 C658 1.399 . S
C659 H665 0.930 . S
H660 C640 0.931 . S
H661 C641 0.930 . S
H662 C649 0.931 . S
H663 C650 0.929 . S
H664 C658 0.929 . S
H665 C659 0.930 . S
Mn666 O671 2.095 . S
Mn666 O681 2.162 . S
Mn666 O682 2.297 . S
Mn666 O690 2.385 . S
Mn666 O691 2.209 . S
Mn666 O692 2.094 . S
Mn667 O672 2.121 . S
Mn667 N674 2.257 . S
Mn667 N683 2.282 . S
Mn667 O691 2.215 . S
Mn667 O693 2.117 . S
C668 O690 1.234 . S
C668 O691 1.283 . S
C669 O681 1.281 . S
C669 O682 1.236 . S
C670 O692 1.240 . S
C670 O693 1.264 . S
O671 Mn666 2.095 . S
O671 C680 1.250 . S
O672 Mn667 2.121 . S
O672 C680 1.258 . S
C673 N674 1.326 . S
C673 C677 1.460 1_455 S
C673 H679 0.929 . S
N674 Mn667 2.257 . S
N674 C673 1.326 . S
N674 C678 1.362 1_455 S
C675 C676 1.258 . S
C675 C678 1.431 . S
C675 C695 1.449 . S
C676 C675 1.258 . S
C676 C677 1.477 . S
C676 H696 0.931 . S
C677 C673 1.460 1_655 S
C677 C676 1.477 . S
C677 H697 0.930 . S
C678 N674 1.362 1_655 S
C678 C675 1.431 . S
C678 C688 1.476 . S
H679 C673 0.929 . S
C680 O671 1.250 . S
C680 O672 1.258 . S
O681 Mn666 2.162 . S
O681 C669 1.281 . S
O682 Mn666 2.297 . S
O682 C669 1.236 . S
N683 Mn667 2.282 . S
N683 C684 1.328 . S
N683 C688 1.318 1_455 S
C684 N683 1.328 . S
C684 C685 1.457 1_455 S
C684 H689 0.929 . S
C685 C684 1.457 1_655 S
C685 C686 1.291 . S
C685 H698 0.931 . S
C686 C685 1.291 . S
C686 C687 1.373 . S
C686 H699 0.929 . S
C687 C686 1.373 . S
C687 C688 1.396 . S
C687 C694 1.403 . S
C688 C678 1.476 . S
C688 N683 1.318 1_655 S
C688 C687 1.396 . S
H689 C684 0.929 . S
O690 Mn666 2.385 . S
O690 C668 1.234 . S
O691 Mn666 2.209 . S
O691 Mn667 2.215 . S
O691 C668 1.283 . S
O692 Mn666 2.094 . S
O692 C670 1.240 . S
O693 Mn667 2.117 . S
O693 C670 1.264 . S
C694 C687 1.403 . S
C694 C695 1.399 . S
C694 H700 0.929 . S
C695 C675 1.449 . S
C695 C694 1.399 . S
C695 H701 0.930 . S
H696 C676 0.931 . S
H697 C677 0.930 . S
H698 C685 0.931 . S
H699 C686 0.929 . S
H700 C694 0.929 . S
H701 C695 0.930 . S
Mn702 O707 2.095 . S
Mn702 O717 2.162 . S
Mn702 O718 2.297 . S
Mn702 O726 2.385 . S
Mn702 O727 2.209 . S
Mn702 O728 2.094 . S
Mn703 O708 2.121 . S
Mn703 N710 2.257 . S
Mn703 N719 2.282 . S
Mn703 O727 2.215 . S
Mn703 O729 2.117 . S
C704 O726 1.234 . S
C704 O727 1.283 . S
C705 O717 1.281 . S
C705 O718 1.236 . S
C706 O728 1.240 . S
C706 O729 1.264 . S
O707 Mn702 2.095 . S
O707 C716 1.250 . S
O708 Mn703 2.121 . S
O708 C716 1.258 . S
C709 N710 1.326 . S
C709 C713 1.460 . S
C709 H715 0.929 . S
N710 Mn703 2.257 . S
N710 C709 1.326 . S
N710 C714 1.362 . S
C711 C712 1.258 . S
C711 C714 1.431 . S
C711 C731 1.449 . S
C712 C711 1.258 . S
C712 C713 1.477 . S
C712 H732 0.931 . S
C713 C709 1.460 . S
C713 C712 1.477 . S
C713 H733 0.930 . S
C714 N710 1.362 . S
C714 C711 1.431 . S
C714 C724 1.476 . S
H715 C709 0.929 . S
C716 O707 1.250 . S
C716 O708 1.258 . S
O717 Mn702 2.162 . S
O717 C705 1.281 . S
O718 Mn702 2.297 . S
O718 C705 1.236 . S
N719 Mn703 2.282 . S
N719 C720 1.328 . S
N719 C724 1.318 . S
C720 N719 1.328 . S
C720 C721 1.457 . S
C720 H725 0.929 . S
C721 C720 1.457 . S
C721 C722 1.291 . S
C721 H734 0.931 . S
C722 C721 1.291 . S
C722 C723 1.373 . S
C722 H735 0.929 . S
C723 C722 1.373 . S
C723 C724 1.396 . S
C723 C730 1.403 . S
C724 C714 1.476 . S
C724 N719 1.318 . S
C724 C723 1.396 . S
H725 C720 0.929 . S
O726 Mn702 2.385 . S
O726 C704 1.234 . S
O727 Mn702 2.209 . S
O727 Mn703 2.215 . S
O727 C704 1.283 . S
O728 Mn702 2.094 . S
O728 C706 1.240 . S
O729 Mn703 2.117 . S
O729 C706 1.264 . S
C730 C723 1.403 . S
C730 C731 1.399 . S
C730 H736 0.929 . S
C731 C711 1.449 . S
C731 C730 1.399 . S
C731 H737 0.930 . S
H732 C712 0.931 . S
H733 C713 0.930 . S
H734 C721 0.931 . S
H735 C722 0.929 . S
H736 C730 0.929 . S
H737 C731 0.930 . S
Mn738 O743 2.095 . S
Mn738 O753 2.162 . S
Mn738 O754 2.297 . S
Mn738 O762 2.385 . S
Mn738 O763 2.209 . S
Mn738 O764 2.094 . S
Mn739 O744 2.121 . S
Mn739 N746 2.257 . S
Mn739 N755 2.282 . S
Mn739 O763 2.215 . S
Mn739 O765 2.117 . S
C740 O762 1.234 . S
C740 O763 1.283 . S
C741 O753 1.281 . S
C741 O754 1.236 . S
C742 O764 1.240 . S
C742 O765 1.264 . S
O743 Mn738 2.095 . S
O743 C752 1.250 . S
O744 Mn739 2.121 . S
O744 C752 1.258 . S
C745 N746 1.326 1_556 S
C745 C749 1.460 . S
C745 H751 0.929 . S
N746 Mn739 2.257 . S
N746 C745 1.326 1_554 S
N746 C750 1.362 . S
C747 C748 1.276 . S
C747 C750 1.419 1_556 S
C747 C767 1.444 1_556 S
C748 C747 1.276 . S
C748 C749 1.477 . S
C748 H768 0.931 . S
C749 C745 1.460 . S
C749 C748 1.477 . S
C749 H769 0.930 . S
C750 N746 1.362 . S
C750 C747 1.419 1_554 S
C750 C760 1.476 . S
H751 C745 0.929 . S
C752 O743 1.250 . S
C752 O744 1.258 . S
O753 Mn738 2.162 . S
O753 C741 1.281 . S
O754 Mn738 2.297 . S
O754 C741 1.236 . S
N755 Mn739 2.282 . S
N755 C756 1.328 . S
N755 C760 1.318 . S
C756 N755 1.328 . S
C756 C757 1.457 . S
C756 H761 0.929 . S
C757 C756 1.457 . S
C757 C758 1.291 . S
C757 H770 0.931 . S
C758 C757 1.291 . S
C758 C759 1.373 . S
C758 H771 0.929 . S
C759 C758 1.373 . S
C759 C760 1.396 . S
C759 C766 1.403 . S
C760 C750 1.476 . S
C760 N755 1.318 . S
C760 C759 1.396 . S
H761 C756 0.929 . S
O762 Mn738 2.385 . S
O762 C740 1.234 . S
O763 Mn738 2.209 . S
O763 Mn739 2.215 . S
O763 C740 1.283 . S
O764 Mn738 2.094 . S
O764 C742 1.240 . S
O765 Mn739 2.117 . S
O765 C742 1.264 . S
C766 C759 1.403 . S
C766 C767 1.399 . S
C766 H772 0.929 . S
C767 C747 1.444 1_554 S
C767 C766 1.399 . S
C767 H773 0.930 1_554 S
H768 C748 0.931 . S
H769 C749 0.930 . S
H770 C757 0.931 . S
H771 C758 0.929 . S
H772 C766 0.929 . S
H773 C767 0.930 1_556 S
Mn774 O779 2.095 . S
Mn774 O789 2.162 . S
Mn774 O790 2.297 . S
Mn774 O798 2.385 1_565 S
Mn774 O799 2.209 . S
Mn774 O800 2.094 1_565 S
Mn775 O780 2.121 1_545 S
Mn775 N782 2.257 1_545 S
Mn775 N791 2.282 . S
Mn775 O799 2.215 1_545 S
Mn775 O801 2.117 . S
C776 O798 1.234 1_565 S
C776 O799 1.283 . S
C777 O789 1.281 . S
C777 O790 1.236 . S
C778 O800 1.240 . S
C778 O801 1.264 . S
O779 Mn774 2.095 . S
O779 C788 1.250 . S
O780 Mn775 2.121 1_565 S
O780 C788 1.258 . S
C781 N782 1.326 . S
C781 C785 1.460 . S
C781 H787 0.929 . S
N782 Mn775 2.257 1_565 S
N782 C781 1.326 . S
N782 C786 1.362 . S
C783 C784 1.258 . S
C783 C786 1.431 . S
C783 C803 1.449 . S
C784 C783 1.258 . S
C784 C785 1.477 . S
C784 H804 0.931 . S
C785 C781 1.460 . S
C785 C784 1.477 . S
C785 H805 0.930 . S
C786 N782 1.362 . S
C786 C783 1.431 . S
C786 C796 1.476 1_565 S
H787 C781 0.929 . S
C788 O779 1.250 . S
C788 O780 1.258 . S
O789 Mn774 2.162 . S
O789 C777 1.281 . S
O790 Mn774 2.297 . S
O790 C777 1.236 . S
N791 Mn775 2.282 . S
N791 C792 1.328 . S
N791 C796 1.318 . S
C792 N791 1.328 . S
C792 C793 1.457 . S
C792 H797 0.929 . S
C793 C792 1.457 . S
C793 C794 1.291 . S
C793 H806 0.931 . S
C794 C793 1.291 . S
C794 C795 1.373 . S
C794 H807 0.929 . S
C795 C794 1.373 . S
C795 C796 1.396 . S
C795 C802 1.403 . S
C796 C786 1.476 1_545 S
C796 N791 1.318 . S
C796 C795 1.396 . S
H797 C792 0.929 . S
O798 Mn774 2.385 1_545 S
O798 C776 1.234 1_545 S
O799 Mn774 2.209 . S
O799 Mn775 2.215 1_565 S
O799 C776 1.283 . S
O800 Mn774 2.094 1_545 S
O800 C778 1.240 . S
O801 Mn775 2.117 . S
O801 C778 1.264 . S
C802 C795 1.403 . S
C802 C803 1.399 1_545 S
C802 H808 0.929 . S
C803 C783 1.449 . S
C803 C802 1.399 1_565 S
C803 H809 0.930 . S
H804 C784 0.931 . S
H805 C785 0.930 . S
H806 C793 0.931 . S
H807 C794 0.929 . S
H808 C802 0.929 . S
H809 C803 0.930 . S
Mn810 O815 2.095 . S
Mn810 O825 2.162 . S
Mn810 O826 2.297 . S
Mn810 O834 2.385 . S
Mn810 O835 2.209 . S
Mn810 O836 2.094 . S
Mn811 O816 2.121 . S
Mn811 N818 2.257 1_455 S
Mn811 N827 2.282 1_455 S
Mn811 O835 2.215 . S
Mn811 O837 2.117 . S
C812 O834 1.234 1_655 S
C812 O835 1.283 1_655 S
C813 O825 1.281 . S
C813 O826 1.236 . S
C814 O836 1.240 . S
C814 O837 1.264 . S
O815 Mn810 2.095 . S
O815 C824 1.250 . S
O816 Mn811 2.121 . S
O816 C824 1.258 . S
C817 N818 1.326 . S
C817 C821 1.460 1_554 S
C817 H823 0.948 . S
N818 Mn811 2.257 1_655 S
N818 C817 1.326 . S
N818 C822 1.362 . S
C819 C820 1.255 1_554 S
C819 C822 1.431 . S
C819 C839 1.449 . S
C820 C819 1.255 1_556 S
C820 C821 1.478 . S
C820 H840 0.933 . S
C821 C817 1.460 1_556 S
C821 C820 1.478 . S
C821 H841 0.930 . S
C822 N818 1.362 . S
C822 C819 1.431 . S
C822 C832 1.476 . S
H823 C817 0.948 . S
C824 O815 1.250 . S
C824 O816 1.258 . S
O825 Mn810 2.162 . S
O825 C813 1.281 . S
O826 Mn810 2.297 . S
O826 C813 1.236 . S
N827 Mn811 2.282 1_655 S
N827 C828 1.328 . S
N827 C832 1.318 . S
C828 N827 1.328 . S
C828 C829 1.457 . S
C828 H833 0.929 . S
C829 C828 1.457 . S
C829 C830 1.291 . S
C829 H842 0.931 . S
C830 C829 1.291 . S
C830 C831 1.373 . S
C830 H843 0.929 . S
C831 C830 1.373 . S
C831 C832 1.396 . S
C831 C838 1.403 . S
C832 C822 1.476 . S
C832 N827 1.318 . S
C832 C831 1.396 . S
H833 C828 0.929 . S
O834 Mn810 2.385 . S
O834 C812 1.234 1_455 S
O835 Mn810 2.209 . S
O835 Mn811 2.215 . S
O835 C812 1.283 1_455 S
O836 Mn810 2.094 . S
O836 C814 1.240 . S
O837 Mn811 2.117 . S
O837 C814 1.264 . S
C838 C831 1.403 . S
C838 C839 1.399 . S
C838 H844 0.929 . S
C839 C819 1.449 . S
C839 C838 1.399 . S
C839 H845 0.930 . S
H840 C820 0.933 . S
H841 C821 0.930 . S
H842 C829 0.931 . S
H843 C830 0.929 . S
H844 C838 0.929 . S
H845 C839 0.930 . S
Mn846 O851 2.095 . S
Mn846 O861 2.162 . S
Mn846 O862 2.297 . S
Mn846 O870 2.385 . S
Mn846 O871 2.209 . S
Mn846 O872 2.094 . S
Mn847 O852 2.121 . S
Mn847 N854 2.257 . S
Mn847 N863 2.282 . S
Mn847 O871 2.215 . S
Mn847 O873 2.117 . S
C848 O870 1.234 . S
C848 O871 1.283 . S
C849 O861 1.281 . S
C849 O862 1.236 . S
C850 O872 1.240 . S
C850 O873 1.264 . S
O851 Mn846 2.095 . S
O851 C860 1.250 . S
O852 Mn847 2.121 . S
O852 C860 1.258 . S
C853 N854 1.326 1_554 S
C853 C857 1.460 . S
C853 H859 0.929 . S
N854 Mn847 2.257 . S
N854 C853 1.326 1_556 S
N854 C858 1.362 . S
C855 C856 1.258 . S
C855 C858 1.431 . S
C855 C875 1.449 . S
C856 C855 1.258 . S
C856 C857 1.477 1_556 S
C856 H876 0.931 1_556 S
C857 C853 1.460 . S
C857 C856 1.477 1_554 S
C857 H877 0.930 . S
C858 N854 1.362 . S
C858 C855 1.431 . S
C858 C868 1.476 . S
H859 C853 0.929 . S
C860 O851 1.250 . S
C860 O852 1.258 . S
O861 Mn846 2.162 . S
O861 C849 1.281 . S
O862 Mn846 2.297 . S
O862 C849 1.236 . S
N863 Mn847 2.282 . S
N863 C864 1.328 . S
N863 C868 1.318 . S
C864 N863 1.328 . S
C864 C865 1.457 . S
C864 H869 0.929 . S
C865 C864 1.457 . S
C865 C866 1.291 . S
C865 H878 0.931 . S
C866 C865 1.291 . S
C866 C867 1.373 . S
C866 H879 0.929 . S
C867 C866 1.373 . S
C867 C868 1.396 . S
C867 C874 1.403 . S
C868 C858 1.476 . S
C868 N863 1.318 . S
C868 C867 1.396 . S
H869 C864 0.929 . S
O870 Mn846 2.385 . S
O870 C848 1.234 . S
O871 Mn846 2.209 . S
O871 Mn847 2.215 . S
O871 C848 1.283 . S
O872 Mn846 2.094 . S
O872 C850 1.240 . S
O873 Mn847 2.117 . S
O873 C850 1.264 . S
C874 C867 1.403 . S
C874 C875 1.399 . S
C874 H880 0.929 . S
C875 C855 1.449 . S
C875 C874 1.399 . S
C875 H881 0.930 . S
H876 C856 0.931 1_554 S
H877 C857 0.930 . S
H878 C865 0.931 . S
H879 C866 0.929 . S
H880 C874 0.929 . S
H881 C875 0.930 . S
Mn882 O887 2.095 . S
Mn882 O897 2.162 . S
Mn882 O898 2.297 . S
Mn882 O906 2.385 . S
Mn882 O907 2.209 . S
Mn882 O908 2.094 . S
Mn883 O888 2.121 . S
Mn883 N890 2.257 . S
Mn883 N899 2.282 . S
Mn883 O907 2.215 . S
Mn883 O909 2.117 . S
C884 O906 1.234 . S
C884 O907 1.283 . S
C885 O897 1.281 . S
C885 O898 1.236 . S
C886 O908 1.240 . S
C886 O909 1.264 . S
O887 Mn882 2.095 . S
O887 C896 1.250 . S
O888 Mn883 2.121 . S
O888 C896 1.258 . S
C889 N890 1.326 . S
C889 C893 1.460 . S
C889 H895 0.929 . S
N890 Mn883 2.257 . S
N890 C889 1.326 . S
N890 C894 1.362 . S
C891 C892 1.258 . S
C891 C894 1.431 . S
C891 C911 1.449 . S
C892 C891 1.258 . S
C892 C893 1.477 . S
C892 H912 0.931 . S
C893 C889 1.460 . S
C893 C892 1.477 . S
C893 H913 0.930 . S
C894 N890 1.362 . S
C894 C891 1.431 . S
C894 C904 1.476 . S
H895 C889 0.929 . S
C896 O887 1.250 . S
C896 O888 1.258 . S
O897 Mn882 2.162 . S
O897 C885 1.281 . S
O898 Mn882 2.297 . S
O898 C885 1.236 . S
N899 Mn883 2.282 . S
N899 C900 1.328 1_556 S
N899 C904 1.318 . S
C900 N899 1.328 1_554 S
C900 C901 1.457 . S
C900 H905 0.929 . S
C901 C900 1.457 . S
C901 C902 1.291 . S
C901 H914 0.931 . S
C902 C901 1.291 . S
C902 C903 1.373 1_554 S
C902 H915 0.929 . S
C903 C902 1.373 1_556 S
C903 C904 1.396 . S
C903 C910 1.403 . S
C904 C894 1.476 . S
C904 N899 1.318 . S
C904 C903 1.396 . S
H905 C900 0.929 . S
O906 Mn882 2.385 . S
O906 C884 1.234 . S
O907 Mn882 2.209 . S
O907 Mn883 2.215 . S
O907 C884 1.283 . S
O908 Mn882 2.094 . S
O908 C886 1.240 . S
O909 Mn883 2.117 . S
O909 C886 1.264 . S
C910 C903 1.403 . S
C910 C911 1.399 . S
C910 H916 0.929 . S
C911 C891 1.449 . S
C911 C910 1.399 . S
C911 H917 0.930 . S
H912 C892 0.931 . S
H913 C893 0.930 . S
H914 C901 0.931 . S
H915 C902 0.929 . S
H916 C910 0.929 . S
H917 C911 0.930 . S
Mn918 O923 2.095 . S
Mn918 O933 2.162 . S
Mn918 O934 2.297 1_655 S
Mn918 O942 2.385 1_655 S
Mn918 O943 2.209 1_655 S
Mn918 O944 2.094 . S
Mn919 O924 2.121 . S
Mn919 N926 2.257 . S
Mn919 N935 2.282 . S
Mn919 O943 2.215 1_655 S
Mn919 O945 2.117 . S
C920 O942 1.234 . S
C920 O943 1.283 . S
C921 O933 1.281 . S
C921 O934 1.236 1_655 S
C922 O944 1.240 . S
C922 O945 1.264 . S
O923 Mn918 2.095 . S
O923 C932 1.250 . S
O924 Mn919 2.121 . S
O924 C932 1.258 . S
C925 N926 1.326 . S
C925 C929 1.460 1_655 S
C925 H931 0.929 . S
N926 Mn919 2.257 . S
N926 C925 1.326 . S
N926 C930 1.362 1_655 S
C927 C928 1.258 . S
C927 C930 1.431 . S
C927 C947 1.449 . S
C928 C927 1.258 . S
C928 C929 1.477 . S
C928 H948 0.931 . S
C929 C925 1.460 1_455 S
C929 C928 1.477 . S
C929 H949 0.930 1_556 S
C930 N926 1.362 1_455 S
C930 C927 1.431 . S
C930 C940 1.476 . S
H931 C925 0.929 . S
C932 O923 1.250 . S
C932 O924 1.258 . S
O933 Mn918 2.162 . S
O933 C921 1.281 . S
O934 Mn918 2.297 1_455 S
O934 C921 1.236 1_455 S
N935 Mn919 2.282 . S
N935 C936 1.330 . S
N935 C940 1.318 1_655 S
C936 N935 1.330 . S
C936 C937 1.453 1_655 S
C936 H941 0.931 . S
C937 C936 1.453 1_455 S
C937 C938 1.291 . S
C937 H950 0.931 . S
C938 C937 1.291 . S
C938 C939 1.373 . S
C938 H951 0.929 . S
C939 C938 1.373 . S
C939 C940 1.396 . S
C939 C946 1.403 . S
C940 C930 1.476 . S
C940 N935 1.318 1_455 S
C940 C939 1.396 . S
H941 C936 0.931 . S
O942 Mn918 2.385 1_455 S
O942 C920 1.234 . S
O943 Mn918 2.209 1_455 S
O943 Mn919 2.215 1_455 S
O943 C920 1.283 . S
O944 Mn918 2.094 . S
O944 C922 1.240 . S
O945 Mn919 2.117 . S
O945 C922 1.264 . S
C946 C939 1.403 . S
C946 C947 1.399 . S
C946 H952 0.929 . S
C947 C927 1.449 . S
C947 C946 1.399 . S
C947 H953 0.930 . S
H948 C928 0.931 . S
H949 C929 0.930 1_554 S
H950 C937 0.931 . S
H951 C938 0.929 . S
H952 C946 0.929 . S
H953 C947 0.930 . S
Mn954 O959 2.095 . S
Mn954 O969 2.162 . S
Mn954 O970 2.297 . S
Mn954 O978 2.385 . S
Mn954 O979 2.209 . S
Mn954 O980 2.094 . S
Mn955 O960 2.121 . S
Mn955 N962 2.257 . S
Mn955 N971 2.282 . S
Mn955 O979 2.215 . S
Mn955 O981 2.117 . S
C956 O978 1.234 . S
C956 O979 1.283 . S
C957 O969 1.281 . S
C957 O970 1.236 . S
C958 O980 1.240 . S
C958 O981 1.264 . S
O959 Mn954 2.095 . S
O959 C968 1.250 . S
O960 Mn955 2.121 . S
O960 C968 1.258 . S
C961 N962 1.326 . S
C961 C965 1.460 . S
C961 H967 0.929 . S
N962 Mn955 2.257 . S
N962 C961 1.326 . S
N962 C966 1.362 . S
C963 C964 1.258 . S
C963 C966 1.431 . S
C963 C983 1.449 . S
C964 C963 1.258 . S
C964 C965 1.477 . S
C964 H984 0.931 . S
C965 C961 1.460 . S
C965 C964 1.477 . S
C965 H985 0.930 . S
C966 N962 1.362 . S
C966 C963 1.431 . S
C966 C976 1.476 . S
H967 C961 0.929 . S
C968 O959 1.250 . S
C968 O960 1.258 . S
O969 Mn954 2.162 . S
O969 C957 1.281 . S
O970 Mn954 2.297 . S
O970 C957 1.236 . S
N971 Mn955 2.282 . S
N971 C972 1.328 . S
N971 C976 1.318 . S
C972 N971 1.328 . S
C972 C973 1.457 . S
C972 H977 0.929 . S
C973 C972 1.457 . S
C973 C974 1.291 . S
C973 H986 0.931 . S
C974 C973 1.291 . S
C974 C975 1.373 . S
C974 H987 0.929 . S
C975 C974 1.373 . S
C975 C976 1.396 . S
C975 C982 1.403 . S
C976 C966 1.476 . S
C976 N971 1.318 . S
C976 C975 1.396 . S
H977 C972 0.929 . S
O978 Mn954 2.385 . S
O978 C956 1.234 . S
O979 Mn954 2.209 . S
O979 Mn955 2.215 . S
O979 C956 1.283 . S
O980 Mn954 2.094 . S
O980 C958 1.240 . S
O981 Mn955 2.117 . S
O981 C958 1.264 . S
C982 C975 1.403 . S
C982 C983 1.399 . S
C982 H988 0.929 . S
C983 C963 1.449 . S
C983 C982 1.399 . S
C983 H989 0.930 . S
H984 C964 0.931 . S
H985 C965 0.930 . S
H986 C973 0.931 . S
H987 C974 0.929 . S
H988 C982 0.929 . S
H989 C983 0.930 . S
Mn990 O995 2.095 . S
Mn990 O1005 2.162 . S
Mn990 O1006 2.297 . S
Mn990 O1014 2.385 1_655 S
Mn990 O1015 2.209 . S
Mn990 O1016 2.094 . S
Mn991 O996 2.121 1_455 S
Mn991 N998 2.257 . S
Mn991 N1007 2.282 . S
Mn991 O1015 2.215 1_455 S
Mn991 O1017 2.117 . S
C992 O1014 1.234 . S
C992 O1015 1.283 1_455 S
C993 O1005 1.281 . S
C993 O1006 1.236 . S
C994 O1016 1.240 . S
C994 O1017 1.264 1_655 S
O995 Mn990 2.095 . S
O995 C1004 1.250 . S
O996 Mn991 2.121 1_655 S
O996 C1004 1.258 . S
C997 N998 1.326 . S
C997 C1001 1.460 . S
C997 H1003 0.929 1_455 S
N998 Mn991 2.257 . S
N998 C997 1.326 . S
N998 C1002 1.362 . S
C999 C1000 1.258 . S
C999 C1002 1.431 . S
C999 C1019 1.449 . S
C1000 C999 1.258 . S
C1000 C1001 1.477 . S
C1000 H1020 0.931 . S
C1001 C997 1.460 . S
C1001 C1000 1.477 . S
C1001 H1021 0.930 . S
C1002 N998 1.362 . S
C1002 C999 1.431 . S
C1002 C1012 1.476 . S
H1003 C997 0.929 1_655 S
C1004 O995 1.250 . S
C1004 O996 1.258 . S
O1005 Mn990 2.162 . S
O1005 C993 1.281 . S
O1006 Mn990 2.297 . S
O1006 C993 1.236 . S
N1007 Mn991 2.282 . S
N1007 C1008 1.328 . S
N1007 C1012 1.318 . S
C1008 N1007 1.328 . S
C1008 C1009 1.457 . S
C1008 H1013 0.929 . S
C1009 C1008 1.457 . S
C1009 C1010 1.291 . S
C1009 H1022 0.931 . S
C1010 C1009 1.291 . S
C1010 C1011 1.373 . S
C1010 H1023 0.929 . S
C1011 C1010 1.373 . S
C1011 C1012 1.396 . S
C1011 C1018 1.403 . S
C1012 C1002 1.476 . S
C1012 N1007 1.318 . S
C1012 C1011 1.396 . S
H1013 C1008 0.929 . S
O1014 Mn990 2.385 1_455 S
O1014 C992 1.234 . S
O1015 Mn990 2.209 . S
O1015 Mn991 2.215 1_655 S
O1015 C992 1.283 1_655 S
O1016 Mn990 2.094 . S
O1016 C994 1.240 . S
O1017 Mn991 2.117 . S
O1017 C994 1.264 1_455 S
C1018 C1011 1.403 . S
C1018 C1019 1.399 . S
C1018 H1024 0.929 . S
C1019 C999 1.449 . S
C1019 C1018 1.399 . S
C1019 H1025 0.930 . S
H1020 C1000 0.931 . S
H1021 C1001 0.930 . S
H1022 C1009 0.931 . S
H1023 C1010 0.929 . S
H1024 C1018 0.929 . S
H1025 C1019 0.930 . S
Mn1026 O1031 2.095 . S
Mn1026 O1041 2.162 . S
Mn1026 O1042 2.297 . S
Mn1026 O1050 2.385 . S
Mn1026 O1051 2.209 . S
Mn1026 O1052 2.094 . S
Mn1027 O1032 2.121 . S
Mn1027 N1034 2.257 . S
Mn1027 N1043 2.282 . S
Mn1027 O1051 2.215 . S
Mn1027 O1053 2.117 . S
C1028 O1050 1.234 . S
C1028 O1051 1.283 . S
C1029 O1041 1.281 . S
C1029 O1042 1.236 . S
C1030 O1052 1.240 . S
C1030 O1053 1.264 . S
O1031 Mn1026 2.095 . S
O1031 C1040 1.250 . S
O1032 Mn1027 2.121 . S
O1032 C1040 1.258 . S
C1033 N1034 1.326 . S
C1033 C1037 1.460 . S
C1033 H1039 0.929 . S
N1034 Mn1027 2.257 . S
N1034 C1033 1.326 . S
N1034 C1038 1.362 . S
C1035 C1036 1.258 . S
C1035 C1038 1.431 . S
C1035 C1055 1.449 . S
C1036 C1035 1.258 . S
C1036 C1037 1.477 . S
C1036 H1056 0.931 . S
C1037 C1033 1.460 . S
C1037 C1036 1.477 . S
C1037 H1057 0.930 . S
C1038 N1034 1.362 . S
C1038 C1035 1.431 . S
C1038 C1048 1.476 . S
H1039 C1033 0.929 . S
C1040 O1031 1.250 . S
C1040 O1032 1.258 . S
O1041 Mn1026 2.162 . S
O1041 C1029 1.281 . S
O1042 Mn1026 2.297 . S
O1042 C1029 1.236 . S
N1043 Mn1027 2.282 . S
N1043 C1044 1.328 . S
N1043 C1048 1.318 . S
C1044 N1043 1.328 . S
C1044 C1045 1.457 . S
C1044 H1049 0.929 . S
C1045 C1044 1.457 . S
C1045 C1046 1.291 . S
C1045 H1058 0.931 . S
C1046 C1045 1.291 . S
C1046 C1047 1.373 . S
C1046 H1059 0.929 . S
C1047 C1046 1.373 . S
C1047 C1048 1.396 . S
C1047 C1054 1.403 . S
C1048 C1038 1.476 . S
C1048 N1043 1.318 . S
C1048 C1047 1.396 . S
H1049 C1044 0.929 . S
O1050 Mn1026 2.385 . S
O1050 C1028 1.234 . S
O1051 Mn1026 2.209 . S
O1051 Mn1027 2.215 . S
O1051 C1028 1.283 . S
O1052 Mn1026 2.094 . S
O1052 C1030 1.240 . S
O1053 Mn1027 2.117 . S
O1053 C1030 1.264 . S
C1054 C1047 1.403 . S
C1054 C1055 1.399 . S
C1054 H1060 0.929 . S
C1055 C1035 1.449 . S
C1055 C1054 1.399 . S
C1055 H1061 0.930 . S
H1056 C1036 0.931 . S
H1057 C1037 0.930 . S
H1058 C1045 0.931 . S
H1059 C1046 0.929 . S
H1060 C1054 0.929 . S
H1061 C1055 0.930 . S
C1062 C1063 1.363 . S
C1062 C1068 1.379 . S
C1062 N1070 1.356 . S
C1063 C1062 1.363 . S
C1063 C1069 1.363 . S
C1064 C1065 1.363 . S
C1064 C1069 1.379 . S
C1064 N1071 1.356 . S
C1065 C1064 1.363 . S
C1065 C1068 1.363 . S
N1066 C1068 1.356 . S
N1066 H1078 0.984 . S
N1066 H1079 0.985 . S
N1067 C1069 1.341 1_556 S
N1067 H1072 0.985 . S
N1067 H1073 0.999 . S
C1068 C1062 1.379 . S
C1068 C1065 1.363 . S
C1068 N1066 1.356 . S
C1069 C1063 1.363 . S
C1069 C1064 1.379 . S
C1069 N1067 1.341 1_554 S
N1070 C1062 1.356 . S
N1070 H1076 0.984 . S
N1070 H1077 0.984 . S
N1071 C1064 1.356 . S
N1071 H1074 0.984 . S
N1071 H1075 0.985 . S
H1072 N1067 0.985 . S
H1073 N1067 0.999 . S
H1074 N1071 0.984 . S
H1075 N1071 0.985 . S
H1076 N1070 0.984 . S
H1077 N1070 0.984 . S
H1078 N1066 0.984 . S
H1079 N1066 0.985 . S
C1080 C1081 1.363 . S
C1080 C1086 1.379 . S
C1080 N1088 1.356 . S
C1081 C1080 1.363 . S
C1081 C1087 1.363 . S
C1082 C1083 1.363 . S
C1082 C1087 1.379 . S
C1082 N1089 1.356 . S
C1083 C1082 1.363 . S
C1083 C1086 1.363 . S
N1084 C1086 1.356 . S
N1084 H1096 0.984 . S
N1084 H1097 0.985 . S
N1085 C1087 1.356 . S
N1085 H1090 0.984 . S
N1085 H1091 0.985 . S
C1086 C1080 1.379 . S
C1086 C1083 1.363 . S
C1086 N1084 1.356 . S
C1087 C1081 1.363 . S
C1087 C1082 1.379 . S
C1087 N1085 1.356 . S
N1088 C1080 1.356 . S
N1088 H1094 0.984 1_554 S
N1088 H1095 0.984 . S
N1089 C1082 1.356 . S
N1089 H1092 0.984 . S
N1089 H1093 0.985 . S
H1090 N1085 0.984 . S
H1091 N1085 0.985 . S
H1092 N1089 0.984 . S
H1093 N1089 0.985 . S
H1094 N1088 0.984 1_556 S
H1095 N1088 0.984 . S
H1096 N1084 0.984 . S
H1097 N1084 0.985 . S
C1098 C1099 1.363 . S
C1098 C1104 1.379 . S
C1098 N1106 1.356 . S
C1099 C1098 1.363 . S
C1099 C1105 1.363 1_565 S
C1100 C1101 1.363 1_545 S
C1100 C1105 1.379 . S
C1100 N1107 1.356 . S
C1101 C1100 1.363 1_565 S
C1101 C1104 1.363 . S
N1102 C1104 1.356 . S
N1102 H1114 0.984 . S
N1102 H1115 0.985 . S
N1103 C1105 1.356 . S
N1103 H1108 0.984 . S
N1103 H1109 0.985 . S
C1104 C1098 1.379 . S
C1104 C1101 1.363 . S
C1104 N1102 1.356 . S
C1105 C1099 1.363 1_545 S
C1105 C1100 1.379 . S
C1105 N1103 1.356 . S
N1106 C1098 1.356 . S
N1106 H1112 0.984 . S
N1106 H1113 0.984 . S
N1107 C1100 1.356 . S
N1107 H1110 0.984 . S
N1107 H1111 0.985 . S
H1108 N1103 0.984 . S
H1109 N1103 0.985 . S
H1110 N1107 0.984 . S
H1111 N1107 0.985 . S
H1112 N1106 0.984 . S
H1113 N1106 0.984 . S
H1114 N1102 0.984 . S
H1115 N1102 0.985 . S
C1116 C1117 1.363 . S
C1116 C1122 1.379 . S
C1116 N1124 1.356 . S
C1117 C1116 1.363 . S
C1117 C1123 1.363 . S
C1118 C1119 1.363 . S
C1118 C1123 1.379 . S
C1118 N1125 1.356 . S
C1119 C1118 1.363 . S
C1119 C1122 1.363 . S
N1120 C1122 1.356 . S
N1120 H1132 0.984 . S
N1120 H1133 0.985 . S
N1121 C1123 1.356 . S
N1121 H1126 0.984 . S
N1121 H1127 0.985 . S
C1122 C1116 1.379 . S
C1122 C1119 1.363 . S
C1122 N1120 1.356 . S
C1123 C1117 1.363 . S
C1123 C1118 1.379 . S
C1123 N1121 1.356 . S
N1124 C1116 1.356 . S
N1124 H1130 0.984 . S
N1124 H1131 0.984 . S
N1125 C1118 1.356 . S
N1125 H1128 0.984 . S
N1125 H1129 0.985 . S
H1126 N1121 0.984 . S
H1127 N1121 0.985 . S
H1128 N1125 0.984 . S
H1129 N1125 0.985 . S
H1130 N1124 0.984 . S
H1131 N1124 0.984 . S
H1132 N1120 0.984 . S
H1133 N1120 0.985 . S
C1134 C1135 1.363 . S
C1134 C1140 1.379 1_455 S
C1134 N1142 1.356 . S
C1135 C1134 1.363 . S
C1135 C1141 1.363 . S
C1136 C1137 1.363 . S
C1136 C1141 1.379 . S
C1136 N1143 1.356 . S
C1137 C1136 1.363 . S
C1137 C1140 1.363 1_455 S
N1138 C1140 1.356 . S
N1138 H1150 0.984 . S
N1138 H1151 0.985 . S
N1139 C1141 1.356 . S
N1139 H1144 0.984 . S
N1139 H1145 0.985 . S
C1140 C1134 1.379 1_655 S
C1140 C1137 1.363 1_655 S
C1140 N1138 1.356 . S
C1141 C1135 1.363 . S
C1141 C1136 1.379 . S
C1141 N1139 1.356 . S
N1142 C1134 1.356 . S
N1142 H1148 0.984 1_455 S
N1142 H1149 0.984 . S
N1143 C1136 1.356 . S
N1143 H1146 0.984 . S
N1143 H1147 0.985 . S
H1144 N1139 0.984 . S
H1145 N1139 0.985 . S
H1146 N1143 0.984 . S
H1147 N1143 0.985 . S
H1148 N1142 0.984 1_655 S
H1149 N1142 0.984 . S
H1150 N1138 0.984 . S
H1151 N1138 0.985 . S
C1152 C1153 1.363 . S
C1152 C1158 1.379 . S
C1152 N1160 1.356 . S
C1153 C1152 1.363 . S
C1153 C1159 1.363 . S
C1154 C1155 1.363 . S
C1154 C1159 1.379 . S
C1154 N1161 1.356 . S
C1155 C1154 1.363 . S
C1155 C1158 1.363 . S
N1156 C1158 1.356 . S
N1156 H1168 0.984 . S
N1156 H1169 0.985 . S
N1157 C1159 1.356 . S
N1157 H1162 0.984 . S
N1157 H1163 0.985 . S
C1158 C1152 1.379 . S
C1158 C1155 1.363 . S
C1158 N1156 1.356 . S
C1159 C1153 1.363 . S
C1159 C1154 1.379 . S
C1159 N1157 1.356 . S
N1160 C1152 1.356 . S
N1160 H1166 0.984 . S
N1160 H1167 0.984 . S
N1161 C1154 1.356 . S
N1161 H1164 0.984 . S
N1161 H1165 0.985 . S
H1162 N1157 0.984 . S
H1163 N1157 0.985 . S
H1164 N1161 0.984 . S
H1165 N1161 0.985 . S
H1166 N1160 0.984 . S
H1167 N1160 0.984 . S
H1168 N1156 0.984 . S
H1169 N1156 0.985 . S
C1170 C1171 1.363 . S
C1170 C1176 1.379 1_455 S
C1170 N1178 1.356 1_456 S
C1171 C1170 1.363 . S
C1171 C1177 1.363 . S
C1172 C1173 1.363 . S
C1172 C1177 1.379 . S
C1172 N1179 1.356 . S
C1173 C1172 1.363 . S
C1173 C1176 1.363 1_455 S
N1174 C1176 1.356 . S
N1174 H1186 0.984 1_556 S
N1174 H1187 0.985 . S
N1175 C1177 1.356 . S
N1175 H1180 0.984 . S
N1175 H1181 0.985 . S
C1176 C1170 1.379 1_655 S
C1176 C1173 1.363 1_655 S
C1176 N1174 1.356 . S
C1177 C1171 1.363 . S
C1177 C1172 1.379 . S
C1177 N1175 1.356 . S
N1178 C1170 1.356 1_654 S
N1178 H1184 0.984 . S
N1178 H1185 0.984 1_655 S
N1179 C1172 1.356 . S
N1179 H1182 0.984 . S
N1179 H1183 0.985 . S
H1180 N1175 0.984 . S
H1181 N1175 0.985 . S
H1182 N1179 0.984 . S
H1183 N1179 0.985 . S
H1184 N1178 0.984 . S
H1185 N1178 0.984 1_455 S
H1186 N1174 0.984 1_554 S
H1187 N1174 0.985 . S
C1188 C1189 1.363 1_554 S
C1188 C1194 1.380 1_554 S
C1188 N1196 1.356 . S
C1189 C1188 1.363 1_556 S
C1189 C1195 1.363 . S
C1190 C1191 1.363 . S
C1190 C1195 1.379 . S
C1190 N1197 1.356 . S
C1191 C1190 1.363 . S
C1191 C1194 1.360 . S
N1192 C1194 1.358 1_554 S
N1192 H1204 0.984 . S
N1192 H1205 0.985 . S
N1193 C1195 1.356 . S
N1193 H1198 0.984 . S
N1193 H1199 0.985 . S
C1194 C1188 1.380 1_556 S
C1194 C1191 1.360 . S
C1194 N1192 1.358 1_556 S
C1195 C1189 1.363 . S
C1195 C1190 1.379 . S
C1195 N1193 1.356 . S
N1196 C1188 1.356 . S
N1196 H1202 0.984 . S
N1196 H1203 0.984 . S
N1197 C1190 1.356 . S
N1197 H1200 0.984 . S
N1197 H1201 0.985 . S
H1198 N1193 0.984 . S
H1199 N1193 0.985 . S
H1200 N1197 0.984 . S
H1201 N1197 0.985 . S
H1202 N1196 0.984 . S
H1203 N1196 0.984 . S
H1204 N1192 0.984 . S
H1205 N1192 0.985 . S
C1206 C1207 1.363 . S
C1206 C1212 1.379 . S
C1206 N1214 1.353 1_546 S
C1207 C1206 1.363 . S
C1207 C1213 1.363 . S
C1208 C1209 1.363 . S
C1208 C1213 1.379 . S
C1208 N1215 1.356 . S
C1209 C1208 1.363 . S
C1209 C1212 1.363 . S
N1210 C1212 1.356 . S
N1210 H1222 0.984 . S
N1210 H1223 0.985 . S
N1211 C1213 1.356 . S
N1211 H1216 0.984 . S
N1211 H1217 0.985 . S
C1212 C1206 1.379 . S
C1212 C1209 1.363 . S
C1212 N1210 1.356 . S
C1213 C1207 1.363 . S
C1213 C1208 1.379 . S
C1213 N1211 1.356 . S
N1214 C1206 1.353 1_564 S
N1214 H1220 0.989 . S
N1214 H1221 0.983 . S
N1215 C1208 1.356 . S
N1215 H1218 0.984 . S
N1215 H1219 0.985 . S
H1216 N1211 0.984 . S
H1217 N1211 0.985 . S
H1218 N1215 0.984 . S
H1219 N1215 0.985 . S
H1220 N1214 0.989 . S
H1221 N1214 0.983 . S
H1222 N1210 0.984 . S
H1223 N1210 0.985 . S
C1224 C1225 1.363 . S
C1224 C1230 1.379 . S
C1224 N1232 1.356 . S
C1225 C1224 1.363 . S
C1225 C1231 1.363 1_545 S
C1226 C1227 1.363 1_565 S
C1226 C1231 1.379 . S
C1226 N1233 1.356 . S
C1227 C1226 1.363 1_545 S
C1227 C1230 1.363 . S
N1228 C1230 1.356 . S
N1228 H1240 0.984 . S
N1228 H1241 0.985 . S
N1229 C1231 1.356 . S
N1229 H1234 0.984 . S
N1229 H1235 0.985 . S
C1230 C1224 1.379 . S
C1230 C1227 1.363 . S
C1230 N1228 1.356 . S
C1231 C1225 1.363 1_565 S
C1231 C1226 1.379 . S
C1231 N1229 1.356 . S
N1232 C1224 1.356 . S
N1232 H1238 0.984 . S
N1232 H1239 0.984 . S
N1233 C1226 1.356 . S
N1233 H1236 0.984 . S
N1233 H1237 0.985 . S
H1234 N1229 0.984 . S
H1235 N1229 0.985 . S
H1236 N1233 0.984 . S
H1237 N1233 0.985 . S
H1238 N1232 0.984 . S
H1239 N1232 0.984 . S
H1240 N1228 0.984 . S
H1241 N1228 0.985 . S
C1242 C1243 1.363 . S
C1242 C1248 1.379 . S
C1242 N1250 1.356 . S
C1243 C1242 1.363 . S
C1243 C1249 1.363 . S
C1244 C1245 1.363 . S
C1244 C1249 1.379 . S
C1244 N1251 1.356 . S
C1245 C1244 1.363 . S
C1245 C1248 1.363 . S
N1246 C1248 1.356 . S
N1246 H1258 0.984 . S
N1246 H1259 0.985 . S
N1247 C1249 1.356 . S
N1247 H1252 0.984 . S
N1247 H1253 0.985 . S
C1248 C1242 1.379 . S
C1248 C1245 1.363 . S
C1248 N1246 1.356 . S
C1249 C1243 1.363 . S
C1249 C1244 1.379 . S
C1249 N1247 1.356 . S
N1250 C1242 1.356 . S
N1250 H1256 0.984 . S
N1250 H1257 0.984 . S
N1251 C1244 1.356 . S
N1251 H1254 0.984 . S
N1251 H1255 0.985 . S
H1252 N1247 0.984 . S
H1253 N1247 0.985 . S
H1254 N1251 0.984 . S
H1255 N1251 0.985 . S
H1256 N1250 0.984 . S
H1257 N1250 0.984 . S
H1258 N1246 0.984 . S
H1259 N1246 0.985 . S
C1260 C1261 1.363 . S
C1260 C1266 1.379 . S
C1260 N1268 1.356 . S
C1261 C1260 1.363 . S
C1261 C1267 1.363 . S
C1262 C1263 1.363 . S
C1262 C1267 1.379 . S
C1262 N1269 1.356 . S
C1263 C1262 1.363 . S
C1263 C1266 1.363 . S
N1264 C1266 1.356 . S
N1264 H1276 0.984 . S
N1264 H1277 0.985 . S
N1265 C1267 1.356 . S
N1265 H1270 0.984 . S
N1265 H1271 0.985 . S
C1266 C1260 1.379 . S
C1266 C1263 1.363 . S
C1266 N1264 1.356 . S
C1267 C1261 1.363 . S
C1267 C1262 1.379 . S
C1267 N1265 1.356 . S
N1268 C1260 1.356 . S
N1268 H1274 0.984 . S
N1268 H1275 0.984 . S
N1269 C1262 1.356 . S
N1269 H1272 0.984 . S
N1269 H1273 0.985 . S
H1270 N1265 0.984 . S
H1271 N1265 0.985 . S
H1272 N1269 0.984 . S
H1273 N1269 0.985 . S
H1274 N1268 0.984 . S
H1275 N1268 0.984 . S
H1276 N1264 0.984 . S
H1277 N1264 0.985 . S
C1278 C1279 1.363 . S
C1278 C1284 1.379 . S
C1278 N1286 1.356 . S
C1279 C1278 1.363 . S
C1279 C1285 1.363 . S
C1280 C1281 1.363 . S
C1280 C1285 1.379 . S
C1280 N1287 1.356 . S
C1281 C1280 1.363 . S
C1281 C1284 1.363 . S
N1282 C1284 1.356 . S
N1282 H1294 0.984 . S
N1282 H1295 0.985 . S
N1283 C1285 1.356 . S
N1283 H1288 0.984 . S
N1283 H1289 0.985 . S
C1284 C1278 1.379 . S
C1284 C1281 1.363 . S
C1284 N1282 1.356 . S
C1285 C1279 1.363 . S
C1285 C1280 1.379 . S
C1285 N1283 1.356 . S
N1286 C1278 1.356 . S
N1286 H1292 0.984 . S
N1286 H1293 0.984 . S
N1287 C1280 1.356 . S
N1287 H1290 0.984 . S
N1287 H1291 0.985 . S
H1288 N1283 0.984 . S
H1289 N1283 0.985 . S
H1290 N1287 0.984 . S
H1291 N1287 0.985 . S
H1292 N1286 0.984 . S
H1293 N1286 0.984 . S
H1294 N1282 0.984 . S
H1295 N1282 0.985 . S
C1296 C1297 1.363 . S
C1296 C1302 1.379 1_565 S
C1296 N1304 1.356 . S
C1297 C1296 1.363 . S
C1297 C1303 1.363 1_565 S
C1298 C1299 1.363 . S
C1298 C1303 1.379 . S
C1298 N1305 1.356 . S
C1299 C1298 1.363 . S
C1299 C1302 1.363 . S
N1300 C1302 1.356 . S
N1300 H1312 0.984 . S
N1300 H1313 0.985 . S
N1301 C1303 1.356 1_565 S
N1301 H1306 0.984 . S
N1301 H1307 0.985 1_565 S
C1302 C1296 1.379 1_545 S
C1302 C1299 1.363 . S
C1302 N1300 1.356 . S
C1303 C1297 1.363 1_545 S
C1303 C1298 1.379 . S
C1303 N1301 1.356 1_545 S
N1304 C1296 1.356 . S
N1304 H1310 0.984 . S
N1304 H1311 0.984 . S
N1305 C1298 1.356 . S
N1305 H1308 0.984 . S
N1305 H1309 0.985 . S
H1306 N1301 0.984 . S
H1307 N1301 0.985 1_545 S
H1308 N1305 0.984 . S
H1309 N1305 0.985 . S
H1310 N1304 0.984 . S
H1311 N1304 0.984 . S
H1312 N1300 0.984 . S
H1313 N1300 0.985 . S
C1314 C1315 1.363 . S
C1314 C1320 1.379 . S
C1314 N1322 1.356 . S
C1315 C1314 1.363 . S
C1315 C1321 1.363 . S
C1316 C1317 1.363 . S
C1316 C1321 1.379 . S
C1316 N1323 1.356 . S
C1317 C1316 1.363 . S
C1317 C1320 1.363 . S
N1318 C1320 1.356 . S
N1318 H1330 0.984 . S
N1318 H1331 0.985 1_455 S
N1319 C1321 1.356 . S
N1319 H1324 0.984 . S
N1319 H1325 0.985 . S
C1320 C1314 1.379 . S
C1320 C1317 1.363 . S
C1320 N1318 1.356 . S
C1321 C1315 1.363 . S
C1321 C1316 1.379 . S
C1321 N1319 1.356 . S
N1322 C1314 1.356 . S
N1322 H1328 0.984 . S
N1322 H1329 0.984 . S
N1323 C1316 1.356 . S
N1323 H1326 0.984 . S
N1323 H1327 0.985 . S
H1324 N1319 0.984 . S
H1325 N1319 0.985 . S
H1326 N1323 0.984 . S
H1327 N1323 0.985 . S
H1328 N1322 0.984 . S
H1329 N1322 0.984 . S
H1330 N1318 0.984 . S
H1331 N1318 0.985 1_655 S
C1332 C1333 1.363 . S
C1332 C1338 1.379 . S
C1332 N1340 1.356 . S
C1333 C1332 1.363 . S
C1333 C1339 1.363 . S
C1334 C1335 1.363 . S
C1334 C1339 1.379 . S
C1334 N1341 1.356 . S
C1335 C1334 1.363 . S
C1335 C1338 1.363 . S
N1336 C1338 1.356 . S
N1336 H1348 0.984 . S
N1336 H1349 0.985 . S
N1337 C1339 1.356 . S
N1337 H1342 0.984 . S
N1337 H1343 0.985 . S
C1338 C1332 1.379 . S
C1338 C1335 1.363 . S
C1338 N1336 1.356 . S
C1339 C1333 1.363 . S
C1339 C1334 1.379 . S
C1339 N1337 1.356 . S
N1340 C1332 1.356 . S
N1340 H1346 0.984 . S
N1340 H1347 0.984 . S
N1341 C1334 1.356 . S
N1341 H1344 0.984 . S
N1341 H1345 0.985 . S
H1342 N1337 0.984 . S
H1343 N1337 0.985 . S
H1344 N1341 0.984 . S
H1345 N1341 0.985 . S
H1346 N1340 0.984 . S
H1347 N1340 0.984 . S
H1348 N1336 0.984 . S
H1349 N1336 0.985 . S
C1350 C1351 1.363 . S
C1350 C1356 1.379 . S
C1350 N1358 1.356 . S
C1351 C1350 1.363 . S
C1351 C1357 1.363 . S
C1352 C1353 1.363 . S
C1352 C1357 1.379 . S
C1352 N1359 1.356 . S
C1353 C1352 1.363 . S
C1353 C1356 1.363 . S
N1354 C1356 1.356 . S
N1354 H1366 0.984 . S
N1354 H1367 0.985 . S
N1355 C1357 1.356 . S
N1355 H1360 0.984 . S
N1355 H1361 0.985 . S
C1356 C1350 1.379 . S
C1356 C1353 1.363 . S
C1356 N1354 1.356 . S
C1357 C1351 1.363 . S
C1357 C1352 1.379 . S
C1357 N1355 1.356 . S
N1358 C1350 1.356 . S
N1358 H1364 0.984 . S
N1358 H1365 0.984 . S
N1359 C1352 1.356 . S
N1359 H1362 0.984 . S
N1359 H1363 0.985 . S
H1360 N1355 0.984 . S
H1361 N1355 0.985 . S
H1362 N1359 0.984 . S
H1363 N1359 0.985 . S
H1364 N1358 0.984 . S
H1365 N1358 0.984 . S
H1366 N1354 0.984 . S
H1367 N1354 0.985 . S
C1368 C1369 1.363 . S
C1368 C1374 1.379 . S
C1368 N1376 1.356 . S
C1369 C1368 1.363 . S
C1369 C1375 1.363 . S
C1370 C1371 1.363 . S
C1370 C1375 1.379 . S
C1370 N1377 1.356 . S
C1371 C1370 1.363 . S
C1371 C1374 1.363 . S
N1372 C1374 1.356 1_545 S
N1372 H1384 0.984 . S
N1372 H1385 0.985 . S
N1373 C1375 1.356 . S
N1373 H1378 0.984 . S
N1373 H1379 0.985 . S
C1374 C1368 1.379 . S
C1374 C1371 1.363 . S
C1374 N1372 1.356 1_565 S
C1375 C1369 1.363 . S
C1375 C1370 1.379 . S
C1375 N1373 1.356 . S
N1376 C1368 1.356 . S
N1376 H1382 0.984 . S
N1376 H1383 0.984 . S
N1377 C1370 1.356 . S
N1377 H1380 0.984 . S
N1377 H1381 0.985 . S
H1378 N1373 0.984 . S
H1379 N1373 0.985 . S
H1380 N1377 0.984 . S
H1381 N1377 0.985 . S
H1382 N1376 0.984 . S
H1383 N1376 0.984 . S
H1384 N1372 0.984 . S
H1385 N1372 0.985 . S
C1386 C1387 1.363 . S
C1386 C1392 1.379 1_565 S
C1386 N1394 1.356 . S
C1387 C1386 1.363 . S
C1387 C1393 1.363 . S
C1388 C1389 1.363 1_565 S
C1388 C1393 1.379 . S
C1388 N1395 1.356 1_565 S
C1389 C1388 1.363 1_545 S
C1389 C1392 1.363 . S
N1390 C1392 1.356 . S
N1390 H1402 0.984 . S
N1390 H1403 0.985 . S
N1391 C1393 1.356 . S
N1391 H1396 0.984 . S
N1391 H1397 0.985 . S
C1392 C1386 1.379 1_545 S
C1392 C1389 1.363 . S
C1392 N1390 1.356 . S
C1393 C1387 1.363 . S
C1393 C1388 1.379 . S
C1393 N1391 1.356 . S
N1394 C1386 1.356 . S
N1394 H1400 0.976 1_565 S
N1394 H1401 0.984 . S
N1395 C1388 1.356 1_545 S
N1395 H1398 0.984 . S
N1395 H1399 0.985 1_545 S
H1396 N1391 0.984 . S
H1397 N1391 0.985 . S
H1398 N1395 0.984 . S
H1399 N1395 0.985 1_565 S
H1400 N1394 0.976 1_545 S
H1401 N1394 0.984 . S
H1402 N1390 0.984 . S
H1403 N1390 0.985 . S
C1404 C1405 1.363 . S
C1404 C1410 1.379 . S
C1404 N1412 1.356 . S
C1405 C1404 1.363 . S
C1405 C1411 1.363 . S
C1406 C1407 1.363 . S
C1406 C1411 1.379 . S
C1406 N1413 1.356 . S
C1407 C1406 1.363 . S
C1407 C1410 1.363 . S
N1408 C1410 1.356 . S
N1408 H1420 0.984 . S
N1408 H1421 0.985 . S
N1409 C1411 1.356 . S
N1409 H1414 0.984 . S
N1409 H1415 0.985 . S
C1410 C1404 1.379 . S
C1410 C1407 1.363 . S
C1410 N1408 1.356 . S
C1411 C1405 1.363 . S
C1411 C1406 1.379 . S
C1411 N1409 1.356 . S
N1412 C1404 1.356 . S
N1412 H1418 0.984 . S
N1412 H1419 0.984 . S
N1413 C1406 1.356 . S
N1413 H1416 0.984 . S
N1413 H1417 0.985 . S
H1414 N1409 0.984 . S
H1415 N1409 0.985 . S
H1416 N1413 0.984 . S
H1417 N1413 0.985 . S
H1418 N1412 0.984 . S
H1419 N1412 0.984 . S
H1420 N1408 0.984 . S
H1421 N1408 0.985 . S
C1422 C1423 1.363 . S
C1422 C1428 1.379 . S
C1422 N1430 1.356 . S
C1423 C1422 1.363 . S
C1423 C1429 1.363 . S
C1424 C1425 1.363 . S
C1424 C1429 1.379 . S
C1424 N1431 1.356 . S
C1425 C1424 1.363 . S
C1425 C1428 1.363 . S
N1426 C1428 1.356 . S
N1426 H1438 0.984 . S
N1426 H1439 0.985 . S
N1427 C1429 1.356 . S
N1427 H1432 0.984 . S
N1427 H1433 0.985 . S
C1428 C1422 1.379 . S
C1428 C1425 1.363 . S
C1428 N1426 1.356 . S
C1429 C1423 1.363 . S
C1429 C1424 1.379 . S
C1429 N1427 1.356 . S
N1430 C1422 1.356 . S
N1430 H1436 0.984 . S
N1430 H1437 0.984 . S
N1431 C1424 1.356 . S
N1431 H1434 0.984 . S
N1431 H1435 0.985 . S
H1432 N1427 0.984 . S
H1433 N1427 0.985 . S
H1434 N1431 0.984 . S
H1435 N1431 0.985 . S
H1436 N1430 0.984 . S
H1437 N1430 0.984 . S
H1438 N1426 0.984 . S
H1439 N1426 0.985 . S
C1440 C1441 1.363 . S
C1440 C1446 1.379 . S
C1440 N1448 1.356 . S
C1441 C1440 1.363 . S
C1441 C1447 1.363 . S
C1442 C1443 1.363 . S
C1442 C1447 1.379 . S
C1442 N1449 1.356 . S
C1443 C1442 1.363 . S
C1443 C1446 1.363 . S
N1444 C1446 1.356 . S
N1444 H1456 0.984 . S
N1444 H1457 0.985 . S
N1445 C1447 1.356 . S
N1445 H1450 0.984 . S
N1445 H1451 0.985 . S
C1446 C1440 1.379 . S
C1446 C1443 1.363 . S
C1446 N1444 1.356 . S
C1447 C1441 1.363 . S
C1447 C1442 1.379 . S
C1447 N1445 1.356 . S
N1448 C1440 1.356 . S
N1448 H1454 0.984 . S
N1448 H1455 0.984 . S
N1449 C1442 1.356 . S
N1449 H1452 0.984 . S
N1449 H1453 0.985 . S
H1450 N1445 0.984 . S
H1451 N1445 0.985 . S
H1452 N1449 0.984 . S
H1453 N1449 0.985 . S
H1454 N1448 0.984 . S
H1455 N1448 0.984 . S
H1456 N1444 0.984 . S
H1457 N1444 0.985 . S
C1458 C1459 1.363 1_545 S
C1458 C1464 1.379 . S
C1458 N1466 1.356 . S
C1459 C1458 1.363 1_565 S
C1459 C1465 1.363 . S
C1460 C1461 1.363 1_565 S
C1460 C1465 1.379 . S
C1460 N1467 1.349 1_565 S
C1461 C1460 1.363 1_545 S
C1461 C1464 1.363 . S
N1462 C1464 1.356 . S
N1462 H1474 0.984 . S
N1462 H1475 0.985 . S
N1463 C1465 1.356 . S
N1463 H1468 0.984 . S
N1463 H1469 0.985 . S
C1464 C1458 1.379 . S
C1464 C1461 1.363 . S
C1464 N1462 1.356 . S
C1465 C1459 1.363 . S
C1465 C1460 1.379 . S
C1465 N1463 1.356 . S
N1466 C1458 1.356 . S
N1466 H1472 0.984 . S
N1466 H1473 0.984 1_545 S
N1467 C1460 1.349 1_545 S
N1467 H1470 1.004 . S
N1467 H1471 0.972 1_545 S
H1468 N1463 0.984 . S
H1469 N1463 0.985 . S
H1470 N1467 1.004 . S
H1471 N1467 0.972 1_565 S
H1472 N1466 0.984 . S
H1473 N1466 0.984 1_565 S
H1474 N1462 0.984 . S
H1475 N1462 0.985 . S
C1476 C1477 1.363 . S
C1476 C1482 1.379 . S
C1476 N1484 1.356 . S
C1477 C1476 1.363 . S
C1477 C1483 1.363 . S
C1478 C1479 1.363 . S
C1478 C1483 1.379 . S
C1478 N1485 1.356 . S
C1479 C1478 1.363 . S
C1479 C1482 1.363 . S
N1480 C1482 1.356 . S
N1480 H1492 0.984 . S
N1480 H1493 0.985 . S
N1481 C1483 1.356 . S
N1481 H1486 0.984 . S
N1481 H1487 0.985 . S
C1482 C1476 1.379 . S
C1482 C1479 1.363 . S
C1482 N1480 1.356 . S
C1483 C1477 1.363 . S
C1483 C1478 1.379 . S
C1483 N1481 1.356 . S
N1484 C1476 1.356 . S
N1484 H1490 0.984 . S
N1484 H1491 0.984 . S
N1485 C1478 1.356 . S
N1485 H1488 0.984 . S
N1485 H1489 0.985 . S
H1486 N1481 0.984 . S
H1487 N1481 0.985 . S
H1488 N1485 0.984 . S
H1489 N1485 0.985 . S
H1490 N1484 0.984 . S
H1491 N1484 0.984 . S
H1492 N1480 0.984 . S
H1493 N1480 0.985 . S
C1494 C1495 1.363 . S
C1494 C1500 1.379 . S
C1494 N1502 1.356 . S
C1495 C1494 1.363 . S
C1495 C1501 1.363 . S
C1496 C1497 1.363 . S
C1496 C1501 1.379 . S
C1496 N1503 1.356 . S
C1497 C1496 1.363 . S
C1497 C1500 1.363 . S
N1498 C1500 1.356 . S
N1498 H1510 0.984 . S
N1498 H1511 0.985 . S
N1499 C1501 1.356 . S
N1499 H1504 0.984 . S
N1499 H1505 0.985 . S
C1500 C1494 1.379 . S
C1500 C1497 1.363 . S
C1500 N1498 1.356 . S
C1501 C1495 1.363 . S
C1501 C1496 1.379 . S
C1501 N1499 1.356 . S
N1502 C1494 1.356 . S
N1502 H1508 0.984 . S
N1502 H1509 0.984 . S
N1503 C1496 1.356 . S
N1503 H1506 0.984 . S
N1503 H1507 0.985 . S
H1504 N1499 0.984 . S
H1505 N1499 0.985 . S
H1506 N1503 0.984 . S
H1507 N1503 0.985 . S
H1508 N1502 0.984 . S
H1509 N1502 0.984 . S
H1510 N1498 0.984 . S
H1511 N1498 0.985 . S
C1512 C1513 1.363 . S
C1512 C1518 1.379 . S
C1512 N1520 1.356 . S
C1513 C1512 1.363 . S
C1513 C1519 1.363 . S
C1514 C1515 1.363 . S
C1514 C1519 1.379 . S
C1514 N1521 1.356 . S
C1515 C1514 1.363 . S
C1515 C1518 1.363 . S
N1516 C1518 1.356 . S
N1516 H1528 0.984 . S
N1516 H1529 0.985 . S
N1517 C1519 1.356 . S
N1517 H1522 0.984 . S
N1517 H1523 0.985 . S
C1518 C1512 1.379 . S
C1518 C1515 1.363 . S
C1518 N1516 1.356 . S
C1519 C1513 1.363 . S
C1519 C1514 1.379 . S
C1519 N1517 1.356 . S
N1520 C1512 1.356 . S
N1520 H1526 0.984 . S
N1520 H1527 0.984 . S
N1521 C1514 1.356 . S
N1521 H1524 0.984 . S
N1521 H1525 0.985 . S
H1522 N1517 0.984 . S
H1523 N1517 0.985 . S
H1524 N1521 0.984 . S
H1525 N1521 0.985 . S
H1526 N1520 0.984 . S
H1527 N1520 0.984 . S
H1528 N1516 0.984 . S
H1529 N1516 0.985 . S
C1530 C1531 1.363 . S
C1530 C1536 1.379 . S
C1530 N1538 1.356 . S
C1531 C1530 1.363 . S
C1531 C1537 1.363 . S
C1532 C1533 1.363 . S
C1532 C1537 1.379 . S
C1532 N1539 1.356 . S
C1533 C1532 1.363 . S
C1533 C1536 1.363 . S
N1534 C1536 1.356 . S
N1534 H1546 0.984 . S
N1534 H1547 0.985 . S
N1535 C1537 1.356 . S
N1535 H1540 0.984 . S
N1535 H1541 0.985 . S
C1536 C1530 1.379 . S
C1536 C1533 1.363 . S
C1536 N1534 1.356 . S
C1537 C1531 1.363 . S
C1537 C1532 1.379 . S
C1537 N1535 1.356 . S
N1538 C1530 1.356 . S
N1538 H1544 0.984 . S
N1538 H1545 0.984 . S
N1539 C1532 1.356 . S
N1539 H1542 0.984 . S
N1539 H1543 0.985 . S
H1540 N1535 0.984 . S
H1541 N1535 0.985 . S
H1542 N1539 0.984 . S
H1543 N1539 0.985 . S
H1544 N1538 0.984 . S
H1545 N1538 0.984 . S
H1546 N1534 0.984 . S
H1547 N1534 0.985 . S
C1548 C1549 1.363 . S
C1548 C1554 1.379 . S
C1548 N1556 1.356 . S
C1549 C1548 1.363 . S
C1549 C1555 1.363 . S
C1550 C1551 1.363 . S
C1550 C1555 1.379 . S
C1550 N1557 1.356 . S
C1551 C1550 1.363 . S
C1551 C1554 1.363 . S
N1552 C1554 1.356 . S
N1552 H1564 0.984 . S
N1552 H1565 0.985 . S
N1553 C1555 1.356 . S
N1553 H1558 0.984 . S
N1553 H1559 0.985 . S
C1554 C1548 1.379 . S
C1554 C1551 1.363 . S
C1554 N1552 1.356 . S
C1555 C1549 1.363 . S
C1555 C1550 1.379 . S
C1555 N1553 1.356 . S
N1556 C1548 1.356 . S
N1556 H1562 0.984 . S
N1556 H1563 0.984 . S
N1557 C1550 1.356 . S
N1557 H1560 0.984 . S
N1557 H1561 0.985 . S
H1558 N1553 0.984 . S
H1559 N1553 0.985 . S
H1560 N1557 0.984 . S
H1561 N1557 0.985 . S
H1562 N1556 0.984 . S
H1563 N1556 0.984 . S
H1564 N1552 0.984 . S
H1565 N1552 0.985 . S
C1566 C1567 1.363 . S
C1566 C1572 1.379 . S
C1566 N1574 1.356 . S
C1567 C1566 1.363 . S
C1567 C1573 1.363 . S
C1568 C1569 1.363 . S
C1568 C1573 1.379 . S
C1568 N1575 1.356 . S
C1569 C1568 1.363 . S
C1569 C1572 1.363 . S
N1570 C1572 1.356 . S
N1570 H1582 0.984 . S
N1570 H1583 0.985 . S
N1571 C1573 1.356 . S
N1571 H1576 0.984 . S
N1571 H1577 0.985 . S
C1572 C1566 1.379 . S
C1572 C1569 1.363 . S
C1572 N1570 1.356 . S
C1573 C1567 1.363 . S
C1573 C1568 1.379 . S
C1573 N1571 1.356 . S
N1574 C1566 1.356 . S
N1574 H1580 0.984 . S
N1574 H1581 0.984 . S
N1575 C1568 1.356 . S
N1575 H1578 0.984 . S
N1575 H1579 0.985 . S
H1576 N1571 0.984 . S
H1577 N1571 0.985 . S
H1578 N1575 0.984 . S
H1579 N1575 0.985 . S
H1580 N1574 0.984 . S
H1581 N1574 0.984 . S
H1582 N1570 0.984 . S
H1583 N1570 0.985 . S
C1584 C1585 1.363 . S
C1584 C1590 1.379 . S
C1584 N1592 1.356 . S
C1585 C1584 1.363 . S
C1585 C1591 1.363 . S
C1586 C1587 1.363 . S
C1586 C1591 1.379 . S
C1586 N1593 1.356 . S
C1587 C1586 1.363 . S
C1587 C1590 1.363 . S
N1588 C1590 1.356 . S
N1588 H1600 0.984 . S
N1588 H1601 0.985 . S
N1589 C1591 1.356 . S
N1589 H1594 0.984 . S
N1589 H1595 0.985 . S
C1590 C1584 1.379 . S
C1590 C1587 1.363 . S
C1590 N1588 1.356 . S
C1591 C1585 1.363 . S
C1591 C1586 1.379 . S
C1591 N1589 1.356 . S
N1592 C1584 1.356 . S
N1592 H1598 0.984 . S
N1592 H1599 0.984 . S
N1593 C1586 1.356 . S
N1593 H1596 0.984 . S
N1593 H1597 0.985 . S
H1594 N1589 0.984 . S
H1595 N1589 0.985 . S
H1596 N1593 0.984 . S
H1597 N1593 0.985 . S
H1598 N1592 0.984 . S
H1599 N1592 0.984 . S
H1600 N1588 0.984 . S
H1601 N1588 0.985 . S
C1602 C1603 1.363 . S
C1602 C1608 1.379 . S
C1602 N1610 1.356 . S
C1603 C1602 1.363 . S
C1603 C1609 1.363 . S
C1604 C1605 1.363 . S
C1604 C1609 1.379 . S
C1604 N1611 1.356 . S
C1605 C1604 1.363 . S
C1605 C1608 1.363 . S
N1606 C1608 1.356 . S
N1606 H1618 0.984 . S
N1606 H1619 0.985 . S
N1607 C1609 1.356 . S
N1607 H1612 0.984 . S
N1607 H1613 0.985 . S
C1608 C1602 1.379 . S
C1608 C1605 1.363 . S
C1608 N1606 1.356 . S
C1609 C1603 1.363 . S
C1609 C1604 1.379 . S
C1609 N1607 1.356 . S
N1610 C1602 1.356 . S
N1610 H1616 0.984 . S
N1610 H1617 0.984 . S
N1611 C1604 1.356 . S
N1611 H1614 0.984 . S
N1611 H1615 0.985 . S
H1612 N1607 0.984 . S
H1613 N1607 0.985 . S
H1614 N1611 0.984 . S
H1615 N1611 0.985 . S
H1616 N1610 0.984 . S
H1617 N1610 0.984 . S
H1618 N1606 0.984 . S
H1619 N1606 0.985 . S
C1620 C1621 1.363 . S
C1620 C1626 1.379 . S
C1620 N1628 1.356 . S
C1621 C1620 1.363 . S
C1621 C1627 1.363 . S
C1622 C1623 1.363 . S
C1622 C1627 1.379 . S
C1622 N1629 1.356 . S
C1623 C1622 1.363 . S
C1623 C1626 1.363 . S
N1624 C1626 1.356 . S
N1624 H1636 0.984 . S
N1624 H1637 0.985 . S
N1625 C1627 1.356 . S
N1625 H1630 0.984 . S
N1625 H1631 0.985 . S
C1626 C1620 1.379 . S
C1626 C1623 1.363 . S
C1626 N1624 1.356 . S
C1627 C1621 1.363 . S
C1627 C1622 1.379 . S
C1627 N1625 1.356 . S
N1628 C1620 1.356 . S
N1628 H1634 0.984 . S
N1628 H1635 0.984 . S
N1629 C1622 1.356 . S
N1629 H1632 0.984 . S
N1629 H1633 0.985 . S
H1630 N1625 0.984 . S
H1631 N1625 0.985 . S
H1632 N1629 0.984 . S
H1633 N1629 0.985 . S
H1634 N1628 0.984 . S
H1635 N1628 0.984 . S
H1636 N1624 0.984 . S
H1637 N1624 0.985 . S
C1638 C1639 1.363 . S
C1638 C1644 1.379 . S
C1638 N1646 1.356 . S
C1639 C1638 1.363 . S
C1639 C1645 1.363 . S
C1640 C1641 1.363 . S
C1640 C1645 1.379 . S
C1640 N1647 1.356 . S
C1641 C1640 1.363 . S
C1641 C1644 1.363 . S
N1642 C1644 1.356 . S
N1642 H1654 0.984 . S
N1642 H1655 0.985 . S
N1643 C1645 1.356 . S
N1643 H1648 0.984 . S
N1643 H1649 0.985 . S
C1644 C1638 1.379 . S
C1644 C1641 1.363 . S
C1644 N1642 1.356 . S
C1645 C1639 1.363 . S
C1645 C1640 1.379 . S
C1645 N1643 1.356 . S
N1646 C1638 1.356 . S
N1646 H1652 0.984 . S
N1646 H1653 0.984 . S
N1647 C1640 1.356 . S
N1647 H1650 0.984 1_655 S
N1647 H1651 0.985 . S
H1648 N1643 0.984 . S
H1649 N1643 0.985 . S
H1650 N1647 0.984 1_455 S
H1651 N1647 0.985 . S
H1652 N1646 0.984 . S
H1653 N1646 0.984 . S
H1654 N1642 0.984 . S
H1655 N1642 0.985 . S
C1656 C1657 1.363 . S
C1656 C1662 1.379 . S
C1656 N1664 1.356 . S
C1657 C1656 1.363 . S
C1657 C1663 1.363 . S
C1658 C1659 1.363 . S
C1658 C1663 1.379 . S
C1658 N1665 1.356 . S
C1659 C1658 1.363 . S
C1659 C1662 1.363 . S
N1660 C1662 1.356 . S
N1660 H1672 0.984 . S
N1660 H1673 0.985 . S
N1661 C1663 1.356 . S
N1661 H1666 0.984 . S
N1661 H1667 0.985 . S
C1662 C1656 1.379 . S
C1662 C1659 1.363 . S
C1662 N1660 1.356 . S
C1663 C1657 1.363 . S
C1663 C1658 1.379 . S
C1663 N1661 1.356 . S
N1664 C1656 1.356 . S
N1664 H1670 0.984 . S
N1664 H1671 0.984 . S
N1665 C1658 1.356 . S
N1665 H1668 0.984 . S
N1665 H1669 0.985 . S
H1666 N1661 0.984 . S
H1667 N1661 0.985 . S
H1668 N1665 0.984 . S
H1669 N1665 0.985 . S
H1670 N1664 0.984 . S
H1671 N1664 0.984 . S
H1672 N1660 0.984 . S
H1673 N1660 0.985 . S
C1674 C1675 1.363 . S
C1674 C1680 1.379 . S
C1674 N1682 1.356 . S
C1675 C1674 1.363 . S
C1675 C1681 1.363 . S
C1676 C1677 1.363 . S
C1676 C1681 1.379 . S
C1676 N1683 1.356 . S
C1677 C1676 1.363 . S
C1677 C1680 1.363 . S
N1678 C1680 1.356 . S
N1678 H1690 0.984 . S
N1678 H1691 0.985 . S
N1679 C1681 1.356 . S
N1679 H1684 0.984 . S
N1679 H1685 0.985 . S
C1680 C1674 1.379 . S
C1680 C1677 1.363 . S
C1680 N1678 1.356 . S
C1681 C1675 1.363 . S
C1681 C1676 1.379 . S
C1681 N1679 1.356 . S
N1682 C1674 1.356 . S
N1682 H1688 0.984 . S
N1682 H1689 0.984 . S
N1683 C1676 1.356 . S
N1683 H1686 0.984 . S
N1683 H1687 0.985 . S
H1684 N1679 0.984 . S
H1685 N1679 0.985 . S
H1686 N1683 0.984 . S
H1687 N1683 0.985 . S
H1688 N1682 0.984 . S
H1689 N1682 0.984 . S
H1690 N1678 0.984 . S
H1691 N1678 0.985 . S
C1692 C1693 1.363 . S
C1692 C1698 1.379 . S
C1692 N1700 1.356 . S
C1693 C1692 1.363 . S
C1693 C1699 1.363 . S
C1694 C1695 1.363 . S
C1694 C1699 1.379 . S
C1694 N1701 1.356 . S
C1695 C1694 1.363 . S
C1695 C1698 1.363 . S
N1696 C1698 1.356 . S
N1696 H1708 0.984 . S
N1696 H1709 0.985 . S
N1697 C1699 1.356 . S
N1697 H1702 0.984 . S
N1697 H1703 0.985 . S
C1698 C1692 1.379 . S
C1698 C1695 1.363 . S
C1698 N1696 1.356 . S
C1699 C1693 1.363 . S
C1699 C1694 1.379 . S
C1699 N1697 1.356 . S
N1700 C1692 1.356 . S
N1700 H1706 0.984 . S
N1700 H1707 0.984 . S
N1701 C1694 1.356 . S
N1701 H1704 0.984 . S
N1701 H1705 0.985 . S
H1702 N1697 0.984 . S
H1703 N1697 0.985 . S
H1704 N1701 0.984 . S
H1705 N1701 0.985 . S
H1706 N1700 0.984 . S
H1707 N1700 0.984 . S
H1708 N1696 0.984 . S
H1709 N1696 0.985 . S
C1710 C1711 1.363 . S
C1710 C1716 1.379 . S
C1710 N1718 1.356 . S
C1711 C1710 1.363 . S
C1711 C1717 1.363 . S
C1712 C1713 1.363 . S
C1712 C1717 1.379 . S
C1712 N1719 1.356 . S
C1713 C1712 1.363 . S
C1713 C1716 1.363 . S
N1714 C1716 1.356 . S
N1714 H1726 0.984 . S
N1714 H1727 0.985 . S
N1715 C1717 1.356 . S
N1715 H1720 0.984 . S
N1715 H1721 0.985 . S
C1716 C1710 1.379 . S
C1716 C1713 1.363 . S
C1716 N1714 1.356 . S
C1717 C1711 1.363 . S
C1717 C1712 1.379 . S
C1717 N1715 1.356 . S
N1718 C1710 1.356 . S
N1718 H1724 0.984 . S
N1718 H1725 0.984 . S
N1719 C1712 1.356 . S
N1719 H1722 0.984 . S
N1719 H1723 0.985 . S
H1720 N1715 0.984 . S
H1721 N1715 0.985 . S
H1722 N1719 0.984 . S
H1723 N1719 0.985 . S
H1724 N1718 0.984 . S
H1725 N1718 0.984 . S
H1726 N1714 0.984 . S
H1727 N1714 0.985 . S
C1728 C1729 1.363 . S
C1728 C1734 1.379 . S
C1728 N1736 1.356 . S
C1729 C1728 1.363 . S
C1729 C1735 1.363 . S
C1730 C1731 1.363 . S
C1730 C1735 1.379 . S
C1730 N1737 1.356 . S
C1731 C1730 1.363 . S
C1731 C1734 1.363 . S
N1732 C1734 1.356 . S
N1732 H1744 0.984 . S
N1732 H1745 0.985 . S
N1733 C1735 1.356 . S
N1733 H1738 0.984 . S
N1733 H1739 0.985 . S
C1734 C1728 1.379 . S
C1734 C1731 1.363 . S
C1734 N1732 1.356 . S
C1735 C1729 1.363 . S
C1735 C1730 1.379 . S
C1735 N1733 1.356 . S
N1736 C1728 1.356 . S
N1736 H1742 0.984 . S
N1736 H1743 0.984 . S
N1737 C1730 1.356 . S
N1737 H1740 0.984 . S
N1737 H1741 0.985 . S
H1738 N1733 0.984 . S
H1739 N1733 0.985 . S
H1740 N1737 0.984 . S
H1741 N1737 0.985 . S
H1742 N1736 0.984 . S
H1743 N1736 0.984 . S
H1744 N1732 0.984 . S
H1745 N1732 0.985 . S
C1746 C1747 1.363 1_545 S
C1746 C1752 1.379 . S
C1746 N1754 1.356 . S
C1747 C1746 1.363 1_565 S
C1747 C1753 1.363 . S
C1748 C1749 1.363 1_565 S
C1748 C1753 1.379 . S
C1748 N1755 1.356 . S
C1749 C1748 1.363 1_545 S
C1749 C1752 1.363 . S
N1750 C1752 1.356 . S
N1750 H1762 0.984 . S
N1750 H1763 0.985 . S
N1751 C1753 1.356 . S
N1751 H1756 0.984 . S
N1751 H1757 0.985 . S
C1752 C1746 1.379 . S
C1752 C1749 1.363 . S
C1752 N1750 1.356 . S
C1753 C1747 1.363 . S
C1753 C1748 1.379 . S
C1753 N1751 1.356 . S
N1754 C1746 1.356 . S
N1754 H1760 0.984 . S
N1754 H1761 1.008 . S
N1755 C1748 1.356 . S
N1755 H1758 1.014 . S
N1755 H1759 0.985 . S
H1756 N1751 0.984 . S
H1757 N1751 0.985 . S
H1758 N1755 1.014 . S
H1759 N1755 0.985 . S
H1760 N1754 0.984 . S
H1761 N1754 1.008 . S
H1762 N1750 0.984 . S
H1763 N1750 0.985 . S
C1764 C1765 1.363 . S
C1764 C1770 1.379 . S
C1764 N1772 1.347 1_545 S
C1765 C1764 1.363 . S
C1765 C1771 1.363 . S
C1766 C1767 1.363 . S
C1766 C1771 1.379 . S
C1766 N1773 1.356 . S
C1767 C1766 1.363 . S
C1767 C1770 1.363 . S
N1768 C1770 1.356 1_565 S
N1768 H1780 0.984 . S
N1768 H1781 0.985 . S
N1769 C1771 1.356 . S
N1769 H1774 0.984 . S
N1769 H1775 0.985 . S
C1770 C1764 1.379 . S
C1770 C1767 1.363 . S
C1770 N1768 1.356 1_545 S
C1771 C1765 1.363 . S
C1771 C1766 1.379 . S
C1771 N1769 1.356 . S
N1772 C1764 1.347 1_565 S
N1772 H1778 0.991 . S
N1772 H1779 0.988 1_565 S
N1773 C1766 1.356 . S
N1773 H1776 0.984 . S
N1773 H1777 0.985 . S
H1774 N1769 0.984 . S
H1775 N1769 0.985 . S
H1776 N1773 0.984 . S
H1777 N1773 0.985 . S
H1778 N1772 0.991 . S
H1779 N1772 0.988 1_545 S
H1780 N1768 0.984 . S
H1781 N1768 0.985 . S
C1782 C1783 1.363 . S
C1782 C1788 1.379 . S
C1782 N1790 1.356 . S
C1783 C1782 1.363 . S
C1783 C1789 1.363 . S
C1784 C1785 1.363 . S
C1784 C1789 1.379 . S
C1784 N1791 1.356 . S
C1785 C1784 1.363 . S
C1785 C1788 1.363 . S
N1786 C1788 1.356 . S
N1786 H1798 0.984 . S
N1786 H1799 0.985 . S
N1787 C1789 1.356 . S
N1787 H1792 0.984 . S
N1787 H1793 0.985 . S
C1788 C1782 1.379 . S
C1788 C1785 1.363 . S
C1788 N1786 1.356 . S
C1789 C1783 1.363 . S
C1789 C1784 1.379 . S
C1789 N1787 1.356 . S
N1790 C1782 1.356 . S
N1790 H1796 0.984 . S
N1790 H1797 0.984 . S
N1791 C1784 1.356 . S
N1791 H1794 0.984 . S
N1791 H1795 0.985 . S
H1792 N1787 0.984 . S
H1793 N1787 0.985 . S
H1794 N1791 0.984 . S
H1795 N1791 0.985 . S
H1796 N1790 0.984 . S
H1797 N1790 0.984 . S
H1798 N1786 0.984 . S
H1799 N1786 0.985 . S
C1800 C1801 1.363 . S
C1800 C1806 1.379 . S
C1800 N1808 1.356 . S
C1801 C1800 1.363 . S
C1801 C1807 1.363 . S
C1802 C1803 1.363 . S
C1802 C1807 1.379 . S
C1802 N1809 1.356 . S
C1803 C1802 1.363 . S
C1803 C1806 1.363 . S
N1804 C1806 1.356 . S
N1804 H1816 0.984 . S
N1804 H1817 0.985 . S
N1805 C1807 1.356 . S
N1805 H1810 0.984 . S
N1805 H1811 0.985 . S
C1806 C1800 1.379 . S
C1806 C1803 1.363 . S
C1806 N1804 1.356 . S
C1807 C1801 1.363 . S
C1807 C1802 1.379 . S
C1807 N1805 1.356 . S
N1808 C1800 1.356 . S
N1808 H1814 0.984 . S
N1808 H1815 0.984 . S
N1809 C1802 1.356 . S
N1809 H1812 0.984 . S
N1809 H1813 0.985 . S
H1810 N1805 0.984 . S
H1811 N1805 0.985 . S
H1812 N1809 0.984 . S
H1813 N1809 0.985 . S
H1814 N1808 0.984 . S
H1815 N1808 0.984 . S
H1816 N1804 0.984 . S
H1817 N1804 0.985 . S
C1818 C1819 1.363 . S
C1818 C1824 1.379 . S
C1818 N1826 1.356 . S
C1819 C1818 1.363 . S
C1819 C1825 1.363 . S
C1820 C1821 1.363 . S
C1820 C1825 1.379 . S
C1820 N1827 1.356 . S
C1821 C1820 1.363 . S
C1821 C1824 1.363 . S
N1822 C1824 1.356 1_655 S
N1822 H1834 0.984 . S
N1822 H1835 0.985 . S
N1823 C1825 1.356 . S
N1823 H1828 0.984 . S
N1823 H1829 0.985 . S
C1824 C1818 1.379 . S
C1824 C1821 1.363 . S
C1824 N1822 1.356 1_455 S
C1825 C1819 1.363 . S
C1825 C1820 1.379 . S
C1825 N1823 1.356 . S
N1826 C1818 1.356 . S
N1826 H1832 0.984 1_455 S
N1826 H1833 0.984 . S
N1827 C1820 1.356 . S
N1827 H1830 0.984 . S
N1827 H1831 0.985 . S
H1828 N1823 0.984 . S
H1829 N1823 0.985 . S
H1830 N1827 0.984 . S
H1831 N1827 0.985 . S
H1832 N1826 0.984 1_655 S
H1833 N1826 0.984 . S
H1834 N1822 0.984 . S
H1835 N1822 0.985 . S
C1836 C1837 1.363 . S
C1836 C1842 1.379 . S
C1836 N1844 1.356 . S
C1837 C1836 1.363 . S
C1837 C1843 1.363 . S
C1838 C1839 1.363 . S
C1838 C1843 1.379 . S
C1838 N1845 1.356 . S
C1839 C1838 1.363 . S
C1839 C1842 1.363 . S
N1840 C1842 1.356 . S
N1840 H1852 0.984 . S
N1840 H1853 0.985 . S
N1841 C1843 1.356 . S
N1841 H1846 0.984 . S
N1841 H1847 0.985 . S
C1842 C1836 1.379 . S
C1842 C1839 1.363 . S
C1842 N1840 1.356 . S
C1843 C1837 1.363 . S
C1843 C1838 1.379 . S
C1843 N1841 1.356 . S
N1844 C1836 1.356 . S
N1844 H1850 0.984 . S
N1844 H1851 0.984 . S
N1845 C1838 1.356 . S
N1845 H1848 0.984 . S
N1845 H1849 0.985 . S
H1846 N1841 0.984 . S
H1847 N1841 0.985 . S
H1848 N1845 0.984 . S
H1849 N1845 0.985 . S
H1850 N1844 0.984 . S
H1851 N1844 0.984 . S
H1852 N1840 0.984 . S
H1853 N1840 0.985 . S
C1854 C1855 1.363 . S
C1854 C1860 1.379 . S
C1854 N1862 1.356 . S
C1855 C1854 1.363 . S
C1855 C1861 1.363 . S
C1856 C1857 1.363 . S
C1856 C1861 1.379 . S
C1856 N1863 1.356 . S
C1857 C1856 1.363 . S
C1857 C1860 1.363 . S
N1858 C1860 1.356 . S
N1858 H1870 0.984 . S
N1858 H1871 0.985 . S
N1859 C1861 1.356 . S
N1859 H1864 0.984 1_545 S
N1859 H1865 0.985 . S
C1860 C1854 1.379 . S
C1860 C1857 1.363 . S
C1860 N1858 1.356 . S
C1861 C1855 1.363 . S
C1861 C1856 1.379 . S
C1861 N1859 1.356 . S
N1862 C1854 1.356 . S
N1862 H1868 0.984 . S
N1862 H1869 0.985 1_545 S
N1863 C1856 1.356 . S
N1863 H1866 0.984 . S
N1863 H1867 0.985 . S
H1864 N1859 0.984 1_565 S
H1865 N1859 0.985 . S
H1866 N1863 0.984 . S
H1867 N1863 0.985 . S
H1868 N1862 0.984 . S
H1869 N1862 0.985 1_565 S
H1870 N1858 0.984 . S
H1871 N1858 0.985 . S
C1872 C1873 1.363 . S
C1872 C1878 1.379 . S
C1872 N1880 1.356 . S
C1873 C1872 1.363 . S
C1873 C1879 1.363 . S
C1874 C1875 1.363 . S
C1874 C1879 1.379 . S
C1874 N1881 1.356 . S
C1875 C1874 1.363 . S
C1875 C1878 1.363 . S
N1876 C1878 1.356 . S
N1876 H1888 0.984 1_545 S
N1876 H1889 0.985 . S
N1877 C1879 1.356 . S
N1877 H1882 0.984 . S
N1877 H1883 0.985 . S
C1878 C1872 1.379 . S
C1878 C1875 1.363 . S
C1878 N1876 1.356 . S
C1879 C1873 1.363 . S
C1879 C1874 1.379 . S
C1879 N1877 1.356 . S
N1880 C1872 1.356 . S
N1880 H1886 0.984 1_545 S
N1880 H1887 0.984 . S
N1881 C1874 1.356 . S
N1881 H1884 0.984 . S
N1881 H1885 0.985 . S
H1882 N1877 0.984 . S
H1883 N1877 0.985 . S
H1884 N1881 0.984 . S
H1885 N1881 0.985 . S
H1886 N1880 0.984 1_565 S
H1887 N1880 0.984 . S
H1888 N1876 0.984 1_565 S
H1889 N1876 0.985 . S
C1890 C1891 1.363 . S
C1890 C1896 1.379 . S
C1890 N1898 1.356 . S
C1891 C1890 1.363 . S
C1891 C1897 1.363 . S
C1892 C1893 1.363 . S
C1892 C1897 1.379 . S
C1892 N1899 1.356 . S
C1893 C1892 1.363 . S
C1893 C1896 1.363 . S
N1894 C1896 1.356 1_655 S
N1894 H1906 0.984 . S
N1894 H1907 0.985 . S
N1895 C1897 1.356 . S
N1895 H1900 0.984 . S
N1895 H1901 0.985 . S
C1896 C1890 1.379 . S
C1896 C1893 1.363 . S
C1896 N1894 1.356 1_455 S
C1897 C1891 1.363 . S
C1897 C1892 1.379 . S
C1897 N1895 1.356 . S
N1898 C1890 1.356 . S
N1898 H1904 0.984 1_455 S
N1898 H1905 0.984 . S
N1899 C1892 1.356 . S
N1899 H1902 0.984 . S
N1899 H1903 0.985 . S
H1900 N1895 0.984 . S
H1901 N1895 0.985 . S
H1902 N1899 0.984 . S
H1903 N1899 0.985 . S
H1904 N1898 0.984 1_655 S
H1905 N1898 0.984 . S
H1906 N1894 0.984 . S
H1907 N1894 0.985 . S
C1908 C1909 1.363 . S
C1908 C1914 1.379 . S
C1908 N1916 1.356 . S
C1909 C1908 1.363 . S
C1909 C1915 1.363 . S
C1910 C1911 1.363 . S
C1910 C1915 1.379 . S
C1910 N1917 1.356 . S
C1911 C1910 1.363 . S
C1911 C1914 1.363 . S
N1912 C1914 1.356 . S
N1912 H1924 0.984 . S
N1912 H1925 0.985 . S
N1913 C1915 1.356 . S
N1913 H1918 0.984 . S
N1913 H1919 0.985 . S
C1914 C1908 1.379 . S
C1914 C1911 1.363 . S
C1914 N1912 1.356 . S
C1915 C1909 1.363 . S
C1915 C1910 1.379 . S
C1915 N1913 1.356 . S
N1916 C1908 1.356 . S
N1916 H1922 0.984 . S
N1916 H1923 0.984 . S
N1917 C1910 1.356 . S
N1917 H1920 0.984 . S
N1917 H1921 0.985 . S
H1918 N1913 0.984 . S
H1919 N1913 0.985 . S
H1920 N1917 0.984 . S
H1921 N1917 0.985 . S
H1922 N1916 0.984 . S
H1923 N1916 0.984 . S
H1924 N1912 0.984 . S
H1925 N1912 0.985 . S
C1926 C1927 1.363 . S
C1926 C1932 1.379 . S
C1926 N1934 1.356 . S
C1927 C1926 1.363 . S
C1927 C1933 1.363 . S
C1928 C1929 1.363 . S
C1928 C1933 1.379 . S
C1928 N1935 1.356 . S
C1929 C1928 1.363 . S
C1929 C1932 1.363 . S
N1930 C1932 1.356 . S
N1930 H1942 0.984 . S
N1930 H1943 0.985 . S
N1931 C1933 1.356 . S
N1931 H1936 0.984 . S
N1931 H1937 0.985 . S
C1932 C1926 1.379 . S
C1932 C1929 1.363 . S
C1932 N1930 1.356 . S
C1933 C1927 1.363 . S
C1933 C1928 1.379 . S
C1933 N1931 1.356 . S
N1934 C1926 1.356 . S
N1934 H1940 0.984 . S
N1934 H1941 0.984 . S
N1935 C1928 1.356 . S
N1935 H1938 0.984 . S
N1935 H1939 0.985 . S
H1936 N1931 0.984 . S
H1937 N1931 0.985 . S
H1938 N1935 0.984 . S
H1939 N1935 0.985 . S
H1940 N1934 0.984 . S
H1941 N1934 0.984 . S
H1942 N1930 0.984 . S
H1943 N1930 0.985 . S
C1944 C1945 1.363 . S
C1944 C1950 1.379 . S
C1944 N1952 1.356 . S
C1945 C1944 1.363 . S
C1945 C1951 1.363 . S
C1946 C1947 1.363 . S
C1946 C1951 1.379 . S
C1946 N1953 1.356 . S
C1947 C1946 1.363 . S
C1947 C1950 1.363 . S
N1948 C1950 1.356 . S
N1948 H1960 0.984 . S
N1948 H1961 0.985 . S
N1949 C1951 1.356 . S
N1949 H1954 0.984 . S
N1949 H1955 0.985 . S
C1950 C1944 1.379 . S
C1950 C1947 1.363 . S
C1950 N1948 1.356 . S
C1951 C1945 1.363 . S
C1951 C1946 1.379 . S
C1951 N1949 1.356 . S
N1952 C1944 1.356 . S
N1952 H1958 0.984 . S
N1952 H1959 0.984 . S
N1953 C1946 1.356 . S
N1953 H1956 0.984 . S
N1953 H1957 0.985 1_565 S
H1954 N1949 0.984 . S
H1955 N1949 0.985 . S
H1956 N1953 0.984 . S
H1957 N1953 0.985 1_545 S
H1958 N1952 0.984 . S
H1959 N1952 0.984 . S
H1960 N1948 0.984 . S
H1961 N1948 0.985 . S
C1962 C1963 1.363 . S
C1962 C1968 1.379 . S
C1962 N1970 1.356 . S
C1963 C1962 1.363 . S
C1963 C1969 1.363 . S
C1964 C1965 1.363 . S
C1964 C1969 1.379 . S
C1964 N1971 1.356 . S
C1965 C1964 1.363 . S
C1965 C1968 1.363 . S
N1966 C1968 1.356 . S
N1966 H1978 0.984 . S
N1966 H1979 0.985 . S
N1967 C1969 1.356 . S
N1967 H1972 0.984 . S
N1967 H1973 0.985 . S
C1968 C1962 1.379 . S
C1968 C1965 1.363 . S
C1968 N1966 1.356 . S
C1969 C1963 1.363 . S
C1969 C1964 1.379 . S
C1969 N1967 1.356 . S
N1970 C1962 1.356 . S
N1970 H1976 0.984 . S
N1970 H1977 0.984 . S
N1971 C1964 1.356 . S
N1971 H1974 0.984 . S
N1971 H1975 0.985 . S
H1972 N1967 0.984 . S
H1973 N1967 0.985 . S
H1974 N1971 0.984 . S
H1975 N1971 0.985 . S
H1976 N1970 0.984 . S
H1977 N1970 0.984 . S
H1978 N1966 0.984 . S
H1979 N1966 0.985 . S
C1980 C1981 1.363 . S
C1980 C1986 1.379 1_556 S
C1980 N1988 1.356 . S
C1981 C1980 1.363 . S
C1981 C1987 1.363 . S
C1982 C1983 1.363 . S
C1982 C1987 1.379 1_554 S
C1982 N1989 1.356 . S
C1983 C1982 1.363 . S
C1983 C1986 1.363 . S
N1984 C1986 1.356 . S
N1984 H1996 0.984 . S
N1984 H1997 0.985 . S
N1985 C1987 1.356 . S
N1985 H1990 0.984 . S
N1985 H1991 0.985 . S
C1986 C1980 1.379 1_554 S
C1986 C1983 1.363 . S
C1986 N1984 1.356 . S
C1987 C1981 1.363 . S
C1987 C1982 1.379 1_556 S
C1987 N1985 1.356 . S
N1988 C1980 1.356 . S
N1988 H1994 0.984 . S
N1988 H1995 0.984 . S
N1989 C1982 1.356 . S
N1989 H1992 0.984 . S
N1989 H1993 0.985 . S
H1990 N1985 0.984 . S
H1991 N1985 0.985 . S
H1992 N1989 0.984 . S
H1993 N1989 0.985 . S
H1994 N1988 0.984 . S
H1995 N1988 0.984 . S
H1996 N1984 0.984 . S
H1997 N1984 0.985 . S
C1998 C1999 1.363 . S
C1998 C2004 1.379 . S
C1998 N2006 1.356 . S
C1999 C1998 1.363 . S
C1999 C2005 1.363 . S
C2000 C2001 1.363 . S
C2000 C2005 1.379 . S
C2000 N2007 1.356 . S
C2001 C2000 1.363 . S
C2001 C2004 1.363 . S
N2002 C2004 1.356 1_554 S
N2002 H2014 0.984 . S
N2002 H2015 0.985 . S
N2003 C2005 1.356 . S
N2003 H2008 0.984 . S
N2003 H2009 0.985 . S
C2004 C1998 1.379 . S
C2004 C2001 1.363 . S
C2004 N2002 1.356 1_556 S
C2005 C1999 1.363 . S
C2005 C2000 1.379 . S
C2005 N2003 1.356 . S
N2006 C1998 1.356 . S
N2006 H2012 0.984 . S
N2006 H2013 0.984 . S
N2007 C2000 1.356 . S
N2007 H2010 0.984 1_556 S
N2007 H2011 0.985 . S
H2008 N2003 0.984 . S
H2009 N2003 0.985 . S
H2010 N2007 0.984 1_554 S
H2011 N2007 0.985 . S
H2012 N2006 0.984 . S
H2013 N2006 0.984 . S
H2014 N2002 0.984 . S
H2015 N2002 0.985 . S
C2016 C2017 1.363 . S
C2016 C2022 1.379 1_556 S
C2016 N2024 1.356 . S
C2017 C2016 1.363 . S
C2017 C2023 1.363 . S
C2018 C2019 1.363 . S
C2018 C2023 1.379 1_554 S
C2018 N2025 1.356 . S
C2019 C2018 1.363 . S
C2019 C2022 1.363 . S
N2020 C2022 1.356 . S
N2020 H2032 0.984 . S
N2020 H2033 0.985 . S
N2021 C2023 1.356 . S
N2021 H2026 0.984 . S
N2021 H2027 0.985 . S
C2022 C2016 1.379 1_554 S
C2022 C2019 1.363 . S
C2022 N2020 1.356 . S
C2023 C2017 1.363 . S
C2023 C2018 1.379 1_556 S
C2023 N2021 1.356 . S
N2024 C2016 1.356 . S
N2024 H2030 0.984 . S
N2024 H2031 0.984 . S
N2025 C2018 1.356 . S
N2025 H2028 0.984 . S
N2025 H2029 0.985 . S
H2026 N2021 0.984 . S
H2027 N2021 0.985 . S
H2028 N2025 0.984 . S
H2029 N2025 0.985 . S
H2030 N2024 0.984 . S
H2031 N2024 0.984 . S
H2032 N2020 0.984 . S
H2033 N2020 0.985 . S
C2034 C2035 1.363 . S
C2034 C2040 1.379 . S
C2034 N2042 1.356 . S
C2035 C2034 1.363 . S
C2035 C2041 1.363 . S
C2036 C2037 1.363 . S
C2036 C2041 1.379 . S
C2036 N2043 1.405 . S
C2037 C2036 1.363 . S
C2037 C2040 1.363 . S
N2038 C2040 1.356 . S
N2038 H2050 0.984 . S
N2038 H2051 0.985 . S
N2039 C2041 1.356 . S
N2039 H2044 0.984 . S
N2039 H2045 0.985 1_565 S
C2040 C2034 1.379 . S
C2040 C2037 1.363 . S
C2040 N2038 1.356 . S
C2041 C2035 1.363 . S
C2041 C2036 1.379 . S
C2041 N2039 1.356 . S
N2042 C2034 1.356 . S
N2042 H2048 0.984 . S
N2042 H2049 0.984 . S
N2043 C2036 1.405 . S
N2043 H2046 0.977 . S
N2043 H2047 0.945 1_565 S
H2044 N2039 0.984 . S
H2045 N2039 0.985 1_545 S
H2046 N2043 0.977 . S
H2047 N2043 0.945 1_545 S
H2048 N2042 0.984 . S
H2049 N2042 0.984 . S
H2050 N2038 0.984 . S
H2051 N2038 0.985 . S
C2052 C2053 1.363 . S
C2052 C2058 1.379 . S
C2052 N2060 1.356 . S
C2053 C2052 1.363 . S
C2053 C2059 1.363 . S
C2054 C2055 1.363 . S
C2054 C2059 1.379 . S
C2054 N2061 1.356 . S
C2055 C2054 1.363 . S
C2055 C2058 1.363 . S
N2056 C2058 1.356 . S
N2056 H2068 0.984 . S
N2056 H2069 0.985 . S
N2057 C2059 1.356 . S
N2057 H2062 0.984 . S
N2057 H2063 0.985 . S
C2058 C2052 1.379 . S
C2058 C2055 1.363 . S
C2058 N2056 1.356 . S
C2059 C2053 1.363 . S
C2059 C2054 1.379 . S
C2059 N2057 1.356 . S
N2060 C2052 1.356 . S
N2060 H2066 0.984 . S
N2060 H2067 0.984 . S
N2061 C2054 1.356 . S
N2061 H2064 0.984 . S
N2061 H2065 0.985 . S
H2062 N2057 0.984 . S
H2063 N2057 0.985 . S
H2064 N2061 0.984 . S
H2065 N2061 0.985 . S
H2066 N2060 0.984 . S
H2067 N2060 0.984 . S
H2068 N2056 0.984 . S
H2069 N2056 0.985 . S
C2070 C2071 1.363 . S
C2070 C2076 1.379 . S
C2070 N2078 1.356 . S
C2071 C2070 1.363 . S
C2071 C2077 1.363 . S
C2072 C2073 1.363 . S
C2072 C2077 1.379 . S
C2072 N2079 1.356 . S
C2073 C2072 1.363 . S
C2073 C2076 1.363 . S
N2074 C2076 1.356 . S
N2074 H2086 0.984 . S
N2074 H2087 0.985 . S
N2075 C2077 1.356 . S
N2075 H2080 0.984 . S
N2075 H2081 0.985 . S
C2076 C2070 1.379 . S
C2076 C2073 1.363 . S
C2076 N2074 1.356 . S
C2077 C2071 1.363 . S
C2077 C2072 1.379 . S
C2077 N2075 1.356 . S
N2078 C2070 1.356 . S
N2078 H2084 0.984 . S
N2078 H2085 0.984 . S
N2079 C2072 1.356 . S
N2079 H2082 0.984 . S
N2079 H2083 0.985 . S
H2080 N2075 0.984 . S
H2081 N2075 0.985 . S
H2082 N2079 0.984 . S
H2083 N2079 0.985 . S
H2084 N2078 0.984 . S
H2085 N2078 0.984 . S
H2086 N2074 0.984 . S
H2087 N2074 0.985 . S
C2088 C2089 1.363 . S
C2088 C2094 1.379 . S
C2088 N2096 1.356 . S
C2089 C2088 1.363 . S
C2089 C2095 1.363 . S
C2090 C2091 1.363 . S
C2090 C2095 1.379 . S
C2090 N2097 1.356 . S
C2091 C2090 1.363 . S
C2091 C2094 1.363 . S
N2092 C2094 1.356 . S
N2092 H2104 0.984 . S
N2092 H2105 0.985 . S
N2093 C2095 1.356 . S
N2093 H2098 0.984 . S
N2093 H2099 0.985 . S
C2094 C2088 1.379 . S
C2094 C2091 1.363 . S
C2094 N2092 1.356 . S
C2095 C2089 1.363 . S
C2095 C2090 1.379 . S
C2095 N2093 1.356 . S
N2096 C2088 1.356 . S
N2096 H2102 0.984 . S
N2096 H2103 0.984 . S
N2097 C2090 1.356 . S
N2097 H2100 0.984 . S
N2097 H2101 0.985 . S
H2098 N2093 0.984 . S
H2099 N2093 0.985 . S
H2100 N2097 0.984 . S
H2101 N2097 0.985 . S
H2102 N2096 0.984 . S
H2103 N2096 0.984 . S
H2104 N2092 0.984 . S
H2105 N2092 0.985 . S
C2106 C2107 1.363 . S
C2106 C2112 1.379 . S
C2106 N2114 1.356 . S
C2107 C2106 1.363 . S
C2107 C2113 1.363 . S
C2108 C2109 1.363 . S
C2108 C2113 1.379 . S
C2108 N2115 1.356 . S
C2109 C2108 1.363 . S
C2109 C2112 1.363 . S
N2110 C2112 1.356 . S
N2110 H2122 0.984 1_565 S
N2110 H2123 0.985 . S
N2111 C2113 1.356 . S
N2111 H2116 0.984 . S
N2111 H2117 0.985 . S
C2112 C2106 1.379 . S
C2112 C2109 1.363 . S
C2112 N2110 1.356 . S
C2113 C2107 1.363 . S
C2113 C2108 1.379 . S
C2113 N2111 1.356 . S
N2114 C2106 1.356 . S
N2114 H2120 0.984 . S
N2114 H2121 0.984 . S
N2115 C2108 1.356 . S
N2115 H2118 0.984 . S
N2115 H2119 0.985 . S
H2116 N2111 0.984 . S
H2117 N2111 0.985 . S
H2118 N2115 0.984 . S
H2119 N2115 0.985 . S
H2120 N2114 0.984 . S
H2121 N2114 0.984 . S
H2122 N2110 0.984 1_545 S
H2123 N2110 0.985 . S
C2124 C2125 1.363 . S
C2124 C2130 1.379 . S
C2124 N2132 1.356 . S
C2125 C2124 1.363 . S
C2125 C2131 1.363 . S
C2126 C2127 1.363 . S
C2126 C2131 1.379 . S
C2126 N2133 1.356 . S
C2127 C2126 1.363 . S
C2127 C2130 1.363 . S
N2128 C2130 1.356 . S
N2128 H2140 0.984 . S
N2128 H2141 0.985 . S
N2129 C2131 1.356 . S
N2129 H2134 0.984 . S
N2129 H2135 0.985 . S
C2130 C2124 1.379 . S
C2130 C2127 1.363 . S
C2130 N2128 1.356 . S
C2131 C2125 1.363 . S
C2131 C2126 1.379 . S
C2131 N2129 1.356 . S
N2132 C2124 1.356 . S
N2132 H2138 0.984 . S
N2132 H2139 0.984 . S
N2133 C2126 1.356 . S
N2133 H2136 0.984 . S
N2133 H2137 0.985 . S
H2134 N2129 0.984 . S
H2135 N2129 0.985 . S
H2136 N2133 0.984 . S
H2137 N2133 0.985 . S
H2138 N2132 0.984 . S
H2139 N2132 0.984 . S
H2140 N2128 0.984 . S
H2141 N2128 0.985 . S
C2142 C2143 1.363 . S
C2142 C2148 1.379 . S
C2142 N2150 1.356 . S
C2143 C2142 1.363 . S
C2143 C2149 1.363 . S
C2144 C2145 1.363 . S
C2144 C2149 1.379 . S
C2144 N2151 1.356 . S
C2145 C2144 1.363 . S
C2145 C2148 1.363 . S
N2146 C2148 1.356 . S
N2146 H2158 0.984 . S
N2146 H2159 0.985 . S
N2147 C2149 1.356 . S
N2147 H2152 0.984 . S
N2147 H2153 0.985 . S
C2148 C2142 1.379 . S
C2148 C2145 1.363 . S
C2148 N2146 1.356 . S
C2149 C2143 1.363 . S
C2149 C2144 1.379 . S
C2149 N2147 1.356 . S
N2150 C2142 1.356 . S
N2150 H2156 0.984 . S
N2150 H2157 0.984 . S
N2151 C2144 1.356 . S
N2151 H2154 0.984 . S
N2151 H2155 0.985 . S
H2152 N2147 0.984 . S
H2153 N2147 0.985 . S
H2154 N2151 0.984 . S
H2155 N2151 0.985 . S
H2156 N2150 0.984 . S
H2157 N2150 0.984 . S
H2158 N2146 0.984 . S
H2159 N2146 0.985 . S
C2160 C2161 1.363 . S
C2160 C2166 1.379 . S
C2160 N2168 1.356 . S
C2161 C2160 1.363 . S
C2161 C2167 1.363 . S
C2162 C2163 1.363 . S
C2162 C2167 1.379 . S
C2162 N2169 1.356 . S
C2163 C2162 1.363 . S
C2163 C2166 1.363 . S
N2164 C2166 1.356 . S
N2164 H2176 0.984 . S
N2164 H2177 0.985 . S
N2165 C2167 1.356 . S
N2165 H2170 0.984 . S
N2165 H2171 0.985 . S
C2166 C2160 1.379 . S
C2166 C2163 1.363 . S
C2166 N2164 1.356 . S
C2167 C2161 1.363 . S
C2167 C2162 1.379 . S
C2167 N2165 1.356 . S
N2168 C2160 1.356 . S
N2168 H2174 0.984 . S
N2168 H2175 0.984 . S
N2169 C2162 1.356 . S
N2169 H2172 0.984 . S
N2169 H2173 0.985 . S
H2170 N2165 0.984 . S
H2171 N2165 0.985 . S
H2172 N2169 0.984 . S
H2173 N2169 0.985 . S
H2174 N2168 0.984 . S
H2175 N2168 0.984 . S
H2176 N2164 0.984 . S
H2177 N2164 0.985 . S
C2178 C2179 1.363 . S
C2178 C2184 1.379 . S
C2178 N2186 1.356 . S
C2179 C2178 1.363 . S
C2179 C2185 1.363 . S
C2180 C2181 1.363 . S
C2180 C2185 1.379 . S
C2180 N2187 1.356 . S
C2181 C2180 1.363 . S
C2181 C2184 1.363 . S
N2182 C2184 1.356 . S
N2182 H2194 0.984 . S
N2182 H2195 0.985 . S
N2183 C2185 1.356 . S
N2183 H2188 0.984 . S
N2183 H2189 0.985 . S
C2184 C2178 1.379 . S
C2184 C2181 1.363 . S
C2184 N2182 1.356 . S
C2185 C2179 1.363 . S
C2185 C2180 1.379 . S
C2185 N2183 1.356 . S
N2186 C2178 1.356 . S
N2186 H2192 0.984 . S
N2186 H2193 0.984 . S
N2187 C2180 1.356 . S
N2187 H2190 0.984 . S
N2187 H2191 0.985 . S
H2188 N2183 0.984 . S
H2189 N2183 0.985 . S
H2190 N2187 0.984 . S
H2191 N2187 0.985 . S
H2192 N2186 0.984 . S
H2193 N2186 0.984 . S
H2194 N2182 0.984 . S
H2195 N2182 0.985 . S
C2196 C2197 1.363 . S
C2196 C2202 1.379 . S
C2196 N2204 1.356 . S
C2197 C2196 1.363 . S
C2197 C2203 1.363 . S
C2198 C2199 1.363 . S
C2198 C2203 1.379 . S
C2198 N2205 1.356 . S
C2199 C2198 1.363 . S
C2199 C2202 1.363 . S
N2200 C2202 1.356 . S
N2200 H2212 0.984 . S
N2200 H2213 0.985 . S
N2201 C2203 1.356 . S
N2201 H2206 0.984 . S
N2201 H2207 0.985 . S
C2202 C2196 1.379 . S
C2202 C2199 1.363 . S
C2202 N2200 1.356 . S
C2203 C2197 1.363 . S
C2203 C2198 1.379 . S
C2203 N2201 1.356 . S
N2204 C2196 1.356 . S
N2204 H2210 0.984 . S
N2204 H2211 0.984 . S
N2205 C2198 1.356 . S
N2205 H2208 0.984 . S
N2205 H2209 0.985 . S
H2206 N2201 0.984 . S
H2207 N2201 0.985 . S
H2208 N2205 0.984 . S
H2209 N2205 0.985 . S
H2210 N2204 0.984 . S
H2211 N2204 0.984 . S
H2212 N2200 0.984 . S
H2213 N2200 0.985 . S
C2214 C2215 1.363 . S
C2214 C2220 1.379 . S
C2214 N2222 1.356 . S
C2215 C2214 1.363 . S
C2215 C2221 1.363 . S
C2216 C2217 1.363 . S
C2216 C2221 1.379 . S
C2216 N2223 1.356 . S
C2217 C2216 1.363 . S
C2217 C2220 1.363 . S
N2218 C2220 1.356 . S
N2218 H2230 0.984 . S
N2218 H2231 0.985 . S
N2219 C2221 1.356 . S
N2219 H2224 0.984 . S
N2219 H2225 0.985 . S
C2220 C2214 1.379 . S
C2220 C2217 1.363 . S
C2220 N2218 1.356 . S
C2221 C2215 1.363 . S
C2221 C2216 1.379 . S
C2221 N2219 1.356 . S
N2222 C2214 1.356 . S
N2222 H2228 0.984 . S
N2222 H2229 0.984 . S
N2223 C2216 1.356 . S
N2223 H2226 0.984 . S
N2223 H2227 0.985 . S
H2224 N2219 0.984 . S
H2225 N2219 0.985 . S
H2226 N2223 0.984 . S
H2227 N2223 0.985 . S
H2228 N2222 0.984 . S
H2229 N2222 0.984 . S
H2230 N2218 0.984 . S
H2231 N2218 0.985 . S
C2232 C2233 1.363 . S
C2232 C2238 1.379 . S
C2232 N2240 1.356 . S
C2233 C2232 1.363 . S
C2233 C2239 1.363 . S
C2234 C2235 1.363 . S
C2234 C2239 1.379 . S
C2234 N2241 1.356 . S
C2235 C2234 1.363 . S
C2235 C2238 1.363 . S
N2236 C2238 1.356 . S
N2236 H2248 0.984 . S
N2236 H2249 0.985 . S
N2237 C2239 1.356 . S
N2237 H2242 0.984 . S
N2237 H2243 0.985 . S
C2238 C2232 1.379 . S
C2238 C2235 1.363 . S
C2238 N2236 1.356 . S
C2239 C2233 1.363 . S
C2239 C2234 1.379 . S
C2239 N2237 1.356 . S
N2240 C2232 1.356 . S
N2240 H2246 0.984 . S
N2240 H2247 0.984 . S
N2241 C2234 1.356 . S
N2241 H2244 0.984 . S
N2241 H2245 0.985 . S
H2242 N2237 0.984 . S
H2243 N2237 0.985 . S
H2244 N2241 0.984 . S
H2245 N2241 0.985 . S
H2246 N2240 0.984 . S
H2247 N2240 0.984 . S
H2248 N2236 0.984 . S
H2249 N2236 0.985 . S
C2250 C2251 1.363 . S
C2250 C2256 1.379 . S
C2250 N2258 1.356 . S
C2251 C2250 1.363 . S
C2251 C2257 1.363 . S
C2252 C2253 1.363 . S
C2252 C2257 1.379 . S
C2252 N2259 1.356 . S
C2253 C2252 1.363 . S
C2253 C2256 1.363 . S
N2254 C2256 1.356 . S
N2254 H2266 0.984 . S
N2254 H2267 0.985 . S
N2255 C2257 1.356 . S
N2255 H2260 0.984 . S
N2255 H2261 0.985 . S
C2256 C2250 1.379 . S
C2256 C2253 1.363 . S
C2256 N2254 1.356 . S
C2257 C2251 1.363 . S
C2257 C2252 1.379 . S
C2257 N2255 1.356 . S
N2258 C2250 1.356 . S
N2258 H2264 0.984 . S
N2258 H2265 0.984 . S
N2259 C2252 1.356 . S
N2259 H2262 0.984 . S
N2259 H2263 0.985 . S
H2260 N2255 0.984 . S
H2261 N2255 0.985 . S
H2262 N2259 0.984 . S
H2263 N2259 0.985 . S
H2264 N2258 0.984 . S
H2265 N2258 0.984 . S
H2266 N2254 0.984 . S
H2267 N2254 0.985 . S
C2268 C2269 1.363 . S
C2268 C2274 1.379 . S
C2268 N2276 1.356 . S
C2269 C2268 1.363 . S
C2269 C2275 1.363 . S
C2270 C2271 1.363 . S
C2270 C2275 1.379 . S
C2270 N2277 1.356 . S
C2271 C2270 1.363 . S
C2271 C2274 1.363 . S
N2272 C2274 1.356 . S
N2272 H2284 0.984 . S
N2272 H2285 0.985 . S
N2273 C2275 1.356 . S
N2273 H2278 0.984 . S
N2273 H2279 0.985 . S
C2274 C2268 1.379 . S
C2274 C2271 1.363 . S
C2274 N2272 1.356 . S
C2275 C2269 1.363 . S
C2275 C2270 1.379 . S
C2275 N2273 1.356 . S
N2276 C2268 1.356 . S
N2276 H2282 0.984 . S
N2276 H2283 0.984 . S
N2277 C2270 1.356 . S
N2277 H2280 0.984 . S
N2277 H2281 0.985 . S
H2278 N2273 0.984 . S
H2279 N2273 0.985 . S
H2280 N2277 0.984 . S
H2281 N2277 0.985 . S
H2282 N2276 0.984 . S
H2283 N2276 0.984 . S
H2284 N2272 0.984 . S
H2285 N2272 0.985 . S
C2286 C2287 1.363 . S
C2286 C2292 1.379 . S
C2286 N2294 1.356 . S
C2287 C2286 1.363 . S
C2287 C2293 1.363 . S
C2288 C2289 1.363 . S
C2288 C2293 1.379 . S
C2288 N2295 1.356 . S
C2289 C2288 1.363 . S
C2289 C2292 1.363 . S
N2290 C2292 1.356 . S
N2290 H2302 0.984 . S
N2290 H2303 0.985 . S
N2291 C2293 1.356 . S
N2291 H2296 0.984 . S
N2291 H2297 0.985 . S
C2292 C2286 1.379 . S
C2292 C2289 1.363 . S
C2292 N2290 1.356 . S
C2293 C2287 1.363 . S
C2293 C2288 1.379 . S
C2293 N2291 1.356 . S
N2294 C2286 1.356 . S
N2294 H2300 0.984 . S
N2294 H2301 0.984 . S
N2295 C2288 1.356 . S
N2295 H2298 0.984 . S
N2295 H2299 0.985 . S
H2296 N2291 0.984 . S
H2297 N2291 0.985 . S
H2298 N2295 0.984 . S
H2299 N2295 0.985 . S
H2300 N2294 0.984 . S
H2301 N2294 0.984 . S
H2302 N2290 0.984 . S
H2303 N2290 0.985 . S
C2304 C2305 1.363 . S
C2304 C2310 1.379 . S
C2304 N2312 1.356 . S
C2305 C2304 1.363 . S
C2305 C2311 1.363 . S
C2306 C2307 1.363 1_554 S
C2306 C2311 1.378 . S
C2306 N2313 1.357 1_554 S
C2307 C2306 1.363 1_556 S
C2307 C2310 1.363 1_556 S
N2308 C2310 1.356 . S
N2308 H2320 0.984 . S
N2308 H2321 0.985 1_554 S
N2309 C2311 1.356 . S
N2309 H2314 0.984 . S
N2309 H2315 0.985 . S
C2310 C2304 1.379 . S
C2310 C2307 1.363 1_554 S
C2310 N2308 1.356 . S
C2311 C2305 1.363 . S
C2311 C2306 1.378 . S
C2311 N2309 1.356 . S
N2312 C2304 1.356 . S
N2312 H2318 0.984 . S
N2312 H2319 0.984 . S
N2313 C2306 1.357 1_556 S
N2313 H2316 0.984 . S
N2313 H2317 0.985 . S
H2314 N2309 0.984 . S
H2315 N2309 0.985 . S
H2316 N2313 0.984 . S
H2317 N2313 0.985 . S
H2318 N2312 0.984 . S
H2319 N2312 0.984 . S
H2320 N2308 0.984 . S
H2321 N2308 0.985 1_556 S
C2322 C2323 1.363 . S
C2322 C2328 1.379 . S
C2322 N2330 1.356 . S
C2323 C2322 1.363 . S
C2323 C2329 1.363 . S
C2324 C2325 1.363 . S
C2324 C2329 1.379 . S
C2324 N2331 1.356 . S
C2325 C2324 1.363 . S
C2325 C2328 1.363 . S
N2326 C2328 1.356 . S
N2326 H2338 0.984 . S
N2326 H2339 0.985 . S
N2327 C2329 1.356 . S
N2327 H2332 0.984 . S
N2327 H2333 0.985 . S
C2328 C2322 1.379 . S
C2328 C2325 1.363 . S
C2328 N2326 1.356 . S
C2329 C2323 1.363 . S
C2329 C2324 1.379 . S
C2329 N2327 1.356 . S
N2330 C2322 1.356 . S
N2330 H2336 0.984 . S
N2330 H2337 0.984 . S
N2331 C2324 1.356 . S
N2331 H2334 0.984 1_554 S
N2331 H2335 0.985 1_554 S
H2332 N2327 0.984 . S
H2333 N2327 0.985 . S
H2334 N2331 0.984 1_556 S
H2335 N2331 0.985 1_556 S
H2336 N2330 0.984 . S
H2337 N2330 0.984 . S
H2338 N2326 0.984 . S
H2339 N2326 0.985 . S
C2340 C2341 1.363 . S
C2340 C2346 1.379 . S
C2340 N2348 1.356 . S
C2341 C2340 1.363 . S
C2341 C2347 1.363 . S
C2342 C2343 1.363 . S
C2342 C2347 1.379 . S
C2342 N2349 1.356 . S
C2343 C2342 1.363 . S
C2343 C2346 1.363 . S
N2344 C2346 1.356 1_556 S
N2344 H2356 0.984 . S
N2344 H2357 0.985 . S
N2345 C2347 1.356 . S
N2345 H2350 0.984 . S
N2345 H2351 0.985 . S
C2346 C2340 1.379 . S
C2346 C2343 1.363 . S
C2346 N2344 1.356 1_554 S
C2347 C2341 1.363 . S
C2347 C2342 1.379 . S
C2347 N2345 1.356 . S
N2348 C2340 1.356 . S
N2348 H2354 0.984 . S
N2348 H2355 0.984 . S
N2349 C2342 1.356 . S
N2349 H2352 0.984 . S
N2349 H2353 0.985 . S
H2350 N2345 0.984 . S
H2351 N2345 0.985 . S
H2352 N2349 0.984 . S
H2353 N2349 0.985 . S
H2354 N2348 0.984 . S
H2355 N2348 0.984 . S
H2356 N2344 0.984 . S
H2357 N2344 0.985 . S
C1063 C7 1.396 . S
C1065 C814 1.406 . S
C1083 C742 1.778 . S
C1081 C39 1.770 . S
C1101 C776 1.561 . S
C1099 C62 1.552 1_565 S
C1117 C76 1.894 . S
C1119 C956 1.871 . S
C1135 C108 1.442 . S
C1137 C994 1.428 1_455 S
C1153 N117 1.368 . S
C1155 C1028 1.348 . S
C1173 C921 1.397 1_455 S
C1171 C16 1.384 . S
C1189 C30 1.830 . S
C1191 C849 1.834 . S
C1209 C884 1.536 . S
C1207 C53 1.547 1_556 S
C1225 C85 1.871 . S
C1227 C632 1.858 . S
C1245 C669 1.654 . S
C1243 C99 1.649 . S
C1261 N127 1.286 . S
C1263 C704 1.348 . S
C1279 N150 1.159 . S
C1281 C1030 1.177 . S
C1299 C958 1.547 . S
C1297 N173 1.533 . S
C1317 C992 1.419 . S
C1315 C200 1.395 . S
C1333 C214 1.701 . S
C1335 C524 1.688 . S
C1351 N232 1.505 . S
C1353 C562 1.504 . S
C1369 C260 1.478 . S
C1371 C596 1.472 . S
C1389 C489 1.260 . S
C1387 N140 1.226 . S
C1405 N163 1.282 . S
C1407 C417 1.327 . S
C1425 C452 1.634 . S
C1423 C191 1.637 . S
C1443 C848 1.955 . S
C1441 C223 1.969 . S
C1461 C885 1.483 . S
C1459 N242 1.420 . S
C1479 C920 1.527 . S
C1477 C269 1.530 . S
C1495 N288 1.344 . S
C1497 C598 1.362 . S
C1513 C315 1.518 . S
C1515 C526 1.554 . S
C1531 C338 1.624 . S
C1533 C560 1.637 . S
C1549 C352 1.885 . S
C1551 C740 1.872 . S
C1569 C778 1.549 . S
C1567 N370 1.560 . S
C1587 C812 1.552 . S
C1585 C398 1.547 . S
C1605 C705 1.218 . S
C1603 N278 1.144 . S
C1621 C306 1.740 . S
C1623 C633 1.753 . S
C1639 C329 1.633 . S
C1641 C668 1.625 1_655 S
C1659 C416 1.594 . S
C1657 C361 1.609 . S
C1675 N380 1.458 . S
C1677 C453 1.514 . S
C1695 C488 1.479 . S
C1693 C407 1.483 . S
C1713 C525 1.473 . S
C1711 N12 1.411 . S
C1729 N25 1.569 . S
C1731 C572 1.521 . S
C1749 C597 1.318 . S
C1747 N48 1.297 . S
C1767 C608 1.314 . S
C1765 N81 1.339 . S
C1785 C536 1.541 . S
C1783 N94 1.535 . S
C1803 C561 1.567 . S
C1801 C131 1.549 . S
C1821 C418 1.493 . S
C1819 N2 1.486 . S
C1837 N35 1.456 . S
C1839 C464 1.473 . S
C1855 N58 1.338 . S
C1857 C490 1.411 . S
C1875 C500 1.294 . S
C1873 N71 1.275 . S
C1893 C428 1.436 . S
C1891 N104 1.427 . S
C1911 C454 1.587 . S
C1909 C122 1.588 . S
C1927 C145 2.032 . S
C1929 C741 2.055 . S
C1945 C168 1.727 . S
C1947 C788 1.688 . S
C1963 N186 1.379 . S
C1965 C813 1.385 . S
C1983 C824 1.310 . S
C1981 N219 1.332 . S
C2001 C752 1.748 1_556 S
C1999 C246 1.814 . S
C2019 C777 1.475 . S
C2017 N265 1.445 . S
C2037 C634 1.976 . S
C2035 C154 1.968 . S
C2053 C177 1.834 . S
C2055 C680 1.741 . S
C2071 N196 1.243 . S
C2073 C706 1.291 . S
C2089 N209 1.147 . S
C2091 C716 1.204 . S
C2107 C237 1.887 . S
C2109 C644 1.856 . S
C2127 C670 1.430 . S
C2125 N255 1.395 . S
C2143 C283 1.780 . S
C2145 C957 1.789 . S
C2161 N301 1.444 . S
C2163 C1004 1.421 . S
C2179 N324 1.309 . S
C2181 C1029 1.319 . S
C2199 C1040 1.133 . S
C2197 N357 1.153 . S
C2217 C968 1.730 . S
C2215 C384 1.817 . S
C2233 N403 1.312 . S
C2235 C993 1.332 . S
C2251 C292 1.900 . S
C2253 C850 1.899 . S
C2271 C896 1.334 . S
C2269 N311 1.327 . S
C2287 N334 1.393 . S
C2289 C922 1.468 . S
C2305 N347 1.335 . S
C2307 C932 1.316 . S
C2325 C860 1.896 1_554 S
C2323 C375 1.933 . S
C2341 N393 1.346 . S
C2343 C886 1.381 1_554 S
