# Generated by pormake.
# Topology gar, (4,6)-cn, num edge types: 1
# Building blocks:
#     Node 0, Type 0, BuildingBlock: NAHDIM_clean_sbu_0, # of connection points: 4
#     Node 1, Type 0, BuildingBlock: NAHDIM_clean_sbu_0, # of connection points: 4
#     Node 2, Type 0, BuildingBlock: NAHDIM_clean_sbu_0, # of connection points: 4
#     Node 3, Type 0, BuildingBlock: NAHDIM_clean_sbu_0, # of connection points: 4
#     Node 4, Type 0, BuildingBlock: NAHDIM_clean_sbu_0, # of connection points: 4
#     Node 5, Type 0, BuildingBlock: NAHDIM_clean_sbu_0, # of connection points: 4
#     Node 6, Type 0, BuildingBlock: NAHDIM_clean_sbu_0, # of connection points: 4
#     Node 7, Type 0, BuildingBlock: NAHDIM_clean_sbu_0, # of connection points: 4
#     Node 8, Type 0, BuildingBlock: NAHDIM_clean_sbu_0, # of connection points: 4
#     Node 9, Type 0, BuildingBlock: NAHDIM_clean_sbu_0, # of connection points: 4
#     Node 10, Type 0, BuildingBlock: NAHDIM_clean_sbu_0, # of connection points: 4
#     Node 11, Type 0, BuildingBlock: NAHDIM_clean_sbu_0, # of connection points: 4
#     Node 12, Type 0, BuildingBlock: NAHDIM_clean_sbu_0, # of connection points: 4
#     Node 13, Type 0, BuildingBlock: NAHDIM_clean_sbu_0, # of connection points: 4
#     Node 14, Type 0, BuildingBlock: NAHDIM_clean_sbu_0, # of connection points: 4
#     Node 15, Type 0, BuildingBlock: NAHDIM_clean_sbu_0, # of connection points: 4
#     Node 16, Type 0, BuildingBlock: NAHDIM_clean_sbu_0, # of connection points: 4
#     Node 17, Type 0, BuildingBlock: NAHDIM_clean_sbu_0, # of connection points: 4
#     Node 18, Type 0, BuildingBlock: NAHDIM_clean_sbu_0, # of connection points: 4
#     Node 19, Type 0, BuildingBlock: NAHDIM_clean_sbu_0, # of connection points: 4
#     Node 20, Type 0, BuildingBlock: NAHDIM_clean_sbu_0, # of connection points: 4
#     Node 21, Type 0, BuildingBlock: NAHDIM_clean_sbu_0, # of connection points: 4
#     Node 22, Type 0, BuildingBlock: NAHDIM_clean_sbu_0, # of connection points: 4
#     Node 23, Type 0, BuildingBlock: NAHDIM_clean_sbu_0, # of connection points: 4
#     Node 24, Type 1, BuildingBlock: INOVEN_clean_sbu_0, # of connection points: 6
#     Node 25, Type 1, BuildingBlock: INOVEN_clean_sbu_0, # of connection points: 6
#     Node 26, Type 1, BuildingBlock: INOVEN_clean_sbu_0, # of connection points: 6
#     Node 27, Type 1, BuildingBlock: INOVEN_clean_sbu_0, # of connection points: 6
#     Node 28, Type 1, BuildingBlock: INOVEN_clean_sbu_0, # of connection points: 6
#     Node 29, Type 1, BuildingBlock: INOVEN_clean_sbu_0, # of connection points: 6
#     Node 30, Type 1, BuildingBlock: INOVEN_clean_sbu_0, # of connection points: 6
#     Node 31, Type 1, BuildingBlock: INOVEN_clean_sbu_0, # of connection points: 6
#     Node 32, Type 1, BuildingBlock: INOVEN_clean_sbu_0, # of connection points: 6
#     Node 33, Type 1, BuildingBlock: INOVEN_clean_sbu_0, # of connection points: 6
#     Node 34, Type 1, BuildingBlock: INOVEN_clean_sbu_0, # of connection points: 6
#     Node 35, Type 1, BuildingBlock: INOVEN_clean_sbu_0, # of connection points: 6
#     Node 36, Type 1, BuildingBlock: INOVEN_clean_sbu_0, # of connection points: 6
#     Node 37, Type 1, BuildingBlock: INOVEN_clean_sbu_0, # of connection points: 6
#     Node 38, Type 1, BuildingBlock: INOVEN_clean_sbu_0, # of connection points: 6
#     Node 39, Type 1, BuildingBlock: INOVEN_clean_sbu_0, # of connection points: 6
#     Edge 40, Type (0, 1), BuildingBlock: ZUJKAS_clean_linker_0, # of connection points: 2
#     Edge 41, Type (0, 1), BuildingBlock: ZUJKAS_clean_linker_0, # of connection points: 2
#     Edge 42, Type (0, 1), BuildingBlock: ZUJKAS_clean_linker_0, # of connection points: 2
#     Edge 43, Type (0, 1), BuildingBlock: ZUJKAS_clean_linker_0, # of connection points: 2
#     Edge 44, Type (0, 1), BuildingBlock: ZUJKAS_clean_linker_0, # of connection points: 2
#     Edge 45, Type (0, 1), BuildingBlock: ZUJKAS_clean_linker_0, # of connection points: 2
#     Edge 46, Type (0, 1), BuildingBlock: ZUJKAS_clean_linker_0, # of connection points: 2
#     Edge 47, Type (0, 1), BuildingBlock: ZUJKAS_clean_linker_0, # of connection points: 2
#     Edge 48, Type (0, 1), BuildingBlock: ZUJKAS_clean_linker_0, # of connection points: 2
#     Edge 49, Type (0, 1), BuildingBlock: ZUJKAS_clean_linker_0, # of connection points: 2
#     Edge 50, Type (0, 1), BuildingBlock: ZUJKAS_clean_linker_0, # of connection points: 2
#     Edge 51, Type (0, 1), BuildingBlock: ZUJKAS_clean_linker_0, # of connection points: 2
#     Edge 52, Type (0, 1), BuildingBlock: ZUJKAS_clean_linker_0, # of connection points: 2
#     Edge 53, Type (0, 1), BuildingBlock: ZUJKAS_clean_linker_0, # of connection points: 2
#     Edge 54, Type (0, 1), BuildingBlock: ZUJKAS_clean_linker_0, # of connection points: 2
#     Edge 55, Type (0, 1), BuildingBlock: ZUJKAS_clean_linker_0, # of connection points: 2
#     Edge 56, Type (0, 1), BuildingBlock: ZUJKAS_clean_linker_0, # of connection points: 2
#     Edge 57, Type (0, 1), BuildingBlock: ZUJKAS_clean_linker_0, # of connection points: 2
#     Edge 58, Type (0, 1), BuildingBlock: ZUJKAS_clean_linker_0, # of connection points: 2
#     Edge 59, Type (0, 1), BuildingBlock: ZUJKAS_clean_linker_0, # of connection points: 2
#     Edge 60, Type (0, 1), BuildingBlock: ZUJKAS_clean_linker_0, # of connection points: 2
#     Edge 61, Type (0, 1), BuildingBlock: ZUJKAS_clean_linker_0, # of connection points: 2
#     Edge 62, Type (0, 1), BuildingBlock: ZUJKAS_clean_linker_0, # of connection points: 2
#     Edge 63, Type (0, 1), BuildingBlock: ZUJKAS_clean_linker_0, # of connection points: 2
#     Edge 64, Type (0, 1), BuildingBlock: ZUJKAS_clean_linker_0, # of connection points: 2
#     Edge 65, Type (0, 1), BuildingBlock: ZUJKAS_clean_linker_0, # of connection points: 2
#     Edge 66, Type (0, 1), BuildingBlock: ZUJKAS_clean_linker_0, # of connection points: 2
#     Edge 67, Type (0, 1), BuildingBlock: ZUJKAS_clean_linker_0, # of connection points: 2
#     Edge 68, Type (0, 1), BuildingBlock: ZUJKAS_clean_linker_0, # of connection points: 2
#     Edge 69, Type (0, 1), BuildingBlock: ZUJKAS_clean_linker_0, # of connection points: 2
#     Edge 70, Type (0, 1), BuildingBlock: ZUJKAS_clean_linker_0, # of connection points: 2
#     Edge 71, Type (0, 1), BuildingBlock: ZUJKAS_clean_linker_0, # of connection points: 2
#     Edge 72, Type (0, 1), BuildingBlock: ZUJKAS_clean_linker_0, # of connection points: 2
#     Edge 73, Type (0, 1), BuildingBlock: ZUJKAS_clean_linker_0, # of connection points: 2
#     Edge 74, Type (0, 1), BuildingBlock: ZUJKAS_clean_linker_0, # of connection points: 2
#     Edge 75, Type (0, 1), BuildingBlock: ZUJKAS_clean_linker_0, # of connection points: 2
#     Edge 76, Type (0, 1), BuildingBlock: ZUJKAS_clean_linker_0, # of connection points: 2
#     Edge 77, Type (0, 1), BuildingBlock: ZUJKAS_clean_linker_0, # of connection points: 2
#     Edge 78, Type (0, 1), BuildingBlock: ZUJKAS_clean_linker_0, # of connection points: 2
#     Edge 79, Type (0, 1), BuildingBlock: ZUJKAS_clean_linker_0, # of connection points: 2
#     Edge 80, Type (0, 1), BuildingBlock: ZUJKAS_clean_linker_0, # of connection points: 2
#     Edge 81, Type (0, 1), BuildingBlock: ZUJKAS_clean_linker_0, # of connection points: 2
#     Edge 82, Type (0, 1), BuildingBlock: ZUJKAS_clean_linker_0, # of connection points: 2
#     Edge 83, Type (0, 1), BuildingBlock: ZUJKAS_clean_linker_0, # of connection points: 2
#     Edge 84, Type (0, 1), BuildingBlock: ZUJKAS_clean_linker_0, # of connection points: 2
#     Edge 85, Type (0, 1), BuildingBlock: ZUJKAS_clean_linker_0, # of connection points: 2
#     Edge 86, Type (0, 1), BuildingBlock: ZUJKAS_clean_linker_0, # of connection points: 2
#     Edge 87, Type (0, 1), BuildingBlock: ZUJKAS_clean_linker_0, # of connection points: 2
#     Edge 88, Type (0, 1), BuildingBlock: ZUJKAS_clean_linker_0, # of connection points: 2
#     Edge 89, Type (0, 1), BuildingBlock: ZUJKAS_clean_linker_0, # of connection points: 2
#     Edge 90, Type (0, 1), BuildingBlock: ZUJKAS_clean_linker_0, # of connection points: 2
#     Edge 91, Type (0, 1), BuildingBlock: ZUJKAS_clean_linker_0, # of connection points: 2
#     Edge 92, Type (0, 1), BuildingBlock: ZUJKAS_clean_linker_0, # of connection points: 2
#     Edge 93, Type (0, 1), BuildingBlock: ZUJKAS_clean_linker_0, # of connection points: 2
#     Edge 94, Type (0, 1), BuildingBlock: ZUJKAS_clean_linker_0, # of connection points: 2
#     Edge 95, Type (0, 1), BuildingBlock: ZUJKAS_clean_linker_0, # of connection points: 2
#     Edge 96, Type (0, 1), BuildingBlock: ZUJKAS_clean_linker_0, # of connection points: 2
#     Edge 97, Type (0, 1), BuildingBlock: ZUJKAS_clean_linker_0, # of connection points: 2
#     Edge 98, Type (0, 1), BuildingBlock: ZUJKAS_clean_linker_0, # of connection points: 2
#     Edge 99, Type (0, 1), BuildingBlock: ZUJKAS_clean_linker_0, # of connection points: 2
#     Edge 100, Type (0, 1), BuildingBlock: ZUJKAS_clean_linker_0, # of connection points: 2
#     Edge 101, Type (0, 1), BuildingBlock: ZUJKAS_clean_linker_0, # of connection points: 2
#     Edge 102, Type (0, 1), BuildingBlock: ZUJKAS_clean_linker_0, # of connection points: 2
#     Edge 103, Type (0, 1), BuildingBlock: ZUJKAS_clean_linker_0, # of connection points: 2
#     Edge 104, Type (0, 1), BuildingBlock: ZUJKAS_clean_linker_0, # of connection points: 2
#     Edge 105, Type (0, 1), BuildingBlock: ZUJKAS_clean_linker_0, # of connection points: 2
#     Edge 106, Type (0, 1), BuildingBlock: ZUJKAS_clean_linker_0, # of connection points: 2
#     Edge 107, Type (0, 1), BuildingBlock: ZUJKAS_clean_linker_0, # of connection points: 2
#     Edge 108, Type (0, 1), BuildingBlock: ZUJKAS_clean_linker_0, # of connection points: 2
#     Edge 109, Type (0, 1), BuildingBlock: ZUJKAS_clean_linker_0, # of connection points: 2
#     Edge 110, Type (0, 1), BuildingBlock: ZUJKAS_clean_linker_0, # of connection points: 2
#     Edge 111, Type (0, 1), BuildingBlock: ZUJKAS_clean_linker_0, # of connection points: 2
#     Edge 112, Type (0, 1), BuildingBlock: ZUJKAS_clean_linker_0, # of connection points: 2
#     Edge 113, Type (0, 1), BuildingBlock: ZUJKAS_clean_linker_0, # of connection points: 2
#     Edge 114, Type (0, 1), BuildingBlock: ZUJKAS_clean_linker_0, # of connection points: 2
#     Edge 115, Type (0, 1), BuildingBlock: ZUJKAS_clean_linker_0, # of connection points: 2
#     Edge 116, Type (0, 1), BuildingBlock: ZUJKAS_clean_linker_0, # of connection points: 2
#     Edge 117, Type (0, 1), BuildingBlock: ZUJKAS_clean_linker_0, # of connection points: 2
#     Edge 118, Type (0, 1), BuildingBlock: ZUJKAS_clean_linker_0, # of connection points: 2
#     Edge 119, Type (0, 1), BuildingBlock: ZUJKAS_clean_linker_0, # of connection points: 2
#     Edge 120, Type (0, 1), BuildingBlock: ZUJKAS_clean_linker_0, # of connection points: 2
#     Edge 121, Type (0, 1), BuildingBlock: ZUJKAS_clean_linker_0, # of connection points: 2
#     Edge 122, Type (0, 1), BuildingBlock: ZUJKAS_clean_linker_0, # of connection points: 2
#     Edge 123, Type (0, 1), BuildingBlock: ZUJKAS_clean_linker_0, # of connection points: 2
#     Edge 124, Type (0, 1), BuildingBlock: ZUJKAS_clean_linker_0, # of connection points: 2
#     Edge 125, Type (0, 1), BuildingBlock: ZUJKAS_clean_linker_0, # of connection points: 2
#     Edge 126, Type (0, 1), BuildingBlock: ZUJKAS_clean_linker_0, # of connection points: 2
#     Edge 127, Type (0, 1), BuildingBlock: ZUJKAS_clean_linker_0, # of connection points: 2
#     Edge 128, Type (0, 1), BuildingBlock: ZUJKAS_clean_linker_0, # of connection points: 2
#     Edge 129, Type (0, 1), BuildingBlock: ZUJKAS_clean_linker_0, # of connection points: 2
#     Edge 130, Type (0, 1), BuildingBlock: ZUJKAS_clean_linker_0, # of connection points: 2
#     Edge 131, Type (0, 1), BuildingBlock: ZUJKAS_clean_linker_0, # of connection points: 2
#     Edge 132, Type (0, 1), BuildingBlock: ZUJKAS_clean_linker_0, # of connection points: 2
#     Edge 133, Type (0, 1), BuildingBlock: ZUJKAS_clean_linker_0, # of connection points: 2
#     Edge 134, Type (0, 1), BuildingBlock: ZUJKAS_clean_linker_0, # of connection points: 2
#     Edge 135, Type (0, 1), BuildingBlock: ZUJKAS_clean_linker_0, # of connection points: 2
# Relax obj value: 0.166
# Max RMSD: 0.281
# Mean RMSD: 0.175
data_MOF--net-gar--node1-NAHDIM_clean_sbu_0--node2-INOVEN_clean_sbu_0--edge1-ZUJKAS_clean_linker_0
_symmetry_space_group_name_H-M    P1
_symmetry_Int_Tables_number       1
_symmetry_cell_setting            triclinic
loop_
_symmetry_equiv_pos_as_xyz
'x, y, z'
_cell_length_a     79.441415
_cell_length_b     72.977476
_cell_length_c     71.944345
_cell_angle_alpha  98.770803
_cell_angle_beta   95.191222
_cell_angle_gamma 103.24792
loop_
_atom_site_label
_atom_site_type_symbol
_atom_site_fract_x
_atom_site_fract_y
_atom_site_fract_z
_atom_type_partial_charge
C0 C 0.12161 0.31622 0.36776 0.0
O1 O 0.12254 0.31011 0.384 0.0
O2 O 0.08475 0.29055 0.38544 0.0
Zn3 Zn 0.08688 0.31408 0.37414 0.0
O4 O 0.08703 0.33605 0.39363 0.0
C5 C 0.05152 0.302 0.36078 0.0
O6 O 0.05167 0.29494 0.37651 0.0
O7 O 0.10743 0.31913 0.3609 0.0
C8 C 0.08989 0.35274 0.38976 0.0
O9 O 0.09431 0.35565 0.3731 0.0
C10 C 0.08372 0.2913 0.40303 0.0
O11 O 0.08602 0.30798 0.41407 0.0
O12 O 0.06574 0.31083 0.35609 0.0
C13 C 0.96412 0.74343 0.66536 0.0
O14 O 0.96951 0.7277 0.66539 0.0
O15 O 0.98863 0.72822 0.62848 0.0
Zn16 Zn 0.99176 0.75412 0.64358 0.0
O17 O 0.99607 0.77454 0.62808 0.0
C18 C 0.01753 0.74622 0.6699 0.0
O19 O 0.00747 0.72876 0.66653 0.0
O20 O 0.97163 0.75612 0.65663 0.0
C21 C 0.01176 0.78218 0.62635 0.0
O22 O 0.02442 0.77561 0.63373 0.0
C23 C 0.99687 0.72674 0.61428 0.0
O24 O 0.005 0.74223 0.60858 0.0
O25 O 0.01277 0.75917 0.66248 0.0
C26 C 0.62038 0.82601 0.86169 0.0
O27 O 0.62275 0.8416 0.87446 0.0
O28 O 0.58419 0.79275 0.88994 0.0
Zn29 Zn 0.58764 0.81378 0.87504 0.0
O30 O 0.59116 0.83912 0.8913 0.0
C31 C 0.55368 0.79586 0.85486 0.0
O32 O 0.55483 0.78178 0.86391 0.0
O33 O 0.60674 0.81267 0.86026 0.0
C34 C 0.57707 0.84286 0.8957 0.0
O35 O 0.56223 0.83003 0.88999 0.0
C36 C 0.57913 0.79403 0.9062 0.0
O37 O 0.5775 0.81053 0.91498 0.0
O38 O 0.56652 0.81027 0.85678 0.0
C39 C 0.46288 0.24189 0.16602 0.0
O40 O 0.46435 0.22426 0.16139 0.0
O41 O 0.48872 0.22642 0.13168 0.0
Zn42 Zn 0.49269 0.25279 0.14643 0.0
O43 O 0.49696 0.27409 0.13173 0.0
C44 C 0.52635 0.25017 0.15875 0.0
O45 O 0.52421 0.24035 0.14147 0.0
O46 O 0.47333 0.25547 0.16083 0.0
C47 C 0.50845 0.27661 0.1206 0.0
O48 O 0.51737 0.26377 0.11668 0.0
C49 C 0.48736 0.22121 0.11388 0.0
O50 O 0.48624 0.23365 0.1027 0.0
O51 O 0.51406 0.25691 0.1647 0.0
C52 C 0.03457 0.79338 0.12785 0.0
O53 O 0.03315 0.78573 0.10985 0.0
O54 O 0.06533 0.78046 0.10211 0.0
Zn55 Zn 0.07114 0.80513 0.12143 0.0
O56 O 0.07288 0.82895 0.10813 0.0
C57 C 0.1095 0.80828 0.13391 0.0
O58 O 0.11167 0.81392 0.11761 0.0
O59 O 0.04963 0.80279 0.13632 0.0
C60 C 0.06418 0.8278 0.09195 0.0
O61 O 0.05479 0.81095 0.08317 0.0
C62 C 0.07431 0.77568 0.08931 0.0
O63 O 0.08865 0.78784 0.08709 0.0
O64 O 0.0941 0.80484 0.13875 0.0
C65 C 0.54685 0.77745 0.39763 0.0
O66 O 0.54807 0.7846 0.41574 0.0
O67 O 0.50943 0.73935 0.41534 0.0
Zn68 Zn 0.51032 0.76383 0.40339 0.0
O69 O 0.5152 0.78788 0.42394 0.0
C70 C 0.47173 0.75621 0.38733 0.0
O71 O 0.46862 0.74696 0.40144 0.0
O72 O 0.53198 0.76772 0.38896 0.0
C73 C 0.50472 0.7987 0.42487 0.0
O74 O 0.48978 0.79323 0.41375 0.0
C75 C 0.51381 0.73983 0.43299 0.0
O76 O 0.518 0.75644 0.4445 0.0
O77 O 0.48762 0.76326 0.3852 0.0
C78 C 0.53779 0.28693 0.63373 0.0
O79 O 0.54158 0.27101 0.6263 0.0
O80 O 0.56965 0.28252 0.60143 0.0
Zn81 Zn 0.57139 0.30636 0.6209 0.0
O82 O 0.57195 0.33012 0.60797 0.0
C83 C 0.60773 0.30497 0.63283 0.0
O84 O 0.60741 0.30205 0.61431 0.0
O85 O 0.54864 0.30287 0.6338 0.0
C86 C 0.57106 0.33028 0.59016 0.0
O87 O 0.57141 0.31467 0.57855 0.0
C88 C 0.55707 0.27331 0.5888 0.0
O89 O 0.543 0.27975 0.58659 0.0
O90 O 0.59408 0.3082 0.63962 0.0
C91 C 0.0465 0.27739 0.89736 0.0
O92 O 0.04724 0.2861 0.9149 0.0
O93 O 0.0083 0.24091 0.91701 0.0
Zn94 Zn 0.00994 0.26415 0.9029 0.0
O95 O 0.01388 0.2899 0.9203 0.0
C96 C 0.97225 0.26054 0.88949 0.0
O97 O 0.97036 0.25828 0.90701 0.0
O98 O 0.03187 0.26675 0.8889 0.0
C99 C 0.01329 0.29521 0.93786 0.0
O100 O 0.00904 0.28236 0.94867 0.0
C101 C 0.01887 0.24105 0.93158 0.0
O102 O 0.03087 0.25684 0.93863 0.0
O103 O 0.98745 0.26232 0.88427 0.0
C104 C 0.40166 0.06366 0.28826 0.0
O105 O 0.41873 0.0671 0.28941 0.0
O106 O 0.41942 0.03639 0.25957 0.0
Zn107 Zn 0.40842 0.03025 0.28204 0.0
O108 O 0.42611 0.03343 0.30364 0.0
C109 C 0.40606 0.9928 0.2679 0.0
O110 O 0.4231 0.99917 0.27128 0.0
O111 O 0.39281 0.04669 0.2872 0.0
C112 C 0.42572 0.0205 0.31354 0.0
O113 O 0.41271 0.00514 0.31013 0.0
C114 C 0.43567 0.03932 0.25897 0.0
O115 O 0.44646 0.04365 0.27481 0.0
O116 O 0.39626 1.00356 0.2732 0.0
C117 C 0.31655 0.16904 0.50236 0.0
O118 O 0.31967 0.18778 0.50642 0.0
O119 O 0.28745 0.19314 0.51994 0.0
Zn120 Zn 0.28234 0.17498 0.49446 0.0
O121 O 0.28667 0.18943 0.472 0.0
C122 C 0.24693 0.1608 0.50474 0.0
O123 O 0.25325 0.17467 0.5193 0.0
O124 O 0.30091 0.15945 0.49628 0.0
C125 C 0.27785 0.20043 0.46603 0.0
O126 O 0.26422 0.20291 0.47422 0.0
C127 C 0.28596 0.21023 0.52396 0.0
O128 O 0.28081 0.21865 0.51041 0.0
O129 O 0.25672 0.15794 0.49194 0.0
C130 C 0.17182 0.96908 0.76546 0.0
O131 O 0.15487 0.96224 0.76405 0.0
O132 O 0.1462 0.00992 0.74264 0.0
Zn133 Zn 0.16234 0.01113 0.7696 0.0
O134 O 0.14864 0.01188 0.79589 0.0
C135 C 0.17496 0.05456 0.76864 0.0
O136 O 0.15803 0.05239 0.76519 0.0
O137 O 0.17744 0.98762 0.76754 0.0
C138 C 0.13262 0.01143 0.7987 0.0
O139 O 0.12133 0.01033 0.78385 0.0
C140 C 0.1299 1.00392 0.73585 0.0
O141 O 0.11911 0.99507 0.74625 0.0
O142 O 0.18034 0.03964 0.77151 0.0
C143 C 0.26497 0.93661 0.00365 0.0
O144 O 0.2628 0.91841 0.00462 0.0
O145 O 0.29383 0.91998 0.02612 0.0
Zn146 Zn 0.2973 0.93201 0.00361 0.0
O147 O 0.29663 0.91239 0.98108 0.0
C148 C 0.3313 0.94907 0.02259 0.0
O149 O 0.32673 0.93734 0.03436 0.0
O150 O 0.2796 0.94611 1.00071 0.0
C151 C 0.3106 0.91181 0.974 0.0
O152 O 0.3252 0.92445 0.98112 0.0
C153 C 0.29151 0.90222 0.02595 0.0
O154 O 0.28865 0.89036 0.00967 0.0
O155 O 0.32039 0.95002 0.00899 0.0
C156 C 0.2648 0.3999 0.02277 0.0
O157 O 0.26148 0.3812 0.01822 0.0
O158 O 0.30099 0.38166 0.05258 0.0
Zn159 Zn 0.29984 0.39461 0.02897 0.0
O160 O 0.29328 0.37546 0.00453 0.0
C161 C 0.33767 0.41467 0.0384 0.0
O162 O 0.33651 0.40703 0.05377 0.0
O163 O 0.28052 0.40934 0.02862 0.0
C164 C 0.2976 0.35982 0.99998 0.0
O165 O 0.30717 0.35391 0.01254 0.0
C166 C 0.28915 0.3677 0.0555 0.0
O167 O 0.27537 0.36063 0.04273 0.0
O168 O 0.32398 0.41182 0.02652 0.0
C169 C 0.8161 0.13294 0.02079 0.0
O170 O 0.81647 0.15087 0.01985 0.0
O171 O 0.78728 0.15313 0.05328 0.0
Zn172 Zn 0.78411 0.13515 0.02879 0.0
O173 O 0.78202 0.14797 0.00635 0.0
C174 C 0.74961 0.12173 0.03186 0.0
O175 O 0.75313 0.13654 0.04573 0.0
O176 O 0.80307 0.12268 0.02629 0.0
C177 C 0.76918 0.15505 0.00277 0.0
O178 O 0.75761 0.15533 0.01464 0.0
C179 C 0.78736 0.17058 0.05369 0.0
O180 O 0.78787 0.17771 0.03802 0.0
O181 O 0.76201 0.1158 0.0253 0.0
C182 C 0.18072 0.50977 0.24023 0.0
O183 O 0.1636 0.50427 0.23721 0.0
O184 O 0.15515 0.53256 0.21404 0.0
Zn185 Zn 0.1703 0.54117 0.238 0.0
O186 O 0.15642 0.53709 0.25898 0.0
C187 C 0.17144 0.58026 0.24833 0.0
O188 O 0.15685 0.5736 0.25495 0.0
O189 O 0.18818 0.52695 0.23975 0.0
C190 C 0.16405 0.54045 0.27577 0.0
O191 O 0.18116 0.54425 0.27878 0.0
C192 C 0.14013 0.5356 0.21443 0.0
O193 O 0.13535 0.54217 0.2306 0.0
O194 O 0.17984 0.56894 0.24062 0.0
C195 C 0.76464 0.90245 0.52863 0.0
O196 O 0.7609 0.88704 0.53634 0.0
O197 O 0.79643 0.88274 0.55458 0.0
Zn198 Zn 0.79894 0.89401 0.52984 0.0
O199 O 0.79303 0.87293 0.50676 0.0
C200 C 0.83777 0.91199 0.53896 0.0
O201 O 0.83712 0.90199 0.5527 0.0
O202 O 0.78026 0.9088 0.52547 0.0
C203 C 0.80421 0.8652 0.49939 0.0
O204 O 0.82031 0.86974 0.50796 0.0
C205 C 0.8026 0.86878 0.55814 0.0
O206 O 0.81148 0.8613 0.54582 0.0
O207 O 0.82365 0.91103 0.52842 0.0
C208 C 0.90858 0.10101 0.26379 0.0
O209 O 0.92441 0.10722 0.27305 0.0
O210 O 0.93265 0.05813 0.2283 0.0
Zn211 Zn 0.91907 0.05987 0.25453 0.0
O212 O 0.93594 0.06408 0.2816 0.0
C213 C 0.90578 0.01561 0.25303 0.0
O214 O 0.92219 0.01612 0.25136 0.0
O215 O 0.90392 0.0831 0.25557 0.0
C216 C 0.94724 0.05465 0.28579 0.0
O217 O 0.9506 0.04248 0.27208 0.0
C218 C 0.94898 0.06116 0.22584 0.0
O219 O 0.96057 0.06654 0.24109 0.0
O220 O 0.9011 0.03153 0.25377 0.0
C221 C 0.3155 0.63329 0.52065 0.0
O222 O 0.31536 0.65093 0.51897 0.0
O223 O 0.28621 0.65309 0.55309 0.0
Zn224 Zn 0.28321 0.6345 0.52925 0.0
O225 O 0.28122 0.64791 0.50716 0.0
C226 C 0.24885 0.6172 0.53398 0.0
O227 O 0.25137 0.63125 0.54849 0.0
O228 O 0.3029 0.62312 0.52692 0.0
C229 C 0.26648 0.6479 0.49878 0.0
O230 O 0.25221 0.63923 0.50472 0.0
C231 C 0.27882 0.66676 0.55286 0.0
O232 O 0.27002 0.66828 0.5371 0.0
O233 O 0.26181 0.61389 0.5263 0.0
C234 C 0.40717 0.60026 0.76663 0.0
O235 O 0.42079 0.60485 0.77975 0.0
O236 O 0.4329 0.55659 0.7298 0.0
Zn237 Zn 0.41919 0.56015 0.7558 0.0
O238 O 0.43586 0.56463 0.78292 0.0
C239 C 0.40313 0.51567 0.74861 0.0
O240 O 0.41595 0.5153 0.73835 0.0
O241 O 0.40421 0.58356 0.75573 0.0
C242 C 0.44865 0.55712 0.78693 0.0
O243 O 0.45372 0.54677 0.77295 0.0
C244 C 0.44706 0.56668 0.72512 0.0
O245 O 0.45571 0.5819 0.73739 0.0
O246 O 0.40148 0.53222 0.75643 0.0
C247 C 0.67892 0.00904 0.73929 0.0
O248 O 0.66206 0.00648 0.73962 0.0
O249 O 0.65627 0.03834 0.7152 0.0
Zn250 Zn 0.67307 0.04309 0.73764 0.0
O251 O 0.66233 0.04315 0.76148 0.0
C252 C 0.67675 0.08116 0.73994 0.0
O253 O 0.65988 0.07523 0.74003 0.0
O254 O 0.68773 0.025 0.73665 0.0
C255 C 0.64686 0.04418 0.76339 0.0
O256 O 0.63603 0.04449 0.74863 0.0
C257 C 0.64114 0.02763 0.71007 0.0
O258 O 0.6344 0.01481 0.72006 0.0
O259 O 0.68624 0.06932 0.73883 0.0
C260 C 0.81557 0.66871 0.9985 0.0
O261 O 0.81923 0.6871 0.99793 0.0
O262 O 0.78649 0.69397 0.01859 0.0
Zn263 Zn 0.7815 0.67554 0.99341 0.0
O264 O 0.78644 0.68934 0.97061 0.0
C265 C 0.7487 0.65553 0.00555 0.0
O266 O 0.75857 0.66058 0.02206 0.0
O267 O 0.79956 0.65952 0.99629 0.0
C268 C 0.77804 0.70067 0.96458 0.0
O269 O 0.7647 0.70392 0.9729 0.0
C270 C 0.78467 0.71091 0.02273 0.0
O271 O 0.77913 0.71926 0.00933 0.0
O272 O 0.75554 0.65983 0.99086 0.0
C273 C 0.90868 0.57147 0.78757 0.0
O274 O 0.92574 0.57785 0.79023 0.0
O275 O 0.93207 0.54287 0.76057 0.0
Zn276 Zn 0.9168 0.53653 0.78001 0.0
O277 O 0.92894 0.53479 0.80412 0.0
C278 C 0.90307 0.49952 0.75667 0.0
O279 O 0.91663 0.50325 0.74746 0.0
O280 O 0.90202 0.55371 0.78388 0.0
C281 C 0.93363 0.51954 0.80543 0.0
O282 O 0.93143 0.50602 0.79047 0.0
C283 C 0.94705 0.53953 0.76129 0.0
O284 O 0.95443 0.53667 0.77731 0.0
O285 O 0.90105 0.51176 0.77022 0.0
C286 C 0.76639 0.43718 0.50872 0.0
O287 O 0.76553 0.41943 0.5108 0.0
O288 O 0.79886 0.41829 0.52145 0.0
Zn289 Zn 0.79875 0.43414 0.50132 0.0
O290 O 0.79716 0.41783 0.47627 0.0
C291 C 0.82913 0.45834 0.52331 0.0
O292 O 0.82142 0.45265 0.53756 0.0
O293 O 0.77975 0.44673 0.50312 0.0
C294 C 0.81124 0.41619 0.46991 0.0
O295 O 0.82628 0.42634 0.47925 0.0
C296 C 0.80891 0.40709 0.52103 0.0
O297 O 0.81754 0.40484 0.50652 0.0
O298 O 0.82101 0.45349 0.50663 0.0
C299 C 0.67758 0.47222 0.25734 0.0
O300 O 0.6694 0.47121 0.24037 0.0
O301 O 0.64535 0.5058 0.24299 0.0
Zn302 Zn 0.66157 0.50976 0.27032 0.0
O303 O 0.64593 0.50803 0.29476 0.0
C304 C 0.6785 0.5504 0.26082 0.0
O305 O 0.66814 0.54308 0.24485 0.0
O306 O 0.67644 0.48615 0.27052 0.0
C307 C 0.6375 0.51929 0.30344 0.0
O308 O 0.63709 0.53524 0.2973 0.0
C309 C 0.63294 0.51403 0.23961 0.0
O310 O 0.6286 0.5245 0.25406 0.0
O311 O 0.6786 0.53951 0.27349 0.0
Gd312 Gd 0.02197 0.02321 1.00016 0.0
Gd313 Gd 0.05614 0.04385 0.02204 0.0
C314 C 0.03504 0.06932 0.002 0.0
C315 C 0.98876 0.01102 0.99057 0.0
C316 C 0.97496 0.02111 0.98948 0.0
C317 C 0.96029 0.01339 0.97591 0.0
C318 C 0.9772 0.03935 1.00044 0.0
C319 C 0.9498 0.04175 0.9846 0.0
C320 C 0.96465 0.04963 0.99801 0.0
C321 C 0.94772 0.02363 0.97351 0.0
C322 C 0.04535 0.0213 0.97416 0.0
C323 C 0.0434 0.9977 0.01975 0.0
C324 C 0.08921 0.05554 0.032 0.0
C325 C 0.10275 0.04499 0.03197 0.0
C326 C 0.11434 0.04753 0.04857 0.0
C327 C 0.10298 0.03088 0.01641 0.0
C328 C 0.12703 0.02295 0.03372 0.0
C329 C 0.11524 0.02004 0.01723 0.0
C330 C 0.12641 0.03648 0.04948 0.0
C331 C 0.03293 0.04568 0.04815 0.0
O332 O 0.02213 0.05373 0.99734 0.0
O333 O 0.05 0.06914 0.01137 0.0
O334 O 0.99975 0.01448 0.97841 0.0
O335 O 0.99637 0.01127 0.00754 0.0
O336 O 0.02891 0.01301 0.97136 0.0
O337 O 0.0492 0.0295 0.99166 0.0
O338 O 0.0563 0.01329 0.02414 0.0
O339 O 0.02826 0.99788 0.01078 0.0
O340 O 0.07817 0.05118 0.04391 0.0
O341 O 0.08175 0.05702 0.01549 0.0
O342 O 0.04935 0.05401 0.05083 0.0
O343 O 0.02895 0.03749 0.03064 0.0
H344 H 0.95868 0.99955 0.96702 0.0
H345 H 0.98869 0.04567 0.01074 0.0
H346 H 0.96638 0.06354 0.00681 0.0
H347 H 0.9364 0.01745 0.96297 0.0
H348 H 0.11397 0.05801 0.06084 0.0
H349 H 0.09375 0.02823 0.00368 0.0
H350 H 0.11574 0.00962 0.00495 0.0
H351 H 0.13562 0.0389 0.0622 0.0
Gd352 Gd 0.29899 0.77778 0.23785 0.0
Gd353 Gd 0.28315 0.78052 0.27771 0.0
C354 C 0.29702 0.8182 0.26115 0.0
C355 C 0.30408 0.77735 0.20333 0.0
C356 C 0.31487 0.79189 0.19466 0.0
C357 C 0.32648 0.78665 0.18258 0.0
C358 C 0.31386 0.81107 0.19851 0.0
C359 C 0.33371 0.81877 0.17574 0.0
C360 C 0.3232 0.82443 0.189 0.0
C361 C 0.33589 0.80005 0.17315 0.0
C362 C 0.32479 0.78509 0.26823 0.0
C363 C 0.28885 0.74061 0.25621 0.0
C364 C 0.27746 0.78121 0.31205 0.0
C365 C 0.26774 0.76571 0.32029 0.0
C366 C 0.25762 0.76959 0.33461 0.0
C367 C 0.26885 0.74687 0.31408 0.0
C368 C 0.25335 0.73688 0.33939 0.0
C369 C 0.26173 0.73249 0.32366 0.0
C370 C 0.25037 0.75511 0.34418 0.0
C371 C 0.25713 0.77417 0.24768 0.0
O372 O 0.29754 0.80806 0.24446 0.0
O373 O 0.29427 0.81098 0.27662 0.0
O374 O 0.31269 0.76926 0.21468 0.0
O375 O 0.2903 0.78162 0.20982 0.0
O376 O 0.3277 0.78436 0.25073 0.0
O377 O 0.30861 0.7832 0.26808 0.0
O378 O 0.28677 0.75101 0.27214 0.0
O379 O 0.29032 0.74705 0.24011 0.0
O380 O 0.26809 0.78784 0.30005 0.0
O381 O 0.29209 0.77864 0.30633 0.0
O382 O 0.25464 0.77483 0.26525 0.0
O383 O 0.27325 0.77548 0.24727 0.0
H384 H 0.32773 0.77204 0.17987 0.0
H385 H 0.3053 0.81557 0.20819 0.0
H386 H 0.3211 0.83872 0.19087 0.0
H387 H 0.34392 0.79551 0.16285 0.0
H388 H 0.25629 0.78398 0.33915 0.0
H389 H 0.27626 0.74346 0.30273 0.0
H390 H 0.26432 0.71851 0.32007 0.0
H391 H 0.24408 0.75863 0.35653 0.0
Gd392 Gd 0.5635 0.0392 0.50833 0.0
Gd393 Gd 0.52338 0.03453 0.50959 0.0
C394 C 0.5366 0.99664 0.50234 0.0
C395 C 0.59521 0.03552 0.51092 0.0
C396 C 0.60457 0.02034 0.50621 0.0
C397 C 0.61764 0.0231 0.49429 0.0
C398 C 0.6013 1.00358 0.51409 0.0
C399 C 0.62527 0.99364 0.49976 0.0
C400 C 0.61151 0.99039 0.51087 0.0
C401 C 0.62786 0.00992 0.49108 0.0
C402 C 0.54408 0.03885 0.47613 0.0
C403 C 0.55074 0.07732 0.5169 0.0
C404 C 0.49156 0.03788 0.50498 0.0
C405 C 0.48112 0.05202 0.51008 0.0
C406 C 0.4695 0.04909 0.52359 0.0
C407 C 0.48148 0.06756 0.50056 0.0
C408 C 0.45785 0.07592 0.51687 0.0
C409 C 0.47001 0.07938 0.50394 0.0
C410 C 0.45806 0.0609 0.52698 0.0
C411 C 0.54256 0.03516 0.54211 0.0
O412 O 0.55254 0.00762 0.50823 0.0
O413 O 0.52306 1.00393 0.49886 0.0
O414 O 0.58793 0.0413 0.49658 0.0
O415 O 0.58572 0.03437 0.52491 0.0
O416 O 0.55974 0.0497 0.48079 0.0
O417 O 0.53991 0.0284 0.48803 0.0
O418 O 0.53465 0.06644 0.51143 0.0
O419 O 0.56434 0.06987 0.51936 0.0
O420 O 0.4977 0.03039 0.51874 0.0
O421 O 0.50244 0.04123 0.4925 0.0
O422 O 0.52648 0.02529 0.53792 0.0
O423 O 0.54693 0.04516 0.5299 0.0
H424 H 0.62035 0.03582 0.48793 0.0
H425 H 0.59115 1.00087 0.52312 0.0
H426 H 0.60885 0.97781 0.51745 0.0
H427 H 0.63835 0.01304 0.48254 0.0
H428 H 0.46888 0.03727 0.53118 0.0
H429 H 0.49022 0.07027 0.49004 0.0
H430 H 0.47016 0.09069 0.49577 0.0
H431 H 0.44912 0.058 0.53729 0.0
Gd432 Gd 0.27092 0.29037 0.76019 0.0
Gd433 Gd 0.30959 0.2818 0.76362 0.0
C434 C 0.29402 0.29598 0.80164 0.0
C435 C 0.23797 0.28672 0.76291 0.0
C436 C 0.22621 0.28957 0.77759 0.0
C437 C 0.22045 0.30651 0.78105 0.0
C438 C 0.21938 0.2746 0.78712 0.0
C439 C 0.20048 0.29285 0.80214 0.0
C440 C 0.20675 0.27624 0.79922 0.0
C441 C 0.20781 0.30817 0.79327 0.0
C442 C 0.29715 0.3233 0.76129 0.0
C443 C 0.28643 0.27607 0.72211 0.0
C444 C 0.34253 0.28664 0.76034 0.0
C445 C 0.35409 0.28304 0.74567 0.0
C446 C 0.36555 0.27128 0.74822 0.0
C447 C 0.35497 0.29245 0.72995 0.0
C448 C 0.37936 0.27949 0.72051 0.0
C449 C 0.36741 0.29069 0.71756 0.0
C450 C 0.37797 0.26948 0.73582 0.0
C451 C 0.28395 0.2484 0.76267 0.0
O452 O 0.27892 0.29483 0.7915 0.0
O453 O 0.30797 0.29248 0.79432 0.0
O454 O 0.2479 0.30184 0.75824 0.0
O455 O 0.24582 0.27285 0.76347 0.0
O456 O 0.28059 0.32264 0.76002 0.0
O457 O 0.29826 0.30629 0.7619 0.0
O458 O 0.30139 0.27701 0.73239 0.0
O459 O 0.27254 0.27983 0.7294 0.0
O460 O 0.33345 0.27189 0.76646 0.0
O461 O 0.33388 0.29968 0.75858 0.0
O462 O 0.30068 0.24988 0.76404 0.0
O463 O 0.28203 0.26524 0.76191 0.0
H464 H 0.22531 0.31828 0.77388 0.0
H465 H 0.22342 0.26132 0.78483 0.0
H466 H 0.20164 0.26428 0.80605 0.0
H467 H 0.20324 0.32113 0.7951 0.0
H468 H 0.36528 0.26391 0.76022 0.0
H469 H 0.34631 0.30158 0.72743 0.0
H470 H 0.36778 0.29833 0.70577 0.0
H471 H 0.38697 0.26085 0.73875 0.0
Gd472 Gd 0.03746 0.05606 0.52195 0.0
Gd473 Gd 0.04167 0.01972 0.5058 0.0
C474 C 0.02714 0.04152 0.47549 0.0
C475 C 0.03726 0.09169 0.52852 0.0
C476 C 0.03559 0.10498 0.51554 0.0
C477 C 0.02589 0.1185 0.51966 0.0
C478 C 0.04328 0.1039 0.4987 0.0
C479 C 0.03257 0.13069 0.49089 0.0
C480 C 0.04182 0.11669 0.4865 0.0
C481 C 0.02437 0.13129 0.50741 0.0
C482 C 0.0096 0.02725 0.5244 0.0
C483 C 0.05217 0.0343 0.55196 0.0
C484 C 0.04175 0.9841 0.49937 0.0
C485 C 0.04144 0.97049 0.51233 0.0
C486 C 0.05078 0.95647 0.50935 0.0
C487 C 0.03259 0.97208 0.52832 0.0
C488 C 0.0417 0.945 0.5377 0.0
C489 C 0.03272 0.95941 0.54091 0.0
C490 C 0.05089 0.94374 0.52194 0.0
C491 C 0.0695 0.04829 0.50296 0.0
O492 O 0.03152 0.05611 0.48995 0.0
O493 O 0.02874 0.02449 0.47825 0.0
O494 O 0.02337 0.07798 0.52823 0.0
O495 O 0.05159 0.08576 0.52885 0.0
O496 O 0.01683 0.04134 0.53818 0.0
O497 O 0.01758 0.02896 0.51009 0.0
O498 O 0.04613 0.01944 0.53797 0.0
O499 O 0.05202 0.05159 0.54877 0.0
O500 O 0.05599 0.9978 0.50183 0.0
O501 O 0.02758 0.99014 0.49688 0.0
O502 O 0.06233 0.03388 0.48952 0.0
O503 O 0.06161 0.04689 0.51739 0.0
H504 H 0.01962 0.11927 0.53243 0.0
H505 H 0.05067 0.09339 0.49509 0.0
H506 H 0.04846 0.11603 0.47399 0.0
H507 H 0.01698 0.1418 0.51098 0.0
H508 H 0.05789 0.9553 0.49723 0.0
H509 H 0.02553 0.98307 0.53106 0.0
H510 H 0.02575 0.96084 0.55311 0.0
H511 H 0.05779 0.93263 0.51906 0.0
Gd512 Gd 0.30516 0.79909 0.76664 0.0
Gd513 Gd 0.27217 0.76885 0.76443 0.0
C514 C 0.3076 0.75359 0.76751 0.0
C515 C 0.3359 0.82096 0.77643 0.0
C516 C 0.35316 0.81689 0.7786 0.0
C517 C 0.36426 0.82018 0.7647 0.0
C518 C 0.3584 0.80894 0.79408 0.0
C519 C 0.38566 0.80798 0.7819 0.0
C520 C 0.3745 0.80452 0.7957 0.0
C521 C 0.38039 0.81571 0.76632 0.0
C522 C 0.29067 0.78158 0.73173 0.0
C523 C 0.26998 0.81452 0.76318 0.0
C524 C 0.24158 0.74696 0.75321 0.0
C525 C 0.2242 0.75073 0.75027 0.0
C526 C 0.21487 0.75414 0.7656 0.0
C527 C 0.21716 0.7518 0.73198 0.0
C528 C 0.19198 0.76004 0.74437 0.0
C529 C 0.20125 0.75651 0.72907 0.0
C530 C 0.19886 0.75875 0.76266 0.0
C531 C 0.28673 0.78597 0.79948 0.0
O532 O 0.31576 0.77227 0.77122 0.0
O533 O 0.29036 0.7485 0.76286 0.0
O534 O 0.32795 0.81748 0.75904 0.0
O535 O 0.32553 0.81538 0.78874 0.0
O536 O 0.29786 0.79981 0.73577 0.0
O537 O 0.29218 0.77382 0.74592 0.0
O538 O 0.26167 0.79588 0.76038 0.0
O539 O 0.28725 0.81956 0.76731 0.0
O540 O 0.24905 0.74989 0.77078 0.0
O541 O 0.25234 0.75326 0.74151 0.0
O542 O 0.27897 0.76786 0.79533 0.0
O543 O 0.28533 0.79395 0.78537 0.0
H544 H 0.36045 0.82618 0.75257 0.0
H545 H 0.35013 0.80617 0.80502 0.0
H546 H 0.37843 0.79888 0.80804 0.0
H547 H 0.3888 0.81841 0.75548 0.0
H548 H 0.21995 0.7534 0.77988 0.0
H549 H 0.224 0.7491 0.71987 0.0
H550 H 0.19602 0.75696 0.71476 0.0
H551 H 0.19188 0.76136 0.77466 0.0
Gd552 Gd 0.5485 0.03254 0.03857 0.0
Gd553 Gd 0.54291 0.03303 0.99735 0.0
C554 C 0.50987 0.02121 0.01508 0.0
C555 C 0.5455 0.03116 0.07338 0.0
C556 C 0.53101 0.01944 0.0808 0.0
C557 C 0.53424 0.00692 0.09286 0.0
C558 C 0.51373 0.0196 0.07477 0.0
C559 C 0.50341 0.99773 0.09561 0.0
C560 C 0.50001 0.00869 0.082 0.0
C561 C 0.52048 0.99608 0.10026 0.0
C562 C 0.55021 1.00038 0.01583 0.0
C563 C 0.58142 0.04529 0.02027 0.0
C564 C 0.54584 0.03168 0.96207 0.0
C565 C 0.55819 0.04417 0.95256 0.0
C566 C 0.5539 0.06009 0.94638 0.0
C567 C 0.57456 0.04064 0.95006 0.0
C568 C 0.58134 0.06754 0.93362 0.0
C569 C 0.58604 0.05224 0.9407 0.0
C570 C 0.56542 0.07173 0.93707 0.0
C571 C 0.54102 0.06555 0.0196 0.0
O572 O 0.51974 0.02973 0.03121 0.0
O573 O 0.51668 0.01648 0.99968 0.0
O574 O 0.55474 0.0214 0.0638 0.0
O575 O 0.54206 0.04508 0.06537 0.0
O576 O 0.56099 0.00831 0.03096 0.0
O577 O 0.53903 0.00972 0.01343 0.0
O578 O 0.57146 0.03629 0.00444 0.0
O579 O 0.57491 0.04951 0.03607 0.0
O580 O 0.53452 0.03947 0.97026 0.0
O581 O 0.55238 0.02094 0.97226 0.0
O582 O 0.53148 0.05836 0.00348 0.0
O583 O 0.552 0.05608 0.02266 0.0
H584 H 0.54745 0.00608 0.09709 0.0
H585 H 0.51081 0.02872 0.06506 0.0
H586 H 0.48689 0.01006 0.07819 0.0
H587 H 0.52336 0.98773 0.11082 0.0
H588 H 0.54148 0.06334 0.94837 0.0
H589 H 0.57835 0.02862 0.95487 0.0
H590 H 0.59812 0.04846 0.93798 0.0
H591 H 0.56157 0.08351 0.93182 0.0
Gd592 Gd 0.30189 0.31023 0.27452 0.0
Gd593 Gd 0.28701 0.27136 0.25623 0.0
C594 C 0.26016 0.29343 0.26867 0.0
C595 C 0.30954 0.34665 0.28622 0.0
C596 C 0.2988 0.36022 0.2896 0.0
C597 C 0.30471 0.37626 0.30401 0.0
C598 C 0.28229 0.35677 0.27909 0.0
C599 C 0.27801 0.38591 0.29677 0.0
C600 C 0.27192 0.36952 0.28269 0.0
C601 C 0.29438 0.38914 0.30753 0.0
C602 C 0.3019 0.28521 0.29882 0.0
C603 C 0.32865 0.28731 0.26366 0.0
C604 C 0.27943 0.2353 0.24311 0.0
C605 C 0.2901 0.22163 0.24322 0.0
C606 C 0.28763 0.20658 0.22788 0.0
C607 C 0.30375 0.2245 0.25797 0.0
C608 C 0.3118 0.19662 0.24257 0.0
C609 C 0.31456 0.21205 0.25764 0.0
C610 C 0.29847 0.19406 0.22755 0.0
C611 C 0.28713 0.29638 0.23209 0.0
O612 O 0.27307 0.30869 0.26967 0.0
O613 O 0.26274 0.27622 0.26602 0.0
O614 O 0.30838 0.33434 0.29768 0.0
O615 O 0.30913 0.3389 0.2685 0.0
O616 O 0.31459 0.29993 0.29883 0.0
O617 O 0.28949 0.28469 0.28632 0.0
O618 O 0.31551 0.27237 0.26311 0.0
O619 O 0.32619 0.30459 0.26522 0.0
O620 O 0.28429 0.24821 0.23269 0.0
O621 O 0.27593 0.24239 0.25971 0.0
O622 O 0.27389 0.28259 0.23305 0.0
O623 O 0.29966 0.29676 0.24443 0.0
H624 H 0.31733 0.37889 0.31239 0.0
H625 H 0.27751 0.34443 0.26789 0.0
H626 H 0.25945 0.36694 0.27399 0.0
H627 H 0.29925 0.40174 0.31845 0.0
H628 H 0.27734 0.20454 0.21624 0.0
H629 H 0.30607 0.23634 0.26973 0.0
H630 H 0.32498 0.21439 0.26921 0.0
H631 H 0.29617 0.18214 0.21586 0.0
Gd632 Gd 0.53642 0.55738 0.02323 0.0
Gd633 Gd 0.54189 0.51828 0.00617 0.0
C634 C 0.52741 0.54164 0.97624 0.0
C635 C 0.53582 0.59277 0.02892 0.0
C636 C 0.5346 0.60605 0.01574 0.0
C637 C 0.52061 0.61476 0.01538 0.0
C638 C 0.54665 0.60926 0.00273 0.0
C639 C 0.53113 0.63046 0.98976 0.0
C640 C 0.54499 0.62147 0.98996 0.0
C641 C 0.51883 0.62681 0.00243 0.0
C642 C 0.51016 0.52721 0.02526 0.0
C643 C 0.55341 0.53505 0.05236 0.0
C644 C 0.53575 0.48167 1.00075 0.0
C645 C 0.53914 0.46865 0.01364 0.0
C646 C 0.55066 0.45706 0.0096 0.0
C647 C 0.53104 0.46784 0.03021 0.0
C648 C 0.54492 0.44303 0.03768 0.0
C649 C 0.53385 0.45512 0.04204 0.0
C650 C 0.55358 0.4444 0.02155 0.0
C651 C 0.57243 0.54515 0.00793 0.0
O652 O 0.5286 0.55542 0.99117 0.0
O653 O 0.53191 0.52551 0.97823 0.0
O654 O 0.52184 0.57891 0.02793 0.0
O655 O 0.55034 0.58715 0.03056 0.0
O656 O 0.51586 0.54197 0.0388 0.0
O657 O 0.51867 0.52935 0.01134 0.0
O658 O 0.54962 0.52022 0.03809 0.0
O659 O 0.55062 0.55182 0.04988 0.0
O660 O 0.5494 0.49227 0.99525 0.0
O661 O 0.52398 0.49098 0.00504 0.0
O662 O 0.57032 0.5271 1.00127 0.0
O663 O 0.55821 0.54767 0.013 0.0
H664 H 0.511 0.61217 0.02507 0.0
H665 H 0.55742 0.60247 0.00245 0.0
H666 H 0.55487 0.62423 0.98061 0.0
H667 H 0.50788 0.63333 0.00243 0.0
H668 H 0.55724 0.45763 0.99707 0.0
H669 H 0.52223 0.47675 0.03393 0.0
H670 H 0.52676 0.45424 0.05418 0.0
H671 H 0.56238 0.43545 0.01798 0.0
Gd672 Gd 0.80362 0.29768 0.26524 0.0
Gd673 Gd 0.77169 0.26705 0.26479 0.0
C674 C 0.80748 0.2528 0.26712 0.0
C675 C 0.8342 0.32018 0.27393 0.0
C676 C 0.85158 0.31646 0.2767 0.0
C677 C 0.86258 0.31874 0.26256 0.0
C678 C 0.85697 0.30964 0.2929 0.0
C679 C 0.88406 0.30747 0.28077 0.0
C680 C 0.87307 0.3052 0.29491 0.0
C681 C 0.87868 0.31422 0.26455 0.0
C682 C 0.7881 0.27951 0.23081 0.0
C683 C 0.76817 0.31236 0.26308 0.0
C684 C 0.74117 0.24477 0.25456 0.0
C685 C 0.72397 0.24882 0.25211 0.0
C686 C 0.71832 0.26022 0.26663 0.0
C687 C 0.71402 0.24316 0.23419 0.0
C688 C 0.69331 0.26083 0.24503 0.0
C689 C 0.69883 0.24916 0.23065 0.0
C690 C 0.703 0.26608 0.26313 0.0
C691 C 0.78711 0.28463 0.29935 0.0
O692 O 0.81522 0.27157 0.26993 0.0
O693 O 0.79021 0.24718 0.26326 0.0
O694 O 0.82621 0.31533 0.25653 0.0
O695 O 0.82389 0.31563 0.28664 0.0
O696 O 0.79494 0.29782 0.23454 0.0
O697 O 0.79053 0.27199 0.24501 0.0
O698 O 0.76028 0.29378 0.26197 0.0
O699 O 0.78546 0.3178 0.2653 0.0
O700 O 0.7491 0.24791 0.27196 0.0
O701 O 0.75145 0.25099 0.24242 0.0
O702 O 0.7801 0.26634 0.29532 0.0
O703 O 0.78481 0.29254 0.28532 0.0
H704 H 0.85868 0.32388 0.2499 0.0
H705 H 0.8488 0.30769 0.30406 0.0
H706 H 0.87706 0.30039 0.30775 0.0
H707 H 0.88692 0.31599 0.25343 0.0
H708 H 0.72593 0.26505 0.28052 0.0
H709 H 0.71828 0.23455 0.22277 0.0
H710 H 0.69138 0.24465 0.21666 0.0
H711 H 0.69897 0.27509 0.27441 0.0
Gd712 Gd 0.04902 0.5325 0.54039 0.0
Gd713 Gd 0.04106 0.53155 0.49881 0.0
C714 C 0.00948 0.51479 0.51806 0.0
C715 C 0.04594 0.53429 0.57556 0.0
C716 C 0.03224 0.52209 0.58386 0.0
C717 C 0.03089 0.50232 0.58237 0.0
C718 C 0.01924 0.52983 0.59151 0.0
C719 C 0.00412 0.49845 0.59668 0.0
C720 C 0.00529 0.51812 0.59781 0.0
C721 C 0.01699 0.49063 0.58883 0.0
C722 C 0.05187 0.50056 0.51849 0.0
C723 C 0.08064 0.54627 0.5204 0.0
C724 C 0.04294 0.53053 0.46328 0.0
C725 C 0.0559 0.54146 0.45313 0.0
C726 C 0.05695 0.56088 0.45248 0.0
C727 C 0.06766 0.53251 0.4443 0.0
C728 C 0.08052 0.56173 0.43325 0.0
C729 C 0.07989 0.54256 0.4345 0.0
C730 C 0.06914 0.57091 0.44255 0.0
C731 C 0.03794 0.56309 0.52138 0.0
O732 O 0.01955 0.5238 0.534 0.0
O733 O 0.01571 0.51299 0.50176 0.0
O734 O 0.05701 0.52584 0.56757 0.0
O735 O 0.04059 0.54596 0.56559 0.0
O736 O 0.06269 0.50893 0.53354 0.0
O737 O 0.04009 0.50906 0.51592 0.0
O738 O 0.07014 0.53729 0.50483 0.0
O739 O 0.07483 0.55 0.53673 0.0
O740 O 0.0333 0.54007 0.47254 0.0
O741 O 0.04831 0.51847 0.47269 0.0
O742 O 0.02694 0.55444 0.50657 0.0
O743 O 0.05007 0.55497 0.52339 0.0
H744 H 0.04051 0.4958 0.57618 0.0
H745 H 0.01983 0.54494 0.59256 0.0
H746 H 0.99578 0.52464 0.60426 0.0
H747 H 0.01642 0.47554 0.58796 0.0
H748 H 0.04821 0.56829 0.45937 0.0
H749 H 0.06719 0.51762 0.44468 0.0
H750 H 0.0883 0.53501 0.42713 0.0
H751 H 0.06942 0.58568 0.44175 0.0
Gd752 Gd 0.77032 0.78892 0.25884 0.0
Gd753 Gd 0.80726 0.78162 0.2634 0.0
C754 C 0.79255 0.79676 0.30077 0.0
C755 C 0.73724 0.78403 0.2617 0.0
C756 C 0.72516 0.78799 0.27574 0.0
C757 C 0.72008 0.80539 0.27877 0.0
C758 C 0.71738 0.77335 0.28518 0.0
C759 C 0.69897 0.79275 0.2993 0.0
C760 C 0.70453 0.77569 0.29677 0.0
C761 C 0.7072 0.80779 0.29054 0.0
C762 C 0.79478 0.82334 0.25976 0.0
C763 C 0.78541 0.77557 0.22102 0.0
C764 C 0.83966 0.78171 0.25983 0.0
C765 C 0.8522 0.78097 0.24558 0.0
C766 C 0.85773 0.76411 0.24038 0.0
C767 C 0.86021 0.79742 0.23862 0.0
C768 C 0.87949 0.78035 0.22254 0.0
C769 C 0.8737 0.7971 0.2273 0.0
C770 C 0.87108 0.76375 0.2289 0.0
C771 C 0.78078 0.75114 0.26755 0.0
O772 O 0.77726 0.79275 0.29027 0.0
O773 O 0.80699 0.79545 0.29344 0.0
O774 O 0.74615 0.79815 0.25458 0.0
O775 O 0.74621 0.77163 0.26494 0.0
O776 O 0.77796 0.8209 0.25753 0.0
O777 O 0.79744 0.80702 0.26114 0.0
O778 O 0.80024 0.777 0.23177 0.0
O779 O 0.77132 0.7787 0.2281 0.0
O780 O 0.82753 0.7662 0.25988 0.0
O781 O 0.83412 0.79727 0.26363 0.0
O782 O 0.7961 0.75662 0.27765 0.0
O783 O 0.7803 0.76226 0.25547 0.0
H784 H 0.72569 0.81695 0.27167 0.0
H785 H 0.72085 0.75973 0.28319 0.0
H786 H 0.69867 0.76393 0.3035 0.0
H787 H 0.70318 0.82109 0.29215 0.0
H788 H 0.85207 0.75127 0.2457 0.0
H789 H 0.85644 0.81072 0.24235 0.0
H790 H 0.87982 0.81009 0.22249 0.0
H791 H 0.87532 0.75067 0.22565 0.0
Gd792 Gd 0.79687 0.27132 0.73737 0.0
Gd793 Gd 0.78337 0.28151 0.77813 0.0
C794 C 0.80194 0.3151 0.75825 0.0
C795 C 0.79956 0.2674 0.70191 0.0
C796 C 0.80685 0.28263 0.69175 0.0
C797 C 0.81721 0.27939 0.67746 0.0
C798 C 0.80487 0.30113 0.69772 0.0
C799 C 0.82207 0.31274 0.67402 0.0
C800 C 0.81273 0.31612 0.68926 0.0
C801 C 0.82466 0.29435 0.66845 0.0
C802 C 0.82337 0.2789 0.76671 0.0
C803 C 0.78774 0.23892 0.76203 0.0
C804 C 0.77946 0.28613 0.81326 0.0
C805 C 0.77237 0.2716 0.82438 0.0
C806 C 0.7559 0.27067 0.83033 0.0
C807 C 0.78121 0.25756 0.82766 0.0
C808 C 0.75764 0.24248 0.84358 0.0
C809 C 0.7739 0.24314 0.83718 0.0
C810 C 0.74855 0.25616 0.83982 0.0
C811 C 0.75675 0.2759 0.74883 0.0
O812 O 0.80098 0.3029 0.74239 0.0
O813 O 0.79683 0.31031 0.77414 0.0
O814 O 0.81095 0.26374 0.71419 0.0
O815 O 0.78488 0.26839 0.70853 0.0
O816 O 0.82544 0.27522 0.74896 0.0
O817 O 0.80756 0.27907 0.76722 0.0
O818 O 0.78502 0.25134 0.77615 0.0
O819 O 0.78925 0.24233 0.74465 0.0
O820 O 0.76818 0.28888 0.80025 0.0
O821 O 0.79451 0.2856 0.80741 0.0
O822 O 0.75529 0.27934 0.76669 0.0
O823 O 0.7723 0.27457 0.74775 0.0
H824 H 0.81925 0.26527 0.67305 0.0
H825 H 0.79696 0.30406 0.70871 0.0
H826 H 0.81082 0.33022 0.6941 0.0
H827 H 0.83171 0.29132 0.65663 0.0
H828 H 0.74872 0.28114 0.82761 0.0
H829 H 0.79383 0.25772 0.82302 0.0
H830 H 0.78137 0.23301 0.84022 0.0
H831 H 0.73596 0.25587 0.84458 0.0
Gd832 Gd 0.80259 0.81408 0.77355 0.0
Gd833 Gd 0.78676 0.76787 0.75741 0.0
C834 C 0.76097 0.79448 0.76885 0.0
C835 C 0.81 0.85022 0.77545 0.0
C836 C 0.79915 0.86338 0.78068 0.0
C837 C 0.80572 0.87929 0.79518 0.0
C838 C 0.7817 0.85931 0.7723 0.0
C839 C 0.77795 0.88756 0.79201 0.0
C840 C 0.77117 0.87134 0.77795 0.0
C841 C 0.79518 0.89143 0.80074 0.0
C842 C 0.79924 0.79313 0.802 0.0
C843 C 0.82833 0.78733 0.76214 0.0
C844 C 0.77792 0.73154 0.75419 0.0
C845 C 0.78827 0.71773 0.74939 0.0
C846 C 0.78334 0.70449 0.73238 0.0
C847 C 0.80398 0.71889 0.76068 0.0
C848 C 0.80932 0.69317 0.73836 0.0
C849 C 0.81436 0.70662 0.75527 0.0
C850 C 0.79384 0.69233 0.72685 0.0
C851 C 0.79013 0.7893 0.72938 0.0
O852 O 0.77369 0.8103 0.77111 0.0
O853 O 0.76316 0.77695 0.76513 0.0
O854 O 0.81537 0.84229 0.78928 0.0
O855 O 0.80452 0.83825 0.75933 0.0
O856 O 0.80476 0.81164 0.80488 0.0
O857 O 0.79585 0.78746 0.78433 0.0
O858 O 0.81567 0.77148 0.76039 0.0
O859 O 0.82613 0.80492 0.76549 0.0
O860 O 0.77403 0.74029 0.74041 0.0
O861 O 0.78282 0.74295 0.77068 0.0
O862 O 0.78437 0.77085 0.72603 0.0
O863 O 0.79359 0.79445 0.747 0.0
H864 H 0.819 0.88235 0.80209 0.0
H865 H 0.77618 0.84693 0.76129 0.0
H866 H 0.75796 0.86841 0.77084 0.0
H867 H 0.80053 0.90404 0.81154 0.0
H868 H 0.77145 0.70368 0.7233 0.0
H869 H 0.80832 0.72923 0.77372 0.0
H870 H 0.82605 0.7073 0.76463 0.0
H871 H 0.78978 0.68213 0.7137 0.0
Gd872 Gd 0.52098 0.52326 0.49982 0.0
Gd873 Gd 0.55508 0.54311 0.52282 0.0
C874 C 0.53517 0.56933 0.50238 0.0
C875 C 0.48786 0.51209 0.48951 0.0
C876 C 0.47423 0.52248 0.48879 0.0
C877 C 0.46141 0.5175 0.47295 0.0
C878 C 0.47488 0.53849 0.5027 0.0
C879 C 0.44955 0.54384 0.48521 0.0
C880 C 0.46247 0.54908 0.50095 0.0
C881 C 0.44907 0.52813 0.47118 0.0
C882 C 0.54488 0.52123 0.47461 0.0
C883 C 0.54137 0.49685 0.519 0.0
C884 C 0.58805 0.5545 0.53396 0.0
C885 C 0.60211 0.54465 0.53405 0.0
C886 C 0.6131 0.54679 0.55103 0.0
C887 C 0.60366 0.53176 0.51806 0.0
C888 C 0.62768 0.52408 0.53587 0.0
C889 C 0.6165 0.52164 0.51894 0.0
C890 C 0.62577 0.53648 0.55198 0.0
C891 C 0.53108 0.54507 0.54799 0.0
O892 O 0.52214 0.55395 0.49701 0.0
O893 O 0.54971 0.56886 0.51241 0.0
O894 O 0.49912 0.51603 0.47772 0.0
O895 O 0.49508 0.5112 0.50634 0.0
O896 O 0.52839 0.51313 0.47135 0.0
O897 O 0.54853 0.52918 0.49221 0.0
O898 O 0.55438 0.51223 0.52443 0.0
O899 O 0.52653 0.49739 0.5097 0.0
O900 O 0.57658 0.54908 0.54514 0.0
O901 O 0.58104 0.55664 0.51748 0.0
O902 O 0.5475 0.55334 0.5513 0.0
O903 O 0.52759 0.53718 0.53039 0.0
H904 H 0.46104 0.50547 0.46191 0.0
H905 H 0.48497 0.54284 0.51479 0.0
H906 H 0.46281 0.56118 0.51191 0.0
H907 H 0.43905 0.52401 0.45902 0.0
H908 H 0.61177 0.55636 0.56359 0.0
H909 H 0.59496 0.52944 0.50497 0.0
H910 H 0.61776 0.51196 0.50643 0.0
H911 H 0.63437 0.53855 0.56511 0.0
Gd912 Gd 0.06209 0.53891 0.00777 0.0
Gd913 Gd 0.02206 0.53432 0.01015 0.0
C914 C 0.03471 0.49641 1.00075 0.0
C915 C 0.09391 0.53555 0.01235 0.0
C916 C 0.10409 0.52104 0.00773 0.0
C917 C 0.1158 0.52336 0.99424 0.0
C918 C 0.10327 0.50564 0.01755 0.0
C919 C 0.12652 0.4961 1.00141 0.0
C920 C 0.11433 0.49332 0.0144 0.0
C921 C 0.12683 0.51105 0.99108 0.0
C922 C 0.04305 0.53998 0.97594 0.0
C923 C 0.04855 0.57673 0.01502 0.0
C924 C 0.99011 0.53711 0.01082 0.0
C925 C 0.97993 0.55183 0.01388 0.0
C926 C 0.97199 0.55405 0.0305 0.0
C927 C 0.97687 0.56268 0.99994 0.0
C928 C 0.95713 0.57657 0.01863 0.0
C929 C 0.96562 0.57491 0.0023 0.0
C930 C 0.96081 0.5663 0.03288 0.0
C931 C 0.04251 0.53411 0.04137 0.0
O932 O 0.05084 0.50706 0.00621 0.0
O933 O 0.02113 0.50385 0.99835 0.0
O934 O 0.08757 0.54234 0.99818 0.0
O935 O 0.08328 0.53303 0.02519 0.0
O936 O 0.05953 0.54839 0.97967 0.0
O937 O 0.03815 0.52939 0.98763 0.0
O938 O 0.03261 0.56566 0.00933 0.0
O939 O 0.06224 0.56956 0.01823 0.0
O940 O 0.99999 0.53522 0.0256 0.0
O941 O 0.99727 0.53511 0.99517 0.0
O942 O 0.0272 0.52251 0.03667 0.0
O943 O 0.0461 0.54506 0.02982 0.0
H944 H 0.11675 0.53506 0.98643 0.0
H945 H 0.09444 0.5034 0.02807 0.0
H946 H 0.1138 0.4821 0.02275 0.0
H947 H 0.13583 0.51345 0.98075 0.0
H948 H 0.97407 0.54591 0.04152 0.0
H949 H 0.98274 0.56133 0.98695 0.0
H950 H 0.96303 0.58242 0.99092 0.0
H951 H 0.95482 0.56745 0.04581 0.0
H952 H 1.00277 0.20342 0.91603 0.0
H953 H 0.00465 0.17471 0.92923 0.0
H954 H 0.03667 0.21014 0.97919 0.0
H955 H 0.03479 0.23876 0.9662 0.0
H956 H 0.03425 0.16249 0.93869 0.0
H957 H 1.00118 0.17417 0.00253 0.0
H958 H 0.99984 0.18751 0.98351 0.0
H959 H 0.01887 0.19397 1.00098 0.0
C960 C 0.00999 0.20512 0.92995 0.0
C961 C 0.0186 0.22348 0.94002 0.0
C962 C 0.01112 0.18866 0.93746 0.0
C963 C 0.02064 0.19016 0.95535 0.0
C964 C 0.02898 0.2085 0.96555 0.0
H965 H 0.05498 0.10602 0.01494 0.0
H966 H 0.05171 0.13547 0.00404 0.0
C967 C 0.02798 0.2249 0.958 0.0
C968 C 0.02263 0.17262 0.96287 0.0
H969 H 0.01613 0.14928 1.00052 0.0
C970 C 0.03017 0.15958 0.95215 0.0
C971 C 0.01747 0.16879 0.98055 0.0
C972 C 0.00874 0.18174 0.9925 0.0
C973 C 0.03276 0.14304 0.95863 0.0
C974 C 0.02755 0.13923 0.97622 0.0
C975 C 0.02014 0.15225 0.98704 0.0
C976 C 0.02929 0.12147 0.98325 0.0
C977 C 0.04127 0.12978 0.94678 0.0
C978 C 0.01765 0.10383 0.97535 0.0
C979 C 0.01932 0.08702 0.9817 0.0
C980 C 0.03282 0.0874 0.99597 0.0
C981 C 0.04444 0.10515 0.00391 0.0
C982 C 0.0426 0.12202 0.99772 0.0
H983 H 0.04666 0.13597 0.93475 0.0
H984 H 0.05196 0.12646 0.95569 0.0
H985 H 0.0315 0.1161 0.94099 0.0
H986 H 0.00727 0.10307 0.96419 0.0
H987 H 0.0102 0.07364 0.97516 0.0
H988 H 0.14386 0.8168 0.12803 0.0
H989 H 0.16892 0.81051 0.14592 0.0
H990 H 0.13566 0.7861 0.18454 0.0
H991 H 0.11034 0.7923 0.16655 0.0
H992 H 0.18393 0.82301 0.18388 0.0
H993 H 0.16053 0.74391 0.1685 0.0
H994 H 0.15109 0.75915 0.15542 0.0
H995 H 0.14543 0.75623 0.1786 0.0
C996 C 0.14177 0.81013 0.14036 0.0
C997 C 0.12488 0.80509 0.14573 0.0
C998 C 0.15623 0.80655 0.15064 0.0
C999 C 0.15435 0.79758 0.16655 0.0
C1000 C 0.13756 0.79273 0.17216 0.0
H1001 H 0.22244 0.76176 0.24741 0.0
H1002 H 0.19871 0.76757 0.22704 0.0
C1003 C 0.12304 0.79643 0.16191 0.0
C1004 C 0.16996 0.79338 0.1771 0.0
H1005 H 0.18618 0.75692 0.19033 0.0
C1006 C 0.18444 0.80853 0.1852 0.0
C1007 C 0.17084 0.77451 0.17885 0.0
C1008 C 0.15624 0.75746 0.16976 0.0
C1009 C 0.19935 0.80544 0.19541 0.0
C1010 C 0.20019 0.78656 0.19727 0.0
C1011 C 0.18576 0.77141 0.18896 0.0
C1012 C 0.21523 0.78227 0.20887 0.0
C1013 C 0.21378 0.82257 0.20473 0.0
C1014 C 0.23274 0.78806 0.2054 0.0
C1015 C 0.24655 0.78459 0.21717 0.0
C1016 C 0.24315 0.77515 0.23261 0.0
C1017 C 0.22562 0.7689 0.23558 0.0
C1018 C 0.21194 0.77228 0.2239 0.0
H1019 H 0.20938 0.83605 0.20594 0.0
H1020 H 0.21878 0.82088 0.21913 0.0
H1021 H 0.22472 0.82397 0.19608 0.0
H1022 H 0.23579 0.79549 0.19375 0.0
H1023 H 0.25985 0.79001 0.21466 0.0
H1024 H 0.53417 0.81534 0.45081 0.0
H1025 H 0.54253 0.84832 0.46877 0.0
H1026 H 0.49568 0.85904 0.44234 0.0
H1027 H 0.48709 0.82644 0.42492 0.0
H1028 H 0.54803 0.88338 0.4553 0.0
H1029 H 0.49341 0.87603 0.49826 0.0
H1030 H 0.49961 0.85562 0.48594 0.0
H1031 H 0.48591 0.86758 0.47349 0.0
C1032 C 0.52558 0.82469 0.44904 0.0
C1033 C 0.50983 0.81815 0.4366 0.0
C1034 C 0.5304 0.84352 0.45924 0.0
C1035 C 0.51953 0.856 0.45717 0.0
C1036 C 0.50402 0.84952 0.44457 0.0
H1037 H 0.50957 0.96973 0.48029 0.0
H1038 H 0.50738 0.93548 0.47128 0.0
C1039 C 0.49915 0.83082 0.43456 0.0
C1040 C 0.52424 0.87599 0.46764 0.0
H1041 H 0.50693 0.90804 0.49439 0.0
C1042 C 0.53927 0.88877 0.46417 0.0
C1043 C 0.51285 0.88295 0.47933 0.0
C1044 C 0.49714 0.86977 0.48465 0.0
C1045 C 0.54254 0.90854 0.47101 0.0
C1046 C 0.53048 0.91556 0.48166 0.0
C1047 C 0.51601 0.90265 0.48599 0.0
C1048 C 0.53195 0.93629 0.4875 0.0
C1049 C 0.55832 0.92183 0.46593 0.0
C1050 C 0.54633 0.94801 0.49987 0.0
C1051 C 0.54765 0.96758 0.50496 0.0
C1052 C 0.53449 0.97574 0.49797 0.0
C1053 C 0.51986 0.96387 0.48601 0.0
C1054 C 0.51863 0.94432 0.48079 0.0
H1055 H 0.56442 0.91453 0.45466 0.0
H1056 H 0.55477 0.93434 0.46108 0.0
H1057 H 0.56821 0.92724 0.47868 0.0
H1058 H 0.55653 0.94204 0.50559 0.0
H1059 H 0.55902 0.97634 0.51434 0.0
H1060 H 0.52293 0.31665 0.64594 0.0
H1061 H 0.49471 0.31459 0.65808 0.0
H1062 H 0.48555 0.25326 0.65032 0.0
H1063 H 0.51352 0.2551 0.63816 0.0
H1064 H 0.45832 0.29034 0.6396 0.0
H1065 H 0.48201 0.27255 0.70816 0.0
H1066 H 0.49668 0.28424 0.69337 0.0
H1067 H 0.4866 0.25911 0.68692 0.0
C1068 C 0.51494 0.30272 0.64685 0.0
C1069 C 0.5207 0.28607 0.64125 0.0
C1070 C 0.49874 0.30156 0.6537 0.0
C1071 C 0.48803 0.28377 0.65526 0.0
C1072 C 0.49362 0.26715 0.64941 0.0
H1073 H 0.39341 0.2492 0.70812 0.0
H1074 H 0.41862 0.24955 0.69082 0.0
C1075 C 0.50969 0.26827 0.64247 0.0
C1076 C 0.47133 0.28251 0.66363 0.0
H1077 H 0.45221 0.27194 0.70272 0.0
C1078 C 0.45699 0.2864 0.65343 0.0
C1079 C 0.46948 0.27713 0.68156 0.0
C1080 C 0.4845 0.27311 0.69328 0.0
C1081 C 0.44088 0.28495 0.66068 0.0
C1082 C 0.43915 0.27989 0.6788 0.0
C1083 C 0.45346 0.27582 0.68885 0.0
C1084 C 0.42288 0.27928 0.68793 0.0
C1085 C 0.42572 0.2884 0.64869 0.0
C1086 C 0.41673 0.29584 0.6921 0.0
C1087 C 0.40238 0.29574 0.70216 0.0
C1088 C 0.39379 0.27908 0.70842 0.0
C1089 C 0.39977 0.26239 0.70384 0.0
C1090 C 0.41416 0.26253 0.69382 0.0
H1091 H 0.4276 0.28691 0.63347 0.0
H1092 H 0.41332 0.27827 0.65009 0.0
H1093 H 0.42449 0.30316 0.65353 0.0
H1094 H 0.4234 0.30908 0.68814 0.0
H1095 H 0.39846 0.30898 0.70564 0.0
H1096 H 0.98924 0.80201 0.61377 0.0
H1097 H 0.99645 0.83082 0.59973 0.0
H1098 H 0.05044 0.82862 0.60377 0.0
H1099 H 0.04342 0.79974 0.61773 0.0
H1100 H 0.0223 0.86573 0.61806 0.0
H1101 H 0.03638 0.83349 0.54766 0.0
H1102 H 0.02373 0.81953 0.5626 0.0
H1103 H 0.04702 0.82729 0.56812 0.0
C1104 C 1.00261 0.80754 0.61148 0.0
C1105 C 0.0158 0.7987 0.61681 0.0
C1106 C 0.00668 0.82396 0.60354 0.0
C1107 C 0.0239 0.83157 0.60072 0.0
C1108 C 0.03705 0.82268 0.60574 0.0
H1109 H 0.06797 0.93039 0.55161 0.0
H1110 H 0.06516 0.90393 0.56931 0.0
C1111 C 0.03302 0.80628 0.61373 0.0
C1112 C 0.02821 0.84927 0.5931 0.0
H1113 H 0.04135 0.86712 0.55435 0.0
C1114 C 0.02651 0.86613 0.60416 0.0
C1115 C 0.03375 0.84949 0.57504 0.0
C1116 C 0.03524 0.83149 0.56254 0.0
C1117 C 0.03015 0.88342 0.59748 0.0
C1118 C 0.03541 0.88359 0.57929 0.0
C1119 C 0.03743 0.86679 0.56838 0.0
C1120 C 0.03756 0.9007 0.57062 0.0
C1121 C 0.02832 0.90134 0.60983 0.0
C1122 C 0.02294 0.90743 0.5657 0.0
C1123 C 0.02444 0.92231 0.5555 0.0
C1124 C 0.0406 0.93057 0.55006 0.0
C1125 C 0.05535 0.92411 0.55549 0.0
C1126 C 0.0538 0.90916 0.56565 0.0
H1127 H 0.02837 0.89974 0.62495 0.0
H1128 H 0.03902 0.91379 0.60876 0.0
H1129 H 0.01577 0.90443 0.60497 0.0
H1130 H 0.01024 0.90069 0.56911 0.0
H1131 H 0.01281 0.92679 0.55121 0.0
H1132 H 0.54667 0.8245 0.8376 0.0
H1133 H 0.51824 0.827 0.82386 0.0
H1134 H 0.49438 0.77167 0.83634 0.0
H1135 H 0.52274 0.76904 0.85034 0.0
H1136 H 0.49526 0.80125 0.79347 0.0
H1137 H 0.46603 0.80805 0.86069 0.0
H1138 H 0.48926 0.81205 0.86008 0.0
H1139 H 0.47574 0.78809 0.8566 0.0
C1140 C 0.53541 0.81278 0.83731 0.0
C1141 C 0.53689 0.79654 0.84503 0.0
C1142 C 0.51922 0.8143 0.82954 0.0
C1143 C 0.50435 0.79965 0.82944 0.0
C1144 C 0.50579 0.78324 0.83668 0.0
H1145 H 0.39499 0.7771 0.79264 0.0
H1146 H 0.42462 0.77477 0.80251 0.0
C1147 C 0.52198 0.78169 0.84448 0.0
C1148 C 0.4873 0.80126 0.8213 0.0
H1149 H 0.44669 0.80238 0.83207 0.0
C1150 C 0.48462 0.80159 0.80185 0.0
C1151 C 0.47367 0.80191 0.83248 0.0
C1152 C 0.47631 0.8027 0.85366 0.0
C1153 C 0.46827 0.80182 0.79304 0.0
C1154 C 0.45451 0.80189 0.80411 0.0
C1155 C 0.45731 0.80201 0.82366 0.0
C1156 C 0.43707 0.8022 0.79586 0.0
C1157 C 0.46575 0.80156 0.77195 0.0
C1158 C 0.43452 0.81823 0.7886 0.0
C1159 C 0.41771 0.81959 0.78298 0.0
C1160 C 0.4033 0.80501 0.78478 0.0
C1161 C 0.40594 0.78858 0.79129 0.0
C1162 C 0.42277 0.78721 0.79687 0.0
H1163 H 0.47634 0.79696 0.76489 0.0
H1164 H 0.45303 0.79187 0.76526 0.0
H1165 H 0.46579 0.81619 0.76942 0.0
H1166 H 0.44547 0.83006 0.7881 0.0
H1167 H 0.41596 0.83252 0.77827 0.0
H1168 H 0.49482 0.19488 0.13437 0.0
H1169 H 0.50617 0.16741 0.12325 0.0
H1170 H 0.49982 0.17809 0.06602 0.0
H1171 H 0.48881 0.20597 0.07703 0.0
H1172 H 0.49278 0.1343 0.09631 0.0
H1173 H 0.55189 0.17986 0.07629 0.0
H1174 H 0.5375 0.18953 0.09084 0.0
H1175 H 0.53209 0.1838 0.06544 0.0
C1176 C 0.49561 0.19129 0.11935 0.0
C1177 C 0.49111 0.20276 0.10657 0.0
C1178 C 0.50214 0.1756 0.11308 0.0
C1179 C 0.50424 0.17113 0.09396 0.0
C1180 C 0.4987 0.18173 0.08095 0.0
H1181 H 0.51656 0.08492 0.0141 0.0
H1182 H 0.50971 0.10988 0.03651 0.0
C1183 C 0.49226 0.19752 0.08722 0.0
C1184 C 0.51258 0.15564 0.0876 0.0
H1185 H 0.54544 0.14624 0.06333 0.0
C1186 C 0.50448 0.13691 0.08943 0.0
C1187 C 0.52809 0.15923 0.07908 0.0
C1188 C 0.53801 0.17923 0.07797 0.0
C1189 C 0.51077 0.12145 0.08152 0.0
C1190 C 0.52538 0.12497 0.07163 0.0
C1191 C 0.53421 0.14374 0.07098 0.0
C1192 C 0.52959 0.10945 0.05893 0.0
C1193 C 0.50131 0.10136 0.08282 0.0
C1194 C 0.5432 0.10126 0.06426 0.0
C1195 C 0.54722 0.08697 0.0514 0.0
C1196 C 0.53765 0.08094 0.03321 0.0
C1197 C 0.52413 0.08932 0.02803 0.0
C1198 C 0.52014 0.10348 0.0408 0.0
H1199 H 0.4919 0.10116 0.09335 0.0
H1200 H 0.49407 0.09403 0.06873 0.0
H1201 H 0.51081 0.09311 0.08677 0.0
H1202 H 0.55063 0.10592 0.07825 0.0
H1203 H 0.55769 0.08064 0.05567 0.0
H1204 H 0.12569 0.33397 0.33734 0.0
H1205 H 0.14751 0.33247 0.31562 0.0
H1206 H 0.1714 0.29955 0.35012 0.0
H1207 H 0.14967 0.30095 0.37204 0.0
H1208 H 0.19107 0.3399 0.33112 0.0
H1209 H 0.15122 0.27106 0.28785 0.0
H1210 H 0.14128 0.28876 0.29966 0.0
H1211 H 0.15177 0.27496 0.31329 0.0
C1212 C 0.13572 0.32659 0.34043 0.0
C1213 C 0.13599 0.31745 0.35627 0.0
C1214 C 0.14808 0.32578 0.32804 0.0
C1215 C 0.16074 0.31577 0.33136 0.0
C1216 C 0.16154 0.30727 0.34749 0.0
H1217 H 0.23653 0.27 0.28454 0.0
H1218 H 0.21017 0.2765 0.29586 0.0
C1219 C 0.14923 0.30816 0.35997 0.0
C1220 C 0.1729 0.3136 0.31767 0.0
H1221 H 0.18 0.28193 0.28122 0.0
C1222 C 0.18868 0.32744 0.31997 0.0
C1223 C 0.16942 0.29726 0.30334 0.0
C1224 C 0.15249 0.2821 0.30072 0.0
C1225 C 0.20174 0.32482 0.30881 0.0
C1226 C 0.19849 0.30814 0.29473 0.0
C1227 C 0.18229 0.29476 0.2919 0.0
C1228 C 0.21258 0.30294 0.28492 0.0
C1229 C 0.2192 0.33927 0.3131 0.0
C1230 C 0.22218 0.31529 0.27439 0.0
C1231 C 0.23754 0.31188 0.26839 0.0
C1232 C 0.24299 0.29577 0.27234 0.0
C1233 C 0.23253 0.28254 0.28136 0.0
C1234 C 0.21747 0.28621 0.28777 0.0
H1235 H 0.22047 0.34917 0.32679 0.0
H1236 H 0.23003 0.332 0.31366 0.0
H1237 H 0.22071 0.348 0.30173 0.0
H1238 H 0.21825 0.32797 0.27161 0.0
H1239 H 0.24535 0.32205 0.26114 0.0
H1240 H 0.98305 0.06686 0.21814 0.0
H1241 H 0.99488 0.06348 0.18808 0.0
H1242 H 0.94279 0.04596 0.1581 0.0
H1243 H 0.93078 0.0498 0.18848 0.0
H1244 H 0.9956 0.03657 0.1613 0.0
H1245 H 0.96188 0.08226 0.1254 0.0
H1246 H 0.96124 0.08114 0.15018 0.0
H1247 H 0.94679 0.06295 0.13229 0.0
C1248 C 0.9739 0.06239 0.20524 0.0
C1249 C 0.9557 0.05878 0.2063 0.0
C1250 C 0.98084 0.06037 0.18774 0.0
C1251 C 0.97006 0.05472 0.1701 0.0
C1252 C 0.9518 0.05089 0.17105 0.0
H1253 H 0.99629 0.03271 0.04956 0.0
H1254 H 0.98081 0.03412 0.07801 0.0
C1255 C 0.9448 0.05294 0.18869 0.0
C1256 C 0.97806 0.05249 0.15121 0.0
H1257 H 0.97729 0.06411 0.10629 0.0
C1258 C 0.99146 0.0427 0.14939 0.0
C1259 C 0.9732 0.06038 0.13513 0.0
C1260 C 0.96014 0.07244 0.13585 0.0
C1261 C 0.99961 0.04037 0.13256 0.0
C1262 C 0.99463 0.04812 0.11645 0.0
C1263 C 0.98121 0.05783 0.11817 0.0
C1264 C 0.00385 0.04718 0.0984 0.0
C1265 C 0.01341 0.0292 0.13218 0.0
C1266 C 0.02206 0.05424 0.09961 0.0
C1267 C 0.03085 0.05353 0.08337 0.0
C1268 C 0.02206 0.04575 0.0648 0.0
C1269 C 1.00375 0.03875 0.06336 0.0
C1270 C 0.99483 0.03962 0.07982 0.0
H1271 H 0.01183 0.01917 0.14244 0.0
H1272 H 0.01306 0.02088 0.11782 0.0
H1273 H 0.02645 0.03929 0.13626 0.0
H1274 H 0.02965 0.06062 0.11328 0.0
H1275 H 0.04486 0.0592 0.0855 0.0
H1276 H 0.29323 0.66995 0.48484 0.0
H1277 H 0.29086 0.68675 0.45816 0.0
H1278 H 0.23482 0.66607 0.45109 0.0
H1279 H 0.23695 0.6495 0.47776 0.0
H1280 H 0.27544 0.6676 0.42162 0.0
H1281 H 0.24267 0.72348 0.44984 0.0
H1282 H 0.25381 0.71115 0.46494 0.0
H1283 H 0.23213 0.69989 0.45319 0.0
C1284 C 0.28041 0.66915 0.4777 0.0
C1285 C 0.26527 0.65842 0.48325 0.0
C1286 C 0.2791 0.67878 0.4626 0.0
C1287 C 0.26267 0.67776 0.45308 0.0
C1288 C 0.24755 0.66727 0.4587 0.0
H1289 H 0.22582 0.71314 0.35071 0.0
H1290 H 0.22746 0.69652 0.37802 0.0
C1291 C 0.24883 0.65771 0.47378 0.0
C1292 C 0.26127 0.68609 0.43606 0.0
H1293 H 0.24268 0.71731 0.41627 0.0
C1294 C 0.26839 0.67856 0.42041 0.0
C1295 C 0.25199 0.70027 0.4348 0.0
C1296 C 0.24485 0.70931 0.45164 0.0
C1297 C 0.26617 0.68467 0.40316 0.0
C1298 C 0.25667 0.69863 0.40181 0.0
C1299 C 0.24963 0.70627 0.41748 0.0
C1300 C 0.2555 0.70699 0.38483 0.0
C1301 C 0.2739 0.67617 0.3865 0.0
C1302 C 0.27072 0.71811 0.38006 0.0
C1303 C 0.26981 0.72719 0.36465 0.0
C1304 C 0.25365 0.72543 0.35409 0.0
C1305 C 0.23834 0.71432 0.35875 0.0
C1306 C 0.23928 0.705 0.37419 0.0
H1307 H 0.27703 0.66247 0.38853 0.0
H1308 H 0.26485 0.67364 0.37316 0.0
H1309 H 0.28619 0.68633 0.38488 0.0
H1310 H 0.28321 0.72012 0.38853 0.0
H1311 H 0.28166 0.73612 0.36131 0.0
H1312 H 0.60747 0.00986 0.69494 0.0
H1313 H 0.59087 0.01769 0.66809 0.0
H1314 H 0.6343 0.06441 0.66467 0.0
H1315 H 0.651 0.05679 0.69102 0.0
H1316 H 0.58466 0.05692 0.66011 0.0
H1317 H 0.62577 0.02153 0.61471 0.0
H1318 H 0.62373 0.0177 0.6387 0.0
H1319 H 0.63662 0.03994 0.6345 0.0
C1320 C 0.6134 0.02181 0.6885 0.0
C1321 C 0.63062 0.03232 0.69465 0.0
C1322 C 0.60389 0.0264 0.67345 0.0
C1323 C 0.6116 0.0415 0.66466 0.0
C1324 C 0.62834 0.05271 0.67146 0.0
H1325 H 0.57483 0.0583 0.55301 0.0
H1326 H 0.59277 0.06258 0.58347 0.0
C1327 C 0.63785 0.04812 0.68633 0.0
C1328 C 0.60318 0.04373 0.64673 0.0
H1329 H 0.60329 0.03183 0.59923 0.0
C1330 C 0.58874 0.05163 0.64675 0.0
C1331 C 0.60894 0.03699 0.6296 0.0
C1332 C 0.62456 0.02847 0.62923 0.0
C1333 C 0.57933 0.05232 0.62967 0.0
C1334 C 0.58451 0.04458 0.61258 0.0
C1335 C 0.59947 0.03758 0.61257 0.0
C1336 C 0.57378 0.0422 0.59456 0.0
C1337 C 0.56382 0.06097 0.62991 0.0
C1338 C 0.55755 0.02891 0.59091 0.0
C1339 C 0.54736 0.02629 0.57355 0.0
C1340 C 0.55345 0.03695 0.55987 0.0
C1341 C 0.56991 0.04994 0.56345 0.0
C1342 C 0.5801 0.0525 0.58076 0.0
H1343 H 0.56413 0.07031 0.64373 0.0
H1344 H 0.56332 0.06947 0.61841 0.0
H1345 H 0.55168 0.04933 0.62751 0.0
H1346 H 0.55283 0.02059 0.60147 0.0
H1347 H 0.53474 0.01612 0.57091 0.0
H1348 H 0.30662 0.32737 0.98401 0.0
H1349 H 0.30374 0.31405 0.95012 0.0
H1350 H 0.27722 0.35661 0.93672 0.0
H1351 H 0.27989 0.36998 0.97042 0.0
H1352 H 0.2705 0.30306 0.91799 0.0
H1353 H 0.32615 0.36362 0.91268 0.0
H1354 H 0.32243 0.35568 0.93489 0.0
H1355 H 0.30866 0.36905 0.925 0.0
C1356 C 0.2999 0.33369 0.97389 0.0
C1357 C 0.29372 0.34991 0.97993 0.0
C1358 C 0.29822 0.32602 0.95456 0.0
C1359 C 0.29039 0.33447 0.94102 0.0
C1360 C 0.28334 0.34996 0.94702 0.0
H1361 H 0.28002 0.32305 0.81947 0.0
H1362 H 0.27905 0.33158 0.85353 0.0
C1363 C 0.28494 0.35758 0.9663 0.0
C1364 C 0.29125 0.3285 0.92064 0.0
H1365 H 0.31314 0.34228 0.88438 0.0
C1366 C 0.27986 0.31153 0.91063 0.0
C1367 C 0.30342 0.33972 0.91114 0.0
C1368 C 0.31597 0.35801 0.9214 0.0
C1369 C 0.28029 0.30557 0.89118 0.0
C1370 C 0.29258 0.31673 0.88179 0.0
C1371 C 0.3039 0.3337 0.89178 0.0
C1372 C 0.29341 0.31147 0.86132 0.0
C1373 C 0.26746 0.28765 0.88061 0.0
C1374 C 0.30217 0.29763 0.85459 0.0
C1375 C 0.30305 0.29298 0.83513 0.0
C1376 C 0.29492 0.30193 0.82226 0.0
C1377 C 0.28633 0.3159 0.82914 0.0
C1378 C 0.28572 0.32075 0.84852 0.0
H1379 H 0.25786 0.28134 0.88962 0.0
H1380 H 0.26031 0.29087 0.868 0.0
H1381 H 0.27461 0.27688 0.87544 0.0
H1382 H 0.30824 0.29042 0.86438 0.0
H1383 H 0.30956 0.28202 0.83011 0.0
H1384 H 0.96776 0.03217 0.298 0.0
H1385 H 0.98116 0.03207 0.32971 0.0
H1386 H 0.96123 0.08 0.35176 0.0
H1387 H 0.947 0.07961 0.31977 0.0
H1388 H 0.00531 0.05348 0.35414 0.0
H1389 H 0.94626 0.04914 0.39017 0.0
H1390 H 0.94523 0.0469 0.36479 0.0
H1391 H 0.95155 0.07019 0.37975 0.0
C1392 C 0.96605 0.04275 0.3095 0.0
C1393 C 0.95598 0.05582 0.30592 0.0
C1394 C 0.97388 0.04268 0.32789 0.0
C1395 C 0.97215 0.05571 0.34377 0.0
C1396 C 0.96248 0.06922 0.34022 0.0
H1397 H 0.01669 0.07277 0.46543 0.0
H1398 H 0.00415 0.07678 0.43426 0.0
C1399 C 0.95441 0.06915 0.3217 0.0
C1400 C 0.98061 0.05497 0.36361 0.0
H1401 H 0.9729 0.05332 0.40983 0.0
C1402 C 0.99806 0.05339 0.3662 0.0
C1403 C 0.97154 0.0548 0.37984 0.0
C1404 C 0.95257 0.05515 0.37852 0.0
C1405 C 0.00644 0.05175 0.38398 0.0
C1406 C 0.99735 0.05158 0.40009 0.0
C1407 C 0.98006 0.05346 0.39769 0.0
C1408 C 0.00542 0.04917 0.41935 0.0
C1409 C 0.02518 0.05048 0.38548 0.0
C1410 C 0.01043 0.03226 0.42186 0.0
C1411 C 0.01748 0.02983 0.43985 0.0
C1412 C 0.01999 0.04429 0.45605 0.0
C1413 C 0.01511 0.06127 0.45347 0.0
C1414 C 0.00783 0.06358 0.43552 0.0
H1415 H 0.03161 0.05515 0.37332 0.0
H1416 H 0.03272 0.05937 0.39885 0.0
H1417 H 0.02564 0.03542 0.38562 0.0
H1418 H 0.00862 0.02071 0.4099 0.0
H1419 H 0.02096 0.01651 0.44105 0.0
H1420 H 0.29835 0.67031 0.58683 0.0
H1421 H 0.29691 0.69086 0.61653 0.0
H1422 H 0.25679 0.71189 0.58847 0.0
H1423 H 0.2581 0.69144 0.55866 0.0
H1424 H 0.30125 0.73345 0.61988 0.0
H1425 H 0.23852 0.69206 0.63797 0.0
H1426 H 0.25173 0.68114 0.62272 0.0
H1427 H 0.23929 0.69639 0.61402 0.0
C1428 C 0.28923 0.67931 0.58699 0.0
C1429 C 0.2784 0.67941 0.57051 0.0
C1430 C 0.28841 0.69095 0.6039 0.0
C1431 C 0.27666 0.7026 0.60446 0.0
C1432 C 0.26581 0.70277 0.58811 0.0
H1433 H 0.27818 0.79278 0.69999 0.0
H1434 H 0.27219 0.774 0.66756 0.0
C1435 C 0.26669 0.69123 0.57116 0.0
C1436 C 0.27632 0.71521 0.62211 0.0
H1437 H 0.25311 0.7204 0.65923 0.0
C1438 C 0.29065 0.73084 0.62841 0.0
C1439 C 0.26247 0.71137 0.63302 0.0
C1440 C 0.24712 0.69429 0.62674 0.0
C1441 C 0.29164 0.74276 0.64577 0.0
C1442 C 0.27788 0.73885 0.65679 0.0
C1443 C 0.2634 0.72338 0.65038 0.0
C1444 C 0.27945 0.74936 0.67602 0.0
C1445 C 0.30771 0.75886 0.65274 0.0
C1446 C 0.28516 0.74133 0.69108 0.0
C1447 C 0.2884 0.75181 0.70935 0.0
C1448 C 0.28616 0.77051 0.71262 0.0
C1449 C 0.2801 0.77842 0.69758 0.0
C1450 C 0.27662 0.76777 0.67925 0.0
H1451 H 0.31714 0.76009 0.64223 0.0
H1452 H 0.30395 0.77263 0.6559 0.0
H1453 H 0.31429 0.75646 0.66613 0.0
H1454 H 0.28757 0.72717 0.68861 0.0
H1455 H 0.29321 0.74551 0.72079 0.0
H1456 H 0.66878 0.05884 0.79612 0.0
H1457 H 0.66071 0.06767 0.82764 0.0
H1458 H 0.60626 0.04693 0.80522 0.0
H1459 H 0.61416 0.03815 0.77347 0.0
H1460 H 0.62678 0.09165 0.83037 0.0
H1461 H 0.62768 0.02471 0.85866 0.0
H1462 H 0.6427 0.03306 0.84258 0.0
H1463 H 0.61999 0.02366 0.83402 0.0
C1464 C 0.65509 0.0559 0.79795 0.0
C1465 C 0.64203 0.04784 0.78246 0.0
C1466 C 0.65056 0.06103 0.81587 0.0
C1467 C 0.63299 0.05794 0.81844 0.0
C1468 C 0.6199 0.04942 0.80321 0.0
H1469 H 0.56848 0.07423 0.89985 0.0
H1470 H 0.58439 0.07815 0.87288 0.0
C1471 C 0.62441 0.04444 0.78522 0.0
C1472 C 0.62826 0.06422 0.83702 0.0
H1473 H 0.6191 0.04904 0.87813 0.0
C1474 C 0.62524 0.0825 0.84097 0.0
C1475 C 0.62641 0.05209 0.85053 0.0
C1476 C 0.62934 0.03224 0.8464 0.0
C1477 C 0.61991 0.08887 0.85827 0.0
C1478 C 0.6177 0.0766 0.87166 0.0
C1479 C 0.62118 0.05849 0.86784 0.0
C1480 C 0.60961 0.08098 0.8887 0.0
C1481 C 0.61635 0.10843 0.86206 0.0
C1482 C 0.61877 0.08223 0.90659 0.0
C1483 C 0.60971 0.08008 0.92212 0.0
C1484 C 0.59143 0.07641 0.91973 0.0
C1485 C 0.58258 0.07729 0.9022 0.0
C1486 C 0.59165 0.0795 0.88673 0.0
H1487 H 0.62189 0.11752 0.85195 0.0
H1488 H 0.60204 0.1069 0.86062 0.0
H1489 H 0.62186 0.11576 0.87677 0.0
H1490 H 0.63267 0.08325 0.90819 0.0
H1491 H 0.6168 0.07962 0.93554 0.0
H1492 H 0.31825 0.37157 0.08109 0.0
H1493 H 0.31988 0.35831 0.11038 0.0
H1494 H 0.26434 0.33372 0.10004 0.0
H1495 H 0.26282 0.34603 0.07046 0.0
H1496 H 0.30673 0.36489 0.14159 0.0
H1497 H 0.27886 0.28834 0.112 0.0
H1498 H 0.28483 0.30584 0.09703 0.0
H1499 H 0.26406 0.30231 0.106 0.0
C1500 C 0.30643 0.36316 0.08499 0.0
C1501 C 0.29043 0.35976 0.07333 0.0
C1502 C 0.30736 0.35557 0.10175 0.0
C1503 C 0.2923 0.34456 0.10734 0.0
C1504 C 0.27629 0.34149 0.09584 0.0
H1505 H 0.26118 0.29672 0.20503 0.0
H1506 H 0.26374 0.3086 0.17518 0.0
C1507 C 0.27541 0.34874 0.07894 0.0
C1508 C 0.29312 0.33719 0.12564 0.0
H1509 H 0.27967 0.29752 0.14559 0.0
C1510 C 0.301 0.35009 0.1424 0.0
C1511 C 0.2857 0.31785 0.12685 0.0
C1512 C 0.27806 0.30277 0.10947 0.0
C1513 C 0.30103 0.34446 0.16027 0.0
C1514 C 0.29314 0.32528 0.1615 0.0
C1515 C 0.28561 0.31226 0.14473 0.0
C1516 C 0.29188 0.31855 0.18004 0.0
C1517 C 0.30896 0.35932 0.17771 0.0
C1518 C 0.30684 0.32014 0.19287 0.0
C1519 C 0.30537 0.31359 0.21016 0.0
C1520 C 0.28893 0.30501 0.21478 0.0
C1521 C 0.27402 0.30337 0.20192 0.0
C1522 C 0.27548 0.31007 0.18479 0.0
H1523 H 0.31026 0.37409 0.17486 0.0
H1524 H 0.30101 0.35743 0.18952 0.0
H1525 H 0.32221 0.35785 0.1824 0.0
H1526 H 0.31969 0.32615 0.18938 0.0
H1527 H 0.31711 0.31476 0.21965 0.0
H1528 H 0.26209 0.97155 0.9972 0.0
H1529 H 0.24066 0.9886 0.00834 0.0
H1530 H 0.21864 0.94218 0.03638 0.0
H1531 H 0.23977 0.92492 0.02517 0.0
H1532 H 0.20196 0.96314 0.99773 0.0
H1533 H 0.22338 0.99768 0.07351 0.0
H1534 H 0.23886 0.99521 0.05691 0.0
H1535 H 0.22716 0.97456 0.06508 0.0
C1536 C 0.25272 0.96507 0.00582 0.0
C1537 C 0.25218 0.94678 0.00997 0.0
C1538 C 0.24076 0.9749 0.01237 0.0
C1539 C 0.22848 0.96662 0.02336 0.0
C1540 C 0.22834 0.94875 0.02814 0.0
H1541 H 0.1327 0.99536 0.05336 0.0
H1542 H 0.15766 0.98052 0.05239 0.0
C1543 C 0.24013 0.93881 0.02142 0.0
C1544 C 0.21368 0.97466 0.02655 0.0
H1545 H 0.19567 0.99955 0.05982 0.0
C1546 C 0.20052 0.97113 0.01126 0.0
C1547 C 0.212 0.98461 0.04438 0.0
C1548 C 0.22608 0.98836 0.061 0.0
C1549 C 0.18552 0.97757 0.01327 0.0
C1550 C 0.18402 0.98815 0.0309 0.0
C1551 C 0.19703 0.99135 0.04638 0.0
C1552 C 0.16974 0.99747 0.03272 0.0
C1553 C 0.17146 0.97311 0.99649 0.0
C1554 C 0.16871 0.01184 0.02214 0.0
C1555 C 0.15454 0.01988 0.02239 0.0
C1556 C 0.1415 0.01388 0.03351 0.0
C1557 C 0.14273 0.99994 0.04463 0.0
C1558 C 0.15688 0.99164 0.04417 0.0
H1559 H 0.17243 0.96065 0.98601 0.0
H1560 H 0.15828 0.97009 1.00108 0.0
H1561 H 0.17289 0.98564 0.98922 0.0
H1562 H 0.17874 0.01658 0.01346 0.0
H1563 H 0.15378 0.03087 0.01399 0.0
H1564 H 0.73311 0.63781 0.03257 0.0
H1565 H 0.70265 0.62131 0.03196 0.0
H1566 H 0.69059 0.63433 0.97654 0.0
H1567 H 0.72144 0.65016 0.97674 0.0
H1568 H 0.67414 0.63178 0.03175 0.0
H1569 H 0.66667 0.57954 0.96517 0.0
H1570 H 0.68759 0.59466 0.97597 0.0
H1571 H 0.67278 0.60385 0.96165 0.0
C1572 C 0.72405 0.63702 0.0201 0.0
C1573 C 0.72991 0.64517 0.00459 0.0
C1574 C 0.7065 0.62758 0.01981 0.0
C1575 C 0.69407 0.62608 0.00407 0.0
C1576 C 0.69981 0.63458 0.98866 0.0
H1577 H 0.5791 0.57962 0.99536 0.0
H1578 H 0.60801 0.60082 0.99431 0.0
C1579 C 0.71752 0.64379 0.98881 0.0
C1580 C 0.67524 0.61592 0.00422 0.0
H1581 H 0.64109 0.58014 0.97952 0.0
C1582 C 0.66699 0.62054 0.02024 0.0
C1583 C 0.66563 0.60106 0.98933 0.0
C1584 C 0.67365 0.59433 0.97216 0.0
C1585 C 0.64978 0.61078 0.02182 0.0
C1586 C 0.64028 0.59607 0.00697 0.0
C1587 C 0.64829 0.59159 0.99083 0.0
C1588 C 0.62258 0.58416 0.00859 0.0
C1589 C 0.64188 0.61591 0.03957 0.0
C1590 C 0.62109 0.56787 0.01708 0.0
C1591 C 0.60468 0.55568 0.01742 0.0
C1592 C 0.58932 0.55969 0.00966 0.0
C1593 C 0.5907 0.57637 1.00176 0.0
C1594 C 0.60721 0.5884 1.00105 0.0
H1595 H 0.6502 0.62885 0.04911 0.0
H1596 H 0.62882 0.61842 0.03581 0.0
H1597 H 0.64004 0.60375 0.04738 0.0
H1598 H 0.63268 0.56429 0.02304 0.0
H1599 H 0.60402 0.5429 0.02354 0.0
H1600 H 0.68814 0.45774 0.29017 0.0
H1601 H 0.7025 0.43115 0.29192 0.0
H1602 H 0.70449 0.42413 0.23181 0.0
H1603 H 0.6901 0.45011 0.22994 0.0
H1604 H 0.69221 0.38981 0.27112 0.0
H1605 H 0.75575 0.42717 0.25279 0.0
H1606 H 0.74015 0.43995 0.2612 0.0
H1607 H 0.73685 0.42737 0.23716 0.0
C1608 C 0.69178 0.45076 0.27731 0.0
C1609 C 0.68784 0.45677 0.25991 0.0
C1610 C 0.7 0.43524 0.27828 0.0
C1611 C 0.70506 0.42519 0.26202 0.0
C1612 C 0.70121 0.43133 0.24479 0.0
H1613 H 0.7689 0.3389 0.23903 0.0
H1614 H 0.75321 0.36414 0.23855 0.0
C1615 C 0.6928 0.44647 0.24375 0.0
C1616 C 0.71412 0.40845 0.26273 0.0
H1617 H 0.75194 0.39457 0.25433 0.0
C1618 C 0.70534 0.391 0.26758 0.0
C1619 C 0.73117 0.40912 0.25765 0.0
C1620 C 0.74166 0.42691 0.25201 0.0
C1621 C 0.71268 0.37468 0.26713 0.0
C1622 C 0.73009 0.37552 0.26271 0.0
C1623 C 0.7388 0.39311 0.25789 0.0
C1624 C 0.73939 0.35868 0.26261 0.0
C1625 C 0.70098 0.35637 0.27042 0.0
C1626 C 0.73753 0.34617 0.27608 0.0
C1627 C 0.7461 0.3309 0.27576 0.0
C1628 C 0.75767 0.32771 0.26248 0.0
C1629 C 0.76005 0.34047 0.24942 0.0
C1630 C 0.75101 0.35528 0.2493 0.0
H1631 H 0.687 0.35592 0.26657 0.0
H1632 H 0.70378 0.34362 0.26199 0.0
H1633 H 0.70284 0.35555 0.28572 0.0
H1634 H 0.72975 0.34834 0.28738 0.0
H1635 H 0.74411 0.32196 0.28647 0.0
H1636 H 0.85275 0.46117 0.55438 0.0
H1637 H 0.8846 0.46919 0.55564 0.0
H1638 H 0.87968 0.4793 0.49809 0.0
H1639 H 0.84817 0.4719 0.49679 0.0
H1640 H 0.90379 0.45 0.52981 0.0
H1641 H 0.91449 0.52759 0.52811 0.0
H1642 H 0.89469 0.51362 0.53449 0.0
H1643 H 0.89786 0.51281 0.50995 0.0
C1644 C 0.85851 0.4656 0.5422 0.0
C1645 C 0.84803 0.46609 0.52554 0.0
C1646 C 0.8766 0.46993 0.54288 0.0
C1647 C 0.88425 0.47489 0.52699 0.0
C1648 C 0.87387 0.47575 0.51055 0.0
H1649 H 0.98348 0.50099 0.4886 0.0
H1650 H 0.9528 0.48691 0.49067 0.0
C1651 C 0.8559 0.47155 0.50987 0.0
C1652 C 0.90312 0.47888 0.52714 0.0
H1653 H 0.93765 0.51328 0.52027 0.0
C1654 C 0.91132 0.46387 0.52801 0.0
C1655 C 0.91266 0.49699 0.52468 0.0
C1656 C 0.90451 0.51373 0.52443 0.0
C1657 C 0.929 0.4665 0.52591 0.0
C1658 C 0.93827 0.48443 0.52287 0.0
C1659 C 0.93017 0.49947 0.52236 0.0
C1660 C 0.95675 0.48854 0.52109 0.0
C1661 C 0.93766 0.45021 0.52652 0.0
C1662 C 0.96875 0.49385 0.53757 0.0
C1663 C 0.98608 0.50217 0.53652 0.0
C1664 C 0.99148 0.50514 0.51894 0.0
C1665 C 0.97955 0.49889 0.50231 0.0
C1666 C 0.96216 0.49071 0.50341 0.0
H1667 H 0.92825 0.43668 0.52757 0.0
H1668 H 0.9441 0.44787 0.51359 0.0
H1669 H 0.94796 0.45397 0.53893 0.0
H1670 H 0.96452 0.49248 0.55132 0.0
H1671 H 0.99514 0.50663 0.54951 0.0
H1672 H 0.37249 0.07323 0.29876 0.0
H1673 H 0.35698 0.09402 0.28401 0.0
H1674 H 0.39513 0.10242 0.24505 0.0
H1675 H 0.41081 0.08209 0.25989 0.0
H1676 H 0.38733 0.13631 0.27342 0.0
H1677 H 0.33192 0.08601 0.22434 0.0
H1678 H 0.33844 0.07994 0.24685 0.0
H1679 H 0.35278 0.08044 0.229 0.0
C1680 C 0.37751 0.07967 0.28713 0.0
C1681 C 0.39298 0.07681 0.28074 0.0
C1682 C 0.36859 0.09115 0.2786 0.0
C1683 C 0.37498 0.09928 0.26342 0.0
C1684 C 0.39015 0.09601 0.25671 0.0
H1685 H 0.32819 0.18164 0.21447 0.0
H1686 H 0.3453 0.15767 0.21636 0.0
C1687 C 0.39918 0.0848 0.26539 0.0
C1688 C 0.36724 0.11343 0.25638 0.0
H1689 H 0.33173 0.11885 0.22986 0.0
C1690 C 0.37536 0.13262 0.26362 0.0
C1691 C 0.35177 0.10818 0.24356 0.0
C1692 C 0.34315 0.08753 0.23534 0.0
C1693 C 0.36775 0.14697 0.25906 0.0
C1694 C 0.35174 0.14173 0.24708 0.0
C1695 C 0.34411 0.12258 0.23897 0.0
C1696 C 0.34149 0.1556 0.24542 0.0
C1697 C 0.37634 0.16752 0.26786 0.0
C1698 C 0.33377 0.16178 0.26112 0.0
C1699 C 0.32412 0.17522 0.2601 0.0
C1700 C 0.32209 0.18251 0.24333 0.0
C1701 C 0.32964 0.17607 0.22748 0.0
C1702 C 0.33935 0.16255 0.22853 0.0
H1703 H 0.3904 0.16952 0.27286 0.0
H1704 H 0.37502 0.17718 0.25758 0.0
H1705 H 0.36985 0.1718 0.28026 0.0
H1706 H 0.33524 0.1562 0.27414 0.0
H1707 H 0.3181 0.17977 0.27234 0.0
H1708 H 0.31583 0.1306 0.49503 0.0
H1709 H 0.34029 0.11577 0.50005 0.0
H1710 H 0.37484 0.17145 0.52092 0.0
H1711 H 0.3506 0.18628 0.51625 0.0
H1712 H 0.37077 0.12087 0.4841 0.0
H1713 H 0.3863 0.14263 0.56224 0.0
H1714 H 0.36626 0.14438 0.54945 0.0
H1715 H 0.38618 0.16228 0.55001 0.0
C1716 C 0.32861 0.13967 0.5008 0.0
C1717 C 0.33116 0.15964 0.50527 0.0
C1718 C 0.34259 0.13118 0.50367 0.0
C1719 C 0.35939 0.14244 0.51122 0.0
C1720 C 0.36197 0.16237 0.51555 0.0
H1721 H 0.46117 0.11451 0.51746 0.0
H1722 H 0.43784 0.13155 0.51734 0.0
C1723 C 0.34805 0.17085 0.51269 0.0
C1724 C 0.37437 0.13348 0.5137 0.0
H1725 H 0.40674 0.12897 0.54628 0.0
C1726 C 0.37854 0.12259 0.49772 0.0
C1727 C 0.38467 0.1358 0.53147 0.0
C1728 C 0.38056 0.14676 0.54931 0.0
C1729 C 0.39271 0.11409 0.499 0.0
C1730 C 0.40293 0.11639 0.5167 0.0
C1731 C 0.3989 0.12732 0.5327 0.0
C1732 C 0.41737 0.10673 0.51876 0.0
C1733 C 0.39677 0.1027 0.4814 0.0
C1734 C 0.41361 0.08724 0.51992 0.0
C1735 C 0.42684 0.07746 0.51991 0.0
C1736 C 0.44417 0.08694 0.5187 0.0
C1737 C 0.44797 0.10668 0.51816 0.0
C1738 C 0.43469 0.11648 0.51823 0.0
H1739 H 0.38872 0.10384 0.46838 0.0
H1740 H 0.41077 0.10769 0.47979 0.0
H1741 H 0.39431 0.0874 0.4828 0.0
H1742 H 0.40031 0.07946 0.52027 0.0
H1743 H 0.42332 0.06226 0.5201 0.0
H1744 H 0.70131 0.57529 0.29202 0.0
H1745 H 0.71743 0.60896 0.29376 0.0
H1746 H 0.6968 0.60658 0.2358 0.0
H1747 H 0.68068 0.57372 0.23413 0.0
H1748 H 0.74289 0.62771 0.27616 0.0
H1749 H 0.68584 0.65512 0.25647 0.0
H1750 H 0.68353 0.63151 0.26211 0.0
H1751 H 0.68775 0.63587 0.23877 0.0
C1752 C 0.70012 0.58191 0.27965 0.0
C1753 C 0.68933 0.57124 0.26297 0.0
C1754 C 0.70943 0.6014 0.28063 0.0
C1755 C 0.70827 0.61114 0.26506 0.0
C1756 C 0.69777 0.60026 0.2484 0.0
H1757 H 0.75456 0.72777 0.23902 0.0
H1758 H 0.7375 0.69474 0.2384 0.0
C1759 C 0.68854 0.58101 0.24742 0.0
C1760 C 0.7182 0.63218 0.2658 0.0
H1761 H 0.71366 0.67572 0.25551 0.0
C1762 C 0.73634 0.63815 0.2718 0.0
C1763 C 0.71016 0.64636 0.25994 0.0
C1764 C 0.69073 0.64197 0.25414 0.0
C1765 C 0.74643 0.65705 0.27164 0.0
C1766 C 0.7384 0.6713 0.26593 0.0
C1767 C 0.72023 0.66532 0.25994 0.0
C1768 C 0.7485 0.69226 0.26634 0.0
C1769 C 0.76591 0.66113 0.2769 0.0
C1770 C 0.76028 0.70292 0.28231 0.0
C1771 C 0.77024 0.72177 0.28253 0.0
C1772 C 0.76867 0.73134 0.26704 0.0
C1773 C 0.75632 0.72116 0.25131 0.0
C1774 C 0.74648 0.70204 0.25097 0.0
H1775 H 0.77059 0.64786 0.27424 0.0
H1776 H 0.77301 0.67151 0.26878 0.0
H1777 H 0.76929 0.6671 0.29227 0.0
H1778 H 0.76188 0.6967 0.29486 0.0
H1779 H 0.77934 0.72893 0.29505 0.0
H1780 H 0.90661 0.46686 0.7346 0.0
H1781 H 0.88914 0.43424 0.73408 0.0
H1782 H 0.85755 0.45671 0.77311 0.0
H1783 H 0.87418 0.4889 0.77328 0.0
H1784 H 0.88496 0.41735 0.76767 0.0
H1785 H 0.822 0.42158 0.73045 0.0
H1786 H 0.84248 0.438 0.7291 0.0
H1787 H 0.83111 0.44142 0.7494 0.0
C1788 C 0.89566 0.46479 0.74266 0.0
C1789 C 0.89168 0.48032 0.75392 0.0
C1790 C 0.88586 0.44628 0.74244 0.0
C1791 C 0.87208 0.44342 0.75337 0.0
C1792 C 0.86795 0.45888 0.7643 0.0
H1793 H 0.80181 0.34667 0.78392 0.0
H1794 H 0.82076 0.37886 0.7861 0.0
C1795 C 0.87753 0.47722 0.76441 0.0
C1796 C 0.86231 0.42431 0.75446 0.0
H1797 H 0.82087 0.39668 0.74858 0.0
C1798 C 0.87099 0.41264 0.76331 0.0
C1799 C 0.84411 0.41864 0.74897 0.0
C1800 C 0.83441 0.43051 0.73879 0.0
C1801 C 0.86169 0.3952 0.76699 0.0
C1802 C 0.84352 0.38977 0.76168 0.0
C1803 C 0.83485 0.40142 0.75294 0.0
C1804 C 0.83355 0.37067 0.76199 0.0
C1805 C 0.87117 0.38262 0.77633 0.0
C1806 C 0.83448 0.35614 0.74739 0.0
C1807 C 0.82357 0.33818 0.7458 0.0
C1808 C 0.81171 0.3346 0.7589 0.0
C1809 C 0.81081 0.34925 0.7736 0.0
C1810 C 0.82167 0.3674 0.77503 0.0
H1811 H 0.88474 0.39035 0.78249 0.0
H1812 H 0.86405 0.37707 0.78771 0.0
H1813 H 0.87167 0.37012 0.76565 0.0
H1814 H 0.84346 0.35883 0.73706 0.0
H1815 H 0.82479 0.32704 0.73456 0.0
H1816 H 0.07947 0.86594 0.10681 0.0
H1817 H 0.07636 0.89407 0.09313 0.0
H1818 H 0.0442 0.85718 0.04407 0.0
H1819 H 0.04716 0.82914 0.05752 0.0
H1820 H 0.0842 0.90387 0.05588 0.0
H1821 H 0.0138 0.89351 0.06368 0.0
H1822 H 0.02784 0.88221 0.07667 0.0
H1823 H 0.02026 0.87313 0.05197 0.0
C1824 C 0.07181 0.86379 0.09307 0.0
C1825 C 0.06348 0.84516 0.08341 0.0
C1826 C 0.07003 0.87991 0.08526 0.0
C1827 C 0.05979 0.8778 0.06769 0.0
C1828 C 0.05189 0.85925 0.05779 0.0
H1829 H 0.02394 0.96067 0.00696 0.0
H1830 H 0.02833 0.93142 0.01733 0.0
C1831 C 0.05368 0.84318 0.06553 0.0
C1832 C 0.05722 0.89491 0.05974 0.0
H1833 H 0.02633 0.91871 0.04848 0.0
C1834 C 0.07157 0.90717 0.05432 0.0
C1835 C 0.04066 0.89903 0.05729 0.0
C1836 C 0.02473 0.8864 0.06279 0.0
C1837 C 0.06982 0.92331 0.04646 0.0
C1838 C 0.05338 0.92791 0.04469 0.0
C1839 C 0.03898 0.91543 0.04988 0.0
C1840 C 0.05091 0.94574 0.03794 0.0
C1841 C 0.08559 0.93484 0.03956 0.0
C1842 C 0.0619 0.96374 0.04611 0.0
C1843 C 0.05965 0.98041 0.03989 0.0
C1844 C 0.04599 0.9797 0.0257 0.0
C1845 C 0.03467 0.96178 0.01784 0.0
C1846 C 0.03715 0.94501 0.02381 0.0
H1847 H 0.09471 0.9259 0.03545 0.0
H1848 H 0.08184 0.94112 0.02718 0.0
H1849 H 0.09276 0.94659 0.05119 0.0
H1850 H 0.07216 0.96501 0.05755 0.0
H1851 H 0.06844 0.99396 0.04655 0.0
H1852 H 0.93757 0.24844 0.89287 0.0
H1853 H 0.91234 0.2521 0.87301 0.0
H1854 H 0.94663 0.28131 0.83786 0.0
H1855 H 0.97191 0.27683 0.85723 0.0
H1856 H 0.90125 0.2813 0.86603 0.0
H1857 H 0.91356 0.24531 0.79699 0.0
H1858 H 0.92588 0.24453 0.81903 0.0
H1859 H 0.93137 0.2651 0.80767 0.0
C1860 C 0.93978 0.25542 0.88075 0.0
C1861 C 0.95688 0.26209 0.87657 0.0
C1862 C 0.92526 0.25759 0.86939 0.0
C1863 C 0.9273 0.26668 0.85354 0.0
C1864 C 0.94443 0.27364 0.84951 0.0
H1865 H 0.85768 0.29463 0.76764 0.0
H1866 H 0.88197 0.29258 0.78988 0.0
C1867 C 0.95898 0.27116 0.8607 0.0
C1868 C 0.91154 0.26917 0.84167 0.0
H1869 H 0.89145 0.26225 0.79606 0.0
C1870 C 0.89911 0.27702 0.85072 0.0
C1871 C 0.90846 0.26359 0.82163 0.0
C1872 C 0.92043 0.25399 0.81078 0.0
C1873 C 0.88416 0.27989 0.84043 0.0
C1874 C 0.88123 0.27453 0.82038 0.0
C1875 C 0.89357 0.26653 0.81137 0.0
C1876 C 0.86589 0.27755 0.80824 0.0
C1877 C 0.87195 0.28916 0.85119 0.0
C1878 C 0.84842 0.27027 0.81114 0.0
C1879 C 0.83435 0.27191 0.79852 0.0
C1880 C 0.83744 0.28052 0.78253 0.0
C1881 C 0.85483 0.2881 0.77993 0.0
C1882 C 0.86879 0.28678 0.79261 0.0
H1883 H 0.87846 0.29731 0.86532 0.0
H1884 H 0.86685 0.299 0.84316 0.0
H1885 H 0.86075 0.27787 0.85352 0.0
H1886 H 0.84561 0.26259 0.82267 0.0
H1887 H 0.82113 0.2654 0.80063 0.0
H1888 H 0.58486 0.25716 0.58858 0.0
H1889 H 0.58523 0.22482 0.57395 0.0
H1890 H 0.53094 0.21379 0.55158 0.0
H1891 H 0.53051 0.2463 0.56587 0.0
H1892 H 0.56608 0.19185 0.58191 0.0
H1893 H 0.55138 0.19366 0.5055 0.0
H1894 H 0.55767 0.2151 0.52334 0.0
H1895 H 0.53558 0.20069 0.51949 0.0
C1896 C 0.57304 0.24797 0.5803 0.0
C1897 C 0.55765 0.25435 0.57837 0.0
C1898 C 0.57329 0.22947 0.57197 0.0
C1899 C 0.55818 0.21695 0.56148 0.0
C1900 C 0.54286 0.22334 0.55924 0.0
H1901 H 0.52574 0.09719 0.51383 0.0
H1902 H 0.5287 0.1312 0.52458 0.0
C1903 C 0.54262 0.24192 0.5675 0.0
C1904 C 0.5582 0.19684 0.55406 0.0
H1905 H 0.54965 0.16295 0.51379 0.0
C1906 C 0.56266 0.18558 0.56699 0.0
C1907 C 0.55368 0.18867 0.53459 0.0
C1908 C 0.54947 0.2002 0.51989 0.0
C1909 C 0.56229 0.16625 0.56107 0.0
C1910 C 0.55759 0.15805 0.54164 0.0
C1911 C 0.55329 0.16932 0.52867 0.0
C1912 C 0.55627 0.13756 0.53459 0.0
C1913 C 0.56636 0.15461 0.57575 0.0
C1914 C 0.57091 0.12992 0.53631 0.0
C1915 C 0.56929 0.11038 0.53019 0.0
C1916 C 0.55299 0.09822 0.52216 0.0
C1917 C 0.53849 0.10609 0.51999 0.0
C1918 C 0.54013 0.12556 0.52612 0.0
H1919 H 0.56579 0.16182 0.59036 0.0
H1920 H 0.55711 0.14026 0.57301 0.0
H1921 H 0.57972 0.15259 0.57506 0.0
H1922 H 0.58356 0.13905 0.54248 0.0
H1923 H 0.58072 0.10479 0.53203 0.0
H1924 H 0.55155 0.7603 0.3622 0.0
H1925 H 0.57823 0.76573 0.34694 0.0
H1926 H 0.6046 0.80856 0.39522 0.0
H1927 H 0.57831 0.80276 0.41073 0.0
H1928 H 0.59695 0.79642 0.33562 0.0
H1929 H 0.63937 0.77701 0.39111 0.0
H1930 H 0.61606 0.77255 0.39088 0.0
H1931 H 0.62985 0.79609 0.39992 0.0
C1932 C 0.56305 0.77081 0.36959 0.0
C1933 C 0.56276 0.78093 0.38779 0.0
C1934 C 0.57834 0.77393 0.36085 0.0
C1935 C 0.59368 0.78727 0.37006 0.0
C1936 C 0.59322 0.79775 0.388 0.0
H1937 H 0.69567 0.82204 0.32702 0.0
H1938 H 0.67073 0.82294 0.34496 0.0
C1939 C 0.57805 0.79449 0.39682 0.0
C1940 C 0.60999 0.79041 0.36073 0.0
H1941 H 0.65314 0.7896 0.36631 0.0
C1942 C 0.6092 0.79491 0.34239 0.0
C1943 C 0.62615 0.78866 0.36953 0.0
C1944 C 0.62793 0.78315 0.38886 0.0
C1945 C 0.62392 0.79743 0.33262 0.0
C1946 C 0.63989 0.79531 0.34126 0.0
C1947 C 0.6409 0.79134 0.35975 0.0
C1948 C 0.6551 0.79525 0.33053 0.0
C1949 C 0.6223 0.80218 0.31297 0.0
C1950 C 0.65463 0.77941 0.31657 0.0
C1951 C 0.66881 0.77879 0.3065 0.0
C1952 C 0.68386 0.79406 0.31002 0.0
C1953 C 0.68426 0.81009 0.32389 0.0
C1954 C 0.67006 0.81059 0.33419 0.0
H1955 H 0.61016 0.8068 0.30962 0.0
H1956 H 0.63369 0.8137 0.31145 0.0
H1957 H 0.62214 0.78933 0.30241 0.0
H1958 H 0.64327 0.76741 0.31353 0.0
H1959 H 0.66795 0.76633 0.29579 0.0
H1960 H 0.07358 0.25494 0.38282 0.0
H1961 H 0.06048 0.22586 0.39437 0.0
H1962 H 0.06588 0.25843 0.45084 0.0
H1963 H 0.07877 0.28768 0.43942 0.0
H1964 H 0.07549 0.21026 0.4224 0.0
H1965 H 0.01455 0.22847 0.44178 0.0
H1966 H 0.02812 0.2411 0.42662 0.0
H1967 H 0.03393 0.24659 0.45195 0.0
C1968 C 0.07204 0.25592 0.39771 0.0
C1969 C 0.07721 0.27358 0.41025 0.0
C1970 C 0.06446 0.23934 0.40423 0.0
C1971 C 0.06189 0.24019 0.4233 0.0
C1972 C 0.06737 0.25767 0.43594 0.0
H1973 H 0.03759 0.16887 0.50316 0.0
H1974 H 0.04206 0.19406 0.48415 0.0
C1975 C 0.07491 0.27429 0.42944 0.0
C1976 C 0.05445 0.22259 0.43029 0.0
H1977 H 0.02206 0.20236 0.45421 0.0
C1978 C 0.06366 0.20832 0.4291 0.0
C1979 C 0.039 0.22026 0.43891 0.0
C1980 C 0.02822 0.23484 0.43975 0.0
C1981 C 0.05835 0.19212 0.43731 0.0
C1982 C 0.04321 0.19009 0.44652 0.0
C1983 C 0.03362 0.20403 0.44706 0.0
C1984 C 0.03818 0.17462 0.45734 0.0
C1985 C 0.0695 0.17789 0.43691 0.0
C1986 C 0.03391 0.1554 0.44839 0.0
C1987 C 0.03132 0.14094 0.45923 0.0
C1988 C 0.03283 0.14559 0.47911 0.0
C1989 C 0.03615 0.16485 0.48787 0.0
C1990 C 0.03878 0.17925 0.47705 0.0
H1991 H 0.08252 0.18364 0.43269 0.0
H1992 H 0.07139 0.17372 0.45101 0.0
H1993 H 0.06288 0.16481 0.42647 0.0
H1994 H 0.03307 0.15163 0.43312 0.0
H1995 H 0.02852 0.12618 0.45212 0.0
H1996 H 0.55759 0.24893 0.14696 0.0
H1997 H 0.58585 0.25611 0.16663 0.0
H1998 H 0.56148 0.2677 0.21683 0.0
H1999 H 0.53304 0.26075 0.19723 0.0
H2000 H 0.60003 0.29535 0.20174 0.0
H2001 H 0.591 0.22057 0.21522 0.0
H2002 H 0.58133 0.22531 0.19333 0.0
H2003 H 0.57298 0.23183 0.21502 0.0
C2004 C 0.55824 0.253 0.16219 0.0
C2005 C 0.5432 0.25426 0.17064 0.0
C2006 C 0.57435 0.25721 0.17332 0.0
C2007 C 0.57555 0.26253 0.19301 0.0
C2008 C 0.56063 0.26379 0.20157 0.0
H2009 H 0.66682 0.25962 0.26663 0.0
H2010 H 0.63807 0.26473 0.25748 0.0
C2011 C 0.5445 0.25977 0.1904 0.0
C2012 C 0.5924 0.26574 0.2046 0.0
H2013 H 0.61834 0.24183 0.22595 0.0
C2014 C 0.60404 0.28381 0.20735 0.0
C2015 C 0.59734 0.25055 0.21173 0.0
C2016 C 0.5851 0.2309 0.20875 0.0
C2017 C 0.62093 0.28697 0.2168 0.0
C2018 C 0.62613 0.27154 0.22332 0.0
C2019 C 0.6142 0.25366 0.22108 0.0
C2020 C 0.64429 0.27284 0.23073 0.0
C2021 C 0.63311 0.30661 0.21945 0.0
C2022 C 0.65732 0.27627 0.2189 0.0
C2023 C 0.67371 0.27345 0.22411 0.0
C2024 C 0.67716 0.26696 0.24111 0.0
C2025 C 0.66446 0.26471 0.25349 0.0
C2026 C 0.64808 0.26759 0.24828 0.0
H2027 H 0.62577 0.31787 0.21965 0.0
H2028 H 0.64225 0.30974 0.23281 0.0
H2029 H 0.64089 0.30735 0.20741 0.0
H2030 H 0.65453 0.27997 0.20512 0.0
H2031 H 0.68342 0.27552 0.21448 0.0
H2032 H 0.60172 0.87663 0.90038 0.0
H2033 H 0.60083 0.90721 0.91961 0.0
H2034 H 0.55214 0.87994 0.93707 0.0
H2035 H 0.55277 0.84958 0.91788 0.0
H2036 H 0.56684 0.9238 0.9158 0.0
H2037 H 0.59 0.90949 0.9863 0.0
H2038 H 0.59583 0.89841 0.96438 0.0
H2039 H 0.57446 0.89008 0.97081 0.0
C2040 C 0.59092 0.87722 0.90845 0.0
C2041 C 0.57725 0.86093 0.90768 0.0
C2042 C 0.59042 0.89458 0.91928 0.0
C2043 C 0.57644 0.89553 0.92959 0.0
C2044 C 0.563 0.87924 0.92911 0.0
H2045 H 0.52738 0.97335 0.9895 0.0
H2046 H 0.53488 0.94962 0.96558 0.0
C2047 C 0.56336 0.86202 0.91815 0.0
C2048 C 0.57535 0.91355 0.94067 0.0
H2049 H 0.576 0.93493 0.98617 0.0
C2050 C 0.56912 0.92654 0.93118 0.0
C2051 C 0.5783 0.9167 0.96063 0.0
C2052 C 0.58513 0.90302 0.97121 0.0
C2053 C 0.56508 0.94252 0.94139 0.0
C2054 C 0.56741 0.94524 0.96135 0.0
C2055 C 0.57424 0.93259 0.97078 0.0
C2056 C 0.56277 0.96103 0.97303 0.0
C2057 C 0.55817 0.95622 0.93094 0.0
C2058 C 0.57602 0.97493 0.98493 0.0
C2059 C 0.5718 0.98785 0.99882 0.0
C2060 C 0.55429 0.9872 1.00069 0.0
C2061 C 0.54096 0.97393 0.98815 0.0
C2062 C 0.54521 0.96064 0.97447 0.0
H2063 H 0.55916 0.95331 0.91551 0.0
H2064 H 0.54426 0.95495 0.9328 0.0
H2065 H 0.56544 0.97118 0.93693 0.0
H2066 H 0.58962 0.97522 0.98397 0.0
H2067 H 0.58221 0.99816 0.00829 0.0
H2068 H 0.95079 0.77458 0.66745 0.0
H2069 H 0.92933 0.78248 0.68721 0.0
H2070 H 0.92462 0.72937 0.70801 0.0
H2071 H 0.94644 0.72128 0.68831 0.0
H2072 H 0.89461 0.76003 0.68634 0.0
H2073 H 0.93564 0.77266 0.75629 0.0
H2074 H 0.94476 0.77268 0.73418 0.0
H2075 H 0.9343 0.75047 0.74068 0.0
C2076 C 0.94522 0.76451 0.67618 0.0
C2077 C 0.95035 0.74733 0.67645 0.0
C2078 C 0.933 0.76909 0.68745 0.0
C2079 C 0.92574 0.75661 0.69914 0.0
C2080 C 0.93044 0.73925 0.69922 0.0
H2081 H 0.84126 0.75615 0.76387 0.0
H2082 H 0.86723 0.75017 0.75082 0.0
C2083 C 0.94275 0.73462 0.68791 0.0
C2084 C 0.91293 0.76179 0.71092 0.0
H2085 H 0.90642 0.77494 0.75669 0.0
C2086 C 0.89713 0.76328 0.70172 0.0
C2087 C 0.91656 0.76621 0.73089 0.0
C2088 C 0.93378 0.7656 0.74118 0.0
C2089 C 0.88461 0.76887 0.7121 0.0
C2090 C 0.88818 0.77311 0.73207 0.0
C2091 C 0.90395 0.77166 0.74132 0.0
C2092 C 0.87514 0.77824 0.74344 0.0
C2093 C 0.86759 0.77008 0.70174 0.0
C2094 C 0.8717 0.79627 0.74415 0.0
C2095 C 0.85696 0.79976 0.75159 0.0
C2096 C 0.84553 0.78513 0.75817 0.0
C2097 C 0.84979 0.76756 0.75869 0.0
C2098 C 0.8646 0.76416 0.75137 0.0
H2099 H 0.86602 0.76388 0.6864 0.0
H2100 H 0.8564 0.76248 0.7081 0.0
H2101 H 0.86711 0.7853 0.70312 0.0
H2102 H 0.87983 0.80718 0.73795 0.0
H2103 H 0.85394 0.81341 0.75097 0.0
H2104 H 0.0991 0.99776 0.80606 0.0
H2105 H 0.08659 0.99982 0.83589 0.0
H2106 H 0.13723 0.02879 0.86616 0.0
H2107 H 0.15 0.02647 0.83604 0.0
H2108 H 0.09209 0.98585 0.86928 0.0
H2109 H 0.10738 0.06489 0.88672 0.0
H2110 H 0.10825 0.05217 0.86338 0.0
H2111 H 0.12576 0.05518 0.88208 0.0
C2112 C 0.10778 1.00454 0.81899 0.0
C2113 C 0.1258 0.0119 0.81814 0.0
C2114 C 0.10046 0.00573 0.8363 0.0
C2115 C 0.11063 0.01476 0.8538 0.0
C2116 C 0.12872 0.02199 0.85313 0.0
H2117 H 0.08114 0.03885 0.97241 0.0
H2118 H 0.09712 0.03729 0.94438 0.0
C2119 C 0.13617 0.02048 0.83573 0.0
C2120 C 0.10223 0.01625 0.87239 0.0
H2121 H 0.09495 0.04813 0.90976 0.0
C2122 C 0.09284 0.99955 0.87806 0.0
C2123 C 0.10274 0.03395 0.88428 0.0
C2124 C 0.11141 0.05263 0.87883 0.0
C2125 C 0.0846 0.99997 0.89493 0.0
C2126 C 0.08507 0.01769 0.90687 0.0
C2127 C 0.09446 0.03441 0.90118 0.0
C2128 C 0.07539 0.01906 0.92461 0.0
C2129 C 0.07579 0.98109 0.89996 0.0
C2130 C 0.05757 0.00984 0.92352 0.0
C2131 C 0.0485 0.01063 0.93957 0.0
C2132 C 0.05654 0.02089 0.95776 0.0
C2133 C 0.07432 0.03056 0.95897 0.0
C2134 C 0.08351 0.02971 0.94271 0.0
H2135 H 0.08152 0.9694 0.89373 0.0
H2136 H 0.07682 0.98177 0.91556 0.0
H2137 H 0.06178 0.97727 0.89409 0.0
H2138 H 0.0504 1.00206 0.91004 0.0
H2139 H 0.03484 1.00314 0.93755 0.0
H2140 H 0.79159 0.40611 0.55207 0.0
H2141 H 0.79944 0.39397 0.58074 0.0
H2142 H 0.84332 0.37884 0.55687 0.0
H2143 H 0.83564 0.39075 0.52816 0.0
H2144 H 0.80836 0.35022 0.57298 0.0
H2145 H 0.85538 0.41354 0.61809 0.0
H2146 H 0.837 0.4165 0.60313 0.0
H2147 H 0.85456 0.4093 0.59257 0.0
C2148 C 0.80292 0.40023 0.55296 0.0
C2149 C 0.81295 0.39918 0.53789 0.0
C2150 C 0.80745 0.39353 0.56933 0.0
C2151 C 0.82208 0.38596 0.57076 0.0
C2152 C 0.83214 0.38497 0.55589 0.0
H2153 H 0.85157 0.32249 0.65677 0.0
H2154 H 0.85518 0.34246 0.63207 0.0
C2155 C 0.8276 0.39154 0.53949 0.0
C2156 C 0.82569 0.37698 0.58686 0.0
H2157 H 0.84788 0.38542 0.63128 0.0
C2158 C 0.81715 0.35777 0.58566 0.0
C2159 C 0.83726 0.38709 0.60309 0.0
C2160 C 0.84666 0.40778 0.60447 0.0
C2161 C 0.81954 0.34837 0.60074 0.0
C2162 C 0.83058 0.35865 0.61733 0.0
C2163 C 0.83958 0.37772 0.61834 0.0
C2164 C 0.83073 0.35034 0.63447 0.0
C2165 C 0.80967 0.32776 0.59918 0.0
C2166 C 0.81611 0.34895 0.64404 0.0
C2167 C 0.81386 0.33747 0.65768 0.0
C2168 C 0.82637 0.32742 0.66212 0.0
C2169 C 0.84169 0.32997 0.65343 0.0
C2170 C 0.84385 0.34143 0.63955 0.0
H2171 H 0.8049 0.3208 0.58419 0.0
H2172 H 0.818 0.31944 0.60558 0.0
H2173 H 0.7982 0.32719 0.607 0.0
H2174 H 0.80584 0.35569 0.63999 0.0
H2175 H 0.80173 0.33551 0.66376 0.0
H2176 H 0.44899 0.05349 0.33007 0.0
H2177 H 0.47205 0.0577 0.3563 0.0
H2178 H 0.45824 0.99701 0.35639 0.0
H2179 H 0.43499 0.99254 0.33005 0.0
H2180 H 0.45652 0.0313 0.39165 0.0
H2181 H 0.51867 0.03188 0.3609 0.0
H2182 H 0.50227 0.04175 0.34988 0.0
H2183 H 0.49817 0.01644 0.349 0.0
C2184 C 0.45103 0.041 0.33548 0.0
C2185 C 0.44011 0.02273 0.3284 0.0
C2186 C 0.46424 0.04343 0.35027 0.0
C2187 C 0.46668 0.02762 0.35789 0.0
C2188 C 0.45639 0.00925 0.35036 0.0
H2189 H 0.51691 0.01016 0.45934 0.0
H2190 H 0.4972 0.00957 0.43109 0.0
C2191 C 0.44308 0.00679 0.3356 0.0
C2192 C 0.47806 0.03077 0.37558 0.0
H2193 H 0.52016 0.03674 0.39424 0.0
C2194 C 0.47045 0.03254 0.39234 0.0
C2195 C 0.4961 0.03253 0.37601 0.0
C2196 C 0.50442 0.03056 0.35803 0.0
C2197 C 0.4806 0.03583 0.40989 0.0
C2198 C 0.49861 0.03725 0.41034 0.0
C2199 C 0.50628 0.03581 0.39357 0.0
C2200 C 0.50951 0.03846 0.428 0.0
C2201 C 0.47208 0.03767 0.42778 0.0
C2202 C 0.52287 0.05488 0.43517 0.0
C2203 C 0.5343 0.05514 0.45107 0.0
C2204 C 0.53225 0.03899 0.45972 0.0
C2205 C 0.5186 0.02275 0.45276 0.0
C2206 C 0.50734 0.02243 0.43681 0.0
H2207 H 0.45876 0.03988 0.42506 0.0
H2208 H 0.47102 0.02439 0.4338 0.0
H2209 H 0.48011 0.04977 0.43858 0.0
H2210 H 0.52456 0.06728 0.4283 0.0
H2211 H 0.54466 0.06785 0.45657 0.0
H2212 H 0.77245 0.74121 0.038 0.0
H2213 H 0.77356 0.75414 0.07172 0.0
H2214 H 0.8032 0.71473 0.08668 0.0
H2215 H 0.80201 0.70149 0.05303 0.0
H2216 H 0.76224 0.72267 0.10038 0.0
H2217 H 0.82652 0.7762 0.11633 0.0
H2218 H 0.81387 0.7709 0.09312 0.0
H2219 H 0.82444 0.75366 0.10083 0.0
C2220 C 0.77944 0.73548 0.04843 0.0
C2221 C 0.78705 0.72024 0.04287 0.0
C2222 C 0.78003 0.74287 0.06765 0.0
C2223 C 0.78846 0.73535 0.08154 0.0
C2224 C 0.79667 0.72069 0.07607 0.0
H2225 H 0.80846 0.75934 0.20302 0.0
H2226 H 0.80813 0.74952 0.16911 0.0
C2227 C 0.79593 0.71314 0.05688 0.0
C2228 C 0.78753 0.74176 0.10178 0.0
H2229 H 0.81032 0.77145 0.14178 0.0
C2230 C 0.77266 0.73341 0.10948 0.0
C2231 C 0.80127 0.75559 0.11346 0.0
C2232 C 0.81748 0.76474 0.10565 0.0
C2233 C 0.77127 0.73838 0.1288 0.0
C2234 C 0.78494 0.75242 0.14052 0.0
C2235 C 0.7998 0.7608 0.13272 0.0
C2236 C 0.78453 0.75802 0.1611 0.0
C2237 C 0.75546 0.72809 0.13659 0.0
C2238 C 0.7713 0.76606 0.1679 0.0
C2239 C 0.77134 0.77159 0.18742 0.0
C2240 C 0.78479 0.76945 0.20037 0.0
C2241 C 0.79798 0.76138 0.19345 0.0
C2242 C 0.79783 0.75573 0.17404 0.0
H2243 H 0.74844 0.71461 0.12689 0.0
H2244 H 0.7592 0.72465 0.15065 0.0
H2245 H 0.7463 0.73745 0.13836 0.0
H2246 H 0.76109 0.76829 0.15811 0.0
H2247 H 0.76106 0.77783 0.19232 0.0
H2248 H 0.09547 0.99887 0.72158 0.0
H2249 H 0.0828 1.00404 0.69117 0.0
H2250 H 0.13426 0.0222 0.67555 0.0
H2251 H 0.14712 0.01704 0.70621 0.0
H2252 H 0.0845 0.03511 0.67458 0.0
H2253 H 0.11084 0.98357 0.62845 0.0
H2254 H 0.1116 0.98432 0.6537 0.0
H2255 H 0.12745 1.00124 0.64448 0.0
C2256 C 0.10424 1.00389 0.71174 0.0
C2257 C 0.1225 0.00736 0.71668 0.0
C2258 C 0.09687 0.00693 0.69417 0.0
C2259 C 0.10734 0.0133 0.68051 0.0
C2260 C 0.12563 0.01692 0.6854 0.0
H2261 H 0.08311 0.05422 0.57372 0.0
H2262 H 0.09594 0.04912 0.60441 0.0
C2263 C 0.13307 0.01406 0.70314 0.0
C2264 C 0.09907 0.01632 0.6615 0.0
H2265 H 0.09689 1.0037 0.613 0.0
C2266 C 0.08728 0.02818 0.66119 0.0
C2267 C 0.10221 0.0072 0.64365 0.0
C2268 C 0.11356 0.99321 0.64248 0.0
C2269 C 0.07916 0.03145 0.64395 0.0
C2270 C 0.08264 0.02267 0.62621 0.0
C2271 C 0.09421 0.01065 0.62645 0.0
C2272 C 0.07451 0.0259 0.60737 0.0
C2273 C 0.06684 0.04439 0.64473 0.0
C2274 C 0.0581 0.01455 0.59836 0.0
C2275 C 0.05088 0.01718 0.58048 0.0
C2276 C 0.05962 0.03156 0.57121 0.0
C2277 C 0.07587 0.04313 0.58041 0.0
C2278 C 0.08327 0.04019 0.59804 0.0
H2279 H 0.06598 0.05092 0.6595 0.0
H2280 H 0.07118 0.05598 0.63657 0.0
H2281 H 0.05362 0.03608 0.63796 0.0
H2282 H 0.0509 1.00347 0.60509 0.0
H2283 H 0.03832 0.00806 0.57398 0.0
H2284 H 0.83728 0.39911 0.46126 0.0
H2285 H 0.83611 0.37344 0.4345 0.0
H2286 H 0.78295 0.37348 0.41597 0.0
H2287 H 0.78391 0.39902 0.44268 0.0
H2288 H 0.79949 0.33383 0.42023 0.0
H2289 H 0.82412 0.38712 0.37488 0.0
H2290 H 0.83107 0.39163 0.40012 0.0
H2291 H 0.80935 0.39213 0.39147 0.0
C2292 C 0.82538 0.39368 0.45143 0.0
C2293 C 0.81074 0.40114 0.45378 0.0
C2294 C 0.82469 0.37895 0.43638 0.0
C2295 C 0.80943 0.37171 0.42357 0.0
C2296 C 0.79475 0.37892 0.42598 0.0
H2297 H 0.77525 0.31505 0.31239 0.0
H2298 H 0.78212 0.33442 0.34408 0.0
C2299 C 0.79536 0.39352 0.44109 0.0
C2300 C 0.80912 0.35772 0.40664 0.0
H2301 H 0.81395 0.35493 0.35995 0.0
C2302 C 0.80286 0.33825 0.40703 0.0
C2303 C 0.81352 0.36387 0.3897 0.0
C2304 C 0.81994 0.38482 0.38885 0.0
C2305 C 0.80005 0.3246 0.39038 0.0
C2306 C 0.80396 0.33081 0.37324 0.0
C2307 C 0.81102 0.35028 0.37318 0.0
C2308 C 0.79908 0.31791 0.35478 0.0
C2309 C 0.79209 0.30389 0.39109 0.0
C2310 C 0.80612 0.30203 0.35048 0.0
C2311 C 0.80182 0.29062 0.33246 0.0
C2312 C 0.79088 0.29544 0.3186 0.0
C2313 C 0.78383 0.31124 0.32294 0.0
C2314 C 0.78775 0.32227 0.34097 0.0
H2315 H 0.78665 0.30215 0.40459 0.0
H2316 H 0.78154 0.29748 0.37909 0.0
H2317 H 0.80228 0.29576 0.38989 0.0
H2318 H 0.81518 0.29872 0.36087 0.0
H2319 H 0.80745 0.27852 0.32914 0.0
H2320 H 0.41789 0.00685 0.23565 0.0
H2321 H 0.42756 0.98963 0.2089 0.0
H2322 H 0.47437 0.03523 0.21501 0.0
H2323 H 0.46553 0.05157 0.24355 0.0
H2324 H 0.43124 0.99825 0.17733 0.0
H2325 H 0.49574 0.99165 0.20711 0.0
H2326 H 0.48068 0.99939 0.22202 0.0
H2327 H 0.49489 0.0162 0.21084 0.0
C2328 C 0.4304 0.01311 0.23152 0.0
C2329 C 0.44109 0.03048 0.24167 0.0
C2330 C 0.4359 1.00322 0.21621 0.0
C2331 C 0.45186 0.01088 0.21021 0.0
C2332 C 0.46234 0.02863 0.2199 0.0
H2333 H 0.48708 0.02182 0.1137 0.0
H2334 H 0.47129 0.01738 0.14055 0.0
C2335 C 0.45717 0.03815 0.23591 0.0
C2336 C 0.45662 1.00104 0.19279 0.0
H2337 H 0.49098 0.98979 0.17275 0.0
C2338 C 0.44414 0.9958 0.17654 0.0
C2339 C 0.47332 0.99751 0.19175 0.0
C2340 C 0.48682 1.0013 0.20896 0.0
C2341 C 0.44844 0.98875 0.15896 0.0
C2342 C 0.46565 0.98732 0.15763 0.0
C2343 C 0.47771 0.99086 0.17401 0.0
C2344 C 0.47254 0.98795 0.13958 0.0
C2345 C 0.43508 0.98445 0.1416 0.0
C2346 C 0.47816 0.97264 0.13014 0.0
C2347 C 0.48722 0.97511 0.11457 0.0
C2348 C 0.4906 0.9929 0.10859 0.0
C2349 C 0.48415 0.00779 0.11764 0.0
C2350 C 0.47525 0.00533 0.13305 0.0
H2351 H 0.42157 0.98166 0.14536 0.0
H2352 H 0.43716 0.99691 0.1342 0.0
H2353 H 0.43648 0.97187 0.13158 0.0
H2354 H 0.47616 0.95919 0.13526 0.0
H2355 H 0.49226 0.96357 0.1078 0.0
H2356 H 0.79449 0.68809 0.9349 0.0
H2357 H 0.80049 0.70285 0.90686 0.0
H2358 H 0.77914 0.74947 0.92954 0.0
H2359 H 0.77274 0.73463 0.95728 0.0
H2360 H 0.77159 0.71381 0.88206 0.0
H2361 H 0.82915 0.77356 0.91287 0.0
H2362 H 0.82355 0.75189 0.92266 0.0
H2363 H 0.81125 0.76957 0.92666 0.0
C2364 C 0.79122 0.70156 0.93398 0.0
C2365 C 0.78301 0.71011 0.94825 0.0
C2366 C 0.79463 0.70996 0.91795 0.0
C2367 C 0.79031 0.72728 0.91614 0.0
C2368 C 0.78265 0.73614 0.93066 0.0
H2369 H 0.79389 0.80557 0.8377 0.0
H2370 H 0.7922 0.78858 0.86447 0.0
C2371 C 0.77892 0.72759 0.94646 0.0
C2372 C 0.79277 0.73563 0.89864 0.0
H2373 H 0.81593 0.77399 0.88214 0.0
C2374 C 0.78141 0.72684 0.88196 0.0
C2375 C 0.80547 0.75272 0.89863 0.0
C2376 C 0.81817 0.76251 0.91609 0.0
C2377 C 0.78202 0.73501 0.86543 0.0
C2378 C 0.79466 0.75222 0.86541 0.0
C2379 C 0.80625 0.76079 0.88206 0.0
C2380 C 0.79545 0.76218 0.84869 0.0
C2381 C 0.76858 0.72559 0.84845 0.0
C2382 C 0.79794 0.75312 0.83076 0.0
C2383 C 0.79877 0.76285 0.81529 0.0
C2384 C 0.79716 0.7818 0.81749 0.0
C2385 C 0.79492 0.79086 0.83547 0.0
C2386 C 0.79403 0.78118 0.85084 0.0
H2387 H 0.75728 0.71546 0.85232 0.0
H2388 H 0.7637 0.73644 0.84173 0.0
H2389 H 0.77462 0.71742 0.83781 0.0
H2390 H 0.79964 0.73868 0.82881 0.0
H2391 H 0.80141 0.75584 0.80192 0.0
H2392 H 0.84402 0.14997 0.00501 0.0
H2393 H 0.86596 0.13502 0.99198 0.0
H2394 H 0.83995 0.08126 0.00624 0.0
H2395 H 0.81786 0.09594 0.01919 0.0
H2396 H 0.88601 0.1176 0.01604 0.0
H2397 H 0.85087 0.06729 0.95088 0.0
H2398 H 0.84335 0.08765 0.96127 0.0
H2399 H 0.84005 0.0665 0.97175 0.0
C2400 C 0.84293 0.13495 0.00529 0.0
C2401 C 0.82941 0.12415 0.01328 0.0
C2402 C 0.85532 0.12644 0.99768 0.0
C2403 C 0.85423 0.10708 0.99791 0.0
C2404 C 0.84064 0.09615 0.0056 0.0
H2405 H 0.91549 0.02736 0.98553 0.0
H2406 H 0.89265 0.0447 0.98609 0.0
C2407 C 0.82824 0.10463 0.01322 0.0
C2408 C 0.86862 0.09898 0.99255 0.0
H2409 H 0.87878 0.06368 0.96245 0.0
C2410 C 0.88462 0.10601 0.00415 0.0
C2411 C 0.86638 0.08376 0.97721 0.0
C2412 C 0.84927 0.0759 0.96444 0.0
C2413 C 0.89847 0.0976 1.00134 0.0
C2414 C 0.8963 0.08225 0.98601 0.0
C2415 C 0.88038 0.0756 0.97404 0.0
C2416 C 0.90977 0.07166 0.98342 0.0
C2417 C 0.91484 0.10453 0.01547 0.0
C2418 C 0.92678 0.08106 0.98125 0.0
C2419 C 0.93989 0.07126 0.9813 0.0
C2420 C 0.93595 0.05188 0.983 0.0
C2421 C 0.91874 0.04229 0.9841 0.0
C2422 C 0.90573 0.05214 0.98439 0.0
H2423 H 0.91258 0.11295 0.02884 0.0
H2424 H 0.91991 0.09236 0.01905 0.0
H2425 H 0.92502 0.11396 0.00926 0.0
H2426 H 0.92997 0.09604 0.98005 0.0
H2427 H 0.9531 0.07881 0.98022 0.0
H2428 H 0.34821 0.42345 0.00456 0.0
H2429 H 0.37737 0.44035 0.99907 0.0
H2430 H 0.39505 0.44905 0.05895 0.0
H2431 H 0.36639 0.43154 0.06431 0.0
H2432 H 0.39738 0.47511 0.00979 0.0
H2433 H 0.43256 0.42718 0.0397 0.0
H2434 H 0.40908 0.42146 0.03531 0.0
H2435 H 0.42055 0.43682 0.05698 0.0
C2436 C 0.35835 0.42895 0.01654 0.0
C2437 C 0.35496 0.42594 0.03487 0.0
C2438 C 0.37506 0.43861 0.01339 0.0
C2439 C 0.38875 0.44559 0.0285 0.0
C2440 C 0.38508 0.44323 0.04688 0.0
H2441 H 0.49089 0.52132 0.05416 0.0
H2442 H 0.46155 0.5008 0.05272 0.0
C2443 C 0.36855 0.43332 0.04997 0.0
C2444 C 0.40675 0.45564 0.02534 0.0
H2445 H 0.45008 0.45822 0.03741 0.0
C2446 C 0.40886 0.47119 0.01559 0.0
C2447 C 0.42192 0.45051 0.03258 0.0
C2448 C 0.4209 0.43294 0.04152 0.0
C2449 C 0.42558 0.48223 0.01385 0.0
C2450 C 0.44064 0.47775 0.02215 0.0
C2451 C 0.43856 0.46184 0.03126 0.0
C2452 C 0.45861 0.49003 0.02261 0.0
C2453 C 0.42707 0.49905 0.00374 0.0
C2454 C 0.46697 0.49061 0.00619 0.0
C2455 C 0.48393 0.50223 0.00702 0.0
C2456 C 0.49281 0.51359 0.02427 0.0
C2457 C 0.48446 0.51276 0.04066 0.0
C2458 C 0.46764 0.50105 0.03985 0.0
H2459 H 0.41417 0.50182 0.99968 0.0
H2460 H 0.4356 0.51212 0.01289 0.0
H2461 H 0.4332 0.49625 0.99068 0.0
H2462 H 0.46037 0.48207 0.99275 0.0
H2463 H 0.48995 0.5026 0.99411 0.0
H2464 H 0.3763 0.59957 0.74224 0.0
H2465 H 0.35985 0.62458 0.74203 0.0
H2466 H 0.39584 0.66012 0.78897 0.0
H2467 H 0.41221 0.6358 0.78904 0.0
H2468 H 0.34156 0.6423 0.76631 0.0
H2469 H 0.39701 0.70034 0.75784 0.0
H2470 H 0.39845 0.6758 0.75518 0.0
H2471 H 0.40111 0.69022 0.77845 0.0
C2472 C 0.38085 0.61273 0.75246 0.0
C2473 C 0.39603 0.61518 0.76553 0.0
C2474 C 0.3713 0.62726 0.75238 0.0
C2475 C 0.3765 0.64509 0.76518 0.0
C2476 C 0.39144 0.64724 0.77836 0.0
H2477 H 0.34118 0.75508 0.78527 0.0
H2478 H 0.35665 0.72947 0.78523 0.0
C2479 C 0.40089 0.63288 0.77847 0.0
C2480 C 0.3664 0.66111 0.76522 0.0
H2481 H 0.37147 0.70961 0.7656 0.0
C2482 C 0.34821 0.65695 0.76598 0.0
C2483 C 0.37457 0.68075 0.76521 0.0
C2484 C 0.39382 0.68706 0.76396 0.0
C2485 C 0.33839 0.67127 0.76716 0.0
C2486 C 0.34646 0.69089 0.76668 0.0
C2487 C 0.36471 0.695 0.76593 0.0
C2488 C 0.33651 0.70716 0.76695 0.0
C2489 C 0.31948 0.665 0.76993 0.0
C2490 C 0.31976 0.70435 0.75659 0.0
C2491 C 0.3106 0.71907 0.75711 0.0
C2492 C 0.31783 0.73784 0.76741 0.0
C2493 C 0.33483 0.74102 0.7772 0.0
C2494 C 0.34384 0.7261 0.77709 0.0
H2495 H 0.3171 0.65231 0.77703 0.0
H2496 H 0.31516 0.67655 0.77863 0.0
H2497 H 0.31134 0.66076 0.75588 0.0
H2498 H 0.31363 0.69072 0.74766 0.0
H2499 H 0.2978 0.71573 0.74896 0.0
H2500 H 0.23963 0.58991 0.50203 0.0
H2501 H 0.21135 0.57943 0.48236 0.0
H2502 H 0.19224 0.62083 0.51851 0.0
H2503 H 0.22036 0.63151 0.53813 0.0
H2504 H 0.19028 0.56546 0.50794 0.0
H2505 H 0.15841 0.61034 0.46883 0.0
H2506 H 0.18168 0.61232 0.47065 0.0
H2507 H 0.17255 0.62472 0.48929 0.0
C2508 C 0.22942 0.5969 0.50568 0.0
C2509 C 0.2318 0.61072 0.52226 0.0
C2510 C 0.21355 0.59138 0.49401 0.0
C2511 C 0.19981 0.59934 0.49903 0.0
C2512 C 0.20279 0.61465 0.51428 0.0
H2513 H 0.10427 0.57879 0.53857 0.0
H2514 H 0.134 0.59016 0.5307 0.0
C2515 C 0.21863 0.62018 0.52596 0.0
C2516 C 0.1821 0.58726 0.49479 0.0
H2517 H 0.14059 0.59244 0.48977 0.0
C2518 C 0.1793 0.57091 0.50328 0.0
C2519 C 0.16796 0.59454 0.48885 0.0
C2520 C 0.17032 0.61136 0.47871 0.0
C2521 C 0.16313 0.56336 0.50854 0.0
C2522 C 0.14935 0.57172 0.50407 0.0
C2523 C 0.15155 0.5866 0.4936 0.0
C2524 C 0.1324 0.56481 0.50988 0.0
C2525 C 0.16125 0.54762 0.52021 0.0
C2526 C 0.12237 0.54683 0.50102 0.0
C2527 C 0.10572 0.54051 0.50535 0.0
C2528 C 0.09903 0.55202 0.51872 0.0
C2529 C 0.10939 0.56969 0.52837 0.0
C2530 C 0.12612 0.5762 0.52378 0.0
H2531 H 0.17407 0.54544 0.52558 0.0
H2532 H 0.15427 0.55093 0.53251 0.0
H2533 H 0.15346 0.534 0.51134 0.0
H2534 H 0.1272 0.538 0.49028 0.0
H2535 H 0.09785 0.52695 0.49761 0.0
H2536 H 0.66502 0.97991 0.75683 0.0
H2537 H 0.68072 0.96062 0.77296 0.0
H2538 H 0.72855 0.98874 0.75432 0.0
H2539 H 0.71303 0.00861 0.73854 0.0
H2540 H 0.69857 0.93625 0.75685 0.0
H2541 H 0.74244 0.99352 0.81117 0.0
H2542 H 0.72361 0.99719 0.79758 0.0
H2543 H 0.74355 0.99788 0.78738 0.0
C2544 C 0.67885 0.9819 0.75602 0.0
C2545 C 0.68787 0.99572 0.7465 0.0
C2546 C 0.68778 0.97103 0.76539 0.0
C2547 C 0.70576 0.97377 0.7652 0.0
C2548 C 0.71472 0.98699 0.75507 0.0
H2549 H 0.78669 0.92341 0.78547 0.0
H2550 H 0.76741 0.94481 0.78345 0.0
C2551 C 0.70583 0.99806 0.74586 0.0
C2552 C 0.7149 0.96173 0.77447 0.0
H2553 H 0.7497 0.96318 0.80629 0.0
C2554 C 0.70958 0.94199 0.7679 0.0
C2555 C 0.72912 0.96954 0.78888 0.0
C2556 C 0.73492 0.99069 0.7968 0.0
C2557 C 0.71892 0.92976 0.77446 0.0
C2558 C 0.73363 0.93762 0.78839 0.0
C2559 C 0.73833 0.95729 0.79571 0.0
C2560 C 0.74584 0.92627 0.7932 0.0
C2561 C 0.71361 0.90883 0.76544 0.0
C2562 C 0.74024 0.90921 0.80006 0.0
C2563 C 0.75111 0.89677 0.80075 0.0
C2564 C 0.76781 0.90176 0.79527 0.0
C2565 C 0.77391 0.91954 0.79001 0.0
C2566 C 0.76292 0.9317 0.78885 0.0
H2567 H 0.70413 0.90607 0.75238 0.0
H2568 H 0.72515 0.9036 0.76169 0.0
H2569 H 0.70731 0.90035 0.7756 0.0
H2570 H 0.7272 0.90508 0.80387 0.0
H2571 H 0.74629 0.88299 0.80477 0.0
H2572 H 0.76373 0.92524 0.50162 0.0
H2573 H 0.7398 0.93935 0.49171 0.0
H2574 H 0.70972 0.91413 0.53239 0.0
H2575 H 0.73336 0.89983 0.54221 0.0
H2576 H 0.69529 0.91402 0.48414 0.0
H2577 H 0.72224 0.98035 0.53797 0.0
H2578 H 0.7362 0.96701 0.52661 0.0
H2579 H 0.72374 0.95766 0.54412 0.0
C2580 C 0.75203 0.92275 0.50849 0.0
C2581 C 0.75051 0.91153 0.52282 0.0
C2582 C 0.73833 0.93066 0.50268 0.0
C2583 C 0.72297 0.92763 0.51123 0.0
C2584 C 0.7214 0.91643 0.52548 0.0
H2585 H 0.63776 0.97725 0.52803 0.0
H2586 H 0.66054 0.95995 0.52784 0.0
C2587 C 0.73497 0.90837 0.53114 0.0
C2588 C 0.70898 0.9372 0.50644 0.0
H2589 H 0.69407 0.9763 0.52216 0.0
C2590 C 0.69505 0.92775 0.49224 0.0
C2591 C 0.70877 0.95507 0.51703 0.0
C2592 C 0.72352 0.96578 0.53228 0.0
C2593 C 0.68057 0.93549 0.48886 0.0
C2594 C 0.68011 0.95309 0.49999 0.0
C2595 C 0.69436 0.96275 0.51371 0.0
C2596 C 0.66465 0.96136 0.49873 0.0
C2597 C 0.66562 0.92446 0.47396 0.0
C2598 C 0.65903 0.96759 0.48225 0.0
C2599 C 0.64573 0.97737 0.48223 0.0
C2600 C 0.63787 0.98121 0.49873 0.0
C2601 C 0.6432 0.97434 0.51495 0.0
C2602 C 0.65639 0.96456 0.51493 0.0
H2603 H 0.66645 0.9095 0.46926 0.0
H2604 H 0.65293 0.9242 0.47938 0.0
H2605 H 0.66586 0.93161 0.4614 0.0
H2606 H 0.66533 0.96552 0.46963 0.0
H2607 H 0.64185 0.98225 0.4694 0.0
H2608 H 0.38304 0.50593 0.77769 0.0
H2609 H 0.36672 0.47384 0.78146 0.0
H2610 H 0.37963 0.44979 0.72773 0.0
H2611 H 0.39643 0.48125 0.72446 0.0
H2612 H 0.33955 0.44731 0.76522 0.0
H2613 H 0.3934 0.41242 0.75519 0.0
H2614 H 0.39668 0.43795 0.7575 0.0
H2615 H 0.38846 0.42253 0.73484 0.0
C2616 C 0.38239 0.49381 0.76665 0.0
C2617 C 0.39134 0.49654 0.75078 0.0
C2618 C 0.37302 0.47525 0.76884 0.0
C2619 C 0.37215 0.45866 0.75523 0.0
C2620 C 0.38048 0.46169 0.73905 0.0
H2621 H 0.31933 0.33413 0.7349 0.0
H2622 H 0.33722 0.36638 0.7341 0.0
C2623 C 0.39002 0.48003 0.73703 0.0
C2624 C 0.36237 0.43845 0.75753 0.0
H2625 H 0.36507 0.39141 0.75267 0.0
C2626 C 0.34532 0.43521 0.76262 0.0
C2627 C 0.36947 0.42211 0.7543 0.0
C2628 C 0.38806 0.42395 0.75036 0.0
C2629 C 0.33522 0.41664 0.76383 0.0
C2630 C 0.34219 0.40024 0.7602 0.0
C2631 C 0.35932 0.40352 0.75534 0.0
C2632 C 0.33203 0.37978 0.76127 0.0
C2633 C 0.3168 0.41485 0.76835 0.0
C2634 C 0.32337 0.37562 0.77703 0.0
C2635 C 0.31297 0.35711 0.77737 0.0
C2636 C 0.31125 0.34162 0.76235 0.0
C2637 C 0.32058 0.34541 0.74699 0.0
C2638 C 0.33078 0.36409 0.74648 0.0
H2639 H 0.31161 0.42694 0.76473 0.0
H2640 H 0.30791 0.40127 0.76057 0.0
H2641 H 0.31668 0.41514 0.7838 0.0
H2642 H 0.32439 0.3868 0.78912 0.0
H2643 H 0.3059 0.35498 0.78937 0.0
H2644 H 0.17733 0.60284 0.28276 0.0
H2645 H 0.19897 0.63375 0.29174 0.0
H2646 H 0.20589 0.63344 0.23288 0.0
H2647 H 0.18494 0.60234 0.22403 0.0
H2648 H 0.23391 0.63069 0.27741 0.0
H2649 H 0.20832 0.69124 0.25935 0.0
H2650 H 0.19484 0.67048 0.26631 0.0
H2651 H 0.20017 0.66937 0.24247 0.0
C2652 C 0.18301 0.60986 0.27176 0.0
C2653 C 0.17979 0.6005 0.2528 0.0
C2654 C 0.19527 0.62737 0.27689 0.0
C2655 C 0.20381 0.63564 0.26292 0.0
C2656 C 0.19917 0.6272 0.24374 0.0
H2657 H 0.27734 0.71081 0.22661 0.0
H2658 H 0.26149 0.67927 0.23082 0.0
C2659 C 0.18733 0.60952 0.2387 0.0
C2660 C 0.22001 0.65048 0.26803 0.0
H2661 H 0.23874 0.69329 0.25689 0.0
C2662 C 0.23512 0.64467 0.2735 0.0
C2663 C 0.22124 0.66851 0.26291 0.0
C2664 C 0.20526 0.67538 0.25759 0.0
C2665 C 0.25162 0.65582 0.27202 0.0
C2666 C 0.25268 0.67295 0.26504 0.0
C2667 C 0.23767 0.67964 0.26152 0.0
C2668 C 0.26907 0.68466 0.2612 0.0
C2669 C 0.26765 0.6488 0.27669 0.0
C2670 C 0.28022 0.69676 0.27654 0.0
C2671 C 0.28951 0.7146 0.2741 0.0
C2672 C 0.28714 0.72035 0.25647 0.0
C2673 C 0.27896 0.70677 0.24042 0.0
C2674 C 0.26997 0.68873 0.24281 0.0
H2675 H 0.26436 0.63408 0.27992 0.0
H2676 H 0.2755 0.64901 0.26468 0.0
H2677 H 0.27591 0.65854 0.28922 0.0
H2678 H 0.27972 0.69375 0.2908 0.0
H2679 H 0.29644 0.72476 0.28653 0.0
H2680 H 0.51265 0.70394 0.41318 0.0
H2681 H 0.51669 0.67574 0.4261 0.0
H2682 H 0.52302 0.70769 0.48289 0.0
H2683 H 0.51889 0.73577 0.47018 0.0
H2684 H 0.54532 0.67136 0.44919 0.0
H2685 H 0.48635 0.65949 0.48606 0.0
H2686 H 0.48941 0.67511 0.4688 0.0
H2687 H 0.50039 0.68315 0.49263 0.0
C2688 C 0.5147 0.70491 0.42842 0.0
C2689 C 0.51531 0.72218 0.44059 0.0
C2690 C 0.5171 0.68878 0.43581 0.0
C2691 C 0.51994 0.68943 0.45552 0.0
C2692 C 0.52052 0.70663 0.46767 0.0
H2693 H 0.5492 0.60619 0.52118 0.0
H2694 H 0.54637 0.63601 0.51055 0.0
C2695 C 0.51823 0.72275 0.46032 0.0
C2696 C 0.52269 0.67231 0.46335 0.0
H2697 H 0.50622 0.64055 0.4916 0.0
C2698 C 0.53674 0.66464 0.45844 0.0
C2699 C 0.51159 0.66351 0.47554 0.0
C2700 C 0.49599 0.6706 0.48097 0.0
C2701 C 0.53993 0.64853 0.46537 0.0
C2702 C 0.52874 0.63971 0.47736 0.0
C2703 C 0.51482 0.6474 0.48244 0.0
C2704 C 0.5307 0.62181 0.48388 0.0
C2705 C 0.55518 0.64087 0.45979 0.0
C2706 C 0.52272 0.60399 0.47248 0.0
C2707 C 0.52404 0.587 0.47865 0.0
C2708 C 0.53358 0.58748 0.49624 0.0
C2709 C 0.54178 0.60537 0.50755 0.0
C2710 C 0.54019 0.62239 0.50151 0.0
H2711 H 0.5636 0.65028 0.45174 0.0
H2712 H 0.56321 0.63932 0.47265 0.0
H2713 H 0.5503 0.62644 0.45088 0.0
H2714 H 0.51541 0.60323 0.45881 0.0
H2715 H 0.51779 0.57347 0.4695 0.0
H2716 H 0.61177 0.30116 0.6708 0.0
H2717 H 0.63754 0.29617 0.68923 0.0
H2718 H 0.66537 0.29962 0.6407 0.0
H2719 H 0.63989 0.30448 0.62234 0.0
H2720 H 0.65518 0.26584 0.68032 0.0
H2721 H 0.70046 0.33683 0.68357 0.0
H2722 H 0.67709 0.33275 0.67826 0.0
H2723 H 0.68962 0.32522 0.66032 0.0
C2724 C 0.62344 0.30111 0.66413 0.0
C2725 C 0.62362 0.30337 0.64502 0.0
C2726 C 0.63821 0.29817 0.67468 0.0
C2727 C 0.65366 0.29775 0.66654 0.0
C2728 C 0.65387 0.30021 0.64756 0.0
H2729 H 0.75745 0.2828 0.71127 0.0
H2730 H 0.73285 0.28699 0.69001 0.0
C2731 C 0.63914 0.30293 0.637 0.0
C2732 C 0.66929 0.29391 0.67743 0.0
H2733 H 0.71266 0.31298 0.69429 0.0
C2734 C 0.6677 0.27622 0.68343 0.0
C2735 C 0.68585 0.30721 0.68131 0.0
C2736 C 0.68843 0.32665 0.67569 0.0
C2737 C 0.68204 0.27143 0.69296 0.0
C2738 C 0.69856 0.28488 0.69727 0.0
C2739 C 0.70019 0.30253 0.69105 0.0
C2740 C 0.71373 0.28143 0.70943 0.0
C2741 C 0.67932 0.25172 0.69796 0.0
C2742 C 0.71151 0.27695 0.72749 0.0
C2743 C 0.72538 0.27426 0.73938 0.0
C2744 C 0.74222 0.27615 0.73393 0.0
C2745 C 0.74464 0.28063 0.71582 0.0
C2746 C 0.73056 0.28329 0.70374 0.0
H2747 H 0.66859 0.24128 0.68815 0.0
H2748 H 0.69134 0.24644 0.6975 0.0
H2749 H 0.6756 0.25221 0.71249 0.0
H2750 H 0.69903 0.276 0.73272 0.0
H2751 H 0.72293 0.27117 0.75329 0.0
H2752 H 0.01704 0.31261 0.97521 0.0
H2753 H 0.0224 0.34698 0.9877 0.0
H2754 H 0.02374 0.35905 0.931 0.0
H2755 H 0.0185 0.32492 0.91835 0.0
H2756 H 0.05311 0.38229 0.97292 0.0
H2757 H 0.98188 0.37848 0.96321 0.0
H2758 H 0.98992 0.35843 0.96871 0.0
H2759 H 0.99116 0.36476 0.94569 0.0
C2760 C 0.01856 0.32257 0.9654 0.0
C2761 C 0.01719 0.31597 0.94576 0.0
C2762 C 0.02171 0.34218 0.97258 0.0
C2763 C 0.02348 0.35543 0.96023 0.0
C2764 C 0.02249 0.34898 0.94072 0.0
H2765 H 0.01543 0.47226 0.96976 0.0
H2766 H 0.01374 0.43811 0.96043 0.0
C2767 C 0.01943 0.32945 0.93354 0.0
C2768 C 0.02514 0.37591 0.96746 0.0
H2769 H 1.00088 0.40872 0.97422 0.0
C2770 C 0.04175 0.38817 0.97334 0.0
C2771 C 0.01028 0.3834 0.96767 0.0
C2772 C 0.99223 0.37069 0.96104 0.0
C2773 C 0.04392 0.40795 0.97922 0.0
C2774 C 0.02896 0.41548 0.97971 0.0
C2775 C 0.01235 0.40303 0.97392 0.0
C2776 C 0.03011 0.43624 0.98554 0.0
C2777 C 0.06223 0.42055 0.9841 0.0
C2778 C 0.03963 0.44657 0.00287 0.0
C2779 C 0.04101 0.46617 0.00788 0.0
C2780 C 0.03228 0.47559 0.99606 0.0
C2781 C 0.02213 0.4652 0.97916 0.0
C2782 C 0.02122 0.44573 0.97384 0.0
H2783 H 0.07181 0.41365 0.97738 0.0
H2784 H 0.06321 0.43457 0.97952 0.0
H2785 H 0.06601 0.42311 0.99968 0.0
H2786 H 0.04603 0.43952 0.01252 0.0
H2787 H 0.0488 0.47397 0.02107 0.0
H2788 H 0.03036 0.81122 0.16328 0.0
H2789 H 1.00354 0.80725 0.17844 0.0
H2790 H 0.97578 0.76584 0.1298 0.0
H2791 H 1.00234 0.76969 0.11461 0.0
H2792 H 0.97053 0.81328 0.16293 0.0
H2793 H 0.96322 0.73855 0.17492 0.0
H2794 H 0.98361 0.75298 0.17032 0.0
H2795 H 0.96622 0.74256 0.15127 0.0
C2796 C 0.01859 0.80116 0.15588 0.0
C2797 C 0.01861 0.79079 0.13771 0.0
C2798 C 1.00324 0.79891 0.16455 0.0
C2799 C 0.98763 0.78604 0.1554 0.0
C2800 C 0.98766 0.7756 0.13734 0.0
H2801 H 0.8828 0.75493 0.19134 0.0
H2802 H 0.90825 0.75587 0.17407 0.0
C2803 C 1.00291 0.77795 0.12861 0.0
C2804 C 0.97115 0.78423 0.16431 0.0
H2805 H 0.94048 0.75319 0.18253 0.0
C2806 C 0.96402 0.80017 0.1673 0.0
C2807 C 0.96232 0.76696 0.16953 0.0
C2808 C 0.96923 0.74928 0.16649 0.0
C2809 C 0.94844 0.7994 0.17542 0.0
C2810 C 0.94002 0.78244 0.18157 0.0
C2811 C 0.94693 0.7663 0.17811 0.0
C2812 C 0.92445 0.78149 0.19213 0.0
C2813 C 0.94095 0.81671 0.17679 0.0
C2814 C 0.92501 0.79525 0.20831 0.0
C2815 C 0.91039 0.79495 0.21791 0.0
C2816 C 0.89491 0.78054 0.21196 0.0
C2817 C 0.8945 0.76629 0.19622 0.0
C2818 C 0.90908 0.76681 0.18636 0.0
H2819 H 0.94501 0.82527 0.16572 0.0
H2820 H 0.92648 0.81259 0.17526 0.0
H2821 H 0.94591 0.82605 0.19079 0.0
H2822 H 0.93683 0.80629 0.21362 0.0
H2823 H 0.91131 0.80585 0.23025 0.0
H2824 H 0.50677 0.31159 0.13849 0.0
H2825 H 0.515 0.3421 0.12722 0.0
H2826 H 0.52802 0.31287 0.07581 0.0
H2827 H 0.52018 0.28235 0.08715 0.0
H2828 H 0.55184 0.35654 0.11057 0.0
H2829 H 0.48862 0.34594 0.06496 0.0
H2830 H 0.4904 0.33521 0.08586 0.0
H2831 H 0.49808 0.3257 0.06469 0.0
C2832 C 0.51131 0.3117 0.12475 0.0
C2833 C 0.51279 0.29471 0.11357 0.0
C2834 C 0.5161 0.32908 0.11844 0.0
C2835 C 0.5221 0.32953 0.10079 0.0
C2836 C 0.52347 0.31262 0.08955 0.0
H2837 H 0.54496 0.40611 0.02421 0.0
H2838 H 0.54176 0.37973 0.04171 0.0
C2839 C 0.51899 0.2953 0.09598 0.0
C2840 C 0.52658 0.34762 0.09376 0.0
H2841 H 0.51154 0.37189 0.0618 0.0
C2842 C 0.54304 0.36009 0.10005 0.0
C2843 C 0.51493 0.352 0.08016 0.0
C2844 C 0.49694 0.33912 0.07352 0.0
C2845 C 0.54843 0.37673 0.09242 0.0
C2846 C 0.53695 0.3808 0.07836 0.0
C2847 C 0.5203 0.36855 0.07252 0.0
C2848 C 0.542 0.39729 0.06885 0.0
C2849 C 0.56647 0.3895 0.09889 0.0
C2850 C 0.5437 0.41591 0.07855 0.0
C2851 C 0.54574 0.43111 0.06862 0.0
C2852 C 0.54593 0.4278 0.04885 0.0
C2853 C 0.54511 0.40921 0.03944 0.0
C2854 C 0.54315 0.39409 0.04938 0.0
H2855 H 0.57461 0.3829 0.10793 0.0
H2856 H 0.57316 0.3928 0.08645 0.0
H2857 H 0.56546 0.40323 0.1072 0.0
H2858 H 0.54265 0.41854 0.09358 0.0
H2859 H 0.54653 0.44533 0.07629 0.0
H2860 H 0.04528 0.32515 0.33604 0.0
H2861 H 0.01694 0.32538 0.31973 0.0
H2862 H 0.99227 0.27707 0.34393 0.0
H2863 H 0.02041 0.2771 0.36072 0.0
H2864 H 0.99303 0.29736 0.29388 0.0
H2865 H 0.96519 0.31654 0.36001 0.0
H2866 H 0.9882 0.31844 0.3596 0.0
H2867 H 0.97352 0.29565 0.35967 0.0
C2868 C 0.03381 0.31451 0.33775 0.0
C2869 C 0.03491 0.30117 0.3497 0.0
C2870 C 0.0177 0.31469 0.32849 0.0
C2871 C 1.00261 0.30147 0.33099 0.0
C2872 C 0.00379 0.28767 0.34227 0.0
H2873 H 0.89298 0.27756 0.29423 0.0
H2874 H 0.92251 0.27502 0.30421 0.0
C2875 C 0.01983 0.28763 0.35174 0.0
C2876 C 0.98551 0.30212 0.32192 0.0
H2877 H 0.94522 0.30615 0.33156 0.0
C2878 C 0.98256 0.29938 0.30206 0.0
C2879 C 0.97208 0.30497 0.33277 0.0
C2880 C 0.97493 0.30927 0.35419 0.0
C2881 C 0.96618 0.29877 0.29267 0.0
C2882 C 0.95264 0.301 0.30353 0.0
C2883 C 0.95568 0.3041 0.32337 0.0
C2884 C 0.93525 0.30085 0.29475 0.0
C2885 C 0.96335 0.29545 0.27129 0.0
C2886 C 0.93288 0.31602 0.28587 0.0
C2887 C 0.91611 0.3176 0.28032 0.0
C2888 C 0.90156 0.30406 0.28372 0.0
C2889 C 0.90402 0.2883 0.2917 0.0
C2890 C 0.92079 0.28678 0.29729 0.0
H2891 H 0.97393 0.29002 0.26502 0.0
H2892 H 0.95066 0.2851 0.26571 0.0
H2893 H 0.96305 0.30916 0.26656 0.0
H2894 H 0.94396 0.32717 0.28416 0.0
H2895 H 0.91456 0.33 0.27442 0.0
H2896 H 0.02382 0.72099 0.59565 0.0
H2897 H 0.03089 0.69055 0.58525 0.0
H2898 H 0.98519 0.66063 0.60625 0.0
H2899 H 0.97803 0.6912 0.61705 0.0
H2900 H 0.03052 0.65644 0.61177 0.0
H2901 H 0.98691 0.64427 0.54336 0.0
H2902 H 0.99712 0.66814 0.55603 0.0
H2903 H 0.97982 0.6533 0.56529 0.0
C2904 C 0.01519 0.70794 0.59795 0.0
C2905 C 1.00026 0.70832 0.60691 0.0
C2906 C 0.01939 0.69068 0.59226 0.0
C2907 C 0.00861 0.67365 0.59525 0.0
C2908 C 0.99368 0.67385 0.60413 0.0
H2909 H 0.00687 0.56363 0.53302 0.0
H2910 H 1.00017 0.58868 0.55558 0.0
C2911 C 0.98956 0.69119 0.61007 0.0
C2912 C 0.01226 0.65557 0.58744 0.0
H2913 H 0.00386 0.62251 0.54703 0.0
C2914 C 0.02457 0.64872 0.59774 0.0
C2915 C 0.00449 0.64596 0.56915 0.0
C2916 C 0.99135 0.6532 0.55768 0.0
C2917 C 0.02938 0.63216 0.59001 0.0
C2918 C 0.02185 0.62272 0.57147 0.0
C2919 C 0.00945 0.62966 0.56134 0.0
C2920 C 0.02679 0.60595 0.56167 0.0
C2921 C 0.04239 0.62501 0.60173 0.0
C2922 C 0.04409 0.60712 0.55823 0.0
C2923 C 0.04797 0.59256 0.54569 0.0
C2924 C 0.03446 0.57722 0.53607 0.0
C2925 C 0.01736 0.57564 0.54012 0.0
C2926 C 0.01358 0.5898 0.55306 0.0
H2927 H 0.04244 0.62985 0.61715 0.0
H2928 H 0.03959 0.60915 0.59877 0.0
H2929 H 0.05566 0.63086 0.59824 0.0
H2930 H 0.05439 0.61969 0.56435 0.0
H2931 H 0.06127 0.59382 0.54269 0.0
H2932 H 0.61569 0.79931 0.82992 0.0
H2933 H 0.63762 0.79283 0.81011 0.0
H2934 H 0.67604 0.84032 0.8445 0.0
H2935 H 0.6541 0.84692 0.86473 0.0
H2936 H 0.65979 0.81754 0.78967 0.0
H2937 H 0.69491 0.7914 0.84664 0.0
H2938 H 0.67299 0.79432 0.84737 0.0
H2939 H 0.69128 0.81481 0.85333 0.0
C2940 C 0.62879 0.80846 0.83327 0.0
C2941 C 0.63334 0.82347 0.84901 0.0
C2942 C 0.64121 0.80477 0.82188 0.0
C2943 C 0.6583 0.81598 0.82613 0.0
C2944 C 0.66282 0.83146 0.8413 0.0
H2945 H 0.75132 0.82757 0.77964 0.0
H2946 H 0.72365 0.83056 0.79007 0.0
C2947 C 0.65034 0.83523 0.85274 0.0
C2948 C 0.67157 0.8108 0.81513 0.0
H2949 H 0.70849 0.79483 0.81884 0.0
C2950 C 0.67041 0.81248 0.79594 0.0
C2951 C 0.685 0.80376 0.82344 0.0
C2952 C 0.6861 0.80076 0.84379 0.0
C2953 C 0.68306 0.80811 0.78496 0.0
C2954 C 0.69691 0.80202 0.79356 0.0
C2955 C 0.69768 0.79956 0.81249 0.0
C2956 C 0.71185 0.80014 0.78387 0.0
C2957 C 0.68189 0.81034 0.76443 0.0
C2958 C 0.71391 0.78201 0.77669 0.0
C2959 C 0.72969 0.78019 0.77069 0.0
C2960 C 0.74353 0.79652 0.77211 0.0
C2961 C 0.74094 0.81474 0.77838 0.0
C2962 C 0.72516 0.81651 0.78428 0.0
H2963 H 0.66926 0.81316 0.75931 0.0
H2964 H 0.69264 0.82242 0.76266 0.0
H2965 H 0.6835 0.79721 0.75547 0.0
H2966 H 0.70363 0.76931 0.77651 0.0
H2967 H 0.73125 0.76597 0.76578 0.0
H2968 H 0.43694 0.53442 0.69514 0.0
H2969 H 0.4499 0.52869 0.66547 0.0
H2970 H 0.48625 0.58382 0.68155 0.0
H2971 H 0.47398 0.58921 0.71103 0.0
H2972 H 0.45339 0.54287 0.63434 0.0
H2973 H 0.52133 0.55661 0.66749 0.0
H2974 H 0.50351 0.55486 0.68146 0.0
H2975 H 0.51287 0.57707 0.67393 0.0
C2976 C 0.44777 0.5453 0.69248 0.0
C2977 C 0.45426 0.5623 0.70609 0.0
C2978 C 0.45529 0.54201 0.67527 0.0
C2979 C 0.46969 0.55549 0.67085 0.0
C2980 C 0.47579 0.57258 0.68431 0.0
H2981 H 0.5359 0.57269 0.57934 0.0
H2982 H 0.5207 0.5739 0.60724 0.0
C2983 C 0.46845 0.57578 0.70142 0.0
C2984 C 0.47801 0.55219 0.65227 0.0
H2985 H 0.51739 0.55685 0.63433 0.0
C2986 C 0.46741 0.54582 0.6345 0.0
C2987 C 0.49641 0.5558 0.65172 0.0
C2988 C 0.50916 0.56126 0.66968 0.0
C2989 C 0.47438 0.54385 0.6168 0.0
C2990 C 0.49279 0.54791 0.61623 0.0
C2991 C 0.50335 0.55385 0.63407 0.0
C2992 C 0.50149 0.54698 0.59771 0.0
C2993 C 0.46171 0.53816 0.59881 0.0
C2994 C 0.49622 0.53154 0.58201 0.0
C2995 C 0.50486 0.53108 0.56536 0.0
C2996 C 0.51941 0.54585 0.56383 0.0
C2997 C 0.52467 0.56108 0.57953 0.0
C2998 C 0.51594 0.5617 0.59586 0.0
H2999 H 0.44892 0.54121 0.60116 0.0
H3000 H 0.46687 0.54578 0.58751 0.0
H3001 H 0.45937 0.52253 0.59377 0.0
H3002 H 0.4857 0.5194 0.58272 0.0
H3003 H 0.50058 0.51875 0.55407 0.0
H3004 H 0.75102 0.18125 0.9967 0.0
H3005 H 0.74712 0.1941 0.96756 0.0
H3006 H 0.77926 0.16013 0.94122 0.0
H3007 H 0.7834 0.14725 0.9704 0.0
H3008 H 0.78286 0.20817 0.94284 0.0
H3009 H 0.72168 0.15272 0.91227 0.0
H3010 H 0.72658 0.1611 0.93757 0.0
H3011 H 0.73932 0.14675 0.92582 0.0
C3012 C 0.75726 0.17654 0.98471 0.0
C3013 C 0.76744 0.16326 0.98565 0.0
C3014 C 0.75505 0.18389 0.9682 0.0
C3015 C 0.76282 0.17781 0.9525 0.0
C3016 C 0.77321 0.16481 0.95339 0.0
H3017 H 0.75794 0.20476 0.84043 0.0
H3018 H 0.7569 0.18689 0.86667 0.0
C3019 C 0.77557 0.15757 0.96998 0.0
C3020 C 0.75984 0.18499 0.93503 0.0
H3021 H 0.73099 0.17738 0.89502 0.0
C3022 C 0.77161 0.20147 0.93229 0.0
C3023 C 0.74513 0.17598 0.92156 0.0
C3024 C 0.73237 0.15812 0.92429 0.0
C3025 C 0.76888 0.20944 0.9162 0.0
C3026 C 0.7539 0.20069 0.90289 0.0
C3027 C 0.74232 0.18398 0.90547 0.0
C3028 C 0.75026 0.20893 0.88622 0.0
C3029 C 0.78196 0.22715 0.91352 0.0
C3030 C 0.74581 0.22652 0.88854 0.0
C3031 C 0.74656 0.23677 0.87378 0.0
C3032 C 0.7517 0.22942 0.8566 0.0
C3033 C 0.75422 0.2108 0.85369 0.0
C3034 C 0.75357 0.20059 0.86854 0.0
H3035 H 0.79435 0.22988 0.92317 0.0
H3036 H 0.78491 0.22584 0.89865 0.0
H3037 H 0.77639 0.23974 0.91656 0.0
H3038 H 0.74311 0.23294 0.9022 0.0
H3039 H 0.74466 0.25113 0.87646 0.0
H3040 H 0.14208 0.51642 0.17973 0.0
H3041 H 0.12711 0.51941 0.1495 0.0
H3042 H 0.10109 0.55858 0.17903 0.0
H3043 H 0.1159 0.55572 0.20937 0.0
H3044 H 0.08295 0.51686 0.14807 0.0
H3045 H 0.13084 0.57785 0.12914 0.0
H3046 H 0.13835 0.56116 0.14196 0.0
H3047 H 0.12681 0.57712 0.15337 0.0
C3048 C 0.13309 0.52558 0.17974 0.0
C3049 C 0.12993 0.53571 0.19671 0.0
C3050 C 0.12477 0.52739 0.16259 0.0
C3051 C 0.11342 0.53943 0.16241 0.0
C3052 C 0.11005 0.54942 0.17924 0.0
H3053 H 0.05469 0.56502 0.06834 0.0
H3054 H 0.0737 0.56723 0.09779 0.0
C3055 C 0.11829 0.54754 0.19642 0.0
C3056 C 0.10387 0.54016 0.1446 0.0
H3057 H 0.10637 0.56226 0.10635 0.0
C3058 C 0.08793 0.52677 0.13888 0.0
C3059 C 0.11063 0.55338 0.13319 0.0
C3060 C 0.12759 0.56829 0.13961 0.0
C3061 C 0.07841 0.52601 0.1215 0.0
C3062 C 0.08549 0.53863 0.10954 0.0
C3063 C 0.1013 0.5524 0.11554 0.0
C3064 C 0.07615 0.53806 0.09106 0.0
C3065 C 0.06078 0.51195 0.11629 0.0
C3066 C 0.07179 0.52109 0.07762 0.0
C3067 C 0.06041 0.51958 0.06135 0.0
C3068 C 0.05402 0.53531 0.05829 0.0
C3069 C 0.05939 0.55271 0.07096 0.0
C3070 C 0.07031 0.55403 0.08751 0.0
H3071 H 0.0554 0.50727 0.12899 0.0
H3072 H 0.05128 0.51824 0.10879 0.0
H3073 H 0.06213 0.49904 0.10676 0.0
H3074 H 0.07669 0.50886 0.08008 0.0
H3075 H 0.0567 0.50632 0.05117 0.0
H3076 H 0.77451 0.85967 0.47447 0.0
H3077 H 0.7694 0.8446 0.44097 0.0
H3078 H 0.81897 0.82998 0.44677 0.0
H3079 H 0.8242 0.84493 0.48022 0.0
H3080 H 0.79124 0.85738 0.41489 0.0
H3081 H 0.7862 0.78063 0.41596 0.0
H3082 H 0.78317 0.79702 0.43615 0.0
H3083 H 0.80479 0.79609 0.43123 0.0
C3084 C 0.78417 0.85289 0.46874 0.0
C3085 C 0.79984 0.85361 0.48001 0.0
C3086 C 0.78122 0.84431 0.44958 0.0
C3087 C 0.79375 0.83606 0.44143 0.0
C3088 C 0.809 0.83598 0.45285 0.0
H3089 H 0.81943 0.80096 0.32939 0.0
H3090 H 0.81904 0.81038 0.36363 0.0
C3091 C 0.81202 0.84465 0.47195 0.0
C3092 C 0.79189 0.82942 0.42065 0.0
H3093 H 0.7926 0.79132 0.3869 0.0
C3094 C 0.79132 0.84288 0.40874 0.0
C3095 C 0.79194 0.81049 0.41267 0.0
C3096 C 0.79138 0.79516 0.42463 0.0
C3097 C 0.79154 0.8381 0.38913 0.0
C3098 C 0.79227 0.81938 0.38128 0.0
C3099 C 0.79235 0.80576 0.39307 0.0
C3100 C 0.79257 0.81359 0.36072 0.0
C3101 C 0.79143 0.85323 0.377 0.0
C3102 C 0.7778 0.81219 0.34792 0.0
C3103 C 0.77796 0.80682 0.32852 0.0
C3104 C 0.79293 0.80272 0.32146 0.0
C3105 C 0.80775 0.80411 0.33435 0.0
C3106 C 0.80753 0.80941 0.35388 0.0
H3107 H 0.79417 0.86781 0.38567 0.0
H3108 H 0.80125 0.85302 0.36697 0.0
H3109 H 0.77841 0.85023 0.36852 0.0
H3110 H 0.76609 0.81518 0.35296 0.0
H3111 H 0.76628 0.80593 0.31907 0.0
H3112 H 0.47985 0.54917 0.79819 0.0
H3113 H 0.49306 0.54813 0.82993 0.0
H3114 H 0.45082 0.56684 0.85393 0.0
H3115 H 0.43744 0.56789 0.82195 0.0
H3116 H 0.50575 0.57397 0.86296 0.0
H3117 H 0.44976 0.51905 0.87676 0.0
H3118 H 0.45194 0.52501 0.85352 0.0
H3119 H 0.44406 0.54015 0.87102 0.0
C3120 C 0.47329 0.55319 0.81015 0.0
C3121 C 0.45735 0.55853 0.80711 0.0
C3122 C 0.48098 0.5526 0.8285 0.0
C3123 C 0.47297 0.55701 0.84474 0.0
C3124 C 0.45729 0.56291 0.84187 0.0
H3125 H 0.50485 0.56373 0.96767 0.0
H3126 H 0.49208 0.56744 0.93648 0.0
C3127 C 0.44964 0.5637 0.82343 0.0
C3128 C 0.48092 0.55505 0.86433 0.0
H3129 H 0.47243 0.53225 0.90231 0.0
C3130 C 0.49837 0.56481 0.87146 0.0
C3131 C 0.47166 0.54298 0.87578 0.0
C3132 C 0.45338 0.53103 0.86888 0.0
C3133 C 0.50645 0.56315 0.88943 0.0
C3134 C 0.49711 0.55125 0.90086 0.0
C3135 C 0.47973 0.54146 0.89379 0.0
C3136 C 0.50515 0.5489 0.92015 0.0
C3137 C 0.52497 0.57434 0.89629 0.0
C3138 C 0.51684 0.53711 0.92182 0.0
C3139 C 0.52397 0.53465 0.93981 0.0
C3140 C 0.51999 0.54423 0.95682 0.0
C3141 C 0.50845 0.55619 0.95507 0.0
C3142 C 0.50103 0.55831 0.93711 0.0
H3143 H 0.53001 0.58445 0.88685 0.0
H3144 H 0.52583 0.58251 0.91084 0.0
H3145 H 0.53349 0.56428 0.89701 0.0
H3146 H 0.52036 0.52963 0.90914 0.0
H3147 H 0.53279 0.52536 0.94038 0.0
H3148 H 0.77106 0.19957 0.0563 0.0
H3149 H 0.76498 0.21781 0.08538 0.0
H3150 H 0.78946 0.18448 0.11884 0.0
H3151 H 0.79544 0.166 0.08985 0.0
H3152 H 0.75005 0.19701 0.1242 0.0
H3153 H 0.81373 0.25008 0.12735 0.0
H3154 H 0.80119 0.23775 0.10492 0.0
H3155 H 0.81194 0.22494 0.11951 0.0
C3156 C 0.77521 0.19622 0.06988 0.0
C3157 C 0.78405 0.18173 0.07101 0.0
C3158 C 0.77152 0.20642 0.08634 0.0
C3159 C 0.77677 0.2023 0.10399 0.0
C3160 C 0.78523 0.1876 0.10518 0.0
H3161 H 0.78304 0.24128 0.22048 0.0
H3162 H 0.77617 0.22279 0.18838 0.0
C3163 C 0.78876 0.17725 0.08872 0.0
C3164 C 0.77509 0.21463 0.12134 0.0
H3165 H 0.79778 0.25391 0.15299 0.0
C3166 C 0.76031 0.2096 0.13047 0.0
C3167 C 0.7886 0.23091 0.12922 0.0
C3168 C 0.80481 0.23639 0.11983 0.0
C3169 C 0.75893 0.22042 0.14784 0.0
C3170 C 0.77267 0.23646 0.15595 0.0
C3171 C 0.78718 0.24172 0.14647 0.0
C3172 C 0.77337 0.24686 0.17519 0.0
C3173 C 0.74302 0.21457 0.15758 0.0
C3174 C 0.7741 0.26648 0.17822 0.0
C3175 C 0.7783 0.27717 0.19653 0.0
C3176 C 0.78182 0.26826 0.21185 0.0
C3177 C 0.78029 0.24844 0.20884 0.0
C3178 C 0.7762 0.23783 0.19058 0.0
H3179 H 0.73213 0.2044 0.14776 0.0
H3180 H 0.74639 0.20748 0.1695 0.0
H3181 H 0.73856 0.22732 0.16355 0.0
H3182 H 0.77213 0.27361 0.16634 0.0
H3183 H 0.77932 0.29242 0.19863 0.0
H3184 H 0.13244 0.54889 0.27324 0.0
H3185 H 0.11772 0.56008 0.29938 0.0
H3186 H 0.15806 0.55209 0.33946 0.0
H3187 H 0.1733 0.5415 0.31332 0.0
H3188 H 0.10522 0.54219 0.32805 0.0
H3189 H 0.15725 0.60785 0.35689 0.0
H3190 H 0.1558 0.59443 0.33327 0.0
H3191 H 0.16524 0.58665 0.35343 0.0
C3192 C 0.13813 0.54936 0.28762 0.0
C3193 C 0.1541 0.54451 0.29137 0.0
C3194 C 0.12974 0.55585 0.30247 0.0
C3195 C 0.13715 0.55741 0.3212 0.0
C3196 C 0.15255 0.55157 0.325 0.0
H3197 H 0.1145 0.56232 0.42967 0.0
H3198 H 0.12851 0.56771 0.40145 0.0
C3199 C 0.16111 0.54535 0.31014 0.0
C3200 C 0.1286 0.56475 0.3369 0.0
H3201 H 0.13655 0.59737 0.37789 0.0
C3202 C 0.11184 0.55449 0.33878 0.0
C3203 C 0.1373 0.58098 0.35057 0.0
C3204 C 0.15482 0.59325 0.34837 0.0
C3205 C 0.10406 0.55914 0.35491 0.0
C3206 C 0.1133 0.57459 0.36925 0.0
C3207 C 0.12959 0.58558 0.36679 0.0
C3208 C 0.10744 0.57732 0.38797 0.0
C3209 C 0.08658 0.54666 0.35707 0.0
C3210 C 0.09162 0.58227 0.39009 0.0
C3211 C 0.08354 0.57904 0.40609 0.0
C3212 C 0.09131 0.57091 0.42003 0.0
C3213 C 0.10817 0.5683 0.41892 0.0
C3214 C 0.1162 0.57147 0.40291 0.0
H3215 H 0.08223 0.53391 0.34558 0.0
H3216 H 0.08716 0.54172 0.37091 0.0
H3217 H 0.07659 0.55508 0.35671 0.0
H3218 H 0.08484 0.58698 0.37868 0.0
H3219 H 0.07052 0.58115 0.40661 0.0
H3220 H 0.82105 0.84652 0.57408 0.0
H3221 H 0.81753 0.83394 0.60351 0.0
H3222 H 0.77488 0.86025 0.61213 0.0
H3223 H 0.77849 0.87326 0.58271 0.0
H3224 H 0.81768 0.85993 0.64209 0.0
H3225 H 0.75857 0.80002 0.6175 0.0
H3226 H 0.77334 0.80894 0.60141 0.0
H3227 H 0.75902 0.82281 0.6105 0.0
C3228 C 0.81087 0.84964 0.58216 0.0
C3229 C 0.80012 0.86103 0.57603 0.0
C3230 C 0.80887 0.84239 0.599 0.0
C3231 C 0.7959 0.84605 0.60998 0.0
C3232 C 0.78493 0.85717 0.60382 0.0
H3233 H 0.76662 0.80684 0.71479 0.0
H3234 H 0.76778 0.82156 0.68619 0.0
C3235 C 0.78708 0.86468 0.58706 0.0
C3236 C 0.79451 0.83901 0.62831 0.0
H3237 H 0.77057 0.8048 0.64957 0.0
C3238 C 0.80736 0.84792 0.64376 0.0
C3239 C 0.78102 0.82336 0.63047 0.0
C3240 C 0.76718 0.81307 0.61414 0.0
C3241 C 0.80705 0.84168 0.66133 0.0
C3242 C 0.79376 0.82578 0.66345 0.0
C3243 C 0.78077 0.81699 0.64801 0.0
C3244 C 0.7934 0.81781 0.68141 0.0
C3245 C 0.82086 0.85239 0.67757 0.0
C3246 C 0.8074 0.81087 0.68836 0.0
C3247 C 0.80678 0.80264 0.70475 0.0
C3248 C 0.79219 0.80127 0.71456 0.0
C3249 C 0.77823 0.8083 0.70776 0.0
C3250 C 0.77882 0.81649 0.69132 0.0
H3251 H 0.82682 0.86712 0.67543 0.0
H3252 H 0.81537 0.85329 0.69125 0.0
H3253 H 0.83137 0.84473 0.67857 0.0
H3254 H 0.81861 0.81126 0.68077 0.0
H3255 H 0.81745 0.79675 0.7094 0.0
H3256 H 0.74168 0.425 0.53078 0.0
H3257 H 0.71919 0.44087 0.54081 0.0
H3258 H 0.73882 0.48657 0.51089 0.0
H3259 H 0.76144 0.47093 0.50081 0.0
H3260 H 0.72436 0.4881 0.55763 0.0
H3261 H 0.68435 0.45072 0.48873 0.0
H3262 H 0.70073 0.44102 0.50003 0.0
H3263 H 0.7072 0.46146 0.48894 0.0
C3264 C 0.74122 0.43845 0.52639 0.0
C3265 C 0.75302 0.44663 0.51478 0.0
C3266 C 0.72861 0.44756 0.53235 0.0
C3267 C 0.72766 0.46478 0.52663 0.0
C3268 C 0.73968 0.47332 0.51553 0.0
H3269 H 0.65193 0.52611 0.51204 0.0
H3270 H 0.67664 0.51151 0.51254 0.0
C3271 C 0.75239 0.4643 0.50966 0.0
C3272 C 0.71263 0.47241 0.52993 0.0
H3273 H 0.67293 0.47247 0.50818 0.0
C3274 C 0.713 0.4847 0.54699 0.0
C3275 C 0.69805 0.46764 0.51587 0.0
C3276 C 0.69739 0.45443 0.49734 0.0
C3277 C 0.69907 0.49304 0.55009 0.0
C3278 C 0.6846 0.48856 0.5358 0.0
C3279 C 0.68411 0.47575 0.51904 0.0
C3280 C 0.67048 0.4983 0.53688 0.0
C3281 C 0.70017 0.50705 0.56816 0.0
C3282 C 0.659 0.49559 0.55046 0.0
C3283 C 0.64494 0.50403 0.55025 0.0
C3284 C 0.6422 0.51489 0.53626 0.0
C3285 C 0.65374 0.51755 0.52276 0.0
C3286 C 0.66784 0.50937 0.52312 0.0
H3287 H 0.7135 0.51135 0.57619 0.0
H3288 H 0.69634 0.52007 0.56502 0.0
H3289 H 0.691 0.50034 0.57736 0.0
H3290 H 0.66074 0.48672 0.56091 0.0
H3291 H 0.63606 0.50184 0.56074 0.0
H3292 H 0.2275 0.13134 0.47638 0.0
H3293 H 0.19736 0.1126 0.47575 0.0
H3294 H 0.19514 0.14418 0.53083 0.0
H3295 H 0.22476 0.16303 0.53138 0.0
H3296 H 0.18224 0.08889 0.49879 0.0
H3297 H 0.15128 0.14975 0.50267 0.0
H3298 H 0.17349 0.15196 0.49791 0.0
H3299 H 0.16835 0.15309 0.52187 0.0
C3300 C 0.22055 0.13436 0.4883 0.0
C3301 C 0.22865 0.14889 0.50384 0.0
C3302 C 0.20328 0.1236 0.48795 0.0
C3303 C 0.19365 0.12717 0.50306 0.0
C3304 C 0.20191 0.14141 0.5187 0.0
H3305 H 0.0895 0.07654 0.53158 0.0
H3306 H 0.11956 0.09534 0.53189 0.0
C3307 C 0.21903 0.15215 0.51903 0.0
C3308 C 0.1752 0.11585 0.50284 0.0
H3309 H 0.13372 0.12032 0.50796 0.0
C3310 C 0.17164 0.09579 0.50062 0.0
C3311 C 0.1612 0.12471 0.50539 0.0
C3312 C 0.16371 0.14604 0.50691 0.0
C3313 C 0.15474 0.08451 0.50124 0.0
C3314 C 0.14078 0.09339 0.50381 0.0
C3315 C 0.14433 0.11343 0.50606 0.0
C3316 C 0.12236 0.0821 0.50367 0.0
C3317 C 0.15209 0.06316 0.4996 0.0
C3318 C 0.11365 0.06863 0.48763 0.0
C3319 C 0.09648 0.05798 0.48739 0.0
C3320 C 0.08746 0.06049 0.50319 0.0
C3321 C 0.09604 0.07421 0.51917 0.0
C3322 C 0.11325 0.08496 0.51936 0.0
H3323 H 0.16456 0.05922 0.50306 0.0
H3324 H 0.14276 0.05743 0.50915 0.0
H3325 H 0.14666 0.05614 0.4848 0.0
H3326 H 0.12011 0.06637 0.47516 0.0
H3327 H 0.0903 0.04763 0.4748 0.0
H3328 H 0.2088 0.97356 0.76594 0.0
H3329 H 0.22536 0.94857 0.76436 0.0
H3330 H 0.1777 0.90569 0.7625 0.0
H3331 H 0.16136 0.93002 0.76345 0.0
H3332 H 0.23317 0.92397 0.78462 0.0
H3333 H 0.19401 0.87634 0.72115 0.0
H3334 H 0.19113 0.89998 0.72872 0.0
H3335 H 0.18047 0.88017 0.73919 0.0
C3336 C 0.20175 0.95881 0.76503 0.0
C3337 C 0.18335 0.95436 0.76469 0.0
C3338 C 0.21136 0.94426 0.76413 0.0
C3339 C 0.20312 0.92447 0.7627 0.0
C3340 C 0.18485 0.92027 0.76277 0.0
H3341 H 0.23384 0.81244 0.76035 0.0
H3342 H 0.21869 0.83836 0.76031 0.0
C3343 C 0.17533 0.93462 0.76357 0.0
C3344 C 0.21329 0.90842 0.76182 0.0
H3345 H 0.21245 0.86246 0.73967 0.0
C3346 C 0.22858 0.91066 0.77459 0.0
C3347 C 0.20785 0.89049 0.74894 0.0
C3348 C 0.19259 0.88666 0.73361 0.0
C3349 C 0.23783 0.89596 0.77531 0.0
C3350 C 0.23227 0.87796 0.76258 0.0
C3351 C 0.21708 0.87579 0.74969 0.0
C3352 C 0.24185 0.86145 0.76235 0.0
C3353 C 0.25322 0.89986 0.7905 0.0
C3354 C 0.26021 0.86471 0.76299 0.0
C3355 C 0.26899 0.84974 0.76323 0.0
C3356 C 0.25998 0.83039 0.76241 0.0
C3357 C 0.24156 0.8269 0.76112 0.0
C3358 C 0.23276 0.84199 0.76107 0.0
H3359 H 0.25226 0.91077 0.80268 0.0
H3360 H 0.25433 0.88667 0.7959 0.0
H3361 H 0.26534 0.90558 0.78453 0.0
H3362 H 0.26799 0.87899 0.76311 0.0
H3363 H 0.28306 0.85344 0.76396 0.0
H3364 H 0.34686 0.95967 0.99273 0.0
H3365 H 0.3778 0.97212 0.99201 0.0
H3366 H 0.38807 0.97166 0.05191 0.0
H3367 H 0.35695 0.95799 0.05253 0.0
H3368 H 0.39718 0.0057 0.01149 0.0
H3369 H 0.42338 0.94529 0.02995 0.0
H3370 H 0.4004 0.94289 0.02345 0.0
H3371 H 0.41075 0.95446 0.0469 0.0
C3372 C 0.35567 0.9622 0.00577 0.0
C3373 C 0.34964 0.95804 0.02274 0.0
C3374 C 0.3733 0.96922 0.00529 0.0
C3375 C 0.38502 0.97258 0.02186 0.0
C3376 C 0.37909 0.96872 0.03894 0.0
H3377 H 0.4915 0.036 0.0408 0.0
H3378 H 0.46013 0.02579 0.04151 0.0
C3379 C 0.36142 0.9612 0.03932 0.0
C3380 C 0.40334 0.98113 0.02119 0.0
H3381 H 0.44393 0.97345 0.0269 0.0
C3382 C 0.40744 0.99869 0.01486 0.0
C3383 C 0.41646 0.9717 0.02551 0.0
C3384 C 0.41255 0.95246 0.03168 0.0
C3385 C 0.4245 0.00706 0.01252 0.0
C3386 C 0.43751 0.99771 0.01698 0.0
C3387 C 0.43358 0.98034 0.02354 0.0
C3388 C 0.45549 0.00574 0.01505 0.0
C3389 C 0.42857 0.02556 0.00498 0.0
C3390 C 0.46271 0.99788 0.9997 0.0
C3391 C 0.48054 1.00344 0.99935 0.0
C3392 C 0.49109 0.01671 0.01447 0.0
C3393 C 0.48361 0.02531 0.02929 0.0
C3394 C 0.46579 0.01974 0.02962 0.0
H3395 H 0.41664 0.03032 1.001 0.0
H3396 H 0.43739 0.03692 0.01592 0.0
H3397 H 0.43551 0.0238 0.99235 0.0
H3398 H 0.45465 0.98699 0.98844 0.0
H3399 H 0.48608 0.99682 0.98767 0.0
H3400 H 0.87337 0.56243 0.78387 0.0
H3401 H 0.85444 0.57974 0.76934 0.0
H3402 H 0.89926 0.6253 0.76691 0.0
H3403 H 0.91845 0.60792 0.78109 0.0
H3404 H 0.85144 0.61711 0.78215 0.0
H3405 H 0.87429 0.60871 0.71134 0.0
H3406 H 0.87738 0.5936 0.72842 0.0
H3407 H 0.89149 0.61715 0.73092 0.0
C3408 C 0.87919 0.57629 0.78051 0.0
C3409 C 0.89737 0.58385 0.7834 0.0
C3410 C 0.86839 0.58598 0.77209 0.0
C3411 C 0.87568 0.60332 0.76662 0.0
C3412 C 0.89364 0.61156 0.77064 0.0
H3413 H 0.84469 0.69845 0.74182 0.0
H3414 H 0.8602 0.67336 0.74379 0.0
C3415 C 0.9045 0.60184 0.77902 0.0
C3416 C 0.86442 0.61328 0.75737 0.0
H3417 H 0.85794 0.63226 0.71774 0.0
C3418 C 0.85258 0.62019 0.76796 0.0
C3419 C 0.86601 0.61689 0.7388 0.0
C3420 C 0.87786 0.60855 0.7266 0.0
C3421 C 0.8429 0.63181 0.76082 0.0
C3422 C 0.84518 0.63628 0.74265 0.0
C3423 C 0.85643 0.62868 0.73168 0.0
C3424 C 0.83693 0.65022 0.73581 0.0
C3425 C 0.83097 0.63999 0.77308 0.0
C3426 C 0.81901 0.64511 0.72981 0.0
C3427 C 0.81011 0.65931 0.729 0.0
C3428 C 0.81916 0.67865 0.73411 0.0
C3429 C 0.83743 0.68361 0.7381 0.0
C3430 C 0.8463 0.66938 0.73903 0.0
H3431 H 0.8317 0.63603 0.78739 0.0
H3432 H 0.83439 0.65584 0.77476 0.0
H3433 H 0.81729 0.63464 0.76613 0.0
H3434 H 0.81175 0.63027 0.72746 0.0
H3435 H 0.79601 0.6551 0.72607 0.0
H3436 H 0.81409 0.6336 0.00898 0.0
H3437 H 0.83853 0.61933 0.01611 0.0
H3438 H 0.87428 0.66826 0.00288 0.0
H3439 H 0.85016 0.68282 0.99652 0.0
H3440 H 0.86006 0.60782 0.99482 0.0
H3441 H 0.90038 0.66502 0.05128 0.0
H3442 H 0.87832 0.66487 0.04258 0.0
H3443 H 0.89614 0.67408 0.03002 0.0
C3444 C 0.82717 0.64134 0.00769 0.0
C3445 C 0.83011 0.6594 0.00223 0.0
C3446 C 0.84118 0.63321 0.01183 0.0
C3447 C 0.85843 0.64289 0.01054 0.0
C3448 C 0.86128 0.66074 0.00472 0.0
H3449 H 0.95726 0.61108 0.00733 0.0
H3450 H 0.9336 0.62754 0.00692 0.0
C3451 C 0.84737 0.66897 1.00084 0.0
C3452 C 0.87326 0.63382 0.01403 0.0
H3453 H 0.91474 0.64191 0.03697 0.0
C3454 C 0.8719 0.61524 0.00424 0.0
C3455 C 0.88885 0.64342 0.0263 0.0
C3456 C 0.89095 0.66286 0.03828 0.0
C3457 C 0.8857 0.60625 0.00591 0.0
C3458 C 0.90136 0.61599 0.01781 0.0
C3459 C 0.90276 0.63449 0.02777 0.0
C3460 C 0.91639 0.60711 0.01985 0.0
C3461 C 0.88356 0.58651 0.99453 0.0
C3462 C 0.91481 0.59048 0.02778 0.0
C3463 C 0.92822 0.58094 0.02789 0.0
C3464 C 0.94362 0.58788 0.02017 0.0
C3465 C 0.94548 0.60509 0.01305 0.0
C3466 C 0.93202 0.61462 0.01295 0.0
H3467 H 0.87237 0.58272 0.98304 0.0
H3468 H 0.89557 0.58541 0.98811 0.0
H3469 H 0.88118 0.57583 0.00405 0.0
H3470 H 0.90298 0.58457 0.03344 0.0
H3471 H 0.92618 0.5677 0.03338 0.0
H3472 H 0.21116 0.06631 0.7662 0.0
H3473 H 0.22862 0.09874 0.76484 0.0
H3474 H 0.18298 0.12061 0.76953 0.0
H3475 H 0.16572 0.08873 0.77085 0.0
H3476 H 0.22572 0.12449 0.73925 0.0
H3477 H 0.21709 0.15909 0.81048 0.0
H3478 H 0.2121 0.13342 0.80339 0.0
H3479 H 0.19695 0.14662 0.79595 0.0
C3480 C 0.20485 0.07803 0.76718 0.0
C3481 C 0.18683 0.07446 0.76885 0.0
C3482 C 0.2149 0.09674 0.76629 0.0
C3483 C 0.20744 0.11272 0.7674 0.0
C3484 C 0.18948 0.10906 0.76906 0.0
H3485 H 0.24775 0.23905 0.76745 0.0
H3486 H 0.22886 0.20705 0.76779 0.0
C3487 C 0.17948 0.09049 0.76972 0.0
C3488 C 0.21802 0.13301 0.76647 0.0
H3489 H 0.22952 0.17983 0.79025 0.0
C3490 C 0.22659 0.13647 0.75054 0.0
C3491 C 0.21921 0.14921 0.78085 0.0
C3492 C 0.211 0.14697 0.79872 0.0
C3493 C 0.23587 0.15514 0.74853 0.0
C3494 C 0.23735 0.17131 0.76308 0.0
C3495 C 0.22862 0.16786 0.77893 0.0
C3496 C 0.2486 0.19143 0.76252 0.0
C3497 C 0.24355 0.15735 0.73035 0.0
C3498 C 0.26625 0.19407 0.7597 0.0
C3499 C 0.277 0.21235 0.75945 0.0
C3500 C 0.27085 0.22918 0.76208 0.0
C3501 C 0.25315 0.22673 0.76501 0.0
C3502 C 0.24229 0.20822 0.76535 0.0
H3503 H 0.23641 0.14584 0.71845 0.0
H3504 H 0.24327 0.17139 0.72633 0.0
H3505 H 0.2573 0.15633 0.73223 0.0
H3506 H 0.27199 0.18192 0.75802 0.0
H3507 H 0.29047 0.21325 0.75732 0.0
H3508 H 0.37714 0.98067 0.24252 0.0
H3509 H 0.3594 0.94784 0.23413 0.0
H3510 H 0.39927 0.92839 0.26463 0.0
H3511 H 0.41734 0.9613 0.27273 0.0
H3512 H 0.36648 0.90295 0.2248 0.0
H3513 H 0.35331 0.93675 0.29538 0.0
H3514 H 0.36049 0.95116 0.27802 0.0
H3515 H 0.37536 0.94022 0.28984 0.0
C3516 C 0.38239 0.96923 0.24671 0.0
C3517 C 0.3982 0.97323 0.25866 0.0
C3518 C 0.37243 0.95056 0.24166 0.0
C3519 C 0.37813 0.93603 0.24896 0.0
C3520 C 0.39491 0.93962 0.25881 0.0
H3521 H 0.32091 0.84091 0.28871 0.0
H3522 H 0.3396 0.87141 0.28543 0.0
C3523 C 0.40507 0.95833 0.26359 0.0
C3524 C 0.36488 0.91964 0.25162 0.0
H3525 H 0.33623 0.90628 0.28231 0.0
C3526 C 0.35986 0.90346 0.23735 0.0
C3527 C 0.35641 0.92082 0.26804 0.0
C3528 C 0.36157 0.93814 0.28375 0.0
C3529 C 0.34652 0.88795 0.23929 0.0
C3530 C 0.33785 0.88929 0.25563 0.0
C3531 C 0.34286 0.90559 0.26976 0.0
C3532 C 0.32469 0.87321 0.25929 0.0
C3533 C 0.34217 0.87018 0.22417 0.0
C3534 C 0.30961 0.86509 0.24635 0.0
C3535 C 0.29909 0.8476 0.24808 0.0
C3536 C 0.30345 0.8386 0.26303 0.0
C3537 C 0.31728 0.84788 0.27724 0.0
C3538 C 0.32802 0.86512 0.27526 0.0
H3539 H 0.35273 0.86992 0.21509 0.0
H3540 H 0.33988 0.85704 0.23057 0.0
H3541 H 0.33011 0.86983 0.21492 0.0
H3542 H 0.30668 0.8716 0.23429 0.0
H3543 H 0.28838 0.84043 0.23704 0.0
H3544 H 0.57215 0.33657 0.55357 0.0
H3545 H 0.5667 0.36397 0.54035 0.0
H3546 H 0.55723 0.38962 0.59521 0.0
H3547 H 0.5631 0.3625 0.60865 0.0
H3548 H 0.53808 0.37854 0.53743 0.0
H3549 H 0.59276 0.43305 0.58206 0.0
H3550 H 0.59083 0.40773 0.58047 0.0
H3551 H 0.57836 0.41966 0.59572 0.0
C3552 C 0.56908 0.34811 0.56291 0.0
C3553 C 0.56833 0.34737 0.5823 0.0
C3554 C 0.56588 0.36377 0.55527 0.0
C3555 C 0.56184 0.37911 0.5668 0.0
C3556 C 0.56078 0.37826 0.58608 0.0
H3557 H 0.541 0.48823 0.55416 0.0
H3558 H 0.54467 0.45869 0.56438 0.0
C3559 C 0.56411 0.36268 0.59377 0.0
C3560 C 0.5587 0.39593 0.55869 0.0
H3561 H 0.57211 0.44466 0.56441 0.0
C3562 C 0.54557 0.393 0.54327 0.0
C3563 C 0.56854 0.41484 0.56614 0.0
C3564 C 0.58353 0.41904 0.58188 0.0
C3565 C 0.5416 0.40844 0.53561 0.0
C3566 C 0.55123 0.42739 0.54338 0.0
C3567 C 0.56457 0.43022 0.55853 0.0
C3568 C 0.54763 0.44466 0.53651 0.0
C3569 C 0.52677 0.40429 0.5197 0.0
C3570 C 0.54794 0.44674 0.51738 0.0
C3571 C 0.54551 0.46356 0.5115 0.0
C3572 C 0.54317 0.47874 0.52472 0.0
C3573 C 0.54286 0.47671 0.54376 0.0
C3574 C 0.54496 0.45983 0.54957 0.0
H3575 H 0.51774 0.39004 0.51906 0.0
H3576 H 0.5192 0.41534 0.52127 0.0
H3577 H 0.53214 0.40423 0.50598 0.0
H3578 H 0.55047 0.43558 0.50707 0.0
H3579 H 0.5459 0.4649 0.49675 0.0
H3580 H 0.43697 0.73823 0.38423 0.0
H3581 H 0.41224 0.74427 0.36546 0.0
H3582 H 0.44721 0.78901 0.34506 0.0
H3583 H 0.47212 0.78249 0.36329 0.0
H3584 H 0.3982 0.77353 0.36602 0.0
H3585 H 0.42075 0.76109 0.29567 0.0
H3586 H 0.43145 0.75544 0.31646 0.0
H3587 H 0.43591 0.77968 0.31222 0.0
C3588 C 0.43949 0.74922 0.37557 0.0
C3589 C 0.45672 0.75964 0.37514 0.0
C3590 C 0.42522 0.75275 0.36485 0.0
C3591 C 0.42762 0.76688 0.35336 0.0
C3592 C 0.44482 0.77758 0.35319 0.0
H3593 H 0.35858 0.80504 0.27407 0.0
H3594 H 0.38249 0.80154 0.296 0.0
C3595 C 0.45915 0.77389 0.36375 0.0
C3596 C 0.41212 0.77042 0.34187 0.0
H3597 H 0.39582 0.7735 0.29698 0.0
C3598 C 0.39771 0.77347 0.3509 0.0
C3599 C 0.41119 0.77038 0.32207 0.0
C3600 C 0.42556 0.76629 0.31098 0.0
C3601 C 0.38281 0.77687 0.34095 0.0
C3602 C 0.3819 0.77685 0.32112 0.0
C3603 C 0.3963 0.77369 0.31212 0.0
C3604 C 0.36651 0.78039 0.30933 0.0
C3605 C 0.36847 0.78101 0.35204 0.0
C3606 C 0.34911 0.77014 0.30951 0.0
C3607 C 0.33519 0.77267 0.29725 0.0
C3608 C 0.33835 0.78516 0.28414 0.0
C3609 C 0.35562 0.79552 0.28415 0.0
C3610 C 0.3694 0.79335 0.29663 0.0
H3611 H 0.37341 0.78654 0.36729 0.0
H3612 H 0.36239 0.79162 0.34636 0.0
H3613 H 0.35827 0.76756 0.35113 0.0
H3614 H 0.3463 0.75955 0.31855 0.0
H3615 H 0.32215 0.76399 0.29722 0.0
H3616 H 0.04363 0.74846 0.08688 0.0
H3617 H 0.0372 0.71469 0.07178 0.0
H3618 H 0.08787 0.72412 0.05277 0.0
H3619 H 0.09442 0.75787 0.06763 0.0
H3620 H 0.04525 0.69807 0.02739 0.0
H3621 H 0.0778 0.68055 0.09199 0.0
H3622 H 0.06684 0.69975 0.09324 0.0
H3623 H 0.08739 0.70252 0.08421 0.0
C3624 C 0.05333 0.74342 0.07927 0.0
C3625 C 0.06959 0.75584 0.07852 0.0
C3626 C 0.04959 0.72416 0.07063 0.0
C3627 C 0.06208 0.71705 0.06122 0.0
C3628 C 0.07807 0.72947 0.05992 0.0
H3629 H 0.07876 0.60516 0.02506 0.0
H3630 H 0.08137 0.63943 0.03496 0.0
C3631 C 0.08177 0.74873 0.06842 0.0
C3632 C 0.05909 0.69639 0.05394 0.0
H3633 H 0.06877 0.65597 0.06531 0.0
C3634 C 0.05028 0.68877 0.03563 0.0
C3635 C 0.06568 0.68445 0.06483 0.0
C3636 C 0.07492 0.69208 0.08472 0.0
C3637 C 0.04829 0.66945 0.0277 0.0
C3638 C 0.05514 0.65753 0.03853 0.0
C3639 C 0.06368 0.66517 0.05697 0.0
C3640 C 0.05355 0.63703 0.03116 0.0
C3641 C 0.03933 0.66214 0.00765 0.0
C3642 C 0.03707 0.62438 0.02569 0.0
C3643 C 0.03555 0.60489 0.01983 0.0
C3644 C 0.05049 0.5976 0.01966 0.0
C3645 C 0.06701 0.61032 0.02501 0.0
C3646 C 0.06852 0.62988 0.03069 0.0
H3647 H 0.03928 0.67399 0.99963 0.0
H3648 H 0.04572 0.65185 0.99987 0.0
H3649 H 0.02556 0.65465 0.00802 0.0
H3650 H 0.02533 0.62947 0.02641 0.0
H3651 H 0.02259 0.5955 0.01599 0.0
H3652 H 0.07764 0.30343 0.91005 0.0
H3653 H 0.1041 0.30893 0.89477 0.0
H3654 H 0.07888 0.2634 0.84826 0.0
H3655 H 0.05206 0.25827 0.8632 0.0
H3656 H 0.12591 0.28827 0.88605 0.0
H3657 H 0.0975 0.30406 0.81919 0.0
H3658 H 0.08574 0.30237 0.83939 0.0
H3659 H 0.08616 0.28108 0.8232 0.0
C3660 C 0.07763 0.29462 0.89649 0.0
C3661 C 0.06258 0.28046 0.8878 0.0
C3662 C 0.09285 0.2978 0.88777 0.0
C3663 C 0.09353 0.28688 0.87012 0.0
C3664 C 0.07863 0.27247 0.86157 0.0
H3665 H 0.17089 0.26466 0.80086 0.0
H3666 H 0.14615 0.26536 0.81854 0.0
C3667 C 0.06329 0.26942 0.87021 0.0
C3668 C 0.10992 0.29029 0.86095 0.0
H3669 H 0.12543 0.29665 0.8189 0.0
C3670 C 0.12579 0.29033 0.87144 0.0
C3671 C 0.11001 0.29339 0.84196 0.0
C3672 C 0.09398 0.29545 0.83037 0.0
C3673 C 0.14142 0.29241 0.86319 0.0
C3674 C 0.14119 0.29433 0.84393 0.0
C3675 C 0.12553 0.29495 0.83363 0.0
C3676 C 0.15672 0.29424 0.83378 0.0
C3677 C 0.158 0.29195 0.87489 0.0
C3678 C 0.17095 0.31032 0.83642 0.0
C3679 C 0.18522 0.31 0.82622 0.0
C3680 C 0.18557 0.29351 0.81334 0.0
C3681 C 0.17126 0.27748 0.81087 0.0
C3682 C 0.15701 0.27788 0.82088 0.0
H3683 H 0.15583 0.28918 0.88936 0.0
H3684 H 0.16373 0.28071 0.86769 0.0
H3685 H 0.16767 0.30588 0.87621 0.0
H3686 H 0.17096 0.32316 0.84623 0.0
H3687 H 0.19602 0.32258 0.82853 0.0
H3688 H 0.56155 0.79009 0.9368 0.0
H3689 H 0.55013 0.76042 0.94838 0.0
H3690 H 0.57095 0.72892 0.90416 0.0
H3691 H 0.58254 0.75839 0.89257 0.0
H3692 H 0.52653 0.72492 0.92695 0.0
H3693 H 0.59167 0.71719 0.95503 0.0
H3694 H 0.58814 0.73949 0.94965 0.0
H3695 H 0.58949 0.72083 0.93087 0.0
C3696 C 0.56385 0.77688 0.92967 0.0
C3697 C 0.57309 0.77655 0.91393 0.0
C3698 C 0.55719 0.75999 0.93619 0.0
C3699 C 0.55984 0.74269 0.92711 0.0
C3700 C 0.56896 0.74227 0.91137 0.0
H3701 H 0.53847 0.62885 0.95316 0.0
H3702 H 0.54272 0.65519 0.93536 0.0
C3703 C 0.57558 0.75909 0.90482 0.0
C3704 C 0.55346 0.72505 0.93439 0.0
H3705 H 0.56744 0.69155 0.95542 0.0
C3706 C 0.53541 0.71756 0.93318 0.0
C3707 C 0.56521 0.7157 0.94248 0.0
C3708 C 0.58471 0.72374 0.94477 0.0
C3709 C 0.52875 0.70066 0.93986 0.0
C3710 C 0.54052 0.69132 0.94788 0.0
C3711 C 0.55854 0.69876 0.94897 0.0
C3712 C 0.53461 0.67451 0.95658 0.0
C3713 C 0.5093 0.69281 0.93831 0.0
C3714 C 0.52836 0.67677 0.97414 0.0
C3715 C 0.52627 0.66198 0.9845 0.0
C3716 C 0.53039 0.64472 0.97738 0.0
C3717 C 0.53552 0.64211 0.95916 0.0
C3718 C 0.53778 0.657 0.94889 0.0
H3719 H 0.50205 0.69976 0.92871 0.0
H3720 H 0.50574 0.67713 0.93302 0.0
H3721 H 0.50508 0.6953 0.95257 0.0
H3722 H 0.52616 0.69038 0.98035 0.0
H3723 H 0.52252 0.66455 0.99859 0.0
H3724 H 0.03014 0.72595 0.69435 0.0
H3725 H 0.06018 0.73213 0.70971 0.0
H3726 H 0.075 0.78107 0.68241 0.0
H3727 H 0.04499 0.77554 0.66779 0.0
H3728 H 0.08837 0.73164 0.69223 0.0
H3729 H 0.09724 0.80381 0.73556 0.0
H3730 H 0.07608 0.78933 0.72459 0.0
H3731 H 0.09061 0.8026 0.71082 0.0
C3732 C 0.03976 0.7382 0.69192 0.0
C3733 C 0.03523 0.75037 0.68008 0.0
C3734 C 0.05688 0.74172 0.70066 0.0
C3735 C 0.06969 0.7573 0.69749 0.0
C3736 C 0.06519 0.76938 0.68556 0.0
H3737 H 0.18229 0.78418 0.72242 0.0
H3738 H 0.1524 0.78541 0.71192 0.0
C3739 C 0.04805 0.7661 0.67712 0.0
C3740 C 0.088 0.76004 0.70556 0.0
H3741 H 0.12269 0.79203 0.73327 0.0
C3742 C 0.09581 0.74479 0.70133 0.0
C3743 C 0.09774 0.77737 0.71713 0.0
C3744 C 0.08995 0.79415 0.72243 0.0
C3745 C 0.1131 0.7463 0.7085 0.0
C3746 C 0.12268 0.76344 0.72036 0.0
C3747 C 0.11511 0.77889 0.72427 0.0
C3748 C 0.14056 0.76524 0.72896 0.0
C3749 C 0.12105 0.72961 0.70324 0.0
C3750 C 0.14358 0.75412 0.74254 0.0
C3751 C 0.16051 0.75329 0.74845 0.0
C3752 C 0.17458 0.76364 0.74083 0.0
C3753 C 0.17158 0.77585 0.72824 0.0
C3754 C 0.15461 0.77666 0.72234 0.0
H3755 H 0.11329 0.71926 0.69078 0.0
H3756 H 0.13458 0.73462 0.70002 0.0
H3757 H 0.12159 0.72196 0.71539 0.0
H3758 H 0.13277 0.74536 0.74785 0.0
H3759 H 0.16248 0.7437 0.75808 0.0
H3760 H 0.06658 0.34823 0.41485 0.0
H3761 H 0.05816 0.37324 0.43569 0.0
H3762 H 0.09569 0.41626 0.41578 0.0
H3763 H 0.10359 0.39118 0.39408 0.0
H3764 H 0.07685 0.39938 0.46426 0.0
H3765 H 0.05228 0.43512 0.4085 0.0
H3766 H 0.05723 0.41211 0.40311 0.0
H3767 H 0.07444 0.43374 0.40749 0.0
C3768 C 0.07305 0.36303 0.41493 0.0
C3769 C 0.0857 0.36791 0.40289 0.0
C3770 C 0.0682 0.37726 0.42678 0.0
C3771 C 0.07608 0.39653 0.42695 0.0
C3772 C 0.08911 0.40144 0.41537 0.0
H3773 H 0.0801 0.49947 0.50116 0.0
H3774 H 0.08389 0.4736 0.47711 0.0
C3775 C 0.09371 0.38718 0.40315 0.0
C3776 C 0.07082 0.41139 0.43961 0.0
H3777 H 0.05562 0.45152 0.44053 0.0
C3778 C 0.07204 0.41066 0.45905 0.0
C3779 C 0.0644 0.42592 0.43266 0.0
C3780 C 0.06183 0.4267 0.41178 0.0
C3781 C 0.06748 0.42452 0.47187 0.0
C3782 C 0.06163 0.43933 0.46496 0.0
C3783 C 0.0601 0.43995 0.44556 0.0
C3784 C 0.05851 0.45519 0.47801 0.0
C3785 C 0.06927 0.42361 0.49275 0.0
C3786 C 0.04289 0.45324 0.48598 0.0
C3787 C 0.04059 0.46824 0.49921 0.0
C3788 C 0.05413 0.48483 0.50485 0.0
C3789 C 0.06968 0.48668 0.49689 0.0
C3790 C 0.07178 0.47202 0.48325 0.0
H3791 H 0.0753 0.41194 0.49596 0.0
H3792 H 0.07733 0.43742 0.50103 0.0
H3793 H 0.05618 0.42121 0.49757 0.0
H3794 H 0.03264 0.44016 0.48207 0.0
H3795 H 0.02847 0.46675 0.50532 0.0
H3796 H 0.43782 0.21704 0.17995 0.0
H3797 H 0.41639 0.22544 0.20012 0.0
H3798 H 0.43727 0.28522 0.19904 0.0
H3799 H 0.45843 0.27715 0.17893 0.0
H3800 H 0.42428 0.25235 0.23696 0.0
H3801 H 0.38406 0.27414 0.18088 0.0
H3802 H 0.39881 0.25915 0.17549 0.0
H3803 H 0.40712 0.28451 0.18312 0.0
C3804 C 0.43777 0.23194 0.18398 0.0
C3805 C 0.44973 0.24642 0.17783 0.0
C3806 C 0.42562 0.23669 0.19549 0.0
C3807 C 0.42532 0.25589 0.20081 0.0
C3808 C 0.43727 0.27032 0.19481 0.0
H3809 H 0.35714 0.31386 0.25822 0.0
H3810 H 0.38355 0.30742 0.24675 0.0
C3811 C 0.44934 0.26564 0.18335 0.0
C3812 C 0.41254 0.26109 0.21269 0.0
H3813 H 0.37794 0.28119 0.21234 0.0
C3814 C 0.41406 0.25858 0.23164 0.0
C3815 C 0.39946 0.26934 0.20556 0.0
C3816 C 0.39711 0.27184 0.18511 0.0
C3817 C 0.40276 0.26435 0.24385 0.0
C3818 C 0.38966 0.27254 0.23669 0.0
C3819 C 0.38821 0.27509 0.21774 0.0
C3820 C 0.3763 0.27723 0.24797 0.0
C3821 C 0.40498 0.26188 0.26428 0.0
C3822 C 0.36393 0.26243 0.253 0.0
C3823 C 0.34883 0.266 0.25947 0.0
C3824 C 0.34592 0.28439 0.2608 0.0
C3825 C 0.359 0.29951 0.25721 0.0
C3826 C 0.37409 0.29591 0.25072 0.0
H3827 H 0.41825 0.26029 0.26876 0.0
H3828 H 0.40258 0.27423 0.27381 0.0
H3829 H 0.39538 0.24878 0.26604 0.0
H3830 H 0.36537 0.24788 0.25066 0.0
H3831 H 0.33902 0.25415 0.26234 0.0
H3832 H 0.6498 0.53702 0.34026 0.0
H3833 H 0.63499 0.53635 0.36874 0.0
H3834 H 0.5902 0.49567 0.33595 0.0
H3835 H 0.60535 0.49595 0.30759 0.0
H3836 H 0.60796 0.54713 0.3792 0.0
H3837 H 0.59085 0.46944 0.37978 0.0
H3838 H 0.6054 0.47969 0.36418 0.0
H3839 H 0.58212 0.47524 0.35821 0.0
C3840 C 0.637 0.52743 0.33919 0.0
C3841 C 0.62925 0.51599 0.32148 0.0
C3842 C 0.62832 0.52721 0.35562 0.0
C3843 C 0.6113 0.51568 0.35524 0.0
C3844 C 0.60345 0.50428 0.33741 0.0
H3845 H 0.53558 0.50085 0.43869 0.0
H3846 H 0.55144 0.50019 0.41132 0.0
C3847 C 0.61222 0.5044 0.32095 0.0
C3848 C 0.60183 0.51636 0.37315 0.0
H3849 H 0.57838 0.48858 0.40144 0.0
C3850 C 0.60167 0.53421 0.38402 0.0
C3851 C 0.59317 0.49977 0.37995 0.0
C3852 C 0.59299 0.47996 0.37005 0.0
C3853 C 0.59321 0.53591 0.40071 0.0
C3854 C 0.5848 0.51934 0.40765 0.0
C3855 C 0.58481 0.50149 0.3967 0.0
C3856 C 0.57527 0.52006 0.42549 0.0
C3857 C 0.59279 0.55563 0.4103 0.0
C3858 C 0.58298 0.53129 0.4435 0.0
C3859 C 0.5737 0.53169 0.45967 0.0
C3860 C 0.55633 0.52081 0.45851 0.0
C3861 C 0.54887 0.50949 0.44057 0.0
C3862 C 0.55805 0.50905 0.42461 0.0
H3863 H 0.59512 0.56614 0.40057 0.0
H3864 H 0.58006 0.55557 0.41555 0.0
H3865 H 0.60322 0.56056 0.42259 0.0
H3866 H 0.59631 0.53971 0.4452 0.0
H3867 H 0.5801 0.54066 0.47298 0.0
H3868 H 0.30655 0.92517 0.05956 0.0
H3869 H 0.32186 0.91603 0.08593 0.0
H3870 H 0.30307 0.85655 0.05976 0.0
H3871 H 0.28896 0.86575 0.03222 0.0
H3872 H 0.31219 0.8963 0.11087 0.0
H3873 H 0.35371 0.85952 0.06905 0.0
H3874 H 0.34066 0.87369 0.05892 0.0
H3875 H 0.3311 0.84918 0.06065 0.0
C3876 C 0.30569 0.9101 0.05929 0.0
C3877 C 0.29699 0.89615 0.04355 0.0
C3878 C 0.31447 0.90495 0.07442 0.0
C3879 C 0.31419 0.88572 0.07437 0.0
C3880 C 0.30415 0.87157 0.05955 0.0
H3881 H 0.32339 0.80838 0.13859 0.0
H3882 H 0.32491 0.82909 0.11517 0.0
C3883 C 0.29582 0.87678 0.04403 0.0
C3884 C 0.32395 0.88046 0.0902 0.0
H3885 H 0.35039 0.85168 0.10023 0.0
C3886 C 0.32087 0.88688 0.10866 0.0
C3887 C 0.33564 0.86866 0.08721 0.0
C3888 C 0.34061 0.86257 0.06788 0.0
C3889 C 0.32773 0.88016 0.12409 0.0
C3890 C 0.33799 0.86681 0.12079 0.0
C3891 C 0.34245 0.86189 0.10261 0.0
C3892 C 0.34033 0.85435 0.13447 0.0
C3893 C 0.3227 0.88617 0.14343 0.0
C3894 C 0.34893 0.86163 0.15294 0.0
C3895 C 0.34773 0.84979 0.16654 0.0
C3896 C 0.33844 0.83056 0.16145 0.0
C3897 C 0.33098 0.82308 0.14265 0.0
C3898 C 0.33182 0.8349 0.1293 0.0
H3899 H 0.31331 0.89532 0.14302 0.0
H3900 H 0.31677 0.87342 0.14943 0.0
H3901 H 0.33453 0.89444 0.15318 0.0
H3902 H 0.35577 0.87657 0.15703 0.0
H3903 H 0.35345 0.85573 0.18106 0.0
H3904 H 0.92802 0.53366 0.84047 0.0
H3905 H 0.94633 0.53541 0.87025 0.0
H3906 H 0.97889 0.50486 0.83986 0.0
H3907 H 0.96044 0.50276 0.80996 0.0
H3908 H 0.96075 0.49925 0.88383 0.0
H3909 H 0.00568 0.56549 0.87033 0.0
H3910 H 0.98272 0.559 0.86141 0.0
H3911 H 0.99694 0.54575 0.85093 0.0
C3912 C 0.93892 0.52704 0.84026 0.0
C3913 C 0.94301 0.51813 0.82317 0.0
C3914 C 0.94924 0.52801 0.85714 0.0
C3915 C 0.96379 0.52031 0.8569 0.0
C3916 C 0.96755 0.51074 0.84001 0.0
H3917 H 0.05019 0.52873 0.94075 0.0
H3918 H 0.03038 0.52378 0.91113 0.0
C3919 C 0.95705 0.50951 0.82311 0.0
C3920 C 0.97581 0.52363 0.87417 0.0
H3921 H 0.01301 0.55415 0.89811 0.0
C3922 C 0.97222 0.51117 0.88703 0.0
C3923 C 0.99049 0.53937 0.87802 0.0
C3924 C 0.99428 0.55329 0.86454 0.0
C3925 C 0.98332 0.51399 0.90393 0.0
C3926 C 0.99809 0.52965 0.90771 0.0
C3927 C 1.00162 0.54214 0.89485 0.0
C3928 C 0.01008 0.53335 0.92506 0.0
C3929 C 0.97933 0.50028 0.91758 0.0
C3930 C 0.00519 0.541 0.94217 0.0
C3931 C 0.0165 0.54407 0.9588 0.0
C3932 C 0.03251 0.53926 0.95835 0.0
C3933 C 0.03775 0.53241 0.94115 0.0
C3934 C 0.0265 0.52947 0.92444 0.0
H3935 H 0.96876 0.4874 0.91124 0.0
H3936 H 0.99119 0.49567 0.92218 0.0
H3937 H 0.97519 0.50763 0.9304 0.0
H3938 H 0.99267 0.54448 0.94261 0.0
H3939 H 0.01285 0.5503 0.97195 0.0
H3940 H 0.3021 0.20029 0.55477 0.0
H3941 H 0.30315 0.21403 0.58829 0.0
H3942 H 0.2756 0.25481 0.5722 0.0
H3943 H 0.27462 0.24136 0.53866 0.0
H3944 H 0.31468 0.25983 0.6074 0.0
H3945 H 0.24698 0.21719 0.60846 0.0
H3946 H 0.26109 0.2092 0.59237 0.0
H3947 H 0.25179 0.22865 0.58838 0.0
C3948 C 0.29643 0.21232 0.55835 0.0
C3949 C 0.28818 0.21968 0.54407 0.0
C3950 C 0.2971 0.22017 0.57748 0.0
C3951 C 0.28938 0.23533 0.5826 0.0
C3952 C 0.28163 0.2431 0.56843 0.0
H3953 H 0.26387 0.28176 0.69327 0.0
H3954 H 0.26466 0.27333 0.65895 0.0
C3955 C 0.28111 0.23541 0.5493 0.0
C3956 C 0.28842 0.24225 0.60277 0.0
H3957 H 0.26111 0.2378 0.63669 0.0
C3958 C 0.30299 0.25511 0.61385 0.0
C3959 C 0.27311 0.23605 0.61099 0.0
C3960 C 0.2573 0.22195 0.59956 0.0
C3961 C 0.30261 0.26198 0.6331 0.0
C3962 C 0.28735 0.25551 0.64146 0.0
C3963 C 0.27273 0.24283 0.63024 0.0
C3964 C 0.2867 0.26074 0.66206 0.0
C3965 C 0.31851 0.27621 0.64427 0.0
C3966 C 0.29849 0.256 0.67505 0.0
C3967 C 0.29811 0.26082 0.69445 0.0
C3968 C 0.28575 0.27028 0.70138 0.0
C3969 C 0.27353 0.27449 0.68836 0.0
C3970 C 0.27402 0.26976 0.66881 0.0
H3971 H 0.32669 0.28401 0.63484 0.0
H3972 H 0.31479 0.2868 0.65488 0.0
H3973 H 0.32661 0.26849 0.65191 0.0
H3974 H 0.30799 0.24848 0.67018 0.0
H3975 H 0.30755 0.25703 0.70404 0.0
H3976 H 0.60632 0.5304 0.22981 0.0
H3977 H 0.59296 0.53244 0.19858 0.0
H3978 H 0.62564 0.49939 0.17222 0.0
H3979 H 0.6393 0.4973 0.2038 0.0
H3980 H 0.60828 0.54918 0.17028 0.0
H3981 H 0.57763 0.47266 0.14161 0.0
H3982 H 0.58503 0.4814 0.16656 0.0
H3983 H 0.60046 0.4781 0.15035 0.0
C3984 C 0.61073 0.52336 0.21748 0.0
C3985 C 0.62409 0.51364 0.21974 0.0
C3986 C 0.60296 0.5246 0.19942 0.0
C3987 C 0.60799 0.516 0.18264 0.0
C3988 C 0.62113 0.50596 0.18471 0.0
H3989 H 0.57211 0.50916 0.06073 0.0
H3990 H 0.58524 0.50535 0.09156 0.0
C3991 C 0.62906 0.50481 0.20292 0.0
C3992 C 0.6 0.51853 0.16333 0.0
H3993 H 0.57613 0.49437 0.1208 0.0
C3994 C 0.60127 0.53714 0.15948 0.0
C3995 C 0.59074 0.50301 0.14892 0.0
C3996 C 0.58819 0.48264 0.15201 0.0
C3997 C 0.59416 0.54065 0.14189 0.0
C3998 C 0.58465 0.52514 0.12747 0.0
C3999 C 0.58331 0.50648 0.13143 0.0
C4000 C 0.57636 0.52777 0.10823 0.0
C4001 C 0.59766 0.56113 0.1389 0.0
C4002 C 0.5665 0.54147 0.10655 0.0
C4003 C 0.55936 0.54407 0.08863 0.0
C4004 C 0.56116 0.53257 0.07165 0.0
C4005 C 0.5704 0.5184 0.07333 0.0
C4006 C 0.57794 0.51616 0.09118 0.0
H4007 H 0.60967 0.57011 0.14796 0.0
H4008 H 0.59918 0.56222 0.1239 0.0
H4009 H 0.58665 0.56719 0.14297 0.0
H4010 H 0.56409 0.55015 0.11912 0.0
H4011 H 0.55209 0.5549 0.08814 0.0
H4012 H 0.32832 0.91651 0.94406 0.0
H4013 H 0.32626 0.89285 0.91538 0.0
H4014 H 0.29138 0.85072 0.93932 0.0
H4015 H 0.29247 0.87477 0.9674 0.0
H4016 H 0.33426 0.86014 0.90846 0.0
H4017 H 0.26279 0.84813 0.89043 0.0
H4018 H 0.27527 0.86694 0.90909 0.0
H4019 H 0.26834 0.84281 0.91336 0.0
C4020 C 0.3202 0.90218 0.94308 0.0
C4021 C 0.31031 0.89736 0.95756 0.0
C4022 C 0.31906 0.88871 0.9268 0.0
C4023 C 0.30832 0.87021 0.92509 0.0
C4024 C 0.29922 0.86513 0.94011 0.0
H4025 H 0.28562 0.77262 0.83286 0.0
H4026 H 0.2932 0.79205 0.86489 0.0
C4027 C 0.29992 0.87877 0.95612 0.0
C4028 C 0.30643 0.85637 0.90745 0.0
H4029 H 0.2763 0.82696 0.87237 0.0
C4030 C 0.32159 0.85285 0.90058 0.0
C4031 C 0.28986 0.84715 0.89709 0.0
C4032 C 0.27318 0.85161 0.90276 0.0
C4033 C 0.3206 0.84025 0.88358 0.0
C4034 C 0.30406 0.83073 0.87363 0.0
C4035 C 0.28891 0.83406 0.88049 0.0
C4036 C 0.30208 0.81872 0.85499 0.0
C4037 C 0.33713 0.83742 0.87612 0.0
C4038 C 0.30465 0.82752 0.83918 0.0
C4039 C 0.30009 0.81664 0.82108 0.0
C4040 C 0.29306 0.7968 0.81861 0.0
C4041 C 0.29111 0.78788 0.8345 0.0
C4042 C 0.29547 0.79888 0.85268 0.0
H4043 H 0.34878 0.84355 0.88691 0.0
H4044 H 0.33614 0.82195 0.87139 0.0
H4045 H 0.339 0.84453 0.86361 0.0
H4046 H 0.30943 0.84291 0.84085 0.0
H4047 H 0.30147 0.82389 0.80904 0.0
H4048 H 0.96932 0.5164 0.75564 0.0
H4049 H 0.97406 0.49974 0.72508 0.0
H4050 H 0.94101 0.52848 0.69586 0.0
H4051 H 0.93619 0.54528 0.72623 0.0
H4052 H 0.94155 0.47767 0.689 0.0
H4053 H 0.99573 0.53911 0.68168 0.0
H4054 H 0.99064 0.53408 0.70463 0.0
H4055 H 0.97638 0.54392 0.69056 0.0
C4056 C 0.96332 0.51944 0.74271 0.0
C4057 C 0.95256 0.53231 0.74327 0.0
C4058 C 0.96575 0.50964 0.72537 0.0
C4059 C 0.95753 0.51269 0.70848 0.0
C4060 C 0.94714 0.52579 0.70891 0.0
H4061 H 0.96927 0.4968 0.59482 0.0
H4062 H 0.95238 0.49085 0.62096 0.0
C4063 C 0.94467 0.53557 0.7262 0.0
C4064 C 0.96129 0.50378 0.69024 0.0
H4065 H 0.98722 0.51333 0.65617 0.0
C4066 C 0.95157 0.4853 0.68176 0.0
C4067 C 0.97433 0.51398 0.6811 0.0
C4068 C 0.98498 0.53386 0.68989 0.0
C4069 C 0.9546 0.4768 0.66391 0.0
C4070 C 0.96757 0.48714 0.65478 0.0
C4071 C 0.9773 0.50551 0.66342 0.0
C4072 C 0.97157 0.47986 0.63602 0.0
C4073 C 0.94407 0.45706 0.65479 0.0
C4074 C 0.98712 0.47397 0.63519 0.0
C4075 C 0.9969 0.47761 0.62046 0.0
C4076 C 0.99111 0.48715 0.60655 0.0
C4077 C 0.97411 0.4898 0.60565 0.0
C4078 C 0.96434 0.48615 0.62042 0.0
H4079 H 0.93466 0.45068 0.66396 0.0
H4080 H 0.9368 0.45774 0.64108 0.0
H4081 H 0.95296 0.44758 0.65163 0.0
H4082 H 0.99291 0.46927 0.64727 0.0
H4083 H 0.00994 0.47537 0.62147 0.0
H4084 H 0.2979 0.19109 0.43853 0.0
H4085 H 0.30413 0.20644 0.41094 0.0
H4086 H 0.27533 0.24764 0.42965 0.0
H4087 H 0.26882 0.23226 0.45702 0.0
H4088 H 0.27633 0.21133 0.38303 0.0
H4089 H 0.32278 0.28004 0.417 0.0
H4090 H 0.31923 0.25904 0.42801 0.0
H4091 H 0.30344 0.27312 0.42806 0.0
C4092 C 0.29303 0.20352 0.43687 0.0
C4093 C 0.28273 0.21034 0.44993 0.0
C4094 C 0.2966 0.21228 0.42109 0.0
C4095 C 0.2903 0.22828 0.41829 0.0
C4096 C 0.28047 0.23544 0.4316 0.0
H4097 H 0.28993 0.29886 0.33097 0.0
H4098 H 0.28748 0.2849 0.35994 0.0
C4099 C 0.27666 0.22653 0.44718 0.0
C4100 C 0.29283 0.23661 0.40077 0.0
H4101 H 0.3119 0.27712 0.38461 0.0
C4102 C 0.28423 0.22565 0.38333 0.0
C4103 C 0.30297 0.25538 0.40123 0.0
C4104 C 0.31277 0.26761 0.41953 0.0
C4105 C 0.28515 0.23306 0.3664 0.0
C4106 C 0.29539 0.2518 0.36677 0.0
C4107 C 0.30408 0.26275 0.38425 0.0
C4108 C 0.29702 0.26033 0.3492 0.0
C4109 C 0.2746 0.22094 0.34839 0.0
C4110 C 0.30335 0.25134 0.33353 0.0
C4111 C 0.30457 0.25923 0.31696 0.0
C4112 C 0.29962 0.2763 0.3158 0.0
C4113 C 0.29356 0.2855 0.33149 0.0
C4114 C 0.29228 0.27759 0.34805 0.0
H4115 H 0.26381 0.20957 0.35141 0.0
H4116 H 0.26897 0.22979 0.33951 0.0
H4117 H 0.28319 0.21386 0.34008 0.0
H4118 H 0.30752 0.23831 0.33418 0.0
H4119 H 0.3096 0.25212 0.30514 0.0
H4120 H 0.3401 0.64846 0.49965 0.0
H4121 H 0.36146 0.63321 0.4857 0.0
H4122 H 0.34163 0.583 0.50959 0.0
H4123 H 0.32003 0.59793 0.52332 0.0
H4124 H 0.38601 0.62241 0.50819 0.0
H4125 H 0.34686 0.56038 0.45541 0.0
H4126 H 0.33833 0.58042 0.4645 0.0
H4127 H 0.33928 0.56195 0.47821 0.0
C4128 C 0.34026 0.63415 0.50188 0.0
C4129 C 0.32862 0.62444 0.51274 0.0
C4130 C 0.35228 0.62542 0.49373 0.0
C4131 C 0.35277 0.60694 0.49637 0.0
C4132 C 0.34105 0.5971 0.50702 0.0
H4133 H 0.41876 0.53361 0.49789 0.0
H4134 H 0.3952 0.55013 0.49722 0.0
C4135 C 0.32895 0.60576 0.51508 0.0
C4136 C 0.36708 0.59899 0.49033 0.0
H4137 H 0.37611 0.55924 0.46634 0.0
C4138 C 0.38398 0.60882 0.49868 0.0
C4139 C 0.36412 0.58122 0.47807 0.0
C4140 C 0.34617 0.57045 0.46839 0.0
C4141 C 0.39807 0.60077 0.49599 0.0
C4142 C 0.39506 0.58266 0.48428 0.0
C4143 C 0.37826 0.57321 0.47521 0.0
C4144 C 0.40877 0.57232 0.48322 0.0
C4145 C 0.41579 0.61111 0.50666 0.0
C4146 C 0.42399 0.57942 0.47545 0.0
C4147 C 0.43748 0.57013 0.47606 0.0
C4148 C 0.43561 0.55367 0.48425 0.0
C4149 C 0.42026 0.54636 0.49159 0.0
C4150 C 0.40688 0.55566 0.49109 0.0
H4151 H 0.41511 0.62328 0.51769 0.0
H4152 H 0.42181 0.60116 0.51362 0.0
H4153 H 0.42447 0.61685 0.49656 0.0
H4154 H 0.42549 0.5922 0.4692 0.0
H4155 H 0.44932 0.57577 0.47026 0.0
H4156 H 0.84593 0.92934 0.50818 0.0
H4157 H 0.8746 0.94759 0.50275 0.0
H4158 H 0.89705 0.94029 0.55714 0.0
H4159 H 0.86878 0.92163 0.56231 0.0
H4160 H 0.89649 0.9802 0.51997 0.0
H4161 H 0.93089 0.92325 0.52539 0.0
H4162 H 0.90748 0.91873 0.52394 0.0
H4163 H 0.92103 0.92823 0.54641 0.0
C4164 C 0.857 0.93158 0.51896 0.0
C4165 C 0.85497 0.92382 0.53564 0.0
C4166 C 0.87344 0.94204 0.51583 0.0
C4167 C 0.88829 0.94504 0.5293 0.0
C4168 C 0.8861 0.93773 0.54616 0.0
H4169 H 0.99186 0.02012 0.55438 0.0
H4170 H 0.96236 1.00006 0.55383 0.0
C4171 C 0.86978 0.92714 0.5492 0.0
C4172 C 0.90597 0.9561 0.52611 0.0
H4173 H 0.94913 0.95519 0.52904 0.0
C4174 C 0.90792 0.97458 0.52173 0.0
C4175 C 0.92106 0.94885 0.52807 0.0
C4176 C 0.91999 0.9286 0.53099 0.0
C4177 C 0.92447 0.98616 0.52021 0.0
C4178 C 0.93957 0.97927 0.52327 0.0
C4179 C 0.93761 0.96062 0.52698 0.0
C4180 C 0.95754 0.99145 0.52334 0.0
C4181 C 0.92587 0.00592 0.51573 0.0
C4182 C 0.96483 0.99315 0.50639 0.0
C4183 C 0.98184 1.00446 0.50669 0.0
C4184 C 0.99187 0.01446 0.52395 0.0
C4185 C 0.98452 0.01266 0.54086 0.0
C4186 C 0.96762 1.00121 0.54056 0.0
H4187 H 0.91299 0.00944 0.5141 0.0
H4188 H 0.93466 0.01671 0.52719 0.0
H4189 H 0.93172 0.007 0.50237 0.0
H4190 H 0.95735 0.98574 0.49292 0.0
H4191 H 0.98704 0.00559 0.49339 0.0
H4192 H 0.91751 0.13955 0.27916 0.0
H4193 H 0.90072 0.16362 0.27994 0.0
H4194 H 0.85634 0.12131 0.24855 0.0
H4195 H 0.87323 0.09677 0.248 0.0
H4196 H 0.88713 0.1809 0.25635 0.0
H4197 H 0.83041 0.14376 0.28674 0.0
H4198 H 0.84982 0.13502 0.28555 0.0
H4199 H 0.83367 0.13016 0.265 0.0
C4200 C 0.90413 0.13504 0.2724 0.0
C4201 C 0.89707 0.11562 0.26355 0.0
C4202 C 0.89438 0.14916 0.27284 0.0
C4203 C 0.87677 0.1449 0.26463 0.0
C4204 C 0.8696 0.12551 0.25559 0.0
H4205 H 0.79673 0.21334 0.25492 0.0
H4206 H 0.81335 0.18893 0.25444 0.0
C4207 C 0.87946 0.11125 0.25509 0.0
C4208 C 0.86652 0.16082 0.26529 0.0
H4209 H 0.82804 0.17213 0.27577 0.0
C4210 C 0.8742 0.1788 0.26066 0.0
C4211 C 0.84953 0.15893 0.27099 0.0
C4212 C 0.84041 0.14103 0.27755 0.0
C4213 C 0.86558 0.19409 0.2609 0.0
C4214 C 0.8485 0.19219 0.26649 0.0
C4215 C 0.8409 0.17423 0.2713 0.0
C4216 C 0.83818 0.20808 0.26702 0.0
C4217 C 0.87492 0.21194 0.25438 0.0
C4218 C 0.84582 0.22777 0.27449 0.0
C4219 C 0.83619 0.24211 0.27443 0.0
C4220 C 0.8182 0.23755 0.2674 0.0
C4221 C 0.81045 0.21787 0.26048 0.0
C4222 C 0.82013 0.20362 0.26025 0.0
H4223 H 0.88468 0.20898 0.24496 0.0
H4224 H 0.86565 0.2183 0.24659 0.0
H4225 H 0.88207 0.2226 0.26691 0.0
H4226 H 0.85933 0.23225 0.28072 0.0
H4227 H 0.84288 0.25684 0.28016 0.0
H4228 H 0.72367 0.14036 0.0339 0.0
H4229 H 0.69452 0.12965 0.01633 0.0
H4230 H 0.7089 0.082 0.9842 0.0
H4231 H 0.7382 0.09255 1.00167 0.0
H4232 H 0.67162 0.10689 0.97653 0.0
H4233 H 0.68658 0.069 0.03575 0.0
H4234 H 0.70054 0.09141 0.03337 0.0
H4235 H 0.70045 0.06992 0.01737 0.0
C4236 C 0.72074 0.12777 0.02288 0.0
C4237 C 0.73274 0.11652 0.01994 0.0
C4238 C 0.7043 0.12211 0.01239 0.0
C4239 C 0.69969 0.10492 0.99934 0.0
C4240 C 0.71241 0.09535 0.99427 0.0
H4241 H 0.60208 0.02637 0.00262 0.0
H4242 H 0.6297 0.04074 0.99225 0.0
C4243 C 0.72891 0.10102 0.00472 0.0
C4244 C 0.68192 0.09362 0.9983 0.0
H4245 H 0.65778 0.06414 0.02354 0.0
C4246 C 0.66849 0.0972 0.98645 0.0
C4247 C 0.67815 0.08135 0.01164 0.0
C4248 C 0.69212 0.07769 0.02534 0.0
C4249 C 0.65107 0.0889 0.988 0.0
C4250 C 0.64754 0.07724 1.00176 0.0
C4251 C 0.66091 0.07318 0.01303 0.0
C4252 C 0.63008 0.06947 0.00569 0.0
C4253 C 0.63655 0.0928 0.97543 0.0
C4254 C 0.62199 0.081 0.0174 0.0
C4255 C 0.60657 0.07275 0.02386 0.0
C4256 C 0.59938 0.05306 0.01848 0.0
C4257 C 0.60776 0.04156 0.00714 0.0
C4258 C 0.62313 0.04974 1.00081 0.0
H4259 H 0.64144 0.1 0.96374 0.0
H4260 H 0.62678 0.07919 0.9693 0.0
H4261 H 0.62977 0.10208 0.98405 0.0
H4262 H 0.62771 0.09623 0.02165 0.0
H4263 H 0.59986 0.08179 0.03217 0.0
H4264 H 0.21601 0.51489 0.24434 0.0
H4265 H 0.23257 0.49489 0.2586 0.0
H4266 H 0.18456 0.45779 0.26797 0.0
H4267 H 0.16792 0.47727 0.25343 0.0
H4268 H 0.23174 0.48446 0.29599 0.0
H4269 H 0.20936 0.4225 0.23648 0.0
H4270 H 0.20753 0.4463 0.23428 0.0
H4271 H 0.19226 0.43163 0.24621 0.0
C4272 C 0.20902 0.50234 0.24927 0.0
C4273 C 0.19072 0.49736 0.24753 0.0
C4274 C 0.21846 0.49111 0.2575 0.0
C4275 C 0.20964 0.47494 0.26406 0.0
C4276 C 0.19144 0.47013 0.26264 0.0
H4277 H 0.24338 0.3807 0.29964 0.0
H4278 H 0.22607 0.404 0.2961 0.0
C4279 C 0.182 0.48119 0.25425 0.0
C4280 C 0.21937 0.46259 0.27191 0.0
H4281 H 0.22552 0.4177 0.26367 0.0
C4282 C 0.23044 0.46984 0.28903 0.0
C4283 C 0.21746 0.44364 0.26262 0.0
C4284 C 0.20613 0.43556 0.2438 0.0
C4285 C 0.23966 0.45834 0.29733 0.0
C4286 C 0.23779 0.43937 0.288 0.0
C4287 C 0.22664 0.43219 0.27089 0.0
C4288 C 0.24832 0.42704 0.29462 0.0
C4289 C 0.25118 0.46652 0.31597 0.0
C4290 C 0.26649 0.43259 0.29544 0.0
C4291 C 0.27634 0.41943 0.29761 0.0
C4292 C 0.26806 0.40052 0.29864 0.0
C4293 C 0.24997 0.39525 0.29886 0.0
C4294 C 0.24014 0.4085 0.29692 0.0
H4295 H 0.24675 0.47836 0.32411 0.0
H4296 H 0.25145 0.45539 0.32485 0.0
H4297 H 0.26468 0.47245 0.31317 0.0
H4298 H 0.27294 0.44666 0.29309 0.0
H4299 H 0.29026 0.42366 0.29705 0.0
H4300 H 0.22982 0.38354 0.01753 0.0
H4301 H 0.20587 0.3985 0.01116 0.0
H4302 H 0.24275 0.45278 0.01477 0.0
H4303 H 0.26694 0.43788 0.02124 0.0
H4304 H 0.19777 0.42965 0.03438 0.0
H4305 H 0.21108 0.44573 0.96338 0.0
H4306 H 0.22003 0.42866 0.97418 0.0
H4307 H 0.22944 0.45384 0.98171 0.0
C4308 C 0.23291 0.39868 0.017 0.0
C4309 C 0.25036 0.40952 0.01992 0.0
C4310 C 0.21916 0.4072 0.01332 0.0
C4311 C 0.22249 0.42669 0.0122 0.0
C4312 C 0.23987 0.43764 0.01526 0.0
H4313 H 0.16124 0.50817 0.99797 0.0
H4314 H 0.18339 0.48991 0.99864 0.0
C4315 C 0.25368 0.42915 0.01915 0.0
C4316 C 0.20771 0.43561 0.00854 0.0
H4317 H 0.18935 0.45865 0.97727 0.0
C4318 C 0.19586 0.43591 0.02185 0.0
C4319 C 0.20517 0.44364 0.99212 0.0
C4320 C 0.21698 0.44286 0.9769 0.0
C4321 C 0.18195 0.44465 0.01959 0.0
C4322 C 0.17949 0.45293 0.00327 0.0
C4323 C 0.19119 0.45232 0.98977 0.0
C4324 C 0.16549 0.46325 1.00061 0.0
C4325 C 0.17042 0.44554 0.03511 0.0
C4326 C 0.14785 0.45422 1.00071 0.0
C4327 C 0.1351 0.46469 1.00042 0.0
C4328 C 0.13966 0.48436 0.9997 0.0
C4329 C 0.15718 0.49306 0.99845 0.0
C4330 C 0.16992 0.48262 0.99889 0.0
H4331 H 0.1767 0.44305 0.04862 0.0
H4332 H 0.16714 0.45962 0.03777 0.0
H4333 H 0.1581 0.43424 0.03076 0.0
H4334 H 0.14398 0.43915 1.00142 0.0
H4335 H 0.12169 0.45741 1.00096 0.0
H4336 H 0.86893 1.00285 0.24776 0.0
H4337 H 0.85091 0.9707 0.24921 0.0
H4338 H 0.89743 0.95224 0.2633 0.0
H4339 H 0.91523 0.98381 0.2618 0.0
H4340 H 0.84998 0.93362 0.22828 0.0
H4341 H 0.86903 0.93423 0.30432 0.0
H4342 H 0.87298 0.95577 0.29423 0.0
H4343 H 0.88717 0.93986 0.29124 0.0
C4344 C 0.87534 0.99203 0.25132 0.0
C4345 C 0.89376 0.99637 0.25465 0.0
C4346 C 0.86497 0.97345 0.25209 0.0
C4347 C 0.87256 0.95862 0.25664 0.0
C4348 C 0.89091 0.9631 0.2601 0.0
H4349 H 0.83165 0.83549 0.2685 0.0
H4350 H 0.85074 0.86726 0.26751 0.0
C4351 C 0.9012 0.98142 0.25909 0.0
C4352 C 0.86164 0.93845 0.25729 0.0
H4353 H 0.85329 0.90434 0.28591 0.0
C4354 C 0.85067 0.92739 0.24099 0.0
C4355 C 0.86247 0.92965 0.27363 0.0
C4356 C 0.87342 0.9405 0.29192 0.0
C4357 C 0.84093 0.90825 0.24049 0.0
C4358 C 0.84148 0.89955 0.25693 0.0
C4359 C 0.8526 0.91055 0.27319 0.0
C4360 C 0.83 0.87963 0.25765 0.0
C4361 C 0.83054 0.89729 0.22195 0.0
C4362 C 0.81177 0.87543 0.25277 0.0
C4363 C 0.80089 0.85732 0.2534 0.0
C4364 C 0.80756 0.84232 0.25895 0.0
C4365 C 0.82584 0.84638 0.26396 0.0
C4366 C 0.83682 0.86474 0.26347 0.0
H4367 H 0.83595 0.90296 0.20967 0.0
H4368 H 0.8303 0.88185 0.22021 0.0
H4369 H 0.81693 0.89877 0.22158 0.0
H4370 H 0.80576 0.88636 0.24867 0.0
H4371 H 0.78698 0.85511 0.24952 0.0
H4372 H 0.67151 0.10676 0.76873 0.0
H4373 H 0.69143 0.13828 0.78139 0.0
H4374 H 0.72039 0.13169 0.73386 0.0
H4375 H 0.70109 0.10013 0.72171 0.0
H4376 H 0.73018 0.13616 0.78718 0.0
H4377 H 0.71655 0.18989 0.74524 0.0
H4378 H 0.69965 0.17038 0.74978 0.0
H4379 H 0.71278 0.16643 0.73116 0.0
C4380 C 0.68178 0.11251 0.76072 0.0
C4381 C 0.68507 0.10137 0.74441 0.0
C4382 C 0.69305 0.13033 0.76794 0.0
C4383 C 0.70715 0.13705 0.75843 0.0
C4384 C 0.70936 0.12663 0.74117 0.0
H4385 H 0.78727 0.20631 0.73703 0.0
H4386 H 0.77534 0.17439 0.74328 0.0
C4387 C 0.69845 0.10871 0.73428 0.0
C4388 C 0.72163 0.15283 0.7676 0.0
H4389 H 0.74698 0.19152 0.75474 0.0
C4390 C 0.73389 0.14866 0.7806 0.0
C4391 C 0.72604 0.16908 0.75914 0.0
C4392 C 0.71298 0.17433 0.74568 0.0
C4393 C 0.75135 0.159 0.78327 0.0
C4394 C 0.75618 0.17362 0.77273 0.0
C4395 C 0.74334 0.17941 0.76188 0.0
C4396 C 0.77426 0.18411 0.77301 0.0
C4397 C 0.7646 0.15368 0.79641 0.0
C4398 C 0.78087 0.19891 0.78848 0.0
C4399 C 0.78789 0.21708 0.78503 0.0
C4400 C 0.78819 0.22008 0.76619 0.0
C4401 C 0.78618 0.20441 0.75156 0.0
C4402 C 0.77976 0.18609 0.75522 0.0
H4403 H 0.75935 0.13967 0.80064 0.0
H4404 H 0.77655 0.15314 0.78966 0.0
H4405 H 0.76842 0.16479 0.80944 0.0
H4406 H 0.77742 0.19745 0.8025 0.0
H4407 H 0.79068 0.22895 0.79682 0.0
loop_
_geom_bond_atom_site_label_1
_geom_bond_atom_site_label_2
_geom_bond_distance
_geom_bond_site_symmetry_2
_ccdc_geom_bond_type
C0 O1 1.160 . S
C0 O7 1.185 . S
O1 C0 1.160 . S
O2 Zn3 1.899 . S
O2 C10 1.284 . S
Zn3 O2 1.899 . S
Zn3 O4 2.032 . S
Zn3 O7 2.086 . S
Zn3 O12 1.977 . S
O4 Zn3 2.032 . S
O4 C8 1.278 . S
C5 O6 1.203 . S
C5 O12 1.267 . S
O6 C5 1.203 . S
O7 C0 1.185 . S
O7 Zn3 2.086 . S
C8 O4 1.278 . S
C8 O9 1.211 . S
O9 C8 1.211 . S
C10 O2 1.284 . S
C10 O11 1.273 . S
O11 C10 1.273 . S
O12 Zn3 1.977 . S
O12 C5 1.267 . S
C13 O14 1.160 . S
C13 O20 1.185 . S
O14 C13 1.160 . S
O15 Zn16 1.899 . S
O15 C23 1.284 . S
Zn16 O15 1.899 . S
Zn16 O17 2.032 . S
Zn16 O20 2.086 . S
Zn16 O25 1.977 1_655 S
O17 Zn16 2.032 . S
O17 C21 1.278 1_655 S
C18 O19 1.203 . S
C18 O25 1.267 . S
O19 C18 1.203 . S
O20 C13 1.185 . S
O20 Zn16 2.086 . S
C21 O17 1.278 1_455 S
C21 O22 1.211 . S
O22 C21 1.211 . S
C23 O15 1.284 . S
C23 O24 1.273 1_655 S
O24 C23 1.273 1_455 S
O25 Zn16 1.977 1_455 S
O25 C18 1.267 . S
C26 O27 1.160 . S
C26 O33 1.185 . S
O27 C26 1.160 . S
O28 Zn29 1.899 . S
O28 C36 1.284 . S
Zn29 O28 1.899 . S
Zn29 O30 2.032 . S
Zn29 O33 2.086 . S
Zn29 O38 1.977 . S
O30 Zn29 2.032 . S
O30 C34 1.278 . S
C31 O32 1.203 . S
C31 O38 1.267 . S
O32 C31 1.203 . S
O33 C26 1.185 . S
O33 Zn29 2.086 . S
C34 O30 1.278 . S
C34 O35 1.211 . S
O35 C34 1.211 . S
C36 O28 1.284 . S
C36 O37 1.273 . S
O37 C36 1.273 . S
O38 Zn29 1.977 . S
O38 C31 1.267 . S
C39 O40 1.160 . S
C39 O46 1.185 . S
O40 C39 1.160 . S
O41 Zn42 1.899 . S
O41 C49 1.284 . S
Zn42 O41 1.899 . S
Zn42 O43 2.032 . S
Zn42 O46 2.086 . S
Zn42 O51 1.977 . S
O43 Zn42 2.032 . S
O43 C47 1.278 . S
C44 O45 1.203 . S
C44 O51 1.267 . S
O45 C44 1.203 . S
O46 C39 1.185 . S
O46 Zn42 2.086 . S
C47 O43 1.278 . S
C47 O48 1.211 . S
O48 C47 1.211 . S
C49 O41 1.284 . S
C49 O50 1.273 . S
O50 C49 1.273 . S
O51 Zn42 1.977 . S
O51 C44 1.267 . S
C52 O53 1.160 . S
C52 O59 1.185 . S
O53 C52 1.160 . S
O54 Zn55 1.899 . S
O54 C62 1.284 . S
Zn55 O54 1.899 . S
Zn55 O56 2.032 . S
Zn55 O59 2.086 . S
Zn55 O64 1.977 . S
O56 Zn55 2.032 . S
O56 C60 1.278 . S
C57 O58 1.203 . S
C57 O64 1.267 . S
O58 C57 1.203 . S
O59 C52 1.185 . S
O59 Zn55 2.086 . S
C60 O56 1.278 . S
C60 O61 1.211 . S
O61 C60 1.211 . S
C62 O54 1.284 . S
C62 O63 1.273 . S
O63 C62 1.273 . S
O64 Zn55 1.977 . S
O64 C57 1.267 . S
C65 O66 1.160 . S
C65 O72 1.185 . S
O66 C65 1.160 . S
O67 Zn68 1.899 . S
O67 C75 1.284 . S
Zn68 O67 1.899 . S
Zn68 O69 2.032 . S
Zn68 O72 2.086 . S
Zn68 O77 1.977 . S
O69 Zn68 2.032 . S
O69 C73 1.278 . S
C70 O71 1.203 . S
C70 O77 1.267 . S
O71 C70 1.203 . S
O72 C65 1.185 . S
O72 Zn68 2.086 . S
C73 O69 1.278 . S
C73 O74 1.211 . S
O74 C73 1.211 . S
C75 O67 1.284 . S
C75 O76 1.273 . S
O76 C75 1.273 . S
O77 Zn68 1.977 . S
O77 C70 1.267 . S
C78 O79 1.160 . S
C78 O85 1.185 . S
O79 C78 1.160 . S
O80 Zn81 1.899 . S
O80 C88 1.284 . S
Zn81 O80 1.899 . S
Zn81 O82 2.032 . S
Zn81 O85 2.086 . S
Zn81 O90 1.977 . S
O82 Zn81 2.032 . S
O82 C86 1.278 . S
C83 O84 1.203 . S
C83 O90 1.267 . S
O84 C83 1.203 . S
O85 C78 1.185 . S
O85 Zn81 2.086 . S
C86 O82 1.278 . S
C86 O87 1.211 . S
O87 C86 1.211 . S
C88 O80 1.284 . S
C88 O89 1.273 . S
O89 C88 1.273 . S
O90 Zn81 1.977 . S
O90 C83 1.267 . S
C91 O92 1.160 . S
C91 O98 1.185 . S
O92 C91 1.160 . S
O93 Zn94 1.899 . S
O93 C101 1.284 . S
Zn94 O93 1.899 . S
Zn94 O95 2.032 . S
Zn94 O98 2.086 . S
Zn94 O103 1.977 1_455 S
O95 Zn94 2.032 . S
O95 C99 1.278 . S
C96 O97 1.203 . S
C96 O103 1.267 . S
O97 C96 1.203 . S
O98 C91 1.185 . S
O98 Zn94 2.086 . S
C99 O95 1.278 . S
C99 O100 1.212 1_455 S
O100 C99 1.212 1_655 S
C101 O93 1.284 . S
C101 O102 1.273 . S
O102 C101 1.273 . S
O103 Zn94 1.977 1_655 S
O103 C96 1.267 . S
C104 O105 1.160 . S
C104 O111 1.185 . S
O105 C104 1.160 . S
O106 Zn107 1.899 . S
O106 C114 1.284 . S
Zn107 O106 1.899 . S
Zn107 O108 2.032 . S
Zn107 O111 2.086 . S
Zn107 O116 1.977 1_545 S
O108 Zn107 2.032 . S
O108 C112 1.278 . S
C109 O110 1.203 . S
C109 O116 1.267 . S
O110 C109 1.203 . S
O111 C104 1.185 . S
O111 Zn107 2.086 . S
C112 O108 1.278 . S
C112 O113 1.211 1_545 S
O113 C112 1.211 1_565 S
C114 O106 1.284 . S
C114 O115 1.273 . S
O115 C114 1.273 . S
O116 Zn107 1.977 1_565 S
O116 C109 1.267 . S
C117 O118 1.160 . S
C117 O124 1.185 . S
O118 C117 1.160 . S
O119 Zn120 1.899 . S
O119 C127 1.284 . S
Zn120 O119 1.899 . S
Zn120 O121 2.032 . S
Zn120 O124 2.086 . S
Zn120 O129 1.977 . S
O121 Zn120 2.032 . S
O121 C125 1.278 . S
C122 O123 1.203 . S
C122 O129 1.267 . S
O123 C122 1.203 . S
O124 C117 1.185 . S
O124 Zn120 2.086 . S
C125 O121 1.278 . S
C125 O126 1.211 . S
O126 C125 1.211 . S
C127 O119 1.284 . S
C127 O128 1.273 . S
O128 C127 1.273 . S
O129 Zn120 1.977 . S
O129 C122 1.267 . S
C130 O131 1.160 . S
C130 O137 1.185 . S
O131 C130 1.160 . S
O132 Zn133 1.899 . S
O132 C140 1.284 . S
Zn133 O132 1.899 . S
Zn133 O134 2.032 . S
Zn133 O137 2.086 . S
Zn133 O142 1.977 1_565 S
O134 Zn133 2.032 . S
O134 C138 1.278 1_565 S
C135 O136 1.203 . S
C135 O142 1.267 . S
O136 C135 1.203 . S
O137 C130 1.185 . S
O137 Zn133 2.086 . S
C138 O134 1.278 1_545 S
C138 O139 1.211 . S
O139 C138 1.211 . S
C140 O132 1.284 . S
C140 O141 1.273 1_565 S
O141 C140 1.273 1_545 S
O142 Zn133 1.977 1_545 S
O142 C135 1.267 . S
C143 O144 1.160 . S
C143 O150 1.185 . S
O144 C143 1.160 . S
O145 Zn146 1.899 . S
O145 C153 1.284 . S
Zn146 O145 1.899 . S
Zn146 O147 2.032 1_554 S
Zn146 O150 2.086 . S
Zn146 O155 1.977 . S
O147 Zn146 2.032 1_556 S
O147 C151 1.278 . S
C148 O149 1.203 . S
C148 O155 1.267 . S
O149 C148 1.203 . S
O150 C143 1.185 . S
O150 Zn146 2.086 . S
C151 O147 1.278 . S
C151 O152 1.211 . S
O152 C151 1.211 . S
C153 O145 1.284 . S
C153 O154 1.273 . S
O154 C153 1.273 . S
O155 Zn146 1.977 . S
O155 C148 1.267 . S
C156 O157 1.160 . S
C156 O163 1.185 . S
O157 C156 1.160 . S
O158 Zn159 1.899 . S
O158 C166 1.284 . S
Zn159 O158 1.899 . S
Zn159 O160 2.032 1_554 S
Zn159 O163 2.086 . S
Zn159 O168 1.977 . S
O160 Zn159 2.032 1_556 S
O160 C164 1.278 . S
C161 O162 1.203 . S
C161 O168 1.267 . S
O162 C161 1.203 . S
O163 C156 1.185 . S
O163 Zn159 2.086 . S
C164 O160 1.278 . S
C164 O165 1.211 . S
O165 C164 1.211 . S
C166 O158 1.284 . S
C166 O167 1.273 . S
O167 C166 1.273 . S
O168 Zn159 1.977 . S
O168 C161 1.267 . S
C169 O170 1.160 . S
C169 O176 1.185 . S
O170 C169 1.160 . S
O171 Zn172 1.899 . S
O171 C179 1.284 . S
Zn172 O171 1.899 . S
Zn172 O173 2.032 1_554 S
Zn172 O176 2.086 . S
Zn172 O181 1.977 . S
O173 Zn172 2.032 1_556 S
O173 C177 1.278 . S
C174 O175 1.203 . S
C174 O181 1.267 . S
O175 C174 1.203 . S
O176 C169 1.185 . S
O176 Zn172 2.086 . S
C177 O173 1.278 . S
C177 O178 1.211 . S
O178 C177 1.211 . S
C179 O171 1.284 . S
C179 O180 1.273 . S
O180 C179 1.273 . S
O181 Zn172 1.977 . S
O181 C174 1.267 . S
C182 O183 1.160 . S
C182 O189 1.185 . S
O183 C182 1.160 . S
O184 Zn185 1.899 . S
O184 C192 1.284 . S
Zn185 O184 1.899 . S
Zn185 O186 2.032 . S
Zn185 O189 2.086 . S
Zn185 O194 1.977 . S
O186 Zn185 2.032 . S
O186 C190 1.278 . S
C187 O188 1.203 . S
C187 O194 1.267 . S
O188 C187 1.203 . S
O189 C182 1.185 . S
O189 Zn185 2.086 . S
C190 O186 1.278 . S
C190 O191 1.211 . S
O191 C190 1.211 . S
C192 O184 1.284 . S
C192 O193 1.273 . S
O193 C192 1.273 . S
O194 Zn185 1.977 . S
O194 C187 1.267 . S
C195 O196 1.160 . S
C195 O202 1.185 . S
O196 C195 1.160 . S
O197 Zn198 1.899 . S
O197 C205 1.284 . S
Zn198 O197 1.899 . S
Zn198 O199 2.032 . S
Zn198 O202 2.086 . S
Zn198 O207 1.977 . S
O199 Zn198 2.032 . S
O199 C203 1.278 . S
C200 O201 1.203 . S
C200 O207 1.267 . S
O201 C200 1.203 . S
O202 C195 1.185 . S
O202 Zn198 2.086 . S
C203 O199 1.278 . S
C203 O204 1.211 . S
O204 C203 1.211 . S
C205 O197 1.284 . S
C205 O206 1.273 . S
O206 C205 1.273 . S
O207 Zn198 1.977 . S
O207 C200 1.267 . S
C208 O209 1.160 . S
C208 O215 1.185 . S
O209 C208 1.160 . S
O210 Zn211 1.899 . S
O210 C218 1.284 . S
Zn211 O210 1.899 . S
Zn211 O212 2.032 . S
Zn211 O215 2.086 . S
Zn211 O220 1.977 . S
O212 Zn211 2.032 . S
O212 C216 1.278 . S
C213 O214 1.203 . S
C213 O220 1.267 . S
O214 C213 1.203 . S
O215 C208 1.185 . S
O215 Zn211 2.086 . S
C216 O212 1.278 . S
C216 O217 1.211 . S
O217 C216 1.211 . S
C218 O210 1.284 . S
C218 O219 1.273 . S
O219 C218 1.273 . S
O220 Zn211 1.977 . S
O220 C213 1.267 . S
C221 O222 1.160 . S
C221 O228 1.185 . S
O222 C221 1.160 . S
O223 Zn224 1.899 . S
O223 C231 1.284 . S
Zn224 O223 1.899 . S
Zn224 O225 2.032 . S
Zn224 O228 2.086 . S
Zn224 O233 1.977 . S
O225 Zn224 2.032 . S
O225 C229 1.278 . S
C226 O227 1.203 . S
C226 O233 1.267 . S
O227 C226 1.203 . S
O228 C221 1.185 . S
O228 Zn224 2.086 . S
C229 O225 1.278 . S
C229 O230 1.211 . S
O230 C229 1.211 . S
C231 O223 1.284 . S
C231 O232 1.273 . S
O232 C231 1.273 . S
O233 Zn224 1.977 . S
O233 C226 1.267 . S
C234 O235 1.160 . S
C234 O241 1.185 . S
O235 C234 1.160 . S
O236 Zn237 1.899 . S
O236 C244 1.284 . S
Zn237 O236 1.899 . S
Zn237 O238 2.032 . S
Zn237 O241 2.086 . S
Zn237 O246 1.977 . S
O238 Zn237 2.032 . S
O238 C242 1.278 . S
C239 O240 1.203 . S
C239 O246 1.267 . S
O240 C239 1.203 . S
O241 C234 1.185 . S
O241 Zn237 2.086 . S
C242 O238 1.278 . S
C242 O243 1.211 . S
O243 C242 1.211 . S
C244 O236 1.284 . S
C244 O245 1.273 . S
O245 C244 1.273 . S
O246 Zn237 1.977 . S
O246 C239 1.267 . S
C247 O248 1.160 . S
C247 O254 1.185 . S
O248 C247 1.160 . S
O249 Zn250 1.899 . S
O249 C257 1.284 . S
Zn250 O249 1.899 . S
Zn250 O251 2.032 . S
Zn250 O254 2.086 . S
Zn250 O259 1.977 . S
O251 Zn250 2.032 . S
O251 C255 1.278 . S
C252 O253 1.203 . S
C252 O259 1.267 . S
O253 C252 1.203 . S
O254 C247 1.185 . S
O254 Zn250 2.086 . S
C255 O251 1.278 . S
C255 O256 1.211 . S
O256 C255 1.211 . S
C257 O249 1.284 . S
C257 O258 1.273 . S
O258 C257 1.273 . S
O259 Zn250 1.977 . S
O259 C252 1.267 . S
C260 O261 1.160 . S
C260 O267 1.190 . S
O261 C260 1.160 . S
O262 Zn263 1.899 . S
O262 C270 1.284 . S
Zn263 O262 1.899 . S
Zn263 O264 2.032 1_554 S
Zn263 O267 2.090 . S
Zn263 O272 1.977 1_554 S
O264 Zn263 2.032 1_556 S
O264 C268 1.278 . S
C265 O266 1.203 . S
C265 O272 1.267 1_554 S
O266 C265 1.203 . S
O267 C260 1.190 . S
O267 Zn263 2.090 . S
C268 O264 1.278 . S
C268 O269 1.211 . S
O269 C268 1.211 . S
C270 O262 1.284 . S
C270 O271 1.273 . S
O271 C270 1.273 . S
O272 Zn263 1.977 1_556 S
O272 C265 1.267 1_556 S
C273 O274 1.160 . S
C273 O280 1.185 . S
O274 C273 1.160 . S
O275 Zn276 1.899 . S
O275 C283 1.284 . S
Zn276 O275 1.899 . S
Zn276 O277 2.032 . S
Zn276 O280 2.086 . S
Zn276 O285 1.977 . S
O277 Zn276 2.032 . S
O277 C281 1.278 . S
C278 O279 1.203 . S
C278 O285 1.267 . S
O279 C278 1.203 . S
O280 C273 1.185 . S
O280 Zn276 2.086 . S
C281 O277 1.278 . S
C281 O282 1.211 . S
O282 C281 1.211 . S
C283 O275 1.284 . S
C283 O284 1.273 . S
O284 C283 1.273 . S
O285 Zn276 1.977 . S
O285 C278 1.267 . S
C286 O287 1.160 . S
C286 O293 1.185 . S
O287 C286 1.160 . S
O288 Zn289 1.899 . S
O288 C296 1.284 . S
Zn289 O288 1.899 . S
Zn289 O290 2.032 . S
Zn289 O293 2.086 . S
Zn289 O298 1.977 . S
O290 Zn289 2.032 . S
O290 C294 1.278 . S
C291 O292 1.203 . S
C291 O298 1.267 . S
O292 C291 1.203 . S
O293 C286 1.185 . S
O293 Zn289 2.086 . S
C294 O290 1.278 . S
C294 O295 1.211 . S
O295 C294 1.211 . S
C296 O288 1.284 . S
C296 O297 1.273 . S
O297 C296 1.273 . S
O298 Zn289 1.977 . S
O298 C291 1.267 . S
C299 O300 1.160 . S
C299 O306 1.185 . S
O300 C299 1.160 . S
O301 Zn302 1.899 . S
O301 C309 1.284 . S
Zn302 O301 1.899 . S
Zn302 O303 2.032 . S
Zn302 O306 2.086 . S
Zn302 O311 1.977 . S
O303 Zn302 2.032 . S
O303 C307 1.278 . S
C304 O305 1.203 . S
C304 O311 1.267 . S
O305 C304 1.203 . S
O306 C299 1.185 . S
O306 Zn302 2.086 . S
C307 O303 1.278 . S
C307 O308 1.211 . S
O308 C307 1.211 . S
C309 O301 1.284 . S
C309 O310 1.273 . S
O310 C309 1.273 . S
O311 Zn302 1.977 . S
O311 C304 1.267 . S
Gd312 C315 2.818 1_455 S
Gd312 O332 2.377 . S
Gd312 O334 2.448 1_455 S
Gd312 O335 2.506 1_456 S
Gd312 O336 2.435 . S
Gd312 O337 2.717 . S
Gd312 O339 2.395 1_546 S
Gd312 O343 2.327 1_556 S
Gd313 C324 2.818 . S
Gd313 O333 2.395 . S
Gd313 O337 2.327 1_554 S
Gd313 O338 2.377 . S
Gd313 O340 2.448 . S
Gd313 O341 2.506 . S
Gd313 O342 2.435 . S
Gd313 O343 2.717 . S
C314 O332 1.240 1_554 S
C314 O333 1.240 . S
C315 Gd312 2.818 1_655 S
C315 C316 1.510 . S
C315 O334 1.249 . S
C315 O335 1.252 1_556 S
C316 C315 1.510 . S
C316 C317 1.404 . S
C316 C318 1.352 . S
C317 C316 1.404 . S
C317 C321 1.389 . S
C317 H344 0.930 . S
C318 C316 1.352 . S
C318 C320 1.374 . S
C318 H345 0.931 1_556 S
C319 C320 1.359 . S
C319 C321 1.364 . S
C320 C318 1.374 . S
C320 C319 1.359 . S
C320 H346 0.931 1_556 S
C321 C317 1.389 . S
C321 C319 1.364 . S
C321 H347 0.931 . S
C322 O336 1.256 . S
C322 O337 1.257 . S
C323 O338 1.240 1_565 S
C323 O339 1.240 . S
C324 Gd313 2.818 . S
C324 C325 1.510 . S
C324 O340 1.249 . S
C324 O341 1.252 . S
C325 C324 1.510 . S
C325 C326 1.404 . S
C325 C327 1.352 . S
C326 C325 1.404 . S
C326 C330 1.389 . S
C326 H348 0.930 . S
C327 C325 1.352 . S
C327 C329 1.374 1_545 S
C327 H349 0.931 1_545 S
C328 C329 1.359 1_545 S
C328 C330 1.375 . S
C329 C327 1.374 1_565 S
C329 C328 1.359 1_565 S
C329 H350 0.931 . S
C330 C326 1.389 . S
C330 C328 1.375 . S
C330 H351 0.931 . S
C331 O342 1.256 . S
C331 O343 1.257 . S
O332 Gd312 2.377 . S
O332 C314 1.240 1_556 S
O333 Gd313 2.395 . S
O333 C314 1.240 . S
O334 Gd312 2.448 1_655 S
O334 C315 1.249 . S
O335 Gd312 2.506 1_654 S
O335 C315 1.252 1_554 S
O336 Gd312 2.435 . S
O336 C322 1.256 . S
O337 Gd312 2.717 . S
O337 Gd313 2.327 1_556 S
O337 C322 1.257 . S
O338 Gd313 2.377 . S
O338 C323 1.240 1_545 S
O339 Gd312 2.395 1_564 S
O339 C323 1.240 . S
O340 Gd313 2.448 . S
O340 C324 1.249 . S
O341 Gd313 2.506 . S
O341 C324 1.252 . S
O342 Gd313 2.435 . S
O342 C331 1.256 . S
O343 Gd312 2.327 1_554 S
O343 Gd313 2.717 . S
O343 C331 1.257 . S
H344 C317 0.930 . S
H345 C318 0.931 1_554 S
H346 C320 0.931 1_554 S
H347 C321 0.931 . S
H348 C326 0.930 . S
H349 C327 0.931 1_565 S
H350 C329 0.931 . S
H351 C330 0.931 . S
Gd352 C355 2.818 . S
Gd352 O372 2.377 . S
Gd352 O374 2.448 . S
Gd352 O375 2.506 . S
Gd352 O376 2.435 . S
Gd352 O377 2.717 . S
Gd352 O379 2.395 . S
Gd352 O383 2.327 . S
Gd353 C364 2.818 . S
Gd353 O373 2.395 . S
Gd353 O377 2.327 . S
Gd353 O378 2.377 . S
Gd353 O380 2.448 . S
Gd353 O381 2.506 . S
Gd353 O382 2.435 . S
Gd353 O383 2.717 . S
C354 O372 1.240 . S
C354 O373 1.240 . S
C355 Gd352 2.818 . S
C355 C356 1.510 . S
C355 O374 1.249 . S
C355 O375 1.252 . S
C356 C355 1.510 . S
C356 C357 1.404 . S
C356 C358 1.352 . S
C357 C356 1.404 . S
C357 C361 1.389 . S
C357 H384 0.930 . S
C358 C356 1.352 . S
C358 C360 1.374 . S
C358 H385 0.931 . S
C359 C360 1.359 . S
C359 C361 1.364 . S
C360 C358 1.374 . S
C360 C359 1.359 . S
C360 H386 0.931 . S
C361 C357 1.389 . S
C361 C359 1.364 . S
C361 H387 0.931 . S
C362 O376 1.256 . S
C362 O377 1.257 . S
C363 O378 1.240 . S
C363 O379 1.240 . S
C364 Gd353 2.818 . S
C364 C365 1.510 . S
C364 O380 1.249 . S
C364 O381 1.252 . S
C365 C364 1.510 . S
C365 C366 1.404 . S
C365 C367 1.352 . S
C366 C365 1.404 . S
C366 C370 1.389 . S
C366 H388 0.930 . S
C367 C365 1.352 . S
C367 C369 1.374 . S
C367 H389 0.931 . S
C368 C369 1.359 . S
C368 C370 1.364 . S
C369 C367 1.374 . S
C369 C368 1.359 . S
C369 H390 0.931 . S
C370 C366 1.389 . S
C370 C368 1.364 . S
C370 H391 0.931 . S
C371 O382 1.256 . S
C371 O383 1.257 . S
O372 Gd352 2.377 . S
O372 C354 1.240 . S
O373 Gd353 2.395 . S
O373 C354 1.240 . S
O374 Gd352 2.448 . S
O374 C355 1.249 . S
O375 Gd352 2.506 . S
O375 C355 1.252 . S
O376 Gd352 2.435 . S
O376 C362 1.256 . S
O377 Gd352 2.717 . S
O377 Gd353 2.327 . S
O377 C362 1.257 . S
O378 Gd353 2.377 . S
O378 C363 1.240 . S
O379 Gd352 2.395 . S
O379 C363 1.240 . S
O380 Gd353 2.448 . S
O380 C364 1.249 . S
O381 Gd353 2.506 . S
O381 C364 1.252 . S
O382 Gd353 2.435 . S
O382 C371 1.256 . S
O383 Gd352 2.327 . S
O383 Gd353 2.717 . S
O383 C371 1.257 . S
H384 C357 0.930 . S
H385 C358 0.931 . S
H386 C360 0.931 . S
H387 C361 0.931 . S
H388 C366 0.930 . S
H389 C367 0.931 . S
H390 C369 0.931 . S
H391 C370 0.931 . S
Gd392 C395 2.818 . S
Gd392 O412 2.377 . S
Gd392 O414 2.448 . S
Gd392 O415 2.506 . S
Gd392 O416 2.435 . S
Gd392 O417 2.717 . S
Gd392 O419 2.395 . S
Gd392 O423 2.327 . S
Gd393 C404 2.818 . S
Gd393 O413 2.395 1_545 S
Gd393 O417 2.327 . S
Gd393 O418 2.377 . S
Gd393 O420 2.448 . S
Gd393 O421 2.506 . S
Gd393 O422 2.435 . S
Gd393 O423 2.717 . S
C394 O412 1.240 1_565 S
C394 O413 1.240 . S
C395 Gd392 2.818 . S
C395 C396 1.510 . S
C395 O414 1.249 . S
C395 O415 1.252 . S
C396 C395 1.510 . S
C396 C397 1.404 . S
C396 C398 1.352 1_545 S
C397 C396 1.404 . S
C397 C401 1.389 1_545 S
C397 H424 0.930 . S
C398 C396 1.352 1_565 S
C398 C400 1.374 . S
C398 H425 0.931 . S
C399 C400 1.359 . S
C399 C401 1.364 . S
C400 C398 1.374 . S
C400 C399 1.359 . S
C400 H426 0.931 . S
C401 C397 1.389 1_565 S
C401 C399 1.364 . S
C401 H427 0.931 . S
C402 O416 1.256 . S
C402 O417 1.257 . S
C403 O418 1.240 . S
C403 O419 1.240 . S
C404 Gd393 2.818 . S
C404 C405 1.510 . S
C404 O420 1.249 . S
C404 O421 1.252 . S
C405 C404 1.510 . S
C405 C406 1.404 . S
C405 C407 1.352 . S
C406 C405 1.404 . S
C406 C410 1.389 . S
C406 H428 0.930 . S
C407 C405 1.352 . S
C407 C409 1.374 . S
C407 H429 0.931 . S
C408 C409 1.359 . S
C408 C410 1.364 . S
C409 C407 1.374 . S
C409 C408 1.359 . S
C409 H430 0.931 . S
C410 C406 1.389 . S
C410 C408 1.364 . S
C410 H431 0.931 . S
C411 O422 1.256 . S
C411 O423 1.257 . S
O412 Gd392 2.377 . S
O412 C394 1.240 1_545 S
O413 Gd393 2.395 1_565 S
O413 C394 1.240 . S
O414 Gd392 2.448 . S
O414 C395 1.249 . S
O415 Gd392 2.506 . S
O415 C395 1.252 . S
O416 Gd392 2.435 . S
O416 C402 1.256 . S
O417 Gd392 2.717 . S
O417 Gd393 2.327 . S
O417 C402 1.257 . S
O418 Gd393 2.377 . S
O418 C403 1.240 . S
O419 Gd392 2.395 . S
O419 C403 1.240 . S
O420 Gd393 2.448 . S
O420 C404 1.249 . S
O421 Gd393 2.506 . S
O421 C404 1.252 . S
O422 Gd393 2.435 . S
O422 C411 1.256 . S
O423 Gd392 2.327 . S
O423 Gd393 2.717 . S
O423 C411 1.257 . S
H424 C397 0.930 . S
H425 C398 0.931 . S
H426 C400 0.931 . S
H427 C401 0.931 . S
H428 C406 0.930 . S
H429 C407 0.931 . S
H430 C409 0.931 . S
H431 C410 0.931 . S
Gd432 C435 2.818 . S
Gd432 O452 2.377 . S
Gd432 O454 2.448 . S
Gd432 O455 2.506 . S
Gd432 O456 2.435 . S
Gd432 O457 2.717 . S
Gd432 O459 2.395 . S
Gd432 O463 2.327 . S
Gd433 C444 2.818 . S
Gd433 O453 2.395 . S
Gd433 O457 2.327 . S
Gd433 O458 2.377 . S
Gd433 O460 2.448 . S
Gd433 O461 2.506 . S
Gd433 O462 2.435 . S
Gd433 O463 2.717 . S
C434 O452 1.240 . S
C434 O453 1.240 . S
C435 Gd432 2.818 . S
C435 C436 1.510 . S
C435 O454 1.249 . S
C435 O455 1.252 . S
C436 C435 1.510 . S
C436 C437 1.404 . S
C436 C438 1.352 . S
C437 C436 1.404 . S
C437 C441 1.389 . S
C437 H464 0.930 . S
C438 C436 1.352 . S
C438 C440 1.374 . S
C438 H465 0.931 . S
C439 C440 1.359 . S
C439 C441 1.364 . S
C440 C438 1.374 . S
C440 C439 1.359 . S
C440 H466 0.931 . S
C441 C437 1.389 . S
C441 C439 1.364 . S
C441 H467 0.931 . S
C442 O456 1.256 . S
C442 O457 1.257 . S
C443 O458 1.240 . S
C443 O459 1.240 . S
C444 Gd433 2.818 . S
C444 C445 1.510 . S
C444 O460 1.249 . S
C444 O461 1.252 . S
C445 C444 1.510 . S
C445 C446 1.404 . S
C445 C447 1.352 . S
C446 C445 1.404 . S
C446 C450 1.389 . S
C446 H468 0.930 . S
C447 C445 1.352 . S
C447 C449 1.374 . S
C447 H469 0.931 . S
C448 C449 1.359 . S
C448 C450 1.364 . S
C449 C447 1.374 . S
C449 C448 1.359 . S
C449 H470 0.931 . S
C450 C446 1.389 . S
C450 C448 1.364 . S
C450 H471 0.931 . S
C451 O462 1.256 . S
C451 O463 1.257 . S
O452 Gd432 2.377 . S
O452 C434 1.240 . S
O453 Gd433 2.395 . S
O453 C434 1.240 . S
O454 Gd432 2.448 . S
O454 C435 1.249 . S
O455 Gd432 2.506 . S
O455 C435 1.252 . S
O456 Gd432 2.435 . S
O456 C442 1.256 . S
O457 Gd432 2.717 . S
O457 Gd433 2.327 . S
O457 C442 1.257 . S
O458 Gd433 2.377 . S
O458 C443 1.240 . S
O459 Gd432 2.395 . S
O459 C443 1.240 . S
O460 Gd433 2.448 . S
O460 C444 1.249 . S
O461 Gd433 2.506 . S
O461 C444 1.252 . S
O462 Gd433 2.435 . S
O462 C451 1.256 . S
O463 Gd432 2.327 . S
O463 Gd433 2.717 . S
O463 C451 1.257 . S
H464 C437 0.930 . S
H465 C438 0.931 . S
H466 C440 0.931 . S
H467 C441 0.931 . S
H468 C446 0.930 . S
H469 C447 0.931 . S
H470 C449 0.931 . S
H471 C450 0.931 . S
Gd472 C475 2.818 . S
Gd472 O492 2.377 . S
Gd472 O494 2.448 . S
Gd472 O495 2.506 . S
Gd472 O496 2.435 . S
Gd472 O497 2.717 . S
Gd472 O499 2.395 . S
Gd472 O503 2.327 . S
Gd473 C484 2.818 1_545 S
Gd473 O493 2.395 . S
Gd473 O497 2.327 . S
Gd473 O498 2.377 . S
Gd473 O500 2.448 1_545 S
Gd473 O501 2.506 1_545 S
Gd473 O502 2.435 . S
Gd473 O503 2.717 . S
C474 O492 1.240 . S
C474 O493 1.240 . S
C475 Gd472 2.818 . S
C475 C476 1.510 . S
C475 O494 1.249 . S
C475 O495 1.252 . S
C476 C475 1.510 . S
C476 C477 1.404 . S
C476 C478 1.352 . S
C477 C476 1.404 . S
C477 C481 1.389 . S
C477 H504 0.930 . S
C478 C476 1.352 . S
C478 C480 1.374 . S
C478 H505 0.931 . S
C479 C480 1.359 . S
C479 C481 1.364 . S
C480 C478 1.374 . S
C480 C479 1.359 . S
C480 H506 0.931 . S
C481 C477 1.389 . S
C481 C479 1.364 . S
C481 H507 0.931 . S
C482 O496 1.256 . S
C482 O497 1.257 . S
C483 O498 1.240 . S
C483 O499 1.240 . S
C484 Gd473 2.818 1_565 S
C484 C485 1.510 . S
C484 O500 1.249 . S
C484 O501 1.252 . S
C485 C484 1.510 . S
C485 C486 1.404 . S
C485 C487 1.352 . S
C486 C485 1.404 . S
C486 C490 1.389 . S
C486 H508 0.930 . S
C487 C485 1.352 . S
C487 C489 1.374 . S
C487 H509 0.931 . S
C488 C489 1.359 . S
C488 C490 1.364 . S
C489 C487 1.374 . S
C489 C488 1.359 . S
C489 H510 0.931 . S
C490 C486 1.389 . S
C490 C488 1.364 . S
C490 H511 0.931 . S
C491 O502 1.256 . S
C491 O503 1.257 . S
O492 Gd472 2.377 . S
O492 C474 1.240 . S
O493 Gd473 2.395 . S
O493 C474 1.240 . S
O494 Gd472 2.448 . S
O494 C475 1.249 . S
O495 Gd472 2.506 . S
O495 C475 1.252 . S
O496 Gd472 2.435 . S
O496 C482 1.256 . S
O497 Gd472 2.717 . S
O497 Gd473 2.327 . S
O497 C482 1.257 . S
O498 Gd473 2.377 . S
O498 C483 1.240 . S
O499 Gd472 2.395 . S
O499 C483 1.240 . S
O500 Gd473 2.448 1_565 S
O500 C484 1.249 . S
O501 Gd473 2.506 1_565 S
O501 C484 1.252 . S
O502 Gd473 2.435 . S
O502 C491 1.256 . S
O503 Gd472 2.327 . S
O503 Gd473 2.717 . S
O503 C491 1.257 . S
H504 C477 0.930 . S
H505 C478 0.931 . S
H506 C480 0.931 . S
H507 C481 0.931 . S
H508 C486 0.930 . S
H509 C487 0.931 . S
H510 C489 0.931 . S
H511 C490 0.931 . S
Gd512 C515 2.818 . S
Gd512 O532 2.377 . S
Gd512 O534 2.448 . S
Gd512 O535 2.506 . S
Gd512 O536 2.435 . S
Gd512 O537 2.717 . S
Gd512 O539 2.395 . S
Gd512 O543 2.327 . S
Gd513 C524 2.818 . S
Gd513 O533 2.395 . S
Gd513 O537 2.327 . S
Gd513 O538 2.377 . S
Gd513 O540 2.448 . S
Gd513 O541 2.506 . S
Gd513 O542 2.435 . S
Gd513 O543 2.717 . S
C514 O532 1.240 . S
C514 O533 1.240 . S
C515 Gd512 2.818 . S
C515 C516 1.510 . S
C515 O534 1.249 . S
C515 O535 1.252 . S
C516 C515 1.510 . S
C516 C517 1.404 . S
C516 C518 1.352 . S
C517 C516 1.404 . S
C517 C521 1.389 . S
C517 H544 0.930 . S
C518 C516 1.352 . S
C518 C520 1.374 . S
C518 H545 0.931 . S
C519 C520 1.359 . S
C519 C521 1.364 . S
C520 C518 1.374 . S
C520 C519 1.359 . S
C520 H546 0.931 . S
C521 C517 1.389 . S
C521 C519 1.364 . S
C521 H547 0.931 . S
C522 O536 1.256 . S
C522 O537 1.257 . S
C523 O538 1.240 . S
C523 O539 1.240 . S
C524 Gd513 2.818 . S
C524 C525 1.510 . S
C524 O540 1.249 . S
C524 O541 1.252 . S
C525 C524 1.510 . S
C525 C526 1.404 . S
C525 C527 1.352 . S
C526 C525 1.404 . S
C526 C530 1.389 . S
C526 H548 0.930 . S
C527 C525 1.352 . S
C527 C529 1.374 . S
C527 H549 0.931 . S
C528 C529 1.359 . S
C528 C530 1.364 . S
C529 C527 1.374 . S
C529 C528 1.359 . S
C529 H550 0.931 . S
C530 C526 1.389 . S
C530 C528 1.364 . S
C530 H551 0.931 . S
C531 O542 1.256 . S
C531 O543 1.257 . S
O532 Gd512 2.377 . S
O532 C514 1.240 . S
O533 Gd513 2.395 . S
O533 C514 1.240 . S
O534 Gd512 2.448 . S
O534 C515 1.249 . S
O535 Gd512 2.506 . S
O535 C515 1.252 . S
O536 Gd512 2.435 . S
O536 C522 1.256 . S
O537 Gd512 2.717 . S
O537 Gd513 2.327 . S
O537 C522 1.257 . S
O538 Gd513 2.377 . S
O538 C523 1.240 . S
O539 Gd512 2.395 . S
O539 C523 1.240 . S
O540 Gd513 2.448 . S
O540 C524 1.249 . S
O541 Gd513 2.506 . S
O541 C524 1.252 . S
O542 Gd513 2.435 . S
O542 C531 1.256 . S
O543 Gd512 2.327 . S
O543 Gd513 2.717 . S
O543 C531 1.257 . S
H544 C517 0.930 . S
H545 C518 0.931 . S
H546 C520 0.931 . S
H547 C521 0.931 . S
H548 C526 0.930 . S
H549 C527 0.931 . S
H550 C529 0.931 . S
H551 C530 0.931 . S
Gd552 C555 2.818 . S
Gd552 O572 2.377 . S
Gd552 O574 2.451 1_545 S
Gd552 O575 2.506 . S
Gd552 O576 2.435 1_545 S
Gd552 O577 2.771 . S
Gd552 O579 2.395 . S
Gd552 O583 2.327 . S
Gd553 C564 2.818 . S
Gd553 O573 2.398 . S
Gd553 O577 2.300 1_556 S
Gd553 O578 2.377 1_556 S
Gd553 O580 2.448 . S
Gd553 O581 2.506 . S
Gd553 O582 2.435 1_556 S
Gd553 O583 2.717 1_556 S
C554 O572 1.240 . S
C554 O573 1.236 1_554 S
C555 Gd552 2.818 . S
C555 C556 1.510 . S
C555 O574 1.252 1_545 S
C555 O575 1.252 . S
C556 C555 1.510 . S
C556 C557 1.404 1_545 S
C556 C558 1.352 . S
C557 C556 1.404 1_565 S
C557 C561 1.389 . S
C557 H584 0.930 . S
C558 C556 1.352 . S
C558 C560 1.374 . S
C558 H585 0.931 . S
C559 C560 1.359 1_565 S
C559 C561 1.364 . S
C560 C558 1.374 . S
C560 C559 1.359 1_545 S
C560 H586 0.931 . S
C561 C557 1.389 . S
C561 C559 1.364 . S
C561 H587 0.931 . S
C562 O576 1.256 . S
C562 O577 1.276 1_565 S
C563 O578 1.240 . S
C563 O579 1.240 . S
C564 Gd553 2.818 . S
C564 C565 1.510 . S
C564 O580 1.249 . S
C564 O581 1.252 . S
C565 C564 1.510 . S
C565 C566 1.404 . S
C565 C567 1.352 . S
C566 C565 1.404 . S
C566 C570 1.389 . S
C566 H588 0.930 . S
C567 C565 1.352 . S
C567 C569 1.374 . S
C567 H589 0.931 . S
C568 C569 1.359 . S
C568 C570 1.364 . S
C569 C567 1.374 . S
C569 C568 1.359 . S
C569 H590 0.931 . S
C570 C566 1.389 . S
C570 C568 1.364 . S
C570 H591 0.931 . S
C571 O582 1.256 . S
C571 O583 1.257 . S
O572 Gd552 2.377 . S
O572 C554 1.240 . S
O573 Gd553 2.398 . S
O573 C554 1.236 1_556 S
O574 Gd552 2.451 1_565 S
O574 C555 1.252 1_565 S
O575 Gd552 2.506 . S
O575 C555 1.252 . S
O576 Gd552 2.435 1_565 S
O576 C562 1.256 . S
O577 Gd552 2.771 . S
O577 Gd553 2.300 1_554 S
O577 C562 1.276 1_545 S
O578 Gd553 2.377 1_554 S
O578 C563 1.240 . S
O579 Gd552 2.395 . S
O579 C563 1.240 . S
O580 Gd553 2.448 . S
O580 C564 1.249 . S
O581 Gd553 2.506 . S
O581 C564 1.252 . S
O582 Gd553 2.435 1_554 S
O582 C571 1.256 . S
O583 Gd552 2.327 . S
O583 Gd553 2.717 1_554 S
O583 C571 1.257 . S
H584 C557 0.930 . S
H585 C558 0.931 . S
H586 C560 0.931 . S
H587 C561 0.931 . S
H588 C566 0.930 . S
H589 C567 0.931 . S
H590 C569 0.931 . S
H591 C570 0.931 . S
Gd592 C595 2.818 . S
Gd592 O612 2.377 . S
Gd592 O614 2.448 . S
Gd592 O615 2.506 . S
Gd592 O616 2.435 . S
Gd592 O617 2.717 . S
Gd592 O619 2.395 . S
Gd592 O623 2.327 . S
Gd593 C604 2.818 . S
Gd593 O613 2.395 . S
Gd593 O617 2.327 . S
Gd593 O618 2.377 . S
Gd593 O620 2.448 . S
Gd593 O621 2.506 . S
Gd593 O622 2.435 . S
Gd593 O623 2.717 . S
C594 O612 1.240 . S
C594 O613 1.240 . S
C595 Gd592 2.818 . S
C595 C596 1.510 . S
C595 O614 1.249 . S
C595 O615 1.252 . S
C596 C595 1.510 . S
C596 C597 1.404 . S
C596 C598 1.352 . S
C597 C596 1.404 . S
C597 C601 1.389 . S
C597 H624 0.930 . S
C598 C596 1.352 . S
C598 C600 1.374 . S
C598 H625 0.931 . S
C599 C600 1.359 . S
C599 C601 1.364 . S
C600 C598 1.374 . S
C600 C599 1.359 . S
C600 H626 0.931 . S
C601 C597 1.389 . S
C601 C599 1.364 . S
C601 H627 0.931 . S
C602 O616 1.256 . S
C602 O617 1.257 . S
C603 O618 1.240 . S
C603 O619 1.240 . S
C604 Gd593 2.818 . S
C604 C605 1.510 . S
C604 O620 1.249 . S
C604 O621 1.252 . S
C605 C604 1.510 . S
C605 C606 1.404 . S
C605 C607 1.352 . S
C606 C605 1.404 . S
C606 C610 1.389 . S
C606 H628 0.930 . S
C607 C605 1.352 . S
C607 C609 1.374 . S
C607 H629 0.931 . S
C608 C609 1.359 . S
C608 C610 1.364 . S
C609 C607 1.374 . S
C609 C608 1.359 . S
C609 H630 0.931 . S
C610 C606 1.389 . S
C610 C608 1.364 . S
C610 H631 0.931 . S
C611 O622 1.256 . S
C611 O623 1.257 . S
O612 Gd592 2.377 . S
O612 C594 1.240 . S
O613 Gd593 2.395 . S
O613 C594 1.240 . S
O614 Gd592 2.448 . S
O614 C595 1.249 . S
O615 Gd592 2.506 . S
O615 C595 1.252 . S
O616 Gd592 2.435 . S
O616 C602 1.256 . S
O617 Gd592 2.717 . S
O617 Gd593 2.327 . S
O617 C602 1.257 . S
O618 Gd593 2.377 . S
O618 C603 1.240 . S
O619 Gd592 2.395 . S
O619 C603 1.240 . S
O620 Gd593 2.448 . S
O620 C604 1.249 . S
O621 Gd593 2.506 . S
O621 C604 1.252 . S
O622 Gd593 2.435 . S
O622 C611 1.256 . S
O623 Gd592 2.327 . S
O623 Gd593 2.717 . S
O623 C611 1.257 . S
H624 C597 0.930 . S
H625 C598 0.931 . S
H626 C600 0.931 . S
H627 C601 0.931 . S
H628 C606 0.930 . S
H629 C607 0.931 . S
H630 C609 0.931 . S
H631 C610 0.931 . S
Gd632 C635 2.818 . S
Gd632 O652 2.377 1_554 S
Gd632 O654 2.448 . S
Gd632 O655 2.506 . S
Gd632 O656 2.435 . S
Gd632 O657 2.717 . S
Gd632 O659 2.395 . S
Gd632 O663 2.327 . S
Gd633 C644 2.818 . S
Gd633 O653 2.395 1_554 S
Gd633 O657 2.327 . S
Gd633 O658 2.377 . S
Gd633 O660 2.448 . S
Gd633 O661 2.506 . S
Gd633 O662 2.435 . S
Gd633 O663 2.717 . S
C634 O652 1.240 . S
C634 O653 1.240 . S
C635 Gd632 2.818 . S
C635 C636 1.510 1_554 S
C635 O654 1.249 . S
C635 O655 1.252 . S
C636 C635 1.510 1_556 S
C636 C637 1.404 . S
C636 C638 1.352 . S
C637 C636 1.404 . S
C637 C641 1.389 . S
C637 H664 0.930 1_556 S
C638 C636 1.352 . S
C638 C640 1.374 . S
C638 H665 0.931 . S
C639 C640 1.359 . S
C639 C641 1.364 . S
C640 C638 1.374 . S
C640 C639 1.359 . S
C640 H666 0.931 . S
C641 C637 1.389 . S
C641 C639 1.364 . S
C641 H667 0.931 . S
C642 O656 1.256 . S
C642 O657 1.257 . S
C643 O658 1.240 . S
C643 O659 1.240 . S
C644 Gd633 2.818 . S
C644 C645 1.510 . S
C644 O660 1.249 . S
C644 O661 1.252 . S
C645 C644 1.510 . S
C645 C646 1.404 . S
C645 C647 1.352 . S
C646 C645 1.404 . S
C646 C650 1.389 . S
C646 H668 0.930 . S
C647 C645 1.352 . S
C647 C649 1.374 . S
C647 H669 0.931 . S
C648 C649 1.359 . S
C648 C650 1.364 . S
C649 C647 1.374 . S
C649 C648 1.359 . S
C649 H670 0.931 . S
C650 C646 1.389 . S
C650 C648 1.364 . S
C650 H671 0.931 . S
C651 O662 1.256 . S
C651 O663 1.257 . S
O652 Gd632 2.377 1_556 S
O652 C634 1.240 . S
O653 Gd633 2.395 1_556 S
O653 C634 1.240 . S
O654 Gd632 2.448 . S
O654 C635 1.249 . S
O655 Gd632 2.506 . S
O655 C635 1.252 . S
O656 Gd632 2.435 . S
O656 C642 1.256 . S
O657 Gd632 2.717 . S
O657 Gd633 2.327 . S
O657 C642 1.257 . S
O658 Gd633 2.377 . S
O658 C643 1.240 . S
O659 Gd632 2.395 . S
O659 C643 1.240 . S
O660 Gd633 2.448 . S
O660 C644 1.249 . S
O661 Gd633 2.506 . S
O661 C644 1.252 . S
O662 Gd633 2.435 . S
O662 C651 1.256 . S
O663 Gd632 2.327 . S
O663 Gd633 2.717 . S
O663 C651 1.257 . S
H664 C637 0.930 1_554 S
H665 C638 0.931 . S
H666 C640 0.931 . S
H667 C641 0.931 . S
H668 C646 0.930 . S
H669 C647 0.931 . S
H670 C649 0.931 . S
H671 C650 0.931 . S
Gd672 C675 2.818 . S
Gd672 O692 2.377 . S
Gd672 O694 2.448 . S
Gd672 O695 2.506 . S
Gd672 O696 2.435 . S
Gd672 O697 2.717 . S
Gd672 O699 2.395 . S
Gd672 O703 2.327 . S
Gd673 C684 2.818 . S
Gd673 O693 2.395 . S
Gd673 O697 2.327 . S
Gd673 O698 2.377 . S
Gd673 O700 2.448 . S
Gd673 O701 2.506 . S
Gd673 O702 2.435 . S
Gd673 O703 2.717 . S
C674 O692 1.240 . S
C674 O693 1.240 . S
C675 Gd672 2.818 . S
C675 C676 1.510 . S
C675 O694 1.249 . S
C675 O695 1.252 . S
C676 C675 1.510 . S
C676 C677 1.404 . S
C676 C678 1.352 . S
C677 C676 1.404 . S
C677 C681 1.389 . S
C677 H704 0.930 . S
C678 C676 1.352 . S
C678 C680 1.374 . S
C678 H705 0.931 . S
C679 C680 1.359 . S
C679 C681 1.364 . S
C680 C678 1.374 . S
C680 C679 1.359 . S
C680 H706 0.931 . S
C681 C677 1.389 . S
C681 C679 1.364 . S
C681 H707 0.931 . S
C682 O696 1.256 . S
C682 O697 1.257 . S
C683 O698 1.240 . S
C683 O699 1.240 . S
C684 Gd673 2.818 . S
C684 C685 1.510 . S
C684 O700 1.249 . S
C684 O701 1.252 . S
C685 C684 1.510 . S
C685 C686 1.404 . S
C685 C687 1.352 . S
C686 C685 1.404 . S
C686 C690 1.389 . S
C686 H708 0.930 . S
C687 C685 1.352 . S
C687 C689 1.374 . S
C687 H709 0.931 . S
C688 C689 1.359 . S
C688 C690 1.364 . S
C689 C687 1.374 . S
C689 C688 1.359 . S
C689 H710 0.931 . S
C690 C686 1.389 . S
C690 C688 1.364 . S
C690 H711 0.931 . S
C691 O702 1.256 . S
C691 O703 1.257 . S
O692 Gd672 2.377 . S
O692 C674 1.240 . S
O693 Gd673 2.395 . S
O693 C674 1.240 . S
O694 Gd672 2.448 . S
O694 C675 1.249 . S
O695 Gd672 2.506 . S
O695 C675 1.252 . S
O696 Gd672 2.435 . S
O696 C682 1.256 . S
O697 Gd672 2.717 . S
O697 Gd673 2.327 . S
O697 C682 1.257 . S
O698 Gd673 2.377 . S
O698 C683 1.240 . S
O699 Gd672 2.395 . S
O699 C683 1.240 . S
O700 Gd673 2.448 . S
O700 C684 1.249 . S
O701 Gd673 2.506 . S
O701 C684 1.252 . S
O702 Gd673 2.435 . S
O702 C691 1.256 . S
O703 Gd672 2.327 . S
O703 Gd673 2.717 . S
O703 C691 1.257 . S
H704 C677 0.930 . S
H705 C678 0.931 . S
H706 C680 0.931 . S
H707 C681 0.931 . S
H708 C686 0.930 . S
H709 C687 0.931 . S
H710 C689 0.931 . S
H711 C690 0.931 . S
Gd712 C715 2.818 . S
Gd712 O732 2.377 . S
Gd712 O734 2.448 . S
Gd712 O735 2.506 . S
Gd712 O736 2.435 . S
Gd712 O737 2.717 . S
Gd712 O739 2.395 . S
Gd712 O743 2.327 . S
Gd713 C724 2.818 . S
Gd713 O733 2.395 . S
Gd713 O737 2.327 . S
Gd713 O738 2.377 . S
Gd713 O740 2.448 . S
Gd713 O741 2.506 . S
Gd713 O742 2.435 . S
Gd713 O743 2.717 . S
C714 O732 1.240 . S
C714 O733 1.240 . S
C715 Gd712 2.818 . S
C715 C716 1.510 . S
C715 O734 1.249 . S
C715 O735 1.252 . S
C716 C715 1.510 . S
C716 C717 1.404 . S
C716 C718 1.352 . S
C717 C716 1.404 . S
C717 C721 1.389 . S
C717 H744 0.930 . S
C718 C716 1.352 . S
C718 C720 1.374 1_455 S
C718 H745 0.931 . S
C719 C720 1.359 . S
C719 C721 1.364 1_655 S
C720 C718 1.374 1_655 S
C720 C719 1.359 . S
C720 H746 0.931 . S
C721 C717 1.389 . S
C721 C719 1.364 1_455 S
C721 H747 0.931 . S
C722 O736 1.256 . S
C722 O737 1.257 . S
C723 O738 1.240 . S
C723 O739 1.240 . S
C724 Gd713 2.818 . S
C724 C725 1.510 . S
C724 O740 1.249 . S
C724 O741 1.252 . S
C725 C724 1.510 . S
C725 C726 1.404 . S
C725 C727 1.352 . S
C726 C725 1.404 . S
C726 C730 1.389 . S
C726 H748 0.930 . S
C727 C725 1.352 . S
C727 C729 1.374 . S
C727 H749 0.931 . S
C728 C729 1.359 . S
C728 C730 1.364 . S
C729 C727 1.374 . S
C729 C728 1.359 . S
C729 H750 0.931 . S
C730 C726 1.389 . S
C730 C728 1.364 . S
C730 H751 0.931 . S
C731 O742 1.256 . S
C731 O743 1.257 . S
O732 Gd712 2.377 . S
O732 C714 1.240 . S
O733 Gd713 2.395 . S
O733 C714 1.240 . S
O734 Gd712 2.448 . S
O734 C715 1.249 . S
O735 Gd712 2.506 . S
O735 C715 1.252 . S
O736 Gd712 2.435 . S
O736 C722 1.256 . S
O737 Gd712 2.717 . S
O737 Gd713 2.327 . S
O737 C722 1.257 . S
O738 Gd713 2.377 . S
O738 C723 1.240 . S
O739 Gd712 2.395 . S
O739 C723 1.240 . S
O740 Gd713 2.448 . S
O740 C724 1.249 . S
O741 Gd713 2.506 . S
O741 C724 1.252 . S
O742 Gd713 2.435 . S
O742 C731 1.256 . S
O743 Gd712 2.327 . S
O743 Gd713 2.717 . S
O743 C731 1.257 . S
H744 C717 0.930 . S
H745 C718 0.931 . S
H746 C720 0.931 . S
H747 C721 0.931 . S
H748 C726 0.930 . S
H749 C727 0.931 . S
H750 C729 0.931 . S
H751 C730 0.931 . S
Gd752 C755 2.818 . S
Gd752 O772 2.377 . S
Gd752 O774 2.448 . S
Gd752 O775 2.506 . S
Gd752 O776 2.435 . S
Gd752 O777 2.717 . S
Gd752 O779 2.395 . S
Gd752 O783 2.327 . S
Gd753 C764 2.818 . S
Gd753 O773 2.395 . S
Gd753 O777 2.327 . S
Gd753 O778 2.377 . S
Gd753 O780 2.448 . S
Gd753 O781 2.506 . S
Gd753 O782 2.435 . S
Gd753 O783 2.717 . S
C754 O772 1.240 . S
C754 O773 1.240 . S
C755 Gd752 2.818 . S
C755 C756 1.510 . S
C755 O774 1.249 . S
C755 O775 1.252 . S
C756 C755 1.510 . S
C756 C757 1.404 . S
C756 C758 1.352 . S
C757 C756 1.404 . S
C757 C761 1.389 . S
C757 H784 0.930 . S
C758 C756 1.352 . S
C758 C760 1.374 . S
C758 H785 0.931 . S
C759 C760 1.359 . S
C759 C761 1.364 . S
C760 C758 1.374 . S
C760 C759 1.359 . S
C760 H786 0.931 . S
C761 C757 1.389 . S
C761 C759 1.364 . S
C761 H787 0.931 . S
C762 O776 1.256 . S
C762 O777 1.257 . S
C763 O778 1.240 . S
C763 O779 1.240 . S
C764 Gd753 2.818 . S
C764 C765 1.510 . S
C764 O780 1.249 . S
C764 O781 1.252 . S
C765 C764 1.510 . S
C765 C766 1.404 . S
C765 C767 1.352 . S
C766 C765 1.404 . S
C766 C770 1.389 . S
C766 H788 0.930 . S
C767 C765 1.352 . S
C767 C769 1.374 . S
C767 H789 0.931 . S
C768 C769 1.359 . S
C768 C770 1.364 . S
C769 C767 1.374 . S
C769 C768 1.359 . S
C769 H790 0.931 . S
C770 C766 1.389 . S
C770 C768 1.364 . S
C770 H791 0.931 . S
C771 O782 1.256 . S
C771 O783 1.257 . S
O772 Gd752 2.377 . S
O772 C754 1.240 . S
O773 Gd753 2.395 . S
O773 C754 1.240 . S
O774 Gd752 2.448 . S
O774 C755 1.249 . S
O775 Gd752 2.506 . S
O775 C755 1.252 . S
O776 Gd752 2.435 . S
O776 C762 1.256 . S
O777 Gd752 2.717 . S
O777 Gd753 2.327 . S
O777 C762 1.257 . S
O778 Gd753 2.377 . S
O778 C763 1.240 . S
O779 Gd752 2.395 . S
O779 C763 1.240 . S
O780 Gd753 2.448 . S
O780 C764 1.249 . S
O781 Gd753 2.506 . S
O781 C764 1.252 . S
O782 Gd753 2.435 . S
O782 C771 1.256 . S
O783 Gd752 2.327 . S
O783 Gd753 2.717 . S
O783 C771 1.257 . S
H784 C757 0.930 . S
H785 C758 0.931 . S
H786 C760 0.931 . S
H787 C761 0.931 . S
H788 C766 0.930 . S
H789 C767 0.931 . S
H790 C769 0.931 . S
H791 C770 0.931 . S
Gd792 C795 2.818 . S
Gd792 O812 2.377 . S
Gd792 O814 2.448 . S
Gd792 O815 2.506 . S
Gd792 O816 2.435 . S
Gd792 O817 2.717 . S
Gd792 O819 2.395 . S
Gd792 O823 2.327 . S
Gd793 C804 2.818 . S
Gd793 O813 2.395 . S
Gd793 O817 2.327 . S
Gd793 O818 2.377 . S
Gd793 O820 2.448 . S
Gd793 O821 2.506 . S
Gd793 O822 2.435 . S
Gd793 O823 2.717 . S
C794 O812 1.240 . S
C794 O813 1.240 . S
C795 Gd792 2.818 . S
C795 C796 1.510 . S
C795 O814 1.249 . S
C795 O815 1.252 . S
C796 C795 1.510 . S
C796 C797 1.404 . S
C796 C798 1.352 . S
C797 C796 1.404 . S
C797 C801 1.389 . S
C797 H824 0.930 . S
C798 C796 1.352 . S
C798 C800 1.374 . S
C798 H825 0.931 . S
C799 C800 1.359 . S
C799 C801 1.364 . S
C800 C798 1.374 . S
C800 C799 1.359 . S
C800 H826 0.931 . S
C801 C797 1.389 . S
C801 C799 1.364 . S
C801 H827 0.931 . S
C802 O816 1.256 . S
C802 O817 1.257 . S
C803 O818 1.240 . S
C803 O819 1.240 . S
C804 Gd793 2.818 . S
C804 C805 1.510 . S
C804 O820 1.249 . S
C804 O821 1.252 . S
C805 C804 1.510 . S
C805 C806 1.404 . S
C805 C807 1.352 . S
C806 C805 1.404 . S
C806 C810 1.389 . S
C806 H828 0.930 . S
C807 C805 1.352 . S
C807 C809 1.374 . S
C807 H829 0.931 . S
C808 C809 1.359 . S
C808 C810 1.364 . S
C809 C807 1.374 . S
C809 C808 1.359 . S
C809 H830 0.931 . S
C810 C806 1.389 . S
C810 C808 1.364 . S
C810 H831 0.931 . S
C811 O822 1.256 . S
C811 O823 1.257 . S
O812 Gd792 2.377 . S
O812 C794 1.240 . S
O813 Gd793 2.395 . S
O813 C794 1.240 . S
O814 Gd792 2.448 . S
O814 C795 1.249 . S
O815 Gd792 2.506 . S
O815 C795 1.252 . S
O816 Gd792 2.435 . S
O816 C802 1.256 . S
O817 Gd792 2.717 . S
O817 Gd793 2.327 . S
O817 C802 1.257 . S
O818 Gd793 2.377 . S
O818 C803 1.240 . S
O819 Gd792 2.395 . S
O819 C803 1.240 . S
O820 Gd793 2.448 . S
O820 C804 1.249 . S
O821 Gd793 2.506 . S
O821 C804 1.252 . S
O822 Gd793 2.435 . S
O822 C811 1.256 . S
O823 Gd792 2.327 . S
O823 Gd793 2.717 . S
O823 C811 1.257 . S
H824 C797 0.930 . S
H825 C798 0.931 . S
H826 C800 0.931 . S
H827 C801 0.931 . S
H828 C806 0.930 . S
H829 C807 0.931 . S
H830 C809 0.931 . S
H831 C810 0.931 . S
Gd832 C835 2.818 . S
Gd832 O852 2.377 . S
Gd832 O854 2.448 . S
Gd832 O855 2.506 . S
Gd832 O856 2.435 . S
Gd832 O857 2.717 . S
Gd832 O859 2.395 . S
Gd832 O863 2.327 . S
Gd833 C844 2.818 . S
Gd833 O853 2.395 . S
Gd833 O857 2.327 . S
Gd833 O858 2.377 . S
Gd833 O860 2.448 . S
Gd833 O861 2.506 . S
Gd833 O862 2.435 . S
Gd833 O863 2.717 . S
C834 O852 1.240 . S
C834 O853 1.240 . S
C835 Gd832 2.818 . S
C835 C836 1.510 . S
C835 O854 1.249 . S
C835 O855 1.252 . S
C836 C835 1.510 . S
C836 C837 1.404 . S
C836 C838 1.352 . S
C837 C836 1.404 . S
C837 C841 1.389 . S
C837 H864 0.930 . S
C838 C836 1.352 . S
C838 C840 1.374 . S
C838 H865 0.931 . S
C839 C840 1.359 . S
C839 C841 1.364 . S
C840 C838 1.374 . S
C840 C839 1.359 . S
C840 H866 0.931 . S
C841 C837 1.389 . S
C841 C839 1.364 . S
C841 H867 0.931 . S
C842 O856 1.256 . S
C842 O857 1.257 . S
C843 O858 1.240 . S
C843 O859 1.240 . S
C844 Gd833 2.818 . S
C844 C845 1.510 . S
C844 O860 1.249 . S
C844 O861 1.252 . S
C845 C844 1.510 . S
C845 C846 1.404 . S
C845 C847 1.352 . S
C846 C845 1.404 . S
C846 C850 1.389 . S
C846 H868 0.930 . S
C847 C845 1.352 . S
C847 C849 1.374 . S
C847 H869 0.931 . S
C848 C849 1.359 . S
C848 C850 1.364 . S
C849 C847 1.374 . S
C849 C848 1.359 . S
C849 H870 0.931 . S
C850 C846 1.389 . S
C850 C848 1.364 . S
C850 H871 0.931 . S
C851 O862 1.256 . S
C851 O863 1.257 . S
O852 Gd832 2.377 . S
O852 C834 1.240 . S
O853 Gd833 2.395 . S
O853 C834 1.240 . S
O854 Gd832 2.448 . S
O854 C835 1.249 . S
O855 Gd832 2.506 . S
O855 C835 1.252 . S
O856 Gd832 2.435 . S
O856 C842 1.256 . S
O857 Gd832 2.717 . S
O857 Gd833 2.327 . S
O857 C842 1.257 . S
O858 Gd833 2.377 . S
O858 C843 1.240 . S
O859 Gd832 2.395 . S
O859 C843 1.240 . S
O860 Gd833 2.448 . S
O860 C844 1.249 . S
O861 Gd833 2.506 . S
O861 C844 1.252 . S
O862 Gd833 2.435 . S
O862 C851 1.256 . S
O863 Gd832 2.327 . S
O863 Gd833 2.717 . S
O863 C851 1.257 . S
H864 C837 0.930 . S
H865 C838 0.931 . S
H866 C840 0.931 . S
H867 C841 0.931 . S
H868 C846 0.930 . S
H869 C847 0.931 . S
H870 C849 0.931 . S
H871 C850 0.931 . S
Gd872 C875 2.818 . S
Gd872 O892 2.377 . S
Gd872 O894 2.448 . S
Gd872 O895 2.506 . S
Gd872 O896 2.435 . S
Gd872 O897 2.717 . S
Gd872 O899 2.395 . S
Gd872 O903 2.327 . S
Gd873 C884 2.818 . S
Gd873 O893 2.395 . S
Gd873 O897 2.327 . S
Gd873 O898 2.377 . S
Gd873 O900 2.448 . S
Gd873 O901 2.506 . S
Gd873 O902 2.435 . S
Gd873 O903 2.717 . S
C874 O892 1.240 . S
C874 O893 1.240 . S
C875 Gd872 2.818 . S
C875 C876 1.510 . S
C875 O894 1.249 . S
C875 O895 1.252 . S
C876 C875 1.510 . S
C876 C877 1.404 . S
C876 C878 1.352 . S
C877 C876 1.404 . S
C877 C881 1.389 . S
C877 H904 0.930 . S
C878 C876 1.352 . S
C878 C880 1.374 . S
C878 H905 0.931 . S
C879 C880 1.359 . S
C879 C881 1.364 . S
C880 C878 1.374 . S
C880 C879 1.359 . S
C880 H906 0.931 . S
C881 C877 1.389 . S
C881 C879 1.364 . S
C881 H907 0.931 . S
C882 O896 1.256 . S
C882 O897 1.257 . S
C883 O898 1.240 . S
C883 O899 1.240 . S
C884 Gd873 2.818 . S
C884 C885 1.510 . S
C884 O900 1.249 . S
C884 O901 1.252 . S
C885 C884 1.510 . S
C885 C886 1.404 . S
C885 C887 1.352 . S
C886 C885 1.404 . S
C886 C890 1.389 . S
C886 H908 0.930 . S
C887 C885 1.352 . S
C887 C889 1.374 . S
C887 H909 0.931 . S
C888 C889 1.359 . S
C888 C890 1.364 . S
C889 C887 1.374 . S
C889 C888 1.359 . S
C889 H910 0.931 . S
C890 C886 1.389 . S
C890 C888 1.364 . S
C890 H911 0.931 . S
C891 O902 1.256 . S
C891 O903 1.257 . S
O892 Gd872 2.377 . S
O892 C874 1.240 . S
O893 Gd873 2.395 . S
O893 C874 1.240 . S
O894 Gd872 2.448 . S
O894 C875 1.249 . S
O895 Gd872 2.506 . S
O895 C875 1.252 . S
O896 Gd872 2.435 . S
O896 C882 1.256 . S
O897 Gd872 2.717 . S
O897 Gd873 2.327 . S
O897 C882 1.257 . S
O898 Gd873 2.377 . S
O898 C883 1.240 . S
O899 Gd872 2.395 . S
O899 C883 1.240 . S
O900 Gd873 2.448 . S
O900 C884 1.249 . S
O901 Gd873 2.506 . S
O901 C884 1.252 . S
O902 Gd873 2.435 . S
O902 C891 1.256 . S
O903 Gd872 2.327 . S
O903 Gd873 2.717 . S
O903 C891 1.257 . S
H904 C877 0.930 . S
H905 C878 0.931 . S
H906 C880 0.931 . S
H907 C881 0.931 . S
H908 C886 0.930 . S
H909 C887 0.931 . S
H910 C889 0.931 . S
H911 C890 0.931 . S
Gd912 C915 2.818 . S
Gd912 O932 2.377 . S
Gd912 O934 2.448 . S
Gd912 O935 2.506 1_556 S
Gd912 O936 2.435 . S
Gd912 O937 2.717 . S
Gd912 O939 2.395 1_556 S
Gd912 O943 2.327 1_556 S
Gd913 C924 2.818 1_455 S
Gd913 O933 2.395 . S
Gd913 O937 2.327 1_554 S
Gd913 O938 2.377 . S
Gd913 O940 2.448 1_455 S
Gd913 O941 2.506 1_455 S
Gd913 O942 2.435 . S
Gd913 O943 2.717 . S
C914 O932 1.273 . S
C914 O933 1.215 1_556 S
C915 Gd912 2.818 . S
C915 C916 1.510 . S
C915 O934 1.249 . S
C915 O935 1.252 1_556 S
C916 C915 1.510 . S
C916 C917 1.404 . S
C916 C918 1.352 1_556 S
C917 C916 1.404 . S
C917 C921 1.389 . S
C917 H944 0.930 . S
C918 C916 1.352 1_554 S
C918 C920 1.368 1_554 S
C918 H945 0.931 . S
C919 C920 1.405 . S
C919 C921 1.364 . S
C920 C918 1.368 1_556 S
C920 C919 1.405 . S
C920 H946 0.893 1_556 S
C921 C917 1.389 . S
C921 C919 1.364 . S
C921 H947 0.931 . S
C922 O936 1.256 . S
C922 O937 1.257 . S
C923 O938 1.240 . S
C923 O939 1.240 . S
C924 Gd913 2.818 1_655 S
C924 C925 1.510 . S
C924 O940 1.249 . S
C924 O941 1.252 . S
C925 C924 1.510 . S
C925 C926 1.404 . S
C925 C927 1.352 . S
C926 C925 1.404 . S
C926 C930 1.389 . S
C926 H948 0.930 . S
C927 C925 1.352 . S
C927 C929 1.374 . S
C927 H949 0.927 . S
C928 C929 1.359 . S
C928 C930 1.364 . S
C929 C927 1.374 . S
C929 C928 1.359 . S
C929 H950 0.931 . S
C930 C926 1.389 . S
C930 C928 1.364 . S
C930 H951 0.931 . S
C931 O942 1.256 . S
C931 O943 1.257 . S
O932 Gd912 2.377 . S
O932 C914 1.273 . S
O933 Gd913 2.395 . S
O933 C914 1.215 1_554 S
O934 Gd912 2.448 . S
O934 C915 1.249 . S
O935 Gd912 2.506 1_554 S
O935 C915 1.252 1_554 S
O936 Gd912 2.435 . S
O936 C922 1.256 . S
O937 Gd912 2.717 . S
O937 Gd913 2.327 1_556 S
O937 C922 1.257 . S
O938 Gd913 2.377 . S
O938 C923 1.240 . S
O939 Gd912 2.395 1_554 S
O939 C923 1.240 . S
O940 Gd913 2.448 1_655 S
O940 C924 1.249 . S
O941 Gd913 2.506 1_655 S
O941 C924 1.252 . S
O942 Gd913 2.435 . S
O942 C931 1.256 . S
O943 Gd912 2.327 1_554 S
O943 Gd913 2.717 . S
O943 C931 1.257 . S
H944 C917 0.930 . S
H945 C918 0.931 . S
H946 C920 0.893 1_554 S
H947 C921 0.931 . S
H948 C926 0.930 . S
H949 C927 0.927 . S
H950 C929 0.931 . S
H951 C930 0.931 . S
H952 C960 0.929 1_655 S
H953 C962 0.938 . S
H954 C964 0.930 . S
H955 C967 0.929 . S
H956 C970 0.930 . S
H957 C972 0.960 1_654 S
H958 C972 0.960 1_655 S
H959 C972 0.960 . S
C960 H952 0.929 1_455 S
C960 C961 1.377 . S
C960 C962 1.384 . S
C961 C960 1.377 . S
C961 C967 1.390 . S
C962 H953 0.938 . S
C962 C960 1.384 . S
C962 C963 1.372 . S
C963 C962 1.372 . S
C963 C964 1.400 . S
C963 C968 1.490 . S
C964 H954 0.930 . S
C964 C963 1.400 . S
C964 C967 1.386 . S
H965 C981 0.930 . S
H966 C982 0.931 1_554 S
C967 H955 0.929 . S
C967 C961 1.390 . S
C967 C964 1.386 . S
C968 C963 1.490 . S
C968 C970 1.395 . S
C968 C971 1.403 . S
H969 C975 0.930 . S
C970 H956 0.930 . S
C970 C968 1.395 . S
C970 C973 1.403 . S
C971 C968 1.403 . S
C971 C972 1.524 . S
C971 C975 1.400 . S
C972 H957 0.960 1_456 S
C972 H958 0.960 1_455 S
C972 H959 0.960 . S
C972 C971 1.524 . S
C973 C970 1.403 . S
C973 C974 1.392 . S
C973 C977 1.495 . S
C974 C973 1.392 . S
C974 C975 1.385 . S
C974 C976 1.478 . S
C975 H969 0.930 . S
C975 C971 1.400 . S
C975 C974 1.385 . S
C976 C974 1.478 . S
C976 C978 1.381 . S
C976 C982 1.383 . S
C977 C973 1.495 . S
C977 H983 0.959 . S
C977 H984 0.961 . S
C977 H985 0.960 . S
C978 C976 1.381 . S
C978 C979 1.394 . S
C978 H986 0.930 . S
C979 C978 1.394 . S
C979 C980 1.383 . S
C979 H987 0.929 . S
C980 C979 1.383 . S
C980 C981 1.377 1_556 S
C981 H965 0.930 . S
C981 C980 1.377 1_554 S
C981 C982 1.379 1_554 S
C982 H966 0.931 1_556 S
C982 C976 1.383 . S
C982 C981 1.379 1_556 S
H983 C977 0.959 . S
H984 C977 0.961 . S
H985 C977 0.960 . S
H986 C978 0.930 . S
H987 C979 0.929 . S
H988 C996 0.929 . S
H989 C998 0.930 . S
H990 C1000 0.930 . S
H991 C1003 0.929 . S
H992 C1006 0.930 . S
H993 C1008 0.960 . S
H994 C1008 0.960 . S
H995 C1008 0.960 . S
C996 H988 0.929 . S
C996 C997 1.377 . S
C996 C998 1.384 . S
C997 C996 1.377 . S
C997 C1003 1.390 . S
C998 H989 0.930 . S
C998 C996 1.384 . S
C998 C999 1.372 . S
C999 C998 1.372 . S
C999 C1000 1.400 . S
C999 C1004 1.490 . S
C1000 H990 0.930 . S
C1000 C999 1.400 . S
C1000 C1003 1.386 . S
H1001 C1017 0.930 . S
H1002 C1018 0.931 . S
C1003 H991 0.929 . S
C1003 C997 1.390 . S
C1003 C1000 1.386 . S
C1004 C999 1.490 . S
C1004 C1006 1.395 . S
C1004 C1007 1.403 . S
H1005 C1011 0.930 . S
C1006 H992 0.930 . S
C1006 C1004 1.395 . S
C1006 C1009 1.403 . S
C1007 C1004 1.403 . S
C1007 C1008 1.524 . S
C1007 C1011 1.400 . S
C1008 H993 0.960 . S
C1008 H994 0.960 . S
C1008 H995 0.960 . S
C1008 C1007 1.524 . S
C1009 C1006 1.403 . S
C1009 C1010 1.392 . S
C1009 C1013 1.495 . S
C1010 C1009 1.392 . S
C1010 C1011 1.385 . S
C1010 C1012 1.478 . S
C1011 H1005 0.930 . S
C1011 C1007 1.400 . S
C1011 C1010 1.385 . S
C1012 C1010 1.478 . S
C1012 C1014 1.381 . S
C1012 C1018 1.383 . S
C1013 C1009 1.495 . S
C1013 H1019 0.959 . S
C1013 H1020 0.961 . S
C1013 H1021 0.960 . S
C1014 C1012 1.381 . S
C1014 C1015 1.394 . S
C1014 H1022 0.930 . S
C1015 C1014 1.394 . S
C1015 C1016 1.383 . S
C1015 H1023 0.929 . S
C1016 C1015 1.383 . S
C1016 C1017 1.377 . S
C1017 H1001 0.930 . S
C1017 C1016 1.377 . S
C1017 C1018 1.379 . S
C1018 H1002 0.931 . S
C1018 C1012 1.383 . S
C1018 C1017 1.379 . S
H1019 C1013 0.959 . S
H1020 C1013 0.961 . S
H1021 C1013 0.960 . S
H1022 C1014 0.930 . S
H1023 C1015 0.929 . S
H1024 C1032 0.929 . S
H1025 C1034 0.930 . S
H1026 C1036 0.930 . S
H1027 C1039 0.929 . S
H1028 C1042 0.930 . S
H1029 C1044 0.960 . S
H1030 C1044 0.960 . S
H1031 C1044 0.960 . S
C1032 H1024 0.929 . S
C1032 C1033 1.377 . S
C1032 C1034 1.384 . S
C1033 C1032 1.377 . S
C1033 C1039 1.390 . S
C1034 H1025 0.930 . S
C1034 C1032 1.384 . S
C1034 C1035 1.372 . S
C1035 C1034 1.372 . S
C1035 C1036 1.400 . S
C1035 C1040 1.490 . S
C1036 H1026 0.930 . S
C1036 C1035 1.400 . S
C1036 C1039 1.386 . S
H1037 C1053 0.930 . S
H1038 C1054 0.931 . S
C1039 H1027 0.929 . S
C1039 C1033 1.390 . S
C1039 C1036 1.386 . S
C1040 C1035 1.490 . S
C1040 C1042 1.395 . S
C1040 C1043 1.403 . S
H1041 C1047 0.930 . S
C1042 H1028 0.930 . S
C1042 C1040 1.395 . S
C1042 C1045 1.403 . S
C1043 C1040 1.403 . S
C1043 C1044 1.524 . S
C1043 C1047 1.400 . S
C1044 H1029 0.960 . S
C1044 H1030 0.960 . S
C1044 H1031 0.960 . S
C1044 C1043 1.524 . S
C1045 C1042 1.403 . S
C1045 C1046 1.392 . S
C1045 C1049 1.495 . S
C1046 C1045 1.392 . S
C1046 C1047 1.385 . S
C1046 C1048 1.478 . S
C1047 H1041 0.930 . S
C1047 C1043 1.400 . S
C1047 C1046 1.385 . S
C1048 C1046 1.478 . S
C1048 C1050 1.381 . S
C1048 C1054 1.383 . S
C1049 C1045 1.495 . S
C1049 H1055 0.959 . S
C1049 H1056 0.961 . S
C1049 H1057 0.960 . S
C1050 C1048 1.381 . S
C1050 C1051 1.394 . S
C1050 H1058 0.930 . S
C1051 C1050 1.394 . S
C1051 C1052 1.383 . S
C1051 H1059 0.929 . S
C1052 C1051 1.383 . S
C1052 C1053 1.377 . S
C1053 H1037 0.930 . S
C1053 C1052 1.377 . S
C1053 C1054 1.379 . S
C1054 H1038 0.931 . S
C1054 C1048 1.383 . S
C1054 C1053 1.379 . S
H1055 C1049 0.959 . S
H1056 C1049 0.961 . S
H1057 C1049 0.960 . S
H1058 C1050 0.930 . S
H1059 C1051 0.929 . S
H1060 C1068 0.929 . S
H1061 C1070 0.930 . S
H1062 C1072 0.930 . S
H1063 C1075 0.929 . S
H1064 C1078 0.930 . S
H1065 C1080 0.960 . S
H1066 C1080 0.960 . S
H1067 C1080 0.960 . S
C1068 H1060 0.929 . S
C1068 C1069 1.377 . S
C1068 C1070 1.384 . S
C1069 C1068 1.377 . S
C1069 C1075 1.390 . S
C1070 H1061 0.930 . S
C1070 C1068 1.384 . S
C1070 C1071 1.372 . S
C1071 C1070 1.372 . S
C1071 C1072 1.400 . S
C1071 C1076 1.490 . S
C1072 H1062 0.930 . S
C1072 C1071 1.400 . S
C1072 C1075 1.386 . S
H1073 C1089 0.930 . S
H1074 C1090 0.931 . S
C1075 H1063 0.929 . S
C1075 C1069 1.390 . S
C1075 C1072 1.386 . S
C1076 C1071 1.490 . S
C1076 C1078 1.395 . S
C1076 C1079 1.403 . S
H1077 C1083 0.930 . S
C1078 H1064 0.930 . S
C1078 C1076 1.395 . S
C1078 C1081 1.403 . S
C1079 C1076 1.403 . S
C1079 C1080 1.524 . S
C1079 C1083 1.400 . S
C1080 H1065 0.960 . S
C1080 H1066 0.960 . S
C1080 H1067 0.960 . S
C1080 C1079 1.524 . S
C1081 C1078 1.403 . S
C1081 C1082 1.392 . S
C1081 C1085 1.495 . S
C1082 C1081 1.392 . S
C1082 C1083 1.385 . S
C1082 C1084 1.478 . S
C1083 H1077 0.930 . S
C1083 C1079 1.400 . S
C1083 C1082 1.385 . S
C1084 C1082 1.478 . S
C1084 C1086 1.381 . S
C1084 C1090 1.383 . S
C1085 C1081 1.495 . S
C1085 H1091 0.959 . S
C1085 H1092 0.961 . S
C1085 H1093 0.960 . S
C1086 C1084 1.381 . S
C1086 C1087 1.394 . S
C1086 H1094 0.930 . S
C1087 C1086 1.394 . S
C1087 C1088 1.383 . S
C1087 H1095 0.929 . S
C1088 C1087 1.383 . S
C1088 C1089 1.377 . S
C1089 H1073 0.930 . S
C1089 C1088 1.377 . S
C1089 C1090 1.379 . S
C1090 H1074 0.931 . S
C1090 C1084 1.383 . S
C1090 C1089 1.379 . S
H1091 C1085 0.959 . S
H1092 C1085 0.961 . S
H1093 C1085 0.960 . S
H1094 C1086 0.930 . S
H1095 C1087 0.929 . S
H1096 C1104 0.929 . S
H1097 C1106 0.930 . S
H1098 C1108 0.930 . S
H1099 C1111 0.929 . S
H1100 C1114 0.930 . S
H1101 C1116 0.960 . S
H1102 C1116 0.960 . S
H1103 C1116 0.960 . S
C1104 H1096 0.929 . S
C1104 C1105 1.377 1_655 S
C1104 C1106 1.384 . S
C1105 C1104 1.377 1_455 S
C1105 C1111 1.390 . S
C1106 H1097 0.930 . S
C1106 C1104 1.384 . S
C1106 C1107 1.372 1_655 S
C1107 C1106 1.372 1_455 S
C1107 C1108 1.400 . S
C1107 C1112 1.490 . S
C1108 H1098 0.930 . S
C1108 C1107 1.400 . S
C1108 C1111 1.386 . S
H1109 C1125 0.930 . S
H1110 C1126 0.931 . S
C1111 H1099 0.929 . S
C1111 C1105 1.390 . S
C1111 C1108 1.386 . S
C1112 C1107 1.490 . S
C1112 C1114 1.395 . S
C1112 C1115 1.403 . S
H1113 C1119 0.930 . S
C1114 H1100 0.930 . S
C1114 C1112 1.395 . S
C1114 C1117 1.403 . S
C1115 C1112 1.403 . S
C1115 C1116 1.524 . S
C1115 C1119 1.400 . S
C1116 H1101 0.960 . S
C1116 H1102 0.960 . S
C1116 H1103 0.960 . S
C1116 C1115 1.524 . S
C1117 C1114 1.403 . S
C1117 C1118 1.392 . S
C1117 C1121 1.495 . S
C1118 C1117 1.392 . S
C1118 C1119 1.385 . S
C1118 C1120 1.478 . S
C1119 H1113 0.930 . S
C1119 C1115 1.400 . S
C1119 C1118 1.385 . S
C1120 C1118 1.478 . S
C1120 C1122 1.381 . S
C1120 C1126 1.383 . S
C1121 C1117 1.495 . S
C1121 H1127 0.959 . S
C1121 H1128 0.961 . S
C1121 H1129 0.960 . S
C1122 C1120 1.381 . S
C1122 C1123 1.394 . S
C1122 H1130 0.930 . S
C1123 C1122 1.394 . S
C1123 C1124 1.383 . S
C1123 H1131 0.929 . S
C1124 C1123 1.383 . S
C1124 C1125 1.377 . S
C1125 H1109 0.930 . S
C1125 C1124 1.377 . S
C1125 C1126 1.379 . S
C1126 H1110 0.931 . S
C1126 C1120 1.383 . S
C1126 C1125 1.379 . S
H1127 C1121 0.959 . S
H1128 C1121 0.961 . S
H1129 C1121 0.960 . S
H1130 C1122 0.930 . S
H1131 C1123 0.929 . S
H1132 C1140 0.929 . S
H1133 C1142 0.930 . S
H1134 C1144 0.930 . S
H1135 C1147 0.929 . S
H1136 C1150 0.930 . S
H1137 C1152 0.960 . S
H1138 C1152 0.960 . S
H1139 C1152 0.960 . S
C1140 H1132 0.929 . S
C1140 C1141 1.377 . S
C1140 C1142 1.384 . S
C1141 C1140 1.377 . S
C1141 C1147 1.390 . S
C1142 H1133 0.930 . S
C1142 C1140 1.384 . S
C1142 C1143 1.372 . S
C1143 C1142 1.372 . S
C1143 C1144 1.400 . S
C1143 C1148 1.490 . S
C1144 H1134 0.930 . S
C1144 C1143 1.400 . S
C1144 C1147 1.386 . S
H1145 C1161 0.930 . S
H1146 C1162 0.931 . S
C1147 H1135 0.929 . S
C1147 C1141 1.390 . S
C1147 C1144 1.386 . S
C1148 C1143 1.490 . S
C1148 C1150 1.395 . S
C1148 C1151 1.403 . S
H1149 C1155 0.930 . S
C1150 H1136 0.930 . S
C1150 C1148 1.395 . S
C1150 C1153 1.403 . S
C1151 C1148 1.403 . S
C1151 C1152 1.524 . S
C1151 C1155 1.400 . S
C1152 H1137 0.960 . S
C1152 H1138 0.960 . S
C1152 H1139 0.960 . S
C1152 C1151 1.524 . S
C1153 C1150 1.403 . S
C1153 C1154 1.392 . S
C1153 C1157 1.495 . S
C1154 C1153 1.392 . S
C1154 C1155 1.385 . S
C1154 C1156 1.478 . S
C1155 H1149 0.930 . S
C1155 C1151 1.400 . S
C1155 C1154 1.385 . S
C1156 C1154 1.478 . S
C1156 C1158 1.381 . S
C1156 C1162 1.383 . S
C1157 C1153 1.495 . S
C1157 H1163 0.959 . S
C1157 H1164 0.961 . S
C1157 H1165 0.960 . S
C1158 C1156 1.381 . S
C1158 C1159 1.394 . S
C1158 H1166 0.930 . S
C1159 C1158 1.394 . S
C1159 C1160 1.383 . S
C1159 H1167 0.929 . S
C1160 C1159 1.383 . S
C1160 C1161 1.377 . S
C1161 H1145 0.930 . S
C1161 C1160 1.377 . S
C1161 C1162 1.379 . S
C1162 H1146 0.931 . S
C1162 C1156 1.383 . S
C1162 C1161 1.379 . S
H1163 C1157 0.959 . S
H1164 C1157 0.961 . S
H1165 C1157 0.960 . S
H1166 C1158 0.930 . S
H1167 C1159 0.929 . S
H1168 C1176 0.929 . S
H1169 C1178 0.930 . S
H1170 C1180 0.930 . S
H1171 C1183 0.929 . S
H1172 C1186 0.930 . S
H1173 C1188 0.960 . S
H1174 C1188 0.960 . S
H1175 C1188 0.960 . S
C1176 H1168 0.929 . S
C1176 C1177 1.377 . S
C1176 C1178 1.384 . S
C1177 C1176 1.377 . S
C1177 C1183 1.390 . S
C1178 H1169 0.930 . S
C1178 C1176 1.384 . S
C1178 C1179 1.372 . S
C1179 C1178 1.372 . S
C1179 C1180 1.400 . S
C1179 C1184 1.490 . S
C1180 H1170 0.930 . S
C1180 C1179 1.400 . S
C1180 C1183 1.386 . S
H1181 C1197 0.930 . S
H1182 C1198 0.931 . S
C1183 H1171 0.929 . S
C1183 C1177 1.390 . S
C1183 C1180 1.386 . S
C1184 C1179 1.490 . S
C1184 C1186 1.395 . S
C1184 C1187 1.403 . S
H1185 C1191 0.930 . S
C1186 H1172 0.930 . S
C1186 C1184 1.395 . S
C1186 C1189 1.403 . S
C1187 C1184 1.403 . S
C1187 C1188 1.524 . S
C1187 C1191 1.400 . S
C1188 H1173 0.960 . S
C1188 H1174 0.960 . S
C1188 H1175 0.960 . S
C1188 C1187 1.524 . S
C1189 C1186 1.403 . S
C1189 C1190 1.392 . S
C1189 C1193 1.495 . S
C1190 C1189 1.392 . S
C1190 C1191 1.385 . S
C1190 C1192 1.478 . S
C1191 H1185 0.930 . S
C1191 C1187 1.400 . S
C1191 C1190 1.385 . S
C1192 C1190 1.478 . S
C1192 C1194 1.381 . S
C1192 C1198 1.383 . S
C1193 C1189 1.495 . S
C1193 H1199 0.959 . S
C1193 H1200 0.961 . S
C1193 H1201 0.960 . S
C1194 C1192 1.381 . S
C1194 C1195 1.394 . S
C1194 H1202 0.930 . S
C1195 C1194 1.394 . S
C1195 C1196 1.383 . S
C1195 H1203 0.929 . S
C1196 C1195 1.383 . S
C1196 C1197 1.377 . S
C1197 H1181 0.930 . S
C1197 C1196 1.377 . S
C1197 C1198 1.379 . S
C1198 H1182 0.931 . S
C1198 C1192 1.383 . S
C1198 C1197 1.379 . S
H1199 C1193 0.959 . S
H1200 C1193 0.961 . S
H1201 C1193 0.960 . S
H1202 C1194 0.930 . S
H1203 C1195 0.929 . S
H1204 C1212 0.929 . S
H1205 C1214 0.930 . S
H1206 C1216 0.930 . S
H1207 C1219 0.929 . S
H1208 C1222 0.930 . S
H1209 C1224 0.960 . S
H1210 C1224 0.960 . S
H1211 C1224 0.960 . S
C1212 H1204 0.929 . S
C1212 C1213 1.377 . S
C1212 C1214 1.384 . S
C1213 C1212 1.377 . S
C1213 C1219 1.390 . S
C1214 H1205 0.930 . S
C1214 C1212 1.384 . S
C1214 C1215 1.372 . S
C1215 C1214 1.372 . S
C1215 C1216 1.400 . S
C1215 C1220 1.490 . S
C1216 H1206 0.930 . S
C1216 C1215 1.400 . S
C1216 C1219 1.386 . S
H1217 C1233 0.930 . S
H1218 C1234 0.931 . S
C1219 H1207 0.929 . S
C1219 C1213 1.390 . S
C1219 C1216 1.386 . S
C1220 C1215 1.490 . S
C1220 C1222 1.395 . S
C1220 C1223 1.403 . S
H1221 C1227 0.930 . S
C1222 H1208 0.930 . S
C1222 C1220 1.395 . S
C1222 C1225 1.403 . S
C1223 C1220 1.403 . S
C1223 C1224 1.524 . S
C1223 C1227 1.400 . S
C1224 H1209 0.960 . S
C1224 H1210 0.960 . S
C1224 H1211 0.960 . S
C1224 C1223 1.524 . S
C1225 C1222 1.403 . S
C1225 C1226 1.392 . S
C1225 C1229 1.495 . S
C1226 C1225 1.392 . S
C1226 C1227 1.385 . S
C1226 C1228 1.478 . S
C1227 H1221 0.930 . S
C1227 C1223 1.400 . S
C1227 C1226 1.385 . S
C1228 C1226 1.478 . S
C1228 C1230 1.381 . S
C1228 C1234 1.383 . S
C1229 C1225 1.495 . S
C1229 H1235 0.959 . S
C1229 H1236 0.961 . S
C1229 H1237 0.960 . S
C1230 C1228 1.381 . S
C1230 C1231 1.394 . S
C1230 H1238 0.930 . S
C1231 C1230 1.394 . S
C1231 C1232 1.383 . S
C1231 H1239 0.929 . S
C1232 C1231 1.383 . S
C1232 C1233 1.377 . S
C1233 H1217 0.930 . S
C1233 C1232 1.377 . S
C1233 C1234 1.379 . S
C1234 H1218 0.931 . S
C1234 C1228 1.383 . S
C1234 C1233 1.379 . S
H1235 C1229 0.959 . S
H1236 C1229 0.961 . S
H1237 C1229 0.960 . S
H1238 C1230 0.930 . S
H1239 C1231 0.929 . S
H1240 C1248 0.929 . S
H1241 C1250 0.930 . S
H1242 C1252 0.930 . S
H1243 C1255 0.929 . S
H1244 C1258 0.930 . S
H1245 C1260 0.960 . S
H1246 C1260 0.960 . S
H1247 C1260 0.960 . S
C1248 H1240 0.929 . S
C1248 C1249 1.377 . S
C1248 C1250 1.384 . S
C1249 C1248 1.377 . S
C1249 C1255 1.390 . S
C1250 H1241 0.930 . S
C1250 C1248 1.384 . S
C1250 C1251 1.372 . S
C1251 C1250 1.372 . S
C1251 C1252 1.400 . S
C1251 C1256 1.490 . S
C1252 H1242 0.930 . S
C1252 C1251 1.400 . S
C1252 C1255 1.386 . S
H1253 C1269 0.930 1_655 S
H1254 C1270 0.931 . S
C1255 H1243 0.929 . S
C1255 C1249 1.390 . S
C1255 C1252 1.386 . S
C1256 C1251 1.490 . S
C1256 C1258 1.395 . S
C1256 C1259 1.403 . S
H1257 C1263 0.930 . S
C1258 H1244 0.930 . S
C1258 C1256 1.395 . S
C1258 C1261 1.403 1_655 S
C1259 C1256 1.403 . S
C1259 C1260 1.524 . S
C1259 C1263 1.400 . S
C1260 H1245 0.960 . S
C1260 H1246 0.960 . S
C1260 H1247 0.960 . S
C1260 C1259 1.524 . S
C1261 C1258 1.403 1_455 S
C1261 C1262 1.392 1_455 S
C1261 C1265 1.495 . S
C1262 C1261 1.392 1_655 S
C1262 C1263 1.385 . S
C1262 C1264 1.478 1_655 S
C1263 H1257 0.930 . S
C1263 C1259 1.400 . S
C1263 C1262 1.385 . S
C1264 C1262 1.478 1_455 S
C1264 C1266 1.381 . S
C1264 C1270 1.383 1_455 S
C1265 C1261 1.495 . S
C1265 H1271 0.959 . S
C1265 H1272 0.961 . S
C1265 H1273 0.960 . S
C1266 C1264 1.381 . S
C1266 C1267 1.394 . S
C1266 H1274 0.930 . S
C1267 C1266 1.394 . S
C1267 C1268 1.383 . S
C1267 H1275 0.929 . S
C1268 C1267 1.383 . S
C1268 C1269 1.377 . S
C1269 H1253 0.930 1_455 S
C1269 C1268 1.377 . S
C1269 C1270 1.379 1_455 S
C1270 H1254 0.931 . S
C1270 C1264 1.383 1_655 S
C1270 C1269 1.379 1_655 S
H1271 C1265 0.959 . S
H1272 C1265 0.961 . S
H1273 C1265 0.960 . S
H1274 C1266 0.930 . S
H1275 C1267 0.929 . S
H1276 C1284 0.929 . S
H1277 C1286 0.930 . S
H1278 C1288 0.930 . S
H1279 C1291 0.929 . S
H1280 C1294 0.930 . S
H1281 C1296 0.960 . S
H1282 C1296 0.960 . S
H1283 C1296 0.960 . S
C1284 H1276 0.929 . S
C1284 C1285 1.377 . S
C1284 C1286 1.384 . S
C1285 C1284 1.377 . S
C1285 C1291 1.390 . S
C1286 H1277 0.930 . S
C1286 C1284 1.384 . S
C1286 C1287 1.372 . S
C1287 C1286 1.372 . S
C1287 C1288 1.400 . S
C1287 C1292 1.490 . S
C1288 H1278 0.930 . S
C1288 C1287 1.400 . S
C1288 C1291 1.386 . S
H1289 C1305 0.930 . S
H1290 C1306 0.931 . S
C1291 H1279 0.929 . S
C1291 C1285 1.390 . S
C1291 C1288 1.386 . S
C1292 C1287 1.490 . S
C1292 C1294 1.395 . S
C1292 C1295 1.403 . S
H1293 C1299 0.930 . S
C1294 H1280 0.930 . S
C1294 C1292 1.395 . S
C1294 C1297 1.403 . S
C1295 C1292 1.403 . S
C1295 C1296 1.524 . S
C1295 C1299 1.400 . S
C1296 H1281 0.960 . S
C1296 H1282 0.960 . S
C1296 H1283 0.960 . S
C1296 C1295 1.524 . S
C1297 C1294 1.403 . S
C1297 C1298 1.392 . S
C1297 C1301 1.495 . S
C1298 C1297 1.392 . S
C1298 C1299 1.385 . S
C1298 C1300 1.478 . S
C1299 H1293 0.930 . S
C1299 C1295 1.400 . S
C1299 C1298 1.385 . S
C1300 C1298 1.478 . S
C1300 C1302 1.381 . S
C1300 C1306 1.383 . S
C1301 C1297 1.495 . S
C1301 H1307 0.959 . S
C1301 H1308 0.961 . S
C1301 H1309 0.960 . S
C1302 C1300 1.381 . S
C1302 C1303 1.394 . S
C1302 H1310 0.930 . S
C1303 C1302 1.394 . S
C1303 C1304 1.383 . S
C1303 H1311 0.929 . S
C1304 C1303 1.383 . S
C1304 C1305 1.377 . S
C1305 H1289 0.930 . S
C1305 C1304 1.377 . S
C1305 C1306 1.379 . S
C1306 H1290 0.931 . S
C1306 C1300 1.383 . S
C1306 C1305 1.379 . S
H1307 C1301 0.959 . S
H1308 C1301 0.961 . S
H1309 C1301 0.960 . S
H1310 C1302 0.930 . S
H1311 C1303 0.929 . S
H1312 C1320 0.929 . S
H1313 C1322 0.930 . S
H1314 C1324 0.930 . S
H1315 C1327 0.929 . S
H1316 C1330 0.930 . S
H1317 C1332 0.960 . S
H1318 C1332 0.960 . S
H1319 C1332 0.960 . S
C1320 H1312 0.929 . S
C1320 C1321 1.377 . S
C1320 C1322 1.384 . S
C1321 C1320 1.377 . S
C1321 C1327 1.390 . S
C1322 H1313 0.930 . S
C1322 C1320 1.384 . S
C1322 C1323 1.372 . S
C1323 C1322 1.372 . S
C1323 C1324 1.400 . S
C1323 C1328 1.490 . S
C1324 H1314 0.930 . S
C1324 C1323 1.400 . S
C1324 C1327 1.386 . S
H1325 C1341 0.930 . S
H1326 C1342 0.931 . S
C1327 H1315 0.929 . S
C1327 C1321 1.390 . S
C1327 C1324 1.386 . S
C1328 C1323 1.490 . S
C1328 C1330 1.395 . S
C1328 C1331 1.403 . S
H1329 C1335 0.930 . S
C1330 H1316 0.930 . S
C1330 C1328 1.395 . S
C1330 C1333 1.403 . S
C1331 C1328 1.403 . S
C1331 C1332 1.524 . S
C1331 C1335 1.400 . S
C1332 H1317 0.960 . S
C1332 H1318 0.960 . S
C1332 H1319 0.960 . S
C1332 C1331 1.524 . S
C1333 C1330 1.403 . S
C1333 C1334 1.392 . S
C1333 C1337 1.495 . S
C1334 C1333 1.392 . S
C1334 C1335 1.385 . S
C1334 C1336 1.478 . S
C1335 H1329 0.930 . S
C1335 C1331 1.400 . S
C1335 C1334 1.385 . S
C1336 C1334 1.478 . S
C1336 C1338 1.381 . S
C1336 C1342 1.383 . S
C1337 C1333 1.495 . S
C1337 H1343 0.959 . S
C1337 H1344 0.961 . S
C1337 H1345 0.960 . S
C1338 C1336 1.381 . S
C1338 C1339 1.394 . S
C1338 H1346 0.930 . S
C1339 C1338 1.394 . S
C1339 C1340 1.383 . S
C1339 H1347 0.929 . S
C1340 C1339 1.383 . S
C1340 C1341 1.377 . S
C1341 H1325 0.930 . S
C1341 C1340 1.377 . S
C1341 C1342 1.379 . S
C1342 H1326 0.931 . S
C1342 C1336 1.383 . S
C1342 C1341 1.379 . S
H1343 C1337 0.959 . S
H1344 C1337 0.961 . S
H1345 C1337 0.960 . S
H1346 C1338 0.930 . S
H1347 C1339 0.929 . S
H1348 C1356 0.929 . S
H1349 C1358 0.930 . S
H1350 C1360 0.930 . S
H1351 C1363 0.929 . S
H1352 C1366 0.930 . S
H1353 C1368 0.960 . S
H1354 C1368 0.960 . S
H1355 C1368 0.960 . S
C1356 H1348 0.929 . S
C1356 C1357 1.377 . S
C1356 C1358 1.384 . S
C1357 C1356 1.377 . S
C1357 C1363 1.390 . S
C1358 H1349 0.930 . S
C1358 C1356 1.384 . S
C1358 C1359 1.372 . S
C1359 C1358 1.372 . S
C1359 C1360 1.400 . S
C1359 C1364 1.490 . S
C1360 H1350 0.930 . S
C1360 C1359 1.400 . S
C1360 C1363 1.386 . S
H1361 C1377 0.930 . S
H1362 C1378 0.931 . S
C1363 H1351 0.929 . S
C1363 C1357 1.390 . S
C1363 C1360 1.386 . S
C1364 C1359 1.490 . S
C1364 C1366 1.395 . S
C1364 C1367 1.403 . S
H1365 C1371 0.930 . S
C1366 H1352 0.930 . S
C1366 C1364 1.395 . S
C1366 C1369 1.403 . S
C1367 C1364 1.403 . S
C1367 C1368 1.524 . S
C1367 C1371 1.400 . S
C1368 H1353 0.960 . S
C1368 H1354 0.960 . S
C1368 H1355 0.960 . S
C1368 C1367 1.524 . S
C1369 C1366 1.403 . S
C1369 C1370 1.392 . S
C1369 C1373 1.495 . S
C1370 C1369 1.392 . S
C1370 C1371 1.385 . S
C1370 C1372 1.478 . S
C1371 H1365 0.930 . S
C1371 C1367 1.400 . S
C1371 C1370 1.385 . S
C1372 C1370 1.478 . S
C1372 C1374 1.381 . S
C1372 C1378 1.383 . S
C1373 C1369 1.495 . S
C1373 H1379 0.959 . S
C1373 H1380 0.961 . S
C1373 H1381 0.960 . S
C1374 C1372 1.381 . S
C1374 C1375 1.394 . S
C1374 H1382 0.930 . S
C1375 C1374 1.394 . S
C1375 C1376 1.383 . S
C1375 H1383 0.929 . S
C1376 C1375 1.383 . S
C1376 C1377 1.377 . S
C1377 H1361 0.930 . S
C1377 C1376 1.377 . S
C1377 C1378 1.379 . S
C1378 H1362 0.931 . S
C1378 C1372 1.383 . S
C1378 C1377 1.379 . S
H1379 C1373 0.959 . S
H1380 C1373 0.961 . S
H1381 C1373 0.960 . S
H1382 C1374 0.930 . S
H1383 C1375 0.929 . S
H1384 C1392 0.929 . S
H1385 C1394 0.930 . S
H1386 C1396 0.930 . S
H1387 C1399 0.929 . S
H1388 C1402 0.945 . S
H1389 C1404 0.960 . S
H1390 C1404 0.960 . S
H1391 C1404 0.960 . S
C1392 H1384 0.929 . S
C1392 C1393 1.377 . S
C1392 C1394 1.384 . S
C1393 C1392 1.377 . S
C1393 C1399 1.390 . S
C1394 H1385 0.930 . S
C1394 C1392 1.384 . S
C1394 C1395 1.372 . S
C1395 C1394 1.372 . S
C1395 C1396 1.400 . S
C1395 C1400 1.490 . S
C1396 H1386 0.930 . S
C1396 C1395 1.400 . S
C1396 C1399 1.386 . S
H1397 C1413 0.930 . S
H1398 C1414 0.931 . S
C1399 H1387 0.929 . S
C1399 C1393 1.390 . S
C1399 C1396 1.386 . S
C1400 C1395 1.490 . S
C1400 C1402 1.367 1_655 S
C1400 C1403 1.403 . S
H1401 C1407 0.930 . S
C1402 H1388 0.945 . S
C1402 C1400 1.367 1_455 S
C1402 C1405 1.416 . S
C1403 C1400 1.403 . S
C1403 C1404 1.524 . S
C1403 C1407 1.400 . S
C1404 H1389 0.960 . S
C1404 H1390 0.960 . S
C1404 H1391 0.960 . S
C1404 C1403 1.524 . S
C1405 C1402 1.416 . S
C1405 C1406 1.396 1_455 S
C1405 C1409 1.495 . S
C1406 C1405 1.396 1_655 S
C1406 C1407 1.378 . S
C1406 C1408 1.480 1_655 S
C1407 H1401 0.930 . S
C1407 C1403 1.400 . S
C1407 C1406 1.378 . S
C1408 C1406 1.480 1_455 S
C1408 C1410 1.381 . S
C1408 C1414 1.383 . S
C1409 C1405 1.495 . S
C1409 H1415 0.959 . S
C1409 H1416 0.961 . S
C1409 H1417 0.960 . S
C1410 C1408 1.381 . S
C1410 C1411 1.394 . S
C1410 H1418 0.930 . S
C1411 C1410 1.394 . S
C1411 C1412 1.383 . S
C1411 H1419 0.929 . S
C1412 C1411 1.383 . S
C1412 C1413 1.377 . S
C1413 H1397 0.930 . S
C1413 C1412 1.377 . S
C1413 C1414 1.379 . S
C1414 H1398 0.931 . S
C1414 C1408 1.383 . S
C1414 C1413 1.379 . S
H1415 C1409 0.959 . S
H1416 C1409 0.961 . S
H1417 C1409 0.960 . S
H1418 C1410 0.930 . S
H1419 C1411 0.929 . S
H1420 C1428 0.929 . S
H1421 C1430 0.930 . S
H1422 C1432 0.930 . S
H1423 C1435 0.929 . S
H1424 C1438 0.930 . S
H1425 C1440 0.960 . S
H1426 C1440 0.960 . S
H1427 C1440 0.960 . S
C1428 H1420 0.929 . S
C1428 C1429 1.377 . S
C1428 C1430 1.384 . S
C1429 C1428 1.377 . S
C1429 C1435 1.390 . S
C1430 H1421 0.930 . S
C1430 C1428 1.384 . S
C1430 C1431 1.372 . S
C1431 C1430 1.372 . S
C1431 C1432 1.400 . S
C1431 C1436 1.490 . S
C1432 H1422 0.930 . S
C1432 C1431 1.400 . S
C1432 C1435 1.386 . S
H1433 C1449 0.930 . S
H1434 C1450 0.931 . S
C1435 H1423 0.929 . S
C1435 C1429 1.390 . S
C1435 C1432 1.386 . S
C1436 C1431 1.490 . S
C1436 C1438 1.395 . S
C1436 C1439 1.403 . S
H1437 C1443 0.930 . S
C1438 H1424 0.930 . S
C1438 C1436 1.395 . S
C1438 C1441 1.403 . S
C1439 C1436 1.403 . S
C1439 C1440 1.524 . S
C1439 C1443 1.400 . S
C1440 H1425 0.960 . S
C1440 H1426 0.960 . S
C1440 H1427 0.960 . S
C1440 C1439 1.524 . S
C1441 C1438 1.403 . S
C1441 C1442 1.392 . S
C1441 C1445 1.495 . S
C1442 C1441 1.392 . S
C1442 C1443 1.385 . S
C1442 C1444 1.478 . S
C1443 H1437 0.930 . S
C1443 C1439 1.400 . S
C1443 C1442 1.385 . S
C1444 C1442 1.478 . S
C1444 C1446 1.381 . S
C1444 C1450 1.383 . S
C1445 C1441 1.495 . S
C1445 H1451 0.959 . S
C1445 H1452 0.961 . S
C1445 H1453 0.960 . S
C1446 C1444 1.381 . S
C1446 C1447 1.394 . S
C1446 H1454 0.930 . S
C1447 C1446 1.394 . S
C1447 C1448 1.383 . S
C1447 H1455 0.929 . S
C1448 C1447 1.383 . S
C1448 C1449 1.377 . S
C1449 H1433 0.930 . S
C1449 C1448 1.377 . S
C1449 C1450 1.379 . S
C1450 H1434 0.931 . S
C1450 C1444 1.383 . S
C1450 C1449 1.379 . S
H1451 C1445 0.959 . S
H1452 C1445 0.961 . S
H1453 C1445 0.960 . S
H1454 C1446 0.930 . S
H1455 C1447 0.929 . S
H1456 C1464 0.929 . S
H1457 C1466 0.930 . S
H1458 C1468 0.930 . S
H1459 C1471 0.929 . S
H1460 C1474 0.930 . S
H1461 C1476 0.960 . S
H1462 C1476 0.960 . S
H1463 C1476 0.960 . S
C1464 H1456 0.929 . S
C1464 C1465 1.377 . S
C1464 C1466 1.384 . S
C1465 C1464 1.377 . S
C1465 C1471 1.390 . S
C1466 H1457 0.930 . S
C1466 C1464 1.384 . S
C1466 C1467 1.372 . S
C1467 C1466 1.372 . S
C1467 C1468 1.400 . S
C1467 C1472 1.490 . S
C1468 H1458 0.930 . S
C1468 C1467 1.400 . S
C1468 C1471 1.386 . S
H1469 C1485 0.930 . S
H1470 C1486 0.931 . S
C1471 H1459 0.929 . S
C1471 C1465 1.390 . S
C1471 C1468 1.386 . S
C1472 C1467 1.490 . S
C1472 C1474 1.395 . S
C1472 C1475 1.403 . S
H1473 C1479 0.930 . S
C1474 H1460 0.930 . S
C1474 C1472 1.395 . S
C1474 C1477 1.403 . S
C1475 C1472 1.403 . S
C1475 C1476 1.524 . S
C1475 C1479 1.400 . S
C1476 H1461 0.960 . S
C1476 H1462 0.960 . S
C1476 H1463 0.960 . S
C1476 C1475 1.524 . S
C1477 C1474 1.403 . S
C1477 C1478 1.392 . S
C1477 C1481 1.495 . S
C1478 C1477 1.392 . S
C1478 C1479 1.385 . S
C1478 C1480 1.478 . S
C1479 H1473 0.930 . S
C1479 C1475 1.400 . S
C1479 C1478 1.385 . S
C1480 C1478 1.478 . S
C1480 C1482 1.381 . S
C1480 C1486 1.383 . S
C1481 C1477 1.495 . S
C1481 H1487 0.959 . S
C1481 H1488 0.961 . S
C1481 H1489 0.960 . S
C1482 C1480 1.381 . S
C1482 C1483 1.394 . S
C1482 H1490 0.930 . S
C1483 C1482 1.394 . S
C1483 C1484 1.383 . S
C1483 H1491 0.929 . S
C1484 C1483 1.383 . S
C1484 C1485 1.377 . S
C1485 H1469 0.930 . S
C1485 C1484 1.377 . S
C1485 C1486 1.379 . S
C1486 H1470 0.931 . S
C1486 C1480 1.383 . S
C1486 C1485 1.379 . S
H1487 C1481 0.959 . S
H1488 C1481 0.961 . S
H1489 C1481 0.960 . S
H1490 C1482 0.930 . S
H1491 C1483 0.929 . S
H1492 C1500 0.929 . S
H1493 C1502 0.930 . S
H1494 C1504 0.930 . S
H1495 C1507 0.929 . S
H1496 C1510 0.930 . S
H1497 C1512 0.960 . S
H1498 C1512 0.960 . S
H1499 C1512 0.960 . S
C1500 H1492 0.929 . S
C1500 C1501 1.377 . S
C1500 C1502 1.384 . S
C1501 C1500 1.377 . S
C1501 C1507 1.390 . S
C1502 H1493 0.930 . S
C1502 C1500 1.384 . S
C1502 C1503 1.372 . S
C1503 C1502 1.372 . S
C1503 C1504 1.400 . S
C1503 C1508 1.490 . S
C1504 H1494 0.930 . S
C1504 C1503 1.400 . S
C1504 C1507 1.386 . S
H1505 C1521 0.930 . S
H1506 C1522 0.931 . S
C1507 H1495 0.929 . S
C1507 C1501 1.390 . S
C1507 C1504 1.386 . S
C1508 C1503 1.490 . S
C1508 C1510 1.395 . S
C1508 C1511 1.403 . S
H1509 C1515 0.930 . S
C1510 H1496 0.930 . S
C1510 C1508 1.395 . S
C1510 C1513 1.403 . S
C1511 C1508 1.403 . S
C1511 C1512 1.524 . S
C1511 C1515 1.400 . S
C1512 H1497 0.960 . S
C1512 H1498 0.960 . S
C1512 H1499 0.960 . S
C1512 C1511 1.524 . S
C1513 C1510 1.403 . S
C1513 C1514 1.392 . S
C1513 C1517 1.495 . S
C1514 C1513 1.392 . S
C1514 C1515 1.385 . S
C1514 C1516 1.478 . S
C1515 H1509 0.930 . S
C1515 C1511 1.400 . S
C1515 C1514 1.385 . S
C1516 C1514 1.478 . S
C1516 C1518 1.381 . S
C1516 C1522 1.383 . S
C1517 C1513 1.495 . S
C1517 H1523 0.959 . S
C1517 H1524 0.961 . S
C1517 H1525 0.960 . S
C1518 C1516 1.381 . S
C1518 C1519 1.394 . S
C1518 H1526 0.930 . S
C1519 C1518 1.394 . S
C1519 C1520 1.383 . S
C1519 H1527 0.929 . S
C1520 C1519 1.383 . S
C1520 C1521 1.377 . S
C1521 H1505 0.930 . S
C1521 C1520 1.377 . S
C1521 C1522 1.379 . S
C1522 H1506 0.931 . S
C1522 C1516 1.383 . S
C1522 C1521 1.379 . S
H1523 C1517 0.959 . S
H1524 C1517 0.961 . S
H1525 C1517 0.960 . S
H1526 C1518 0.930 . S
H1527 C1519 0.929 . S
H1528 C1536 0.929 1_556 S
H1529 C1538 0.950 . S
H1530 C1540 0.930 . S
H1531 C1543 0.929 . S
H1532 C1546 0.930 1_556 S
H1533 C1548 0.960 . S
H1534 C1548 0.960 . S
H1535 C1548 0.960 . S
C1536 H1528 0.929 1_554 S
C1536 C1537 1.377 . S
C1536 C1538 1.384 . S
C1537 C1536 1.377 . S
C1537 C1543 1.390 . S
C1538 H1529 0.950 . S
C1538 C1536 1.384 . S
C1538 C1539 1.372 . S
C1539 C1538 1.372 . S
C1539 C1540 1.400 . S
C1539 C1544 1.490 . S
C1540 H1530 0.930 . S
C1540 C1539 1.400 . S
C1540 C1543 1.386 . S
H1541 C1557 0.930 . S
H1542 C1558 0.931 . S
C1543 H1531 0.929 . S
C1543 C1537 1.390 . S
C1543 C1540 1.386 . S
C1544 C1539 1.490 . S
C1544 C1546 1.395 . S
C1544 C1547 1.403 . S
H1545 C1551 0.930 . S
C1546 H1532 0.930 1_554 S
C1546 C1544 1.395 . S
C1546 C1549 1.403 . S
C1547 C1544 1.403 . S
C1547 C1548 1.524 . S
C1547 C1551 1.400 . S
C1548 H1533 0.960 . S
C1548 H1534 0.960 . S
C1548 H1535 0.960 . S
C1548 C1547 1.524 . S
C1549 C1546 1.403 . S
C1549 C1550 1.392 . S
C1549 C1553 1.495 1_554 S
C1550 C1549 1.392 . S
C1550 C1551 1.385 . S
C1550 C1552 1.478 . S
C1551 H1545 0.930 . S
C1551 C1547 1.400 . S
C1551 C1550 1.385 . S
C1552 C1550 1.478 . S
C1552 C1554 1.381 . S
C1552 C1558 1.383 . S
C1553 C1549 1.495 1_556 S
C1553 H1559 0.959 . S
C1553 H1560 0.961 . S
C1553 H1561 0.960 . S
C1554 C1552 1.381 . S
C1554 C1555 1.394 1_565 S
C1554 H1562 0.930 1_565 S
C1555 C1554 1.394 1_545 S
C1555 C1556 1.383 1_545 S
C1555 H1563 0.929 . S
C1556 C1555 1.383 1_565 S
C1556 C1557 1.377 . S
C1557 H1541 0.930 . S
C1557 C1556 1.377 . S
C1557 C1558 1.379 . S
C1558 H1542 0.931 . S
C1558 C1552 1.383 . S
C1558 C1557 1.379 . S
H1559 C1553 0.959 . S
H1560 C1553 0.961 . S
H1561 C1553 0.960 . S
H1562 C1554 0.930 1_545 S
H1563 C1555 0.929 . S
H1564 C1572 0.929 . S
H1565 C1574 0.930 . S
H1566 C1576 0.930 . S
H1567 C1579 0.929 . S
H1568 C1582 0.930 . S
H1569 C1584 0.960 . S
H1570 C1584 0.960 . S
H1571 C1584 0.960 . S
C1572 H1564 0.929 . S
C1572 C1573 1.421 . S
C1572 C1574 1.384 . S
C1573 C1572 1.421 . S
C1573 C1579 1.359 1_554 S
C1574 H1565 0.930 . S
C1574 C1572 1.384 . S
C1574 C1575 1.372 . S
C1575 C1574 1.372 . S
C1575 C1576 1.400 1_554 S
C1575 C1580 1.490 . S
C1576 H1566 0.930 . S
C1576 C1575 1.400 1_556 S
C1576 C1579 1.386 . S
H1577 C1593 0.930 . S
H1578 C1594 0.931 . S
C1579 H1567 0.929 . S
C1579 C1573 1.359 1_556 S
C1579 C1576 1.386 . S
C1580 C1575 1.490 . S
C1580 C1582 1.395 . S
C1580 C1583 1.403 1_554 S
H1581 C1587 0.930 . S
C1582 H1568 0.930 . S
C1582 C1580 1.395 . S
C1582 C1585 1.403 . S
C1583 C1580 1.403 1_556 S
C1583 C1584 1.524 . S
C1583 C1587 1.400 . S
C1584 H1569 0.960 . S
C1584 H1570 0.960 . S
C1584 H1571 0.960 . S
C1584 C1583 1.524 . S
C1585 C1582 1.403 . S
C1585 C1586 1.392 . S
C1585 C1589 1.495 . S
C1586 C1585 1.392 . S
C1586 C1587 1.385 1_554 S
C1586 C1588 1.478 . S
C1587 H1581 0.930 . S
C1587 C1583 1.400 . S
C1587 C1586 1.385 1_556 S
C1588 C1586 1.478 . S
C1588 C1590 1.381 . S
C1588 C1594 1.383 1_554 S
C1589 C1585 1.495 . S
C1589 H1595 0.959 . S
C1589 H1596 0.961 . S
C1589 H1597 0.960 . S
C1590 C1588 1.381 . S
C1590 C1591 1.394 . S
C1590 H1598 0.930 . S
C1591 C1590 1.394 . S
C1591 C1592 1.383 . S
C1591 H1599 0.929 . S
C1592 C1591 1.383 . S
C1592 C1593 1.377 1_554 S
C1593 H1577 0.930 . S
C1593 C1592 1.377 1_556 S
C1593 C1594 1.379 . S
C1594 H1578 0.931 . S
C1594 C1588 1.383 1_556 S
C1594 C1593 1.379 . S
H1595 C1589 0.959 . S
H1596 C1589 0.961 . S
H1597 C1589 0.960 . S
H1598 C1590 0.930 . S
H1599 C1591 0.929 . S
H1600 C1608 0.929 . S
H1601 C1610 0.930 . S
H1602 C1612 0.930 . S
H1603 C1615 0.929 . S
H1604 C1618 0.930 . S
H1605 C1620 0.960 . S
H1606 C1620 0.960 . S
H1607 C1620 0.960 . S
C1608 H1600 0.929 . S
C1608 C1609 1.377 . S
C1608 C1610 1.384 . S
C1609 C1608 1.377 . S
C1609 C1615 1.390 . S
C1610 H1601 0.930 . S
C1610 C1608 1.384 . S
C1610 C1611 1.372 . S
C1611 C1610 1.372 . S
C1611 C1612 1.400 . S
C1611 C1616 1.490 . S
C1612 H1602 0.930 . S
C1612 C1611 1.400 . S
C1612 C1615 1.386 . S
H1613 C1629 0.930 . S
H1614 C1630 0.931 . S
C1615 H1603 0.929 . S
C1615 C1609 1.390 . S
C1615 C1612 1.386 . S
C1616 C1611 1.490 . S
C1616 C1618 1.395 . S
C1616 C1619 1.403 . S
H1617 C1623 0.930 . S
C1618 H1604 0.930 . S
C1618 C1616 1.395 . S
C1618 C1621 1.403 . S
C1619 C1616 1.403 . S
C1619 C1620 1.524 . S
C1619 C1623 1.400 . S
C1620 H1605 0.960 . S
C1620 H1606 0.960 . S
C1620 H1607 0.960 . S
C1620 C1619 1.524 . S
C1621 C1618 1.403 . S
C1621 C1622 1.392 . S
C1621 C1625 1.495 . S
C1622 C1621 1.392 . S
C1622 C1623 1.385 . S
C1622 C1624 1.478 . S
C1623 H1617 0.930 . S
C1623 C1619 1.400 . S
C1623 C1622 1.385 . S
C1624 C1622 1.478 . S
C1624 C1626 1.381 . S
C1624 C1630 1.383 . S
C1625 C1621 1.495 . S
C1625 H1631 0.959 . S
C1625 H1632 0.961 . S
C1625 H1633 0.960 . S
C1626 C1624 1.381 . S
C1626 C1627 1.394 . S
C1626 H1634 0.930 . S
C1627 C1626 1.394 . S
C1627 C1628 1.383 . S
C1627 H1635 0.929 . S
C1628 C1627 1.383 . S
C1628 C1629 1.377 . S
C1629 H1613 0.930 . S
C1629 C1628 1.377 . S
C1629 C1630 1.379 . S
C1630 H1614 0.931 . S
C1630 C1624 1.383 . S
C1630 C1629 1.379 . S
H1631 C1625 0.959 . S
H1632 C1625 0.961 . S
H1633 C1625 0.960 . S
H1634 C1626 0.930 . S
H1635 C1627 0.929 . S
H1636 C1644 0.929 . S
H1637 C1646 0.930 . S
H1638 C1648 0.930 . S
H1639 C1651 0.929 . S
H1640 C1654 0.930 . S
H1641 C1656 0.960 . S
H1642 C1656 0.960 . S
H1643 C1656 0.960 . S
C1644 H1636 0.929 . S
C1644 C1645 1.377 . S
C1644 C1646 1.384 . S
C1645 C1644 1.377 . S
C1645 C1651 1.390 . S
C1646 H1637 0.930 . S
C1646 C1644 1.384 . S
C1646 C1647 1.372 . S
C1647 C1646 1.372 . S
C1647 C1648 1.400 . S
C1647 C1652 1.490 . S
C1648 H1638 0.930 . S
C1648 C1647 1.400 . S
C1648 C1651 1.386 . S
H1649 C1665 0.930 . S
H1650 C1666 0.931 . S
C1651 H1639 0.929 . S
C1651 C1645 1.390 . S
C1651 C1648 1.386 . S
C1652 C1647 1.490 . S
C1652 C1654 1.395 . S
C1652 C1655 1.403 . S
H1653 C1659 0.930 . S
C1654 H1640 0.930 . S
C1654 C1652 1.395 . S
C1654 C1657 1.403 . S
C1655 C1652 1.403 . S
C1655 C1656 1.524 . S
C1655 C1659 1.400 . S
C1656 H1641 0.960 . S
C1656 H1642 0.960 . S
C1656 H1643 0.960 . S
C1656 C1655 1.524 . S
C1657 C1654 1.403 . S
C1657 C1658 1.392 . S
C1657 C1661 1.495 . S
C1658 C1657 1.392 . S
C1658 C1659 1.385 . S
C1658 C1660 1.478 . S
C1659 H1653 0.930 . S
C1659 C1655 1.400 . S
C1659 C1658 1.385 . S
C1660 C1658 1.478 . S
C1660 C1662 1.381 . S
C1660 C1666 1.383 . S
C1661 C1657 1.495 . S
C1661 H1667 0.959 . S
C1661 H1668 0.961 . S
C1661 H1669 0.960 . S
C1662 C1660 1.381 . S
C1662 C1663 1.394 . S
C1662 H1670 0.930 . S
C1663 C1662 1.394 . S
C1663 C1664 1.400 . S
C1663 H1671 0.929 1_655 S
C1664 C1663 1.400 . S
C1664 C1665 1.407 . S
C1665 H1649 0.930 . S
C1665 C1664 1.407 . S
C1665 C1666 1.379 . S
C1666 H1650 0.931 . S
C1666 C1660 1.383 . S
C1666 C1665 1.379 . S
H1667 C1661 0.959 . S
H1668 C1661 0.961 . S
H1669 C1661 0.960 . S
H1670 C1662 0.930 . S
H1671 C1663 0.929 1_455 S
H1672 C1680 0.929 . S
H1673 C1682 0.930 . S
H1674 C1684 0.930 . S
H1675 C1687 0.929 . S
H1676 C1690 0.930 . S
H1677 C1692 0.960 . S
H1678 C1692 0.960 . S
H1679 C1692 0.960 . S
C1680 H1672 0.929 . S
C1680 C1681 1.377 . S
C1680 C1682 1.384 . S
C1681 C1680 1.377 . S
C1681 C1687 1.390 . S
C1682 H1673 0.930 . S
C1682 C1680 1.384 . S
C1682 C1683 1.372 . S
C1683 C1682 1.372 . S
C1683 C1684 1.400 . S
C1683 C1688 1.490 . S
C1684 H1674 0.930 . S
C1684 C1683 1.400 . S
C1684 C1687 1.386 . S
H1685 C1701 0.930 . S
H1686 C1702 0.931 . S
C1687 H1675 0.929 . S
C1687 C1681 1.390 . S
C1687 C1684 1.386 . S
C1688 C1683 1.490 . S
C1688 C1690 1.395 . S
C1688 C1691 1.403 . S
H1689 C1695 0.930 . S
C1690 H1676 0.930 . S
C1690 C1688 1.395 . S
C1690 C1693 1.403 . S
C1691 C1688 1.403 . S
C1691 C1692 1.524 . S
C1691 C1695 1.400 . S
C1692 H1677 0.960 . S
C1692 H1678 0.960 . S
C1692 H1679 0.960 . S
C1692 C1691 1.524 . S
C1693 C1690 1.403 . S
C1693 C1694 1.392 . S
C1693 C1697 1.495 . S
C1694 C1693 1.392 . S
C1694 C1695 1.385 . S
C1694 C1696 1.478 . S
C1695 H1689 0.930 . S
C1695 C1691 1.400 . S
C1695 C1694 1.385 . S
C1696 C1694 1.478 . S
C1696 C1698 1.381 . S
C1696 C1702 1.383 . S
C1697 C1693 1.495 . S
C1697 H1703 0.959 . S
C1697 H1704 0.961 . S
C1697 H1705 0.960 . S
C1698 C1696 1.381 . S
C1698 C1699 1.394 . S
C1698 H1706 0.930 . S
C1699 C1698 1.394 . S
C1699 C1700 1.383 . S
C1699 H1707 0.929 . S
C1700 C1699 1.383 . S
C1700 C1701 1.377 . S
C1701 H1685 0.930 . S
C1701 C1700 1.377 . S
C1701 C1702 1.379 . S
C1702 H1686 0.931 . S
C1702 C1696 1.383 . S
C1702 C1701 1.379 . S
H1703 C1697 0.959 . S
H1704 C1697 0.961 . S
H1705 C1697 0.960 . S
H1706 C1698 0.930 . S
H1707 C1699 0.929 . S
H1708 C1716 0.929 . S
H1709 C1718 0.930 . S
H1710 C1720 0.930 . S
H1711 C1723 0.929 . S
H1712 C1726 0.930 . S
H1713 C1728 0.960 . S
H1714 C1728 0.960 . S
H1715 C1728 0.960 . S
C1716 H1708 0.929 . S
C1716 C1717 1.377 . S
C1716 C1718 1.384 . S
C1717 C1716 1.377 . S
C1717 C1723 1.390 . S
C1718 H1709 0.930 . S
C1718 C1716 1.384 . S
C1718 C1719 1.372 . S
C1719 C1718 1.372 . S
C1719 C1720 1.400 . S
C1719 C1724 1.490 . S
C1720 H1710 0.930 . S
C1720 C1719 1.400 . S
C1720 C1723 1.386 . S
H1721 C1737 0.930 . S
H1722 C1738 0.931 . S
C1723 H1711 0.929 . S
C1723 C1717 1.390 . S
C1723 C1720 1.386 . S
C1724 C1719 1.490 . S
C1724 C1726 1.395 . S
C1724 C1727 1.403 . S
H1725 C1731 0.930 . S
C1726 H1712 0.930 . S
C1726 C1724 1.395 . S
C1726 C1729 1.403 . S
C1727 C1724 1.403 . S
C1727 C1728 1.524 . S
C1727 C1731 1.400 . S
C1728 H1713 0.960 . S
C1728 H1714 0.960 . S
C1728 H1715 0.960 . S
C1728 C1727 1.524 . S
C1729 C1726 1.403 . S
C1729 C1730 1.392 . S
C1729 C1733 1.495 . S
C1730 C1729 1.392 . S
C1730 C1731 1.385 . S
C1730 C1732 1.478 . S
C1731 H1725 0.930 . S
C1731 C1727 1.400 . S
C1731 C1730 1.385 . S
C1732 C1730 1.478 . S
C1732 C1734 1.381 . S
C1732 C1738 1.383 . S
C1733 C1729 1.495 . S
C1733 H1739 0.959 . S
C1733 H1740 0.961 . S
C1733 H1741 0.960 . S
C1734 C1732 1.381 . S
C1734 C1735 1.394 . S
C1734 H1742 0.930 . S
C1735 C1734 1.394 . S
C1735 C1736 1.383 . S
C1735 H1743 0.929 . S
C1736 C1735 1.383 . S
C1736 C1737 1.377 . S
C1737 H1721 0.930 . S
C1737 C1736 1.377 . S
C1737 C1738 1.379 . S
C1738 H1722 0.931 . S
C1738 C1732 1.383 . S
C1738 C1737 1.379 . S
H1739 C1733 0.959 . S
H1740 C1733 0.961 . S
H1741 C1733 0.960 . S
H1742 C1734 0.930 . S
H1743 C1735 0.929 . S
H1744 C1752 0.929 . S
H1745 C1754 0.930 . S
H1746 C1756 0.930 . S
H1747 C1759 0.929 . S
H1748 C1762 0.930 . S
H1749 C1764 0.960 . S
H1750 C1764 0.960 . S
H1751 C1764 0.960 . S
C1752 H1744 0.929 . S
C1752 C1753 1.377 . S
C1752 C1754 1.384 . S
C1753 C1752 1.377 . S
C1753 C1759 1.390 . S
C1754 H1745 0.930 . S
C1754 C1752 1.384 . S
C1754 C1755 1.372 . S
C1755 C1754 1.372 . S
C1755 C1756 1.400 . S
C1755 C1760 1.490 . S
C1756 H1746 0.930 . S
C1756 C1755 1.400 . S
C1756 C1759 1.386 . S
H1757 C1773 0.930 . S
H1758 C1774 0.931 . S
C1759 H1747 0.929 . S
C1759 C1753 1.390 . S
C1759 C1756 1.386 . S
C1760 C1755 1.490 . S
C1760 C1762 1.395 . S
C1760 C1763 1.403 . S
H1761 C1767 0.930 . S
C1762 H1748 0.930 . S
C1762 C1760 1.395 . S
C1762 C1765 1.403 . S
C1763 C1760 1.403 . S
C1763 C1764 1.524 . S
C1763 C1767 1.400 . S
C1764 H1749 0.960 . S
C1764 H1750 0.960 . S
C1764 H1751 0.960 . S
C1764 C1763 1.524 . S
C1765 C1762 1.403 . S
C1765 C1766 1.392 . S
C1765 C1769 1.495 . S
C1766 C1765 1.392 . S
C1766 C1767 1.385 . S
C1766 C1768 1.478 . S
C1767 H1761 0.930 . S
C1767 C1763 1.400 . S
C1767 C1766 1.385 . S
C1768 C1766 1.478 . S
C1768 C1770 1.381 . S
C1768 C1774 1.383 . S
C1769 C1765 1.495 . S
C1769 H1775 0.959 . S
C1769 H1776 0.961 . S
C1769 H1777 0.960 . S
C1770 C1768 1.381 . S
C1770 C1771 1.394 . S
C1770 H1778 0.930 . S
C1771 C1770 1.394 . S
C1771 C1772 1.383 . S
C1771 H1779 0.929 . S
C1772 C1771 1.383 . S
C1772 C1773 1.377 . S
C1773 H1757 0.930 . S
C1773 C1772 1.377 . S
C1773 C1774 1.379 . S
C1774 H1758 0.931 . S
C1774 C1768 1.383 . S
C1774 C1773 1.379 . S
H1775 C1769 0.959 . S
H1776 C1769 0.961 . S
H1777 C1769 0.960 . S
H1778 C1770 0.930 . S
H1779 C1771 0.929 . S
H1780 C1788 0.929 . S
H1781 C1790 0.930 . S
H1782 C1792 0.930 . S
H1783 C1795 0.929 . S
H1784 C1798 0.930 . S
H1785 C1800 0.960 . S
H1786 C1800 0.960 . S
H1787 C1800 0.960 . S
C1788 H1780 0.929 . S
C1788 C1789 1.377 . S
C1788 C1790 1.384 . S
C1789 C1788 1.377 . S
C1789 C1795 1.390 . S
C1790 H1781 0.930 . S
C1790 C1788 1.384 . S
C1790 C1791 1.372 . S
C1791 C1790 1.372 . S
C1791 C1792 1.400 . S
C1791 C1796 1.490 . S
C1792 H1782 0.930 . S
C1792 C1791 1.400 . S
C1792 C1795 1.386 . S
H1793 C1809 0.930 . S
H1794 C1810 0.931 . S
C1795 H1783 0.929 . S
C1795 C1789 1.390 . S
C1795 C1792 1.386 . S
C1796 C1791 1.490 . S
C1796 C1798 1.395 . S
C1796 C1799 1.403 . S
H1797 C1803 0.930 . S
C1798 H1784 0.930 . S
C1798 C1796 1.395 . S
C1798 C1801 1.403 . S
C1799 C1796 1.403 . S
C1799 C1800 1.524 . S
C1799 C1803 1.400 . S
C1800 H1785 0.960 . S
C1800 H1786 0.960 . S
C1800 H1787 0.960 . S
C1800 C1799 1.524 . S
C1801 C1798 1.403 . S
C1801 C1802 1.392 . S
C1801 C1805 1.495 . S
C1802 C1801 1.392 . S
C1802 C1803 1.385 . S
C1802 C1804 1.478 . S
C1803 H1797 0.930 . S
C1803 C1799 1.400 . S
C1803 C1802 1.385 . S
C1804 C1802 1.478 . S
C1804 C1806 1.381 . S
C1804 C1810 1.383 . S
C1805 C1801 1.495 . S
C1805 H1811 0.959 . S
C1805 H1812 0.961 . S
C1805 H1813 0.960 . S
C1806 C1804 1.381 . S
C1806 C1807 1.394 . S
C1806 H1814 0.930 . S
C1807 C1806 1.394 . S
C1807 C1808 1.383 . S
C1807 H1815 0.929 . S
C1808 C1807 1.383 . S
C1808 C1809 1.377 . S
C1809 H1793 0.930 . S
C1809 C1808 1.377 . S
C1809 C1810 1.379 . S
C1810 H1794 0.931 . S
C1810 C1804 1.383 . S
C1810 C1809 1.379 . S
H1811 C1805 0.959 . S
H1812 C1805 0.961 . S
H1813 C1805 0.960 . S
H1814 C1806 0.930 . S
H1815 C1807 0.929 . S
H1816 C1824 0.929 . S
H1817 C1826 0.930 . S
H1818 C1828 0.930 . S
H1819 C1831 0.929 . S
H1820 C1834 0.930 . S
H1821 C1836 0.960 . S
H1822 C1836 0.960 . S
H1823 C1836 0.960 . S
C1824 H1816 0.929 . S
C1824 C1825 1.377 . S
C1824 C1826 1.384 . S
C1825 C1824 1.377 . S
C1825 C1831 1.390 . S
C1826 H1817 0.930 . S
C1826 C1824 1.384 . S
C1826 C1827 1.372 . S
C1827 C1826 1.372 . S
C1827 C1828 1.400 . S
C1827 C1832 1.490 . S
C1828 H1818 0.930 . S
C1828 C1827 1.400 . S
C1828 C1831 1.386 . S
H1829 C1845 0.930 1_556 S
H1830 C1846 0.931 . S
C1831 H1819 0.929 . S
C1831 C1825 1.390 . S
C1831 C1828 1.386 . S
C1832 C1827 1.490 . S
C1832 C1834 1.395 . S
C1832 C1835 1.403 . S
H1833 C1839 0.930 . S
C1834 H1820 0.930 . S
C1834 C1832 1.395 . S
C1834 C1837 1.403 . S
C1835 C1832 1.403 . S
C1835 C1836 1.524 . S
C1835 C1839 1.400 . S
C1836 H1821 0.960 . S
C1836 H1822 0.960 . S
C1836 H1823 0.960 . S
C1836 C1835 1.524 . S
C1837 C1834 1.403 . S
C1837 C1838 1.392 . S
C1837 C1841 1.495 . S
C1838 C1837 1.392 . S
C1838 C1839 1.385 . S
C1838 C1840 1.478 . S
C1839 H1833 0.930 . S
C1839 C1835 1.400 . S
C1839 C1838 1.385 . S
C1840 C1838 1.478 . S
C1840 C1842 1.381 . S
C1840 C1846 1.383 . S
C1841 C1837 1.495 . S
C1841 H1847 0.959 . S
C1841 H1848 0.961 . S
C1841 H1849 0.960 . S
C1842 C1840 1.381 . S
C1842 C1843 1.394 . S
C1842 H1850 0.930 . S
C1843 C1842 1.394 . S
C1843 C1844 1.383 . S
C1843 H1851 0.929 . S
C1844 C1843 1.383 . S
C1844 C1845 1.377 . S
C1845 H1829 0.930 1_554 S
C1845 C1844 1.377 . S
C1845 C1846 1.379 . S
C1846 H1830 0.931 . S
C1846 C1840 1.383 . S
C1846 C1845 1.379 . S
H1847 C1841 0.959 . S
H1848 C1841 0.961 . S
H1849 C1841 0.960 . S
H1850 C1842 0.930 . S
H1851 C1843 0.929 . S
H1852 C1860 0.929 . S
H1853 C1862 0.930 . S
H1854 C1864 0.930 . S
H1855 C1867 0.929 . S
H1856 C1870 0.930 . S
H1857 C1872 0.960 . S
H1858 C1872 0.960 . S
H1859 C1872 0.960 . S
C1860 H1852 0.929 . S
C1860 C1861 1.377 . S
C1860 C1862 1.384 . S
C1861 C1860 1.377 . S
C1861 C1867 1.390 . S
C1862 H1853 0.930 . S
C1862 C1860 1.384 . S
C1862 C1863 1.372 . S
C1863 C1862 1.372 . S
C1863 C1864 1.400 . S
C1863 C1868 1.490 . S
C1864 H1854 0.930 . S
C1864 C1863 1.400 . S
C1864 C1867 1.386 . S
H1865 C1881 0.930 . S
H1866 C1882 0.931 . S
C1867 H1855 0.929 . S
C1867 C1861 1.390 . S
C1867 C1864 1.386 . S
C1868 C1863 1.490 . S
C1868 C1870 1.395 . S
C1868 C1871 1.403 . S
H1869 C1875 0.930 . S
C1870 H1856 0.930 . S
C1870 C1868 1.395 . S
C1870 C1873 1.403 . S
C1871 C1868 1.403 . S
C1871 C1872 1.524 . S
C1871 C1875 1.400 . S
C1872 H1857 0.960 . S
C1872 H1858 0.960 . S
C1872 H1859 0.960 . S
C1872 C1871 1.524 . S
C1873 C1870 1.403 . S
C1873 C1874 1.392 . S
C1873 C1877 1.495 . S
C1874 C1873 1.392 . S
C1874 C1875 1.385 . S
C1874 C1876 1.478 . S
C1875 H1869 0.930 . S
C1875 C1871 1.400 . S
C1875 C1874 1.385 . S
C1876 C1874 1.478 . S
C1876 C1878 1.381 . S
C1876 C1882 1.383 . S
C1877 C1873 1.495 . S
C1877 H1883 0.959 . S
C1877 H1884 0.961 . S
C1877 H1885 0.960 . S
C1878 C1876 1.381 . S
C1878 C1879 1.394 . S
C1878 H1886 0.930 . S
C1879 C1878 1.394 . S
C1879 C1880 1.383 . S
C1879 H1887 0.929 . S
C1880 C1879 1.383 . S
C1880 C1881 1.377 . S
C1881 H1865 0.930 . S
C1881 C1880 1.377 . S
C1881 C1882 1.379 . S
C1882 H1866 0.931 . S
C1882 C1876 1.383 . S
C1882 C1881 1.379 . S
H1883 C1877 0.959 . S
H1884 C1877 0.961 . S
H1885 C1877 0.960 . S
H1886 C1878 0.930 . S
H1887 C1879 0.929 . S
H1888 C1896 0.929 . S
H1889 C1898 0.930 . S
H1890 C1900 0.930 . S
H1891 C1903 0.929 . S
H1892 C1906 0.930 . S
H1893 C1908 0.960 . S
H1894 C1908 0.960 . S
H1895 C1908 0.960 . S
C1896 H1888 0.929 . S
C1896 C1897 1.377 . S
C1896 C1898 1.384 . S
C1897 C1896 1.377 . S
C1897 C1903 1.390 . S
C1898 H1889 0.930 . S
C1898 C1896 1.384 . S
C1898 C1899 1.372 . S
C1899 C1898 1.372 . S
C1899 C1900 1.400 . S
C1899 C1904 1.490 . S
C1900 H1890 0.930 . S
C1900 C1899 1.400 . S
C1900 C1903 1.386 . S
H1901 C1917 0.930 . S
H1902 C1918 0.931 . S
C1903 H1891 0.929 . S
C1903 C1897 1.390 . S
C1903 C1900 1.386 . S
C1904 C1899 1.490 . S
C1904 C1906 1.395 . S
C1904 C1907 1.403 . S
H1905 C1911 0.930 . S
C1906 H1892 0.930 . S
C1906 C1904 1.395 . S
C1906 C1909 1.403 . S
C1907 C1904 1.403 . S
C1907 C1908 1.524 . S
C1907 C1911 1.400 . S
C1908 H1893 0.960 . S
C1908 H1894 0.960 . S
C1908 H1895 0.960 . S
C1908 C1907 1.524 . S
C1909 C1906 1.403 . S
C1909 C1910 1.392 . S
C1909 C1913 1.495 . S
C1910 C1909 1.392 . S
C1910 C1911 1.385 . S
C1910 C1912 1.478 . S
C1911 H1905 0.930 . S
C1911 C1907 1.400 . S
C1911 C1910 1.385 . S
C1912 C1910 1.478 . S
C1912 C1914 1.381 . S
C1912 C1918 1.383 . S
C1913 C1909 1.495 . S
C1913 H1919 0.959 . S
C1913 H1920 0.961 . S
C1913 H1921 0.960 . S
C1914 C1912 1.381 . S
C1914 C1915 1.394 . S
C1914 H1922 0.930 . S
C1915 C1914 1.394 . S
C1915 C1916 1.383 . S
C1915 H1923 0.929 . S
C1916 C1915 1.383 . S
C1916 C1917 1.377 . S
C1917 H1901 0.930 . S
C1917 C1916 1.377 . S
C1917 C1918 1.379 . S
C1918 H1902 0.931 . S
C1918 C1912 1.383 . S
C1918 C1917 1.379 . S
H1919 C1913 0.959 . S
H1920 C1913 0.961 . S
H1921 C1913 0.960 . S
H1922 C1914 0.930 . S
H1923 C1915 0.929 . S
H1924 C1932 0.929 . S
H1925 C1934 0.930 . S
H1926 C1936 0.930 . S
H1927 C1939 0.929 . S
H1928 C1942 0.930 . S
H1929 C1944 0.960 . S
H1930 C1944 0.960 . S
H1931 C1944 0.960 . S
C1932 H1924 0.929 . S
C1932 C1933 1.377 . S
C1932 C1934 1.384 . S
C1933 C1932 1.377 . S
C1933 C1939 1.390 . S
C1934 H1925 0.930 . S
C1934 C1932 1.384 . S
C1934 C1935 1.372 . S
C1935 C1934 1.372 . S
C1935 C1936 1.400 . S
C1935 C1940 1.490 . S
C1936 H1926 0.930 . S
C1936 C1935 1.400 . S
C1936 C1939 1.386 . S
H1937 C1953 0.930 . S
H1938 C1954 0.931 . S
C1939 H1927 0.929 . S
C1939 C1933 1.390 . S
C1939 C1936 1.386 . S
C1940 C1935 1.490 . S
C1940 C1942 1.395 . S
C1940 C1943 1.403 . S
H1941 C1947 0.930 . S
C1942 H1928 0.930 . S
C1942 C1940 1.395 . S
C1942 C1945 1.403 . S
C1943 C1940 1.403 . S
C1943 C1944 1.524 . S
C1943 C1947 1.400 . S
C1944 H1929 0.960 . S
C1944 H1930 0.960 . S
C1944 H1931 0.960 . S
C1944 C1943 1.524 . S
C1945 C1942 1.403 . S
C1945 C1946 1.392 . S
C1945 C1949 1.495 . S
C1946 C1945 1.392 . S
C1946 C1947 1.385 . S
C1946 C1948 1.478 . S
C1947 H1941 0.930 . S
C1947 C1943 1.400 . S
C1947 C1946 1.385 . S
C1948 C1946 1.478 . S
C1948 C1950 1.381 . S
C1948 C1954 1.383 . S
C1949 C1945 1.495 . S
C1949 H1955 0.959 . S
C1949 H1956 0.961 . S
C1949 H1957 0.960 . S
C1950 C1948 1.381 . S
C1950 C1951 1.394 . S
C1950 H1958 0.930 . S
C1951 C1950 1.394 . S
C1951 C1952 1.383 . S
C1951 H1959 0.929 . S
C1952 C1951 1.383 . S
C1952 C1953 1.377 . S
C1953 H1937 0.930 . S
C1953 C1952 1.377 . S
C1953 C1954 1.379 . S
C1954 H1938 0.931 . S
C1954 C1948 1.383 . S
C1954 C1953 1.379 . S
H1955 C1949 0.959 . S
H1956 C1949 0.961 . S
H1957 C1949 0.960 . S
H1958 C1950 0.930 . S
H1959 C1951 0.929 . S
H1960 C1968 0.929 . S
H1961 C1970 0.930 . S
H1962 C1972 0.930 . S
H1963 C1975 0.929 . S
H1964 C1978 0.930 . S
H1965 C1980 0.960 . S
H1966 C1980 0.960 . S
H1967 C1980 0.960 . S
C1968 H1960 0.929 . S
C1968 C1969 1.377 . S
C1968 C1970 1.384 . S
C1969 C1968 1.377 . S
C1969 C1975 1.390 . S
C1970 H1961 0.930 . S
C1970 C1968 1.384 . S
C1970 C1971 1.372 . S
C1971 C1970 1.372 . S
C1971 C1972 1.400 . S
C1971 C1976 1.490 . S
C1972 H1962 0.930 . S
C1972 C1971 1.400 . S
C1972 C1975 1.386 . S
H1973 C1989 0.930 . S
H1974 C1990 0.931 . S
C1975 H1963 0.929 . S
C1975 C1969 1.390 . S
C1975 C1972 1.386 . S
C1976 C1971 1.490 . S
C1976 C1978 1.395 . S
C1976 C1979 1.403 . S
H1977 C1983 0.930 . S
C1978 H1964 0.930 . S
C1978 C1976 1.395 . S
C1978 C1981 1.403 . S
C1979 C1976 1.403 . S
C1979 C1980 1.524 . S
C1979 C1983 1.400 . S
C1980 H1965 0.960 . S
C1980 H1966 0.960 . S
C1980 H1967 0.960 . S
C1980 C1979 1.524 . S
C1981 C1978 1.403 . S
C1981 C1982 1.392 . S
C1981 C1985 1.495 . S
C1982 C1981 1.392 . S
C1982 C1983 1.385 . S
C1982 C1984 1.478 . S
C1983 H1977 0.930 . S
C1983 C1979 1.400 . S
C1983 C1982 1.385 . S
C1984 C1982 1.478 . S
C1984 C1986 1.381 . S
C1984 C1990 1.383 . S
C1985 C1981 1.495 . S
C1985 H1991 0.959 . S
C1985 H1992 0.961 . S
C1985 H1993 0.960 . S
C1986 C1984 1.381 . S
C1986 C1987 1.394 . S
C1986 H1994 0.930 . S
C1987 C1986 1.394 . S
C1987 C1988 1.383 . S
C1987 H1995 0.929 . S
C1988 C1987 1.383 . S
C1988 C1989 1.377 . S
C1989 H1973 0.930 . S
C1989 C1988 1.377 . S
C1989 C1990 1.379 . S
C1990 H1974 0.931 . S
C1990 C1984 1.383 . S
C1990 C1989 1.379 . S
H1991 C1985 0.959 . S
H1992 C1985 0.961 . S
H1993 C1985 0.960 . S
H1994 C1986 0.930 . S
H1995 C1987 0.929 . S
H1996 C2004 0.929 . S
H1997 C2006 0.930 . S
H1998 C2008 0.930 . S
H1999 C2011 0.929 . S
H2000 C2014 0.930 . S
H2001 C2016 0.960 . S
H2002 C2016 0.960 . S
H2003 C2016 0.960 . S
C2004 H1996 0.929 . S
C2004 C2005 1.377 . S
C2004 C2006 1.384 . S
C2005 C2004 1.377 . S
C2005 C2011 1.390 . S
C2006 H1997 0.930 . S
C2006 C2004 1.384 . S
C2006 C2007 1.372 . S
C2007 C2006 1.372 . S
C2007 C2008 1.400 . S
C2007 C2012 1.490 . S
C2008 H1998 0.930 . S
C2008 C2007 1.400 . S
C2008 C2011 1.386 . S
H2009 C2025 0.930 . S
H2010 C2026 0.931 . S
C2011 H1999 0.929 . S
C2011 C2005 1.390 . S
C2011 C2008 1.386 . S
C2012 C2007 1.490 . S
C2012 C2014 1.395 . S
C2012 C2015 1.403 . S
H2013 C2019 0.930 . S
C2014 H2000 0.930 . S
C2014 C2012 1.395 . S
C2014 C2017 1.403 . S
C2015 C2012 1.403 . S
C2015 C2016 1.524 . S
C2015 C2019 1.400 . S
C2016 H2001 0.960 . S
C2016 H2002 0.960 . S
C2016 H2003 0.960 . S
C2016 C2015 1.524 . S
C2017 C2014 1.403 . S
C2017 C2018 1.392 . S
C2017 C2021 1.495 . S
C2018 C2017 1.392 . S
C2018 C2019 1.385 . S
C2018 C2020 1.478 . S
C2019 H2013 0.930 . S
C2019 C2015 1.400 . S
C2019 C2018 1.385 . S
C2020 C2018 1.478 . S
C2020 C2022 1.381 . S
C2020 C2026 1.383 . S
C2021 C2017 1.495 . S
C2021 H2027 0.959 . S
C2021 H2028 0.961 . S
C2021 H2029 0.960 . S
C2022 C2020 1.381 . S
C2022 C2023 1.394 . S
C2022 H2030 0.930 . S
C2023 C2022 1.394 . S
C2023 C2024 1.383 . S
C2023 H2031 0.929 . S
C2024 C2023 1.383 . S
C2024 C2025 1.377 . S
C2025 H2009 0.930 . S
C2025 C2024 1.377 . S
C2025 C2026 1.379 . S
C2026 H2010 0.931 . S
C2026 C2020 1.383 . S
C2026 C2025 1.379 . S
H2027 C2021 0.959 . S
H2028 C2021 0.961 . S
H2029 C2021 0.960 . S
H2030 C2022 0.930 . S
H2031 C2023 0.929 . S
H2032 C2040 0.929 . S
H2033 C2042 0.930 . S
H2034 C2044 0.930 . S
H2035 C2047 0.929 . S
H2036 C2050 0.930 . S
H2037 C2052 0.960 . S
H2038 C2052 0.960 . S
H2039 C2052 0.960 . S
C2040 H2032 0.929 . S
C2040 C2041 1.377 . S
C2040 C2042 1.384 . S
C2041 C2040 1.377 . S
C2041 C2047 1.390 . S
C2042 H2033 0.930 . S
C2042 C2040 1.384 . S
C2042 C2043 1.372 . S
C2043 C2042 1.372 . S
C2043 C2044 1.400 . S
C2043 C2048 1.490 . S
C2044 H2034 0.930 . S
C2044 C2043 1.400 . S
C2044 C2047 1.386 . S
H2045 C2061 0.930 . S
H2046 C2062 0.931 . S
C2047 H2035 0.929 . S
C2047 C2041 1.390 . S
C2047 C2044 1.386 . S
C2048 C2043 1.490 . S
C2048 C2050 1.395 . S
C2048 C2051 1.403 . S
H2049 C2055 0.930 . S
C2050 H2036 0.930 . S
C2050 C2048 1.395 . S
C2050 C2053 1.403 . S
C2051 C2048 1.403 . S
C2051 C2052 1.524 . S
C2051 C2055 1.400 . S
C2052 H2037 0.960 . S
C2052 H2038 0.960 . S
C2052 H2039 0.960 . S
C2052 C2051 1.524 . S
C2053 C2050 1.403 . S
C2053 C2054 1.392 . S
C2053 C2057 1.495 . S
C2054 C2053 1.392 . S
C2054 C2055 1.385 . S
C2054 C2056 1.478 . S
C2055 H2049 0.930 . S
C2055 C2051 1.400 . S
C2055 C2054 1.385 . S
C2056 C2054 1.478 . S
C2056 C2058 1.381 . S
C2056 C2062 1.383 . S
C2057 C2053 1.495 . S
C2057 H2063 0.959 . S
C2057 H2064 0.961 . S
C2057 H2065 0.960 . S
C2058 C2056 1.381 . S
C2058 C2059 1.394 . S
C2058 H2066 0.930 . S
C2059 C2058 1.394 . S
C2059 C2060 1.383 . S
C2059 H2067 0.947 . S
C2060 C2059 1.383 . S
C2060 C2061 1.377 . S
C2061 H2045 0.930 . S
C2061 C2060 1.377 . S
C2061 C2062 1.379 . S
C2062 H2046 0.931 . S
C2062 C2056 1.383 . S
C2062 C2061 1.379 . S
H2063 C2057 0.959 . S
H2064 C2057 0.961 . S
H2065 C2057 0.960 . S
H2066 C2058 0.930 . S
H2067 C2059 0.947 . S
H2068 C2076 0.929 . S
H2069 C2078 0.930 . S
H2070 C2080 0.930 . S
H2071 C2083 0.929 . S
H2072 C2086 0.930 . S
H2073 C2088 0.960 . S
H2074 C2088 0.960 . S
H2075 C2088 0.960 . S
C2076 H2068 0.929 . S
C2076 C2077 1.377 . S
C2076 C2078 1.384 . S
C2077 C2076 1.377 . S
C2077 C2083 1.390 . S
C2078 H2069 0.930 . S
C2078 C2076 1.384 . S
C2078 C2079 1.372 . S
C2079 C2078 1.372 . S
C2079 C2080 1.400 . S
C2079 C2084 1.490 . S
C2080 H2070 0.930 . S
C2080 C2079 1.400 . S
C2080 C2083 1.386 . S
H2081 C2097 0.930 . S
H2082 C2098 0.931 . S
C2083 H2071 0.929 . S
C2083 C2077 1.390 . S
C2083 C2080 1.386 . S
C2084 C2079 1.490 . S
C2084 C2086 1.395 . S
C2084 C2087 1.403 . S
H2085 C2091 0.930 . S
C2086 H2072 0.930 . S
C2086 C2084 1.395 . S
C2086 C2089 1.403 . S
C2087 C2084 1.403 . S
C2087 C2088 1.524 . S
C2087 C2091 1.400 . S
C2088 H2073 0.960 . S
C2088 H2074 0.960 . S
C2088 H2075 0.960 . S
C2088 C2087 1.524 . S
C2089 C2086 1.403 . S
C2089 C2090 1.392 . S
C2089 C2093 1.495 . S
C2090 C2089 1.392 . S
C2090 C2091 1.385 . S
C2090 C2092 1.478 . S
C2091 H2085 0.930 . S
C2091 C2087 1.400 . S
C2091 C2090 1.385 . S
C2092 C2090 1.478 . S
C2092 C2094 1.381 . S
C2092 C2098 1.383 . S
C2093 C2089 1.495 . S
C2093 H2099 0.959 . S
C2093 H2100 0.961 . S
C2093 H2101 0.960 . S
C2094 C2092 1.381 . S
C2094 C2095 1.394 . S
C2094 H2102 0.930 . S
C2095 C2094 1.394 . S
C2095 C2096 1.383 . S
C2095 H2103 0.929 . S
C2096 C2095 1.383 . S
C2096 C2097 1.377 . S
C2097 H2081 0.930 . S
C2097 C2096 1.377 . S
C2097 C2098 1.379 . S
C2098 H2082 0.931 . S
C2098 C2092 1.383 . S
C2098 C2097 1.379 . S
H2099 C2093 0.959 . S
H2100 C2093 0.961 . S
H2101 C2093 0.960 . S
H2102 C2094 0.930 . S
H2103 C2095 0.929 . S
H2104 C2112 0.929 . S
H2105 C2114 0.930 . S
H2106 C2116 0.930 . S
H2107 C2119 0.929 . S
H2108 C2122 0.930 . S
H2109 C2124 0.960 . S
H2110 C2124 0.960 . S
H2111 C2124 0.960 . S
C2112 H2104 0.929 . S
C2112 C2113 1.377 1_565 S
C2112 C2114 1.384 . S
C2113 C2112 1.377 1_545 S
C2113 C2119 1.390 . S
C2114 H2105 0.930 . S
C2114 C2112 1.384 . S
C2114 C2115 1.372 1_565 S
C2115 C2114 1.372 1_545 S
C2115 C2116 1.400 . S
C2115 C2120 1.490 . S
C2116 H2106 0.930 . S
C2116 C2115 1.400 . S
C2116 C2119 1.386 . S
H2117 C2133 0.930 . S
H2118 C2134 0.931 . S
C2119 H2107 0.929 . S
C2119 C2113 1.390 . S
C2119 C2116 1.386 . S
C2120 C2115 1.490 . S
C2120 C2122 1.395 1_545 S
C2120 C2123 1.403 . S
H2121 C2127 0.930 . S
C2122 H2108 0.930 . S
C2122 C2120 1.395 1_565 S
C2122 C2125 1.403 . S
C2123 C2120 1.403 . S
C2123 C2124 1.524 . S
C2123 C2127 1.400 . S
C2124 H2109 0.960 . S
C2124 H2110 0.960 . S
C2124 H2111 0.960 . S
C2124 C2123 1.524 . S
C2125 C2122 1.403 . S
C2125 C2126 1.392 1_565 S
C2125 C2129 1.495 . S
C2126 C2125 1.392 1_545 S
C2126 C2127 1.385 . S
C2126 C2128 1.478 . S
C2127 H2121 0.930 . S
C2127 C2123 1.400 . S
C2127 C2126 1.385 . S
C2128 C2126 1.478 . S
C2128 C2130 1.383 . S
C2128 C2134 1.383 . S
C2129 C2125 1.495 . S
C2129 H2135 0.959 . S
C2129 H2136 0.961 . S
C2129 H2137 0.960 . S
C2130 C2128 1.383 . S
C2130 C2131 1.396 . S
C2130 H2138 0.927 1_545 S
C2131 C2130 1.396 . S
C2131 C2132 1.383 . S
C2131 H2139 0.929 1_545 S
C2132 C2131 1.383 . S
C2132 C2133 1.377 . S
C2133 H2117 0.930 . S
C2133 C2132 1.377 . S
C2133 C2134 1.379 . S
C2134 H2118 0.931 . S
C2134 C2128 1.383 . S
C2134 C2133 1.379 . S
H2135 C2129 0.959 . S
H2136 C2129 0.961 . S
H2137 C2129 0.960 . S
H2138 C2130 0.927 1_565 S
H2139 C2131 0.929 1_565 S
H2140 C2148 0.929 . S
H2141 C2150 0.930 . S
H2142 C2152 0.930 . S
H2143 C2155 0.929 . S
H2144 C2158 0.930 . S
H2145 C2160 0.960 . S
H2146 C2160 0.960 . S
H2147 C2160 0.960 . S
C2148 H2140 0.929 . S
C2148 C2149 1.377 . S
C2148 C2150 1.384 . S
C2149 C2148 1.377 . S
C2149 C2155 1.390 . S
C2150 H2141 0.930 . S
C2150 C2148 1.384 . S
C2150 C2151 1.372 . S
C2151 C2150 1.372 . S
C2151 C2152 1.400 . S
C2151 C2156 1.490 . S
C2152 H2142 0.930 . S
C2152 C2151 1.400 . S
C2152 C2155 1.386 . S
H2153 C2169 0.930 . S
H2154 C2170 0.931 . S
C2155 H2143 0.929 . S
C2155 C2149 1.390 . S
C2155 C2152 1.386 . S
C2156 C2151 1.490 . S
C2156 C2158 1.395 . S
C2156 C2159 1.403 . S
H2157 C2163 0.930 . S
C2158 H2144 0.930 . S
C2158 C2156 1.395 . S
C2158 C2161 1.403 . S
C2159 C2156 1.403 . S
C2159 C2160 1.524 . S
C2159 C2163 1.400 . S
C2160 H2145 0.960 . S
C2160 H2146 0.960 . S
C2160 H2147 0.960 . S
C2160 C2159 1.524 . S
C2161 C2158 1.403 . S
C2161 C2162 1.392 . S
C2161 C2165 1.495 . S
C2162 C2161 1.392 . S
C2162 C2163 1.385 . S
C2162 C2164 1.478 . S
C2163 H2157 0.930 . S
C2163 C2159 1.400 . S
C2163 C2162 1.385 . S
C2164 C2162 1.478 . S
C2164 C2166 1.381 . S
C2164 C2170 1.383 . S
C2165 C2161 1.495 . S
C2165 H2171 0.959 . S
C2165 H2172 0.961 . S
C2165 H2173 0.960 . S
C2166 C2164 1.381 . S
C2166 C2167 1.394 . S
C2166 H2174 0.930 . S
C2167 C2166 1.394 . S
C2167 C2168 1.383 . S
C2167 H2175 0.929 . S
C2168 C2167 1.383 . S
C2168 C2169 1.377 . S
C2169 H2153 0.930 . S
C2169 C2168 1.377 . S
C2169 C2170 1.379 . S
C2170 H2154 0.931 . S
C2170 C2164 1.383 . S
C2170 C2169 1.379 . S
H2171 C2165 0.959 . S
H2172 C2165 0.961 . S
H2173 C2165 0.960 . S
H2174 C2166 0.930 . S
H2175 C2167 0.929 . S
H2176 C2184 0.929 . S
H2177 C2186 0.930 . S
H2178 C2188 0.930 1_565 S
H2179 C2191 0.929 1_565 S
H2180 C2194 0.930 . S
H2181 C2196 0.960 . S
H2182 C2196 0.960 . S
H2183 C2196 0.960 . S
C2184 H2176 0.929 . S
C2184 C2185 1.377 . S
C2184 C2186 1.384 . S
C2185 C2184 1.377 . S
C2185 C2191 1.390 . S
C2186 H2177 0.930 . S
C2186 C2184 1.384 . S
C2186 C2187 1.372 . S
C2187 C2186 1.372 . S
C2187 C2188 1.400 . S
C2187 C2192 1.490 . S
C2188 H2178 0.930 1_545 S
C2188 C2187 1.400 . S
C2188 C2191 1.386 . S
H2189 C2205 0.930 . S
H2190 C2206 0.931 . S
C2191 H2179 0.929 1_545 S
C2191 C2185 1.390 . S
C2191 C2188 1.386 . S
C2192 C2187 1.490 . S
C2192 C2194 1.395 . S
C2192 C2195 1.403 . S
H2193 C2199 0.930 . S
C2194 H2180 0.930 . S
C2194 C2192 1.395 . S
C2194 C2197 1.403 . S
C2195 C2192 1.403 . S
C2195 C2196 1.524 . S
C2195 C2199 1.400 . S
C2196 H2181 0.960 . S
C2196 H2182 0.960 . S
C2196 H2183 0.960 . S
C2196 C2195 1.524 . S
C2197 C2194 1.403 . S
C2197 C2198 1.392 . S
C2197 C2201 1.495 . S
C2198 C2197 1.392 . S
C2198 C2199 1.385 . S
C2198 C2200 1.478 . S
C2199 H2193 0.930 . S
C2199 C2195 1.400 . S
C2199 C2198 1.385 . S
C2200 C2198 1.478 . S
C2200 C2202 1.381 . S
C2200 C2206 1.383 . S
C2201 C2197 1.495 . S
C2201 H2207 0.959 . S
C2201 H2208 0.961 . S
C2201 H2209 0.960 . S
C2202 C2200 1.381 . S
C2202 C2203 1.394 . S
C2202 H2210 0.930 . S
C2203 C2202 1.394 . S
C2203 C2204 1.383 . S
C2203 H2211 0.929 . S
C2204 C2203 1.383 . S
C2204 C2205 1.377 . S
C2205 H2189 0.930 . S
C2205 C2204 1.377 . S
C2205 C2206 1.379 . S
C2206 H2190 0.931 . S
C2206 C2200 1.383 . S
C2206 C2205 1.379 . S
H2207 C2201 0.959 . S
H2208 C2201 0.961 . S
H2209 C2201 0.960 . S
H2210 C2202 0.930 . S
H2211 C2203 0.929 . S
H2212 C2220 0.929 . S
H2213 C2222 0.930 . S
H2214 C2224 0.930 . S
H2215 C2227 0.929 . S
H2216 C2230 0.930 . S
H2217 C2232 0.960 . S
H2218 C2232 0.960 . S
H2219 C2232 0.960 . S
C2220 H2212 0.929 . S
C2220 C2221 1.377 . S
C2220 C2222 1.384 . S
C2221 C2220 1.377 . S
C2221 C2227 1.390 . S
C2222 H2213 0.930 . S
C2222 C2220 1.384 . S
C2222 C2223 1.372 . S
C2223 C2222 1.372 . S
C2223 C2224 1.400 . S
C2223 C2228 1.490 . S
C2224 H2214 0.930 . S
C2224 C2223 1.400 . S
C2224 C2227 1.386 . S
H2225 C2241 0.930 . S
H2226 C2242 0.931 . S
C2227 H2215 0.929 . S
C2227 C2221 1.390 . S
C2227 C2224 1.386 . S
C2228 C2223 1.490 . S
C2228 C2230 1.395 . S
C2228 C2231 1.403 . S
H2229 C2235 0.930 . S
C2230 H2216 0.930 . S
C2230 C2228 1.395 . S
C2230 C2233 1.403 . S
C2231 C2228 1.403 . S
C2231 C2232 1.524 . S
C2231 C2235 1.400 . S
C2232 H2217 0.960 . S
C2232 H2218 0.960 . S
C2232 H2219 0.960 . S
C2232 C2231 1.524 . S
C2233 C2230 1.403 . S
C2233 C2234 1.392 . S
C2233 C2237 1.495 . S
C2234 C2233 1.392 . S
C2234 C2235 1.385 . S
C2234 C2236 1.478 . S
C2235 H2229 0.930 . S
C2235 C2231 1.400 . S
C2235 C2234 1.385 . S
C2236 C2234 1.478 . S
C2236 C2238 1.381 . S
C2236 C2242 1.383 . S
C2237 C2233 1.495 . S
C2237 H2243 0.959 . S
C2237 H2244 0.961 . S
C2237 H2245 0.960 . S
C2238 C2236 1.381 . S
C2238 C2239 1.394 . S
C2238 H2246 0.930 . S
C2239 C2238 1.394 . S
C2239 C2240 1.383 . S
C2239 H2247 0.929 . S
C2240 C2239 1.383 . S
C2240 C2241 1.377 . S
C2241 H2225 0.930 . S
C2241 C2240 1.377 . S
C2241 C2242 1.379 . S
C2242 H2226 0.931 . S
C2242 C2236 1.383 . S
C2242 C2241 1.379 . S
H2243 C2237 0.959 . S
H2244 C2237 0.961 . S
H2245 C2237 0.960 . S
H2246 C2238 0.930 . S
H2247 C2239 0.929 . S
H2248 C2256 0.929 . S
H2249 C2258 0.930 . S
H2250 C2260 0.930 . S
H2251 C2263 0.929 . S
H2252 C2266 0.930 . S
H2253 C2268 0.960 . S
H2254 C2268 0.960 . S
H2255 C2268 0.960 . S
C2256 H2248 0.929 . S
C2256 C2257 1.377 . S
C2256 C2258 1.384 . S
C2257 C2256 1.377 . S
C2257 C2263 1.390 1_565 S
C2258 H2249 0.930 . S
C2258 C2256 1.384 . S
C2258 C2259 1.372 1_565 S
C2259 C2258 1.372 1_545 S
C2259 C2260 1.400 . S
C2259 C2264 1.490 . S
C2260 H2250 0.930 . S
C2260 C2259 1.400 . S
C2260 C2263 1.386 . S
H2261 C2277 0.930 . S
H2262 C2278 0.931 . S
C2263 H2251 0.929 . S
C2263 C2257 1.390 1_545 S
C2263 C2260 1.386 . S
C2264 C2259 1.490 . S
C2264 C2266 1.395 . S
C2264 C2267 1.403 1_545 S
H2265 C2271 0.930 1_565 S
C2266 H2252 0.930 . S
C2266 C2264 1.395 . S
C2266 C2269 1.403 . S
C2267 C2264 1.403 1_565 S
C2267 C2268 1.524 . S
C2267 C2271 1.400 1_565 S
C2268 H2253 0.960 . S
C2268 H2254 0.960 . S
C2268 H2255 0.960 . S
C2268 C2267 1.524 . S
C2269 C2266 1.403 . S
C2269 C2270 1.392 . S
C2269 C2273 1.495 . S
C2270 C2269 1.392 . S
C2270 C2271 1.385 . S
C2270 C2272 1.478 . S
C2271 H2265 0.930 1_545 S
C2271 C2267 1.400 1_545 S
C2271 C2270 1.385 . S
C2272 C2270 1.478 . S
C2272 C2274 1.381 . S
C2272 C2278 1.383 . S
C2273 C2269 1.495 . S
C2273 H2279 0.959 . S
C2273 H2280 0.961 . S
C2273 H2281 0.960 . S
C2274 C2272 1.381 . S
C2274 C2275 1.394 . S
C2274 H2282 0.930 . S
C2275 C2274 1.394 . S
C2275 C2276 1.383 . S
C2275 H2283 0.929 . S
C2276 C2275 1.383 . S
C2276 C2277 1.377 . S
C2277 H2261 0.930 . S
C2277 C2276 1.377 . S
C2277 C2278 1.379 . S
C2278 H2262 0.931 . S
C2278 C2272 1.383 . S
C2278 C2277 1.379 . S
H2279 C2273 0.959 . S
H2280 C2273 0.961 . S
H2281 C2273 0.960 . S
H2282 C2274 0.930 . S
H2283 C2275 0.929 . S
H2284 C2292 0.929 . S
H2285 C2294 0.930 . S
H2286 C2296 0.930 . S
H2287 C2299 0.929 . S
H2288 C2302 0.930 . S
H2289 C2304 0.960 . S
H2290 C2304 0.960 . S
H2291 C2304 0.960 . S
C2292 H2284 0.929 . S
C2292 C2293 1.377 . S
C2292 C2294 1.384 . S
C2293 C2292 1.377 . S
C2293 C2299 1.390 . S
C2294 H2285 0.930 . S
C2294 C2292 1.384 . S
C2294 C2295 1.372 . S
C2295 C2294 1.372 . S
C2295 C2296 1.400 . S
C2295 C2300 1.490 . S
C2296 H2286 0.930 . S
C2296 C2295 1.400 . S
C2296 C2299 1.386 . S
H2297 C2313 0.930 . S
H2298 C2314 0.931 . S
C2299 H2287 0.929 . S
C2299 C2293 1.390 . S
C2299 C2296 1.386 . S
C2300 C2295 1.490 . S
C2300 C2302 1.395 . S
C2300 C2303 1.403 . S
H2301 C2307 0.930 . S
C2302 H2288 0.930 . S
C2302 C2300 1.395 . S
C2302 C2305 1.403 . S
C2303 C2300 1.403 . S
C2303 C2304 1.524 . S
C2303 C2307 1.400 . S
C2304 H2289 0.960 . S
C2304 H2290 0.960 . S
C2304 H2291 0.960 . S
C2304 C2303 1.524 . S
C2305 C2302 1.403 . S
C2305 C2306 1.392 . S
C2305 C2309 1.495 . S
C2306 C2305 1.392 . S
C2306 C2307 1.385 . S
C2306 C2308 1.478 . S
C2307 H2301 0.930 . S
C2307 C2303 1.400 . S
C2307 C2306 1.385 . S
C2308 C2306 1.478 . S
C2308 C2310 1.381 . S
C2308 C2314 1.383 . S
C2309 C2305 1.495 . S
C2309 H2315 0.959 . S
C2309 H2316 0.961 . S
C2309 H2317 0.960 . S
C2310 C2308 1.381 . S
C2310 C2311 1.394 . S
C2310 H2318 0.930 . S
C2311 C2310 1.394 . S
C2311 C2312 1.383 . S
C2311 H2319 0.929 . S
C2312 C2311 1.383 . S
C2312 C2313 1.377 . S
C2313 H2297 0.930 . S
C2313 C2312 1.377 . S
C2313 C2314 1.379 . S
C2314 H2298 0.931 . S
C2314 C2308 1.383 . S
C2314 C2313 1.379 . S
H2315 C2309 0.959 . S
H2316 C2309 0.961 . S
H2317 C2309 0.960 . S
H2318 C2310 0.930 . S
H2319 C2311 0.929 . S
H2320 C2328 0.929 . S
H2321 C2330 0.930 . S
H2322 C2332 0.930 . S
H2323 C2335 0.929 . S
H2324 C2338 0.930 . S
H2325 C2340 0.960 . S
H2326 C2340 0.950 1_565 S
H2327 C2340 0.960 . S
C2328 H2320 0.929 . S
C2328 C2329 1.377 1_565 S
C2328 C2330 1.384 . S
C2329 C2328 1.377 1_545 S
C2329 C2335 1.390 . S
C2330 H2321 0.930 . S
C2330 C2328 1.384 . S
C2330 C2331 1.372 1_565 S
C2331 C2330 1.372 1_545 S
C2331 C2332 1.400 . S
C2331 C2336 1.488 1_545 S
C2332 H2322 0.930 . S
C2332 C2331 1.400 . S
C2332 C2335 1.386 . S
H2333 C2349 0.930 . S
H2334 C2350 0.931 . S
C2335 H2323 0.929 . S
C2335 C2329 1.390 . S
C2335 C2332 1.386 . S
C2336 C2331 1.488 1_565 S
C2336 C2338 1.396 . S
C2336 C2339 1.404 1_565 S
H2337 C2343 0.930 . S
C2338 H2324 0.930 . S
C2338 C2336 1.396 . S
C2338 C2341 1.403 . S
C2339 C2336 1.404 1_545 S
C2339 C2340 1.524 . S
C2339 C2343 1.400 . S
C2340 H2325 0.960 . S
C2340 H2326 0.950 1_545 S
C2340 H2327 0.960 . S
C2340 C2339 1.524 . S
C2341 C2338 1.403 . S
C2341 C2342 1.392 . S
C2341 C2345 1.495 . S
C2342 C2341 1.392 . S
C2342 C2343 1.385 1_565 S
C2342 C2344 1.478 . S
C2343 H2337 0.930 . S
C2343 C2339 1.400 . S
C2343 C2342 1.385 1_545 S
C2344 C2342 1.478 . S
C2344 C2346 1.381 . S
C2344 C2350 1.383 1_565 S
C2345 C2341 1.495 . S
C2345 H2351 0.959 . S
C2345 H2352 0.961 . S
C2345 H2353 0.960 . S
C2346 C2344 1.381 . S
C2346 C2347 1.394 . S
C2346 H2354 0.930 . S
C2347 C2346 1.394 . S
C2347 C2348 1.383 . S
C2347 H2355 0.929 . S
C2348 C2347 1.383 . S
C2348 C2349 1.377 1_565 S
C2349 H2333 0.930 . S
C2349 C2348 1.377 1_545 S
C2349 C2350 1.379 . S
C2350 H2334 0.931 . S
C2350 C2344 1.383 1_545 S
C2350 C2349 1.379 . S
H2351 C2345 0.959 . S
H2352 C2345 0.961 . S
H2353 C2345 0.960 . S
H2354 C2346 0.930 . S
H2355 C2347 0.929 . S
H2356 C2364 0.929 . S
H2357 C2366 0.930 . S
H2358 C2368 0.930 . S
H2359 C2371 0.929 . S
H2360 C2374 0.930 . S
H2361 C2376 0.960 . S
H2362 C2376 0.960 . S
H2363 C2376 0.960 . S
C2364 H2356 0.929 . S
C2364 C2365 1.377 . S
C2364 C2366 1.384 . S
C2365 C2364 1.377 . S
C2365 C2371 1.390 . S
C2366 H2357 0.930 . S
C2366 C2364 1.384 . S
C2366 C2367 1.372 . S
C2367 C2366 1.372 . S
C2367 C2368 1.400 . S
C2367 C2372 1.490 . S
C2368 H2358 0.930 . S
C2368 C2367 1.400 . S
C2368 C2371 1.386 . S
H2369 C2385 0.930 . S
H2370 C2386 0.931 . S
C2371 H2359 0.929 . S
C2371 C2365 1.390 . S
C2371 C2368 1.386 . S
C2372 C2367 1.490 . S
C2372 C2374 1.395 . S
C2372 C2375 1.403 . S
H2373 C2379 0.930 . S
C2374 H2360 0.930 . S
C2374 C2372 1.395 . S
C2374 C2377 1.403 . S
C2375 C2372 1.403 . S
C2375 C2376 1.524 . S
C2375 C2379 1.400 . S
C2376 H2361 0.960 . S
C2376 H2362 0.960 . S
C2376 H2363 0.960 . S
C2376 C2375 1.524 . S
C2377 C2374 1.403 . S
C2377 C2378 1.392 . S
C2377 C2381 1.495 . S
C2378 C2377 1.392 . S
C2378 C2379 1.385 . S
C2378 C2380 1.478 . S
C2379 H2373 0.930 . S
C2379 C2375 1.400 . S
C2379 C2378 1.385 . S
C2380 C2378 1.478 . S
C2380 C2382 1.381 . S
C2380 C2386 1.383 . S
C2381 C2377 1.495 . S
C2381 H2387 0.959 . S
C2381 H2388 0.961 . S
C2381 H2389 0.960 . S
C2382 C2380 1.381 . S
C2382 C2383 1.394 . S
C2382 H2390 0.930 . S
C2383 C2382 1.394 . S
C2383 C2384 1.383 . S
C2383 H2391 0.929 . S
C2384 C2383 1.383 . S
C2384 C2385 1.377 . S
C2385 H2369 0.930 . S
C2385 C2384 1.377 . S
C2385 C2386 1.379 . S
C2386 H2370 0.931 . S
C2386 C2380 1.383 . S
C2386 C2385 1.379 . S
H2387 C2381 0.959 . S
H2388 C2381 0.961 . S
H2389 C2381 0.960 . S
H2390 C2382 0.930 . S
H2391 C2383 0.929 . S
H2392 C2400 0.943 . S
H2393 C2402 0.930 . S
H2394 C2404 0.930 . S
H2395 C2407 0.929 . S
H2396 C2410 0.930 . S
H2397 C2412 0.960 . S
H2398 C2412 0.960 . S
H2399 C2412 0.960 . S
C2400 H2392 0.943 . S
C2400 C2401 1.377 . S
C2400 C2402 1.384 1_554 S
C2401 C2400 1.377 . S
C2401 C2407 1.390 . S
C2402 H2393 0.930 . S
C2402 C2400 1.384 1_556 S
C2402 C2403 1.372 . S
C2403 C2402 1.372 . S
C2403 C2404 1.400 1_556 S
C2403 C2408 1.490 . S
C2404 H2394 0.930 . S
C2404 C2403 1.400 1_554 S
C2404 C2407 1.386 . S
H2405 C2421 0.930 . S
H2406 C2422 0.931 . S
C2407 H2395 0.929 . S
C2407 C2401 1.390 . S
C2407 C2404 1.386 . S
C2408 C2403 1.490 . S
C2408 C2410 1.395 1_556 S
C2408 C2411 1.403 . S
H2409 C2415 0.930 . S
C2410 H2396 0.930 . S
C2410 C2408 1.395 1_554 S
C2410 C2413 1.403 . S
C2411 C2408 1.403 . S
C2411 C2412 1.524 . S
C2411 C2415 1.400 . S
C2412 H2397 0.960 . S
C2412 H2398 0.960 . S
C2412 H2399 0.960 . S
C2412 C2411 1.524 . S
C2413 C2410 1.403 . S
C2413 C2414 1.392 1_554 S
C2413 C2417 1.495 . S
C2414 C2413 1.392 1_556 S
C2414 C2415 1.385 . S
C2414 C2416 1.478 . S
C2415 H2409 0.930 . S
C2415 C2411 1.400 . S
C2415 C2414 1.385 . S
C2416 C2414 1.478 . S
C2416 C2418 1.381 . S
C2416 C2422 1.383 . S
C2417 C2413 1.495 . S
C2417 H2423 0.959 . S
C2417 H2424 0.961 . S
C2417 H2425 0.960 . S
C2418 C2416 1.381 . S
C2418 C2419 1.394 . S
C2418 H2426 0.930 . S
C2419 C2418 1.394 . S
C2419 C2420 1.383 . S
C2419 H2427 0.929 . S
C2420 C2419 1.383 . S
C2420 C2421 1.377 . S
C2421 H2405 0.930 . S
C2421 C2420 1.377 . S
C2421 C2422 1.379 . S
C2422 H2406 0.931 . S
C2422 C2416 1.383 . S
C2422 C2421 1.379 . S
H2423 C2417 0.959 . S
H2424 C2417 0.961 . S
H2425 C2417 0.960 . S
H2426 C2418 0.930 . S
H2427 C2419 0.929 . S
H2428 C2436 0.929 1_556 S
H2429 C2438 0.930 1_556 S
H2430 C2440 0.930 . S
H2431 C2443 0.929 . S
H2432 C2446 0.930 . S
H2433 C2448 0.960 . S
H2434 C2448 0.960 . S
H2435 C2448 0.960 . S
C2436 H2428 0.929 1_554 S
C2436 C2437 1.377 . S
C2436 C2438 1.384 . S
C2437 C2436 1.377 . S
C2437 C2443 1.390 . S
C2438 H2429 0.930 1_554 S
C2438 C2436 1.384 . S
C2438 C2439 1.372 . S
C2439 C2438 1.372 . S
C2439 C2440 1.400 . S
C2439 C2444 1.490 . S
C2440 H2430 0.930 . S
C2440 C2439 1.400 . S
C2440 C2443 1.386 . S
H2441 C2457 0.930 . S
H2442 C2458 0.931 . S
C2443 H2431 0.929 . S
C2443 C2437 1.390 . S
C2443 C2440 1.386 . S
C2444 C2439 1.490 . S
C2444 C2446 1.395 . S
C2444 C2447 1.403 . S
H2445 C2451 0.930 . S
C2446 H2432 0.930 . S
C2446 C2444 1.395 . S
C2446 C2449 1.403 . S
C2447 C2444 1.403 . S
C2447 C2448 1.524 . S
C2447 C2451 1.400 . S
C2448 H2433 0.960 . S
C2448 H2434 0.960 . S
C2448 H2435 0.960 . S
C2448 C2447 1.524 . S
C2449 C2446 1.403 . S
C2449 C2450 1.392 . S
C2449 C2453 1.484 1_554 S
C2450 C2449 1.392 . S
C2450 C2451 1.385 . S
C2450 C2452 1.478 . S
C2451 H2445 0.930 . S
C2451 C2447 1.400 . S
C2451 C2450 1.385 . S
C2452 C2450 1.478 . S
C2452 C2454 1.381 . S
C2452 C2458 1.383 . S
C2453 C2449 1.484 1_556 S
C2453 H2459 0.964 . S
C2453 H2460 0.953 1_556 S
C2453 H2461 0.974 . S
C2454 C2452 1.381 . S
C2454 C2455 1.394 . S
C2454 H2462 0.930 1_554 S
C2455 C2454 1.394 . S
C2455 C2456 1.383 . S
C2455 H2463 0.929 1_554 S
C2456 C2455 1.383 . S
C2456 C2457 1.377 . S
C2457 H2441 0.930 . S
C2457 C2456 1.377 . S
C2457 C2458 1.379 . S
C2458 H2442 0.931 . S
C2458 C2452 1.383 . S
C2458 C2457 1.379 . S
H2459 C2453 0.964 . S
H2460 C2453 0.953 1_554 S
H2461 C2453 0.974 . S
H2462 C2454 0.930 1_556 S
H2463 C2455 0.929 1_556 S
H2464 C2472 0.929 . S
H2465 C2474 0.930 . S
H2466 C2476 0.930 . S
H2467 C2479 0.929 . S
H2468 C2482 0.930 . S
H2469 C2484 0.960 . S
H2470 C2484 0.960 . S
H2471 C2484 0.960 . S
C2472 H2464 0.929 . S
C2472 C2473 1.377 . S
C2472 C2474 1.384 . S
C2473 C2472 1.377 . S
C2473 C2479 1.390 . S
C2474 H2465 0.930 . S
C2474 C2472 1.384 . S
C2474 C2475 1.372 . S
C2475 C2474 1.372 . S
C2475 C2476 1.400 . S
C2475 C2480 1.490 . S
C2476 H2466 0.930 . S
C2476 C2475 1.400 . S
C2476 C2479 1.386 . S
H2477 C2493 0.930 . S
H2478 C2494 0.931 . S
C2479 H2467 0.929 . S
C2479 C2473 1.390 . S
C2479 C2476 1.386 . S
C2480 C2475 1.490 . S
C2480 C2482 1.395 . S
C2480 C2483 1.403 . S
H2481 C2487 0.930 . S
C2482 H2468 0.930 . S
C2482 C2480 1.395 . S
C2482 C2485 1.403 . S
C2483 C2480 1.403 . S
C2483 C2484 1.524 . S
C2483 C2487 1.400 . S
C2484 H2469 0.960 . S
C2484 H2470 0.960 . S
C2484 H2471 0.960 . S
C2484 C2483 1.524 . S
C2485 C2482 1.403 . S
C2485 C2486 1.392 . S
C2485 C2489 1.495 . S
C2486 C2485 1.392 . S
C2486 C2487 1.385 . S
C2486 C2488 1.478 . S
C2487 H2481 0.930 . S
C2487 C2483 1.400 . S
C2487 C2486 1.385 . S
C2488 C2486 1.478 . S
C2488 C2490 1.381 . S
C2488 C2494 1.383 . S
C2489 C2485 1.495 . S
C2489 H2495 0.959 . S
C2489 H2496 0.961 . S
C2489 H2497 0.960 . S
C2490 C2488 1.381 . S
C2490 C2491 1.394 . S
C2490 H2498 0.930 . S
C2491 C2490 1.394 . S
C2491 C2492 1.383 . S
C2491 H2499 0.929 . S
C2492 C2491 1.383 . S
C2492 C2493 1.377 . S
C2493 H2477 0.930 . S
C2493 C2492 1.377 . S
C2493 C2494 1.379 . S
C2494 H2478 0.931 . S
C2494 C2488 1.383 . S
C2494 C2493 1.379 . S
H2495 C2489 0.959 . S
H2496 C2489 0.961 . S
H2497 C2489 0.960 . S
H2498 C2490 0.930 . S
H2499 C2491 0.929 . S
H2500 C2508 0.929 . S
H2501 C2510 0.930 . S
H2502 C2512 0.930 . S
H2503 C2515 0.929 . S
H2504 C2518 0.930 . S
H2505 C2520 0.960 . S
H2506 C2520 0.960 . S
H2507 C2520 0.960 . S
C2508 H2500 0.929 . S
C2508 C2509 1.377 . S
C2508 C2510 1.384 . S
C2509 C2508 1.377 . S
C2509 C2515 1.390 . S
C2510 H2501 0.930 . S
C2510 C2508 1.384 . S
C2510 C2511 1.372 . S
C2511 C2510 1.372 . S
C2511 C2512 1.400 . S
C2511 C2516 1.490 . S
C2512 H2502 0.930 . S
C2512 C2511 1.400 . S
C2512 C2515 1.386 . S
H2513 C2529 0.930 . S
H2514 C2530 0.931 . S
C2515 H2503 0.929 . S
C2515 C2509 1.390 . S
C2515 C2512 1.386 . S
C2516 C2511 1.490 . S
C2516 C2518 1.395 . S
C2516 C2519 1.403 . S
H2517 C2523 0.930 . S
C2518 H2504 0.930 . S
C2518 C2516 1.395 . S
C2518 C2521 1.403 . S
C2519 C2516 1.403 . S
C2519 C2520 1.524 . S
C2519 C2523 1.400 . S
C2520 H2505 0.960 . S
C2520 H2506 0.960 . S
C2520 H2507 0.960 . S
C2520 C2519 1.524 . S
C2521 C2518 1.403 . S
C2521 C2522 1.392 . S
C2521 C2525 1.495 . S
C2522 C2521 1.392 . S
C2522 C2523 1.385 . S
C2522 C2524 1.478 . S
C2523 H2517 0.930 . S
C2523 C2519 1.400 . S
C2523 C2522 1.385 . S
C2524 C2522 1.478 . S
C2524 C2526 1.381 . S
C2524 C2530 1.383 . S
C2525 C2521 1.495 . S
C2525 H2531 0.959 . S
C2525 H2532 0.961 . S
C2525 H2533 0.960 . S
C2526 C2524 1.381 . S
C2526 C2527 1.394 . S
C2526 H2534 0.930 . S
C2527 C2526 1.394 . S
C2527 C2528 1.383 . S
C2527 H2535 0.929 . S
C2528 C2527 1.383 . S
C2528 C2529 1.377 . S
C2529 H2513 0.930 . S
C2529 C2528 1.377 . S
C2529 C2530 1.379 . S
C2530 H2514 0.931 . S
C2530 C2524 1.383 . S
C2530 C2529 1.379 . S
H2531 C2525 0.959 . S
H2532 C2525 0.961 . S
H2533 C2525 0.960 . S
H2534 C2526 0.930 . S
H2535 C2527 0.929 . S
H2536 C2544 0.929 . S
H2537 C2546 0.930 . S
H2538 C2548 0.930 . S
H2539 C2551 0.929 . S
H2540 C2554 0.930 . S
H2541 C2556 0.960 . S
H2542 C2556 0.960 . S
H2543 C2556 0.953 1_545 S
C2544 H2536 0.929 . S
C2544 C2545 1.377 1_565 S
C2544 C2546 1.384 . S
C2545 C2544 1.377 1_545 S
C2545 C2551 1.390 . S
C2546 H2537 0.930 . S
C2546 C2544 1.384 . S
C2546 C2547 1.372 . S
C2547 C2546 1.372 . S
C2547 C2548 1.400 . S
C2547 C2552 1.490 . S
C2548 H2538 0.930 . S
C2548 C2547 1.400 . S
C2548 C2551 1.386 1_565 S
H2549 C2565 0.930 . S
H2550 C2566 0.931 . S
C2551 H2539 0.929 . S
C2551 C2545 1.390 . S
C2551 C2548 1.386 1_545 S
C2552 C2547 1.490 . S
C2552 C2554 1.395 . S
C2552 C2555 1.403 . S
H2553 C2559 0.930 . S
C2554 H2540 0.930 . S
C2554 C2552 1.395 . S
C2554 C2557 1.403 . S
C2555 C2552 1.403 . S
C2555 C2556 1.524 . S
C2555 C2559 1.400 . S
C2556 H2541 0.960 . S
C2556 H2542 0.960 . S
C2556 H2543 0.953 1_565 S
C2556 C2555 1.524 . S
C2557 C2554 1.403 . S
C2557 C2558 1.392 . S
C2557 C2561 1.495 . S
C2558 C2557 1.392 . S
C2558 C2559 1.385 . S
C2558 C2560 1.478 . S
C2559 H2553 0.930 . S
C2559 C2555 1.400 . S
C2559 C2558 1.385 . S
C2560 C2558 1.478 . S
C2560 C2562 1.381 . S
C2560 C2566 1.383 . S
C2561 C2557 1.495 . S
C2561 H2567 0.959 . S
C2561 H2568 0.961 . S
C2561 H2569 0.960 . S
C2562 C2560 1.381 . S
C2562 C2563 1.394 . S
C2562 H2570 0.930 . S
C2563 C2562 1.394 . S
C2563 C2564 1.383 . S
C2563 H2571 0.929 . S
C2564 C2563 1.383 . S
C2564 C2565 1.377 . S
C2565 H2549 0.930 . S
C2565 C2564 1.377 . S
C2565 C2566 1.379 . S
C2566 H2550 0.931 . S
C2566 C2560 1.383 . S
C2566 C2565 1.379 . S
H2567 C2561 0.959 . S
H2568 C2561 0.961 . S
H2569 C2561 0.960 . S
H2570 C2562 0.930 . S
H2571 C2563 0.929 . S
H2572 C2580 0.929 . S
H2573 C2582 0.930 . S
H2574 C2584 0.930 . S
H2575 C2587 0.929 . S
H2576 C2590 0.930 . S
H2577 C2592 0.960 . S
H2578 C2592 0.960 . S
H2579 C2592 0.960 . S
C2580 H2572 0.929 . S
C2580 C2581 1.377 . S
C2580 C2582 1.384 . S
C2581 C2580 1.377 . S
C2581 C2587 1.390 . S
C2582 H2573 0.930 . S
C2582 C2580 1.384 . S
C2582 C2583 1.372 . S
C2583 C2582 1.372 . S
C2583 C2584 1.400 . S
C2583 C2588 1.490 . S
C2584 H2574 0.930 . S
C2584 C2583 1.400 . S
C2584 C2587 1.386 . S
H2585 C2601 0.930 . S
H2586 C2602 0.931 . S
C2587 H2575 0.929 . S
C2587 C2581 1.390 . S
C2587 C2584 1.386 . S
C2588 C2583 1.490 . S
C2588 C2590 1.395 . S
C2588 C2591 1.403 . S
H2589 C2595 0.930 . S
C2590 H2576 0.930 . S
C2590 C2588 1.395 . S
C2590 C2593 1.403 . S
C2591 C2588 1.403 . S
C2591 C2592 1.524 . S
C2591 C2595 1.400 . S
C2592 H2577 0.960 . S
C2592 H2578 0.960 . S
C2592 H2579 0.960 . S
C2592 C2591 1.524 . S
C2593 C2590 1.403 . S
C2593 C2594 1.392 . S
C2593 C2597 1.495 . S
C2594 C2593 1.392 . S
C2594 C2595 1.385 . S
C2594 C2596 1.478 . S
C2595 H2589 0.930 . S
C2595 C2591 1.400 . S
C2595 C2594 1.385 . S
C2596 C2594 1.478 . S
C2596 C2598 1.381 . S
C2596 C2602 1.383 . S
C2597 C2593 1.495 . S
C2597 H2603 0.959 . S
C2597 H2604 0.961 . S
C2597 H2605 0.960 . S
C2598 C2596 1.381 . S
C2598 C2599 1.394 . S
C2598 H2606 0.930 . S
C2599 C2598 1.394 . S
C2599 C2600 1.383 . S
C2599 H2607 0.929 . S
C2600 C2599 1.383 . S
C2600 C2601 1.377 . S
C2601 H2585 0.930 . S
C2601 C2600 1.377 . S
C2601 C2602 1.379 . S
C2602 H2586 0.931 . S
C2602 C2596 1.383 . S
C2602 C2601 1.379 . S
H2603 C2597 0.959 . S
H2604 C2597 0.961 . S
H2605 C2597 0.960 . S
H2606 C2598 0.930 . S
H2607 C2599 0.929 . S
H2608 C2616 0.929 . S
H2609 C2618 0.930 . S
H2610 C2620 0.930 . S
H2611 C2623 0.929 . S
H2612 C2626 0.930 . S
H2613 C2628 0.960 . S
H2614 C2628 0.960 . S
H2615 C2628 0.960 . S
C2616 H2608 0.929 . S
C2616 C2617 1.377 . S
C2616 C2618 1.384 . S
C2617 C2616 1.377 . S
C2617 C2623 1.390 . S
C2618 H2609 0.930 . S
C2618 C2616 1.384 . S
C2618 C2619 1.372 . S
C2619 C2618 1.372 . S
C2619 C2620 1.400 . S
C2619 C2624 1.490 . S
C2620 H2610 0.930 . S
C2620 C2619 1.400 . S
C2620 C2623 1.386 . S
H2621 C2637 0.930 . S
H2622 C2638 0.931 . S
C2623 H2611 0.929 . S
C2623 C2617 1.390 . S
C2623 C2620 1.386 . S
C2624 C2619 1.490 . S
C2624 C2626 1.395 . S
C2624 C2627 1.403 . S
H2625 C2631 0.930 . S
C2626 H2612 0.930 . S
C2626 C2624 1.395 . S
C2626 C2629 1.403 . S
C2627 C2624 1.403 . S
C2627 C2628 1.524 . S
C2627 C2631 1.400 . S
C2628 H2613 0.960 . S
C2628 H2614 0.960 . S
C2628 H2615 0.960 . S
C2628 C2627 1.524 . S
C2629 C2626 1.403 . S
C2629 C2630 1.392 . S
C2629 C2633 1.495 . S
C2630 C2629 1.392 . S
C2630 C2631 1.385 . S
C2630 C2632 1.478 . S
C2631 H2625 0.930 . S
C2631 C2627 1.400 . S
C2631 C2630 1.385 . S
C2632 C2630 1.478 . S
C2632 C2634 1.381 . S
C2632 C2638 1.383 . S
C2633 C2629 1.495 . S
C2633 H2639 0.959 . S
C2633 H2640 0.961 . S
C2633 H2641 0.960 . S
C2634 C2632 1.381 . S
C2634 C2635 1.394 . S
C2634 H2642 0.930 . S
C2635 C2634 1.394 . S
C2635 C2636 1.383 . S
C2635 H2643 0.929 . S
C2636 C2635 1.383 . S
C2636 C2637 1.377 . S
C2637 H2621 0.930 . S
C2637 C2636 1.377 . S
C2637 C2638 1.379 . S
C2638 H2622 0.931 . S
C2638 C2632 1.383 . S
C2638 C2637 1.379 . S
H2639 C2633 0.959 . S
H2640 C2633 0.961 . S
H2641 C2633 0.960 . S
H2642 C2634 0.930 . S
H2643 C2635 0.929 . S
H2644 C2652 0.929 . S
H2645 C2654 0.930 . S
H2646 C2656 0.930 . S
H2647 C2659 0.929 . S
H2648 C2662 0.930 . S
H2649 C2664 0.960 . S
H2650 C2664 0.960 . S
H2651 C2664 0.960 . S
C2652 H2644 0.929 . S
C2652 C2653 1.377 . S
C2652 C2654 1.384 . S
C2653 C2652 1.377 . S
C2653 C2659 1.390 . S
C2654 H2645 0.930 . S
C2654 C2652 1.384 . S
C2654 C2655 1.372 . S
C2655 C2654 1.372 . S
C2655 C2656 1.400 . S
C2655 C2660 1.490 . S
C2656 H2646 0.930 . S
C2656 C2655 1.400 . S
C2656 C2659 1.386 . S
H2657 C2673 0.930 . S
H2658 C2674 0.931 . S
C2659 H2647 0.929 . S
C2659 C2653 1.390 . S
C2659 C2656 1.386 . S
C2660 C2655 1.490 . S
C2660 C2662 1.395 . S
C2660 C2663 1.403 . S
H2661 C2667 0.930 . S
C2662 H2648 0.930 . S
C2662 C2660 1.395 . S
C2662 C2665 1.403 . S
C2663 C2660 1.403 . S
C2663 C2664 1.524 . S
C2663 C2667 1.400 . S
C2664 H2649 0.960 . S
C2664 H2650 0.960 . S
C2664 H2651 0.960 . S
C2664 C2663 1.524 . S
C2665 C2662 1.403 . S
C2665 C2666 1.392 . S
C2665 C2669 1.495 . S
C2666 C2665 1.392 . S
C2666 C2667 1.385 . S
C2666 C2668 1.478 . S
C2667 H2661 0.930 . S
C2667 C2663 1.400 . S
C2667 C2666 1.385 . S
C2668 C2666 1.478 . S
C2668 C2670 1.381 . S
C2668 C2674 1.383 . S
C2669 C2665 1.495 . S
C2669 H2675 0.959 . S
C2669 H2676 0.961 . S
C2669 H2677 0.960 . S
C2670 C2668 1.381 . S
C2670 C2671 1.394 . S
C2670 H2678 0.930 . S
C2671 C2670 1.394 . S
C2671 C2672 1.383 . S
C2671 H2679 0.929 . S
C2672 C2671 1.383 . S
C2672 C2673 1.377 . S
C2673 H2657 0.930 . S
C2673 C2672 1.377 . S
C2673 C2674 1.379 . S
C2674 H2658 0.931 . S
C2674 C2668 1.383 . S
C2674 C2673 1.379 . S
H2675 C2669 0.959 . S
H2676 C2669 0.961 . S
H2677 C2669 0.960 . S
H2678 C2670 0.930 . S
H2679 C2671 0.929 . S
H2680 C2688 0.929 . S
H2681 C2690 0.930 . S
H2682 C2692 0.930 . S
H2683 C2695 0.929 . S
H2684 C2698 0.930 . S
H2685 C2700 0.960 . S
H2686 C2700 0.960 . S
H2687 C2700 0.960 . S
C2688 H2680 0.929 . S
C2688 C2689 1.377 . S
C2688 C2690 1.384 . S
C2689 C2688 1.377 . S
C2689 C2695 1.390 . S
C2690 H2681 0.930 . S
C2690 C2688 1.384 . S
C2690 C2691 1.372 . S
C2691 C2690 1.372 . S
C2691 C2692 1.400 . S
C2691 C2696 1.490 . S
C2692 H2682 0.930 . S
C2692 C2691 1.400 . S
C2692 C2695 1.386 . S
H2693 C2709 0.930 . S
H2694 C2710 0.931 . S
C2695 H2683 0.929 . S
C2695 C2689 1.390 . S
C2695 C2692 1.386 . S
C2696 C2691 1.490 . S
C2696 C2698 1.395 . S
C2696 C2699 1.403 . S
H2697 C2703 0.930 . S
C2698 H2684 0.930 . S
C2698 C2696 1.395 . S
C2698 C2701 1.403 . S
C2699 C2696 1.403 . S
C2699 C2700 1.524 . S
C2699 C2703 1.400 . S
C2700 H2685 0.960 . S
C2700 H2686 0.960 . S
C2700 H2687 0.960 . S
C2700 C2699 1.524 . S
C2701 C2698 1.403 . S
C2701 C2702 1.392 . S
C2701 C2705 1.495 . S
C2702 C2701 1.392 . S
C2702 C2703 1.385 . S
C2702 C2704 1.478 . S
C2703 H2697 0.930 . S
C2703 C2699 1.400 . S
C2703 C2702 1.385 . S
C2704 C2702 1.478 . S
C2704 C2706 1.381 . S
C2704 C2710 1.383 . S
C2705 C2701 1.495 . S
C2705 H2711 0.959 . S
C2705 H2712 0.961 . S
C2705 H2713 0.960 . S
C2706 C2704 1.381 . S
C2706 C2707 1.394 . S
C2706 H2714 0.930 . S
C2707 C2706 1.394 . S
C2707 C2708 1.383 . S
C2707 H2715 0.929 . S
C2708 C2707 1.383 . S
C2708 C2709 1.377 . S
C2709 H2693 0.930 . S
C2709 C2708 1.377 . S
C2709 C2710 1.379 . S
C2710 H2694 0.931 . S
C2710 C2704 1.383 . S
C2710 C2709 1.379 . S
H2711 C2705 0.959 . S
H2712 C2705 0.961 . S
H2713 C2705 0.960 . S
H2714 C2706 0.930 . S
H2715 C2707 0.929 . S
H2716 C2724 0.929 . S
H2717 C2726 0.930 . S
H2718 C2728 0.930 . S
H2719 C2731 0.929 . S
H2720 C2734 0.930 . S
H2721 C2736 0.960 . S
H2722 C2736 0.960 . S
H2723 C2736 0.960 . S
C2724 H2716 0.929 . S
C2724 C2725 1.377 . S
C2724 C2726 1.384 . S
C2725 C2724 1.377 . S
C2725 C2731 1.390 . S
C2726 H2717 0.930 . S
C2726 C2724 1.384 . S
C2726 C2727 1.372 . S
C2727 C2726 1.372 . S
C2727 C2728 1.400 . S
C2727 C2732 1.490 . S
C2728 H2718 0.930 . S
C2728 C2727 1.400 . S
C2728 C2731 1.386 . S
H2729 C2745 0.930 . S
H2730 C2746 0.931 . S
C2731 H2719 0.929 . S
C2731 C2725 1.390 . S
C2731 C2728 1.386 . S
C2732 C2727 1.490 . S
C2732 C2734 1.395 . S
C2732 C2735 1.403 . S
H2733 C2739 0.930 . S
C2734 H2720 0.930 . S
C2734 C2732 1.395 . S
C2734 C2737 1.403 . S
C2735 C2732 1.403 . S
C2735 C2736 1.524 . S
C2735 C2739 1.400 . S
C2736 H2721 0.960 . S
C2736 H2722 0.960 . S
C2736 H2723 0.960 . S
C2736 C2735 1.524 . S
C2737 C2734 1.403 . S
C2737 C2738 1.392 . S
C2737 C2741 1.495 . S
C2738 C2737 1.392 . S
C2738 C2739 1.385 . S
C2738 C2740 1.478 . S
C2739 H2733 0.930 . S
C2739 C2735 1.400 . S
C2739 C2738 1.385 . S
C2740 C2738 1.478 . S
C2740 C2742 1.381 . S
C2740 C2746 1.383 . S
C2741 C2737 1.495 . S
C2741 H2747 0.959 . S
C2741 H2748 0.961 . S
C2741 H2749 0.960 . S
C2742 C2740 1.381 . S
C2742 C2743 1.394 . S
C2742 H2750 0.930 . S
C2743 C2742 1.394 . S
C2743 C2744 1.383 . S
C2743 H2751 0.929 . S
C2744 C2743 1.383 . S
C2744 C2745 1.377 . S
C2745 H2729 0.930 . S
C2745 C2744 1.377 . S
C2745 C2746 1.379 . S
C2746 H2730 0.931 . S
C2746 C2740 1.383 . S
C2746 C2745 1.379 . S
H2747 C2741 0.959 . S
H2748 C2741 0.961 . S
H2749 C2741 0.960 . S
H2750 C2742 0.930 . S
H2751 C2743 0.929 . S
H2752 C2760 0.929 . S
H2753 C2762 0.930 . S
H2754 C2764 0.930 . S
H2755 C2767 0.929 . S
H2756 C2770 0.930 . S
H2757 C2772 0.960 . S
H2758 C2772 0.960 . S
H2759 C2772 0.960 . S
C2760 H2752 0.929 . S
C2760 C2761 1.377 . S
C2760 C2762 1.384 . S
C2761 C2760 1.377 . S
C2761 C2767 1.390 . S
C2762 H2753 0.930 . S
C2762 C2760 1.384 . S
C2762 C2763 1.372 . S
C2763 C2762 1.372 . S
C2763 C2764 1.400 . S
C2763 C2768 1.490 . S
C2764 H2754 0.930 . S
C2764 C2763 1.400 . S
C2764 C2767 1.386 . S
H2765 C2781 0.930 . S
H2766 C2782 0.931 . S
C2767 H2755 0.929 . S
C2767 C2761 1.390 . S
C2767 C2764 1.386 . S
C2768 C2763 1.490 . S
C2768 C2770 1.395 . S
C2768 C2771 1.403 . S
H2769 C2775 0.930 . S
C2770 H2756 0.930 . S
C2770 C2768 1.395 . S
C2770 C2773 1.403 . S
C2771 C2768 1.403 . S
C2771 C2772 1.524 1_455 S
C2771 C2775 1.400 . S
C2772 H2757 0.960 . S
C2772 H2758 0.960 . S
C2772 H2759 0.960 . S
C2772 C2771 1.524 1_655 S
C2773 C2770 1.403 . S
C2773 C2774 1.392 . S
C2773 C2777 1.495 . S
C2774 C2773 1.392 . S
C2774 C2775 1.385 . S
C2774 C2776 1.478 . S
C2775 H2769 0.930 . S
C2775 C2771 1.400 . S
C2775 C2774 1.385 . S
C2776 C2774 1.478 . S
C2776 C2778 1.381 1_556 S
C2776 C2782 1.383 . S
C2777 C2773 1.495 . S
C2777 H2783 0.959 . S
C2777 H2784 0.961 . S
C2777 H2785 0.961 . S
C2778 C2776 1.381 1_554 S
C2778 C2779 1.394 . S
C2778 H2786 0.930 . S
C2779 C2778 1.394 . S
C2779 C2780 1.383 1_554 S
C2779 H2787 0.929 . S
C2780 C2779 1.383 1_556 S
C2780 C2781 1.377 . S
C2781 H2765 0.930 . S
C2781 C2780 1.377 . S
C2781 C2782 1.379 . S
C2782 H2766 0.931 . S
C2782 C2776 1.383 . S
C2782 C2781 1.379 . S
H2783 C2777 0.959 . S
H2784 C2777 0.961 . S
H2785 C2777 0.961 . S
H2786 C2778 0.930 . S
H2787 C2779 0.929 . S
H2788 C2796 0.929 . S
H2789 C2798 0.917 . S
H2790 C2800 0.930 . S
H2791 C2803 0.930 . S
H2792 C2806 0.930 . S
H2793 C2808 0.960 . S
H2794 C2808 0.960 . S
H2795 C2808 0.960 . S
C2796 H2788 0.929 . S
C2796 C2797 1.377 . S
C2796 C2798 1.384 1_455 S
C2797 C2796 1.377 . S
C2797 C2803 1.357 1_455 S
C2798 H2789 0.917 . S
C2798 C2796 1.384 1_655 S
C2798 C2799 1.372 . S
C2799 C2798 1.372 . S
C2799 C2800 1.400 . S
C2799 C2804 1.490 . S
C2800 H2790 0.930 . S
C2800 C2799 1.400 . S
C2800 C2803 1.431 . S
H2801 C2817 0.930 . S
H2802 C2818 0.931 . S
C2803 H2791 0.930 . S
C2803 C2797 1.357 1_655 S
C2803 C2800 1.431 . S
C2804 C2799 1.490 . S
C2804 C2806 1.395 . S
C2804 C2807 1.403 . S
H2805 C2811 0.930 . S
C2806 H2792 0.930 . S
C2806 C2804 1.395 . S
C2806 C2809 1.403 . S
C2807 C2804 1.403 . S
C2807 C2808 1.524 . S
C2807 C2811 1.400 . S
C2808 H2793 0.960 . S
C2808 H2794 0.960 . S
C2808 H2795 0.960 . S
C2808 C2807 1.524 . S
C2809 C2806 1.403 . S
C2809 C2810 1.392 . S
C2809 C2813 1.495 . S
C2810 C2809 1.392 . S
C2810 C2811 1.385 . S
C2810 C2812 1.478 . S
C2811 H2805 0.930 . S
C2811 C2807 1.400 . S
C2811 C2810 1.385 . S
C2812 C2810 1.478 . S
C2812 C2814 1.381 . S
C2812 C2818 1.383 . S
C2813 C2809 1.495 . S
C2813 H2819 0.959 . S
C2813 H2820 0.961 . S
C2813 H2821 0.960 . S
C2814 C2812 1.381 . S
C2814 C2815 1.394 . S
C2814 H2822 0.930 . S
C2815 C2814 1.394 . S
C2815 C2816 1.383 . S
C2815 H2823 0.929 . S
C2816 C2815 1.383 . S
C2816 C2817 1.377 . S
C2817 H2801 0.930 . S
C2817 C2816 1.377 . S
C2817 C2818 1.379 . S
C2818 H2802 0.931 . S
C2818 C2812 1.383 . S
C2818 C2817 1.379 . S
H2819 C2813 0.959 . S
H2820 C2813 0.961 . S
H2821 C2813 0.960 . S
H2822 C2814 0.930 . S
H2823 C2815 0.929 . S
H2824 C2832 0.929 . S
H2825 C2834 0.930 . S
H2826 C2836 0.930 . S
H2827 C2839 0.929 . S
H2828 C2842 0.930 . S
H2829 C2844 0.960 . S
H2830 C2844 0.960 . S
H2831 C2844 0.960 . S
C2832 H2824 0.929 . S
C2832 C2833 1.377 . S
C2832 C2834 1.384 . S
C2833 C2832 1.377 . S
C2833 C2839 1.390 . S
C2834 H2825 0.930 . S
C2834 C2832 1.384 . S
C2834 C2835 1.372 . S
C2835 C2834 1.372 . S
C2835 C2836 1.400 . S
C2835 C2840 1.490 . S
C2836 H2826 0.930 . S
C2836 C2835 1.400 . S
C2836 C2839 1.386 . S
H2837 C2853 0.930 . S
H2838 C2854 0.931 . S
C2839 H2827 0.929 . S
C2839 C2833 1.390 . S
C2839 C2836 1.386 . S
C2840 C2835 1.490 . S
C2840 C2842 1.395 . S
C2840 C2843 1.403 . S
H2841 C2847 0.930 . S
C2842 H2828 0.930 . S
C2842 C2840 1.395 . S
C2842 C2845 1.403 . S
C2843 C2840 1.403 . S
C2843 C2844 1.524 . S
C2843 C2847 1.400 . S
C2844 H2829 0.960 . S
C2844 H2830 0.960 . S
C2844 H2831 0.960 . S
C2844 C2843 1.524 . S
C2845 C2842 1.403 . S
C2845 C2846 1.392 . S
C2845 C2849 1.495 . S
C2846 C2845 1.392 . S
C2846 C2847 1.385 . S
C2846 C2848 1.478 . S
C2847 H2841 0.930 . S
C2847 C2843 1.400 . S
C2847 C2846 1.385 . S
C2848 C2846 1.478 . S
C2848 C2850 1.381 . S
C2848 C2854 1.383 . S
C2849 C2845 1.495 . S
C2849 H2855 0.959 . S
C2849 H2856 0.961 . S
C2849 H2857 0.960 . S
C2850 C2848 1.381 . S
C2850 C2851 1.394 . S
C2850 H2858 0.930 . S
C2851 C2850 1.394 . S
C2851 C2852 1.383 . S
C2851 H2859 0.929 . S
C2852 C2851 1.383 . S
C2852 C2853 1.377 . S
C2853 H2837 0.930 . S
C2853 C2852 1.377 . S
C2853 C2854 1.379 . S
C2854 H2838 0.931 . S
C2854 C2848 1.383 . S
C2854 C2853 1.379 . S
H2855 C2849 0.959 . S
H2856 C2849 0.961 . S
H2857 C2849 0.960 . S
H2858 C2850 0.930 . S
H2859 C2851 0.929 . S
H2860 C2868 0.929 . S
H2861 C2870 0.930 . S
H2862 C2872 0.930 1_655 S
H2863 C2875 0.929 . S
H2864 C2878 0.930 . S
H2865 C2880 0.960 . S
H2866 C2880 0.960 . S
H2867 C2880 0.960 . S
C2868 H2860 0.929 . S
C2868 C2869 1.377 . S
C2868 C2870 1.384 . S
C2869 C2868 1.377 . S
C2869 C2875 1.390 . S
C2870 H2861 0.930 . S
C2870 C2868 1.384 . S
C2870 C2871 1.372 . S
C2871 C2870 1.372 . S
C2871 C2872 1.400 . S
C2871 C2876 1.490 1_455 S
C2872 H2862 0.930 1_455 S
C2872 C2871 1.400 . S
C2872 C2875 1.386 . S
H2873 C2889 0.930 . S
H2874 C2890 0.931 . S
C2875 H2863 0.929 . S
C2875 C2869 1.390 . S
C2875 C2872 1.386 . S
C2876 C2871 1.490 1_655 S
C2876 C2878 1.395 . S
C2876 C2879 1.403 . S
H2877 C2883 0.930 . S
C2878 H2864 0.930 . S
C2878 C2876 1.395 . S
C2878 C2881 1.403 . S
C2879 C2876 1.403 . S
C2879 C2880 1.524 . S
C2879 C2883 1.400 . S
C2880 H2865 0.960 . S
C2880 H2866 0.960 . S
C2880 H2867 0.960 . S
C2880 C2879 1.524 . S
C2881 C2878 1.403 . S
C2881 C2882 1.392 . S
C2881 C2885 1.495 . S
C2882 C2881 1.392 . S
C2882 C2883 1.385 . S
C2882 C2884 1.478 . S
C2883 H2877 0.930 . S
C2883 C2879 1.400 . S
C2883 C2882 1.385 . S
C2884 C2882 1.478 . S
C2884 C2886 1.381 . S
C2884 C2890 1.383 . S
C2885 C2881 1.495 . S
C2885 H2891 0.959 . S
C2885 H2892 0.961 . S
C2885 H2893 0.960 . S
C2886 C2884 1.381 . S
C2886 C2887 1.394 . S
C2886 H2894 0.930 . S
C2887 C2886 1.394 . S
C2887 C2888 1.383 . S
C2887 H2895 0.929 . S
C2888 C2887 1.383 . S
C2888 C2889 1.377 . S
C2889 H2873 0.930 . S
C2889 C2888 1.377 . S
C2889 C2890 1.379 . S
C2890 H2874 0.931 . S
C2890 C2884 1.383 . S
C2890 C2889 1.379 . S
H2891 C2885 0.959 . S
H2892 C2885 0.961 . S
H2893 C2885 0.960 . S
H2894 C2886 0.930 . S
H2895 C2887 0.929 . S
H2896 C2904 0.929 . S
H2897 C2906 0.930 . S
H2898 C2908 0.930 . S
H2899 C2911 0.929 . S
H2900 C2914 0.930 . S
H2901 C2916 0.960 . S
H2902 C2916 0.960 . S
H2903 C2916 0.960 . S
C2904 H2896 0.929 . S
C2904 C2905 1.377 1_455 S
C2904 C2906 1.384 . S
C2905 C2904 1.377 1_655 S
C2905 C2911 1.390 . S
C2906 H2897 0.930 . S
C2906 C2904 1.384 . S
C2906 C2907 1.372 . S
C2907 C2906 1.372 . S
C2907 C2908 1.400 1_455 S
C2907 C2912 1.490 . S
C2908 H2898 0.930 . S
C2908 C2907 1.400 1_655 S
C2908 C2911 1.386 . S
H2909 C2925 0.930 . S
H2910 C2926 0.931 . S
C2911 H2899 0.929 . S
C2911 C2905 1.390 . S
C2911 C2908 1.386 . S
C2912 C2907 1.490 . S
C2912 C2914 1.395 . S
C2912 C2915 1.403 . S
H2913 C2919 0.930 . S
C2914 H2900 0.930 . S
C2914 C2912 1.395 . S
C2914 C2917 1.403 . S
C2915 C2912 1.403 . S
C2915 C2916 1.524 1_455 S
C2915 C2919 1.400 . S
C2916 H2901 0.960 . S
C2916 H2902 0.960 . S
C2916 H2903 0.960 . S
C2916 C2915 1.524 1_655 S
C2917 C2914 1.403 . S
C2917 C2918 1.392 . S
C2917 C2921 1.495 . S
C2918 C2917 1.392 . S
C2918 C2919 1.385 . S
C2918 C2920 1.478 . S
C2919 H2913 0.930 . S
C2919 C2915 1.400 . S
C2919 C2918 1.385 . S
C2920 C2918 1.478 . S
C2920 C2922 1.381 . S
C2920 C2926 1.383 . S
C2921 C2917 1.495 . S
C2921 H2927 0.959 . S
C2921 H2928 0.961 . S
C2921 H2929 0.960 . S
C2922 C2920 1.381 . S
C2922 C2923 1.394 . S
C2922 H2930 0.930 . S
C2923 C2922 1.394 . S
C2923 C2924 1.383 . S
C2923 H2931 0.929 . S
C2924 C2923 1.383 . S
C2924 C2925 1.377 . S
C2925 H2909 0.930 . S
C2925 C2924 1.377 . S
C2925 C2926 1.379 . S
C2926 H2910 0.931 . S
C2926 C2920 1.383 . S
C2926 C2925 1.379 . S
H2927 C2921 0.959 . S
H2928 C2921 0.961 . S
H2929 C2921 0.960 . S
H2930 C2922 0.930 . S
H2931 C2923 0.929 . S
H2932 C2940 0.929 . S
H2933 C2942 0.930 . S
H2934 C2944 0.930 . S
H2935 C2947 0.929 . S
H2936 C2950 0.930 . S
H2937 C2952 0.960 . S
H2938 C2952 0.960 . S
H2939 C2952 0.960 . S
C2940 H2932 0.929 . S
C2940 C2941 1.377 . S
C2940 C2942 1.384 . S
C2941 C2940 1.377 . S
C2941 C2947 1.390 . S
C2942 H2933 0.930 . S
C2942 C2940 1.384 . S
C2942 C2943 1.372 . S
C2943 C2942 1.372 . S
C2943 C2944 1.400 . S
C2943 C2948 1.490 . S
C2944 H2934 0.930 . S
C2944 C2943 1.400 . S
C2944 C2947 1.386 . S
H2945 C2961 0.930 . S
H2946 C2962 0.931 . S
C2947 H2935 0.929 . S
C2947 C2941 1.390 . S
C2947 C2944 1.386 . S
C2948 C2943 1.490 . S
C2948 C2950 1.395 . S
C2948 C2951 1.403 . S
H2949 C2955 0.930 . S
C2950 H2936 0.930 . S
C2950 C2948 1.395 . S
C2950 C2953 1.403 . S
C2951 C2948 1.403 . S
C2951 C2952 1.524 . S
C2951 C2955 1.400 . S
C2952 H2937 0.960 . S
C2952 H2938 0.960 . S
C2952 H2939 0.960 . S
C2952 C2951 1.524 . S
C2953 C2950 1.403 . S
C2953 C2954 1.392 . S
C2953 C2957 1.495 . S
C2954 C2953 1.392 . S
C2954 C2955 1.385 . S
C2954 C2956 1.478 . S
C2955 H2949 0.930 . S
C2955 C2951 1.400 . S
C2955 C2954 1.385 . S
C2956 C2954 1.478 . S
C2956 C2958 1.381 . S
C2956 C2962 1.383 . S
C2957 C2953 1.495 . S
C2957 H2963 0.959 . S
C2957 H2964 0.961 . S
C2957 H2965 0.960 . S
C2958 C2956 1.381 . S
C2958 C2959 1.394 . S
C2958 H2966 0.930 . S
C2959 C2958 1.394 . S
C2959 C2960 1.383 . S
C2959 H2967 0.929 . S
C2960 C2959 1.383 . S
C2960 C2961 1.377 . S
C2961 H2945 0.930 . S
C2961 C2960 1.377 . S
C2961 C2962 1.379 . S
C2962 H2946 0.931 . S
C2962 C2956 1.383 . S
C2962 C2961 1.379 . S
H2963 C2957 0.959 . S
H2964 C2957 0.961 . S
H2965 C2957 0.960 . S
H2966 C2958 0.930 . S
H2967 C2959 0.929 . S
H2968 C2976 0.929 . S
H2969 C2978 0.930 . S
H2970 C2980 0.930 . S
H2971 C2983 0.929 . S
H2972 C2986 0.930 . S
H2973 C2988 0.960 . S
H2974 C2988 0.960 . S
H2975 C2988 0.960 . S
C2976 H2968 0.929 . S
C2976 C2977 1.377 . S
C2976 C2978 1.384 . S
C2977 C2976 1.377 . S
C2977 C2983 1.390 . S
C2978 H2969 0.930 . S
C2978 C2976 1.384 . S
C2978 C2979 1.372 . S
C2979 C2978 1.372 . S
C2979 C2980 1.400 . S
C2979 C2984 1.490 . S
C2980 H2970 0.930 . S
C2980 C2979 1.400 . S
C2980 C2983 1.386 . S
H2981 C2997 0.930 . S
H2982 C2998 0.931 . S
C2983 H2971 0.929 . S
C2983 C2977 1.390 . S
C2983 C2980 1.386 . S
C2984 C2979 1.490 . S
C2984 C2986 1.395 . S
C2984 C2987 1.403 . S
H2985 C2991 0.930 . S
C2986 H2972 0.930 . S
C2986 C2984 1.395 . S
C2986 C2989 1.403 . S
C2987 C2984 1.403 . S
C2987 C2988 1.524 . S
C2987 C2991 1.400 . S
C2988 H2973 0.960 . S
C2988 H2974 0.960 . S
C2988 H2975 0.960 . S
C2988 C2987 1.524 . S
C2989 C2986 1.403 . S
C2989 C2990 1.392 . S
C2989 C2993 1.495 . S
C2990 C2989 1.392 . S
C2990 C2991 1.385 . S
C2990 C2992 1.478 . S
C2991 H2985 0.930 . S
C2991 C2987 1.400 . S
C2991 C2990 1.385 . S
C2992 C2990 1.478 . S
C2992 C2994 1.381 . S
C2992 C2998 1.383 . S
C2993 C2989 1.495 . S
C2993 H2999 0.959 . S
C2993 H3000 0.961 . S
C2993 H3001 0.960 . S
C2994 C2992 1.381 . S
C2994 C2995 1.394 . S
C2994 H3002 0.930 . S
C2995 C2994 1.394 . S
C2995 C2996 1.383 . S
C2995 H3003 0.929 . S
C2996 C2995 1.383 . S
C2996 C2997 1.377 . S
C2997 H2981 0.930 . S
C2997 C2996 1.377 . S
C2997 C2998 1.379 . S
C2998 H2982 0.931 . S
C2998 C2992 1.383 . S
C2998 C2997 1.379 . S
H2999 C2993 0.959 . S
H3000 C2993 0.961 . S
H3001 C2993 0.960 . S
H3002 C2994 0.930 . S
H3003 C2995 0.929 . S
H3004 C3012 0.929 . S
H3005 C3014 0.930 . S
H3006 C3016 0.930 . S
H3007 C3019 0.929 . S
H3008 C3022 0.930 . S
H3009 C3024 0.960 . S
H3010 C3024 0.960 . S
H3011 C3024 0.960 . S
C3012 H3004 0.929 . S
C3012 C3013 1.377 . S
C3012 C3014 1.384 . S
C3013 C3012 1.377 . S
C3013 C3019 1.390 . S
C3014 H3005 0.930 . S
C3014 C3012 1.384 . S
C3014 C3015 1.372 . S
C3015 C3014 1.372 . S
C3015 C3016 1.400 . S
C3015 C3020 1.490 . S
C3016 H3006 0.930 . S
C3016 C3015 1.400 . S
C3016 C3019 1.386 . S
H3017 C3033 0.930 . S
H3018 C3034 0.931 . S
C3019 H3007 0.929 . S
C3019 C3013 1.390 . S
C3019 C3016 1.386 . S
C3020 C3015 1.490 . S
C3020 C3022 1.395 . S
C3020 C3023 1.403 . S
H3021 C3027 0.930 . S
C3022 H3008 0.930 . S
C3022 C3020 1.395 . S
C3022 C3025 1.403 . S
C3023 C3020 1.403 . S
C3023 C3024 1.524 . S
C3023 C3027 1.400 . S
C3024 H3009 0.960 . S
C3024 H3010 0.960 . S
C3024 H3011 0.960 . S
C3024 C3023 1.524 . S
C3025 C3022 1.403 . S
C3025 C3026 1.392 . S
C3025 C3029 1.495 . S
C3026 C3025 1.392 . S
C3026 C3027 1.385 . S
C3026 C3028 1.478 . S
C3027 H3021 0.930 . S
C3027 C3023 1.400 . S
C3027 C3026 1.385 . S
C3028 C3026 1.478 . S
C3028 C3030 1.381 . S
C3028 C3034 1.383 . S
C3029 C3025 1.495 . S
C3029 H3035 0.959 . S
C3029 H3036 0.961 . S
C3029 H3037 0.960 . S
C3030 C3028 1.381 . S
C3030 C3031 1.394 . S
C3030 H3038 0.930 . S
C3031 C3030 1.394 . S
C3031 C3032 1.383 . S
C3031 H3039 0.929 . S
C3032 C3031 1.383 . S
C3032 C3033 1.377 . S
C3033 H3017 0.930 . S
C3033 C3032 1.377 . S
C3033 C3034 1.379 . S
C3034 H3018 0.931 . S
C3034 C3028 1.383 . S
C3034 C3033 1.379 . S
H3035 C3029 0.959 . S
H3036 C3029 0.961 . S
H3037 C3029 0.960 . S
H3038 C3030 0.930 . S
H3039 C3031 0.929 . S
H3040 C3048 0.929 . S
H3041 C3050 0.930 . S
H3042 C3052 0.930 . S
H3043 C3055 0.929 . S
H3044 C3058 0.930 . S
H3045 C3060 0.960 . S
H3046 C3060 0.960 . S
H3047 C3060 0.960 . S
C3048 H3040 0.929 . S
C3048 C3049 1.377 . S
C3048 C3050 1.384 . S
C3049 C3048 1.377 . S
C3049 C3055 1.390 . S
C3050 H3041 0.930 . S
C3050 C3048 1.384 . S
C3050 C3051 1.372 . S
C3051 C3050 1.372 . S
C3051 C3052 1.400 . S
C3051 C3056 1.490 . S
C3052 H3042 0.930 . S
C3052 C3051 1.400 . S
C3052 C3055 1.386 . S
H3053 C3069 0.930 . S
H3054 C3070 0.931 . S
C3055 H3043 0.929 . S
C3055 C3049 1.390 . S
C3055 C3052 1.386 . S
C3056 C3051 1.490 . S
C3056 C3058 1.395 . S
C3056 C3059 1.403 . S
H3057 C3063 0.930 . S
C3058 H3044 0.930 . S
C3058 C3056 1.395 . S
C3058 C3061 1.403 . S
C3059 C3056 1.403 . S
C3059 C3060 1.524 . S
C3059 C3063 1.400 . S
C3060 H3045 0.960 . S
C3060 H3046 0.960 . S
C3060 H3047 0.960 . S
C3060 C3059 1.524 . S
C3061 C3058 1.403 . S
C3061 C3062 1.392 . S
C3061 C3065 1.495 . S
C3062 C3061 1.392 . S
C3062 C3063 1.385 . S
C3062 C3064 1.478 . S
C3063 H3057 0.930 . S
C3063 C3059 1.400 . S
C3063 C3062 1.385 . S
C3064 C3062 1.478 . S
C3064 C3066 1.381 . S
C3064 C3070 1.383 . S
C3065 C3061 1.495 . S
C3065 H3071 0.959 . S
C3065 H3072 0.961 . S
C3065 H3073 0.960 . S
C3066 C3064 1.381 . S
C3066 C3067 1.394 . S
C3066 H3074 0.930 . S
C3067 C3066 1.394 . S
C3067 C3068 1.383 . S
C3067 H3075 0.929 . S
C3068 C3067 1.383 . S
C3068 C3069 1.377 . S
C3069 H3053 0.930 . S
C3069 C3068 1.377 . S
C3069 C3070 1.379 . S
C3070 H3054 0.931 . S
C3070 C3064 1.383 . S
C3070 C3069 1.379 . S
H3071 C3065 0.959 . S
H3072 C3065 0.961 . S
H3073 C3065 0.960 . S
H3074 C3066 0.930 . S
H3075 C3067 0.929 . S
H3076 C3084 0.929 . S
H3077 C3086 0.930 . S
H3078 C3088 0.930 . S
H3079 C3091 0.929 . S
H3080 C3094 0.930 . S
H3081 C3096 0.960 . S
H3082 C3096 0.960 . S
H3083 C3096 0.960 . S
C3084 H3076 0.929 . S
C3084 C3085 1.377 . S
C3084 C3086 1.384 . S
C3085 C3084 1.377 . S
C3085 C3091 1.390 . S
C3086 H3077 0.930 . S
C3086 C3084 1.384 . S
C3086 C3087 1.372 . S
C3087 C3086 1.372 . S
C3087 C3088 1.400 . S
C3087 C3092 1.490 . S
C3088 H3078 0.930 . S
C3088 C3087 1.400 . S
C3088 C3091 1.386 . S
H3089 C3105 0.930 . S
H3090 C3106 0.931 . S
C3091 H3079 0.929 . S
C3091 C3085 1.390 . S
C3091 C3088 1.386 . S
C3092 C3087 1.490 . S
C3092 C3094 1.395 . S
C3092 C3095 1.403 . S
H3093 C3099 0.930 . S
C3094 H3080 0.930 . S
C3094 C3092 1.395 . S
C3094 C3097 1.403 . S
C3095 C3092 1.403 . S
C3095 C3096 1.524 . S
C3095 C3099 1.400 . S
C3096 H3081 0.960 . S
C3096 H3082 0.960 . S
C3096 H3083 0.960 . S
C3096 C3095 1.524 . S
C3097 C3094 1.403 . S
C3097 C3098 1.392 . S
C3097 C3101 1.495 . S
C3098 C3097 1.392 . S
C3098 C3099 1.385 . S
C3098 C3100 1.478 . S
C3099 H3093 0.930 . S
C3099 C3095 1.400 . S
C3099 C3098 1.385 . S
C3100 C3098 1.478 . S
C3100 C3102 1.381 . S
C3100 C3106 1.383 . S
C3101 C3097 1.495 . S
C3101 H3107 0.959 . S
C3101 H3108 0.961 . S
C3101 H3109 0.960 . S
C3102 C3100 1.381 . S
C3102 C3103 1.394 . S
C3102 H3110 0.930 . S
C3103 C3102 1.394 . S
C3103 C3104 1.383 . S
C3103 H3111 0.929 . S
C3104 C3103 1.383 . S
C3104 C3105 1.377 . S
C3105 H3089 0.930 . S
C3105 C3104 1.377 . S
C3105 C3106 1.379 . S
C3106 H3090 0.931 . S
C3106 C3100 1.383 . S
C3106 C3105 1.379 . S
H3107 C3101 0.959 . S
H3108 C3101 0.961 . S
H3109 C3101 0.960 . S
H3110 C3102 0.930 . S
H3111 C3103 0.929 . S
H3112 C3120 0.929 . S
H3113 C3122 0.930 . S
H3114 C3124 0.930 . S
H3115 C3127 0.929 . S
H3116 C3130 0.930 . S
H3117 C3132 0.960 . S
H3118 C3132 0.960 . S
H3119 C3132 0.960 . S
C3120 H3112 0.929 . S
C3120 C3121 1.377 . S
C3120 C3122 1.384 . S
C3121 C3120 1.377 . S
C3121 C3127 1.390 . S
C3122 H3113 0.930 . S
C3122 C3120 1.384 . S
C3122 C3123 1.372 . S
C3123 C3122 1.372 . S
C3123 C3124 1.400 . S
C3123 C3128 1.490 . S
C3124 H3114 0.930 . S
C3124 C3123 1.400 . S
C3124 C3127 1.386 . S
H3125 C3141 0.930 . S
H3126 C3142 0.931 . S
C3127 H3115 0.929 . S
C3127 C3121 1.390 . S
C3127 C3124 1.386 . S
C3128 C3123 1.490 . S
C3128 C3130 1.395 . S
C3128 C3131 1.403 . S
H3129 C3135 0.930 . S
C3130 H3116 0.930 . S
C3130 C3128 1.395 . S
C3130 C3133 1.403 . S
C3131 C3128 1.403 . S
C3131 C3132 1.524 . S
C3131 C3135 1.400 . S
C3132 H3117 0.960 . S
C3132 H3118 0.960 . S
C3132 H3119 0.960 . S
C3132 C3131 1.524 . S
C3133 C3130 1.403 . S
C3133 C3134 1.392 . S
C3133 C3137 1.495 . S
C3134 C3133 1.392 . S
C3134 C3135 1.385 . S
C3134 C3136 1.478 . S
C3135 H3129 0.930 . S
C3135 C3131 1.400 . S
C3135 C3134 1.385 . S
C3136 C3134 1.478 . S
C3136 C3138 1.381 . S
C3136 C3142 1.383 . S
C3137 C3133 1.495 . S
C3137 H3143 0.959 . S
C3137 H3144 0.961 . S
C3137 H3145 0.960 . S
C3138 C3136 1.381 . S
C3138 C3139 1.394 . S
C3138 H3146 0.930 . S
C3139 C3138 1.394 . S
C3139 C3140 1.383 . S
C3139 H3147 0.929 . S
C3140 C3139 1.383 . S
C3140 C3141 1.377 . S
C3141 H3125 0.930 . S
C3141 C3140 1.377 . S
C3141 C3142 1.379 . S
C3142 H3126 0.931 . S
C3142 C3136 1.383 . S
C3142 C3141 1.379 . S
H3143 C3137 0.959 . S
H3144 C3137 0.961 . S
H3145 C3137 0.960 . S
H3146 C3138 0.930 . S
H3147 C3139 0.929 . S
H3148 C3156 0.929 . S
H3149 C3158 0.930 . S
H3150 C3160 0.930 . S
H3151 C3163 0.929 . S
H3152 C3166 0.930 . S
H3153 C3168 0.960 . S
H3154 C3168 0.960 . S
H3155 C3168 0.960 . S
C3156 H3148 0.929 . S
C3156 C3157 1.377 . S
C3156 C3158 1.384 . S
C3157 C3156 1.377 . S
C3157 C3163 1.390 . S
C3158 H3149 0.930 . S
C3158 C3156 1.384 . S
C3158 C3159 1.372 . S
C3159 C3158 1.372 . S
C3159 C3160 1.400 . S
C3159 C3164 1.490 . S
C3160 H3150 0.930 . S
C3160 C3159 1.400 . S
C3160 C3163 1.386 . S
H3161 C3177 0.930 . S
H3162 C3178 0.931 . S
C3163 H3151 0.929 . S
C3163 C3157 1.390 . S
C3163 C3160 1.386 . S
C3164 C3159 1.490 . S
C3164 C3166 1.395 . S
C3164 C3167 1.403 . S
H3165 C3171 0.930 . S
C3166 H3152 0.930 . S
C3166 C3164 1.395 . S
C3166 C3169 1.403 . S
C3167 C3164 1.403 . S
C3167 C3168 1.524 . S
C3167 C3171 1.400 . S
C3168 H3153 0.960 . S
C3168 H3154 0.960 . S
C3168 H3155 0.960 . S
C3168 C3167 1.524 . S
C3169 C3166 1.403 . S
C3169 C3170 1.392 . S
C3169 C3173 1.495 . S
C3170 C3169 1.392 . S
C3170 C3171 1.385 . S
C3170 C3172 1.478 . S
C3171 H3165 0.930 . S
C3171 C3167 1.400 . S
C3171 C3170 1.385 . S
C3172 C3170 1.478 . S
C3172 C3174 1.381 . S
C3172 C3178 1.383 . S
C3173 C3169 1.495 . S
C3173 H3179 0.959 . S
C3173 H3180 0.961 . S
C3173 H3181 0.960 . S
C3174 C3172 1.381 . S
C3174 C3175 1.394 . S
C3174 H3182 0.930 . S
C3175 C3174 1.394 . S
C3175 C3176 1.383 . S
C3175 H3183 0.929 . S
C3176 C3175 1.383 . S
C3176 C3177 1.377 . S
C3177 H3161 0.930 . S
C3177 C3176 1.377 . S
C3177 C3178 1.379 . S
C3178 H3162 0.931 . S
C3178 C3172 1.383 . S
C3178 C3177 1.379 . S
H3179 C3173 0.959 . S
H3180 C3173 0.961 . S
H3181 C3173 0.960 . S
H3182 C3174 0.930 . S
H3183 C3175 0.929 . S
H3184 C3192 0.929 . S
H3185 C3194 0.930 . S
H3186 C3196 0.930 . S
H3187 C3199 0.929 . S
H3188 C3202 0.930 . S
H3189 C3204 0.960 . S
H3190 C3204 0.960 . S
H3191 C3204 0.960 . S
C3192 H3184 0.929 . S
C3192 C3193 1.377 . S
C3192 C3194 1.384 . S
C3193 C3192 1.377 . S
C3193 C3199 1.390 . S
C3194 H3185 0.930 . S
C3194 C3192 1.384 . S
C3194 C3195 1.372 . S
C3195 C3194 1.372 . S
C3195 C3196 1.400 . S
C3195 C3200 1.490 . S
C3196 H3186 0.930 . S
C3196 C3195 1.400 . S
C3196 C3199 1.386 . S
H3197 C3213 0.930 . S
H3198 C3214 0.931 . S
C3199 H3187 0.929 . S
C3199 C3193 1.390 . S
C3199 C3196 1.386 . S
C3200 C3195 1.490 . S
C3200 C3202 1.395 . S
C3200 C3203 1.403 . S
H3201 C3207 0.930 . S
C3202 H3188 0.930 . S
C3202 C3200 1.395 . S
C3202 C3205 1.403 . S
C3203 C3200 1.403 . S
C3203 C3204 1.524 . S
C3203 C3207 1.400 . S
C3204 H3189 0.960 . S
C3204 H3190 0.960 . S
C3204 H3191 0.960 . S
C3204 C3203 1.524 . S
C3205 C3202 1.403 . S
C3205 C3206 1.392 . S
C3205 C3209 1.495 . S
C3206 C3205 1.392 . S
C3206 C3207 1.385 . S
C3206 C3208 1.478 . S
C3207 H3201 0.930 . S
C3207 C3203 1.400 . S
C3207 C3206 1.385 . S
C3208 C3206 1.478 . S
C3208 C3210 1.381 . S
C3208 C3214 1.383 . S
C3209 C3205 1.495 . S
C3209 H3215 0.959 . S
C3209 H3216 0.961 . S
C3209 H3217 0.960 . S
C3210 C3208 1.381 . S
C3210 C3211 1.394 . S
C3210 H3218 0.930 . S
C3211 C3210 1.394 . S
C3211 C3212 1.383 . S
C3211 H3219 0.929 . S
C3212 C3211 1.383 . S
C3212 C3213 1.377 . S
C3213 H3197 0.930 . S
C3213 C3212 1.377 . S
C3213 C3214 1.379 . S
C3214 H3198 0.931 . S
C3214 C3208 1.383 . S
C3214 C3213 1.379 . S
H3215 C3209 0.959 . S
H3216 C3209 0.961 . S
H3217 C3209 0.960 . S
H3218 C3210 0.930 . S
H3219 C3211 0.929 . S
H3220 C3228 0.929 . S
H3221 C3230 0.930 . S
H3222 C3232 0.930 . S
H3223 C3235 0.929 . S
H3224 C3238 0.930 . S
H3225 C3240 0.960 . S
H3226 C3240 0.960 . S
H3227 C3240 0.960 . S
C3228 H3220 0.929 . S
C3228 C3229 1.377 . S
C3228 C3230 1.384 . S
C3229 C3228 1.377 . S
C3229 C3235 1.390 . S
C3230 H3221 0.930 . S
C3230 C3228 1.384 . S
C3230 C3231 1.372 . S
C3231 C3230 1.372 . S
C3231 C3232 1.400 . S
C3231 C3236 1.490 . S
C3232 H3222 0.930 . S
C3232 C3231 1.400 . S
C3232 C3235 1.386 . S
H3233 C3249 0.930 . S
H3234 C3250 0.931 . S
C3235 H3223 0.929 . S
C3235 C3229 1.390 . S
C3235 C3232 1.386 . S
C3236 C3231 1.490 . S
C3236 C3238 1.395 . S
C3236 C3239 1.403 . S
H3237 C3243 0.930 . S
C3238 H3224 0.930 . S
C3238 C3236 1.395 . S
C3238 C3241 1.403 . S
C3239 C3236 1.403 . S
C3239 C3240 1.524 . S
C3239 C3243 1.400 . S
C3240 H3225 0.960 . S
C3240 H3226 0.960 . S
C3240 H3227 0.960 . S
C3240 C3239 1.524 . S
C3241 C3238 1.403 . S
C3241 C3242 1.392 . S
C3241 C3245 1.495 . S
C3242 C3241 1.392 . S
C3242 C3243 1.385 . S
C3242 C3244 1.478 . S
C3243 H3237 0.930 . S
C3243 C3239 1.400 . S
C3243 C3242 1.385 . S
C3244 C3242 1.478 . S
C3244 C3246 1.381 . S
C3244 C3250 1.383 . S
C3245 C3241 1.495 . S
C3245 H3251 0.959 . S
C3245 H3252 0.961 . S
C3245 H3253 0.960 . S
C3246 C3244 1.381 . S
C3246 C3247 1.394 . S
C3246 H3254 0.930 . S
C3247 C3246 1.394 . S
C3247 C3248 1.383 . S
C3247 H3255 0.929 . S
C3248 C3247 1.383 . S
C3248 C3249 1.377 . S
C3249 H3233 0.930 . S
C3249 C3248 1.377 . S
C3249 C3250 1.379 . S
C3250 H3234 0.931 . S
C3250 C3244 1.383 . S
C3250 C3249 1.379 . S
H3251 C3245 0.959 . S
H3252 C3245 0.961 . S
H3253 C3245 0.960 . S
H3254 C3246 0.930 . S
H3255 C3247 0.929 . S
H3256 C3264 0.929 . S
H3257 C3266 0.930 . S
H3258 C3268 0.930 . S
H3259 C3271 0.929 . S
H3260 C3274 0.930 . S
H3261 C3276 0.960 . S
H3262 C3276 0.960 . S
H3263 C3276 0.960 . S
C3264 H3256 0.929 . S
C3264 C3265 1.377 . S
C3264 C3266 1.384 . S
C3265 C3264 1.377 . S
C3265 C3271 1.390 . S
C3266 H3257 0.930 . S
C3266 C3264 1.384 . S
C3266 C3267 1.372 . S
C3267 C3266 1.372 . S
C3267 C3268 1.400 . S
C3267 C3272 1.490 . S
C3268 H3258 0.930 . S
C3268 C3267 1.400 . S
C3268 C3271 1.386 . S
H3269 C3285 0.930 . S
H3270 C3286 0.931 . S
C3271 H3259 0.929 . S
C3271 C3265 1.390 . S
C3271 C3268 1.386 . S
C3272 C3267 1.490 . S
C3272 C3274 1.395 . S
C3272 C3275 1.403 . S
H3273 C3279 0.930 . S
C3274 H3260 0.930 . S
C3274 C3272 1.395 . S
C3274 C3277 1.403 . S
C3275 C3272 1.403 . S
C3275 C3276 1.524 . S
C3275 C3279 1.400 . S
C3276 H3261 0.960 . S
C3276 H3262 0.960 . S
C3276 H3263 0.960 . S
C3276 C3275 1.524 . S
C3277 C3274 1.403 . S
C3277 C3278 1.392 . S
C3277 C3281 1.495 . S
C3278 C3277 1.392 . S
C3278 C3279 1.385 . S
C3278 C3280 1.478 . S
C3279 H3273 0.930 . S
C3279 C3275 1.400 . S
C3279 C3278 1.385 . S
C3280 C3278 1.478 . S
C3280 C3282 1.381 . S
C3280 C3286 1.383 . S
C3281 C3277 1.495 . S
C3281 H3287 0.959 . S
C3281 H3288 0.961 . S
C3281 H3289 0.960 . S
C3282 C3280 1.381 . S
C3282 C3283 1.394 . S
C3282 H3290 0.930 . S
C3283 C3282 1.394 . S
C3283 C3284 1.383 . S
C3283 H3291 0.929 . S
C3284 C3283 1.383 . S
C3284 C3285 1.377 . S
C3285 H3269 0.930 . S
C3285 C3284 1.377 . S
C3285 C3286 1.379 . S
C3286 H3270 0.931 . S
C3286 C3280 1.383 . S
C3286 C3285 1.379 . S
H3287 C3281 0.959 . S
H3288 C3281 0.961 . S
H3289 C3281 0.960 . S
H3290 C3282 0.930 . S
H3291 C3283 0.929 . S
H3292 C3300 0.929 . S
H3293 C3302 0.930 . S
H3294 C3304 0.930 . S
H3295 C3307 0.929 . S
H3296 C3310 0.930 . S
H3297 C3312 0.960 . S
H3298 C3312 0.960 . S
H3299 C3312 0.960 . S
C3300 H3292 0.929 . S
C3300 C3301 1.377 . S
C3300 C3302 1.384 . S
C3301 C3300 1.377 . S
C3301 C3307 1.390 . S
C3302 H3293 0.930 . S
C3302 C3300 1.384 . S
C3302 C3303 1.372 . S
C3303 C3302 1.372 . S
C3303 C3304 1.400 . S
C3303 C3308 1.490 . S
C3304 H3294 0.930 . S
C3304 C3303 1.400 . S
C3304 C3307 1.386 . S
H3305 C3321 0.930 . S
H3306 C3322 0.931 . S
C3307 H3295 0.929 . S
C3307 C3301 1.390 . S
C3307 C3304 1.386 . S
C3308 C3303 1.490 . S
C3308 C3310 1.395 . S
C3308 C3311 1.403 . S
H3309 C3315 0.930 . S
C3310 H3296 0.930 . S
C3310 C3308 1.395 . S
C3310 C3313 1.403 . S
C3311 C3308 1.403 . S
C3311 C3312 1.524 . S
C3311 C3315 1.400 . S
C3312 H3297 0.960 . S
C3312 H3298 0.960 . S
C3312 H3299 0.960 . S
C3312 C3311 1.524 . S
C3313 C3310 1.403 . S
C3313 C3314 1.392 . S
C3313 C3317 1.495 . S
C3314 C3313 1.392 . S
C3314 C3315 1.385 . S
C3314 C3316 1.478 . S
C3315 H3309 0.930 . S
C3315 C3311 1.400 . S
C3315 C3314 1.385 . S
C3316 C3314 1.478 . S
C3316 C3318 1.381 . S
C3316 C3322 1.383 . S
C3317 C3313 1.495 . S
C3317 H3323 0.959 . S
C3317 H3324 0.961 . S
C3317 H3325 0.960 . S
C3318 C3316 1.381 . S
C3318 C3319 1.394 . S
C3318 H3326 0.930 . S
C3319 C3318 1.394 . S
C3319 C3320 1.383 . S
C3319 H3327 0.929 . S
C3320 C3319 1.383 . S
C3320 C3321 1.377 . S
C3321 H3305 0.930 . S
C3321 C3320 1.377 . S
C3321 C3322 1.379 . S
C3322 H3306 0.931 . S
C3322 C3316 1.383 . S
C3322 C3321 1.379 . S
H3323 C3317 0.959 . S
H3324 C3317 0.961 . S
H3325 C3317 0.960 . S
H3326 C3318 0.930 . S
H3327 C3319 0.929 . S
H3328 C3336 0.929 . S
H3329 C3338 0.930 . S
H3330 C3340 0.930 . S
H3331 C3343 0.929 . S
H3332 C3346 0.930 . S
H3333 C3348 0.960 . S
H3334 C3348 0.960 . S
H3335 C3348 0.960 . S
C3336 H3328 0.929 . S
C3336 C3337 1.377 . S
C3336 C3338 1.384 . S
C3337 C3336 1.377 . S
C3337 C3343 1.390 . S
C3338 H3329 0.930 . S
C3338 C3336 1.384 . S
C3338 C3339 1.372 . S
C3339 C3338 1.372 . S
C3339 C3340 1.400 . S
C3339 C3344 1.490 . S
C3340 H3330 0.930 . S
C3340 C3339 1.400 . S
C3340 C3343 1.386 . S
H3341 C3357 0.930 . S
H3342 C3358 0.931 . S
C3343 H3331 0.929 . S
C3343 C3337 1.390 . S
C3343 C3340 1.386 . S
C3344 C3339 1.490 . S
C3344 C3346 1.395 . S
C3344 C3347 1.403 . S
H3345 C3351 0.930 . S
C3346 H3332 0.930 . S
C3346 C3344 1.395 . S
C3346 C3349 1.403 . S
C3347 C3344 1.403 . S
C3347 C3348 1.524 . S
C3347 C3351 1.400 . S
C3348 H3333 0.960 . S
C3348 H3334 0.960 . S
C3348 H3335 0.960 . S
C3348 C3347 1.524 . S
C3349 C3346 1.403 . S
C3349 C3350 1.392 . S
C3349 C3353 1.495 . S
C3350 C3349 1.392 . S
C3350 C3351 1.385 . S
C3350 C3352 1.478 . S
C3351 H3345 0.930 . S
C3351 C3347 1.400 . S
C3351 C3350 1.385 . S
C3352 C3350 1.478 . S
C3352 C3354 1.381 . S
C3352 C3358 1.383 . S
C3353 C3349 1.495 . S
C3353 H3359 0.959 . S
C3353 H3360 0.961 . S
C3353 H3361 0.960 . S
C3354 C3352 1.381 . S
C3354 C3355 1.394 . S
C3354 H3362 0.930 . S
C3355 C3354 1.394 . S
C3355 C3356 1.383 . S
C3355 H3363 0.929 . S
C3356 C3355 1.383 . S
C3356 C3357 1.377 . S
C3357 H3341 0.930 . S
C3357 C3356 1.377 . S
C3357 C3358 1.379 . S
C3358 H3342 0.931 . S
C3358 C3352 1.383 . S
C3358 C3357 1.379 . S
H3359 C3353 0.959 . S
H3360 C3353 0.961 . S
H3361 C3353 0.960 . S
H3362 C3354 0.930 . S
H3363 C3355 0.929 . S
H3364 C3372 0.929 1_556 S
H3365 C3374 0.872 1_556 S
H3366 C3376 0.930 . S
H3367 C3379 0.929 . S
H3368 C3382 0.930 . S
H3369 C3384 0.960 . S
H3370 C3384 0.960 . S
H3371 C3384 0.960 . S
C3372 H3364 0.929 1_554 S
C3372 C3373 1.377 . S
C3372 C3374 1.398 . S
C3373 C3372 1.377 . S
C3373 C3379 1.390 . S
C3374 H3365 0.872 1_554 S
C3374 C3372 1.398 . S
C3374 C3375 1.417 . S
C3375 C3374 1.417 . S
C3375 C3376 1.400 . S
C3375 C3380 1.490 . S
C3376 H3366 0.930 . S
C3376 C3375 1.400 . S
C3376 C3379 1.386 . S
H3377 C3393 0.930 . S
H3378 C3394 0.931 . S
C3379 H3367 0.929 . S
C3379 C3373 1.390 . S
C3379 C3376 1.386 . S
C3380 C3375 1.490 . S
C3380 C3382 1.395 . S
C3380 C3383 1.403 . S
H3381 C3387 0.930 . S
C3382 H3368 0.930 . S
C3382 C3380 1.395 . S
C3382 C3385 1.403 . S
C3383 C3380 1.403 . S
C3383 C3384 1.524 . S
C3383 C3387 1.400 . S
C3384 H3369 0.960 . S
C3384 H3370 0.960 . S
C3384 H3371 0.960 . S
C3384 C3383 1.524 . S
C3385 C3382 1.403 . S
C3385 C3386 1.392 . S
C3385 C3389 1.495 1_564 S
C3386 C3385 1.392 . S
C3386 C3387 1.385 . S
C3386 C3388 1.478 . S
C3387 H3381 0.930 . S
C3387 C3383 1.400 . S
C3387 C3386 1.385 . S
C3388 C3386 1.478 . S
C3388 C3390 1.381 1_554 S
C3388 C3394 1.383 1_565 S
C3389 C3385 1.495 1_546 S
C3389 H3395 0.959 . S
C3389 H3396 0.961 1_556 S
C3389 H3397 0.960 . S
C3390 C3388 1.381 1_556 S
C3390 C3391 1.394 1_565 S
C3390 H3398 0.930 . S
C3391 C3390 1.394 1_545 S
C3391 C3392 1.383 1_556 S
C3391 H3399 0.929 . S
C3392 C3391 1.383 1_554 S
C3392 C3393 1.377 . S
C3393 H3377 0.930 . S
C3393 C3392 1.377 . S
C3393 C3394 1.379 . S
C3394 H3378 0.931 . S
C3394 C3388 1.383 1_545 S
C3394 C3393 1.379 . S
H3395 C3389 0.959 . S
H3396 C3389 0.961 1_554 S
H3397 C3389 0.960 . S
H3398 C3390 0.930 . S
H3399 C3391 0.929 . S
H3400 C3408 0.929 . S
H3401 C3410 0.930 . S
H3402 C3412 0.930 . S
H3403 C3415 0.929 . S
H3404 C3418 0.930 . S
H3405 C3420 0.960 . S
H3406 C3420 0.960 . S
H3407 C3420 0.960 . S
C3408 H3400 0.929 . S
C3408 C3409 1.377 . S
C3408 C3410 1.384 . S
C3409 C3408 1.377 . S
C3409 C3415 1.390 . S
C3410 H3401 0.930 . S
C3410 C3408 1.384 . S
C3410 C3411 1.372 . S
C3411 C3410 1.372 . S
C3411 C3412 1.400 . S
C3411 C3416 1.490 . S
C3412 H3402 0.930 . S
C3412 C3411 1.400 . S
C3412 C3415 1.386 . S
H3413 C3429 0.930 . S
H3414 C3430 0.931 . S
C3415 H3403 0.929 . S
C3415 C3409 1.390 . S
C3415 C3412 1.386 . S
C3416 C3411 1.490 . S
C3416 C3418 1.395 . S
C3416 C3419 1.403 . S
H3417 C3423 0.930 . S
C3418 H3404 0.930 . S
C3418 C3416 1.395 . S
C3418 C3421 1.403 . S
C3419 C3416 1.403 . S
C3419 C3420 1.524 . S
C3419 C3423 1.400 . S
C3420 H3405 0.960 . S
C3420 H3406 0.960 . S
C3420 H3407 0.960 . S
C3420 C3419 1.524 . S
C3421 C3418 1.403 . S
C3421 C3422 1.392 . S
C3421 C3425 1.495 . S
C3422 C3421 1.392 . S
C3422 C3423 1.385 . S
C3422 C3424 1.478 . S
C3423 H3417 0.930 . S
C3423 C3419 1.400 . S
C3423 C3422 1.385 . S
C3424 C3422 1.478 . S
C3424 C3426 1.381 . S
C3424 C3430 1.383 . S
C3425 C3421 1.495 . S
C3425 H3431 0.959 . S
C3425 H3432 0.961 . S
C3425 H3433 0.960 . S
C3426 C3424 1.381 . S
C3426 C3427 1.394 . S
C3426 H3434 0.930 . S
C3427 C3426 1.394 . S
C3427 C3428 1.383 . S
C3427 H3435 0.929 . S
C3428 C3427 1.383 . S
C3428 C3429 1.377 . S
C3429 H3413 0.930 . S
C3429 C3428 1.377 . S
C3429 C3430 1.379 . S
C3430 H3414 0.931 . S
C3430 C3424 1.383 . S
C3430 C3429 1.379 . S
H3431 C3425 0.959 . S
H3432 C3425 0.961 . S
H3433 C3425 0.960 . S
H3434 C3426 0.930 . S
H3435 C3427 0.929 . S
H3436 C3444 0.929 . S
H3437 C3446 0.930 . S
H3438 C3448 0.930 . S
H3439 C3451 0.917 1_556 S
H3440 C3454 0.930 1_556 S
H3441 C3456 0.960 . S
H3442 C3456 0.960 . S
H3443 C3456 0.960 . S
C3444 H3436 0.929 . S
C3444 C3445 1.377 . S
C3444 C3446 1.384 . S
C3445 C3444 1.377 . S
C3445 C3451 1.398 . S
C3446 H3437 0.930 . S
C3446 C3444 1.384 . S
C3446 C3447 1.372 . S
C3447 C3446 1.372 . S
C3447 C3448 1.400 . S
C3447 C3452 1.490 . S
C3448 H3438 0.930 . S
C3448 C3447 1.400 . S
C3448 C3451 1.390 . S
H3449 C3465 0.930 . S
H3450 C3466 0.931 . S
C3451 H3439 0.917 1_554 S
C3451 C3445 1.398 . S
C3451 C3448 1.390 . S
C3452 C3447 1.490 . S
C3452 C3454 1.395 . S
C3452 C3455 1.403 . S
H3453 C3459 0.930 . S
C3454 H3440 0.930 1_554 S
C3454 C3452 1.395 . S
C3454 C3457 1.403 . S
C3455 C3452 1.403 . S
C3455 C3456 1.524 . S
C3455 C3459 1.400 . S
C3456 H3441 0.960 . S
C3456 H3442 0.960 . S
C3456 H3443 0.960 . S
C3456 C3455 1.524 . S
C3457 C3454 1.403 . S
C3457 C3458 1.392 . S
C3457 C3461 1.495 1_554 S
C3458 C3457 1.392 . S
C3458 C3459 1.385 . S
C3458 C3460 1.478 . S
C3459 H3453 0.930 . S
C3459 C3455 1.400 . S
C3459 C3458 1.385 . S
C3460 C3458 1.478 . S
C3460 C3462 1.381 . S
C3460 C3466 1.383 . S
C3461 C3457 1.495 1_556 S
C3461 H3467 0.959 . S
C3461 H3468 0.961 . S
C3461 H3469 0.960 1_556 S
C3462 C3460 1.381 . S
C3462 C3463 1.394 . S
C3462 H3470 0.930 . S
C3463 C3462 1.394 . S
C3463 C3464 1.383 . S
C3463 H3471 0.929 . S
C3464 C3463 1.383 . S
C3464 C3465 1.377 . S
C3465 H3449 0.930 . S
C3465 C3464 1.377 . S
C3465 C3466 1.379 . S
C3466 H3450 0.931 . S
C3466 C3460 1.383 . S
C3466 C3465 1.379 . S
H3467 C3461 0.959 . S
H3468 C3461 0.961 . S
H3469 C3461 0.960 1_554 S
H3470 C3462 0.930 . S
H3471 C3463 0.929 . S
H3472 C3480 0.929 . S
H3473 C3482 0.930 . S
H3474 C3484 0.930 . S
H3475 C3487 0.929 . S
H3476 C3490 0.930 . S
H3477 C3492 0.960 . S
H3478 C3492 0.960 . S
H3479 C3492 0.960 . S
C3480 H3472 0.929 . S
C3480 C3481 1.377 . S
C3480 C3482 1.384 . S
C3481 C3480 1.377 . S
C3481 C3487 1.390 . S
C3482 H3473 0.930 . S
C3482 C3480 1.384 . S
C3482 C3483 1.372 . S
C3483 C3482 1.372 . S
C3483 C3484 1.400 . S
C3483 C3488 1.490 . S
C3484 H3474 0.930 . S
C3484 C3483 1.400 . S
C3484 C3487 1.386 . S
H3485 C3501 0.930 . S
H3486 C3502 0.931 . S
C3487 H3475 0.929 . S
C3487 C3481 1.390 . S
C3487 C3484 1.386 . S
C3488 C3483 1.490 . S
C3488 C3490 1.395 . S
C3488 C3491 1.403 . S
H3489 C3495 0.930 . S
C3490 H3476 0.930 . S
C3490 C3488 1.395 . S
C3490 C3493 1.403 . S
C3491 C3488 1.403 . S
C3491 C3492 1.524 . S
C3491 C3495 1.400 . S
C3492 H3477 0.960 . S
C3492 H3478 0.960 . S
C3492 H3479 0.960 . S
C3492 C3491 1.524 . S
C3493 C3490 1.403 . S
C3493 C3494 1.392 . S
C3493 C3497 1.495 . S
C3494 C3493 1.392 . S
C3494 C3495 1.385 . S
C3494 C3496 1.478 . S
C3495 H3489 0.930 . S
C3495 C3491 1.400 . S
C3495 C3494 1.385 . S
C3496 C3494 1.478 . S
C3496 C3498 1.381 . S
C3496 C3502 1.383 . S
C3497 C3493 1.495 . S
C3497 H3503 0.959 . S
C3497 H3504 0.961 . S
C3497 H3505 0.960 . S
C3498 C3496 1.381 . S
C3498 C3499 1.394 . S
C3498 H3506 0.930 . S
C3499 C3498 1.394 . S
C3499 C3500 1.383 . S
C3499 H3507 0.929 . S
C3500 C3499 1.383 . S
C3500 C3501 1.377 . S
C3501 H3485 0.930 . S
C3501 C3500 1.377 . S
C3501 C3502 1.379 . S
C3502 H3486 0.931 . S
C3502 C3496 1.383 . S
C3502 C3501 1.379 . S
H3503 C3497 0.959 . S
H3504 C3497 0.961 . S
H3505 C3497 0.960 . S
H3506 C3498 0.930 . S
H3507 C3499 0.929 . S
H3508 C3516 0.929 . S
H3509 C3518 0.930 . S
H3510 C3520 0.930 . S
H3511 C3523 0.929 . S
H3512 C3526 0.930 . S
H3513 C3528 0.960 . S
H3514 C3528 0.960 . S
H3515 C3528 0.960 . S
C3516 H3508 0.929 . S
C3516 C3517 1.377 . S
C3516 C3518 1.384 . S
C3517 C3516 1.377 . S
C3517 C3523 1.390 . S
C3518 H3509 0.930 . S
C3518 C3516 1.384 . S
C3518 C3519 1.372 . S
C3519 C3518 1.372 . S
C3519 C3520 1.400 . S
C3519 C3524 1.490 . S
C3520 H3510 0.930 . S
C3520 C3519 1.400 . S
C3520 C3523 1.386 . S
H3521 C3537 0.930 . S
H3522 C3538 0.931 . S
C3523 H3511 0.929 . S
C3523 C3517 1.390 . S
C3523 C3520 1.386 . S
C3524 C3519 1.490 . S
C3524 C3526 1.395 . S
C3524 C3527 1.403 . S
H3525 C3531 0.930 . S
C3526 H3512 0.930 . S
C3526 C3524 1.395 . S
C3526 C3529 1.403 . S
C3527 C3524 1.403 . S
C3527 C3528 1.524 . S
C3527 C3531 1.400 . S
C3528 H3513 0.960 . S
C3528 H3514 0.960 . S
C3528 H3515 0.960 . S
C3528 C3527 1.524 . S
C3529 C3526 1.403 . S
C3529 C3530 1.392 . S
C3529 C3533 1.495 . S
C3530 C3529 1.392 . S
C3530 C3531 1.385 . S
C3530 C3532 1.478 . S
C3531 H3525 0.930 . S
C3531 C3527 1.400 . S
C3531 C3530 1.385 . S
C3532 C3530 1.478 . S
C3532 C3534 1.381 . S
C3532 C3538 1.383 . S
C3533 C3529 1.495 . S
C3533 H3539 0.959 . S
C3533 H3540 0.961 . S
C3533 H3541 0.960 . S
C3534 C3532 1.381 . S
C3534 C3535 1.394 . S
C3534 H3542 0.930 . S
C3535 C3534 1.394 . S
C3535 C3536 1.383 . S
C3535 H3543 0.929 . S
C3536 C3535 1.383 . S
C3536 C3537 1.377 . S
C3537 H3521 0.930 . S
C3537 C3536 1.377 . S
C3537 C3538 1.379 . S
C3538 H3522 0.931 . S
C3538 C3532 1.383 . S
C3538 C3537 1.379 . S
H3539 C3533 0.959 . S
H3540 C3533 0.961 . S
H3541 C3533 0.960 . S
H3542 C3534 0.930 . S
H3543 C3535 0.929 . S
H3544 C3552 0.929 . S
H3545 C3554 0.930 . S
H3546 C3556 0.930 . S
H3547 C3559 0.929 . S
H3548 C3562 0.930 . S
H3549 C3564 0.960 . S
H3550 C3564 0.960 . S
H3551 C3564 0.960 . S
C3552 H3544 0.929 . S
C3552 C3553 1.377 . S
C3552 C3554 1.384 . S
C3553 C3552 1.377 . S
C3553 C3559 1.390 . S
C3554 H3545 0.930 . S
C3554 C3552 1.384 . S
C3554 C3555 1.372 . S
C3555 C3554 1.372 . S
C3555 C3556 1.400 . S
C3555 C3560 1.490 . S
C3556 H3546 0.930 . S
C3556 C3555 1.400 . S
C3556 C3559 1.386 . S
H3557 C3573 0.930 . S
H3558 C3574 0.931 . S
C3559 H3547 0.929 . S
C3559 C3553 1.390 . S
C3559 C3556 1.386 . S
C3560 C3555 1.490 . S
C3560 C3562 1.395 . S
C3560 C3563 1.403 . S
H3561 C3567 0.930 . S
C3562 H3548 0.930 . S
C3562 C3560 1.395 . S
C3562 C3565 1.403 . S
C3563 C3560 1.403 . S
C3563 C3564 1.524 . S
C3563 C3567 1.400 . S
C3564 H3549 0.960 . S
C3564 H3550 0.960 . S
C3564 H3551 0.960 . S
C3564 C3563 1.524 . S
C3565 C3562 1.403 . S
C3565 C3566 1.392 . S
C3565 C3569 1.495 . S
C3566 C3565 1.392 . S
C3566 C3567 1.385 . S
C3566 C3568 1.478 . S
C3567 H3561 0.930 . S
C3567 C3563 1.400 . S
C3567 C3566 1.385 . S
C3568 C3566 1.478 . S
C3568 C3570 1.381 . S
C3568 C3574 1.383 . S
C3569 C3565 1.495 . S
C3569 H3575 0.959 . S
C3569 H3576 0.961 . S
C3569 H3577 0.960 . S
C3570 C3568 1.381 . S
C3570 C3571 1.394 . S
C3570 H3578 0.930 . S
C3571 C3570 1.394 . S
C3571 C3572 1.383 . S
C3571 H3579 0.929 . S
C3572 C3571 1.383 . S
C3572 C3573 1.377 . S
C3573 H3557 0.930 . S
C3573 C3572 1.377 . S
C3573 C3574 1.379 . S
C3574 H3558 0.931 . S
C3574 C3568 1.383 . S
C3574 C3573 1.379 . S
H3575 C3569 0.959 . S
H3576 C3569 0.961 . S
H3577 C3569 0.960 . S
H3578 C3570 0.930 . S
H3579 C3571 0.929 . S
H3580 C3588 0.929 . S
H3581 C3590 0.930 . S
H3582 C3592 0.930 . S
H3583 C3595 0.929 . S
H3584 C3598 0.930 . S
H3585 C3600 0.960 . S
H3586 C3600 0.960 . S
H3587 C3600 0.960 . S
C3588 H3580 0.929 . S
C3588 C3589 1.377 . S
C3588 C3590 1.384 . S
C3589 C3588 1.377 . S
C3589 C3595 1.390 . S
C3590 H3581 0.930 . S
C3590 C3588 1.384 . S
C3590 C3591 1.372 . S
C3591 C3590 1.372 . S
C3591 C3592 1.400 . S
C3591 C3596 1.490 . S
C3592 H3582 0.930 . S
C3592 C3591 1.400 . S
C3592 C3595 1.386 . S
H3593 C3609 0.930 . S
H3594 C3610 0.931 . S
C3595 H3583 0.929 . S
C3595 C3589 1.390 . S
C3595 C3592 1.386 . S
C3596 C3591 1.490 . S
C3596 C3598 1.395 . S
C3596 C3599 1.403 . S
H3597 C3603 0.930 . S
C3598 H3584 0.930 . S
C3598 C3596 1.395 . S
C3598 C3601 1.403 . S
C3599 C3596 1.403 . S
C3599 C3600 1.524 . S
C3599 C3603 1.400 . S
C3600 H3585 0.960 . S
C3600 H3586 0.960 . S
C3600 H3587 0.960 . S
C3600 C3599 1.524 . S
C3601 C3598 1.403 . S
C3601 C3602 1.392 . S
C3601 C3605 1.495 . S
C3602 C3601 1.392 . S
C3602 C3603 1.385 . S
C3602 C3604 1.478 . S
C3603 H3597 0.930 . S
C3603 C3599 1.400 . S
C3603 C3602 1.385 . S
C3604 C3602 1.478 . S
C3604 C3606 1.381 . S
C3604 C3610 1.383 . S
C3605 C3601 1.495 . S
C3605 H3611 0.959 . S
C3605 H3612 0.961 . S
C3605 H3613 0.960 . S
C3606 C3604 1.381 . S
C3606 C3607 1.394 . S
C3606 H3614 0.930 . S
C3607 C3606 1.394 . S
C3607 C3608 1.383 . S
C3607 H3615 0.929 . S
C3608 C3607 1.383 . S
C3608 C3609 1.377 . S
C3609 H3593 0.930 . S
C3609 C3608 1.377 . S
C3609 C3610 1.379 . S
C3610 H3594 0.931 . S
C3610 C3604 1.383 . S
C3610 C3609 1.379 . S
H3611 C3605 0.959 . S
H3612 C3605 0.961 . S
H3613 C3605 0.960 . S
H3614 C3606 0.930 . S
H3615 C3607 0.929 . S
H3616 C3624 0.929 . S
H3617 C3626 0.930 . S
H3618 C3628 0.930 . S
H3619 C3631 0.929 . S
H3620 C3634 0.930 . S
H3621 C3636 0.960 . S
H3622 C3636 0.960 . S
H3623 C3636 0.960 . S
C3624 H3616 0.929 . S
C3624 C3625 1.377 . S
C3624 C3626 1.384 . S
C3625 C3624 1.377 . S
C3625 C3631 1.390 . S
C3626 H3617 0.930 . S
C3626 C3624 1.384 . S
C3626 C3627 1.372 . S
C3627 C3626 1.372 . S
C3627 C3628 1.400 . S
C3627 C3632 1.490 . S
C3628 H3618 0.930 . S
C3628 C3627 1.400 . S
C3628 C3631 1.386 . S
H3629 C3645 0.930 . S
H3630 C3646 0.931 . S
C3631 H3619 0.929 . S
C3631 C3625 1.390 . S
C3631 C3628 1.386 . S
C3632 C3627 1.490 . S
C3632 C3634 1.395 . S
C3632 C3635 1.403 . S
H3633 C3639 0.930 . S
C3634 H3620 0.930 . S
C3634 C3632 1.395 . S
C3634 C3637 1.403 . S
C3635 C3632 1.403 . S
C3635 C3636 1.524 . S
C3635 C3639 1.400 . S
C3636 H3621 0.960 . S
C3636 H3622 0.960 . S
C3636 H3623 0.960 . S
C3636 C3635 1.524 . S
C3637 C3634 1.403 . S
C3637 C3638 1.392 . S
C3637 C3641 1.495 . S
C3638 C3637 1.392 . S
C3638 C3639 1.385 . S
C3638 C3640 1.478 . S
C3639 H3633 0.930 . S
C3639 C3635 1.400 . S
C3639 C3638 1.385 . S
C3640 C3638 1.478 . S
C3640 C3642 1.381 . S
C3640 C3646 1.383 . S
C3641 C3637 1.495 . S
C3641 H3647 0.979 . S
C3641 H3648 0.961 1_554 S
C3641 H3649 0.960 . S
C3642 C3640 1.381 . S
C3642 C3643 1.394 . S
C3642 H3650 0.930 . S
C3643 C3642 1.394 . S
C3643 C3644 1.383 . S
C3643 H3651 0.929 . S
C3644 C3643 1.383 . S
C3644 C3645 1.377 . S
C3645 H3629 0.930 . S
C3645 C3644 1.377 . S
C3645 C3646 1.379 . S
C3646 H3630 0.931 . S
C3646 C3640 1.383 . S
C3646 C3645 1.379 . S
H3647 C3641 0.979 . S
H3648 C3641 0.961 1_556 S
H3649 C3641 0.960 . S
H3650 C3642 0.930 . S
H3651 C3643 0.929 . S
H3652 C3660 0.929 . S
H3653 C3662 0.930 . S
H3654 C3664 0.930 . S
H3655 C3667 0.929 . S
H3656 C3670 0.930 . S
H3657 C3672 0.960 . S
H3658 C3672 0.960 . S
H3659 C3672 0.960 . S
C3660 H3652 0.929 . S
C3660 C3661 1.377 . S
C3660 C3662 1.384 . S
C3661 C3660 1.377 . S
C3661 C3667 1.390 . S
C3662 H3653 0.930 . S
C3662 C3660 1.384 . S
C3662 C3663 1.372 . S
C3663 C3662 1.372 . S
C3663 C3664 1.400 . S
C3663 C3668 1.490 . S
C3664 H3654 0.930 . S
C3664 C3663 1.400 . S
C3664 C3667 1.386 . S
H3665 C3681 0.930 . S
H3666 C3682 0.931 . S
C3667 H3655 0.929 . S
C3667 C3661 1.390 . S
C3667 C3664 1.386 . S
C3668 C3663 1.490 . S
C3668 C3670 1.395 . S
C3668 C3671 1.403 . S
H3669 C3675 0.930 . S
C3670 H3656 0.930 . S
C3670 C3668 1.395 . S
C3670 C3673 1.403 . S
C3671 C3668 1.403 . S
C3671 C3672 1.524 . S
C3671 C3675 1.400 . S
C3672 H3657 0.960 . S
C3672 H3658 0.960 . S
C3672 H3659 0.960 . S
C3672 C3671 1.524 . S
C3673 C3670 1.403 . S
C3673 C3674 1.392 . S
C3673 C3677 1.495 . S
C3674 C3673 1.392 . S
C3674 C3675 1.385 . S
C3674 C3676 1.478 . S
C3675 H3669 0.930 . S
C3675 C3671 1.400 . S
C3675 C3674 1.385 . S
C3676 C3674 1.478 . S
C3676 C3678 1.381 . S
C3676 C3682 1.383 . S
C3677 C3673 1.495 . S
C3677 H3683 0.959 . S
C3677 H3684 0.961 . S
C3677 H3685 0.960 . S
C3678 C3676 1.381 . S
C3678 C3679 1.394 . S
C3678 H3686 0.930 . S
C3679 C3678 1.394 . S
C3679 C3680 1.383 . S
C3679 H3687 0.929 . S
C3680 C3679 1.383 . S
C3680 C3681 1.377 . S
C3681 H3665 0.930 . S
C3681 C3680 1.377 . S
C3681 C3682 1.379 . S
C3682 H3666 0.931 . S
C3682 C3676 1.383 . S
C3682 C3681 1.379 . S
H3683 C3677 0.959 . S
H3684 C3677 0.961 . S
H3685 C3677 0.960 . S
H3686 C3678 0.930 . S
H3687 C3679 0.929 . S
H3688 C3696 0.929 . S
H3689 C3698 0.930 . S
H3690 C3700 0.930 . S
H3691 C3703 0.929 . S
H3692 C3706 0.930 . S
H3693 C3708 0.960 . S
H3694 C3708 0.960 . S
H3695 C3708 0.960 . S
C3696 H3688 0.929 . S
C3696 C3697 1.377 . S
C3696 C3698 1.384 . S
C3697 C3696 1.377 . S
C3697 C3703 1.390 . S
C3698 H3689 0.930 . S
C3698 C3696 1.384 . S
C3698 C3699 1.372 . S
C3699 C3698 1.372 . S
C3699 C3700 1.400 . S
C3699 C3704 1.490 . S
C3700 H3690 0.930 . S
C3700 C3699 1.400 . S
C3700 C3703 1.386 . S
H3701 C3717 0.930 . S
H3702 C3718 0.931 . S
C3703 H3691 0.929 . S
C3703 C3697 1.390 . S
C3703 C3700 1.386 . S
C3704 C3699 1.490 . S
C3704 C3706 1.395 . S
C3704 C3707 1.403 . S
H3705 C3711 0.930 . S
C3706 H3692 0.930 . S
C3706 C3704 1.395 . S
C3706 C3709 1.403 . S
C3707 C3704 1.403 . S
C3707 C3708 1.524 . S
C3707 C3711 1.400 . S
C3708 H3693 0.960 . S
C3708 H3694 0.960 . S
C3708 H3695 0.960 . S
C3708 C3707 1.524 . S
C3709 C3706 1.403 . S
C3709 C3710 1.392 . S
C3709 C3713 1.495 . S
C3710 C3709 1.392 . S
C3710 C3711 1.385 . S
C3710 C3712 1.478 . S
C3711 H3705 0.930 . S
C3711 C3707 1.400 . S
C3711 C3710 1.385 . S
C3712 C3710 1.478 . S
C3712 C3714 1.381 . S
C3712 C3718 1.383 . S
C3713 C3709 1.495 . S
C3713 H3719 0.959 . S
C3713 H3720 0.961 . S
C3713 H3721 0.960 . S
C3714 C3712 1.381 . S
C3714 C3715 1.394 . S
C3714 H3722 0.930 . S
C3715 C3714 1.394 . S
C3715 C3716 1.383 . S
C3715 H3723 0.929 . S
C3716 C3715 1.383 . S
C3716 C3717 1.377 . S
C3717 H3701 0.930 . S
C3717 C3716 1.377 . S
C3717 C3718 1.379 . S
C3718 H3702 0.931 . S
C3718 C3712 1.383 . S
C3718 C3717 1.379 . S
H3719 C3713 0.959 . S
H3720 C3713 0.961 . S
H3721 C3713 0.960 . S
H3722 C3714 0.930 . S
H3723 C3715 0.929 . S
H3724 C3732 0.929 . S
H3725 C3734 0.930 . S
H3726 C3736 0.930 . S
H3727 C3739 0.929 . S
H3728 C3742 0.930 . S
H3729 C3744 0.960 . S
H3730 C3744 0.960 . S
H3731 C3744 0.960 . S
C3732 H3724 0.929 . S
C3732 C3733 1.377 . S
C3732 C3734 1.384 . S
C3733 C3732 1.377 . S
C3733 C3739 1.390 . S
C3734 H3725 0.930 . S
C3734 C3732 1.384 . S
C3734 C3735 1.372 . S
C3735 C3734 1.372 . S
C3735 C3736 1.400 . S
C3735 C3740 1.490 . S
C3736 H3726 0.930 . S
C3736 C3735 1.400 . S
C3736 C3739 1.386 . S
H3737 C3753 0.930 . S
H3738 C3754 0.931 . S
C3739 H3727 0.929 . S
C3739 C3733 1.390 . S
C3739 C3736 1.386 . S
C3740 C3735 1.490 . S
C3740 C3742 1.395 . S
C3740 C3743 1.403 . S
H3741 C3747 0.930 . S
C3742 H3728 0.930 . S
C3742 C3740 1.395 . S
C3742 C3745 1.403 . S
C3743 C3740 1.403 . S
C3743 C3744 1.524 . S
C3743 C3747 1.400 . S
C3744 H3729 0.960 . S
C3744 H3730 0.960 . S
C3744 H3731 0.960 . S
C3744 C3743 1.524 . S
C3745 C3742 1.403 . S
C3745 C3746 1.392 . S
C3745 C3749 1.495 . S
C3746 C3745 1.392 . S
C3746 C3747 1.385 . S
C3746 C3748 1.478 . S
C3747 H3741 0.930 . S
C3747 C3743 1.400 . S
C3747 C3746 1.385 . S
C3748 C3746 1.478 . S
C3748 C3750 1.381 . S
C3748 C3754 1.383 . S
C3749 C3745 1.495 . S
C3749 H3755 0.959 . S
C3749 H3756 0.961 . S
C3749 H3757 0.960 . S
C3750 C3748 1.381 . S
C3750 C3751 1.394 . S
C3750 H3758 0.930 . S
C3751 C3750 1.394 . S
C3751 C3752 1.383 . S
C3751 H3759 0.929 . S
C3752 C3751 1.383 . S
C3752 C3753 1.377 . S
C3753 H3737 0.930 . S
C3753 C3752 1.377 . S
C3753 C3754 1.379 . S
C3754 H3738 0.931 . S
C3754 C3748 1.383 . S
C3754 C3753 1.379 . S
H3755 C3749 0.959 . S
H3756 C3749 0.961 . S
H3757 C3749 0.960 . S
H3758 C3750 0.930 . S
H3759 C3751 0.929 . S
H3760 C3768 0.929 . S
H3761 C3770 0.930 . S
H3762 C3772 0.930 . S
H3763 C3775 0.929 . S
H3764 C3778 0.930 . S
H3765 C3780 0.960 . S
H3766 C3780 0.960 . S
H3767 C3780 0.960 . S
C3768 H3760 0.929 . S
C3768 C3769 1.377 . S
C3768 C3770 1.384 . S
C3769 C3768 1.377 . S
C3769 C3775 1.390 . S
C3770 H3761 0.930 . S
C3770 C3768 1.384 . S
C3770 C3771 1.372 . S
C3771 C3770 1.372 . S
C3771 C3772 1.400 . S
C3771 C3776 1.490 . S
C3772 H3762 0.930 . S
C3772 C3771 1.400 . S
C3772 C3775 1.386 . S
H3773 C3789 0.930 . S
H3774 C3790 0.931 . S
C3775 H3763 0.929 . S
C3775 C3769 1.390 . S
C3775 C3772 1.386 . S
C3776 C3771 1.490 . S
C3776 C3778 1.395 . S
C3776 C3779 1.403 . S
H3777 C3783 0.930 . S
C3778 H3764 0.930 . S
C3778 C3776 1.395 . S
C3778 C3781 1.403 . S
C3779 C3776 1.403 . S
C3779 C3780 1.524 . S
C3779 C3783 1.400 . S
C3780 H3765 0.960 . S
C3780 H3766 0.960 . S
C3780 H3767 0.960 . S
C3780 C3779 1.524 . S
C3781 C3778 1.403 . S
C3781 C3782 1.392 . S
C3781 C3785 1.495 . S
C3782 C3781 1.392 . S
C3782 C3783 1.385 . S
C3782 C3784 1.478 . S
C3783 H3777 0.930 . S
C3783 C3779 1.400 . S
C3783 C3782 1.385 . S
C3784 C3782 1.478 . S
C3784 C3786 1.381 . S
C3784 C3790 1.383 . S
C3785 C3781 1.495 . S
C3785 H3791 0.959 . S
C3785 H3792 0.961 . S
C3785 H3793 0.960 . S
C3786 C3784 1.381 . S
C3786 C3787 1.394 . S
C3786 H3794 0.930 . S
C3787 C3786 1.394 . S
C3787 C3788 1.383 . S
C3787 H3795 0.929 . S
C3788 C3787 1.383 . S
C3788 C3789 1.377 . S
C3789 H3773 0.930 . S
C3789 C3788 1.377 . S
C3789 C3790 1.379 . S
C3790 H3774 0.931 . S
C3790 C3784 1.383 . S
C3790 C3789 1.379 . S
H3791 C3785 0.959 . S
H3792 C3785 0.961 . S
H3793 C3785 0.960 . S
H3794 C3786 0.930 . S
H3795 C3787 0.929 . S
H3796 C3804 0.929 . S
H3797 C3806 0.930 . S
H3798 C3808 0.930 . S
H3799 C3811 0.929 . S
H3800 C3814 0.930 . S
H3801 C3816 0.960 . S
H3802 C3816 0.960 . S
H3803 C3816 0.960 . S
C3804 H3796 0.929 . S
C3804 C3805 1.377 . S
C3804 C3806 1.384 . S
C3805 C3804 1.377 . S
C3805 C3811 1.390 . S
C3806 H3797 0.930 . S
C3806 C3804 1.384 . S
C3806 C3807 1.372 . S
C3807 C3806 1.372 . S
C3807 C3808 1.400 . S
C3807 C3812 1.490 . S
C3808 H3798 0.930 . S
C3808 C3807 1.400 . S
C3808 C3811 1.386 . S
H3809 C3825 0.930 . S
H3810 C3826 0.931 . S
C3811 H3799 0.929 . S
C3811 C3805 1.390 . S
C3811 C3808 1.386 . S
C3812 C3807 1.490 . S
C3812 C3814 1.395 . S
C3812 C3815 1.403 . S
H3813 C3819 0.930 . S
C3814 H3800 0.930 . S
C3814 C3812 1.395 . S
C3814 C3817 1.403 . S
C3815 C3812 1.403 . S
C3815 C3816 1.524 . S
C3815 C3819 1.400 . S
C3816 H3801 0.960 . S
C3816 H3802 0.960 . S
C3816 H3803 0.960 . S
C3816 C3815 1.524 . S
C3817 C3814 1.403 . S
C3817 C3818 1.392 . S
C3817 C3821 1.495 . S
C3818 C3817 1.392 . S
C3818 C3819 1.385 . S
C3818 C3820 1.478 . S
C3819 H3813 0.930 . S
C3819 C3815 1.400 . S
C3819 C3818 1.385 . S
C3820 C3818 1.478 . S
C3820 C3822 1.381 . S
C3820 C3826 1.383 . S
C3821 C3817 1.495 . S
C3821 H3827 0.959 . S
C3821 H3828 0.961 . S
C3821 H3829 0.960 . S
C3822 C3820 1.381 . S
C3822 C3823 1.394 . S
C3822 H3830 0.930 . S
C3823 C3822 1.394 . S
C3823 C3824 1.383 . S
C3823 H3831 0.929 . S
C3824 C3823 1.383 . S
C3824 C3825 1.377 . S
C3825 H3809 0.930 . S
C3825 C3824 1.377 . S
C3825 C3826 1.379 . S
C3826 H3810 0.931 . S
C3826 C3820 1.383 . S
C3826 C3825 1.379 . S
H3827 C3821 0.959 . S
H3828 C3821 0.961 . S
H3829 C3821 0.960 . S
H3830 C3822 0.930 . S
H3831 C3823 0.929 . S
H3832 C3840 0.929 . S
H3833 C3842 0.930 . S
H3834 C3844 0.930 . S
H3835 C3847 0.929 . S
H3836 C3850 0.930 . S
H3837 C3852 0.960 . S
H3838 C3852 0.960 . S
H3839 C3852 0.960 . S
C3840 H3832 0.929 . S
C3840 C3841 1.377 . S
C3840 C3842 1.384 . S
C3841 C3840 1.377 . S
C3841 C3847 1.390 . S
C3842 H3833 0.930 . S
C3842 C3840 1.384 . S
C3842 C3843 1.372 . S
C3843 C3842 1.372 . S
C3843 C3844 1.400 . S
C3843 C3848 1.490 . S
C3844 H3834 0.930 . S
C3844 C3843 1.400 . S
C3844 C3847 1.386 . S
H3845 C3861 0.930 . S
H3846 C3862 0.931 . S
C3847 H3835 0.929 . S
C3847 C3841 1.390 . S
C3847 C3844 1.386 . S
C3848 C3843 1.490 . S
C3848 C3850 1.395 . S
C3848 C3851 1.403 . S
H3849 C3855 0.930 . S
C3850 H3836 0.930 . S
C3850 C3848 1.395 . S
C3850 C3853 1.403 . S
C3851 C3848 1.403 . S
C3851 C3852 1.524 . S
C3851 C3855 1.400 . S
C3852 H3837 0.960 . S
C3852 H3838 0.960 . S
C3852 H3839 0.960 . S
C3852 C3851 1.524 . S
C3853 C3850 1.403 . S
C3853 C3854 1.392 . S
C3853 C3857 1.495 . S
C3854 C3853 1.392 . S
C3854 C3855 1.385 . S
C3854 C3856 1.478 . S
C3855 H3849 0.930 . S
C3855 C3851 1.400 . S
C3855 C3854 1.385 . S
C3856 C3854 1.478 . S
C3856 C3858 1.381 . S
C3856 C3862 1.383 . S
C3857 C3853 1.495 . S
C3857 H3863 0.959 . S
C3857 H3864 0.961 . S
C3857 H3865 0.960 . S
C3858 C3856 1.381 . S
C3858 C3859 1.394 . S
C3858 H3866 0.930 . S
C3859 C3858 1.394 . S
C3859 C3860 1.383 . S
C3859 H3867 0.929 . S
C3860 C3859 1.383 . S
C3860 C3861 1.377 . S
C3861 H3845 0.930 . S
C3861 C3860 1.377 . S
C3861 C3862 1.379 . S
C3862 H3846 0.931 . S
C3862 C3856 1.383 . S
C3862 C3861 1.379 . S
H3863 C3857 0.959 . S
H3864 C3857 0.961 . S
H3865 C3857 0.960 . S
H3866 C3858 0.930 . S
H3867 C3859 0.929 . S
H3868 C3876 0.929 . S
H3869 C3878 0.930 . S
H3870 C3880 0.930 . S
H3871 C3883 0.929 . S
H3872 C3886 0.930 . S
H3873 C3888 0.960 . S
H3874 C3888 0.960 . S
H3875 C3888 0.960 . S
C3876 H3868 0.929 . S
C3876 C3877 1.377 . S
C3876 C3878 1.384 . S
C3877 C3876 1.377 . S
C3877 C3883 1.390 . S
C3878 H3869 0.930 . S
C3878 C3876 1.384 . S
C3878 C3879 1.372 . S
C3879 C3878 1.372 . S
C3879 C3880 1.400 . S
C3879 C3884 1.490 . S
C3880 H3870 0.930 . S
C3880 C3879 1.400 . S
C3880 C3883 1.386 . S
H3881 C3897 0.930 . S
H3882 C3898 0.931 . S
C3883 H3871 0.929 . S
C3883 C3877 1.390 . S
C3883 C3880 1.386 . S
C3884 C3879 1.490 . S
C3884 C3886 1.395 . S
C3884 C3887 1.403 . S
H3885 C3891 0.930 . S
C3886 H3872 0.930 . S
C3886 C3884 1.395 . S
C3886 C3889 1.403 . S
C3887 C3884 1.403 . S
C3887 C3888 1.524 . S
C3887 C3891 1.400 . S
C3888 H3873 0.960 . S
C3888 H3874 0.960 . S
C3888 H3875 0.960 . S
C3888 C3887 1.524 . S
C3889 C3886 1.403 . S
C3889 C3890 1.392 . S
C3889 C3893 1.495 . S
C3890 C3889 1.392 . S
C3890 C3891 1.385 . S
C3890 C3892 1.478 . S
C3891 H3885 0.930 . S
C3891 C3887 1.400 . S
C3891 C3890 1.385 . S
C3892 C3890 1.478 . S
C3892 C3894 1.381 . S
C3892 C3898 1.383 . S
C3893 C3889 1.495 . S
C3893 H3899 0.959 . S
C3893 H3900 0.961 . S
C3893 H3901 0.960 . S
C3894 C3892 1.381 . S
C3894 C3895 1.394 . S
C3894 H3902 0.930 . S
C3895 C3894 1.394 . S
C3895 C3896 1.383 . S
C3895 H3903 0.929 . S
C3896 C3895 1.383 . S
C3896 C3897 1.377 . S
C3897 H3881 0.930 . S
C3897 C3896 1.377 . S
C3897 C3898 1.379 . S
C3898 H3882 0.931 . S
C3898 C3892 1.383 . S
C3898 C3897 1.379 . S
H3899 C3893 0.959 . S
H3900 C3893 0.961 . S
H3901 C3893 0.960 . S
H3902 C3894 0.930 . S
H3903 C3895 0.929 . S
H3904 C3912 0.929 . S
H3905 C3914 0.930 . S
H3906 C3916 0.930 . S
H3907 C3919 0.929 . S
H3908 C3922 0.930 . S
H3909 C3924 0.960 1_455 S
H3910 C3924 0.960 . S
H3911 C3924 0.960 . S
C3912 H3904 0.929 . S
C3912 C3913 1.377 . S
C3912 C3914 1.384 . S
C3913 C3912 1.377 . S
C3913 C3919 1.390 . S
C3914 H3905 0.930 . S
C3914 C3912 1.384 . S
C3914 C3915 1.372 . S
C3915 C3914 1.372 . S
C3915 C3916 1.400 . S
C3915 C3920 1.490 . S
C3916 H3906 0.930 . S
C3916 C3915 1.400 . S
C3916 C3919 1.386 . S
H3917 C3933 0.930 . S
H3918 C3934 0.931 . S
C3919 H3907 0.929 . S
C3919 C3913 1.390 . S
C3919 C3916 1.386 . S
C3920 C3915 1.490 . S
C3920 C3922 1.395 . S
C3920 C3923 1.403 . S
H3921 C3927 0.930 1_455 S
C3922 H3908 0.930 . S
C3922 C3920 1.395 . S
C3922 C3925 1.403 . S
C3923 C3920 1.403 . S
C3923 C3924 1.524 . S
C3923 C3927 1.400 . S
C3924 H3909 0.960 1_655 S
C3924 H3910 0.960 . S
C3924 H3911 0.960 . S
C3924 C3923 1.524 . S
C3925 C3922 1.403 . S
C3925 C3926 1.392 . S
C3925 C3929 1.495 . S
C3926 C3925 1.392 . S
C3926 C3927 1.385 . S
C3926 C3928 1.502 . S
C3927 H3921 0.930 1_655 S
C3927 C3923 1.400 . S
C3927 C3926 1.385 . S
C3928 C3926 1.502 . S
C3928 C3930 1.407 . S
C3928 C3934 1.332 1_655 S
C3929 C3925 1.495 . S
C3929 H3935 0.959 . S
C3929 H3936 0.961 . S
C3929 H3937 0.960 . S
C3930 C3928 1.407 . S
C3930 C3931 1.394 1_655 S
C3930 H3938 0.930 . S
C3931 C3930 1.394 1_455 S
C3931 C3932 1.383 . S
C3931 H3939 0.914 1_455 S
C3932 C3931 1.383 . S
C3932 C3933 1.377 . S
C3933 H3917 0.930 . S
C3933 C3932 1.377 . S
C3933 C3934 1.379 . S
C3934 H3918 0.931 . S
C3934 C3928 1.332 1_455 S
C3934 C3933 1.379 . S
H3935 C3929 0.959 . S
H3936 C3929 0.961 . S
H3937 C3929 0.960 . S
H3938 C3930 0.930 . S
H3939 C3931 0.914 1_655 S
H3940 C3948 0.929 . S
H3941 C3950 0.930 . S
H3942 C3952 0.930 . S
H3943 C3955 0.929 . S
H3944 C3958 0.930 . S
H3945 C3960 0.960 . S
H3946 C3960 0.960 . S
H3947 C3960 0.960 . S
C3948 H3940 0.929 . S
C3948 C3949 1.377 . S
C3948 C3950 1.384 . S
C3949 C3948 1.377 . S
C3949 C3955 1.390 . S
C3950 H3941 0.930 . S
C3950 C3948 1.384 . S
C3950 C3951 1.372 . S
C3951 C3950 1.372 . S
C3951 C3952 1.400 . S
C3951 C3956 1.490 . S
C3952 H3942 0.930 . S
C3952 C3951 1.400 . S
C3952 C3955 1.386 . S
H3953 C3969 0.930 . S
H3954 C3970 0.931 . S
C3955 H3943 0.929 . S
C3955 C3949 1.390 . S
C3955 C3952 1.386 . S
C3956 C3951 1.490 . S
C3956 C3958 1.395 . S
C3956 C3959 1.403 . S
H3957 C3963 0.930 . S
C3958 H3944 0.930 . S
C3958 C3956 1.395 . S
C3958 C3961 1.403 . S
C3959 C3956 1.403 . S
C3959 C3960 1.524 . S
C3959 C3963 1.400 . S
C3960 H3945 0.960 . S
C3960 H3946 0.960 . S
C3960 H3947 0.960 . S
C3960 C3959 1.524 . S
C3961 C3958 1.403 . S
C3961 C3962 1.392 . S
C3961 C3965 1.495 . S
C3962 C3961 1.392 . S
C3962 C3963 1.385 . S
C3962 C3964 1.478 . S
C3963 H3957 0.930 . S
C3963 C3959 1.400 . S
C3963 C3962 1.385 . S
C3964 C3962 1.478 . S
C3964 C3966 1.381 . S
C3964 C3970 1.383 . S
C3965 C3961 1.495 . S
C3965 H3971 0.959 . S
C3965 H3972 0.961 . S
C3965 H3973 0.960 . S
C3966 C3964 1.381 . S
C3966 C3967 1.394 . S
C3966 H3974 0.930 . S
C3967 C3966 1.394 . S
C3967 C3968 1.383 . S
C3967 H3975 0.929 . S
C3968 C3967 1.383 . S
C3968 C3969 1.377 . S
C3969 H3953 0.930 . S
C3969 C3968 1.377 . S
C3969 C3970 1.379 . S
C3970 H3954 0.931 . S
C3970 C3964 1.383 . S
C3970 C3969 1.379 . S
H3971 C3965 0.959 . S
H3972 C3965 0.961 . S
H3973 C3965 0.960 . S
H3974 C3966 0.930 . S
H3975 C3967 0.929 . S
H3976 C3984 0.929 . S
H3977 C3986 0.930 . S
H3978 C3988 0.930 . S
H3979 C3991 0.929 . S
H3980 C3994 0.930 . S
H3981 C3996 0.960 . S
H3982 C3996 0.960 . S
H3983 C3996 0.960 . S
C3984 H3976 0.929 . S
C3984 C3985 1.377 . S
C3984 C3986 1.384 . S
C3985 C3984 1.377 . S
C3985 C3991 1.390 . S
C3986 H3977 0.930 . S
C3986 C3984 1.384 . S
C3986 C3987 1.372 . S
C3987 C3986 1.372 . S
C3987 C3988 1.400 . S
C3987 C3992 1.490 . S
C3988 H3978 0.930 . S
C3988 C3987 1.400 . S
C3988 C3991 1.386 . S
H3989 C4005 0.930 . S
H3990 C4006 0.931 . S
C3991 H3979 0.929 . S
C3991 C3985 1.390 . S
C3991 C3988 1.386 . S
C3992 C3987 1.490 . S
C3992 C3994 1.395 . S
C3992 C3995 1.403 . S
H3993 C3999 0.930 . S
C3994 H3980 0.930 . S
C3994 C3992 1.395 . S
C3994 C3997 1.403 . S
C3995 C3992 1.403 . S
C3995 C3996 1.524 . S
C3995 C3999 1.400 . S
C3996 H3981 0.960 . S
C3996 H3982 0.960 . S
C3996 H3983 0.960 . S
C3996 C3995 1.524 . S
C3997 C3994 1.403 . S
C3997 C3998 1.392 . S
C3997 C4001 1.495 . S
C3998 C3997 1.392 . S
C3998 C3999 1.385 . S
C3998 C4000 1.478 . S
C3999 H3993 0.930 . S
C3999 C3995 1.400 . S
C3999 C3998 1.385 . S
C4000 C3998 1.478 . S
C4000 C4002 1.381 . S
C4000 C4006 1.383 . S
C4001 C3997 1.495 . S
C4001 H4007 0.959 . S
C4001 H4008 0.961 . S
C4001 H4009 0.960 . S
C4002 C4000 1.381 . S
C4002 C4003 1.394 . S
C4002 H4010 0.930 . S
C4003 C4002 1.394 . S
C4003 C4004 1.383 . S
C4003 H4011 0.929 . S
C4004 C4003 1.383 . S
C4004 C4005 1.377 . S
C4005 H3989 0.930 . S
C4005 C4004 1.377 . S
C4005 C4006 1.379 . S
C4006 H3990 0.931 . S
C4006 C4000 1.383 . S
C4006 C4005 1.379 . S
H4007 C4001 0.959 . S
H4008 C4001 0.961 . S
H4009 C4001 0.960 . S
H4010 C4002 0.930 . S
H4011 C4003 0.929 . S
H4012 C4020 0.929 . S
H4013 C4022 0.930 . S
H4014 C4024 0.930 . S
H4015 C4027 0.929 . S
H4016 C4030 0.930 . S
H4017 C4032 0.960 . S
H4018 C4032 0.960 . S
H4019 C4032 0.960 . S
C4020 H4012 0.929 . S
C4020 C4021 1.377 . S
C4020 C4022 1.384 . S
C4021 C4020 1.377 . S
C4021 C4027 1.390 . S
C4022 H4013 0.930 . S
C4022 C4020 1.384 . S
C4022 C4023 1.372 . S
C4023 C4022 1.372 . S
C4023 C4024 1.400 . S
C4023 C4028 1.490 . S
C4024 H4014 0.930 . S
C4024 C4023 1.400 . S
C4024 C4027 1.386 . S
H4025 C4041 0.930 . S
H4026 C4042 0.931 . S
C4027 H4015 0.929 . S
C4027 C4021 1.390 . S
C4027 C4024 1.386 . S
C4028 C4023 1.490 . S
C4028 C4030 1.395 . S
C4028 C4031 1.403 . S
H4029 C4035 0.930 . S
C4030 H4016 0.930 . S
C4030 C4028 1.395 . S
C4030 C4033 1.403 . S
C4031 C4028 1.403 . S
C4031 C4032 1.524 . S
C4031 C4035 1.400 . S
C4032 H4017 0.960 . S
C4032 H4018 0.960 . S
C4032 H4019 0.960 . S
C4032 C4031 1.524 . S
C4033 C4030 1.403 . S
C4033 C4034 1.392 . S
C4033 C4037 1.495 . S
C4034 C4033 1.392 . S
C4034 C4035 1.385 . S
C4034 C4036 1.478 . S
C4035 H4029 0.930 . S
C4035 C4031 1.400 . S
C4035 C4034 1.385 . S
C4036 C4034 1.478 . S
C4036 C4038 1.381 . S
C4036 C4042 1.383 . S
C4037 C4033 1.495 . S
C4037 H4043 0.959 . S
C4037 H4044 0.961 . S
C4037 H4045 0.960 . S
C4038 C4036 1.381 . S
C4038 C4039 1.394 . S
C4038 H4046 0.930 . S
C4039 C4038 1.394 . S
C4039 C4040 1.383 . S
C4039 H4047 0.929 . S
C4040 C4039 1.383 . S
C4040 C4041 1.377 . S
C4041 H4025 0.930 . S
C4041 C4040 1.377 . S
C4041 C4042 1.379 . S
C4042 H4026 0.931 . S
C4042 C4036 1.383 . S
C4042 C4041 1.379 . S
H4043 C4037 0.959 . S
H4044 C4037 0.961 . S
H4045 C4037 0.960 . S
H4046 C4038 0.930 . S
H4047 C4039 0.929 . S
H4048 C4056 0.929 . S
H4049 C4058 0.930 . S
H4050 C4060 0.930 . S
H4051 C4063 0.929 . S
H4052 C4066 0.930 . S
H4053 C4068 0.960 . S
H4054 C4068 0.960 . S
H4055 C4068 0.960 . S
C4056 H4048 0.929 . S
C4056 C4057 1.377 . S
C4056 C4058 1.384 . S
C4057 C4056 1.377 . S
C4057 C4063 1.390 . S
C4058 H4049 0.930 . S
C4058 C4056 1.384 . S
C4058 C4059 1.372 . S
C4059 C4058 1.372 . S
C4059 C4060 1.400 . S
C4059 C4064 1.490 . S
C4060 H4050 0.930 . S
C4060 C4059 1.400 . S
C4060 C4063 1.386 . S
H4061 C4077 0.930 . S
H4062 C4078 0.931 . S
C4063 H4051 0.929 . S
C4063 C4057 1.390 . S
C4063 C4060 1.386 . S
C4064 C4059 1.490 . S
C4064 C4066 1.395 . S
C4064 C4067 1.403 . S
H4065 C4071 0.930 . S
C4066 H4052 0.930 . S
C4066 C4064 1.395 . S
C4066 C4069 1.403 . S
C4067 C4064 1.403 . S
C4067 C4068 1.524 . S
C4067 C4071 1.400 . S
C4068 H4053 0.960 . S
C4068 H4054 0.960 . S
C4068 H4055 0.960 . S
C4068 C4067 1.524 . S
C4069 C4066 1.403 . S
C4069 C4070 1.392 . S
C4069 C4073 1.495 . S
C4070 C4069 1.392 . S
C4070 C4071 1.385 . S
C4070 C4072 1.478 . S
C4071 H4065 0.930 . S
C4071 C4067 1.400 . S
C4071 C4070 1.385 . S
C4072 C4070 1.478 . S
C4072 C4074 1.381 . S
C4072 C4078 1.383 . S
C4073 C4069 1.495 . S
C4073 H4079 0.959 . S
C4073 H4080 0.961 . S
C4073 H4081 0.960 . S
C4074 C4072 1.381 . S
C4074 C4075 1.394 . S
C4074 H4082 0.930 . S
C4075 C4074 1.394 . S
C4075 C4076 1.383 . S
C4075 H4083 0.929 1_655 S
C4076 C4075 1.383 . S
C4076 C4077 1.377 . S
C4077 H4061 0.930 . S
C4077 C4076 1.377 . S
C4077 C4078 1.379 . S
C4078 H4062 0.931 . S
C4078 C4072 1.383 . S
C4078 C4077 1.379 . S
H4079 C4073 0.959 . S
H4080 C4073 0.961 . S
H4081 C4073 0.960 . S
H4082 C4074 0.930 . S
H4083 C4075 0.929 1_455 S
H4084 C4092 0.929 . S
H4085 C4094 0.930 . S
H4086 C4096 0.930 . S
H4087 C4099 0.929 . S
H4088 C4102 0.930 . S
H4089 C4104 0.960 . S
H4090 C4104 0.960 . S
H4091 C4104 0.960 . S
C4092 H4084 0.929 . S
C4092 C4093 1.377 . S
C4092 C4094 1.384 . S
C4093 C4092 1.377 . S
C4093 C4099 1.390 . S
C4094 H4085 0.930 . S
C4094 C4092 1.384 . S
C4094 C4095 1.372 . S
C4095 C4094 1.372 . S
C4095 C4096 1.400 . S
C4095 C4100 1.490 . S
C4096 H4086 0.930 . S
C4096 C4095 1.400 . S
C4096 C4099 1.386 . S
H4097 C4113 0.930 . S
H4098 C4114 0.931 . S
C4099 H4087 0.929 . S
C4099 C4093 1.390 . S
C4099 C4096 1.386 . S
C4100 C4095 1.490 . S
C4100 C4102 1.395 . S
C4100 C4103 1.403 . S
H4101 C4107 0.930 . S
C4102 H4088 0.930 . S
C4102 C4100 1.395 . S
C4102 C4105 1.403 . S
C4103 C4100 1.403 . S
C4103 C4104 1.524 . S
C4103 C4107 1.400 . S
C4104 H4089 0.960 . S
C4104 H4090 0.960 . S
C4104 H4091 0.960 . S
C4104 C4103 1.524 . S
C4105 C4102 1.403 . S
C4105 C4106 1.392 . S
C4105 C4109 1.495 . S
C4106 C4105 1.392 . S
C4106 C4107 1.385 . S
C4106 C4108 1.478 . S
C4107 H4101 0.930 . S
C4107 C4103 1.400 . S
C4107 C4106 1.385 . S
C4108 C4106 1.478 . S
C4108 C4110 1.381 . S
C4108 C4114 1.383 . S
C4109 C4105 1.495 . S
C4109 H4115 0.959 . S
C4109 H4116 0.961 . S
C4109 H4117 0.960 . S
C4110 C4108 1.381 . S
C4110 C4111 1.394 . S
C4110 H4118 0.930 . S
C4111 C4110 1.394 . S
C4111 C4112 1.383 . S
C4111 H4119 0.929 . S
C4112 C4111 1.383 . S
C4112 C4113 1.377 . S
C4113 H4097 0.930 . S
C4113 C4112 1.377 . S
C4113 C4114 1.379 . S
C4114 H4098 0.931 . S
C4114 C4108 1.383 . S
C4114 C4113 1.379 . S
H4115 C4109 0.959 . S
H4116 C4109 0.961 . S
H4117 C4109 0.960 . S
H4118 C4110 0.930 . S
H4119 C4111 0.929 . S
H4120 C4128 0.929 . S
H4121 C4130 0.930 . S
H4122 C4132 0.930 . S
H4123 C4135 0.929 . S
H4124 C4138 0.930 . S
H4125 C4140 0.960 . S
H4126 C4140 0.960 . S
H4127 C4140 0.960 . S
C4128 H4120 0.929 . S
C4128 C4129 1.377 . S
C4128 C4130 1.384 . S
C4129 C4128 1.377 . S
C4129 C4135 1.390 . S
C4130 H4121 0.930 . S
C4130 C4128 1.384 . S
C4130 C4131 1.372 . S
C4131 C4130 1.372 . S
C4131 C4132 1.400 . S
C4131 C4136 1.490 . S
C4132 H4122 0.930 . S
C4132 C4131 1.400 . S
C4132 C4135 1.386 . S
H4133 C4149 0.930 . S
H4134 C4150 0.931 . S
C4135 H4123 0.929 . S
C4135 C4129 1.390 . S
C4135 C4132 1.386 . S
C4136 C4131 1.490 . S
C4136 C4138 1.395 . S
C4136 C4139 1.403 . S
H4137 C4143 0.930 . S
C4138 H4124 0.930 . S
C4138 C4136 1.395 . S
C4138 C4141 1.403 . S
C4139 C4136 1.403 . S
C4139 C4140 1.524 . S
C4139 C4143 1.400 . S
C4140 H4125 0.960 . S
C4140 H4126 0.960 . S
C4140 H4127 0.960 . S
C4140 C4139 1.524 . S
C4141 C4138 1.403 . S
C4141 C4142 1.392 . S
C4141 C4145 1.495 . S
C4142 C4141 1.392 . S
C4142 C4143 1.385 . S
C4142 C4144 1.478 . S
C4143 H4137 0.930 . S
C4143 C4139 1.400 . S
C4143 C4142 1.385 . S
C4144 C4142 1.478 . S
C4144 C4146 1.381 . S
C4144 C4150 1.383 . S
C4145 C4141 1.495 . S
C4145 H4151 0.959 . S
C4145 H4152 0.961 . S
C4145 H4153 0.960 . S
C4146 C4144 1.381 . S
C4146 C4147 1.394 . S
C4146 H4154 0.930 . S
C4147 C4146 1.394 . S
C4147 C4148 1.383 . S
C4147 H4155 0.929 . S
C4148 C4147 1.383 . S
C4148 C4149 1.377 . S
C4149 H4133 0.930 . S
C4149 C4148 1.377 . S
C4149 C4150 1.379 . S
C4150 H4134 0.931 . S
C4150 C4144 1.383 . S
C4150 C4149 1.379 . S
H4151 C4145 0.959 . S
H4152 C4145 0.961 . S
H4153 C4145 0.960 . S
H4154 C4146 0.930 . S
H4155 C4147 0.929 . S
H4156 C4164 0.929 . S
H4157 C4166 0.930 . S
H4158 C4168 0.930 . S
H4159 C4171 0.929 . S
H4160 C4174 0.930 . S
H4161 C4176 0.960 . S
H4162 C4176 0.960 . S
H4163 C4176 0.960 . S
C4164 H4156 0.929 . S
C4164 C4165 1.377 . S
C4164 C4166 1.384 . S
C4165 C4164 1.377 . S
C4165 C4171 1.390 . S
C4166 H4157 0.930 . S
C4166 C4164 1.384 . S
C4166 C4167 1.372 . S
C4167 C4166 1.372 . S
C4167 C4168 1.400 . S
C4167 C4172 1.490 . S
C4168 H4158 0.930 . S
C4168 C4167 1.400 . S
C4168 C4171 1.386 . S
H4169 C4185 0.930 . S
H4170 C4186 0.931 . S
C4171 H4159 0.929 . S
C4171 C4165 1.390 . S
C4171 C4168 1.386 . S
C4172 C4167 1.490 . S
C4172 C4174 1.395 . S
C4172 C4175 1.403 . S
H4173 C4179 0.930 . S
C4174 H4160 0.930 . S
C4174 C4172 1.395 . S
C4174 C4177 1.403 . S
C4175 C4172 1.403 . S
C4175 C4176 1.524 . S
C4175 C4179 1.400 . S
C4176 H4161 0.960 . S
C4176 H4162 0.960 . S
C4176 H4163 0.960 . S
C4176 C4175 1.524 . S
C4177 C4174 1.403 . S
C4177 C4178 1.392 . S
C4177 C4181 1.495 . S
C4178 C4177 1.392 . S
C4178 C4179 1.385 . S
C4178 C4180 1.478 . S
C4179 H4173 0.930 . S
C4179 C4175 1.400 . S
C4179 C4178 1.385 . S
C4180 C4178 1.478 . S
C4180 C4182 1.381 . S
C4180 C4186 1.383 . S
C4181 C4177 1.495 . S
C4181 H4187 0.961 1_565 S
C4181 H4188 0.961 1_565 S
C4181 H4189 0.955 1_565 S
C4182 C4180 1.381 . S
C4182 C4183 1.394 1_565 S
C4182 H4190 0.930 . S
C4183 C4182 1.394 1_545 S
C4183 C4184 1.383 . S
C4183 H4191 0.929 . S
C4184 C4183 1.383 . S
C4184 C4185 1.377 . S
C4185 H4169 0.930 . S
C4185 C4184 1.377 . S
C4185 C4186 1.379 1_545 S
C4186 H4170 0.931 . S
C4186 C4180 1.383 . S
C4186 C4185 1.379 1_565 S
H4187 C4181 0.961 1_545 S
H4188 C4181 0.961 1_545 S
H4189 C4181 0.955 1_545 S
H4190 C4182 0.930 . S
H4191 C4183 0.929 . S
H4192 C4200 0.929 . S
H4193 C4202 0.930 . S
H4194 C4204 0.930 . S
H4195 C4207 0.929 . S
H4196 C4210 0.930 . S
H4197 C4212 0.960 . S
H4198 C4212 0.960 . S
H4199 C4212 0.960 . S
C4200 H4192 0.929 . S
C4200 C4201 1.377 . S
C4200 C4202 1.384 . S
C4201 C4200 1.377 . S
C4201 C4207 1.390 . S
C4202 H4193 0.930 . S
C4202 C4200 1.384 . S
C4202 C4203 1.372 . S
C4203 C4202 1.372 . S
C4203 C4204 1.400 . S
C4203 C4208 1.490 . S
C4204 H4194 0.930 . S
C4204 C4203 1.400 . S
C4204 C4207 1.386 . S
H4205 C4221 0.930 . S
H4206 C4222 0.931 . S
C4207 H4195 0.929 . S
C4207 C4201 1.390 . S
C4207 C4204 1.386 . S
C4208 C4203 1.490 . S
C4208 C4210 1.395 . S
C4208 C4211 1.403 . S
H4209 C4215 0.930 . S
C4210 H4196 0.930 . S
C4210 C4208 1.395 . S
C4210 C4213 1.403 . S
C4211 C4208 1.403 . S
C4211 C4212 1.524 . S
C4211 C4215 1.400 . S
C4212 H4197 0.960 . S
C4212 H4198 0.960 . S
C4212 H4199 0.960 . S
C4212 C4211 1.524 . S
C4213 C4210 1.403 . S
C4213 C4214 1.392 . S
C4213 C4217 1.495 . S
C4214 C4213 1.392 . S
C4214 C4215 1.385 . S
C4214 C4216 1.478 . S
C4215 H4209 0.930 . S
C4215 C4211 1.400 . S
C4215 C4214 1.385 . S
C4216 C4214 1.478 . S
C4216 C4218 1.381 . S
C4216 C4222 1.383 . S
C4217 C4213 1.495 . S
C4217 H4223 0.959 . S
C4217 H4224 0.961 . S
C4217 H4225 0.960 . S
C4218 C4216 1.381 . S
C4218 C4219 1.394 . S
C4218 H4226 0.930 . S
C4219 C4218 1.394 . S
C4219 C4220 1.383 . S
C4219 H4227 0.929 . S
C4220 C4219 1.383 . S
C4220 C4221 1.377 . S
C4221 H4205 0.930 . S
C4221 C4220 1.377 . S
C4221 C4222 1.379 . S
C4222 H4206 0.931 . S
C4222 C4216 1.383 . S
C4222 C4221 1.379 . S
H4223 C4217 0.959 . S
H4224 C4217 0.961 . S
H4225 C4217 0.960 . S
H4226 C4218 0.930 . S
H4227 C4219 0.929 . S
H4228 C4236 0.929 . S
H4229 C4238 0.930 . S
H4230 C4240 0.930 . S
H4231 C4243 0.935 . S
H4232 C4246 0.930 . S
H4233 C4248 0.960 . S
H4234 C4248 0.960 . S
H4235 C4248 0.960 . S
C4236 H4228 0.929 . S
C4236 C4237 1.377 . S
C4236 C4238 1.384 . S
C4237 C4236 1.377 . S
C4237 C4243 1.390 . S
C4238 H4229 0.930 . S
C4238 C4236 1.384 . S
C4238 C4239 1.372 . S
C4239 C4238 1.372 . S
C4239 C4240 1.400 . S
C4239 C4244 1.490 . S
C4240 H4230 0.930 . S
C4240 C4239 1.400 . S
C4240 C4243 1.386 . S
H4241 C4257 0.930 . S
H4242 C4258 0.925 1_556 S
C4243 H4231 0.935 . S
C4243 C4237 1.390 . S
C4243 C4240 1.386 . S
C4244 C4239 1.490 . S
C4244 C4246 1.395 1_554 S
C4244 C4247 1.403 . S
H4245 C4251 0.930 . S
C4246 H4232 0.930 . S
C4246 C4244 1.395 1_556 S
C4246 C4249 1.403 . S
C4247 C4244 1.403 . S
C4247 C4248 1.524 . S
C4247 C4251 1.400 . S
C4248 H4233 0.960 . S
C4248 H4234 0.960 . S
C4248 H4235 0.960 . S
C4248 C4247 1.524 . S
C4249 C4246 1.403 . S
C4249 C4250 1.392 1_556 S
C4249 C4253 1.495 . S
C4250 C4249 1.392 1_554 S
C4250 C4251 1.385 . S
C4250 C4252 1.478 . S
C4251 H4245 0.930 . S
C4251 C4247 1.400 . S
C4251 C4250 1.385 . S
C4252 C4250 1.478 . S
C4252 C4254 1.381 . S
C4252 C4258 1.383 . S
C4253 C4249 1.495 . S
C4253 H4259 0.959 . S
C4253 H4260 0.961 . S
C4253 H4261 0.960 . S
C4254 C4252 1.381 . S
C4254 C4255 1.394 . S
C4254 H4262 0.930 . S
C4255 C4254 1.394 . S
C4255 C4256 1.383 . S
C4255 H4263 0.929 . S
C4256 C4255 1.383 . S
C4256 C4257 1.377 . S
C4257 H4241 0.930 . S
C4257 C4256 1.377 . S
C4257 C4258 1.379 . S
C4258 H4242 0.925 1_554 S
C4258 C4252 1.383 . S
C4258 C4257 1.379 . S
H4259 C4253 0.959 . S
H4260 C4253 0.961 . S
H4261 C4253 0.960 . S
H4262 C4254 0.930 . S
H4263 C4255 0.929 . S
H4264 C4272 0.929 . S
H4265 C4274 0.930 . S
H4266 C4276 0.930 . S
H4267 C4279 0.929 . S
H4268 C4282 0.930 . S
H4269 C4284 0.960 . S
H4270 C4284 0.960 . S
H4271 C4284 0.960 . S
C4272 H4264 0.929 . S
C4272 C4273 1.377 . S
C4272 C4274 1.384 . S
C4273 C4272 1.377 . S
C4273 C4279 1.390 . S
C4274 H4265 0.930 . S
C4274 C4272 1.384 . S
C4274 C4275 1.372 . S
C4275 C4274 1.372 . S
C4275 C4276 1.400 . S
C4275 C4280 1.490 . S
C4276 H4266 0.930 . S
C4276 C4275 1.400 . S
C4276 C4279 1.386 . S
H4277 C4293 0.930 . S
H4278 C4294 0.931 . S
C4279 H4267 0.929 . S
C4279 C4273 1.390 . S
C4279 C4276 1.386 . S
C4280 C4275 1.490 . S
C4280 C4282 1.395 . S
C4280 C4283 1.403 . S
H4281 C4287 0.930 . S
C4282 H4268 0.930 . S
C4282 C4280 1.395 . S
C4282 C4285 1.403 . S
C4283 C4280 1.403 . S
C4283 C4284 1.524 . S
C4283 C4287 1.400 . S
C4284 H4269 0.960 . S
C4284 H4270 0.960 . S
C4284 H4271 0.960 . S
C4284 C4283 1.524 . S
C4285 C4282 1.403 . S
C4285 C4286 1.392 . S
C4285 C4289 1.495 . S
C4286 C4285 1.392 . S
C4286 C4287 1.385 . S
C4286 C4288 1.478 . S
C4287 H4281 0.930 . S
C4287 C4283 1.400 . S
C4287 C4286 1.385 . S
C4288 C4286 1.478 . S
C4288 C4290 1.381 . S
C4288 C4294 1.383 . S
C4289 C4285 1.495 . S
C4289 H4295 0.959 . S
C4289 H4296 0.961 . S
C4289 H4297 0.960 . S
C4290 C4288 1.381 . S
C4290 C4291 1.394 . S
C4290 H4298 0.930 . S
C4291 C4290 1.394 . S
C4291 C4292 1.383 . S
C4291 H4299 0.929 . S
C4292 C4291 1.383 . S
C4292 C4293 1.377 . S
C4293 H4277 0.930 . S
C4293 C4292 1.377 . S
C4293 C4294 1.379 . S
C4294 H4278 0.931 . S
C4294 C4288 1.383 . S
C4294 C4293 1.379 . S
H4295 C4289 0.959 . S
H4296 C4289 0.961 . S
H4297 C4289 0.960 . S
H4298 C4290 0.930 . S
H4299 C4291 0.929 . S
H4300 C4308 0.929 . S
H4301 C4310 0.930 . S
H4302 C4312 0.930 . S
H4303 C4315 0.929 . S
H4304 C4318 0.930 . S
H4305 C4320 0.960 . S
H4306 C4320 0.960 . S
H4307 C4320 0.960 . S
C4308 H4300 0.929 . S
C4308 C4309 1.377 . S
C4308 C4310 1.384 . S
C4309 C4308 1.377 . S
C4309 C4315 1.390 . S
C4310 H4301 0.930 . S
C4310 C4308 1.384 . S
C4310 C4311 1.372 . S
C4311 C4310 1.372 . S
C4311 C4312 1.400 . S
C4311 C4316 1.490 . S
C4312 H4302 0.930 . S
C4312 C4311 1.400 . S
C4312 C4315 1.386 . S
H4313 C4329 0.930 . S
H4314 C4330 0.931 . S
C4315 H4303 0.929 . S
C4315 C4309 1.390 . S
C4315 C4312 1.386 . S
C4316 C4311 1.490 . S
C4316 C4318 1.395 . S
C4316 C4319 1.403 1_554 S
H4317 C4323 0.930 . S
C4318 H4304 0.930 . S
C4318 C4316 1.395 . S
C4318 C4321 1.403 . S
C4319 C4316 1.403 1_556 S
C4319 C4320 1.524 . S
C4319 C4323 1.400 . S
C4320 H4305 0.960 . S
C4320 H4306 0.960 . S
C4320 H4307 0.960 . S
C4320 C4319 1.524 . S
C4321 C4318 1.403 . S
C4321 C4322 1.392 1_554 S
C4321 C4325 1.495 . S
C4322 C4321 1.392 1_556 S
C4322 C4323 1.385 . S
C4322 C4324 1.478 . S
C4323 H4317 0.930 . S
C4323 C4319 1.400 . S
C4323 C4322 1.385 . S
C4324 C4322 1.478 . S
C4324 C4326 1.381 . S
C4324 C4330 1.383 . S
C4325 C4321 1.495 . S
C4325 H4331 0.959 . S
C4325 H4332 0.961 . S
C4325 H4333 0.960 . S
C4326 C4324 1.381 . S
C4326 C4327 1.394 . S
C4326 H4334 0.930 . S
C4327 C4326 1.394 . S
C4327 C4328 1.383 . S
C4327 H4335 0.929 . S
C4328 C4327 1.383 . S
C4328 C4329 1.377 . S
C4329 H4313 0.930 . S
C4329 C4328 1.377 . S
C4329 C4330 1.379 . S
C4330 H4314 0.931 . S
C4330 C4324 1.383 . S
C4330 C4329 1.379 . S
H4331 C4325 0.959 . S
H4332 C4325 0.961 . S
H4333 C4325 0.960 . S
H4334 C4326 0.930 . S
H4335 C4327 0.929 . S
H4336 C4344 0.982 . S
H4337 C4346 0.930 . S
H4338 C4348 0.930 . S
H4339 C4351 0.929 . S
H4340 C4354 0.930 . S
H4341 C4356 0.960 . S
H4342 C4356 0.960 . S
H4343 C4356 0.960 . S
C4344 H4336 0.982 . S
C4344 C4345 1.377 . S
C4344 C4346 1.384 . S
C4345 C4344 1.377 . S
C4345 C4351 1.390 . S
C4346 H4337 0.930 . S
C4346 C4344 1.384 . S
C4346 C4347 1.372 . S
C4347 C4346 1.372 . S
C4347 C4348 1.400 . S
C4347 C4352 1.490 . S
C4348 H4338 0.930 . S
C4348 C4347 1.400 . S
C4348 C4351 1.386 . S
H4349 C4365 0.930 . S
H4350 C4366 0.931 . S
C4351 H4339 0.929 . S
C4351 C4345 1.390 . S
C4351 C4348 1.386 . S
C4352 C4347 1.490 . S
C4352 C4354 1.395 . S
C4352 C4355 1.403 . S
H4353 C4359 0.930 . S
C4354 H4340 0.930 . S
C4354 C4352 1.395 . S
C4354 C4357 1.403 . S
C4355 C4352 1.403 . S
C4355 C4356 1.524 . S
C4355 C4359 1.400 . S
C4356 H4341 0.960 . S
C4356 H4342 0.960 . S
C4356 H4343 0.960 . S
C4356 C4355 1.524 . S
C4357 C4354 1.403 . S
C4357 C4358 1.392 . S
C4357 C4361 1.495 . S
C4358 C4357 1.392 . S
C4358 C4359 1.385 . S
C4358 C4360 1.478 . S
C4359 H4353 0.930 . S
C4359 C4355 1.400 . S
C4359 C4358 1.385 . S
C4360 C4358 1.478 . S
C4360 C4362 1.381 . S
C4360 C4366 1.383 . S
C4361 C4357 1.495 . S
C4361 H4367 0.959 . S
C4361 H4368 0.961 . S
C4361 H4369 0.960 . S
C4362 C4360 1.381 . S
C4362 C4363 1.394 . S
C4362 H4370 0.930 . S
C4363 C4362 1.394 . S
C4363 C4364 1.383 . S
C4363 H4371 0.929 . S
C4364 C4363 1.383 . S
C4364 C4365 1.377 . S
C4365 H4349 0.930 . S
C4365 C4364 1.377 . S
C4365 C4366 1.379 . S
C4366 H4350 0.931 . S
C4366 C4360 1.383 . S
C4366 C4365 1.379 . S
H4367 C4361 0.959 . S
H4368 C4361 0.961 . S
H4369 C4361 0.960 . S
H4370 C4362 0.930 . S
H4371 C4363 0.929 . S
H4372 C4380 0.929 . S
H4373 C4382 0.930 . S
H4374 C4384 0.930 . S
H4375 C4387 0.929 . S
H4376 C4390 0.930 . S
H4377 C4392 0.960 . S
H4378 C4392 0.960 . S
H4379 C4392 0.960 . S
C4380 H4372 0.929 . S
C4380 C4381 1.377 . S
C4380 C4382 1.384 . S
C4381 C4380 1.377 . S
C4381 C4387 1.390 . S
C4382 H4373 0.930 . S
C4382 C4380 1.384 . S
C4382 C4383 1.372 . S
C4383 C4382 1.372 . S
C4383 C4384 1.400 . S
C4383 C4388 1.490 . S
C4384 H4374 0.930 . S
C4384 C4383 1.400 . S
C4384 C4387 1.386 . S
H4385 C4401 0.930 . S
H4386 C4402 0.931 . S
C4387 H4375 0.929 . S
C4387 C4381 1.390 . S
C4387 C4384 1.386 . S
C4388 C4383 1.490 . S
C4388 C4390 1.395 . S
C4388 C4391 1.403 . S
H4389 C4395 0.930 . S
C4390 H4376 0.930 . S
C4390 C4388 1.395 . S
C4390 C4393 1.403 . S
C4391 C4388 1.403 . S
C4391 C4392 1.524 . S
C4391 C4395 1.400 . S
C4392 H4377 0.960 . S
C4392 H4378 0.960 . S
C4392 H4379 0.960 . S
C4392 C4391 1.524 . S
C4393 C4390 1.403 . S
C4393 C4394 1.392 . S
C4393 C4397 1.495 . S
C4394 C4393 1.392 . S
C4394 C4395 1.385 . S
C4394 C4396 1.478 . S
C4395 H4389 0.930 . S
C4395 C4391 1.400 . S
C4395 C4394 1.385 . S
C4396 C4394 1.478 . S
C4396 C4398 1.381 . S
C4396 C4402 1.383 . S
C4397 C4393 1.495 . S
C4397 H4403 0.959 . S
C4397 H4404 0.961 . S
C4397 H4405 0.960 . S
C4398 C4396 1.381 . S
C4398 C4399 1.394 . S
C4398 H4406 0.930 . S
C4399 C4398 1.394 . S
C4399 C4400 1.383 . S
C4399 H4407 0.929 . S
C4400 C4399 1.383 . S
C4400 C4401 1.377 . S
C4401 H4385 0.930 . S
C4401 C4400 1.377 . S
C4401 C4402 1.379 . S
C4402 H4386 0.931 . S
C4402 C4396 1.383 . S
C4402 C4401 1.379 . S
H4403 C4397 0.959 . S
H4404 C4397 0.961 . S
H4405 C4397 0.960 . S
H4406 C4398 0.930 . S
H4407 C4399 0.929 . S
C961 C101 2.196 . S
C980 C314 2.164 1_556 S
C997 C57 2.066 . S
C1016 C371 2.099 . S
C1033 C73 1.098 . S
C1052 C394 1.126 . S
C1088 C448 1.395 . S
C1069 C78 1.377 . S
C1105 C21 1.216 . S
C1124 C488 1.221 . S
C1160 C519 0.378 . S
C1141 C31 0.409 . S
C1196 C571 1.190 . S
C1177 C49 1.172 . S
C1213 C0 1.575 . S
C1232 C594 1.602 . S
C1268 C331 2.397 . S
C1249 C218 2.427 . S
C1285 C229 0.403 . S
C1304 C368 0.312 . S
C1340 C411 1.332 . S
C1321 C257 1.364 . S
C1376 C434 1.226 . S
C1357 C164 1.156 . S
C1393 C216 1.630 . S
C1412 C474 1.744 . S
C1448 C522 1.433 . S
C1429 C231 1.485 . S
C1484 C568 0.387 . S
C1465 C255 0.357 . S
C1520 C611 1.922 . S
C1501 C166 1.946 . S
C1556 C328 1.359 1_565 S
C1537 C143 1.359 . S
C1573 C265 2.010 . S
C1592 C651 2.045 . S
C1628 C683 2.494 . S
C1609 C299 2.512 . S
C1664 C714 0.490 1_655 S
C1645 C291 0.591 . S
C1681 C104 1.098 . S
C1700 C608 1.092 . S
C1717 C117 1.422 . S
C1736 C408 1.432 . S
C1753 C304 2.255 . S
C1772 C771 2.267 . S
C1808 C794 0.310 . S
C1789 C278 0.368 . S
C1844 C323 2.137 . S
C1825 C60 2.138 . S
C1880 C802 1.997 . S
C1861 C96 1.994 . S
C1897 C88 1.002 . S
C1916 C403 0.966 . S
C1933 C65 1.310 . S
C1952 C759 1.320 . S
C1988 C479 1.146 . S
C1969 C10 1.202 . S
C2005 C44 0.371 . S
C2024 C688 0.271 . S
C2060 C562 1.061 1_556 S
C2041 C34 1.002 . S
C2096 C843 1.538 . S
C2077 C13 1.612 . S
C2132 C322 2.334 . S
C2113 C138 2.293 . S
C2168 C799 0.325 . S
C2149 C296 0.249 . S
C2185 C112 1.246 . S
C2204 C402 1.274 . S
C2221 C270 1.100 . S
C2240 C763 1.073 . S
C2257 C140 1.637 . S
C2276 C483 1.633 . S
C2312 C691 1.390 . S
C2293 C294 1.389 . S
C2329 C114 0.126 . S
C2348 C559 0.347 . S
C2365 C268 1.831 . S
C2384 C842 1.841 . S
C2401 C169 1.371 . S
C2420 C319 1.331 . S
C2437 C161 1.939 . S
C2456 C642 1.938 . S
C2473 C234 2.450 . S
C2492 C514 2.433 . S
C2509 C226 0.488 . S
C2528 C723 0.404 . S
C2564 C839 1.081 . S
C2545 C247 1.148 . S
C2581 C195 1.447 . S
C2600 C399 1.428 . S
C2636 C442 2.165 . S
C2617 C239 2.171 . S
C2672 C363 0.434 . S
C2653 C187 0.302 . S
C2689 C75 2.196 . S
C2708 C874 2.168 . S
C2744 C811 2.095 . S
C2725 C83 2.072 . S
C2761 C99 1.094 . S
C2780 C914 1.136 . S
C2797 C52 1.373 . S
C2816 C768 1.380 . S
C2833 C47 1.213 . S
C2852 C648 1.256 . S
C2888 C679 0.377 . S
C2869 C5 0.412 . S
C2924 C731 1.205 . S
C2905 C23 1.170 . S
C2960 C834 1.630 . S
C2941 C26 1.566 . S
C2996 C891 2.414 . S
C2977 C244 2.426 . S
C3013 C177 0.373 . S
C3032 C808 0.287 . S
C3068 C931 1.340 . S
C3049 C192 1.366 . S
C3104 C754 1.199 . S
C3085 C203 1.169 . S
C3140 C634 1.740 . S
C3121 C242 1.632 . S
C3157 C179 1.481 . S
C3176 C682 1.469 . S
C3212 C728 0.232 . S
C3193 C190 0.345 . S
C3229 C205 1.946 . S
C3248 C851 1.919 . S
C3284 C888 1.409 . S
C3265 C286 1.351 . S
C3301 C122 2.013 . S
C3320 C491 2.031 . S
C3356 C523 2.486 . S
C3337 C130 2.516 . S
C3392 C554 0.559 . S
C3373 C148 0.573 . S
C3428 C848 1.084 . S
C3409 C273 1.087 . S
C3445 C260 1.419 . S
C3464 C928 1.438 . S
C3500 C451 2.272 . S
C3481 C135 2.251 . S
C3536 C354 0.390 . S
C3517 C109 0.384 . S
C3553 C86 2.139 . S
C3572 C883 2.135 . S
C3608 C362 1.998 . S
C3589 C70 1.994 . S
C3625 C62 1.001 . S
C3644 C923 1.014 . S
C3661 C91 1.317 . S
C3680 C439 1.311 . S
C3697 C36 1.200 . S
C3716 C639 1.204 . S
C3752 C528 0.264 . S
C3733 C18 0.410 . S
C3769 C8 0.981 . S
C3788 C722 1.024 . S
C3805 C39 1.602 . S
C3824 C603 1.584 . S
C3860 C882 2.329 . S
C3841 C307 2.293 . S
C3877 C153 0.222 . S
C3896 C359 0.313 . S
C3932 C922 1.262 . S
C3913 C281 1.244 . S
C3949 C127 1.100 . S
C3968 C443 1.107 . S
C3985 C309 1.634 . S
C4004 C643 1.623 . S
C4040 C531 1.415 . S
C4021 C151 1.394 . S
C4057 C283 0.124 . S
C4076 C719 0.411 . S
C4112 C602 1.844 . S
C4093 C125 1.831 . S
C4148 C879 1.336 . S
C4129 C221 1.372 . S
C4184 C482 1.938 1_655 S
C4165 C200 1.940 . S
C4201 C208 2.455 . S
C4220 C674 2.424 . S
C4256 C563 0.386 . S
C4237 C174 0.459 . S
C4273 C182 1.148 . S
C4292 C599 1.142 . S
C4309 C156 1.445 . S
C4328 C919 1.392 . S
C4364 C762 2.177 . S
C4345 C213 2.175 1_565 S
C4400 C803 0.422 . S
C4381 C252 0.292 . S
