# Generated by pormake.
# Topology iac, (4,6)-cn, num edge types: 1
# Building blocks:
#     Node 0, Type 0, BuildingBlock: NAHDIM_clean_sbu_0, # of connection points: 4
#     Node 1, Type 0, BuildingBlock: NAHDIM_clean_sbu_0, # of connection points: 4
#     Node 2, Type 0, BuildingBlock: NAHDIM_clean_sbu_0, # of connection points: 4
#     Node 3, Type 0, BuildingBlock: NAHDIM_clean_sbu_0, # of connection points: 4
#     Node 4, Type 0, BuildingBlock: NAHDIM_clean_sbu_0, # of connection points: 4
#     Node 5, Type 0, BuildingBlock: NAHDIM_clean_sbu_0, # of connection points: 4
#     Node 6, Type 0, BuildingBlock: NAHDIM_clean_sbu_0, # of connection points: 4
#     Node 7, Type 0, BuildingBlock: NAHDIM_clean_sbu_0, # of connection points: 4
#     Node 8, Type 0, BuildingBlock: NAHDIM_clean_sbu_0, # of connection points: 4
#     Node 9, Type 0, BuildingBlock: NAHDIM_clean_sbu_0, # of connection points: 4
#     Node 10, Type 0, BuildingBlock: NAHDIM_clean_sbu_0, # of connection points: 4
#     Node 11, Type 0, BuildingBlock: NAHDIM_clean_sbu_0, # of connection points: 4
#     Node 12, Type 0, BuildingBlock: NAHDIM_clean_sbu_0, # of connection points: 4
#     Node 13, Type 0, BuildingBlock: NAHDIM_clean_sbu_0, # of connection points: 4
#     Node 14, Type 0, BuildingBlock: NAHDIM_clean_sbu_0, # of connection points: 4
#     Node 15, Type 0, BuildingBlock: NAHDIM_clean_sbu_0, # of connection points: 4
#     Node 16, Type 0, BuildingBlock: NAHDIM_clean_sbu_0, # of connection points: 4
#     Node 17, Type 0, BuildingBlock: NAHDIM_clean_sbu_0, # of connection points: 4
#     Node 18, Type 0, BuildingBlock: NAHDIM_clean_sbu_0, # of connection points: 4
#     Node 19, Type 0, BuildingBlock: NAHDIM_clean_sbu_0, # of connection points: 4
#     Node 20, Type 0, BuildingBlock: NAHDIM_clean_sbu_0, # of connection points: 4
#     Node 21, Type 0, BuildingBlock: NAHDIM_clean_sbu_0, # of connection points: 4
#     Node 22, Type 0, BuildingBlock: NAHDIM_clean_sbu_0, # of connection points: 4
#     Node 23, Type 0, BuildingBlock: NAHDIM_clean_sbu_0, # of connection points: 4
#     Node 24, Type 1, BuildingBlock: FUNLAD_clean_sbu_0, # of connection points: 6
#     Node 25, Type 1, BuildingBlock: FUNLAD_clean_sbu_0, # of connection points: 6
#     Node 26, Type 1, BuildingBlock: FUNLAD_clean_sbu_0, # of connection points: 6
#     Node 27, Type 1, BuildingBlock: FUNLAD_clean_sbu_0, # of connection points: 6
#     Node 28, Type 1, BuildingBlock: FUNLAD_clean_sbu_0, # of connection points: 6
#     Node 29, Type 1, BuildingBlock: FUNLAD_clean_sbu_0, # of connection points: 6
#     Node 30, Type 1, BuildingBlock: FUNLAD_clean_sbu_0, # of connection points: 6
#     Node 31, Type 1, BuildingBlock: FUNLAD_clean_sbu_0, # of connection points: 6
#     Node 32, Type 1, BuildingBlock: FUNLAD_clean_sbu_0, # of connection points: 6
#     Node 33, Type 1, BuildingBlock: FUNLAD_clean_sbu_0, # of connection points: 6
#     Node 34, Type 1, BuildingBlock: FUNLAD_clean_sbu_0, # of connection points: 6
#     Node 35, Type 1, BuildingBlock: FUNLAD_clean_sbu_0, # of connection points: 6
#     Node 36, Type 1, BuildingBlock: FUNLAD_clean_sbu_0, # of connection points: 6
#     Node 37, Type 1, BuildingBlock: FUNLAD_clean_sbu_0, # of connection points: 6
#     Node 38, Type 1, BuildingBlock: FUNLAD_clean_sbu_0, # of connection points: 6
#     Node 39, Type 1, BuildingBlock: FUNLAD_clean_sbu_0, # of connection points: 6
#     Edge 40, Type (0, 1), None
#     Edge 41, Type (0, 1), None
#     Edge 42, Type (0, 1), None
#     Edge 43, Type (0, 1), None
#     Edge 44, Type (0, 1), None
#     Edge 45, Type (0, 1), None
#     Edge 46, Type (0, 1), None
#     Edge 47, Type (0, 1), None
#     Edge 48, Type (0, 1), None
#     Edge 49, Type (0, 1), None
#     Edge 50, Type (0, 1), None
#     Edge 51, Type (0, 1), None
#     Edge 52, Type (0, 1), None
#     Edge 53, Type (0, 1), None
#     Edge 54, Type (0, 1), None
#     Edge 55, Type (0, 1), None
#     Edge 56, Type (0, 1), None
#     Edge 57, Type (0, 1), None
#     Edge 58, Type (0, 1), None
#     Edge 59, Type (0, 1), None
#     Edge 60, Type (0, 1), None
#     Edge 61, Type (0, 1), None
#     Edge 62, Type (0, 1), None
#     Edge 63, Type (0, 1), None
#     Edge 64, Type (0, 1), None
#     Edge 65, Type (0, 1), None
#     Edge 66, Type (0, 1), None
#     Edge 67, Type (0, 1), None
#     Edge 68, Type (0, 1), None
#     Edge 69, Type (0, 1), None
#     Edge 70, Type (0, 1), None
#     Edge 71, Type (0, 1), None
#     Edge 72, Type (0, 1), None
#     Edge 73, Type (0, 1), None
#     Edge 74, Type (0, 1), None
#     Edge 75, Type (0, 1), None
#     Edge 76, Type (0, 1), None
#     Edge 77, Type (0, 1), None
#     Edge 78, Type (0, 1), None
#     Edge 79, Type (0, 1), None
#     Edge 80, Type (0, 1), None
#     Edge 81, Type (0, 1), None
#     Edge 82, Type (0, 1), None
#     Edge 83, Type (0, 1), None
#     Edge 84, Type (0, 1), None
#     Edge 85, Type (0, 1), None
#     Edge 86, Type (0, 1), None
#     Edge 87, Type (0, 1), None
#     Edge 88, Type (0, 1), None
#     Edge 89, Type (0, 1), None
#     Edge 90, Type (0, 1), None
#     Edge 91, Type (0, 1), None
#     Edge 92, Type (0, 1), None
#     Edge 93, Type (0, 1), None
#     Edge 94, Type (0, 1), None
#     Edge 95, Type (0, 1), None
#     Edge 96, Type (0, 1), None
#     Edge 97, Type (0, 1), None
#     Edge 98, Type (0, 1), None
#     Edge 99, Type (0, 1), None
#     Edge 100, Type (0, 1), None
#     Edge 101, Type (0, 1), None
#     Edge 102, Type (0, 1), None
#     Edge 103, Type (0, 1), None
#     Edge 104, Type (0, 1), None
#     Edge 105, Type (0, 1), None
#     Edge 106, Type (0, 1), None
#     Edge 107, Type (0, 1), None
#     Edge 108, Type (0, 1), None
#     Edge 109, Type (0, 1), None
#     Edge 110, Type (0, 1), None
#     Edge 111, Type (0, 1), None
#     Edge 112, Type (0, 1), None
#     Edge 113, Type (0, 1), None
#     Edge 114, Type (0, 1), None
#     Edge 115, Type (0, 1), None
#     Edge 116, Type (0, 1), None
#     Edge 117, Type (0, 1), None
#     Edge 118, Type (0, 1), None
#     Edge 119, Type (0, 1), None
#     Edge 120, Type (0, 1), None
#     Edge 121, Type (0, 1), None
#     Edge 122, Type (0, 1), None
#     Edge 123, Type (0, 1), None
#     Edge 124, Type (0, 1), None
#     Edge 125, Type (0, 1), None
#     Edge 126, Type (0, 1), None
#     Edge 127, Type (0, 1), None
#     Edge 128, Type (0, 1), None
#     Edge 129, Type (0, 1), None
#     Edge 130, Type (0, 1), None
#     Edge 131, Type (0, 1), None
#     Edge 132, Type (0, 1), None
#     Edge 133, Type (0, 1), None
#     Edge 134, Type (0, 1), None
#     Edge 135, Type (0, 1), None
# Relax obj value: 0.517
# Max RMSD: 0.395
# Mean RMSD: 0.188
data_MOF--net-iac--node1-NAHDIM_clean_sbu_0--node2-FUNLAD_clean_sbu_0--edge1-none
_symmetry_space_group_name_H-M    P1
_symmetry_Int_Tables_number       1
_symmetry_cell_setting            triclinic
loop_
_symmetry_equiv_pos_as_xyz
'x, y, z'
_cell_length_a     26.204333
_cell_length_b     23.770648
_cell_length_c     28.722008
_cell_angle_alpha  88.983454
_cell_angle_beta   92.192774
_cell_angle_gamma 88.534743
loop_
_atom_site_label
_atom_site_type_symbol
_atom_site_fract_x
_atom_site_fract_y
_atom_site_fract_z
_atom_type_partial_charge
C0 C 0.05089 0.18597 0.18413 0.0
O1 O 0.04268 0.20544 0.14137 0.0
O2 O 0.19988 0.11648 0.13673 0.0
Zn3 Zn 0.154 0.18123 0.15329 0.0
O4 O 0.13525 0.22404 0.09617 0.0
C5 C 0.19497 0.27866 0.20444 0.0
O6 O 0.14881 0.30092 0.20698 0.0
O7 O 0.09579 0.1696 0.19717 0.0
C8 C 0.1746 0.23899 0.07526 0.0
O9 O 0.21927 0.2165 0.08825 0.0
C10 C 0.20213 0.09079 0.09837 0.0
O11 O 0.23863 0.05267 0.0943 0.0
O12 O 0.20183 0.23124 0.1858 0.0
C13 C 0.19837 0.7674 0.3841 0.0
O14 O 0.20891 0.76553 0.42919 0.0
O15 O 0.08818 0.70305 0.45847 0.0
Zn16 Zn 0.0887 0.77756 0.41602 0.0
O17 O 0.09419 0.85169 0.45563 0.0
C18 C 0.97672 0.79428 0.38874 0.0
O19 O 0.97162 0.7987 0.43381 0.0
O20 O 0.15137 0.77223 0.37015 0.0
C21 C 0.08508 0.85926 0.49866 0.0
O22 O 0.0719 0.81644 0.52451 0.0
C23 C 0.05894 0.68806 0.49118 0.0
O24 O 0.02117 0.72167 0.50264 0.0
O25 O 0.02132 0.78483 0.37354 0.0
C26 C 0.55095 0.68592 0.68411 0.0
O27 O 0.54277 0.70555 0.64139 0.0
O28 O 0.70012 0.61642 0.6368 0.0
Zn29 Zn 0.65408 0.68113 0.65327 0.0
O30 O 0.63528 0.72392 0.59613 0.0
C31 C 0.69497 0.77865 0.70443 0.0
O32 O 0.64881 0.8009 0.70698 0.0
O33 O 0.59584 0.66947 0.69713 0.0
C34 C 0.67463 0.73894 0.57524 0.0
O35 O 0.71931 0.71649 0.58825 0.0
C36 C 0.70242 0.59068 0.59846 0.0
O37 O 0.73893 0.55258 0.59443 0.0
O38 O 0.70184 0.73123 0.68579 0.0
C39 C 0.69834 0.26742 0.8841 0.0
O40 O 0.70889 0.26562 0.92919 0.0
O41 O 0.58818 0.2031 0.95852 0.0
Zn42 Zn 0.58864 0.27756 0.91601 0.0
O43 O 0.59418 0.35167 0.9556 0.0
C44 C 0.47666 0.2944 0.88866 0.0
O45 O 0.47153 0.29892 0.93372 0.0
O46 O 0.65133 0.27219 0.87015 0.0
C47 C 0.5849 0.35924 0.9986 0.0
O48 O 0.57144 0.31645 0.02435 0.0
C49 C 0.55886 0.18789 0.9911 0.0
O50 O 0.5208 0.22122 0.00237 0.0
O51 O 0.52127 0.28483 0.8735 0.0
C52 C 0.29271 0.95259 0.30138 0.0
O53 O 0.31027 0.99111 0.3295 0.0
O54 O 0.16566 0.02938 0.20427 0.0
Zn55 Zn 0.21078 0.03515 0.26364 0.0
O56 O 0.16373 0.04462 0.31404 0.0
C57 C 0.26665 0.12314 0.3085 0.0
O58 O 0.25471 0.09605 0.34657 0.0
O59 O 0.25421 0.96354 0.27384 0.0
C60 C 0.14544 0.09294 0.32347 0.0
O61 O 0.15505 0.13721 0.29758 0.0
C62 C 0.1172 0.03657 0.1984 0.0
O63 O 0.08936 0.05294 0.23292 0.0
O64 O 0.25482 0.10355 0.26847 0.0
C65 C 0.24485 0.98589 0.60199 0.0
O66 O 0.24987 0.96502 0.64458 0.0
O67 O 0.34734 0.89179 0.65562 0.0
Zn68 Zn 0.34782 0.93673 0.59297 0.0
O69 O 0.3514 0.8834 0.54227 0.0
C70 C 0.45248 0.95432 0.56905 0.0
O71 O 0.45405 0.89935 0.57319 0.0
O72 O 0.28233 0.98231 0.57542 0.0
C73 C 0.37127 0.83435 0.54269 0.0
O74 O 0.38604 0.80883 0.58202 0.0
C75 C 0.31437 0.8551 0.66562 0.0
O76 O 0.27628 0.84584 0.63597 0.0
O77 O 0.41263 0.98168 0.58116 0.0
C78 C 0.41947 0.12708 0.75672 0.0
O79 O 0.43894 0.12918 0.71529 0.0
O80 O 0.5224 0.02923 0.70832 0.0
Zn81 Zn 0.48438 0.01923 0.77061 0.0
O82 O 0.54007 0.01701 0.82045 0.0
C83 C 0.41876 0.93318 0.81142 0.0
O84 O 0.4083 0.97358 0.84041 0.0
O85 O 0.43275 0.08611 0.78441 0.0
C86 C 0.56329 0.97099 0.8323 0.0
O87 O 0.55023 0.92415 0.81197 0.0
C88 C 0.56561 0.0073 0.6975 0.0
O89 O 0.58948 0.97096 0.72609 0.0
O90 O 0.44789 0.94313 0.77765 0.0
C91 C 0.44687 0.96329 0.00832 0.0
O92 O 0.45315 0.92627 0.97546 0.0
O93 O 0.39418 0.07234 0.11528 0.0
Zn94 Zn 0.36207 0.02133 0.0645 0.0
O95 O 0.32483 0.06965 0.0156 0.0
C96 C 0.30421 0.9202 0.07466 0.0
O97 O 0.33972 0.89761 0.04943 0.0
O98 O 0.40249 0.97297 0.02222 0.0
C99 C 0.30291 0.11757 0.01825 0.0
O100 O 0.30106 0.14214 0.05875 0.0
C101 C 0.40802 0.12272 0.10735 0.0
O102 O 0.41046 0.14053 0.06395 0.0
O103 O 0.31046 0.96925 0.09078 0.0
C104 C 0.74483 0.48589 0.10201 0.0
O105 O 0.74984 0.46498 0.14459 0.0
O106 O 0.84734 0.3918 0.15564 0.0
Zn107 Zn 0.84782 0.43681 0.093 0.0
O108 O 0.85135 0.38355 0.04227 0.0
C109 C 0.95248 0.45434 0.06907 0.0
O110 O 0.95404 0.39937 0.07321 0.0
O111 O 0.78234 0.48237 0.07545 0.0
C112 C 0.8712 0.3345 0.04264 0.0
O113 O 0.886 0.30893 0.08194 0.0
C114 C 0.81438 0.3551 0.16562 0.0
O115 O 0.77629 0.34583 0.13598 0.0
O116 O 0.91264 0.48171 0.08118 0.0
C117 C 0.91946 0.62702 0.25679 0.0
O118 O 0.93892 0.62915 0.21535 0.0
O119 O 0.02241 0.52922 0.20833 0.0
Zn120 Zn 0.98442 0.5192 0.27064 0.0
O121 O 0.04011 0.517 0.32049 0.0
C122 C 0.91876 0.43318 0.31143 0.0
O123 O 0.9083 0.4736 0.34041 0.0
O124 O 0.93278 0.58605 0.28445 0.0
C125 C 0.06334 0.47099 0.33235 0.0
O126 O 0.05028 0.42413 0.31204 0.0
C127 C 0.06561 0.5073 0.1975 0.0
O128 O 0.08949 0.47095 0.22609 0.0
O129 O 0.94792 0.44311 0.27767 0.0
C130 C 0.9466 0.46326 0.50805 0.0
O131 O 0.95295 0.42616 0.47527 0.0
O132 O 0.89421 0.5723 0.61524 0.0
Zn133 Zn 0.86205 0.52128 0.56445 0.0
O134 O 0.82479 0.56963 0.5156 0.0
C135 C 0.80422 0.42015 0.57468 0.0
O136 O 0.83973 0.39753 0.54946 0.0
O137 O 0.90225 0.47282 0.52202 0.0
C138 C 0.8029 0.61757 0.51827 0.0
O139 O 0.80109 0.64214 0.55877 0.0
C140 C 0.90802 0.6227 0.60733 0.0
O141 O 0.91045 0.64053 0.56394 0.0
O142 O 0.81048 0.4692 0.59078 0.0
C143 C 0.79273 0.45259 0.80138 0.0
O144 O 0.8103 0.49111 0.8295 0.0
O145 O 0.66577 0.52932 0.70433 0.0
Zn146 Zn 0.71082 0.53514 0.76368 0.0
O147 O 0.66375 0.54461 0.81407 0.0
C148 C 0.76667 0.62312 0.80852 0.0
O149 O 0.75471 0.59603 0.84659 0.0
O150 O 0.75421 0.46354 0.77386 0.0
C151 C 0.64545 0.59294 0.82349 0.0
O152 O 0.65506 0.6372 0.7976 0.0
C153 C 0.6173 0.53644 0.6985 0.0
O154 O 0.58947 0.55283 0.73303 0.0
O155 O 0.75486 0.60353 0.76849 0.0
C156 C 0.10562 0.89845 0.90424 0.0
O157 O 0.11359 0.88093 0.94737 0.0
O158 O 0.02455 0.81464 0.96463 0.0
Zn159 Zn 1.0021 0.88078 0.92843 0.0
O160 O 0.9759 0.93753 0.97566 0.0
C161 C 0.92957 0.8024 0.89561 0.0
O162 O 0.92763 0.78784 0.93971 0.0
O163 O 0.06003 0.90501 0.88841 0.0
C164 C 0.96712 0.9264 0.01827 0.0
O165 O 0.9571 0.87451 0.03046 0.0
C166 C 0.04724 0.80729 0.0039 0.0
O167 O 0.06791 0.84932 0.02581 0.0
O168 O 0.95189 0.84717 0.8843 0.0
C169 C 0.97711 0.29128 0.73315 0.0
O170 O 0.9673 0.30079 0.68848 0.0
O171 O 0.0814 0.19794 0.6602 0.0
Zn172 Zn 0.08565 0.27205 0.70005 0.0
O173 O 0.08219 0.34623 0.65808 0.0
C174 C 0.19909 0.25593 0.7232 0.0
O175 O 0.20233 0.25097 0.67798 0.0
O176 O 0.02319 0.27764 0.74653 0.0
C177 C 0.11144 0.36332 0.62625 0.0
O178 O 0.15173 0.33273 0.61615 0.0
C179 C 0.09635 0.18949 0.6188 0.0
O180 O 0.11485 0.23128 0.59497 0.0
O181 O 0.15519 0.26581 0.73997 0.0
C182 C 0.60562 0.39845 0.40425 0.0
O183 O 0.61359 0.38092 0.44737 0.0
O184 O 0.52454 0.31467 0.46464 0.0
Zn185 Zn 0.5021 0.38083 0.42846 0.0
O186 O 0.47597 0.43762 0.47571 0.0
C187 C 0.42958 0.30242 0.3956 0.0
O188 O 0.42764 0.28783 0.43971 0.0
O189 O 0.56002 0.40503 0.38842 0.0
C190 C 0.46715 0.42651 0.51831 0.0
O191 O 0.45709 0.37462 0.53049 0.0
C192 C 0.54722 0.30731 0.50391 0.0
O193 O 0.5679 0.34932 0.52582 0.0
O194 O 0.45187 0.34722 0.38433 0.0
C195 C 0.47714 0.79129 0.23315 0.0
O196 O 0.46732 0.8008 0.18848 0.0
O197 O 0.58143 0.69793 0.16019 0.0
Zn198 Zn 0.5857 0.77205 0.20004 0.0
O199 O 0.5824 0.84624 0.15804 0.0
C200 C 0.69914 0.75592 0.22325 0.0
O201 O 0.70242 0.75099 0.17803 0.0
O202 O 0.52322 0.77767 0.24652 0.0
C203 C 0.61174 0.86322 0.12623 0.0
O204 O 0.65194 0.83249 0.11615 0.0
C205 C 0.59636 0.68946 0.11879 0.0
O206 O 0.61484 0.73125 0.09494 0.0
O207 O 0.65523 0.76578 0.23999 0.0
C208 C 0.87769 0.10809 0.81498 0.0
O209 O 0.85706 0.07094 0.78733 0.0
O210 O 0.9987 0.00743 0.79776 0.0
Zn211 Zn 0.94933 0.01704 0.84637 0.0
O212 O 0.99314 0.00829 0.90672 0.0
C213 C 0.88205 0.94466 0.79111 0.0
O214 O 0.90248 0.96949 0.75542 0.0
O215 O 0.916 0.09431 0.84176 0.0
C216 C 0.03352 0.0363 0.91457 0.0
O217 O 0.04612 0.0751 0.88434 0.0
C218 C 1.01257 0.958 0.7868 0.0
O219 O 0.99373 0.91408 0.80771 0.0
O220 O 0.89536 0.95826 0.83272 0.0
C221 C 0.94014 0.06696 0.51397 0.0
O222 O 0.93665 0.08598 0.47073 0.0
O223 O 0.83 0.1751 0.56654 0.0
Zn224 Zn 0.84173 0.12282 0.51566 0.0
O225 O 0.85446 0.16623 0.4521 0.0
C226 C 0.73852 0.10019 0.53982 0.0
O227 O 0.73701 0.1552 0.54283 0.0
O228 O 0.90308 0.07567 0.54009 0.0
C229 C 0.8357 0.21525 0.44141 0.0
O230 O 0.80296 0.23836 0.46928 0.0
C231 C 0.83413 0.22603 0.57722 0.0
O232 O 0.85765 0.26113 0.55004 0.0
O233 O 0.777 0.07593 0.52179 0.0
C234 C 0.76005 0.92364 0.34888 0.0
O235 O 0.74101 0.92435 0.39049 0.0
O236 O 0.64511 0.04663 0.28607 0.0
Zn237 Zn 0.70145 0.03334 0.33489 0.0
O238 O 0.66642 0.02145 0.39798 0.0
C239 C 0.74124 0.13904 0.29417 0.0
O240 O 0.70747 0.13042 0.26038 0.0
O241 O 0.74812 0.96377 0.31994 0.0
C242 C 0.62522 0.04541 0.41114 0.0
O243 O 0.60316 0.08575 0.38516 0.0
C244 C 0.59863 0.03249 0.28384 0.0
O245 O 0.58131 0.9976 0.31512 0.0
O246 O 0.74476 0.10527 0.32958 0.0
C247 C 0.72686 0.07689 0.11019 0.0
O248 O 0.72441 0.10713 0.14793 0.0
O249 O 0.83487 0.95284 0.08014 0.0
Zn250 Zn 0.79997 0.01624 0.04378 0.0
O251 O 0.75474 0.98081 0.9942 0.0
C252 C 0.86162 0.10677 1.00111 0.0
O253 O 0.84416 0.12259 0.95936 0.0
O254 O 0.77039 0.06594 0.09391 0.0
C255 C 0.74279 0.92938 0.9986 0.0
O256 O 0.75044 0.90392 0.03933 0.0
C257 C 0.86738 0.96324 0.11257 0.0
O258 O 0.8789 0.01564 0.12047 0.0
O259 O 0.85738 0.05556 0.01356 0.0
C260 C 0.44014 0.56695 0.01398 0.0
O261 O 0.43665 0.58598 0.97073 0.0
O262 O 0.33 0.6751 0.06653 0.0
Zn263 Zn 0.34173 0.62281 0.01565 0.0
O264 O 0.35447 0.66622 0.95209 0.0
C265 C 0.23852 0.60019 0.03982 0.0
O266 O 0.23701 0.6552 0.04283 0.0
O267 O 0.40307 0.57567 0.04009 0.0
C268 C 0.33572 0.71524 0.9414 0.0
O269 O 0.30298 0.73836 0.96926 0.0
C270 C 0.33413 0.72603 0.07721 0.0
O271 O 0.35765 0.76113 0.05003 0.0
O272 O 0.277 0.57593 0.02179 0.0
C273 C 0.26001 0.42367 0.84884 0.0
O274 O 0.24101 0.42436 0.89047 0.0
O275 O 0.14507 0.54668 0.78596 0.0
Zn276 Zn 0.2014 0.53337 0.83484 0.0
O277 O 0.16639 0.52146 0.89794 0.0
C278 C 0.24123 0.63904 0.79417 0.0
O279 O 0.20741 0.63047 0.76041 0.0
O280 O 0.24806 0.46379 0.81991 0.0
C281 C 0.12519 0.54542 0.91112 0.0
O282 O 0.10313 0.58576 0.88516 0.0
C283 C 0.0986 0.53247 0.78373 0.0
O284 O 0.08132 0.49761 0.81505 0.0
O285 O 0.24475 0.60527 0.82957 0.0
C286 C 0.22487 0.57334 0.61362 0.0
O287 O 0.22205 0.6023 0.652 0.0
O288 O 0.34076 0.45369 0.57741 0.0
Zn289 Zn 0.29755 0.5159 0.54642 0.0
O290 O 0.25285 0.47994 0.49631 0.0
C291 C 0.36505 0.60923 0.49412 0.0
O292 O 0.35657 0.61869 0.44935 0.0
O293 O 0.26847 0.55953 0.59934 0.0
C294 C 0.24251 0.42801 0.4998 0.0
O295 O 0.25129 0.4019 0.5401 0.0
C296 C 0.37006 0.46445 0.61216 0.0
O297 O 0.37669 0.51715 0.62304 0.0
O298 O 0.33879 0.57289 0.51453 0.0
C299 C 0.37771 0.60808 0.31498 0.0
O300 O 0.35706 0.57093 0.28733 0.0
O301 O 0.49874 0.50743 0.2978 0.0
Zn302 Zn 0.44936 0.51706 0.34641 0.0
O303 O 0.49319 0.50835 0.4068 0.0
C304 C 0.38206 0.44468 0.29113 0.0
O305 O 0.4025 0.4695 0.25543 0.0
O306 O 0.41602 0.59431 0.34175 0.0
C307 C 0.53354 0.5364 0.41469 0.0
O308 O 0.54614 0.57522 0.38447 0.0
C309 C 0.51258 0.458 0.28682 0.0
O310 O 0.49373 0.41408 0.30772 0.0
O311 O 0.39538 0.45827 0.33274 0.0
C312 C 0.0586 0.03427 0.96139 0.0
N313 N 1.00343 0.13519 0.05997 0.0
C314 C 0.99367 0.16075 0.01755 0.0
C315 C 0.945 0.15669 0.99624 0.0
C316 C 0.90579 0.13488 0.02255 0.0
C317 C 0.91454 0.12667 0.07051 0.0
C318 C 0.96454 0.12393 0.08822 0.0
Zn319 Zn 0.05454 0.06864 0.06059 0.0
C320 C 0.99531 0.96073 0.05193 0.0
N321 N 0.14877 0.92905 0.04961 0.0
C322 C 0.18011 0.93665 0.01372 0.0
C323 C 0.16552 0.90166 0.08962 0.0
C324 C 0.21789 0.89178 0.09809 0.0
C325 C 0.25146 0.906 0.06328 0.0
C326 C 0.23187 0.92365 0.01936 0.0
Zn327 Zn 0.09639 0.99304 0.0532 0.0
O328 O 0.05757 0.07806 0.98588 0.0
C329 C 0.15892 0.09193 0.06411 0.0
O330 O 0.07296 0.98785 0.98075 0.0
H331 H 0.13993 0.89639 0.11794 0.0
H332 H 0.02499 0.17313 0.9965 0.0
H333 H 0.16688 0.96212 0.98406 0.0
O334 O 0.118 0.11787 0.07412 0.0
O335 O 0.1556 0.04885 0.03891 0.0
H336 H 0.97205 0.10267 0.12131 0.0
O337 O 0.11828 0.99966 0.12354 0.0
O338 O 0.055 0.0582 0.13627 0.0
O339 O 0.03731 0.93943 0.06819 0.0
O340 O 0.99147 0.01389 0.04674 0.0
C341 C 0.09399 0.02941 0.15156 0.0
H342 H 0.9398 0.16464 0.95912 0.0
H343 H 0.88414 0.11331 0.09221 0.0
H344 H 0.23203 0.8791 0.13267 0.0
H345 H 0.25718 0.93648 0.99236 0.0
C346 C 0.43283 0.79078 0.26504 0.0
N347 N 0.2867 0.76944 0.21049 0.0
C348 C 0.30727 0.80964 0.18296 0.0
C349 C 0.32146 0.79707 0.13826 0.0
C350 C 0.31176 0.74401 0.12084 0.0
C351 C 0.28356 0.70619 0.14742 0.0
C352 C 0.27161 0.71974 0.19281 0.0
Zn353 Zn 0.31244 0.77297 0.27755 0.0
C354 C 0.3596 0.66674 0.31266 0.0
N355 N 0.38943 0.79187 0.40487 0.0
C356 C 0.4132 0.83807 0.42085 0.0
C357 C 0.36952 0.75341 0.43437 0.0
C358 C 0.36794 0.76358 0.4817 0.0
C359 C 0.38732 0.81352 0.49822 0.0
C360 C 0.41256 0.84985 0.46808 0.0
Zn361 Zn 0.36205 0.78809 0.33893 0.0
O362 O 0.38825 0.78332 0.24735 0.0
C363 C 0.31361 0.89464 0.30403 0.0
O364 O 0.4373 0.7973 0.30891 0.0
H365 H 0.34904 0.71829 0.42063 0.0
H366 H 0.32061 0.84836 0.19753 0.0
H367 H 0.42767 0.86851 0.39658 0.0
O368 O 0.29554 0.85954 0.27574 0.0
O369 O 0.34602 0.87786 0.33571 0.0
H370 H 0.25602 0.68811 0.21535 0.0
O371 O 0.28663 0.77795 0.36919 0.0
O372 O 0.23747 0.76225 0.30786 0.0
O373 O 0.3781 0.70098 0.34152 0.0
O374 O 0.32824 0.68452 0.28064 0.0
C375 C 0.24221 0.76886 0.35179 0.0
H376 H 0.34408 0.82655 0.11951 0.0
H377 H 0.27463 0.66472 0.13495 0.0
H378 H 0.34698 0.73595 0.50401 0.0
H379 H 0.42731 0.88941 0.48011 0.0
C380 C 0.5853 0.01759 0.65047 0.0
N381 N 0.64412 0.90726 0.55173 0.0
C382 C 0.68618 0.89174 0.5783 0.0
C383 C 0.70196 0.83568 0.5808 0.0
C384 C 0.67272 0.79596 0.55704 0.0
C385 C 0.632 0.81347 0.52707 0.0
C386 C 0.61871 0.87027 0.52432 0.0
Zn387 Zn 0.61656 0.9852 0.55408 0.0
C388 C 0.49944 0.98249 0.55633 0.0
N389 N 0.55051 0.14272 0.5557 0.0
C390 C 0.57612 0.18165 0.58096 0.0
C391 C 0.5173 0.15683 0.52008 0.0
C392 C 0.51435 0.21154 0.50398 0.0
C393 C 0.54484 0.25192 0.52568 0.0
C394 C 0.57372 0.23767 0.56632 0.0
Zn395 Zn 0.57632 0.06526 0.55501 0.0
O396 O 0.61185 0.98024 0.6301 0.0
C397 C 0.69264 0.06962 0.55208 0.0
O398 O 0.56973 0.06108 0.62764 0.0
H399 H 0.49794 0.12465 0.50062 0.0
H400 H 0.70558 0.92223 0.5996 0.0
H401 H 0.60245 0.16846 0.60921 0.0
O402 O 0.69205 0.01642 0.55417 0.0
O403 O 0.65144 0.09755 0.55711 0.0
H404 H 0.58615 0.8843 0.50251 0.0
O405 O 0.58188 0.07107 0.47976 0.0
O406 O 0.62181 0.98937 0.48039 0.0
O407 O 0.50099 0.03551 0.55289 0.0
O408 O 0.54048 0.9533 0.55343 0.0
C409 C 0.60685 0.03371 0.45837 0.0
H410 H 0.73295 0.82295 0.60511 0.0
H411 H 0.60848 0.78328 0.50902 0.0
H412 H 0.49146 0.22057 0.47263 0.0
H413 H 0.59695 0.26818 0.58425 0.0
C414 C 0.3882 0.17621 0.77231 0.0
N415 N 0.29775 0.20894 0.89097 0.0
C416 C 0.28959 0.15271 0.89017 0.0
C417 C 0.28677 0.12207 0.93193 0.0
C418 C 0.29183 0.14989 0.97461 0.0
C419 C 0.29519 0.20854 0.97421 0.0
C420 C 0.2989 0.23726 0.93184 0.0
Zn421 Zn 0.32212 0.25085 0.83343 0.0
C422 C 0.4298 0.2914 0.85783 0.0
N423 N 0.38087 0.34307 0.72044 0.0
C424 C 0.36828 0.32602 0.67661 0.0
C425 C 0.4003 0.3947 0.72817 0.0
C426 C 0.40244 0.43376 0.69156 0.0
C427 C 0.38369 0.41955 0.64694 0.0
C428 C 0.36939 0.36389 0.63903 0.0
Zn429 Zn 0.35594 0.29828 0.7756 0.0
O430 O 0.3612 0.17385 0.8084 0.0
C431 C 0.24721 0.25814 0.75249 0.0
O432 O 0.39054 0.22291 0.75028 0.0
H433 H 0.4099 0.40731 0.76335 0.0
H434 H 0.28888 0.13095 0.85741 0.0
H435 H 0.3531 0.28463 0.67134 0.0
O436 O 0.25142 0.23595 0.79328 0.0
O437 O 0.28523 0.28348 0.73652 0.0
H438 H 0.30679 0.28161 0.9322 0.0
O439 O 0.31948 0.37526 0.80043 0.0
O440 O 0.28571 0.32691 0.85638 0.0
O441 O 0.42731 0.3112 0.81622 0.0
O442 O 0.39096 0.26757 0.87345 0.0
C443 C 0.29035 0.37348 0.83483 0.0
H444 H 0.2839 0.07671 0.93089 0.0
H445 H 0.29962 0.23149 0.00631 0.0
H446 H 0.41425 0.47608 0.69913 0.0
H447 H 0.35517 0.35103 0.60505 0.0
C448 C 0.1937 1.00408 0.58351 0.0
N449 N 0.11733 0.07217 0.46221 0.0
C450 C 0.15067 0.11249 0.45066 0.0
C451 C 0.15587 0.12708 0.40376 0.0
C452 C 0.12659 0.0992 0.36974 0.0
C453 C 0.08958 0.06202 0.38295 0.0
C454 C 0.0857 0.04884 0.42951 0.0
Zn455 Zn 0.10673 0.04192 0.52668 0.0
C456 C 0.0876 0.916 0.51984 0.0
N457 N 0.06211 0.97613 0.65324 0.0
C458 C 0.09083 0.9971 0.68906 0.0
C459 C 0.02444 0.93913 0.6605 0.0
C460 C 1.01142 0.92588 0.70589 0.0
C461 C 0.03723 0.95201 0.74294 0.0
C462 C 0.07879 0.98563 0.7346 0.0
Zn463 Zn 0.07625 0.00723 0.59033 0.0
O464 O 0.18642 0.02713 0.54337 0.0
C465 C 0.09469 0.13282 0.59745 0.0
O466 O 0.15549 0.99271 0.60743 0.0
H467 H 1.0026 0.92284 0.63124 0.0
H468 H 0.17457 0.13123 0.4774 0.0
H469 H 0.12101 0.02597 0.68244 0.0
O470 O 0.11006 0.12531 0.55635 0.0
O471 O 0.07868 0.0908 0.61999 0.0
H472 H 0.0585 0.01773 0.43901 0.0
O473 O 0.99619 0.02251 0.57312 0.0
O474 O 0.02873 0.05734 0.51041 0.0
O475 O 0.07287 0.9238 0.561 0.0
O476 O 0.10392 0.95776 0.49725 0.0
C477 C 0.99003 0.04658 0.53338 0.0
H478 H 0.18536 0.15569 0.3941 0.0
H479 H 0.06709 0.03945 0.35725 0.0
H480 H 0.97851 0.90032 0.71168 0.0
H481 H 0.09889 0.00658 0.76278 0.0
C482 C 0.31573 0.82768 0.71217 0.0
N483 N 0.42772 0.71668 0.77232 0.0
C484 C 0.41853 0.69619 0.72907 0.0
C485 C 0.45865 0.68428 0.70044 0.0
C486 C 0.50914 0.68897 0.71722 0.0
C487 C 0.51798 0.70408 0.76393 0.0
C488 C 0.47625 0.71921 0.79086 0.0
Zn489 Zn 0.36611 0.76041 0.79625 0.0
C490 C 0.39064 0.88007 0.81396 0.0
N491 N 0.23389 0.85436 0.82992 0.0
C492 C 0.18695 0.84683 0.80931 0.0
C493 C 0.23995 0.88654 0.86816 0.0
C494 C 0.19747 0.90793 0.8899 0.0
C495 C 0.14847 0.89518 0.87281 0.0
C496 C 0.14315 0.86718 0.8304 0.0
Zn497 Zn 0.29575 0.80988 0.81009 0.0
O498 O 0.35301 0.79531 0.72551 0.0
C499 C 0.27125 0.6906 0.7928 0.0
O500 O 0.2812 0.83903 0.74049 0.0
H501 H 0.27758 0.89225 0.88384 0.0
H502 H 0.37983 0.69461 0.7148 0.0
H503 H 0.18321 0.82149 0.77852 0.0
O504 O 0.31889 0.68809 0.78583 0.0
O505 O 0.24986 0.73789 0.80037 0.0
H506 H 0.4828 0.73673 0.82501 0.0
O507 O 0.30899 0.77954 0.88061 0.0
O508 O 0.37701 0.72707 0.86742 0.0
O509 O 0.34279 0.88194 0.81989 0.0
O510 O 0.41271 0.83286 0.8068 0.0
C511 C 0.3423 0.74258 0.89489 0.0
H512 H 0.4497 0.67526 0.66462 0.0
H513 H 0.5565 0.70902 0.77803 0.0
H514 H 0.20318 0.93078 0.92147 0.0
H515 H 0.10585 0.85646 0.81615 0.0
C516 C 0.60197 0.91799 0.10116 0.0
N517 N 0.53617 0.0652 0.15075 0.0
C518 C 0.51428 0.02438 0.1766 0.0
C519 C 0.52978 0.01603 0.22335 0.0
C520 C 0.56681 0.05109 0.24274 0.0
C521 C 0.57972 0.09979 0.21788 0.0
C522 C 0.56323 0.10648 0.17142 0.0
Zn523 Zn 0.56184 0.04053 0.08799 0.0
C524 C 0.67973 0.05591 0.08893 0.0
N525 N 0.62857 0.98137 0.96622 0.0
C526 C 0.60937 0.93124 0.95275 0.0
C527 C 0.64044 0.02139 0.93426 0.0
C528 C 0.62339 0.01661 0.88799 0.0
C529 C 0.5963 0.96904 0.87477 0.0
C530 C 0.59327 0.92389 0.9065 0.0
Zn531 Zn 0.60663 0.00938 0.02913 0.0
O532 O 0.57484 0.95647 0.11887 0.0
C533 C 0.49092 0.991 0.02824 0.0
O534 O 0.62217 0.928 0.06234 0.0
H535 H 0.65726 0.06018 0.94543 0.0
H536 H 0.49214 0.99243 0.15945 0.0
H537 H 0.59958 0.90017 0.97861 0.0
O538 O 0.48869 0.01787 0.06581 0.0
O539 O 0.53314 0.98395 0.009 0.0
H540 H 0.57959 0.13898 0.15027 0.0
O541 O 0.59138 0.09272 0.99749 0.0
O542 O 0.5485 0.12379 0.05609 0.0
O543 O 0.67952 0.03331 0.04933 0.0
O544 O 0.63811 0.06271 0.10987 0.0
C545 C 0.56681 0.13257 0.01614 0.0
H546 H 0.51804 0.97872 0.24186 0.0
H547 H 0.60677 0.129 0.23244 0.0
H548 H 0.62743 0.05168 0.86392 0.0
H549 H 0.57283 0.88638 0.89732 0.0
C550 C 0.28508 0.18022 0.31142 0.0
N551 N 0.38755 0.23778 0.21821 0.0
C552 C 0.4085 0.18552 0.22807 0.0
C553 C 0.41832 0.14777 0.19224 0.0
C554 C 0.40841 0.16448 0.1456 0.0
C555 C 0.39228 0.22068 0.1363 0.0
C556 C 0.38139 0.2565 0.1732 0.0
Zn557 Zn 0.34411 0.27562 0.26952 0.0
C558 C 0.23752 0.29809 0.23318 0.0
N559 N 0.24685 0.33342 0.37641 0.0
C560 C 0.24598 0.30566 0.41821 0.0
C561 C 0.23522 0.38952 0.37284 0.0
C562 C 0.23048 0.42132 0.4129 0.0
C563 C 0.23441 0.39468 0.45697 0.0
C564 C 0.2389 0.33558 0.4591 0.0
Zn565 Zn 0.28908 0.29954 0.3242 0.0
O566 O 0.3209 0.19402 0.28569 0.0
C567 C 0.39277 0.28016 0.36251 0.0
O568 O 0.26143 0.21748 0.33422 0.0
H569 H 0.23557 0.41092 0.33933 0.0
H570 H 0.41297 0.17087 0.26389 0.0
H571 H 0.25607 0.26127 0.42057 0.0
O572 O 0.40445 0.2731 0.32031 0.0
O573 O 0.34661 0.28397 0.37337 0.0
H574 H 0.3637 0.29744 0.1657 0.0
O575 O 0.32161 0.37959 0.31419 0.0
O576 O 0.36693 0.35808 0.25375 0.0
O577 O 0.22956 0.31519 0.27397 0.0
O578 O 0.28194 0.28139 0.22254 0.0
C579 C 0.35329 0.39341 0.28401 0.0
H580 H 0.43089 0.10504 0.20109 0.0
H581 H 0.38378 0.23548 0.10089 0.0
H582 H 0.22788 0.46667 0.40935 0.0
H583 H 0.24208 0.31311 0.49225 0.0
C584 C 0.69368 0.50404 0.08351 0.0
N585 N 0.61732 0.57214 0.96222 0.0
C586 C 0.65066 0.61246 0.95067 0.0
C587 C 0.65586 0.62706 0.90378 0.0
C588 C 0.62659 0.59918 0.86975 0.0
C589 C 0.58958 0.562 0.88295 0.0
C590 C 0.58569 0.54881 0.92951 0.0
Zn591 Zn 0.60672 0.54188 0.02669 0.0
C592 C 0.58752 0.41595 0.01983 0.0
N593 N 0.5621 0.47611 0.15325 0.0
C594 C 0.59082 0.49709 0.18905 0.0
C595 C 0.52443 0.43912 0.16052 0.0
C596 C 0.51141 0.42587 0.20591 0.0
C597 C 0.53723 0.45201 0.24295 0.0
C598 C 0.57879 0.48563 0.2346 0.0
Zn599 Zn 0.57622 0.50719 0.09033 0.0
O600 O 0.68641 0.5271 0.04338 0.0
C601 C 0.59469 0.63279 0.09744 0.0
O602 O 0.65547 0.49265 0.10743 0.0
H603 H 0.50258 0.42282 0.13126 0.0
H604 H 0.67456 0.6312 0.97742 0.0
H605 H 0.621 0.52595 0.18243 0.0
O606 O 0.61006 0.62528 0.05634 0.0
O607 O 0.57869 0.59077 0.11998 0.0
H608 H 0.5585 0.5177 0.93901 0.0
O609 O 0.49617 0.5225 0.07313 0.0
O610 O 0.52872 0.55732 0.01042 0.0
O611 O 0.57279 0.42375 0.061 0.0
O612 O 0.60388 0.45771 0.99727 0.0
C613 C 0.49002 0.54657 0.03338 0.0
H614 H 0.68535 0.65567 0.89412 0.0
H615 H 0.5671 0.53944 0.85725 0.0
H616 H 0.47851 0.40031 0.2117 0.0
H617 H 0.59889 0.50658 0.26277 0.0
C618 C 0.81574 0.32768 0.21218 0.0
N619 N 0.92773 0.21671 0.27243 0.0
C620 C 0.9185 0.19627 0.22918 0.0
C621 C 0.95859 0.18447 0.20052 0.0
C622 C 1.0091 0.18906 0.21727 0.0
C623 C 1.01798 0.20409 0.26399 0.0
C624 C 0.97627 0.21922 0.29095 0.0
Zn625 Zn 0.86611 0.26043 0.29629 0.0
C626 C 0.89064 0.38008 0.31398 0.0
N627 N 0.73388 0.35436 0.32992 0.0
C628 C 0.68694 0.34683 0.3093 0.0
C629 C 0.73994 0.38655 0.36816 0.0
C630 C 0.69747 0.40793 0.3899 0.0
C631 C 0.64847 0.39518 0.37282 0.0
C632 C 0.64314 0.36718 0.3304 0.0
Zn633 Zn 0.79574 0.30989 0.31009 0.0
O634 O 0.85302 0.29533 0.22554 0.0
C635 C 0.77125 0.1906 0.29281 0.0
O636 O 0.78119 0.33902 0.24048 0.0
H637 H 0.77758 0.39225 0.38384 0.0
H638 H 0.8798 0.19471 0.21493 0.0
H639 H 0.68321 0.32149 0.27852 0.0
O640 O 0.81889 0.1881 0.28587 0.0
O641 O 0.74985 0.23789 0.30037 0.0
H642 H 0.98284 0.23672 0.3251 0.0
O643 O 0.80897 0.27955 0.38062 0.0
O644 O 0.877 0.2271 0.36745 0.0
O645 O 0.84279 0.38195 0.31989 0.0
O646 O 0.91271 0.33287 0.30684 0.0
C647 C 0.84229 0.2426 0.3949 0.0
H648 H 0.94956 0.17572 0.1647 0.0
H649 H 0.05651 0.20899 0.27808 0.0
H650 H 0.70318 0.43078 0.42147 0.0
H651 H 0.60584 0.35646 0.31615 0.0
C652 C 0.10145 0.41805 0.60116 0.0
N653 N 0.03539 0.5653 0.65076 0.0
C654 C 1.01383 0.52433 0.67668 0.0
C655 C 0.02965 0.5159 0.72334 0.0
C656 C 0.06673 0.55099 0.74263 0.0
C657 C 0.07945 0.59974 0.71774 0.0
C658 C 0.06254 0.60658 0.67138 0.0
Zn659 Zn 0.06096 0.54054 0.58792 0.0
C660 C 0.1781 0.55571 0.58991 0.0
N661 N 0.12854 0.48146 0.46634 0.0
C662 C 0.10939 0.4313 0.45285 0.0
C663 C 0.14044 0.52145 0.43435 0.0
C664 C 0.12344 0.51663 0.38807 0.0
C665 C 0.09635 0.46905 0.37484 0.0
C666 C 0.09332 0.42392 0.40658 0.0
Zn667 Zn 0.10619 0.50952 0.52921 0.0
O668 O 0.07403 0.45637 0.61877 0.0
C669 C 0.99055 0.49107 0.52797 0.0
O670 O 0.12171 0.42816 0.5624 0.0
H671 H 0.15721 0.56028 0.44551 0.0
H672 H 0.99166 0.49236 0.65958 0.0
H673 H 0.09957 0.40024 0.4787 0.0
O674 O 0.98814 0.51794 0.56552 0.0
O675 O 0.03284 0.48406 0.50879 0.0
H676 H 0.07871 0.63919 0.65021 0.0
O677 O 0.09118 0.59279 0.49755 0.0
O678 O 0.048 0.62384 0.55599 0.0
O679 O 0.17878 0.53348 0.55015 0.0
O680 O 0.13619 0.56238 0.61018 0.0
C681 C 0.06659 0.63266 0.51615 0.0
H682 H 1.01807 0.47854 0.74187 0.0
H683 H 0.10657 0.62894 0.7322 0.0
H684 H 0.12749 0.55168 0.36398 0.0
H685 H 0.07289 0.3864 0.39741 0.0
C686 C 0.88822 0.67613 0.27242 0.0
N687 N 0.79774 0.70892 0.391 0.0
C688 C 0.78957 0.65269 0.39019 0.0
C689 C 0.78675 0.62206 0.43195 0.0
C690 C 0.79182 0.64988 0.47463 0.0
C691 C 0.79518 0.70853 0.47424 0.0
C692 C 0.79889 0.73725 0.43187 0.0
Zn693 Zn 0.82212 0.75078 0.3335 0.0
C694 C 0.92985 0.7913 0.35793 0.0
N695 N 0.88098 0.84272 0.22084 0.0
C696 C 0.86818 0.82533 0.17718 0.0
C697 C 0.90009 0.89455 0.22833 0.0
C698 C 0.90132 0.9336 0.19165 0.0
C699 C 0.8819 0.91899 0.14739 0.0
C700 C 0.86833 0.86314 0.1396 0.0
Zn701 Zn 0.85602 0.79816 0.27583 0.0
O702 O 0.86118 0.67374 0.30848 0.0
C703 C 0.74723 0.75809 0.25259 0.0
O704 O 0.8906 0.72284 0.25046 0.0
H705 H 0.90992 0.90733 0.26343 0.0
H706 H 0.78885 0.63094 0.35744 0.0
H707 H 0.85338 0.78374 0.1721 0.0
O708 O 0.7514 0.73587 0.29336 0.0
O709 O 0.78529 0.78343 0.23668 0.0
H710 H 0.8068 0.78159 0.43223 0.0
O711 O 0.8196 0.87521 0.30057 0.0
O712 O 0.7857 0.82687 0.35644 0.0
O713 O 0.92738 0.8111 0.31633 0.0
O714 O 0.89099 0.76749 0.37354 0.0
C715 C 0.79039 0.87345 0.3349 0.0
H716 H 0.78388 0.5767 0.43091 0.0
H717 H 0.79962 0.73148 0.50634 0.0
H718 H 0.91273 0.97613 0.19897 0.0
H719 H 0.85395 0.85005 0.10572 0.0
C720 C 0.93281 0.29078 0.76504 0.0
N721 N 0.78667 0.26943 0.7105 0.0
C722 C 0.80726 0.30963 0.68297 0.0
C723 C 0.82146 0.29706 0.63827 0.0
C724 C 0.81176 0.244 0.62085 0.0
C725 C 0.78355 0.20618 0.64743 0.0
C726 C 0.77159 0.21973 0.69281 0.0
Zn727 Zn 0.8124 0.27296 0.77756 0.0
C728 C 0.85958 0.16675 0.81266 0.0
N729 N 0.88942 0.29196 0.90481 0.0
C730 C 0.91323 0.33813 0.92082 0.0
C731 C 0.86937 0.25358 0.93429 0.0
C732 C 0.86753 0.2639 0.98158 0.0
C733 C 0.88714 0.3137 0.99814 0.0
C734 C 0.91256 0.34992 0.96806 0.0
Zn735 Zn 0.86204 0.28813 0.83889 0.0
O736 O 0.88822 0.28331 0.74736 0.0
C737 C 0.81361 0.39464 0.80402 0.0
O738 O 0.93729 0.29732 0.80891 0.0
H739 H 0.84913 0.21826 0.92054 0.0
H740 H 0.82059 0.34835 0.69755 0.0
H741 H 0.92781 0.36852 0.89657 0.0
O742 O 0.79551 0.35953 0.77576 0.0
O743 O 0.84605 0.37787 0.83568 0.0
H744 H 0.75601 0.1881 0.71534 0.0
O745 O 0.7866 0.278 0.86916 0.0
O746 O 0.73743 0.26222 0.80785 0.0
O747 O 0.8781 0.201 0.84151 0.0
O748 O 0.82821 0.18452 0.78064 0.0
C749 C 0.74218 0.26888 0.85177 0.0
H750 H 0.84409 0.32654 0.61953 0.0
H751 H 0.77463 0.16471 0.63495 0.0
H752 H 0.84635 0.23644 0.00383 0.0
H753 H 0.92745 0.3894 0.98011 0.0
C754 C 0.78508 0.6802 0.81144 0.0
N755 N 0.88755 0.73777 0.71821 0.0
C756 C 0.90849 0.6855 0.72807 0.0
C757 C 0.9183 0.64774 0.69223 0.0
C758 C 0.9084 0.66445 0.64559 0.0
C759 C 0.89227 0.72066 0.6363 0.0
C760 C 0.88139 0.75648 0.6732 0.0
Zn761 Zn 0.8441 0.77561 0.76951 0.0
C762 C 0.73752 0.79806 0.73316 0.0
N763 N 0.74681 0.83334 0.87628 0.0
C764 C 0.74602 0.80595 0.91826 0.0
C765 C 0.73502 0.88936 0.87231 0.0
C766 C 0.73027 0.92154 0.9121 0.0
C767 C 0.73435 0.89537 0.9563 0.0
C768 C 0.73892 0.83629 0.95894 0.0
Zn769 Zn 0.7891 0.79945 0.8242 0.0
O770 O 0.82088 0.69403 0.78569 0.0
C771 C 0.89275 0.78013 0.86252 0.0
O772 O 0.76143 0.71744 0.83425 0.0
H773 H 0.73532 0.91045 0.83866 0.0
H774 H 0.91295 0.67085 0.76389 0.0
H775 H 0.75621 0.7616 0.9209 0.0
O776 O 0.90443 0.7731 0.82031 0.0
O777 O 0.8466 0.78392 0.8734 0.0
H778 H 0.86371 0.79743 0.6657 0.0
O779 O 0.82164 0.87953 0.81419 0.0
O780 O 0.86693 0.85807 0.75373 0.0
O781 O 0.72958 0.81512 0.77396 0.0
O782 O 0.78194 0.78138 0.7225 0.0
C783 C 0.8533 0.89338 0.78399 0.0
H784 H 0.93085 0.60501 0.70109 0.0
H785 H 0.88379 0.73546 0.60089 0.0
H786 H 0.72762 0.96685 0.90822 0.0
H787 H 0.74225 0.8142 0.99226 0.0
C788 C 0.55866 0.5343 0.46152 0.0
N789 N 0.50455 0.63544 0.56083 0.0
C790 C 0.49657 0.6619 0.51862 0.0
C791 C 0.44911 0.65744 0.49534 0.0
C792 C 0.40902 0.63367 0.5193 0.0
C793 C 0.41531 0.62459 0.56746 0.0
C794 C 0.46445 0.62327 0.5874 0.0
Zn795 Zn 0.55481 0.56851 0.56092 0.0
C796 C 0.49536 0.4608 0.552 0.0
N797 N 0.64879 0.42894 0.54961 0.0
C798 C 0.68013 0.43655 0.51373 0.0
C799 C 0.66555 0.40157 0.58963 0.0
C800 C 0.71791 0.39173 0.5981 0.0
C801 C 0.75148 0.40596 0.5633 0.0
C802 C 0.7319 0.4236 0.51938 0.0
Zn803 Zn 0.59651 0.49298 0.55325 0.0
O804 O 0.55772 0.57805 0.48607 0.0
C805 C 0.6592 0.59173 0.56424 0.0
O806 O 0.57304 0.48784 0.48079 0.0
H807 H 0.63995 0.3963 0.61795 0.0
H808 H 0.5288 0.67504 0.49905 0.0
H809 H 0.66689 0.46203 0.48407 0.0
O810 O 0.6183 0.61753 0.57441 0.0
O811 O 0.65586 0.54869 0.539 0.0
H812 H 0.47082 0.60201 0.62066 0.0
O813 O 0.61837 0.49958 0.62363 0.0
O814 O 0.55508 0.55807 0.63645 0.0
O815 O 0.53736 0.43945 0.56822 0.0
O816 O 0.49152 0.51398 0.54693 0.0
C817 C 0.59408 0.52928 0.65168 0.0
H818 H 0.44548 0.66714 0.45837 0.0
H819 H 0.38402 0.61087 0.58784 0.0
H820 H 0.73206 0.37907 0.63269 0.0
H821 H 0.7572 0.43645 0.49238 0.0
C822 C 0.0853 0.51759 0.15047 0.0
N823 N 0.14412 0.40727 0.05172 0.0
C824 C 0.18618 0.39176 0.0783 0.0
C825 C 0.20197 0.3357 0.08079 0.0
C826 C 0.17273 0.29599 0.05702 0.0
C827 C 0.13201 0.3135 0.02705 0.0
C828 C 0.11872 0.37029 0.02431 0.0
Zn829 Zn 0.11656 0.48521 0.05408 0.0
C830 C 0.99944 0.4825 0.05633 0.0
N831 N 0.05052 0.64272 0.05571 0.0
C832 C 0.07612 0.68165 0.08096 0.0
C833 C 1.0173 0.65683 0.02009 0.0
C834 C 1.01435 0.71153 0.00398 0.0
C835 C 0.04485 0.75192 0.02568 0.0
C836 C 0.07372 0.73767 0.06632 0.0
Zn837 Zn 0.07632 0.56527 0.05501 0.0
O838 O 0.11185 0.48024 0.1301 0.0
C839 C 0.19264 0.56962 0.05208 0.0
O840 O 0.06973 0.56108 0.12765 0.0
H841 H 0.99793 0.62464 1.00063 0.0
H842 H 0.20558 0.42225 0.0996 0.0
H843 H 0.10245 0.66846 0.10922 0.0
O844 O 0.19205 0.51643 0.05417 0.0
O845 O 0.15144 0.59755 0.05711 0.0
H846 H 0.08616 0.38433 0.00251 0.0
O847 O 0.08188 0.57108 0.97976 0.0
O848 O 0.12181 0.48938 0.98038 0.0
O849 O 1.001 0.53551 0.05289 0.0
O850 O 0.04048 0.4533 0.05343 0.0
C851 C 0.10684 0.53372 0.95836 0.0
H852 H 0.23296 0.32297 0.1051 0.0
H853 H 0.1085 0.28331 0.009 0.0
H854 H 0.99146 0.72056 0.97263 0.0
H855 H 0.09695 0.76818 0.08425 0.0
loop_
_geom_bond_atom_site_label_1
_geom_bond_atom_site_label_2
_geom_bond_distance
_geom_bond_site_symmetry_2
_ccdc_geom_bond_type
C0 O1 1.160 . S
C0 O7 1.185 . S
O1 C0 1.160 . S
O2 Zn3 1.899 . S
O2 C10 1.284 . S
Zn3 O2 1.899 . S
Zn3 O4 2.032 . S
Zn3 O7 2.086 . S
Zn3 O12 1.977 . S
O4 Zn3 2.032 . S
O4 C8 1.278 . S
C5 O6 1.203 . S
C5 O12 1.267 . S
O6 C5 1.203 . S
O7 C0 1.185 . S
O7 Zn3 2.086 . S
C8 O4 1.278 . S
C8 O9 1.211 . S
O9 C8 1.211 . S
C10 O2 1.284 . S
C10 O11 1.273 . S
O11 C10 1.273 . S
O12 Zn3 1.977 . S
O12 C5 1.267 . S
C13 O14 1.160 . S
C13 O20 1.185 . S
O14 C13 1.160 . S
O15 Zn16 1.899 . S
O15 C23 1.284 . S
Zn16 O15 1.899 . S
Zn16 O17 2.032 . S
Zn16 O20 2.086 . S
Zn16 O25 1.977 . S
O17 Zn16 2.032 . S
O17 C21 1.278 . S
C18 O19 1.203 . S
C18 O25 1.267 1_655 S
O19 C18 1.203 . S
O20 C13 1.185 . S
O20 Zn16 2.086 . S
C21 O17 1.278 . S
C21 O22 1.211 . S
O22 C21 1.211 . S
C23 O15 1.284 . S
C23 O24 1.273 . S
O24 C23 1.273 . S
O25 Zn16 1.977 . S
O25 C18 1.267 1_455 S
C26 O27 1.160 . S
C26 O33 1.185 . S
O27 C26 1.160 . S
O28 Zn29 1.899 . S
O28 C36 1.284 . S
Zn29 O28 1.899 . S
Zn29 O30 2.032 . S
Zn29 O33 2.086 . S
Zn29 O38 1.977 . S
O30 Zn29 2.032 . S
O30 C34 1.278 . S
C31 O32 1.203 . S
C31 O38 1.267 . S
O32 C31 1.203 . S
O33 C26 1.185 . S
O33 Zn29 2.086 . S
C34 O30 1.278 . S
C34 O35 1.211 . S
O35 C34 1.211 . S
C36 O28 1.284 . S
C36 O37 1.273 . S
O37 C36 1.273 . S
O38 Zn29 1.977 . S
O38 C31 1.267 . S
C39 O40 1.160 . S
C39 O46 1.185 . S
O40 C39 1.160 . S
O41 Zn42 1.899 . S
O41 C49 1.284 . S
Zn42 O41 1.899 . S
Zn42 O43 2.032 . S
Zn42 O46 2.086 . S
Zn42 O51 1.977 . S
O43 Zn42 2.032 . S
O43 C47 1.278 . S
C44 O45 1.203 . S
C44 O51 1.267 . S
O45 C44 1.203 . S
O46 C39 1.185 . S
O46 Zn42 2.086 . S
C47 O43 1.278 . S
C47 O48 1.211 . S
O48 C47 1.211 . S
C49 O41 1.284 . S
C49 O50 1.273 1_556 S
O50 C49 1.273 1_554 S
O51 Zn42 1.977 . S
O51 C44 1.267 . S
C52 O53 1.160 . S
C52 O59 1.185 . S
O53 C52 1.160 . S
O54 Zn55 1.899 . S
O54 C62 1.284 . S
Zn55 O54 1.899 . S
Zn55 O56 2.032 . S
Zn55 O59 2.086 1_545 S
Zn55 O64 1.977 . S
O56 Zn55 2.032 . S
O56 C60 1.278 . S
C57 O58 1.203 . S
C57 O64 1.267 . S
O58 C57 1.203 . S
O59 C52 1.185 . S
O59 Zn55 2.086 1_565 S
C60 O56 1.278 . S
C60 O61 1.211 . S
O61 C60 1.211 . S
C62 O54 1.284 . S
C62 O63 1.273 . S
O63 C62 1.273 . S
O64 Zn55 1.977 . S
O64 C57 1.267 . S
C65 O66 1.160 . S
C65 O72 1.185 1_565 S
O66 C65 1.160 . S
O67 Zn68 1.899 . S
O67 C75 1.284 . S
Zn68 O67 1.899 . S
Zn68 O69 2.032 . S
Zn68 O72 2.086 1_565 S
Zn68 O77 1.977 . S
O69 Zn68 2.032 . S
O69 C73 1.278 . S
C70 O71 1.203 . S
C70 O77 1.267 . S
O71 C70 1.203 . S
O72 C65 1.185 1_545 S
O72 Zn68 2.086 1_545 S
C73 O69 1.278 . S
C73 O74 1.211 . S
O74 C73 1.211 . S
C75 O67 1.284 . S
C75 O76 1.273 . S
O76 C75 1.273 . S
O77 Zn68 1.977 . S
O77 C70 1.267 . S
C78 O79 1.160 . S
C78 O85 1.185 . S
O79 C78 1.160 . S
O80 Zn81 1.899 . S
O80 C88 1.284 . S
Zn81 O80 1.899 . S
Zn81 O82 2.032 . S
Zn81 O85 2.086 . S
Zn81 O90 1.977 1_545 S
O82 Zn81 2.032 . S
O82 C86 1.278 . S
C83 O84 1.203 . S
C83 O90 1.267 . S
O84 C83 1.203 . S
O85 C78 1.185 . S
O85 Zn81 2.086 . S
C86 O82 1.278 . S
C86 O87 1.211 1_545 S
O87 C86 1.211 1_565 S
C88 O80 1.284 . S
C88 O89 1.273 1_545 S
O89 C88 1.273 1_565 S
O90 Zn81 1.977 1_565 S
O90 C83 1.267 . S
C91 O92 1.160 . S
C91 O98 1.185 1_545 S
O92 C91 1.160 . S
O93 Zn94 1.899 . S
O93 C101 1.284 . S
Zn94 O93 1.899 . S
Zn94 O95 2.032 . S
Zn94 O98 2.086 1_545 S
Zn94 O103 1.977 . S
O95 Zn94 2.032 . S
O95 C99 1.278 1_554 S
C96 O97 1.203 . S
C96 O103 1.267 . S
O97 C96 1.203 . S
O98 C91 1.185 1_565 S
O98 Zn94 2.086 1_565 S
C99 O95 1.278 1_556 S
C99 O100 1.211 . S
O100 C99 1.211 . S
C101 O93 1.284 . S
C101 O102 1.273 . S
O102 C101 1.273 . S
O103 Zn94 1.977 . S
O103 C96 1.267 . S
C104 O105 1.160 . S
C104 O111 1.185 . S
O105 C104 1.160 . S
O106 Zn107 1.899 . S
O106 C114 1.284 . S
Zn107 O106 1.899 . S
Zn107 O108 2.032 . S
Zn107 O111 2.086 . S
Zn107 O116 1.977 . S
O108 Zn107 2.032 . S
O108 C112 1.278 . S
C109 O110 1.203 . S
C109 O116 1.267 . S
O110 C109 1.203 . S
O111 C104 1.185 . S
O111 Zn107 2.086 . S
C112 O108 1.278 . S
C112 O113 1.211 . S
O113 C112 1.211 . S
C114 O106 1.284 . S
C114 O115 1.273 . S
O115 C114 1.273 . S
O116 Zn107 1.977 . S
O116 C109 1.267 . S
C117 O118 1.160 . S
C117 O124 1.185 . S
O118 C117 1.160 . S
O119 Zn120 1.899 . S
O119 C127 1.284 . S
Zn120 O119 1.899 . S
Zn120 O121 2.032 . S
Zn120 O124 2.086 . S
Zn120 O129 1.977 . S
O121 Zn120 2.032 . S
O121 C125 1.278 . S
C122 O123 1.203 . S
C122 O129 1.267 . S
O123 C122 1.203 . S
O124 C117 1.185 . S
O124 Zn120 2.086 . S
C125 O121 1.278 . S
C125 O126 1.211 . S
O126 C125 1.211 . S
C127 O119 1.284 . S
C127 O128 1.273 . S
O128 C127 1.273 . S
O129 Zn120 1.977 . S
O129 C122 1.267 . S
C130 O131 1.160 1_655 S
C130 O137 1.185 . S
O131 C130 1.160 1_455 S
O132 Zn133 1.899 . S
O132 C140 1.284 . S
Zn133 O132 1.899 . S
Zn133 O134 2.032 . S
Zn133 O137 2.086 . S
Zn133 O142 1.977 . S
O134 Zn133 2.032 . S
O134 C138 1.278 . S
C135 O136 1.203 . S
C135 O142 1.267 . S
O136 C135 1.203 . S
O137 C130 1.185 . S
O137 Zn133 2.086 . S
C138 O134 1.278 . S
C138 O139 1.211 . S
O139 C138 1.211 . S
C140 O132 1.284 . S
C140 O141 1.273 . S
O141 C140 1.273 . S
O142 Zn133 1.977 . S
O142 C135 1.267 . S
C143 O144 1.160 . S
C143 O150 1.185 . S
O144 C143 1.160 . S
O145 Zn146 1.899 . S
O145 C153 1.284 . S
Zn146 O145 1.899 . S
Zn146 O147 2.032 . S
Zn146 O150 2.086 . S
Zn146 O155 1.977 . S
O147 Zn146 2.032 . S
O147 C151 1.278 . S
C148 O149 1.203 . S
C148 O155 1.267 . S
O149 C148 1.203 . S
O150 C143 1.185 . S
O150 Zn146 2.086 . S
C151 O147 1.278 . S
C151 O152 1.211 . S
O152 C151 1.211 . S
C153 O145 1.284 . S
C153 O154 1.273 . S
O154 C153 1.273 . S
O155 Zn146 1.977 . S
O155 C148 1.267 . S
C156 O157 1.160 . S
C156 O163 1.185 . S
O157 C156 1.160 . S
O158 Zn159 1.899 . S
O158 C166 1.284 1_455 S
Zn159 O158 1.899 . S
Zn159 O160 2.032 . S
Zn159 O163 2.086 . S
Zn159 O168 1.977 1_455 S
O160 Zn159 2.032 . S
O160 C164 1.278 1_455 S
C161 O162 1.203 . S
C161 O168 1.267 . S
O162 C161 1.203 . S
O163 C156 1.185 . S
O163 Zn159 2.086 . S
C164 O160 1.278 1_655 S
C164 O165 1.211 . S
O165 C164 1.211 . S
C166 O158 1.284 1_655 S
C166 O167 1.273 . S
O167 C166 1.273 . S
O168 Zn159 1.977 1_655 S
O168 C161 1.267 . S
C169 O170 1.160 . S
C169 O176 1.185 1_655 S
O170 C169 1.160 . S
O171 Zn172 1.899 . S
O171 C179 1.284 . S
Zn172 O171 1.899 . S
Zn172 O173 2.032 . S
Zn172 O176 2.086 . S
Zn172 O181 1.977 . S
O173 Zn172 2.032 . S
O173 C177 1.278 . S
C174 O175 1.203 . S
C174 O181 1.267 . S
O175 C174 1.203 . S
O176 C169 1.185 1_455 S
O176 Zn172 2.086 . S
C177 O173 1.278 . S
C177 O178 1.211 . S
O178 C177 1.211 . S
C179 O171 1.284 . S
C179 O180 1.273 . S
O180 C179 1.273 . S
O181 Zn172 1.977 . S
O181 C174 1.267 . S
C182 O183 1.160 . S
C182 O189 1.185 . S
O183 C182 1.160 . S
O184 Zn185 1.899 . S
O184 C192 1.284 . S
Zn185 O184 1.899 . S
Zn185 O186 2.032 . S
Zn185 O189 2.086 . S
Zn185 O194 1.977 . S
O186 Zn185 2.032 . S
O186 C190 1.278 . S
C187 O188 1.203 . S
C187 O194 1.267 . S
O188 C187 1.203 . S
O189 C182 1.185 . S
O189 Zn185 2.086 . S
C190 O186 1.278 . S
C190 O191 1.211 . S
O191 C190 1.211 . S
C192 O184 1.284 . S
C192 O193 1.273 . S
O193 C192 1.273 . S
O194 Zn185 1.977 . S
O194 C187 1.267 . S
C195 O196 1.160 . S
C195 O202 1.185 . S
O196 C195 1.160 . S
O197 Zn198 1.899 . S
O197 C205 1.284 . S
Zn198 O197 1.899 . S
Zn198 O199 2.032 . S
Zn198 O202 2.086 . S
Zn198 O207 1.977 . S
O199 Zn198 2.032 . S
O199 C203 1.278 . S
C200 O201 1.203 . S
C200 O207 1.267 . S
O201 C200 1.203 . S
O202 C195 1.185 . S
O202 Zn198 2.086 . S
C203 O199 1.278 . S
C203 O204 1.211 . S
O204 C203 1.211 . S
C205 O197 1.284 . S
C205 O206 1.273 . S
O206 C205 1.273 . S
O207 Zn198 1.977 . S
O207 C200 1.267 . S
C208 O209 1.160 . S
C208 O215 1.185 . S
O209 C208 1.160 . S
O210 Zn211 1.899 . S
O210 C218 1.284 1_545 S
Zn211 O210 1.899 . S
Zn211 O212 2.032 . S
Zn211 O215 2.086 . S
Zn211 O220 1.977 1_545 S
O212 Zn211 2.032 . S
O212 C216 1.278 1_545 S
C213 O214 1.203 . S
C213 O220 1.267 . S
O214 C213 1.203 . S
O215 C208 1.185 . S
O215 Zn211 2.086 . S
C216 O212 1.278 1_565 S
C216 O217 1.211 . S
O217 C216 1.211 . S
C218 O210 1.284 1_565 S
C218 O219 1.273 1_655 S
O219 C218 1.273 1_455 S
O220 Zn211 1.977 1_565 S
O220 C213 1.267 . S
C221 O222 1.160 . S
C221 O228 1.185 . S
O222 C221 1.160 . S
O223 Zn224 1.899 . S
O223 C231 1.284 . S
Zn224 O223 1.899 . S
Zn224 O225 2.032 . S
Zn224 O228 2.086 . S
Zn224 O233 1.977 . S
O225 Zn224 2.032 . S
O225 C229 1.278 . S
C226 O227 1.203 . S
C226 O233 1.267 . S
O227 C226 1.203 . S
O228 C221 1.185 . S
O228 Zn224 2.086 . S
C229 O225 1.278 . S
C229 O230 1.211 . S
O230 C229 1.211 . S
C231 O223 1.284 . S
C231 O232 1.273 . S
O232 C231 1.273 . S
O233 Zn224 1.977 . S
O233 C226 1.267 . S
C234 O235 1.160 . S
C234 O241 1.185 . S
O235 C234 1.160 . S
O236 Zn237 1.899 . S
O236 C244 1.284 . S
Zn237 O236 1.899 . S
Zn237 O238 2.032 1_545 S
Zn237 O241 2.086 1_545 S
Zn237 O246 1.977 . S
O238 Zn237 2.032 1_565 S
O238 C242 1.278 1_565 S
C239 O240 1.203 . S
C239 O246 1.267 . S
O240 C239 1.203 . S
O241 C234 1.185 . S
O241 Zn237 2.086 1_565 S
C242 O238 1.278 1_545 S
C242 O243 1.211 . S
O243 C242 1.211 . S
C244 O236 1.284 . S
C244 O245 1.273 . S
O245 C244 1.273 . S
O246 Zn237 1.977 . S
O246 C239 1.267 . S
C247 O248 1.160 1_545 S
C247 O254 1.185 . S
O248 C247 1.160 1_565 S
O249 Zn250 1.899 . S
O249 C257 1.284 . S
Zn250 O249 1.899 . S
Zn250 O251 2.032 1_554 S
Zn250 O254 2.086 1_565 S
Zn250 O259 1.977 1_565 S
O251 Zn250 2.032 1_556 S
O251 C255 1.278 . S
C252 O253 1.203 1_545 S
C252 O259 1.267 . S
O253 C252 1.203 1_565 S
O254 C247 1.185 . S
O254 Zn250 2.086 1_545 S
C255 O251 1.278 . S
C255 O256 1.211 . S
O256 C255 1.211 . S
C257 O249 1.284 . S
C257 O258 1.273 . S
O258 C257 1.273 . S
O259 Zn250 1.977 1_545 S
O259 C252 1.267 . S
C260 O261 1.160 . S
C260 O267 1.185 1_554 S
O261 C260 1.160 . S
O262 Zn263 1.899 . S
O262 C270 1.284 . S
Zn263 O262 1.899 . S
Zn263 O264 2.032 1_554 S
Zn263 O267 2.086 1_554 S
Zn263 O272 1.977 1_554 S
O264 Zn263 2.032 1_556 S
O264 C268 1.278 . S
C265 O266 1.203 . S
C265 O272 1.267 1_554 S
O266 C265 1.203 . S
O267 C260 1.185 1_556 S
O267 Zn263 2.086 1_556 S
C268 O264 1.278 . S
C268 O269 1.211 . S
O269 C268 1.211 . S
C270 O262 1.284 . S
C270 O271 1.273 . S
O271 C270 1.273 . S
O272 Zn263 1.977 1_556 S
O272 C265 1.267 1_556 S
C273 O274 1.160 . S
C273 O280 1.185 . S
O274 C273 1.160 . S
O275 Zn276 1.899 . S
O275 C283 1.284 . S
Zn276 O275 1.899 . S
Zn276 O277 2.032 . S
Zn276 O280 2.086 . S
Zn276 O285 1.977 . S
O277 Zn276 2.032 . S
O277 C281 1.278 . S
C278 O279 1.203 . S
C278 O285 1.267 . S
O279 C278 1.203 . S
O280 C273 1.185 . S
O280 Zn276 2.086 . S
C281 O277 1.278 . S
C281 O282 1.211 . S
O282 C281 1.211 . S
C283 O275 1.284 . S
C283 O284 1.273 . S
O284 C283 1.273 . S
O285 Zn276 1.977 . S
O285 C278 1.267 . S
C286 O287 1.160 . S
C286 O293 1.185 . S
O287 C286 1.160 . S
O288 Zn289 1.899 . S
O288 C296 1.284 . S
Zn289 O288 1.899 . S
Zn289 O290 2.032 . S
Zn289 O293 2.086 . S
Zn289 O298 1.977 . S
O290 Zn289 2.032 . S
O290 C294 1.278 . S
C291 O292 1.203 . S
C291 O298 1.267 . S
O292 C291 1.203 . S
O293 C286 1.185 . S
O293 Zn289 2.086 . S
C294 O290 1.278 . S
C294 O295 1.211 . S
O295 C294 1.211 . S
C296 O288 1.284 . S
C296 O297 1.273 . S
O297 C296 1.273 . S
O298 Zn289 1.977 . S
O298 C291 1.267 . S
C299 O300 1.160 . S
C299 O306 1.185 . S
O300 C299 1.160 . S
O301 Zn302 1.899 . S
O301 C309 1.284 . S
Zn302 O301 1.899 . S
Zn302 O303 2.032 . S
Zn302 O306 2.086 . S
Zn302 O311 1.977 . S
O303 Zn302 2.032 . S
O303 C307 1.278 . S
C304 O305 1.203 . S
C304 O311 1.267 . S
O305 C304 1.203 . S
O306 C299 1.185 . S
O306 Zn302 2.086 . S
C307 O303 1.278 . S
C307 O308 1.211 . S
O308 C307 1.211 . S
C309 O301 1.284 . S
C309 O310 1.273 . S
O310 C309 1.273 . S
O311 Zn302 1.977 . S
O311 C304 1.267 . S
C312 O328 1.251 1_556 S
C312 O330 1.254 . S
N313 C314 1.333 . S
N313 C318 1.307 1_545 S
N313 Zn319 2.020 1_655 S
C314 N313 1.333 . S
C314 C315 1.379 . S
C314 H332 0.952 . S
C315 C314 1.379 . S
C315 C316 1.381 1_545 S
C315 H342 0.949 . S
C316 C315 1.381 1_565 S
C316 C317 1.366 . S
C317 C316 1.366 . S
C317 C318 1.370 . S
C317 H343 0.950 . S
C318 N313 1.307 1_565 S
C318 C317 1.370 . S
C318 H336 0.948 . S
Zn319 N313 2.020 1_455 S
Zn319 O328 2.039 . S
Zn319 O334 2.034 . S
Zn319 O338 2.025 1_545 S
Zn319 O340 2.024 1_545 S
C320 O339 1.246 . S
C320 O340 1.249 . S
N321 C322 1.307 1_554 S
N321 C323 1.333 . S
N321 Zn327 2.020 . S
C322 N321 1.307 1_556 S
C322 C326 1.370 . S
C322 H333 0.948 . S
C323 N321 1.333 . S
C323 C324 1.379 . S
C323 H331 0.952 1_545 S
C324 C323 1.379 . S
C324 C325 1.390 . S
C324 H344 0.949 1_545 S
C325 C324 1.390 . S
C325 C326 1.357 1_554 S
C326 C322 1.370 . S
C326 C325 1.357 1_556 S
C326 H345 0.950 . S
Zn327 N321 2.020 . S
Zn327 O330 2.025 1_554 S
Zn327 O335 2.024 . S
Zn327 O337 2.039 1_545 S
Zn327 O339 2.034 1_545 S
O328 C312 1.251 1_554 S
O328 Zn319 2.039 . S
C329 O334 1.246 . S
C329 O335 1.249 . S
O330 C312 1.254 . S
O330 Zn327 2.025 1_556 S
H331 C323 0.952 1_565 S
H332 C314 0.952 . S
H333 C322 0.948 . S
O334 Zn319 2.034 . S
O334 C329 1.246 . S
O335 Zn327 2.024 . S
O335 C329 1.249 . S
H336 C318 0.948 . S
O337 Zn327 2.039 1_565 S
O337 C341 1.251 . S
O338 Zn319 2.025 1_565 S
O338 C341 1.254 . S
O339 C320 1.246 . S
O339 Zn327 2.034 1_565 S
O340 Zn319 2.024 1_565 S
O340 C320 1.249 . S
C341 O337 1.251 . S
C341 O338 1.254 . S
H342 C315 0.949 . S
H343 C317 0.950 . S
H344 C324 0.949 1_565 S
H345 C326 0.950 . S
C346 O362 1.251 . S
C346 O364 1.254 . S
N347 C348 1.333 . S
N347 C352 1.307 . S
N347 Zn353 2.020 . S
C348 N347 1.333 . S
C348 C349 1.379 . S
C348 H366 0.952 . S
C349 C348 1.379 . S
C349 C350 1.390 . S
C349 H376 0.949 . S
C350 C349 1.390 . S
C350 C351 1.357 . S
C351 C350 1.357 . S
C351 C352 1.370 . S
C351 H377 0.950 . S
C352 N347 1.307 . S
C352 C351 1.370 . S
C352 H370 0.948 . S
Zn353 N347 2.020 . S
Zn353 O362 2.039 . S
Zn353 O368 2.034 . S
Zn353 O372 2.025 . S
Zn353 O374 2.024 . S
C354 O373 1.246 . S
C354 O374 1.249 . S
N355 C356 1.307 . S
N355 C357 1.333 . S
N355 Zn361 2.020 . S
C356 N355 1.307 . S
C356 C360 1.370 . S
C356 H367 0.948 . S
C357 N355 1.333 . S
C357 C358 1.379 . S
C357 H365 0.952 . S
C358 C357 1.379 . S
C358 C359 1.390 . S
C358 H378 0.949 . S
C359 C358 1.390 . S
C359 C360 1.357 . S
C360 C356 1.370 . S
C360 C359 1.357 . S
C360 H379 0.950 . S
Zn361 N355 2.020 . S
Zn361 O364 2.025 . S
Zn361 O369 2.024 . S
Zn361 O371 2.039 . S
Zn361 O373 2.034 . S
O362 C346 1.251 . S
O362 Zn353 2.039 . S
C363 O368 1.246 . S
C363 O369 1.249 . S
O364 C346 1.254 . S
O364 Zn361 2.025 . S
H365 C357 0.952 . S
H366 C348 0.952 . S
H367 C356 0.948 . S
O368 Zn353 2.034 . S
O368 C363 1.246 . S
O369 Zn361 2.024 . S
O369 C363 1.249 . S
H370 C352 0.948 . S
O371 Zn361 2.039 . S
O371 C375 1.251 . S
O372 Zn353 2.025 . S
O372 C375 1.254 . S
O373 C354 1.246 . S
O373 Zn361 2.034 . S
O374 Zn353 2.024 . S
O374 C354 1.249 . S
C375 O371 1.251 . S
C375 O372 1.254 . S
H376 C349 0.949 . S
H377 C351 0.950 . S
H378 C358 0.949 . S
H379 C360 0.950 . S
C380 O396 1.251 1_545 S
C380 O398 1.254 . S
N381 C382 1.333 . S
N381 C386 1.307 . S
N381 Zn387 2.020 . S
C382 N381 1.333 . S
C382 C383 1.379 . S
C382 H400 0.952 . S
C383 C382 1.379 . S
C383 C384 1.390 . S
C383 H410 0.949 . S
C384 C383 1.390 . S
C384 C385 1.357 . S
C385 C384 1.357 . S
C385 C386 1.370 . S
C385 H411 0.950 . S
C386 N381 1.307 . S
C386 C385 1.370 . S
C386 H404 0.948 . S
Zn387 N381 2.020 . S
Zn387 O396 2.039 . S
Zn387 O402 2.034 1_565 S
Zn387 O406 2.025 . S
Zn387 O408 2.024 . S
C388 O407 1.246 1_565 S
C388 O408 1.249 . S
N389 C390 1.307 . S
N389 C391 1.333 . S
N389 Zn395 2.020 . S
C390 N389 1.307 . S
C390 C394 1.370 . S
C390 H401 0.948 . S
C391 N389 1.333 . S
C391 C392 1.379 . S
C391 H399 0.952 . S
C392 C391 1.379 . S
C392 C393 1.390 . S
C392 H412 0.949 . S
C393 C392 1.390 . S
C393 C394 1.357 . S
C394 C390 1.370 . S
C394 C393 1.357 . S
C394 H413 0.950 . S
Zn395 N389 2.020 . S
Zn395 O398 2.025 . S
Zn395 O403 2.024 . S
Zn395 O405 2.039 . S
Zn395 O407 2.034 . S
O396 C380 1.251 1_565 S
O396 Zn387 2.039 . S
C397 O402 1.246 . S
C397 O403 1.249 . S
O398 C380 1.254 . S
O398 Zn395 2.025 . S
H399 C391 0.952 . S
H400 C382 0.952 . S
H401 C390 0.948 . S
O402 Zn387 2.034 1_545 S
O402 C397 1.246 . S
O403 Zn395 2.024 . S
O403 C397 1.249 . S
H404 C386 0.948 . S
O405 Zn395 2.039 . S
O405 C409 1.251 1_545 S
O406 Zn387 2.025 . S
O406 C409 1.254 . S
O407 C388 1.246 1_545 S
O407 Zn395 2.034 . S
O408 Zn387 2.024 . S
O408 C388 1.249 . S
C409 O405 1.251 1_565 S
C409 O406 1.254 . S
H410 C383 0.949 . S
H411 C385 0.950 . S
H412 C392 0.949 . S
H413 C394 0.950 . S
C414 O430 1.251 . S
C414 O432 1.254 . S
N415 C416 1.333 . S
N415 C420 1.307 . S
N415 Zn421 2.020 . S
C416 N415 1.333 . S
C416 C417 1.379 . S
C416 H434 0.952 . S
C417 C416 1.379 . S
C417 C418 1.390 . S
C417 H444 0.949 . S
C418 C417 1.390 . S
C418 C419 1.357 . S
C419 C418 1.357 . S
C419 C420 1.370 . S
C419 H445 0.950 1_556 S
C420 N415 1.307 . S
C420 C419 1.370 . S
C420 H438 0.948 . S
Zn421 N415 2.020 . S
Zn421 O430 2.039 . S
Zn421 O436 2.034 . S
Zn421 O440 2.025 . S
Zn421 O442 2.024 . S
C422 O441 1.246 . S
C422 O442 1.249 . S
N423 C424 1.307 . S
N423 C425 1.333 . S
N423 Zn429 2.020 . S
C424 N423 1.307 . S
C424 C428 1.370 . S
C424 H435 0.948 . S
C425 N423 1.333 . S
C425 C426 1.379 . S
C425 H433 0.952 . S
C426 C425 1.379 . S
C426 C427 1.390 . S
C426 H446 0.949 . S
C427 C426 1.390 . S
C427 C428 1.357 . S
C428 C424 1.370 . S
C428 C427 1.357 . S
C428 H447 0.950 . S
Zn429 N423 2.020 . S
Zn429 O432 2.025 . S
Zn429 O437 2.024 . S
Zn429 O439 2.039 . S
Zn429 O441 2.034 . S
O430 C414 1.251 . S
O430 Zn421 2.039 . S
C431 O436 1.246 . S
C431 O437 1.249 . S
O432 C414 1.254 . S
O432 Zn429 2.025 . S
H433 C425 0.952 . S
H434 C416 0.952 . S
H435 C424 0.948 . S
O436 Zn421 2.034 . S
O436 C431 1.246 . S
O437 Zn429 2.024 . S
O437 C431 1.249 . S
H438 C420 0.948 . S
O439 Zn429 2.039 . S
O439 C443 1.251 . S
O440 Zn421 2.025 . S
O440 C443 1.254 . S
O441 C422 1.246 . S
O441 Zn429 2.034 . S
O442 Zn421 2.024 . S
O442 C422 1.249 . S
C443 O439 1.251 . S
C443 O440 1.254 . S
H444 C417 0.949 . S
H445 C419 0.950 1_554 S
H446 C426 0.949 . S
H447 C428 0.950 . S
C448 O464 1.251 1_565 S
C448 O466 1.254 . S
N449 C450 1.333 . S
N449 C454 1.307 . S
N449 Zn455 2.020 . S
C450 N449 1.333 . S
C450 C451 1.379 . S
C450 H468 0.952 . S
C451 C450 1.379 . S
C451 C452 1.390 . S
C451 H478 0.949 . S
C452 C451 1.390 . S
C452 C453 1.357 . S
C453 C452 1.357 . S
C453 C454 1.370 . S
C453 H479 0.950 . S
C454 N449 1.307 . S
C454 C453 1.370 . S
C454 H472 0.948 . S
Zn455 N449 2.020 . S
Zn455 O464 2.039 . S
Zn455 O470 2.034 . S
Zn455 O474 2.025 . S
Zn455 O476 2.024 1_545 S
C456 O475 1.246 . S
C456 O476 1.249 . S
N457 C458 1.307 . S
N457 C459 1.333 1_455 S
N457 Zn463 2.020 1_565 S
C458 N457 1.307 . S
C458 C462 1.370 . S
C458 H469 0.948 . S
C459 N457 1.333 1_655 S
C459 C460 1.379 . S
C459 H467 0.952 . S
C460 C459 1.379 . S
C460 C461 1.390 . S
C460 H480 0.949 . S
C461 C460 1.390 . S
C461 C462 1.357 1_655 S
C462 C458 1.370 . S
C462 C461 1.357 1_455 S
C462 H481 0.950 . S
Zn463 N457 2.020 1_545 S
Zn463 O466 2.025 1_545 S
Zn463 O471 2.024 . S
Zn463 O473 2.039 1_455 S
Zn463 O475 2.034 1_545 S
O464 C448 1.251 1_545 S
O464 Zn455 2.039 . S
C465 O470 1.246 . S
C465 O471 1.249 . S
O466 C448 1.254 . S
O466 Zn463 2.025 1_565 S
H467 C459 0.952 . S
H468 C450 0.952 . S
H469 C458 0.948 . S
O470 Zn455 2.034 . S
O470 C465 1.246 . S
O471 Zn463 2.024 . S
O471 C465 1.249 . S
H472 C454 0.948 . S
O473 Zn463 2.039 1_655 S
O473 C477 1.251 . S
O474 Zn455 2.025 . S
O474 C477 1.254 1_455 S
O475 C456 1.246 . S
O475 Zn463 2.034 1_565 S
O476 Zn455 2.024 1_565 S
O476 C456 1.249 . S
C477 O473 1.251 . S
C477 O474 1.254 1_655 S
H478 C451 0.949 . S
H479 C453 0.950 . S
H480 C460 0.949 . S
H481 C462 0.950 . S
C482 O498 1.251 . S
C482 O500 1.254 . S
N483 C484 1.333 . S
N483 C488 1.307 . S
N483 Zn489 2.020 . S
C484 N483 1.333 . S
C484 C485 1.379 . S
C484 H502 0.952 . S
C485 C484 1.379 . S
C485 C486 1.390 . S
C485 H512 0.949 . S
C486 C485 1.390 . S
C486 C487 1.357 . S
C487 C486 1.357 . S
C487 C488 1.370 . S
C487 H513 0.950 . S
C488 N483 1.307 . S
C488 C487 1.370 . S
C488 H506 0.948 . S
Zn489 N483 2.020 . S
Zn489 O498 2.039 . S
Zn489 O504 2.034 . S
Zn489 O508 2.025 . S
Zn489 O510 2.024 . S
C490 O509 1.246 . S
C490 O510 1.249 . S
N491 C492 1.307 . S
N491 C493 1.333 . S
N491 Zn497 2.020 . S
C492 N491 1.307 . S
C492 C496 1.370 . S
C492 H503 0.948 . S
C493 N491 1.333 . S
C493 C494 1.379 . S
C493 H501 0.952 . S
C494 C493 1.379 . S
C494 C495 1.390 . S
C494 H514 0.949 . S
C495 C494 1.390 . S
C495 C496 1.357 . S
C496 C492 1.370 . S
C496 C495 1.357 . S
C496 H515 0.950 . S
Zn497 N491 2.020 . S
Zn497 O500 2.025 . S
Zn497 O505 2.024 . S
Zn497 O507 2.039 . S
Zn497 O509 2.034 . S
O498 C482 1.251 . S
O498 Zn489 2.039 . S
C499 O504 1.246 . S
C499 O505 1.249 . S
O500 C482 1.254 . S
O500 Zn497 2.025 . S
H501 C493 0.952 . S
H502 C484 0.952 . S
H503 C492 0.948 . S
O504 Zn489 2.034 . S
O504 C499 1.246 . S
O505 Zn497 2.024 . S
O505 C499 1.249 . S
H506 C488 0.948 . S
O507 Zn497 2.039 . S
O507 C511 1.251 . S
O508 Zn489 2.025 . S
O508 C511 1.254 . S
O509 C490 1.246 . S
O509 Zn497 2.034 . S
O510 Zn489 2.024 . S
O510 C490 1.249 . S
C511 O507 1.251 . S
C511 O508 1.254 . S
H512 C485 0.949 . S
H513 C487 0.950 . S
H514 C494 0.949 . S
H515 C496 0.950 . S
C516 O532 1.251 . S
C516 O534 1.254 . S
N517 C518 1.333 . S
N517 C522 1.307 . S
N517 Zn523 2.020 . S
C518 N517 1.333 . S
C518 C519 1.379 . S
C518 H536 0.952 . S
C519 C518 1.379 . S
C519 C520 1.390 . S
C519 H546 0.949 . S
C520 C519 1.390 . S
C520 C521 1.357 . S
C521 C520 1.357 . S
C521 C522 1.370 . S
C521 H547 0.950 . S
C522 N517 1.307 . S
C522 C521 1.370 . S
C522 H540 0.948 . S
Zn523 N517 2.020 . S
Zn523 O532 2.039 1_545 S
Zn523 O538 2.034 . S
Zn523 O542 2.025 . S
Zn523 O544 2.024 . S
C524 O543 1.246 . S
C524 O544 1.249 1_565 S
N525 C526 1.307 . S
N525 C527 1.333 1_565 S
N525 Zn531 2.020 1_566 S
C526 N525 1.307 . S
C526 C530 1.370 . S
C526 H537 0.948 . S
C527 N525 1.333 1_545 S
C527 C528 1.383 . S
C527 H535 0.952 . S
C528 C527 1.383 . S
C528 C529 1.376 1_545 S
C528 H548 0.959 . S
C529 C528 1.376 1_565 S
C529 C530 1.357 . S
C530 C526 1.370 . S
C530 C529 1.357 . S
C530 H549 0.950 . S
Zn531 N525 2.020 1_544 S
Zn531 O534 2.025 1_545 S
Zn531 O539 2.024 . S
Zn531 O541 2.039 1_554 S
Zn531 O543 2.034 1_545 S
O532 C516 1.251 . S
O532 Zn523 2.039 1_565 S
C533 O538 1.246 . S
C533 O539 1.249 . S
O534 C516 1.254 . S
O534 Zn531 2.025 1_565 S
H535 C527 0.952 . S
H536 C518 0.952 . S
H537 C526 0.948 . S
O538 Zn523 2.034 . S
O538 C533 1.246 . S
O539 Zn531 2.024 . S
O539 C533 1.249 . S
H540 C522 0.948 . S
O541 Zn531 2.039 1_556 S
O541 C545 1.251 1_556 S
O542 Zn523 2.025 . S
O542 C545 1.254 . S
O543 C524 1.246 . S
O543 Zn531 2.034 1_565 S
O544 Zn523 2.024 . S
O544 C524 1.249 1_545 S
C545 O541 1.251 1_554 S
C545 O542 1.254 . S
H546 C519 0.949 . S
H547 C521 0.950 . S
H548 C528 0.959 . S
H549 C530 0.950 . S
C550 O566 1.251 . S
C550 O568 1.254 . S
N551 C552 1.333 . S
N551 C556 1.307 . S
N551 Zn557 2.020 . S
C552 N551 1.333 . S
C552 C553 1.379 . S
C552 H570 0.952 . S
C553 C552 1.379 . S
C553 C554 1.390 . S
C553 H580 0.949 . S
C554 C553 1.390 . S
C554 C555 1.357 . S
C555 C554 1.357 . S
C555 C556 1.370 . S
C555 H581 0.950 . S
C556 N551 1.307 . S
C556 C555 1.370 . S
C556 H574 0.948 . S
Zn557 N551 2.020 . S
Zn557 O566 2.039 . S
Zn557 O572 2.034 . S
Zn557 O576 2.025 . S
Zn557 O578 2.024 . S
C558 O577 1.246 . S
C558 O578 1.249 . S
N559 C560 1.307 . S
N559 C561 1.333 . S
N559 Zn565 2.020 . S
C560 N559 1.307 . S
C560 C564 1.370 . S
C560 H571 0.948 . S
C561 N559 1.333 . S
C561 C562 1.379 . S
C561 H569 0.952 . S
C562 C561 1.379 . S
C562 C563 1.390 . S
C562 H582 0.949 . S
C563 C562 1.390 . S
C563 C564 1.357 . S
C564 C560 1.370 . S
C564 C563 1.357 . S
C564 H583 0.950 . S
Zn565 N559 2.020 . S
Zn565 O568 2.025 . S
Zn565 O573 2.024 . S
Zn565 O575 2.039 . S
Zn565 O577 2.034 . S
O566 C550 1.251 . S
O566 Zn557 2.039 . S
C567 O572 1.246 . S
C567 O573 1.249 . S
O568 C550 1.254 . S
O568 Zn565 2.025 . S
H569 C561 0.952 . S
H570 C552 0.952 . S
H571 C560 0.948 . S
O572 Zn557 2.034 . S
O572 C567 1.246 . S
O573 Zn565 2.024 . S
O573 C567 1.249 . S
H574 C556 0.948 . S
O575 Zn565 2.039 . S
O575 C579 1.251 . S
O576 Zn557 2.025 . S
O576 C579 1.254 . S
O577 C558 1.246 . S
O577 Zn565 2.034 . S
O578 Zn557 2.024 . S
O578 C558 1.249 . S
C579 O575 1.251 . S
C579 O576 1.254 . S
H580 C553 0.949 . S
H581 C555 0.950 . S
H582 C562 0.949 . S
H583 C564 0.950 . S
C584 O600 1.251 . S
C584 O602 1.254 . S
N585 C586 1.333 . S
N585 C590 1.307 . S
N585 Zn591 2.020 1_556 S
C586 N585 1.333 . S
C586 C587 1.379 . S
C586 H604 0.952 . S
C587 C586 1.379 . S
C587 C588 1.390 . S
C587 H614 0.949 . S
C588 C587 1.390 . S
C588 C589 1.357 . S
C589 C588 1.357 . S
C589 C590 1.370 . S
C589 H615 0.950 . S
C590 N585 1.307 . S
C590 C589 1.370 . S
C590 H608 0.948 . S
Zn591 N585 2.020 1_554 S
Zn591 O600 2.039 . S
Zn591 O606 2.034 . S
Zn591 O610 2.025 1_554 S
Zn591 O612 2.024 1_554 S
C592 O611 1.246 . S
C592 O612 1.249 1_554 S
N593 C594 1.307 . S
N593 C595 1.333 . S
N593 Zn599 2.020 . S
C594 N593 1.307 . S
C594 C598 1.370 . S
C594 H605 0.948 . S
C595 N593 1.333 . S
C595 C596 1.379 . S
C595 H603 0.952 . S
C596 C595 1.379 . S
C596 C597 1.390 . S
C596 H616 0.949 . S
C597 C596 1.390 . S
C597 C598 1.357 . S
C598 C594 1.370 . S
C598 C597 1.357 . S
C598 H617 0.950 . S
Zn599 N593 2.020 . S
Zn599 O602 2.025 . S
Zn599 O607 2.024 . S
Zn599 O609 2.039 . S
Zn599 O611 2.034 . S
O600 C584 1.251 . S
O600 Zn591 2.039 . S
C601 O606 1.246 . S
C601 O607 1.249 . S
O602 C584 1.254 . S
O602 Zn599 2.025 . S
H603 C595 0.952 . S
H604 C586 0.952 . S
H605 C594 0.948 . S
O606 Zn591 2.034 . S
O606 C601 1.246 . S
O607 Zn599 2.024 . S
O607 C601 1.249 . S
H608 C590 0.948 . S
O609 Zn599 2.039 . S
O609 C613 1.251 . S
O610 Zn591 2.025 1_556 S
O610 C613 1.254 1_556 S
O611 C592 1.246 . S
O611 Zn599 2.034 . S
O612 Zn591 2.024 1_556 S
O612 C592 1.249 1_556 S
C613 O609 1.251 . S
C613 O610 1.254 1_554 S
H614 C587 0.949 . S
H615 C589 0.950 . S
H616 C596 0.949 . S
H617 C598 0.950 . S
C618 O634 1.251 . S
C618 O636 1.254 . S
N619 C620 1.333 . S
N619 C624 1.307 . S
N619 Zn625 2.020 . S
C620 N619 1.333 . S
C620 C621 1.379 . S
C620 H638 0.952 . S
C621 C620 1.379 . S
C621 C622 1.390 1_655 S
C621 H648 0.949 . S
C622 C621 1.390 1_455 S
C622 C623 1.357 . S
C623 C622 1.357 . S
C623 C624 1.370 1_455 S
C623 H649 0.950 . S
C624 N619 1.307 . S
C624 C623 1.370 1_655 S
C624 H642 0.948 . S
Zn625 N619 2.020 . S
Zn625 O634 2.039 . S
Zn625 O640 2.034 . S
Zn625 O644 2.025 . S
Zn625 O646 2.024 . S
C626 O645 1.246 . S
C626 O646 1.249 . S
N627 C628 1.307 . S
N627 C629 1.333 . S
N627 Zn633 2.020 . S
C628 N627 1.307 . S
C628 C632 1.370 . S
C628 H639 0.948 . S
C629 N627 1.333 . S
C629 C630 1.379 . S
C629 H637 0.952 . S
C630 C629 1.379 . S
C630 C631 1.390 . S
C630 H650 0.949 . S
C631 C630 1.390 . S
C631 C632 1.357 . S
C632 C628 1.370 . S
C632 C631 1.357 . S
C632 H651 0.950 . S
Zn633 N627 2.020 . S
Zn633 O636 2.025 . S
Zn633 O641 2.024 . S
Zn633 O643 2.039 . S
Zn633 O645 2.034 . S
O634 C618 1.251 . S
O634 Zn625 2.039 . S
C635 O640 1.246 . S
C635 O641 1.249 . S
O636 C618 1.254 . S
O636 Zn633 2.025 . S
H637 C629 0.952 . S
H638 C620 0.952 . S
H639 C628 0.948 . S
O640 Zn625 2.034 . S
O640 C635 1.246 . S
O641 Zn633 2.024 . S
O641 C635 1.249 . S
H642 C624 0.948 . S
O643 Zn633 2.039 . S
O643 C647 1.251 . S
O644 Zn625 2.025 . S
O644 C647 1.254 . S
O645 C626 1.246 . S
O645 Zn633 2.034 . S
O646 Zn625 2.024 . S
O646 C626 1.249 . S
C647 O643 1.251 . S
C647 O644 1.254 . S
H648 C621 0.949 . S
H649 C623 0.950 . S
H650 C630 0.949 . S
H651 C632 0.950 . S
C652 O668 1.251 . S
C652 O670 1.254 . S
N653 C654 1.333 . S
N653 C658 1.307 . S
N653 Zn659 2.020 . S
C654 N653 1.333 . S
C654 C655 1.379 . S
C654 H672 0.952 . S
C655 C654 1.379 . S
C655 C656 1.390 . S
C655 H682 0.949 . S
C656 C655 1.390 . S
C656 C657 1.357 . S
C657 C656 1.357 . S
C657 C658 1.370 . S
C657 H683 0.950 . S
C658 N653 1.307 . S
C658 C657 1.370 . S
C658 H676 0.948 . S
Zn659 N653 2.020 . S
Zn659 O668 2.039 . S
Zn659 O674 2.034 . S
Zn659 O678 2.025 . S
Zn659 O680 2.024 . S
C660 O679 1.246 . S
C660 O680 1.249 . S
N661 C662 1.307 1_455 S
N661 C663 1.333 . S
N661 Zn667 2.020 . S
C662 N661 1.307 1_655 S
C662 C666 1.370 . S
C662 H673 0.948 . S
C663 N661 1.333 . S
C663 C664 1.379 . S
C663 H671 0.952 . S
C664 C663 1.379 . S
C664 C665 1.390 1_455 S
C664 H684 0.949 . S
C665 C664 1.390 1_655 S
C665 C666 1.357 . S
C666 C662 1.370 . S
C666 C665 1.357 . S
C666 H685 0.950 . S
Zn667 N661 2.020 . S
Zn667 O670 2.025 . S
Zn667 O675 2.024 1_455 S
Zn667 O677 2.039 . S
Zn667 O679 2.034 . S
O668 C652 1.251 . S
O668 Zn659 2.039 . S
C669 O674 1.246 1_655 S
C669 O675 1.249 . S
O670 C652 1.254 . S
O670 Zn667 2.025 . S
H671 C663 0.952 . S
H672 C654 0.952 . S
H673 C662 0.948 . S
O674 Zn659 2.034 . S
O674 C669 1.246 1_455 S
O675 Zn667 2.024 1_655 S
O675 C669 1.249 . S
H676 C658 0.948 . S
O677 Zn667 2.039 . S
O677 C681 1.251 . S
O678 Zn659 2.025 . S
O678 C681 1.254 . S
O679 C660 1.246 . S
O679 Zn667 2.034 . S
O680 Zn659 2.024 . S
O680 C660 1.249 . S
C681 O677 1.251 . S
C681 O678 1.254 . S
H682 C655 0.949 . S
H683 C657 0.950 . S
H684 C664 0.949 . S
H685 C666 0.950 . S
C686 O702 1.251 . S
C686 O704 1.254 . S
N687 C688 1.333 . S
N687 C692 1.307 . S
N687 Zn693 2.020 . S
C688 N687 1.333 . S
C688 C689 1.379 . S
C688 H706 0.952 . S
C689 C688 1.379 . S
C689 C690 1.390 . S
C689 H716 0.949 . S
C690 C689 1.390 . S
C690 C691 1.357 . S
C691 C690 1.357 . S
C691 C692 1.370 . S
C691 H717 0.950 . S
C692 N687 1.307 . S
C692 C691 1.370 . S
C692 H710 0.948 . S
Zn693 N687 2.020 . S
Zn693 O702 2.039 . S
Zn693 O708 2.034 . S
Zn693 O712 2.025 . S
Zn693 O714 2.024 . S
C694 O713 1.246 . S
C694 O714 1.249 . S
N695 C696 1.307 . S
N695 C697 1.333 . S
N695 Zn701 2.020 . S
C696 N695 1.307 . S
C696 C700 1.370 . S
C696 H707 0.948 . S
C697 N695 1.333 . S
C697 C698 1.379 . S
C697 H705 0.952 . S
C698 C697 1.379 . S
C698 C699 1.390 . S
C698 H718 0.949 . S
C699 C698 1.390 . S
C699 C700 1.357 . S
C700 C696 1.370 . S
C700 C699 1.357 . S
C700 H719 0.950 . S
Zn701 N695 2.020 . S
Zn701 O704 2.025 . S
Zn701 O709 2.024 . S
Zn701 O711 2.039 . S
Zn701 O713 2.034 . S
O702 C686 1.251 . S
O702 Zn693 2.039 . S
C703 O708 1.246 . S
C703 O709 1.249 . S
O704 C686 1.254 . S
O704 Zn701 2.025 . S
H705 C697 0.952 . S
H706 C688 0.952 . S
H707 C696 0.948 . S
O708 Zn693 2.034 . S
O708 C703 1.246 . S
O709 Zn701 2.024 . S
O709 C703 1.249 . S
H710 C692 0.948 . S
O711 Zn701 2.039 . S
O711 C715 1.251 . S
O712 Zn693 2.025 . S
O712 C715 1.254 . S
O713 C694 1.246 . S
O713 Zn701 2.034 . S
O714 Zn693 2.024 . S
O714 C694 1.249 . S
C715 O711 1.251 . S
C715 O712 1.254 . S
H716 C689 0.949 . S
H717 C691 0.950 . S
H718 C698 0.949 . S
H719 C700 0.950 . S
C720 O736 1.251 . S
C720 O738 1.254 . S
N721 C722 1.333 . S
N721 C726 1.307 . S
N721 Zn727 2.020 . S
C722 N721 1.333 . S
C722 C723 1.379 . S
C722 H740 0.952 . S
C723 C722 1.379 . S
C723 C724 1.390 . S
C723 H750 0.949 . S
C724 C723 1.390 . S
C724 C725 1.357 . S
C725 C724 1.357 . S
C725 C726 1.370 . S
C725 H751 0.950 . S
C726 N721 1.307 . S
C726 C725 1.370 . S
C726 H744 0.948 . S
Zn727 N721 2.020 . S
Zn727 O736 2.039 . S
Zn727 O742 2.034 . S
Zn727 O746 2.025 . S
Zn727 O748 2.024 . S
C728 O747 1.246 . S
C728 O748 1.249 . S
N729 C730 1.307 . S
N729 C731 1.333 . S
N729 Zn735 2.020 . S
C730 N729 1.307 . S
C730 C734 1.370 . S
C730 H741 0.948 . S
C731 N729 1.333 . S
C731 C732 1.379 . S
C731 H739 0.952 . S
C732 C731 1.379 . S
C732 C733 1.389 1_556 S
C732 H752 0.949 1_556 S
C733 C732 1.389 1_554 S
C733 C734 1.350 1_554 S
C734 C730 1.370 . S
C734 C733 1.350 1_556 S
C734 H753 0.950 . S
Zn735 N729 2.020 . S
Zn735 O738 2.025 . S
Zn735 O743 2.024 . S
Zn735 O745 2.039 . S
Zn735 O747 2.034 . S
O736 C720 1.251 . S
O736 Zn727 2.039 . S
C737 O742 1.246 . S
C737 O743 1.249 . S
O738 C720 1.254 . S
O738 Zn735 2.025 . S
H739 C731 0.952 . S
H740 C722 0.952 . S
H741 C730 0.948 . S
O742 Zn727 2.034 . S
O742 C737 1.246 . S
O743 Zn735 2.024 . S
O743 C737 1.249 . S
H744 C726 0.948 . S
O745 Zn735 2.039 . S
O745 C749 1.251 . S
O746 Zn727 2.025 . S
O746 C749 1.254 . S
O747 C728 1.246 . S
O747 Zn735 2.034 . S
O748 Zn727 2.024 . S
O748 C728 1.249 . S
C749 O745 1.251 . S
C749 O746 1.254 . S
H750 C723 0.949 . S
H751 C725 0.950 . S
H752 C732 0.949 1_554 S
H753 C734 0.950 . S
C754 O770 1.251 . S
C754 O772 1.254 . S
N755 C756 1.333 . S
N755 C760 1.307 . S
N755 Zn761 2.020 . S
C756 N755 1.333 . S
C756 C757 1.379 . S
C756 H774 0.952 . S
C757 C756 1.379 . S
C757 C758 1.390 . S
C757 H784 0.949 . S
C758 C757 1.390 . S
C758 C759 1.357 . S
C759 C758 1.357 . S
C759 C760 1.370 . S
C759 H785 0.950 . S
C760 N755 1.307 . S
C760 C759 1.370 . S
C760 H778 0.948 . S
Zn761 N755 2.020 . S
Zn761 O770 2.039 . S
Zn761 O776 2.034 . S
Zn761 O780 2.025 . S
Zn761 O782 2.024 . S
C762 O781 1.246 . S
C762 O782 1.249 . S
N763 C764 1.307 . S
N763 C765 1.333 . S
N763 Zn769 2.020 . S
C764 N763 1.307 . S
C764 C768 1.370 . S
C764 H775 0.948 . S
C765 N763 1.333 . S
C765 C766 1.379 . S
C765 H773 0.952 . S
C766 C765 1.379 . S
C766 C767 1.390 . S
C766 H786 0.949 . S
C767 C766 1.390 . S
C767 C768 1.357 . S
C768 C764 1.370 . S
C768 C767 1.357 . S
C768 H787 0.952 . S
Zn769 N763 2.020 . S
Zn769 O772 2.025 . S
Zn769 O777 2.024 . S
Zn769 O779 2.039 . S
Zn769 O781 2.034 . S
O770 C754 1.251 . S
O770 Zn761 2.039 . S
C771 O776 1.246 . S
C771 O777 1.249 . S
O772 C754 1.254 . S
O772 Zn769 2.025 . S
H773 C765 0.952 . S
H774 C756 0.952 . S
H775 C764 0.948 . S
O776 Zn761 2.034 . S
O776 C771 1.246 . S
O777 Zn769 2.024 . S
O777 C771 1.249 . S
H778 C760 0.948 . S
O779 Zn769 2.039 . S
O779 C783 1.251 . S
O780 Zn761 2.025 . S
O780 C783 1.254 . S
O781 C762 1.246 . S
O781 Zn769 2.034 . S
O782 Zn761 2.024 . S
O782 C762 1.249 . S
C783 O779 1.251 . S
C783 O780 1.254 . S
H784 C757 0.949 . S
H785 C759 0.950 . S
H786 C766 0.949 . S
H787 C768 0.952 . S
C788 O804 1.251 . S
C788 O806 1.254 . S
N789 C790 1.333 . S
N789 C794 1.307 . S
N789 Zn795 2.020 . S
C790 N789 1.333 . S
C790 C791 1.379 . S
C790 H808 0.952 . S
C791 C790 1.379 . S
C791 C792 1.390 . S
C791 H818 0.949 . S
C792 C791 1.390 . S
C792 C793 1.357 . S
C793 C792 1.357 . S
C793 C794 1.370 . S
C793 H819 0.950 . S
C794 N789 1.307 . S
C794 C793 1.370 . S
C794 H812 0.948 . S
Zn795 N789 2.020 . S
Zn795 O804 2.039 . S
Zn795 O810 2.034 . S
Zn795 O814 2.025 . S
Zn795 O816 2.024 . S
C796 O815 1.246 . S
C796 O816 1.249 . S
N797 C798 1.307 . S
N797 C799 1.333 . S
N797 Zn803 2.020 . S
C798 N797 1.307 . S
C798 C802 1.370 . S
C798 H809 0.948 . S
C799 N797 1.333 . S
C799 C800 1.379 . S
C799 H807 0.952 . S
C800 C799 1.379 . S
C800 C801 1.390 . S
C800 H820 0.949 . S
C801 C800 1.390 . S
C801 C802 1.357 . S
C802 C798 1.370 . S
C802 C801 1.357 . S
C802 H821 0.950 . S
Zn803 N797 2.020 . S
Zn803 O806 2.025 . S
Zn803 O811 2.024 . S
Zn803 O813 2.039 . S
Zn803 O815 2.034 . S
O804 C788 1.251 . S
O804 Zn795 2.039 . S
C805 O810 1.246 . S
C805 O811 1.249 . S
O806 C788 1.254 . S
O806 Zn803 2.025 . S
H807 C799 0.952 . S
H808 C790 0.952 . S
H809 C798 0.948 . S
O810 Zn795 2.034 . S
O810 C805 1.246 . S
O811 Zn803 2.024 . S
O811 C805 1.249 . S
H812 C794 0.948 . S
O813 Zn803 2.039 . S
O813 C817 1.251 . S
O814 Zn795 2.025 . S
O814 C817 1.254 . S
O815 C796 1.246 . S
O815 Zn803 2.034 . S
O816 Zn795 2.024 . S
O816 C796 1.249 . S
C817 O813 1.251 . S
C817 O814 1.254 . S
H818 C791 0.949 . S
H819 C793 0.950 . S
H820 C800 0.949 . S
H821 C802 0.950 . S
C822 O838 1.251 . S
C822 O840 1.254 . S
N823 C824 1.333 . S
N823 C828 1.307 . S
N823 Zn829 2.020 . S
C824 N823 1.333 . S
C824 C825 1.379 . S
C824 H842 0.952 . S
C825 C824 1.379 . S
C825 C826 1.390 . S
C825 H852 0.949 . S
C826 C825 1.390 . S
C826 C827 1.357 . S
C827 C826 1.357 . S
C827 C828 1.370 . S
C827 H853 0.950 . S
C828 N823 1.307 . S
C828 C827 1.370 . S
C828 H846 0.948 . S
Zn829 N823 2.020 . S
Zn829 O838 2.039 . S
Zn829 O844 2.034 . S
Zn829 O848 2.025 . S
Zn829 O850 2.024 . S
C830 O849 1.246 . S
C830 O850 1.249 1_655 S
N831 C832 1.307 . S
N831 C833 1.333 1_554 S
N831 Zn837 2.020 . S
C832 N831 1.307 . S
C832 C836 1.370 . S
C832 H843 0.948 . S
C833 N831 1.333 1_556 S
C833 C834 1.379 1_455 S
C833 H841 0.952 . S
C834 C833 1.379 1_655 S
C834 C835 1.390 . S
C834 H854 0.949 . S
C835 C834 1.390 . S
C835 C836 1.357 1_656 S
C836 C832 1.370 . S
C836 C835 1.357 1_454 S
C836 H855 0.950 . S
Zn837 N831 2.020 . S
Zn837 O840 2.025 . S
Zn837 O845 2.024 . S
Zn837 O847 2.039 1_554 S
Zn837 O849 2.034 1_455 S
O838 C822 1.251 . S
O838 Zn829 2.039 . S
C839 O844 1.246 . S
C839 O845 1.249 . S
O840 C822 1.254 . S
O840 Zn837 2.025 . S
H841 C833 0.952 . S
H842 C824 0.952 . S
H843 C832 0.948 . S
O844 Zn829 2.034 . S
O844 C839 1.246 . S
O845 Zn837 2.024 . S
O845 C839 1.249 . S
H846 C828 0.948 . S
O847 Zn837 2.039 1_556 S
O847 C851 1.251 . S
O848 Zn829 2.025 . S
O848 C851 1.254 1_554 S
O849 C830 1.246 . S
O849 Zn837 2.034 1_655 S
O850 Zn829 2.024 . S
O850 C830 1.249 1_455 S
C851 O847 1.251 . S
C851 O848 1.254 1_556 S
H852 C825 0.949 . S
H853 C827 0.950 . S
H854 C834 0.949 . S
H855 C836 0.950 . S
C329 C10 2.299 . S
C13 C375 2.348 . S
C34 C384 0.653 . S
C422 C44 2.108 . S
C21 C456 1.999 . S
C486 C26 0.517 . S
C545 C49 1.987 1_554 S
C5 C558 2.692 . S
C62 C341 2.208 1_545 S
C73 C359 1.437 . S
C380 C88 2.463 . S
C418 C99 2.219 . S
C60 C452 1.578 . S
C482 C75 2.315 . S
C529 C86 1.662 1_565 S
C554 C101 1.140 . S
C325 C96 1.767 . S
C584 C104 2.155 . S
C122 C626 2.718 . S
C669 C130 1.152 . S
C57 C550 2.386 . S
C388 C70 2.841 . S
C117 C686 1.675 . S
C737 C143 1.907 . S
C164 C320 2.609 1_656 S
C720 C169 2.519 . S
C192 C393 0.753 . S
C200 C703 2.164 . S
C465 C179 2.112 . S
C631 C182 0.625 . S
C516 C203 2.139 . S
C771 C161 2.259 . S
C312 C216 2.330 1_445 S
C231 C724 1.691 . S
C409 C242 2.729 1_565 S
C257 C699 2.427 . S
C218 C461 1.911 . S
C229 C647 2.561 . S
C520 C244 1.864 . S
C255 C767 1.448 . S
C252 C316 1.532 1_545 S
C260 C613 2.089 . S
C278 C499 2.436 . S
C286 C660 1.131 . S
C783 C213 2.217 . S
C397 C226 2.586 . S
C443 C273 1.482 . S
C354 C299 1.877 . S
C36 C805 2.299 . S
C749 C39 2.348 . S
C826 C8 0.653 . S
C18 C694 2.108 . S
C47 C592 1.999 1_556 S
C622 C0 0.517 . S
C681 C23 1.987 . S
C762 C31 2.692 . S
C817 C153 2.208 . S
C112 C733 1.442 . S
C127 C822 2.463 1_655 S
C690 C138 2.219 . S
C588 C151 1.578 . S
C114 C618 2.315 . S
C665 C125 1.661 . S
C140 C758 1.140 . S
C801 C135 1.767 . S
C448 C65 2.155 . S
C490 C83 2.718 . S
C91 C533 1.152 . S
C754 C148 2.386 . S
C109 C830 2.841 . S
C414 C78 1.675 . S
C363 C52 1.907 . S
C190 C796 2.609 . S
C346 C195 2.519 . S
C835 C166 0.753 . S
C174 C431 2.164 . S
C205 C601 2.112 . S
C156 C495 0.624 . S
C177 C652 2.139 . S
C187 C567 2.259 . S
C788 C307 2.332 . S
C270 C350 1.691 . S
C851 C281 2.729 . S
C296 C427 2.427 . S
C309 C597 1.910 . S
C511 C268 2.561 . S
C283 C656 1.864 . S
C563 C294 1.448 . S
C792 C291 1.537 . S
C477 C221 2.089 . S
C239 C635 2.435 . S
C524 C247 1.132 1_565 S
C579 C304 2.216 . S
C265 C839 2.586 . S
C715 C234 1.482 . S
C728 C208 1.875 . S
