# Generated by pormake.
# Topology hwx, (6,3)-cn, num edge types: 1
# Building blocks:
#     Node 0, Type 0, BuildingBlock: OJICUG_clean_sbu_0, # of connection points: 6
#     Node 1, Type 0, BuildingBlock: OJICUG_clean_sbu_0, # of connection points: 6
#     Node 2, Type 0, BuildingBlock: OJICUG_clean_sbu_0, # of connection points: 6
#     Node 3, Type 0, BuildingBlock: OJICUG_clean_sbu_0, # of connection points: 6
#     Node 4, Type 1, BuildingBlock: WUSLED_clean_sbu_0, # of connection points: 3
#     Node 5, Type 1, BuildingBlock: WUSLED_clean_sbu_0, # of connection points: 3
#     Node 6, Type 1, BuildingBlock: WUSLED_clean_sbu_0, # of connection points: 3
#     Node 7, Type 1, BuildingBlock: WUSLED_clean_sbu_0, # of connection points: 3
#     Node 8, Type 1, BuildingBlock: WUSLED_clean_sbu_0, # of connection points: 3
#     Node 9, Type 1, BuildingBlock: WUSLED_clean_sbu_0, # of connection points: 3
#     Node 10, Type 1, BuildingBlock: WUSLED_clean_sbu_0, # of connection points: 3
#     Node 11, Type 1, BuildingBlock: WUSLED_clean_sbu_0, # of connection points: 3
#     Edge 12, Type (0, 1), BuildingBlock: TEMPAE_clean_linker_10, # of connection points: 2
#     Edge 13, Type (0, 1), BuildingBlock: TEMPAE_clean_linker_10, # of connection points: 2
#     Edge 14, Type (0, 1), BuildingBlock: TEMPAE_clean_linker_10, # of connection points: 2
#     Edge 15, Type (0, 1), BuildingBlock: TEMPAE_clean_linker_10, # of connection points: 2
#     Edge 16, Type (0, 1), BuildingBlock: TEMPAE_clean_linker_10, # of connection points: 2
#     Edge 17, Type (0, 1), BuildingBlock: TEMPAE_clean_linker_10, # of connection points: 2
#     Edge 18, Type (0, 1), BuildingBlock: TEMPAE_clean_linker_10, # of connection points: 2
#     Edge 19, Type (0, 1), BuildingBlock: TEMPAE_clean_linker_10, # of connection points: 2
#     Edge 20, Type (0, 1), BuildingBlock: TEMPAE_clean_linker_10, # of connection points: 2
#     Edge 21, Type (0, 1), BuildingBlock: TEMPAE_clean_linker_10, # of connection points: 2
#     Edge 22, Type (0, 1), BuildingBlock: TEMPAE_clean_linker_10, # of connection points: 2
#     Edge 23, Type (0, 1), BuildingBlock: TEMPAE_clean_linker_10, # of connection points: 2
#     Edge 24, Type (0, 1), BuildingBlock: TEMPAE_clean_linker_10, # of connection points: 2
#     Edge 25, Type (0, 1), BuildingBlock: TEMPAE_clean_linker_10, # of connection points: 2
#     Edge 26, Type (0, 1), BuildingBlock: TEMPAE_clean_linker_10, # of connection points: 2
#     Edge 27, Type (0, 1), BuildingBlock: TEMPAE_clean_linker_10, # of connection points: 2
#     Edge 28, Type (0, 1), BuildingBlock: TEMPAE_clean_linker_10, # of connection points: 2
#     Edge 29, Type (0, 1), BuildingBlock: TEMPAE_clean_linker_10, # of connection points: 2
#     Edge 30, Type (0, 1), BuildingBlock: TEMPAE_clean_linker_10, # of connection points: 2
#     Edge 31, Type (0, 1), BuildingBlock: TEMPAE_clean_linker_10, # of connection points: 2
#     Edge 32, Type (0, 1), BuildingBlock: TEMPAE_clean_linker_10, # of connection points: 2
#     Edge 33, Type (0, 1), BuildingBlock: TEMPAE_clean_linker_10, # of connection points: 2
#     Edge 34, Type (0, 1), BuildingBlock: TEMPAE_clean_linker_10, # of connection points: 2
#     Edge 35, Type (0, 1), BuildingBlock: TEMPAE_clean_linker_10, # of connection points: 2
# Relax obj value: 0.072
# Max RMSD: 0.099
# Mean RMSD: 0.090
data_MOF--net-hwx--node1-OJICUG_clean_sbu_0--node2-WUSLED_clean_sbu_0--edge1-TEMPAE_clean_linker_10
_symmetry_space_group_name_H-M    P1
_symmetry_Int_Tables_number       1
_symmetry_cell_setting            triclinic
loop_
_symmetry_equiv_pos_as_xyz
'x, y, z'
_cell_length_a     65.762409
_cell_length_b     65.818508
_cell_length_c     29.447603
_cell_angle_alpha  90.513879
_cell_angle_beta   90.489838
_cell_angle_gamma 89.97173
loop_
_atom_site_label
_atom_site_type_symbol
_atom_site_fract_x
_atom_site_fract_y
_atom_site_fract_z
_atom_type_partial_charge
Sc0 Sc 0.23125 0.23464 0.07149 0.0
Sc1 Sc 0.19912 0.20257 0.00633 0.0
Sc2 Sc 0.23266 0.23602 0.95186 0.0
O3 O 0.22101 0.22441 0.00991 0.0
C4 C 0.22948 0.27581 0.015 0.0
C5 C 0.18341 0.22983 0.08908 0.0
C6 C 0.18573 0.23187 0.92493 0.0
C7 C 0.22658 0.18713 0.0898 0.0
C8 C 0.2725 0.23273 0.01405 0.0
C9 C 0.22814 0.18887 0.92548 0.0
O10 O 0.2287 0.26615 0.0522 0.0
O11 O 0.18031 0.21785 0.0556 0.0
O12 O 0.20304 0.24032 0.92146 0.0
O13 O 0.23486 0.20429 0.0977 0.0
O14 O 0.26361 0.23285 0.97552 0.0
O15 O 0.21543 0.18486 0.95646 0.0
O16 O 0.26282 0.23369 0.05129 0.0
O17 O 0.21332 0.18446 0.05857 0.0
O18 O 0.23533 0.20659 0.91971 0.0
O19 O 0.20096 0.23675 0.09928 0.0
O20 O 0.23127 0.26693 0.9767 0.0
O21 O 0.18224 0.21794 0.95352 0.0
Sc22 Sc 0.26989 0.73413 0.4461 0.0
Sc23 Sc 0.30262 0.70145 0.50671 0.0
Sc24 Sc 0.26738 0.73216 0.5655 0.0
O25 O 0.27996 0.72257 0.5061 0.0
C26 C 0.27041 0.77368 0.51023 0.0
C27 C 0.31773 0.73119 0.42853 0.0
C28 C 0.31449 0.72866 0.59301 0.0
C29 C 0.27617 0.68716 0.42066 0.0
C30 C 0.22825 0.72991 0.5005 0.0
C31 C 0.27298 0.68475 0.58376 0.0
O32 O 0.27049 0.76497 0.47148 0.0
O33 O 0.32074 0.71761 0.45828 0.0
O34 O 0.29645 0.73501 0.59921 0.0
O35 O 0.26834 0.70459 0.41415 0.0
O36 O 0.23676 0.73042 0.53939 0.0
O37 O 0.28736 0.68268 0.55546 0.0
O38 O 0.23824 0.73078 0.46376 0.0
O39 O 0.28857 0.6836 0.45306 0.0
O40 O 0.26379 0.70154 0.59019 0.0
O41 O 0.30027 0.73882 0.42087 0.0
O42 O 0.26957 0.76385 0.54723 0.0
O43 O 0.31924 0.71692 0.56022 0.0
Sc44 Sc 0.76888 0.77181 0.94089 0.0
Sc45 Sc 0.80211 0.80355 0.00407 0.0
Sc46 Sc 0.76805 0.7713 0.06048 0.0
O47 O 0.77968 0.78223 1.00178 0.0
C48 C 0.72801 0.77441 0.99826 0.0
C49 C 0.7745 0.8194 0.92212 0.0
C50 C 0.77326 0.81816 0.08542 0.0
C51 C 0.81639 0.77546 0.92094 0.0
C52 C 0.77077 0.73106 0.99974 0.0
C53 C 0.81543 0.775 0.08566 0.0
O54 O 0.73749 0.7749 0.96081 0.0
O55 O 0.78703 0.82234 0.95466 0.0
O56 O 0.76417 0.80122 0.08926 0.0
O57 O 0.79903 0.76744 0.91384 0.0
O58 O 0.77091 0.74021 0.03797 0.0
O59 O 0.81977 0.78707 0.05367 0.0
O60 O 0.7696 0.74043 0.96216 0.0
O61 O 0.81956 0.78884 0.95159 0.0
O62 O 0.79749 0.76858 0.09242 0.0
O63 O 0.76692 0.80204 0.91284 0.0
O64 O 0.73707 0.77275 0.03634 0.0
O65 O 0.78744 0.82098 0.05701 0.0
Sc66 Sc 0.73067 0.26999 0.56546 0.0
Sc67 Sc 0.69987 0.30472 0.5055 0.0
Sc68 Sc 0.73342 0.27239 0.44608 0.0
O69 O 0.72132 0.28238 0.50568 0.0
C70 C 0.77261 0.27295 0.51097 0.0
C71 C 0.72694 0.31702 0.59224 0.0
C72 C 0.72988 0.32019 0.42828 0.0
C73 C 0.68296 0.27547 0.58273 0.0
C74 C 0.72873 0.23082 0.50091 0.0
C75 C 0.68653 0.27795 0.41898 0.0
O76 O 0.76249 0.27137 0.54744 0.0
O77 O 0.71461 0.32133 0.5602 0.0
O78 O 0.73748 0.30275 0.42031 0.0
O79 O 0.70007 0.26715 0.59084 0.0
O80 O 0.7308 0.24075 0.46435 0.0
O81 O 0.68276 0.29065 0.45069 0.0
O82 O 0.72813 0.23936 0.53977 0.0
O83 O 0.68064 0.28907 0.55272 0.0
O84 O 0.704 0.27002 0.41353 0.0
O85 O 0.73405 0.29923 0.59801 0.0
O86 O 0.76417 0.2738 0.472 0.0
O87 O 0.71639 0.32315 0.45829 0.0
C88 C 0.24578 0.53835 0.86606 0.0
C89 C 0.26268 0.55142 0.86576 0.0
C90 C 0.24863 0.5696 0.80094 0.0
C91 C 0.26414 0.56674 0.83345 0.0
C92 C 0.23184 0.55632 0.80087 0.0
C93 C 0.23046 0.54084 0.83307 0.0
U94 U 0.24513 0.52584 0.99064 0.0
O95 O 0.22633 0.50532 0.03129 0.0
O96 O 0.2595 0.50141 0.03008 0.0
C97 C 0.24198 0.49409 0.04344 0.0
C98 C 0.24353 0.5229 0.90193 0.0
C99 C 0.23959 0.47193 0.03845 0.0
C100 C 0.22746 0.44202 0.99736 0.0
C101 C 0.22933 0.46318 1.0011 0.0
C102 C 0.24627 0.4382 0.06788 0.0
C103 C 0.236 0.42929 0.03066 0.0
C104 C 0.24801 0.45929 0.07173 0.0
C105 C 0.25343 0.57226 0.06978 0.0
C106 C 0.25477 0.57149 0.15226 0.0
C107 C 0.25988 0.60321 0.11273 0.0
C108 C 0.25724 0.59316 0.0712 0.0
C109 C 0.25879 0.5925 0.15377 0.0
C110 C 0.25216 0.56141 0.11046 0.0
C111 C 0.25097 0.56229 0.02531 0.0
O112 O 0.26001 0.51887 0.92583 0.0
O113 O 0.22717 0.5247 0.92703 0.0
O114 O 0.23285 0.55483 0.01613 0.0
O115 O 0.26588 0.55023 0.01286 0.0
H116 H 0.27475 0.55002 0.89079 0.0
H117 H 0.27749 0.57636 0.83403 0.0
H118 H 0.21952 0.55817 0.77662 0.0
H119 H 0.21724 0.53103 0.83274 0.0
H120 H 0.21963 0.43559 0.96809 0.0
H121 H 0.22285 0.47267 0.97482 0.0
H122 H 0.2528 0.42883 0.09434 0.0
H123 H 0.25597 0.46577 0.10079 0.0
H124 H 0.25394 0.56283 0.18328 0.0
H125 H 0.26256 0.61944 0.1127 0.0
H126 H 0.25818 0.60176 0.04007 0.0
H127 H 0.24923 0.54521 0.10985 0.0
C128 C 0.96196 0.74366 0.63712 0.0
C129 C 0.9493 0.76089 0.63756 0.0
C130 C 0.93023 0.74734 0.70107 0.0
C131 C 0.93374 0.76274 0.66926 0.0
C132 C 0.94304 0.73019 0.7009 0.0
C133 C 0.95877 0.72841 0.66931 0.0
U134 U 0.97697 0.74102 0.51353 0.0
O135 O 1.00178 0.75557 0.47616 0.0
O136 O 0.99908 0.72229 0.47631 0.0
C137 C 0.00998 0.73811 0.46442 0.0
C138 C 0.97801 0.74118 0.60249 0.0
C139 C 0.03215 0.73661 0.4711 0.0
C140 C 0.06197 0.72401 0.51133 0.0
C141 C 0.0408 0.72536 0.50668 0.0
C142 C 0.066 0.74537 0.44543 0.0
C143 C 0.07479 0.73403 0.48074 0.0
C144 C 0.0449 0.7466 0.44064 0.0
C145 C 0.93346 0.74618 0.42602 0.0
C146 C 0.92981 0.76388 0.3542 0.0
C147 C 0.90949 0.73398 0.36866 0.0
C148 C 0.91874 0.73211 0.41132 0.0
C149 C 0.91466 0.75011 0.34002 0.0
C150 C 0.93918 0.76191 0.39673 0.0
C151 C 0.94156 0.74489 0.47287 0.0
O152 O 0.97715 0.72433 0.57819 0.0
O153 O 0.98197 0.75731 0.57805 0.0
O154 O 0.95235 0.76042 0.48781 0.0
O155 O 0.94911 0.72722 0.48487 0.0
H156 H 0.95129 0.77295 0.61323 0.0
H157 H 0.92449 0.77636 0.66891 0.0
H158 H 0.94068 0.71794 0.7246 0.0
H159 H 0.96827 0.71496 0.66963 0.0
H160 H 0.06832 0.71532 0.53912 0.0
H161 H 0.03123 0.71762 0.53079 0.0
H162 H 0.07546 0.75306 0.42104 0.0
H163 H 0.0385 0.75531 0.41292 0.0
H164 H 0.93418 0.77636 0.33263 0.0
H165 H 0.8977 0.72329 0.35887 0.0
H166 H 0.91398 0.71994 0.43337 0.0
H167 H 0.95056 0.77297 0.40697 0.0
C168 C 0.76258 0.46471 0.14425 0.0
C169 C 0.75956 0.4445 0.13021 0.0
C170 C 0.75798 0.43375 0.20901 0.0
C171 C 0.75728 0.42917 0.16226 0.0
C172 C 0.76128 0.45402 0.22291 0.0
C173 C 0.76352 0.46938 0.19072 0.0
U174 U 0.76315 0.47968 0.02127 0.0
O175 O 0.7486 0.50478 0.98464 0.0
O176 O 0.78186 0.50161 0.98394 0.0
C177 C 0.76606 0.51282 0.97285 0.0
C178 C 0.76431 0.48083 0.1103 0.0
C179 C 0.76825 0.53484 0.98069 0.0
C180 C 0.76062 0.56572 0.02322 0.0
C181 C 0.75931 0.54459 0.01817 0.0
C182 C 0.78035 0.5675 0.95426 0.0
C183 C 0.77103 0.57742 0.9911 0.0
C184 C 0.77892 0.54642 0.94909 0.0
C185 C 0.75671 0.43602 0.93373 0.0
C186 C 0.73682 0.42965 0.86494 0.0
C187 C 0.76952 0.41328 0.87492 0.0
C188 C 0.7719 0.42301 0.91702 0.0
C189 C 0.75178 0.4162 0.84884 0.0
C190 C 0.73926 0.43948 0.90692 0.0
C191 C 0.75859 0.44434 0.98044 0.0
O192 O 0.78074 0.47998 0.08521 0.0
O193 O 0.74767 0.48416 0.08649 0.0
O194 O 0.74329 0.45529 0.99551 0.0
O195 O 0.77645 0.45176 0.99223 0.0
H196 H 0.75885 0.44062 0.09439 0.0
H197 H 0.75506 0.4137 0.15043 0.0
H198 H 0.7617 0.45807 0.25863 0.0
H199 H 0.7658 0.48492 0.20211 0.0
H200 H 0.75349 0.57292 0.05222 0.0
H201 H 0.75111 0.53592 0.04318 0.0
H202 H 0.7883 0.5761 0.92872 0.0
H203 H 0.78589 0.53917 0.91993 0.0
H204 H 0.72307 0.43231 0.84537 0.0
H205 H 0.78119 0.40282 0.86367 0.0
H206 H 0.78539 0.41989 0.93716 0.0
H207 H 0.72723 0.44939 0.91873 0.0
C208 C 0.03616 0.26017 0.36984 0.0
C209 C 0.05145 0.27491 0.36465 0.0
C210 C 0.06648 0.25523 0.30305 0.0
C211 C 0.06639 0.27249 0.3315 0.0
C212 C 0.05099 0.2407 0.30768 0.0
C213 C 0.03594 0.2432 0.34056 0.0
U214 U 0.02366 0.26158 0.4954 0.0
O215 O 0.0022 0.28027 0.53491 0.0
O216 O 0.9994 0.24703 0.53435 0.0
C217 C 0.9913 0.26447 0.54672 0.0
C218 C 0.02091 0.26181 0.40653 0.0
C219 C 0.96914 0.2664 0.53995 0.0
C220 C 0.93815 0.25952 0.49676 0.0
C221 C 0.95931 0.25808 0.50154 0.0
C222 C 0.93645 0.27804 0.56809 0.0
C223 C 0.92646 0.26945 0.5301 0.0
C224 C 0.95757 0.27648 0.57297 0.0
C225 C 0.07054 0.25649 0.57524 0.0
C226 C 0.07032 0.25561 0.65778 0.0
C227 C 0.10195 0.25119 0.61722 0.0
C228 C 0.09159 0.25334 0.57604 0.0
C229 C 0.09146 0.25212 0.6586 0.0
C230 C 0.0599 0.25772 0.6163 0.0
C231 C 0.06024 0.25794 0.53095 0.0
O232 O 0.01837 0.24531 0.43068 0.0
O233 O 0.02139 0.27849 0.43146 0.0
O234 O 0.05195 0.27555 0.52114 0.0
O235 O 0.04886 0.24234 0.51911 0.0
H236 H 0.05213 0.28817 0.38664 0.0
H237 H 0.07822 0.28386 0.32901 0.0
H238 H 0.05054 0.22736 0.28588 0.0
H239 H 0.02429 0.23168 0.34361 0.0
H240 H 0.93093 0.25296 0.46686 0.0
H241 H 0.96797 0.25037 0.47542 0.0
H242 H 0.92789 0.2856 0.59457 0.0
H243 H 0.96487 0.28298 0.60285 0.0
H244 H 0.06182 0.25631 0.68908 0.0
H245 H 0.11826 0.24889 0.61666 0.0
H246 H 0.10003 0.25242 0.54464 0.0
H247 H 0.0436 0.26011 0.6162 0.0
C248 C 0.7443 0.96645 0.64103 0.0
C249 C 0.76322 0.95685 0.64729 0.0
C250 C 0.74899 0.93514 0.70561 0.0
C251 C 0.76553 0.94143 0.67924 0.0
C252 C 0.73018 0.94507 0.70005 0.0
C253 C 0.7279 0.96059 0.66822 0.0
U254 U 0.74168 0.98041 0.51647 0.0
O255 O 0.72131 1.00099 0.47874 0.0
O256 O 0.75434 0.00593 0.47851 0.0
C257 C 0.73633 0.01296 0.46693 0.0
C258 C 0.74132 0.982 0.60543 0.0
C259 C 0.73319 0.03485 0.47472 0.0
C260 C 0.73881 0.06568 0.51912 0.0
C261 C 0.7407 0.04461 0.514 0.0
C262 C 0.72127 0.06736 0.44655 0.0
C263 C 0.72926 0.07731 0.48521 0.0
C264 C 0.72328 0.04633 0.44133 0.0
C265 C 0.75044 0.93631 0.43097 0.0
C266 C 0.73559 0.9221 0.36158 0.0
C267 C 0.77191 0.91988 0.37464 0.0
C268 C 0.76972 0.9301 0.41607 0.0
C269 C 0.75483 0.91541 0.3473 0.0
C270 C 0.73339 0.9324 0.40303 0.0
C271 C 0.74826 0.94509 0.47717 0.0
O272 O 0.75739 0.98661 0.58129 0.0
O273 O 0.72469 0.98006 0.58064 0.0
O274 O 0.73008 0.95144 0.48901 0.0
O275 O 0.76295 0.95721 0.49122 0.0
H276 H 0.77626 0.96103 0.62722 0.0
H277 H 0.78034 0.93444 0.68327 0.0
H278 H 0.71708 0.94053 0.71952 0.0
H279 H 0.71317 0.96778 0.66425 0.0
H280 H 0.74489 0.07289 0.54952 0.0
H281 H 0.74829 0.03598 0.54034 0.0
H282 H 0.71401 0.07592 0.41967 0.0
H283 H 0.71743 0.03905 0.41076 0.0
H284 H 0.7221 0.91871 0.34156 0.0
H285 H 0.78698 0.91519 0.36435 0.0
H286 H 0.78311 0.93273 0.43698 0.0
H287 H 0.71828 0.93679 0.41364 0.0
C288 C 0.53723 0.24606 0.86642 0.0
C289 C 0.55753 0.24899 0.87996 0.0
C290 C 0.56795 0.25063 0.80092 0.0
C291 C 0.57273 0.25125 0.84758 0.0
C292 C 0.54759 0.24745 0.78748 0.0
C293 C 0.53234 0.24522 0.82003 0.0
U294 U 0.52365 0.24544 0.98984 0.0
O295 O 0.49886 0.25961 0.02834 0.0
O296 O 0.50258 0.22645 0.02895 0.0
C297 C 0.4912 0.24205 0.04059 0.0
C298 C 0.52131 0.24418 0.90091 0.0
C299 C 0.4691 0.23951 0.03376 0.0
C300 C 0.43771 0.24655 0.99243 0.0
C301 C 0.45887 0.24829 0.99673 0.0
C302 C 0.43683 0.22672 0.06128 0.0
C303 C 0.42643 0.23586 0.02484 0.0
C304 C 0.45794 0.22858 0.06571 0.0
C305 C 0.57021 0.25285 0.07016 0.0
C306 C 0.5701 0.25394 0.15271 0.0
C307 C 0.60145 0.25952 0.112 0.0
C308 C 0.5911 0.25687 0.07085 0.0
C309 C 0.59108 0.25824 0.15344 0.0
C310 C 0.5597 0.25132 0.11127 0.0
C311 C 0.55997 0.25064 0.0259 0.0
O312 O 0.52256 0.2278 0.926 0.0
O313 O 0.518 0.26078 0.92486 0.0
O314 O 0.5481 0.26574 0.0138 0.0
O315 O 0.55228 0.23266 0.01628 0.0
H316 H 0.56159 0.24961 0.91569 0.0
H317 H 0.58828 0.25336 0.8591 0.0
H318 H 0.54338 0.24708 0.75185 0.0
H319 H 0.51673 0.24299 0.809 0.0
H320 H 0.43017 0.25355 0.9637 0.0
H321 H 0.46719 0.25667 0.97143 0.0
H322 H 0.42857 0.21855 0.08703 0.0
H323 H 0.46554 0.22172 0.09454 0.0
H324 H 0.56169 0.25295 0.18408 0.0
H325 H 0.61766 0.26242 0.11134 0.0
H326 H 0.59945 0.25801 0.0394 0.0
H327 H 0.54351 0.24825 0.11124 0.0
C328 C 0.25749 0.04131 0.37389 0.0
C329 C 0.25465 0.06147 0.38835 0.0
C330 C 0.25256 0.07259 0.30975 0.0
C331 C 0.2522 0.07696 0.35661 0.0
C332 C 0.25563 0.05235 0.29545 0.0
C333 C 0.25805 0.03684 0.32731 0.0
U334 U 0.25951 0.02549 0.49653 0.0
O335 O 0.24551 1.00002 0.53242 0.0
O336 O 0.27875 0.00332 0.53262 0.0
C337 C 0.26314 0.99198 0.54369 0.0
C338 C 0.25958 0.02501 0.40743 0.0
C339 C 0.26537 0.96997 0.53547 0.0
C340 C 0.25719 0.93905 0.49329 0.0
C341 C 0.25576 0.96018 0.49855 0.0
C342 C 0.27832 0.93737 0.56095 0.0
C343 C 0.26837 0.9274 0.52465 0.0
C344 C 0.27678 0.95844 0.56632 0.0
C345 C 0.25421 0.06876 0.58561 0.0
C346 C 0.23493 0.07572 0.65427 0.0
C347 C 0.26804 0.09108 0.64457 0.0
C348 C 0.26988 0.08129 0.60248 0.0
C349 C 0.25036 0.08872 0.67051 0.0
C350 C 0.23682 0.06583 0.61229 0.0
C351 C 0.25546 0.06055 0.53871 0.0
O352 O 0.27631 0.02566 0.43219 0.0
O353 O 0.24322 0.02157 0.4315 0.0
O354 O 0.23998 0.04965 0.52387 0.0
O355 O 0.27316 0.05321 0.52616 0.0
H356 H 0.25424 0.0652 0.42425 0.0
H357 H 0.25016 0.0924 0.36877 0.0
H358 H 0.25579 0.04845 0.25965 0.0
H359 H 0.26019 0.02134 0.31558 0.0
H360 H 0.24956 0.93183 0.46469 0.0
H361 H 0.24697 0.9688 0.47413 0.0
H362 H 0.28686 0.92883 0.58594 0.0
H363 H 0.28426 0.96571 0.59508 0.0
H364 H 0.22122 0.07348 0.67372 0.0
H365 H 0.28008 0.10119 0.6559 0.0
H366 H 0.28333 0.08403 0.58244 0.0
H367 H 0.22441 0.05632 0.60034 0.0
C368 C 0.46234 0.76456 0.14494 0.0
C369 C 0.44203 0.76223 0.13096 0.0
C370 C 0.43133 0.76032 0.20975 0.0
C371 C 0.42667 0.76013 0.16303 0.0
C372 C 0.45169 0.76305 0.22362 0.0
C373 C 0.4671 0.76511 0.1914 0.0
U374 U 0.47676 0.76406 0.02189 0.0
O375 O 0.49906 0.78138 0.9828 0.0
O376 O 0.50107 0.74808 0.98503 0.0
C377 C 0.50955 0.76507 0.97174 0.0
C378 C 0.47849 0.76566 0.11084 0.0
C379 C 0.53174 0.76634 0.97786 0.0
C380 C 0.56181 0.77774 0.01941 0.0
C381 C 0.54061 0.77641 0.01532 0.0
C382 C 0.56541 0.75868 0.94915 0.0
C383 C 0.57443 0.76888 0.98632 0.0
C384 C 0.54428 0.75746 0.94498 0.0
C385 C 0.43245 0.75878 0.93601 0.0
C386 C 0.42699 0.73959 0.86593 0.0
C387 C 0.4089 0.77118 0.87844 0.0
C388 C 0.41859 0.77347 0.92059 0.0
C389 C 0.41272 0.75404 0.85104 0.0
C390 C 0.43681 0.74196 0.90794 0.0
C391 C 0.44098 0.76064 0.98248 0.0
O392 O 0.48118 0.74882 0.08735 0.0
O393 O 0.47813 0.78197 0.08536 0.0
O394 O 0.44916 0.77826 0.9934 0.0
O395 O 0.4514 0.74504 0.99778 0.0
H396 H 0.43809 0.76181 0.09516 0.0
H397 H 0.41112 0.75834 0.15124 0.0
H398 H 0.45579 0.76309 0.25933 0.0
H399 H 0.48272 0.76683 0.20274 0.0
H400 H 0.56833 0.78552 0.04865 0.0
H401 H 0.53117 0.78327 0.04125 0.0
H402 H 0.5747 0.75191 0.92285 0.0
H403 H 0.5377 0.74967 0.9158 0.0
H404 H 0.43034 0.72632 0.84531 0.0
H405 H 0.39781 0.78244 0.86809 0.0
H406 H 0.41486 0.78649 0.94171 0.0
H407 H 0.44745 0.73037 0.91875 0.0
C408 C 0.16925 0.24342 0.16218 0.0
C409 C 0.16595 0.23527 0.11851 0.0
C410 C 0.15295 0.24735 0.19152 0.0
C411 C 0.1328 0.24327 0.17671 0.0
C412 C 0.1293 0.23561 0.13225 0.0
C413 C 0.1459 0.23159 0.10382 0.0
C414 C 0.15733 0.25534 0.23882 0.0
C415 C 0.10804 0.23133 0.11497 0.0
C416 C 0.09281 0.23319 0.26626 0.0
C417 C 0.08308 0.2521 0.2697 0.0
C418 C 0.10898 0.23013 0.2361 0.0
C419 C 0.11546 0.24631 0.20835 0.0
C420 C 0.10553 0.26537 0.21125 0.0
C421 C 0.08953 0.26807 0.24207 0.0
C422 C 0.1193 0.20964 0.23441 0.0
C423 C 0.11183 0.28291 0.18185 0.0
H424 H 0.18465 0.24625 0.17398 0.0
H425 H 0.14315 0.22544 0.07005 0.0
H426 H 0.14883 0.26966 0.24488 0.0
H427 H 0.15208 0.24421 0.26424 0.0
H428 H 0.17378 0.25828 0.24469 0.0
H429 H 0.10781 0.22648 0.07874 0.0
H430 H 0.10102 0.21918 0.13549 0.0
H431 H 0.09841 0.24509 0.11874 0.0
H432 H 0.08807 0.22088 0.28796 0.0
H433 H 0.08193 0.28266 0.24431 0.0
H434 H 0.13566 0.21133 0.2432 0.0
H435 H 0.1184 0.20322 0.19949 0.0
H436 H 0.11239 0.19862 0.25813 0.0
H437 H 0.12793 0.28694 0.189 0.0
H438 H 0.10228 0.29661 0.18749 0.0
H439 H 0.11077 0.27846 0.14548 0.0
C440 C 0.28142 0.65114 0.61823 0.0
C441 C 0.26749 0.66707 0.6121 0.0
C442 C 0.27722 0.635 0.64751 0.0
C443 C 0.25846 0.63453 0.67071 0.0
C444 C 0.24401 0.65017 0.66347 0.0
C445 C 0.24878 0.66636 0.6346 0.0
C446 C 0.29317 0.61881 0.65482 0.0
C447 C 0.22369 0.65 0.68693 0.0
C448 C 0.24386 0.58381 0.72235 0.0
C449 C 0.25001 0.58654 0.76778 0.0
C450 C 0.24593 0.59949 0.6906 0.0
C451 C 0.25456 0.61828 0.70446 0.0
C452 C 0.26041 0.62127 0.7504 0.0
C453 C 0.25792 0.60546 0.78148 0.0
C454 C 0.23931 0.59581 0.64202 0.0
C455 C 0.26977 0.64104 0.76657 0.0
H456 H 0.29597 0.65159 0.60124 0.0
H457 H 0.23786 0.67851 0.62978 0.0
H458 H 0.29823 0.61899 0.69087 0.0
H459 H 0.28669 0.60356 0.6476 0.0
H460 H 0.30669 0.62099 0.63302 0.0
H461 H 0.21354 0.66238 0.67499 0.0
H462 H 0.21596 0.63522 0.68102 0.0
H463 H 0.22598 0.65176 0.72412 0.0
H464 H 0.23788 0.56923 0.71126 0.0
H465 H 0.26226 0.60793 0.81668 0.0
H466 H 0.25275 0.59607 0.61954 0.0
H467 H 0.22893 0.6081 0.6307 0.0
H468 H 0.23146 0.58098 0.63744 0.0
H469 H 0.28413 0.64383 0.74812 0.0
H470 H 0.27314 0.64107 0.8036 0.0
H471 H 0.25938 0.65388 0.75904 0.0
C472 C 0.82636 0.76177 0.16127 0.0
C473 C 0.83162 0.76923 0.11846 0.0
C474 C 0.84124 0.75795 0.19447 0.0
C475 C 0.86196 0.76136 0.18447 0.0
C476 C 0.86749 0.76811 0.14077 0.0
C477 C 0.85224 0.77214 0.10836 0.0
C478 C 0.83467 0.751 0.24087 0.0
C479 C 0.88947 0.77153 0.12864 0.0
C480 C 0.89521 0.77261 0.28742 0.0
C481 C 0.90315 0.75336 0.29715 0.0
C482 C 0.8824 0.77559 0.24975 0.0
C483 C 0.87757 0.75893 0.22087 0.0
C484 C 0.88633 0.73965 0.22929 0.0
C485 C 0.89891 0.73706 0.26758 0.0
C486 C 0.8732 0.79633 0.24225 0.0
C487 C 0.8818 0.72162 0.19884 0.0
H488 H 0.81049 0.75955 0.16954 0.0
H489 H 0.85645 0.77776 0.07526 0.0
H490 H 0.84254 0.73667 0.24988 0.0
H491 H 0.83903 0.76257 0.26682 0.0
H492 H 0.818 0.74847 0.24272 0.0
H493 H 0.89137 0.77507 0.0921 0.0
H494 H 0.89572 0.78434 0.14913 0.0
H495 H 0.89866 0.75788 0.13681 0.0
H496 H 0.89827 0.7852 0.31047 0.0
H497 H 0.90521 0.7222 0.2748 0.0
H498 H 0.85649 0.79558 0.24705 0.0
H499 H 0.87586 0.80134 0.20694 0.0
H500 H 0.87953 0.80797 0.26599 0.0
H501 H 0.86564 0.71714 0.20246 0.0
H502 H 0.89151 0.70831 0.20711 0.0
H503 H 0.88412 0.72564 0.16274 0.0
C504 C 0.72745 0.35352 0.61812 0.0
C505 C 0.73244 0.33308 0.62589 0.0
C506 C 0.73131 0.36855 0.65127 0.0
C507 C 0.74014 0.36298 0.69338 0.0
C508 C 0.74568 0.3425 0.70098 0.0
C509 C 0.74188 0.32785 0.6671 0.0
C510 C 0.72547 0.39029 0.64171 0.0
C511 C 0.75498 0.33591 0.74556 0.0
C512 C 0.76384 0.40153 0.77482 0.0
C513 C 0.74829 0.40411 0.80666 0.0
C514 C 0.76115 0.3888 0.73669 0.0
C515 C 0.74255 0.37823 0.73065 0.0
C516 C 0.72663 0.38121 0.76208 0.0
C517 C 0.72967 0.39417 0.79958 0.0
C518 C 0.77838 0.38621 0.70358 0.0
C519 C 0.70664 0.37008 0.75711 0.0
H520 H 0.7203 0.35776 0.58629 0.0
H521 H 0.74578 0.31213 0.67359 0.0
H522 H 0.71302 0.39504 0.66467 0.0
H523 H 0.73856 0.40053 0.64858 0.0
H524 H 0.72031 0.39241 0.60604 0.0
H525 H 0.75915 0.31955 0.74544 0.0
H526 H 0.76882 0.34498 0.75329 0.0
H527 H 0.74407 0.33871 0.77347 0.0
H528 H 0.7782 0.40935 0.77996 0.0
H529 H 0.71769 0.39592 0.82439 0.0
H530 H 0.77288 0.38881 0.66838 0.0
H531 H 0.78421 0.37041 0.70501 0.0
H532 H 0.79117 0.39679 0.71098 0.0
H533 H 0.69994 0.37273 0.72298 0.0
H534 H 0.69545 0.37487 0.78315 0.0
H535 H 0.70924 0.35349 0.76023 0.0
C536 C 0.65118 0.28271 0.38745 0.0
C537 C 0.67024 0.27309 0.38523 0.0
C538 C 0.63644 0.27974 0.35319 0.0
C539 C 0.64084 0.26687 0.31576 0.0
C540 C 0.65965 0.25643 0.31431 0.0
C541 C 0.67408 0.25964 0.349 0.0
C542 C 0.6165 0.29104 0.3561 0.0
C543 C 0.66492 0.24254 0.27503 0.0
C544 C 0.59964 0.24833 0.2337 0.0
C545 C 0.60239 0.26142 0.1969 0.0
C546 C 0.6116 0.25027 0.27333 0.0
C547 C 0.62664 0.26565 0.27613 0.0
C548 C 0.62894 0.27934 0.23974 0.0
C549 C 0.61678 0.27708 0.20069 0.0
C550 C 0.60864 0.23545 0.31152 0.0
C551 C 0.6447 0.29603 0.24141 0.0
H552 H 0.64794 0.29303 0.41533 0.0
H553 H 0.68865 0.25199 0.34697 0.0
H554 H 0.61576 0.30265 0.32907 0.0
H555 H 0.60357 0.28047 0.3504 0.0
H556 H 0.61456 0.29876 0.38948 0.0
H557 H 0.67949 0.23436 0.28067 0.0
H558 H 0.65268 0.23119 0.26935 0.0
H559 H 0.66619 0.25155 0.24352 0.0
H560 H 0.58862 0.23613 0.2309 0.0
H561 H 0.61871 0.28749 0.17274 0.0
H562 H 0.60678 0.24372 0.34422 0.0
H563 H 0.62233 0.2257 0.31491 0.0
H564 H 0.59519 0.22552 0.30578 0.0
H565 H 0.64266 0.30557 0.27229 0.0
H566 H 0.64392 0.30597 0.21116 0.0
H567 H 0.66014 0.28927 0.2434 0.0
C568 C 0.22853 0.15224 0.9005 0.0
C569 C 0.23375 0.17259 0.89261 0.0
C570 C 0.23214 0.13708 0.86764 0.0
C571 C 0.24093 0.14242 0.82568 0.0
C572 C 0.2468 0.16279 0.81808 0.0
C573 C 0.24326 0.17757 0.85169 0.0
C574 C 0.22597 0.11546 0.87725 0.0
C575 C 0.25607 0.16915 0.77365 0.0
C576 C 0.26326 0.10324 0.7445 0.0
C577 C 0.24745 0.10097 0.71259 0.0
C578 C 0.26111 0.1161 0.78253 0.0
C579 C 0.2428 0.12711 0.78841 0.0
C580 C 0.22661 0.12447 0.7569 0.0
C581 C 0.22911 0.11138 0.7195 0.0
C582 C 0.2786 0.1183 0.81574 0.0
C583 C 0.20691 0.13607 0.76168 0.0
H584 H 0.22131 0.14819 0.93211 0.0
H585 H 0.24734 0.19322 0.84511 0.0
H586 H 0.21321 0.11098 0.85442 0.0
H587 H 0.23878 0.10494 0.87025 0.0
H588 H 0.22111 0.11345 0.91296 0.0
H589 H 0.26067 0.18539 0.77391 0.0
H590 H 0.26961 0.15971 0.76605 0.0
H591 H 0.24494 0.16669 0.74561 0.0
H592 H 0.2774 0.09507 0.73951 0.0
H593 H 0.21693 0.1099 0.69464 0.0
H594 H 0.27328 0.11585 0.85091 0.0
H595 H 0.28476 0.13397 0.81432 0.0
H596 H 0.29112 0.10745 0.80843 0.0
H597 H 0.20033 0.13354 0.79572 0.0
H598 H 0.19547 0.13157 0.73549 0.0
H599 H 0.20987 0.1526 0.75866 0.0
C600 C 0.35425 0.72829 0.40519 0.0
C601 C 0.33514 0.73757 0.40002 0.0
C602 C 0.3704 0.73291 0.37615 0.0
C603 C 0.36744 0.74721 0.3411 0.0
C604 C 0.34845 0.75716 0.33662 0.0
C605 C 0.33253 0.75221 0.36606 0.0
C606 C 0.39043 0.72196 0.38206 0.0
C607 C 0.34473 0.77257 0.2998 0.0
C608 C 0.41408 0.76903 0.28329 0.0
C609 C 0.41501 0.75711 0.24362 0.0
C610 C 0.39862 0.76609 0.31526 0.0
C611 C 0.38382 0.7508 0.30746 0.0
C612 C 0.38473 0.73869 0.26756 0.0
C613 C 0.40028 0.74199 0.23617 0.0
C614 C 0.39809 0.77936 0.35731 0.0
C615 C 0.36934 0.72212 0.25812 0.0
H616 H 0.35654 0.71701 0.43133 0.0
H617 H 0.31789 0.75957 0.36181 0.0
H618 H 0.39337 0.71229 0.35178 0.0
H619 H 0.40307 0.73307 0.38486 0.0
H620 H 0.39067 0.71219 0.41263 0.0
H621 H 0.32962 0.78 0.30282 0.0
H622 H 0.35667 0.78448 0.30101 0.0
H623 H 0.34561 0.76503 0.26603 0.0
H624 H 0.4253 0.78086 0.28904 0.0
H625 H 0.40109 0.73251 0.20595 0.0
H626 H 0.39919 0.76982 0.3881 0.0
H627 H 0.38339 0.78761 0.35893 0.0
H628 H 0.41065 0.79064 0.35824 0.0
H629 H 0.36979 0.7108 0.28579 0.0
H630 H 0.3721 0.71413 0.22535 0.0
H631 H 0.35378 0.72864 0.25729 0.0
C632 C 0.78128 0.85441 0.89317 0.0
C633 C 0.76914 0.83686 0.89271 0.0
C634 C 0.7772 0.87059 0.86376 0.0
C635 C 0.7604 0.86936 0.83347 0.0
C636 C 0.74773 0.85198 0.8337 0.0
C637 C 0.75233 0.83587 0.86308 0.0
C638 C 0.79121 0.88877 0.86421 0.0
C639 C 0.72951 0.85024 0.80236 0.0
C640 C 0.74211 0.91881 0.78093 0.0
C641 C 0.75135 0.91807 0.73814 0.0
C642 C 0.74458 0.9029 0.81202 0.0
C643 C 0.75671 0.88591 0.8002 0.0
C644 C 0.76589 0.88496 0.75693 0.0
C645 C 0.76301 0.90097 0.72641 0.0
C646 C 0.73446 0.9044 0.85775 0.0
C647 C 0.77898 0.86712 0.74305 0.0
H648 H 0.79435 0.85531 0.91576 0.0
H649 H 0.74277 0.82246 0.8627 0.0
H650 H 0.79864 0.89016 0.83069 0.0
H651 H 0.78239 0.9029 0.87006 0.0
H652 H 0.80323 0.88767 0.89083 0.0
H653 H 0.72048 0.8363 0.80862 0.0
H654 H 0.71948 0.86367 0.80663 0.0
H655 H 0.73459 0.85 0.76653 0.0
H656 H 0.73324 0.93202 0.79051 0.0
H657 H 0.76987 0.90003 0.69312 0.0
H658 H 0.74619 0.90493 0.88504 0.0
H659 H 0.72499 0.89074 0.86357 0.0
H660 H 0.7247 0.91811 0.86086 0.0
H661 H 0.79209 0.86572 0.7668 0.0
H662 H 0.78487 0.86861 0.708 0.0
H663 H 0.77012 0.85282 0.74505 0.0
C664 C 0.84985 0.78301 0.88513 0.0
C665 C 0.83351 0.76961 0.89109 0.0
C666 C 0.86566 0.77834 0.8551 0.0
C667 C 0.86538 0.75962 0.83104 0.0
C668 C 0.84926 0.74574 0.8379 0.0
C669 C 0.8334 0.751 0.86747 0.0
C670 C 0.88237 0.79371 0.84816 0.0
C671 C 0.84865 0.72547 0.81356 0.0
C672 C 0.8946 0.75785 0.72042 0.0
C673 C 0.91322 0.7493 0.73402 0.0
C674 C 0.87881 0.76095 0.75146 0.0
C675 C 0.88152 0.75508 0.79723 0.0
C676 C 0.89998 0.7458 0.81095 0.0
C677 C 0.91565 0.74313 0.77928 0.0
C678 C 0.8594 0.771 0.73548 0.0
C679 C 0.90335 0.73912 0.85935 0.0
H680 H 0.84999 0.79749 0.90299 0.0
H681 H 0.82091 0.7405 0.8722 0.0
H682 H 0.89741 0.78676 0.85541 0.0
H683 H 0.88242 0.79859 0.81218 0.0
H684 H 0.88059 0.80738 0.87017 0.0
H685 H 0.83579 0.71586 0.82483 0.0
H686 H 0.84716 0.72783 0.77643 0.0
H687 H 0.86308 0.71711 0.81945 0.0
H688 H 0.89236 0.76224 0.68535 0.0
H689 H 0.93001 0.73667 0.79031 0.0
H690 H 0.85713 0.78549 0.75432 0.0
H691 H 0.84617 0.76114 0.74267 0.0
H692 H 0.85954 0.77428 0.69854 0.0
H693 H 0.90356 0.75259 0.88226 0.0
H694 H 0.91789 0.73073 0.86376 0.0
H695 H 0.89066 0.72924 0.87027 0.0
C696 C 0.72699 0.35674 0.40543 0.0
C697 C 0.73614 0.33761 0.39973 0.0
C698 C 0.73143 0.37289 0.37629 0.0
C699 C 0.74542 0.36991 0.34059 0.0
C700 C 0.75526 0.35089 0.33556 0.0
C701 C 0.7505 0.33498 0.36513 0.0
C702 C 0.72063 0.39295 0.38282 0.0
C703 C 0.77034 0.34715 0.29803 0.0
C704 C 0.73955 0.40289 0.23609 0.0
C705 C 0.75486 0.41746 0.24296 0.0
C706 C 0.73638 0.38734 0.26754 0.0
C707 C 0.74883 0.38629 0.30692 0.0
C708 C 0.7643 0.40095 0.31416 0.0
C709 C 0.76711 0.41639 0.28212 0.0
C710 C 0.71962 0.37209 0.2587 0.0
C711 C 0.77792 0.40029 0.35565 0.0
H712 H 0.71593 0.35904 0.43207 0.0
H713 H 0.75776 0.32033 0.36045 0.0
H714 H 0.73183 0.40552 0.38522 0.0
H715 H 0.7107 0.39598 0.35299 0.0
H716 H 0.71112 0.3932 0.41383 0.0
H717 H 0.77771 0.332 0.30059 0.0
H718 H 0.76251 0.34812 0.2646 0.0
H719 H 0.78233 0.359 0.29882 0.0
H720 H 0.72982 0.4038 0.20628 0.0
H721 H 0.77911 0.42747 0.28741 0.0
H722 H 0.70853 0.37257 0.28687 0.0
H723 H 0.72604 0.3565 0.25748 0.0
H724 H 0.71138 0.37495 0.2263 0.0
H725 H 0.76862 0.40137 0.38685 0.0
H726 H 0.78926 0.41279 0.35625 0.0
H727 H 0.78612 0.38557 0.35678 0.0
C728 C 0.15046 0.22759 0.89259 0.0
C729 C 0.16945 0.23737 0.89185 0.0
C730 C 0.1359 0.23082 0.8582 0.0
C731 C 0.14041 0.2441 0.82211 0.0
C732 C 0.15908 0.2548 0.82239 0.0
C733 C 0.17333 0.25135 0.85722 0.0
C734 C 0.1161 0.21924 0.85934 0.0
C735 C 0.16446 0.26914 0.78459 0.0
C736 C 0.11756 0.23396 0.70539 0.0
C737 C 0.10275 0.24924 0.70207 0.0
C738 C 0.12952 0.23186 0.74469 0.0
C739 C 0.12661 0.24532 0.78183 0.0
C740 C 0.11122 0.26036 0.77938 0.0
C741 C 0.09945 0.26213 0.73949 0.0
C742 C 0.14566 0.21552 0.74597 0.0
C743 C 0.10762 0.27493 0.81835 0.0
H744 H 0.14718 0.21687 0.91928 0.0
H745 H 0.18785 0.25911 0.85633 0.0
H746 H 0.10306 0.22963 0.85349 0.0
H747 H 0.11585 0.2077 0.83164 0.0
H748 H 0.1139 0.21137 0.89215 0.0
H749 H 0.17874 0.27764 0.79182 0.0
H750 H 0.16639 0.26041 0.7525 0.0
H751 H 0.152 0.28022 0.77896 0.0
H752 H 0.11992 0.22369 0.67694 0.0
H753 H 0.0881 0.27403 0.73705 0.0
H754 H 0.14347 0.20568 0.77593 0.0
H755 H 0.16091 0.2226 0.74944 0.0
H756 H 0.14547 0.20581 0.71491 0.0
H757 H 0.10552 0.26646 0.85037 0.0
H758 H 0.09408 0.2847 0.81252 0.0
H759 H 0.12112 0.28485 0.82316 0.0
C760 C 0.28168 0.65191 0.38941 0.0
C761 C 0.27159 0.6707 0.38718 0.0
C762 C 0.2791 0.63714 0.35507 0.0
C763 C 0.26616 0.64126 0.31762 0.0
C764 C 0.25519 0.65975 0.31628 0.0
C765 C 0.25801 0.67421 0.35103 0.0
C766 C 0.29093 0.61752 0.35787 0.0
C767 C 0.24117 0.66471 0.277 0.0
C768 C 0.27713 0.61817 0.20203 0.0
C769 C 0.26176 0.60349 0.19766 0.0
C770 C 0.2791 0.63007 0.24152 0.0
C771 C 0.26543 0.62719 0.27776 0.0
C772 C 0.2504 0.61183 0.27442 0.0
C773 C 0.24873 0.60015 0.23433 0.0
C774 C 0.29541 0.64622 0.24377 0.0
C775 C 0.23563 0.60825 0.31245 0.0
H776 H 0.29212 0.64894 0.41725 0.0
H777 H 0.24997 0.68856 0.34905 0.0
H778 H 0.28076 0.60434 0.3516 0.0
H779 H 0.30273 0.61722 0.33116 0.0
H780 H 0.29853 0.61566 0.39141 0.0
H781 H 0.23254 0.679 0.28279 0.0
H782 H 0.2502 0.66634 0.24557 0.0
H783 H 0.23019 0.65216 0.27105 0.0
H784 H 0.28751 0.62054 0.17417 0.0
H785 H 0.23676 0.58891 0.23109 0.0
H786 H 0.30491 0.64429 0.27474 0.0
H787 H 0.28825 0.66146 0.24597 0.0
H788 H 0.30546 0.64582 0.21365 0.0
H789 H 0.2439 0.6066 0.3452 0.0
H790 H 0.22618 0.59448 0.30644 0.0
H791 H 0.22538 0.62156 0.31591 0.0
C792 C 0.35098 0.73027 0.61882 0.0
C793 C 0.33036 0.73431 0.62698 0.0
C794 C 0.36589 0.73426 0.6522 0.0
C795 C 0.35999 0.74224 0.69491 0.0
C796 C 0.3393 0.74682 0.70295 0.0
C797 C 0.32477 0.74292 0.66885 0.0
C798 C 0.38786 0.72948 0.64219 0.0
C799 C 0.33237 0.75519 0.74818 0.0
C800 C 0.3917 0.73166 0.80026 0.0
C801 C 0.40081 0.75059 0.80864 0.0
C802 C 0.37886 0.72858 0.76256 0.0
C803 C 0.37517 0.74478 0.73227 0.0
C804 C 0.38493 0.76372 0.73959 0.0
C805 C 0.39754 0.76644 0.7779 0.0
C806 C 0.36858 0.70822 0.75622 0.0
C807 C 0.3816 0.78125 0.70768 0.0
H808 H 0.35549 0.72376 0.58649 0.0
H809 H 0.30891 0.74608 0.67563 0.0
H810 H 0.39756 0.74287 0.64992 0.0
H811 H 0.39316 0.71694 0.66426 0.0
H812 H 0.39015 0.7249 0.60619 0.0
H813 H 0.31583 0.75864 0.74841 0.0
H814 H 0.33567 0.74403 0.77528 0.0
H815 H 0.34085 0.76929 0.75684 0.0
H816 H 0.39399 0.71944 0.82422 0.0
H817 H 0.40473 0.78104 0.78406 0.0
H818 H 0.37148 0.70213 0.72164 0.0
H819 H 0.35189 0.71005 0.75958 0.0
H820 H 0.37388 0.69689 0.78145 0.0
H821 H 0.38437 0.77636 0.67212 0.0
H822 H 0.39165 0.79436 0.71591 0.0
H823 H 0.36556 0.7864 0.70957 0.0
C824 C 0.78022 0.8524 0.1204 0.0
C825 C 0.76819 0.83479 0.11786 0.0
C826 C 0.77722 0.86703 0.1547 0.0
C827 C 0.76177 0.86404 0.18713 0.0
C828 C 0.74887 0.84689 0.18332 0.0
C829 C 0.75224 0.83247 0.1488 0.0
C830 C 0.79127 0.88514 0.15759 0.0
C831 C 0.73212 0.84324 0.21705 0.0
C832 C 0.76971 0.88567 0.30575 0.0
C833 C 0.75699 0.90279 0.30546 0.0
C834 C 0.77156 0.87314 0.26727 0.0
C835 C 0.76033 0.87774 0.22745 0.0
C836 C 0.74755 0.89506 0.2267 0.0
C837 C 0.74602 0.90738 0.26575 0.0
C838 C 0.78532 0.85478 0.26951 0.0
C839 C 0.73539 0.90045 0.18479 0.0
H840 H 0.79253 0.85443 0.09665 0.0
H841 H 0.74272 0.81905 0.14698 0.0
H842 H 0.78239 0.89939 0.1613 0.0
H843 H 0.80118 0.88383 0.18811 0.0
H844 H 0.80109 0.88637 0.12724 0.0
H845 H 0.72222 0.83028 0.20687 0.0
H846 H 0.73888 0.83997 0.25085 0.0
H847 H 0.72255 0.85702 0.22083 0.0
H848 H 0.77795 0.88179 0.33651 0.0
H849 H 0.73631 0.92069 0.26516 0.0
H850 H 0.7968 0.85544 0.24218 0.0
H851 H 0.77629 0.84074 0.26394 0.0
H852 H 0.79339 0.85363 0.30269 0.0
H853 H 0.74569 0.90235 0.15549 0.0
H854 H 0.72648 0.91465 0.18942 0.0
H855 H 0.72476 0.88791 0.176 0.0
C856 C 0.6672 0.25557 0.64584 0.0
C857 C 0.6652 0.2699 0.61102 0.0
C858 C 0.65098 0.25139 0.67508 0.0
C859 C 0.63228 0.26178 0.66949 0.0
C860 C 0.62992 0.27576 0.63358 0.0
C861 C 0.64637 0.27963 0.60481 0.0
C862 C 0.65407 0.23631 0.71287 0.0
C863 C 0.61021 0.28712 0.62642 0.0
C864 C 0.58503 0.24133 0.72747 0.0
C865 C 0.58419 0.25358 0.76667 0.0
C866 C 0.60057 0.2438 0.69548 0.0
C867 C 0.61559 0.25892 0.70279 0.0
C868 C 0.61473 0.27143 0.7421 0.0
C869 C 0.59906 0.26861 0.77348 0.0
C870 C 0.60101 0.23014 0.65404 0.0
C871 C 0.63037 0.28781 0.75105 0.0
H872 H 0.6816 0.24787 0.65095 0.0
H873 H 0.64455 0.29067 0.57799 0.0
H874 H 0.65309 0.24424 0.74619 0.0
H875 H 0.64189 0.22466 0.71182 0.0
H876 H 0.66904 0.22854 0.71086 0.0
H877 H 0.61041 0.29654 0.59531 0.0
H878 H 0.59731 0.2763 0.62383 0.0
H879 H 0.60731 0.2972 0.65607 0.0
H880 H 0.57372 0.22955 0.7222 0.0
H881 H 0.59834 0.27836 0.80329 0.0
H882 H 0.61544 0.22141 0.65343 0.0
H883 H 0.60049 0.23942 0.62278 0.0
H884 H 0.5881 0.21927 0.65308 0.0
H885 H 0.64579 0.28099 0.75283 0.0
H886 H 0.62754 0.29625 0.78321 0.0
H887 H 0.63034 0.29879 0.72267 0.0
C888 C 0.22212 0.15087 0.1137 0.0
C889 C 0.23195 0.16968 0.1194 0.0
C890 C 0.22608 0.13464 0.14316 0.0
C891 C 0.24024 0.1372 0.17921 0.0
C892 C 0.25062 0.15592 0.1845 0.0
C893 C 0.24635 0.17193 0.15461 0.0
C894 C 0.2147 0.1149 0.13635 0.0
C895 C 0.2659 0.15922 0.22242 0.0
C896 C 0.23445 0.10391 0.28313 0.0
C897 C 0.24946 0.08908 0.27607 0.0
C898 C 0.23134 0.11963 0.25192 0.0
C899 C 0.24352 0.12059 0.21259 0.0
C900 C 0.25868 0.10566 0.20516 0.0
C901 C 0.26145 0.09007 0.23695 0.0
C902 C 0.21493 0.13518 0.26098 0.0
C903 C 0.27202 0.10621 0.16372 0.0
H904 H 0.21101 0.14887 0.08665 0.0
H905 H 0.25411 0.18632 0.15934 0.0
H906 H 0.22557 0.10207 0.1335 0.0
H907 H 0.20502 0.11197 0.16626 0.0
H908 H 0.20487 0.11503 0.10548 0.0
H909 H 0.27345 0.17429 0.2205 0.0
H910 H 0.2582 0.15811 0.25569 0.0
H911 H 0.27774 0.14722 0.22139 0.0
H912 H 0.22491 0.10308 0.3129 0.0
H913 H 0.27322 0.07881 0.23151 0.0
H914 H 0.20365 0.13504 0.23275 0.0
H915 H 0.22166 0.15062 0.26257 0.0
H916 H 0.20684 0.13234 0.29328 0.0
H917 H 0.26249 0.10548 0.13247 0.0
H918 H 0.28309 0.09347 0.16287 0.0
H919 H 0.28053 0.12075 0.16295 0.0
C920 C 0.2248 0.30891 0.05695 0.0
C921 C 0.2289 0.29841 0.01631 0.0
C922 C 0.22504 0.33025 0.05891 0.0
C923 C 0.22963 0.34141 0.01941 0.0
C924 C 0.23346 0.33096 0.97815 0.0
C925 C 0.23297 0.30963 0.97705 0.0
C926 C 0.22072 0.34085 0.10348 0.0
C927 C 0.23851 0.3423 0.93534 0.0
C928 C 0.21581 0.39757 0.01496 0.0
C929 C 0.23436 0.4068 0.02671 0.0
C930 C 0.214 0.3763 0.0125 0.0
C931 C 0.23121 0.36399 0.02165 0.0
C932 C 0.25003 0.37326 0.033 0.0
C933 C 0.25136 0.39452 0.03551 0.0
C934 C 0.19365 0.36699 1.00057 0.0
C935 C 0.26879 0.3607 0.04252 0.0
H936 H 0.22152 0.30045 0.08743 0.0
H937 H 0.23619 0.30174 0.94545 0.0
H938 H 0.23435 0.34946 0.11497 0.0
H939 H 0.2082 0.35199 0.09906 0.0
H940 H 0.21645 0.33004 0.13054 0.0
H941 H 0.24044 0.33196 0.90565 0.0
H942 H 0.22632 0.3534 0.92735 0.0
H943 H 0.25279 0.35103 0.94048 0.0
H944 H 0.20257 0.40698 0.00857 0.0
H945 H 0.2658 0.40158 0.04401 0.0
H946 H 0.18855 0.35712 0.02862 0.0
H947 H 0.19503 0.35723 0.96984 0.0
H948 H 0.18178 0.37866 0.99417 0.0
H949 H 0.26604 0.35051 0.07163 0.0
H950 H 0.28231 0.37024 0.05041 0.0
H951 H 0.27226 0.35091 0.0127 0.0
C952 C 0.1941 0.73119 0.53775 0.0
C953 C 0.20568 0.7289 0.49814 0.0
C954 C 0.17277 0.73129 0.53597 0.0
C955 C 0.16269 0.7289 0.49362 0.0
C956 C 0.17422 0.7261 0.45364 0.0
C957 C 0.19556 0.7262 0.45634 0.0
C958 C 0.16102 0.73443 0.57932 0.0
C959 C 0.164 0.72333 0.40789 0.0
C960 C 0.1068 0.71395 0.49296 0.0
C961 C 0.09727 0.7327 0.4853 0.0
C962 C 0.12809 0.71245 0.49566 0.0
C963 C 0.1401 0.73015 0.49094 0.0
C964 C 0.13055 0.74914 0.48376 0.0
C965 C 0.10926 0.75017 0.48091 0.0
C966 C 0.13774 0.69191 0.50308 0.0
C967 C 0.14281 0.7684 0.47906 0.0
H968 H 0.2017 0.7333 0.57025 0.0
H969 H 0.20431 0.7243 0.42557 0.0
H970 H 0.15204 0.74867 0.57721 0.0
H971 H 0.1501 0.7218 0.584 0.0
H972 H 0.17112 0.73537 0.60971 0.0
H973 H 0.17509 0.72033 0.38039 0.0
H974 H 0.15307 0.71051 0.40898 0.0
H975 H 0.15521 0.73718 0.39928 0.0
H976 H 0.0976 0.70037 0.4959 0.0
H977 H 0.10196 0.76474 0.47556 0.0
H978 H 0.14729 0.69226 0.53431 0.0
H979 H 0.14788 0.68812 0.47431 0.0
H980 H 0.12626 0.67965 0.5063 0.0
H981 H 0.15235 0.77087 0.50986 0.0
H982 H 0.13303 0.78198 0.47402 0.0
H983 H 0.15323 0.76698 0.44978 0.0
C984 C 0.77571 0.69773 0.03915 0.0
C985 C 0.77169 0.70849 0.99907 0.0
C986 C 0.7762 0.67639 0.03926 0.0
C987 C 0.77243 0.6655 0.9984 0.0
C988 C 0.76851 0.67622 0.95778 0.0
C989 C 0.76826 0.69756 0.95856 0.0
C990 C 0.78061 0.66551 0.08319 0.0
C991 C 0.76433 0.66514 0.91355 0.0
C992 C 0.78976 0.61056 0.98722 0.0
C993 C 0.77164 0.59995 0.99502 0.0
C994 C 0.79032 0.63189 0.98886 0.0
C995 C 0.77229 0.64287 0.9982 0.0
C996 C 0.754 0.63223 0.0066 0.0
C997 C 0.75392 0.61091 0.00504 0.0
C998 C 0.81015 0.64267 0.9802 0.0
C999 C 0.73444 0.6434 0.01639 0.0
H1000 H 0.7785 0.70597 0.07062 0.0
H1001 H 0.7651 0.70567 0.92741 0.0
H1002 H 0.76746 0.65584 0.09226 0.0
H1003 H 0.79392 0.65532 0.07903 0.0
H1004 H 0.78375 0.6762 0.11179 0.0
H1005 H 0.76173 0.67571 0.88487 0.0
H1006 H 0.77731 0.65507 0.90507 0.0
H1007 H 0.75072 0.65533 0.917 0.0
H1008 H 0.80355 0.60215 0.97996 0.0
H1009 H 0.73982 0.6028 0.01053 0.0
H1010 H 0.81404 0.65276 0.00938 0.0
H1011 H 0.80861 0.65243 0.94984 0.0
H1012 H 0.82293 0.63191 0.97468 0.0
H1013 H 0.73647 0.65356 0.04634 0.0
H1014 H 0.72161 0.63288 0.02302 0.0
H1015 H 0.73029 0.65312 0.98715 0.0
C1016 C 0.80536 0.26887 0.55465 0.0
C1017 C 0.79523 0.27339 0.5138 0.0
C1018 C 0.82671 0.26854 0.5573 0.0
C1019 C 0.83828 0.27299 0.51829 0.0
C1020 C 0.82819 0.27788 0.47716 0.0
C1021 C 0.80683 0.27795 0.47535 0.0
C1022 C 0.83689 0.26315 0.60175 0.0
C1023 C 0.83996 0.28291 0.43492 0.0
C1024 C 0.89354 0.28867 0.53579 0.0
C1025 C 0.9039 0.27054 0.52583 0.0
C1026 C 0.87222 0.28975 0.53306 0.0
C1027 C 0.86095 0.27224 0.52037 0.0
C1028 C 0.87132 0.25393 0.51004 0.0
C1029 C 0.89266 0.25332 0.51274 0.0
C1030 C 0.86176 0.30961 0.54388 0.0
C1031 C 0.85986 0.23489 0.49669 0.0
H1032 H 0.79661 0.26527 0.58455 0.0
H1033 H 0.79922 0.28158 0.44365 0.0
H1034 H 0.8464 0.24937 0.59718 0.0
H1035 H 0.84715 0.27563 0.61293 0.0
H1036 H 0.82575 0.26027 0.62909 0.0
H1037 H 0.82985 0.28695 0.40596 0.0
H1038 H 0.85042 0.29581 0.44189 0.0
H1039 H 0.84945 0.26972 0.42474 0.0
H1040 H 0.90215 0.30209 0.5454 0.0
H1041 H 0.90054 0.2392 0.50554 0.0
H1042 H 0.85136 0.30763 0.57298 0.0
H1043 H 0.85234 0.31445 0.51446 0.0
H1044 H 0.87273 0.32192 0.55243 0.0
H1045 H 0.84947 0.23049 0.52441 0.0
H1046 H 0.87018 0.22193 0.48934 0.0
H1047 H 0.85033 0.23774 0.46614 0.0
C1048 C 0.72215 0.19705 0.53686 0.0
C1049 C 0.72743 0.2083 0.49839 0.0
C1050 C 0.72158 0.17573 0.53551 0.0
C1051 C 0.72657 0.16534 0.49482 0.0
C1052 C 0.73166 0.17655 0.45571 0.0
C1053 C 0.73195 0.19788 0.4579 0.0
C1054 C 0.71589 0.16432 0.57781 0.0
C1055 C 0.73717 0.166 0.41176 0.0
C1056 C 0.74552 0.11091 0.50282 0.0
C1057 C 0.72827 0.09982 0.48925 0.0
C1058 C 0.74514 0.13223 0.50495 0.0
C1059 C 0.72702 0.14271 0.4935 0.0
C1060 C 0.70947 0.1316 0.48039 0.0
C1061 C 0.71033 0.11029 0.47825 0.0
C1062 C 0.76422 0.14353 0.51878 0.0
C1063 C 0.68982 0.14223 0.4684 0.0
H1064 H 0.71849 0.20491 0.56825 0.0
H1065 H 0.73608 0.20637 0.428 0.0
H1066 H 0.70295 0.15396 0.57044 0.0
H1067 H 0.72887 0.15478 0.58909 0.0
H1068 H 0.71162 0.17467 0.60617 0.0
H1069 H 0.74034 0.17691 0.38413 0.0
H1070 H 0.75084 0.15638 0.41704 0.0
H1071 H 0.72463 0.15581 0.40057 0.0
H1072 H 0.7595 0.10293 0.51077 0.0
H1073 H 0.6969 0.10177 0.46818 0.0
H1074 H 0.7612 0.1533 0.54887 0.0
H1075 H 0.76901 0.15365 0.49092 0.0
H1076 H 0.77699 0.13311 0.52706 0.0
H1077 H 0.68487 0.15194 0.49725 0.0
H1078 H 0.67742 0.13136 0.45981 0.0
H1079 H 0.69217 0.15235 0.43899 0.0
C1080 C 0.30576 0.23553 0.05634 0.0
C1081 C 0.29512 0.23195 0.0155 0.0
C1082 C 0.32713 0.2357 0.05775 0.0
C1083 C 0.3382 0.23204 0.01745 0.0
C1084 C 0.32759 0.22804 0.9763 0.0
C1085 C 0.30622 0.22812 0.97577 0.0
C1086 C 0.33787 0.24014 0.10227 0.0
C1087 C 0.33883 0.22387 0.93268 0.0
C1088 C 0.39238 0.25207 0.01145 0.0
C1089 C 0.40386 0.23467 0.02147 0.0
C1090 C 0.37104 0.25139 0.00986 0.0
C1091 C 0.36087 0.23284 0.01819 0.0
C1092 C 0.37237 0.21516 0.0277 0.0
C1093 C 0.39371 0.21631 0.0294 0.0
C1094 C 0.35934 0.27062 0.99993 0.0
C1095 C 0.36213 0.19505 0.03628 0.0
H1096 H 0.2974 0.23856 0.08723 0.0
H1097 H 0.29822 0.22521 0.94406 0.0
H1098 H 0.34833 0.22748 0.11088 0.0
H1099 H 0.34726 0.25405 0.09918 0.0
H1100 H 0.32708 0.24234 0.13072 0.0
H1101 H 0.32836 0.22032 0.90388 0.0
H1102 H 0.34811 0.23729 0.92367 0.0
H1103 H 0.34944 0.21092 0.93722 0.0
H1104 H 0.40011 0.26636 0.00586 0.0
H1105 H 0.40249 0.20276 0.03667 0.0
H1106 H 0.3493 0.27441 0.0289 0.0
H1107 H 0.34943 0.26834 0.96965 0.0
H1108 H 0.36952 0.28376 0.99375 0.0
H1109 H 0.35213 0.19636 0.06632 0.0
H1110 H 0.37325 0.18263 0.04226 0.0
H1111 H 0.35233 0.1908 0.00684 0.0
C1112 C 0.26794 0.80674 0.55326 0.0
C1113 C 0.27099 0.79627 0.51212 0.0
C1114 C 0.26783 0.82808 0.55512 0.0
C1115 C 0.27097 0.83929 0.51495 0.0
C1116 C 0.27435 0.82886 0.47346 0.0
C1117 C 0.27426 0.80752 0.47251 0.0
C1118 C 0.2641 0.83865 0.60001 0.0
C1119 C 0.27791 0.84025 0.42995 0.0
C1120 C 0.2515 0.89369 0.51092 0.0
C1121 C 0.26922 0.90486 0.52045 0.0
C1122 C 0.25188 0.87236 0.50885 0.0
C1123 C 0.27044 0.86193 0.51624 0.0
C1124 C 0.28843 0.87313 0.52524 0.0
C1125 C 0.28759 0.89444 0.52736 0.0
C1126 C 0.23234 0.86098 0.49942 0.0
C1127 C 0.30855 0.86258 0.53286 0.0
H1128 H 0.26537 0.79826 0.58407 0.0
H1129 H 0.27675 0.79965 0.44054 0.0
H1130 H 0.27702 0.84888 0.60852 0.0
H1131 H 0.25026 0.84824 0.59754 0.0
H1132 H 0.26213 0.82776 0.62824 0.0
H1133 H 0.28081 0.8299 0.40072 0.0
H1134 H 0.26446 0.84978 0.42183 0.0
H1135 H 0.2911 0.85062 0.43415 0.0
H1136 H 0.23721 0.90162 0.50613 0.0
H1137 H 0.30137 0.903 0.53423 0.0
H1138 H 0.22885 0.85091 0.52834 0.0
H1139 H 0.23405 0.85114 0.4689 0.0
H1140 H 0.21924 0.87134 0.49387 0.0
H1141 H 0.30756 0.85247 0.56271 0.0
H1142 H 0.32121 0.8735 0.53865 0.0
H1143 H 0.31224 0.85287 0.50306 0.0
C1144 C 0.69472 0.7793 0.95722 0.0
C1145 C 0.70541 0.77517 0.99757 0.0
C1146 C 0.67336 0.77919 0.95586 0.0
C1147 C 0.66239 0.77469 0.99571 0.0
C1148 C 0.67305 0.77084 0.03669 0.0
C1149 C 0.69439 0.7712 0.03718 0.0
C1150 C 0.66253 0.78354 0.91159 0.0
C1151 C 0.6619 0.76588 0.07984 0.0
C1152 C 0.60634 0.78881 1.00156 0.0
C1153 C 0.59694 0.77031 0.99012 0.0
C1154 C 0.62764 0.79049 0.00353 0.0
C1155 C 0.6398 0.77322 0.99412 0.0
C1156 C 0.63038 0.75445 0.98312 0.0
C1157 C 0.60909 0.75324 0.98117 0.0
C1158 C 0.63713 0.81078 0.01515 0.0
C1159 C 0.6428 0.73563 0.97332 0.0
H1160 H 0.70304 0.78251 0.92649 0.0
H1161 H 0.70243 0.76796 0.06856 0.0
H1162 H 0.6538 0.76995 0.90035 0.0
H1163 H 0.65147 0.7961 0.9163 0.0
H1164 H 0.67322 0.78775 0.88422 0.0
H1165 H 0.6724 0.76395 0.10925 0.0
H1166 H 0.65089 0.77811 0.08808 0.0
H1167 H 0.65308 0.75165 0.075 0.0
H1168 H 0.59704 0.80211 0.00803 0.0
H1169 H 0.6019 0.73884 0.97288 0.0
H1170 H 0.64683 0.81583 0.98676 0.0
H1171 H 0.6471 0.80936 0.04554 0.0
H1172 H 0.62555 0.8227 0.02197 0.0
H1173 H 0.65284 0.7383 0.94387 0.0
H1174 H 0.63314 0.72216 0.96578 0.0
H1175 H 0.65276 0.73215 0.00285 0.0
loop_
_geom_bond_atom_site_label_1
_geom_bond_atom_site_label_2
_geom_bond_distance
_geom_bond_site_symmetry_2
_ccdc_geom_bond_type
Sc0 O3 2.025 . S
Sc0 O10 2.105 . S
Sc0 O13 2.105 . S
Sc0 O16 2.105 . S
Sc0 O19 2.105 . S
Sc1 O3 2.025 . S
Sc1 O11 2.120 . S
Sc1 O15 2.090 1_554 S
Sc1 O17 2.120 . S
Sc1 O21 2.090 1_554 S
Sc2 O3 2.025 1_556 S
Sc2 O12 2.105 . S
Sc2 O14 2.105 . S
Sc2 O18 2.105 . S
Sc2 O20 2.105 . S
O3 Sc0 2.025 . S
O3 Sc1 2.025 . S
O3 Sc2 2.025 1_554 S
C4 O10 1.268 . S
C4 O20 1.268 1_554 S
C5 O11 1.268 . S
C5 O19 1.268 . S
C6 O12 1.268 . S
C6 O21 1.268 . S
C7 O13 1.268 . S
C7 O17 1.268 . S
C8 O14 1.268 1_554 S
C8 O16 1.268 . S
C9 O15 1.268 . S
C9 O18 1.268 . S
O10 Sc0 2.105 . S
O10 C4 1.268 . S
O11 Sc1 2.120 . S
O11 C5 1.268 . S
O12 Sc2 2.105 . S
O12 C6 1.268 . S
O13 Sc0 2.105 . S
O13 C7 1.268 . S
O14 Sc2 2.105 . S
O14 C8 1.268 1_556 S
O15 Sc1 2.090 1_556 S
O15 C9 1.268 . S
O16 Sc0 2.105 . S
O16 C8 1.268 . S
O17 Sc1 2.120 . S
O17 C7 1.268 . S
O18 Sc2 2.105 . S
O18 C9 1.268 . S
O19 Sc0 2.105 . S
O19 C5 1.268 . S
O20 Sc2 2.105 . S
O20 C4 1.268 1_556 S
O21 Sc1 2.090 1_556 S
O21 C6 1.268 . S
Sc22 O25 2.025 . S
Sc22 O32 2.105 . S
Sc22 O35 2.105 . S
Sc22 O38 2.105 . S
Sc22 O41 2.105 . S
Sc23 O25 2.025 . S
Sc23 O33 2.105 . S
Sc23 O37 2.105 . S
Sc23 O39 2.105 . S
Sc23 O43 2.105 . S
Sc24 O25 2.025 . S
Sc24 O34 2.105 . S
Sc24 O36 2.105 . S
Sc24 O40 2.105 . S
Sc24 O42 2.105 . S
O25 Sc22 2.025 . S
O25 Sc23 2.025 . S
O25 Sc24 2.025 . S
C26 O32 1.268 . S
C26 O42 1.268 . S
C27 O33 1.268 . S
C27 O41 1.268 . S
C28 O34 1.268 . S
C28 O43 1.268 . S
C29 O35 1.268 . S
C29 O39 1.268 . S
C30 O36 1.268 . S
C30 O38 1.268 . S
C31 O37 1.268 . S
C31 O40 1.268 . S
O32 Sc22 2.105 . S
O32 C26 1.268 . S
O33 Sc23 2.105 . S
O33 C27 1.268 . S
O34 Sc24 2.105 . S
O34 C28 1.268 . S
O35 Sc22 2.105 . S
O35 C29 1.268 . S
O36 Sc24 2.105 . S
O36 C30 1.268 . S
O37 Sc23 2.105 . S
O37 C31 1.268 . S
O38 Sc22 2.105 . S
O38 C30 1.268 . S
O39 Sc23 2.105 . S
O39 C29 1.268 . S
O40 Sc24 2.105 . S
O40 C31 1.268 . S
O41 Sc22 2.105 . S
O41 C27 1.268 . S
O42 Sc24 2.105 . S
O42 C26 1.268 . S
O43 Sc23 2.105 . S
O43 C28 1.268 . S
Sc44 O47 2.025 1_556 S
Sc44 O54 2.105 . S
Sc44 O57 2.105 . S
Sc44 O60 2.105 . S
Sc44 O63 2.105 . S
Sc45 O47 2.025 . S
Sc45 O55 2.105 1_554 S
Sc45 O59 2.105 . S
Sc45 O61 2.105 1_554 S
Sc45 O65 2.105 . S
Sc46 O47 2.025 . S
Sc46 O56 2.105 . S
Sc46 O58 2.105 . S
Sc46 O62 2.105 . S
Sc46 O64 2.105 . S
O47 Sc44 2.025 1_554 S
O47 Sc45 2.025 . S
O47 Sc46 2.025 . S
C48 O54 1.268 1_554 S
C48 O64 1.268 . S
C49 O55 1.268 . S
C49 O63 1.268 . S
C50 O56 1.268 . S
C50 O65 1.268 . S
C51 O57 1.268 . S
C51 O61 1.268 . S
C52 O58 1.268 . S
C52 O60 1.268 1_554 S
C53 O59 1.268 . S
C53 O62 1.268 . S
O54 Sc44 2.105 . S
O54 C48 1.268 1_556 S
O55 Sc45 2.105 1_556 S
O55 C49 1.268 . S
O56 Sc46 2.105 . S
O56 C50 1.268 . S
O57 Sc44 2.105 . S
O57 C51 1.268 . S
O58 Sc46 2.105 . S
O58 C52 1.268 . S
O59 Sc45 2.105 . S
O59 C53 1.268 . S
O60 Sc44 2.105 . S
O60 C52 1.268 1_556 S
O61 Sc45 2.105 1_556 S
O61 C51 1.268 . S
O62 Sc46 2.105 . S
O62 C53 1.268 . S
O63 Sc44 2.105 . S
O63 C49 1.268 . S
O64 Sc46 2.105 . S
O64 C48 1.268 . S
O65 Sc45 2.105 . S
O65 C50 1.268 . S
Sc66 O69 2.025 . S
Sc66 O76 2.105 . S
Sc66 O79 2.105 . S
Sc66 O82 2.105 . S
Sc66 O85 2.105 . S
Sc67 O69 2.025 . S
Sc67 O77 2.105 . S
Sc67 O81 2.105 . S
Sc67 O83 2.105 . S
Sc67 O87 2.105 . S
Sc68 O69 2.025 . S
Sc68 O78 2.105 . S
Sc68 O80 2.105 . S
Sc68 O84 2.105 . S
Sc68 O86 2.105 . S
O69 Sc66 2.025 . S
O69 Sc67 2.025 . S
O69 Sc68 2.025 . S
C70 O76 1.268 . S
C70 O86 1.268 . S
C71 O77 1.268 . S
C71 O85 1.268 . S
C72 O78 1.268 . S
C72 O87 1.268 . S
C73 O79 1.268 . S
C73 O83 1.268 . S
C74 O80 1.268 . S
C74 O82 1.268 . S
C75 O81 1.268 . S
C75 O84 1.268 . S
O76 Sc66 2.105 . S
O76 C70 1.268 . S
O77 Sc67 2.105 . S
O77 C71 1.268 . S
O78 Sc68 2.105 . S
O78 C72 1.268 . S
O79 Sc66 2.105 . S
O79 C73 1.268 . S
O80 Sc68 2.105 . S
O80 C74 1.268 . S
O81 Sc67 2.105 . S
O81 C75 1.268 . S
O82 Sc66 2.105 . S
O82 C74 1.268 . S
O83 Sc67 2.105 . S
O83 C73 1.268 . S
O84 Sc68 2.105 . S
O84 C75 1.268 . S
O85 Sc66 2.105 . S
O85 C71 1.268 . S
O86 Sc68 2.105 . S
O86 C70 1.268 . S
O87 Sc67 2.105 . S
O87 C72 1.268 . S
C88 C89 1.264 . S
C88 C93 1.479 . S
C88 C98 1.465 . S
C89 C88 1.264 . S
C89 C91 1.339 . S
C89 H116 0.931 . S
C90 C91 1.395 . S
C90 C92 1.320 . S
C91 C89 1.339 . S
C91 C90 1.395 . S
C91 H117 0.929 . S
C92 C90 1.320 . S
C92 C93 1.405 . S
C92 H118 0.930 . S
C93 C88 1.479 . S
C93 C92 1.405 . S
C93 H119 0.931 . S
U94 O95 2.454 . S
U94 O96 2.458 1_556 S
U94 C97 2.984 . S
U94 C98 2.847 . S
U94 C111 2.882 1_556 S
U94 O112 2.441 . S
U94 O113 2.420 . S
U94 O114 2.455 1_556 S
U94 O115 2.449 1_556 S
O95 U94 2.454 . S
O95 C97 1.353 . S
O96 U94 2.458 1_554 S
O96 C97 1.286 1_554 S
C97 U94 2.984 . S
C97 O95 1.353 . S
C97 O96 1.286 1_556 S
C97 C99 1.363 . S
C98 C88 1.465 . S
C98 U94 2.847 . S
C98 O112 1.249 . S
C98 O113 1.202 . S
C99 C97 1.363 . S
C99 C101 1.415 . S
C99 C104 1.334 1_556 S
C100 C101 1.310 . S
C100 C103 1.461 1_556 S
C100 H120 0.932 . S
C101 C99 1.415 . S
C101 C100 1.310 . S
C101 H121 0.930 . S
C102 C103 1.474 . S
C102 C104 1.285 . S
C102 H122 0.929 . S
C103 C100 1.461 1_554 S
C103 C102 1.474 . S
C104 C99 1.334 1_554 S
C104 C102 1.285 . S
C104 H123 0.930 . S
C105 C108 1.424 . S
C105 C110 1.245 . S
C105 C111 1.428 . S
C106 C109 1.260 . S
C106 C110 1.477 . S
C106 H124 0.932 . S
C107 C108 1.384 . S
C107 C109 1.479 . S
C107 H125 0.929 . S
C108 C105 1.424 . S
C108 C107 1.384 . S
C108 H126 0.928 . S
C109 C106 1.260 . S
C109 C107 1.479 . S
C110 C105 1.245 . S
C110 C106 1.477 . S
C110 H127 0.932 . S
C111 U94 2.882 1_554 S
C111 C105 1.428 . S
C111 O114 1.301 . S
C111 O115 1.282 . S
O112 U94 2.441 . S
O112 C98 1.249 . S
O113 U94 2.420 . S
O113 C98 1.202 . S
O114 U94 2.455 1_554 S
O114 C111 1.301 . S
O115 U94 2.449 1_554 S
O115 C111 1.282 . S
H116 C89 0.931 . S
H117 C91 0.929 . S
H118 C92 0.930 . S
H119 C93 0.931 . S
H120 C100 0.932 . S
H121 C101 0.930 . S
H122 C102 0.929 . S
H123 C104 0.930 . S
H124 C106 0.932 . S
H125 C107 0.929 . S
H126 C108 0.928 . S
H127 C110 0.932 . S
C128 C129 1.264 . S
C128 C133 1.479 . S
C128 C138 1.465 . S
C129 C128 1.264 . S
C129 C131 1.339 . S
C129 H156 0.931 . S
C130 C131 1.395 . S
C130 C132 1.320 . S
C131 C129 1.339 . S
C131 C130 1.395 . S
C131 H157 0.929 . S
C132 C130 1.320 . S
C132 C133 1.405 . S
C132 H158 0.930 . S
C133 C128 1.479 . S
C133 C132 1.405 . S
C133 H159 0.931 . S
U134 O135 2.454 1_655 S
U134 O136 2.458 1_655 S
U134 C137 2.984 1_655 S
U134 C138 2.847 . S
U134 C151 2.882 . S
U134 O152 2.441 . S
U134 O153 2.420 . S
U134 O154 2.455 . S
U134 O155 2.449 . S
O135 U134 2.454 1_455 S
O135 C137 1.353 . S
O136 U134 2.458 1_455 S
O136 C137 1.286 . S
C137 U134 2.984 1_455 S
C137 O135 1.353 . S
C137 O136 1.286 . S
C137 C139 1.363 . S
C138 C128 1.465 . S
C138 U134 2.847 . S
C138 O152 1.249 . S
C138 O153 1.202 . S
C139 C137 1.363 . S
C139 C141 1.408 . S
C139 C144 1.342 . S
C140 C141 1.310 . S
C140 C143 1.461 . S
C140 H160 0.932 . S
C141 C139 1.408 . S
C141 C140 1.310 . S
C141 H161 0.930 . S
C142 C143 1.474 . S
C142 C144 1.285 . S
C142 H162 0.929 . S
C143 C140 1.461 . S
C143 C142 1.474 . S
C144 C139 1.342 . S
C144 C142 1.285 . S
C144 H163 0.930 . S
C145 C148 1.424 . S
C145 C150 1.245 . S
C145 C151 1.428 . S
C146 C149 1.260 . S
C146 C150 1.477 . S
C146 H164 0.932 . S
C147 C148 1.384 . S
C147 C149 1.479 . S
C147 H165 0.929 . S
C148 C145 1.424 . S
C148 C147 1.384 . S
C148 H166 0.928 . S
C149 C146 1.260 . S
C149 C147 1.479 . S
C150 C145 1.245 . S
C150 C146 1.477 . S
C150 H167 0.932 . S
C151 U134 2.882 . S
C151 C145 1.428 . S
C151 O154 1.301 . S
C151 O155 1.282 . S
O152 U134 2.441 . S
O152 C138 1.249 . S
O153 U134 2.420 . S
O153 C138 1.202 . S
O154 U134 2.455 . S
O154 C151 1.301 . S
O155 U134 2.449 . S
O155 C151 1.282 . S
H156 C129 0.931 . S
H157 C131 0.929 . S
H158 C132 0.930 . S
H159 C133 0.931 . S
H160 C140 0.932 . S
H161 C141 0.930 . S
H162 C142 0.929 . S
H163 C144 0.930 . S
H164 C146 0.932 . S
H165 C147 0.929 . S
H166 C148 0.928 . S
H167 C150 0.932 . S
C168 C169 1.264 . S
C168 C173 1.479 . S
C168 C178 1.465 . S
C169 C168 1.264 . S
C169 C171 1.339 . S
C169 H196 0.931 . S
C170 C171 1.395 . S
C170 C172 1.320 . S
C171 C169 1.339 . S
C171 C170 1.395 . S
C171 H197 0.929 . S
C172 C170 1.320 . S
C172 C173 1.405 . S
C172 H198 0.930 . S
C173 C168 1.479 . S
C173 C172 1.405 . S
C173 H199 0.931 . S
U174 O175 2.454 . S
U174 O176 2.458 1_554 S
U174 C177 2.984 . S
U174 C178 2.847 . S
U174 C191 2.882 1_554 S
U174 O192 2.441 . S
U174 O193 2.420 . S
U174 O194 2.455 1_554 S
U174 O195 2.449 1_554 S
O175 U174 2.454 . S
O175 C177 1.353 . S
O176 U174 2.458 1_556 S
O176 C177 1.286 1_556 S
C177 U174 2.984 . S
C177 O175 1.353 . S
C177 O176 1.286 1_554 S
C177 C179 1.363 . S
C178 C168 1.465 . S
C178 U174 2.847 . S
C178 O192 1.249 . S
C178 O193 1.202 . S
C179 C177 1.363 . S
C179 C181 1.408 . S
C179 C184 1.342 1_554 S
C180 C181 1.310 . S
C180 C183 1.461 . S
C180 H200 0.932 . S
C181 C179 1.408 . S
C181 C180 1.310 . S
C181 H201 0.930 . S
C182 C183 1.474 1_556 S
C182 C184 1.285 . S
C182 H202 0.929 . S
C183 C180 1.461 . S
C183 C182 1.474 1_554 S
C184 C179 1.342 1_556 S
C184 C182 1.285 . S
C184 H203 0.930 . S
C185 C188 1.424 . S
C185 C190 1.245 . S
C185 C191 1.428 . S
C186 C189 1.260 . S
C186 C190 1.477 . S
C186 H204 0.932 . S
C187 C188 1.384 . S
C187 C189 1.479 . S
C187 H205 0.929 . S
C188 C185 1.424 . S
C188 C187 1.384 . S
C188 H206 0.928 . S
C189 C186 1.260 . S
C189 C187 1.479 . S
C190 C185 1.245 . S
C190 C186 1.477 . S
C190 H207 0.932 . S
C191 U174 2.882 1_556 S
C191 C185 1.428 . S
C191 O194 1.301 . S
C191 O195 1.282 . S
O192 U174 2.441 . S
O192 C178 1.249 . S
O193 U174 2.420 . S
O193 C178 1.202 . S
O194 U174 2.455 1_556 S
O194 C191 1.301 . S
O195 U174 2.449 1_556 S
O195 C191 1.282 . S
H196 C169 0.931 . S
H197 C171 0.929 . S
H198 C172 0.930 . S
H199 C173 0.931 . S
H200 C180 0.932 . S
H201 C181 0.930 . S
H202 C182 0.929 . S
H203 C184 0.930 . S
H204 C186 0.932 . S
H205 C187 0.929 . S
H206 C188 0.928 . S
H207 C190 0.932 . S
C208 C209 1.264 . S
C208 C213 1.479 . S
C208 C218 1.465 . S
C209 C208 1.264 . S
C209 C211 1.339 . S
C209 H236 0.931 . S
C210 C211 1.395 . S
C210 C212 1.320 . S
C211 C209 1.339 . S
C211 C210 1.395 . S
C211 H237 0.929 . S
C212 C210 1.320 . S
C212 C213 1.405 . S
C212 H238 0.930 . S
C213 C208 1.479 . S
C213 C212 1.405 . S
C213 H239 0.931 . S
U214 O215 2.454 1_455 S
U214 O216 2.458 1_455 S
U214 C217 2.984 1_455 S
U214 C218 2.847 . S
U214 C231 2.882 . S
U214 O232 2.441 . S
U214 O233 2.420 . S
U214 O234 2.455 . S
U214 O235 2.449 . S
O215 U214 2.454 1_655 S
O215 C217 1.353 . S
O216 U214 2.458 1_655 S
O216 C217 1.286 . S
C217 U214 2.984 1_655 S
C217 O215 1.353 . S
C217 O216 1.286 . S
C217 C219 1.363 . S
C218 C208 1.465 . S
C218 U214 2.847 . S
C218 O232 1.249 . S
C218 O233 1.202 . S
C219 C217 1.363 . S
C219 C221 1.408 . S
C219 C224 1.342 . S
C220 C221 1.310 . S
C220 C223 1.461 . S
C220 H240 0.932 . S
C221 C219 1.408 . S
C221 C220 1.310 . S
C221 H241 0.930 . S
C222 C223 1.474 . S
C222 C224 1.285 . S
C222 H242 0.929 . S
C223 C220 1.461 . S
C223 C222 1.474 . S
C224 C219 1.342 . S
C224 C222 1.285 . S
C224 H243 0.930 . S
C225 C228 1.424 . S
C225 C230 1.245 . S
C225 C231 1.428 . S
C226 C229 1.260 . S
C226 C230 1.477 . S
C226 H244 0.932 . S
C227 C228 1.384 . S
C227 C229 1.479 . S
C227 H245 0.929 . S
C228 C225 1.424 . S
C228 C227 1.384 . S
C228 H246 0.928 . S
C229 C226 1.260 . S
C229 C227 1.479 . S
C230 C225 1.245 . S
C230 C226 1.477 . S
C230 H247 0.932 . S
C231 U214 2.882 . S
C231 C225 1.428 . S
C231 O234 1.301 . S
C231 O235 1.282 . S
O232 U214 2.441 . S
O232 C218 1.249 . S
O233 U214 2.420 . S
O233 C218 1.202 . S
O234 U214 2.455 . S
O234 C231 1.301 . S
O235 U214 2.449 . S
O235 C231 1.282 . S
H236 C209 0.931 . S
H237 C211 0.929 . S
H238 C212 0.930 . S
H239 C213 0.931 . S
H240 C220 0.932 . S
H241 C221 0.930 . S
H242 C222 0.929 . S
H243 C224 0.930 . S
H244 C226 0.932 . S
H245 C227 0.929 . S
H246 C228 0.928 . S
H247 C230 0.932 . S
C248 C249 1.264 . S
C248 C253 1.479 . S
C248 C258 1.465 . S
C249 C248 1.264 . S
C249 C251 1.339 . S
C249 H276 0.931 . S
C250 C251 1.395 . S
C250 C252 1.320 . S
C251 C249 1.339 . S
C251 C250 1.395 . S
C251 H277 0.929 . S
C252 C250 1.320 . S
C252 C253 1.405 . S
C252 H278 0.930 . S
C253 C248 1.479 . S
C253 C252 1.405 . S
C253 H279 0.931 . S
U254 O255 2.454 1_565 S
U254 O256 2.458 1_565 S
U254 C257 2.984 1_565 S
U254 C258 2.847 . S
U254 C271 2.882 . S
U254 O272 2.441 . S
U254 O273 2.420 . S
U254 O274 2.455 . S
U254 O275 2.449 . S
O255 U254 2.454 1_545 S
O255 C257 1.353 . S
O256 U254 2.458 1_545 S
O256 C257 1.286 . S
C257 U254 2.984 1_545 S
C257 O255 1.353 . S
C257 O256 1.286 . S
C257 C259 1.363 . S
C258 C248 1.465 . S
C258 U254 2.847 . S
C258 O272 1.249 . S
C258 O273 1.202 . S
C259 C257 1.363 . S
C259 C261 1.408 . S
C259 C264 1.342 . S
C260 C261 1.310 . S
C260 C263 1.461 . S
C260 H280 0.932 . S
C261 C259 1.408 . S
C261 C260 1.310 . S
C261 H281 0.930 . S
C262 C263 1.474 . S
C262 C264 1.285 . S
C262 H282 0.929 . S
C263 C260 1.461 . S
C263 C262 1.474 . S
C264 C259 1.342 . S
C264 C262 1.285 . S
C264 H283 0.930 . S
C265 C268 1.424 . S
C265 C270 1.245 . S
C265 C271 1.428 . S
C266 C269 1.260 . S
C266 C270 1.477 . S
C266 H284 0.932 . S
C267 C268 1.384 . S
C267 C269 1.479 . S
C267 H285 0.929 . S
C268 C265 1.424 . S
C268 C267 1.384 . S
C268 H286 0.928 . S
C269 C266 1.260 . S
C269 C267 1.479 . S
C270 C265 1.245 . S
C270 C266 1.477 . S
C270 H287 0.932 . S
C271 U254 2.882 . S
C271 C265 1.428 . S
C271 O274 1.301 . S
C271 O275 1.282 . S
O272 U254 2.441 . S
O272 C258 1.249 . S
O273 U254 2.420 . S
O273 C258 1.202 . S
O274 U254 2.455 . S
O274 C271 1.301 . S
O275 U254 2.449 . S
O275 C271 1.282 . S
H276 C249 0.931 . S
H277 C251 0.929 . S
H278 C252 0.930 . S
H279 C253 0.931 . S
H280 C260 0.932 . S
H281 C261 0.930 . S
H282 C262 0.929 . S
H283 C264 0.930 . S
H284 C266 0.932 . S
H285 C267 0.929 . S
H286 C268 0.928 . S
H287 C270 0.932 . S
C288 C289 1.264 . S
C288 C293 1.479 . S
C288 C298 1.465 . S
C289 C288 1.264 . S
C289 C291 1.339 . S
C289 H316 0.931 . S
C290 C291 1.395 . S
C290 C292 1.320 . S
C291 C289 1.339 . S
C291 C290 1.395 . S
C291 H317 0.929 . S
C292 C290 1.320 . S
C292 C293 1.405 . S
C292 H318 0.930 . S
C293 C288 1.479 . S
C293 C292 1.405 . S
C293 H319 0.931 . S
U294 O295 2.454 . S
U294 O296 2.458 1_556 S
U294 C297 2.984 . S
U294 C298 2.847 . S
U294 C311 2.882 1_556 S
U294 O312 2.441 . S
U294 O313 2.420 . S
U294 O314 2.455 1_556 S
U294 O315 2.449 1_556 S
O295 U294 2.454 . S
O295 C297 1.353 . S
O296 U294 2.458 1_554 S
O296 C297 1.286 1_554 S
C297 U294 2.984 . S
C297 O295 1.353 . S
C297 O296 1.286 1_556 S
C297 C299 1.363 . S
C298 C288 1.465 . S
C298 U294 2.847 . S
C298 O312 1.249 . S
C298 O313 1.202 . S
C299 C297 1.363 . S
C299 C301 1.412 . S
C299 C304 1.338 1_556 S
C300 C301 1.310 . S
C300 C303 1.461 1_556 S
C300 H320 0.932 . S
C301 C299 1.412 . S
C301 C300 1.310 . S
C301 H321 0.930 . S
C302 C303 1.474 . S
C302 C304 1.285 . S
C302 H322 0.929 . S
C303 C300 1.461 1_554 S
C303 C302 1.474 . S
C304 C299 1.338 1_554 S
C304 C302 1.285 . S
C304 H323 0.930 . S
C305 C308 1.424 . S
C305 C310 1.245 . S
C305 C311 1.428 . S
C306 C309 1.260 . S
C306 C310 1.477 . S
C306 H324 0.932 . S
C307 C308 1.384 . S
C307 C309 1.479 . S
C307 H325 0.929 . S
C308 C305 1.424 . S
C308 C307 1.384 . S
C308 H326 0.928 . S
C309 C306 1.260 . S
C309 C307 1.479 . S
C310 C305 1.245 . S
C310 C306 1.477 . S
C310 H327 0.932 . S
C311 U294 2.882 1_554 S
C311 C305 1.428 . S
C311 O314 1.301 . S
C311 O315 1.282 . S
O312 U294 2.441 . S
O312 C298 1.249 . S
O313 U294 2.420 . S
O313 C298 1.202 . S
O314 U294 2.455 1_554 S
O314 C311 1.301 . S
O315 U294 2.449 1_554 S
O315 C311 1.282 . S
H316 C289 0.931 . S
H317 C291 0.929 . S
H318 C292 0.930 . S
H319 C293 0.931 . S
H320 C300 0.932 . S
H321 C301 0.930 . S
H322 C302 0.929 . S
H323 C304 0.930 . S
H324 C306 0.932 . S
H325 C307 0.929 . S
H326 C308 0.928 . S
H327 C310 0.932 . S
C328 C329 1.264 . S
C328 C333 1.479 . S
C328 C338 1.465 . S
C329 C328 1.264 . S
C329 C331 1.339 . S
C329 H356 0.931 . S
C330 C331 1.395 . S
C330 C332 1.320 . S
C331 C329 1.339 . S
C331 C330 1.395 . S
C331 H357 0.929 . S
C332 C330 1.320 . S
C332 C333 1.405 . S
C332 H358 0.930 . S
C333 C328 1.479 . S
C333 C332 1.405 . S
C333 H359 0.931 . S
U334 O335 2.454 1_545 S
U334 O336 2.458 1_545 S
U334 C337 2.984 1_545 S
U334 C338 2.847 . S
U334 C351 2.882 . S
U334 O352 2.441 . S
U334 O353 2.420 . S
U334 O354 2.455 . S
U334 O355 2.449 . S
O335 U334 2.454 1_565 S
O335 C337 1.353 . S
O336 U334 2.458 1_565 S
O336 C337 1.286 . S
C337 U334 2.984 1_565 S
C337 O335 1.353 . S
C337 O336 1.286 . S
C337 C339 1.363 . S
C338 C328 1.465 . S
C338 U334 2.847 . S
C338 O352 1.249 . S
C338 O353 1.202 . S
C339 C337 1.363 . S
C339 C341 1.408 . S
C339 C344 1.342 . S
C340 C341 1.310 . S
C340 C343 1.461 . S
C340 H360 0.932 . S
C341 C339 1.408 . S
C341 C340 1.310 . S
C341 H361 0.930 . S
C342 C343 1.474 . S
C342 C344 1.285 . S
C342 H362 0.929 . S
C343 C340 1.461 . S
C343 C342 1.474 . S
C344 C339 1.342 . S
C344 C342 1.285 . S
C344 H363 0.930 . S
C345 C348 1.424 . S
C345 C350 1.245 . S
C345 C351 1.428 . S
C346 C349 1.260 . S
C346 C350 1.477 . S
C346 H364 0.932 . S
C347 C348 1.384 . S
C347 C349 1.479 . S
C347 H365 0.929 . S
C348 C345 1.424 . S
C348 C347 1.384 . S
C348 H366 0.928 . S
C349 C346 1.260 . S
C349 C347 1.479 . S
C350 C345 1.245 . S
C350 C346 1.477 . S
C350 H367 0.932 . S
C351 U334 2.882 . S
C351 C345 1.428 . S
C351 O354 1.301 . S
C351 O355 1.282 . S
O352 U334 2.441 . S
O352 C338 1.249 . S
O353 U334 2.420 . S
O353 C338 1.202 . S
O354 U334 2.455 . S
O354 C351 1.301 . S
O355 U334 2.449 . S
O355 C351 1.282 . S
H356 C329 0.931 . S
H357 C331 0.929 . S
H358 C332 0.930 . S
H359 C333 0.931 . S
H360 C340 0.932 . S
H361 C341 0.930 . S
H362 C342 0.929 . S
H363 C344 0.930 . S
H364 C346 0.932 . S
H365 C347 0.929 . S
H366 C348 0.928 . S
H367 C350 0.932 . S
C368 C369 1.264 . S
C368 C373 1.479 . S
C368 C378 1.465 . S
C369 C368 1.264 . S
C369 C371 1.339 . S
C369 H396 0.931 . S
C370 C371 1.395 . S
C370 C372 1.320 . S
C371 C369 1.339 . S
C371 C370 1.395 . S
C371 H397 0.929 . S
C372 C370 1.320 . S
C372 C373 1.405 . S
C372 H398 0.930 . S
C373 C368 1.479 . S
C373 C372 1.405 . S
C373 H399 0.931 . S
U374 O375 2.454 . S
U374 O376 2.458 1_554 S
U374 C377 2.984 . S
U374 C378 2.847 . S
U374 C391 2.882 1_554 S
U374 O392 2.441 . S
U374 O393 2.420 . S
U374 O394 2.455 1_554 S
U374 O395 2.449 1_554 S
O375 U374 2.454 . S
O375 C377 1.353 . S
O376 U374 2.458 1_556 S
O376 C377 1.286 1_556 S
C377 U374 2.984 . S
C377 O375 1.353 . S
C377 O376 1.286 1_554 S
C377 C379 1.363 . S
C378 C368 1.465 . S
C378 U374 2.847 . S
C378 O392 1.249 . S
C378 O393 1.202 . S
C379 C377 1.363 . S
C379 C381 1.408 . S
C379 C384 1.342 1_554 S
C380 C381 1.310 . S
C380 C383 1.461 . S
C380 H400 0.932 . S
C381 C379 1.408 . S
C381 C380 1.310 . S
C381 H401 0.930 . S
C382 C383 1.474 1_556 S
C382 C384 1.285 . S
C382 H402 0.929 . S
C383 C380 1.461 . S
C383 C382 1.474 1_554 S
C384 C379 1.342 1_556 S
C384 C382 1.285 . S
C384 H403 0.930 . S
C385 C388 1.424 . S
C385 C390 1.245 . S
C385 C391 1.428 . S
C386 C389 1.260 . S
C386 C390 1.477 . S
C386 H404 0.932 . S
C387 C388 1.384 . S
C387 C389 1.479 . S
C387 H405 0.929 . S
C388 C385 1.424 . S
C388 C387 1.384 . S
C388 H406 0.928 . S
C389 C386 1.260 . S
C389 C387 1.479 . S
C390 C385 1.245 . S
C390 C386 1.477 . S
C390 H407 0.932 . S
C391 U374 2.882 1_556 S
C391 C385 1.428 . S
C391 O394 1.301 . S
C391 O395 1.282 . S
O392 U374 2.441 . S
O392 C378 1.249 . S
O393 U374 2.420 . S
O393 C378 1.202 . S
O394 U374 2.455 1_556 S
O394 C391 1.301 . S
O395 U374 2.449 1_556 S
O395 C391 1.282 . S
H396 C369 0.931 . S
H397 C371 0.929 . S
H398 C372 0.930 . S
H399 C373 0.931 . S
H400 C380 0.932 . S
H401 C381 0.930 . S
H402 C382 0.929 . S
H403 C384 0.930 . S
H404 C386 0.932 . S
H405 C387 0.929 . S
H406 C388 0.928 . S
H407 C390 0.932 . S
C408 C409 1.391 . S
C408 C410 1.394 . S
C408 H424 0.931 . S
C409 C408 1.391 . S
C409 C413 1.376 . S
C410 C408 1.394 . S
C410 C411 1.369 . S
C410 C414 1.531 . S
C411 C410 1.369 . S
C411 C412 1.410 . S
C411 C419 1.503 . S
C412 C411 1.410 . S
C412 C413 1.392 . S
C412 C415 1.511 . S
C413 C409 1.376 . S
C413 C412 1.392 . S
C413 H425 0.929 . S
C414 C410 1.531 . S
C414 H426 0.960 . S
C414 H427 0.962 . S
C414 H428 0.960 . S
C415 C412 1.511 . S
C415 H429 0.961 . S
C415 H430 0.961 . S
C415 H431 0.961 . S
C416 C417 1.370 . S
C416 C418 1.363 . S
C416 H432 0.931 . S
C417 C416 1.370 . S
C417 C421 1.408 . S
C418 C416 1.363 . S
C418 C419 1.370 . S
C418 C422 1.524 . S
C419 C411 1.503 . S
C419 C418 1.370 . S
C419 C420 1.403 . S
C420 C419 1.403 . S
C420 C421 1.404 . S
C420 C423 1.539 . S
C421 C417 1.408 . S
C421 C420 1.404 . S
C421 H433 0.930 . S
C422 C418 1.524 . S
C422 H434 0.956 . S
C422 H435 0.961 . S
C422 H436 0.961 . S
C423 C420 1.539 . S
C423 H437 0.958 . S
C423 H438 0.961 . S
C423 H439 0.960 . S
H424 C408 0.931 . S
H425 C413 0.929 . S
H426 C414 0.960 . S
H427 C414 0.962 . S
H428 C414 0.960 . S
H429 C415 0.961 . S
H430 C415 0.961 . S
H431 C415 0.961 . S
H432 C416 0.931 . S
H433 C421 0.930 . S
H434 C422 0.956 . S
H435 C422 0.961 . S
H436 C422 0.961 . S
H437 C423 0.958 . S
H438 C423 0.961 . S
H439 C423 0.960 . S
C440 C441 1.391 . S
C440 C442 1.394 . S
C440 H456 0.931 . S
C441 C440 1.391 . S
C441 C445 1.376 . S
C442 C440 1.394 . S
C442 C443 1.369 . S
C442 C446 1.531 . S
C443 C442 1.369 . S
C443 C444 1.410 . S
C443 C451 1.503 . S
C444 C443 1.410 . S
C444 C445 1.392 . S
C444 C447 1.511 . S
C445 C441 1.376 . S
C445 C444 1.392 . S
C445 H457 0.929 . S
C446 C442 1.531 . S
C446 H458 0.960 . S
C446 H459 0.962 . S
C446 H460 0.960 . S
C447 C444 1.511 . S
C447 H461 0.961 . S
C447 H462 0.961 . S
C447 H463 0.961 . S
C448 C449 1.370 . S
C448 C450 1.363 . S
C448 H464 0.931 . S
C449 C448 1.370 . S
C449 C453 1.408 . S
C450 C448 1.363 . S
C450 C451 1.370 . S
C450 C454 1.524 . S
C451 C443 1.503 . S
C451 C450 1.370 . S
C451 C452 1.403 . S
C452 C451 1.403 . S
C452 C453 1.404 . S
C452 C455 1.539 . S
C453 C449 1.408 . S
C453 C452 1.404 . S
C453 H465 0.930 . S
C454 C450 1.524 . S
C454 H466 0.956 . S
C454 H467 0.961 . S
C454 H468 0.961 . S
C455 C452 1.539 . S
C455 H469 0.958 . S
C455 H470 0.961 . S
C455 H471 0.960 . S
H456 C440 0.931 . S
H457 C445 0.929 . S
H458 C446 0.960 . S
H459 C446 0.962 . S
H460 C446 0.960 . S
H461 C447 0.961 . S
H462 C447 0.961 . S
H463 C447 0.961 . S
H464 C448 0.931 . S
H465 C453 0.930 . S
H466 C454 0.956 . S
H467 C454 0.961 . S
H468 C454 0.961 . S
H469 C455 0.958 . S
H470 C455 0.961 . S
H471 C455 0.960 . S
C472 C473 1.391 . S
C472 C474 1.394 . S
C472 H488 0.931 . S
C473 C472 1.391 . S
C473 C477 1.376 . S
C474 C472 1.394 . S
C474 C475 1.369 . S
C474 C478 1.531 . S
C475 C474 1.369 . S
C475 C476 1.410 . S
C475 C483 1.503 . S
C476 C475 1.410 . S
C476 C477 1.392 . S
C476 C479 1.511 . S
C477 C473 1.376 . S
C477 C476 1.392 . S
C477 H489 0.929 . S
C478 C474 1.531 . S
C478 H490 0.960 . S
C478 H491 0.962 . S
C478 H492 0.960 . S
C479 C476 1.511 . S
C479 H493 0.961 . S
C479 H494 0.961 . S
C479 H495 0.961 . S
C480 C481 1.370 . S
C480 C482 1.363 . S
C480 H496 0.931 . S
C481 C480 1.370 . S
C481 C485 1.408 . S
C482 C480 1.363 . S
C482 C483 1.370 . S
C482 C486 1.524 . S
C483 C475 1.503 . S
C483 C482 1.370 . S
C483 C484 1.403 . S
C484 C483 1.403 . S
C484 C485 1.404 . S
C484 C487 1.539 . S
C485 C481 1.408 . S
C485 C484 1.404 . S
C485 H497 0.930 . S
C486 C482 1.524 . S
C486 H498 0.956 . S
C486 H499 0.961 . S
C486 H500 0.961 . S
C487 C484 1.539 . S
C487 H501 0.958 . S
C487 H502 0.961 . S
C487 H503 0.960 . S
H488 C472 0.931 . S
H489 C477 0.929 . S
H490 C478 0.960 . S
H491 C478 0.962 . S
H492 C478 0.960 . S
H493 C479 0.961 . S
H494 C479 0.961 . S
H495 C479 0.961 . S
H496 C480 0.931 . S
H497 C485 0.930 . S
H498 C486 0.956 . S
H499 C486 0.961 . S
H500 C486 0.961 . S
H501 C487 0.958 . S
H502 C487 0.961 . S
H503 C487 0.960 . S
C504 C505 1.391 . S
C504 C506 1.394 . S
C504 H520 0.931 . S
C505 C504 1.391 . S
C505 C509 1.376 . S
C506 C504 1.394 . S
C506 C507 1.369 . S
C506 C510 1.531 . S
C507 C506 1.369 . S
C507 C508 1.410 . S
C507 C515 1.503 . S
C508 C507 1.410 . S
C508 C509 1.392 . S
C508 C511 1.511 . S
C509 C505 1.376 . S
C509 C508 1.392 . S
C509 H521 0.929 . S
C510 C506 1.531 . S
C510 H522 0.960 . S
C510 H523 0.962 . S
C510 H524 0.960 . S
C511 C508 1.511 . S
C511 H525 0.961 . S
C511 H526 0.961 . S
C511 H527 0.961 . S
C512 C513 1.370 . S
C512 C514 1.363 . S
C512 H528 0.931 . S
C513 C512 1.370 . S
C513 C517 1.408 . S
C514 C512 1.363 . S
C514 C515 1.370 . S
C514 C518 1.524 . S
C515 C507 1.503 . S
C515 C514 1.370 . S
C515 C516 1.403 . S
C516 C515 1.403 . S
C516 C517 1.404 . S
C516 C519 1.539 . S
C517 C513 1.408 . S
C517 C516 1.404 . S
C517 H529 0.930 . S
C518 C514 1.524 . S
C518 H530 0.956 . S
C518 H531 0.961 . S
C518 H532 0.961 . S
C519 C516 1.539 . S
C519 H533 0.958 . S
C519 H534 0.961 . S
C519 H535 0.960 . S
H520 C504 0.931 . S
H521 C509 0.929 . S
H522 C510 0.960 . S
H523 C510 0.962 . S
H524 C510 0.960 . S
H525 C511 0.961 . S
H526 C511 0.961 . S
H527 C511 0.961 . S
H528 C512 0.931 . S
H529 C517 0.930 . S
H530 C518 0.956 . S
H531 C518 0.961 . S
H532 C518 0.961 . S
H533 C519 0.958 . S
H534 C519 0.961 . S
H535 C519 0.960 . S
C536 C537 1.391 . S
C536 C538 1.394 . S
C536 H552 0.931 . S
C537 C536 1.391 . S
C537 C541 1.376 . S
C538 C536 1.394 . S
C538 C539 1.369 . S
C538 C542 1.531 . S
C539 C538 1.369 . S
C539 C540 1.410 . S
C539 C547 1.503 . S
C540 C539 1.410 . S
C540 C541 1.392 . S
C540 C543 1.511 . S
C541 C537 1.376 . S
C541 C540 1.392 . S
C541 H553 0.929 . S
C542 C538 1.531 . S
C542 H554 0.960 . S
C542 H555 0.962 . S
C542 H556 0.960 . S
C543 C540 1.511 . S
C543 H557 0.961 . S
C543 H558 0.961 . S
C543 H559 0.961 . S
C544 C545 1.370 . S
C544 C546 1.363 . S
C544 H560 0.931 . S
C545 C544 1.370 . S
C545 C549 1.408 . S
C546 C544 1.363 . S
C546 C547 1.370 . S
C546 C550 1.524 . S
C547 C539 1.503 . S
C547 C546 1.370 . S
C547 C548 1.403 . S
C548 C547 1.403 . S
C548 C549 1.404 . S
C548 C551 1.539 . S
C549 C545 1.408 . S
C549 C548 1.404 . S
C549 H561 0.930 . S
C550 C546 1.524 . S
C550 H562 0.956 . S
C550 H563 0.961 . S
C550 H564 0.961 . S
C551 C548 1.539 . S
C551 H565 0.958 . S
C551 H566 0.961 . S
C551 H567 0.960 . S
H552 C536 0.931 . S
H553 C541 0.929 . S
H554 C542 0.960 . S
H555 C542 0.962 . S
H556 C542 0.960 . S
H557 C543 0.961 . S
H558 C543 0.961 . S
H559 C543 0.961 . S
H560 C544 0.931 . S
H561 C549 0.930 . S
H562 C550 0.956 . S
H563 C550 0.961 . S
H564 C550 0.961 . S
H565 C551 0.958 . S
H566 C551 0.961 . S
H567 C551 0.960 . S
C568 C569 1.391 . S
C568 C570 1.394 . S
C568 H584 0.931 . S
C569 C568 1.391 . S
C569 C573 1.376 . S
C570 C568 1.394 . S
C570 C571 1.369 . S
C570 C574 1.531 . S
C571 C570 1.369 . S
C571 C572 1.410 . S
C571 C579 1.503 . S
C572 C571 1.410 . S
C572 C573 1.392 . S
C572 C575 1.511 . S
C573 C569 1.376 . S
C573 C572 1.392 . S
C573 H585 0.929 . S
C574 C570 1.531 . S
C574 H586 0.960 . S
C574 H587 0.962 . S
C574 H588 0.960 . S
C575 C572 1.511 . S
C575 H589 0.961 . S
C575 H590 0.961 . S
C575 H591 0.961 . S
C576 C577 1.370 . S
C576 C578 1.363 . S
C576 H592 0.931 . S
C577 C576 1.370 . S
C577 C581 1.408 . S
C578 C576 1.363 . S
C578 C579 1.370 . S
C578 C582 1.524 . S
C579 C571 1.503 . S
C579 C578 1.370 . S
C579 C580 1.403 . S
C580 C579 1.403 . S
C580 C581 1.404 . S
C580 C583 1.539 . S
C581 C577 1.408 . S
C581 C580 1.404 . S
C581 H593 0.930 . S
C582 C578 1.524 . S
C582 H594 0.956 . S
C582 H595 0.961 . S
C582 H596 0.961 . S
C583 C580 1.539 . S
C583 H597 0.958 . S
C583 H598 0.961 . S
C583 H599 0.960 . S
H584 C568 0.931 . S
H585 C573 0.929 . S
H586 C574 0.960 . S
H587 C574 0.962 . S
H588 C574 0.960 . S
H589 C575 0.961 . S
H590 C575 0.961 . S
H591 C575 0.961 . S
H592 C576 0.931 . S
H593 C581 0.930 . S
H594 C582 0.956 . S
H595 C582 0.961 . S
H596 C582 0.961 . S
H597 C583 0.958 . S
H598 C583 0.961 . S
H599 C583 0.960 . S
C600 C601 1.391 . S
C600 C602 1.394 . S
C600 H616 0.931 . S
C601 C600 1.391 . S
C601 C605 1.376 . S
C602 C600 1.394 . S
C602 C603 1.369 . S
C602 C606 1.531 . S
C603 C602 1.369 . S
C603 C604 1.410 . S
C603 C611 1.503 . S
C604 C603 1.410 . S
C604 C605 1.392 . S
C604 C607 1.511 . S
C605 C601 1.376 . S
C605 C604 1.392 . S
C605 H617 0.929 . S
C606 C602 1.531 . S
C606 H618 0.960 . S
C606 H619 0.962 . S
C606 H620 0.960 . S
C607 C604 1.511 . S
C607 H621 0.961 . S
C607 H622 0.961 . S
C607 H623 0.961 . S
C608 C609 1.370 . S
C608 C610 1.363 . S
C608 H624 0.931 . S
C609 C608 1.370 . S
C609 C613 1.408 . S
C610 C608 1.363 . S
C610 C611 1.370 . S
C610 C614 1.524 . S
C611 C603 1.503 . S
C611 C610 1.370 . S
C611 C612 1.403 . S
C612 C611 1.403 . S
C612 C613 1.404 . S
C612 C615 1.539 . S
C613 C609 1.408 . S
C613 C612 1.404 . S
C613 H625 0.930 . S
C614 C610 1.524 . S
C614 H626 0.956 . S
C614 H627 0.961 . S
C614 H628 0.961 . S
C615 C612 1.539 . S
C615 H629 0.958 . S
C615 H630 0.961 . S
C615 H631 0.960 . S
H616 C600 0.931 . S
H617 C605 0.929 . S
H618 C606 0.960 . S
H619 C606 0.962 . S
H620 C606 0.960 . S
H621 C607 0.961 . S
H622 C607 0.961 . S
H623 C607 0.961 . S
H624 C608 0.931 . S
H625 C613 0.930 . S
H626 C614 0.956 . S
H627 C614 0.961 . S
H628 C614 0.961 . S
H629 C615 0.958 . S
H630 C615 0.961 . S
H631 C615 0.960 . S
C632 C633 1.391 . S
C632 C634 1.394 . S
C632 H648 0.931 . S
C633 C632 1.391 . S
C633 C637 1.376 . S
C634 C632 1.394 . S
C634 C635 1.369 . S
C634 C638 1.531 . S
C635 C634 1.369 . S
C635 C636 1.410 . S
C635 C643 1.503 . S
C636 C635 1.410 . S
C636 C637 1.392 . S
C636 C639 1.511 . S
C637 C633 1.376 . S
C637 C636 1.392 . S
C637 H649 0.929 . S
C638 C634 1.531 . S
C638 H650 0.960 . S
C638 H651 0.962 . S
C638 H652 0.960 . S
C639 C636 1.511 . S
C639 H653 0.961 . S
C639 H654 0.961 . S
C639 H655 0.961 . S
C640 C641 1.370 . S
C640 C642 1.363 . S
C640 H656 0.931 . S
C641 C640 1.370 . S
C641 C645 1.408 . S
C642 C640 1.363 . S
C642 C643 1.370 . S
C642 C646 1.524 . S
C643 C635 1.503 . S
C643 C642 1.370 . S
C643 C644 1.403 . S
C644 C643 1.403 . S
C644 C645 1.404 . S
C644 C647 1.539 . S
C645 C641 1.408 . S
C645 C644 1.404 . S
C645 H657 0.930 . S
C646 C642 1.524 . S
C646 H658 0.956 . S
C646 H659 0.961 . S
C646 H660 0.961 . S
C647 C644 1.539 . S
C647 H661 0.958 . S
C647 H662 0.961 . S
C647 H663 0.960 . S
H648 C632 0.931 . S
H649 C637 0.929 . S
H650 C638 0.960 . S
H651 C638 0.962 . S
H652 C638 0.960 . S
H653 C639 0.961 . S
H654 C639 0.961 . S
H655 C639 0.961 . S
H656 C640 0.931 . S
H657 C645 0.930 . S
H658 C646 0.956 . S
H659 C646 0.961 . S
H660 C646 0.961 . S
H661 C647 0.958 . S
H662 C647 0.961 . S
H663 C647 0.960 . S
C664 C665 1.391 . S
C664 C666 1.394 . S
C664 H680 0.931 . S
C665 C664 1.391 . S
C665 C669 1.376 . S
C666 C664 1.394 . S
C666 C667 1.369 . S
C666 C670 1.531 . S
C667 C666 1.369 . S
C667 C668 1.410 . S
C667 C675 1.503 . S
C668 C667 1.410 . S
C668 C669 1.392 . S
C668 C671 1.511 . S
C669 C665 1.376 . S
C669 C668 1.392 . S
C669 H681 0.929 . S
C670 C666 1.531 . S
C670 H682 0.960 . S
C670 H683 0.962 . S
C670 H684 0.960 . S
C671 C668 1.511 . S
C671 H685 0.961 . S
C671 H686 0.961 . S
C671 H687 0.961 . S
C672 C673 1.370 . S
C672 C674 1.363 . S
C672 H688 0.931 . S
C673 C672 1.370 . S
C673 C677 1.408 . S
C674 C672 1.363 . S
C674 C675 1.370 . S
C674 C678 1.524 . S
C675 C667 1.503 . S
C675 C674 1.370 . S
C675 C676 1.403 . S
C676 C675 1.403 . S
C676 C677 1.404 . S
C676 C679 1.539 . S
C677 C673 1.408 . S
C677 C676 1.404 . S
C677 H689 0.930 . S
C678 C674 1.524 . S
C678 H690 0.956 . S
C678 H691 0.961 . S
C678 H692 0.961 . S
C679 C676 1.539 . S
C679 H693 0.958 . S
C679 H694 0.961 . S
C679 H695 0.960 . S
H680 C664 0.931 . S
H681 C669 0.929 . S
H682 C670 0.960 . S
H683 C670 0.962 . S
H684 C670 0.960 . S
H685 C671 0.961 . S
H686 C671 0.961 . S
H687 C671 0.961 . S
H688 C672 0.931 . S
H689 C677 0.930 . S
H690 C678 0.956 . S
H691 C678 0.961 . S
H692 C678 0.961 . S
H693 C679 0.958 . S
H694 C679 0.961 . S
H695 C679 0.960 . S
C696 C697 1.391 . S
C696 C698 1.394 . S
C696 H712 0.931 . S
C697 C696 1.391 . S
C697 C701 1.376 . S
C698 C696 1.394 . S
C698 C699 1.369 . S
C698 C702 1.531 . S
C699 C698 1.369 . S
C699 C700 1.410 . S
C699 C707 1.503 . S
C700 C699 1.410 . S
C700 C701 1.392 . S
C700 C703 1.511 . S
C701 C697 1.376 . S
C701 C700 1.392 . S
C701 H713 0.929 . S
C702 C698 1.531 . S
C702 H714 0.960 . S
C702 H715 0.962 . S
C702 H716 0.960 . S
C703 C700 1.511 . S
C703 H717 0.961 . S
C703 H718 0.961 . S
C703 H719 0.961 . S
C704 C705 1.370 . S
C704 C706 1.363 . S
C704 H720 0.931 . S
C705 C704 1.370 . S
C705 C709 1.408 . S
C706 C704 1.363 . S
C706 C707 1.370 . S
C706 C710 1.524 . S
C707 C699 1.503 . S
C707 C706 1.370 . S
C707 C708 1.403 . S
C708 C707 1.403 . S
C708 C709 1.404 . S
C708 C711 1.539 . S
C709 C705 1.408 . S
C709 C708 1.404 . S
C709 H721 0.930 . S
C710 C706 1.524 . S
C710 H722 0.956 . S
C710 H723 0.961 . S
C710 H724 0.961 . S
C711 C708 1.539 . S
C711 H725 0.958 . S
C711 H726 0.961 . S
C711 H727 0.960 . S
H712 C696 0.931 . S
H713 C701 0.929 . S
H714 C702 0.960 . S
H715 C702 0.962 . S
H716 C702 0.960 . S
H717 C703 0.961 . S
H718 C703 0.961 . S
H719 C703 0.961 . S
H720 C704 0.931 . S
H721 C709 0.930 . S
H722 C710 0.956 . S
H723 C710 0.961 . S
H724 C710 0.961 . S
H725 C711 0.958 . S
H726 C711 0.961 . S
H727 C711 0.960 . S
C728 C729 1.391 . S
C728 C730 1.394 . S
C728 H744 0.931 . S
C729 C728 1.391 . S
C729 C733 1.376 . S
C730 C728 1.394 . S
C730 C731 1.369 . S
C730 C734 1.531 . S
C731 C730 1.369 . S
C731 C732 1.410 . S
C731 C739 1.503 . S
C732 C731 1.410 . S
C732 C733 1.392 . S
C732 C735 1.511 . S
C733 C729 1.376 . S
C733 C732 1.392 . S
C733 H745 0.929 . S
C734 C730 1.531 . S
C734 H746 0.960 . S
C734 H747 0.962 . S
C734 H748 0.960 . S
C735 C732 1.511 . S
C735 H749 0.961 . S
C735 H750 0.961 . S
C735 H751 0.961 . S
C736 C737 1.370 . S
C736 C738 1.363 . S
C736 H752 0.931 . S
C737 C736 1.370 . S
C737 C741 1.408 . S
C738 C736 1.363 . S
C738 C739 1.370 . S
C738 C742 1.524 . S
C739 C731 1.503 . S
C739 C738 1.370 . S
C739 C740 1.403 . S
C740 C739 1.403 . S
C740 C741 1.404 . S
C740 C743 1.539 . S
C741 C737 1.408 . S
C741 C740 1.404 . S
C741 H753 0.930 . S
C742 C738 1.524 . S
C742 H754 0.956 . S
C742 H755 0.961 . S
C742 H756 0.961 . S
C743 C740 1.539 . S
C743 H757 0.958 . S
C743 H758 0.961 . S
C743 H759 0.960 . S
H744 C728 0.931 . S
H745 C733 0.929 . S
H746 C734 0.960 . S
H747 C734 0.962 . S
H748 C734 0.960 . S
H749 C735 0.961 . S
H750 C735 0.961 . S
H751 C735 0.961 . S
H752 C736 0.931 . S
H753 C741 0.930 . S
H754 C742 0.956 . S
H755 C742 0.961 . S
H756 C742 0.961 . S
H757 C743 0.958 . S
H758 C743 0.961 . S
H759 C743 0.960 . S
C760 C761 1.391 . S
C760 C762 1.394 . S
C760 H776 0.931 . S
C761 C760 1.391 . S
C761 C765 1.376 . S
C762 C760 1.394 . S
C762 C763 1.369 . S
C762 C766 1.531 . S
C763 C762 1.369 . S
C763 C764 1.410 . S
C763 C771 1.503 . S
C764 C763 1.410 . S
C764 C765 1.392 . S
C764 C767 1.511 . S
C765 C761 1.376 . S
C765 C764 1.392 . S
C765 H777 0.929 . S
C766 C762 1.531 . S
C766 H778 0.960 . S
C766 H779 0.962 . S
C766 H780 0.960 . S
C767 C764 1.511 . S
C767 H781 0.961 . S
C767 H782 0.961 . S
C767 H783 0.961 . S
C768 C769 1.370 . S
C768 C770 1.363 . S
C768 H784 0.931 . S
C769 C768 1.370 . S
C769 C773 1.408 . S
C770 C768 1.363 . S
C770 C771 1.370 . S
C770 C774 1.524 . S
C771 C763 1.503 . S
C771 C770 1.370 . S
C771 C772 1.403 . S
C772 C771 1.403 . S
C772 C773 1.404 . S
C772 C775 1.539 . S
C773 C769 1.408 . S
C773 C772 1.404 . S
C773 H785 0.930 . S
C774 C770 1.524 . S
C774 H786 0.956 . S
C774 H787 0.961 . S
C774 H788 0.961 . S
C775 C772 1.539 . S
C775 H789 0.958 . S
C775 H790 0.961 . S
C775 H791 0.960 . S
H776 C760 0.931 . S
H777 C765 0.929 . S
H778 C766 0.960 . S
H779 C766 0.962 . S
H780 C766 0.960 . S
H781 C767 0.961 . S
H782 C767 0.961 . S
H783 C767 0.961 . S
H784 C768 0.931 . S
H785 C773 0.930 . S
H786 C774 0.956 . S
H787 C774 0.961 . S
H788 C774 0.961 . S
H789 C775 0.958 . S
H790 C775 0.961 . S
H791 C775 0.960 . S
C792 C793 1.391 . S
C792 C794 1.394 . S
C792 H808 0.931 . S
C793 C792 1.391 . S
C793 C797 1.376 . S
C794 C792 1.394 . S
C794 C795 1.369 . S
C794 C798 1.531 . S
C795 C794 1.369 . S
C795 C796 1.410 . S
C795 C803 1.503 . S
C796 C795 1.410 . S
C796 C797 1.392 . S
C796 C799 1.511 . S
C797 C793 1.376 . S
C797 C796 1.392 . S
C797 H809 0.929 . S
C798 C794 1.531 . S
C798 H810 0.960 . S
C798 H811 0.962 . S
C798 H812 0.960 . S
C799 C796 1.511 . S
C799 H813 0.961 . S
C799 H814 0.961 . S
C799 H815 0.961 . S
C800 C801 1.370 . S
C800 C802 1.363 . S
C800 H816 0.931 . S
C801 C800 1.370 . S
C801 C805 1.408 . S
C802 C800 1.363 . S
C802 C803 1.370 . S
C802 C806 1.524 . S
C803 C795 1.503 . S
C803 C802 1.370 . S
C803 C804 1.403 . S
C804 C803 1.403 . S
C804 C805 1.404 . S
C804 C807 1.539 . S
C805 C801 1.408 . S
C805 C804 1.404 . S
C805 H817 0.930 . S
C806 C802 1.524 . S
C806 H818 0.956 . S
C806 H819 0.961 . S
C806 H820 0.961 . S
C807 C804 1.539 . S
C807 H821 0.958 . S
C807 H822 0.961 . S
C807 H823 0.960 . S
H808 C792 0.931 . S
H809 C797 0.929 . S
H810 C798 0.960 . S
H811 C798 0.962 . S
H812 C798 0.960 . S
H813 C799 0.961 . S
H814 C799 0.961 . S
H815 C799 0.961 . S
H816 C800 0.931 . S
H817 C805 0.930 . S
H818 C806 0.956 . S
H819 C806 0.961 . S
H820 C806 0.961 . S
H821 C807 0.958 . S
H822 C807 0.961 . S
H823 C807 0.960 . S
C824 C825 1.391 . S
C824 C826 1.394 . S
C824 H840 0.931 . S
C825 C824 1.391 . S
C825 C829 1.376 . S
C826 C824 1.394 . S
C826 C827 1.369 . S
C826 C830 1.531 . S
C827 C826 1.369 . S
C827 C828 1.410 . S
C827 C835 1.503 . S
C828 C827 1.410 . S
C828 C829 1.392 . S
C828 C831 1.511 . S
C829 C825 1.376 . S
C829 C828 1.392 . S
C829 H841 0.929 . S
C830 C826 1.531 . S
C830 H842 0.960 . S
C830 H843 0.962 . S
C830 H844 0.960 . S
C831 C828 1.511 . S
C831 H845 0.961 . S
C831 H846 0.961 . S
C831 H847 0.961 . S
C832 C833 1.370 . S
C832 C834 1.363 . S
C832 H848 0.931 . S
C833 C832 1.370 . S
C833 C837 1.408 . S
C834 C832 1.363 . S
C834 C835 1.370 . S
C834 C838 1.524 . S
C835 C827 1.503 . S
C835 C834 1.370 . S
C835 C836 1.403 . S
C836 C835 1.403 . S
C836 C837 1.404 . S
C836 C839 1.539 . S
C837 C833 1.408 . S
C837 C836 1.404 . S
C837 H849 0.930 . S
C838 C834 1.524 . S
C838 H850 0.956 . S
C838 H851 0.961 . S
C838 H852 0.961 . S
C839 C836 1.539 . S
C839 H853 0.958 . S
C839 H854 0.961 . S
C839 H855 0.960 . S
H840 C824 0.931 . S
H841 C829 0.929 . S
H842 C830 0.960 . S
H843 C830 0.962 . S
H844 C830 0.960 . S
H845 C831 0.961 . S
H846 C831 0.961 . S
H847 C831 0.961 . S
H848 C832 0.931 . S
H849 C837 0.930 . S
H850 C838 0.956 . S
H851 C838 0.961 . S
H852 C838 0.961 . S
H853 C839 0.958 . S
H854 C839 0.961 . S
H855 C839 0.960 . S
C856 C857 1.391 . S
C856 C858 1.394 . S
C856 H872 0.931 . S
C857 C856 1.391 . S
C857 C861 1.376 . S
C858 C856 1.394 . S
C858 C859 1.369 . S
C858 C862 1.531 . S
C859 C858 1.369 . S
C859 C860 1.410 . S
C859 C867 1.503 . S
C860 C859 1.410 . S
C860 C861 1.392 . S
C860 C863 1.511 . S
C861 C857 1.376 . S
C861 C860 1.392 . S
C861 H873 0.929 . S
C862 C858 1.531 . S
C862 H874 0.960 . S
C862 H875 0.962 . S
C862 H876 0.960 . S
C863 C860 1.511 . S
C863 H877 0.961 . S
C863 H878 0.961 . S
C863 H879 0.961 . S
C864 C865 1.370 . S
C864 C866 1.363 . S
C864 H880 0.931 . S
C865 C864 1.370 . S
C865 C869 1.408 . S
C866 C864 1.363 . S
C866 C867 1.370 . S
C866 C870 1.524 . S
C867 C859 1.503 . S
C867 C866 1.370 . S
C867 C868 1.403 . S
C868 C867 1.403 . S
C868 C869 1.404 . S
C868 C871 1.539 . S
C869 C865 1.408 . S
C869 C868 1.404 . S
C869 H881 0.930 . S
C870 C866 1.524 . S
C870 H882 0.956 . S
C870 H883 0.961 . S
C870 H884 0.961 . S
C871 C868 1.539 . S
C871 H885 0.958 . S
C871 H886 0.961 . S
C871 H887 0.960 . S
H872 C856 0.931 . S
H873 C861 0.929 . S
H874 C862 0.960 . S
H875 C862 0.962 . S
H876 C862 0.960 . S
H877 C863 0.961 . S
H878 C863 0.961 . S
H879 C863 0.961 . S
H880 C864 0.931 . S
H881 C869 0.930 . S
H882 C870 0.956 . S
H883 C870 0.961 . S
H884 C870 0.961 . S
H885 C871 0.958 . S
H886 C871 0.961 . S
H887 C871 0.960 . S
C888 C889 1.391 . S
C888 C890 1.394 . S
C888 H904 0.931 . S
C889 C888 1.391 . S
C889 C893 1.376 . S
C890 C888 1.394 . S
C890 C891 1.369 . S
C890 C894 1.531 . S
C891 C890 1.369 . S
C891 C892 1.410 . S
C891 C899 1.503 . S
C892 C891 1.410 . S
C892 C893 1.392 . S
C892 C895 1.511 . S
C893 C889 1.376 . S
C893 C892 1.392 . S
C893 H905 0.929 . S
C894 C890 1.531 . S
C894 H906 0.960 . S
C894 H907 0.962 . S
C894 H908 0.960 . S
C895 C892 1.511 . S
C895 H909 0.961 . S
C895 H910 0.961 . S
C895 H911 0.961 . S
C896 C897 1.370 . S
C896 C898 1.363 . S
C896 H912 0.931 . S
C897 C896 1.370 . S
C897 C901 1.408 . S
C898 C896 1.363 . S
C898 C899 1.370 . S
C898 C902 1.524 . S
C899 C891 1.503 . S
C899 C898 1.370 . S
C899 C900 1.403 . S
C900 C899 1.403 . S
C900 C901 1.404 . S
C900 C903 1.539 . S
C901 C897 1.408 . S
C901 C900 1.404 . S
C901 H913 0.930 . S
C902 C898 1.524 . S
C902 H914 0.956 . S
C902 H915 0.961 . S
C902 H916 0.961 . S
C903 C900 1.539 . S
C903 H917 0.958 . S
C903 H918 0.961 . S
C903 H919 0.960 . S
H904 C888 0.931 . S
H905 C893 0.929 . S
H906 C894 0.960 . S
H907 C894 0.962 . S
H908 C894 0.960 . S
H909 C895 0.961 . S
H910 C895 0.961 . S
H911 C895 0.961 . S
H912 C896 0.931 . S
H913 C901 0.930 . S
H914 C902 0.956 . S
H915 C902 0.961 . S
H916 C902 0.961 . S
H917 C903 0.958 . S
H918 C903 0.961 . S
H919 C903 0.960 . S
C920 C921 1.391 . S
C920 C922 1.394 . S
C920 H936 0.931 . S
C921 C920 1.391 . S
C921 C925 1.376 1_554 S
C922 C920 1.394 . S
C922 C923 1.369 . S
C922 C926 1.531 . S
C923 C922 1.369 . S
C923 C924 1.410 1_554 S
C923 C931 1.503 . S
C924 C923 1.410 1_556 S
C924 C925 1.392 . S
C924 C927 1.511 . S
C925 C921 1.376 1_556 S
C925 C924 1.392 . S
C925 H937 0.929 . S
C926 C922 1.531 . S
C926 H938 0.960 . S
C926 H939 0.962 . S
C926 H940 0.960 . S
C927 C924 1.511 . S
C927 H941 0.961 . S
C927 H942 0.961 . S
C927 H943 0.961 . S
C928 C929 1.370 1_556 S
C928 C930 1.363 . S
C928 H944 0.931 . S
C929 C928 1.370 1_554 S
C929 C933 1.408 . S
C930 C928 1.363 . S
C930 C931 1.370 1_556 S
C930 C934 1.524 . S
C931 C923 1.503 . S
C931 C930 1.370 1_554 S
C931 C932 1.403 . S
C932 C931 1.403 . S
C932 C933 1.404 . S
C932 C935 1.539 . S
C933 C929 1.408 . S
C933 C932 1.404 . S
C933 H945 0.930 . S
C934 C930 1.524 . S
C934 H946 0.956 . S
C934 H947 0.961 . S
C934 H948 0.961 . S
C935 C932 1.539 . S
C935 H949 0.958 . S
C935 H950 0.961 . S
C935 H951 0.960 . S
H936 C920 0.931 . S
H937 C925 0.929 . S
H938 C926 0.960 . S
H939 C926 0.962 . S
H940 C926 0.960 . S
H941 C927 0.961 . S
H942 C927 0.961 . S
H943 C927 0.961 . S
H944 C928 0.931 . S
H945 C933 0.930 . S
H946 C934 0.956 . S
H947 C934 0.961 . S
H948 C934 0.961 . S
H949 C935 0.958 . S
H950 C935 0.961 . S
H951 C935 0.960 . S
C952 C953 1.391 . S
C952 C954 1.394 . S
C952 H968 0.931 . S
C953 C952 1.391 . S
C953 C957 1.376 . S
C954 C952 1.394 . S
C954 C955 1.369 . S
C954 C958 1.531 . S
C955 C954 1.369 . S
C955 C956 1.410 . S
C955 C963 1.503 . S
C956 C955 1.410 . S
C956 C957 1.392 . S
C956 C959 1.511 . S
C957 C953 1.376 . S
C957 C956 1.392 . S
C957 H969 0.929 . S
C958 C954 1.531 . S
C958 H970 0.960 . S
C958 H971 0.962 . S
C958 H972 0.960 . S
C959 C956 1.511 . S
C959 H973 0.961 . S
C959 H974 0.961 . S
C959 H975 0.961 . S
C960 C961 1.370 . S
C960 C962 1.363 . S
C960 H976 0.931 . S
C961 C960 1.370 . S
C961 C965 1.408 . S
C962 C960 1.363 . S
C962 C963 1.370 . S
C962 C966 1.524 . S
C963 C955 1.503 . S
C963 C962 1.370 . S
C963 C964 1.403 . S
C964 C963 1.403 . S
C964 C965 1.404 . S
C964 C967 1.539 . S
C965 C961 1.408 . S
C965 C964 1.404 . S
C965 H977 0.930 . S
C966 C962 1.524 . S
C966 H978 0.956 . S
C966 H979 0.961 . S
C966 H980 0.961 . S
C967 C964 1.539 . S
C967 H981 0.958 . S
C967 H982 0.961 . S
C967 H983 0.960 . S
H968 C952 0.931 . S
H969 C957 0.929 . S
H970 C958 0.960 . S
H971 C958 0.962 . S
H972 C958 0.960 . S
H973 C959 0.961 . S
H974 C959 0.961 . S
H975 C959 0.961 . S
H976 C960 0.931 . S
H977 C965 0.930 . S
H978 C966 0.956 . S
H979 C966 0.961 . S
H980 C966 0.961 . S
H981 C967 0.958 . S
H982 C967 0.961 . S
H983 C967 0.960 . S
C984 C985 1.391 . S
C984 C986 1.394 . S
C984 H1000 0.931 . S
C985 C984 1.391 . S
C985 C989 1.376 1_554 S
C986 C984 1.394 . S
C986 C987 1.369 . S
C986 C990 1.531 . S
C987 C986 1.369 . S
C987 C988 1.410 1_554 S
C987 C995 1.503 . S
C988 C987 1.410 1_556 S
C988 C989 1.392 . S
C988 C991 1.511 . S
C989 C985 1.376 1_556 S
C989 C988 1.392 . S
C989 H1001 0.929 . S
C990 C986 1.531 . S
C990 H1002 0.960 . S
C990 H1003 0.962 . S
C990 H1004 0.960 . S
C991 C988 1.511 . S
C991 H1005 0.961 . S
C991 H1006 0.961 . S
C991 H1007 0.961 . S
C992 C993 1.370 1_556 S
C992 C994 1.363 . S
C992 H1008 0.931 . S
C993 C992 1.370 1_554 S
C993 C997 1.408 . S
C994 C992 1.363 . S
C994 C995 1.370 1_556 S
C994 C998 1.524 . S
C995 C987 1.503 . S
C995 C994 1.370 1_554 S
C995 C996 1.403 . S
C996 C995 1.403 . S
C996 C997 1.404 . S
C996 C999 1.539 . S
C997 C993 1.408 . S
C997 C996 1.404 . S
C997 H1009 0.930 . S
C998 C994 1.524 . S
C998 H1010 0.956 . S
C998 H1011 0.961 . S
C998 H1012 0.961 . S
C999 C996 1.539 . S
C999 H1013 0.958 . S
C999 H1014 0.961 . S
C999 H1015 0.960 . S
H1000 C984 0.931 . S
H1001 C989 0.929 . S
H1002 C990 0.960 . S
H1003 C990 0.962 . S
H1004 C990 0.960 . S
H1005 C991 0.961 . S
H1006 C991 0.961 . S
H1007 C991 0.961 . S
H1008 C992 0.931 . S
H1009 C997 0.930 . S
H1010 C998 0.956 . S
H1011 C998 0.961 . S
H1012 C998 0.961 . S
H1013 C999 0.958 . S
H1014 C999 0.961 . S
H1015 C999 0.960 . S
C1016 C1017 1.391 . S
C1016 C1018 1.394 . S
C1016 H1032 0.931 . S
C1017 C1016 1.391 . S
C1017 C1021 1.376 . S
C1018 C1016 1.394 . S
C1018 C1019 1.369 . S
C1018 C1022 1.531 . S
C1019 C1018 1.369 . S
C1019 C1020 1.410 . S
C1019 C1027 1.503 . S
C1020 C1019 1.410 . S
C1020 C1021 1.392 . S
C1020 C1023 1.511 . S
C1021 C1017 1.376 . S
C1021 C1020 1.392 . S
C1021 H1033 0.929 . S
C1022 C1018 1.531 . S
C1022 H1034 0.960 . S
C1022 H1035 0.962 . S
C1022 H1036 0.960 . S
C1023 C1020 1.511 . S
C1023 H1037 0.961 . S
C1023 H1038 0.961 . S
C1023 H1039 0.961 . S
C1024 C1025 1.370 . S
C1024 C1026 1.363 . S
C1024 H1040 0.931 . S
C1025 C1024 1.370 . S
C1025 C1029 1.408 . S
C1026 C1024 1.363 . S
C1026 C1027 1.370 . S
C1026 C1030 1.524 . S
C1027 C1019 1.503 . S
C1027 C1026 1.370 . S
C1027 C1028 1.403 . S
C1028 C1027 1.403 . S
C1028 C1029 1.404 . S
C1028 C1031 1.539 . S
C1029 C1025 1.408 . S
C1029 C1028 1.404 . S
C1029 H1041 0.930 . S
C1030 C1026 1.524 . S
C1030 H1042 0.956 . S
C1030 H1043 0.961 . S
C1030 H1044 0.961 . S
C1031 C1028 1.539 . S
C1031 H1045 0.958 . S
C1031 H1046 0.961 . S
C1031 H1047 0.960 . S
H1032 C1016 0.931 . S
H1033 C1021 0.929 . S
H1034 C1022 0.960 . S
H1035 C1022 0.962 . S
H1036 C1022 0.960 . S
H1037 C1023 0.961 . S
H1038 C1023 0.961 . S
H1039 C1023 0.961 . S
H1040 C1024 0.931 . S
H1041 C1029 0.930 . S
H1042 C1030 0.956 . S
H1043 C1030 0.961 . S
H1044 C1030 0.961 . S
H1045 C1031 0.958 . S
H1046 C1031 0.961 . S
H1047 C1031 0.960 . S
C1048 C1049 1.391 . S
C1048 C1050 1.394 . S
C1048 H1064 0.931 . S
C1049 C1048 1.391 . S
C1049 C1053 1.376 . S
C1050 C1048 1.394 . S
C1050 C1051 1.369 . S
C1050 C1054 1.531 . S
C1051 C1050 1.369 . S
C1051 C1052 1.410 . S
C1051 C1059 1.503 . S
C1052 C1051 1.410 . S
C1052 C1053 1.392 . S
C1052 C1055 1.511 . S
C1053 C1049 1.376 . S
C1053 C1052 1.392 . S
C1053 H1065 0.929 . S
C1054 C1050 1.531 . S
C1054 H1066 0.960 . S
C1054 H1067 0.962 . S
C1054 H1068 0.960 . S
C1055 C1052 1.511 . S
C1055 H1069 0.961 . S
C1055 H1070 0.961 . S
C1055 H1071 0.961 . S
C1056 C1057 1.370 . S
C1056 C1058 1.363 . S
C1056 H1072 0.931 . S
C1057 C1056 1.370 . S
C1057 C1061 1.408 . S
C1058 C1056 1.363 . S
C1058 C1059 1.370 . S
C1058 C1062 1.524 . S
C1059 C1051 1.503 . S
C1059 C1058 1.370 . S
C1059 C1060 1.403 . S
C1060 C1059 1.403 . S
C1060 C1061 1.404 . S
C1060 C1063 1.539 . S
C1061 C1057 1.408 . S
C1061 C1060 1.404 . S
C1061 H1073 0.930 . S
C1062 C1058 1.524 . S
C1062 H1074 0.956 . S
C1062 H1075 0.961 . S
C1062 H1076 0.961 . S
C1063 C1060 1.539 . S
C1063 H1077 0.958 . S
C1063 H1078 0.961 . S
C1063 H1079 0.960 . S
H1064 C1048 0.931 . S
H1065 C1053 0.929 . S
H1066 C1054 0.960 . S
H1067 C1054 0.962 . S
H1068 C1054 0.960 . S
H1069 C1055 0.961 . S
H1070 C1055 0.961 . S
H1071 C1055 0.961 . S
H1072 C1056 0.931 . S
H1073 C1061 0.930 . S
H1074 C1062 0.956 . S
H1075 C1062 0.961 . S
H1076 C1062 0.961 . S
H1077 C1063 0.958 . S
H1078 C1063 0.961 . S
H1079 C1063 0.960 . S
C1080 C1081 1.391 . S
C1080 C1082 1.394 . S
C1080 H1096 0.931 . S
C1081 C1080 1.391 . S
C1081 C1085 1.376 1_554 S
C1082 C1080 1.394 . S
C1082 C1083 1.369 . S
C1082 C1086 1.531 . S
C1083 C1082 1.369 . S
C1083 C1084 1.410 1_554 S
C1083 C1091 1.503 . S
C1084 C1083 1.410 1_556 S
C1084 C1085 1.392 . S
C1084 C1087 1.511 . S
C1085 C1081 1.376 1_556 S
C1085 C1084 1.392 . S
C1085 H1097 0.929 . S
C1086 C1082 1.531 . S
C1086 H1098 0.960 . S
C1086 H1099 0.962 . S
C1086 H1100 0.960 . S
C1087 C1084 1.511 . S
C1087 H1101 0.961 . S
C1087 H1102 0.961 . S
C1087 H1103 0.961 . S
C1088 C1089 1.370 1_556 S
C1088 C1090 1.363 . S
C1088 H1104 0.931 . S
C1089 C1088 1.370 1_554 S
C1089 C1093 1.408 . S
C1090 C1088 1.363 . S
C1090 C1091 1.370 1_556 S
C1090 C1094 1.524 . S
C1091 C1083 1.503 . S
C1091 C1090 1.370 1_554 S
C1091 C1092 1.403 . S
C1092 C1091 1.403 . S
C1092 C1093 1.404 . S
C1092 C1095 1.539 . S
C1093 C1089 1.408 . S
C1093 C1092 1.404 . S
C1093 H1105 0.930 . S
C1094 C1090 1.524 . S
C1094 H1106 0.956 . S
C1094 H1107 0.961 . S
C1094 H1108 0.961 . S
C1095 C1092 1.539 . S
C1095 H1109 0.958 . S
C1095 H1110 0.961 . S
C1095 H1111 0.960 . S
H1096 C1080 0.931 . S
H1097 C1085 0.929 . S
H1098 C1086 0.960 . S
H1099 C1086 0.962 . S
H1100 C1086 0.960 . S
H1101 C1087 0.961 . S
H1102 C1087 0.961 . S
H1103 C1087 0.961 . S
H1104 C1088 0.931 . S
H1105 C1093 0.930 . S
H1106 C1094 0.956 . S
H1107 C1094 0.961 . S
H1108 C1094 0.961 . S
H1109 C1095 0.958 . S
H1110 C1095 0.961 . S
H1111 C1095 0.960 . S
C1112 C1113 1.391 . S
C1112 C1114 1.394 . S
C1112 H1128 0.931 . S
C1113 C1112 1.391 . S
C1113 C1117 1.376 . S
C1114 C1112 1.394 . S
C1114 C1115 1.369 . S
C1114 C1118 1.531 . S
C1115 C1114 1.369 . S
C1115 C1116 1.410 . S
C1115 C1123 1.503 . S
C1116 C1115 1.410 . S
C1116 C1117 1.392 . S
C1116 C1119 1.511 . S
C1117 C1113 1.376 . S
C1117 C1116 1.392 . S
C1117 H1129 0.929 . S
C1118 C1114 1.531 . S
C1118 H1130 0.960 . S
C1118 H1131 0.962 . S
C1118 H1132 0.960 . S
C1119 C1116 1.511 . S
C1119 H1133 0.961 . S
C1119 H1134 0.961 . S
C1119 H1135 0.961 . S
C1120 C1121 1.370 . S
C1120 C1122 1.363 . S
C1120 H1136 0.931 . S
C1121 C1120 1.370 . S
C1121 C1125 1.408 . S
C1122 C1120 1.363 . S
C1122 C1123 1.370 . S
C1122 C1126 1.524 . S
C1123 C1115 1.503 . S
C1123 C1122 1.370 . S
C1123 C1124 1.403 . S
C1124 C1123 1.403 . S
C1124 C1125 1.404 . S
C1124 C1127 1.539 . S
C1125 C1121 1.408 . S
C1125 C1124 1.404 . S
C1125 H1137 0.930 . S
C1126 C1122 1.524 . S
C1126 H1138 0.956 . S
C1126 H1139 0.961 . S
C1126 H1140 0.961 . S
C1127 C1124 1.539 . S
C1127 H1141 0.958 . S
C1127 H1142 0.961 . S
C1127 H1143 0.960 . S
H1128 C1112 0.931 . S
H1129 C1117 0.929 . S
H1130 C1118 0.960 . S
H1131 C1118 0.962 . S
H1132 C1118 0.960 . S
H1133 C1119 0.961 . S
H1134 C1119 0.961 . S
H1135 C1119 0.961 . S
H1136 C1120 0.931 . S
H1137 C1125 0.930 . S
H1138 C1126 0.956 . S
H1139 C1126 0.961 . S
H1140 C1126 0.961 . S
H1141 C1127 0.958 . S
H1142 C1127 0.961 . S
H1143 C1127 0.960 . S
C1144 C1145 1.394 . S
C1144 C1146 1.394 . S
C1144 H1160 0.931 . S
C1145 C1144 1.394 . S
C1145 C1149 1.375 1_556 S
C1146 C1144 1.394 . S
C1146 C1147 1.369 . S
C1146 C1150 1.531 . S
C1147 C1146 1.369 . S
C1147 C1148 1.410 . S
C1147 C1155 1.503 . S
C1148 C1147 1.410 . S
C1148 C1149 1.392 1_556 S
C1148 C1151 1.511 1_556 S
C1149 C1145 1.375 1_554 S
C1149 C1148 1.392 1_554 S
C1149 H1161 0.929 . S
C1150 C1146 1.531 . S
C1150 H1162 0.960 . S
C1150 H1163 0.962 1_556 S
C1150 H1164 0.960 . S
C1151 C1148 1.511 1_554 S
C1151 H1165 0.961 . S
C1151 H1166 0.961 . S
C1151 H1167 0.961 1_554 S
C1152 C1153 1.386 . S
C1152 C1154 1.363 . S
C1152 H1168 0.931 . S
C1153 C1152 1.386 . S
C1153 C1157 1.391 1_554 S
C1154 C1152 1.363 . S
C1154 C1155 1.370 1_554 S
C1154 C1158 1.524 . S
C1155 C1147 1.503 . S
C1155 C1154 1.370 1_556 S
C1155 C1156 1.403 . S
C1156 C1155 1.403 . S
C1156 C1157 1.404 . S
C1156 C1159 1.539 . S
C1157 C1153 1.391 1_556 S
C1157 C1156 1.404 . S
C1157 H1169 0.930 . S
C1158 C1154 1.524 . S
C1158 H1170 0.956 . S
C1158 H1171 0.961 . S
C1158 H1172 0.961 . S
C1159 C1156 1.539 . S
C1159 H1173 0.958 . S
C1159 H1174 0.961 . S
C1159 H1175 0.960 . S
H1160 C1144 0.931 . S
H1161 C1149 0.929 . S
H1162 C1150 0.960 . S
H1163 C1150 0.962 1_554 S
H1164 C1150 0.960 . S
H1165 C1151 0.961 . S
H1166 C1151 0.961 . S
H1167 C1151 0.961 1_556 S
H1168 C1152 0.931 . S
H1169 C1157 0.930 . S
H1170 C1158 0.956 . S
H1171 C1158 0.961 . S
H1172 C1158 0.961 . S
H1173 C1159 0.958 . S
H1174 C1159 0.961 . S
H1175 C1159 0.960 . S
C409 C5 1.491 . S
C417 C210 1.504 . S
C441 C31 1.492 . S
C449 C90 1.510 . S
C481 C149 1.468 . S
C473 C53 1.505 . S
C505 C71 1.511 . S
C513 C189 1.454 . S
C545 C309 1.447 . S
C537 C75 1.492 . S
C577 C349 1.462 . S
C569 C9 1.520 . S
C609 C370 1.509 . S
C601 C27 1.487 . S
C641 C250 1.502 . S
C633 C49 1.482 . S
C665 C51 1.497 . S
C673 C130 1.461 . S
C697 C72 1.514 . S
C705 C170 1.481 . S
C729 C6 1.524 . S
C737 C229 1.512 . S
C769 C109 1.509 . S
C761 C29 1.521 . S
C793 C28 1.509 . S
C801 C389 1.501 . S
C833 C269 1.518 . S
C825 C50 1.527 . S
C865 C290 1.460 . S
C857 C73 1.484 . S
C889 C7 1.506 . S
C897 C330 1.475 . S
C929 C103 1.510 . S
C921 C4 1.506 . S
C961 C143 1.507 . S
C953 C30 1.505 . S
C985 C52 1.504 . S
C993 C183 1.504 . S
C1017 C70 1.510 . S
C1025 C223 1.513 . S
C1057 C263 1.514 . S
C1049 C74 1.514 . S
C1081 C8 1.520 . S
C1089 C303 1.515 . S
C1113 C26 1.518 . S
C1121 C343 1.514 . S
C1145 C48 1.509 1_556 S
C1153 C383 1.513 . S
