# Generated by pormake.
# Topology anh, (6,3)-cn, num edge types: 1
# Building blocks:
#     Node 0, Type 0, BuildingBlock: BETDIP_clean_sbu_0, # of connection points: 6
#     Node 1, Type 0, BuildingBlock: BETDIP_clean_sbu_0, # of connection points: 6
#     Node 2, Type 0, BuildingBlock: BETDIP_clean_sbu_0, # of connection points: 6
#     Node 3, Type 1, BuildingBlock: WUSLED_clean_sbu_0, # of connection points: 3
#     Node 4, Type 1, BuildingBlock: WUSLED_clean_sbu_0, # of connection points: 3
#     Node 5, Type 1, BuildingBlock: WUSLED_clean_sbu_0, # of connection points: 3
#     Node 6, Type 1, BuildingBlock: WUSLED_clean_sbu_0, # of connection points: 3
#     Node 7, Type 1, BuildingBlock: WUSLED_clean_sbu_0, # of connection points: 3
#     Node 8, Type 1, BuildingBlock: WUSLED_clean_sbu_0, # of connection points: 3
#     Edge 9, Type (0, 1), BuildingBlock: EZIPEK_clean_linker_0, # of connection points: 2
#     Edge 10, Type (0, 1), BuildingBlock: EZIPEK_clean_linker_0, # of connection points: 2
#     Edge 11, Type (0, 1), BuildingBlock: EZIPEK_clean_linker_0, # of connection points: 2
#     Edge 12, Type (0, 1), BuildingBlock: EZIPEK_clean_linker_0, # of connection points: 2
#     Edge 13, Type (0, 1), BuildingBlock: EZIPEK_clean_linker_0, # of connection points: 2
#     Edge 14, Type (0, 1), BuildingBlock: EZIPEK_clean_linker_0, # of connection points: 2
#     Edge 15, Type (0, 1), BuildingBlock: EZIPEK_clean_linker_0, # of connection points: 2
#     Edge 16, Type (0, 1), BuildingBlock: EZIPEK_clean_linker_0, # of connection points: 2
#     Edge 17, Type (0, 1), BuildingBlock: EZIPEK_clean_linker_0, # of connection points: 2
#     Edge 18, Type (0, 1), BuildingBlock: EZIPEK_clean_linker_0, # of connection points: 2
#     Edge 19, Type (0, 1), BuildingBlock: EZIPEK_clean_linker_0, # of connection points: 2
#     Edge 20, Type (0, 1), BuildingBlock: EZIPEK_clean_linker_0, # of connection points: 2
#     Edge 21, Type (0, 1), BuildingBlock: EZIPEK_clean_linker_0, # of connection points: 2
#     Edge 22, Type (0, 1), BuildingBlock: EZIPEK_clean_linker_0, # of connection points: 2
#     Edge 23, Type (0, 1), BuildingBlock: EZIPEK_clean_linker_0, # of connection points: 2
#     Edge 24, Type (0, 1), BuildingBlock: EZIPEK_clean_linker_0, # of connection points: 2
#     Edge 25, Type (0, 1), BuildingBlock: EZIPEK_clean_linker_0, # of connection points: 2
#     Edge 26, Type (0, 1), BuildingBlock: EZIPEK_clean_linker_0, # of connection points: 2
# Relax obj value: 0.274
# Max RMSD: 0.184
# Mean RMSD: 0.155
data_MOF--net-anh--node1-BETDIP_clean_sbu_0--node2-WUSLED_clean_sbu_0--edge1-EZIPEK_clean_linker_0
_symmetry_space_group_name_H-M    P1
_symmetry_Int_Tables_number       1
_symmetry_cell_setting            triclinic
loop_
_symmetry_equiv_pos_as_xyz
'x, y, z'
_cell_length_a     30.799148
_cell_length_b     30.996716
_cell_length_c     55.360664
_cell_angle_alpha  90.145039
_cell_angle_beta   89.585349
_cell_angle_gamma 119.69579
loop_
_atom_site_label
_atom_site_type_symbol
_atom_site_fract_x
_atom_site_fract_y
_atom_site_fract_z
_atom_type_partial_charge
Tb0 Tb 0.16826 0.64529 0.18582 0.0
Tb1 Tb 1.12291 0.54197 0.19169 0.0
C2 C 0.20874 0.73695 0.18615 0.0
C3 C 0.25792 0.77142 0.17575 0.0
C4 C 0.30143 0.77674 0.18653 0.0
C5 C 0.34793 0.81235 0.17804 0.0
C6 C 0.35158 0.8431 0.15873 0.0
C7 C 0.30893 0.83236 0.14537 0.0
C8 C 0.26191 0.79726 0.15424 0.0
C9 C 0.15958 0.59802 0.14437 0.0
C10 C 0.2402 0.60029 0.18407 0.0
C11 C 1.07246 0.44974 0.18846 0.0
C12 C 1.02776 0.42055 0.17408 0.0
C13 C 1.02075 0.4407 0.15265 0.0
C14 C 0.97312 0.4213 0.14289 0.0
C15 C 0.93243 0.38239 0.15483 0.0
C16 C 0.94034 0.35897 0.17463 0.0
C17 C 0.98794 0.37804 0.18425 0.0
C18 C 0.15883 0.59078 0.23337 0.0
C19 C 1.05056 0.58866 0.18343 0.0
O20 O 0.20861 0.71143 0.20506 0.0
O21 O 0.17456 0.70982 0.17046 0.0
O22 O 0.12805 0.585 0.16116 0.0
O23 O 0.19736 0.64 0.15033 0.0
O24 O 0.23648 0.63921 0.19118 0.0
O25 O 0.1985 0.55798 0.18015 0.0
O26 O 1.11353 0.47645 0.17606 0.0
O27 O 1.06648 0.47484 0.20599 0.0
O28 O 0.13529 0.60002 0.21744 0.0
O29 O 0.16211 0.55318 0.22584 0.0
O30 O 1.05434 0.54764 0.18421 0.0
O31 O 1.09129 0.63241 0.18576 0.0
H32 H 0.29982 0.7554 0.20231 0.0
H33 H 0.38082 0.81925 0.18811 0.0
H34 H 0.31151 0.85532 0.1301 0.0
H35 H 0.22879 0.79206 0.14497 0.0
H36 H 1.05108 0.47397 0.14468 0.0
H37 H 0.96735 0.43955 0.12759 0.0
H38 H 0.90899 0.32867 0.18391 0.0
H39 H 0.99277 0.36238 0.20082 0.0
Tb40 Tb 0.69588 0.08276 0.52411 0.0
Tb41 Tb 0.63675 0.12847 0.5222 0.0
C42 C 0.72562 1.02404 0.53326 0.0
C43 C 0.70943 0.97812 0.51965 0.0
C44 C 0.686 0.93279 0.53183 0.0
C45 C 0.66674 0.88884 0.51886 0.0
C46 C 0.67146 0.88938 0.49348 0.0
C47 C 0.69231 0.93463 0.48117 0.0
C48 C 0.71088 0.97876 0.49415 0.0
C49 C 0.68718 0.10669 0.47962 0.0
C50 C 0.57525 1.0117 0.51755 0.0
C51 C 0.59737 0.17802 0.50877 0.0
C52 C 0.61808 0.222 0.49349 0.0
C53 C 0.65655 0.231 0.4769 0.0
C54 C 0.68739 0.27882 0.46805 0.0
C55 C 0.67985 0.31746 0.47603 0.0
C56 C 0.63753 0.30701 0.49004 0.0
C57 C 0.60677 0.25934 0.49885 0.0
C58 C 0.64613 0.10374 0.56713 0.0
C59 C 0.75858 0.19767 0.52059 0.0
O60 O 0.69043 1.02536 0.54617 0.0
O61 O 0.75282 1.06494 0.52106 0.0
O62 O 0.65324 0.08954 0.49547 0.0
O63 O 0.72559 0.10552 0.48778 0.0
O64 O 0.62017 1.01536 0.51863 0.0
O65 O 0.57228 1.05271 0.5193 0.0
O66 O 0.5902 0.13758 0.49796 0.0
O67 O 0.61959 0.18467 0.52962 0.0
O68 O 0.68021 0.1224 0.5512 0.0
O69 O 0.60588 0.10045 0.5582 0.0
O70 O 0.71436 0.19285 0.51459 0.0
O71 O 0.75922 0.15837 0.52942 0.0
H72 H 0.68264 0.93139 0.55136 0.0
H73 H 0.65026 0.8544 0.52885 0.0
H74 H 0.69567 0.93595 0.46167 0.0
H75 H 0.72669 1.01332 0.48416 0.0
H76 H 0.66555 0.20225 0.47256 0.0
H77 H 0.71997 0.28653 0.45728 0.0
H78 H 0.63138 0.33677 0.49626 0.0
H79 H 0.57722 0.2528 0.51158 0.0
Tb80 Tb 0.59176 0.55164 0.85173 0.0
Tb81 Tb 0.69893 0.61099 0.85641 0.0
C82 C 0.4997 0.51981 0.85464 0.0
C83 C 0.47475 0.54844 0.8494 0.0
C84 C 0.49905 0.599 0.85497 0.0
C85 C 0.48256 0.62967 0.84561 0.0
C86 C 0.43697 0.60964 0.83311 0.0
C87 C 0.41297 0.55849 0.82709 0.0
C88 C 0.43237 0.52855 0.83476 0.0
C89 C 0.64039 0.56622 0.81073 0.0
C90 C 0.64174 0.67119 0.85087 0.0
C91 C 0.78928 0.6686 0.84678 0.0
C92 C 0.82672 0.65661 0.83728 0.0
C93 C 0.82432 0.64132 0.81305 0.0
C94 C 0.84816 0.61512 0.80596 0.0
C95 C 0.87553 0.60529 0.82289 0.0
C96 C 0.88302 0.6257 0.84614 0.0
C97 C 0.85881 0.65139 0.85332 0.0
C98 C 0.65353 0.57318 0.89845 0.0
C99 C 0.6513 0.49272 0.85034 0.0
O100 O 0.52875 0.53322 0.87361 0.0
O101 O 0.52127 0.51363 0.83573 0.0
O102 O 0.64993 0.59696 0.82741 0.0
O103 O 0.59931 0.52635 0.81615 0.0
O104 O 0.6033 0.62766 0.84446 0.0
O105 O 0.68249 0.67274 0.85952 0.0
O106 O 0.75289 0.65922 0.83198 0.0
O107 O 0.77281 0.65318 0.86872 0.0
O108 O 0.63869 0.59087 0.88187 0.0
O109 O 0.69608 0.57815 0.89156 0.0
O110 O 0.69144 0.53729 0.84675 0.0
O111 O 0.60848 0.49016 0.8572 0.0
H112 H 0.5312 0.6152 0.86662 0.0
H113 H 0.50414 0.66858 0.84994 0.0
H114 H 0.37797 0.54057 0.81745 0.0
H115 H 0.41394 0.48978 0.82956 0.0
H116 H 0.80094 0.64609 0.80004 0.0
H117 H 0.84278 0.6 0.78787 0.0
H118 H 0.90489 0.61879 0.85922 0.0
H119 H 0.86205 0.66363 0.8719 0.0
C120 C 0.67228 0.23213 0.21496 0.0
C121 C 0.72187 0.26432 0.22175 0.0
C122 C 0.74088 0.29772 0.18108 0.0
C123 C 0.75603 0.29654 0.20482 0.0
C124 C 0.69018 0.27004 0.17512 0.0
C125 C 0.65604 0.23678 0.19197 0.0
U126 U 0.61919 0.14598 0.27162 0.0
O127 O 0.54821 1.07546 0.27423 0.0
O128 O 0.61948 1.07541 0.27453 0.0
C129 C 0.571 1.0494 0.27115 0.0
C130 C 0.6418 0.1863 0.22858 0.0
C131 C 0.55666 1.01995 0.24896 0.0
C132 C 0.55607 1.02171 0.20508 0.0
C133 C 0.57712 1.04438 0.22692 0.0
C134 C 0.4969 0.94771 0.22694 0.0
C135 C 0.51441 0.97414 0.20511 0.0
C136 C 0.51779 0.97072 0.24889 0.0
C137 C 0.64628 0.1798 0.3367 0.0
C138 C 0.62112 0.11189 0.36511 0.0
C139 C 0.68334 0.19499 0.37621 0.0
C140 C 0.67808 0.21279 0.35398 0.0
C141 C 0.65936 0.14331 0.38118 0.0
C142 C 0.6159 0.12966 0.34276 0.0
C143 C 0.64945 0.19645 0.31173 0.0
O144 O 0.66732 0.169 0.23989 0.0
O145 O 0.60253 0.18089 0.24073 0.0
O146 O 0.60673 0.18559 0.30155 0.0
O147 O 0.67844 0.18666 0.29798 0.0
H148 H 0.73525 0.2614 0.23939 0.0
H149 H 0.79504 0.31827 0.20981 0.0
H150 H 0.67789 0.27129 0.15698 0.0
H151 H 0.61793 0.21193 0.18641 0.0
H152 H 0.56928 1.04281 0.18846 0.0
H153 H 0.60701 0.0824 0.22662 0.0
H154 H 0.46425 0.91094 0.2271 0.0
H155 H 0.50147 0.95144 0.26569 0.0
H156 H 0.59499 1.07364 0.36908 0.0
H157 H 0.70779 0.22231 0.38913 0.0
H158 H 0.70036 0.25209 0.34997 0.0
H159 H 0.58925 0.1039 0.3299 0.0
C160 C 0.67637 0.71125 0.57744 0.0
C161 C 0.66997 0.7528 0.57756 0.0
C162 C 0.67508 0.75484 0.53359 0.0
C163 C 0.66947 0.77472 0.55557 0.0
C164 C 0.6824 0.71406 0.53368 0.0
C165 C 0.68334 0.6928 0.55545 0.0
U166 U 0.68328 0.60531 0.59683 0.0
O167 O 0.73746 0.61672 0.56823 0.0
O168 O 0.6569 0.56688 0.5621 0.0
C169 C 0.70272 0.58598 0.55342 0.0
C170 C 0.67339 0.68364 0.59927 0.0
C171 C 0.71523 0.55359 0.53963 0.0
C172 C 0.76608 0.54615 0.50808 0.0
C173 C 0.75489 0.57561 0.52296 0.0
C174 C 0.69812 0.47239 0.52665 0.0
C175 C 0.7371 0.49452 0.50961 0.0
C176 C 0.68719 0.50182 0.54168 0.0
C177 C 0.67315 0.56415 0.66028 0.0
C178 C 0.63857 0.53414 0.69999 0.0
C179 C 0.6952 0.62221 0.69356 0.0
C180 C 0.6984 0.61308 0.66919 0.0
C181 C 0.66571 0.58265 0.70904 0.0
C182 C 0.64233 0.52488 0.67566 0.0
C183 C 0.67848 0.55436 0.63491 0.0
O184 O 0.63468 0.63844 0.5994 0.0
O185 O 0.71556 0.68501 0.60466 0.0
O186 O 0.72109 0.58684 0.62483 0.0
O187 O 0.63913 0.5427 0.62145 0.0
H188 H 0.66455 0.76753 0.59437 0.0
H189 H 0.6639 0.8065 0.55573 0.0
H190 H 0.68662 0.69832 0.51691 0.0
H191 H 0.68818 0.6609 0.55507 0.0
H192 H 0.79648 0.5634 0.49513 0.0
H193 H 0.77669 0.61565 0.52122 0.0
H194 H 0.67583 0.43231 0.52806 0.0
H195 H 0.65656 0.48423 0.5545 0.0
H196 H 0.61591 0.50334 0.71197 0.0
H197 H 0.7166 0.6597 0.70047 0.0
H198 H 0.72154 0.64416 0.65746 0.0
H199 H 0.62201 0.48714 0.66895 0.0
C200 C 1.02122 0.47672 0.87835 0.0
C201 C 0.98782 0.49085 0.88779 0.0
C202 C 0.96068 0.4939 0.84723 0.0
C203 C 0.95777 0.49962 0.87224 0.0
C204 C 0.98995 0.47449 0.83807 0.0
C205 C 1.02067 0.46644 0.85363 0.0
U206 U 1.09356 0.49589 0.93754 0.0
O207 O 0.15669 0.48182 0.94251 0.0
O208 O 0.16786 0.55719 0.94566 0.0
C209 C 0.18878 0.52987 0.94168 0.0
C210 C 1.06358 0.48343 0.89267 0.0
C211 C 0.22469 0.54793 0.9213 0.0
C212 C 0.26564 0.53288 0.88719 0.0
C213 C 0.23553 0.51568 0.90793 0.0
C214 C 0.27149 0.61334 0.89206 0.0
C215 C 0.28428 0.58208 0.8795 0.0
C216 C 0.24315 0.59693 0.91303 0.0
C217 C 1.05613 0.50599 0.99972 0.0
C218 C 1.12224 0.53276 0.02935 0.0
C219 C 1.04393 0.52914 0.04 0.0
C220 C 1.0261 0.51285 0.01666 0.0
C221 C 1.09198 0.53888 0.04645 0.0
C222 C 1.10444 0.51645 1.00613 0.0
C223 C 1.03935 0.4915 0.97482 0.0
O224 O 1.08762 0.52691 0.90329 0.0
O225 O 1.0574 0.44626 0.90645 0.0
O226 O 1.04161 0.45254 0.96683 0.0
O227 O 1.05816 0.52899 0.95961 0.0
H228 H 0.98809 0.49913 0.90685 0.0
H229 H 0.93491 0.51424 0.87952 0.0
H230 H 0.99217 0.46972 0.81879 0.0
H231 H 1.0467 0.45592 0.84614 0.0
H232 H 0.27593 0.50859 0.87773 0.0
H233 H 0.22108 0.4775 0.91354 0.0
H234 H 0.28642 0.65165 0.8865 0.0
H235 H 0.23551 0.62292 0.92268 0.0
H236 H 0.15951 0.54046 0.03405 0.0
H237 H 1.02036 0.53405 0.05305 0.0
H238 H 0.98917 0.5059 0.01182 0.0
H239 H 0.12848 0.51224 0.99308 0.0
C240 C 1.04079 0.48164 0.48905 0.0
C241 C 0.99756 0.46694 0.47493 0.0
C242 C 0.94756 0.3903 0.49928 0.0
C243 C 0.952 0.42203 0.47985 0.0
C244 C 0.99079 0.40517 0.51328 0.0
C245 C 1.03617 0.44961 0.50828 0.0
U246 U 0.16645 0.61078 0.46519 0.0
O247 O 0.19888 0.68085 0.48672 0.0
O248 O 0.24022 0.64104 0.48322 0.0
C249 C 0.24038 0.68064 0.49189 0.0
C250 C 1.08971 0.53097 0.48589 0.0
C251 C 0.28967 0.72985 0.49301 0.0
C252 C 0.34649 0.80465 0.5166 0.0
C253 C 0.29997 0.76053 0.51355 0.0
C254 C 0.37485 0.79014 0.47844 0.0
C255 C 0.38504 0.82047 0.49919 0.0
C256 C 0.3282 0.74554 0.47546 0.0
C257 C 0.16573 0.61831 0.39143 0.0
C258 C 0.1938 0.64982 0.3505 0.0
C259 C 1.12202 0.56919 0.35598 0.0
C260 C 0.12643 0.57539 0.38132 0.0
C261 C 0.159 0.60403 0.33978 0.0
C262 C 0.19798 0.65623 0.37568 0.0
C263 C 0.17527 0.62539 0.41796 0.0
O264 O 0.13151 0.53262 0.47902 0.0
O265 O 1.08938 0.57226 0.48081 0.0
O266 O 0.15043 0.64026 0.43188 0.0
O267 O 0.19207 0.59961 0.42945 0.0
H268 H 0.99883 0.49025 0.4601 0.0
H269 H 0.91998 0.41214 0.46846 0.0
H270 H 0.98948 0.38221 0.52829 0.0
H271 H 1.06791 0.4594 0.51986 0.0
H272 H 0.35239 0.82655 0.53278 0.0
H273 H 0.27195 0.74988 0.52766 0.0
H274 H 0.40327 0.80076 0.46454 0.0
H275 H 0.32249 0.72315 0.45949 0.0
H276 H 0.21886 0.68131 0.33951 0.0
H277 H 1.08852 0.5372 0.34988 0.0
H278 H 1.09894 0.54667 0.39297 0.0
H279 H 0.22719 0.69107 0.38288 0.0
C280 C 0.64679 0.95702 0.82491 0.0
C281 C 0.62013 0.91687 0.80887 0.0
C282 C 0.64284 0.86199 0.8317 0.0
C283 C 0.61843 0.87039 0.81214 0.0
C284 C 0.66948 0.90224 0.84755 0.0
C285 C 0.67144 0.94852 0.84421 0.0
U286 U 0.64973 0.08111 0.79815 0.0
O287 O 0.60795 0.11704 0.81353 0.0
O288 O 0.68954 0.15693 0.81422 0.0
C289 C 0.64854 0.15777 0.82017 0.0
C290 C 0.64643 1.00619 0.82384 0.0
C291 C 0.649 0.20721 0.82284 0.0
C292 C 0.6278 0.26101 0.84772 0.0
C293 C 0.62565 0.21487 0.84321 0.0
C294 C 0.67648 0.29435 0.81143 0.0
C295 C 0.6533 0.30192 0.832 0.0
C296 C 0.6747 0.24809 0.80703 0.0
C297 C 0.65693 0.08283 0.72403 0.0
C298 C 0.64621 0.12093 0.68753 0.0
C299 C 0.6692 1.05708 0.68387 0.0
C300 C 0.66896 1.0533 0.70917 0.0
C301 C 0.65762 0.09074 0.6727 0.0
C302 C 0.64564 0.11687 0.71296 0.0
C303 C 0.65466 1.07519 0.75074 0.0
O304 O 0.68789 1.04733 0.81846 0.0
O305 O 0.60677 1.00697 0.81577 0.0
O306 O 0.6123 1.05891 0.76266 0.0
O307 O 0.6947 0.09764 0.7643 0.0
H308 H 0.6001 0.92115 0.79392 0.0
H309 H 0.59744 0.84065 0.79948 0.0
H310 H 0.68871 0.89776 0.86281 0.0
H311 H 0.69177 0.97779 0.85721 0.0
H312 H 0.60924 0.26469 0.86364 0.0
H313 H 0.60596 0.18495 0.85605 0.0
H314 H 0.69631 0.3245 0.79874 0.0
H315 H 0.69365 0.24444 0.79127 0.0
H316 H 0.63712 0.14718 0.6794 0.0
H317 H 0.67803 1.03334 0.67296 0.0
H318 H 0.67755 1.02656 0.71717 0.0
H319 H 0.63609 0.13999 0.72392 0.0
C320 C 0.76754 0.58888 0.15411 0.0
C321 C 0.80777 0.61146 0.1375 0.0
C322 C 0.85992 0.58754 0.16181 0.0
C323 C 0.85305 0.61055 0.14123 0.0
C324 C 0.81947 0.56475 0.17817 0.0
C325 C 0.7744 0.56538 0.17438 0.0
U326 U 0.64455 0.59313 0.12924 0.0
O327 O 0.57082 0.55681 0.14809 0.0
O328 O 0.61395 0.63773 0.14638 0.0
C329 C 0.57282 0.59877 0.15419 0.0
C330 C 0.71992 0.5922 0.15255 0.0
C331 C 0.52479 0.60103 0.15648 0.0
C332 C 0.46583 0.611 0.18322 0.0
C333 C 0.51088 0.61022 0.17945 0.0
C334 C 0.44655 0.59404 0.14097 0.0
C335 C 0.4326 0.60277 0.16414 0.0
C336 C 0.49186 0.59304 0.1372 0.0
C337 C 0.63778 0.58394 0.05492 0.0
C338 C 0.62038 0.60931 0.01599 0.0
C339 C 0.65103 0.55106 0.01705 0.0
C340 C 0.6519 0.55315 0.04246 0.0
C341 C 0.6354 0.57921 1.00351 0.0
C342 C 0.62189 0.6119 0.04139 0.0
C343 C 0.64021 0.5873 0.08183 0.0
O344 O 0.72149 0.63274 0.14434 0.0
O345 O 0.67711 0.55213 0.1479 0.0
O346 O 0.62125 0.54776 0.09579 0.0
O347 O 0.66161 0.62999 0.09335 0.0
H348 H 0.80453 0.63037 0.12178 0.0
H349 H 0.88314 0.62864 0.12819 0.0
H350 H 0.82298 0.5468 0.19421 0.0
H351 H 0.74489 0.54813 0.18778 0.0
H352 H 0.45675 0.61784 0.20125 0.0
H353 H 0.53494 0.61642 0.19478 0.0
H354 H 0.42209 0.58751 0.12579 0.0
H355 H 0.50092 0.58573 0.11927 0.0
H356 H 0.60814 0.63135 1.00603 0.0
H357 H 0.6632 0.5279 1.00792 0.0
H358 H 0.66459 0.53142 0.05237 0.0
H359 H 0.61049 0.63571 0.05049 0.0
C360 C 0.3002 0.56572 0.18926 0.0
C361 C 0.2912 0.60344 0.17989 0.0
C362 C 0.37702 0.64332 0.16176 0.0
C363 C 0.38329 0.60258 0.16886 0.0
N364 N 0.34644 0.521 0.18648 0.0
N365 N 0.32111 0.67602 0.15431 0.0
C366 C 0.34354 0.56275 0.1818 0.0
C367 C 0.32982 0.64182 0.16547 0.0
N368 N 0.26867 0.534 0.20651 0.0
N369 N 0.41689 0.68454 0.15207 0.0
H370 H 0.28857 0.67775 0.15674 0.0
H371 H 0.34468 0.70062 0.14118 0.0
H372 H 0.45131 0.68676 0.14871 0.0
H373 H 0.41728 0.71793 0.14922 0.0
H374 H 0.27579 0.50922 0.216 0.0
H375 H 0.23825 0.53624 0.21337 0.0
H376 H 0.31663 0.48841 0.19332 0.0
H377 H 0.37714 0.51732 0.18144 0.0
C378 C 0.81948 0.29163 0.5285 0.0
C379 C 0.80837 0.24702 0.51589 0.0
C380 C 0.88933 0.29616 0.49307 0.0
C381 C 0.89878 0.34105 0.50469 0.0
N382 N 0.87397 0.38139 0.5343 0.0
N383 N 0.83635 0.20701 0.48728 0.0
C384 C 0.86408 0.33847 0.52272 0.0
C385 C 0.84469 0.24954 0.49864 0.0
N386 N 0.78783 0.2887 0.54666 0.0
N387 N 0.92449 0.29792 0.47721 0.0
H388 H 0.80864 0.17214 0.49274 0.0
H389 H 0.8558 0.20558 0.47217 0.0
H390 H 0.95639 0.33093 0.4723 0.0
H391 H 0.92396 0.26713 0.46944 0.0
H392 H 0.79408 0.31756 0.55826 0.0
H393 H 0.75511 0.25596 0.55089 0.0
H394 H 0.85143 0.38421 0.54752 0.0
H395 H 0.9053 0.41559 0.53034 0.0
C396 C 0.6172 0.73736 0.86193 0.0
C397 C 0.64105 0.71959 0.84578 0.0
C398 C 0.66721 0.79542 0.82061 0.0
C399 C 0.64059 0.81165 0.83592 0.0
N400 N 0.58254 0.79209 0.86895 0.0
N401 N 0.68207 0.72858 0.80746 0.0
C402 C 0.61347 0.7808 0.85597 0.0
C403 C 0.66405 0.74783 0.82447 0.0
N404 N 0.59933 0.71356 0.8835 0.0
N405 N 0.69745 0.82649 0.80284 0.0
H406 H 0.68159 0.69497 0.80979 0.0
H407 H 0.69382 0.74379 0.7903 0.0
H408 H 0.70065 0.861 0.79936 0.0
H409 H 0.72237 0.81999 0.79282 0.0
H410 H 0.58618 0.72703 0.8973 0.0
H411 H 0.60143 0.68215 0.88838 0.0
H412 H 0.5576 0.7688 0.88206 0.0
H413 H 0.57847 0.82281 0.86507 0.0
C414 C 0.97258 0.56287 0.15697 0.0
C415 C 1.00066 0.58664 0.17813 0.0
C416 C 0.94043 0.6167 0.1864 0.0
C417 C 0.90936 0.58828 0.16687 0.0
N418 N 0.89297 0.52741 0.13596 0.0
N419 N 1.00539 0.62989 0.2151 0.0
C420 C 0.92477 0.5595 0.15284 0.0
C421 C 0.98288 0.61191 0.19335 0.0
N422 N 0.99249 0.54537 0.14005 0.0
N423 N 0.9305 0.64994 0.19789 0.0
H424 H 1.03538 0.62616 0.22112 0.0
H425 H 0.99133 0.64402 0.22816 0.0
H426 H 0.9005 0.65493 0.19328 0.0
H427 H 0.9546 0.67585 0.21034 0.0
H428 H 0.97661 0.5325 0.12316 0.0
H429 H 1.02731 0.54787 0.14195 0.0
H430 H 0.89916 0.50123 0.12711 0.0
H431 H 0.85814 0.52389 0.1324 0.0
C432 C 0.51657 0.91669 0.52444 0.0
C433 C 0.52771 0.96158 0.51206 0.0
C434 C 0.44502 0.91391 0.49149 0.0
C435 C 0.4353 0.86875 0.50283 0.0
N436 N 0.46726 0.8262 0.52673 0.0
N437 N 0.50594 0.99755 0.47884 0.0
C438 C 0.47283 0.87003 0.51827 0.0
C439 C 0.49271 0.95858 0.49427 0.0
N440 N 0.54634 0.91865 0.54307 0.0
N441 N 0.40804 0.91467 0.47834 0.0
H442 H 0.54058 1.02988 0.47925 0.0
H443 H 0.48491 0.99576 0.46383 0.0
H444 H 0.37356 0.883 0.47531 0.0
H445 H 0.41 0.94726 0.4721 0.0
H446 H 0.53748 0.8889 0.5546 0.0
H447 H 0.57785 0.95123 0.54847 0.0
H448 H 0.49539 0.8233 0.53561 0.0
H449 H 0.43592 0.79195 0.52296 0.0
C450 C 0.63088 0.41464 0.82456 0.0
C451 C 0.65381 0.44461 0.8454 0.0
C452 C 0.68265 0.38428 0.85582 0.0
C453 C 0.65405 0.35152 0.8367 0.0
N454 N 0.59309 0.33322 0.80566 0.0
N455 N 0.69912 0.45432 0.88206 0.0
C456 C 0.62585 0.36612 0.822 0.0
C457 C 0.67913 0.4283 0.86131 0.0
N458 N 0.6172 0.43393 0.80599 0.0
N459 N 0.71474 0.37431 0.8683 0.0
H460 H 0.6982 0.48666 0.88633 0.0
H461 H 0.71334 0.44209 0.89578 0.0
H462 H 0.71822 0.34304 0.86486 0.0
H463 H 0.74085 0.39893 0.88052 0.0
H464 H 0.60435 0.41608 0.78946 0.0
H465 H 0.62627 0.47081 0.80578 0.0
H466 H 0.56731 0.33937 0.79639 0.0
H467 H 0.58835 0.29781 0.80306 0.0
C468 C 0.70942 0.84189 0.48096 0.0
C469 C 0.66488 0.84405 0.48143 0.0
C470 C 0.62307 0.76569 0.5026 0.0
C471 C 0.67083 0.77537 0.51044 0.0
N472 N 0.76029 0.81719 0.50388 0.0
N473 N 0.57568 0.79674 0.48169 0.0
C474 C 0.71448 0.81076 0.49803 0.0
C475 C 0.6203 0.80058 0.48741 0.0
N476 N 0.74754 0.87311 0.46615 0.0
N477 N 0.58015 0.72595 0.51074 0.0
H478 H 0.57413 0.82424 0.47145 0.0
H479 H 0.54158 0.76634 0.48691 0.0
H480 H 0.57954 0.69883 0.52212 0.0
H481 H 0.57954 0.69883 0.52212 0.0
H482 H 0.78089 0.87243 0.46438 0.0
H483 H 0.74309 0.89647 0.45409 0.0
H484 H 0.79368 0.84608 0.49708 0.0
H485 H 0.76481 0.79452 0.5163 0.0
C486 C 0.86191 0.51959 0.82536 0.0
C487 C 0.89251 0.5695 0.81785 0.0
C488 C 0.9674 0.56273 0.82122 0.0
C489 C 0.93751 0.51437 0.8311 0.0
N490 N 0.8571 0.44126 0.83588 0.0
N491 N 0.96908 0.63222 0.80017 0.0
C492 C 0.88473 0.4907 0.83055 0.0
C493 C 0.94352 0.58852 0.81255 0.0
N494 N 0.81192 0.50144 0.82918 0.0
N495 N 1.01838 0.58574 0.82219 0.0
H496 H 0.95154 0.65154 0.79402 0.0
H497 H 1.00571 0.64649 0.79404 0.0
H498 H 1.03769 0.56834 0.82839 0.0
H499 H 1.04167 0.62313 0.81812 0.0
H500 H 0.78844 0.46749 0.83743 0.0
H501 H 0.7941 0.52146 0.82466 0.0
H502 H 0.81836 0.42073 0.83447 0.0
H503 H 0.87378 0.41988 0.83983 0.0
C504 C 0.44267 0.89423 0.15257 0.0
C505 C 0.39678 0.89238 0.15795 0.0
C506 C 0.43913 0.96361 0.18467 0.0
C507 C 0.48127 0.95696 0.18401 0.0
N508 N 0.52939 0.92539 0.16426 0.0
N509 N 0.35375 0.93294 0.17599 0.0
C510 C 0.48553 0.92601 0.16646 0.0
C511 C 0.39611 0.93032 0.1721 0.0
N512 N 0.44355 0.86327 0.13525 0.0
N513 N 0.43864 0.99945 0.19893 0.0
H514 H 0.31938 0.90979 0.16798 0.0
H515 H 0.31938 0.90979 0.16798 0.0
H516 H 0.46982 1.02525 0.20852 0.0
H517 H 0.4075 1.00429 0.20044 0.0
H518 H 0.47557 0.86261 0.12975 0.0
H519 H 0.41159 0.83993 0.12537 0.0
H520 H 0.53469 0.90164 0.15287 0.0
H521 H 0.56108 0.94953 0.17408 0.0
C522 C 0.75188 0.38689 0.49568 0.0
C523 C 0.72036 0.36937 0.47525 0.0
C524 C 0.72237 0.44819 0.47099 0.0
C525 C 0.74658 0.46222 0.49364 0.0
N526 N 0.80018 0.45564 0.52284 0.0
N527 N 0.69235 0.3873 0.43851 0.0
C528 C 0.7676 0.43543 0.5041 0.0
C529 C 0.71247 0.40219 0.4609 0.0
N530 N 0.76117 0.35504 0.50866 0.0
N531 N 0.70515 0.47654 0.46044 0.0
H532 H 0.68438 0.35274 0.43161 0.0
H533 H 0.68773 0.41021 0.42633 0.0
H534 H 0.71275 0.51086 0.4674 0.0
H535 H 0.68232 0.46555 0.44529 0.0
H536 H 0.77532 0.36266 0.52609 0.0
H537 H 0.75229 0.31994 0.50233 0.0
H538 H 0.81943 0.4393 0.53037 0.0
H539 H 0.81111 0.49119 0.52937 0.0
C540 C 0.41263 0.66311 0.85424 0.0
C541 C 0.40912 0.638 0.83261 0.0
C542 C 0.31846 0.59725 0.83673 0.0
C543 C 0.3259 0.60484 0.86212 0.0
N544 N 0.38402 0.64463 0.89522 0.0
N545 N 0.35933 0.60664 0.79731 0.0
C546 C 0.37409 0.63846 0.87108 0.0
C547 C 0.36174 0.61482 0.82157 0.0
N548 N 0.45312 0.70802 0.85901 0.0
N549 N 0.27125 0.57317 0.82761 0.0
H550 H 0.39211 0.61954 0.78708 0.0
H551 H 0.32622 0.58802 0.78766 0.0
H552 H 0.23967 0.56034 0.83868 0.0
H553 H 0.26345 0.56752 0.80925 0.0
H554 H 0.45607 0.72746 0.8749 0.0
H555 H 0.48079 0.72661 0.84589 0.0
H556 H 0.4203 0.66644 0.90169 0.0
H557 H 0.35742 0.62439 0.90848 0.0
C558 C 0.84788 0.32477 0.13984 0.0
C559 C 0.88094 0.3712 0.15011 0.0
C560 C 0.81032 0.37692 0.16649 0.0
C561 C 0.78015 0.32539 0.16278 0.0
N562 N 0.76768 0.24991 0.14363 0.0
N563 N 0.89459 0.44378 0.17257 0.0
C564 C 0.79752 0.29946 0.14796 0.0
C565 C 0.86238 0.39897 0.16246 0.0
N566 N 0.86569 0.30429 0.12344 0.0
N567 N 0.7893 0.40338 0.17552 0.0
H568 H 0.93318 0.46098 0.17025 0.0
H569 H 0.88327 0.46266 0.18433 0.0
H570 H 0.75095 0.38659 0.17902 0.0
H571 H 0.80868 0.44191 0.17723 0.0
H572 H 0.84292 0.27181 0.11395 0.0
H573 H 0.90303 0.32289 0.11778 0.0
H574 H 0.78049 0.22785 0.13561 0.0
H575 H 0.73027 0.23031 0.1489 0.0
C576 C 0.13684 0.53789 0.11006 0.0
C577 C 0.14466 0.58413 0.1189 0.0
C578 C 1.12466 0.60344 0.07901 0.0
C579 C 1.11052 0.55468 0.0713 0.0
N580 N 1.09504 0.47225 0.08071 0.0
N581 N 0.13577 0.65671 0.11301 0.0
C582 C 1.11425 0.52089 0.08719 0.0
C583 C 0.13591 0.61593 0.10371 0.0
N584 N 0.1527 0.51102 0.12305 0.0
N585 N 0.12845 0.63817 0.06269 0.0
H586 H 0.14142 0.666 0.13121 0.0
H587 H 1.12479 0.67826 0.10318 0.0
H588 H 1.12051 0.63032 0.04439 0.0
H589 H 0.14391 0.6757 0.06689 0.0
H590 H 0.15205 0.47917 0.1165 0.0
H591 H 0.17156 0.52361 0.1393 0.0
H592 H 1.0918 0.44488 0.09266 0.0
H593 H 1.07817 0.45831 0.06406 0.0
C594 C 0.71726 0.15549 0.4415 0.0
C595 C 0.68078 0.11199 0.45347 0.0
C596 C 0.64364 1.07715 0.41401 0.0
C597 C 0.67336 0.12499 0.40366 0.0
N598 N 0.76028 0.18742 0.40373 0.0
N599 N 0.61296 1.02718 0.45034 0.0
C600 C 0.71726 0.15764 0.41617 0.0
C601 C 0.64468 1.07147 0.43956 0.0
N602 N 0.75042 0.19614 0.45417 0.0
N603 N 0.62399 1.03639 0.39943 0.0
H604 H 0.61634 1.01931 0.46827 0.0
H605 H 0.58208 0.99888 0.44161 0.0
H606 H 0.63533 1.03907 0.38142 0.0
H607 H 0.60462 1.0 0.40578 0.0
H608 H 0.77483 0.22995 0.44592 0.0
H609 H 0.74932 0.19762 0.47284 0.0
H610 H 0.79457 0.20892 0.41222 0.0
H611 H 0.76221 0.18545 0.38494 0.0
C612 C 0.6282 0.59916 0.77176 0.0
C613 C 0.65487 0.5811 0.78541 0.0
C614 C 0.69829 0.57738 0.74899 0.0
C615 C 0.66785 0.59027 0.73528 0.0
N616 N 0.61569 0.62759 0.73295 0.0
N617 N 0.7162 0.55446 0.78773 0.0
C618 C 0.6367 0.60597 0.7465 0.0
C619 C 0.69091 0.57153 0.77427 0.0
N620 N 0.59222 0.60628 0.78265 0.0
N621 N 0.73511 0.5721 0.73771 0.0
H622 H 0.71555 0.55463 0.80643 0.0
H623 H 0.73705 0.53934 0.78061 0.0
H624 H 0.74155 0.57653 0.71911 0.0
H625 H 0.76197 0.56734 0.7467 0.0
H626 H 0.56758 0.61394 0.77336 0.0
H627 H 0.58453 0.6015 0.80107 0.0
H628 H 0.59717 0.64504 0.74026 0.0
H629 H 0.62041 0.63187 0.71427 0.0
C630 C 0.69278 0.13787 0.60718 0.0
C631 C 0.65269 0.0993 0.59391 0.0
C632 C 0.61492 1.0564 0.63248 0.0
C633 C 0.65637 0.09332 0.64548 0.0
N634 N 0.73991 0.16318 0.64457 0.0
N635 N 0.5817 1.01639 0.59397 0.0
C636 C 0.6969 0.13212 0.63259 0.0
C637 C 0.61555 1.05702 0.60663 0.0
N638 N 0.7253 0.18148 0.59603 0.0
N639 N 0.57407 1.02136 0.64484 0.0
H640 H 0.58133 1.01491 0.57516 0.0
H641 H 0.55725 0.98247 0.60202 0.0
H642 H 0.57234 1.01924 0.66365 0.0
H643 H 0.54041 0.99699 0.63656 0.0
H644 H 0.75167 0.21271 0.60531 0.0
H645 H 0.72302 0.18853 0.5779 0.0
H646 H 0.77287 0.18842 0.63582 0.0
H647 H 0.744 0.16064 0.66312 0.0
C648 C 0.6768 0.6203 0.93787 0.0
C649 C 0.64395 0.57666 0.92485 0.0
C650 C 0.6003 0.53762 0.96305 0.0
C651 C 0.63706 0.57891 0.97627 0.0
N652 N 0.71381 0.65743 0.97638 0.0
N653 N 0.57534 0.49281 0.92485 0.0
C654 C 0.67605 0.61983 0.96367 0.0
C655 C 0.60568 0.53513 0.9374 0.0
N656 N 0.70816 0.66278 0.92551 0.0
N657 N 0.55963 0.50131 0.97499 0.0
H658 H 0.57705 0.49062 0.90608 0.0
H659 H 0.55036 0.45921 0.93298 0.0
H660 H 0.55479 0.5019 0.99364 0.0
H661 H 0.52892 0.47267 0.96638 0.0
H662 H 0.72912 0.69723 0.93376 0.0
H663 H 0.70974 0.66476 0.90671 0.0
H664 H 0.74636 0.68526 0.96838 0.0
H665 H 0.71468 0.65876 0.9952 0.0
C666 C 0.20143 0.63142 0.27245 0.0
C667 C 0.15689 0.59866 0.26013 0.0
C668 C 1.11985 0.55821 0.29901 0.0
C669 C 0.16074 0.59619 0.31208 0.0
N670 N 0.25054 0.64497 0.30841 0.0
N671 N 1.07029 0.53505 0.26265 0.0
C672 C 0.20466 0.62694 0.29805 0.0
C673 C 1.11488 0.56405 0.2738 0.0
N674 N 0.24093 0.66718 0.25968 0.0
N675 N 1.09293 0.51193 0.30874 0.0
H676 H 1.06509 0.53772 0.24423 0.0
H677 H 1.03764 0.51202 0.27229 0.0
H678 H 1.10684 0.50109 0.32321 0.0
H679 H 1.06436 0.48209 0.29953 0.0
H680 H 0.27254 0.69566 0.26787 0.0
H681 H 0.23986 0.67095 0.241 0.0
H682 H 0.28407 0.66378 0.29883 0.0
H683 H 0.25477 0.63439 0.32572 0.0
loop_
_geom_bond_atom_site_label_1
_geom_bond_atom_site_label_2
_geom_bond_distance
_geom_bond_site_symmetry_2
_ccdc_geom_bond_type
Tb0 C2 2.809 . S
Tb0 O20 2.484 . S
Tb0 O21 2.440 . S
Tb0 O22 2.658 . S
Tb0 O23 2.409 . S
Tb0 O24 2.378 . S
Tb0 O28 2.325 . S
Tb0 O31 2.341 1_455 S
Tb1 C11 2.809 . S
Tb1 O22 2.325 1_655 S
Tb1 O25 2.341 1_655 S
Tb1 O26 2.484 . S
Tb1 O27 2.440 . S
Tb1 O28 2.658 1_655 S
Tb1 O29 2.409 . S
Tb1 O30 2.378 . S
C2 Tb0 2.809 . S
C2 C3 1.514 . S
C2 O20 1.248 . S
C2 O21 1.266 . S
C3 C2 1.514 . S
C3 C4 1.359 . S
C3 C8 1.348 . S
C4 C3 1.359 . S
C4 C5 1.380 . S
C4 H32 0.929 . S
C5 C4 1.380 . S
C5 C6 1.347 . S
C5 H33 0.931 . S
C6 C5 1.347 . S
C6 C7 1.369 . S
C7 C6 1.369 . S
C7 C8 1.408 . S
C7 H34 0.930 . S
C8 C3 1.348 . S
C8 C7 1.408 . S
C8 H35 0.930 . S
C9 O22 1.281 . S
C9 O23 1.254 . S
C10 O24 1.236 . S
C10 O25 1.266 . S
C11 Tb1 2.809 . S
C11 C12 1.514 . S
C11 O26 1.248 . S
C11 O27 1.266 . S
C12 C11 1.514 . S
C12 C13 1.359 . S
C12 C17 1.348 . S
C13 C12 1.359 . S
C13 C14 1.380 . S
C13 H36 0.929 . S
C14 C13 1.380 . S
C14 C15 1.347 . S
C14 H37 0.931 . S
C15 C14 1.347 . S
C15 C16 1.369 . S
C16 C15 1.369 . S
C16 C17 1.408 . S
C16 H38 0.930 . S
C17 C12 1.348 . S
C17 C16 1.408 . S
C17 H39 0.930 . S
C18 O28 1.281 . S
C18 O29 1.254 1_455 S
C19 O30 1.236 . S
C19 O31 1.266 . S
O20 Tb0 2.484 . S
O20 C2 1.248 . S
O21 Tb0 2.440 . S
O21 C2 1.266 . S
O22 Tb0 2.658 . S
O22 Tb1 2.325 1_455 S
O22 C9 1.281 . S
O23 Tb0 2.409 . S
O23 C9 1.254 . S
O24 Tb0 2.378 . S
O24 C10 1.236 . S
O25 Tb1 2.341 1_455 S
O25 C10 1.266 . S
O26 Tb1 2.484 . S
O26 C11 1.248 . S
O27 Tb1 2.440 . S
O27 C11 1.266 . S
O28 Tb0 2.325 . S
O28 Tb1 2.658 1_455 S
O28 C18 1.281 . S
O29 Tb1 2.409 . S
O29 C18 1.254 1_655 S
O30 Tb1 2.378 . S
O30 C19 1.236 . S
O31 Tb0 2.341 1_655 S
O31 C19 1.266 . S
H32 C4 0.929 . S
H33 C5 0.931 . S
H34 C7 0.930 . S
H35 C8 0.930 . S
H36 C13 0.929 . S
H37 C14 0.931 . S
H38 C16 0.930 . S
H39 C17 0.930 . S
Tb40 C42 2.809 . S
Tb40 O60 2.484 . S
Tb40 O61 2.440 . S
Tb40 O62 2.658 1_565 S
Tb40 O63 2.403 1_565 S
Tb40 O64 2.378 . S
Tb40 O68 2.325 1_565 S
Tb40 O71 2.341 1_565 S
Tb41 C51 2.809 . S
Tb41 O62 2.325 . S
Tb41 O65 2.341 1_545 S
Tb41 O66 2.484 . S
Tb41 O67 2.440 . S
Tb41 O68 2.658 . S
Tb41 O69 2.409 . S
Tb41 O70 2.378 . S
C42 Tb40 2.809 . S
C42 C43 1.514 . S
C42 O60 1.248 . S
C42 O61 1.266 . S
C43 C42 1.514 . S
C43 C44 1.359 . S
C43 C48 1.348 . S
C44 C43 1.359 . S
C44 C45 1.380 . S
C44 H72 0.929 . S
C45 C44 1.380 . S
C45 C46 1.347 . S
C45 H73 0.931 . S
C46 C45 1.347 . S
C46 C47 1.369 . S
C47 C46 1.369 . S
C47 C48 1.408 . S
C47 H74 0.930 . S
C48 C43 1.348 . S
C48 C47 1.408 . S
C48 H75 0.930 . S
C49 O62 1.281 . S
C49 O63 1.283 . S
C50 O64 1.236 . S
C50 O65 1.266 . S
C51 Tb41 2.809 . S
C51 C52 1.514 . S
C51 O66 1.248 . S
C51 O67 1.266 . S
C52 C51 1.514 . S
C52 C53 1.359 . S
C52 C57 1.348 . S
C53 C52 1.359 . S
C53 C54 1.380 . S
C53 H76 0.929 . S
C54 C53 1.380 . S
C54 C55 1.347 . S
C54 H77 0.931 . S
C55 C54 1.347 . S
C55 C56 1.369 . S
C56 C55 1.369 . S
C56 C57 1.408 . S
C56 H78 0.930 . S
C57 C52 1.348 . S
C57 C56 1.408 . S
C57 H79 0.930 . S
C58 O68 1.281 . S
C58 O69 1.254 . S
C59 O70 1.236 . S
C59 O71 1.266 . S
O60 Tb40 2.484 . S
O60 C42 1.248 . S
O61 Tb40 2.440 . S
O61 C42 1.266 . S
O62 Tb40 2.658 1_545 S
O62 Tb41 2.325 . S
O62 C49 1.281 . S
O63 Tb40 2.403 1_545 S
O63 C49 1.283 . S
O64 Tb40 2.378 . S
O64 C50 1.236 . S
O65 Tb41 2.341 1_565 S
O65 C50 1.266 . S
O66 Tb41 2.484 . S
O66 C51 1.248 . S
O67 Tb41 2.440 . S
O67 C51 1.266 . S
O68 Tb40 2.325 1_545 S
O68 Tb41 2.658 . S
O68 C58 1.281 . S
O69 Tb41 2.409 . S
O69 C58 1.254 . S
O70 Tb41 2.378 . S
O70 C59 1.236 . S
O71 Tb40 2.341 1_545 S
O71 C59 1.266 . S
H72 C44 0.929 . S
H73 C45 0.931 . S
H74 C47 0.930 . S
H75 C48 0.930 . S
H76 C53 0.929 . S
H77 C54 0.931 . S
H78 C56 0.930 . S
H79 C57 0.930 . S
Tb80 C82 2.809 . S
Tb80 O100 2.484 . S
Tb80 O101 2.440 . S
Tb80 O102 2.658 . S
Tb80 O103 2.409 . S
Tb80 O104 2.378 . S
Tb80 O108 2.325 . S
Tb80 O111 2.341 . S
Tb81 C91 2.809 . S
Tb81 O102 2.325 . S
Tb81 O105 2.341 . S
Tb81 O106 2.484 . S
Tb81 O107 2.440 . S
Tb81 O108 2.658 . S
Tb81 O109 2.409 . S
Tb81 O110 2.378 . S
C82 Tb80 2.809 . S
C82 C83 1.514 . S
C82 O100 1.248 . S
C82 O101 1.266 . S
C83 C82 1.514 . S
C83 C84 1.359 . S
C83 C88 1.348 . S
C84 C83 1.359 . S
C84 C85 1.380 . S
C84 H112 0.929 . S
C85 C84 1.380 . S
C85 C86 1.347 . S
C85 H113 0.931 . S
C86 C85 1.347 . S
C86 C87 1.369 . S
C87 C86 1.369 . S
C87 C88 1.408 . S
C87 H114 0.930 . S
C88 C83 1.348 . S
C88 C87 1.408 . S
C88 H115 0.930 . S
C89 O102 1.281 . S
C89 O103 1.254 . S
C90 O104 1.236 . S
C90 O105 1.266 . S
C91 Tb81 2.809 . S
C91 C92 1.514 . S
C91 O106 1.248 . S
C91 O107 1.266 . S
C92 C91 1.514 . S
C92 C93 1.359 . S
C92 C97 1.348 . S
C93 C92 1.359 . S
C93 C94 1.380 . S
C93 H116 0.929 . S
C94 C93 1.380 . S
C94 C95 1.347 . S
C94 H117 0.931 . S
C95 C94 1.347 . S
C95 C96 1.369 . S
C96 C95 1.369 . S
C96 C97 1.408 . S
C96 H118 0.930 . S
C97 C92 1.348 . S
C97 C96 1.408 . S
C97 H119 0.930 . S
C98 O108 1.281 . S
C98 O109 1.254 . S
C99 O110 1.236 . S
C99 O111 1.266 . S
O100 Tb80 2.484 . S
O100 C82 1.248 . S
O101 Tb80 2.440 . S
O101 C82 1.266 . S
O102 Tb80 2.658 . S
O102 Tb81 2.325 . S
O102 C89 1.281 . S
O103 Tb80 2.409 . S
O103 C89 1.254 . S
O104 Tb80 2.378 . S
O104 C90 1.236 . S
O105 Tb81 2.341 . S
O105 C90 1.266 . S
O106 Tb81 2.484 . S
O106 C91 1.248 . S
O107 Tb81 2.440 . S
O107 C91 1.266 . S
O108 Tb80 2.325 . S
O108 Tb81 2.658 . S
O108 C98 1.281 . S
O109 Tb81 2.409 . S
O109 C98 1.254 . S
O110 Tb81 2.378 . S
O110 C99 1.236 . S
O111 Tb80 2.341 . S
O111 C99 1.266 . S
H112 C84 0.929 . S
H113 C85 0.931 . S
H114 C87 0.930 . S
H115 C88 0.930 . S
H116 C93 0.929 . S
H117 C94 0.931 . S
H118 C96 0.930 . S
H119 C97 0.930 . S
C120 C121 1.264 . S
C120 C125 1.479 . S
C120 C130 1.465 . S
C121 C120 1.264 . S
C121 C123 1.339 . S
C121 H148 0.931 . S
C122 C123 1.395 . S
C122 C124 1.320 . S
C123 C121 1.339 . S
C123 C122 1.395 . S
C123 H149 0.929 . S
C124 C122 1.320 . S
C124 C125 1.405 . S
C124 H150 0.930 . S
C125 C120 1.479 . S
C125 C124 1.405 . S
C125 H151 0.931 . S
U126 O127 2.454 . S
U126 O128 2.458 1_545 S
U126 C129 2.984 1_545 S
U126 C130 2.847 . S
U126 C143 2.882 . S
U126 O144 2.441 . S
U126 O145 2.420 . S
U126 O146 2.455 . S
U126 O147 2.449 . S
O127 U126 2.454 . S
O127 C129 1.353 1_545 S
O128 U126 2.458 1_565 S
O128 C129 1.286 . S
C129 U126 2.984 1_565 S
C129 O127 1.353 1_565 S
C129 O128 1.286 . S
C129 C131 1.363 . S
C130 C120 1.465 . S
C130 U126 2.847 . S
C130 O144 1.249 . S
C130 O145 1.202 . S
C131 C129 1.363 . S
C131 C133 1.408 . S
C131 C136 1.342 . S
C132 C133 1.310 . S
C132 C135 1.461 . S
C132 H152 0.932 . S
C133 C131 1.408 . S
C133 C132 1.310 . S
C133 H153 0.930 . S
C134 C135 1.474 . S
C134 C136 1.285 . S
C134 H154 0.929 . S
C135 C132 1.461 . S
C135 C134 1.474 . S
C136 C131 1.342 . S
C136 C134 1.285 . S
C136 H155 0.930 . S
C137 C140 1.424 . S
C137 C142 1.245 . S
C137 C143 1.428 . S
C138 C141 1.260 . S
C138 C142 1.477 . S
C138 H156 0.932 1_545 S
C139 C140 1.384 . S
C139 C141 1.479 . S
C139 H157 0.929 . S
C140 C137 1.424 . S
C140 C139 1.384 . S
C140 H158 0.928 . S
C141 C138 1.260 . S
C141 C139 1.479 . S
C142 C137 1.245 . S
C142 C138 1.477 . S
C142 H159 0.932 1_545 S
C143 U126 2.882 . S
C143 C137 1.428 . S
C143 O146 1.301 . S
C143 O147 1.282 . S
O144 U126 2.441 . S
O144 C130 1.249 . S
O145 U126 2.420 . S
O145 C130 1.202 . S
O146 U126 2.455 . S
O146 C143 1.301 . S
O147 U126 2.449 . S
O147 C143 1.282 . S
H148 C121 0.931 . S
H149 C123 0.929 . S
H150 C124 0.930 . S
H151 C125 0.931 . S
H152 C132 0.932 . S
H153 C133 0.930 . S
H154 C134 0.929 . S
H155 C136 0.930 . S
H156 C138 0.932 1_565 S
H157 C139 0.929 . S
H158 C140 0.928 . S
H159 C142 0.932 1_565 S
C160 C161 1.264 . S
C160 C165 1.479 . S
C160 C170 1.465 . S
C161 C160 1.264 . S
C161 C163 1.339 . S
C161 H188 0.931 . S
C162 C163 1.395 . S
C162 C164 1.320 . S
C163 C161 1.339 . S
C163 C162 1.395 . S
C163 H189 0.929 . S
C164 C162 1.320 . S
C164 C165 1.405 . S
C164 H190 0.930 . S
C165 C160 1.479 . S
C165 C164 1.405 . S
C165 H191 0.931 . S
U166 O167 2.454 . S
U166 O168 2.458 . S
U166 C169 2.984 . S
U166 C170 2.847 . S
U166 C183 2.882 . S
U166 O184 2.441 . S
U166 O185 2.420 . S
U166 O186 2.455 . S
U166 O187 2.449 . S
O167 U166 2.454 . S
O167 C169 1.353 . S
O168 U166 2.458 . S
O168 C169 1.286 . S
C169 U166 2.984 . S
C169 O167 1.353 . S
C169 O168 1.286 . S
C169 C171 1.363 . S
C170 C160 1.465 . S
C170 U166 2.847 . S
C170 O184 1.249 . S
C170 O185 1.202 . S
C171 C169 1.363 . S
C171 C173 1.408 . S
C171 C176 1.342 . S
C172 C173 1.310 . S
C172 C175 1.461 . S
C172 H192 0.932 . S
C173 C171 1.408 . S
C173 C172 1.310 . S
C173 H193 0.930 . S
C174 C175 1.474 . S
C174 C176 1.285 . S
C174 H194 0.929 . S
C175 C172 1.461 . S
C175 C174 1.474 . S
C176 C171 1.342 . S
C176 C174 1.285 . S
C176 H195 0.930 . S
C177 C180 1.424 . S
C177 C182 1.245 . S
C177 C183 1.428 . S
C178 C181 1.260 . S
C178 C182 1.477 . S
C178 H196 0.932 . S
C179 C180 1.384 . S
C179 C181 1.479 . S
C179 H197 0.929 . S
C180 C177 1.424 . S
C180 C179 1.384 . S
C180 H198 0.928 . S
C181 C178 1.260 . S
C181 C179 1.479 . S
C182 C177 1.245 . S
C182 C178 1.477 . S
C182 H199 0.932 . S
C183 U166 2.882 . S
C183 C177 1.428 . S
C183 O186 1.301 . S
C183 O187 1.282 . S
O184 U166 2.441 . S
O184 C170 1.249 . S
O185 U166 2.420 . S
O185 C170 1.202 . S
O186 U166 2.455 . S
O186 C183 1.301 . S
O187 U166 2.449 . S
O187 C183 1.282 . S
H188 C161 0.931 . S
H189 C163 0.929 . S
H190 C164 0.930 . S
H191 C165 0.931 . S
H192 C172 0.932 . S
H193 C173 0.930 . S
H194 C174 0.929 . S
H195 C176 0.930 . S
H196 C178 0.932 . S
H197 C179 0.929 . S
H198 C180 0.928 . S
H199 C182 0.932 . S
C200 C201 1.264 . S
C200 C205 1.479 . S
C200 C210 1.465 . S
C201 C200 1.264 . S
C201 C203 1.339 . S
C201 H228 0.931 . S
C202 C203 1.395 . S
C202 C204 1.320 . S
C203 C201 1.339 . S
C203 C202 1.395 . S
C203 H229 0.929 . S
C204 C202 1.320 . S
C204 C205 1.405 . S
C204 H230 0.930 . S
C205 C200 1.479 . S
C205 C204 1.405 . S
C205 H231 0.931 . S
U206 O207 2.454 1_655 S
U206 O208 2.458 1_655 S
U206 C209 2.984 1_655 S
U206 C210 2.847 . S
U206 C223 2.882 . S
U206 O224 2.441 . S
U206 O225 2.420 . S
U206 O226 2.455 1_655 S
U206 O227 2.449 . S
O207 U206 2.454 1_455 S
O207 C209 1.353 . S
O208 U206 2.458 1_455 S
O208 C209 1.286 . S
C209 U206 2.984 1_455 S
C209 O207 1.353 . S
C209 O208 1.286 . S
C209 C211 1.363 . S
C210 C200 1.465 . S
C210 U206 2.847 . S
C210 O224 1.249 . S
C210 O225 1.202 . S
C211 C209 1.363 . S
C211 C213 1.408 . S
C211 C216 1.342 . S
C212 C213 1.310 . S
C212 C215 1.461 . S
C212 H232 0.932 . S
C213 C211 1.408 . S
C213 C212 1.310 . S
C213 H233 0.930 . S
C214 C215 1.474 . S
C214 C216 1.285 . S
C214 H234 0.929 . S
C215 C212 1.461 . S
C215 C214 1.474 . S
C216 C211 1.342 . S
C216 C214 1.285 . S
C216 H235 0.930 . S
C217 C220 1.424 . S
C217 C222 1.257 1_655 S
C217 C223 1.428 . S
C218 C221 1.260 . S
C218 C222 1.456 1_554 S
C218 H236 0.932 . S
C219 C220 1.384 1_554 S
C219 C221 1.479 1_655 S
C219 H237 0.929 . S
C220 C217 1.424 . S
C220 C219 1.384 1_556 S
C220 H238 0.928 . S
C221 C218 1.260 . S
C221 C219 1.479 1_455 S
C222 C217 1.257 1_455 S
C222 C218 1.456 1_556 S
C222 H239 0.941 . S
C223 U206 2.882 . S
C223 C217 1.428 . S
C223 O226 1.301 1_655 S
C223 O227 1.282 . S
O224 U206 2.441 . S
O224 C210 1.249 . S
O225 U206 2.420 . S
O225 C210 1.202 . S
O226 U206 2.455 1_455 S
O226 C223 1.301 1_455 S
O227 U206 2.449 . S
O227 C223 1.282 . S
H228 C201 0.931 . S
H229 C203 0.929 . S
H230 C204 0.930 . S
H231 C205 0.931 . S
H232 C212 0.932 . S
H233 C213 0.930 . S
H234 C214 0.929 . S
H235 C216 0.930 . S
H236 C218 0.932 . S
H237 C219 0.929 . S
H238 C220 0.928 . S
H239 C222 0.941 . S
C240 C241 1.264 . S
C240 C245 1.479 . S
C240 C250 1.465 . S
C241 C240 1.264 . S
C241 C243 1.339 . S
C241 H268 0.931 . S
C242 C243 1.395 . S
C242 C244 1.320 . S
C243 C241 1.339 . S
C243 C242 1.395 . S
C243 H269 0.929 . S
C244 C242 1.320 . S
C244 C245 1.405 . S
C244 H270 0.930 . S
C245 C240 1.479 . S
C245 C244 1.405 . S
C245 H271 0.931 . S
U246 O247 2.454 . S
U246 O248 2.458 . S
U246 C249 2.984 . S
U246 C250 2.847 1_455 S
U246 C263 2.882 . S
U246 O264 2.445 . S
U246 O265 2.420 1_455 S
U246 O266 2.455 . S
U246 O267 2.449 1_455 S
O247 U246 2.454 . S
O247 C249 1.353 . S
O248 U246 2.458 . S
O248 C249 1.286 . S
C249 U246 2.984 . S
C249 O247 1.353 . S
C249 O248 1.286 . S
C249 C251 1.363 . S
C250 C240 1.465 . S
C250 U246 2.847 1_655 S
C250 O264 1.239 1_655 S
C250 O265 1.202 . S
C251 C249 1.363 . S
C251 C253 1.408 . S
C251 C256 1.342 . S
C252 C253 1.310 . S
C252 C255 1.461 . S
C252 H272 0.932 . S
C253 C251 1.408 . S
C253 C252 1.310 . S
C253 H273 0.930 . S
C254 C255 1.474 . S
C254 C256 1.285 . S
C254 H274 0.929 . S
C255 C252 1.461 . S
C255 C254 1.474 . S
C256 C251 1.342 . S
C256 C254 1.285 . S
C256 H275 0.930 . S
C257 C260 1.421 1_455 S
C257 C262 1.245 . S
C257 C263 1.428 . S
C258 C261 1.260 . S
C258 C262 1.477 . S
C258 H276 0.932 . S
C259 C260 1.384 . S
C259 C261 1.479 1_655 S
C259 H277 0.929 . S
C260 C257 1.421 1_655 S
C260 C259 1.384 . S
C260 H278 0.931 . S
C261 C258 1.260 . S
C261 C259 1.479 1_455 S
C262 C257 1.245 . S
C262 C258 1.477 . S
C262 H279 0.932 . S
C263 U246 2.882 . S
C263 C257 1.428 . S
C263 O266 1.301 . S
C263 O267 1.282 1_455 S
O264 U246 2.445 . S
O264 C250 1.239 1_455 S
O265 U246 2.420 1_655 S
O265 C250 1.202 . S
O266 U246 2.455 . S
O266 C263 1.301 . S
O267 U246 2.449 1_655 S
O267 C263 1.282 1_655 S
H268 C241 0.931 . S
H269 C243 0.929 . S
H270 C244 0.930 . S
H271 C245 0.931 . S
H272 C252 0.932 . S
H273 C253 0.930 . S
H274 C254 0.929 . S
H275 C256 0.930 . S
H276 C258 0.932 . S
H277 C259 0.929 . S
H278 C260 0.931 . S
H279 C262 0.932 . S
C280 C281 1.264 . S
C280 C285 1.479 . S
C280 C290 1.465 . S
C281 C280 1.264 . S
C281 C283 1.339 . S
C281 H308 0.931 . S
C282 C283 1.395 . S
C282 C284 1.320 . S
C283 C281 1.339 . S
C283 C282 1.395 . S
C283 H309 0.929 . S
C284 C282 1.320 . S
C284 C285 1.405 . S
C284 H310 0.930 . S
C285 C280 1.479 . S
C285 C284 1.405 . S
C285 H311 0.931 . S
U286 O287 2.454 1_565 S
U286 O288 2.458 1_565 S
U286 C289 2.984 1_565 S
U286 C290 2.847 . S
U286 C303 2.882 . S
U286 O304 2.441 . S
U286 O305 2.420 . S
U286 O306 2.455 1_565 S
U286 O307 2.449 . S
O287 U286 2.454 1_545 S
O287 C289 1.353 . S
O288 U286 2.458 1_545 S
O288 C289 1.286 . S
C289 U286 2.984 1_545 S
C289 O287 1.353 . S
C289 O288 1.286 . S
C289 C291 1.363 . S
C290 C280 1.465 . S
C290 U286 2.847 . S
C290 O304 1.249 . S
C290 O305 1.202 . S
C291 C289 1.363 . S
C291 C293 1.408 . S
C291 C296 1.342 . S
C292 C293 1.310 . S
C292 C295 1.461 . S
C292 H312 0.932 . S
C293 C291 1.408 . S
C293 C292 1.310 . S
C293 H313 0.930 . S
C294 C295 1.474 . S
C294 C296 1.285 . S
C294 H314 0.929 . S
C295 C292 1.461 . S
C295 C294 1.474 . S
C296 C291 1.342 . S
C296 C294 1.285 . S
C296 H315 0.930 . S
C297 C300 1.424 . S
C297 C302 1.245 1_565 S
C297 C303 1.428 . S
C298 C301 1.260 . S
C298 C302 1.477 . S
C298 H316 0.932 . S
C299 C300 1.384 . S
C299 C301 1.479 1_565 S
C299 H317 0.929 . S
C300 C297 1.424 . S
C300 C299 1.384 . S
C300 H318 0.928 . S
C301 C298 1.260 . S
C301 C299 1.479 1_545 S
C302 C297 1.245 1_545 S
C302 C298 1.477 . S
C302 H319 0.932 . S
C303 U286 2.882 . S
C303 C297 1.428 . S
C303 O306 1.301 1_565 S
C303 O307 1.282 . S
O304 U286 2.441 . S
O304 C290 1.249 . S
O305 U286 2.420 . S
O305 C290 1.202 . S
O306 U286 2.455 1_545 S
O306 C303 1.301 1_545 S
O307 U286 2.449 . S
O307 C303 1.282 . S
H308 C281 0.931 . S
H309 C283 0.929 . S
H310 C284 0.930 . S
H311 C285 0.931 . S
H312 C292 0.932 . S
H313 C293 0.930 . S
H314 C294 0.929 . S
H315 C296 0.930 . S
H316 C298 0.932 . S
H317 C299 0.929 . S
H318 C300 0.928 . S
H319 C302 0.932 . S
C320 C321 1.264 . S
C320 C325 1.479 . S
C320 C330 1.465 . S
C321 C320 1.264 . S
C321 C323 1.339 . S
C321 H348 0.931 . S
C322 C323 1.395 . S
C322 C324 1.320 . S
C323 C321 1.339 . S
C323 C322 1.395 . S
C323 H349 0.929 . S
C324 C322 1.320 . S
C324 C325 1.405 . S
C324 H350 0.930 . S
C325 C320 1.479 . S
C325 C324 1.405 . S
C325 H351 0.931 . S
U326 O327 2.454 . S
U326 O328 2.458 . S
U326 C329 2.984 . S
U326 C330 2.847 . S
U326 C343 2.882 . S
U326 O344 2.441 . S
U326 O345 2.420 . S
U326 O346 2.455 . S
U326 O347 2.449 . S
O327 U326 2.454 . S
O327 C329 1.353 . S
O328 U326 2.458 . S
O328 C329 1.286 . S
C329 U326 2.984 . S
C329 O327 1.353 . S
C329 O328 1.286 . S
C329 C331 1.363 . S
C330 C320 1.465 . S
C330 U326 2.847 . S
C330 O344 1.249 . S
C330 O345 1.202 . S
C331 C329 1.363 . S
C331 C333 1.408 . S
C331 C336 1.342 . S
C332 C333 1.310 . S
C332 C335 1.461 . S
C332 H352 0.932 . S
C333 C331 1.408 . S
C333 C332 1.310 . S
C333 H353 0.930 . S
C334 C335 1.474 . S
C334 C336 1.285 . S
C334 H354 0.929 . S
C335 C332 1.461 . S
C335 C334 1.474 . S
C336 C331 1.342 . S
C336 C334 1.285 . S
C336 H355 0.930 . S
C337 C340 1.424 . S
C337 C342 1.245 . S
C337 C343 1.428 . S
C338 C341 1.256 1_554 S
C338 C342 1.485 . S
C338 H356 0.928 1_554 S
C339 C340 1.384 . S
C339 C341 1.479 1_554 S
C339 H357 0.929 1_554 S
C340 C337 1.424 . S
C340 C339 1.384 . S
C340 H358 0.928 . S
C341 C338 1.256 1_556 S
C341 C339 1.479 1_556 S
C342 C337 1.245 . S
C342 C338 1.485 . S
C342 H359 0.932 . S
C343 U326 2.882 . S
C343 C337 1.428 . S
C343 O346 1.301 . S
C343 O347 1.282 . S
O344 U326 2.441 . S
O344 C330 1.249 . S
O345 U326 2.420 . S
O345 C330 1.202 . S
O346 U326 2.455 . S
O346 C343 1.301 . S
O347 U326 2.449 . S
O347 C343 1.282 . S
H348 C321 0.931 . S
H349 C323 0.929 . S
H350 C324 0.930 . S
H351 C325 0.931 . S
H352 C332 0.932 . S
H353 C333 0.930 . S
H354 C334 0.929 . S
H355 C336 0.930 . S
H356 C338 0.928 1_556 S
H357 C339 0.929 1_556 S
H358 C340 0.928 . S
H359 C342 0.932 . S
C360 C361 1.363 . S
C360 C366 1.379 . S
C360 N368 1.356 . S
C361 C360 1.363 . S
C361 C367 1.363 . S
C362 C363 1.363 . S
C362 C367 1.379 . S
C362 N369 1.356 . S
C363 C362 1.363 . S
C363 C366 1.363 . S
N364 C366 1.356 . S
N364 H376 0.984 . S
N364 H377 0.985 . S
N365 C367 1.356 . S
N365 H370 0.984 . S
N365 H371 0.985 . S
C366 C360 1.379 . S
C366 C363 1.363 . S
C366 N364 1.356 . S
C367 C361 1.363 . S
C367 C362 1.379 . S
C367 N365 1.356 . S
N368 C360 1.356 . S
N368 H374 0.984 . S
N368 H375 0.984 . S
N369 C362 1.356 . S
N369 H372 0.984 . S
N369 H373 0.985 . S
H370 N365 0.984 . S
H371 N365 0.985 . S
H372 N369 0.984 . S
H373 N369 0.985 . S
H374 N368 0.984 . S
H375 N368 0.984 . S
H376 N364 0.984 . S
H377 N364 0.985 . S
C378 C379 1.363 . S
C378 C384 1.379 . S
C378 N386 1.356 . S
C379 C378 1.363 . S
C379 C385 1.363 . S
C380 C381 1.363 . S
C380 C385 1.379 . S
C380 N387 1.356 . S
C381 C380 1.363 . S
C381 C384 1.363 . S
N382 C384 1.356 . S
N382 H394 0.984 . S
N382 H395 0.985 . S
N383 C385 1.356 . S
N383 H388 0.984 . S
N383 H389 0.985 . S
C384 C378 1.379 . S
C384 C381 1.363 . S
C384 N382 1.356 . S
C385 C379 1.363 . S
C385 C380 1.379 . S
C385 N383 1.356 . S
N386 C378 1.356 . S
N386 H392 0.984 . S
N386 H393 0.984 . S
N387 C380 1.356 . S
N387 H390 0.984 . S
N387 H391 0.985 . S
H388 N383 0.984 . S
H389 N383 0.985 . S
H390 N387 0.984 . S
H391 N387 0.985 . S
H392 N386 0.984 . S
H393 N386 0.984 . S
H394 N382 0.984 . S
H395 N382 0.985 . S
C396 C397 1.363 . S
C396 C402 1.379 . S
C396 N404 1.356 . S
C397 C396 1.363 . S
C397 C403 1.363 . S
C398 C399 1.363 . S
C398 C403 1.379 . S
C398 N405 1.356 . S
C399 C398 1.363 . S
C399 C402 1.363 . S
N400 C402 1.356 . S
N400 H412 0.984 . S
N400 H413 0.985 . S
N401 C403 1.356 . S
N401 H406 0.984 . S
N401 H407 0.985 . S
C402 C396 1.379 . S
C402 C399 1.363 . S
C402 N400 1.356 . S
C403 C397 1.363 . S
C403 C398 1.379 . S
C403 N401 1.356 . S
N404 C396 1.356 . S
N404 H410 0.984 . S
N404 H411 0.984 . S
N405 C398 1.356 . S
N405 H408 0.984 . S
N405 H409 0.985 . S
H406 N401 0.984 . S
H407 N401 0.985 . S
H408 N405 0.984 . S
H409 N405 0.985 . S
H410 N404 0.984 . S
H411 N404 0.984 . S
H412 N400 0.984 . S
H413 N400 0.985 . S
C414 C415 1.363 . S
C414 C420 1.379 . S
C414 N422 1.356 . S
C415 C414 1.363 . S
C415 C421 1.363 . S
C416 C417 1.363 . S
C416 C421 1.379 . S
C416 N423 1.356 . S
C417 C416 1.363 . S
C417 C420 1.363 . S
N418 C420 1.356 . S
N418 H430 0.984 . S
N418 H431 0.985 . S
N419 C421 1.356 . S
N419 H424 0.984 . S
N419 H425 0.985 . S
C420 C414 1.379 . S
C420 C417 1.363 . S
C420 N418 1.356 . S
C421 C415 1.363 . S
C421 C416 1.379 . S
C421 N419 1.356 . S
N422 C414 1.356 . S
N422 H428 0.984 . S
N422 H429 0.984 . S
N423 C416 1.356 . S
N423 H426 0.984 . S
N423 H427 0.985 . S
H424 N419 0.984 . S
H425 N419 0.985 . S
H426 N423 0.984 . S
H427 N423 0.985 . S
H428 N422 0.984 . S
H429 N422 0.984 . S
H430 N418 0.984 . S
H431 N418 0.985 . S
C432 C433 1.363 . S
C432 C438 1.379 . S
C432 N440 1.356 . S
C433 C432 1.363 . S
C433 C439 1.363 . S
C434 C435 1.363 . S
C434 C439 1.379 . S
C434 N441 1.356 . S
C435 C434 1.363 . S
C435 C438 1.363 . S
N436 C438 1.356 . S
N436 H448 0.984 . S
N436 H449 0.985 . S
N437 C439 1.356 . S
N437 H442 0.984 . S
N437 H443 0.985 . S
C438 C432 1.379 . S
C438 C435 1.363 . S
C438 N436 1.356 . S
C439 C433 1.363 . S
C439 C434 1.379 . S
C439 N437 1.356 . S
N440 C432 1.356 . S
N440 H446 0.984 . S
N440 H447 0.984 . S
N441 C434 1.356 . S
N441 H444 0.984 . S
N441 H445 0.985 . S
H442 N437 0.984 . S
H443 N437 0.985 . S
H444 N441 0.984 . S
H445 N441 0.985 . S
H446 N440 0.984 . S
H447 N440 0.984 . S
H448 N436 0.984 . S
H449 N436 0.985 . S
C450 C451 1.363 . S
C450 C456 1.379 . S
C450 N458 1.356 . S
C451 C450 1.363 . S
C451 C457 1.363 . S
C452 C453 1.363 . S
C452 C457 1.379 . S
C452 N459 1.356 . S
C453 C452 1.363 . S
C453 C456 1.363 . S
N454 C456 1.356 . S
N454 H466 0.984 . S
N454 H467 0.985 . S
N455 C457 1.356 . S
N455 H460 0.984 . S
N455 H461 0.985 . S
C456 C450 1.379 . S
C456 C453 1.363 . S
C456 N454 1.356 . S
C457 C451 1.363 . S
C457 C452 1.379 . S
C457 N455 1.356 . S
N458 C450 1.356 . S
N458 H464 0.984 . S
N458 H465 0.984 . S
N459 C452 1.356 . S
N459 H462 0.984 . S
N459 H463 0.985 . S
H460 N455 0.984 . S
H461 N455 0.985 . S
H462 N459 0.984 . S
H463 N459 0.985 . S
H464 N458 0.984 . S
H465 N458 0.984 . S
H466 N454 0.984 . S
H467 N454 0.985 . S
C468 C469 1.363 . S
C468 C474 1.379 . S
C468 N476 1.356 . S
C469 C468 1.363 . S
C469 C475 1.363 . S
C470 C471 1.363 . S
C470 C475 1.379 . S
C470 N477 1.356 . S
C471 C470 1.363 . S
C471 C474 1.363 . S
N472 C474 1.356 . S
N472 H484 0.984 . S
N472 H485 0.985 . S
N473 C475 1.356 . S
N473 H478 0.984 . S
N473 H479 0.985 . S
C474 C468 1.379 . S
C474 C471 1.363 . S
C474 N472 1.356 . S
C475 C469 1.363 . S
C475 C470 1.379 . S
C475 N473 1.356 . S
N476 C468 1.356 . S
N476 H482 0.984 . S
N476 H483 0.984 . S
N477 C470 1.356 . S
N477 H480 0.984 . S
N477 H481 0.985 . S
H478 N473 0.984 . S
H479 N473 0.985 . S
H480 N477 0.984 . S
H481 N477 0.985 . S
H482 N476 0.984 . S
H483 N476 0.984 . S
H484 N472 0.984 . S
H485 N472 0.985 . S
C486 C487 1.363 . S
C486 C492 1.379 . S
C486 N494 1.356 . S
C487 C486 1.363 . S
C487 C493 1.363 . S
C488 C489 1.363 . S
C488 C493 1.379 . S
C488 N495 1.356 . S
C489 C488 1.363 . S
C489 C492 1.363 . S
N490 C492 1.356 . S
N490 H502 0.984 . S
N490 H503 0.985 . S
N491 C493 1.356 . S
N491 H496 0.984 . S
N491 H497 0.985 . S
C492 C486 1.379 . S
C492 C489 1.363 . S
C492 N490 1.356 . S
C493 C487 1.363 . S
C493 C488 1.379 . S
C493 N491 1.356 . S
N494 C486 1.356 . S
N494 H500 0.984 . S
N494 H501 0.984 . S
N495 C488 1.356 . S
N495 H498 0.984 . S
N495 H499 0.985 . S
H496 N491 0.984 . S
H497 N491 0.985 . S
H498 N495 0.984 . S
H499 N495 0.985 . S
H500 N494 0.984 . S
H501 N494 0.984 . S
H502 N490 0.984 . S
H503 N490 0.985 . S
C504 C505 1.363 . S
C504 C510 1.379 . S
C504 N512 1.356 . S
C505 C504 1.363 . S
C505 C511 1.363 . S
C506 C507 1.363 . S
C506 C511 1.379 . S
C506 N513 1.356 . S
C507 C506 1.363 . S
C507 C510 1.363 . S
N508 C510 1.356 . S
N508 H520 0.984 . S
N508 H521 0.985 . S
N509 C511 1.356 . S
N509 H514 0.984 . S
N509 H515 0.985 . S
C510 C504 1.379 . S
C510 C507 1.363 . S
C510 N508 1.356 . S
C511 C505 1.363 . S
C511 C506 1.379 . S
C511 N509 1.356 . S
N512 C504 1.356 . S
N512 H518 0.984 . S
N512 H519 0.984 . S
N513 C506 1.356 . S
N513 H516 0.984 . S
N513 H517 0.985 . S
H514 N509 0.984 . S
H515 N509 0.985 . S
H516 N513 0.984 . S
H517 N513 0.985 . S
H518 N512 0.984 . S
H519 N512 0.984 . S
H520 N508 0.984 . S
H521 N508 0.985 . S
C522 C523 1.363 . S
C522 C528 1.379 . S
C522 N530 1.356 . S
C523 C522 1.363 . S
C523 C529 1.363 . S
C524 C525 1.363 . S
C524 C529 1.379 . S
C524 N531 1.356 . S
C525 C524 1.363 . S
C525 C528 1.363 . S
N526 C528 1.356 . S
N526 H538 0.984 . S
N526 H539 0.985 . S
N527 C529 1.356 . S
N527 H532 0.984 . S
N527 H533 0.985 . S
C528 C522 1.379 . S
C528 C525 1.363 . S
C528 N526 1.356 . S
C529 C523 1.363 . S
C529 C524 1.379 . S
C529 N527 1.356 . S
N530 C522 1.356 . S
N530 H536 0.984 . S
N530 H537 0.984 . S
N531 C524 1.356 . S
N531 H534 0.984 . S
N531 H535 0.985 . S
H532 N527 0.984 . S
H533 N527 0.985 . S
H534 N531 0.984 . S
H535 N531 0.985 . S
H536 N530 0.984 . S
H537 N530 0.984 . S
H538 N526 0.984 . S
H539 N526 0.985 . S
C540 C541 1.363 . S
C540 C546 1.379 . S
C540 N548 1.356 . S
C541 C540 1.363 . S
C541 C547 1.363 . S
C542 C543 1.363 . S
C542 C547 1.379 . S
C542 N549 1.356 . S
C543 C542 1.363 . S
C543 C546 1.363 . S
N544 C546 1.356 . S
N544 H556 0.984 . S
N544 H557 0.985 . S
N545 C547 1.356 . S
N545 H550 0.984 . S
N545 H551 0.985 . S
C546 C540 1.379 . S
C546 C543 1.363 . S
C546 N544 1.356 . S
C547 C541 1.363 . S
C547 C542 1.379 . S
C547 N545 1.356 . S
N548 C540 1.356 . S
N548 H554 0.984 . S
N548 H555 0.984 . S
N549 C542 1.356 . S
N549 H552 0.984 . S
N549 H553 0.985 . S
H550 N545 0.984 . S
H551 N545 0.985 . S
H552 N549 0.984 . S
H553 N549 0.985 . S
H554 N548 0.984 . S
H555 N548 0.984 . S
H556 N544 0.984 . S
H557 N544 0.985 . S
C558 C559 1.363 . S
C558 C564 1.379 . S
C558 N566 1.356 . S
C559 C558 1.363 . S
C559 C565 1.363 . S
C560 C561 1.363 . S
C560 C565 1.379 . S
C560 N567 1.356 . S
C561 C560 1.363 . S
C561 C564 1.363 . S
N562 C564 1.356 . S
N562 H574 0.984 . S
N562 H575 0.985 . S
N563 C565 1.356 . S
N563 H568 0.984 . S
N563 H569 0.985 . S
C564 C558 1.379 . S
C564 C561 1.363 . S
C564 N562 1.356 . S
C565 C559 1.363 . S
C565 C560 1.379 . S
C565 N563 1.356 . S
N566 C558 1.356 . S
N566 H572 0.984 . S
N566 H573 0.984 . S
N567 C560 1.356 . S
N567 H570 0.984 . S
N567 H571 0.985 . S
H568 N563 0.984 . S
H569 N563 0.985 . S
H570 N567 0.984 . S
H571 N567 0.985 . S
H572 N566 0.984 . S
H573 N566 0.984 . S
H574 N562 0.984 . S
H575 N562 0.985 . S
C576 C577 1.363 . S
C576 C582 1.378 . S
C576 N584 1.352 . S
C577 C576 1.363 . S
C577 C583 1.363 . S
C578 C579 1.363 . S
C578 C583 1.379 . S
C578 N585 1.356 . S
C579 C578 1.363 . S
C579 C582 1.361 . S
N580 C582 1.359 1_655 S
N580 H592 0.984 . S
N580 H593 0.985 . S
N581 C583 1.356 . S
N581 H586 0.984 . S
N581 H587 0.985 . S
C582 C576 1.378 . S
C582 C579 1.361 . S
C582 N580 1.359 1_455 S
C583 C577 1.363 . S
C583 C578 1.379 . S
C583 N581 1.356 . S
N584 C576 1.352 . S
N584 H590 0.993 1_455 S
N584 H591 0.981 . S
N585 C578 1.356 . S
N585 H588 0.984 . S
N585 H589 0.985 . S
H586 N581 0.984 . S
H587 N581 0.985 . S
H588 N585 0.984 . S
H589 N585 0.985 . S
H590 N584 0.993 1_655 S
H591 N584 0.981 . S
H592 N580 0.984 . S
H593 N580 0.985 . S
C594 C595 1.363 . S
C594 C600 1.379 . S
C594 N602 1.356 . S
C595 C594 1.363 . S
C595 C601 1.366 . S
C596 C597 1.363 . S
C596 C601 1.381 . S
C596 N603 1.356 1_545 S
C597 C596 1.363 . S
C597 C600 1.363 . S
N598 C600 1.356 . S
N598 H610 0.984 . S
N598 H611 0.985 . S
N599 C601 1.351 1_565 S
N599 H604 0.984 . S
N599 H605 0.985 . S
C600 C594 1.379 . S
C600 C597 1.363 . S
C600 N598 1.356 . S
C601 C595 1.366 . S
C601 C596 1.381 . S
C601 N599 1.351 1_545 S
N602 C594 1.356 . S
N602 H608 0.984 . S
N602 H609 0.984 . S
N603 C596 1.356 1_565 S
N603 H606 0.984 . S
N603 H607 0.985 . S
H604 N599 0.984 . S
H605 N599 0.985 . S
H606 N603 0.984 . S
H607 N603 0.985 . S
H608 N602 0.984 . S
H609 N602 0.984 . S
H610 N598 0.984 . S
H611 N598 0.985 . S
C612 C613 1.363 . S
C612 C618 1.379 . S
C612 N620 1.356 . S
C613 C612 1.363 . S
C613 C619 1.363 . S
C614 C615 1.363 . S
C614 C619 1.379 . S
C614 N621 1.356 . S
C615 C614 1.363 . S
C615 C618 1.363 . S
N616 C618 1.356 . S
N616 H628 0.984 . S
N616 H629 0.985 . S
N617 C619 1.356 . S
N617 H622 0.984 . S
N617 H623 0.985 . S
C618 C612 1.379 . S
C618 C615 1.363 . S
C618 N616 1.356 . S
C619 C613 1.363 . S
C619 C614 1.379 . S
C619 N617 1.356 . S
N620 C612 1.356 . S
N620 H626 0.984 . S
N620 H627 0.984 . S
N621 C614 1.356 . S
N621 H624 0.984 . S
N621 H625 0.985 . S
H622 N617 0.984 . S
H623 N617 0.985 . S
H624 N621 0.984 . S
H625 N621 0.985 . S
H626 N620 0.984 . S
H627 N620 0.984 . S
H628 N616 0.984 . S
H629 N616 0.985 . S
C630 C631 1.363 . S
C630 C636 1.379 . S
C630 N638 1.356 . S
C631 C630 1.363 . S
C631 C637 1.363 1_545 S
C632 C633 1.363 1_565 S
C632 C637 1.379 . S
C632 N639 1.356 . S
C633 C632 1.363 1_545 S
C633 C636 1.363 . S
N634 C636 1.356 . S
N634 H646 0.984 . S
N634 H647 0.985 . S
N635 C637 1.356 . S
N635 H640 0.984 . S
N635 H641 0.985 . S
C636 C630 1.379 . S
C636 C633 1.363 . S
C636 N634 1.356 . S
C637 C631 1.363 1_565 S
C637 C632 1.379 . S
C637 N635 1.356 . S
N638 C630 1.356 . S
N638 H644 0.984 . S
N638 H645 0.984 . S
N639 C632 1.356 . S
N639 H642 0.984 . S
N639 H643 0.985 . S
H640 N635 0.984 . S
H641 N635 0.985 . S
H642 N639 0.984 . S
H643 N639 0.985 . S
H644 N638 0.984 . S
H645 N638 0.984 . S
H646 N634 0.984 . S
H647 N634 0.985 . S
C648 C649 1.363 . S
C648 C654 1.379 . S
C648 N656 1.356 . S
C649 C648 1.363 . S
C649 C655 1.363 . S
C650 C651 1.363 . S
C650 C655 1.379 . S
C650 N657 1.356 . S
C651 C650 1.363 . S
C651 C654 1.363 . S
N652 C654 1.356 . S
N652 H664 0.984 . S
N652 H665 0.985 . S
N653 C655 1.356 . S
N653 H658 0.984 . S
N653 H659 0.985 . S
C654 C648 1.379 . S
C654 C651 1.363 . S
C654 N652 1.356 . S
C655 C649 1.363 . S
C655 C650 1.379 . S
C655 N653 1.356 . S
N656 C648 1.356 . S
N656 H662 0.984 . S
N656 H663 0.984 . S
N657 C650 1.356 . S
N657 H660 0.984 . S
N657 H661 0.985 . S
H658 N653 0.984 . S
H659 N653 0.985 . S
H660 N657 0.984 . S
H661 N657 0.985 . S
H662 N656 0.984 . S
H663 N656 0.984 . S
H664 N652 0.984 . S
H665 N652 0.985 . S
C666 C667 1.363 . S
C666 C672 1.379 . S
C666 N674 1.356 . S
C667 C666 1.363 . S
C667 C673 1.363 1_455 S
C668 C669 1.363 1_655 S
C668 C673 1.379 . S
C668 N675 1.356 . S
C669 C668 1.363 1_455 S
C669 C672 1.363 . S
N670 C672 1.356 . S
N670 H682 0.984 . S
N670 H683 0.985 . S
N671 C673 1.356 . S
N671 H676 0.984 . S
N671 H677 0.985 . S
C672 C666 1.379 . S
C672 C669 1.363 . S
C672 N670 1.356 . S
C673 C667 1.363 1_655 S
C673 C668 1.379 . S
C673 N671 1.356 . S
N674 C666 1.356 . S
N674 H680 0.984 . S
N674 H681 0.984 . S
N675 C668 1.356 . S
N675 H678 0.984 . S
N675 H679 0.985 . S
H676 N671 0.984 . S
H677 N671 0.985 . S
H678 N675 0.984 . S
H679 N675 0.985 . S
H680 N674 0.984 . S
H681 N674 0.984 . S
H682 N670 0.984 . S
H683 N670 0.985 . S
C361 C10 3.202 . S
C363 C335 3.111 . S
C379 C59 3.233 . S
C381 C242 3.186 . S
C397 C90 3.187 . S
C399 C282 3.120 . S
C415 C19 3.235 . S
C417 C322 3.187 . S
C435 C255 3.114 . S
C433 C50 3.204 . S
C453 C295 3.176 . S
C451 C99 3.250 . S
C469 C46 0.603 . S
C471 C162 0.618 . S
C487 C95 0.501 . S
C489 C202 0.405 . S
C505 C6 0.635 . S
C507 C135 0.620 . S
C525 C175 0.408 . S
C523 C55 0.500 . S
C543 C215 0.631 . S
C541 C86 0.645 . S
C559 C15 0.502 . S
C561 C122 0.407 . S
C579 C221 1.071 . S
C577 C9 1.061 . S
C595 C49 1.062 . S
C597 C141 1.072 . S
C613 C89 1.050 . S
C615 C181 1.042 . S
C633 C301 1.798 . S
C631 C58 1.721 . S
C651 C341 1.786 . S
C649 C98 1.718 . S
C667 C18 1.718 . S
C669 C261 1.788 . S
