# Generated by pormake.
# Topology gar, (4,6)-cn, num edge types: 1
# Building blocks:
#     Node 0, Type 0, BuildingBlock: UXUYUI_clean_sbu_0, # of connection points: 4
#     Node 1, Type 0, BuildingBlock: UXUYUI_clean_sbu_0, # of connection points: 4
#     Node 2, Type 0, BuildingBlock: UXUYUI_clean_sbu_0, # of connection points: 4
#     Node 3, Type 0, BuildingBlock: UXUYUI_clean_sbu_0, # of connection points: 4
#     Node 4, Type 0, BuildingBlock: UXUYUI_clean_sbu_0, # of connection points: 4
#     Node 5, Type 0, BuildingBlock: UXUYUI_clean_sbu_0, # of connection points: 4
#     Node 6, Type 0, BuildingBlock: UXUYUI_clean_sbu_0, # of connection points: 4
#     Node 7, Type 0, BuildingBlock: UXUYUI_clean_sbu_0, # of connection points: 4
#     Node 8, Type 0, BuildingBlock: UXUYUI_clean_sbu_0, # of connection points: 4
#     Node 9, Type 0, BuildingBlock: UXUYUI_clean_sbu_0, # of connection points: 4
#     Node 10, Type 0, BuildingBlock: UXUYUI_clean_sbu_0, # of connection points: 4
#     Node 11, Type 0, BuildingBlock: UXUYUI_clean_sbu_0, # of connection points: 4
#     Node 12, Type 0, BuildingBlock: UXUYUI_clean_sbu_0, # of connection points: 4
#     Node 13, Type 0, BuildingBlock: UXUYUI_clean_sbu_0, # of connection points: 4
#     Node 14, Type 0, BuildingBlock: UXUYUI_clean_sbu_0, # of connection points: 4
#     Node 15, Type 0, BuildingBlock: UXUYUI_clean_sbu_0, # of connection points: 4
#     Node 16, Type 0, BuildingBlock: UXUYUI_clean_sbu_0, # of connection points: 4
#     Node 17, Type 0, BuildingBlock: UXUYUI_clean_sbu_0, # of connection points: 4
#     Node 18, Type 0, BuildingBlock: UXUYUI_clean_sbu_0, # of connection points: 4
#     Node 19, Type 0, BuildingBlock: UXUYUI_clean_sbu_0, # of connection points: 4
#     Node 20, Type 0, BuildingBlock: UXUYUI_clean_sbu_0, # of connection points: 4
#     Node 21, Type 0, BuildingBlock: UXUYUI_clean_sbu_0, # of connection points: 4
#     Node 22, Type 0, BuildingBlock: UXUYUI_clean_sbu_0, # of connection points: 4
#     Node 23, Type 0, BuildingBlock: UXUYUI_clean_sbu_0, # of connection points: 4
#     Node 24, Type 1, BuildingBlock: KUMBUR_clean_sbu_1, # of connection points: 6
#     Node 25, Type 1, BuildingBlock: KUMBUR_clean_sbu_1, # of connection points: 6
#     Node 26, Type 1, BuildingBlock: KUMBUR_clean_sbu_1, # of connection points: 6
#     Node 27, Type 1, BuildingBlock: KUMBUR_clean_sbu_1, # of connection points: 6
#     Node 28, Type 1, BuildingBlock: KUMBUR_clean_sbu_1, # of connection points: 6
#     Node 29, Type 1, BuildingBlock: KUMBUR_clean_sbu_1, # of connection points: 6
#     Node 30, Type 1, BuildingBlock: KUMBUR_clean_sbu_1, # of connection points: 6
#     Node 31, Type 1, BuildingBlock: KUMBUR_clean_sbu_1, # of connection points: 6
#     Node 32, Type 1, BuildingBlock: KUMBUR_clean_sbu_1, # of connection points: 6
#     Node 33, Type 1, BuildingBlock: KUMBUR_clean_sbu_1, # of connection points: 6
#     Node 34, Type 1, BuildingBlock: KUMBUR_clean_sbu_1, # of connection points: 6
#     Node 35, Type 1, BuildingBlock: KUMBUR_clean_sbu_1, # of connection points: 6
#     Node 36, Type 1, BuildingBlock: KUMBUR_clean_sbu_1, # of connection points: 6
#     Node 37, Type 1, BuildingBlock: KUMBUR_clean_sbu_1, # of connection points: 6
#     Node 38, Type 1, BuildingBlock: KUMBUR_clean_sbu_1, # of connection points: 6
#     Node 39, Type 1, BuildingBlock: KUMBUR_clean_sbu_1, # of connection points: 6
#     Edge 40, Type (0, 1), None
#     Edge 41, Type (0, 1), None
#     Edge 42, Type (0, 1), None
#     Edge 43, Type (0, 1), None
#     Edge 44, Type (0, 1), None
#     Edge 45, Type (0, 1), None
#     Edge 46, Type (0, 1), None
#     Edge 47, Type (0, 1), None
#     Edge 48, Type (0, 1), None
#     Edge 49, Type (0, 1), None
#     Edge 50, Type (0, 1), None
#     Edge 51, Type (0, 1), None
#     Edge 52, Type (0, 1), None
#     Edge 53, Type (0, 1), None
#     Edge 54, Type (0, 1), None
#     Edge 55, Type (0, 1), None
#     Edge 56, Type (0, 1), None
#     Edge 57, Type (0, 1), None
#     Edge 58, Type (0, 1), None
#     Edge 59, Type (0, 1), None
#     Edge 60, Type (0, 1), None
#     Edge 61, Type (0, 1), None
#     Edge 62, Type (0, 1), None
#     Edge 63, Type (0, 1), None
#     Edge 64, Type (0, 1), None
#     Edge 65, Type (0, 1), None
#     Edge 66, Type (0, 1), None
#     Edge 67, Type (0, 1), None
#     Edge 68, Type (0, 1), None
#     Edge 69, Type (0, 1), None
#     Edge 70, Type (0, 1), None
#     Edge 71, Type (0, 1), None
#     Edge 72, Type (0, 1), None
#     Edge 73, Type (0, 1), None
#     Edge 74, Type (0, 1), None
#     Edge 75, Type (0, 1), None
#     Edge 76, Type (0, 1), None
#     Edge 77, Type (0, 1), None
#     Edge 78, Type (0, 1), None
#     Edge 79, Type (0, 1), None
#     Edge 80, Type (0, 1), None
#     Edge 81, Type (0, 1), None
#     Edge 82, Type (0, 1), None
#     Edge 83, Type (0, 1), None
#     Edge 84, Type (0, 1), None
#     Edge 85, Type (0, 1), None
#     Edge 86, Type (0, 1), None
#     Edge 87, Type (0, 1), None
#     Edge 88, Type (0, 1), None
#     Edge 89, Type (0, 1), None
#     Edge 90, Type (0, 1), None
#     Edge 91, Type (0, 1), None
#     Edge 92, Type (0, 1), None
#     Edge 93, Type (0, 1), None
#     Edge 94, Type (0, 1), None
#     Edge 95, Type (0, 1), None
#     Edge 96, Type (0, 1), None
#     Edge 97, Type (0, 1), None
#     Edge 98, Type (0, 1), None
#     Edge 99, Type (0, 1), None
#     Edge 100, Type (0, 1), None
#     Edge 101, Type (0, 1), None
#     Edge 102, Type (0, 1), None
#     Edge 103, Type (0, 1), None
#     Edge 104, Type (0, 1), None
#     Edge 105, Type (0, 1), None
#     Edge 106, Type (0, 1), None
#     Edge 107, Type (0, 1), None
#     Edge 108, Type (0, 1), None
#     Edge 109, Type (0, 1), None
#     Edge 110, Type (0, 1), None
#     Edge 111, Type (0, 1), None
#     Edge 112, Type (0, 1), None
#     Edge 113, Type (0, 1), None
#     Edge 114, Type (0, 1), None
#     Edge 115, Type (0, 1), None
#     Edge 116, Type (0, 1), None
#     Edge 117, Type (0, 1), None
#     Edge 118, Type (0, 1), None
#     Edge 119, Type (0, 1), None
#     Edge 120, Type (0, 1), None
#     Edge 121, Type (0, 1), None
#     Edge 122, Type (0, 1), None
#     Edge 123, Type (0, 1), None
#     Edge 124, Type (0, 1), None
#     Edge 125, Type (0, 1), None
#     Edge 126, Type (0, 1), None
#     Edge 127, Type (0, 1), None
#     Edge 128, Type (0, 1), None
#     Edge 129, Type (0, 1), None
#     Edge 130, Type (0, 1), None
#     Edge 131, Type (0, 1), None
#     Edge 132, Type (0, 1), None
#     Edge 133, Type (0, 1), None
#     Edge 134, Type (0, 1), None
#     Edge 135, Type (0, 1), None
# Relax obj value: 0.130
# Max RMSD: 0.227
# Mean RMSD: 0.163
data_MOF--net-gar--node1-UXUYUI_clean_sbu_0--node2-KUMBUR_clean_sbu_1--edge1-none
_symmetry_space_group_name_H-M    P1
_symmetry_Int_Tables_number       1
_symmetry_cell_setting            triclinic
loop_
_symmetry_equiv_pos_as_xyz
'x, y, z'
_cell_length_a     42.789282
_cell_length_b     42.808808
_cell_length_c     39.338025
_cell_angle_alpha  97.316105
_cell_angle_beta   97.289324
_cell_angle_gamma 102.95777
loop_
_atom_site_label
_atom_site_type_symbol
_atom_site_fract_x
_atom_site_fract_y
_atom_site_fract_z
_atom_type_partial_charge
Li0 Li 0.03722 0.34334 0.35172 0.0
Li1 Li 0.08038 0.38403 0.4007 0.0
Li2 Li 0.11102 0.34686 0.35825 0.0
Li3 Li 0.07337 0.32497 0.40013 0.0
C4 C 0.0857 0.41194 0.34306 0.0
N5 N 0.09855 0.47694 0.33685 0.0
C6 C 0.06097 0.42505 0.32859 0.0
C7 C 0.11697 0.43181 0.35426 0.0
C8 C 0.06798 0.45798 0.32562 0.0
C9 C 0.12294 0.46466 0.35102 0.0
C10 C 0.02468 0.36164 0.42714 0.0
C11 C 1.01672 0.36994 0.48694 0.0
N12 N 0.99309 0.38536 0.47798 0.0
C13 C 1.00022 0.37745 0.4185 0.0
C14 C 0.03295 0.35775 0.4616 0.0
C15 C 0.98456 0.38931 0.44458 0.0
C16 C 0.96431 0.31577 0.34952 0.0
N17 N 0.98499 0.33476 0.33203 0.0
C18 C 0.93612 0.34474 0.29917 0.0
C19 C 0.97078 0.34911 0.30691 0.0
C20 C 0.91429 0.32587 0.31746 0.0
C21 C 0.92973 0.31117 0.34284 0.0
H22 H 0.97457 0.30451 0.36983 0.0
H23 H 0.98616 0.36457 0.29282 0.0
C24 C 0.05659 0.44396 0.41954 0.0
N25 N 0.07942 0.42788 0.4303 0.0
C26 C 0.05137 0.47099 0.44101 0.0
C27 C 0.09349 0.46579 0.48466 0.0
C28 C 0.09805 0.43896 0.46232 0.0
C29 C 0.06957 0.48234 0.47457 0.0
H30 H 0.04118 0.43506 0.39464 0.0
H31 H 0.11613 0.42655 0.47122 0.0
C32 C 0.06224 0.27662 0.34636 0.0
N33 N 0.05192 0.21027 0.34393 0.0
C34 C 0.08813 0.26309 0.35641 0.0
C35 C 0.03111 0.25646 0.33507 0.0
C36 C 0.08241 0.22947 0.35499 0.0
C37 C 0.02639 0.22295 0.33404 0.0
C38 C 0.13379 0.35128 0.43792 0.0
C39 C 0.15803 0.33503 0.43205 0.0
C40 C 0.12805 0.35907 0.47179 0.0
C41 C 0.17618 0.32689 0.46022 0.0
C42 C 0.14669 0.35048 0.49926 0.0
N43 N 0.17016 0.33471 0.49296 0.0
C44 C 0.1872 0.36237 0.35038 0.0
C45 C 0.16026 0.31085 0.32054 0.0
C46 C 0.21802 0.35721 0.34254 0.0
N47 N 0.15808 0.33944 0.33969 0.0
C48 C 0.19067 0.30485 0.31221 0.0
C49 C 0.22114 0.32791 0.32307 0.0
H50 H 0.18714 0.38507 0.36599 0.0
H51 H 0.13835 0.29172 0.31187 0.0
C52 C 0.03097 0.27625 0.42179 0.0
N53 N 0.06351 0.28943 0.42714 0.0
C54 C 1.01759 0.25161 0.43947 0.0
C55 C 0.07142 0.25319 0.46777 0.0
C56 C 0.08393 0.27766 0.44884 0.0
C57 C 0.03762 0.24045 0.46392 0.0
H58 H 1.01519 0.28531 0.40392 0.0
H59 H 0.10981 0.28744 0.45214 0.0
O60 O 0.07921 0.37996 0.34694 0.0
O61 O 0.04084 0.35055 0.4021 0.0
O62 O 0.06732 0.3095 0.34796 0.0
O63 O 0.11608 0.35981 0.41068 0.0
H64 H 0.03659 0.40999 0.32001 0.0
H65 H 0.13631 0.42201 0.3657 0.0
H66 H 0.04907 0.46849 0.31455 0.0
H67 H 0.14691 0.48041 0.35996 0.0
H68 H 1.02294 0.36717 0.51373 0.0
H69 H 0.99375 0.38105 0.39204 0.0
H70 H 0.05169 0.34544 0.46873 0.0
H71 H 0.96574 0.40178 0.43829 0.0
H72 H 0.9266 0.35628 0.27878 0.0
H73 H 0.91515 0.29618 0.35805 0.0
H74 H 0.03233 0.48215 0.43168 0.0
H75 H 0.10851 0.47324 0.51 0.0
H76 H 0.11229 0.27845 0.36559 0.0
H77 H 1.01081 0.26664 0.32737 0.0
H78 H 0.10219 0.21866 0.36277 0.0
H79 H 1.00243 0.20703 0.32543 0.0
H80 H 0.16266 0.32853 0.40605 0.0
H81 H 0.10927 0.37139 0.47681 0.0
H82 H 0.19494 0.31423 0.45604 0.0
H83 H 0.14243 0.35628 0.52559 0.0
H84 H 0.23961 0.3765 0.35216 0.0
H85 H 0.19007 0.28157 0.2977 0.0
H86 H 0.99149 0.24197 0.43463 0.0
H87 H 0.08789 0.2453 0.48612 0.0
Li88 Li 0.04712 0.79125 0.69324 0.0
Li89 Li 0.08387 0.77118 0.73774 0.0
Li90 Li 0.0384 0.73145 0.68882 0.0
Li91 Li 1.01133 0.76851 0.736 0.0
C92 C 0.10009 0.76869 0.66449 0.0
N93 N 0.14407 0.77879 0.61881 0.0
C94 C 0.1293 0.7925 0.67432 0.0
C95 C 0.09325 0.7501 0.63132 0.0
C96 C 0.15128 0.79712 0.65095 0.0
C97 C 0.11571 0.75568 0.60857 0.0
C98 C 0.06286 0.83815 0.75349 0.0
C99 C 0.05054 0.88751 0.77867 0.0
N100 N 0.07699 0.90516 0.76795 0.0
C101 C 0.09034 0.85677 0.74338 0.0
C102 C 0.04305 0.85361 0.77168 0.0
C103 C 0.09683 0.89063 0.7506 0.0
C104 C 0.03447 0.85108 0.67798 0.0
N105 N 0.05101 0.82868 0.66801 0.0
C106 C 0.08043 0.86529 0.63491 0.0
C107 C 0.07223 0.83465 0.64513 0.0
C108 C 0.06648 0.89 0.64813 0.0
C109 C 0.04202 0.88202 0.66857 0.0
H110 H 1.01707 0.84576 0.6954 0.0
H111 H 0.08413 0.8164 0.63592 0.0
C112 C 0.1495 0.75182 0.74973 0.0
N113 N 0.13547 0.77746 0.75605 0.0
C114 C 0.18404 0.7558 0.75481 0.0
C115 C 0.19076 0.81254 0.77287 0.0
C116 C 0.15612 0.80754 0.76799 0.0
C117 C 0.20586 0.78666 0.76598 0.0
H118 H 0.13397 0.72798 0.73931 0.0
H119 H 0.14596 0.82837 0.77251 0.0
C120 C 0.98915 0.76796 0.65541 0.0
N121 N 0.96104 0.79108 0.59978 0.0
C122 C 0.96248 0.78134 0.65834 0.0
C123 C 1.00131 0.76603 0.62407 0.0
C124 C 0.94863 0.79295 0.62992 0.0
C125 C 0.98684 0.77795 0.59628 0.0
C126 C 0.03559 0.70212 0.74647 0.0
C127 C 1.00503 0.68185 0.73244 0.0
C128 C 0.05946 0.68928 0.76326 0.0
C129 C 0.99896 0.64887 0.73511 0.0
C130 C 0.05225 0.65625 0.76586 0.0
N131 N 1.02242 0.63691 0.7518 0.0
C132 C 0.05689 0.66969 0.66714 0.0
C133 C 1.01639 0.67895 0.62593 0.0
C134 C 0.05907 0.64181 0.64479 0.0
N135 N 0.03581 0.688 0.65768 0.0
C136 C 1.0182 0.65153 0.60257 0.0
C137 C 0.03991 0.63232 0.61154 0.0
H138 H 0.07295 0.67719 0.69179 0.0
H139 H 1.00005 0.69359 0.61803 0.0
C140 C 0.95643 0.80451 0.75321 0.0
N141 N 0.96639 0.77658 0.75749 0.0
C142 C 0.92699 0.81076 0.76361 0.0
C143 C 0.91628 0.75979 0.78316 0.0
C144 C 0.94608 0.75442 0.77246 0.0
C145 C 0.90558 0.78852 0.77914 0.0
H146 H 0.97094 0.82233 0.7407 0.0
H147 H 0.95246 0.73186 0.77595 0.0
O148 O 0.07823 0.76382 0.68704 0.0
O149 O 0.05526 0.80497 0.74569 0.0
O150 O 1.00361 0.75719 0.68317 0.0
O151 O 0.04229 0.73422 0.74302 0.0
H152 H 0.13467 0.80777 0.69938 0.0
H153 H 0.07073 0.73177 0.62305 0.0
H154 H 0.17394 0.81549 0.65827 0.0
H155 H 0.11061 0.74159 0.58277 0.0
H156 H 0.0353 0.89978 0.79256 0.0
H157 H 0.10593 0.84522 0.72924 0.0
H158 H 1.0222 0.83957 0.78049 0.0
H159 H 0.11737 0.90539 0.74208 0.0
H160 H 0.09915 0.87019 0.61883 0.0
H161 H 0.03011 0.90013 0.67883 0.0
H162 H 0.19356 0.73482 0.74848 0.0
H163 H 0.20571 0.83684 0.78214 0.0
H164 H 0.95252 0.78267 0.68223 0.0
H165 H 1.02202 0.75587 0.62144 0.0
H166 H 0.92802 0.80343 0.63183 0.0
H167 H 0.99616 0.77686 0.57196 0.0
H168 H 0.98637 0.69143 0.7192 0.0
H169 H 0.08328 0.70467 0.77412 0.0
H170 H 0.97555 0.63281 0.72405 0.0
H171 H 0.0704 0.64595 0.77888 0.0
H172 H 0.07655 0.62847 0.65316 0.0
H173 H 1.00279 0.64563 0.57744 0.0
H174 H 0.92072 0.833 0.75856 0.0
H175 H 0.90158 0.74113 0.79453 0.0
Li176 Li 0.53599 0.83739 0.84336 0.0
Li177 Li 0.57849 0.88 0.89247 0.0
Li178 Li 0.60945 0.84124 0.8508 0.0
Li179 Li 0.57156 0.81998 0.89313 0.0
C180 C 0.58346 0.9043 0.82929 0.0
N181 N 0.5952 0.96544 0.81076 0.0
C182 C 0.55753 0.91692 0.81706 0.0
C183 C 0.61535 0.92264 0.83189 0.0
C184 C 0.56398 0.94792 0.80782 0.0
C185 C 0.62077 0.95353 0.82242 0.0
C186 C 0.51762 0.85776 0.91156 0.0
C187 C 0.49046 0.86159 0.96148 0.0
N188 N 0.47457 0.88227 0.94742 0.0
C189 C 0.5011 0.87913 0.89765 0.0
C190 C 0.51237 0.84896 0.94376 0.0
C191 C 0.4794 0.89122 0.91616 0.0
C192 C 0.4631 0.80682 0.83772 0.0
N193 N 0.48384 0.82816 0.82253 0.0
C194 C 0.43491 0.83928 0.79087 0.0
C195 C 0.46963 0.84419 0.79911 0.0
C196 C 0.413 0.81776 0.80665 0.0
C197 C 0.42847 0.80129 0.8302 0.0
H198 H 0.47332 0.79422 0.85675 0.0
H199 H 0.48502 0.86145 0.78678 0.0
C200 C 0.57346 0.95131 0.91045 0.0
N201 N 0.57707 0.92363 0.92298 0.0
C202 C 0.56858 0.97849 0.93225 0.0
C203 C 0.57149 0.94928 0.98001 0.0
C204 C 0.57583 0.92263 0.95739 0.0
C205 C 0.5676 0.97816 0.96794 0.0
H206 H 0.57363 0.95246 0.88327 0.0
H207 H 0.57725 0.90059 0.96746 0.0
C208 C 0.55976 0.77061 0.83983 0.0
N209 N 0.54673 0.70433 0.8392 0.0
C210 C 0.5846 0.75621 0.85123 0.0
C211 C 0.52836 0.75128 0.82778 0.0
C212 C 0.5775 0.72266 0.85078 0.0
C213 C 0.52225 0.7178 0.82772 0.0
C214 C 0.63446 0.84787 0.92894 0.0
C215 C 0.65425 0.82696 0.92075 0.0
C216 C 0.63625 0.86165 0.96351 0.0
C217 C 0.67535 0.82006 0.94731 0.0
C218 C 0.65761 0.8541 0.98936 0.0
N219 N 0.67655 0.83364 0.98079 0.0
C220 C 0.68556 0.85756 0.84248 0.0
C221 C 0.65988 0.80446 0.81636 0.0
C222 C 0.71665 0.85264 0.83537 0.0
N223 N 0.65691 0.83376 0.8332 0.0
C224 C 0.69061 0.7986 0.80889 0.0
C225 C 0.72059 0.82264 0.81827 0.0
H226 H 0.6849 0.88086 0.85635 0.0
H227 H 0.63838 0.78464 0.809 0.0
C228 C 0.52994 0.76996 0.91469 0.0
N229 N 0.56199 0.78546 0.92164 0.0
C230 C 0.51717 0.74548 0.93293 0.0
C231 C 0.5706 0.75226 0.96539 0.0
C232 C 0.58253 0.7766 0.94604 0.0
C233 C 0.53725 0.73689 0.95953 0.0
H234 H 0.51401 0.77713 0.89521 0.0
H235 H 0.60797 0.78874 0.95132 0.0
O236 O 0.57768 0.87412 0.83866 0.0
O237 O 0.53918 0.84594 0.8939 0.0
O238 O 0.566 0.80353 0.84103 0.0
O239 O 0.614 0.85526 0.90316 0.0
H240 H 0.53273 0.90309 0.81514 0.0
H241 H 0.63567 0.91313 0.84126 0.0
H242 H 0.54419 0.95812 0.7985 0.0
H243 H 0.6453 0.96803 0.82433 0.0
H244 H 0.48613 0.855 0.98643 0.0
H245 H 0.50521 0.88648 0.87293 0.0
H246 H 0.52518 0.83267 0.95502 0.0
H247 H 0.46645 0.90777 0.90571 0.0
H248 H 0.42541 0.85226 0.77186 0.0
H249 H 0.41384 0.78429 0.84352 0.0
H250 H 0.56538 0.99947 0.921 0.0
H251 H 0.5707 0.94684 1.00696 0.0
H252 H 0.60897 0.77085 0.86078 0.0
H253 H 0.50889 0.76208 0.81887 0.0
H254 H 0.59643 0.7112 0.85973 0.0
H255 H 0.49805 0.70253 0.81864 0.0
H256 H 0.65311 0.81585 0.89427 0.0
H257 H 0.62142 0.87807 0.97036 0.0
H258 H 0.69066 0.8038 0.94133 0.0
H259 H 0.65917 0.86457 0.01622 0.0
H260 H 0.73783 0.87268 0.84374 0.0
H261 H 0.69069 0.77475 0.79622 0.0
H262 H 0.49142 0.73401 0.92691 0.0
H263 H 0.58701 0.7466 0.98568 0.0
Li264 Li 0.54903 0.29058 0.19702 0.0
Li265 Li 0.58546 0.27173 0.2428 0.0
Li266 Li 0.54009 0.23007 0.19278 0.0
Li267 Li 0.51189 0.26842 0.23949 0.0
C268 C 0.60371 0.26792 0.17095 0.0
N269 N 0.65139 0.27712 0.12933 0.0
C270 C 0.63212 0.29265 0.18176 0.0
C271 C 0.59949 0.24806 0.13881 0.0
C272 C 0.65599 0.29682 0.16045 0.0
C273 C 0.62384 0.25311 0.11814 0.0
C274 C 0.56305 0.33812 0.25719 0.0
C275 C 0.54968 0.38694 0.28226 0.0
N276 N 0.57599 0.40506 0.27176 0.0
C277 C 0.59045 0.35721 0.24742 0.0
C278 C 0.5428 0.35308 0.27523 0.0
C279 C 0.5963 0.39104 0.25465 0.0
C280 C 0.53609 0.3498 0.18024 0.0
N281 N 0.55339 0.32777 0.1714 0.0
C282 C 0.58345 0.36451 0.13884 0.0
C283 C 0.57545 0.33399 0.14943 0.0
C284 C 0.56845 0.38884 0.15079 0.0
C285 C 0.54339 0.38059 0.17043 0.0
H286 H 0.51816 0.34433 0.19708 0.0
H287 H 0.58813 0.31602 0.14129 0.0
C288 C 0.65333 0.25595 0.25502 0.0
N289 N 0.63779 0.28021 0.26263 0.0
C290 C 0.68806 0.26132 0.26135 0.0
C291 C 0.69222 0.31668 0.28353 0.0
C292 C 0.65734 0.31037 0.27697 0.0
C293 C 0.70892 0.29212 0.27573 0.0
H294 H 0.63889 0.23219 0.24256 0.0
H295 H 0.64616 0.33038 0.28233 0.0
C296 C 0.49123 0.26718 0.15867 0.0
N297 N 0.46358 0.2904 0.10284 0.0
C298 C 0.46414 0.27999 0.16113 0.0
C299 C 0.50413 0.26598 0.12776 0.0
C300 C 0.45051 0.29163 0.13261 0.0
C301 C 0.48986 0.27792 0.09985 0.0
C302 C 0.53648 0.20322 0.2542 0.0
C303 C 0.50489 0.1836 0.2448 0.0
C304 C 0.56103 0.19078 0.27027 0.0
C305 C 0.49844 0.15164 0.25137 0.0
C306 C 0.5535 0.15878 0.2767 0.0
N307 N 0.52264 0.14002 0.26712 0.0
C308 C 0.55362 0.16391 0.17232 0.0
C309 C 0.52169 0.17946 0.1274 0.0
C310 C 0.55538 0.13576 0.14981 0.0
N311 N 0.53708 0.18563 0.16113 0.0
C312 C 0.52347 0.15201 0.10389 0.0
C313 C 0.54065 0.12939 0.11458 0.0
H314 H 0.56658 0.16879 0.19861 0.0
H315 H 0.50885 0.1965 0.11801 0.0
C316 C 0.45651 0.30535 0.25617 0.0
N317 N 0.46581 0.27692 0.25988 0.0
C318 C 0.42701 0.31199 0.26624 0.0
C319 C 0.41441 0.26029 0.28377 0.0
C320 C 0.44439 0.25458 0.2736 0.0
C321 C 0.40453 0.28964 0.28063 0.0
H322 H 0.47165 0.32335 0.24443 0.0
H323 H 0.45001 0.23158 0.27653 0.0
O324 O 0.58032 0.26298 0.19181 0.0
O325 O 0.55598 0.30495 0.24935 0.0
O326 O 0.50541 0.25635 0.18654 0.0
O327 O 0.54338 0.23432 0.24728 0.0
H328 H 0.63553 0.30882 0.20605 0.0
H329 H 0.57763 0.22903 0.12979 0.0
H330 H 0.6781 0.31582 0.16856 0.0
H331 H 0.62079 0.23797 0.09316 0.0
H332 H 0.53408 0.39882 0.29602 0.0
H333 H 0.60648 0.34607 0.23357 0.0
H334 H 0.52214 0.33866 0.28397 0.0
H335 H 0.61672 0.40618 0.24633 0.0
H336 H 0.60272 0.36967 0.12347 0.0
H337 H 0.53077 0.39842 0.17978 0.0
H338 H 0.69852 0.24144 0.25359 0.0
H339 H 0.70607 0.34111 0.29442 0.0
H340 H 0.45373 0.2809 0.18476 0.0
H341 H 0.52534 0.2565 0.12559 0.0
H342 H 0.42957 0.30166 0.13413 0.0
H343 H 0.49974 0.27739 0.07586 0.0
H344 H 0.48565 0.19288 0.23226 0.0
H345 H 0.58562 0.20567 0.27761 0.0
H346 H 0.4742 0.13606 0.24388 0.0
H347 H 0.5722 0.14881 0.28917 0.0
H348 H 0.56954 0.11994 0.15968 0.0
H349 H 0.51168 0.14881 0.07722 0.0
H350 H 0.42151 0.3347 0.26178 0.0
H351 H 0.39895 0.24139 0.29414 0.0
Li352 Li 0.10668 0.8616 0.11361 0.0
Li353 Li 0.14395 0.83388 0.16068 0.0
Li354 Li 0.10352 0.78829 0.11062 0.0
Li355 Li 0.08375 0.82464 0.15582 0.0
C356 C 0.17255 0.83679 0.10111 0.0
N357 N 0.23694 0.84968 0.09217 0.0
C358 C 0.19094 0.86886 0.10571 0.0
C359 C 0.18677 0.81127 0.09166 0.0
C360 C 0.22347 0.87487 0.10106 0.0
C361 C 0.21942 0.8183 0.0874 0.0
C362 C 0.10717 0.88228 0.19469 0.0
C363 C 0.09746 0.88349 0.25386 0.0
N364 N 0.08465 0.9096 0.25126 0.0
C365 C 0.09405 0.90921 0.19264 0.0
C366 C 0.10906 0.86938 0.22558 0.0
C367 C 0.08276 0.92267 0.22153 0.0
C368 C 0.07123 0.91759 0.09759 0.0
N369 N 0.09921 0.90764 0.09332 0.0
C370 C 0.11656 0.95872 0.06928 0.0
C371 C 0.12172 0.92854 0.07926 0.0
C372 C 0.08768 0.96928 0.07308 0.0
C373 C 0.06519 0.94734 0.08784 0.0
H374 H 0.05317 0.90278 0.10957 0.0
H375 H 0.14441 0.92236 0.07595 0.0
C376 C 0.20705 0.81749 0.18469 0.0
N377 N 0.18758 0.83776 0.19299 0.0
C378 C 0.23498 0.81665 0.20792 0.0
C379 C 0.22284 0.85687 0.24888 0.0
C380 C 0.1955 0.85751 0.22461 0.0
C381 C 0.2434 0.83632 0.2409 0.0
H382 H 0.20036 0.80083 0.16044 0.0
H383 H 0.18 0.87319 0.23175 0.0
C384 C 0.03689 0.81113 0.09579 0.0
N385 N 0.97001 0.80004 0.08248 0.0
C386 C 1.01736 0.78405 0.10566 0.0
C387 C 1.02237 0.83193 0.07818 0.0
C388 C 0.98358 0.77921 0.09918 0.0
C389 C 0.98853 0.82595 0.07174 0.0
C390 C 0.10697 0.77042 0.18267 0.0
C391 C 0.08302 0.74144 0.1718 0.0
C392 C 0.12659 0.77541 0.21509 0.0
C393 C 0.07933 0.71778 0.19337 0.0
C394 C 0.12202 0.75123 0.236 0.0
N395 N 0.09875 0.72312 0.22476 0.0
C396 C 0.11915 0.7204 0.10161 0.0
C397 C 0.06682 0.71675 0.07283 0.0
C398 C 0.11393 0.6857 0.09497 0.0
N399 N 0.09585 0.73609 0.09076 0.0
C400 C 0.06079 0.68191 0.06551 0.0
C401 C 0.08437 0.66506 0.07653 0.0
H402 H 0.14183 0.73465 0.11697 0.0
H403 H 0.04745 0.72804 0.06491 0.0
C404 C 0.02481 0.83822 0.17305 0.0
N405 N 0.04649 0.82041 0.18137 0.0
C406 C 0.99417 0.83144 0.18332 0.0
C407 C 1.00971 0.79073 0.21417 0.0
C408 C 0.04008 0.79819 0.20312 0.0
C409 C 0.98572 0.80637 0.20287 0.0
H410 H 0.03043 0.85622 0.15633 0.0
H411 H 0.05774 0.78501 0.21076 0.0
O412 O 0.1409 0.83043 0.10635 0.0
O413 O 0.11769 0.86824 0.16649 0.0
O414 O 0.07004 0.81752 0.10331 0.0
O415 O 0.11143 0.79357 0.16155 0.0
H416 H 0.18025 0.88888 0.11302 0.0
H417 H 0.17282 0.78631 0.08805 0.0
H418 H 0.238 0.89954 0.10459 0.0
H419 H 0.23084 0.79881 0.08031 0.0
H420 H 0.09854 0.87362 0.27784 0.0
H421 H 0.09264 0.91964 0.16905 0.0
H422 H 0.11891 0.84838 0.22749 0.0
H423 H 0.07249 0.94349 0.22031 0.0
H424 H 0.13548 0.97378 0.05855 0.0
H425 H 0.04286 0.95345 0.09282 0.0
H426 H 0.24881 0.79931 0.20073 0.0
H427 H 0.22762 0.87225 0.27394 0.0
H428 H 0.02818 0.76758 0.11913 0.0
H429 H 0.0371 0.85236 0.06938 0.0
H430 H 0.96811 0.75924 0.10784 0.0
H431 H 0.977 0.84197 0.05833 0.0
H432 H 0.06715 0.73741 0.14718 0.0
H433 H 0.14506 0.79772 0.22413 0.0
H434 H 0.06093 0.69523 0.18521 0.0
H435 H 0.13698 0.75483 0.26118 0.0
H436 H 0.13281 0.67506 0.10556 0.0
H437 H 0.03727 0.6682 0.05153 0.0
H438 H 0.97658 0.84449 0.17438 0.0
H439 H 1.00436 0.77137 0.22938 0.0
Li440 Li 0.53497 0.8395 0.50706 0.0
Li441 Li 0.49157 0.79772 0.45843 0.0
Li442 Li 0.53008 0.76653 0.50155 0.0
Li443 Li 0.55237 0.80341 0.45877 0.0
C444 C 0.47493 0.80529 0.53184 0.0
N445 N 0.43169 0.82023 0.57408 0.0
C446 C 0.45894 0.82961 0.52563 0.0
C447 C 0.46898 0.78858 0.55954 0.0
C448 C 0.43708 0.83675 0.5472 0.0
C449 C 0.44707 0.79654 0.58065 0.0
C450 C 0.52002 0.85822 0.4365 0.0
C451 C 0.52427 0.88248 0.38462 0.0
N452 N 0.50591 0.90275 0.39551 0.0
C453 C 0.50105 0.87922 0.44706 0.0
C454 C 0.53164 0.85978 0.40493 0.0
C455 C 0.49426 0.90159 0.42604 0.0
C456 C 0.56448 0.91233 0.51051 0.0
N457 N 0.54366 0.89171 0.52638 0.0
C458 C 0.53129 0.94053 0.55647 0.0
C459 C 0.52723 0.90591 0.54932 0.0
C460 C 0.55198 0.96232 0.53973 0.0
C461 C 0.56881 0.94688 0.51659 0.0
H462 H 0.57738 0.90202 0.49183 0.0
H463 H 0.51019 0.89053 0.56191 0.0
C464 C 0.41865 0.79537 0.44007 0.0
N465 N 0.44818 0.79909 0.42897 0.0
C466 C 0.39107 0.80044 0.41912 0.0
C467 C 0.42414 0.81317 0.37561 0.0
C468 C 0.45069 0.80735 0.39687 0.0
C469 C 0.3934 0.81008 0.38629 0.0
H470 H 0.41627 0.7887 0.46539 0.0
H471 H 0.47371 0.81011 0.38766 0.0
C472 C 0.60106 0.81313 0.51367 0.0
N473 N 0.66747 0.82092 0.51928 0.0
C474 C 0.61374 0.78695 0.50244 0.0
C475 C 0.6221 0.84327 0.52777 0.0
C476 C 0.6474 0.79138 0.5055 0.0
C477 C 0.65563 0.84672 0.53036 0.0
C478 C 0.52211 0.74222 0.42138 0.0
C479 C 0.54051 0.71962 0.42696 0.0
C480 C 0.50942 0.7445 0.38751 0.0
C481 C 0.546 0.6997 0.39845 0.0
C482 C 0.51549 0.72417 0.35969 0.0
N483 N 0.5335 0.70238 0.36569 0.0
C484 C 0.51286 0.68992 0.50803 0.0
C485 C 0.56512 0.71578 0.53666 0.0
C486 C 0.51756 0.65874 0.51517 0.0
N487 N 0.53637 0.71869 0.51859 0.0
C488 C 0.57074 0.68506 0.54412 0.0
C489 C 0.54704 0.65497 0.53367 0.0
H490 H 0.49003 0.69056 0.4931 0.0
H491 H 0.58471 0.73736 0.54506 0.0
C492 C 0.60502 0.84357 0.44013 0.0
N493 N 0.58775 0.81213 0.43125 0.0
C494 C 0.62987 0.85624 0.4223 0.0
C495 C 0.62017 0.80381 0.38665 0.0
C496 C 0.59541 0.79195 0.40555 0.0
C497 C 0.63714 0.8367 0.39433 0.0
H498 H 0.59871 0.85923 0.46056 0.0
H499 H 0.58186 0.76697 0.39878 0.0
O500 O 0.49697 0.79848 0.5115 0.0
O501 O 0.52674 0.83595 0.45667 0.0
O502 O 0.56817 0.80923 0.51093 0.0
O503 O 0.51614 0.76165 0.44896 0.0
H504 H 0.46335 0.8428 0.50435 0.0
H505 H 0.48134 0.76982 0.56482 0.0
H506 H 0.4245 0.85548 0.54266 0.0
H507 H 0.44243 0.784 0.60236 0.0
H508 H 0.53305 0.8839 0.36012 0.0
H509 H 0.49165 0.87829 0.47123 0.0
H510 H 0.54583 0.84338 0.39595 0.0
H511 H 0.47968 0.91801 0.43398 0.0
H512 H 0.5179 0.95001 0.57504 0.0
H513 H 0.58528 0.96144 0.50269 0.0
H514 H 0.36819 0.79659 0.42862 0.0
H515 H 0.42797 0.8201 0.35065 0.0
H516 H 0.59773 0.76354 0.49123 0.0
H517 H 0.61261 0.86378 0.5365 0.0
H518 H 0.65757 0.77135 0.49688 0.0
H519 H 0.67224 0.86991 0.54118 0.0
H520 H 0.55066 0.71763 0.45296 0.0
H521 H 0.49507 0.76177 0.38277 0.0
H522 H 0.5603 0.68219 0.40237 0.0
H523 H 0.50588 0.7257 0.33333 0.0
H524 H 0.49784 0.63742 0.50572 0.0
H525 H 0.59426 0.68509 0.55753 0.0
H526 H 0.64251 0.88163 0.42954 0.0
H527 H 0.62482 0.78788 0.36521 0.0
Li528 Li 0.60733 0.36468 0.6153 0.0
Li529 Li 0.64535 0.33692 0.66204 0.0
Li530 Li 0.60425 0.2912 0.61218 0.0
Li531 Li 0.58494 0.32762 0.65766 0.0
C532 C 0.67302 0.34029 0.60183 0.0
N533 N 0.73706 0.35401 0.5916 0.0
C534 C 0.69303 0.37147 0.61326 0.0
C535 C 0.6855 0.3161 0.58511 0.0
C536 C 0.72542 0.37784 0.60807 0.0
C537 C 0.71792 0.32358 0.58002 0.0
C538 C 0.60824 0.38522 0.69631 0.0
C539 C 0.59753 0.38583 0.7551 0.0
N540 N 0.58518 0.41224 0.75264 0.0
C541 C 0.59558 0.41245 0.69441 0.0
C542 C 0.60939 0.37187 0.72694 0.0
C543 C 0.58401 0.42575 0.72316 0.0
C544 C 0.57128 0.42066 0.59999 0.0
N545 N 0.59913 0.41071 0.59501 0.0
C546 C 0.61548 0.46158 0.57021 0.0
C547 C 0.62105 0.43151 0.58017 0.0
C548 C 0.58676 0.47219 0.57481 0.0
C549 C 0.56484 0.45032 0.5903 0.0
H550 H 0.55361 0.40591 0.61247 0.0
H551 H 0.64357 0.42527 0.57609 0.0
C552 C 0.71129 0.32377 0.68328 0.0
N553 N 0.68966 0.34075 0.69376 0.0
C554 C 0.73956 0.32279 0.70605 0.0
C555 C 0.72352 0.35636 0.75075 0.0
C556 C 0.69595 0.35732 0.72699 0.0
C557 C 0.74613 0.33886 0.74077 0.0
H558 H 0.70622 0.30985 0.65742 0.0
H559 H 0.67893 0.37051 0.73579 0.0
C560 C 0.53766 0.31359 0.59768 0.0
N561 N 0.47069 0.30086 0.58358 0.0
C562 C 0.51858 0.28599 0.60709 0.0
C563 C 0.52267 0.33421 0.58031 0.0
C564 C 0.48474 0.28024 0.6001 0.0
C565 C 0.48879 0.32741 0.57348 0.0
C566 C 0.60806 0.27335 0.68423 0.0
C567 C 0.58356 0.24474 0.67356 0.0
C568 C 0.62797 0.27792 0.7164 0.0
C569 C 0.57964 0.22105 0.69508 0.0
C570 C 0.62316 0.25374 0.73727 0.0
N571 N 0.59936 0.226 0.72623 0.0
C572 C 0.62058 0.2235 0.60027 0.0
C573 C 0.56607 0.2191 0.57827 0.0
C574 C 0.61543 0.18878 0.59404 0.0
N575 N 0.59616 0.23883 0.59259 0.0
C576 C 0.55998 0.18424 0.57182 0.0
C577 C 0.5847 0.16774 0.57971 0.0
H578 H 0.6443 0.23808 0.61269 0.0
H579 H 0.54595 0.23011 0.57283 0.0
C580 C 0.52571 0.3407 0.67438 0.0
N581 N 0.54759 0.32321 0.68311 0.0
C582 C 0.49491 0.3336 0.68424 0.0
C583 C 0.51069 0.29333 0.71565 0.0
C584 C 0.54121 0.3011 0.70498 0.0
C585 C 0.48652 0.30857 0.70386 0.0
H586 H 0.53132 0.35867 0.65763 0.0
H587 H 0.55905 0.28824 0.71301 0.0
O588 O 0.64154 0.33339 0.60762 0.0
O589 O 0.61895 0.3713 0.66818 0.0
O590 O 0.57085 0.32052 0.60529 0.0
O591 O 0.61275 0.29656 0.66316 0.0
H592 H 0.68373 0.39041 0.62638 0.0
H593 H 0.6703 0.29181 0.57623 0.0
H594 H 0.7413 0.40174 0.61717 0.0
H595 H 0.72792 0.30515 0.56702 0.0
H596 H 0.59803 0.37559 0.77887 0.0
H597 H 0.59476 0.42325 0.67103 0.0
H598 H 0.61878 0.35057 0.7287 0.0
H599 H 0.5741 0.4468 0.72206 0.0
H600 H 0.63394 0.47649 0.55876 0.0
H601 H 0.54266 0.45642 0.59588 0.0
H602 H 0.75522 0.30811 0.69689 0.0
H603 H 0.72682 0.36904 0.77707 0.0
H604 H 0.52975 0.26971 0.62048 0.0
H605 H 0.53707 0.35513 0.57197 0.0
H606 H 0.46961 0.25964 0.60813 0.0
H607 H 0.47688 0.34326 0.56021 0.0
H608 H 0.56738 0.24106 0.64923 0.0
H609 H 0.64686 0.29993 0.72527 0.0
H610 H 0.5608 0.1988 0.68709 0.0
H611 H 0.63832 0.25705 0.76227 0.0
H612 H 0.63544 0.17849 0.60183 0.0
H613 H 0.5356 0.17025 0.56092 0.0
H614 H 0.4772 0.34637 0.67496 0.0
H615 H 0.5054 0.27405 0.73098 0.0
Li616 Li 0.03568 0.33774 1.00667 0.0
Li617 Li 0.99252 0.29474 0.95923 0.0
Li618 Li 0.03131 0.2642 1.00101 0.0
Li619 Li 0.05246 0.3012 0.958 0.0
C620 C 0.96895 0.29273 0.02269 0.0
N621 N 0.90809 0.28464 0.04177 0.0
C622 C 0.95651 0.31973 0.03121 0.0
C623 C 0.95059 0.26164 0.02411 0.0
C624 C 0.92564 0.31513 0.04076 0.0
C625 C 0.91984 0.25807 0.03381 0.0
C626 C 1.01596 0.35667 0.94025 0.0
C627 C 1.01639 0.38918 0.89444 0.0
N628 N 0.99435 0.40342 0.90806 0.0
C629 C 0.99321 0.37156 0.9537 0.0
C630 C 0.02761 0.36548 0.91032 0.0
C631 C 0.98264 0.39517 0.9371 0.0
C632 C 0.06395 0.41039 1.00728 0.0
N633 N 0.04482 0.39025 0.02518 0.0
C634 C 0.03435 0.43965 0.05627 0.0
C635 C 0.03024 0.40501 0.04968 0.0
C636 C 0.05318 0.46088 0.0374 0.0
C637 C 0.06827 0.44494 0.0128 0.0
H638 H 0.07545 0.39969 0.98747 0.0
H639 H 1.01472 0.39007 0.0641 0.0
C640 C 0.91945 0.2936 0.9406 0.0
N641 N 0.94892 0.29598 0.92955 0.0
C642 C 0.89233 0.29926 0.91941 0.0
C643 C 0.92551 0.30941 0.87547 0.0
C644 C 0.95169 0.30332 0.89712 0.0
C645 C 0.89496 0.30788 0.88622 0.0
H646 H 0.91668 0.28762 0.96604 0.0
H647 H 0.97479 0.30549 0.88811 0.0
C648 C 0.10202 0.31181 0.01169 0.0
N649 N 0.1684 0.32058 0.01543 0.0
C650 C 0.11497 0.28563 1.00114 0.0
C651 C 0.12279 0.34244 0.0242 0.0
C652 C 0.14861 0.29057 1.00322 0.0
C653 C 0.1563 0.34638 0.02586 0.0
C654 C 1.02315 0.23941 0.92157 0.0
C655 C 0.04244 0.21765 0.92763 0.0
C656 C 1.0099 0.24062 0.88756 0.0
C657 C 0.04824 0.19752 0.89948 0.0
C658 C 1.01632 0.22013 0.8601 0.0
N659 N 0.03519 0.19919 0.86658 0.0
C660 C 1.01577 0.1878 1.0074 0.0
C661 C 0.0673 0.21435 0.03755 0.0
C662 C 1.02087 0.15678 0.01454 0.0
N663 N 0.03873 0.21683 0.01862 0.0
C664 C 0.07326 0.18374 0.04518 0.0
C665 C 0.05017 0.15336 0.03377 0.0
H666 H 0.9931 0.18811 0.99189 0.0
H667 H 0.08646 0.23619 0.04657 0.0
C668 C 0.10288 0.34218 0.93752 0.0
N669 N 0.08694 0.31029 0.92973 0.0
C670 C 0.12722 0.35524 0.91929 0.0
C671 C 0.11972 0.30226 0.88547 0.0
C672 C 0.09543 0.29005 0.90474 0.0
C673 C 0.13533 0.33554 0.89207 0.0
H674 H 0.09601 0.35781 0.95753 0.0
H675 H 0.08297 0.2647 0.89892 0.0
O676 O 0.99898 0.29669 0.01303 0.0
O677 O 0.02648 0.33339 0.95616 0.0
O678 O 0.06915 0.30744 0.00981 0.0
O679 O 1.01684 0.25898 0.94883 0.0
H680 H 0.97045 0.34394 0.03027 0.0
H681 H 0.95995 0.24052 0.01765 0.0
H682 H 0.91559 0.33576 0.04725 0.0
H683 H 0.90533 0.2342 0.03498 0.0
H684 H 0.02516 0.39622 0.87124 0.0
H685 H 0.98375 0.36484 0.97667 0.0
H686 H 0.04497 0.354 0.89934 0.0
H687 H 0.96508 0.4069 0.94728 0.0
H688 H 1.02267 0.44965 0.07628 0.0
H689 H 0.08328 0.45908 0.99726 0.0
H690 H 0.86953 0.29659 0.92901 0.0
H691 H 0.92956 0.31566 0.85031 0.0
H692 H 0.09917 0.26182 0.99121 0.0
H693 H 0.11309 0.36294 0.03241 0.0
H694 H 0.15897 0.27054 0.99508 0.0
H695 H 0.17269 0.36995 0.03542 0.0
H696 H 0.05306 0.21649 0.95372 0.0
H697 H 0.99481 0.25716 0.88241 0.0
H698 H 0.06322 0.18067 0.90378 0.0
H699 H 1.00626 0.22085 0.83364 0.0
H700 H 1.00157 0.13526 1.00448 0.0
H701 H 0.09651 0.18412 0.05965 0.0
H702 H 0.13887 0.38093 0.92574 0.0
H703 H 0.12511 0.28619 0.86464 0.0
Li704 Li 0.46395 0.05355 0.36308 0.0
Li705 Li 0.41273 1.01709 0.33635 0.0
Li706 Li 0.45373 0.03467 0.30266 0.0
Li707 Li 0.42459 0.07335 0.32504 0.0
C708 C 0.46956 0.98468 0.32688 0.0
N709 N 0.49686 0.93654 0.29857 0.0
C710 C 0.45007 0.95365 0.31297 0.0
C711 C 0.50297 0.99115 0.32592 0.0
C712 C 0.46433 0.92966 0.29896 0.0
C713 C 0.51628 0.96654 0.31158 0.0
C714 C 0.3992 0.04792 0.39259 0.0
C715 C 0.34549 0.03636 0.40796 0.0
N716 N 0.35747 0.02698 0.43767 0.0
C717 C 0.41099 0.03804 0.42321 0.0
C718 C 0.3662 0.04696 0.3848 0.0
C719 C 0.38947 0.02753 0.44567 0.0
C720 C 0.49708 0.08944 0.42837 0.0
N721 N 0.49454 0.06282 0.4044 0.0
C722 C 0.53075 0.04303 0.44252 0.0
C723 C 0.51103 0.03996 0.4108 0.0
C724 C 0.53287 0.06956 0.46822 0.0
C725 C 0.51638 0.09339 0.46072 0.0
H726 H 0.48286 0.1067 0.42302 0.0
H727 H 0.50743 1.01829 0.3922 0.0
C728 C 0.35658 0.96588 0.31633 0.0
N729 N 0.38263 0.97907 0.34163 0.0
C730 C 0.34139 0.9329 0.31245 0.0
C731 C 0.37931 0.92821 0.36159 0.0
C732 C 0.39319 0.96147 0.36516 0.0
C733 C 0.35393 0.9136 0.33421 0.0
H734 H 0.3493 0.98028 0.29755 0.0
H735 H 0.41455 0.9725 0.38439 0.0
C736 C 0.49988 0.10215 0.34316 0.0
N737 N 0.55457 0.1463 0.38065 0.0
C738 C 0.49729 0.13171 0.36087 0.0
C739 C 0.5303 0.09496 0.34493 0.0
C740 C 0.52523 0.15375 0.37952 0.0
C741 C 0.55764 0.11759 0.36395 0.0
C742 C 0.39745 0.04128 0.26035 0.0
C743 C 0.42026 0.06116 0.24486 0.0
C744 C 0.36471 0.03296 0.2453 0.0
C745 C 0.40993 0.072 0.21434 0.0
C746 C 0.35532 0.04456 0.21498 0.0
N747 N 0.37793 0.06362 0.2002 0.0
C748 C 0.45355 0.98946 0.24595 0.0
C749 C 0.50086 0.03311 0.25893 0.0
C750 C 0.46761 0.97252 0.2221 0.0
N751 N 0.47079 0.01855 0.26453 0.0
C752 C 0.51568 1.0172 0.23503 0.0
C753 C 0.49919 0.98632 0.21711 0.0
H754 H 0.42952 0.97878 0.25099 0.0
H755 H 0.51362 0.05649 0.27369 0.0
C756 C 0.42711 0.13167 0.29898 0.0
N757 N 0.40681 0.10785 0.31098 0.0
C758 C 0.41485 0.15349 0.28101 0.0
C759 C 0.36078 0.12628 0.28821 0.0
C760 C 0.37419 0.10504 0.30637 0.0
C761 C 0.38116 0.15046 0.27448 0.0
H762 H 0.4527 0.13252 0.30139 0.0
H763 H 0.35837 0.08504 0.31472 0.0
O764 O 0.45602 1.00869 0.3407 0.0
O765 O 0.41991 0.05883 0.37053 0.0
O766 O 0.47274 0.08018 0.32477 0.0
O767 O 0.40649 0.03222 0.29156 0.0
H768 H 0.4241 0.94819 0.31198 0.0
H769 H 0.51846 1.0151 0.33563 0.0
H770 H 0.44944 0.90565 0.28806 0.0
H771 H 0.54205 0.97136 0.31062 0.0
H772 H 0.31989 0.03556 0.40229 0.0
H773 H 0.43645 0.03851 0.42959 0.0
H774 H 0.35666 0.05432 0.36114 0.0
H775 H 0.39818 0.01991 0.46952 0.0
H776 H 0.54219 0.0236 0.44772 0.0
H777 H 0.51712 0.11395 0.48023 0.0
H778 H 0.32156 0.92216 0.29126 0.0
H779 H 0.38911 0.91385 0.37902 0.0
H780 H 0.47391 0.1374 0.36082 0.0
H781 H 0.53283 0.072 0.33216 0.0
H782 H 0.52353 0.17668 0.39333 0.0
H783 H 0.58128 0.11227 0.36553 0.0
H784 H 0.44553 0.06892 0.25668 0.0
H785 H 0.34658 1.01831 0.25734 0.0
H786 H 0.4273 0.08748 0.20218 0.0
H787 H 0.32998 0.03872 0.20347 0.0
H788 H 0.45414 0.949 0.20784 0.0
H789 H 0.53992 0.02846 0.23103 0.0
H790 H 0.43159 0.17179 0.2712 0.0
H791 H 0.33463 0.12256 0.28329 0.0
Li792 Li 0.28922 0.24088 0.57605 0.0
Li793 Li 0.31243 0.19973 0.54253 0.0
Li794 Li 0.28641 0.23687 0.50509 0.0
Li795 Li 0.25326 0.19404 0.53578 0.0
C796 C 0.34403 0.2792 0.55591 0.0
N797 N 0.38174 0.3419 0.57636 0.0
C798 C 0.37391 0.28505 0.57771 0.0
C799 C 0.3333 0.30521 0.5446 0.0
C800 C 0.39261 0.31695 0.58776 0.0
C801 C 0.35275 0.33673 0.55518 0.0
C802 C 0.30048 0.18385 0.60449 0.0
C803 C 0.30829 0.14214 0.63835 0.0
N804 N 0.33649 0.16225 0.65596 0.0
C805 C 0.3296 0.20404 0.62291 0.0
C806 C 0.28993 0.15246 0.61202 0.0
C807 C 0.34749 0.19264 0.64875 0.0
C808 C 0.27255 0.24905 0.64521 0.0
N809 N 0.29351 0.26437 0.62562 0.0
C810 C 0.32276 0.30112 0.67764 0.0
C811 C 0.318 0.29055 0.64132 0.0
C812 C 0.30207 0.28503 0.69852 0.0
C813 C 0.27625 0.25904 0.68142 0.0
H814 H 0.25354 0.22794 0.63296 0.0
H815 H 0.33481 0.30264 0.62612 0.0
C816 C 0.37856 0.19991 0.5454 0.0
N817 N 0.34939 0.18036 0.54769 0.0
C818 C 0.40743 0.19118 0.55591 0.0
C819 C 0.37595 0.14113 0.56884 0.0
C820 C 0.34754 0.15076 0.55774 0.0
C821 C 0.40654 0.16204 0.56923 0.0
H822 H 0.37951 0.22302 0.53674 0.0
H823 H 0.32409 0.13531 0.55891 0.0
C824 C 0.21981 0.23881 0.53058 0.0
N825 N 0.15341 0.2315 0.51692 0.0
C826 C 0.20461 0.2387 0.49693 0.0
C827 C 0.20131 0.23532 0.55732 0.0
C828 C 0.17099 0.23502 0.49056 0.0
C829 C 0.16773 0.23154 0.54985 0.0
C830 C 0.26033 0.16251 0.47596 0.0
C831 C 0.24254 0.16751 0.44567 0.0
C832 C 0.25662 0.13117 0.48403 0.0
C833 C 0.22114 0.14092 0.42391 0.0
C834 C 0.23491 0.10523 0.46164 0.0
N835 N 0.21778 0.11061 0.4323 0.0
C836 C 0.30997 0.24206 0.43773 0.0
C837 C 0.28257 0.28289 0.45061 0.0
C838 C 0.31593 0.2528 0.40591 0.0
N839 N 0.29338 0.25686 0.45978 0.0
C840 C 0.28817 0.29449 0.41897 0.0
C841 C 0.3049 0.27936 0.39553 0.0
H842 H 0.31867 0.22151 0.4447 0.0
H843 H 0.26937 0.29482 0.46772 0.0
C844 C 0.20697 0.14946 0.56485 0.0
N845 N 0.21065 0.16203 0.535 0.0
C846 C 0.17875 0.12616 0.56739 0.0
C847 C 0.15666 0.1307 0.50939 0.0
C848 C 0.18586 0.15314 0.5075 0.0
C849 C 0.15295 0.11648 0.5395 0.0
H850 H 0.2257 0.15806 0.58725 0.0
H851 H 0.18842 0.16375 0.4842 0.0
O852 O 0.32528 0.24821 0.54567 0.0
O853 O 0.2836 0.194 0.57777 0.0
O854 O 0.25265 0.24219 0.53722 0.0
O855 O 0.28098 0.18826 0.49787 0.0
H856 H 0.38247 0.26526 0.58705 0.0
H857 H 0.31014 0.30109 0.52792 0.0
H858 H 0.4157 0.32192 0.60472 0.0
H859 H 0.34476 0.3571 0.5466 0.0
H860 H 0.30038 0.11795 0.64441 0.0
H861 H 0.33871 0.2279 0.61659 0.0
H862 H 0.26832 0.13579 0.59715 0.0
H863 H 0.37034 0.2077 0.66277 0.0
H864 H 0.34293 0.32141 0.68937 0.0
H865 H 0.25971 0.2456 0.69613 0.0
H866 H 0.43032 0.20774 0.55469 0.0
H867 H 0.37392 0.11843 0.57875 0.0
H868 H 0.21864 0.24132 0.47596 0.0
H869 H 0.21273 0.23532 0.58349 0.0
H870 H 0.15887 0.23491 0.46466 0.0
H871 H 0.15306 0.22868 0.57022 0.0
H872 H 0.24505 0.19169 0.43918 0.0
H873 H 0.27016 0.127 0.50751 0.0
H874 H 0.20709 0.1444 0.40044 0.0
H875 H 0.23166 0.08084 0.46759 0.0
H876 H 0.32929 0.24027 0.38953 0.0
H877 H 0.279 0.31503 0.41272 0.0
H878 H 0.17662 0.11681 0.59154 0.0
H879 H 0.13718 0.12442 0.48739 0.0
Li880 Li 0.18344 0.12197 0.8178 0.0
Li881 Li 0.14033 0.08918 0.84871 0.0
Li882 Li 0.17715 0.06278 0.81147 0.0
Li883 Li 0.13622 0.08602 0.77753 0.0
C884 C 0.21455 0.11535 0.87778 0.0
N885 N 0.26616 0.15856 0.9212 0.0
C886 C 0.20934 0.1333 0.90787 0.0
C887 C 0.24595 0.11924 0.86978 0.0
C888 C 0.23579 0.15502 0.92952 0.0
C889 C 0.27174 0.14128 0.89205 0.0
C890 C 0.1386 0.15565 0.82305 0.0
C891 C 0.14579 0.20774 0.80387 0.0
N892 N 0.1458 0.22201 0.83682 0.0
C893 C 0.13866 0.17079 0.85671 0.0
C894 C 0.14208 0.17419 0.79635 0.0
C895 C 0.14229 0.20439 0.86314 0.0
C896 C 0.22896 0.16804 0.78893 0.0
N897 N 0.21561 0.16456 0.81839 0.0
C898 C 0.24577 0.21905 0.84364 0.0
C899 C 0.22364 0.18967 0.84554 0.0
C900 C 0.26062 0.22272 0.8139 0.0
C901 C 0.25198 0.19651 0.78642 0.0
H902 H 0.22119 0.14896 0.76677 0.0
H903 H 0.21252 0.18723 0.86855 0.0
C904 C 0.13525 0.06528 0.91581 0.0
N905 N 0.12056 0.08227 0.89418 0.0
C906 C 0.12474 0.05922 0.94771 0.0
C907 C 0.08351 0.08776 0.93562 0.0
C908 C 0.09488 0.09344 0.90388 0.0
C909 C 0.09855 0.0706 0.95863 0.0
H910 H 0.15552 0.05629 0.90841 0.0
H911 H 0.08303 0.10694 0.88711 0.0
C912 C 0.19415 0.07414 0.75017 0.0
N913 N 0.21717 0.03759 0.70041 0.0
C914 C 0.17394 0.04545 0.73086 0.0
C915 C 0.22626 0.08398 0.74445 0.0
C916 C 0.18604 0.0273 0.70587 0.0
C917 C 0.23732 0.06534 0.71897 0.0
C918 C 0.09758 0.03162 0.79793 0.0
C919 C 0.09156 1.00198 0.77564 0.0
C920 C 0.07167 0.04221 0.80972 0.0
C921 C 0.05961 0.98338 0.76563 0.0
C922 C 0.04009 0.02287 0.79914 0.0
N923 N 0.03477 0.99411 0.77751 0.0
C924 C 0.17573 0.99644 0.80839 0.0
C925 C 0.22629 0.02687 0.79867 0.0
C926 C 0.18424 0.96735 0.79842 0.0
N927 N 0.19609 0.02544 0.80701 0.0
C928 C 0.23584 0.99822 0.78841 0.0
C929 C 0.21415 0.96787 0.78695 0.0
H930 H 0.15219 0.9958 0.81588 0.0
H931 H 0.24238 0.05017 0.79825 0.0
C932 C 0.12798 0.10276 0.70826 0.0
N933 N 0.11274 0.08173 0.72784 0.0
C934 C 0.11791 0.09912 0.67205 0.0
C935 C 0.07602 0.05245 0.67577 0.0
C936 C 0.0866 0.05721 0.71209 0.0
C937 C 0.092 0.07324 0.65491 0.0
H938 H 0.14905 0.12181 0.72052 0.0
H939 H 0.07452 0.04037 0.72727 0.0
O940 O 0.18894 0.09445 0.85592 0.0
O941 O 0.13527 0.12284 0.81636 0.0
O942 O 0.1831 0.09134 0.7759 0.0
O943 O 0.12864 0.05024 0.80822 0.0
H944 H 0.18512 0.13067 0.91428 0.0
H945 H 0.25027 0.10561 0.84644 0.0
H946 H 0.23215 0.16918 0.95284 0.0
H947 H 0.29617 0.1447 0.88614 0.0
H948 H 0.14862 0.22244 0.78353 0.0
H949 H 0.13605 0.15674 0.87765 0.0
H950 H 0.14212 0.16281 0.77016 0.0
H951 H 0.14238 0.21646 0.88906 0.0
H952 H 0.25125 0.23878 0.86533 0.0
H953 H 0.26187 0.1985 0.76254 0.0
H954 H 0.13716 0.04551 0.96372 0.0
H955 H 0.06322 0.09717 0.94228 0.0
H956 H 0.14946 0.03692 0.73583 0.0
H957 H 0.24283 0.10527 0.76005 0.0
H958 H 0.17088 1.00482 0.6911 0.0
H959 H 0.26208 0.0727 0.7143 0.0
H960 H 0.11125 0.99356 0.76586 0.0
H961 H 0.07592 0.06518 0.82677 0.0
H962 H 0.05452 0.96048 0.74831 0.0
H963 H 1.01981 0.03076 0.80809 0.0
H964 H 0.167 0.94458 0.79852 0.0
H965 H 0.25914 0.99985 0.77985 0.0
H966 H 0.13123 0.11577 0.65737 0.0
H967 H 0.05577 0.03224 0.66402 0.0
Li968 Li 0.30383 0.94682 0.02394 0.0
Li969 Li 0.33354 0.90973 0.04328 0.0
Li970 Li 0.36217 0.95828 0.02129 0.0
Li971 Li 0.32511 0.91303 0.982 0.0
C972 C 0.32832 0.96878 0.09019 0.0
N973 N 0.29968 0.99455 0.14259 0.0
C974 C 0.30747 0.94824 0.10706 0.0
C975 C 0.3348 1.00241 0.10019 0.0
C976 C 0.29329 0.96176 0.13354 0.0
C977 C 0.31997 1.01496 0.12662 0.0
C978 C 0.27834 0.86518 1.00326 0.0
C979 C 0.28342 0.81161 0.98106 0.0
N980 N 0.25276 0.79877 0.98652 0.0
C981 C 0.24668 0.85142 1.00819 0.0
C982 C 0.29669 0.84508 0.98925 0.0
C983 C 0.23425 0.81782 0.99972 0.0
C984 C 0.24457 0.94539 0.04648 0.0
N985 N 0.26939 0.96578 0.0361 0.0
C986 C 0.25126 1.01187 0.05921 0.0
C987 C 0.27252 0.99845 0.041 0.0
C988 C 0.22668 0.99138 0.07236 0.0
C989 C 0.22274 0.95765 0.06446 0.0
H990 H 0.24315 0.91971 0.04309 0.0
H991 H 0.29296 1.01421 0.0332 0.0
C992 C 0.36458 0.9011 0.10502 0.0
N993 N 0.34244 0.88394 0.07733 0.0
C994 C 0.37912 0.88512 0.12863 0.0
C995 C 0.34646 0.83395 0.09612 0.0
C996 C 0.33258 0.85099 0.07301 0.0
C997 C 0.37042 0.85112 0.12392 0.0
H998 H 0.37227 0.92723 0.10777 0.0
H999 H 0.31461 0.83765 0.05148 0.0
C1000 C 0.33607 0.97601 0.95865 0.0
N1001 N 0.35564 1.0072 0.90482 0.0
C1002 C 0.35907 0.96636 0.94022 0.0
C1003 C 0.32308 1.0016 0.94976 0.0
C1004 C 0.36866 0.98241 0.91309 0.0
C1005 C 0.33329 1.01707 0.92246 0.0
C1006 C 0.39064 0.90147 0.02651 0.0
C1007 C 0.41322 0.92097 0.05426 0.0
C1008 C 0.3935 0.87006 0.01505 0.0
C1009 C 0.4384 0.90899 0.06965 0.0
C1010 C 0.41899 0.85894 0.03117 0.0
N1011 N 0.44074 0.87848 0.05788 0.0
C1012 C 0.4133 1.01645 0.04487 0.0
C1013 C 0.42375 0.97478 1.0053 0.0
C1014 C 0.44583 0.03365 0.0494 0.0
N1015 N 0.40318 0.9873 0.02355 0.0
C1016 C 0.45645 0.99056 0.00985 0.0
C1017 C 0.46778 0.02001 0.03254 0.0
H1018 H 0.3965 0.0258 0.05911 0.0
H1019 H 0.41516 0.95155 0.98856 0.0
C1020 C 0.29408 0.88322 0.91332 0.0
N1021 N 0.32166 0.88987 0.93694 0.0
C1022 C 0.29221 0.86423 0.88122 0.0
C1023 C 0.34695 0.85918 0.89877 0.0
C1024 C 0.34807 0.87897 0.92999 0.0
C1025 C 0.31876 0.85161 0.87411 0.0
H1026 H 0.27351 0.89226 0.91966 0.0
H1027 H 0.37 0.88544 0.94887 0.0
O1028 O 0.34132 0.95606 0.06316 0.0
O1029 O 0.29072 0.89817 0.01112 0.0
O1030 O 0.32585 0.96041 0.98501 0.0
O1031 O 0.36568 0.91284 0.01102 0.0
H1032 H 0.30176 0.92217 0.09932 0.0
H1033 H 0.35049 0.01868 0.08715 0.0
H1034 H 0.27698 0.9462 0.1467 0.0
H1035 H 0.32443 0.04095 0.13428 0.0
H1036 H 0.29761 0.79583 0.97061 0.0
H1037 H 0.23173 0.86638 0.01847 0.0
H1038 H 0.32135 0.855 0.98596 0.0
H1039 H 0.20988 0.8069 1.00365 0.0
H1040 H 0.25542 0.03803 0.06492 0.0
H1041 H 0.20391 0.94086 0.07353 0.0
H1042 H 0.39746 0.89917 0.14996 0.0
H1043 H 0.33846 0.8077 0.09243 0.0
H1044 H 0.3694 0.94669 0.94673 0.0
H1045 H 0.30521 1.00935 0.96376 0.0
H1046 H 0.38644 0.97516 0.89861 0.0
H1047 H 0.3234 0.03688 0.91526 0.0
H1048 H 0.411 0.94489 0.06446 0.0
H1049 H 0.37628 0.85425 0.99396 0.0
H1050 H 0.45592 0.92387 0.09116 0.0
H1051 H 0.42146 0.83473 0.02245 0.0
H1052 H 0.454 0.05669 0.06675 0.0
H1053 H 0.4727 0.97978 0.99589 0.0
H1054 H 0.27 0.8587 0.86261 0.0
H1055 H 0.36795 0.8502 0.89376 0.0
Li1056 Li 0.32447 0.4232 0.06669 0.0
Li1057 Li 0.34533 0.38167 0.09772 0.0
Li1058 Li 0.38252 0.42352 0.0675 0.0
Li1059 Li 0.34095 0.37755 0.02963 0.0
C1060 C 0.38407 0.44887 0.13204 0.0
N1061 N 0.43746 0.48562 0.17854 0.0
C1062 C 0.40258 0.43379 0.15348 0.0
C1063 C 0.39284 0.48262 0.13406 0.0
C1064 C 0.42943 0.4528 0.1769 0.0
C1065 C 0.4199 0.50077 0.15779 0.0
C1066 C 0.28164 0.35436 0.07137 0.0
C1067 C 0.25022 0.3002 0.0721 0.0
N1068 N 0.23399 0.31245 0.09608 0.0
C1069 C 0.26464 0.36646 0.09595 0.0
C1070 C 0.27443 0.321 0.05929 0.0
C1071 C 0.24065 0.34484 0.10817 0.0
C1072 C 0.27293 0.45035 0.04069 0.0
N1073 N 0.29596 0.45151 0.06835 0.0
C1074 C 0.28388 0.49857 0.0981 0.0
C1075 C 0.30123 0.47456 0.09701 0.0
C1076 C 0.26063 0.49866 0.06954 0.0
C1077 C 0.25467 0.47372 0.04086 0.0
H1078 H 0.26945 0.43188 0.01812 0.0
H1079 H 0.31957 0.47481 0.1187 0.0
C1080 C 0.33984 0.33145 0.14814 0.0
N1081 N 0.33731 0.36179 0.14265 0.0
C1082 C 0.33336 0.31995 0.17955 0.0
C1083 C 0.32162 0.37058 0.19989 0.0
C1084 C 0.32817 0.38108 0.16816 0.0
C1085 C 0.32415 0.33952 0.20644 0.0
H1086 H 0.34692 0.31586 0.12824 0.0
H1087 H 0.32585 0.40501 0.16399 0.0
C1088 C 0.36221 0.43109 0.99845 0.0
N1089 N 0.38404 0.43913 0.93625 0.0
C1090 C 0.38783 0.41807 0.98955 0.0
C1091 C 0.348 0.44859 0.97593 0.0
C1092 C 0.39849 0.42237 0.95797 0.0
C1093 C 0.35936 0.45234 0.94455 0.0
C1094 C 0.39004 0.34869 0.05554 0.0
C1095 C 0.41955 0.35213 0.04296 0.0
C1096 C 0.37159 0.31774 0.05728 0.0
C1097 C 0.43008 0.32439 0.03221 0.0
C1098 C 0.38296 0.2906 0.04627 0.0
N1099 N 0.41171 0.29446 0.03405 0.0
C1100 C 0.45336 0.45127 0.08203 0.0
C1101 C 0.42299 0.48237 0.05272 0.0
C1102 C 0.48242 0.47374 0.08034 0.0
N1103 N 0.42423 0.45564 0.06801 0.0
C1104 C 0.45153 0.50497 0.0496 0.0
C1105 C 0.48202 0.50102 0.06352 0.0
H1106 H 0.4541 0.43015 0.09428 0.0
H1107 H 0.39972 0.48599 0.04221 0.0
C1108 C 0.31262 0.36664 0.95652 0.0
N1109 N 0.33191 0.35445 0.97914 0.0
C1110 C 0.30989 0.35802 0.92019 0.0
C1111 C 0.34407 0.32162 0.93001 0.0
C1112 C 0.3472 0.33183 0.96623 0.0
C1113 C 0.32621 0.33556 0.90602 0.0
H1114 H 0.30041 0.3845 0.96663 0.0
H1115 H 0.36263 0.32214 0.98377 0.0
O1116 O 0.35835 0.43056 0.10815 0.0
O1117 O 0.30555 0.37506 0.05953 0.0
O1118 O 0.35009 0.42542 0.02827 0.0
O1119 O 0.37937 0.37553 0.06626 0.0
H1120 H 0.39652 0.40765 0.15179 0.0
H1121 H 0.37914 0.49463 0.1172 0.0
H1122 H 0.44398 0.44145 0.19364 0.0
H1123 H 0.42699 0.52689 0.15963 0.0
H1124 H 0.24436 0.27431 0.06302 0.0
H1125 H 0.27007 0.39224 0.10562 0.0
H1126 H 0.28746 0.31132 0.04028 0.0
H1127 H 0.22735 0.35382 0.12729 0.0
H1128 H 0.28895 0.51719 0.12083 0.0
H1129 H 0.2371 0.47311 0.01824 0.0
H1130 H 0.33586 0.29583 0.18278 0.0
H1131 H 0.31457 0.38687 0.21921 0.0
H1132 H 0.39897 0.40432 1.0066 0.0
H1133 H 0.32804 0.45867 0.98238 0.0
H1134 H 0.41811 0.41222 0.95063 0.0
H1135 H 0.34843 0.46559 0.9267 0.0
H1136 H 0.43419 0.37596 0.04162 0.0
H1137 H 0.34858 0.31472 0.06667 0.0
H1138 H 0.45289 0.32666 0.02249 0.0
H1139 H 0.3689 0.26647 0.04737 0.0
H1140 H 0.50513 0.4693 0.09164 0.0
H1141 H 0.44962 0.52497 0.03583 0.0
H1142 H 0.29524 0.36923 0.90334 0.0
H1143 H 0.35615 0.30335 0.92106 0.0
Li1144 Li 0.79016 0.1958 0.0965 0.0
Li1145 Li 0.81048 0.15771 0.05887 0.0
Li1146 Li 0.7732 0.1889 0.03353 0.0
Li1147 Li 0.75417 0.14724 0.06644 0.0
C1148 C 0.83931 0.23302 0.07734 0.0
N1149 N 0.88082 0.28839 0.11645 0.0
C1150 C 0.86731 0.23089 0.09851 0.0
C1151 C 0.83253 0.26331 0.0758 0.0
C1152 C 0.88799 0.25918 0.11811 0.0
C1153 C 0.85378 0.29103 0.09586 0.0
C1154 C 0.78509 0.13462 0.1294 0.0
C1155 C 0.78458 0.08822 0.15864 0.0
N1156 N 0.77171 0.10238 0.18456 0.0
C1157 C 0.77185 0.14871 0.15643 0.0
C1158 C 0.79172 0.1042 0.13072 0.0
C1159 C 0.76532 0.13203 0.18407 0.0
C1160 C 0.78133 0.24993 0.13925 0.0
N1161 N 0.799 0.22722 0.13669 0.0
C1162 C 0.8256 0.24539 0.19492 0.0
C1163 C 0.8214 0.22511 0.16334 0.0
C1164 C 0.80626 0.26778 0.19917 0.0
C1165 C 0.78447 0.27057 0.17062 0.0
H1166 H 0.76397 0.25122 0.11728 0.0
H1167 H 0.83518 0.20689 0.16032 0.0
C1168 C 0.86666 0.15938 0.03042 0.0
N1169 N 0.84582 0.14078 0.04741 0.0
C1170 C 0.89033 0.1471 0.01578 0.0
C1171 C 0.87072 0.09664 0.0365 0.0
C1172 C 0.84779 0.11015 0.05127 0.0
C1173 C 0.89207 0.11498 0.0179 0.0
H1174 H 0.86407 0.18339 0.02713 0.0
H1175 H 0.83062 0.09562 0.06432 0.0
C1176 C 0.716 0.19 0.07343 0.0
N1177 N 0.65144 0.18567 0.07888 0.0
C1178 C 0.69271 0.18428 0.04353 0.0
C1179 C 0.70642 0.19369 0.10612 0.0
C1180 C 0.66023 0.18219 0.04685 0.0
C1181 C 0.67367 0.19136 0.10832 0.0
C1182 C 0.77008 0.10988 0.01055 0.0
C1183 C 0.77251 0.10007 0.97602 0.0
C1184 C 0.76591 0.08688 0.03288 0.0
C1185 C 0.7706 0.06736 0.96425 0.0
C1186 C 0.76417 0.05443 0.02023 0.0
N1187 N 0.76652 0.04541 0.98643 0.0
C1188 C 0.75654 0.19572 0.96318 0.0
C1189 C 0.74822 0.23544 1.00684 0.0
C1190 C 0.74119 0.20916 0.93727 0.0
N1191 N 0.75948 0.209 0.99708 0.0
C1192 C 0.73223 0.24918 0.98199 0.0
C1193 C 0.72834 0.23574 0.94694 0.0
H1194 H 0.76524 0.17426 0.95643 0.0
H1195 H 0.75051 0.24497 0.0341 0.0
C1196 C 0.69864 0.11581 0.09369 0.0
N1197 N 0.71329 0.11836 0.06514 0.0
C1198 C 0.66507 0.10395 0.08984 0.0
C1199 C 0.66286 0.09533 0.02757 0.0
C1200 C 0.69618 0.10804 0.03254 0.0
C1201 C 0.64678 0.094 0.05636 0.0
H1202 H 0.71232 0.12559 0.11921 0.0
H1203 H 0.70785 0.11206 0.01019 0.0
O1204 O 0.81813 0.20547 0.05904 0.0
O1205 O 0.79318 0.15107 0.10276 0.0
O1206 O 0.74795 0.19189 0.07071 0.0
O1207 O 0.7711 0.14177 0.02201 0.0
H1208 H 0.87278 0.20757 0.10009 0.0
H1209 H 0.8109 0.26534 0.05961 0.0
H1210 H 0.90967 0.25789 0.13474 0.0
H1211 H 0.84876 0.31462 0.09512 0.0
H1212 H 0.7895 0.06463 0.15982 0.0
H1213 H 0.76637 0.1721 0.15602 0.0
H1214 H 0.80243 0.09302 0.11052 0.0
H1215 H 0.75525 0.14261 0.2052 0.0
H1216 H 0.84326 0.24286 0.21598 0.0
H1217 H 0.76935 0.28768 0.17278 0.0
H1218 H 0.9066 0.16242 1.00232 0.0
H1219 H 0.87071 0.07164 0.03841 0.0
H1220 H 0.69951 0.18096 0.018 0.0
H1221 H 0.72399 0.19783 0.12956 0.0
H1222 H 0.64201 0.17772 0.02395 0.0
H1223 H 0.6659 0.19397 0.13343 0.0
H1224 H 0.77577 0.11774 0.95865 0.0
H1225 H 0.7639 0.09387 0.05965 0.0
H1226 H 0.77227 0.05934 0.93749 0.0
H1227 H 0.76089 0.03643 0.03728 0.0
H1228 H 0.73858 0.19853 0.91023 0.0
H1229 H 0.72282 0.26996 0.99 0.0
H1230 H 0.65352 0.10374 0.11279 0.0
H1231 H 0.6498 0.088 1.00135 0.0
Li1232 Li 0.22425 0.62441 0.29255 0.0
Li1233 Li 0.1784 0.60649 0.32139 0.0
Li1234 Li 0.21325 0.56954 0.3021 0.0
Li1235 Li 0.17657 0.58689 0.25923 0.0
C1236 C 0.25314 0.60855 0.35811 0.0
N1237 N 0.31008 0.60649 0.3988 0.0
C1238 C 0.253 0.60263 0.39217 0.0
C1239 C 0.28231 0.61357 0.34479 0.0
C1240 C 0.28201 0.60169 0.41236 0.0
C1241 C 0.31081 0.61235 0.3657 0.0
C1242 C 0.18215 0.65998 0.2725 0.0
C1243 C 0.18513 0.69415 0.2281 0.0
N1244 N 0.1895 0.72063 0.25288 0.0
C1245 C 0.18624 0.68751 0.29748 0.0
C1246 C 0.18142 0.66331 0.2375 0.0
C1247 C 0.19011 0.71796 0.28701 0.0
C1248 C 0.25964 0.67929 0.26703 0.0
N1249 N 0.2543 0.66504 0.29539 0.0
C1250 C 0.27797 0.71532 0.33324 0.0
C1251 C 0.26327 0.68233 0.32805 0.0
C1252 C 0.28242 0.73101 0.30447 0.0
C1253 C 0.27318 0.71261 0.271 0.0
H1254 H 0.25088 0.66555 0.2413 0.0
H1255 H 0.25706 0.67113 0.35012 0.0
C1256 C 0.16039 0.62608 0.38669 0.0
N1257 N 0.1527 0.62108 0.35156 0.0
C1258 C 0.14081 0.63967 0.40698 0.0
C1259 C 0.10658 0.64322 0.35432 0.0
C1260 C 0.12659 0.62938 0.33519 0.0
C1261 C 0.11356 0.64843 0.39063 0.0
H1262 H 0.18185 0.61998 0.39883 0.0
H1263 H 0.12155 0.62549 0.30712 0.0
C1264 C 0.2422 0.59583 0.23436 0.0
N1265 N 0.28126 0.61528 0.18616 0.0
C1266 C 0.22865 0.60282 0.20277 0.0
C1267 C 0.27569 0.59865 0.24123 0.0
C1268 C 0.24878 0.61254 0.17876 0.0
C1269 C 0.29502 0.60872 0.21668 0.0
C1270 C 0.13866 0.53709 0.28095 0.0
C1271 C 0.14301 0.50873 0.26239 0.0
C1272 C 0.10727 0.54099 0.28244 0.0
C1273 C 0.11576 0.48472 0.2454 0.0
C1274 C 0.08066 0.51644 0.26506 0.0
N1275 N 0.08542 0.48905 0.24705 0.0
C1276 C 0.21301 0.51352 0.3323 0.0
C1277 C 0.26157 0.53357 0.31074 0.0
C1278 C 0.2258 0.4894 0.34545 0.0
N1279 N 0.23101 0.53507 0.31554 0.0
C1280 C 0.27552 0.5101 0.32383 0.0
C1281 C 0.25773 0.48774 0.34182 0.0
H1282 H 0.18887 0.51549 0.33596 0.0
H1283 H 0.27551 0.55117 0.29765 0.0
C1284 C 0.12233 0.59242 0.21409 0.0
N1285 N 0.14567 0.57556 0.21798 0.0
C1286 C 0.102 0.58806 0.18224 0.0
C1287 C 0.12828 0.54693 0.16036 0.0
C1288 C 0.1482 0.55229 0.19242 0.0
C1289 C 0.10565 0.56583 0.15457 0.0
H1290 H 0.12048 0.61033 0.23527 0.0
H1291 H 0.16669 0.53896 0.19651 0.0
O1292 O 0.22488 0.6097 0.33811 0.0
O1293 O 0.17936 0.63002 0.28231 0.0
O1294 O 0.22269 0.58482 0.25763 0.0
O1295 O 0.16503 0.56094 0.29756 0.0
H1296 H 0.23069 0.59895 0.40281 0.0
H1297 H 0.28295 0.61854 0.31866 0.0
H1298 H 0.28227 0.59724 0.43882 0.0
H1299 H 0.33352 0.61616 0.35564 0.0
H1300 H 0.18478 0.69706 0.20114 0.0
H1301 H 0.18696 0.68544 0.32471 0.0
H1302 H 0.17848 0.64242 0.21777 0.0
H1303 H 0.19377 0.7395 0.30598 0.0
H1304 H 0.28426 0.72861 0.3595 0.0
H1305 H 0.27498 0.72393 0.24804 0.0
H1306 H 0.14708 0.64366 0.43501 0.0
H1307 H 0.08559 0.64929 0.34086 0.0
H1308 H 0.20292 0.60075 0.19667 0.0
H1309 H 0.28676 0.59288 0.26506 0.0
H1310 H 0.23859 0.61776 0.15415 0.0
H1311 H 0.32096 0.61108 0.22179 0.0
H1312 H 0.16718 0.5054 0.26097 0.0
H1313 H 0.1035 0.56274 0.29683 0.0
H1314 H 0.11874 0.46266 0.23086 0.0
H1315 H 0.05622 0.51912 0.26596 0.0
H1316 H 0.21087 0.47243 0.35854 0.0
H1317 H 0.30034 0.51022 0.32082 0.0
H1318 H 0.08471 0.60287 0.17893 0.0
H1319 H 0.13155 0.52904 0.13993 0.0
Li1320 Li 0.82359 0.9223 0.56647 0.0
Li1321 Li 0.84508 0.88062 0.59711 0.0
Li1322 Li 0.88204 0.9233 0.56711 0.0
Li1323 Li 0.84079 0.87714 0.52907 0.0
C1324 C 0.88329 0.94803 0.63186 0.0
N1325 N 0.93653 0.98494 0.67845 0.0
C1326 C 0.90179 0.93303 0.65342 0.0
C1327 C 0.89198 0.98177 0.63382 0.0
C1328 C 0.92857 0.95213 0.67687 0.0
C1329 C 0.91896 1.00001 0.6576 0.0
C1330 C 0.7813 0.85312 0.57043 0.0
C1331 C 0.7503 0.79876 0.57109 0.0
N1332 N 0.7333 0.81087 0.59433 0.0
C1333 C 0.76354 0.86506 0.59428 0.0
C1334 C 0.7747 0.81974 0.5587 0.0
C1335 C 0.73937 0.84328 0.60608 0.0
C1336 C 0.77093 0.94883 0.54128 0.0
N1337 N 0.79452 0.95028 0.56851 0.0
C1338 C 0.78237 0.99715 0.59864 0.0
C1339 C 0.79999 0.97335 0.59718 0.0
C1340 C 0.75861 0.99703 0.57046 0.0
C1341 C 0.75237 0.97199 0.54183 0.0
H1342 H 0.76723 0.93033 0.51869 0.0
H1343 H 0.81873 0.97385 0.61856 0.0
C1344 C 0.84022 0.82967 0.64692 0.0
N1345 N 0.83706 0.8599 0.64167 0.0
C1346 C 0.83366 0.81762 0.67806 0.0
C1347 C 0.82054 0.86748 0.69862 0.0
C1348 C 0.82718 0.87853 0.66716 0.0
C1349 C 0.82371 0.83653 0.70494 0.0
H1350 H 0.8479 0.81459 0.62704 0.0
H1351 H 0.82438 0.90236 0.6632 0.0
C1352 C 0.86099 0.93158 0.49831 0.0
N1353 N 0.88213 0.94156 0.43618 0.0
C1354 C 0.88659 0.91901 0.48852 0.0
C1355 C 0.84644 0.94961 0.47672 0.0
C1356 C 0.89689 0.92426 0.45698 0.0
C1357 C 0.85747 0.95435 0.44538 0.0
C1358 C 0.8907 0.8491 0.55425 0.0
C1359 C 0.91987 0.85362 0.54093 0.0
C1360 C 0.87327 0.81773 0.556 0.0
C1361 C 0.93105 0.82652 0.52935 0.0
C1362 C 0.88529 0.79126 0.54417 0.0
N1363 N 0.91366 0.79617 0.53115 0.0
C1364 C 0.95299 0.95145 0.58096 0.0
C1365 C 0.92225 0.98264 0.55237 0.0
C1366 C 0.98196 0.97397 0.57895 0.0
N1367 N 0.92371 0.95582 0.56745 0.0
C1368 C 0.95069 1.00532 0.54898 0.0
C1369 C 0.98133 1.00136 0.56237 0.0
H1370 H 0.95396 0.93026 0.59301 0.0
H1371 H 0.89889 0.98628 0.54222 0.0
C1372 C 0.81305 0.86644 0.45573 0.0
N1373 N 0.83206 0.85414 0.47852 0.0
C1374 C 0.81046 0.85769 0.41943 0.0
C1375 C 0.84412 0.82089 0.42964 0.0
C1376 C 0.84713 0.83124 0.46581 0.0
C1377 C 0.82659 0.83495 0.4055 0.0
H1378 H 0.80091 0.88442 0.46566 0.0
H1379 H 0.86226 0.82137 0.48347 0.0
O1380 O 0.85767 0.92963 0.60791 0.0
O1381 O 0.80531 0.87399 0.55893 0.0
O1382 O 0.8493 0.92508 0.52813 0.0
O1383 O 0.87932 0.8753 0.56566 0.0
H1384 H 0.89579 0.9069 0.65179 0.0
H1385 H 0.87827 0.99371 0.61687 0.0
H1386 H 0.94313 0.94085 0.69369 0.0
H1387 H 0.92599 0.02613 0.6594 0.0
H1388 H 0.7449 0.77286 0.56225 0.0
H1389 H 0.7685 0.89086 0.60369 0.0
H1390 H 0.78833 0.81017 0.54026 0.0
H1391 H 0.72545 0.85215 0.6246 0.0
H1392 H 0.7877 1.01586 0.62131 0.0
H1393 H 0.73443 0.97122 0.51948 0.0
H1394 H 0.83673 0.79366 0.68114 0.0
H1395 H 0.81295 0.8833 0.71794 0.0
H1396 H 0.89798 0.90487 0.50485 0.0
H1397 H 0.82651 0.95937 0.48389 0.0
H1398 H 0.91647 0.91444 0.44893 0.0
H1399 H 0.84629 0.96804 0.42825 0.0
H1400 H 0.93375 0.87778 0.53961 0.0
H1401 H 0.85051 0.81388 0.56595 0.0
H1402 H 0.9536 0.82963 0.519 0.0
H1403 H 0.87201 0.76682 0.54523 0.0
H1404 H 1.00478 0.96949 0.58986 0.0
H1405 H 0.94855 0.0254 0.53542 0.0
H1406 H 0.79604 0.86897 0.40243 0.0
H1407 H 0.85601 0.80239 0.42085 0.0
Li1408 Li 0.99789 0.03483 0.32371 0.0
Li1409 Li 0.9514 0.99366 0.28588 0.0
Li1410 Li 0.99394 0.03021 0.25558 0.0
Li1411 Li 0.95273 0.05228 0.28636 0.0
C1412 C 0.02482 0.9838 0.29857 0.0
N1413 N 0.07636 0.95864 0.32125 0.0
C1414 C 1.01926 0.95479 0.31217 0.0
C1415 C 0.05654 0.99996 0.29639 0.0
C1416 C 0.04566 0.94248 0.32353 0.0
C1417 C 0.08229 0.98685 0.308 0.0
C1418 C 0.94302 1.01555 0.35471 0.0
C1419 C 0.9196 0.02016 0.40717 0.0
N1420 N 0.93204 0.99555 0.41711 0.0
C1421 C 0.95523 0.99002 0.36525 0.0
C1422 C 0.92485 0.03062 0.37567 0.0
C1423 C 0.94948 0.98031 0.39693 0.0
C1424 C 1.00866 0.0626 0.39716 0.0
N1425 N 1.02092 0.04356 0.37433 0.0
C1426 C 0.0543 0.03163 0.42319 0.0
C1427 C 0.04386 0.02854 0.38701 0.0
C1428 C 0.04026 0.04916 0.44739 0.0
C1429 C 1.01747 0.06524 0.43347 0.0
H1430 H 0.99068 0.07475 0.38727 0.0
H1431 H 0.05374 1.01342 0.36932 0.0
C1432 C 0.92322 0.92287 0.27169 0.0
N1433 N 0.91893 0.95204 0.28567 0.0
C1434 C 0.90079 0.89382 0.2736 0.0
C1435 C 0.86967 0.9248 0.3044 0.0
C1436 C 0.89226 0.95332 0.3011 0.0
C1437 C 0.87358 0.89426 0.29056 0.0
H1438 H 0.94427 0.92205 0.25932 0.0
H1439 H 0.88865 0.9766 0.31158 0.0
C1440 C 1.0229 0.09278 0.28122 0.0
N1441 N 0.06689 0.13703 0.25464 0.0
C1442 C 1.01191 0.11027 0.25653 0.0
C1443 C 0.05622 0.09777 0.29246 0.0
C1444 C 0.03455 0.13251 0.24336 0.0
C1445 C 0.07808 0.1203 0.27872 0.0
C1446 C 0.9261 0.99235 0.2214 0.0
C1447 C 0.94062 0.9734 0.19974 0.0
C1448 C 0.89238 0.98411 0.21986 0.0
C1449 C 0.92108 0.94664 0.17659 0.0
C1450 C 0.87369 0.95712 0.1964 0.0
N1451 N 0.8883 0.93912 0.17543 0.0
C1452 C 0.04501 0.03558 0.20592 0.0
C1453 C 0.99526 0.04634 0.18464 0.0
C1454 C 0.05698 0.04187 0.17468 0.0
N1455 N 1.01437 0.03771 0.21071 0.0
C1456 C 1.00624 0.05272 0.15306 0.0
C1457 C 0.03761 0.05055 0.14722 0.0
H1458 H 0.06051 0.02902 0.2263 0.0
H1459 H 0.97112 0.04842 0.18825 0.0
C1460 C 0.9272 0.10547 0.31194 0.0
N1461 N 0.92509 0.0817 0.28465 0.0
C1462 C 0.90436 0.12438 0.31183 0.0
C1463 C 0.87817 0.09441 0.25532 0.0
C1464 C 0.90166 0.07641 0.25633 0.0
C1465 C 0.87896 0.11835 0.2836 0.0
H1466 H 0.94597 0.10902 0.33424 0.0
H1467 H 0.90064 0.05752 0.2349 0.0
O1468 O 0.9993 0.99613 0.28715 0.0
O1469 O 0.94996 0.02665 0.32472 0.0
O1470 O 1.00116 0.0703 0.2937 0.0
O1471 O 0.94494 1.01796 0.24506 0.0
H1472 H 0.99482 0.94186 0.31382 0.0
H1473 H 0.06122 0.02257 0.2862 0.0
H1474 H 0.04173 0.92005 0.3341 0.0
H1475 H 0.10699 0.99914 0.30657 0.0
H1476 H 0.90578 0.03173 0.42382 0.0
H1477 H 0.96946 0.97824 0.3494 0.0
H1478 H 0.91535 0.0505 0.36792 0.0
H1479 H 0.95902 0.96078 0.40557 0.0
H1480 H 0.07289 0.01983 0.43195 0.0
H1481 H 1.00621 0.07968 0.45048 0.0
H1482 H 0.90521 0.8711 0.26233 0.0
H1483 H 0.84973 0.92677 0.31825 0.0
H1484 H 0.98616 0.10648 0.24744 0.0
H1485 H 0.06506 0.0843 0.31149 0.0
H1486 H 0.02643 0.14613 0.22412 0.0
H1487 H 0.10395 0.12444 0.28714 0.0
H1488 H 0.96673 0.97905 0.20106 0.0
H1489 H 0.8808 0.99815 0.2369 0.0
H1490 H 0.93198 0.93175 0.15969 0.0
H1491 H 0.84758 0.95042 0.19494 0.0
H1492 H 0.08132 0.0397 0.17204 0.0
H1493 H 0.99006 0.05937 0.13331 0.0
H1494 H 0.90565 0.14244 0.33425 0.0
H1495 H 0.85914 0.08921 0.23295 0.0
Li1496 Li 0.27503 0.67835 0.59005 0.0
Li1497 Li 0.29213 0.63887 0.54848 0.0
Li1498 Li 0.25303 0.67233 0.528 0.0
Li1499 Li 0.2372 0.62947 0.56193 0.0
C1500 C 0.32178 0.71486 0.56534 0.0
N1501 N 0.36657 0.77091 0.59827 0.0
C1502 C 0.35106 0.71302 0.58426 0.0
C1503 C 0.31532 0.74516 0.56296 0.0
C1504 C 0.37334 0.74165 0.60085 0.0
C1505 C 0.33833 0.77324 0.57975 0.0
C1506 C 0.26787 0.61093 0.61445 0.0
C1507 C 0.25238 0.55516 0.62305 0.0
N1508 N 0.24746 0.56529 0.6557 0.0
C1509 C 0.26244 0.6208 0.64796 0.0
C1510 C 0.26263 0.57787 0.60174 0.0
C1511 C 0.25212 0.59734 0.66844 0.0
C1512 C 0.27043 0.73248 0.63512 0.0
N1513 N 0.28813 0.70999 0.6309 0.0
C1514 C 0.32046 0.73122 0.68658 0.0
C1515 C 0.31318 0.70929 0.65551 0.0
C1516 C 0.30114 0.75335 0.69263 0.0
C1517 C 0.27628 0.75425 0.6661 0.0
H1518 H 0.25113 0.7329 0.61475 0.0
H1519 H 0.32695 0.69122 0.65132 0.0
C1520 C 0.34557 0.64176 0.51509 0.0
N1521 N 0.32754 0.62327 0.53464 0.0
C1522 C 0.37113 0.63191 0.50183 0.0
C1523 C 0.35899 0.58384 0.52872 0.0
C1524 C 0.33409 0.59507 0.5422 0.0
C1525 C 0.37787 0.60223 0.50795 0.0
H1526 H 0.33988 0.66415 0.50956 0.0
H1527 H 0.31943 0.58084 0.55789 0.0
C1528 C 0.1985 0.67537 0.56284 0.0
N1529 N 0.13357 0.67612 0.55202 0.0
C1530 C 0.17936 0.66263 0.53045 0.0
C1531 C 0.18453 0.68846 0.58982 0.0
C1532 C 0.14672 0.66352 0.52537 0.0
C1533 C 0.15162 0.68836 0.58391 0.0
C1534 C 0.23644 0.59764 0.49228 0.0
C1535 C 0.20874 0.59597 0.46831 0.0
C1536 C 0.24922 0.57034 0.49287 0.0
C1537 C 0.19387 0.56681 0.44606 0.0
C1538 C 0.23395 0.54179 0.46979 0.0
N1539 N 0.20676 0.5406 0.44715 0.0
C1540 C 0.24083 0.68133 0.45835 0.0
C1541 C 0.2286 0.72017 0.50008 0.0
C1542 C 0.2289 0.69579 0.4313 0.0
N1543 N 0.24015 0.69358 0.49181 0.0
C1544 C 0.21624 0.73519 0.47393 0.0
C1545 C 0.21622 0.72278 0.43926 0.0
H1546 H 0.25018 0.66009 0.45272 0.0
H1547 H 0.22843 0.72925 0.52699 0.0
C1548 C 0.18101 0.61112 0.59171 0.0
N1549 N 0.19786 0.59934 0.56804 0.0
C1550 C 0.14702 0.60226 0.5857 0.0
C1551 C 0.14905 0.56445 0.53541 0.0
C1552 C 0.18284 0.57394 0.54255 0.0
C1553 C 0.13095 0.58013 0.55597 0.0
H1554 H 0.19361 0.63066 0.61246 0.0
H1555 H 0.19656 0.56315 0.52551 0.0
O1556 O 0.29922 0.68706 0.54995 0.0
O1557 O 0.27906 0.6336 0.59454 0.0
O1558 O 0.23053 0.67442 0.56845 0.0
O1559 O 0.25091 0.62569 0.51502 0.0
H1560 H 0.35628 0.68969 0.5865 0.0
H1561 H 0.29271 0.74694 0.5485 0.0
H1562 H 0.39596 0.74058 0.61587 0.0
H1563 H 0.33369 0.79687 0.57813 0.0
H1564 H 0.24827 0.52948 0.61361 0.0
H1565 H 0.26647 0.64633 0.65807 0.0
H1566 H 0.26638 0.56985 0.57571 0.0
H1567 H 0.24792 0.60459 0.6945 0.0
H1568 H 0.34003 0.72987 0.70628 0.0
H1569 H 0.26067 0.77071 0.66965 0.0
H1570 H 0.38537 0.6475 0.48687 0.0
H1571 H 0.36274 0.56061 0.53388 0.0
H1572 H 0.18959 0.65215 0.50948 0.0
H1573 H 0.19872 0.69783 0.61533 0.0
H1574 H 0.13184 0.65396 0.50029 0.0
H1575 H 0.14039 0.69777 0.60476 0.0
H1576 H 0.19871 0.61683 0.46677 0.0
H1577 H 0.27045 0.57101 0.51119 0.0
H1578 H 0.17233 0.56516 0.42761 0.0
H1579 H 0.24361 0.52052 0.47005 0.0
H1580 H 0.22914 0.68586 0.40461 0.0
H1581 H 0.20666 0.75615 0.48061 0.0
H1582 H 0.13363 0.61485 0.60201 0.0
H1583 H 0.13727 0.54706 0.51236 0.0
Li1584 Li 0.44916 0.49642 0.78807 0.0
Li1585 Li 0.4973 0.5347 0.82614 0.0
Li1586 Li 0.4537 0.55635 0.7944 0.0
Li1587 Li 0.49151 0.53313 0.75778 0.0
C1588 C 0.4431 0.51693 0.85928 0.0
N1589 N 0.43185 0.49809 0.92212 0.0
C1590 C 0.45373 0.49049 0.86965 0.0
C1591 C 0.4263 0.53346 0.88062 0.0
C1592 C 0.44791 0.48141 0.90157 0.0
C1593 C 0.42088 0.52358 0.91233 0.0
C1594 C 0.52049 0.48289 0.79853 0.0
C1595 C 0.57715 0.48241 0.80845 0.0
N1596 N 0.56937 0.45462 0.8222 0.0
C1597 C 0.51301 0.45421 0.81253 0.0
C1598 C 0.55278 0.4971 0.79636 0.0
C1599 C 0.53809 0.44035 0.82446 0.0
C1600 C 0.4199 0.42616 0.77081 0.0
N1601 N 0.41614 0.45492 0.78669 0.0
C1602 C 0.36796 0.42656 0.8065 0.0
C1603 C 0.39025 0.45549 0.80366 0.0
C1604 C 0.37157 0.39642 0.79096 0.0
C1605 C 0.39788 0.39678 0.77244 0.0
H1606 H 0.44039 0.42591 0.75733 0.0
H1607 H 0.38717 0.47846 0.81584 0.0
C1608 C 0.51026 0.56215 0.89893 0.0
N1609 N 0.52127 0.54207 0.87596 0.0
C1610 C 0.51928 0.56476 0.93514 0.0
C1611 C 0.55413 0.52908 0.92446 0.0
C1612 C 0.54336 0.52598 0.88835 0.0
C1613 C 0.54115 0.54764 0.9488 0.0
H1614 H 0.49302 0.57518 0.8892 0.0
H1615 H 0.55227 0.51008 0.8705 0.0
C1616 C 0.41891 0.50181 0.72761 0.0
N1617 N 0.37183 0.45437 0.68295 0.0
C1618 C 0.42784 0.48054 0.70279 0.0
C1619 C 0.38609 0.49885 0.72992 0.0
C1620 C 0.40366 0.45672 0.68042 0.0
C1621 C 0.36264 0.47478 0.707 0.0
C1622 C 0.51421 0.59914 0.78491 0.0
C1623 C 0.49496 0.60812 0.75825 0.0
C1624 C 0.54574 0.61793 0.79736 0.0
C1625 C 0.50762 0.6359 0.74445 0.0
C1626 C 0.55756 0.64549 0.78279 0.0
N1627 N 0.53839 0.65384 0.75689 0.0
C1628 C 0.4404 0.60824 0.8342 0.0
C1629 C 0.40344 0.59121 0.78135 0.0
C1630 C 0.42218 0.6292 0.84647 0.0
N1631 N 0.43032 0.5891 0.80265 0.0
C1632 C 0.3845 0.61218 0.79256 0.0
C1633 C 0.39328 0.63063 0.82603 0.0
H1634 H 0.46179 0.60595 0.8506 0.0
H1635 H 0.39587 0.57562 0.7564 0.0
C1636 C 0.54202 0.5401 0.70812 0.0
N1637 N 0.51083 0.54051 0.71228 0.0
C1638 C 0.55384 0.54615 0.67675 0.0
C1639 C 0.50181 0.5533 0.65369 0.0
C1640 C 0.49098 0.54719 0.68543 0.0
C1641 C 0.53376 0.55286 0.64851 0.0
H1642 H 0.55811 0.53518 0.72914 0.0
H1643 H 0.4664 0.54797 0.68853 0.0
O1644 O 0.45043 0.52751 0.82916 0.0
O1645 O 0.49632 0.49691 0.78682 0.0
O1646 O 0.44225 0.52468 0.75034 0.0
O1647 O 0.50259 0.5716 0.79819 0.0
H1648 H 0.46689 0.47758 0.85352 0.0
H1649 H 0.41795 0.554 0.873 0.0
H1650 H 0.45631 0.46123 0.9101 0.0
H1651 H 0.40813 0.53629 0.92926 0.0
H1652 H 0.60227 0.49318 0.80703 0.0
H1653 H 0.48811 0.4427 0.8141 0.0
H1654 H 0.55896 0.51942 0.78585 0.0
H1655 H 0.53268 0.41822 0.83549 0.0
H1656 H 0.34857 0.42786 0.82141 0.0
H1657 H 0.40196 0.37437 0.75981 0.0
H1658 H 0.50892 0.58004 0.95228 0.0
H1659 H 0.57207 0.51649 0.93304 0.0
H1660 H 0.45319 0.48224 0.70104 0.0
H1661 H 0.37883 0.51481 0.74937 0.0
H1662 H 0.4102 0.44005 0.6611 0.0
H1663 H 0.33714 0.47232 0.70836 0.0
H1664 H 0.47058 0.59366 0.74814 0.0
H1665 H 0.56098 0.61118 0.8179 0.0
H1666 H 0.49301 0.64313 0.72377 0.0
H1667 H 0.58194 0.66025 0.7921 0.0
H1668 H 0.42987 0.64318 0.87234 0.0
H1669 H 0.36228 0.6125 0.77616 0.0
H1670 H 0.57866 0.54539 0.67468 0.0
H1671 H 0.48508 0.55841 0.63332 0.0
Li1672 Li 0.68778 0.10758 0.82214 0.0
Li1673 Li 0.73104 0.12588 0.79142 0.0
Li1674 Li 0.68258 0.08975 0.75941 0.0
Li1675 Li 0.71939 0.06949 0.79878 0.0
C1676 C 0.68812 0.1635 0.77957 0.0
N1677 N 0.69189 0.22697 0.76986 0.0
C1678 C 0.69284 0.188 0.80816 0.0
C1679 C 0.68503 0.17127 0.74601 0.0
C1680 C 0.69469 0.2199 0.80267 0.0
C1681 C 0.68708 0.20351 0.74166 0.0
C1682 C 0.76627 0.10913 0.84799 0.0
C1683 C 0.82188 0.11407 0.83912 0.0
N1684 N 0.83015 0.11055 0.87268 0.0
C1685 C 0.77529 0.10543 0.8823 0.0
C1686 C 0.78976 0.11337 0.82619 0.0
C1687 C 0.80773 0.10629 0.89435 0.0
C1688 C 0.67785 0.12946 0.89048 0.0
N1689 N 0.66563 0.12261 0.85603 0.0
C1690 C 0.62134 0.14611 0.86497 0.0
C1691 C 0.63805 0.13055 0.843 0.0
C1692 C 0.63315 0.15348 0.90067 0.0
C1693 C 0.66164 0.1448 0.91359 0.0
H1694 H 0.70042 0.12363 0.89981 0.0
H1695 H 0.62956 0.12549 0.81531 0.0
C1696 C 0.76369 0.18205 0.76607 0.0
N1697 N 0.76039 0.16701 0.79425 0.0
C1698 C 0.77611 0.21558 0.77053 0.0
C1699 C 0.78403 0.21695 0.8327 0.0
C1700 C 0.77043 0.18371 0.8271 0.0
C1701 C 0.78626 0.2334 0.80422 0.0
H1702 H 0.75406 0.1687 0.74033 0.0
H1703 H 0.76573 0.17181 0.84916 0.0
C1704 C 0.64463 0.04025 0.77848 0.0
N1705 N 0.59068 0.99659 0.73923 0.0
C1706 C 0.6482 1.01293 0.75725 0.0
C1707 C 0.61361 0.04521 0.78006 0.0
C1708 C 0.62062 0.99116 0.73755 0.0
C1709 C 0.58664 0.02289 0.75993 0.0
C1710 C 0.74499 0.09533 0.7291 0.0
C1711 C 0.73124 0.10835 0.7017 0.0
C1712 C 0.77585 0.08948 0.72881 0.0
C1713 C 0.7487 0.11552 0.67477 0.0
C1714 C 0.7926 0.0972 0.70156 0.0
N1715 N 0.77876 0.10989 0.67528 0.0
C1716 C 0.6282 0.09758 0.71625 0.0
C1717 C 0.65371 0.05804 0.6923 0.0
C1718 C 0.60714 0.09374 0.68502 0.0
N1719 N 0.65146 0.08053 0.7188 0.0
C1720 C 0.63291 0.05304 0.66092 0.0
C1721 C 0.60994 0.07177 0.65663 0.0
H1722 H 0.62671 0.11492 0.73814 0.0
H1723 H 0.67227 0.04465 0.69534 0.0
C1724 C 0.71617 1.01202 0.82578 0.0
N1725 N 0.73555 0.03352 0.81015 0.0
C1726 C 0.72756 0.98723 0.83909 0.0
C1727 C 0.7788 1.00717 0.82003 0.0
C1728 C 0.76615 0.03122 0.80651 0.0
C1729 C 0.75959 0.98498 0.83709 0.0
H1730 H 0.69211 1.01473 0.82879 0.0
H1731 H 0.78125 0.04878 0.79437 0.0
O1732 O 0.68656 0.13211 0.78443 0.0
O1733 O 0.73461 0.10872 0.83608 0.0
O1734 O 0.67145 0.06245 0.79694 0.0
O1735 O 0.72785 0.08677 0.75512 0.0
H1736 H 0.69543 0.18253 0.83433 0.0
H1737 H 0.68144 0.15274 0.72354 0.0
H1738 H 0.69837 0.23902 0.82449 0.0
H1739 H 0.68492 0.20988 0.71586 0.0
H1740 H 0.84023 0.1174 0.82245 0.0
H1741 H 0.75725 0.10189 0.89925 0.0
H1742 H 0.78339 0.11617 0.79957 0.0
H1743 H 0.8152 0.1036 0.92089 0.0
H1744 H 0.59915 0.15193 0.85421 0.0
H1745 H 0.67137 0.15018 0.94107 0.0
H1746 H 0.7764 0.22749 0.74787 0.0
H1747 H 0.79119 0.22978 0.85911 0.0
H1748 H 0.67208 1.00884 0.75564 0.0
H1749 H 0.61041 0.06617 0.79642 0.0
H1750 H 0.62303 0.97001 0.72084 0.0
H1751 H 0.5625 0.02649 0.76074 0.0
H1752 H 0.70743 0.11298 0.70116 0.0
H1753 H 0.78679 0.07891 0.7493 0.0
H1754 H 0.73837 0.12546 0.65337 0.0
H1755 H 0.81652 0.09289 0.70119 0.0
H1756 H 0.58959 0.10839 0.68286 0.0
H1757 H 0.63546 0.03522 0.64003 0.0
H1758 H 0.71153 0.97037 0.85131 0.0
H1759 H 0.80376 1.00684 0.81824 0.0
Li1760 Li 0.78925 0.73973 0.07564 0.0
Li1761 Li 0.81277 0.69874 0.04214 0.0
Li1762 Li 0.78634 0.7355 1.00453 0.0
Li1763 Li 0.75359 0.69262 0.03552 0.0
C1764 C 0.84398 0.77818 0.05537 0.0
N1765 N 0.88166 0.84087 0.07597 0.0
C1766 C 0.8738 0.78401 0.0773 0.0
C1767 C 0.83333 0.80419 0.04396 0.0
C1768 C 0.89247 0.81592 0.08744 0.0
C1769 C 0.85275 0.83571 0.05463 0.0
C1770 C 0.80086 0.68251 0.104 0.0
C1771 C 0.80855 0.64044 0.13735 0.0
N1772 N 0.83668 0.66047 0.15522 0.0
C1773 C 0.82989 0.70262 0.12267 0.0
C1774 C 0.79028 0.65099 0.11114 0.0
C1775 C 0.8477 0.69099 0.14839 0.0
C1776 C 0.7722 0.74804 0.14476 0.0
N1777 N 0.79333 0.76324 0.12524 0.0
C1778 C 0.8225 0.79996 0.17732 0.0
C1779 C 0.81783 0.78938 0.14101 0.0
C1780 C 0.80167 0.78397 0.19815 0.0
C1781 C 0.77577 0.7581 0.18097 0.0
H1782 H 0.75316 0.72698 0.13247 0.0
H1783 H 0.83476 0.8014 0.12587 0.0
C1784 C 0.87884 0.69924 0.04371 0.0
N1785 N 0.84997 0.67968 0.04693 0.0
C1786 C 0.90795 0.69058 0.0532 0.0
C1787 C 0.8773 0.64065 0.06723 0.0
C1788 C 0.84862 0.65019 0.05707 0.0
C1789 C 0.90766 0.66151 0.06653 0.0
H1790 H 0.87939 0.72227 0.03498 0.0
H1791 H 0.8254 0.63468 0.05891 0.0
C1792 C 0.71965 0.73679 0.02973 0.0
N1793 N 0.65312 0.72832 0.01533 0.0
C1794 C 0.70457 0.73601 0.99585 0.0
C1795 C 0.70095 0.73337 0.05632 0.0
C1796 C 0.67089 0.73175 0.98911 0.0
C1797 C 0.66732 0.72901 0.04848 0.0
C1798 C 0.76085 0.66095 0.9758 0.0
C1799 C 0.74316 0.66552 0.94523 0.0
C1800 C 0.75731 0.62976 0.9843 0.0
C1801 C 0.72201 0.63866 0.92362 0.0
C1802 C 0.73584 0.60355 0.96204 0.0
N1803 N 0.71879 0.60851 0.93243 0.0
C1804 C 0.81058 0.74081 0.93759 0.0
C1805 C 0.78151 0.78049 0.94899 0.0
C1806 C 0.81655 0.75122 0.90563 0.0
N1807 N 0.79317 0.75519 0.95899 0.0
C1808 C 0.78706 0.79174 0.91715 0.0
C1809 C 0.80462 0.77699 0.89437 0.0
H1810 H 0.81998 0.72085 0.94523 0.0
H1811 H 0.76767 0.79209 0.96557 0.0
C1812 C 0.70757 0.64849 0.06529 0.0
N1813 N 0.71123 0.66046 0.0351 0.0
C1814 C 0.67945 0.62521 0.06814 0.0
C1815 C 0.65745 0.62853 0.00969 0.0
C1816 C 0.68655 0.65096 1.00752 0.0
C1817 C 0.65374 0.61495 0.04019 0.0
H1818 H 0.72622 0.65757 0.08771 0.0
H1819 H 0.68909 0.6611 0.98395 0.0
O1820 O 0.82523 0.7472 0.04511 0.0
O1821 O 0.78403 0.69294 0.07747 0.0
O1822 O 0.75254 0.74067 0.03672 0.0
O1823 O 0.78125 0.68695 0.99756 0.0
H1824 H 0.8823 0.7642 0.08666 0.0
H1825 H 0.81024 0.80007 0.02714 0.0
H1826 H 0.9155 0.82089 0.10451 0.0
H1827 H 0.84482 0.85608 0.046 0.0
H1828 H 0.80061 0.61614 0.14313 0.0
H1829 H 0.83897 0.7266 0.11664 0.0
H1830 H 0.76869 0.63442 0.09608 0.0
H1831 H 0.87049 0.706 0.16261 0.0
H1832 H 0.84274 0.82017 0.18912 0.0
H1833 H 0.75909 0.74477 0.19562 0.0
H1834 H 0.93059 0.7071 0.05111 0.0
H1835 H 0.8757 0.61801 0.0772 0.0
H1836 H 0.71874 0.73854 0.97499 0.0
H1837 H 0.71227 0.73387 0.08266 0.0
H1838 H 0.65887 0.73112 0.96303 0.0
H1839 H 0.6525 0.7262 0.06873 0.0
H1840 H 0.74556 0.68956 0.9384 0.0
H1841 H 0.77077 0.62593 1.00799 0.0
H1842 H 0.70804 0.6418 0.89993 0.0
H1843 H 0.73269 0.57928 0.96834 0.0
H1844 H 0.8307 0.73912 0.88989 0.0
H1845 H 0.77724 0.81171 0.91024 0.0
H1846 H 0.6773 0.61637 0.09255 0.0
H1847 H 0.63802 0.62179 0.98763 0.0
Li1848 Li 0.92344 0.51397 0.82516 0.0
Li1849 Li 0.97504 0.55016 0.85183 0.0
Li1850 Li 0.9366 0.56907 0.81146 0.0
Li1851 Li 0.96591 0.5282 0.79141 0.0
C1852 C 0.90891 0.54738 0.87876 0.0
N1853 N 0.86416 0.52991 0.92202 0.0
C1854 C 0.91934 0.54368 0.91282 0.0
C1855 C 0.8757 0.54197 0.86664 0.0
C1856 C 0.89633 0.5349 0.93432 0.0
C1857 C 0.85346 0.53314 0.8889 0.0
C1858 C 0.97893 0.47916 0.81945 0.0
C1859 C 0.02481 0.45803 0.807 0.0
N1860 N 1.00441 0.42845 0.79427 0.0
C1861 C 0.95843 0.44852 0.8059 0.0
C1862 C 1.01242 0.48394 0.81974 0.0
C1863 C 0.97177 0.42322 0.79344 0.0
C1864 C 0.86544 0.46453 0.80705 0.0
N1865 N 0.8921 0.47755 0.83163 0.0
C1866 C 0.8857 0.42848 0.85559 0.0
C1867 C 0.90155 0.4609 0.85669 0.0
C1868 C 0.85946 0.41387 0.82914 0.0
C1869 C 0.84822 0.43248 0.8057 0.0
H1870 H 0.85898 0.47818 0.78712 0.0
H1871 H 0.92327 0.47184 0.87546 0.0
C1872 C 1.00604 0.58722 0.91785 0.0
N1873 N 1.00434 0.56025 0.89463 0.0
C1874 C 1.02249 0.5908 0.95171 0.0
C1875 C 0.03637 0.53966 0.93648 0.0
C1876 C 1.01937 0.5369 0.90323 0.0
C1877 C 0.03725 0.56639 0.96142 0.0
H1878 H 0.99296 0.60491 0.91074 0.0
H1879 H 1.01651 0.51505 0.8851 0.0
C1880 C 0.90958 0.5357 0.74801 0.0
N1881 N 0.89009 0.55734 0.68742 0.0
C1882 C 0.93272 0.55251 0.7304 0.0
C1883 C 0.87658 0.53016 0.73491 0.0
C1884 C 0.92236 0.56297 0.69964 0.0
C1885 C 0.86723 0.5414 0.70437 0.0
C1886 C 1.01286 0.59584 0.82959 0.0
C1887 C 1.01165 0.62603 0.84699 0.0
C1888 C 0.0426 0.58724 0.83112 0.0
C1889 C 0.04028 0.64729 0.86516 0.0
C1890 C 0.07068 0.60913 0.84963 0.0
N1891 N 0.06896 0.63848 0.86609 0.0
C1892 C 0.93783 0.62917 0.78738 0.0
C1893 C 0.88527 0.59978 0.7925 0.0
C1894 C 0.92488 0.65232 0.77232 0.0
N1895 N 0.91804 0.60342 0.797 0.0
C1896 C 0.8712 0.62221 0.77713 0.0
C1897 C 0.89102 0.64873 0.7662 0.0
H1898 H 0.96363 0.63113 0.79016 0.0
H1899 H 0.86983 0.57862 0.79925 0.0
C1900 C 0.96074 0.4801 0.73591 0.0
N1901 N 0.98182 0.50765 0.75376 0.0
C1902 C 0.97044 0.46049 0.71033 0.0
C1903 C 1.0231 0.49848 0.72104 0.0
C1904 C 1.01253 0.51718 0.74689 0.0
C1905 C 1.00183 0.46977 0.70234 0.0
H1906 H 0.93654 0.47298 0.74222 0.0
H1907 H 0.02886 0.53902 0.76157 0.0
O1908 O 0.93109 0.55667 0.85753 0.0
O1909 O 0.96633 0.5045 0.83152 0.0
O1910 O 0.91893 0.52712 0.77937 0.0
O1911 O 0.98506 0.57465 0.81165 0.0
H1912 H 0.94491 0.54766 0.92264 0.0
H1913 H 0.86717 0.5442 0.84023 0.0
H1914 H 0.90403 0.53213 0.9608 0.0
H1915 H 0.82768 0.52881 0.87982 0.0
H1916 H 0.05065 0.4615 0.80704 0.0
H1917 H 0.93242 0.44434 0.80403 0.0
H1918 H 0.02871 0.50757 0.82915 0.0
H1919 H 0.95612 0.3995 0.7828 0.0
H1920 H 0.89453 0.41466 0.87428 0.0
H1921 H 0.8278 0.4217 0.78516 0.0
H1922 H 1.02243 0.61162 0.97048 0.0
H1923 H 0.04679 0.51998 0.94319 0.0
H1924 H 0.95835 0.55812 0.74069 0.0
H1925 H 0.85831 0.51804 0.74868 0.0
H1926 H 0.93996 0.576 0.68575 0.0
H1927 H 0.84177 0.53788 0.6945 0.0
H1928 H 0.98878 0.6328 0.84705 0.0
H1929 H 0.044 0.56379 0.81849 0.0
H1930 H 0.03966 0.6707 0.87874 0.0
H1931 H 0.09383 0.60275 0.85101 0.0
H1932 H 0.94133 0.67243 0.76481 0.0
H1933 H 0.84499 0.61792 0.77247 0.0
H1934 H 0.95336 0.43865 0.69646 0.0
H1935 H 0.04758 0.50638 0.71563 0.0
Li1936 Li 0.8327 0.41896 0.55267 0.0
Li1937 Li 0.79603 0.44976 0.52953 0.0
Li1938 Li 0.81749 0.4128 0.49148 0.0
Li1939 Li 0.85244 0.46384 0.52213 0.0
C1940 C 0.76688 0.37431 0.5082 0.0
N1941 N 0.72311 0.3191 0.47124 0.0
C1942 C 0.73502 0.37525 0.49588 0.0
C1943 C 0.77655 0.34535 0.50111 0.0
C1944 C 0.71324 0.34706 0.47742 0.0
C1945 C 0.75406 0.31771 0.48254 0.0
C1946 C 0.82325 0.47997 0.59271 0.0
C1947 C 0.80993 0.52685 0.62259 0.0
N1948 N 0.79346 0.50768 0.64279 0.0
C1949 C 0.80654 0.46081 0.61409 0.0
C1950 C 0.82525 0.51332 0.5972 0.0
C1951 C 0.79164 0.47528 0.63925 0.0
C1952 C 0.86872 0.41837 0.6154 0.0
N1953 N 0.8467 0.39879 0.58901 0.0
C1954 C 0.85815 0.35139 0.60803 0.0
C1955 C 0.84033 0.3659 0.58554 0.0
C1956 C 0.88192 0.37112 0.63451 0.0
C1957 C 0.88651 0.40487 0.63894 0.0
H1958 H 0.87367 0.44446 0.617 0.0
H1959 H 0.82275 0.35101 0.56437 0.0
C1960 C 0.73973 0.44722 0.55846 0.0
N1961 N 0.76027 0.46637 0.54164 0.0
C1962 C 0.71877 0.46005 0.57727 0.0
C1963 C 0.73917 0.51188 0.55972 0.0
C1964 C 0.75952 0.49784 0.54078 0.0
C1965 C 0.71937 0.49321 0.5795 0.0
H1966 H 0.74149 0.42261 0.55962 0.0
H1967 H 0.77667 0.5128 0.52798 0.0
C1968 C 0.88716 0.41061 0.53295 0.0
N1969 N 0.93848 0.39096 0.56686 0.0
C1970 C 0.91257 0.43328 0.55524 0.0
C1971 C 0.88776 0.37778 0.52848 0.0
C1972 C 0.93829 0.42292 0.57197 0.0
C1973 C 0.91395 0.36839 0.54567 0.0
C1974 C 0.82513 0.47845 0.46485 0.0
C1975 C 0.83307 0.4668 0.43304 0.0
C1976 C 0.82962 0.51185 0.47499 0.0
C1977 C 0.84513 0.48883 0.41173 0.0
C1978 C 0.84173 0.53308 0.45294 0.0
N1979 N 0.84908 0.52122 0.42199 0.0
C1980 C 0.78297 0.37741 0.42643 0.0
C1981 C 0.83588 0.37035 0.44308 0.0
C1982 C 0.78002 0.35771 0.39454 0.0
N1983 N 0.81077 0.38353 0.44969 0.0
C1984 C 0.83372 0.34997 0.41201 0.0
C1985 C 0.80589 0.34424 0.38701 0.0
H1986 H 0.76367 0.38879 0.43216 0.0
H1987 H 0.85827 0.37693 0.46113 0.0
C1988 C 0.90452 0.52033 0.54515 0.0
N1989 N 0.8913 0.4945 0.51953 0.0
C1990 C 0.93765 0.53537 0.54933 0.0
C1991 C 0.94237 0.49756 0.50011 0.0
C1992 C 0.90911 0.48379 0.49633 0.0
C1993 C 0.95693 0.52303 0.52739 0.0
H1994 H 0.89008 0.52751 0.56396 0.0
H1995 H 0.89808 0.46259 0.4769 0.0
O1996 O 0.7884 0.40149 0.52713 0.0
O1997 O 0.83604 0.46588 0.56633 0.0
O1998 O 0.86128 0.42024 0.51681 0.0
O1999 O 0.8125 0.45726 0.48572 0.0
H2000 H 0.72715 0.3975 0.50022 0.0
H2001 H 0.80139 0.34439 0.5089 0.0
H2002 H 0.6885 0.34744 0.4679 0.0
H2003 H 0.76127 0.29519 0.47695 0.0
H2004 H 0.81089 0.55254 0.62604 0.0
H2005 H 0.80423 0.43487 0.6106 0.0
H2006 H 0.83766 0.52843 0.58058 0.0
H2007 H 0.77824 0.46068 0.65563 0.0
H2008 H 0.85353 0.32516 0.60482 0.0
H2009 H 0.90412 0.42055 0.6598 0.0
H2010 H 0.70362 0.4445 0.59151 0.0
H2011 H 0.74083 0.53761 0.56088 0.0
H2012 H 0.91211 0.45848 0.56061 0.0
H2013 H 0.86783 0.35949 0.51268 0.0
H2014 H 0.95786 0.44027 0.58941 0.0
H2015 H 0.91458 0.34307 0.54249 0.0
H2016 H 0.82981 0.44105 0.42477 0.0
H2017 H 0.82394 0.52128 0.49969 0.0
H2018 H 0.85124 0.48021 0.38696 0.0
H2019 H 0.84532 0.559 0.46043 0.0
H2020 H 0.75841 0.3541 0.37543 0.0
H2021 H 0.85456 0.34091 0.40657 0.0
H2022 H 0.94847 0.55492 0.57078 0.0
H2023 H 0.95678 0.48763 0.48281 0.0
Li2024 Li 0.63946 0.58961 0.35027 0.0
Li2025 Li 0.68226 0.6224 0.31911 0.0
Li2026 Li 0.63516 0.5864 0.27899 0.0
Li2027 Li 0.67635 0.56326 0.31257 0.0
C2028 C 0.63798 0.65611 0.32445 0.0
N2029 N 0.64665 0.72267 0.33813 0.0
C2030 C 0.63912 0.67155 0.35826 0.0
C2031 C 0.64112 0.67445 0.29756 0.0
C2032 C 0.64348 0.70524 0.36464 0.0
C2033 C 0.64559 0.70811 0.30504 0.0
C2034 C 0.71406 0.61533 0.37891 0.0
C2035 C 0.77145 0.64044 0.39273 0.0
N2036 N 0.76642 0.65745 0.42234 0.0
C2037 C 0.70942 0.63299 0.40947 0.0
C2038 C 0.74528 0.61894 0.37044 0.0
C2039 C 0.73624 0.65416 0.43112 0.0
C2040 C 0.63472 0.56694 0.4184 0.0
N2041 N 0.61971 0.58309 0.396 0.0
C2042 C 0.58208 0.58857 0.43682 0.0
C2043 C 0.5936 0.59385 0.40504 0.0
C2044 C 0.59736 0.57224 0.46058 0.0
C2045 C 0.62407 0.56132 0.45038 0.0
H2046 H 0.65534 0.55827 0.41156 0.0
H2047 H 0.5815 0.60671 0.3877 0.0
C2048 C 0.72599 0.66858 0.28899 0.0
N2049 N 0.7143 0.66484 0.31933 0.0
C2050 C 0.74918 0.69672 0.286 0.0
C2051 C 0.74633 0.71862 0.34464 0.0
C2052 C 0.72399 0.6895 0.34693 0.0
C2053 C 0.75963 0.72239 0.31399 0.0
H2054 H 0.71677 0.64995 0.26656 0.0
H2055 H 0.71407 0.68691 0.37063 0.0
C2056 C 0.597 0.53154 0.29936 0.0
N2057 N 0.53456 0.49321 0.27871 0.0
C2058 C 0.59147 0.50194 0.27712 0.0
C2059 C 0.5708 0.54166 0.311 0.0
C2060 C 0.5597 0.48292 0.26699 0.0
C2061 C 0.53941 0.52191 0.30031 0.0
C2062 C 0.69273 0.57535 0.2508 0.0
C2063 C 0.6729 0.54627 0.2319 0.0
C2064 C 0.72434 0.58621 0.24397 0.0
C2065 C 0.68488 0.52872 0.20629 0.0
C2066 C 0.73526 0.56817 0.21786 0.0
N2067 N 0.71549 0.54 0.19977 0.0
C2068 C 0.62707 0.60312 0.20974 0.0
C2069 C 0.58609 0.55712 0.21327 0.0
C2070 C 0.61737 0.59931 0.17345 0.0
N2071 N 0.61187 0.58195 0.22921 0.0
C2072 C 0.57586 0.55222 0.17688 0.0
C2073 C 0.59184 0.57314 0.15613 0.0
H2074 H 0.6479 0.62238 0.22214 0.0
H2075 H 0.57409 0.54014 0.22835 0.0
C2076 C 0.67607 0.49705 0.30918 0.0
N2077 N 0.69569 0.52629 0.3073 0.0
C2078 C 0.68481 0.46826 0.29837 0.0
C2079 C 0.73506 0.49997 0.28609 0.0
C2080 C 0.72541 0.52828 0.29748 0.0
C2081 C 0.71408 0.46933 0.2852 0.0
H2082 H 0.65289 0.49598 0.31774 0.0
H2083 H 0.74094 0.55178 0.29669 0.0
O2084 O 0.63411 0.62321 0.31783 0.0
O2085 O 0.68809 0.59485 0.35715 0.0
O2086 O 0.62787 0.55058 0.30975 0.0
O2087 O 0.68195 0.59195 0.27722 0.0
H2088 H 0.6368 0.65765 0.37935 0.0
H2089 H 0.64036 0.66285 0.27126 0.0
H2090 H 0.64442 0.71755 0.39067 0.0
H2091 H 0.6482 0.72266 0.28454 0.0
H2092 H 0.79574 0.64364 0.38646 0.0
H2093 H 0.68535 0.63055 0.41627 0.0
H2094 H 0.74916 0.60551 0.34675 0.0
H2095 H 0.73304 0.66808 0.45482 0.0
H2096 H 0.5614 0.5976 0.44287 0.0
H2097 H 0.63668 0.54818 0.46693 0.0
H2098 H 0.75781 0.69892 0.26148 0.0
H2099 H 0.75321 0.73802 0.36673 0.0
H2100 H 0.6114 0.49386 0.26751 0.0
H2101 H 0.57468 0.56458 0.32804 0.0
H2102 H 0.55497 0.46004 0.2497 0.0
H2103 H 0.5189 0.52943 0.30914 0.0
H2104 H 0.64885 0.53697 0.23767 0.0
H2105 H 0.7407 0.60783 0.25921 0.0
H2106 H 0.67008 0.50592 0.19189 0.0
H2107 H 0.75963 0.57633 0.21233 0.0
H2108 H 0.63071 0.61605 0.15887 0.0
H2109 H 0.55591 0.53177 0.16498 0.0
H2110 H 0.6682 0.44532 0.29925 0.0
H2111 H 0.75787 0.50213 0.27633 0.0
Tb2112 Tb 0.11252 0.07979 0.07442 0.0
C2113 C 1.01722 0.96812 0.99185 0.0
N2114 N 0.02743 0.99928 0.98608 0.0
C2115 C 0.0351 0.97884 0.92858 0.0
C2116 C 1.01781 0.94134 0.96718 0.0
C2117 C 0.03352 1.00451 0.95362 0.0
C2118 C 0.02807 0.94717 0.93574 0.0
C2119 C 0.99104 0.93113 0.02762 0.0
C2120 C 1.00372 0.96288 0.02147 0.0
C2121 C 0.99326 0.90451 1.00406 0.0
C2122 C 1.00677 0.90961 0.974 0.0
Tb2123 Tb 0.02495 0.03886 0.03088 0.0
N2124 N 1.00307 0.9892 0.04441 0.0
C2125 C 0.97628 0.92719 0.05713 0.0
C2126 C 0.98743 0.98559 0.07238 0.0
C2127 C 0.97409 0.95456 0.07935 0.0
H2128 H 0.03593 0.02808 0.94594 0.0
H2129 H 0.96222 0.95177 0.10188 0.0
H2130 H 0.08807 0.10923 0.14737 0.0
H2131 H 0.18988 0.13932 0.99059 0.0
H2132 H 0.98548 1.00667 0.08939 0.0
H2133 H 0.96614 0.90318 0.06272 0.0
H2134 H 0.15746 0.09258 0.01102 0.0
H2135 H 0.04086 0.98342 0.90338 0.0
H2136 H 0.98409 0.87989 1.00852 0.0
H2137 H 1.00774 0.88881 0.95576 0.0
H2138 H 0.09301 0.16226 0.18165 0.0
H2139 H 0.02884 0.9273 0.91607 0.0
H2140 H 0.1983 0.19466 0.02322 0.0
N2141 N 0.11574 0.12777 0.10968 0.0
C2142 C 0.13564 0.15456 0.10165 0.0
C2143 C 0.10489 0.16044 0.15901 0.0
C2144 C 0.13974 0.18555 0.1213 0.0
C2145 C 0.10163 0.13022 0.13889 0.0
C2146 C 0.12352 0.18824 0.14982 0.0
N2147 N 0.1443 0.12097 0.05284 0.0
C2148 C 0.15914 0.11659 0.02438 0.0
C2149 C 0.16927 0.17853 0.06185 0.0
C2150 C 0.14994 0.15108 0.07203 0.0
C2151 C 0.1833 0.17421 0.0319 0.0
C2152 C 0.17841 0.14306 0.01326 0.0
H2153 H 0.12496 0.21158 0.16482 0.0
H2154 H 0.16244 0.23689 0.12604 0.0
H2155 H 0.18854 0.23071 0.07423 0.0
O2156 O 0.16228 0.08075 0.07825 0.0
O2157 O 0.08341 0.11706 0.06068 0.0
O2158 O 0.03442 0.09193 0.02546 0.0
O2159 O 0.13797 0.07537 0.12223 0.0
O2160 O 0.10669 0.0585 0.01885 0.0
O2161 O 0.05684 0.06462 0.99716 0.0
O2162 O 0.98208 0.05028 0.04374 0.0
O2163 O 0.05149 1.00773 0.06151 0.0
O2164 O 0.10468 0.02586 0.05685 0.0
O2165 O 0.98275 0.02482 0.99335 0.0
O2166 O 0.02941 0.06012 0.08626 0.0
O2167 O 0.08042 0.05794 0.11019 0.0
C2168 C 0.05623 0.11907 0.04084 0.0
C2169 C 0.17743 0.04512 0.1151 0.0
C2170 C 0.20719 1.00484 0.09671 0.0
C2171 C 0.20054 0.99011 0.12588 0.0
C2172 C 0.17134 0.02989 0.14403 0.0
C2173 C 0.18275 1.00256 0.14924 0.0
C2174 C 0.19569 0.03256 0.09163 0.0
C2175 C 0.08708 0.0647 0.99332 0.0
C2176 C 0.16418 0.07356 0.10936 0.0
C2177 C 0.15905 0.21288 0.11129 0.0
C2178 C 0.17383 0.20937 0.0817 0.0
C2179 C 0.08102 1.00224 0.06278 0.0
C2180 C 0.95087 0.06329 0.99629 0.0
C2181 C 0.91494 0.10028 0.99954 0.0
C2182 C 0.92148 0.10816 0.96705 0.0
C2183 C 0.95726 0.07179 0.96403 0.0
C2184 C 0.92985 0.07773 0.01392 0.0
C2185 C 0.94258 0.09408 0.94959 0.0
C2186 C 0.04966 0.05658 0.11292 0.0
C2187 C 0.96644 0.04009 0.01232 0.0
H2188 H 0.20955 0.96919 0.13105 0.0
H2189 H 0.15758 0.03902 0.16262 0.0
H2190 H 0.17788 0.99101 0.17159 0.0
H2191 H 0.20048 0.04397 0.06915 0.0
H2192 H 0.90992 0.12481 0.95477 0.0
H2193 H 0.97366 0.06136 0.94999 0.0
H2194 H 0.92552 0.07163 0.03911 0.0
H2195 H 0.94748 0.10039 0.92467 0.0
Tb2196 Tb 0.28984 0.82937 0.35295 0.0
C2197 C 0.33951 0.74552 0.24143 0.0
N2198 N 0.35006 0.76368 0.27361 0.0
C2199 C 0.36669 0.71856 0.29449 0.0
C2200 C 0.34213 0.71308 0.23471 0.0
C2201 C 0.364 0.7507 0.29989 0.0
C2202 C 0.35566 0.69964 0.26181 0.0
C2203 C 0.31539 0.74145 0.18118 0.0
C2204 C 0.32589 0.75939 0.21499 0.0
C2205 C 0.31783 0.70916 0.17458 0.0
C2206 C 0.33118 0.69505 0.20126 0.0
Tb2207 Tb 0.34373 0.81588 0.27782 0.0
N2208 N 0.32375 0.79065 0.22209 0.0
C2209 C 0.3034 0.7567 0.15476 0.0
C2210 C 0.31358 0.8061 0.19594 0.0
C2211 C 0.30285 0.78928 0.16211 0.0
H2212 H 0.37303 0.76446 0.32525 0.0
H2213 H 0.29448 0.80159 0.14167 0.0
H2214 H 0.25966 0.89069 0.33147 0.0
H2215 H 0.33132 0.80983 0.4824 0.0
H2216 H 0.31413 0.83165 0.20082 0.0
H2217 H 0.29522 0.74377 0.12846 0.0
H2218 H 0.3048 0.79324 0.42097 0.0
H2219 H 0.37741 0.70843 0.31559 0.0
H2220 H 0.3098 0.69501 0.14882 0.0
H2221 H 0.33332 0.67026 0.19564 0.0
H2222 H 0.26765 0.94909 0.35416 0.0
H2223 H 0.35786 0.67475 0.25774 0.0
H2224 H 0.35185 0.86823 0.50689 0.0
N2225 N 0.29234 0.88275 0.37305 0.0
C2226 C 0.31009 0.89508 0.40487 0.0
C2227 C 0.28004 0.93425 0.36853 0.0
C2228 C 0.31517 0.92806 0.41911 0.0
C2229 C 0.2755 0.90123 0.35579 0.0
C2230 C 0.30054 0.94789 0.4 0.0
N2231 N 0.31079 0.84166 0.41094 0.0
C2232 C 0.31318 0.81875 0.43172 0.0
C2233 C 0.33505 0.88434 0.4594 0.0
C2234 C 0.31977 0.87362 0.42465 0.0
C2235 C 0.34017 0.86105 0.48004 0.0
C2236 C 0.32842 0.82807 0.46637 0.0
H2237 H 0.30348 0.97326 0.41013 0.0
H2238 H 0.33768 0.96493 0.46392 0.0
H2239 H 0.35528 0.92655 0.49926 0.0
O2240 O 0.25239 0.82778 0.38308 0.0
O2241 O 0.31023 0.86644 0.32405 0.0
O2242 O 0.35972 0.86006 0.3165 0.0
O2243 O 0.24472 0.79631 0.33416 0.0
O2244 O 0.33574 0.8141 0.37156 0.0
O2245 O 0.37068 0.81994 0.33037 0.0
O2246 O 0.36658 0.85051 0.24993 0.0
O2247 O 0.29928 0.78106 0.28256 0.0
O2248 O 0.30174 0.78307 0.34095 0.0
O2249 O 0.38896 0.81263 0.26485 0.0
O2250 O 0.30013 0.83326 0.25825 0.0
O2251 O 0.26533 0.83143 0.29991 0.0
C2252 C 0.34125 0.87828 0.32744 0.0
C2253 C 0.21096 0.77934 0.37436 0.0
C2254 C 0.20299 0.73836 0.41169 0.0
C2255 C 0.1693 0.73196 0.40141 0.0
C2256 C 0.17722 0.77272 0.36403 0.0
C2257 C 0.15649 0.74887 0.37728 0.0
C2258 C 0.22386 0.76175 0.39781 0.0
C2259 C 0.36491 0.81572 0.36196 0.0
C2260 C 0.23183 0.80519 0.36076 0.0
C2261 C 0.33295 0.93955 0.45268 0.0
C2262 C 0.34294 0.91768 0.47283 0.0
C2263 C 0.29544 0.76647 0.30955 0.0
C2264 C 0.39498 0.82691 0.20984 0.0
C2265 C 0.38455 0.83392 0.14956 0.0
C2266 C 0.39522 0.80598 0.13936 0.0
C2267 C 0.40626 0.79925 0.19952 0.0
C2268 C 0.38544 0.84472 0.18478 0.0
C2269 C 0.40653 0.78902 0.1644 0.0
C2270 C 0.27121 0.83314 0.26766 0.0
C2271 C 0.38967 0.83545 0.24577 0.0
H2272 H 0.15303 0.71434 0.41253 0.0
H2273 H 0.16693 0.78606 0.34574 0.0
H2274 H 0.13049 0.74396 0.36932 0.0
H2275 H 0.24985 0.76682 0.40598 0.0
H2276 H 0.39479 0.79733 0.11216 0.0
H2277 H 0.41395 0.785 0.21836 0.0
H2278 H 0.37645 0.86588 0.1925 0.0
H2279 H 0.41478 0.76749 0.15654 0.0
Tb2280 Tb 0.52344 0.06124 0.57645 0.0
C2281 C 0.64616 0.12294 0.5139 0.0
N2282 N 0.62468 0.09343 0.50461 0.0
C2283 C 0.62368 0.09852 0.44443 0.0
C2284 C 0.65658 0.14182 0.48871 0.0
C2285 C 0.61469 0.08037 0.47033 0.0
C2286 C 0.64438 0.12956 0.45366 0.0
C2287 C 0.68336 0.16271 0.55922 0.0
C2288 C 0.65925 0.13344 0.5487 0.0
C2289 C 0.69302 0.1821 0.53435 0.0
C2290 C 0.67957 0.17175 0.4992 0.0
Tb2291 Tb 0.61151 0.06679 0.54959 0.0
N2292 N 0.64884 0.11436 0.5722 0.0
C2293 C 0.6974 0.17127 0.59432 0.0
C2294 C 0.66367 0.12168 0.60614 0.0
C2295 C 0.68763 0.15056 0.61782 0.0
H2296 H 0.60024 0.05573 0.46278 0.0
H2297 H 0.69853 0.15687 0.64492 0.0
H2298 H 0.53813 0.04633 0.65755 0.0
H2299 H 0.44525 0.98985 0.4602 0.0
H2300 H 0.65683 0.10532 0.62406 0.0
H2301 H 0.71602 0.19357 0.60345 0.0
H2302 H 0.48405 0.03822 0.49423 0.0
H2303 H 0.61512 0.0883 0.41733 0.0
H2304 H 0.71128 0.20486 0.54194 0.0
H2305 H 0.68772 0.18667 0.48023 0.0
H2306 H 0.51733 1.00298 0.69031 0.0
H2307 H 0.65169 0.14336 0.4335 0.0
H2308 H 0.42223 0.944 0.48913 0.0
N2309 N 0.50849 0.02224 0.60963 0.0
C2310 C 0.48423 0.99625 0.59328 0.0
C2311 C 0.508 1.0007 0.66297 0.0
C2312 C 0.47147 0.97101 0.61119 0.0
C2313 C 0.52009 0.02507 0.64414 0.0
C2314 C 0.48363 0.97356 0.64645 0.0
N2315 N 0.48712 0.01848 0.54107 0.0
C2316 C 0.47626 1.01768 0.50674 0.0
C2317 C 0.44997 0.9665 0.53968 0.0
C2318 C 0.47357 0.99407 0.55783 0.0
C2319 C 0.4402 0.96482 0.50404 0.0
C2320 C 0.45331 0.99058 0.48757 0.0
H2321 H 0.47446 0.95467 0.66112 0.0
H2322 H 0.4376 0.9241 0.60651 0.0
H2323 H 0.41884 0.92015 0.54401 0.0
O2324 O 0.47759 0.07127 0.5639 0.0
O2325 O 0.5405 1.01398 0.56857 0.0
O2326 O 0.57655 0.01858 0.52932 0.0
O2327 O 0.5022 0.08121 0.61655 0.0
O2328 O 0.53218 0.07955 0.52848 0.0
O2329 O 0.56855 0.0521 0.50978 0.0
O2330 O 0.64262 0.04332 0.57669 0.0
O2331 O 0.60302 0.11542 0.57274 0.0
O2332 O 0.54776 0.11206 0.57017 0.0
O2333 O 0.64621 0.04939 0.52399 0.0
O2334 O 0.59676 0.05068 0.59628 0.0
O2335 O 0.56452 0.08043 0.61863 0.0
C2336 C 0.55645 1.00012 0.54616 0.0
C2337 C 0.47216 0.11838 0.59883 0.0
C2338 C 0.43729 0.15527 0.58593 0.0
C2339 C 0.46157 0.18109 0.60607 0.0
C2340 C 0.49616 0.145 0.61792 0.0
C2341 C 0.49075 0.17604 0.6216 0.0
C2342 C 0.4427 0.12368 0.58277 0.0
C2343 C 0.54737 0.06939 0.50408 0.0
C2344 C 0.47804 0.08533 0.59531 0.0
C2345 C 0.44765 0.94376 0.59319 0.0
C2346 C 0.43701 0.94147 0.55756 0.0
C2347 C 0.57824 0.12967 0.5738 0.0
C2348 C 0.6938 0.04503 0.55935 0.0
C2349 C 0.74246 0.02436 0.56993 0.0
C2350 C 0.76137 0.05653 0.57836 0.0
C2351 C 0.71335 0.07684 0.56683 0.0
C2352 C 0.70853 0.01878 0.56048 0.0
C2353 C 0.74687 0.08253 0.57661 0.0
C2354 C 0.59063 0.06923 0.62211 0.0
C2355 C 0.65811 0.03856 0.55089 0.0
H2356 H 0.45782 0.2053 0.61036 0.0
H2357 H 0.51918 0.14192 0.63016 0.0
H2358 H 0.50922 0.1963 0.63669 0.0
H2359 H 0.42434 0.10336 0.56753 0.0
H2360 H 0.78751 0.06159 0.58554 0.0
H2361 H 0.70293 0.09731 0.56502 0.0
H2362 H 0.6936 0.9941 0.55443 0.0
H2363 H 0.76171 0.1072 0.58264 0.0
Tb2364 Tb 0.35561 0.29159 0.80501 0.0
C2365 C 0.25296 0.33824 0.72308 0.0
N2366 N 0.27387 0.35411 0.75238 0.0
C2367 C 0.28731 0.40136 0.72492 0.0
C2368 C 0.24998 0.35265 0.69289 0.0
C2369 C 0.28919 0.38612 0.75424 0.0
C2370 C 0.2682 0.38433 0.69386 0.0
C2371 C 0.21095 0.29078 0.69444 0.0
C2372 C 0.23344 0.30787 0.7238 0.0
C2373 C 0.2088 0.30448 0.66389 0.0
C2374 C 0.22829 0.33535 0.66312 0.0
Tb2375 Tb 0.27572 0.32528 0.79794 0.0
N2376 N 0.23728 0.29469 0.75328 0.0
C2377 C 0.19141 0.2604 0.6967 0.0
C2378 C 0.217 0.26596 0.75635 0.0
C2379 C 0.19414 0.24813 0.72794 0.0
H2380 H 0.30199 0.40055 0.77847 0.0
H2381 H 0.17867 0.22496 0.73015 0.0
H2382 H 0.33235 0.21323 0.81246 0.0
H2383 H 0.44247 0.39391 0.88727 0.0
H2384 H 0.2186 0.25671 0.78061 0.0
H2385 H 0.17392 0.2465 0.67464 0.0
H2386 H 0.40416 0.36668 0.83482 0.0
H2387 H 0.30005 0.4265 0.72655 0.0
H2388 H 0.19192 0.29156 0.64088 0.0
H2389 H 0.22594 0.3459 0.63959 0.0
H2390 H 0.34262 0.17895 0.8562 0.0
H2391 H 0.26659 0.39632 0.67127 0.0
H2392 H 0.45518 0.36292 0.93385 0.0
N2393 N 0.3628 0.25679 0.84281 0.0
C2394 C 0.38501 0.27007 0.87192 0.0
C2395 C 0.35444 0.20461 0.8611 0.0
C2396 C 0.39194 0.25114 0.89741 0.0
C2397 C 0.34831 0.22431 0.83655 0.0
C2398 C 0.37613 0.21811 0.89178 0.0
N2399 N 0.39259 0.32083 0.85183 0.0
C2400 C 0.40809 0.3529 0.8551 0.0
C2401 C 0.42297 0.31762 0.90689 0.0
C2402 C 0.40044 0.30301 0.87655 0.0
C2403 C 0.43782 0.35078 0.91089 0.0
C2404 C 0.43053 0.3684 0.88476 0.0
H2405 H 0.38079 0.20275 0.91074 0.0
H2406 H 0.41983 0.25156 0.94755 0.0
H2407 H 0.44696 0.30966 0.95579 0.0
O2408 O 0.40431 0.29615 0.79771 0.0
O2409 O 0.33624 0.30267 0.85428 0.0
O2410 O 0.31108 0.34401 0.84619 0.0
O2411 O 0.36727 0.25387 0.77297 0.0
O2412 O 0.36067 0.33849 0.78687 0.0
O2413 O 0.32256 0.36331 0.80821 0.0
O2414 O 0.23771 0.31645 0.8289 0.0
O2415 O 0.28345 0.28996 0.75512 0.0
O2416 O 0.33761 0.30445 0.75466 0.0
O2417 O 0.24768 0.35914 0.80388 0.0
O2418 O 0.2741 0.28126 0.82202 0.0
O2419 O 0.30793 0.25506 0.79408 0.0
C2420 C 0.32439 0.32696 0.86694 0.0
C2421 C 0.40852 0.27531 0.74049 0.0
C2422 C 0.45179 0.29549 0.70722 0.0
C2423 C 0.4282 0.28914 0.67728 0.0
C2424 C 0.38579 0.26913 0.70985 0.0
C2425 C 0.39564 0.27612 0.67865 0.0
C2426 C 0.44179 0.28825 0.73894 0.0
C2427 C 0.34993 0.36451 0.79524 0.0
C2428 C 0.39719 0.27036 0.77417 0.0
C2429 C 0.41431 0.2657 0.92763 0.0
C2430 C 0.42977 0.29881 0.93234 0.0
C2431 C 0.30784 0.29447 0.73765 0.0
C2432 C 0.20249 0.35495 0.83585 0.0
C2433 C 0.15685 0.35106 0.86863 0.0
C2434 C 0.15145 0.37969 0.85757 0.0
C2435 C 0.19638 0.38367 0.82577 0.0
C2436 C 0.18236 0.33841 0.85725 0.0
C2437 C 0.17106 0.39578 0.83645 0.0
C2438 C 0.28253 0.2545 0.81047 0.0
C2439 C 0.22938 0.34282 0.82267 0.0
H2440 H 0.43505 0.29368 0.65245 0.0
H2441 H 0.36025 0.25901 0.7099 0.0
H2442 H 0.37796 0.27128 0.65527 0.0
H2443 H 0.45963 0.29326 0.76234 0.0
H2444 H 0.13173 0.38965 0.86508 0.0
H2445 H 0.21108 0.39684 0.80925 0.0
H2446 H 0.18673 0.31628 0.86529 0.0
H2447 H 0.16654 0.41778 0.82823 0.0
Tb2448 Tb 0.08621 0.02059 0.54809 0.0
C2449 C 0.03744 0.12114 0.63091 0.0
N2450 N 1.02172 0.10018 0.6016 0.0
C2451 C 0.97473 0.08575 0.62932 0.0
C2452 C 1.02314 0.12365 0.66123 0.0
C2453 C 0.98987 0.08436 0.59987 0.0
C2454 C 0.99169 0.10491 0.66039 0.0
C2455 C 0.08445 0.16375 0.65945 0.0
C2456 C 0.06753 0.14117 0.63008 0.0
C2457 C 0.07089 0.16545 0.69011 0.0
C2458 C 0.04029 0.14543 0.691 0.0
Tb2459 Tb 0.05039 0.09907 0.55582 0.0
N2460 N 0.08062 0.13775 0.60048 0.0
C2461 C 0.11452 0.18385 0.65705 0.0
C2462 C 0.10899 0.15858 0.59728 0.0
C2463 C 0.12663 0.18156 0.62568 0.0
H2464 H 0.97546 0.07156 0.57565 0.0
H2465 H 0.14953 0.19747 0.62336 0.0
H2466 H 0.16514 0.04577 0.54335 0.0
H2467 H 0.98644 0.93408 0.46191 0.0
H2468 H 0.1181 0.15733 0.57293 0.0
H2469 H 0.12828 0.20144 0.67911 0.0
H2470 H 1.01172 0.97238 0.51504 0.0
H2471 H 0.94971 0.07259 0.62779 0.0
H2472 H 0.08368 0.18239 0.71313 0.0
H2473 H 0.02983 0.14743 0.71463 0.0
H2474 H 0.2011 0.03674 0.50101 0.0
H2475 H 0.97979 0.10614 0.68308 0.0
H2476 H 1.01945 0.92197 0.41705 0.0
N2477 N 0.12253 1.01488 0.51163 0.0
C2478 C 0.1103 0.99283 0.48217 0.0
C2479 C 0.17555 0.02452 0.49523 0.0
C2480 C 0.13024 0.98659 0.45748 0.0
C2481 C 0.15489 0.02993 0.51898 0.0
C2482 C 0.16315 1.00297 0.46423 0.0
N2483 N 0.05862 0.98398 0.50033 0.0
C2484 C 0.02645 0.9684 0.49565 0.0
C2485 C 0.06395 0.95436 0.44571 0.0
C2486 C 0.07747 0.97674 0.47643 0.0
C2487 C 0.03077 0.93918 0.44038 0.0
C2488 C 1.01202 0.94611 0.46556 0.0
H2489 H 0.17926 0.99884 0.44591 0.0
H2490 H 0.13174 0.95924 0.40765 0.0
H2491 H 0.07382 0.93111 0.39737 0.0
O2492 O 0.0819 0.97185 0.55494 0.0
O2493 O 0.07385 0.03948 0.49883 0.0
O2494 O 0.03199 0.06385 0.50742 0.0
O2495 O 0.12392 1.00904 0.58022 0.0
O2496 O 0.03916 1.01378 0.56587 0.0
O2497 O 1.01308 0.05164 0.54594 0.0
O2498 O 0.05841 0.13734 0.5251 0.0
O2499 O 0.08632 0.09204 0.59846 0.0
O2500 O 0.07306 0.03783 0.59859 0.0
O2501 O 1.01583 0.12635 0.55017 0.0
O2502 O 0.09436 0.10171 0.53136 0.0
O2503 O 0.12166 0.06879 0.55935 0.0
C2504 C 0.04919 0.05099 0.48645 0.0
C2505 C 0.10212 0.96772 0.61237 0.0
C2506 C 0.08042 0.92464 0.64517 0.0
C2507 C 0.0875 0.94804 0.67534 0.0
C2508 C 0.10902 0.99027 0.64323 0.0
C2509 C 0.10163 0.98042 0.6743 0.0
C2510 C 0.08805 0.93464 0.61358 0.0
C2511 C 1.01272 0.02399 0.55813 0.0
C2512 C 0.10747 0.97908 0.57882 0.0
C2513 C 0.1168 0.96426 0.42694 0.0
C2514 C 0.08379 0.94821 0.42109 0.0
C2515 C 0.08247 0.06754 0.61578 0.0
C2516 C 1.01915 0.17188 0.51881 0.0
C2517 C 1.02242 0.21826 0.48709 0.0
C2518 C 0.99424 0.22359 0.49944 0.0
C2519 C 0.99074 0.17783 0.52989 0.0
C2520 C 0.03514 0.19235 0.49733 0.0
C2521 C 0.97855 0.20348 0.52037 0.0
C2522 C 0.12152 0.09397 0.54284 0.0
C2523 C 0.03185 0.14514 0.53158 0.0
H2524 H 0.08273 0.94118 0.70009 0.0
H2525 H 0.11994 1.01569 0.64345 0.0
H2526 H 0.10697 0.99794 0.69784 0.0
H2527 H 0.0825 0.91696 0.59001 0.0
H2528 H 0.98431 0.2437 0.49323 0.0
H2529 H 0.97799 0.16288 0.54648 0.0
H2530 H 0.057 0.18801 0.48852 0.0
H2531 H 0.95689 0.20796 0.5295 0.0
Tb2532 Tb 0.31234 0.84409 0.76643 0.0
C2533 C 0.24006 0.72643 0.82646 0.0
N2534 N 0.26608 0.7521 0.83913 0.0
C2535 C 0.24345 0.76225 0.891 0.0
C2536 C 0.21436 0.71832 0.84539 0.0
C2537 C 0.26847 0.7694 0.87143 0.0
C2538 C 0.21628 0.7367 0.87796 0.0
C2539 C 0.21144 0.6833 0.77906 0.0
C2540 C 0.23852 0.7092 0.79348 0.0
C2541 C 0.186 0.67498 0.79808 0.0
C2542 C 0.18743 0.69245 0.83111 0.0
Tb2543 Tb 0.30536 0.75947 0.80447 0.0
N2544 N 0.263 0.71867 0.77511 0.0
C2545 C 0.21052 0.66684 0.74572 0.0
C2546 C 0.26291 0.70163 0.74338 0.0
C2547 C 0.23645 0.67596 0.7279 0.0
H2548 H 0.2898 0.7882 0.8828 0.0
H2549 H 0.23627 0.66289 0.70246 0.0
H2550 H 0.29601 0.8249 0.67935 0.0
H2551 H 0.41064 0.9305 0.85261 0.0
H2552 H 0.28371 0.70682 0.73061 0.0
H2553 H 0.1901 0.6469 0.73365 0.0
H2554 H 0.35751 0.89041 0.83747 0.0
H2555 H 0.24523 0.77631 0.9163 0.0
H2556 H 0.16496 0.65522 0.78735 0.0
H2557 H 0.16748 0.68588 0.84532 0.0
H2558 H 0.32542 0.83517 0.63053 0.0
H2559 H 0.197 0.73129 0.8933 0.0
H2560 H 0.44374 0.94368 0.80676 0.0
N2561 N 0.33579 0.85141 0.71808 0.0
C2562 C 0.36563 0.87264 0.72438 0.0
C2563 C 0.33722 0.84542 0.65684 0.0
C2564 C 0.38279 0.8803 0.697 0.0
C2565 C 0.32086 0.839 0.68474 0.0
C2566 C 0.36846 0.86583 0.663 0.0
N2567 N 0.36171 0.8795 0.78433 0.0
C2568 C 0.37219 0.89542 0.8176 0.0
C2569 C 0.40879 0.91082 0.76564 0.0
C2570 C 0.37858 0.8878 0.75834 0.0
C2571 C 0.4206 0.92589 0.80007 0.0
C2572 C 0.40207 0.91839 0.82609 0.0
H2573 H 0.38088 0.87104 0.64125 0.0
H2574 H 0.42682 0.90877 0.68356 0.0
H2575 H 0.44955 0.93542 0.74357 0.0
O2576 O 0.29758 0.88293 0.79342 0.0
O2577 O 0.36117 0.83245 0.78324 0.0
O2578 O 0.35742 0.78606 0.80941 0.0
O2579 O 0.29731 0.87811 0.73836 0.0
O2580 O 0.29715 0.83287 0.81458 0.0
O2581 O 0.32614 0.80341 0.84223 0.0
O2582 O 0.32239 0.71656 0.79423 0.0
O2583 O 0.25775 0.77339 0.78878 0.0
O2584 O 0.26049 0.81544 0.75591 0.0
O2585 O 0.31906 0.73762 0.8468 0.0
O2586 O 0.3208 0.76487 0.75405 0.0
O2587 O 0.29298 0.79902 0.72987 0.0
C2588 C 0.37503 0.81179 0.79899 0.0
C2589 C 0.25691 0.90092 0.75978 0.0
C2590 C 0.22078 0.93708 0.77039 0.0
C2591 C 0.19573 0.91458 0.74706 0.0
C2592 C 0.23123 0.87896 0.73685 0.0
C2593 C 0.20087 0.88575 0.73068 0.0
C2594 C 0.25161 0.9301 0.7765 0.0
C2595 C 0.31698 0.83042 0.84125 0.0
C2596 C 0.28942 0.894 0.76508 0.0
C2597 C 0.41327 0.90269 0.70428 0.0
C2598 C 0.42618 0.91796 0.73846 0.0
C2599 C 0.24346 0.79203 0.77035 0.0
C2600 C 0.3382 0.68832 0.84197 0.0
C2601 C 0.37088 0.64812 0.84162 0.0
C2602 C 0.36249 0.64174 0.87392 0.0
C2603 C 0.33027 0.68137 0.87421 0.0
C2604 C 0.35816 0.67118 0.82533 0.0
C2605 C 0.3422 0.6581 0.88992 0.0
C2606 C 0.30514 0.7734 0.7272 0.0
C2607 C 0.32657 0.7145 0.82716 0.0
H2608 H 0.17224 0.91965 0.74079 0.0
H2609 H 0.23463 0.85657 0.72341 0.0
H2610 H 0.18129 0.86875 0.7128 0.0
H2611 H 0.27134 0.94719 0.79413 0.0
H2612 H 0.37157 0.62386 0.88678 0.0
H2613 H 0.31485 0.69403 0.88741 0.0
H2614 H 0.36469 0.67655 0.8006 0.0
H2615 H 0.33591 0.65291 0.91476 0.0
Tb2616 Tb 0.54838 0.08223 1.00238 0.0
C2617 C 0.6357 0.03358 0.11483 0.0
N2618 N 0.61806 0.02442 0.08224 0.0
C2619 C 0.66559 1.01409 0.06042 0.0
C2620 C 0.66891 0.03333 0.12128 0.0
C2621 C 0.63287 1.01486 0.05509 0.0
C2622 C 0.68369 0.02331 0.09359 0.0
C2623 C 0.63851 0.05474 0.17579 0.0
C2624 C 0.62084 0.04444 0.14184 0.0
C2625 C 0.67144 0.05438 0.18216 0.0
C2626 C 0.6866 0.04374 0.15498 0.0
Tb2627 Tb 0.56505 0.02957 0.07849 0.0
N2628 N 0.5892 0.04528 0.13488 0.0
C2629 C 0.62262 0.06533 0.20236 0.0
C2630 C 0.57328 0.05455 0.16092 0.0
C2631 C 0.58983 0.06513 0.19488 0.0
H2632 H 0.62066 1.00873 0.02877 0.0
H2633 H 0.57735 0.07336 0.21522 0.0
H2634 H 0.47112 0.08923 1.00174 0.0
H2635 H 0.61209 0.06298 0.89488 0.0
H2636 H 0.54786 0.05438 0.15551 0.0
H2637 H 0.63541 0.07361 0.2287 0.0
H2638 H 0.60679 0.07821 0.9563 0.0
H2639 H 0.67699 1.0068 0.03868 0.0
H2640 H 0.68543 0.0624 0.208 0.0
H2641 H 0.7121 0.04381 0.16025 0.0
H2642 H 0.41947 0.07101 0.96143 0.0
H2643 H 0.70916 0.02304 0.09746 0.0
H2644 H 0.56272 0.04175 0.85055 0.0
N2645 N 0.49864 0.06933 0.96667 0.0
C2646 C 0.49861 0.0571 0.93303 0.0
C2647 C 0.44147 0.06643 0.95325 0.0
C2648 C 0.46974 0.04762 0.90857 0.0
C2649 C 0.47087 0.07614 0.9763 0.0
C2650 C 0.44079 0.05158 0.91939 0.0
N2651 N 0.5553 0.06737 0.94651 0.0
C2652 C 0.58527 0.06996 0.93695 0.0
C2653 C 0.52974 0.04668 0.88729 0.0
C2654 C 0.52806 0.05665 0.92246 0.0
C2655 C 0.56036 0.04894 0.87735 0.0
C2656 C 0.58829 0.06099 0.90227 0.0
H2657 H 0.41816 0.04475 0.90136 0.0
H2658 H 0.44896 0.0282 0.85477 0.0
H2659 H 0.50161 0.02743 0.83611 0.0
O2660 O 0.53831 0.12293 0.98294 0.0
O2661 O 0.50944 0.06594 0.03089 0.0
O2662 O 0.52405 0.02006 0.03696 0.0
O2663 O 0.58525 0.1257 0.01163 0.0
O2664 O 0.55628 0.03307 0.9814 0.0
O2665 O 0.56628 1.00373 0.02644 0.0
O2666 O 0.52471 1.00644 0.09875 0.0
O2667 O 0.59747 0.07618 0.07819 0.0
O2668 O 0.59489 0.07217 0.01996 0.0
O2669 O 0.56467 0.98385 0.09258 0.0
O2670 O 0.55016 0.07438 0.0999 0.0
O2671 O 0.5436 0.10523 0.0554 0.0
C2672 C 0.5022 0.03669 0.03777 0.0
C2673 C 0.58165 0.16113 0.97029 0.0
C2674 C 0.61404 0.16772 0.92419 0.0
C2675 C 0.60107 0.19385 0.91641 0.0
C2676 C 0.56928 0.18762 0.96278 0.0
C2677 C 0.5794 0.20425 0.93626 0.0
C2678 C 0.60525 0.15242 0.95214 0.0
C2679 C 0.56313 1.00686 0.99306 0.0
C2680 C 0.56722 0.14119 0.99461 0.0
C2681 C 0.47094 0.03595 0.87382 0.0
C2682 C 0.50092 0.03558 0.86317 0.0
C2683 C 0.6112 0.08249 0.05134 0.0
C2684 C 0.53372 0.96869 0.13606 0.0
C2685 C 0.51414 0.96985 0.19121 0.0
C2686 C 0.52369 0.94129 0.19609 0.0
C2687 C 0.54348 0.94014 0.14105 0.0
C2688 C 0.51887 0.98324 0.16123 0.0
C2689 C 0.53847 0.92653 0.171 0.0
C2690 C 0.54511 0.10131 0.08867 0.0
C2691 C 0.53683 0.98155 0.10348 0.0
H2692 H 0.60743 0.20591 0.89477 0.0
H2693 H 0.55117 0.19486 0.97682 0.0
H2694 H 0.56953 0.22443 0.93024 0.0
H2695 H 0.61547 0.13264 0.95848 0.0
H2696 H 0.51994 0.93068 0.21928 0.0
H2697 H 0.55454 0.92815 0.12159 0.0
H2698 H 0.51033 1.00474 0.15746 0.0
H2699 H 0.54591 0.90448 0.17467 0.0
Tb2700 Tb 0.2938 0.26576 0.27966 0.0
C2701 C 0.4057 0.36298 0.36283 0.0
N2702 N 0.37452 0.35292 0.36861 0.0
C2703 C 0.39482 0.34722 0.42688 0.0
C2704 C 0.43247 0.36341 0.38802 0.0
C2705 C 0.36913 0.34773 0.40128 0.0
C2706 C 0.42658 0.35427 0.41992 0.0
C2707 C 0.44267 0.38805 0.32642 0.0
C2708 C 0.41093 0.37541 0.33263 0.0
C2709 C 0.46933 0.38678 0.35052 0.0
C2710 C 0.46422 0.37434 0.38117 0.0
Tb2711 Tb 0.33497 0.35336 0.32288 0.0
N2712 N 0.38459 0.37532 0.30934 0.0
C2713 C 0.44658 0.40196 0.29639 0.0
C2714 C 0.38814 0.39031 0.28093 0.0
C2715 C 0.41917 0.4035 0.2738 0.0
H2716 H 0.34536 0.34505 0.40857 0.0
H2717 H 0.42191 0.41481 0.25091 0.0
H2718 H 0.26293 0.29287 0.20937 0.0
H2719 H 0.23625 0.18667 0.36309 0.0
H2720 H 0.36703 0.39186 0.26371 0.0
H2721 H 0.47059 0.41202 0.29072 0.0
H2722 H 0.28241 0.21984 0.34238 0.0
H2723 H 0.39014 0.34219 0.45229 0.0
H2724 H 0.49395 0.39594 0.34605 0.0
H2725 H 0.48502 0.37414 0.39982 0.0
H2726 H 0.20927 0.289 0.17686 0.0
H2727 H 0.44644 0.35434 0.44 0.0
H2728 H 0.18045 0.17862 0.33174 0.0
N2729 N 0.24523 0.26359 0.24611 0.0
C2730 C 0.21872 0.24328 0.25417 0.0
C2731 C 0.21159 0.27619 0.19871 0.0
C2732 C 0.18739 0.2398 0.23556 0.0
C2733 C 0.24216 0.27877 0.21776 0.0
C2734 C 0.18407 0.25716 0.20805 0.0
N2735 N 0.25324 0.23352 0.3016 0.0
C2736 C 0.25821 0.2182 0.32956 0.0
C2737 C 0.19571 0.20857 0.29355 0.0
C2738 C 0.22283 0.22821 0.28315 0.0
C2739 C 0.20065 0.19388 0.32292 0.0
C2740 C 0.23206 0.19856 0.34084 0.0
H2741 H 0.16043 0.2564 0.19403 0.0
H2742 H 0.13612 0.21719 0.23182 0.0
H2743 H 0.14344 0.18948 0.28222 0.0
O2744 O 0.2928 0.21595 0.27461 0.0
O2745 O 0.25697 0.29527 0.29411 0.0
O2746 O 0.2826 0.34301 0.3311 0.0
O2747 O 0.29666 0.24091 0.23094 0.0
O2748 O 0.31584 0.27114 0.33491 0.0
O2749 O 0.3104 0.32117 0.35714 0.0
O2750 O 0.3201 0.39444 0.30895 0.0
O2751 O 0.36658 0.32653 0.29295 0.0
O2752 O 0.34779 0.27314 0.29672 0.0
O2753 O 0.34946 0.39711 0.35809 0.0
O2754 O 0.31411 0.34831 0.26725 0.0
O2755 O 0.31611 0.29719 0.24376 0.0
C2756 C 0.25524 0.32185 0.31519 0.0
C2757 C 0.3271 0.20135 0.23573 0.0
C2758 C 0.36744 0.17079 0.25137 0.0
C2759 C 0.38147 0.17824 0.22198 0.0
C2760 C 0.34161 0.20825 0.20654 0.0
C2761 C 0.36864 0.19685 0.19987 0.0
C2762 C 0.34008 0.18237 0.25795 0.0
C2763 C 0.3105 0.29094 0.36085 0.0
C2764 C 0.29896 0.21449 0.24308 0.0
C2765 C 0.16039 0.22012 0.24576 0.0
C2766 C 0.16455 0.20444 0.27457 0.0
C2767 C 0.37168 0.29675 0.29112 0.0
C2768 C 0.30912 0.42689 0.35706 0.0
C2769 C 0.27274 0.46371 0.35784 0.0
C2770 C 0.2657 0.45567 0.39011 0.0
C2771 C 0.30135 0.41909 0.38914 0.0
C2772 C 0.29462 0.4491 0.3415 0.0
C2773 C 0.27983 0.43347 0.40548 0.0
C2774 C 0.31793 0.32792 0.24086 0.0
C2775 C 0.33181 0.41168 0.33943 0.0
H2776 H 0.40208 0.16924 0.21565 0.0
H2777 H 0.33216 0.22261 0.18887 0.0
H2778 H 0.37964 0.20234 0.17733 0.0
H2779 H 0.32925 0.17707 0.28066 0.0
H2780 H 0.24964 0.46689 0.40386 0.0
H2781 H 0.31177 0.40177 0.40159 0.0
H2782 H 0.30015 0.4546 0.31647 0.0
H2783 H 0.27413 0.42743 0.43025 0.0
Tb2784 Tb 0.58689 0.51948 0.04976 0.0
C2785 C 0.53797 0.62151 0.13092 0.0
N2786 N 0.52231 0.60026 0.10179 0.0
C2787 C 0.47517 0.58637 0.12939 0.0
C2788 C 0.52354 0.62449 0.1611 0.0
C2789 C 0.49045 0.58451 0.10006 0.0
C2790 C 0.49203 0.60589 0.1603 0.0
C2791 C 0.58502 0.66419 0.15918 0.0
C2792 C 0.56814 0.64134 0.13 0.0
C2793 C 0.57132 0.66637 0.18974 0.0
C2794 C 0.54064 0.64655 0.19069 0.0
Tb2795 Tb 0.55119 0.59835 0.05626 0.0
N2796 N 0.58134 0.63747 0.10054 0.0
C2797 C 0.61519 0.68404 0.15673 0.0
C2798 C 0.60983 0.65804 0.09725 0.0
C2799 C 0.62745 0.68126 0.12547 0.0
H2800 H 0.47614 0.57137 0.07592 0.0
H2801 H 0.65044 0.69697 0.1231 0.0
H2802 H 0.66573 0.54444 0.04467 0.0
H2803 H 0.48684 0.43258 0.96434 0.0
H2804 H 0.61906 0.6564 0.07297 0.0
H2805 H 0.62892 0.7018 0.17865 0.0
H2806 H 0.51231 0.47122 0.01717 0.0
H2807 H 0.45013 0.57329 0.12787 0.0
H2808 H 0.58408 0.68352 0.21261 0.0
H2809 H 0.53008 0.64891 0.21423 0.0
H2810 H 0.70156 0.53496 1.00229 0.0
H2811 H 0.48004 0.60748 0.1829 0.0
H2812 H 0.51971 0.41995 0.91953 0.0
N2813 N 0.62308 0.51332 0.01328 0.0
C2814 C 0.61077 0.49102 0.98402 0.0
C2815 C 0.67601 0.52272 0.99668 0.0
C2816 C 0.63062 0.48453 0.95932 0.0
C2817 C 0.65543 0.52838 0.02044 0.0
C2818 C 0.66352 0.50091 0.96587 0.0
N2819 N 0.55915 0.48253 1.0023 0.0
C2820 C 0.52696 0.46704 0.99778 0.0
C2821 C 0.56431 0.45238 0.94791 0.0
C2822 C 0.57792 0.47497 0.97846 0.0
C2823 C 0.53111 0.4373 0.94273 0.0
C2824 C 0.51244 0.44453 0.96786 0.0
H2825 H 0.67956 0.49659 0.94753 0.0
H2826 H 0.63194 0.45681 0.90964 0.0
H2827 H 0.57397 0.42884 0.89959 0.0
O2828 O 0.58236 0.47081 0.05704 0.0
O2829 O 0.57473 0.53796 1.00022 0.0
O2830 O 0.53278 0.56215 1.00869 0.0
O2831 O 0.62447 0.50795 0.08214 0.0
O2832 O 0.53984 0.51324 0.06749 0.0
O2833 O 0.51394 0.55096 0.04685 0.0
O2834 O 0.55921 0.63586 0.02451 0.0
O2835 O 0.5868 0.59155 0.09939 0.0
O2836 O 0.57367 0.53734 0.10001 0.0
O2837 O 0.51662 0.62551 0.04962 0.0
O2838 O 0.59523 0.60044 0.03209 0.0
O2839 O 0.62235 0.56769 0.0607 0.0
C2840 C 0.5501 0.54945 0.98779 0.0
C2841 C 0.60265 0.46672 0.11445 0.0
C2842 C 0.58181 0.42353 0.14753 0.0
C2843 C 0.58806 0.44712 0.17746 0.0
C2844 C 0.60865 0.48945 0.14508 0.0
C2845 C 0.60131 0.47964 0.17617 0.0
C2846 C 0.58945 0.4335 0.11592 0.0
C2847 C 0.51349 0.52349 0.05943 0.0
C2848 C 0.60797 0.47802 0.08085 0.0
C2849 C 0.61708 0.462 0.92895 0.0
C2850 C 0.58405 0.44601 0.92326 0.0
C2851 C 0.5828 0.56719 0.11693 0.0
C2852 C 0.5196 0.66994 0.01661 0.0
C2853 C 0.52218 0.71507 0.98307 0.0
C2854 C 0.49323 0.71971 0.99401 0.0
C2855 C 0.49051 0.6753 0.02641 0.0
C2856 C 0.53565 0.69016 0.99492 0.0
C2857 C 0.47759 0.69998 0.0153 0.0
C2858 C 0.62231 0.59267 0.04383 0.0
C2859 C 0.53251 0.64368 0.03042 0.0
H2860 H 0.58324 0.44031 0.20222 0.0
H2861 H 0.61889 0.51498 0.14508 0.0
H2862 H 0.60601 0.49732 0.19954 0.0
H2863 H 0.58454 0.41566 0.09252 0.0
H2864 H 0.48265 0.73899 0.98636 0.0
H2865 H 0.47765 0.66053 0.04307 0.0
H2866 H 0.55805 0.68634 0.98706 0.0
H2867 H 0.45533 0.70393 0.02337 0.0
Tb2868 Tb 0.81534 0.35364 0.27941 0.0
C2869 C 0.75409 0.2313 0.34244 0.0
N2870 N 0.78359 0.25282 0.35157 0.0
C2871 C 0.77892 0.25375 0.41183 0.0
C2872 C 0.73541 0.22083 0.36778 0.0
C2873 C 0.7968 0.26294 0.3858 0.0
C2874 C 0.74789 0.23297 0.40279 0.0
C2875 C 0.7142 0.19399 0.29732 0.0
C2876 C 0.74343 0.21818 0.30767 0.0
C2877 C 0.69497 0.18431 0.32233 0.0
C2878 C 0.70549 0.19779 0.35746 0.0
Tb2879 Tb 0.81001 0.26585 0.30644 0.0
N2880 N 0.76241 0.2285 0.28404 0.0
C2881 C 0.70556 0.17981 0.26226 0.0
C2882 C 0.75507 0.21351 0.25015 0.0
C2883 C 0.72618 0.1895 0.23863 0.0
H2884 H 0.82137 0.27769 0.39322 0.0
H2885 H 0.71978 0.17851 0.21156 0.0
H2886 H 0.83301 0.33957 0.19964 0.0
H2887 H 0.88216 0.43292 0.39709 0.0
H2888 H 0.77137 0.22036 0.23212 0.0
H2889 H 0.68328 0.16114 0.25326 0.0
H2890 H 0.83453 0.39449 0.36113 0.0
H2891 H 0.78936 0.26222 0.43887 0.0
H2892 H 0.67224 0.16599 0.31487 0.0
H2893 H 0.69071 0.18959 0.37654 0.0
H2894 H 0.8779 0.36047 0.16871 0.0
H2895 H 0.73429 0.22556 0.42306 0.0
H2896 H 0.93024 0.45472 0.37075 0.0
N2897 N 0.85575 0.36901 0.24807 0.0
C2898 C 0.88142 0.39316 0.26529 0.0
C2899 C 0.87927 0.36968 0.19594 0.0
C2900 C 0.90757 0.40584 0.24855 0.0
C2901 C 0.85402 0.35757 0.2137 0.0
C2902 C 0.90618 0.39385 0.21343 0.0
N2903 N 0.8569 0.39033 0.31609 0.0
C2904 C 0.85606 0.4017 0.34991 0.0
C2905 C 0.90954 0.42704 0.31971 0.0
C2906 C 0.88233 0.40365 0.30054 0.0
C2907 C 0.90971 0.43698 0.35504 0.0
C2908 C 0.88271 0.4245 0.37009 0.0
H2909 H 0.9258 0.40297 0.19962 0.0
H2910 H 0.95503 0.43917 0.25523 0.0
H2911 H 0.95686 0.45747 0.31743 0.0
O2912 O 0.80527 0.39963 0.29042 0.0
O2913 O 0.86256 0.33638 0.28732 0.0
O2914 O 0.85787 0.30118 0.3273 0.0
O2915 O 0.79525 0.37369 0.23833 0.0
O2916 O 0.79629 0.34472 0.32691 0.0
O2917 O 0.8243 0.309 0.34597 0.0
O2918 O 0.83387 0.23502 0.27945 0.0
O2919 O 0.7614 0.27409 0.28275 0.0
O2920 O 0.76453 0.32931 0.28583 0.0
O2921 O 0.82736 0.23112 0.33196 0.0
O2922 O 0.82632 0.28026 0.25972 0.0
O2923 O 0.79673 0.3126 0.23717 0.0
C2924 C 0.87644 0.32108 0.31039 0.0
C2925 C 0.758 0.4041 0.25513 0.0
C2926 C 0.72094 0.43875 0.26822 0.0
C2927 C 0.69521 0.41457 0.24778 0.0
C2928 C 0.73147 0.38019 0.23575 0.0
C2929 C 0.70039 0.38554 0.23203 0.0
C2930 C 0.75256 0.4334 0.27143 0.0
C2931 C 0.80643 0.32966 0.3514 0.0
C2932 C 0.79109 0.39829 0.25888 0.0
C2933 C 0.9346 0.42927 0.26759 0.0
C2934 C 0.93566 0.43969 0.30307 0.0
C2935 C 0.74701 0.29876 0.2818 0.0
C2936 C 0.83168 0.18363 0.29638 0.0
C2937 C 0.85186 0.13477 0.28478 0.0
C2938 C 0.81958 0.11605 0.27704 0.0
C2939 C 0.79979 0.16424 0.28963 0.0
C2940 C 0.85774 0.16871 0.29438 0.0
C2941 C 0.7938 0.13072 0.27967 0.0
C2942 C 0.80806 0.28657 0.23377 0.0
C2943 C 0.83836 0.21933 0.30512 0.0
H2944 H 0.67098 0.41829 0.24346 0.0
H2945 H 0.73464 0.35727 0.22334 0.0
H2946 H 0.68019 0.36714 0.21672 0.0
H2947 H 0.7728 0.45168 0.28691 0.0
H2948 H 0.81428 0.08991 0.26978 0.0
H2949 H 0.77948 0.17476 0.2922 0.0
H2950 H 0.88249 0.1835 0.29994 0.0
H2951 H 0.76905 0.11602 0.27421 0.0
Tb2952 Tb 0.03967 0.58191 0.49888 0.0
C2953 C 0.10796 0.55251 0.64846 0.0
N2954 N 0.10653 0.53841 0.61519 0.0
C2955 C 0.16203 0.53581 0.62726 0.0
C2956 C 0.13702 0.55983 0.67235 0.0
C2957 C 0.13259 0.52909 0.60449 0.0
C2958 C 0.16437 0.5516 0.66123 0.0
C2959 C 0.0799 0.5721 0.69345 0.0
C2960 C 0.07978 0.55839 0.65896 0.0
C2961 C 0.10908 0.58051 0.71716 0.0
C2962 C 0.13757 0.57437 0.70664 0.0
Tb2963 Tb 0.05773 0.52944 0.58086 0.0
N2964 N 0.05208 0.55011 0.63533 0.0
C2965 C 0.05058 0.57649 0.70313 0.0
C2966 C 1.02301 0.55276 0.6449 0.0
C2967 C 1.02195 0.56645 0.67887 0.0
H2968 H 0.1306 0.51654 0.57837 0.0
H2969 H 0.99912 0.56916 0.6864 0.0
H2970 H 0.96115 0.5797 0.49336 0.0
H2971 H 0.11179 0.54932 0.40261 0.0
H2972 H 1.001 0.54501 0.62596 0.0
H2973 H 0.04968 0.58682 0.72947 0.0
H2974 H 0.1032 0.5716 0.46048 0.0
H2975 H 0.18277 0.52866 0.61861 0.0
H2976 H 0.10976 0.59131 0.74378 0.0
H2977 H 0.15977 0.58046 0.72535 0.0
H2978 H 0.9115 0.55694 0.45024 0.0
H2979 H 0.18708 0.55658 0.67892 0.0
H2980 H 0.06487 0.52563 0.35596 0.0
N2981 N 0.99216 0.56269 0.4611 0.0
C2982 C 0.99478 0.54844 0.42905 0.0
C2983 C 0.93466 0.55403 0.44401 0.0
C2984 C 0.96716 0.53582 0.40327 0.0
C2985 C 0.9628 0.56657 0.46855 0.0
C2986 C 0.93676 0.53824 0.41134 0.0
N2987 N 0.05151 0.56027 0.44721 0.0
C2988 C 0.08234 0.56119 0.4406 0.0
C2989 C 0.02939 0.53447 0.38823 0.0
C2990 C 0.02548 0.54772 0.42166 0.0
C2991 C 0.06083 0.5351 0.38146 0.0
C2992 C 0.08739 0.54855 0.40773 0.0
H2993 H 0.91493 0.52875 0.39228 0.0
H2994 H 0.94993 0.51223 0.34995 0.0
H2995 H 1.00443 0.51098 0.33679 0.0
O2996 O 0.06715 0.62991 0.50439 0.0
O2997 O 1.00509 0.56517 0.53275 0.0
O2998 O 1.00797 0.51812 0.55321 0.0
O2999 O 1.01984 0.61489 0.47297 0.0
O3000 O 0.04586 0.52989 0.48614 0.0
O3001 O 0.07666 0.51447 0.53264 0.0
O3002 O 1.01894 0.48942 0.57924 0.0
O3003 O 0.07102 0.56167 0.54684 0.0
O3004 O 0.09199 0.59396 0.51526 0.0
O3005 O 0.069 0.48583 0.59114 0.0
O3006 O 0.05573 0.58076 0.59919 0.0
O3007 O 0.03141 0.60166 0.55244 0.0
C3008 C 0.99237 0.53474 0.53435 0.0
C3009 C 0.05799 0.65609 0.45655 0.0
C3010 C 0.09143 0.66138 0.41119 0.0
C3011 C 0.0792 0.68776 0.40267 0.0
C3012 C 0.04611 0.68256 0.44817 0.0
C3013 C 0.05686 0.69846 0.42136 0.0
C3014 C 0.08089 0.64593 0.43837 0.0
C3015 C 0.06316 0.5101 0.49921 0.0
C3016 C 0.04564 0.63844 0.4834 0.0
C3017 C 0.97087 0.522 0.37012 0.0
C3018 C 1.00191 0.52137 0.3626 0.0
C3019 C 0.09778 0.57988 0.5412 0.0
C3020 C 0.02906 0.45253 0.61599 0.0
C3021 C 1.01086 0.45154 0.67209 0.0
C3022 C 1.00254 0.4174 0.66538 0.0
C3023 C 1.02097 0.4185 0.6096 0.0
C3024 C 0.02488 0.46871 0.64759 0.0
C3025 C 1.00805 0.40101 0.63444 0.0
C3026 C 0.04334 0.60362 0.5862 0.0
C3027 C 0.03825 0.47102 0.58835 0.0
H3028 H 0.08689 0.70002 0.38163 0.0
H3029 H 0.02837 0.6907 0.46211 0.0
H3030 H 0.04758 0.71882 0.41478 0.0
H3031 H 0.0899 0.62544 0.44484 0.0
H3032 H 0.99151 0.40349 0.68381 0.0
H3033 H 1.02378 0.40553 0.5851 0.0
H3034 H 0.03069 0.49476 0.65225 0.0
H3035 H 1.00141 0.37472 0.62928 0.0
Tb3036 Tb 0.85507 0.78937 0.30456 0.0
C3037 C 0.75335 0.83849 0.22328 0.0
N3038 N 0.77437 0.85411 0.25258 0.0
C3039 C 0.78824 0.90147 0.22537 0.0
C3040 C 0.7505 0.85307 0.1932 0.0
C3041 C 0.78996 0.88605 0.25458 0.0
C3042 C 0.76899 0.88467 0.19428 0.0
C3043 C 0.71093 0.79141 0.19458 0.0
C3044 C 0.73359 0.80825 0.22392 0.0
C3045 C 0.7089 0.80525 0.16411 0.0
C3046 C 0.72865 0.83603 0.16343 0.0
Tb3047 Tb 0.7762 0.82497 0.29788 0.0
N3048 N 0.7373 0.79493 0.25332 0.0
C3049 C 0.69108 0.76117 0.19679 0.0
C3050 C 0.71671 0.76638 0.25638 0.0
C3051 C 0.69367 0.74881 0.22799 0.0
H3052 H 0.80288 0.90028 0.27886 0.0
H3053 H 0.67794 0.72578 0.23018 0.0
H3054 H 0.83013 0.71052 0.30952 0.0
H3055 H 0.94171 0.88938 0.39026 0.0
H3056 H 0.71822 0.75706 0.2806 0.0
H3057 H 0.67345 0.74748 0.17473 0.0
H3058 H 0.90325 0.86392 0.33729 0.0
H3059 H 0.80122 0.92657 0.22709 0.0
H3060 H 0.69189 0.79254 0.14111 0.0
H3061 H 0.72639 0.8467 0.13997 0.0
H3062 H 0.83942 0.6747 0.35192 0.0
H3063 H 0.76749 0.89678 0.17177 0.0
H3064 H 0.9541 0.85653 0.43515 0.0
N3065 N 0.86107 0.75319 0.34106 0.0
C3066 C 0.88323 0.7655 0.37042 0.0
C3067 C 0.85163 0.70026 0.3576 0.0
C3068 C 0.88964 0.74565 0.39513 0.0
C3069 C 0.84606 0.72083 0.33382 0.0
C3070 C 0.8733 0.71275 0.3885 0.0
N3071 N 0.89181 0.81711 0.35216 0.0
C3072 C 0.90733 0.84927 0.35671 0.0
C3073 C 0.92171 0.81196 0.40669 0.0
C3074 C 0.89924 0.79835 0.37606 0.0
C3075 C 0.93682 0.84514 0.4119 0.0
C3076 C 0.92973 0.8638 0.38671 0.0
H3077 H 0.87755 0.69671 0.40685 0.0
H3078 H 0.91723 0.74432 0.44487 0.0
H3079 H 0.94523 0.80225 0.45495 0.0
O3080 O 0.90379 0.79398 0.29728 0.0
O3081 O 0.83632 0.80149 0.35399 0.0
O3082 O 0.81224 0.84349 0.34557 0.0
O3083 O 0.86674 0.75174 0.2724 0.0
O3084 O 0.86144 0.83645 0.28686 0.0
O3085 O 0.8236 0.86232 0.3073 0.0
O3086 O 0.73871 0.81658 0.32955 0.0
O3087 O 0.78308 0.78935 0.25479 0.0
O3088 O 0.83731 0.80258 0.25429 0.0
O3089 O 0.74866 0.85924 0.30455 0.0
O3090 O 0.77403 0.78089 0.32196 0.0
O3091 O 0.80688 0.75384 0.29344 0.0
C3092 C 0.82487 0.82614 0.36647 0.0
C3093 C 0.90789 0.77337 0.23992 0.0
C3094 C 0.95103 0.79354 0.20648 0.0
C3095 C 0.92732 0.78747 0.17669 0.0
C3096 C 0.88505 0.76746 0.2094 0.0
C3097 C 0.89477 0.7746 0.1782 0.0
C3098 C 0.94116 0.78617 0.23822 0.0
C3099 C 0.85113 0.86279 0.29478 0.0
C3100 C 0.89665 0.76826 0.27361 0.0
C3101 C 0.91207 0.75919 0.42557 0.0
C3102 C 0.92805 0.79221 0.43131 0.0
C3103 C 0.8075 0.79332 0.23731 0.0
C3104 C 0.70421 0.85567 0.33768 0.0
C3105 C 0.65897 0.85226 0.37112 0.0
C3106 C 0.65446 0.88158 0.36113 0.0
C3107 C 0.69895 0.88506 0.32871 0.0
C3108 C 0.68385 0.83903 0.35887 0.0
C3109 C 0.67427 0.89775 0.34024 0.0
C3110 C 0.78185 0.75383 0.31026 0.0
C3111 C 0.73061 0.84315 0.32372 0.0
H3112 H 0.93406 0.7921 0.15184 0.0
H3113 H 0.85951 0.75743 0.20954 0.0
H3114 H 0.87703 0.76998 0.15492 0.0
H3115 H 0.9591 0.79096 0.26152 0.0
H3116 H 0.63525 0.89202 0.3693 0.0
H3117 H 0.71384 0.89837 0.31244 0.0
H3118 H 0.68755 0.81637 0.36607 0.0
H3119 H 0.67042 0.92028 0.33286 0.0
Tb3120 Tb 0.79337 0.33293 0.85298 0.0
C3121 C 0.84073 0.24681 0.73759 0.0
N3122 N 0.8516 0.26355 0.77039 0.0
C3123 C 0.86442 0.21576 0.7889 0.0
C3124 C 0.841 0.21376 0.72941 0.0
C3125 C 0.86385 0.24846 0.79585 0.0
C3126 C 0.85282 0.19828 0.75562 0.0
C3127 C 0.81833 0.24636 0.67756 0.0
C3128 C 0.8291 0.26273 0.71199 0.0
C3129 C 0.81811 0.2134 0.66955 0.0
C3130 C 0.82933 0.19713 0.69543 0.0
Tb3131 Tb 0.84662 0.31641 0.77754 0.0
N3132 N 0.82909 0.29443 0.72056 0.0
C3133 C 0.80857 0.26374 0.65205 0.0
C3134 C 0.82108 0.31189 0.69543 0.0
C3135 C 0.81036 0.29677 0.66097 0.0
H3136 H 0.87277 0.26071 0.82193 0.0
H3137 H 0.80346 0.3106 0.64133 0.0
H3138 H 0.76671 0.39641 0.83199 0.0
H3139 H 0.83278 0.31092 0.98214 0.0
H3140 H 0.82267 0.33756 0.7019 0.0
H3141 H 0.8002 0.25206 0.62532 0.0
H3142 H 0.80709 0.29549 0.92052 0.0
H3143 H 0.87371 0.20399 0.80937 0.0
H3144 H 0.80961 0.20035 0.64334 0.0
H3145 H 0.8292 0.17174 0.68881 0.0
H3146 H 0.77666 0.45484 0.85553 0.0
H3147 H 0.85318 0.17289 0.75043 0.0
H3148 H 0.85479 0.36895 1.0074 0.0
N3149 N 0.7983 0.38675 0.87353 0.0
C3150 C 0.81596 0.39826 0.90555 0.0
C3151 C 0.78823 0.43927 0.86967 0.0
C3152 C 0.82209 0.43126 0.92023 0.0
C3153 C 0.78262 0.40623 0.85647 0.0
C3154 C 0.80855 0.45197 0.90142 0.0
N3155 N 0.81439 0.34419 0.91105 0.0
C3156 C 0.81573 0.32087 0.93159 0.0
C3157 C 0.83941 0.38609 0.96006 0.0
C3158 C 0.82435 0.37605 0.92514 0.0
C3159 C 0.84331 0.3623 0.98045 0.0
C3160 C 0.83069 0.32953 0.96637 0.0
H3161 H 0.8121 0.47731 0.91206 0.0
H3162 H 0.84524 0.46734 0.9655 0.0
H3163 H 0.86046 0.42767 1.00049 0.0
O3164 O 0.75544 0.33609 0.8813 0.0
O3165 O 0.81368 0.3689 0.82277 0.0
O3166 O 0.86215 0.35836 0.81887 0.0
O3167 O 0.74837 0.29881 0.83718 0.0
O3168 O 0.8395 0.31822 0.87263 0.0
O3169 O 0.87198 0.31491 0.82925 0.0
O3170 O 0.87127 0.35576 0.75684 0.0
O3171 O 0.80112 0.28411 0.78316 0.0
O3172 O 0.8026 0.28527 0.84129 0.0
O3173 O 0.89175 0.31443 0.76346 0.0
O3174 O 0.80208 0.33214 0.75672 0.0
O3175 O 0.76937 0.3358 0.79998 0.0
C3176 C 0.84476 0.37905 0.82497 0.0
C3177 C 0.71556 0.28841 0.88005 0.0
C3178 C 0.71168 0.25052 0.9209 0.0
C3179 C 0.67869 0.24995 0.92015 0.0
C3180 C 0.68244 0.28738 0.87887 0.0
C3181 C 0.66397 0.26785 0.8986 0.0
C3182 C 0.72981 0.26904 0.90007 0.0
C3183 C 0.86701 0.31423 0.86171 0.0
C3184 C 0.73516 0.31119 0.86187 0.0
C3185 C 0.83967 0.44195 0.95399 0.0
C3186 C 0.84834 0.41936 0.97391 0.0
C3187 C 0.798 0.269 0.80983 0.0
C3188 C 0.9052 0.34161 0.71703 0.0
C3189 C 0.89946 0.35631 0.65962 0.0
C3190 C 0.92066 0.33748 0.64969 0.0
C3191 C 0.92706 0.32327 0.70735 0.0
C3192 C 0.89268 0.35918 0.6934 0.0
C3193 C 0.93492 0.32147 0.67383 0.0
C3194 C 0.77418 0.33517 0.7671 0.0
C3195 C 0.89487 0.34175 0.75127 0.0
H3196 H 0.66468 0.23622 0.93678 0.0
H3197 H 0.67107 0.3021 0.8632 0.0
H3198 H 0.63852 0.26742 0.89805 0.0
H3199 H 0.75523 0.26955 0.90073 0.0
H3200 H 0.92604 0.33518 0.62343 0.0
H3201 H 0.93765 0.30999 0.72548 0.0
H3202 H 0.87621 0.37389 0.70054 0.0
H3203 H 0.95151 0.3071 0.66637 0.0
Tb3204 Tb 0.79622 0.76172 0.77874 0.0
C3205 C 0.90622 0.85929 0.85988 0.0
N3206 N 0.87516 0.8486 0.86587 0.0
C3207 C 0.89624 0.84155 0.92338 0.0
C3208 C 0.93327 0.85923 0.88445 0.0
C3209 C 0.87026 0.84258 0.89843 0.0
C3210 C 0.92784 0.84905 0.91602 0.0
C3211 C 0.94262 0.8857 0.82368 0.0
C3212 C 0.91103 0.87269 0.8301 0.0
C3213 C 0.96953 0.88402 0.84716 0.0
C3214 C 0.96486 0.87068 0.8774 0.0
Tb3215 Tb 0.83514 0.85027 0.82115 0.0
N3216 N 0.88445 0.87284 0.80724 0.0
C3217 C 0.94613 0.90023 0.79397 0.0
C3218 C 0.88762 0.88828 0.77909 0.0
C3219 C 0.91849 0.90189 0.77183 0.0
H3220 H 0.84672 0.83982 0.90626 0.0
H3221 H 0.92093 0.91359 0.74915 0.0
H3222 H 0.76326 0.78708 0.70836 0.0
H3223 H 0.74284 0.68006 0.86201 0.0
H3224 H 0.86633 0.88983 0.76215 0.0
H3225 H 0.97 0.91058 0.78815 0.0
H3226 H 0.78761 0.71523 0.84111 0.0
H3227 H 0.89192 0.83584 0.94868 0.0
H3228 H 0.99404 0.89347 0.8425 0.0
H3229 H 0.98587 0.87014 0.89558 0.0
H3230 H 0.7091 0.78037 0.67557 0.0
H3231 H 0.94793 0.8487 0.93562 0.0
H3232 H 0.68658 0.66973 0.83103 0.0
N3233 N 0.74708 0.75706 0.7451 0.0
C3234 C 0.72136 0.73581 0.75333 0.0
C3235 C 0.71222 0.76787 0.69755 0.0
C3236 C 0.6898 0.73083 0.73469 0.0
C3237 C 0.74306 0.77201 0.71671 0.0
C3238 C 0.68547 0.74765 0.70694 0.0
N3239 N 0.75707 0.72752 0.80048 0.0
C3240 C 0.76312 0.71243 0.82837 0.0
C3241 C 0.70014 0.70027 0.79279 0.0
C3242 C 0.72646 0.721 0.78227 0.0
C3243 C 0.70613 0.6858 0.8221 0.0
C3244 C 0.73781 0.69174 0.8398 0.0
H3245 H 0.66162 0.74553 0.6928 0.0
H3246 H 0.63913 0.70596 0.73093 0.0
H3247 H 0.64821 0.67899 0.78163 0.0
O3248 O 0.80016 0.71311 0.77496 0.0
O3249 O 0.7578 0.7891 0.79346 0.0
O3250 O 0.78176 0.8402 0.82501 0.0
O3251 O 0.79941 0.73675 0.73025 0.0
O3252 O 0.81728 0.76871 0.83445 0.0
O3253 O 0.80999 0.81832 0.85532 0.0
O3254 O 0.82289 0.8928 0.80822 0.0
O3255 O 0.86669 0.82427 0.79051 0.0
O3256 O 0.85001 0.77158 0.79721 0.0
O3257 O 0.8485 0.89252 0.85859 0.0
O3258 O 0.81387 0.84496 0.7657 0.0
O3259 O 0.81676 0.79398 0.74235 0.0
C3260 C 0.75508 0.81702 0.81134 0.0
C3261 C 0.83484 0.70143 0.7349 0.0
C3262 C 0.87664 0.67122 0.74647 0.0
C3263 C 0.89127 0.68328 0.71912 0.0
C3264 C 0.85027 0.71302 0.70786 0.0
C3265 C 0.87824 0.70405 0.70018 0.0
C3266 C 0.84816 0.68036 0.75406 0.0
C3267 C 0.81041 0.78826 0.85957 0.0
C3268 C 0.8052 0.71166 0.74303 0.0
C3269 C 0.66355 0.71009 0.74497 0.0
C3270 C 0.66872 0.69479 0.7739 0.0
C3271 C 0.87287 0.7951 0.78996 0.0
C3272 C 0.8093 0.92359 0.85568 0.0
C3273 C 0.77325 0.96059 0.85397 0.0
C3274 C 0.76409 0.95216 0.88539 0.0
C3275 C 0.79942 0.9153 0.88679 0.0
C3276 C 0.79598 0.94605 0.83932 0.0
C3277 C 0.77699 0.92958 0.90149 0.0
C3278 C 0.81764 0.82459 0.73927 0.0
C3279 C 0.83287 0.90853 0.83961 0.0
H3280 H 0.91262 0.67631 0.71185 0.0
H3281 H 0.84078 0.72913 0.69253 0.0
H3282 H 0.88984 0.71314 0.67928 0.0
H3283 H 0.83664 0.67153 0.77513 0.0
H3284 H 0.74732 0.96334 0.89795 0.0
H3285 H 0.8089 0.89772 0.89976 0.0
H3286 H 0.8031 0.9518 0.81493 0.0
H3287 H 0.76965 0.92322 0.92555 0.0
Tb3288 Tb 0.60937 0.58256 0.57649 0.0
C3289 C 0.51765 0.46992 0.49329 0.0
N3290 N 0.52676 0.50113 0.4873 0.0
C3291 C 0.53547 0.48109 0.43011 0.0
C3292 C 0.51948 0.4434 0.46896 0.0
C3293 C 0.53271 0.50647 0.45484 0.0
C3294 C 0.52972 0.44952 0.43758 0.0
C3295 C 0.49224 0.43237 0.52896 0.0
C3296 C 0.50395 0.46426 0.5227 0.0
C3297 C 0.49583 0.40608 0.50585 0.0
C3298 C 0.50961 0.4116 0.47603 0.0
Tb3299 Tb 0.52274 0.54029 0.53175 0.0
N3300 N 0.50208 0.49033 0.54529 0.0
C3301 C 0.47703 0.42794 0.55809 0.0
C3302 C 0.48591 0.4862 0.57281 0.0
C3303 C 0.47344 0.45498 0.57983 0.0
H3304 H 0.53422 0.52989 0.44699 0.0
H3305 H 0.46116 0.45179 0.60203 0.0
H3306 H 0.57973 0.61461 0.64435 0.0
H3307 H 0.69201 0.63847 0.4953 0.0
H3308 H 0.48288 0.50701 0.58944 0.0
H3309 H 0.46758 0.40381 0.56374 0.0
H3310 H 0.65754 0.59281 0.51554 0.0
H3311 H 0.54116 0.4858 0.40492 0.0
H3312 H 0.48749 0.38138 0.51045 0.0
H3313 H 0.51165 0.39103 0.45813 0.0
H3314 H 0.58266 0.66866 0.67527 0.0
H3315 H 0.53139 0.42986 0.41816 0.0
H3316 H 0.69969 0.69454 0.5257 0.0
N3317 N 0.61088 0.63153 0.60885 0.0
C3318 C 0.63188 0.65775 0.60116 0.0
C3319 C 0.59651 0.66592 0.65436 0.0
C3320 C 0.6349 0.68929 0.61899 0.0
C3321 C 0.59453 0.63511 0.63623 0.0
C3322 C 0.6162 0.69315 0.64522 0.0
N3323 N 0.643 0.62257 0.55518 0.0
C3324 C 0.65912 0.61716 0.52794 0.0
C3325 C 0.66827 0.67999 0.56288 0.0
C3326 C 0.64797 0.65316 0.57306 0.0
C3327 C 0.68392 0.67457 0.53433 0.0
C3328 C 0.67946 0.643 0.51694 0.0
H3329 H 0.61635 0.71698 0.65827 0.0
H3330 H 0.65791 0.74041 0.62248 0.0
H3331 H 0.68747 0.73223 0.57371 0.0
O3332 O 0.65956 0.58563 0.58488 0.0
O3333 O 0.58019 0.61908 0.56099 0.0
O3334 O 0.53118 0.59338 0.52614 0.0
O3335 O 0.63146 0.57741 0.6257 0.0
O3336 O 0.60491 0.56083 0.52121 0.0
O3337 O 0.55506 0.56629 0.49847 0.0
O3338 O 0.47921 0.55139 0.54318 0.0
O3339 O 0.54998 0.51028 0.56343 0.0
O3340 O 0.60292 0.52891 0.55836 0.0
O3341 O 0.48081 0.52424 0.49403 0.0
O3342 O 0.52542 0.56096 0.58702 0.0
O3343 O 0.57687 0.56106 0.61203 0.0
C3344 C 0.55294 0.62074 0.5411 0.0
C3345 C 0.67358 0.55024 0.62261 0.0
C3346 C 0.70207 0.5087 0.60489 0.0
C3347 C 0.70039 0.49841 0.63739 0.0
C3348 C 0.6723 0.53944 0.65474 0.0
C3349 C 0.68548 0.51359 0.66194 0.0
C3350 C 0.68844 0.53466 0.59771 0.0
C3351 C 0.58549 0.56657 0.49517 0.0
C3352 C 0.65927 0.57763 0.61555 0.0
C3353 C 0.65529 0.716 0.60909 0.0
C3354 C 0.67203 0.71135 0.58121 0.0
C3355 C 0.57961 0.50502 0.56447 0.0
C3356 C 0.44621 0.56018 0.49421 0.0
C3357 C 0.40394 0.59044 0.4922 0.0
C3358 C 0.4109 0.59786 0.45964 0.0
C3359 C 0.45313 0.56859 0.46211 0.0
C3360 C 0.42193 0.57148 0.50928 0.0
C3361 C 0.43549 0.58727 0.44499 0.0
C3362 C 0.54584 0.55864 0.61416 0.0
C3363 C 0.46368 0.53927 0.51205 0.0
H3364 H 0.71128 0.47911 0.64431 0.0
H3365 H 0.66108 0.55104 0.67433 0.0
H3366 H 0.68447 0.50551 0.68685 0.0
H3367 H 0.68921 0.54254 0.57267 0.0
H3368 H 0.39711 0.61151 0.44509 0.0
H3369 H 0.47199 0.56057 0.45005 0.0
H3370 H 0.41736 0.56562 0.53447 0.0
H3371 H 0.44068 0.59332 0.42007 0.0
Tb3372 Tb 1.0233 0.55929 0.06937 0.0
C3373 C 0.14724 0.62602 0.01799 0.0
N3374 N 0.12643 0.59647 1.00597 0.0
C3375 C 0.12731 0.60647 0.94735 0.0
C3376 C 0.15802 0.64743 0.99512 0.0
C3377 C 0.11797 0.58579 0.97102 0.0
C3378 C 0.14702 0.63763 0.95946 0.0
C3379 C 0.18297 0.66323 0.06646 0.0
C3380 C 0.15945 0.634 0.0532 0.0
C3381 C 0.19285 0.68516 0.04396 0.0
C3382 C 0.18029 0.67735 1.0084 0.0
Tb3383 Tb 0.11241 0.5656 0.0477 0.0
N3384 N 0.14878 0.61252 0.07439 0.0
C3385 C 0.19619 0.66921 0.10182 0.0
C3386 C 0.1628 0.61738 0.10848 0.0
C3387 C 0.18622 0.64607 0.12284 0.0
H3388 H 0.10455 0.56111 0.96116 0.0
H3389 H 0.19664 0.65027 0.15006 0.0
H3390 H 0.03201 0.53926 0.14814 0.0
H3391 H 0.94754 0.49625 0.94772 0.0
H3392 H 0.15581 0.59917 0.12447 0.0
H3393 H 0.21437 0.69136 0.11301 0.0
H3394 H 0.98427 0.54315 0.98647 0.0
H3395 H 0.11985 0.59811 0.91973 0.0
H3396 H 0.2106 0.70795 0.05369 0.0
H3397 H 0.18866 0.69421 0.99124 0.0
H3398 H 1.00856 0.49345 0.1767 0.0
H3399 H 0.15464 0.6534 0.94102 0.0
H3400 H 0.92401 0.44702 0.9712 0.0
N3401 N 1.00497 0.51769 0.09824 0.0
C3402 C 0.98138 0.49243 0.0794 0.0
C3403 C 1.00088 0.49277 0.14926 0.0
C3404 C 0.96731 0.46574 0.09468 0.0
C3405 C 1.01441 0.51855 0.13289 0.0
C3406 C 0.97732 0.46621 0.13008 0.0
N3407 N 0.987 0.5189 0.03032 0.0
C3408 C 0.97677 0.52101 0.99654 0.0
C3409 C 0.94979 0.46599 0.02338 0.0
C3410 C 0.97277 0.49265 0.04415 0.0
C3411 C 0.94138 0.46707 0.9881 0.0
C3412 C 0.95475 0.4948 0.97472 0.0
H3413 H 0.96709 0.44617 0.14281 0.0
H3414 H 0.93355 0.41835 0.08523 0.0
H3415 H 0.91831 0.4185 0.02283 0.0
O3416 O 0.97724 0.56956 0.05932 0.0
O3417 O 0.04118 0.5126 0.06504 0.0
O3418 O 0.07794 0.51711 0.02679 0.0
O3419 O 1.00477 0.58102 0.1107 0.0
O3420 O 0.03396 0.57751 0.02158 0.0
O3421 O 0.07127 0.55001 1.00562 0.0
O3422 O 0.14338 0.54084 0.07298 0.0
O3423 O 0.10239 0.61247 0.07384 0.0
O3424 O 0.04757 0.60918 0.06035 0.0
O3425 O 0.14846 0.55134 0.02184 0.0
O3426 O 0.09823 0.54774 0.09384 0.0
O3427 O 0.06335 0.57647 0.11331 0.0
C3428 C 0.05745 0.49863 0.04321 0.0
C3429 C 0.97398 0.61786 0.09389 0.0
C3430 C 0.93886 0.65477 0.08202 0.0
C3431 C 0.96376 0.68069 0.10103 0.0
C3432 C 0.99853 0.64458 0.11187 0.0
C3433 C 0.9933 0.67567 0.1155 0.0
C3434 C 0.94411 0.62311 0.0789 0.0
C3435 C 0.04975 0.56653 0.99813 0.0
C3436 C 0.97961 0.58471 0.09068 0.0
C3437 C 0.94446 0.43919 0.07402 0.0
C3438 C 0.93585 0.43924 0.03845 0.0
C3439 C 0.07791 0.62702 0.06965 0.0
C3440 C 0.19547 0.54583 0.05722 0.0
C3441 C 0.24432 0.52582 0.06888 0.0
C3442 C 0.26285 0.5581 0.07807 0.0
C3443 C 0.21457 0.57782 0.06554 0.0
C3444 C 0.21051 0.51988 0.05855 0.0
C3445 C 0.24802 0.58388 0.07621 0.0
C3446 C 0.08846 0.56384 0.11905 0.0
C3447 C 0.15989 0.53876 0.0476 0.0
H3448 H 0.96024 0.70497 0.10527 0.0
H3449 H 1.02183 0.64154 0.12333 0.0
H3450 H 1.01218 0.69601 0.12978 0.0
H3451 H 0.9253 0.60269 0.06456 0.0
H3452 H 0.28893 0.56342 0.08594 0.0
H3453 H 0.20386 0.59812 0.06369 0.0
H3454 H 0.19587 0.4951 0.0519 0.0
H3455 H 0.26255 0.60865 0.08285 0.0
loop_
_geom_bond_atom_site_label_1
_geom_bond_atom_site_label_2
_geom_bond_distance
_geom_bond_site_symmetry_2
_ccdc_geom_bond_type
Li0 N17 1.990 1_455 S
Li0 O60 1.956 . S
Li0 O61 1.970 . S
Li0 O62 1.961 . S
Li1 N25 1.990 . S
Li1 O60 1.970 . S
Li1 O61 1.956 . S
Li1 O63 1.961 . S
Li2 N47 1.990 . S
Li2 O60 1.961 . S
Li2 O62 1.956 . S
Li2 O63 1.970 . S
Li3 N53 1.990 . S
Li3 O61 1.961 . S
Li3 O62 1.970 . S
Li3 O63 1.956 . S
C4 C6 1.348 . S
C4 C7 1.356 . S
C4 O60 1.325 . S
N5 C8 1.314 . S
N5 C9 1.279 . S
C6 C4 1.348 . S
C6 C8 1.353 . S
C6 H64 0.929 . S
C7 C4 1.356 . S
C7 C9 1.358 . S
C7 H65 0.930 . S
C8 N5 1.314 . S
C8 C6 1.353 . S
C8 H66 0.930 . S
C9 N5 1.279 . S
C9 C7 1.358 . S
C9 H67 0.930 . S
C10 C13 1.348 . S
C10 C14 1.356 1_655 S
C10 O61 1.325 1_655 S
C11 N12 1.279 . S
C11 C14 1.358 1_655 S
C11 H68 0.930 . S
N12 C11 1.279 . S
N12 C15 1.314 . S
C13 C10 1.348 . S
C13 C15 1.353 . S
C13 H69 0.929 . S
C14 C10 1.356 1_455 S
C14 C11 1.358 1_455 S
C14 H70 0.930 . S
C15 N12 1.314 . S
C15 C13 1.353 . S
C15 H71 0.930 . S
C16 N17 1.314 . S
C16 C21 1.353 . S
C16 H22 0.930 . S
N17 Li0 1.990 1_655 S
N17 C16 1.314 . S
N17 C19 1.279 . S
C18 C19 1.358 . S
C18 C20 1.356 . S
C18 H72 0.930 . S
C19 N17 1.279 . S
C19 C18 1.358 . S
C19 H23 0.930 . S
C20 C18 1.356 . S
C20 C21 1.348 . S
C21 C16 1.353 . S
C21 C20 1.348 . S
C21 H73 0.929 . S
H22 C16 0.930 . S
H23 C19 0.930 . S
C24 N25 1.314 . S
C24 C26 1.353 . S
C24 H30 0.930 . S
N25 Li1 1.990 . S
N25 C24 1.314 . S
N25 C28 1.279 . S
C26 C24 1.353 . S
C26 C29 1.348 . S
C26 H74 0.929 . S
C27 C28 1.358 . S
C27 C29 1.356 . S
C27 H75 0.930 . S
C28 N25 1.279 . S
C28 C27 1.358 . S
C28 H31 0.930 . S
C29 C26 1.348 . S
C29 C27 1.356 . S
H30 C24 0.930 . S
H31 C28 0.930 . S
C32 C34 1.348 . S
C32 C35 1.356 . S
C32 O62 1.325 . S
N33 C36 1.314 . S
N33 C37 1.279 . S
C34 C32 1.348 . S
C34 C36 1.353 . S
C34 H76 0.929 . S
C35 C32 1.356 . S
C35 C37 1.358 . S
C35 H77 0.930 . S
C36 N33 1.314 . S
C36 C34 1.353 . S
C36 H78 0.930 . S
C37 N33 1.279 . S
C37 C35 1.358 . S
C37 H79 0.930 . S
C38 C39 1.348 . S
C38 C40 1.356 . S
C38 O63 1.325 . S
C39 C38 1.348 . S
C39 C41 1.353 . S
C39 H80 0.929 . S
C40 C38 1.356 . S
C40 C42 1.358 . S
C40 H81 0.930 . S
C41 C39 1.353 . S
C41 N43 1.314 . S
C41 H82 0.930 . S
C42 C40 1.358 . S
C42 N43 1.279 . S
C42 H83 0.930 . S
N43 C41 1.314 . S
N43 C42 1.279 . S
C44 C46 1.353 . S
C44 N47 1.314 . S
C44 H50 0.930 . S
C45 N47 1.279 . S
C45 C48 1.358 . S
C45 H51 0.930 . S
C46 C44 1.353 . S
C46 C49 1.348 . S
C46 H84 0.929 . S
N47 Li2 1.990 . S
N47 C44 1.314 . S
N47 C45 1.279 . S
C48 C45 1.358 . S
C48 C49 1.356 . S
C48 H85 0.930 . S
C49 C46 1.348 . S
C49 C48 1.356 . S
H50 C44 0.930 . S
H51 C45 0.930 . S
C52 N53 1.314 . S
C52 C54 1.353 . S
C52 H58 0.930 . S
N53 Li3 1.990 . S
N53 C52 1.314 . S
N53 C56 1.279 . S
C54 C52 1.353 . S
C54 C57 1.348 . S
C54 H86 0.929 1_455 S
C55 C56 1.358 . S
C55 C57 1.356 . S
C55 H87 0.930 . S
C56 N53 1.279 . S
C56 C55 1.358 . S
C56 H59 0.930 . S
C57 C54 1.348 . S
C57 C55 1.356 . S
H58 C52 0.930 . S
H59 C56 0.930 . S
O60 Li0 1.956 . S
O60 Li1 1.970 . S
O60 Li2 1.961 . S
O60 C4 1.325 . S
O61 Li0 1.970 . S
O61 Li1 1.956 . S
O61 Li3 1.961 . S
O61 C10 1.325 1_455 S
O62 Li0 1.961 . S
O62 Li2 1.956 . S
O62 Li3 1.970 . S
O62 C32 1.325 . S
O63 Li1 1.961 . S
O63 Li2 1.970 . S
O63 Li3 1.956 . S
O63 C38 1.325 . S
H64 C6 0.929 . S
H65 C7 0.930 . S
H66 C8 0.930 . S
H67 C9 0.930 . S
H68 C11 0.930 . S
H69 C13 0.929 . S
H70 C14 0.930 . S
H71 C15 0.930 . S
H72 C18 0.930 . S
H73 C21 0.929 . S
H74 C26 0.929 . S
H75 C27 0.930 . S
H76 C34 0.929 . S
H77 C35 0.930 . S
H78 C36 0.930 . S
H79 C37 0.930 . S
H80 C39 0.929 . S
H81 C40 0.930 . S
H82 C41 0.930 . S
H83 C42 0.930 . S
H84 C46 0.929 . S
H85 C48 0.930 . S
H86 C54 0.929 1_655 S
H87 C55 0.930 . S
Li88 N105 1.990 . S
Li88 O148 1.956 . S
Li88 O149 1.970 . S
Li88 O150 1.961 1_455 S
Li89 N113 1.990 . S
Li89 O148 1.970 . S
Li89 O149 1.956 . S
Li89 O151 1.961 . S
Li90 N135 1.990 . S
Li90 O148 1.961 . S
Li90 O150 1.956 1_455 S
Li90 O151 1.970 . S
Li91 N141 1.990 1_455 S
Li91 O149 1.961 . S
Li91 O150 1.970 1_455 S
Li91 O151 1.956 . S
C92 C94 1.348 . S
C92 C95 1.356 . S
C92 O148 1.325 . S
N93 C96 1.314 . S
N93 C97 1.279 . S
C94 C92 1.348 . S
C94 C96 1.353 . S
C94 H152 0.929 . S
C95 C92 1.356 . S
C95 C97 1.358 . S
C95 H153 0.930 . S
C96 N93 1.314 . S
C96 C94 1.353 . S
C96 H154 0.930 . S
C97 N93 1.279 . S
C97 C95 1.358 . S
C97 H155 0.930 . S
C98 C101 1.348 . S
C98 C102 1.356 . S
C98 O149 1.325 . S
C99 N100 1.279 . S
C99 C102 1.358 . S
C99 H156 0.930 . S
N100 C99 1.279 . S
N100 C103 1.314 . S
C101 C98 1.348 . S
C101 C103 1.353 . S
C101 H157 0.929 . S
C102 C98 1.356 . S
C102 C99 1.358 . S
C102 H158 0.930 . S
C103 N100 1.314 . S
C103 C101 1.353 . S
C103 H159 0.930 . S
C104 N105 1.314 . S
C104 C109 1.353 . S
C104 H110 0.930 1_455 S
N105 Li88 1.990 . S
N105 C104 1.314 . S
N105 C107 1.279 . S
C106 C107 1.358 . S
C106 C108 1.356 . S
C106 H160 0.930 . S
C107 N105 1.279 . S
C107 C106 1.358 . S
C107 H111 0.930 . S
C108 C106 1.356 . S
C108 C109 1.348 . S
C109 C104 1.353 . S
C109 C108 1.348 . S
C109 H161 0.929 1_455 S
H110 C104 0.930 1_655 S
H111 C107 0.930 . S
C112 N113 1.314 . S
C112 C114 1.353 . S
C112 H118 0.930 . S
N113 Li89 1.990 . S
N113 C112 1.314 . S
N113 C116 1.279 . S
C114 C112 1.353 . S
C114 C117 1.348 . S
C114 H162 0.929 . S
C115 C116 1.358 . S
C115 C117 1.356 . S
C115 H163 0.930 . S
C116 N113 1.279 . S
C116 C115 1.358 . S
C116 H119 0.930 . S
C117 C114 1.348 . S
C117 C115 1.356 . S
H118 C112 0.930 . S
H119 C116 0.930 . S
C120 C122 1.348 . S
C120 C123 1.356 . S
C120 O150 1.325 . S
N121 C124 1.314 . S
N121 C125 1.279 . S
C122 C120 1.348 . S
C122 C124 1.353 . S
C122 H164 0.929 . S
C123 C120 1.356 . S
C123 C125 1.358 . S
C123 H165 0.930 . S
C124 N121 1.314 . S
C124 C122 1.353 . S
C124 H166 0.930 . S
C125 N121 1.279 . S
C125 C123 1.358 . S
C125 H167 0.930 . S
C126 C127 1.348 . S
C126 C128 1.356 . S
C126 O151 1.325 . S
C127 C126 1.348 . S
C127 C129 1.353 . S
C127 H168 0.929 . S
C128 C126 1.356 . S
C128 C130 1.358 . S
C128 H169 0.930 . S
C129 C127 1.353 . S
C129 N131 1.314 . S
C129 H170 0.930 . S
C130 C128 1.358 . S
C130 N131 1.279 . S
C130 H171 0.930 . S
N131 C129 1.314 . S
N131 C130 1.279 . S
C132 C134 1.353 . S
C132 N135 1.314 . S
C132 H138 0.930 . S
C133 N135 1.279 1_655 S
C133 C136 1.358 . S
C133 H139 0.930 . S
C134 C132 1.353 . S
C134 C137 1.348 . S
C134 H172 0.929 . S
N135 Li90 1.990 . S
N135 C132 1.314 . S
N135 C133 1.279 1_455 S
C136 C133 1.358 . S
C136 C137 1.356 1_655 S
C136 H173 0.930 . S
C137 C134 1.348 . S
C137 C136 1.356 1_455 S
H138 C132 0.930 . S
H139 C133 0.930 . S
C140 N141 1.314 . S
C140 C142 1.353 . S
C140 H146 0.930 . S
N141 Li91 1.990 1_655 S
N141 C140 1.314 . S
N141 C144 1.279 . S
C142 C140 1.353 . S
C142 C145 1.348 . S
C142 H174 0.929 . S
C143 C144 1.358 . S
C143 C145 1.356 . S
C143 H175 0.930 . S
C144 N141 1.279 . S
C144 C143 1.358 . S
C144 H147 0.930 . S
C145 C142 1.348 . S
C145 C143 1.356 . S
H146 C140 0.930 . S
H147 C144 0.930 . S
O148 Li88 1.956 . S
O148 Li89 1.970 . S
O148 Li90 1.961 . S
O148 C92 1.325 . S
O149 Li88 1.970 . S
O149 Li89 1.956 . S
O149 Li91 1.961 . S
O149 C98 1.325 . S
O150 Li88 1.961 1_655 S
O150 Li90 1.956 1_655 S
O150 Li91 1.970 1_655 S
O150 C120 1.325 . S
O151 Li89 1.961 . S
O151 Li90 1.970 . S
O151 Li91 1.956 . S
O151 C126 1.325 . S
H152 C94 0.929 . S
H153 C95 0.930 . S
H154 C96 0.930 . S
H155 C97 0.930 . S
H156 C99 0.930 . S
H157 C101 0.929 . S
H158 C102 0.930 . S
H159 C103 0.930 . S
H160 C106 0.930 . S
H161 C109 0.929 1_655 S
H162 C114 0.929 . S
H163 C115 0.930 . S
H164 C122 0.929 . S
H165 C123 0.930 . S
H166 C124 0.930 . S
H167 C125 0.930 . S
H168 C127 0.929 . S
H169 C128 0.930 . S
H170 C129 0.930 . S
H171 C130 0.930 . S
H172 C134 0.929 . S
H173 C136 0.930 . S
H174 C142 0.929 . S
H175 C143 0.930 . S
Li176 N193 1.990 . S
Li176 O236 1.956 . S
Li176 O237 1.970 . S
Li176 O238 1.961 . S
Li177 N201 1.990 . S
Li177 O236 1.970 . S
Li177 O237 1.956 . S
Li177 O239 1.961 . S
Li178 N223 1.990 . S
Li178 O236 1.961 . S
Li178 O238 1.956 . S
Li178 O239 1.970 . S
Li179 N229 1.990 . S
Li179 O237 1.961 . S
Li179 O238 1.970 . S
Li179 O239 1.956 . S
C180 C182 1.348 . S
C180 C183 1.356 . S
C180 O236 1.325 . S
N181 C184 1.314 . S
N181 C185 1.279 . S
C182 C180 1.348 . S
C182 C184 1.353 . S
C182 H240 0.929 . S
C183 C180 1.356 . S
C183 C185 1.358 . S
C183 H241 0.930 . S
C184 N181 1.314 . S
C184 C182 1.353 . S
C184 H242 0.930 . S
C185 N181 1.279 . S
C185 C183 1.358 . S
C185 H243 0.930 . S
C186 C189 1.348 . S
C186 C190 1.356 . S
C186 O237 1.325 . S
C187 N188 1.279 . S
C187 C190 1.358 . S
C187 H244 0.930 . S
N188 C187 1.279 . S
N188 C191 1.314 . S
C189 C186 1.348 . S
C189 C191 1.353 . S
C189 H245 0.929 . S
C190 C186 1.356 . S
C190 C187 1.358 . S
C190 H246 0.930 . S
C191 N188 1.314 . S
C191 C189 1.353 . S
C191 H247 0.930 . S
C192 N193 1.314 . S
C192 C197 1.353 . S
C192 H198 0.930 . S
N193 Li176 1.990 . S
N193 C192 1.314 . S
N193 C195 1.279 . S
C194 C195 1.358 . S
C194 C196 1.356 . S
C194 H248 0.930 . S
C195 N193 1.279 . S
C195 C194 1.358 . S
C195 H199 0.930 . S
C196 C194 1.356 . S
C196 C197 1.348 . S
C197 C192 1.353 . S
C197 C196 1.348 . S
C197 H249 0.929 . S
H198 C192 0.930 . S
H199 C195 0.930 . S
C200 N201 1.314 . S
C200 C202 1.353 . S
C200 H206 0.930 . S
N201 Li177 1.990 . S
N201 C200 1.314 . S
N201 C204 1.279 . S
C202 C200 1.353 . S
C202 C205 1.348 . S
C202 H250 0.929 . S
C203 C204 1.358 . S
C203 C205 1.356 . S
C203 H251 0.930 . S
C204 N201 1.279 . S
C204 C203 1.358 . S
C204 H207 0.930 . S
C205 C202 1.348 . S
C205 C203 1.356 . S
H206 C200 0.930 . S
H207 C204 0.930 . S
C208 C210 1.348 . S
C208 C211 1.356 . S
C208 O238 1.325 . S
N209 C212 1.314 . S
N209 C213 1.279 . S
C210 C208 1.348 . S
C210 C212 1.353 . S
C210 H252 0.929 . S
C211 C208 1.356 . S
C211 C213 1.358 . S
C211 H253 0.930 . S
C212 N209 1.314 . S
C212 C210 1.353 . S
C212 H254 0.930 . S
C213 N209 1.279 . S
C213 C211 1.358 . S
C213 H255 0.930 . S
C214 C215 1.348 . S
C214 C216 1.356 . S
C214 O239 1.325 . S
C215 C214 1.348 . S
C215 C217 1.353 . S
C215 H256 0.929 . S
C216 C214 1.356 . S
C216 C218 1.358 . S
C216 H257 0.930 . S
C217 C215 1.353 . S
C217 N219 1.314 . S
C217 H258 0.930 . S
C218 C216 1.358 . S
C218 N219 1.279 . S
C218 H259 0.930 . S
N219 C217 1.314 . S
N219 C218 1.279 . S
C220 C222 1.353 . S
C220 N223 1.314 . S
C220 H226 0.930 . S
C221 N223 1.279 . S
C221 C224 1.358 . S
C221 H227 0.930 . S
C222 C220 1.353 . S
C222 C225 1.348 . S
C222 H260 0.929 . S
N223 Li178 1.990 . S
N223 C220 1.314 . S
N223 C221 1.279 . S
C224 C221 1.358 . S
C224 C225 1.356 . S
C224 H261 0.930 . S
C225 C222 1.348 . S
C225 C224 1.356 . S
H226 C220 0.930 . S
H227 C221 0.930 . S
C228 N229 1.314 . S
C228 C230 1.353 . S
C228 H234 0.930 . S
N229 Li179 1.990 . S
N229 C228 1.314 . S
N229 C232 1.279 . S
C230 C228 1.353 . S
C230 C233 1.348 . S
C230 H262 0.929 . S
C231 C232 1.358 . S
C231 C233 1.356 . S
C231 H263 0.930 . S
C232 N229 1.279 . S
C232 C231 1.358 . S
C232 H235 0.930 . S
C233 C230 1.348 . S
C233 C231 1.356 . S
H234 C228 0.930 . S
H235 C232 0.930 . S
O236 Li176 1.956 . S
O236 Li177 1.970 . S
O236 Li178 1.961 . S
O236 C180 1.325 . S
O237 Li176 1.970 . S
O237 Li177 1.956 . S
O237 Li179 1.961 . S
O237 C186 1.325 . S
O238 Li176 1.961 . S
O238 Li178 1.956 . S
O238 Li179 1.970 . S
O238 C208 1.325 . S
O239 Li177 1.961 . S
O239 Li178 1.970 . S
O239 Li179 1.956 . S
O239 C214 1.325 . S
H240 C182 0.929 . S
H241 C183 0.930 . S
H242 C184 0.930 . S
H243 C185 0.930 . S
H244 C187 0.930 . S
H245 C189 0.929 . S
H246 C190 0.930 . S
H247 C191 0.930 . S
H248 C194 0.930 . S
H249 C197 0.929 . S
H250 C202 0.929 . S
H251 C203 0.930 . S
H252 C210 0.929 . S
H253 C211 0.930 . S
H254 C212 0.930 . S
H255 C213 0.930 . S
H256 C215 0.929 . S
H257 C216 0.930 . S
H258 C217 0.930 . S
H259 C218 0.930 . S
H260 C222 0.929 . S
H261 C224 0.930 . S
H262 C230 0.929 . S
H263 C231 0.930 . S
Li264 N281 1.990 . S
Li264 O324 1.956 . S
Li264 O325 1.970 . S
Li264 O326 1.961 . S
Li265 N289 1.990 . S
Li265 O324 1.970 . S
Li265 O325 1.956 . S
Li265 O327 1.961 . S
Li266 N311 1.990 . S
Li266 O324 1.961 . S
Li266 O326 1.956 . S
Li266 O327 1.970 . S
Li267 N317 1.990 . S
Li267 O325 1.961 . S
Li267 O326 1.970 . S
Li267 O327 1.956 . S
C268 C270 1.348 . S
C268 C271 1.356 . S
C268 O324 1.325 . S
N269 C272 1.314 . S
N269 C273 1.279 . S
C270 C268 1.348 . S
C270 C272 1.353 . S
C270 H328 0.929 . S
C271 C268 1.356 . S
C271 C273 1.358 . S
C271 H329 0.930 . S
C272 N269 1.314 . S
C272 C270 1.353 . S
C272 H330 0.930 . S
C273 N269 1.279 . S
C273 C271 1.358 . S
C273 H331 0.930 . S
C274 C277 1.348 . S
C274 C278 1.356 . S
C274 O325 1.325 . S
C275 N276 1.279 . S
C275 C278 1.358 . S
C275 H332 0.930 . S
N276 C275 1.279 . S
N276 C279 1.314 . S
C277 C274 1.348 . S
C277 C279 1.353 . S
C277 H333 0.929 . S
C278 C274 1.356 . S
C278 C275 1.358 . S
C278 H334 0.930 . S
C279 N276 1.314 . S
C279 C277 1.353 . S
C279 H335 0.930 . S
C280 N281 1.314 . S
C280 C285 1.353 . S
C280 H286 0.930 . S
N281 Li264 1.990 . S
N281 C280 1.314 . S
N281 C283 1.279 . S
C282 C283 1.358 . S
C282 C284 1.356 . S
C282 H336 0.930 . S
C283 N281 1.279 . S
C283 C282 1.358 . S
C283 H287 0.930 . S
C284 C282 1.356 . S
C284 C285 1.348 . S
C285 C280 1.353 . S
C285 C284 1.348 . S
C285 H337 0.929 . S
H286 C280 0.930 . S
H287 C283 0.930 . S
C288 N289 1.314 . S
C288 C290 1.353 . S
C288 H294 0.930 . S
N289 Li265 1.990 . S
N289 C288 1.314 . S
N289 C292 1.279 . S
C290 C288 1.353 . S
C290 C293 1.348 . S
C290 H338 0.929 . S
C291 C292 1.358 . S
C291 C293 1.356 . S
C291 H339 0.930 . S
C292 N289 1.279 . S
C292 C291 1.358 . S
C292 H295 0.930 . S
C293 C290 1.348 . S
C293 C291 1.356 . S
H294 C288 0.930 . S
H295 C292 0.930 . S
C296 C298 1.348 . S
C296 C299 1.356 . S
C296 O326 1.325 . S
N297 C300 1.314 . S
N297 C301 1.279 . S
C298 C296 1.348 . S
C298 C300 1.353 . S
C298 H340 0.929 . S
C299 C296 1.356 . S
C299 C301 1.358 . S
C299 H341 0.930 . S
C300 N297 1.314 . S
C300 C298 1.353 . S
C300 H342 0.930 . S
C301 N297 1.279 . S
C301 C299 1.358 . S
C301 H343 0.930 . S
C302 C303 1.348 . S
C302 C304 1.356 . S
C302 O327 1.325 . S
C303 C302 1.348 . S
C303 C305 1.353 . S
C303 H344 0.929 . S
C304 C302 1.356 . S
C304 C306 1.358 . S
C304 H345 0.930 . S
C305 C303 1.353 . S
C305 N307 1.314 . S
C305 H346 0.930 . S
C306 C304 1.358 . S
C306 N307 1.279 . S
C306 H347 0.930 . S
N307 C305 1.314 . S
N307 C306 1.279 . S
C308 C310 1.353 . S
C308 N311 1.314 . S
C308 H314 0.930 . S
C309 N311 1.279 . S
C309 C312 1.358 . S
C309 H315 0.930 . S
C310 C308 1.353 . S
C310 C313 1.348 . S
C310 H348 0.929 . S
N311 Li266 1.990 . S
N311 C308 1.314 . S
N311 C309 1.279 . S
C312 C309 1.358 . S
C312 C313 1.356 . S
C312 H349 0.930 . S
C313 C310 1.348 . S
C313 C312 1.356 . S
H314 C308 0.930 . S
H315 C309 0.930 . S
C316 N317 1.314 . S
C316 C318 1.353 . S
C316 H322 0.930 . S
N317 Li267 1.990 . S
N317 C316 1.314 . S
N317 C320 1.279 . S
C318 C316 1.353 . S
C318 C321 1.348 . S
C318 H350 0.929 . S
C319 C320 1.358 . S
C319 C321 1.356 . S
C319 H351 0.930 . S
C320 N317 1.279 . S
C320 C319 1.358 . S
C320 H323 0.930 . S
C321 C318 1.348 . S
C321 C319 1.356 . S
H322 C316 0.930 . S
H323 C320 0.930 . S
O324 Li264 1.956 . S
O324 Li265 1.970 . S
O324 Li266 1.961 . S
O324 C268 1.325 . S
O325 Li264 1.970 . S
O325 Li265 1.956 . S
O325 Li267 1.961 . S
O325 C274 1.325 . S
O326 Li264 1.961 . S
O326 Li266 1.956 . S
O326 Li267 1.970 . S
O326 C296 1.325 . S
O327 Li265 1.961 . S
O327 Li266 1.970 . S
O327 Li267 1.956 . S
O327 C302 1.325 . S
H328 C270 0.929 . S
H329 C271 0.930 . S
H330 C272 0.930 . S
H331 C273 0.930 . S
H332 C275 0.930 . S
H333 C277 0.929 . S
H334 C278 0.930 . S
H335 C279 0.930 . S
H336 C282 0.930 . S
H337 C285 0.929 . S
H338 C290 0.929 . S
H339 C291 0.930 . S
H340 C298 0.929 . S
H341 C299 0.930 . S
H342 C300 0.930 . S
H343 C301 0.930 . S
H344 C303 0.929 . S
H345 C304 0.930 . S
H346 C305 0.930 . S
H347 C306 0.930 . S
H348 C310 0.929 . S
H349 C312 0.930 . S
H350 C318 0.929 . S
H351 C319 0.930 . S
Li352 N369 1.990 . S
Li352 O412 1.956 . S
Li352 O413 1.970 . S
Li352 O414 1.961 . S
Li353 N377 1.990 . S
Li353 O412 1.970 . S
Li353 O413 1.956 . S
Li353 O415 1.961 . S
Li354 N399 1.990 . S
Li354 O412 1.961 . S
Li354 O414 1.956 . S
Li354 O415 1.970 . S
Li355 N405 1.990 . S
Li355 O413 1.961 . S
Li355 O414 1.970 . S
Li355 O415 1.956 . S
C356 C358 1.348 . S
C356 C359 1.356 . S
C356 O412 1.325 . S
N357 C360 1.314 . S
N357 C361 1.279 . S
C358 C356 1.348 . S
C358 C360 1.353 . S
C358 H416 0.929 . S
C359 C356 1.356 . S
C359 C361 1.358 . S
C359 H417 0.930 . S
C360 N357 1.314 . S
C360 C358 1.353 . S
C360 H418 0.930 . S
C361 N357 1.279 . S
C361 C359 1.358 . S
C361 H419 0.930 1_554 S
C362 C365 1.348 . S
C362 C366 1.356 . S
C362 O413 1.325 . S
C363 N364 1.279 . S
C363 C366 1.358 . S
C363 H420 0.930 . S
N364 C363 1.279 . S
N364 C367 1.314 . S
C365 C362 1.348 . S
C365 C367 1.353 . S
C365 H421 0.929 . S
C366 C362 1.356 . S
C366 C363 1.358 . S
C366 H422 0.930 . S
C367 N364 1.314 . S
C367 C365 1.353 . S
C367 H423 0.930 . S
C368 N369 1.314 . S
C368 C373 1.353 . S
C368 H374 0.930 . S
N369 Li352 1.990 . S
N369 C368 1.314 . S
N369 C371 1.279 . S
C370 C371 1.358 . S
C370 C372 1.356 . S
C370 H424 0.930 . S
C371 N369 1.279 . S
C371 C370 1.358 . S
C371 H375 0.930 . S
C372 C370 1.356 . S
C372 C373 1.348 . S
C373 C368 1.353 . S
C373 C372 1.348 . S
C373 H425 0.929 . S
H374 C368 0.930 . S
H375 C371 0.930 . S
C376 N377 1.314 . S
C376 C378 1.353 . S
C376 H382 0.930 . S
N377 Li353 1.990 . S
N377 C376 1.314 . S
N377 C380 1.279 . S
C378 C376 1.353 . S
C378 C381 1.348 . S
C378 H426 0.929 . S
C379 C380 1.358 . S
C379 C381 1.356 . S
C379 H427 0.930 . S
C380 N377 1.279 . S
C380 C379 1.358 . S
C380 H383 0.930 . S
C381 C378 1.348 . S
C381 C379 1.356 . S
H382 C376 0.930 . S
H383 C380 0.930 . S
C384 C386 1.348 1_455 S
C384 C387 1.356 . S
C384 O414 1.325 . S
N385 C388 1.314 . S
N385 C389 1.279 . S
C386 C384 1.348 1_655 S
C386 C388 1.353 . S
C386 H428 0.929 . S
C387 C384 1.356 . S
C387 C389 1.358 1_455 S
C387 H429 0.930 . S
C388 N385 1.314 . S
C388 C386 1.353 . S
C388 H430 0.930 . S
C389 N385 1.279 . S
C389 C387 1.358 1_655 S
C389 H431 0.930 1_554 S
C390 C391 1.348 . S
C390 C392 1.356 . S
C390 O415 1.325 . S
C391 C390 1.348 . S
C391 C393 1.353 . S
C391 H432 0.929 . S
C392 C390 1.356 . S
C392 C394 1.358 . S
C392 H433 0.930 . S
C393 C391 1.353 . S
C393 N395 1.314 . S
C393 H434 0.930 . S
C394 C392 1.358 . S
C394 N395 1.279 . S
C394 H435 0.930 . S
N395 C393 1.314 . S
N395 C394 1.279 . S
C396 C398 1.353 . S
C396 N399 1.314 . S
C396 H402 0.930 . S
C397 N399 1.279 . S
C397 C400 1.358 . S
C397 H403 0.930 . S
C398 C396 1.353 . S
C398 C401 1.348 . S
C398 H436 0.929 . S
N399 Li354 1.990 . S
N399 C396 1.314 . S
N399 C397 1.279 . S
C400 C397 1.358 . S
C400 C401 1.356 . S
C400 H437 0.941 . S
C401 C398 1.348 . S
C401 C400 1.356 . S
H402 C396 0.930 . S
H403 C397 0.930 . S
C404 N405 1.314 . S
C404 C406 1.353 1_455 S
C404 H410 0.930 . S
N405 Li355 1.990 . S
N405 C404 1.314 . S
N405 C408 1.279 . S
C406 C404 1.353 1_655 S
C406 C409 1.348 . S
C406 H438 0.929 . S
C407 C408 1.358 1_655 S
C407 C409 1.356 . S
C407 H439 0.930 . S
C408 N405 1.279 . S
C408 C407 1.358 1_455 S
C408 H411 0.930 . S
C409 C406 1.348 . S
C409 C407 1.356 . S
H410 C404 0.930 . S
H411 C408 0.930 . S
O412 Li352 1.956 . S
O412 Li353 1.970 . S
O412 Li354 1.961 . S
O412 C356 1.325 . S
O413 Li352 1.970 . S
O413 Li353 1.956 . S
O413 Li355 1.961 . S
O413 C362 1.325 . S
O414 Li352 1.961 . S
O414 Li354 1.956 . S
O414 Li355 1.970 . S
O414 C384 1.325 . S
O415 Li353 1.961 . S
O415 Li354 1.970 . S
O415 Li355 1.956 . S
O415 C390 1.325 . S
H416 C358 0.929 . S
H417 C359 0.930 . S
H418 C360 0.930 . S
H419 C361 0.930 1_556 S
H420 C363 0.930 . S
H421 C365 0.929 . S
H422 C366 0.930 . S
H423 C367 0.930 . S
H424 C370 0.930 . S
H425 C373 0.929 . S
H426 C378 0.929 . S
H427 C379 0.930 . S
H428 C386 0.929 . S
H429 C387 0.930 . S
H430 C388 0.930 . S
H431 C389 0.930 1_556 S
H432 C391 0.929 . S
H433 C392 0.930 . S
H434 C393 0.930 . S
H435 C394 0.930 . S
H436 C398 0.929 . S
H437 C400 0.941 . S
H438 C406 0.929 . S
H439 C407 0.930 . S
Li440 N457 1.990 . S
Li440 O500 1.956 . S
Li440 O501 1.970 . S
Li440 O502 1.961 . S
Li441 N465 1.990 . S
Li441 O500 1.970 . S
Li441 O501 1.956 . S
Li441 O503 1.961 . S
Li442 N487 1.990 . S
Li442 O500 1.961 . S
Li442 O502 1.956 . S
Li442 O503 1.970 . S
Li443 N493 1.990 . S
Li443 O501 1.961 . S
Li443 O502 1.970 . S
Li443 O503 1.956 . S
C444 C446 1.348 . S
C444 C447 1.356 . S
C444 O500 1.325 . S
N445 C448 1.314 . S
N445 C449 1.279 . S
C446 C444 1.348 . S
C446 C448 1.353 . S
C446 H504 0.929 . S
C447 C444 1.356 . S
C447 C449 1.358 . S
C447 H505 0.930 . S
C448 N445 1.314 . S
C448 C446 1.353 . S
C448 H506 0.930 . S
C449 N445 1.279 . S
C449 C447 1.358 . S
C449 H507 0.930 . S
C450 C453 1.348 . S
C450 C454 1.356 . S
C450 O501 1.325 . S
C451 N452 1.279 . S
C451 C454 1.358 . S
C451 H508 0.930 . S
N452 C451 1.279 . S
N452 C455 1.314 . S
C453 C450 1.348 . S
C453 C455 1.353 . S
C453 H509 0.929 . S
C454 C450 1.356 . S
C454 C451 1.358 . S
C454 H510 0.930 . S
C455 N452 1.314 . S
C455 C453 1.353 . S
C455 H511 0.930 . S
C456 N457 1.314 . S
C456 C461 1.353 . S
C456 H462 0.930 . S
N457 Li440 1.990 . S
N457 C456 1.314 . S
N457 C459 1.279 . S
C458 C459 1.358 . S
C458 C460 1.356 . S
C458 H512 0.930 . S
C459 N457 1.279 . S
C459 C458 1.358 . S
C459 H463 0.930 . S
C460 C458 1.356 . S
C460 C461 1.348 . S
C461 C456 1.353 . S
C461 C460 1.348 . S
C461 H513 0.929 . S
H462 C456 0.930 . S
H463 C459 0.930 . S
C464 N465 1.314 . S
C464 C466 1.353 . S
C464 H470 0.930 . S
N465 Li441 1.990 . S
N465 C464 1.314 . S
N465 C468 1.279 . S
C466 C464 1.353 . S
C466 C469 1.348 . S
C466 H514 0.929 . S
C467 C468 1.358 . S
C467 C469 1.356 . S
C467 H515 0.930 . S
C468 N465 1.279 . S
C468 C467 1.358 . S
C468 H471 0.930 . S
C469 C466 1.348 . S
C469 C467 1.356 . S
H470 C464 0.930 . S
H471 C468 0.930 . S
C472 C474 1.348 . S
C472 C475 1.356 . S
C472 O502 1.325 . S
N473 C476 1.314 . S
N473 C477 1.279 . S
C474 C472 1.348 . S
C474 C476 1.353 . S
C474 H516 0.929 . S
C475 C472 1.356 . S
C475 C477 1.358 . S
C475 H517 0.930 . S
C476 N473 1.314 . S
C476 C474 1.353 . S
C476 H518 0.930 . S
C477 N473 1.279 . S
C477 C475 1.358 . S
C477 H519 0.930 . S
C478 C479 1.348 . S
C478 C480 1.356 . S
C478 O503 1.325 . S
C479 C478 1.348 . S
C479 C481 1.353 . S
C479 H520 0.929 . S
C480 C478 1.356 . S
C480 C482 1.358 . S
C480 H521 0.930 . S
C481 C479 1.353 . S
C481 N483 1.314 . S
C481 H522 0.930 . S
C482 C480 1.358 . S
C482 N483 1.279 . S
C482 H523 0.930 . S
N483 C481 1.314 . S
N483 C482 1.279 . S
C484 C486 1.353 . S
C484 N487 1.314 . S
C484 H490 0.930 . S
C485 N487 1.279 . S
C485 C488 1.358 . S
C485 H491 0.930 . S
C486 C484 1.353 . S
C486 C489 1.348 . S
C486 H524 0.929 . S
N487 Li442 1.990 . S
N487 C484 1.314 . S
N487 C485 1.279 . S
C488 C485 1.358 . S
C488 C489 1.356 . S
C488 H525 0.930 . S
C489 C486 1.348 . S
C489 C488 1.356 . S
H490 C484 0.930 . S
H491 C485 0.930 . S
C492 N493 1.314 . S
C492 C494 1.353 . S
C492 H498 0.930 . S
N493 Li443 1.990 . S
N493 C492 1.314 . S
N493 C496 1.279 . S
C494 C492 1.353 . S
C494 C497 1.348 . S
C494 H526 0.929 . S
C495 C496 1.358 . S
C495 C497 1.356 . S
C495 H527 0.930 . S
C496 N493 1.279 . S
C496 C495 1.358 . S
C496 H499 0.930 . S
C497 C494 1.348 . S
C497 C495 1.356 . S
H498 C492 0.930 . S
H499 C496 0.930 . S
O500 Li440 1.956 . S
O500 Li441 1.970 . S
O500 Li442 1.961 . S
O500 C444 1.325 . S
O501 Li440 1.970 . S
O501 Li441 1.956 . S
O501 Li443 1.961 . S
O501 C450 1.325 . S
O502 Li440 1.961 . S
O502 Li442 1.956 . S
O502 Li443 1.970 . S
O502 C472 1.325 . S
O503 Li441 1.961 . S
O503 Li442 1.970 . S
O503 Li443 1.956 . S
O503 C478 1.325 . S
H504 C446 0.929 . S
H505 C447 0.930 . S
H506 C448 0.930 . S
H507 C449 0.930 . S
H508 C451 0.930 . S
H509 C453 0.929 . S
H510 C454 0.930 . S
H511 C455 0.930 . S
H512 C458 0.930 . S
H513 C461 0.929 . S
H514 C466 0.929 . S
H515 C467 0.930 . S
H516 C474 0.929 . S
H517 C475 0.930 . S
H518 C476 0.930 . S
H519 C477 0.930 . S
H520 C479 0.929 . S
H521 C480 0.930 . S
H522 C481 0.930 . S
H523 C482 0.930 . S
H524 C486 0.929 . S
H525 C488 0.930 . S
H526 C494 0.929 . S
H527 C495 0.930 . S
Li528 N545 1.990 . S
Li528 O588 1.956 . S
Li528 O589 1.970 . S
Li528 O590 1.961 . S
Li529 N553 1.990 . S
Li529 O588 1.970 . S
Li529 O589 1.956 . S
Li529 O591 1.961 . S
Li530 N575 1.990 . S
Li530 O588 1.961 . S
Li530 O590 1.956 . S
Li530 O591 1.970 . S
Li531 N581 1.990 . S
Li531 O589 1.961 . S
Li531 O590 1.970 . S
Li531 O591 1.956 . S
C532 C534 1.348 . S
C532 C535 1.356 . S
C532 O588 1.325 . S
N533 C536 1.314 . S
N533 C537 1.279 . S
C534 C532 1.348 . S
C534 C536 1.353 . S
C534 H592 0.929 . S
C535 C532 1.356 . S
C535 C537 1.358 . S
C535 H593 0.930 . S
C536 N533 1.314 . S
C536 C534 1.353 . S
C536 H594 0.930 . S
C537 N533 1.279 . S
C537 C535 1.358 . S
C537 H595 0.930 . S
C538 C541 1.348 . S
C538 C542 1.356 . S
C538 O589 1.325 . S
C539 N540 1.279 . S
C539 C542 1.358 . S
C539 H596 0.930 . S
N540 C539 1.279 . S
N540 C543 1.314 . S
C541 C538 1.348 . S
C541 C543 1.353 . S
C541 H597 0.929 . S
C542 C538 1.356 . S
C542 C539 1.358 . S
C542 H598 0.930 . S
C543 N540 1.314 . S
C543 C541 1.353 . S
C543 H599 0.930 . S
C544 N545 1.314 . S
C544 C549 1.353 . S
C544 H550 0.930 . S
N545 Li528 1.990 . S
N545 C544 1.314 . S
N545 C547 1.279 . S
C546 C547 1.358 . S
C546 C548 1.356 . S
C546 H600 0.930 . S
C547 N545 1.279 . S
C547 C546 1.358 . S
C547 H551 0.930 . S
C548 C546 1.356 . S
C548 C549 1.348 . S
C549 C544 1.353 . S
C549 C548 1.348 . S
C549 H601 0.929 . S
H550 C544 0.930 . S
H551 C547 0.930 . S
C552 N553 1.314 . S
C552 C554 1.353 . S
C552 H558 0.930 . S
N553 Li529 1.990 . S
N553 C552 1.314 . S
N553 C556 1.279 . S
C554 C552 1.353 . S
C554 C557 1.348 . S
C554 H602 0.929 . S
C555 C556 1.358 . S
C555 C557 1.356 . S
C555 H603 0.930 . S
C556 N553 1.279 . S
C556 C555 1.358 . S
C556 H559 0.930 . S
C557 C554 1.348 . S
C557 C555 1.356 . S
H558 C552 0.930 . S
H559 C556 0.930 . S
C560 C562 1.348 . S
C560 C563 1.356 . S
C560 O590 1.325 . S
N561 C564 1.314 . S
N561 C565 1.279 . S
C562 C560 1.348 . S
C562 C564 1.353 . S
C562 H604 0.929 . S
C563 C560 1.356 . S
C563 C565 1.358 . S
C563 H605 0.930 . S
C564 N561 1.314 . S
C564 C562 1.353 . S
C564 H606 0.930 . S
C565 N561 1.279 . S
C565 C563 1.358 . S
C565 H607 0.930 . S
C566 C567 1.348 . S
C566 C568 1.356 . S
C566 O591 1.325 . S
C567 C566 1.348 . S
C567 C569 1.353 . S
C567 H608 0.929 . S
C568 C566 1.356 . S
C568 C570 1.358 . S
C568 H609 0.930 . S
C569 C567 1.353 . S
C569 N571 1.314 . S
C569 H610 0.930 . S
C570 C568 1.358 . S
C570 N571 1.279 . S
C570 H611 0.930 . S
N571 C569 1.314 . S
N571 C570 1.279 . S
C572 C574 1.353 . S
C572 N575 1.314 . S
C572 H578 0.930 . S
C573 N575 1.279 . S
C573 C576 1.358 . S
C573 H579 0.930 . S
C574 C572 1.353 . S
C574 C577 1.348 . S
C574 H612 0.929 . S
N575 Li530 1.990 . S
N575 C572 1.314 . S
N575 C573 1.279 . S
C576 C573 1.358 . S
C576 C577 1.356 . S
C576 H613 0.930 . S
C577 C574 1.348 . S
C577 C576 1.356 . S
H578 C572 0.930 . S
H579 C573 0.930 . S
C580 N581 1.314 . S
C580 C582 1.353 . S
C580 H586 0.930 . S
N581 Li531 1.990 . S
N581 C580 1.314 . S
N581 C584 1.279 . S
C582 C580 1.353 . S
C582 C585 1.348 . S
C582 H614 0.929 . S
C583 C584 1.358 . S
C583 C585 1.356 . S
C583 H615 0.930 . S
C584 N581 1.279 . S
C584 C583 1.358 . S
C584 H587 0.930 . S
C585 C582 1.348 . S
C585 C583 1.356 . S
H586 C580 0.930 . S
H587 C584 0.930 . S
O588 Li528 1.956 . S
O588 Li529 1.970 . S
O588 Li530 1.961 . S
O588 C532 1.325 . S
O589 Li528 1.970 . S
O589 Li529 1.956 . S
O589 Li531 1.961 . S
O589 C538 1.325 . S
O590 Li528 1.961 . S
O590 Li530 1.956 . S
O590 Li531 1.970 . S
O590 C560 1.325 . S
O591 Li529 1.961 . S
O591 Li530 1.970 . S
O591 Li531 1.956 . S
O591 C566 1.325 . S
H592 C534 0.929 . S
H593 C535 0.930 . S
H594 C536 0.930 . S
H595 C537 0.930 . S
H596 C539 0.930 . S
H597 C541 0.929 . S
H598 C542 0.930 . S
H599 C543 0.930 . S
H600 C546 0.930 . S
H601 C549 0.929 . S
H602 C554 0.929 . S
H603 C555 0.930 . S
H604 C562 0.929 . S
H605 C563 0.930 . S
H606 C564 0.930 . S
H607 C565 0.930 . S
H608 C567 0.929 . S
H609 C568 0.930 . S
H610 C569 0.930 . S
H611 C570 0.930 . S
H612 C574 0.929 . S
H613 C576 0.930 . S
H614 C582 0.929 . S
H615 C583 0.930 . S
Li616 N633 1.990 1_556 S
Li616 O676 1.956 1_455 S
Li616 O677 1.970 . S
Li616 O678 1.961 . S
Li617 N641 1.990 . S
Li617 O676 1.970 . S
Li617 O677 1.956 1_655 S
Li617 O679 1.961 . S
Li618 N663 1.990 1_556 S
Li618 O676 1.961 1_455 S
Li618 O678 1.956 . S
Li618 O679 1.970 1_455 S
Li619 N669 1.990 . S
Li619 O677 1.961 . S
Li619 O678 1.970 . S
Li619 O679 1.956 1_455 S
C620 C622 1.341 1_554 S
C620 C623 1.356 . S
C620 O676 1.325 1_554 S
N621 C624 1.314 . S
N621 C625 1.279 . S
C622 C620 1.341 1_556 S
C622 C624 1.333 1_556 S
C622 H680 0.957 . S
C623 C620 1.356 . S
C623 C625 1.358 . S
C623 H681 0.930 . S
C624 N621 1.314 . S
C624 C622 1.333 1_554 S
C624 H682 0.930 . S
C625 N621 1.279 . S
C625 C623 1.358 . S
C625 H683 0.930 . S
C626 C629 1.348 . S
C626 C630 1.356 . S
C626 O677 1.325 . S
C627 N628 1.279 . S
C627 C630 1.358 . S
C627 H684 0.930 . S
N628 C627 1.279 . S
N628 C631 1.314 . S
C629 C626 1.348 . S
C629 C631 1.353 . S
C629 H685 0.929 1_455 S
C630 C626 1.356 . S
C630 C627 1.358 . S
C630 H686 0.930 . S
C631 N628 1.314 . S
C631 C629 1.353 . S
C631 H687 0.937 . S
C632 N633 1.314 . S
C632 C637 1.353 . S
C632 H638 0.930 . S
N633 Li616 1.990 1_554 S
N633 C632 1.314 . S
N633 C635 1.279 1_455 S
C634 C635 1.359 1_455 S
C634 C636 1.356 . S
C634 H688 0.929 1_455 S
C635 N633 1.279 1_655 S
C635 C634 1.359 1_655 S
C635 H639 0.930 . S
C636 C634 1.356 . S
C636 C637 1.348 . S
C637 C632 1.353 . S
C637 C636 1.348 . S
C637 H689 0.929 . S
H638 C632 0.930 . S
H639 C635 0.930 . S
C640 N641 1.314 . S
C640 C642 1.353 . S
C640 H646 0.930 . S
N641 Li617 1.990 . S
N641 C640 1.314 . S
N641 C644 1.279 . S
C642 C640 1.353 . S
C642 C645 1.348 . S
C642 H690 0.929 . S
C643 C644 1.358 . S
C643 C645 1.356 . S
C643 H691 0.930 . S
C644 N641 1.279 . S
C644 C643 1.358 . S
C644 H647 0.930 . S
C645 C642 1.348 . S
C645 C643 1.356 . S
H646 C640 0.930 . S
H647 C644 0.930 . S
C648 C650 1.348 . S
C648 C651 1.356 . S
C648 O678 1.325 1_554 S
N649 C652 1.314 . S
N649 C653 1.279 . S
C650 C648 1.348 . S
C650 C652 1.353 . S
C650 H692 0.929 1_554 S
C651 C648 1.356 . S
C651 C653 1.358 . S
C651 H693 0.930 . S
C652 N649 1.314 . S
C652 C650 1.353 . S
C652 H694 0.930 . S
C653 N649 1.279 . S
C653 C651 1.358 . S
C653 H695 0.930 . S
C654 C655 1.348 . S
C654 C656 1.356 . S
C654 O679 1.325 . S
C655 C654 1.348 . S
C655 C657 1.353 . S
C655 H696 0.929 1_655 S
C656 C654 1.356 . S
C656 C658 1.358 . S
C656 H697 0.930 . S
C657 C655 1.353 . S
C657 N659 1.314 . S
C657 H698 0.930 . S
C658 C656 1.358 . S
C658 N659 1.279 . S
C658 H699 0.930 . S
N659 C657 1.314 . S
N659 C658 1.279 . S
C660 C662 1.353 . S
C660 N663 1.314 1_655 S
C660 H666 0.930 . S
C661 N663 1.279 . S
C661 C664 1.358 . S
C661 H667 0.930 . S
C662 C660 1.353 . S
C662 C665 1.348 . S
C662 H700 0.929 . S
N663 Li618 1.990 1_554 S
N663 C660 1.314 1_455 S
N663 C661 1.279 . S
C664 C661 1.358 . S
C664 C665 1.356 1_455 S
C664 H701 0.930 . S
C665 C662 1.348 . S
C665 C664 1.356 1_655 S
H666 C660 0.930 . S
H667 C661 0.930 . S
C668 N669 1.314 . S
C668 C670 1.353 . S
C668 H674 0.930 . S
N669 Li619 1.990 . S
N669 C668 1.314 . S
N669 C672 1.279 . S
C670 C668 1.353 . S
C670 C673 1.348 . S
C670 H702 0.929 . S
C671 C672 1.358 . S
C671 C673 1.356 . S
C671 H703 0.930 . S
C672 N669 1.279 . S
C672 C671 1.358 . S
C672 H675 0.930 . S
C673 C670 1.348 . S
C673 C671 1.356 . S
H674 C668 0.930 . S
H675 C672 0.930 . S
O676 Li616 1.956 1_655 S
O676 Li617 1.970 . S
O676 Li618 1.961 1_655 S
O676 C620 1.325 1_556 S
O677 Li616 1.970 . S
O677 Li617 1.956 1_455 S
O677 Li619 1.961 . S
O677 C626 1.325 . S
O678 Li616 1.961 . S
O678 Li618 1.956 . S
O678 Li619 1.970 . S
O678 C648 1.325 1_556 S
O679 Li617 1.961 . S
O679 Li618 1.970 1_655 S
O679 Li619 1.956 1_655 S
O679 C654 1.325 . S
H680 C622 0.957 . S
H681 C623 0.930 . S
H682 C624 0.930 . S
H683 C625 0.930 . S
H684 C627 0.930 . S
H685 C629 0.929 1_655 S
H686 C630 0.930 . S
H687 C631 0.937 . S
H688 C634 0.929 1_655 S
H689 C637 0.929 . S
H690 C642 0.929 . S
H691 C643 0.930 . S
H692 C650 0.929 1_556 S
H693 C651 0.930 . S
H694 C652 0.930 . S
H695 C653 0.930 . S
H696 C655 0.929 1_455 S
H697 C656 0.930 . S
H698 C657 0.930 . S
H699 C658 0.930 . S
H700 C662 0.929 . S
H701 C664 0.930 . S
H702 C670 0.929 . S
H703 C671 0.930 . S
Li704 N721 1.990 . S
Li704 O764 1.956 1_545 S
Li704 O765 1.970 . S
Li704 O766 1.961 . S
Li705 N729 1.990 . S
Li705 O764 1.970 . S
Li705 O765 1.956 1_565 S
Li705 O767 1.961 . S
Li706 N751 1.990 . S
Li706 O764 1.961 1_545 S
Li706 O766 1.956 . S
Li706 O767 1.970 1_545 S
Li707 N757 1.990 . S
Li707 O765 1.961 . S
Li707 O766 1.970 . S
Li707 O767 1.956 1_545 S
C708 C710 1.348 . S
C708 C711 1.356 . S
C708 O764 1.325 . S
N709 C712 1.314 . S
N709 C713 1.279 . S
C710 C708 1.348 . S
C710 C712 1.353 . S
C710 H768 0.929 . S
C711 C708 1.356 . S
C711 C713 1.358 . S
C711 H769 0.930 . S
C712 N709 1.314 . S
C712 C710 1.353 . S
C712 H770 0.930 . S
C713 N709 1.279 . S
C713 C711 1.358 . S
C713 H771 0.930 . S
C714 C717 1.337 1_545 S
C714 C718 1.364 . S
C714 O765 1.326 . S
C715 N716 1.287 . S
C715 C718 1.358 1_565 S
C715 H772 0.914 1_565 S
N716 C715 1.287 . S
N716 C719 1.314 . S
C717 C714 1.337 1_565 S
C717 C719 1.353 . S
C717 H773 0.929 . S
C718 C714 1.364 . S
C718 C715 1.358 1_545 S
C718 H774 0.930 . S
C719 N716 1.314 . S
C719 C717 1.353 . S
C719 H775 0.930 . S
C720 N721 1.314 . S
C720 C725 1.353 . S
C720 H726 0.930 . S
N721 Li704 1.990 . S
N721 C720 1.314 . S
N721 C723 1.279 1_545 S
C722 C723 1.357 . S
C722 C724 1.346 1_565 S
C722 H776 0.942 . S
C723 N721 1.279 1_565 S
C723 C722 1.357 . S
C723 H727 0.930 . S
C724 C722 1.346 1_545 S
C724 C725 1.348 . S
C725 C720 1.353 . S
C725 C724 1.348 . S
C725 H777 0.929 . S
H726 C720 0.930 . S
H727 C723 0.930 . S
C728 N729 1.314 . S
C728 C730 1.353 . S
C728 H734 0.930 . S
N729 Li705 1.990 . S
N729 C728 1.314 . S
N729 C732 1.279 . S
C730 C728 1.353 . S
C730 C733 1.348 . S
C730 H778 0.929 . S
C731 C732 1.358 . S
C731 C733 1.356 . S
C731 H779 0.930 . S
C732 N729 1.279 . S
C732 C731 1.358 . S
C732 H735 0.930 . S
C733 C730 1.348 . S
C733 C731 1.356 . S
H734 C728 0.930 . S
H735 C732 0.930 . S
C736 C738 1.348 . S
C736 C739 1.356 . S
C736 O766 1.325 . S
N737 C740 1.314 . S
N737 C741 1.279 . S
C738 C736 1.348 . S
C738 C740 1.353 . S
C738 H780 0.929 . S
C739 C736 1.356 . S
C739 C741 1.358 . S
C739 H781 0.930 . S
C740 N737 1.314 . S
C740 C738 1.353 . S
C740 H782 0.930 . S
C741 N737 1.279 . S
C741 C739 1.358 . S
C741 H783 0.930 . S
C742 C743 1.348 . S
C742 C744 1.356 . S
C742 O767 1.325 . S
C743 C742 1.348 . S
C743 C745 1.353 . S
C743 H784 0.929 1_565 S
C744 C742 1.356 . S
C744 C746 1.358 . S
C744 H785 0.930 . S
C745 C743 1.353 . S
C745 N747 1.314 . S
C745 H786 0.930 . S
C746 C744 1.358 . S
C746 N747 1.279 . S
C746 H787 0.930 . S
N747 C745 1.314 . S
N747 C746 1.279 . S
C748 C750 1.353 . S
C748 N751 1.314 1_565 S
C748 H754 0.930 . S
C749 N751 1.279 . S
C749 C752 1.358 . S
C749 H755 0.930 . S
C750 C748 1.353 . S
C750 C753 1.348 1_565 S
C750 H788 0.929 . S
N751 Li706 1.990 . S
N751 C748 1.314 1_545 S
N751 C749 1.279 . S
C752 C749 1.358 . S
C752 C753 1.356 . S
C752 H789 0.930 . S
C753 C750 1.348 1_545 S
C753 C752 1.356 . S
H754 C748 0.930 . S
H755 C749 0.930 . S
C756 N757 1.314 . S
C756 C758 1.353 . S
C756 H762 0.930 . S
N757 Li707 1.990 . S
N757 C756 1.314 . S
N757 C760 1.279 . S
C758 C756 1.353 . S
C758 C761 1.348 . S
C758 H790 0.929 . S
C759 C760 1.358 . S
C759 C761 1.356 . S
C759 H791 0.930 . S
C760 N757 1.279 . S
C760 C759 1.358 . S
C760 H763 0.930 . S
C761 C758 1.348 . S
C761 C759 1.356 . S
H762 C756 0.930 . S
H763 C760 0.930 . S
O764 Li704 1.956 1_565 S
O764 Li705 1.970 . S
O764 Li706 1.961 1_565 S
O764 C708 1.325 . S
O765 Li704 1.970 . S
O765 Li705 1.956 1_545 S
O765 Li707 1.961 . S
O765 C714 1.326 . S
O766 Li704 1.961 . S
O766 Li706 1.956 . S
O766 Li707 1.970 . S
O766 C736 1.325 . S
O767 Li705 1.961 . S
O767 Li706 1.970 1_565 S
O767 Li707 1.956 1_565 S
O767 C742 1.325 . S
H768 C710 0.929 . S
H769 C711 0.930 . S
H770 C712 0.930 . S
H771 C713 0.930 . S
H772 C715 0.914 1_545 S
H773 C717 0.929 . S
H774 C718 0.930 . S
H775 C719 0.930 . S
H776 C722 0.942 . S
H777 C725 0.929 . S
H778 C730 0.929 . S
H779 C731 0.930 . S
H780 C738 0.929 . S
H781 C739 0.930 . S
H782 C740 0.930 . S
H783 C741 0.930 . S
H784 C743 0.929 1_545 S
H785 C744 0.930 . S
H786 C745 0.930 . S
H787 C746 0.930 . S
H788 C750 0.929 . S
H789 C752 0.930 . S
H790 C758 0.929 . S
H791 C759 0.930 . S
Li792 N809 1.990 . S
Li792 O852 1.956 . S
Li792 O853 1.970 . S
Li792 O854 1.961 . S
Li793 N817 1.990 . S
Li793 O852 1.970 . S
Li793 O853 1.956 . S
Li793 O855 1.961 . S
Li794 N839 1.990 . S
Li794 O852 1.961 . S
Li794 O854 1.956 . S
Li794 O855 1.970 . S
Li795 N845 1.990 . S
Li795 O853 1.961 . S
Li795 O854 1.970 . S
Li795 O855 1.956 . S
C796 C798 1.348 . S
C796 C799 1.356 . S
C796 O852 1.325 . S
N797 C800 1.314 . S
N797 C801 1.279 . S
C798 C796 1.348 . S
C798 C800 1.353 . S
C798 H856 0.929 . S
C799 C796 1.356 . S
C799 C801 1.358 . S
C799 H857 0.930 . S
C800 N797 1.314 . S
C800 C798 1.353 . S
C800 H858 0.930 . S
C801 N797 1.279 . S
C801 C799 1.358 . S
C801 H859 0.930 . S
C802 C805 1.348 . S
C802 C806 1.356 . S
C802 O853 1.325 . S
C803 N804 1.279 . S
C803 C806 1.358 . S
C803 H860 0.930 . S
N804 C803 1.279 . S
N804 C807 1.314 . S
C805 C802 1.348 . S
C805 C807 1.353 . S
C805 H861 0.929 . S
C806 C802 1.356 . S
C806 C803 1.358 . S
C806 H862 0.930 . S
C807 N804 1.314 . S
C807 C805 1.353 . S
C807 H863 0.930 . S
C808 N809 1.314 . S
C808 C813 1.353 . S
C808 H814 0.930 . S
N809 Li792 1.990 . S
N809 C808 1.314 . S
N809 C811 1.279 . S
C810 C811 1.358 . S
C810 C812 1.356 . S
C810 H864 0.930 . S
C811 N809 1.279 . S
C811 C810 1.358 . S
C811 H815 0.930 . S
C812 C810 1.356 . S
C812 C813 1.348 . S
C813 C808 1.353 . S
C813 C812 1.348 . S
C813 H865 0.929 . S
H814 C808 0.930 . S
H815 C811 0.930 . S
C816 N817 1.314 . S
C816 C818 1.353 . S
C816 H822 0.930 . S
N817 Li793 1.990 . S
N817 C816 1.314 . S
N817 C820 1.279 . S
C818 C816 1.353 . S
C818 C821 1.348 . S
C818 H866 0.929 . S
C819 C820 1.358 . S
C819 C821 1.356 . S
C819 H867 0.930 . S
C820 N817 1.279 . S
C820 C819 1.358 . S
C820 H823 0.930 . S
C821 C818 1.348 . S
C821 C819 1.356 . S
H822 C816 0.930 . S
H823 C820 0.930 . S
C824 C826 1.348 . S
C824 C827 1.356 . S
C824 O854 1.325 . S
N825 C828 1.314 . S
N825 C829 1.279 . S
C826 C824 1.348 . S
C826 C828 1.353 . S
C826 H868 0.929 . S
C827 C824 1.356 . S
C827 C829 1.358 . S
C827 H869 0.930 . S
C828 N825 1.314 . S
C828 C826 1.353 . S
C828 H870 0.930 . S
C829 N825 1.279 . S
C829 C827 1.358 . S
C829 H871 0.930 . S
C830 C831 1.348 . S
C830 C832 1.356 . S
C830 O855 1.325 . S
C831 C830 1.348 . S
C831 C833 1.353 . S
C831 H872 0.929 . S
C832 C830 1.356 . S
C832 C834 1.358 . S
C832 H873 0.930 . S
C833 C831 1.353 . S
C833 N835 1.314 . S
C833 H874 0.930 . S
C834 C832 1.358 . S
C834 N835 1.279 . S
C834 H875 0.930 . S
N835 C833 1.314 . S
N835 C834 1.279 . S
C836 C838 1.353 . S
C836 N839 1.314 . S
C836 H842 0.930 . S
C837 N839 1.279 . S
C837 C840 1.358 . S
C837 H843 0.930 . S
C838 C836 1.353 . S
C838 C841 1.348 . S
C838 H876 0.929 . S
N839 Li794 1.990 . S
N839 C836 1.314 . S
N839 C837 1.279 . S
C840 C837 1.358 . S
C840 C841 1.356 . S
C840 H877 0.930 . S
C841 C838 1.348 . S
C841 C840 1.356 . S
H842 C836 0.930 . S
H843 C837 0.930 . S
C844 N845 1.314 . S
C844 C846 1.353 . S
C844 H850 0.930 . S
N845 Li795 1.990 . S
N845 C844 1.314 . S
N845 C848 1.279 . S
C846 C844 1.353 . S
C846 C849 1.348 . S
C846 H878 0.929 . S
C847 C848 1.358 . S
C847 C849 1.356 . S
C847 H879 0.930 . S
C848 N845 1.279 . S
C848 C847 1.358 . S
C848 H851 0.930 . S
C849 C846 1.348 . S
C849 C847 1.356 . S
H850 C844 0.930 . S
H851 C848 0.930 . S
O852 Li792 1.956 . S
O852 Li793 1.970 . S
O852 Li794 1.961 . S
O852 C796 1.325 . S
O853 Li792 1.970 . S
O853 Li793 1.956 . S
O853 Li795 1.961 . S
O853 C802 1.325 . S
O854 Li792 1.961 . S
O854 Li794 1.956 . S
O854 Li795 1.970 . S
O854 C824 1.325 . S
O855 Li793 1.961 . S
O855 Li794 1.970 . S
O855 Li795 1.956 . S
O855 C830 1.325 . S
H856 C798 0.929 . S
H857 C799 0.930 . S
H858 C800 0.930 . S
H859 C801 0.930 . S
H860 C803 0.930 . S
H861 C805 0.929 . S
H862 C806 0.930 . S
H863 C807 0.930 . S
H864 C810 0.930 . S
H865 C813 0.929 . S
H866 C818 0.929 . S
H867 C819 0.930 . S
H868 C826 0.929 . S
H869 C827 0.930 . S
H870 C828 0.930 . S
H871 C829 0.930 . S
H872 C831 0.929 . S
H873 C832 0.930 . S
H874 C833 0.930 . S
H875 C834 0.930 . S
H876 C838 0.929 . S
H877 C840 0.930 . S
H878 C846 0.929 . S
H879 C847 0.930 . S
Li880 N897 1.990 . S
Li880 O940 1.956 . S
Li880 O941 1.970 . S
Li880 O942 1.961 . S
Li881 N905 1.990 . S
Li881 O940 1.970 . S
Li881 O941 1.956 . S
Li881 O943 1.961 . S
Li882 N927 1.990 . S
Li882 O940 1.961 . S
Li882 O942 1.956 . S
Li882 O943 1.970 . S
Li883 N933 1.990 . S
Li883 O941 1.961 . S
Li883 O942 1.970 . S
Li883 O943 1.956 . S
C884 C886 1.348 . S
C884 C887 1.356 . S
C884 O940 1.325 . S
N885 C888 1.314 . S
N885 C889 1.279 . S
C886 C884 1.348 . S
C886 C888 1.353 . S
C886 H944 0.929 . S
C887 C884 1.356 . S
C887 C889 1.358 . S
C887 H945 0.930 . S
C888 N885 1.314 . S
C888 C886 1.353 . S
C888 H946 0.930 . S
C889 N885 1.279 . S
C889 C887 1.358 . S
C889 H947 0.930 . S
C890 C893 1.348 . S
C890 C894 1.356 . S
C890 O941 1.325 . S
C891 N892 1.279 . S
C891 C894 1.358 . S
C891 H948 0.930 . S
N892 C891 1.279 . S
N892 C895 1.314 . S
C893 C890 1.348 . S
C893 C895 1.353 . S
C893 H949 0.929 . S
C894 C890 1.356 . S
C894 C891 1.358 . S
C894 H950 0.930 . S
C895 N892 1.314 . S
C895 C893 1.353 . S
C895 H951 0.930 . S
C896 N897 1.314 . S
C896 C901 1.353 . S
C896 H902 0.930 . S
N897 Li880 1.990 . S
N897 C896 1.314 . S
N897 C899 1.279 . S
C898 C899 1.358 . S
C898 C900 1.356 . S
C898 H952 0.930 . S
C899 N897 1.279 . S
C899 C898 1.358 . S
C899 H903 0.930 . S
C900 C898 1.356 . S
C900 C901 1.348 . S
C901 C896 1.353 . S
C901 C900 1.348 . S
C901 H953 0.929 . S
H902 C896 0.930 . S
H903 C899 0.930 . S
C904 N905 1.314 . S
C904 C906 1.353 . S
C904 H910 0.930 . S
N905 Li881 1.990 . S
N905 C904 1.314 . S
N905 C908 1.279 . S
C906 C904 1.353 . S
C906 C909 1.348 . S
C906 H954 0.929 . S
C907 C908 1.358 . S
C907 C909 1.356 . S
C907 H955 0.930 . S
C908 N905 1.279 . S
C908 C907 1.358 . S
C908 H911 0.930 . S
C909 C906 1.348 . S
C909 C907 1.356 . S
H910 C904 0.930 . S
H911 C908 0.930 . S
C912 C914 1.348 . S
C912 C915 1.356 . S
C912 O942 1.325 . S
N913 C916 1.314 . S
N913 C917 1.279 . S
C914 C912 1.348 . S
C914 C916 1.353 . S
C914 H956 0.929 . S
C915 C912 1.356 . S
C915 C917 1.358 . S
C915 H957 0.930 . S
C916 N913 1.314 . S
C916 C914 1.353 . S
C916 H958 0.930 . S
C917 N913 1.279 . S
C917 C915 1.358 . S
C917 H959 0.930 . S
C918 C919 1.348 1_545 S
C918 C920 1.360 1_545 S
C918 O943 1.325 . S
C919 C918 1.348 1_565 S
C919 C921 1.353 . S
C919 H960 0.929 . S
C920 C918 1.360 1_565 S
C920 C922 1.378 . S
C920 H961 0.906 1_565 S
C921 C919 1.353 . S
C921 N923 1.314 . S
C921 H962 0.930 . S
C922 C920 1.378 . S
C922 N923 1.279 . S
C922 H963 0.930 . S
N923 C921 1.314 . S
N923 C922 1.279 . S
C924 C926 1.353 . S
C924 N927 1.314 1_565 S
C924 H930 0.930 1_565 S
C925 N927 1.279 1_565 S
C925 C928 1.358 . S
C925 H931 0.930 1_565 S
C926 C924 1.353 . S
C926 C929 1.348 . S
C926 H964 0.929 . S
N927 Li882 1.990 . S
N927 C924 1.314 1_545 S
N927 C925 1.279 1_545 S
C928 C925 1.358 . S
C928 C929 1.356 . S
C928 H965 0.930 . S
C929 C926 1.348 . S
C929 C928 1.356 . S
H930 C924 0.930 1_545 S
H931 C925 0.930 1_545 S
C932 N933 1.314 . S
C932 C934 1.353 . S
C932 H938 0.930 . S
N933 Li883 1.990 . S
N933 C932 1.314 . S
N933 C936 1.279 . S
C934 C932 1.353 . S
C934 C937 1.348 . S
C934 H966 0.929 . S
C935 C936 1.358 . S
C935 C937 1.356 . S
C935 H967 0.903 1_545 S
C936 N933 1.279 . S
C936 C935 1.358 . S
C936 H939 0.930 . S
C937 C934 1.348 . S
C937 C935 1.356 . S
H938 C932 0.930 . S
H939 C936 0.930 . S
O940 Li880 1.956 . S
O940 Li881 1.970 . S
O940 Li882 1.961 . S
O940 C884 1.325 . S
O941 Li880 1.970 . S
O941 Li881 1.956 . S
O941 Li883 1.961 . S
O941 C890 1.325 . S
O942 Li880 1.961 . S
O942 Li882 1.956 . S
O942 Li883 1.970 . S
O942 C912 1.325 . S
O943 Li881 1.961 . S
O943 Li882 1.970 . S
O943 Li883 1.956 . S
O943 C918 1.325 . S
H944 C886 0.929 . S
H945 C887 0.930 . S
H946 C888 0.930 . S
H947 C889 0.930 . S
H948 C891 0.930 . S
H949 C893 0.929 . S
H950 C894 0.930 . S
H951 C895 0.930 . S
H952 C898 0.930 . S
H953 C901 0.929 . S
H954 C906 0.929 . S
H955 C907 0.930 . S
H956 C914 0.929 . S
H957 C915 0.930 . S
H958 C916 0.930 . S
H959 C917 0.930 . S
H960 C919 0.929 . S
H961 C920 0.906 1_545 S
H962 C921 0.930 . S
H963 C922 0.930 . S
H964 C926 0.929 . S
H965 C928 0.930 . S
H966 C934 0.929 . S
H967 C935 0.903 1_565 S
Li968 N985 1.991 . S
Li968 O1028 1.977 . S
Li968 O1029 1.972 1_554 S
Li968 O1030 1.935 1_554 S
Li969 N993 1.990 . S
Li969 O1028 1.970 . S
Li969 O1029 1.956 1_554 S
Li969 O1031 1.961 . S
Li970 N1015 1.990 1_565 S
Li970 O1028 1.961 . S
Li970 O1030 1.956 1_554 S
Li970 O1031 1.970 . S
Li971 N1021 1.990 . S
Li971 O1029 1.961 . S
Li971 O1030 1.970 . S
Li971 O1031 1.956 1_556 S
C972 C974 1.348 . S
C972 C975 1.356 1_565 S
C972 O1028 1.325 . S
N973 C976 1.314 . S
N973 C977 1.279 . S
C974 C972 1.348 . S
C974 C976 1.353 1_565 S
C974 H1032 0.929 . S
C975 C972 1.356 1_545 S
C975 C977 1.358 . S
C975 H1033 0.930 . S
C976 N973 1.314 . S
C976 C974 1.353 1_545 S
C976 H1034 0.930 . S
C977 N973 1.279 . S
C977 C975 1.358 . S
C977 H1035 0.930 . S
C978 C981 1.348 . S
C978 C982 1.356 . S
C978 O1029 1.325 . S
C979 N980 1.279 . S
C979 C982 1.358 . S
C979 H1036 0.930 . S
N980 C979 1.279 . S
N980 C983 1.314 . S
C981 C978 1.348 . S
C981 C983 1.353 . S
C981 H1037 0.929 1_556 S
C982 C978 1.356 . S
C982 C979 1.358 . S
C982 H1038 0.930 . S
C983 N980 1.314 . S
C983 C981 1.353 . S
C983 H1039 0.930 . S
C984 N985 1.314 1_556 S
C984 C989 1.353 1_565 S
C984 H990 0.930 . S
N985 Li968 1.991 . S
N985 C984 1.314 1_554 S
N985 C987 1.279 1_565 S
C986 C987 1.358 . S
C986 C988 1.356 1_554 S
C986 H1040 0.930 . S
C987 N985 1.279 1_545 S
C987 C986 1.358 . S
C987 H991 0.930 . S
C988 C986 1.356 1_556 S
C988 C989 1.348 . S
C989 C984 1.353 1_545 S
C989 C988 1.348 . S
C989 H1041 0.929 . S
H990 C984 0.930 . S
H991 C987 0.930 . S
C992 N993 1.314 . S
C992 C994 1.353 . S
C992 H998 0.930 . S
N993 Li969 1.990 . S
N993 C992 1.314 . S
N993 C996 1.279 . S
C994 C992 1.353 . S
C994 C997 1.348 . S
C994 H1042 0.929 . S
C995 C996 1.358 . S
C995 C997 1.356 . S
C995 H1043 0.930 . S
C996 N993 1.279 . S
C996 C995 1.358 . S
C996 H999 0.930 . S
C997 C994 1.348 . S
C997 C995 1.356 . S
H998 C992 0.930 . S
H999 C996 0.930 . S
C1000 C1002 1.348 . S
C1000 C1003 1.356 1_565 S
C1000 O1030 1.325 . S
N1001 C1004 1.314 1_545 S
N1001 C1005 1.279 . S
C1002 C1000 1.348 . S
C1002 C1004 1.353 . S
C1002 H1044 0.929 . S
C1003 C1000 1.356 1_545 S
C1003 C1005 1.358 . S
C1003 H1045 0.930 . S
C1004 N1001 1.314 1_565 S
C1004 C1002 1.353 . S
C1004 H1046 0.930 . S
C1005 N1001 1.279 . S
C1005 C1003 1.358 . S
C1005 H1047 0.930 . S
C1006 C1007 1.338 1_554 S
C1006 C1008 1.363 . S
C1006 O1031 1.326 . S
C1007 C1006 1.338 1_556 S
C1007 C1009 1.353 . S
C1007 H1048 0.929 . S
C1008 C1006 1.363 . S
C1008 C1010 1.358 . S
C1008 H1049 0.930 . S
C1009 C1007 1.353 . S
C1009 N1011 1.314 . S
C1009 H1050 0.930 . S
C1010 C1008 1.358 . S
C1010 N1011 1.279 1_554 S
C1010 H1051 0.930 . S
N1011 C1009 1.314 . S
N1011 C1010 1.279 1_556 S
C1012 C1014 1.353 . S
C1012 N1015 1.314 . S
C1012 H1018 0.930 . S
C1013 N1015 1.279 1_556 S
C1013 C1016 1.358 . S
C1013 H1019 0.930 . S
C1014 C1012 1.353 . S
C1014 C1017 1.348 . S
C1014 H1052 0.929 . S
N1015 Li970 1.990 1_545 S
N1015 C1012 1.314 . S
N1015 C1013 1.279 1_554 S
C1016 C1013 1.358 . S
C1016 C1017 1.356 1_556 S
C1016 H1053 0.930 . S
C1017 C1014 1.348 . S
C1017 C1016 1.356 1_554 S
H1018 C1012 0.930 . S
H1019 C1013 0.930 . S
C1020 N1021 1.314 . S
C1020 C1022 1.353 . S
C1020 H1026 0.930 . S
N1021 Li971 1.990 . S
N1021 C1020 1.314 . S
N1021 C1024 1.279 . S
C1022 C1020 1.353 . S
C1022 C1025 1.348 . S
C1022 H1054 0.929 . S
C1023 C1024 1.358 . S
C1023 C1025 1.356 . S
C1023 H1055 0.930 . S
C1024 N1021 1.279 . S
C1024 C1023 1.358 . S
C1024 H1027 0.930 . S
C1025 C1022 1.348 . S
C1025 C1023 1.356 . S
H1026 C1020 0.930 . S
H1027 C1024 0.930 . S
O1028 Li968 1.977 . S
O1028 Li969 1.970 . S
O1028 Li970 1.961 . S
O1028 C972 1.325 . S
O1029 Li968 1.972 1_556 S
O1029 Li969 1.956 1_556 S
O1029 Li971 1.961 . S
O1029 C978 1.325 . S
O1030 Li968 1.935 1_556 S
O1030 Li970 1.956 1_556 S
O1030 Li971 1.970 . S
O1030 C1000 1.325 . S
O1031 Li969 1.961 . S
O1031 Li970 1.970 . S
O1031 Li971 1.956 1_554 S
O1031 C1006 1.326 . S
H1032 C974 0.929 . S
H1033 C975 0.930 . S
H1034 C976 0.930 . S
H1035 C977 0.930 . S
H1036 C979 0.930 . S
H1037 C981 0.929 1_554 S
H1038 C982 0.930 . S
H1039 C983 0.930 . S
H1040 C986 0.930 . S
H1041 C989 0.929 . S
H1042 C994 0.929 . S
H1043 C995 0.930 . S
H1044 C1002 0.929 . S
H1045 C1003 0.930 . S
H1046 C1004 0.930 . S
H1047 C1005 0.930 . S
H1048 C1007 0.929 . S
H1049 C1008 0.930 . S
H1050 C1009 0.930 . S
H1051 C1010 0.930 . S
H1052 C1014 0.929 . S
H1053 C1016 0.930 . S
H1054 C1022 0.929 . S
H1055 C1023 0.930 . S
Li1056 N1073 1.990 . S
Li1056 O1116 1.956 . S
Li1056 O1117 1.970 . S
Li1056 O1118 1.961 . S
Li1057 N1081 1.990 . S
Li1057 O1116 1.970 . S
Li1057 O1117 1.956 . S
Li1057 O1119 1.961 . S
Li1058 N1103 1.990 . S
Li1058 O1116 1.961 . S
Li1058 O1118 1.956 . S
Li1058 O1119 1.970 . S
Li1059 N1109 1.990 1_554 S
Li1059 O1117 1.961 . S
Li1059 O1118 1.970 . S
Li1059 O1119 1.956 . S
C1060 C1062 1.348 . S
C1060 C1063 1.356 . S
C1060 O1116 1.325 . S
N1061 C1064 1.314 . S
N1061 C1065 1.279 . S
C1062 C1060 1.348 . S
C1062 C1064 1.353 . S
C1062 H1120 0.929 . S
C1063 C1060 1.356 . S
C1063 C1065 1.358 . S
C1063 H1121 0.930 . S
C1064 N1061 1.314 . S
C1064 C1062 1.353 . S
C1064 H1122 0.930 . S
C1065 N1061 1.279 . S
C1065 C1063 1.358 . S
C1065 H1123 0.930 . S
C1066 C1069 1.348 . S
C1066 C1070 1.356 . S
C1066 O1117 1.325 . S
C1067 N1068 1.279 . S
C1067 C1070 1.358 . S
C1067 H1124 0.930 . S
N1068 C1067 1.279 . S
N1068 C1071 1.314 . S
C1069 C1066 1.348 . S
C1069 C1071 1.353 . S
C1069 H1125 0.929 . S
C1070 C1066 1.356 . S
C1070 C1067 1.358 . S
C1070 H1126 0.930 . S
C1071 N1068 1.314 . S
C1071 C1069 1.353 . S
C1071 H1127 0.930 . S
C1072 N1073 1.314 . S
C1072 C1077 1.353 . S
C1072 H1078 0.930 . S
N1073 Li1056 1.990 . S
N1073 C1072 1.314 . S
N1073 C1075 1.279 . S
C1074 C1075 1.358 . S
C1074 C1076 1.356 . S
C1074 H1128 0.930 . S
C1075 N1073 1.279 . S
C1075 C1074 1.358 . S
C1075 H1079 0.930 . S
C1076 C1074 1.356 . S
C1076 C1077 1.348 . S
C1077 C1072 1.353 . S
C1077 C1076 1.348 . S
C1077 H1129 0.929 . S
H1078 C1072 0.930 . S
H1079 C1075 0.930 . S
C1080 N1081 1.314 . S
C1080 C1082 1.353 . S
C1080 H1086 0.930 . S
N1081 Li1057 1.990 . S
N1081 C1080 1.314 . S
N1081 C1084 1.279 . S
C1082 C1080 1.353 . S
C1082 C1085 1.348 . S
C1082 H1130 0.929 . S
C1083 C1084 1.358 . S
C1083 C1085 1.356 . S
C1083 H1131 0.930 . S
C1084 N1081 1.279 . S
C1084 C1083 1.358 . S
C1084 H1087 0.930 . S
C1085 C1082 1.348 . S
C1085 C1083 1.356 . S
H1086 C1080 0.930 . S
H1087 C1084 0.930 . S
C1088 C1090 1.348 . S
C1088 C1091 1.356 1_556 S
C1088 O1118 1.325 1_556 S
N1089 C1092 1.314 . S
N1089 C1093 1.279 . S
C1090 C1088 1.348 . S
C1090 C1092 1.353 . S
C1090 H1132 0.929 . S
C1091 C1088 1.356 1_554 S
C1091 C1093 1.358 1_554 S
C1091 H1133 0.930 . S
C1092 N1089 1.314 . S
C1092 C1090 1.353 . S
C1092 H1134 0.930 . S
C1093 N1089 1.279 . S
C1093 C1091 1.358 1_556 S
C1093 H1135 0.930 . S
C1094 C1095 1.348 . S
C1094 C1096 1.356 . S
C1094 O1119 1.325 . S
C1095 C1094 1.348 . S
C1095 C1097 1.353 . S
C1095 H1136 0.929 . S
C1096 C1094 1.356 . S
C1096 C1098 1.358 . S
C1096 H1137 0.930 . S
C1097 C1095 1.353 . S
C1097 N1099 1.314 . S
C1097 H1138 0.930 . S
C1098 C1096 1.358 . S
C1098 N1099 1.279 . S
C1098 H1139 0.930 . S
N1099 C1097 1.314 . S
N1099 C1098 1.279 . S
C1100 C1102 1.353 . S
C1100 N1103 1.314 . S
C1100 H1106 0.930 . S
C1101 N1103 1.279 . S
C1101 C1104 1.358 . S
C1101 H1107 0.930 . S
C1102 C1100 1.353 . S
C1102 C1105 1.348 . S
C1102 H1140 0.929 . S
N1103 Li1058 1.990 . S
N1103 C1100 1.314 . S
N1103 C1101 1.279 . S
C1104 C1101 1.358 . S
C1104 C1105 1.356 . S
C1104 H1141 0.930 . S
C1105 C1102 1.348 . S
C1105 C1104 1.356 . S
H1106 C1100 0.930 . S
H1107 C1101 0.930 . S
C1108 N1109 1.314 . S
C1108 C1110 1.353 . S
C1108 H1114 0.930 . S
N1109 Li1059 1.990 1_556 S
N1109 C1108 1.314 . S
N1109 C1112 1.279 . S
C1110 C1108 1.353 . S
C1110 C1113 1.348 . S
C1110 H1142 0.929 . S
C1111 C1112 1.358 . S
C1111 C1113 1.356 . S
C1111 H1143 0.930 . S
C1112 N1109 1.279 . S
C1112 C1111 1.358 . S
C1112 H1115 0.930 . S
C1113 C1110 1.348 . S
C1113 C1111 1.356 . S
H1114 C1108 0.930 . S
H1115 C1112 0.930 . S
O1116 Li1056 1.956 . S
O1116 Li1057 1.970 . S
O1116 Li1058 1.961 . S
O1116 C1060 1.325 . S
O1117 Li1056 1.970 . S
O1117 Li1057 1.956 . S
O1117 Li1059 1.961 . S
O1117 C1066 1.325 . S
O1118 Li1056 1.961 . S
O1118 Li1058 1.956 . S
O1118 Li1059 1.970 . S
O1118 C1088 1.325 1_554 S
O1119 Li1057 1.961 . S
O1119 Li1058 1.970 . S
O1119 Li1059 1.956 . S
O1119 C1094 1.325 . S
H1120 C1062 0.929 . S
H1121 C1063 0.930 . S
H1122 C1064 0.930 . S
H1123 C1065 0.930 . S
H1124 C1067 0.930 . S
H1125 C1069 0.929 . S
H1126 C1070 0.930 . S
H1127 C1071 0.930 . S
H1128 C1074 0.930 . S
H1129 C1077 0.929 . S
H1130 C1082 0.929 . S
H1131 C1083 0.930 . S
H1132 C1090 0.929 . S
H1133 C1091 0.930 . S
H1134 C1092 0.930 . S
H1135 C1093 0.930 . S
H1136 C1095 0.929 . S
H1137 C1096 0.930 . S
H1138 C1097 0.930 . S
H1139 C1098 0.930 . S
H1140 C1102 0.929 . S
H1141 C1104 0.930 . S
H1142 C1110 0.929 . S
H1143 C1111 0.930 . S
Li1144 N1161 1.990 . S
Li1144 O1204 1.956 . S
Li1144 O1205 1.970 . S
Li1144 O1206 1.961 . S
Li1145 N1169 1.990 . S
Li1145 O1204 1.970 . S
Li1145 O1205 1.956 . S
Li1145 O1207 1.961 . S
Li1146 N1191 1.990 . S
Li1146 O1204 1.961 . S
Li1146 O1206 1.956 . S
Li1146 O1207 1.970 . S
Li1147 N1197 1.990 . S
Li1147 O1205 1.961 . S
Li1147 O1206 1.970 . S
Li1147 O1207 1.956 . S
C1148 C1150 1.348 . S
C1148 C1151 1.356 . S
C1148 O1204 1.325 . S
N1149 C1152 1.314 . S
N1149 C1153 1.279 . S
C1150 C1148 1.348 . S
C1150 C1152 1.353 . S
C1150 H1208 0.929 . S
C1151 C1148 1.356 . S
C1151 C1153 1.358 . S
C1151 H1209 0.930 . S
C1152 N1149 1.314 . S
C1152 C1150 1.353 . S
C1152 H1210 0.930 . S
C1153 N1149 1.279 . S
C1153 C1151 1.358 . S
C1153 H1211 0.930 . S
C1154 C1157 1.348 . S
C1154 C1158 1.356 . S
C1154 O1205 1.325 . S
C1155 N1156 1.279 . S
C1155 C1158 1.358 . S
C1155 H1212 0.930 . S
N1156 C1155 1.279 . S
N1156 C1159 1.314 . S
C1157 C1154 1.348 . S
C1157 C1159 1.353 . S
C1157 H1213 0.929 . S
C1158 C1154 1.356 . S
C1158 C1155 1.358 . S
C1158 H1214 0.930 . S
C1159 N1156 1.314 . S
C1159 C1157 1.353 . S
C1159 H1215 0.930 . S
C1160 N1161 1.314 . S
C1160 C1165 1.353 . S
C1160 H1166 0.930 . S
N1161 Li1144 1.990 . S
N1161 C1160 1.314 . S
N1161 C1163 1.279 . S
C1162 C1163 1.358 . S
C1162 C1164 1.356 . S
C1162 H1216 0.930 . S
C1163 N1161 1.279 . S
C1163 C1162 1.358 . S
C1163 H1167 0.930 . S
C1164 C1162 1.356 . S
C1164 C1165 1.348 . S
C1165 C1160 1.353 . S
C1165 C1164 1.348 . S
C1165 H1217 0.929 . S
H1166 C1160 0.930 . S
H1167 C1163 0.930 . S
C1168 N1169 1.314 . S
C1168 C1170 1.353 . S
C1168 H1174 0.930 . S
N1169 Li1145 1.990 . S
N1169 C1168 1.314 . S
N1169 C1172 1.279 . S
C1170 C1168 1.353 . S
C1170 C1173 1.348 . S
C1170 H1218 0.929 . S
C1171 C1172 1.358 . S
C1171 C1173 1.356 . S
C1171 H1219 0.930 . S
C1172 N1169 1.279 . S
C1172 C1171 1.358 . S
C1172 H1175 0.930 . S
C1173 C1170 1.348 . S
C1173 C1171 1.356 . S
H1174 C1168 0.930 . S
H1175 C1172 0.930 . S
C1176 C1178 1.348 . S
C1176 C1179 1.356 . S
C1176 O1206 1.325 . S
N1177 C1180 1.314 . S
N1177 C1181 1.279 . S
C1178 C1176 1.348 . S
C1178 C1180 1.353 . S
C1178 H1220 0.929 . S
C1179 C1176 1.356 . S
C1179 C1181 1.358 . S
C1179 H1221 0.930 . S
C1180 N1177 1.314 . S
C1180 C1178 1.353 . S
C1180 H1222 0.930 . S
C1181 N1177 1.279 . S
C1181 C1179 1.358 . S
C1181 H1223 0.930 . S
C1182 C1183 1.348 1_554 S
C1182 C1184 1.356 . S
C1182 O1207 1.325 . S
C1183 C1182 1.348 1_556 S
C1183 C1185 1.353 . S
C1183 H1224 0.929 . S
C1184 C1182 1.356 . S
C1184 C1186 1.358 1_554 S
C1184 H1225 0.930 . S
C1185 C1183 1.353 . S
C1185 N1187 1.314 . S
C1185 H1226 0.930 . S
C1186 C1184 1.358 1_556 S
C1186 N1187 1.279 . S
C1186 H1227 0.930 . S
N1187 C1185 1.314 . S
N1187 C1186 1.279 . S
C1188 C1190 1.353 1_554 S
C1188 N1191 1.314 . S
C1188 H1194 0.930 . S
C1189 N1191 1.279 . S
C1189 C1192 1.358 1_554 S
C1189 H1195 0.930 . S
C1190 C1188 1.353 1_556 S
C1190 C1193 1.348 . S
C1190 H1228 0.929 . S
N1191 Li1146 1.990 . S
N1191 C1188 1.314 . S
N1191 C1189 1.279 . S
C1192 C1189 1.358 1_556 S
C1192 C1193 1.356 . S
C1192 H1229 0.930 . S
C1193 C1190 1.348 . S
C1193 C1192 1.356 . S
H1194 C1188 0.930 . S
H1195 C1189 0.930 . S
C1196 N1197 1.314 . S
C1196 C1198 1.353 . S
C1196 H1202 0.930 . S
N1197 Li1147 1.990 . S
N1197 C1196 1.314 . S
N1197 C1200 1.279 . S
C1198 C1196 1.353 . S
C1198 C1201 1.348 . S
C1198 H1230 0.929 . S
C1199 C1200 1.358 . S
C1199 C1201 1.356 . S
C1199 H1231 0.930 . S
C1200 N1197 1.279 . S
C1200 C1199 1.358 . S
C1200 H1203 0.930 . S
C1201 C1198 1.348 . S
C1201 C1199 1.356 . S
H1202 C1196 0.930 . S
H1203 C1200 0.930 . S
O1204 Li1144 1.956 . S
O1204 Li1145 1.970 . S
O1204 Li1146 1.961 . S
O1204 C1148 1.325 . S
O1205 Li1144 1.970 . S
O1205 Li1145 1.956 . S
O1205 Li1147 1.961 . S
O1205 C1154 1.325 . S
O1206 Li1144 1.961 . S
O1206 Li1146 1.956 . S
O1206 Li1147 1.970 . S
O1206 C1176 1.325 . S
O1207 Li1145 1.961 . S
O1207 Li1146 1.970 . S
O1207 Li1147 1.956 . S
O1207 C1182 1.325 . S
H1208 C1150 0.929 . S
H1209 C1151 0.930 . S
H1210 C1152 0.930 . S
H1211 C1153 0.930 . S
H1212 C1155 0.930 . S
H1213 C1157 0.929 . S
H1214 C1158 0.930 . S
H1215 C1159 0.930 . S
H1216 C1162 0.930 . S
H1217 C1165 0.929 . S
H1218 C1170 0.929 . S
H1219 C1171 0.930 . S
H1220 C1178 0.929 . S
H1221 C1179 0.930 . S
H1222 C1180 0.930 . S
H1223 C1181 0.930 . S
H1224 C1183 0.929 . S
H1225 C1184 0.930 . S
H1226 C1185 0.930 . S
H1227 C1186 0.930 . S
H1228 C1190 0.929 . S
H1229 C1192 0.930 . S
H1230 C1198 0.929 . S
H1231 C1199 0.930 . S
Li1232 N1249 1.990 . S
Li1232 O1292 1.956 . S
Li1232 O1293 1.970 . S
Li1232 O1294 1.961 . S
Li1233 N1257 1.990 . S
Li1233 O1292 1.970 . S
Li1233 O1293 1.956 . S
Li1233 O1295 1.961 . S
Li1234 N1279 1.990 . S
Li1234 O1292 1.961 . S
Li1234 O1294 1.956 . S
Li1234 O1295 1.970 . S
Li1235 N1285 1.990 . S
Li1235 O1293 1.961 . S
Li1235 O1294 1.970 . S
Li1235 O1295 1.956 . S
C1236 C1238 1.348 . S
C1236 C1239 1.356 . S
C1236 O1292 1.325 . S
N1237 C1240 1.314 . S
N1237 C1241 1.279 . S
C1238 C1236 1.348 . S
C1238 C1240 1.353 . S
C1238 H1296 0.929 . S
C1239 C1236 1.356 . S
C1239 C1241 1.358 . S
C1239 H1297 0.930 . S
C1240 N1237 1.314 . S
C1240 C1238 1.353 . S
C1240 H1298 0.930 . S
C1241 N1237 1.279 . S
C1241 C1239 1.358 . S
C1241 H1299 0.930 . S
C1242 C1245 1.348 . S
C1242 C1246 1.356 . S
C1242 O1293 1.325 . S
C1243 N1244 1.279 . S
C1243 C1246 1.358 . S
C1243 H1300 0.930 . S
N1244 C1243 1.279 . S
N1244 C1247 1.314 . S
C1245 C1242 1.348 . S
C1245 C1247 1.353 . S
C1245 H1301 0.929 . S
C1246 C1242 1.356 . S
C1246 C1243 1.358 . S
C1246 H1302 0.930 . S
C1247 N1244 1.314 . S
C1247 C1245 1.353 . S
C1247 H1303 0.930 . S
C1248 N1249 1.314 . S
C1248 C1253 1.353 . S
C1248 H1254 0.930 . S
N1249 Li1232 1.990 . S
N1249 C1248 1.314 . S
N1249 C1251 1.279 . S
C1250 C1251 1.358 . S
C1250 C1252 1.356 . S
C1250 H1304 0.930 . S
C1251 N1249 1.279 . S
C1251 C1250 1.358 . S
C1251 H1255 0.930 . S
C1252 C1250 1.356 . S
C1252 C1253 1.348 . S
C1253 C1248 1.353 . S
C1253 C1252 1.348 . S
C1253 H1305 0.929 . S
H1254 C1248 0.930 . S
H1255 C1251 0.930 . S
C1256 N1257 1.314 . S
C1256 C1258 1.353 . S
C1256 H1262 0.930 . S
N1257 Li1233 1.990 . S
N1257 C1256 1.314 . S
N1257 C1260 1.279 . S
C1258 C1256 1.353 . S
C1258 C1261 1.348 . S
C1258 H1306 0.929 . S
C1259 C1260 1.358 . S
C1259 C1261 1.356 . S
C1259 H1307 0.930 . S
C1260 N1257 1.279 . S
C1260 C1259 1.358 . S
C1260 H1263 0.930 . S
C1261 C1258 1.348 . S
C1261 C1259 1.356 . S
H1262 C1256 0.930 . S
H1263 C1260 0.930 . S
C1264 C1266 1.348 . S
C1264 C1267 1.356 . S
C1264 O1294 1.325 . S
N1265 C1268 1.314 . S
N1265 C1269 1.279 . S
C1266 C1264 1.348 . S
C1266 C1268 1.353 . S
C1266 H1308 0.929 . S
C1267 C1264 1.356 . S
C1267 C1269 1.358 . S
C1267 H1309 0.930 . S
C1268 N1265 1.314 . S
C1268 C1266 1.353 . S
C1268 H1310 0.930 . S
C1269 N1265 1.279 . S
C1269 C1267 1.358 . S
C1269 H1311 0.930 . S
C1270 C1271 1.348 . S
C1270 C1272 1.356 . S
C1270 O1295 1.325 . S
C1271 C1270 1.348 . S
C1271 C1273 1.353 . S
C1271 H1312 0.929 . S
C1272 C1270 1.356 . S
C1272 C1274 1.358 . S
C1272 H1313 0.930 . S
C1273 C1271 1.353 . S
C1273 N1275 1.314 . S
C1273 H1314 0.930 . S
C1274 C1272 1.358 . S
C1274 N1275 1.279 . S
C1274 H1315 0.930 . S
N1275 C1273 1.314 . S
N1275 C1274 1.279 . S
C1276 C1278 1.353 . S
C1276 N1279 1.314 . S
C1276 H1282 0.930 . S
C1277 N1279 1.279 . S
C1277 C1280 1.358 . S
C1277 H1283 0.930 . S
C1278 C1276 1.353 . S
C1278 C1281 1.348 . S
C1278 H1316 0.929 . S
N1279 Li1234 1.990 . S
N1279 C1276 1.314 . S
N1279 C1277 1.279 . S
C1280 C1277 1.358 . S
C1280 C1281 1.356 . S
C1280 H1317 0.930 . S
C1281 C1278 1.348 . S
C1281 C1280 1.356 . S
H1282 C1276 0.930 . S
H1283 C1277 0.930 . S
C1284 N1285 1.314 . S
C1284 C1286 1.353 . S
C1284 H1290 0.930 . S
N1285 Li1235 1.990 . S
N1285 C1284 1.314 . S
N1285 C1288 1.279 . S
C1286 C1284 1.353 . S
C1286 C1289 1.348 . S
C1286 H1318 0.929 . S
C1287 C1288 1.358 . S
C1287 C1289 1.356 . S
C1287 H1319 0.930 . S
C1288 N1285 1.279 . S
C1288 C1287 1.358 . S
C1288 H1291 0.930 . S
C1289 C1286 1.348 . S
C1289 C1287 1.356 . S
H1290 C1284 0.930 . S
H1291 C1288 0.930 . S
O1292 Li1232 1.956 . S
O1292 Li1233 1.970 . S
O1292 Li1234 1.961 . S
O1292 C1236 1.325 . S
O1293 Li1232 1.970 . S
O1293 Li1233 1.956 . S
O1293 Li1235 1.961 . S
O1293 C1242 1.325 . S
O1294 Li1232 1.961 . S
O1294 Li1234 1.956 . S
O1294 Li1235 1.970 . S
O1294 C1264 1.325 . S
O1295 Li1233 1.961 . S
O1295 Li1234 1.970 . S
O1295 Li1235 1.956 . S
O1295 C1270 1.325 . S
H1296 C1238 0.929 . S
H1297 C1239 0.930 . S
H1298 C1240 0.930 . S
H1299 C1241 0.930 . S
H1300 C1243 0.930 . S
H1301 C1245 0.929 . S
H1302 C1246 0.930 . S
H1303 C1247 0.930 . S
H1304 C1250 0.930 . S
H1305 C1253 0.929 . S
H1306 C1258 0.929 . S
H1307 C1259 0.930 . S
H1308 C1266 0.929 . S
H1309 C1267 0.930 . S
H1310 C1268 0.930 . S
H1311 C1269 0.930 . S
H1312 C1271 0.929 . S
H1313 C1272 0.930 . S
H1314 C1273 0.930 . S
H1315 C1274 0.930 . S
H1316 C1278 0.929 . S
H1317 C1280 0.930 . S
H1318 C1286 0.929 . S
H1319 C1287 0.930 . S
Li1320 N1337 1.990 . S
Li1320 O1380 1.956 . S
Li1320 O1381 1.970 . S
Li1320 O1382 1.961 . S
Li1321 N1345 1.990 . S
Li1321 O1380 1.970 . S
Li1321 O1381 1.956 . S
Li1321 O1383 1.961 . S
Li1322 N1367 1.990 . S
Li1322 O1380 1.961 . S
Li1322 O1382 1.956 . S
Li1322 O1383 1.970 . S
Li1323 N1373 1.990 . S
Li1323 O1381 1.961 . S
Li1323 O1382 1.970 . S
Li1323 O1383 1.956 . S
C1324 C1326 1.348 . S
C1324 C1327 1.356 . S
C1324 O1380 1.325 . S
N1325 C1328 1.314 . S
N1325 C1329 1.279 . S
C1326 C1324 1.348 . S
C1326 C1328 1.353 . S
C1326 H1384 0.929 . S
C1327 C1324 1.356 . S
C1327 C1329 1.358 . S
C1327 H1385 0.930 . S
C1328 N1325 1.314 . S
C1328 C1326 1.353 . S
C1328 H1386 0.930 . S
C1329 N1325 1.279 . S
C1329 C1327 1.358 . S
C1329 H1387 0.930 1_565 S
C1330 C1333 1.348 . S
C1330 C1334 1.356 . S
C1330 O1381 1.325 . S
C1331 N1332 1.279 . S
C1331 C1334 1.358 . S
C1331 H1388 0.930 . S
N1332 C1331 1.279 . S
N1332 C1335 1.314 . S
C1333 C1330 1.348 . S
C1333 C1335 1.353 . S
C1333 H1389 0.929 . S
C1334 C1330 1.356 . S
C1334 C1331 1.358 . S
C1334 H1390 0.930 . S
C1335 N1332 1.314 . S
C1335 C1333 1.353 . S
C1335 H1391 0.930 . S
C1336 N1337 1.314 . S
C1336 C1341 1.353 . S
C1336 H1342 0.930 . S
N1337 Li1320 1.990 . S
N1337 C1336 1.314 . S
N1337 C1339 1.279 . S
C1338 C1339 1.358 . S
C1338 C1340 1.356 . S
C1338 H1392 0.930 . S
C1339 N1337 1.279 . S
C1339 C1338 1.358 . S
C1339 H1343 0.930 . S
C1340 C1338 1.356 . S
C1340 C1341 1.348 . S
C1341 C1336 1.353 . S
C1341 C1340 1.348 . S
C1341 H1393 0.929 . S
H1342 C1336 0.930 . S
H1343 C1339 0.930 . S
C1344 N1345 1.314 . S
C1344 C1346 1.353 . S
C1344 H1350 0.930 . S
N1345 Li1321 1.990 . S
N1345 C1344 1.314 . S
N1345 C1348 1.279 . S
C1346 C1344 1.353 . S
C1346 C1349 1.348 . S
C1346 H1394 0.929 . S
C1347 C1348 1.358 . S
C1347 C1349 1.356 . S
C1347 H1395 0.930 . S
C1348 N1345 1.279 . S
C1348 C1347 1.358 . S
C1348 H1351 0.930 . S
C1349 C1346 1.348 . S
C1349 C1347 1.356 . S
H1350 C1344 0.930 . S
H1351 C1348 0.930 . S
C1352 C1354 1.348 . S
C1352 C1355 1.356 . S
C1352 O1382 1.325 . S
N1353 C1356 1.314 . S
N1353 C1357 1.279 . S
C1354 C1352 1.348 . S
C1354 C1356 1.353 . S
C1354 H1396 0.929 . S
C1355 C1352 1.356 . S
C1355 C1357 1.358 . S
C1355 H1397 0.930 . S
C1356 N1353 1.314 . S
C1356 C1354 1.353 . S
C1356 H1398 0.930 . S
C1357 N1353 1.279 . S
C1357 C1355 1.358 . S
C1357 H1399 0.930 . S
C1358 C1359 1.348 . S
C1358 C1360 1.356 . S
C1358 O1383 1.325 . S
C1359 C1358 1.348 . S
C1359 C1361 1.353 . S
C1359 H1400 0.929 . S
C1360 C1358 1.356 . S
C1360 C1362 1.358 . S
C1360 H1401 0.930 . S
C1361 C1359 1.353 . S
C1361 N1363 1.314 . S
C1361 H1402 0.930 . S
C1362 C1360 1.358 . S
C1362 N1363 1.279 . S
C1362 H1403 0.930 . S
N1363 C1361 1.314 . S
N1363 C1362 1.279 . S
C1364 C1366 1.353 . S
C1364 N1367 1.314 . S
C1364 H1370 0.930 . S
C1365 N1367 1.279 . S
C1365 C1368 1.358 . S
C1365 H1371 0.930 . S
C1366 C1364 1.353 . S
C1366 C1369 1.348 . S
C1366 H1404 0.929 . S
N1367 Li1322 1.990 . S
N1367 C1364 1.314 . S
N1367 C1365 1.279 . S
C1368 C1365 1.358 . S
C1368 C1369 1.356 . S
C1368 H1405 0.930 . S
C1369 C1366 1.348 . S
C1369 C1368 1.356 . S
H1370 C1364 0.930 . S
H1371 C1365 0.930 . S
C1372 N1373 1.314 . S
C1372 C1374 1.353 . S
C1372 H1378 0.930 . S
N1373 Li1323 1.990 . S
N1373 C1372 1.314 . S
N1373 C1376 1.279 . S
C1374 C1372 1.353 . S
C1374 C1377 1.348 . S
C1374 H1406 0.929 . S
C1375 C1376 1.358 . S
C1375 C1377 1.356 . S
C1375 H1407 0.930 . S
C1376 N1373 1.279 . S
C1376 C1375 1.358 . S
C1376 H1379 0.930 . S
C1377 C1374 1.348 . S
C1377 C1375 1.356 . S
H1378 C1372 0.930 . S
H1379 C1376 0.930 . S
O1380 Li1320 1.956 . S
O1380 Li1321 1.970 . S
O1380 Li1322 1.961 . S
O1380 C1324 1.325 . S
O1381 Li1320 1.970 . S
O1381 Li1321 1.956 . S
O1381 Li1323 1.961 . S
O1381 C1330 1.325 . S
O1382 Li1320 1.961 . S
O1382 Li1322 1.956 . S
O1382 Li1323 1.970 . S
O1382 C1352 1.325 . S
O1383 Li1321 1.961 . S
O1383 Li1322 1.970 . S
O1383 Li1323 1.956 . S
O1383 C1358 1.325 . S
H1384 C1326 0.929 . S
H1385 C1327 0.930 . S
H1386 C1328 0.930 . S
H1387 C1329 0.930 1_545 S
H1388 C1331 0.930 . S
H1389 C1333 0.929 . S
H1390 C1334 0.930 . S
H1391 C1335 0.930 . S
H1392 C1338 0.930 . S
H1393 C1341 0.929 . S
H1394 C1346 0.929 . S
H1395 C1347 0.930 . S
H1396 C1354 0.929 . S
H1397 C1355 0.930 . S
H1398 C1356 0.930 . S
H1399 C1357 0.930 . S
H1400 C1359 0.929 . S
H1401 C1360 0.930 . S
H1402 C1361 0.930 . S
H1403 C1362 0.930 . S
H1404 C1366 0.929 . S
H1405 C1368 0.930 . S
H1406 C1374 0.929 . S
H1407 C1375 0.930 . S
Li1408 N1425 1.990 . S
Li1408 O1468 1.956 1_545 S
Li1408 O1469 1.970 . S
Li1408 O1470 1.961 . S
Li1409 N1433 1.990 . S
Li1409 O1468 1.970 . S
Li1409 O1469 1.956 1_565 S
Li1409 O1471 1.961 1_565 S
Li1410 N1455 1.990 . S
Li1410 O1468 1.961 1_545 S
Li1410 O1470 1.956 . S
Li1410 O1471 1.970 . S
Li1411 N1461 1.990 . S
Li1411 O1469 1.961 . S
Li1411 O1470 1.970 . S
Li1411 O1471 1.956 . S
C1412 C1414 1.348 . S
C1412 C1415 1.356 1_655 S
C1412 O1468 1.325 . S
N1413 C1416 1.314 1_455 S
N1413 C1417 1.279 . S
C1414 C1412 1.348 . S
C1414 C1416 1.353 . S
C1414 H1472 0.929 . S
C1415 C1412 1.356 1_455 S
C1415 C1417 1.358 . S
C1415 H1473 0.930 . S
C1416 N1413 1.314 1_655 S
C1416 C1414 1.353 . S
C1416 H1474 0.930 . S
C1417 N1413 1.279 . S
C1417 C1415 1.358 . S
C1417 H1475 0.930 . S
C1418 C1421 1.348 . S
C1418 C1422 1.356 . S
C1418 O1469 1.325 . S
C1419 N1420 1.279 . S
C1419 C1422 1.358 . S
C1419 H1476 0.930 . S
N1420 C1419 1.279 . S
N1420 C1423 1.314 . S
C1421 C1418 1.348 . S
C1421 C1423 1.353 . S
C1421 H1477 0.929 . S
C1422 C1418 1.356 . S
C1422 C1419 1.358 . S
C1422 H1478 0.930 . S
C1423 N1420 1.314 . S
C1423 C1421 1.353 . S
C1423 H1479 0.930 . S
C1424 N1425 1.314 1_455 S
C1424 C1429 1.353 . S
C1424 H1430 0.930 1_455 S
N1425 Li1408 1.990 . S
N1425 C1424 1.314 1_655 S
N1425 C1427 1.279 1_655 S
C1426 C1427 1.358 . S
C1426 C1428 1.356 . S
C1426 H1480 0.930 1_545 S
C1427 N1425 1.279 1_455 S
C1427 C1426 1.358 . S
C1427 H1431 0.930 1_545 S
C1428 C1426 1.356 . S
C1428 C1429 1.348 . S
C1429 C1424 1.353 . S
C1429 C1428 1.348 . S
C1429 H1481 0.929 . S
H1430 C1424 0.930 1_655 S
H1431 C1427 0.930 1_565 S
C1432 N1433 1.314 . S
C1432 C1434 1.353 . S
C1432 H1438 0.930 . S
N1433 Li1409 1.990 . S
N1433 C1432 1.314 . S
N1433 C1436 1.279 . S
C1434 C1432 1.353 . S
C1434 C1437 1.348 . S
C1434 H1482 0.929 . S
C1435 C1436 1.358 . S
C1435 C1437 1.356 . S
C1435 H1483 0.930 . S
C1436 N1433 1.279 . S
C1436 C1435 1.358 . S
C1436 H1439 0.930 . S
C1437 C1434 1.348 . S
C1437 C1435 1.356 . S
H1438 C1432 0.930 . S
H1439 C1436 0.930 . S
C1440 C1442 1.348 . S
C1440 C1443 1.356 1_655 S
C1440 O1470 1.325 . S
N1441 C1444 1.314 . S
N1441 C1445 1.279 . S
C1442 C1440 1.348 . S
C1442 C1444 1.353 1_655 S
C1442 H1484 0.929 . S
C1443 C1440 1.356 1_455 S
C1443 C1445 1.358 . S
C1443 H1485 0.930 . S
C1444 N1441 1.314 . S
C1444 C1442 1.353 1_455 S
C1444 H1486 0.930 1_455 S
C1445 N1441 1.279 . S
C1445 C1443 1.358 . S
C1445 H1487 0.930 . S
C1446 C1447 1.348 . S
C1446 C1448 1.356 1_545 S
C1446 O1471 1.325 . S
C1447 C1446 1.348 . S
C1447 C1449 1.353 . S
C1447 H1488 0.929 . S
C1448 C1446 1.356 1_565 S
C1448 C1450 1.358 . S
C1448 H1489 0.930 . S
C1449 C1447 1.353 . S
C1449 N1451 1.314 1_545 S
C1449 H1490 0.930 . S
C1450 C1448 1.358 . S
C1450 N1451 1.279 . S
C1450 H1491 0.930 . S
N1451 C1449 1.314 1_565 S
N1451 C1450 1.279 . S
C1452 C1454 1.353 1_655 S
C1452 N1455 1.314 1_565 S
C1452 H1458 0.930 . S
C1453 N1455 1.279 1_455 S
C1453 C1456 1.358 . S
C1453 H1459 0.930 . S
C1454 C1452 1.353 1_455 S
C1454 C1457 1.348 1_565 S
C1454 H1492 0.929 . S
N1455 Li1410 1.990 . S
N1455 C1452 1.314 1_545 S
N1455 C1453 1.279 1_655 S
C1456 C1453 1.358 . S
C1456 C1457 1.356 . S
C1456 H1493 0.930 . S
C1457 C1454 1.348 1_545 S
C1457 C1456 1.356 . S
H1458 C1452 0.930 . S
H1459 C1453 0.930 . S
C1460 N1461 1.314 . S
C1460 C1462 1.353 . S
C1460 H1466 0.930 . S
N1461 Li1411 1.990 . S
N1461 C1460 1.314 . S
N1461 C1464 1.279 . S
C1462 C1460 1.353 . S
C1462 C1465 1.348 . S
C1462 H1494 0.929 . S
C1463 C1464 1.358 . S
C1463 C1465 1.356 . S
C1463 H1495 0.930 . S
C1464 N1461 1.279 . S
C1464 C1463 1.358 . S
C1464 H1467 0.930 . S
C1465 C1462 1.348 . S
C1465 C1463 1.356 . S
H1466 C1460 0.930 . S
H1467 C1464 0.930 . S
O1468 Li1408 1.956 1_565 S
O1468 Li1409 1.970 . S
O1468 Li1410 1.961 1_565 S
O1468 C1412 1.325 . S
O1469 Li1408 1.970 . S
O1469 Li1409 1.956 1_545 S
O1469 Li1411 1.961 . S
O1469 C1418 1.325 . S
O1470 Li1408 1.961 . S
O1470 Li1410 1.956 . S
O1470 Li1411 1.970 . S
O1470 C1440 1.325 . S
O1471 Li1409 1.961 1_545 S
O1471 Li1410 1.970 . S
O1471 Li1411 1.956 . S
O1471 C1446 1.325 . S
H1472 C1414 0.929 . S
H1473 C1415 0.930 . S
H1474 C1416 0.930 . S
H1475 C1417 0.930 . S
H1476 C1419 0.930 . S
H1477 C1421 0.929 . S
H1478 C1422 0.930 . S
H1479 C1423 0.930 . S
H1480 C1426 0.930 1_565 S
H1481 C1429 0.929 . S
H1482 C1434 0.929 . S
H1483 C1435 0.930 . S
H1484 C1442 0.929 . S
H1485 C1443 0.930 . S
H1486 C1444 0.930 1_655 S
H1487 C1445 0.930 . S
H1488 C1447 0.929 . S
H1489 C1448 0.930 . S
H1490 C1449 0.930 . S
H1491 C1450 0.930 . S
H1492 C1454 0.929 . S
H1493 C1456 0.930 . S
H1494 C1462 0.929 . S
H1495 C1463 0.930 . S
Li1496 N1513 1.990 . S
Li1496 O1556 1.956 . S
Li1496 O1557 1.970 . S
Li1496 O1558 1.961 . S
Li1497 N1521 1.990 . S
Li1497 O1556 1.970 . S
Li1497 O1557 1.956 . S
Li1497 O1559 1.961 . S
Li1498 N1543 1.990 . S
Li1498 O1556 1.961 . S
Li1498 O1558 1.956 . S
Li1498 O1559 1.970 . S
Li1499 N1549 1.990 . S
Li1499 O1557 1.961 . S
Li1499 O1558 1.970 . S
Li1499 O1559 1.956 . S
C1500 C1502 1.348 . S
C1500 C1503 1.356 . S
C1500 O1556 1.325 . S
N1501 C1504 1.314 . S
N1501 C1505 1.279 . S
C1502 C1500 1.348 . S
C1502 C1504 1.353 . S
C1502 H1560 0.929 . S
C1503 C1500 1.356 . S
C1503 C1505 1.358 . S
C1503 H1561 0.930 . S
C1504 N1501 1.314 . S
C1504 C1502 1.353 . S
C1504 H1562 0.930 . S
C1505 N1501 1.279 . S
C1505 C1503 1.358 . S
C1505 H1563 0.930 . S
C1506 C1509 1.348 . S
C1506 C1510 1.356 . S
C1506 O1557 1.325 . S
C1507 N1508 1.279 . S
C1507 C1510 1.358 . S
C1507 H1564 0.930 . S
N1508 C1507 1.279 . S
N1508 C1511 1.314 . S
C1509 C1506 1.348 . S
C1509 C1511 1.353 . S
C1509 H1565 0.929 . S
C1510 C1506 1.356 . S
C1510 C1507 1.358 . S
C1510 H1566 0.930 . S
C1511 N1508 1.314 . S
C1511 C1509 1.353 . S
C1511 H1567 0.930 . S
C1512 N1513 1.314 . S
C1512 C1517 1.353 . S
C1512 H1518 0.930 . S
N1513 Li1496 1.990 . S
N1513 C1512 1.314 . S
N1513 C1515 1.279 . S
C1514 C1515 1.358 . S
C1514 C1516 1.356 . S
C1514 H1568 0.930 . S
C1515 N1513 1.279 . S
C1515 C1514 1.358 . S
C1515 H1519 0.930 . S
C1516 C1514 1.356 . S
C1516 C1517 1.348 . S
C1517 C1512 1.353 . S
C1517 C1516 1.348 . S
C1517 H1569 0.929 . S
H1518 C1512 0.930 . S
H1519 C1515 0.930 . S
C1520 N1521 1.314 . S
C1520 C1522 1.353 . S
C1520 H1526 0.930 . S
N1521 Li1497 1.990 . S
N1521 C1520 1.314 . S
N1521 C1524 1.279 . S
C1522 C1520 1.353 . S
C1522 C1525 1.348 . S
C1522 H1570 0.929 . S
C1523 C1524 1.358 . S
C1523 C1525 1.356 . S
C1523 H1571 0.930 . S
C1524 N1521 1.279 . S
C1524 C1523 1.358 . S
C1524 H1527 0.930 . S
C1525 C1522 1.348 . S
C1525 C1523 1.356 . S
H1526 C1520 0.930 . S
H1527 C1524 0.930 . S
C1528 C1530 1.348 . S
C1528 C1531 1.356 . S
C1528 O1558 1.325 . S
N1529 C1532 1.314 . S
N1529 C1533 1.279 . S
C1530 C1528 1.348 . S
C1530 C1532 1.353 . S
C1530 H1572 0.929 . S
C1531 C1528 1.356 . S
C1531 C1533 1.358 . S
C1531 H1573 0.930 . S
C1532 N1529 1.314 . S
C1532 C1530 1.353 . S
C1532 H1574 0.930 . S
C1533 N1529 1.279 . S
C1533 C1531 1.358 . S
C1533 H1575 0.930 . S
C1534 C1535 1.348 . S
C1534 C1536 1.356 . S
C1534 O1559 1.325 . S
C1535 C1534 1.348 . S
C1535 C1537 1.353 . S
C1535 H1576 0.929 . S
C1536 C1534 1.356 . S
C1536 C1538 1.358 . S
C1536 H1577 0.930 . S
C1537 C1535 1.353 . S
C1537 N1539 1.314 . S
C1537 H1578 0.930 . S
C1538 C1536 1.358 . S
C1538 N1539 1.279 . S
C1538 H1579 0.930 . S
N1539 C1537 1.314 . S
N1539 C1538 1.279 . S
C1540 C1542 1.353 . S
C1540 N1543 1.314 . S
C1540 H1546 0.930 . S
C1541 N1543 1.279 . S
C1541 C1544 1.358 . S
C1541 H1547 0.930 . S
C1542 C1540 1.353 . S
C1542 C1545 1.348 . S
C1542 H1580 0.929 . S
N1543 Li1498 1.990 . S
N1543 C1540 1.314 . S
N1543 C1541 1.279 . S
C1544 C1541 1.358 . S
C1544 C1545 1.356 . S
C1544 H1581 0.930 . S
C1545 C1542 1.348 . S
C1545 C1544 1.356 . S
H1546 C1540 0.930 . S
H1547 C1541 0.930 . S
C1548 N1549 1.314 . S
C1548 C1550 1.353 . S
C1548 H1554 0.930 . S
N1549 Li1499 1.990 . S
N1549 C1548 1.314 . S
N1549 C1552 1.279 . S
C1550 C1548 1.353 . S
C1550 C1553 1.348 . S
C1550 H1582 0.929 . S
C1551 C1552 1.358 . S
C1551 C1553 1.356 . S
C1551 H1583 0.930 . S
C1552 N1549 1.279 . S
C1552 C1551 1.358 . S
C1552 H1555 0.930 . S
C1553 C1550 1.348 . S
C1553 C1551 1.356 . S
H1554 C1548 0.930 . S
H1555 C1552 0.930 . S
O1556 Li1496 1.956 . S
O1556 Li1497 1.970 . S
O1556 Li1498 1.961 . S
O1556 C1500 1.325 . S
O1557 Li1496 1.970 . S
O1557 Li1497 1.956 . S
O1557 Li1499 1.961 . S
O1557 C1506 1.325 . S
O1558 Li1496 1.961 . S
O1558 Li1498 1.956 . S
O1558 Li1499 1.970 . S
O1558 C1528 1.325 . S
O1559 Li1497 1.961 . S
O1559 Li1498 1.970 . S
O1559 Li1499 1.956 . S
O1559 C1534 1.325 . S
H1560 C1502 0.929 . S
H1561 C1503 0.930 . S
H1562 C1504 0.930 . S
H1563 C1505 0.930 . S
H1564 C1507 0.930 . S
H1565 C1509 0.929 . S
H1566 C1510 0.930 . S
H1567 C1511 0.930 . S
H1568 C1514 0.930 . S
H1569 C1517 0.929 . S
H1570 C1522 0.929 . S
H1571 C1523 0.930 . S
H1572 C1530 0.929 . S
H1573 C1531 0.930 . S
H1574 C1532 0.930 . S
H1575 C1533 0.930 . S
H1576 C1535 0.929 . S
H1577 C1536 0.930 . S
H1578 C1537 0.930 . S
H1579 C1538 0.930 . S
H1580 C1542 0.929 . S
H1581 C1544 0.930 . S
H1582 C1550 0.929 . S
H1583 C1551 0.930 . S
Li1584 N1601 1.990 . S
Li1584 O1644 1.956 . S
Li1584 O1645 1.970 . S
Li1584 O1646 1.961 . S
Li1585 N1609 1.990 . S
Li1585 O1644 1.970 . S
Li1585 O1645 1.956 . S
Li1585 O1647 1.961 . S
Li1586 N1631 1.990 . S
Li1586 O1644 1.961 . S
Li1586 O1646 1.956 . S
Li1586 O1647 1.970 . S
Li1587 N1637 1.990 . S
Li1587 O1645 1.961 . S
Li1587 O1646 1.970 . S
Li1587 O1647 1.956 . S
C1588 C1590 1.348 . S
C1588 C1591 1.356 . S
C1588 O1644 1.325 . S
N1589 C1592 1.314 . S
N1589 C1593 1.279 . S
C1590 C1588 1.348 . S
C1590 C1592 1.353 . S
C1590 H1648 0.929 . S
C1591 C1588 1.356 . S
C1591 C1593 1.358 . S
C1591 H1649 0.930 . S
C1592 N1589 1.314 . S
C1592 C1590 1.353 . S
C1592 H1650 0.930 . S
C1593 N1589 1.279 . S
C1593 C1591 1.358 . S
C1593 H1651 0.930 . S
C1594 C1597 1.348 . S
C1594 C1598 1.356 . S
C1594 O1645 1.325 . S
C1595 N1596 1.279 . S
C1595 C1598 1.358 . S
C1595 H1652 0.930 . S
N1596 C1595 1.279 . S
N1596 C1599 1.314 . S
C1597 C1594 1.348 . S
C1597 C1599 1.353 . S
C1597 H1653 0.929 . S
C1598 C1594 1.356 . S
C1598 C1595 1.358 . S
C1598 H1654 0.930 . S
C1599 N1596 1.314 . S
C1599 C1597 1.353 . S
C1599 H1655 0.930 . S
C1600 N1601 1.314 . S
C1600 C1605 1.353 . S
C1600 H1606 0.930 . S
N1601 Li1584 1.990 . S
N1601 C1600 1.314 . S
N1601 C1603 1.279 . S
C1602 C1603 1.358 . S
C1602 C1604 1.356 . S
C1602 H1656 0.930 . S
C1603 N1601 1.279 . S
C1603 C1602 1.358 . S
C1603 H1607 0.930 . S
C1604 C1602 1.356 . S
C1604 C1605 1.348 . S
C1605 C1600 1.353 . S
C1605 C1604 1.348 . S
C1605 H1657 0.929 . S
H1606 C1600 0.930 . S
H1607 C1603 0.930 . S
C1608 N1609 1.314 . S
C1608 C1610 1.353 . S
C1608 H1614 0.930 . S
N1609 Li1585 1.990 . S
N1609 C1608 1.314 . S
N1609 C1612 1.279 . S
C1610 C1608 1.353 . S
C1610 C1613 1.348 . S
C1610 H1658 0.929 . S
C1611 C1612 1.358 . S
C1611 C1613 1.356 . S
C1611 H1659 0.930 . S
C1612 N1609 1.279 . S
C1612 C1611 1.358 . S
C1612 H1615 0.930 . S
C1613 C1610 1.348 . S
C1613 C1611 1.356 . S
H1614 C1608 0.930 . S
H1615 C1612 0.930 . S
C1616 C1618 1.348 . S
C1616 C1619 1.356 . S
C1616 O1646 1.325 . S
N1617 C1620 1.314 . S
N1617 C1621 1.279 . S
C1618 C1616 1.348 . S
C1618 C1620 1.353 . S
C1618 H1660 0.929 . S
C1619 C1616 1.356 . S
C1619 C1621 1.358 . S
C1619 H1661 0.930 . S
C1620 N1617 1.314 . S
C1620 C1618 1.353 . S
C1620 H1662 0.930 . S
C1621 N1617 1.279 . S
C1621 C1619 1.358 . S
C1621 H1663 0.930 . S
C1622 C1623 1.348 . S
C1622 C1624 1.356 . S
C1622 O1647 1.325 . S
C1623 C1622 1.348 . S
C1623 C1625 1.353 . S
C1623 H1664 0.929 . S
C1624 C1622 1.356 . S
C1624 C1626 1.358 . S
C1624 H1665 0.930 . S
C1625 C1623 1.353 . S
C1625 N1627 1.314 . S
C1625 H1666 0.930 . S
C1626 C1624 1.358 . S
C1626 N1627 1.279 . S
C1626 H1667 0.930 . S
N1627 C1625 1.314 . S
N1627 C1626 1.279 . S
C1628 C1630 1.353 . S
C1628 N1631 1.314 . S
C1628 H1634 0.930 . S
C1629 N1631 1.279 . S
C1629 C1632 1.358 . S
C1629 H1635 0.930 . S
C1630 C1628 1.353 . S
C1630 C1633 1.348 . S
C1630 H1668 0.929 . S
N1631 Li1586 1.990 . S
N1631 C1628 1.314 . S
N1631 C1629 1.279 . S
C1632 C1629 1.358 . S
C1632 C1633 1.356 . S
C1632 H1669 0.930 . S
C1633 C1630 1.348 . S
C1633 C1632 1.356 . S
H1634 C1628 0.930 . S
H1635 C1629 0.930 . S
C1636 N1637 1.314 . S
C1636 C1638 1.353 . S
C1636 H1642 0.930 . S
N1637 Li1587 1.990 . S
N1637 C1636 1.314 . S
N1637 C1640 1.279 . S
C1638 C1636 1.353 . S
C1638 C1641 1.348 . S
C1638 H1670 0.929 . S
C1639 C1640 1.358 . S
C1639 C1641 1.356 . S
C1639 H1671 0.930 . S
C1640 N1637 1.279 . S
C1640 C1639 1.358 . S
C1640 H1643 0.930 . S
C1641 C1638 1.348 . S
C1641 C1639 1.356 . S
H1642 C1636 0.930 . S
H1643 C1640 0.930 . S
O1644 Li1584 1.956 . S
O1644 Li1585 1.970 . S
O1644 Li1586 1.961 . S
O1644 C1588 1.325 . S
O1645 Li1584 1.970 . S
O1645 Li1585 1.956 . S
O1645 Li1587 1.961 . S
O1645 C1594 1.325 . S
O1646 Li1584 1.961 . S
O1646 Li1586 1.956 . S
O1646 Li1587 1.970 . S
O1646 C1616 1.325 . S
O1647 Li1585 1.961 . S
O1647 Li1586 1.970 . S
O1647 Li1587 1.956 . S
O1647 C1622 1.325 . S
H1648 C1590 0.929 . S
H1649 C1591 0.930 . S
H1650 C1592 0.930 . S
H1651 C1593 0.930 . S
H1652 C1595 0.930 . S
H1653 C1597 0.929 . S
H1654 C1598 0.930 . S
H1655 C1599 0.930 . S
H1656 C1602 0.930 . S
H1657 C1605 0.929 . S
H1658 C1610 0.929 . S
H1659 C1611 0.930 . S
H1660 C1618 0.929 . S
H1661 C1619 0.930 . S
H1662 C1620 0.930 . S
H1663 C1621 0.930 . S
H1664 C1623 0.929 . S
H1665 C1624 0.930 . S
H1666 C1625 0.930 . S
H1667 C1626 0.930 . S
H1668 C1630 0.929 . S
H1669 C1632 0.930 . S
H1670 C1638 0.929 . S
H1671 C1639 0.930 . S
Li1672 N1689 1.990 . S
Li1672 O1732 1.956 . S
Li1672 O1733 1.970 . S
Li1672 O1734 1.961 . S
Li1673 N1697 1.990 . S
Li1673 O1732 1.970 . S
Li1673 O1733 1.956 . S
Li1673 O1735 1.961 . S
Li1674 N1719 1.990 . S
Li1674 O1732 1.961 . S
Li1674 O1734 1.956 . S
Li1674 O1735 1.970 . S
Li1675 N1725 1.990 . S
Li1675 O1733 1.961 . S
Li1675 O1734 1.970 . S
Li1675 O1735 1.956 . S
C1676 C1678 1.348 . S
C1676 C1679 1.356 . S
C1676 O1732 1.325 . S
N1677 C1680 1.314 . S
N1677 C1681 1.279 . S
C1678 C1676 1.348 . S
C1678 C1680 1.353 . S
C1678 H1736 0.929 . S
C1679 C1676 1.356 . S
C1679 C1681 1.358 . S
C1679 H1737 0.930 . S
C1680 N1677 1.314 . S
C1680 C1678 1.353 . S
C1680 H1738 0.930 . S
C1681 N1677 1.279 . S
C1681 C1679 1.358 . S
C1681 H1739 0.930 . S
C1682 C1685 1.348 . S
C1682 C1686 1.356 . S
C1682 O1733 1.325 . S
C1683 N1684 1.279 . S
C1683 C1686 1.358 . S
C1683 H1740 0.930 . S
N1684 C1683 1.279 . S
N1684 C1687 1.314 . S
C1685 C1682 1.348 . S
C1685 C1687 1.353 . S
C1685 H1741 0.929 . S
C1686 C1682 1.356 . S
C1686 C1683 1.358 . S
C1686 H1742 0.930 . S
C1687 N1684 1.314 . S
C1687 C1685 1.353 . S
C1687 H1743 0.930 . S
C1688 N1689 1.314 . S
C1688 C1693 1.353 . S
C1688 H1694 0.930 . S
N1689 Li1672 1.990 . S
N1689 C1688 1.314 . S
N1689 C1691 1.279 . S
C1690 C1691 1.358 . S
C1690 C1692 1.356 . S
C1690 H1744 0.930 . S
C1691 N1689 1.279 . S
C1691 C1690 1.358 . S
C1691 H1695 0.930 . S
C1692 C1690 1.356 . S
C1692 C1693 1.348 . S
C1693 C1688 1.353 . S
C1693 C1692 1.348 . S
C1693 H1745 0.929 . S
H1694 C1688 0.930 . S
H1695 C1691 0.930 . S
C1696 N1697 1.314 . S
C1696 C1698 1.353 . S
C1696 H1702 0.930 . S
N1697 Li1673 1.990 . S
N1697 C1696 1.314 . S
N1697 C1700 1.279 . S
C1698 C1696 1.353 . S
C1698 C1701 1.348 . S
C1698 H1746 0.929 . S
C1699 C1700 1.358 . S
C1699 C1701 1.356 . S
C1699 H1747 0.930 . S
C1700 N1697 1.279 . S
C1700 C1699 1.358 . S
C1700 H1703 0.930 . S
C1701 C1698 1.348 . S
C1701 C1699 1.356 . S
H1702 C1696 0.930 . S
H1703 C1700 0.930 . S
C1704 C1706 1.348 1_545 S
C1704 C1707 1.356 . S
C1704 O1734 1.325 . S
N1705 C1708 1.314 . S
N1705 C1709 1.279 . S
C1706 C1704 1.348 1_565 S
C1706 C1708 1.353 . S
C1706 H1748 0.929 . S
C1707 C1704 1.356 . S
C1707 C1709 1.358 1_545 S
C1707 H1749 0.930 . S
C1708 N1705 1.314 . S
C1708 C1706 1.353 . S
C1708 H1750 0.930 . S
C1709 N1705 1.279 . S
C1709 C1707 1.358 1_565 S
C1709 H1751 0.930 . S
C1710 C1711 1.348 . S
C1710 C1712 1.356 . S
C1710 O1735 1.325 . S
C1711 C1710 1.348 . S
C1711 C1713 1.353 . S
C1711 H1752 0.929 . S
C1712 C1710 1.356 . S
C1712 C1714 1.358 . S
C1712 H1753 0.930 . S
C1713 C1711 1.353 . S
C1713 N1715 1.314 . S
C1713 H1754 0.930 . S
C1714 C1712 1.358 . S
C1714 N1715 1.279 . S
C1714 H1755 0.930 . S
N1715 C1713 1.314 . S
N1715 C1714 1.279 . S
C1716 C1718 1.353 . S
C1716 N1719 1.314 . S
C1716 H1722 0.930 . S
C1717 N1719 1.279 . S
C1717 C1720 1.358 . S
C1717 H1723 0.930 . S
C1718 C1716 1.353 . S
C1718 C1721 1.348 . S
C1718 H1756 0.929 . S
N1719 Li1674 1.990 . S
N1719 C1716 1.314 . S
N1719 C1717 1.279 . S
C1720 C1717 1.358 . S
C1720 C1721 1.356 . S
C1720 H1757 0.930 . S
C1721 C1718 1.348 . S
C1721 C1720 1.356 . S
H1722 C1716 0.930 . S
H1723 C1717 0.930 . S
C1724 N1725 1.314 . S
C1724 C1726 1.353 1_545 S
C1724 H1730 0.930 . S
N1725 Li1675 1.990 . S
N1725 C1724 1.314 . S
N1725 C1728 1.279 . S
C1726 C1724 1.353 1_565 S
C1726 C1729 1.348 . S
C1726 H1758 0.929 . S
C1727 C1728 1.358 1_565 S
C1727 C1729 1.356 . S
C1727 H1759 0.930 . S
C1728 N1725 1.279 . S
C1728 C1727 1.358 1_545 S
C1728 H1731 0.930 . S
C1729 C1726 1.348 . S
C1729 C1727 1.356 . S
H1730 C1724 0.930 . S
H1731 C1728 0.930 . S
O1732 Li1672 1.956 . S
O1732 Li1673 1.970 . S
O1732 Li1674 1.961 . S
O1732 C1676 1.325 . S
O1733 Li1672 1.970 . S
O1733 Li1673 1.956 . S
O1733 Li1675 1.961 . S
O1733 C1682 1.325 . S
O1734 Li1672 1.961 . S
O1734 Li1674 1.956 . S
O1734 Li1675 1.970 . S
O1734 C1704 1.325 . S
O1735 Li1673 1.961 . S
O1735 Li1674 1.970 . S
O1735 Li1675 1.956 . S
O1735 C1710 1.325 . S
H1736 C1678 0.929 . S
H1737 C1679 0.930 . S
H1738 C1680 0.930 . S
H1739 C1681 0.930 . S
H1740 C1683 0.930 . S
H1741 C1685 0.929 . S
H1742 C1686 0.930 . S
H1743 C1687 0.930 . S
H1744 C1690 0.930 . S
H1745 C1693 0.929 . S
H1746 C1698 0.929 . S
H1747 C1699 0.930 . S
H1748 C1706 0.929 . S
H1749 C1707 0.930 . S
H1750 C1708 0.930 . S
H1751 C1709 0.930 . S
H1752 C1711 0.929 . S
H1753 C1712 0.930 . S
H1754 C1713 0.930 . S
H1755 C1714 0.930 . S
H1756 C1718 0.929 . S
H1757 C1720 0.930 . S
H1758 C1726 0.929 . S
H1759 C1727 0.930 . S
Li1760 N1777 1.990 . S
Li1760 O1820 1.956 . S
Li1760 O1821 1.970 . S
Li1760 O1822 1.961 . S
Li1761 N1785 1.990 . S
Li1761 O1820 1.970 . S
Li1761 O1821 1.956 . S
Li1761 O1823 1.961 1_554 S
Li1762 N1807 1.990 . S
Li1762 O1820 1.961 1_556 S
Li1762 O1822 1.956 1_556 S
Li1762 O1823 1.970 . S
Li1763 N1813 1.990 . S
Li1763 O1821 1.961 . S
Li1763 O1822 1.970 . S
Li1763 O1823 1.956 1_554 S
C1764 C1766 1.348 . S
C1764 C1767 1.356 . S
C1764 O1820 1.325 . S
N1765 C1768 1.314 . S
N1765 C1769 1.279 . S
C1766 C1764 1.348 . S
C1766 C1768 1.353 . S
C1766 H1824 0.929 . S
C1767 C1764 1.356 . S
C1767 C1769 1.358 . S
C1767 H1825 0.930 . S
C1768 N1765 1.314 . S
C1768 C1766 1.353 . S
C1768 H1826 0.930 . S
C1769 N1765 1.279 . S
C1769 C1767 1.358 . S
C1769 H1827 0.930 . S
C1770 C1773 1.348 . S
C1770 C1774 1.356 . S
C1770 O1821 1.325 . S
C1771 N1772 1.279 . S
C1771 C1774 1.358 . S
C1771 H1828 0.930 . S
N1772 C1771 1.279 . S
N1772 C1775 1.314 . S
C1773 C1770 1.348 . S
C1773 C1775 1.353 . S
C1773 H1829 0.929 . S
C1774 C1770 1.356 . S
C1774 C1771 1.358 . S
C1774 H1830 0.930 . S
C1775 N1772 1.314 . S
C1775 C1773 1.353 . S
C1775 H1831 0.930 . S
C1776 N1777 1.314 . S
C1776 C1781 1.353 . S
C1776 H1782 0.930 . S
N1777 Li1760 1.990 . S
N1777 C1776 1.314 . S
N1777 C1779 1.279 . S
C1778 C1779 1.358 . S
C1778 C1780 1.356 . S
C1778 H1832 0.930 . S
C1779 N1777 1.279 . S
C1779 C1778 1.358 . S
C1779 H1783 0.930 . S
C1780 C1778 1.356 . S
C1780 C1781 1.348 . S
C1781 C1776 1.353 . S
C1781 C1780 1.348 . S
C1781 H1833 0.929 . S
H1782 C1776 0.930 . S
H1783 C1779 0.930 . S
C1784 N1785 1.314 . S
C1784 C1786 1.353 . S
C1784 H1790 0.930 1_554 S
N1785 Li1761 1.990 . S
N1785 C1784 1.314 . S
N1785 C1788 1.279 . S
C1786 C1784 1.353 . S
C1786 C1789 1.348 . S
C1786 H1834 0.929 1_554 S
C1787 C1788 1.358 . S
C1787 C1789 1.356 . S
C1787 H1835 0.930 . S
C1788 N1785 1.279 . S
C1788 C1787 1.358 . S
C1788 H1791 0.930 . S
C1789 C1786 1.348 . S
C1789 C1787 1.356 . S
H1790 C1784 0.930 1_556 S
H1791 C1788 0.930 . S
C1792 C1794 1.348 . S
C1792 C1795 1.356 . S
C1792 O1822 1.325 . S
N1793 C1796 1.314 . S
N1793 C1797 1.279 . S
C1794 C1792 1.348 . S
C1794 C1796 1.353 . S
C1794 H1836 0.929 . S
C1795 C1792 1.356 . S
C1795 C1797 1.358 . S
C1795 H1837 0.930 . S
C1796 N1793 1.314 . S
C1796 C1794 1.353 . S
C1796 H1838 0.930 . S
C1797 N1793 1.279 . S
C1797 C1795 1.358 . S
C1797 H1839 0.930 . S
C1798 C1799 1.348 . S
C1798 C1800 1.356 . S
C1798 O1823 1.325 . S
C1799 C1798 1.348 . S
C1799 C1801 1.353 . S
C1799 H1840 0.929 . S
C1800 C1798 1.356 . S
C1800 C1802 1.358 . S
C1800 H1841 0.930 . S
C1801 C1799 1.353 . S
C1801 N1803 1.314 . S
C1801 H1842 0.930 . S
C1802 C1800 1.358 . S
C1802 N1803 1.279 . S
C1802 H1843 0.930 . S
N1803 C1801 1.314 . S
N1803 C1802 1.279 . S
C1804 C1806 1.353 . S
C1804 N1807 1.314 . S
C1804 H1810 0.930 . S
C1805 N1807 1.279 . S
C1805 C1808 1.358 . S
C1805 H1811 0.930 . S
C1806 C1804 1.353 . S
C1806 C1809 1.348 . S
C1806 H1844 0.929 . S
N1807 Li1762 1.990 . S
N1807 C1804 1.314 . S
N1807 C1805 1.279 . S
C1808 C1805 1.358 . S
C1808 C1809 1.356 . S
C1808 H1845 0.930 . S
C1809 C1806 1.348 . S
C1809 C1808 1.356 . S
H1810 C1804 0.930 . S
H1811 C1805 0.930 . S
C1812 N1813 1.314 . S
C1812 C1814 1.353 . S
C1812 H1818 0.930 . S
N1813 Li1763 1.990 . S
N1813 C1812 1.314 . S
N1813 C1816 1.279 1_554 S
C1814 C1812 1.353 . S
C1814 C1817 1.348 . S
C1814 H1846 0.929 . S
C1815 C1816 1.358 . S
C1815 C1817 1.356 1_556 S
C1815 H1847 0.930 . S
C1816 N1813 1.279 1_556 S
C1816 C1815 1.358 . S
C1816 H1819 0.930 . S
C1817 C1814 1.348 . S
C1817 C1815 1.356 1_554 S
H1818 C1812 0.930 . S
H1819 C1816 0.930 . S
O1820 Li1760 1.956 . S
O1820 Li1761 1.970 . S
O1820 Li1762 1.961 1_554 S
O1820 C1764 1.325 . S
O1821 Li1760 1.970 . S
O1821 Li1761 1.956 . S
O1821 Li1763 1.961 . S
O1821 C1770 1.325 . S
O1822 Li1760 1.961 . S
O1822 Li1762 1.956 1_554 S
O1822 Li1763 1.970 . S
O1822 C1792 1.325 . S
O1823 Li1761 1.961 1_556 S
O1823 Li1762 1.970 . S
O1823 Li1763 1.956 1_556 S
O1823 C1798 1.325 . S
H1824 C1766 0.929 . S
H1825 C1767 0.930 . S
H1826 C1768 0.930 . S
H1827 C1769 0.930 . S
H1828 C1771 0.930 . S
H1829 C1773 0.929 . S
H1830 C1774 0.930 . S
H1831 C1775 0.930 . S
H1832 C1778 0.930 . S
H1833 C1781 0.929 . S
H1834 C1786 0.929 1_556 S
H1835 C1787 0.930 . S
H1836 C1794 0.929 . S
H1837 C1795 0.930 . S
H1838 C1796 0.930 . S
H1839 C1797 0.930 . S
H1840 C1799 0.929 . S
H1841 C1800 0.930 . S
H1842 C1801 0.930 . S
H1843 C1802 0.930 . S
H1844 C1806 0.929 . S
H1845 C1808 0.930 . S
H1846 C1814 0.929 . S
H1847 C1815 0.930 . S
Li1848 N1865 1.990 . S
Li1848 O1908 1.956 . S
Li1848 O1909 1.970 . S
Li1848 O1910 1.961 . S
Li1849 N1873 1.990 . S
Li1849 O1908 1.970 . S
Li1849 O1909 1.956 . S
Li1849 O1911 1.961 . S
Li1850 N1895 1.990 . S
Li1850 O1908 1.961 . S
Li1850 O1910 1.956 . S
Li1850 O1911 1.970 . S
Li1851 N1901 1.990 . S
Li1851 O1909 1.961 . S
Li1851 O1910 1.970 . S
Li1851 O1911 1.956 . S
C1852 C1854 1.348 . S
C1852 C1855 1.356 . S
C1852 O1908 1.325 . S
N1853 C1856 1.314 . S
N1853 C1857 1.279 . S
C1854 C1852 1.348 . S
C1854 C1856 1.353 . S
C1854 H1912 0.929 . S
C1855 C1852 1.356 . S
C1855 C1857 1.358 . S
C1855 H1913 0.930 . S
C1856 N1853 1.314 . S
C1856 C1854 1.353 . S
C1856 H1914 0.930 . S
C1857 N1853 1.279 . S
C1857 C1855 1.358 . S
C1857 H1915 0.930 . S
C1858 C1861 1.348 . S
C1858 C1862 1.356 . S
C1858 O1909 1.325 . S
C1859 N1860 1.279 . S
C1859 C1862 1.358 . S
C1859 H1916 0.930 . S
N1860 C1859 1.279 . S
N1860 C1863 1.314 . S
C1861 C1858 1.348 . S
C1861 C1863 1.353 . S
C1861 H1917 0.929 . S
C1862 C1858 1.356 . S
C1862 C1859 1.358 . S
C1862 H1918 0.930 . S
C1863 N1860 1.314 . S
C1863 C1861 1.353 . S
C1863 H1919 0.930 . S
C1864 N1865 1.314 . S
C1864 C1869 1.353 . S
C1864 H1870 0.930 . S
N1865 Li1848 1.990 . S
N1865 C1864 1.314 . S
N1865 C1867 1.279 . S
C1866 C1867 1.358 . S
C1866 C1868 1.356 . S
C1866 H1920 0.930 . S
C1867 N1865 1.279 . S
C1867 C1866 1.358 . S
C1867 H1871 0.930 . S
C1868 C1866 1.356 . S
C1868 C1869 1.348 . S
C1869 C1864 1.353 . S
C1869 C1868 1.348 . S
C1869 H1921 0.929 . S
H1870 C1864 0.930 . S
H1871 C1867 0.930 . S
C1872 N1873 1.314 . S
C1872 C1874 1.353 . S
C1872 H1878 0.930 . S
N1873 Li1849 1.990 . S
N1873 C1872 1.314 . S
N1873 C1876 1.279 . S
C1874 C1872 1.353 . S
C1874 C1877 1.348 . S
C1874 H1922 0.929 . S
C1875 C1876 1.358 . S
C1875 C1877 1.356 . S
C1875 H1923 0.930 . S
C1876 N1873 1.279 . S
C1876 C1875 1.358 . S
C1876 H1879 0.930 . S
C1877 C1874 1.348 . S
C1877 C1875 1.356 . S
H1878 C1872 0.930 . S
H1879 C1876 0.930 . S
C1880 C1882 1.348 . S
C1880 C1883 1.356 . S
C1880 O1910 1.325 . S
N1881 C1884 1.314 . S
N1881 C1885 1.279 . S
C1882 C1880 1.348 . S
C1882 C1884 1.353 . S
C1882 H1924 0.929 . S
C1883 C1880 1.356 . S
C1883 C1885 1.358 . S
C1883 H1925 0.930 . S
C1884 N1881 1.314 . S
C1884 C1882 1.353 . S
C1884 H1926 0.930 . S
C1885 N1881 1.279 . S
C1885 C1883 1.358 . S
C1885 H1927 0.930 . S
C1886 C1887 1.348 . S
C1886 C1888 1.356 . S
C1886 O1911 1.325 . S
C1887 C1886 1.348 . S
C1887 C1889 1.353 . S
C1887 H1928 0.929 . S
C1888 C1886 1.356 . S
C1888 C1890 1.358 . S
C1888 H1929 0.930 . S
C1889 C1887 1.353 . S
C1889 N1891 1.314 . S
C1889 H1930 0.930 . S
C1890 C1888 1.358 . S
C1890 N1891 1.279 . S
C1890 H1931 0.930 1_655 S
N1891 C1889 1.314 . S
N1891 C1890 1.279 . S
C1892 C1894 1.353 . S
C1892 N1895 1.314 . S
C1892 H1898 0.930 . S
C1893 N1895 1.279 . S
C1893 C1896 1.358 . S
C1893 H1899 0.930 . S
C1894 C1892 1.353 . S
C1894 C1897 1.348 . S
C1894 H1932 0.929 . S
N1895 Li1850 1.990 . S
N1895 C1892 1.314 . S
N1895 C1893 1.279 . S
C1896 C1893 1.358 . S
C1896 C1897 1.356 . S
C1896 H1933 0.930 . S
C1897 C1894 1.348 . S
C1897 C1896 1.356 . S
H1898 C1892 0.930 . S
H1899 C1893 0.930 . S
C1900 N1901 1.314 . S
C1900 C1902 1.353 . S
C1900 H1906 0.930 . S
N1901 Li1851 1.990 . S
N1901 C1900 1.314 . S
N1901 C1904 1.279 . S
C1902 C1900 1.353 . S
C1902 C1905 1.348 . S
C1902 H1934 0.929 . S
C1903 C1904 1.358 . S
C1903 C1905 1.356 . S
C1903 H1935 0.930 . S
C1904 N1901 1.279 . S
C1904 C1903 1.358 . S
C1904 H1907 0.930 . S
C1905 C1902 1.348 . S
C1905 C1903 1.356 . S
H1906 C1900 0.930 . S
H1907 C1904 0.930 . S
O1908 Li1848 1.956 . S
O1908 Li1849 1.970 . S
O1908 Li1850 1.961 . S
O1908 C1852 1.325 . S
O1909 Li1848 1.970 . S
O1909 Li1849 1.956 . S
O1909 Li1851 1.961 . S
O1909 C1858 1.325 . S
O1910 Li1848 1.961 . S
O1910 Li1850 1.956 . S
O1910 Li1851 1.970 . S
O1910 C1880 1.325 . S
O1911 Li1849 1.961 . S
O1911 Li1850 1.970 . S
O1911 Li1851 1.956 . S
O1911 C1886 1.325 . S
H1912 C1854 0.929 . S
H1913 C1855 0.930 . S
H1914 C1856 0.930 . S
H1915 C1857 0.930 . S
H1916 C1859 0.930 . S
H1917 C1861 0.929 . S
H1918 C1862 0.930 . S
H1919 C1863 0.930 . S
H1920 C1866 0.930 . S
H1921 C1869 0.929 . S
H1922 C1874 0.929 . S
H1923 C1875 0.930 . S
H1924 C1882 0.929 . S
H1925 C1883 0.930 . S
H1926 C1884 0.930 . S
H1927 C1885 0.930 . S
H1928 C1887 0.929 . S
H1929 C1888 0.930 . S
H1930 C1889 0.930 . S
H1931 C1890 0.930 1_455 S
H1932 C1894 0.929 . S
H1933 C1896 0.930 . S
H1934 C1902 0.929 . S
H1935 C1903 0.930 . S
Li1936 N1953 1.990 . S
Li1936 O1996 1.956 . S
Li1936 O1997 1.970 . S
Li1936 O1998 1.961 . S
Li1937 N1961 1.990 . S
Li1937 O1996 1.970 . S
Li1937 O1997 1.956 . S
Li1937 O1999 1.961 . S
Li1938 N1983 1.990 . S
Li1938 O1996 1.961 . S
Li1938 O1998 1.956 . S
Li1938 O1999 1.970 . S
Li1939 N1989 1.990 . S
Li1939 O1997 1.961 . S
Li1939 O1998 1.970 . S
Li1939 O1999 1.956 . S
C1940 C1942 1.348 . S
C1940 C1943 1.356 . S
C1940 O1996 1.325 . S
N1941 C1944 1.314 . S
N1941 C1945 1.279 . S
C1942 C1940 1.348 . S
C1942 C1944 1.353 . S
C1942 H2000 0.929 . S
C1943 C1940 1.356 . S
C1943 C1945 1.358 . S
C1943 H2001 0.930 . S
C1944 N1941 1.314 . S
C1944 C1942 1.353 . S
C1944 H2002 0.930 . S
C1945 N1941 1.279 . S
C1945 C1943 1.358 . S
C1945 H2003 0.930 . S
C1946 C1949 1.348 . S
C1946 C1950 1.356 . S
C1946 O1997 1.325 . S
C1947 N1948 1.279 . S
C1947 C1950 1.358 . S
C1947 H2004 0.930 . S
N1948 C1947 1.279 . S
N1948 C1951 1.314 . S
C1949 C1946 1.348 . S
C1949 C1951 1.353 . S
C1949 H2005 0.929 . S
C1950 C1946 1.356 . S
C1950 C1947 1.358 . S
C1950 H2006 0.930 . S
C1951 N1948 1.314 . S
C1951 C1949 1.353 . S
C1951 H2007 0.930 . S
C1952 N1953 1.314 . S
C1952 C1957 1.353 . S
C1952 H1958 0.930 . S
N1953 Li1936 1.990 . S
N1953 C1952 1.314 . S
N1953 C1955 1.279 . S
C1954 C1955 1.358 . S
C1954 C1956 1.356 . S
C1954 H2008 0.930 . S
C1955 N1953 1.279 . S
C1955 C1954 1.358 . S
C1955 H1959 0.930 . S
C1956 C1954 1.356 . S
C1956 C1957 1.348 . S
C1957 C1952 1.353 . S
C1957 C1956 1.348 . S
C1957 H2009 0.929 . S
H1958 C1952 0.930 . S
H1959 C1955 0.930 . S
C1960 N1961 1.314 . S
C1960 C1962 1.353 . S
C1960 H1966 0.930 . S
N1961 Li1937 1.990 . S
N1961 C1960 1.314 . S
N1961 C1964 1.279 . S
C1962 C1960 1.353 . S
C1962 C1965 1.348 . S
C1962 H2010 0.929 . S
C1963 C1964 1.358 . S
C1963 C1965 1.356 . S
C1963 H2011 0.930 . S
C1964 N1961 1.279 . S
C1964 C1963 1.358 . S
C1964 H1967 0.930 . S
C1965 C1962 1.348 . S
C1965 C1963 1.356 . S
H1966 C1960 0.930 . S
H1967 C1964 0.930 . S
C1968 C1970 1.348 . S
C1968 C1971 1.356 . S
C1968 O1998 1.325 . S
N1969 C1972 1.314 . S
N1969 C1973 1.279 . S
C1970 C1968 1.348 . S
C1970 C1972 1.353 . S
C1970 H2012 0.929 . S
C1971 C1968 1.356 . S
C1971 C1973 1.358 . S
C1971 H2013 0.930 . S
C1972 N1969 1.314 . S
C1972 C1970 1.353 . S
C1972 H2014 0.930 . S
C1973 N1969 1.279 . S
C1973 C1971 1.358 . S
C1973 H2015 0.930 . S
C1974 C1975 1.348 . S
C1974 C1976 1.356 . S
C1974 O1999 1.325 . S
C1975 C1974 1.348 . S
C1975 C1977 1.353 . S
C1975 H2016 0.929 . S
C1976 C1974 1.356 . S
C1976 C1978 1.358 . S
C1976 H2017 0.930 . S
C1977 C1975 1.353 . S
C1977 N1979 1.314 . S
C1977 H2018 0.930 . S
C1978 C1976 1.358 . S
C1978 N1979 1.279 . S
C1978 H2019 0.930 . S
N1979 C1977 1.314 . S
N1979 C1978 1.279 . S
C1980 C1982 1.353 . S
C1980 N1983 1.314 . S
C1980 H1986 0.930 . S
C1981 N1983 1.279 . S
C1981 C1984 1.358 . S
C1981 H1987 0.930 . S
C1982 C1980 1.353 . S
C1982 C1985 1.348 . S
C1982 H2020 0.929 . S
N1983 Li1938 1.990 . S
N1983 C1980 1.314 . S
N1983 C1981 1.279 . S
C1984 C1981 1.358 . S
C1984 C1985 1.356 . S
C1984 H2021 0.930 . S
C1985 C1982 1.348 . S
C1985 C1984 1.356 . S
H1986 C1980 0.930 . S
H1987 C1981 0.930 . S
C1988 N1989 1.314 . S
C1988 C1990 1.353 . S
C1988 H1994 0.930 . S
N1989 Li1939 1.990 . S
N1989 C1988 1.314 . S
N1989 C1992 1.279 . S
C1990 C1988 1.353 . S
C1990 C1993 1.348 . S
C1990 H2022 0.929 . S
C1991 C1992 1.358 . S
C1991 C1993 1.356 . S
C1991 H2023 0.930 . S
C1992 N1989 1.279 . S
C1992 C1991 1.358 . S
C1992 H1995 0.930 . S
C1993 C1990 1.348 . S
C1993 C1991 1.356 . S
H1994 C1988 0.930 . S
H1995 C1992 0.930 . S
O1996 Li1936 1.956 . S
O1996 Li1937 1.970 . S
O1996 Li1938 1.961 . S
O1996 C1940 1.325 . S
O1997 Li1936 1.970 . S
O1997 Li1937 1.956 . S
O1997 Li1939 1.961 . S
O1997 C1946 1.325 . S
O1998 Li1936 1.961 . S
O1998 Li1938 1.956 . S
O1998 Li1939 1.970 . S
O1998 C1968 1.325 . S
O1999 Li1937 1.961 . S
O1999 Li1938 1.970 . S
O1999 Li1939 1.956 . S
O1999 C1974 1.325 . S
H2000 C1942 0.929 . S
H2001 C1943 0.930 . S
H2002 C1944 0.930 . S
H2003 C1945 0.930 . S
H2004 C1947 0.930 . S
H2005 C1949 0.929 . S
H2006 C1950 0.930 . S
H2007 C1951 0.930 . S
H2008 C1954 0.930 . S
H2009 C1957 0.929 . S
H2010 C1962 0.929 . S
H2011 C1963 0.930 . S
H2012 C1970 0.929 . S
H2013 C1971 0.930 . S
H2014 C1972 0.930 . S
H2015 C1973 0.930 . S
H2016 C1975 0.929 . S
H2017 C1976 0.930 . S
H2018 C1977 0.930 . S
H2019 C1978 0.930 . S
H2020 C1982 0.929 . S
H2021 C1984 0.930 . S
H2022 C1990 0.929 . S
H2023 C1991 0.930 . S
Li2024 N2041 1.990 . S
Li2024 O2084 1.956 . S
Li2024 O2085 1.970 . S
Li2024 O2086 1.961 . S
Li2025 N2049 1.990 . S
Li2025 O2084 1.970 . S
Li2025 O2085 1.956 . S
Li2025 O2087 1.961 . S
Li2026 N2071 1.990 . S
Li2026 O2084 1.961 . S
Li2026 O2086 1.956 . S
Li2026 O2087 1.970 . S
Li2027 N2077 1.990 . S
Li2027 O2085 1.961 . S
Li2027 O2086 1.970 . S
Li2027 O2087 1.956 . S
C2028 C2030 1.348 . S
C2028 C2031 1.356 . S
C2028 O2084 1.325 . S
N2029 C2032 1.314 . S
N2029 C2033 1.279 . S
C2030 C2028 1.348 . S
C2030 C2032 1.353 . S
C2030 H2088 0.929 . S
C2031 C2028 1.356 . S
C2031 C2033 1.358 . S
C2031 H2089 0.930 . S
C2032 N2029 1.314 . S
C2032 C2030 1.353 . S
C2032 H2090 0.930 . S
C2033 N2029 1.279 . S
C2033 C2031 1.358 . S
C2033 H2091 0.930 . S
C2034 C2037 1.348 . S
C2034 C2038 1.356 . S
C2034 O2085 1.325 . S
C2035 N2036 1.279 . S
C2035 C2038 1.358 . S
C2035 H2092 0.930 . S
N2036 C2035 1.279 . S
N2036 C2039 1.314 . S
C2037 C2034 1.348 . S
C2037 C2039 1.353 . S
C2037 H2093 0.929 . S
C2038 C2034 1.356 . S
C2038 C2035 1.358 . S
C2038 H2094 0.930 . S
C2039 N2036 1.314 . S
C2039 C2037 1.353 . S
C2039 H2095 0.930 . S
C2040 N2041 1.314 . S
C2040 C2045 1.353 . S
C2040 H2046 0.930 . S
N2041 Li2024 1.990 . S
N2041 C2040 1.314 . S
N2041 C2043 1.279 . S
C2042 C2043 1.358 . S
C2042 C2044 1.356 . S
C2042 H2096 0.930 . S
C2043 N2041 1.279 . S
C2043 C2042 1.358 . S
C2043 H2047 0.930 . S
C2044 C2042 1.356 . S
C2044 C2045 1.348 . S
C2045 C2040 1.353 . S
C2045 C2044 1.348 . S
C2045 H2097 0.929 . S
H2046 C2040 0.930 . S
H2047 C2043 0.930 . S
C2048 N2049 1.314 . S
C2048 C2050 1.353 . S
C2048 H2054 0.930 . S
N2049 Li2025 1.990 . S
N2049 C2048 1.314 . S
N2049 C2052 1.279 . S
C2050 C2048 1.353 . S
C2050 C2053 1.348 . S
C2050 H2098 0.929 . S
C2051 C2052 1.358 . S
C2051 C2053 1.356 . S
C2051 H2099 0.930 . S
C2052 N2049 1.279 . S
C2052 C2051 1.358 . S
C2052 H2055 0.930 . S
C2053 C2050 1.348 . S
C2053 C2051 1.356 . S
H2054 C2048 0.930 . S
H2055 C2052 0.930 . S
C2056 C2058 1.348 . S
C2056 C2059 1.356 . S
C2056 O2086 1.325 . S
N2057 C2060 1.314 . S
N2057 C2061 1.279 . S
C2058 C2056 1.348 . S
C2058 C2060 1.353 . S
C2058 H2100 0.929 . S
C2059 C2056 1.356 . S
C2059 C2061 1.358 . S
C2059 H2101 0.930 . S
C2060 N2057 1.314 . S
C2060 C2058 1.353 . S
C2060 H2102 0.930 . S
C2061 N2057 1.279 . S
C2061 C2059 1.358 . S
C2061 H2103 0.930 . S
C2062 C2063 1.348 . S
C2062 C2064 1.356 . S
C2062 O2087 1.325 . S
C2063 C2062 1.348 . S
C2063 C2065 1.353 . S
C2063 H2104 0.929 . S
C2064 C2062 1.356 . S
C2064 C2066 1.358 . S
C2064 H2105 0.930 . S
C2065 C2063 1.353 . S
C2065 N2067 1.314 . S
C2065 H2106 0.930 . S
C2066 C2064 1.358 . S
C2066 N2067 1.279 . S
C2066 H2107 0.930 . S
N2067 C2065 1.314 . S
N2067 C2066 1.279 . S
C2068 C2070 1.353 . S
C2068 N2071 1.314 . S
C2068 H2074 0.930 . S
C2069 N2071 1.279 . S
C2069 C2072 1.358 . S
C2069 H2075 0.930 . S
C2070 C2068 1.353 . S
C2070 C2073 1.348 . S
C2070 H2108 0.929 . S
N2071 Li2026 1.990 . S
N2071 C2068 1.314 . S
N2071 C2069 1.279 . S
C2072 C2069 1.358 . S
C2072 C2073 1.356 . S
C2072 H2109 0.930 . S
C2073 C2070 1.348 . S
C2073 C2072 1.356 . S
H2074 C2068 0.930 . S
H2075 C2069 0.930 . S
C2076 N2077 1.314 . S
C2076 C2078 1.353 . S
C2076 H2082 0.930 . S
N2077 Li2027 1.990 . S
N2077 C2076 1.314 . S
N2077 C2080 1.279 . S
C2078 C2076 1.353 . S
C2078 C2081 1.348 . S
C2078 H2110 0.929 . S
C2079 C2080 1.358 . S
C2079 C2081 1.356 . S
C2079 H2111 0.930 . S
C2080 N2077 1.279 . S
C2080 C2079 1.358 . S
C2080 H2083 0.930 . S
C2081 C2078 1.348 . S
C2081 C2079 1.356 . S
H2082 C2076 0.930 . S
H2083 C2080 0.930 . S
O2084 Li2024 1.956 . S
O2084 Li2025 1.970 . S
O2084 Li2026 1.961 . S
O2084 C2028 1.325 . S
O2085 Li2024 1.970 . S
O2085 Li2025 1.956 . S
O2085 Li2027 1.961 . S
O2085 C2034 1.325 . S
O2086 Li2024 1.961 . S
O2086 Li2026 1.956 . S
O2086 Li2027 1.970 . S
O2086 C2056 1.325 . S
O2087 Li2025 1.961 . S
O2087 Li2026 1.970 . S
O2087 Li2027 1.956 . S
O2087 C2062 1.325 . S
H2088 C2030 0.929 . S
H2089 C2031 0.930 . S
H2090 C2032 0.930 . S
H2091 C2033 0.930 . S
H2092 C2035 0.930 . S
H2093 C2037 0.929 . S
H2094 C2038 0.930 . S
H2095 C2039 0.930 . S
H2096 C2042 0.930 . S
H2097 C2045 0.929 . S
H2098 C2050 0.929 . S
H2099 C2051 0.930 . S
H2100 C2058 0.929 . S
H2101 C2059 0.930 . S
H2102 C2060 0.930 . S
H2103 C2061 0.930 . S
H2104 C2063 0.929 . S
H2105 C2064 0.930 . S
H2106 C2065 0.930 . S
H2107 C2066 0.930 . S
H2108 C2070 0.929 . S
H2109 C2072 0.930 . S
H2110 C2078 0.929 . S
H2111 C2079 0.930 . S
Tb2112 N2141 2.617 . S
Tb2112 N2147 2.572 . S
Tb2112 O2156 2.465 . S
Tb2112 O2157 2.387 . S
Tb2112 O2159 2.428 . S
Tb2112 O2160 2.308 . S
Tb2112 O2164 2.349 . S
Tb2112 O2167 2.393 . S
Tb2112 C2176 2.802 . S
C2113 N2114 1.379 . S
C2113 C2116 1.416 . S
C2113 C2120 1.424 1_556 S
N2114 C2113 1.379 . S
N2114 C2117 1.334 . S
N2114 Tb2123 2.617 1_566 S
C2115 C2117 1.390 . S
C2115 C2118 1.339 . S
C2115 H2135 0.930 . S
C2116 C2113 1.416 . S
C2116 C2118 1.416 . S
C2116 C2122 1.448 . S
C2117 N2114 1.334 . S
C2117 C2115 1.390 . S
C2117 H2128 0.930 . S
C2118 C2115 1.339 . S
C2118 C2116 1.416 . S
C2118 H2139 0.930 . S
C2119 C2120 1.413 . S
C2119 C2121 1.427 1_554 S
C2119 C2125 1.416 . S
C2120 C2113 1.424 1_554 S
C2120 C2119 1.413 . S
C2120 N2124 1.361 . S
C2121 C2119 1.427 1_556 S
C2121 C2122 1.328 . S
C2121 H2136 0.929 . S
C2122 C2116 1.448 . S
C2122 C2121 1.328 . S
C2122 H2137 0.930 . S
Tb2123 N2114 2.617 1_544 S
Tb2123 N2124 2.572 1_545 S
Tb2123 O2158 2.349 1_655 S
Tb2123 O2161 2.393 1_654 S
Tb2123 O2162 2.465 . S
Tb2123 O2163 2.387 1_645 S
Tb2123 O2165 2.428 1_554 S
Tb2123 O2166 2.308 1_655 S
Tb2123 C2187 2.802 . S
N2124 C2120 1.361 . S
N2124 Tb2123 2.572 1_565 S
N2124 C2126 1.340 . S
C2125 C2119 1.416 . S
C2125 C2127 1.332 . S
C2125 H2133 0.931 . S
C2126 N2124 1.340 . S
C2126 C2127 1.407 . S
C2126 H2132 0.930 . S
C2127 C2125 1.332 . S
C2127 C2126 1.407 . S
C2127 H2129 0.929 . S
H2128 C2117 0.930 . S
H2129 C2127 0.929 . S
H2130 C2145 0.930 . S
H2131 C2152 0.929 1_556 S
H2132 C2126 0.930 . S
H2133 C2125 0.931 . S
H2134 C2148 0.930 . S
H2135 C2115 0.930 . S
H2136 C2121 0.929 . S
H2137 C2122 0.930 . S
H2138 C2143 0.930 . S
H2139 C2118 0.930 . S
H2140 C2151 0.931 . S
N2141 Tb2112 2.617 . S
N2141 C2142 1.379 . S
N2141 C2145 1.334 . S
C2142 N2141 1.379 . S
C2142 C2144 1.416 . S
C2142 C2150 1.424 . S
C2143 H2138 0.930 . S
C2143 C2145 1.390 . S
C2143 C2146 1.339 . S
C2144 C2142 1.416 . S
C2144 C2146 1.416 . S
C2144 C2177 1.448 . S
C2145 H2130 0.930 . S
C2145 N2141 1.334 . S
C2145 C2143 1.390 . S
C2146 C2143 1.339 . S
C2146 C2144 1.416 . S
C2146 H2153 0.930 . S
N2147 Tb2112 2.572 . S
N2147 C2148 1.340 . S
N2147 C2150 1.361 . S
C2148 H2134 0.930 . S
C2148 N2147 1.340 . S
C2148 C2152 1.407 . S
C2149 C2150 1.413 . S
C2149 C2151 1.416 . S
C2149 C2178 1.427 . S
C2150 C2142 1.424 . S
C2150 N2147 1.361 . S
C2150 C2149 1.413 . S
C2151 H2140 0.931 . S
C2151 C2149 1.416 . S
C2151 C2152 1.332 . S
C2152 H2131 0.929 1_554 S
C2152 C2148 1.407 . S
C2152 C2151 1.332 . S
H2153 C2146 0.930 . S
H2154 C2177 0.930 . S
H2155 C2178 0.929 . S
O2156 Tb2112 2.465 . S
O2156 C2176 1.264 . S
O2157 Tb2112 2.387 . S
O2157 C2168 1.264 . S
O2158 Tb2123 2.349 1_455 S
O2158 C2168 1.243 . S
O2159 Tb2112 2.428 . S
O2159 C2176 1.256 . S
O2160 Tb2112 2.308 . S
O2160 C2175 1.266 1_554 S
O2161 Tb2123 2.393 1_456 S
O2161 C2175 1.248 . S
O2162 Tb2123 2.465 . S
O2162 C2187 1.264 . S
O2163 Tb2123 2.387 1_465 S
O2163 C2179 1.264 . S
O2164 Tb2112 2.349 . S
O2164 C2179 1.243 1_545 S
O2165 Tb2123 2.428 1_556 S
O2165 C2187 1.256 1_556 S
O2166 Tb2123 2.308 1_455 S
O2166 C2186 1.266 . S
O2167 Tb2112 2.393 . S
O2167 C2186 1.248 . S
C2168 O2157 1.264 . S
C2168 O2158 1.243 . S
C2169 C2172 1.399 . S
C2169 C2174 1.383 . S
C2169 C2176 1.496 . S
C2170 C2171 1.399 . S
C2170 C2174 1.389 . S
C2171 C2170 1.399 . S
C2171 C2173 1.380 . S
C2171 H2188 0.929 . S
C2172 C2169 1.399 . S
C2172 C2173 1.392 . S
C2172 H2189 0.929 . S
C2173 C2171 1.380 . S
C2173 C2172 1.392 . S
C2173 H2190 0.929 . S
C2174 C2169 1.383 . S
C2174 C2170 1.389 . S
C2174 H2191 0.931 . S
C2175 O2160 1.266 1_556 S
C2175 O2161 1.248 . S
C2176 Tb2112 2.802 . S
C2176 O2156 1.264 . S
C2176 O2159 1.256 . S
C2176 C2169 1.496 . S
C2177 C2144 1.448 . S
C2177 H2154 0.930 . S
C2177 C2178 1.328 . S
C2178 C2149 1.427 . S
C2178 H2155 0.929 . S
C2178 C2177 1.328 . S
C2179 O2163 1.264 . S
C2179 O2164 1.243 1_565 S
C2180 C2183 1.399 1_554 S
C2180 C2184 1.383 . S
C2180 C2187 1.496 . S
C2181 C2182 1.399 1_554 S
C2181 C2184 1.389 . S
C2182 C2181 1.399 1_556 S
C2182 C2185 1.380 . S
C2182 H2192 0.929 . S
C2183 C2180 1.399 1_556 S
C2183 C2185 1.392 . S
C2183 H2193 0.929 . S
C2184 C2180 1.383 . S
C2184 C2181 1.389 . S
C2184 H2194 0.931 . S
C2185 C2182 1.380 . S
C2185 C2183 1.392 . S
C2185 H2195 0.929 . S
C2186 O2166 1.266 . S
C2186 O2167 1.248 . S
C2187 Tb2123 2.802 . S
C2187 O2162 1.264 . S
C2187 O2165 1.256 1_554 S
C2187 C2180 1.496 . S
H2188 C2171 0.929 . S
H2189 C2172 0.929 . S
H2190 C2173 0.929 . S
H2191 C2174 0.931 . S
H2192 C2182 0.929 . S
H2193 C2183 0.929 . S
H2194 C2184 0.931 . S
H2195 C2185 0.929 . S
Tb2196 N2225 2.617 . S
Tb2196 N2231 2.572 . S
Tb2196 O2240 2.465 . S
Tb2196 O2241 2.387 . S
Tb2196 O2243 2.428 . S
Tb2196 O2244 2.308 . S
Tb2196 O2248 2.349 . S
Tb2196 O2251 2.393 . S
Tb2196 C2260 2.802 . S
C2197 N2198 1.379 . S
C2197 C2200 1.416 . S
C2197 C2204 1.424 . S
N2198 C2197 1.379 . S
N2198 C2201 1.334 . S
N2198 Tb2207 2.617 . S
C2199 C2201 1.390 . S
C2199 C2202 1.339 . S
C2199 H2219 0.930 . S
C2200 C2197 1.416 . S
C2200 C2202 1.416 . S
C2200 C2206 1.448 . S
C2201 N2198 1.334 . S
C2201 C2199 1.390 . S
C2201 H2212 0.930 . S
C2202 C2199 1.339 . S
C2202 C2200 1.416 . S
C2202 H2223 0.930 . S
C2203 C2204 1.413 . S
C2203 C2205 1.427 . S
C2203 C2209 1.416 . S
C2204 C2197 1.424 . S
C2204 C2203 1.413 . S
C2204 N2208 1.361 . S
C2205 C2203 1.427 . S
C2205 C2206 1.328 . S
C2205 H2220 0.929 . S
C2206 C2200 1.448 . S
C2206 C2205 1.328 . S
C2206 H2221 0.930 . S
Tb2207 N2198 2.617 . S
Tb2207 N2208 2.572 . S
Tb2207 O2242 2.349 . S
Tb2207 O2245 2.393 . S
Tb2207 O2246 2.465 . S
Tb2207 O2247 2.387 . S
Tb2207 O2249 2.428 . S
Tb2207 O2250 2.308 . S
Tb2207 C2271 2.802 . S
N2208 C2204 1.361 . S
N2208 Tb2207 2.572 . S
N2208 C2210 1.340 . S
C2209 C2203 1.416 . S
C2209 C2211 1.332 . S
C2209 H2217 0.931 . S
C2210 N2208 1.340 . S
C2210 C2211 1.407 . S
C2210 H2216 0.930 . S
C2211 C2209 1.332 . S
C2211 C2210 1.407 . S
C2211 H2213 0.929 . S
H2212 C2201 0.930 . S
H2213 C2211 0.929 . S
H2214 C2229 0.930 . S
H2215 C2236 0.929 . S
H2216 C2210 0.930 . S
H2217 C2209 0.931 . S
H2218 C2232 0.930 . S
H2219 C2199 0.930 . S
H2220 C2205 0.929 . S
H2221 C2206 0.930 . S
H2222 C2227 0.930 . S
H2223 C2202 0.930 . S
H2224 C2235 0.931 . S
N2225 Tb2196 2.617 . S
N2225 C2226 1.379 . S
N2225 C2229 1.334 . S
C2226 N2225 1.379 . S
C2226 C2228 1.416 . S
C2226 C2234 1.424 . S
C2227 H2222 0.930 . S
C2227 C2229 1.390 . S
C2227 C2230 1.339 . S
C2228 C2226 1.416 . S
C2228 C2230 1.416 . S
C2228 C2261 1.448 . S
C2229 H2214 0.930 . S
C2229 N2225 1.334 . S
C2229 C2227 1.390 . S
C2230 C2227 1.339 . S
C2230 C2228 1.416 . S
C2230 H2237 0.930 . S
N2231 Tb2196 2.572 . S
N2231 C2232 1.340 . S
N2231 C2234 1.361 . S
C2232 H2218 0.930 . S
C2232 N2231 1.340 . S
C2232 C2236 1.407 . S
C2233 C2234 1.413 . S
C2233 C2235 1.416 . S
C2233 C2262 1.427 . S
C2234 C2226 1.424 . S
C2234 N2231 1.361 . S
C2234 C2233 1.413 . S
C2235 H2224 0.931 . S
C2235 C2233 1.416 . S
C2235 C2236 1.332 . S
C2236 H2215 0.929 . S
C2236 C2232 1.407 . S
C2236 C2235 1.332 . S
H2237 C2230 0.930 . S
H2238 C2261 0.930 . S
H2239 C2262 0.929 . S
O2240 Tb2196 2.465 . S
O2240 C2260 1.264 . S
O2241 Tb2196 2.387 . S
O2241 C2252 1.264 . S
O2242 Tb2207 2.349 . S
O2242 C2252 1.243 . S
O2243 Tb2196 2.428 . S
O2243 C2260 1.256 . S
O2244 Tb2196 2.308 . S
O2244 C2259 1.266 . S
O2245 Tb2207 2.393 . S
O2245 C2259 1.248 . S
O2246 Tb2207 2.465 . S
O2246 C2271 1.264 . S
O2247 Tb2207 2.387 . S
O2247 C2263 1.264 . S
O2248 Tb2196 2.349 . S
O2248 C2263 1.243 . S
O2249 Tb2207 2.428 . S
O2249 C2271 1.256 . S
O2250 Tb2207 2.308 . S
O2250 C2270 1.266 . S
O2251 Tb2196 2.393 . S
O2251 C2270 1.248 . S
C2252 O2241 1.264 . S
C2252 O2242 1.243 . S
C2253 C2256 1.399 . S
C2253 C2258 1.383 . S
C2253 C2260 1.496 . S
C2254 C2255 1.399 . S
C2254 C2258 1.389 . S
C2255 C2254 1.399 . S
C2255 C2257 1.380 . S
C2255 H2272 0.929 . S
C2256 C2253 1.399 . S
C2256 C2257 1.392 . S
C2256 H2273 0.929 . S
C2257 C2255 1.380 . S
C2257 C2256 1.392 . S
C2257 H2274 0.929 . S
C2258 C2253 1.383 . S
C2258 C2254 1.389 . S
C2258 H2275 0.931 . S
C2259 O2244 1.266 . S
C2259 O2245 1.248 . S
C2260 Tb2196 2.802 . S
C2260 O2240 1.264 . S
C2260 O2243 1.256 . S
C2260 C2253 1.496 . S
C2261 C2228 1.448 . S
C2261 H2238 0.930 . S
C2261 C2262 1.328 . S
C2262 C2233 1.427 . S
C2262 H2239 0.929 . S
C2262 C2261 1.328 . S
C2263 O2247 1.264 . S
C2263 O2248 1.243 . S
C2264 C2267 1.399 . S
C2264 C2268 1.383 . S
C2264 C2271 1.496 . S
C2265 C2266 1.399 . S
C2265 C2268 1.389 . S
C2266 C2265 1.399 . S
C2266 C2269 1.380 . S
C2266 H2276 0.929 . S
C2267 C2264 1.399 . S
C2267 C2269 1.392 . S
C2267 H2277 0.929 . S
C2268 C2264 1.383 . S
C2268 C2265 1.389 . S
C2268 H2278 0.931 . S
C2269 C2266 1.380 . S
C2269 C2267 1.392 . S
C2269 H2279 0.929 . S
C2270 O2250 1.266 . S
C2270 O2251 1.248 . S
C2271 Tb2207 2.802 . S
C2271 O2246 1.264 . S
C2271 O2249 1.256 . S
C2271 C2264 1.496 . S
H2272 C2255 0.929 . S
H2273 C2256 0.929 . S
H2274 C2257 0.929 . S
H2275 C2258 0.931 . S
H2276 C2266 0.929 . S
H2277 C2267 0.929 . S
H2278 C2268 0.931 . S
H2279 C2269 0.929 . S
Tb2280 N2309 2.617 . S
Tb2280 N2315 2.572 1_545 S
Tb2280 O2324 2.465 . S
Tb2280 O2325 2.387 1_545 S
Tb2280 O2327 2.428 . S
Tb2280 O2328 2.308 . S
Tb2280 O2332 2.349 . S
Tb2280 O2335 2.393 . S
Tb2280 C2344 2.802 . S
C2281 N2282 1.379 . S
C2281 C2284 1.416 . S
C2281 C2288 1.424 . S
N2282 C2281 1.379 . S
N2282 C2285 1.334 . S
N2282 Tb2291 2.617 . S
C2283 C2285 1.390 . S
C2283 C2286 1.339 . S
C2283 H2303 0.930 . S
C2284 C2281 1.416 . S
C2284 C2286 1.416 . S
C2284 C2290 1.448 . S
C2285 N2282 1.334 . S
C2285 C2283 1.390 . S
C2285 H2296 0.930 . S
C2286 C2283 1.339 . S
C2286 C2284 1.416 . S
C2286 H2307 0.930 . S
C2287 C2288 1.413 . S
C2287 C2289 1.427 . S
C2287 C2293 1.416 . S
C2288 C2281 1.424 . S
C2288 C2287 1.413 . S
C2288 N2292 1.361 . S
C2289 C2287 1.427 . S
C2289 C2290 1.328 . S
C2289 H2304 0.929 . S
C2290 C2284 1.448 . S
C2290 C2289 1.328 . S
C2290 H2305 0.930 . S
Tb2291 N2282 2.617 . S
Tb2291 N2292 2.572 . S
Tb2291 O2326 2.349 1_545 S
Tb2291 O2329 2.393 . S
Tb2291 O2330 2.465 . S
Tb2291 O2331 2.387 . S
Tb2291 O2333 2.428 . S
Tb2291 O2334 2.308 . S
Tb2291 C2355 2.802 . S
N2292 C2288 1.361 . S
N2292 Tb2291 2.572 . S
N2292 C2294 1.340 . S
C2293 C2287 1.416 . S
C2293 C2295 1.332 . S
C2293 H2301 0.931 . S
C2294 N2292 1.340 . S
C2294 C2295 1.407 . S
C2294 H2300 0.930 . S
C2295 C2293 1.332 . S
C2295 C2294 1.407 . S
C2295 H2297 0.929 . S
H2296 C2285 0.930 . S
H2297 C2295 0.929 . S
H2298 C2313 0.930 . S
H2299 C2320 0.929 . S
H2300 C2294 0.930 . S
H2301 C2293 0.931 . S
H2302 C2316 0.930 . S
H2303 C2283 0.930 . S
H2304 C2289 0.929 . S
H2305 C2290 0.930 . S
H2306 C2311 0.930 1_545 S
H2307 C2286 0.930 . S
H2308 C2319 0.931 . S
N2309 Tb2280 2.617 . S
N2309 C2310 1.379 1_545 S
N2309 C2313 1.334 . S
C2310 N2309 1.379 1_565 S
C2310 C2312 1.416 . S
C2310 C2318 1.424 . S
C2311 H2306 0.930 1_565 S
C2311 C2313 1.390 1_565 S
C2311 C2314 1.339 . S
C2312 C2310 1.416 . S
C2312 C2314 1.416 . S
C2312 C2345 1.448 . S
C2313 H2298 0.930 . S
C2313 N2309 1.334 . S
C2313 C2311 1.390 1_545 S
C2314 C2311 1.339 . S
C2314 C2312 1.416 . S
C2314 H2321 0.930 . S
N2315 Tb2280 2.572 1_565 S
N2315 C2316 1.340 . S
N2315 C2318 1.361 . S
C2316 H2302 0.930 . S
C2316 N2315 1.340 . S
C2316 C2320 1.407 . S
C2317 C2318 1.413 . S
C2317 C2319 1.416 . S
C2317 C2346 1.427 . S
C2318 C2310 1.424 . S
C2318 N2315 1.361 . S
C2318 C2317 1.413 . S
C2319 H2308 0.931 . S
C2319 C2317 1.416 . S
C2319 C2320 1.332 . S
C2320 H2299 0.929 . S
C2320 C2316 1.407 . S
C2320 C2319 1.332 . S
H2321 C2314 0.930 . S
H2322 C2345 0.930 . S
H2323 C2346 0.929 . S
O2324 Tb2280 2.465 . S
O2324 C2344 1.264 . S
O2325 Tb2280 2.387 1_565 S
O2325 C2336 1.264 . S
O2326 Tb2291 2.349 1_565 S
O2326 C2336 1.243 . S
O2327 Tb2280 2.428 . S
O2327 C2344 1.256 . S
O2328 Tb2280 2.308 . S
O2328 C2343 1.266 . S
O2329 Tb2291 2.393 . S
O2329 C2343 1.248 . S
O2330 Tb2291 2.465 . S
O2330 C2355 1.264 . S
O2331 Tb2291 2.387 . S
O2331 C2347 1.264 . S
O2332 Tb2280 2.349 . S
O2332 C2347 1.243 . S
O2333 Tb2291 2.428 . S
O2333 C2355 1.256 . S
O2334 Tb2291 2.308 . S
O2334 C2354 1.266 . S
O2335 Tb2280 2.393 . S
O2335 C2354 1.248 . S
C2336 O2325 1.264 . S
C2336 O2326 1.243 . S
C2337 C2340 1.399 . S
C2337 C2342 1.383 . S
C2337 C2344 1.496 . S
C2338 C2339 1.399 . S
C2338 C2342 1.389 . S
C2339 C2338 1.399 . S
C2339 C2341 1.380 . S
C2339 H2356 0.929 . S
C2340 C2337 1.399 . S
C2340 C2341 1.392 . S
C2340 H2357 0.929 . S
C2341 C2339 1.380 . S
C2341 C2340 1.392 . S
C2341 H2358 0.929 . S
C2342 C2337 1.383 . S
C2342 C2338 1.389 . S
C2342 H2359 0.931 . S
C2343 O2328 1.266 . S
C2343 O2329 1.248 . S
C2344 Tb2280 2.802 . S
C2344 O2324 1.264 . S
C2344 O2327 1.256 . S
C2344 C2337 1.496 . S
C2345 C2312 1.448 . S
C2345 H2322 0.930 . S
C2345 C2346 1.328 . S
C2346 C2317 1.427 . S
C2346 H2323 0.929 . S
C2346 C2345 1.328 . S
C2347 O2331 1.264 . S
C2347 O2332 1.243 . S
C2348 C2351 1.399 . S
C2348 C2352 1.383 . S
C2348 C2355 1.496 1_565 S
C2349 C2350 1.399 . S
C2349 C2352 1.389 . S
C2350 C2349 1.399 . S
C2350 C2353 1.380 . S
C2350 H2360 0.929 . S
C2351 C2348 1.399 . S
C2351 C2353 1.392 . S
C2351 H2361 0.929 . S
C2352 C2348 1.383 . S
C2352 C2349 1.389 . S
C2352 H2362 0.931 . S
C2353 C2350 1.380 . S
C2353 C2351 1.392 . S
C2353 H2363 0.929 . S
C2354 O2334 1.266 . S
C2354 O2335 1.248 . S
C2355 Tb2291 2.802 . S
C2355 O2330 1.264 . S
C2355 O2333 1.256 . S
C2355 C2348 1.496 1_545 S
H2356 C2339 0.929 . S
H2357 C2340 0.929 . S
H2358 C2341 0.929 . S
H2359 C2342 0.931 . S
H2360 C2350 0.929 . S
H2361 C2351 0.929 . S
H2362 C2352 0.931 . S
H2363 C2353 0.929 . S
Tb2364 N2393 2.617 . S
Tb2364 N2399 2.572 . S
Tb2364 O2408 2.465 . S
Tb2364 O2409 2.387 . S
Tb2364 O2411 2.428 . S
Tb2364 O2412 2.308 . S
Tb2364 O2416 2.349 . S
Tb2364 O2419 2.393 . S
Tb2364 C2428 2.802 . S
C2365 N2366 1.379 . S
C2365 C2368 1.416 . S
C2365 C2372 1.424 . S
N2366 C2365 1.379 . S
N2366 C2369 1.334 . S
N2366 Tb2375 2.617 . S
C2367 C2369 1.390 . S
C2367 C2370 1.339 . S
C2367 H2387 0.930 . S
C2368 C2365 1.416 . S
C2368 C2370 1.416 . S
C2368 C2374 1.448 . S
C2369 N2366 1.334 . S
C2369 C2367 1.390 . S
C2369 H2380 0.930 . S
C2370 C2367 1.339 . S
C2370 C2368 1.416 . S
C2370 H2391 0.930 . S
C2371 C2372 1.413 . S
C2371 C2373 1.427 . S
C2371 C2377 1.416 . S
C2372 C2365 1.424 . S
C2372 C2371 1.413 . S
C2372 N2376 1.361 . S
C2373 C2371 1.427 . S
C2373 C2374 1.328 . S
C2373 H2388 0.929 . S
C2374 C2368 1.448 . S
C2374 C2373 1.328 . S
C2374 H2389 0.930 . S
Tb2375 N2366 2.617 . S
Tb2375 N2376 2.572 . S
Tb2375 O2410 2.349 . S
Tb2375 O2413 2.393 . S
Tb2375 O2414 2.465 . S
Tb2375 O2415 2.387 . S
Tb2375 O2417 2.428 . S
Tb2375 O2418 2.308 . S
Tb2375 C2439 2.802 . S
N2376 C2372 1.361 . S
N2376 Tb2375 2.572 . S
N2376 C2378 1.340 . S
C2377 C2371 1.416 . S
C2377 C2379 1.332 . S
C2377 H2385 0.931 . S
C2378 N2376 1.340 . S
C2378 C2379 1.407 . S
C2378 H2384 0.930 . S
C2379 C2377 1.332 . S
C2379 C2378 1.407 . S
C2379 H2381 0.929 . S
H2380 C2369 0.930 . S
H2381 C2379 0.929 . S
H2382 C2397 0.930 . S
H2383 C2404 0.929 . S
H2384 C2378 0.930 . S
H2385 C2377 0.931 . S
H2386 C2400 0.930 . S
H2387 C2367 0.930 . S
H2388 C2373 0.929 . S
H2389 C2374 0.930 . S
H2390 C2395 0.930 . S
H2391 C2370 0.930 . S
H2392 C2403 0.931 . S
N2393 Tb2364 2.617 . S
N2393 C2394 1.379 . S
N2393 C2397 1.334 . S
C2394 N2393 1.379 . S
C2394 C2396 1.416 . S
C2394 C2402 1.424 . S
C2395 H2390 0.930 . S
C2395 C2397 1.390 . S
C2395 C2398 1.339 . S
C2396 C2394 1.416 . S
C2396 C2398 1.416 . S
C2396 C2429 1.448 . S
C2397 H2382 0.930 . S
C2397 N2393 1.334 . S
C2397 C2395 1.390 . S
C2398 C2395 1.339 . S
C2398 C2396 1.416 . S
C2398 H2405 0.930 . S
N2399 Tb2364 2.572 . S
N2399 C2400 1.340 . S
N2399 C2402 1.361 . S
C2400 H2386 0.930 . S
C2400 N2399 1.340 . S
C2400 C2404 1.407 . S
C2401 C2402 1.413 . S
C2401 C2403 1.416 . S
C2401 C2430 1.427 . S
C2402 C2394 1.424 . S
C2402 N2399 1.361 . S
C2402 C2401 1.413 . S
C2403 H2392 0.931 . S
C2403 C2401 1.416 . S
C2403 C2404 1.332 . S
C2404 H2383 0.929 . S
C2404 C2400 1.407 . S
C2404 C2403 1.332 . S
H2405 C2398 0.930 . S
H2406 C2429 0.930 . S
H2407 C2430 0.929 . S
O2408 Tb2364 2.465 . S
O2408 C2428 1.264 . S
O2409 Tb2364 2.387 . S
O2409 C2420 1.264 . S
O2410 Tb2375 2.349 . S
O2410 C2420 1.243 . S
O2411 Tb2364 2.428 . S
O2411 C2428 1.256 . S
O2412 Tb2364 2.308 . S
O2412 C2427 1.266 . S
O2413 Tb2375 2.393 . S
O2413 C2427 1.248 . S
O2414 Tb2375 2.465 . S
O2414 C2439 1.264 . S
O2415 Tb2375 2.387 . S
O2415 C2431 1.264 . S
O2416 Tb2364 2.349 . S
O2416 C2431 1.243 . S
O2417 Tb2375 2.428 . S
O2417 C2439 1.256 . S
O2418 Tb2375 2.308 . S
O2418 C2438 1.266 . S
O2419 Tb2364 2.393 . S
O2419 C2438 1.248 . S
C2420 O2409 1.264 . S
C2420 O2410 1.243 . S
C2421 C2424 1.399 . S
C2421 C2426 1.383 . S
C2421 C2428 1.496 . S
C2422 C2423 1.399 . S
C2422 C2426 1.389 . S
C2423 C2422 1.399 . S
C2423 C2425 1.380 . S
C2423 H2440 0.929 . S
C2424 C2421 1.399 . S
C2424 C2425 1.392 . S
C2424 H2441 0.929 . S
C2425 C2423 1.380 . S
C2425 C2424 1.392 . S
C2425 H2442 0.929 . S
C2426 C2421 1.383 . S
C2426 C2422 1.389 . S
C2426 H2443 0.931 . S
C2427 O2412 1.266 . S
C2427 O2413 1.248 . S
C2428 Tb2364 2.802 . S
C2428 O2408 1.264 . S
C2428 O2411 1.256 . S
C2428 C2421 1.496 . S
C2429 C2396 1.448 . S
C2429 H2406 0.930 . S
C2429 C2430 1.328 . S
C2430 C2401 1.427 . S
C2430 H2407 0.929 . S
C2430 C2429 1.328 . S
C2431 O2415 1.264 . S
C2431 O2416 1.243 . S
C2432 C2435 1.399 . S
C2432 C2436 1.383 . S
C2432 C2439 1.496 . S
C2433 C2434 1.399 . S
C2433 C2436 1.389 . S
C2434 C2433 1.399 . S
C2434 C2437 1.380 . S
C2434 H2444 0.929 . S
C2435 C2432 1.399 . S
C2435 C2437 1.392 . S
C2435 H2445 0.929 . S
C2436 C2432 1.383 . S
C2436 C2433 1.389 . S
C2436 H2446 0.931 . S
C2437 C2434 1.380 . S
C2437 C2435 1.392 . S
C2437 H2447 0.929 . S
C2438 O2418 1.266 . S
C2438 O2419 1.248 . S
C2439 Tb2375 2.802 . S
C2439 O2414 1.264 . S
C2439 O2417 1.256 . S
C2439 C2432 1.496 . S
H2440 C2423 0.929 . S
H2441 C2424 0.929 . S
H2442 C2425 0.929 . S
H2443 C2426 0.931 . S
H2444 C2434 0.929 . S
H2445 C2435 0.929 . S
H2446 C2436 0.931 . S
H2447 C2437 0.929 . S
Tb2448 N2477 2.617 1_545 S
Tb2448 N2483 2.571 1_545 S
Tb2448 O2492 2.464 1_545 S
Tb2448 O2493 2.387 . S
Tb2448 O2495 2.427 1_545 S
Tb2448 O2496 2.308 . S
Tb2448 O2500 2.349 . S
Tb2448 O2503 2.393 . S
Tb2448 C2512 2.801 1_545 S
C2449 N2450 1.379 1_455 S
C2449 C2452 1.416 1_455 S
C2449 C2456 1.424 . S
N2450 C2449 1.379 1_655 S
N2450 C2453 1.334 . S
N2450 Tb2459 2.617 1_655 S
C2451 C2453 1.390 . S
C2451 C2454 1.339 . S
C2451 H2471 0.930 . S
C2452 C2449 1.416 1_655 S
C2452 C2454 1.416 . S
C2452 C2458 1.448 1_655 S
C2453 N2450 1.334 . S
C2453 C2451 1.390 . S
C2453 H2464 0.930 . S
C2454 C2451 1.339 . S
C2454 C2452 1.416 . S
C2454 H2475 0.930 . S
C2455 C2456 1.413 . S
C2455 C2457 1.427 . S
C2455 C2461 1.416 . S
C2456 C2449 1.424 . S
C2456 C2455 1.413 . S
C2456 N2460 1.361 . S
C2457 C2455 1.427 . S
C2457 C2458 1.328 . S
C2457 H2472 0.929 . S
C2458 C2452 1.448 1_455 S
C2458 C2457 1.328 . S
C2458 H2473 0.930 1_455 S
Tb2459 N2450 2.617 1_455 S
Tb2459 N2460 2.572 . S
Tb2459 O2494 2.349 . S
Tb2459 O2497 2.393 1_455 S
Tb2459 O2498 2.465 . S
Tb2459 O2499 2.387 . S
Tb2459 O2501 2.428 1_455 S
Tb2459 O2502 2.308 . S
Tb2459 C2523 2.802 . S
N2460 C2456 1.361 . S
N2460 Tb2459 2.572 . S
N2460 C2462 1.340 . S
C2461 C2455 1.416 . S
C2461 C2463 1.332 . S
C2461 H2469 0.931 . S
C2462 N2460 1.340 . S
C2462 C2463 1.407 . S
C2462 H2468 0.930 . S
C2463 C2461 1.332 . S
C2463 C2462 1.407 . S
C2463 H2465 0.929 . S
H2464 C2453 0.930 . S
H2465 C2463 0.929 . S
H2466 C2481 0.930 1_545 S
H2467 C2488 0.929 . S
H2468 C2462 0.930 . S
H2469 C2461 0.931 . S
H2470 C2484 0.956 . S
H2471 C2451 0.930 . S
H2472 C2457 0.929 . S
H2473 C2458 0.930 1_655 S
H2474 C2479 0.930 1_545 S
H2475 C2454 0.930 . S
H2476 C2487 0.931 . S
N2477 Tb2448 2.617 1_565 S
N2477 C2478 1.379 . S
N2477 C2481 1.334 . S
C2478 N2477 1.379 . S
C2478 C2480 1.416 . S
C2478 C2486 1.424 . S
C2479 H2474 0.930 1_565 S
C2479 C2481 1.390 . S
C2479 C2482 1.339 . S
C2480 C2478 1.416 . S
C2480 C2482 1.416 . S
C2480 C2513 1.448 . S
C2481 H2466 0.930 1_565 S
C2481 N2477 1.334 . S
C2481 C2479 1.390 . S
C2482 C2479 1.339 . S
C2482 C2480 1.416 . S
C2482 H2489 0.930 . S
N2483 Tb2448 2.571 1_565 S
N2483 C2484 1.306 1_455 S
N2483 C2486 1.361 . S
C2484 H2470 0.956 . S
C2484 N2483 1.306 1_655 S
C2484 C2488 1.418 . S
C2485 C2486 1.413 . S
C2485 C2487 1.416 1_455 S
C2485 C2514 1.427 . S
C2486 C2478 1.424 . S
C2486 N2483 1.361 . S
C2486 C2485 1.413 . S
C2487 H2476 0.931 . S
C2487 C2485 1.416 1_655 S
C2487 C2488 1.332 . S
C2488 H2467 0.929 . S
C2488 C2484 1.418 . S
C2488 C2487 1.332 . S
H2489 C2482 0.930 . S
H2490 C2513 0.930 . S
H2491 C2514 0.929 . S
O2492 Tb2448 2.464 1_565 S
O2492 C2512 1.264 . S
O2493 Tb2448 2.387 . S
O2493 C2504 1.264 . S
O2494 Tb2459 2.349 . S
O2494 C2504 1.243 . S
O2495 Tb2448 2.427 1_565 S
O2495 C2512 1.256 . S
O2496 Tb2448 2.308 . S
O2496 C2511 1.266 1_455 S
O2497 Tb2459 2.393 1_655 S
O2497 C2511 1.248 . S
O2498 Tb2459 2.465 . S
O2498 C2523 1.264 . S
O2499 Tb2459 2.387 . S
O2499 C2515 1.264 . S
O2500 Tb2448 2.349 . S
O2500 C2515 1.243 . S
O2501 Tb2459 2.428 1_655 S
O2501 C2523 1.256 1_655 S
O2502 Tb2459 2.308 . S
O2502 C2522 1.266 . S
O2503 Tb2448 2.393 . S
O2503 C2522 1.248 . S
C2504 O2493 1.264 . S
C2504 O2494 1.243 . S
C2505 C2508 1.399 . S
C2505 C2510 1.383 . S
C2505 C2512 1.496 . S
C2506 C2507 1.399 . S
C2506 C2510 1.389 . S
C2507 C2506 1.399 . S
C2507 C2509 1.380 . S
C2507 H2524 0.929 . S
C2508 C2505 1.399 . S
C2508 C2509 1.392 . S
C2508 H2525 0.929 . S
C2509 C2507 1.380 . S
C2509 C2508 1.392 . S
C2509 H2526 0.929 . S
C2510 C2505 1.383 . S
C2510 C2506 1.389 . S
C2510 H2527 0.931 . S
C2511 O2496 1.266 1_655 S
C2511 O2497 1.248 . S
C2512 Tb2448 2.801 1_565 S
C2512 O2492 1.264 . S
C2512 O2495 1.256 . S
C2512 C2505 1.496 . S
C2513 C2480 1.448 . S
C2513 H2490 0.930 . S
C2513 C2514 1.328 . S
C2514 C2485 1.427 . S
C2514 H2491 0.929 . S
C2514 C2513 1.328 . S
C2515 O2499 1.264 . S
C2515 O2500 1.243 . S
C2516 C2519 1.399 1_455 S
C2516 C2520 1.383 . S
C2516 C2523 1.496 . S
C2517 C2518 1.399 1_455 S
C2517 C2520 1.389 . S
C2518 C2517 1.399 1_655 S
C2518 C2521 1.380 . S
C2518 H2528 0.929 . S
C2519 C2516 1.399 1_655 S
C2519 C2521 1.392 . S
C2519 H2529 0.929 . S
C2520 C2516 1.383 . S
C2520 C2517 1.389 . S
C2520 H2530 0.931 . S
C2521 C2518 1.380 . S
C2521 C2519 1.392 . S
C2521 H2531 0.929 . S
C2522 O2502 1.266 . S
C2522 O2503 1.248 . S
C2523 Tb2459 2.802 . S
C2523 O2498 1.264 . S
C2523 O2501 1.256 1_455 S
C2523 C2516 1.496 . S
H2524 C2507 0.929 . S
H2525 C2508 0.929 . S
H2526 C2509 0.929 . S
H2527 C2510 0.931 . S
H2528 C2518 0.929 . S
H2529 C2519 0.929 . S
H2530 C2520 0.931 . S
H2531 C2521 0.929 . S
Tb2532 N2561 2.617 . S
Tb2532 N2567 2.572 . S
Tb2532 O2576 2.465 . S
Tb2532 O2577 2.387 . S
Tb2532 O2579 2.428 . S
Tb2532 O2580 2.308 . S
Tb2532 O2584 2.349 . S
Tb2532 O2587 2.393 . S
Tb2532 C2596 2.802 . S
C2533 N2534 1.379 . S
C2533 C2536 1.416 . S
C2533 C2540 1.424 . S
N2534 C2533 1.379 . S
N2534 C2537 1.334 . S
N2534 Tb2543 2.617 . S
C2535 C2537 1.390 . S
C2535 C2538 1.339 . S
C2535 H2555 0.930 . S
C2536 C2533 1.416 . S
C2536 C2538 1.416 . S
C2536 C2542 1.448 . S
C2537 N2534 1.334 . S
C2537 C2535 1.390 . S
C2537 H2548 0.930 . S
C2538 C2535 1.339 . S
C2538 C2536 1.416 . S
C2538 H2559 0.930 . S
C2539 C2540 1.413 . S
C2539 C2541 1.427 . S
C2539 C2545 1.416 . S
C2540 C2533 1.424 . S
C2540 C2539 1.413 . S
C2540 N2544 1.361 . S
C2541 C2539 1.427 . S
C2541 C2542 1.328 . S
C2541 H2556 0.929 . S
C2542 C2536 1.448 . S
C2542 C2541 1.328 . S
C2542 H2557 0.930 . S
Tb2543 N2534 2.617 . S
Tb2543 N2544 2.572 . S
Tb2543 O2578 2.349 . S
Tb2543 O2581 2.393 . S
Tb2543 O2582 2.465 . S
Tb2543 O2583 2.387 . S
Tb2543 O2585 2.428 . S
Tb2543 O2586 2.308 . S
Tb2543 C2607 2.802 . S
N2544 C2540 1.361 . S
N2544 Tb2543 2.572 . S
N2544 C2546 1.340 . S
C2545 C2539 1.416 . S
C2545 C2547 1.332 . S
C2545 H2553 0.931 . S
C2546 N2544 1.340 . S
C2546 C2547 1.407 . S
C2546 H2552 0.930 . S
C2547 C2545 1.332 . S
C2547 C2546 1.407 . S
C2547 H2549 0.929 . S
H2548 C2537 0.930 . S
H2549 C2547 0.929 . S
H2550 C2565 0.930 . S
H2551 C2572 0.929 . S
H2552 C2546 0.930 . S
H2553 C2545 0.931 . S
H2554 C2568 0.930 . S
H2555 C2535 0.930 . S
H2556 C2541 0.929 . S
H2557 C2542 0.930 . S
H2558 C2563 0.930 . S
H2559 C2538 0.930 . S
H2560 C2571 0.931 . S
N2561 Tb2532 2.617 . S
N2561 C2562 1.379 . S
N2561 C2565 1.334 . S
C2562 N2561 1.379 . S
C2562 C2564 1.416 . S
C2562 C2570 1.424 . S
C2563 H2558 0.930 . S
C2563 C2565 1.390 . S
C2563 C2566 1.339 . S
C2564 C2562 1.416 . S
C2564 C2566 1.416 . S
C2564 C2597 1.448 . S
C2565 H2550 0.930 . S
C2565 N2561 1.334 . S
C2565 C2563 1.390 . S
C2566 C2563 1.339 . S
C2566 C2564 1.416 . S
C2566 H2573 0.930 . S
N2567 Tb2532 2.572 . S
N2567 C2568 1.340 . S
N2567 C2570 1.361 . S
C2568 H2554 0.930 . S
C2568 N2567 1.340 . S
C2568 C2572 1.407 . S
C2569 C2570 1.413 . S
C2569 C2571 1.416 . S
C2569 C2598 1.427 . S
C2570 C2562 1.424 . S
C2570 N2567 1.361 . S
C2570 C2569 1.413 . S
C2571 H2560 0.931 . S
C2571 C2569 1.416 . S
C2571 C2572 1.332 . S
C2572 H2551 0.929 . S
C2572 C2568 1.407 . S
C2572 C2571 1.332 . S
H2573 C2566 0.930 . S
H2574 C2597 0.930 . S
H2575 C2598 0.929 . S
O2576 Tb2532 2.465 . S
O2576 C2596 1.264 . S
O2577 Tb2532 2.387 . S
O2577 C2588 1.264 . S
O2578 Tb2543 2.349 . S
O2578 C2588 1.243 . S
O2579 Tb2532 2.428 . S
O2579 C2596 1.256 . S
O2580 Tb2532 2.308 . S
O2580 C2595 1.266 . S
O2581 Tb2543 2.393 . S
O2581 C2595 1.248 . S
O2582 Tb2543 2.465 . S
O2582 C2607 1.264 . S
O2583 Tb2543 2.387 . S
O2583 C2599 1.264 . S
O2584 Tb2532 2.349 . S
O2584 C2599 1.243 . S
O2585 Tb2543 2.428 . S
O2585 C2607 1.256 . S
O2586 Tb2543 2.308 . S
O2586 C2606 1.266 . S
O2587 Tb2532 2.393 . S
O2587 C2606 1.248 . S
C2588 O2577 1.264 . S
C2588 O2578 1.243 . S
C2589 C2592 1.399 . S
C2589 C2594 1.383 . S
C2589 C2596 1.496 . S
C2590 C2591 1.399 . S
C2590 C2594 1.389 . S
C2591 C2590 1.399 . S
C2591 C2593 1.380 . S
C2591 H2608 0.929 . S
C2592 C2589 1.399 . S
C2592 C2593 1.392 . S
C2592 H2609 0.929 . S
C2593 C2591 1.380 . S
C2593 C2592 1.392 . S
C2593 H2610 0.929 . S
C2594 C2589 1.383 . S
C2594 C2590 1.389 . S
C2594 H2611 0.931 . S
C2595 O2580 1.266 . S
C2595 O2581 1.248 . S
C2596 Tb2532 2.802 . S
C2596 O2576 1.264 . S
C2596 O2579 1.256 . S
C2596 C2589 1.496 . S
C2597 C2564 1.448 . S
C2597 H2574 0.930 . S
C2597 C2598 1.328 . S
C2598 C2569 1.427 . S
C2598 H2575 0.929 . S
C2598 C2597 1.328 . S
C2599 O2583 1.264 . S
C2599 O2584 1.243 . S
C2600 C2603 1.399 . S
C2600 C2604 1.383 . S
C2600 C2607 1.496 . S
C2601 C2602 1.399 . S
C2601 C2604 1.389 . S
C2602 C2601 1.399 . S
C2602 C2605 1.380 . S
C2602 H2612 0.929 . S
C2603 C2600 1.399 . S
C2603 C2605 1.392 . S
C2603 H2613 0.929 . S
C2604 C2600 1.383 . S
C2604 C2601 1.389 . S
C2604 H2614 0.931 . S
C2605 C2602 1.380 . S
C2605 C2603 1.392 . S
C2605 H2615 0.929 . S
C2606 O2586 1.266 . S
C2606 O2587 1.248 . S
C2607 Tb2543 2.802 . S
C2607 O2582 1.264 . S
C2607 O2585 1.256 . S
C2607 C2600 1.496 . S
H2608 C2591 0.929 . S
H2609 C2592 0.929 . S
H2610 C2593 0.929 . S
H2611 C2594 0.931 . S
H2612 C2602 0.929 . S
H2613 C2603 0.929 . S
H2614 C2604 0.931 . S
H2615 C2605 0.929 . S
Tb2616 N2645 2.623 . S
Tb2616 N2651 2.586 . S
Tb2616 O2660 2.482 . S
Tb2616 O2661 2.377 1_556 S
Tb2616 O2663 2.441 . S
Tb2616 O2664 2.306 . S
Tb2616 O2668 2.342 1_556 S
Tb2616 O2671 2.377 1_556 S
Tb2616 C2680 2.820 . S
C2617 N2618 1.379 . S
C2617 C2620 1.416 . S
C2617 C2624 1.424 1_565 S
N2618 C2617 1.379 . S
N2618 C2621 1.334 . S
N2618 Tb2627 2.617 1_565 S
C2619 C2621 1.390 . S
C2619 C2622 1.339 . S
C2619 H2639 0.930 . S
C2620 C2617 1.416 . S
C2620 C2622 1.416 . S
C2620 C2626 1.448 . S
C2621 N2618 1.334 . S
C2621 C2619 1.390 . S
C2621 H2632 0.930 . S
C2622 C2619 1.339 . S
C2622 C2620 1.416 . S
C2622 H2643 0.930 . S
C2623 C2624 1.413 . S
C2623 C2625 1.427 . S
C2623 C2629 1.416 . S
C2624 C2617 1.424 1_545 S
C2624 C2623 1.413 . S
C2624 N2628 1.361 . S
C2625 C2623 1.427 . S
C2625 C2626 1.328 1_545 S
C2625 H2640 0.929 . S
C2626 C2620 1.448 . S
C2626 C2625 1.328 1_565 S
C2626 H2641 0.930 . S
Tb2627 N2618 2.617 1_545 S
Tb2627 N2628 2.572 . S
Tb2627 O2662 2.349 . S
Tb2627 O2665 2.393 1_545 S
Tb2627 O2666 2.465 . S
Tb2627 O2667 2.387 . S
Tb2627 O2669 2.428 1_545 S
Tb2627 O2670 2.308 . S
Tb2627 C2691 2.802 1_545 S
N2628 C2624 1.361 . S
N2628 Tb2627 2.572 . S
N2628 C2630 1.340 . S
C2629 C2623 1.416 . S
C2629 C2631 1.332 . S
C2629 H2637 0.931 . S
C2630 N2628 1.340 . S
C2630 C2631 1.407 . S
C2630 H2636 0.930 . S
C2631 C2629 1.332 . S
C2631 C2630 1.407 . S
C2631 H2633 0.929 . S
H2632 C2621 0.930 . S
H2633 C2631 0.929 . S
H2634 C2649 0.930 1_554 S
H2635 C2656 0.929 . S
H2636 C2630 0.930 . S
H2637 C2629 0.931 . S
H2638 C2652 0.930 . S
H2639 C2619 0.930 . S
H2640 C2625 0.929 . S
H2641 C2626 0.930 . S
H2642 C2647 0.930 1_554 S
H2643 C2622 0.930 . S
H2644 C2655 0.937 . S
N2645 Tb2616 2.623 . S
N2645 C2646 1.379 . S
N2645 C2649 1.334 . S
C2646 N2645 1.379 . S
C2646 C2648 1.416 . S
C2646 C2654 1.424 . S
C2647 H2642 0.930 1_556 S
C2647 C2649 1.390 . S
C2647 C2650 1.339 . S
C2648 C2646 1.416 . S
C2648 C2650 1.416 . S
C2648 C2681 1.448 . S
C2649 H2634 0.930 1_556 S
C2649 N2645 1.334 . S
C2649 C2647 1.390 . S
C2650 C2647 1.339 . S
C2650 C2648 1.416 . S
C2650 H2657 0.930 . S
N2651 Tb2616 2.586 . S
N2651 C2652 1.340 . S
N2651 C2654 1.361 . S
C2652 H2638 0.930 . S
C2652 N2651 1.340 . S
C2652 C2656 1.407 1_545 S
C2653 C2654 1.413 . S
C2653 C2655 1.416 . S
C2653 C2682 1.427 . S
C2654 C2646 1.424 . S
C2654 N2651 1.361 . S
C2654 C2653 1.413 . S
C2655 H2644 0.937 . S
C2655 C2653 1.416 . S
C2655 C2656 1.332 1_545 S
C2656 H2635 0.929 . S
C2656 C2652 1.407 1_565 S
C2656 C2655 1.332 1_565 S
H2657 C2650 0.930 . S
H2658 C2681 0.930 . S
H2659 C2682 0.929 . S
O2660 Tb2616 2.482 . S
O2660 C2680 1.264 . S
O2661 Tb2616 2.377 1_554 S
O2661 C2672 1.264 . S
O2662 Tb2627 2.349 . S
O2662 C2672 1.243 . S
O2663 Tb2616 2.441 . S
O2663 C2680 1.256 . S
O2664 Tb2616 2.306 . S
O2664 C2679 1.264 1_546 S
O2665 Tb2627 2.393 1_565 S
O2665 C2679 1.248 . S
O2666 Tb2627 2.465 . S
O2666 C2691 1.264 1_545 S
O2667 Tb2627 2.387 . S
O2667 C2683 1.264 . S
O2668 Tb2616 2.342 1_554 S
O2668 C2683 1.243 . S
O2669 Tb2627 2.428 1_565 S
O2669 C2691 1.256 . S
O2670 Tb2627 2.308 . S
O2670 C2690 1.266 . S
O2671 Tb2616 2.377 1_554 S
O2671 C2690 1.248 . S
C2672 O2661 1.264 . S
C2672 O2662 1.243 . S
C2673 C2676 1.399 . S
C2673 C2678 1.383 . S
C2673 C2680 1.496 . S
C2674 C2675 1.399 . S
C2674 C2678 1.389 . S
C2675 C2674 1.399 . S
C2675 C2677 1.380 . S
C2675 H2692 0.929 . S
C2676 C2673 1.399 . S
C2676 C2677 1.392 . S
C2676 H2693 0.929 . S
C2677 C2675 1.380 . S
C2677 C2676 1.392 . S
C2677 H2694 0.929 . S
C2678 C2673 1.383 . S
C2678 C2674 1.389 . S
C2678 H2695 0.931 . S
C2679 O2664 1.264 1_564 S
C2679 O2665 1.248 . S
C2680 Tb2616 2.820 . S
C2680 O2660 1.264 . S
C2680 O2663 1.256 . S
C2680 C2673 1.496 . S
C2681 C2648 1.448 . S
C2681 H2658 0.930 . S
C2681 C2682 1.328 . S
C2682 C2653 1.427 . S
C2682 H2659 0.929 . S
C2682 C2681 1.328 . S
C2683 O2667 1.264 . S
C2683 O2668 1.243 . S
C2684 C2687 1.399 . S
C2684 C2688 1.383 1_565 S
C2684 C2691 1.496 . S
C2685 C2686 1.399 . S
C2685 C2688 1.389 1_565 S
C2686 C2685 1.399 . S
C2686 C2689 1.380 . S
C2686 H2696 0.929 . S
C2687 C2684 1.399 . S
C2687 C2689 1.392 . S
C2687 H2697 0.929 . S
C2688 C2684 1.383 1_545 S
C2688 C2685 1.389 1_545 S
C2688 H2698 0.931 . S
C2689 C2686 1.380 . S
C2689 C2687 1.392 . S
C2689 H2699 0.929 . S
C2690 O2670 1.266 . S
C2690 O2671 1.248 . S
C2691 Tb2627 2.802 1_565 S
C2691 O2666 1.264 1_565 S
C2691 O2669 1.256 . S
C2691 C2684 1.496 . S
H2692 C2675 0.929 . S
H2693 C2676 0.929 . S
H2694 C2677 0.929 . S
H2695 C2678 0.931 . S
H2696 C2686 0.929 . S
H2697 C2687 0.929 . S
H2698 C2688 0.931 . S
H2699 C2689 0.929 . S
Tb2700 N2729 2.617 . S
Tb2700 N2735 2.572 . S
Tb2700 O2744 2.465 . S
Tb2700 O2745 2.387 . S
Tb2700 O2747 2.428 . S
Tb2700 O2748 2.308 . S
Tb2700 O2752 2.349 . S
Tb2700 O2755 2.393 . S
Tb2700 C2764 2.802 . S
C2701 N2702 1.379 . S
C2701 C2704 1.416 . S
C2701 C2708 1.424 . S
N2702 C2701 1.379 . S
N2702 C2705 1.334 . S
N2702 Tb2711 2.617 . S
C2703 C2705 1.390 . S
C2703 C2706 1.339 . S
C2703 H2723 0.930 . S
C2704 C2701 1.416 . S
C2704 C2706 1.416 . S
C2704 C2710 1.448 . S
C2705 N2702 1.334 . S
C2705 C2703 1.390 . S
C2705 H2716 0.930 . S
C2706 C2703 1.339 . S
C2706 C2704 1.416 . S
C2706 H2727 0.930 . S
C2707 C2708 1.413 . S
C2707 C2709 1.427 . S
C2707 C2713 1.416 . S
C2708 C2701 1.424 . S
C2708 C2707 1.413 . S
C2708 N2712 1.361 . S
C2709 C2707 1.427 . S
C2709 C2710 1.328 . S
C2709 H2724 0.929 . S
C2710 C2704 1.448 . S
C2710 C2709 1.328 . S
C2710 H2725 0.930 . S
Tb2711 N2702 2.617 . S
Tb2711 N2712 2.572 . S
Tb2711 O2746 2.349 . S
Tb2711 O2749 2.393 . S
Tb2711 O2750 2.465 . S
Tb2711 O2751 2.387 . S
Tb2711 O2753 2.428 . S
Tb2711 O2754 2.308 . S
Tb2711 C2775 2.802 . S
N2712 C2708 1.361 . S
N2712 Tb2711 2.572 . S
N2712 C2714 1.340 . S
C2713 C2707 1.416 . S
C2713 C2715 1.332 . S
C2713 H2721 0.931 . S
C2714 N2712 1.340 . S
C2714 C2715 1.407 . S
C2714 H2720 0.930 . S
C2715 C2713 1.332 . S
C2715 C2714 1.407 . S
C2715 H2717 0.929 . S
H2716 C2705 0.930 . S
H2717 C2715 0.929 . S
H2718 C2733 0.930 . S
H2719 C2740 0.929 . S
H2720 C2714 0.930 . S
H2721 C2713 0.931 . S
H2722 C2736 0.930 . S
H2723 C2703 0.930 . S
H2724 C2709 0.929 . S
H2725 C2710 0.930 . S
H2726 C2731 0.930 . S
H2727 C2706 0.930 . S
H2728 C2739 0.931 . S
N2729 Tb2700 2.617 . S
N2729 C2730 1.379 . S
N2729 C2733 1.334 . S
C2730 N2729 1.379 . S
C2730 C2732 1.416 . S
C2730 C2738 1.424 . S
C2731 H2726 0.930 . S
C2731 C2733 1.390 . S
C2731 C2734 1.339 . S
C2732 C2730 1.416 . S
C2732 C2734 1.416 . S
C2732 C2765 1.448 . S
C2733 H2718 0.930 . S
C2733 N2729 1.334 . S
C2733 C2731 1.390 . S
C2734 C2731 1.339 . S
C2734 C2732 1.416 . S
C2734 H2741 0.930 . S
N2735 Tb2700 2.572 . S
N2735 C2736 1.340 . S
N2735 C2738 1.361 . S
C2736 H2722 0.930 . S
C2736 N2735 1.340 . S
C2736 C2740 1.407 . S
C2737 C2738 1.413 . S
C2737 C2739 1.416 . S
C2737 C2766 1.427 . S
C2738 C2730 1.424 . S
C2738 N2735 1.361 . S
C2738 C2737 1.413 . S
C2739 H2728 0.931 . S
C2739 C2737 1.416 . S
C2739 C2740 1.332 . S
C2740 H2719 0.929 . S
C2740 C2736 1.407 . S
C2740 C2739 1.332 . S
H2741 C2734 0.930 . S
H2742 C2765 0.930 . S
H2743 C2766 0.929 . S
O2744 Tb2700 2.465 . S
O2744 C2764 1.264 . S
O2745 Tb2700 2.387 . S
O2745 C2756 1.264 . S
O2746 Tb2711 2.349 . S
O2746 C2756 1.243 . S
O2747 Tb2700 2.428 . S
O2747 C2764 1.256 . S
O2748 Tb2700 2.308 . S
O2748 C2763 1.266 . S
O2749 Tb2711 2.393 . S
O2749 C2763 1.248 . S
O2750 Tb2711 2.465 . S
O2750 C2775 1.264 . S
O2751 Tb2711 2.387 . S
O2751 C2767 1.264 . S
O2752 Tb2700 2.349 . S
O2752 C2767 1.243 . S
O2753 Tb2711 2.428 . S
O2753 C2775 1.256 . S
O2754 Tb2711 2.308 . S
O2754 C2774 1.266 . S
O2755 Tb2700 2.393 . S
O2755 C2774 1.248 . S
C2756 O2745 1.264 . S
C2756 O2746 1.243 . S
C2757 C2760 1.399 . S
C2757 C2762 1.383 . S
C2757 C2764 1.496 . S
C2758 C2759 1.399 . S
C2758 C2762 1.389 . S
C2759 C2758 1.399 . S
C2759 C2761 1.380 . S
C2759 H2776 0.929 . S
C2760 C2757 1.399 . S
C2760 C2761 1.392 . S
C2760 H2777 0.929 . S
C2761 C2759 1.380 . S
C2761 C2760 1.392 . S
C2761 H2778 0.929 . S
C2762 C2757 1.383 . S
C2762 C2758 1.389 . S
C2762 H2779 0.931 . S
C2763 O2748 1.266 . S
C2763 O2749 1.248 . S
C2764 Tb2700 2.802 . S
C2764 O2744 1.264 . S
C2764 O2747 1.256 . S
C2764 C2757 1.496 . S
C2765 C2732 1.448 . S
C2765 H2742 0.930 . S
C2765 C2766 1.328 . S
C2766 C2737 1.427 . S
C2766 H2743 0.929 . S
C2766 C2765 1.328 . S
C2767 O2751 1.264 . S
C2767 O2752 1.243 . S
C2768 C2771 1.399 . S
C2768 C2772 1.383 . S
C2768 C2775 1.496 . S
C2769 C2770 1.399 . S
C2769 C2772 1.389 . S
C2770 C2769 1.399 . S
C2770 C2773 1.380 . S
C2770 H2780 0.929 . S
C2771 C2768 1.399 . S
C2771 C2773 1.392 . S
C2771 H2781 0.929 . S
C2772 C2768 1.383 . S
C2772 C2769 1.389 . S
C2772 H2782 0.931 . S
C2773 C2770 1.380 . S
C2773 C2771 1.392 . S
C2773 H2783 0.929 . S
C2774 O2754 1.266 . S
C2774 O2755 1.248 . S
C2775 Tb2711 2.802 . S
C2775 O2750 1.264 . S
C2775 O2753 1.256 . S
C2775 C2768 1.496 . S
H2776 C2759 0.929 . S
H2777 C2760 0.929 . S
H2778 C2761 0.929 . S
H2779 C2762 0.931 . S
H2780 C2770 0.929 . S
H2781 C2771 0.929 . S
H2782 C2772 0.931 . S
H2783 C2773 0.929 . S
Tb2784 N2813 2.617 1_554 S
Tb2784 N2819 2.572 1_554 S
Tb2784 O2828 2.465 . S
Tb2784 O2829 2.387 1_554 S
Tb2784 O2831 2.428 . S
Tb2784 O2832 2.308 . S
Tb2784 O2836 2.349 . S
Tb2784 O2839 2.393 . S
Tb2784 C2848 2.802 . S
C2785 N2786 1.379 . S
C2785 C2788 1.416 . S
C2785 C2792 1.424 . S
N2786 C2785 1.379 . S
N2786 C2789 1.334 . S
N2786 Tb2795 2.617 . S
C2787 C2789 1.390 . S
C2787 C2790 1.339 . S
C2787 H2807 0.930 . S
C2788 C2785 1.416 . S
C2788 C2790 1.416 . S
C2788 C2794 1.448 . S
C2789 N2786 1.334 . S
C2789 C2787 1.390 . S
C2789 H2800 0.930 . S
C2790 C2787 1.339 . S
C2790 C2788 1.416 . S
C2790 H2811 0.930 . S
C2791 C2792 1.413 . S
C2791 C2793 1.427 . S
C2791 C2797 1.416 . S
C2792 C2785 1.424 . S
C2792 C2791 1.413 . S
C2792 N2796 1.361 . S
C2793 C2791 1.427 . S
C2793 C2794 1.328 . S
C2793 H2808 0.929 . S
C2794 C2788 1.448 . S
C2794 C2793 1.328 . S
C2794 H2809 0.930 . S
Tb2795 N2786 2.617 . S
Tb2795 N2796 2.572 . S
Tb2795 O2830 2.349 1_554 S
Tb2795 O2833 2.393 . S
Tb2795 O2834 2.465 . S
Tb2795 O2835 2.387 . S
Tb2795 O2837 2.428 . S
Tb2795 O2838 2.308 . S
Tb2795 C2859 2.802 . S
N2796 C2792 1.361 . S
N2796 Tb2795 2.572 . S
N2796 C2798 1.340 . S
C2797 C2791 1.416 . S
C2797 C2799 1.332 . S
C2797 H2805 0.931 . S
C2798 N2796 1.340 . S
C2798 C2799 1.407 . S
C2798 H2804 0.930 . S
C2799 C2797 1.332 . S
C2799 C2798 1.407 . S
C2799 H2801 0.929 . S
H2800 C2789 0.930 . S
H2801 C2799 0.929 . S
H2802 C2817 0.930 1_554 S
H2803 C2824 0.929 . S
H2804 C2798 0.930 . S
H2805 C2797 0.931 . S
H2806 C2820 0.930 1_554 S
H2807 C2787 0.930 . S
H2808 C2793 0.929 . S
H2809 C2794 0.930 . S
H2810 C2815 0.930 . S
H2811 C2790 0.930 . S
H2812 C2823 0.931 . S
N2813 Tb2784 2.617 1_556 S
N2813 C2814 1.379 . S
N2813 C2817 1.334 . S
C2814 N2813 1.379 . S
C2814 C2816 1.416 . S
C2814 C2822 1.424 . S
C2815 H2810 0.930 . S
C2815 C2817 1.390 . S
C2815 C2818 1.339 . S
C2816 C2814 1.416 . S
C2816 C2818 1.416 . S
C2816 C2849 1.448 . S
C2817 H2802 0.930 1_556 S
C2817 N2813 1.334 . S
C2817 C2815 1.390 . S
C2818 C2815 1.339 . S
C2818 C2816 1.416 . S
C2818 H2825 0.930 . S
N2819 Tb2784 2.572 1_556 S
N2819 C2820 1.340 . S
N2819 C2822 1.361 . S
C2820 H2806 0.930 1_556 S
C2820 N2819 1.340 . S
C2820 C2824 1.407 . S
C2821 C2822 1.413 . S
C2821 C2823 1.416 . S
C2821 C2850 1.427 . S
C2822 C2814 1.424 . S
C2822 N2819 1.361 . S
C2822 C2821 1.413 . S
C2823 H2812 0.931 . S
C2823 C2821 1.416 . S
C2823 C2824 1.332 . S
C2824 H2803 0.929 . S
C2824 C2820 1.407 . S
C2824 C2823 1.332 . S
H2825 C2818 0.930 . S
H2826 C2849 0.930 . S
H2827 C2850 0.929 . S
O2828 Tb2784 2.465 . S
O2828 C2848 1.264 . S
O2829 Tb2784 2.387 1_556 S
O2829 C2840 1.264 . S
O2830 Tb2795 2.349 1_556 S
O2830 C2840 1.243 . S
O2831 Tb2784 2.428 . S
O2831 C2848 1.256 . S
O2832 Tb2784 2.308 . S
O2832 C2847 1.266 . S
O2833 Tb2795 2.393 . S
O2833 C2847 1.248 . S
O2834 Tb2795 2.465 . S
O2834 C2859 1.264 . S
O2835 Tb2795 2.387 . S
O2835 C2851 1.264 . S
O2836 Tb2784 2.349 . S
O2836 C2851 1.243 . S
O2837 Tb2795 2.428 . S
O2837 C2859 1.256 . S
O2838 Tb2795 2.308 . S
O2838 C2858 1.266 . S
O2839 Tb2784 2.393 . S
O2839 C2858 1.248 . S
C2840 O2829 1.264 . S
C2840 O2830 1.243 . S
C2841 C2844 1.399 . S
C2841 C2846 1.383 . S
C2841 C2848 1.496 . S
C2842 C2843 1.399 . S
C2842 C2846 1.389 . S
C2843 C2842 1.399 . S
C2843 C2845 1.380 . S
C2843 H2860 0.929 . S
C2844 C2841 1.399 . S
C2844 C2845 1.392 . S
C2844 H2861 0.929 . S
C2845 C2843 1.380 . S
C2845 C2844 1.392 . S
C2845 H2862 0.929 . S
C2846 C2841 1.383 . S
C2846 C2842 1.389 . S
C2846 H2863 0.931 . S
C2847 O2832 1.266 . S
C2847 O2833 1.248 . S
C2848 Tb2784 2.802 . S
C2848 O2828 1.264 . S
C2848 O2831 1.256 . S
C2848 C2841 1.496 . S
C2849 C2816 1.448 . S
C2849 H2826 0.930 . S
C2849 C2850 1.328 . S
C2850 C2821 1.427 . S
C2850 H2827 0.929 . S
C2850 C2849 1.328 . S
C2851 O2835 1.264 . S
C2851 O2836 1.243 . S
C2852 C2855 1.399 . S
C2852 C2856 1.383 . S
C2852 C2859 1.496 1_556 S
C2853 C2854 1.399 . S
C2853 C2856 1.389 . S
C2854 C2853 1.399 . S
C2854 C2857 1.380 . S
C2854 H2864 0.929 . S
C2855 C2852 1.399 . S
C2855 C2857 1.392 . S
C2855 H2865 0.929 . S
C2856 C2852 1.383 . S
C2856 C2853 1.389 . S
C2856 H2866 0.931 . S
C2857 C2854 1.380 . S
C2857 C2855 1.392 . S
C2857 H2867 0.929 . S
C2858 O2838 1.266 . S
C2858 O2839 1.248 . S
C2859 Tb2795 2.802 . S
C2859 O2834 1.264 . S
C2859 O2837 1.256 . S
C2859 C2852 1.496 1_554 S
H2860 C2843 0.929 . S
H2861 C2844 0.929 . S
H2862 C2845 0.929 . S
H2863 C2846 0.931 . S
H2864 C2854 0.929 . S
H2865 C2855 0.929 . S
H2866 C2856 0.931 . S
H2867 C2857 0.929 . S
Tb2868 N2897 2.617 . S
Tb2868 N2903 2.572 . S
Tb2868 O2912 2.465 . S
Tb2868 O2913 2.387 . S
Tb2868 O2915 2.428 . S
Tb2868 O2916 2.308 . S
Tb2868 O2920 2.349 . S
Tb2868 O2923 2.393 . S
Tb2868 C2932 2.802 . S
C2869 N2870 1.379 . S
C2869 C2872 1.416 . S
C2869 C2876 1.424 . S
N2870 C2869 1.379 . S
N2870 C2873 1.334 . S
N2870 Tb2879 2.617 . S
C2871 C2873 1.390 . S
C2871 C2874 1.339 . S
C2871 H2891 0.930 . S
C2872 C2869 1.416 . S
C2872 C2874 1.416 . S
C2872 C2878 1.448 . S
C2873 N2870 1.334 . S
C2873 C2871 1.390 . S
C2873 H2884 0.930 . S
C2874 C2871 1.339 . S
C2874 C2872 1.416 . S
C2874 H2895 0.930 . S
C2875 C2876 1.413 . S
C2875 C2877 1.427 . S
C2875 C2881 1.416 . S
C2876 C2869 1.424 . S
C2876 C2875 1.413 . S
C2876 N2880 1.361 . S
C2877 C2875 1.427 . S
C2877 C2878 1.328 . S
C2877 H2892 0.929 . S
C2878 C2872 1.448 . S
C2878 C2877 1.328 . S
C2878 H2893 0.930 . S
Tb2879 N2870 2.617 . S
Tb2879 N2880 2.572 . S
Tb2879 O2914 2.349 . S
Tb2879 O2917 2.393 . S
Tb2879 O2918 2.465 . S
Tb2879 O2919 2.387 . S
Tb2879 O2921 2.428 . S
Tb2879 O2922 2.308 . S
Tb2879 C2943 2.802 . S
N2880 C2876 1.361 . S
N2880 Tb2879 2.572 . S
N2880 C2882 1.340 . S
C2881 C2875 1.416 . S
C2881 C2883 1.332 . S
C2881 H2889 0.931 . S
C2882 N2880 1.340 . S
C2882 C2883 1.407 . S
C2882 H2888 0.930 . S
C2883 C2881 1.332 . S
C2883 C2882 1.407 . S
C2883 H2885 0.929 . S
H2884 C2873 0.930 . S
H2885 C2883 0.929 . S
H2886 C2901 0.930 . S
H2887 C2908 0.929 . S
H2888 C2882 0.930 . S
H2889 C2881 0.931 . S
H2890 C2904 0.930 . S
H2891 C2871 0.930 . S
H2892 C2877 0.929 . S
H2893 C2878 0.930 . S
H2894 C2899 0.930 . S
H2895 C2874 0.930 . S
H2896 C2907 0.931 . S
N2897 Tb2868 2.617 . S
N2897 C2898 1.379 . S
N2897 C2901 1.334 . S
C2898 N2897 1.379 . S
C2898 C2900 1.416 . S
C2898 C2906 1.424 . S
C2899 H2894 0.930 . S
C2899 C2901 1.390 . S
C2899 C2902 1.339 . S
C2900 C2898 1.416 . S
C2900 C2902 1.416 . S
C2900 C2933 1.448 . S
C2901 H2886 0.930 . S
C2901 N2897 1.334 . S
C2901 C2899 1.390 . S
C2902 C2899 1.339 . S
C2902 C2900 1.416 . S
C2902 H2909 0.930 . S
N2903 Tb2868 2.572 . S
N2903 C2904 1.340 . S
N2903 C2906 1.361 . S
C2904 H2890 0.930 . S
C2904 N2903 1.340 . S
C2904 C2908 1.407 . S
C2905 C2906 1.413 . S
C2905 C2907 1.416 . S
C2905 C2934 1.427 . S
C2906 C2898 1.424 . S
C2906 N2903 1.361 . S
C2906 C2905 1.413 . S
C2907 H2896 0.931 . S
C2907 C2905 1.416 . S
C2907 C2908 1.332 . S
C2908 H2887 0.929 . S
C2908 C2904 1.407 . S
C2908 C2907 1.332 . S
H2909 C2902 0.930 . S
H2910 C2933 0.930 . S
H2911 C2934 0.929 . S
O2912 Tb2868 2.465 . S
O2912 C2932 1.264 . S
O2913 Tb2868 2.387 . S
O2913 C2924 1.264 . S
O2914 Tb2879 2.349 . S
O2914 C2924 1.243 . S
O2915 Tb2868 2.428 . S
O2915 C2932 1.256 . S
O2916 Tb2868 2.308 . S
O2916 C2931 1.266 . S
O2917 Tb2879 2.393 . S
O2917 C2931 1.248 . S
O2918 Tb2879 2.465 . S
O2918 C2943 1.264 . S
O2919 Tb2879 2.387 . S
O2919 C2935 1.264 . S
O2920 Tb2868 2.349 . S
O2920 C2935 1.243 . S
O2921 Tb2879 2.428 . S
O2921 C2943 1.256 . S
O2922 Tb2879 2.308 . S
O2922 C2942 1.266 . S
O2923 Tb2868 2.393 . S
O2923 C2942 1.248 . S
C2924 O2913 1.264 . S
C2924 O2914 1.243 . S
C2925 C2928 1.399 . S
C2925 C2930 1.383 . S
C2925 C2932 1.496 . S
C2926 C2927 1.399 . S
C2926 C2930 1.389 . S
C2927 C2926 1.399 . S
C2927 C2929 1.380 . S
C2927 H2944 0.929 . S
C2928 C2925 1.399 . S
C2928 C2929 1.392 . S
C2928 H2945 0.929 . S
C2929 C2927 1.380 . S
C2929 C2928 1.392 . S
C2929 H2946 0.929 . S
C2930 C2925 1.383 . S
C2930 C2926 1.389 . S
C2930 H2947 0.931 . S
C2931 O2916 1.266 . S
C2931 O2917 1.248 . S
C2932 Tb2868 2.802 . S
C2932 O2912 1.264 . S
C2932 O2915 1.256 . S
C2932 C2925 1.496 . S
C2933 C2900 1.448 . S
C2933 H2910 0.930 . S
C2933 C2934 1.328 . S
C2934 C2905 1.427 . S
C2934 H2911 0.929 . S
C2934 C2933 1.328 . S
C2935 O2919 1.264 . S
C2935 O2920 1.243 . S
C2936 C2939 1.399 . S
C2936 C2940 1.383 . S
C2936 C2943 1.496 . S
C2937 C2938 1.399 . S
C2937 C2940 1.389 . S
C2938 C2937 1.399 . S
C2938 C2941 1.380 . S
C2938 H2948 0.929 . S
C2939 C2936 1.399 . S
C2939 C2941 1.392 . S
C2939 H2949 0.929 . S
C2940 C2936 1.383 . S
C2940 C2937 1.389 . S
C2940 H2950 0.931 . S
C2941 C2938 1.380 . S
C2941 C2939 1.392 . S
C2941 H2951 0.929 . S
C2942 O2922 1.266 . S
C2942 O2923 1.248 . S
C2943 Tb2879 2.802 . S
C2943 O2918 1.264 . S
C2943 O2921 1.256 . S
C2943 C2936 1.496 . S
H2944 C2927 0.929 . S
H2945 C2928 0.929 . S
H2946 C2929 0.929 . S
H2947 C2930 0.931 . S
H2948 C2938 0.929 . S
H2949 C2939 0.929 . S
H2950 C2940 0.931 . S
H2951 C2941 0.929 . S
Tb2952 N2981 2.616 1_455 S
Tb2952 N2987 2.572 1_455 S
Tb2952 O2996 2.465 . S
Tb2952 O2997 2.387 1_455 S
Tb2952 O2999 2.428 . S
Tb2952 O3000 2.308 . S
Tb2952 O3004 2.349 . S
Tb2952 O3007 2.393 . S
Tb2952 C3016 2.802 . S
C2953 N2954 1.379 . S
C2953 C2956 1.416 . S
C2953 C2960 1.424 . S
N2954 C2953 1.379 . S
N2954 C2957 1.334 . S
N2954 Tb2963 2.617 . S
C2955 C2957 1.390 . S
C2955 C2958 1.339 . S
C2955 H2975 0.930 . S
C2956 C2953 1.416 . S
C2956 C2958 1.416 . S
C2956 C2962 1.448 . S
C2957 N2954 1.334 . S
C2957 C2955 1.390 . S
C2957 H2968 0.930 . S
C2958 C2955 1.339 . S
C2958 C2956 1.416 . S
C2958 H2979 0.930 . S
C2959 C2960 1.413 . S
C2959 C2961 1.427 . S
C2959 C2965 1.416 . S
C2960 C2953 1.424 . S
C2960 C2959 1.413 . S
C2960 N2964 1.361 . S
C2961 C2959 1.427 . S
C2961 C2962 1.328 . S
C2961 H2976 0.929 . S
C2962 C2956 1.448 . S
C2962 C2961 1.328 . S
C2962 H2977 0.930 . S
Tb2963 N2954 2.617 . S
Tb2963 N2964 2.572 . S
Tb2963 O2998 2.349 1_455 S
Tb2963 O3001 2.393 . S
Tb2963 O3002 2.465 . S
Tb2963 O3003 2.387 . S
Tb2963 O3005 2.428 . S
Tb2963 O3006 2.308 . S
Tb2963 C3027 2.802 . S
N2964 C2960 1.361 . S
N2964 Tb2963 2.572 . S
N2964 C2966 1.340 . S
C2965 C2959 1.416 . S
C2965 C2967 1.332 . S
C2965 H2973 0.931 . S
C2966 N2964 1.340 . S
C2966 C2967 1.407 . S
C2966 H2972 0.930 . S
C2967 C2965 1.332 . S
C2967 C2966 1.407 . S
C2967 H2969 0.929 . S
H2968 C2957 0.930 . S
H2969 C2967 0.929 . S
H2970 C2985 0.930 . S
H2971 C2992 0.929 . S
H2972 C2966 0.930 . S
H2973 C2965 0.931 . S
H2974 C2988 0.930 1_455 S
H2975 C2955 0.930 . S
H2976 C2961 0.929 . S
H2977 C2962 0.930 . S
H2978 C2983 0.930 . S
H2979 C2958 0.930 . S
H2980 C2991 0.931 . S
N2981 Tb2952 2.616 1_655 S
N2981 C2982 1.380 . S
N2981 C2985 1.335 1_655 S
C2982 N2981 1.380 . S
C2982 C2984 1.416 . S
C2982 C2990 1.424 . S
C2983 H2978 0.930 . S
C2983 C2985 1.390 1_655 S
C2983 C2986 1.339 . S
C2984 C2982 1.416 . S
C2984 C2986 1.416 . S
C2984 C3017 1.448 . S
C2985 H2970 0.930 . S
C2985 N2981 1.335 1_455 S
C2985 C2983 1.390 1_455 S
C2986 C2983 1.339 . S
C2986 C2984 1.416 . S
C2986 H2993 0.930 . S
N2987 Tb2952 2.572 1_655 S
N2987 C2988 1.340 . S
N2987 C2990 1.361 . S
C2988 H2974 0.930 1_655 S
C2988 N2987 1.340 . S
C2988 C2992 1.407 . S
C2989 C2990 1.413 . S
C2989 C2991 1.416 . S
C2989 C3018 1.427 . S
C2990 C2982 1.424 . S
C2990 N2987 1.361 . S
C2990 C2989 1.413 . S
C2991 H2980 0.931 . S
C2991 C2989 1.416 . S
C2991 C2992 1.332 . S
C2992 H2971 0.929 . S
C2992 C2988 1.407 . S
C2992 C2991 1.332 . S
H2993 C2986 0.930 . S
H2994 C3017 0.930 . S
H2995 C3018 0.929 . S
O2996 Tb2952 2.465 . S
O2996 C3016 1.264 . S
O2997 Tb2952 2.387 1_655 S
O2997 C3008 1.264 . S
O2998 Tb2963 2.349 1_655 S
O2998 C3008 1.243 . S
O2999 Tb2952 2.428 . S
O2999 C3016 1.256 . S
O3000 Tb2952 2.308 . S
O3000 C3015 1.266 . S
O3001 Tb2963 2.393 . S
O3001 C3015 1.248 . S
O3002 Tb2963 2.465 . S
O3002 C3027 1.264 . S
O3003 Tb2963 2.387 . S
O3003 C3019 1.264 . S
O3004 Tb2952 2.349 . S
O3004 C3019 1.243 . S
O3005 Tb2963 2.428 . S
O3005 C3027 1.256 . S
O3006 Tb2963 2.308 . S
O3006 C3026 1.266 . S
O3007 Tb2952 2.393 . S
O3007 C3026 1.248 . S
C3008 O2997 1.264 . S
C3008 O2998 1.243 . S
C3009 C3012 1.399 . S
C3009 C3014 1.383 . S
C3009 C3016 1.496 . S
C3010 C3011 1.399 . S
C3010 C3014 1.389 . S
C3011 C3010 1.399 . S
C3011 C3013 1.380 . S
C3011 H3028 0.929 . S
C3012 C3009 1.399 . S
C3012 C3013 1.392 . S
C3012 H3029 0.929 . S
C3013 C3011 1.380 . S
C3013 C3012 1.392 . S
C3013 H3030 0.929 . S
C3014 C3009 1.383 . S
C3014 C3010 1.389 . S
C3014 H3031 0.931 . S
C3015 O3000 1.266 . S
C3015 O3001 1.248 . S
C3016 Tb2952 2.802 . S
C3016 O2996 1.264 . S
C3016 O2999 1.256 . S
C3016 C3009 1.496 . S
C3017 C2984 1.448 . S
C3017 H2994 0.930 . S
C3017 C3018 1.328 . S
C3018 C2989 1.427 . S
C3018 H2995 0.929 . S
C3018 C3017 1.328 . S
C3019 O3003 1.264 . S
C3019 O3004 1.243 . S
C3020 C3023 1.399 . S
C3020 C3024 1.383 . S
C3020 C3027 1.496 1_655 S
C3021 C3022 1.399 . S
C3021 C3024 1.389 . S
C3022 C3021 1.399 . S
C3022 C3025 1.380 . S
C3022 H3032 0.929 . S
C3023 C3020 1.399 . S
C3023 C3025 1.392 . S
C3023 H3033 0.929 . S
C3024 C3020 1.383 . S
C3024 C3021 1.389 . S
C3024 H3034 0.931 . S
C3025 C3022 1.380 . S
C3025 C3023 1.392 . S
C3025 H3035 0.929 . S
C3026 O3006 1.266 . S
C3026 O3007 1.248 . S
C3027 Tb2963 2.802 . S
C3027 O3002 1.264 . S
C3027 O3005 1.256 . S
C3027 C3020 1.496 1_455 S
H3028 C3011 0.929 . S
H3029 C3012 0.929 . S
H3030 C3013 0.929 . S
H3031 C3014 0.931 . S
H3032 C3022 0.929 . S
H3033 C3023 0.929 . S
H3034 C3024 0.931 . S
H3035 C3025 0.929 . S
Tb3036 N3065 2.617 . S
Tb3036 N3071 2.572 . S
Tb3036 O3080 2.465 . S
Tb3036 O3081 2.387 . S
Tb3036 O3083 2.428 . S
Tb3036 O3084 2.308 . S
Tb3036 O3088 2.349 . S
Tb3036 O3091 2.393 . S
Tb3036 C3100 2.802 . S
C3037 N3038 1.379 . S
C3037 C3040 1.416 . S
C3037 C3044 1.424 . S
N3038 C3037 1.379 . S
N3038 C3041 1.334 . S
N3038 Tb3047 2.617 . S
C3039 C3041 1.390 . S
C3039 C3042 1.339 . S
C3039 H3059 0.930 . S
C3040 C3037 1.416 . S
C3040 C3042 1.416 . S
C3040 C3046 1.448 . S
C3041 N3038 1.334 . S
C3041 C3039 1.390 . S
C3041 H3052 0.930 . S
C3042 C3039 1.339 . S
C3042 C3040 1.416 . S
C3042 H3063 0.930 . S
C3043 C3044 1.413 . S
C3043 C3045 1.427 . S
C3043 C3049 1.416 . S
C3044 C3037 1.424 . S
C3044 C3043 1.413 . S
C3044 N3048 1.361 . S
C3045 C3043 1.427 . S
C3045 C3046 1.328 . S
C3045 H3060 0.929 . S
C3046 C3040 1.448 . S
C3046 C3045 1.328 . S
C3046 H3061 0.930 . S
Tb3047 N3038 2.617 . S
Tb3047 N3048 2.572 . S
Tb3047 O3082 2.349 . S
Tb3047 O3085 2.393 . S
Tb3047 O3086 2.465 . S
Tb3047 O3087 2.387 . S
Tb3047 O3089 2.428 . S
Tb3047 O3090 2.308 . S
Tb3047 C3111 2.802 . S
N3048 C3044 1.361 . S
N3048 Tb3047 2.572 . S
N3048 C3050 1.340 . S
C3049 C3043 1.416 . S
C3049 C3051 1.332 . S
C3049 H3057 0.931 . S
C3050 N3048 1.340 . S
C3050 C3051 1.407 . S
C3050 H3056 0.930 . S
C3051 C3049 1.332 . S
C3051 C3050 1.407 . S
C3051 H3053 0.929 . S
H3052 C3041 0.930 . S
H3053 C3051 0.929 . S
H3054 C3069 0.930 . S
H3055 C3076 0.929 . S
H3056 C3050 0.930 . S
H3057 C3049 0.931 . S
H3058 C3072 0.930 . S
H3059 C3039 0.930 . S
H3060 C3045 0.929 . S
H3061 C3046 0.930 . S
H3062 C3067 0.930 . S
H3063 C3042 0.930 . S
H3064 C3075 0.931 . S
N3065 Tb3036 2.617 . S
N3065 C3066 1.379 . S
N3065 C3069 1.334 . S
C3066 N3065 1.379 . S
C3066 C3068 1.416 . S
C3066 C3074 1.424 . S
C3067 H3062 0.930 . S
C3067 C3069 1.390 . S
C3067 C3070 1.339 . S
C3068 C3066 1.416 . S
C3068 C3070 1.416 . S
C3068 C3101 1.448 . S
C3069 H3054 0.930 . S
C3069 N3065 1.334 . S
C3069 C3067 1.390 . S
C3070 C3067 1.339 . S
C3070 C3068 1.416 . S
C3070 H3077 0.930 . S
N3071 Tb3036 2.572 . S
N3071 C3072 1.340 . S
N3071 C3074 1.361 . S
C3072 H3058 0.930 . S
C3072 N3071 1.340 . S
C3072 C3076 1.407 . S
C3073 C3074 1.413 . S
C3073 C3075 1.416 . S
C3073 C3102 1.427 . S
C3074 C3066 1.424 . S
C3074 N3071 1.361 . S
C3074 C3073 1.413 . S
C3075 H3064 0.931 . S
C3075 C3073 1.416 . S
C3075 C3076 1.332 . S
C3076 H3055 0.929 . S
C3076 C3072 1.407 . S
C3076 C3075 1.332 . S
H3077 C3070 0.930 . S
H3078 C3101 0.930 . S
H3079 C3102 0.929 . S
O3080 Tb3036 2.465 . S
O3080 C3100 1.264 . S
O3081 Tb3036 2.387 . S
O3081 C3092 1.264 . S
O3082 Tb3047 2.349 . S
O3082 C3092 1.243 . S
O3083 Tb3036 2.428 . S
O3083 C3100 1.256 . S
O3084 Tb3036 2.308 . S
O3084 C3099 1.266 . S
O3085 Tb3047 2.393 . S
O3085 C3099 1.248 . S
O3086 Tb3047 2.465 . S
O3086 C3111 1.264 . S
O3087 Tb3047 2.387 . S
O3087 C3103 1.264 . S
O3088 Tb3036 2.349 . S
O3088 C3103 1.243 . S
O3089 Tb3047 2.428 . S
O3089 C3111 1.256 . S
O3090 Tb3047 2.308 . S
O3090 C3110 1.266 . S
O3091 Tb3036 2.393 . S
O3091 C3110 1.248 . S
C3092 O3081 1.264 . S
C3092 O3082 1.243 . S
C3093 C3096 1.399 . S
C3093 C3098 1.383 . S
C3093 C3100 1.496 . S
C3094 C3095 1.399 . S
C3094 C3098 1.389 . S
C3095 C3094 1.399 . S
C3095 C3097 1.380 . S
C3095 H3112 0.929 . S
C3096 C3093 1.399 . S
C3096 C3097 1.392 . S
C3096 H3113 0.929 . S
C3097 C3095 1.380 . S
C3097 C3096 1.392 . S
C3097 H3114 0.929 . S
C3098 C3093 1.383 . S
C3098 C3094 1.389 . S
C3098 H3115 0.931 . S
C3099 O3084 1.266 . S
C3099 O3085 1.248 . S
C3100 Tb3036 2.802 . S
C3100 O3080 1.264 . S
C3100 O3083 1.256 . S
C3100 C3093 1.496 . S
C3101 C3068 1.448 . S
C3101 H3078 0.930 . S
C3101 C3102 1.328 . S
C3102 C3073 1.427 . S
C3102 H3079 0.929 . S
C3102 C3101 1.328 . S
C3103 O3087 1.264 . S
C3103 O3088 1.243 . S
C3104 C3107 1.399 . S
C3104 C3108 1.383 . S
C3104 C3111 1.496 . S
C3105 C3106 1.399 . S
C3105 C3108 1.389 . S
C3106 C3105 1.399 . S
C3106 C3109 1.380 . S
C3106 H3116 0.929 . S
C3107 C3104 1.399 . S
C3107 C3109 1.392 . S
C3107 H3117 0.929 . S
C3108 C3104 1.383 . S
C3108 C3105 1.389 . S
C3108 H3118 0.931 . S
C3109 C3106 1.380 . S
C3109 C3107 1.392 . S
C3109 H3119 0.929 . S
C3110 O3090 1.266 . S
C3110 O3091 1.248 . S
C3111 Tb3047 2.802 . S
C3111 O3086 1.264 . S
C3111 O3089 1.256 . S
C3111 C3104 1.496 . S
H3112 C3095 0.929 . S
H3113 C3096 0.929 . S
H3114 C3097 0.929 . S
H3115 C3098 0.931 . S
H3116 C3106 0.929 . S
H3117 C3107 0.929 . S
H3118 C3108 0.931 . S
H3119 C3109 0.929 . S
Tb3120 N3149 2.617 . S
Tb3120 N3155 2.572 . S
Tb3120 O3164 2.465 . S
Tb3120 O3165 2.387 . S
Tb3120 O3167 2.428 . S
Tb3120 O3168 2.308 . S
Tb3120 O3172 2.349 . S
Tb3120 O3175 2.393 . S
Tb3120 C3184 2.802 . S
C3121 N3122 1.379 . S
C3121 C3124 1.416 . S
C3121 C3128 1.424 . S
N3122 C3121 1.379 . S
N3122 C3125 1.334 . S
N3122 Tb3131 2.617 . S
C3123 C3125 1.390 . S
C3123 C3126 1.339 . S
C3123 H3143 0.930 . S
C3124 C3121 1.416 . S
C3124 C3126 1.416 . S
C3124 C3130 1.448 . S
C3125 N3122 1.334 . S
C3125 C3123 1.390 . S
C3125 H3136 0.930 . S
C3126 C3123 1.339 . S
C3126 C3124 1.416 . S
C3126 H3147 0.930 . S
C3127 C3128 1.413 . S
C3127 C3129 1.427 . S
C3127 C3133 1.416 . S
C3128 C3121 1.424 . S
C3128 C3127 1.413 . S
C3128 N3132 1.361 . S
C3129 C3127 1.427 . S
C3129 C3130 1.328 . S
C3129 H3144 0.929 . S
C3130 C3124 1.448 . S
C3130 C3129 1.328 . S
C3130 H3145 0.930 . S
Tb3131 N3122 2.617 . S
Tb3131 N3132 2.572 . S
Tb3131 O3166 2.349 . S
Tb3131 O3169 2.393 . S
Tb3131 O3170 2.465 . S
Tb3131 O3171 2.387 . S
Tb3131 O3173 2.428 . S
Tb3131 O3174 2.308 . S
Tb3131 C3195 2.802 . S
N3132 C3128 1.361 . S
N3132 Tb3131 2.572 . S
N3132 C3134 1.340 . S
C3133 C3127 1.416 . S
C3133 C3135 1.332 . S
C3133 H3141 0.931 . S
C3134 N3132 1.340 . S
C3134 C3135 1.407 . S
C3134 H3140 0.930 . S
C3135 C3133 1.332 . S
C3135 C3134 1.407 . S
C3135 H3137 0.929 . S
H3136 C3125 0.930 . S
H3137 C3135 0.929 . S
H3138 C3153 0.930 . S
H3139 C3160 0.929 . S
H3140 C3134 0.930 . S
H3141 C3133 0.931 . S
H3142 C3156 0.930 . S
H3143 C3123 0.930 . S
H3144 C3129 0.929 . S
H3145 C3130 0.930 . S
H3146 C3151 0.930 . S
H3147 C3126 0.930 . S
H3148 C3159 0.931 . S
N3149 Tb3120 2.617 . S
N3149 C3150 1.379 . S
N3149 C3153 1.334 . S
C3150 N3149 1.379 . S
C3150 C3152 1.416 . S
C3150 C3158 1.424 . S
C3151 H3146 0.930 . S
C3151 C3153 1.390 . S
C3151 C3154 1.339 . S
C3152 C3150 1.416 . S
C3152 C3154 1.416 . S
C3152 C3185 1.448 . S
C3153 H3138 0.930 . S
C3153 N3149 1.334 . S
C3153 C3151 1.390 . S
C3154 C3151 1.339 . S
C3154 C3152 1.416 . S
C3154 H3161 0.930 . S
N3155 Tb3120 2.572 . S
N3155 C3156 1.340 . S
N3155 C3158 1.361 . S
C3156 H3142 0.930 . S
C3156 N3155 1.340 . S
C3156 C3160 1.407 . S
C3157 C3158 1.413 . S
C3157 C3159 1.416 . S
C3157 C3186 1.427 . S
C3158 C3150 1.424 . S
C3158 N3155 1.361 . S
C3158 C3157 1.413 . S
C3159 H3148 0.931 . S
C3159 C3157 1.416 . S
C3159 C3160 1.332 . S
C3160 H3139 0.929 . S
C3160 C3156 1.407 . S
C3160 C3159 1.332 . S
H3161 C3154 0.930 . S
H3162 C3185 0.930 . S
H3163 C3186 0.929 . S
O3164 Tb3120 2.465 . S
O3164 C3184 1.264 . S
O3165 Tb3120 2.387 . S
O3165 C3176 1.264 . S
O3166 Tb3131 2.349 . S
O3166 C3176 1.243 . S
O3167 Tb3120 2.428 . S
O3167 C3184 1.256 . S
O3168 Tb3120 2.308 . S
O3168 C3183 1.266 . S
O3169 Tb3131 2.393 . S
O3169 C3183 1.248 . S
O3170 Tb3131 2.465 . S
O3170 C3195 1.264 . S
O3171 Tb3131 2.387 . S
O3171 C3187 1.264 . S
O3172 Tb3120 2.349 . S
O3172 C3187 1.243 . S
O3173 Tb3131 2.428 . S
O3173 C3195 1.256 . S
O3174 Tb3131 2.308 . S
O3174 C3194 1.266 . S
O3175 Tb3120 2.393 . S
O3175 C3194 1.248 . S
C3176 O3165 1.264 . S
C3176 O3166 1.243 . S
C3177 C3180 1.399 . S
C3177 C3182 1.383 . S
C3177 C3184 1.496 . S
C3178 C3179 1.399 . S
C3178 C3182 1.389 . S
C3179 C3178 1.399 . S
C3179 C3181 1.380 . S
C3179 H3196 0.929 . S
C3180 C3177 1.399 . S
C3180 C3181 1.392 . S
C3180 H3197 0.929 . S
C3181 C3179 1.380 . S
C3181 C3180 1.392 . S
C3181 H3198 0.929 . S
C3182 C3177 1.383 . S
C3182 C3178 1.389 . S
C3182 H3199 0.931 . S
C3183 O3168 1.266 . S
C3183 O3169 1.248 . S
C3184 Tb3120 2.802 . S
C3184 O3164 1.264 . S
C3184 O3167 1.256 . S
C3184 C3177 1.496 . S
C3185 C3152 1.448 . S
C3185 H3162 0.930 . S
C3185 C3186 1.328 . S
C3186 C3157 1.427 . S
C3186 H3163 0.929 . S
C3186 C3185 1.328 . S
C3187 O3171 1.264 . S
C3187 O3172 1.243 . S
C3188 C3191 1.399 . S
C3188 C3192 1.383 . S
C3188 C3195 1.496 . S
C3189 C3190 1.399 . S
C3189 C3192 1.389 . S
C3190 C3189 1.399 . S
C3190 C3193 1.380 . S
C3190 H3200 0.929 . S
C3191 C3188 1.399 . S
C3191 C3193 1.392 . S
C3191 H3201 0.929 . S
C3192 C3188 1.383 . S
C3192 C3189 1.389 . S
C3192 H3202 0.931 . S
C3193 C3190 1.380 . S
C3193 C3191 1.392 . S
C3193 H3203 0.929 . S
C3194 O3174 1.266 . S
C3194 O3175 1.248 . S
C3195 Tb3131 2.802 . S
C3195 O3170 1.264 . S
C3195 O3173 1.256 . S
C3195 C3188 1.496 . S
H3196 C3179 0.929 . S
H3197 C3180 0.929 . S
H3198 C3181 0.929 . S
H3199 C3182 0.931 . S
H3200 C3190 0.929 . S
H3201 C3191 0.929 . S
H3202 C3192 0.931 . S
H3203 C3193 0.929 . S
Tb3204 N3233 2.617 . S
Tb3204 N3239 2.572 . S
Tb3204 O3248 2.465 . S
Tb3204 O3249 2.387 . S
Tb3204 O3251 2.428 . S
Tb3204 O3252 2.308 . S
Tb3204 O3256 2.349 . S
Tb3204 O3259 2.393 . S
Tb3204 C3268 2.802 . S
C3205 N3206 1.379 . S
C3205 C3208 1.416 . S
C3205 C3212 1.424 . S
N3206 C3205 1.379 . S
N3206 C3209 1.334 . S
N3206 Tb3215 2.617 . S
C3207 C3209 1.390 . S
C3207 C3210 1.339 . S
C3207 H3227 0.930 . S
C3208 C3205 1.416 . S
C3208 C3210 1.416 . S
C3208 C3214 1.448 . S
C3209 N3206 1.334 . S
C3209 C3207 1.390 . S
C3209 H3220 0.930 . S
C3210 C3207 1.339 . S
C3210 C3208 1.416 . S
C3210 H3231 0.930 . S
C3211 C3212 1.413 . S
C3211 C3213 1.427 . S
C3211 C3217 1.416 . S
C3212 C3205 1.424 . S
C3212 C3211 1.413 . S
C3212 N3216 1.361 . S
C3213 C3211 1.427 . S
C3213 C3214 1.328 . S
C3213 H3228 0.929 . S
C3214 C3208 1.448 . S
C3214 C3213 1.328 . S
C3214 H3229 0.930 . S
Tb3215 N3206 2.617 . S
Tb3215 N3216 2.572 . S
Tb3215 O3250 2.349 . S
Tb3215 O3253 2.393 . S
Tb3215 O3254 2.465 . S
Tb3215 O3255 2.387 . S
Tb3215 O3257 2.428 . S
Tb3215 O3258 2.308 . S
Tb3215 C3279 2.802 . S
N3216 C3212 1.361 . S
N3216 Tb3215 2.572 . S
N3216 C3218 1.340 . S
C3217 C3211 1.416 . S
C3217 C3219 1.332 . S
C3217 H3225 0.931 . S
C3218 N3216 1.340 . S
C3218 C3219 1.407 . S
C3218 H3224 0.930 . S
C3219 C3217 1.332 . S
C3219 C3218 1.407 . S
C3219 H3221 0.929 . S
H3220 C3209 0.930 . S
H3221 C3219 0.929 . S
H3222 C3237 0.930 . S
H3223 C3244 0.929 . S
H3224 C3218 0.930 . S
H3225 C3217 0.931 . S
H3226 C3240 0.930 . S
H3227 C3207 0.930 . S
H3228 C3213 0.929 . S
H3229 C3214 0.930 . S
H3230 C3235 0.930 . S
H3231 C3210 0.930 . S
H3232 C3243 0.931 . S
N3233 Tb3204 2.617 . S
N3233 C3234 1.379 . S
N3233 C3237 1.334 . S
C3234 N3233 1.379 . S
C3234 C3236 1.416 . S
C3234 C3242 1.424 . S
C3235 H3230 0.930 . S
C3235 C3237 1.390 . S
C3235 C3238 1.339 . S
C3236 C3234 1.416 . S
C3236 C3238 1.416 . S
C3236 C3269 1.448 . S
C3237 H3222 0.930 . S
C3237 N3233 1.334 . S
C3237 C3235 1.390 . S
C3238 C3235 1.339 . S
C3238 C3236 1.416 . S
C3238 H3245 0.930 . S
N3239 Tb3204 2.572 . S
N3239 C3240 1.340 . S
N3239 C3242 1.361 . S
C3240 H3226 0.930 . S
C3240 N3239 1.340 . S
C3240 C3244 1.407 . S
C3241 C3242 1.413 . S
C3241 C3243 1.416 . S
C3241 C3270 1.427 . S
C3242 C3234 1.424 . S
C3242 N3239 1.361 . S
C3242 C3241 1.413 . S
C3243 H3232 0.931 . S
C3243 C3241 1.416 . S
C3243 C3244 1.332 . S
C3244 H3223 0.929 . S
C3244 C3240 1.407 . S
C3244 C3243 1.332 . S
H3245 C3238 0.930 . S
H3246 C3269 0.930 . S
H3247 C3270 0.929 . S
O3248 Tb3204 2.465 . S
O3248 C3268 1.264 . S
O3249 Tb3204 2.387 . S
O3249 C3260 1.264 . S
O3250 Tb3215 2.349 . S
O3250 C3260 1.243 . S
O3251 Tb3204 2.428 . S
O3251 C3268 1.256 . S
O3252 Tb3204 2.308 . S
O3252 C3267 1.266 . S
O3253 Tb3215 2.393 . S
O3253 C3267 1.248 . S
O3254 Tb3215 2.465 . S
O3254 C3279 1.264 . S
O3255 Tb3215 2.387 . S
O3255 C3271 1.264 . S
O3256 Tb3204 2.349 . S
O3256 C3271 1.243 . S
O3257 Tb3215 2.428 . S
O3257 C3279 1.256 . S
O3258 Tb3215 2.308 . S
O3258 C3278 1.266 . S
O3259 Tb3204 2.393 . S
O3259 C3278 1.248 . S
C3260 O3249 1.264 . S
C3260 O3250 1.243 . S
C3261 C3264 1.399 . S
C3261 C3266 1.383 . S
C3261 C3268 1.496 . S
C3262 C3263 1.399 . S
C3262 C3266 1.389 . S
C3263 C3262 1.399 . S
C3263 C3265 1.380 . S
C3263 H3280 0.929 . S
C3264 C3261 1.399 . S
C3264 C3265 1.392 . S
C3264 H3281 0.929 . S
C3265 C3263 1.380 . S
C3265 C3264 1.392 . S
C3265 H3282 0.929 . S
C3266 C3261 1.383 . S
C3266 C3262 1.389 . S
C3266 H3283 0.931 . S
C3267 O3252 1.266 . S
C3267 O3253 1.248 . S
C3268 Tb3204 2.802 . S
C3268 O3248 1.264 . S
C3268 O3251 1.256 . S
C3268 C3261 1.496 . S
C3269 C3236 1.448 . S
C3269 H3246 0.930 . S
C3269 C3270 1.328 . S
C3270 C3241 1.427 . S
C3270 H3247 0.929 . S
C3270 C3269 1.328 . S
C3271 O3255 1.264 . S
C3271 O3256 1.243 . S
C3272 C3275 1.399 . S
C3272 C3276 1.383 . S
C3272 C3279 1.496 . S
C3273 C3274 1.399 . S
C3273 C3276 1.389 . S
C3274 C3273 1.399 . S
C3274 C3277 1.380 . S
C3274 H3284 0.929 1_565 S
C3275 C3272 1.399 . S
C3275 C3277 1.392 . S
C3275 H3285 0.929 . S
C3276 C3272 1.383 . S
C3276 C3273 1.389 . S
C3276 H3286 0.931 . S
C3277 C3274 1.380 . S
C3277 C3275 1.392 . S
C3277 H3287 0.929 . S
C3278 O3258 1.266 . S
C3278 O3259 1.248 . S
C3279 Tb3215 2.802 . S
C3279 O3254 1.264 . S
C3279 O3257 1.256 . S
C3279 C3272 1.496 . S
H3280 C3263 0.929 . S
H3281 C3264 0.929 . S
H3282 C3265 0.929 . S
H3283 C3266 0.931 . S
H3284 C3274 0.929 1_545 S
H3285 C3275 0.929 . S
H3286 C3276 0.931 . S
H3287 C3277 0.929 . S
Tb3288 N3317 2.617 . S
Tb3288 N3323 2.572 . S
Tb3288 O3332 2.465 . S
Tb3288 O3333 2.387 . S
Tb3288 O3335 2.428 . S
Tb3288 O3336 2.308 . S
Tb3288 O3340 2.349 . S
Tb3288 O3343 2.393 . S
Tb3288 C3352 2.802 . S
C3289 N3290 1.379 . S
C3289 C3292 1.416 . S
C3289 C3296 1.424 . S
N3290 C3289 1.379 . S
N3290 C3293 1.334 . S
N3290 Tb3299 2.617 . S
C3291 C3293 1.390 . S
C3291 C3294 1.339 . S
C3291 H3311 0.930 . S
C3292 C3289 1.416 . S
C3292 C3294 1.416 . S
C3292 C3298 1.448 . S
C3293 N3290 1.334 . S
C3293 C3291 1.390 . S
C3293 H3304 0.930 . S
C3294 C3291 1.339 . S
C3294 C3292 1.416 . S
C3294 H3315 0.930 . S
C3295 C3296 1.413 . S
C3295 C3297 1.427 . S
C3295 C3301 1.416 . S
C3296 C3289 1.424 . S
C3296 C3295 1.413 . S
C3296 N3300 1.361 . S
C3297 C3295 1.427 . S
C3297 C3298 1.328 . S
C3297 H3312 0.929 . S
C3298 C3292 1.448 . S
C3298 C3297 1.328 . S
C3298 H3313 0.930 . S
Tb3299 N3290 2.617 . S
Tb3299 N3300 2.572 . S
Tb3299 O3334 2.349 . S
Tb3299 O3337 2.393 . S
Tb3299 O3338 2.465 . S
Tb3299 O3339 2.387 . S
Tb3299 O3341 2.428 . S
Tb3299 O3342 2.308 . S
Tb3299 C3363 2.802 . S
N3300 C3296 1.361 . S
N3300 Tb3299 2.572 . S
N3300 C3302 1.340 . S
C3301 C3295 1.416 . S
C3301 C3303 1.332 . S
C3301 H3309 0.931 . S
C3302 N3300 1.340 . S
C3302 C3303 1.407 . S
C3302 H3308 0.930 . S
C3303 C3301 1.332 . S
C3303 C3302 1.407 . S
C3303 H3305 0.929 . S
H3304 C3293 0.930 . S
H3305 C3303 0.929 . S
H3306 C3321 0.930 . S
H3307 C3328 0.929 . S
H3308 C3302 0.930 . S
H3309 C3301 0.931 . S
H3310 C3324 0.930 . S
H3311 C3291 0.930 . S
H3312 C3297 0.929 . S
H3313 C3298 0.930 . S
H3314 C3319 0.930 . S
H3315 C3294 0.930 . S
H3316 C3327 0.931 . S
N3317 Tb3288 2.617 . S
N3317 C3318 1.379 . S
N3317 C3321 1.334 . S
C3318 N3317 1.379 . S
C3318 C3320 1.416 . S
C3318 C3326 1.424 . S
C3319 H3314 0.930 . S
C3319 C3321 1.390 . S
C3319 C3322 1.339 . S
C3320 C3318 1.416 . S
C3320 C3322 1.416 . S
C3320 C3353 1.448 . S
C3321 H3306 0.930 . S
C3321 N3317 1.334 . S
C3321 C3319 1.390 . S
C3322 C3319 1.339 . S
C3322 C3320 1.416 . S
C3322 H3329 0.930 . S
N3323 Tb3288 2.572 . S
N3323 C3324 1.340 . S
N3323 C3326 1.361 . S
C3324 H3310 0.930 . S
C3324 N3323 1.340 . S
C3324 C3328 1.407 . S
C3325 C3326 1.413 . S
C3325 C3327 1.416 . S
C3325 C3354 1.427 . S
C3326 C3318 1.424 . S
C3326 N3323 1.361 . S
C3326 C3325 1.413 . S
C3327 H3316 0.931 . S
C3327 C3325 1.416 . S
C3327 C3328 1.332 . S
C3328 H3307 0.929 . S
C3328 C3324 1.407 . S
C3328 C3327 1.332 . S
H3329 C3322 0.930 . S
H3330 C3353 0.930 . S
H3331 C3354 0.929 . S
O3332 Tb3288 2.465 . S
O3332 C3352 1.264 . S
O3333 Tb3288 2.387 . S
O3333 C3344 1.264 . S
O3334 Tb3299 2.349 . S
O3334 C3344 1.243 . S
O3335 Tb3288 2.428 . S
O3335 C3352 1.256 . S
O3336 Tb3288 2.308 . S
O3336 C3351 1.266 . S
O3337 Tb3299 2.393 . S
O3337 C3351 1.248 . S
O3338 Tb3299 2.465 . S
O3338 C3363 1.264 . S
O3339 Tb3299 2.387 . S
O3339 C3355 1.264 . S
O3340 Tb3288 2.349 . S
O3340 C3355 1.243 . S
O3341 Tb3299 2.428 . S
O3341 C3363 1.256 . S
O3342 Tb3299 2.308 . S
O3342 C3362 1.266 . S
O3343 Tb3288 2.393 . S
O3343 C3362 1.248 . S
C3344 O3333 1.264 . S
C3344 O3334 1.243 . S
C3345 C3348 1.399 . S
C3345 C3350 1.383 . S
C3345 C3352 1.496 . S
C3346 C3347 1.399 . S
C3346 C3350 1.389 . S
C3347 C3346 1.399 . S
C3347 C3349 1.380 . S
C3347 H3364 0.929 . S
C3348 C3345 1.399 . S
C3348 C3349 1.392 . S
C3348 H3365 0.929 . S
C3349 C3347 1.380 . S
C3349 C3348 1.392 . S
C3349 H3366 0.929 . S
C3350 C3345 1.383 . S
C3350 C3346 1.389 . S
C3350 H3367 0.931 . S
C3351 O3336 1.266 . S
C3351 O3337 1.248 . S
C3352 Tb3288 2.802 . S
C3352 O3332 1.264 . S
C3352 O3335 1.256 . S
C3352 C3345 1.496 . S
C3353 C3320 1.448 . S
C3353 H3330 0.930 . S
C3353 C3354 1.328 . S
C3354 C3325 1.427 . S
C3354 H3331 0.929 . S
C3354 C3353 1.328 . S
C3355 O3339 1.264 . S
C3355 O3340 1.243 . S
C3356 C3359 1.399 . S
C3356 C3360 1.383 . S
C3356 C3363 1.496 . S
C3357 C3358 1.399 . S
C3357 C3360 1.389 . S
C3358 C3357 1.399 . S
C3358 C3361 1.380 . S
C3358 H3368 0.929 . S
C3359 C3356 1.399 . S
C3359 C3361 1.392 . S
C3359 H3369 0.929 . S
C3360 C3356 1.383 . S
C3360 C3357 1.389 . S
C3360 H3370 0.931 . S
C3361 C3358 1.380 . S
C3361 C3359 1.392 . S
C3361 H3371 0.929 . S
C3362 O3342 1.266 . S
C3362 O3343 1.248 . S
C3363 Tb3299 2.802 . S
C3363 O3338 1.264 . S
C3363 O3341 1.256 . S
C3363 C3356 1.496 . S
H3364 C3347 0.929 . S
H3365 C3348 0.929 . S
H3366 C3349 0.929 . S
H3367 C3350 0.931 . S
H3368 C3358 0.929 . S
H3369 C3359 0.929 . S
H3370 C3360 0.931 . S
H3371 C3361 0.929 . S
Tb3372 N3401 2.617 1_455 S
Tb3372 N3407 2.572 1_455 S
Tb3372 O3416 2.465 1_455 S
Tb3372 O3417 2.387 . S
Tb3372 O3419 2.428 1_455 S
Tb3372 O3420 2.308 . S
Tb3372 O3424 2.349 . S
Tb3372 O3427 2.393 . S
Tb3372 C3436 2.802 1_455 S
C3373 N3374 1.379 . S
C3373 C3376 1.416 . S
C3373 C3380 1.424 1_556 S
N3374 C3373 1.379 . S
N3374 C3377 1.334 . S
N3374 Tb3383 2.617 1_556 S
C3375 C3377 1.390 . S
C3375 C3378 1.339 . S
C3375 H3395 0.930 . S
C3376 C3373 1.416 . S
C3376 C3378 1.416 . S
C3376 C3382 1.448 . S
C3377 N3374 1.334 . S
C3377 C3375 1.390 . S
C3377 H3388 0.930 . S
C3378 C3375 1.339 . S
C3378 C3376 1.416 . S
C3378 H3399 0.930 . S
C3379 C3380 1.413 . S
C3379 C3381 1.427 1_554 S
C3379 C3385 1.416 . S
C3380 C3373 1.424 1_554 S
C3380 C3379 1.413 . S
C3380 N3384 1.361 . S
C3381 C3379 1.427 1_556 S
C3381 C3382 1.328 . S
C3381 H3396 0.929 . S
C3382 C3376 1.448 . S
C3382 C3381 1.328 . S
C3382 H3397 0.930 . S
Tb3383 N3374 2.617 1_554 S
Tb3383 N3384 2.572 . S
Tb3383 O3418 2.349 . S
Tb3383 O3421 2.393 1_554 S
Tb3383 O3422 2.465 . S
Tb3383 O3423 2.387 . S
Tb3383 O3425 2.428 1_554 S
Tb3383 O3426 2.308 . S
Tb3383 C3447 2.802 . S
N3384 C3380 1.361 . S
N3384 Tb3383 2.572 . S
N3384 C3386 1.340 . S
C3385 C3379 1.416 . S
C3385 C3387 1.332 . S
C3385 H3393 0.931 . S
C3386 N3384 1.340 . S
C3386 C3387 1.407 . S
C3386 H3392 0.930 . S
C3387 C3385 1.332 . S
C3387 C3386 1.407 . S
C3387 H3389 0.929 . S
H3388 C3377 0.930 . S
H3389 C3387 0.929 . S
H3390 C3405 0.930 . S
H3391 C3412 0.929 1_556 S
H3392 C3386 0.930 . S
H3393 C3385 0.931 . S
H3394 C3408 0.930 . S
H3395 C3375 0.930 . S
H3396 C3381 0.929 . S
H3397 C3382 0.930 . S
H3398 C3403 0.930 1_455 S
H3399 C3378 0.930 . S
H3400 C3411 0.931 . S
N3401 Tb3372 2.617 1_655 S
N3401 C3402 1.379 . S
N3401 C3405 1.334 1_655 S
C3402 N3401 1.379 . S
C3402 C3404 1.416 . S
C3402 C3410 1.424 . S
C3403 H3398 0.930 1_655 S
C3403 C3405 1.390 1_655 S
C3403 C3406 1.339 . S
C3404 C3402 1.416 . S
C3404 C3406 1.416 . S
C3404 C3437 1.448 . S
C3405 H3390 0.930 . S
C3405 N3401 1.334 1_455 S
C3405 C3403 1.390 1_455 S
C3406 C3403 1.339 . S
C3406 C3404 1.416 . S
C3406 H3413 0.930 . S
N3407 Tb3372 2.572 1_655 S
N3407 C3408 1.340 . S
N3407 C3410 1.361 . S
C3408 H3394 0.930 . S
C3408 N3407 1.340 . S
C3408 C3412 1.407 . S
C3409 C3410 1.413 . S
C3409 C3411 1.416 . S
C3409 C3438 1.427 . S
C3410 C3402 1.424 . S
C3410 N3407 1.361 . S
C3410 C3409 1.413 . S
C3411 H3400 0.931 . S
C3411 C3409 1.416 . S
C3411 C3412 1.332 . S
C3412 H3391 0.929 1_554 S
C3412 C3408 1.407 . S
C3412 C3411 1.332 . S
H3413 C3406 0.930 . S
H3414 C3437 0.930 . S
H3415 C3438 0.929 . S
O3416 Tb3372 2.465 1_655 S
O3416 C3436 1.264 . S
O3417 Tb3372 2.387 . S
O3417 C3428 1.264 . S
O3418 Tb3383 2.349 . S
O3418 C3428 1.243 . S
O3419 Tb3372 2.428 1_655 S
O3419 C3436 1.256 . S
O3420 Tb3372 2.308 . S
O3420 C3435 1.266 1_554 S
O3421 Tb3383 2.393 1_556 S
O3421 C3435 1.248 . S
O3422 Tb3383 2.465 . S
O3422 C3447 1.264 . S
O3423 Tb3383 2.387 . S
O3423 C3439 1.264 . S
O3424 Tb3372 2.349 . S
O3424 C3439 1.243 . S
O3425 Tb3383 2.428 1_556 S
O3425 C3447 1.256 1_556 S
O3426 Tb3383 2.308 . S
O3426 C3446 1.266 . S
O3427 Tb3372 2.393 . S
O3427 C3446 1.248 . S
C3428 O3417 1.264 . S
C3428 O3418 1.243 . S
C3429 C3432 1.399 . S
C3429 C3434 1.383 . S
C3429 C3436 1.496 . S
C3430 C3431 1.399 . S
C3430 C3434 1.389 . S
C3431 C3430 1.399 . S
C3431 C3433 1.380 . S
C3431 H3448 0.929 . S
C3432 C3429 1.399 . S
C3432 C3433 1.392 . S
C3432 H3449 0.929 . S
C3433 C3431 1.380 . S
C3433 C3432 1.392 . S
C3433 H3450 0.929 . S
C3434 C3429 1.383 . S
C3434 C3430 1.389 . S
C3434 H3451 0.931 . S
C3435 O3420 1.266 1_556 S
C3435 O3421 1.248 . S
C3436 Tb3372 2.802 1_655 S
C3436 O3416 1.264 . S
C3436 O3419 1.256 . S
C3436 C3429 1.496 . S
C3437 C3404 1.448 . S
C3437 H3414 0.930 . S
C3437 C3438 1.328 . S
C3438 C3409 1.427 . S
C3438 H3415 0.929 . S
C3438 C3437 1.328 . S
C3439 O3423 1.264 . S
C3439 O3424 1.243 . S
C3440 C3443 1.399 . S
C3440 C3444 1.383 1_556 S
C3440 C3447 1.496 1_556 S
C3441 C3442 1.399 1_554 S
C3441 C3444 1.389 . S
C3442 C3441 1.399 1_556 S
C3442 C3445 1.380 . S
C3442 H3452 0.929 . S
C3443 C3440 1.399 . S
C3443 C3445 1.392 . S
C3443 H3453 0.929 . S
C3444 C3440 1.383 1_554 S
C3444 C3441 1.389 . S
C3444 H3454 0.931 . S
C3445 C3442 1.380 . S
C3445 C3443 1.392 . S
C3445 H3455 0.929 . S
C3446 O3426 1.266 . S
C3446 O3427 1.248 . S
C3447 Tb3383 2.802 . S
C3447 O3422 1.264 . S
C3447 O3425 1.256 1_554 S
C3447 C3440 1.496 1_554 S
H3448 C3431 0.929 . S
H3449 C3432 0.929 . S
H3450 C3433 0.929 . S
H3451 C3434 0.931 . S
H3452 C3442 0.929 . S
H3453 C3443 0.929 . S
H3454 C3444 0.931 . S
H3455 C3445 0.929 . S
C665 C2168 3.831 1_655 S
C381 C2270 2.737 . S
C460 C2336 3.480 . S
C2422 C585 1.363 . S
C108 C2506 1.363 . S
C2588 C196 3.480 . S
C2690 C313 2.737 . S
C49 C2756 3.831 . S
C2186 C1457 2.478 . S
C1545 C2254 0.495 . S
C2354 C1721 1.182 . S
C2420 C1113 2.404 . S
C1428 C2504 2.404 . S
C2606 C1516 1.181 . S
C2674 C1692 0.495 . S
C2774 C1085 2.478 . S
C2170 C988 2.520 1_554 S
C1817 C2858 2.130 . S
C2926 C2081 1.885 . S
C3008 C1993 1.550 . S
C761 C2758 2.523 . S
C821 C2338 1.884 . S
C2053 C3110 2.130 . S
C3176 C1868 1.550 . S
C2179 C372 3.832 . S
C3183 C645 2.726 . S
C577 C2347 3.470 . S
C497 C3105 1.371 . S
C2517 C57 1.371 . S
C293 C2935 3.470 . S
C2679 C205 2.726 1_554 S
C3271 C145 3.832 . S
C2175 C909 2.478 . S
C3189 C1956 0.508 . S
C724 C2343 1.187 . S
C1780 C3103 2.396 . S
C937 C2515 2.396 . S
C2931 C1985 1.187 . S
C753 C2685 0.508 1_545 S
C1809 C3267 2.479 . S
C1173 C2181 2.538 . S
C1105 C2847 2.120 . S
C1633 C2601 1.901 . S
C1553 C3019 1.531 . S
C3273 C1729 2.538 . S
C1340 C2349 1.901 . S
C2427 C1604 2.120 . S
C2263 C1252 1.532 . S
C489 C3344 3.831 . S
C3194 C557 2.737 . S
C636 C3428 3.480 . S
C409 C3094 1.363 . S
C284 C2842 1.363 . S
C2924 C20 3.479 . S
C3026 C137 2.737 . S
C3260 C225 3.831 . S
C3362 C1641 2.478 . S
C1193 C3178 0.495 . S
C3446 C1289 1.181 . S
C3092 C1377 2.404 . S
C2840 C1613 2.404 . S
C1164 C2942 1.182 . S
C3010 C1261 0.495 . S
C1349 C3278 2.478 . S
C3346 C1965 2.523 . S
C849 C2522 2.129 . S
C2590 C929 1.885 . S
C2672 C1017 1.549 . S
C3262 C1897 2.523 . S
C1789 C3430 1.885 . S
C2438 C900 2.130 . S
C2252 C733 1.550 . S
C548 C3355 3.832 . S
C2259 C469 2.726 . S
C401 C3439 3.470 . S
C673 C2433 1.371 . S
C233 C2853 1.371 . S
C2599 C117 3.470 . S
C29 C3015 2.726 . S
C321 C2767 3.832 . S
C3351 C2044 2.479 . S
C997 C2265 0.506 . S
C3435 C1877 1.187 1_455 S
C812 C2431 2.397 . S
C2073 C2851 2.396 . S
C2595 C1025 1.188 . S
C1905 C3021 0.508 . S
C2763 C841 2.479 . S
C3357 C1525 2.539 . S
C2511 C1369 2.119 1_545 S
C1465 C2937 1.900 . S
C2683 C1201 1.532 . S
C1281 C2769 2.538 . S
C1076 C3441 1.900 . S
C3099 C1437 2.119 . S
C3187 C1701 1.532 . S
