# Generated by pormake.
# Topology ssa, (4,4)-cn, num edge types: 1
# Building blocks:
#     Node 0, Type 0, BuildingBlock: KOZSID_clean_sbu_0, # of connection points: 4
#     Node 1, Type 0, BuildingBlock: KOZSID_clean_sbu_0, # of connection points: 4
#     Node 2, Type 0, BuildingBlock: KOZSID_clean_sbu_0, # of connection points: 4
#     Node 3, Type 0, BuildingBlock: KOZSID_clean_sbu_0, # of connection points: 4
#     Node 4, Type 0, BuildingBlock: KOZSID_clean_sbu_0, # of connection points: 4
#     Node 5, Type 0, BuildingBlock: KOZSID_clean_sbu_0, # of connection points: 4
#     Node 6, Type 1, BuildingBlock: MUDLON_clean_sbu_0, # of connection points: 4
#     Node 7, Type 1, BuildingBlock: MUDLON_clean_sbu_0, # of connection points: 4
#     Node 8, Type 1, BuildingBlock: MUDLON_clean_sbu_0, # of connection points: 4
#     Node 9, Type 1, BuildingBlock: MUDLON_clean_sbu_0, # of connection points: 4
#     Node 10, Type 1, BuildingBlock: MUDLON_clean_sbu_0, # of connection points: 4
#     Node 11, Type 1, BuildingBlock: MUDLON_clean_sbu_0, # of connection points: 4
#     Edge 12, Type (0, 1), BuildingBlock: CIFDUS_clean_linker_0, # of connection points: 2
#     Edge 13, Type (0, 1), BuildingBlock: CIFDUS_clean_linker_0, # of connection points: 2
#     Edge 14, Type (0, 1), BuildingBlock: CIFDUS_clean_linker_0, # of connection points: 2
#     Edge 15, Type (0, 1), BuildingBlock: CIFDUS_clean_linker_0, # of connection points: 2
#     Edge 16, Type (0, 1), BuildingBlock: CIFDUS_clean_linker_0, # of connection points: 2
#     Edge 17, Type (0, 1), BuildingBlock: CIFDUS_clean_linker_0, # of connection points: 2
#     Edge 18, Type (0, 1), BuildingBlock: CIFDUS_clean_linker_0, # of connection points: 2
#     Edge 19, Type (0, 1), BuildingBlock: CIFDUS_clean_linker_0, # of connection points: 2
#     Edge 20, Type (0, 1), BuildingBlock: CIFDUS_clean_linker_0, # of connection points: 2
#     Edge 21, Type (0, 1), BuildingBlock: CIFDUS_clean_linker_0, # of connection points: 2
#     Edge 22, Type (0, 1), BuildingBlock: CIFDUS_clean_linker_0, # of connection points: 2
#     Edge 23, Type (0, 1), BuildingBlock: CIFDUS_clean_linker_0, # of connection points: 2
#     Edge 24, Type (0, 1), BuildingBlock: CIFDUS_clean_linker_0, # of connection points: 2
#     Edge 25, Type (0, 1), BuildingBlock: CIFDUS_clean_linker_0, # of connection points: 2
#     Edge 26, Type (0, 1), BuildingBlock: CIFDUS_clean_linker_0, # of connection points: 2
#     Edge 27, Type (0, 1), BuildingBlock: CIFDUS_clean_linker_0, # of connection points: 2
#     Edge 28, Type (0, 1), BuildingBlock: CIFDUS_clean_linker_0, # of connection points: 2
#     Edge 29, Type (0, 1), BuildingBlock: CIFDUS_clean_linker_0, # of connection points: 2
#     Edge 30, Type (0, 1), BuildingBlock: CIFDUS_clean_linker_0, # of connection points: 2
#     Edge 31, Type (0, 1), BuildingBlock: CIFDUS_clean_linker_0, # of connection points: 2
#     Edge 32, Type (0, 1), BuildingBlock: CIFDUS_clean_linker_0, # of connection points: 2
#     Edge 33, Type (0, 1), BuildingBlock: CIFDUS_clean_linker_0, # of connection points: 2
#     Edge 34, Type (0, 1), BuildingBlock: CIFDUS_clean_linker_0, # of connection points: 2
#     Edge 35, Type (0, 1), BuildingBlock: CIFDUS_clean_linker_0, # of connection points: 2
# Relax obj value: 0.016
# Max RMSD: 0.036
# Mean RMSD: 0.022
data_MOF--net-ssa--node1-KOZSID_clean_sbu_0--node2-MUDLON_clean_sbu_0--edge1-CIFDUS_clean_linker_0
_symmetry_space_group_name_H-M    P1
_symmetry_Int_Tables_number       1
_symmetry_cell_setting            triclinic
loop_
_symmetry_equiv_pos_as_xyz
'x, y, z'
_cell_length_a     42.356104
_cell_length_b     43.75168
_cell_length_c     40.127277
_cell_angle_alpha  87.261028
_cell_angle_beta   89.951111
_cell_angle_gamma 123.17273
loop_
_atom_site_label
_atom_site_type_symbol
_atom_site_fract_x
_atom_site_fract_y
_atom_site_fract_z
_atom_type_partial_charge
C0 C 0.95333 0.52123 0.01558 0.0
C1 C 0.91863 0.50524 0.03218 0.0
C2 C 0.91908 0.48512 0.05904 0.0
C3 C 0.95385 0.48984 0.05725 0.0
N4 N 0.97614 0.51282 0.03151 0.0
Co5 Co 0.02669 0.5236 0.0166 0.0
N6 N 0.02376 0.4874 0.051 0.0
C7 C 0.99503 0.46563 0.07319 0.0
C8 C 1.00268 0.44593 0.0955 0.0
C9 C 0.03887 0.45664 0.08774 0.0
C10 C 0.05119 0.4824 0.06111 0.0
N11 N 0.07707 0.53439 1.00138 0.0
C12 C 0.09921 0.52459 0.01623 0.0
C13 C 0.13379 0.54045 0.99937 0.0
C14 C 0.13385 0.56181 0.9734 0.0
C15 C 0.09952 0.55787 0.97594 0.0
N16 N 0.02941 0.55979 0.98221 0.0
C17 C 0.05846 0.58234 0.96058 0.0
C18 C 0.05053 0.60163 0.93801 0.0
C19 C 0.01382 0.58974 0.9449 0.0
C20 C 1.0015 0.56376 0.9713 0.0
N21 N 0.05306 0.5623 0.04968 0.0
C22 C 0.10077 0.60841 0.09958 0.0
C23 C 0.11085 0.6174 0.06556 0.0
C24 C 0.08668 0.59448 0.04132 0.0
C25 C 0.0649 0.5773 0.10779 0.0
C26 C 0.0416 0.55515 0.08272 0.0
N27 N 1.00095 0.48466 0.98391 0.0
C28 C 0.99465 0.46481 0.92747 0.0
C29 C 0.96167 0.43095 0.93652 0.0
C30 C 0.94922 0.42437 0.96998 0.0
C31 C 0.96909 0.45124 0.99299 0.0
C32 C 0.01365 0.49093 0.95128 0.0
H33 H 0.95771 0.44454 0.01791 0.0
H34 H 0.03835 0.5162 0.9426 0.0
H35 H 0.09652 0.60266 0.01601 0.0
H36 H 0.01491 0.53168 0.09081 0.0
C37 C 0.96365 0.46827 0.0754 0.0
C38 C 0.96219 0.54096 0.98303 0.0
C39 C 0.09007 0.50381 0.04818 0.0
C40 C 0.08993 0.57987 0.95827 0.0
H41 H 0.89471 0.5063 0.02466 0.0
H42 H 0.89577 0.46696 0.07626 0.0
H43 H 0.98496 0.42773 0.11624 0.0
H44 H 0.05503 0.44791 0.10116 0.0
H45 H 0.15734 0.53846 1.00614 0.0
H46 H 0.15714 0.57999 0.95617 0.0
H47 H 0.06835 0.62003 0.9174 0.0
H48 H 0.99729 0.59765 0.93093 0.0
H49 H 0.13796 0.64135 0.05748 0.0
H50 H 0.0548 0.56975 0.13355 0.0
H51 H 0.00597 0.47126 0.90206 0.0
H52 H 0.92363 0.3989 0.9784 0.0
C53 C 0.58267 0.02849 0.58839 0.0
C54 C 0.58113 0.01239 0.61955 0.0
C55 C 0.54716 0.97972 0.62235 0.0
C56 C 0.52988 0.97777 0.59297 0.0
N57 N 0.55104 0.00682 0.57118 0.0
Co58 Co 0.53505 0.01627 0.52683 0.0
N59 N 0.48445 0.96854 0.53131 0.0
C60 C 0.47135 0.94382 0.55768 0.0
C61 C 0.43828 0.91154 0.55203 0.0
C62 C 0.43027 0.91525 0.51976 0.0
C63 C 0.45884 0.94997 0.50753 0.0
N64 N 0.51859 0.02577 0.48286 0.0
C65 C 0.48883 0.00253 0.46433 0.0
C66 C 0.48859 0.01957 0.43438 0.0
C67 C 0.5202 0.05425 0.4333 0.0
C68 C 0.53776 0.05655 0.46266 0.0
N69 N 0.58591 0.06324 0.52155 0.0
C70 C 0.59886 0.08786 0.4951 0.0
C71 C 0.63445 0.11803 0.49897 0.0
C72 C 0.64461 0.1126 0.5299 0.0
C73 C 0.61445 0.07939 0.54326 0.0
N74 N 0.55488 0.99072 0.50388 0.0
C75 C 0.56837 0.94649 0.4657 0.0
C76 C 0.57789 0.9809 0.45298 0.0
C77 C 0.57141 0.00264 0.47254 0.0
C78 C 0.55556 0.93635 0.49902 0.0
C79 C 0.54903 0.95867 0.51751 0.0
N80 N 0.51548 0.04236 0.55008 0.0
C81 C 0.52129 0.09942 0.56016 0.0
C82 C 0.50084 0.0849 0.5904 0.0
C83 C 0.48557 0.04789 0.59892 0.0
C84 C 0.49297 0.02726 0.57848 0.0
C85 C 0.52778 0.07779 0.54041 0.0
H86 H 0.48104 0.99947 0.58673 0.0
H87 H 0.54372 0.09079 0.51786 0.0
H88 H 0.57825 0.02818 0.46119 0.0
H89 H 0.53767 0.94869 0.54226 0.0
C90 C 0.49346 0.94954 0.58541 0.0
C91 C 0.6134 0.06549 0.57738 0.0
C92 C 0.46239 0.96332 0.47259 0.0
C93 C 0.57519 0.0839 0.46898 0.0
H94 H 0.60188 0.02353 0.63872 0.0
H95 H 0.53595 0.96019 0.64366 0.0
H96 H 0.42321 0.8872 0.56861 0.0
H97 H 0.40702 0.89389 0.50657 0.0
H98 H 0.46875 0.00744 0.41459 0.0
H99 H 0.53059 0.07438 0.41248 0.0
H100 H 0.65043 0.14189 0.48195 0.0
H101 H 0.67072 0.13146 0.54181 0.0
H102 H 0.58818 0.99023 0.42742 0.0
H103 H 0.54903 0.91049 0.51044 0.0
H104 H 0.53254 0.12755 0.55176 0.0
H105 H 0.46904 0.03509 0.62188 0.0
C106 C 0.58585 0.56543 0.9705 0.0
C107 C 0.59629 0.59414 0.94716 0.0
C108 C 0.56561 0.5964 0.94341 0.0
C109 C 0.53841 0.56941 0.96488 0.0
N110 N 0.54997 0.55029 0.98246 0.0
Co111 Co 0.51956 0.50971 0.01738 0.0
N112 N 0.47382 0.51197 0.01073 0.0
C113 C 0.47018 0.53322 0.98755 0.0
C114 C 0.43631 0.53026 0.9899 0.0
C115 C 0.41739 0.50618 0.01655 0.0
C116 C 0.44088 0.49572 0.02899 0.0
N117 N 0.48934 0.46996 0.05317 0.0
C118 C 0.4555 0.45855 0.06814 0.0
C119 C 0.44602 0.43227 0.0938 0.0
C120 C 0.47525 0.42754 0.09577 0.0
C121 C 0.50079 0.45106 0.07127 0.0
N122 N 0.56488 0.50672 0.02362 0.0
C123 C 0.56688 0.4826 0.04445 0.0
C124 C 0.59986 0.48413 0.04109 0.0
C125 C 0.62011 0.51052 0.01639 0.0
C126 C 0.59848 0.52415 1.00628 0.0
N127 N 0.53699 0.54626 0.05188 0.0
C128 C 0.55598 0.59456 0.10343 0.0
C129 C 0.56115 0.56564 0.10673 0.0
C130 C 0.55167 0.5421 0.08086 0.0
C131 C 0.54271 0.59983 0.07325 0.0
C132 C 0.53349 0.57557 0.048 0.0
N133 N 0.50272 0.47321 0.98244 0.0
C134 C 0.49855 0.41977 0.96231 0.0
C135 C 0.49497 0.42933 0.92946 0.0
C136 C 0.49248 0.45975 0.92403 0.0
C137 C 0.49612 0.48094 0.95065 0.0
C138 C 0.50185 0.4416 0.9882 0.0
H139 H 0.49464 0.50408 0.94466 0.0
H140 H 0.50459 0.43272 0.01252 0.0
H141 H 0.55574 0.52028 0.08512 0.0
H142 H 0.52271 0.58056 0.02588 0.0
C143 C 0.5011 0.5598 0.96758 0.0
C144 C 0.61046 0.55262 0.97932 0.0
C145 C 0.43187 0.47245 0.05959 0.0
C146 C 0.53673 0.45785 0.06607 0.0
H147 H 0.62309 0.61127 0.93371 0.0
H148 H 0.56316 0.61499 0.92651 0.0
H149 H 0.42736 0.5455 0.97527 0.0
H150 H 0.3901 0.49847 0.02653 0.0
H151 H 0.42094 0.41859 0.10994 0.0
H152 H 0.47812 0.40997 0.11368 0.0
H153 H 0.60781 0.46731 0.05436 0.0
H154 H 0.64732 0.51795 1.00652 0.0
H155 H 0.57195 0.56078 0.12945 0.0
H156 H 0.53798 0.62169 0.06956 0.0
H157 H 0.49909 0.39563 0.96809 0.0
H158 H 0.48913 0.46809 0.89914 0.0
C159 C 0.92419 0.42381 0.52937 0.0
C160 C 0.8877 0.39993 0.5191 0.0
C161 C 0.88564 0.41267 0.48799 0.0
C162 C 0.9207 0.44367 0.48118 0.0
N163 N 0.94548 0.45073 0.50551 0.0
Co164 Co 0.99706 0.49633 0.50921 0.0
N165 N 0.98972 0.5211 0.46957 0.0
C166 C 0.95988 0.50594 0.44935 0.0
C167 C 0.96154 0.53002 0.42522 0.0
C168 C 0.99457 0.56239 0.43006 0.0
C169 C 0.01166 0.5561 0.45669 0.0
N170 N 0.04792 0.54221 0.51413 0.0
C171 C 0.06531 0.57483 0.4963 0.0
C172 C 0.10153 0.59876 0.50741 0.0
C173 C 0.10672 0.581 0.53353 0.0
C174 C 0.0738 0.54722 0.5368 0.0
N175 N 0.00406 0.47122 0.54869 0.0
C176 C 0.03593 0.48317 0.56567 0.0
C177 C 0.03078 0.46113 0.59343 0.0
C178 C 0.99313 0.4343 0.59481 0.0
C179 C 0.9775 0.44169 0.56779 0.0
N180 N 0.02007 0.47781 0.47849 0.0
C181 C 0.05673 0.4596 0.43093 0.0
C182 C 0.07439 0.47704 0.45995 0.0
C183 C 0.05572 0.48532 0.48315 0.0
C184 C 0.01958 0.45012 0.42702 0.0
C185 C 1.00207 0.45933 0.45074 0.0
N186 N 0.9746 0.5147 0.53929 0.0
C187 C 0.96999 0.53403 0.59365 0.0
C188 C 0.93539 0.52925 0.58604 0.0
C189 C 0.92235 0.51975 0.55376 0.0
C190 C 0.94227 0.51281 0.53093 0.0
C191 C 0.98911 0.52677 0.56999 0.0
H192 H 0.93029 0.50456 0.50703 0.0
H193 H 0.0148 0.5296 0.57741 0.0
H194 H 0.07136 0.49843 0.50432 0.0
H195 H 0.97406 0.45143 0.44565 0.0
C196 C 0.9289 0.47015 0.45576 0.0
C197 C 0.93696 0.42233 0.5629 0.0
C198 C 0.04909 0.58392 0.46821 0.0
C199 C 0.06712 0.51892 0.55965 0.0
H200 H 0.86426 0.37696 0.53317 0.0
H201 H 0.86064 0.40236 0.47339 0.0
H202 H 0.94068 0.52494 0.4069 0.0
H203 H 0.0047 0.58778 0.41562 0.0
H204 H 0.12255 0.62604 0.49747 0.0
H205 H 0.13182 0.59125 0.54797 0.0
H206 H 0.05119 0.46586 0.6121 0.0
H207 H 0.97839 0.41307 0.61452 0.0
H208 H 0.10315 0.48541 0.46462 0.0
H209 H 1.00379 0.43562 0.40568 0.0
H210 H 0.98132 0.54145 0.61828 0.0
H211 H 0.89616 0.51659 0.54638 0.0
C212 C 0.43605 0.99602 0.07995 0.0
C213 C 0.43389 0.01348 0.107 0.0
C214 C 0.46655 0.04738 0.10614 0.0
C215 C 0.48667 0.04864 0.07875 0.0
N216 N 0.46841 0.0179 0.06162 0.0
Co217 Co 0.48789 0.00716 0.02124 0.0
N218 N 0.53766 0.05508 0.02221 0.0
C219 C 0.54951 0.07967 0.046 0.0
C220 C 0.58431 0.11092 0.03875 0.0
C221 C 0.59478 0.10647 0.00809 0.0
C222 C 0.56555 0.07271 0.99832 0.0
N223 N 0.50723 0.99732 0.98006 0.0
C224 C 0.53757 0.0209 0.95973 0.0
C225 C 0.53847 0.00443 0.93133 0.0
C226 C 0.50732 0.96953 0.93346 0.0
C227 C 0.48901 0.96669 0.96275 0.0
N228 N 0.43845 0.95905 0.02046 0.0
C229 C 0.42801 0.93288 0.99848 0.0
C230 C 0.39327 0.90164 1.00591 0.0
C231 C 0.38131 0.9079 0.0349 0.0
C232 C 0.40956 0.94269 0.04338 0.0
N233 N 0.46817 0.03069 0.99229 0.0
C234 C 0.44357 0.06585 0.94907 0.0
C235 C 0.43523 0.03097 0.94318 0.0
C236 C 0.44749 0.01397 0.96501 0.0
C237 C 0.46333 0.08219 0.97772 0.0
C238 C 0.47547 0.06442 0.99865 0.0
N239 N 0.50679 0.98273 0.05083 0.0
C240 C 0.50754 0.92872 0.0659 0.0
C241 C 0.51648 0.93885 0.09887 0.0
C242 C 0.52317 0.97284 0.10642 0.0
C243 C 0.51898 0.99436 0.08215 0.0
C244 C 0.50294 0.9508 0.04257 0.0
H245 H 0.52451 0.01977 0.08979 0.0
H246 H 0.49528 0.94088 0.01827 0.0
H247 H 0.44063 0.98764 0.95886 0.0
H248 H 0.49131 0.07878 0.01951 0.0
C249 C 0.52453 0.07585 0.07115 0.0
C250 C 0.40965 0.95727 0.07526 0.0
C251 C 0.56412 0.05974 0.96517 0.0
C252 C 0.4525 0.93766 0.9724 0.0
H253 H 0.41199 0.00229 0.12635 0.0
H254 H 0.47554 0.06775 0.12446 0.0
H255 H 0.59904 0.13518 0.0529 0.0
H256 H 0.62012 0.12651 0.99377 0.0
H257 H 0.55842 0.01672 0.91038 0.0
H258 H 0.49786 0.94944 0.9148 0.0
H259 H 0.37908 0.87673 0.99264 0.0
H260 H 0.35557 0.88857 0.0491 0.0
H261 H 0.42046 0.01723 0.92117 0.0
H262 H 0.46999 0.1089 0.98384 0.0
H263 H 0.50367 0.90361 0.05797 0.0
H264 H 0.53042 0.98259 0.13129 0.0
C265 C 0.51872 0.59243 0.52136 0.0
C266 C 0.51361 0.61677 0.53745 0.0
C267 C 0.49971 0.60134 0.56906 0.0
C268 C 0.49721 0.56858 0.57038 0.0
N269 N 0.50916 0.56288 0.54177 0.0
Co270 Co 0.50662 0.51805 0.5305 0.0
N271 N 0.46829 0.48792 0.56686 0.0
C272 C 0.45996 0.5015 0.59247 0.0
C273 C 0.43452 0.47496 0.61529 0.0
C274 C 0.42708 0.4427 0.60395 0.0
C275 C 0.44845 0.45121 0.57457 0.0
N276 N 0.50385 0.47329 0.51813 0.0
C277 C 0.47792 0.43771 0.52726 0.0
C278 C 0.48459 0.41494 0.50989 0.0
C279 C 0.517 0.43713 0.49088 0.0
C280 C 0.52797 0.47214 0.49712 0.0
N281 N 0.54511 0.54848 0.49466 0.0
C282 C 0.56717 0.54018 0.47868 0.0
C283 C 0.58879 0.56556 0.45328 0.0
C284 C 0.57925 0.59093 0.45304 0.0
C285 C 0.55238 0.57971 0.47857 0.0
N286 N 0.54701 0.5291 0.56168 0.0
C287 C 0.60413 0.54274 0.60647 0.0
C288 C 0.60672 0.57127 0.58612 0.0
C289 C 0.57805 0.56383 0.56379 0.0
C290 C 0.57212 0.5075 0.60368 0.0
C291 C 0.54408 0.50156 0.58177 0.0
N292 N 0.46666 0.50739 0.49946 0.0
C293 C 0.4452 0.49806 0.44321 0.0
C294 C 0.4161 0.5027 0.45186 0.0
C295 C 0.41178 0.50806 0.48528 0.0
C296 C 0.43736 0.51032 0.50868 0.0
C297 C 0.46982 0.50015 0.46733 0.0
H298 H 0.43419 0.51576 0.53394 0.0
H299 H 0.49238 0.49738 0.4595 0.0
H300 H 0.58093 0.58614 0.54828 0.0
H301 H 0.52 0.47444 0.58119 0.0
C302 C 0.4751 0.5391 0.59342 0.0
C303 C 0.53296 0.59787 0.48688 0.0
C304 C 0.45477 0.42517 0.55849 0.0
C305 C 0.55809 0.50419 0.48103 0.0
H306 H 0.51846 0.64234 0.52707 0.0
H307 H 0.48982 0.61148 0.58779 0.0
H308 H 0.4231 0.47862 0.63777 0.0
H309 H 0.4091 0.41631 0.61692 0.0
H310 H 0.46942 0.38543 0.51298 0.0
H311 H 0.53094 0.42872 0.4746 0.0
H312 H 0.60661 0.564 0.43501 0.0
H313 H 0.58988 0.61394 0.43516 0.0
H314 H 0.63048 0.59922 0.58746 0.0
H315 H 0.56862 0.48414 0.61792 0.0
H316 H 0.44986 0.49408 0.41768 0.0
H317 H 0.38931 0.51122 0.49318 0.0
Mg318 Mg 0.24676 0.48284 0.2449 0.0
C319 C 0.22603 0.50366 0.1836 0.0
O320 O 0.22476 0.47358 0.17881 0.0
C321 C 0.28771 0.47715 0.29627 0.0
O322 O 0.26577 0.44547 0.28304 0.0
C323 C 0.16641 0.45406 0.26983 0.0
O324 O 0.16716 0.47027 0.24119 0.0
O325 O 0.19362 0.4501 0.27594 0.0
O326 O 0.23765 0.51825 0.21144 0.0
O327 O 0.27905 0.46751 0.21333 0.0
C328 C 0.27387 0.44457 0.19196 0.0
O329 O 0.23938 0.41845 0.18488 0.0
O330 O 0.28655 0.50427 0.28504 0.0
Mg331 Mg 0.76784 0.23998 0.77003 0.0
C332 C 0.75854 0.17857 0.71991 0.0
O333 O 0.78892 0.18015 0.72982 0.0
C334 C 0.82075 0.25981 0.82969 0.0
O335 O 0.79076 0.23103 0.84433 0.0
C336 C 0.71551 0.18093 0.81628 0.0
O337 O 0.73637 0.17163 0.8012 0.0
O338 O 0.72075 0.21189 0.80754 0.0
O339 O 0.74872 0.1981 0.73313 0.0
O340 O 0.78117 0.28409 0.7327 0.0
C341 C 0.80808 0.28792 0.71459 0.0
O342 O 0.82196 0.26824 0.7229 0.0
O343 O 0.82028 0.26685 0.79854 0.0
Mg344 Mg 0.56291 0.78166 0.27373 0.0
C345 C 0.51481 0.78503 0.21777 0.0
O346 O 0.52004 0.76133 0.20423 0.0
C347 C 0.52189 0.71708 0.3342 0.0
O348 O 0.48743 0.70752 0.32734 0.0
C349 C 0.5709 0.82805 0.32219 0.0
O350 O 0.53605 0.79944 0.32141 0.0
O351 O 0.59499 0.83122 0.30086 0.0
O352 O 0.52497 0.79365 0.24757 0.0
O353 O 0.58831 0.76683 0.2356 0.0
C354 C 0.5714 0.73221 0.23508 0.0
O355 O 0.54405 0.71169 0.25726 0.0
O356 O 0.54977 0.74244 0.31646 0.0
Mg357 Mg 0.79246 0.55563 0.79844 0.0
C358 C 0.74369 0.55073 0.74639 0.0
O359 O 0.77464 0.58373 0.74425 0.0
C360 C 0.82776 0.51734 0.83335 0.0
O361 O 0.83623 0.51509 0.80247 0.0
C362 C 0.77631 0.58902 0.85549 0.0
O363 O 0.79346 0.57637 0.87287 0.0
O364 O 0.77864 0.59033 0.82372 0.0
O365 O 0.74108 0.52793 0.76917 0.0
O366 O 0.8372 0.57576 0.75929 0.0
C367 C 0.82858 0.55091 0.73897 0.0
O368 O 0.79629 0.51933 0.74406 0.0
O369 O 0.80665 0.52915 0.83852 0.0
Mg370 Mg 0.25542 0.77914 0.2924 0.0
C371 C 0.21897 0.70344 0.2622 0.0
O372 O 0.20316 0.69119 0.29214 0.0
C373 C 0.3295 0.82723 0.3331 0.0
O374 O 0.34651 0.84081 0.30374 0.0
C375 C 0.19277 0.75265 0.34546 0.0
O376 O 0.22082 0.77535 0.36389 0.0
O377 O 0.19888 0.75299 0.31437 0.0
O378 O 0.2456 0.73706 0.25759 0.0
O379 O 0.2736 0.82474 0.25638 0.0
C380 C 0.29977 0.82843 0.23749 0.0
O381 O 0.3115 0.80645 0.24332 0.0
O382 O 0.29485 0.80061 0.33466 0.0
Mg383 Mg 0.44928 0.24231 0.75036 0.0
C384 C 0.50595 0.23312 0.70493 0.0
O385 O 0.53408 0.26608 0.71151 0.0
C386 C 0.50592 0.30246 0.79845 0.0
O387 O 0.52038 0.28278 0.80374 0.0
C388 C 0.44968 0.19615 0.8019 0.0
O389 O 0.48157 0.21193 0.78445 0.0
O390 O 0.42431 0.20137 0.79209 0.0
O391 O 0.47324 0.22066 0.71748 0.0
O392 O 0.41795 0.25554 0.71587 0.0
C393 C 0.44343 0.28043 0.69585 0.0
O394 O 0.47843 0.29012 0.70022 0.0
O395 O 0.48129 0.29351 0.77629 0.0
H396 H 0.12018 0.53941 0.10464 0.0
H397 H 0.1261 0.4699 0.03587 0.0
H398 H 0.17296 0.46804 0.07001 0.0
H399 H 0.2082 0.48229 0.12098 0.0
H400 H 0.20074 0.54913 0.19217 0.0
H401 H 0.15932 0.55701 0.15508 0.0
C402 C 0.13216 0.52421 0.0972 0.0
C403 C 0.12013 0.50486 0.06794 0.0
C404 C 0.15876 0.523 0.1172 0.0
C405 C 0.13536 0.48505 0.05827 0.0
C406 C 0.16202 0.48402 0.07775 0.0
C407 C 0.19793 0.49899 0.12832 0.0
C408 C 0.20729 0.51486 0.15942 0.0
C409 C 0.17343 0.50239 0.10747 0.0
C410 C 0.19406 0.53671 0.16832 0.0
C411 C 0.17008 0.5409 0.14726 0.0
H412 H 0.67275 0.06717 0.60636 0.0
H413 H 0.61177 0.12004 0.60448 0.0
H414 H 0.65136 0.15982 0.64807 0.0
H415 H 0.70195 0.17834 0.68764 0.0
H416 H 0.76381 0.12612 0.69002 0.0
H417 H 0.72534 0.08731 0.64544 0.0
C418 C 0.66847 0.08762 0.61548 0.0
C419 C 0.6395 0.09083 0.60241 0.0
C420 C 0.6913 0.11028 0.64072 0.0
C421 C 0.63402 0.1173 0.61422 0.0
C422 C 0.65653 0.13989 0.63918 0.0
C423 C 0.70711 0.15846 0.67853 0.0
C424 C 0.7357 0.15508 0.69247 0.0
C425 C 0.68503 0.13641 0.65282 0.0
C426 C 0.74203 0.12934 0.67992 0.0
C427 C 0.72 0.10711 0.65439 0.0
H428 H 0.58907 0.66881 0.10331 0.0
H429 H 0.53432 0.57056 0.1682 0.0
H430 H 0.53809 0.6055 0.21514 0.0
H431 H 0.55218 0.66252 0.23691 0.0
H432 H 0.60554 0.7613 0.17305 0.0
H433 H 0.60747 0.72772 0.12664 0.0
C434 C 0.57812 0.65515 0.12777 0.0
C435 C 0.5614 0.61706 0.13217 0.0
C436 C 0.58008 0.67545 0.1548 0.0
C437 C 0.54775 0.59983 0.16413 0.0
C438 C 0.54966 0.61976 0.19099 0.0
C439 C 0.56461 0.67688 0.21293 0.0
C440 C 0.57839 0.71426 0.20833 0.0
C441 C 0.56515 0.65738 0.18648 0.0
C442 C 0.59482 0.73253 0.17724 0.0
C443 C 0.59565 0.71326 0.15066 0.0
H444 H 0.95578 0.57967 0.6339 0.0
H445 H 0.86033 0.481 0.59734 0.0
H446 H 0.81933 0.48063 0.63997 0.0
H447 H 0.81036 0.50661 0.68828 0.0
H448 H 0.90421 0.60463 0.72699 0.0
H449 H 0.94596 0.60716 0.68277 0.0
C450 C 0.926 0.55816 0.63534 0.0
C451 C 0.91115 0.53059 0.61214 0.0
C452 C 0.90228 0.55799 0.66024 0.0
C453 C 0.87245 0.50295 0.61432 0.0
C454 C 0.84895 0.50256 0.63887 0.0
C455 C 0.83994 0.5287 0.68715 0.0
C456 C 0.85414 0.55528 0.7111 0.0
C457 C 0.86355 0.52978 0.66198 0.0
C458 C 0.8925 0.58384 0.70886 0.0
C459 C 0.91639 0.58516 0.68366 0.0
H460 H 0.34998 0.94329 0.11437 0.0
H461 H 0.43137 0.91433 0.10219 0.0
H462 H 0.40497 0.87246 0.15181 0.0
H463 H 0.35909 0.84436 0.1982 0.0
H464 H 0.27751 0.87306 0.21198 0.0
H465 H 0.30397 0.91536 0.16239 0.0
C466 C 0.36178 0.92777 0.12283 0.0
C467 C 0.39244 0.93165 0.10501 0.0
C468 C 0.34663 0.90403 0.15157 0.0
C469 C 0.40766 0.91148 0.11572 0.0
C470 C 0.39267 0.88772 0.14404 0.0
C471 C 0.34701 0.85986 0.19049 0.0
C472 C 0.31628 0.85548 0.20871 0.0
C473 C 0.36222 0.88383 0.16212 0.0
C474 C 0.30121 0.87598 0.1984 0.0
C475 C 0.31625 0.90005 0.17001 0.0
H476 H 0.39616 0.36342 0.59385 0.0
H477 H 0.51619 0.42221 0.57181 0.0
H478 H 0.5215 0.38125 0.60988 0.0
H479 H 0.49448 0.33209 0.65193 0.0
H480 H 0.37616 0.2739 0.6798 0.0
H481 H 0.36798 0.31151 0.63747 0.0
C482 C 0.4235 0.36752 0.59781 0.0
C483 C 0.45581 0.39687 0.58045 0.0
C484 C 0.42683 0.34407 0.62094 0.0
C485 C 0.49074 0.40061 0.58495 0.0
C486 C 0.49398 0.37706 0.60686 0.0
C487 C 0.46668 0.3273 0.64893 0.0
C488 C 0.43605 0.30033 0.66926 0.0
C489 C 0.4625 0.34928 0.62539 0.0
C490 C 0.4003 0.29457 0.66454 0.0
C491 C 0.39568 0.31613 0.64038 0.0
H492 H 0.61888 0.95875 0.4152 0.0
H493 H 0.51463 0.87391 0.46555 0.0
H494 H 0.50866 0.82998 0.42724 0.0
H495 H 0.52998 0.81612 0.37782 0.0
H496 H 0.63227 0.89946 0.32446 0.0
H497 H 0.64211 0.94358 0.36566 0.0
C498 C 0.59496 0.93063 0.41781 0.0
C499 C 0.56743 0.91972 0.44352 0.0
C500 C 0.59119 0.90531 0.39509 0.0
C501 C 0.53674 0.88305 0.44663 0.0
C502 C 0.53303 0.85788 0.42447 0.0
C503 C 0.55458 0.84393 0.37508 0.0
C504 C 0.58012 0.85466 0.34789 0.0
C505 C 0.5597 0.86883 0.39841 0.0
C506 C 0.61215 0.89058 0.34516 0.0
C507 C 0.61765 0.91577 0.36862 0.0
H508 H 0.61953 0.55062 0.91239 0.0
H509 H 0.68238 0.58784 1.00218 0.0
H510 H 0.7404 0.60512 0.97142 0.0
H511 H 0.77196 0.6046 0.9197 0.0
H512 H 0.71 0.57289 0.82887 0.0
H513 H 0.65337 0.55968 0.85896 0.0
C514 C 0.64609 0.56307 0.92505 0.0
C515 C 0.64653 0.567 0.95969 0.0
C516 C 0.67953 0.57411 0.90695 0.0
C517 C 0.68121 0.58368 0.9757 0.0
C518 C 0.71437 0.5937 0.95809 0.0
C519 C 0.74628 0.59562 0.90637 0.0
C520 C 0.74527 0.58958 0.87211 0.0
C521 C 0.71374 0.58832 0.92381 0.0
C522 C 0.71178 0.57805 0.85516 0.0
C523 C 0.67918 0.5701 0.87244 0.0
H524 H 0.06897 0.59516 0.40232 0.0
H525 H 0.08146 0.65285 0.49048 0.0
H526 H 0.12568 0.71133 0.45982 0.0
H527 H 0.16452 0.74513 0.40872 0.0
H528 H 0.14379 0.6872 0.31886 0.0
H529 H 0.09779 0.62986 0.34904 0.0
C530 C 0.0807 0.6206 0.41461 0.0
C531 C 0.07261 0.61974 0.44874 0.0
C532 C 0.10445 0.65402 0.39647 0.0
C533 C 0.08793 0.6529 0.46434 0.0
C534 C 0.11301 0.68626 0.4468 0.0
C535 C 0.14935 0.72008 0.39561 0.0
C536 C 0.15848 0.72039 0.3618 0.0
C537 C 0.12205 0.68709 0.41296 0.0
C538 C 0.13798 0.68779 0.345 0.0
C539 C 0.11169 0.65484 0.36228 0.0
H540 H 0.4867 0.13816 0.93062 0.0
H541 H 0.38052 0.03923 0.91085 0.0
H542 H 0.37023 0.07186 0.8654 0.0
H543 H 0.39478 0.12775 0.82774 0.0
H544 H 0.50157 0.22524 0.8486 0.0
H545 H 0.50746 0.19435 0.89789 0.0
C546 C 0.46073 0.12379 0.91712 0.0
C547 C 0.43459 0.08619 0.92416 0.0
C548 C 0.45502 0.14262 0.89112 0.0
C549 C 0.40153 0.06806 0.90565 0.0
C550 C 0.39549 0.08675 0.87974 0.0
C551 C 0.4187 0.14229 0.8437 0.0
C552 C 0.4477 0.17862 0.83472 0.0
C553 C 0.42249 0.12392 0.87172 0.0
C554 C 0.47895 0.1972 0.85512 0.0
C555 C 0.48245 0.17953 0.88321 0.0
H556 H 0.38571 0.45717 0.40138 0.0
H557 H 0.39085 0.54851 0.44362 0.0
H558 H 0.35299 0.55037 0.39839 0.0
H559 H 0.31827 0.52562 0.34617 0.0
H560 H 0.31428 0.43399 0.30551 0.0
H561 H 0.35251 0.43333 0.35019 0.0
C562 C 0.37883 0.4777 0.40061 0.0
C563 C 0.39128 0.50275 0.42572 0.0
C564 C 0.35742 0.47876 0.37455 0.0
C565 C 0.38135 0.52867 0.42471 0.0
C566 C 0.35995 0.52994 0.3987 0.0
C567 C 0.32614 0.50583 0.34704 0.0
C568 C 0.31338 0.47988 0.32259 0.0
C569 C 0.3479 0.50515 0.37334 0.0
C570 C 0.32347 0.45412 0.32414 0.0
C571 C 0.34535 0.45364 0.34971 0.0
H572 H 0.92468 0.35625 0.94425 0.0
H573 H 0.94917 0.443 0.87149 0.0
H574 H 0.91175 0.39805 0.83075 0.0
H575 H 0.86811 0.33377 0.81679 0.0
H576 H 0.84047 0.24727 0.89088 0.0
H577 H 0.88291 0.29225 0.92977 0.0
C578 C 0.92178 0.36542 0.91954 0.0
C579 C 0.9399 0.4032 0.9112 0.0
C580 C 0.89956 0.33932 0.89628 0.0
C581 C 0.93615 0.41429 0.8787 0.0
C582 C 0.91447 0.38851 0.85534 0.0
C583 C 0.87197 0.32473 0.84119 0.0
C584 C 0.85119 0.28708 0.85078 0.0
C585 C 0.89567 0.35091 0.86392 0.0
C586 C 0.85611 0.276 0.88278 0.0
C587 C 0.88027 0.30175 0.90513 0.0
H588 H 0.93986 0.50355 0.92689 0.0
H589 H 0.91756 0.56782 0.98874 0.0
H590 H 0.87071 0.56296 0.94958 0.0
H591 H 0.83937 0.54389 0.89568 0.0
H592 H 0.8639 0.48154 0.83289 0.0
H593 H 0.90595 0.4816 0.87452 0.0
C594 C 0.92435 0.51612 0.93182 0.0
C595 C 0.93177 0.53579 0.96063 0.0
C596 C 0.89785 0.51351 0.90901 0.0
C597 C 0.9119 0.55226 0.96683 0.0
C598 C 0.88525 0.54954 0.9444 0.0
C599 C 0.85335 0.52973 0.89137 0.0
C600 C 0.8484 0.51273 0.86109 0.0
C601 C 0.87832 0.53063 0.91516 0.0
C602 C 0.86717 0.49489 0.85587 0.0
C603 C 0.8914 0.49504 0.87963 0.0
H604 H 0.38587 0.91641 0.46394 0.0
H605 H 0.49434 0.95354 0.41881 0.0
H606 H 0.46346 0.91447 0.37217 0.0
H607 H 0.40534 0.87066 0.34334 0.0
H608 H 0.29694 0.82911 0.39124 0.0
H609 H 0.32789 0.86771 0.43804 0.0
C610 C 0.40274 0.91523 0.44434 0.0
C611 C 0.44247 0.93764 0.44515 0.0
C612 C 0.38472 0.89168 0.41808 0.0
C613 C 0.46379 0.93661 0.41886 0.0
C614 C 0.44611 0.91416 0.39221 0.0
C615 C 0.38848 0.86969 0.36422 0.0
C616 C 0.34874 0.84694 0.36358 0.0
C617 C 0.40656 0.89167 0.39143 0.0
C618 C 0.32748 0.84604 0.39102 0.0
C619 C 0.3452 0.86838 0.41776 0.0
H620 H 0.53848 0.40186 0.91981 0.0
H621 H 0.44993 0.40899 0.87513 0.0
H622 H 0.44809 0.37348 0.82914 0.0
H623 H 0.46922 0.33767 0.80305 0.0
H624 H 0.55654 0.32898 0.84855 0.0
H625 H 0.56135 0.36793 0.89252 0.0
C626 C 0.51859 0.39545 0.90013 0.0
C627 C 0.49419 0.40794 0.90117 0.0
C628 C 0.51755 0.37482 0.87376 0.0
C629 C 0.4692 0.4 0.87498 0.0
C630 C 0.46804 0.37955 0.84868 0.0
C631 C 0.4897 0.34465 0.8223 0.0
C632 C 0.51244 0.33023 0.82239 0.0
C633 C 0.49186 0.36656 0.84793 0.0
C634 C 0.53866 0.33958 0.84774 0.0
C635 C 0.5413 0.36176 0.87305 0.0
H636 H 0.04916 0.45903 0.36273 0.0
H637 H 0.11125 0.44384 0.43979 0.0
H638 H 0.14881 0.43825 0.39746 0.0
H639 H 0.16709 0.44144 0.33796 0.0
H640 H 0.10281 0.45425 0.26163 0.0
H641 H 0.0627 0.45566 0.30413 0.0
C642 C 0.07028 0.45372 0.37055 0.0
C643 C 0.07734 0.45251 0.40483 0.0
C644 C 0.09162 0.44992 0.34597 0.0
C645 C 0.1055 0.44603 0.41382 0.0
C646 C 0.12695 0.44245 0.38951 0.0
C647 C 0.14383 0.44376 0.33061 0.0
C648 C 0.13834 0.44791 0.2964 0.0
C649 C 0.12073 0.44493 0.35541 0.0
C650 C 0.10806 0.45115 0.2876 0.0
C651 C 0.08505 0.45213 0.31198 0.0
H652 H 0.62264 0.06248 0.93417 0.0
H653 H 0.56289 0.11636 0.93519 0.0
H654 H 0.60469 0.15987 0.88983 0.0
H655 H 0.65822 0.18186 0.84881 0.0
H656 H 0.71528 0.12487 0.84789 0.0
H657 H 0.6747 0.08353 0.8936 0.0
C658 C 0.61867 0.0836 0.92419 0.0
C659 C 0.58953 0.08599 0.93751 0.0
C660 C 0.64241 0.10804 0.89795 0.0
C661 C 0.58505 0.11391 0.92498 0.0
C662 C 0.60892 0.13872 0.89908 0.0
C663 C 0.66173 0.16044 0.85869 0.0
C664 C 0.68986 0.15664 0.84463 0.0
C665 C 0.63771 0.13601 0.88517 0.0
C666 C 0.69386 0.12854 0.85782 0.0
C667 C 0.67065 0.10474 0.88416 0.0
H668 H 0.58305 0.66037 0.44935 0.0
H669 H 0.46428 0.58183 0.46772 0.0
H670 H 0.44955 0.61139 0.42258 0.0
H671 H 0.47083 0.65846 0.37608 0.0
H672 H 0.59038 0.73586 0.35737 0.0
H673 H 0.6043 0.70749 0.40359 0.0
C674 C 0.554 0.6493 0.44298 0.0
C675 C 0.52478 0.61804 0.46094 0.0
C676 C 0.54586 0.66625 0.41674 0.0
C677 C 0.48721 0.6053 0.45368 0.0
C678 C 0.47882 0.62222 0.42788 0.0
C679 C 0.49991 0.66914 0.38211 0.0
C680 C 0.52941 0.69925 0.36295 0.0
C681 C 0.50794 0.65249 0.40887 0.0
C682 C 0.56695 0.71267 0.37138 0.0
C683 C 0.57506 0.69649 0.39795 0.0
H684 H 0.55338 0.15499 0.60611 0.0
H685 H 0.43704 0.06731 0.62552 0.0
H686 H 0.42876 0.10514 0.66274 0.0
H687 H 0.45415 0.16308 0.68942 0.0
H688 H 0.57041 0.25116 0.67022 0.0
H689 H 0.57896 0.21328 0.6331 0.0
C690 C 0.5261 0.14426 0.61823 0.0
C691 C 0.49584 0.10828 0.61288 0.0
C692 C 0.5215 0.16624 0.63966 0.0
C693 C 0.46091 0.09468 0.62935 0.0
C694 C 0.4561 0.11639 0.65055 0.0
C695 C 0.48143 0.17413 0.67715 0.0
C696 C 0.51158 0.21009 0.68266 0.0
C697 C 0.48616 0.15219 0.65588 0.0
C698 C 0.54669 0.22367 0.66654 0.0
C699 C 0.5516 0.202 0.64525 0.0
H700 H 0.43107 0.49721 0.12036 0.0
H701 H 0.35748 0.42384 0.04755 0.0
H702 H 0.30209 0.407 0.08259 0.0
H703 H 0.27447 0.41466 0.13339 0.0
H704 H 0.34856 0.48924 0.20569 0.0
H705 H 0.40348 0.50379 0.1718 0.0
C706 C 0.40283 0.4775 0.11233 0.0
C707 C 0.39822 0.46197 0.08135 0.0
C708 C 0.37114 0.46811 0.13261 0.0
C709 C 0.36159 0.43632 0.07119 0.0
C710 C 0.32998 0.42668 0.09126 0.0
C711 C 0.3026 0.43381 0.14194 0.0
C712 C 0.3071 0.45075 0.17223 0.0
C713 C 0.33434 0.44255 0.12198 0.0
C714 C 0.34399 0.47575 0.18257 0.0
C715 C 0.37556 0.48419 0.16313 0.0
H716 H 0.88456 0.34924 0.57315 0.0
H717 H 0.93035 0.45205 0.61836 0.0
H718 H 0.89032 0.4203 0.66863 0.0
H719 H 0.84613 0.36209 0.70165 0.0
H720 H 0.80067 0.2599 0.65518 0.0
H721 H 0.83524 0.29238 0.60314 0.0
C722 C 0.88491 0.36471 0.59363 0.0
C723 C 0.90995 0.40289 0.59196 0.0
C724 C 0.86158 0.34628 0.62221 0.0
C725 C 0.91112 0.42258 0.61913 0.0
C726 C 0.8882 0.40443 0.64781 0.0
C727 C 0.84283 0.34719 0.6797 0.0
C728 C 0.82049 0.30873 0.68198 0.0
C729 C 0.86368 0.36615 0.6499 0.0
C730 C 0.8173 0.28956 0.65374 0.0
C731 C 0.83738 0.30809 0.6241 0.0
H732 H 0.47585 0.86345 0.10425 0.0
H733 H 0.56227 0.95857 0.15317 0.0
H734 H 0.56509 0.9193 0.19628 0.0
H735 H 0.54611 0.8581 0.21882 0.0
H736 H 0.46604 0.76334 0.16646 0.0
H737 H 0.45796 0.80221 0.12603 0.0
C738 C 0.49575 0.87582 0.124 0.0
C739 C 0.51866 0.91434 0.12508 0.0
C740 C 0.49832 0.85298 0.14836 0.0
C741 C 0.54357 0.92928 0.15162 0.0
C742 C 0.5455 0.90675 0.17634 0.0
C743 C 0.52635 0.8459 0.19891 0.0
C744 C 0.50618 0.80779 0.19597 0.0
C745 C 0.5232 0.8686 0.1749 0.0
C746 C 0.48154 0.79253 0.16946 0.0
C747 C 0.47711 0.8148 0.14624 0.0
H748 H 0.59698 0.50585 0.66667 0.0
H749 H 0.68057 0.59363 0.59928 0.0
H750 H 0.73019 0.6031 0.63638 0.0
H751 H 0.75032 0.58641 0.68736 0.0
H752 H 0.66813 0.49618 0.75307 0.0
H753 H 0.61761 0.48671 0.71624 0.0
C754 C 0.62602 0.52671 0.65958 0.0
C755 C 0.63456 0.54903 0.62987 0.0
C756 C 0.65481 0.53129 0.68056 0.0
C757 C 0.67261 0.57646 0.62208 0.0
C758 C 0.70123 0.58166 0.64316 0.0
C759 C 0.72136 0.56452 0.69365 0.0
C760 C 0.713 0.54211 0.72307 0.0
C761 C 0.69266 0.55923 0.67237 0.0
C762 C 0.67537 0.51369 0.73056 0.0
C763 C 0.64649 0.50846 0.70959 0.0
H764 H 0.11189 0.58544 0.16093 0.0
H765 H 0.15005 0.6832 0.09822 0.0
H766 H 0.19304 0.72049 0.14098 0.0
H767 H 0.21743 0.72616 0.19777 0.0
H768 H 0.17616 0.62892 0.26194 0.0
H769 H 0.13723 0.59097 0.21724 0.0
C770 C 0.12932 0.61493 0.15663 0.0
C771 C 0.1273 0.63122 0.1261 0.0
C772 C 0.15378 0.63649 0.18171 0.0
C773 C 0.15098 0.66956 0.12106 0.0
C774 C 0.17559 0.69106 0.14568 0.0
C775 C 0.20048 0.69662 0.20179 0.0
C776 C 0.20008 0.68048 0.23323 0.0
C777 C 0.17707 0.67492 0.17624 0.0
C778 C 0.17725 0.64214 0.23804 0.0
C779 C 0.15476 0.62039 0.2125 0.0
loop_
_geom_bond_atom_site_label_1
_geom_bond_atom_site_label_2
_geom_bond_distance
_geom_bond_site_symmetry_2
_ccdc_geom_bond_type
C0 C1 1.443 . S
C0 N4 1.376 1_556 S
C0 C38 1.389 . S
C1 C0 1.443 . S
C1 C2 1.340 1_556 S
C1 H41 0.951 . S
C2 C1 1.340 1_554 S
C2 C3 1.439 . S
C2 H42 0.950 . S
C3 C2 1.439 . S
C3 N4 1.374 . S
C3 C37 1.395 . S
N4 C0 1.376 1_554 S
N4 C3 1.374 . S
N4 Co5 2.008 1_655 S
Co5 N4 2.008 1_455 S
Co5 N6 1.995 1_455 S
Co5 N11 2.008 . S
Co5 N16 1.995 1_554 S
Co5 N21 2.282 . S
Co5 N27 2.282 1_454 S
N6 Co5 1.995 1_655 S
N6 C7 1.376 . S
N6 C10 1.383 1_655 S
C7 N6 1.376 . S
C7 C8 1.446 . S
C7 C37 1.391 . S
C8 C7 1.446 . S
C8 C9 1.317 1_655 S
C8 H43 0.949 . S
C9 C8 1.317 1_455 S
C9 C10 1.444 . S
C9 H44 0.964 . S
C10 N6 1.383 1_455 S
C10 C9 1.444 . S
C10 C39 1.392 . S
N11 Co5 2.008 . S
N11 C12 1.376 . S
N11 C15 1.374 1_554 S
C12 N11 1.376 . S
C12 C13 1.443 . S
C12 C39 1.389 . S
C13 C12 1.443 . S
C13 C14 1.340 . S
C13 H45 0.951 . S
C14 C13 1.340 . S
C14 C15 1.439 1_554 S
C14 H46 0.950 1_554 S
C15 N11 1.374 1_556 S
C15 C14 1.439 1_556 S
C15 C40 1.395 . S
N16 Co5 1.995 1_556 S
N16 C17 1.376 . S
N16 C20 1.383 . S
C17 N16 1.376 . S
C17 C18 1.446 . S
C17 C40 1.391 . S
C18 C17 1.446 . S
C18 C19 1.339 . S
C18 H47 0.949 . S
C19 C18 1.339 . S
C19 C20 1.439 . S
C19 H48 0.950 . S
C20 N16 1.383 . S
C20 C19 1.439 . S
C20 C38 1.392 1_455 S
N21 Co5 2.282 . S
N21 C24 1.332 . S
N21 C26 1.332 . S
C22 C23 1.386 . S
C22 C25 1.388 . S
C23 C22 1.386 . S
C23 C24 1.382 . S
C23 H49 0.950 . S
C24 N21 1.332 . S
C24 C23 1.382 . S
C24 H35 0.952 . S
C25 C22 1.388 . S
C25 C26 1.382 . S
C25 H50 0.950 . S
C26 N21 1.332 . S
C26 C25 1.382 . S
C26 H36 0.948 . S
N27 Co5 2.282 1_656 S
N27 C31 1.332 . S
N27 C32 1.332 1_655 S
C28 C29 1.388 . S
C28 C32 1.382 1_655 S
C28 H51 0.950 . S
C29 C28 1.388 . S
C29 C30 1.386 . S
C30 C29 1.386 . S
C30 C31 1.382 . S
C30 H52 0.950 . S
C31 N27 1.332 . S
C31 C30 1.382 . S
C31 H33 0.952 1_556 S
C32 N27 1.332 1_455 S
C32 C28 1.382 1_455 S
C32 H34 0.948 . S
H33 C31 0.952 1_554 S
H34 C32 0.948 . S
H35 C24 0.952 . S
H36 C26 0.948 . S
C37 C3 1.395 . S
C37 C7 1.391 . S
C38 C0 1.389 . S
C38 C20 1.392 1_655 S
C39 C10 1.392 . S
C39 C12 1.389 . S
C40 C15 1.395 . S
C40 C17 1.391 . S
H41 C1 0.951 . S
H42 C2 0.950 . S
H43 C8 0.949 . S
H44 C9 0.964 . S
H45 C13 0.951 . S
H46 C14 0.950 1_556 S
H47 C18 0.949 . S
H48 C19 0.950 . S
H49 C23 0.950 . S
H50 C25 0.950 . S
H51 C28 0.950 . S
H52 C30 0.950 . S
C53 C54 1.443 . S
C53 N57 1.376 . S
C53 C91 1.389 . S
C54 C53 1.443 . S
C54 C55 1.340 1_545 S
C54 H94 0.951 . S
C55 C54 1.340 1_565 S
C55 C56 1.439 . S
C55 H95 0.950 . S
C56 C55 1.439 . S
C56 N57 1.374 1_565 S
C56 C90 1.395 . S
N57 C53 1.376 . S
N57 C56 1.374 1_545 S
N57 Co58 2.008 . S
Co58 N57 2.008 . S
Co58 N59 1.995 1_545 S
Co58 N64 2.008 . S
Co58 N69 1.995 . S
Co58 N74 2.282 1_545 S
Co58 N80 2.282 . S
N59 Co58 1.995 1_565 S
N59 C60 1.376 . S
N59 C63 1.383 . S
C60 N59 1.376 . S
C60 C61 1.446 . S
C60 C90 1.391 . S
C61 C60 1.446 . S
C61 C62 1.339 . S
C61 H96 0.949 . S
C62 C61 1.339 . S
C62 C63 1.439 . S
C62 H97 0.950 . S
C63 N59 1.383 . S
C63 C62 1.439 . S
C63 C92 1.392 . S
N64 Co58 2.008 . S
N64 C65 1.376 . S
N64 C68 1.374 . S
C65 N64 1.376 . S
C65 C66 1.443 . S
C65 C92 1.389 1_545 S
C66 C65 1.443 . S
C66 C67 1.340 . S
C66 H98 0.951 . S
C67 C66 1.340 . S
C67 C68 1.439 . S
C67 H99 0.950 . S
C68 N64 1.374 . S
C68 C67 1.439 . S
C68 C93 1.395 . S
N69 Co58 1.995 . S
N69 C70 1.376 . S
N69 C73 1.383 . S
C70 N69 1.376 . S
C70 C71 1.446 . S
C70 C93 1.391 . S
C71 C70 1.446 . S
C71 C72 1.339 . S
C71 H100 0.949 . S
C72 C71 1.339 . S
C72 C73 1.439 . S
C72 H101 0.950 . S
C73 N69 1.383 . S
C73 C72 1.439 . S
C73 C91 1.392 . S
N74 Co58 2.282 1_565 S
N74 C77 1.332 1_565 S
N74 C79 1.332 . S
C75 C76 1.386 . S
C75 C78 1.388 . S
C76 C75 1.386 . S
C76 C77 1.382 1_565 S
C76 H102 0.950 1_565 S
C77 N74 1.332 1_545 S
C77 C76 1.382 1_545 S
C77 H88 0.952 . S
C78 C75 1.388 . S
C78 C79 1.382 . S
C78 H103 0.950 . S
C79 N74 1.332 . S
C79 C78 1.382 . S
C79 H89 0.948 . S
N80 Co58 2.282 . S
N80 C84 1.332 . S
N80 C85 1.332 . S
C81 C82 1.388 . S
C81 C85 1.382 . S
C81 H104 0.950 . S
C82 C81 1.388 . S
C82 C83 1.386 . S
C83 C82 1.386 . S
C83 C84 1.382 . S
C83 H105 0.950 . S
C84 N80 1.332 . S
C84 C83 1.382 . S
C84 H86 0.952 1_545 S
C85 N80 1.332 . S
C85 C81 1.382 . S
C85 H87 0.948 . S
H86 C84 0.952 1_565 S
H87 C85 0.948 . S
H88 C77 0.952 . S
H89 C79 0.948 . S
C90 C56 1.395 . S
C90 C60 1.391 . S
C91 C53 1.389 . S
C91 C73 1.392 . S
C92 C63 1.392 . S
C92 C65 1.389 1_565 S
C93 C68 1.395 . S
C93 C70 1.391 . S
H94 C54 0.951 . S
H95 C55 0.950 . S
H96 C61 0.949 . S
H97 C62 0.950 . S
H98 C66 0.951 . S
H99 C67 0.950 . S
H100 C71 0.949 . S
H101 C72 0.950 . S
H102 C76 0.950 1_545 S
H103 C78 0.950 . S
H104 C81 0.950 . S
H105 C83 0.950 . S
C106 C107 1.443 . S
C106 N110 1.376 . S
C106 C144 1.389 . S
C107 C106 1.443 . S
C107 C108 1.340 . S
C107 H147 0.951 . S
C108 C107 1.340 . S
C108 C109 1.439 . S
C108 H148 0.950 . S
C109 C108 1.439 . S
C109 N110 1.374 . S
C109 C143 1.395 . S
N110 C106 1.376 . S
N110 C109 1.374 . S
N110 Co111 2.008 1_556 S
Co111 N110 2.008 1_554 S
Co111 N112 1.995 . S
Co111 N117 2.008 . S
Co111 N122 1.995 . S
Co111 N127 2.282 . S
Co111 N133 2.282 1_554 S
N112 Co111 1.995 . S
N112 C113 1.376 1_554 S
N112 C116 1.383 . S
C113 N112 1.376 1_556 S
C113 C114 1.446 . S
C113 C143 1.391 . S
C114 C113 1.446 . S
C114 C115 1.339 1_556 S
C114 H149 0.949 . S
C115 C114 1.339 1_554 S
C115 C116 1.439 . S
C115 H150 0.950 . S
C116 N112 1.383 . S
C116 C115 1.439 . S
C116 C145 1.392 . S
N117 Co111 2.008 . S
N117 C118 1.376 . S
N117 C121 1.374 . S
C118 N117 1.376 . S
C118 C119 1.443 . S
C118 C145 1.389 . S
C119 C118 1.443 . S
C119 C120 1.340 . S
C119 H151 0.951 . S
C120 C119 1.340 . S
C120 C121 1.439 . S
C120 H152 0.950 . S
C121 N117 1.374 . S
C121 C120 1.439 . S
C121 C146 1.395 . S
N122 Co111 1.995 . S
N122 C123 1.376 . S
N122 C126 1.383 1_554 S
C123 N122 1.376 . S
C123 C124 1.446 . S
C123 C146 1.391 . S
C124 C123 1.446 . S
C124 C125 1.331 1_554 S
C124 H153 0.949 . S
C125 C124 1.331 1_556 S
C125 C126 1.441 . S
C125 H154 0.954 . S
C126 N122 1.383 1_556 S
C126 C125 1.441 . S
C126 C144 1.392 . S
N127 Co111 2.282 . S
N127 C130 1.332 . S
N127 C132 1.332 . S
C128 C129 1.386 . S
C128 C131 1.388 . S
C129 C128 1.386 . S
C129 C130 1.382 . S
C129 H155 0.950 . S
C130 N127 1.332 . S
C130 C129 1.382 . S
C130 H141 0.952 . S
C131 C128 1.388 . S
C131 C132 1.382 . S
C131 H156 0.950 . S
C132 N127 1.332 . S
C132 C131 1.382 . S
C132 H142 0.948 . S
N133 Co111 2.282 1_556 S
N133 C137 1.332 . S
N133 C138 1.332 . S
C134 C135 1.388 . S
C134 C138 1.382 . S
C134 H157 0.950 . S
C135 C134 1.388 . S
C135 C136 1.386 . S
C136 C135 1.386 . S
C136 C137 1.382 . S
C136 H158 0.950 . S
C137 N133 1.332 . S
C137 C136 1.382 . S
C137 H139 0.952 . S
C138 N133 1.332 . S
C138 C134 1.382 . S
C138 H140 0.948 . S
H139 C137 0.952 . S
H140 C138 0.948 . S
H141 C130 0.952 . S
H142 C132 0.948 . S
C143 C109 1.395 . S
C143 C113 1.391 . S
C144 C106 1.389 . S
C144 C126 1.392 . S
C145 C116 1.392 . S
C145 C118 1.389 . S
C146 C121 1.395 . S
C146 C123 1.391 . S
H147 C107 0.951 . S
H148 C108 0.950 . S
H149 C114 0.949 . S
H150 C115 0.950 . S
H151 C119 0.951 . S
H152 C120 0.950 . S
H153 C124 0.949 . S
H154 C125 0.954 . S
H155 C129 0.950 . S
H156 C131 0.950 . S
H157 C134 0.950 . S
H158 C136 0.950 . S
C159 C160 1.443 . S
C159 N163 1.376 . S
C159 C197 1.389 . S
C160 C159 1.443 . S
C160 C161 1.340 . S
C160 H200 0.951 . S
C161 C160 1.340 . S
C161 C162 1.439 . S
C161 H201 0.950 . S
C162 C161 1.439 . S
C162 N163 1.374 . S
C162 C196 1.395 . S
N163 C159 1.376 . S
N163 C162 1.374 . S
N163 Co164 2.008 1_655 S
Co164 N163 2.008 1_455 S
Co164 N165 1.995 1_455 S
Co164 N170 2.008 . S
Co164 N175 1.995 . S
Co164 N180 2.282 . S
Co164 N186 2.282 1_455 S
N165 Co164 1.995 1_655 S
N165 C166 1.376 . S
N165 C169 1.383 1_655 S
C166 N165 1.376 . S
C166 C167 1.446 . S
C166 C196 1.391 . S
C167 C166 1.446 . S
C167 C168 1.339 . S
C167 H202 0.949 . S
C168 C167 1.339 . S
C168 C169 1.439 1_655 S
C168 H203 0.950 1_655 S
C169 N165 1.383 1_455 S
C169 C168 1.439 1_455 S
C169 C198 1.392 . S
N170 Co164 2.008 . S
N170 C171 1.376 . S
N170 C174 1.374 . S
C171 N170 1.376 . S
C171 C172 1.443 . S
C171 C198 1.389 . S
C172 C171 1.443 . S
C172 C173 1.340 . S
C172 H204 0.951 . S
C173 C172 1.340 . S
C173 C174 1.439 . S
C173 H205 0.950 . S
C174 N170 1.374 . S
C174 C173 1.439 . S
C174 C199 1.395 . S
N175 Co164 1.995 . S
N175 C176 1.376 . S
N175 C179 1.383 1_455 S
C176 N175 1.376 . S
C176 C177 1.446 . S
C176 C199 1.391 . S
C177 C176 1.446 . S
C177 C178 1.339 . S
C177 H206 0.949 . S
C178 C177 1.339 . S
C178 C179 1.439 1_455 S
C178 H207 0.950 1_455 S
C179 N175 1.383 1_655 S
C179 C178 1.439 1_655 S
C179 C197 1.392 . S
N180 Co164 2.282 . S
N180 C183 1.332 . S
N180 C185 1.332 . S
C181 C182 1.386 . S
C181 C184 1.388 . S
C182 C181 1.386 . S
C182 C183 1.382 . S
C182 H208 0.950 . S
C183 N180 1.332 . S
C183 C182 1.382 . S
C183 H194 0.952 . S
C184 C181 1.388 . S
C184 C185 1.382 . S
C184 H209 0.950 . S
C185 N180 1.332 . S
C185 C184 1.382 . S
C185 H195 0.948 1_455 S
N186 Co164 2.282 1_655 S
N186 C190 1.332 . S
N186 C191 1.332 . S
C187 C188 1.388 . S
C187 C191 1.382 . S
C187 H210 0.950 . S
C188 C187 1.388 . S
C188 C189 1.386 . S
C189 C188 1.386 . S
C189 C190 1.382 . S
C189 H211 0.950 . S
C190 N186 1.332 . S
C190 C189 1.382 . S
C190 H192 0.952 . S
C191 N186 1.332 . S
C191 C187 1.382 . S
C191 H193 0.948 1_655 S
H192 C190 0.952 . S
H193 C191 0.948 1_455 S
H194 C183 0.952 . S
H195 C185 0.948 1_655 S
C196 C162 1.395 . S
C196 C166 1.391 . S
C197 C159 1.389 . S
C197 C179 1.392 . S
C198 C169 1.392 . S
C198 C171 1.389 . S
C199 C174 1.395 . S
C199 C176 1.391 . S
H200 C160 0.951 . S
H201 C161 0.950 . S
H202 C167 0.949 . S
H203 C168 0.950 1_455 S
H204 C172 0.951 . S
H205 C173 0.950 . S
H206 C177 0.949 . S
H207 C178 0.950 1_655 S
H208 C182 0.950 . S
H209 C184 0.950 . S
H210 C187 0.950 . S
H211 C189 0.950 . S
C212 C213 1.443 1_565 S
C212 N216 1.376 1_565 S
C212 C250 1.389 . S
C213 C212 1.443 1_545 S
C213 C214 1.340 . S
C213 H253 0.951 1_545 S
C214 C213 1.340 . S
C214 C215 1.439 . S
C214 H254 0.950 . S
C215 C214 1.439 . S
C215 N216 1.374 . S
C215 C249 1.395 . S
N216 C212 1.376 1_545 S
N216 C215 1.374 . S
N216 Co217 2.008 . S
Co217 N216 2.008 . S
Co217 N218 1.995 . S
Co217 N223 2.008 1_544 S
Co217 N228 1.995 1_545 S
Co217 N233 2.282 1_554 S
Co217 N239 2.282 1_545 S
N218 Co217 1.995 . S
N218 C219 1.376 . S
N218 C222 1.383 1_554 S
C219 N218 1.376 . S
C219 C220 1.446 . S
C219 C249 1.391 . S
C220 C219 1.446 . S
C220 C221 1.339 1_554 S
C220 H255 0.949 . S
C221 C220 1.339 1_556 S
C221 C222 1.439 . S
C221 H256 0.950 . S
C222 N218 1.383 1_556 S
C222 C221 1.439 . S
C222 C251 1.392 . S
N223 Co217 2.008 1_566 S
N223 C224 1.376 1_565 S
N223 C227 1.374 . S
C224 N223 1.376 1_545 S
C224 C225 1.443 1_545 S
C224 C251 1.389 . S
C225 C224 1.443 1_565 S
C225 C226 1.340 . S
C225 H257 0.951 1_565 S
C226 C225 1.340 . S
C226 C227 1.439 . S
C226 H258 0.950 . S
C227 N223 1.374 . S
C227 C226 1.439 . S
C227 C252 1.395 . S
N228 Co217 1.995 1_565 S
N228 C229 1.376 1_554 S
N228 C232 1.383 . S
C229 N228 1.376 1_556 S
C229 C230 1.446 1_556 S
C229 C252 1.391 . S
C230 C229 1.446 1_554 S
C230 C231 1.339 . S
C230 H259 0.949 1_554 S
C231 C230 1.339 . S
C231 C232 1.439 . S
C231 H260 0.950 . S
C232 N228 1.383 . S
C232 C231 1.439 . S
C232 C250 1.392 . S
N233 Co217 2.282 1_556 S
N233 C236 1.332 . S
N233 C238 1.332 . S
C234 C235 1.386 . S
C234 C237 1.388 . S
C235 C234 1.386 . S
C235 C236 1.382 . S
C235 H261 0.950 . S
C236 N233 1.332 . S
C236 C235 1.382 . S
C236 H247 0.952 1_545 S
C237 C234 1.388 . S
C237 C238 1.382 . S
C237 H262 0.950 . S
C238 N233 1.332 . S
C238 C237 1.382 . S
C238 H248 0.948 . S
N239 Co217 2.282 1_565 S
N239 C243 1.332 . S
N239 C244 1.332 . S
C240 C241 1.388 . S
C240 C244 1.382 . S
C240 H263 0.950 . S
C241 C240 1.388 . S
C241 C242 1.386 . S
C242 C241 1.386 . S
C242 C243 1.382 . S
C242 H264 0.950 . S
C243 N239 1.332 . S
C243 C242 1.382 . S
C243 H245 0.952 1_565 S
C244 N239 1.332 . S
C244 C240 1.382 . S
C244 H246 0.948 . S
H245 C243 0.952 1_545 S
H246 C244 0.948 . S
H247 C236 0.952 1_565 S
H248 C238 0.948 . S
C249 C215 1.395 . S
C249 C219 1.391 . S
C250 C212 1.389 . S
C250 C232 1.392 . S
C251 C222 1.392 . S
C251 C224 1.389 . S
C252 C227 1.395 . S
C252 C229 1.391 . S
H253 C213 0.951 1_565 S
H254 C214 0.950 . S
H255 C220 0.949 . S
H256 C221 0.950 . S
H257 C225 0.951 1_545 S
H258 C226 0.950 . S
H259 C230 0.949 1_556 S
H260 C231 0.950 . S
H261 C235 0.950 . S
H262 C237 0.950 . S
H263 C240 0.950 . S
H264 C242 0.950 . S
C265 C266 1.443 . S
C265 N269 1.376 . S
C265 C303 1.389 . S
C266 C265 1.443 . S
C266 C267 1.340 . S
C266 H306 0.951 . S
C267 C266 1.340 . S
C267 C268 1.439 . S
C267 H307 0.950 . S
C268 C267 1.439 . S
C268 N269 1.374 . S
C268 C302 1.395 . S
N269 C265 1.376 . S
N269 C268 1.374 . S
N269 Co270 2.008 . S
Co270 N269 2.008 . S
Co270 N271 1.995 . S
Co270 N276 2.008 . S
Co270 N281 1.995 . S
Co270 N286 2.282 . S
Co270 N292 2.282 . S
N271 Co270 1.995 . S
N271 C272 1.376 . S
N271 C275 1.383 . S
C272 N271 1.376 . S
C272 C273 1.446 . S
C272 C302 1.391 . S
C273 C272 1.446 . S
C273 C274 1.339 . S
C273 H308 0.949 . S
C274 C273 1.339 . S
C274 C275 1.439 . S
C274 H309 0.950 . S
C275 N271 1.383 . S
C275 C274 1.439 . S
C275 C304 1.392 . S
N276 Co270 2.008 . S
N276 C277 1.376 . S
N276 C280 1.374 . S
C277 N276 1.376 . S
C277 C278 1.443 . S
C277 C304 1.389 . S
C278 C277 1.443 . S
C278 C279 1.340 . S
C278 H310 0.951 . S
C279 C278 1.340 . S
C279 C280 1.439 . S
C279 H311 0.950 . S
C280 N276 1.374 . S
C280 C279 1.439 . S
C280 C305 1.395 . S
N281 Co270 1.995 . S
N281 C282 1.376 . S
N281 C285 1.383 . S
C282 N281 1.376 . S
C282 C283 1.446 . S
C282 C305 1.391 . S
C283 C282 1.446 . S
C283 C284 1.339 . S
C283 H312 0.949 . S
C284 C283 1.339 . S
C284 C285 1.439 . S
C284 H313 0.950 . S
C285 N281 1.383 . S
C285 C284 1.439 . S
C285 C303 1.392 . S
N286 Co270 2.282 . S
N286 C289 1.332 . S
N286 C291 1.332 . S
C287 C288 1.386 . S
C287 C290 1.388 . S
C288 C287 1.386 . S
C288 C289 1.382 . S
C288 H314 0.950 . S
C289 N286 1.332 . S
C289 C288 1.382 . S
C289 H300 0.952 . S
C290 C287 1.388 . S
C290 C291 1.382 . S
C290 H315 0.950 . S
C291 N286 1.332 . S
C291 C290 1.382 . S
C291 H301 0.948 . S
N292 Co270 2.282 . S
N292 C296 1.332 . S
N292 C297 1.332 . S
C293 C294 1.388 . S
C293 C297 1.382 . S
C293 H316 0.950 . S
C294 C293 1.388 . S
C294 C295 1.386 . S
C295 C294 1.386 . S
C295 C296 1.382 . S
C295 H317 0.950 . S
C296 N292 1.332 . S
C296 C295 1.382 . S
C296 H298 0.952 . S
C297 N292 1.332 . S
C297 C293 1.382 . S
C297 H299 0.948 . S
H298 C296 0.952 . S
H299 C297 0.948 . S
H300 C289 0.952 . S
H301 C291 0.948 . S
C302 C268 1.395 . S
C302 C272 1.391 . S
C303 C265 1.389 . S
C303 C285 1.392 . S
C304 C275 1.392 . S
C304 C277 1.389 . S
C305 C280 1.395 . S
C305 C282 1.391 . S
H306 C266 0.951 . S
H307 C267 0.950 . S
H308 C273 0.949 . S
H309 C274 0.950 . S
H310 C278 0.951 . S
H311 C279 0.950 . S
H312 C283 0.949 . S
H313 C284 0.950 . S
H314 C288 0.950 . S
H315 C290 0.950 . S
H316 C293 0.950 . S
H317 C295 0.950 . S
Mg318 O325 2.141 . S
Mg318 O326 2.048 . S
Mg318 O327 2.048 . S
Mg318 O330 2.141 . S
C319 O320 1.313 . S
C319 O326 1.195 . S
O320 C319 1.313 . S
C321 O322 1.245 . S
C321 O330 1.289 . S
O322 C321 1.245 . S
C323 O324 1.245 . S
C323 O325 1.289 . S
O324 C323 1.245 . S
O325 Mg318 2.141 . S
O325 C323 1.289 . S
O326 Mg318 2.048 . S
O326 C319 1.195 . S
O327 Mg318 2.048 . S
O327 C328 1.195 . S
C328 O327 1.195 . S
C328 O329 1.313 . S
O329 C328 1.313 . S
O330 Mg318 2.141 . S
O330 C321 1.289 . S
Mg331 O338 2.141 . S
Mg331 O339 2.048 . S
Mg331 O340 2.048 . S
Mg331 O343 2.141 . S
C332 O333 1.313 . S
C332 O339 1.195 . S
O333 C332 1.313 . S
C334 O335 1.245 . S
C334 O343 1.289 . S
O335 C334 1.245 . S
C336 O337 1.245 . S
C336 O338 1.289 . S
O337 C336 1.245 . S
O338 Mg331 2.141 . S
O338 C336 1.289 . S
O339 Mg331 2.048 . S
O339 C332 1.195 . S
O340 Mg331 2.048 . S
O340 C341 1.195 . S
C341 O340 1.195 . S
C341 O342 1.313 . S
O342 C341 1.313 . S
O343 Mg331 2.141 . S
O343 C334 1.289 . S
Mg344 O351 2.141 . S
Mg344 O352 2.048 . S
Mg344 O353 2.048 . S
Mg344 O356 2.141 . S
C345 O346 1.313 . S
C345 O352 1.195 . S
O346 C345 1.313 . S
C347 O348 1.245 . S
C347 O356 1.289 . S
O348 C347 1.245 . S
C349 O350 1.245 . S
C349 O351 1.289 . S
O350 C349 1.245 . S
O351 Mg344 2.141 . S
O351 C349 1.289 . S
O352 Mg344 2.048 . S
O352 C345 1.195 . S
O353 Mg344 2.048 . S
O353 C354 1.195 . S
C354 O353 1.195 . S
C354 O355 1.313 . S
O355 C354 1.313 . S
O356 Mg344 2.141 . S
O356 C347 1.289 . S
Mg357 O364 2.141 . S
Mg357 O365 2.048 . S
Mg357 O366 2.048 . S
Mg357 O369 2.141 . S
C358 O359 1.313 . S
C358 O365 1.195 . S
O359 C358 1.313 . S
C360 O361 1.245 . S
C360 O369 1.289 . S
O361 C360 1.245 . S
C362 O363 1.245 . S
C362 O364 1.289 . S
O363 C362 1.245 . S
O364 Mg357 2.141 . S
O364 C362 1.289 . S
O365 Mg357 2.048 . S
O365 C358 1.195 . S
O366 Mg357 2.048 . S
O366 C367 1.195 . S
C367 O366 1.195 . S
C367 O368 1.313 . S
O368 C367 1.313 . S
O369 Mg357 2.141 . S
O369 C360 1.289 . S
Mg370 O377 2.141 . S
Mg370 O378 2.048 . S
Mg370 O379 2.048 . S
Mg370 O382 2.141 . S
C371 O372 1.313 . S
C371 O378 1.195 . S
O372 C371 1.313 . S
C373 O374 1.245 . S
C373 O382 1.289 . S
O374 C373 1.245 . S
C375 O376 1.245 . S
C375 O377 1.289 . S
O376 C375 1.245 . S
O377 Mg370 2.141 . S
O377 C375 1.289 . S
O378 Mg370 2.048 . S
O378 C371 1.195 . S
O379 Mg370 2.048 . S
O379 C380 1.195 . S
C380 O379 1.195 . S
C380 O381 1.313 . S
O381 C380 1.313 . S
O382 Mg370 2.141 . S
O382 C373 1.289 . S
Mg383 O390 2.141 . S
Mg383 O391 2.048 . S
Mg383 O392 2.048 . S
Mg383 O395 2.141 . S
C384 O385 1.313 . S
C384 O391 1.195 . S
O385 C384 1.313 . S
C386 O387 1.245 . S
C386 O395 1.289 . S
O387 C386 1.245 . S
C388 O389 1.245 . S
C388 O390 1.289 . S
O389 C388 1.245 . S
O390 Mg383 2.141 . S
O390 C388 1.289 . S
O391 Mg383 2.048 . S
O391 C384 1.195 . S
O392 Mg383 2.048 . S
O392 C393 1.195 . S
C393 O392 1.195 . S
C393 O394 1.313 . S
O394 C393 1.313 . S
O395 Mg383 2.141 . S
O395 C386 1.289 . S
H396 C402 0.930 . S
H397 C405 0.930 . S
H398 C406 0.930 . S
H399 C407 0.930 . S
H400 C410 0.930 . S
H401 C411 0.930 . S
C402 H396 0.930 . S
C402 C403 1.355 . S
C402 C404 1.415 . S
C403 C402 1.355 . S
C403 C405 1.419 . S
C404 C402 1.415 . S
C404 C409 1.425 . S
C404 C411 1.409 . S
C405 H397 0.930 . S
C405 C403 1.419 . S
C405 C406 1.362 . S
C406 H398 0.930 . S
C406 C405 1.362 . S
C406 C409 1.409 . S
C407 H399 0.930 . S
C407 C408 1.355 . S
C407 C409 1.415 . S
C408 C407 1.355 . S
C408 C410 1.419 . S
C409 C404 1.425 . S
C409 C406 1.409 . S
C409 C407 1.415 . S
C410 H400 0.930 . S
C410 C408 1.419 . S
C410 C411 1.362 . S
C411 H401 0.930 . S
C411 C404 1.409 . S
C411 C410 1.362 . S
H412 C418 0.930 . S
H413 C421 0.930 . S
H414 C422 0.930 . S
H415 C423 0.930 . S
H416 C426 0.930 . S
H417 C427 0.930 . S
C418 H412 0.930 . S
C418 C419 1.355 . S
C418 C420 1.415 . S
C419 C418 1.355 . S
C419 C421 1.419 . S
C420 C418 1.415 . S
C420 C425 1.425 . S
C420 C427 1.409 . S
C421 H413 0.930 . S
C421 C419 1.419 . S
C421 C422 1.362 . S
C422 H414 0.930 . S
C422 C421 1.362 . S
C422 C425 1.409 . S
C423 H415 0.930 . S
C423 C424 1.355 . S
C423 C425 1.415 . S
C424 C423 1.355 . S
C424 C426 1.419 . S
C425 C420 1.425 . S
C425 C422 1.409 . S
C425 C423 1.415 . S
C426 H416 0.930 . S
C426 C424 1.419 . S
C426 C427 1.362 . S
C427 H417 0.930 . S
C427 C420 1.409 . S
C427 C426 1.362 . S
H428 C434 0.930 . S
H429 C437 0.930 . S
H430 C438 0.930 . S
H431 C439 0.930 . S
H432 C442 0.930 . S
H433 C443 0.930 . S
C434 H428 0.930 . S
C434 C435 1.355 . S
C434 C436 1.415 . S
C435 C434 1.355 . S
C435 C437 1.419 . S
C436 C434 1.415 . S
C436 C441 1.425 . S
C436 C443 1.409 . S
C437 H429 0.930 . S
C437 C435 1.419 . S
C437 C438 1.362 . S
C438 H430 0.930 . S
C438 C437 1.362 . S
C438 C441 1.409 . S
C439 H431 0.930 . S
C439 C440 1.355 . S
C439 C441 1.415 . S
C440 C439 1.355 . S
C440 C442 1.419 . S
C441 C436 1.425 . S
C441 C438 1.409 . S
C441 C439 1.415 . S
C442 H432 0.930 . S
C442 C440 1.419 . S
C442 C443 1.362 . S
C443 H433 0.930 . S
C443 C436 1.409 . S
C443 C442 1.362 . S
H444 C450 0.930 . S
H445 C453 0.930 . S
H446 C454 0.930 . S
H447 C455 0.930 . S
H448 C458 0.930 . S
H449 C459 0.930 . S
C450 H444 0.930 . S
C450 C451 1.355 . S
C450 C452 1.415 . S
C451 C450 1.355 . S
C451 C453 1.419 . S
C452 C450 1.415 . S
C452 C457 1.425 . S
C452 C459 1.409 . S
C453 H445 0.930 . S
C453 C451 1.419 . S
C453 C454 1.362 . S
C454 H446 0.930 . S
C454 C453 1.362 . S
C454 C457 1.409 . S
C455 H447 0.930 . S
C455 C456 1.355 . S
C455 C457 1.415 . S
C456 C455 1.355 . S
C456 C458 1.419 . S
C457 C452 1.425 . S
C457 C454 1.409 . S
C457 C455 1.415 . S
C458 H448 0.930 . S
C458 C456 1.419 . S
C458 C459 1.362 . S
C459 H449 0.930 . S
C459 C452 1.409 . S
C459 C458 1.362 . S
H460 C466 0.930 . S
H461 C469 0.930 . S
H462 C470 0.930 . S
H463 C471 0.930 . S
H464 C474 0.930 . S
H465 C475 0.930 . S
C466 H460 0.930 . S
C466 C467 1.355 . S
C466 C468 1.415 . S
C467 C466 1.355 . S
C467 C469 1.419 . S
C468 C466 1.415 . S
C468 C473 1.425 . S
C468 C475 1.409 . S
C469 H461 0.930 . S
C469 C467 1.419 . S
C469 C470 1.362 . S
C470 H462 0.930 . S
C470 C469 1.362 . S
C470 C473 1.409 . S
C471 H463 0.930 . S
C471 C472 1.355 . S
C471 C473 1.415 . S
C472 C471 1.355 . S
C472 C474 1.419 . S
C473 C468 1.425 . S
C473 C470 1.409 . S
C473 C471 1.415 . S
C474 H464 0.930 . S
C474 C472 1.419 . S
C474 C475 1.362 . S
C475 H465 0.930 . S
C475 C468 1.409 . S
C475 C474 1.362 . S
H476 C482 0.930 . S
H477 C485 0.930 . S
H478 C486 0.930 . S
H479 C487 0.930 . S
H480 C490 0.930 . S
H481 C491 0.930 . S
C482 H476 0.930 . S
C482 C483 1.355 . S
C482 C484 1.415 . S
C483 C482 1.355 . S
C483 C485 1.419 . S
C484 C482 1.415 . S
C484 C489 1.425 . S
C484 C491 1.409 . S
C485 H477 0.930 . S
C485 C483 1.419 . S
C485 C486 1.362 . S
C486 H478 0.930 . S
C486 C485 1.362 . S
C486 C489 1.409 . S
C487 H479 0.930 . S
C487 C488 1.355 . S
C487 C489 1.415 . S
C488 C487 1.355 . S
C488 C490 1.419 . S
C489 C484 1.425 . S
C489 C486 1.409 . S
C489 C487 1.415 . S
C490 H480 0.930 . S
C490 C488 1.419 . S
C490 C491 1.362 . S
C491 H481 0.930 . S
C491 C484 1.409 . S
C491 C490 1.362 . S
H492 C498 0.930 . S
H493 C501 0.930 . S
H494 C502 0.930 . S
H495 C503 0.930 . S
H496 C506 0.930 . S
H497 C507 0.930 . S
C498 H492 0.930 . S
C498 C499 1.355 . S
C498 C500 1.415 . S
C499 C498 1.355 . S
C499 C501 1.419 . S
C500 C498 1.415 . S
C500 C505 1.425 . S
C500 C507 1.409 . S
C501 H493 0.930 . S
C501 C499 1.419 . S
C501 C502 1.362 . S
C502 H494 0.930 . S
C502 C501 1.362 . S
C502 C505 1.409 . S
C503 H495 0.930 . S
C503 C504 1.355 . S
C503 C505 1.415 . S
C504 C503 1.355 . S
C504 C506 1.419 . S
C505 C500 1.425 . S
C505 C502 1.409 . S
C505 C503 1.415 . S
C506 H496 0.930 . S
C506 C504 1.419 . S
C506 C507 1.362 . S
C507 H497 0.930 . S
C507 C500 1.409 . S
C507 C506 1.362 . S
H508 C514 0.930 . S
H509 C517 0.930 . S
H510 C518 0.930 . S
H511 C519 0.930 . S
H512 C522 0.930 . S
H513 C523 0.930 . S
C514 H508 0.930 . S
C514 C515 1.355 . S
C514 C516 1.415 . S
C515 C514 1.355 . S
C515 C517 1.419 . S
C516 C514 1.415 . S
C516 C521 1.425 . S
C516 C523 1.409 . S
C517 H509 0.930 . S
C517 C515 1.419 . S
C517 C518 1.362 . S
C518 H510 0.930 . S
C518 C517 1.362 . S
C518 C521 1.409 . S
C519 H511 0.930 . S
C519 C520 1.355 . S
C519 C521 1.415 . S
C520 C519 1.355 . S
C520 C522 1.419 . S
C521 C516 1.425 . S
C521 C518 1.409 . S
C521 C519 1.415 . S
C522 H512 0.930 . S
C522 C520 1.419 . S
C522 C523 1.362 . S
C523 H513 0.930 . S
C523 C516 1.409 . S
C523 C522 1.362 . S
H524 C530 0.930 . S
H525 C533 0.930 . S
H526 C534 0.930 . S
H527 C535 0.930 . S
H528 C538 0.930 . S
H529 C539 0.930 . S
C530 H524 0.930 . S
C530 C531 1.355 . S
C530 C532 1.415 . S
C531 C530 1.355 . S
C531 C533 1.419 . S
C532 C530 1.415 . S
C532 C537 1.425 . S
C532 C539 1.409 . S
C533 H525 0.930 . S
C533 C531 1.419 . S
C533 C534 1.362 . S
C534 H526 0.930 . S
C534 C533 1.362 . S
C534 C537 1.409 . S
C535 H527 0.930 . S
C535 C536 1.355 . S
C535 C537 1.415 . S
C536 C535 1.355 . S
C536 C538 1.419 . S
C537 C532 1.425 . S
C537 C534 1.409 . S
C537 C535 1.415 . S
C538 H528 0.930 . S
C538 C536 1.419 . S
C538 C539 1.362 . S
C539 H529 0.930 . S
C539 C532 1.409 . S
C539 C538 1.362 . S
H540 C546 0.930 . S
H541 C549 0.930 . S
H542 C550 0.930 . S
H543 C551 0.930 . S
H544 C554 0.930 . S
H545 C555 0.930 . S
C546 H540 0.930 . S
C546 C547 1.355 . S
C546 C548 1.415 . S
C547 C546 1.355 . S
C547 C549 1.419 . S
C548 C546 1.415 . S
C548 C553 1.425 . S
C548 C555 1.409 . S
C549 H541 0.930 . S
C549 C547 1.419 . S
C549 C550 1.362 . S
C550 H542 0.930 . S
C550 C549 1.362 . S
C550 C553 1.409 . S
C551 H543 0.930 . S
C551 C552 1.355 . S
C551 C553 1.415 . S
C552 C551 1.355 . S
C552 C554 1.419 . S
C553 C548 1.425 . S
C553 C550 1.409 . S
C553 C551 1.415 . S
C554 H544 0.930 . S
C554 C552 1.419 . S
C554 C555 1.362 . S
C555 H545 0.930 . S
C555 C548 1.409 . S
C555 C554 1.362 . S
H556 C562 0.930 . S
H557 C565 0.930 . S
H558 C566 0.930 . S
H559 C567 0.930 . S
H560 C570 0.930 . S
H561 C571 0.930 . S
C562 H556 0.930 . S
C562 C563 1.355 . S
C562 C564 1.415 . S
C563 C562 1.355 . S
C563 C565 1.419 . S
C564 C562 1.415 . S
C564 C569 1.425 . S
C564 C571 1.409 . S
C565 H557 0.930 . S
C565 C563 1.419 . S
C565 C566 1.362 . S
C566 H558 0.930 . S
C566 C565 1.362 . S
C566 C569 1.409 . S
C567 H559 0.930 . S
C567 C568 1.355 . S
C567 C569 1.415 . S
C568 C567 1.355 . S
C568 C570 1.419 . S
C569 C564 1.425 . S
C569 C566 1.409 . S
C569 C567 1.415 . S
C570 H560 0.930 . S
C570 C568 1.419 . S
C570 C571 1.362 . S
C571 H561 0.930 . S
C571 C564 1.409 . S
C571 C570 1.362 . S
H572 C578 0.930 . S
H573 C581 0.930 . S
H574 C582 0.930 . S
H575 C583 0.930 . S
H576 C586 0.930 . S
H577 C587 0.930 . S
C578 H572 0.930 . S
C578 C579 1.355 . S
C578 C580 1.415 . S
C579 C578 1.355 . S
C579 C581 1.419 . S
C580 C578 1.415 . S
C580 C585 1.425 . S
C580 C587 1.409 . S
C581 H573 0.930 . S
C581 C579 1.419 . S
C581 C582 1.362 . S
C582 H574 0.930 . S
C582 C581 1.362 . S
C582 C585 1.409 . S
C583 H575 0.930 . S
C583 C584 1.355 . S
C583 C585 1.415 . S
C584 C583 1.355 . S
C584 C586 1.419 . S
C585 C580 1.425 . S
C585 C582 1.409 . S
C585 C583 1.415 . S
C586 H576 0.930 . S
C586 C584 1.419 . S
C586 C587 1.362 . S
C587 H577 0.930 . S
C587 C580 1.409 . S
C587 C586 1.362 . S
H588 C594 0.930 . S
H589 C597 0.930 . S
H590 C598 0.930 . S
H591 C599 0.930 . S
H592 C602 0.930 . S
H593 C603 0.930 . S
C594 H588 0.930 . S
C594 C595 1.355 . S
C594 C596 1.415 . S
C595 C594 1.355 . S
C595 C597 1.419 . S
C596 C594 1.415 . S
C596 C601 1.425 . S
C596 C603 1.409 . S
C597 H589 0.930 . S
C597 C595 1.419 . S
C597 C598 1.362 . S
C598 H590 0.930 . S
C598 C597 1.362 . S
C598 C601 1.409 . S
C599 H591 0.930 . S
C599 C600 1.355 . S
C599 C601 1.415 . S
C600 C599 1.355 . S
C600 C602 1.419 . S
C601 C596 1.425 . S
C601 C598 1.409 . S
C601 C599 1.415 . S
C602 H592 0.930 . S
C602 C600 1.419 . S
C602 C603 1.362 . S
C603 H593 0.930 . S
C603 C596 1.409 . S
C603 C602 1.362 . S
H604 C610 0.930 . S
H605 C613 0.930 . S
H606 C614 0.930 . S
H607 C615 0.930 . S
H608 C618 0.930 . S
H609 C619 0.930 . S
C610 H604 0.930 . S
C610 C611 1.355 . S
C610 C612 1.415 . S
C611 C610 1.355 . S
C611 C613 1.419 . S
C612 C610 1.415 . S
C612 C617 1.425 . S
C612 C619 1.409 . S
C613 H605 0.930 . S
C613 C611 1.419 . S
C613 C614 1.362 . S
C614 H606 0.930 . S
C614 C613 1.362 . S
C614 C617 1.409 . S
C615 H607 0.930 . S
C615 C616 1.355 . S
C615 C617 1.415 . S
C616 C615 1.355 . S
C616 C618 1.419 . S
C617 C612 1.425 . S
C617 C614 1.409 . S
C617 C615 1.415 . S
C618 H608 0.930 . S
C618 C616 1.419 . S
C618 C619 1.362 . S
C619 H609 0.930 . S
C619 C612 1.409 . S
C619 C618 1.362 . S
H620 C626 0.930 . S
H621 C629 0.930 . S
H622 C630 0.930 . S
H623 C631 0.930 . S
H624 C634 0.930 . S
H625 C635 0.930 . S
C626 H620 0.930 . S
C626 C627 1.355 . S
C626 C628 1.415 . S
C627 C626 1.355 . S
C627 C629 1.419 . S
C628 C626 1.415 . S
C628 C633 1.425 . S
C628 C635 1.409 . S
C629 H621 0.930 . S
C629 C627 1.419 . S
C629 C630 1.362 . S
C630 H622 0.930 . S
C630 C629 1.362 . S
C630 C633 1.409 . S
C631 H623 0.930 . S
C631 C632 1.355 . S
C631 C633 1.415 . S
C632 C631 1.355 . S
C632 C634 1.419 . S
C633 C628 1.425 . S
C633 C630 1.409 . S
C633 C631 1.415 . S
C634 H624 0.930 . S
C634 C632 1.419 . S
C634 C635 1.362 . S
C635 H625 0.930 . S
C635 C628 1.409 . S
C635 C634 1.362 . S
H636 C642 0.930 . S
H637 C645 0.930 . S
H638 C646 0.930 . S
H639 C647 0.930 . S
H640 C650 0.930 . S
H641 C651 0.930 . S
C642 H636 0.930 . S
C642 C643 1.355 . S
C642 C644 1.415 . S
C643 C642 1.355 . S
C643 C645 1.419 . S
C644 C642 1.415 . S
C644 C649 1.425 . S
C644 C651 1.409 . S
C645 H637 0.930 . S
C645 C643 1.419 . S
C645 C646 1.362 . S
C646 H638 0.930 . S
C646 C645 1.362 . S
C646 C649 1.409 . S
C647 H639 0.930 . S
C647 C648 1.355 . S
C647 C649 1.415 . S
C648 C647 1.355 . S
C648 C650 1.419 . S
C649 C644 1.425 . S
C649 C646 1.409 . S
C649 C647 1.415 . S
C650 H640 0.930 . S
C650 C648 1.419 . S
C650 C651 1.362 . S
C651 H641 0.930 . S
C651 C644 1.409 . S
C651 C650 1.362 . S
H652 C658 0.930 . S
H653 C661 0.930 . S
H654 C662 0.930 . S
H655 C663 0.930 . S
H656 C666 0.930 . S
H657 C667 0.930 . S
C658 H652 0.930 . S
C658 C659 1.355 . S
C658 C660 1.415 . S
C659 C658 1.355 . S
C659 C661 1.419 . S
C660 C658 1.415 . S
C660 C665 1.425 . S
C660 C667 1.409 . S
C661 H653 0.930 . S
C661 C659 1.419 . S
C661 C662 1.362 . S
C662 H654 0.930 . S
C662 C661 1.362 . S
C662 C665 1.409 . S
C663 H655 0.930 . S
C663 C664 1.355 . S
C663 C665 1.415 . S
C664 C663 1.355 . S
C664 C666 1.419 . S
C665 C660 1.425 . S
C665 C662 1.409 . S
C665 C663 1.415 . S
C666 H656 0.930 . S
C666 C664 1.419 . S
C666 C667 1.362 . S
C667 H657 0.930 . S
C667 C660 1.409 . S
C667 C666 1.362 . S
H668 C674 0.930 . S
H669 C677 0.930 . S
H670 C678 0.930 . S
H671 C679 0.930 . S
H672 C682 0.930 . S
H673 C683 0.930 . S
C674 H668 0.930 . S
C674 C675 1.355 . S
C674 C676 1.415 . S
C675 C674 1.355 . S
C675 C677 1.419 . S
C676 C674 1.415 . S
C676 C681 1.425 . S
C676 C683 1.409 . S
C677 H669 0.930 . S
C677 C675 1.419 . S
C677 C678 1.362 . S
C678 H670 0.930 . S
C678 C677 1.362 . S
C678 C681 1.409 . S
C679 H671 0.930 . S
C679 C680 1.355 . S
C679 C681 1.415 . S
C680 C679 1.355 . S
C680 C682 1.419 . S
C681 C676 1.425 . S
C681 C678 1.409 . S
C681 C679 1.415 . S
C682 H672 0.930 . S
C682 C680 1.419 . S
C682 C683 1.362 . S
C683 H673 0.930 . S
C683 C676 1.409 . S
C683 C682 1.362 . S
H684 C690 0.930 . S
H685 C693 0.930 . S
H686 C694 0.930 . S
H687 C695 0.930 . S
H688 C698 0.930 . S
H689 C699 0.930 . S
C690 H684 0.930 . S
C690 C691 1.355 . S
C690 C692 1.415 . S
C691 C690 1.355 . S
C691 C693 1.419 . S
C692 C690 1.415 . S
C692 C697 1.425 . S
C692 C699 1.409 . S
C693 H685 0.930 . S
C693 C691 1.419 . S
C693 C694 1.362 . S
C694 H686 0.930 . S
C694 C693 1.362 . S
C694 C697 1.409 . S
C695 H687 0.930 . S
C695 C696 1.355 . S
C695 C697 1.415 . S
C696 C695 1.355 . S
C696 C698 1.419 . S
C697 C692 1.425 . S
C697 C694 1.409 . S
C697 C695 1.415 . S
C698 H688 0.930 . S
C698 C696 1.419 . S
C698 C699 1.362 . S
C699 H689 0.930 . S
C699 C692 1.409 . S
C699 C698 1.362 . S
H700 C706 0.930 . S
H701 C709 0.930 . S
H702 C710 0.930 . S
H703 C711 0.930 . S
H704 C714 0.930 . S
H705 C715 0.930 . S
C706 H700 0.930 . S
C706 C707 1.355 . S
C706 C708 1.415 . S
C707 C706 1.355 . S
C707 C709 1.419 . S
C708 C706 1.415 . S
C708 C713 1.425 . S
C708 C715 1.409 . S
C709 H701 0.930 . S
C709 C707 1.419 . S
C709 C710 1.362 . S
C710 H702 0.930 . S
C710 C709 1.362 . S
C710 C713 1.409 . S
C711 H703 0.930 . S
C711 C712 1.355 . S
C711 C713 1.415 . S
C712 C711 1.355 . S
C712 C714 1.419 . S
C713 C708 1.425 . S
C713 C710 1.409 . S
C713 C711 1.415 . S
C714 H704 0.930 . S
C714 C712 1.419 . S
C714 C715 1.362 . S
C715 H705 0.930 . S
C715 C708 1.409 . S
C715 C714 1.362 . S
H716 C722 0.930 . S
H717 C725 0.930 . S
H718 C726 0.930 . S
H719 C727 0.930 . S
H720 C730 0.930 . S
H721 C731 0.930 . S
C722 H716 0.930 . S
C722 C723 1.355 . S
C722 C724 1.415 . S
C723 C722 1.355 . S
C723 C725 1.419 . S
C724 C722 1.415 . S
C724 C729 1.425 . S
C724 C731 1.409 . S
C725 H717 0.930 . S
C725 C723 1.419 . S
C725 C726 1.362 . S
C726 H718 0.930 . S
C726 C725 1.362 . S
C726 C729 1.409 . S
C727 H719 0.930 . S
C727 C728 1.355 . S
C727 C729 1.415 . S
C728 C727 1.355 . S
C728 C730 1.419 . S
C729 C724 1.425 . S
C729 C726 1.409 . S
C729 C727 1.415 . S
C730 H720 0.930 . S
C730 C728 1.419 . S
C730 C731 1.362 . S
C731 H721 0.930 . S
C731 C724 1.409 . S
C731 C730 1.362 . S
H732 C738 0.930 . S
H733 C741 0.930 . S
H734 C742 0.930 . S
H735 C743 0.930 . S
H736 C746 0.930 . S
H737 C747 0.930 . S
C738 H732 0.930 . S
C738 C739 1.355 . S
C738 C740 1.415 . S
C739 C738 1.355 . S
C739 C741 1.419 . S
C740 C738 1.415 . S
C740 C745 1.425 . S
C740 C747 1.409 . S
C741 H733 0.930 . S
C741 C739 1.419 . S
C741 C742 1.362 . S
C742 H734 0.930 . S
C742 C741 1.362 . S
C742 C745 1.409 . S
C743 H735 0.930 . S
C743 C744 1.355 . S
C743 C745 1.415 . S
C744 C743 1.355 . S
C744 C746 1.419 . S
C745 C740 1.425 . S
C745 C742 1.409 . S
C745 C743 1.415 . S
C746 H736 0.930 . S
C746 C744 1.419 . S
C746 C747 1.362 . S
C747 H737 0.930 . S
C747 C740 1.409 . S
C747 C746 1.362 . S
H748 C754 0.930 . S
H749 C757 0.930 . S
H750 C758 0.930 . S
H751 C759 0.930 . S
H752 C762 0.930 . S
H753 C763 0.930 . S
C754 H748 0.930 . S
C754 C755 1.355 . S
C754 C756 1.415 . S
C755 C754 1.355 . S
C755 C757 1.419 . S
C756 C754 1.415 . S
C756 C761 1.425 . S
C756 C763 1.409 . S
C757 H749 0.930 . S
C757 C755 1.419 . S
C757 C758 1.362 . S
C758 H750 0.930 . S
C758 C757 1.362 . S
C758 C761 1.409 . S
C759 H751 0.930 . S
C759 C760 1.355 . S
C759 C761 1.415 . S
C760 C759 1.355 . S
C760 C762 1.419 . S
C761 C756 1.425 . S
C761 C758 1.409 . S
C761 C759 1.415 . S
C762 H752 0.930 . S
C762 C760 1.419 . S
C762 C763 1.362 . S
C763 H753 0.930 . S
C763 C756 1.409 . S
C763 C762 1.362 . S
H764 C770 0.930 . S
H765 C773 0.930 . S
H766 C774 0.930 . S
H767 C775 0.930 . S
H768 C778 0.930 . S
H769 C779 0.930 . S
C770 H764 0.930 . S
C770 C771 1.355 . S
C770 C772 1.415 . S
C771 C770 1.355 . S
C771 C773 1.419 . S
C772 C770 1.415 . S
C772 C777 1.425 . S
C772 C779 1.409 . S
C773 H765 0.930 . S
C773 C771 1.419 . S
C773 C774 1.362 . S
C774 H766 0.930 . S
C774 C773 1.362 . S
C774 C777 1.409 . S
C775 H767 0.930 . S
C775 C776 1.355 . S
C775 C777 1.415 . S
C776 C775 1.355 . S
C776 C778 1.419 . S
C777 C772 1.425 . S
C777 C774 1.409 . S
C777 C775 1.415 . S
C778 H768 0.930 . S
C778 C776 1.419 . S
C778 C779 1.362 . S
C779 H769 0.930 . S
C779 C772 1.409 . S
C779 C778 1.362 . S
C403 C39 1.716 . S
C408 C319 1.712 . S
C419 C91 1.743 . S
C424 C332 1.739 . S
C440 C354 1.495 . S
C435 C128 1.575 . S
C456 C367 1.525 . S
C451 C188 1.557 . S
C472 C380 1.648 . S
C467 C250 1.686 . S
C488 C393 1.635 . S
C483 C304 1.699 . S
C499 C75 1.587 . S
C504 C349 1.540 . S
C515 C144 1.705 . S
C520 C362 1.641 . S
C536 C375 1.622 . S
C531 C198 1.668 . S
C552 C388 1.402 . S
C547 C234 1.503 . S
C563 C294 1.535 . S
C568 C321 1.537 . S
C584 C334 1.557 . S
C579 C29 1.559 . S
C600 C360 1.600 . S
C595 C38 1.705 . S
C611 C92 1.738 . S
C616 C373 1.688 . S
C632 C386 1.463 . S
C627 C135 1.569 . S
C643 C181 1.538 . S
C648 C323 1.543 . S
C659 C251 1.674 . S
C664 C336 1.669 . S
C675 C303 1.688 . S
C680 C347 1.632 . S
C691 C82 1.580 . S
C696 C384 1.496 . S
C712 C328 1.697 . S
C707 C145 1.704 . S
C723 C197 1.685 . S
C728 C341 1.682 . S
C739 C241 1.513 . S
C744 C345 1.427 . S
C755 C287 1.544 . S
C760 C358 1.506 . S
C771 C22 1.556 . S
C776 C371 1.489 . S
