# Generated by pormake.
# Topology ocu, (6,8)-cn, num edge types: 1
# Building blocks:
#     Node 0, Type 0, BuildingBlock: VOLQOD_clean_sbu_1, # of connection points: 6
#     Node 1, Type 0, BuildingBlock: VOLQOD_clean_sbu_1, # of connection points: 6
#     Node 2, Type 0, BuildingBlock: VOLQOD_clean_sbu_1, # of connection points: 6
#     Node 3, Type 0, BuildingBlock: VOLQOD_clean_sbu_1, # of connection points: 6
#     Node 4, Type 0, BuildingBlock: VOLQOD_clean_sbu_1, # of connection points: 6
#     Node 5, Type 0, BuildingBlock: VOLQOD_clean_sbu_1, # of connection points: 6
#     Node 6, Type 0, BuildingBlock: VOLQOD_clean_sbu_1, # of connection points: 6
#     Node 7, Type 0, BuildingBlock: VOLQOD_clean_sbu_1, # of connection points: 6
#     Node 8, Type 1, BuildingBlock: GIZVER_clean_sbu_0, # of connection points: 8
#     Node 9, Type 1, BuildingBlock: GIZVER_clean_sbu_0, # of connection points: 8
#     Node 10, Type 1, BuildingBlock: GIZVER_clean_sbu_0, # of connection points: 8
#     Node 11, Type 1, BuildingBlock: GIZVER_clean_sbu_0, # of connection points: 8
#     Node 12, Type 1, BuildingBlock: GIZVER_clean_sbu_0, # of connection points: 8
#     Node 13, Type 1, BuildingBlock: GIZVER_clean_sbu_0, # of connection points: 8
#     Edge 14, Type (0, 1), None
#     Edge 15, Type (0, 1), None
#     Edge 16, Type (0, 1), None
#     Edge 17, Type (0, 1), None
#     Edge 18, Type (0, 1), None
#     Edge 19, Type (0, 1), None
#     Edge 20, Type (0, 1), None
#     Edge 21, Type (0, 1), None
#     Edge 22, Type (0, 1), None
#     Edge 23, Type (0, 1), None
#     Edge 24, Type (0, 1), None
#     Edge 25, Type (0, 1), None
#     Edge 26, Type (0, 1), None
#     Edge 27, Type (0, 1), None
#     Edge 28, Type (0, 1), None
#     Edge 29, Type (0, 1), None
#     Edge 30, Type (0, 1), None
#     Edge 31, Type (0, 1), None
#     Edge 32, Type (0, 1), None
#     Edge 33, Type (0, 1), None
#     Edge 34, Type (0, 1), None
#     Edge 35, Type (0, 1), None
#     Edge 36, Type (0, 1), None
#     Edge 37, Type (0, 1), None
#     Edge 38, Type (0, 1), None
#     Edge 39, Type (0, 1), None
#     Edge 40, Type (0, 1), None
#     Edge 41, Type (0, 1), None
#     Edge 42, Type (0, 1), None
#     Edge 43, Type (0, 1), None
#     Edge 44, Type (0, 1), None
#     Edge 45, Type (0, 1), None
#     Edge 46, Type (0, 1), None
#     Edge 47, Type (0, 1), None
#     Edge 48, Type (0, 1), None
#     Edge 49, Type (0, 1), None
#     Edge 50, Type (0, 1), None
#     Edge 51, Type (0, 1), None
#     Edge 52, Type (0, 1), None
#     Edge 53, Type (0, 1), None
#     Edge 54, Type (0, 1), None
#     Edge 55, Type (0, 1), None
#     Edge 56, Type (0, 1), None
#     Edge 57, Type (0, 1), None
#     Edge 58, Type (0, 1), None
#     Edge 59, Type (0, 1), None
#     Edge 60, Type (0, 1), None
#     Edge 61, Type (0, 1), None
# Relax obj value: 0.272
# Max RMSD: 0.379
# Mean RMSD: 0.246
data_MOF--net-ocu--node1-VOLQOD_clean_sbu_1--node2-GIZVER_clean_sbu_0--edge1-none
_symmetry_space_group_name_H-M    P1
_symmetry_Int_Tables_number       1
_symmetry_cell_setting            triclinic
loop_
_symmetry_equiv_pos_as_xyz
'x, y, z'
_cell_length_a     21.202821
_cell_length_b     22.408928
_cell_length_c     17.425457
_cell_angle_alpha  90.490306
_cell_angle_beta   92.963527
_cell_angle_gamma 110.13611
loop_
_atom_site_label
_atom_site_type_symbol
_atom_site_fract_x
_atom_site_fract_y
_atom_site_fract_z
_atom_type_partial_charge
O0 O 0.42403 0.38491 0.22521 0.0
Zn1 Zn 0.34467 0.32153 0.28558 0.0
O2 O 0.27834 0.2612 0.2102 0.0
Zn3 Zn 0.19002 0.26304 0.21294 0.0
Zn4 Zn 0.30256 0.28376 0.10737 0.0
Zn5 Zn 0.25845 0.17106 0.22012 0.0
O6 O 0.12901 0.19922 0.2781 0.0
O7 O 0.1684 0.12029 0.26871 0.0
O8 O 0.29239 0.37872 0.33463 0.0
O9 O 0.19813 0.34286 0.25918 0.0
O10 O 0.14685 0.26023 0.1091 0.0
O11 O 0.23824 0.31741 0.05447 0.0
O12 O 0.33093 0.21788 0.05888 0.0
O13 O 0.38255 0.26223 0.35805 0.0
O14 O 0.29436 0.13317 0.1322 0.0
O15 O 0.32076 0.16977 0.301 0.0
C16 C 0.42701 0.3942 0.15263 0.0
C17 C 0.12585 0.14335 0.29406 0.0
C18 C 0.1763 0.30382 0.06413 0.0
C19 C 0.23582 0.38258 0.30854 0.0
C20 C 0.32743 0.16189 0.07607 0.0
C21 C 0.36532 0.2012 0.35073 0.0
O22 O 0.38254 0.35882 0.10541 0.0
O23 O 0.71947 0.18285 0.08541 0.0
Zn24 Zn 0.80459 0.23279 0.16616 0.0
O25 O 0.7728 0.28791 0.22329 0.0
Zn26 Zn 0.80892 0.37132 0.19312 0.0
Zn27 Zn 0.67688 0.26601 0.21906 0.0
Zn28 Zn 0.80572 0.28428 0.32598 0.0
O29 O 0.87196 0.42623 0.27302 0.0
O30 O 0.84019 0.37056 0.37853 0.0
O31 O 0.89427 0.29963 0.12777 0.0
O32 O 0.85709 0.37854 0.10385 0.0
O33 O 0.74205 0.40107 0.15071 0.0
O34 O 0.64209 0.3346 0.1799 0.0
O35 O 0.64051 0.19776 0.29694 0.0
O36 O 0.83271 0.1767 0.25022 0.0
O37 O 0.73604 0.20848 0.36565 0.0
O38 O 0.88314 0.25343 0.33666 0.0
C39 C 0.65938 0.18604 0.0793 0.0
C40 C 0.87612 0.42032 0.34517 0.0
C41 C 0.67888 0.38149 0.14276 0.0
C42 C 0.90397 0.35674 0.10629 0.0
C43 C 0.67533 0.17663 0.34439 0.0
C44 C 0.8696 0.19659 0.31294 0.0
O45 O 0.64046 0.21669 0.12802 0.0
O46 O 0.64831 0.67799 0.20237 0.0
Zn47 Zn 0.72367 0.73436 0.28147 0.0
O48 O 0.79436 0.78177 0.2186 0.0
Zn49 Zn 0.87258 0.7625 0.23992 0.0
Zn50 Zn 0.77733 0.77407 0.1099 0.0
Zn51 Zn 0.8182 0.86849 0.24922 0.0
O52 O 0.9252 0.81963 0.32379 0.0
O53 O 0.91692 0.90614 0.27028 0.0
O54 O 0.77126 0.68538 0.35869 0.0
O55 O 0.84945 0.6793 0.28173 0.0
O56 O 0.92396 0.75893 0.14991 0.0
O57 O 0.841 0.73709 0.05906 0.0
O58 O 0.74643 0.84433 0.06973 0.0
O59 O 0.689 0.80451 0.32862 0.0
O60 O 0.76353 0.90396 0.17699 0.0
O61 O 0.78634 0.88098 0.35124 0.0
C62 C 0.64463 0.67711 0.12837 0.0
C63 C 0.94008 0.87926 0.32367 0.0
C64 C 0.89808 0.73574 0.08423 0.0
C65 C 0.81983 0.66548 0.34347 0.0
C66 C 0.73455 0.88644 0.11044 0.0
C67 C 0.72349 0.86009 0.35673 0.0
O68 O 0.69229 0.70963 0.08959 0.0
O69 O 0.38276 0.85257 0.35401 0.0
Zn70 Zn 0.33412 0.77523 0.27558 0.0
O71 O 0.2699 0.79943 0.21525 0.0
Zn72 Zn 0.18067 0.75864 0.23782 0.0
Zn73 Zn 0.29045 0.88804 0.21213 0.0
Zn74 Zn 0.27823 0.76601 0.11934 0.0
O75 O 0.13418 0.68763 0.16064 0.0
O76 O 0.19143 0.72807 0.05883 0.0
O77 O 0.27029 0.69346 0.31982 0.0
O78 O 0.17898 0.7185 0.33467 0.0
O79 O 0.13712 0.81975 0.2622 0.0
O80 O 0.21778 0.91456 0.25574 0.0
O81 O 0.36081 0.92344 0.13351 0.0
O82 O 0.39515 0.74993 0.19747 0.0
O83 O 0.35995 0.83147 0.08137 0.0
O84 O 0.30536 0.69082 0.12892 0.0
C85 C 0.37699 0.908 0.3551 0.0
C86 C 0.14495 0.68413 0.08996 0.0
C87 C 0.16426 0.87773 0.28383 0.0
C88 C 0.20984 0.67976 0.34051 0.0
C89 C 0.38861 0.89079 0.09576 0.0
C90 C 0.36789 0.70779 0.14381 0.0
O91 O 0.34499 0.92471 0.30204 0.0
O92 O 0.29326 0.67231 0.59828 0.0
Zn93 Zn 0.35334 0.74977 0.67224 0.0
O94 O 0.28418 0.77198 0.7263 0.0
Zn95 Zn 0.30489 0.85866 0.74602 0.0
Zn96 Zn 0.1962 0.74328 0.68061 0.0
Zn97 Zn 0.2851 0.73628 0.82431 0.0
O98 O 0.36318 0.88816 0.84474 0.0
O99 O 0.37032 0.79715 0.8863 0.0
O100 O 0.4154 0.8332 0.61674 0.0
O101 O 0.37376 0.89587 0.67946 0.0
O102 O 0.23551 0.89446 0.6957 0.0
O103 O 0.16857 0.81012 0.6275 0.0
O104 O 0.1323 0.68272 0.74798 0.0
O105 O 0.40841 0.72035 0.76148 0.0
O106 O 0.19207 0.68277 0.85729 0.0
O107 O 0.31212 0.66514 0.80635 0.0
C108 C 0.23015 0.65618 0.57735 0.0
C109 C 0.39592 0.85751 0.88109 0.0
C110 C 0.19057 0.86964 0.64115 0.0
C111 C 0.41427 0.88889 0.63301 0.0
C112 C 0.13862 0.65943 0.81314 0.0
C113 C 0.37516 0.68282 0.81186 0.0
O114 O 0.1937 0.68541 0.60144 0.0
O115 O 0.15173 0.16549 0.68253 0.0
Zn116 Zn 0.22624 0.20875 0.76464 0.0
O117 O 0.29469 0.2733 0.71224 0.0
Zn118 Zn 0.37591 0.26727 0.7562 0.0
Zn119 Zn 0.28661 0.25854 0.60252 0.0
Zn120 Zn 0.30207 0.35624 0.7361 0.0
O121 O 0.44797 0.34523 0.78733 0.0
O122 O 0.38108 0.40116 0.80216 0.0
O123 O 0.27717 0.14766 0.80897 0.0
O124 O 0.35983 0.22885 0.85738 0.0
O125 O 0.40302 0.21197 0.68744 0.0
O126 O 0.34513 0.20551 0.57473 0.0
O127 O 0.2826 0.33571 0.5456 0.0
O128 O 0.18212 0.25656 0.83713 0.0
O129 O 0.28561 0.3992 0.64605 0.0
O130 O 0.23139 0.35554 0.79854 0.0
C131 C 0.14533 0.17431 0.61053 0.0
C132 C 0.43492 0.3905 0.81831 0.0
C133 C 0.38666 0.18977 0.61903 0.0
C134 C 0.33359 0.16967 0.8484 0.0
C135 C 0.27503 0.38499 0.57505 0.0
C136 C 0.18875 0.31583 0.83713 0.0
O137 O 0.19394 0.20726 0.57305 0.0
O138 O 0.88175 0.28475 0.84645 0.0
Zn139 Zn 0.80424 0.22211 0.77351 0.0
O140 O 0.77996 0.28162 0.70529 0.0
Zn141 Zn 0.68775 0.25571 0.68289 0.0
Zn142 Zn 0.80786 0.36763 0.73412 0.0
Zn143 Zn 0.8301 0.2773 0.619 0.0
O144 O 0.66904 0.19319 0.58896 0.0
O145 O 0.77107 0.19291 0.56142 0.0
O146 O 0.71798 0.16168 0.82421 0.0
O147 O 0.64581 0.18665 0.74637 0.0
O148 O 0.64866 0.31569 0.74653 0.0
O149 O 0.74193 0.3938 0.78786 0.0
O150 O 0.86958 0.42544 0.66472 0.0
O151 O 0.8382 0.16692 0.69939 0.0
O152 O 0.88706 0.36248 0.57494 0.0
O153 O 0.90581 0.25876 0.66686 0.0
C154 C 0.90004 0.34589 0.85216 0.0
C155 C 0.7072 0.16476 0.56188 0.0
C156 C 0.67942 0.36453 0.79119 0.0
C157 C 0.65754 0.15296 0.79859 0.0
C158 C 0.90279 0.4167 0.60959 0.0
C159 C 0.88717 0.19934 0.6608 0.0
O160 O 0.87186 0.37714 0.81314 0.0
O161 O 0.9174 0.88782 0.72594 0.0
Zn162 Zn 0.85111 0.82356 0.79468 0.0
O163 O 0.78173 0.75829 0.72757 0.0
Zn164 Zn 0.69708 0.76167 0.74564 0.0
Zn165 Zn 0.79724 0.77134 0.62159 0.0
Zn166 Zn 0.76946 0.67461 0.76037 0.0
O167 O 0.61741 0.68108 0.74744 0.0
O168 O 0.67673 0.62471 0.79541 0.0
O169 O 0.7957 0.87199 0.85525 0.0
O170 O 0.707 0.78531 0.85361 0.0
O171 O 0.68599 0.82916 0.67786 0.0
O172 O 0.7259 0.80283 0.57118 0.0
O173 O 0.82604 0.69854 0.58146 0.0
O174 O 0.90652 0.76976 0.84637 0.0
O175 O 0.81983 0.63877 0.6854 0.0
O176 O 0.81442 0.6902 0.86239 0.0
C177 C 0.9198 0.89035 0.65278 0.0
C178 C 0.62161 0.63527 0.78761 0.0
C179 C 0.6981 0.83653 0.60703 0.0
C180 C 0.73441 0.84322 0.87156 0.0
C181 C 0.83851 0.6536 0.61713 0.0
C182 C 0.87749 0.71231 0.86616 0.0
O183 O 0.87781 0.84831 0.6088 0.0
Co184 Co 0.09 0.92348 0.43202 0.0
Co185 Co 0.10655 0.95952 0.57158 0.0
Co186 Co 1.02325 0.02771 0.4819 0.0
O187 O 0.1012 0.9995 0.4847 0.0
H188 H 0.14345 0.0331 0.47747 0.0
O189 O 0.94659 0.05817 0.47804 0.0
Co190 Co 0.96271 0.13814 0.52526 0.0
Co191 Co 0.94257 0.09614 0.38752 0.0
H192 H 0.90414 0.02602 0.48839 0.0
O193 O 0.18601 0.97105 0.61457 0.0
O194 O 0.11817 0.8871 0.53533 0.0
O195 O 0.03518 0.94323 0.64206 0.0
O196 O 0.96585 0.95915 0.55113 0.0
O197 O 0.0626 0.08027 0.57369 0.0
O198 O 0.97215 0.20825 0.5754 0.0
O199 O 0.87874 0.12085 0.55869 0.0
O200 O 0.05752 0.1642 0.51335 0.0
O201 O 0.08169 0.09373 0.41023 0.0
O202 O 1.01154 0.10272 0.31657 0.0
O203 O 0.93945 0.17378 0.4186 0.0
O204 O 0.86477 0.09205 0.34256 0.0
C205 C 0.1383 0.89672 0.35301 0.0
C206 C 0.97346 0.91627 0.39199 0.0
C207 C 0.97643 0.93739 0.61658 0.0
C208 C 0.16374 0.91103 0.5937 0.0
C209 C 0.91352 0.17345 0.59703 0.0
C210 C 0.08287 0.13956 0.56756 0.0
C211 C 0.07005 0.10621 0.34039 0.0
C212 C 0.89231 0.15228 0.3612 0.0
O213 O 0.08315 0.85661 0.37686 0.0
O214 O 0.17262 0.94739 0.39524 0.0
O215 O 0.98356 0.97491 0.39149 0.0
O216 O 0.99866 0.89288 0.44733 0.0
Co217 Co 0.61207 0.90645 0.93245 0.0
Co218 Co 0.59379 0.93249 0.06512 0.0
Co219 Co 0.53834 1.01877 -0.0377 0.0
O220 O 0.60986 0.98234 -0.01925 0.0
H221 H 0.65398 1.0148 -0.01376 0.0
O222 O 0.4634 0.05097 0.94546 0.0
Co223 Co 0.45757 0.12025 0.001 0.0
Co224 Co 0.457 0.09066 0.85854 0.0
H225 H 0.42088 1.01622 0.94481 0.0
O226 O 0.66679 0.94969 0.13191 0.0
O227 O 0.63034 0.87466 0.03563 0.0
O228 O 0.50021 0.89142 0.08845 0.0
O229 O 0.47516 0.97252 0.04168 0.0
O230 O 0.58794 0.08478 0.03968 0.0
O231 O 0.44207 0.18137 0.05261 0.0
O232 O 0.3671 0.0859 0.01343 0.0
O233 O 0.55735 0.16463 0.00023 0.0
O234 O 0.6001 0.0716 0.88407 0.0
O235 O 0.54247 0.12208 0.81503 0.0
O236 O 0.43655 0.15712 0.9016 0.0
O237 O 0.37134 0.08337 0.81485 0.0
C238 C 0.68659 0.87442 0.89466 0.0
C239 C 0.4687 0.89341 0.90388 0.0
C240 C 0.45857 0.91984 0.07481 0.0
C241 C 0.67673 0.90661 0.0884 0.0
C242 C 0.38044 0.14124 0.04714 0.0
C243 C 0.60298 0.14358 0.02879 0.0
C244 C 0.59676 0.11179 0.83383 0.0
C245 C 0.38036 0.13326 0.85843 0.0
O246 O 0.62278 0.83992 0.88907 0.0
O247 O 0.7047 0.9328 0.92157 0.0
O248 O 0.49076 0.9513 0.88522 0.0
O249 O 0.51006 0.86763 0.93339 0.0
Co250 Co 0.08588 0.38604 0.924 0.0
Co251 Co 0.10343 0.42532 0.06597 0.0
Co252 Co 1.02956 0.5108 -0.03014 0.0
O253 O 0.10062 0.46938 -0.02483 0.0
H254 H 0.14464 0.49978 -0.03311 0.0
O255 O 0.95722 0.55254 -0.03699 0.0
Co256 Co 0.9795 0.64102 0.00199 0.0
Co257 Co 0.95189 0.58831 0.86657 0.0
H258 H 0.91383 0.52442 -0.02259 0.0
O259 O 0.18108 0.40807 0.09889 0.0
O260 O 0.09566 0.34864 0.02035 0.0
O261 O 1.02165 0.39166 0.11204 0.0
O262 O 0.97011 0.44719 0.04217 0.0
O263 O 0.07919 0.57549 0.05412 0.0
O264 O 0.99489 0.71885 0.04067 0.0
O265 O 0.89578 0.63811 0.02282 0.0
O266 O 0.06795 0.65488 -0.01347 0.0
O267 O 0.08862 0.57425 0.89666 0.0
O268 O 1.02424 0.59679 0.80366 0.0
O269 O 0.96831 0.67258 0.89936 0.0
O270 O 0.87682 0.60843 0.83313 0.0
C271 C 0.1456 0.34241 0.87749 0.0
C272 C 0.96001 0.38603 0.89598 0.0
C273 C 0.96925 0.40084 0.08595 0.0
C274 C 0.15149 0.35636 0.05825 0.0
C275 C 0.93016 0.69679 0.04523 0.0
C276 C 0.09621 0.63533 0.04112 0.0
C277 C 0.08117 0.60549 0.8375 0.0
C278 C 0.91059 0.66402 0.86377 0.0
O279 O 0.0812 0.31228 0.87706 0.0
O280 O 0.17136 0.40046 0.90603 0.0
O281 O 0.9802 0.44673 0.88696 0.0
O282 O 0.99425 0.36013 0.93566 0.0
Co283 Co 0.59098 0.42166 0.92301 0.0
Co284 Co 0.6061 0.46289 0.06256 0.0
Co285 Co 0.52758 0.53182 -0.0173 0.0
O286 O 0.60285 0.50084 -0.02684 0.0
H287 H 0.64535 0.53387 -0.03476 0.0
O288 O 0.45274 0.56356 -0.00969 0.0
Co289 Co 0.46488 0.64465 0.03321 0.0
Co290 Co 0.44825 0.59736 0.89777 0.0
H291 H 0.4105 0.53106 0.00055 0.0
O292 O 0.68543 0.47915 0.09661 0.0
O293 O 0.61025 0.38854 0.03077 0.0
O294 O 0.54257 0.45431 0.14417 0.0
O295 O 0.47267 0.46069 0.04971 0.0
O296 O 0.57346 0.58115 0.07624 0.0
O297 O 0.4697 0.71755 0.08134 0.0
O298 O 0.37867 0.63032 0.0524 0.0
O299 O 0.55949 0.66734 0.03122 0.0
O300 O 0.58202 0.60039 0.91175 0.0
O301 O 0.50779 0.59567 0.81705 0.0
O302 O 0.45016 0.67603 0.92112 0.0
O303 O 0.36906 0.58611 0.86267 0.0
C304 C 0.64473 0.38576 0.85279 0.0
C305 C 0.47693 0.42552 0.88213 0.0
C306 C 0.48322 0.4433 0.11757 0.0
C307 C 0.65206 0.41782 0.0905 0.0
C308 C 0.40736 0.68385 0.09163 0.0
C309 C 0.58416 0.64003 0.08306 0.0
C310 C 0.56776 0.6048 0.83991 0.0
C311 C 0.40333 0.64714 0.86541 0.0
O312 O 0.58449 0.35038 0.8692 0.0
O313 O 0.67573 0.43803 0.89412 0.0
O314 O 0.48164 0.48261 0.89155 0.0
O315 O 0.50019 0.39755 0.93381 0.0
Co316 Co 0.19245 0.47934 0.49202 0.0
Co317 Co 0.15632 0.48951 0.36145 0.0
Co318 Co 0.05547 0.53579 0.4607 0.0
O319 O 0.10255 0.47109 0.44402 0.0
H320 H 0.07142 0.42781 0.44084 0.0
O321 O 1.0077 0.60086 0.47679 0.0
Co322 Co 0.91215 0.58219 0.43904 0.0
Co323 Co 0.97223 0.59653 0.5724 0.0
H324 H 0.03604 0.64384 0.4669 0.0
O325 O 0.15009 0.42694 0.29646 0.0
O326 O 0.23118 0.47079 0.39105 0.0
O327 O 0.19229 0.57261 0.33594 0.0
O328 O 0.11582 0.60317 0.39287 0.0
O329 O 0.9849 0.49526 0.37638 0.0
O330 O 0.82717 0.57132 0.40088 0.0
O331 O 0.91385 0.66251 0.42446 0.0
O332 O 0.89844 0.49591 0.44428 0.0
O333 O 0.99272 0.47017 0.52888 0.0
O334 O 0.96992 0.52351 0.62629 0.0
O335 O 0.88156 0.58417 0.5445 0.0
O336 O 0.95396 0.66303 0.61933 0.0
C337 C 0.2418 0.42188 0.53214 0.0
C338 C 0.19067 0.59647 0.53626 0.0
C339 C 0.17049 0.61494 0.35779 0.0
C340 C 0.20566 0.42943 0.33417 0.0
C341 C 0.85165 0.63285 0.39803 0.0
C342 C 0.92212 0.47322 0.39037 0.0
C343 C 0.9601 0.47233 0.58822 0.0
C344 C 0.89338 0.63353 0.59035 0.0
O345 O 0.26985 0.48297 0.53695 0.0
O346 O 0.17978 0.39599 0.50321 0.0
O347 O 0.12648 0.5754 0.5447 0.0
O348 O 0.21852 0.56885 0.49178 0.0
Co349 Co 0.6646 0.96245 0.5166 0.0
Co350 Co 0.65224 0.98325 0.37913 0.0
Co351 Co 0.54736 0.02504 0.47484 0.0
O352 O 0.59232 0.9652 0.45164 0.0
H353 H 0.55977 0.92325 0.44039 0.0
O354 O 0.50594 0.08939 0.49473 0.0
Co355 Co 0.42764 0.09096 0.44139 0.0
Co356 Co 0.4581 0.07674 0.57569 0.0
H357 H 0.5392 0.13164 0.50028 0.0
O358 O 0.64671 0.91295 0.3189 0.0
O359 O 0.7151 0.9524 0.42522 0.0
O360 O 0.68293 0.07374 0.35423 0.0
O361 O 0.59521 0.09223 0.40194 0.0
O362 O 0.48019 0.98204 0.39325 0.0
O363 O 0.35841 0.09924 0.3917 0.0
O364 O 0.45289 0.17898 0.43186 0.0
O365 O 0.39123 0.99678 0.43867 0.0
O366 O 0.49596 0.95488 0.54727 0.0
O367 O 0.43304 0.99539 0.61409 0.0
O368 O 0.38798 0.10009 0.54097 0.0
O369 O 0.47088 0.14432 0.63511 0.0
C370 C 0.68504 0.88904 0.56837 0.0
C371 C 0.67567 0.09448 0.54279 0.0
C372 C 0.64927 0.11011 0.36685 0.0
C373 C 0.69122 0.90822 0.37056 0.0
C374 C 0.3935 0.1598 0.39593 0.0
C375 C 0.41851 0.96053 0.40626 0.0
C376 C 0.45146 0.94924 0.59614 0.0
C377 C 0.41733 0.14401 0.59462 0.0
O378 O 0.72647 0.94746 0.58007 0.0
O379 O 0.6315 0.87736 0.52316 0.0
O380 O 0.61468 0.06832 0.5578 0.0
O381 O 0.70752 0.05886 0.51873 0.0
loop_
_geom_bond_atom_site_label_1
_geom_bond_atom_site_label_2
_geom_bond_distance
_geom_bond_site_symmetry_2
_ccdc_geom_bond_type
O0 Zn1 1.953 . S
O0 C16 1.225 . S
Zn1 O0 1.953 . S
Zn1 O2 1.949 . S
Zn1 O8 1.919 . S
Zn1 O13 1.924 . S
O2 Zn1 1.949 . S
O2 Zn3 1.923 . S
O2 Zn4 1.950 . S
O2 Zn5 1.945 . S
Zn3 O2 1.923 . S
Zn3 O6 1.933 . S
Zn3 O9 1.941 . S
Zn3 O10 1.965 . S
Zn4 O2 1.950 . S
Zn4 O11 1.938 . S
Zn4 O12 1.906 . S
Zn4 O22 1.953 . S
Zn5 O2 1.945 . S
Zn5 O7 1.932 . S
Zn5 O14 1.977 . S
Zn5 O15 1.910 . S
O6 Zn3 1.933 . S
O6 C17 1.226 . S
O7 Zn5 1.932 . S
O7 C17 1.307 . S
O8 Zn1 1.919 . S
O8 C19 1.253 . S
O9 Zn3 1.941 . S
O9 C19 1.283 . S
O10 Zn3 1.965 . S
O10 C18 1.303 . S
O11 Zn4 1.938 . S
O11 C18 1.247 . S
O12 Zn4 1.906 . S
O12 C20 1.304 . S
O13 Zn1 1.924 . S
O13 C21 1.311 . S
O14 Zn5 1.977 . S
O14 C20 1.272 . S
O15 Zn5 1.910 . S
O15 C21 1.231 . S
C16 O0 1.225 . S
C16 O22 1.298 . S
C17 O6 1.226 . S
C17 O7 1.307 . S
C18 O10 1.303 . S
C18 O11 1.247 . S
C19 O8 1.253 . S
C19 O9 1.283 . S
C20 O12 1.304 . S
C20 O14 1.272 . S
C21 O13 1.311 . S
C21 O15 1.231 . S
O22 Zn4 1.953 . S
O22 C16 1.298 . S
O23 Zn24 1.953 . S
O23 C39 1.225 . S
Zn24 O23 1.953 . S
Zn24 O25 1.949 . S
Zn24 O31 1.919 . S
Zn24 O36 1.924 . S
O25 Zn24 1.949 . S
O25 Zn26 1.923 . S
O25 Zn27 1.950 . S
O25 Zn28 1.945 . S
Zn26 O25 1.923 . S
Zn26 O29 1.933 . S
Zn26 O32 1.941 . S
Zn26 O33 1.965 . S
Zn27 O25 1.950 . S
Zn27 O34 1.938 . S
Zn27 O35 1.906 . S
Zn27 O45 1.953 . S
Zn28 O25 1.945 . S
Zn28 O30 1.932 . S
Zn28 O37 1.977 . S
Zn28 O38 1.910 . S
O29 Zn26 1.933 . S
O29 C40 1.226 . S
O30 Zn28 1.932 . S
O30 C40 1.307 . S
O31 Zn24 1.919 . S
O31 C42 1.253 . S
O32 Zn26 1.941 . S
O32 C42 1.283 . S
O33 Zn26 1.965 . S
O33 C41 1.303 . S
O34 Zn27 1.938 . S
O34 C41 1.247 . S
O35 Zn27 1.906 . S
O35 C43 1.304 . S
O36 Zn24 1.924 . S
O36 C44 1.311 . S
O37 Zn28 1.977 . S
O37 C43 1.272 . S
O38 Zn28 1.910 . S
O38 C44 1.231 . S
C39 O23 1.225 . S
C39 O45 1.298 . S
C40 O29 1.226 . S
C40 O30 1.307 . S
C41 O33 1.303 . S
C41 O34 1.247 . S
C42 O31 1.253 . S
C42 O32 1.283 . S
C43 O35 1.304 . S
C43 O37 1.272 . S
C44 O36 1.311 . S
C44 O38 1.231 . S
O45 Zn27 1.953 . S
O45 C39 1.298 . S
O46 Zn47 1.953 . S
O46 C62 1.225 . S
Zn47 O46 1.953 . S
Zn47 O48 1.949 . S
Zn47 O54 1.919 . S
Zn47 O59 1.924 . S
O48 Zn47 1.949 . S
O48 Zn49 1.923 . S
O48 Zn50 1.950 . S
O48 Zn51 1.945 . S
Zn49 O48 1.923 . S
Zn49 O52 1.933 . S
Zn49 O55 1.941 . S
Zn49 O56 1.965 . S
Zn50 O48 1.950 . S
Zn50 O57 1.938 . S
Zn50 O58 1.906 . S
Zn50 O68 1.953 . S
Zn51 O48 1.945 . S
Zn51 O53 1.932 . S
Zn51 O60 1.977 . S
Zn51 O61 1.910 . S
O52 Zn49 1.933 . S
O52 C63 1.226 . S
O53 Zn51 1.932 . S
O53 C63 1.307 . S
O54 Zn47 1.919 . S
O54 C65 1.253 . S
O55 Zn49 1.941 . S
O55 C65 1.283 . S
O56 Zn49 1.965 . S
O56 C64 1.303 . S
O57 Zn50 1.938 . S
O57 C64 1.247 . S
O58 Zn50 1.906 . S
O58 C66 1.304 . S
O59 Zn47 1.924 . S
O59 C67 1.311 . S
O60 Zn51 1.977 . S
O60 C66 1.272 . S
O61 Zn51 1.910 . S
O61 C67 1.231 . S
C62 O46 1.225 . S
C62 O68 1.298 . S
C63 O52 1.226 . S
C63 O53 1.307 . S
C64 O56 1.303 . S
C64 O57 1.247 . S
C65 O54 1.253 . S
C65 O55 1.283 . S
C66 O58 1.304 . S
C66 O60 1.272 . S
C67 O59 1.311 . S
C67 O61 1.231 . S
O68 Zn50 1.953 . S
O68 C62 1.298 . S
O69 Zn70 1.953 . S
O69 C85 1.225 . S
Zn70 O69 1.953 . S
Zn70 O71 1.949 . S
Zn70 O77 1.919 . S
Zn70 O82 1.924 . S
O71 Zn70 1.949 . S
O71 Zn72 1.923 . S
O71 Zn73 1.950 . S
O71 Zn74 1.945 . S
Zn72 O71 1.923 . S
Zn72 O75 1.933 . S
Zn72 O78 1.941 . S
Zn72 O79 1.965 . S
Zn73 O71 1.950 . S
Zn73 O80 1.938 . S
Zn73 O81 1.906 . S
Zn73 O91 1.953 . S
Zn74 O71 1.945 . S
Zn74 O76 1.932 . S
Zn74 O83 1.977 . S
Zn74 O84 1.910 . S
O75 Zn72 1.933 . S
O75 C86 1.226 . S
O76 Zn74 1.932 . S
O76 C86 1.307 . S
O77 Zn70 1.919 . S
O77 C88 1.253 . S
O78 Zn72 1.941 . S
O78 C88 1.283 . S
O79 Zn72 1.965 . S
O79 C87 1.303 . S
O80 Zn73 1.938 . S
O80 C87 1.247 . S
O81 Zn73 1.906 . S
O81 C89 1.304 . S
O82 Zn70 1.924 . S
O82 C90 1.311 . S
O83 Zn74 1.977 . S
O83 C89 1.272 . S
O84 Zn74 1.910 . S
O84 C90 1.231 . S
C85 O69 1.225 . S
C85 O91 1.298 . S
C86 O75 1.226 . S
C86 O76 1.307 . S
C87 O79 1.303 . S
C87 O80 1.247 . S
C88 O77 1.253 . S
C88 O78 1.283 . S
C89 O81 1.304 . S
C89 O83 1.272 . S
C90 O82 1.311 . S
C90 O84 1.231 . S
O91 Zn73 1.953 . S
O91 C85 1.298 . S
O92 Zn93 1.953 . S
O92 C108 1.225 . S
Zn93 O92 1.953 . S
Zn93 O94 1.949 . S
Zn93 O100 1.919 . S
Zn93 O105 1.924 . S
O94 Zn93 1.949 . S
O94 Zn95 1.923 . S
O94 Zn96 1.950 . S
O94 Zn97 1.945 . S
Zn95 O94 1.923 . S
Zn95 O98 1.933 . S
Zn95 O101 1.941 . S
Zn95 O102 1.965 . S
Zn96 O94 1.950 . S
Zn96 O103 1.938 . S
Zn96 O104 1.906 . S
Zn96 O114 1.953 . S
Zn97 O94 1.945 . S
Zn97 O99 1.932 . S
Zn97 O106 1.977 . S
Zn97 O107 1.910 . S
O98 Zn95 1.933 . S
O98 C109 1.226 . S
O99 Zn97 1.932 . S
O99 C109 1.307 . S
O100 Zn93 1.919 . S
O100 C111 1.253 . S
O101 Zn95 1.941 . S
O101 C111 1.283 . S
O102 Zn95 1.965 . S
O102 C110 1.303 . S
O103 Zn96 1.938 . S
O103 C110 1.247 . S
O104 Zn96 1.906 . S
O104 C112 1.304 . S
O105 Zn93 1.924 . S
O105 C113 1.311 . S
O106 Zn97 1.977 . S
O106 C112 1.272 . S
O107 Zn97 1.910 . S
O107 C113 1.231 . S
C108 O92 1.225 . S
C108 O114 1.298 . S
C109 O98 1.226 . S
C109 O99 1.307 . S
C110 O102 1.303 . S
C110 O103 1.247 . S
C111 O100 1.253 . S
C111 O101 1.283 . S
C112 O104 1.304 . S
C112 O106 1.272 . S
C113 O105 1.311 . S
C113 O107 1.231 . S
O114 Zn96 1.953 . S
O114 C108 1.298 . S
O115 Zn116 1.953 . S
O115 C131 1.225 . S
Zn116 O115 1.953 . S
Zn116 O117 1.949 . S
Zn116 O123 1.919 . S
Zn116 O128 1.924 . S
O117 Zn116 1.949 . S
O117 Zn118 1.923 . S
O117 Zn119 1.950 . S
O117 Zn120 1.945 . S
Zn118 O117 1.923 . S
Zn118 O121 1.933 . S
Zn118 O124 1.941 . S
Zn118 O125 1.965 . S
Zn119 O117 1.950 . S
Zn119 O126 1.938 . S
Zn119 O127 1.906 . S
Zn119 O137 1.953 . S
Zn120 O117 1.945 . S
Zn120 O122 1.932 . S
Zn120 O129 1.977 . S
Zn120 O130 1.910 . S
O121 Zn118 1.933 . S
O121 C132 1.226 . S
O122 Zn120 1.932 . S
O122 C132 1.307 . S
O123 Zn116 1.919 . S
O123 C134 1.253 . S
O124 Zn118 1.941 . S
O124 C134 1.283 . S
O125 Zn118 1.965 . S
O125 C133 1.303 . S
O126 Zn119 1.938 . S
O126 C133 1.247 . S
O127 Zn119 1.906 . S
O127 C135 1.304 . S
O128 Zn116 1.924 . S
O128 C136 1.311 . S
O129 Zn120 1.977 . S
O129 C135 1.272 . S
O130 Zn120 1.910 . S
O130 C136 1.231 . S
C131 O115 1.225 . S
C131 O137 1.298 . S
C132 O121 1.226 . S
C132 O122 1.307 . S
C133 O125 1.303 . S
C133 O126 1.247 . S
C134 O123 1.253 . S
C134 O124 1.283 . S
C135 O127 1.304 . S
C135 O129 1.272 . S
C136 O128 1.311 . S
C136 O130 1.231 . S
O137 Zn119 1.953 . S
O137 C131 1.298 . S
O138 Zn139 1.953 . S
O138 C154 1.225 . S
Zn139 O138 1.953 . S
Zn139 O140 1.949 . S
Zn139 O146 1.919 . S
Zn139 O151 1.924 . S
O140 Zn139 1.949 . S
O140 Zn141 1.923 . S
O140 Zn142 1.950 . S
O140 Zn143 1.945 . S
Zn141 O140 1.923 . S
Zn141 O144 1.933 . S
Zn141 O147 1.941 . S
Zn141 O148 1.965 . S
Zn142 O140 1.950 . S
Zn142 O149 1.938 . S
Zn142 O150 1.906 . S
Zn142 O160 1.953 . S
Zn143 O140 1.945 . S
Zn143 O145 1.932 . S
Zn143 O152 1.977 . S
Zn143 O153 1.910 . S
O144 Zn141 1.933 . S
O144 C155 1.226 . S
O145 Zn143 1.932 . S
O145 C155 1.307 . S
O146 Zn139 1.919 . S
O146 C157 1.253 . S
O147 Zn141 1.941 . S
O147 C157 1.283 . S
O148 Zn141 1.965 . S
O148 C156 1.303 . S
O149 Zn142 1.938 . S
O149 C156 1.247 . S
O150 Zn142 1.906 . S
O150 C158 1.304 . S
O151 Zn139 1.924 . S
O151 C159 1.311 . S
O152 Zn143 1.977 . S
O152 C158 1.272 . S
O153 Zn143 1.910 . S
O153 C159 1.231 . S
C154 O138 1.225 . S
C154 O160 1.298 . S
C155 O144 1.226 . S
C155 O145 1.307 . S
C156 O148 1.303 . S
C156 O149 1.247 . S
C157 O146 1.253 . S
C157 O147 1.283 . S
C158 O150 1.304 . S
C158 O152 1.272 . S
C159 O151 1.311 . S
C159 O153 1.231 . S
O160 Zn142 1.953 . S
O160 C154 1.298 . S
O161 Zn162 1.953 . S
O161 C177 1.225 . S
Zn162 O161 1.953 . S
Zn162 O163 1.949 . S
Zn162 O169 1.919 . S
Zn162 O174 1.924 . S
O163 Zn162 1.949 . S
O163 Zn164 1.923 . S
O163 Zn165 1.950 . S
O163 Zn166 1.945 . S
Zn164 O163 1.923 . S
Zn164 O167 1.933 . S
Zn164 O170 1.941 . S
Zn164 O171 1.965 . S
Zn165 O163 1.950 . S
Zn165 O172 1.938 . S
Zn165 O173 1.906 . S
Zn165 O183 1.953 . S
Zn166 O163 1.945 . S
Zn166 O168 1.932 . S
Zn166 O175 1.977 . S
Zn166 O176 1.910 . S
O167 Zn164 1.933 . S
O167 C178 1.226 . S
O168 Zn166 1.932 . S
O168 C178 1.307 . S
O169 Zn162 1.919 . S
O169 C180 1.253 . S
O170 Zn164 1.941 . S
O170 C180 1.283 . S
O171 Zn164 1.965 . S
O171 C179 1.303 . S
O172 Zn165 1.938 . S
O172 C179 1.247 . S
O173 Zn165 1.906 . S
O173 C181 1.304 . S
O174 Zn162 1.924 . S
O174 C182 1.311 . S
O175 Zn166 1.977 . S
O175 C181 1.272 . S
O176 Zn166 1.910 . S
O176 C182 1.231 . S
C177 O161 1.225 . S
C177 O183 1.298 . S
C178 O167 1.226 . S
C178 O168 1.307 . S
C179 O171 1.303 . S
C179 O172 1.247 . S
C180 O169 1.253 . S
C180 O170 1.283 . S
C181 O173 1.304 . S
C181 O175 1.272 . S
C182 O174 1.311 . S
C182 O176 1.231 . S
O183 Zn165 1.953 . S
O183 C177 1.298 . S
Co184 O187 2.042 . S
Co184 O194 2.264 . S
Co184 O213 2.286 . S
Co184 O214 2.069 . S
Co184 O216 2.015 1_455 S
Co185 O187 2.122 . S
Co185 O193 2.073 . S
Co185 O194 2.327 . S
Co185 O195 1.976 1_455 S
Co186 O187 2.087 1_545 S
Co186 O189 2.087 1_455 S
Co186 O196 2.111 1_445 S
Co186 O197 2.143 . S
Co186 O201 2.111 . S
Co186 O215 2.143 1_445 S
O187 Co184 2.042 . S
O187 Co185 2.122 . S
O187 Co186 2.087 1_565 S
O187 H188 0.980 . S
H188 O187 0.980 . S
O189 Co186 2.087 1_655 S
O189 Co190 2.042 . S
O189 Co191 2.122 . S
O189 H192 0.980 . S
Co190 O189 2.042 . S
Co190 O198 2.286 . S
Co190 O199 2.069 . S
Co190 O200 2.015 1_655 S
Co190 O203 2.264 . S
Co191 O189 2.122 . S
Co191 O202 1.976 1_655 S
Co191 O203 2.327 . S
Co191 O204 2.073 . S
H192 O189 0.980 . S
O193 Co185 2.073 . S
O193 C208 1.245 . S
O194 Co184 2.264 . S
O194 Co185 2.327 . S
O194 C208 1.257 . S
O195 Co185 1.976 1_655 S
O195 C207 1.251 . S
O196 Co186 2.111 1_665 S
O196 C207 1.274 . S
O197 Co186 2.143 . S
O197 C210 1.246 . S
O198 Co190 2.286 . S
O198 C209 1.259 . S
O199 Co190 2.069 . S
O199 C209 1.289 . S
O200 Co190 2.015 1_455 S
O200 C210 1.257 . S
O201 Co186 2.111 . S
O201 C211 1.274 . S
O202 Co191 1.976 1_455 S
O202 C211 1.251 . S
O203 Co190 2.264 . S
O203 Co191 2.327 . S
O203 C212 1.257 . S
O204 Co191 2.073 . S
O204 C212 1.245 . S
C205 O213 1.259 . S
C205 O214 1.289 . S
C206 O215 1.246 . S
C206 O216 1.257 . S
C207 O195 1.251 . S
C207 O196 1.274 . S
C208 O193 1.245 . S
C208 O194 1.257 . S
C209 O198 1.259 . S
C209 O199 1.289 . S
C210 O197 1.246 . S
C210 O200 1.257 . S
C211 O201 1.274 . S
C211 O202 1.251 . S
C212 O203 1.257 . S
C212 O204 1.245 . S
O213 Co184 2.286 . S
O213 C205 1.259 . S
O214 Co184 2.069 . S
O214 C205 1.289 . S
O215 Co186 2.143 1_665 S
O215 C206 1.246 . S
O216 Co184 2.015 1_655 S
O216 C206 1.257 . S
Co217 O220 2.042 1_556 S
Co217 O227 2.264 1_556 S
Co217 O246 2.286 . S
Co217 O247 2.069 . S
Co217 O249 2.015 . S
Co218 O220 2.122 . S
Co218 O226 2.073 . S
Co218 O227 2.327 . S
Co218 O228 1.976 . S
Co219 O220 2.071 1_545 S
Co219 O222 2.103 1_554 S
Co219 O229 2.106 1_545 S
Co219 O230 2.154 . S
Co219 O234 2.117 1_554 S
Co219 O248 2.133 1_544 S
O220 Co217 2.042 1_554 S
O220 Co218 2.122 . S
O220 Co219 2.071 1_565 S
O220 H221 0.980 . S
H221 O220 0.980 . S
O222 Co219 2.103 1_556 S
O222 Co223 2.042 1_556 S
O222 Co224 2.122 . S
O222 H225 0.980 . S
Co223 O222 2.042 1_554 S
Co223 O231 2.286 . S
Co223 O232 2.069 . S
Co223 O233 2.015 . S
Co223 O236 2.264 1_554 S
Co224 O222 2.122 . S
Co224 O235 1.976 . S
Co224 O236 2.327 . S
Co224 O237 2.073 . S
H225 O222 0.980 . S
O226 Co218 2.073 . S
O226 C241 1.245 . S
O227 Co217 2.264 1_554 S
O227 Co218 2.327 . S
O227 C241 1.257 . S
O228 Co218 1.976 . S
O228 C240 1.251 . S
O229 Co219 2.106 1_565 S
O229 C240 1.274 . S
O230 Co219 2.154 . S
O230 C243 1.246 . S
O231 Co223 2.286 . S
O231 C242 1.259 . S
O232 Co223 2.069 . S
O232 C242 1.289 . S
O233 Co223 2.015 . S
O233 C243 1.257 . S
O234 Co219 2.117 1_556 S
O234 C244 1.274 . S
O235 Co224 1.976 . S
O235 C244 1.251 . S
O236 Co223 2.264 1_556 S
O236 Co224 2.327 . S
O236 C245 1.257 . S
O237 Co224 2.073 . S
O237 C245 1.245 . S
C238 O246 1.259 . S
C238 O247 1.289 . S
C239 O248 1.246 . S
C239 O249 1.257 . S
C240 O228 1.251 . S
C240 O229 1.274 . S
C241 O226 1.245 . S
C241 O227 1.257 . S
C242 O231 1.259 . S
C242 O232 1.289 . S
C243 O230 1.246 . S
C243 O233 1.257 . S
C244 O234 1.274 . S
C244 O235 1.251 . S
C245 O236 1.257 . S
C245 O237 1.245 . S
O246 Co217 2.286 . S
O246 C238 1.259 . S
O247 Co217 2.069 . S
O247 C238 1.289 . S
O248 Co219 2.133 1_566 S
O248 C239 1.246 . S
O249 Co217 2.015 . S
O249 C239 1.257 . S
Co250 O253 2.042 1_556 S
Co250 O260 2.264 1_556 S
Co250 O279 2.286 . S
Co250 O280 2.069 . S
Co250 O282 2.015 1_455 S
Co251 O253 2.122 . S
Co251 O259 2.073 . S
Co251 O260 2.327 . S
Co251 O261 1.976 1_455 S
Co252 O253 2.087 . S
Co252 O255 2.087 1_454 S
Co252 O262 2.111 1_455 S
Co252 O263 2.143 . S
Co252 O267 2.111 1_554 S
Co252 O281 2.143 1_454 S
O253 Co250 2.042 1_554 S
O253 Co251 2.122 . S
O253 Co252 2.087 . S
O253 H254 0.980 . S
H254 O253 0.980 . S
O255 Co252 2.087 1_656 S
O255 Co256 2.042 1_556 S
O255 Co257 2.122 . S
O255 H258 0.980 . S
Co256 O255 2.042 1_554 S
Co256 O264 2.286 . S
Co256 O265 2.069 . S
Co256 O266 2.015 1_655 S
Co256 O269 2.264 1_554 S
Co257 O255 2.122 . S
Co257 O268 1.976 1_655 S
Co257 O269 2.327 . S
Co257 O270 2.073 . S
H258 O255 0.980 . S
O259 Co251 2.073 . S
O259 C274 1.245 . S
O260 Co250 2.264 1_554 S
O260 Co251 2.327 . S
O260 C274 1.257 . S
O261 Co251 1.976 1_655 S
O261 C273 1.251 . S
O262 Co252 2.111 1_655 S
O262 C273 1.274 . S
O263 Co252 2.143 . S
O263 C276 1.246 . S
O264 Co256 2.286 . S
O264 C275 1.259 . S
O265 Co256 2.069 . S
O265 C275 1.289 . S
O266 Co256 2.015 1_455 S
O266 C276 1.257 . S
O267 Co252 2.111 1_556 S
O267 C277 1.274 . S
O268 Co257 1.976 1_455 S
O268 C277 1.251 . S
O269 Co256 2.264 1_556 S
O269 Co257 2.327 . S
O269 C278 1.257 . S
O270 Co257 2.073 . S
O270 C278 1.245 . S
C271 O279 1.259 . S
C271 O280 1.289 . S
C272 O281 1.246 . S
C272 O282 1.257 . S
C273 O261 1.251 . S
C273 O262 1.274 . S
C274 O259 1.245 . S
C274 O260 1.257 . S
C275 O264 1.259 . S
C275 O265 1.289 . S
C276 O263 1.246 . S
C276 O266 1.257 . S
C277 O267 1.274 . S
C277 O268 1.251 . S
C278 O269 1.257 . S
C278 O270 1.245 . S
O279 Co250 2.286 . S
O279 C271 1.259 . S
O280 Co250 2.069 . S
O280 C271 1.289 . S
O281 Co252 2.143 1_656 S
O281 C272 1.246 . S
O282 Co250 2.015 1_655 S
O282 C272 1.257 . S
Co283 O286 2.042 1_556 S
Co283 O293 2.264 1_556 S
Co283 O312 2.286 . S
Co283 O313 2.069 . S
Co283 O315 2.015 . S
Co284 O286 2.122 . S
Co284 O292 2.073 . S
Co284 O293 2.327 . S
Co284 O294 1.976 . S
Co285 O286 2.087 . S
Co285 O288 2.087 1_554 S
Co285 O295 2.111 . S
Co285 O296 2.143 . S
Co285 O300 2.111 1_554 S
Co285 O314 2.143 1_554 S
O286 Co283 2.042 1_554 S
O286 Co284 2.122 . S
O286 Co285 2.087 . S
O286 H287 0.980 . S
H287 O286 0.980 . S
O288 Co285 2.087 1_556 S
O288 Co289 2.042 1_556 S
O288 Co290 2.122 . S
O288 H291 0.980 . S
Co289 O288 2.042 1_554 S
Co289 O297 2.286 . S
Co289 O298 2.069 . S
Co289 O299 2.015 . S
Co289 O302 2.264 1_554 S
Co290 O288 2.122 . S
Co290 O301 1.976 . S
Co290 O302 2.327 . S
Co290 O303 2.073 . S
H291 O288 0.980 . S
O292 Co284 2.073 . S
O292 C307 1.245 . S
O293 Co283 2.264 1_554 S
O293 Co284 2.327 . S
O293 C307 1.257 . S
O294 Co284 1.976 . S
O294 C306 1.251 . S
O295 Co285 2.111 . S
O295 C306 1.274 . S
O296 Co285 2.143 . S
O296 C309 1.246 . S
O297 Co289 2.286 . S
O297 C308 1.259 . S
O298 Co289 2.069 . S
O298 C308 1.289 . S
O299 Co289 2.015 . S
O299 C309 1.257 . S
O300 Co285 2.111 1_556 S
O300 C310 1.274 . S
O301 Co290 1.976 . S
O301 C310 1.251 . S
O302 Co289 2.264 1_556 S
O302 Co290 2.327 . S
O302 C311 1.257 . S
O303 Co290 2.073 . S
O303 C311 1.245 . S
C304 O312 1.259 . S
C304 O313 1.289 . S
C305 O314 1.246 . S
C305 O315 1.257 . S
C306 O294 1.251 . S
C306 O295 1.274 . S
C307 O292 1.245 . S
C307 O293 1.257 . S
C308 O297 1.259 . S
C308 O298 1.289 . S
C309 O296 1.246 . S
C309 O299 1.257 . S
C310 O300 1.274 . S
C310 O301 1.251 . S
C311 O302 1.257 . S
C311 O303 1.245 . S
O312 Co283 2.286 . S
O312 C304 1.259 . S
O313 Co283 2.069 . S
O313 C304 1.289 . S
O314 Co285 2.143 1_556 S
O314 C305 1.246 . S
O315 Co283 2.015 . S
O315 C305 1.257 . S
Co316 O319 2.042 . S
Co316 O326 2.264 . S
Co316 O345 2.286 . S
Co316 O346 2.069 . S
Co316 O348 2.015 . S
Co317 O319 2.122 . S
Co317 O325 2.073 . S
Co317 O326 2.327 . S
Co317 O327 1.976 . S
Co318 O319 2.087 . S
Co318 O321 2.087 1_455 S
Co318 O328 2.111 . S
Co318 O329 2.143 1_455 S
Co318 O333 2.111 1_455 S
Co318 O347 2.143 . S
O319 Co316 2.042 . S
O319 Co317 2.122 . S
O319 Co318 2.087 . S
O319 H320 0.980 . S
H320 O319 0.980 . S
O321 Co318 2.087 1_655 S
O321 Co322 2.042 . S
O321 Co323 2.122 . S
O321 H324 0.980 . S
Co322 O321 2.042 . S
Co322 O330 2.286 . S
Co322 O331 2.069 . S
Co322 O332 2.015 . S
Co322 O335 2.264 . S
Co323 O321 2.122 . S
Co323 O334 1.976 . S
Co323 O335 2.327 . S
Co323 O336 2.073 . S
H324 O321 0.980 . S
O325 Co317 2.073 . S
O325 C340 1.245 . S
O326 Co316 2.264 . S
O326 Co317 2.327 . S
O326 C340 1.257 . S
O327 Co317 1.976 . S
O327 C339 1.251 . S
O328 Co318 2.111 . S
O328 C339 1.274 . S
O329 Co318 2.143 1_655 S
O329 C342 1.246 . S
O330 Co322 2.286 . S
O330 C341 1.259 . S
O331 Co322 2.069 . S
O331 C341 1.289 . S
O332 Co322 2.015 . S
O332 C342 1.257 . S
O333 Co318 2.111 1_655 S
O333 C343 1.274 . S
O334 Co323 1.976 . S
O334 C343 1.251 . S
O335 Co322 2.264 . S
O335 Co323 2.327 . S
O335 C344 1.257 . S
O336 Co323 2.073 . S
O336 C344 1.245 . S
C337 O345 1.259 . S
C337 O346 1.289 . S
C338 O347 1.246 . S
C338 O348 1.257 . S
C339 O327 1.251 . S
C339 O328 1.274 . S
C340 O325 1.245 . S
C340 O326 1.257 . S
C341 O330 1.259 . S
C341 O331 1.289 . S
C342 O329 1.246 . S
C342 O332 1.257 . S
C343 O333 1.274 . S
C343 O334 1.251 . S
C344 O335 1.257 . S
C344 O336 1.245 . S
O345 Co316 2.286 . S
O345 C337 1.259 . S
O346 Co316 2.069 . S
O346 C337 1.289 . S
O347 Co318 2.143 . S
O347 C338 1.246 . S
O348 Co316 2.015 . S
O348 C338 1.257 . S
Co349 O352 2.042 . S
Co349 O359 2.264 . S
Co349 O378 2.286 . S
Co349 O379 2.069 . S
Co349 O381 2.015 1_565 S
Co350 O352 2.122 . S
Co350 O358 2.073 . S
Co350 O359 2.327 . S
Co350 O360 1.976 1_565 S
Co351 O352 2.087 1_545 S
Co351 O354 2.087 . S
Co351 O361 2.111 . S
Co351 O362 2.143 1_545 S
Co351 O366 2.111 1_545 S
Co351 O380 2.143 . S
O352 Co349 2.042 . S
O352 Co350 2.122 . S
O352 Co351 2.087 1_565 S
O352 H353 0.980 . S
H353 O352 0.980 . S
O354 Co351 2.087 . S
O354 Co355 2.042 . S
O354 Co356 2.122 . S
O354 H357 0.980 . S
Co355 O354 2.042 . S
Co355 O363 2.286 . S
Co355 O364 2.069 . S
Co355 O365 2.015 1_545 S
Co355 O368 2.264 . S
Co356 O354 2.122 . S
Co356 O367 1.976 1_545 S
Co356 O368 2.327 . S
Co356 O369 2.073 . S
H357 O354 0.980 . S
O358 Co350 2.073 . S
O358 C373 1.245 . S
O359 Co349 2.264 . S
O359 Co350 2.327 . S
O359 C373 1.257 . S
O360 Co350 1.976 1_545 S
O360 C372 1.251 . S
O361 Co351 2.111 . S
O361 C372 1.274 . S
O362 Co351 2.143 1_565 S
O362 C375 1.246 . S
O363 Co355 2.286 . S
O363 C374 1.259 . S
O364 Co355 2.069 . S
O364 C374 1.289 . S
O365 Co355 2.015 1_565 S
O365 C375 1.257 . S
O366 Co351 2.111 1_565 S
O366 C376 1.274 . S
O367 Co356 1.976 1_565 S
O367 C376 1.251 . S
O368 Co355 2.264 . S
O368 Co356 2.327 . S
O368 C377 1.257 . S
O369 Co356 2.073 . S
O369 C377 1.245 . S
C370 O378 1.259 . S
C370 O379 1.289 . S
C371 O380 1.246 . S
C371 O381 1.257 . S
C372 O360 1.251 . S
C372 O361 1.274 . S
C373 O358 1.245 . S
C373 O359 1.257 . S
C374 O363 1.259 . S
C374 O364 1.289 . S
C375 O362 1.246 . S
C375 O365 1.257 . S
C376 O366 1.274 . S
C376 O367 1.251 . S
C377 O368 1.257 . S
C377 O369 1.245 . S
O378 Co349 2.286 . S
O378 C370 1.259 . S
O379 Co349 2.069 . S
O379 C370 1.289 . S
O380 Co351 2.143 . S
O380 C371 1.246 . S
O381 Co349 2.015 1_545 S
O381 C371 1.257 . S
C211 C17 1.209 . S
C212 C44 2.205 . S
C206 C63 1.755 . S
C87 C205 1.602 . S
C110 C208 1.694 . S
C210 C131 1.799 . S
C159 C209 1.812 . S
C177 C207 1.267 . S
C242 C20 2.225 . S
C42 C273 1.491 . S
C241 C66 2.316 . S
C276 C86 1.346 . S
C109 C239 1.753 . S
C271 C136 1.795 . S
C157 C244 1.577 . S
C182 C278 1.735 . S
C18 C274 1.583 . S
C112 C277 1.965 . S
C245 C134 1.579 . S
C272 C154 1.671 . S
C180 C238 1.731 . S
C64 C275 1.644 . S
C240 C89 2.345 . S
C39 C243 2.039 . S
C178 C310 1.262 . S
C113 C311 2.112 . S
C305 C132 1.618 . S
C304 C156 1.669 . S
C41 C307 1.466 . S
C309 C62 1.667 . S
C90 C308 1.797 . S
C16 C306 1.340 . S
C181 C344 1.698 . S
C376 C111 1.632 . S
C135 C337 1.287 . S
C155 C371 2.054 . S
C342 C40 1.389 . S
C67 C373 2.870 . S
C339 C88 1.536 . S
C374 C21 2.452 . S
C370 C179 1.944 . S
C43 C372 2.365 . S
C65 C341 1.308 . S
C375 C85 2.290 . S
C19 C340 1.608 . S
C133 C377 2.199 . S
C343 C158 1.985 . S
C338 C108 1.688 . S
