# Generated by pormake.
# Topology eea, (3,6)-cn, num edge types: 1
# Building blocks:
#     Node 0, Type 0, BuildingBlock: WUSLED_clean_sbu_0, # of connection points: 3
#     Node 1, Type 0, BuildingBlock: WUSLED_clean_sbu_0, # of connection points: 3
#     Node 2, Type 0, BuildingBlock: WUSLED_clean_sbu_0, # of connection points: 3
#     Node 3, Type 0, BuildingBlock: WUSLED_clean_sbu_0, # of connection points: 3
#     Node 4, Type 0, BuildingBlock: WUSLED_clean_sbu_0, # of connection points: 3
#     Node 5, Type 0, BuildingBlock: WUSLED_clean_sbu_0, # of connection points: 3
#     Node 6, Type 0, BuildingBlock: WUSLED_clean_sbu_0, # of connection points: 3
#     Node 7, Type 0, BuildingBlock: WUSLED_clean_sbu_0, # of connection points: 3
#     Node 8, Type 0, BuildingBlock: WUSLED_clean_sbu_0, # of connection points: 3
#     Node 9, Type 0, BuildingBlock: WUSLED_clean_sbu_0, # of connection points: 3
#     Node 10, Type 0, BuildingBlock: WUSLED_clean_sbu_0, # of connection points: 3
#     Node 11, Type 0, BuildingBlock: WUSLED_clean_sbu_0, # of connection points: 3
#     Node 12, Type 0, BuildingBlock: WUSLED_clean_sbu_0, # of connection points: 3
#     Node 13, Type 0, BuildingBlock: WUSLED_clean_sbu_0, # of connection points: 3
#     Node 14, Type 0, BuildingBlock: WUSLED_clean_sbu_0, # of connection points: 3
#     Node 15, Type 0, BuildingBlock: WUSLED_clean_sbu_0, # of connection points: 3
#     Node 16, Type 0, BuildingBlock: WUSLED_clean_sbu_0, # of connection points: 3
#     Node 17, Type 0, BuildingBlock: WUSLED_clean_sbu_0, # of connection points: 3
#     Node 18, Type 1, BuildingBlock: NUHQIS_clean_sbu_0, # of connection points: 6
#     Node 19, Type 1, BuildingBlock: NUHQIS_clean_sbu_0, # of connection points: 6
#     Node 20, Type 1, BuildingBlock: NUHQIS_clean_sbu_0, # of connection points: 6
#     Node 21, Type 1, BuildingBlock: NUHQIS_clean_sbu_0, # of connection points: 6
#     Node 22, Type 1, BuildingBlock: NUHQIS_clean_sbu_0, # of connection points: 6
#     Node 23, Type 1, BuildingBlock: NUHQIS_clean_sbu_0, # of connection points: 6
#     Node 24, Type 1, BuildingBlock: NUHQIS_clean_sbu_0, # of connection points: 6
#     Node 25, Type 1, BuildingBlock: NUHQIS_clean_sbu_0, # of connection points: 6
#     Node 26, Type 1, BuildingBlock: NUHQIS_clean_sbu_0, # of connection points: 6
#     Edge 27, Type (0, 1), BuildingBlock: UVAHIK_clean_linker_0, # of connection points: 2
#     Edge 28, Type (0, 1), BuildingBlock: UVAHIK_clean_linker_0, # of connection points: 2
#     Edge 29, Type (0, 1), BuildingBlock: UVAHIK_clean_linker_0, # of connection points: 2
#     Edge 30, Type (0, 1), BuildingBlock: UVAHIK_clean_linker_0, # of connection points: 2
#     Edge 31, Type (0, 1), BuildingBlock: UVAHIK_clean_linker_0, # of connection points: 2
#     Edge 32, Type (0, 1), BuildingBlock: UVAHIK_clean_linker_0, # of connection points: 2
#     Edge 33, Type (0, 1), BuildingBlock: UVAHIK_clean_linker_0, # of connection points: 2
#     Edge 34, Type (0, 1), BuildingBlock: UVAHIK_clean_linker_0, # of connection points: 2
#     Edge 35, Type (0, 1), BuildingBlock: UVAHIK_clean_linker_0, # of connection points: 2
#     Edge 36, Type (0, 1), BuildingBlock: UVAHIK_clean_linker_0, # of connection points: 2
#     Edge 37, Type (0, 1), BuildingBlock: UVAHIK_clean_linker_0, # of connection points: 2
#     Edge 38, Type (0, 1), BuildingBlock: UVAHIK_clean_linker_0, # of connection points: 2
#     Edge 39, Type (0, 1), BuildingBlock: UVAHIK_clean_linker_0, # of connection points: 2
#     Edge 40, Type (0, 1), BuildingBlock: UVAHIK_clean_linker_0, # of connection points: 2
#     Edge 41, Type (0, 1), BuildingBlock: UVAHIK_clean_linker_0, # of connection points: 2
#     Edge 42, Type (0, 1), BuildingBlock: UVAHIK_clean_linker_0, # of connection points: 2
#     Edge 43, Type (0, 1), BuildingBlock: UVAHIK_clean_linker_0, # of connection points: 2
#     Edge 44, Type (0, 1), BuildingBlock: UVAHIK_clean_linker_0, # of connection points: 2
#     Edge 45, Type (0, 1), BuildingBlock: UVAHIK_clean_linker_0, # of connection points: 2
#     Edge 46, Type (0, 1), BuildingBlock: UVAHIK_clean_linker_0, # of connection points: 2
#     Edge 47, Type (0, 1), BuildingBlock: UVAHIK_clean_linker_0, # of connection points: 2
#     Edge 48, Type (0, 1), BuildingBlock: UVAHIK_clean_linker_0, # of connection points: 2
#     Edge 49, Type (0, 1), BuildingBlock: UVAHIK_clean_linker_0, # of connection points: 2
#     Edge 50, Type (0, 1), BuildingBlock: UVAHIK_clean_linker_0, # of connection points: 2
#     Edge 51, Type (0, 1), BuildingBlock: UVAHIK_clean_linker_0, # of connection points: 2
#     Edge 52, Type (0, 1), BuildingBlock: UVAHIK_clean_linker_0, # of connection points: 2
#     Edge 53, Type (0, 1), BuildingBlock: UVAHIK_clean_linker_0, # of connection points: 2
#     Edge 54, Type (0, 1), BuildingBlock: UVAHIK_clean_linker_0, # of connection points: 2
#     Edge 55, Type (0, 1), BuildingBlock: UVAHIK_clean_linker_0, # of connection points: 2
#     Edge 56, Type (0, 1), BuildingBlock: UVAHIK_clean_linker_0, # of connection points: 2
#     Edge 57, Type (0, 1), BuildingBlock: UVAHIK_clean_linker_0, # of connection points: 2
#     Edge 58, Type (0, 1), BuildingBlock: UVAHIK_clean_linker_0, # of connection points: 2
#     Edge 59, Type (0, 1), BuildingBlock: UVAHIK_clean_linker_0, # of connection points: 2
#     Edge 60, Type (0, 1), BuildingBlock: UVAHIK_clean_linker_0, # of connection points: 2
#     Edge 61, Type (0, 1), BuildingBlock: UVAHIK_clean_linker_0, # of connection points: 2
#     Edge 62, Type (0, 1), BuildingBlock: UVAHIK_clean_linker_0, # of connection points: 2
#     Edge 63, Type (0, 1), BuildingBlock: UVAHIK_clean_linker_0, # of connection points: 2
#     Edge 64, Type (0, 1), BuildingBlock: UVAHIK_clean_linker_0, # of connection points: 2
#     Edge 65, Type (0, 1), BuildingBlock: UVAHIK_clean_linker_0, # of connection points: 2
#     Edge 66, Type (0, 1), BuildingBlock: UVAHIK_clean_linker_0, # of connection points: 2
#     Edge 67, Type (0, 1), BuildingBlock: UVAHIK_clean_linker_0, # of connection points: 2
#     Edge 68, Type (0, 1), BuildingBlock: UVAHIK_clean_linker_0, # of connection points: 2
#     Edge 69, Type (0, 1), BuildingBlock: UVAHIK_clean_linker_0, # of connection points: 2
#     Edge 70, Type (0, 1), BuildingBlock: UVAHIK_clean_linker_0, # of connection points: 2
#     Edge 71, Type (0, 1), BuildingBlock: UVAHIK_clean_linker_0, # of connection points: 2
#     Edge 72, Type (0, 1), BuildingBlock: UVAHIK_clean_linker_0, # of connection points: 2
#     Edge 73, Type (0, 1), BuildingBlock: UVAHIK_clean_linker_0, # of connection points: 2
#     Edge 74, Type (0, 1), BuildingBlock: UVAHIK_clean_linker_0, # of connection points: 2
#     Edge 75, Type (0, 1), BuildingBlock: UVAHIK_clean_linker_0, # of connection points: 2
#     Edge 76, Type (0, 1), BuildingBlock: UVAHIK_clean_linker_0, # of connection points: 2
#     Edge 77, Type (0, 1), BuildingBlock: UVAHIK_clean_linker_0, # of connection points: 2
#     Edge 78, Type (0, 1), BuildingBlock: UVAHIK_clean_linker_0, # of connection points: 2
#     Edge 79, Type (0, 1), BuildingBlock: UVAHIK_clean_linker_0, # of connection points: 2
#     Edge 80, Type (0, 1), BuildingBlock: UVAHIK_clean_linker_0, # of connection points: 2
# Relax obj value: 0.035
# Max RMSD: 0.130
# Mean RMSD: 0.069
data_MOF--net-eea--node1-WUSLED_clean_sbu_0--node2-NUHQIS_clean_sbu_0--edge1-UVAHIK_clean_linker_0
_symmetry_space_group_name_H-M    P1
_symmetry_Int_Tables_number       1
_symmetry_cell_setting            triclinic
loop_
_symmetry_equiv_pos_as_xyz
'x, y, z'
_cell_length_a     81.77906
_cell_length_b     82.934372
_cell_length_c     111.53753
_cell_angle_alpha  93.024396
_cell_angle_beta   93.137749
_cell_angle_gamma 119.84128
loop_
_atom_site_label
_atom_site_type_symbol
_atom_site_fract_x
_atom_site_fract_y
_atom_site_fract_z
_atom_type_partial_charge
C0 C 0.24623 0.15312 0.40096 0.0
C1 C 0.24675 0.16752 0.40846 0.0
C2 C 0.23848 0.17943 0.39103 0.0
C3 C 0.24288 0.18055 0.40353 0.0
C4 C 0.23822 0.16506 0.38356 0.0
C5 C 0.24204 0.15201 0.3885 0.0
U6 U 0.26262 0.13568 0.42729 0.0
O7 O 0.25028 0.10763 0.4335 0.0
O8 O 0.27899 0.12117 0.42768 0.0
C9 C 0.26482 0.10582 0.43098 0.0
C10 C 0.2498 0.13909 0.40606 0.0
C11 C 0.26001 0.08856 0.42367 0.0
C12 C 0.24518 0.06752 0.40546 0.0
C13 C 0.25056 0.08447 0.41208 0.0
C14 C 0.25902 0.05882 0.42187 0.0
C15 C 0.24918 0.05441 0.41034 0.0
C16 C 0.26437 0.07575 0.42848 0.0
C17 C 0.27985 0.16319 0.45779 0.0
C18 C 0.28793 0.14992 0.47442 0.0
C19 C 0.2908 0.1804 0.47757 0.0
C20 C 0.28451 0.17909 0.46545 0.0
C21 C 0.29254 0.1658 0.48221 0.0
C22 C 0.28165 0.14864 0.46232 0.0
C23 C 0.27282 0.16162 0.44515 0.0
O24 O 0.2677 0.14448 0.40894 0.0
O25 O 0.23874 0.12997 0.41435 0.0
O26 O 0.25519 0.14832 0.4423 0.0
O27 O 0.28432 0.16216 0.43719 0.0
H28 H 0.24998 0.16856 0.41812 0.0
H29 H 0.24298 0.19128 0.40956 0.0
H30 H 0.23517 0.16396 0.37389 0.0
H31 H 0.24168 0.14101 0.3826 0.0
H32 H 0.23746 0.06448 0.39666 0.0
H33 H 0.24708 0.09425 0.40826 0.0
H34 H 0.26258 0.04917 0.4258 0.0
H35 H 0.27172 0.07876 0.43741 0.0
H36 H 0.28885 0.13832 0.47772 0.0
H37 H 0.29446 0.19291 0.48329 0.0
H38 H 0.28322 0.19046 0.46207 0.0
H39 H 0.27804 0.13622 0.45651 0.0
C40 C 0.9354 0.15723 0.40703 0.0
C41 C 0.94905 0.17309 0.41435 0.0
C42 C 0.96848 0.18414 0.39747 0.0
C43 C 0.96546 0.18643 0.40962 0.0
C44 C 0.95457 0.16829 0.39018 0.0
C45 C 0.93823 0.15499 0.39492 0.0
U46 U 0.90156 0.13703 0.43187 0.0
O47 O 0.87048 0.12022 0.43015 0.0
O48 O 0.88734 0.10836 0.43727 0.0
C49 C 0.87037 0.10537 0.43382 0.0
C50 C 0.9184 0.1426 0.41184 0.0
C51 C 0.85778 0.08768 0.42648 0.0
C52 C 0.84687 0.06841 0.40736 0.0
C53 C 0.85937 0.08537 0.41413 0.0
C54 C 0.83131 0.05597 0.42528 0.0
C55 C 0.83259 0.05354 0.41286 0.0
C56 C 0.84376 0.07287 0.43201 0.0
C57 C 0.9089 0.16294 0.46248 0.0
C58 C 0.89159 0.14702 0.47922 0.0
C59 C 0.90795 0.18078 0.48017 0.0
C60 C 0.91402 0.18013 0.46875 0.0
C61 C 0.89671 0.16423 0.48555 0.0
C62 C 0.89754 0.14637 0.46776 0.0
C63 C 0.91512 0.16238 0.45038 0.0
O64 O 0.92149 0.13427 0.42067 0.0
O65 O 0.90496 0.14653 0.41362 0.0
O66 O 0.9039 0.16216 0.4414 0.0
O67 O 0.92101 0.15044 0.4483 0.0
H68 H 0.94707 0.17506 0.42373 0.0
H69 H 0.97575 0.19856 0.41546 0.0
H70 H 0.95651 0.16589 0.38086 0.0
H71 H 0.92787 0.14279 0.38915 0.0
H72 H 0.84817 0.06706 0.3978 0.0
H73 H 0.87016 0.0967 0.40972 0.0
H74 H 0.82075 0.04473 0.42987 0.0
H75 H 0.84241 0.07439 0.44155 0.0
H76 H 0.88273 0.13402 0.48303 0.0
H77 H 0.91225 0.19426 0.48486 0.0
H78 H 0.92272 0.19305 0.4648 0.0
H79 H 0.89322 0.13293 0.46301 0.0
C80 C 0.87327 0.78485 0.41319 0.0
C81 C 0.86865 0.79688 0.41959 0.0
C82 C 0.84356 0.79023 0.40388 0.0
C83 C 0.85398 0.79955 0.41498 0.0
C84 C 0.84799 0.77789 0.39765 0.0
C85 C 0.8627 0.77531 0.40223 0.0
U86 U 0.90139 0.77297 0.43656 0.0
O87 O 0.91676 0.75774 0.43356 0.0
O88 O 0.93209 0.78687 0.44143 0.0
C89 C 0.93333 0.77257 0.43694 0.0
C90 C 0.88953 0.78269 0.41737 0.0
C91 C 0.94832 0.77673 0.42874 0.0
C92 C 0.97045 0.79663 0.41502 0.0
C93 C 0.95562 0.79259 0.42225 0.0
C94 C 0.97051 0.76875 0.42038 0.0
C95 C 0.97823 0.78485 0.41407 0.0
C96 C 0.95579 0.7648 0.42765 0.0
C97 C 0.88127 0.75759 0.46722 0.0
C98 C 0.8907 0.74232 0.48189 0.0
C99 C 0.86998 0.75408 0.48716 0.0
C100 C 0.87067 0.76034 0.4757 0.0
C101 C 0.8799 0.74491 0.49041 0.0
C102 C 0.89141 0.74865 0.4704 0.0
C103 C 0.88094 0.76371 0.45507 0.0
O104 O 0.90146 0.79477 0.42613 0.0
O105 O 0.8858 0.76552 0.41851 0.0
O106 O 0.8784 0.75177 0.44593 0.0
O107 O 0.89376 0.78099 0.45362 0.0
H108 H 0.87654 0.80447 0.42807 0.0
H109 H 0.85114 0.80931 0.41997 0.0
H110 H 0.84009 0.77021 0.38919 0.0
H111 H 0.86598 0.76597 0.39711 0.0
H112 H 0.9761 0.80922 0.4104 0.0
H113 H 0.95007 0.80202 0.42289 0.0
H114 H 0.97582 0.75913 0.41969 0.0
H115 H 0.95031 0.75244 0.43251 0.0
H116 H 0.89867 0.73549 0.48412 0.0
H117 H 0.86129 0.75608 0.49339 0.0
H118 H 0.86267 0.76714 0.47341 0.0
H119 H 0.89975 0.74645 0.46398 0.0
C120 C 0.0839 0.22443 0.60673 0.0
C121 C 0.07157 0.22849 0.60005 0.0
C122 C 0.05028 0.21913 0.61609 0.0
C123 C 0.05488 0.22585 0.60469 0.0
C124 C 0.06278 0.2151 0.62269 0.0
C125 C 0.07939 0.21774 0.61806 0.0
U126 U 0.1204 0.23804 0.58306 0.0
O127 O 0.1515 0.2525 0.58616 0.0
O128 O 0.13582 0.22389 0.57745 0.0
C129 C 0.15234 0.23785 0.58196 0.0
C130 C 0.10147 0.22687 0.60213 0.0
C131 C 0.16421 0.23286 0.58948 0.0
C132 C 0.16968 0.21919 0.60695 0.0
C133 C 0.15817 0.22407 0.60009 0.0
C134 C 0.19338 0.23202 0.59272 0.0
C135 C 0.18739 0.223 0.60329 0.0
C136 C 0.18189 0.23687 0.5859 0.0
C137 C 0.11478 0.25636 0.55324 0.0
C138 C 0.13074 0.25638 0.53543 0.0
C139 C 0.11672 0.27602 0.53731 0.0
C140 C 0.11082 0.26949 0.5485 0.0
C141 C 0.12666 0.26947 0.53056 0.0
C142 C 0.12493 0.24995 0.54666 0.0
C143 C 0.10814 0.24948 0.56498 0.0
O144 O 0.09934 0.21549 0.59275 0.0
O145 O 0.11492 0.24417 0.60138 0.0
O146 O 0.11851 0.26055 0.57456 0.0
O147 O 0.10259 0.23181 0.56605 0.0
H148 H 0.07485 0.2337 0.59127 0.0
H149 H 0.04569 0.22925 0.5994 0.0
H150 H 0.0596 0.20961 0.63139 0.0
H151 H 0.08871 0.21445 0.62332 0.0
H152 H 0.16456 0.21214 0.61498 0.0
H153 H 0.14453 0.22088 0.60299 0.0
H154 H 0.20704 0.23548 0.58975 0.0
H155 H 0.18683 0.24374 0.57777 0.0
H156 H 0.13816 0.25083 0.53047 0.0
H157 H 0.11361 0.28634 0.53401 0.0
H158 H 0.10313 0.27472 0.55346 0.0
H159 H 0.12824 0.23987 0.55016 0.0
C160 C 0.76936 0.84996 0.61922 0.0
C161 C 0.76395 0.83335 0.61209 0.0
C162 C 0.77655 0.82274 0.62822 0.0
C163 C 0.76749 0.81983 0.61656 0.0
C164 C 0.78169 0.83935 0.63537 0.0
C165 C 0.77812 0.85285 0.63089 0.0
U166 U 0.7549 0.86947 0.59323 0.0
O167 O 0.73952 0.88494 0.59286 0.0
O168 O 0.76856 0.89794 0.58759 0.0
C169 C 0.75416 0.90017 0.58983 0.0
C170 C 0.76658 0.86464 0.6144 0.0
C171 C 0.75903 0.91746 0.59712 0.0
C172 C 0.77021 0.93694 0.61613 0.0
C173 C 0.76534 0.92018 0.6094 0.0
C174 C 0.76246 0.94827 0.59833 0.0
C175 C 0.76883 0.95118 0.61065 0.0
C176 C 0.7576 0.93155 0.59164 0.0
C177 C 0.73781 0.84338 0.56229 0.0
C178 C 0.73617 0.8592 0.54493 0.0
C179 C 0.72066 0.82542 0.54339 0.0
C180 C 0.72691 0.82615 0.55544 0.0
C181 C 0.72533 0.84196 0.53799 0.0
C182 C 0.74227 0.8599 0.55699 0.0
C183 C 0.74428 0.8441 0.57497 0.0
O184 O 0.7781 0.87384 0.60635 0.0
O185 O 0.74891 0.85997 0.61136 0.0
O186 O 0.73272 0.84371 0.58283 0.0
O187 O 0.76208 0.8567 0.57819 0.0
H188 H 0.75717 0.83093 0.60303 0.0
H189 H 0.76313 0.8071 0.61088 0.0
H190 H 0.7889 0.84215 0.64432 0.0
H191 H 0.78248 0.86566 0.63647 0.0
H192 H 0.7749 0.93868 0.62562 0.0
H193 H 0.76652 0.90938 0.61375 0.0
H194 H 0.76154 0.95905 0.59378 0.0
H195 H 0.75285 0.92967 0.58214 0.0
H196 H 0.73975 0.87215 0.54108 0.0
H197 H 0.71242 0.81196 0.53823 0.0
H198 H 0.72328 0.81326 0.55941 0.0
H199 H 0.75048 0.87334 0.56219 0.0
C200 C 0.08107 0.85396 0.60722 0.0
C201 C 0.07433 0.83473 0.60505 0.0
C202 C 0.04798 0.82775 0.61717 0.0
C203 C 0.05796 0.82176 0.61 0.0
C204 C 0.05462 0.84702 0.61908 0.0
C205 C 0.071 0.85995 0.61418 0.0
U206 U 0.117 0.87315 0.58333 0.0
O207 O 0.1333 0.90182 0.57822 0.0
O208 O 0.14819 0.88832 0.58595 0.0
C209 C 0.1496 0.9038 0.58242 0.0
C210 C 0.09884 0.86808 0.60275 0.0
C211 C 0.1624 0.92105 0.59023 0.0
C212 C 0.16825 0.94821 0.60327 0.0
C213 C 0.15561 0.9313 0.59653 0.0
C214 C 0.19455 0.94455 0.59781 0.0
C215 C 0.18791 0.95516 0.60388 0.0
C216 C 0.18193 0.92773 0.59103 0.0
C217 C 0.10938 0.84695 0.5527 0.0
C218 C 0.1306 0.86146 0.53721 0.0
C219 C 0.1056 0.82912 0.53373 0.0
C220 C 0.09985 0.83024 0.54518 0.0
C221 C 0.12102 0.84474 0.52957 0.0
C222 C 0.12485 0.86254 0.54867 0.0
C223 C 0.10301 0.84807 0.56464 0.0
O224 O 0.11191 0.86345 0.60144 0.0
O225 O 0.09703 0.87708 0.59389 0.0
O226 O 0.09835 0.86099 0.56648 0.0
O227 O 0.11341 0.84747 0.57383 0.0
H228 H 0.08183 0.82974 0.59968 0.0
H229 H 0.05339 0.80707 0.60843 0.0
H230 H 0.04714 0.85216 0.62434 0.0
H231 H 0.07591 0.87471 0.61592 0.0
H232 H 0.16262 0.95606 0.60772 0.0
H233 H 0.14058 0.92642 0.5961 0.0
H234 H 0.20954 0.94925 0.59827 0.0
H235 H 0.18747 0.92 0.58629 0.0
H236 H 0.14237 0.87382 0.53427 0.0
H237 H 0.09808 0.81596 0.52818 0.0
H238 H 0.08792 0.81805 0.54817 0.0
H239 H 0.13239 0.87558 0.55437 0.0
C240 C 0.91202 0.48641 0.73361 0.0
C241 C 0.91297 0.50112 0.74099 0.0
C242 C 0.90433 0.51266 0.72351 0.0
C243 C 0.90913 0.51412 0.73599 0.0
C244 C 0.90361 0.49796 0.71615 0.0
C245 C 0.90742 0.48494 0.72117 0.0
U246 U 0.92849 0.46937 0.76011 0.0
O247 O 0.91616 0.44145 0.76653 0.0
O248 O 0.94485 0.45486 0.76067 0.0
C249 C 0.9307 0.43959 0.76407 0.0
C250 C 0.91558 0.47243 0.7388 0.0
C251 C 0.92588 0.42221 0.75691 0.0
C252 C 0.911 0.40081 0.73884 0.0
C253 C 0.9163 0.41784 0.74534 0.0
C254 C 0.92515 0.39258 0.75533 0.0
C255 C 0.91519 0.3879 0.74382 0.0
C256 C 0.93041 0.40958 0.76182 0.0
C257 C 0.94589 0.49767 0.79042 0.0
C258 C 0.95344 0.48477 0.80748 0.0
C259 C 0.95764 0.51586 0.80986 0.0
C260 C 0.95125 0.5141 0.79771 0.0
C261 C 0.95875 0.50118 0.81491 0.0
C262 C 0.94709 0.48304 0.79534 0.0
C263 C 0.93878 0.49568 0.77774 0.0
O264 O 0.93348 0.47782 0.74167 0.0
O265 O 0.90456 0.46348 0.74714 0.0
O266 O 0.92115 0.48232 0.77498 0.0
O267 O 0.95025 0.496 0.76983 0.0
H268 H 0.91651 0.50244 0.75063 0.0
H269 H 0.90957 0.52511 0.74194 0.0
H270 H 0.90024 0.49658 0.70649 0.0
H271 H 0.90671 0.4737 0.71534 0.0
H272 H 0.90319 0.39757 0.73005 0.0
H273 H 0.91268 0.42748 0.74143 0.0
H274 H 0.92886 0.38308 0.75934 0.0
H275 H 0.93787 0.4128 0.77073 0.0
H276 H 0.95387 0.4731 0.8111 0.0
H277 H 0.96186 0.52878 0.81528 0.0
H278 H 0.95045 0.52554 0.79402 0.0
H279 H 0.94294 0.47022 0.78982 0.0
C280 C 0.60307 0.49275 0.74133 0.0
C281 C 0.61686 0.50847 0.7487 0.0
C282 C 0.63591 0.51983 0.73169 0.0
C283 C 0.63316 0.5219 0.74391 0.0
C284 C 0.62184 0.50414 0.72435 0.0
C285 C 0.60561 0.49075 0.72914 0.0
U286 U 0.56913 0.47206 0.7661 0.0
O287 O 0.53811 0.45443 0.76427 0.0
O288 O 0.55569 0.44345 0.77163 0.0
C289 C 0.53859 0.43976 0.76778 0.0
C290 C 0.58626 0.47793 0.74619 0.0
C291 C 0.52674 0.42184 0.76032 0.0
C292 C 0.50569 0.40353 0.74248 0.0
C293 C 0.51775 0.42085 0.74897 0.0
C294 C 0.51178 0.38799 0.75844 0.0
C295 C 0.5024 0.38686 0.74719 0.0
C296 C 0.52373 0.40526 0.76493 0.0
C297 C 0.57558 0.49807 0.79653 0.0
C298 C 0.55413 0.48269 0.81175 0.0
C299 C 0.57876 0.51511 0.81573 0.0
C300 C 0.58482 0.51454 0.8043 0.0
C301 C 0.56335 0.49918 0.81961 0.0
C302 C 0.56018 0.48215 0.80031 0.0
C303 C 0.58199 0.49757 0.78452 0.0
O304 O 0.58962 0.46996 0.75513 0.0
O305 O 0.57246 0.4814 0.74781 0.0
O306 O 0.57065 0.4969 0.77544 0.0
O307 O 0.58822 0.48586 0.78265 0.0
H308 H 0.6151 0.51025 0.75814 0.0
H309 H 0.64359 0.5339 0.74978 0.0
H310 H 0.62358 0.50192 0.71497 0.0
H311 H 0.59514 0.47866 0.72334 0.0
H312 H 0.49858 0.4032 0.73392 0.0
H313 H 0.51977 0.43339 0.74516 0.0
H314 H 0.50989 0.3755 0.76225 0.0
H315 H 0.53049 0.40565 0.77366 0.0
H316 H 0.54207 0.47025 0.81436 0.0
H317 H 0.58632 0.52796 0.8216 0.0
H318 H 0.59675 0.52695 0.80153 0.0
H319 H 0.55281 0.46933 0.7944 0.0
C320 C 0.54206 0.12019 0.74603 0.0
C321 C 0.52996 0.12167 0.75391 0.0
C322 C 0.51245 0.12587 0.73708 0.0
C323 C 0.51529 0.1245 0.74948 0.0
C324 C 0.52444 0.124 0.72923 0.0
C325 C 0.53908 0.12121 0.73367 0.0
U326 U 0.56867 0.10783 0.76998 0.0
O327 O 0.58461 0.09313 0.76761 0.0
O328 O 0.59925 0.12214 0.77562 0.0
C329 C 0.60095 0.108 0.7714 0.0
C330 C 0.5581 0.11802 0.75048 0.0
C331 C 0.61642 0.11264 0.76359 0.0
C332 C 0.62903 0.11886 0.74402 0.0
C333 C 0.61422 0.11474 0.7513 0.0
C334 C 0.64845 0.11909 0.76129 0.0
C335 C 0.64633 0.12099 0.74892 0.0
C336 C 0.63365 0.11495 0.76853 0.0
C337 C 0.54615 0.09131 0.7999 0.0
C338 C 0.55821 0.08041 0.81612 0.0
C339 C 0.53045 0.08328 0.81834 0.0
C340 C 0.53169 0.08954 0.80686 0.0
C341 C 0.54369 0.07864 0.82316 0.0
C342 C 0.55945 0.08673 0.80458 0.0
C343 C 0.54676 0.09777 0.78778 0.0
O344 O 0.5692 0.12985 0.75959 0.0
O345 O 0.55427 0.10082 0.75159 0.0
O346 O 0.54507 0.08612 0.7787 0.0
O347 O 0.55969 0.11515 0.78669 0.0
H348 H 0.53202 0.12089 0.7635 0.0
H349 H 0.50646 0.12603 0.7558 0.0
H350 H 0.52248 0.12462 0.71962 0.0
H351 H 0.54821 0.11999 0.72744 0.0
H352 H 0.6268 0.12004 0.73453 0.0
H353 H 0.60101 0.11305 0.74732 0.0
H354 H 0.66164 0.12096 0.76544 0.0
H355 H 0.63566 0.11351 0.77802 0.0
H356 H 0.56873 0.07712 0.81957 0.0
H357 H 0.51889 0.08179 0.82338 0.0
H358 H 0.52123 0.09292 0.80337 0.0
H359 H 0.57074 0.08804 0.79934 0.0
C360 C 0.74945 0.55659 0.93912 0.0
C361 C 0.73706 0.5606 0.93245 0.0
C362 C 0.71613 0.55178 0.94868 0.0
C363 C 0.72052 0.5582 0.93718 0.0
C364 C 0.72868 0.54782 0.95528 0.0
C365 C 0.74514 0.55022 0.95054 0.0
U366 U 0.78539 0.5694 0.91514 0.0
O367 O 0.81646 0.58369 0.91789 0.0
O368 O 0.80048 0.55487 0.90953 0.0
C369 C 0.81711 0.56885 0.91385 0.0
C370 C 0.76686 0.55876 0.93442 0.0
C371 C 0.8291 0.56396 0.92136 0.0
C372 C 0.83952 0.55829 0.94073 0.0
C373 C 0.82754 0.56247 0.93377 0.0
C374 C 0.85448 0.55675 0.92289 0.0
C375 C 0.85325 0.55551 0.93538 0.0
C376 C 0.84254 0.56095 0.91597 0.0
C377 C 0.77917 0.58713 0.88526 0.0
C378 C 0.80306 0.59744 0.87094 0.0
C379 C 0.77312 0.59587 0.86576 0.0
C380 C 0.76723 0.58956 0.87699 0.0
C381 C 0.79111 0.59991 0.86257 0.0
C382 C 0.79712 0.59107 0.88217 0.0
C383 C 0.7727 0.58048 0.89704 0.0
O384 O 0.76446 0.54717 0.9251 0.0
O385 O 0.78037 0.57597 0.93349 0.0
O386 O 0.78329 0.59166 0.90654 0.0
O387 O 0.76734 0.56287 0.89816 0.0
H388 H 0.74019 0.56556 0.9236 0.0
H389 H 0.71129 0.56155 0.9319 0.0
H390 H 0.72565 0.54256 0.96405 0.0
H391 H 0.7545 0.54698 0.9558 0.0
H392 H 0.83827 0.5576 0.95033 0.0
H393 H 0.81719 0.56472 0.93809 0.0
H394 H 0.8646 0.55435 0.91841 0.0
H395 H 0.84387 0.56193 0.90639 0.0
H396 H 0.8169 0.60019 0.86874 0.0
H397 H 0.76365 0.59784 0.85963 0.0
H398 H 0.75335 0.58663 0.87923 0.0
H399 H 0.80652 0.58919 0.88843 0.0
C400 C 0.44076 0.18801 0.95276 0.0
C401 C 0.42926 0.16896 0.94893 0.0
C402 C 0.44905 0.16161 0.96203 0.0
C403 C 0.43331 0.15587 0.95358 0.0
C404 C 0.46051 0.18076 0.96582 0.0
C405 C 0.45635 0.19381 0.96124 0.0
U406 U 0.42319 0.20515 0.92679 0.0
O407 O 0.407 0.21981 0.92664 0.0
O408 O 0.43547 0.23313 0.92042 0.0
C409 C 0.42106 0.23506 0.92314 0.0
C410 C 0.43709 0.20207 0.94772 0.0
C411 C 0.42608 0.25241 0.93039 0.0
C412 C 0.43804 0.27211 0.94931 0.0
C413 C 0.43302 0.25534 0.94257 0.0
C414 C 0.42919 0.2831 0.93176 0.0
C415 C 0.43619 0.2862 0.94397 0.0
C416 C 0.42417 0.26634 0.92504 0.0
C417 C 0.40429 0.17677 0.89658 0.0
C418 C 0.39578 0.1897 0.87993 0.0
C419 C 0.39273 0.15912 0.87695 0.0
C420 C 0.39935 0.16069 0.88903 0.0
C421 C 0.39101 0.17368 0.87225 0.0
C422 C 0.40236 0.19123 0.892 0.0
C423 C 0.41192 0.17871 0.90912 0.0
O424 O 0.44772 0.21083 0.93918 0.0
O425 O 0.41918 0.19709 0.94532 0.0
O426 O 0.40092 0.17854 0.91733 0.0
O427 O 0.42966 0.19197 0.91158 0.0
H428 H 0.41721 0.16419 0.94232 0.0
H429 H 0.42403 0.14124 0.95058 0.0
H430 H 0.47292 0.18574 0.97214 0.0
H431 H 0.46548 0.20848 0.96421 0.0
H432 H 0.44321 0.27399 0.95872 0.0
H433 H 0.43458 0.24467 0.94682 0.0
H434 H 0.42788 0.29375 0.92731 0.0
H435 H 0.41892 0.26431 0.91563 0.0
H436 H 0.39438 0.20104 0.87663 0.0
H437 H 0.38936 0.1467 0.87124 0.0
H438 H 0.40083 0.14944 0.89244 0.0
H439 H 0.40608 0.20374 0.89774 0.0
C440 C 0.74999 0.18317 0.94168 0.0
C441 C 0.73179 0.17809 0.93655 0.0
C442 C 0.71735 0.15637 0.9518 0.0
C443 C 0.71567 0.16487 0.94157 0.0
C444 C 0.73559 0.16129 0.95679 0.0
C445 C 0.7517 0.17458 0.95181 0.0
U446 U 0.7845 0.20409 0.91718 0.0
O447 O 0.79936 0.23281 0.91199 0.0
O448 O 0.81567 0.22034 0.91908 0.0
C449 C 0.81617 0.23543 0.91554 0.0
C450 C 0.76731 0.19803 0.93706 0.0
C451 C 0.8288 0.25291 0.92306 0.0
C452 C 0.83531 0.27491 0.94043 0.0
C453 C 0.82327 0.25777 0.93372 0.0
C454 C 0.85858 0.28224 0.92598 0.0
C455 C 0.85304 0.28744 0.93656 0.0
C456 C 0.84655 0.26516 0.91931 0.0
C457 C 0.77623 0.17819 0.88638 0.0
C458 C 0.79717 0.19302 0.87082 0.0
C459 C 0.772 0.16077 0.86715 0.0
C460 C 0.76647 0.16166 0.87871 0.0
C461 C 0.78741 0.17645 0.86305 0.0
C462 C 0.79164 0.19386 0.88239 0.0
C463 C 0.77031 0.17898 0.89851 0.0
O464 O 0.78078 0.19411 0.93531 0.0
O465 O 0.76491 0.2072 0.92852 0.0
O466 O 0.76507 0.19141 0.90066 0.0
O467 O 0.78144 0.17884 0.90741 0.0
H468 H 0.72993 0.18451 0.92878 0.0
H469 H 0.70189 0.16165 0.93757 0.0
H470 H 0.73746 0.15485 0.96454 0.0
H471 H 0.76555 0.17828 0.95597 0.0
H472 H 0.83056 0.27853 0.94847 0.0
H473 H 0.80957 0.24843 0.93675 0.0
H474 H 0.87225 0.29138 0.92286 0.0
H475 H 0.85107 0.26157 0.91113 0.0
H476 H 0.80894 0.20542 0.86793 0.0
H477 H 0.76434 0.14772 0.86149 0.0
H478 H 0.7546 0.1494 0.88168 0.0
H479 H 0.79934 0.20677 0.8882 0.0
C480 C 0.58229 0.82266 0.06657 0.0
C481 C 0.58679 0.83913 0.07357 0.0
C482 C 0.57378 0.84874 0.05708 0.0
C483 C 0.58259 0.85207 0.06886 0.0
C484 C 0.56959 0.83231 0.05005 0.0
C485 C 0.5738 0.81937 0.05478 0.0
U486 U 0.59864 0.8053 0.0929 0.0
O487 O 0.5861 0.77735 0.09928 0.0
O488 O 0.61477 0.79055 0.0934 0.0
C489 C 0.60053 0.77533 0.0968 0.0
C490 C 0.5858 0.80857 0.07164 0.0
C491 C 0.59554 0.75791 0.08962 0.0
C492 C 0.58021 0.73642 0.07164 0.0
C493 C 0.58575 0.75352 0.07812 0.0
C494 C 0.59459 0.72818 0.08801 0.0
C495 C 0.58439 0.72346 0.07657 0.0
C496 C 0.60008 0.74526 0.09447 0.0
C497 C 0.61593 0.83336 0.1233 0.0
C498 C 0.62306 0.82019 0.14038 0.0
C499 C 0.6274 0.85134 0.14283 0.0
C500 C 0.62125 0.84974 0.13065 0.0
C501 C 0.6283 0.83655 0.14786 0.0
C502 C 0.61694 0.81863 0.12821 0.0
C503 C 0.60898 0.83152 0.11061 0.0
O504 O 0.60368 0.81387 0.07451 0.0
O505 O 0.57474 0.79958 0.07995 0.0
O506 O 0.59132 0.81826 0.10778 0.0
O507 O 0.62048 0.8318 0.10273 0.0
H508 H 0.59337 0.84186 0.08271 0.0
H509 H 0.58624 0.86469 0.07445 0.0
H510 H 0.5626 0.8292 0.04101 0.0
H511 H 0.57017 0.80667 0.04928 0.0
H512 H 0.57223 0.73314 0.06291 0.0
H513 H 0.58212 0.76318 0.07426 0.0
H514 H 0.5983 0.71866 0.09198 0.0
H515 H 0.60771 0.7485 0.10333 0.0
H516 H 0.62334 0.80845 0.14398 0.0
H517 H 0.63157 0.86421 0.14829 0.0
H518 H 0.62058 0.86125 0.12697 0.0
H519 H 0.61282 0.80585 0.12265 0.0
C520 C 0.27166 0.82061 0.07501 0.0
C521 C 0.27809 0.83979 0.07692 0.0
C522 C 0.30472 0.84687 0.06505 0.0
C523 C 0.29443 0.85279 0.07197 0.0
C524 C 0.29834 0.82764 0.06336 0.0
C525 C 0.28198 0.81468 0.06825 0.0
U526 U 0.23616 0.80169 0.09915 0.0
O527 O 0.20504 0.78596 0.09687 0.0
O528 O 0.22057 0.77312 0.10463 0.0
C529 C 0.20401 0.77082 0.10075 0.0
C530 C 0.25405 0.80644 0.07963 0.0
C531 C 0.19124 0.75325 0.09336 0.0
C532 C 0.18074 0.73388 0.07428 0.0
C533 C 0.19336 0.75073 0.08112 0.0
C534 C 0.16398 0.72197 0.09191 0.0
C535 C 0.16582 0.71933 0.0796 0.0
C536 C 0.17655 0.73877 0.0987 0.0
C537 C 0.24323 0.82813 0.12945 0.0
C538 C 0.22055 0.81369 0.1442 0.0
C539 C 0.24729 0.84497 0.14889 0.0
C540 C 0.25345 0.84416 0.13752 0.0
C541 C 0.23079 0.82972 0.15239 0.0
C542 C 0.22671 0.81292 0.13284 0.0
C543 C 0.2499 0.82721 0.11758 0.0
O544 O 0.25621 0.79784 0.08863 0.0
O545 O 0.24077 0.81079 0.08087 0.0
O546 O 0.23938 0.82741 0.10831 0.0
O547 O 0.25499 0.81457 0.11589 0.0
H548 H 0.27039 0.84474 0.08213 0.0
H549 H 0.29879 0.86745 0.07337 0.0
H550 H 0.30606 0.82255 0.0583 0.0
H551 H 0.27731 0.79995 0.06671 0.0
H552 H 0.18248 0.73237 0.06481 0.0
H553 H 0.20467 0.76181 0.07686 0.0
H554 H 0.15292 0.71097 0.09636 0.0
H555 H 0.17479 0.74045 0.10816 0.0
H556 H 0.20766 0.8018 0.14652 0.0
H557 H 0.25563 0.85743 0.15502 0.0
H558 H 0.26626 0.85601 0.13506 0.0
H559 H 0.2186 0.80043 0.12669 0.0
C560 C 0.20607 0.4518 0.08042 0.0
C561 C 0.20134 0.46372 0.08685 0.0
C562 C 0.17628 0.45705 0.07111 0.0
C563 C 0.18663 0.46633 0.08223 0.0
C564 C 0.18082 0.44483 0.06485 0.0
C565 C 0.19557 0.4423 0.06943 0.0
U566 U 0.23417 0.43989 0.10378 0.0
O567 O 0.24968 0.4248 0.10078 0.0
O568 O 0.26485 0.45388 0.10875 0.0
C569 C 0.26621 0.43965 0.10424 0.0
C570 C 0.22237 0.4497 0.08461 0.0
C571 C 0.2813 0.44394 0.09613 0.0
C572 C 0.30337 0.46387 0.08238 0.0
C573 C 0.28842 0.45969 0.08953 0.0
C574 C 0.30394 0.43636 0.08803 0.0
C575 C 0.31147 0.45235 0.08162 0.0
C576 C 0.28909 0.43226 0.09521 0.0
C577 C 0.21378 0.42415 0.13432 0.0
C578 C 0.22416 0.40987 0.1492 0.0
C579 C 0.2016 0.41953 0.15401 0.0
C580 C 0.20227 0.42581 0.14256 0.0
C581 C 0.21248 0.41141 0.15749 0.0
C582 C 0.22484 0.41623 0.13772 0.0
C583 C 0.21353 0.43036 0.1222 0.0
O584 O 0.23421 0.46174 0.09342 0.0
O585 O 0.21872 0.43254 0.08569 0.0
O586 O 0.21115 0.41852 0.11304 0.0
O587 O 0.22634 0.44768 0.12083 0.0
H588 H 0.20917 0.47128 0.09534 0.0
H589 H 0.18371 0.47601 0.08725 0.0
H590 H 0.17297 0.43718 0.05638 0.0
H591 H 0.19893 0.43304 0.0643 0.0
H592 H 0.30886 0.47638 0.07768 0.0
H593 H 0.28262 0.46891 0.09003 0.0
H594 H 0.30949 0.42693 0.08749 0.0
H595 H 0.28376 0.41999 0.10016 0.0
H596 H 0.23286 0.40387 0.15161 0.0
H597 H 0.19223 0.42069 0.16005 0.0
H598 H 0.19357 0.43181 0.14009 0.0
H599 H 0.23388 0.41487 0.13149 0.0
C600 C 0.41682 0.88996 0.27244 0.0
C601 C 0.40435 0.89382 0.26573 0.0
C602 C 0.38358 0.88528 0.28205 0.0
C603 C 0.38785 0.89148 0.27049 0.0
C604 C 0.39623 0.88149 0.28868 0.0
C605 C 0.41265 0.88382 0.28392 0.0
U606 U 0.45263 0.90279 0.24841 0.0
O607 O 0.48369 0.91669 0.25111 0.0
O608 O 0.46736 0.88802 0.24251 0.0
C609 C 0.48407 0.90176 0.24693 0.0
C610 C 0.43415 0.892 0.26768 0.0
C611 C 0.49571 0.8964 0.25439 0.0
C612 C 0.50589 0.89041 0.27373 0.0
C613 C 0.49442 0.8953 0.26685 0.0
C614 C 0.51983 0.88744 0.25574 0.0
C615 C 0.51874 0.88641 0.26825 0.0
C616 C 0.50844 0.89239 0.2489 0.0
C617 C 0.44621 0.92108 0.21874 0.0
C618 C 0.4696 0.93125 0.20409 0.0
C619 C 0.43974 0.93012 0.19946 0.0
C620 C 0.43416 0.92376 0.21072 0.0
C621 C 0.45753 0.93395 0.19598 0.0
C622 C 0.46396 0.92483 0.21536 0.0
C623 C 0.43999 0.91433 0.23055 0.0
O624 O 0.43161 0.8805 0.25828 0.0
O625 O 0.44779 0.90919 0.26685 0.0
O626 O 0.45082 0.92536 0.24003 0.0
O627 O 0.43448 0.89666 0.23152 0.0
H628 H 0.40737 0.89861 0.25683 0.0
H629 H 0.37855 0.89471 0.26517 0.0
H630 H 0.3933 0.87639 0.2975 0.0
H631 H 0.42208 0.88069 0.28921 0.0
H632 H 0.50456 0.88957 0.28332 0.0
H633 H 0.48458 0.89825 0.27125 0.0
H634 H 0.52973 0.88471 0.25124 0.0
H635 H 0.50965 0.89319 0.23929 0.0
H636 H 0.48329 0.93385 0.20167 0.0
H637 H 0.4302 0.93228 0.19354 0.0
H638 H 0.42042 0.92097 0.21319 0.0
H639 H 0.47343 0.92276 0.22143 0.0
C640 C 0.10415 0.51657 0.28525 0.0
C641 C 0.09885 0.50005 0.27804 0.0
C642 C 0.1115 0.48938 0.29409 0.0
C643 C 0.10248 0.48655 0.28243 0.0
C644 C 0.11663 0.50594 0.30129 0.0
C645 C 0.11298 0.51942 0.2969 0.0
U646 U 0.08763 0.53554 0.25989 0.0
O647 O 0.07179 0.55062 0.26044 0.0
O648 O 0.10023 0.56386 0.25413 0.0
C649 C 0.08611 0.566 0.25728 0.0
C650 C 0.10088 0.53106 0.28064 0.0
C651 C 0.09132 0.58321 0.26492 0.0
C652 C 0.11353 0.60952 0.27901 0.0
C653 C 0.10853 0.59277 0.27225 0.0
C654 C 0.08391 0.60701 0.27153 0.0
C655 C 0.10135 0.61694 0.27865 0.0
C656 C 0.079 0.59036 0.2647 0.0
C657 C 0.06898 0.50904 0.22911 0.0
C658 C 0.06128 0.52336 0.21296 0.0
C659 C 0.05715 0.49243 0.20918 0.0
C660 C 0.06361 0.4932 0.22119 0.0
C661 C 0.05602 0.50756 0.20491 0.0
C662 C 0.06769 0.52408 0.22495 0.0
C663 C 0.07631 0.51008 0.2416 0.0
O664 O 0.11174 0.54023 0.27229 0.0
O665 O 0.08303 0.52617 0.27811 0.0
O666 O 0.06523 0.50958 0.24985 0.0
O667 O 0.09411 0.52304 0.24433 0.0
H668 H 0.09199 0.49766 0.26901 0.0
H669 H 0.09814 0.47386 0.27671 0.0
H670 H 0.12382 0.50867 0.31024 0.0
H671 H 0.11722 0.53215 0.30255 0.0
H672 H 0.12716 0.61686 0.28427 0.0
H673 H 0.11826 0.58747 0.27264 0.0
H674 H 0.07401 0.61209 0.27121 0.0
H675 H 0.0656 0.58311 0.25917 0.0
H676 H 0.06034 0.53512 0.21 0.0
H677 H 0.05339 0.48016 0.20319 0.0
H678 H 0.06458 0.4815 0.22426 0.0
H679 H 0.07175 0.53642 0.23098 0.0
C680 C 0.41592 0.51923 0.27534 0.0
C681 C 0.39991 0.50621 0.26776 0.0
C682 C 0.3829 0.49297 0.28529 0.0
C683 C 0.38353 0.49321 0.27269 0.0
C684 C 0.39916 0.50586 0.29279 0.0
C685 C 0.41546 0.51885 0.28786 0.0
U686 U 0.44993 0.53875 0.25049 0.0
O687 O 0.46483 0.5673 0.24499 0.0
O688 O 0.48109 0.55492 0.2523 0.0
C689 C 0.48163 0.56993 0.24857 0.0
C690 C 0.43307 0.53363 0.27048 0.0
C691 C 0.49434 0.58753 0.25596 0.0
C692 C 0.50132 0.60953 0.27341 0.0
C693 C 0.48915 0.59236 0.26677 0.0
C694 C 0.52402 0.61698 0.25857 0.0
C695 C 0.51885 0.62211 0.26932 0.0
C696 C 0.51187 0.59987 0.25196 0.0
C697 C 0.44191 0.51233 0.22 0.0
C698 C 0.46311 0.52713 0.20456 0.0
C699 C 0.43816 0.4948 0.2009 0.0
C700 C 0.43237 0.49573 0.21238 0.0
C701 C 0.45358 0.51051 0.19684 0.0
C702 C 0.45735 0.52802 0.21604 0.0
C703 C 0.43578 0.51322 0.23206 0.0
O704 O 0.44631 0.52938 0.26878 0.0
O705 O 0.43031 0.54215 0.26164 0.0
O706 O 0.43048 0.52565 0.23401 0.0
O707 O 0.44682 0.51324 0.24107 0.0
H708 H 0.39999 0.50626 0.25805 0.0
H709 H 0.37124 0.48361 0.26663 0.0
H710 H 0.39934 0.50587 0.30251 0.0
H711 H 0.42772 0.52872 0.29386 0.0
H712 H 0.49684 0.6131 0.2816 0.0
H713 H 0.47563 0.58296 0.26999 0.0
H714 H 0.53754 0.62616 0.25527 0.0
H715 H 0.51613 0.59631 0.24366 0.0
H716 H 0.47519 0.5394 0.20179 0.0
H717 H 0.43038 0.48185 0.19515 0.0
H718 H 0.42042 0.48348 0.21529 0.0
H719 H 0.46495 0.54095 0.22184 0.0
Tb720 Tb 0.50412 0.99417 0.99539 0.0
Eu721 Eu 0.51753 0.01472 0.02345 0.0
C722 C 0.51909 0.97824 0.01555 0.0
C723 C 0.47586 0.97969 0.01552 0.0
C724 C 0.49932 0.98869 0.96189 0.0
C725 C 0.4982 0.98456 0.94006 0.0
C726 C 0.49416 0.97699 0.95118 0.0
C727 C 0.50843 0.0081 0.96136 0.0
C728 C 0.51248 0.01569 0.95024 0.0
C729 C 0.50755 0.00402 0.93944 0.0
C730 C 0.49602 0.9806 0.97358 0.0
O731 O 0.49345 0.01352 0.99698 0.0
O732 O 0.51372 0.03474 0.0125 0.0
O733 O 0.54387 0.0259 0.0135 0.0
O734 O 0.52951 0.02087 0.99436 0.0
C735 C 0.50125 0.03001 1.00314 0.0
O736 O 0.51363 0.0288 0.03921 0.0
O737 O 0.5365 0.02271 0.03994 0.0
O738 O 0.51414 0.98628 0.02386 0.0
O739 O 0.51989 0.98262 1.00436 0.0
O740 O 0.48206 0.97499 1.00605 0.0
O741 O 0.4859 0.99603 0.02177 0.0
C742 C 0.54472 0.02891 1.00203 0.0
O743 O 0.51118 0.98383 0.98015 0.0
O744 O 0.48441 0.98295 0.98002 0.0
C745 C 0.52145 0.02059 0.0577 0.0
C746 C 0.51127 0.00575 0.08014 0.0
C747 C 0.52319 0.02507 0.07954 0.0
C748 C 0.52822 0.03239 0.06843 0.0
C749 C 0.50952 1.00133 0.05819 0.0
C750 C 0.50449 0.99398 0.0693 0.0
C751 C 0.52687 0.02841 0.04605 0.0
H752 H 0.49393 0.97513 0.93194 0.0
H753 H 0.48715 0.96198 0.95142 0.0
H754 H 0.51264 0.01738 0.96955 0.0
H755 H 0.51988 0.03073 0.95014 0.0
H756 H 0.52846 0.03459 0.08766 0.0
H757 H 0.53738 0.0473 0.06822 0.0
H758 H 0.50416 0.99198 0.04998 0.0
H759 H 0.49549 0.97903 0.0694 0.0
Tb760 Tb 0.0194 0.50791 0.99727 0.0
Eu761 Eu 0.99647 0.49762 0.02169 0.0
C762 C 0.03285 0.53769 0.01949 0.0
C763 C 0.03354 0.49447 0.01955 0.0
C764 C 0.02949 0.51435 0.96537 0.0
C765 C 0.03697 0.52034 0.94474 0.0
C766 C 0.04282 0.52121 0.95689 0.0
C767 C 0.0102 0.50662 0.96161 0.0
C768 C 1.00431 0.50569 0.94946 0.0
C769 C 0.01764 0.51255 0.94089 0.0
C770 C 0.0358 0.51537 0.97809 0.0
O771 O 0.99256 0.48255 0.99186 0.0
O772 O 0.98651 0.4707 0.0102 0.0
O773 O 0.97721 0.49993 0.00759 0.0
O774 O 1.00012 0.51895 0.99582 0.0
C775 C 0.98382 0.46844 0.99838 0.0
O776 O 0.98375 0.47858 0.03549 0.0
O777 O 0.98251 0.50407 0.03578 0.0
O778 O 0.01583 0.5288 0.02318 0.0
O779 O 0.03812 0.52992 0.01114 0.0
O780 O 0.03051 0.49334 0.00774 0.0
O781 O 0.02439 0.49952 0.02674 0.0
C782 C 0.98283 0.51154 0.99916 0.0
O783 O 0.03476 0.52766 0.98529 0.0
O784 O 0.02938 0.49941 0.98269 0.0
C785 C 0.98525 0.49313 0.05444 0.0
C786 C 0.99638 0.49785 0.07932 0.0
C787 C 0.97708 0.48855 0.07504 0.0
C788 C 0.97158 0.4862 0.0627 0.0
C789 C 1.00452 0.50271 0.05863 0.0
C790 C 0.01005 0.50508 0.07097 0.0
C791 C 0.97931 0.48957 0.04147 0.0
H792 H 0.04755 0.52554 0.93834 0.0
H793 H 0.05777 0.5272 0.95966 0.0
H794 H 0.99972 0.50134 0.96808 0.0
H795 H 0.98935 0.49982 0.9468 0.0
H796 H 0.96622 0.48305 0.08124 0.0
H797 H 0.95664 0.47878 0.05959 0.0
H798 H 0.01526 0.50807 0.05233 0.0
H799 H 0.02502 0.51212 0.07395 0.0
Tb800 Tb 0.51716 0.50138 0.02171 0.0
Eu801 Eu 0.50187 0.5094 0.99586 0.0
C802 C 0.49743 0.46976 1.00064 0.0
C803 C 0.54247 0.51274 0.99982 0.0
C804 C 0.52209 0.49757 0.05434 0.0
C805 C 0.52382 0.49336 0.07567 0.0
C806 C 0.52909 0.49207 0.06408 0.0
C807 C 0.50975 0.50443 0.0563 0.0
C808 C 0.50451 0.50577 0.06789 0.0
C809 C 0.51145 0.50022 0.07772 0.0
C810 C 0.52739 0.49587 0.04215 0.0
O811 O 0.51578 0.52661 0.02536 0.0
O812 O 0.52045 0.53711 1.00663 0.0
O813 O 0.48104 0.50767 0.0089 0.0
O814 O 0.48683 0.49047 0.02224 0.0
C815 C 0.521 0.5402 0.01833 0.0
O816 O 0.50663 0.52788 0.98162 0.0
O817 O 0.48127 0.50075 0.98009 0.0
O818 O 0.48897 0.47838 0.99625 0.0
O819 O 0.51184 0.47817 0.00893 0.0
O820 O 0.54204 0.51501 0.01156 0.0
O821 O 0.52722 0.50672 0.99236 0.0
C822 C 0.47632 0.49718 0.01797 0.0
O823 O 0.51398 0.48277 0.03466 0.0
O824 O 0.5366 0.51144 0.03714 0.0
C825 C 0.49548 0.51224 0.96223 0.0
C826 C 0.50439 0.50811 0.93856 0.0
C827 C 0.4931 0.51614 0.94089 0.0
C828 C 0.48872 0.5182 0.95262 0.0
C829 C 0.50649 0.50395 0.95996 0.0
C830 C 0.5109 0.50189 0.94824 0.0
C831 C 0.49185 0.51553 0.97464 0.0
H832 H 0.52959 0.48916 0.08305 0.0
H833 H 0.53863 0.48674 0.06273 0.0
H834 H 0.5041 0.50864 0.04886 0.0
H835 H 0.49477 0.51088 0.0691 0.0
H836 H 0.48764 0.52084 0.93364 0.0
H837 H 0.48021 0.52465 0.95422 0.0
H838 H 0.51193 0.49936 0.96729 0.0
H839 H 0.51981 0.49586 0.94682 0.0
Tb840 Tb 0.1714 0.32658 0.32929 0.0
Eu841 Eu 0.18469 0.34728 0.3572 0.0
C842 C 0.18893 0.31207 0.34861 0.0
C843 C 0.14444 0.31087 0.35016 0.0
C844 C 0.16786 0.32108 0.2959 0.0
C845 C 0.16473 0.31723 0.27399 0.0
C846 C 0.15981 0.3097 0.28506 0.0
C847 C 0.18095 0.34013 0.29557 0.0
C848 C 0.18587 0.34769 0.28451 0.0
C849 C 0.1778 0.33634 0.27356 0.0
C850 C 0.16243 0.31305 0.3075 0.0
O851 O 0.17322 0.35349 0.3286 0.0
O852 O 0.16684 0.35746 0.34787 0.0
O853 O 0.20642 0.36726 0.34574 0.0
O854 O 0.20194 0.34549 0.33036 0.0
C855 C 0.1672 0.36105 0.33655 0.0
O856 O 0.17788 0.35832 0.37316 0.0
O857 O 0.20468 0.35898 0.37337 0.0
O858 O 0.197 0.32847 0.35484 0.0
O859 O 0.1756 0.30733 0.33978 0.0
O860 O 0.14571 0.3147 0.33882 0.0
O861 O 0.15922 0.31913 0.35815 0.0
C862 C 0.21204 0.36224 0.33614 0.0
O863 O 0.17582 0.31306 0.3144 0.0
O864 O 0.15266 0.31854 0.31361 0.0
C865 C 0.18986 0.35399 0.39161 0.0
C866 C 0.18159 0.33932 0.41427 0.0
C867 C 0.18522 0.35753 0.41272 0.0
C868 C 0.18933 0.36477 0.40152 0.0
C869 C 0.18633 0.33585 0.39306 0.0
C870 C 0.18231 0.32862 0.40429 0.0
C871 C 0.19303 0.36147 0.37972 0.0
H872 H 0.15803 0.30812 0.26576 0.0
H873 H 0.14963 0.29498 0.28514 0.0
H874 H 0.18735 0.34914 0.30387 0.0
H875 H 0.19615 0.36239 0.28454 0.0
H876 H 0.18446 0.36609 0.4201 0.0
H877 H 0.19178 0.37871 0.40055 0.0
H878 H 0.18651 0.32723 0.38548 0.0
H879 H 0.17982 0.31464 0.40513 0.0
Tb880 Tb 0.68702 0.84198 0.33042 0.0
Eu881 Eu 0.6641 0.83129 0.35486 0.0
C882 C 0.70028 0.87157 0.35281 0.0
C883 C 0.70129 0.82845 0.35257 0.0
C884 C 0.69724 0.84876 0.29855 0.0
C885 C 0.70481 0.85478 0.27795 0.0
C886 C 0.71061 0.85561 0.2901 0.0
C887 C 0.67796 0.84108 0.29477 0.0
C888 C 0.67213 0.8402 0.28261 0.0
C889 C 0.6855 0.84705 0.27406 0.0
C890 C 0.7035 0.84971 0.31128 0.0
O891 O 0.66023 0.81662 0.32491 0.0
O892 O 0.65421 0.80453 0.34317 0.0
O893 O 0.64476 0.83369 0.34084 0.0
O894 O 0.66753 0.85276 0.32901 0.0
C895 C 0.65149 0.80243 0.33136 0.0
O896 O 0.652 0.81208 0.36869 0.0
O897 O 0.64947 0.8369 0.36885 0.0
O898 O 0.68332 0.8625 0.35657 0.0
O899 O 0.70559 0.86399 0.34435 0.0
O900 O 0.69815 0.82731 0.34077 0.0
O901 O 0.69217 0.83348 0.3598 0.0
C902 C 0.65026 0.84527 0.33239 0.0
O903 O 0.70233 0.86188 0.31852 0.0
O904 O 0.69715 0.83372 0.31582 0.0
C905 C 0.65255 0.82612 0.38771 0.0
C906 C 0.66379 0.83138 0.41267 0.0
C907 C 0.64978 0.81376 0.40722 0.0
C908 C 0.64419 0.8112 0.39489 0.0
C909 C 0.6665 0.84377 0.39307 0.0
C910 C 0.672 0.84639 0.40545 0.0
C911 C 0.64704 0.82269 0.37463 0.0
H912 H 0.71542 0.85997 0.27157 0.0
H913 H 0.72554 0.86155 0.29289 0.0
H914 H 0.66745 0.83581 0.30122 0.0
H915 H 0.65719 0.83437 0.27993 0.0
H916 H 0.6434 0.80179 0.41242 0.0
H917 H 0.63353 0.79744 0.3909 0.0
H918 H 0.67326 0.8555 0.3877 0.0
H919 H 0.68265 0.8602 0.40935 0.0
Tb920 Tb 0.18362 0.8336 0.35431 0.0
Eu921 Eu 0.16871 0.84171 0.32831 0.0
C922 C 0.1645 0.80202 0.33306 0.0
C923 C 0.20927 0.84511 0.33258 0.0
C924 C 0.18848 0.83014 0.38702 0.0
C925 C 0.19046 0.82636 0.4084 0.0
C926 C 0.19571 0.82495 0.39683 0.0
C927 C 0.17597 0.8368 0.3889 0.0
C928 C 0.17076 0.83826 0.40047 0.0
C929 C 0.17791 0.83302 0.41037 0.0
C930 C 0.19381 0.82835 0.37485 0.0
O931 O 0.18177 0.85858 0.35787 0.0
O932 O 0.18702 0.86933 0.33924 0.0
O933 O 0.14748 0.83953 0.34117 0.0
O934 O 0.15322 0.8224 0.35459 0.0
C935 C 0.18717 0.87226 0.35092 0.0
O936 O 0.1741 0.86019 0.31401 0.0
O937 O 0.14818 0.83351 0.31256 0.0
O938 O 0.15636 0.8107 0.3283 0.0
O939 O 0.17839 0.81024 0.34172 0.0
O940 O 0.20864 0.84737 0.34429 0.0
O941 O 0.19412 0.83904 0.32502 0.0
C942 C 0.14266 0.82898 0.35021 0.0
O943 O 0.18044 0.81517 0.36738 0.0
O944 O 0.20297 0.84387 0.36979 0.0
C945 C 0.16272 0.8444 0.29469 0.0
C946 C 0.17188 0.83966 0.2712 0.0
C947 C 0.16192 0.84916 0.27341 0.0
C948 C 0.15741 0.85152 0.28506 0.0
C949 C 0.17237 0.83466 0.29254 0.0
C950 C 0.1769 0.83229 0.2809 0.0
C951 C 0.15916 0.84807 0.30705 0.0
H952 H 0.1964 0.82242 0.41584 0.0
H953 H 0.20539 0.8198 0.39553 0.0
H954 H 0.17016 0.84077 0.3814 0.0
H955 H 0.16088 0.84321 0.40163 0.0
H956 H 0.15804 0.85521 0.2662 0.0
H957 H 0.15009 0.85921 0.28659 0.0
H958 H 0.17662 0.82909 0.29989 0.0
H959 H 0.18434 0.8247 0.27951 0.0
Tb960 Tb 0.83793 0.66081 0.66239 0.0
Eu961 Eu 0.85185 0.68124 0.69037 0.0
C962 C 0.85565 0.64598 0.68133 0.0
C963 C 0.81129 0.64522 0.6834 0.0
C964 C 0.83397 0.65529 0.62898 0.0
C965 C 0.83016 0.6515 0.60707 0.0
C966 C 0.82519 0.64406 0.61815 0.0
C967 C 0.84782 0.6741 0.62861 0.0
C968 C 0.85281 0.68156 0.61752 0.0
C969 C 0.84403 0.67036 0.60659 0.0
C970 C 0.82853 0.64734 0.64059 0.0
O971 O 0.83997 0.68784 0.66194 0.0
O972 O 0.83414 0.69185 0.68135 0.0
O973 O 0.87356 0.70124 0.67893 0.0
O974 O 0.86845 0.67968 0.66319 0.0
C975 C 0.83425 0.69548 0.67004 0.0
O976 O 0.84575 0.69264 0.70646 0.0
O977 O 0.87184 0.69195 0.70658 0.0
O978 O 0.86402 0.66241 0.68753 0.0
O979 O 0.84208 0.64135 0.67269 0.0
O980 O 0.81242 0.64918 0.67208 0.0
O981 O 0.82621 0.6532 0.69128 0.0
C982 C 0.87882 0.69631 0.66911 0.0
O983 O 0.84182 0.64703 0.64741 0.0
O984 O 0.81909 0.65315 0.64679 0.0
C985 C 0.85683 0.68681 0.72467 0.0
C986 C 0.84776 0.6715 0.74707 0.0
C987 C 0.85868 0.69095 0.74654 0.0
C988 C 0.86314 0.69851 0.73544 0.0
C989 C 0.84619 0.6674 0.72512 0.0
C990 C 0.84169 0.65982 0.7362 0.0
C991 C 0.86058 0.69493 0.713 0.0
H992 H 0.82291 0.64253 0.59886 0.0
H993 H 0.81442 0.62954 0.61827 0.0
H994 H 0.85478 0.68299 0.63689 0.0
H995 H 0.86369 0.69605 0.61752 0.0
H996 H 0.86339 0.70038 0.75468 0.0
H997 H 0.87126 0.71353 0.73526 0.0
H998 H 0.84117 0.65813 0.71688 0.0
H999 H 0.83348 0.64479 0.73626 0.0
Tb1000 Tb 0.35437 0.17639 0.66458 0.0
Eu1001 Eu 0.33139 0.16556 0.68901 0.0
C1002 C 0.3678 0.20529 0.6876 0.0
C1003 C 0.36863 0.16227 0.68623 0.0
C1004 C 0.3648 0.18106 0.63257 0.0
C1005 C 0.37249 0.18619 0.61191 0.0
C1006 C 0.37826 0.18851 0.62421 0.0
C1007 C 0.34548 0.17092 0.62851 0.0
C1008 C 0.33968 0.1686 0.61621 0.0
C1009 C 0.35312 0.17641 0.60777 0.0
C1010 C 0.371 0.18484 0.6455 0.0
O1011 O 0.33559 0.14615 0.66229 0.0
O1012 O 0.31265 0.14294 0.67451 0.0
O1013 O 0.32034 0.18087 0.67807 0.0
O1014 O 0.32725 0.17418 0.65948 0.0
C1015 C 0.31845 0.13642 0.66575 0.0
O1016 O 0.31574 0.14544 0.70173 0.0
O1017 O 0.32033 0.17354 0.70414 0.0
O1018 O 0.35912 0.19166 0.69445 0.0
O1019 O 0.36444 0.20253 0.6758 0.0
O1020 O 0.37339 0.17402 0.67787 0.0
O1021 O 0.35173 0.15464 0.69017 0.0
C1022 C 0.31794 0.17964 0.66624 0.0
O1023 O 0.36595 0.19529 0.65151 0.0
O1024 O 0.36835 0.17053 0.65121 0.0
C1025 C 0.32032 0.15887 0.72159 0.0
C1026 C 0.3317 0.16117 0.74622 0.0
C1027 C 0.31237 0.15243 0.7421 0.0
C1028 C 0.30674 0.15132 0.72987 0.0
C1029 C 0.33962 0.16753 0.72562 0.0
C1030 C 0.34526 0.1687 0.73784 0.0
C1031 C 0.3143 0.15764 0.70878 0.0
H1032 H 0.3832 0.19214 0.60564 0.0
H1033 H 0.39323 0.19637 0.62721 0.0
H1034 H 0.33489 0.16515 0.63488 0.0
H1035 H 0.32466 0.16117 0.61334 0.0
H1036 H 0.30159 0.14668 0.74834 0.0
H1037 H 0.29179 0.1446 0.72689 0.0
H1038 H 0.35028 0.17336 0.7193 0.0
H1039 H 0.36024 0.1753 0.7407 0.0
Tb1040 Tb 0.84938 0.1666 0.68754 0.0
Eu1041 Eu 0.83491 0.17542 0.66172 0.0
C1042 C 0.83023 0.13549 0.66609 0.0
C1043 C 0.87526 0.17836 0.66593 0.0
C1044 C 0.85395 0.16237 0.72016 0.0
C1045 C 0.85577 0.15818 0.74148 0.0
C1046 C 0.86092 0.15679 0.72988 0.0
C1047 C 0.84178 0.16941 0.72216 0.0
C1048 C 0.83666 0.17086 0.73376 0.0
C1049 C 0.84357 0.16523 0.74357 0.0
C1050 C 0.85922 0.16065 0.70796 0.0
O1051 O 0.848 0.19179 0.6914 0.0
O1052 O 0.85338 0.20282 0.67284 0.0
O1053 O 0.81389 0.17353 0.67467 0.0
O1054 O 0.81896 0.15554 0.68768 0.0
C1055 C 0.85355 0.20561 0.68454 0.0
O1056 O 0.84079 0.19427 0.64757 0.0
O1057 O 0.81443 0.1679 0.64603 0.0
O1058 O 0.82205 0.1443 0.66157 0.0
O1059 O 0.8443 0.14363 0.67463 0.0
O1060 O 0.87455 0.18042 0.67765 0.0
O1061 O 0.86018 0.17254 0.65835 0.0
C1062 C 0.8087 0.16256 0.68349 0.0
O1063 O 0.84573 0.14775 0.70042 0.0
O1064 O 0.86867 0.17626 0.70303 0.0
C1065 C 0.8289 0.17923 0.62799 0.0
C1066 C 0.83746 0.1746 0.60424 0.0
C1067 C 0.83961 0.19174 0.60889 0.0
C1068 C 0.83532 0.19398 0.62061 0.0
C1069 C 0.82662 0.16205 0.62341 0.0
C1070 C 0.83076 0.15974 0.61164 0.0
C1071 C 0.82572 0.18245 0.64059 0.0
H1072 H 0.86151 0.15393 0.74885 0.0
H1073 H 0.87034 0.15134 0.72849 0.0
H1074 H 0.83618 0.1737 0.71474 0.0
H1075 H 0.82705 0.17611 0.73502 0.0
H1076 H 0.84505 0.20362 0.60359 0.0
H1077 H 0.83737 0.20741 0.624 0.0
H1078 H 0.82182 0.15046 0.62895 0.0
H1079 H 0.82867 0.14627 0.60834 0.0
C1080 C 0.32577 0.8564 0.04803 0.0
C1081 C 0.32198 0.86061 0.05958 0.0
C1082 C 0.3421 0.8691 0.04296 0.0
C1083 C 0.38984 0.91035 0.0513 0.0
H1084 H 0.38834 0.91672 0.01713 0.0
C1085 C 0.45208 0.9702 0.03077 0.0
C1086 C 0.45756 0.96598 0.01984 0.0
C1087 C 0.43538 0.95716 0.03527 0.0
C1088 C 0.38903 0.91495 0.02666 0.0
H1089 H 0.33256 0.88164 0.07482 0.0
H1090 H 0.36069 0.90398 0.06587 0.0
H1091 H 0.35951 0.8946 0.02569 0.0
H1092 H 0.44946 0.94472 1.00498 0.0
H1093 H 0.42014 0.92191 0.01286 0.0
H1094 H 0.4193 0.93082 0.05229 0.0
C1095 C 0.35119 0.89069 0.06079 0.0
C1096 C 0.3725 0.90226 0.03158 0.0
C1097 C 0.33488 0.87796 0.06587 0.0
C1098 C 0.44569 0.94845 0.01341 0.0
C1099 C 0.42885 0.9354 0.0179 0.0
C1100 C 0.40631 0.92308 0.0464 0.0
C1101 C 0.35508 0.8864 0.04929 0.0
C1102 C 0.37267 0.89983 0.04398 0.0
C1103 C 0.42361 0.93956 0.02896 0.0
C1104 C 0.4061 0.92561 0.03403 0.0
H1105 H 0.31604 0.84331 0.04283 0.0
H1106 H 0.34468 0.86521 0.03415 0.0
H1107 H 0.39064 0.90859 0.06083 0.0
H1108 H 0.46081 0.98353 0.036 0.0
H1109 H 0.43163 0.96093 0.04371 0.0
C1110 C 0.15889 0.46155 0.05342 0.0
C1111 C 0.16115 0.46045 0.0659 0.0
C1112 C 0.14492 0.46495 0.04851 0.0
C1113 C 0.10011 0.4635 0.055 0.0
H1114 H 0.11157 0.49563 0.02898 0.0
C1115 C 0.05046 0.49 0.03745 0.0
C1116 C 0.0478 0.49012 0.02489 0.0
C1117 C 0.06405 0.48615 0.0425 0.0
C1118 C 0.10807 0.48647 0.03616 0.0
H1119 H 0.15016 0.46189 0.08294 0.0
H1120 H 0.12615 0.46835 0.07442 0.0
H1121 H 0.13568 0.48952 0.03775 0.0
H1122 H 0.05739 0.48618 0.0078 0.0
H1123 H 0.08104 0.47943 0.0166 0.0
H1124 H 0.07253 0.46063 0.05346 0.0
C1125 C 0.13504 0.46631 0.0684 0.0
C1126 C 0.12189 0.48293 0.04119 0.0
C1127 C 0.149 0.46283 0.07332 0.0
C1128 C 0.05904 0.48623 0.01751 0.0
C1129 C 0.0727 0.48247 0.02256 0.0
C1130 C 0.08631 0.46711 0.05 0.0
C1131 C 0.13283 0.46746 0.05593 0.0
C1132 C 0.1181 0.47135 0.05066 0.0
C1133 C 0.0754 0.48241 0.03512 0.0
C1134 C 0.0901 0.4786 0.04049 0.0
H1135 H 0.16812 0.46004 0.04743 0.0
H1136 H 0.14351 0.46549 0.03885 0.0
H1137 H 0.09655 0.45428 0.06215 0.0
H1138 H 0.04208 0.49295 0.04343 0.0
H1139 H 0.0659 0.48641 0.05221 0.0
C1140 C 0.57027 0.68878 0.07626 0.0
C1141 C 0.57768 0.70487 0.07 0.0
C1142 C 0.56375 0.67124 0.07015 0.0
C1143 C 0.5675 0.64802 0.04216 0.0
H1144 H 0.52186 0.60559 0.05119 0.0
C1145 C 0.53336 0.57433 0.01656 0.0
C1146 C 0.52712 0.55926 0.02374 0.0
C1147 C 0.53916 0.59231 0.02174 0.0
C1148 C 0.53471 0.61727 0.04863 0.0
H1149 H 0.58419 0.71514 0.0524 0.0
H1150 H 0.5725 0.68442 0.04168 0.0
H1151 H 0.53261 0.6366 0.06101 0.0
H1152 H 0.52214 0.55131 0.042 0.0
H1153 H 0.53233 0.5826 0.05099 0.0
H1154 H 0.56959 0.62861 0.0298 0.0
C1155 C 0.5719 0.68542 0.05135 0.0
C1156 C 0.54088 0.63504 0.05426 0.0
C1157 C 0.57842 0.703 0.05747 0.0
C1158 C 0.5268 0.56257 0.03619 0.0
C1159 C 0.53254 0.5805 0.04135 0.0
C1160 C 0.56129 0.63022 0.0365 0.0
C1161 C 0.56445 0.66933 0.05762 0.0
C1162 C 0.55746 0.6506 0.05119 0.0
C1163 C 0.53877 0.59557 0.03419 0.0
C1164 C 0.54494 0.61462 0.03977 0.0
H1165 H 0.56926 0.68968 0.08589 0.0
H1166 H 0.55832 0.65917 0.07528 0.0
H1167 H 0.58043 0.65968 0.03968 0.0
H1168 H 0.53377 0.57227 1.00694 0.0
H1169 H 0.54374 0.60361 0.01598 0.0
C1170 C 0.87557 0.32193 0.93712 0.0
C1171 C 0.86565 0.306 0.94334 0.0
C1172 C 0.8877 0.33935 0.94338 0.0
C1173 C 0.91562 0.36153 0.97266 0.0
H1174 H 0.91752 0.40591 0.96156 0.0
C1175 C 0.96023 0.43444 0.99908 0.0
C1176 C 0.97014 0.44971 0.99231 0.0
C1177 C 0.94714 0.41683 0.99335 0.0
C1178 C 0.91731 0.39368 0.9647 0.0
H1179 H 0.86072 0.29596 0.96109 0.0
H1180 H 0.88172 0.32648 0.97206 0.0
H1181 H 0.89504 0.37539 0.95126 0.0
H1182 H 0.97411 0.45836 0.97416 0.0
H1183 H 0.95144 0.42765 0.96419 0.0
H1184 H 0.93796 0.37986 0.98608 0.0
C1185 C 0.88023 0.32542 0.9623 0.0
C1186 C 0.90441 0.37617 0.9588 0.0
C1187 C 0.86804 0.30796 0.95602 0.0
C1188 C 0.96669 0.44693 0.97967 0.0
C1189 C 0.9536 0.42933 0.97395 0.0
C1190 C 0.92853 0.37906 0.97857 0.0
C1191 C 0.89025 0.34132 0.95605 0.0
C1192 C 0.90348 0.35988 0.96265 0.0
C1193 C 0.94363 0.41407 0.98072 0.0
C1194 C 0.92962 0.39536 0.97461 0.0
H1195 H 0.87388 0.32099 0.92736 0.0
H1196 H 0.89533 0.35124 0.93827 0.0
H1197 H 0.91547 0.3493 0.97577 0.0
H1198 H 0.96248 0.43606 0.00883 0.0
H1199 H 0.93956 0.40544 0.99885 0.0
C1200 C 0.68127 0.54122 0.94647 0.0
C1201 C 0.69848 0.54897 0.95379 0.0
C1202 C 0.66457 0.5378 0.95141 0.0
C1203 C 0.64655 0.55014 0.97831 0.0
H1204 H 0.60008 0.50427 0.96732 0.0
C1205 C 0.57758 0.52454 1.00221 0.0
C1206 C 0.56051 0.517 0.99476 0.0
C1207 C 0.59451 0.52866 0.99729 0.0
C1208 C 0.61289 0.51724 0.97041 0.0
H1209 H 0.7116 0.55976 0.97204 0.0
H1210 H 0.68251 0.55344 0.98067 0.0
H1211 H 0.62926 0.51133 0.95849 0.0
H1212 H 0.548 0.5079 0.97624 0.0
H1213 H 0.57738 0.5151 0.96775 0.0
H1214 H 0.63014 0.55595 0.9903 0.0
C1215 C 0.6819 0.55011 0.97108 0.0
C1216 C 0.62964 0.52132 0.96532 0.0
C1217 C 0.69858 0.55353 0.96614 0.0
C1218 C 0.56082 0.51364 0.98229 0.0
C1219 C 0.57769 0.51768 0.9774 0.0
C1220 C 0.62979 0.54603 0.98343 0.0
C1221 C 0.66462 0.54206 0.96381 0.0
C1222 C 0.64671 0.53784 0.96918 0.0
C1223 C 0.59477 0.52524 0.98482 0.0
C1224 C 0.61272 0.52953 0.97953 0.0
H1225 H 0.68059 0.53739 0.93694 0.0
H1226 H 0.65159 0.53183 0.94549 0.0
H1227 H 0.65934 0.56312 0.98139 0.0
H1228 H 0.57789 0.5273 0.01184 0.0
H1229 H 0.60737 0.5343 1.00329 0.0
C1230 C 0.46087 0.14978 0.97881 0.0
C1231 C 0.45372 0.14776 0.96672 0.0
C1232 C 0.46567 0.13701 0.98312 0.0
C1233 C 0.45648 0.0891 0.9772 0.0
H1234 H 0.5048 0.10751 0.99587 0.0
C1235 C 0.48579 0.04061 0.98798 0.0
C1236 C 0.4957 0.04357 0.99932 0.0
C1237 C 0.4805 0.05334 0.98431 0.0
C1238 C 0.49113 0.1021 0.99083 0.0
H1239 H 0.44619 0.1307 0.94968 0.0
H1240 H 0.4542 0.10825 0.95729 0.0
H1241 H 0.49558 0.12956 0.98905 0.0
H1242 H 0.50773 0.0622 0.01575 0.0
H1243 H 0.49811 0.0842 0.00948 0.0
H1244 H 0.45185 0.06165 0.97907 0.0
C1245 C 0.45596 0.11968 0.96343 0.0
C1246 C 0.48588 0.11475 0.9869 0.0
C1247 C 0.45132 0.13253 0.95909 0.0
C1248 C 0.5002 0.05956 1.00693 0.0
C1249 C 0.49476 0.07223 1.0033 0.0
C1250 C 0.46164 0.07644 0.98122 0.0
C1251 C 0.46327 0.12183 0.97547 0.0
C1252 C 0.46857 0.10839 0.97997 0.0
C1253 C 0.48484 0.06928 0.99194 0.0
C1254 C 0.47911 0.08277 0.988 0.0
H1255 H 0.4626 0.16114 0.98501 0.0
H1256 H 0.47106 0.13888 0.99248 0.0
H1257 H 0.44293 0.08379 0.97202 0.0
H1258 H 0.48227 0.02854 0.98184 0.0
H1259 H 0.47323 0.05079 0.97541 0.0
C1260 C 0.68358 0.12983 0.95014 0.0
C1261 C 0.70017 0.1427 0.95737 0.0
C1262 C 0.66737 0.11729 0.95537 0.0
C1263 C 0.64469 0.10961 0.9841 0.0
H1264 H 0.61279 0.05935 0.9688 0.0
C1265 C 0.57958 0.05261 1.0054 0.0
C1266 C 0.5631 0.04191 0.9975 0.0
C1267 C 0.59681 0.06477 1.00092 0.0
C1268 C 0.62149 0.07338 0.97314 0.0
H1269 H 0.71253 0.15244 0.97586 0.0
H1270 H 0.68449 0.13022 0.98495 0.0
H1271 H 0.64187 0.08062 0.96022 0.0
H1272 H 0.55189 0.03562 0.97866 0.0
H1273 H 0.58176 0.0567 0.97096 0.0
H1274 H 0.62424 0.10225 0.99704 0.0
C1275 C 0.68392 0.12999 0.97521 0.0
C1276 C 0.63815 0.08561 0.9682 0.0
C1277 C 0.70012 0.14259 0.96998 0.0
C1278 C 0.56427 0.04362 0.98504 0.0
C1279 C 0.58145 0.05563 0.98059 0.0
C1280 C 0.62805 0.09733 0.98907 0.0
C1281 C 0.6673 0.11721 0.96798 0.0
C1282 C 0.6499 0.10396 0.97353 0.0
C1283 C 0.59794 0.06634 0.98846 0.0
C1284 C 0.61615 0.07913 0.98358 0.0
H1285 H 0.68313 0.12933 0.9404 0.0
H1286 H 0.65478 0.10782 0.9495 0.0
H1287 H 0.65322 0.1237 0.98837 0.0
H1288 H 0.57919 0.05164 0.01503 0.0
H1289 H 0.6093 0.07275 0.00721 0.0
C1290 C 0.86001 0.53952 0.952 0.0
C1291 C 0.86641 0.55152 0.94274 0.0
C1292 C 0.87236 0.53551 0.95867 0.0
C1293 C 0.92353 0.55279 0.96652 0.0
H1294 H 0.90594 0.50202 0.97426 0.0
C1295 C 0.97488 0.52854 0.984 0.0
C1296 C 0.96935 0.5164 0.9932 0.0
C1297 C 0.96217 0.53302 0.9783 0.0
C1298 C 0.91103 0.51632 0.9723 0.0
H1299 H 0.89104 0.56905 0.93349 0.0
H1300 H 0.91237 0.56174 0.94488 0.0
H1301 H 0.88407 0.50955 0.96364 0.0
H1302 H 0.94601 0.49944 1.0036 0.0
H1303 H 0.92391 0.50735 0.99371 0.0
H1304 H 0.95053 0.55951 0.97508 0.0
C1305 C 0.89785 0.55554 0.94709 0.0
C1306 C 0.89847 0.52065 0.96622 0.0
C1307 C 0.88552 0.55955 0.94043 0.0
C1308 C 0.95077 0.50883 0.99655 0.0
C1309 C 0.93804 0.51328 0.99083 0.0
C1310 C 0.93608 0.54845 0.97258 0.0
C1311 C 0.89143 0.54342 0.95627 0.0
C1312 C 0.90459 0.53892 0.96317 0.0
C1313 C 0.94358 0.52544 0.98164 0.0
C1314 C 0.93004 0.53014 0.97548 0.0
H1315 H 0.84535 0.53297 0.95397 0.0
H1316 H 0.86697 0.52627 0.96576 0.0
H1317 H 0.92867 0.56708 0.96453 0.0
H1318 H 0.98902 0.53456 0.98112 0.0
H1319 H 0.96684 0.54221 0.97114 0.0
C1320 C 0.43085 0.31284 0.94948 0.0
C1321 C 0.44178 0.30419 0.951 0.0
C1322 C 0.43661 0.33025 0.95553 0.0
C1323 C 0.46738 0.36326 0.98129 0.0
H1324 H 0.46461 0.39991 0.9624 0.0
C1325 C 0.50099 0.44135 0.99886 0.0
C1326 C 0.4908 0.45032 0.99579 0.0
C1327 C 0.49494 0.4232 0.99388 0.0
C1328 C 0.46526 0.38979 0.96786 0.0
H1329 H 0.4672 0.30697 0.96027 0.0
H1330 H 0.4772 0.33737 0.97092 0.0
H1331 H 0.4539 0.36872 0.95301 0.0
H1332 H 0.46594 0.44701 0.98537 0.0
H1333 H 0.45527 0.41541 0.97691 0.0
H1334 H 0.47868 0.38439 0.99616 0.0
C1335 C 0.46409 0.33058 0.96508 0.0
C1336 C 0.45913 0.37191 0.96247 0.0
C1337 C 0.45835 0.31315 0.95899 0.0
C1338 C 0.47425 0.44062 0.98784 0.0
C1339 C 0.46817 0.4225 0.98293 0.0
C1340 C 0.47345 0.38118 0.98671 0.0
C1341 C 0.45342 0.33942 0.96328 0.0
C1342 C 0.46004 0.35842 0.96912 0.0
C1343 C 0.47854 0.41363 0.98577 0.0
C1344 C 0.47238 0.39463 0.98007 0.0
H1345 H 0.41781 0.30615 0.94358 0.0
H1346 H 0.4279 0.33656 0.95413 0.0
H1347 H 0.46811 0.35311 0.98667 0.0
H1348 H 0.51382 0.44845 1.00494 0.0
H1349 H 0.50335 0.41684 0.99618 0.0
C1350 C 0.13283 0.69238 0.07427 0.0
C1351 C 0.15218 0.70141 0.07243 0.0
C1352 C 0.12009 0.67508 0.06808 0.0
C1353 C 0.11323 0.64324 0.04143 0.0
H1354 H 0.07656 0.60553 0.0599 0.0
C1355 C 0.0654 0.56606 0.02212 0.0
C1356 C 0.04659 0.55672 0.02514 0.0
C1357 C 0.07839 0.58389 0.02759 0.0
C1358 C 0.08652 0.61594 0.05455 0.0
H1359 H 0.17319 0.69938 0.06243 0.0
H1360 H 0.15087 0.66915 0.05154 0.0
H1361 H 0.0989 0.63636 0.06977 0.0
H1362 H 0.02666 0.55898 0.03618 0.0
H1363 H 0.04918 0.5901 0.04555 0.0
H1364 H 0.10076 0.62281 0.02618 0.0
C1365 C 0.14558 0.67557 0.05775 0.0
C1366 C 0.09936 0.63363 0.06023 0.0
C1367 C 0.15837 0.6929 0.06398 0.0
C1368 C 0.04105 0.5657 0.03368 0.0
C1369 C 0.05402 0.58353 0.03912 0.0
C1370 C 0.10032 0.62553 0.03573 0.0
C1371 C 0.12633 0.66635 0.05985 0.0
C1372 C 0.11283 0.64752 0.05374 0.0
C1373 C 0.07288 0.59283 0.03619 0.0
C1374 C 0.08676 0.61167 0.04222 0.0
H1375 H 0.12749 0.69871 0.0805 0.0
H1376 H 0.1053 0.66854 0.06972 0.0
H1377 H 0.1233 0.65368 0.03615 0.0
H1378 H 0.07018 0.55955 0.0156 0.0
H1379 H 0.09285 0.59053 0.02522 0.0
C1380 C 0.32924 0.46488 0.06332 0.0
C1381 C 0.32791 0.45711 0.0744 0.0
C1382 C 0.3447 0.46923 0.0566 0.0
C1383 C 0.38235 0.4576 0.05255 0.0
H1384 H 0.4077 0.50444 0.03801 0.0
C1385 C 0.45496 0.48353 0.03438 0.0
C1386 C 0.45872 0.49264 0.02373 0.0
C1387 C 0.43855 0.47919 0.03995 0.0
C1388 C 0.40063 0.49118 0.04186 0.0
H1389 H 0.34228 0.4484 0.0872 0.0
H1390 H 0.36892 0.4557 0.07546 0.0
H1391 H 0.37987 0.49686 0.04878 0.0
H1392 H 0.44808 0.50444 0.01066 0.0
H1393 H 0.41919 0.49659 0.02031 0.0
H1394 H 0.40296 0.45182 0.04565 0.0
C1395 C 0.35787 0.45817 0.07186 0.0
C1396 C 0.38468 0.48685 0.04805 0.0
C1397 C 0.34253 0.45394 0.0786 0.0
C1398 C 0.44564 0.49741 0.01884 0.0
C1399 C 0.42912 0.49299 0.02441 0.0
C1400 C 0.3982 0.46188 0.04633 0.0
C1401 C 0.35914 0.46581 0.06076 0.0
C1402 C 0.3755 0.47011 0.05362 0.0
C1403 C 0.42532 0.48374 0.03502 0.0
C1404 C 0.40774 0.47883 0.04104 0.0
H1405 H 0.31818 0.46733 0.05971 0.0
H1406 H 0.34515 0.47494 0.04803 0.0
H1407 H 0.3754 0.44442 0.05651 0.0
H1408 H 0.46479 0.47983 0.03852 0.0
H1409 H 0.43637 0.47245 0.04824 0.0
C1410 C 0.56059 0.87017 0.05965 0.0
C1411 C 0.56845 0.86204 0.05227 0.0
C1412 C 0.55506 0.88227 0.0551 0.0
C1413 C 0.56211 0.91279 0.03063 0.0
H1414 H 0.51525 0.90884 0.03976 0.0
C1415 C 0.531 0.95616 0.0107 0.0
C1416 C 0.52413 0.96415 0.01901 0.0
C1417 C 0.53606 0.94313 0.01417 0.0
C1418 C 0.52845 0.91022 0.0372 0.0
H1419 H 0.57696 0.86054 0.03436 0.0
H1420 H 0.56701 0.88147 0.02635 0.0
H1421 H 0.52495 0.88736 0.04696 0.0
H1422 H 0.51709 0.9646 0.03748 0.0
H1423 H 0.52596 0.94205 0.04349 0.0
H1424 H 0.56561 0.93575 0.02091 0.0
C1425 C 0.56526 0.87857 0.03569 0.0
C1426 C 0.53402 0.89793 0.04134 0.0
C1427 C 0.57078 0.86643 0.04025 0.0
C1428 C 0.5223 0.95873 0.03083 0.0
C1429 C 0.52727 0.94569 0.03426 0.0
C1430 C 0.55651 0.9251 0.02647 0.0
C1431 C 0.55723 0.88654 0.04305 0.0
C1432 C 0.55102 0.89919 0.03822 0.0
C1433 C 0.53423 0.93775 0.026 0.0
C1434 C 0.53972 0.92407 0.02982 0.0
H1435 H 0.55839 0.86694 0.06891 0.0
H1436 H 0.54916 0.88837 0.06106 0.0
H1437 H 0.57538 0.91426 0.02816 0.0
H1438 H 0.53258 0.96002 1.00153 0.0
H1439 H 0.54123 0.93713 0.00757 0.0
C1440 C 1.00383 0.20557 0.39932 0.0
C1441 C 0.98622 0.19786 0.39247 0.0
C1442 C 0.02058 0.2177 0.3944 0.0
C1443 C 0.03934 0.24844 0.36962 0.0
H1444 H 0.0833 0.24315 0.37667 0.0
C1445 C 0.10906 0.28943 0.34663 0.0
C1446 C 0.12596 0.29713 0.35427 0.0
C1447 C 0.09168 0.27694 0.35082 0.0
C1448 C 0.07121 0.24492 0.37468 0.0
H1449 H 0.97248 0.1974 0.37515 0.0
H1450 H 1.0017 0.21825 0.36651 0.0
H1451 H 0.05377 0.2226 0.38504 0.0
H1452 H 0.13777 0.29754 0.37229 0.0
H1453 H 0.10769 0.27596 0.3795 0.0
H1454 H 0.05688 0.2708 0.35924 0.0
C1455 C 1.00256 0.21502 0.37573 0.0
C1456 C 0.05426 0.23316 0.37952 0.0
C1457 C 0.9858 0.20288 0.38064 0.0
C1458 C 0.12508 0.2919 0.36612 0.0
C1459 C 0.1078 0.2794 0.37026 0.0
C1460 C 0.05631 0.2602 0.36476 0.0
C1461 C 0.0202 0.22245 0.3825 0.0
C1462 C 0.03814 0.23485 0.37714 0.0
C1463 C 0.09087 0.27178 0.36269 0.0
C1464 C 0.0725 0.25869 0.36732 0.0
H1465 H 1.00474 0.20191 0.40841 0.0
H1466 H 0.03387 0.22337 0.39996 0.0
H1467 H 0.02728 0.25028 0.3677 0.0
H1468 H 0.1092 0.29316 0.33746 0.0
H1469 H 0.07891 0.2712 0.34473 0.0
C1470 C 0.8262 0.79473 0.38618 0.0
C1471 C 0.82849 0.79369 0.39866 0.0
C1472 C 0.81227 0.7982 0.38126 0.0
C1473 C 0.76762 0.79702 0.38779 0.0
H1474 H 0.77917 0.82912 0.36173 0.0
C1475 C 0.71828 0.82393 0.3704 0.0
C1476 C 0.71555 0.82406 0.35784 0.0
C1477 C 0.73184 0.81999 0.37539 0.0
C1478 C 0.77564 0.81997 0.36892 0.0
H1479 H 0.81759 0.7953 0.41571 0.0
H1480 H 0.79366 0.80186 0.40719 0.0
H1481 H 0.80317 0.82285 0.37047 0.0
H1482 H 0.72498 0.82004 0.34071 0.0
H1483 H 0.74857 0.81314 0.34942 0.0
H1484 H 0.74011 0.79433 0.38628 0.0
C1485 C 0.8025 0.79973 0.40116 0.0
C1486 C 0.78941 0.81634 0.37393 0.0
C1487 C 0.81641 0.79619 0.40609 0.0
C1488 C 0.7267 0.8201 0.35041 0.0
C1489 C 0.74032 0.81624 0.35541 0.0
C1490 C 0.75387 0.80072 0.3828 0.0
C1491 C 0.80027 0.80082 0.38868 0.0
C1492 C 0.78558 0.80478 0.38341 0.0
C1493 C 0.74307 0.81615 0.36796 0.0
C1494 C 0.75769 0.81221 0.37329 0.0
H1495 H 0.83537 0.79313 0.38018 0.0
H1496 H 0.81084 0.79869 0.3716 0.0
H1497 H 0.76404 0.78782 0.39494 0.0
H1498 H 0.70998 0.82693 0.37641 0.0
H1499 H 0.73373 0.82024 0.3851 0.0
C1500 C 0.23489 0.01968 0.40967 0.0
C1501 C 0.24261 0.03597 0.40361 0.0
C1502 C 0.22848 1.00228 0.40341 0.0
C1503 C 0.23305 0.97971 0.37542 0.0
H1504 H 0.18687 0.9371 0.38368 0.0
C1505 C 0.19958 0.90644 0.34931 0.0
C1506 C 0.19309 0.89124 0.35638 0.0
C1507 C 0.20521 0.92434 0.35456 0.0
C1508 C 0.19987 0.94883 0.38133 0.0
H1509 H 0.24977 0.04673 0.38618 0.0
H1510 H 0.23827 0.01623 0.37518 0.0
H1511 H 0.19744 0.96793 0.39372 0.0
H1512 H 0.18746 0.88297 0.37453 0.0
H1513 H 0.19736 0.91412 0.38365 0.0
H1514 H 0.23549 0.96051 0.36306 0.0
C1515 C 0.23735 0.01699 0.38482 0.0
C1516 C 0.20593 0.9665 0.38709 0.0
C1517 C 0.24376 0.03443 0.3911 0.0
C1518 C 0.19233 0.89433 0.3688 0.0
C1519 C 0.1979 0.91218 0.37402 0.0
C1520 C 0.22696 0.96201 0.36964 0.0
C1521 C 0.22959 1.00071 0.39091 0.0
C1522 C 0.22271 0.98211 0.38431 0.0
C1523 C 0.20439 0.92739 0.36697 0.0
C1524 C 0.21041 0.94635 0.37263 0.0
H1525 H 0.23357 0.02034 0.41927 0.0
H1526 H 0.22281 0.99005 0.40839 0.0
H1527 H 0.24614 0.99141 0.37316 0.0
H1528 H 0.20033 0.90454 0.33971 0.0
H1529 H 0.21001 0.93575 0.34887 0.0
C1530 C 0.53448 0.6425 0.28876 0.0
C1531 C 0.53166 0.64064 0.2761 0.0
C1532 C 0.54691 0.6599 0.29504 0.0
C1533 C 0.57118 0.71073 0.29174 0.0
H1534 H 0.60532 0.71393 0.31849 0.0
C1535 C 0.63407 0.78118 0.31259 0.0
C1536 C 0.63774 0.78376 0.32522 0.0
C1537 C 0.62085 0.76365 0.30682 0.0
C1538 C 0.59574 0.71326 0.31113 0.0
H1539 H 0.53937 0.65576 0.26015 0.0
H1540 H 0.56124 0.68591 0.27104 0.0
H1541 H 0.58248 0.68351 0.30815 0.0
H1542 H 0.63036 0.76985 0.34167 0.0
H1543 H 0.60724 0.73937 0.3316 0.0
H1544 H 0.5845 0.74048 0.29467 0.0
C1545 C 0.55376 0.67398 0.27615 0.0
C1546 C 0.58262 0.69581 0.30521 0.0
C1547 C 0.54139 0.65662 0.26989 0.0
C1548 C 0.62794 0.76838 0.33192 0.0
C1549 C 0.61474 0.75085 0.32615 0.0
C1550 C 0.5843 0.72817 0.29765 0.0
C1551 C 0.55674 0.67585 0.2888 0.0
C1552 C 0.57025 0.69434 0.29539 0.0
C1553 C 0.61098 0.74828 0.31353 0.0
C1554 C 0.59681 0.72967 0.30738 0.0
H1555 H 0.52732 0.63046 0.29383 0.0
H1556 H 0.54872 0.66088 0.30479 0.0
H1557 H 0.56166 0.71009 0.28435 0.0
H1558 H 0.64138 0.79269 0.30713 0.0
H1559 H 0.6185 0.76211 0.29708 0.0
C1560 C 0.36618 0.88729 0.29951 0.0
C1561 C 0.36597 0.88253 0.28718 0.0
C1562 C 0.34953 0.88392 0.30448 0.0
C1563 C 0.30089 0.87481 0.2965 0.0
H1564 H 0.29122 0.85433 0.32749 0.0
C1565 C 0.22797 0.84626 0.31521 0.0
C1566 C 0.22745 0.84961 0.32765 0.0
C1567 C 0.24501 0.85066 0.31043 0.0
C1568 C 0.29378 0.86028 0.31891 0.0
H1569 H 0.34794 0.87055 0.27041 0.0
H1570 H 0.31893 0.86478 0.27906 0.0
H1571 H 0.32057 0.86152 0.31882 0.0
H1572 H 0.24461 0.86027 0.3448 0.0
H1573 H 0.27441 0.86817 0.33644 0.0
H1574 H 0.27415 0.87362 0.29659 0.0
C1575 C 0.33205 0.87129 0.28487 0.0
C1576 C 0.31063 0.8644 0.31392 0.0
C1577 C 0.3487 0.87463 0.2799 0.0
C1578 C 0.24445 0.85743 0.33519 0.0
C1579 C 0.26154 0.86188 0.33039 0.0
C1580 C 0.28407 0.87075 0.3015 0.0
C1581 C 0.33222 0.87575 0.29725 0.0
C1582 C 0.31438 0.87166 0.30263 0.0
C1583 C 0.26206 0.85859 0.31794 0.0
C1584 C 0.28023 0.86334 0.31275 0.0
H1585 H 0.37926 0.89372 0.30535 0.0
H1586 H 0.35027 0.88785 0.31399 0.0
H1587 H 0.30343 0.88066 0.28789 0.0
H1588 H 0.21518 0.84017 0.30911 0.0
H1589 H 0.24476 0.84761 0.30084 0.0
C1590 C 0.11367 0.47095 0.31068 0.0
C1591 C 0.11592 0.47532 0.29864 0.0
C1592 C 0.11832 0.45809 0.31502 0.0
C1593 C 0.12609 0.41943 0.30502 0.0
H1594 H 0.15436 0.43099 0.33636 0.0
C1595 C 0.16184 0.37839 0.32053 0.0
C1596 C 0.16096 0.37406 0.33258 0.0
C1597 C 0.15572 0.3904 0.31666 0.0
C1598 C 0.14625 0.42743 0.32766 0.0
H1599 H 0.12495 0.46967 0.28178 0.0
H1600 H 0.13297 0.44721 0.28934 0.0
H1601 H 0.14455 0.45239 0.32908 0.0
H1602 H 0.15294 0.37902 0.35003 0.0
H1603 H 0.14209 0.3999 0.34322 0.0
H1604 H 0.12785 0.39453 0.30356 0.0
C1605 C 0.12737 0.45353 0.29537 0.0
C1606 C 0.14063 0.4397 0.32349 0.0
C1607 C 0.12275 0.4664 0.29104 0.0
C1608 C 0.15387 0.3821 0.34069 0.0
C1609 C 0.14773 0.39414 0.33681 0.0
C1610 C 0.13168 0.40717 0.30919 0.0
C1611 C 0.12528 0.44928 0.30743 0.0
C1612 C 0.13062 0.43591 0.31207 0.0
C1613 C 0.14853 0.39837 0.32473 0.0
C1614 C 0.14197 0.4111 0.32052 0.0
H1615 H 0.10817 0.47735 0.31672 0.0
H1616 H 0.11629 0.45491 0.3243 0.0
H1617 H 0.11811 0.41595 0.29628 0.0
H1618 H 0.16728 0.37251 0.31404 0.0
H1619 H 0.15683 0.39361 0.30735 0.0
C1620 C 0.35968 0.48518 0.30096 0.0
C1621 C 0.36534 0.47954 0.29062 0.0
C1622 C 0.34333 0.47262 0.30607 0.0
C1623 C 0.31016 0.42199 0.30711 0.0
H1624 H 0.27715 0.43865 0.31954 0.0
C1625 C 0.236 0.37062 0.32102 0.0
C1626 C 0.23011 0.37575 0.33146 0.0
C1627 C 0.25272 0.38334 0.31636 0.0
C1628 C 0.28633 0.43382 0.31625 0.0
H1629 H 0.35812 0.45612 0.27758 0.0
H1630 H 0.32939 0.43433 0.28632 0.0
H1631 H 0.3056 0.46061 0.31063 0.0
H1632 H 0.23733 0.39839 0.34516 0.0
H1633 H 0.26662 0.42057 0.33704 0.0
H1634 H 0.29082 0.39517 0.31267 0.0
C1635 C 0.33776 0.44844 0.29058 0.0
C1636 C 0.30266 0.44642 0.31113 0.0
C1637 C 0.35413 0.46101 0.28548 0.0
C1638 C 0.24142 0.39395 0.33712 0.0
C1639 C 0.25816 0.40671 0.33242 0.0
C1640 C 0.29382 0.40939 0.31221 0.0
C1641 C 0.33216 0.45407 0.30096 0.0
C1642 C 0.31478 0.44066 0.30646 0.0
C1643 C 0.264 0.40156 0.32197 0.0
C1644 C 0.28166 0.41513 0.31682 0.0
H1645 H 0.36779 0.4994 0.30509 0.0
H1646 H 0.33959 0.47741 0.31412 0.0
H1647 H 0.31931 0.41713 0.30381 0.0
H1648 H 0.22762 0.35679 0.31635 0.0
H1649 H 0.25662 0.37898 0.30819 0.0
C1650 C 0.54017 0.89098 0.2868 0.0
C1651 C 0.53116 0.88138 0.27548 0.0
C1652 C 0.55255 0.88682 0.29329 0.0
C1653 C 0.58252 0.86546 0.28899 0.0
H1654 H 0.58426 0.86528 0.32379 0.0
C1655 C 0.6418 0.8613 0.31677 0.0
C1656 C 0.63661 0.84981 0.32632 0.0
C1657 C 0.62883 0.86522 0.31084 0.0
C1658 C 0.58387 0.86514 0.31406 0.0
H1659 H 0.52755 0.85934 0.26237 0.0
H1660 H 0.54901 0.85204 0.27368 0.0
H1661 H 0.56133 0.8713 0.31301 0.0
H1662 H 0.61363 0.83352 0.33715 0.0
H1663 H 0.591 0.84025 0.32674 0.0
H1664 H 0.60479 0.85898 0.28999 0.0
C1665 C 0.54686 0.86308 0.27743 0.0
C1666 C 0.57085 0.8688 0.30789 0.0
C1667 C 0.53452 0.86725 0.27095 0.0
C1668 C 0.61815 0.84246 0.32985 0.0
C1669 C 0.60518 0.8464 0.32392 0.0
C1670 C 0.59553 0.86183 0.29515 0.0
C1671 C 0.55621 0.87294 0.28863 0.0
C1672 C 0.56999 0.86899 0.29527 0.0
C1673 C 0.61032 0.85776 0.31429 0.0
C1674 C 0.5964 0.86164 0.30777 0.0
H1675 H 0.53806 0.90208 0.2905 0.0
H1676 H 0.55966 0.89484 0.30182 0.0
H1677 H 0.58244 0.86572 0.27929 0.0
H1678 H 0.65587 0.86723 0.31379 0.0
H1679 H 0.63338 0.87424 0.30358 0.0
C1680 C 0.10267 0.64789 0.28023 0.0
C1681 C 0.10705 0.63521 0.28537 0.0
C1682 C 0.10832 0.66522 0.28636 0.0
C1683 C 0.14377 0.70018 0.30924 0.0
H1684 H 0.10898 0.71915 0.30985 0.0
C1685 C 0.16415 0.77168 0.33422 0.0
C1686 C 0.15791 0.78252 0.32837 0.0
C1687 C 0.15762 0.75318 0.32979 0.0
C1688 C 0.11894 0.71415 0.30966 0.0
H1689 H 0.12061 0.63083 0.30115 0.0
H1690 H 0.13082 0.66133 0.31174 0.0
H1691 H 0.09806 0.68775 0.30063 0.0
H1692 H 0.14014 0.7825 0.31317 0.0
H1693 H 0.12913 0.75054 0.30536 0.0
H1694 H 0.1648 0.72674 0.31799 0.0
C1695 C 0.12304 0.65778 0.30292 0.0
C1696 C 0.11265 0.69614 0.30441 0.0
C1697 C 0.11723 0.64034 0.29683 0.0
C1698 C 0.14513 0.77452 0.31797 0.0
C1699 C 0.1387 0.75611 0.31352 0.0
C1700 C 0.15011 0.71827 0.31443 0.0
C1701 C 0.11864 0.67039 0.29774 0.0
C1702 C 0.12505 0.68905 0.30402 0.0
C1703 C 0.14478 0.74517 0.3194 0.0
C1704 C 0.13783 0.72556 0.31456 0.0
H1705 H 0.0952 0.64462 0.27133 0.0
H1706 H 0.10499 0.67478 0.28206 0.0
H1707 H 0.15368 0.69513 0.30897 0.0
H1708 H 0.17394 0.7774 0.34228 0.0
H1709 H 0.16245 0.74509 0.33461 0.0
C1710 C 0.82509 0.02743 0.39696 0.0
C1711 C 0.819 0.03553 0.40576 0.0
C1712 C 0.81237 0.01004 0.39077 0.0
C1713 C 0.76694 0.96734 0.39373 0.0
H1714 H 0.76707 0.95714 0.35943 0.0
C1715 C 0.70852 0.89922 0.36737 0.0
C1716 C 0.71395 0.89059 0.35851 0.0
C1717 C 0.72143 0.91706 0.37283 0.0
C1718 C 0.76699 0.95969 0.36904 0.0
H1719 H 0.79453 0.03204 0.41451 0.0
H1720 H 0.77247 1.00178 0.40379 0.0
H1721 H 0.78949 0.98806 0.36938 0.0
H1722 H 0.73729 0.89405 0.34843 0.0
H1723 H 0.75985 0.92503 0.35809 0.0
H1724 H 0.7446 0.93902 0.39347 0.0
C1725 C 0.78714 0.00867 0.40184 0.0
C1726 C 0.77983 0.97742 0.37474 0.0
C1727 C 0.79981 0.02603 0.408 0.0
C1728 C 0.73259 0.90028 0.3552 0.0
C1729 C 0.74552 0.91812 0.36069 0.0
C1730 C 0.75416 0.94963 0.38806 0.0
C1731 C 0.7933 1.00035 0.39326 0.0
C1732 C 0.77988 0.98148 0.38714 0.0
C1733 C 0.74013 0.92672 0.36961 0.0
C1734 C 0.75394 0.94558 0.37563 0.0
H1735 H 0.83979 0.03428 0.39509 0.0
H1736 H 0.8176 0.00395 0.38428 0.0
H1737 H 0.76683 0.96988 0.40335 0.0
H1738 H 0.69427 0.89223 0.37011 0.0
H1739 H 0.71668 0.92336 0.37952 0.0
C1740 C 0.99594 0.79744 0.39576 0.0
C1741 C 0.99455 0.78945 0.40676 0.0
C1742 C 0.01128 0.80166 0.38896 0.0
C1743 C 0.04837 0.78936 0.38447 0.0
H1744 H 0.07432 0.83651 0.37034 0.0
C1745 C 0.12098 0.81496 0.36641 0.0
C1746 C 0.12496 0.82434 0.35587 0.0
C1747 C 0.10454 0.81062 0.37193 0.0
C1748 C 0.06708 0.82316 0.37407 0.0
H1749 H 1.00868 0.78019 0.41934 0.0
H1750 H 0.03513 0.78727 0.40745 0.0
H1751 H 0.04659 0.82909 0.38119 0.0
H1752 H 0.11463 0.83658 0.34293 0.0
H1753 H 0.08568 0.82874 0.35251 0.0
H1754 H 0.06871 0.78333 0.37739 0.0
C1755 C 0.02421 0.79002 0.40398 0.0
C1756 C 0.05119 0.81892 0.38031 0.0
C1757 C 1.00898 0.78592 0.41079 0.0
C1758 C 0.11203 0.82934 0.35102 0.0
C1759 C 0.09547 0.82493 0.35656 0.0
C1760 C 0.06416 0.79354 0.37821 0.0
C1761 C 0.02555 0.79789 0.39296 0.0
C1762 C 0.04181 0.80208 0.38574 0.0
C1763 C 0.09148 0.81544 0.36707 0.0
C1764 C 0.07392 0.81061 0.37307 0.0
H1765 H 0.98502 0.80016 0.39227 0.0
H1766 H 0.01179 0.80755 0.38046 0.0
H1767 H 0.04126 0.77609 0.38832 0.0
H1768 H 0.13068 0.81106 0.37051 0.0
H1769 H 0.10221 0.80368 0.38015 0.0
C1770 C 0.21927 0.18714 0.37654 0.0
C1771 C 0.23396 0.19305 0.38582 0.0
C1772 C 0.21476 0.19986 0.3718 0.0
C1773 C 0.23389 0.25046 0.36957 0.0
H1774 H 0.18102 0.23577 0.36296 0.0
C1775 C 0.20929 0.30342 0.36113 0.0
C1776 C 0.1946 0.29838 0.352 0.0
C1777 C 0.2144 0.29046 0.36457 0.0
C1778 C 0.19585 0.24 0.36461 0.0
H1779 H 0.25565 0.2171 0.39722 0.0
H1780 H 0.24748 0.23919 0.38917 0.0
H1781 H 0.18937 0.21338 0.37029 0.0
H1782 H 0.17385 0.27574 0.33925 0.0
H1783 H 0.18282 0.25311 0.34527 0.0
H1784 H 0.24033 0.27717 0.36405 0.0
C1785 C 0.23959 0.22474 0.38545 0.0
C1786 C 0.20065 0.22717 0.36881 0.0
C1787 C 0.24411 0.21203 0.39018 0.0
C1788 C 0.18522 0.28009 0.34632 0.0
C1789 C 0.19028 0.26709 0.34981 0.0
C1790 C 0.22909 0.2633 0.36541 0.0
C1791 C 0.22481 0.21881 0.37623 0.0
C1792 C 0.21973 0.23228 0.37141 0.0
C1793 C 0.20489 0.27212 0.359 0.0
C1794 C 0.21001 0.25825 0.36295 0.0
H1795 H 0.21102 0.1726 0.37306 0.0
H1796 H 0.20344 0.19485 0.36462 0.0
H1797 H 0.24873 0.25475 0.37128 0.0
H1798 H 0.21682 0.31737 0.36572 0.0
H1799 H 0.22555 0.2947 0.37178 0.0
C1800 C 0.65301 0.53884 0.7149 0.0
C1801 C 0.65359 0.53356 0.72663 0.0
C1802 C 0.66971 0.55089 0.7099 0.0
C1803 C 0.72123 0.56811 0.71309 0.0
H1804 H 0.72418 0.60642 0.69334 0.0
C1805 C 0.79211 0.62626 0.6994 0.0
C1806 C 0.79284 0.63165 0.6876 0.0
C1807 C 0.77487 0.61392 0.70364 0.0
C1808 C 0.72351 0.59563 0.6987 0.0
H1809 H 0.67231 0.53708 0.74234 0.0
H1810 H 0.70135 0.5584 0.73374 0.0
H1811 H 0.69469 0.58618 0.702 0.0
H1812 H 0.77587 0.62812 0.67098 0.0
H1813 H 0.74563 0.60644 0.67843 0.0
H1814 H 0.75006 0.57764 0.70989 0.0
C1815 C 0.68798 0.553 0.72832 0.0
C1816 C 0.7066 0.58403 0.70369 0.0
C1817 C 0.67129 0.54095 0.73332 0.0
C1818 C 0.77583 0.62427 0.68011 0.0
C1819 C 0.7585 0.61194 0.6844 0.0
C1820 C 0.7381 0.57971 0.70814 0.0
C1821 C 0.68743 0.55797 0.7165 0.0
C1822 C 0.70529 0.57021 0.71102 0.0
C1823 C 0.75783 0.60663 0.69623 0.0
C1824 C 0.73951 0.59371 0.70096 0.0
H1825 H 0.63962 0.5336 0.70954 0.0
H1826 H 0.66873 0.55431 0.70075 0.0
H1827 H 0.72063 0.55736 0.71847 0.0
H1828 H 0.80489 0.63166 0.70546 0.0
H1829 H 0.77487 0.61036 0.71285 0.0
C1830 C 0.47939 0.12103 0.73677 0.0
C1831 C 0.49732 0.12958 0.73233 0.0
C1832 C 0.46523 0.12448 0.73219 0.0
C1833 C 0.45822 0.15833 0.71529 0.0
H1834 H 0.40635 0.1177 0.70916 0.0
C1835 C 0.4012 0.16619 0.68769 0.0
C1836 C 0.38297 0.15811 0.69168 0.0
C1837 C 0.41486 0.16261 0.69294 0.0
C1838 C 0.42072 0.12925 0.71095 0.0
H1839 H 0.51444 0.14877 0.71971 0.0
H1840 H 0.48973 0.15443 0.71158 0.0
H1841 H 0.43065 0.11173 0.71787 0.0
H1842 H 0.36488 0.13983 0.70436 0.0
H1843 H 0.38877 0.13367 0.71355 0.0
H1844 H 0.44835 0.17583 0.70831 0.0
C1845 C 0.48662 0.14518 0.71868 0.0
C1846 C 0.43467 0.12583 0.71595 0.0
C1847 C 0.50074 0.14173 0.72325 0.0
C1848 C 0.37874 0.14625 0.70102 0.0
C1849 C 0.39242 0.14265 0.70626 0.0
C1850 C 0.4443 0.16174 0.71027 0.0
C1851 C 0.46867 0.13661 0.72308 0.0
C1852 C 0.45364 0.1403 0.71811 0.0
C1853 C 0.41069 0.15084 0.70232 0.0
C1854 C 0.42539 0.14723 0.70796 0.0
H1855 H 0.47619 0.11147 0.74369 0.0
H1856 H 0.45164 0.11777 0.73588 0.0
H1857 H 0.4726 0.1699 0.71704 0.0
H1858 H 0.40498 0.17534 0.6805 0.0
H1859 H 0.42868 0.16894 0.68955 0.0
C1860 C 0.90982 0.3677 0.7247 0.0
C1861 C 0.90876 0.3694 0.7372 0.0
C1862 C 0.90355 0.35021 0.71852 0.0
C1863 C 0.87267 0.29972 0.72112 0.0
H1864 H 0.90204 0.29388 0.69689 0.0
C1865 C 0.85899 0.22757 0.70256 0.0
C1866 C 0.85962 0.22457 0.69011 0.0
C1867 C 0.86465 0.24541 0.70787 0.0
C1868 C 0.89356 0.29533 0.70353 0.0
H1869 H 0.90007 0.354 0.75299 0.0
H1870 H 0.88956 0.32364 0.74229 0.0
H1871 H 0.91258 0.32478 0.70694 0.0
H1872 H 0.86673 0.23801 0.67349 0.0
H1873 H 0.87653 0.26916 0.68279 0.0
H1874 H 0.85376 0.27027 0.71779 0.0
C1875 C 0.89504 0.33577 0.73722 0.0
C1876 C 0.89959 0.31303 0.70928 0.0
C1877 C 0.9013 0.35322 0.74338 0.0
C1878 C 0.86608 0.23983 0.6831 0.0
C1879 C 0.8718 0.2577 0.68843 0.0
C1880 C 0.86667 0.28204 0.71538 0.0
C1881 C 0.89605 0.33404 0.72472 0.0
C1882 C 0.8893 0.31539 0.71823 0.0
C1883 C 0.8711 0.26067 0.70088 0.0
C1884 C 0.87713 0.27961 0.7066 0.0
H1885 H 0.91564 0.37991 0.71969 0.0
H1886 H 0.90439 0.34933 0.70887 0.0
H1887 H 0.86421 0.30111 0.72779 0.0
H1888 H 0.85415 0.21615 0.70825 0.0
H1889 H 0.8642 0.24727 0.71751 0.0
C1890 C 0.19737 0.97938 0.6215 0.0
C1891 C 0.20148 0.97361 0.61054 0.0
C1892 C 0.21004 0.99686 0.62759 0.0
C1893 C 0.25043 0.04329 0.62274 0.0
H1894 H 0.25875 0.04903 0.65764 0.0
C1895 C 0.30996 0.1111 0.64917 0.0
C1896 C 0.30524 0.11763 0.65957 0.0
C1897 C 0.29736 0.09347 0.64327 0.0
C1898 C 0.25645 0.04768 0.64789 0.0
H1899 H 0.22218 0.9819 0.59739 0.0
H1900 H 0.24444 0.01198 0.60816 0.0
H1901 H 0.2367 0.01838 0.64726 0.0
H1902 H 0.28354 0.11064 0.67192 0.0
H1903 H 0.26162 0.07994 0.66162 0.0
H1904 H 0.27032 0.07258 0.62339 0.0
C1905 C 0.2313 1.00314 0.61198 0.0
C1906 C 0.24378 0.03012 0.64193 0.0
C1907 C 0.21863 0.98573 0.60588 0.0
C1908 C 0.28767 0.10607 0.66395 0.0
C1909 C 0.27513 0.08841 0.65809 0.0
C1910 C 0.26317 0.06082 0.62869 0.0
C1911 C 0.22715 0.00898 0.62289 0.0
C1912 C 0.2406 0.02769 0.62927 0.0
C1913 C 0.2798 0.08192 0.64766 0.0
C1914 C 0.26633 0.06323 0.64134 0.0
H1915 H 0.18441 0.97036 0.62543 0.0
H1916 H 0.20627 1.00095 0.6359 0.0
H1917 H 0.24809 0.04205 0.613 0.0
H1918 H 0.32336 0.11963 0.64553 0.0
H1919 H 0.30146 0.08881 0.63532 0.0
C1920 C 0.01539 0.20838 0.61367 0.0
C1921 C 0.03249 0.21607 0.6211 0.0
C1922 C 0.99856 0.20475 0.61851 0.0
C1923 C 0.97994 0.2164 0.64534 0.0
H1924 H 0.93372 0.17056 0.63389 0.0
C1925 C 0.91035 0.19014 0.66863 0.0
C1926 C 0.89343 0.18269 0.66104 0.0
C1927 C 0.92742 0.19437 0.66387 0.0
C1928 C 0.94646 0.18351 0.63712 0.0
H1929 H 0.04527 0.22651 0.63945 0.0
H1930 H 0.01595 0.21983 0.6479 0.0
H1931 H 0.96313 0.17794 0.62527 0.0
H1932 H 0.88132 0.17385 0.64243 0.0
H1933 H 0.91094 0.18126 0.6342 0.0
H1934 H 0.96321 0.22188 0.65725 0.0
C1935 C 0.01553 0.21671 0.6383 0.0
C1936 C 0.96335 0.18778 0.63214 0.0
C1937 C 0.03234 0.22034 0.63346 0.0
C1938 C 0.89402 0.17952 0.64859 0.0
C1939 C 0.91102 0.18367 0.64385 0.0
C1940 C 0.96304 0.2121 0.65034 0.0
C1941 C 0.99837 0.20873 0.63091 0.0
C1942 C 0.98032 0.2043 0.63617 0.0
C1943 C 0.92796 0.19116 0.65142 0.0
C1944 C 0.94606 0.19562 0.64627 0.0
H1945 H 0.0149 0.20477 0.60413 0.0
H1946 H 0.98568 0.19883 0.61251 0.0
H1947 H 0.99265 0.22937 0.64856 0.0
H1948 H 0.91044 0.19275 0.67826 0.0
H1949 H 0.94016 0.19994 0.66998 0.0
C1950 C 0.78793 0.79987 0.62515 0.0
C1951 C 0.78112 0.80877 0.63279 0.0
C1952 C 0.79274 0.78713 0.62948 0.0
C1953 C 0.80662 0.77365 0.65755 0.0
H1954 H 0.79395 0.72852 0.63763 0.0
C1955 C 0.82097 0.71651 0.67447 0.0
C1956 C 0.82794 0.70852 0.66624 0.0
C1957 C 0.81463 0.72847 0.6707 0.0
C1958 C 0.79776 0.74114 0.64326 0.0
H1959 H 0.77364 0.81093 0.65093 0.0
H1960 H 0.7821 0.78871 0.6585 0.0
H1961 H 0.78378 0.74967 0.63045 0.0
H1962 H 0.83394 0.70705 0.64761 0.0
H1963 H 0.82316 0.728 0.64113 0.0
H1964 H 0.82075 0.7652 0.67031 0.0
C1965 C 0.78395 0.79179 0.64919 0.0
C1966 C 0.79192 0.75326 0.63914 0.0
C1967 C 0.77911 0.80453 0.64485 0.0
C1968 C 0.82858 0.71287 0.65419 0.0
C1969 C 0.82227 0.7248 0.65044 0.0
C1970 C 0.81249 0.76153 0.66166 0.0
C1971 C 0.79087 0.78299 0.64157 0.0
C1972 C 0.79641 0.76974 0.64619 0.0
C1973 C 0.81513 0.73267 0.65863 0.0
C1974 C 0.80827 0.74522 0.65451 0.0
H1975 H 0.78998 0.80306 0.61587 0.0
H1976 H 0.79833 0.78083 0.62342 0.0
H1977 H 0.81051 0.78635 0.66313 0.0
H1978 H 0.82023 0.71342 0.6838 0.0
H1979 H 0.80906 0.73417 0.67721 0.0
C1980 C 0.01769 0.79679 0.61653 0.0
C1981 C 0.0309 0.81406 0.6228 0.0
C1982 C 1.00164 0.78405 0.62183 0.0
C1983 C 0.97083 0.78106 0.64566 0.0
H1984 H 0.95449 0.72831 0.64217 0.0
C1985 C 0.90935 0.72712 0.67077 0.0
C1986 C 0.89678 0.70979 0.66433 0.0
C1987 C 0.92607 0.73985 0.66604 0.0
C1988 C 0.95871 0.74296 0.64313 0.0
H1989 H 0.03768 0.83119 0.63974 0.0
H1990 H 1.00963 0.80908 0.64889 0.0
H1991 H 0.98275 0.75038 0.63315 0.0
H1992 H 0.89195 0.69239 0.64778 0.0
H1993 H 0.9208 0.71458 0.63953 0.0
H1994 H 0.94669 0.77366 0.65552 0.0
C1995 C 0.01157 0.80551 0.63981 0.0
C1996 C 0.97494 0.75562 0.63795 0.0
C1997 C 0.02765 0.8182 0.63453 0.0
C1998 C 0.90135 0.70552 0.65307 0.0
C1999 C 0.91799 0.71824 0.64834 0.0
C2000 C 0.95455 0.7684 0.6508 0.0
C2001 C 0.99835 0.78828 0.63352 0.0
C2002 C 0.98117 0.77482 0.63913 0.0
C2003 C 0.93059 0.73558 0.65474 0.0
C2004 C 0.94823 0.74916 0.64956 0.0
H2005 H 0.01956 0.79322 0.60743 0.0
H2006 H 0.99161 0.771 0.61668 0.0
H2007 H 0.9751 0.79574 0.64661 0.0
H2008 H 0.9063 0.73086 0.67947 0.0
H2009 H 0.93554 0.75297 0.6713 0.0
C2010 C 0.20957 0.21024 0.60439 0.0
C2011 C 0.19958 0.21751 0.61035 0.0
C2012 C 0.22144 0.20554 0.61092 0.0
C2013 C 0.24846 0.21481 0.64063 0.0
H2014 H 0.25111 0.17111 0.62959 0.0
C2015 C 0.2937 0.18987 0.66717 0.0
C2016 C 0.30394 0.18385 0.66032 0.0
C2017 C 0.28039 0.19362 0.6615 0.0
C2018 C 0.25068 0.18346 0.63273 0.0
H2019 H 0.19425 0.22541 0.62792 0.0
H2020 H 0.21474 0.21687 0.63933 0.0
H2021 H 0.22871 0.17797 0.61905 0.0
H2022 H 0.30822 0.1772 0.64208 0.0
H2023 H 0.2852 0.18383 0.63226 0.0
H2024 H 0.27052 0.2203 0.6543 0.0
C2025 C 0.21353 0.21502 0.62958 0.0
C2026 C 0.23782 0.1874 0.62668 0.0
C2027 C 0.20161 0.21973 0.62304 0.0
C2028 C 0.30058 0.18174 0.64767 0.0
C2029 C 0.28726 0.18543 0.64202 0.0
C2030 C 0.26132 0.21084 0.6467 0.0
C2031 C 0.22365 0.20792 0.62359 0.0
C2032 C 0.23667 0.20324 0.63046 0.0
C2033 C 0.27695 0.19137 0.64885 0.0
C2034 C 0.26273 0.19522 0.64275 0.0
H2035 H 0.20817 0.20811 0.59465 0.0
H2036 H 0.22915 0.20031 0.60598 0.0
H2037 H 0.24814 0.22724 0.64371 0.0
H2038 H 0.2959 0.19164 0.67692 0.0
H2039 H 0.27259 0.19802 0.66704 0.0
C2040 C 0.79052 0.97801 0.6259 0.0
C2041 C 0.77426 0.96917 0.61764 0.0
C2042 C 0.79625 0.99552 0.63186 0.0
C2043 C 0.79222 0.0372 0.62836 0.0
H2044 H 0.81031 0.04992 0.66229 0.0
C2045 C 0.80752 0.10662 0.65287 0.0
C2046 C 0.82364 0.11608 0.66119 0.0
C2047 C 0.80139 0.08844 0.64804 0.0
C2048 C 0.8055 0.04665 0.65277 0.0
H2049 H 0.75077 0.9714 0.60963 0.0
H2050 H 0.76084 1.00196 0.61994 0.0
H2051 H 0.79965 0.01845 0.65312 0.0
H2052 H 0.8459 0.11376 0.67104 0.0
H2053 H 0.83538 0.08209 0.66243 0.0
H2054 H 0.79824 0.06533 0.6279 0.0
C2055 C 0.76933 0.9955 0.62165 0.0
C2056 C 0.79937 0.02862 0.64754 0.0
C2057 C 0.76358 0.978 0.61574 0.0
C2058 C 0.8334 0.10686 0.66467 0.0
C2059 C 0.82731 0.08866 0.65978 0.0
C2060 C 0.79842 0.0552 0.63356 0.0
C2061 C 0.78587 0.00457 0.62964 0.0
C2062 C 0.79255 0.02368 0.63529 0.0
C2063 C 0.81129 0.07928 0.65135 0.0
C2064 C 0.80503 0.06014 0.64585 0.0
H2065 H 0.79917 0.97168 0.62748 0.0
H2066 H 0.80913 1.00223 0.6379 0.0
H2067 H 0.7874 0.03393 0.61884 0.0
H2068 H 0.79956 0.11322 0.65006 0.0
H2069 H 0.7888 0.08151 0.64175 0.0
C2070 C 0.48785 0.36554 0.72797 0.0
C2071 C 0.48891 0.36834 0.74061 0.0
C2072 C 0.47511 0.34809 0.72186 0.0
C2073 C 0.44745 0.29806 0.72654 0.0
H2074 H 0.41713 0.29441 0.69746 0.0
C2075 C 0.38461 0.22772 0.70596 0.0
C2076 C 0.38174 0.22418 0.69334 0.0
C2077 C 0.39793 0.24542 0.71141 0.0
C2078 C 0.42566 0.29518 0.70548 0.0
H2079 H 0.47697 0.35498 0.75666 0.0
H2080 H 0.45503 0.32462 0.74605 0.0
H2081 H 0.44012 0.32509 0.70745 0.0
H2082 H 0.39072 0.23657 0.67653 0.0
H2083 H 0.41416 0.26737 0.68605 0.0
H2084 H 0.43313 0.26823 0.72459 0.0
C2085 C 0.46423 0.33584 0.74087 0.0
C2086 C 0.43883 0.31277 0.7112 0.0
C2087 C 0.47686 0.35327 0.74696 0.0
C2088 C 0.39249 0.23881 0.68629 0.0
C2089 C 0.40588 0.25652 0.69174 0.0
C2090 C 0.43436 0.2805 0.7208 0.0
C2091 C 0.46322 0.33302 0.72826 0.0
C2092 C 0.44975 0.3144 0.72187 0.0
C2093 C 0.40882 0.26003 0.70438 0.0
C2094 C 0.42317 0.27881 0.71025 0.0
H2095 H 0.49706 0.37675 0.72279 0.0
H2096 H 0.4748 0.34631 0.71215 0.0
H2097 H 0.45588 0.29885 0.73462 0.0
H2098 H 0.37652 0.21682 0.71169 0.0
H2099 H 0.39956 0.24768 0.72116 0.0
C2100 C 0.67315 0.11651 0.74289 0.0
C2101 C 0.66205 0.12495 0.74118 0.0
C2102 C 0.68807 0.12036 0.73583 0.0
C2103 C 0.72048 0.15514 0.7163 0.0
H2104 H 0.73048 0.11553 0.70658 0.0
C2105 C 0.77989 0.16588 0.68559 0.0
C2106 C 0.79093 0.15794 0.68908 0.0
C2107 C 0.76344 0.16174 0.69119 0.0
C2108 C 0.72798 0.1268 0.70929 0.0
H2109 H 0.6581 0.14416 0.7306 0.0
H2110 H 0.6839 0.15058 0.71809 0.0
H2111 H 0.70315 0.1085 0.71761 0.0
H2112 H 0.79323 0.13941 0.70124 0.0
H2113 H 0.76478 0.1323 0.71091 0.0
H2114 H 0.74541 0.17344 0.70797 0.0
C2115 C 0.68118 0.14112 0.72503 0.0
C2116 C 0.7123 0.12277 0.71565 0.0
C2117 C 0.66622 0.13727 0.73212 0.0
C2118 C 0.78507 0.14572 0.69824 0.0
C2119 C 0.76865 0.14154 0.70377 0.0
C2120 C 0.73616 0.15917 0.7099 0.0
C2121 C 0.69233 0.13273 0.7268 0.0
C2122 C 0.70846 0.13692 0.7194 0.0
C2123 C 0.75761 0.14949 0.70034 0.0
C2124 C 0.74026 0.14509 0.70645 0.0
H2125 H 0.67025 0.10677 0.74966 0.0
H2126 H 0.69646 0.1138 0.73758 0.0
H2127 H 0.71811 0.16645 0.71914 0.0
H2128 H 0.78398 0.17538 0.67859 0.0
H2129 H 0.7552 0.16801 0.68827 0.0
C2130 C 0.8849 0.52027 0.70913 0.0
C2131 C 0.89986 0.52627 0.71822 0.0
C2132 C 0.88046 0.533 0.70433 0.0
C2133 C 0.90007 0.58354 0.70151 0.0
H2134 H 0.84726 0.56953 0.6957 0.0
C2135 C 0.87627 0.63716 0.6934 0.0
C2136 C 0.86123 0.63216 0.68454 0.0
C2137 C 0.88127 0.62408 0.69673 0.0
C2138 C 0.86206 0.57357 0.69712 0.0
H2139 H 0.92211 0.55048 0.72922 0.0
H2140 H 0.91406 0.57259 0.72108 0.0
H2141 H 0.85546 0.54703 0.70302 0.0
H2142 H 0.83976 0.60945 0.67214 0.0
H2143 H 0.84855 0.5866 0.67796 0.0
H2144 H 0.90665 0.61018 0.69577 0.0
C2145 C 0.9059 0.55806 0.71754 0.0
C2146 C 0.86677 0.56067 0.70131 0.0
C2147 C 0.91036 0.54534 0.72233 0.0
C2148 C 0.85141 0.61378 0.67901 0.0
C2149 C 0.85636 0.60065 0.68239 0.0
C2150 C 0.89536 0.59644 0.69735 0.0
C2151 C 0.89085 0.55204 0.70851 0.0
C2152 C 0.88584 0.56554 0.70364 0.0
C2153 C 0.87131 0.60565 0.69131 0.0
C2154 C 0.8763 0.59165 0.69519 0.0
H2155 H 0.87639 0.50566 0.70584 0.0
H2156 H 0.86891 0.52792 0.69729 0.0
H2157 H 0.91488 0.58764 0.703 0.0
H2158 H 0.88415 0.65118 0.69787 0.0
H2159 H 0.89269 0.62831 0.70375 0.0
C2160 C 0.48205 0.95491 0.18269 0.0
C2161 C 0.46342 0.94077 0.18396 0.0
C2162 C 0.48739 0.96161 0.17145 0.0
C2163 C 0.46724 0.96437 0.14152 0.0
H2164 H 0.51642 0.97634 0.13156 0.0
C2165 C 0.48744 0.98347 0.09325 0.0
C2166 C 0.50592 0.99796 0.092 0.0
C2167 C 0.48238 0.97629 0.10439 0.0
C2168 C 0.50271 0.97327 0.13425 0.0
H2169 H 0.43595 0.92225 0.17423 0.0
H2170 H 0.44524 0.93389 0.15469 0.0
H2171 H 0.50747 0.96422 0.15106 0.0
H2172 H 0.53364 0.01598 0.10157 0.0
H2173 H 0.52471 1.00375 0.12103 0.0
H2174 H 0.46248 0.97346 0.12474 0.0
C2175 C 0.45566 0.94007 0.16243 0.0
C2176 C 0.49757 0.96631 0.14545 0.0
C2177 C 0.45033 0.93338 0.17366 0.0
C2178 C 0.51922 0.00499 0.1022 0.0
C2179 C 0.51416 0.9978 0.11335 0.0
C2180 C 0.47237 0.97133 0.13033 0.0
C2181 C 0.47423 0.95435 0.16118 0.0
C2182 C 0.47975 0.96175 0.14923 0.0
C2183 C 0.49565 0.98338 0.11461 0.0
C2184 C 0.49018 0.97588 0.12653 0.0
H2185 H 0.49245 0.96111 0.19045 0.0
H2186 H 0.50174 0.97279 0.17088 0.0
H2187 H 0.45354 0.96133 0.14421 0.0
H2188 H 0.47676 0.97781 0.08564 0.0
H2189 H 0.46806 0.96505 0.10497 0.0
C2190 C 0.05899 0.52278 0.18565 0.0
C2191 C 0.04963 0.50699 0.19209 0.0
C2192 C 0.05311 0.52223 0.17356 0.0
C2193 C 0.0122 0.49646 0.15071 0.0
H2194 H 0.04988 0.51853 0.12793 0.0
C2195 C 0.99258 0.48435 0.09928 0.0
C2196 C 1.00221 0.49953 0.0924 0.0
C2197 C 0.99823 0.48572 0.11151 0.0
C2198 C 0.03918 0.51252 0.1342 0.0
H2199 H 0.02661 0.47831 0.19089 0.0
H2200 H 0.0165 0.47727 0.16973 0.0
H2201 H 0.05997 0.52001 0.14913 0.0
H2202 H 0.02516 0.52818 0.09304 0.0
H2203 H 0.03502 0.5306 0.11442 0.0
H2204 H 0.9914 0.48894 0.13579 0.0
C2205 C 0.0283 0.49013 0.17407 0.0
C2206 C 0.04497 0.51335 0.14635 0.0
C2207 C 0.03422 0.49066 0.18616 0.0
C2208 C 0.0176 0.51615 0.09805 0.0
C2209 C 0.02325 0.51753 0.1103 0.0
C2210 C 1.00641 0.49565 0.13857 0.0
C2211 C 0.0377 0.5059 0.16763 0.0
C2212 C 0.03154 0.50527 0.15474 0.0
C2213 C 0.01366 0.50231 0.11717 0.0
C2214 C 0.01983 0.5036 0.13015 0.0
H2215 H 0.07103 0.53552 0.18992 0.0
H2216 H 0.06054 0.53467 0.16889 0.0
H2217 H 1.00151 0.49036 0.15698 0.0
H2218 H 0.98088 0.47124 0.09516 0.0
H2219 H 0.99074 0.47363 0.11648 0.0
C2220 C 0.46034 0.49378 0.18005 0.0
C2221 C 0.4597 0.50957 0.1846 0.0
C2222 C 0.46612 0.49292 0.16856 0.0
C2223 C 0.47123 0.51323 0.13932 0.0
H2224 H 0.50442 0.49314 0.13429 0.0
C2225 C 0.50452 0.51706 0.09435 0.0
C2226 C 0.50573 0.50147 0.09003 0.0
C2227 C 0.49909 0.51819 0.1059 0.0
C2228 C 0.49497 0.49859 0.13549 0.0
H2229 H 0.46444 0.53678 0.18054 0.0
H2230 H 0.47472 0.53538 0.16058 0.0
H2231 H 0.49456 0.49477 0.15434 0.0
H2232 H 0.50183 0.47471 0.09446 0.0
H2233 H 0.49225 0.47662 0.11456 0.0
H2234 H 0.47152 0.51695 0.12048 0.0
C2235 C 0.47064 0.52359 0.16586 0.0
C2236 C 0.48933 0.49953 0.147 0.0
C2237 C 0.46494 0.52448 0.17737 0.0
C2238 C 0.50134 0.48704 0.09756 0.0
C2239 C 0.49586 0.48816 0.1091 0.0
C2240 C 0.47683 0.51224 0.1278 0.0
C2241 C 0.47131 0.50781 0.16132 0.0
C2242 C 0.47738 0.50686 0.14907 0.0
C2243 C 0.49466 0.50375 0.11343 0.0
C2244 C 0.48877 0.50489 0.12573 0.0
H2245 H 0.45658 0.48212 0.18542 0.0
H2246 H 0.4663 0.48048 0.1653 0.0
H2247 H 0.4618 0.5187 0.14055 0.0
H2248 H 0.50807 0.52854 0.08885 0.0
H2249 H 0.49863 0.53055 0.10899 0.0
C2250 C 0.95935 0.51122 0.83667 0.0
C2251 C 0.96518 0.50286 0.82788 0.0
C2252 C 0.9651 0.51247 0.84888 0.0
C2253 C 0.98269 0.49116 0.87049 0.0
H2254 H 0.99804 0.53647 0.89107 0.0
C2255 C 0.99544 0.49542 0.92233 0.0
C2256 C 0.01143 0.51156 0.92796 0.0
C2257 C 0.98974 0.49442 0.91013 0.0
C2258 C 0.99389 0.52376 0.88543 0.0
H2259 H 0.982 0.48963 0.82505 0.0
H2260 H 0.99195 0.49173 0.84636 0.0
H2261 H 0.98864 0.53481 0.86969 0.0
H2262 H 0.03379 0.53942 0.92525 0.0
H2263 H 0.02397 0.5376 0.90394 0.0
H2264 H 0.98818 0.4802 0.88619 0.0
C2265 C 0.9827 0.49708 0.84381 0.0
C2266 C 0.98832 0.52274 0.87321 0.0
C2267 C 0.97699 0.49587 0.8316 0.0
C2268 C 0.02152 0.52672 0.92115 0.0
C2269 C 0.01578 0.52575 0.90897 0.0
C2270 C 0.98818 0.49216 0.88272 0.0
C2271 C 0.97678 0.50535 0.8526 0.0
C2272 C 0.98269 0.50644 0.8656 0.0
C2273 C 0.99985 0.50957 0.90331 0.0
C2274 C 0.99388 0.50847 0.89033 0.0
H2275 H 0.95002 0.51647 0.83414 0.0
H2276 H 0.96009 0.51868 0.85544 0.0
H2277 H 0.97824 0.47834 0.8649 0.0
H2278 H 0.98746 0.48344 0.9273 0.0
H2279 H 0.97731 0.48182 0.90607 0.0
C2280 C 0.5561 0.51541 0.83645 0.0
C2281 C 0.55691 0.49975 0.83179 0.0
C2282 C 0.55004 0.51595 0.84788 0.0
C2283 C 0.54407 0.49472 0.87686 0.0
H2284 H 0.51135 0.51536 0.88194 0.0
C2285 C 0.51024 0.49071 0.92168 0.0
C2286 C 0.50973 0.50662 0.92615 0.0
C2287 C 0.5156 0.48951 0.9101 0.0
C2288 C 0.52065 0.50973 0.88071 0.0
H2289 H 0.55213 0.47244 0.83562 0.0
H2290 H 0.54129 0.47326 0.85547 0.0
H2291 H 0.52149 0.514 0.86194 0.0
H2292 H 0.51474 0.53386 0.92194 0.0
H2293 H 0.52404 0.53178 0.9018 0.0
H2294 H 0.54329 0.4905 0.89564 0.0
C2295 C 0.54549 0.4852 0.85031 0.0
C2296 C 0.52647 0.50895 0.86923 0.0
C2297 C 0.55151 0.48465 0.83887 0.0
C2298 C 0.51464 0.52126 0.91873 0.0
C2299 C 0.52 0.52007 0.90716 0.0
C2300 C 0.53826 0.4955 0.88834 0.0
C2301 C 0.54467 0.50086 0.85496 0.0
C2302 C 0.5383 0.50148 0.86716 0.0
C2303 C 0.52058 0.5042 0.9027 0.0
C2304 C 0.52652 0.50307 0.89043 0.0
H2305 H 0.55997 0.52721 0.8312 0.0
H2306 H 0.54978 0.52831 0.85122 0.0
H2307 H 0.5534 0.48912 0.87563 0.0
H2308 H 0.50629 0.47906 0.92707 0.0
H2309 H 0.51561 0.47696 0.9069 0.0
C2310 C 0.54512 0.05698 0.83773 0.0
C2311 C 0.54209 0.07185 0.83542 0.0
C2312 C 0.5426 0.05004 0.84909 0.0
C2313 C 0.53898 0.06187 0.88115 0.0
H2314 H 0.51318 0.00826 0.88262 0.0
C2315 C 0.51054 0.0276 0.92501 0.0
C2316 C 0.5123 0.01208 0.9276 0.0
C2317 C 0.51495 0.03508 0.91389 0.0
C2318 C 0.52062 0.02328 0.8824 0.0
H2319 H 0.53467 0.09147 0.84345 0.0
H2320 H 0.52995 0.07919 0.86309 0.0
H2321 H 0.51988 0.02104 0.86314 0.0
H2322 H 0.52056 0.99258 0.9205 0.0
H2323 H 0.5282 0.00558 0.90114 0.0
H2324 H 0.53958 0.06409 0.90041 0.0
C2325 C 0.53439 0.07293 0.85618 0.0
C2326 C 0.52449 0.03062 0.87121 0.0
C2327 C 0.53688 0.07984 0.84484 0.0
C2328 C 0.51868 0.00431 0.91877 0.0
C2329 C 0.52309 0.01179 0.90765 0.0
C2330 C 0.5351 0.05453 0.89234 0.0
C2331 C 0.53706 0.05782 0.85844 0.0
C2332 C 0.53362 0.05002 0.87042 0.0
C2333 C 0.52126 0.02726 0.90504 0.0
C2334 C 0.52577 0.03512 0.89312 0.0
H2335 H 0.54901 0.0504 0.83068 0.0
H2336 H 0.54501 0.03854 0.85054 0.0
H2337 H 0.54632 0.07689 0.88093 0.0
H2338 H 0.50542 0.03379 0.93151 0.0
H2339 H 0.51309 0.04681 0.91214 0.0
C2340 C 0.12086 0.27956 0.51058 0.0
C2341 C 0.13259 0.27616 0.51849 0.0
C2342 C 0.1264 0.28593 0.49931 0.0
C2343 C 0.16875 0.3087 0.48206 0.0
H2344 H 0.13097 0.29174 0.45471 0.0
C2345 C 0.18542 0.34287 0.43704 0.0
C2346 C 0.17671 0.33148 0.42618 0.0
C2347 C 0.18037 0.33572 0.44819 0.0
C2348 C 0.14178 0.29649 0.4622 0.0
H2349 H 0.15952 0.27696 0.52062 0.0
H2350 H 0.16889 0.28744 0.50085 0.0
H2351 H 0.12159 0.27967 0.4741 0.0
H2352 H 0.15579 0.30345 0.41868 0.0
H2353 H 0.14748 0.29086 0.43807 0.0
H2354 H 0.18903 0.32512 0.47007 0.0
C2355 C 0.1555 0.28548 0.50344 0.0
C2356 C 0.13633 0.28975 0.4734 0.0
C2357 C 0.14999 0.27921 0.51475 0.0
C2358 C 0.16299 0.31264 0.42682 0.0
C2359 C 0.158 0.30546 0.43798 0.0
C2360 C 0.17422 0.31536 0.47084 0.0
C2361 C 0.1438 0.28897 0.49556 0.0
C2362 C 0.14971 0.29584 0.48353 0.0
C2363 C 0.16652 0.31693 0.44883 0.0
C2364 C 0.1608 0.30944 0.46075 0.0
H2365 H 0.10724 0.27715 0.51303 0.0
H2366 H 0.11709 0.28867 0.49359 0.0
H2367 H 0.17945 0.31389 0.48965 0.0
H2368 H 0.19623 0.35738 0.43695 0.0
H2369 H 0.18712 0.34508 0.45631 0.0
C2370 C 0.73167 0.85351 0.51748 0.0
C2371 C 0.719 0.84131 0.52516 0.0
C2372 C 0.72576 0.85296 0.5054 0.0
C2373 C 0.68349 0.83891 0.48471 0.0
H2374 H 0.71487 0.83894 0.45988 0.0
C2375 C 0.65702 0.82431 0.43411 0.0
C2376 C 0.67008 0.83388 0.42577 0.0
C2377 C 0.66304 0.82589 0.4463 0.0
C2378 C 0.70606 0.83923 0.46669 0.0
H2379 H 0.69017 0.81911 0.52624 0.0
H2380 H 0.67981 0.81817 0.50509 0.0
H2381 H 0.72529 0.84039 0.481 0.0
H2382 H 0.69978 0.85285 0.42384 0.0
H2383 H 0.71015 0.8562 0.44514 0.0
H2384 H 0.66436 0.83802 0.47048 0.0
C2385 C 0.69431 0.82816 0.50845 0.0
C2386 C 0.71202 0.83999 0.47879 0.0
C2387 C 0.70028 0.82858 0.52051 0.0
C2388 C 0.68927 0.84541 0.43 0.0
C2389 C 0.69527 0.84712 0.44221 0.0
C2390 C 0.6776 0.83833 0.47261 0.0
C2391 C 0.70701 0.84031 0.50076 0.0
C2392 C 0.70076 0.83975 0.48793 0.0
C2393 C 0.68227 0.83723 0.45051 0.0
C2394 C 0.68876 0.83839 0.46343 0.0
H2395 H 0.74623 0.86337 0.52079 0.0
H2396 H 0.73582 0.86258 0.49971 0.0
H2397 H 0.67463 0.83896 0.49158 0.0
H2398 H 0.64209 0.81552 0.43122 0.0
H2399 H 0.65263 0.81791 0.45237 0.0
C2400 C 0.1134 0.83364 0.50744 0.0
C2401 C 0.12697 0.84363 0.51729 0.0
C2402 C 0.11896 0.83258 0.49592 0.0
C2403 C 0.15897 0.85613 0.47725 0.0
H2404 H 0.13303 0.80908 0.45724 0.0
C2405 C 0.17084 0.84992 0.42688 0.0
C2406 C 0.17221 0.83438 0.42268 0.0
C2407 C 0.16544 0.85116 0.43844 0.0
C2408 C 0.1405 0.8223 0.46274 0.0
H2409 H 0.15712 0.86016 0.52268 0.0
H2410 H 0.1668 0.8584 0.50258 0.0
H2411 H 0.12361 0.81097 0.4774 0.0
H2412 H 0.16875 0.80786 0.42732 0.0
H2413 H 0.15956 0.81012 0.4475 0.0
H2414 H 0.17603 0.8674 0.46264 0.0
C2415 C 0.15182 0.85157 0.50376 0.0
C2416 C 0.13496 0.82343 0.47425 0.0
C2417 C 0.14626 0.85259 0.51529 0.0
C2418 C 0.16802 0.82011 0.43031 0.0
C2419 C 0.16255 0.82131 0.44184 0.0
C2420 C 0.16446 0.85502 0.46571 0.0
C2421 C 0.13824 0.84153 0.49393 0.0
C2422 C 0.14414 0.84036 0.48166 0.0
C2423 C 0.16119 0.83684 0.44605 0.0
C2424 C 0.15531 0.83808 0.45832 0.0
H2425 H 0.09841 0.82685 0.50859 0.0
H2426 H 0.10811 0.82498 0.48853 0.0
H2427 H 0.16622 0.86943 0.48268 0.0
H2428 H 0.17412 0.86124 0.42129 0.0
H2429 H 0.16437 0.86324 0.44135 0.0
C2430 C 0.62849 0.84636 0.16961 0.0
C2431 C 0.63445 0.83804 0.16087 0.0
C2432 C 0.63399 0.84746 0.18185 0.0
C2433 C 0.65108 0.82591 0.20359 0.0
H2434 H 0.66636 0.87118 0.22419 0.0
C2435 C 0.66337 0.83001 0.25546 0.0
C2436 C 0.67936 0.84611 0.26113 0.0
C2437 C 0.65775 0.82904 0.24325 0.0
C2438 C 0.66223 0.85848 0.21854 0.0
H2439 H 0.65119 0.8247 0.15818 0.0
H2440 H 0.66071 0.82656 0.17954 0.0
H2441 H 0.65724 0.86963 0.20277 0.0
H2442 H 0.7018 0.87395 0.25847 0.0
H2443 H 0.69214 0.87219 0.23714 0.0
H2444 H 0.65633 0.81485 0.21932 0.0
C2445 C 0.65156 0.832 0.17692 0.0
C2446 C 0.65682 0.85752 0.2063 0.0
C2447 C 0.6461 0.83093 0.16468 0.0
C2448 C 0.68953 0.86128 0.25434 0.0
C2449 C 0.68387 0.86035 0.24215 0.0
C2450 C 0.65642 0.82684 0.21584 0.0
C2451 C 0.64554 0.84024 0.18565 0.0
C2452 C 0.65122 0.84124 0.19868 0.0
C2453 C 0.66796 0.8442 0.23645 0.0
C2454 C 0.66209 0.84315 0.22345 0.0
H2455 H 0.61926 0.8517 0.16701 0.0
H2456 H 0.6289 0.85367 0.18836 0.0
H2457 H 0.64666 0.8131 0.19799 0.0
H2458 H 0.65533 0.81802 0.26041 0.0
H2459 H 0.64532 0.81648 0.23916 0.0
C2460 C 0.21731 0.81478 0.17124 0.0
C2461 C 0.22435 0.83044 0.16455 0.0
C2462 C 0.21134 0.81546 0.18267 0.0
C2463 C 0.19557 0.84153 0.20229 0.0
H2464 H 0.20819 0.8186 0.22789 0.0
C2465 C 0.16499 0.83424 0.24859 0.0
C2466 C 0.17743 0.83788 0.2589 0.0
C2467 C 0.1704 0.83296 0.23705 0.0
C2468 C 0.20464 0.82518 0.22087 0.0
H2469 H 0.2304 0.85905 0.16466 0.0
H2470 H 0.22028 0.86034 0.18469 0.0
H2471 H 0.21852 0.81748 0.20792 0.0
H2472 H 0.20546 0.84325 0.26509 0.0
H2473 H 0.21486 0.84099 0.245 0.0
H2474 H 0.18201 0.84954 0.21531 0.0
C2475 C 0.21922 0.84746 0.18103 0.0
C2476 C 0.21038 0.82435 0.20937 0.0
C2477 C 0.22523 0.84679 0.1696 0.0
C2478 C 0.19538 0.84011 0.25737 0.0
C2479 C 0.20079 0.83882 0.24584 0.0
C2480 C 0.18979 0.84232 0.21379 0.0
C2481 C 0.21222 0.83181 0.18772 0.0
C2482 C 0.20596 0.83256 0.19994 0.0
C2483 C 0.18839 0.83529 0.23552 0.0
C2484 C 0.19429 0.8342 0.22323 0.0
H2485 H 0.21661 0.80202 0.16769 0.0
H2486 H 0.20586 0.80309 0.18752 0.0
H2487 H 0.19174 0.84783 0.19522 0.0
H2488 H 0.15096 0.83217 0.24943 0.0
H2489 H 0.16039 0.82994 0.22931 0.0
C2490 C 0.21008 0.41428 0.17984 0.0
C2491 C 0.21126 0.40431 0.16963 0.0
C2492 C 0.20784 0.40717 0.19111 0.0
C2493 C 0.19102 0.36282 0.20519 0.0
H2494 H 0.21585 0.39556 0.2345 0.0
C2495 C 0.18526 0.33441 0.25206 0.0
C2496 C 0.18285 0.34439 0.26174 0.0
C2497 C 0.18966 0.34181 0.24092 0.0
C2498 C 0.20865 0.38624 0.22642 0.0
H2499 H 0.21125 0.3791 0.16339 0.0
H2500 H 0.20768 0.36686 0.1831 0.0
H2501 H 0.22218 0.40832 0.21499 0.0
H2502 H 0.18306 0.36999 0.26716 0.0
H2503 H 0.1907 0.38287 0.24776 0.0
H2504 H 0.17739 0.34077 0.21662 0.0
C2505 C 0.20825 0.38009 0.18235 0.0
C2506 C 0.2123 0.39356 0.21521 0.0
C2507 C 0.21053 0.38722 0.17106 0.0
C2508 C 0.18509 0.36203 0.25999 0.0
C2509 C 0.18948 0.36943 0.24884 0.0
C2510 C 0.18738 0.3555 0.2164 0.0
C2511 C 0.20671 0.38989 0.19251 0.0
C2512 C 0.20344 0.38197 0.20444 0.0
C2513 C 0.19176 0.35939 0.23914 0.0
C2514 C 0.19606 0.36712 0.22718 0.0
H2515 H 0.21082 0.42759 0.17912 0.0
H2516 H 0.20654 0.41505 0.19868 0.0
H2517 H 0.1837 0.35351 0.19712 0.0
H2518 H 0.18397 0.32093 0.25313 0.0
H2519 H 0.19161 0.33381 0.23372 0.0
C2520 C 0.81598 0.62101 0.84953 0.0
C2521 C 0.79734 0.6067 0.8506 0.0
C2522 C 0.82165 0.62766 0.83832 0.0
C2523 C 0.80228 0.62969 0.80791 0.0
H2524 H 0.85224 0.64268 0.79896 0.0
C2525 C 0.82403 0.64853 0.75989 0.0
C2526 C 0.84234 0.66349 0.75886 0.0
C2527 C 0.81875 0.64134 0.77101 0.0
C2528 C 0.83831 0.63931 0.80136 0.0
H2529 H 0.77025 0.58782 0.84057 0.0
H2530 H 0.78012 0.59934 0.82108 0.0
H2531 H 0.84271 0.63065 0.81842 0.0
H2532 H 0.86955 0.68234 0.76877 0.0
H2533 H 0.86025 0.67001 0.78818 0.0
H2534 H 0.79787 0.63836 0.79088 0.0
C2535 C 0.79028 0.60571 0.82894 0.0
C2536 C 0.83283 0.6324 0.81254 0.0
C2537 C 0.78461 0.59908 0.84014 0.0
C2538 C 0.85528 0.67095 0.76924 0.0
C2539 C 0.85 0.66373 0.78035 0.0
C2540 C 0.80774 0.63658 0.79674 0.0
C2541 C 0.80885 0.62016 0.82788 0.0
C2542 C 0.81473 0.62749 0.81596 0.0
C2543 C 0.83163 0.64889 0.7814 0.0
C2544 C 0.82583 0.64147 0.79331 0.0
H2545 H 0.8261 0.62738 0.85741 0.0
H2546 H 0.83598 0.63897 0.8379 0.0
H2547 H 0.78836 0.62639 0.81031 0.0
H2548 H 0.81362 0.64255 0.75214 0.0
H2549 H 0.80455 0.62977 0.77143 0.0
C2550 C 0.39363 0.18784 0.8526 0.0
C2551 C 0.3846 0.17234 0.85932 0.0
C2552 C 0.3878 0.18658 0.84041 0.0
C2553 C 0.34734 0.15921 0.81753 0.0
H2554 H 0.38523 0.18134 0.79488 0.0
C2555 C 0.32807 0.14709 0.76598 0.0
C2556 C 0.33769 0.16242 0.75922 0.0
C2557 C 0.33371 0.14827 0.77821 0.0
C2558 C 0.37446 0.17528 0.8011 0.0
H2559 H 0.36218 0.14344 0.85853 0.0
H2560 H 0.35212 0.14117 0.83719 0.0
H2561 H 0.39516 0.18346 0.81619 0.0
H2562 H 0.36058 0.19112 0.76004 0.0
H2563 H 0.37039 0.19321 0.78137 0.0
H2564 H 0.32664 0.15109 0.80246 0.0
C2565 C 0.36365 0.15434 0.84139 0.0
C2566 C 0.38016 0.17649 0.81331 0.0
C2567 C 0.36954 0.15558 0.85358 0.0
C2568 C 0.35306 0.17897 0.76496 0.0
C2569 C 0.35868 0.18016 0.77718 0.0
C2570 C 0.34164 0.15804 0.80532 0.0
C2571 C 0.37276 0.16981 0.83466 0.0
C2572 C 0.36667 0.16847 0.82167 0.0
C2573 C 0.34909 0.16482 0.78395 0.0
C2574 C 0.35514 0.16606 0.79695 0.0
H2575 H 0.40541 0.2009 0.85672 0.0
H2576 H 0.39498 0.19881 0.83551 0.0
H2577 H 0.3366 0.15313 0.82377 0.0
H2578 H 0.31634 0.13406 0.76179 0.0
H2579 H 0.3262 0.13609 0.7831 0.0
C2580 C 0.81254 0.1843 0.84869 0.0
C2581 C 0.79326 0.17553 0.85072 0.0
C2582 C 0.81801 0.18337 0.83712 0.0
C2583 C 0.80074 0.15565 0.80748 0.0
H2584 H 0.84239 0.19939 0.79608 0.0
C2585 C 0.83345 0.15212 0.76343 0.0
C2586 C 0.83796 0.16658 0.75591 0.0
C2587 C 0.82805 0.15331 0.77498 0.0
C2588 C 0.83065 0.18708 0.7991 0.0
H2589 H 0.76465 0.15919 0.84204 0.0
H2590 H 0.7742 0.1575 0.8219 0.0
H2591 H 0.83266 0.2014 0.81615 0.0
H2592 H 0.84055 0.19377 0.75474 0.0
H2593 H 0.83091 0.19574 0.77483 0.0
H2594 H 0.79856 0.1414 0.79037 0.0
C2595 C 0.78509 0.16488 0.8293 0.0
C2596 C 0.82521 0.18817 0.81065 0.0
C2597 C 0.77962 0.16584 0.84086 0.0
C2598 C 0.837 0.1823 0.76025 0.0
C2599 C 0.83167 0.18352 0.77182 0.0
C2600 C 0.80623 0.15454 0.79594 0.0
C2601 C 0.80436 0.17361 0.82729 0.0
C2602 C 0.81018 0.17247 0.81499 0.0
C2603 C 0.82708 0.16902 0.77932 0.0
C2604 C 0.82125 0.17024 0.7916 0.0
H2605 H 0.82344 0.19164 0.85608 0.0
H2606 H 0.83297 0.19003 0.83592 0.0
H2607 H 0.78923 0.14324 0.81057 0.0
H2608 H 0.83386 0.13974 0.76034 0.0
H2609 H 0.82479 0.14198 0.78056 0.0
C2610 C 0.29239 0.17428 0.50415 0.0
C2611 C 0.29891 0.16699 0.49513 0.0
C2612 C 0.29816 0.17514 0.51631 0.0
C2613 C 0.31787 0.15472 0.53725 0.0
H2614 H 0.33073 0.19869 0.55854 0.0
C2615 C 0.33184 0.15822 0.58903 0.0
C2616 C 0.34699 0.17494 0.59477 0.0
C2617 C 0.32591 0.15704 0.57685 0.0
C2618 C 0.32731 0.18636 0.55269 0.0
H2619 H 0.3169 0.15521 0.49184 0.0
H2620 H 0.32694 0.15671 0.51306 0.0
H2621 H 0.32085 0.19723 0.5373 0.0
H2622 H 0.36765 0.20358 0.59223 0.0
H2623 H 0.35755 0.20141 0.57097 0.0
H2624 H 0.32465 0.14399 0.55262 0.0
C2625 C 0.31713 0.16149 0.51073 0.0
C2626 C 0.32144 0.18544 0.54055 0.0
C2627 C 0.31138 0.16064 0.49857 0.0
C2628 C 0.35609 0.19042 0.58805 0.0
C2629 C 0.35015 0.18925 0.5759 0.0
C2630 C 0.3237 0.15562 0.54941 0.0
C2631 C 0.31057 0.16873 0.51974 0.0
C2632 C 0.31669 0.16963 0.53268 0.0
C2633 C 0.33496 0.17258 0.57016 0.0
C2634 C 0.32854 0.17148 0.55726 0.0
H2635 H 0.28253 0.17901 0.50183 0.0
H2636 H 0.29263 0.18055 0.52305 0.0
H2637 H 0.31412 0.14226 0.53145 0.0
H2638 H 0.32463 0.146 0.59393 0.0
H2639 H 0.31406 0.14404 0.57273 0.0
C2640 C 0.88329 0.17684 0.50075 0.0
C2641 C 0.8903 0.16489 0.49772 0.0
C2642 C 0.87712 0.17733 0.51216 0.0
C2643 C 0.88241 0.16723 0.54342 0.0
H2644 H 0.83538 0.16722 0.54635 0.0
C2645 C 0.85127 0.16182 0.58934 0.0
C2646 C 0.84256 0.17244 0.59183 0.0
C2647 C 0.85657 0.16028 0.5778 0.0
C2648 C 0.84868 0.16749 0.54573 0.0
H2649 H 0.89657 0.14427 0.50436 0.0
H2650 H 0.88584 0.14516 0.52428 0.0
H2651 H 0.84587 0.1661 0.52643 0.0
H2652 H 0.83225 0.18943 0.58389 0.0
H2653 H 0.84212 0.18735 0.56398 0.0
H2654 H 0.88549 0.169 0.56269 0.0
C2655 C 0.88511 0.15415 0.51783 0.0
C2656 C 0.85466 0.1668 0.53429 0.0
C2657 C 0.8911 0.15352 0.50638 0.0
C2658 C 0.83916 0.18134 0.5824 0.0
C2659 C 0.84459 0.17992 0.5709 0.0
C2660 C 0.87653 0.16809 0.55487 0.0
C2661 C 0.87801 0.16602 0.52084 0.0
C2662 C 0.8716 0.16667 0.533 0.0
C2663 C 0.85343 0.16942 0.56843 0.0
C2664 C 0.85958 0.16824 0.5562 0.0
H2665 H 0.88234 0.18566 0.49425 0.0
H2666 H 0.87187 0.18675 0.51423 0.0
H2667 H 0.89565 0.16739 0.54274 0.0
H2668 H 0.85434 0.15493 0.59637 0.0
H2669 H 0.86309 0.15184 0.57624 0.0
C2670 C 0.87659 0.72012 0.50386 0.0
C2671 C 0.87856 0.73777 0.50254 0.0
C2672 C 0.87417 0.71299 0.51515 0.0
C2673 C 0.87993 0.72685 0.54809 0.0
H2674 H 0.84249 0.67479 0.54967 0.0
C2675 C 0.85257 0.69637 0.59311 0.0
C2676 C 0.84919 0.67829 0.59475 0.0
C2677 C 0.85706 0.70368 0.58194 0.0
C2678 C 0.85318 0.6893 0.5494 0.0
H2679 H 0.8802 0.76199 0.51221 0.0
H2680 H 0.87567 0.74947 0.53179 0.0
H2681 H 0.849 0.68742 0.53015 0.0
H2682 H 0.84839 0.65394 0.58592 0.0
H2683 H 0.85618 0.66665 0.56648 0.0
H2684 H 0.88398 0.72875 0.56736 0.0
C2685 C 0.8761 0.74115 0.52413 0.0
C2686 C 0.85693 0.69655 0.53818 0.0
C2687 C 0.87849 0.74826 0.51285 0.0
C2688 C 0.85057 0.66778 0.58494 0.0
C2689 C 0.85505 0.67508 0.57378 0.0
C2690 C 0.87617 0.7196 0.55931 0.0
C2691 C 0.87372 0.72334 0.52542 0.0
C2692 C 0.87028 0.71546 0.53737 0.0
C2693 C 0.85829 0.6931 0.57211 0.0
C2694 C 0.86267 0.70074 0.56013 0.0
H2695 H 0.87642 0.71159 0.49612 0.0
H2696 H 0.87261 0.69933 0.51583 0.0
H2697 H 0.89052 0.74139 0.54781 0.0
H2698 H 0.85136 0.70478 0.60039 0.0
H2699 H 0.85917 0.71749 0.58095 0.0
loop_
_geom_bond_atom_site_label_1
_geom_bond_atom_site_label_2
_geom_bond_distance
_geom_bond_site_symmetry_2
_ccdc_geom_bond_type
C0 C1 1.264 . S
C0 C5 1.479 . S
C0 C10 1.465 . S
C1 C0 1.264 . S
C1 C3 1.339 . S
C1 H28 0.931 . S
C2 C3 1.395 . S
C2 C4 1.320 . S
C3 C1 1.339 . S
C3 C2 1.395 . S
C3 H29 0.929 . S
C4 C2 1.320 . S
C4 C5 1.405 . S
C4 H30 0.930 . S
C5 C0 1.479 . S
C5 C4 1.405 . S
C5 H31 0.931 . S
U6 O7 2.454 . S
U6 O8 2.458 . S
U6 C9 2.984 . S
U6 C10 2.847 . S
U6 C23 2.882 . S
U6 O24 2.441 . S
U6 O25 2.420 . S
U6 O26 2.455 . S
U6 O27 2.449 . S
O7 U6 2.454 . S
O7 C9 1.353 . S
O8 U6 2.458 . S
O8 C9 1.286 . S
C9 U6 2.984 . S
C9 O7 1.353 . S
C9 O8 1.286 . S
C9 C11 1.363 . S
C10 C0 1.465 . S
C10 U6 2.847 . S
C10 O24 1.249 . S
C10 O25 1.202 . S
C11 C9 1.363 . S
C11 C13 1.408 . S
C11 C16 1.342 . S
C12 C13 1.310 . S
C12 C15 1.461 . S
C12 H32 0.932 . S
C13 C11 1.408 . S
C13 C12 1.310 . S
C13 H33 0.930 . S
C14 C15 1.474 . S
C14 C16 1.285 . S
C14 H34 0.929 . S
C15 C12 1.461 . S
C15 C14 1.474 . S
C16 C11 1.342 . S
C16 C14 1.285 . S
C16 H35 0.930 . S
C17 C20 1.424 . S
C17 C22 1.245 . S
C17 C23 1.428 . S
C18 C21 1.260 . S
C18 C22 1.477 . S
C18 H36 0.932 . S
C19 C20 1.384 . S
C19 C21 1.479 . S
C19 H37 0.929 . S
C20 C17 1.424 . S
C20 C19 1.384 . S
C20 H38 0.928 . S
C21 C18 1.260 . S
C21 C19 1.479 . S
C22 C17 1.245 . S
C22 C18 1.477 . S
C22 H39 0.932 . S
C23 U6 2.882 . S
C23 C17 1.428 . S
C23 O26 1.301 . S
C23 O27 1.282 . S
O24 U6 2.441 . S
O24 C10 1.249 . S
O25 U6 2.420 . S
O25 C10 1.202 . S
O26 U6 2.455 . S
O26 C23 1.301 . S
O27 U6 2.449 . S
O27 C23 1.282 . S
H28 C1 0.931 . S
H29 C3 0.929 . S
H30 C4 0.930 . S
H31 C5 0.931 . S
H32 C12 0.932 . S
H33 C13 0.930 . S
H34 C14 0.929 . S
H35 C16 0.930 . S
H36 C18 0.932 . S
H37 C19 0.929 . S
H38 C20 0.928 . S
H39 C22 0.932 . S
C40 C41 1.264 . S
C40 C45 1.479 . S
C40 C50 1.465 . S
C41 C40 1.264 . S
C41 C43 1.339 . S
C41 H68 0.931 . S
C42 C43 1.395 . S
C42 C44 1.320 . S
C43 C41 1.339 . S
C43 C42 1.395 . S
C43 H69 0.929 . S
C44 C42 1.320 . S
C44 C45 1.405 . S
C44 H70 0.930 . S
C45 C40 1.479 . S
C45 C44 1.405 . S
C45 H71 0.931 . S
U46 O47 2.454 . S
U46 O48 2.458 . S
U46 C49 2.984 . S
U46 C50 2.847 . S
U46 C63 2.882 . S
U46 O64 2.441 . S
U46 O65 2.420 . S
U46 O66 2.455 . S
U46 O67 2.449 . S
O47 U46 2.454 . S
O47 C49 1.353 . S
O48 U46 2.458 . S
O48 C49 1.286 . S
C49 U46 2.984 . S
C49 O47 1.353 . S
C49 O48 1.286 . S
C49 C51 1.363 . S
C50 C40 1.465 . S
C50 U46 2.847 . S
C50 O64 1.249 . S
C50 O65 1.202 . S
C51 C49 1.363 . S
C51 C53 1.408 . S
C51 C56 1.342 . S
C52 C53 1.310 . S
C52 C55 1.461 . S
C52 H72 0.932 . S
C53 C51 1.408 . S
C53 C52 1.310 . S
C53 H73 0.930 . S
C54 C55 1.474 . S
C54 C56 1.285 . S
C54 H74 0.929 . S
C55 C52 1.461 . S
C55 C54 1.474 . S
C56 C51 1.342 . S
C56 C54 1.285 . S
C56 H75 0.930 . S
C57 C60 1.424 . S
C57 C62 1.245 . S
C57 C63 1.428 . S
C58 C61 1.260 . S
C58 C62 1.477 . S
C58 H76 0.932 . S
C59 C60 1.384 . S
C59 C61 1.479 . S
C59 H77 0.929 . S
C60 C57 1.424 . S
C60 C59 1.384 . S
C60 H78 0.928 . S
C61 C58 1.260 . S
C61 C59 1.479 . S
C62 C57 1.245 . S
C62 C58 1.477 . S
C62 H79 0.932 . S
C63 U46 2.882 . S
C63 C57 1.428 . S
C63 O66 1.301 . S
C63 O67 1.282 . S
O64 U46 2.441 . S
O64 C50 1.249 . S
O65 U46 2.420 . S
O65 C50 1.202 . S
O66 U46 2.455 . S
O66 C63 1.301 . S
O67 U46 2.449 . S
O67 C63 1.282 . S
H68 C41 0.931 . S
H69 C43 0.929 . S
H70 C44 0.930 . S
H71 C45 0.931 . S
H72 C52 0.932 . S
H73 C53 0.930 . S
H74 C54 0.929 . S
H75 C56 0.930 . S
H76 C58 0.932 . S
H77 C59 0.929 . S
H78 C60 0.928 . S
H79 C62 0.932 . S
C80 C81 1.264 . S
C80 C85 1.479 . S
C80 C90 1.465 . S
C81 C80 1.264 . S
C81 C83 1.339 . S
C81 H108 0.931 . S
C82 C83 1.395 . S
C82 C84 1.320 . S
C83 C81 1.339 . S
C83 C82 1.395 . S
C83 H109 0.929 . S
C84 C82 1.320 . S
C84 C85 1.405 . S
C84 H110 0.930 . S
C85 C80 1.479 . S
C85 C84 1.405 . S
C85 H111 0.931 . S
U86 O87 2.454 . S
U86 O88 2.458 . S
U86 C89 2.984 . S
U86 C90 2.847 . S
U86 C103 2.882 . S
U86 O104 2.441 . S
U86 O105 2.420 . S
U86 O106 2.455 . S
U86 O107 2.449 . S
O87 U86 2.454 . S
O87 C89 1.353 . S
O88 U86 2.458 . S
O88 C89 1.286 . S
C89 U86 2.984 . S
C89 O87 1.353 . S
C89 O88 1.286 . S
C89 C91 1.363 . S
C90 C80 1.465 . S
C90 U86 2.847 . S
C90 O104 1.249 . S
C90 O105 1.202 . S
C91 C89 1.363 . S
C91 C93 1.408 . S
C91 C96 1.342 . S
C92 C93 1.310 . S
C92 C95 1.461 . S
C92 H112 0.932 . S
C93 C91 1.408 . S
C93 C92 1.310 . S
C93 H113 0.930 . S
C94 C95 1.474 . S
C94 C96 1.285 . S
C94 H114 0.929 . S
C95 C92 1.461 . S
C95 C94 1.474 . S
C96 C91 1.342 . S
C96 C94 1.285 . S
C96 H115 0.930 . S
C97 C100 1.424 . S
C97 C102 1.245 . S
C97 C103 1.428 . S
C98 C101 1.260 . S
C98 C102 1.477 . S
C98 H116 0.932 . S
C99 C100 1.384 . S
C99 C101 1.479 . S
C99 H117 0.929 . S
C100 C97 1.424 . S
C100 C99 1.384 . S
C100 H118 0.928 . S
C101 C98 1.260 . S
C101 C99 1.479 . S
C102 C97 1.245 . S
C102 C98 1.477 . S
C102 H119 0.932 . S
C103 U86 2.882 . S
C103 C97 1.428 . S
C103 O106 1.301 . S
C103 O107 1.282 . S
O104 U86 2.441 . S
O104 C90 1.249 . S
O105 U86 2.420 . S
O105 C90 1.202 . S
O106 U86 2.455 . S
O106 C103 1.301 . S
O107 U86 2.449 . S
O107 C103 1.282 . S
H108 C81 0.931 . S
H109 C83 0.929 . S
H110 C84 0.930 . S
H111 C85 0.931 . S
H112 C92 0.932 . S
H113 C93 0.930 . S
H114 C94 0.929 . S
H115 C96 0.930 . S
H116 C98 0.932 . S
H117 C99 0.929 . S
H118 C100 0.928 . S
H119 C102 0.932 . S
C120 C121 1.264 . S
C120 C125 1.479 . S
C120 C130 1.465 . S
C121 C120 1.264 . S
C121 C123 1.339 . S
C121 H148 0.931 . S
C122 C123 1.395 . S
C122 C124 1.320 . S
C123 C121 1.339 . S
C123 C122 1.395 . S
C123 H149 0.929 . S
C124 C122 1.320 . S
C124 C125 1.405 . S
C124 H150 0.930 . S
C125 C120 1.479 . S
C125 C124 1.405 . S
C125 H151 0.931 . S
U126 O127 2.454 . S
U126 O128 2.458 . S
U126 C129 2.984 . S
U126 C130 2.847 . S
U126 C143 2.882 . S
U126 O144 2.441 . S
U126 O145 2.420 . S
U126 O146 2.455 . S
U126 O147 2.449 . S
O127 U126 2.454 . S
O127 C129 1.353 . S
O128 U126 2.458 . S
O128 C129 1.286 . S
C129 U126 2.984 . S
C129 O127 1.353 . S
C129 O128 1.286 . S
C129 C131 1.363 . S
C130 C120 1.465 . S
C130 U126 2.847 . S
C130 O144 1.249 . S
C130 O145 1.202 . S
C131 C129 1.363 . S
C131 C133 1.408 . S
C131 C136 1.342 . S
C132 C133 1.310 . S
C132 C135 1.461 . S
C132 H152 0.932 . S
C133 C131 1.408 . S
C133 C132 1.310 . S
C133 H153 0.930 . S
C134 C135 1.474 . S
C134 C136 1.285 . S
C134 H154 0.929 . S
C135 C132 1.461 . S
C135 C134 1.474 . S
C136 C131 1.342 . S
C136 C134 1.285 . S
C136 H155 0.930 . S
C137 C140 1.424 . S
C137 C142 1.245 . S
C137 C143 1.428 . S
C138 C141 1.260 . S
C138 C142 1.477 . S
C138 H156 0.932 . S
C139 C140 1.384 . S
C139 C141 1.479 . S
C139 H157 0.929 . S
C140 C137 1.424 . S
C140 C139 1.384 . S
C140 H158 0.928 . S
C141 C138 1.260 . S
C141 C139 1.479 . S
C142 C137 1.245 . S
C142 C138 1.477 . S
C142 H159 0.932 . S
C143 U126 2.882 . S
C143 C137 1.428 . S
C143 O146 1.301 . S
C143 O147 1.282 . S
O144 U126 2.441 . S
O144 C130 1.249 . S
O145 U126 2.420 . S
O145 C130 1.202 . S
O146 U126 2.455 . S
O146 C143 1.301 . S
O147 U126 2.449 . S
O147 C143 1.282 . S
H148 C121 0.931 . S
H149 C123 0.929 . S
H150 C124 0.930 . S
H151 C125 0.931 . S
H152 C132 0.932 . S
H153 C133 0.930 . S
H154 C134 0.929 . S
H155 C136 0.930 . S
H156 C138 0.932 . S
H157 C139 0.929 . S
H158 C140 0.928 . S
H159 C142 0.932 . S
C160 C161 1.264 . S
C160 C165 1.479 . S
C160 C170 1.465 . S
C161 C160 1.264 . S
C161 C163 1.339 . S
C161 H188 0.931 . S
C162 C163 1.395 . S
C162 C164 1.320 . S
C163 C161 1.339 . S
C163 C162 1.395 . S
C163 H189 0.929 . S
C164 C162 1.320 . S
C164 C165 1.405 . S
C164 H190 0.930 . S
C165 C160 1.479 . S
C165 C164 1.405 . S
C165 H191 0.931 . S
U166 O167 2.454 . S
U166 O168 2.458 . S
U166 C169 2.984 . S
U166 C170 2.847 . S
U166 C183 2.882 . S
U166 O184 2.441 . S
U166 O185 2.420 . S
U166 O186 2.455 . S
U166 O187 2.449 . S
O167 U166 2.454 . S
O167 C169 1.353 . S
O168 U166 2.458 . S
O168 C169 1.286 . S
C169 U166 2.984 . S
C169 O167 1.353 . S
C169 O168 1.286 . S
C169 C171 1.363 . S
C170 C160 1.465 . S
C170 U166 2.847 . S
C170 O184 1.249 . S
C170 O185 1.202 . S
C171 C169 1.363 . S
C171 C173 1.408 . S
C171 C176 1.342 . S
C172 C173 1.310 . S
C172 C175 1.461 . S
C172 H192 0.932 . S
C173 C171 1.408 . S
C173 C172 1.310 . S
C173 H193 0.930 . S
C174 C175 1.474 . S
C174 C176 1.285 . S
C174 H194 0.929 . S
C175 C172 1.461 . S
C175 C174 1.474 . S
C176 C171 1.342 . S
C176 C174 1.285 . S
C176 H195 0.930 . S
C177 C180 1.424 . S
C177 C182 1.245 . S
C177 C183 1.428 . S
C178 C181 1.260 . S
C178 C182 1.477 . S
C178 H196 0.932 . S
C179 C180 1.384 . S
C179 C181 1.479 . S
C179 H197 0.929 . S
C180 C177 1.424 . S
C180 C179 1.384 . S
C180 H198 0.928 . S
C181 C178 1.260 . S
C181 C179 1.479 . S
C182 C177 1.245 . S
C182 C178 1.477 . S
C182 H199 0.932 . S
C183 U166 2.882 . S
C183 C177 1.428 . S
C183 O186 1.301 . S
C183 O187 1.282 . S
O184 U166 2.441 . S
O184 C170 1.249 . S
O185 U166 2.420 . S
O185 C170 1.202 . S
O186 U166 2.455 . S
O186 C183 1.301 . S
O187 U166 2.449 . S
O187 C183 1.282 . S
H188 C161 0.931 . S
H189 C163 0.929 . S
H190 C164 0.930 . S
H191 C165 0.931 . S
H192 C172 0.932 . S
H193 C173 0.930 . S
H194 C174 0.929 . S
H195 C176 0.930 . S
H196 C178 0.932 . S
H197 C179 0.929 . S
H198 C180 0.928 . S
H199 C182 0.932 . S
C200 C201 1.264 . S
C200 C205 1.479 . S
C200 C210 1.465 . S
C201 C200 1.264 . S
C201 C203 1.339 . S
C201 H228 0.931 . S
C202 C203 1.395 . S
C202 C204 1.320 . S
C203 C201 1.339 . S
C203 C202 1.395 . S
C203 H229 0.929 . S
C204 C202 1.320 . S
C204 C205 1.405 . S
C204 H230 0.930 . S
C205 C200 1.479 . S
C205 C204 1.405 . S
C205 H231 0.931 . S
U206 O207 2.454 . S
U206 O208 2.458 . S
U206 C209 2.984 . S
U206 C210 2.847 . S
U206 C223 2.882 . S
U206 O224 2.441 . S
U206 O225 2.420 . S
U206 O226 2.455 . S
U206 O227 2.449 . S
O207 U206 2.454 . S
O207 C209 1.353 . S
O208 U206 2.458 . S
O208 C209 1.286 . S
C209 U206 2.984 . S
C209 O207 1.353 . S
C209 O208 1.286 . S
C209 C211 1.363 . S
C210 C200 1.465 . S
C210 U206 2.847 . S
C210 O224 1.249 . S
C210 O225 1.202 . S
C211 C209 1.363 . S
C211 C213 1.408 . S
C211 C216 1.342 . S
C212 C213 1.310 . S
C212 C215 1.461 . S
C212 H232 0.932 . S
C213 C211 1.408 . S
C213 C212 1.310 . S
C213 H233 0.930 . S
C214 C215 1.474 . S
C214 C216 1.285 . S
C214 H234 0.929 . S
C215 C212 1.461 . S
C215 C214 1.474 . S
C216 C211 1.342 . S
C216 C214 1.285 . S
C216 H235 0.930 . S
C217 C220 1.424 . S
C217 C222 1.245 . S
C217 C223 1.428 . S
C218 C221 1.260 . S
C218 C222 1.477 . S
C218 H236 0.932 . S
C219 C220 1.384 . S
C219 C221 1.479 . S
C219 H237 0.929 . S
C220 C217 1.424 . S
C220 C219 1.384 . S
C220 H238 0.928 . S
C221 C218 1.260 . S
C221 C219 1.479 . S
C222 C217 1.245 . S
C222 C218 1.477 . S
C222 H239 0.932 . S
C223 U206 2.882 . S
C223 C217 1.428 . S
C223 O226 1.301 . S
C223 O227 1.282 . S
O224 U206 2.441 . S
O224 C210 1.249 . S
O225 U206 2.420 . S
O225 C210 1.202 . S
O226 U206 2.455 . S
O226 C223 1.301 . S
O227 U206 2.449 . S
O227 C223 1.282 . S
H228 C201 0.931 . S
H229 C203 0.929 . S
H230 C204 0.930 . S
H231 C205 0.931 . S
H232 C212 0.932 . S
H233 C213 0.930 . S
H234 C214 0.929 . S
H235 C216 0.930 . S
H236 C218 0.932 . S
H237 C219 0.929 . S
H238 C220 0.928 . S
H239 C222 0.932 . S
C240 C241 1.264 . S
C240 C245 1.479 . S
C240 C250 1.465 . S
C241 C240 1.264 . S
C241 C243 1.339 . S
C241 H268 0.931 . S
C242 C243 1.395 . S
C242 C244 1.320 . S
C243 C241 1.339 . S
C243 C242 1.395 . S
C243 H269 0.929 . S
C244 C242 1.320 . S
C244 C245 1.405 . S
C244 H270 0.930 . S
C245 C240 1.479 . S
C245 C244 1.405 . S
C245 H271 0.931 . S
U246 O247 2.454 . S
U246 O248 2.458 . S
U246 C249 2.984 . S
U246 C250 2.847 . S
U246 C263 2.882 . S
U246 O264 2.441 . S
U246 O265 2.420 . S
U246 O266 2.455 . S
U246 O267 2.449 . S
O247 U246 2.454 . S
O247 C249 1.353 . S
O248 U246 2.458 . S
O248 C249 1.286 . S
C249 U246 2.984 . S
C249 O247 1.353 . S
C249 O248 1.286 . S
C249 C251 1.363 . S
C250 C240 1.465 . S
C250 U246 2.847 . S
C250 O264 1.249 . S
C250 O265 1.202 . S
C251 C249 1.363 . S
C251 C253 1.408 . S
C251 C256 1.342 . S
C252 C253 1.310 . S
C252 C255 1.461 . S
C252 H272 0.932 . S
C253 C251 1.408 . S
C253 C252 1.310 . S
C253 H273 0.930 . S
C254 C255 1.474 . S
C254 C256 1.285 . S
C254 H274 0.929 . S
C255 C252 1.461 . S
C255 C254 1.474 . S
C256 C251 1.342 . S
C256 C254 1.285 . S
C256 H275 0.930 . S
C257 C260 1.424 . S
C257 C262 1.245 . S
C257 C263 1.428 . S
C258 C261 1.260 . S
C258 C262 1.477 . S
C258 H276 0.932 . S
C259 C260 1.384 . S
C259 C261 1.479 . S
C259 H277 0.929 . S
C260 C257 1.424 . S
C260 C259 1.384 . S
C260 H278 0.928 . S
C261 C258 1.260 . S
C261 C259 1.479 . S
C262 C257 1.245 . S
C262 C258 1.477 . S
C262 H279 0.932 . S
C263 U246 2.882 . S
C263 C257 1.428 . S
C263 O266 1.301 . S
C263 O267 1.282 . S
O264 U246 2.441 . S
O264 C250 1.249 . S
O265 U246 2.420 . S
O265 C250 1.202 . S
O266 U246 2.455 . S
O266 C263 1.301 . S
O267 U246 2.449 . S
O267 C263 1.282 . S
H268 C241 0.931 . S
H269 C243 0.929 . S
H270 C244 0.930 . S
H271 C245 0.931 . S
H272 C252 0.932 . S
H273 C253 0.930 . S
H274 C254 0.929 . S
H275 C256 0.930 . S
H276 C258 0.932 . S
H277 C259 0.929 . S
H278 C260 0.928 . S
H279 C262 0.932 . S
C280 C281 1.264 . S
C280 C285 1.479 . S
C280 C290 1.465 . S
C281 C280 1.264 . S
C281 C283 1.339 . S
C281 H308 0.931 . S
C282 C283 1.395 . S
C282 C284 1.320 . S
C283 C281 1.339 . S
C283 C282 1.395 . S
C283 H309 0.929 . S
C284 C282 1.320 . S
C284 C285 1.405 . S
C284 H310 0.930 . S
C285 C280 1.479 . S
C285 C284 1.405 . S
C285 H311 0.931 . S
U286 O287 2.454 . S
U286 O288 2.458 . S
U286 C289 2.984 . S
U286 C290 2.847 . S
U286 C303 2.882 . S
U286 O304 2.441 . S
U286 O305 2.420 . S
U286 O306 2.455 . S
U286 O307 2.449 . S
O287 U286 2.454 . S
O287 C289 1.353 . S
O288 U286 2.458 . S
O288 C289 1.286 . S
C289 U286 2.984 . S
C289 O287 1.353 . S
C289 O288 1.286 . S
C289 C291 1.363 . S
C290 C280 1.465 . S
C290 U286 2.847 . S
C290 O304 1.249 . S
C290 O305 1.202 . S
C291 C289 1.363 . S
C291 C293 1.408 . S
C291 C296 1.342 . S
C292 C293 1.310 . S
C292 C295 1.461 . S
C292 H312 0.932 . S
C293 C291 1.408 . S
C293 C292 1.310 . S
C293 H313 0.930 . S
C294 C295 1.474 . S
C294 C296 1.285 . S
C294 H314 0.929 . S
C295 C292 1.461 . S
C295 C294 1.474 . S
C296 C291 1.342 . S
C296 C294 1.285 . S
C296 H315 0.930 . S
C297 C300 1.424 . S
C297 C302 1.245 . S
C297 C303 1.428 . S
C298 C301 1.260 . S
C298 C302 1.477 . S
C298 H316 0.932 . S
C299 C300 1.384 . S
C299 C301 1.479 . S
C299 H317 0.929 . S
C300 C297 1.424 . S
C300 C299 1.384 . S
C300 H318 0.928 . S
C301 C298 1.260 . S
C301 C299 1.479 . S
C302 C297 1.245 . S
C302 C298 1.477 . S
C302 H319 0.932 . S
C303 U286 2.882 . S
C303 C297 1.428 . S
C303 O306 1.301 . S
C303 O307 1.282 . S
O304 U286 2.441 . S
O304 C290 1.249 . S
O305 U286 2.420 . S
O305 C290 1.202 . S
O306 U286 2.455 . S
O306 C303 1.301 . S
O307 U286 2.449 . S
O307 C303 1.282 . S
H308 C281 0.931 . S
H309 C283 0.929 . S
H310 C284 0.930 . S
H311 C285 0.931 . S
H312 C292 0.932 . S
H313 C293 0.930 . S
H314 C294 0.929 . S
H315 C296 0.930 . S
H316 C298 0.932 . S
H317 C299 0.929 . S
H318 C300 0.928 . S
H319 C302 0.932 . S
C320 C321 1.264 . S
C320 C325 1.479 . S
C320 C330 1.465 . S
C321 C320 1.264 . S
C321 C323 1.339 . S
C321 H348 0.931 . S
C322 C323 1.395 . S
C322 C324 1.320 . S
C323 C321 1.339 . S
C323 C322 1.395 . S
C323 H349 0.929 . S
C324 C322 1.320 . S
C324 C325 1.405 . S
C324 H350 0.930 . S
C325 C320 1.479 . S
C325 C324 1.405 . S
C325 H351 0.931 . S
U326 O327 2.454 . S
U326 O328 2.458 . S
U326 C329 2.984 . S
U326 C330 2.847 . S
U326 C343 2.882 . S
U326 O344 2.441 . S
U326 O345 2.420 . S
U326 O346 2.455 . S
U326 O347 2.449 . S
O327 U326 2.454 . S
O327 C329 1.353 . S
O328 U326 2.458 . S
O328 C329 1.286 . S
C329 U326 2.984 . S
C329 O327 1.353 . S
C329 O328 1.286 . S
C329 C331 1.363 . S
C330 C320 1.465 . S
C330 U326 2.847 . S
C330 O344 1.249 . S
C330 O345 1.202 . S
C331 C329 1.363 . S
C331 C333 1.408 . S
C331 C336 1.342 . S
C332 C333 1.310 . S
C332 C335 1.461 . S
C332 H352 0.932 . S
C333 C331 1.408 . S
C333 C332 1.310 . S
C333 H353 0.930 . S
C334 C335 1.474 . S
C334 C336 1.285 . S
C334 H354 0.929 . S
C335 C332 1.461 . S
C335 C334 1.474 . S
C336 C331 1.342 . S
C336 C334 1.285 . S
C336 H355 0.930 . S
C337 C340 1.424 . S
C337 C342 1.245 . S
C337 C343 1.428 . S
C338 C341 1.260 . S
C338 C342 1.477 . S
C338 H356 0.932 . S
C339 C340 1.384 . S
C339 C341 1.479 . S
C339 H357 0.929 . S
C340 C337 1.424 . S
C340 C339 1.384 . S
C340 H358 0.928 . S
C341 C338 1.260 . S
C341 C339 1.479 . S
C342 C337 1.245 . S
C342 C338 1.477 . S
C342 H359 0.932 . S
C343 U326 2.882 . S
C343 C337 1.428 . S
C343 O346 1.301 . S
C343 O347 1.282 . S
O344 U326 2.441 . S
O344 C330 1.249 . S
O345 U326 2.420 . S
O345 C330 1.202 . S
O346 U326 2.455 . S
O346 C343 1.301 . S
O347 U326 2.449 . S
O347 C343 1.282 . S
H348 C321 0.931 . S
H349 C323 0.929 . S
H350 C324 0.930 . S
H351 C325 0.931 . S
H352 C332 0.932 . S
H353 C333 0.930 . S
H354 C334 0.929 . S
H355 C336 0.930 . S
H356 C338 0.932 . S
H357 C339 0.929 . S
H358 C340 0.928 . S
H359 C342 0.932 . S
C360 C361 1.264 . S
C360 C365 1.479 . S
C360 C370 1.465 . S
C361 C360 1.264 . S
C361 C363 1.339 . S
C361 H388 0.931 . S
C362 C363 1.395 . S
C362 C364 1.320 . S
C363 C361 1.339 . S
C363 C362 1.395 . S
C363 H389 0.929 . S
C364 C362 1.320 . S
C364 C365 1.405 . S
C364 H390 0.930 . S
C365 C360 1.479 . S
C365 C364 1.405 . S
C365 H391 0.931 . S
U366 O367 2.454 . S
U366 O368 2.458 . S
U366 C369 2.984 . S
U366 C370 2.847 . S
U366 C383 2.882 . S
U366 O384 2.441 . S
U366 O385 2.420 . S
U366 O386 2.455 . S
U366 O387 2.449 . S
O367 U366 2.454 . S
O367 C369 1.353 . S
O368 U366 2.458 . S
O368 C369 1.286 . S
C369 U366 2.984 . S
C369 O367 1.353 . S
C369 O368 1.286 . S
C369 C371 1.363 . S
C370 C360 1.465 . S
C370 U366 2.847 . S
C370 O384 1.249 . S
C370 O385 1.202 . S
C371 C369 1.363 . S
C371 C373 1.408 . S
C371 C376 1.342 . S
C372 C373 1.310 . S
C372 C375 1.461 . S
C372 H392 0.932 . S
C373 C371 1.408 . S
C373 C372 1.310 . S
C373 H393 0.930 . S
C374 C375 1.474 . S
C374 C376 1.285 . S
C374 H394 0.929 . S
C375 C372 1.461 . S
C375 C374 1.474 . S
C376 C371 1.342 . S
C376 C374 1.285 . S
C376 H395 0.930 . S
C377 C380 1.424 . S
C377 C382 1.245 . S
C377 C383 1.428 . S
C378 C381 1.260 . S
C378 C382 1.477 . S
C378 H396 0.932 . S
C379 C380 1.384 . S
C379 C381 1.479 . S
C379 H397 0.929 . S
C380 C377 1.424 . S
C380 C379 1.384 . S
C380 H398 0.928 . S
C381 C378 1.260 . S
C381 C379 1.479 . S
C382 C377 1.245 . S
C382 C378 1.477 . S
C382 H399 0.932 . S
C383 U366 2.882 . S
C383 C377 1.428 . S
C383 O386 1.301 . S
C383 O387 1.282 . S
O384 U366 2.441 . S
O384 C370 1.249 . S
O385 U366 2.420 . S
O385 C370 1.202 . S
O386 U366 2.455 . S
O386 C383 1.301 . S
O387 U366 2.449 . S
O387 C383 1.282 . S
H388 C361 0.931 . S
H389 C363 0.929 . S
H390 C364 0.930 . S
H391 C365 0.931 . S
H392 C372 0.932 . S
H393 C373 0.930 . S
H394 C374 0.929 . S
H395 C376 0.930 . S
H396 C378 0.932 . S
H397 C379 0.929 . S
H398 C380 0.928 . S
H399 C382 0.932 . S
C400 C401 1.264 . S
C400 C405 1.479 . S
C400 C410 1.465 . S
C401 C400 1.264 . S
C401 C403 1.339 . S
C401 H428 0.931 . S
C402 C403 1.395 . S
C402 C404 1.320 . S
C403 C401 1.339 . S
C403 C402 1.395 . S
C403 H429 0.929 . S
C404 C402 1.320 . S
C404 C405 1.405 . S
C404 H430 0.930 . S
C405 C400 1.479 . S
C405 C404 1.405 . S
C405 H431 0.931 . S
U406 O407 2.454 . S
U406 O408 2.458 . S
U406 C409 2.984 . S
U406 C410 2.847 . S
U406 C423 2.882 . S
U406 O424 2.441 . S
U406 O425 2.420 . S
U406 O426 2.455 . S
U406 O427 2.449 . S
O407 U406 2.454 . S
O407 C409 1.353 . S
O408 U406 2.458 . S
O408 C409 1.286 . S
C409 U406 2.984 . S
C409 O407 1.353 . S
C409 O408 1.286 . S
C409 C411 1.363 . S
C410 C400 1.465 . S
C410 U406 2.847 . S
C410 O424 1.249 . S
C410 O425 1.202 . S
C411 C409 1.363 . S
C411 C413 1.408 . S
C411 C416 1.342 . S
C412 C413 1.310 . S
C412 C415 1.461 . S
C412 H432 0.932 . S
C413 C411 1.408 . S
C413 C412 1.310 . S
C413 H433 0.930 . S
C414 C415 1.474 . S
C414 C416 1.285 . S
C414 H434 0.929 . S
C415 C412 1.461 . S
C415 C414 1.474 . S
C416 C411 1.342 . S
C416 C414 1.285 . S
C416 H435 0.930 . S
C417 C420 1.424 . S
C417 C422 1.245 . S
C417 C423 1.428 . S
C418 C421 1.260 . S
C418 C422 1.477 . S
C418 H436 0.932 . S
C419 C420 1.384 . S
C419 C421 1.479 . S
C419 H437 0.929 . S
C420 C417 1.424 . S
C420 C419 1.384 . S
C420 H438 0.928 . S
C421 C418 1.260 . S
C421 C419 1.479 . S
C422 C417 1.245 . S
C422 C418 1.477 . S
C422 H439 0.932 . S
C423 U406 2.882 . S
C423 C417 1.428 . S
C423 O426 1.301 . S
C423 O427 1.282 . S
O424 U406 2.441 . S
O424 C410 1.249 . S
O425 U406 2.420 . S
O425 C410 1.202 . S
O426 U406 2.455 . S
O426 C423 1.301 . S
O427 U406 2.449 . S
O427 C423 1.282 . S
H428 C401 0.931 . S
H429 C403 0.929 . S
H430 C404 0.930 . S
H431 C405 0.931 . S
H432 C412 0.932 . S
H433 C413 0.930 . S
H434 C414 0.929 . S
H435 C416 0.930 . S
H436 C418 0.932 . S
H437 C419 0.929 . S
H438 C420 0.928 . S
H439 C422 0.932 . S
C440 C441 1.264 . S
C440 C445 1.479 . S
C440 C450 1.465 . S
C441 C440 1.264 . S
C441 C443 1.339 . S
C441 H468 0.931 . S
C442 C443 1.395 . S
C442 C444 1.320 . S
C443 C441 1.339 . S
C443 C442 1.395 . S
C443 H469 0.929 . S
C444 C442 1.320 . S
C444 C445 1.405 . S
C444 H470 0.930 . S
C445 C440 1.479 . S
C445 C444 1.405 . S
C445 H471 0.931 . S
U446 O447 2.454 . S
U446 O448 2.458 . S
U446 C449 2.984 . S
U446 C450 2.847 . S
U446 C463 2.882 . S
U446 O464 2.441 . S
U446 O465 2.420 . S
U446 O466 2.455 . S
U446 O467 2.449 . S
O447 U446 2.454 . S
O447 C449 1.353 . S
O448 U446 2.458 . S
O448 C449 1.286 . S
C449 U446 2.984 . S
C449 O447 1.353 . S
C449 O448 1.286 . S
C449 C451 1.363 . S
C450 C440 1.465 . S
C450 U446 2.847 . S
C450 O464 1.249 . S
C450 O465 1.202 . S
C451 C449 1.363 . S
C451 C453 1.408 . S
C451 C456 1.342 . S
C452 C453 1.310 . S
C452 C455 1.461 . S
C452 H472 0.932 . S
C453 C451 1.408 . S
C453 C452 1.310 . S
C453 H473 0.930 . S
C454 C455 1.474 . S
C454 C456 1.285 . S
C454 H474 0.929 . S
C455 C452 1.461 . S
C455 C454 1.474 . S
C456 C451 1.342 . S
C456 C454 1.285 . S
C456 H475 0.930 . S
C457 C460 1.424 . S
C457 C462 1.245 . S
C457 C463 1.428 . S
C458 C461 1.260 . S
C458 C462 1.477 . S
C458 H476 0.932 . S
C459 C460 1.384 . S
C459 C461 1.479 . S
C459 H477 0.929 . S
C460 C457 1.424 . S
C460 C459 1.384 . S
C460 H478 0.928 . S
C461 C458 1.260 . S
C461 C459 1.479 . S
C462 C457 1.245 . S
C462 C458 1.477 . S
C462 H479 0.932 . S
C463 U446 2.882 . S
C463 C457 1.428 . S
C463 O466 1.301 . S
C463 O467 1.282 . S
O464 U446 2.441 . S
O464 C450 1.249 . S
O465 U446 2.420 . S
O465 C450 1.202 . S
O466 U446 2.455 . S
O466 C463 1.301 . S
O467 U446 2.449 . S
O467 C463 1.282 . S
H468 C441 0.931 . S
H469 C443 0.929 . S
H470 C444 0.930 . S
H471 C445 0.931 . S
H472 C452 0.932 . S
H473 C453 0.930 . S
H474 C454 0.929 . S
H475 C456 0.930 . S
H476 C458 0.932 . S
H477 C459 0.929 . S
H478 C460 0.928 . S
H479 C462 0.932 . S
C480 C481 1.264 . S
C480 C485 1.479 . S
C480 C490 1.465 . S
C481 C480 1.264 . S
C481 C483 1.339 . S
C481 H508 0.931 . S
C482 C483 1.395 . S
C482 C484 1.320 . S
C483 C481 1.339 . S
C483 C482 1.395 . S
C483 H509 0.929 . S
C484 C482 1.320 . S
C484 C485 1.405 . S
C484 H510 0.930 . S
C485 C480 1.479 . S
C485 C484 1.405 . S
C485 H511 0.931 . S
U486 O487 2.454 . S
U486 O488 2.458 . S
U486 C489 2.984 . S
U486 C490 2.847 . S
U486 C503 2.882 . S
U486 O504 2.441 . S
U486 O505 2.420 . S
U486 O506 2.455 . S
U486 O507 2.449 . S
O487 U486 2.454 . S
O487 C489 1.353 . S
O488 U486 2.458 . S
O488 C489 1.286 . S
C489 U486 2.984 . S
C489 O487 1.353 . S
C489 O488 1.286 . S
C489 C491 1.363 . S
C490 C480 1.465 . S
C490 U486 2.847 . S
C490 O504 1.249 . S
C490 O505 1.202 . S
C491 C489 1.363 . S
C491 C493 1.408 . S
C491 C496 1.342 . S
C492 C493 1.310 . S
C492 C495 1.461 . S
C492 H512 0.932 . S
C493 C491 1.408 . S
C493 C492 1.310 . S
C493 H513 0.930 . S
C494 C495 1.474 . S
C494 C496 1.285 . S
C494 H514 0.929 . S
C495 C492 1.461 . S
C495 C494 1.474 . S
C496 C491 1.342 . S
C496 C494 1.285 . S
C496 H515 0.930 . S
C497 C500 1.424 . S
C497 C502 1.245 . S
C497 C503 1.428 . S
C498 C501 1.260 . S
C498 C502 1.477 . S
C498 H516 0.932 . S
C499 C500 1.384 . S
C499 C501 1.479 . S
C499 H517 0.929 . S
C500 C497 1.424 . S
C500 C499 1.384 . S
C500 H518 0.928 . S
C501 C498 1.260 . S
C501 C499 1.479 . S
C502 C497 1.245 . S
C502 C498 1.477 . S
C502 H519 0.932 . S
C503 U486 2.882 . S
C503 C497 1.428 . S
C503 O506 1.301 . S
C503 O507 1.282 . S
O504 U486 2.441 . S
O504 C490 1.249 . S
O505 U486 2.420 . S
O505 C490 1.202 . S
O506 U486 2.455 . S
O506 C503 1.301 . S
O507 U486 2.449 . S
O507 C503 1.282 . S
H508 C481 0.931 . S
H509 C483 0.929 . S
H510 C484 0.930 . S
H511 C485 0.931 . S
H512 C492 0.932 . S
H513 C493 0.930 . S
H514 C494 0.929 . S
H515 C496 0.930 . S
H516 C498 0.932 . S
H517 C499 0.929 . S
H518 C500 0.928 . S
H519 C502 0.932 . S
C520 C521 1.264 . S
C520 C525 1.479 . S
C520 C530 1.465 . S
C521 C520 1.264 . S
C521 C523 1.339 . S
C521 H548 0.931 . S
C522 C523 1.395 . S
C522 C524 1.320 . S
C523 C521 1.339 . S
C523 C522 1.395 . S
C523 H549 0.929 . S
C524 C522 1.320 . S
C524 C525 1.405 . S
C524 H550 0.930 . S
C525 C520 1.479 . S
C525 C524 1.405 . S
C525 H551 0.931 . S
U526 O527 2.454 . S
U526 O528 2.458 . S
U526 C529 2.984 . S
U526 C530 2.847 . S
U526 C543 2.882 . S
U526 O544 2.441 . S
U526 O545 2.420 . S
U526 O546 2.455 . S
U526 O547 2.449 . S
O527 U526 2.454 . S
O527 C529 1.353 . S
O528 U526 2.458 . S
O528 C529 1.286 . S
C529 U526 2.984 . S
C529 O527 1.353 . S
C529 O528 1.286 . S
C529 C531 1.363 . S
C530 C520 1.465 . S
C530 U526 2.847 . S
C530 O544 1.249 . S
C530 O545 1.202 . S
C531 C529 1.363 . S
C531 C533 1.408 . S
C531 C536 1.342 . S
C532 C533 1.310 . S
C532 C535 1.461 . S
C532 H552 0.932 . S
C533 C531 1.408 . S
C533 C532 1.310 . S
C533 H553 0.930 . S
C534 C535 1.474 . S
C534 C536 1.285 . S
C534 H554 0.929 . S
C535 C532 1.461 . S
C535 C534 1.474 . S
C536 C531 1.342 . S
C536 C534 1.285 . S
C536 H555 0.930 . S
C537 C540 1.424 . S
C537 C542 1.245 . S
C537 C543 1.428 . S
C538 C541 1.260 . S
C538 C542 1.477 . S
C538 H556 0.932 . S
C539 C540 1.384 . S
C539 C541 1.479 . S
C539 H557 0.929 . S
C540 C537 1.424 . S
C540 C539 1.384 . S
C540 H558 0.928 . S
C541 C538 1.260 . S
C541 C539 1.479 . S
C542 C537 1.245 . S
C542 C538 1.477 . S
C542 H559 0.932 . S
C543 U526 2.882 . S
C543 C537 1.428 . S
C543 O546 1.301 . S
C543 O547 1.282 . S
O544 U526 2.441 . S
O544 C530 1.249 . S
O545 U526 2.420 . S
O545 C530 1.202 . S
O546 U526 2.455 . S
O546 C543 1.301 . S
O547 U526 2.449 . S
O547 C543 1.282 . S
H548 C521 0.931 . S
H549 C523 0.929 . S
H550 C524 0.930 . S
H551 C525 0.931 . S
H552 C532 0.932 . S
H553 C533 0.930 . S
H554 C534 0.929 . S
H555 C536 0.930 . S
H556 C538 0.932 . S
H557 C539 0.929 . S
H558 C540 0.928 . S
H559 C542 0.932 . S
C560 C561 1.264 . S
C560 C565 1.479 . S
C560 C570 1.465 . S
C561 C560 1.264 . S
C561 C563 1.339 . S
C561 H588 0.931 . S
C562 C563 1.395 . S
C562 C564 1.320 . S
C563 C561 1.339 . S
C563 C562 1.395 . S
C563 H589 0.929 . S
C564 C562 1.320 . S
C564 C565 1.405 . S
C564 H590 0.930 . S
C565 C560 1.479 . S
C565 C564 1.405 . S
C565 H591 0.931 . S
U566 O567 2.454 . S
U566 O568 2.458 . S
U566 C569 2.984 . S
U566 C570 2.847 . S
U566 C583 2.882 . S
U566 O584 2.441 . S
U566 O585 2.420 . S
U566 O586 2.455 . S
U566 O587 2.449 . S
O567 U566 2.454 . S
O567 C569 1.353 . S
O568 U566 2.458 . S
O568 C569 1.286 . S
C569 U566 2.984 . S
C569 O567 1.353 . S
C569 O568 1.286 . S
C569 C571 1.363 . S
C570 C560 1.465 . S
C570 U566 2.847 . S
C570 O584 1.249 . S
C570 O585 1.202 . S
C571 C569 1.363 . S
C571 C573 1.408 . S
C571 C576 1.342 . S
C572 C573 1.310 . S
C572 C575 1.461 . S
C572 H592 0.932 . S
C573 C571 1.408 . S
C573 C572 1.310 . S
C573 H593 0.930 . S
C574 C575 1.474 . S
C574 C576 1.285 . S
C574 H594 0.929 . S
C575 C572 1.461 . S
C575 C574 1.474 . S
C576 C571 1.342 . S
C576 C574 1.285 . S
C576 H595 0.930 . S
C577 C580 1.424 . S
C577 C582 1.245 . S
C577 C583 1.428 . S
C578 C581 1.260 . S
C578 C582 1.477 . S
C578 H596 0.932 . S
C579 C580 1.384 . S
C579 C581 1.479 . S
C579 H597 0.929 . S
C580 C577 1.424 . S
C580 C579 1.384 . S
C580 H598 0.928 . S
C581 C578 1.260 . S
C581 C579 1.479 . S
C582 C577 1.245 . S
C582 C578 1.477 . S
C582 H599 0.932 . S
C583 U566 2.882 . S
C583 C577 1.428 . S
C583 O586 1.301 . S
C583 O587 1.282 . S
O584 U566 2.441 . S
O584 C570 1.249 . S
O585 U566 2.420 . S
O585 C570 1.202 . S
O586 U566 2.455 . S
O586 C583 1.301 . S
O587 U566 2.449 . S
O587 C583 1.282 . S
H588 C561 0.931 . S
H589 C563 0.929 . S
H590 C564 0.930 . S
H591 C565 0.931 . S
H592 C572 0.932 . S
H593 C573 0.930 . S
H594 C574 0.929 . S
H595 C576 0.930 . S
H596 C578 0.932 . S
H597 C579 0.929 . S
H598 C580 0.928 . S
H599 C582 0.932 . S
C600 C601 1.264 . S
C600 C605 1.479 . S
C600 C610 1.465 . S
C601 C600 1.264 . S
C601 C603 1.339 . S
C601 H628 0.931 . S
C602 C603 1.395 . S
C602 C604 1.320 . S
C603 C601 1.339 . S
C603 C602 1.395 . S
C603 H629 0.929 . S
C604 C602 1.320 . S
C604 C605 1.405 . S
C604 H630 0.930 . S
C605 C600 1.479 . S
C605 C604 1.405 . S
C605 H631 0.931 . S
U606 O607 2.454 . S
U606 O608 2.458 . S
U606 C609 2.984 . S
U606 C610 2.847 . S
U606 C623 2.882 . S
U606 O624 2.441 . S
U606 O625 2.420 . S
U606 O626 2.455 . S
U606 O627 2.449 . S
O607 U606 2.454 . S
O607 C609 1.353 . S
O608 U606 2.458 . S
O608 C609 1.286 . S
C609 U606 2.984 . S
C609 O607 1.353 . S
C609 O608 1.286 . S
C609 C611 1.363 . S
C610 C600 1.465 . S
C610 U606 2.847 . S
C610 O624 1.249 . S
C610 O625 1.202 . S
C611 C609 1.363 . S
C611 C613 1.408 . S
C611 C616 1.342 . S
C612 C613 1.310 . S
C612 C615 1.461 . S
C612 H632 0.932 . S
C613 C611 1.408 . S
C613 C612 1.310 . S
C613 H633 0.930 . S
C614 C615 1.474 . S
C614 C616 1.285 . S
C614 H634 0.929 . S
C615 C612 1.461 . S
C615 C614 1.474 . S
C616 C611 1.342 . S
C616 C614 1.285 . S
C616 H635 0.930 . S
C617 C620 1.424 . S
C617 C622 1.245 . S
C617 C623 1.428 . S
C618 C621 1.260 . S
C618 C622 1.477 . S
C618 H636 0.932 . S
C619 C620 1.384 . S
C619 C621 1.479 . S
C619 H637 0.929 . S
C620 C617 1.424 . S
C620 C619 1.384 . S
C620 H638 0.928 . S
C621 C618 1.260 . S
C621 C619 1.479 . S
C622 C617 1.245 . S
C622 C618 1.477 . S
C622 H639 0.932 . S
C623 U606 2.882 . S
C623 C617 1.428 . S
C623 O626 1.301 . S
C623 O627 1.282 . S
O624 U606 2.441 . S
O624 C610 1.249 . S
O625 U606 2.420 . S
O625 C610 1.202 . S
O626 U606 2.455 . S
O626 C623 1.301 . S
O627 U606 2.449 . S
O627 C623 1.282 . S
H628 C601 0.931 . S
H629 C603 0.929 . S
H630 C604 0.930 . S
H631 C605 0.931 . S
H632 C612 0.932 . S
H633 C613 0.930 . S
H634 C614 0.929 . S
H635 C616 0.930 . S
H636 C618 0.932 . S
H637 C619 0.929 . S
H638 C620 0.928 . S
H639 C622 0.932 . S
C640 C641 1.264 . S
C640 C645 1.479 . S
C640 C650 1.465 . S
C641 C640 1.264 . S
C641 C643 1.339 . S
C641 H668 0.931 . S
C642 C643 1.395 . S
C642 C644 1.320 . S
C643 C641 1.339 . S
C643 C642 1.395 . S
C643 H669 0.929 . S
C644 C642 1.320 . S
C644 C645 1.405 . S
C644 H670 0.930 . S
C645 C640 1.479 . S
C645 C644 1.405 . S
C645 H671 0.931 . S
U646 O647 2.454 . S
U646 O648 2.458 . S
U646 C649 2.984 . S
U646 C650 2.847 . S
U646 C663 2.882 . S
U646 O664 2.441 . S
U646 O665 2.420 . S
U646 O666 2.455 . S
U646 O667 2.449 . S
O647 U646 2.454 . S
O647 C649 1.353 . S
O648 U646 2.458 . S
O648 C649 1.286 . S
C649 U646 2.984 . S
C649 O647 1.353 . S
C649 O648 1.286 . S
C649 C651 1.363 . S
C650 C640 1.465 . S
C650 U646 2.847 . S
C650 O664 1.249 . S
C650 O665 1.202 . S
C651 C649 1.363 . S
C651 C653 1.408 . S
C651 C656 1.342 . S
C652 C653 1.310 . S
C652 C655 1.461 . S
C652 H672 0.932 . S
C653 C651 1.408 . S
C653 C652 1.310 . S
C653 H673 0.930 . S
C654 C655 1.474 . S
C654 C656 1.285 . S
C654 H674 0.929 . S
C655 C652 1.461 . S
C655 C654 1.474 . S
C656 C651 1.342 . S
C656 C654 1.285 . S
C656 H675 0.930 . S
C657 C660 1.424 . S
C657 C662 1.245 . S
C657 C663 1.428 . S
C658 C661 1.260 . S
C658 C662 1.477 . S
C658 H676 0.932 . S
C659 C660 1.384 . S
C659 C661 1.479 . S
C659 H677 0.929 . S
C660 C657 1.424 . S
C660 C659 1.384 . S
C660 H678 0.928 . S
C661 C658 1.260 . S
C661 C659 1.479 . S
C662 C657 1.245 . S
C662 C658 1.477 . S
C662 H679 0.932 . S
C663 U646 2.882 . S
C663 C657 1.428 . S
C663 O666 1.301 . S
C663 O667 1.282 . S
O664 U646 2.441 . S
O664 C650 1.249 . S
O665 U646 2.420 . S
O665 C650 1.202 . S
O666 U646 2.455 . S
O666 C663 1.301 . S
O667 U646 2.449 . S
O667 C663 1.282 . S
H668 C641 0.931 . S
H669 C643 0.929 . S
H670 C644 0.930 . S
H671 C645 0.931 . S
H672 C652 0.932 . S
H673 C653 0.930 . S
H674 C654 0.929 . S
H675 C656 0.930 . S
H676 C658 0.932 . S
H677 C659 0.929 . S
H678 C660 0.928 . S
H679 C662 0.932 . S
C680 C681 1.264 . S
C680 C685 1.479 . S
C680 C690 1.465 . S
C681 C680 1.264 . S
C681 C683 1.339 . S
C681 H708 0.931 . S
C682 C683 1.395 . S
C682 C684 1.320 . S
C683 C681 1.339 . S
C683 C682 1.395 . S
C683 H709 0.929 . S
C684 C682 1.320 . S
C684 C685 1.405 . S
C684 H710 0.930 . S
C685 C680 1.479 . S
C685 C684 1.405 . S
C685 H711 0.931 . S
U686 O687 2.454 . S
U686 O688 2.458 . S
U686 C689 2.984 . S
U686 C690 2.847 . S
U686 C703 2.882 . S
U686 O704 2.441 . S
U686 O705 2.420 . S
U686 O706 2.455 . S
U686 O707 2.449 . S
O687 U686 2.454 . S
O687 C689 1.353 . S
O688 U686 2.458 . S
O688 C689 1.286 . S
C689 U686 2.984 . S
C689 O687 1.353 . S
C689 O688 1.286 . S
C689 C691 1.363 . S
C690 C680 1.465 . S
C690 U686 2.847 . S
C690 O704 1.249 . S
C690 O705 1.202 . S
C691 C689 1.363 . S
C691 C693 1.408 . S
C691 C696 1.342 . S
C692 C693 1.310 . S
C692 C695 1.461 . S
C692 H712 0.932 . S
C693 C691 1.408 . S
C693 C692 1.310 . S
C693 H713 0.930 . S
C694 C695 1.474 . S
C694 C696 1.285 . S
C694 H714 0.929 . S
C695 C692 1.461 . S
C695 C694 1.474 . S
C696 C691 1.342 . S
C696 C694 1.285 . S
C696 H715 0.930 . S
C697 C700 1.424 . S
C697 C702 1.245 . S
C697 C703 1.428 . S
C698 C701 1.260 . S
C698 C702 1.477 . S
C698 H716 0.932 . S
C699 C700 1.384 . S
C699 C701 1.479 . S
C699 H717 0.929 . S
C700 C697 1.424 . S
C700 C699 1.384 . S
C700 H718 0.928 . S
C701 C698 1.260 . S
C701 C699 1.479 . S
C702 C697 1.245 . S
C702 C698 1.477 . S
C702 H719 0.932 . S
C703 U686 2.882 . S
C703 C697 1.428 . S
C703 O706 1.301 . S
C703 O707 1.282 . S
O704 U686 2.441 . S
O704 C690 1.249 . S
O705 U686 2.420 . S
O705 C690 1.202 . S
O706 U686 2.455 . S
O706 C703 1.301 . S
O707 U686 2.449 . S
O707 C703 1.282 . S
H708 C681 0.931 . S
H709 C683 0.929 . S
H710 C684 0.930 . S
H711 C685 0.931 . S
H712 C692 0.932 . S
H713 C693 0.930 . S
H714 C694 0.929 . S
H715 C696 0.930 . S
H716 C698 0.932 . S
H717 C699 0.929 . S
H718 C700 0.928 . S
H719 C702 0.932 . S
Tb720 C730 2.825 . S
Tb720 O731 2.347 1_565 S
Tb720 O734 2.366 1_565 S
Tb720 O739 2.418 . S
Tb720 O740 2.388 1_556 S
Tb720 O743 2.479 . S
Tb720 O744 2.471 1_565 S
Eu721 O732 2.418 . S
Eu721 O733 2.384 . S
Eu721 O736 2.479 . S
Eu721 O737 2.471 1_545 S
Eu721 O738 2.347 1_545 S
Eu721 O741 2.366 1_545 S
Eu721 C751 2.825 . S
C722 O738 1.259 . S
C722 O739 1.265 1_554 S
C723 O740 1.250 . S
C723 O741 1.265 . S
C724 C726 1.380 . S
C724 C727 1.374 1_565 S
C724 C730 1.507 . S
C725 C726 1.384 . S
C725 C729 1.387 1_565 S
C725 H752 0.930 . S
C726 C724 1.380 . S
C726 C725 1.384 . S
C726 H753 0.931 . S
C727 C724 1.374 1_545 S
C727 C728 1.390 . S
C727 H754 0.930 . S
C728 C727 1.390 . S
C728 C729 1.391 . S
C728 H755 0.930 . S
C729 C725 1.387 1_545 S
C729 C728 1.391 . S
C730 Tb720 2.825 . S
C730 C724 1.507 . S
C730 O743 1.238 . S
C730 O744 1.247 1_565 S
O731 Tb720 2.347 1_545 S
O731 C735 1.257 1_556 S
O732 Eu721 2.418 . S
O732 C735 1.270 . S
O733 Eu721 2.384 . S
O733 C742 1.255 1_554 S
O734 Tb720 2.366 1_545 S
O734 C742 1.265 . S
C735 O731 1.257 1_554 S
C735 O732 1.270 . S
O736 Eu721 2.479 . S
O736 C751 1.238 . S
O737 Eu721 2.471 1_565 S
O737 C751 1.247 1_565 S
O738 Eu721 2.347 1_565 S
O738 C722 1.259 . S
O739 Tb720 2.418 . S
O739 C722 1.265 1_556 S
O740 Tb720 2.388 1_554 S
O740 C723 1.250 . S
O741 Eu721 2.366 1_565 S
O741 C723 1.265 . S
C742 O733 1.255 1_556 S
C742 O734 1.265 . S
O743 Tb720 2.479 . S
O743 C730 1.238 . S
O744 Tb720 2.471 1_545 S
O744 C730 1.247 1_545 S
C745 C748 1.380 . S
C745 C749 1.374 1_545 S
C745 C751 1.507 . S
C746 C747 1.387 1_565 S
C746 C750 1.391 . S
C747 C746 1.387 1_545 S
C747 C748 1.384 . S
C747 H756 0.930 . S
C748 C745 1.380 . S
C748 C747 1.384 . S
C748 H757 0.931 . S
C749 C745 1.374 1_565 S
C749 C750 1.390 . S
C749 H758 0.930 . S
C750 C746 1.391 . S
C750 C749 1.390 . S
C750 H759 0.930 . S
C751 Eu721 2.825 . S
C751 O736 1.238 . S
C751 O737 1.247 1_545 S
C751 C745 1.507 . S
H752 C725 0.930 . S
H753 C726 0.931 . S
H754 C727 0.930 . S
H755 C728 0.930 . S
H756 C747 0.930 . S
H757 C748 0.931 . S
H758 C749 0.930 . S
H759 C750 0.930 . S
Tb760 C770 2.825 . S
Tb760 O771 2.347 1_455 S
Tb760 O774 2.366 1_455 S
Tb760 O779 2.418 . S
Tb760 O780 2.384 1_556 S
Tb760 O783 2.479 . S
Tb760 O784 2.471 1_455 S
Eu761 O772 2.418 . S
Eu761 O773 2.384 . S
Eu761 O776 2.479 . S
Eu761 O777 2.471 1_655 S
Eu761 O778 2.347 1_655 S
Eu761 O781 2.366 1_655 S
Eu761 C791 2.825 . S
C762 O778 1.259 . S
C762 O779 1.265 1_554 S
C763 O780 1.255 . S
C763 O781 1.265 . S
C764 C766 1.396 . S
C764 C767 1.346 1_455 S
C764 C770 1.520 . S
C765 C766 1.384 . S
C765 C769 1.387 1_455 S
C765 H792 0.930 . S
C766 C764 1.396 . S
C766 C765 1.384 . S
C766 H793 0.931 . S
C767 C764 1.346 1_655 S
C767 C768 1.390 . S
C767 H794 0.930 . S
C768 C767 1.390 . S
C768 C769 1.391 . S
C768 H795 0.930 . S
C769 C765 1.387 1_655 S
C769 C768 1.391 . S
C770 Tb760 2.825 . S
C770 C764 1.520 . S
C770 O783 1.238 . S
C770 O784 1.247 1_455 S
O771 Tb760 2.347 1_655 S
O771 C775 1.259 . S
O772 Eu761 2.418 . S
O772 C775 1.265 1_554 S
O773 Eu761 2.384 . S
O773 C782 1.255 1_554 S
O774 Tb760 2.366 1_655 S
O774 C782 1.265 . S
C775 O771 1.259 . S
C775 O772 1.265 1_556 S
O776 Eu761 2.479 . S
O776 C791 1.238 . S
O777 Eu761 2.471 1_455 S
O777 C791 1.247 1_455 S
O778 Eu761 2.347 1_455 S
O778 C762 1.259 . S
O779 Tb760 2.418 . S
O779 C762 1.265 1_556 S
O780 Tb760 2.384 1_554 S
O780 C763 1.255 . S
O781 Eu761 2.366 1_455 S
O781 C763 1.265 . S
C782 O773 1.255 1_556 S
C782 O774 1.265 . S
O783 Tb760 2.479 . S
O783 C770 1.238 . S
O784 Tb760 2.471 1_655 S
O784 C770 1.247 1_655 S
C785 C788 1.372 1_455 S
C785 C789 1.387 . S
C785 C791 1.501 1_455 S
C786 C787 1.387 1_455 S
C786 C790 1.391 . S
C787 C786 1.387 1_655 S
C787 C788 1.384 . S
C787 H796 0.930 . S
C788 C785 1.372 1_655 S
C788 C787 1.384 . S
C788 H797 0.931 . S
C789 C785 1.387 . S
C789 C790 1.390 . S
C789 H798 0.930 . S
C790 C786 1.391 . S
C790 C789 1.390 . S
C790 H799 0.930 . S
C791 Eu761 2.825 . S
C791 O776 1.238 . S
C791 O777 1.247 1_655 S
C791 C785 1.501 1_655 S
H792 C765 0.930 . S
H793 C766 0.931 . S
H794 C767 0.930 . S
H795 C768 0.930 . S
H796 C787 0.930 . S
H797 C788 0.931 . S
H798 C789 0.930 . S
H799 C790 0.930 . S
Tb800 C810 2.825 . S
Tb800 O811 2.347 . S
Tb800 O814 2.366 . S
Tb800 O819 2.418 . S
Tb800 O820 2.384 . S
Tb800 O823 2.479 . S
Tb800 O824 2.471 . S
Eu801 O812 2.418 . S
Eu801 O813 2.384 1_556 S
Eu801 O816 2.479 . S
Eu801 O817 2.471 . S
Eu801 O818 2.347 . S
Eu801 O821 2.366 . S
Eu801 C831 2.825 . S
C802 O818 1.259 . S
C802 O819 1.265 1_556 S
C803 O820 1.255 1_556 S
C803 O821 1.265 . S
C804 C806 1.380 . S
C804 C807 1.374 . S
C804 C810 1.507 . S
C805 C806 1.384 . S
C805 C809 1.387 . S
C805 H832 0.930 . S
C806 C804 1.380 . S
C806 C805 1.384 . S
C806 H833 0.931 . S
C807 C804 1.374 . S
C807 C808 1.390 . S
C807 H834 0.930 . S
C808 C807 1.390 . S
C808 C809 1.391 . S
C808 H835 0.930 . S
C809 C805 1.387 . S
C809 C808 1.391 . S
C810 Tb800 2.825 . S
C810 C804 1.507 . S
C810 O823 1.238 . S
C810 O824 1.247 . S
O811 Tb800 2.347 . S
O811 C815 1.259 . S
O812 Eu801 2.418 . S
O812 C815 1.265 1_556 S
O813 Eu801 2.384 1_554 S
O813 C822 1.255 . S
O814 Tb800 2.366 . S
O814 C822 1.265 . S
C815 O811 1.259 . S
C815 O812 1.265 1_554 S
O816 Eu801 2.479 . S
O816 C831 1.238 . S
O817 Eu801 2.471 . S
O817 C831 1.247 . S
O818 Eu801 2.347 . S
O818 C802 1.259 . S
O819 Tb800 2.418 . S
O819 C802 1.265 1_554 S
O820 Tb800 2.384 . S
O820 C803 1.255 1_554 S
O821 Eu801 2.366 . S
O821 C803 1.265 . S
C822 O813 1.255 . S
C822 O814 1.265 . S
O823 Tb800 2.479 . S
O823 C810 1.238 . S
O824 Tb800 2.471 . S
O824 C810 1.247 . S
C825 C828 1.380 . S
C825 C829 1.374 . S
C825 C831 1.507 . S
C826 C827 1.387 . S
C826 C830 1.391 . S
C827 C826 1.387 . S
C827 C828 1.384 . S
C827 H836 0.930 . S
C828 C825 1.380 . S
C828 C827 1.384 . S
C828 H837 0.931 . S
C829 C825 1.374 . S
C829 C830 1.390 . S
C829 H838 0.930 . S
C830 C826 1.391 . S
C830 C829 1.390 . S
C830 H839 0.930 . S
C831 Eu801 2.825 . S
C831 O816 1.238 . S
C831 O817 1.247 . S
C831 C825 1.507 . S
H832 C805 0.930 . S
H833 C806 0.931 . S
H834 C807 0.930 . S
H835 C808 0.930 . S
H836 C827 0.930 . S
H837 C828 0.931 . S
H838 C829 0.930 . S
H839 C830 0.930 . S
Tb840 C850 2.825 . S
Tb840 O851 2.347 . S
Tb840 O854 2.366 . S
Tb840 O859 2.418 . S
Tb840 O860 2.384 . S
Tb840 O863 2.479 . S
Tb840 O864 2.471 . S
Eu841 O852 2.418 . S
Eu841 O853 2.384 . S
Eu841 O856 2.479 . S
Eu841 O857 2.471 . S
Eu841 O858 2.347 . S
Eu841 O861 2.366 . S
Eu841 C871 2.825 . S
C842 O858 1.259 . S
C842 O859 1.265 . S
C843 O860 1.255 . S
C843 O861 1.265 . S
C844 C846 1.380 . S
C844 C847 1.374 . S
C844 C850 1.507 . S
C845 C846 1.384 . S
C845 C849 1.387 . S
C845 H872 0.930 . S
C846 C844 1.380 . S
C846 C845 1.384 . S
C846 H873 0.931 . S
C847 C844 1.374 . S
C847 C848 1.390 . S
C847 H874 0.930 . S
C848 C847 1.390 . S
C848 C849 1.391 . S
C848 H875 0.930 . S
C849 C845 1.387 . S
C849 C848 1.391 . S
C850 Tb840 2.825 . S
C850 C844 1.507 . S
C850 O863 1.238 . S
C850 O864 1.247 . S
O851 Tb840 2.347 . S
O851 C855 1.259 . S
O852 Eu841 2.418 . S
O852 C855 1.265 . S
O853 Eu841 2.384 . S
O853 C862 1.255 . S
O854 Tb840 2.366 . S
O854 C862 1.265 . S
C855 O851 1.259 . S
C855 O852 1.265 . S
O856 Eu841 2.479 . S
O856 C871 1.238 . S
O857 Eu841 2.471 . S
O857 C871 1.247 . S
O858 Eu841 2.347 . S
O858 C842 1.259 . S
O859 Tb840 2.418 . S
O859 C842 1.265 . S
O860 Tb840 2.384 . S
O860 C843 1.255 . S
O861 Eu841 2.366 . S
O861 C843 1.265 . S
C862 O853 1.255 . S
C862 O854 1.265 . S
O863 Tb840 2.479 . S
O863 C850 1.238 . S
O864 Tb840 2.471 . S
O864 C850 1.247 . S
C865 C868 1.380 . S
C865 C869 1.374 . S
C865 C871 1.507 . S
C866 C867 1.387 . S
C866 C870 1.391 . S
C867 C866 1.387 . S
C867 C868 1.384 . S
C867 H876 0.930 . S
C868 C865 1.380 . S
C868 C867 1.384 . S
C868 H877 0.931 . S
C869 C865 1.374 . S
C869 C870 1.390 . S
C869 H878 0.930 . S
C870 C866 1.391 . S
C870 C869 1.390 . S
C870 H879 0.930 . S
C871 Eu841 2.825 . S
C871 O856 1.238 . S
C871 O857 1.247 . S
C871 C865 1.507 . S
H872 C845 0.930 . S
H873 C846 0.931 . S
H874 C847 0.930 . S
H875 C848 0.930 . S
H876 C867 0.930 . S
H877 C868 0.931 . S
H878 C869 0.930 . S
H879 C870 0.930 . S
Tb880 C890 2.825 . S
Tb880 O891 2.347 . S
Tb880 O894 2.366 . S
Tb880 O899 2.418 . S
Tb880 O900 2.384 . S
Tb880 O903 2.479 . S
Tb880 O904 2.471 . S
Eu881 O892 2.418 . S
Eu881 O893 2.384 . S
Eu881 O896 2.479 . S
Eu881 O897 2.471 . S
Eu881 O898 2.347 . S
Eu881 O901 2.366 . S
Eu881 C911 2.825 . S
C882 O898 1.259 . S
C882 O899 1.265 . S
C883 O900 1.255 . S
C883 O901 1.265 . S
C884 C886 1.380 . S
C884 C887 1.374 . S
C884 C890 1.507 . S
C885 C886 1.384 . S
C885 C889 1.387 . S
C885 H912 0.930 . S
C886 C884 1.380 . S
C886 C885 1.384 . S
C886 H913 0.931 . S
C887 C884 1.374 . S
C887 C888 1.390 . S
C887 H914 0.930 . S
C888 C887 1.390 . S
C888 C889 1.391 . S
C888 H915 0.930 . S
C889 C885 1.387 . S
C889 C888 1.391 . S
C890 Tb880 2.825 . S
C890 C884 1.507 . S
C890 O903 1.238 . S
C890 O904 1.247 . S
O891 Tb880 2.347 . S
O891 C895 1.259 . S
O892 Eu881 2.418 . S
O892 C895 1.265 . S
O893 Eu881 2.384 . S
O893 C902 1.255 . S
O894 Tb880 2.366 . S
O894 C902 1.265 . S
C895 O891 1.259 . S
C895 O892 1.265 . S
O896 Eu881 2.479 . S
O896 C911 1.238 . S
O897 Eu881 2.471 . S
O897 C911 1.247 . S
O898 Eu881 2.347 . S
O898 C882 1.259 . S
O899 Tb880 2.418 . S
O899 C882 1.265 . S
O900 Tb880 2.384 . S
O900 C883 1.255 . S
O901 Eu881 2.366 . S
O901 C883 1.265 . S
C902 O893 1.255 . S
C902 O894 1.265 . S
O903 Tb880 2.479 . S
O903 C890 1.238 . S
O904 Tb880 2.471 . S
O904 C890 1.247 . S
C905 C908 1.380 . S
C905 C909 1.374 . S
C905 C911 1.507 . S
C906 C907 1.387 . S
C906 C910 1.391 . S
C907 C906 1.387 . S
C907 C908 1.384 . S
C907 H916 0.930 . S
C908 C905 1.380 . S
C908 C907 1.384 . S
C908 H917 0.931 . S
C909 C905 1.374 . S
C909 C910 1.390 . S
C909 H918 0.930 . S
C910 C906 1.391 . S
C910 C909 1.390 . S
C910 H919 0.930 . S
C911 Eu881 2.825 . S
C911 O896 1.238 . S
C911 O897 1.247 . S
C911 C905 1.507 . S
H912 C885 0.930 . S
H913 C886 0.931 . S
H914 C887 0.930 . S
H915 C888 0.930 . S
H916 C907 0.930 . S
H917 C908 0.931 . S
H918 C909 0.930 . S
H919 C910 0.930 . S
Tb920 C930 2.825 . S
Tb920 O931 2.347 . S
Tb920 O934 2.366 . S
Tb920 O939 2.418 . S
Tb920 O940 2.384 . S
Tb920 O943 2.479 . S
Tb920 O944 2.471 . S
Eu921 O932 2.418 . S
Eu921 O933 2.384 . S
Eu921 O936 2.479 . S
Eu921 O937 2.471 . S
Eu921 O938 2.347 . S
Eu921 O941 2.366 . S
Eu921 C951 2.825 . S
C922 O938 1.259 . S
C922 O939 1.265 . S
C923 O940 1.255 . S
C923 O941 1.265 . S
C924 C926 1.380 . S
C924 C927 1.374 . S
C924 C930 1.507 . S
C925 C926 1.384 . S
C925 C929 1.387 . S
C925 H952 0.930 . S
C926 C924 1.380 . S
C926 C925 1.384 . S
C926 H953 0.931 . S
C927 C924 1.374 . S
C927 C928 1.390 . S
C927 H954 0.930 . S
C928 C927 1.390 . S
C928 C929 1.391 . S
C928 H955 0.930 . S
C929 C925 1.387 . S
C929 C928 1.391 . S
C930 Tb920 2.825 . S
C930 C924 1.507 . S
C930 O943 1.238 . S
C930 O944 1.247 . S
O931 Tb920 2.347 . S
O931 C935 1.259 . S
O932 Eu921 2.418 . S
O932 C935 1.265 . S
O933 Eu921 2.384 . S
O933 C942 1.255 . S
O934 Tb920 2.366 . S
O934 C942 1.265 . S
C935 O931 1.259 . S
C935 O932 1.265 . S
O936 Eu921 2.479 . S
O936 C951 1.238 . S
O937 Eu921 2.471 . S
O937 C951 1.247 . S
O938 Eu921 2.347 . S
O938 C922 1.259 . S
O939 Tb920 2.418 . S
O939 C922 1.265 . S
O940 Tb920 2.384 . S
O940 C923 1.255 . S
O941 Eu921 2.366 . S
O941 C923 1.265 . S
C942 O933 1.255 . S
C942 O934 1.265 . S
O943 Tb920 2.479 . S
O943 C930 1.238 . S
O944 Tb920 2.471 . S
O944 C930 1.247 . S
C945 C948 1.380 . S
C945 C949 1.374 . S
C945 C951 1.507 . S
C946 C947 1.387 . S
C946 C950 1.391 . S
C947 C946 1.387 . S
C947 C948 1.384 . S
C947 H956 0.930 . S
C948 C945 1.380 . S
C948 C947 1.384 . S
C948 H957 0.931 . S
C949 C945 1.374 . S
C949 C950 1.390 . S
C949 H958 0.930 . S
C950 C946 1.391 . S
C950 C949 1.390 . S
C950 H959 0.930 . S
C951 Eu921 2.825 . S
C951 O936 1.238 . S
C951 O937 1.247 . S
C951 C945 1.507 . S
H952 C925 0.930 . S
H953 C926 0.931 . S
H954 C927 0.930 . S
H955 C928 0.930 . S
H956 C947 0.930 . S
H957 C948 0.931 . S
H958 C949 0.930 . S
H959 C950 0.930 . S
Tb960 C970 2.825 . S
Tb960 O971 2.347 . S
Tb960 O974 2.366 . S
Tb960 O979 2.418 . S
Tb960 O980 2.384 . S
Tb960 O983 2.479 . S
Tb960 O984 2.471 . S
Eu961 O972 2.418 . S
Eu961 O973 2.384 . S
Eu961 O976 2.479 . S
Eu961 O977 2.471 . S
Eu961 O978 2.347 . S
Eu961 O981 2.366 . S
Eu961 C991 2.825 . S
C962 O978 1.259 . S
C962 O979 1.265 . S
C963 O980 1.255 . S
C963 O981 1.265 . S
C964 C966 1.380 . S
C964 C967 1.374 . S
C964 C970 1.507 . S
C965 C966 1.384 . S
C965 C969 1.387 . S
C965 H992 0.930 . S
C966 C964 1.380 . S
C966 C965 1.384 . S
C966 H993 0.931 . S
C967 C964 1.374 . S
C967 C968 1.390 . S
C967 H994 0.930 . S
C968 C967 1.390 . S
C968 C969 1.391 . S
C968 H995 0.930 . S
C969 C965 1.387 . S
C969 C968 1.391 . S
C970 Tb960 2.825 . S
C970 C964 1.507 . S
C970 O983 1.238 . S
C970 O984 1.247 . S
O971 Tb960 2.347 . S
O971 C975 1.259 . S
O972 Eu961 2.418 . S
O972 C975 1.265 . S
O973 Eu961 2.384 . S
O973 C982 1.255 . S
O974 Tb960 2.366 . S
O974 C982 1.265 . S
C975 O971 1.259 . S
C975 O972 1.265 . S
O976 Eu961 2.479 . S
O976 C991 1.238 . S
O977 Eu961 2.471 . S
O977 C991 1.247 . S
O978 Eu961 2.347 . S
O978 C962 1.259 . S
O979 Tb960 2.418 . S
O979 C962 1.265 . S
O980 Tb960 2.384 . S
O980 C963 1.255 . S
O981 Eu961 2.366 . S
O981 C963 1.265 . S
C982 O973 1.255 . S
C982 O974 1.265 . S
O983 Tb960 2.479 . S
O983 C970 1.238 . S
O984 Tb960 2.471 . S
O984 C970 1.247 . S
C985 C988 1.380 . S
C985 C989 1.374 . S
C985 C991 1.507 . S
C986 C987 1.387 . S
C986 C990 1.391 . S
C987 C986 1.387 . S
C987 C988 1.384 . S
C987 H996 0.930 . S
C988 C985 1.380 . S
C988 C987 1.384 . S
C988 H997 0.931 . S
C989 C985 1.374 . S
C989 C990 1.390 . S
C989 H998 0.930 . S
C990 C986 1.391 . S
C990 C989 1.390 . S
C990 H999 0.930 . S
C991 Eu961 2.825 . S
C991 O976 1.238 . S
C991 O977 1.247 . S
C991 C985 1.507 . S
H992 C965 0.930 . S
H993 C966 0.931 . S
H994 C967 0.930 . S
H995 C968 0.930 . S
H996 C987 0.930 . S
H997 C988 0.931 . S
H998 C989 0.930 . S
H999 C990 0.930 . S
Tb1000 C1010 2.825 . S
Tb1000 O1011 2.347 . S
Tb1000 O1014 2.366 . S
Tb1000 O1019 2.418 . S
Tb1000 O1020 2.384 . S
Tb1000 O1023 2.479 . S
Tb1000 O1024 2.471 . S
Eu1001 O1012 2.418 . S
Eu1001 O1013 2.384 . S
Eu1001 O1016 2.479 . S
Eu1001 O1017 2.471 . S
Eu1001 O1018 2.347 . S
Eu1001 O1021 2.366 . S
Eu1001 C1031 2.825 . S
C1002 O1018 1.259 . S
C1002 O1019 1.265 . S
C1003 O1020 1.255 . S
C1003 O1021 1.265 . S
C1004 C1006 1.380 . S
C1004 C1007 1.374 . S
C1004 C1010 1.507 . S
C1005 C1006 1.384 . S
C1005 C1009 1.387 . S
C1005 H1032 0.930 . S
C1006 C1004 1.380 . S
C1006 C1005 1.384 . S
C1006 H1033 0.931 . S
C1007 C1004 1.374 . S
C1007 C1008 1.390 . S
C1007 H1034 0.930 . S
C1008 C1007 1.390 . S
C1008 C1009 1.391 . S
C1008 H1035 0.930 . S
C1009 C1005 1.387 . S
C1009 C1008 1.391 . S
C1010 Tb1000 2.825 . S
C1010 C1004 1.507 . S
C1010 O1023 1.238 . S
C1010 O1024 1.247 . S
O1011 Tb1000 2.347 . S
O1011 C1015 1.259 . S
O1012 Eu1001 2.418 . S
O1012 C1015 1.265 . S
O1013 Eu1001 2.384 . S
O1013 C1022 1.255 . S
O1014 Tb1000 2.366 . S
O1014 C1022 1.265 . S
C1015 O1011 1.259 . S
C1015 O1012 1.265 . S
O1016 Eu1001 2.479 . S
O1016 C1031 1.238 . S
O1017 Eu1001 2.471 . S
O1017 C1031 1.247 . S
O1018 Eu1001 2.347 . S
O1018 C1002 1.259 . S
O1019 Tb1000 2.418 . S
O1019 C1002 1.265 . S
O1020 Tb1000 2.384 . S
O1020 C1003 1.255 . S
O1021 Eu1001 2.366 . S
O1021 C1003 1.265 . S
C1022 O1013 1.255 . S
C1022 O1014 1.265 . S
O1023 Tb1000 2.479 . S
O1023 C1010 1.238 . S
O1024 Tb1000 2.471 . S
O1024 C1010 1.247 . S
C1025 C1028 1.380 . S
C1025 C1029 1.374 . S
C1025 C1031 1.507 . S
C1026 C1027 1.387 . S
C1026 C1030 1.391 . S
C1027 C1026 1.387 . S
C1027 C1028 1.384 . S
C1027 H1036 0.930 . S
C1028 C1025 1.380 . S
C1028 C1027 1.384 . S
C1028 H1037 0.931 . S
C1029 C1025 1.374 . S
C1029 C1030 1.390 . S
C1029 H1038 0.930 . S
C1030 C1026 1.391 . S
C1030 C1029 1.390 . S
C1030 H1039 0.930 . S
C1031 Eu1001 2.825 . S
C1031 O1016 1.238 . S
C1031 O1017 1.247 . S
C1031 C1025 1.507 . S
H1032 C1005 0.930 . S
H1033 C1006 0.931 . S
H1034 C1007 0.930 . S
H1035 C1008 0.930 . S
H1036 C1027 0.930 . S
H1037 C1028 0.931 . S
H1038 C1029 0.930 . S
H1039 C1030 0.930 . S
Tb1040 C1050 2.825 . S
Tb1040 O1051 2.347 . S
Tb1040 O1054 2.366 . S
Tb1040 O1059 2.418 . S
Tb1040 O1060 2.384 . S
Tb1040 O1063 2.479 . S
Tb1040 O1064 2.471 . S
Eu1041 O1052 2.418 . S
Eu1041 O1053 2.384 . S
Eu1041 O1056 2.479 . S
Eu1041 O1057 2.471 . S
Eu1041 O1058 2.347 . S
Eu1041 O1061 2.366 . S
Eu1041 C1071 2.825 . S
C1042 O1058 1.259 . S
C1042 O1059 1.265 . S
C1043 O1060 1.255 . S
C1043 O1061 1.265 . S
C1044 C1046 1.380 . S
C1044 C1047 1.374 . S
C1044 C1050 1.507 . S
C1045 C1046 1.384 . S
C1045 C1049 1.387 . S
C1045 H1072 0.930 . S
C1046 C1044 1.380 . S
C1046 C1045 1.384 . S
C1046 H1073 0.931 . S
C1047 C1044 1.374 . S
C1047 C1048 1.390 . S
C1047 H1074 0.930 . S
C1048 C1047 1.390 . S
C1048 C1049 1.391 . S
C1048 H1075 0.930 . S
C1049 C1045 1.387 . S
C1049 C1048 1.391 . S
C1050 Tb1040 2.825 . S
C1050 C1044 1.507 . S
C1050 O1063 1.238 . S
C1050 O1064 1.247 . S
O1051 Tb1040 2.347 . S
O1051 C1055 1.259 . S
O1052 Eu1041 2.418 . S
O1052 C1055 1.265 . S
O1053 Eu1041 2.384 . S
O1053 C1062 1.255 . S
O1054 Tb1040 2.366 . S
O1054 C1062 1.265 . S
C1055 O1051 1.259 . S
C1055 O1052 1.265 . S
O1056 Eu1041 2.479 . S
O1056 C1071 1.238 . S
O1057 Eu1041 2.471 . S
O1057 C1071 1.247 . S
O1058 Eu1041 2.347 . S
O1058 C1042 1.259 . S
O1059 Tb1040 2.418 . S
O1059 C1042 1.265 . S
O1060 Tb1040 2.384 . S
O1060 C1043 1.255 . S
O1061 Eu1041 2.366 . S
O1061 C1043 1.265 . S
C1062 O1053 1.255 . S
C1062 O1054 1.265 . S
O1063 Tb1040 2.479 . S
O1063 C1050 1.238 . S
O1064 Tb1040 2.471 . S
O1064 C1050 1.247 . S
C1065 C1068 1.380 . S
C1065 C1069 1.374 . S
C1065 C1071 1.507 . S
C1066 C1067 1.387 . S
C1066 C1070 1.391 . S
C1067 C1066 1.387 . S
C1067 C1068 1.384 . S
C1067 H1076 0.930 . S
C1068 C1065 1.380 . S
C1068 C1067 1.384 . S
C1068 H1077 0.931 . S
C1069 C1065 1.374 . S
C1069 C1070 1.390 . S
C1069 H1078 0.930 . S
C1070 C1066 1.391 . S
C1070 C1069 1.390 . S
C1070 H1079 0.930 . S
C1071 Eu1041 2.825 . S
C1071 O1056 1.238 . S
C1071 O1057 1.247 . S
C1071 C1065 1.507 . S
H1072 C1045 0.930 . S
H1073 C1046 0.931 . S
H1074 C1047 0.930 . S
H1075 C1048 0.930 . S
H1076 C1067 0.930 . S
H1077 C1068 0.931 . S
H1078 C1069 0.930 . S
H1079 C1070 0.930 . S
C1080 C1081 1.349 . S
C1080 C1082 1.327 . S
C1080 H1105 0.950 . S
C1081 C1080 1.349 . S
C1081 C1097 1.349 . S
C1082 C1080 1.327 . S
C1082 C1101 1.429 . S
C1082 H1106 0.950 . S
C1083 C1100 1.574 . S
C1083 C1102 1.368 . S
C1083 H1107 0.949 . S
H1084 C1088 0.949 . S
C1085 C1086 1.349 . S
C1085 C1087 1.327 . S
C1085 H1108 0.950 . S
C1086 C1085 1.349 . S
C1086 C1098 1.349 . S
C1087 C1085 1.327 . S
C1087 C1103 1.429 . S
C1087 H1109 0.950 . S
C1088 H1084 0.949 . S
C1088 C1096 1.574 . S
C1088 C1104 1.368 . S
H1089 C1097 0.950 . S
H1090 C1095 0.950 . S
H1091 C1096 0.949 . S
H1092 C1098 0.950 1_556 S
H1093 C1099 0.950 . S
H1094 C1100 0.949 . S
C1095 H1090 0.950 . S
C1095 C1097 1.327 . S
C1095 C1101 1.429 . S
C1096 C1088 1.574 . S
C1096 H1091 0.949 . S
C1096 C1102 1.368 . S
C1097 C1081 1.349 . S
C1097 H1089 0.950 . S
C1097 C1095 1.327 . S
C1098 C1086 1.349 . S
C1098 H1092 0.950 1_554 S
C1098 C1099 1.327 . S
C1099 H1093 0.950 . S
C1099 C1098 1.327 . S
C1099 C1103 1.429 . S
C1100 C1083 1.574 . S
C1100 H1094 0.949 . S
C1100 C1104 1.368 . S
C1101 C1082 1.429 . S
C1101 C1095 1.429 . S
C1101 C1102 1.523 . S
C1102 C1083 1.368 . S
C1102 C1096 1.368 . S
C1102 C1101 1.523 . S
C1103 C1087 1.429 . S
C1103 C1099 1.429 . S
C1103 C1104 1.523 . S
C1104 C1088 1.368 . S
C1104 C1100 1.368 . S
C1104 C1103 1.523 . S
H1105 C1080 0.950 . S
H1106 C1082 0.950 . S
H1107 C1083 0.949 . S
H1108 C1085 0.950 . S
H1109 C1087 0.950 . S
C1110 C1111 1.349 . S
C1110 C1112 1.327 . S
C1110 H1135 0.950 . S
C1111 C1110 1.349 . S
C1111 C1127 1.349 . S
C1112 C1110 1.327 . S
C1112 C1131 1.429 . S
C1112 H1136 0.950 . S
C1113 C1130 1.574 . S
C1113 C1132 1.368 . S
C1113 H1137 0.949 . S
H1114 C1118 0.949 . S
C1115 C1116 1.349 . S
C1115 C1117 1.327 . S
C1115 H1138 0.950 . S
C1116 C1115 1.349 . S
C1116 C1128 1.349 . S
C1117 C1115 1.327 . S
C1117 C1133 1.429 . S
C1117 H1139 0.950 . S
C1118 H1114 0.949 . S
C1118 C1126 1.574 . S
C1118 C1134 1.368 . S
H1119 C1127 0.950 . S
H1120 C1125 0.950 . S
H1121 C1126 0.949 . S
H1122 C1128 0.950 . S
H1123 C1129 0.950 . S
H1124 C1130 0.949 . S
C1125 H1120 0.950 . S
C1125 C1127 1.327 . S
C1125 C1131 1.429 . S
C1126 C1118 1.574 . S
C1126 H1121 0.949 . S
C1126 C1132 1.368 . S
C1127 C1111 1.349 . S
C1127 H1119 0.950 . S
C1127 C1125 1.327 . S
C1128 C1116 1.349 . S
C1128 H1122 0.950 . S
C1128 C1129 1.327 . S
C1129 H1123 0.950 . S
C1129 C1128 1.327 . S
C1129 C1133 1.429 . S
C1130 C1113 1.574 . S
C1130 H1124 0.949 . S
C1130 C1134 1.368 . S
C1131 C1112 1.429 . S
C1131 C1125 1.429 . S
C1131 C1132 1.523 . S
C1132 C1113 1.368 . S
C1132 C1126 1.368 . S
C1132 C1131 1.523 . S
C1133 C1117 1.429 . S
C1133 C1129 1.429 . S
C1133 C1134 1.523 . S
C1134 C1118 1.368 . S
C1134 C1130 1.368 . S
C1134 C1133 1.523 . S
H1135 C1110 0.950 . S
H1136 C1112 0.950 . S
H1137 C1113 0.949 . S
H1138 C1115 0.950 . S
H1139 C1117 0.950 . S
C1140 C1141 1.349 . S
C1140 C1142 1.327 . S
C1140 H1165 0.950 . S
C1141 C1140 1.349 . S
C1141 C1157 1.349 . S
C1142 C1140 1.327 . S
C1142 C1161 1.429 . S
C1142 H1166 0.950 . S
C1143 C1160 1.574 . S
C1143 C1162 1.368 . S
C1143 H1167 0.949 . S
H1144 C1148 0.949 . S
C1145 C1146 1.349 . S
C1145 C1147 1.327 . S
C1145 H1168 0.950 1_554 S
C1146 C1145 1.349 . S
C1146 C1158 1.349 . S
C1147 C1145 1.327 . S
C1147 C1163 1.429 . S
C1147 H1169 1.007 . S
C1148 H1144 0.949 . S
C1148 C1156 1.574 . S
C1148 C1164 1.368 . S
H1149 C1157 0.950 . S
H1150 C1155 0.950 . S
H1151 C1156 0.949 . S
H1152 C1158 0.950 . S
H1153 C1159 0.950 . S
H1154 C1160 0.949 . S
C1155 H1150 0.950 . S
C1155 C1157 1.327 . S
C1155 C1161 1.429 . S
C1156 C1148 1.574 . S
C1156 H1151 0.949 . S
C1156 C1162 1.368 . S
C1157 C1141 1.349 . S
C1157 H1149 0.950 . S
C1157 C1155 1.327 . S
C1158 C1146 1.349 . S
C1158 H1152 0.950 . S
C1158 C1159 1.327 . S
C1159 H1153 0.950 . S
C1159 C1158 1.327 . S
C1159 C1163 1.429 . S
C1160 C1143 1.574 . S
C1160 H1154 0.949 . S
C1160 C1164 1.368 . S
C1161 C1142 1.429 . S
C1161 C1155 1.429 . S
C1161 C1162 1.523 . S
C1162 C1143 1.368 . S
C1162 C1156 1.368 . S
C1162 C1161 1.523 . S
C1163 C1147 1.429 . S
C1163 C1159 1.429 . S
C1163 C1164 1.523 . S
C1164 C1148 1.368 . S
C1164 C1160 1.368 . S
C1164 C1163 1.523 . S
H1165 C1140 0.950 . S
H1166 C1142 0.950 . S
H1167 C1143 0.949 . S
H1168 C1145 0.950 1_556 S
H1169 C1147 1.007 . S
C1170 C1171 1.349 . S
C1170 C1172 1.327 . S
C1170 H1195 0.950 . S
C1171 C1170 1.349 . S
C1171 C1187 1.349 . S
C1172 C1170 1.327 . S
C1172 C1191 1.429 . S
C1172 H1196 0.950 . S
C1173 C1190 1.574 . S
C1173 C1192 1.368 . S
C1173 H1197 0.949 . S
H1174 C1178 0.949 . S
C1175 C1176 1.349 . S
C1175 C1177 1.327 . S
C1175 H1198 0.950 1_556 S
C1176 C1175 1.349 . S
C1176 C1188 1.349 . S
C1177 C1175 1.327 . S
C1177 C1193 1.429 . S
C1177 H1199 0.916 1_556 S
C1178 H1174 0.949 . S
C1178 C1186 1.574 . S
C1178 C1194 1.368 . S
H1179 C1187 0.950 . S
H1180 C1185 0.950 . S
H1181 C1186 0.949 . S
H1182 C1188 0.950 . S
H1183 C1189 0.950 . S
H1184 C1190 0.949 . S
C1185 H1180 0.950 . S
C1185 C1187 1.327 . S
C1185 C1191 1.429 . S
C1186 C1178 1.574 . S
C1186 H1181 0.949 . S
C1186 C1192 1.368 . S
C1187 C1171 1.349 . S
C1187 H1179 0.950 . S
C1187 C1185 1.327 . S
C1188 C1176 1.349 . S
C1188 H1182 0.950 . S
C1188 C1189 1.327 . S
C1189 H1183 0.950 . S
C1189 C1188 1.327 . S
C1189 C1193 1.429 . S
C1190 C1173 1.574 . S
C1190 H1184 0.949 . S
C1190 C1194 1.368 . S
C1191 C1172 1.429 . S
C1191 C1185 1.429 . S
C1191 C1192 1.523 . S
C1192 C1173 1.368 . S
C1192 C1186 1.368 . S
C1192 C1191 1.523 . S
C1193 C1177 1.429 . S
C1193 C1189 1.429 . S
C1193 C1194 1.523 . S
C1194 C1178 1.368 . S
C1194 C1190 1.368 . S
C1194 C1193 1.523 . S
H1195 C1170 0.950 . S
H1196 C1172 0.950 . S
H1197 C1173 0.949 . S
H1198 C1175 0.950 1_554 S
H1199 C1177 0.916 1_554 S
C1200 C1201 1.349 . S
C1200 C1202 1.327 . S
C1200 H1225 0.950 . S
C1201 C1200 1.349 . S
C1201 C1217 1.349 . S
C1202 C1200 1.327 . S
C1202 C1221 1.429 . S
C1202 H1226 0.950 . S
C1203 C1220 1.574 . S
C1203 C1222 1.368 . S
C1203 H1227 0.949 . S
H1204 C1208 0.949 . S
C1205 C1206 1.349 . S
C1205 C1207 1.327 . S
C1205 H1228 0.974 . S
C1206 C1205 1.349 . S
C1206 C1218 1.349 . S
C1207 C1205 1.327 . S
C1207 C1223 1.429 . S
C1207 H1229 0.950 . S
C1208 H1204 0.949 . S
C1208 C1216 1.574 . S
C1208 C1224 1.368 . S
H1209 C1217 0.950 . S
H1210 C1215 0.950 . S
H1211 C1216 0.949 . S
H1212 C1218 0.950 . S
H1213 C1219 0.950 . S
H1214 C1220 0.949 . S
C1215 H1210 0.950 . S
C1215 C1217 1.327 . S
C1215 C1221 1.429 . S
C1216 C1208 1.574 . S
C1216 H1211 0.949 . S
C1216 C1222 1.368 . S
C1217 C1201 1.349 . S
C1217 H1209 0.950 . S
C1217 C1215 1.327 . S
C1218 C1206 1.349 . S
C1218 H1212 0.950 . S
C1218 C1219 1.327 . S
C1219 H1213 0.950 . S
C1219 C1218 1.327 . S
C1219 C1223 1.429 . S
C1220 C1203 1.574 . S
C1220 H1214 0.949 . S
C1220 C1224 1.368 . S
C1221 C1202 1.429 . S
C1221 C1215 1.429 . S
C1221 C1222 1.523 . S
C1222 C1203 1.368 . S
C1222 C1216 1.368 . S
C1222 C1221 1.523 . S
C1223 C1207 1.429 . S
C1223 C1219 1.429 . S
C1223 C1224 1.523 . S
C1224 C1208 1.368 . S
C1224 C1220 1.368 . S
C1224 C1223 1.523 . S
H1225 C1200 0.950 . S
H1226 C1202 0.950 . S
H1227 C1203 0.949 . S
H1228 C1205 0.974 . S
H1229 C1207 0.950 . S
C1230 C1231 1.349 . S
C1230 C1232 1.327 . S
C1230 H1255 0.950 . S
C1231 C1230 1.349 . S
C1231 C1247 1.349 . S
C1232 C1230 1.327 . S
C1232 C1251 1.429 . S
C1232 H1256 0.950 . S
C1233 C1250 1.574 . S
C1233 C1252 1.368 . S
C1233 H1257 0.949 . S
H1234 C1238 0.949 1_554 S
C1235 C1236 1.349 . S
C1235 C1237 1.327 . S
C1235 H1258 0.950 . S
C1236 C1235 1.349 . S
C1236 C1248 1.349 1_556 S
C1237 C1235 1.327 . S
C1237 C1253 1.429 . S
C1237 H1259 0.950 . S
C1238 H1234 0.949 1_556 S
C1238 C1246 1.574 . S
C1238 C1254 1.368 . S
H1239 C1247 0.950 . S
H1240 C1245 0.950 . S
H1241 C1246 0.949 . S
H1242 C1248 0.950 . S
H1243 C1249 1.008 . S
H1244 C1250 0.949 . S
C1245 H1240 0.950 . S
C1245 C1247 1.327 . S
C1245 C1251 1.429 . S
C1246 C1238 1.574 . S
C1246 H1241 0.949 . S
C1246 C1252 1.368 . S
C1247 C1231 1.349 . S
C1247 H1239 0.950 . S
C1247 C1245 1.327 . S
C1248 C1236 1.349 1_554 S
C1248 H1242 0.950 . S
C1248 C1249 1.347 . S
C1249 H1243 1.008 . S
C1249 C1248 1.347 . S
C1249 C1253 1.356 1_554 S
C1250 C1233 1.574 . S
C1250 H1244 0.949 . S
C1250 C1254 1.368 . S
C1251 C1232 1.429 . S
C1251 C1245 1.429 . S
C1251 C1252 1.523 . S
C1252 C1233 1.368 . S
C1252 C1246 1.368 . S
C1252 C1251 1.523 . S
C1253 C1237 1.429 . S
C1253 C1249 1.356 1_556 S
C1253 C1254 1.523 . S
C1254 C1238 1.368 . S
C1254 C1250 1.368 . S
C1254 C1253 1.523 . S
H1255 C1230 0.950 . S
H1256 C1232 0.950 . S
H1257 C1233 0.949 . S
H1258 C1235 0.950 . S
H1259 C1237 0.950 . S
C1260 C1261 1.349 . S
C1260 C1262 1.327 . S
C1260 H1285 0.950 . S
C1261 C1260 1.349 . S
C1261 C1277 1.349 . S
C1262 C1260 1.327 . S
C1262 C1281 1.429 . S
C1262 H1286 0.950 . S
C1263 C1280 1.574 . S
C1263 C1282 1.368 . S
C1263 H1287 0.949 . S
H1264 C1268 0.949 . S
C1265 C1266 1.349 . S
C1265 C1267 1.327 . S
C1265 H1288 0.950 1_556 S
C1266 C1265 1.349 . S
C1266 C1278 1.349 . S
C1267 C1265 1.327 . S
C1267 C1283 1.429 . S
C1267 H1289 0.950 . S
C1268 H1264 0.949 . S
C1268 C1276 1.574 . S
C1268 C1284 1.368 . S
H1269 C1277 0.950 . S
H1270 C1275 0.950 . S
H1271 C1276 0.949 . S
H1272 C1278 0.950 . S
H1273 C1279 0.950 . S
H1274 C1280 0.949 . S
C1275 H1270 0.950 . S
C1275 C1277 1.327 . S
C1275 C1281 1.429 . S
C1276 C1268 1.574 . S
C1276 H1271 0.949 . S
C1276 C1282 1.368 . S
C1277 C1261 1.349 . S
C1277 H1269 0.950 . S
C1277 C1275 1.327 . S
C1278 C1266 1.349 . S
C1278 H1272 0.950 . S
C1278 C1279 1.327 . S
C1279 H1273 0.950 . S
C1279 C1278 1.327 . S
C1279 C1283 1.429 . S
C1280 C1263 1.574 . S
C1280 H1274 0.949 . S
C1280 C1284 1.368 . S
C1281 C1262 1.429 . S
C1281 C1275 1.429 . S
C1281 C1282 1.523 . S
C1282 C1263 1.368 . S
C1282 C1276 1.368 . S
C1282 C1281 1.523 . S
C1283 C1267 1.429 . S
C1283 C1279 1.429 . S
C1283 C1284 1.523 . S
C1284 C1268 1.368 . S
C1284 C1280 1.368 . S
C1284 C1283 1.523 . S
H1285 C1260 0.950 . S
H1286 C1262 0.950 . S
H1287 C1263 0.949 . S
H1288 C1265 0.950 1_554 S
H1289 C1267 0.950 . S
C1290 C1291 1.349 . S
C1290 C1292 1.327 . S
C1290 H1315 0.950 . S
C1291 C1290 1.349 . S
C1291 C1307 1.349 . S
C1292 C1290 1.327 . S
C1292 C1311 1.429 . S
C1292 H1316 0.950 . S
C1293 C1310 1.574 . S
C1293 C1312 1.368 . S
C1293 H1317 0.949 . S
H1294 C1298 0.949 . S
C1295 C1296 1.349 . S
C1295 C1297 1.327 . S
C1295 H1318 0.950 . S
C1296 C1295 1.349 . S
C1296 C1308 1.349 . S
C1297 C1295 1.327 . S
C1297 C1313 1.429 . S
C1297 H1319 0.950 . S
C1298 H1294 0.949 . S
C1298 C1306 1.574 . S
C1298 C1314 1.368 . S
H1299 C1307 0.950 . S
H1300 C1305 0.950 . S
H1301 C1306 0.949 . S
H1302 C1308 0.950 . S
H1303 C1309 0.950 . S
H1304 C1310 0.949 . S
C1305 H1300 0.950 . S
C1305 C1307 1.327 . S
C1305 C1311 1.429 . S
C1306 C1298 1.574 . S
C1306 H1301 0.949 . S
C1306 C1312 1.368 . S
C1307 C1291 1.349 . S
C1307 H1299 0.950 . S
C1307 C1305 1.327 . S
C1308 C1296 1.349 . S
C1308 H1302 0.950 . S
C1308 C1309 1.327 . S
C1309 H1303 0.950 . S
C1309 C1308 1.327 . S
C1309 C1313 1.429 . S
C1310 C1293 1.574 . S
C1310 H1304 0.949 . S
C1310 C1314 1.368 . S
C1311 C1292 1.429 . S
C1311 C1305 1.429 . S
C1311 C1312 1.523 . S
C1312 C1293 1.368 . S
C1312 C1306 1.368 . S
C1312 C1311 1.523 . S
C1313 C1297 1.429 . S
C1313 C1309 1.429 . S
C1313 C1314 1.523 . S
C1314 C1298 1.368 . S
C1314 C1310 1.368 . S
C1314 C1313 1.523 . S
H1315 C1290 0.950 . S
H1316 C1292 0.950 . S
H1317 C1293 0.949 . S
H1318 C1295 0.950 . S
H1319 C1297 0.950 . S
C1320 C1321 1.349 . S
C1320 C1322 1.327 . S
C1320 H1345 0.950 . S
C1321 C1320 1.349 . S
C1321 C1337 1.349 . S
C1322 C1320 1.327 . S
C1322 C1341 1.429 . S
C1322 H1346 0.950 . S
C1323 C1340 1.574 . S
C1323 C1342 1.368 . S
C1323 H1347 0.949 . S
H1324 C1328 0.949 . S
C1325 C1326 1.281 1_554 S
C1325 C1327 1.329 1_554 S
C1325 H1348 1.030 . S
C1326 C1325 1.281 1_556 S
C1326 C1338 1.349 . S
C1327 C1325 1.329 1_556 S
C1327 C1343 1.499 . S
C1327 H1349 0.887 1_556 S
C1328 H1324 0.949 . S
C1328 C1336 1.574 . S
C1328 C1344 1.368 . S
H1329 C1337 0.950 . S
H1330 C1335 0.950 . S
H1331 C1336 0.949 . S
H1332 C1338 0.950 . S
H1333 C1339 0.950 . S
H1334 C1340 0.949 1_554 S
C1335 H1330 0.950 . S
C1335 C1337 1.327 . S
C1335 C1341 1.429 . S
C1336 C1328 1.574 . S
C1336 H1331 0.949 . S
C1336 C1342 1.368 . S
C1337 C1321 1.349 . S
C1337 H1329 0.950 . S
C1337 C1335 1.327 . S
C1338 C1326 1.349 . S
C1338 H1332 0.950 . S
C1338 C1339 1.327 . S
C1339 H1333 0.950 . S
C1339 C1338 1.327 . S
C1339 C1343 1.429 . S
C1340 C1323 1.574 . S
C1340 H1334 0.949 1_556 S
C1340 C1344 1.368 . S
C1341 C1322 1.429 . S
C1341 C1335 1.429 . S
C1341 C1342 1.523 . S
C1342 C1323 1.368 . S
C1342 C1336 1.368 . S
C1342 C1341 1.523 . S
C1343 C1327 1.499 . S
C1343 C1339 1.429 . S
C1343 C1344 1.523 . S
C1344 C1328 1.368 . S
C1344 C1340 1.368 . S
C1344 C1343 1.523 . S
H1345 C1320 0.950 . S
H1346 C1322 0.950 . S
H1347 C1323 0.949 . S
H1348 C1325 1.030 . S
H1349 C1327 0.887 1_554 S
C1350 C1351 1.349 . S
C1350 C1352 1.327 . S
C1350 H1375 0.950 . S
C1351 C1350 1.349 . S
C1351 C1367 1.349 . S
C1352 C1350 1.327 . S
C1352 C1371 1.429 . S
C1352 H1376 0.950 . S
C1353 C1370 1.574 . S
C1353 C1372 1.368 . S
C1353 H1377 0.949 . S
H1354 C1358 0.949 . S
C1355 C1356 1.349 . S
C1355 C1357 1.327 . S
C1355 H1378 0.950 1_554 S
C1356 C1355 1.349 . S
C1356 C1368 1.349 . S
C1357 C1355 1.327 . S
C1357 C1373 1.429 . S
C1357 H1379 0.950 . S
C1358 H1354 0.949 . S
C1358 C1366 1.574 . S
C1358 C1374 1.368 . S
H1359 C1367 0.950 . S
H1360 C1365 0.950 . S
H1361 C1366 0.949 . S
H1362 C1368 0.950 . S
H1363 C1369 0.950 . S
H1364 C1370 0.949 . S
C1365 H1360 0.950 . S
C1365 C1367 1.327 . S
C1365 C1371 1.429 . S
C1366 C1358 1.574 . S
C1366 H1361 0.949 . S
C1366 C1372 1.368 . S
C1367 C1351 1.349 . S
C1367 H1359 0.950 . S
C1367 C1365 1.327 . S
C1368 C1356 1.349 . S
C1368 H1362 0.950 . S
C1368 C1369 1.327 . S
C1369 H1363 0.950 . S
C1369 C1368 1.327 . S
C1369 C1373 1.429 . S
C1370 C1353 1.574 . S
C1370 H1364 0.949 . S
C1370 C1374 1.368 . S
C1371 C1352 1.429 . S
C1371 C1365 1.429 . S
C1371 C1372 1.523 . S
C1372 C1353 1.368 . S
C1372 C1366 1.368 . S
C1372 C1371 1.523 . S
C1373 C1357 1.429 . S
C1373 C1369 1.429 . S
C1373 C1374 1.523 . S
C1374 C1358 1.368 . S
C1374 C1370 1.368 . S
C1374 C1373 1.523 . S
H1375 C1350 0.950 . S
H1376 C1352 0.950 . S
H1377 C1353 0.949 . S
H1378 C1355 0.950 1_556 S
H1379 C1357 0.950 . S
C1380 C1381 1.349 . S
C1380 C1382 1.327 . S
C1380 H1405 0.950 . S
C1381 C1380 1.349 . S
C1381 C1397 1.349 . S
C1382 C1380 1.327 . S
C1382 C1401 1.429 . S
C1382 H1406 0.950 . S
C1383 C1400 1.574 . S
C1383 C1402 1.368 . S
C1383 H1407 0.949 . S
H1384 C1388 0.949 . S
C1385 C1386 1.349 . S
C1385 C1387 1.327 . S
C1385 H1408 0.950 . S
C1386 C1385 1.349 . S
C1386 C1398 1.349 . S
C1387 C1385 1.327 . S
C1387 C1403 1.429 . S
C1387 H1409 0.950 . S
C1388 H1384 0.949 . S
C1388 C1396 1.574 . S
C1388 C1404 1.368 . S
H1389 C1397 0.950 . S
H1390 C1395 0.950 . S
H1391 C1396 0.949 . S
H1392 C1398 0.950 . S
H1393 C1399 0.950 . S
H1394 C1400 0.949 . S
C1395 H1390 0.950 . S
C1395 C1397 1.327 . S
C1395 C1401 1.429 . S
C1396 C1388 1.574 . S
C1396 H1391 0.949 . S
C1396 C1402 1.368 . S
C1397 C1381 1.349 . S
C1397 H1389 0.950 . S
C1397 C1395 1.327 . S
C1398 C1386 1.349 . S
C1398 H1392 0.950 . S
C1398 C1399 1.327 . S
C1399 H1393 0.950 . S
C1399 C1398 1.327 . S
C1399 C1403 1.429 . S
C1400 C1383 1.574 . S
C1400 H1394 0.949 . S
C1400 C1404 1.368 . S
C1401 C1382 1.429 . S
C1401 C1395 1.429 . S
C1401 C1402 1.523 . S
C1402 C1383 1.368 . S
C1402 C1396 1.368 . S
C1402 C1401 1.523 . S
C1403 C1387 1.429 . S
C1403 C1399 1.429 . S
C1403 C1404 1.523 . S
C1404 C1388 1.368 . S
C1404 C1400 1.368 . S
C1404 C1403 1.523 . S
H1405 C1380 0.950 . S
H1406 C1382 0.950 . S
H1407 C1383 0.949 . S
H1408 C1385 0.950 . S
H1409 C1387 0.950 . S
C1410 C1411 1.349 . S
C1410 C1412 1.327 . S
C1410 H1435 0.950 . S
C1411 C1410 1.349 . S
C1411 C1427 1.349 . S
C1412 C1410 1.327 . S
C1412 C1431 1.429 . S
C1412 H1436 0.950 . S
C1413 C1430 1.574 . S
C1413 C1432 1.368 . S
C1413 H1437 0.949 . S
H1414 C1418 0.949 . S
C1415 C1416 1.349 . S
C1415 C1417 1.327 . S
C1415 H1438 0.950 1_554 S
C1416 C1415 1.349 . S
C1416 C1428 1.349 . S
C1417 C1415 1.327 . S
C1417 C1433 1.429 . S
C1417 H1439 0.950 . S
C1418 H1414 0.949 . S
C1418 C1426 1.574 . S
C1418 C1434 1.368 . S
H1419 C1427 0.950 . S
H1420 C1425 0.950 . S
H1421 C1426 0.949 . S
H1422 C1428 0.950 . S
H1423 C1429 0.950 . S
H1424 C1430 0.949 . S
C1425 H1420 0.950 . S
C1425 C1427 1.327 . S
C1425 C1431 1.429 . S
C1426 C1418 1.574 . S
C1426 H1421 0.949 . S
C1426 C1432 1.368 . S
C1427 C1411 1.349 . S
C1427 H1419 0.950 . S
C1427 C1425 1.327 . S
C1428 C1416 1.349 . S
C1428 H1422 0.950 . S
C1428 C1429 1.327 . S
C1429 H1423 0.950 . S
C1429 C1428 1.327 . S
C1429 C1433 1.429 . S
C1430 C1413 1.574 . S
C1430 H1424 0.949 . S
C1430 C1434 1.368 . S
C1431 C1412 1.429 . S
C1431 C1425 1.429 . S
C1431 C1432 1.523 . S
C1432 C1413 1.368 . S
C1432 C1426 1.368 . S
C1432 C1431 1.523 . S
C1433 C1417 1.429 . S
C1433 C1429 1.429 . S
C1433 C1434 1.523 . S
C1434 C1418 1.368 . S
C1434 C1430 1.368 . S
C1434 C1433 1.523 . S
H1435 C1410 0.950 . S
H1436 C1412 0.950 . S
H1437 C1413 0.949 . S
H1438 C1415 0.950 1_556 S
H1439 C1417 0.950 . S
C1440 C1441 1.349 . S
C1440 C1442 1.388 . S
C1440 H1465 0.950 . S
C1441 C1440 1.349 . S
C1441 C1457 1.349 . S
C1442 C1440 1.388 . S
C1442 C1461 1.426 1_655 S
C1442 H1466 0.894 1_655 S
C1443 C1460 1.574 . S
C1443 C1462 1.368 . S
C1443 H1467 0.949 . S
H1444 C1448 0.949 . S
C1445 C1446 1.349 . S
C1445 C1447 1.327 . S
C1445 H1468 0.950 . S
C1446 C1445 1.349 . S
C1446 C1458 1.349 . S
C1447 C1445 1.327 . S
C1447 C1463 1.429 . S
C1447 H1469 0.950 . S
C1448 H1444 0.949 . S
C1448 C1456 1.574 . S
C1448 C1464 1.368 . S
H1449 C1457 0.950 . S
H1450 C1455 0.950 . S
H1451 C1456 0.949 . S
H1452 C1458 0.950 . S
H1453 C1459 0.950 . S
H1454 C1460 0.949 . S
C1455 H1450 0.950 . S
C1455 C1457 1.327 . S
C1455 C1461 1.429 1_655 S
C1456 C1448 1.574 . S
C1456 H1451 0.949 . S
C1456 C1462 1.368 . S
C1457 C1441 1.349 . S
C1457 H1449 0.950 . S
C1457 C1455 1.327 . S
C1458 C1446 1.349 . S
C1458 H1452 0.950 . S
C1458 C1459 1.327 . S
C1459 H1453 0.950 . S
C1459 C1458 1.327 . S
C1459 C1463 1.429 . S
C1460 C1443 1.574 . S
C1460 H1454 0.949 . S
C1460 C1464 1.368 . S
C1461 C1442 1.426 1_455 S
C1461 C1455 1.429 1_455 S
C1461 C1462 1.523 . S
C1462 C1443 1.368 . S
C1462 C1456 1.368 . S
C1462 C1461 1.523 . S
C1463 C1447 1.429 . S
C1463 C1459 1.429 . S
C1463 C1464 1.523 . S
C1464 C1448 1.368 . S
C1464 C1460 1.368 . S
C1464 C1463 1.523 . S
H1465 C1440 0.950 . S
H1466 C1442 0.894 1_455 S
H1467 C1443 0.949 . S
H1468 C1445 0.950 . S
H1469 C1447 0.950 . S
C1470 C1471 1.349 . S
C1470 C1472 1.327 . S
C1470 H1495 0.950 . S
C1471 C1470 1.349 . S
C1471 C1487 1.349 . S
C1472 C1470 1.327 . S
C1472 C1491 1.429 . S
C1472 H1496 0.950 . S
C1473 C1490 1.574 . S
C1473 C1492 1.368 . S
C1473 H1497 0.949 . S
H1474 C1478 0.949 . S
C1475 C1476 1.349 . S
C1475 C1477 1.327 . S
C1475 H1498 0.950 . S
C1476 C1475 1.349 . S
C1476 C1488 1.349 . S
C1477 C1475 1.327 . S
C1477 C1493 1.429 . S
C1477 H1499 0.950 . S
C1478 H1474 0.949 . S
C1478 C1486 1.574 . S
C1478 C1494 1.368 . S
H1479 C1487 0.950 . S
H1480 C1485 0.950 . S
H1481 C1486 0.949 . S
H1482 C1488 0.950 . S
H1483 C1489 0.950 . S
H1484 C1490 0.949 . S
C1485 H1480 0.950 . S
C1485 C1487 1.327 . S
C1485 C1491 1.429 . S
C1486 C1478 1.574 . S
C1486 H1481 0.949 . S
C1486 C1492 1.368 . S
C1487 C1471 1.349 . S
C1487 H1479 0.950 . S
C1487 C1485 1.327 . S
C1488 C1476 1.349 . S
C1488 H1482 0.950 . S
C1488 C1489 1.327 . S
C1489 H1483 0.950 . S
C1489 C1488 1.327 . S
C1489 C1493 1.429 . S
C1490 C1473 1.574 . S
C1490 H1484 0.949 . S
C1490 C1494 1.368 . S
C1491 C1472 1.429 . S
C1491 C1485 1.429 . S
C1491 C1492 1.523 . S
C1492 C1473 1.368 . S
C1492 C1486 1.368 . S
C1492 C1491 1.523 . S
C1493 C1477 1.429 . S
C1493 C1489 1.429 . S
C1493 C1494 1.523 . S
C1494 C1478 1.368 . S
C1494 C1490 1.368 . S
C1494 C1493 1.523 . S
H1495 C1470 0.950 . S
H1496 C1472 0.950 . S
H1497 C1473 0.949 . S
H1498 C1475 0.950 . S
H1499 C1477 0.950 . S
C1500 C1501 1.349 . S
C1500 C1502 1.327 . S
C1500 H1525 0.950 . S
C1501 C1500 1.349 . S
C1501 C1517 1.349 . S
C1502 C1500 1.327 . S
C1502 C1521 1.429 . S
C1502 H1526 0.950 . S
C1503 C1520 1.574 . S
C1503 C1522 1.368 . S
C1503 H1527 0.949 . S
H1504 C1508 0.949 . S
C1505 C1506 1.349 . S
C1505 C1507 1.327 . S
C1505 H1528 0.950 . S
C1506 C1505 1.349 . S
C1506 C1518 1.349 . S
C1507 C1505 1.327 . S
C1507 C1523 1.429 . S
C1507 H1529 0.950 . S
C1508 H1504 0.949 . S
C1508 C1516 1.574 . S
C1508 C1524 1.368 . S
H1509 C1517 0.950 . S
H1510 C1515 0.950 . S
H1511 C1516 0.949 . S
H1512 C1518 0.950 . S
H1513 C1519 0.950 . S
H1514 C1520 0.949 . S
C1515 H1510 0.950 . S
C1515 C1517 1.327 . S
C1515 C1521 1.429 . S
C1516 C1508 1.574 . S
C1516 H1511 0.949 . S
C1516 C1522 1.368 . S
C1517 C1501 1.349 . S
C1517 H1509 0.950 . S
C1517 C1515 1.327 . S
C1518 C1506 1.349 . S
C1518 H1512 0.950 . S
C1518 C1519 1.327 . S
C1519 H1513 0.950 . S
C1519 C1518 1.327 . S
C1519 C1523 1.429 . S
C1520 C1503 1.574 . S
C1520 H1514 0.949 . S
C1520 C1524 1.368 . S
C1521 C1502 1.429 . S
C1521 C1515 1.429 . S
C1521 C1522 1.523 1_545 S
C1522 C1503 1.368 . S
C1522 C1516 1.368 . S
C1522 C1521 1.523 1_565 S
C1523 C1507 1.429 . S
C1523 C1519 1.429 . S
C1523 C1524 1.523 . S
C1524 C1508 1.368 . S
C1524 C1520 1.368 . S
C1524 C1523 1.523 . S
H1525 C1500 0.950 . S
H1526 C1502 0.950 . S
H1527 C1503 0.949 . S
H1528 C1505 0.950 . S
H1529 C1507 0.950 . S
C1530 C1531 1.349 . S
C1530 C1532 1.327 . S
C1530 H1555 0.950 . S
C1531 C1530 1.349 . S
C1531 C1547 1.349 . S
C1532 C1530 1.327 . S
C1532 C1551 1.429 . S
C1532 H1556 0.950 . S
C1533 C1550 1.574 . S
C1533 C1552 1.368 . S
C1533 H1557 0.949 . S
H1534 C1538 0.949 . S
C1535 C1536 1.349 . S
C1535 C1537 1.327 . S
C1535 H1558 0.950 . S
C1536 C1535 1.349 . S
C1536 C1548 1.349 . S
C1537 C1535 1.327 . S
C1537 C1553 1.429 . S
C1537 H1559 0.950 . S
C1538 H1534 0.949 . S
C1538 C1546 1.574 . S
C1538 C1554 1.368 . S
H1539 C1547 0.950 . S
H1540 C1545 0.950 . S
H1541 C1546 0.949 . S
H1542 C1548 0.950 . S
H1543 C1549 0.950 . S
H1544 C1550 0.949 . S
C1545 H1540 0.950 . S
C1545 C1547 1.327 . S
C1545 C1551 1.429 . S
C1546 C1538 1.574 . S
C1546 H1541 0.949 . S
C1546 C1552 1.368 . S
C1547 C1531 1.349 . S
C1547 H1539 0.950 . S
C1547 C1545 1.327 . S
C1548 C1536 1.349 . S
C1548 H1542 0.950 . S
C1548 C1549 1.327 . S
C1549 H1543 0.950 . S
C1549 C1548 1.327 . S
C1549 C1553 1.429 . S
C1550 C1533 1.574 . S
C1550 H1544 0.949 . S
C1550 C1554 1.368 . S
C1551 C1532 1.429 . S
C1551 C1545 1.429 . S
C1551 C1552 1.523 . S
C1552 C1533 1.368 . S
C1552 C1546 1.368 . S
C1552 C1551 1.523 . S
C1553 C1537 1.429 . S
C1553 C1549 1.429 . S
C1553 C1554 1.523 . S
C1554 C1538 1.368 . S
C1554 C1550 1.368 . S
C1554 C1553 1.523 . S
H1555 C1530 0.950 . S
H1556 C1532 0.950 . S
H1557 C1533 0.949 . S
H1558 C1535 0.950 . S
H1559 C1537 0.950 . S
C1560 C1561 1.349 . S
C1560 C1562 1.327 . S
C1560 H1585 0.950 . S
C1561 C1560 1.349 . S
C1561 C1577 1.349 . S
C1562 C1560 1.327 . S
C1562 C1581 1.429 . S
C1562 H1586 0.950 . S
C1563 C1580 1.574 . S
C1563 C1582 1.368 . S
C1563 H1587 0.949 . S
H1564 C1568 0.949 . S
C1565 C1566 1.349 . S
C1565 C1567 1.327 . S
C1565 H1588 0.950 . S
C1566 C1565 1.349 . S
C1566 C1578 1.349 . S
C1567 C1565 1.327 . S
C1567 C1583 1.429 . S
C1567 H1589 0.950 . S
C1568 H1564 0.949 . S
C1568 C1576 1.574 . S
C1568 C1584 1.368 . S
H1569 C1577 0.950 . S
H1570 C1575 0.950 . S
H1571 C1576 0.949 . S
H1572 C1578 0.950 . S
H1573 C1579 0.950 . S
H1574 C1580 0.949 . S
C1575 H1570 0.950 . S
C1575 C1577 1.327 . S
C1575 C1581 1.429 . S
C1576 C1568 1.574 . S
C1576 H1571 0.949 . S
C1576 C1582 1.368 . S
C1577 C1561 1.349 . S
C1577 H1569 0.950 . S
C1577 C1575 1.327 . S
C1578 C1566 1.349 . S
C1578 H1572 0.950 . S
C1578 C1579 1.327 . S
C1579 H1573 0.950 . S
C1579 C1578 1.327 . S
C1579 C1583 1.429 . S
C1580 C1563 1.574 . S
C1580 H1574 0.949 . S
C1580 C1584 1.368 . S
C1581 C1562 1.429 . S
C1581 C1575 1.429 . S
C1581 C1582 1.523 . S
C1582 C1563 1.368 . S
C1582 C1576 1.368 . S
C1582 C1581 1.523 . S
C1583 C1567 1.429 . S
C1583 C1579 1.429 . S
C1583 C1584 1.523 . S
C1584 C1568 1.368 . S
C1584 C1580 1.368 . S
C1584 C1583 1.523 . S
H1585 C1560 0.950 . S
H1586 C1562 0.950 . S
H1587 C1563 0.949 . S
H1588 C1565 0.950 . S
H1589 C1567 0.950 . S
C1590 C1591 1.349 . S
C1590 C1592 1.327 . S
C1590 H1615 0.950 . S
C1591 C1590 1.349 . S
C1591 C1607 1.349 . S
C1592 C1590 1.327 . S
C1592 C1611 1.429 . S
C1592 H1616 0.950 . S
C1593 C1610 1.574 . S
C1593 C1612 1.368 . S
C1593 H1617 0.949 . S
H1594 C1598 0.949 . S
C1595 C1596 1.349 . S
C1595 C1597 1.327 . S
C1595 H1618 0.950 . S
C1596 C1595 1.349 . S
C1596 C1608 1.349 . S
C1597 C1595 1.327 . S
C1597 C1613 1.429 . S
C1597 H1619 0.950 . S
C1598 H1594 0.949 . S
C1598 C1606 1.574 . S
C1598 C1614 1.368 . S
H1599 C1607 0.950 . S
H1600 C1605 0.950 . S
H1601 C1606 0.949 . S
H1602 C1608 0.950 . S
H1603 C1609 0.950 . S
H1604 C1610 0.949 . S
C1605 H1600 0.950 . S
C1605 C1607 1.327 . S
C1605 C1611 1.429 . S
C1606 C1598 1.574 . S
C1606 H1601 0.949 . S
C1606 C1612 1.368 . S
C1607 C1591 1.349 . S
C1607 H1599 0.950 . S
C1607 C1605 1.327 . S
C1608 C1596 1.349 . S
C1608 H1602 0.950 . S
C1608 C1609 1.327 . S
C1609 H1603 0.950 . S
C1609 C1608 1.327 . S
C1609 C1613 1.429 . S
C1610 C1593 1.574 . S
C1610 H1604 0.949 . S
C1610 C1614 1.368 . S
C1611 C1592 1.429 . S
C1611 C1605 1.429 . S
C1611 C1612 1.523 . S
C1612 C1593 1.368 . S
C1612 C1606 1.368 . S
C1612 C1611 1.523 . S
C1613 C1597 1.429 . S
C1613 C1609 1.429 . S
C1613 C1614 1.523 . S
C1614 C1598 1.368 . S
C1614 C1610 1.368 . S
C1614 C1613 1.523 . S
H1615 C1590 0.950 . S
H1616 C1592 0.950 . S
H1617 C1593 0.949 . S
H1618 C1595 0.950 . S
H1619 C1597 0.950 . S
C1620 C1621 1.349 . S
C1620 C1622 1.327 . S
C1620 H1645 0.950 . S
C1621 C1620 1.349 . S
C1621 C1637 1.349 . S
C1622 C1620 1.327 . S
C1622 C1641 1.429 . S
C1622 H1646 0.950 . S
C1623 C1640 1.574 . S
C1623 C1642 1.368 . S
C1623 H1647 0.949 . S
H1624 C1628 0.949 . S
C1625 C1626 1.349 . S
C1625 C1627 1.327 . S
C1625 H1648 0.950 . S
C1626 C1625 1.349 . S
C1626 C1638 1.349 . S
C1627 C1625 1.327 . S
C1627 C1643 1.429 . S
C1627 H1649 0.950 . S
C1628 H1624 0.949 . S
C1628 C1636 1.574 . S
C1628 C1644 1.368 . S
H1629 C1637 0.950 . S
H1630 C1635 0.950 . S
H1631 C1636 0.949 . S
H1632 C1638 0.950 . S
H1633 C1639 0.950 . S
H1634 C1640 0.949 . S
C1635 H1630 0.950 . S
C1635 C1637 1.327 . S
C1635 C1641 1.429 . S
C1636 C1628 1.574 . S
C1636 H1631 0.949 . S
C1636 C1642 1.368 . S
C1637 C1621 1.349 . S
C1637 H1629 0.950 . S
C1637 C1635 1.327 . S
C1638 C1626 1.349 . S
C1638 H1632 0.950 . S
C1638 C1639 1.327 . S
C1639 H1633 0.950 . S
C1639 C1638 1.327 . S
C1639 C1643 1.429 . S
C1640 C1623 1.574 . S
C1640 H1634 0.949 . S
C1640 C1644 1.368 . S
C1641 C1622 1.429 . S
C1641 C1635 1.429 . S
C1641 C1642 1.523 . S
C1642 C1623 1.368 . S
C1642 C1636 1.368 . S
C1642 C1641 1.523 . S
C1643 C1627 1.429 . S
C1643 C1639 1.429 . S
C1643 C1644 1.523 . S
C1644 C1628 1.368 . S
C1644 C1640 1.368 . S
C1644 C1643 1.523 . S
H1645 C1620 0.950 . S
H1646 C1622 0.950 . S
H1647 C1623 0.949 . S
H1648 C1625 0.950 . S
H1649 C1627 0.950 . S
C1650 C1651 1.349 . S
C1650 C1652 1.327 . S
C1650 H1675 0.950 . S
C1651 C1650 1.349 . S
C1651 C1667 1.349 . S
C1652 C1650 1.327 . S
C1652 C1671 1.429 . S
C1652 H1676 0.950 . S
C1653 C1670 1.574 . S
C1653 C1672 1.368 . S
C1653 H1677 0.949 . S
H1654 C1658 0.949 . S
C1655 C1656 1.349 . S
C1655 C1657 1.327 . S
C1655 H1678 0.950 . S
C1656 C1655 1.349 . S
C1656 C1668 1.349 . S
C1657 C1655 1.327 . S
C1657 C1673 1.429 . S
C1657 H1679 0.950 . S
C1658 H1654 0.949 . S
C1658 C1666 1.574 . S
C1658 C1674 1.368 . S
H1659 C1667 0.950 . S
H1660 C1665 0.950 . S
H1661 C1666 0.949 . S
H1662 C1668 0.950 . S
H1663 C1669 0.950 . S
H1664 C1670 0.949 . S
C1665 H1660 0.950 . S
C1665 C1667 1.327 . S
C1665 C1671 1.429 . S
C1666 C1658 1.574 . S
C1666 H1661 0.949 . S
C1666 C1672 1.368 . S
C1667 C1651 1.349 . S
C1667 H1659 0.950 . S
C1667 C1665 1.327 . S
C1668 C1656 1.349 . S
C1668 H1662 0.950 . S
C1668 C1669 1.327 . S
C1669 H1663 0.950 . S
C1669 C1668 1.327 . S
C1669 C1673 1.429 . S
C1670 C1653 1.574 . S
C1670 H1664 0.949 . S
C1670 C1674 1.368 . S
C1671 C1652 1.429 . S
C1671 C1665 1.429 . S
C1671 C1672 1.523 . S
C1672 C1653 1.368 . S
C1672 C1666 1.368 . S
C1672 C1671 1.523 . S
C1673 C1657 1.429 . S
C1673 C1669 1.429 . S
C1673 C1674 1.523 . S
C1674 C1658 1.368 . S
C1674 C1670 1.368 . S
C1674 C1673 1.523 . S
H1675 C1650 0.950 . S
H1676 C1652 0.950 . S
H1677 C1653 0.949 . S
H1678 C1655 0.950 . S
H1679 C1657 0.950 . S
C1680 C1681 1.349 . S
C1680 C1682 1.327 . S
C1680 H1705 0.950 . S
C1681 C1680 1.349 . S
C1681 C1697 1.349 . S
C1682 C1680 1.327 . S
C1682 C1701 1.429 . S
C1682 H1706 0.950 . S
C1683 C1700 1.574 . S
C1683 C1702 1.368 . S
C1683 H1707 0.949 . S
H1684 C1688 0.949 . S
C1685 C1686 1.349 . S
C1685 C1687 1.327 . S
C1685 H1708 0.950 . S
C1686 C1685 1.349 . S
C1686 C1698 1.349 . S
C1687 C1685 1.327 . S
C1687 C1703 1.429 . S
C1687 H1709 0.950 . S
C1688 H1684 0.949 . S
C1688 C1696 1.574 . S
C1688 C1704 1.368 . S
H1689 C1697 0.950 . S
H1690 C1695 0.950 . S
H1691 C1696 0.949 . S
H1692 C1698 0.950 . S
H1693 C1699 0.950 . S
H1694 C1700 0.949 . S
C1695 H1690 0.950 . S
C1695 C1697 1.327 . S
C1695 C1701 1.429 . S
C1696 C1688 1.574 . S
C1696 H1691 0.949 . S
C1696 C1702 1.368 . S
C1697 C1681 1.349 . S
C1697 H1689 0.950 . S
C1697 C1695 1.327 . S
C1698 C1686 1.349 . S
C1698 H1692 0.950 . S
C1698 C1699 1.327 . S
C1699 H1693 0.950 . S
C1699 C1698 1.327 . S
C1699 C1703 1.429 . S
C1700 C1683 1.574 . S
C1700 H1694 0.949 . S
C1700 C1704 1.368 . S
C1701 C1682 1.429 . S
C1701 C1695 1.429 . S
C1701 C1702 1.523 . S
C1702 C1683 1.368 . S
C1702 C1696 1.368 . S
C1702 C1701 1.523 . S
C1703 C1687 1.429 . S
C1703 C1699 1.429 . S
C1703 C1704 1.523 . S
C1704 C1688 1.368 . S
C1704 C1700 1.368 . S
C1704 C1703 1.523 . S
H1705 C1680 0.950 . S
H1706 C1682 0.950 . S
H1707 C1683 0.949 . S
H1708 C1685 0.950 . S
H1709 C1687 0.950 . S
C1710 C1711 1.349 . S
C1710 C1712 1.327 . S
C1710 H1735 0.950 . S
C1711 C1710 1.349 . S
C1711 C1727 1.349 . S
C1712 C1710 1.327 . S
C1712 C1731 1.429 . S
C1712 H1736 0.950 . S
C1713 C1730 1.574 . S
C1713 C1732 1.368 . S
C1713 H1737 0.949 . S
H1714 C1718 0.949 . S
C1715 C1716 1.349 . S
C1715 C1717 1.327 . S
C1715 H1738 0.950 . S
C1716 C1715 1.349 . S
C1716 C1728 1.349 . S
C1717 C1715 1.327 . S
C1717 C1733 1.429 . S
C1717 H1739 0.950 . S
C1718 H1714 0.949 . S
C1718 C1726 1.574 . S
C1718 C1734 1.368 . S
H1719 C1727 0.950 . S
H1720 C1725 0.950 . S
H1721 C1726 0.949 . S
H1722 C1728 0.950 . S
H1723 C1729 0.950 . S
H1724 C1730 0.949 . S
C1725 H1720 0.950 . S
C1725 C1727 1.327 . S
C1725 C1731 1.429 . S
C1726 C1718 1.574 . S
C1726 H1721 0.949 . S
C1726 C1732 1.368 . S
C1727 C1711 1.349 . S
C1727 H1719 0.950 . S
C1727 C1725 1.327 . S
C1728 C1716 1.349 . S
C1728 H1722 0.950 . S
C1728 C1729 1.327 . S
C1729 H1723 0.950 . S
C1729 C1728 1.327 . S
C1729 C1733 1.429 . S
C1730 C1713 1.574 . S
C1730 H1724 0.949 . S
C1730 C1734 1.368 . S
C1731 C1712 1.429 . S
C1731 C1725 1.429 . S
C1731 C1732 1.523 1_545 S
C1732 C1713 1.368 . S
C1732 C1726 1.368 . S
C1732 C1731 1.523 1_565 S
C1733 C1717 1.429 . S
C1733 C1729 1.429 . S
C1733 C1734 1.523 . S
C1734 C1718 1.368 . S
C1734 C1730 1.368 . S
C1734 C1733 1.523 . S
H1735 C1710 0.950 . S
H1736 C1712 0.950 . S
H1737 C1713 0.949 . S
H1738 C1715 0.950 . S
H1739 C1717 0.950 . S
C1740 C1741 1.349 . S
C1740 C1742 1.333 . S
C1740 H1765 0.950 . S
C1741 C1740 1.349 . S
C1741 C1757 1.349 . S
C1742 C1740 1.333 . S
C1742 C1761 1.422 1_655 S
C1742 H1766 0.951 1_655 S
C1743 C1760 1.574 . S
C1743 C1762 1.368 . S
C1743 H1767 0.949 . S
H1744 C1748 0.949 . S
C1745 C1746 1.349 . S
C1745 C1747 1.327 . S
C1745 H1768 0.950 . S
C1746 C1745 1.349 . S
C1746 C1758 1.349 . S
C1747 C1745 1.327 . S
C1747 C1763 1.429 . S
C1747 H1769 0.950 . S
C1748 H1744 0.949 . S
C1748 C1756 1.574 . S
C1748 C1764 1.368 . S
H1749 C1757 0.950 . S
H1750 C1755 0.950 . S
H1751 C1756 0.949 . S
H1752 C1758 0.950 . S
H1753 C1759 0.950 . S
H1754 C1760 0.949 . S
C1755 H1750 0.950 . S
C1755 C1757 1.327 1_455 S
C1755 C1761 1.429 . S
C1756 C1748 1.574 . S
C1756 H1751 0.949 . S
C1756 C1762 1.368 . S
C1757 C1741 1.349 . S
C1757 H1749 0.950 . S
C1757 C1755 1.327 1_655 S
C1758 C1746 1.349 . S
C1758 H1752 0.950 . S
C1758 C1759 1.327 . S
C1759 H1753 0.950 . S
C1759 C1758 1.327 . S
C1759 C1763 1.429 . S
C1760 C1743 1.574 . S
C1760 H1754 0.949 . S
C1760 C1764 1.368 . S
C1761 C1742 1.422 1_455 S
C1761 C1755 1.429 . S
C1761 C1762 1.523 . S
C1762 C1743 1.368 . S
C1762 C1756 1.368 . S
C1762 C1761 1.523 . S
C1763 C1747 1.429 . S
C1763 C1759 1.429 . S
C1763 C1764 1.523 . S
C1764 C1748 1.368 . S
C1764 C1760 1.368 . S
C1764 C1763 1.523 . S
H1765 C1740 0.950 . S
H1766 C1742 0.951 1_455 S
H1767 C1743 0.949 . S
H1768 C1745 0.950 . S
H1769 C1747 0.950 . S
C1770 C1771 1.349 . S
C1770 C1772 1.327 . S
C1770 H1795 0.950 . S
C1771 C1770 1.349 . S
C1771 C1787 1.349 . S
C1772 C1770 1.327 . S
C1772 C1791 1.429 . S
C1772 H1796 0.950 . S
C1773 C1790 1.574 . S
C1773 C1792 1.368 . S
C1773 H1797 0.949 . S
H1774 C1778 0.949 . S
C1775 C1776 1.349 . S
C1775 C1777 1.327 . S
C1775 H1798 0.950 . S
C1776 C1775 1.349 . S
C1776 C1788 1.349 . S
C1777 C1775 1.327 . S
C1777 C1793 1.429 . S
C1777 H1799 0.950 . S
C1778 H1774 0.949 . S
C1778 C1786 1.574 . S
C1778 C1794 1.368 . S
H1779 C1787 0.950 . S
H1780 C1785 0.950 . S
H1781 C1786 0.949 . S
H1782 C1788 0.950 . S
H1783 C1789 0.950 . S
H1784 C1790 0.949 . S
C1785 H1780 0.950 . S
C1785 C1787 1.327 . S
C1785 C1791 1.429 . S
C1786 C1778 1.574 . S
C1786 H1781 0.949 . S
C1786 C1792 1.368 . S
C1787 C1771 1.349 . S
C1787 H1779 0.950 . S
C1787 C1785 1.327 . S
C1788 C1776 1.349 . S
C1788 H1782 0.950 . S
C1788 C1789 1.327 . S
C1789 H1783 0.950 . S
C1789 C1788 1.327 . S
C1789 C1793 1.429 . S
C1790 C1773 1.574 . S
C1790 H1784 0.949 . S
C1790 C1794 1.368 . S
C1791 C1772 1.429 . S
C1791 C1785 1.429 . S
C1791 C1792 1.523 . S
C1792 C1773 1.368 . S
C1792 C1786 1.368 . S
C1792 C1791 1.523 . S
C1793 C1777 1.429 . S
C1793 C1789 1.429 . S
C1793 C1794 1.523 . S
C1794 C1778 1.368 . S
C1794 C1790 1.368 . S
C1794 C1793 1.523 . S
H1795 C1770 0.950 . S
H1796 C1772 0.950 . S
H1797 C1773 0.949 . S
H1798 C1775 0.950 . S
H1799 C1777 0.950 . S
C1800 C1801 1.349 . S
C1800 C1802 1.327 . S
C1800 H1825 0.950 . S
C1801 C1800 1.349 . S
C1801 C1817 1.349 . S
C1802 C1800 1.327 . S
C1802 C1821 1.429 . S
C1802 H1826 0.950 . S
C1803 C1820 1.574 . S
C1803 C1822 1.368 . S
C1803 H1827 0.949 . S
H1804 C1808 0.949 . S
C1805 C1806 1.349 . S
C1805 C1807 1.327 . S
C1805 H1828 0.950 . S
C1806 C1805 1.349 . S
C1806 C1818 1.349 . S
C1807 C1805 1.327 . S
C1807 C1823 1.429 . S
C1807 H1829 0.950 . S
C1808 H1804 0.949 . S
C1808 C1816 1.574 . S
C1808 C1824 1.368 . S
H1809 C1817 0.950 . S
H1810 C1815 0.950 . S
H1811 C1816 0.949 . S
H1812 C1818 0.950 . S
H1813 C1819 0.950 . S
H1814 C1820 0.949 . S
C1815 H1810 0.950 . S
C1815 C1817 1.327 . S
C1815 C1821 1.429 . S
C1816 C1808 1.574 . S
C1816 H1811 0.949 . S
C1816 C1822 1.368 . S
C1817 C1801 1.349 . S
C1817 H1809 0.950 . S
C1817 C1815 1.327 . S
C1818 C1806 1.349 . S
C1818 H1812 0.950 . S
C1818 C1819 1.327 . S
C1819 H1813 0.950 . S
C1819 C1818 1.327 . S
C1819 C1823 1.429 . S
C1820 C1803 1.574 . S
C1820 H1814 0.949 . S
C1820 C1824 1.368 . S
C1821 C1802 1.429 . S
C1821 C1815 1.429 . S
C1821 C1822 1.523 . S
C1822 C1803 1.368 . S
C1822 C1816 1.368 . S
C1822 C1821 1.523 . S
C1823 C1807 1.429 . S
C1823 C1819 1.429 . S
C1823 C1824 1.523 . S
C1824 C1808 1.368 . S
C1824 C1820 1.368 . S
C1824 C1823 1.523 . S
H1825 C1800 0.950 . S
H1826 C1802 0.950 . S
H1827 C1803 0.949 . S
H1828 C1805 0.950 . S
H1829 C1807 0.950 . S
C1830 C1831 1.349 . S
C1830 C1832 1.327 . S
C1830 H1855 0.950 . S
C1831 C1830 1.349 . S
C1831 C1847 1.349 . S
C1832 C1830 1.327 . S
C1832 C1851 1.429 . S
C1832 H1856 0.950 . S
C1833 C1850 1.574 . S
C1833 C1852 1.368 . S
C1833 H1857 0.949 . S
H1834 C1838 0.949 . S
C1835 C1836 1.349 . S
C1835 C1837 1.327 . S
C1835 H1858 0.950 . S
C1836 C1835 1.349 . S
C1836 C1848 1.349 . S
C1837 C1835 1.327 . S
C1837 C1853 1.429 . S
C1837 H1859 0.950 . S
C1838 H1834 0.949 . S
C1838 C1846 1.574 . S
C1838 C1854 1.368 . S
H1839 C1847 0.950 . S
H1840 C1845 0.950 . S
H1841 C1846 0.949 . S
H1842 C1848 0.950 . S
H1843 C1849 0.950 . S
H1844 C1850 0.949 . S
C1845 H1840 0.950 . S
C1845 C1847 1.327 . S
C1845 C1851 1.429 . S
C1846 C1838 1.574 . S
C1846 H1841 0.949 . S
C1846 C1852 1.368 . S
C1847 C1831 1.349 . S
C1847 H1839 0.950 . S
C1847 C1845 1.327 . S
C1848 C1836 1.349 . S
C1848 H1842 0.950 . S
C1848 C1849 1.327 . S
C1849 H1843 0.950 . S
C1849 C1848 1.327 . S
C1849 C1853 1.429 . S
C1850 C1833 1.574 . S
C1850 H1844 0.949 . S
C1850 C1854 1.368 . S
C1851 C1832 1.429 . S
C1851 C1845 1.429 . S
C1851 C1852 1.523 . S
C1852 C1833 1.368 . S
C1852 C1846 1.368 . S
C1852 C1851 1.523 . S
C1853 C1837 1.429 . S
C1853 C1849 1.429 . S
C1853 C1854 1.523 . S
C1854 C1838 1.368 . S
C1854 C1850 1.368 . S
C1854 C1853 1.523 . S
H1855 C1830 0.950 . S
H1856 C1832 0.950 . S
H1857 C1833 0.949 . S
H1858 C1835 0.950 . S
H1859 C1837 0.950 . S
C1860 C1861 1.349 . S
C1860 C1862 1.327 . S
C1860 H1885 0.950 . S
C1861 C1860 1.349 . S
C1861 C1877 1.349 . S
C1862 C1860 1.327 . S
C1862 C1881 1.429 . S
C1862 H1886 0.950 . S
C1863 C1880 1.574 . S
C1863 C1882 1.368 . S
C1863 H1887 0.949 . S
H1864 C1868 0.949 . S
C1865 C1866 1.349 . S
C1865 C1867 1.327 . S
C1865 H1888 0.950 . S
C1866 C1865 1.349 . S
C1866 C1878 1.349 . S
C1867 C1865 1.327 . S
C1867 C1883 1.429 . S
C1867 H1889 0.950 . S
C1868 H1864 0.949 . S
C1868 C1876 1.574 . S
C1868 C1884 1.368 . S
H1869 C1877 0.950 . S
H1870 C1875 0.950 . S
H1871 C1876 0.949 . S
H1872 C1878 0.950 . S
H1873 C1879 0.950 . S
H1874 C1880 0.949 . S
C1875 H1870 0.950 . S
C1875 C1877 1.327 . S
C1875 C1881 1.429 . S
C1876 C1868 1.574 . S
C1876 H1871 0.949 . S
C1876 C1882 1.368 . S
C1877 C1861 1.349 . S
C1877 H1869 0.950 . S
C1877 C1875 1.327 . S
C1878 C1866 1.349 . S
C1878 H1872 0.950 . S
C1878 C1879 1.327 . S
C1879 H1873 0.950 . S
C1879 C1878 1.327 . S
C1879 C1883 1.429 . S
C1880 C1863 1.574 . S
C1880 H1874 0.949 . S
C1880 C1884 1.368 . S
C1881 C1862 1.429 . S
C1881 C1875 1.429 . S
C1881 C1882 1.523 . S
C1882 C1863 1.368 . S
C1882 C1876 1.368 . S
C1882 C1881 1.523 . S
C1883 C1867 1.429 . S
C1883 C1879 1.429 . S
C1883 C1884 1.523 . S
C1884 C1868 1.368 . S
C1884 C1880 1.368 . S
C1884 C1883 1.523 . S
H1885 C1860 0.950 . S
H1886 C1862 0.950 . S
H1887 C1863 0.949 . S
H1888 C1865 0.950 . S
H1889 C1867 0.950 . S
C1890 C1891 1.349 . S
C1890 C1892 1.327 . S
C1890 H1915 0.950 . S
C1891 C1890 1.349 . S
C1891 C1907 1.349 . S
C1892 C1890 1.327 . S
C1892 C1911 1.429 . S
C1892 H1916 0.950 . S
C1893 C1910 1.574 . S
C1893 C1912 1.368 . S
C1893 H1917 0.949 . S
H1894 C1898 0.949 . S
C1895 C1896 1.349 . S
C1895 C1897 1.327 . S
C1895 H1918 0.950 . S
C1896 C1895 1.349 . S
C1896 C1908 1.349 . S
C1897 C1895 1.327 . S
C1897 C1913 1.429 . S
C1897 H1919 0.950 . S
C1898 H1894 0.949 . S
C1898 C1906 1.574 . S
C1898 C1914 1.368 . S
H1899 C1907 0.950 . S
H1900 C1905 0.950 . S
H1901 C1906 0.949 . S
H1902 C1908 0.950 . S
H1903 C1909 0.950 . S
H1904 C1910 0.949 . S
C1905 H1900 0.950 . S
C1905 C1907 1.327 . S
C1905 C1911 1.429 . S
C1906 C1898 1.574 . S
C1906 H1901 0.949 . S
C1906 C1912 1.368 . S
C1907 C1891 1.349 . S
C1907 H1899 0.950 . S
C1907 C1905 1.327 . S
C1908 C1896 1.349 . S
C1908 H1902 0.950 . S
C1908 C1909 1.327 . S
C1909 H1903 0.950 . S
C1909 C1908 1.327 . S
C1909 C1913 1.429 . S
C1910 C1893 1.574 . S
C1910 H1904 0.949 . S
C1910 C1914 1.368 . S
C1911 C1892 1.429 . S
C1911 C1905 1.429 . S
C1911 C1912 1.523 1_565 S
C1912 C1893 1.368 . S
C1912 C1906 1.368 . S
C1912 C1911 1.523 1_545 S
C1913 C1897 1.429 . S
C1913 C1909 1.429 . S
C1913 C1914 1.523 . S
C1914 C1898 1.368 . S
C1914 C1910 1.368 . S
C1914 C1913 1.523 . S
H1915 C1890 0.950 . S
H1916 C1892 0.950 . S
H1917 C1893 0.949 . S
H1918 C1895 0.950 . S
H1919 C1897 0.950 . S
C1920 C1921 1.349 . S
C1920 C1922 1.327 1_455 S
C1920 H1945 0.950 . S
C1921 C1920 1.349 . S
C1921 C1937 1.349 . S
C1922 C1920 1.327 1_655 S
C1922 C1941 1.429 . S
C1922 H1946 0.950 . S
C1923 C1940 1.574 . S
C1923 C1942 1.368 . S
C1923 H1947 0.949 . S
H1924 C1928 0.949 . S
C1925 C1926 1.349 . S
C1925 C1927 1.327 . S
C1925 H1948 0.950 . S
C1926 C1925 1.349 . S
C1926 C1938 1.349 . S
C1927 C1925 1.327 . S
C1927 C1943 1.429 . S
C1927 H1949 0.950 . S
C1928 H1924 0.949 . S
C1928 C1936 1.574 . S
C1928 C1944 1.368 . S
H1929 C1937 0.950 . S
H1930 C1935 0.958 . S
H1931 C1936 0.949 . S
H1932 C1938 0.950 . S
H1933 C1939 0.950 . S
H1934 C1940 0.949 . S
C1935 H1930 0.958 . S
C1935 C1937 1.327 . S
C1935 C1941 1.429 1_455 S
C1936 C1928 1.574 . S
C1936 H1931 0.949 . S
C1936 C1942 1.368 . S
C1937 C1921 1.349 . S
C1937 H1929 0.950 . S
C1937 C1935 1.327 . S
C1938 C1926 1.349 . S
C1938 H1932 0.950 . S
C1938 C1939 1.327 . S
C1939 H1933 0.950 . S
C1939 C1938 1.327 . S
C1939 C1943 1.429 . S
C1940 C1923 1.574 . S
C1940 H1934 0.949 . S
C1940 C1944 1.368 . S
C1941 C1922 1.429 . S
C1941 C1935 1.429 1_655 S
C1941 C1942 1.523 . S
C1942 C1923 1.368 . S
C1942 C1936 1.368 . S
C1942 C1941 1.523 . S
C1943 C1927 1.429 . S
C1943 C1939 1.429 . S
C1943 C1944 1.523 . S
C1944 C1928 1.368 . S
C1944 C1940 1.368 . S
C1944 C1943 1.523 . S
H1945 C1920 0.950 . S
H1946 C1922 0.950 . S
H1947 C1923 0.949 . S
H1948 C1925 0.950 . S
H1949 C1927 0.950 . S
C1950 C1951 1.349 . S
C1950 C1952 1.327 . S
C1950 H1975 0.950 . S
C1951 C1950 1.349 . S
C1951 C1967 1.349 . S
C1952 C1950 1.327 . S
C1952 C1971 1.429 . S
C1952 H1976 0.950 . S
C1953 C1970 1.574 . S
C1953 C1972 1.368 . S
C1953 H1977 0.949 . S
H1954 C1958 0.949 . S
C1955 C1956 1.349 . S
C1955 C1957 1.327 . S
C1955 H1978 0.950 . S
C1956 C1955 1.349 . S
C1956 C1968 1.349 . S
C1957 C1955 1.327 . S
C1957 C1973 1.429 . S
C1957 H1979 0.950 . S
C1958 H1954 0.949 . S
C1958 C1966 1.574 . S
C1958 C1974 1.368 . S
H1959 C1967 0.950 . S
H1960 C1965 0.950 . S
H1961 C1966 0.949 . S
H1962 C1968 0.950 . S
H1963 C1969 0.950 . S
H1964 C1970 0.949 . S
C1965 H1960 0.950 . S
C1965 C1967 1.327 . S
C1965 C1971 1.429 . S
C1966 C1958 1.574 . S
C1966 H1961 0.949 . S
C1966 C1972 1.368 . S
C1967 C1951 1.349 . S
C1967 H1959 0.950 . S
C1967 C1965 1.327 . S
C1968 C1956 1.349 . S
C1968 H1962 0.950 . S
C1968 C1969 1.327 . S
C1969 H1963 0.950 . S
C1969 C1968 1.327 . S
C1969 C1973 1.429 . S
C1970 C1953 1.574 . S
C1970 H1964 0.949 . S
C1970 C1974 1.368 . S
C1971 C1952 1.429 . S
C1971 C1965 1.429 . S
C1971 C1972 1.523 . S
C1972 C1953 1.368 . S
C1972 C1966 1.368 . S
C1972 C1971 1.523 . S
C1973 C1957 1.429 . S
C1973 C1969 1.429 . S
C1973 C1974 1.523 . S
C1974 C1958 1.368 . S
C1974 C1970 1.368 . S
C1974 C1973 1.523 . S
H1975 C1950 0.950 . S
H1976 C1952 0.950 . S
H1977 C1953 0.949 . S
H1978 C1955 0.950 . S
H1979 C1957 0.950 . S
C1980 C1981 1.349 . S
C1980 C1982 1.339 . S
C1980 H2005 0.950 . S
C1981 C1980 1.349 . S
C1981 C1997 1.349 . S
C1982 C1980 1.339 . S
C1982 C2001 1.426 1_455 S
C1982 H2006 0.940 1_455 S
C1983 C2000 1.574 . S
C1983 C2002 1.368 . S
C1983 H2007 0.949 . S
H1984 C1988 0.949 . S
C1985 C1986 1.349 . S
C1985 C1987 1.327 . S
C1985 H2008 0.950 . S
C1986 C1985 1.349 . S
C1986 C1998 1.349 . S
C1987 C1985 1.327 . S
C1987 C2003 1.429 . S
C1987 H2009 0.950 . S
C1988 H1984 0.949 . S
C1988 C1996 1.574 . S
C1988 C2004 1.368 . S
H1989 C1997 0.950 . S
H1990 C1995 0.950 . S
H1991 C1996 0.949 . S
H1992 C1998 0.950 . S
H1993 C1999 0.950 . S
H1994 C2000 0.949 . S
C1995 H1990 0.950 . S
C1995 C1997 1.327 . S
C1995 C2001 1.429 1_455 S
C1996 C1988 1.574 . S
C1996 H1991 0.949 . S
C1996 C2002 1.368 . S
C1997 C1981 1.349 . S
C1997 H1989 0.950 . S
C1997 C1995 1.327 . S
C1998 C1986 1.349 . S
C1998 H1992 0.950 . S
C1998 C1999 1.327 . S
C1999 H1993 0.950 . S
C1999 C1998 1.327 . S
C1999 C2003 1.429 . S
C2000 C1983 1.574 . S
C2000 H1994 0.949 . S
C2000 C2004 1.368 . S
C2001 C1982 1.426 1_655 S
C2001 C1995 1.429 1_655 S
C2001 C2002 1.523 . S
C2002 C1983 1.368 . S
C2002 C1996 1.368 . S
C2002 C2001 1.523 . S
C2003 C1987 1.429 . S
C2003 C1999 1.429 . S
C2003 C2004 1.523 . S
C2004 C1988 1.368 . S
C2004 C2000 1.368 . S
C2004 C2003 1.523 . S
H2005 C1980 0.950 . S
H2006 C1982 0.940 1_655 S
H2007 C1983 0.949 . S
H2008 C1985 0.950 . S
H2009 C1987 0.950 . S
C2010 C2011 1.349 . S
C2010 C2012 1.327 . S
C2010 H2035 0.950 . S
C2011 C2010 1.349 . S
C2011 C2027 1.349 . S
C2012 C2010 1.327 . S
C2012 C2031 1.429 . S
C2012 H2036 0.950 . S
C2013 C2030 1.574 . S
C2013 C2032 1.368 . S
C2013 H2037 0.949 . S
H2014 C2018 0.949 . S
C2015 C2016 1.349 . S
C2015 C2017 1.327 . S
C2015 H2038 0.950 . S
C2016 C2015 1.349 . S
C2016 C2028 1.349 . S
C2017 C2015 1.327 . S
C2017 C2033 1.429 . S
C2017 H2039 0.950 . S
C2018 H2014 0.949 . S
C2018 C2026 1.574 . S
C2018 C2034 1.368 . S
H2019 C2027 0.950 . S
H2020 C2025 0.950 . S
H2021 C2026 0.949 . S
H2022 C2028 0.950 . S
H2023 C2029 0.950 . S
H2024 C2030 0.949 . S
C2025 H2020 0.950 . S
C2025 C2027 1.327 . S
C2025 C2031 1.429 . S
C2026 C2018 1.574 . S
C2026 H2021 0.949 . S
C2026 C2032 1.368 . S
C2027 C2011 1.349 . S
C2027 H2019 0.950 . S
C2027 C2025 1.327 . S
C2028 C2016 1.349 . S
C2028 H2022 0.950 . S
C2028 C2029 1.327 . S
C2029 H2023 0.950 . S
C2029 C2028 1.327 . S
C2029 C2033 1.429 . S
C2030 C2013 1.574 . S
C2030 H2024 0.949 . S
C2030 C2034 1.368 . S
C2031 C2012 1.429 . S
C2031 C2025 1.429 . S
C2031 C2032 1.523 . S
C2032 C2013 1.368 . S
C2032 C2026 1.368 . S
C2032 C2031 1.523 . S
C2033 C2017 1.429 . S
C2033 C2029 1.429 . S
C2033 C2034 1.523 . S
C2034 C2018 1.368 . S
C2034 C2030 1.368 . S
C2034 C2033 1.523 . S
H2035 C2010 0.950 . S
H2036 C2012 0.950 . S
H2037 C2013 0.949 . S
H2038 C2015 0.950 . S
H2039 C2017 0.950 . S
C2040 C2041 1.349 . S
C2040 C2042 1.327 . S
C2040 H2065 0.950 . S
C2041 C2040 1.349 . S
C2041 C2057 1.349 . S
C2042 C2040 1.327 . S
C2042 C2061 1.429 . S
C2042 H2066 0.950 . S
C2043 C2060 1.574 . S
C2043 C2062 1.368 . S
C2043 H2067 0.949 . S
H2044 C2048 0.949 . S
C2045 C2046 1.349 . S
C2045 C2047 1.327 . S
C2045 H2068 0.950 . S
C2046 C2045 1.349 . S
C2046 C2058 1.349 . S
C2047 C2045 1.327 . S
C2047 C2063 1.429 . S
C2047 H2069 0.950 . S
C2048 H2044 0.949 . S
C2048 C2056 1.574 . S
C2048 C2064 1.368 . S
H2049 C2057 0.950 . S
H2050 C2055 0.950 . S
H2051 C2056 0.949 . S
H2052 C2058 0.950 . S
H2053 C2059 0.950 . S
H2054 C2060 0.949 . S
C2055 H2050 0.950 . S
C2055 C2057 1.327 . S
C2055 C2061 1.429 . S
C2056 C2048 1.574 . S
C2056 H2051 0.949 . S
C2056 C2062 1.368 . S
C2057 C2041 1.349 . S
C2057 H2049 0.950 . S
C2057 C2055 1.327 . S
C2058 C2046 1.349 . S
C2058 H2052 0.950 . S
C2058 C2059 1.327 . S
C2059 H2053 0.950 . S
C2059 C2058 1.327 . S
C2059 C2063 1.429 . S
C2060 C2043 1.574 . S
C2060 H2054 0.949 . S
C2060 C2064 1.368 . S
C2061 C2042 1.429 . S
C2061 C2055 1.429 . S
C2061 C2062 1.523 1_565 S
C2062 C2043 1.368 . S
C2062 C2056 1.368 . S
C2062 C2061 1.523 1_545 S
C2063 C2047 1.429 . S
C2063 C2059 1.429 . S
C2063 C2064 1.523 . S
C2064 C2048 1.368 . S
C2064 C2060 1.368 . S
C2064 C2063 1.523 . S
H2065 C2040 0.950 . S
H2066 C2042 0.950 . S
H2067 C2043 0.949 . S
H2068 C2045 0.950 . S
H2069 C2047 0.950 . S
C2070 C2071 1.349 . S
C2070 C2072 1.327 . S
C2070 H2095 0.950 . S
C2071 C2070 1.349 . S
C2071 C2087 1.349 . S
C2072 C2070 1.327 . S
C2072 C2091 1.429 . S
C2072 H2096 0.950 . S
C2073 C2090 1.574 . S
C2073 C2092 1.368 . S
C2073 H2097 0.949 . S
H2074 C2078 0.949 . S
C2075 C2076 1.349 . S
C2075 C2077 1.327 . S
C2075 H2098 0.950 . S
C2076 C2075 1.349 . S
C2076 C2088 1.349 . S
C2077 C2075 1.327 . S
C2077 C2093 1.429 . S
C2077 H2099 0.950 . S
C2078 H2074 0.949 . S
C2078 C2086 1.574 . S
C2078 C2094 1.368 . S
H2079 C2087 0.950 . S
H2080 C2085 0.950 . S
H2081 C2086 0.949 . S
H2082 C2088 0.950 . S
H2083 C2089 0.950 . S
H2084 C2090 0.949 . S
C2085 H2080 0.950 . S
C2085 C2087 1.327 . S
C2085 C2091 1.429 . S
C2086 C2078 1.574 . S
C2086 H2081 0.949 . S
C2086 C2092 1.368 . S
C2087 C2071 1.349 . S
C2087 H2079 0.950 . S
C2087 C2085 1.327 . S
C2088 C2076 1.349 . S
C2088 H2082 0.950 . S
C2088 C2089 1.327 . S
C2089 H2083 0.950 . S
C2089 C2088 1.327 . S
C2089 C2093 1.429 . S
C2090 C2073 1.574 . S
C2090 H2084 0.949 . S
C2090 C2094 1.368 . S
C2091 C2072 1.429 . S
C2091 C2085 1.429 . S
C2091 C2092 1.523 . S
C2092 C2073 1.368 . S
C2092 C2086 1.368 . S
C2092 C2091 1.523 . S
C2093 C2077 1.429 . S
C2093 C2089 1.429 . S
C2093 C2094 1.523 . S
C2094 C2078 1.368 . S
C2094 C2090 1.368 . S
C2094 C2093 1.523 . S
H2095 C2070 0.950 . S
H2096 C2072 0.950 . S
H2097 C2073 0.949 . S
H2098 C2075 0.950 . S
H2099 C2077 0.950 . S
C2100 C2101 1.349 . S
C2100 C2102 1.327 . S
C2100 H2125 0.950 . S
C2101 C2100 1.349 . S
C2101 C2117 1.349 . S
C2102 C2100 1.327 . S
C2102 C2121 1.429 . S
C2102 H2126 0.950 . S
C2103 C2120 1.574 . S
C2103 C2122 1.368 . S
C2103 H2127 0.949 . S
H2104 C2108 0.949 . S
C2105 C2106 1.349 . S
C2105 C2107 1.327 . S
C2105 H2128 0.950 . S
C2106 C2105 1.349 . S
C2106 C2118 1.349 . S
C2107 C2105 1.327 . S
C2107 C2123 1.429 . S
C2107 H2129 0.950 . S
C2108 H2104 0.949 . S
C2108 C2116 1.574 . S
C2108 C2124 1.368 . S
H2109 C2117 0.950 . S
H2110 C2115 0.950 . S
H2111 C2116 0.949 . S
H2112 C2118 0.950 . S
H2113 C2119 0.950 . S
H2114 C2120 0.949 . S
C2115 H2110 0.950 . S
C2115 C2117 1.327 . S
C2115 C2121 1.429 . S
C2116 C2108 1.574 . S
C2116 H2111 0.949 . S
C2116 C2122 1.368 . S
C2117 C2101 1.349 . S
C2117 H2109 0.950 . S
C2117 C2115 1.327 . S
C2118 C2106 1.349 . S
C2118 H2112 0.950 . S
C2118 C2119 1.327 . S
C2119 H2113 0.950 . S
C2119 C2118 1.327 . S
C2119 C2123 1.429 . S
C2120 C2103 1.574 . S
C2120 H2114 0.949 . S
C2120 C2124 1.368 . S
C2121 C2102 1.429 . S
C2121 C2115 1.429 . S
C2121 C2122 1.523 . S
C2122 C2103 1.368 . S
C2122 C2116 1.368 . S
C2122 C2121 1.523 . S
C2123 C2107 1.429 . S
C2123 C2119 1.429 . S
C2123 C2124 1.523 . S
C2124 C2108 1.368 . S
C2124 C2120 1.368 . S
C2124 C2123 1.523 . S
H2125 C2100 0.950 . S
H2126 C2102 0.950 . S
H2127 C2103 0.949 . S
H2128 C2105 0.950 . S
H2129 C2107 0.950 . S
C2130 C2131 1.349 . S
C2130 C2132 1.327 . S
C2130 H2155 0.950 . S
C2131 C2130 1.349 . S
C2131 C2147 1.349 . S
C2132 C2130 1.327 . S
C2132 C2151 1.429 . S
C2132 H2156 0.950 . S
C2133 C2150 1.574 . S
C2133 C2152 1.368 . S
C2133 H2157 0.949 . S
H2134 C2138 0.949 . S
C2135 C2136 1.349 . S
C2135 C2137 1.327 . S
C2135 H2158 0.950 . S
C2136 C2135 1.349 . S
C2136 C2148 1.349 . S
C2137 C2135 1.327 . S
C2137 C2153 1.429 . S
C2137 H2159 0.950 . S
C2138 H2134 0.949 . S
C2138 C2146 1.574 . S
C2138 C2154 1.368 . S
H2139 C2147 0.950 . S
H2140 C2145 0.950 . S
H2141 C2146 0.949 . S
H2142 C2148 0.950 . S
H2143 C2149 0.950 . S
H2144 C2150 0.949 . S
C2145 H2140 0.950 . S
C2145 C2147 1.327 . S
C2145 C2151 1.429 . S
C2146 C2138 1.574 . S
C2146 H2141 0.949 . S
C2146 C2152 1.368 . S
C2147 C2131 1.349 . S
C2147 H2139 0.950 . S
C2147 C2145 1.327 . S
C2148 C2136 1.349 . S
C2148 H2142 0.950 . S
C2148 C2149 1.327 . S
C2149 H2143 0.950 . S
C2149 C2148 1.327 . S
C2149 C2153 1.429 . S
C2150 C2133 1.574 . S
C2150 H2144 0.949 . S
C2150 C2154 1.368 . S
C2151 C2132 1.429 . S
C2151 C2145 1.429 . S
C2151 C2152 1.523 . S
C2152 C2133 1.368 . S
C2152 C2146 1.368 . S
C2152 C2151 1.523 . S
C2153 C2137 1.429 . S
C2153 C2149 1.429 . S
C2153 C2154 1.523 . S
C2154 C2138 1.368 . S
C2154 C2150 1.368 . S
C2154 C2153 1.523 . S
H2155 C2130 0.950 . S
H2156 C2132 0.950 . S
H2157 C2133 0.949 . S
H2158 C2135 0.950 . S
H2159 C2137 0.950 . S
C2160 C2161 1.349 . S
C2160 C2162 1.327 . S
C2160 H2185 0.950 . S
C2161 C2160 1.349 . S
C2161 C2177 1.349 . S
C2162 C2160 1.327 . S
C2162 C2181 1.429 . S
C2162 H2186 0.950 . S
C2163 C2180 1.574 . S
C2163 C2182 1.368 . S
C2163 H2187 0.949 . S
H2164 C2168 0.963 . S
C2165 C2166 1.349 . S
C2165 C2167 1.327 . S
C2165 H2188 0.950 . S
C2166 C2165 1.349 . S
C2166 C2178 1.345 1_565 S
C2167 C2165 1.327 . S
C2167 C2183 1.429 . S
C2167 H2189 0.950 . S
C2168 H2164 0.963 . S
C2168 C2176 1.574 . S
C2168 C2184 1.368 . S
H2169 C2177 0.950 . S
H2170 C2175 0.950 . S
H2171 C2176 0.949 . S
H2172 C2178 0.958 . S
H2173 C2179 0.950 1_545 S
H2174 C2180 0.949 . S
C2175 H2170 0.950 . S
C2175 C2177 1.327 . S
C2175 C2181 1.429 . S
C2176 C2168 1.574 . S
C2176 H2171 0.949 . S
C2176 C2182 1.368 . S
C2177 C2161 1.349 . S
C2177 H2169 0.950 . S
C2177 C2175 1.327 . S
C2178 C2166 1.345 1_545 S
C2178 H2172 0.958 . S
C2178 C2179 1.323 1_545 S
C2179 H2173 0.950 1_565 S
C2179 C2178 1.323 1_565 S
C2179 C2183 1.429 . S
C2180 C2163 1.574 . S
C2180 H2174 0.949 . S
C2180 C2184 1.368 . S
C2181 C2162 1.429 . S
C2181 C2175 1.429 . S
C2181 C2182 1.523 . S
C2182 C2163 1.368 . S
C2182 C2176 1.368 . S
C2182 C2181 1.523 . S
C2183 C2167 1.429 . S
C2183 C2179 1.429 . S
C2183 C2184 1.523 . S
C2184 C2168 1.368 . S
C2184 C2180 1.368 . S
C2184 C2183 1.523 . S
H2185 C2160 0.950 . S
H2186 C2162 0.950 . S
H2187 C2163 0.949 . S
H2188 C2165 0.950 . S
H2189 C2167 0.950 . S
C2190 C2191 1.349 . S
C2190 C2192 1.327 . S
C2190 H2215 0.950 . S
C2191 C2190 1.349 . S
C2191 C2207 1.349 1_455 S
C2192 C2190 1.327 . S
C2192 C2211 1.429 . S
C2192 H2216 0.950 . S
C2193 C2210 1.574 . S
C2193 C2212 1.368 1_655 S
C2193 H2217 0.949 . S
H2194 C2198 0.949 . S
C2195 C2196 1.349 1_655 S
C2195 C2197 1.327 . S
C2195 H2218 0.950 . S
C2196 C2195 1.349 1_455 S
C2196 C2208 1.349 . S
C2197 C2195 1.327 . S
C2197 C2213 1.429 1_655 S
C2197 H2219 0.950 . S
C2198 H2194 0.949 . S
C2198 C2206 1.574 . S
C2198 C2214 1.368 . S
H2199 C2207 0.950 . S
H2200 C2205 0.950 . S
H2201 C2206 0.949 . S
H2202 C2208 0.950 . S
H2203 C2209 0.950 . S
H2204 C2210 0.949 . S
C2205 H2200 0.950 . S
C2205 C2207 1.327 . S
C2205 C2211 1.429 1_655 S
C2206 C2198 1.574 . S
C2206 H2201 0.949 . S
C2206 C2212 1.368 . S
C2207 C2191 1.349 1_655 S
C2207 H2199 0.950 . S
C2207 C2205 1.327 . S
C2208 C2196 1.349 . S
C2208 H2202 0.950 . S
C2208 C2209 1.327 . S
C2209 H2203 0.950 . S
C2209 C2208 1.327 . S
C2209 C2213 1.429 . S
C2210 C2193 1.574 . S
C2210 H2204 0.949 . S
C2210 C2214 1.368 1_655 S
C2211 C2192 1.429 . S
C2211 C2205 1.429 1_455 S
C2211 C2212 1.523 . S
C2212 C2193 1.368 1_455 S
C2212 C2206 1.368 . S
C2212 C2211 1.523 . S
C2213 C2197 1.429 1_455 S
C2213 C2209 1.429 . S
C2213 C2214 1.523 . S
C2214 C2198 1.368 . S
C2214 C2210 1.368 1_455 S
C2214 C2213 1.523 . S
H2215 C2190 0.950 . S
H2216 C2192 0.950 . S
H2217 C2193 0.949 . S
H2218 C2195 0.950 . S
H2219 C2197 0.950 . S
C2220 C2221 1.349 . S
C2220 C2222 1.327 . S
C2220 H2245 0.950 . S
C2221 C2220 1.349 . S
C2221 C2237 1.349 . S
C2222 C2220 1.327 . S
C2222 C2241 1.429 . S
C2222 H2246 0.950 . S
C2223 C2240 1.574 . S
C2223 C2242 1.368 . S
C2223 H2247 0.949 . S
H2224 C2228 0.949 . S
C2225 C2226 1.349 . S
C2225 C2227 1.327 . S
C2225 H2248 0.950 . S
C2226 C2225 1.349 . S
C2226 C2238 1.349 . S
C2227 C2225 1.327 . S
C2227 C2243 1.429 . S
C2227 H2249 0.950 . S
C2228 H2224 0.949 . S
C2228 C2236 1.574 . S
C2228 C2244 1.368 . S
H2229 C2237 0.950 . S
H2230 C2235 0.950 . S
H2231 C2236 0.949 . S
H2232 C2238 0.950 . S
H2233 C2239 0.950 . S
H2234 C2240 0.949 . S
C2235 H2230 0.950 . S
C2235 C2237 1.327 . S
C2235 C2241 1.429 . S
C2236 C2228 1.574 . S
C2236 H2231 0.949 . S
C2236 C2242 1.368 . S
C2237 C2221 1.349 . S
C2237 H2229 0.950 . S
C2237 C2235 1.327 . S
C2238 C2226 1.349 . S
C2238 H2232 0.950 . S
C2238 C2239 1.327 . S
C2239 H2233 0.950 . S
C2239 C2238 1.327 . S
C2239 C2243 1.429 . S
C2240 C2223 1.574 . S
C2240 H2234 0.949 . S
C2240 C2244 1.368 . S
C2241 C2222 1.429 . S
C2241 C2235 1.429 . S
C2241 C2242 1.523 . S
C2242 C2223 1.368 . S
C2242 C2236 1.368 . S
C2242 C2241 1.523 . S
C2243 C2227 1.429 . S
C2243 C2239 1.429 . S
C2243 C2244 1.523 . S
C2244 C2228 1.368 . S
C2244 C2240 1.368 . S
C2244 C2243 1.523 . S
H2245 C2220 0.950 . S
H2246 C2222 0.950 . S
H2247 C2223 0.949 . S
H2248 C2225 0.950 . S
H2249 C2227 0.950 . S
C2250 C2251 1.349 . S
C2250 C2252 1.327 . S
C2250 H2275 0.950 . S
C2251 C2250 1.349 . S
C2251 C2267 1.349 . S
C2252 C2250 1.327 . S
C2252 C2271 1.429 . S
C2252 H2276 0.950 . S
C2253 C2270 1.574 . S
C2253 C2272 1.368 . S
C2253 H2277 0.949 . S
H2254 C2258 0.949 . S
C2255 C2256 1.349 . S
C2255 C2257 1.327 . S
C2255 H2278 0.950 . S
C2256 C2255 1.349 . S
C2256 C2268 1.349 . S
C2257 C2255 1.327 . S
C2257 C2273 1.429 . S
C2257 H2279 0.950 . S
C2258 H2254 0.949 . S
C2258 C2266 1.574 . S
C2258 C2274 1.368 . S
H2259 C2267 0.950 . S
H2260 C2265 0.950 . S
H2261 C2266 0.949 . S
H2262 C2268 0.950 . S
H2263 C2269 0.950 . S
H2264 C2270 0.949 . S
C2265 H2260 0.950 . S
C2265 C2267 1.327 . S
C2265 C2271 1.429 . S
C2266 C2258 1.574 . S
C2266 H2261 0.949 . S
C2266 C2272 1.368 . S
C2267 C2251 1.349 . S
C2267 H2259 0.950 . S
C2267 C2265 1.327 . S
C2268 C2256 1.349 . S
C2268 H2262 0.950 . S
C2268 C2269 1.327 . S
C2269 H2263 0.950 . S
C2269 C2268 1.327 . S
C2269 C2273 1.429 . S
C2270 C2253 1.574 . S
C2270 H2264 0.949 . S
C2270 C2274 1.368 . S
C2271 C2252 1.429 . S
C2271 C2265 1.429 . S
C2271 C2272 1.523 . S
C2272 C2253 1.368 . S
C2272 C2266 1.368 . S
C2272 C2271 1.523 . S
C2273 C2257 1.429 . S
C2273 C2269 1.429 . S
C2273 C2274 1.523 . S
C2274 C2258 1.368 . S
C2274 C2270 1.368 . S
C2274 C2273 1.523 . S
H2275 C2250 0.950 . S
H2276 C2252 0.950 . S
H2277 C2253 0.949 . S
H2278 C2255 0.950 . S
H2279 C2257 0.950 . S
C2280 C2281 1.349 . S
C2280 C2282 1.327 . S
C2280 H2305 0.950 . S
C2281 C2280 1.349 . S
C2281 C2297 1.349 . S
C2282 C2280 1.327 . S
C2282 C2301 1.429 . S
C2282 H2306 0.950 . S
C2283 C2300 1.574 . S
C2283 C2302 1.368 . S
C2283 H2307 0.949 . S
H2284 C2288 0.949 . S
C2285 C2286 1.349 . S
C2285 C2287 1.327 . S
C2285 H2308 0.950 . S
C2286 C2285 1.349 . S
C2286 C2298 1.349 . S
C2287 C2285 1.327 . S
C2287 C2303 1.429 . S
C2287 H2309 0.950 . S
C2288 H2284 0.949 . S
C2288 C2296 1.574 . S
C2288 C2304 1.368 . S
H2289 C2297 0.950 . S
H2290 C2295 0.950 . S
H2291 C2296 0.949 . S
H2292 C2298 0.950 . S
H2293 C2299 0.950 . S
H2294 C2300 0.949 . S
C2295 H2290 0.950 . S
C2295 C2297 1.327 . S
C2295 C2301 1.429 . S
C2296 C2288 1.574 . S
C2296 H2291 0.949 . S
C2296 C2302 1.368 . S
C2297 C2281 1.349 . S
C2297 H2289 0.950 . S
C2297 C2295 1.327 . S
C2298 C2286 1.349 . S
C2298 H2292 0.950 . S
C2298 C2299 1.327 . S
C2299 H2293 0.950 . S
C2299 C2298 1.327 . S
C2299 C2303 1.429 . S
C2300 C2283 1.574 . S
C2300 H2294 0.949 . S
C2300 C2304 1.368 . S
C2301 C2282 1.429 . S
C2301 C2295 1.429 . S
C2301 C2302 1.523 . S
C2302 C2283 1.368 . S
C2302 C2296 1.368 . S
C2302 C2301 1.523 . S
C2303 C2287 1.429 . S
C2303 C2299 1.429 . S
C2303 C2304 1.523 . S
C2304 C2288 1.368 . S
C2304 C2300 1.368 . S
C2304 C2303 1.523 . S
H2305 C2280 0.950 . S
H2306 C2282 0.950 . S
H2307 C2283 0.949 . S
H2308 C2285 0.950 . S
H2309 C2287 0.950 . S
C2310 C2311 1.349 . S
C2310 C2312 1.327 . S
C2310 H2335 0.950 . S
C2311 C2310 1.349 . S
C2311 C2327 1.349 . S
C2312 C2310 1.327 . S
C2312 C2331 1.429 . S
C2312 H2336 0.950 . S
C2313 C2330 1.574 . S
C2313 C2332 1.368 . S
C2313 H2337 0.949 . S
H2314 C2318 0.949 . S
C2315 C2316 1.349 . S
C2315 C2317 1.327 . S
C2315 H2338 0.950 . S
C2316 C2315 1.349 . S
C2316 C2328 1.349 . S
C2317 C2315 1.327 . S
C2317 C2333 1.429 . S
C2317 H2339 0.950 . S
C2318 H2314 0.949 . S
C2318 C2326 1.574 . S
C2318 C2334 1.368 . S
H2319 C2327 0.950 . S
H2320 C2325 0.950 . S
H2321 C2326 0.949 . S
H2322 C2328 0.950 1_565 S
H2323 C2329 0.950 1_565 S
H2324 C2330 0.949 . S
C2325 H2320 0.950 . S
C2325 C2327 1.327 . S
C2325 C2331 1.429 . S
C2326 C2318 1.574 . S
C2326 H2321 0.949 . S
C2326 C2332 1.368 . S
C2327 C2311 1.349 . S
C2327 H2319 0.950 . S
C2327 C2325 1.327 . S
C2328 C2316 1.349 . S
C2328 H2322 0.950 1_545 S
C2328 C2329 1.327 . S
C2329 H2323 0.950 1_545 S
C2329 C2328 1.327 . S
C2329 C2333 1.429 . S
C2330 C2313 1.574 . S
C2330 H2324 0.949 . S
C2330 C2334 1.368 . S
C2331 C2312 1.429 . S
C2331 C2325 1.429 . S
C2331 C2332 1.523 . S
C2332 C2313 1.368 . S
C2332 C2326 1.368 . S
C2332 C2331 1.523 . S
C2333 C2317 1.429 . S
C2333 C2329 1.429 . S
C2333 C2334 1.523 . S
C2334 C2318 1.368 . S
C2334 C2330 1.368 . S
C2334 C2333 1.523 . S
H2335 C2310 0.950 . S
H2336 C2312 0.950 . S
H2337 C2313 0.949 . S
H2338 C2315 0.950 . S
H2339 C2317 0.950 . S
C2340 C2341 1.349 . S
C2340 C2342 1.327 . S
C2340 H2365 0.950 . S
C2341 C2340 1.349 . S
C2341 C2357 1.349 . S
C2342 C2340 1.327 . S
C2342 C2361 1.429 . S
C2342 H2366 0.950 . S
C2343 C2360 1.574 . S
C2343 C2362 1.368 . S
C2343 H2367 0.949 . S
H2344 C2348 0.949 . S
C2345 C2346 1.349 . S
C2345 C2347 1.327 . S
C2345 H2368 0.950 . S
C2346 C2345 1.349 . S
C2346 C2358 1.349 . S
C2347 C2345 1.327 . S
C2347 C2363 1.429 . S
C2347 H2369 0.950 . S
C2348 H2344 0.949 . S
C2348 C2356 1.574 . S
C2348 C2364 1.368 . S
H2349 C2357 0.950 . S
H2350 C2355 0.950 . S
H2351 C2356 0.949 . S
H2352 C2358 0.950 . S
H2353 C2359 0.950 . S
H2354 C2360 0.949 . S
C2355 H2350 0.950 . S
C2355 C2357 1.327 . S
C2355 C2361 1.429 . S
C2356 C2348 1.574 . S
C2356 H2351 0.949 . S
C2356 C2362 1.368 . S
C2357 C2341 1.349 . S
C2357 H2349 0.950 . S
C2357 C2355 1.327 . S
C2358 C2346 1.349 . S
C2358 H2352 0.950 . S
C2358 C2359 1.327 . S
C2359 H2353 0.950 . S
C2359 C2358 1.327 . S
C2359 C2363 1.429 . S
C2360 C2343 1.574 . S
C2360 H2354 0.949 . S
C2360 C2364 1.368 . S
C2361 C2342 1.429 . S
C2361 C2355 1.429 . S
C2361 C2362 1.523 . S
C2362 C2343 1.368 . S
C2362 C2356 1.368 . S
C2362 C2361 1.523 . S
C2363 C2347 1.429 . S
C2363 C2359 1.429 . S
C2363 C2364 1.523 . S
C2364 C2348 1.368 . S
C2364 C2360 1.368 . S
C2364 C2363 1.523 . S
H2365 C2340 0.950 . S
H2366 C2342 0.950 . S
H2367 C2343 0.949 . S
H2368 C2345 0.950 . S
H2369 C2347 0.950 . S
C2370 C2371 1.349 . S
C2370 C2372 1.327 . S
C2370 H2395 0.950 . S
C2371 C2370 1.349 . S
C2371 C2387 1.349 . S
C2372 C2370 1.327 . S
C2372 C2391 1.429 . S
C2372 H2396 0.950 . S
C2373 C2390 1.574 . S
C2373 C2392 1.368 . S
C2373 H2397 0.949 . S
H2374 C2378 0.949 . S
C2375 C2376 1.349 . S
C2375 C2377 1.327 . S
C2375 H2398 0.950 . S
C2376 C2375 1.349 . S
C2376 C2388 1.349 . S
C2377 C2375 1.327 . S
C2377 C2393 1.429 . S
C2377 H2399 0.950 . S
C2378 H2374 0.949 . S
C2378 C2386 1.574 . S
C2378 C2394 1.368 . S
H2379 C2387 0.950 . S
H2380 C2385 0.950 . S
H2381 C2386 0.949 . S
H2382 C2388 0.950 . S
H2383 C2389 0.950 . S
H2384 C2390 0.949 . S
C2385 H2380 0.950 . S
C2385 C2387 1.327 . S
C2385 C2391 1.429 . S
C2386 C2378 1.574 . S
C2386 H2381 0.949 . S
C2386 C2392 1.368 . S
C2387 C2371 1.349 . S
C2387 H2379 0.950 . S
C2387 C2385 1.327 . S
C2388 C2376 1.349 . S
C2388 H2382 0.950 . S
C2388 C2389 1.327 . S
C2389 H2383 0.950 . S
C2389 C2388 1.327 . S
C2389 C2393 1.429 . S
C2390 C2373 1.574 . S
C2390 H2384 0.949 . S
C2390 C2394 1.368 . S
C2391 C2372 1.429 . S
C2391 C2385 1.429 . S
C2391 C2392 1.523 . S
C2392 C2373 1.368 . S
C2392 C2386 1.368 . S
C2392 C2391 1.523 . S
C2393 C2377 1.429 . S
C2393 C2389 1.429 . S
C2393 C2394 1.523 . S
C2394 C2378 1.368 . S
C2394 C2390 1.368 . S
C2394 C2393 1.523 . S
H2395 C2370 0.950 . S
H2396 C2372 0.950 . S
H2397 C2373 0.949 . S
H2398 C2375 0.950 . S
H2399 C2377 0.950 . S
C2400 C2401 1.349 . S
C2400 C2402 1.327 . S
C2400 H2425 0.950 . S
C2401 C2400 1.349 . S
C2401 C2417 1.349 . S
C2402 C2400 1.327 . S
C2402 C2421 1.429 . S
C2402 H2426 0.950 . S
C2403 C2420 1.574 . S
C2403 C2422 1.368 . S
C2403 H2427 0.949 . S
H2404 C2408 0.949 . S
C2405 C2406 1.349 . S
C2405 C2407 1.327 . S
C2405 H2428 0.950 . S
C2406 C2405 1.349 . S
C2406 C2418 1.349 . S
C2407 C2405 1.327 . S
C2407 C2423 1.429 . S
C2407 H2429 0.950 . S
C2408 H2404 0.949 . S
C2408 C2416 1.574 . S
C2408 C2424 1.368 . S
H2409 C2417 0.950 . S
H2410 C2415 0.950 . S
H2411 C2416 0.949 . S
H2412 C2418 0.950 . S
H2413 C2419 0.950 . S
H2414 C2420 0.949 . S
C2415 H2410 0.950 . S
C2415 C2417 1.327 . S
C2415 C2421 1.429 . S
C2416 C2408 1.574 . S
C2416 H2411 0.949 . S
C2416 C2422 1.368 . S
C2417 C2401 1.349 . S
C2417 H2409 0.950 . S
C2417 C2415 1.327 . S
C2418 C2406 1.349 . S
C2418 H2412 0.950 . S
C2418 C2419 1.327 . S
C2419 H2413 0.950 . S
C2419 C2418 1.327 . S
C2419 C2423 1.429 . S
C2420 C2403 1.574 . S
C2420 H2414 0.949 . S
C2420 C2424 1.368 . S
C2421 C2402 1.429 . S
C2421 C2415 1.429 . S
C2421 C2422 1.523 . S
C2422 C2403 1.368 . S
C2422 C2416 1.368 . S
C2422 C2421 1.523 . S
C2423 C2407 1.429 . S
C2423 C2419 1.429 . S
C2423 C2424 1.523 . S
C2424 C2408 1.368 . S
C2424 C2420 1.368 . S
C2424 C2423 1.523 . S
H2425 C2400 0.950 . S
H2426 C2402 0.950 . S
H2427 C2403 0.949 . S
H2428 C2405 0.950 . S
H2429 C2407 0.950 . S
C2430 C2431 1.349 . S
C2430 C2432 1.327 . S
C2430 H2455 0.950 . S
C2431 C2430 1.349 . S
C2431 C2447 1.349 . S
C2432 C2430 1.327 . S
C2432 C2451 1.429 . S
C2432 H2456 0.950 . S
C2433 C2450 1.574 . S
C2433 C2452 1.368 . S
C2433 H2457 0.949 . S
H2434 C2438 0.949 . S
C2435 C2436 1.349 . S
C2435 C2437 1.327 . S
C2435 H2458 0.950 . S
C2436 C2435 1.349 . S
C2436 C2448 1.349 . S
C2437 C2435 1.327 . S
C2437 C2453 1.429 . S
C2437 H2459 0.950 . S
C2438 H2434 0.949 . S
C2438 C2446 1.574 . S
C2438 C2454 1.368 . S
H2439 C2447 0.950 . S
H2440 C2445 0.950 . S
H2441 C2446 0.949 . S
H2442 C2448 0.950 . S
H2443 C2449 0.950 . S
H2444 C2450 0.949 . S
C2445 H2440 0.950 . S
C2445 C2447 1.327 . S
C2445 C2451 1.429 . S
C2446 C2438 1.574 . S
C2446 H2441 0.949 . S
C2446 C2452 1.368 . S
C2447 C2431 1.349 . S
C2447 H2439 0.950 . S
C2447 C2445 1.327 . S
C2448 C2436 1.349 . S
C2448 H2442 0.950 . S
C2448 C2449 1.327 . S
C2449 H2443 0.950 . S
C2449 C2448 1.327 . S
C2449 C2453 1.429 . S
C2450 C2433 1.574 . S
C2450 H2444 0.949 . S
C2450 C2454 1.368 . S
C2451 C2432 1.429 . S
C2451 C2445 1.429 . S
C2451 C2452 1.523 . S
C2452 C2433 1.368 . S
C2452 C2446 1.368 . S
C2452 C2451 1.523 . S
C2453 C2437 1.429 . S
C2453 C2449 1.429 . S
C2453 C2454 1.523 . S
C2454 C2438 1.368 . S
C2454 C2450 1.368 . S
C2454 C2453 1.523 . S
H2455 C2430 0.950 . S
H2456 C2432 0.950 . S
H2457 C2433 0.949 . S
H2458 C2435 0.950 . S
H2459 C2437 0.950 . S
C2460 C2461 1.349 . S
C2460 C2462 1.327 . S
C2460 H2485 0.950 . S
C2461 C2460 1.349 . S
C2461 C2477 1.349 . S
C2462 C2460 1.327 . S
C2462 C2481 1.429 . S
C2462 H2486 0.950 . S
C2463 C2480 1.574 . S
C2463 C2482 1.368 . S
C2463 H2487 0.949 . S
H2464 C2468 0.949 . S
C2465 C2466 1.349 . S
C2465 C2467 1.327 . S
C2465 H2488 0.950 . S
C2466 C2465 1.349 . S
C2466 C2478 1.349 . S
C2467 C2465 1.327 . S
C2467 C2483 1.429 . S
C2467 H2489 0.950 . S
C2468 H2464 0.949 . S
C2468 C2476 1.574 . S
C2468 C2484 1.368 . S
H2469 C2477 0.950 . S
H2470 C2475 0.950 . S
H2471 C2476 0.949 . S
H2472 C2478 0.950 . S
H2473 C2479 0.950 . S
H2474 C2480 0.949 . S
C2475 H2470 0.950 . S
C2475 C2477 1.327 . S
C2475 C2481 1.429 . S
C2476 C2468 1.574 . S
C2476 H2471 0.949 . S
C2476 C2482 1.368 . S
C2477 C2461 1.349 . S
C2477 H2469 0.950 . S
C2477 C2475 1.327 . S
C2478 C2466 1.349 . S
C2478 H2472 0.950 . S
C2478 C2479 1.327 . S
C2479 H2473 0.950 . S
C2479 C2478 1.327 . S
C2479 C2483 1.429 . S
C2480 C2463 1.574 . S
C2480 H2474 0.949 . S
C2480 C2484 1.368 . S
C2481 C2462 1.429 . S
C2481 C2475 1.429 . S
C2481 C2482 1.523 . S
C2482 C2463 1.368 . S
C2482 C2476 1.368 . S
C2482 C2481 1.523 . S
C2483 C2467 1.429 . S
C2483 C2479 1.429 . S
C2483 C2484 1.523 . S
C2484 C2468 1.368 . S
C2484 C2480 1.368 . S
C2484 C2483 1.523 . S
H2485 C2460 0.950 . S
H2486 C2462 0.950 . S
H2487 C2463 0.949 . S
H2488 C2465 0.950 . S
H2489 C2467 0.950 . S
C2490 C2491 1.349 . S
C2490 C2492 1.327 . S
C2490 H2515 0.950 . S
C2491 C2490 1.349 . S
C2491 C2507 1.349 . S
C2492 C2490 1.327 . S
C2492 C2511 1.429 . S
C2492 H2516 0.950 . S
C2493 C2510 1.574 . S
C2493 C2512 1.368 . S
C2493 H2517 0.949 . S
H2494 C2498 0.949 . S
C2495 C2496 1.349 . S
C2495 C2497 1.327 . S
C2495 H2518 0.950 . S
C2496 C2495 1.349 . S
C2496 C2508 1.349 . S
C2497 C2495 1.327 . S
C2497 C2513 1.429 . S
C2497 H2519 0.950 . S
C2498 H2494 0.949 . S
C2498 C2506 1.574 . S
C2498 C2514 1.368 . S
H2499 C2507 0.950 . S
H2500 C2505 0.950 . S
H2501 C2506 0.949 . S
H2502 C2508 0.950 . S
H2503 C2509 0.950 . S
H2504 C2510 0.949 . S
C2505 H2500 0.950 . S
C2505 C2507 1.327 . S
C2505 C2511 1.429 . S
C2506 C2498 1.574 . S
C2506 H2501 0.949 . S
C2506 C2512 1.368 . S
C2507 C2491 1.349 . S
C2507 H2499 0.950 . S
C2507 C2505 1.327 . S
C2508 C2496 1.349 . S
C2508 H2502 0.950 . S
C2508 C2509 1.327 . S
C2509 H2503 0.950 . S
C2509 C2508 1.327 . S
C2509 C2513 1.429 . S
C2510 C2493 1.574 . S
C2510 H2504 0.949 . S
C2510 C2514 1.368 . S
C2511 C2492 1.429 . S
C2511 C2505 1.429 . S
C2511 C2512 1.523 . S
C2512 C2493 1.368 . S
C2512 C2506 1.368 . S
C2512 C2511 1.523 . S
C2513 C2497 1.429 . S
C2513 C2509 1.429 . S
C2513 C2514 1.523 . S
C2514 C2498 1.368 . S
C2514 C2510 1.368 . S
C2514 C2513 1.523 . S
H2515 C2490 0.950 . S
H2516 C2492 0.950 . S
H2517 C2493 0.949 . S
H2518 C2495 0.950 . S
H2519 C2497 0.950 . S
C2520 C2521 1.349 . S
C2520 C2522 1.327 . S
C2520 H2545 0.950 . S
C2521 C2520 1.349 . S
C2521 C2537 1.349 . S
C2522 C2520 1.327 . S
C2522 C2541 1.429 . S
C2522 H2546 0.950 . S
C2523 C2540 1.574 . S
C2523 C2542 1.368 . S
C2523 H2547 0.949 . S
H2524 C2528 0.949 . S
C2525 C2526 1.349 . S
C2525 C2527 1.327 . S
C2525 H2548 0.950 . S
C2526 C2525 1.349 . S
C2526 C2538 1.349 . S
C2527 C2525 1.327 . S
C2527 C2543 1.429 . S
C2527 H2549 0.950 . S
C2528 H2524 0.949 . S
C2528 C2536 1.574 . S
C2528 C2544 1.368 . S
H2529 C2537 0.950 . S
H2530 C2535 0.950 . S
H2531 C2536 0.949 . S
H2532 C2538 0.950 . S
H2533 C2539 0.950 . S
H2534 C2540 0.949 . S
C2535 H2530 0.950 . S
C2535 C2537 1.327 . S
C2535 C2541 1.429 . S
C2536 C2528 1.574 . S
C2536 H2531 0.949 . S
C2536 C2542 1.368 . S
C2537 C2521 1.349 . S
C2537 H2529 0.950 . S
C2537 C2535 1.327 . S
C2538 C2526 1.349 . S
C2538 H2532 0.950 . S
C2538 C2539 1.327 . S
C2539 H2533 0.950 . S
C2539 C2538 1.327 . S
C2539 C2543 1.429 . S
C2540 C2523 1.574 . S
C2540 H2534 0.949 . S
C2540 C2544 1.368 . S
C2541 C2522 1.429 . S
C2541 C2535 1.429 . S
C2541 C2542 1.523 . S
C2542 C2523 1.368 . S
C2542 C2536 1.368 . S
C2542 C2541 1.523 . S
C2543 C2527 1.429 . S
C2543 C2539 1.429 . S
C2543 C2544 1.523 . S
C2544 C2528 1.368 . S
C2544 C2540 1.368 . S
C2544 C2543 1.523 . S
H2545 C2520 0.950 . S
H2546 C2522 0.950 . S
H2547 C2523 0.949 . S
H2548 C2525 0.950 . S
H2549 C2527 0.950 . S
C2550 C2551 1.349 . S
C2550 C2552 1.327 . S
C2550 H2575 0.950 . S
C2551 C2550 1.349 . S
C2551 C2567 1.349 . S
C2552 C2550 1.327 . S
C2552 C2571 1.429 . S
C2552 H2576 0.950 . S
C2553 C2570 1.574 . S
C2553 C2572 1.368 . S
C2553 H2577 0.949 . S
H2554 C2558 0.949 . S
C2555 C2556 1.349 . S
C2555 C2557 1.327 . S
C2555 H2578 0.950 . S
C2556 C2555 1.349 . S
C2556 C2568 1.349 . S
C2557 C2555 1.327 . S
C2557 C2573 1.429 . S
C2557 H2579 0.950 . S
C2558 H2554 0.949 . S
C2558 C2566 1.574 . S
C2558 C2574 1.368 . S
H2559 C2567 0.950 . S
H2560 C2565 0.950 . S
H2561 C2566 0.949 . S
H2562 C2568 0.950 . S
H2563 C2569 0.950 . S
H2564 C2570 0.949 . S
C2565 H2560 0.950 . S
C2565 C2567 1.327 . S
C2565 C2571 1.429 . S
C2566 C2558 1.574 . S
C2566 H2561 0.949 . S
C2566 C2572 1.368 . S
C2567 C2551 1.349 . S
C2567 H2559 0.950 . S
C2567 C2565 1.327 . S
C2568 C2556 1.349 . S
C2568 H2562 0.950 . S
C2568 C2569 1.327 . S
C2569 H2563 0.950 . S
C2569 C2568 1.327 . S
C2569 C2573 1.429 . S
C2570 C2553 1.574 . S
C2570 H2564 0.949 . S
C2570 C2574 1.368 . S
C2571 C2552 1.429 . S
C2571 C2565 1.429 . S
C2571 C2572 1.523 . S
C2572 C2553 1.368 . S
C2572 C2566 1.368 . S
C2572 C2571 1.523 . S
C2573 C2557 1.429 . S
C2573 C2569 1.429 . S
C2573 C2574 1.523 . S
C2574 C2558 1.368 . S
C2574 C2570 1.368 . S
C2574 C2573 1.523 . S
H2575 C2550 0.950 . S
H2576 C2552 0.950 . S
H2577 C2553 0.949 . S
H2578 C2555 0.950 . S
H2579 C2557 0.950 . S
C2580 C2581 1.349 . S
C2580 C2582 1.327 . S
C2580 H2605 0.950 . S
C2581 C2580 1.349 . S
C2581 C2597 1.349 . S
C2582 C2580 1.327 . S
C2582 C2601 1.429 . S
C2582 H2606 0.950 . S
C2583 C2600 1.574 . S
C2583 C2602 1.368 . S
C2583 H2607 0.949 . S
H2584 C2588 0.949 . S
C2585 C2586 1.349 . S
C2585 C2587 1.327 . S
C2585 H2608 0.950 . S
C2586 C2585 1.349 . S
C2586 C2598 1.349 . S
C2587 C2585 1.327 . S
C2587 C2603 1.429 . S
C2587 H2609 0.950 . S
C2588 H2584 0.949 . S
C2588 C2596 1.574 . S
C2588 C2604 1.368 . S
H2589 C2597 0.950 . S
H2590 C2595 0.950 . S
H2591 C2596 0.949 . S
H2592 C2598 0.950 . S
H2593 C2599 0.950 . S
H2594 C2600 0.949 . S
C2595 H2590 0.950 . S
C2595 C2597 1.327 . S
C2595 C2601 1.429 . S
C2596 C2588 1.574 . S
C2596 H2591 0.949 . S
C2596 C2602 1.368 . S
C2597 C2581 1.349 . S
C2597 H2589 0.950 . S
C2597 C2595 1.327 . S
C2598 C2586 1.349 . S
C2598 H2592 0.950 . S
C2598 C2599 1.327 . S
C2599 H2593 0.950 . S
C2599 C2598 1.327 . S
C2599 C2603 1.429 . S
C2600 C2583 1.574 . S
C2600 H2594 0.949 . S
C2600 C2604 1.368 . S
C2601 C2582 1.429 . S
C2601 C2595 1.429 . S
C2601 C2602 1.523 . S
C2602 C2583 1.368 . S
C2602 C2596 1.368 . S
C2602 C2601 1.523 . S
C2603 C2587 1.429 . S
C2603 C2599 1.429 . S
C2603 C2604 1.523 . S
C2604 C2588 1.368 . S
C2604 C2600 1.368 . S
C2604 C2603 1.523 . S
H2605 C2580 0.950 . S
H2606 C2582 0.950 . S
H2607 C2583 0.949 . S
H2608 C2585 0.950 . S
H2609 C2587 0.950 . S
C2610 C2611 1.349 . S
C2610 C2612 1.327 . S
C2610 H2635 0.950 . S
C2611 C2610 1.349 . S
C2611 C2627 1.349 . S
C2612 C2610 1.327 . S
C2612 C2631 1.429 . S
C2612 H2636 0.950 . S
C2613 C2630 1.574 . S
C2613 C2632 1.368 . S
C2613 H2637 0.949 . S
H2614 C2618 0.949 . S
C2615 C2616 1.349 . S
C2615 C2617 1.327 . S
C2615 H2638 0.950 . S
C2616 C2615 1.349 . S
C2616 C2628 1.349 . S
C2617 C2615 1.327 . S
C2617 C2633 1.429 . S
C2617 H2639 0.950 . S
C2618 H2614 0.949 . S
C2618 C2626 1.574 . S
C2618 C2634 1.368 . S
H2619 C2627 0.950 . S
H2620 C2625 0.950 . S
H2621 C2626 0.949 . S
H2622 C2628 0.950 . S
H2623 C2629 0.950 . S
H2624 C2630 0.949 . S
C2625 H2620 0.950 . S
C2625 C2627 1.327 . S
C2625 C2631 1.429 . S
C2626 C2618 1.574 . S
C2626 H2621 0.949 . S
C2626 C2632 1.368 . S
C2627 C2611 1.349 . S
C2627 H2619 0.950 . S
C2627 C2625 1.327 . S
C2628 C2616 1.349 . S
C2628 H2622 0.950 . S
C2628 C2629 1.327 . S
C2629 H2623 0.950 . S
C2629 C2628 1.327 . S
C2629 C2633 1.429 . S
C2630 C2613 1.574 . S
C2630 H2624 0.949 . S
C2630 C2634 1.368 . S
C2631 C2612 1.429 . S
C2631 C2625 1.429 . S
C2631 C2632 1.523 . S
C2632 C2613 1.368 . S
C2632 C2626 1.368 . S
C2632 C2631 1.523 . S
C2633 C2617 1.429 . S
C2633 C2629 1.429 . S
C2633 C2634 1.523 . S
C2634 C2618 1.368 . S
C2634 C2630 1.368 . S
C2634 C2633 1.523 . S
H2635 C2610 0.950 . S
H2636 C2612 0.950 . S
H2637 C2613 0.949 . S
H2638 C2615 0.950 . S
H2639 C2617 0.950 . S
C2640 C2641 1.349 . S
C2640 C2642 1.327 . S
C2640 H2665 0.950 . S
C2641 C2640 1.349 . S
C2641 C2657 1.349 . S
C2642 C2640 1.327 . S
C2642 C2661 1.429 . S
C2642 H2666 0.950 . S
C2643 C2660 1.574 . S
C2643 C2662 1.368 . S
C2643 H2667 0.949 . S
H2644 C2648 0.949 . S
C2645 C2646 1.349 . S
C2645 C2647 1.327 . S
C2645 H2668 0.950 . S
C2646 C2645 1.349 . S
C2646 C2658 1.349 . S
C2647 C2645 1.327 . S
C2647 C2663 1.429 . S
C2647 H2669 0.950 . S
C2648 H2644 0.949 . S
C2648 C2656 1.574 . S
C2648 C2664 1.368 . S
H2649 C2657 0.950 . S
H2650 C2655 0.950 . S
H2651 C2656 0.949 . S
H2652 C2658 0.950 . S
H2653 C2659 0.950 . S
H2654 C2660 0.949 . S
C2655 H2650 0.950 . S
C2655 C2657 1.327 . S
C2655 C2661 1.429 . S
C2656 C2648 1.574 . S
C2656 H2651 0.949 . S
C2656 C2662 1.368 . S
C2657 C2641 1.349 . S
C2657 H2649 0.950 . S
C2657 C2655 1.327 . S
C2658 C2646 1.349 . S
C2658 H2652 0.950 . S
C2658 C2659 1.327 . S
C2659 H2653 0.950 . S
C2659 C2658 1.327 . S
C2659 C2663 1.429 . S
C2660 C2643 1.574 . S
C2660 H2654 0.949 . S
C2660 C2664 1.368 . S
C2661 C2642 1.429 . S
C2661 C2655 1.429 . S
C2661 C2662 1.523 . S
C2662 C2643 1.368 . S
C2662 C2656 1.368 . S
C2662 C2661 1.523 . S
C2663 C2647 1.429 . S
C2663 C2659 1.429 . S
C2663 C2664 1.523 . S
C2664 C2648 1.368 . S
C2664 C2660 1.368 . S
C2664 C2663 1.523 . S
H2665 C2640 0.950 . S
H2666 C2642 0.950 . S
H2667 C2643 0.949 . S
H2668 C2645 0.950 . S
H2669 C2647 0.950 . S
C2670 C2671 1.349 . S
C2670 C2672 1.327 . S
C2670 H2695 0.950 . S
C2671 C2670 1.349 . S
C2671 C2687 1.349 . S
C2672 C2670 1.327 . S
C2672 C2691 1.429 . S
C2672 H2696 0.950 . S
C2673 C2690 1.574 . S
C2673 C2692 1.368 . S
C2673 H2697 0.949 . S
H2674 C2678 0.949 . S
C2675 C2676 1.349 . S
C2675 C2677 1.327 . S
C2675 H2698 0.950 . S
C2676 C2675 1.349 . S
C2676 C2688 1.349 . S
C2677 C2675 1.327 . S
C2677 C2693 1.429 . S
C2677 H2699 0.950 . S
C2678 H2674 0.949 . S
C2678 C2686 1.574 . S
C2678 C2694 1.368 . S
H2679 C2687 0.950 . S
H2680 C2685 0.950 . S
H2681 C2686 0.949 . S
H2682 C2688 0.950 . S
H2683 C2689 0.950 . S
H2684 C2690 0.949 . S
C2685 H2680 0.950 . S
C2685 C2687 1.327 . S
C2685 C2691 1.429 . S
C2686 C2678 1.574 . S
C2686 H2681 0.949 . S
C2686 C2692 1.368 . S
C2687 C2671 1.349 . S
C2687 H2679 0.950 . S
C2687 C2685 1.327 . S
C2688 C2676 1.349 . S
C2688 H2682 0.950 . S
C2688 C2689 1.327 . S
C2689 H2683 0.950 . S
C2689 C2688 1.327 . S
C2689 C2693 1.429 . S
C2690 C2673 1.574 . S
C2690 H2684 0.949 . S
C2690 C2694 1.368 . S
C2691 C2672 1.429 . S
C2691 C2685 1.429 . S
C2691 C2692 1.523 . S
C2692 C2673 1.368 . S
C2692 C2686 1.368 . S
C2692 C2691 1.523 . S
C2693 C2677 1.429 . S
C2693 C2689 1.429 . S
C2693 C2694 1.523 . S
C2694 C2678 1.368 . S
C2694 C2690 1.368 . S
C2694 C2693 1.523 . S
H2695 C2670 0.950 . S
H2696 C2672 0.950 . S
H2697 C2673 0.949 . S
H2698 C2675 0.950 . S
H2699 C2677 0.950 . S
C1081 C522 1.718 . S
C1086 C723 1.716 . S
C1111 C562 1.860 . S
C1116 C763 1.854 . S
C1141 C495 1.783 . S
C1146 C815 1.798 . S
C1171 C455 1.569 . S
C1176 C775 1.569 . S
C1206 C803 1.450 . S
C1201 C362 1.443 . S
C1231 C402 1.405 . S
C1236 C735 1.392 1_556 S
C1266 C742 1.745 . S
C1261 C442 1.675 . S
C1296 C782 1.823 . S
C1291 C375 1.822 . S
C1321 C415 1.794 . S
C1326 C802 1.800 . S
C1351 C535 1.575 . S
C1356 C762 1.569 . S
C1381 C575 1.411 . S
C1386 C822 1.417 . S
C1416 C722 1.426 . S
C1411 C482 1.360 . S
C1446 C843 1.715 . S
C1441 C42 1.718 . S
C1471 C82 1.860 . S
C1476 C883 1.854 . S
C1501 C15 1.782 . S
C1506 C935 1.797 . S
C1531 C695 1.569 . S
C1536 C895 1.569 . S
C1561 C602 1.443 . S
C1566 C923 1.450 . S
C1591 C642 1.405 . S
C1596 C855 1.394 . S
C1621 C682 1.675 . S
C1626 C862 1.745 . S
C1651 C615 1.822 . S
C1656 C902 1.823 . S
C1686 C922 1.800 . S
C1681 C655 1.794 . S
C1711 C55 1.576 . S
C1716 C882 1.569 . S
C1746 C942 1.417 . S
C1741 C95 1.412 . S
C1771 C2 1.360 . S
C1776 C842 1.426 . S
C1806 C963 1.716 . S
C1801 C282 1.719 . S
C1831 C322 1.860 . S
C1836 C1003 1.854 . S
C1866 C1055 1.798 . S
C1861 C255 1.783 . S
C1896 C1015 1.569 . S
C1891 C215 1.569 . S
C1926 C1043 1.450 . S
C1921 C122 1.443 . S
C1951 C162 1.404 . S
C1956 C975 1.394 . S
C1981 C202 1.675 . S
C1986 C982 1.745 . S
C2011 C135 1.822 . S
C2016 C1022 1.823 . S
C2046 C1042 1.799 . S
C2041 C175 1.793 . S
C2071 C295 1.575 . S
C2076 C1002 1.569 . S
C2101 C335 1.412 . S
C2106 C1062 1.417 . S
C2131 C242 1.360 . S
C2136 C962 1.426 . S
C2161 C621 1.210 . S
C2166 C746 1.207 . S
C2196 C786 1.954 . S
C2191 C661 1.982 . S
C2221 C701 1.585 . S
C2226 C809 1.626 . S
C2251 C261 1.926 . S
C2256 C769 1.976 . S
C2281 C301 1.608 . S
C2286 C826 1.601 . S
C2316 C729 1.201 . S
C2311 C341 1.204 . S
C2341 C141 1.210 . S
C2346 C866 1.207 . S
C2371 C181 1.982 . S
C2376 C906 1.954 . S
C2401 C221 1.585 . S
C2406 C929 1.626 . S
C2431 C501 1.926 . S
C2436 C889 1.977 . S
C2466 C946 1.601 . S
C2461 C541 1.608 . S
C2491 C581 1.204 . S
C2496 C849 1.201 . S
C2521 C381 1.210 . S
C2526 C986 1.207 . S
C2551 C421 1.982 . S
C2556 C1026 1.954 . S
C2586 C1049 1.626 . S
C2581 C461 1.585 . S
C2611 C21 1.926 . S
C2616 C1009 1.976 . S
C2641 C61 1.608 . S
C2646 C1066 1.600 . S
C2671 C101 1.204 . S
C2676 C969 1.201 . S
