# Generated by pormake.
# Topology csq, (4,8)-cn, num edge types: 1
# Building blocks:
#     Node 0, Type 0, BuildingBlock: NAWXER_clean_sbu_0, # of connection points: 4
#     Node 1, Type 0, BuildingBlock: NAWXER_clean_sbu_0, # of connection points: 4
#     Node 2, Type 0, BuildingBlock: NAWXER_clean_sbu_0, # of connection points: 4
#     Node 3, Type 0, BuildingBlock: NAWXER_clean_sbu_0, # of connection points: 4
#     Node 4, Type 0, BuildingBlock: NAWXER_clean_sbu_0, # of connection points: 4
#     Node 5, Type 0, BuildingBlock: NAWXER_clean_sbu_0, # of connection points: 4
#     Node 6, Type 1, BuildingBlock: TAGTUT_clean_sbu_1, # of connection points: 8
#     Node 7, Type 1, BuildingBlock: TAGTUT_clean_sbu_1, # of connection points: 8
#     Node 8, Type 1, BuildingBlock: TAGTUT_clean_sbu_1, # of connection points: 8
#     Edge 9, Type (0, 1), BuildingBlock: ZUJKAS_clean_linker_0, # of connection points: 2
#     Edge 10, Type (0, 1), BuildingBlock: ZUJKAS_clean_linker_0, # of connection points: 2
#     Edge 11, Type (0, 1), BuildingBlock: ZUJKAS_clean_linker_0, # of connection points: 2
#     Edge 12, Type (0, 1), BuildingBlock: ZUJKAS_clean_linker_0, # of connection points: 2
#     Edge 13, Type (0, 1), BuildingBlock: ZUJKAS_clean_linker_0, # of connection points: 2
#     Edge 14, Type (0, 1), BuildingBlock: ZUJKAS_clean_linker_0, # of connection points: 2
#     Edge 15, Type (0, 1), BuildingBlock: ZUJKAS_clean_linker_0, # of connection points: 2
#     Edge 16, Type (0, 1), BuildingBlock: ZUJKAS_clean_linker_0, # of connection points: 2
#     Edge 17, Type (0, 1), BuildingBlock: ZUJKAS_clean_linker_0, # of connection points: 2
#     Edge 18, Type (0, 1), BuildingBlock: ZUJKAS_clean_linker_0, # of connection points: 2
#     Edge 19, Type (0, 1), BuildingBlock: ZUJKAS_clean_linker_0, # of connection points: 2
#     Edge 20, Type (0, 1), BuildingBlock: ZUJKAS_clean_linker_0, # of connection points: 2
#     Edge 21, Type (0, 1), BuildingBlock: ZUJKAS_clean_linker_0, # of connection points: 2
#     Edge 22, Type (0, 1), BuildingBlock: ZUJKAS_clean_linker_0, # of connection points: 2
#     Edge 23, Type (0, 1), BuildingBlock: ZUJKAS_clean_linker_0, # of connection points: 2
#     Edge 24, Type (0, 1), BuildingBlock: ZUJKAS_clean_linker_0, # of connection points: 2
#     Edge 25, Type (0, 1), BuildingBlock: ZUJKAS_clean_linker_0, # of connection points: 2
#     Edge 26, Type (0, 1), BuildingBlock: ZUJKAS_clean_linker_0, # of connection points: 2
#     Edge 27, Type (0, 1), BuildingBlock: ZUJKAS_clean_linker_0, # of connection points: 2
#     Edge 28, Type (0, 1), BuildingBlock: ZUJKAS_clean_linker_0, # of connection points: 2
#     Edge 29, Type (0, 1), BuildingBlock: ZUJKAS_clean_linker_0, # of connection points: 2
#     Edge 30, Type (0, 1), BuildingBlock: ZUJKAS_clean_linker_0, # of connection points: 2
#     Edge 31, Type (0, 1), BuildingBlock: ZUJKAS_clean_linker_0, # of connection points: 2
#     Edge 32, Type (0, 1), BuildingBlock: ZUJKAS_clean_linker_0, # of connection points: 2
# Relax obj value: 0.042
# Max RMSD: 0.131
# Mean RMSD: 0.074
data_MOF--net-csq--node1-NAWXER_clean_sbu_0--node2-TAGTUT_clean_sbu_1--edge1-ZUJKAS_clean_linker_0
_symmetry_space_group_name_H-M    P1
_symmetry_Int_Tables_number       1
_symmetry_cell_setting            triclinic
loop_
_symmetry_equiv_pos_as_xyz
'x, y, z'
_cell_length_a     63.70961
_cell_length_b     63.190116
_cell_length_c     25.026987
_cell_angle_alpha  92.447403
_cell_angle_beta   91.932851
_cell_angle_gamma 119.79354
loop_
_atom_site_label
_atom_site_type_symbol
_atom_site_fract_x
_atom_site_fract_y
_atom_site_fract_z
_atom_type_partial_charge
C0 C 0.29482 0.50721 0.09778 0.0
C1 C 0.23727 0.50582 0.22632 0.0
O2 O 0.29518 0.52562 0.12151 0.0
Zn3 Zn 0.26668 0.50763 0.1624 0.0
O4 O 0.27842 0.48563 0.10785 0.0
Zn5 Zn 0.24785 0.46846 0.15649 0.0
O6 O 0.22131 0.45049 0.10234 0.0
O7 O 0.23841 0.49053 0.09996 0.0
O8 O 0.23307 0.48456 0.20933 0.0
O9 O 0.25504 0.52466 0.20917 0.0
O10 O 0.27907 0.49137 0.21919 0.0
O11 O 0.25744 0.45125 0.20595 0.0
C12 C 0.2226 0.46898 0.08093 0.0
C13 C 0.27429 0.47011 0.23225 0.0
C14 C 0.7516 0.20401 0.05837 0.0
C15 C 0.81652 0.26496 0.18209 0.0
O16 O 0.77029 0.20346 0.07593 0.0
Zn17 Zn 0.78365 0.23272 0.12395 0.0
O18 O 0.74762 0.22086 0.07667 0.0
Zn19 Zn 0.76411 0.25218 0.13204 0.0
O20 O 0.77004 0.27842 0.08598 0.0
O21 O 0.79136 0.26025 0.06877 0.0
O22 O 0.79852 0.26848 0.17486 0.0
O23 O 0.81556 0.24586 0.1605 0.0
O24 O 0.75997 0.22231 0.18835 0.0
O25 O 0.7415 0.24399 0.18809 0.0
C26 C 0.78549 0.27639 0.05847 0.0
C27 C 0.74497 0.22785 0.2087 0.0
C28 C 0.5582 0.80213 0.13248 0.0
C29 C 0.5677 0.75313 0.99134 0.0
O30 O 0.57757 0.80276 0.11924 0.0
Zn31 Zn 0.56313 0.77717 0.06303 0.0
O32 O 0.53775 0.78566 0.11017 0.0
Zn33 Zn 0.5248 0.75623 0.04909 0.0
O34 O 0.50639 0.72693 0.08706 0.0
O35 O 0.54598 0.74427 0.10364 0.0
O36 O 0.54537 0.7462 0.99807 0.0
O37 O 0.5843 0.77125 0.01983 0.0
O38 O 0.54732 0.7917 0.00921 0.0
O39 O 0.5079 0.76561 0.99819 0.0
C40 C 0.5245 0.72673 0.1093 0.0
C41 C 0.52631 0.78569 0.98818 0.0
C42 C 0.79227 0.50857 0.00334 0.0
C43 C 0.7325 0.50399 0.12988 0.0
O44 O 0.79576 0.52944 0.02145 0.0
Zn45 Zn 0.78008 0.54422 0.07537 0.0
O46 O 0.77479 0.48921 0.01962 0.0
Zn47 Zn 0.76182 0.50497 0.06646 0.0
O48 O 0.75 0.52188 0.01019 0.0
O49 O 0.77065 0.5619 0.02699 0.0
O50 O 0.73269 0.48603 0.10531 0.0
O51 O 0.74887 0.52583 0.1215 0.0
O52 O 0.80584 0.5615 0.13175 0.0
O53 O 0.78913 0.5214 0.13043 0.0
C54 C 0.75454 0.54326 0.99867 0.0
C55 C 0.80446 0.54267 0.15163 0.0
C56 C 0.21282 0.74903 0.15914 0.0
C57 C 0.27035 0.79251 0.02417 0.0
O58 O 0.21361 0.76599 0.13207 0.0
Zn59 Zn 0.24189 0.77199 0.09351 0.0
O60 O 0.22879 0.74255 0.15343 0.0
Zn61 Zn 0.25937 0.75118 0.10701 0.0
O62 O 0.28539 0.7624 0.16125 0.0
O63 O 0.27052 0.78725 0.15557 0.0
O64 O 0.27429 0.77675 0.04625 0.0
O65 O 0.25333 0.79581 0.03968 0.0
O66 O 0.2275 0.73812 0.04649 0.0
O67 O 0.24836 0.72002 0.06811 0.0
C68 C 0.28549 0.78176 0.17766 0.0
C69 C 0.23115 0.71997 0.04075 0.0
C70 C 0.45485 0.25337 0.22582 0.0
C71 C 0.46611 0.20133 0.09639 0.0
O72 O 0.47721 0.25958 0.22293 0.0
Zn73 Zn 0.49841 0.24864 0.17696 0.0
O74 O 0.43861 0.23557 0.19601 0.0
Zn75 Zn 0.46036 0.22789 0.1596 0.0
O76 O 0.47477 0.21462 0.22067 0.0
O77 O 0.51428 0.23989 0.2313 0.0
O78 O 0.44652 0.20088 0.10684 0.0
O79 O 0.4863 0.21821 0.11888 0.0
O80 O 0.51779 0.27737 0.13832 0.0
O81 O 0.47884 0.25908 0.11389 0.0
C82 C 0.4955 0.22063 0.24361 0.0
C83 C 0.5005 0.27661 0.10989 0.0
C84 C 0.97899 0.4355 0.75134 0.0
C85 C 0.05395 0.47393 0.70503 0.0
C86 C 0.0392 0.55093 0.69279 0.0
Mg87 Mg 0.00373 0.44774 0.64327 0.0
O88 O 1.0009 0.47551 0.65672 0.0
Mg89 Mg 0.01484 0.4947 0.7272 0.0
Mg90 Mg 0.0111 0.50262 0.60762 0.0
O91 O 0.02148 0.53007 0.5602 0.0
Mg92 Mg 0.0163 0.55591 0.58155 0.0
Mg93 Mg 0.00526 0.5108 0.49094 0.0
C94 C 0.98731 0.45494 0.52451 0.0
C95 C 0.04966 0.50163 0.52531 0.0
O96 O 0.9917 0.4583 0.76669 0.0
O97 O 0.97994 0.42716 0.70432 0.0
O98 O 0.04725 0.48791 0.72781 0.0
O99 O 0.04045 0.45747 0.66856 0.0
O100 O 0.99223 0.44276 0.55781 0.0
O101 O 0.98857 0.47547 0.53809 0.0
C102 C 0.9711 0.50351 0.68601 0.0
O103 O 0.97816 0.50568 0.63805 0.0
O104 O 0.98235 0.49988 0.72445 0.0
O105 O 0.02552 0.54864 0.45202 0.0
O106 O 0.034 0.57815 0.51689 0.0
O107 O 0.97218 0.51627 0.49906 0.0
C108 C 0.03493 0.57134 0.46843 0.0
O109 O 0.97826 0.54346 0.56637 0.0
O110 O 0.034 0.564 0.66292 0.0
C111 C 0.96483 0.52824 0.52786 0.0
O112 O 0.03366 0.52901 0.67767 0.0
O113 O 0.04383 0.49983 0.57446 0.0
O114 O 0.03783 0.50565 0.48856 0.0
C115 C 0.47212 0.01373 0.78197 0.0
C116 C 0.44277 0.94955 0.67781 0.0
C117 C 0.53516 0.97033 0.66132 0.0
Mg118 Mg 0.46622 0.00364 0.65808 0.0
O119 O 0.49767 0.00889 0.67255 0.0
Mg120 Mg 0.50142 0.9875 0.72441 0.0
Mg121 Mg 0.51386 0.00335 0.61156 0.0
O122 O 0.5302 -0.00203 0.55059 0.0
Mg123 Mg 0.56201 0.00437 0.56583 0.0
Mg124 Mg 0.52572 0.01875 0.49814 0.0
C125 C 0.49236 0.03644 0.56109 0.0
C126 C 0.47306 0.97178 0.51537 0.0
O127 O 0.48608 0.00447 0.7859 0.0
O128 O 0.46292 0.01537 0.73708 0.0
O129 O 0.46251 0.95544 0.70488 0.0
O130 O 0.4405 0.96497 0.65045 0.0
O131 O 0.47434 0.02748 0.59131 0.0
O132 O 0.50954 0.03141 0.5657 0.0
C133 C 0.55513 0.03289 0.70806 0.0
O134 O 0.54984 0.03174 0.65766 0.0
O135 O 0.53979 0.01869 0.73993 0.0
O136 O 0.54189 0.00228 0.43746 0.0
O137 O 0.56592 0.99278 0.48717 0.0
O138 O 0.56381 0.05163 0.51833 0.0
C139 C 0.5564 0.99368 0.44201 0.0
O140 O 0.58653 0.04354 0.57409 0.0
O141 O 0.55345 0.97996 0.63189 0.0
C142 C 0.58348 0.05848 0.54655 0.0
O143 O 0.5177 0.97496 0.65675 0.0
O144 O 0.47833 0.97445 0.56603 0.0
O145 O 0.48794 0.98604 0.4828 0.0
C146 C 0.53143 0.55156 0.44247 0.0
C147 C 0.56639 0.51037 0.4911 0.0
C148 C 0.47876 0.44792 0.5638 0.0
Mg149 Mg 0.55472 0.54704 0.54915 0.0
O150 O 0.52229 0.52303 0.55414 0.0
Mg151 Mg 0.5075 0.49651 0.49495 0.0
Mg152 Mg 0.51319 0.50326 0.61782 0.0
O153 O 0.50419 0.48343 0.68168 0.0
Mg154 Mg 0.47183 0.45915 0.68691 0.0
Mg155 Mg 0.51864 0.51036 0.74006 0.0
C156 C 0.54846 0.55795 0.67239 0.0
C157 C 0.5625 0.51006 0.678 0.0
O158 O 0.51725 0.52821 0.43777 0.0
O159 O 0.54677 0.56252 0.48256 0.0
O160 O 0.54364 0.49735 0.47853 0.0
O161 O 0.57493 0.52992 0.52167 0.0
O162 O 0.56078 0.56409 0.63041 0.0
O163 O 0.52829 0.53775 0.67338 0.0
C164 C 0.46389 0.49687 0.55811 0.0
O165 O 0.47504 0.49925 0.60364 0.0
O166 O 0.4728 0.49591 0.51366 0.0
O167 O 0.50887 0.47928 0.79839 0.0
O168 O 0.47872 0.44447 0.75699 0.0
O169 O 0.48227 0.50927 0.75424 0.0
C170 C 0.49421 0.45605 0.79659 0.0
O171 O 0.45135 0.47655 0.71043 0.0
O172 O 0.46683 0.44153 0.60637 0.0
C173 C 0.45963 0.49623 0.74049 0.0
O174 O 0.49806 0.46886 0.56179 0.0
O175 O 0.55136 0.50745 0.6323 0.0
O176 O 0.55349 0.51109 0.72232 0.0
H177 H 0.24167 0.54736 0.27837 0.0
H178 H 0.21508 0.54968 0.34439 0.0
H179 H 0.17026 0.47118 0.32916 0.0
H180 H 0.19674 0.46866 0.26457 0.0
H181 H 0.16812 0.53612 0.3323 0.0
H182 H 0.17855 0.48283 0.48953 0.0
H183 H 0.19879 0.49393 0.4358 0.0
H184 H 0.17017 0.46588 0.4257 0.0
C185 C 0.22625 0.5306 0.28943 0.0
C186 C 0.22144 0.50783 0.26621 0.0
C187 C 0.2111 0.53194 0.32729 0.0
C188 C 0.19096 0.51055 0.34287 0.0
C189 C 0.18608 0.48789 0.31931 0.0
H190 H 0.05393 0.48319 0.42972 0.0
H191 H 0.09048 0.48692 0.39329 0.0
C192 C 0.20117 0.48652 0.28178 0.0
C193 C 0.17385 0.51176 0.38041 0.0
H194 H 0.14184 0.48555 0.48924 0.0
C195 C 0.16276 0.52543 0.36718 0.0
C196 C 0.16701 0.49816 0.42662 0.0
C197 C 0.17948 0.4846 0.44558 0.0
C198 C 0.14401 0.52459 0.39664 0.0
C199 C 0.13578 0.50933 0.43998 0.0
C200 C 0.14789 0.49693 0.45552 0.0
C201 C 0.11326 0.50445 0.46576 0.0
C202 C 0.13272 0.53959 0.38017 0.0
C203 C 0.11353 0.5117 0.51986 0.0
C204 C 0.09237 0.50934 0.54125 0.0
C205 C 0.0708 0.49976 0.50857 0.0
C206 C 0.07036 0.49101 0.45568 0.0
C207 C 0.09127 0.49322 0.43466 0.0
H208 H 0.14537 0.55543 0.35804 0.0
H209 H 0.11632 0.52801 0.35324 0.0
H210 H 0.12721 0.54643 0.41556 0.0
H211 H 0.1303 0.52016 0.54473 0.0
H212 H 0.09323 0.51624 0.5821 0.0
H213 H 0.70569 0.2276 0.25151 0.0
H214 H 0.68272 0.20415 0.32523 0.0
H215 H 0.73192 0.1764 0.34617 0.0
H216 H 0.75449 0.19916 0.27189 0.0
H217 H 0.68619 0.14051 0.33956 0.0
H218 H 0.69512 0.21319 0.48597 0.0
H219 H 0.68353 0.21476 0.42082 0.0
H220 H 0.71382 0.21964 0.42952 0.0
C221 C 0.71176 0.21673 0.27225 0.0
C222 C 0.73185 0.21517 0.25561 0.0
C223 C 0.69874 0.20348 0.31473 0.0
C224 C 0.7058 0.18878 0.3419 0.0
C225 C 0.72617 0.18768 0.32604 0.0
H226 H 0.63203 0.07471 0.56448 0.0
H227 H 0.66504 0.10972 0.52482 0.0
C228 C 0.73902 0.20068 0.2834 0.0
C229 C 0.69079 0.17276 0.38341 0.0
H230 H 0.66443 0.17217 0.50061 0.0
C231 C 0.68176 0.14751 0.37518 0.0
C232 C 0.68494 0.18187 0.42987 0.0
C233 C 0.69505 0.20887 0.44243 0.0
C234 C 0.66646 0.13106 0.41099 0.0
C235 C 0.66019 0.14009 0.45682 0.0
C236 C 0.66945 0.16535 0.46567 0.0
C237 C 0.64222 0.12312 0.49268 0.0
C238 C 0.65629 0.10401 0.39832 0.0
C239 C 0.61888 0.12012 0.49089 0.0
C240 C 0.60004 0.10023 0.51356 0.0
C241 C 0.60423 0.08299 0.53849 0.0
C242 C 0.62817 0.08757 0.54541 0.0
C243 C 0.64703 0.10749 0.52246 0.0
H244 H 0.65967 0.09988 0.35695 0.0
H245 H 0.66493 0.09716 0.42669 0.0
H246 H 0.63645 0.09382 0.40303 0.0
H247 H 0.61483 0.13207 0.4684 0.0
H248 H 0.58185 0.09739 0.50806 0.0
H249 H 0.48855 0.69819 0.17441 0.0
H250 H 0.48684 0.66535 0.22699 0.0
H251 H 0.55127 0.67397 0.1563 0.0
H252 H 0.55375 0.70737 0.10651 0.0
H253 H 0.48385 0.62154 0.2055 0.0
H254 H 0.57246 0.685 0.31186 0.0
H255 H 0.55667 0.69552 0.26926 0.0
H256 H 0.57482 0.68383 0.2408 0.0
C257 C 0.50227 0.69296 0.17031 0.0
C258 C 0.5216 0.70561 0.13765 0.0
C259 C 0.50126 0.67421 0.20008 0.0
C260 C 0.51935 0.66771 0.1967 0.0
C261 C 0.53764 0.67926 0.16106 0.0
H262 H 0.51691 0.54081 0.33509 0.0
H263 H 0.5127 0.5677 0.27266 0.0
C264 C 0.53899 0.69829 0.13255 0.0
C265 C 0.52 0.64976 0.23198 0.0
H266 H 0.55712 0.64272 0.32179 0.0
C267 C 0.49977 0.62615 0.23131 0.0
C268 C 0.54067 0.65595 0.2662 0.0
C269 C 0.56225 0.68153 0.27257 0.0
C270 C 0.49976 0.60847 0.26364 0.0
C271 C 0.52086 0.61441 0.2961 0.0
C272 C 0.54102 0.63804 0.29657 0.0
C273 C 0.52224 0.59726 0.3329 0.0
C274 C 0.47696 0.58394 0.26375 0.0
C275 C 0.5296 0.60511 0.38699 0.0
C276 C 0.53283 0.59026 0.42185 0.0
C277 C 0.52835 0.56695 0.4038 0.0
C278 C 0.52046 0.55872 0.34995 0.0
C279 C 0.51779 0.57395 0.31449 0.0
H280 H 0.46075 0.58478 0.24907 0.0
H281 H 0.47862 0.57054 0.23672 0.0
H282 H 0.47399 0.57715 0.30456 0.0
H283 H 0.53304 0.62292 0.40232 0.0
H284 H 0.53853 0.59697 0.46335 0.0
H285 H 0.84062 0.5842 0.20782 0.0
H286 H 0.86597 0.5861 0.28625 0.0
H287 H 0.82829 0.50736 0.28142 0.0
H288 H 0.80296 0.50525 0.20428 0.0
H289 H 0.83553 0.52969 0.38569 0.0
H290 H 0.92028 0.56875 0.27629 0.0
H291 H 0.90409 0.58532 0.27653 0.0
H292 H 0.8907 0.55562 0.2419 0.0
C293 C 0.83774 0.56733 0.2236 0.0
C294 C 0.81989 0.54459 0.19942 0.0
C295 C 0.85224 0.56844 0.26833 0.0
C296 C 0.8491 0.54684 0.28938 0.0
C297 C 0.83099 0.52424 0.26594 0.0
H298 H 0.92959 0.49558 0.45456 0.0
H299 H 0.89933 0.50148 0.4054 0.0
C300 C 0.8166 0.5231 0.2215 0.0
C301 C 0.86512 0.54725 0.3343 0.0
H302 H 0.92244 0.55801 0.36401 0.0
C303 C 0.85464 0.53627 0.3814 0.0
C304 C 0.88999 0.55564 0.32833 0.0
C305 C 0.90202 0.56686 0.278 0.0
C306 C 0.86825 0.5328 0.42191 0.0
C307 C 0.89281 0.54045 0.41496 0.0
C308 C 0.90354 0.55225 0.369 0.0
C309 C 0.90727 0.53443 0.4522 0.0
C310 C 0.85623 0.52011 0.47091 0.0
C311 C 0.92094 0.55048 0.49625 0.0
C312 C 0.93823 0.54711 0.52479 0.0
C313 C 0.94229 0.52783 0.50903 0.0
C314 C 0.92709 0.51071 0.46756 0.0
C315 C 0.9098 0.51405 0.43932 0.0
H316 H 0.83722 0.51624 0.47161 0.0
H317 H 0.85631 0.50261 0.47201 0.0
H318 H 0.86664 0.5316 0.50759 0.0
H319 H 0.9192 0.56633 0.50661 0.0
H320 H 0.94961 0.56065 0.55647 0.0
H321 H 0.29242 0.82593 0.21621 0.0
H322 H 0.32177 0.85364 0.28684 0.0
H323 H 0.34619 0.80201 0.31165 0.0
H324 H 0.31711 0.77423 0.24001 0.0
H325 H 0.32945 0.84852 0.39555 0.0
H326 H 0.40776 0.86401 0.2772 0.0
H327 H 0.3771 0.84888 0.24804 0.0
H328 H 0.38712 0.83279 0.28988 0.0
C329 C 0.30397 0.82038 0.23669 0.0
C330 C 0.30266 0.798 0.222 0.0
C331 C 0.32063 0.8362 0.27729 0.0
C332 C 0.33628 0.82997 0.30403 0.0
C333 C 0.33449 0.80729 0.29086 0.0
H334 H 0.44255 0.92933 0.5618 0.0
H335 H 0.4075 0.89283 0.51745 0.0
C336 C 0.31788 0.79147 0.24995 0.0
C337 C 0.35538 0.84803 0.34318 0.0
H338 H 0.4165 0.88609 0.36035 0.0
C339 C 0.34853 0.85657 0.38835 0.0
C340 C 0.3802 0.85856 0.33328 0.0
C341 C 0.38859 0.8508 0.28432 0.0
C342 C 0.36587 0.87595 0.42304 0.0
C343 C 0.39058 0.88679 0.41228 0.0
C344 C 0.39747 0.87762 0.36836 0.0
C345 C 0.40953 0.90927 0.44227 0.0
C346 C 0.35766 0.8855 0.46934 0.0
C347 C 0.4219 0.93057 0.41492 0.0
C348 C 0.44186 0.95122 0.43979 0.0
C349 C 0.44989 0.951 0.49264 0.0
C350 C 0.43673 0.93005 0.5211 0.0
C351 C 0.41671 0.90922 0.49589 0.0
H352 H 0.33763 0.87717 0.46797 0.0
H353 H 0.3637 0.88132 0.50757 0.0
H354 H 0.36598 0.90566 0.46939 0.0
H355 H 0.41653 0.93096 0.37358 0.0
H356 H 0.45143 0.96714 0.41694 0.0
H357 H 0.47224 0.27158 0.32719 0.0
H358 H 0.46957 0.30436 0.37611 0.0
H359 H 0.42398 0.3053 0.24561 0.0
H360 H 0.42547 0.27136 0.19818 0.0
H361 H 0.48794 0.34796 0.34175 0.0
H362 H 0.39043 0.31362 0.36958 0.0
H363 H 0.40175 0.29363 0.34912 0.0
H364 H 0.3972 0.31163 0.30118 0.0
C365 C 0.46094 0.27823 0.31002 0.0
C366 C 0.44888 0.26896 0.25942 0.0
C367 C 0.45954 0.29703 0.33767 0.0
C368 C 0.44658 0.30733 0.31455 0.0
C369 C 0.43363 0.29733 0.26484 0.0
H370 H 0.49365 0.45449 0.46052 0.0
H371 H 0.48311 0.42264 0.38898 0.0
C372 C 0.4345 0.27798 0.23775 0.0
C373 C 0.449 0.33005 0.34028 0.0
H374 H 0.41748 0.35545 0.39419 0.0
C375 C 0.47252 0.34961 0.35326 0.0
C376 C 0.42885 0.33224 0.35458 0.0
C377 C 0.40314 0.3116 0.34335 0.0
C378 C 0.47657 0.3707 0.383 0.0
C379 C 0.45644 0.37285 0.39791 0.0
C380 C 0.43287 0.35383 0.38237 0.0
C381 C 0.45939 0.39288 0.43603 0.0
C382 C 0.50237 0.38965 0.40091 0.0
C383 C 0.44817 0.38694 0.48465 0.0
C384 C 0.45354 0.40511 0.52484 0.0
C385 C 0.47057 0.42965 0.51764 0.0
C386 C 0.4807 0.43579 0.4677 0.0
C387 C 0.47484 0.41756 0.42686 0.0
H388 H 0.51503 0.38247 0.39634 0.0
H389 H 0.50852 0.40558 0.37609 0.0
H390 H 0.50375 0.39608 0.44354 0.0
H391 H 0.43611 0.36805 0.49266 0.0
H392 H 0.44523 0.39964 0.5626 0.0
H393 H 0.54653 0.83371 0.01507 0.0
H394 H 0.54448 0.86471 0.96402 0.0
H395 H 0.49965 0.80936 0.83934 0.0
H396 H 0.50039 0.77794 0.89268 0.0
H397 H 0.56206 0.87946 0.87538 0.0
H398 H 0.46363 0.84533 0.84738 0.0
H399 H 0.47589 0.83225 0.89286 0.0
H400 H 0.47126 0.82318 0.82225 0.0
C401 C 0.53596 0.82816 0.97705 0.0
C402 C 0.52366 0.80358 0.95747 0.0
C403 C 0.53478 0.84585 0.94791 0.0
C404 C 0.52175 0.83944 0.89791 0.0
C405 C 0.50926 0.81473 0.87842 0.0
H406 H 0.55902 0.94473 0.65805 0.0
H407 H 0.55513 0.91311 0.71575 0.0
C408 C 0.50985 0.79682 0.90853 0.0
C409 C 0.52304 0.85902 0.86503 0.0
H410 H 0.48915 0.87695 0.79172 0.0
C411 C 0.54604 0.87897 0.85761 0.0
C412 C 0.50219 0.85866 0.84235 0.0
C413 C 0.47686 0.83883 0.8521 0.0
C414 C 0.54884 0.89843 0.82805 0.0
C415 C 0.52813 0.89737 0.80269 0.0
C416 C 0.50506 0.87761 0.8106 0.0
C417 C 0.53008 0.91639 0.7672 0.0
C418 C 0.57399 0.92012 0.82555 0.0
C419 C 0.5165 0.9281 0.77536 0.0
C420 C 0.51821 0.94581 0.74138 0.0
C421 C 0.53378 0.95238 0.69909 0.0
C422 C 0.54727 0.94054 0.69099 0.0
C423 C 0.54515 0.92249 0.72415 0.0
H424 H 0.58584 0.922 0.86116 0.0
H425 H 0.58236 0.91747 0.78959 0.0
H426 H 0.57358 0.93742 0.82324 0.0
H427 H 0.5046 0.92355 0.80808 0.0
H428 H 0.50735 0.95431 0.74843 0.0
H429 H 0.72012 0.50634 0.93203 0.0
H430 H 0.6968 0.50883 0.8566 0.0
H431 H 0.73457 0.5874 0.88198 0.0
H432 H 0.7581 0.58506 0.95925 0.0
H433 H 0.68619 0.56838 0.87007 0.0
H434 H 0.71282 0.52765 0.70596 0.0
H435 H 0.70411 0.50819 0.76061 0.0
H436 H 0.73007 0.53857 0.76973 0.0
C437 C 0.72377 0.52426 0.92158 0.0
C438 C 0.74104 0.54553 0.95187 0.0
C439 C 0.71055 0.52565 0.87777 0.0
C440 C 0.71438 0.54832 0.86251 0.0
C441 C 0.73161 0.56971 0.89252 0.0
H442 H 0.60282 0.54546 0.63512 0.0
H443 H 0.64491 0.55916 0.66743 0.0
C444 C 0.74495 0.56835 0.93674 0.0
C445 C 0.69836 0.54892 0.8188 0.0
H446 H 0.67119 0.52075 0.69624 0.0
C447 C 0.6835 0.55876 0.83128 0.0
C448 C 0.69491 0.53654 0.76787 0.0
C449 C 0.71156 0.5274 0.75013 0.0
C450 C 0.66383 0.55441 0.79645 0.0
C451 C 0.65891 0.53981 0.74823 0.0
C452 C 0.67494 0.53178 0.73351 0.0
C453 C 0.63504 0.52929 0.7186 0.0
C454 C 0.64719 0.56373 0.81326 0.0
C455 C 0.61592 0.50752 0.73506 0.0
C456 C 0.59212 0.49986 0.71714 0.0
C457 C 0.58711 0.51364 0.68179 0.0
C458 C 0.60638 0.53429 0.66151 0.0
C459 C 0.63033 0.5422 0.68018 0.0
H460 H 0.65482 0.57685 0.84908 0.0
H461 H 0.6437 0.57283 0.77992 0.0
H462 H 0.62951 0.54809 0.82269 0.0
H463 H 0.61926 0.49742 0.76489 0.0
H464 H 0.57749 0.48409 0.73381 0.0
H465 H 0.19867 0.71804 0.96524 0.0
H466 H 0.16497 0.68172 0.91915 0.0
H467 H 0.18931 0.63649 0.99233 0.0
H468 H 0.22346 0.67308 0.03935 0.0
H469 H 0.173 0.62644 0.87368 0.0
H470 H 0.10738 0.63105 0.00676 0.0
H471 H 0.12824 0.65985 0.98152 0.0
H472 H 0.13943 0.64537 0.0254 0.0
C473 C 0.19711 0.70044 0.97122 0.0
C474 C 0.21356 0.69837 0.0064 0.0
C475 C 0.17777 0.67972 0.94501 0.0
C476 C 0.17445 0.65653 0.9535 0.0
C477 C 0.19155 0.65433 0.98596 0.0
H478 H 0.05706 0.53059 0.76261 0.0
H479 H 0.08798 0.55175 0.83573 0.0
C480 C 0.21106 0.6752 0.01243 0.0
C481 C 0.15261 0.63489 0.92875 0.0
H482 H 0.09107 0.60887 0.92108 0.0
C483 C 0.15501 0.62201 0.88471 0.0
C484 C 0.12929 0.62929 0.9437 0.0
C485 C 0.12584 0.64195 0.99227 0.0
C486 C 0.13462 0.60495 0.85236 0.0
C487 C 0.11139 0.60065 0.86516 0.0
C488 C 0.10893 0.61233 0.91139 0.0
C489 C 0.09003 0.58663 0.82736 0.0
C490 C 0.1382 0.59299 0.80268 0.0
C491 C 0.08009 0.59897 0.80053 0.0
C492 C 0.06233 0.58692 0.75883 0.0
C493 C 0.05421 0.56229 0.74334 0.0
C494 C 0.063 0.54957 0.77308 0.0
C495 C 0.08077 0.56165 0.81478 0.0
H496 H 0.15765 0.60084 0.79481 0.0
H497 H 0.13046 0.57316 0.80756 0.0
H498 H 0.12859 0.59501 0.76713 0.0
H499 H 0.08697 0.61829 0.81004 0.0
H500 H 0.05588 0.59725 0.73714 0.0
H501 H 0.42698 0.16263 0.04151 0.0
H502 H 0.42571 0.12688 0.99586 0.0
H503 H 0.50239 0.15806 0.03307 0.0
H504 H 0.50395 0.19381 0.07854 0.0
H505 H 0.45577 0.12739 0.90808 0.0
H506 H 0.46936 0.08775 0.09141 0.0
H507 H 0.45868 0.10944 0.09312 0.0
H508 H 0.49015 0.11971 0.08545 0.0
C509 C 0.44361 0.16197 0.03959 0.0
C510 C 0.46555 0.18103 0.0637 0.0
C511 C 0.44281 0.14152 0.01379 0.0
C512 C 0.46386 0.13974 0.01229 0.0
C513 C 0.48589 0.15898 0.03489 0.0
H514 H 0.50495 0.04175 0.86381 0.0
H515 H 0.50113 0.07025 0.927 0.0
C516 C 0.48675 0.17948 0.06035 0.0
C517 C 0.46303 0.11809 0.98551 0.0
H518 H 0.47048 0.06923 0.00777 0.0
C519 C 0.45876 0.11452 0.92978 0.0
C520 C 0.4672 0.10161 0.01425 0.0
C521 C 0.47145 0.10461 0.07444 0.0
C522 C 0.45908 0.09509 0.90156 0.0
C523 C 0.46306 0.07841 0.93023 0.0
C524 C 0.46724 0.08194 0.98611 0.0
C525 C 0.4637 0.05776 0.90197 0.0
C526 C 0.45599 0.09314 0.84111 0.0
C527 C 0.44349 0.04038 0.86974 0.0
C528 C 0.44574 0.02444 0.83333 0.0
C529 C 0.46808 0.02527 0.82965 0.0
C530 C 0.48754 0.04075 0.86614 0.0
C531 C 0.48539 0.05706 0.90203 0.0
H532 H 0.45936 0.11062 0.82513 0.0
H533 H 0.46849 0.0878 0.82293 0.0
H534 H 0.43713 0.07895 0.82817 0.0
H535 H 0.42644 0.04028 0.87017 0.0
H536 H 0.43043 0.01245 0.80585 0.0
H537 H 0.29376 0.47171 0.03002 0.0
H538 H 0.32276 0.47575 0.96436 0.0
H539 H 0.36533 0.55299 0.00817 0.0
H540 H 0.33615 0.54919 0.07429 0.0
H541 H 0.33929 0.51001 0.87468 0.0
H542 H 0.41229 0.52331 0.02446 0.0
H543 H 0.38092 0.50915 0.04047 0.0
H544 H 0.39795 0.54148 0.0341 0.0
C545 C 0.30927 0.48962 0.02592 0.0
C546 C 0.31266 0.51013 0.05776 0.0
C547 C 0.32578 0.49188 0.98811 0.0
C548 C 0.34623 0.51462 0.98155 0.0
C549 C 0.34971 0.53523 0.01288 0.0
H550 H 0.4702 0.53831 0.79952 0.0
H551 H 0.4428 0.54586 0.85267 0.0
C552 C 0.33301 0.53303 0.05056 0.0
C553 C 0.36393 0.51636 0.94235 0.0
H554 H 0.41938 0.52094 0.93367 0.0
C555 C 0.35692 0.51264 0.88742 0.0
C556 C 0.38692 0.51989 0.9591 0.0
C557 C 0.39511 0.52359 0.0177 0.0
C558 C 0.37221 0.51208 0.84877 0.0
C559 C 0.39484 0.51458 0.86561 0.0
C560 C 0.40207 0.519 0.92057 0.0
C561 C 0.41077 0.51137 0.82762 0.0
C562 C 0.36396 0.50896 0.79032 0.0
C563 C 0.40191 0.48968 0.79478 0.0
C564 C 0.4175 0.48542 0.76377 0.0
C565 C 0.44245 0.50257 0.76564 0.0
C566 C 0.45113 0.52466 0.79707 0.0
C567 C 0.43547 0.52899 0.82769 0.0
H568 H 0.35122 0.51594 0.78353 0.0
H569 H 0.37952 0.5186 0.76494 0.0
H570 H 0.3542 0.48922 0.77717 0.0
H571 H 0.38311 0.4755 0.79488 0.0
H572 H 0.41017 0.46812 0.74046 0.0
H573 H 0.80267 0.26696 0.96871 0.0
H574 H 0.83318 0.29685 0.91411 0.0
H575 H 0.83066 0.35511 0.00442 0.0
H576 H 0.79975 0.32507 0.0593 0.0
H577 H 0.83553 0.33894 0.85355 0.0
H578 H 0.90191 0.36426 0.0288 0.0
H579 H 0.87348 0.33578 0.02296 0.0
H580 H 0.87388 0.3639 0.03899 0.0
C581 C 0.80811 0.28608 0.97596 0.0
C582 C 0.79896 0.29376 0.01828 0.0
C583 C 0.82553 0.30311 0.94479 0.0
C584 C 0.83431 0.32812 0.9558 0.0
C585 C 0.8241 0.33582 0.99564 0.0
H586 H 0.96624 0.44806 0.84576 0.0
H587 H 0.93103 0.42263 0.89545 0.0
C588 C 0.80635 0.31869 0.02658 0.0
C589 C 0.85579 0.34586 0.92897 0.0
H590 H 0.91721 0.38184 0.94815 0.0
C591 C 0.85338 0.34855 0.8742 0.0
C592 C 0.87899 0.35822 0.95621 0.0
C593 C 0.88246 0.35544 0.01494 0.0
C594 C 0.87369 0.3633 0.8457 0.0
C595 C 0.89704 0.37499 0.87248 0.0
C596 C 0.89933 0.3727 0.92761 0.0
C597 C 0.91932 0.38981 0.8441 0.0
C598 C 0.86987 0.3664 0.78736 0.0
C599 C 0.92503 0.37956 0.79996 0.0
C600 C 0.94516 0.39409 0.77117 0.0
C601 C 0.96015 0.41909 0.78645 0.0
C602 C 0.95514 0.4289 0.83267 0.0
C603 C 0.93493 0.41441 0.86112 0.0
H604 H 0.85105 0.36237 0.77741 0.0
H605 H 0.88265 0.38527 0.77666 0.0
H606 H 0.87303 0.35348 0.7622 0.0
H607 H 0.91364 0.3604 0.78713 0.0
H608 H 0.94855 0.38587 0.73606 0.0
H609 H 0.79716 0.46932 0.96841 0.0
H610 H 0.82532 0.46911 0.90396 0.0
H611 H 0.85125 0.54522 0.88098 0.0
H612 H 0.82393 0.54578 0.94607 0.0
H613 H 0.83072 0.47839 0.79839 0.0
H614 H 0.9139 0.54693 0.9174 0.0
H615 H 0.88446 0.5328 0.94452 0.0
H616 H 0.89343 0.55792 0.90238 0.0
C617 C 0.80892 0.48601 0.94972 0.0
C618 C 0.8085 0.50764 0.96306 0.0
C619 C 0.82499 0.48587 0.91279 0.0
C620 C 0.84085 0.50731 0.88839 0.0
C621 C 0.83979 0.52864 0.90034 0.0
H622 H 0.95803 0.53853 0.67215 0.0
H623 H 0.92403 0.54001 0.71318 0.0
C624 C 0.824 0.52887 0.93752 0.0
C625 C 0.85859 0.5075 0.85068 0.0
H626 H 0.9191 0.53557 0.8296 0.0
C627 C 0.85004 0.49091 0.80526 0.0
C628 C 0.88386 0.52387 0.8594 0.0
C629 C 0.89451 0.54122 0.90881 0.0
C630 C 0.86602 0.49023 0.76862 0.0
C631 C 0.89121 0.5065 0.77758 0.0
C632 C 0.89974 0.52337 0.82232 0.0
C633 C 0.90928 0.50438 0.74507 0.0
C634 C 0.85588 0.47201 0.72066 0.0
C635 C 0.91199 0.48378 0.74862 0.0
C636 C 0.93134 0.48307 0.72589 0.0
C637 C 0.94829 0.5028 0.69853 0.0
C638 C 0.94495 0.52293 0.69223 0.0
C639 C 0.92566 0.52382 0.71591 0.0
H640 H 0.83632 0.46544 0.71167 0.0
H641 H 0.8659 0.48011 0.68468 0.0
H642 H 0.85788 0.45597 0.72902 0.0
H643 H 0.89989 0.46878 0.77162 0.0
H644 H 0.93371 0.46746 0.73179 0.0
H645 H 0.26525 0.82457 0.96134 0.0
H646 H 0.29106 0.84755 0.89022 0.0
H647 H 0.33553 0.81484 0.91756 0.0
H648 H 0.31003 0.79191 0.98837 0.0
H649 H 0.36084 0.86747 0.91754 0.0
H650 H 0.29764 0.82213 0.73734 0.0
H651 H 0.2864 0.83184 0.79271 0.0
H652 H 0.2933 0.8078 0.80012 0.0
C653 C 0.28045 0.82219 0.95203 0.0
C654 C 0.28557 0.80641 0.98067 0.0
C655 C 0.29506 0.83518 0.91111 0.0
C656 C 0.315 0.83263 0.89819 0.0
C657 C 0.32011 0.81692 0.92664 0.0
H658 H 0.44084 0.90854 0.7143 0.0
H659 H 0.40758 0.87701 0.76064 0.0
C660 C 0.30551 0.80386 0.96722 0.0
C661 C 0.33163 0.84747 0.85761 0.0
H662 H 0.33608 0.85599 0.72353 0.0
C663 C 0.35546 0.86492 0.8751 0.0
C664 C 0.32444 0.84421 0.80238 0.0
C665 C 0.2991 0.82539 0.78163 0.0
C666 C 0.37234 0.87935 0.839 0.0
C667 C 0.36541 0.87573 0.78349 0.0
C668 C 0.34144 0.85849 0.76595 0.0
C669 C 0.38288 0.89042 0.74393 0.0
C670 C 0.39731 0.89876 0.86094 0.0
C671 C 0.37923 0.907 0.71505 0.0
C672 C 0.39809 0.9248 0.68753 0.0
C673 C 0.42094 0.92637 0.68904 0.0
C674 C 0.42357 0.908 0.71294 0.0
C675 C 0.40463 0.89008 0.73982 0.0
H676 H 0.39766 0.90338 0.90442 0.0
H677 H 0.4102 0.89195 0.85555 0.0
H678 H 0.4038 0.91574 0.83949 0.0
H679 H 0.36247 0.90741 0.71719 0.0
H680 H 0.39544 0.93864 0.6695 0.0
H681 H 0.54113 0.32202 0.10877 0.0
H682 H 0.54456 0.35722 0.06335 0.0
H683 H 0.47215 0.31226 0.99121 0.0
H684 H 0.46847 0.27727 0.03632 0.0
H685 H 0.53829 0.36423 0.9519 0.0
H686 H 0.46973 0.36883 0.07462 0.0
H687 H 0.48449 0.35183 0.09271 0.0
H688 H 0.45946 0.33897 0.04312 0.0
C689 C 0.5261 0.31957 0.08258 0.0
C690 C 0.50443 0.29692 0.0766 0.0
C691 C 0.52805 0.3397 0.0569 0.0
C692 C 0.50837 0.33742 0.0251 0.0
C693 C 0.48732 0.31452 0.01668 0.0
H694 H 0.46221 0.40884 0.81618 0.0
H695 H 0.46825 0.3833 0.87817 0.0
C696 C 0.48532 0.2945 0.04227 0.0
C697 C 0.50928 0.35888 0.00129 0.0
H698 H 0.47867 0.39037 0.99436 0.0
C699 C 0.52561 0.37032 0.96176 0.0
C700 C 0.49279 0.36684 0.01469 0.0
C701 C 0.47578 0.35615 0.059 0.0
C702 C 0.52482 0.38851 0.93282 0.0
C703 C 0.50744 0.39551 0.94432 0.0
C704 C 0.49191 0.38488 0.98559 0.0
C705 C 0.50345 0.41196 0.91045 0.0
C706 C 0.54167 0.39921 0.88826 0.0
C707 C 0.52096 0.43674 0.90932 0.0
C708 C 0.51752 0.45151 0.87401 0.0
C709 C 0.49654 0.44163 0.83916 0.0
C710 C 0.47864 0.41702 0.84216 0.0
C711 C 0.48204 0.40237 0.87759 0.0
H712 H 0.55185 0.3895 0.87988 0.0
H713 H 0.53131 0.39843 0.85093 0.0
H714 H 0.55493 0.4187 0.89958 0.0
H715 H 0.53747 0.44451 0.93496 0.0
H716 H 0.53168 0.47038 0.87268 0.0
H717 H 0.18218 0.42727 0.0371 0.0
H718 H 0.15505 0.42407 0.96107 0.0
H719 H 0.19935 0.50136 0.94328 0.0
H720 H 0.22635 0.50474 0.0184 0.0
H721 H 0.12917 0.44961 0.95558 0.0
H722 H 0.19038 0.4715 0.78927 0.0
H723 H 0.19624 0.46197 0.85243 0.0
H724 H 0.20363 0.49314 0.84629 0.0
C725 C 0.18624 0.44351 0.0166 0.0
C726 C 0.20641 0.46625 0.03394 0.0
C727 C 0.17076 0.44165 0.97319 0.0
C728 C 0.17544 0.46241 0.94595 0.0
C729 C 0.19569 0.48501 0.96288 0.0
H730 H 0.08771 0.50731 0.77997 0.0
H731 H 0.11805 0.50294 0.83289 0.0
C732 C 0.21099 0.48692 0.00628 0.0
C733 C 0.1583 0.46118 0.90265 0.0
H734 H 0.15539 0.47613 0.77391 0.0
C735 C 0.13476 0.45499 0.9156 0.0
C736 C 0.1656 0.46812 0.85039 0.0
C737 C 0.19027 0.47383 0.8335 0.0
C738 C 0.11876 0.45676 0.87856 0.0
C739 C 0.12655 0.46503 0.82743 0.0
C740 C 0.14962 0.47007 0.81341 0.0
C741 C 0.11113 0.46956 0.78947 0.0
C742 C 0.0938 0.45039 0.89472 0.0
C743 C 0.09802 0.4528 0.74595 0.0
C744 C 0.08056 0.4552 0.71542 0.0
C745 C 0.07598 0.47441 0.72812 0.0
C746 C 0.09056 0.49217 0.76927 0.0
C747 C 0.1079 0.48971 0.7997 0.0
H748 H 0.08902 0.44021 0.93162 0.0
H749 H 0.09312 0.46746 0.90241 0.0
H750 H 0.07995 0.4392 0.86193 0.0
H751 H 0.10038 0.43719 0.73741 0.0
H752 H 0.06972 0.44122 0.68404 0.0
H753 H 0.71225 0.20302 0.01012 0.0
H754 H 0.68349 0.17344 0.94145 0.0
H755 H 0.72326 0.1347 0.94048 0.0
H756 H 0.75261 0.16457 0.0097 0.0
H757 H 0.70508 0.14335 0.83193 0.0
H758 H 0.63594 0.10114 0.98186 0.0
H759 H 0.65054 0.13389 0.98247 0.0
H760 H 0.66793 0.11968 1.00056 0.0
C761 C 0.71505 0.18829 0.99542 0.0
C762 C 0.73461 0.186 0.01592 0.0
C763 C 0.69861 0.17147 0.95595 0.0
C764 C 0.70126 0.15193 0.93622 0.0
C765 C 0.72103 0.14978 0.95531 0.0
H766 H 0.5792 0.02322 0.78448 0.0
H767 H 0.61772 0.05149 0.83251 0.0
C768 C 0.73764 0.16673 0.99501 0.0
C769 C 0.68221 0.133 0.89849 0.0
H770 H 0.62233 0.08992 0.89059 0.0
C771 C 0.68702 0.13141 0.84458 0.0
C772 C 0.65879 0.11749 0.91545 0.0
C773 C 0.65293 0.1179 0.97331 0.0
C774 C 0.66866 0.11489 0.80675 0.0
C775 C 0.64499 0.09999 0.8235 0.0
C776 C 0.64046 0.10141 0.87769 0.0
C777 C 0.62442 0.08227 0.78661 0.0
C778 C 0.67474 0.1134 0.74952 0.0
C779 C 0.61578 0.08993 0.7433 0.0
C780 C 0.59374 0.07355 0.71503 0.0
C781 C 0.57993 0.04961 0.73086 0.0
C782 C 0.5893 0.04175 0.77221 0.0
C783 C 0.61135 0.05784 0.79951 0.0
H784 H 0.69453 0.12104 0.74626 0.0
H785 H 0.66506 0.0942 0.73222 0.0
H786 H 0.669 0.12412 0.72516 0.0
H787 H 0.62538 0.10881 0.73317 0.0
H788 H 0.58686 0.07995 0.6831 0.0
H789 H 0.5388 0.72104 0.90969 0.0
H790 H 0.5449 0.69044 0.861 0.0
H791 H 0.61516 0.71937 0.94383 0.0
H792 H 0.60923 0.7503 0.99299 0.0
H793 H 0.58567 0.69633 0.79647 0.0
H794 H 0.57242 0.64462 0.97924 0.0
H795 H 0.56248 0.66673 0.97358 0.0
H796 H 0.59416 0.67686 0.98337 0.0
C797 C 0.55575 0.72121 0.9169 0.0
C798 C 0.57349 0.73794 0.95532 0.0
C799 C 0.55918 0.70372 0.8891 0.0
C800 C 0.5803 0.70254 0.89955 0.0
C801 C 0.59865 0.71997 0.93577 0.0
H802 H 0.59458 0.59501 0.69706 0.0
H803 H 0.60707 0.63025 0.76056 0.0
C804 C 0.59531 0.73769 0.96339 0.0
C805 C 0.58211 0.68208 0.87415 0.0
H806 H 0.57365 0.6256 0.89752 0.0
C807 C 0.58357 0.68105 0.81852 0.0
C808 C 0.57901 0.66217 0.90337 0.0
C809 C 0.57681 0.66239 0.9632 0.0
C810 C 0.58108 0.66013 0.79077 0.0
C811 C 0.57735 0.6399 0.81977 0.0
C812 C 0.57671 0.64126 0.87569 0.0
C813 C 0.57166 0.61649 0.7916 0.0
C814 C 0.58106 0.65932 0.73036 0.0
C815 C 0.54806 0.59643 0.79094 0.0
C816 C 0.54088 0.57615 0.75499 0.0
C817 C 0.55723 0.57586 0.71908 0.0
C818 C 0.58147 0.59497 0.72358 0.0
C819 C 0.58866 0.6151 0.75979 0.0
H820 H 0.57988 0.67475 0.71379 0.0
H821 H 0.59808 0.66036 0.71788 0.0
H822 H 0.56563 0.6419 0.71234 0.0
H823 H 0.53474 0.59719 0.81552 0.0
H824 H 0.52212 0.56165 0.75259 0.0
H825 H 0.53618 0.22662 0.29949 0.0
H826 H 0.5396 0.19647 0.35223 0.0
H827 H 0.46306 0.14646 0.32177 0.0
H828 H 0.45935 0.17626 0.26952 0.0
H829 H 0.51106 0.17092 0.44521 0.0
H830 H 0.49897 0.10916 0.2676 0.0
H831 H 0.5084 0.1411 0.26292 0.0
H832 H 0.47713 0.11926 0.27049 0.0
C833 C 0.52004 0.2093 0.30448 0.0
C834 C 0.49752 0.20382 0.28009 0.0
C835 C 0.52206 0.19211 0.33445 0.0
C836 C 0.50165 0.16917 0.33995 0.0
C837 C 0.47906 0.16396 0.31718 0.0
H838 H 0.46026 0.05254 0.54328 0.0
H839 H 0.46505 0.08543 0.48833 0.0
C840 C 0.47699 0.18111 0.28761 0.0
C841 C 0.50368 0.15042 0.36932 0.0
H842 H 0.49575 0.09291 0.35314 0.0
C843 C 0.50803 0.15399 0.42513 0.0
C844 C 0.49991 0.12849 0.34274 0.0
C845 C 0.49603 0.12424 0.28256 0.0
C846 C 0.5076 0.13562 0.45544 0.0
C847 C 0.50263 0.11322 0.42909 0.0
C848 C 0.49938 0.11008 0.37308 0.0
C849 C 0.49938 0.09241 0.45956 0.0
C850 C 0.512 0.14003 0.51552 0.0
C851 C 0.51681 0.08504 0.46011 0.0
C852 C 0.51418 0.0662 0.49162 0.0
C853 C 0.49396 0.05435 0.52269 0.0
C854 C 0.47609 0.06125 0.52009 0.0
C855 C 0.47882 0.08012 0.4889 0.0
H856 H 0.52038 0.15974 0.52852 0.0
H857 H 0.49445 0.12998 0.53439 0.0
H858 H 0.52394 0.13312 0.53043 0.0
H859 H 0.53273 0.09429 0.43735 0.0
H860 H 0.5283 0.06144 0.49268 0.0
H861 H 0.26807 0.42869 0.27898 0.0
H862 H 0.29184 0.42685 0.35637 0.0
H863 H 0.33624 0.50541 0.36581 0.0
H864 H 0.31266 0.50745 0.29015 0.0
H865 H 0.33967 0.44165 0.36637 0.0
H866 H 0.32102 0.49411 0.52004 0.0
H867 H 0.30291 0.48199 0.45753 0.0
H868 H 0.33079 0.51093 0.46139 0.0
C869 C 0.2828 0.44554 0.2979 0.0
C870 C 0.28836 0.46821 0.27846 0.0
C871 C 0.29629 0.44448 0.3422 0.0
C872 C 0.3154 0.46605 0.36792 0.0
C873 C 0.32107 0.48857 0.348 0.0
H874 H 0.45089 0.52616 0.50978 0.0
H875 H 0.40984 0.51512 0.47747 0.0
C876 C 0.30767 0.48966 0.30415 0.0
C877 C 0.33099 0.46545 0.4127 0.0
H878 H 0.3602 0.4958 0.53227 0.0
C879 C 0.3436 0.45283 0.40346 0.0
C880 C 0.336 0.47987 0.46141 0.0
C881 C 0.32172 0.49225 0.47588 0.0
C882 C 0.36261 0.45609 0.43924 0.0
C883 C 0.36907 0.47232 0.48535 0.0
C884 C 0.35527 0.48345 0.49673 0.0
C885 C 0.39247 0.48107 0.51615 0.0
C886 C 0.37695 0.44368 0.42551 0.0
C887 C 0.39609 0.46614 0.55094 0.0
C888 C 0.41961 0.47271 0.57037 0.0
C889 C 0.43959 0.4941 0.55459 0.0
C890 C 0.43568 0.50979 0.52308 0.0
C891 C 0.41228 0.50344 0.50443 0.0
H892 H 0.36983 0.4319 0.38762 0.0
H893 H 0.39621 0.45763 0.42153 0.0
H894 H 0.37644 0.43221 0.45837 0.0
H895 H 0.38097 0.44876 0.56023 0.0
H896 H 0.42232 0.46012 0.59372 0.0
H897 H 0.82207 0.30618 0.23384 0.0
H898 H 0.85899 0.3407 0.27466 0.0
H899 H 0.89866 0.3036 0.23803 0.0
H900 H 0.86136 0.26848 0.19606 0.0
H901 H 0.90549 0.32525 0.34716 0.0
H902 H 0.91784 0.39098 0.19512 0.0
H903 H 0.88742 0.37462 0.21612 0.0
H904 H 0.89982 0.35824 0.18137 0.0
C905 C 0.83856 0.30517 0.23429 0.0
C906 C 0.83876 0.28455 0.21137 0.0
C907 C 0.85971 0.32509 0.25726 0.0
C908 C 0.8816 0.32493 0.25794 0.0
C909 C 0.88192 0.30413 0.23693 0.0
H910 H 0.00574 0.43226 0.46426 0.0
H911 H 0.98483 0.40302 0.38718 0.0
C912 C 0.86062 0.28407 0.21342 0.0
C913 C 0.90357 0.34622 0.28377 0.0
H914 H 0.93699 0.40838 0.28309 0.0
C915 C 0.9129 0.34338 0.33265 0.0
C916 C 0.91296 0.36979 0.26459 0.0
C917 C 0.90415 0.37362 0.21114 0.0
C918 C 0.93019 0.36374 0.36497 0.0
C919 C 0.93877 0.38749 0.34702 0.0
C920 C 0.93038 0.39019 0.29669 0.0
C921 C 0.95458 0.40956 0.38256 0.0
C922 C 0.93785 0.35969 0.41961 0.0
C923 C 0.94552 0.42443 0.40218 0.0
C924 C 0.95773 0.44156 0.4455 0.0
C925 C 0.9789 0.44368 0.46978 0.0
C926 C 0.98923 0.43065 0.44643 0.0
C927 C 0.97727 0.41389 0.40269 0.0
H928 H 0.92592 0.34078 0.43135 0.0
H929 H 0.9566 0.36283 0.41919 0.0
H930 H 0.93766 0.37266 0.45067 0.0
H931 H 0.9281 0.42147 0.38681 0.0
H932 H 0.94944 0.45139 0.46298 0.0
H933 H 0.52073 0.80941 0.15629 0.0
H934 H 0.52317 0.84541 0.20264 0.0
H935 H 0.60026 0.87655 0.23274 0.0
H936 H 0.59812 0.84056 0.18605 0.0
H937 H 0.57107 0.87745 0.3237 0.0
H938 H 0.55645 0.91496 0.13788 0.0
H939 H 0.53574 0.88315 0.146 0.0
H940 H 0.5671 0.89324 0.13732 0.0
C941 C 0.5382 0.82373 0.17329 0.0
C942 C 0.55927 0.82216 0.16732 0.0
C943 C 0.53955 0.84437 0.19931 0.0
C944 C 0.56194 0.86372 0.21996 0.0
C945 C 0.58286 0.86181 0.21638 0.0
H946 H 0.59787 0.99405 0.41933 0.0
H947 H 0.60131 0.96508 0.35748 0.0
C948 C 0.58158 0.84122 0.18999 0.0
C949 C 0.56337 0.88586 0.24568 0.0
H950 H 0.55654 0.93485 0.2205 0.0
C951 C 0.56813 0.89016 0.30124 0.0
C952 C 0.55928 0.90214 0.21597 0.0
C953 C 0.55451 0.89835 0.1559 0.0
C954 C 0.5683 0.9101 0.32837 0.0
C955 C 0.56435 0.92656 0.2987 0.0
C956 C 0.55975 0.92232 0.24296 0.0
C957 C 0.56405 0.94766 0.32572 0.0
C958 C 0.57183 0.91281 0.38878 0.0
C959 C 0.54257 0.94879 0.32474 0.0
C960 C 0.54074 0.96575 0.35915 0.0
C961 C 0.56031 0.98152 0.39514 0.0
C962 C 0.58246 0.98188 0.39225 0.0
C963 C 0.5844 0.96526 0.35729 0.0
H964 H 0.56836 0.89549 0.40584 0.0
H965 H 0.59083 0.92694 0.40079 0.0
H966 H 0.55964 0.91862 0.40675 0.0
H967 H 0.52673 0.93546 0.30021 0.0
H968 H 0.52344 0.96506 0.36087 0.0
H969 H 0.69101 0.46138 0.15029 0.0
H970 H 0.66115 0.45643 0.21573 0.0
H971 H 0.70293 0.53326 0.26418 0.0
H972 H 0.73255 0.53845 0.19924 0.0
H973 H 0.68607 0.4972 0.3515 0.0
H974 H 0.61385 0.48631 0.2023 0.0
H975 H 0.6287 0.46873 0.1907 0.0
H976 H 0.64537 0.50125 0.18723 0.0
C977 C 0.69381 0.4772 0.17486 0.0
C978 C 0.71414 0.50032 0.16921 0.0
C979 C 0.67673 0.47435 0.21216 0.0
C980 C 0.67981 0.49452 0.24466 0.0
C981 C 0.7002 0.51747 0.23952 0.0
H982 H 0.61588 0.53812 0.49104 0.0
H983 H 0.64269 0.53123 0.43471 0.0
C984 C 0.71708 0.52038 0.20212 0.0
C985 C 0.66186 0.4921 0.28391 0.0
H986 H 0.60657 0.48788 0.29322 0.0
C987 C 0.66856 0.49489 0.33887 0.0
C988 C 0.63902 0.48899 0.26734 0.0
C989 C 0.63115 0.48623 0.20873 0.0
C990 C 0.65315 0.49501 0.37775 0.0
C991 C 0.63071 0.49302 0.3612 0.0
C992 C 0.62374 0.48945 0.30613 0.0
C993 C 0.61477 0.49594 0.39973 0.0
C994 C 0.66109 0.49713 0.43615 0.0
C995 C 0.58997 0.47852 0.39897 0.0
C996 C 0.57445 0.48259 0.43075 0.0
C997 C 0.58335 0.50421 0.46406 0.0
C998 C 0.60836 0.52117 0.46633 0.0
C999 C 0.62381 0.51718 0.43421 0.0
H1000 H 0.67357 0.48978 0.44207 0.0
H1001 H 0.67104 0.5167 0.45073 0.0
H1002 H 0.64537 0.48725 0.46096 0.0
H1003 H 0.58248 0.46201 0.37271 0.0
H1004 H 0.55532 0.4691 0.42786 0.0
H1005 H 0.16929 0.74824 0.16434 0.0
H1006 H 0.13515 0.72173 0.21725 0.0
H1007 H 0.17721 0.69188 0.28489 0.0
H1008 H 0.21114 0.71817 0.23321 0.0
H1009 H 0.11062 0.66992 0.21254 0.0
H1010 H 0.15114 0.70914 0.41673 0.0
H1011 H 0.16333 0.72535 0.35755 0.0
H1012 H 0.1706 0.7026 0.37767 0.0
C1013 C 0.17136 0.73634 0.19127 0.0
C1014 C 0.19295 0.73536 0.19465 0.0
C1015 C 0.15183 0.72114 0.2212 0.0
C1016 C 0.15377 0.70505 0.25541 0.0
C1017 C 0.17546 0.70446 0.25952 0.0
H1018 H 0.05413 0.56758 0.37426 0.0
H1019 H 0.08013 0.60089 0.31941 0.0
C1020 C 0.19483 0.71946 0.22965 0.0
C1021 C 0.13294 0.68775 0.285 0.0
H1022 H 0.11781 0.66786 0.40996 0.0
C1023 C 0.11195 0.66967 0.25581 0.0
C1024 C 0.13459 0.68762 0.34143 0.0
C1025 C 0.15604 0.70738 0.37523 0.0
C1026 C 0.09308 0.65072 0.28143 0.0
C1027 C 0.09553 0.64964 0.33753 0.0
C1028 C 0.11601 0.66846 0.36687 0.0
C1029 C 0.07761 0.62894 0.36686 0.0
C1030 C 0.07081 0.63203 0.24812 0.0
C1031 C 0.06765 0.63357 0.41198 0.0
C1032 C 0.05317 0.61467 0.44382 0.0
C1033 C 0.04822 0.59065 0.43119 0.0
C1034 C 0.05744 0.58583 0.38485 0.0
C1035 C 0.07219 0.60485 0.35324 0.0
H1036 H 0.0682 0.6396 0.21082 0.0
H1037 H 0.07297 0.61612 0.23633 0.0
H1038 H 0.05428 0.62549 0.27089 0.0
H1039 H 0.07158 0.65198 0.42335 0.0
H1040 H 0.04621 0.61902 0.479 0.0
loop_
_geom_bond_atom_site_label_1
_geom_bond_atom_site_label_2
_geom_bond_distance
_geom_bond_site_symmetry_2
_ccdc_geom_bond_type
C0 O2 1.247 . S
C0 O4 1.258 . S
C1 O8 1.247 . S
C1 O9 1.258 . S
O2 C0 1.247 . S
O2 Zn3 2.028 . S
Zn3 O2 2.028 . S
Zn3 O7 2.035 . S
Zn3 O9 2.035 . S
Zn3 O10 2.028 . S
O4 C0 1.258 . S
O4 Zn5 2.035 . S
Zn5 O4 2.035 . S
Zn5 O6 2.028 . S
Zn5 O8 2.028 . S
Zn5 O11 2.035 . S
O6 Zn5 2.028 . S
O6 C12 1.247 . S
O7 Zn3 2.035 . S
O7 C12 1.258 . S
O8 C1 1.247 . S
O8 Zn5 2.028 . S
O9 C1 1.258 . S
O9 Zn3 2.035 . S
O10 Zn3 2.028 . S
O10 C13 1.247 . S
O11 Zn5 2.035 . S
O11 C13 1.258 . S
C12 O6 1.247 . S
C12 O7 1.258 . S
C13 O10 1.247 . S
C13 O11 1.258 . S
C14 O16 1.247 . S
C14 O18 1.258 . S
C15 O22 1.247 . S
C15 O23 1.258 . S
O16 C14 1.247 . S
O16 Zn17 2.028 . S
Zn17 O16 2.028 . S
Zn17 O21 2.035 . S
Zn17 O23 2.035 . S
Zn17 O24 2.028 . S
O18 C14 1.258 . S
O18 Zn19 2.035 . S
Zn19 O18 2.035 . S
Zn19 O20 2.028 . S
Zn19 O22 2.028 . S
Zn19 O25 2.035 . S
O20 Zn19 2.028 . S
O20 C26 1.247 . S
O21 Zn17 2.035 . S
O21 C26 1.258 . S
O22 C15 1.247 . S
O22 Zn19 2.028 . S
O23 C15 1.258 . S
O23 Zn17 2.035 . S
O24 Zn17 2.028 . S
O24 C27 1.247 . S
O25 Zn19 2.035 . S
O25 C27 1.258 . S
C26 O20 1.247 . S
C26 O21 1.258 . S
C27 O24 1.247 . S
C27 O25 1.258 . S
C28 O30 1.247 . S
C28 O32 1.258 . S
C29 O36 1.247 . S
C29 O37 1.258 . S
O30 C28 1.247 . S
O30 Zn31 2.028 . S
Zn31 O30 2.028 . S
Zn31 O35 2.035 . S
Zn31 O37 2.035 1_554 S
Zn31 O38 2.028 1_554 S
O32 C28 1.258 . S
O32 Zn33 2.035 . S
Zn33 O32 2.035 . S
Zn33 O34 2.028 . S
Zn33 O36 2.028 1_554 S
Zn33 O39 2.035 1_554 S
O34 Zn33 2.028 . S
O34 C40 1.247 . S
O35 Zn31 2.035 . S
O35 C40 1.258 . S
O36 C29 1.247 . S
O36 Zn33 2.028 1_556 S
O37 C29 1.258 . S
O37 Zn31 2.035 1_556 S
O38 Zn31 2.028 1_556 S
O38 C41 1.247 . S
O39 Zn33 2.035 1_556 S
O39 C41 1.258 . S
C40 O34 1.247 . S
C40 O35 1.258 . S
C41 O38 1.247 . S
C41 O39 1.258 . S
C42 O44 1.247 1_556 S
C42 O46 1.258 1_556 S
C43 O50 1.247 . S
C43 O51 1.258 . S
O44 C42 1.247 1_554 S
O44 Zn45 2.028 . S
Zn45 O44 2.028 . S
Zn45 O49 2.035 . S
Zn45 O51 2.035 . S
Zn45 O52 2.028 . S
O46 C42 1.258 1_554 S
O46 Zn47 2.035 . S
Zn47 O46 2.035 . S
Zn47 O48 2.028 . S
Zn47 O50 2.028 . S
Zn47 O53 2.035 . S
O48 Zn47 2.028 . S
O48 C54 1.247 1_554 S
O49 Zn45 2.035 . S
O49 C54 1.258 1_554 S
O50 C43 1.247 . S
O50 Zn47 2.028 . S
O51 C43 1.258 . S
O51 Zn45 2.035 . S
O52 Zn45 2.028 . S
O52 C55 1.247 . S
O53 Zn47 2.035 . S
O53 C55 1.258 . S
C54 O48 1.247 1_556 S
C54 O49 1.258 1_556 S
C55 O52 1.247 . S
C55 O53 1.258 . S
C56 O58 1.247 . S
C56 O60 1.258 . S
C57 O64 1.247 . S
C57 O65 1.258 . S
O58 C56 1.247 . S
O58 Zn59 2.028 . S
Zn59 O58 2.028 . S
Zn59 O63 2.035 . S
Zn59 O65 2.035 . S
Zn59 O66 2.028 . S
O60 C56 1.258 . S
O60 Zn61 2.035 . S
Zn61 O60 2.035 . S
Zn61 O62 2.028 . S
Zn61 O64 2.028 . S
Zn61 O67 2.035 . S
O62 Zn61 2.028 . S
O62 C68 1.247 . S
O63 Zn59 2.035 . S
O63 C68 1.258 . S
O64 C57 1.247 . S
O64 Zn61 2.028 . S
O65 C57 1.258 . S
O65 Zn59 2.035 . S
O66 Zn59 2.028 . S
O66 C69 1.247 . S
O67 Zn61 2.035 . S
O67 C69 1.258 . S
C68 O62 1.247 . S
C68 O63 1.258 . S
C69 O66 1.247 . S
C69 O67 1.258 . S
C70 O72 1.247 . S
C70 O74 1.258 . S
C71 O78 1.247 . S
C71 O79 1.258 . S
O72 C70 1.247 . S
O72 Zn73 2.028 . S
Zn73 O72 2.028 . S
Zn73 O77 2.035 . S
Zn73 O79 2.035 . S
Zn73 O80 2.028 . S
O74 C70 1.258 . S
O74 Zn75 2.035 . S
Zn75 O74 2.035 . S
Zn75 O76 2.028 . S
Zn75 O78 2.028 . S
Zn75 O81 2.035 . S
O76 Zn75 2.028 . S
O76 C82 1.247 . S
O77 Zn73 2.035 . S
O77 C82 1.258 . S
O78 C71 1.247 . S
O78 Zn75 2.028 . S
O79 C71 1.258 . S
O79 Zn73 2.035 . S
O80 Zn73 2.028 . S
O80 C83 1.247 . S
O81 Zn75 2.035 . S
O81 C83 1.258 . S
C82 O76 1.247 . S
C82 O77 1.258 . S
C83 O80 1.247 . S
C83 O81 1.258 . S
C84 O96 1.241 . S
C84 O97 1.280 . S
C85 O98 1.277 . S
C85 O99 1.245 . S
C86 O110 1.247 . S
C86 O112 1.289 . S
Mg87 O88 1.906 . S
Mg87 O97 1.959 1_455 S
Mg87 O99 2.027 . S
Mg87 O100 2.041 1_455 S
O88 Mg87 1.906 . S
O88 Mg89 1.986 . S
O88 Mg90 1.917 . S
Mg89 O88 1.986 . S
Mg89 O96 2.042 1_455 S
Mg89 O98 2.041 . S
Mg89 O104 2.038 1_455 S
Mg89 O112 2.238 . S
Mg90 O88 1.917 . S
Mg90 O91 1.917 . S
Mg90 O101 2.106 1_455 S
Mg90 O103 2.079 1_455 S
Mg90 O112 2.106 . S
Mg90 O113 2.079 . S
O91 Mg90 1.917 . S
O91 Mg92 1.926 . S
O91 Mg93 1.986 . S
Mg92 O91 1.926 . S
Mg92 O106 1.984 . S
Mg92 O109 1.988 1_455 S
Mg92 O110 2.061 . S
Mg93 O91 1.986 . S
Mg93 O101 2.238 1_455 S
Mg93 O105 2.042 . S
Mg93 O107 2.041 1_455 S
Mg93 O114 2.038 . S
C94 O100 1.247 . S
C94 O101 1.289 . S
C95 O113 1.245 . S
C95 O114 1.274 . S
O96 C84 1.241 . S
O96 Mg89 2.042 1_655 S
O97 C84 1.280 . S
O97 Mg87 1.959 1_655 S
O98 C85 1.277 . S
O98 Mg89 2.041 . S
O99 C85 1.245 . S
O99 Mg87 2.027 . S
O100 Mg87 2.041 1_655 S
O100 C94 1.247 . S
O101 Mg90 2.106 1_655 S
O101 Mg93 2.238 1_655 S
O101 C94 1.289 . S
C102 O103 1.245 . S
C102 O104 1.274 . S
O103 Mg90 2.079 1_655 S
O103 C102 1.245 . S
O104 Mg89 2.038 1_655 S
O104 C102 1.274 . S
O105 Mg93 2.042 . S
O105 C108 1.241 . S
O106 Mg92 1.984 . S
O106 C108 1.280 . S
O107 Mg93 2.041 1_655 S
O107 C111 1.277 . S
C108 O105 1.241 . S
C108 O106 1.280 . S
O109 Mg92 1.988 1_655 S
O109 C111 1.245 . S
O110 C86 1.247 . S
O110 Mg92 2.061 . S
C111 O107 1.277 . S
C111 O109 1.245 . S
O112 C86 1.289 . S
O112 Mg89 2.238 . S
O112 Mg90 2.106 . S
O113 Mg90 2.079 . S
O113 C95 1.245 . S
O114 Mg93 2.038 . S
O114 C95 1.274 . S
C115 O127 1.241 . S
C115 O128 1.280 . S
C116 O129 1.277 . S
C116 O130 1.245 . S
C117 O141 1.247 . S
C117 O143 1.289 . S
Mg118 O119 1.926 . S
Mg118 O128 1.984 . S
Mg118 O130 1.988 1_545 S
Mg118 O131 2.061 . S
O119 Mg118 1.926 . S
O119 Mg120 1.986 . S
O119 Mg121 1.917 . S
Mg120 O119 1.986 . S
Mg120 O127 2.042 . S
Mg120 O129 2.041 1_545 S
Mg120 O135 2.038 . S
Mg120 O143 2.238 1_545 S
Mg121 O119 1.917 . S
Mg121 O122 1.917 1_545 S
Mg121 O132 2.106 . S
Mg121 O134 2.079 . S
Mg121 O143 2.106 1_545 S
Mg121 O144 2.079 1_545 S
O122 Mg121 1.917 1_565 S
O122 Mg123 1.926 . S
O122 Mg124 1.986 1_565 S
Mg123 O122 1.926 . S
Mg123 O137 1.984 . S
Mg123 O140 1.988 1_565 S
Mg123 O141 2.061 . S
Mg124 O122 1.986 1_545 S
Mg124 O132 2.238 . S
Mg124 O136 2.042 1_545 S
Mg124 O138 2.041 . S
Mg124 O145 2.038 1_545 S
C125 O131 1.247 . S
C125 O132 1.289 . S
C126 O144 1.245 . S
C126 O145 1.274 . S
O127 C115 1.241 . S
O127 Mg120 2.042 . S
O128 C115 1.280 . S
O128 Mg118 1.984 . S
O129 C116 1.277 . S
O129 Mg120 2.041 1_565 S
O130 C116 1.245 . S
O130 Mg118 1.988 1_565 S
O131 Mg118 2.061 . S
O131 C125 1.247 . S
O132 Mg121 2.106 . S
O132 Mg124 2.238 . S
O132 C125 1.289 . S
C133 O134 1.245 . S
C133 O135 1.274 . S
O134 Mg121 2.079 . S
O134 C133 1.245 . S
O135 Mg120 2.038 . S
O135 C133 1.274 . S
O136 Mg124 2.042 1_565 S
O136 C139 1.241 . S
O137 Mg123 1.984 . S
O137 C139 1.280 . S
O138 Mg124 2.041 . S
O138 C142 1.277 . S
C139 O136 1.241 . S
C139 O137 1.280 . S
O140 Mg123 1.988 1_545 S
O140 C142 1.245 . S
O141 C117 1.247 . S
O141 Mg123 2.061 . S
C142 O138 1.277 . S
C142 O140 1.245 . S
O143 C117 1.289 . S
O143 Mg120 2.238 1_565 S
O143 Mg121 2.106 1_565 S
O144 Mg121 2.079 1_565 S
O144 C126 1.245 . S
O145 Mg124 2.038 1_565 S
O145 C126 1.274 . S
C146 O158 1.241 . S
C146 O159 1.280 . S
C147 O160 1.277 . S
C147 O161 1.245 . S
C148 O172 1.247 . S
C148 O174 1.289 . S
Mg149 O150 1.926 . S
Mg149 O159 1.984 . S
Mg149 O161 1.988 . S
Mg149 O162 2.061 . S
O150 Mg149 1.926 . S
O150 Mg151 1.986 . S
O150 Mg152 1.917 . S
Mg151 O150 1.986 . S
Mg151 O158 2.042 . S
Mg151 O160 2.041 . S
Mg151 O166 2.038 . S
Mg151 O174 2.238 . S
Mg152 O150 1.917 . S
Mg152 O153 1.917 . S
Mg152 O163 2.106 . S
Mg152 O165 2.079 . S
Mg152 O174 2.106 . S
Mg152 O175 2.079 . S
O153 Mg152 1.917 . S
O153 Mg154 1.926 . S
O153 Mg155 1.986 . S
Mg154 O153 1.926 . S
Mg154 O168 1.984 . S
Mg154 O171 1.988 . S
Mg154 O172 2.061 . S
Mg155 O153 1.986 . S
Mg155 O163 2.238 . S
Mg155 O167 2.042 . S
Mg155 O169 2.041 . S
Mg155 O176 2.038 . S
C156 O162 1.247 . S
C156 O163 1.289 . S
C157 O175 1.245 . S
C157 O176 1.274 . S
O158 C146 1.241 . S
O158 Mg151 2.042 . S
O159 C146 1.280 . S
O159 Mg149 1.984 . S
O160 C147 1.277 . S
O160 Mg151 2.041 . S
O161 C147 1.245 . S
O161 Mg149 1.988 . S
O162 Mg149 2.061 . S
O162 C156 1.247 . S
O163 Mg152 2.106 . S
O163 Mg155 2.238 . S
O163 C156 1.289 . S
C164 O165 1.245 . S
C164 O166 1.274 . S
O165 Mg152 2.079 . S
O165 C164 1.245 . S
O166 Mg151 2.038 . S
O166 C164 1.274 . S
O167 Mg155 2.042 . S
O167 C170 1.241 . S
O168 Mg154 1.984 . S
O168 C170 1.280 . S
O169 Mg155 2.041 . S
O169 C173 1.277 . S
C170 O167 1.241 . S
C170 O168 1.280 . S
O171 Mg154 1.988 . S
O171 C173 1.245 . S
O172 C148 1.247 . S
O172 Mg154 2.061 . S
C173 O169 1.277 . S
C173 O171 1.245 . S
O174 C148 1.289 . S
O174 Mg151 2.238 . S
O174 Mg152 2.106 . S
O175 Mg152 2.079 . S
O175 C157 1.245 . S
O176 Mg155 2.038 . S
O176 C157 1.274 . S
H177 C185 0.929 . S
H178 C187 0.930 . S
H179 C189 0.930 . S
H180 C192 0.929 . S
H181 C195 0.930 . S
H182 C197 0.960 . S
H183 C197 0.960 . S
H184 C197 0.960 . S
C185 H177 0.929 . S
C185 C186 1.377 . S
C185 C187 1.384 . S
C186 C185 1.377 . S
C186 C192 1.390 . S
C187 H178 0.930 . S
C187 C185 1.384 . S
C187 C188 1.372 . S
C188 C187 1.372 . S
C188 C189 1.400 . S
C188 C193 1.490 . S
C189 H179 0.930 . S
C189 C188 1.400 . S
C189 C192 1.386 . S
H190 C206 0.930 . S
H191 C207 0.931 . S
C192 H180 0.929 . S
C192 C186 1.390 . S
C192 C189 1.386 . S
C193 C188 1.490 . S
C193 C195 1.395 . S
C193 C196 1.403 . S
H194 C200 0.930 . S
C195 H181 0.930 . S
C195 C193 1.395 . S
C195 C198 1.403 . S
C196 C193 1.403 . S
C196 C197 1.524 . S
C196 C200 1.400 . S
C197 H182 0.960 . S
C197 H183 0.960 . S
C197 H184 0.960 . S
C197 C196 1.524 . S
C198 C195 1.403 . S
C198 C199 1.392 . S
C198 C202 1.495 . S
C199 C198 1.392 . S
C199 C200 1.385 . S
C199 C201 1.478 . S
C200 H194 0.930 . S
C200 C196 1.400 . S
C200 C199 1.385 . S
C201 C199 1.478 . S
C201 C203 1.381 . S
C201 C207 1.383 . S
C202 C198 1.495 . S
C202 H208 0.959 . S
C202 H209 0.961 . S
C202 H210 0.960 . S
C203 C201 1.381 . S
C203 C204 1.394 . S
C203 H211 0.930 . S
C204 C203 1.394 . S
C204 C205 1.383 . S
C204 H212 0.929 . S
C205 C204 1.383 . S
C205 C206 1.377 . S
C206 H190 0.930 . S
C206 C205 1.377 . S
C206 C207 1.379 . S
C207 H191 0.931 . S
C207 C201 1.383 . S
C207 C206 1.379 . S
H208 C202 0.959 . S
H209 C202 0.961 . S
H210 C202 0.960 . S
H211 C203 0.930 . S
H212 C204 0.929 . S
H213 C221 0.929 . S
H214 C223 0.930 . S
H215 C225 0.930 . S
H216 C228 0.929 . S
H217 C231 0.930 . S
H218 C233 0.960 . S
H219 C233 0.960 . S
H220 C233 0.960 . S
C221 H213 0.929 . S
C221 C222 1.377 . S
C221 C223 1.384 . S
C222 C221 1.377 . S
C222 C228 1.390 . S
C223 H214 0.930 . S
C223 C221 1.384 . S
C223 C224 1.372 . S
C224 C223 1.372 . S
C224 C225 1.400 . S
C224 C229 1.490 . S
C225 H215 0.930 . S
C225 C224 1.400 . S
C225 C228 1.386 . S
H226 C242 0.930 . S
H227 C243 0.931 . S
C228 H216 0.929 . S
C228 C222 1.390 . S
C228 C225 1.386 . S
C229 C224 1.490 . S
C229 C231 1.395 . S
C229 C232 1.403 . S
H230 C236 0.930 . S
C231 H217 0.930 . S
C231 C229 1.395 . S
C231 C234 1.403 . S
C232 C229 1.403 . S
C232 C233 1.524 . S
C232 C236 1.400 . S
C233 H218 0.960 . S
C233 H219 0.960 . S
C233 H220 0.960 . S
C233 C232 1.524 . S
C234 C231 1.403 . S
C234 C235 1.392 . S
C234 C238 1.495 . S
C235 C234 1.392 . S
C235 C236 1.385 . S
C235 C237 1.478 . S
C236 H230 0.930 . S
C236 C232 1.400 . S
C236 C235 1.385 . S
C237 C235 1.478 . S
C237 C239 1.381 . S
C237 C243 1.383 . S
C238 C234 1.495 . S
C238 H244 0.959 . S
C238 H245 0.961 . S
C238 H246 0.960 . S
C239 C237 1.381 . S
C239 C240 1.394 . S
C239 H247 0.930 . S
C240 C239 1.394 . S
C240 C241 1.383 . S
C240 H248 0.929 . S
C241 C240 1.383 . S
C241 C242 1.377 . S
C242 H226 0.930 . S
C242 C241 1.377 . S
C242 C243 1.379 . S
C243 H227 0.931 . S
C243 C237 1.383 . S
C243 C242 1.379 . S
H244 C238 0.959 . S
H245 C238 0.961 . S
H246 C238 0.960 . S
H247 C239 0.930 . S
H248 C240 0.929 . S
H249 C257 0.929 . S
H250 C259 0.930 . S
H251 C261 0.930 . S
H252 C264 0.929 . S
H253 C267 0.930 . S
H254 C269 0.960 . S
H255 C269 0.960 . S
H256 C269 0.960 . S
C257 H249 0.929 . S
C257 C258 1.377 . S
C257 C259 1.384 . S
C258 C257 1.377 . S
C258 C264 1.390 . S
C259 H250 0.930 . S
C259 C257 1.384 . S
C259 C260 1.372 . S
C260 C259 1.372 . S
C260 C261 1.400 . S
C260 C265 1.490 . S
C261 H251 0.930 . S
C261 C260 1.400 . S
C261 C264 1.386 . S
H262 C278 0.930 . S
H263 C279 0.931 . S
C264 H252 0.929 . S
C264 C258 1.390 . S
C264 C261 1.386 . S
C265 C260 1.490 . S
C265 C267 1.395 . S
C265 C268 1.403 . S
H266 C272 0.930 . S
C267 H253 0.930 . S
C267 C265 1.395 . S
C267 C270 1.403 . S
C268 C265 1.403 . S
C268 C269 1.524 . S
C268 C272 1.400 . S
C269 H254 0.960 . S
C269 H255 0.960 . S
C269 H256 0.960 . S
C269 C268 1.524 . S
C270 C267 1.403 . S
C270 C271 1.392 . S
C270 C274 1.495 . S
C271 C270 1.392 . S
C271 C272 1.385 . S
C271 C273 1.478 . S
C272 H266 0.930 . S
C272 C268 1.400 . S
C272 C271 1.385 . S
C273 C271 1.478 . S
C273 C275 1.381 . S
C273 C279 1.383 . S
C274 C270 1.495 . S
C274 H280 0.959 . S
C274 H281 0.961 . S
C274 H282 0.960 . S
C275 C273 1.381 . S
C275 C276 1.394 . S
C275 H283 0.930 . S
C276 C275 1.394 . S
C276 C277 1.383 . S
C276 H284 0.929 . S
C277 C276 1.383 . S
C277 C278 1.377 . S
C278 H262 0.930 . S
C278 C277 1.377 . S
C278 C279 1.379 . S
C279 H263 0.931 . S
C279 C273 1.383 . S
C279 C278 1.379 . S
H280 C274 0.959 . S
H281 C274 0.961 . S
H282 C274 0.960 . S
H283 C275 0.930 . S
H284 C276 0.929 . S
H285 C293 0.929 . S
H286 C295 0.930 . S
H287 C297 0.930 . S
H288 C300 0.929 . S
H289 C303 0.930 . S
H290 C305 0.960 . S
H291 C305 0.960 . S
H292 C305 0.960 . S
C293 H285 0.929 . S
C293 C294 1.377 . S
C293 C295 1.384 . S
C294 C293 1.377 . S
C294 C300 1.390 . S
C295 H286 0.930 . S
C295 C293 1.384 . S
C295 C296 1.372 . S
C296 C295 1.372 . S
C296 C297 1.400 . S
C296 C301 1.490 . S
C297 H287 0.930 . S
C297 C296 1.400 . S
C297 C300 1.386 . S
H298 C314 0.930 . S
H299 C315 0.931 . S
C300 H288 0.929 . S
C300 C294 1.390 . S
C300 C297 1.386 . S
C301 C296 1.490 . S
C301 C303 1.395 . S
C301 C304 1.403 . S
H302 C308 0.930 . S
C303 H289 0.930 . S
C303 C301 1.395 . S
C303 C306 1.403 . S
C304 C301 1.403 . S
C304 C305 1.524 . S
C304 C308 1.400 . S
C305 H290 0.960 . S
C305 H291 0.960 . S
C305 H292 0.960 . S
C305 C304 1.524 . S
C306 C303 1.403 . S
C306 C307 1.392 . S
C306 C310 1.495 . S
C307 C306 1.392 . S
C307 C308 1.385 . S
C307 C309 1.478 . S
C308 H302 0.930 . S
C308 C304 1.400 . S
C308 C307 1.385 . S
C309 C307 1.478 . S
C309 C311 1.381 . S
C309 C315 1.383 . S
C310 C306 1.495 . S
C310 H316 0.959 . S
C310 H317 0.961 . S
C310 H318 0.960 . S
C311 C309 1.381 . S
C311 C312 1.394 . S
C311 H319 0.930 . S
C312 C311 1.394 . S
C312 C313 1.383 . S
C312 H320 0.929 . S
C313 C312 1.383 . S
C313 C314 1.377 . S
C314 H298 0.930 . S
C314 C313 1.377 . S
C314 C315 1.379 . S
C315 H299 0.931 . S
C315 C309 1.383 . S
C315 C314 1.379 . S
H316 C310 0.959 . S
H317 C310 0.961 . S
H318 C310 0.960 . S
H319 C311 0.930 . S
H320 C312 0.929 . S
H321 C329 0.929 . S
H322 C331 0.930 . S
H323 C333 0.930 . S
H324 C336 0.929 . S
H325 C339 0.930 . S
H326 C341 0.960 . S
H327 C341 0.960 . S
H328 C341 0.960 . S
C329 H321 0.929 . S
C329 C330 1.377 . S
C329 C331 1.384 . S
C330 C329 1.377 . S
C330 C336 1.390 . S
C331 H322 0.930 . S
C331 C329 1.384 . S
C331 C332 1.372 . S
C332 C331 1.372 . S
C332 C333 1.400 . S
C332 C337 1.490 . S
C333 H323 0.930 . S
C333 C332 1.400 . S
C333 C336 1.386 . S
H334 C350 0.930 . S
H335 C351 0.931 . S
C336 H324 0.929 . S
C336 C330 1.390 . S
C336 C333 1.386 . S
C337 C332 1.490 . S
C337 C339 1.395 . S
C337 C340 1.403 . S
H338 C344 0.930 . S
C339 H325 0.930 . S
C339 C337 1.395 . S
C339 C342 1.403 . S
C340 C337 1.403 . S
C340 C341 1.524 . S
C340 C344 1.400 . S
C341 H326 0.960 . S
C341 H327 0.960 . S
C341 H328 0.960 . S
C341 C340 1.524 . S
C342 C339 1.403 . S
C342 C343 1.392 . S
C342 C346 1.495 . S
C343 C342 1.392 . S
C343 C344 1.385 . S
C343 C345 1.478 . S
C344 H338 0.930 . S
C344 C340 1.400 . S
C344 C343 1.385 . S
C345 C343 1.478 . S
C345 C347 1.381 . S
C345 C351 1.383 . S
C346 C342 1.495 . S
C346 H352 0.959 . S
C346 H353 0.961 . S
C346 H354 0.960 . S
C347 C345 1.381 . S
C347 C348 1.394 . S
C347 H355 0.930 . S
C348 C347 1.394 . S
C348 C349 1.383 . S
C348 H356 0.929 . S
C349 C348 1.383 . S
C349 C350 1.377 . S
C350 H334 0.930 . S
C350 C349 1.377 . S
C350 C351 1.379 . S
C351 H335 0.931 . S
C351 C345 1.383 . S
C351 C350 1.379 . S
H352 C346 0.959 . S
H353 C346 0.961 . S
H354 C346 0.960 . S
H355 C347 0.930 . S
H356 C348 0.929 . S
H357 C365 0.929 . S
H358 C367 0.930 . S
H359 C369 0.930 . S
H360 C372 0.929 . S
H361 C375 0.930 . S
H362 C377 0.960 . S
H363 C377 0.960 . S
H364 C377 0.960 . S
C365 H357 0.929 . S
C365 C366 1.377 . S
C365 C367 1.384 . S
C366 C365 1.377 . S
C366 C372 1.390 . S
C367 H358 0.930 . S
C367 C365 1.384 . S
C367 C368 1.372 . S
C368 C367 1.372 . S
C368 C369 1.400 . S
C368 C373 1.490 . S
C369 H359 0.930 . S
C369 C368 1.400 . S
C369 C372 1.386 . S
H370 C386 0.930 . S
H371 C387 0.931 . S
C372 H360 0.929 . S
C372 C366 1.390 . S
C372 C369 1.386 . S
C373 C368 1.490 . S
C373 C375 1.395 . S
C373 C376 1.403 . S
H374 C380 0.930 . S
C375 H361 0.930 . S
C375 C373 1.395 . S
C375 C378 1.403 . S
C376 C373 1.403 . S
C376 C377 1.524 . S
C376 C380 1.400 . S
C377 H362 0.960 . S
C377 H363 0.960 . S
C377 H364 0.960 . S
C377 C376 1.524 . S
C378 C375 1.403 . S
C378 C379 1.392 . S
C378 C382 1.495 . S
C379 C378 1.392 . S
C379 C380 1.385 . S
C379 C381 1.478 . S
C380 H374 0.930 . S
C380 C376 1.400 . S
C380 C379 1.385 . S
C381 C379 1.478 . S
C381 C383 1.381 . S
C381 C387 1.383 . S
C382 C378 1.495 . S
C382 H388 0.959 . S
C382 H389 0.961 . S
C382 H390 0.960 . S
C383 C381 1.381 . S
C383 C384 1.394 . S
C383 H391 0.930 . S
C384 C383 1.394 . S
C384 C385 1.383 . S
C384 H392 0.929 . S
C385 C384 1.383 . S
C385 C386 1.377 . S
C386 H370 0.930 . S
C386 C385 1.377 . S
C386 C387 1.379 . S
C387 H371 0.931 . S
C387 C381 1.383 . S
C387 C386 1.379 . S
H388 C382 0.959 . S
H389 C382 0.961 . S
H390 C382 0.960 . S
H391 C383 0.930 . S
H392 C384 0.929 . S
H393 C401 0.929 . S
H394 C403 0.930 . S
H395 C405 0.930 . S
H396 C408 0.929 . S
H397 C411 0.930 . S
H398 C413 0.960 . S
H399 C413 0.960 . S
H400 C413 0.960 . S
C401 H393 0.929 . S
C401 C402 1.377 . S
C401 C403 1.384 . S
C402 C401 1.377 . S
C402 C408 1.390 . S
C403 H394 0.930 . S
C403 C401 1.384 . S
C403 C404 1.372 . S
C404 C403 1.372 . S
C404 C405 1.400 . S
C404 C409 1.490 . S
C405 H395 0.930 . S
C405 C404 1.400 . S
C405 C408 1.386 . S
H406 C422 0.930 . S
H407 C423 0.931 . S
C408 H396 0.929 . S
C408 C402 1.390 . S
C408 C405 1.386 . S
C409 C404 1.490 . S
C409 C411 1.395 . S
C409 C412 1.403 . S
H410 C416 0.930 . S
C411 H397 0.930 . S
C411 C409 1.395 . S
C411 C414 1.403 . S
C412 C409 1.403 . S
C412 C413 1.524 . S
C412 C416 1.400 . S
C413 H398 0.960 . S
C413 H399 0.960 . S
C413 H400 0.960 . S
C413 C412 1.524 . S
C414 C411 1.403 . S
C414 C415 1.392 . S
C414 C418 1.495 . S
C415 C414 1.392 . S
C415 C416 1.385 . S
C415 C417 1.478 . S
C416 H410 0.930 . S
C416 C412 1.400 . S
C416 C415 1.385 . S
C417 C415 1.478 . S
C417 C419 1.381 . S
C417 C423 1.383 . S
C418 C414 1.495 . S
C418 H424 0.959 . S
C418 H425 0.961 . S
C418 H426 0.960 . S
C419 C417 1.381 . S
C419 C420 1.394 . S
C419 H427 0.930 . S
C420 C419 1.394 . S
C420 C421 1.383 . S
C420 H428 0.929 . S
C421 C420 1.383 . S
C421 C422 1.377 . S
C422 H406 0.930 . S
C422 C421 1.377 . S
C422 C423 1.379 . S
C423 H407 0.931 . S
C423 C417 1.383 . S
C423 C422 1.379 . S
H424 C418 0.959 . S
H425 C418 0.961 . S
H426 C418 0.960 . S
H427 C419 0.930 . S
H428 C420 0.929 . S
H429 C437 0.929 . S
H430 C439 0.930 . S
H431 C441 0.930 . S
H432 C444 0.929 . S
H433 C447 0.930 . S
H434 C449 0.960 . S
H435 C449 0.960 . S
H436 C449 0.960 . S
C437 H429 0.929 . S
C437 C438 1.377 . S
C437 C439 1.384 . S
C438 C437 1.377 . S
C438 C444 1.390 . S
C439 H430 0.930 . S
C439 C437 1.384 . S
C439 C440 1.372 . S
C440 C439 1.372 . S
C440 C441 1.400 . S
C440 C445 1.490 . S
C441 H431 0.930 . S
C441 C440 1.400 . S
C441 C444 1.386 . S
H442 C458 0.930 . S
H443 C459 0.931 . S
C444 H432 0.929 . S
C444 C438 1.390 . S
C444 C441 1.386 . S
C445 C440 1.490 . S
C445 C447 1.395 . S
C445 C448 1.403 . S
H446 C452 0.930 . S
C447 H433 0.930 . S
C447 C445 1.395 . S
C447 C450 1.403 . S
C448 C445 1.403 . S
C448 C449 1.524 . S
C448 C452 1.400 . S
C449 H434 0.960 . S
C449 H435 0.960 . S
C449 H436 0.960 . S
C449 C448 1.524 . S
C450 C447 1.403 . S
C450 C451 1.392 . S
C450 C454 1.495 . S
C451 C450 1.392 . S
C451 C452 1.385 . S
C451 C453 1.478 . S
C452 H446 0.930 . S
C452 C448 1.400 . S
C452 C451 1.385 . S
C453 C451 1.478 . S
C453 C455 1.381 . S
C453 C459 1.383 . S
C454 C450 1.495 . S
C454 H460 0.959 . S
C454 H461 0.961 . S
C454 H462 0.960 . S
C455 C453 1.381 . S
C455 C456 1.394 . S
C455 H463 0.930 . S
C456 C455 1.394 . S
C456 C457 1.383 . S
C456 H464 0.929 . S
C457 C456 1.383 . S
C457 C458 1.377 . S
C458 H442 0.930 . S
C458 C457 1.377 . S
C458 C459 1.379 . S
C459 H443 0.931 . S
C459 C453 1.383 . S
C459 C458 1.379 . S
H460 C454 0.959 . S
H461 C454 0.961 . S
H462 C454 0.960 . S
H463 C455 0.930 . S
H464 C456 0.929 . S
H465 C473 0.929 . S
H466 C475 0.930 . S
H467 C477 0.930 . S
H468 C480 0.929 . S
H469 C483 0.930 . S
H470 C485 0.960 . S
H471 C485 0.960 . S
H472 C485 0.960 . S
C473 H465 0.929 . S
C473 C474 1.377 . S
C473 C475 1.384 . S
C474 C473 1.377 . S
C474 C480 1.390 1_556 S
C475 H466 0.930 . S
C475 C473 1.384 . S
C475 C476 1.372 . S
C476 C475 1.372 . S
C476 C477 1.400 . S
C476 C481 1.490 . S
C477 H467 0.930 . S
C477 C476 1.400 . S
C477 C480 1.386 1_556 S
H478 C494 0.930 . S
H479 C495 0.931 . S
C480 H468 0.929 . S
C480 C474 1.390 1_554 S
C480 C477 1.386 1_554 S
C481 C476 1.490 . S
C481 C483 1.395 . S
C481 C484 1.403 . S
H482 C488 0.930 . S
C483 H469 0.930 . S
C483 C481 1.395 . S
C483 C486 1.403 . S
C484 C481 1.403 . S
C484 C485 1.524 . S
C484 C488 1.400 . S
C485 H470 0.960 . S
C485 H471 0.960 . S
C485 H472 0.960 . S
C485 C484 1.524 . S
C486 C483 1.403 . S
C486 C487 1.392 . S
C486 C490 1.495 . S
C487 C486 1.392 . S
C487 C488 1.385 . S
C487 C489 1.478 . S
C488 H482 0.930 . S
C488 C484 1.400 . S
C488 C487 1.385 . S
C489 C487 1.478 . S
C489 C491 1.381 . S
C489 C495 1.383 . S
C490 C486 1.495 . S
C490 H496 0.959 . S
C490 H497 0.961 . S
C490 H498 0.960 . S
C491 C489 1.381 . S
C491 C492 1.394 . S
C491 H499 0.930 . S
C492 C491 1.394 . S
C492 C493 1.383 . S
C492 H500 0.929 . S
C493 C492 1.383 . S
C493 C494 1.377 . S
C494 H478 0.930 . S
C494 C493 1.377 . S
C494 C495 1.379 . S
C495 H479 0.931 . S
C495 C489 1.383 . S
C495 C494 1.379 . S
H496 C490 0.959 . S
H497 C490 0.961 . S
H498 C490 0.960 . S
H499 C491 0.930 . S
H500 C492 0.929 . S
H501 C509 0.929 . S
H502 C511 0.930 . S
H503 C513 0.930 1_556 S
H504 C516 0.929 . S
H505 C519 0.930 . S
H506 C521 0.960 . S
H507 C521 0.960 1_554 S
H508 C521 0.960 . S
C509 H501 0.929 . S
C509 C510 1.377 . S
C509 C511 1.384 . S
C510 C509 1.377 . S
C510 C516 1.390 . S
C511 H502 0.930 . S
C511 C509 1.384 . S
C511 C512 1.372 . S
C512 C511 1.372 . S
C512 C513 1.400 . S
C512 C517 1.490 1_554 S
C513 H503 0.930 1_554 S
C513 C512 1.400 . S
C513 C516 1.386 . S
H514 C530 0.930 . S
H515 C531 0.931 . S
C516 H504 0.929 . S
C516 C510 1.390 . S
C516 C513 1.386 . S
C517 C512 1.490 1_556 S
C517 C519 1.395 . S
C517 C520 1.403 . S
H518 C524 0.930 . S
C519 H505 0.930 . S
C519 C517 1.395 . S
C519 C522 1.403 . S
C520 C517 1.403 . S
C520 C521 1.524 . S
C520 C524 1.400 . S
C521 H506 0.960 . S
C521 H507 0.960 1_556 S
C521 H508 0.960 . S
C521 C520 1.524 . S
C522 C519 1.403 . S
C522 C523 1.392 . S
C522 C526 1.495 . S
C523 C522 1.392 . S
C523 C524 1.385 . S
C523 C525 1.478 . S
C524 H518 0.930 . S
C524 C520 1.400 . S
C524 C523 1.385 . S
C525 C523 1.478 . S
C525 C527 1.381 . S
C525 C531 1.383 . S
C526 C522 1.495 . S
C526 H532 0.959 . S
C526 H533 0.961 . S
C526 H534 0.960 . S
C527 C525 1.381 . S
C527 C528 1.394 . S
C527 H535 0.930 . S
C528 C527 1.394 . S
C528 C529 1.383 . S
C528 H536 0.929 . S
C529 C528 1.383 . S
C529 C530 1.377 . S
C530 H514 0.930 . S
C530 C529 1.377 . S
C530 C531 1.379 . S
C531 H515 0.931 . S
C531 C525 1.383 . S
C531 C530 1.379 . S
H532 C526 0.959 . S
H533 C526 0.961 . S
H534 C526 0.960 . S
H535 C527 0.930 . S
H536 C528 0.929 . S
H537 C545 0.929 . S
H538 C547 0.930 . S
H539 C549 0.930 . S
H540 C552 0.929 . S
H541 C555 0.930 . S
H542 C557 0.960 . S
H543 C557 0.960 1_554 S
H544 C557 0.960 . S
C545 H537 0.929 . S
C545 C546 1.377 . S
C545 C547 1.384 . S
C546 C545 1.377 . S
C546 C552 1.390 . S
C547 H538 0.930 . S
C547 C545 1.384 . S
C547 C548 1.372 1_554 S
C548 C547 1.372 1_556 S
C548 C549 1.400 . S
C548 C553 1.490 . S
C549 H539 0.930 . S
C549 C548 1.400 . S
C549 C552 1.386 1_556 S
H550 C566 0.930 . S
H551 C567 0.931 . S
C552 H540 0.929 . S
C552 C546 1.390 . S
C552 C549 1.386 1_554 S
C553 C548 1.490 . S
C553 C555 1.395 . S
C553 C556 1.403 . S
H554 C560 0.930 . S
C555 H541 0.930 . S
C555 C553 1.395 . S
C555 C558 1.403 . S
C556 C553 1.403 . S
C556 C557 1.524 . S
C556 C560 1.400 . S
C557 H542 0.960 . S
C557 H543 0.960 1_556 S
C557 H544 0.960 . S
C557 C556 1.524 . S
C558 C555 1.403 . S
C558 C559 1.392 . S
C558 C562 1.495 . S
C559 C558 1.392 . S
C559 C560 1.385 . S
C559 C561 1.478 . S
C560 H554 0.930 . S
C560 C556 1.400 . S
C560 C559 1.385 . S
C561 C559 1.478 . S
C561 C563 1.381 . S
C561 C567 1.383 . S
C562 C558 1.495 . S
C562 H568 0.959 . S
C562 H569 0.961 . S
C562 H570 0.960 . S
C563 C561 1.381 . S
C563 C564 1.394 . S
C563 H571 0.930 . S
C564 C563 1.394 . S
C564 C565 1.383 . S
C564 H572 0.929 . S
C565 C564 1.383 . S
C565 C566 1.377 . S
C566 H550 0.930 . S
C566 C565 1.377 . S
C566 C567 1.379 . S
C567 H551 0.931 . S
C567 C561 1.383 . S
C567 C566 1.379 . S
H568 C562 0.959 . S
H569 C562 0.961 . S
H570 C562 0.960 . S
H571 C563 0.930 . S
H572 C564 0.929 . S
H573 C581 0.929 . S
H574 C583 0.930 . S
H575 C585 0.930 . S
H576 C588 0.929 . S
H577 C591 0.930 . S
H578 C593 0.960 . S
H579 C593 0.960 . S
H580 C593 0.960 . S
C581 H573 0.929 . S
C581 C582 1.377 1_556 S
C581 C583 1.384 . S
C582 C581 1.377 1_554 S
C582 C588 1.390 . S
C583 H574 0.930 . S
C583 C581 1.384 . S
C583 C584 1.372 . S
C584 C583 1.372 . S
C584 C585 1.400 1_556 S
C584 C589 1.490 . S
C585 H575 0.930 . S
C585 C584 1.400 1_554 S
C585 C588 1.386 . S
H586 C602 0.930 . S
H587 C603 0.931 . S
C588 H576 0.929 . S
C588 C582 1.390 . S
C588 C585 1.386 . S
C589 C584 1.490 . S
C589 C591 1.395 . S
C589 C592 1.403 . S
H590 C596 0.930 . S
C591 H577 0.930 . S
C591 C589 1.395 . S
C591 C594 1.403 . S
C592 C589 1.403 . S
C592 C593 1.524 1_556 S
C592 C596 1.400 . S
C593 H578 0.960 . S
C593 H579 0.960 . S
C593 H580 0.960 . S
C593 C592 1.524 1_554 S
C594 C591 1.403 . S
C594 C595 1.392 . S
C594 C598 1.495 . S
C595 C594 1.392 . S
C595 C596 1.385 . S
C595 C597 1.478 . S
C596 H590 0.930 . S
C596 C592 1.400 . S
C596 C595 1.385 . S
C597 C595 1.478 . S
C597 C599 1.381 . S
C597 C603 1.383 . S
C598 C594 1.495 . S
C598 H604 0.959 . S
C598 H605 0.961 . S
C598 H606 0.960 . S
C599 C597 1.381 . S
C599 C600 1.394 . S
C599 H607 0.930 . S
C600 C599 1.394 . S
C600 C601 1.383 . S
C600 H608 0.929 . S
C601 C600 1.383 . S
C601 C602 1.377 . S
C602 H586 0.930 . S
C602 C601 1.377 . S
C602 C603 1.379 . S
C603 H587 0.931 . S
C603 C597 1.383 . S
C603 C602 1.379 . S
H604 C598 0.959 . S
H605 C598 0.961 . S
H606 C598 0.960 . S
H607 C599 0.930 . S
H608 C600 0.929 . S
H609 C617 0.929 . S
H610 C619 0.930 . S
H611 C621 0.930 . S
H612 C624 0.929 . S
H613 C627 0.930 . S
H614 C629 0.960 . S
H615 C629 0.960 . S
H616 C629 0.960 . S
C617 H609 0.929 . S
C617 C618 1.377 . S
C617 C619 1.384 . S
C618 C617 1.377 . S
C618 C624 1.390 . S
C619 H610 0.930 . S
C619 C617 1.384 . S
C619 C620 1.372 . S
C620 C619 1.372 . S
C620 C621 1.400 . S
C620 C625 1.490 . S
C621 H611 0.930 . S
C621 C620 1.400 . S
C621 C624 1.386 . S
H622 C638 0.930 . S
H623 C639 0.931 . S
C624 H612 0.929 . S
C624 C618 1.390 . S
C624 C621 1.386 . S
C625 C620 1.490 . S
C625 C627 1.395 . S
C625 C628 1.403 . S
H626 C632 0.930 . S
C627 H613 0.930 . S
C627 C625 1.395 . S
C627 C630 1.403 . S
C628 C625 1.403 . S
C628 C629 1.524 . S
C628 C632 1.400 . S
C629 H614 0.960 . S
C629 H615 0.960 . S
C629 H616 0.960 . S
C629 C628 1.524 . S
C630 C627 1.403 . S
C630 C631 1.392 . S
C630 C634 1.495 . S
C631 C630 1.392 . S
C631 C632 1.385 . S
C631 C633 1.478 . S
C632 H626 0.930 . S
C632 C628 1.400 . S
C632 C631 1.385 . S
C633 C631 1.478 . S
C633 C635 1.381 . S
C633 C639 1.383 . S
C634 C630 1.495 . S
C634 H640 0.959 . S
C634 H641 0.961 . S
C634 H642 0.960 . S
C635 C633 1.381 . S
C635 C636 1.394 . S
C635 H643 0.930 . S
C636 C635 1.394 . S
C636 C637 1.383 . S
C636 H644 0.929 . S
C637 C636 1.383 . S
C637 C638 1.377 . S
C638 H622 0.930 . S
C638 C637 1.377 . S
C638 C639 1.379 . S
C639 H623 0.931 . S
C639 C633 1.383 . S
C639 C638 1.379 . S
H640 C634 0.959 . S
H641 C634 0.961 . S
H642 C634 0.960 . S
H643 C635 0.930 . S
H644 C636 0.929 . S
H645 C653 0.929 . S
H646 C655 0.930 . S
H647 C657 0.930 . S
H648 C660 0.929 . S
H649 C663 0.930 . S
H650 C665 0.960 . S
H651 C665 0.960 . S
H652 C665 0.960 . S
C653 H645 0.929 . S
C653 C654 1.377 1_554 S
C653 C655 1.384 1_554 S
C654 C653 1.377 1_556 S
C654 C660 1.390 . S
C655 H646 0.930 . S
C655 C653 1.384 1_556 S
C655 C656 1.372 . S
C656 C655 1.372 . S
C656 C657 1.400 . S
C656 C661 1.490 . S
C657 H647 0.930 . S
C657 C656 1.400 . S
C657 C660 1.386 . S
H658 C674 0.930 . S
H659 C675 0.931 . S
C660 H648 0.929 . S
C660 C654 1.390 . S
C660 C657 1.386 . S
C661 C656 1.490 . S
C661 C663 1.395 . S
C661 C664 1.403 . S
H662 C668 0.930 . S
C663 H649 0.930 . S
C663 C661 1.395 . S
C663 C666 1.403 . S
C664 C661 1.403 . S
C664 C665 1.524 . S
C664 C668 1.400 . S
C665 H650 0.960 . S
C665 H651 0.960 . S
C665 H652 0.960 . S
C665 C664 1.524 . S
C666 C663 1.403 . S
C666 C667 1.392 . S
C666 C670 1.495 . S
C667 C666 1.392 . S
C667 C668 1.385 . S
C667 C669 1.478 . S
C668 H662 0.930 . S
C668 C664 1.400 . S
C668 C667 1.385 . S
C669 C667 1.478 . S
C669 C671 1.381 . S
C669 C675 1.383 . S
C670 C666 1.495 . S
C670 H676 0.959 . S
C670 H677 0.961 . S
C670 H678 0.960 . S
C671 C669 1.381 . S
C671 C672 1.394 . S
C671 H679 0.930 . S
C672 C671 1.394 . S
C672 C673 1.383 . S
C672 H680 0.929 . S
C673 C672 1.383 . S
C673 C674 1.377 . S
C674 H658 0.930 . S
C674 C673 1.377 . S
C674 C675 1.379 . S
C675 H659 0.931 . S
C675 C669 1.383 . S
C675 C674 1.379 . S
H676 C670 0.959 . S
H677 C670 0.961 . S
H678 C670 0.960 . S
H679 C671 0.930 . S
H680 C672 0.929 . S
H681 C689 0.929 . S
H682 C691 0.930 . S
H683 C693 0.930 1_556 S
H684 C696 0.929 . S
H685 C699 0.930 . S
H686 C701 0.960 . S
H687 C701 0.960 1_554 S
H688 C701 0.960 . S
C689 H681 0.929 . S
C689 C690 1.377 . S
C689 C691 1.384 . S
C690 C689 1.377 . S
C690 C696 1.390 . S
C691 H682 0.930 . S
C691 C689 1.384 . S
C691 C692 1.372 . S
C692 C691 1.372 . S
C692 C693 1.400 . S
C692 C697 1.490 1_554 S
C693 H683 0.930 1_554 S
C693 C692 1.400 . S
C693 C696 1.386 . S
H694 C710 0.930 . S
H695 C711 0.931 . S
C696 H684 0.929 . S
C696 C690 1.390 . S
C696 C693 1.386 . S
C697 C692 1.490 1_556 S
C697 C699 1.395 . S
C697 C700 1.403 . S
H698 C704 0.930 . S
C699 H685 0.930 . S
C699 C697 1.395 . S
C699 C702 1.403 . S
C700 C697 1.403 . S
C700 C701 1.524 . S
C700 C704 1.400 . S
C701 H686 0.960 . S
C701 H687 0.960 1_556 S
C701 H688 0.960 . S
C701 C700 1.524 . S
C702 C699 1.403 . S
C702 C703 1.392 . S
C702 C706 1.495 . S
C703 C702 1.392 . S
C703 C704 1.385 . S
C703 C705 1.478 . S
C704 H698 0.930 . S
C704 C700 1.400 . S
C704 C703 1.385 . S
C705 C703 1.478 . S
C705 C707 1.381 . S
C705 C711 1.383 . S
C706 C702 1.495 . S
C706 H712 0.959 . S
C706 H713 0.961 . S
C706 H714 0.960 . S
C707 C705 1.381 . S
C707 C708 1.394 . S
C707 H715 0.930 . S
C708 C707 1.394 . S
C708 C709 1.383 . S
C708 H716 0.929 . S
C709 C708 1.383 . S
C709 C710 1.377 . S
C710 H694 0.930 . S
C710 C709 1.377 . S
C710 C711 1.379 . S
C711 H695 0.931 . S
C711 C705 1.383 . S
C711 C710 1.379 . S
H712 C706 0.959 . S
H713 C706 0.961 . S
H714 C706 0.960 . S
H715 C707 0.930 . S
H716 C708 0.929 . S
H717 C725 0.929 . S
H718 C727 0.930 . S
H719 C729 0.933 . S
H720 C732 0.929 . S
H721 C735 0.930 . S
H722 C737 0.960 . S
H723 C737 0.960 . S
H724 C737 0.960 . S
C725 H717 0.929 . S
C725 C726 1.377 . S
C725 C727 1.384 1_554 S
C726 C725 1.377 . S
C726 C732 1.390 . S
C727 H718 0.930 . S
C727 C725 1.384 1_556 S
C727 C728 1.372 . S
C728 C727 1.372 . S
C728 C729 1.403 . S
C728 C733 1.490 . S
C729 H719 0.933 . S
C729 C728 1.403 . S
C729 C732 1.379 1_556 S
H730 C746 0.930 . S
H731 C747 0.931 . S
C732 H720 0.929 . S
C732 C726 1.390 . S
C732 C729 1.379 1_554 S
C733 C728 1.490 . S
C733 C735 1.395 . S
C733 C736 1.403 . S
H734 C740 0.930 . S
C735 H721 0.930 . S
C735 C733 1.395 . S
C735 C738 1.403 . S
C736 C733 1.403 . S
C736 C737 1.524 . S
C736 C740 1.400 . S
C737 H722 0.960 . S
C737 H723 0.960 . S
C737 H724 0.960 . S
C737 C736 1.524 . S
C738 C735 1.403 . S
C738 C739 1.392 . S
C738 C742 1.495 . S
C739 C738 1.392 . S
C739 C740 1.385 . S
C739 C741 1.478 . S
C740 H734 0.930 . S
C740 C736 1.400 . S
C740 C739 1.385 . S
C741 C739 1.478 . S
C741 C743 1.381 . S
C741 C747 1.383 . S
C742 C738 1.495 . S
C742 H748 0.959 . S
C742 H749 0.961 . S
C742 H750 0.960 . S
C743 C741 1.381 . S
C743 C744 1.394 . S
C743 H751 0.930 . S
C744 C743 1.394 . S
C744 C745 1.383 . S
C744 H752 0.929 . S
C745 C744 1.383 . S
C745 C746 1.377 . S
C746 H730 0.930 . S
C746 C745 1.377 . S
C746 C747 1.379 . S
C747 H731 0.931 . S
C747 C741 1.383 . S
C747 C746 1.379 . S
H748 C742 0.959 . S
H749 C742 0.961 . S
H750 C742 0.960 . S
H751 C743 0.930 . S
H752 C744 0.929 . S
H753 C761 0.929 . S
H754 C763 0.930 . S
H755 C765 0.930 . S
H756 C768 0.929 . S
H757 C771 0.930 . S
H758 C773 0.960 . S
H759 C773 0.960 . S
H760 C773 0.960 . S
C761 H753 0.929 . S
C761 C762 1.377 1_556 S
C761 C763 1.384 . S
C762 C761 1.377 1_554 S
C762 C768 1.390 . S
C763 H754 0.930 . S
C763 C761 1.384 . S
C763 C764 1.372 . S
C764 C763 1.372 . S
C764 C765 1.400 . S
C764 C769 1.490 . S
C765 H755 0.930 . S
C765 C764 1.400 . S
C765 C768 1.386 1_556 S
H766 C782 0.930 . S
H767 C783 0.931 . S
C768 H756 0.929 . S
C768 C762 1.390 . S
C768 C765 1.386 1_554 S
C769 C764 1.490 . S
C769 C771 1.395 . S
C769 C772 1.403 . S
H770 C776 0.930 . S
C771 H757 0.930 . S
C771 C769 1.395 . S
C771 C774 1.403 . S
C772 C769 1.403 . S
C772 C773 1.524 . S
C772 C776 1.400 . S
C773 H758 0.960 . S
C773 H759 0.960 . S
C773 H760 0.960 . S
C773 C772 1.524 . S
C774 C771 1.403 . S
C774 C775 1.392 . S
C774 C778 1.495 . S
C775 C774 1.392 . S
C775 C776 1.385 . S
C775 C777 1.478 . S
C776 H770 0.930 . S
C776 C772 1.400 . S
C776 C775 1.385 . S
C777 C775 1.478 . S
C777 C779 1.381 . S
C777 C783 1.383 . S
C778 C774 1.495 . S
C778 H784 0.959 . S
C778 H785 0.961 . S
C778 H786 0.960 . S
C779 C777 1.381 . S
C779 C780 1.394 . S
C779 H787 0.930 . S
C780 C779 1.394 . S
C780 C781 1.383 . S
C780 H788 0.929 . S
C781 C780 1.383 . S
C781 C782 1.377 . S
C782 H766 0.930 . S
C782 C781 1.377 . S
C782 C783 1.379 . S
C783 H767 0.931 . S
C783 C777 1.383 . S
C783 C782 1.379 . S
H784 C778 0.959 . S
H785 C778 0.961 . S
H786 C778 0.960 . S
H787 C779 0.930 . S
H788 C780 0.929 . S
H789 C797 0.929 . S
H790 C799 0.930 . S
H791 C801 0.930 . S
H792 C804 0.929 . S
H793 C807 0.930 . S
H794 C809 0.960 . S
H795 C809 0.960 . S
H796 C809 0.960 . S
C797 H789 0.929 . S
C797 C798 1.377 . S
C797 C799 1.384 . S
C798 C797 1.377 . S
C798 C804 1.390 . S
C799 H790 0.930 . S
C799 C797 1.384 . S
C799 C800 1.372 . S
C800 C799 1.372 . S
C800 C801 1.400 . S
C800 C805 1.490 . S
C801 H791 0.930 . S
C801 C800 1.400 . S
C801 C804 1.386 . S
H802 C818 0.930 . S
H803 C819 0.931 . S
C804 H792 0.929 . S
C804 C798 1.390 . S
C804 C801 1.386 . S
C805 C800 1.490 . S
C805 C807 1.395 . S
C805 C808 1.403 . S
H806 C812 0.930 . S
C807 H793 0.930 . S
C807 C805 1.395 . S
C807 C810 1.403 . S
C808 C805 1.403 . S
C808 C809 1.524 . S
C808 C812 1.400 . S
C809 H794 0.960 . S
C809 H795 0.960 . S
C809 H796 0.960 . S
C809 C808 1.524 . S
C810 C807 1.403 . S
C810 C811 1.392 . S
C810 C814 1.495 . S
C811 C810 1.392 . S
C811 C812 1.385 . S
C811 C813 1.478 . S
C812 H806 0.930 . S
C812 C808 1.400 . S
C812 C811 1.385 . S
C813 C811 1.478 . S
C813 C815 1.381 . S
C813 C819 1.383 . S
C814 C810 1.495 . S
C814 H820 0.959 . S
C814 H821 0.961 . S
C814 H822 0.960 . S
C815 C813 1.381 . S
C815 C816 1.394 . S
C815 H823 0.930 . S
C816 C815 1.394 . S
C816 C817 1.383 . S
C816 H824 0.929 . S
C817 C816 1.383 . S
C817 C818 1.377 . S
C818 H802 0.930 . S
C818 C817 1.377 . S
C818 C819 1.379 . S
C819 H803 0.931 . S
C819 C813 1.383 . S
C819 C818 1.379 . S
H820 C814 0.959 . S
H821 C814 0.961 . S
H822 C814 0.960 . S
H823 C815 0.930 . S
H824 C816 0.929 . S
H825 C833 0.929 . S
H826 C835 0.930 . S
H827 C837 0.930 . S
H828 C840 0.929 . S
H829 C843 0.930 . S
H830 C845 0.960 . S
H831 C845 0.960 . S
H832 C845 0.960 . S
C833 H825 0.929 . S
C833 C834 1.377 . S
C833 C835 1.384 . S
C834 C833 1.377 . S
C834 C840 1.390 . S
C835 H826 0.930 . S
C835 C833 1.384 . S
C835 C836 1.372 . S
C836 C835 1.372 . S
C836 C837 1.400 . S
C836 C841 1.490 . S
C837 H827 0.930 . S
C837 C836 1.400 . S
C837 C840 1.386 . S
H838 C854 0.930 . S
H839 C855 0.931 . S
C840 H828 0.929 . S
C840 C834 1.390 . S
C840 C837 1.386 . S
C841 C836 1.490 . S
C841 C843 1.395 . S
C841 C844 1.403 . S
H842 C848 0.930 . S
C843 H829 0.930 . S
C843 C841 1.395 . S
C843 C846 1.403 . S
C844 C841 1.403 . S
C844 C845 1.524 . S
C844 C848 1.400 . S
C845 H830 0.960 . S
C845 H831 0.960 . S
C845 H832 0.960 . S
C845 C844 1.524 . S
C846 C843 1.403 . S
C846 C847 1.392 . S
C846 C850 1.495 . S
C847 C846 1.392 . S
C847 C848 1.385 . S
C847 C849 1.478 . S
C848 H842 0.930 . S
C848 C844 1.400 . S
C848 C847 1.385 . S
C849 C847 1.478 . S
C849 C851 1.381 . S
C849 C855 1.383 . S
C850 C846 1.495 . S
C850 H856 0.959 . S
C850 H857 0.961 . S
C850 H858 0.960 . S
C851 C849 1.381 . S
C851 C852 1.394 . S
C851 H859 0.930 . S
C852 C851 1.394 . S
C852 C853 1.383 . S
C852 H860 0.929 . S
C853 C852 1.383 . S
C853 C854 1.377 . S
C854 H838 0.930 . S
C854 C853 1.377 . S
C854 C855 1.379 . S
C855 H839 0.931 . S
C855 C849 1.383 . S
C855 C854 1.379 . S
H856 C850 0.959 . S
H857 C850 0.961 . S
H858 C850 0.960 . S
H859 C851 0.930 . S
H860 C852 0.929 . S
H861 C869 0.929 . S
H862 C871 0.930 . S
H863 C873 0.930 . S
H864 C876 0.929 . S
H865 C879 0.930 . S
H866 C881 0.960 . S
H867 C881 0.960 . S
H868 C881 0.960 . S
C869 H861 0.929 . S
C869 C870 1.377 . S
C869 C871 1.384 . S
C870 C869 1.377 . S
C870 C876 1.390 . S
C871 H862 0.930 . S
C871 C869 1.384 . S
C871 C872 1.372 . S
C872 C871 1.372 . S
C872 C873 1.400 . S
C872 C877 1.490 . S
C873 H863 0.930 . S
C873 C872 1.400 . S
C873 C876 1.386 . S
H874 C890 0.930 . S
H875 C891 0.931 . S
C876 H864 0.929 . S
C876 C870 1.390 . S
C876 C873 1.386 . S
C877 C872 1.490 . S
C877 C879 1.395 . S
C877 C880 1.403 . S
H878 C884 0.930 . S
C879 H865 0.930 . S
C879 C877 1.395 . S
C879 C882 1.403 . S
C880 C877 1.403 . S
C880 C881 1.524 . S
C880 C884 1.400 . S
C881 H866 0.960 . S
C881 H867 0.960 . S
C881 H868 0.960 . S
C881 C880 1.524 . S
C882 C879 1.403 . S
C882 C883 1.392 . S
C882 C886 1.495 . S
C883 C882 1.392 . S
C883 C884 1.385 . S
C883 C885 1.478 . S
C884 H878 0.930 . S
C884 C880 1.400 . S
C884 C883 1.385 . S
C885 C883 1.478 . S
C885 C887 1.381 . S
C885 C891 1.383 . S
C886 C882 1.495 . S
C886 H892 0.959 . S
C886 H893 0.961 . S
C886 H894 0.960 . S
C887 C885 1.381 . S
C887 C888 1.394 . S
C887 H895 0.930 . S
C888 C887 1.394 . S
C888 C889 1.383 . S
C888 H896 0.929 . S
C889 C888 1.383 . S
C889 C890 1.377 . S
C890 H874 0.930 . S
C890 C889 1.377 . S
C890 C891 1.379 . S
C891 H875 0.931 . S
C891 C885 1.383 . S
C891 C890 1.379 . S
H892 C886 0.959 . S
H893 C886 0.961 . S
H894 C886 0.960 . S
H895 C887 0.930 . S
H896 C888 0.929 . S
H897 C905 0.929 . S
H898 C907 0.930 . S
H899 C909 0.930 . S
H900 C912 0.929 . S
H901 C915 0.930 . S
H902 C917 0.960 . S
H903 C917 0.960 . S
H904 C917 0.960 . S
C905 H897 0.929 . S
C905 C906 1.377 . S
C905 C907 1.384 . S
C906 C905 1.377 . S
C906 C912 1.390 . S
C907 H898 0.930 . S
C907 C905 1.384 . S
C907 C908 1.372 . S
C908 C907 1.372 . S
C908 C909 1.400 . S
C908 C913 1.490 . S
C909 H899 0.930 . S
C909 C908 1.400 . S
C909 C912 1.386 . S
H910 C926 0.930 . S
H911 C927 0.931 . S
C912 H900 0.929 . S
C912 C906 1.390 . S
C912 C909 1.386 . S
C913 C908 1.490 . S
C913 C915 1.395 . S
C913 C916 1.403 . S
H914 C920 0.930 . S
C915 H901 0.930 . S
C915 C913 1.395 . S
C915 C918 1.403 . S
C916 C913 1.403 . S
C916 C917 1.524 . S
C916 C920 1.400 . S
C917 H902 0.960 . S
C917 H903 0.960 . S
C917 H904 0.960 . S
C917 C916 1.524 . S
C918 C915 1.403 . S
C918 C919 1.392 . S
C918 C922 1.495 . S
C919 C918 1.392 . S
C919 C920 1.385 . S
C919 C921 1.478 . S
C920 H914 0.930 . S
C920 C916 1.400 . S
C920 C919 1.385 . S
C921 C919 1.478 . S
C921 C923 1.381 . S
C921 C927 1.383 . S
C922 C918 1.495 . S
C922 H928 0.959 . S
C922 H929 0.961 . S
C922 H930 0.960 . S
C923 C921 1.381 . S
C923 C924 1.394 . S
C923 H931 0.930 . S
C924 C923 1.394 . S
C924 C925 1.383 . S
C924 H932 0.929 . S
C925 C924 1.383 . S
C925 C926 1.377 . S
C926 H910 0.930 . S
C926 C925 1.377 . S
C926 C927 1.379 . S
C927 H911 0.931 . S
C927 C921 1.383 . S
C927 C926 1.379 . S
H928 C922 0.959 . S
H929 C922 0.961 . S
H930 C922 0.960 . S
H931 C923 0.930 . S
H932 C924 0.929 . S
H933 C941 0.929 . S
H934 C943 0.930 . S
H935 C945 0.930 . S
H936 C948 0.929 . S
H937 C951 0.930 . S
H938 C953 0.960 . S
H939 C953 0.960 . S
H940 C953 0.960 . S
C941 H933 0.929 . S
C941 C942 1.377 . S
C941 C943 1.384 . S
C942 C941 1.377 . S
C942 C948 1.390 . S
C943 H934 0.930 . S
C943 C941 1.384 . S
C943 C944 1.372 . S
C944 C943 1.372 . S
C944 C945 1.400 . S
C944 C949 1.490 . S
C945 H935 0.930 . S
C945 C944 1.400 . S
C945 C948 1.386 . S
H946 C962 0.930 . S
H947 C963 0.931 . S
C948 H936 0.929 . S
C948 C942 1.390 . S
C948 C945 1.386 . S
C949 C944 1.490 . S
C949 C951 1.395 . S
C949 C952 1.403 . S
H950 C956 0.930 . S
C951 H937 0.930 . S
C951 C949 1.395 . S
C951 C954 1.403 . S
C952 C949 1.403 . S
C952 C953 1.524 . S
C952 C956 1.400 . S
C953 H938 0.960 . S
C953 H939 0.960 . S
C953 H940 0.960 . S
C953 C952 1.524 . S
C954 C951 1.403 . S
C954 C955 1.392 . S
C954 C958 1.495 . S
C955 C954 1.392 . S
C955 C956 1.385 . S
C955 C957 1.478 . S
C956 H950 0.930 . S
C956 C952 1.400 . S
C956 C955 1.385 . S
C957 C955 1.478 . S
C957 C959 1.381 . S
C957 C963 1.383 . S
C958 C954 1.495 . S
C958 H964 0.959 . S
C958 H965 0.961 . S
C958 H966 0.960 . S
C959 C957 1.381 . S
C959 C960 1.394 . S
C959 H967 0.930 . S
C960 C959 1.394 . S
C960 C961 1.383 . S
C960 H968 0.929 . S
C961 C960 1.383 . S
C961 C962 1.377 . S
C962 H946 0.930 . S
C962 C961 1.377 . S
C962 C963 1.379 . S
C963 H947 0.931 . S
C963 C957 1.383 . S
C963 C962 1.379 . S
H964 C958 0.959 . S
H965 C958 0.961 . S
H966 C958 0.960 . S
H967 C959 0.930 . S
H968 C960 0.929 . S
H969 C977 0.929 . S
H970 C979 0.930 . S
H971 C981 0.930 . S
H972 C984 0.929 . S
H973 C987 0.930 . S
H974 C989 0.960 . S
H975 C989 0.960 . S
H976 C989 0.960 . S
C977 H969 0.929 . S
C977 C978 1.377 . S
C977 C979 1.384 . S
C978 C977 1.377 . S
C978 C984 1.390 . S
C979 H970 0.930 . S
C979 C977 1.384 . S
C979 C980 1.372 . S
C980 C979 1.372 . S
C980 C981 1.400 . S
C980 C985 1.490 . S
C981 H971 0.930 . S
C981 C980 1.400 . S
C981 C984 1.386 . S
H982 C998 0.930 . S
H983 C999 0.931 . S
C984 H972 0.929 . S
C984 C978 1.390 . S
C984 C981 1.386 . S
C985 C980 1.490 . S
C985 C987 1.395 . S
C985 C988 1.403 . S
H986 C992 0.930 . S
C987 H973 0.930 . S
C987 C985 1.395 . S
C987 C990 1.403 . S
C988 C985 1.403 . S
C988 C989 1.524 . S
C988 C992 1.400 . S
C989 H974 0.960 . S
C989 H975 0.960 . S
C989 H976 0.960 . S
C989 C988 1.524 . S
C990 C987 1.403 . S
C990 C991 1.392 . S
C990 C994 1.495 . S
C991 C990 1.392 . S
C991 C992 1.385 . S
C991 C993 1.478 . S
C992 H986 0.930 . S
C992 C988 1.400 . S
C992 C991 1.385 . S
C993 C991 1.478 . S
C993 C995 1.381 . S
C993 C999 1.383 . S
C994 C990 1.495 . S
C994 H1000 0.959 . S
C994 H1001 0.961 . S
C994 H1002 0.960 . S
C995 C993 1.381 . S
C995 C996 1.394 . S
C995 H1003 0.930 . S
C996 C995 1.394 . S
C996 C997 1.383 . S
C996 H1004 0.929 . S
C997 C996 1.383 . S
C997 C998 1.377 . S
C998 H982 0.930 . S
C998 C997 1.377 . S
C998 C999 1.379 . S
C999 H983 0.931 . S
C999 C993 1.383 . S
C999 C998 1.379 . S
H1000 C994 0.959 . S
H1001 C994 0.961 . S
H1002 C994 0.960 . S
H1003 C995 0.930 . S
H1004 C996 0.929 . S
H1005 C1013 0.929 . S
H1006 C1015 0.930 . S
H1007 C1017 0.930 . S
H1008 C1020 0.929 . S
H1009 C1023 0.930 . S
H1010 C1025 0.960 . S
H1011 C1025 0.960 . S
H1012 C1025 0.960 . S
C1013 H1005 0.929 . S
C1013 C1014 1.377 . S
C1013 C1015 1.384 . S
C1014 C1013 1.377 . S
C1014 C1020 1.390 . S
C1015 H1006 0.930 . S
C1015 C1013 1.384 . S
C1015 C1016 1.372 . S
C1016 C1015 1.372 . S
C1016 C1017 1.400 . S
C1016 C1021 1.490 . S
C1017 H1007 0.930 . S
C1017 C1016 1.400 . S
C1017 C1020 1.386 . S
H1018 C1034 0.930 . S
H1019 C1035 0.931 . S
C1020 H1008 0.929 . S
C1020 C1014 1.390 . S
C1020 C1017 1.386 . S
C1021 C1016 1.490 . S
C1021 C1023 1.395 . S
C1021 C1024 1.403 . S
H1022 C1028 0.930 . S
C1023 H1009 0.930 . S
C1023 C1021 1.395 . S
C1023 C1026 1.403 . S
C1024 C1021 1.403 . S
C1024 C1025 1.524 . S
C1024 C1028 1.400 . S
C1025 H1010 0.960 . S
C1025 H1011 0.960 . S
C1025 H1012 0.960 . S
C1025 C1024 1.524 . S
C1026 C1023 1.403 . S
C1026 C1027 1.392 . S
C1026 C1030 1.495 . S
C1027 C1026 1.392 . S
C1027 C1028 1.385 . S
C1027 C1029 1.478 . S
C1028 H1022 0.930 . S
C1028 C1024 1.400 . S
C1028 C1027 1.385 . S
C1029 C1027 1.478 . S
C1029 C1031 1.381 . S
C1029 C1035 1.383 . S
C1030 C1026 1.495 . S
C1030 H1036 0.959 . S
C1030 H1037 0.961 . S
C1030 H1038 0.960 . S
C1031 C1029 1.381 . S
C1031 C1032 1.394 . S
C1031 H1039 0.930 . S
C1032 C1031 1.394 . S
C1032 C1033 1.383 . S
C1032 H1040 0.929 . S
C1033 C1032 1.383 . S
C1033 C1034 1.377 . S
C1034 H1018 0.930 . S
C1034 C1033 1.377 . S
C1034 C1035 1.379 . S
C1035 H1019 0.931 . S
C1035 C1029 1.383 . S
C1035 C1034 1.379 . S
H1036 C1030 0.959 . S
H1037 C1030 0.961 . S
H1038 C1030 0.960 . S
H1039 C1031 0.930 . S
H1040 C1032 0.929 . S
C186 C1 1.779 . S
C205 C95 1.680 . S
C222 C27 1.591 . S
C241 C142 1.531 . S
C277 C146 1.790 . S
C258 C40 1.833 . S
C313 C111 1.510 . S
C294 C55 1.530 . S
C330 C68 1.713 . S
C349 C126 1.622 . S
C385 C148 0.890 . S
C366 C70 0.868 . S
C421 C117 1.245 . S
C402 C41 1.323 . S
C438 C54 1.317 . S
C457 C157 1.245 . S
C493 C86 1.233 . S
C474 C69 1.252 1_556 S
C510 C71 1.437 . S
C529 C115 1.371 . S
C546 C0 1.931 . S
C565 C173 1.877 . S
C601 C84 1.472 . S
C582 C26 1.501 . S
C637 C102 1.724 . S
C618 C42 1.780 . S
C673 C116 1.545 . S
C654 C57 1.593 1_556 S
C709 C170 1.798 . S
C690 C83 1.835 . S
C745 C85 1.465 . S
C726 C12 1.528 . S
C781 C133 1.661 . S
C762 C14 1.713 . S
C798 C29 0.864 . S
C817 C156 0.805 . S
C853 C125 1.273 . S
C834 C82 1.322 . S
C889 C164 1.261 . S
C870 C13 1.317 . S
C925 C94 1.171 . S
C906 C15 1.248 . S
C961 C139 1.382 . S
C942 C28 1.435 . S
C978 C43 1.929 . S
C997 C147 1.883 . S
C1014 C56 1.501 . S
C1033 C108 1.449 . S
