# Generated by pormake.
# Topology ocu, (6,8)-cn, num edge types: 1
# Building blocks:
#     Node 0, Type 0, BuildingBlock: UKALOJ_clean_sbu_0, # of connection points: 6
#     Node 1, Type 0, BuildingBlock: UKALOJ_clean_sbu_0, # of connection points: 6
#     Node 2, Type 0, BuildingBlock: UKALOJ_clean_sbu_0, # of connection points: 6
#     Node 3, Type 0, BuildingBlock: UKALOJ_clean_sbu_0, # of connection points: 6
#     Node 4, Type 0, BuildingBlock: UKALOJ_clean_sbu_0, # of connection points: 6
#     Node 5, Type 0, BuildingBlock: UKALOJ_clean_sbu_0, # of connection points: 6
#     Node 6, Type 0, BuildingBlock: UKALOJ_clean_sbu_0, # of connection points: 6
#     Node 7, Type 0, BuildingBlock: UKALOJ_clean_sbu_0, # of connection points: 6
#     Node 8, Type 1, BuildingBlock: LIZSOE_clean_sbu_0, # of connection points: 8
#     Node 9, Type 1, BuildingBlock: LIZSOE_clean_sbu_0, # of connection points: 8
#     Node 10, Type 1, BuildingBlock: LIZSOE_clean_sbu_0, # of connection points: 8
#     Node 11, Type 1, BuildingBlock: LIZSOE_clean_sbu_0, # of connection points: 8
#     Node 12, Type 1, BuildingBlock: LIZSOE_clean_sbu_0, # of connection points: 8
#     Node 13, Type 1, BuildingBlock: LIZSOE_clean_sbu_0, # of connection points: 8
#     Edge 14, Type (0, 1), BuildingBlock: AJUNOK_clean_linker_0, # of connection points: 2
#     Edge 15, Type (0, 1), BuildingBlock: AJUNOK_clean_linker_0, # of connection points: 2
#     Edge 16, Type (0, 1), BuildingBlock: AJUNOK_clean_linker_0, # of connection points: 2
#     Edge 17, Type (0, 1), BuildingBlock: AJUNOK_clean_linker_0, # of connection points: 2
#     Edge 18, Type (0, 1), BuildingBlock: AJUNOK_clean_linker_0, # of connection points: 2
#     Edge 19, Type (0, 1), BuildingBlock: AJUNOK_clean_linker_0, # of connection points: 2
#     Edge 20, Type (0, 1), BuildingBlock: AJUNOK_clean_linker_0, # of connection points: 2
#     Edge 21, Type (0, 1), BuildingBlock: AJUNOK_clean_linker_0, # of connection points: 2
#     Edge 22, Type (0, 1), BuildingBlock: AJUNOK_clean_linker_0, # of connection points: 2
#     Edge 23, Type (0, 1), BuildingBlock: AJUNOK_clean_linker_0, # of connection points: 2
#     Edge 24, Type (0, 1), BuildingBlock: AJUNOK_clean_linker_0, # of connection points: 2
#     Edge 25, Type (0, 1), BuildingBlock: AJUNOK_clean_linker_0, # of connection points: 2
#     Edge 26, Type (0, 1), BuildingBlock: AJUNOK_clean_linker_0, # of connection points: 2
#     Edge 27, Type (0, 1), BuildingBlock: AJUNOK_clean_linker_0, # of connection points: 2
#     Edge 28, Type (0, 1), BuildingBlock: AJUNOK_clean_linker_0, # of connection points: 2
#     Edge 29, Type (0, 1), BuildingBlock: AJUNOK_clean_linker_0, # of connection points: 2
#     Edge 30, Type (0, 1), BuildingBlock: AJUNOK_clean_linker_0, # of connection points: 2
#     Edge 31, Type (0, 1), BuildingBlock: AJUNOK_clean_linker_0, # of connection points: 2
#     Edge 32, Type (0, 1), BuildingBlock: AJUNOK_clean_linker_0, # of connection points: 2
#     Edge 33, Type (0, 1), BuildingBlock: AJUNOK_clean_linker_0, # of connection points: 2
#     Edge 34, Type (0, 1), BuildingBlock: AJUNOK_clean_linker_0, # of connection points: 2
#     Edge 35, Type (0, 1), BuildingBlock: AJUNOK_clean_linker_0, # of connection points: 2
#     Edge 36, Type (0, 1), BuildingBlock: AJUNOK_clean_linker_0, # of connection points: 2
#     Edge 37, Type (0, 1), BuildingBlock: AJUNOK_clean_linker_0, # of connection points: 2
#     Edge 38, Type (0, 1), BuildingBlock: AJUNOK_clean_linker_0, # of connection points: 2
#     Edge 39, Type (0, 1), BuildingBlock: AJUNOK_clean_linker_0, # of connection points: 2
#     Edge 40, Type (0, 1), BuildingBlock: AJUNOK_clean_linker_0, # of connection points: 2
#     Edge 41, Type (0, 1), BuildingBlock: AJUNOK_clean_linker_0, # of connection points: 2
#     Edge 42, Type (0, 1), BuildingBlock: AJUNOK_clean_linker_0, # of connection points: 2
#     Edge 43, Type (0, 1), BuildingBlock: AJUNOK_clean_linker_0, # of connection points: 2
#     Edge 44, Type (0, 1), BuildingBlock: AJUNOK_clean_linker_0, # of connection points: 2
#     Edge 45, Type (0, 1), BuildingBlock: AJUNOK_clean_linker_0, # of connection points: 2
#     Edge 46, Type (0, 1), BuildingBlock: AJUNOK_clean_linker_0, # of connection points: 2
#     Edge 47, Type (0, 1), BuildingBlock: AJUNOK_clean_linker_0, # of connection points: 2
#     Edge 48, Type (0, 1), BuildingBlock: AJUNOK_clean_linker_0, # of connection points: 2
#     Edge 49, Type (0, 1), BuildingBlock: AJUNOK_clean_linker_0, # of connection points: 2
#     Edge 50, Type (0, 1), BuildingBlock: AJUNOK_clean_linker_0, # of connection points: 2
#     Edge 51, Type (0, 1), BuildingBlock: AJUNOK_clean_linker_0, # of connection points: 2
#     Edge 52, Type (0, 1), BuildingBlock: AJUNOK_clean_linker_0, # of connection points: 2
#     Edge 53, Type (0, 1), BuildingBlock: AJUNOK_clean_linker_0, # of connection points: 2
#     Edge 54, Type (0, 1), BuildingBlock: AJUNOK_clean_linker_0, # of connection points: 2
#     Edge 55, Type (0, 1), BuildingBlock: AJUNOK_clean_linker_0, # of connection points: 2
#     Edge 56, Type (0, 1), BuildingBlock: AJUNOK_clean_linker_0, # of connection points: 2
#     Edge 57, Type (0, 1), BuildingBlock: AJUNOK_clean_linker_0, # of connection points: 2
#     Edge 58, Type (0, 1), BuildingBlock: AJUNOK_clean_linker_0, # of connection points: 2
#     Edge 59, Type (0, 1), BuildingBlock: AJUNOK_clean_linker_0, # of connection points: 2
#     Edge 60, Type (0, 1), BuildingBlock: AJUNOK_clean_linker_0, # of connection points: 2
#     Edge 61, Type (0, 1), BuildingBlock: AJUNOK_clean_linker_0, # of connection points: 2
# Relax obj value: 0.247
# Max RMSD: 0.298
# Mean RMSD: 0.202
data_MOF--net-ocu--node1-UKALOJ_clean_sbu_0--node2-LIZSOE_clean_sbu_0--edge1-AJUNOK_clean_linker_0
_symmetry_space_group_name_H-M    P1
_symmetry_Int_Tables_number       1
_symmetry_cell_setting            triclinic
loop_
_symmetry_equiv_pos_as_xyz
'x, y, z'
_cell_length_a     29.261773
_cell_length_b     28.888639
_cell_length_c     30.086367
_cell_angle_alpha  105.10888
_cell_angle_beta   74.741059
_cell_angle_gamma 97.779902
loop_
_atom_site_label
_atom_site_type_symbol
_atom_site_fract_x
_atom_site_fract_y
_atom_site_fract_z
_atom_type_partial_charge
Zn0 Zn 0.23484 0.25557 0.26429 0.0
O1 O 0.18967 0.30772 0.31682 0.0
C2 C 0.24463 0.31809 0.20078 0.0
Zn3 Zn 0.29758 0.30442 0.27068 0.0
C4 C 0.20882 0.34829 0.33419 0.0
O5 O 0.25364 0.35498 0.32235 0.0
C6 C 0.32407 0.2122 0.2009 0.0
O7 O 0.31451 0.27783 0.32227 0.0
O8 O 0.25309 0.22657 0.31586 0.0
N9 N 0.3512 0.35455 0.27456 0.0
C10 C 0.38476 0.3672 0.23911 0.0
C11 C 0.38616 0.4228 0.30163 0.0
N12 N 0.35215 0.38877 0.31356 0.0
N13 N 0.40711 0.40949 0.25525 0.0
C14 C 0.14826 0.19229 0.29682 0.0
C15 C 0.14513 0.13745 0.23422 0.0
N16 N 0.1808 0.20542 0.26089 0.0
N17 N 0.17874 0.17166 0.22184 0.0
N18 N 0.12537 0.15017 0.28096 0.0
H19 H 0.17202 0.24281 0.35569 0.0
H20 H 0.13545 0.19184 0.37099 0.0
H21 H 0.10955 0.23869 0.35908 0.0
C22 C 0.14151 0.21791 0.34834 0.0
C23 C 0.39372 0.34031 0.18784 0.0
H24 H 0.42301 0.3166 0.18034 0.0
H25 H 0.40479 0.3653 0.1639 0.0
H26 H 0.3623 0.31784 0.17906 0.0
O27 O 0.34262 0.25271 0.21912 0.0
O28 O 0.27917 0.205 0.21176 0.0
C29 C 0.28919 0.24132 0.33303 0.0
O30 O 0.21778 0.28283 0.21271 0.0
O31 O 0.28055 0.33244 0.21826 0.0
Zn32 Zn 0.80409 0.27153 0.23665 0.0
O33 O 0.75676 0.21821 0.19279 0.0
C34 C 0.75273 0.35592 0.23318 0.0
Zn35 Zn 0.74428 0.28996 0.29726 0.0
C36 C 0.71149 0.21435 0.2092 0.0
O37 O 0.69614 0.23945 0.2515 0.0
C38 C 0.83645 0.3465 0.32494 0.0
O39 O 0.75952 0.22957 0.32189 0.0
O40 O 0.82157 0.2154 0.26279 0.0
N41 N 0.68591 0.30319 0.35048 0.0
C42 C 0.67268 0.28046 0.38578 0.0
C43 C 0.61002 0.29469 0.37056 0.0
N44 N 0.64696 0.31338 0.34174 0.0
N45 N 0.625 0.27196 0.39756 0.0
C46 C 0.87372 0.27381 0.14292 0.0
C47 C 0.93838 0.27367 0.16226 0.0
N48 N 0.86287 0.25956 0.18368 0.0
N49 N 0.90323 0.25823 0.19513 0.0
N50 N 0.9208 0.28459 0.12939 0.0
H51 H 0.80213 0.27168 0.13382 0.0
H52 H 0.843 0.23731 0.08555 0.0
H53 H 0.84815 0.3008 0.09388 0.0
C54 C 0.8394 0.2716 0.11301 0.0
C55 C 0.70604 0.27463 0.41389 0.0
H56 H 0.74228 0.29024 0.4008 0.0
H57 H 0.70734 0.23635 0.41267 0.0
H58 H 0.69307 0.29361 0.45148 0.0
O59 O 0.79174 0.33992 0.34252 0.0
O60 O 0.85123 0.3246 0.28134 0.0
C61 C 0.79622 0.20619 0.30121 0.0
O62 O 0.7871 0.32983 0.21032 0.0
O63 O 0.7294 0.34859 0.27306 0.0
Zn64 Zn 0.81215 0.81704 0.26354 0.0
O65 O 0.80481 0.84615 0.21115 0.0
C66 C 0.73056 0.8678 0.33501 0.0
Zn67 Zn 0.74865 0.76674 0.27196 0.0
C68 C 0.76648 0.82929 0.19923 0.0
O69 O 0.74034 0.7972 0.21791 0.0
C70 C 0.79629 0.75448 0.33586 0.0
O71 O 0.78643 0.70726 0.22078 0.0
O72 O 0.84841 0.75809 0.21216 0.0
N73 N 0.6837 0.73204 0.27236 0.0
C74 C 0.667 0.71037 0.23402 0.0
C75 C 0.60718 0.73216 0.29106 0.0
N76 N 0.64656 0.74526 0.30793 0.0
N77 N 0.61937 0.71116 0.24453 0.0
C78 C 0.89006 0.87283 0.30324 0.0
C79 C 0.9491 0.83577 0.25634 0.0
N80 N 0.87706 0.85141 0.26289 0.0
N81 N 0.91419 0.82938 0.23326 0.0
N82 N 0.93394 0.86176 0.30077 0.0
H83 H 0.84275 0.92976 0.33142 0.0
H84 H 0.88251 0.92962 0.36747 0.0
H85 H 0.83326 0.88499 0.36602 0.0
C86 C 0.86044 0.90616 0.34448 0.0
C87 C 0.69739 0.68634 0.18709 0.0
H88 H 0.71807 0.65985 0.19272 0.0
H89 H 0.72264 0.71316 0.17122 0.0
H90 H 0.67629 0.66645 0.1616 0.0
O91 O 0.75737 0.73744 0.32498 0.0
O92 O 0.82074 0.78736 0.31723 0.0
C93 C 0.83023 0.71536 0.20203 0.0
O94 O 0.77393 0.87619 0.31507 0.0
O95 O 0.7122 0.82523 0.32402 0.0
Zn96 Zn 0.29639 0.78498 0.29264 0.0
O97 O 0.26138 0.84384 0.34511 0.0
C98 C 0.21153 0.71337 0.32723 0.0
Zn99 Zn 0.24583 0.77719 0.24907 0.0
C100 C 0.2256 0.85779 0.33701 0.0
O101 O 0.21181 0.83608 0.29998 0.0
C102 C 0.31908 0.70549 0.20459 0.0
O103 O 0.29026 0.82924 0.20528 0.0
O104 O 0.34072 0.83806 0.24896 0.0
N105 N 0.19224 0.77262 0.21731 0.0
C106 C 0.16526 0.73308 0.20297 0.0
C107 C 0.12488 0.7934 0.21493 0.0
N108 N 0.16738 0.81016 0.2245 0.0
N109 N 0.12243 0.74512 0.20278 0.0
C110 C 0.38275 0.82327 0.33091 0.0
C111 C 0.40842 0.75958 0.33608 0.0
N112 N 0.34909 0.78771 0.3243 0.0
N113 N 0.36494 0.748 0.32728 0.0
N114 N 0.42097 0.8062 0.33651 0.0
H115 H 0.3995 0.88789 0.3054 0.0
H116 H 0.38747 0.89755 0.36846 0.0
H117 H 0.33961 0.88192 0.33893 0.0
C118 C 0.37658 0.87546 0.33627 0.0
C119 C 0.18262 0.68333 0.18547 0.0
H120 H 0.21635 0.68399 0.15814 0.0
H121 H 0.15746 0.65678 0.16874 0.0
H122 H 0.18942 0.67113 0.21497 0.0
O123 O 0.2817 0.71709 0.19715 0.0
O124 O 0.3322 0.72819 0.24158 0.0
C125 C 0.32946 0.84951 0.21488 0.0
O126 O 0.25167 0.73182 0.33575 0.0
O127 O 0.20033 0.72574 0.29366 0.0
Zn128 Zn 0.30107 0.77568 0.74039 0.0
O129 O 0.254 0.72634 0.69364 0.0
C130 C 0.24361 0.8604 0.74634 0.0
Zn131 Zn 0.24053 0.78981 0.80104 0.0
C132 C 0.20933 0.7179 0.71041 0.0
O133 O 0.19366 0.7384 0.75424 0.0
C134 C 0.33243 0.84785 0.82992 0.0
O135 O 0.26473 0.73209 0.8212 0.0
O136 O 0.32108 0.71522 0.75704 0.0
N137 N 0.18585 0.79436 0.85852 0.0
C138 C 0.15477 0.75842 0.87044 0.0
C139 C 0.14135 0.81985 0.92834 0.0
N140 N 0.17764 0.83267 0.89439 0.0
N141 N 0.12629 0.77365 0.91345 0.0
C142 C 0.37035 0.79308 0.65074 0.0
C143 C 0.43436 0.77473 0.66029 0.0
N144 N 0.35851 0.76918 0.68528 0.0
N145 N 0.39825 0.75635 0.69023 0.0
N146 N 0.41792 0.7993 0.63593 0.0
H147 H 0.29911 0.79373 0.64276 0.0
H148 H 0.34529 0.80047 0.59219 0.0
H149 H 0.33554 0.85029 0.6428 0.0
C150 C 0.33527 0.81053 0.63144 0.0
C151 C 0.15383 0.70708 0.84203 0.0
H152 H 0.18747 0.698 0.81594 0.0
H153 H 0.12499 0.70089 0.82301 0.0
H154 H 0.14608 0.68177 0.86563 0.0
O155 O 0.28729 0.8419 0.84589 0.0
O156 O 0.34862 0.82488 0.787 0.0
C157 C 0.29918 0.70691 0.79684 0.0
O158 O 0.28099 0.83842 0.72489 0.0
O159 O 0.21699 0.84774 0.78258 0.0
Zn160 Zn 0.33258 0.34027 0.76608 0.0
O161 O 0.32381 0.37755 0.71905 0.0
C162 C 0.25195 0.38836 0.83907 0.0
Zn163 Zn 0.2696 0.28946 0.76888 0.0
C164 C 0.28838 0.35867 0.70241 0.0
O165 O 0.26429 0.3227 0.71585 0.0
C166 C 0.3148 0.26925 0.83071 0.0
O167 O 0.30713 0.23106 0.71698 0.0
O168 O 0.36701 0.28446 0.70863 0.0
N169 N 0.20464 0.25617 0.76571 0.0
C170 C 0.1889 0.23372 0.7269 0.0
C171 C 0.12801 0.24801 0.78466 0.0
N172 N 0.16688 0.26513 0.80161 0.0
N173 N 0.14106 0.22943 0.73767 0.0
C174 C 0.42419 0.37426 0.79656 0.0
C175 C 0.47438 0.3766 0.73126 0.0
N176 N 0.39933 0.37077 0.76407 0.0
N177 N 0.43048 0.37196 0.72334 0.0
N178 N 0.47126 0.37595 0.77653 0.0
H179 H 0.36514 0.38915 0.858 0.0
H180 H 0.423 0.40623 0.87006 0.0
H181 H 0.40277 0.34455 0.85801 0.0
C182 C 0.40222 0.37898 0.84853 0.0
C183 C 0.22065 0.21245 0.67969 0.0
H184 H 0.24682 0.24036 0.66683 0.0
H185 H 0.2009 0.19505 0.65229 0.0
H186 H 0.24039 0.18437 0.68397 0.0
O187 O 0.27456 0.25643 0.82134 0.0
O188 O 0.34113 0.30155 0.81278 0.0
C189 C 0.34994 0.24143 0.69694 0.0
O190 O 0.29664 0.39744 0.82453 0.0
O191 O 0.23397 0.3473 0.82129 0.0
Zn192 Zn 0.79704 0.29147 0.79983 0.0
O193 O 0.76361 0.35068 0.85301 0.0
C194 C 0.71289 0.21792 0.8315 0.0
Zn195 Zn 0.74752 0.28474 0.75577 0.0
C196 C 0.72712 0.36441 0.84603 0.0
O197 O 0.71268 0.34247 0.8094 0.0
C198 C 0.82091 0.21487 0.70926 0.0
O199 O 0.79099 0.33799 0.71369 0.0
O200 O 0.8424 0.34367 0.75555 0.0
N201 N 0.69408 0.28253 0.7253 0.0
C202 C 0.66776 0.24391 0.70797 0.0
C203 C 0.62832 0.30529 0.72128 0.0
N204 N 0.6698 0.32072 0.73359 0.0
N205 N 0.62592 0.25715 0.70647 0.0
C206 C 0.88531 0.32864 0.83417 0.0
C207 C 0.91321 0.2642 0.83437 0.0
N208 N 0.85091 0.29332 0.82981 0.0
N209 N 0.86821 0.25314 0.82967 0.0
N210 N 0.92517 0.31104 0.83534 0.0
H211 H 0.89032 0.40211 0.87343 0.0
H212 H 0.84188 0.38774 0.84469 0.0
H213 H 0.90154 0.39448 0.81065 0.0
C214 C 0.87895 0.38105 0.84112 0.0
C215 C 0.6854 0.19434 0.68846 0.0
H216 H 0.71739 0.19567 0.65913 0.0
H217 H 0.6592 0.16739 0.67398 0.0
H218 H 0.69591 0.18214 0.71605 0.0
O219 O 0.78423 0.22695 0.70094 0.0
O220 O 0.83138 0.2349 0.74824 0.0
C221 C 0.83116 0.35611 0.72203 0.0
O222 O 0.75155 0.23806 0.84269 0.0
O223 O 0.70308 0.23034 0.79725 0.0
Zn224 Zn 0.80827 0.82138 0.77588 0.0
O225 O 0.83144 0.79198 0.82282 0.0
C226 C 0.84253 0.7335 0.69918 0.0
Zn227 Zn 0.75127 0.76657 0.76311 0.0
C228 C 0.80866 0.753 0.83005 0.0
O229 O 0.77291 0.73813 0.81251 0.0
C230 C 0.75059 0.83345 0.70764 0.0
O231 O 0.70424 0.81726 0.81676 0.0
O232 O 0.76428 0.86729 0.83112 0.0
N233 N 0.69826 0.71421 0.76339 0.0
C234 C 0.66679 0.70398 0.80166 0.0
C235 C 0.66156 0.64498 0.74295 0.0
N236 N 0.69505 0.67765 0.72679 0.0
N237 N 0.64326 0.66129 0.78964 0.0
C238 C 0.88843 0.89096 0.74397 0.0
C239 C 0.90578 0.93237 0.80822 0.0
N240 N 0.86028 0.8732 0.77943 0.0
N241 N 0.87086 0.89872 0.81948 0.0
N242 N 0.91673 0.92786 0.76114 0.0
H243 H 0.92463 0.86547 0.67104 0.0
H244 H 0.87783 0.90305 0.68016 0.0
H245 H 0.8643 0.84153 0.68436 0.0
C246 C 0.88825 0.87374 0.69225 0.0
C247 C 0.66093 0.73367 0.85183 0.0
H248 H 0.69406 0.75414 0.8584 0.0
H249 H 0.64873 0.71101 0.87792 0.0
H250 H 0.63347 0.75931 0.8588 0.0
O251 O 0.73029 0.79286 0.71299 0.0
O252 O 0.78382 0.85143 0.7284 0.0
C253 C 0.71982 0.85773 0.83861 0.0
O254 O 0.85462 0.77553 0.72049 0.0
O255 O 0.79883 0.71866 0.70859 0.0
Co256 Co 0.12208 1.00454 0.54858 0.0
N257 N 0.16349 0.99658 0.58449 0.0
C258 C 0.20245 0.97358 0.55844 0.0
N259 N 0.19871 0.97174 0.63216 0.0
C260 C 0.16237 0.99553 0.62988 0.0
C261 C 0.22394 0.95878 0.58711 0.0
Co262 Co 0.93515 0.05964 0.49006 0.0
N263 N 0.90356 0.06229 0.44215 0.0
N264 N 0.86886 0.08735 0.39389 0.0
C265 C 0.89255 0.04844 0.36887 0.0
C266 C 0.91336 0.03324 0.3981 0.0
C267 C 0.87588 0.09506 0.43842 0.0
Co268 Co 0.02968 0.03745 0.52276 0.0
C269 C 0.94926 0.1069 0.54836 0.0
H270 H 0.9371 1.00456 0.38664 0.0
O271 O 0.09086 1.00728 0.50915 0.0
O272 O 0.05704 0.0656 0.46631 0.0
O273 O 0.05116 0.09642 0.5655 0.0
O274 O 1.00539 1.00879 0.57904 0.0
O275 O 0.07016 0.98225 0.58952 0.0
O276 O 0.98999 0.07258 0.44893 0.0
O277 O 0.96394 0.06329 0.53664 0.0
O278 O 0.94234 0.99356 0.46505 0.0
O279 O 0.10888 0.06743 0.58509 0.0
O280 O 0.16768 1.02801 0.50594 0.0
O281 O 1.00905 0.97813 0.48085 0.0
O282 O 0.934 0.12109 0.51751 0.0
C283 C 0.08172 0.10038 0.58993 0.0
C284 C 0.85884 0.13734 0.47784 0.0
H285 H 0.84839 0.12679 0.51226 0.0
H286 H 0.88804 0.16611 0.47915 0.0
H287 H 0.8283 0.15211 0.47229 0.0
C288 C 0.03449 0.07519 0.43943 0.0
C289 C 0.02587 0.98863 0.60122 0.0
H290 H 0.21265 0.96461 0.52012 0.0
H291 H 0.13627 1.02006 0.70587 0.0
H292 H 0.09145 1.00703 0.672 0.0
H293 H 0.13055 0.05997 0.67087 0.0
C294 C 0.12817 1.0218 0.67237 0.0
C295 C 0.13405 1.01298 0.4835 0.0
C296 C 0.9739 0.96557 0.46192 0.0
H297 H 0.25399 0.93676 0.5752 0.0
H298 H 0.89665 0.03347 0.3312 0.0
Co299 Co 0.57517 0.9654 0.06288 0.0
N300 N 0.59406 0.94391 0.10727 0.0
C301 C 0.56664 0.91101 0.12924 0.0
N302 N 0.63638 0.91513 0.14458 0.0
C303 C 0.63677 0.94573 0.11741 0.0
C304 C 0.59242 0.8935 0.15225 0.0
Co305 Co 0.46335 0.094 0.97582 0.0
N306 N 0.44304 0.10825 0.92895 0.0
N307 N 0.40565 0.14234 0.8915 0.0
C308 C 0.4303 0.10718 0.85928 0.0
C309 C 0.45307 0.08599 0.88247 0.0
C310 C 0.41451 0.14283 0.93336 0.0
Co311 Co 0.51998 1.03172 0.02076 0.0
C312 C 0.43152 0.08584 0.04245 0.0
H313 H 0.47584 0.05656 0.86643 0.0
O314 O 0.56196 0.98107 0.01538 0.0
O315 O 0.5717 0.0619 0.96878 0.0
O316 O 0.55353 0.08047 0.07173 0.0
O317 O 0.46778 1.00231 0.07276 0.0
O318 O 0.51226 0.96582 0.10099 0.0
O319 O 0.52742 0.09836 0.93954 0.0
O320 O 0.47738 0.08256 0.02574 0.0
O321 O 0.45045 1.02809 0.94655 0.0
O322 O 0.59187 1.03125 0.09309 0.0
O323 O 0.63154 0.96434 0.02243 0.0
O324 O 0.48778 0.9813 0.9704 0.0
O325 O 0.40646 0.09069 1.01424 0.0
C326 C 0.58338 0.07394 0.09493 0.0
C327 C 0.39766 0.17903 0.97881 0.0
H328 H 0.42143 0.18236 1.00296 0.0
H329 H 0.39608 0.2146 0.97185 0.0
H330 H 0.36137 0.16697 0.99647 0.0
C331 C 0.56827 0.08853 0.9406 0.0
C332 C 0.47148 0.9763 0.10119 0.0
H333 H 0.53146 0.89698 0.12512 0.0
H334 H 0.69867 0.94849 0.06111 0.0
H335 H 0.70649 0.98176 0.11817 0.0
H336 H 0.67274 1.00527 0.08804 0.0
C337 C 0.68107 0.97212 0.09511 0.0
C338 C 0.60695 0.97479 0.99665 0.0
C339 C 0.45942 0.98622 0.9454 0.0
H340 H 0.58119 0.864 0.16963 0.0
H341 H 0.43238 0.09827 0.82158 0.0
Co342 Co 0.10873 0.50288 0.05421 0.0
N343 N 0.13932 0.49472 0.09774 0.0
C344 C 0.14727 0.52423 0.1383 0.0
N345 N 0.17844 0.45618 0.13037 0.0
C346 C 0.15903 0.45377 0.09379 0.0
C347 C 0.17099 0.50034 0.15865 0.0
Co348 Co 0.93508 0.55228 0.97345 0.0
N349 N 0.91258 0.56823 0.92655 0.0
N350 N 0.88528 0.60868 0.88528 0.0
C351 C 0.88805 0.56257 0.861 0.0
C352 C 0.90484 0.53787 0.88628 0.0
C353 C 0.90031 0.6115 0.92478 0.0
Co354 Co 1.02079 0.52937 0.01825 0.0
C355 C 0.92689 0.58046 0.04458 0.0
H356 H 0.91013 0.49985 0.87619 0.0
O357 O 0.08645 0.51004 1.01082 0.0
O358 O 0.04806 0.58365 0.98782 0.0
O359 O 1.01762 0.57494 0.07954 0.0
O360 O 0.99469 0.47553 0.04992 0.0
O361 O 0.05595 0.46365 0.07729 0.0
O362 O 0.98721 0.59689 0.96217 0.0
O363 O 0.95345 0.54375 0.02312 0.0
O364 O 0.96837 0.50157 0.9277 0.0
O365 O 0.08197 0.55889 0.09737 0.0
O366 O 0.15719 0.53855 0.02492 0.0
O367 O 0.02424 0.48362 0.95722 0.0
O368 O 0.90467 0.59577 0.01994 0.0
C369 C 0.04608 0.58312 0.10617 0.0
C370 C 0.89967 0.65668 0.96368 0.0
H371 H 0.9316 0.66171 0.97803 0.0
H372 H 0.89776 0.68924 0.95157 0.0
H373 H 0.86769 0.65417 0.99277 0.0
C374 C 0.02863 0.60812 0.96911 0.0
C375 C 1.0138 0.45333 0.07136 0.0
H376 H 0.13625 0.56046 0.15254 0.0
H377 H 0.14277 0.41817 0.0267 0.0
H378 H 0.14336 0.37915 0.06527 0.0
H379 H 0.19815 0.40424 0.03481 0.0
C380 C 0.16058 0.41144 0.0525 0.0
C381 C 0.13116 0.52286 0.99405 0.0
C382 C 1.00159 0.47611 0.92536 0.0
H383 H 0.18105 0.51389 0.1921 0.0
H384 H 0.87773 0.54764 0.82782 0.0
Co385 Co 0.61197 0.51283 0.06214 0.0
N386 N 0.6446 0.51553 0.10904 0.0
C387 C 0.64915 0.55051 0.14766 0.0
N388 N 0.68082 0.48735 0.15347 0.0
C389 C 0.66408 0.4775 0.11365 0.0
C390 C 0.67111 0.53328 0.17491 0.0
Co391 Co 0.43714 0.55072 0.97502 0.0
N392 N 0.41137 0.55692 0.9253 0.0
N393 N 0.37837 0.58263 0.87678 0.0
C394 C 0.38026 0.53475 0.86187 0.0
C395 C 0.39995 0.51921 0.89177 0.0
C396 C 0.39739 0.59542 0.91523 0.0
Co397 Co 0.52262 0.53103 0.02078 0.0
C398 C 0.43107 0.58665 0.04365 0.0
H399 H 0.40445 0.48238 0.88987 0.0
O400 O 0.58677 0.50818 0.0156 0.0
O401 O 0.55235 0.56434 0.96805 0.0
O402 O 0.53123 0.59129 0.06852 0.0
O403 O 0.49386 0.4983 0.07397 0.0
O404 O 0.55787 0.49172 0.09948 0.0
O405 O 0.49 0.59032 0.95417 0.0
O406 O 0.4567 0.54909 0.02519 0.0
O407 O 0.47039 0.49832 0.935 0.0
O408 O 0.59438 0.57622 0.08976 0.0
O409 O 0.66114 0.53294 0.02166 0.0
O410 O 0.51421 0.47124 0.97233 0.0
O411 O 0.40989 0.59985 0.01653 0.0
C412 C 0.56277 0.60357 0.09219 0.0
C413 C 0.40138 0.6462 0.94378 0.0
H414 H 0.43332 0.65313 0.95831 0.0
H415 H 0.40279 0.67221 0.92197 0.0
H416 H 0.36967 0.65224 0.9739 0.0
C417 C 0.53448 0.58817 0.94716 0.0
C418 C 0.51348 0.48699 0.10276 0.0
H419 H 0.63562 0.58561 0.15674 0.0
H420 H 0.65884 0.4 0.09917 0.0
H421 H 0.69616 0.42571 0.05231 0.0
H422 H 0.63284 0.42508 0.06271 0.0
C423 C 0.66259 0.42907 0.08027 0.0
C424 C 0.63143 0.51645 0.99457 0.0
C425 C 0.49878 0.46904 0.93601 0.0
H426 H 0.67841 0.55272 0.20858 0.0
H427 H 0.36689 0.51243 0.83237 0.0
Co428 Co 0.08127 0.46962 0.56307 0.0
N429 N 0.10427 0.45195 0.60732 0.0
C430 C 0.08099 0.41814 0.63032 0.0
N431 N 0.152 0.4309 0.64473 0.0
C432 C 0.14781 0.45913 0.61691 0.0
C433 C 0.11015 0.4052 0.65326 0.0
Co434 Co 0.95907 0.58899 0.47706 0.0
N435 N 0.94196 0.6075 0.43092 0.0
N436 N 0.9008 0.63914 0.39508 0.0
C437 C 0.93461 0.61404 0.36152 0.0
C438 C 0.95949 0.59391 0.38365 0.0
C439 C 0.90602 0.63473 0.43691 0.0
Co440 Co 1.02055 0.53074 0.52086 0.0
C441 C 0.97073 0.62306 0.54191 0.0
H442 H 0.98837 0.57079 0.36647 0.0
O443 O 0.06516 0.48244 0.51553 0.0
O444 O 0.07116 0.56168 0.46924 0.0
O445 O 0.05239 0.5819 0.57165 0.0
O446 O 0.97107 0.49992 0.57322 0.0
O447 O 1.01804 0.46684 0.60233 0.0
O448 O 0.02423 0.5971 0.44343 0.0
O449 O 0.97258 0.57644 0.5263 0.0
O450 O 0.94992 0.52433 0.4439 0.0
O451 O 0.0942 0.53591 0.59273 0.0
O452 O 0.13701 0.47135 0.52145 0.0
O453 O 0.98893 0.47953 0.46977 0.0
O454 O 0.96704 0.64772 0.5126 0.0
C455 C 0.08298 0.57755 0.59496 0.0
C456 C 0.87742 0.65871 0.48464 0.0
H457 H 0.89576 0.69405 0.49727 0.0
H458 H 0.84144 0.66505 0.48307 0.0
H459 H 0.87457 0.63656 0.51049 0.0
C460 C 0.06599 0.58871 0.44253 0.0
C461 C 0.97643 0.4754 0.60228 0.0
H462 H 0.04646 0.40078 0.62725 0.0
H463 H 0.20781 0.46686 0.55995 0.0
H464 H 0.21445 0.50191 0.61686 0.0
H465 H 0.17673 0.52065 0.58731 0.0
C466 C 0.18883 0.48915 0.59413 0.0
C467 C 0.11019 0.47765 0.4956 0.0
C468 C 0.9608 0.48321 0.44353 0.0
H469 H 0.10274 0.37619 0.67139 0.0
H470 H 0.94123 0.61128 0.3238 0.0
Co471 Co 0.60548 1.0067 0.55531 0.0
N472 N 0.63612 1.002 0.60014 0.0
C473 C 0.64956 0.03496 0.63613 0.0
N474 N 0.67272 0.9654 0.63702 0.0
C475 C 0.6509 0.96018 0.60132 0.0
C476 C 0.67218 1.01253 0.65873 0.0
Co477 Co 0.43562 0.05851 0.47142 0.0
N478 N 0.40986 0.06603 0.4232 0.0
N479 N 0.37112 0.09921 0.385 0.0
C480 C 0.40695 0.07541 0.35307 0.0
C481 C 0.4302 0.05469 0.37639 0.0
C482 C 0.37306 0.09219 0.42725 0.0
Co483 Co 0.52075 0.03541 0.51625 0.0
C484 C 0.43913 0.10058 0.53661 0.0
H485 H 0.46244 0.03619 0.36068 0.0
O486 O 0.58283 1.00924 0.50997 0.0
O487 O 0.55283 0.07906 0.47453 0.0
O488 O 0.52625 0.08839 0.57111 0.0
O489 O 0.4896 0.99134 0.55811 0.0
O490 O 0.54899 0.97983 0.58803 0.0
O491 O 0.49379 0.08919 0.44434 0.0
O492 O 0.45656 0.05786 0.52216 0.0
O493 O 0.45615 0.9979 0.43482 0.0
O494 O 0.58852 0.06927 0.59034 0.0
O495 O 0.65704 1.03025 0.51738 0.0
O496 O 0.51557 0.98242 0.46145 0.0
O497 O 0.41983 0.11427 0.50863 0.0
C498 C 0.55636 0.09721 0.59607 0.0
C499 C 0.34104 0.1145 0.47385 0.0
H500 H 0.35599 0.15132 0.48747 0.0
H501 H 0.30513 0.11781 0.47026 0.0
H502 H 0.33757 0.09253 0.49997 0.0
C503 C 0.53669 0.09708 0.44779 0.0
C504 C 0.50593 0.97287 0.58463 0.0
H505 H 0.64366 0.07279 0.64531 0.0
H506 H 0.60987 0.89679 0.57523 0.0
H507 H 0.67289 0.88963 0.56123 0.0
H508 H 0.64881 0.92288 0.53003 0.0
C509 C 0.64577 0.91458 0.56476 0.0
C510 C 0.62785 1.01564 0.48947 0.0
C511 C 0.48899 0.97211 0.43274 0.0
H512 H 0.68686 1.02946 0.68906 0.0
H513 H 0.41803 0.07637 0.31601 0.0
C514 C 0.05439 0.13674 0.33983 0.0
C515 C 0.0976 0.12061 0.31065 0.0
C516 C 0.03497 0.12201 0.38173 0.0
C517 C 0.05828 0.09066 0.39588 0.0
H518 H 0.03768 0.16393 0.33197 0.0
H519 H 1.00211 0.13664 0.40401 0.0
S520 S 0.16829 1.03173 0.32637 0.0
N521 N 0.16047 0.06753 0.29462 0.0
N522 N 0.12381 0.03923 0.37415 0.0
C523 C 0.10003 0.07175 0.3653 0.0
C524 C 0.1195 0.08654 0.32217 0.0
C525 C 0.86178 0.16584 0.31343 0.0
C526 C 0.81298 0.1734 0.32428 0.0
C527 C 0.87963 0.13868 0.33701 0.0
C528 C 0.84975 0.11817 0.37296 0.0
H529 H 0.88673 0.18172 0.28691 0.0
H530 H 0.91732 0.13375 0.3272 0.0
S531 S 0.71895 0.12274 0.41208 0.0
N532 N 0.7347 0.15404 0.37101 0.0
N533 N 0.76862 0.10484 0.41636 0.0
C534 C 0.80092 0.12454 0.38368 0.0
C535 C 0.78252 0.15168 0.35919 0.0
C536 C 0.92712 0.86183 0.38334 0.0
C537 C 0.95546 0.86895 0.33958 0.0
C538 C 0.93711 0.88896 0.42563 0.0
C539 C 0.97661 0.92202 0.42459 0.0
H540 H 0.89323 0.84131 0.3851 0.0
H541 H 0.91092 0.88852 0.45859 0.0
S542 S 0.07005 0.94005 0.31922 0.0
N543 N 0.03014 0.90102 0.29751 0.0
N544 N 0.05038 0.9516 0.37747 0.0
C545 C 1.00998 0.92209 0.3814 0.0
C546 C 0.99919 0.89506 0.33837 0.0
C547 C 0.22144 0.94489 0.37822 0.0
C548 C 0.19938 0.89826 0.37027 0.0
C549 C 0.19743 0.98321 0.41122 0.0
C550 C 0.15072 0.97641 0.43842 0.0
H551 H 0.25783 0.95161 0.3595 0.0
H552 H 0.21682 1.01795 0.41785 0.0
S553 S 0.07798 0.85968 0.42977 0.0
N554 N 0.12806 0.84702 0.38961 0.0
N555 N 0.08399 0.9177 0.45416 0.0
C556 C 0.12797 0.92971 0.42932 0.0
C557 C 0.1521 0.89103 0.39471 0.0
C558 C 0.26441 0.92591 0.70192 0.0
C559 C 0.22942 0.89643 0.72568 0.0
C560 C 0.25309 0.95397 0.67498 0.0
C561 C 0.20641 0.95345 0.67002 0.0
H562 H 0.30122 0.92595 0.7027 0.0
H563 H 0.28162 0.97428 0.65553 0.0
S564 S 0.1017 0.88194 0.72474 0.0
N565 N 0.14573 0.86946 0.74358 0.0
N566 N 0.12497 0.9205 0.6914 0.0
C567 C 0.17075 0.92544 0.69499 0.0
C568 C 0.18215 0.89741 0.72316 0.0
C569 C 0.08552 0.16287 0.71337 0.0
C570 C 0.11095 0.20616 0.70679 0.0
C571 C 0.07056 0.13054 0.67571 0.0
C572 C 0.08127 0.14075 0.63076 0.0
H573 H 0.0817 0.15189 0.74602 0.0
H574 H 0.0546 0.09551 0.6805 0.0
S575 S 0.13531 0.25486 0.60001 0.0
N576 N 0.13657 0.2625 0.65609 0.0
N577 N 0.10992 0.20039 0.58421 0.0
C578 C 0.10059 0.18654 0.62569 0.0
C579 C 0.115 0.21985 0.66433 0.0
C580 C 0.8395 0.14061 0.64363 0.0
C581 C 0.85516 0.18284 0.67268 0.0
C582 C 0.87202 0.1123 0.60697 0.0
C583 C 0.92124 0.12589 0.597 0.0
H584 H 0.80189 0.13001 0.6485 0.0
H585 H 0.85813 0.08151 0.58367 0.0
S586 S 0.98048 0.23238 0.66383 0.0
N587 N 0.92364 0.23522 0.69111 0.0
N588 N 0.98385 0.18356 0.62013 0.0
C589 C 0.93745 0.16697 0.62685 0.0
C590 C 0.90461 0.19505 0.66516 0.0
C591 C 0.99227 0.93276 0.70613 0.0
C592 C 0.95081 0.95474 0.733 0.0
C593 C 1.01575 0.94331 0.66294 0.0
C594 C 0.99905 0.97721 0.64596 0.0
H595 H 1.0034 0.90351 0.71622 0.0
H596 H 0.04641 0.92373 0.64209 0.0
S597 S 0.89503 0.04926 0.70753 0.0
N598 N 0.8957 1.01403 0.74267 0.0
N599 N 0.94137 0.03666 0.66227 0.0
C600 C 0.95954 1.0022 0.67454 0.0
C601 C 0.93539 0.99075 0.71827 0.0
C602 C 0.4035 0.18376 0.15128 0.0
C603 C 0.35419 0.17392 0.16737 0.0
C604 C 0.43136 0.15051 0.11487 0.0
C605 C 0.41088 0.10635 0.09307 0.0
H606 H 0.42029 0.21851 0.16479 0.0
H607 H 0.46795 0.1617 0.10038 0.0
S608 S 0.28628 0.05844 0.12875 0.0
N609 N 0.28823 0.11273 0.16399 0.0
N610 N 0.34055 0.05134 0.095 0.0
C611 C 0.36305 0.09397 0.11231 0.0
C612 C 0.33465 0.12754 0.1494 0.0
C613 C 0.91916 0.36771 0.12385 0.0
C614 C 0.94167 0.32417 0.10873 0.0
C615 C 0.94209 0.40944 0.11065 0.0
C616 C 0.98899 0.40931 0.0837 0.0
H617 H 0.88445 0.37004 0.14797 0.0
H618 H 0.92383 0.44233 0.12319 0.0
S619 S 0.06267 0.3045 0.03357 0.0
N620 N 1.01224 0.28313 0.06388 0.0
N621 N 0.05642 0.36202 0.03991 0.0
C622 C 1.01174 0.36606 0.06791 0.0
C623 C 0.98787 0.32338 0.08039 0.0
C624 C 0.72097 0.82855 0.14106 0.0
C625 C 0.74516 0.855 0.17514 0.0
C626 C 0.68729 0.84965 0.12893 0.0
C627 C 0.67649 0.89729 0.15126 0.0
H628 H 0.72586 0.79062 0.12611 0.0
H629 H 0.66753 0.82798 0.10403 0.0
S630 S 0.72974 0.9813 0.24271 0.0
N631 N 0.75726 0.93149 0.23002 0.0
N632 N 0.69236 0.97048 0.20791 0.0
C633 C 0.70178 0.92471 0.18373 0.0
C634 C 0.73676 0.90365 0.19546 0.0
C635 C 0.06906 0.71321 0.15066 0.0
C636 C 0.08327 0.71331 0.19157 0.0
C637 C 0.04894 0.67099 0.12609 0.0
C638 C 0.04393 0.62835 0.14167 0.0
H639 H 0.07921 0.7436 0.13445 0.0
H640 H 0.04337 0.67023 0.09179 0.0
S641 S 0.05979 0.61617 0.2557 0.0
N642 N 0.07755 0.67269 0.25423 0.0
N643 N 0.0425 0.59189 0.2061 0.0
C644 C 0.05012 0.63054 0.18661 0.0
C645 C 0.0689 0.67392 0.21241 0.0
C646 C 0.41603 0.88646 0.84403 0.0
C647 C 0.36565 0.88066 0.86085 0.0
C648 C 0.44668 0.91741 0.87178 0.0
C649 C 0.42947 0.9445 0.91885 0.0
H650 H 0.43219 0.8675 0.80836 0.0
H651 H 0.48421 0.92129 0.8554 0.0
S652 S 0.30128 0.94468 0.98098 0.0
N653 N 0.30124 0.90675 0.92934 0.0
N654 N 0.35736 0.96351 0.97974 0.0
C655 C 0.37941 0.93888 0.93597 0.0
C656 C 0.3483 0.90757 0.90792 0.0
C657 C 0.23507 0.47294 0.89106 0.0
C658 C 0.21987 0.42414 0.87594 0.0
C659 C 0.20486 0.50568 0.92651 0.0
C660 C 0.1578 0.4915 0.94838 0.0
H661 H 0.27086 0.48587 0.87609 0.0
H662 H 0.21916 0.54213 0.93824 0.0
S663 S 0.10119 0.36715 0.92268 0.0
N664 N 0.15428 0.36354 0.88639 0.0
N665 N 0.09863 0.4239 0.95205 0.0
C666 C 0.14206 0.44295 0.93265 0.0
C667 C 0.17271 0.40976 0.8969 0.0
C668 C 0.68307 0.17273 0.90133 0.0
C669 C 0.67917 0.18087 0.85763 0.0
C670 C 0.65017 0.14064 0.92646 0.0
C671 C 0.61102 0.11382 0.90961 0.0
H672 H 0.71119 0.19252 0.91727 0.0
H673 H 0.65438 0.13861 0.96058 0.0
S674 S 0.58626 0.11648 0.79493 0.0
N675 N 0.63321 0.15484 0.79794 0.0
N676 N 0.57358 0.09626 0.84356 0.0
C677 C 0.6081 0.1203 0.86516 0.0
C678 C 0.64117 0.15285 0.83987 0.0
C679 C 0.79908 0.6798 0.86248 0.0
C680 C 0.82782 0.72011 0.85026 0.0
C681 C 0.81808 0.64343 0.87374 0.0
C682 C 0.86643 0.64597 0.87315 0.0
H683 H 0.76177 0.67567 0.86225 0.0
H684 H 0.79495 0.61298 0.88276 0.0
S685 S 0.9574 0.74231 0.84305 0.0
N686 N 0.90769 0.75965 0.83834 0.0
N687 N 0.94289 0.69077 0.85913 0.0
C688 C 0.89553 0.68585 0.86148 0.0
C689 C 0.87632 0.72316 0.85035 0.0
C690 C 0.18114 0.34821 0.17627 0.0
C691 C 0.22977 0.3477 0.17425 0.0
C692 C 0.16476 0.38285 0.16022 0.0
C693 C 0.19641 0.41778 0.14137 0.0
H694 H 0.15519 0.32348 0.19278 0.0
H695 H 0.12697 0.38363 0.1642 0.0
S696 S 0.32727 0.42718 0.12037 0.0
N697 N 0.30972 0.38203 0.14658 0.0
N698 N 0.27839 0.44662 0.11609 0.0
C699 C 0.24509 0.41587 0.13621 0.0
C700 C 0.26193 0.38084 0.15266 0.0
C701 C 0.05569 0.71935 0.92055 0.0
C702 C 0.0939 0.74308 0.93927 0.0
C703 C 0.03524 0.6755 0.93013 0.0
C704 C 0.05208 0.65404 0.95921 0.0
H705 H 0.04458 0.73278 0.89491 0.0
H706 H 1.00726 0.65748 0.91302 0.0
S707 S 0.14679 0.70675 0.02276 0.0
N708 N 0.14463 0.74575 0.99192 0.0
N709 N 0.10612 0.66297 1.01076 0.0
C710 C 0.08827 0.67931 0.98079 0.0
C711 C 0.10884 0.72422 0.97103 0.0
C712 C 0.38603 0.23745 0.83757 0.0
C713 C 0.33642 0.24048 0.85238 0.0
C714 C 0.40832 0.20582 0.85132 0.0
C715 C 0.38202 0.17666 0.88088 0.0
H716 H 0.40783 0.25798 0.81321 0.0
H717 H 0.44633 0.20335 0.83814 0.0
S718 S 0.25218 0.17144 0.9311 0.0
N719 N 0.26185 0.21205 0.89917 0.0
N720 N 0.3047 0.1527 0.92589 0.0
C721 C 0.33282 0.17997 0.8973 0.0
C722 C 0.30974 0.21186 0.88273 0.0
C723 C 0.9868 0.37506 0.82269 0.0
C724 C 0.96606 0.33913 0.8472 0.0
C725 C 1.00333 0.4197 0.84696 0.0
C726 C 1.00211 0.42759 0.89516 0.0
H727 H 0.98304 0.37132 0.78703 0.0
H728 H 1.01274 0.44914 0.82938 0.0
S729 S 0.96425 0.33898 0.97004 0.0
N730 N 0.95505 0.30995 0.91784 0.0
N731 N 0.98757 0.39286 0.96374 0.0
C732 C 0.98966 0.38868 0.91716 0.0
C733 C 0.97217 0.34393 0.89259 0.0
C734 C 0.63811 0.88149 0.88644 0.0
C735 C 0.68702 0.89398 0.87155 0.0
C736 C 0.60827 0.91314 0.92267 0.0
C737 C 0.62635 0.95825 0.94531 0.0
H738 H 0.62332 0.84593 0.87237 0.0
H739 H 0.57232 0.89986 0.93679 0.0
S740 S 0.74826 1.01329 0.91145 0.0
N741 N 0.7495 0.95896 0.87594 0.0
N742 N 0.69343 1.01729 0.94447 0.0
C743 C 0.67339 0.97345 0.92655 0.0
C744 C 0.70384 0.94149 0.88982 0.0
C745 C 0.90596 0.68875 0.14208 0.0
C746 C 0.86048 0.67642 0.16857 0.0
C747 C 0.93291 0.65423 0.10618 0.0
C748 C 0.91645 0.60544 0.0955 0.0
H749 H 0.91965 0.72601 0.1467 0.0
H750 H 0.96434 0.66688 0.0829 0.0
S751 S 0.80368 0.55237 0.15934 0.0
N752 N 0.80311 0.61027 0.18538 0.0
N753 N 0.85404 0.54584 0.11824 0.0
C754 C 0.87337 0.59188 0.1249 0.0
C755 C 0.84532 0.62712 0.16107 0.0
C756 C 0.40546 0.90675 0.19848 0.0
C757 C 0.36217 0.88553 0.18697 0.0
C758 C 0.43748 0.9382 0.17293 0.0
C759 C 0.42952 0.95141 0.13325 0.0
H760 H 0.41567 0.89823 0.22728 0.0
H761 H 0.47014 0.95143 0.18401 0.0
S762 S 0.32094 0.90836 0.0877 0.0
N763 N 0.31265 0.88275 0.13264 0.0
N764 N 0.37253 0.94027 0.08496 0.0
C765 C 0.38569 0.9317 0.12191 0.0
C766 C 0.35262 0.89949 0.14827 0.0
C767 C 0.69463 0.14454 0.1387 0.0
C768 C 0.67734 0.18111 0.17944 0.0
C769 C 0.6644 0.1127 0.1115 0.0
C770 C 0.61422 0.11498 0.12174 0.0
H771 H 0.73232 0.13959 0.12789 0.0
H772 H 0.68099 0.08541 0.0816 0.0
S773 S 0.54907 0.20587 0.22221 0.0
N774 N 0.60472 0.21819 0.22688 0.0
N775 N 0.54942 0.15981 0.17603 0.0
C776 C 0.59636 0.1523 0.16147 0.0
C777 C 0.62716 0.18452 0.18986 0.0
C778 C 0.56895 0.65116 0.84653 0.0
C779 C 0.61395 0.63557 0.82243 0.0
C780 C 0.54453 0.63699 0.88785 0.0
C781 C 0.56435 0.60675 0.90674 0.0
H782 H 0.55369 0.67634 0.83442 0.0
H783 H 0.50992 0.65033 0.90523 0.0
S784 S 0.68253 0.55696 0.85564 0.0
N785 N 0.67833 0.58948 0.81937 0.0
N786 N 0.63225 0.5614 0.89694 0.0
C787 C 0.60953 0.59058 0.88234 0.0
C788 C 0.63424 0.60512 0.84006 0.0
C789 C 0.3584 0.64853 0.79139 0.0
C790 C 0.3166 0.67193 0.81657 0.0
C791 C 0.37817 0.61908 0.81104 0.0
C792 C 0.35732 0.61233 0.8568 0.0
H793 H 0.37661 0.65364 0.7565 0.0
H794 H 0.41051 0.60216 0.79076 0.0
S795 S 0.24579 0.66037 0.93589 0.0
N796 N 0.25338 0.68264 0.88895 0.0
N797 N 0.29124 0.62767 0.92532 0.0
C798 C 0.31502 0.63392 0.88177 0.0
C799 C 0.29451 0.66358 0.86183 0.0
C800 C 0.52911 0.43416 0.80698 0.0
C801 C 0.50836 0.3871 0.80126 0.0
C802 C 0.53472 0.45976 0.85158 0.0
C803 C 0.52012 0.43816 0.89039 0.0
H804 H 0.53179 0.45392 0.78024 0.0
H805 H 0.54289 0.49828 0.85724 0.0
S806 S 0.48992 0.30897 0.88501 0.0
N807 N 0.49386 0.31449 0.83074 0.0
N808 N 0.50264 0.36333 0.91597 0.0
C809 C 0.51216 0.38823 0.88164 0.0
C810 C 0.50743 0.36203 0.8358 0.0
C811 C 0.65227 0.40274 0.89562 0.0
C812 C 0.70203 0.40601 0.87926 0.0
C813 C 0.62842 0.44049 0.93009 0.0
C814 C 0.6531 0.48385 0.94816 0.0
H815 H 0.6319 0.36967 0.88383 0.0
H816 H 0.59109 0.43387 0.94499 0.0
S817 S 0.78289 0.51297 0.90998 0.0
N818 N 0.77464 0.4573 0.87968 0.0
N819 N 0.72996 0.52927 0.94177 0.0
C820 C 0.70249 0.48873 0.92852 0.0
C821 C 0.72687 0.44967 0.8949 0.0
C822 C 0.69713 0.41799 0.23821 0.0
C823 C 0.73709 0.39171 0.21257 0.0
C824 C 0.6793 0.44924 0.21885 0.0
C825 C 0.70011 0.45529 0.17274 0.0
H826 H 0.67891 0.41403 0.27349 0.0
H827 H 0.64835 0.46824 0.23981 0.0
S828 S 0.80745 0.39918 0.09179 0.0
N829 N 0.79832 0.37697 0.13899 0.0
N830 N 0.76462 0.43541 0.10315 0.0
C831 C 0.74054 0.43046 0.14707 0.0
C832 C 0.75902 0.39886 0.16682 0.0
C833 C 0.60282 0.71297 0.16939 0.0
C834 C 0.58921 0.69784 0.21216 0.0
C835 C 0.58751 0.68588 0.12947 0.0
C836 C 0.55663 0.64476 0.13255 0.0
H837 H 0.63033 0.74172 0.16518 0.0
H838 H 0.60434 0.69358 0.09526 0.0
S839 S 0.49917 0.60048 0.2403 0.0
N840 N 0.53554 0.6465 0.25807 0.0
N841 N 0.50413 0.59726 0.18362 0.0
C842 C 0.53581 0.63533 0.17726 0.0
C843 C 0.55267 0.66177 0.21736 0.0
C844 C 0.3994 0.67791 0.15784 0.0
C845 C 0.34957 0.66863 0.16965 0.0
C846 C 0.42866 0.64673 0.12028 0.0
C847 C 0.40943 0.60399 0.09475 0.0
H848 H 0.41551 0.71139 0.17523 0.0
H849 H 0.46564 0.65841 0.10848 0.0
S850 S 0.28215 0.56005 0.11646 0.0
N851 N 0.28306 0.61184 0.15581 0.0
N852 N 0.33796 0.55191 0.08755 0.0
C853 C 0.36031 0.59213 0.10989 0.0
C854 C 0.33036 0.6248 0.14652 0.0
C855 C 0.48157 0.42212 0.20059 0.0
C856 C 0.43709 0.43817 0.22602 0.0
C857 C 0.50531 0.43751 0.15996 0.0
C858 C 0.48511 0.46938 0.14348 0.0
H859 H 0.49635 0.39498 0.21054 0.0
H860 H 0.53932 0.42342 0.14067 0.0
S861 S 0.37158 0.52619 0.20173 0.0
N862 N 0.37492 0.49002 0.23508 0.0
N863 N 0.42022 0.52014 0.15831 0.0
C864 C 0.44155 0.48755 0.16998 0.0
C865 C 0.41751 0.47192 0.21168 0.0
C866 C 0.86801 0.65353 0.64575 0.0
C867 C 0.87949 0.70245 0.66463 0.0
C868 C 0.90123 0.62492 0.61015 0.0
C869 C 0.94705 0.64423 0.59164 0.0
H870 H 0.83249 0.63764 0.65704 0.0
H871 H 0.88936 0.58878 0.5939 0.0
S872 S 0.99763 0.7678 0.63315 0.0
N873 N 0.94269 0.76687 0.66594 0.0
N874 N 1.00381 0.71343 0.59805 0.0
C875 C 0.96018 0.69175 0.61271 0.0
C876 C 0.92674 0.72079 0.64931 0.0
C877 C 0.43605 0.8541 0.58241 0.0
C878 C 0.44174 0.84227 0.62285 0.0
C879 C 0.45295 0.89895 0.57302 0.0
C880 C 0.47821 0.93255 0.60242 0.0
H881 H 0.41848 0.82853 0.55784 0.0
H882 H 0.44804 0.9065 0.54135 0.0
S883 S 0.50129 0.92013 0.71383 0.0
N884 N 0.47165 0.86923 0.69451 0.0
N885 N 0.5071 0.95203 0.67418 0.0
C886 C 0.48421 0.92138 0.64302 0.0
C887 C 0.46547 0.87644 0.65365 0.0
C888 C 0.24719 0.35571 0.64022 0.0
C889 C 0.26741 0.38349 0.67698 0.0
C890 C 0.21168 0.37323 0.62725 0.0
C891 C 0.19499 0.4185 0.65121 0.0
H892 H 0.25616 0.3189 0.62409 0.0
H893 H 0.19487 0.35021 0.60053 0.0
S894 S 0.23891 0.50655 0.74688 0.0
N895 N 0.27122 0.46005 0.73427 0.0
N896 N 0.20316 0.49229 0.71024 0.0
C897 C 0.21723 0.44805 0.68538 0.0
C898 C 0.25403 0.43066 0.69812 0.0
C899 C 0.5705 0.18655 0.7066 0.0
C900 C 0.58943 0.22683 0.68818 0.0
C901 C 0.55536 0.14451 0.67735 0.0
C902 C 0.55681 0.14327 0.63013 0.0
H903 H 0.5739 0.18561 0.74128 0.0
H904 H 0.54649 0.11198 0.69033 0.0
S905 S 0.59127 0.24422 0.57088 0.0
N906 N 0.60033 0.26652 0.62441 0.0
N907 N 0.5694 0.1882 0.56959 0.0
C908 C 0.568 0.18589 0.61434 0.0
C909 C 0.58446 0.22809 0.64378 0.0
C910 C 0.85617 0.39512 0.4052 0.0
C911 C 0.87079 0.37826 0.35509 0.0
C912 C 0.88658 0.42506 0.43352 0.0
C913 C 0.93441 0.44032 0.41436 0.0
H914 H 0.82017 0.38574 0.42306 0.0
H915 H 0.87159 0.438 0.47109 0.0
S916 S 0.99172 0.40886 0.28528 0.0
N917 N 0.93828 0.38081 0.28812 0.0
N918 N 0.99357 0.43669 0.3403 0.0
C919 C 0.94956 0.42378 0.36439 0.0
C920 C 0.91873 0.393 0.33545 0.0
C921 C 0.7206 0.95457 0.38168 0.0
C922 C 0.70156 0.90655 0.37091 0.0
C923 C 0.69498 0.99041 0.41757 0.0
C924 C 0.64865 0.98065 0.4439 0.0
H925 H 0.7563 0.96438 0.3634 0.0
H926 H 0.71263 1.02564 0.42651 0.0
S927 S 0.58312 0.86005 0.43147 0.0
N928 N 0.63324 0.85117 0.3906 0.0
N929 N 0.58585 0.91787 0.45732 0.0
C930 C 0.62881 0.93289 0.43271 0.0
C931 C 0.65497 0.89626 0.39651 0.0
C932 C 0.13053 0.66531 0.34996 0.0
C933 C 0.17724 0.67894 0.35613 0.0
C934 C 0.09715 0.63528 0.37622 0.0
C935 C 0.10718 0.61561 0.4112 0.0
H936 H 0.11889 0.67906 0.32496 0.0
H937 H 0.06214 0.62816 0.36923 0.0
S938 S 0.22432 0.63913 0.44291 0.0
N939 N 0.2315 0.66895 0.40125 0.0
N940 N 0.16959 0.61369 0.45005 0.0
C941 C 0.1541 0.62839 0.41762 0.0
C942 C 0.1884 0.6594 0.39067 0.0
C943 C 0.35701 0.21118 0.35036 0.0
C944 C 0.30765 0.20999 0.35531 0.0
C945 C 0.37711 0.17529 0.36102 0.0
C946 C 0.34876 0.13696 0.37725 0.0
H947 H 0.38071 0.2386 0.33576 0.0
H948 H 0.41531 0.17683 0.35557 0.0
S949 S 0.21749 0.12095 0.40297 0.0
N950 N 0.23056 0.17021 0.38272 0.0
N951 N 0.26875 0.10164 0.40106 0.0
C952 C 0.29932 0.13643 0.38454 0.0
C953 C 0.27869 0.17329 0.37408 0.0
C954 C 0.75867 0.9048 0.67259 0.0
C955 C 0.732 0.86297 0.68334 0.0
C956 C 0.73944 0.93742 0.65639 0.0
C957 C 0.69289 0.92952 0.65013 0.0
H958 H 0.7943 0.9132 0.67797 0.0
H959 H 0.76084 0.96955 0.64937 0.0
S960 S 0.60719 0.82719 0.67463 0.0
N961 N 0.65594 0.81602 0.68667 0.0
N962 N 0.61996 0.87804 0.65714 0.0
C963 C 0.66594 0.88781 0.66008 0.0
C964 C 0.6855 0.85431 0.67632 0.0
C965 C 0.61236 0.21238 0.44621 0.0
C966 C 0.60154 0.22828 0.4101 0.0
C967 C 0.59568 0.16698 0.45429 0.0
C968 C 0.56448 0.13709 0.42907 0.0
H969 H 0.63382 0.23507 0.46865 0.0
H970 H 0.60569 0.15614 0.48198 0.0
S971 S 0.52716 0.15885 0.32826 0.0
N972 N 0.56076 0.20746 0.34548 0.0
N973 N 0.52596 0.12409 0.36422 0.0
C974 C 0.55376 0.15172 0.39231 0.0
C975 C 0.57245 0.19707 0.38248 0.0
C976 C 0.86885 0.73865 0.35513 0.0
C977 C 0.81938 0.72964 0.36016 0.0
C978 C 0.89473 0.71001 0.36863 0.0
C979 C 0.87231 0.67104 0.38719 0.0
H980 H 0.88867 0.76589 0.33749 0.0
H981 H 0.93291 0.71702 0.36272 0.0
S982 S 0.74443 0.63156 0.4087 0.0
N983 N 0.7489 0.67929 0.38679 0.0
N984 N 0.79875 0.62426 0.41097 0.0
C985 C 0.82304 0.66192 0.39386 0.0
C986 C 0.79625 0.69154 0.38057 0.0
C987 C 0.46112 0.84075 0.39903 0.0
C988 C 0.46016 0.83464 0.35162 0.0
C989 C 0.47586 0.8853 0.42438 0.0
C990 C 0.49015 0.92395 0.40254 0.0
H991 H 0.44358 0.81382 0.41826 0.0
H992 H 0.47123 0.89087 0.46214 0.0
S993 S 0.51154 0.91921 0.27494 0.0
N994 N 0.48883 0.86474 0.28024 0.0
N995 N 0.51478 0.95003 0.32881 0.0
C996 C 0.49759 0.91559 0.35344 0.0
C997 C 0.48383 0.86977 0.3274 0.0
C998 C 0.131 0.37854 0.38708 0.0
C999 C 0.17996 0.38737 0.36818 0.0
C1000 C 0.10514 0.4127 0.42444 0.0
C1001 C 0.12739 0.45671 0.44441 0.0
H1002 H 0.11318 0.34388 0.37515 0.0
H1003 H 0.06899 0.40229 0.44111 0.0
S1004 S 0.25164 0.50181 0.40154 0.0
N1005 N 0.24714 0.44745 0.36707 0.0
N1006 N 0.1988 0.51014 0.43805 0.0
C1007 C 0.17465 0.46798 0.42242 0.0
C1008 C 0.20095 0.43362 0.38431 0.0
C1009 C 0.37031 0.15483 0.65871 0.0
C1010 C 0.38002 0.20444 0.66039 0.0
C1011 C 0.39606 0.11972 0.62185 0.0
C1012 C 0.43223 0.13275 0.58492 0.0
H1013 H 0.34133 0.14291 0.68499 0.0
H1014 H 0.38433 0.08216 0.61975 0.0
S1015 S 0.47175 0.25739 0.57275 0.0
N1016 N 0.43021 0.26431 0.62266 0.0
N1017 N 0.47647 0.19889 0.55314 0.0
C1018 C 0.4439 0.18225 0.58794 0.0
C1019 C 0.41828 0.21785 0.62549 0.0
C1020 C 0.91064 0.40727 0.70118 0.0
C1021 C 0.86529 0.38995 0.69262 0.0
C1022 C 0.94388 0.43638 0.67381 0.0
C1023 C 0.93501 0.45095 0.63524 0.0
H1024 H 0.92143 0.39744 0.72902 0.0
H1025 H 0.97787 0.44693 0.68279 0.0
S1026 S 0.82163 0.41704 0.59677 0.0
N1027 N 0.81344 0.39151 0.64175 0.0
N1028 N 0.87525 0.44503 0.59101 0.0
C1029 C 0.88936 0.43487 0.62671 0.0
C1030 C 0.85519 0.40496 0.65479 0.0
C1031 C 0.12597 0.67696 0.69712 0.0
C1032 C 0.17603 0.68487 0.6795 0.0
C1033 C 0.09538 0.6456 0.66946 0.0
C1034 C 0.11224 0.62015 0.62164 0.0
H1035 H 0.11003 0.69452 0.73337 0.0
H1036 H 0.05824 0.64006 0.6865 0.0
S1037 S 0.23962 0.62599 0.55712 0.0
N1038 N 0.23979 0.66254 0.60941 0.0
N1039 N 0.18383 0.60546 0.559 0.0
C1040 C 0.16196 0.6281 0.60365 0.0
C1041 C 0.19303 0.65971 0.63167 0.0
loop_
_geom_bond_atom_site_label_1
_geom_bond_atom_site_label_2
_geom_bond_distance
_geom_bond_site_symmetry_2
_ccdc_geom_bond_type
Zn0 O1 2.055 . S
Zn0 O8 2.046 . S
Zn0 N16 2.036 . S
Zn0 O28 2.053 . S
Zn0 O30 2.066 . S
O1 Zn0 2.055 . S
O1 C4 1.259 . S
C2 O30 1.256 . S
C2 O31 1.244 . S
Zn3 O5 2.046 . S
Zn3 O7 2.055 . S
Zn3 N9 2.036 . S
Zn3 O27 2.066 . S
Zn3 O31 2.053 . S
C4 O1 1.259 . S
C4 O5 1.254 . S
O5 Zn3 2.046 . S
O5 C4 1.254 . S
C6 O27 1.256 . S
C6 O28 1.244 . S
O7 Zn3 2.055 . S
O7 C29 1.259 . S
O8 Zn0 2.046 . S
O8 C29 1.254 . S
N9 Zn3 2.036 . S
N9 C10 1.298 . S
N9 N12 1.398 . S
C10 N9 1.298 . S
C10 N13 1.367 . S
C10 C23 1.481 . S
C11 N12 1.299 . S
C11 N13 1.379 . S
N12 N9 1.398 . S
N12 C11 1.299 . S
N13 C10 1.367 . S
N13 C11 1.379 . S
C14 N16 1.298 . S
C14 N18 1.367 . S
C14 C22 1.481 . S
C15 N17 1.299 . S
C15 N18 1.379 . S
N16 Zn0 2.036 . S
N16 C14 1.298 . S
N16 N17 1.398 . S
N17 C15 1.299 . S
N17 N16 1.398 . S
N18 C14 1.367 . S
N18 C15 1.379 . S
H19 C22 0.980 . S
H20 C22 0.981 . S
H21 C22 0.981 . S
C22 C14 1.481 . S
C22 H19 0.980 . S
C22 H20 0.981 . S
C22 H21 0.981 . S
C23 C10 1.481 . S
C23 H24 0.980 . S
C23 H25 0.981 . S
C23 H26 0.981 . S
H24 C23 0.980 . S
H25 C23 0.981 . S
H26 C23 0.981 . S
O27 Zn3 2.066 . S
O27 C6 1.256 . S
O28 Zn0 2.053 . S
O28 C6 1.244 . S
C29 O7 1.259 . S
C29 O8 1.254 . S
O30 Zn0 2.066 . S
O30 C2 1.256 . S
O31 C2 1.244 . S
O31 Zn3 2.053 . S
Zn32 O33 2.055 . S
Zn32 O40 2.046 . S
Zn32 N48 2.036 . S
Zn32 O60 2.053 . S
Zn32 O62 2.066 . S
O33 Zn32 2.055 . S
O33 C36 1.259 . S
C34 O62 1.256 . S
C34 O63 1.244 . S
Zn35 O37 2.046 . S
Zn35 O39 2.055 . S
Zn35 N41 2.036 . S
Zn35 O59 2.066 . S
Zn35 O63 2.053 . S
C36 O33 1.259 . S
C36 O37 1.254 . S
O37 Zn35 2.046 . S
O37 C36 1.254 . S
C38 O59 1.256 . S
C38 O60 1.244 . S
O39 Zn35 2.055 . S
O39 C61 1.259 . S
O40 Zn32 2.046 . S
O40 C61 1.254 . S
N41 Zn35 2.036 . S
N41 C42 1.298 . S
N41 N44 1.398 . S
C42 N41 1.298 . S
C42 N45 1.367 . S
C42 C55 1.481 . S
C43 N44 1.299 . S
C43 N45 1.379 . S
N44 N41 1.398 . S
N44 C43 1.299 . S
N45 C42 1.367 . S
N45 C43 1.379 . S
C46 N48 1.298 . S
C46 N50 1.367 . S
C46 C54 1.481 . S
C47 N49 1.299 . S
C47 N50 1.379 . S
N48 Zn32 2.036 . S
N48 C46 1.298 . S
N48 N49 1.398 . S
N49 C47 1.299 . S
N49 N48 1.398 . S
N50 C46 1.367 . S
N50 C47 1.379 . S
H51 C54 0.980 . S
H52 C54 0.981 . S
H53 C54 0.981 . S
C54 C46 1.481 . S
C54 H51 0.980 . S
C54 H52 0.981 . S
C54 H53 0.981 . S
C55 C42 1.481 . S
C55 H56 0.980 . S
C55 H57 0.981 . S
C55 H58 0.981 . S
H56 C55 0.980 . S
H57 C55 0.981 . S
H58 C55 0.981 . S
O59 Zn35 2.066 . S
O59 C38 1.256 . S
O60 Zn32 2.053 . S
O60 C38 1.244 . S
C61 O39 1.259 . S
C61 O40 1.254 . S
O62 Zn32 2.066 . S
O62 C34 1.256 . S
O63 C34 1.244 . S
O63 Zn35 2.053 . S
Zn64 O65 2.055 . S
Zn64 O72 2.046 . S
Zn64 N80 2.036 . S
Zn64 O92 2.053 . S
Zn64 O94 2.066 . S
O65 Zn64 2.055 . S
O65 C68 1.259 . S
C66 O94 1.256 . S
C66 O95 1.244 . S
Zn67 O69 2.046 . S
Zn67 O71 2.055 . S
Zn67 N73 2.036 . S
Zn67 O91 2.066 . S
Zn67 O95 2.053 . S
C68 O65 1.259 . S
C68 O69 1.254 . S
O69 Zn67 2.046 . S
O69 C68 1.254 . S
C70 O91 1.256 . S
C70 O92 1.244 . S
O71 Zn67 2.055 . S
O71 C93 1.259 . S
O72 Zn64 2.046 . S
O72 C93 1.254 . S
N73 Zn67 2.036 . S
N73 C74 1.298 . S
N73 N76 1.398 . S
C74 N73 1.298 . S
C74 N77 1.367 . S
C74 C87 1.481 . S
C75 N76 1.299 . S
C75 N77 1.379 . S
N76 N73 1.398 . S
N76 C75 1.299 . S
N77 C74 1.367 . S
N77 C75 1.379 . S
C78 N80 1.298 . S
C78 N82 1.367 . S
C78 C86 1.481 . S
C79 N81 1.299 . S
C79 N82 1.379 . S
N80 Zn64 2.036 . S
N80 C78 1.298 . S
N80 N81 1.398 . S
N81 C79 1.299 . S
N81 N80 1.398 . S
N82 C78 1.367 . S
N82 C79 1.379 . S
H83 C86 0.980 . S
H84 C86 0.981 . S
H85 C86 0.981 . S
C86 C78 1.481 . S
C86 H83 0.980 . S
C86 H84 0.981 . S
C86 H85 0.981 . S
C87 C74 1.481 . S
C87 H88 0.980 . S
C87 H89 0.981 . S
C87 H90 0.981 . S
H88 C87 0.980 . S
H89 C87 0.981 . S
H90 C87 0.981 . S
O91 Zn67 2.066 . S
O91 C70 1.256 . S
O92 Zn64 2.053 . S
O92 C70 1.244 . S
C93 O71 1.259 . S
C93 O72 1.254 . S
O94 Zn64 2.066 . S
O94 C66 1.256 . S
O95 C66 1.244 . S
O95 Zn67 2.053 . S
Zn96 O97 2.055 . S
Zn96 O104 2.046 . S
Zn96 N112 2.036 . S
Zn96 O124 2.053 . S
Zn96 O126 2.066 . S
O97 Zn96 2.055 . S
O97 C100 1.259 . S
C98 O126 1.256 . S
C98 O127 1.244 . S
Zn99 O101 2.046 . S
Zn99 O103 2.055 . S
Zn99 N105 2.036 . S
Zn99 O123 2.066 . S
Zn99 O127 2.053 . S
C100 O97 1.259 . S
C100 O101 1.254 . S
O101 Zn99 2.046 . S
O101 C100 1.254 . S
C102 O123 1.256 . S
C102 O124 1.244 . S
O103 Zn99 2.055 . S
O103 C125 1.259 . S
O104 Zn96 2.046 . S
O104 C125 1.254 . S
N105 Zn99 2.036 . S
N105 C106 1.298 . S
N105 N108 1.398 . S
C106 N105 1.298 . S
C106 N109 1.367 . S
C106 C119 1.481 . S
C107 N108 1.299 . S
C107 N109 1.379 . S
N108 N105 1.398 . S
N108 C107 1.299 . S
N109 C106 1.367 . S
N109 C107 1.379 . S
C110 N112 1.298 . S
C110 N114 1.367 . S
C110 C118 1.481 . S
C111 N113 1.299 . S
C111 N114 1.379 . S
N112 Zn96 2.036 . S
N112 C110 1.298 . S
N112 N113 1.398 . S
N113 C111 1.299 . S
N113 N112 1.398 . S
N114 C110 1.367 . S
N114 C111 1.379 . S
H115 C118 0.980 . S
H116 C118 0.981 . S
H117 C118 0.981 . S
C118 C110 1.481 . S
C118 H115 0.980 . S
C118 H116 0.981 . S
C118 H117 0.981 . S
C119 C106 1.481 . S
C119 H120 0.980 . S
C119 H121 0.981 . S
C119 H122 0.981 . S
H120 C119 0.980 . S
H121 C119 0.981 . S
H122 C119 0.981 . S
O123 Zn99 2.066 . S
O123 C102 1.256 . S
O124 Zn96 2.053 . S
O124 C102 1.244 . S
C125 O103 1.259 . S
C125 O104 1.254 . S
O126 Zn96 2.066 . S
O126 C98 1.256 . S
O127 C98 1.244 . S
O127 Zn99 2.053 . S
Zn128 O129 2.055 . S
Zn128 O136 2.046 . S
Zn128 N144 2.036 . S
Zn128 O156 2.053 . S
Zn128 O158 2.066 . S
O129 Zn128 2.055 . S
O129 C132 1.259 . S
C130 O158 1.256 . S
C130 O159 1.244 . S
Zn131 O133 2.046 . S
Zn131 O135 2.055 . S
Zn131 N137 2.036 . S
Zn131 O155 2.066 . S
Zn131 O159 2.053 . S
C132 O129 1.259 . S
C132 O133 1.254 . S
O133 Zn131 2.046 . S
O133 C132 1.254 . S
C134 O155 1.256 . S
C134 O156 1.244 . S
O135 Zn131 2.055 . S
O135 C157 1.259 . S
O136 Zn128 2.046 . S
O136 C157 1.254 . S
N137 Zn131 2.036 . S
N137 C138 1.298 . S
N137 N140 1.398 . S
C138 N137 1.298 . S
C138 N141 1.367 . S
C138 C151 1.481 . S
C139 N140 1.299 . S
C139 N141 1.379 . S
N140 N137 1.398 . S
N140 C139 1.299 . S
N141 C138 1.367 . S
N141 C139 1.379 . S
C142 N144 1.298 . S
C142 N146 1.367 . S
C142 C150 1.481 . S
C143 N145 1.299 . S
C143 N146 1.379 . S
N144 Zn128 2.036 . S
N144 C142 1.298 . S
N144 N145 1.398 . S
N145 C143 1.299 . S
N145 N144 1.398 . S
N146 C142 1.367 . S
N146 C143 1.379 . S
H147 C150 0.980 . S
H148 C150 0.981 . S
H149 C150 0.981 . S
C150 C142 1.481 . S
C150 H147 0.980 . S
C150 H148 0.981 . S
C150 H149 0.981 . S
C151 C138 1.481 . S
C151 H152 0.980 . S
C151 H153 0.981 . S
C151 H154 0.981 . S
H152 C151 0.980 . S
H153 C151 0.981 . S
H154 C151 0.981 . S
O155 Zn131 2.066 . S
O155 C134 1.256 . S
O156 Zn128 2.053 . S
O156 C134 1.244 . S
C157 O135 1.259 . S
C157 O136 1.254 . S
O158 Zn128 2.066 . S
O158 C130 1.256 . S
O159 C130 1.244 . S
O159 Zn131 2.053 . S
Zn160 O161 2.055 . S
Zn160 O168 2.046 . S
Zn160 N176 2.036 . S
Zn160 O188 2.053 . S
Zn160 O190 2.066 . S
O161 Zn160 2.055 . S
O161 C164 1.259 . S
C162 O190 1.256 . S
C162 O191 1.244 . S
Zn163 O165 2.046 . S
Zn163 O167 2.055 . S
Zn163 N169 2.036 . S
Zn163 O187 2.066 . S
Zn163 O191 2.053 . S
C164 O161 1.259 . S
C164 O165 1.254 . S
O165 Zn163 2.046 . S
O165 C164 1.254 . S
C166 O187 1.256 . S
C166 O188 1.244 . S
O167 Zn163 2.055 . S
O167 C189 1.259 . S
O168 Zn160 2.046 . S
O168 C189 1.254 . S
N169 Zn163 2.036 . S
N169 C170 1.298 . S
N169 N172 1.398 . S
C170 N169 1.298 . S
C170 N173 1.367 . S
C170 C183 1.481 . S
C171 N172 1.299 . S
C171 N173 1.379 . S
N172 N169 1.398 . S
N172 C171 1.299 . S
N173 C170 1.367 . S
N173 C171 1.379 . S
C174 N176 1.298 . S
C174 N178 1.367 . S
C174 C182 1.481 . S
C175 N177 1.299 . S
C175 N178 1.379 . S
N176 Zn160 2.036 . S
N176 C174 1.298 . S
N176 N177 1.398 . S
N177 C175 1.299 . S
N177 N176 1.398 . S
N178 C174 1.367 . S
N178 C175 1.379 . S
H179 C182 0.980 . S
H180 C182 0.981 . S
H181 C182 0.981 . S
C182 C174 1.481 . S
C182 H179 0.980 . S
C182 H180 0.981 . S
C182 H181 0.981 . S
C183 C170 1.481 . S
C183 H184 0.980 . S
C183 H185 0.981 . S
C183 H186 0.981 . S
H184 C183 0.980 . S
H185 C183 0.981 . S
H186 C183 0.981 . S
O187 Zn163 2.066 . S
O187 C166 1.256 . S
O188 Zn160 2.053 . S
O188 C166 1.244 . S
C189 O167 1.259 . S
C189 O168 1.254 . S
O190 Zn160 2.066 . S
O190 C162 1.256 . S
O191 C162 1.244 . S
O191 Zn163 2.053 . S
Zn192 O193 2.055 . S
Zn192 O200 2.046 . S
Zn192 N208 2.036 . S
Zn192 O220 2.053 . S
Zn192 O222 2.066 . S
O193 Zn192 2.055 . S
O193 C196 1.259 . S
C194 O222 1.256 . S
C194 O223 1.244 . S
Zn195 O197 2.046 . S
Zn195 O199 2.055 . S
Zn195 N201 2.036 . S
Zn195 O219 2.066 . S
Zn195 O223 2.053 . S
C196 O193 1.259 . S
C196 O197 1.254 . S
O197 Zn195 2.046 . S
O197 C196 1.254 . S
C198 O219 1.256 . S
C198 O220 1.244 . S
O199 Zn195 2.055 . S
O199 C221 1.259 . S
O200 Zn192 2.046 . S
O200 C221 1.254 . S
N201 Zn195 2.036 . S
N201 C202 1.298 . S
N201 N204 1.398 . S
C202 N201 1.298 . S
C202 N205 1.367 . S
C202 C215 1.481 . S
C203 N204 1.299 . S
C203 N205 1.379 . S
N204 N201 1.398 . S
N204 C203 1.299 . S
N205 C202 1.367 . S
N205 C203 1.379 . S
C206 N208 1.298 . S
C206 N210 1.367 . S
C206 C214 1.481 . S
C207 N209 1.299 . S
C207 N210 1.379 . S
N208 Zn192 2.036 . S
N208 C206 1.298 . S
N208 N209 1.398 . S
N209 C207 1.299 . S
N209 N208 1.398 . S
N210 C206 1.367 . S
N210 C207 1.379 . S
H211 C214 0.980 . S
H212 C214 0.981 . S
H213 C214 0.981 . S
C214 C206 1.481 . S
C214 H211 0.980 . S
C214 H212 0.981 . S
C214 H213 0.981 . S
C215 C202 1.481 . S
C215 H216 0.980 . S
C215 H217 0.981 . S
C215 H218 0.981 . S
H216 C215 0.980 . S
H217 C215 0.981 . S
H218 C215 0.981 . S
O219 Zn195 2.066 . S
O219 C198 1.256 . S
O220 Zn192 2.053 . S
O220 C198 1.244 . S
C221 O199 1.259 . S
C221 O200 1.254 . S
O222 Zn192 2.066 . S
O222 C194 1.256 . S
O223 C194 1.244 . S
O223 Zn195 2.053 . S
Zn224 O225 2.055 . S
Zn224 O232 2.046 . S
Zn224 N240 2.036 . S
Zn224 O252 2.053 . S
Zn224 O254 2.066 . S
O225 Zn224 2.055 . S
O225 C228 1.259 . S
C226 O254 1.256 . S
C226 O255 1.244 . S
Zn227 O229 2.046 . S
Zn227 O231 2.055 . S
Zn227 N233 2.036 . S
Zn227 O251 2.066 . S
Zn227 O255 2.053 . S
C228 O225 1.259 . S
C228 O229 1.254 . S
O229 Zn227 2.046 . S
O229 C228 1.254 . S
C230 O251 1.256 . S
C230 O252 1.244 . S
O231 Zn227 2.055 . S
O231 C253 1.259 . S
O232 Zn224 2.046 . S
O232 C253 1.254 . S
N233 Zn227 2.036 . S
N233 C234 1.298 . S
N233 N236 1.398 . S
C234 N233 1.298 . S
C234 N237 1.367 . S
C234 C247 1.481 . S
C235 N236 1.299 . S
C235 N237 1.379 . S
N236 N233 1.398 . S
N236 C235 1.299 . S
N237 C234 1.367 . S
N237 C235 1.379 . S
C238 N240 1.298 . S
C238 N242 1.367 . S
C238 C246 1.481 . S
C239 N241 1.299 . S
C239 N242 1.379 . S
N240 Zn224 2.036 . S
N240 C238 1.298 . S
N240 N241 1.398 . S
N241 C239 1.299 . S
N241 N240 1.398 . S
N242 C238 1.367 . S
N242 C239 1.379 . S
H243 C246 0.980 . S
H244 C246 0.981 . S
H245 C246 0.981 . S
C246 C238 1.481 . S
C246 H243 0.980 . S
C246 H244 0.981 . S
C246 H245 0.981 . S
C247 C234 1.481 . S
C247 H248 0.980 . S
C247 H249 0.981 . S
C247 H250 0.981 . S
H248 C247 0.980 . S
H249 C247 0.981 . S
H250 C247 0.981 . S
O251 Zn227 2.066 . S
O251 C230 1.256 . S
O252 Zn224 2.053 . S
O252 C230 1.244 . S
C253 O231 1.259 . S
C253 O232 1.254 . S
O254 Zn224 2.066 . S
O254 C226 1.256 . S
O255 C226 1.244 . S
O255 Zn227 2.053 . S
Co256 N257 2.034 . S
Co256 O271 2.262 . S
Co256 O275 1.958 1_455 S
Co256 O279 1.950 1_565 S
Co256 O280 2.057 . S
N257 Co256 2.034 . S
N257 C258 1.366 . S
N257 C260 1.332 . S
C258 N257 1.366 . S
C258 C261 1.377 . S
C258 H290 0.931 . S
N259 C260 1.346 . S
N259 C261 1.337 . S
C260 N257 1.332 . S
C260 N259 1.346 . S
C260 C294 1.361 . S
C261 C258 1.377 . S
C261 N259 1.337 . S
C261 H297 0.930 . S
Co262 N263 2.034 . S
Co262 O276 1.950 1_655 S
Co262 O277 2.262 . S
Co262 O278 1.958 1_545 S
Co262 O282 2.057 . S
N263 Co262 2.034 . S
N263 C266 1.366 . S
N263 C267 1.332 . S
N264 C265 1.337 . S
N264 C267 1.346 . S
C265 N264 1.337 . S
C265 C266 1.377 . S
C265 H298 0.930 . S
C266 N263 1.366 . S
C266 C265 1.377 . S
C266 H270 0.931 . S
C267 N263 1.332 . S
C267 N264 1.346 . S
C267 C284 1.361 . S
Co268 O271 2.101 . S
Co268 O272 2.062 1_565 S
Co268 O273 2.064 1_565 S
Co268 O274 2.045 1_455 S
Co268 O277 2.093 1_465 S
Co268 O281 2.044 1_455 S
C269 O277 1.253 . S
C269 O282 1.263 . S
H270 C266 0.931 . S
O271 Co256 2.262 . S
O271 Co268 2.101 . S
O271 C295 1.253 . S
O272 Co268 2.062 1_545 S
O272 C288 1.221 . S
O273 Co268 2.064 1_545 S
O273 C283 1.221 . S
O274 Co268 2.045 1_655 S
O274 C289 1.237 . S
O275 Co256 1.958 1_655 S
O275 C289 1.278 . S
O276 Co262 1.950 1_455 S
O276 C288 1.277 . S
O277 Co262 2.262 . S
O277 Co268 2.093 1_645 S
O277 C269 1.253 . S
O278 Co262 1.958 1_565 S
O278 C296 1.278 . S
O279 Co256 1.950 1_545 S
O279 C283 1.277 . S
O280 Co256 2.057 . S
O280 C295 1.263 . S
O281 Co268 2.044 1_655 S
O281 C296 1.237 . S
O282 Co262 2.057 . S
O282 C269 1.263 . S
C283 O273 1.221 . S
C283 O279 1.277 . S
C284 C267 1.361 . S
C284 H285 0.960 . S
C284 H286 0.961 . S
C284 H287 0.961 . S
H285 C284 0.960 . S
H286 C284 0.961 . S
H287 C284 0.961 . S
C288 O272 1.221 . S
C288 O276 1.277 . S
C289 O274 1.237 . S
C289 O275 1.278 . S
H290 C258 0.931 . S
H291 C294 0.961 . S
H292 C294 0.961 . S
H293 C294 0.960 . S
C294 C260 1.361 . S
C294 H291 0.961 . S
C294 H292 0.961 . S
C294 H293 0.960 . S
C295 O271 1.253 . S
C295 O280 1.263 . S
C296 O278 1.278 . S
C296 O281 1.237 . S
H297 C261 0.930 . S
H298 C265 0.930 . S
Co299 N300 2.034 . S
Co299 O314 2.262 1_554 S
Co299 O318 1.958 . S
Co299 O322 1.950 1_565 S
Co299 O323 2.057 1_554 S
N300 Co299 2.034 . S
N300 C301 1.366 . S
N300 C303 1.332 . S
C301 N300 1.366 . S
C301 C304 1.377 . S
C301 H333 0.931 . S
N302 C303 1.346 . S
N302 C304 1.337 . S
C303 N300 1.332 . S
C303 N302 1.346 . S
C303 C337 1.361 . S
C304 C301 1.377 . S
C304 N302 1.337 . S
C304 H340 0.930 . S
Co305 N306 2.034 . S
Co305 O319 1.950 . S
Co305 O320 2.262 1_556 S
Co305 O321 1.958 1_545 S
Co305 O325 2.057 1_556 S
N306 Co305 2.034 . S
N306 C309 1.366 . S
N306 C310 1.332 . S
N307 C308 1.337 . S
N307 C310 1.346 . S
C308 N307 1.337 . S
C308 C309 1.377 . S
C308 H341 0.930 . S
C309 N306 1.366 . S
C309 C308 1.377 . S
C309 H313 0.931 . S
C310 N306 1.332 . S
C310 N307 1.346 . S
C310 C327 1.361 . S
Co311 O314 2.117 1_554 S
Co311 O315 2.049 1_564 S
Co311 O316 2.056 1_565 S
Co311 O317 2.057 . S
Co311 O320 2.078 1_565 S
Co311 O324 2.051 1_554 S
C312 O320 1.253 . S
C312 O325 1.263 . S
H313 C309 0.931 . S
O314 Co299 2.262 1_556 S
O314 Co311 2.117 1_556 S
O314 C338 1.253 . S
O315 Co311 2.049 1_546 S
O315 C331 1.221 . S
O316 Co311 2.056 1_545 S
O316 C326 1.221 . S
O317 Co311 2.057 . S
O317 C332 1.237 . S
O318 Co299 1.958 . S
O318 C332 1.278 . S
O319 Co305 1.950 . S
O319 C331 1.277 . S
O320 Co305 2.262 1_554 S
O320 Co311 2.078 1_545 S
O320 C312 1.253 . S
O321 Co305 1.958 1_565 S
O321 C339 1.278 . S
O322 Co299 1.950 1_545 S
O322 C326 1.277 . S
O323 Co299 2.057 1_556 S
O323 C338 1.263 . S
O324 Co311 2.051 1_556 S
O324 C339 1.237 . S
O325 Co305 2.057 1_554 S
O325 C312 1.263 . S
C326 O316 1.221 . S
C326 O322 1.277 . S
C327 C310 1.361 . S
C327 H328 0.960 . S
C327 H329 0.961 . S
C327 H330 0.961 . S
H328 C327 0.960 . S
H329 C327 0.961 . S
H330 C327 0.961 . S
C331 O315 1.221 . S
C331 O319 1.277 . S
C332 O317 1.237 . S
C332 O318 1.278 . S
H333 C301 0.931 . S
H334 C337 0.961 . S
H335 C337 0.961 . S
H336 C337 0.960 . S
C337 C303 1.361 . S
C337 H334 0.961 . S
C337 H335 0.961 . S
C337 H336 0.960 . S
C338 O314 1.253 . S
C338 O323 1.263 . S
C339 O321 1.278 . S
C339 O324 1.237 . S
H340 C304 0.930 . S
H341 C308 0.930 . S
Co342 N343 2.034 . S
Co342 O357 2.262 1_554 S
Co342 O361 1.958 1_455 S
Co342 O365 1.950 . S
Co342 O366 2.057 1_554 S
N343 Co342 2.034 . S
N343 C344 1.366 . S
N343 C346 1.332 . S
C344 N343 1.366 . S
C344 C347 1.377 . S
C344 H376 0.931 . S
N345 C346 1.346 . S
N345 C347 1.337 . S
C346 N343 1.332 . S
C346 N345 1.346 . S
C346 C380 1.361 . S
C347 C344 1.377 . S
C347 N345 1.337 . S
C347 H383 0.930 . S
Co348 N349 2.034 . S
Co348 O362 1.950 1_655 S
Co348 O363 2.262 1_556 S
Co348 O364 1.958 . S
Co348 O368 2.057 1_556 S
N349 Co348 2.034 . S
N349 C352 1.366 . S
N349 C353 1.332 . S
N350 C351 1.337 . S
N350 C353 1.346 . S
C351 N350 1.337 . S
C351 C352 1.377 . S
C351 H384 0.930 . S
C352 N349 1.366 . S
C352 C351 1.377 . S
C352 H356 0.931 . S
C353 N349 1.332 . S
C353 N350 1.346 . S
C353 C370 1.361 . S
Co354 O357 2.089 1_654 S
Co354 O358 2.062 1_654 S
Co354 O359 2.059 1_655 S
Co354 O360 2.045 . S
Co354 O363 2.105 . S
Co354 O367 2.048 1_554 S
C355 O363 1.253 . S
C355 O368 1.263 . S
H356 C352 0.931 . S
O357 Co342 2.262 1_556 S
O357 Co354 2.089 1_456 S
O357 C381 1.253 . S
O358 Co354 2.062 1_456 S
O358 C374 1.221 . S
O359 Co354 2.059 1_455 S
O359 C369 1.221 . S
O360 Co354 2.045 . S
O360 C375 1.237 . S
O361 Co342 1.958 1_655 S
O361 C375 1.278 . S
O362 Co348 1.950 1_455 S
O362 C374 1.277 . S
O363 Co348 2.262 1_554 S
O363 Co354 2.105 . S
O363 C355 1.253 . S
O364 Co348 1.958 . S
O364 C382 1.278 . S
O365 Co342 1.950 . S
O365 C369 1.277 . S
O366 Co342 2.057 1_556 S
O366 C381 1.263 . S
O367 Co354 2.048 1_556 S
O367 C382 1.237 . S
O368 Co348 2.057 1_554 S
O368 C355 1.263 . S
C369 O359 1.221 . S
C369 O365 1.277 . S
C370 C353 1.361 . S
C370 H371 0.960 . S
C370 H372 0.961 . S
C370 H373 0.961 . S
H371 C370 0.960 . S
H372 C370 0.961 . S
H373 C370 0.961 . S
C374 O358 1.221 . S
C374 O362 1.277 . S
C375 O360 1.237 . S
C375 O361 1.278 . S
H376 C344 0.931 . S
H377 C380 0.961 . S
H378 C380 0.961 . S
H379 C380 0.960 . S
C380 C346 1.361 . S
C380 H377 0.961 . S
C380 H378 0.961 . S
C380 H379 0.960 . S
C381 O357 1.253 . S
C381 O366 1.263 . S
C382 O364 1.278 . S
C382 O367 1.237 . S
H383 C347 0.930 . S
H384 C351 0.930 . S
Co385 N386 2.034 . S
Co385 O400 2.262 1_554 S
Co385 O404 1.958 . S
Co385 O408 1.950 . S
Co385 O409 2.057 1_554 S
N386 Co385 2.034 . S
N386 C387 1.366 . S
N386 C389 1.332 . S
C387 N386 1.366 . S
C387 C390 1.377 . S
C387 H419 0.931 . S
N388 C389 1.346 . S
N388 C390 1.337 . S
C389 N386 1.332 . S
C389 N388 1.346 . S
C389 C423 1.361 . S
C390 C387 1.377 . S
C390 N388 1.337 . S
C390 H426 0.930 . S
Co391 N392 2.034 . S
Co391 O405 1.950 . S
Co391 O406 2.262 1_556 S
Co391 O407 1.958 . S
Co391 O411 2.057 1_556 S
N392 Co391 2.034 . S
N392 C395 1.366 . S
N392 C396 1.332 . S
N393 C394 1.337 . S
N393 C396 1.346 . S
C394 N393 1.337 . S
C394 C395 1.377 . S
C394 H427 0.930 . S
C395 N392 1.366 . S
C395 C394 1.377 . S
C395 H399 0.931 . S
C396 N392 1.332 . S
C396 N393 1.346 . S
C396 C413 1.361 . S
Co397 O400 2.097 1_554 S
Co397 O401 2.065 1_554 S
Co397 O402 2.065 . S
Co397 O403 2.042 . S
Co397 O406 2.097 . S
Co397 O410 2.042 1_554 S
C398 O406 1.253 . S
C398 O411 1.263 . S
H399 C395 0.931 . S
O400 Co385 2.262 1_556 S
O400 Co397 2.097 1_556 S
O400 C424 1.253 . S
O401 Co397 2.065 1_556 S
O401 C417 1.221 . S
O402 Co397 2.065 . S
O402 C412 1.221 . S
O403 Co397 2.042 . S
O403 C418 1.237 . S
O404 Co385 1.958 . S
O404 C418 1.278 . S
O405 Co391 1.950 . S
O405 C417 1.277 . S
O406 Co391 2.262 1_554 S
O406 Co397 2.097 . S
O406 C398 1.253 . S
O407 Co391 1.958 . S
O407 C425 1.278 . S
O408 Co385 1.950 . S
O408 C412 1.277 . S
O409 Co385 2.057 1_556 S
O409 C424 1.263 . S
O410 Co397 2.042 1_556 S
O410 C425 1.237 . S
O411 Co391 2.057 1_554 S
O411 C398 1.263 . S
C412 O402 1.221 . S
C412 O408 1.277 . S
C413 C396 1.361 . S
C413 H414 0.960 . S
C413 H415 0.961 . S
C413 H416 0.961 . S
H414 C413 0.960 . S
H415 C413 0.961 . S
H416 C413 0.961 . S
C417 O401 1.221 . S
C417 O405 1.277 . S
C418 O403 1.237 . S
C418 O404 1.278 . S
H419 C387 0.931 . S
H420 C423 0.961 . S
H421 C423 0.961 . S
H422 C423 0.960 . S
C423 C389 1.361 . S
C423 H420 0.961 . S
C423 H421 0.961 . S
C423 H422 0.960 . S
C424 O400 1.253 . S
C424 O409 1.263 . S
C425 O407 1.278 . S
C425 O410 1.237 . S
H426 C390 0.930 . S
H427 C394 0.930 . S
Co428 N429 2.034 . S
Co428 O443 2.262 . S
Co428 O447 1.958 1_455 S
Co428 O451 1.950 . S
Co428 O452 2.057 . S
N429 Co428 2.034 . S
N429 C430 1.366 . S
N429 C432 1.332 . S
C430 N429 1.366 . S
C430 C433 1.377 . S
C430 H462 0.931 . S
N431 C432 1.346 . S
N431 C433 1.337 . S
C432 N429 1.332 . S
C432 N431 1.346 . S
C432 C466 1.361 . S
C433 C430 1.377 . S
C433 N431 1.337 . S
C433 H469 0.930 . S
Co434 N435 2.034 . S
Co434 O448 1.950 1_655 S
Co434 O449 2.262 . S
Co434 O450 1.958 . S
Co434 O454 2.057 . S
N435 Co434 2.034 . S
N435 C438 1.366 . S
N435 C439 1.332 . S
N436 C437 1.337 . S
N436 C439 1.346 . S
C437 N436 1.337 . S
C437 C438 1.377 . S
C437 H470 0.930 . S
C438 N435 1.366 . S
C438 C437 1.377 . S
C438 H442 0.931 . S
C439 N435 1.332 . S
C439 N436 1.346 . S
C439 C456 1.361 . S
Co440 O443 2.097 1_655 S
Co440 O444 2.065 1_655 S
Co440 O445 2.065 1_655 S
Co440 O446 2.042 . S
Co440 O449 2.097 . S
Co440 O453 2.042 . S
C441 O449 1.253 . S
C441 O454 1.263 . S
H442 C438 0.931 . S
O443 Co428 2.262 . S
O443 Co440 2.097 1_455 S
O443 C467 1.253 . S
O444 Co440 2.065 1_455 S
O444 C460 1.221 . S
O445 Co440 2.065 1_455 S
O445 C455 1.221 . S
O446 Co440 2.042 . S
O446 C461 1.237 . S
O447 Co428 1.958 1_655 S
O447 C461 1.278 . S
O448 Co434 1.950 1_455 S
O448 C460 1.277 . S
O449 Co434 2.262 . S
O449 Co440 2.097 . S
O449 C441 1.253 . S
O450 Co434 1.958 . S
O450 C468 1.278 . S
O451 Co428 1.950 . S
O451 C455 1.277 . S
O452 Co428 2.057 . S
O452 C467 1.263 . S
O453 Co440 2.042 . S
O453 C468 1.237 . S
O454 Co434 2.057 . S
O454 C441 1.263 . S
C455 O445 1.221 . S
C455 O451 1.277 . S
C456 C439 1.361 . S
C456 H457 0.960 . S
C456 H458 0.961 . S
C456 H459 0.961 . S
H457 C456 0.960 . S
H458 C456 0.961 . S
H459 C456 0.961 . S
C460 O444 1.221 . S
C460 O448 1.277 . S
C461 O446 1.237 . S
C461 O447 1.278 . S
H462 C430 0.931 . S
H463 C466 0.961 . S
H464 C466 0.961 . S
H465 C466 0.960 . S
C466 C432 1.361 . S
C466 H463 0.961 . S
C466 H464 0.961 . S
C466 H465 0.960 . S
C467 O443 1.253 . S
C467 O452 1.263 . S
C468 O450 1.278 . S
C468 O453 1.237 . S
H469 C433 0.930 . S
H470 C437 0.930 . S
Co471 N472 2.034 . S
Co471 O486 2.262 . S
Co471 O490 1.958 . S
Co471 O494 1.950 1_565 S
Co471 O495 2.057 . S
N472 Co471 2.034 . S
N472 C473 1.366 . S
N472 C475 1.332 . S
C473 N472 1.366 . S
C473 C476 1.377 . S
C473 H505 0.931 . S
N474 C475 1.346 . S
N474 C476 1.337 . S
C475 N472 1.332 . S
C475 N474 1.346 . S
C475 C509 1.361 . S
C476 C473 1.377 . S
C476 N474 1.337 . S
C476 H512 0.930 . S
Co477 N478 2.034 . S
Co477 O491 1.950 . S
Co477 O492 2.262 . S
Co477 O493 1.958 1_545 S
Co477 O497 2.057 . S
N478 Co477 2.034 . S
N478 C481 1.366 . S
N478 C482 1.332 . S
N479 C480 1.337 . S
N479 C482 1.346 . S
C480 N479 1.337 . S
C480 C481 1.377 . S
C480 H513 0.930 . S
C481 N478 1.366 . S
C481 C480 1.377 . S
C481 H485 0.931 . S
C482 N478 1.332 . S
C482 N479 1.346 . S
C482 C499 1.361 . S
Co483 O486 2.113 . S
Co483 O487 2.052 1_565 S
Co483 O488 2.058 1_565 S
Co483 O489 2.054 . S
Co483 O492 2.081 1_565 S
Co483 O496 2.049 . S
C484 O492 1.253 . S
C484 O497 1.263 . S
H485 C481 0.931 . S
O486 Co471 2.262 . S
O486 Co483 2.113 . S
O486 C510 1.253 . S
O487 Co483 2.052 1_545 S
O487 C503 1.221 . S
O488 Co483 2.058 1_545 S
O488 C498 1.221 . S
O489 Co483 2.054 . S
O489 C504 1.237 . S
O490 Co471 1.958 . S
O490 C504 1.278 . S
O491 Co477 1.950 . S
O491 C503 1.277 . S
O492 Co477 2.262 . S
O492 Co483 2.081 1_545 S
O492 C484 1.253 . S
O493 Co477 1.958 1_565 S
O493 C511 1.278 . S
O494 Co471 1.950 1_545 S
O494 C498 1.277 . S
O495 Co471 2.057 . S
O495 C510 1.263 . S
O496 Co483 2.049 . S
O496 C511 1.237 . S
O497 Co477 2.057 . S
O497 C484 1.263 . S
C498 O488 1.221 . S
C498 O494 1.277 . S
C499 C482 1.361 . S
C499 H500 0.960 . S
C499 H501 0.961 . S
C499 H502 0.961 . S
H500 C499 0.960 . S
H501 C499 0.961 . S
H502 C499 0.961 . S
C503 O487 1.221 . S
C503 O491 1.277 . S
C504 O489 1.237 . S
C504 O490 1.278 . S
H505 C473 0.931 . S
H506 C509 0.961 . S
H507 C509 0.961 . S
H508 C509 0.960 . S
C509 C475 1.361 . S
C509 H506 0.961 . S
C509 H507 0.961 . S
C509 H508 0.960 . S
C510 O486 1.253 . S
C510 O495 1.263 . S
C511 O493 1.278 . S
C511 O496 1.237 . S
H512 C476 0.930 . S
H513 C480 0.930 . S
C514 C515 1.369 . S
C514 C516 1.419 . S
C514 H518 0.930 . S
C515 C514 1.369 . S
C515 C524 1.429 . S
C516 C514 1.419 . S
C516 C517 1.363 . S
C516 H519 0.929 . S
C517 C516 1.363 . S
C517 C523 1.428 . S
H518 C514 0.930 . S
H519 C516 0.929 . S
S520 N521 1.613 . S
S520 N522 1.610 . S
N521 S520 1.613 . S
N521 C524 1.350 . S
N522 S520 1.610 . S
N522 C523 1.351 . S
C523 C517 1.428 . S
C523 N522 1.351 . S
C523 C524 1.434 . S
C524 C515 1.429 . S
C524 N521 1.350 . S
C524 C523 1.434 . S
C525 C526 1.369 . S
C525 C527 1.419 . S
C525 H529 0.930 . S
C526 C525 1.369 . S
C526 C535 1.429 . S
C527 C525 1.419 . S
C527 C528 1.363 . S
C527 H530 0.929 . S
C528 C527 1.363 . S
C528 C534 1.428 . S
H529 C525 0.930 . S
H530 C527 0.929 . S
S531 N532 1.613 . S
S531 N533 1.610 . S
N532 S531 1.613 . S
N532 C535 1.350 . S
N533 S531 1.610 . S
N533 C534 1.351 . S
C534 C528 1.428 . S
C534 N533 1.351 . S
C534 C535 1.434 . S
C535 C526 1.429 . S
C535 N532 1.350 . S
C535 C534 1.434 . S
C536 C537 1.369 . S
C536 C538 1.419 . S
C536 H540 0.930 . S
C537 C536 1.369 . S
C537 C546 1.429 . S
C538 C536 1.419 . S
C538 C539 1.363 . S
C538 H541 0.929 . S
C539 C538 1.363 . S
C539 C545 1.428 . S
H540 C536 0.930 . S
H541 C538 0.929 . S
S542 N543 1.613 . S
S542 N544 1.610 . S
N543 S542 1.613 . S
N543 C546 1.350 . S
N544 S542 1.610 . S
N544 C545 1.351 . S
C545 C539 1.428 . S
C545 N544 1.351 . S
C545 C546 1.434 . S
C546 C537 1.429 . S
C546 N543 1.350 . S
C546 C545 1.434 . S
C547 C548 1.369 . S
C547 C549 1.419 . S
C547 H551 0.930 . S
C548 C547 1.369 . S
C548 C557 1.429 . S
C549 C547 1.419 . S
C549 C550 1.363 . S
C549 H552 0.929 . S
C550 C549 1.363 . S
C550 C556 1.428 . S
H551 C547 0.930 . S
H552 C549 0.929 . S
S553 N554 1.613 . S
S553 N555 1.610 . S
N554 S553 1.613 . S
N554 C557 1.350 . S
N555 S553 1.610 . S
N555 C556 1.351 . S
C556 C550 1.428 . S
C556 N555 1.351 . S
C556 C557 1.434 . S
C557 C548 1.429 . S
C557 N554 1.350 . S
C557 C556 1.434 . S
C558 C559 1.369 . S
C558 C560 1.419 . S
C558 H562 0.930 . S
C559 C558 1.369 . S
C559 C568 1.429 . S
C560 C558 1.419 . S
C560 C561 1.363 . S
C560 H563 0.929 . S
C561 C560 1.363 . S
C561 C567 1.428 . S
H562 C558 0.930 . S
H563 C560 0.929 . S
S564 N565 1.613 . S
S564 N566 1.610 . S
N565 S564 1.613 . S
N565 C568 1.350 . S
N566 S564 1.610 . S
N566 C567 1.351 . S
C567 C561 1.428 . S
C567 N566 1.351 . S
C567 C568 1.434 . S
C568 C559 1.429 . S
C568 N565 1.350 . S
C568 C567 1.434 . S
C569 C570 1.369 . S
C569 C571 1.419 . S
C569 H573 0.930 . S
C570 C569 1.369 . S
C570 C579 1.429 . S
C571 C569 1.419 . S
C571 C572 1.363 . S
C571 H574 0.929 . S
C572 C571 1.363 . S
C572 C578 1.428 . S
H573 C569 0.930 . S
H574 C571 0.929 . S
S575 N576 1.613 . S
S575 N577 1.610 . S
N576 S575 1.613 . S
N576 C579 1.350 . S
N577 S575 1.610 . S
N577 C578 1.351 . S
C578 C572 1.428 . S
C578 N577 1.351 . S
C578 C579 1.434 . S
C579 C570 1.429 . S
C579 N576 1.350 . S
C579 C578 1.434 . S
C580 C581 1.369 . S
C580 C582 1.419 . S
C580 H584 0.930 . S
C581 C580 1.369 . S
C581 C590 1.429 . S
C582 C580 1.419 . S
C582 C583 1.363 . S
C582 H585 0.929 . S
C583 C582 1.363 . S
C583 C589 1.428 . S
H584 C580 0.930 . S
H585 C582 0.929 . S
S586 N587 1.613 . S
S586 N588 1.610 . S
N587 S586 1.613 . S
N587 C590 1.350 . S
N588 S586 1.610 . S
N588 C589 1.351 . S
C589 C583 1.428 . S
C589 N588 1.351 . S
C589 C590 1.434 . S
C590 C581 1.429 . S
C590 N587 1.350 . S
C590 C589 1.434 . S
C591 C592 1.369 . S
C591 C593 1.419 . S
C591 H595 0.930 . S
C592 C591 1.369 . S
C592 C601 1.429 . S
C593 C591 1.419 . S
C593 C594 1.363 . S
C593 H596 0.929 . S
C594 C593 1.363 . S
C594 C600 1.428 . S
H595 C591 0.930 . S
H596 C593 0.929 . S
S597 N598 1.613 . S
S597 N599 1.610 . S
N598 S597 1.613 . S
N598 C601 1.350 . S
N599 S597 1.610 . S
N599 C600 1.351 . S
C600 C594 1.428 . S
C600 N599 1.351 . S
C600 C601 1.434 . S
C601 C592 1.429 . S
C601 N598 1.350 . S
C601 C600 1.434 . S
C602 C603 1.369 . S
C602 C604 1.419 . S
C602 H606 0.930 . S
C603 C602 1.369 . S
C603 C612 1.429 . S
C604 C602 1.419 . S
C604 C605 1.363 . S
C604 H607 0.929 . S
C605 C604 1.363 . S
C605 C611 1.428 . S
H606 C602 0.930 . S
H607 C604 0.929 . S
S608 N609 1.613 . S
S608 N610 1.610 . S
N609 S608 1.613 . S
N609 C612 1.350 . S
N610 S608 1.610 . S
N610 C611 1.351 . S
C611 C605 1.428 . S
C611 N610 1.351 . S
C611 C612 1.434 . S
C612 C603 1.429 . S
C612 N609 1.350 . S
C612 C611 1.434 . S
C613 C614 1.369 . S
C613 C615 1.419 . S
C613 H617 0.930 . S
C614 C613 1.369 . S
C614 C623 1.429 . S
C615 C613 1.419 . S
C615 C616 1.363 . S
C615 H618 0.929 . S
C616 C615 1.363 . S
C616 C622 1.428 . S
H617 C613 0.930 . S
H618 C615 0.929 . S
S619 N620 1.613 1_556 S
S619 N621 1.610 1_556 S
N620 S619 1.613 1_554 S
N620 C623 1.350 . S
N621 S619 1.610 1_554 S
N621 C622 1.351 . S
C622 C616 1.428 . S
C622 N621 1.351 . S
C622 C623 1.434 . S
C623 C614 1.429 . S
C623 N620 1.350 . S
C623 C622 1.434 . S
C624 C625 1.369 . S
C624 C626 1.419 . S
C624 H628 0.930 . S
C625 C624 1.369 . S
C625 C634 1.429 . S
C626 C624 1.419 . S
C626 C627 1.363 . S
C626 H629 0.929 . S
C627 C626 1.363 . S
C627 C633 1.428 . S
H628 C624 0.930 . S
H629 C626 0.929 . S
S630 N631 1.613 . S
S630 N632 1.610 . S
N631 S630 1.613 . S
N631 C634 1.350 . S
N632 S630 1.610 . S
N632 C633 1.351 . S
C633 C627 1.428 . S
C633 N632 1.351 . S
C633 C634 1.434 . S
C634 C625 1.429 . S
C634 N631 1.350 . S
C634 C633 1.434 . S
C635 C636 1.369 . S
C635 C637 1.419 . S
C635 H639 0.930 . S
C636 C635 1.369 . S
C636 C645 1.429 . S
C637 C635 1.419 . S
C637 C638 1.363 . S
C637 H640 0.929 . S
C638 C637 1.363 . S
C638 C644 1.428 . S
H639 C635 0.930 . S
H640 C637 0.929 . S
S641 N642 1.613 . S
S641 N643 1.610 . S
N642 S641 1.613 . S
N642 C645 1.350 . S
N643 S641 1.610 . S
N643 C644 1.351 . S
C644 C638 1.428 . S
C644 N643 1.351 . S
C644 C645 1.434 . S
C645 C636 1.429 . S
C645 N642 1.350 . S
C645 C644 1.434 . S
C646 C647 1.369 . S
C646 C648 1.419 . S
C646 H650 0.930 . S
C647 C646 1.369 . S
C647 C656 1.429 . S
C648 C646 1.419 . S
C648 C649 1.363 . S
C648 H651 0.929 . S
C649 C648 1.363 . S
C649 C655 1.428 . S
H650 C646 0.930 . S
H651 C648 0.929 . S
S652 N653 1.613 . S
S652 N654 1.610 . S
N653 S652 1.613 . S
N653 C656 1.350 . S
N654 S652 1.610 . S
N654 C655 1.351 . S
C655 C649 1.428 . S
C655 N654 1.351 . S
C655 C656 1.434 . S
C656 C647 1.429 . S
C656 N653 1.350 . S
C656 C655 1.434 . S
C657 C658 1.369 . S
C657 C659 1.419 . S
C657 H661 0.930 . S
C658 C657 1.369 . S
C658 C667 1.429 . S
C659 C657 1.419 . S
C659 C660 1.363 . S
C659 H662 0.929 . S
C660 C659 1.363 . S
C660 C666 1.428 . S
H661 C657 0.930 . S
H662 C659 0.929 . S
S663 N664 1.613 . S
S663 N665 1.610 . S
N664 S663 1.613 . S
N664 C667 1.350 . S
N665 S663 1.610 . S
N665 C666 1.351 . S
C666 C660 1.428 . S
C666 N665 1.351 . S
C666 C667 1.434 . S
C667 C658 1.429 . S
C667 N664 1.350 . S
C667 C666 1.434 . S
C668 C669 1.369 . S
C668 C670 1.419 . S
C668 H672 0.930 . S
C669 C668 1.369 . S
C669 C678 1.429 . S
C670 C668 1.419 . S
C670 C671 1.363 . S
C670 H673 0.929 . S
C671 C670 1.363 . S
C671 C677 1.428 . S
H672 C668 0.930 . S
H673 C670 0.929 . S
S674 N675 1.613 . S
S674 N676 1.610 . S
N675 S674 1.613 . S
N675 C678 1.350 . S
N676 S674 1.610 . S
N676 C677 1.351 . S
C677 C671 1.428 . S
C677 N676 1.351 . S
C677 C678 1.434 . S
C678 C669 1.429 . S
C678 N675 1.350 . S
C678 C677 1.434 . S
C679 C680 1.369 . S
C679 C681 1.419 . S
C679 H683 0.930 . S
C680 C679 1.369 . S
C680 C689 1.429 . S
C681 C679 1.419 . S
C681 C682 1.363 . S
C681 H684 0.929 . S
C682 C681 1.363 . S
C682 C688 1.428 . S
H683 C679 0.930 . S
H684 C681 0.929 . S
S685 N686 1.613 . S
S685 N687 1.610 . S
N686 S685 1.613 . S
N686 C689 1.350 . S
N687 S685 1.610 . S
N687 C688 1.351 . S
C688 C682 1.428 . S
C688 N687 1.351 . S
C688 C689 1.434 . S
C689 C680 1.429 . S
C689 N686 1.350 . S
C689 C688 1.434 . S
C690 C691 1.369 . S
C690 C692 1.419 . S
C690 H694 0.930 . S
C691 C690 1.369 . S
C691 C700 1.429 . S
C692 C690 1.419 . S
C692 C693 1.363 . S
C692 H695 0.929 . S
C693 C692 1.363 . S
C693 C699 1.428 . S
H694 C690 0.930 . S
H695 C692 0.929 . S
S696 N697 1.613 . S
S696 N698 1.610 . S
N697 S696 1.613 . S
N697 C700 1.350 . S
N698 S696 1.610 . S
N698 C699 1.351 . S
C699 C693 1.428 . S
C699 N698 1.351 . S
C699 C700 1.434 . S
C700 C691 1.429 . S
C700 N697 1.350 . S
C700 C699 1.434 . S
C701 C702 1.369 . S
C701 C703 1.419 . S
C701 H705 0.930 . S
C702 C701 1.369 . S
C702 C711 1.429 . S
C703 C701 1.419 . S
C703 C704 1.363 . S
C703 H706 0.929 . S
C704 C703 1.363 . S
C704 C710 1.428 . S
H705 C701 0.930 . S
H706 C703 0.929 . S
S707 N708 1.613 . S
S707 N709 1.610 . S
N708 S707 1.613 . S
N708 C711 1.350 . S
N709 S707 1.610 . S
N709 C710 1.351 . S
C710 C704 1.428 . S
C710 N709 1.351 . S
C710 C711 1.434 . S
C711 C702 1.429 . S
C711 N708 1.350 . S
C711 C710 1.434 . S
C712 C713 1.369 . S
C712 C714 1.419 . S
C712 H716 0.930 . S
C713 C712 1.369 . S
C713 C722 1.429 . S
C714 C712 1.419 . S
C714 C715 1.363 . S
C714 H717 0.929 . S
C715 C714 1.363 . S
C715 C721 1.428 . S
H716 C712 0.930 . S
H717 C714 0.929 . S
S718 N719 1.613 . S
S718 N720 1.610 . S
N719 S718 1.613 . S
N719 C722 1.350 . S
N720 S718 1.610 . S
N720 C721 1.351 . S
C721 C715 1.428 . S
C721 N720 1.351 . S
C721 C722 1.434 . S
C722 C713 1.429 . S
C722 N719 1.350 . S
C722 C721 1.434 . S
C723 C724 1.369 . S
C723 C725 1.419 . S
C723 H727 0.930 . S
C724 C723 1.369 . S
C724 C733 1.429 . S
C725 C723 1.419 . S
C725 C726 1.363 . S
C725 H728 0.929 . S
C726 C725 1.363 . S
C726 C732 1.428 . S
H727 C723 0.930 . S
H728 C725 0.929 . S
S729 N730 1.613 . S
S729 N731 1.610 . S
N730 S729 1.613 . S
N730 C733 1.350 . S
N731 S729 1.610 . S
N731 C732 1.351 . S
C732 C726 1.428 . S
C732 N731 1.351 . S
C732 C733 1.434 . S
C733 C724 1.429 . S
C733 N730 1.350 . S
C733 C732 1.434 . S
C734 C735 1.369 . S
C734 C736 1.419 . S
C734 H738 0.930 . S
C735 C734 1.369 . S
C735 C744 1.429 . S
C736 C734 1.419 . S
C736 C737 1.363 . S
C736 H739 0.929 . S
C737 C736 1.363 . S
C737 C743 1.428 . S
H738 C734 0.930 . S
H739 C736 0.929 . S
S740 N741 1.613 . S
S740 N742 1.610 . S
N741 S740 1.613 . S
N741 C744 1.350 . S
N742 S740 1.610 . S
N742 C743 1.351 . S
C743 C737 1.428 . S
C743 N742 1.351 . S
C743 C744 1.434 . S
C744 C735 1.429 . S
C744 N741 1.350 . S
C744 C743 1.434 . S
C745 C746 1.369 . S
C745 C747 1.419 . S
C745 H749 0.930 . S
C746 C745 1.369 . S
C746 C755 1.429 . S
C747 C745 1.419 . S
C747 C748 1.363 . S
C747 H750 0.929 . S
C748 C747 1.363 . S
C748 C754 1.428 . S
H749 C745 0.930 . S
H750 C747 0.929 . S
S751 N752 1.613 . S
S751 N753 1.610 . S
N752 S751 1.613 . S
N752 C755 1.350 . S
N753 S751 1.610 . S
N753 C754 1.351 . S
C754 C748 1.428 . S
C754 N753 1.351 . S
C754 C755 1.434 . S
C755 C746 1.429 . S
C755 N752 1.350 . S
C755 C754 1.434 . S
C756 C757 1.369 . S
C756 C758 1.419 . S
C756 H760 0.930 . S
C757 C756 1.369 . S
C757 C766 1.429 . S
C758 C756 1.419 . S
C758 C759 1.363 . S
C758 H761 0.929 . S
C759 C758 1.363 . S
C759 C765 1.428 . S
H760 C756 0.930 . S
H761 C758 0.929 . S
S762 N763 1.613 . S
S762 N764 1.610 . S
N763 S762 1.613 . S
N763 C766 1.350 . S
N764 S762 1.610 . S
N764 C765 1.351 . S
C765 C759 1.428 . S
C765 N764 1.351 . S
C765 C766 1.434 . S
C766 C757 1.429 . S
C766 N763 1.350 . S
C766 C765 1.434 . S
C767 C768 1.369 . S
C767 C769 1.419 . S
C767 H771 0.930 . S
C768 C767 1.369 . S
C768 C777 1.429 . S
C769 C767 1.419 . S
C769 C770 1.363 . S
C769 H772 0.929 . S
C770 C769 1.363 . S
C770 C776 1.428 . S
H771 C767 0.930 . S
H772 C769 0.929 . S
S773 N774 1.613 . S
S773 N775 1.610 . S
N774 S773 1.613 . S
N774 C777 1.350 . S
N775 S773 1.610 . S
N775 C776 1.351 . S
C776 C770 1.428 . S
C776 N775 1.351 . S
C776 C777 1.434 . S
C777 C768 1.429 . S
C777 N774 1.350 . S
C777 C776 1.434 . S
C778 C779 1.369 . S
C778 C780 1.419 . S
C778 H782 0.930 . S
C779 C778 1.369 . S
C779 C788 1.429 . S
C780 C778 1.419 . S
C780 C781 1.363 . S
C780 H783 0.929 . S
C781 C780 1.363 . S
C781 C787 1.428 . S
H782 C778 0.930 . S
H783 C780 0.929 . S
S784 N785 1.613 . S
S784 N786 1.610 . S
N785 S784 1.613 . S
N785 C788 1.350 . S
N786 S784 1.610 . S
N786 C787 1.351 . S
C787 C781 1.428 . S
C787 N786 1.351 . S
C787 C788 1.434 . S
C788 C779 1.429 . S
C788 N785 1.350 . S
C788 C787 1.434 . S
C789 C790 1.369 . S
C789 C791 1.419 . S
C789 H793 0.930 . S
C790 C789 1.369 . S
C790 C799 1.429 . S
C791 C789 1.419 . S
C791 C792 1.363 . S
C791 H794 0.929 . S
C792 C791 1.363 . S
C792 C798 1.428 . S
H793 C789 0.930 . S
H794 C791 0.929 . S
S795 N796 1.613 . S
S795 N797 1.610 . S
N796 S795 1.613 . S
N796 C799 1.350 . S
N797 S795 1.610 . S
N797 C798 1.351 . S
C798 C792 1.428 . S
C798 N797 1.351 . S
C798 C799 1.434 . S
C799 C790 1.429 . S
C799 N796 1.350 . S
C799 C798 1.434 . S
C800 C801 1.369 . S
C800 C802 1.419 . S
C800 H804 0.930 . S
C801 C800 1.369 . S
C801 C810 1.429 . S
C802 C800 1.419 . S
C802 C803 1.363 . S
C802 H805 0.929 . S
C803 C802 1.363 . S
C803 C809 1.428 . S
H804 C800 0.930 . S
H805 C802 0.929 . S
S806 N807 1.613 . S
S806 N808 1.610 . S
N807 S806 1.613 . S
N807 C810 1.350 . S
N808 S806 1.610 . S
N808 C809 1.351 . S
C809 C803 1.428 . S
C809 N808 1.351 . S
C809 C810 1.434 . S
C810 C801 1.429 . S
C810 N807 1.350 . S
C810 C809 1.434 . S
C811 C812 1.369 . S
C811 C813 1.419 . S
C811 H815 0.930 . S
C812 C811 1.369 . S
C812 C821 1.429 . S
C813 C811 1.419 . S
C813 C814 1.363 . S
C813 H816 0.929 . S
C814 C813 1.363 . S
C814 C820 1.428 . S
H815 C811 0.930 . S
H816 C813 0.929 . S
S817 N818 1.613 . S
S817 N819 1.610 . S
N818 S817 1.613 . S
N818 C821 1.350 . S
N819 S817 1.610 . S
N819 C820 1.351 . S
C820 C814 1.428 . S
C820 N819 1.351 . S
C820 C821 1.434 . S
C821 C812 1.429 . S
C821 N818 1.350 . S
C821 C820 1.434 . S
C822 C823 1.369 . S
C822 C824 1.419 . S
C822 H826 0.930 . S
C823 C822 1.369 . S
C823 C832 1.429 . S
C824 C822 1.419 . S
C824 C825 1.363 . S
C824 H827 0.929 . S
C825 C824 1.363 . S
C825 C831 1.428 . S
H826 C822 0.930 . S
H827 C824 0.929 . S
S828 N829 1.613 . S
S828 N830 1.610 . S
N829 S828 1.613 . S
N829 C832 1.350 . S
N830 S828 1.610 . S
N830 C831 1.351 . S
C831 C825 1.428 . S
C831 N830 1.351 . S
C831 C832 1.434 . S
C832 C823 1.429 . S
C832 N829 1.350 . S
C832 C831 1.434 . S
C833 C834 1.369 . S
C833 C835 1.419 . S
C833 H837 0.930 . S
C834 C833 1.369 . S
C834 C843 1.429 . S
C835 C833 1.419 . S
C835 C836 1.363 . S
C835 H838 0.929 . S
C836 C835 1.363 . S
C836 C842 1.428 . S
H837 C833 0.930 . S
H838 C835 0.929 . S
S839 N840 1.613 . S
S839 N841 1.610 . S
N840 S839 1.613 . S
N840 C843 1.350 . S
N841 S839 1.610 . S
N841 C842 1.351 . S
C842 C836 1.428 . S
C842 N841 1.351 . S
C842 C843 1.434 . S
C843 C834 1.429 . S
C843 N840 1.350 . S
C843 C842 1.434 . S
C844 C845 1.369 . S
C844 C846 1.419 . S
C844 H848 0.930 . S
C845 C844 1.369 . S
C845 C854 1.429 . S
C846 C844 1.419 . S
C846 C847 1.363 . S
C846 H849 0.929 . S
C847 C846 1.363 . S
C847 C853 1.428 . S
H848 C844 0.930 . S
H849 C846 0.929 . S
S850 N851 1.613 . S
S850 N852 1.610 . S
N851 S850 1.613 . S
N851 C854 1.350 . S
N852 S850 1.610 . S
N852 C853 1.351 . S
C853 C847 1.428 . S
C853 N852 1.351 . S
C853 C854 1.434 . S
C854 C845 1.429 . S
C854 N851 1.350 . S
C854 C853 1.434 . S
C855 C856 1.369 . S
C855 C857 1.419 . S
C855 H859 0.930 . S
C856 C855 1.369 . S
C856 C865 1.429 . S
C857 C855 1.419 . S
C857 C858 1.363 . S
C857 H860 0.929 . S
C858 C857 1.363 . S
C858 C864 1.428 . S
H859 C855 0.930 . S
H860 C857 0.929 . S
S861 N862 1.613 . S
S861 N863 1.610 . S
N862 S861 1.613 . S
N862 C865 1.350 . S
N863 S861 1.610 . S
N863 C864 1.351 . S
C864 C858 1.428 . S
C864 N863 1.351 . S
C864 C865 1.434 . S
C865 C856 1.429 . S
C865 N862 1.350 . S
C865 C864 1.434 . S
C866 C867 1.369 . S
C866 C868 1.419 . S
C866 H870 0.930 . S
C867 C866 1.369 . S
C867 C876 1.429 . S
C868 C866 1.419 . S
C868 C869 1.363 . S
C868 H871 0.929 . S
C869 C868 1.363 . S
C869 C875 1.428 . S
H870 C866 0.930 . S
H871 C868 0.929 . S
S872 N873 1.613 . S
S872 N874 1.610 . S
N873 S872 1.613 . S
N873 C876 1.350 . S
N874 S872 1.610 . S
N874 C875 1.351 . S
C875 C869 1.428 . S
C875 N874 1.351 . S
C875 C876 1.434 . S
C876 C867 1.429 . S
C876 N873 1.350 . S
C876 C875 1.434 . S
C877 C878 1.369 . S
C877 C879 1.419 . S
C877 H881 0.930 . S
C878 C877 1.369 . S
C878 C887 1.429 . S
C879 C877 1.419 . S
C879 C880 1.363 . S
C879 H882 0.929 . S
C880 C879 1.363 . S
C880 C886 1.428 . S
H881 C877 0.930 . S
H882 C879 0.929 . S
S883 N884 1.613 . S
S883 N885 1.610 . S
N884 S883 1.613 . S
N884 C887 1.350 . S
N885 S883 1.610 . S
N885 C886 1.351 . S
C886 C880 1.428 . S
C886 N885 1.351 . S
C886 C887 1.434 . S
C887 C878 1.429 . S
C887 N884 1.350 . S
C887 C886 1.434 . S
C888 C889 1.369 . S
C888 C890 1.419 . S
C888 H892 0.930 . S
C889 C888 1.369 . S
C889 C898 1.429 . S
C890 C888 1.419 . S
C890 C891 1.363 . S
C890 H893 0.929 . S
C891 C890 1.363 . S
C891 C897 1.428 . S
H892 C888 0.930 . S
H893 C890 0.929 . S
S894 N895 1.613 . S
S894 N896 1.610 . S
N895 S894 1.613 . S
N895 C898 1.350 . S
N896 S894 1.610 . S
N896 C897 1.351 . S
C897 C891 1.428 . S
C897 N896 1.351 . S
C897 C898 1.434 . S
C898 C889 1.429 . S
C898 N895 1.350 . S
C898 C897 1.434 . S
C899 C900 1.369 . S
C899 C901 1.419 . S
C899 H903 0.930 . S
C900 C899 1.369 . S
C900 C909 1.429 . S
C901 C899 1.419 . S
C901 C902 1.363 . S
C901 H904 0.929 . S
C902 C901 1.363 . S
C902 C908 1.428 . S
H903 C899 0.930 . S
H904 C901 0.929 . S
S905 N906 1.613 . S
S905 N907 1.610 . S
N906 S905 1.613 . S
N906 C909 1.350 . S
N907 S905 1.610 . S
N907 C908 1.351 . S
C908 C902 1.428 . S
C908 N907 1.351 . S
C908 C909 1.434 . S
C909 C900 1.429 . S
C909 N906 1.350 . S
C909 C908 1.434 . S
C910 C911 1.369 . S
C910 C912 1.419 . S
C910 H914 0.930 . S
C911 C910 1.369 . S
C911 C920 1.429 . S
C912 C910 1.419 . S
C912 C913 1.363 . S
C912 H915 0.929 . S
C913 C912 1.363 . S
C913 C919 1.428 . S
H914 C910 0.930 . S
H915 C912 0.929 . S
S916 N917 1.613 . S
S916 N918 1.610 . S
N917 S916 1.613 . S
N917 C920 1.350 . S
N918 S916 1.610 . S
N918 C919 1.351 . S
C919 C913 1.428 . S
C919 N918 1.351 . S
C919 C920 1.434 . S
C920 C911 1.429 . S
C920 N917 1.350 . S
C920 C919 1.434 . S
C921 C922 1.369 . S
C921 C923 1.419 . S
C921 H925 0.930 . S
C922 C921 1.369 . S
C922 C931 1.429 . S
C923 C921 1.419 . S
C923 C924 1.363 . S
C923 H926 0.929 . S
C924 C923 1.363 . S
C924 C930 1.428 . S
H925 C921 0.930 . S
H926 C923 0.929 . S
S927 N928 1.613 . S
S927 N929 1.610 . S
N928 S927 1.613 . S
N928 C931 1.350 . S
N929 S927 1.610 . S
N929 C930 1.351 . S
C930 C924 1.428 . S
C930 N929 1.351 . S
C930 C931 1.434 . S
C931 C922 1.429 . S
C931 N928 1.350 . S
C931 C930 1.434 . S
C932 C933 1.369 . S
C932 C934 1.419 . S
C932 H936 0.930 . S
C933 C932 1.369 . S
C933 C942 1.429 . S
C934 C932 1.419 . S
C934 C935 1.363 . S
C934 H937 0.929 . S
C935 C934 1.363 . S
C935 C941 1.428 . S
H936 C932 0.930 . S
H937 C934 0.929 . S
S938 N939 1.613 . S
S938 N940 1.610 . S
N939 S938 1.613 . S
N939 C942 1.350 . S
N940 S938 1.610 . S
N940 C941 1.351 . S
C941 C935 1.428 . S
C941 N940 1.351 . S
C941 C942 1.434 . S
C942 C933 1.429 . S
C942 N939 1.350 . S
C942 C941 1.434 . S
C943 C944 1.369 . S
C943 C945 1.419 . S
C943 H947 0.930 . S
C944 C943 1.369 . S
C944 C953 1.429 . S
C945 C943 1.419 . S
C945 C946 1.363 . S
C945 H948 0.929 . S
C946 C945 1.363 . S
C946 C952 1.428 . S
H947 C943 0.930 . S
H948 C945 0.929 . S
S949 N950 1.613 . S
S949 N951 1.610 . S
N950 S949 1.613 . S
N950 C953 1.350 . S
N951 S949 1.610 . S
N951 C952 1.351 . S
C952 C946 1.428 . S
C952 N951 1.351 . S
C952 C953 1.434 . S
C953 C944 1.429 . S
C953 N950 1.350 . S
C953 C952 1.434 . S
C954 C955 1.369 . S
C954 C956 1.419 . S
C954 H958 0.930 . S
C955 C954 1.369 . S
C955 C964 1.429 . S
C956 C954 1.419 . S
C956 C957 1.363 . S
C956 H959 0.929 . S
C957 C956 1.363 . S
C957 C963 1.428 . S
H958 C954 0.930 . S
H959 C956 0.929 . S
S960 N961 1.613 . S
S960 N962 1.610 . S
N961 S960 1.613 . S
N961 C964 1.350 . S
N962 S960 1.610 . S
N962 C963 1.351 . S
C963 C957 1.428 . S
C963 N962 1.351 . S
C963 C964 1.434 . S
C964 C955 1.429 . S
C964 N961 1.350 . S
C964 C963 1.434 . S
C965 C966 1.369 . S
C965 C967 1.419 . S
C965 H969 0.930 . S
C966 C965 1.369 . S
C966 C975 1.429 . S
C967 C965 1.419 . S
C967 C968 1.363 . S
C967 H970 0.929 . S
C968 C967 1.363 . S
C968 C974 1.428 . S
H969 C965 0.930 . S
H970 C967 0.929 . S
S971 N972 1.613 . S
S971 N973 1.610 . S
N972 S971 1.613 . S
N972 C975 1.350 . S
N973 S971 1.610 . S
N973 C974 1.351 . S
C974 C968 1.428 . S
C974 N973 1.351 . S
C974 C975 1.434 . S
C975 C966 1.429 . S
C975 N972 1.350 . S
C975 C974 1.434 . S
C976 C977 1.369 . S
C976 C978 1.419 . S
C976 H980 0.930 . S
C977 C976 1.369 . S
C977 C986 1.429 . S
C978 C976 1.419 . S
C978 C979 1.363 . S
C978 H981 0.929 . S
C979 C978 1.363 . S
C979 C985 1.428 . S
H980 C976 0.930 . S
H981 C978 0.929 . S
S982 N983 1.613 . S
S982 N984 1.610 . S
N983 S982 1.613 . S
N983 C986 1.350 . S
N984 S982 1.610 . S
N984 C985 1.351 . S
C985 C979 1.428 . S
C985 N984 1.351 . S
C985 C986 1.434 . S
C986 C977 1.429 . S
C986 N983 1.350 . S
C986 C985 1.434 . S
C987 C988 1.369 . S
C987 C989 1.419 . S
C987 H991 0.930 . S
C988 C987 1.369 . S
C988 C997 1.429 . S
C989 C987 1.419 . S
C989 C990 1.363 . S
C989 H992 0.929 . S
C990 C989 1.363 . S
C990 C996 1.428 . S
H991 C987 0.930 . S
H992 C989 0.929 . S
S993 N994 1.613 . S
S993 N995 1.610 . S
N994 S993 1.613 . S
N994 C997 1.350 . S
N995 S993 1.610 . S
N995 C996 1.351 . S
C996 C990 1.428 . S
C996 N995 1.351 . S
C996 C997 1.434 . S
C997 C988 1.429 . S
C997 N994 1.350 . S
C997 C996 1.434 . S
C998 C999 1.369 . S
C998 C1000 1.419 . S
C998 H1002 0.930 . S
C999 C998 1.369 . S
C999 C1008 1.429 . S
C1000 C998 1.419 . S
C1000 C1001 1.363 . S
C1000 H1003 0.929 . S
C1001 C1000 1.363 . S
C1001 C1007 1.428 . S
H1002 C998 0.930 . S
H1003 C1000 0.929 . S
S1004 N1005 1.613 . S
S1004 N1006 1.610 . S
N1005 S1004 1.613 . S
N1005 C1008 1.350 . S
N1006 S1004 1.610 . S
N1006 C1007 1.351 . S
C1007 C1001 1.428 . S
C1007 N1006 1.351 . S
C1007 C1008 1.434 . S
C1008 C999 1.429 . S
C1008 N1005 1.350 . S
C1008 C1007 1.434 . S
C1009 C1010 1.369 . S
C1009 C1011 1.419 . S
C1009 H1013 0.930 . S
C1010 C1009 1.369 . S
C1010 C1019 1.429 . S
C1011 C1009 1.419 . S
C1011 C1012 1.363 . S
C1011 H1014 0.929 . S
C1012 C1011 1.363 . S
C1012 C1018 1.428 . S
H1013 C1009 0.930 . S
H1014 C1011 0.929 . S
S1015 N1016 1.613 . S
S1015 N1017 1.610 . S
N1016 S1015 1.613 . S
N1016 C1019 1.350 . S
N1017 S1015 1.610 . S
N1017 C1018 1.351 . S
C1018 C1012 1.428 . S
C1018 N1017 1.351 . S
C1018 C1019 1.434 . S
C1019 C1010 1.429 . S
C1019 N1016 1.350 . S
C1019 C1018 1.434 . S
C1020 C1021 1.369 . S
C1020 C1022 1.419 . S
C1020 H1024 0.930 . S
C1021 C1020 1.369 . S
C1021 C1030 1.429 . S
C1022 C1020 1.419 . S
C1022 C1023 1.363 . S
C1022 H1025 0.929 . S
C1023 C1022 1.363 . S
C1023 C1029 1.428 . S
H1024 C1020 0.930 . S
H1025 C1022 0.929 . S
S1026 N1027 1.613 . S
S1026 N1028 1.610 . S
N1027 S1026 1.613 . S
N1027 C1030 1.350 . S
N1028 S1026 1.610 . S
N1028 C1029 1.351 . S
C1029 C1023 1.428 . S
C1029 N1028 1.351 . S
C1029 C1030 1.434 . S
C1030 C1021 1.429 . S
C1030 N1027 1.350 . S
C1030 C1029 1.434 . S
C1031 C1032 1.369 . S
C1031 C1033 1.419 . S
C1031 H1035 0.930 . S
C1032 C1031 1.369 . S
C1032 C1041 1.429 . S
C1033 C1031 1.419 . S
C1033 C1034 1.363 . S
C1033 H1036 0.929 . S
C1034 C1033 1.363 . S
C1034 C1040 1.428 . S
H1035 C1031 0.930 . S
H1036 C1033 0.929 . S
S1037 N1038 1.613 . S
S1037 N1039 1.610 . S
N1038 S1037 1.613 . S
N1038 C1041 1.350 . S
N1039 S1037 1.610 . S
N1039 C1040 1.351 . S
C1040 C1034 1.428 . S
C1040 N1039 1.351 . S
C1040 C1041 1.434 . S
C1041 C1032 1.429 . S
C1041 N1038 1.350 . S
C1041 C1040 1.434 . S
C517 C288 1.061 . S
C515 N18 0.983 . S
C528 N264 1.485 . S
C526 C61 1.578 . S
C539 C296 0.778 . S
C537 N82 0.755 . S
C548 C100 1.591 . S
C550 C295 1.515 . S
C559 C130 1.613 . S
C561 N259 1.537 . S
C572 C283 1.076 . S
C570 N173 0.995 . S
C581 C198 1.700 . S
C583 C269 1.603 . S
C592 N242 0.771 . S
C594 C289 0.780 . S
C605 C312 1.574 . S
C603 C6 1.702 . S
C614 N50 0.795 . S
C616 C375 0.785 . S
C627 N302 1.490 . S
C625 C68 1.498 . S
C638 C369 0.785 . S
C636 N109 0.786 . S
C647 C134 2.180 . S
C649 C339 2.158 . S
C660 C381 1.579 . S
C658 C162 1.715 . S
C669 C194 2.270 . S
C671 C331 2.281 . S
C680 C228 1.499 . S
C682 N350 1.490 . S
C691 C2 1.640 . S
C693 N345 1.588 . S
C702 N141 1.060 . S
C704 C374 1.166 . S
C715 N307 1.589 . S
C713 C166 1.647 . S
C726 C382 1.032 . S
C724 N210 0.912 . S
C735 C253 1.606 . S
C737 C338 1.478 . S
C746 C93 1.588 . S
C748 C355 1.457 . S
C759 C332 2.065 . S
C757 C125 2.066 . S
C768 C36 2.204 . S
C770 C326 2.194 . S
C779 N237 0.990 . S
C781 C417 1.057 . S
C790 C157 1.580 . S
C792 N393 1.488 . S
C803 C425 0.768 . S
C801 N178 0.774 . S
C814 C424 1.515 . S
C812 C196 1.592 . S
C823 C34 1.608 . S
C825 N388 1.542 . S
C836 C412 1.065 . S
C834 N77 1.011 . S
C845 C102 1.698 . S
C847 C398 1.599 . S
C856 N13 0.772 . S
C858 C418 0.780 . S
C867 C226 1.700 . S
C869 C441 1.571 . S
C880 C504 0.793 . S
C878 N146 0.788 . S
C889 C164 1.497 . S
C891 N431 1.491 . S
C900 N205 0.779 . S
C902 C498 0.789 . S
C913 C468 2.159 . S
C911 C38 2.178 . S
C922 C66 1.715 . S
C924 C510 1.578 . S
C935 C460 2.282 . S
C933 C98 2.273 . S
C946 N479 1.493 . S
C944 C29 1.498 . S
C957 N474 1.591 . S
C955 C230 1.642 . S
C966 N45 1.053 . S
C968 C503 1.159 . S
C977 C70 1.646 . S
C979 N436 1.591 . S
C990 C511 1.037 . S
C988 N114 0.899 . S
C999 C4 1.606 . S
C1001 C467 1.472 . S
C1010 C189 1.591 . S
C1012 C484 1.456 . S
C1023 C461 2.068 . S
C1021 C221 2.066 . S
C1034 C455 2.195 . S
C1032 C132 2.208 . S
