# Generated by pormake.
# Topology ocu, (6,8)-cn, num edge types: 1
# Building blocks:
#     Node 0, Type 0, BuildingBlock: KUMBUR_clean_sbu_1, # of connection points: 6
#     Node 1, Type 0, BuildingBlock: KUMBUR_clean_sbu_1, # of connection points: 6
#     Node 2, Type 0, BuildingBlock: KUMBUR_clean_sbu_1, # of connection points: 6
#     Node 3, Type 0, BuildingBlock: KUMBUR_clean_sbu_1, # of connection points: 6
#     Node 4, Type 0, BuildingBlock: KUMBUR_clean_sbu_1, # of connection points: 6
#     Node 5, Type 0, BuildingBlock: KUMBUR_clean_sbu_1, # of connection points: 6
#     Node 6, Type 0, BuildingBlock: KUMBUR_clean_sbu_1, # of connection points: 6
#     Node 7, Type 0, BuildingBlock: KUMBUR_clean_sbu_1, # of connection points: 6
#     Node 8, Type 1, BuildingBlock: TAGTUT_clean_sbu_1, # of connection points: 8
#     Node 9, Type 1, BuildingBlock: TAGTUT_clean_sbu_1, # of connection points: 8
#     Node 10, Type 1, BuildingBlock: TAGTUT_clean_sbu_1, # of connection points: 8
#     Node 11, Type 1, BuildingBlock: TAGTUT_clean_sbu_1, # of connection points: 8
#     Node 12, Type 1, BuildingBlock: TAGTUT_clean_sbu_1, # of connection points: 8
#     Node 13, Type 1, BuildingBlock: TAGTUT_clean_sbu_1, # of connection points: 8
#     Edge 14, Type (0, 1), BuildingBlock: XUDNAN_clean_linker_2, # of connection points: 2
#     Edge 15, Type (0, 1), BuildingBlock: XUDNAN_clean_linker_2, # of connection points: 2
#     Edge 16, Type (0, 1), BuildingBlock: XUDNAN_clean_linker_2, # of connection points: 2
#     Edge 17, Type (0, 1), BuildingBlock: XUDNAN_clean_linker_2, # of connection points: 2
#     Edge 18, Type (0, 1), BuildingBlock: XUDNAN_clean_linker_2, # of connection points: 2
#     Edge 19, Type (0, 1), BuildingBlock: XUDNAN_clean_linker_2, # of connection points: 2
#     Edge 20, Type (0, 1), BuildingBlock: XUDNAN_clean_linker_2, # of connection points: 2
#     Edge 21, Type (0, 1), BuildingBlock: XUDNAN_clean_linker_2, # of connection points: 2
#     Edge 22, Type (0, 1), BuildingBlock: XUDNAN_clean_linker_2, # of connection points: 2
#     Edge 23, Type (0, 1), BuildingBlock: XUDNAN_clean_linker_2, # of connection points: 2
#     Edge 24, Type (0, 1), BuildingBlock: XUDNAN_clean_linker_2, # of connection points: 2
#     Edge 25, Type (0, 1), BuildingBlock: XUDNAN_clean_linker_2, # of connection points: 2
#     Edge 26, Type (0, 1), BuildingBlock: XUDNAN_clean_linker_2, # of connection points: 2
#     Edge 27, Type (0, 1), BuildingBlock: XUDNAN_clean_linker_2, # of connection points: 2
#     Edge 28, Type (0, 1), BuildingBlock: XUDNAN_clean_linker_2, # of connection points: 2
#     Edge 29, Type (0, 1), BuildingBlock: XUDNAN_clean_linker_2, # of connection points: 2
#     Edge 30, Type (0, 1), BuildingBlock: XUDNAN_clean_linker_2, # of connection points: 2
#     Edge 31, Type (0, 1), BuildingBlock: XUDNAN_clean_linker_2, # of connection points: 2
#     Edge 32, Type (0, 1), BuildingBlock: XUDNAN_clean_linker_2, # of connection points: 2
#     Edge 33, Type (0, 1), BuildingBlock: XUDNAN_clean_linker_2, # of connection points: 2
#     Edge 34, Type (0, 1), BuildingBlock: XUDNAN_clean_linker_2, # of connection points: 2
#     Edge 35, Type (0, 1), BuildingBlock: XUDNAN_clean_linker_2, # of connection points: 2
#     Edge 36, Type (0, 1), BuildingBlock: XUDNAN_clean_linker_2, # of connection points: 2
#     Edge 37, Type (0, 1), BuildingBlock: XUDNAN_clean_linker_2, # of connection points: 2
#     Edge 38, Type (0, 1), BuildingBlock: XUDNAN_clean_linker_2, # of connection points: 2
#     Edge 39, Type (0, 1), BuildingBlock: XUDNAN_clean_linker_2, # of connection points: 2
#     Edge 40, Type (0, 1), BuildingBlock: XUDNAN_clean_linker_2, # of connection points: 2
#     Edge 41, Type (0, 1), BuildingBlock: XUDNAN_clean_linker_2, # of connection points: 2
#     Edge 42, Type (0, 1), BuildingBlock: XUDNAN_clean_linker_2, # of connection points: 2
#     Edge 43, Type (0, 1), BuildingBlock: XUDNAN_clean_linker_2, # of connection points: 2
#     Edge 44, Type (0, 1), BuildingBlock: XUDNAN_clean_linker_2, # of connection points: 2
#     Edge 45, Type (0, 1), BuildingBlock: XUDNAN_clean_linker_2, # of connection points: 2
#     Edge 46, Type (0, 1), BuildingBlock: XUDNAN_clean_linker_2, # of connection points: 2
#     Edge 47, Type (0, 1), BuildingBlock: XUDNAN_clean_linker_2, # of connection points: 2
#     Edge 48, Type (0, 1), BuildingBlock: XUDNAN_clean_linker_2, # of connection points: 2
#     Edge 49, Type (0, 1), BuildingBlock: XUDNAN_clean_linker_2, # of connection points: 2
#     Edge 50, Type (0, 1), BuildingBlock: XUDNAN_clean_linker_2, # of connection points: 2
#     Edge 51, Type (0, 1), BuildingBlock: XUDNAN_clean_linker_2, # of connection points: 2
#     Edge 52, Type (0, 1), BuildingBlock: XUDNAN_clean_linker_2, # of connection points: 2
#     Edge 53, Type (0, 1), BuildingBlock: XUDNAN_clean_linker_2, # of connection points: 2
#     Edge 54, Type (0, 1), BuildingBlock: XUDNAN_clean_linker_2, # of connection points: 2
#     Edge 55, Type (0, 1), BuildingBlock: XUDNAN_clean_linker_2, # of connection points: 2
#     Edge 56, Type (0, 1), BuildingBlock: XUDNAN_clean_linker_2, # of connection points: 2
#     Edge 57, Type (0, 1), BuildingBlock: XUDNAN_clean_linker_2, # of connection points: 2
#     Edge 58, Type (0, 1), BuildingBlock: XUDNAN_clean_linker_2, # of connection points: 2
#     Edge 59, Type (0, 1), BuildingBlock: XUDNAN_clean_linker_2, # of connection points: 2
#     Edge 60, Type (0, 1), BuildingBlock: XUDNAN_clean_linker_2, # of connection points: 2
#     Edge 61, Type (0, 1), BuildingBlock: XUDNAN_clean_linker_2, # of connection points: 2
# Relax obj value: 0.069
# Max RMSD: 0.174
# Mean RMSD: 0.095
data_MOF--net-ocu--node1-KUMBUR_clean_sbu_1--node2-TAGTUT_clean_sbu_1--edge1-XUDNAN_clean_linker_2
_symmetry_space_group_name_H-M    P1
_symmetry_Int_Tables_number       1
_symmetry_cell_setting            triclinic
loop_
_symmetry_equiv_pos_as_xyz
'x, y, z'
_cell_length_a     40.297089
_cell_length_b     38.912677
_cell_length_c     42.688466
_cell_angle_alpha  100.30371
_cell_angle_beta   81.236485
_cell_angle_gamma 113.49064
loop_
_atom_site_label
_atom_site_type_symbol
_atom_site_fract_x
_atom_site_fract_y
_atom_site_fract_z
_atom_type_partial_charge
Tb0 Tb 0.23662 0.24321 0.22808 0.0
C1 C 0.32342 0.35598 0.32718 0.0
N2 N 0.33563 0.3397 0.29932 0.0
C3 C 0.37632 0.40123 0.28651 0.0
C4 C 0.33582 0.3956 0.33484 0.0
C5 C 0.36378 0.36183 0.28029 0.0
C6 C 0.36173 0.41821 0.31355 0.0
C7 C 0.28865 0.34851 0.37907 0.0
C8 C 0.30012 0.33287 0.34917 0.0
C9 C 0.29965 0.38789 0.38612 0.0
C10 C 0.32307 0.41137 0.36402 0.0
Tb11 Tb 0.31068 0.27472 0.29235 0.0
N12 N 0.28882 0.29479 0.3412 0.0
C13 C 0.26701 0.32405 0.40114 0.0
C14 C 0.26931 0.27083 0.3631 0.0
C15 C 0.25757 0.28506 0.39323 0.0
H16 H 0.37761 0.3497 0.26062 0.0
H17 H 0.2414 0.26602 0.41035 0.0
H18 H 0.17947 0.16046 0.25226 0.0
H19 H 0.30208 0.28001 0.11171 0.0
H20 H 0.26255 0.24082 0.35703 0.0
H21 H 0.25796 0.33502 0.42454 0.0
H22 H 0.28156 0.29302 0.16818 0.0
H23 H 0.39785 0.41848 0.27081 0.0
H24 H 0.29074 0.40049 0.40884 0.0
H25 H 0.33203 0.44175 0.37013 0.0
H26 H 0.15622 0.09393 0.22935 0.0
H27 H 0.37191 0.44876 0.31854 0.0
H28 H 0.28333 0.214 0.08516 0.0
N29 N 0.2131 0.17995 0.21014 0.0
C30 C 0.22138 0.17037 0.17855 0.0
C31 C 0.17498 0.11508 0.21492 0.0
C32 C 0.2079 0.13243 0.16424 0.0
C33 C 0.18898 0.15309 0.22805 0.0
C34 C 0.18478 0.10463 0.18297 0.0
N35 N 0.25592 0.23515 0.17514 0.0
C36 C 0.27548 0.26416 0.15766 0.0
C37 C 0.25315 0.19008 0.12779 0.0
C38 C 0.24367 0.19886 0.16055 0.0
C39 C 0.27526 0.2196 0.11032 0.0
C40 C 0.28613 0.25685 0.12527 0.0
H41 H 0.17377 0.07516 0.17286 0.0
H42 H 0.20763 0.0945 0.12034 0.0
H43 H 0.24739 0.14493 0.08847 0.0
O44 O 0.21093 0.26005 0.19734 0.0
O45 O 0.27277 0.21059 0.22048 0.0
O46 O 0.32563 0.24703 0.24606 0.0
O47 O 0.18098 0.23363 0.2394 0.0
O48 O 0.28315 0.29792 0.22592 0.0
O49 O 0.33159 0.29268 0.24493 0.0
O50 O 0.32267 0.23718 0.31468 0.0
O51 O 0.25892 0.28288 0.30518 0.0
O52 O 0.25228 0.29791 0.25839 0.0
O53 O 0.35986 0.29451 0.31316 0.0
O54 O 0.26964 0.21757 0.28552 0.0
O55 O 0.21711 0.22069 0.27478 0.0
C56 C 0.30697 0.21853 0.22542 0.0
C57 C 0.14687 0.25101 0.20646 0.0
C58 C 0.11669 0.27849 0.17775 0.0
C59 C 0.08304 0.25148 0.18828 0.0
C60 C 0.11287 0.22544 0.21709 0.0
C61 C 0.08125 0.22571 0.20801 0.0
C62 C 0.14873 0.27782 0.18717 0.0
C63 C 0.31801 0.30431 0.2246 0.0
C64 C 0.18007 0.24814 0.21444 0.0
C65 C 0.21758 0.12352 0.13171 0.0
C66 C 0.2402 0.15226 0.11355 0.0
C67 C 0.24674 0.30077 0.28955 0.0
C68 C 0.38547 0.24973 0.31288 0.0
C69 C 0.42216 0.21856 0.32662 0.0
C70 C 0.44729 0.2314 0.30054 0.0
C71 C 0.41062 0.26178 0.28652 0.0
C72 C 0.39108 0.22759 0.33264 0.0
C73 C 0.44132 0.2526 0.28045 0.0
C74 C 0.23439 0.20784 0.29079 0.0
C75 C 0.35465 0.26195 0.32106 0.0
H76 H 0.05772 0.24933 0.1809 0.0
H77 H 0.11074 0.20455 0.23182 0.0
H78 H 0.05513 0.20532 0.21586 0.0
H79 H 0.17516 0.2981 0.17992 0.0
H80 H 0.47116 0.22433 0.29537 0.0
H81 H 0.40668 0.27854 0.27077 0.0
H82 H 0.37165 0.21789 0.35287 0.0
H83 H 0.4606 0.26202 0.26014 0.0
Tb84 Tb 0.75345 0.29425 0.25973 0.0
C85 C 0.85033 0.20656 0.1907 0.0
N86 N 0.81535 0.19134 0.20342 0.0
C87 C 0.80093 0.14292 0.15857 0.0
C88 C 0.86182 0.19077 0.16087 0.0
C89 C 0.79075 0.15964 0.1882 0.0
C90 C 0.8366 0.15857 0.14481 0.0
C91 C 0.91007 0.2571 0.1936 0.0
C92 C 0.87419 0.23943 0.2069 0.0
C93 C 0.92179 0.24107 0.16408 0.0
C94 C 0.89776 0.20804 0.14777 0.0
Tb95 Tb 0.80267 0.221 0.25161 0.0
N96 N 0.86129 0.25535 0.23457 0.0
C97 C 0.93281 0.29081 0.21001 0.0
C98 C 0.88373 0.28747 0.25126 0.0
C99 C 0.91963 0.30591 0.23905 0.0
H100 H 0.76338 0.14692 0.19907 0.0
H101 H 0.93717 0.33166 0.25214 0.0
H102 H 0.78773 0.3624 0.31826 0.0
H103 H 0.61684 0.19163 0.24301 0.0
H104 H 0.87446 0.29893 0.27406 0.0
H105 H 0.96057 0.30534 0.20052 0.0
H106 H 0.68075 0.2262 0.22616 0.0
H107 H 0.78132 0.11793 0.14642 0.0
H108 H 0.94925 0.25427 0.15344 0.0
H109 H 0.90711 0.19634 0.12483 0.0
H110 H 0.76644 0.38464 0.37233 0.0
H111 H 0.84435 0.14563 0.12176 0.0
H112 H 0.59068 0.20921 0.29676 0.0
N113 N 0.73644 0.31888 0.30895 0.0
C114 C 0.70073 0.30274 0.31927 0.0
C115 C 0.7477 0.36144 0.35774 0.0
C116 C 0.68723 0.31479 0.3498 0.0
C117 C 0.75983 0.34841 0.32731 0.0
C118 C 0.71127 0.34444 0.36912 0.0
N119 N 0.69269 0.26072 0.271 0.0
C120 C 0.67073 0.23308 0.25022 0.0
C121 C 0.64122 0.25416 0.3101 0.0
C122 C 0.67811 0.27262 0.29972 0.0
C123 C 0.6192 0.22414 0.28968 0.0
C124 C 0.63393 0.21393 0.25944 0.0
H125 H 0.70199 0.35444 0.3928 0.0
H126 H 0.63961 0.30505 0.38374 0.0
H127 H 0.59933 0.25218 0.34891 0.0
O128 O 0.73116 0.3089 0.22428 0.0
O129 O 0.73927 0.25762 0.29746 0.0
O130 O 0.74741 0.20238 0.27525 0.0
O131 O 0.76083 0.35085 0.26192 0.0
O132 O 0.74676 0.25173 0.21715 0.0
O133 O 0.74914 0.19936 0.23387 0.0
O134 O 0.83551 0.21411 0.2814 0.0
O135 O 0.81426 0.25596 0.21307 0.0
O136 O 0.8095 0.31103 0.23854 0.0
O137 O 0.79761 0.16563 0.25492 0.0
O138 O 0.80762 0.26136 0.29512 0.0
O139 O 0.80614 0.31414 0.27905 0.0
C140 C 0.73242 0.22156 0.29712 0.0
C141 C 0.73975 0.37508 0.22441 0.0
C142 C 0.70555 0.39931 0.19791 0.0
C143 C 0.73428 0.43505 0.20082 0.0
C144 C 0.76768 0.41105 0.22747 0.0
C145 C 0.76494 0.44081 0.21563 0.0
C146 C 0.70874 0.36921 0.20963 0.0
C147 C 0.7406 0.2154 0.21344 0.0
C148 C 0.74318 0.34412 0.23712 0.0
C149 C 0.6505 0.29634 0.36028 0.0
C150 C 0.62757 0.26614 0.34048 0.0
C151 C 0.82108 0.29202 0.21396 0.0
C152 C 0.81331 0.15805 0.30369 0.0
C153 C 0.83396 0.1293 0.33869 0.0
C154 C 0.80528 0.13026 0.36165 0.0
C155 C 0.78475 0.15896 0.32668 0.0
C156 C 0.83753 0.14282 0.30959 0.0
C157 C 0.78069 0.14487 0.35553 0.0
C158 C 0.8127 0.29733 0.30011 0.0
C159 C 0.82176 0.17746 0.27551 0.0
H160 H 0.73343 0.45863 0.19129 0.0
H161 H 0.79182 0.41608 0.23876 0.0
H162 H 0.78675 0.46842 0.21779 0.0
H163 H 0.68691 0.34154 0.20799 0.0
H164 H 0.80216 0.12009 0.38437 0.0
H165 H 0.76648 0.17161 0.32275 0.0
H166 H 0.86034 0.14337 0.29221 0.0
H167 H 0.75914 0.14629 0.37356 0.0
Tb168 Tb 0.75826 0.71241 0.28677 0.0
C169 C 0.86252 0.82484 0.18986 0.0
N170 N 0.84763 0.83313 0.21967 0.0
C171 C 0.90328 0.8857 0.2309 0.0
C172 C 0.89874 0.84656 0.17969 0.0
C173 C 0.86702 0.864 0.23973 0.0
C174 C 0.91931 0.87677 0.20088 0.0
C175 C 0.85502 0.78747 0.1373 0.0
C176 C 0.84105 0.79517 0.1689 0.0
C177 C 0.89122 0.80881 0.12735 0.0
C178 C 0.91308 0.83803 0.14854 0.0
Tb179 Tb 0.78805 0.79532 0.22927 0.0
N180 N 0.80647 0.77385 0.17956 0.0
C181 C 0.83209 0.7586 0.11657 0.0
C182 C 0.78377 0.74628 0.15933 0.0
C183 C 0.79625 0.73807 0.12761 0.0
H184 H 0.8546 0.87277 0.2623 0.0
H185 H 0.77823 0.71596 0.11171 0.0
H186 H 0.68463 0.64191 0.25624 0.0
H187 H 0.78241 0.77713 0.40759 0.0
H188 H 0.75602 0.73103 0.16744 0.0
H189 H 0.84178 0.75194 0.09206 0.0
H190 H 0.79954 0.76118 0.35022 0.0
H191 H 0.91864 0.90977 0.24703 0.0
H192 H 0.90255 0.80303 0.10325 0.0
H193 H 0.94089 0.85436 0.14039 0.0
H194 H 0.61974 0.6126 0.27304 0.0
H195 H 0.94728 0.89401 0.19398 0.0
H196 H 0.71765 0.75301 0.42868 0.0
N197 N 0.69733 0.68052 0.29925 0.0
C198 C 0.68492 0.68922 0.32987 0.0
C199 C 0.63766 0.63458 0.2891 0.0
C200 C 0.64805 0.6719 0.34094 0.0
C201 C 0.67457 0.6521 0.27938 0.0
C202 C 0.6242 0.64493 0.31985 0.0
N203 N 0.74506 0.72993 0.33923 0.0
C204 C 0.77129 0.75107 0.3593 0.0
C205 C 0.69858 0.72246 0.38308 0.0
C206 C 0.70972 0.71414 0.35074 0.0
C207 C 0.72506 0.74603 0.40358 0.0
C208 C 0.76166 0.7598 0.39176 0.0
H209 H 0.59566 0.63098 0.32742 0.0
H210 H 0.60815 0.66838 0.38178 0.0
H211 H 0.65242 0.71261 0.41869 0.0
O212 O 0.79993 0.70138 0.30339 0.0
O213 O 0.74106 0.76037 0.30582 0.0
O214 O 0.75949 0.80998 0.27455 0.0
O215 O 0.74609 0.65769 0.29602 0.0
O216 O 0.81227 0.75765 0.28228 0.0
O217 O 0.81129 0.81411 0.2753 0.0
O218 O 0.75286 0.79929 0.19953 0.0
O219 O 0.81524 0.75356 0.21835 0.0
O220 O 0.77552 0.69793 0.23706 0.0
O221 O 0.79666 0.8488 0.21821 0.0
O222 O 0.73347 0.75382 0.23937 0.0
O223 O 0.73299 0.69622 0.24166 0.0
C224 C 0.74199 0.79306 0.29992 0.0
C225 C 0.78824 0.63723 0.31395 0.0
C226 C 0.82708 0.61853 0.33984 0.0
C227 C 0.80475 0.58043 0.3318 0.0
C228 C 0.76632 0.59892 0.30614 0.0
C229 C 0.77467 0.57075 0.31492 0.0
C230 C 0.81905 0.64705 0.33056 0.0
C231 C 0.8207 0.79396 0.29122 0.0
C232 C 0.7783 0.66618 0.30452 0.0
C233 C 0.63643 0.68119 0.37291 0.0
C234 C 0.66165 0.70635 0.39395 0.0
C235 C 0.80554 0.71722 0.22068 0.0
C236 C 0.74349 0.85668 0.21006 0.0
C237 C 0.70002 0.87758 0.19326 0.0
C238 C 0.70135 0.901 0.22254 0.0
C239 C 0.74362 0.87958 0.23954 0.0
C240 C 0.72105 0.85521 0.18713 0.0
C241 C 0.72281 0.90173 0.24558 0.0
C242 C 0.72225 0.71786 0.22901 0.0
C243 C 0.76804 0.83599 0.20234 0.0
H244 H 0.81059 0.55809 0.33873 0.0
H245 H 0.74265 0.59064 0.29314 0.0
H246 H 0.75764 0.54133 0.3088 0.0
H247 H 0.83599 0.6765 0.33699 0.0
H248 H 0.68546 0.91852 0.22769 0.0
H249 H 0.76029 0.88091 0.25773 0.0
H250 H 0.7207 0.83756 0.16433 0.0
H251 H 0.72356 0.91978 0.26813 0.0
Tb252 Tb 0.24347 0.77678 0.24801 0.0
C253 C 0.28684 0.66677 0.30959 0.0
N254 N 0.30652 0.70417 0.30826 0.0
C255 C 0.32466 0.71084 0.36071 0.0
C256 C 0.28368 0.65046 0.33741 0.0
C257 C 0.32769 0.72546 0.33226 0.0
C258 C 0.30181 0.67344 0.36359 0.0
C259 C 0.25479 0.60464 0.28167 0.0
C260 C 0.27279 0.64409 0.28197 0.0
C261 C 0.25037 0.58855 0.30971 0.0
C262 C 0.26454 0.61145 0.33758 0.0
Tb263 Tb 0.30735 0.72508 0.26141 0.0
N264 N 0.27922 0.66037 0.25485 0.0
C265 C 0.24312 0.58232 0.25288 0.0
C266 C 0.27084 0.63811 0.22619 0.0
C267 C 0.25171 0.59909 0.22492 0.0
H268 H 0.34716 0.75364 0.32939 0.0
H269 H 0.24444 0.58186 0.20222 0.0
H270 H 0.21459 0.73433 0.17751 0.0
H271 H 0.28405 0.9248 0.29753 0.0
H272 H 0.27968 0.64969 0.20392 0.0
H273 H 0.22897 0.55196 0.25173 0.0
H274 H 0.25856 0.8565 0.30042 0.0
H275 H 0.34048 0.72794 0.38019 0.0
H276 H 0.23651 0.55833 0.30994 0.0
H277 H 0.26163 0.5985 0.35883 0.0
H278 H 0.22155 0.75176 0.12329 0.0
H279 H 0.30006 0.66201 0.38542 0.0
H280 H 0.30108 0.94848 0.24497 0.0
N281 N 0.24577 0.78993 0.19781 0.0
C282 C 0.26082 0.82712 0.19397 0.0
C283 C 0.23325 0.77318 0.14285 0.0
C284 C 0.26446 0.8387 0.16379 0.0
C285 C 0.22999 0.7632 0.17338 0.0
C286 C 0.25107 0.81106 0.13791 0.0
N287 N 0.26339 0.84109 0.2499 0.0
C288 C 0.26643 0.86619 0.27725 0.0
C289 C 0.28435 0.89248 0.21812 0.0
C290 C 0.27047 0.85357 0.22086 0.0
C291 C 0.29038 0.91834 0.24605 0.0
C292 C 0.28072 0.90509 0.27575 0.0
H293 H 0.25325 0.81879 0.11431 0.0
H294 H 0.28337 0.88691 0.13765 0.0
H295 H 0.30119 0.93403 0.18517 0.0
O296 O 0.20225 0.79795 0.25307 0.0
O297 O 0.28819 0.77934 0.21149 0.0
O298 O 0.32891 0.78061 0.24372 0.0
O299 O 0.18898 0.73864 0.25242 0.0
O300 O 0.28267 0.80784 0.2852 0.0
O301 O 0.30672 0.76865 0.30135 0.0
O302 O 0.34244 0.69708 0.24272 0.0
O303 O 0.24929 0.70316 0.27852 0.0
O304 O 0.23679 0.75663 0.29388 0.0
O305 O 0.36369 0.75482 0.26415 0.0
O306 O 0.28772 0.71396 0.2141 0.0
O307 O 0.23185 0.71791 0.22672 0.0
C308 C 0.32166 0.78978 0.21818 0.0
C309 C 0.15749 0.76721 0.29116 0.0
C310 C 0.1596 0.79498 0.34689 0.0
C311 C 0.12259 0.77224 0.35267 0.0
C312 C 0.12076 0.74455 0.29692 0.0
C313 C 0.10346 0.74682 0.32781 0.0
C314 C 0.17684 0.79098 0.3164 0.0
C315 C 0.30244 0.801 0.30387 0.0
C316 C 0.17712 0.76586 0.25953 0.0
C317 C 0.28002 0.87741 0.16071 0.0
C318 C 0.29017 0.90424 0.18779 0.0
C319 C 0.23152 0.72196 0.29739 0.0
C320 C 0.39341 0.73841 0.21606 0.0
C321 C 0.39413 0.73113 0.15828 0.0
C322 C 0.43243 0.74497 0.15601 0.0
C323 C 0.4313 0.75195 0.2138 0.0
C324 C 0.37565 0.73168 0.1886 0.0
C325 C 0.45084 0.75639 0.18375 0.0
C326 C 0.25398 0.7043 0.20808 0.0
C327 C 0.37126 0.72795 0.24597 0.0
H328 H 0.10818 0.77483 0.37597 0.0
H329 H 0.10565 0.72529 0.27772 0.0
H330 H 0.07499 0.72947 0.33235 0.0
H331 H 0.20565 0.80694 0.31218 0.0
H332 H 0.44817 0.74485 0.13311 0.0
H333 H 0.44555 0.75815 0.23495 0.0
H334 H 0.34665 0.72284 0.19065 0.0
H335 H 0.48018 0.76642 0.18182 0.0
Tb336 Tb 0.2463 0.78593 0.75873 0.0
C337 C 0.35481 0.71742 0.68739 0.0
N338 N 0.32147 0.6997 0.70235 0.0
C339 C 0.30723 0.65058 0.65779 0.0
C340 C 0.36498 0.70334 0.65628 0.0
C341 C 0.29898 0.66517 0.689 0.0
C342 C 0.34011 0.6702 0.64105 0.0
C343 C 0.41567 0.76543 0.69092 0.0
C344 C 0.37983 0.74802 0.70437 0.0
C345 C 0.42545 0.75257 0.65939 0.0
C346 C 0.40013 0.72173 0.64205 0.0
Tb347 Tb 0.31068 0.72732 0.75267 0.0
N348 N 0.36904 0.76032 0.73443 0.0
C349 C 0.44048 0.79506 0.70965 0.0
C350 C 0.39356 0.78767 0.75353 0.0
C351 C 0.42945 0.80596 0.74121 0.0
H352 H 0.27535 0.64814 0.70277 0.0
H353 H 0.44863 0.82823 0.7561 0.0
H354 H 0.26917 0.84827 0.82239 0.0
H355 H 0.11682 0.67608 0.7282 0.0
H356 H 0.38523 0.79564 0.77808 0.0
H357 H 0.46832 0.8092 0.7002 0.0
H358 H 0.17897 0.72084 0.71647 0.0
H359 H 0.28872 0.62369 0.64705 0.0
H360 H 0.45263 0.76585 0.64835 0.0
H361 H 0.40837 0.71157 0.61803 0.0
H362 H 0.24227 0.86018 0.87711 0.0
H363 H 0.34682 0.65847 0.61711 0.0
H364 H 0.08674 0.6785 0.78312 0.0
N365 N 0.22328 0.7992 0.80924 0.0
C366 C 0.18826 0.77731 0.81737 0.0
C367 C 0.22688 0.8365 0.86068 0.0
C368 C 0.17148 0.78313 0.84818 0.0
C369 C 0.24229 0.8294 0.82983 0.0
C370 C 0.1914 0.81302 0.87003 0.0
N371 N 0.18672 0.74507 0.765 0.0
C372 C 0.16748 0.72067 0.7409 0.0
C373 C 0.13334 0.72479 0.80229 0.0
C374 C 0.16961 0.74866 0.79471 0.0
C375 C 0.11465 0.69747 0.77829 0.0
C376 C 0.13161 0.69587 0.74731 0.0
H377 H 0.17953 0.81845 0.89399 0.0
H378 H 0.12236 0.76252 0.87981 0.0
H379 H 0.08889 0.71135 0.83963 0.0
O380 O 0.21316 0.80581 0.739 0.0
O381 O 0.24702 0.7571 0.79797 0.0
O382 O 0.2547 0.70276 0.77448 0.0
O383 O 0.26385 0.84434 0.75881 0.0
O384 O 0.24337 0.74266 0.71724 0.0
O385 O 0.25706 0.69664 0.73388 0.0
O386 O 0.32835 0.72167 0.79463 0.0
O387 O 0.33137 0.78018 0.73087 0.0
O388 O 0.28032 0.78081 0.71456 0.0
O389 O 0.32778 0.68275 0.75196 0.0
O390 O 0.31516 0.77179 0.79291 0.0
O391 O 0.30033 0.81726 0.77635 0.0
C392 C 0.23914 0.72087 0.79685 0.0
C393 C 0.23103 0.87321 0.73641 0.0
C394 C 0.19758 0.89906 0.71055 0.0
C395 C 0.22577 0.93497 0.71561 0.0
C396 C 0.25835 0.90937 0.74157 0.0
C397 C 0.2556 0.94003 0.73129 0.0
C398 C 0.2005 0.86824 0.72126 0.0
C399 C 0.24135 0.70758 0.71483 0.0
C400 C 0.23609 0.84052 0.74449 0.0
C401 C 0.13566 0.75884 0.85614 0.0
C402 C 0.11667 0.72962 0.83328 0.0
C403 C 0.31569 0.79157 0.71239 0.0
C404 C 0.32269 0.66067 0.80074 0.0
C405 C 0.33925 0.62124 0.82818 0.0
C406 C 0.30245 0.60024 0.83607 0.0
C407 C 0.2858 0.63963 0.80855 0.0
C408 C 0.34929 0.65143 0.8106 0.0
C409 C 0.27585 0.60942 0.82617 0.0
C410 C 0.31673 0.80664 0.79509 0.0
C411 C 0.33464 0.69177 0.78167 0.0
H412 H 0.22538 0.95923 0.70686 0.0
H413 H 0.2823 0.91388 0.75292 0.0
H414 H 0.27704 0.96774 0.73493 0.0
H415 H 0.17928 0.84035 0.71762 0.0
H416 H 0.29439 0.57671 0.84962 0.0
H417 H 0.26495 0.64631 0.80084 0.0
H418 H 0.37784 0.66754 0.8044 0.0
H419 H 0.24759 0.59278 0.83195 0.0
Tb420 Tb 0.26664 0.21778 0.78055 0.0
C421 C 0.35964 0.32043 0.67794 0.0
N422 N 0.34614 0.33031 0.70784 0.0
C423 C 0.40346 0.38157 0.71656 0.0
C424 C 0.39612 0.33984 0.66675 0.0
C425 C 0.36687 0.36211 0.72619 0.0
C426 C 0.41837 0.36994 0.68695 0.0
C427 C 0.34816 0.28365 0.62557 0.0
C428 C 0.33612 0.29264 0.65753 0.0
C429 C 0.38479 0.30191 0.61475 0.0
C430 C 0.40877 0.32975 0.63535 0.0
Tb431 Tb 0.28587 0.29562 0.72031 0.0
N432 N 0.30102 0.275 0.66893 0.0
C433 C 0.32283 0.25704 0.60535 0.0
C434 C 0.27571 0.25073 0.64886 0.0
C435 C 0.28639 0.24077 0.61698 0.0
H436 H 0.35522 0.37361 0.74773 0.0
H437 H 0.2665 0.22075 0.60139 0.0
H438 H 0.2066 0.13489 0.74791 0.0
H439 H 0.26511 0.29872 0.89706 0.0
H440 H 0.24746 0.2387 0.6577 0.0
H441 H 0.33103 0.24932 0.58061 0.0
H442 H 0.29274 0.2817 0.84407 0.0
H443 H 0.41986 0.40619 0.73161 0.0
H444 H 0.39471 0.29515 0.59034 0.0
H445 H 0.43677 0.34418 0.62644 0.0
H446 H 0.14338 0.09334 0.76115 0.0
H447 H 0.44656 0.38554 0.67927 0.0
H448 H 0.20112 0.26064 0.91377 0.0
N449 N 0.20859 0.17508 0.78962 0.0
C450 C 0.19139 0.18231 0.81854 0.0
C451 C 0.1564 0.11856 0.77731 0.0
C452 C 0.15531 0.15874 0.8273 0.0
C453 C 0.19219 0.1427 0.76966 0.0
C454 C 0.1377 0.12688 0.80603 0.0
N455 N 0.24494 0.23541 0.83061 0.0
C456 C 0.26494 0.26518 0.85103 0.0
C457 C 0.19327 0.22167 0.86988 0.0
C458 C 0.21023 0.21311 0.83984 0.0
C459 C 0.21321 0.25307 0.8905 0.0
C460 C 0.24931 0.27471 0.88113 0.0
H461 H 0.10999 0.10806 0.81189 0.0
H462 H 0.11035 0.14975 0.86411 0.0
H463 H 0.14346 0.20502 0.90122 0.0
O464 O 0.29473 0.20892 0.81375 0.0
O465 O 0.23522 0.25495 0.79149 0.0
O466 O 0.26429 0.31159 0.7691 0.0
O467 O 0.27129 0.16487 0.77554 0.0
O468 O 0.31748 0.26758 0.78221 0.0
O469 O 0.31128 0.31826 0.76583 0.0
O470 O 0.24306 0.29726 0.69898 0.0
O471 O 0.30056 0.24598 0.70191 0.0
O472 O 0.31541 0.23748 0.74777 0.0
O473 O 0.2917 0.3469 0.70597 0.0
O474 O 0.23466 0.24966 0.73059 0.0
O475 O 0.24305 0.19625 0.73419 0.0
C476 C 0.24032 0.29048 0.78983 0.0
C477 C 0.28417 0.14711 0.82183 0.0
C478 C 0.31129 0.12233 0.85532 0.0
C479 C 0.27665 0.09481 0.86242 0.0
C480 C 0.24983 0.11986 0.82941 0.0
C481 C 0.24621 0.09371 0.84959 0.0
C482 C 0.31463 0.14832 0.83488 0.0
C483 C 0.32397 0.30382 0.7848 0.0
C484 C 0.29005 0.17484 0.8003 0.0
C485 C 0.13815 0.16738 0.85711 0.0
C486 C 0.15704 0.1988 0.8783 0.0
C487 C 0.31587 0.23036 0.71678 0.0
C488 C 0.2371 0.3553 0.70416 0.0
C489 C 0.19266 0.37528 0.68799 0.0
C490 C 0.19045 0.39437 0.71911 0.0
C491 C 0.23446 0.37427 0.73497 0.0
C492 C 0.2167 0.35626 0.68077 0.0
C493 C 0.21143 0.39405 0.74224 0.0
C494 C 0.22772 0.21385 0.7213 0.0
C495 C 0.25958 0.33281 0.69574 0.0
H496 H 0.27293 0.07453 0.87833 0.0
H497 H 0.22603 0.11872 0.81974 0.0
H498 H 0.2197 0.07256 0.85541 0.0
H499 H 0.34115 0.16935 0.82864 0.0
H500 H 0.17202 0.40898 0.72593 0.0
H501 H 0.24996 0.3736 0.75332 0.0
H502 H 0.21973 0.342 0.6569 0.0
H503 H 0.20942 0.40877 0.76602 0.0
Tb504 Tb 0.73818 0.29016 0.75595 0.0
C505 C 0.79094 0.19038 0.81721 0.0
N506 N 0.80584 0.22769 0.81392 0.0
C507 C 0.81867 0.2434 0.8688 0.0
C508 C 0.78721 0.17819 0.84714 0.0
C509 C 0.82177 0.254 0.83852 0.0
C510 C 0.80063 0.20537 0.87329 0.0
C511 C 0.76589 0.12548 0.79241 0.0
C512 C 0.78049 0.16455 0.79016 0.0
C513 C 0.76047 0.11307 0.82243 0.0
C514 C 0.77112 0.13937 0.84975 0.0
Tb515 Tb 0.80692 0.24241 0.76453 0.0
N516 N 0.78613 0.17771 0.76155 0.0
C517 C 0.75787 0.10009 0.76435 0.0
C518 C 0.78056 0.15286 0.7339 0.0
C519 C 0.76579 0.11387 0.73496 0.0
H520 H 0.83682 0.28305 0.83475 0.0
H521 H 0.76077 0.09446 0.71302 0.0
H522 H 0.69471 0.23733 0.69225 0.0
H523 H 0.81751 0.43933 0.78016 0.0
H524 H 0.78727 0.16255 0.71075 0.0
H525 H 0.74656 0.06985 0.76505 0.0
H526 H 0.78715 0.37412 0.79283 0.0
H527 H 0.83042 0.26448 0.88853 0.0
H528 H 0.74885 0.08317 0.82467 0.0
H529 H 0.76759 0.12937 0.87261 0.0
H530 H 0.68903 0.24694 0.63858 0.0
H531 H 0.79834 0.19718 0.89672 0.0
H532 H 0.81539 0.45364 0.72652 0.0
N533 N 0.7335 0.29323 0.70385 0.0
C534 C 0.75013 0.32834 0.69461 0.0
C535 C 0.70755 0.26955 0.65357 0.0
C536 C 0.74738 0.33494 0.66387 0.0
C537 C 0.71125 0.26421 0.68417 0.0
C538 C 0.72636 0.30475 0.64304 0.0
N539 N 0.77047 0.35087 0.74604 0.0
C540 C 0.78734 0.37955 0.76893 0.0
C541 C 0.78482 0.39532 0.70856 0.0
C542 C 0.76862 0.35824 0.71659 0.0
C543 C 0.80265 0.42472 0.73174 0.0
C544 C 0.80407 0.41675 0.76199 0.0
H545 H 0.7231 0.30874 0.61938 0.0
H546 H 0.76239 0.37727 0.63189 0.0
H547 H 0.79494 0.43017 0.67114 0.0
O548 O 0.71454 0.32503 0.78505 0.0
O549 O 0.79521 0.31117 0.73523 0.0
O550 O 0.80571 0.25742 0.71812 0.0
O551 O 0.68315 0.27947 0.75203 0.0
O552 O 0.76194 0.30538 0.80184 0.0
O553 O 0.81756 0.30133 0.78562 0.0
O554 O 0.84993 0.22387 0.75913 0.0
O555 O 0.76327 0.23917 0.80283 0.0
O556 O 0.71575 0.23795 0.77852 0.0
O557 O 0.86046 0.2823 0.758 0.0
O558 O 0.77315 0.21654 0.72352 0.0
O559 O 0.72116 0.23052 0.73542 0.0
C560 C 0.81074 0.29183 0.71435 0.0
C561 C 0.65657 0.28789 0.80431 0.0
C562 C 0.65165 0.28525 0.86116 0.0
C563 C 0.61445 0.27884 0.86275 0.0
C564 C 0.61985 0.28202 0.80585 0.0
C565 C 0.59841 0.27574 0.8349 0.0
C566 C 0.67065 0.28441 0.83109 0.0
C567 C 0.79616 0.31434 0.80618 0.0
C568 C 0.68212 0.30327 0.77726 0.0
C569 C 0.76418 0.37171 0.65543 0.0
C570 C 0.78258 0.40187 0.67782 0.0
C571 C 0.7286 0.22619 0.79913 0.0
C572 C 0.89144 0.25357 0.71856 0.0
C573 C 0.8882 0.22048 0.66436 0.0
C574 C 0.92331 0.24637 0.656 0.0
C575 C 0.92623 0.27938 0.71014 0.0
C576 C 0.87221 0.22553 0.69525 0.0
C577 C 0.94193 0.27598 0.67874 0.0
C578 C 0.73874 0.20931 0.72041 0.0
C579 C 0.87348 0.25594 0.75091 0.0
H580 H 0.59837 0.27906 0.88547 0.0
H581 H 0.60827 0.28367 0.78515 0.0
H582 H 0.57007 0.27168 0.83635 0.0
H583 H 0.6986 0.28717 0.82952 0.0
H584 H 0.93679 0.24324 0.63234 0.0
H585 H 0.94106 0.30196 0.72769 0.0
H586 H 0.84456 0.20707 0.70132 0.0
H587 H 0.9689 0.29581 0.67217 0.0
Tb588 Tb 0.73456 0.73616 0.72633 0.0
C589 C 0.83162 0.86058 0.82489 0.0
N590 N 0.8427 0.84164 0.79812 0.0
C591 C 0.89168 0.89918 0.78582 0.0
C592 C 0.8499 0.89988 0.83275 0.0
C593 C 0.87316 0.86012 0.77924 0.0
C594 C 0.87983 0.91922 0.81251 0.0
C595 C 0.79089 0.85889 0.87341 0.0
C596 C 0.80228 0.84038 0.845 0.0
C597 C 0.80905 0.89804 0.88121 0.0
C598 C 0.83821 0.91852 0.86082 0.0
Tb599 Tb 0.80926 0.77818 0.79124 0.0
N600 N 0.78475 0.80257 0.83655 0.0
C601 C 0.76174 0.83739 0.89324 0.0
C602 C 0.75755 0.78118 0.85643 0.0
C603 C 0.74522 0.79832 0.88484 0.0
H604 H 0.88398 0.84497 0.75945 0.0
H605 H 0.72306 0.7814 0.90025 0.0
H606 H 0.65639 0.67502 0.75757 0.0
H607 H 0.80601 0.73058 0.60962 0.0
H608 H 0.74519 0.75107 0.85027 0.0
H609 H 0.75207 0.85059 0.91524 0.0
H610 H 0.79003 0.76151 0.66222 0.0
H611 H 0.91547 0.91373 0.77057 0.0
H612 H 0.80074 0.91279 0.90299 0.0
H613 H 0.8519 0.94871 0.86721 0.0
H614 H 0.61886 0.60716 0.74638 0.0
H615 H 0.8945 0.94944 0.81769 0.0
H616 H 0.77384 0.66174 0.59491 0.0
N617 N 0.69561 0.67438 0.71805 0.0
C618 C 0.70376 0.65423 0.69067 0.0
C619 C 0.64293 0.61994 0.73072 0.0
C620 C 0.6822 0.61576 0.68261 0.0
C621 C 0.66469 0.65828 0.73732 0.0
C622 C 0.65198 0.59844 0.70348 0.0
N623 N 0.75207 0.71033 0.67794 0.0
C624 C 0.77699 0.73139 0.65634 0.0
C625 C 0.73991 0.65419 0.63969 0.0
C626 C 0.73236 0.67303 0.66954 0.0
C627 C 0.76729 0.67511 0.6182 0.0
C628 C 0.78561 0.71397 0.62644 0.0
H629 H 0.63476 0.56888 0.69819 0.0
H630 H 0.67464 0.56658 0.64702 0.0
H631 H 0.72499 0.60031 0.60934 0.0
O632 O 0.72789 0.7812 0.71031 0.0
O633 O 0.7778 0.71273 0.71563 0.0
O634 O 0.82525 0.74551 0.74848 0.0
O635 O 0.6889 0.72435 0.70224 0.0
O636 O 0.78022 0.79189 0.72414 0.0
O637 O 0.83107 0.79346 0.74389 0.0
O638 O 0.81368 0.74889 0.82639 0.0
O639 O 0.76886 0.80428 0.79066 0.0
O640 O 0.7161 0.75683 0.77372 0.0
O641 O 0.86063 0.79236 0.80712 0.0
O642 O 0.77135 0.71921 0.78454 0.0
O643 O 0.71631 0.71413 0.77311 0.0
C644 C 0.81035 0.72007 0.72423 0.0
C645 C 0.66679 0.77251 0.70682 0.0
C646 C 0.63115 0.80371 0.69118 0.0
C647 C 0.60504 0.79085 0.7167 0.0
C648 C 0.64088 0.76067 0.73271 0.0
C649 C 0.61013 0.76979 0.73752 0.0
C650 C 0.66215 0.79457 0.68642 0.0
C651 C 0.81555 0.80053 0.72223 0.0
C652 C 0.69695 0.75938 0.69915 0.0
C653 C 0.69072 0.59625 0.65354 0.0
C654 C 0.71938 0.61547 0.63205 0.0
C655 C 0.73305 0.78894 0.79123 0.0
C656 C 0.8691 0.74041 0.82058 0.0
C657 C 0.8976 0.70528 0.84149 0.0
C658 C 0.90722 0.69214 0.80992 0.0
C659 C 0.87923 0.7269 0.78953 0.0
C660 C 0.87837 0.72958 0.84672 0.0
C661 C 0.89803 0.70291 0.78416 0.0
C662 C 0.73608 0.70632 0.79055 0.0
C663 C 0.84887 0.7656 0.8253 0.0
H664 H 0.5811 0.7978 0.72089 0.0
H665 H 0.64407 0.74375 0.74875 0.0
H666 H 0.59007 0.76032 0.75734 0.0
H667 H 0.68218 0.8039 0.66646 0.0
H668 H 0.92266 0.6742 0.80506 0.0
H669 H 0.87288 0.73532 0.76944 0.0
H670 H 0.87062 0.73989 0.87086 0.0
H671 H 0.90583 0.69297 0.75995 0.0
C672 C 0.91258 0.04256 0.52052 0.0
C673 C 0.98679 0.05504 0.44057 0.0
C674 C 0.99335 0.92591 0.45387 0.0
Mg675 Mg 0.99715 0.07153 0.51147 0.0
O676 O 0.98481 0.02074 0.51409 0.0
Mg677 Mg 0.94965 0.98182 0.48448 0.0
Mg678 Mg 0.02532 1.00289 0.50598 0.0
O679 O 0.06559 0.98476 0.49824 0.0
Mg680 Mg 0.05372 0.93352 0.49767 0.0
Mg681 Mg 0.09845 0.02145 0.53062 0.0
C682 C 0.05772 0.08025 0.55625 0.0
C683 C 0.09774 0.06321 0.47027 0.0
O684 O 0.90869 0.00921 0.50679 0.0
O685 O 0.94349 0.06931 0.52522 0.0
O686 O 0.96655 0.02115 0.44545 0.0
O687 O 1.00557 0.07913 0.46205 0.0
O688 O 0.03926 0.0951 0.54516 0.0
O689 O 0.05416 0.04577 0.54698 0.0
C690 C 0.95481 0.94181 0.5434 0.0
O691 O 0.98952 0.95924 0.54031 0.0
O692 O 0.93425 0.94561 0.5253 0.0
O693 O 0.14028 0.99459 0.51001 0.0
O694 O 0.10755 0.93639 0.4861 0.0
O695 O 0.07886 0.9791 0.5684 0.0
C696 C 0.1376 0.96234 0.49443 0.0
O697 O 0.04378 0.92208 0.5458 0.0
O698 O 1.01324 0.911 0.46256 0.0
C699 C 0.05956 0.94391 0.56975 0.0
O700 O 0.99517 0.9592 0.46599 0.0
O701 O 0.06286 0.04669 0.47071 0.0
O702 O 0.11515 0.05859 0.49093 0.0
C703 C 0.44447 0.08537 0.07639 0.0
C704 C 0.4761 0.08138 0.97507 0.0
C705 C 0.45836 0.93775 0.97414 0.0
Mg706 Mg 0.51759 0.09289 0.03387 0.0
O707 O 0.49889 0.04041 0.03344 0.0
Mg708 Mg 0.44787 0.01078 0.02102 0.0
Mg709 Mg 0.52486 0.00781 0.00817 0.0
O710 O 0.54955 0.97407 0.98348 0.0
Mg711 Mg 0.52755 0.92248 0.98771 0.0
Mg712 Mg 0.60017 1.00166 0.99655 0.0
C713 C 0.58996 0.07817 0.04222 0.0
C714 C 0.58348 0.05109 0.95122 0.0
O715 O 0.42839 0.05254 0.06064 0.0
O716 O 0.4787 0.10441 0.07131 0.0
O717 O 0.4548 0.04967 0.98407 0.0
O718 O 0.50437 0.10272 0.98944 0.0
O719 O 0.57257 0.10021 0.0442 0.0
O720 O 0.57622 0.04267 0.03192 0.0
C721 C 0.46711 0.96066 0.06362 0.0
O722 O 0.49931 0.97034 0.04925 0.0
O723 O 0.44359 0.97218 0.05712 0.0
O724 O 0.61715 0.95592 0.95866 0.0
O725 O 0.56466 0.90533 0.95326 0.0
O726 O 0.59182 0.96434 0.03567 0.0
C727 C 0.59893 0.92181 0.94611 0.0
O728 O 0.5392 0.91454 0.0334 0.0
O729 O 0.4737 0.9144 0.97456 0.0
C730 C 0.56881 0.93425 0.04638 0.0
O731 O 0.47333 0.97306 0.98443 0.0
O732 O 0.55188 0.0453 0.96642 0.0
O733 O 0.60504 0.03729 0.95821 0.0
C734 C 0.95161 0.58762 0.08024 0.0
C735 C 0.98861 0.59516 0.98243 0.0
C736 C 0.95918 0.44201 0.97175 0.0
Mg737 Mg 0.02518 0.59374 0.04072 0.0
O738 O 1.0039 0.54097 0.03413 0.0
Mg739 Mg 0.95359 0.51669 0.01991 0.0
Mg740 Mg 0.02775 0.50823 1.00571 0.0
O741 O 0.05096 0.4745 0.97805 0.0
Mg742 Mg 0.028 0.42258 0.98153 0.0
Mg743 Mg 0.1022 0.49951 0.99049 0.0
C744 C 0.09549 0.57343 0.04322 0.0
C745 C 0.08603 0.55571 0.95198 0.0
O746 O 0.93591 0.55689 0.0618 0.0
O747 O 0.98621 0.60554 0.07805 0.0
O748 O 0.96489 0.56207 0.98633 0.0
O749 O 1.0158 0.61148 0.99917 0.0
O750 O 0.07924 0.59684 0.04897 0.0
O751 O 0.08035 0.53908 0.02994 0.0
C752 C 0.96839 0.45943 0.05797 0.0
O753 O 0.99996 0.46677 0.04272 0.0
O754 O 0.94677 0.47461 0.05354 0.0
O755 O 0.11718 0.45524 0.9496 0.0
O756 O 0.06401 0.40548 0.94495 0.0
O757 O 0.09439 0.45843 0.02607 0.0
C758 C 0.09813 0.42161 0.93669 0.0
O759 O 0.04007 0.41118 0.02615 0.0
O760 O 0.97382 0.41779 0.97118 0.0
C761 C 0.0712 0.42866 0.03705 0.0
O762 O 0.97566 0.47763 0.98079 0.0
O763 O 0.05534 0.5497 0.96858 0.0
O764 O 0.1073 0.53967 0.95544 0.0
C765 C 0.42504 0.56269 0.02241 0.0
C766 C 0.49308 0.56222 0.94225 0.0
C767 C 0.48669 0.43186 0.95643 0.0
Mg768 Mg 0.50804 0.58019 0.0107 0.0
O769 O 0.4902 0.53025 0.01852 0.0
Mg770 Mg 0.45186 0.49341 0.99065 0.0
Mg771 Mg 0.52731 0.50723 0.0084 0.0
O772 O 0.56324 0.48348 0.99798 0.0
Mg773 Mg 0.54517 0.43105 0.99722 0.0
Mg774 Mg 0.59878 0.51725 0.0294 0.0
C775 C 0.56923 0.58527 0.05257 0.0
C776 C 0.60138 0.56264 0.97082 0.0
O777 O 0.41633 0.52733 0.01237 0.0
O778 O 0.45788 0.58629 0.02467 0.0
O779 O 0.46959 0.53126 0.95075 0.0
O780 O 0.51612 0.58564 0.96092 0.0
O781 O 0.55274 0.60122 0.04029 0.0
O782 O 0.56065 0.54924 0.04746 0.0
C783 C 0.45591 0.45093 0.0487 0.0
O784 O 0.49069 0.46538 0.04366 0.0
O785 O 0.43537 0.45762 0.03244 0.0
O786 O 0.63415 0.4827 0.00859 0.0
O787 O 0.59631 0.42697 0.98452 0.0
O788 O 0.57585 0.47565 0.06708 0.0
C789 C 0.62762 0.4495 0.99323 0.0
O790 O 0.53677 0.41996 0.04581 0.0
O791 O 0.5029 0.41183 0.96304 0.0
C792 C 0.55455 0.44118 0.06908 0.0
O793 O 0.49315 0.46551 0.97058 0.0
O794 O 0.56633 0.54925 0.97228 0.0
O795 O 0.61796 0.55438 0.98994 0.0
C796 C 0.94804 0.58515 0.57621 0.0
C797 C 0.97743 0.58068 0.47584 0.0
C798 C 0.95844 0.43728 0.47001 0.0
Mg799 Mg 1.01938 0.58883 0.53177 0.0
O800 O 0.9985 0.53667 0.53446 0.0
Mg801 Mg 0.94781 0.50942 0.52142 0.0
Mg802 Mg 0.02377 0.50575 0.50592 0.0
O803 O 0.04987 0.47542 0.47699 0.0
Mg804 Mg 0.03146 0.42246 0.47407 0.0
Mg805 Mg 0.09984 0.50345 0.49174 0.0
C806 C 0.08954 0.57394 0.54196 0.0
C807 C 0.08099 0.55819 0.45395 0.0
O808 O 0.93012 0.55142 0.56279 0.0
O809 O 0.98184 0.60299 0.56799 0.0
O810 O 0.95493 0.55048 0.48658 0.0
O811 O 1.00811 0.59951 0.48711 0.0
O812 O 0.07371 0.59718 0.5431 0.0
O813 O 0.07477 0.53884 0.5308 0.0
C814 C 0.96684 0.45455 0.55891 0.0
O815 O 0.99802 0.46262 0.54268 0.0
O816 O 0.94441 0.46927 0.55563 0.0
O817 O 0.11976 0.46498 0.45024 0.0
O818 O 0.07175 0.41133 0.43781 0.0
O819 O 0.09174 0.46107 0.52665 0.0
C820 C 0.1056 0.43235 0.43367 0.0
O821 O 0.04187 0.40907 0.51744 0.0
O822 O 0.97619 0.41532 0.46573 0.0
C823 C 0.06927 0.42859 0.53331 0.0
O824 O 0.97214 0.47238 0.48172 0.0
O825 O 0.04933 0.5489 0.46932 0.0
O826 O 0.10396 0.54449 0.45793 0.0
C827 C 0.44997 0.09409 0.56783 0.0
C828 C 0.49036 0.08875 0.46771 0.0
C829 C 0.46234 0.94201 0.46925 0.0
Mg830 Mg 0.52472 0.09784 0.53069 0.0
O831 O 0.50151 0.04489 0.53117 0.0
Mg832 Mg 0.45281 0.01836 0.51396 0.0
Mg833 Mg 0.52573 0.00982 0.50853 0.0
O834 O 0.55089 0.97564 0.4849 0.0
Mg835 Mg 0.53044 0.92264 0.48354 0.0
Mg836 Mg 0.60038 1.00385 0.50015 0.0
C837 C 0.59013 0.07712 0.54789 0.0
C838 C 0.58736 0.05601 0.45578 0.0
O839 O 0.43398 0.06186 0.55126 0.0
O840 O 0.48458 0.11198 0.56496 0.0
O841 O 0.46718 0.05763 0.47635 0.0
O842 O 0.5174 0.10941 0.48393 0.0
O843 O 0.5763 0.10191 0.54776 0.0
O844 O 0.57499 0.04262 0.53546 0.0
C845 C 0.46212 0.96746 0.56179 0.0
O846 O 0.49461 0.97208 0.54944 0.0
O847 O 0.44285 0.98149 0.5513 0.0
O848 O 0.62015 0.96133 0.4635 0.0
O849 O 0.57144 0.90972 0.44859 0.0
O850 O 0.58855 0.96449 0.53733 0.0
C851 C 0.60589 0.92895 0.44661 0.0
O852 O 0.53932 0.91155 0.53008 0.0
O853 O 0.47752 0.91822 0.46912 0.0
C854 C 0.5665 0.93287 0.54596 0.0
O855 O 0.47703 0.97704 0.48085 0.0
O856 O 0.55532 0.04847 0.46986 0.0
O857 O 0.60906 0.04227 0.46253 0.0
H858 H 0.16384 0.18981 0.32255 0.0
H859 H 0.26182 0.16621 0.31487 0.0
H860 H 0.23647 0.12833 0.3587 0.0
H861 H 0.14751 0.19644 0.40798 0.0
H862 H 0.09882 0.17214 0.40946 0.0
H863 H 0.12324 0.19735 0.37619 0.0
H864 H 0.09585 0.13664 0.33676 0.0
H865 H 0.07109 0.11125 0.36986 0.0
H866 H 0.10098 0.09406 0.3418 0.0
H867 H 0.20513 0.09723 0.40435 0.0
H868 H 0.1651 0.06711 0.44871 0.0
H869 H 0.0824 0.10393 0.42912 0.0
C870 C 0.17957 0.1761 0.32983 0.0
C871 C 0.21519 0.18156 0.31517 0.0
C872 C 0.23483 0.16317 0.32562 0.0
C873 C 0.22063 0.14138 0.35065 0.0
C874 C 0.18621 0.13727 0.36503 0.0
C875 C 0.16539 0.15335 0.35496 0.0
C876 C 0.12894 0.1435 0.37537 0.0
C877 C 0.12436 0.1795 0.39332 0.0
C878 C 0.09734 0.11997 0.35472 0.0
C879 C 0.13315 0.11991 0.39848 0.0
C880 C 0.16676 0.11731 0.39178 0.0
C881 C 0.17856 0.09869 0.40974 0.0
C882 C 0.15547 0.08182 0.4352 0.0
C883 C 0.1204 0.08308 0.44284 0.0
C884 C 0.10891 0.10228 0.42394 0.0
H885 H 0.873 0.15419 0.39054 0.0
H886 H 0.85745 0.07658 0.30252 0.0
H887 H 0.90348 0.05494 0.31506 0.0
H888 H 0.9714 0.17968 0.38865 0.0
H889 H 0.96986 0.18215 0.43139 0.0
H890 H 0.93751 0.19311 0.4144 0.0
H891 H 0.88393 0.14233 0.44351 0.0
H892 H 0.91654 0.13276 0.46112 0.0
H893 H 0.88258 0.09481 0.43874 0.0
H894 H 0.94399 0.03557 0.34143 0.0
H895 H 0.97713 0.02162 0.37867 0.0
H896 H 0.97126 0.1169 0.44607 0.0
C897 C 0.87948 0.13275 0.3739 0.0
C898 C 0.86164 0.11665 0.34579 0.0
C899 C 0.87094 0.08906 0.32424 0.0
C900 C 0.89707 0.07678 0.3311 0.0
C901 C 0.91412 0.09311 0.35919 0.0
C902 C 0.90591 0.12077 0.38007 0.0
C903 C 0.92689 0.13272 0.40923 0.0
C904 C 0.95297 0.17439 0.41099 0.0
C905 C 0.90091 0.12515 0.43993 0.0
C906 C 0.94745 0.10667 0.402 0.0
C907 C 0.93972 0.08395 0.37306 0.0
C908 C 0.9514 0.05406 0.36356 0.0
C909 C 0.97042 0.04648 0.38466 0.0
C910 C 0.97813 0.06923 0.41448 0.0
C911 C 0.96757 0.10042 0.42263 0.0
H912 H 0.82367 0.84303 0.34657 0.0
H913 H 0.88686 0.79002 0.27958 0.0
H914 H 0.93841 0.82076 0.31311 0.0
H915 H 0.89704 0.93197 0.37066 0.0
H916 H 0.87999 0.93403 0.41224 0.0
H917 H 0.84894 0.91042 0.38181 0.0
H918 H 0.8237 0.84969 0.40907 0.0
H919 H 0.85483 0.87265 0.43949 0.0
H920 H 0.85434 0.82906 0.4161 0.0
H921 H 0.98108 0.85323 0.35441 0.0
H922 H 1.01431 0.88708 0.40157 0.0
H923 H 0.92428 0.91947 0.44381 0.0
C924 C 0.84857 0.83839 0.33896 0.0
C925 C 0.85161 0.81432 0.31062 0.0
C926 C 0.88423 0.8083 0.30135 0.0
C927 C 0.91355 0.82567 0.32017 0.0
C928 C 0.90955 0.84853 0.3484 0.0
C929 C 0.87794 0.85492 0.35794 0.0
C930 C 0.8802 0.87873 0.39053 0.0
C931 C 0.87632 0.91601 0.38868 0.0
C932 C 0.85157 0.8562 0.41526 0.0
C933 C 0.91837 0.88541 0.3974 0.0
C934 C 0.93448 0.86736 0.37275 0.0
C935 C 0.96888 0.86763 0.37381 0.0
C936 C 0.98744 0.88675 0.40079 0.0
C937 C 0.97188 0.9058 0.42632 0.0
C938 C 0.93695 0.90543 0.42449 0.0
H939 H 0.15507 0.79381 0.41128 0.0
H940 H 0.20844 0.86574 0.33719 0.0
H941 H 0.23359 0.91955 0.37742 0.0
H942 H 0.11742 0.84446 0.4521 0.0
H943 H 0.12186 0.83895 0.49217 0.0
H944 H 0.12421 0.80376 0.45992 0.0
H945 H 0.1871 0.81209 0.47501 0.0
H946 H 0.18488 0.84812 0.50744 0.0
H947 H 0.22331 0.85817 0.47781 0.0
H948 H 0.2315 0.96724 0.41994 0.0
H949 H 0.19741 1.00002 0.45705 0.0
H950 H 0.14635 0.90282 0.50776 0.0
C951 C 0.17316 0.82072 0.40379 0.0
C952 C 0.17987 0.82538 0.37122 0.0
C953 C 0.20356 0.86093 0.36198 0.0
C954 C 0.2182 0.89193 0.38483 0.0
C955 C 0.20882 0.88728 0.417 0.0
C956 C 0.18723 0.85224 0.42656 0.0
C957 C 0.17344 0.85615 0.46144 0.0
C958 C 0.13182 0.83468 0.46663 0.0
C959 C 0.19339 0.84284 0.48161 0.0
C960 C 0.18488 0.89866 0.46806 0.0
C961 C 0.20768 0.91639 0.44299 0.0
C962 C 0.21499 0.95412 0.4403 0.0
C963 C 0.19573 0.97282 0.46158 0.0
C964 C 0.16978 0.95349 0.48492 0.0
C965 C 0.16699 0.91781 0.49021 0.0
H966 H 0.16573 0.94987 0.71137 0.0
H967 H 0.15879 0.83727 0.66914 0.0
H968 H 0.11121 0.83232 0.63658 0.0
H969 H 0.07019 0.9369 0.7068 0.0
H970 H 0.08399 0.98347 0.69553 0.0
H971 H 0.11063 0.9745 0.72106 0.0
H972 H 0.16789 0.99941 0.68159 0.0
H973 H 0.14141 0.00831 0.65623 0.0
H974 H 0.16646 0.97879 0.64018 0.0
H975 H 0.06926 0.8424 0.60445 0.0
H976 H 0.04487 0.86906 0.56985 0.0
H977 H 0.08609 0.97838 0.62796 0.0
C978 C 0.15417 0.92393 0.69553 0.0
C979 C 0.16618 0.89397 0.69314 0.0
C980 C 0.14967 0.86042 0.67221 0.0
C981 C 0.12257 0.85734 0.65347 0.0
C982 C 0.11235 0.88805 0.65579 0.0
C983 C 0.12799 0.92081 0.67608 0.0
C984 C 0.11679 0.95187 0.67071 0.0
C985 C 0.09404 0.9623 0.70029 0.0
C986 C 0.15018 0.98661 0.66162 0.0
C987 C 0.09377 0.93224 0.64301 0.0
C988 C 0.09027 0.89492 0.63569 0.0
C989 C 0.07157 0.87146 0.61015 0.0
C990 C 0.05762 0.88697 0.59068 0.0
C991 C 0.06356 0.926 0.5961 0.0
C992 C 0.08071 0.94844 0.62338 0.0
H993 H 0.21628 0.15032 0.67581 0.0
H994 H 0.16919 0.23125 0.72262 0.0
H995 H 0.12122 0.20474 0.68601 0.0
H996 H 0.20078 0.15348 0.59709 0.0
H997 H 0.18891 0.10382 0.58334 0.0
H998 H 0.21863 0.1265 0.61486 0.0
H999 H 0.17571 0.07792 0.65187 0.0
H1000 H 0.14599 0.05474 0.62033 0.0
H1001 H 0.12833 0.07101 0.65893 0.0
H1002 H 0.0823 0.17523 0.64258 0.0
H1003 H 0.04884 0.13852 0.59652 0.0
H1004 H 0.11732 0.0732 0.57664 0.0
C1005 C 0.19524 0.16162 0.67876 0.0
C1006 C 0.19646 0.19284 0.70207 0.0
C1007 C 0.16895 0.20749 0.70486 0.0
C1008 C 0.14151 0.19264 0.68417 0.0
C1009 C 0.14166 0.1629 0.66077 0.0
C1010 C 0.16731 0.14703 0.65803 0.0
C1011 C 0.16125 0.11593 0.62971 0.0
C1012 C 0.19436 0.12551 0.60477 0.0
C1013 C 0.15228 0.07763 0.64088 0.0
C1014 C 0.12845 0.11718 0.61708 0.0
C1015 C 0.11805 0.14484 0.63543 0.0
C1016 C 0.0898 0.15311 0.6282 0.0
C1017 C 0.07111 0.13219 0.60174 0.0
C1018 C 0.08028 0.10285 0.58281 0.0
C1019 C 0.10943 0.09521 0.59068 0.0
H1020 H 0.88775 0.21341 0.5994 0.0
H1021 H 0.84689 0.14949 0.67996 0.0
H1022 H 0.82426 0.09097 0.6437 0.0
H1023 H 0.81793 0.13728 0.5397 0.0
H1024 H 0.85387 0.14717 0.50773 0.0
H1025 H 0.85103 0.18477 0.53826 0.0
H1026 H 0.91729 0.20131 0.55014 0.0
H1027 H 0.92024 0.16461 0.51961 0.0
H1028 H 0.9295 0.16477 0.55969 0.0
H1029 H 0.82658 0.04076 0.60305 0.0
H1030 H 0.85907 0.00748 0.5643 0.0
H1031 H 0.89906 0.09971 0.50779 0.0
C1032 C 0.87293 0.18711 0.60923 0.0
C1033 C 0.8691 0.18624 0.64242 0.0
C1034 C 0.84959 0.15133 0.65463 0.0
C1035 C 0.83635 0.11765 0.6341 0.0
C1036 C 0.84271 0.11902 0.60129 0.0
C1037 C 0.86015 0.15305 0.58884 0.0
C1038 C 0.87143 0.14666 0.55357 0.0
C1039 C 0.8471 0.15443 0.53364 0.0
C1040 C 0.91199 0.17066 0.54535 0.0
C1041 C 0.86345 0.10476 0.54968 0.0
C1042 C 0.84435 0.08872 0.57674 0.0
C1043 C 0.84016 0.05242 0.58123 0.0
C1044 C 0.85851 0.03347 0.55905 0.0
C1045 C 0.88085 0.05131 0.53323 0.0
C1046 C 0.88097 0.08562 0.52709 0.0
H1047 H 0.80795 0.84974 0.68612 0.0
H1048 H 0.87892 0.79443 0.69781 0.0
H1049 H 0.92025 0.82238 0.65274 0.0
H1050 H 0.81993 0.84435 0.60045 0.0
H1051 H 0.82231 0.89141 0.59943 0.0
H1052 H 0.7969 0.86603 0.63232 0.0
H1053 H 0.83476 0.92118 0.67235 0.0
H1054 H 0.86023 0.94679 0.63957 0.0
H1055 H 0.8836 0.93722 0.66766 0.0
H1056 H 0.95405 0.85538 0.60661 0.0
H1057 H 0.9798 0.89432 0.56273 0.0
H1058 H 0.89076 0.93285 0.58119 0.0
C1059 C 0.83212 0.8435 0.67902 0.0
C1060 C 0.83991 0.81931 0.69532 0.0
C1061 C 0.87214 0.8124 0.68564 0.0
C1062 C 0.8959 0.82824 0.65999 0.0
C1063 C 0.88763 0.85185 0.64443 0.0
C1064 C 0.85689 0.86002 0.65369 0.0
C1065 C 0.85593 0.88812 0.6336 0.0
C1066 C 0.82172 0.87146 0.61536 0.0
C1067 C 0.85878 0.92554 0.65454 0.0
C1068 C 0.89014 0.89317 0.61104 0.0
C1069 C 0.90805 0.87213 0.61804 0.0
C1070 C 0.94048 0.87231 0.60107 0.0
C1071 C 0.95526 0.89491 0.57641 0.0
C1072 C 0.9379 0.9172 0.56893 0.0
C1073 C 0.90462 0.91596 0.58631 0.0
H1074 H 0.30148 0.17918 0.16293 0.0
H1075 H 0.35874 0.20419 0.24751 0.0
H1076 H 0.39762 0.17141 0.21909 0.0
H1077 H 0.30439 0.08429 0.13686 0.0
H1078 H 0.31156 0.08961 0.09497 0.0
H1079 H 0.2867 0.11368 0.12231 0.0
H1080 H 0.33098 0.17735 0.10373 0.0
H1081 H 0.35624 0.15346 0.07668 0.0
H1082 H 0.37904 0.19186 0.10619 0.0
H1083 H 0.43314 0.14013 0.18163 0.0
H1084 H 0.46223 0.10903 0.13708 0.0
H1085 H 0.38193 0.09975 0.07561 0.0
C1086 C 0.32164 0.17712 0.17561 0.0
C1087 C 0.32696 0.19468 0.20764 0.0
C1088 C 0.35432 0.19166 0.22299 0.0
C1089 C 0.37652 0.17283 0.20704 0.0
C1090 C 0.37116 0.15657 0.1755 0.0
C1091 C 0.34429 0.15812 0.15984 0.0
C1092 C 0.34545 0.13881 0.12544 0.0
C1093 C 0.30991 0.10455 0.11955 0.0
C1094 C 0.3534 0.16706 0.1016 0.0
C1095 C 0.37715 0.12641 0.12443 0.0
C1096 C 0.39149 0.13726 0.15369 0.0
C1097 C 0.42187 0.13098 0.15873 0.0
C1098 C 0.43822 0.11326 0.13328 0.0
C1099 C 0.42406 0.1013 0.10308 0.0
C1100 C 0.39284 0.10775 0.09867 0.0
H1101 H 0.8511 0.36855 0.21058 0.0
H1102 H 0.84642 0.26062 0.15792 0.0
H1103 H 0.89147 0.29327 0.11654 0.0
H1104 H 0.85141 0.40776 0.14239 0.0
H1105 H 0.88107 0.45506 0.15656 0.0
H1106 H 0.85284 0.4236 0.1847 0.0
H1107 H 0.90997 0.43367 0.21192 0.0
H1108 H 0.93846 0.46488 0.18354 0.0
H1109 H 0.94724 0.42426 0.18831 0.0
H1110 H 0.9358 0.33711 0.08002 0.0
H1111 H 0.9675 0.38825 0.0461 0.0
H1112 H 0.93806 0.4668 0.11889 0.0
C1113 C 0.85987 0.35182 0.19054 0.0
C1114 C 0.84642 0.31203 0.18828 0.0
C1115 C 0.85761 0.29116 0.16105 0.0
C1116 C 0.88315 0.30946 0.13728 0.0
C1117 C 0.89654 0.34869 0.14056 0.0
C1118 C 0.8847 0.36962 0.16609 0.0
C1119 C 0.90008 0.41107 0.1619 0.0
C1120 C 0.86953 0.42518 0.16134 0.0
C1121 C 0.92544 0.43487 0.18798 0.0
C1122 C 0.9213 0.40985 0.12952 0.0
C1123 C 0.91998 0.37381 0.11819 0.0
C1124 C 0.93719 0.3655 0.08863 0.0
C1125 C 0.95531 0.39465 0.06966 0.0
C1126 C 0.95521 0.43114 0.08015 0.0
C1127 C 0.93853 0.43899 0.11058 0.0
H1128 H 0.70596 0.93686 0.16417 0.0
H1129 H 0.6417 0.8181 0.16926 0.0
H1130 H 0.59859 0.8201 0.13441 0.0
H1131 H 0.63428 0.96773 0.16553 0.0
H1132 H 0.65721 1.00029 0.13673 0.0
H1133 H 0.68321 0.98931 0.16138 0.0
H1134 H 0.71883 0.96847 0.111 0.0
H1135 H 0.69347 0.98021 0.08625 0.0
H1136 H 0.69424 0.93348 0.08015 0.0
H1137 H 0.56083 0.83675 0.10116 0.0
H1138 H 0.53636 0.86377 0.06633 0.0
H1139 H 0.62712 0.97119 0.08208 0.0
C1140 C 0.68295 0.91124 0.15763 0.0
C1141 C 0.67686 0.87735 0.16936 0.0
C1142 C 0.64674 0.84425 0.1603 0.0
C1143 C 0.62208 0.84524 0.14075 0.0
C1144 C 0.62835 0.87943 0.13017 0.0
C1145 C 0.65852 0.91161 0.13777 0.0
C1146 C 0.65983 0.94449 0.12259 0.0
C1147 C 0.65854 0.97739 0.1481 0.0
C1148 C 0.69359 0.9574 0.09857 0.0
C1149 C 0.62527 0.9261 0.10578 0.0
C1150 C 0.60732 0.88865 0.11053 0.0
C1151 C 0.57479 0.86601 0.09717 0.0
C1152 C 0.56092 0.88171 0.07761 0.0
C1153 C 0.57969 0.91966 0.0714 0.0
C1154 C 0.61192 0.94214 0.08632 0.0
H1155 H 0.19262 0.64138 0.20021 0.0
H1156 H 0.28651 0.71621 0.14799 0.0
H1157 H 0.25986 0.6837 0.09689 0.0
H1158 H 0.17987 0.55547 0.13754 0.0
H1159 H 0.1312 0.53864 0.14583 0.0
H1160 H 0.1602 0.56474 0.17738 0.0
H1161 H 0.12847 0.61257 0.18892 0.0
H1162 H 0.09958 0.58681 0.15751 0.0
H1163 H 0.12689 0.6364 0.15695 0.0
H1164 H 0.21655 0.65152 0.0534 0.0
H1165 H 0.16369 0.61833 0.02113 0.0
H1166 H 0.1017 0.55958 0.10084 0.0
C1167 C 0.2079 0.65007 0.17786 0.0
C1168 C 0.24143 0.68107 0.17772 0.0
C1169 C 0.26089 0.6921 0.14831 0.0
C1170 C 0.24591 0.67386 0.11927 0.0
C1171 C 0.21216 0.6438 0.12016 0.0
C1172 C 0.19394 0.6313 0.14872 0.0
C1173 C 0.15752 0.59948 0.14349 0.0
C1174 C 0.15719 0.56238 0.15154 0.0
C1175 C 0.1263 0.60945 0.16284 0.0
C1176 C 0.15677 0.59783 0.1079 0.0
C1177 C 0.18864 0.62333 0.0947 0.0
C1178 C 0.19213 0.63034 0.06312 0.0
C1179 C 0.16215 0.6113 0.04488 0.0
C1180 C 0.1295 0.58525 0.05817 0.0
C1181 C 0.12713 0.57793 0.08975 0.0
H1182 H 0.3354 0.7896 0.84728 0.0
H1183 H 0.33782 0.88414 0.80492 0.0
H1184 H 0.36555 0.92771 0.85214 0.0
H1185 H 0.31703 0.82486 0.93078 0.0
H1186 H 0.34619 0.80683 0.94475 0.0
H1187 H 0.32287 0.78299 0.90946 0.0
H1188 H 0.38415 0.78877 0.87668 0.0
H1189 H 0.40751 0.81197 0.91188 0.0
H1190 H 0.42048 0.83463 0.87613 0.0
H1191 H 0.39638 0.96088 0.90247 0.0
H1192 H 0.43529 0.98189 0.94694 0.0
H1193 H 0.41337 0.86512 0.95513 0.0
C1194 C 0.34149 0.81943 0.84785 0.0
C1195 C 0.33413 0.83346 0.82252 0.0
C1196 C 0.34288 0.87275 0.82425 0.0
C1197 C 0.35838 0.89762 0.85104 0.0
C1198 C 0.36484 0.88263 0.87578 0.0
C1199 C 0.35697 0.84446 0.87418 0.0
C1200 C 0.36948 0.83563 0.9023 0.0
C1201 C 0.33695 0.81113 0.92305 0.0
C1202 C 0.39705 0.81666 0.89107 0.0
C1203 C 0.38706 0.87506 0.91946 0.0
C1204 C 0.38324 0.90171 0.90431 0.0
C1205 C 0.39917 0.94024 0.91472 0.0
C1206 C 0.42102 0.9519 0.94025 0.0
C1207 C 0.42726 0.92513 0.95465 0.0
C1208 C 0.40882 0.88622 0.94486 0.0
H1209 H 0.25358 0.36384 0.82086 0.0
H1210 H 0.16948 0.25142 0.80672 0.0
H1211 H 0.12549 0.27405 0.84087 0.0
H1212 H 0.22329 0.38263 0.90511 0.0
H1213 H 0.2341 0.43212 0.90435 0.0
H1214 H 0.25953 0.40822 0.8775 0.0
H1215 H 0.24374 0.42867 0.82881 0.0
H1216 H 0.21913 0.45322 0.856 0.0
H1217 H 0.19677 0.41816 0.82424 0.0
H1218 H 0.08988 0.30767 0.87407 0.0
H1219 H 0.06445 0.34884 0.91027 0.0
H1220 H 0.17061 0.44101 0.90866 0.0
C1221 C 0.2258 0.34421 0.82485 0.0
C1222 C 0.21488 0.3058 0.81078 0.0
C1223 C 0.17852 0.28083 0.81711 0.0
C1224 C 0.15324 0.29348 0.83642 0.0
C1225 C 0.16462 0.33125 0.84986 0.0
C1226 C 0.20006 0.35629 0.84491 0.0
C1227 C 0.20494 0.39488 0.86413 0.0
C1228 C 0.23208 0.40506 0.88927 0.0
C1229 C 0.21688 0.42555 0.84195 0.0
C1230 C 0.1665 0.3876 0.87996 0.0
C1231 C 0.14395 0.35064 0.87095 0.0
C1232 C 0.10728 0.33661 0.88152 0.0
C1233 C 0.09307 0.36058 0.90221 0.0
C1234 C 0.11525 0.39859 0.9128 0.0
C1235 C 0.15271 0.41227 0.90123 0.0
H1236 H 0.69356 0.23056 0.85932 0.0
H1237 H 0.70741 0.15172 0.77802 0.0
H1238 H 0.66642 0.09812 0.80654 0.0
H1239 H 0.69169 0.18069 0.92027 0.0
H1240 H 0.65609 0.19093 0.94616 0.0
H1241 H 0.68434 0.22308 0.9185 0.0
H1242 H 0.62743 0.21712 0.89204 0.0
H1243 H 0.59981 0.18754 0.92186 0.0
H1244 H 0.5947 0.17101 0.87993 0.0
H1245 H 0.62715 0.05352 0.84474 0.0
H1246 H 0.59416 0.02026 0.89107 0.0
H1247 H 0.60306 0.12706 0.94798 0.0
C1248 C 0.68749 0.20194 0.84755 0.0
C1249 C 0.70345 0.19495 0.81652 0.0
C1250 C 0.69523 0.15738 0.80174 0.0
C1251 C 0.67192 0.12685 0.81773 0.0
C1252 C 0.65642 0.13448 0.84832 0.0
C1253 C 0.66364 0.17104 0.86306 0.0
C1254 C 0.64379 0.17118 0.89629 0.0
C1255 C 0.67058 0.19273 0.92181 0.0
C1256 C 0.61467 0.18769 0.89768 0.0
C1257 C 0.62622 0.12911 0.89875 0.0
C1258 C 0.63319 0.10851 0.87039 0.0
C1259 C 0.62104 0.06928 0.86686 0.0
C1260 C 0.60212 0.05061 0.89321 0.0
C1261 C 0.59532 0.07103 0.92269 0.0
C1262 C 0.60694 0.11076 0.92537 0.0
H1263 H 0.89539 0.63556 0.84814 0.0
H1264 H 0.92762 0.75118 0.89494 0.0
H1265 H 0.95529 0.73539 0.93541 0.0
H1266 H 0.87439 0.58966 0.91976 0.0
H1267 H 0.89252 0.55461 0.90119 0.0
H1268 H 0.87365 0.57485 0.87727 0.0
H1269 H 0.934 0.59472 0.84082 0.0
H1270 H 0.95326 0.57506 0.86493 0.0
H1271 H 0.97593 0.62384 0.85827 0.0
H1272 H 0.98456 0.70872 0.96725 0.0
H1273 H 1.00533 0.67076 0.99397 0.0
H1274 H 0.95211 0.57144 0.92781 0.0
C1275 C 0.90798 0.6575 0.86709 0.0
C1276 C 0.9095 0.69469 0.86833 0.0
C1277 C 0.92586 0.72246 0.89367 0.0
C1278 C 0.94194 0.71383 0.91656 0.0
C1279 C 0.94115 0.67726 0.91386 0.0
C1280 C 0.92402 0.64935 0.89012 0.0
C1281 C 0.92735 0.6124 0.89234 0.0
C1282 C 0.88974 0.58103 0.898 0.0
C1283 C 0.94891 0.60083 0.86231 0.0
C1284 C 0.94872 0.62375 0.92133 0.0
C1285 C 0.95701 0.6615 0.93292 0.0
C1286 C 0.97796 0.67908 0.95858 0.0
C1287 C 0.98997 0.65731 0.97337 0.0
C1288 C 0.98051 0.61817 0.96286 0.0
C1289 C 0.95977 0.60128 0.93633 0.0
H1290 H 0.06317 0.30519 0.17205 0.0
H1291 H 0.17265 0.31487 0.13362 0.0
H1292 H 0.17345 0.35773 0.09762 0.0
H1293 H 0.03216 0.29716 0.09614 0.0
H1294 H 1.00299 0.32265 0.11134 0.0
H1295 H 1.01286 0.29666 0.1371 0.0
H1296 H 0.03595 0.35737 0.17749 0.0
H1297 H 0.02664 0.38367 0.15158 0.0
H1298 H 0.07159 0.39925 0.16433 0.0
H1299 H 0.16254 0.39866 0.06492 0.0
H1300 H 0.13898 0.43009 0.03394 0.0
H1301 H 0.03325 0.38686 0.08721 0.0
C1302 C 0.08737 0.3156 0.15595 0.0
C1303 C 0.11793 0.30605 0.15636 0.0
C1304 C 0.14906 0.32193 0.135 0.0
C1305 C 0.14973 0.34624 0.11402 0.0
C1306 C 0.11889 0.3541 0.11398 0.0
C1307 C 0.08811 0.3389 0.13407 0.0
C1308 C 0.05766 0.34975 0.12762 0.0
C1309 C 0.02445 0.31445 0.11742 0.0
C1310 C 0.04736 0.37395 0.157 0.0
C1311 C 0.07597 0.37288 0.10021 0.0
C1312 C 0.11162 0.37575 0.09344 0.0
C1313 C 0.13467 0.39647 0.06991 0.0
C1314 C 0.12098 0.41439 0.05254 0.0
C1315 C 0.08426 0.41102 0.05811 0.0
C1316 C 0.06138 0.38985 0.08232 0.0
H1317 H 0.19865 0.64455 0.79685 0.0
H1318 H 0.22545 0.75283 0.85672 0.0
H1319 H 0.18032 0.72267 0.89927 0.0
H1320 H 0.1017 0.60343 0.825 0.0
H1321 H 0.10183 0.55718 0.82515 0.0
H1322 H 0.13257 0.58751 0.79707 0.0
H1323 H 0.18775 0.58267 0.81774 0.0
H1324 H 0.15673 0.5512 0.8447 0.0
H1325 H 0.19288 0.59325 0.86018 0.0
H1326 H 0.13362 0.68131 0.93588 0.0
H1327 H 0.09783 0.62967 0.96844 0.0
H1328 H 0.10665 0.54724 0.88816 0.0
C1329 C 0.19485 0.66182 0.81889 0.0
C1330 C 0.21442 0.7013 0.823 0.0
C1331 C 0.2095 0.72282 0.85249 0.0
C1332 C 0.18397 0.70594 0.87687 0.0
C1333 C 0.1642 0.66721 0.87177 0.0
C1334 C 0.16998 0.64518 0.84391 0.0
C1335 C 0.14807 0.60361 0.84619 0.0
C1336 C 0.11933 0.58696 0.82191 0.0
C1337 C 0.17288 0.58139 0.84193 0.0
C1338 C 0.13052 0.60576 0.88012 0.0
C1339 C 0.13902 0.64283 0.89394 0.0
C1340 C 0.12665 0.65214 0.92535 0.0
C1341 C 0.10626 0.62276 0.94358 0.0
C1342 C 0.09955 0.58485 0.93055 0.0
C1343 C 0.1112 0.57616 0.89834 0.0
H1344 H 0.32837 0.06326 0.86429 0.0
H1345 H 0.36757 0.18577 0.87858 0.0
H1346 H 0.41996 0.18877 0.9039 0.0
H1347 H 0.34724 0.05266 0.93796 0.0
H1348 H 0.36099 0.0135 0.92301 0.0
H1349 H 0.32959 0.02163 0.90245 0.0
H1350 H 0.37216 0.02402 0.85019 0.0
H1351 H 0.40401 0.01637 0.87077 0.0
H1352 H 0.41876 0.05696 0.84976 0.0
H1353 H 0.46509 0.17818 0.9323 0.0
H1354 H 0.49616 0.15481 0.96417 0.0
H1355 H 0.42662 0.03943 0.932 0.0
C1356 C 0.34802 0.09075 0.87261 0.0
C1357 C 0.34377 0.12424 0.86935 0.0
C1358 C 0.37042 0.15966 0.88032 0.0
C1359 C 0.40031 0.16168 0.89479 0.0
C1360 C 0.4034 0.12807 0.89793 0.0
C1361 C 0.37795 0.09327 0.88711 0.0
C1362 C 0.38608 0.06129 0.89523 0.0
C1363 C 0.35409 0.03581 0.91591 0.0
C1364 C 0.39584 0.03831 0.86467 0.0
C1365 C 0.41894 0.08351 0.91385 0.0
C1366 C 0.42914 0.12198 0.91446 0.0
C1367 C 0.45764 0.1481 0.93164 0.0
C1368 C 0.4753 0.13457 0.94955 0.0
C1369 C 0.46398 0.0953 0.95053 0.0
C1370 C 0.43616 0.06961 0.93159 0.0
H1371 H 0.8616 0.37275 0.81274 0.0
H1372 H 0.76447 0.30558 0.86685 0.0
H1373 H 0.79301 0.33695 0.9173 0.0
H1374 H 0.9244 0.37009 0.85714 0.0
H1375 H 0.95604 0.4181 0.85507 0.0
H1376 H 0.92623 0.3939 0.82397 0.0
H1377 H 0.90158 0.44743 0.83312 0.0
H1378 H 0.93155 0.47201 0.86424 0.0
H1379 H 0.8834 0.46062 0.87257 0.0
H1380 H 0.83677 0.3679 0.96071 0.0
H1381 H 0.88953 0.39995 0.99331 0.0
H1382 H 0.95582 0.45085 0.91137 0.0
C1383 C 0.84606 0.36555 0.83533 0.0
C1384 C 0.81072 0.33728 0.83614 0.0
C1385 C 0.79124 0.32794 0.86594 0.0
C1386 C 0.80737 0.34541 0.89464 0.0
C1387 C 0.84267 0.37279 0.89307 0.0
C1388 C 0.86144 0.3834 0.86415 0.0
C1389 C 0.89952 0.4123 0.8687 0.0
C1390 C 0.92822 0.3977 0.85014 0.0
C1391 C 0.90428 0.45034 0.85909 0.0
C1392 C 0.89997 0.41503 0.90449 0.0
C1393 C 0.86693 0.39214 0.91824 0.0
C1394 C 0.86231 0.38691 0.95041 0.0
C1395 C 0.89227 0.40524 0.9688 0.0
C1396 C 0.92605 0.42891 0.95505 0.0
C1397 C 0.92971 0.4342 0.92269 0.0
H1398 H 0.74425 0.86428 0.81529 0.0
H1399 H 0.67037 0.74831 0.82306 0.0
H1400 H 0.63096 0.77071 0.86373 0.0
H1401 H 0.73419 0.9033 0.89874 0.0
H1402 H 0.73331 0.94668 0.89041 0.0
H1403 H 0.75756 0.92256 0.86237 0.0
H1404 H 0.72055 0.92029 0.81737 0.0
H1405 H 0.6962 0.94467 0.84508 0.0
H1406 H 0.67163 0.89985 0.82272 0.0
H1407 H 0.59911 0.8035 0.90243 0.0
H1408 H 0.57382 0.84562 0.93743 0.0
H1409 H 0.66496 0.9433 0.90611 0.0
C1410 C 0.71981 0.84377 0.82574 0.0
C1411 C 0.71039 0.80441 0.81587 0.0
C1412 C 0.67805 0.77848 0.82988 0.0
C1413 C 0.65553 0.79094 0.85321 0.0
C1414 C 0.6652 0.82963 0.86221 0.0
C1415 C 0.69629 0.85588 0.84891 0.0
C1416 C 0.69851 0.89589 0.86212 0.0
C1417 C 0.73297 0.91842 0.87945 0.0
C1418 C 0.69661 0.91639 0.83522 0.0
C1419 C 0.6644 0.88774 0.88552 0.0
C1420 C 0.64581 0.84916 0.88473 0.0
C1421 C 0.61336 0.83378 0.90327 0.0
C1422 C 0.59913 0.85822 0.92311 0.0
C1423 C 0.61708 0.8981 0.92472 0.0
C1424 C 0.65055 0.91308 0.9057 0.0
H1425 H 0.84103 0.71894 0.15929 0.0
H1426 H 0.82171 0.66669 0.24509 0.0
H1427 H 0.85708 0.62861 0.21899 0.0
H1428 H 0.83012 0.63224 0.10543 0.0
H1429 H 0.86375 0.65557 0.07505 0.0
H1430 H 0.83846 0.68027 0.10102 0.0
H1431 H 0.89851 0.7338 0.11773 0.0
H1432 H 0.9241 0.70939 0.09191 0.0
H1433 H 0.93136 0.72265 0.13376 0.0
H1434 H 0.89448 0.59574 0.1835 0.0
H1435 H 0.9301 0.56949 0.14066 0.0
H1436 H 0.92311 0.6402 0.07626 0.0
C1437 C 0.84452 0.69988 0.1726 0.0
C1438 C 0.82873 0.69624 0.20442 0.0
C1439 C 0.83351 0.67015 0.22079 0.0
C1440 C 0.85361 0.64834 0.20611 0.0
C1441 C 0.86834 0.6522 0.1746 0.0
C1442 C 0.86378 0.67706 0.15786 0.0
C1443 C 0.88082 0.67418 0.12363 0.0
C1444 C 0.85155 0.65972 0.09988 0.0
C1445 C 0.91048 0.71228 0.11634 0.0
C1446 C 0.89681 0.64484 0.12414 0.0
C1447 C 0.88902 0.63238 0.15378 0.0
C1448 C 0.90064 0.60519 0.16018 0.0
C1449 C 0.92078 0.59038 0.13574 0.0
C1450 C 0.92917 0.60269 0.10526 0.0
C1451 C 0.91696 0.63025 0.0994 0.0
H1452 H 0.32562 0.79266 0.1542 0.0
H1453 H 0.38388 0.84634 0.23846 0.0
H1454 H 0.43144 0.89292 0.20655 0.0
H1455 H 0.41046 0.8077 0.09885 0.0
H1456 H 0.39004 0.81372 0.06656 0.0
H1457 H 0.36235 0.78319 0.0957 0.0
H1458 H 0.32074 0.82094 0.10756 0.0
H1459 H 0.34811 0.85151 0.07864 0.0
H1460 H 0.34029 0.87149 0.11915 0.0
H1461 H 0.47026 0.93664 0.16598 0.0
H1462 H 0.49583 0.97426 0.12057 0.0
H1463 H 0.41237 0.89155 0.06314 0.0
C1464 C 0.3486 0.81405 0.1658 0.0
C1465 C 0.35116 0.81608 0.19874 0.0
C1466 C 0.38165 0.8442 0.21315 0.0
C1467 C 0.40876 0.87073 0.19522 0.0
C1468 C 0.40542 0.86813 0.16275 0.0
C1469 C 0.37629 0.84018 0.1481 0.0
C1470 C 0.37896 0.84368 0.11294 0.0
C1471 C 0.38586 0.81008 0.09229 0.0
C1472 C 0.34497 0.84715 0.10411 0.0
C1473 C 0.41215 0.87997 0.11078 0.0
C1474 C 0.42784 0.89296 0.13944 0.0
C1475 C 0.45844 0.92648 0.14334 0.0
C1476 C 0.47285 0.9476 0.11749 0.0
C1477 C 0.45611 0.9355 0.08854 0.0
C1478 C 0.42574 0.90109 0.08506 0.0
H1479 H 0.67735 0.15418 0.2059 0.0
H1480 H 0.77267 0.22744 0.1539 0.0
H1481 H 0.74817 0.19271 0.10261 0.0
H1482 H 0.65873 0.06645 0.14957 0.0
H1483 H 0.61029 0.05424 0.15454 0.0
H1484 H 0.63754 0.08084 0.18707 0.0
H1485 H 0.61303 0.13378 0.19078 0.0
H1486 H 0.58526 0.10732 0.15867 0.0
H1487 H 0.61681 0.15516 0.15558 0.0
H1488 H 0.71017 0.15543 0.05754 0.0
H1489 H 0.66019 0.1201 0.02239 0.0
H1490 H 0.58951 0.07175 0.10361 0.0
C1491 C 0.6933 0.16207 0.1836 0.0
C1492 C 0.72692 0.19288 0.18342 0.0
C1493 C 0.74683 0.20363 0.15414 0.0
C1494 C 0.73325 0.18397 0.12502 0.0
C1495 C 0.69955 0.15401 0.12579 0.0
C1496 C 0.6797 0.14328 0.15434 0.0
C1497 C 0.64231 0.11356 0.14872 0.0
C1498 C 0.63691 0.07656 0.16068 0.0
C1499 C 0.61261 0.12834 0.16435 0.0
C1500 C 0.64425 0.10916 0.1126 0.0
C1501 C 0.67754 0.13259 0.09975 0.0
C1502 C 0.68431 0.13625 0.06717 0.0
C1503 C 0.65602 0.11608 0.04737 0.0
C1504 C 0.62183 0.09248 0.06033 0.0
C1505 C 0.6161 0.0885 0.09311 0.0
H1506 H 0.66261 0.67402 0.81417 0.0
H1507 H 0.77085 0.68201 0.82597 0.0
H1508 H 0.74757 0.65162 0.87424 0.0
H1509 H 0.62902 0.68446 0.89638 0.0
H1510 H 0.58464 0.64746 0.89238 0.0
H1511 H 0.60912 0.67216 0.85885 0.0
H1512 H 0.60376 0.60869 0.82419 0.0
H1513 H 0.57883 0.58384 0.85754 0.0
H1514 H 0.61929 0.57721 0.83834 0.0
H1515 H 0.71603 0.62627 0.9226 0.0
H1516 H 0.67484 0.5923 0.96444 0.0
H1517 H 0.5823 0.58814 0.92054 0.0
C1518 C 0.68128 0.66902 0.82676 0.0
C1519 C 0.71913 0.68226 0.81678 0.0
C1520 C 0.74229 0.67418 0.83365 0.0
C1521 C 0.72924 0.65654 0.86117 0.0
C1522 C 0.69243 0.64522 0.87102 0.0
C1523 C 0.6683 0.64961 0.85391 0.0
C1524 C 0.6295 0.63128 0.8691 0.0
C1525 C 0.61204 0.6606 0.87982 0.0
C1526 C 0.60647 0.59829 0.84591 0.0
C1527 C 0.63619 0.61703 0.89776 0.0
C1528 C 0.67295 0.62627 0.89821 0.0
C1529 C 0.68707 0.61805 0.92224 0.0
C1530 C 0.66309 0.59862 0.9461 0.0
C1531 C 0.62487 0.58665 0.94592 0.0
C1532 C 0.61122 0.59653 0.92144 0.0
H1533 H 0.37173 0.64745 0.88347 0.0
H1534 H 0.36944 0.5734 0.79441 0.0
H1535 H 0.41679 0.55635 0.81088 0.0
H1536 H 0.469 0.68155 0.89189 0.0
H1537 H 0.46236 0.68075 0.93454 0.0
H1538 H 0.43037 0.68904 0.91469 0.0
H1539 H 0.37754 0.63271 0.93794 0.0
H1540 H 0.40947 0.62505 0.95811 0.0
H1541 H 0.38068 0.58697 0.93173 0.0
H1542 H 0.45824 0.54182 0.84 0.0
H1543 H 0.49099 0.53112 0.87965 0.0
H1544 H 0.46997 0.61857 0.94757 0.0
C1545 C 0.38167 0.628 0.86744 0.0
C1546 C 0.36741 0.61152 0.83783 0.0
C1547 C 0.38038 0.58601 0.81726 0.0
C1548 C 0.40727 0.57644 0.82633 0.0
C1549 C 0.42094 0.59309 0.85583 0.0
C1550 C 0.40861 0.61838 0.87605 0.0
C1551 C 0.42576 0.63021 0.90733 0.0
C1552 C 0.44822 0.67294 0.91238 0.0
C1553 C 0.39661 0.61797 0.9354 0.0
C1554 C 0.44983 0.60777 0.90155 0.0
C1555 C 0.44649 0.58628 0.87181 0.0
C1556 C 0.46223 0.55947 0.86287 0.0
C1557 C 0.48105 0.55379 0.88529 0.0
C1558 C 0.48459 0.57552 0.91575 0.0
C1559 C 0.46958 0.6034 0.92362 0.0
H1560 H 0.35988 0.28498 0.82461 0.0
H1561 H 0.34209 0.3803 0.80147 0.0
H1562 H 0.38304 0.42249 0.8416 0.0
H1563 H 0.35533 0.31562 0.9097 0.0
H1564 H 0.38813 0.29782 0.91689 0.0
H1565 H 0.36007 0.27529 0.8842 0.0
H1566 H 0.41746 0.28457 0.84464 0.0
H1567 H 0.44586 0.30711 0.87708 0.0
H1568 H 0.45213 0.33129 0.84302 0.0
H1569 H 0.42864 0.4545 0.88102 0.0
H1570 H 0.47034 0.47417 0.92268 0.0
H1571 H 0.45033 0.35768 0.92859 0.0
C1572 C 0.36488 0.31481 0.82762 0.0
C1573 C 0.34892 0.32954 0.80869 0.0
C1574 C 0.35528 0.36853 0.81436 0.0
C1575 C 0.37812 0.39267 0.83749 0.0
C1576 C 0.39331 0.37715 0.85557 0.0
C1577 C 0.38641 0.33907 0.85148 0.0
C1578 C 0.4041 0.32937 0.8758 0.0
C1579 C 0.37519 0.30296 0.89796 0.0
C1580 C 0.43152 0.31207 0.85913 0.0
C1581 C 0.42299 0.36831 0.89366 0.0
C1582 C 0.41646 0.3953 0.88124 0.0
C1583 C 0.43272 0.43352 0.89184 0.0
C1584 C 0.45581 0.4445 0.91613 0.0
C1585 C 0.46175 0.41769 0.93062 0.0
C1586 C 0.44546 0.37889 0.9188 0.0
H1587 H 0.63099 0.27351 0.92383 0.0
H1588 H 0.71991 0.34143 0.86244 0.0
H1589 H 0.74207 0.38843 0.90738 0.0
H1590 H 0.59964 0.32647 0.95386 0.0
H1591 H 0.59009 0.32112 0.99584 0.0
H1592 H 0.59514 0.28349 0.9678 0.0
H1593 H 0.64589 0.28362 0.99807 0.0
H1594 H 0.64061 0.32158 0.02686 0.0
H1595 H 0.68464 0.32668 1.00661 0.0
H1596 H 0.73258 0.43863 0.94238 0.0
H1597 H 0.69727 0.47773 0.96527 0.0
H1598 H 0.61779 0.38423 0.01073 0.0
C1599 C 0.65631 0.29723 0.92049 0.0
C1600 C 0.67283 0.30367 0.88947 0.0
C1601 C 0.70621 0.33501 0.88576 0.0
C1602 C 0.71933 0.36241 0.91154 0.0
C1603 C 0.699 0.35841 0.94101 0.0
C1604 C 0.66918 0.32535 0.94622 0.0
C1605 C 0.64691 0.33136 0.97704 0.0
C1606 C 0.6056 0.31476 0.9733 0.0
C1607 C 0.65503 0.31484 1.00372 0.0
C1608 C 0.66289 0.37409 0.98306 0.0
C1609 C 0.69469 0.38922 0.96363 0.0
C1610 C 0.70887 0.42739 0.95884 0.0
C1611 C 0.6887 0.44957 0.97174 0.0
C1612 C 0.65511 0.43328 0.98926 0.0
C1613 C 0.64383 0.39661 0.99732 0.0
H1614 H 0.67288 0.44982 0.20125 0.0
H1615 H 0.6644 0.33691 0.15869 0.0
H1616 H 0.61383 0.33102 0.12925 0.0
H1617 H 0.57556 0.4346 0.2038 0.0
H1618 H 0.58679 0.4809 0.19293 0.0
H1619 H 0.61669 0.47299 0.21572 0.0
H1620 H 0.67031 0.49884 0.17305 0.0
H1621 H 0.64084 0.50698 0.15027 0.0
H1622 H 0.66578 0.47798 0.13188 0.0
H1623 H 0.56925 0.34039 0.09972 0.0
H1624 H 0.54105 0.36634 0.06781 0.0
H1625 H 0.58277 0.47522 0.12636 0.0
C1626 C 0.66031 0.42364 0.18597 0.0
C1627 C 0.67276 0.39384 0.18243 0.0
C1628 C 0.65504 0.35995 0.1624 0.0
C1629 C 0.62625 0.35634 0.14551 0.0
C1630 C 0.61544 0.38681 0.14894 0.0
C1631 C 0.63217 0.41988 0.16855 0.0
C1632 C 0.61906 0.45029 0.16503 0.0
C1633 C 0.59828 0.46028 0.19623 0.0
C1634 C 0.65087 0.48556 0.1544 0.0
C1635 C 0.59366 0.42988 0.13908 0.0
C1636 C 0.5909 0.39285 0.13095 0.0
C1637 C 0.57077 0.36914 0.10623 0.0
C1638 C 0.55454 0.38415 0.08836 0.0
C1639 C 0.55947 0.42288 0.09467 0.0
C1640 C 0.57798 0.44542 0.12128 0.0
H1641 H 0.69726 0.64491 0.19679 0.0
H1642 H 0.68794 0.75382 0.20533 0.0
H1643 H 0.65431 0.73231 0.15782 0.0
H1644 H 0.70342 0.62343 0.11174 0.0
H1645 H 0.67347 0.57435 0.11046 0.0
H1646 H 0.69916 0.59797 0.14448 0.0
H1647 H 0.64004 0.57947 0.1822 0.0
H1648 H 0.61387 0.55563 0.1485 0.0
H1649 H 0.60349 0.59206 0.17538 0.0
H1650 H 0.6276 0.70302 0.10808 0.0
H1651 H 0.59231 0.66143 0.06504 0.0
H1652 H 0.60781 0.56601 0.09122 0.0
C1653 C 0.68772 0.664 0.18885 0.0
C1654 C 0.69668 0.70174 0.20398 0.0
C1655 C 0.68306 0.72554 0.19329 0.0
C1656 C 0.66373 0.71352 0.16636 0.0
C1657 C 0.65683 0.677 0.15114 0.0
C1658 C 0.66692 0.65189 0.16252 0.0
C1659 C 0.65267 0.6131 0.14276 0.0
C1660 C 0.68407 0.60154 0.12638 0.0
C1661 C 0.62593 0.58331 0.16345 0.0
C1662 C 0.63339 0.62085 0.11845 0.0
C1663 C 0.63729 0.65828 0.12357 0.0
C1664 C 0.62353 0.67341 0.10414 0.0
C1665 C 0.6035 0.64931 0.07961 0.0
C1666 C 0.5964 0.61005 0.07503 0.0
C1667 C 0.61245 0.59576 0.09423 0.0
H1668 H 0.41118 0.73963 0.09473 0.0
H1669 H 0.3301 0.66831 0.1595 0.0
H1670 H 0.30996 0.61839 0.11605 0.0
H1671 H 0.35979 0.67909 0.01374 0.0
H1672 H 0.4044 0.68721 0.99354 0.0
H1673 H 0.39642 0.72418 0.02179 0.0
H1674 H 0.44943 0.7295 0.05229 0.0
H1675 H 0.45679 0.69264 0.0247 0.0
H1676 H 0.44816 0.68811 0.06683 0.0
H1677 H 0.32068 0.56932 0.07985 0.0
H1678 H 0.35731 0.53252 0.05388 0.0
H1679 H 0.43175 0.62921 0.00903 0.0
C1680 C 0.38811 0.71404 0.0992 0.0
C1681 C 0.37322 0.70807 0.1307 0.0
C1682 C 0.34242 0.67452 0.1358 0.0
C1683 C 0.33049 0.6454 0.11088 0.0
C1684 C 0.3496 0.64975 0.08093 0.0
C1685 C 0.37691 0.68406 0.07448 0.0
C1686 C 0.39951 0.67894 0.04363 0.0
C1687 C 0.3894 0.69318 0.01658 0.0
C1688 C 0.44083 0.69832 0.04718 0.0
C1689 C 0.38623 0.63629 0.03832 0.0
C1690 C 0.3556 0.61973 0.05845 0.0
C1691 C 0.34355 0.58164 0.06292 0.0
C1692 C 0.36453 0.56085 0.04831 0.0
C1693 C 0.39712 0.57859 0.0299 0.0
C1694 C 0.40653 0.61549 0.02304 0.0
H1695 H 0.32085 0.36632 0.19964 0.0
H1696 H 0.37196 0.28539 0.19059 0.0
H1697 H 0.41276 0.31417 0.14492 0.0
H1698 H 0.32259 0.37014 0.11688 0.0
H1699 H 0.33376 0.42035 0.12084 0.0
H1700 H 0.30918 0.39432 0.15358 0.0
H1701 H 0.35828 0.43913 0.19105 0.0
H1702 H 0.38297 0.46556 0.15851 0.0
H1703 H 0.40519 0.44587 0.17969 0.0
H1704 H 0.44607 0.34966 0.09879 0.0
H1705 H 0.47122 0.39116 0.05645 0.0
H1706 H 0.40118 0.45147 0.09594 0.0
C1707 C 0.34083 0.35494 0.18807 0.0
C1708 C 0.34332 0.32365 0.19852 0.0
C1709 C 0.36984 0.30953 0.18304 0.0
C1710 C 0.39301 0.32557 0.157 0.0
C1711 C 0.38973 0.35617 0.14701 0.0
C1712 C 0.36462 0.37102 0.16221 0.0
C1713 C 0.36714 0.40431 0.14675 0.0
C1714 C 0.33101 0.39682 0.13374 0.0
C1715 C 0.37909 0.44089 0.17041 0.0
C1716 C 0.39671 0.40508 0.11988 0.0
C1717 C 0.40956 0.37722 0.12071 0.0
C1718 C 0.43665 0.37198 0.09827 0.0
C1719 C 0.45126 0.39607 0.07457 0.0
C1720 C 0.43914 0.42527 0.07352 0.0
C1721 C 0.41113 0.42948 0.09628 0.0
H1722 H 0.79242 0.65288 0.68051 0.0
H1723 H 0.88401 0.74818 0.71953 0.0
H1724 H 0.92574 0.72125 0.68885 0.0
H1725 H 0.83074 0.58149 0.6771 0.0
H1726 H 0.81465 0.5563 0.63916 0.0
H1727 H 0.78989 0.58171 0.66499 0.0
H1728 H 0.79397 0.61755 0.61915 0.0
H1729 H 0.82042 0.59467 0.59284 0.0
H1730 H 0.8376 0.64556 0.60076 0.0
H1731 H 0.95861 0.68631 0.65595 0.0
H1732 H 0.98302 0.64625 0.61729 0.0
H1733 H 0.87365 0.57201 0.59378 0.0
C1734 C 0.82124 0.66811 0.68238 0.0
C1735 C 0.83449 0.70257 0.7034 0.0
C1736 C 0.87255 0.72139 0.70479 0.0
C1737 C 0.89683 0.70639 0.68713 0.0
C1738 C 0.88312 0.67245 0.66738 0.0
C1739 C 0.84641 0.65348 0.66431 0.0
C1740 C 0.8401 0.61772 0.64019 0.0
C1741 C 0.8175 0.58219 0.65633 0.0
C1742 C 0.82199 0.61903 0.61151 0.0
C1743 C 0.87904 0.62023 0.6303 0.0
C1744 C 0.90298 0.65204 0.64684 0.0
C1745 C 0.94024 0.66139 0.64263 0.0
C1746 C 0.95383 0.63822 0.62038 0.0
C1747 C 0.93054 0.60581 0.60196 0.0
C1748 C 0.89232 0.59637 0.60743 0.0
H1749 H 0.37727 0.79953 0.6705 0.0
H1750 H 0.30227 0.8537 0.70992 0.0
H1751 H 0.33885 0.90832 0.68236 0.0
H1752 H 0.46143 0.88731 0.66874 0.0
H1753 H 0.48002 0.87198 0.63027 0.0
H1754 H 0.4519 0.8378 0.65652 0.0
H1755 H 0.40778 0.8007 0.61348 0.0
H1756 H 0.43615 0.83323 0.58614 0.0
H1757 H 0.38857 0.82526 0.59423 0.0
H1758 H 0.38168 0.95627 0.65171 0.0
H1759 H 0.42065 0.99041 0.60861 0.0
H1760 H 0.46652 0.90422 0.58136 0.0
C1761 C 0.36952 0.82351 0.67427 0.0
C1762 C 0.3379 0.82323 0.69408 0.0
C1763 C 0.32696 0.85387 0.69627 0.0
C1764 C 0.34776 0.88518 0.68063 0.0
C1765 C 0.37919 0.88511 0.66206 0.0
C1766 C 0.38974 0.85484 0.65794 0.0
C1767 C 0.42202 0.86039 0.63284 0.0
C1768 C 0.45585 0.8646 0.64801 0.0
C1769 C 0.41308 0.82797 0.60501 0.0
C1770 C 0.42658 0.89762 0.62258 0.0
C1771 C 0.4024 0.91178 0.64103 0.0
C1772 C 0.40059 0.94545 0.63689 0.0
C1773 C 0.42286 0.96454 0.6122 0.0
C1774 C 0.44607 0.94957 0.59117 0.0
C1775 C 0.44905 0.91628 0.59707 0.0
H1776 H 0.16951 0.43091 0.68017 0.0
H1777 H 0.16344 0.31805 0.63943 0.0
H1778 H 0.12755 0.31805 0.59775 0.0
H1779 H 0.07478 0.41095 0.6649 0.0
H1780 H 0.0861 0.45876 0.65775 0.0
H1781 H 0.11033 0.44933 0.68524 0.0
H1782 H 0.17149 0.48373 0.65331 0.0
H1783 H 0.14746 0.49331 0.626 0.0
H1784 H 0.17758 0.46893 0.61102 0.0
H1785 H 0.09303 0.33057 0.5598 0.0
H1786 H 0.06688 0.3571 0.52607 0.0
H1787 H 0.095 0.46121 0.59172 0.0
C1788 C 0.16015 0.40579 0.66298 0.0
C1789 C 0.16978 0.37464 0.66327 0.0
C1790 C 0.15734 0.34277 0.63961 0.0
C1791 C 0.13641 0.34219 0.61598 0.0
C1792 C 0.12737 0.37331 0.61661 0.0
C1793 C 0.1387 0.40441 0.63957 0.0
C1794 C 0.12562 0.43438 0.63471 0.0
C1795 C 0.09755 0.43862 0.66229 0.0
C1796 C 0.15748 0.47231 0.63101 0.0
C1797 C 0.10767 0.41658 0.60395 0.0
C1798 C 0.10775 0.3807 0.59459 0.0
C1799 C 0.09254 0.35849 0.56702 0.0
C1800 C 0.07756 0.37367 0.54815 0.0
C1801 C 0.07875 0.41098 0.55654 0.0
C1802 C 0.09361 0.43251 0.58497 0.0
H1803 H 0.75249 0.2012 0.65521 0.0
H1804 H 0.67831 0.14879 0.73326 0.0
H1805 H 0.63871 0.10062 0.69484 0.0
H1806 H 0.68672 0.19467 0.60632 0.0
H1807 H 0.71323 0.18636 0.57027 0.0
H1808 H 0.73563 0.21101 0.60573 0.0
H1809 H 0.76366 0.15814 0.59565 0.0
H1810 H 0.73599 0.13314 0.563 0.0
H1811 H 0.73326 0.10949 0.59649 0.0
H1812 H 0.60324 0.0641 0.64989 0.0
H1813 H 0.57019 0.04581 0.60177 0.0
H1814 H 0.66265 0.1254 0.55173 0.0
C1815 C 0.72862 0.17852 0.66391 0.0
C1816 C 0.71899 0.17757 0.6971 0.0
C1817 C 0.68672 0.14898 0.70797 0.0
C1818 C 0.66406 0.12157 0.68627 0.0
C1819 C 0.6737 0.12355 0.65368 0.0
C1820 C 0.70504 0.15143 0.64238 0.0
C1821 C 0.70628 0.14989 0.60633 0.0
C1822 C 0.71084 0.18785 0.59671 0.0
C1823 C 0.73659 0.1369 0.58936 0.0
C1824 C 0.66902 0.11976 0.59992 0.0
C1825 C 0.65177 0.10354 0.62732 0.0
C1826 C 0.61661 0.07625 0.62822 0.0
C1827 C 0.59802 0.06613 0.60081 0.0
C1828 C 0.61402 0.08415 0.5732 0.0
C1829 C 0.65016 0.11093 0.57248 0.0
H1830 H 0.8622 0.36981 0.31286 0.0
H1831 H 0.78976 0.2714 0.35729 0.0
H1832 H 0.81122 0.30392 0.40983 0.0
H1833 H 0.93509 0.38765 0.35475 0.0
H1834 H 0.95156 0.43847 0.35851 0.0
H1835 H 0.92567 0.41031 0.32578 0.0
H1836 H 0.88011 0.44357 0.34234 0.0
H1837 H 0.90571 0.47154 0.37552 0.0
H1838 H 0.858 0.44325 0.38238 0.0
H1839 H 0.84686 0.34151 0.45484 0.0
H1840 H 0.89674 0.38071 0.48872 0.0
H1841 H 0.94543 0.45636 0.41688 0.0
C1842 C 0.85032 0.35571 0.3339 0.0
C1843 C 0.8243 0.31835 0.33132 0.0
C1844 C 0.80984 0.30008 0.35898 0.0
C1845 C 0.82154 0.31846 0.38892 0.0
C1846 C 0.8477 0.35513 0.39078 0.0
C1847 C 0.86199 0.37363 0.36404 0.0
C1848 C 0.89312 0.41092 0.37193 0.0
C1849 C 0.92843 0.41186 0.35155 0.0
C1850 C 0.88365 0.4443 0.3678 0.0
C1851 C 0.89508 0.40967 0.4069 0.0
C1852 C 0.86814 0.37754 0.41743 0.0
C1853 C 0.86732 0.36743 0.44737 0.0
C1854 C 0.89553 0.38989 0.46655 0.0
C1855 C 0.92378 0.42216 0.45581 0.0
C1856 C 0.92293 0.43288 0.42617 0.0
H1857 H 0.68745 0.81802 0.29646 0.0
H1858 H 0.76005 0.81674 0.36085 0.0
H1859 H 0.73383 0.85186 0.40435 0.0
H1860 H 0.68809 0.91109 0.32694 0.0
H1861 H 0.64051 0.89888 0.32379 0.0
H1862 H 0.66469 0.87371 0.29693 0.0
H1863 H 0.61906 0.81009 0.31342 0.0
H1864 H 0.59365 0.83427 0.33989 0.0
H1865 H 0.60953 0.80375 0.35512 0.0
H1866 H 0.70228 0.88995 0.44004 0.0
H1867 H 0.66232 0.92226 0.46811 0.0
H1868 H 0.60513 0.89503 0.38318 0.0
C1869 C 0.69772 0.82526 0.31977 0.0
C1870 C 0.72567 0.81437 0.32548 0.0
C1871 C 0.73833 0.82415 0.3562 0.0
C1872 C 0.72377 0.84444 0.38096 0.0
C1873 C 0.69617 0.85463 0.37477 0.0
C1874 C 0.68285 0.84501 0.34509 0.0
C1875 C 0.65197 0.8583 0.34544 0.0
C1876 C 0.66193 0.88724 0.32188 0.0
C1877 C 0.61644 0.82459 0.33804 0.0
C1878 C 0.65002 0.87678 0.37995 0.0
C1879 C 0.67637 0.8749 0.39611 0.0
C1880 C 0.68133 0.8913 0.42774 0.0
C1881 C 0.65861 0.90976 0.44345 0.0
C1882 C 0.63057 0.91108 0.42796 0.0
C1883 C 0.62617 0.89421 0.39572 0.0
H1884 H 0.19417 0.64595 0.29977 0.0
H1885 H 0.20809 0.7561 0.35277 0.0
H1886 H 0.1629 0.72562 0.39556 0.0
H1887 H 0.09439 0.60059 0.32563 0.0
H1888 H 0.09772 0.55608 0.32709 0.0
H1889 H 0.12718 0.58668 0.29865 0.0
H1890 H 0.18183 0.58493 0.32023 0.0
H1891 H 0.15414 0.55577 0.34989 0.0
H1892 H 0.18967 0.60038 0.36201 0.0
H1893 H 0.11997 0.68276 0.43481 0.0
H1894 H 0.08742 0.63143 0.46861 0.0
H1895 H 0.10342 0.54979 0.39087 0.0
C1896 C 0.18738 0.66363 0.32024 0.0
C1897 C 0.2042 0.70343 0.32277 0.0
C1898 C 0.19484 0.72559 0.35 0.0
C1899 C 0.16922 0.70851 0.37445 0.0
C1900 C 0.15296 0.66918 0.37121 0.0
C1901 C 0.16161 0.64701 0.34472 0.0
C1902 C 0.1419 0.60538 0.34795 0.0
C1903 C 0.11362 0.58605 0.32337 0.0
C1904 C 0.16856 0.58548 0.34494 0.0
C1905 C 0.12353 0.60765 0.38147 0.0
C1906 C 0.1289 0.64459 0.39402 0.0
C1907 C 0.11526 0.65372 0.42506 0.0
C1908 C 0.09669 0.62447 0.44403 0.0
C1909 C 0.0928 0.58691 0.43206 0.0
C1910 C 0.10578 0.57836 0.40028 0.0
H1911 H 0.47475 0.23743 0.36775 0.0
H1912 H 0.38217 0.14422 0.32879 0.0
H1913 H 0.39419 0.10053 0.35687 0.0
H1914 H 0.53295 0.1864 0.36548 0.0
H1915 H 0.55074 0.20975 0.40326 0.0
H1916 H 0.53591 0.23398 0.37951 0.0
H1917 H 0.49194 0.24595 0.42694 0.0
H1918 H 0.50702 0.22241 0.45108 0.0
H1919 H 0.45935 0.20662 0.44606 0.0
H1920 H 0.41717 0.06704 0.38654 0.0
H1921 H 0.44215 0.04579 0.42458 0.0
H1922 H 0.51802 0.16098 0.44906 0.0
C1923 C 0.45703 0.20781 0.3654 0.0
C1924 C 0.42762 0.19384 0.34612 0.0
C1925 C 0.40471 0.15518 0.34357 0.0
C1926 C 0.41154 0.13024 0.35917 0.0
C1927 C 0.44112 0.14462 0.37754 0.0
C1928 C 0.46304 0.18258 0.38142 0.0
C1929 C 0.49166 0.19071 0.40419 0.0
C1930 C 0.53009 0.20611 0.38708 0.0
C1931 C 0.4872 0.21803 0.43383 0.0
C1932 C 0.48217 0.15135 0.41263 0.0
C1933 C 0.45343 0.12529 0.39629 0.0
C1934 C 0.43945 0.08718 0.39971 0.0
C1935 C 0.45403 0.07542 0.42145 0.0
C1936 C 0.48197 0.10169 0.44021 0.0
C1937 C 0.49692 0.14013 0.43502 0.0
H1938 H 0.57561 0.78695 0.65357 0.0
H1939 H 0.67666 0.87531 0.68263 0.0
H1940 H 0.66768 0.91861 0.65187 0.0
H1941 H 0.58778 0.80918 0.5724 0.0
H1942 H 0.54021 0.79818 0.57031 0.0
H1943 H 0.55388 0.77457 0.59552 0.0
H1944 H 0.51761 0.797 0.64482 0.0
H1945 H 0.50314 0.81918 0.61889 0.0
H1946 H 0.52531 0.84644 0.65404 0.0
H1947 H 0.64664 0.95282 0.62107 0.0
H1948 H 0.62137 0.97437 0.58357 0.0
H1949 H 0.53541 0.86276 0.56927 0.0
C1950 C 0.59578 0.81544 0.65328 0.0
C1951 C 0.6267 0.82813 0.6706 0.0
C1952 C 0.65285 0.86526 0.6695 0.0
C1953 C 0.64782 0.89003 0.6523 0.0
C1954 C 0.61677 0.87696 0.63593 0.0
C1955 C 0.59159 0.84034 0.63556 0.0
C1956 C 0.56169 0.83318 0.61446 0.0
C1957 C 0.56087 0.80193 0.58651 0.0
C1958 C 0.52472 0.82341 0.63424 0.0
C1959 C 0.57411 0.87153 0.60293 0.0
C1960 C 0.60555 0.89637 0.61632 0.0
C1961 C 0.62229 0.93355 0.61011 0.0
C1962 C 0.60749 0.94548 0.58867 0.0
C1963 C 0.57648 0.92022 0.57288 0.0
C1964 C 0.55906 0.88284 0.58079 0.0
H1965 H 0.69891 0.14497 0.29991 0.0
H1966 H 0.71041 0.25406 0.35413 0.0
H1967 H 0.66753 0.22251 0.39726 0.0
H1968 H 0.60286 0.09414 0.32696 0.0
H1969 H 0.60925 0.0515 0.32958 0.0
H1970 H 0.63721 0.08215 0.30062 0.0
H1971 H 0.69627 0.08858 0.32386 0.0
H1972 H 0.66742 0.05594 0.35095 0.0
H1973 H 0.69933 0.10123 0.36641 0.0
H1974 H 0.62539 0.17968 0.43549 0.0
H1975 H 0.59339 0.12858 0.46938 0.0
H1976 H 0.61405 0.04759 0.39334 0.0
C1977 C 0.69211 0.16219 0.32072 0.0
C1978 C 0.70706 0.20207 0.3231 0.0
C1979 C 0.6981 0.22355 0.35106 0.0
C1980 C 0.67392 0.20585 0.37585 0.0
C1981 C 0.65937 0.16656 0.37264 0.0
C1982 C 0.66853 0.14494 0.34605 0.0
C1983 C 0.6514 0.10329 0.34987 0.0
C1984 C 0.62353 0.08149 0.32529 0.0
C1985 C 0.68037 0.08631 0.34761 0.0
C1986 C 0.63279 0.10517 0.3834 0.0
C1987 C 0.63665 0.14182 0.3956 0.0
C1988 C 0.62205 0.15084 0.4262 0.0
C1989 C 0.60384 0.12175 0.44518 0.0
C1990 C 0.6013 0.08449 0.43371 0.0
C1991 C 0.61558 0.07597 0.40239 0.0
H1992 H 0.82147 0.59985 0.39859 0.0
H1993 H 0.90026 0.6548 0.32406 0.0
H1994 H 0.9502 0.65685 0.35313 0.0
H1995 H 0.87908 0.64888 0.46672 0.0
H1996 H 0.8607 0.60663 0.4859 0.0
H1997 H 0.83302 0.61613 0.46185 0.0
H1998 H 0.8212 0.55072 0.42776 0.0
H1999 H 0.84924 0.54133 0.45128 0.0
H2000 H 0.85929 0.53935 0.40854 0.0
H2001 H 0.99073 0.64546 0.38876 0.0
H2002 H 1.01638 0.62283 0.42675 0.0
H2003 H 0.90867 0.57382 0.47496 0.0
C2004 C 0.84936 0.61336 0.38895 0.0
C2005 C 0.85733 0.62738 0.3594 0.0
C2006 C 0.89392 0.64442 0.34703 0.0
C2007 C 0.92231 0.64553 0.36331 0.0
C2008 C 0.91337 0.62988 0.39196 0.0
C2009 C 0.87766 0.61465 0.40479 0.0
C2010 C 0.87432 0.59687 0.43429 0.0
C2011 C 0.861 0.61842 0.46394 0.0
C2012 C 0.84958 0.55458 0.43018 0.0
C2013 C 0.91341 0.60268 0.43534 0.0
C2014 C 0.93595 0.62246 0.41133 0.0
C2015 C 0.97326 0.63021 0.40777 0.0
C2016 C 0.9876 0.61726 0.4293 0.0
C2017 C 0.96436 0.59613 0.45335 0.0
C2018 C 0.92704 0.58933 0.45642 0.0
H2019 H 0.31713 0.7887 0.36025 0.0
H2020 H 0.3253 0.87878 0.3092 0.0
H2021 H 0.35768 0.92586 0.35272 0.0
H2022 H 0.31464 0.83102 0.4417 0.0
H2023 H 0.34617 0.81373 0.45251 0.0
H2024 H 0.3174 0.78748 0.4209 0.0
H2025 H 0.37441 0.79063 0.38017 0.0
H2026 H 0.40156 0.81359 0.4132 0.0
H2027 H 0.41103 0.83551 0.37729 0.0
H2028 H 0.39586 0.96295 0.39956 0.0
H2029 H 0.4403 0.98554 0.44006 0.0
H2030 H 0.41335 0.86996 0.45536 0.0
C2031 C 0.32586 0.81821 0.35789 0.0
C2032 C 0.31836 0.82981 0.33118 0.0
C2033 C 0.32948 0.86899 0.32984 0.0
C2034 C 0.34829 0.89597 0.35438 0.0
C2035 C 0.3564 0.8833 0.37978 0.0
C2036 C 0.34601 0.84522 0.38122 0.0
C2037 C 0.36282 0.83843 0.40768 0.0
C2038 C 0.3335 0.81636 0.43216 0.0
C2039 C 0.38897 0.81835 0.39381 0.0
C2040 C 0.38366 0.8786 0.42167 0.0
C2041 C 0.37951 0.90425 0.4055 0.0
C2042 C 0.39885 0.94303 0.41255 0.0
C2043 C 0.42392 0.95565 0.43576 0.0
C2044 C 0.43004 0.92953 0.45112 0.0
C2045 C 0.40885 0.89066 0.44448 0.0
H2046 H 0.20402 0.29228 0.34688 0.0
H2047 H 0.24739 0.36518 0.27236 0.0
H2048 H 0.21742 0.40741 0.30176 0.0
H2049 H 0.1164 0.29955 0.35916 0.0
H2050 H 0.11145 0.29866 0.40173 0.0
H2051 H 0.1381 0.27538 0.37596 0.0
H2052 H 0.19184 0.31355 0.4093 0.0
H2053 H 0.16701 0.33898 0.43473 0.0
H2054 H 0.20991 0.36457 0.41385 0.0
H2055 H 0.18481 0.44334 0.34044 0.0
H2056 H 0.14629 0.46656 0.3826 0.0
H2057 H 0.11848 0.36732 0.42933 0.0
C2058 C 0.20731 0.31726 0.33689 0.0
C2059 C 0.22824 0.32563 0.30737 0.0
C2060 C 0.23147 0.35822 0.29485 0.0
C2061 C 0.21468 0.38246 0.31148 0.0
C2062 C 0.19415 0.37345 0.34043 0.0
C2063 C 0.18994 0.34134 0.35285 0.0
C2064 C 0.16468 0.33715 0.38352 0.0
C2065 C 0.13063 0.30052 0.37985 0.0
C2066 C 0.1846 0.3387 0.41203 0.0
C2067 C 0.15543 0.3719 0.38637 0.0
C2068 C 0.17329 0.39281 0.36157 0.0
C2069 C 0.1704 0.42698 0.35978 0.0
C2070 C 0.14856 0.44002 0.38382 0.0
C2071 C 0.12916 0.41855 0.40891 0.0
C2072 C 0.13264 0.384 0.4101 0.0
H2073 H 0.32842 0.21303 0.65091 0.0
H2074 H 0.34806 0.19284 0.74182 0.0
H2075 H 0.38177 0.15419 0.71344 0.0
H2076 H 0.31754 0.12123 0.60722 0.0
H2077 H 0.34143 0.13915 0.57062 0.0
H2078 H 0.31778 0.1647 0.5978 0.0
H2079 H 0.37677 0.22404 0.59967 0.0
H2080 H 0.40139 0.19918 0.57324 0.0
H2081 H 0.41704 0.22257 0.61177 0.0
H2082 H 0.41535 0.1195 0.67581 0.0
H2083 H 0.44669 0.09092 0.63091 0.0
H2084 H 0.40653 0.13289 0.56352 0.0
C2085 C 0.33995 0.20072 0.66485 0.0
C2086 C 0.33564 0.20647 0.69878 0.0
C2087 C 0.35091 0.18919 0.71594 0.0
C2088 C 0.37018 0.16708 0.69999 0.0
C2089 C 0.37427 0.16238 0.66668 0.0
C2090 C 0.35972 0.17875 0.64921 0.0
C2091 C 0.369 0.16976 0.61352 0.0
C2092 C 0.33437 0.14737 0.59628 0.0
C2093 C 0.39248 0.20606 0.5987 0.0
C2094 C 0.39076 0.1456 0.61376 0.0
C2095 C 0.39348 0.14186 0.64478 0.0
C2096 C 0.41319 0.12202 0.65143 0.0
C2097 C 0.43087 0.10584 0.62582 0.0
C2098 C 0.42862 0.10927 0.59386 0.0
C2099 C 0.40814 0.12929 0.58775 0.0
H2100 H 0.84747 0.36805 0.71118 0.0
H2101 H 0.83632 0.25759 0.66026 0.0
H2102 H 0.88306 0.28782 0.61832 0.0
H2103 H 0.85448 0.41156 0.64547 0.0
H2104 H 0.88874 0.45685 0.65821 0.0
H2105 H 0.85931 0.4284 0.68748 0.0
H2106 H 0.91201 0.42836 0.71368 0.0
H2107 H 0.94317 0.45859 0.68574 0.0
H2108 H 0.94664 0.41475 0.68947 0.0
H2109 H 0.92779 0.33048 0.57955 0.0
H2110 H 0.96194 0.38152 0.54573 0.0
H2111 H 0.94214 0.46337 0.62115 0.0
C2112 C 0.85492 0.35022 0.69126 0.0
C2113 C 0.83847 0.3104 0.68914 0.0
C2114 C 0.84905 0.28813 0.66268 0.0
C2115 C 0.87559 0.30506 0.63872 0.0
C2116 C 0.89145 0.34439 0.64156 0.0
C2117 C 0.88141 0.36669 0.66714 0.0
C2118 C 0.90103 0.40825 0.66357 0.0
C2119 C 0.87421 0.42732 0.66359 0.0
C2120 C 0.92727 0.42869 0.68967 0.0
C2121 C 0.92161 0.40575 0.63111 0.0
C2122 C 0.9168 0.36881 0.61918 0.0
C2123 C 0.93206 0.35953 0.58885 0.0
C2124 C 0.95156 0.38863 0.56988 0.0
C2125 C 0.95479 0.42617 0.58115 0.0
C2126 C 0.94035 0.43485 0.61232 0.0
H2127 H 0.22331 0.72388 0.66184 0.0
H2128 H 0.21289 0.62971 0.70908 0.0
H2129 H 0.18262 0.58517 0.66347 0.0
H2130 H 0.13396 0.68004 0.63846 0.0
H2131 H 0.14509 0.70115 0.602 0.0
H2132 H 0.17109 0.72501 0.63569 0.0
H2133 H 0.23004 0.72772 0.60008 0.0
H2134 H 0.20412 0.7032 0.56634 0.0
H2135 H 0.23355 0.68459 0.57911 0.0
H2136 H 0.15175 0.55128 0.61354 0.0
H2137 H 0.11163 0.52964 0.56985 0.0
H2138 H 0.13656 0.64633 0.55876 0.0
C2139 C 0.21517 0.6939 0.66249 0.0
C2140 C 0.22203 0.6803 0.68836 0.0
C2141 C 0.20958 0.64082 0.68876 0.0
C2142 C 0.19224 0.61533 0.66303 0.0
C2143 C 0.18662 0.62983 0.63759 0.0
C2144 C 0.19683 0.66818 0.63763 0.0
C2145 C 0.18298 0.67648 0.61001 0.0
C2146 C 0.15672 0.69685 0.62227 0.0
C2147 C 0.21457 0.69935 0.58755 0.0
C2148 C 0.16333 0.63671 0.59427 0.0
C2149 C 0.16648 0.61025 0.61009 0.0
C2150 C 0.14924 0.57162 0.60082 0.0
C2151 C 0.12676 0.55964 0.57574 0.0
C2152 C 0.12109 0.58633 0.56079 0.0
C2153 C 0.14069 0.6253 0.56949 0.0
loop_
_geom_bond_atom_site_label_1
_geom_bond_atom_site_label_2
_geom_bond_distance
_geom_bond_site_symmetry_2
_ccdc_geom_bond_type
Tb0 N29 2.617 . S
Tb0 N35 2.572 . S
Tb0 O44 2.465 . S
Tb0 O45 2.387 . S
Tb0 O47 2.428 . S
Tb0 O48 2.308 . S
Tb0 O52 2.349 . S
Tb0 O55 2.393 . S
Tb0 C64 2.802 . S
C1 N2 1.379 . S
C1 C4 1.416 . S
C1 C8 1.424 . S
N2 C1 1.379 . S
N2 C5 1.334 . S
N2 Tb11 2.617 . S
C3 C5 1.390 . S
C3 C6 1.339 . S
C3 H23 0.930 . S
C4 C1 1.416 . S
C4 C6 1.416 . S
C4 C10 1.448 . S
C5 N2 1.334 . S
C5 C3 1.390 . S
C5 H16 0.930 . S
C6 C3 1.339 . S
C6 C4 1.416 . S
C6 H27 0.930 . S
C7 C8 1.413 . S
C7 C9 1.427 . S
C7 C13 1.416 . S
C8 C1 1.424 . S
C8 C7 1.413 . S
C8 N12 1.361 . S
C9 C7 1.427 . S
C9 C10 1.328 . S
C9 H24 0.929 . S
C10 C4 1.448 . S
C10 C9 1.328 . S
C10 H25 0.930 . S
Tb11 N2 2.617 . S
Tb11 N12 2.572 . S
Tb11 O46 2.349 . S
Tb11 O49 2.393 . S
Tb11 O50 2.465 . S
Tb11 O51 2.387 . S
Tb11 O53 2.428 . S
Tb11 O54 2.308 . S
Tb11 C75 2.802 . S
N12 C8 1.361 . S
N12 Tb11 2.572 . S
N12 C14 1.340 . S
C13 C7 1.416 . S
C13 C15 1.332 . S
C13 H21 0.931 . S
C14 N12 1.340 . S
C14 C15 1.407 . S
C14 H20 0.930 . S
C15 C13 1.332 . S
C15 C14 1.407 . S
C15 H17 0.929 . S
H16 C5 0.930 . S
H17 C15 0.929 . S
H18 C33 0.930 . S
H19 C40 0.929 . S
H20 C14 0.930 . S
H21 C13 0.931 . S
H22 C36 0.930 . S
H23 C3 0.930 . S
H24 C9 0.929 . S
H25 C10 0.930 . S
H26 C31 0.930 . S
H27 C6 0.930 . S
H28 C39 0.931 . S
N29 Tb0 2.617 . S
N29 C30 1.379 . S
N29 C33 1.334 . S
C30 N29 1.379 . S
C30 C32 1.416 . S
C30 C38 1.424 . S
C31 H26 0.930 . S
C31 C33 1.390 . S
C31 C34 1.339 . S
C32 C30 1.416 . S
C32 C34 1.416 . S
C32 C65 1.448 . S
C33 H18 0.930 . S
C33 N29 1.334 . S
C33 C31 1.390 . S
C34 C31 1.339 . S
C34 C32 1.416 . S
C34 H41 0.930 . S
N35 Tb0 2.572 . S
N35 C36 1.340 . S
N35 C38 1.361 . S
C36 H22 0.930 . S
C36 N35 1.340 . S
C36 C40 1.407 . S
C37 C38 1.413 . S
C37 C39 1.416 . S
C37 C66 1.427 . S
C38 C30 1.424 . S
C38 N35 1.361 . S
C38 C37 1.413 . S
C39 H28 0.931 . S
C39 C37 1.416 . S
C39 C40 1.332 . S
C40 H19 0.929 . S
C40 C36 1.407 . S
C40 C39 1.332 . S
H41 C34 0.930 . S
H42 C65 0.930 . S
H43 C66 0.929 . S
O44 Tb0 2.465 . S
O44 C64 1.264 . S
O45 Tb0 2.387 . S
O45 C56 1.264 . S
O46 Tb11 2.349 . S
O46 C56 1.243 . S
O47 Tb0 2.428 . S
O47 C64 1.256 . S
O48 Tb0 2.308 . S
O48 C63 1.266 . S
O49 Tb11 2.393 . S
O49 C63 1.248 . S
O50 Tb11 2.465 . S
O50 C75 1.264 . S
O51 Tb11 2.387 . S
O51 C67 1.264 . S
O52 Tb0 2.349 . S
O52 C67 1.243 . S
O53 Tb11 2.428 . S
O53 C75 1.256 . S
O54 Tb11 2.308 . S
O54 C74 1.266 . S
O55 Tb0 2.393 . S
O55 C74 1.248 . S
C56 O45 1.264 . S
C56 O46 1.243 . S
C57 C60 1.399 . S
C57 C62 1.383 . S
C57 C64 1.496 . S
C58 C59 1.399 . S
C58 C62 1.389 . S
C59 C58 1.399 . S
C59 C61 1.380 . S
C59 H76 0.929 . S
C60 C57 1.399 . S
C60 C61 1.392 . S
C60 H77 0.929 . S
C61 C59 1.380 . S
C61 C60 1.392 . S
C61 H78 0.929 . S
C62 C57 1.383 . S
C62 C58 1.389 . S
C62 H79 0.931 . S
C63 O48 1.266 . S
C63 O49 1.248 . S
C64 Tb0 2.802 . S
C64 O44 1.264 . S
C64 O47 1.256 . S
C64 C57 1.496 . S
C65 C32 1.448 . S
C65 H42 0.930 . S
C65 C66 1.328 . S
C66 C37 1.427 . S
C66 H43 0.929 . S
C66 C65 1.328 . S
C67 O51 1.264 . S
C67 O52 1.243 . S
C68 C71 1.399 . S
C68 C72 1.383 . S
C68 C75 1.496 . S
C69 C70 1.399 . S
C69 C72 1.389 . S
C70 C69 1.399 . S
C70 C73 1.380 . S
C70 H80 0.929 . S
C71 C68 1.399 . S
C71 C73 1.392 . S
C71 H81 0.929 . S
C72 C68 1.383 . S
C72 C69 1.389 . S
C72 H82 0.931 . S
C73 C70 1.380 . S
C73 C71 1.392 . S
C73 H83 0.929 . S
C74 O54 1.266 . S
C74 O55 1.248 . S
C75 Tb11 2.802 . S
C75 O50 1.264 . S
C75 O53 1.256 . S
C75 C68 1.496 . S
H76 C59 0.929 . S
H77 C60 0.929 . S
H78 C61 0.929 . S
H79 C62 0.931 . S
H80 C70 0.929 . S
H81 C71 0.929 . S
H82 C72 0.931 . S
H83 C73 0.929 . S
Tb84 N113 2.617 . S
Tb84 N119 2.572 . S
Tb84 O128 2.465 . S
Tb84 O129 2.387 . S
Tb84 O131 2.428 . S
Tb84 O132 2.308 . S
Tb84 O136 2.349 . S
Tb84 O139 2.393 . S
Tb84 C148 2.802 . S
C85 N86 1.379 . S
C85 C88 1.416 . S
C85 C92 1.424 . S
N86 C85 1.379 . S
N86 C89 1.334 . S
N86 Tb95 2.617 . S
C87 C89 1.390 . S
C87 C90 1.339 . S
C87 H107 0.930 . S
C88 C85 1.416 . S
C88 C90 1.416 . S
C88 C94 1.448 . S
C89 N86 1.334 . S
C89 C87 1.390 . S
C89 H100 0.930 . S
C90 C87 1.339 . S
C90 C88 1.416 . S
C90 H111 0.930 . S
C91 C92 1.413 . S
C91 C93 1.427 . S
C91 C97 1.416 . S
C92 C85 1.424 . S
C92 C91 1.413 . S
C92 N96 1.361 . S
C93 C91 1.427 . S
C93 C94 1.328 . S
C93 H108 0.929 . S
C94 C88 1.448 . S
C94 C93 1.328 . S
C94 H109 0.930 . S
Tb95 N86 2.617 . S
Tb95 N96 2.572 . S
Tb95 O130 2.349 . S
Tb95 O133 2.393 . S
Tb95 O134 2.465 . S
Tb95 O135 2.387 . S
Tb95 O137 2.428 . S
Tb95 O138 2.308 . S
Tb95 C159 2.802 . S
N96 C92 1.361 . S
N96 Tb95 2.572 . S
N96 C98 1.340 . S
C97 C91 1.416 . S
C97 C99 1.332 . S
C97 H105 0.931 . S
C98 N96 1.340 . S
C98 C99 1.407 . S
C98 H104 0.930 . S
C99 C97 1.332 . S
C99 C98 1.407 . S
C99 H101 0.929 . S
H100 C89 0.930 . S
H101 C99 0.929 . S
H102 C117 0.930 . S
H103 C124 0.929 . S
H104 C98 0.930 . S
H105 C97 0.931 . S
H106 C120 0.930 . S
H107 C87 0.930 . S
H108 C93 0.929 . S
H109 C94 0.930 . S
H110 C115 0.930 . S
H111 C90 0.930 . S
H112 C123 0.931 . S
N113 Tb84 2.617 . S
N113 C114 1.379 . S
N113 C117 1.334 . S
C114 N113 1.379 . S
C114 C116 1.416 . S
C114 C122 1.424 . S
C115 H110 0.930 . S
C115 C117 1.390 . S
C115 C118 1.339 . S
C116 C114 1.416 . S
C116 C118 1.416 . S
C116 C149 1.448 . S
C117 H102 0.930 . S
C117 N113 1.334 . S
C117 C115 1.390 . S
C118 C115 1.339 . S
C118 C116 1.416 . S
C118 H125 0.930 . S
N119 Tb84 2.572 . S
N119 C120 1.340 . S
N119 C122 1.361 . S
C120 H106 0.930 . S
C120 N119 1.340 . S
C120 C124 1.407 . S
C121 C122 1.413 . S
C121 C123 1.416 . S
C121 C150 1.427 . S
C122 C114 1.424 . S
C122 N119 1.361 . S
C122 C121 1.413 . S
C123 H112 0.931 . S
C123 C121 1.416 . S
C123 C124 1.332 . S
C124 H103 0.929 . S
C124 C120 1.407 . S
C124 C123 1.332 . S
H125 C118 0.930 . S
H126 C149 0.930 . S
H127 C150 0.929 . S
O128 Tb84 2.465 . S
O128 C148 1.264 . S
O129 Tb84 2.387 . S
O129 C140 1.264 . S
O130 Tb95 2.349 . S
O130 C140 1.243 . S
O131 Tb84 2.428 . S
O131 C148 1.256 . S
O132 Tb84 2.308 . S
O132 C147 1.266 . S
O133 Tb95 2.393 . S
O133 C147 1.248 . S
O134 Tb95 2.465 . S
O134 C159 1.264 . S
O135 Tb95 2.387 . S
O135 C151 1.264 . S
O136 Tb84 2.349 . S
O136 C151 1.243 . S
O137 Tb95 2.428 . S
O137 C159 1.256 . S
O138 Tb95 2.308 . S
O138 C158 1.266 . S
O139 Tb84 2.393 . S
O139 C158 1.248 . S
C140 O129 1.264 . S
C140 O130 1.243 . S
C141 C144 1.399 . S
C141 C146 1.383 . S
C141 C148 1.496 . S
C142 C143 1.399 . S
C142 C146 1.389 . S
C143 C142 1.399 . S
C143 C145 1.380 . S
C143 H160 0.929 . S
C144 C141 1.399 . S
C144 C145 1.392 . S
C144 H161 0.929 . S
C145 C143 1.380 . S
C145 C144 1.392 . S
C145 H162 0.929 . S
C146 C141 1.383 . S
C146 C142 1.389 . S
C146 H163 0.931 . S
C147 O132 1.266 . S
C147 O133 1.248 . S
C148 Tb84 2.802 . S
C148 O128 1.264 . S
C148 O131 1.256 . S
C148 C141 1.496 . S
C149 C116 1.448 . S
C149 H126 0.930 . S
C149 C150 1.328 . S
C150 C121 1.427 . S
C150 H127 0.929 . S
C150 C149 1.328 . S
C151 O135 1.264 . S
C151 O136 1.243 . S
C152 C155 1.399 . S
C152 C156 1.383 . S
C152 C159 1.496 . S
C153 C154 1.399 . S
C153 C156 1.389 . S
C154 C153 1.399 . S
C154 C157 1.380 . S
C154 H164 0.929 . S
C155 C152 1.399 . S
C155 C157 1.392 . S
C155 H165 0.929 . S
C156 C152 1.383 . S
C156 C153 1.389 . S
C156 H166 0.931 . S
C157 C154 1.380 . S
C157 C155 1.392 . S
C157 H167 0.929 . S
C158 O138 1.266 . S
C158 O139 1.248 . S
C159 Tb95 2.802 . S
C159 O134 1.264 . S
C159 O137 1.256 . S
C159 C152 1.496 . S
H160 C143 0.929 . S
H161 C144 0.929 . S
H162 C145 0.929 . S
H163 C146 0.931 . S
H164 C154 0.929 . S
H165 C155 0.929 . S
H166 C156 0.931 . S
H167 C157 0.929 . S
Tb168 N197 2.617 . S
Tb168 N203 2.572 . S
Tb168 O212 2.465 . S
Tb168 O213 2.387 . S
Tb168 O215 2.428 . S
Tb168 O216 2.308 . S
Tb168 O220 2.349 . S
Tb168 O223 2.393 . S
Tb168 C232 2.802 . S
C169 N170 1.379 . S
C169 C172 1.416 . S
C169 C176 1.424 . S
N170 C169 1.379 . S
N170 C173 1.334 . S
N170 Tb179 2.617 . S
C171 C173 1.390 . S
C171 C174 1.339 . S
C171 H191 0.930 . S
C172 C169 1.416 . S
C172 C174 1.416 . S
C172 C178 1.448 . S
C173 N170 1.334 . S
C173 C171 1.390 . S
C173 H184 0.930 . S
C174 C171 1.339 . S
C174 C172 1.416 . S
C174 H195 0.930 . S
C175 C176 1.413 . S
C175 C177 1.427 . S
C175 C181 1.416 . S
C176 C169 1.424 . S
C176 C175 1.413 . S
C176 N180 1.361 . S
C177 C175 1.427 . S
C177 C178 1.328 . S
C177 H192 0.929 . S
C178 C172 1.448 . S
C178 C177 1.328 . S
C178 H193 0.930 . S
Tb179 N170 2.617 . S
Tb179 N180 2.572 . S
Tb179 O214 2.349 . S
Tb179 O217 2.393 . S
Tb179 O218 2.465 . S
Tb179 O219 2.387 . S
Tb179 O221 2.428 . S
Tb179 O222 2.308 . S
Tb179 C243 2.802 . S
N180 C176 1.361 . S
N180 Tb179 2.572 . S
N180 C182 1.340 . S
C181 C175 1.416 . S
C181 C183 1.332 . S
C181 H189 0.931 . S
C182 N180 1.340 . S
C182 C183 1.407 . S
C182 H188 0.930 . S
C183 C181 1.332 . S
C183 C182 1.407 . S
C183 H185 0.929 . S
H184 C173 0.930 . S
H185 C183 0.929 . S
H186 C201 0.930 . S
H187 C208 0.929 . S
H188 C182 0.930 . S
H189 C181 0.931 . S
H190 C204 0.930 . S
H191 C171 0.930 . S
H192 C177 0.929 . S
H193 C178 0.930 . S
H194 C199 0.930 . S
H195 C174 0.930 . S
H196 C207 0.931 . S
N197 Tb168 2.617 . S
N197 C198 1.379 . S
N197 C201 1.334 . S
C198 N197 1.379 . S
C198 C200 1.416 . S
C198 C206 1.424 . S
C199 H194 0.930 . S
C199 C201 1.390 . S
C199 C202 1.339 . S
C200 C198 1.416 . S
C200 C202 1.416 . S
C200 C233 1.448 . S
C201 H186 0.930 . S
C201 N197 1.334 . S
C201 C199 1.390 . S
C202 C199 1.339 . S
C202 C200 1.416 . S
C202 H209 0.930 . S
N203 Tb168 2.572 . S
N203 C204 1.340 . S
N203 C206 1.361 . S
C204 H190 0.930 . S
C204 N203 1.340 . S
C204 C208 1.407 . S
C205 C206 1.413 . S
C205 C207 1.416 . S
C205 C234 1.427 . S
C206 C198 1.424 . S
C206 N203 1.361 . S
C206 C205 1.413 . S
C207 H196 0.931 . S
C207 C205 1.416 . S
C207 C208 1.332 . S
C208 H187 0.929 . S
C208 C204 1.407 . S
C208 C207 1.332 . S
H209 C202 0.930 . S
H210 C233 0.930 . S
H211 C234 0.929 . S
O212 Tb168 2.465 . S
O212 C232 1.264 . S
O213 Tb168 2.387 . S
O213 C224 1.264 . S
O214 Tb179 2.349 . S
O214 C224 1.243 . S
O215 Tb168 2.428 . S
O215 C232 1.256 . S
O216 Tb168 2.308 . S
O216 C231 1.266 . S
O217 Tb179 2.393 . S
O217 C231 1.248 . S
O218 Tb179 2.465 . S
O218 C243 1.264 . S
O219 Tb179 2.387 . S
O219 C235 1.264 . S
O220 Tb168 2.349 . S
O220 C235 1.243 . S
O221 Tb179 2.428 . S
O221 C243 1.256 . S
O222 Tb179 2.308 . S
O222 C242 1.266 . S
O223 Tb168 2.393 . S
O223 C242 1.248 . S
C224 O213 1.264 . S
C224 O214 1.243 . S
C225 C228 1.399 . S
C225 C230 1.383 . S
C225 C232 1.496 . S
C226 C227 1.399 . S
C226 C230 1.389 . S
C227 C226 1.399 . S
C227 C229 1.380 . S
C227 H244 0.929 . S
C228 C225 1.399 . S
C228 C229 1.392 . S
C228 H245 0.929 . S
C229 C227 1.380 . S
C229 C228 1.392 . S
C229 H246 0.929 . S
C230 C225 1.383 . S
C230 C226 1.389 . S
C230 H247 0.931 . S
C231 O216 1.266 . S
C231 O217 1.248 . S
C232 Tb168 2.802 . S
C232 O212 1.264 . S
C232 O215 1.256 . S
C232 C225 1.496 . S
C233 C200 1.448 . S
C233 H210 0.930 . S
C233 C234 1.328 . S
C234 C205 1.427 . S
C234 H211 0.929 . S
C234 C233 1.328 . S
C235 O219 1.264 . S
C235 O220 1.243 . S
C236 C239 1.399 . S
C236 C240 1.383 . S
C236 C243 1.496 . S
C237 C238 1.399 . S
C237 C240 1.389 . S
C238 C237 1.399 . S
C238 C241 1.380 . S
C238 H248 0.929 . S
C239 C236 1.399 . S
C239 C241 1.392 . S
C239 H249 0.929 . S
C240 C236 1.383 . S
C240 C237 1.389 . S
C240 H250 0.931 . S
C241 C238 1.380 . S
C241 C239 1.392 . S
C241 H251 0.929 . S
C242 O222 1.266 . S
C242 O223 1.248 . S
C243 Tb179 2.802 . S
C243 O218 1.264 . S
C243 O221 1.256 . S
C243 C236 1.496 . S
H244 C227 0.929 . S
H245 C228 0.929 . S
H246 C229 0.929 . S
H247 C230 0.931 . S
H248 C238 0.929 . S
H249 C239 0.929 . S
H250 C240 0.931 . S
H251 C241 0.929 . S
Tb252 N281 2.617 . S
Tb252 N287 2.572 . S
Tb252 O296 2.465 . S
Tb252 O297 2.387 . S
Tb252 O299 2.428 . S
Tb252 O300 2.308 . S
Tb252 O304 2.349 . S
Tb252 O307 2.393 . S
Tb252 C316 2.802 . S
C253 N254 1.379 . S
C253 C256 1.416 . S
C253 C260 1.424 . S
N254 C253 1.379 . S
N254 C257 1.334 . S
N254 Tb263 2.617 . S
C255 C257 1.390 . S
C255 C258 1.339 . S
C255 H275 0.930 . S
C256 C253 1.416 . S
C256 C258 1.416 . S
C256 C262 1.448 . S
C257 N254 1.334 . S
C257 C255 1.390 . S
C257 H268 0.930 . S
C258 C255 1.339 . S
C258 C256 1.416 . S
C258 H279 0.930 . S
C259 C260 1.413 . S
C259 C261 1.427 . S
C259 C265 1.416 . S
C260 C253 1.424 . S
C260 C259 1.413 . S
C260 N264 1.361 . S
C261 C259 1.427 . S
C261 C262 1.328 . S
C261 H276 0.929 . S
C262 C256 1.448 . S
C262 C261 1.328 . S
C262 H277 0.930 . S
Tb263 N254 2.617 . S
Tb263 N264 2.572 . S
Tb263 O298 2.349 . S
Tb263 O301 2.393 . S
Tb263 O302 2.465 . S
Tb263 O303 2.387 . S
Tb263 O305 2.428 . S
Tb263 O306 2.308 . S
Tb263 C327 2.802 . S
N264 C260 1.361 . S
N264 Tb263 2.572 . S
N264 C266 1.340 . S
C265 C259 1.416 . S
C265 C267 1.332 . S
C265 H273 0.931 . S
C266 N264 1.340 . S
C266 C267 1.407 . S
C266 H272 0.930 . S
C267 C265 1.332 . S
C267 C266 1.407 . S
C267 H269 0.929 . S
H268 C257 0.930 . S
H269 C267 0.929 . S
H270 C285 0.930 . S
H271 C292 0.929 . S
H272 C266 0.930 . S
H273 C265 0.931 . S
H274 C288 0.930 . S
H275 C255 0.930 . S
H276 C261 0.929 . S
H277 C262 0.930 . S
H278 C283 0.930 . S
H279 C258 0.930 . S
H280 C291 0.931 . S
N281 Tb252 2.617 . S
N281 C282 1.379 . S
N281 C285 1.334 . S
C282 N281 1.379 . S
C282 C284 1.416 . S
C282 C290 1.424 . S
C283 H278 0.930 . S
C283 C285 1.390 . S
C283 C286 1.339 . S
C284 C282 1.416 . S
C284 C286 1.416 . S
C284 C317 1.448 . S
C285 H270 0.930 . S
C285 N281 1.334 . S
C285 C283 1.390 . S
C286 C283 1.339 . S
C286 C284 1.416 . S
C286 H293 0.930 . S
N287 Tb252 2.572 . S
N287 C288 1.340 . S
N287 C290 1.361 . S
C288 H274 0.930 . S
C288 N287 1.340 . S
C288 C292 1.407 . S
C289 C290 1.413 . S
C289 C291 1.416 . S
C289 C318 1.427 . S
C290 C282 1.424 . S
C290 N287 1.361 . S
C290 C289 1.413 . S
C291 H280 0.931 . S
C291 C289 1.416 . S
C291 C292 1.332 . S
C292 H271 0.929 . S
C292 C288 1.407 . S
C292 C291 1.332 . S
H293 C286 0.930 . S
H294 C317 0.930 . S
H295 C318 0.929 . S
O296 Tb252 2.465 . S
O296 C316 1.264 . S
O297 Tb252 2.387 . S
O297 C308 1.264 . S
O298 Tb263 2.349 . S
O298 C308 1.243 . S
O299 Tb252 2.428 . S
O299 C316 1.256 . S
O300 Tb252 2.308 . S
O300 C315 1.266 . S
O301 Tb263 2.393 . S
O301 C315 1.248 . S
O302 Tb263 2.465 . S
O302 C327 1.264 . S
O303 Tb263 2.387 . S
O303 C319 1.264 . S
O304 Tb252 2.349 . S
O304 C319 1.243 . S
O305 Tb263 2.428 . S
O305 C327 1.256 . S
O306 Tb263 2.308 . S
O306 C326 1.266 . S
O307 Tb252 2.393 . S
O307 C326 1.248 . S
C308 O297 1.264 . S
C308 O298 1.243 . S
C309 C312 1.399 . S
C309 C314 1.383 . S
C309 C316 1.496 . S
C310 C311 1.399 . S
C310 C314 1.389 . S
C311 C310 1.399 . S
C311 C313 1.380 . S
C311 H328 0.929 . S
C312 C309 1.399 . S
C312 C313 1.392 . S
C312 H329 0.929 . S
C313 C311 1.380 . S
C313 C312 1.392 . S
C313 H330 0.929 . S
C314 C309 1.383 . S
C314 C310 1.389 . S
C314 H331 0.931 . S
C315 O300 1.266 . S
C315 O301 1.248 . S
C316 Tb252 2.802 . S
C316 O296 1.264 . S
C316 O299 1.256 . S
C316 C309 1.496 . S
C317 C284 1.448 . S
C317 H294 0.930 . S
C317 C318 1.328 . S
C318 C289 1.427 . S
C318 H295 0.929 . S
C318 C317 1.328 . S
C319 O303 1.264 . S
C319 O304 1.243 . S
C320 C323 1.399 . S
C320 C324 1.383 . S
C320 C327 1.496 . S
C321 C322 1.399 . S
C321 C324 1.389 . S
C322 C321 1.399 . S
C322 C325 1.380 . S
C322 H332 0.929 . S
C323 C320 1.399 . S
C323 C325 1.392 . S
C323 H333 0.929 . S
C324 C320 1.383 . S
C324 C321 1.389 . S
C324 H334 0.931 . S
C325 C322 1.380 . S
C325 C323 1.392 . S
C325 H335 0.929 . S
C326 O306 1.266 . S
C326 O307 1.248 . S
C327 Tb263 2.802 . S
C327 O302 1.264 . S
C327 O305 1.256 . S
C327 C320 1.496 . S
H328 C311 0.929 . S
H329 C312 0.929 . S
H330 C313 0.929 . S
H331 C314 0.931 . S
H332 C322 0.929 . S
H333 C323 0.929 . S
H334 C324 0.931 . S
H335 C325 0.929 . S
Tb336 N365 2.617 . S
Tb336 N371 2.572 . S
Tb336 O380 2.465 . S
Tb336 O381 2.387 . S
Tb336 O383 2.428 . S
Tb336 O384 2.308 . S
Tb336 O388 2.349 . S
Tb336 O391 2.393 . S
Tb336 C400 2.802 . S
C337 N338 1.379 . S
C337 C340 1.416 . S
C337 C344 1.424 . S
N338 C337 1.379 . S
N338 C341 1.334 . S
N338 Tb347 2.617 . S
C339 C341 1.390 . S
C339 C342 1.339 . S
C339 H359 0.930 . S
C340 C337 1.416 . S
C340 C342 1.416 . S
C340 C346 1.448 . S
C341 N338 1.334 . S
C341 C339 1.390 . S
C341 H352 0.930 . S
C342 C339 1.339 . S
C342 C340 1.416 . S
C342 H363 0.930 . S
C343 C344 1.413 . S
C343 C345 1.427 . S
C343 C349 1.416 . S
C344 C337 1.424 . S
C344 C343 1.413 . S
C344 N348 1.361 . S
C345 C343 1.427 . S
C345 C346 1.328 . S
C345 H360 0.929 . S
C346 C340 1.448 . S
C346 C345 1.328 . S
C346 H361 0.930 . S
Tb347 N338 2.617 . S
Tb347 N348 2.572 . S
Tb347 O382 2.349 . S
Tb347 O385 2.393 . S
Tb347 O386 2.465 . S
Tb347 O387 2.387 . S
Tb347 O389 2.428 . S
Tb347 O390 2.308 . S
Tb347 C411 2.802 . S
N348 C344 1.361 . S
N348 Tb347 2.572 . S
N348 C350 1.340 . S
C349 C343 1.416 . S
C349 C351 1.332 . S
C349 H357 0.931 . S
C350 N348 1.340 . S
C350 C351 1.407 . S
C350 H356 0.930 . S
C351 C349 1.332 . S
C351 C350 1.407 . S
C351 H353 0.929 . S
H352 C341 0.930 . S
H353 C351 0.929 . S
H354 C369 0.930 . S
H355 C376 0.929 . S
H356 C350 0.930 . S
H357 C349 0.931 . S
H358 C372 0.930 . S
H359 C339 0.930 . S
H360 C345 0.929 . S
H361 C346 0.930 . S
H362 C367 0.930 . S
H363 C342 0.930 . S
H364 C375 0.931 . S
N365 Tb336 2.617 . S
N365 C366 1.379 . S
N365 C369 1.334 . S
C366 N365 1.379 . S
C366 C368 1.416 . S
C366 C374 1.424 . S
C367 H362 0.930 . S
C367 C369 1.390 . S
C367 C370 1.339 . S
C368 C366 1.416 . S
C368 C370 1.416 . S
C368 C401 1.448 . S
C369 H354 0.930 . S
C369 N365 1.334 . S
C369 C367 1.390 . S
C370 C367 1.339 . S
C370 C368 1.416 . S
C370 H377 0.930 . S
N371 Tb336 2.572 . S
N371 C372 1.340 . S
N371 C374 1.361 . S
C372 H358 0.930 . S
C372 N371 1.340 . S
C372 C376 1.407 . S
C373 C374 1.413 . S
C373 C375 1.416 . S
C373 C402 1.427 . S
C374 C366 1.424 . S
C374 N371 1.361 . S
C374 C373 1.413 . S
C375 H364 0.931 . S
C375 C373 1.416 . S
C375 C376 1.332 . S
C376 H355 0.929 . S
C376 C372 1.407 . S
C376 C375 1.332 . S
H377 C370 0.930 . S
H378 C401 0.930 . S
H379 C402 0.929 . S
O380 Tb336 2.465 . S
O380 C400 1.264 . S
O381 Tb336 2.387 . S
O381 C392 1.264 . S
O382 Tb347 2.349 . S
O382 C392 1.243 . S
O383 Tb336 2.428 . S
O383 C400 1.256 . S
O384 Tb336 2.308 . S
O384 C399 1.266 . S
O385 Tb347 2.393 . S
O385 C399 1.248 . S
O386 Tb347 2.465 . S
O386 C411 1.264 . S
O387 Tb347 2.387 . S
O387 C403 1.264 . S
O388 Tb336 2.349 . S
O388 C403 1.243 . S
O389 Tb347 2.428 . S
O389 C411 1.256 . S
O390 Tb347 2.308 . S
O390 C410 1.266 . S
O391 Tb336 2.393 . S
O391 C410 1.248 . S
C392 O381 1.264 . S
C392 O382 1.243 . S
C393 C396 1.399 . S
C393 C398 1.383 . S
C393 C400 1.496 . S
C394 C395 1.399 . S
C394 C398 1.389 . S
C395 C394 1.399 . S
C395 C397 1.380 . S
C395 H412 0.929 . S
C396 C393 1.399 . S
C396 C397 1.392 . S
C396 H413 0.929 . S
C397 C395 1.380 . S
C397 C396 1.392 . S
C397 H414 0.929 . S
C398 C393 1.383 . S
C398 C394 1.389 . S
C398 H415 0.931 . S
C399 O384 1.266 . S
C399 O385 1.248 . S
C400 Tb336 2.802 . S
C400 O380 1.264 . S
C400 O383 1.256 . S
C400 C393 1.496 . S
C401 C368 1.448 . S
C401 H378 0.930 . S
C401 C402 1.328 . S
C402 C373 1.427 . S
C402 H379 0.929 . S
C402 C401 1.328 . S
C403 O387 1.264 . S
C403 O388 1.243 . S
C404 C407 1.399 . S
C404 C408 1.383 . S
C404 C411 1.496 . S
C405 C406 1.399 . S
C405 C408 1.389 . S
C406 C405 1.399 . S
C406 C409 1.380 . S
C406 H416 0.929 . S
C407 C404 1.399 . S
C407 C409 1.392 . S
C407 H417 0.929 . S
C408 C404 1.383 . S
C408 C405 1.389 . S
C408 H418 0.931 . S
C409 C406 1.380 . S
C409 C407 1.392 . S
C409 H419 0.929 . S
C410 O390 1.266 . S
C410 O391 1.248 . S
C411 Tb347 2.802 . S
C411 O386 1.264 . S
C411 O389 1.256 . S
C411 C404 1.496 . S
H412 C395 0.929 . S
H413 C396 0.929 . S
H414 C397 0.929 . S
H415 C398 0.931 . S
H416 C406 0.929 . S
H417 C407 0.929 . S
H418 C408 0.931 . S
H419 C409 0.929 . S
Tb420 N449 2.617 . S
Tb420 N455 2.572 . S
Tb420 O464 2.465 . S
Tb420 O465 2.387 . S
Tb420 O467 2.428 . S
Tb420 O468 2.308 . S
Tb420 O472 2.349 . S
Tb420 O475 2.393 . S
Tb420 C484 2.802 . S
C421 N422 1.379 . S
C421 C424 1.416 . S
C421 C428 1.424 . S
N422 C421 1.379 . S
N422 C425 1.334 . S
N422 Tb431 2.617 . S
C423 C425 1.390 . S
C423 C426 1.339 . S
C423 H443 0.930 . S
C424 C421 1.416 . S
C424 C426 1.416 . S
C424 C430 1.448 . S
C425 N422 1.334 . S
C425 C423 1.390 . S
C425 H436 0.930 . S
C426 C423 1.339 . S
C426 C424 1.416 . S
C426 H447 0.930 . S
C427 C428 1.413 . S
C427 C429 1.427 . S
C427 C433 1.416 . S
C428 C421 1.424 . S
C428 C427 1.413 . S
C428 N432 1.361 . S
C429 C427 1.427 . S
C429 C430 1.328 . S
C429 H444 0.929 . S
C430 C424 1.448 . S
C430 C429 1.328 . S
C430 H445 0.930 . S
Tb431 N422 2.617 . S
Tb431 N432 2.572 . S
Tb431 O466 2.349 . S
Tb431 O469 2.393 . S
Tb431 O470 2.465 . S
Tb431 O471 2.387 . S
Tb431 O473 2.428 . S
Tb431 O474 2.308 . S
Tb431 C495 2.802 . S
N432 C428 1.361 . S
N432 Tb431 2.572 . S
N432 C434 1.340 . S
C433 C427 1.416 . S
C433 C435 1.332 . S
C433 H441 0.931 . S
C434 N432 1.340 . S
C434 C435 1.407 . S
C434 H440 0.930 . S
C435 C433 1.332 . S
C435 C434 1.407 . S
C435 H437 0.929 . S
H436 C425 0.930 . S
H437 C435 0.929 . S
H438 C453 0.930 . S
H439 C460 0.929 . S
H440 C434 0.930 . S
H441 C433 0.931 . S
H442 C456 0.930 . S
H443 C423 0.930 . S
H444 C429 0.929 . S
H445 C430 0.930 . S
H446 C451 0.930 . S
H447 C426 0.930 . S
H448 C459 0.931 . S
N449 Tb420 2.617 . S
N449 C450 1.379 . S
N449 C453 1.334 . S
C450 N449 1.379 . S
C450 C452 1.416 . S
C450 C458 1.424 . S
C451 H446 0.930 . S
C451 C453 1.390 . S
C451 C454 1.339 . S
C452 C450 1.416 . S
C452 C454 1.416 . S
C452 C485 1.448 . S
C453 H438 0.930 . S
C453 N449 1.334 . S
C453 C451 1.390 . S
C454 C451 1.339 . S
C454 C452 1.416 . S
C454 H461 0.930 . S
N455 Tb420 2.572 . S
N455 C456 1.340 . S
N455 C458 1.361 . S
C456 H442 0.930 . S
C456 N455 1.340 . S
C456 C460 1.407 . S
C457 C458 1.413 . S
C457 C459 1.416 . S
C457 C486 1.427 . S
C458 C450 1.424 . S
C458 N455 1.361 . S
C458 C457 1.413 . S
C459 H448 0.931 . S
C459 C457 1.416 . S
C459 C460 1.332 . S
C460 H439 0.929 . S
C460 C456 1.407 . S
C460 C459 1.332 . S
H461 C454 0.930 . S
H462 C485 0.930 . S
H463 C486 0.929 . S
O464 Tb420 2.465 . S
O464 C484 1.264 . S
O465 Tb420 2.387 . S
O465 C476 1.264 . S
O466 Tb431 2.349 . S
O466 C476 1.243 . S
O467 Tb420 2.428 . S
O467 C484 1.256 . S
O468 Tb420 2.308 . S
O468 C483 1.266 . S
O469 Tb431 2.393 . S
O469 C483 1.248 . S
O470 Tb431 2.465 . S
O470 C495 1.264 . S
O471 Tb431 2.387 . S
O471 C487 1.264 . S
O472 Tb420 2.349 . S
O472 C487 1.243 . S
O473 Tb431 2.428 . S
O473 C495 1.256 . S
O474 Tb431 2.308 . S
O474 C494 1.266 . S
O475 Tb420 2.393 . S
O475 C494 1.248 . S
C476 O465 1.264 . S
C476 O466 1.243 . S
C477 C480 1.399 . S
C477 C482 1.383 . S
C477 C484 1.496 . S
C478 C479 1.399 . S
C478 C482 1.389 . S
C479 C478 1.399 . S
C479 C481 1.380 . S
C479 H496 0.929 . S
C480 C477 1.399 . S
C480 C481 1.392 . S
C480 H497 0.929 . S
C481 C479 1.380 . S
C481 C480 1.392 . S
C481 H498 0.929 . S
C482 C477 1.383 . S
C482 C478 1.389 . S
C482 H499 0.931 . S
C483 O468 1.266 . S
C483 O469 1.248 . S
C484 Tb420 2.802 . S
C484 O464 1.264 . S
C484 O467 1.256 . S
C484 C477 1.496 . S
C485 C452 1.448 . S
C485 H462 0.930 . S
C485 C486 1.328 . S
C486 C457 1.427 . S
C486 H463 0.929 . S
C486 C485 1.328 . S
C487 O471 1.264 . S
C487 O472 1.243 . S
C488 C491 1.399 . S
C488 C492 1.383 . S
C488 C495 1.496 . S
C489 C490 1.399 . S
C489 C492 1.389 . S
C490 C489 1.399 . S
C490 C493 1.380 . S
C490 H500 0.929 . S
C491 C488 1.399 . S
C491 C493 1.392 . S
C491 H501 0.929 . S
C492 C488 1.383 . S
C492 C489 1.389 . S
C492 H502 0.931 . S
C493 C490 1.380 . S
C493 C491 1.392 . S
C493 H503 0.929 . S
C494 O474 1.266 . S
C494 O475 1.248 . S
C495 Tb431 2.802 . S
C495 O470 1.264 . S
C495 O473 1.256 . S
C495 C488 1.496 . S
H496 C479 0.929 . S
H497 C480 0.929 . S
H498 C481 0.929 . S
H499 C482 0.931 . S
H500 C490 0.929 . S
H501 C491 0.929 . S
H502 C492 0.931 . S
H503 C493 0.929 . S
Tb504 N533 2.617 . S
Tb504 N539 2.572 . S
Tb504 O548 2.465 . S
Tb504 O549 2.387 . S
Tb504 O551 2.428 . S
Tb504 O552 2.308 . S
Tb504 O556 2.349 . S
Tb504 O559 2.393 . S
Tb504 C568 2.802 . S
C505 N506 1.379 . S
C505 C508 1.416 . S
C505 C512 1.424 . S
N506 C505 1.379 . S
N506 C509 1.334 . S
N506 Tb515 2.617 . S
C507 C509 1.390 . S
C507 C510 1.339 . S
C507 H527 0.930 . S
C508 C505 1.416 . S
C508 C510 1.416 . S
C508 C514 1.448 . S
C509 N506 1.334 . S
C509 C507 1.390 . S
C509 H520 0.930 . S
C510 C507 1.339 . S
C510 C508 1.416 . S
C510 H531 0.930 . S
C511 C512 1.413 . S
C511 C513 1.427 . S
C511 C517 1.416 . S
C512 C505 1.424 . S
C512 C511 1.413 . S
C512 N516 1.361 . S
C513 C511 1.427 . S
C513 C514 1.328 . S
C513 H528 0.929 . S
C514 C508 1.448 . S
C514 C513 1.328 . S
C514 H529 0.930 . S
Tb515 N506 2.617 . S
Tb515 N516 2.572 . S
Tb515 O550 2.349 . S
Tb515 O553 2.393 . S
Tb515 O554 2.465 . S
Tb515 O555 2.387 . S
Tb515 O557 2.428 . S
Tb515 O558 2.308 . S
Tb515 C579 2.802 . S
N516 C512 1.361 . S
N516 Tb515 2.572 . S
N516 C518 1.340 . S
C517 C511 1.416 . S
C517 C519 1.332 . S
C517 H525 0.931 . S
C518 N516 1.340 . S
C518 C519 1.407 . S
C518 H524 0.930 . S
C519 C517 1.332 . S
C519 C518 1.407 . S
C519 H521 0.929 . S
H520 C509 0.930 . S
H521 C519 0.929 . S
H522 C537 0.930 . S
H523 C544 0.929 . S
H524 C518 0.930 . S
H525 C517 0.931 . S
H526 C540 0.930 . S
H527 C507 0.930 . S
H528 C513 0.929 . S
H529 C514 0.930 . S
H530 C535 0.930 . S
H531 C510 0.930 . S
H532 C543 0.931 . S
N533 Tb504 2.617 . S
N533 C534 1.379 . S
N533 C537 1.334 . S
C534 N533 1.379 . S
C534 C536 1.416 . S
C534 C542 1.424 . S
C535 H530 0.930 . S
C535 C537 1.390 . S
C535 C538 1.339 . S
C536 C534 1.416 . S
C536 C538 1.416 . S
C536 C569 1.448 . S
C537 H522 0.930 . S
C537 N533 1.334 . S
C537 C535 1.390 . S
C538 C535 1.339 . S
C538 C536 1.416 . S
C538 H545 0.930 . S
N539 Tb504 2.572 . S
N539 C540 1.340 . S
N539 C542 1.361 . S
C540 H526 0.930 . S
C540 N539 1.340 . S
C540 C544 1.407 . S
C541 C542 1.413 . S
C541 C543 1.416 . S
C541 C570 1.427 . S
C542 C534 1.424 . S
C542 N539 1.361 . S
C542 C541 1.413 . S
C543 H532 0.931 . S
C543 C541 1.416 . S
C543 C544 1.332 . S
C544 H523 0.929 . S
C544 C540 1.407 . S
C544 C543 1.332 . S
H545 C538 0.930 . S
H546 C569 0.930 . S
H547 C570 0.929 . S
O548 Tb504 2.465 . S
O548 C568 1.264 . S
O549 Tb504 2.387 . S
O549 C560 1.264 . S
O550 Tb515 2.349 . S
O550 C560 1.243 . S
O551 Tb504 2.428 . S
O551 C568 1.256 . S
O552 Tb504 2.308 . S
O552 C567 1.266 . S
O553 Tb515 2.393 . S
O553 C567 1.248 . S
O554 Tb515 2.465 . S
O554 C579 1.264 . S
O555 Tb515 2.387 . S
O555 C571 1.264 . S
O556 Tb504 2.349 . S
O556 C571 1.243 . S
O557 Tb515 2.428 . S
O557 C579 1.256 . S
O558 Tb515 2.308 . S
O558 C578 1.266 . S
O559 Tb504 2.393 . S
O559 C578 1.248 . S
C560 O549 1.264 . S
C560 O550 1.243 . S
C561 C564 1.399 . S
C561 C566 1.383 . S
C561 C568 1.496 . S
C562 C563 1.399 . S
C562 C566 1.389 . S
C563 C562 1.399 . S
C563 C565 1.380 . S
C563 H580 0.929 . S
C564 C561 1.399 . S
C564 C565 1.392 . S
C564 H581 0.929 . S
C565 C563 1.380 . S
C565 C564 1.392 . S
C565 H582 0.929 . S
C566 C561 1.383 . S
C566 C562 1.389 . S
C566 H583 0.931 . S
C567 O552 1.266 . S
C567 O553 1.248 . S
C568 Tb504 2.802 . S
C568 O548 1.264 . S
C568 O551 1.256 . S
C568 C561 1.496 . S
C569 C536 1.448 . S
C569 H546 0.930 . S
C569 C570 1.328 . S
C570 C541 1.427 . S
C570 H547 0.929 . S
C570 C569 1.328 . S
C571 O555 1.264 . S
C571 O556 1.243 . S
C572 C575 1.399 . S
C572 C576 1.383 . S
C572 C579 1.496 . S
C573 C574 1.399 . S
C573 C576 1.389 . S
C574 C573 1.399 . S
C574 C577 1.380 . S
C574 H584 0.929 . S
C575 C572 1.399 . S
C575 C577 1.392 . S
C575 H585 0.929 . S
C576 C572 1.383 . S
C576 C573 1.389 . S
C576 H586 0.931 . S
C577 C574 1.380 . S
C577 C575 1.392 . S
C577 H587 0.929 . S
C578 O558 1.266 . S
C578 O559 1.248 . S
C579 Tb515 2.802 . S
C579 O554 1.264 . S
C579 O557 1.256 . S
C579 C572 1.496 . S
H580 C563 0.929 . S
H581 C564 0.929 . S
H582 C565 0.929 . S
H583 C566 0.931 . S
H584 C574 0.929 . S
H585 C575 0.929 . S
H586 C576 0.931 . S
H587 C577 0.929 . S
Tb588 N617 2.617 . S
Tb588 N623 2.572 . S
Tb588 O632 2.465 . S
Tb588 O633 2.387 . S
Tb588 O635 2.428 . S
Tb588 O636 2.308 . S
Tb588 O640 2.349 . S
Tb588 O643 2.393 . S
Tb588 C652 2.802 . S
C589 N590 1.379 . S
C589 C592 1.416 . S
C589 C596 1.424 . S
N590 C589 1.379 . S
N590 C593 1.334 . S
N590 Tb599 2.617 . S
C591 C593 1.390 . S
C591 C594 1.339 . S
C591 H611 0.930 . S
C592 C589 1.416 . S
C592 C594 1.416 . S
C592 C598 1.448 . S
C593 N590 1.334 . S
C593 C591 1.390 . S
C593 H604 0.930 . S
C594 C591 1.339 . S
C594 C592 1.416 . S
C594 H615 0.930 . S
C595 C596 1.413 . S
C595 C597 1.427 . S
C595 C601 1.416 . S
C596 C589 1.424 . S
C596 C595 1.413 . S
C596 N600 1.361 . S
C597 C595 1.427 . S
C597 C598 1.328 . S
C597 H612 0.929 . S
C598 C592 1.448 . S
C598 C597 1.328 . S
C598 H613 0.930 . S
Tb599 N590 2.617 . S
Tb599 N600 2.572 . S
Tb599 O634 2.349 . S
Tb599 O637 2.393 . S
Tb599 O638 2.465 . S
Tb599 O639 2.387 . S
Tb599 O641 2.428 . S
Tb599 O642 2.308 . S
Tb599 C663 2.802 . S
N600 C596 1.361 . S
N600 Tb599 2.572 . S
N600 C602 1.340 . S
C601 C595 1.416 . S
C601 C603 1.332 . S
C601 H609 0.931 . S
C602 N600 1.340 . S
C602 C603 1.407 . S
C602 H608 0.930 . S
C603 C601 1.332 . S
C603 C602 1.407 . S
C603 H605 0.929 . S
H604 C593 0.930 . S
H605 C603 0.929 . S
H606 C621 0.930 . S
H607 C628 0.929 . S
H608 C602 0.930 . S
H609 C601 0.931 . S
H610 C624 0.930 . S
H611 C591 0.930 . S
H612 C597 0.929 . S
H613 C598 0.930 . S
H614 C619 0.930 . S
H615 C594 0.930 . S
H616 C627 0.931 . S
N617 Tb588 2.617 . S
N617 C618 1.379 . S
N617 C621 1.334 . S
C618 N617 1.379 . S
C618 C620 1.416 . S
C618 C626 1.424 . S
C619 H614 0.930 . S
C619 C621 1.390 . S
C619 C622 1.339 . S
C620 C618 1.416 . S
C620 C622 1.416 . S
C620 C653 1.448 . S
C621 H606 0.930 . S
C621 N617 1.334 . S
C621 C619 1.390 . S
C622 C619 1.339 . S
C622 C620 1.416 . S
C622 H629 0.930 . S
N623 Tb588 2.572 . S
N623 C624 1.340 . S
N623 C626 1.361 . S
C624 H610 0.930 . S
C624 N623 1.340 . S
C624 C628 1.407 . S
C625 C626 1.413 . S
C625 C627 1.416 . S
C625 C654 1.427 . S
C626 C618 1.424 . S
C626 N623 1.361 . S
C626 C625 1.413 . S
C627 H616 0.931 . S
C627 C625 1.416 . S
C627 C628 1.332 . S
C628 H607 0.929 . S
C628 C624 1.407 . S
C628 C627 1.332 . S
H629 C622 0.930 . S
H630 C653 0.930 . S
H631 C654 0.929 . S
O632 Tb588 2.465 . S
O632 C652 1.264 . S
O633 Tb588 2.387 . S
O633 C644 1.264 . S
O634 Tb599 2.349 . S
O634 C644 1.243 . S
O635 Tb588 2.428 . S
O635 C652 1.256 . S
O636 Tb588 2.308 . S
O636 C651 1.266 . S
O637 Tb599 2.393 . S
O637 C651 1.248 . S
O638 Tb599 2.465 . S
O638 C663 1.264 . S
O639 Tb599 2.387 . S
O639 C655 1.264 . S
O640 Tb588 2.349 . S
O640 C655 1.243 . S
O641 Tb599 2.428 . S
O641 C663 1.256 . S
O642 Tb599 2.308 . S
O642 C662 1.266 . S
O643 Tb588 2.393 . S
O643 C662 1.248 . S
C644 O633 1.264 . S
C644 O634 1.243 . S
C645 C648 1.399 . S
C645 C650 1.383 . S
C645 C652 1.496 . S
C646 C647 1.399 . S
C646 C650 1.389 . S
C647 C646 1.399 . S
C647 C649 1.380 . S
C647 H664 0.929 . S
C648 C645 1.399 . S
C648 C649 1.392 . S
C648 H665 0.929 . S
C649 C647 1.380 . S
C649 C648 1.392 . S
C649 H666 0.929 . S
C650 C645 1.383 . S
C650 C646 1.389 . S
C650 H667 0.931 . S
C651 O636 1.266 . S
C651 O637 1.248 . S
C652 Tb588 2.802 . S
C652 O632 1.264 . S
C652 O635 1.256 . S
C652 C645 1.496 . S
C653 C620 1.448 . S
C653 H630 0.930 . S
C653 C654 1.328 . S
C654 C625 1.427 . S
C654 H631 0.929 . S
C654 C653 1.328 . S
C655 O639 1.264 . S
C655 O640 1.243 . S
C656 C659 1.399 . S
C656 C660 1.383 . S
C656 C663 1.496 . S
C657 C658 1.399 . S
C657 C660 1.389 . S
C658 C657 1.399 . S
C658 C661 1.380 . S
C658 H668 0.929 . S
C659 C656 1.399 . S
C659 C661 1.392 . S
C659 H669 0.929 . S
C660 C656 1.383 . S
C660 C657 1.389 . S
C660 H670 0.931 . S
C661 C658 1.380 . S
C661 C659 1.392 . S
C661 H671 0.929 . S
C662 O642 1.266 . S
C662 O643 1.248 . S
C663 Tb599 2.802 . S
C663 O638 1.264 . S
C663 O641 1.256 . S
C663 C656 1.496 . S
H664 C647 0.929 . S
H665 C648 0.929 . S
H666 C649 0.929 . S
H667 C650 0.931 . S
H668 C658 0.929 . S
H669 C659 0.929 . S
H670 C660 0.931 . S
H671 C661 0.929 . S
C672 O684 1.241 . S
C672 O685 1.280 . S
C673 O686 1.277 . S
C673 O687 1.245 . S
C674 O698 1.247 . S
C674 O700 1.289 . S
Mg675 O676 1.926 . S
Mg675 O685 1.984 . S
Mg675 O687 1.988 . S
Mg675 O688 2.061 1_655 S
O676 Mg675 1.926 . S
O676 Mg677 1.986 1_545 S
O676 Mg678 1.914 1_655 S
Mg677 O676 1.986 1_565 S
Mg677 O684 2.042 1_565 S
Mg677 O686 2.041 1_565 S
Mg677 O692 2.038 . S
Mg677 O700 2.238 . S
Mg678 O676 1.914 1_455 S
Mg678 O679 1.919 1_545 S
Mg678 O689 2.109 . S
Mg678 O691 2.078 1_445 S
Mg678 O700 2.104 1_445 S
Mg678 O701 2.079 . S
O679 Mg678 1.919 1_565 S
O679 Mg680 1.926 . S
O679 Mg681 1.986 1_565 S
Mg680 O679 1.926 . S
Mg680 O694 1.984 . S
Mg680 O697 1.988 . S
Mg680 O698 2.061 1_455 S
Mg681 O679 1.986 1_545 S
Mg681 O689 2.238 . S
Mg681 O693 2.042 1_545 S
Mg681 O695 2.041 1_545 S
Mg681 O702 2.038 . S
C682 O688 1.247 . S
C682 O689 1.289 . S
C683 O701 1.245 . S
C683 O702 1.274 . S
O684 C672 1.241 . S
O684 Mg677 2.042 1_545 S
O685 C672 1.280 . S
O685 Mg675 1.984 . S
O686 C673 1.277 . S
O686 Mg677 2.041 1_545 S
O687 C673 1.245 . S
O687 Mg675 1.988 . S
O688 Mg675 2.061 1_455 S
O688 C682 1.247 . S
O689 Mg678 2.109 . S
O689 Mg681 2.238 . S
O689 C682 1.289 . S
C690 O691 1.245 . S
C690 O692 1.274 . S
O691 Mg678 2.078 1_665 S
O691 C690 1.245 . S
O692 Mg677 2.038 . S
O692 C690 1.274 . S
O693 Mg681 2.042 1_565 S
O693 C696 1.241 . S
O694 Mg680 1.984 . S
O694 C696 1.280 . S
O695 Mg681 2.041 1_565 S
O695 C699 1.277 . S
C696 O693 1.241 . S
C696 O694 1.280 . S
O697 Mg680 1.988 . S
O697 C699 1.245 . S
O698 C674 1.247 . S
O698 Mg680 2.061 1_655 S
C699 O695 1.277 . S
C699 O697 1.245 . S
O700 C674 1.289 . S
O700 Mg677 2.238 . S
O700 Mg678 2.104 1_665 S
O701 Mg678 2.079 . S
O701 C683 1.245 . S
O702 Mg681 2.038 . S
O702 C683 1.274 . S
C703 O715 1.241 . S
C703 O716 1.280 . S
C704 O717 1.277 . S
C704 O718 1.245 . S
C705 O729 1.247 . S
C705 O731 1.289 . S
Mg706 O707 1.926 . S
Mg706 O716 1.984 . S
Mg706 O718 1.988 1_554 S
Mg706 O719 2.061 . S
O707 Mg706 1.926 . S
O707 Mg708 1.986 1_545 S
O707 Mg709 1.918 . S
Mg708 O707 1.986 1_565 S
Mg708 O715 2.042 1_565 S
Mg708 O717 2.041 1_564 S
Mg708 O723 2.038 . S
Mg708 O731 2.238 1_554 S
Mg709 O707 1.918 . S
Mg709 O710 1.916 1_544 S
Mg709 O720 2.109 . S
Mg709 O722 2.082 1_545 S
Mg709 O731 2.104 1_544 S
Mg709 O732 2.075 1_554 S
O710 Mg709 1.916 1_566 S
O710 Mg711 1.926 . S
O710 Mg712 1.986 1_565 S
Mg711 O710 1.926 . S
Mg711 O725 1.984 . S
Mg711 O728 1.988 1_556 S
Mg711 O729 2.061 . S
Mg712 O710 1.986 1_545 S
Mg712 O720 2.238 1_556 S
Mg712 O724 2.042 1_545 S
Mg712 O726 2.041 1_546 S
Mg712 O733 2.038 . S
C713 O719 1.247 . S
C713 O720 1.289 . S
C714 O732 1.245 . S
C714 O733 1.274 . S
O715 C703 1.241 . S
O715 Mg708 2.042 1_545 S
O716 C703 1.280 . S
O716 Mg706 1.984 . S
O717 C704 1.277 . S
O717 Mg708 2.041 1_546 S
O718 C704 1.245 . S
O718 Mg706 1.988 1_556 S
O719 Mg706 2.061 . S
O719 C713 1.247 . S
O720 Mg709 2.109 . S
O720 Mg712 2.238 1_554 S
O720 C713 1.289 . S
C721 O722 1.245 . S
C721 O723 1.274 . S
O722 Mg709 2.082 1_565 S
O722 C721 1.245 . S
O723 Mg708 2.038 . S
O723 C721 1.274 . S
O724 Mg712 2.042 1_565 S
O724 C727 1.241 . S
O725 Mg711 1.984 . S
O725 C727 1.280 . S
O726 Mg712 2.041 1_564 S
O726 C730 1.277 . S
C727 O724 1.241 . S
C727 O725 1.280 . S
O728 Mg711 1.988 1_554 S
O728 C730 1.245 . S
O729 C705 1.247 . S
O729 Mg711 2.061 . S
C730 O726 1.277 . S
C730 O728 1.245 . S
O731 C705 1.289 . S
O731 Mg708 2.238 1_556 S
O731 Mg709 2.104 1_566 S
O732 Mg709 2.075 1_556 S
O732 C714 1.245 . S
O733 Mg712 2.038 . S
O733 C714 1.274 . S
C734 O746 1.241 . S
C734 O747 1.280 . S
C735 O748 1.277 . S
C735 O749 1.245 . S
C736 O760 1.247 . S
C736 O762 1.289 . S
Mg737 O738 1.926 . S
Mg737 O747 1.984 . S
Mg737 O749 1.988 1_554 S
Mg737 O750 2.061 1_655 S
O738 Mg737 1.926 . S
O738 Mg739 1.986 . S
O738 Mg740 1.915 1_655 S
Mg739 O738 1.986 . S
Mg739 O746 2.042 . S
Mg739 O748 2.041 1_554 S
Mg739 O754 2.038 . S
Mg739 O762 2.238 1_554 S
Mg740 O738 1.915 1_455 S
Mg740 O741 1.919 1_554 S
Mg740 O751 2.111 . S
Mg740 O753 2.081 1_455 S
Mg740 O762 2.101 1_454 S
Mg740 O763 2.076 1_554 S
O741 Mg740 1.919 1_556 S
O741 Mg742 1.926 . S
O741 Mg743 1.986 . S
Mg742 O741 1.926 . S
Mg742 O756 1.984 . S
Mg742 O759 1.988 1_556 S
Mg742 O760 2.061 1_455 S
Mg743 O741 1.986 . S
Mg743 O751 2.238 1_556 S
Mg743 O755 2.042 . S
Mg743 O757 2.041 1_556 S
Mg743 O764 2.038 . S
C744 O750 1.247 . S
C744 O751 1.289 . S
C745 O763 1.245 . S
C745 O764 1.274 . S
O746 C734 1.241 . S
O746 Mg739 2.042 . S
O747 C734 1.280 . S
O747 Mg737 1.984 . S
O748 C735 1.277 . S
O748 Mg739 2.041 1_556 S
O749 C735 1.245 . S
O749 Mg737 1.988 1_556 S
O750 Mg737 2.061 1_455 S
O750 C744 1.247 . S
O751 Mg740 2.111 . S
O751 Mg743 2.238 1_554 S
O751 C744 1.289 . S
C752 O753 1.245 . S
C752 O754 1.274 . S
O753 Mg740 2.081 1_655 S
O753 C752 1.245 . S
O754 Mg739 2.038 . S
O754 C752 1.274 . S
O755 Mg743 2.042 . S
O755 C758 1.241 . S
O756 Mg742 1.984 . S
O756 C758 1.280 . S
O757 Mg743 2.041 1_554 S
O757 C761 1.277 . S
C758 O755 1.241 . S
C758 O756 1.280 . S
O759 Mg742 1.988 1_554 S
O759 C761 1.245 . S
O760 C736 1.247 . S
O760 Mg742 2.061 1_655 S
C761 O757 1.277 . S
C761 O759 1.245 . S
O762 C736 1.289 . S
O762 Mg739 2.238 1_556 S
O762 Mg740 2.101 1_656 S
O763 Mg740 2.076 1_556 S
O763 C745 1.245 . S
O764 Mg743 2.038 . S
O764 C745 1.274 . S
C765 O777 1.241 . S
C765 O778 1.280 . S
C766 O779 1.277 . S
C766 O780 1.245 . S
C767 O791 1.247 . S
C767 O793 1.289 . S
Mg768 O769 1.926 . S
Mg768 O778 1.984 . S
Mg768 O780 1.988 1_554 S
Mg768 O781 2.061 . S
O769 Mg768 1.926 . S
O769 Mg770 1.986 . S
O769 Mg771 1.918 . S
Mg770 O769 1.986 . S
Mg770 O777 2.042 . S
Mg770 O779 2.041 1_554 S
Mg770 O785 2.038 . S
Mg770 O793 2.238 1_554 S
Mg771 O769 1.918 . S
Mg771 O772 1.916 1_554 S
Mg771 O782 2.109 . S
Mg771 O784 2.082 . S
Mg771 O793 2.104 1_554 S
Mg771 O794 2.075 1_554 S
O772 Mg771 1.916 1_556 S
O772 Mg773 1.926 . S
O772 Mg774 1.986 . S
Mg773 O772 1.926 . S
Mg773 O787 1.984 . S
Mg773 O790 1.988 1_556 S
Mg773 O791 2.061 . S
Mg774 O772 1.986 . S
Mg774 O782 2.238 1_556 S
Mg774 O786 2.042 . S
Mg774 O788 2.041 1_556 S
Mg774 O795 2.038 . S
C775 O781 1.247 . S
C775 O782 1.289 . S
C776 O794 1.245 . S
C776 O795 1.274 . S
O777 C765 1.241 . S
O777 Mg770 2.042 . S
O778 C765 1.280 . S
O778 Mg768 1.984 . S
O779 C766 1.277 . S
O779 Mg770 2.041 1_556 S
O780 C766 1.245 . S
O780 Mg768 1.988 1_556 S
O781 Mg768 2.061 . S
O781 C775 1.247 . S
O782 Mg771 2.109 . S
O782 Mg774 2.238 1_554 S
O782 C775 1.289 . S
C783 O784 1.245 . S
C783 O785 1.274 . S
O784 Mg771 2.082 . S
O784 C783 1.245 . S
O785 Mg770 2.038 . S
O785 C783 1.274 . S
O786 Mg774 2.042 . S
O786 C789 1.241 . S
O787 Mg773 1.984 . S
O787 C789 1.280 . S
O788 Mg774 2.041 1_554 S
O788 C792 1.277 . S
C789 O786 1.241 . S
C789 O787 1.280 . S
O790 Mg773 1.988 1_554 S
O790 C792 1.245 . S
O791 C767 1.247 . S
O791 Mg773 2.061 . S
C792 O788 1.277 . S
C792 O790 1.245 . S
O793 C767 1.289 . S
O793 Mg770 2.238 1_556 S
O793 Mg771 2.104 1_556 S
O794 Mg771 2.075 1_556 S
O794 C776 1.245 . S
O795 Mg774 2.038 . S
O795 C776 1.274 . S
C796 O808 1.241 . S
C796 O809 1.280 . S
C797 O810 1.277 . S
C797 O811 1.245 . S
C798 O822 1.247 . S
C798 O824 1.289 . S
Mg799 O800 1.926 . S
Mg799 O809 1.984 . S
Mg799 O811 1.988 . S
Mg799 O812 2.061 1_655 S
O800 Mg799 1.926 . S
O800 Mg801 1.986 . S
O800 Mg802 1.914 1_655 S
Mg801 O800 1.986 . S
Mg801 O808 2.042 . S
Mg801 O810 2.041 . S
Mg801 O816 2.038 . S
Mg801 O824 2.238 . S
Mg802 O800 1.914 1_455 S
Mg802 O803 1.920 . S
Mg802 O813 2.109 . S
Mg802 O815 2.078 1_455 S
Mg802 O824 2.104 1_455 S
Mg802 O825 2.079 . S
O803 Mg802 1.920 . S
O803 Mg804 1.926 . S
O803 Mg805 1.986 . S
Mg804 O803 1.926 . S
Mg804 O818 1.984 . S
Mg804 O821 1.988 . S
Mg804 O822 2.061 1_455 S
Mg805 O803 1.986 . S
Mg805 O813 2.238 . S
Mg805 O817 2.042 . S
Mg805 O819 2.041 . S
Mg805 O826 2.038 . S
C806 O812 1.247 . S
C806 O813 1.289 . S
C807 O825 1.245 . S
C807 O826 1.274 . S
O808 C796 1.241 . S
O808 Mg801 2.042 . S
O809 C796 1.280 . S
O809 Mg799 1.984 . S
O810 C797 1.277 . S
O810 Mg801 2.041 . S
O811 C797 1.245 . S
O811 Mg799 1.988 . S
O812 Mg799 2.061 1_455 S
O812 C806 1.247 . S
O813 Mg802 2.109 . S
O813 Mg805 2.238 . S
O813 C806 1.289 . S
C814 O815 1.245 . S
C814 O816 1.274 . S
O815 Mg802 2.078 1_655 S
O815 C814 1.245 . S
O816 Mg801 2.038 . S
O816 C814 1.274 . S
O817 Mg805 2.042 . S
O817 C820 1.241 . S
O818 Mg804 1.984 . S
O818 C820 1.280 . S
O819 Mg805 2.041 . S
O819 C823 1.277 . S
C820 O817 1.241 . S
C820 O818 1.280 . S
O821 Mg804 1.988 . S
O821 C823 1.245 . S
O822 C798 1.247 . S
O822 Mg804 2.061 1_655 S
C823 O819 1.277 . S
C823 O821 1.245 . S
O824 C798 1.289 . S
O824 Mg801 2.238 . S
O824 Mg802 2.104 1_655 S
O825 Mg802 2.079 . S
O825 C807 1.245 . S
O826 Mg805 2.038 . S
O826 C807 1.274 . S
C827 O839 1.241 . S
C827 O840 1.280 . S
C828 O841 1.277 . S
C828 O842 1.245 . S
C829 O853 1.247 . S
C829 O855 1.289 . S
Mg830 O831 1.926 . S
Mg830 O840 1.984 . S
Mg830 O842 1.988 . S
Mg830 O843 2.061 . S
O831 Mg830 1.926 . S
O831 Mg832 1.986 1_545 S
O831 Mg833 1.917 . S
Mg832 O831 1.986 1_565 S
Mg832 O839 2.042 1_565 S
Mg832 O841 2.041 1_565 S
Mg832 O847 2.038 . S
Mg832 O855 2.238 . S
Mg833 O831 1.917 . S
Mg833 O834 1.917 1_545 S
Mg833 O844 2.106 . S
Mg833 O846 2.079 1_545 S
Mg833 O855 2.106 1_545 S
Mg833 O856 2.079 . S
O834 Mg833 1.917 1_565 S
O834 Mg835 1.926 . S
O834 Mg836 1.986 1_565 S
Mg835 O834 1.926 . S
Mg835 O849 1.984 . S
Mg835 O852 1.988 . S
Mg835 O853 2.061 . S
Mg836 O834 1.986 1_545 S
Mg836 O844 2.238 . S
Mg836 O848 2.042 1_545 S
Mg836 O850 2.041 1_545 S
Mg836 O857 2.038 . S
C837 O843 1.247 . S
C837 O844 1.289 . S
C838 O856 1.245 . S
C838 O857 1.274 . S
O839 C827 1.241 . S
O839 Mg832 2.042 1_545 S
O840 C827 1.280 . S
O840 Mg830 1.984 . S
O841 C828 1.277 . S
O841 Mg832 2.041 1_545 S
O842 C828 1.245 . S
O842 Mg830 1.988 . S
O843 Mg830 2.061 . S
O843 C837 1.247 . S
O844 Mg833 2.106 . S
O844 Mg836 2.238 . S
O844 C837 1.289 . S
C845 O846 1.245 . S
C845 O847 1.274 . S
O846 Mg833 2.079 1_565 S
O846 C845 1.245 . S
O847 Mg832 2.038 . S
O847 C845 1.274 . S
O848 Mg836 2.042 1_565 S
O848 C851 1.241 . S
O849 Mg835 1.984 . S
O849 C851 1.280 . S
O850 Mg836 2.041 1_565 S
O850 C854 1.277 . S
C851 O848 1.241 . S
C851 O849 1.280 . S
O852 Mg835 1.988 . S
O852 C854 1.245 . S
O853 C829 1.247 . S
O853 Mg835 2.061 . S
C854 O850 1.277 . S
C854 O852 1.245 . S
O855 C829 1.289 . S
O855 Mg832 2.238 . S
O855 Mg833 2.106 1_565 S
O856 Mg833 2.079 . S
O856 C838 1.245 . S
O857 Mg836 2.038 . S
O857 C838 1.274 . S
H858 C870 0.930 . S
H859 C872 0.930 . S
H860 C873 0.930 . S
H861 C877 0.959 . S
H862 C877 0.959 . S
H863 C877 0.961 . S
H864 C878 0.960 . S
H865 C878 0.961 . S
H866 C878 0.959 . S
H867 C881 0.929 . S
H868 C882 0.931 . S
H869 C884 0.930 . S
C870 H858 0.930 . S
C870 C871 1.399 . S
C870 C875 1.399 . S
C871 C870 1.399 . S
C871 C872 1.376 . S
C872 H859 0.930 . S
C872 C871 1.376 . S
C872 C873 1.388 . S
C873 H860 0.930 . S
C873 C872 1.388 . S
C873 C874 1.390 . S
C874 C873 1.390 . S
C874 C875 1.394 . S
C874 C880 1.465 . S
C875 C870 1.399 . S
C875 C874 1.394 . S
C875 C876 1.516 . S
C876 C875 1.516 . S
C876 C877 1.502 . S
C876 C878 1.561 . S
C876 C879 1.526 . S
C877 H861 0.959 . S
C877 H862 0.959 . S
C877 H863 0.961 . S
C877 C876 1.502 . S
C878 H864 0.960 . S
C878 H865 0.961 . S
C878 H866 0.959 . S
C878 C876 1.561 . S
C879 C876 1.526 . S
C879 C880 1.396 . S
C879 C884 1.390 . S
C880 C874 1.465 . S
C880 C879 1.396 . S
C880 C881 1.399 . S
C881 H867 0.929 . S
C881 C880 1.399 . S
C881 C882 1.385 . S
C882 H868 0.931 . S
C882 C881 1.385 . S
C882 C883 1.389 . S
C883 C882 1.389 . S
C883 C884 1.387 . S
C884 H869 0.930 . S
C884 C879 1.390 . S
C884 C883 1.387 . S
H885 C897 0.930 . S
H886 C899 0.930 . S
H887 C900 0.930 . S
H888 C904 0.959 . S
H889 C904 0.959 . S
H890 C904 0.961 . S
H891 C905 0.960 . S
H892 C905 0.961 . S
H893 C905 0.959 . S
H894 C908 0.929 . S
H895 C909 0.931 . S
H896 C911 0.930 . S
C897 H885 0.930 . S
C897 C898 1.399 . S
C897 C902 1.399 . S
C898 C897 1.399 . S
C898 C899 1.376 . S
C899 H886 0.930 . S
C899 C898 1.376 . S
C899 C900 1.388 . S
C900 H887 0.930 . S
C900 C899 1.388 . S
C900 C901 1.390 . S
C901 C900 1.390 . S
C901 C902 1.394 . S
C901 C907 1.465 . S
C902 C897 1.399 . S
C902 C901 1.394 . S
C902 C903 1.516 . S
C903 C902 1.516 . S
C903 C904 1.502 . S
C903 C905 1.561 . S
C903 C906 1.526 . S
C904 H888 0.959 . S
C904 H889 0.959 . S
C904 H890 0.961 . S
C904 C903 1.502 . S
C905 H891 0.960 . S
C905 H892 0.961 . S
C905 H893 0.959 . S
C905 C903 1.561 . S
C906 C903 1.526 . S
C906 C907 1.396 . S
C906 C911 1.390 . S
C907 C901 1.465 . S
C907 C906 1.396 . S
C907 C908 1.399 . S
C908 H894 0.929 . S
C908 C907 1.399 . S
C908 C909 1.385 . S
C909 H895 0.931 . S
C909 C908 1.385 . S
C909 C910 1.389 . S
C910 C909 1.389 . S
C910 C911 1.387 . S
C911 H896 0.930 . S
C911 C906 1.390 . S
C911 C910 1.387 . S
H912 C924 0.930 . S
H913 C926 0.930 . S
H914 C927 0.930 . S
H915 C931 0.959 . S
H916 C931 0.959 . S
H917 C931 0.961 . S
H918 C932 0.960 . S
H919 C932 0.961 . S
H920 C932 0.959 . S
H921 C935 0.929 . S
H922 C936 0.931 . S
H923 C938 0.930 . S
C924 H912 0.930 . S
C924 C925 1.399 . S
C924 C929 1.399 . S
C925 C924 1.399 . S
C925 C926 1.376 . S
C926 H913 0.930 . S
C926 C925 1.376 . S
C926 C927 1.388 . S
C927 H914 0.930 . S
C927 C926 1.388 . S
C927 C928 1.390 . S
C928 C927 1.390 . S
C928 C929 1.394 . S
C928 C934 1.465 . S
C929 C924 1.399 . S
C929 C928 1.394 . S
C929 C930 1.516 . S
C930 C929 1.516 . S
C930 C931 1.502 . S
C930 C932 1.561 . S
C930 C933 1.526 . S
C931 H915 0.959 . S
C931 H916 0.959 . S
C931 H917 0.961 . S
C931 C930 1.502 . S
C932 H918 0.960 . S
C932 H919 0.961 . S
C932 H920 0.959 . S
C932 C930 1.561 . S
C933 C930 1.526 . S
C933 C934 1.396 . S
C933 C938 1.390 . S
C934 C928 1.465 . S
C934 C933 1.396 . S
C934 C935 1.399 . S
C935 H921 0.929 . S
C935 C934 1.399 . S
C935 C936 1.385 . S
C936 H922 0.931 . S
C936 C935 1.385 . S
C936 C937 1.389 . S
C937 C936 1.389 . S
C937 C938 1.387 . S
C938 H923 0.930 . S
C938 C933 1.390 . S
C938 C937 1.387 . S
H939 C951 0.930 . S
H940 C953 0.930 . S
H941 C954 0.930 . S
H942 C958 0.959 . S
H943 C958 0.959 . S
H944 C958 0.961 . S
H945 C959 0.960 . S
H946 C959 0.961 . S
H947 C959 0.959 . S
H948 C962 0.929 . S
H949 C963 0.906 1_545 S
H950 C965 0.930 . S
C951 H939 0.930 . S
C951 C952 1.399 . S
C951 C956 1.399 . S
C952 C951 1.399 . S
C952 C953 1.376 . S
C953 H940 0.930 . S
C953 C952 1.376 . S
C953 C954 1.388 . S
C954 H941 0.930 . S
C954 C953 1.388 . S
C954 C955 1.390 . S
C955 C954 1.390 . S
C955 C956 1.394 . S
C955 C961 1.465 . S
C956 C951 1.399 . S
C956 C955 1.394 . S
C956 C957 1.516 . S
C957 C956 1.516 . S
C957 C958 1.502 . S
C957 C959 1.561 . S
C957 C960 1.526 . S
C958 H942 0.959 . S
C958 H943 0.959 . S
C958 H944 0.961 . S
C958 C957 1.502 . S
C959 H945 0.960 . S
C959 H946 0.961 . S
C959 H947 0.959 . S
C959 C957 1.561 . S
C960 C957 1.526 . S
C960 C961 1.396 . S
C960 C965 1.390 . S
C961 C955 1.465 . S
C961 C960 1.396 . S
C961 C962 1.399 . S
C962 H948 0.929 . S
C962 C961 1.399 . S
C962 C963 1.385 . S
C963 H949 0.906 1_565 S
C963 C962 1.385 . S
C963 C964 1.389 . S
C964 C963 1.389 . S
C964 C965 1.387 . S
C965 H950 0.930 . S
C965 C960 1.390 . S
C965 C964 1.387 . S
H966 C978 0.930 . S
H967 C980 0.930 . S
H968 C981 0.930 . S
H969 C985 0.959 . S
H970 C985 0.959 . S
H971 C985 0.961 . S
H972 C986 0.960 . S
H973 C986 0.961 . S
H974 C986 0.959 . S
H975 C989 0.929 . S
H976 C990 0.931 . S
H977 C992 0.930 . S
C978 H966 0.930 . S
C978 C979 1.399 . S
C978 C983 1.399 . S
C979 C978 1.399 . S
C979 C980 1.376 . S
C980 H967 0.930 . S
C980 C979 1.376 . S
C980 C981 1.388 . S
C981 H968 0.930 . S
C981 C980 1.388 . S
C981 C982 1.390 . S
C982 C981 1.390 . S
C982 C983 1.394 . S
C982 C988 1.465 . S
C983 C978 1.399 . S
C983 C982 1.394 . S
C983 C984 1.516 . S
C984 C983 1.516 . S
C984 C985 1.502 . S
C984 C986 1.561 . S
C984 C987 1.526 . S
C985 H969 0.959 . S
C985 H970 0.959 . S
C985 H971 0.961 . S
C985 C984 1.502 . S
C986 H972 0.960 . S
C986 H973 0.961 . S
C986 H974 0.959 . S
C986 C984 1.561 . S
C987 C984 1.526 . S
C987 C988 1.396 . S
C987 C992 1.390 . S
C988 C982 1.465 . S
C988 C987 1.396 . S
C988 C989 1.399 . S
C989 H975 0.929 . S
C989 C988 1.399 . S
C989 C990 1.385 . S
C990 H976 0.931 . S
C990 C989 1.385 . S
C990 C991 1.389 . S
C991 C990 1.389 . S
C991 C992 1.387 . S
C992 H977 0.930 . S
C992 C987 1.390 . S
C992 C991 1.387 . S
H993 C1005 0.930 . S
H994 C1007 0.930 . S
H995 C1008 0.930 . S
H996 C1012 0.959 . S
H997 C1012 0.959 . S
H998 C1012 0.961 . S
H999 C1013 0.960 . S
H1000 C1013 0.961 . S
H1001 C1013 0.959 . S
H1002 C1016 0.929 . S
H1003 C1017 0.931 . S
H1004 C1019 0.930 . S
C1005 H993 0.930 . S
C1005 C1006 1.399 . S
C1005 C1010 1.399 . S
C1006 C1005 1.399 . S
C1006 C1007 1.376 . S
C1007 H994 0.930 . S
C1007 C1006 1.376 . S
C1007 C1008 1.388 . S
C1008 H995 0.930 . S
C1008 C1007 1.388 . S
C1008 C1009 1.390 . S
C1009 C1008 1.390 . S
C1009 C1010 1.394 . S
C1009 C1015 1.465 . S
C1010 C1005 1.399 . S
C1010 C1009 1.394 . S
C1010 C1011 1.516 . S
C1011 C1010 1.516 . S
C1011 C1012 1.502 . S
C1011 C1013 1.561 . S
C1011 C1014 1.526 . S
C1012 H996 0.959 . S
C1012 H997 0.959 . S
C1012 H998 0.961 . S
C1012 C1011 1.502 . S
C1013 H999 0.960 . S
C1013 H1000 0.961 . S
C1013 H1001 0.959 . S
C1013 C1011 1.561 . S
C1014 C1011 1.526 . S
C1014 C1015 1.396 . S
C1014 C1019 1.390 . S
C1015 C1009 1.465 . S
C1015 C1014 1.396 . S
C1015 C1016 1.399 . S
C1016 H1002 0.929 . S
C1016 C1015 1.399 . S
C1016 C1017 1.385 . S
C1017 H1003 0.931 . S
C1017 C1016 1.385 . S
C1017 C1018 1.389 . S
C1018 C1017 1.389 . S
C1018 C1019 1.387 . S
C1019 H1004 0.930 . S
C1019 C1014 1.390 . S
C1019 C1018 1.387 . S
H1020 C1032 0.930 . S
H1021 C1034 0.930 . S
H1022 C1035 0.930 . S
H1023 C1039 0.959 . S
H1024 C1039 0.959 . S
H1025 C1039 0.961 . S
H1026 C1040 0.960 . S
H1027 C1040 0.961 . S
H1028 C1040 0.959 . S
H1029 C1043 0.929 . S
H1030 C1044 0.931 . S
H1031 C1046 0.930 . S
C1032 H1020 0.930 . S
C1032 C1033 1.399 . S
C1032 C1037 1.399 . S
C1033 C1032 1.399 . S
C1033 C1034 1.376 . S
C1034 H1021 0.930 . S
C1034 C1033 1.376 . S
C1034 C1035 1.388 . S
C1035 H1022 0.930 . S
C1035 C1034 1.388 . S
C1035 C1036 1.390 . S
C1036 C1035 1.390 . S
C1036 C1037 1.394 . S
C1036 C1042 1.465 . S
C1037 C1032 1.399 . S
C1037 C1036 1.394 . S
C1037 C1038 1.516 . S
C1038 C1037 1.516 . S
C1038 C1039 1.502 . S
C1038 C1040 1.561 . S
C1038 C1041 1.526 . S
C1039 H1023 0.959 . S
C1039 H1024 0.959 . S
C1039 H1025 0.961 . S
C1039 C1038 1.502 . S
C1040 H1026 0.960 . S
C1040 H1027 0.961 . S
C1040 H1028 0.959 . S
C1040 C1038 1.561 . S
C1041 C1038 1.526 . S
C1041 C1042 1.396 . S
C1041 C1046 1.390 . S
C1042 C1036 1.465 . S
C1042 C1041 1.396 . S
C1042 C1043 1.399 . S
C1043 H1029 0.929 . S
C1043 C1042 1.399 . S
C1043 C1044 1.385 . S
C1044 H1030 0.931 . S
C1044 C1043 1.385 . S
C1044 C1045 1.389 . S
C1045 C1044 1.389 . S
C1045 C1046 1.387 . S
C1046 H1031 0.930 . S
C1046 C1041 1.390 . S
C1046 C1045 1.387 . S
H1047 C1059 0.930 . S
H1048 C1061 0.930 . S
H1049 C1062 0.930 . S
H1050 C1066 0.959 . S
H1051 C1066 0.959 . S
H1052 C1066 0.961 . S
H1053 C1067 0.960 . S
H1054 C1067 0.961 . S
H1055 C1067 0.959 . S
H1056 C1070 0.929 . S
H1057 C1071 0.931 . S
H1058 C1073 0.930 . S
C1059 H1047 0.930 . S
C1059 C1060 1.399 . S
C1059 C1064 1.399 . S
C1060 C1059 1.399 . S
C1060 C1061 1.376 . S
C1061 H1048 0.930 . S
C1061 C1060 1.376 . S
C1061 C1062 1.388 . S
C1062 H1049 0.930 . S
C1062 C1061 1.388 . S
C1062 C1063 1.390 . S
C1063 C1062 1.390 . S
C1063 C1064 1.394 . S
C1063 C1069 1.465 . S
C1064 C1059 1.399 . S
C1064 C1063 1.394 . S
C1064 C1065 1.516 . S
C1065 C1064 1.516 . S
C1065 C1066 1.502 . S
C1065 C1067 1.561 . S
C1065 C1068 1.526 . S
C1066 H1050 0.959 . S
C1066 H1051 0.959 . S
C1066 H1052 0.961 . S
C1066 C1065 1.502 . S
C1067 H1053 0.960 . S
C1067 H1054 0.961 . S
C1067 H1055 0.959 . S
C1067 C1065 1.561 . S
C1068 C1065 1.526 . S
C1068 C1069 1.396 . S
C1068 C1073 1.390 . S
C1069 C1063 1.465 . S
C1069 C1068 1.396 . S
C1069 C1070 1.399 . S
C1070 H1056 0.929 . S
C1070 C1069 1.399 . S
C1070 C1071 1.385 . S
C1071 H1057 0.931 . S
C1071 C1070 1.385 . S
C1071 C1072 1.389 . S
C1072 C1071 1.389 . S
C1072 C1073 1.387 . S
C1073 H1058 0.930 . S
C1073 C1068 1.390 . S
C1073 C1072 1.387 . S
H1074 C1086 0.930 . S
H1075 C1088 0.930 . S
H1076 C1089 0.930 . S
H1077 C1093 0.959 . S
H1078 C1093 0.959 . S
H1079 C1093 0.961 . S
H1080 C1094 0.960 . S
H1081 C1094 0.961 . S
H1082 C1094 0.959 . S
H1083 C1097 0.929 . S
H1084 C1098 0.931 . S
H1085 C1100 0.930 . S
C1086 H1074 0.930 . S
C1086 C1087 1.399 . S
C1086 C1091 1.399 . S
C1087 C1086 1.399 . S
C1087 C1088 1.376 . S
C1088 H1075 0.930 . S
C1088 C1087 1.376 . S
C1088 C1089 1.388 . S
C1089 H1076 0.930 . S
C1089 C1088 1.388 . S
C1089 C1090 1.390 . S
C1090 C1089 1.390 . S
C1090 C1091 1.394 . S
C1090 C1096 1.465 . S
C1091 C1086 1.399 . S
C1091 C1090 1.394 . S
C1091 C1092 1.516 . S
C1092 C1091 1.516 . S
C1092 C1093 1.502 . S
C1092 C1094 1.561 . S
C1092 C1095 1.526 . S
C1093 H1077 0.959 . S
C1093 H1078 0.959 . S
C1093 H1079 0.961 . S
C1093 C1092 1.502 . S
C1094 H1080 0.960 . S
C1094 H1081 0.961 . S
C1094 H1082 0.959 . S
C1094 C1092 1.561 . S
C1095 C1092 1.526 . S
C1095 C1096 1.396 . S
C1095 C1100 1.390 . S
C1096 C1090 1.465 . S
C1096 C1095 1.396 . S
C1096 C1097 1.399 . S
C1097 H1083 0.929 . S
C1097 C1096 1.399 . S
C1097 C1098 1.385 . S
C1098 H1084 0.931 . S
C1098 C1097 1.385 . S
C1098 C1099 1.389 . S
C1099 C1098 1.389 . S
C1099 C1100 1.387 . S
C1100 H1085 0.930 . S
C1100 C1095 1.390 . S
C1100 C1099 1.387 . S
H1101 C1113 0.930 . S
H1102 C1115 0.930 . S
H1103 C1116 0.930 . S
H1104 C1120 0.959 . S
H1105 C1120 0.959 . S
H1106 C1120 0.961 . S
H1107 C1121 0.960 . S
H1108 C1121 0.961 . S
H1109 C1121 0.959 . S
H1110 C1124 0.929 . S
H1111 C1125 0.931 . S
H1112 C1127 0.930 . S
C1113 H1101 0.930 . S
C1113 C1114 1.399 . S
C1113 C1118 1.399 . S
C1114 C1113 1.399 . S
C1114 C1115 1.376 . S
C1115 H1102 0.930 . S
C1115 C1114 1.376 . S
C1115 C1116 1.388 . S
C1116 H1103 0.930 . S
C1116 C1115 1.388 . S
C1116 C1117 1.390 . S
C1117 C1116 1.390 . S
C1117 C1118 1.394 . S
C1117 C1123 1.465 . S
C1118 C1113 1.399 . S
C1118 C1117 1.394 . S
C1118 C1119 1.516 . S
C1119 C1118 1.516 . S
C1119 C1120 1.502 . S
C1119 C1121 1.561 . S
C1119 C1122 1.526 . S
C1120 H1104 0.959 . S
C1120 H1105 0.959 . S
C1120 H1106 0.961 . S
C1120 C1119 1.502 . S
C1121 H1107 0.960 . S
C1121 H1108 0.961 . S
C1121 H1109 0.959 . S
C1121 C1119 1.561 . S
C1122 C1119 1.526 . S
C1122 C1123 1.396 . S
C1122 C1127 1.390 . S
C1123 C1117 1.465 . S
C1123 C1122 1.396 . S
C1123 C1124 1.399 . S
C1124 H1110 0.929 . S
C1124 C1123 1.399 . S
C1124 C1125 1.385 . S
C1125 H1111 0.931 . S
C1125 C1124 1.385 . S
C1125 C1126 1.389 . S
C1126 C1125 1.389 . S
C1126 C1127 1.387 . S
C1127 H1112 0.930 . S
C1127 C1122 1.390 . S
C1127 C1126 1.387 . S
H1128 C1140 0.930 . S
H1129 C1142 0.930 . S
H1130 C1143 0.930 . S
H1131 C1147 0.959 . S
H1132 C1147 0.959 . S
H1133 C1147 0.961 . S
H1134 C1148 0.960 . S
H1135 C1148 0.961 . S
H1136 C1148 0.959 . S
H1137 C1151 0.929 . S
H1138 C1152 0.931 . S
H1139 C1154 0.930 . S
C1140 H1128 0.930 . S
C1140 C1141 1.399 . S
C1140 C1145 1.399 . S
C1141 C1140 1.399 . S
C1141 C1142 1.376 . S
C1142 H1129 0.930 . S
C1142 C1141 1.376 . S
C1142 C1143 1.388 . S
C1143 H1130 0.930 . S
C1143 C1142 1.388 . S
C1143 C1144 1.390 . S
C1144 C1143 1.390 . S
C1144 C1145 1.394 . S
C1144 C1150 1.465 . S
C1145 C1140 1.399 . S
C1145 C1144 1.394 . S
C1145 C1146 1.516 . S
C1146 C1145 1.516 . S
C1146 C1147 1.502 . S
C1146 C1148 1.561 . S
C1146 C1149 1.526 . S
C1147 H1131 0.959 . S
C1147 H1132 0.959 . S
C1147 H1133 0.961 . S
C1147 C1146 1.502 . S
C1148 H1134 0.960 . S
C1148 H1135 0.961 . S
C1148 H1136 0.959 . S
C1148 C1146 1.561 . S
C1149 C1146 1.526 . S
C1149 C1150 1.396 . S
C1149 C1154 1.390 . S
C1150 C1144 1.465 . S
C1150 C1149 1.396 . S
C1150 C1151 1.399 . S
C1151 H1137 0.929 . S
C1151 C1150 1.399 . S
C1151 C1152 1.385 . S
C1152 H1138 0.931 . S
C1152 C1151 1.385 . S
C1152 C1153 1.389 . S
C1153 C1152 1.389 . S
C1153 C1154 1.387 . S
C1154 H1139 0.930 . S
C1154 C1149 1.390 . S
C1154 C1153 1.387 . S
H1155 C1167 0.930 . S
H1156 C1169 0.930 . S
H1157 C1170 0.930 . S
H1158 C1174 0.959 . S
H1159 C1174 0.959 . S
H1160 C1174 0.961 . S
H1161 C1175 0.960 . S
H1162 C1175 0.961 . S
H1163 C1175 0.959 . S
H1164 C1178 0.929 . S
H1165 C1179 0.931 . S
H1166 C1181 0.930 . S
C1167 H1155 0.930 . S
C1167 C1168 1.399 . S
C1167 C1172 1.399 . S
C1168 C1167 1.399 . S
C1168 C1169 1.376 . S
C1169 H1156 0.930 . S
C1169 C1168 1.376 . S
C1169 C1170 1.388 . S
C1170 H1157 0.930 . S
C1170 C1169 1.388 . S
C1170 C1171 1.390 . S
C1171 C1170 1.390 . S
C1171 C1172 1.394 . S
C1171 C1177 1.465 . S
C1172 C1167 1.399 . S
C1172 C1171 1.394 . S
C1172 C1173 1.516 . S
C1173 C1172 1.516 . S
C1173 C1174 1.502 . S
C1173 C1175 1.561 . S
C1173 C1176 1.526 . S
C1174 H1158 0.959 . S
C1174 H1159 0.959 . S
C1174 H1160 0.961 . S
C1174 C1173 1.502 . S
C1175 H1161 0.960 . S
C1175 H1162 0.961 . S
C1175 H1163 0.959 . S
C1175 C1173 1.561 . S
C1176 C1173 1.526 . S
C1176 C1177 1.396 . S
C1176 C1181 1.390 . S
C1177 C1171 1.465 . S
C1177 C1176 1.396 . S
C1177 C1178 1.399 . S
C1178 H1164 0.929 . S
C1178 C1177 1.399 . S
C1178 C1179 1.385 . S
C1179 H1165 0.931 . S
C1179 C1178 1.385 . S
C1179 C1180 1.389 . S
C1180 C1179 1.389 . S
C1180 C1181 1.387 . S
C1181 H1166 0.930 . S
C1181 C1176 1.390 . S
C1181 C1180 1.387 . S
H1182 C1194 0.930 . S
H1183 C1196 0.930 . S
H1184 C1197 0.930 . S
H1185 C1201 0.959 . S
H1186 C1201 0.959 . S
H1187 C1201 0.961 . S
H1188 C1202 0.960 . S
H1189 C1202 0.961 . S
H1190 C1202 0.959 . S
H1191 C1205 0.929 . S
H1192 C1206 0.931 . S
H1193 C1208 0.930 . S
C1194 H1182 0.930 . S
C1194 C1195 1.399 . S
C1194 C1199 1.399 . S
C1195 C1194 1.399 . S
C1195 C1196 1.376 . S
C1196 H1183 0.930 . S
C1196 C1195 1.376 . S
C1196 C1197 1.388 . S
C1197 H1184 0.930 . S
C1197 C1196 1.388 . S
C1197 C1198 1.390 . S
C1198 C1197 1.390 . S
C1198 C1199 1.394 . S
C1198 C1204 1.465 . S
C1199 C1194 1.399 . S
C1199 C1198 1.394 . S
C1199 C1200 1.516 . S
C1200 C1199 1.516 . S
C1200 C1201 1.502 . S
C1200 C1202 1.561 . S
C1200 C1203 1.526 . S
C1201 H1185 0.959 . S
C1201 H1186 0.959 . S
C1201 H1187 0.961 . S
C1201 C1200 1.502 . S
C1202 H1188 0.960 . S
C1202 H1189 0.961 . S
C1202 H1190 0.959 . S
C1202 C1200 1.561 . S
C1203 C1200 1.526 . S
C1203 C1204 1.396 . S
C1203 C1208 1.390 . S
C1204 C1198 1.465 . S
C1204 C1203 1.396 . S
C1204 C1205 1.399 . S
C1205 H1191 0.929 . S
C1205 C1204 1.399 . S
C1205 C1206 1.385 . S
C1206 H1192 0.931 . S
C1206 C1205 1.385 . S
C1206 C1207 1.389 . S
C1207 C1206 1.389 . S
C1207 C1208 1.387 . S
C1208 H1193 0.930 . S
C1208 C1203 1.390 . S
C1208 C1207 1.387 . S
H1209 C1221 0.930 . S
H1210 C1223 0.930 . S
H1211 C1224 0.930 . S
H1212 C1228 0.959 . S
H1213 C1228 0.959 . S
H1214 C1228 0.961 . S
H1215 C1229 0.960 . S
H1216 C1229 0.961 . S
H1217 C1229 0.959 . S
H1218 C1232 0.929 . S
H1219 C1233 0.931 . S
H1220 C1235 0.930 . S
C1221 H1209 0.930 . S
C1221 C1222 1.399 . S
C1221 C1226 1.399 . S
C1222 C1221 1.399 . S
C1222 C1223 1.376 . S
C1223 H1210 0.930 . S
C1223 C1222 1.376 . S
C1223 C1224 1.388 . S
C1224 H1211 0.930 . S
C1224 C1223 1.388 . S
C1224 C1225 1.390 . S
C1225 C1224 1.390 . S
C1225 C1226 1.394 . S
C1225 C1231 1.465 . S
C1226 C1221 1.399 . S
C1226 C1225 1.394 . S
C1226 C1227 1.516 . S
C1227 C1226 1.516 . S
C1227 C1228 1.502 . S
C1227 C1229 1.561 . S
C1227 C1230 1.526 . S
C1228 H1212 0.959 . S
C1228 H1213 0.959 . S
C1228 H1214 0.961 . S
C1228 C1227 1.502 . S
C1229 H1215 0.960 . S
C1229 H1216 0.961 . S
C1229 H1217 0.959 . S
C1229 C1227 1.561 . S
C1230 C1227 1.526 . S
C1230 C1231 1.396 . S
C1230 C1235 1.390 . S
C1231 C1225 1.465 . S
C1231 C1230 1.396 . S
C1231 C1232 1.399 . S
C1232 H1218 0.929 . S
C1232 C1231 1.399 . S
C1232 C1233 1.385 . S
C1233 H1219 0.931 . S
C1233 C1232 1.385 . S
C1233 C1234 1.389 . S
C1234 C1233 1.389 . S
C1234 C1235 1.387 . S
C1235 H1220 0.930 . S
C1235 C1230 1.390 . S
C1235 C1234 1.387 . S
H1236 C1248 0.930 . S
H1237 C1250 0.930 . S
H1238 C1251 0.930 . S
H1239 C1255 0.959 . S
H1240 C1255 0.959 . S
H1241 C1255 0.961 . S
H1242 C1256 0.960 . S
H1243 C1256 0.961 . S
H1244 C1256 0.959 . S
H1245 C1259 0.929 . S
H1246 C1260 0.931 . S
H1247 C1262 0.930 . S
C1248 H1236 0.930 . S
C1248 C1249 1.399 . S
C1248 C1253 1.399 . S
C1249 C1248 1.399 . S
C1249 C1250 1.376 . S
C1250 H1237 0.930 . S
C1250 C1249 1.376 . S
C1250 C1251 1.388 . S
C1251 H1238 0.930 . S
C1251 C1250 1.388 . S
C1251 C1252 1.390 . S
C1252 C1251 1.390 . S
C1252 C1253 1.394 . S
C1252 C1258 1.465 . S
C1253 C1248 1.399 . S
C1253 C1252 1.394 . S
C1253 C1254 1.516 . S
C1254 C1253 1.516 . S
C1254 C1255 1.502 . S
C1254 C1256 1.561 . S
C1254 C1257 1.526 . S
C1255 H1239 0.959 . S
C1255 H1240 0.959 . S
C1255 H1241 0.961 . S
C1255 C1254 1.502 . S
C1256 H1242 0.960 . S
C1256 H1243 0.961 . S
C1256 H1244 0.959 . S
C1256 C1254 1.561 . S
C1257 C1254 1.526 . S
C1257 C1258 1.396 . S
C1257 C1262 1.390 . S
C1258 C1252 1.465 . S
C1258 C1257 1.396 . S
C1258 C1259 1.399 . S
C1259 H1245 0.929 . S
C1259 C1258 1.399 . S
C1259 C1260 1.385 . S
C1260 H1246 0.931 . S
C1260 C1259 1.385 . S
C1260 C1261 1.389 . S
C1261 C1260 1.389 . S
C1261 C1262 1.387 . S
C1262 H1247 0.930 . S
C1262 C1257 1.390 . S
C1262 C1261 1.387 . S
H1263 C1275 0.930 . S
H1264 C1277 0.930 . S
H1265 C1278 0.930 . S
H1266 C1282 0.959 . S
H1267 C1282 0.959 . S
H1268 C1282 0.961 . S
H1269 C1283 0.960 . S
H1270 C1283 0.961 . S
H1271 C1283 0.959 . S
H1272 C1286 0.929 . S
H1273 C1287 0.931 . S
H1274 C1289 0.930 . S
C1275 H1263 0.930 . S
C1275 C1276 1.399 . S
C1275 C1280 1.399 . S
C1276 C1275 1.399 . S
C1276 C1277 1.376 . S
C1277 H1264 0.930 . S
C1277 C1276 1.376 . S
C1277 C1278 1.388 . S
C1278 H1265 0.930 . S
C1278 C1277 1.388 . S
C1278 C1279 1.390 . S
C1279 C1278 1.390 . S
C1279 C1280 1.394 . S
C1279 C1285 1.465 . S
C1280 C1275 1.399 . S
C1280 C1279 1.394 . S
C1280 C1281 1.516 . S
C1281 C1280 1.516 . S
C1281 C1282 1.502 . S
C1281 C1283 1.561 . S
C1281 C1284 1.526 . S
C1282 H1266 0.959 . S
C1282 H1267 0.959 . S
C1282 H1268 0.961 . S
C1282 C1281 1.502 . S
C1283 H1269 0.960 . S
C1283 H1270 0.961 . S
C1283 H1271 0.959 . S
C1283 C1281 1.561 . S
C1284 C1281 1.526 . S
C1284 C1285 1.396 . S
C1284 C1289 1.390 . S
C1285 C1279 1.465 . S
C1285 C1284 1.396 . S
C1285 C1286 1.399 . S
C1286 H1272 0.929 . S
C1286 C1285 1.399 . S
C1286 C1287 1.385 . S
C1287 H1273 0.931 . S
C1287 C1286 1.385 . S
C1287 C1288 1.389 . S
C1288 C1287 1.389 . S
C1288 C1289 1.387 . S
C1289 H1274 0.930 . S
C1289 C1284 1.390 . S
C1289 C1288 1.387 . S
H1290 C1302 0.930 . S
H1291 C1304 0.930 . S
H1292 C1305 0.930 . S
H1293 C1309 0.959 . S
H1294 C1309 0.959 . S
H1295 C1309 0.961 . S
H1296 C1310 0.960 . S
H1297 C1310 0.961 . S
H1298 C1310 0.959 . S
H1299 C1313 0.929 . S
H1300 C1314 0.931 . S
H1301 C1316 0.930 . S
C1302 H1290 0.930 . S
C1302 C1303 1.399 . S
C1302 C1307 1.399 . S
C1303 C1302 1.399 . S
C1303 C1304 1.376 . S
C1304 H1291 0.930 . S
C1304 C1303 1.376 . S
C1304 C1305 1.388 . S
C1305 H1292 0.930 . S
C1305 C1304 1.388 . S
C1305 C1306 1.390 . S
C1306 C1305 1.390 . S
C1306 C1307 1.394 . S
C1306 C1312 1.465 . S
C1307 C1302 1.399 . S
C1307 C1306 1.394 . S
C1307 C1308 1.516 . S
C1308 C1307 1.516 . S
C1308 C1309 1.502 . S
C1308 C1310 1.561 . S
C1308 C1311 1.526 . S
C1309 H1293 0.959 . S
C1309 H1294 0.959 . S
C1309 H1295 0.961 . S
C1309 C1308 1.502 . S
C1310 H1296 0.960 . S
C1310 H1297 0.961 . S
C1310 H1298 0.959 . S
C1310 C1308 1.561 . S
C1311 C1308 1.526 . S
C1311 C1312 1.396 . S
C1311 C1316 1.390 . S
C1312 C1306 1.465 . S
C1312 C1311 1.396 . S
C1312 C1313 1.399 . S
C1313 H1299 0.929 . S
C1313 C1312 1.399 . S
C1313 C1314 1.385 . S
C1314 H1300 0.931 . S
C1314 C1313 1.385 . S
C1314 C1315 1.389 . S
C1315 C1314 1.389 . S
C1315 C1316 1.387 . S
C1316 H1301 0.930 . S
C1316 C1311 1.390 . S
C1316 C1315 1.387 . S
H1317 C1329 0.930 . S
H1318 C1331 0.930 . S
H1319 C1332 0.930 . S
H1320 C1336 0.959 . S
H1321 C1336 0.959 . S
H1322 C1336 0.961 . S
H1323 C1337 0.960 . S
H1324 C1337 0.961 . S
H1325 C1337 0.959 . S
H1326 C1340 0.929 . S
H1327 C1341 0.931 . S
H1328 C1343 0.930 . S
C1329 H1317 0.930 . S
C1329 C1330 1.399 . S
C1329 C1334 1.399 . S
C1330 C1329 1.399 . S
C1330 C1331 1.376 . S
C1331 H1318 0.930 . S
C1331 C1330 1.376 . S
C1331 C1332 1.388 . S
C1332 H1319 0.930 . S
C1332 C1331 1.388 . S
C1332 C1333 1.390 . S
C1333 C1332 1.390 . S
C1333 C1334 1.394 . S
C1333 C1339 1.465 . S
C1334 C1329 1.399 . S
C1334 C1333 1.394 . S
C1334 C1335 1.516 . S
C1335 C1334 1.516 . S
C1335 C1336 1.502 . S
C1335 C1337 1.561 . S
C1335 C1338 1.526 . S
C1336 H1320 0.959 . S
C1336 H1321 0.959 . S
C1336 H1322 0.961 . S
C1336 C1335 1.502 . S
C1337 H1323 0.960 . S
C1337 H1324 0.961 . S
C1337 H1325 0.959 . S
C1337 C1335 1.561 . S
C1338 C1335 1.526 . S
C1338 C1339 1.396 . S
C1338 C1343 1.390 . S
C1339 C1333 1.465 . S
C1339 C1338 1.396 . S
C1339 C1340 1.399 . S
C1340 H1326 0.929 . S
C1340 C1339 1.399 . S
C1340 C1341 1.385 . S
C1341 H1327 0.931 . S
C1341 C1340 1.385 . S
C1341 C1342 1.389 . S
C1342 C1341 1.389 . S
C1342 C1343 1.387 . S
C1343 H1328 0.930 . S
C1343 C1338 1.390 . S
C1343 C1342 1.387 . S
H1344 C1356 0.930 . S
H1345 C1358 0.930 . S
H1346 C1359 0.930 . S
H1347 C1363 0.959 . S
H1348 C1363 0.959 . S
H1349 C1363 0.961 . S
H1350 C1364 0.960 . S
H1351 C1364 0.961 . S
H1352 C1364 0.959 . S
H1353 C1367 0.929 . S
H1354 C1368 0.931 . S
H1355 C1370 0.930 . S
C1356 H1344 0.930 . S
C1356 C1357 1.399 . S
C1356 C1361 1.399 . S
C1357 C1356 1.399 . S
C1357 C1358 1.376 . S
C1358 H1345 0.930 . S
C1358 C1357 1.376 . S
C1358 C1359 1.388 . S
C1359 H1346 0.930 . S
C1359 C1358 1.388 . S
C1359 C1360 1.390 . S
C1360 C1359 1.390 . S
C1360 C1361 1.394 . S
C1360 C1366 1.465 . S
C1361 C1356 1.399 . S
C1361 C1360 1.394 . S
C1361 C1362 1.516 . S
C1362 C1361 1.516 . S
C1362 C1363 1.502 . S
C1362 C1364 1.561 . S
C1362 C1365 1.526 . S
C1363 H1347 0.959 . S
C1363 H1348 0.959 . S
C1363 H1349 0.961 . S
C1363 C1362 1.502 . S
C1364 H1350 0.960 . S
C1364 H1351 0.961 . S
C1364 H1352 0.959 . S
C1364 C1362 1.561 . S
C1365 C1362 1.526 . S
C1365 C1366 1.396 . S
C1365 C1370 1.390 . S
C1366 C1360 1.465 . S
C1366 C1365 1.396 . S
C1366 C1367 1.399 . S
C1367 H1353 0.929 . S
C1367 C1366 1.399 . S
C1367 C1368 1.385 . S
C1368 H1354 0.931 . S
C1368 C1367 1.385 . S
C1368 C1369 1.389 . S
C1369 C1368 1.389 . S
C1369 C1370 1.387 . S
C1370 H1355 0.930 . S
C1370 C1365 1.390 . S
C1370 C1369 1.387 . S
H1371 C1383 0.930 . S
H1372 C1385 0.930 . S
H1373 C1386 0.930 . S
H1374 C1390 0.959 . S
H1375 C1390 0.959 . S
H1376 C1390 0.961 . S
H1377 C1391 0.960 . S
H1378 C1391 0.961 . S
H1379 C1391 0.959 . S
H1380 C1394 0.929 . S
H1381 C1395 0.931 . S
H1382 C1397 0.930 . S
C1383 H1371 0.930 . S
C1383 C1384 1.399 . S
C1383 C1388 1.399 . S
C1384 C1383 1.399 . S
C1384 C1385 1.376 . S
C1385 H1372 0.930 . S
C1385 C1384 1.376 . S
C1385 C1386 1.388 . S
C1386 H1373 0.930 . S
C1386 C1385 1.388 . S
C1386 C1387 1.390 . S
C1387 C1386 1.390 . S
C1387 C1388 1.394 . S
C1387 C1393 1.465 . S
C1388 C1383 1.399 . S
C1388 C1387 1.394 . S
C1388 C1389 1.516 . S
C1389 C1388 1.516 . S
C1389 C1390 1.502 . S
C1389 C1391 1.561 . S
C1389 C1392 1.526 . S
C1390 H1374 0.959 . S
C1390 H1375 0.959 . S
C1390 H1376 0.961 . S
C1390 C1389 1.502 . S
C1391 H1377 0.960 . S
C1391 H1378 0.961 . S
C1391 H1379 0.959 . S
C1391 C1389 1.561 . S
C1392 C1389 1.526 . S
C1392 C1393 1.396 . S
C1392 C1397 1.390 . S
C1393 C1387 1.465 . S
C1393 C1392 1.396 . S
C1393 C1394 1.399 . S
C1394 H1380 0.929 . S
C1394 C1393 1.399 . S
C1394 C1395 1.385 . S
C1395 H1381 0.931 . S
C1395 C1394 1.385 . S
C1395 C1396 1.389 . S
C1396 C1395 1.389 . S
C1396 C1397 1.387 . S
C1397 H1382 0.930 . S
C1397 C1392 1.390 . S
C1397 C1396 1.387 . S
H1398 C1410 0.930 . S
H1399 C1412 0.930 . S
H1400 C1413 0.930 . S
H1401 C1417 0.959 . S
H1402 C1417 0.959 . S
H1403 C1417 0.961 . S
H1404 C1418 0.960 . S
H1405 C1418 0.961 . S
H1406 C1418 0.959 . S
H1407 C1421 0.929 . S
H1408 C1422 0.931 . S
H1409 C1424 0.930 . S
C1410 H1398 0.930 . S
C1410 C1411 1.399 . S
C1410 C1415 1.399 . S
C1411 C1410 1.399 . S
C1411 C1412 1.376 . S
C1412 H1399 0.930 . S
C1412 C1411 1.376 . S
C1412 C1413 1.388 . S
C1413 H1400 0.930 . S
C1413 C1412 1.388 . S
C1413 C1414 1.390 . S
C1414 C1413 1.390 . S
C1414 C1415 1.394 . S
C1414 C1420 1.465 . S
C1415 C1410 1.399 . S
C1415 C1414 1.394 . S
C1415 C1416 1.516 . S
C1416 C1415 1.516 . S
C1416 C1417 1.502 . S
C1416 C1418 1.561 . S
C1416 C1419 1.526 . S
C1417 H1401 0.959 . S
C1417 H1402 0.959 . S
C1417 H1403 0.961 . S
C1417 C1416 1.502 . S
C1418 H1404 0.960 . S
C1418 H1405 0.961 . S
C1418 H1406 0.959 . S
C1418 C1416 1.561 . S
C1419 C1416 1.526 . S
C1419 C1420 1.396 . S
C1419 C1424 1.390 . S
C1420 C1414 1.465 . S
C1420 C1419 1.396 . S
C1420 C1421 1.399 . S
C1421 H1407 0.929 . S
C1421 C1420 1.399 . S
C1421 C1422 1.385 . S
C1422 H1408 0.931 . S
C1422 C1421 1.385 . S
C1422 C1423 1.389 . S
C1423 C1422 1.389 . S
C1423 C1424 1.387 . S
C1424 H1409 0.930 . S
C1424 C1419 1.390 . S
C1424 C1423 1.387 . S
H1425 C1437 0.930 . S
H1426 C1439 0.930 . S
H1427 C1440 0.930 . S
H1428 C1444 0.959 . S
H1429 C1444 0.959 . S
H1430 C1444 0.961 . S
H1431 C1445 0.960 . S
H1432 C1445 0.961 . S
H1433 C1445 0.959 . S
H1434 C1448 0.929 . S
H1435 C1449 0.931 . S
H1436 C1451 0.930 . S
C1437 H1425 0.930 . S
C1437 C1438 1.399 . S
C1437 C1442 1.399 . S
C1438 C1437 1.399 . S
C1438 C1439 1.376 . S
C1439 H1426 0.930 . S
C1439 C1438 1.376 . S
C1439 C1440 1.388 . S
C1440 H1427 0.930 . S
C1440 C1439 1.388 . S
C1440 C1441 1.390 . S
C1441 C1440 1.390 . S
C1441 C1442 1.394 . S
C1441 C1447 1.465 . S
C1442 C1437 1.399 . S
C1442 C1441 1.394 . S
C1442 C1443 1.516 . S
C1443 C1442 1.516 . S
C1443 C1444 1.502 . S
C1443 C1445 1.561 . S
C1443 C1446 1.526 . S
C1444 H1428 0.959 . S
C1444 H1429 0.959 . S
C1444 H1430 0.961 . S
C1444 C1443 1.502 . S
C1445 H1431 0.960 . S
C1445 H1432 0.961 . S
C1445 H1433 0.959 . S
C1445 C1443 1.561 . S
C1446 C1443 1.526 . S
C1446 C1447 1.396 . S
C1446 C1451 1.390 . S
C1447 C1441 1.465 . S
C1447 C1446 1.396 . S
C1447 C1448 1.399 . S
C1448 H1434 0.929 . S
C1448 C1447 1.399 . S
C1448 C1449 1.385 . S
C1449 H1435 0.931 . S
C1449 C1448 1.385 . S
C1449 C1450 1.389 . S
C1450 C1449 1.389 . S
C1450 C1451 1.387 . S
C1451 H1436 0.930 . S
C1451 C1446 1.390 . S
C1451 C1450 1.387 . S
H1452 C1464 0.930 . S
H1453 C1466 0.930 . S
H1454 C1467 0.930 . S
H1455 C1471 0.959 . S
H1456 C1471 0.959 . S
H1457 C1471 0.961 . S
H1458 C1472 0.960 . S
H1459 C1472 0.961 . S
H1460 C1472 0.959 . S
H1461 C1475 0.929 . S
H1462 C1476 0.931 . S
H1463 C1478 0.930 . S
C1464 H1452 0.930 . S
C1464 C1465 1.399 . S
C1464 C1469 1.399 . S
C1465 C1464 1.399 . S
C1465 C1466 1.376 . S
C1466 H1453 0.930 . S
C1466 C1465 1.376 . S
C1466 C1467 1.388 . S
C1467 H1454 0.930 . S
C1467 C1466 1.388 . S
C1467 C1468 1.390 . S
C1468 C1467 1.390 . S
C1468 C1469 1.394 . S
C1468 C1474 1.465 . S
C1469 C1464 1.399 . S
C1469 C1468 1.394 . S
C1469 C1470 1.516 . S
C1470 C1469 1.516 . S
C1470 C1471 1.502 . S
C1470 C1472 1.561 . S
C1470 C1473 1.526 . S
C1471 H1455 0.959 . S
C1471 H1456 0.959 . S
C1471 H1457 0.961 . S
C1471 C1470 1.502 . S
C1472 H1458 0.960 . S
C1472 H1459 0.961 . S
C1472 H1460 0.959 . S
C1472 C1470 1.561 . S
C1473 C1470 1.526 . S
C1473 C1474 1.396 . S
C1473 C1478 1.390 . S
C1474 C1468 1.465 . S
C1474 C1473 1.396 . S
C1474 C1475 1.399 . S
C1475 H1461 0.929 . S
C1475 C1474 1.399 . S
C1475 C1476 1.385 . S
C1476 H1462 0.931 . S
C1476 C1475 1.385 . S
C1476 C1477 1.389 . S
C1477 C1476 1.389 . S
C1477 C1478 1.387 . S
C1478 H1463 0.930 . S
C1478 C1473 1.390 . S
C1478 C1477 1.387 . S
H1479 C1491 0.930 . S
H1480 C1493 0.930 . S
H1481 C1494 0.930 . S
H1482 C1498 0.959 . S
H1483 C1498 0.959 . S
H1484 C1498 0.961 . S
H1485 C1499 0.960 . S
H1486 C1499 0.961 . S
H1487 C1499 0.959 . S
H1488 C1502 0.929 . S
H1489 C1503 0.931 . S
H1490 C1505 0.930 . S
C1491 H1479 0.930 . S
C1491 C1492 1.399 . S
C1491 C1496 1.399 . S
C1492 C1491 1.399 . S
C1492 C1493 1.376 . S
C1493 H1480 0.930 . S
C1493 C1492 1.376 . S
C1493 C1494 1.388 . S
C1494 H1481 0.930 . S
C1494 C1493 1.388 . S
C1494 C1495 1.390 . S
C1495 C1494 1.390 . S
C1495 C1496 1.394 . S
C1495 C1501 1.465 . S
C1496 C1491 1.399 . S
C1496 C1495 1.394 . S
C1496 C1497 1.516 . S
C1497 C1496 1.516 . S
C1497 C1498 1.502 . S
C1497 C1499 1.561 . S
C1497 C1500 1.526 . S
C1498 H1482 0.959 . S
C1498 H1483 0.959 . S
C1498 H1484 0.961 . S
C1498 C1497 1.502 . S
C1499 H1485 0.960 . S
C1499 H1486 0.961 . S
C1499 H1487 0.959 . S
C1499 C1497 1.561 . S
C1500 C1497 1.526 . S
C1500 C1501 1.396 . S
C1500 C1505 1.390 . S
C1501 C1495 1.465 . S
C1501 C1500 1.396 . S
C1501 C1502 1.399 . S
C1502 H1488 0.929 . S
C1502 C1501 1.399 . S
C1502 C1503 1.385 . S
C1503 H1489 0.931 . S
C1503 C1502 1.385 . S
C1503 C1504 1.389 . S
C1504 C1503 1.389 . S
C1504 C1505 1.387 . S
C1505 H1490 0.930 . S
C1505 C1500 1.390 . S
C1505 C1504 1.387 . S
H1506 C1518 0.930 . S
H1507 C1520 0.930 . S
H1508 C1521 0.930 . S
H1509 C1525 0.959 . S
H1510 C1525 0.959 . S
H1511 C1525 0.961 . S
H1512 C1526 0.960 . S
H1513 C1526 0.961 . S
H1514 C1526 0.959 . S
H1515 C1529 0.929 . S
H1516 C1530 0.931 . S
H1517 C1532 0.930 . S
C1518 H1506 0.930 . S
C1518 C1519 1.399 . S
C1518 C1523 1.399 . S
C1519 C1518 1.399 . S
C1519 C1520 1.376 . S
C1520 H1507 0.930 . S
C1520 C1519 1.376 . S
C1520 C1521 1.388 . S
C1521 H1508 0.930 . S
C1521 C1520 1.388 . S
C1521 C1522 1.390 . S
C1522 C1521 1.390 . S
C1522 C1523 1.394 . S
C1522 C1528 1.465 . S
C1523 C1518 1.399 . S
C1523 C1522 1.394 . S
C1523 C1524 1.516 . S
C1524 C1523 1.516 . S
C1524 C1525 1.502 . S
C1524 C1526 1.561 . S
C1524 C1527 1.526 . S
C1525 H1509 0.959 . S
C1525 H1510 0.959 . S
C1525 H1511 0.961 . S
C1525 C1524 1.502 . S
C1526 H1512 0.960 . S
C1526 H1513 0.961 . S
C1526 H1514 0.959 . S
C1526 C1524 1.561 . S
C1527 C1524 1.526 . S
C1527 C1528 1.396 . S
C1527 C1532 1.390 . S
C1528 C1522 1.465 . S
C1528 C1527 1.396 . S
C1528 C1529 1.399 . S
C1529 H1515 0.929 . S
C1529 C1528 1.399 . S
C1529 C1530 1.385 . S
C1530 H1516 0.931 . S
C1530 C1529 1.385 . S
C1530 C1531 1.389 . S
C1531 C1530 1.389 . S
C1531 C1532 1.387 . S
C1532 H1517 0.930 . S
C1532 C1527 1.390 . S
C1532 C1531 1.387 . S
H1533 C1545 0.930 . S
H1534 C1547 0.930 . S
H1535 C1548 0.930 . S
H1536 C1552 0.959 . S
H1537 C1552 0.959 . S
H1538 C1552 0.961 . S
H1539 C1553 0.960 . S
H1540 C1553 0.961 . S
H1541 C1553 0.959 . S
H1542 C1556 0.929 . S
H1543 C1557 0.931 . S
H1544 C1559 0.930 . S
C1545 H1533 0.930 . S
C1545 C1546 1.399 . S
C1545 C1550 1.399 . S
C1546 C1545 1.399 . S
C1546 C1547 1.376 . S
C1547 H1534 0.930 . S
C1547 C1546 1.376 . S
C1547 C1548 1.388 . S
C1548 H1535 0.930 . S
C1548 C1547 1.388 . S
C1548 C1549 1.390 . S
C1549 C1548 1.390 . S
C1549 C1550 1.394 . S
C1549 C1555 1.465 . S
C1550 C1545 1.399 . S
C1550 C1549 1.394 . S
C1550 C1551 1.516 . S
C1551 C1550 1.516 . S
C1551 C1552 1.502 . S
C1551 C1553 1.561 . S
C1551 C1554 1.526 . S
C1552 H1536 0.959 . S
C1552 H1537 0.959 . S
C1552 H1538 0.961 . S
C1552 C1551 1.502 . S
C1553 H1539 0.960 . S
C1553 H1540 0.961 . S
C1553 H1541 0.959 . S
C1553 C1551 1.561 . S
C1554 C1551 1.526 . S
C1554 C1555 1.396 . S
C1554 C1559 1.390 . S
C1555 C1549 1.465 . S
C1555 C1554 1.396 . S
C1555 C1556 1.399 . S
C1556 H1542 0.929 . S
C1556 C1555 1.399 . S
C1556 C1557 1.385 . S
C1557 H1543 0.931 . S
C1557 C1556 1.385 . S
C1557 C1558 1.389 . S
C1558 C1557 1.389 . S
C1558 C1559 1.387 . S
C1559 H1544 0.930 . S
C1559 C1554 1.390 . S
C1559 C1558 1.387 . S
H1560 C1572 0.930 . S
H1561 C1574 0.930 . S
H1562 C1575 0.930 . S
H1563 C1579 0.959 . S
H1564 C1579 0.959 . S
H1565 C1579 0.961 . S
H1566 C1580 0.960 . S
H1567 C1580 0.961 . S
H1568 C1580 0.959 . S
H1569 C1583 0.929 . S
H1570 C1584 0.931 . S
H1571 C1586 0.930 . S
C1572 H1560 0.930 . S
C1572 C1573 1.399 . S
C1572 C1577 1.399 . S
C1573 C1572 1.399 . S
C1573 C1574 1.376 . S
C1574 H1561 0.930 . S
C1574 C1573 1.376 . S
C1574 C1575 1.388 . S
C1575 H1562 0.930 . S
C1575 C1574 1.388 . S
C1575 C1576 1.390 . S
C1576 C1575 1.390 . S
C1576 C1577 1.394 . S
C1576 C1582 1.465 . S
C1577 C1572 1.399 . S
C1577 C1576 1.394 . S
C1577 C1578 1.516 . S
C1578 C1577 1.516 . S
C1578 C1579 1.502 . S
C1578 C1580 1.561 . S
C1578 C1581 1.526 . S
C1579 H1563 0.959 . S
C1579 H1564 0.959 . S
C1579 H1565 0.961 . S
C1579 C1578 1.502 . S
C1580 H1566 0.960 . S
C1580 H1567 0.961 . S
C1580 H1568 0.959 . S
C1580 C1578 1.561 . S
C1581 C1578 1.526 . S
C1581 C1582 1.396 . S
C1581 C1586 1.390 . S
C1582 C1576 1.465 . S
C1582 C1581 1.396 . S
C1582 C1583 1.399 . S
C1583 H1569 0.929 . S
C1583 C1582 1.399 . S
C1583 C1584 1.385 . S
C1584 H1570 0.931 . S
C1584 C1583 1.385 . S
C1584 C1585 1.389 . S
C1585 C1584 1.389 . S
C1585 C1586 1.387 . S
C1586 H1571 0.930 . S
C1586 C1581 1.390 . S
C1586 C1585 1.387 . S
H1587 C1599 0.930 . S
H1588 C1601 0.930 . S
H1589 C1602 0.930 . S
H1590 C1606 0.959 . S
H1591 C1606 0.959 . S
H1592 C1606 0.961 . S
H1593 C1607 0.960 . S
H1594 C1607 0.961 . S
H1595 C1607 0.959 . S
H1596 C1610 0.929 . S
H1597 C1611 0.931 . S
H1598 C1613 0.930 . S
C1599 H1587 0.930 . S
C1599 C1600 1.399 . S
C1599 C1604 1.399 . S
C1600 C1599 1.399 . S
C1600 C1601 1.376 . S
C1601 H1588 0.930 . S
C1601 C1600 1.376 . S
C1601 C1602 1.388 . S
C1602 H1589 0.930 . S
C1602 C1601 1.388 . S
C1602 C1603 1.390 . S
C1603 C1602 1.390 . S
C1603 C1604 1.394 . S
C1603 C1609 1.465 . S
C1604 C1599 1.399 . S
C1604 C1603 1.394 . S
C1604 C1605 1.516 . S
C1605 C1604 1.516 . S
C1605 C1606 1.502 . S
C1605 C1607 1.561 . S
C1605 C1608 1.526 . S
C1606 H1590 0.959 . S
C1606 H1591 0.959 . S
C1606 H1592 0.961 . S
C1606 C1605 1.502 . S
C1607 H1593 0.960 . S
C1607 H1594 0.961 . S
C1607 H1595 0.959 . S
C1607 C1605 1.561 . S
C1608 C1605 1.526 . S
C1608 C1609 1.396 . S
C1608 C1613 1.390 . S
C1609 C1603 1.465 . S
C1609 C1608 1.396 . S
C1609 C1610 1.399 . S
C1610 H1596 0.929 . S
C1610 C1609 1.399 . S
C1610 C1611 1.385 . S
C1611 H1597 0.931 . S
C1611 C1610 1.385 . S
C1611 C1612 1.389 . S
C1612 C1611 1.389 . S
C1612 C1613 1.387 . S
C1613 H1598 0.930 . S
C1613 C1608 1.390 . S
C1613 C1612 1.387 . S
H1614 C1626 0.930 . S
H1615 C1628 0.930 . S
H1616 C1629 0.930 . S
H1617 C1633 0.959 . S
H1618 C1633 0.959 . S
H1619 C1633 0.961 . S
H1620 C1634 0.960 . S
H1621 C1634 0.961 . S
H1622 C1634 0.959 . S
H1623 C1637 0.929 . S
H1624 C1638 0.931 . S
H1625 C1640 0.930 . S
C1626 H1614 0.930 . S
C1626 C1627 1.399 . S
C1626 C1631 1.399 . S
C1627 C1626 1.399 . S
C1627 C1628 1.376 . S
C1628 H1615 0.930 . S
C1628 C1627 1.376 . S
C1628 C1629 1.388 . S
C1629 H1616 0.930 . S
C1629 C1628 1.388 . S
C1629 C1630 1.390 . S
C1630 C1629 1.390 . S
C1630 C1631 1.394 . S
C1630 C1636 1.465 . S
C1631 C1626 1.399 . S
C1631 C1630 1.394 . S
C1631 C1632 1.516 . S
C1632 C1631 1.516 . S
C1632 C1633 1.502 . S
C1632 C1634 1.561 . S
C1632 C1635 1.526 . S
C1633 H1617 0.959 . S
C1633 H1618 0.959 . S
C1633 H1619 0.961 . S
C1633 C1632 1.502 . S
C1634 H1620 0.960 . S
C1634 H1621 0.961 . S
C1634 H1622 0.959 . S
C1634 C1632 1.561 . S
C1635 C1632 1.526 . S
C1635 C1636 1.396 . S
C1635 C1640 1.390 . S
C1636 C1630 1.465 . S
C1636 C1635 1.396 . S
C1636 C1637 1.399 . S
C1637 H1623 0.929 . S
C1637 C1636 1.399 . S
C1637 C1638 1.385 . S
C1638 H1624 0.931 . S
C1638 C1637 1.385 . S
C1638 C1639 1.389 . S
C1639 C1638 1.389 . S
C1639 C1640 1.387 . S
C1640 H1625 0.930 . S
C1640 C1635 1.390 . S
C1640 C1639 1.387 . S
H1641 C1653 0.930 . S
H1642 C1655 0.930 . S
H1643 C1656 0.930 . S
H1644 C1660 0.959 . S
H1645 C1660 0.959 . S
H1646 C1660 0.961 . S
H1647 C1661 0.960 . S
H1648 C1661 0.961 . S
H1649 C1661 0.959 . S
H1650 C1664 0.929 . S
H1651 C1665 0.931 . S
H1652 C1667 0.930 . S
C1653 H1641 0.930 . S
C1653 C1654 1.399 . S
C1653 C1658 1.399 . S
C1654 C1653 1.399 . S
C1654 C1655 1.376 . S
C1655 H1642 0.930 . S
C1655 C1654 1.376 . S
C1655 C1656 1.388 . S
C1656 H1643 0.930 . S
C1656 C1655 1.388 . S
C1656 C1657 1.390 . S
C1657 C1656 1.390 . S
C1657 C1658 1.394 . S
C1657 C1663 1.465 . S
C1658 C1653 1.399 . S
C1658 C1657 1.394 . S
C1658 C1659 1.516 . S
C1659 C1658 1.516 . S
C1659 C1660 1.502 . S
C1659 C1661 1.561 . S
C1659 C1662 1.526 . S
C1660 H1644 0.959 . S
C1660 H1645 0.959 . S
C1660 H1646 0.961 . S
C1660 C1659 1.502 . S
C1661 H1647 0.960 . S
C1661 H1648 0.961 . S
C1661 H1649 0.959 . S
C1661 C1659 1.561 . S
C1662 C1659 1.526 . S
C1662 C1663 1.396 . S
C1662 C1667 1.390 . S
C1663 C1657 1.465 . S
C1663 C1662 1.396 . S
C1663 C1664 1.399 . S
C1664 H1650 0.929 . S
C1664 C1663 1.399 . S
C1664 C1665 1.385 . S
C1665 H1651 0.931 . S
C1665 C1664 1.385 . S
C1665 C1666 1.389 . S
C1666 C1665 1.389 . S
C1666 C1667 1.387 . S
C1667 H1652 0.930 . S
C1667 C1662 1.390 . S
C1667 C1666 1.387 . S
H1668 C1680 0.930 . S
H1669 C1682 0.930 . S
H1670 C1683 0.930 . S
H1671 C1687 0.959 . S
H1672 C1687 0.959 . S
H1673 C1687 0.961 . S
H1674 C1688 0.960 . S
H1675 C1688 0.961 . S
H1676 C1688 0.959 . S
H1677 C1691 0.929 . S
H1678 C1692 0.931 . S
H1679 C1694 0.930 . S
C1680 H1668 0.930 . S
C1680 C1681 1.399 . S
C1680 C1685 1.399 . S
C1681 C1680 1.399 . S
C1681 C1682 1.376 . S
C1682 H1669 0.930 . S
C1682 C1681 1.376 . S
C1682 C1683 1.388 . S
C1683 H1670 0.930 . S
C1683 C1682 1.388 . S
C1683 C1684 1.390 . S
C1684 C1683 1.390 . S
C1684 C1685 1.394 . S
C1684 C1690 1.465 . S
C1685 C1680 1.399 . S
C1685 C1684 1.394 . S
C1685 C1686 1.516 . S
C1686 C1685 1.516 . S
C1686 C1687 1.502 . S
C1686 C1688 1.561 . S
C1686 C1689 1.526 . S
C1687 H1671 0.959 . S
C1687 H1672 0.959 . S
C1687 H1673 0.961 . S
C1687 C1686 1.502 . S
C1688 H1674 0.960 . S
C1688 H1675 0.961 . S
C1688 H1676 0.959 . S
C1688 C1686 1.561 . S
C1689 C1686 1.526 . S
C1689 C1690 1.396 . S
C1689 C1694 1.390 . S
C1690 C1684 1.465 . S
C1690 C1689 1.396 . S
C1690 C1691 1.399 . S
C1691 H1677 0.929 . S
C1691 C1690 1.399 . S
C1691 C1692 1.385 . S
C1692 H1678 0.931 . S
C1692 C1691 1.385 . S
C1692 C1693 1.389 . S
C1693 C1692 1.389 . S
C1693 C1694 1.387 . S
C1694 H1679 0.930 . S
C1694 C1689 1.390 . S
C1694 C1693 1.387 . S
H1695 C1707 0.930 . S
H1696 C1709 0.930 . S
H1697 C1710 0.930 . S
H1698 C1714 0.959 . S
H1699 C1714 0.959 . S
H1700 C1714 0.961 . S
H1701 C1715 0.960 . S
H1702 C1715 0.961 . S
H1703 C1715 0.959 . S
H1704 C1718 0.929 . S
H1705 C1719 0.931 . S
H1706 C1721 0.930 . S
C1707 H1695 0.930 . S
C1707 C1708 1.399 . S
C1707 C1712 1.399 . S
C1708 C1707 1.399 . S
C1708 C1709 1.376 . S
C1709 H1696 0.930 . S
C1709 C1708 1.376 . S
C1709 C1710 1.388 . S
C1710 H1697 0.930 . S
C1710 C1709 1.388 . S
C1710 C1711 1.390 . S
C1711 C1710 1.390 . S
C1711 C1712 1.394 . S
C1711 C1717 1.465 . S
C1712 C1707 1.399 . S
C1712 C1711 1.394 . S
C1712 C1713 1.516 . S
C1713 C1712 1.516 . S
C1713 C1714 1.502 . S
C1713 C1715 1.561 . S
C1713 C1716 1.526 . S
C1714 H1698 0.959 . S
C1714 H1699 0.959 . S
C1714 H1700 0.961 . S
C1714 C1713 1.502 . S
C1715 H1701 0.960 . S
C1715 H1702 0.961 . S
C1715 H1703 0.959 . S
C1715 C1713 1.561 . S
C1716 C1713 1.526 . S
C1716 C1717 1.396 . S
C1716 C1721 1.390 . S
C1717 C1711 1.465 . S
C1717 C1716 1.396 . S
C1717 C1718 1.399 . S
C1718 H1704 0.929 . S
C1718 C1717 1.399 . S
C1718 C1719 1.385 . S
C1719 H1705 0.931 . S
C1719 C1718 1.385 . S
C1719 C1720 1.389 . S
C1720 C1719 1.389 . S
C1720 C1721 1.387 . S
C1721 H1706 0.930 . S
C1721 C1716 1.390 . S
C1721 C1720 1.387 . S
H1722 C1734 0.930 . S
H1723 C1736 0.930 . S
H1724 C1737 0.930 . S
H1725 C1741 0.959 . S
H1726 C1741 0.959 . S
H1727 C1741 0.961 . S
H1728 C1742 0.960 . S
H1729 C1742 0.961 . S
H1730 C1742 0.959 . S
H1731 C1745 0.929 . S
H1732 C1746 0.931 . S
H1733 C1748 0.930 . S
C1734 H1722 0.930 . S
C1734 C1735 1.399 . S
C1734 C1739 1.399 . S
C1735 C1734 1.399 . S
C1735 C1736 1.376 . S
C1736 H1723 0.930 . S
C1736 C1735 1.376 . S
C1736 C1737 1.388 . S
C1737 H1724 0.930 . S
C1737 C1736 1.388 . S
C1737 C1738 1.390 . S
C1738 C1737 1.390 . S
C1738 C1739 1.394 . S
C1738 C1744 1.465 . S
C1739 C1734 1.399 . S
C1739 C1738 1.394 . S
C1739 C1740 1.516 . S
C1740 C1739 1.516 . S
C1740 C1741 1.502 . S
C1740 C1742 1.561 . S
C1740 C1743 1.526 . S
C1741 H1725 0.959 . S
C1741 H1726 0.959 . S
C1741 H1727 0.961 . S
C1741 C1740 1.502 . S
C1742 H1728 0.960 . S
C1742 H1729 0.961 . S
C1742 H1730 0.959 . S
C1742 C1740 1.561 . S
C1743 C1740 1.526 . S
C1743 C1744 1.396 . S
C1743 C1748 1.390 . S
C1744 C1738 1.465 . S
C1744 C1743 1.396 . S
C1744 C1745 1.399 . S
C1745 H1731 0.929 . S
C1745 C1744 1.399 . S
C1745 C1746 1.385 . S
C1746 H1732 0.931 . S
C1746 C1745 1.385 . S
C1746 C1747 1.389 . S
C1747 C1746 1.389 . S
C1747 C1748 1.387 . S
C1748 H1733 0.930 . S
C1748 C1743 1.390 . S
C1748 C1747 1.387 . S
H1749 C1761 0.930 . S
H1750 C1763 0.930 . S
H1751 C1764 0.930 . S
H1752 C1768 0.959 . S
H1753 C1768 0.959 . S
H1754 C1768 0.961 . S
H1755 C1769 0.960 . S
H1756 C1769 0.961 . S
H1757 C1769 0.959 . S
H1758 C1772 0.929 . S
H1759 C1773 0.931 . S
H1760 C1775 0.930 . S
C1761 H1749 0.930 . S
C1761 C1762 1.399 . S
C1761 C1766 1.399 . S
C1762 C1761 1.399 . S
C1762 C1763 1.376 . S
C1763 H1750 0.930 . S
C1763 C1762 1.376 . S
C1763 C1764 1.388 . S
C1764 H1751 0.930 . S
C1764 C1763 1.388 . S
C1764 C1765 1.390 . S
C1765 C1764 1.390 . S
C1765 C1766 1.394 . S
C1765 C1771 1.465 . S
C1766 C1761 1.399 . S
C1766 C1765 1.394 . S
C1766 C1767 1.516 . S
C1767 C1766 1.516 . S
C1767 C1768 1.502 . S
C1767 C1769 1.561 . S
C1767 C1770 1.526 . S
C1768 H1752 0.959 . S
C1768 H1753 0.959 . S
C1768 H1754 0.961 . S
C1768 C1767 1.502 . S
C1769 H1755 0.960 . S
C1769 H1756 0.961 . S
C1769 H1757 0.959 . S
C1769 C1767 1.561 . S
C1770 C1767 1.526 . S
C1770 C1771 1.396 . S
C1770 C1775 1.390 . S
C1771 C1765 1.465 . S
C1771 C1770 1.396 . S
C1771 C1772 1.399 . S
C1772 H1758 0.929 . S
C1772 C1771 1.399 . S
C1772 C1773 1.385 . S
C1773 H1759 0.931 . S
C1773 C1772 1.385 . S
C1773 C1774 1.389 . S
C1774 C1773 1.389 . S
C1774 C1775 1.387 . S
C1775 H1760 0.930 . S
C1775 C1770 1.390 . S
C1775 C1774 1.387 . S
H1776 C1788 0.930 . S
H1777 C1790 0.930 . S
H1778 C1791 0.930 . S
H1779 C1795 0.959 . S
H1780 C1795 0.959 . S
H1781 C1795 0.961 . S
H1782 C1796 0.960 . S
H1783 C1796 0.961 . S
H1784 C1796 0.959 . S
H1785 C1799 0.929 . S
H1786 C1800 0.931 . S
H1787 C1802 0.930 . S
C1788 H1776 0.930 . S
C1788 C1789 1.399 . S
C1788 C1793 1.399 . S
C1789 C1788 1.399 . S
C1789 C1790 1.376 . S
C1790 H1777 0.930 . S
C1790 C1789 1.376 . S
C1790 C1791 1.388 . S
C1791 H1778 0.930 . S
C1791 C1790 1.388 . S
C1791 C1792 1.390 . S
C1792 C1791 1.390 . S
C1792 C1793 1.394 . S
C1792 C1798 1.465 . S
C1793 C1788 1.399 . S
C1793 C1792 1.394 . S
C1793 C1794 1.516 . S
C1794 C1793 1.516 . S
C1794 C1795 1.502 . S
C1794 C1796 1.561 . S
C1794 C1797 1.526 . S
C1795 H1779 0.959 . S
C1795 H1780 0.959 . S
C1795 H1781 0.961 . S
C1795 C1794 1.502 . S
C1796 H1782 0.960 . S
C1796 H1783 0.961 . S
C1796 H1784 0.959 . S
C1796 C1794 1.561 . S
C1797 C1794 1.526 . S
C1797 C1798 1.396 . S
C1797 C1802 1.390 . S
C1798 C1792 1.465 . S
C1798 C1797 1.396 . S
C1798 C1799 1.399 . S
C1799 H1785 0.929 . S
C1799 C1798 1.399 . S
C1799 C1800 1.385 . S
C1800 H1786 0.931 . S
C1800 C1799 1.385 . S
C1800 C1801 1.389 . S
C1801 C1800 1.389 . S
C1801 C1802 1.387 . S
C1802 H1787 0.930 . S
C1802 C1797 1.390 . S
C1802 C1801 1.387 . S
H1803 C1815 0.930 . S
H1804 C1817 0.930 . S
H1805 C1818 0.930 . S
H1806 C1822 0.959 . S
H1807 C1822 0.959 . S
H1808 C1822 0.961 . S
H1809 C1823 0.960 . S
H1810 C1823 0.961 . S
H1811 C1823 0.959 . S
H1812 C1826 0.929 . S
H1813 C1827 0.931 . S
H1814 C1829 0.930 . S
C1815 H1803 0.930 . S
C1815 C1816 1.399 . S
C1815 C1820 1.399 . S
C1816 C1815 1.399 . S
C1816 C1817 1.376 . S
C1817 H1804 0.930 . S
C1817 C1816 1.376 . S
C1817 C1818 1.388 . S
C1818 H1805 0.930 . S
C1818 C1817 1.388 . S
C1818 C1819 1.390 . S
C1819 C1818 1.390 . S
C1819 C1820 1.394 . S
C1819 C1825 1.465 . S
C1820 C1815 1.399 . S
C1820 C1819 1.394 . S
C1820 C1821 1.516 . S
C1821 C1820 1.516 . S
C1821 C1822 1.502 . S
C1821 C1823 1.561 . S
C1821 C1824 1.526 . S
C1822 H1806 0.959 . S
C1822 H1807 0.959 . S
C1822 H1808 0.961 . S
C1822 C1821 1.502 . S
C1823 H1809 0.960 . S
C1823 H1810 0.961 . S
C1823 H1811 0.959 . S
C1823 C1821 1.561 . S
C1824 C1821 1.526 . S
C1824 C1825 1.396 . S
C1824 C1829 1.390 . S
C1825 C1819 1.465 . S
C1825 C1824 1.396 . S
C1825 C1826 1.399 . S
C1826 H1812 0.929 . S
C1826 C1825 1.399 . S
C1826 C1827 1.385 . S
C1827 H1813 0.931 . S
C1827 C1826 1.385 . S
C1827 C1828 1.389 . S
C1828 C1827 1.389 . S
C1828 C1829 1.387 . S
C1829 H1814 0.930 . S
C1829 C1824 1.390 . S
C1829 C1828 1.387 . S
H1830 C1842 0.930 . S
H1831 C1844 0.930 . S
H1832 C1845 0.930 . S
H1833 C1849 0.959 . S
H1834 C1849 0.959 . S
H1835 C1849 0.961 . S
H1836 C1850 0.960 . S
H1837 C1850 0.961 . S
H1838 C1850 0.959 . S
H1839 C1853 0.929 . S
H1840 C1854 0.931 . S
H1841 C1856 0.930 . S
C1842 H1830 0.930 . S
C1842 C1843 1.399 . S
C1842 C1847 1.399 . S
C1843 C1842 1.399 . S
C1843 C1844 1.376 . S
C1844 H1831 0.930 . S
C1844 C1843 1.376 . S
C1844 C1845 1.388 . S
C1845 H1832 0.930 . S
C1845 C1844 1.388 . S
C1845 C1846 1.390 . S
C1846 C1845 1.390 . S
C1846 C1847 1.394 . S
C1846 C1852 1.465 . S
C1847 C1842 1.399 . S
C1847 C1846 1.394 . S
C1847 C1848 1.516 . S
C1848 C1847 1.516 . S
C1848 C1849 1.502 . S
C1848 C1850 1.561 . S
C1848 C1851 1.526 . S
C1849 H1833 0.959 . S
C1849 H1834 0.959 . S
C1849 H1835 0.961 . S
C1849 C1848 1.502 . S
C1850 H1836 0.960 . S
C1850 H1837 0.961 . S
C1850 H1838 0.959 . S
C1850 C1848 1.561 . S
C1851 C1848 1.526 . S
C1851 C1852 1.396 . S
C1851 C1856 1.390 . S
C1852 C1846 1.465 . S
C1852 C1851 1.396 . S
C1852 C1853 1.399 . S
C1853 H1839 0.929 . S
C1853 C1852 1.399 . S
C1853 C1854 1.385 . S
C1854 H1840 0.931 . S
C1854 C1853 1.385 . S
C1854 C1855 1.389 . S
C1855 C1854 1.389 . S
C1855 C1856 1.387 . S
C1856 H1841 0.930 . S
C1856 C1851 1.390 . S
C1856 C1855 1.387 . S
H1857 C1869 0.930 . S
H1858 C1871 0.930 . S
H1859 C1872 0.930 . S
H1860 C1876 0.959 . S
H1861 C1876 0.959 . S
H1862 C1876 0.961 . S
H1863 C1877 0.960 . S
H1864 C1877 0.961 . S
H1865 C1877 0.959 . S
H1866 C1880 0.929 . S
H1867 C1881 0.931 . S
H1868 C1883 0.930 . S
C1869 H1857 0.930 . S
C1869 C1870 1.399 . S
C1869 C1874 1.399 . S
C1870 C1869 1.399 . S
C1870 C1871 1.376 . S
C1871 H1858 0.930 . S
C1871 C1870 1.376 . S
C1871 C1872 1.388 . S
C1872 H1859 0.930 . S
C1872 C1871 1.388 . S
C1872 C1873 1.390 . S
C1873 C1872 1.390 . S
C1873 C1874 1.394 . S
C1873 C1879 1.465 . S
C1874 C1869 1.399 . S
C1874 C1873 1.394 . S
C1874 C1875 1.516 . S
C1875 C1874 1.516 . S
C1875 C1876 1.502 . S
C1875 C1877 1.561 . S
C1875 C1878 1.526 . S
C1876 H1860 0.959 . S
C1876 H1861 0.959 . S
C1876 H1862 0.961 . S
C1876 C1875 1.502 . S
C1877 H1863 0.960 . S
C1877 H1864 0.961 . S
C1877 H1865 0.959 . S
C1877 C1875 1.561 . S
C1878 C1875 1.526 . S
C1878 C1879 1.396 . S
C1878 C1883 1.390 . S
C1879 C1873 1.465 . S
C1879 C1878 1.396 . S
C1879 C1880 1.399 . S
C1880 H1866 0.929 . S
C1880 C1879 1.399 . S
C1880 C1881 1.385 . S
C1881 H1867 0.931 . S
C1881 C1880 1.385 . S
C1881 C1882 1.389 . S
C1882 C1881 1.389 . S
C1882 C1883 1.387 . S
C1883 H1868 0.930 . S
C1883 C1878 1.390 . S
C1883 C1882 1.387 . S
H1884 C1896 0.930 . S
H1885 C1898 0.930 . S
H1886 C1899 0.930 . S
H1887 C1903 0.959 . S
H1888 C1903 0.959 . S
H1889 C1903 0.961 . S
H1890 C1904 0.960 . S
H1891 C1904 0.961 . S
H1892 C1904 0.959 . S
H1893 C1907 0.929 . S
H1894 C1908 0.931 . S
H1895 C1910 0.930 . S
C1896 H1884 0.930 . S
C1896 C1897 1.399 . S
C1896 C1901 1.399 . S
C1897 C1896 1.399 . S
C1897 C1898 1.376 . S
C1898 H1885 0.930 . S
C1898 C1897 1.376 . S
C1898 C1899 1.388 . S
C1899 H1886 0.930 . S
C1899 C1898 1.388 . S
C1899 C1900 1.390 . S
C1900 C1899 1.390 . S
C1900 C1901 1.394 . S
C1900 C1906 1.465 . S
C1901 C1896 1.399 . S
C1901 C1900 1.394 . S
C1901 C1902 1.516 . S
C1902 C1901 1.516 . S
C1902 C1903 1.502 . S
C1902 C1904 1.561 . S
C1902 C1905 1.526 . S
C1903 H1887 0.959 . S
C1903 H1888 0.959 . S
C1903 H1889 0.961 . S
C1903 C1902 1.502 . S
C1904 H1890 0.960 . S
C1904 H1891 0.961 . S
C1904 H1892 0.959 . S
C1904 C1902 1.561 . S
C1905 C1902 1.526 . S
C1905 C1906 1.396 . S
C1905 C1910 1.390 . S
C1906 C1900 1.465 . S
C1906 C1905 1.396 . S
C1906 C1907 1.399 . S
C1907 H1893 0.929 . S
C1907 C1906 1.399 . S
C1907 C1908 1.385 . S
C1908 H1894 0.931 . S
C1908 C1907 1.385 . S
C1908 C1909 1.389 . S
C1909 C1908 1.389 . S
C1909 C1910 1.387 . S
C1910 H1895 0.930 . S
C1910 C1905 1.390 . S
C1910 C1909 1.387 . S
H1911 C1923 0.930 . S
H1912 C1925 0.930 . S
H1913 C1926 0.930 . S
H1914 C1930 0.959 . S
H1915 C1930 0.959 . S
H1916 C1930 0.961 . S
H1917 C1931 0.960 . S
H1918 C1931 0.961 . S
H1919 C1931 0.959 . S
H1920 C1934 0.929 . S
H1921 C1935 0.931 . S
H1922 C1937 0.930 . S
C1923 H1911 0.930 . S
C1923 C1924 1.399 . S
C1923 C1928 1.399 . S
C1924 C1923 1.399 . S
C1924 C1925 1.376 . S
C1925 H1912 0.930 . S
C1925 C1924 1.376 . S
C1925 C1926 1.388 . S
C1926 H1913 0.930 . S
C1926 C1925 1.388 . S
C1926 C1927 1.390 . S
C1927 C1926 1.390 . S
C1927 C1928 1.394 . S
C1927 C1933 1.465 . S
C1928 C1923 1.399 . S
C1928 C1927 1.394 . S
C1928 C1929 1.516 . S
C1929 C1928 1.516 . S
C1929 C1930 1.502 . S
C1929 C1931 1.561 . S
C1929 C1932 1.526 . S
C1930 H1914 0.959 . S
C1930 H1915 0.959 . S
C1930 H1916 0.961 . S
C1930 C1929 1.502 . S
C1931 H1917 0.960 . S
C1931 H1918 0.961 . S
C1931 H1919 0.959 . S
C1931 C1929 1.561 . S
C1932 C1929 1.526 . S
C1932 C1933 1.396 . S
C1932 C1937 1.390 . S
C1933 C1927 1.465 . S
C1933 C1932 1.396 . S
C1933 C1934 1.399 . S
C1934 H1920 0.929 . S
C1934 C1933 1.399 . S
C1934 C1935 1.385 . S
C1935 H1921 0.931 . S
C1935 C1934 1.385 . S
C1935 C1936 1.389 . S
C1936 C1935 1.389 . S
C1936 C1937 1.387 . S
C1937 H1922 0.930 . S
C1937 C1932 1.390 . S
C1937 C1936 1.387 . S
H1938 C1950 0.930 . S
H1939 C1952 0.930 . S
H1940 C1953 0.930 . S
H1941 C1957 0.959 . S
H1942 C1957 0.959 . S
H1943 C1957 0.961 . S
H1944 C1958 0.960 . S
H1945 C1958 0.961 . S
H1946 C1958 0.959 . S
H1947 C1961 0.929 . S
H1948 C1962 0.931 . S
H1949 C1964 0.930 . S
C1950 H1938 0.930 . S
C1950 C1951 1.399 . S
C1950 C1955 1.399 . S
C1951 C1950 1.399 . S
C1951 C1952 1.376 . S
C1952 H1939 0.930 . S
C1952 C1951 1.376 . S
C1952 C1953 1.388 . S
C1953 H1940 0.930 . S
C1953 C1952 1.388 . S
C1953 C1954 1.390 . S
C1954 C1953 1.390 . S
C1954 C1955 1.394 . S
C1954 C1960 1.465 . S
C1955 C1950 1.399 . S
C1955 C1954 1.394 . S
C1955 C1956 1.516 . S
C1956 C1955 1.516 . S
C1956 C1957 1.502 . S
C1956 C1958 1.561 . S
C1956 C1959 1.526 . S
C1957 H1941 0.959 . S
C1957 H1942 0.959 . S
C1957 H1943 0.961 . S
C1957 C1956 1.502 . S
C1958 H1944 0.960 . S
C1958 H1945 0.961 . S
C1958 H1946 0.959 . S
C1958 C1956 1.561 . S
C1959 C1956 1.526 . S
C1959 C1960 1.396 . S
C1959 C1964 1.390 . S
C1960 C1954 1.465 . S
C1960 C1959 1.396 . S
C1960 C1961 1.399 . S
C1961 H1947 0.929 . S
C1961 C1960 1.399 . S
C1961 C1962 1.385 . S
C1962 H1948 0.931 . S
C1962 C1961 1.385 . S
C1962 C1963 1.389 . S
C1963 C1962 1.389 . S
C1963 C1964 1.387 . S
C1964 H1949 0.930 . S
C1964 C1959 1.390 . S
C1964 C1963 1.387 . S
H1965 C1977 0.930 . S
H1966 C1979 0.930 . S
H1967 C1980 0.930 . S
H1968 C1984 0.959 . S
H1969 C1984 0.959 . S
H1970 C1984 0.961 . S
H1971 C1985 0.960 . S
H1972 C1985 0.961 . S
H1973 C1985 0.959 . S
H1974 C1988 0.929 . S
H1975 C1989 0.931 . S
H1976 C1991 0.930 . S
C1977 H1965 0.930 . S
C1977 C1978 1.399 . S
C1977 C1982 1.399 . S
C1978 C1977 1.399 . S
C1978 C1979 1.376 . S
C1979 H1966 0.930 . S
C1979 C1978 1.376 . S
C1979 C1980 1.388 . S
C1980 H1967 0.930 . S
C1980 C1979 1.388 . S
C1980 C1981 1.390 . S
C1981 C1980 1.390 . S
C1981 C1982 1.394 . S
C1981 C1987 1.465 . S
C1982 C1977 1.399 . S
C1982 C1981 1.394 . S
C1982 C1983 1.516 . S
C1983 C1982 1.516 . S
C1983 C1984 1.502 . S
C1983 C1985 1.561 . S
C1983 C1986 1.526 . S
C1984 H1968 0.959 . S
C1984 H1969 0.959 . S
C1984 H1970 0.961 . S
C1984 C1983 1.502 . S
C1985 H1971 0.960 . S
C1985 H1972 0.961 . S
C1985 H1973 0.959 . S
C1985 C1983 1.561 . S
C1986 C1983 1.526 . S
C1986 C1987 1.396 . S
C1986 C1991 1.390 . S
C1987 C1981 1.465 . S
C1987 C1986 1.396 . S
C1987 C1988 1.399 . S
C1988 H1974 0.929 . S
C1988 C1987 1.399 . S
C1988 C1989 1.385 . S
C1989 H1975 0.931 . S
C1989 C1988 1.385 . S
C1989 C1990 1.389 . S
C1990 C1989 1.389 . S
C1990 C1991 1.387 . S
C1991 H1976 0.930 . S
C1991 C1986 1.390 . S
C1991 C1990 1.387 . S
H1992 C2004 0.930 . S
H1993 C2006 0.930 . S
H1994 C2007 0.930 . S
H1995 C2011 0.959 . S
H1996 C2011 0.959 . S
H1997 C2011 0.961 . S
H1998 C2012 0.960 . S
H1999 C2012 0.961 . S
H2000 C2012 0.959 . S
H2001 C2015 0.929 . S
H2002 C2016 0.931 . S
H2003 C2018 0.930 . S
C2004 H1992 0.930 . S
C2004 C2005 1.399 . S
C2004 C2009 1.399 . S
C2005 C2004 1.399 . S
C2005 C2006 1.376 . S
C2006 H1993 0.930 . S
C2006 C2005 1.376 . S
C2006 C2007 1.388 . S
C2007 H1994 0.930 . S
C2007 C2006 1.388 . S
C2007 C2008 1.390 . S
C2008 C2007 1.390 . S
C2008 C2009 1.394 . S
C2008 C2014 1.465 . S
C2009 C2004 1.399 . S
C2009 C2008 1.394 . S
C2009 C2010 1.516 . S
C2010 C2009 1.516 . S
C2010 C2011 1.502 . S
C2010 C2012 1.561 . S
C2010 C2013 1.526 . S
C2011 H1995 0.959 . S
C2011 H1996 0.959 . S
C2011 H1997 0.961 . S
C2011 C2010 1.502 . S
C2012 H1998 0.960 . S
C2012 H1999 0.961 . S
C2012 H2000 0.959 . S
C2012 C2010 1.561 . S
C2013 C2010 1.526 . S
C2013 C2014 1.396 . S
C2013 C2018 1.390 . S
C2014 C2008 1.465 . S
C2014 C2013 1.396 . S
C2014 C2015 1.399 . S
C2015 H2001 0.929 . S
C2015 C2014 1.399 . S
C2015 C2016 1.385 . S
C2016 H2002 0.931 . S
C2016 C2015 1.385 . S
C2016 C2017 1.389 . S
C2017 C2016 1.389 . S
C2017 C2018 1.387 . S
C2018 H2003 0.930 . S
C2018 C2013 1.390 . S
C2018 C2017 1.387 . S
H2019 C2031 0.930 . S
H2020 C2033 0.930 . S
H2021 C2034 0.930 . S
H2022 C2038 0.959 . S
H2023 C2038 0.959 . S
H2024 C2038 0.961 . S
H2025 C2039 0.960 . S
H2026 C2039 0.961 . S
H2027 C2039 0.959 . S
H2028 C2042 0.929 . S
H2029 C2043 0.931 . S
H2030 C2045 0.930 . S
C2031 H2019 0.930 . S
C2031 C2032 1.399 . S
C2031 C2036 1.399 . S
C2032 C2031 1.399 . S
C2032 C2033 1.376 . S
C2033 H2020 0.930 . S
C2033 C2032 1.376 . S
C2033 C2034 1.388 . S
C2034 H2021 0.930 . S
C2034 C2033 1.388 . S
C2034 C2035 1.390 . S
C2035 C2034 1.390 . S
C2035 C2036 1.394 . S
C2035 C2041 1.465 . S
C2036 C2031 1.399 . S
C2036 C2035 1.394 . S
C2036 C2037 1.516 . S
C2037 C2036 1.516 . S
C2037 C2038 1.502 . S
C2037 C2039 1.561 . S
C2037 C2040 1.526 . S
C2038 H2022 0.959 . S
C2038 H2023 0.959 . S
C2038 H2024 0.961 . S
C2038 C2037 1.502 . S
C2039 H2025 0.960 . S
C2039 H2026 0.961 . S
C2039 H2027 0.959 . S
C2039 C2037 1.561 . S
C2040 C2037 1.526 . S
C2040 C2041 1.396 . S
C2040 C2045 1.390 . S
C2041 C2035 1.465 . S
C2041 C2040 1.396 . S
C2041 C2042 1.399 . S
C2042 H2028 0.929 . S
C2042 C2041 1.399 . S
C2042 C2043 1.385 . S
C2043 H2029 0.931 . S
C2043 C2042 1.385 . S
C2043 C2044 1.389 . S
C2044 C2043 1.389 . S
C2044 C2045 1.387 . S
C2045 H2030 0.930 . S
C2045 C2040 1.390 . S
C2045 C2044 1.387 . S
H2046 C2058 0.930 . S
H2047 C2060 0.930 . S
H2048 C2061 0.930 . S
H2049 C2065 0.959 . S
H2050 C2065 0.959 . S
H2051 C2065 0.961 . S
H2052 C2066 0.960 . S
H2053 C2066 0.961 . S
H2054 C2066 0.959 . S
H2055 C2069 0.929 . S
H2056 C2070 0.931 . S
H2057 C2072 0.930 . S
C2058 H2046 0.930 . S
C2058 C2059 1.399 . S
C2058 C2063 1.399 . S
C2059 C2058 1.399 . S
C2059 C2060 1.376 . S
C2060 H2047 0.930 . S
C2060 C2059 1.376 . S
C2060 C2061 1.388 . S
C2061 H2048 0.930 . S
C2061 C2060 1.388 . S
C2061 C2062 1.390 . S
C2062 C2061 1.390 . S
C2062 C2063 1.394 . S
C2062 C2068 1.465 . S
C2063 C2058 1.399 . S
C2063 C2062 1.394 . S
C2063 C2064 1.516 . S
C2064 C2063 1.516 . S
C2064 C2065 1.502 . S
C2064 C2066 1.561 . S
C2064 C2067 1.526 . S
C2065 H2049 0.959 . S
C2065 H2050 0.959 . S
C2065 H2051 0.961 . S
C2065 C2064 1.502 . S
C2066 H2052 0.960 . S
C2066 H2053 0.961 . S
C2066 H2054 0.959 . S
C2066 C2064 1.561 . S
C2067 C2064 1.526 . S
C2067 C2068 1.396 . S
C2067 C2072 1.390 . S
C2068 C2062 1.465 . S
C2068 C2067 1.396 . S
C2068 C2069 1.399 . S
C2069 H2055 0.929 . S
C2069 C2068 1.399 . S
C2069 C2070 1.385 . S
C2070 H2056 0.931 . S
C2070 C2069 1.385 . S
C2070 C2071 1.389 . S
C2071 C2070 1.389 . S
C2071 C2072 1.387 . S
C2072 H2057 0.930 . S
C2072 C2067 1.390 . S
C2072 C2071 1.387 . S
H2073 C2085 0.930 . S
H2074 C2087 0.930 . S
H2075 C2088 0.930 . S
H2076 C2092 0.959 . S
H2077 C2092 0.959 . S
H2078 C2092 0.961 . S
H2079 C2093 0.960 . S
H2080 C2093 0.961 . S
H2081 C2093 0.959 . S
H2082 C2096 0.929 . S
H2083 C2097 0.931 . S
H2084 C2099 0.930 . S
C2085 H2073 0.930 . S
C2085 C2086 1.399 . S
C2085 C2090 1.399 . S
C2086 C2085 1.399 . S
C2086 C2087 1.376 . S
C2087 H2074 0.930 . S
C2087 C2086 1.376 . S
C2087 C2088 1.388 . S
C2088 H2075 0.930 . S
C2088 C2087 1.388 . S
C2088 C2089 1.390 . S
C2089 C2088 1.390 . S
C2089 C2090 1.394 . S
C2089 C2095 1.465 . S
C2090 C2085 1.399 . S
C2090 C2089 1.394 . S
C2090 C2091 1.516 . S
C2091 C2090 1.516 . S
C2091 C2092 1.502 . S
C2091 C2093 1.561 . S
C2091 C2094 1.526 . S
C2092 H2076 0.959 . S
C2092 H2077 0.959 . S
C2092 H2078 0.961 . S
C2092 C2091 1.502 . S
C2093 H2079 0.960 . S
C2093 H2080 0.961 . S
C2093 H2081 0.959 . S
C2093 C2091 1.561 . S
C2094 C2091 1.526 . S
C2094 C2095 1.396 . S
C2094 C2099 1.390 . S
C2095 C2089 1.465 . S
C2095 C2094 1.396 . S
C2095 C2096 1.399 . S
C2096 H2082 0.929 . S
C2096 C2095 1.399 . S
C2096 C2097 1.385 . S
C2097 H2083 0.931 . S
C2097 C2096 1.385 . S
C2097 C2098 1.389 . S
C2098 C2097 1.389 . S
C2098 C2099 1.387 . S
C2099 H2084 0.930 . S
C2099 C2094 1.390 . S
C2099 C2098 1.387 . S
H2100 C2112 0.930 . S
H2101 C2114 0.930 . S
H2102 C2115 0.930 . S
H2103 C2119 0.959 . S
H2104 C2119 0.959 . S
H2105 C2119 0.961 . S
H2106 C2120 0.960 . S
H2107 C2120 0.961 . S
H2108 C2120 0.959 . S
H2109 C2123 0.929 . S
H2110 C2124 0.931 . S
H2111 C2126 0.930 . S
C2112 H2100 0.930 . S
C2112 C2113 1.399 . S
C2112 C2117 1.399 . S
C2113 C2112 1.399 . S
C2113 C2114 1.376 . S
C2114 H2101 0.930 . S
C2114 C2113 1.376 . S
C2114 C2115 1.388 . S
C2115 H2102 0.930 . S
C2115 C2114 1.388 . S
C2115 C2116 1.390 . S
C2116 C2115 1.390 . S
C2116 C2117 1.394 . S
C2116 C2122 1.465 . S
C2117 C2112 1.399 . S
C2117 C2116 1.394 . S
C2117 C2118 1.516 . S
C2118 C2117 1.516 . S
C2118 C2119 1.502 . S
C2118 C2120 1.561 . S
C2118 C2121 1.526 . S
C2119 H2103 0.959 . S
C2119 H2104 0.959 . S
C2119 H2105 0.961 . S
C2119 C2118 1.502 . S
C2120 H2106 0.960 . S
C2120 H2107 0.961 . S
C2120 H2108 0.959 . S
C2120 C2118 1.561 . S
C2121 C2118 1.526 . S
C2121 C2122 1.396 . S
C2121 C2126 1.390 . S
C2122 C2116 1.465 . S
C2122 C2121 1.396 . S
C2122 C2123 1.399 . S
C2123 H2109 0.929 . S
C2123 C2122 1.399 . S
C2123 C2124 1.385 . S
C2124 H2110 0.931 . S
C2124 C2123 1.385 . S
C2124 C2125 1.389 . S
C2125 C2124 1.389 . S
C2125 C2126 1.387 . S
C2126 H2111 0.930 . S
C2126 C2121 1.390 . S
C2126 C2125 1.387 . S
H2127 C2139 0.930 . S
H2128 C2141 0.930 . S
H2129 C2142 0.930 . S
H2130 C2146 0.959 . S
H2131 C2146 0.959 . S
H2132 C2146 0.961 . S
H2133 C2147 0.960 . S
H2134 C2147 0.961 . S
H2135 C2147 0.959 . S
H2136 C2150 0.929 . S
H2137 C2151 0.931 . S
H2138 C2153 0.930 . S
C2139 H2127 0.930 . S
C2139 C2140 1.399 . S
C2139 C2144 1.399 . S
C2140 C2139 1.399 . S
C2140 C2141 1.376 . S
C2141 H2128 0.930 . S
C2141 C2140 1.376 . S
C2141 C2142 1.388 . S
C2142 H2129 0.930 . S
C2142 C2141 1.388 . S
C2142 C2143 1.390 . S
C2143 C2142 1.390 . S
C2143 C2144 1.394 . S
C2143 C2149 1.465 . S
C2144 C2139 1.399 . S
C2144 C2143 1.394 . S
C2144 C2145 1.516 . S
C2145 C2144 1.516 . S
C2145 C2146 1.502 . S
C2145 C2147 1.561 . S
C2145 C2148 1.526 . S
C2146 H2130 0.959 . S
C2146 H2131 0.959 . S
C2146 H2132 0.961 . S
C2146 C2145 1.502 . S
C2147 H2133 0.960 . S
C2147 H2134 0.961 . S
C2147 H2135 0.959 . S
C2147 C2145 1.561 . S
C2148 C2145 1.526 . S
C2148 C2149 1.396 . S
C2148 C2153 1.390 . S
C2149 C2143 1.465 . S
C2149 C2148 1.396 . S
C2149 C2150 1.399 . S
C2150 H2136 0.929 . S
C2150 C2149 1.399 . S
C2150 C2151 1.385 . S
C2151 H2137 0.931 . S
C2151 C2150 1.385 . S
C2151 C2152 1.389 . S
C2152 C2151 1.389 . S
C2152 C2153 1.387 . S
C2153 H2138 0.930 . S
C2153 C2148 1.390 . S
C2153 C2152 1.387 . S
C883 C683 1.620 . S
C871 C74 1.668 . S
C910 C673 1.395 . S
C898 C153 1.260 . S
C937 C674 1.245 . S
C925 C231 1.277 . S
C952 C310 0.837 . S
C964 C696 0.688 . S
C979 C394 1.347 . S
C991 C699 1.349 . S
C1018 C682 1.218 . S
C1006 C494 1.280 . S
C1033 C573 0.665 . S
C1045 C672 0.706 . S
C1060 C651 1.608 . S
C1072 C690 1.657 . S
C1099 C703 2.465 . S
C1087 C56 2.527 . S
C1114 C151 1.603 . S
C1126 C752 1.550 . S
C1153 C730 1.419 . S
C1141 C237 1.423 . S
C1180 C744 1.201 . S
C1168 C326 1.191 . S
C1195 C410 1.212 . S
C1207 C705 1.249 . S
C1234 C758 2.446 . S
C1222 C476 2.542 . S
C1249 C571 1.614 . S
C1261 C714 1.579 . S
C1276 C657 1.288 . S
C1288 C735 1.359 . S
C1303 C58 1.380 . S
C1315 C761 1.358 . S
C1330 C392 1.600 . S
C1342 C745 1.547 . S
C1369 C704 1.405 . S
C1357 C478 1.421 . S
C1396 C736 1.203 . S
C1384 C567 1.254 . S
C1411 C655 2.529 . S
C1423 C727 2.425 . S
C1438 C235 2.541 . S
C1450 C734 2.463 . S
C1477 C721 1.577 . S
C1465 C308 1.607 . S
C1492 C147 1.239 . S
C1504 C713 1.220 . S
C1519 C662 1.654 . S
C1531 C776 1.623 . S
C1546 C405 1.256 . S
C1558 C766 1.399 . S
C1585 C767 1.269 . S
C1573 C483 1.258 . S
C1612 C789 0.683 . S
C1600 C562 0.844 . S
C1627 C142 1.342 . S
C1639 C792 1.347 . S
C1666 C775 1.210 . S
C1654 C242 1.278 . S
C1681 C321 0.740 . S
C1693 C765 0.701 . S
C1708 C63 1.610 . S
C1720 C783 1.646 . S
C1735 C644 2.528 . S
C1747 C796 2.443 . S
C1774 C845 1.539 . S
C1762 C403 1.601 . S
C1789 C489 1.369 . S
C1801 C823 1.371 . S
C1816 C578 1.197 . S
C1828 C837 1.240 . S
C1855 C798 1.200 . S
C1843 C158 1.237 . S
C1870 C224 2.545 . S
C1882 C851 2.419 . S
C1909 C807 1.552 . S
C1897 C319 1.601 . S
C1936 C828 1.375 . S
C1924 C69 1.379 . S
C1963 C854 1.391 . S
C1951 C646 1.361 . S
C1978 C140 1.601 . S
C1990 C838 1.537 . S
C2005 C226 1.351 . S
C2017 C797 1.446 . S
C2044 C829 1.264 . S
C2032 C315 1.216 . S
C2059 C67 2.533 . S
C2071 C820 2.470 . S
C2086 C487 2.541 . S
C2098 C827 2.464 . S
C2125 C814 1.573 . S
C2113 C560 1.614 . S
C2152 C806 1.245 . S
C2140 C399 1.218 . S
