# Generated by pormake.
# Topology tsx, (6,3)-cn, num edge types: 1
# Building blocks:
#     Node 0, Type 0, BuildingBlock: MIDCAF_clean_sbu_0, # of connection points: 6
#     Node 1, Type 0, BuildingBlock: MIDCAF_clean_sbu_0, # of connection points: 6
#     Node 2, Type 1, BuildingBlock: OLANEW_clean_sbu_2, # of connection points: 3
#     Node 3, Type 1, BuildingBlock: OLANEW_clean_sbu_2, # of connection points: 3
#     Node 4, Type 1, BuildingBlock: OLANEW_clean_sbu_2, # of connection points: 3
#     Node 5, Type 1, BuildingBlock: OLANEW_clean_sbu_2, # of connection points: 3
#     Edge 6, Type (0, 1), BuildingBlock: TEMPAE_clean_linker_10, # of connection points: 2
#     Edge 7, Type (0, 1), BuildingBlock: TEMPAE_clean_linker_10, # of connection points: 2
#     Edge 8, Type (0, 1), BuildingBlock: TEMPAE_clean_linker_10, # of connection points: 2
#     Edge 9, Type (0, 1), BuildingBlock: TEMPAE_clean_linker_10, # of connection points: 2
#     Edge 10, Type (0, 1), BuildingBlock: TEMPAE_clean_linker_10, # of connection points: 2
#     Edge 11, Type (0, 1), BuildingBlock: TEMPAE_clean_linker_10, # of connection points: 2
#     Edge 12, Type (0, 1), BuildingBlock: TEMPAE_clean_linker_10, # of connection points: 2
#     Edge 13, Type (0, 1), BuildingBlock: TEMPAE_clean_linker_10, # of connection points: 2
#     Edge 14, Type (0, 1), BuildingBlock: TEMPAE_clean_linker_10, # of connection points: 2
#     Edge 15, Type (0, 1), BuildingBlock: TEMPAE_clean_linker_10, # of connection points: 2
#     Edge 16, Type (0, 1), BuildingBlock: TEMPAE_clean_linker_10, # of connection points: 2
#     Edge 17, Type (0, 1), BuildingBlock: TEMPAE_clean_linker_10, # of connection points: 2
# Relax obj value: 0.070
# Max RMSD: 0.154
# Mean RMSD: 0.098
data_MOF--net-tsx--node1-MIDCAF_clean_sbu_0--node2-OLANEW_clean_sbu_2--edge1-TEMPAE_clean_linker_10
_symmetry_space_group_name_H-M    P1
_symmetry_Int_Tables_number       1
_symmetry_cell_setting            triclinic
loop_
_symmetry_equiv_pos_as_xyz
'x, y, z'
_cell_length_a     21.932099
_cell_length_b     22.888126
_cell_length_c     37.032191
_cell_angle_alpha  96.545866
_cell_angle_beta   95.396864
_cell_angle_gamma 89.486151
loop_
_atom_site_label
_atom_site_type_symbol
_atom_site_fract_x
_atom_site_fract_y
_atom_site_fract_z
_atom_type_partial_charge
Zn0 Zn 0.95391 0.97291 0.95792 0.0
Zn1 Zn 0.15829 0.98428 0.03244 0.0
Zn2 Zn 0.05407 0.98498 0.99529 0.0
C3 C 0.12303 0.10168 0.03366 0.0
C4 C 0.17916 0.92992 0.9656 0.0
O5 O 0.98642 0.94503 0.02674 0.0
O6 O 0.8985 0.95537 0.99384 0.0
C7 C 0.9845 0.09215 0.96342 0.0
O8 O 0.08052 0.0785 0.01016 0.0
O9 O 0.16128 0.06934 0.04954 0.0
O10 O 0.20982 0.95404 0.99379 0.0
O11 O 0.12035 0.93472 0.96219 0.0
O12 O 0.95034 0.05432 0.94405 0.0
O13 O 0.02584 0.07565 0.98715 0.0
O14 O 0.06342 0.93767 0.93976 0.0
O15 O 0.96954 0.9102 0.91894 0.0
C16 C 0.02576 0.91109 0.91437 0.0
O17 O 0.04448 0.94411 0.04583 0.0
O18 O 0.13989 0.9305 0.06829 0.0
C19 C 0.92753 0.94078 0.02241 0.0
C20 C 0.08317 0.92437 0.06993 0.0
Zn21 Zn 0.65521 0.47473 0.51843 0.0
Zn22 Zn 0.45081 0.44335 0.44235 0.0
Zn23 Zn 0.5509 0.46558 0.48141 0.0
C24 C 0.53216 0.39812 0.39782 0.0
C25 C 0.46581 0.56666 0.45298 0.0
O26 O 0.5468 0.42245 0.53168 0.0
O27 O 0.64352 0.41883 0.55421 0.0
C28 C 0.68134 0.42333 0.45225 0.0
O29 O 0.56589 0.4244 0.42526 0.0
O30 O 0.4759 0.39091 0.40052 0.0
O31 O 0.43402 0.52665 0.43387 0.0
O32 O 0.51181 0.55298 0.4746 0.0
O33 O 0.7098 0.45045 0.48027 0.0
O34 O 0.62229 0.42282 0.44876 0.0
O35 O 0.56639 0.56093 0.49734 0.0
O36 O 0.64924 0.55909 0.53614 0.0
C37 C 0.60667 0.58762 0.52089 0.0
O38 O 0.48919 0.41621 0.51174 0.0
O39 O 0.40158 0.41079 0.47678 0.0
C40 C 0.58794 0.40674 0.5559 0.0
C41 C 0.43224 0.40133 0.50605 0.0
O42 O 0.0432 0.91871 0.35402 0.0
Cd43 Cd 0.06176 0.94487 0.42012 0.0
O44 O 0.10551 0.99003 0.34663 0.0
Cd45 Cd 0.08571 0.03944 0.39772 0.0
O46 O 0.01515 0.10446 0.40969 0.0
C47 C 0.98627 0.12299 0.3818 0.0
O48 O 1.00151 0.10271 0.34924 0.0
C49 C 0.07473 0.94446 0.33343 0.0
C50 C 0.16763 0.88617 0.44402 0.0
O51 O 0.11423 0.86418 0.44463 0.0
O52 O 0.17108 0.93709 0.4331 0.0
O53 O 0.02408 0.15171 0.71671 0.0
Cd54 Cd 0.01889 0.2326 0.67971 0.0
O55 O 0.97772 0.09356 0.67148 0.0
Cd56 Cd 0.92913 0.01406 0.64648 0.0
O57 O 0.86651 0.94749 0.61691 0.0
C58 C 0.8106 0.95927 0.60816 0.0
O59 O 0.79013 0.01251 0.6173 0.0
C60 C 1.00289 0.10133 0.70401 0.0
C61 C 0.13182 0.24893 0.65395 0.0
O62 O 0.11853 0.276 0.68445 0.0
O63 O 0.09155 0.21421 0.63577 0.0
O64 O 0.56548 0.41998 0.84263 0.0
Cd65 Cd 0.5826 0.45536 0.90779 0.0
O66 O 0.60105 0.50371 0.82959 0.0
Cd67 Cd 0.57748 0.55151 0.88042 0.0
O68 O 0.50546 0.61161 0.89766 0.0
C69 C 0.47138 0.63107 0.87196 0.0
O70 O 0.48229 0.6144 0.83803 0.0
C71 C 0.58428 0.4509 0.81949 0.0
C72 C 0.68937 0.40308 0.93651 0.0
O73 O 0.63649 0.37996 0.93707 0.0
O74 O 0.69188 0.45218 0.92318 0.0
O75 O 0.51528 0.68307 0.22462 0.0
Cd76 Cd 0.50387 0.77229 0.19504 0.0
O77 O 0.47619 0.62953 0.17505 0.0
Cd78 Cd 0.43621 0.54937 0.1446 0.0
O79 O 0.3783 0.47957 0.11426 0.0
C80 C 0.32067 0.48661 0.10882 0.0
O81 O 0.29641 0.53659 0.12151 0.0
C82 C 0.4996 0.6331 0.20797 0.0
C83 C 0.61265 0.79675 0.1668 0.0
O84 O 0.60255 0.8178 0.19927 0.0
O85 O 0.57105 0.76457 0.1478 0.0
C86 C 0.15139 0.18868 0.07766 0.0
C87 C 0.13031 0.16584 0.04204 0.0
C88 C 0.17197 0.24677 0.08553 0.0
C89 C 0.17197 0.28285 0.05693 0.0
C90 C 0.14576 0.26158 0.02144 0.0
C91 C 0.12528 0.20293 0.01434 0.0
C92 C 0.19836 0.26783 0.12393 0.0
C93 C 0.14372 0.29893 0.99034 0.0
C94 C 0.21717 0.44045 0.09118 0.0
C95 C 0.28111 0.43753 0.09077 0.0
C96 C 0.17998 0.39156 0.07777 0.0
C97 C 0.20748 0.33873 0.06363 0.0
C98 C 0.27149 0.33695 0.06089 0.0
C99 C 0.3075 0.38624 0.07461 0.0
C100 C 0.11188 0.39534 0.08084 0.0
C101 C 0.30257 0.28169 0.04551 0.0
H102 H 0.15463 0.16003 0.09917 0.0
H103 H 0.10924 0.18514 0.98672 0.0
H104 H 0.2488 0.27239 0.1245 0.0
H105 H 0.17974 0.31167 0.1331 0.0
H106 H 0.18847 0.23693 0.1437 0.0
H107 H 0.10924 0.28222 0.96767 0.0
H108 H 0.13297 0.34537 -0.00043 0.0
H109 H 0.1893 0.29809 0.97958 0.0
H110 H 0.19626 0.48011 0.10331 0.0
H111 H 0.35672 0.38389 0.07364 0.0
H112 H 0.10035 0.37147 0.10375 0.0
H113 H 0.08599 0.37418 0.05562 0.0
H114 H 0.09629 0.4416 0.08605 0.0
H115 H 0.3005 0.24749 0.06434 0.0
H116 H 0.35139 0.28935 0.0417 0.0
H117 H 0.27854 0.26408 0.01885 0.0
C118 C 0.18652 0.83698 0.92397 0.0
C119 C 0.21177 0.8912 0.9393 0.0
C120 C 0.22325 0.79345 0.90701 0.0
C121 C 0.2862 0.80502 0.90522 0.0
C122 C 0.31007 0.86182 0.91744 0.0
C123 C 0.27261 0.90411 0.93458 0.0
C124 C 0.19594 0.7336 0.89405 0.0
C125 C 0.37655 0.87647 0.91532 0.0
C126 C 0.40457 0.68512 0.91561 0.0
C127 C 0.42113 0.6728 0.87992 0.0
C128 C 0.35876 0.72631 0.9238 0.0
C129 C 0.32914 0.75634 0.89566 0.0
C130 C 0.34438 0.74296 0.85938 0.0
C131 C 0.39013 0.70117 0.8519 0.0
C132 C 0.34336 0.73895 0.96284 0.0
C133 C 0.314 0.77427 0.82874 0.0
H134 H 0.13949 0.8269 0.92775 0.0
H135 H 0.29192 0.94635 0.94613 0.0
H136 H 0.21239 0.71569 0.8676 0.0
H137 H 0.21056 0.70277 0.91424 0.0
H138 H 0.14508 0.73493 0.89093 0.0
H139 H 0.38566 0.92445 0.92124 0.0
H140 H 0.40556 0.85351 0.93547 0.0
H141 H 0.39078 0.86112 0.88788 0.0
H142 H 0.42787 0.66299 0.93732 0.0
H143 H 0.40253 0.69177 0.82419 0.0
H144 H 0.2933 0.73461 0.9642 0.0
H145 H 0.3563 0.78489 0.9735 0.0
H146 H 0.36747 0.70896 0.98098 0.0
H147 H 0.26347 0.77329 0.82892 0.0
H148 H 0.32624 0.75452 0.80156 0.0
H149 H 0.32821 0.82114 0.83269 0.0
C150 C 0.83597 0.94724 0.05672 0.0
C151 C 0.89235 0.92066 0.05059 0.0
C152 C 0.79762 0.92554 0.0802 0.0
C153 C 0.8162 0.87597 0.09806 0.0
C154 C 0.87468 0.85085 0.09354 0.0
C155 C 0.91177 0.87296 0.06925 0.0
C156 C 0.73587 0.95402 0.08443 0.0
C157 C 0.89696 0.79906 0.1129 0.0
C158 C 0.71332 0.84922 0.17111 0.0
C159 C 0.66953 0.81102 0.15108 0.0
C160 C 0.76426 0.8676 0.15502 0.0
C161 C 0.77119 0.84757 0.11806 0.0
C162 C 0.72921 0.80619 0.09848 0.0
C163 C 0.67889 0.78841 0.11523 0.0
C164 C 0.80865 0.91093 0.17692 0.0
C165 C 0.73529 0.78342 0.05907 0.0
H166 H 0.82113 0.98436 0.04236 0.0
H167 H 0.95486 0.85171 0.06392 0.0
H168 H 0.69903 0.92261 0.07269 0.0
H169 H 0.72949 0.96545 0.11375 0.0
H170 H 0.73022 0.99456 0.07058 0.0
H171 H 0.94746 0.79395 0.1134 0.0
H172 H 0.88423 0.80368 0.14138 0.0
H173 H 0.87513 0.7583 0.09848 0.0
H174 H 0.70684 0.86635 0.199 0.0
H175 H 0.64572 0.75828 0.09972 0.0
H176 H 0.79938 0.95549 0.16866 0.0
H177 H 0.85635 0.89938 0.17148 0.0
H178 H 0.80468 0.91264 0.20671 0.0
H179 H 0.72685 0.81978 0.0418 0.0
H180 H 0.70241 0.74732 0.04884 0.0
H181 H 0.78243 0.76711 0.05572 0.0
C182 C 0.97055 0.19475 0.99265 0.0
C183 C 0.96982 0.15469 0.96104 0.0
C184 C 0.93808 0.248 0.99224 0.0
C185 C 0.90343 0.26024 0.95969 0.0
C186 C 0.90929 0.2233 0.92684 0.0
C187 C 0.9426 0.17101 0.92794 0.0
C188 C 0.93582 0.28776 0.02745 0.0
C189 C 0.87441 0.23509 0.89127 0.0
C190 C 0.74116 0.31641 0.96095 0.0
C191 C 0.7458 0.37153 0.9484 0.0
C192 C 0.79308 0.28158 0.9672 0.0
C193 C 0.85142 0.30246 0.961 0.0
C194 C 0.85713 0.35997 0.95113 0.0
C195 C 0.80411 0.39377 0.94467 0.0
C196 C 0.78475 0.22067 0.97806 0.0
C197 C 0.91854 0.38463 0.94526 0.0
H198 H 0.99166 0.18236 0.01833 0.0
H199 H 0.94297 0.14041 0.90333 0.0
H200 H 0.93184 0.33459 0.02244 0.0
H201 H 0.89514 0.2764 0.04095 0.0
H202 H 0.97727 0.28236 0.04648 0.0
H203 H 0.89038 0.2069 0.86756 0.0
H204 H 0.82498 0.22623 0.89241 0.0
H205 H 0.87912 0.2818 0.88671 0.0
H206 H 0.69646 0.29915 0.96438 0.0
H207 H 0.80827 0.43666 0.93538 0.0
H208 H 0.8162 0.21405 0.00251 0.0
H209 H 0.79624 0.18723 0.95559 0.0
H210 H 0.7371 0.21265 0.98416 0.0
H211 H 0.95543 0.36963 0.96468 0.0
H212 H 0.91801 0.43348 0.94828 0.0
H213 H 0.92988 0.36914 0.9172 0.0
C214 C 0.61676 0.67458 0.56671 0.0
C215 C 0.60675 0.65176 0.52997 0.0
C216 C 0.63673 0.73253 0.57665 0.0
C217 C 0.64804 0.76794 0.54906 0.0
C218 C 0.63105 0.7472 0.51194 0.0
C219 C 0.61033 0.68893 0.50275 0.0
C220 C 0.65249 0.75328 0.6166 0.0
C221 C 0.64097 0.78405 0.48175 0.0
C222 C 0.7051 0.92195 0.58488 0.0
C223 C 0.76865 0.91265 0.58934 0.0
C224 C 0.66485 0.87619 0.56975 0.0
C225 C 0.68886 0.82 0.55893 0.0
C226 C 0.75313 0.81137 0.56161 0.0
C227 C 0.79212 0.85768 0.57683 0.0
C228 C 0.59672 0.88729 0.56717 0.0
C229 C 0.78082 0.75226 0.55005 0.0
H230 H 0.61334 0.64564 0.58769 0.0
H231 H 0.60242 0.67105 0.4743 0.0
H232 H 0.70297 0.7529 0.62289 0.0
H233 H 0.63655 0.79901 0.62326 0.0
H234 H 0.6319 0.72465 0.63452 0.0
H235 H 0.61277 0.76807 0.45607 0.0
H236 H 0.62988 0.83088 0.48964 0.0
H237 H 0.6899 0.78168 0.47634 0.0
H238 H 0.68653 0.96444 0.59425 0.0
H239 H 0.84114 0.85028 0.57969 0.0
H240 H 0.57697 0.8693 0.59011 0.0
H241 H 0.57372 0.86485 0.5414 0.0
H242 H 0.58612 0.93501 0.56875 0.0
H243 H 0.76824 0.71992 0.56827 0.0
H244 H 0.83156 0.75413 0.55114 0.0
H245 H 0.76247 0.73572 0.52183 0.0
C246 C 0.77819 0.40016 0.42409 0.0
C247 C 0.71711 0.38556 0.42708 0.0
C248 C 0.81885 0.35813 0.40975 0.0
C249 C 0.7979 0.30001 0.39854 0.0
C250 C 0.73479 0.28676 0.39794 0.0
C251 C 0.69487 0.33 0.41209 0.0
C252 C 0.88544 0.37456 0.41004 0.0
C253 C 0.7105 0.22548 0.38588 0.0
C254 C 0.90992 0.19208 0.35516 0.0
C255 C 0.93648 0.16673 0.38569 0.0
C256 C 0.86365 0.23465 0.35861 0.0
C257 C 0.84336 0.25196 0.39335 0.0
C258 C 0.86907 0.22556 0.4241 0.0
C259 C 0.91545 0.18346 0.41991 0.0
C260 C 0.8376 0.26209 0.3253 0.0
C261 C 0.84837 0.24258 0.46165 0.0
H262 H 0.79523 0.44344 0.43527 0.0
H263 H 0.64764 0.31858 0.4144 0.0
H264 H 0.91241 0.35564 0.43278 0.0
H265 H 0.90399 0.35628 0.38428 0.0
H266 H 0.89231 0.42298 0.41379 0.0
H267 H 0.65981 0.22504 0.38037 0.0
H268 H 0.73087 0.20595 0.36098 0.0
H269 H 0.72327 0.19706 0.40775 0.0
H270 H 0.92588 0.17934 0.32857 0.0
H271 H 0.93541 0.16381 0.44356 0.0
H272 H 0.85001 0.30939 0.32837 0.0
H273 H 0.78687 0.25943 0.32253 0.0
H274 H 0.85485 0.24057 0.29982 0.0
H275 H 0.85902 0.28961 0.47056 0.0
H276 H 0.87082 0.21586 0.48234 0.0
H277 H 0.79803 0.23715 0.46092 0.0
C278 C 0.42594 0.33328 0.5541 0.0
C279 C 0.40011 0.37729 0.5342 0.0
C280 C 0.39243 0.30825 0.57907 0.0
C281 C 0.33139 0.32684 0.58318 0.0
C282 C 0.30615 0.37265 0.56385 0.0
C283 C 0.34082 0.39716 0.53961 0.0
C284 C 0.42161 0.2605 0.59972 0.0
C285 C 0.24155 0.39447 0.56769 0.0
C286 C 0.20197 0.23337 0.6044 0.0
C287 C 0.19015 0.26042 0.63894 0.0
C288 C 0.25203 0.2507 0.58722 0.0
C289 C 0.29101 0.2962 0.60501 0.0
C290 C 0.28269 0.31965 0.64123 0.0
C291 C 0.23214 0.30163 0.65778 0.0
C292 C 0.26003 0.22384 0.54879 0.0
C293 C 0.32445 0.36691 0.66143 0.0
H294 H 0.47152 0.31732 0.54941 0.0
H295 H 0.32109 0.43157 0.52434 0.0
H296 H 0.4074 0.26342 0.62784 0.0
H297 H 0.40676 0.217 0.58541 0.0
H298 H 0.47241 0.26263 0.60129 0.0
H299 H 0.2301 0.43241 0.55208 0.0
H300 H 0.20846 0.3585 0.55772 0.0
H301 H 0.23523 0.408 0.59683 0.0
H302 H 0.1704 0.20068 0.58992 0.0
H303 H 0.22402 0.32194 0.6848 0.0
H304 H 0.30871 0.21221 0.54601 0.0
H305 H 0.24674 0.2564 0.52945 0.0
H306 H 0.23149 0.18377 0.54076 0.0
H307 H 0.37284 0.35625 0.65724 0.0
H308 H 0.31931 0.37256 0.69119 0.0
H309 H 0.3137 0.40937 0.65051 0.0
C310 C 0.41014 0.64361 0.42123 0.0
C311 C 0.44468 0.62801 0.45244 0.0
C312 C 0.37558 0.69536 0.42244 0.0
C313 C 0.37567 0.73254 0.45574 0.0
C314 C 0.41578 0.72028 0.48625 0.0
C315 C 0.44964 0.6677 0.48432 0.0
C316 C 0.3344 0.70705 0.38899 0.0
C317 C 0.41895 0.75962 0.52192 0.0
C318 C 0.28145 0.87087 0.44623 0.0
C319 C 0.2234 0.85162 0.45301 0.0
C320 C 0.33305 0.83424 0.44962 0.0
C321 C 0.32619 0.77709 0.45982 0.0
C322 C 0.26859 0.75922 0.46918 0.0
C323 C 0.21799 0.79665 0.46566 0.0
C324 C 0.39389 0.85534 0.44011 0.0
C325 C 0.25933 0.69888 0.48064 0.0
H326 H 0.40699 0.61334 0.39635 0.0
H327 H 0.47596 0.6557 0.5086 0.0
H328 H 0.28606 0.69888 0.39357 0.0
H329 H 0.33804 0.7536 0.38382 0.0
H330 H 0.34555 0.67837 0.36421 0.0
H331 H 0.46288 0.75386 0.53871 0.0
H332 H 0.41394 0.80658 0.51739 0.0
H333 H 0.38097 0.74822 0.53765 0.0
H334 H 0.2862 0.91353 0.43674 0.0
H335 H 0.17353 0.78171 0.47143 0.0
H336 H 0.40269 0.83461 0.41252 0.0
H337 H 0.43178 0.84244 0.45962 0.0
H338 H 0.39475 0.90385 0.44 0.0
H339 H 0.26476 0.66494 0.45725 0.0
H340 H 0.21324 0.69369 0.49003 0.0
H341 H 0.29441 0.69029 0.50299 0.0
C342 C 0.09554 0.86089 0.12024 0.0
C343 C 0.06286 0.9047 0.10328 0.0
C344 C 0.08896 0.85342 0.15672 0.0
C345 C 0.04995 0.8917 0.17666 0.0
C346 C 0.01198 0.93161 0.15839 0.0
C347 C 0.01917 0.93783 0.12184 0.0
C348 C 0.12874 0.80906 0.17493 0.0
C349 C 0.96947 0.9732 0.17836 0.0
C350 C 0.02965 0.88288 0.27682 0.0
C351 C 0.07222 0.92523 0.29379 0.0
C352 C 0.02293 0.86964 0.23862 0.0
C353 C 0.05937 0.89979 0.21713 0.0
C354 C 0.10395 0.94085 0.23428 0.0
C355 C 0.1099 0.95285 0.27231 0.0
C356 C 0.97496 0.82563 0.22132 0.0
C357 C 0.1441 0.97384 0.21241 0.0
H358 H 0.12923 0.83515 0.10573 0.0
H359 H 0.99432 0.97219 0.10885 0.0
H360 H 0.16837 0.83198 0.19122 0.0
H361 H 0.10294 0.78688 0.19388 0.0
H362 H 0.14654 0.77522 0.15463 0.0
H363 H 0.93132 0.9874 0.1594 0.0
H364 H 0.94999 0.953 0.20057 0.0
H365 H 0.99555 0.01295 0.19082 0.0
H366 H 1.00024 0.86138 0.29323 0.0
H367 H 0.14324 0.98526 0.28517 0.0
H368 H 0.99172 0.79773 0.19779 0.0
H369 H 0.93397 0.84951 0.21093 0.0
H370 H 0.96072 0.79681 0.24123 0.0
H371 H 0.16977 0.94242 0.19446 0.0
H372 H 0.17757 0.00315 0.23005 0.0
H373 H 0.11523 0.00107 0.19461 0.0
C374 C 0.09479 0.92543 0.86632 0.0
C375 C 0.043 0.89826 0.87653 0.0
C376 C 0.0961 0.94011 0.83063 0.0
C377 C 0.04378 0.92885 0.80543 0.0
C378 C 0.9975 0.89115 0.81353 0.0
C379 C 0.99821 0.87532 0.84905 0.0
C380 C 0.14904 0.9758 0.82181 0.0
C381 C 0.94235 0.87559 0.78678 0.0
C382 C 0.99313 0.06685 0.76397 0.0
C383 C 0.00654 0.05394 0.7278 0.0
C384 C 1.0029 0.02535 0.78882 0.0
C385 C 0.02909 0.97007 0.77755 0.0
C386 C 0.04208 0.95644 0.74076 0.0
C387 C 0.02935 -0.00167 0.71602 0.0
C388 C 0.98658 0.04165 0.8275 0.0
C389 C 0.07017 0.89853 0.72733 0.0
H390 H 0.13058 0.94216 0.88692 0.0
H391 H 0.95913 0.85207 0.85636 0.0
H392 H 0.15798 0.96521 0.79278 0.0
H393 H 0.13772 0.02328 0.82638 0.0
H394 H 0.19136 0.96784 0.83954 0.0
H395 H 0.91627 0.8382 0.79444 0.0
H396 H 0.91148 0.91426 0.78621 0.0
H397 H 0.95629 0.86405 0.75886 0.0
H398 H 0.97538 0.10994 0.77292 0.0
H399 H 0.04013 0.98867 0.68798 0.0
H400 H 0.02891 0.04555 0.84654 0.0
H401 H 0.95762 0.00693 0.83581 0.0
H402 H 0.96157 0.08408 0.83073 0.0
H403 H 0.09865 0.87928 0.74936 0.0
H404 H 0.09891 0.90366 0.70473 0.0
H405 H 0.03304 0.86695 0.71646 0.0
C406 C 0.52248 0.41387 0.60715 0.0
C407 C 0.57075 0.3862 0.58978 0.0
C408 C 0.51752 0.41046 0.64429 0.0
C409 C 0.56227 0.37897 0.66434 0.0
C410 C 0.6065 0.3451 0.64582 0.0
C411 C 0.61056 0.34955 0.60868 0.0
C412 C 0.46946 0.44724 0.66275 0.0
C413 C 0.65418 0.30994 0.66603 0.0
C414 C 0.61385 0.45865 0.75705 0.0
C415 C 0.5832 0.42778 0.78047 0.0
C416 C 0.60865 0.44183 0.71939 0.0
C417 C 0.57168 0.39285 0.70463 0.0
C418 C 0.54235 0.35999 0.72816 0.0
C419 C 0.54854 0.37783 0.76596 0.0
C420 C 0.64132 0.47786 0.6953 0.0
C421 C 0.50229 0.30782 0.71335 0.0
H422 H 0.49202 0.4428 0.59272 0.0
H423 H 0.64784 0.328 0.59515 0.0
H424 H 0.45409 0.42684 0.68611 0.0
H425 H 0.48919 0.49101 0.67341 0.0
H426 H 0.42905 0.45409 0.64324 0.0
H427 H 0.67641 0.27694 0.64714 0.0
H428 H 0.69012 0.34014 0.6805 0.0
H429 H 0.63371 0.28699 0.6868 0.0
H430 H 0.64116 0.49694 0.76808 0.0
H431 H 0.52451 0.3539 0.78393 0.0
H432 H 0.60732 0.49835 0.6765 0.0
H433 H 0.67113 0.44915 0.67831 0.0
H434 H 0.67001 0.5133 0.7113 0.0
H435 H 0.45847 0.32362 0.70043 0.0
H436 H 0.49182 0.28099 0.73518 0.0
H437 H 0.52431 0.27934 0.69201 0.0
C438 C 0.60249 0.42769 0.35399 0.0
C439 C 0.55241 0.39398 0.36051 0.0
C440 C 0.60367 0.45089 0.32058 0.0
C441 C 0.55306 0.44104 0.29395 0.0
C442 C 0.50968 0.39733 0.29758 0.0
C443 C 0.51054 0.37329 0.33082 0.0
C444 C 0.65393 0.4933 0.3162 0.0
C445 C 0.45672 0.38315 0.26899 0.0
C446 C 0.49231 0.58456 0.26368 0.0
C447 C 0.50741 0.58085 0.22768 0.0
C448 C 0.50503 0.53823 0.28477 0.0
C449 C 0.53595 0.48758 0.2699 0.0
C450 C 0.55091 0.48336 0.23328 0.0
C451 C 0.53519 0.52976 0.21228 0.0
C452 C 0.48647 0.5444 0.32336 0.0
C453 C 0.58408 0.4308 0.21614 0.0
H454 H 0.63638 0.44263 0.37619 0.0
H455 H 0.47308 0.34502 0.33509 0.0
H456 H 0.66461 0.49014 0.28733 0.0
H457 H 0.63863 0.53889 0.32427 0.0
H458 H 0.69627 0.48489 0.33378 0.0
H459 H 0.43336 0.3417 0.27277 0.0
H460 H 0.42286 0.41947 0.27082 0.0
H461 H 0.4725 0.3791 0.24125 0.0
H462 H 0.47072 0.62417 0.27544 0.0
H463 H 0.54729 0.52726 0.18443 0.0
H464 H 0.52793 0.54757 0.34311 0.0
H465 H 0.46011 0.50521 0.328 0.0
H466 H 0.45802 0.5841 0.32942 0.0
H467 H 0.61306 0.40857 0.23664 0.0
H468 H 0.6134 0.44379 0.19548 0.0
H469 H 0.54991 0.39865 0.20182 0.0
loop_
_geom_bond_atom_site_label_1
_geom_bond_atom_site_label_2
_geom_bond_distance
_geom_bond_site_symmetry_2
_ccdc_geom_bond_type
Zn0 O6 1.920 1_545 S
Zn0 O12 1.898 . S
Zn0 O15 1.905 1_545 S
Zn1 O9 1.905 . S
Zn1 O10 1.898 1_545 S
Zn1 O18 1.920 1_545 S
Zn2 O5 2.080 1_444 S
Zn2 O8 2.114 . S
Zn2 O11 2.120 1_545 S
Zn2 O13 2.120 1_455 S
Zn2 O14 2.114 1_554 S
Zn2 O17 2.080 . S
C3 O8 1.166 . S
C3 O9 1.182 . S
C4 O10 1.150 1_556 S
C4 O11 1.294 1_556 S
O5 Zn2 2.080 1_666 S
O5 C19 1.305 1_556 S
O6 Zn0 1.920 1_565 S
O6 C19 1.234 1_556 S
C7 O12 1.167 . S
C7 O13 1.299 1_556 S
O8 Zn2 2.114 . S
O8 C3 1.166 . S
O9 Zn1 1.905 . S
O9 C3 1.182 . S
O10 Zn1 1.898 1_565 S
O10 C4 1.150 1_554 S
O11 Zn2 2.120 1_565 S
O11 C4 1.294 1_554 S
O12 Zn0 1.898 . S
O12 C7 1.167 . S
O13 Zn2 2.120 1_655 S
O13 C7 1.299 1_554 S
O14 Zn2 2.114 1_556 S
O14 C16 1.166 1_445 S
O15 Zn0 1.905 1_565 S
O15 C16 1.182 . S
C16 O14 1.166 1_665 S
C16 O15 1.182 . S
O17 Zn2 2.080 . S
O17 C20 1.305 1_545 S
O18 Zn1 1.920 1_565 S
O18 C20 1.234 . S
C19 O5 1.305 1_554 S
C19 O6 1.234 1_554 S
C20 O17 1.305 1_565 S
C20 O18 1.234 . S
Zn21 O27 1.920 . S
Zn21 O33 1.898 . S
Zn21 O36 1.905 . S
Zn22 O30 1.905 . S
Zn22 O31 1.898 . S
Zn22 O39 1.920 . S
Zn23 O26 2.080 . S
Zn23 O29 2.114 . S
Zn23 O32 2.120 . S
Zn23 O34 2.120 . S
Zn23 O35 2.114 . S
Zn23 O38 2.080 . S
C24 O29 1.166 . S
C24 O30 1.182 . S
C25 O31 1.167 . S
C25 O32 1.299 . S
O26 Zn23 2.080 . S
O26 C40 1.305 . S
O27 Zn21 1.920 . S
O27 C40 1.234 . S
C28 O33 1.167 . S
C28 O34 1.299 . S
O29 Zn23 2.114 . S
O29 C24 1.166 . S
O30 Zn22 1.905 . S
O30 C24 1.182 . S
O31 Zn22 1.898 . S
O31 C25 1.167 . S
O32 Zn23 2.120 . S
O32 C25 1.299 . S
O33 Zn21 1.898 . S
O33 C28 1.167 . S
O34 Zn23 2.120 . S
O34 C28 1.299 . S
O35 Zn23 2.114 . S
O35 C37 1.166 . S
O36 Zn21 1.905 . S
O36 C37 1.182 . S
C37 O35 1.166 . S
C37 O36 1.182 . S
O38 Zn23 2.080 . S
O38 C41 1.305 . S
O39 Zn22 1.920 . S
O39 C41 1.234 . S
C40 O26 1.305 . S
C40 O27 1.234 . S
C41 O38 1.305 . S
C41 O39 1.234 . S
O42 Cd43 2.300 1_565 S
O42 C49 1.275 1_565 S
Cd43 O42 2.300 1_545 S
Cd43 O51 2.381 1_545 S
Cd43 O52 2.378 1_545 S
O44 Cd45 2.385 . S
O44 C49 1.255 . S
Cd45 O44 2.385 . S
Cd45 O46 2.317 . S
O46 Cd45 2.317 . S
O46 C47 1.232 1_455 S
C47 O46 1.232 1_655 S
C47 O48 1.218 . S
O48 C47 1.218 . S
C49 O42 1.275 1_545 S
C49 O44 1.255 . S
C50 O51 1.258 . S
C50 O52 1.256 . S
O51 Cd43 2.381 1_565 S
O51 C50 1.258 . S
O52 Cd43 2.378 1_565 S
O52 C50 1.256 . S
O53 Cd54 2.300 . S
O53 C60 1.275 . S
Cd54 O53 2.300 . S
Cd54 O62 2.381 . S
Cd54 O63 2.378 . S
O55 Cd56 2.385 . S
O55 C60 1.255 1_565 S
Cd56 O55 2.385 . S
Cd56 O57 2.317 1_455 S
O57 Cd56 2.317 1_655 S
O57 C58 1.232 . S
C58 O57 1.232 . S
C58 O59 1.218 . S
O59 C58 1.218 . S
C60 O53 1.275 . S
C60 O55 1.255 1_545 S
C61 O62 1.258 . S
C61 O63 1.256 . S
O62 Cd54 2.381 . S
O62 C61 1.258 . S
O63 Cd54 2.378 . S
O63 C61 1.256 . S
O64 Cd65 2.300 . S
O64 C71 1.275 . S
Cd65 O64 2.300 . S
Cd65 O73 2.381 . S
Cd65 O74 2.378 . S
O66 Cd67 2.385 . S
O66 C71 1.255 . S
Cd67 O66 2.385 . S
Cd67 O68 2.317 . S
O68 Cd67 2.317 . S
O68 C69 1.232 . S
C69 O68 1.232 . S
C69 O70 1.218 . S
O70 C69 1.218 . S
C71 O64 1.275 . S
C71 O66 1.255 . S
C72 O73 1.258 . S
C72 O74 1.256 . S
O73 Cd65 2.381 . S
O73 C72 1.258 . S
O74 Cd65 2.378 . S
O74 C72 1.256 . S
O75 Cd76 2.300 . S
O75 C82 1.275 . S
Cd76 O75 2.300 . S
Cd76 O84 2.381 . S
Cd76 O85 2.378 . S
O77 Cd78 2.385 . S
O77 C82 1.255 . S
Cd78 O77 2.385 . S
Cd78 O79 2.317 . S
O79 Cd78 2.317 . S
O79 C80 1.232 . S
C80 O79 1.232 . S
C80 O81 1.218 . S
O81 C80 1.218 . S
C82 O75 1.275 . S
C82 O77 1.255 . S
C83 O84 1.258 . S
C83 O85 1.256 . S
O84 Cd76 2.381 . S
O84 C83 1.258 . S
O85 Cd76 2.378 . S
O85 C83 1.256 . S
C86 C87 1.391 . S
C86 C88 1.394 . S
C86 H102 0.931 . S
C87 C86 1.391 . S
C87 C91 1.376 . S
C88 C86 1.394 . S
C88 C89 1.369 . S
C88 C92 1.531 . S
C89 C88 1.369 . S
C89 C90 1.410 . S
C89 C97 1.503 . S
C90 C89 1.410 . S
C90 C91 1.392 . S
C90 C93 1.511 . S
C91 C87 1.376 . S
C91 C90 1.392 . S
C91 H103 0.929 . S
C92 C88 1.531 . S
C92 H104 0.960 . S
C92 H105 0.962 . S
C92 H106 0.960 . S
C93 C90 1.511 . S
C93 H107 0.961 . S
C93 H108 0.961 . S
C93 H109 0.961 1_554 S
C94 C95 1.370 . S
C94 C96 1.363 . S
C94 H110 0.931 . S
C95 C94 1.370 . S
C95 C99 1.408 . S
C96 C94 1.363 . S
C96 C97 1.370 . S
C96 C100 1.524 . S
C97 C89 1.503 . S
C97 C96 1.370 . S
C97 C98 1.403 . S
C98 C97 1.403 . S
C98 C99 1.404 . S
C98 C101 1.539 1_554 S
C99 C95 1.408 . S
C99 C98 1.404 . S
C99 H111 0.930 . S
C100 C96 1.524 . S
C100 H112 0.956 . S
C100 H113 0.961 . S
C100 H114 0.961 . S
C101 C98 1.539 1_556 S
C101 H115 0.958 . S
C101 H116 0.961 . S
C101 H117 0.960 . S
H102 C86 0.931 . S
H103 C91 0.929 . S
H104 C92 0.960 . S
H105 C92 0.962 . S
H106 C92 0.960 . S
H107 C93 0.961 . S
H108 C93 0.961 . S
H109 C93 0.961 1_556 S
H110 C94 0.931 . S
H111 C99 0.930 . S
H112 C100 0.956 . S
H113 C100 0.961 . S
H114 C100 0.961 . S
H115 C101 0.958 . S
H116 C101 0.961 . S
H117 C101 0.960 . S
C118 C119 1.391 1_554 S
C118 C120 1.394 1_554 S
C118 H134 0.931 . S
C119 C118 1.391 1_556 S
C119 C123 1.376 . S
C120 C118 1.394 1_556 S
C120 C121 1.369 . S
C120 C124 1.531 1_556 S
C121 C120 1.369 . S
C121 C122 1.410 . S
C121 C129 1.503 . S
C122 C121 1.410 . S
C122 C123 1.392 . S
C122 C125 1.511 . S
C123 C119 1.376 . S
C123 C122 1.392 . S
C123 H135 0.929 . S
C124 C120 1.531 1_554 S
C124 H136 0.960 . S
C124 H137 0.962 . S
C124 H138 0.960 . S
C125 C122 1.511 . S
C125 H139 0.961 . S
C125 H140 0.961 . S
C125 H141 0.961 . S
C126 C127 1.370 . S
C126 C128 1.363 . S
C126 H142 0.931 . S
C127 C126 1.370 . S
C127 C131 1.408 . S
C128 C126 1.363 . S
C128 C129 1.370 . S
C128 C132 1.524 . S
C129 C121 1.503 . S
C129 C128 1.370 . S
C129 C130 1.403 . S
C130 C129 1.403 . S
C130 C131 1.404 . S
C130 C133 1.539 . S
C131 C127 1.408 . S
C131 C130 1.404 . S
C131 H143 0.930 . S
C132 C128 1.524 . S
C132 H144 0.979 . S
C132 H145 0.961 . S
C132 H146 0.961 . S
C133 C130 1.539 . S
C133 H147 0.958 . S
C133 H148 0.961 . S
C133 H149 0.960 . S
H134 C118 0.931 . S
H135 C123 0.929 . S
H136 C124 0.960 . S
H137 C124 0.962 . S
H138 C124 0.960 . S
H139 C125 0.961 . S
H140 C125 0.961 . S
H141 C125 0.961 . S
H142 C126 0.931 . S
H143 C131 0.930 . S
H144 C132 0.979 . S
H145 C132 0.961 . S
H146 C132 0.961 . S
H147 C133 0.958 . S
H148 C133 0.961 . S
H149 C133 0.960 . S
C150 C151 1.391 . S
C150 C152 1.394 . S
C150 H166 0.931 . S
C151 C150 1.391 . S
C151 C155 1.376 . S
C152 C150 1.394 . S
C152 C153 1.369 . S
C152 C156 1.531 . S
C153 C152 1.369 . S
C153 C154 1.410 . S
C153 C161 1.503 . S
C154 C153 1.410 . S
C154 C155 1.392 . S
C154 C157 1.511 1_554 S
C155 C151 1.376 . S
C155 C154 1.392 . S
C155 H167 0.929 1_554 S
C156 C152 1.531 . S
C156 H168 0.960 . S
C156 H169 0.962 . S
C156 H170 0.960 . S
C157 C154 1.511 1_556 S
C157 H171 0.961 . S
C157 H172 0.961 1_556 S
C157 H173 0.961 . S
C158 C159 1.370 . S
C158 C160 1.363 . S
C158 H174 0.931 . S
C159 C158 1.370 . S
C159 C163 1.408 . S
C160 C158 1.363 . S
C160 C161 1.370 . S
C160 C164 1.524 . S
C161 C153 1.503 . S
C161 C160 1.370 . S
C161 C162 1.403 . S
C162 C161 1.403 . S
C162 C163 1.404 . S
C162 C165 1.539 1_554 S
C163 C159 1.408 . S
C163 C162 1.404 . S
C163 H175 0.925 1_554 S
C164 C160 1.524 . S
C164 H176 0.956 . S
C164 H177 0.961 . S
C164 H178 0.961 . S
C165 C162 1.539 1_556 S
C165 H179 0.958 . S
C165 H180 0.961 . S
C165 H181 0.960 . S
H166 C150 0.931 . S
H167 C155 0.929 1_556 S
H168 C156 0.960 . S
H169 C156 0.962 . S
H170 C156 0.960 . S
H171 C157 0.961 . S
H172 C157 0.961 1_554 S
H173 C157 0.961 . S
H174 C158 0.931 . S
H175 C163 0.925 1_556 S
H176 C164 0.956 . S
H177 C164 0.961 . S
H178 C164 0.961 . S
H179 C165 0.958 . S
H180 C165 0.961 . S
H181 C165 0.960 . S
C182 C183 1.391 1_554 S
C182 C184 1.394 . S
C182 H198 0.931 . S
C183 C182 1.391 1_556 S
C183 C187 1.376 . S
C184 C182 1.394 . S
C184 C185 1.369 1_554 S
C184 C188 1.531 . S
C185 C184 1.369 1_556 S
C185 C186 1.410 . S
C185 C193 1.503 . S
C186 C185 1.410 . S
C186 C187 1.392 . S
C186 C189 1.511 . S
C187 C183 1.376 . S
C187 C186 1.392 . S
C187 H199 0.929 . S
C188 C184 1.531 . S
C188 H200 0.960 . S
C188 H201 0.947 1_554 S
C188 H202 0.960 . S
C189 C186 1.511 . S
C189 H203 0.961 . S
C189 H204 0.961 . S
C189 H205 0.961 . S
C190 C191 1.370 . S
C190 C192 1.363 . S
C190 H206 0.931 . S
C191 C190 1.370 . S
C191 C195 1.408 . S
C192 C190 1.363 . S
C192 C193 1.370 . S
C192 C196 1.524 . S
C193 C185 1.503 . S
C193 C192 1.370 . S
C193 C194 1.403 1_556 S
C194 C193 1.403 1_554 S
C194 C195 1.404 1_554 S
C194 C197 1.539 . S
C195 C191 1.408 . S
C195 C194 1.404 1_556 S
C195 H207 0.930 1_556 S
C196 C192 1.524 . S
C196 H208 0.956 . S
C196 H209 0.961 . S
C196 H210 0.961 . S
C197 C194 1.539 . S
C197 H211 0.958 . S
C197 H212 0.961 . S
C197 H213 0.960 . S
H198 C182 0.931 . S
H199 C187 0.929 . S
H200 C188 0.960 . S
H201 C188 0.947 1_556 S
H202 C188 0.960 . S
H203 C189 0.961 . S
H204 C189 0.961 . S
H205 C189 0.961 . S
H206 C190 0.931 . S
H207 C195 0.930 1_554 S
H208 C196 0.956 . S
H209 C196 0.961 . S
H210 C196 0.961 . S
H211 C197 0.958 . S
H212 C197 0.961 . S
H213 C197 0.960 . S
C214 C215 1.391 . S
C214 C216 1.394 . S
C214 H230 0.931 . S
C215 C214 1.391 . S
C215 C219 1.376 . S
C216 C214 1.394 . S
C216 C217 1.369 . S
C216 C220 1.531 . S
C217 C216 1.369 . S
C217 C218 1.410 . S
C217 C225 1.503 . S
C218 C217 1.410 . S
C218 C219 1.392 . S
C218 C221 1.511 . S
C219 C215 1.376 . S
C219 C218 1.392 . S
C219 H231 0.929 . S
C220 C216 1.531 . S
C220 H232 0.960 . S
C220 H233 0.962 . S
C220 H234 0.960 . S
C221 C218 1.511 . S
C221 H235 0.961 . S
C221 H236 0.961 . S
C221 H237 0.961 . S
C222 C223 1.370 . S
C222 C224 1.363 . S
C222 H238 0.931 . S
C223 C222 1.370 . S
C223 C227 1.408 . S
C224 C222 1.363 . S
C224 C225 1.370 . S
C224 C228 1.524 . S
C225 C217 1.503 . S
C225 C224 1.370 . S
C225 C226 1.403 . S
C226 C225 1.403 . S
C226 C227 1.404 . S
C226 C229 1.539 . S
C227 C223 1.408 . S
C227 C226 1.404 . S
C227 H239 0.930 . S
C228 C224 1.524 . S
C228 H240 0.956 . S
C228 H241 0.961 . S
C228 H242 0.961 . S
C229 C226 1.539 . S
C229 H243 0.958 . S
C229 H244 0.961 . S
C229 H245 0.960 . S
H230 C214 0.931 . S
H231 C219 0.929 . S
H232 C220 0.960 . S
H233 C220 0.962 . S
H234 C220 0.960 . S
H235 C221 0.961 . S
H236 C221 0.961 . S
H237 C221 0.961 . S
H238 C222 0.931 . S
H239 C227 0.930 . S
H240 C228 0.956 . S
H241 C228 0.961 . S
H242 C228 0.961 . S
H243 C229 0.958 . S
H244 C229 0.961 . S
H245 C229 0.960 . S
C246 C247 1.391 . S
C246 C248 1.394 . S
C246 H262 0.931 . S
C247 C246 1.391 . S
C247 C251 1.376 . S
C248 C246 1.394 . S
C248 C249 1.369 . S
C248 C252 1.531 . S
C249 C248 1.369 . S
C249 C250 1.410 . S
C249 C257 1.503 . S
C250 C249 1.410 . S
C250 C251 1.392 . S
C250 C253 1.511 . S
C251 C247 1.376 . S
C251 C250 1.392 . S
C251 H263 0.929 . S
C252 C248 1.531 . S
C252 H264 0.960 . S
C252 H265 0.962 . S
C252 H266 0.960 . S
C253 C250 1.511 . S
C253 H267 0.961 . S
C253 H268 0.961 . S
C253 H269 0.961 . S
C254 C255 1.370 . S
C254 C256 1.363 . S
C254 H270 0.931 . S
C255 C254 1.370 . S
C255 C259 1.408 . S
C256 C254 1.363 . S
C256 C257 1.370 . S
C256 C260 1.524 . S
C257 C249 1.503 . S
C257 C256 1.370 . S
C257 C258 1.403 . S
C258 C257 1.403 . S
C258 C259 1.404 . S
C258 C261 1.539 . S
C259 C255 1.408 . S
C259 C258 1.404 . S
C259 H271 0.930 . S
C260 C256 1.524 . S
C260 H272 0.956 . S
C260 H273 0.961 . S
C260 H274 0.961 . S
C261 C258 1.539 . S
C261 H275 0.958 . S
C261 H276 0.961 . S
C261 H277 0.960 . S
H262 C246 0.931 . S
H263 C251 0.929 . S
H264 C252 0.960 . S
H265 C252 0.962 . S
H266 C252 0.960 . S
H267 C253 0.961 . S
H268 C253 0.961 . S
H269 C253 0.961 . S
H270 C254 0.931 . S
H271 C259 0.930 . S
H272 C260 0.956 . S
H273 C260 0.961 . S
H274 C260 0.961 . S
H275 C261 0.958 . S
H276 C261 0.961 . S
H277 C261 0.960 . S
C278 C279 1.391 . S
C278 C280 1.394 . S
C278 H294 0.931 . S
C279 C278 1.391 . S
C279 C283 1.376 . S
C280 C278 1.394 . S
C280 C281 1.369 . S
C280 C284 1.531 . S
C281 C280 1.369 . S
C281 C282 1.410 . S
C281 C289 1.503 . S
C282 C281 1.410 . S
C282 C283 1.392 . S
C282 C285 1.511 . S
C283 C279 1.376 . S
C283 C282 1.392 . S
C283 H295 0.929 . S
C284 C280 1.531 . S
C284 H296 0.960 . S
C284 H297 0.962 . S
C284 H298 0.960 . S
C285 C282 1.511 . S
C285 H299 0.961 . S
C285 H300 0.961 . S
C285 H301 0.961 . S
C286 C287 1.370 . S
C286 C288 1.363 . S
C286 H302 0.931 . S
C287 C286 1.370 . S
C287 C291 1.408 . S
C288 C286 1.363 . S
C288 C289 1.370 . S
C288 C292 1.524 . S
C289 C281 1.503 . S
C289 C288 1.370 . S
C289 C290 1.403 . S
C290 C289 1.403 . S
C290 C291 1.404 . S
C290 C293 1.539 . S
C291 C287 1.408 . S
C291 C290 1.404 . S
C291 H303 0.930 . S
C292 C288 1.524 . S
C292 H304 0.956 . S
C292 H305 0.961 . S
C292 H306 0.961 . S
C293 C290 1.539 . S
C293 H307 0.958 . S
C293 H308 0.961 . S
C293 H309 0.960 . S
H294 C278 0.931 . S
H295 C283 0.929 . S
H296 C284 0.960 . S
H297 C284 0.962 . S
H298 C284 0.960 . S
H299 C285 0.961 . S
H300 C285 0.961 . S
H301 C285 0.961 . S
H302 C286 0.931 . S
H303 C291 0.930 . S
H304 C292 0.956 . S
H305 C292 0.961 . S
H306 C292 0.961 . S
H307 C293 0.958 . S
H308 C293 0.961 . S
H309 C293 0.960 . S
C310 C311 1.391 . S
C310 C312 1.394 . S
C310 H326 0.931 . S
C311 C310 1.391 . S
C311 C315 1.376 . S
C312 C310 1.394 . S
C312 C313 1.369 . S
C312 C316 1.531 . S
C313 C312 1.369 . S
C313 C314 1.410 . S
C313 C321 1.503 . S
C314 C313 1.410 . S
C314 C315 1.392 . S
C314 C317 1.511 . S
C315 C311 1.376 . S
C315 C314 1.392 . S
C315 H327 0.929 . S
C316 C312 1.531 . S
C316 H328 0.960 . S
C316 H329 0.962 . S
C316 H330 0.960 . S
C317 C314 1.511 . S
C317 H331 0.961 . S
C317 H332 0.961 . S
C317 H333 0.961 . S
C318 C319 1.370 . S
C318 C320 1.363 . S
C318 H334 0.931 . S
C319 C318 1.370 . S
C319 C323 1.408 . S
C320 C318 1.363 . S
C320 C321 1.370 . S
C320 C324 1.524 . S
C321 C313 1.503 . S
C321 C320 1.370 . S
C321 C322 1.403 . S
C322 C321 1.403 . S
C322 C323 1.404 . S
C322 C325 1.539 . S
C323 C319 1.408 . S
C323 C322 1.404 . S
C323 H335 0.930 . S
C324 C320 1.524 . S
C324 H336 0.956 . S
C324 H337 0.961 . S
C324 H338 0.961 . S
C325 C322 1.539 . S
C325 H339 0.958 . S
C325 H340 0.961 . S
C325 H341 0.960 . S
H326 C310 0.931 . S
H327 C315 0.929 . S
H328 C316 0.960 . S
H329 C316 0.962 . S
H330 C316 0.960 . S
H331 C317 0.961 . S
H332 C317 0.961 . S
H333 C317 0.961 . S
H334 C318 0.931 . S
H335 C323 0.930 . S
H336 C324 0.956 . S
H337 C324 0.961 . S
H338 C324 0.961 . S
H339 C325 0.958 . S
H340 C325 0.961 . S
H341 C325 0.960 . S
C342 C343 1.391 . S
C342 C344 1.394 . S
C342 H358 0.931 . S
C343 C342 1.391 . S
C343 C347 1.376 1_565 S
C344 C342 1.394 . S
C344 C345 1.369 1_565 S
C344 C348 1.531 . S
C345 C344 1.369 1_545 S
C345 C346 1.410 . S
C345 C353 1.503 . S
C346 C345 1.410 . S
C346 C347 1.392 . S
C346 C349 1.511 . S
C347 C343 1.376 1_545 S
C347 C346 1.392 . S
C347 H359 0.929 . S
C348 C344 1.531 . S
C348 H360 0.960 . S
C348 H361 0.962 . S
C348 H362 0.960 . S
C349 C346 1.511 . S
C349 H363 0.961 . S
C349 H364 0.961 . S
C349 H365 0.961 . S
C350 C351 1.370 . S
C350 C352 1.363 . S
C350 H366 0.931 1_455 S
C351 C350 1.370 . S
C351 C355 1.408 . S
C352 C350 1.363 . S
C352 C353 1.370 . S
C352 C356 1.524 1_455 S
C353 C345 1.503 . S
C353 C352 1.370 . S
C353 C354 1.403 . S
C354 C353 1.403 . S
C354 C355 1.404 . S
C354 C357 1.539 . S
C355 C351 1.408 . S
C355 C354 1.404 . S
C355 H367 0.930 . S
C356 C352 1.524 1_655 S
C356 H368 0.956 1_545 S
C356 H369 0.961 . S
C356 H370 0.961 . S
C357 C354 1.539 . S
C357 H371 0.958 1_545 S
C357 H372 0.961 . S
C357 H373 0.960 . S
H358 C342 0.931 . S
H359 C347 0.929 . S
H360 C348 0.960 . S
H361 C348 0.962 . S
H362 C348 0.960 . S
H363 C349 0.961 . S
H364 C349 0.961 . S
H365 C349 0.961 . S
H366 C350 0.931 1_655 S
H367 C355 0.930 . S
H368 C356 0.956 1_565 S
H369 C356 0.961 . S
H370 C356 0.961 . S
H371 C357 0.958 1_565 S
H372 C357 0.961 . S
H373 C357 0.960 . S
C374 C375 1.391 . S
C374 C376 1.394 . S
C374 H390 0.931 . S
C375 C374 1.391 . S
C375 C379 1.376 1_465 S
C376 C374 1.394 . S
C376 C377 1.369 . S
C376 C380 1.531 . S
C377 C376 1.369 . S
C377 C378 1.410 1_465 S
C377 C385 1.503 . S
C378 C377 1.410 1_645 S
C378 C379 1.392 . S
C378 C381 1.511 . S
C379 C375 1.376 1_645 S
C379 C378 1.392 . S
C379 H391 0.929 . S
C380 C376 1.531 . S
C380 H392 0.960 . S
C380 H393 0.962 . S
C380 H394 0.960 . S
C381 C378 1.511 . S
C381 H395 0.961 . S
C381 H396 0.961 . S
C381 H397 0.961 . S
C382 C383 1.370 1_455 S
C382 C384 1.363 . S
C382 H398 0.931 . S
C383 C382 1.370 1_655 S
C383 C387 1.408 1_545 S
C384 C382 1.363 . S
C384 C385 1.370 1_545 S
C384 C388 1.524 . S
C385 C377 1.503 . S
C385 C384 1.370 1_565 S
C385 C386 1.403 1_455 S
C386 C385 1.403 1_655 S
C386 C387 1.404 . S
C386 C389 1.539 . S
C387 C383 1.408 1_565 S
C387 C386 1.404 . S
C387 H399 0.930 . S
C388 C384 1.524 . S
C388 H400 0.956 . S
C388 H401 0.961 . S
C388 H402 0.961 . S
C389 C386 1.539 . S
C389 H403 0.958 . S
C389 H404 0.961 . S
C389 H405 0.960 . S
H390 C374 0.931 . S
H391 C379 0.929 . S
H392 C380 0.960 . S
H393 C380 0.962 . S
H394 C380 0.960 . S
H395 C381 0.961 . S
H396 C381 0.961 . S
H397 C381 0.961 . S
H398 C382 0.931 . S
H399 C387 0.930 . S
H400 C388 0.956 . S
H401 C388 0.961 . S
H402 C388 0.961 . S
H403 C389 0.958 . S
H404 C389 0.961 . S
H405 C389 0.960 . S
C406 C407 1.391 . S
C406 C408 1.394 . S
C406 H422 0.931 . S
C407 C406 1.391 . S
C407 C411 1.376 . S
C408 C406 1.394 . S
C408 C409 1.369 . S
C408 C412 1.531 . S
C409 C408 1.369 . S
C409 C410 1.410 . S
C409 C417 1.503 . S
C410 C409 1.410 . S
C410 C411 1.392 . S
C410 C413 1.511 . S
C411 C407 1.376 . S
C411 C410 1.392 . S
C411 H423 0.929 . S
C412 C408 1.531 . S
C412 H424 0.960 . S
C412 H425 0.962 . S
C412 H426 0.960 . S
C413 C410 1.511 . S
C413 H427 0.961 . S
C413 H428 0.961 . S
C413 H429 0.961 . S
C414 C415 1.370 . S
C414 C416 1.363 . S
C414 H430 0.931 . S
C415 C414 1.370 . S
C415 C419 1.408 . S
C416 C414 1.363 . S
C416 C417 1.370 . S
C416 C420 1.524 . S
C417 C409 1.503 . S
C417 C416 1.370 . S
C417 C418 1.403 . S
C418 C417 1.403 . S
C418 C419 1.404 . S
C418 C421 1.539 . S
C419 C415 1.408 . S
C419 C418 1.404 . S
C419 H431 0.930 . S
C420 C416 1.524 . S
C420 H432 0.956 . S
C420 H433 0.961 . S
C420 H434 0.961 . S
C421 C418 1.539 . S
C421 H435 0.958 . S
C421 H436 0.961 . S
C421 H437 0.960 . S
H422 C406 0.931 . S
H423 C411 0.929 . S
H424 C412 0.960 . S
H425 C412 0.962 . S
H426 C412 0.960 . S
H427 C413 0.961 . S
H428 C413 0.961 . S
H429 C413 0.961 . S
H430 C414 0.931 . S
H431 C419 0.930 . S
H432 C420 0.956 . S
H433 C420 0.961 . S
H434 C420 0.961 . S
H435 C421 0.958 . S
H436 C421 0.961 . S
H437 C421 0.960 . S
C438 C439 1.391 . S
C438 C440 1.394 . S
C438 H454 0.931 . S
C439 C438 1.391 . S
C439 C443 1.376 . S
C440 C438 1.394 . S
C440 C441 1.369 . S
C440 C444 1.531 . S
C441 C440 1.369 . S
C441 C442 1.410 . S
C441 C449 1.503 . S
C442 C441 1.410 . S
C442 C443 1.392 . S
C442 C445 1.511 . S
C443 C439 1.376 . S
C443 C442 1.392 . S
C443 H455 0.929 . S
C444 C440 1.531 . S
C444 H456 0.960 . S
C444 H457 0.962 . S
C444 H458 0.960 . S
C445 C442 1.511 . S
C445 H459 0.961 . S
C445 H460 0.961 . S
C445 H461 0.961 . S
C446 C447 1.370 . S
C446 C448 1.363 . S
C446 H462 0.931 . S
C447 C446 1.370 . S
C447 C451 1.408 . S
C448 C446 1.363 . S
C448 C449 1.370 . S
C448 C452 1.524 . S
C449 C441 1.503 . S
C449 C448 1.370 . S
C449 C450 1.403 . S
C450 C449 1.403 . S
C450 C451 1.404 . S
C450 C453 1.539 . S
C451 C447 1.408 . S
C451 C450 1.404 . S
C451 H463 0.930 . S
C452 C448 1.524 . S
C452 H464 0.956 . S
C452 H465 0.961 . S
C452 H466 0.961 . S
C453 C450 1.539 . S
C453 H467 0.958 . S
C453 H468 0.961 . S
C453 H469 0.960 . S
H454 C438 0.931 . S
H455 C443 0.929 . S
H456 C444 0.960 . S
H457 C444 0.962 . S
H458 C444 0.960 . S
H459 C445 0.961 . S
H460 C445 0.961 . S
H461 C445 0.961 . S
H462 C446 0.931 . S
H463 C451 0.930 . S
H464 C452 0.956 . S
H465 C452 0.961 . S
H466 C452 0.961 . S
H467 C453 0.958 . S
H468 C453 0.961 . S
H469 C453 0.960 . S
C95 C80 1.139 . S
C87 C3 1.200 . S
C119 C4 1.559 . S
C127 C69 1.470 . S
C151 C19 1.448 . S
C159 C83 1.578 . S
C183 C7 1.198 . S
C191 C72 1.264 . S
C215 C37 1.135 . S
C223 C58 1.108 . S
C247 C28 1.493 . S
C255 C47 1.472 . S
C287 C61 1.564 . S
C279 C41 1.513 . S
C319 C50 1.261 . S
C311 C25 1.080 . S
C343 C20 1.279 . S
C351 C49 1.425 . S
C375 C16 1.363 1_455 S
C383 C60 1.496 1_655 S
C415 C71 1.425 . S
C407 C40 1.314 . S
C439 C24 1.402 . S
C447 C82 1.486 . S
