# Generated by pormake.
# Topology cml, (3,6)-cn, num edge types: 1
# Building blocks:
#     Node 0, Type 0, BuildingBlock: OLANEW_clean_sbu_2, # of connection points: 3
#     Node 1, Type 0, BuildingBlock: OLANEW_clean_sbu_2, # of connection points: 3
#     Node 2, Type 0, BuildingBlock: OLANEW_clean_sbu_2, # of connection points: 3
#     Node 3, Type 0, BuildingBlock: OLANEW_clean_sbu_2, # of connection points: 3
#     Node 4, Type 0, BuildingBlock: OLANEW_clean_sbu_2, # of connection points: 3
#     Node 5, Type 0, BuildingBlock: OLANEW_clean_sbu_2, # of connection points: 3
#     Node 6, Type 0, BuildingBlock: OLANEW_clean_sbu_2, # of connection points: 3
#     Node 7, Type 0, BuildingBlock: OLANEW_clean_sbu_2, # of connection points: 3
#     Node 8, Type 1, BuildingBlock: IZENUY_clean_sbu_0, # of connection points: 6
#     Node 9, Type 1, BuildingBlock: IZENUY_clean_sbu_0, # of connection points: 6
#     Node 10, Type 1, BuildingBlock: IZENUY_clean_sbu_0, # of connection points: 6
#     Node 11, Type 1, BuildingBlock: IZENUY_clean_sbu_0, # of connection points: 6
#     Edge 12, Type (0, 1), BuildingBlock: EZIPEK_clean_linker_0, # of connection points: 2
#     Edge 13, Type (0, 1), BuildingBlock: EZIPEK_clean_linker_0, # of connection points: 2
#     Edge 14, Type (0, 1), BuildingBlock: EZIPEK_clean_linker_0, # of connection points: 2
#     Edge 15, Type (0, 1), BuildingBlock: EZIPEK_clean_linker_0, # of connection points: 2
#     Edge 16, Type (0, 1), BuildingBlock: EZIPEK_clean_linker_0, # of connection points: 2
#     Edge 17, Type (0, 1), BuildingBlock: EZIPEK_clean_linker_0, # of connection points: 2
#     Edge 18, Type (0, 1), BuildingBlock: EZIPEK_clean_linker_0, # of connection points: 2
#     Edge 19, Type (0, 1), BuildingBlock: EZIPEK_clean_linker_0, # of connection points: 2
#     Edge 20, Type (0, 1), BuildingBlock: EZIPEK_clean_linker_0, # of connection points: 2
#     Edge 21, Type (0, 1), BuildingBlock: EZIPEK_clean_linker_0, # of connection points: 2
#     Edge 22, Type (0, 1), BuildingBlock: EZIPEK_clean_linker_0, # of connection points: 2
#     Edge 23, Type (0, 1), BuildingBlock: EZIPEK_clean_linker_0, # of connection points: 2
#     Edge 24, Type (0, 1), BuildingBlock: EZIPEK_clean_linker_0, # of connection points: 2
#     Edge 25, Type (0, 1), BuildingBlock: EZIPEK_clean_linker_0, # of connection points: 2
#     Edge 26, Type (0, 1), BuildingBlock: EZIPEK_clean_linker_0, # of connection points: 2
#     Edge 27, Type (0, 1), BuildingBlock: EZIPEK_clean_linker_0, # of connection points: 2
#     Edge 28, Type (0, 1), BuildingBlock: EZIPEK_clean_linker_0, # of connection points: 2
#     Edge 29, Type (0, 1), BuildingBlock: EZIPEK_clean_linker_0, # of connection points: 2
#     Edge 30, Type (0, 1), BuildingBlock: EZIPEK_clean_linker_0, # of connection points: 2
#     Edge 31, Type (0, 1), BuildingBlock: EZIPEK_clean_linker_0, # of connection points: 2
#     Edge 32, Type (0, 1), BuildingBlock: EZIPEK_clean_linker_0, # of connection points: 2
#     Edge 33, Type (0, 1), BuildingBlock: EZIPEK_clean_linker_0, # of connection points: 2
#     Edge 34, Type (0, 1), BuildingBlock: EZIPEK_clean_linker_0, # of connection points: 2
#     Edge 35, Type (0, 1), BuildingBlock: EZIPEK_clean_linker_0, # of connection points: 2
# Relax obj value: 0.018
# Max RMSD: 0.072
# Mean RMSD: 0.061
data_MOF--net-cml--node1-OLANEW_clean_sbu_2--node2-IZENUY_clean_sbu_0--edge1-EZIPEK_clean_linker_0
_symmetry_space_group_name_H-M    P1
_symmetry_Int_Tables_number       1
_symmetry_cell_setting            triclinic
loop_
_symmetry_equiv_pos_as_xyz
'x, y, z'
_cell_length_a     29.19975
_cell_length_b     32.200962
_cell_length_c     29.702582
_cell_angle_alpha  87.902019
_cell_angle_beta   87.206735
_cell_angle_gamma 88.560184
loop_
_atom_site_label
_atom_site_type_symbol
_atom_site_fract_x
_atom_site_fract_y
_atom_site_fract_z
_atom_type_partial_charge
O0 O 0.28582 0.46044 0.91318 0.0
Cd1 Cd 0.23577 0.40957 0.95419 0.0
O2 O 0.32355 0.4429 0.97276 0.0
Cd3 Cd 0.37848 0.44486 0.01923 0.0
O4 O 0.41543 0.43312 0.08035 0.0
C5 C 0.39231 0.42634 0.11714 0.0
O6 O 0.3473 0.42742 0.11731 0.0
C7 C 0.32044 0.46495 0.93671 0.0
C8 C 0.19218 0.34674 0.91123 0.0
O9 O 0.17144 0.38136 0.9197 0.0
O10 O 0.23453 0.34264 0.92048 0.0
O11 O 0.70667 0.65614 0.57981 0.0
Cd12 Cd 0.74172 0.64389 0.50455 0.0
O13 O 0.74862 0.60847 0.61505 0.0
Cd14 Cd 0.77881 0.58731 0.55128 0.0
O15 O 0.75274 0.55162 0.49758 0.0
C16 C 0.72813 0.52126 0.51125 0.0
O17 O 0.72349 0.51212 0.55466 0.0
C18 C 0.71771 0.63697 0.61606 0.0
C19 C 0.80848 0.6992 0.47234 0.0
O20 O 0.76607 0.70644 0.46503 0.0
O21 O 0.81925 0.6665 0.49579 0.0
O22 O 0.71827 0.42418 0.96141 0.0
Cd23 Cd 0.76296 0.37069 0.00194 0.0
O24 O 0.73762 0.47378 0.00568 0.0
Cd25 Cd 0.77535 0.43181 0.05059 0.0
O26 O 0.76139 0.40092 0.11619 0.0
C27 C 0.7186 0.40057 0.12614 0.0
O28 O 0.69002 0.41544 0.09641 0.0
C29 C 0.71585 0.46199 0.97258 0.0
C30 C 0.82525 0.32251 0.95094 0.0
O31 O 0.83731 0.3566 0.96741 0.0
O32 O 0.7834 0.31172 0.95718 0.0
O33 O 0.31074 0.57388 0.45924 0.0
Cd34 Cd 0.25024 0.60724 0.50624 0.0
O35 O 0.34371 0.55331 0.52169 0.0
Cd36 Cd 0.30407 0.59256 0.56821 0.0
O37 O 0.32039 0.62581 0.62763 0.0
C38 C 0.36347 0.62732 0.6314 0.0
O39 O 0.391 0.61219 0.59941 0.0
C40 C 0.34171 0.5528 0.47909 0.0
C41 C 0.19691 0.67019 0.46701 0.0
O42 O 0.18785 0.63186 0.46248 0.0
O43 O 0.23222 0.67889 0.48857 0.0
O44 O 0.80235 0.94716 0.93585 0.0
Cd45 Cd 0.75309 0.90285 0.9862 0.0
O46 O 0.83534 0.96967 0.99536 0.0
Cd47 Cd 0.80142 0.93062 0.04787 0.0
O48 O 0.81805 0.91079 0.11622 0.0
C49 C 0.86045 0.90195 0.11917 0.0
O50 O 0.88723 0.90298 0.08231 0.0
C51 C 0.8312 0.97031 0.95297 0.0
C52 C 0.70658 0.83655 0.9525 0.0
O53 O 0.68833 0.87318 0.95288 0.0
O54 O 0.74751 0.8315 0.96584 0.0
O55 O 0.20758 0.1625 0.55136 0.0
Cd56 Cd 0.24837 0.15411 0.47785 0.0
O57 O 0.24049 0.10737 0.58345 0.0
Cd58 Cd 0.27118 0.0877 0.51928 0.0
O59 O 0.23971 0.05096 0.4695 0.0
C60 C 0.21782 0.01991 0.48607 0.0
O61 O 0.21896 0.01079 0.52946 0.0
C62 C 0.21328 0.13871 0.5859 0.0
C63 C 0.31877 0.20894 0.45465 0.0
O64 O 0.27727 0.21824 0.44534 0.0
O65 O 0.3269 0.17442 0.47598 0.0
O66 O 0.25176 0.95858 0.93638 0.0
Cd67 Cd 0.30364 0.9208 0.9871 0.0
O68 O 0.21154 0.98031 0.99616 0.0
Cd69 Cd 0.24562 0.94257 0.04771 0.0
O70 O 0.23193 0.90911 0.11197 0.0
C71 C 0.18919 0.9068 0.12167 0.0
O72 O 0.16013 0.92195 0.09255 0.0
C73 C 0.21905 0.98054 0.95365 0.0
C74 C 0.3501 0.84986 0.95622 0.0
O75 O 0.31066 0.84709 0.97687 0.0
O76 O 0.36691 0.88601 0.94889 0.0
O77 O 0.82055 0.08229 0.48315 0.0
Cd78 Cd 0.77041 0.12677 0.53031 0.0
O79 O 0.80013 0.02517 0.52149 0.0
Cd80 Cd 0.76013 0.06031 0.57149 0.0
O81 O 0.78605 0.09759 0.62397 0.0
C82 C 0.82908 0.0918 0.6263 0.0
O83 O 0.8505 0.0661 0.59864 0.0
C84 C 0.82377 0.04304 0.48967 0.0
C85 C 0.71241 0.18235 0.4855 0.0
O86 O 0.70069 0.14472 0.49441 0.0
O87 O 0.7521 0.19342 0.49651 0.0
Fe88 Fe 0.01608 0.82344 0.33005 0.0
Fe89 Fe 0.01605 0.86628 0.42132 0.0
O90 O 0.0185 0.86936 0.3614 0.0
Fe91 Fe 0.0232 0.91856 0.33266 0.0
O92 O 0.96991 0.91213 0.30536 0.0
O93 O 0.98514 0.84857 0.28331 0.0
O94 O 0.9607 0.81018 0.35615 0.0
C95 C 0.95178 0.8065 0.39803 0.0
C96 C 0.08113 0.86582 0.27937 0.0
O97 O 0.97713 0.82215 0.42604 0.0
C98 C 0.08263 0.92774 0.3994 0.0
O99 O 0.04673 0.79013 0.37083 0.0
O100 O 0.06649 0.83246 0.42272 0.0
O101 O 0.05749 0.89885 0.28442 0.0
O102 O 0.0714 0.83289 0.30153 0.0
C103 C 0.96154 0.93532 0.40635 0.0
O104 O 0.05461 0.90995 0.42728 0.0
O105 O 0.07684 0.92852 0.3577 0.0
C106 C 0.07181 0.79885 0.40255 0.0
O107 O 0.96528 0.89968 0.42471 0.0
O108 O 0.9899 0.94766 0.37559 0.0
C109 C 0.96261 0.88263 0.28018 0.0
Fe110 Fe 0.02205 0.14842 0.88103 0.0
Fe111 Fe 0.02393 0.09874 0.79439 0.0
O112 O 0.02149 0.14721 0.82139 0.0
Fe113 Fe 0.01859 0.19428 0.78817 0.0
O114 O 0.07142 0.21229 0.80921 0.0
O115 O 0.05603 0.19607 0.881 0.0
O116 O 0.07603 0.11936 0.8824 0.0
C117 C 0.08383 0.08441 0.86575 0.0
C118 C 0.95999 0.21187 0.86504 0.0
O119 O 0.05864 0.07107 0.83636 0.0
C120 C 0.95996 0.14633 0.74534 0.0
O121 O 0.98751 0.1011 0.8909 0.0
O122 O 0.97106 0.0824 0.82292 0.0
O123 O 0.98356 0.22352 0.83017 0.0
O124 O 0.96847 0.17774 0.88523 0.0
C125 C 0.08168 0.14348 0.73773 0.0
O126 O 0.98912 0.11683 0.74763 0.0
O127 O 0.96528 0.17971 0.76495 0.0
C128 C 0.96316 0.08124 0.86496 0.0
O129 O 0.0771 0.11189 0.76372 0.0
O130 O 0.05336 0.17392 0.73994 0.0
C131 C 0.0787 0.21628 0.85028 0.0
Fe132 Fe 0.5382 0.33121 0.33204 0.0
Fe133 Fe 0.53301 0.37341 0.42376 0.0
O134 O 0.54057 0.37663 0.36402 0.0
Fe135 Fe 0.5503 0.42569 0.33633 0.0
O136 O 0.49926 0.42231 0.30479 0.0
O137 O 0.51153 0.35799 0.28357 0.0
O138 O 0.48073 0.31991 0.35434 0.0
C139 C 0.46898 0.31565 0.39559 0.0
C140 C 0.60803 0.37063 0.28524 0.0
O141 O 0.49277 0.33026 0.42551 0.0
C142 C 0.60372 0.43207 0.40806 0.0
O143 O 0.56487 0.2968 0.37465 0.0
O144 O 0.58175 0.33811 0.4288 0.0
O145 O 0.58682 0.40496 0.29008 0.0
O146 O 0.59546 0.33837 0.30706 0.0
C147 C 0.48324 0.44426 0.4047 0.0
O148 O 0.57213 0.41598 0.43324 0.0
O149 O 0.60219 0.43247 0.36581 0.0
C150 C 0.58781 0.30473 0.40828 0.0
O151 O 0.48348 0.40831 0.42275 0.0
O152 O 0.51528 0.45579 0.37726 0.0
C153 C 0.49188 0.39337 0.27891 0.0
Fe154 Fe 0.52265 0.64509 0.91635 0.0
Fe155 Fe 0.53227 0.60324 0.82472 0.0
O156 O 0.52923 0.64863 0.85672 0.0
Fe157 Fe 0.53372 0.69835 0.82875 0.0
O158 O 0.58636 0.70821 0.85661 0.0
O159 O 0.55867 0.69022 0.9242 0.0
O160 O 0.5744 0.6132 0.92128 0.0
C161 C 0.58433 0.58064 0.90031 0.0
C162 C 0.46817 0.71335 0.89974 0.0
O163 O 0.56335 0.57131 0.86602 0.0
C164 C 0.47499 0.65981 0.77636 0.0
O165 O 0.48572 0.59924 0.91853 0.0
O166 O 0.47733 0.58539 0.84735 0.0
O167 O 0.49884 0.72634 0.87157 0.0
O168 O 0.47033 0.67688 0.91642 0.0
C169 C 0.59455 0.64875 0.77459 0.0
O170 O 0.50082 0.6276 0.77817 0.0
O171 O 0.48147 0.69088 0.79978 0.0
C172 C 0.46492 0.58136 0.8884 0.0
O173 O 0.588 0.61684 0.79945 0.0
O174 O 0.56887 0.68057 0.77956 0.0
C175 C 0.58992 0.70686 0.899 0.0
C176 C 0.16835 0.27156 0.91359 0.0
C177 C 0.16695 0.31203 0.89269 0.0
C178 C 0.10611 0.29031 0.8453 0.0
C179 C 0.11061 0.24882 0.86309 0.0
N180 N 0.15512 0.19838 0.90555 0.0
N181 N 0.14337 0.35592 0.83001 0.0
C182 C 0.14457 0.23894 0.89459 0.0
C183 C 0.13859 0.32014 0.85582 0.0
N184 N 0.18992 0.26452 0.95306 0.0
N185 N 0.06945 0.30222 0.82058 0.0
H186 H 0.16799 0.37784 0.83559 0.0
H187 H 0.12653 0.36146 0.80016 0.0
H188 H 0.04328 0.28239 0.81373 0.0
H189 H 0.06241 0.33311 0.81104 0.0
H190 H 0.1877 0.23658 0.9718 0.0
H191 H 0.20592 0.28766 0.9697 0.0
H192 H 0.18267 0.18941 0.92501 0.0
H193 H 0.13963 0.17365 0.89108 0.0
C194 C 0.8434 0.76979 0.46236 0.0
C195 C 0.84447 0.72698 0.4525 0.0
C196 C 0.91705 0.7359 0.40851 0.0
C197 C 0.91398 0.77934 0.41519 0.0
N198 N 0.86946 0.83878 0.44059 0.0
N199 N 0.87674 0.67119 0.40797 0.0
C200 C 0.87575 0.79664 0.43989 0.0
C201 C 0.87976 0.71053 0.42327 0.0
N202 N 0.81275 0.78455 0.49454 0.0
N203 N 0.95624 0.71846 0.38962 0.0
H204 H 0.84945 0.65184 0.41701 0.0
H205 H 0.89887 0.65927 0.3828 0.0
H206 H 0.98435 0.73576 0.37806 0.0
H207 H 0.96243 0.68648 0.38896 0.0
H208 H 0.81364 0.81449 0.50656 0.0
H209 H 0.78901 0.76576 0.51232 0.0
H210 H 0.83987 0.85327 0.4541 0.0
H211 H 0.89188 0.85922 0.42354 0.0
C212 C 0.89741 0.27891 0.95252 0.0
C213 C 0.85971 0.2947 0.92827 0.0
C214 C 0.88565 0.25353 0.86347 0.0
C215 C 0.92573 0.24106 0.88616 0.0
N216 N 0.97413 0.24912 0.94885 0.0
N217 N 0.8215 0.30256 0.85822 0.0
C218 C 0.93285 0.2558 0.92973 0.0
C219 C 0.85475 0.28352 0.88302 0.0
N220 N 0.89846 0.28428 -0.00207 0.0
N221 N 0.87612 0.23556 0.82415 0.0
H222 H 0.7985 0.32485 0.87131 0.0
H223 H 0.81927 0.29903 0.82369 0.0
H224 H 0.89773 0.21339 0.80903 0.0
H225 H 0.84505 0.23988 0.80865 0.0
H226 H 0.92244 0.26938 0.01817 0.0
H227 H 0.87275 0.30022 0.01635 0.0
H228 H 0.98296 0.26326 0.9781 0.0
H229 H 1.00133 0.23281 0.93331 0.0
C230 C 0.18073 0.7327 0.41639 0.0
C231 C 0.16534 0.70361 0.45062 0.0
C232 C 0.08998 0.73931 0.45582 0.0
C233 C 0.10444 0.76682 0.41979 0.0
N234 N 0.16172 0.78953 0.36382 0.0
N235 N 0.10534 0.67735 0.50203 0.0
C236 C 0.14942 0.76356 0.39963 0.0
C237 C 0.1199 0.70636 0.46999 0.0
N238 N 0.22533 0.73078 0.40007 0.0
N239 N 0.04808 0.74559 0.47747 0.0
H240 H 0.12711 0.6552 0.51677 0.0
H241 H 0.07123 0.67381 0.51296 0.0
H242 H 0.02478 0.76868 0.46744 0.0
H243 H 0.03719 0.72999 0.5072 0.0
H244 H 0.24053 0.75352 0.37897 0.0
H245 H 0.24832 0.70699 0.40917 0.0
H246 H 0.1919 0.78633 0.34407 0.0
H247 H 0.14052 0.81376 0.3523 0.0
C248 C 0.64271 0.78707 0.97069 0.0
C249 C 0.67961 0.80019 0.94103 0.0
C250 C 0.66674 0.74179 0.89261 0.0
C251 C 0.62614 0.73231 0.91882 0.0
N252 N 0.59348 0.73073 0.99537 0.0
N253 N 0.72649 0.79121 0.87288 0.0
C254 C 0.61889 0.75054 0.96159 0.0
C255 C 0.69205 0.77746 0.90208 0.0
N256 N 0.63021 0.80952 0.00771 0.0
N257 N 0.68313 0.71443 0.86131 0.0
H258 H 0.74579 0.81712 0.87876 0.0
H259 H 0.73365 0.77897 0.84128 0.0
H260 H 0.6676 0.68607 0.85714 0.0
H261 H 0.71464 0.71717 0.84364 0.0
H262 H 0.59968 0.80503 0.0267 0.0
H263 H 0.6487 0.83452 0.0179 0.0
H264 H 0.58938 0.74138 0.02802 0.0
H265 H 0.58332 0.70013 0.99365 0.0
C266 C 0.35715 0.27811 0.45339 0.0
C267 C 0.3568 0.23653 0.43923 0.0
C268 C 0.43143 0.24596 0.3991 0.0
C269 C 0.42982 0.28867 0.40969 0.0
N270 N 0.38688 0.34717 0.43982 0.0
N271 N 0.38868 0.18354 0.39066 0.0
C272 C 0.39146 0.30526 0.43491 0.0
C273 C 0.39258 0.22117 0.40987 0.0
N274 N 0.3258 0.29127 0.4858 0.0
N275 N 0.4707 0.22845 0.38047 0.0
H276 H 0.36041 0.16465 0.39687 0.0
H277 H 0.41129 0.17291 0.36517 0.0
H278 H 0.50017 0.24516 0.37225 0.0
H279 H 0.47551 0.19653 0.37704 0.0
H280 H 0.32744 0.3198 0.501 0.0
H281 H 0.30049 0.27218 0.50057 0.0
H282 H 0.35737 0.36159 0.45359 0.0
H283 H 0.41087 0.36797 0.4261 0.0
C284 C 0.36463 0.78756 0.90834 0.0
C285 C 0.37741 0.81205 0.94429 0.0
C286 C 0.44328 0.765 0.95748 0.0
C287 C 0.43375 0.74364 0.91822 0.0
N288 N 0.3858 0.73296 0.85626 0.0
N289 N 0.42896 0.82547 0.00289 0.0
C290 C 0.39426 0.75427 0.89384 0.0
C291 C 0.4167 0.80104 0.96891 0.0
N292 N 0.3242 0.79623 0.88817 0.0
N293 N 0.47714 0.75015 0.9844 0.0
H294 H 0.40875 0.85037 0.01455 0.0
H295 H 0.46024 0.82257 0.01819 0.0
H296 H 0.4967 0.7235 0.97737 0.0
H297 H 0.48329 0.76173 0.01573 0.0
H298 H 0.31034 0.77735 0.86489 0.0
H299 H 0.30278 0.82146 0.89657 0.0
H300 H 0.36104 0.74182 0.83355 0.0
H301 H 0.40489 0.70663 0.84687 0.0
C302 C 0.69402 0.23617 0.42509 0.0
C303 C 0.6801 0.21283 0.46468 0.0
C304 C 0.60359 0.24589 0.4631 0.0
C305 C 0.61921 0.27245 0.42678 0.0
N306 N 0.68107 0.29746 0.37712 0.0
N307 N 0.62451 0.20171 0.52674 0.0
C308 C 0.66498 0.26893 0.40886 0.0
C309 C 0.63556 0.2192 0.48509 0.0
N310 N 0.73405 0.22591 0.40187 0.0
N311 N 0.55807 0.24566 0.47618 0.0
H312 H 0.64738 0.18327 0.54506 0.0
H313 H 0.59429 0.20892 0.54519 0.0
H314 H 0.53365 0.265 0.4611 0.0
H315 H 0.54396 0.2237 0.4991 0.0
H316 H 0.74365 0.23906 0.37037 0.0
H317 H 0.75562 0.20135 0.41193 0.0
H318 H 0.71549 0.29925 0.36645 0.0
H319 H 0.66066 0.32165 0.36417 0.0
C320 C 0.34901 0.53812 0.93021 0.0
C321 C 0.3566 0.49511 0.9229 0.0
C322 C 0.43626 0.50832 0.89723 0.0
C323 C 0.42785 0.55173 0.90153 0.0
N324 N 0.37466 0.60872 0.91584 0.0
N325 N 0.40463 0.4396 0.89349 0.0
C326 C 0.38377 0.56686 0.9164 0.0
C327 C 0.39949 0.48031 0.90477 0.0
N328 N 0.30908 0.55133 0.95169 0.0
N329 N 0.47981 0.49367 0.88742 0.0
H330 H 0.37859 0.41812 0.89892 0.0
H331 H 0.43318 0.42777 0.87541 0.0
H332 H 0.50752 0.51305 0.881 0.0
H333 H 0.48935 0.46232 0.8892 0.0
H334 H 0.30349 0.5814 0.96281 0.0
H335 H 0.2825 0.53136 0.96138 0.0
H336 H 0.34194 0.62174 0.92116 0.0
H337 H 0.39934 0.63064 0.90657 0.0
C338 C 0.66348 0.52105 0.45886 0.0
C339 C 0.70025 0.49946 0.47969 0.0
C340 C 0.67612 0.43379 0.45 0.0
C341 C 0.63973 0.45555 0.42876 0.0
N342 N 0.6056 0.52079 0.40327 0.0
N343 N 0.7473 0.43753 0.48866 0.0
C344 C 0.63573 0.49951 0.42993 0.0
C345 C 0.70826 0.4564 0.47336 0.0
N346 N 0.65318 0.56145 0.46892 0.0
N347 N 0.67966 0.39149 0.44804 0.0
H348 H 0.77159 0.45343 0.50557 0.0
H349 H 0.75763 0.4072 0.48165 0.0
H350 H 0.65917 0.37452 0.42802 0.0
H351 H 0.70163 0.37301 0.46726 0.0
H352 H 0.62338 0.57712 0.45932 0.0
H353 H 0.67232 0.57852 0.49015 0.0
H354 H 0.60477 0.55304 0.39902 0.0
H355 H 0.58401 0.50625 0.38218 0.0
C356 C 0.69804 0.5253 0.92387 0.0
C357 C 0.68244 0.49123 0.95166 0.0
C358 C 0.6031 0.51793 0.94871 0.0
C359 C 0.6183 0.55051 0.91865 0.0
N360 N 0.67867 0.58378 0.87365 0.0
N361 N 0.62012 0.45214 0.98723 0.0
C362 C 0.6654 0.55382 0.90511 0.0
C363 C 0.63491 0.48657 0.96288 0.0
N364 N 0.74409 0.5306 0.91598 0.0
N365 N 0.55852 0.51798 0.9652 0.0
H366 H 0.64219 0.42977 0.00114 0.0
H367 H 0.58582 0.44416 0.99146 0.0
H368 H 0.53421 0.54034 0.95554 0.0
H369 H 0.5462 0.498 0.99107 0.0
H370 H 0.75817 0.55712 0.90041 0.0
H371 H 0.76874 0.50912 0.92719 0.0
H372 H 0.71149 0.58533 0.8585 0.0
H373 H 0.65592 0.60605 0.86054 0.0
C374 C 0.36573 0.49416 0.42845 0.0
C375 C 0.37746 0.52876 0.45345 0.0
C376 C 0.45878 0.50828 0.44598 0.0
C377 C 0.44731 0.47466 0.41949 0.0
N378 N 0.39178 0.44117 0.37649 0.0
N379 N 0.43533 0.57492 0.47581 0.0
C380 C 0.40131 0.46934 0.40787 0.0
C381 C 0.42414 0.53776 0.45893 0.0
N382 N 0.32086 0.4836 0.42637 0.0
N383 N 0.50218 0.51093 0.46078 0.0
H384 H 0.41076 0.59762 0.48479 0.0
H385 H 0.4689 0.58497 0.47654 0.0
H386 H 0.52831 0.48943 0.45288 0.0
H387 H 0.51125 0.53223 0.48416 0.0
H388 H 0.3107 0.45591 0.41325 0.0
H389 H 0.29375 0.501 0.44081 0.0
H390 H 0.35961 0.43883 0.36324 0.0
H391 H 0.41704 0.42247 0.36078 0.0
C392 C 0.85527 0.04236 0.92911 0.0
C393 C 0.86069 0.99874 0.92447 0.0
C394 C 0.93284 0.0091 0.8799 0.0
C395 C 0.92724 0.05284 0.88429 0.0
N396 N 0.87794 0.11142 0.90308 0.0
N397 N 0.89966 0.94071 0.88914 0.0
C398 C 0.88696 0.06958 0.90612 0.0
C399 C 0.89778 0.9822 0.89757 0.0
N400 N 0.81996 0.05777 0.956 0.0
N401 N 0.97269 0.99305 0.86075 0.0
H402 H 0.87587 0.91972 0.90308 0.0
H403 H 0.92267 0.92739 0.86567 0.0
H404 H 0.99882 0.0114 0.8465 0.0
H405 H 0.98159 0.96155 0.86172 0.0
H406 H 0.81753 0.0885 0.96579 0.0
H407 H 0.79392 0.03926 0.97041 0.0
H408 H 0.84702 0.1253 0.91409 0.0
H409 H 0.89973 0.13206 0.8855 0.0
C410 C 0.14526 0.01796 0.44471 0.0
C411 C 0.18614 0.9976 0.45863 0.0
C412 C 0.16047 0.93161 0.43097 0.0
C413 C 0.11993 0.95218 0.4165 0.0
N414 N 0.07838 0.01621 0.39981 0.0
N415 N 0.23703 0.93764 0.45844 0.0
C416 C 0.11388 0.99581 0.42016 0.0
C417 C 0.19503 0.95509 0.44982 0.0
N418 N 0.1351 0.05776 0.45717 0.0
N419 N 0.16563 0.88957 0.427 0.0
H420 H 0.26302 0.9542 0.47202 0.0
H421 H 0.2476 0.90796 0.44905 0.0
H422 H 0.14269 0.87208 0.41023 0.0
H423 H 0.19146 0.87166 0.44164 0.0
H424 H 0.10323 0.07232 0.4532 0.0
H425 H 0.15721 0.07541 0.47477 0.0
H426 H 0.07509 0.04846 0.39703 0.0
H427 H 0.05415 1.0011 0.38216 0.0
C428 C 0.14 0.99239 0.92744 0.0
C429 C 0.18651 1.00414 0.92503 0.0
C430 C 0.16655 0.06529 0.87746 0.0
C431 C 0.11938 0.05634 0.88515 0.0
N432 N 0.06074 0.01498 0.92374 0.0
N433 N 0.24444 0.05326 0.90096 0.0
C434 C 0.10594 0.02068 0.91156 0.0
C435 C 0.20007 0.04084 0.90053 0.0
N436 N 0.1285 0.95378 0.94438 0.0
N437 N 0.17928 0.09659 0.84745 0.0
H438 H 0.26997 0.0357 0.91671 0.0
H439 H 0.25536 0.08209 0.88824 0.0
H440 H 0.15559 0.11518 0.83024 0.0
H441 H 0.21318 0.10206 0.8369 0.0
H442 H 0.09583 0.94181 0.94279 0.0
H443 H 0.15275 0.93204 0.95587 0.0
H444 H 0.04937 0.99198 0.9469 0.0
H445 H 0.0348 0.03572 0.9142 0.0
C446 C 0.90622 0.02388 0.47248 0.0
C447 C 0.8592 0.01848 0.46422 0.0
C448 C 0.88037 0.96224 0.41303 0.0
C449 C 0.92664 0.96491 0.42494 0.0
N450 N 0.9836 0.9947 0.46931 0.0
N451 N 0.80048 0.98147 0.42922 0.0
C452 C 0.93967 0.99504 0.45522 0.0
C453 C 0.84598 0.98735 0.43516 0.0
N454 N 0.91898 0.05633 0.49723 0.0
N455 N 0.86961 0.93651 0.37966 0.0
H456 H 0.77456 1.00097 0.44254 0.0
H457 H 0.78814 0.95618 0.41308 0.0
H458 H 0.89389 0.9174 0.36316 0.0
H459 H 0.8375 0.93613 0.36597 0.0
H460 H 0.95285 0.06507 0.49949 0.0
H461 H 0.89576 0.0766 0.51335 0.0
H462 H 0.99417 0.01236 0.49539 0.0
H463 H 1.00915 0.97429 0.45727 0.0
C464 C 0.40678 0.38263 0.18725 0.0
C465 C 0.41601 0.41871 0.1597 0.0
C466 C 0.47707 0.43654 0.20851 0.0
C467 C 0.46487 0.40278 0.23859 0.0
N468 N 0.41102 0.34951 0.26146 0.0
N469 N 0.45173 0.48552 0.15083 0.0
C470 C 0.42762 0.37746 0.2294 0.0
C471 C 0.44873 0.44733 0.17231 0.0
N472 N 0.37981 0.35236 0.17242 0.0
N473 N 0.51687 0.45717 0.21283 0.0
H474 H 0.43051 0.4953 0.12506 0.0
H475 H 0.47177 0.5091 0.1619 0.0
H476 H 0.53977 0.44988 0.23781 0.0
H477 H 0.52954 0.47879 0.18869 0.0
H478 H 0.37595 0.32355 0.18913 0.0
H479 H 0.36486 0.35429 0.14122 0.0
H480 H 0.38109 0.33316 0.2582 0.0
H481 H 0.42439 0.3459 0.2933 0.0
C482 C 0.69466 0.67028 0.68927 0.0
C483 C 0.68703 0.64041 0.65687 0.0
C484 C 0.62055 0.61465 0.70223 0.0
C485 C 0.62645 0.64612 0.73393 0.0
N486 N 0.6649 0.70804 0.75388 0.0
N487 N 0.63948 0.58833 0.62802 0.0
C488 C 0.66224 0.67524 0.72628 0.0
C489 C 0.64919 0.61367 0.66222 0.0
N490 N 0.73352 0.69321 0.68512 0.0
N491 N 0.58741 0.58561 0.70992 0.0
H492 H 0.6603 0.58541 0.59871 0.0
H493 H 0.60902 0.57237 0.62685 0.0
H494 H 0.56152 0.5874 0.73504 0.0
H495 H 0.58656 0.55827 0.69235 0.0
H496 H 0.74408 0.71221 0.71006 0.0
H497 H 0.75722 0.69087 0.65782 0.0
H498 H 0.68682 0.73275 0.74728 0.0
H499 H 0.64291 0.71231 0.782 0.0
C500 C 0.6673 0.35244 0.1708 0.0
C501 C 0.69994 0.38425 0.17034 0.0
C502 C 0.68321 0.39322 0.25106 0.0
C503 C 0.64431 0.36813 0.24883 0.0
N504 N 0.59814 0.32387 0.20617 0.0
N505 N 0.73903 0.43615 0.20983 0.0
C506 C 0.63649 0.34696 0.2089 0.0
C507 C 0.70874 0.40443 0.21065 0.0
N508 N 0.66602 0.32744 0.1347 0.0
N509 N 0.69554 0.40622 0.29195 0.0
H510 H 0.75864 0.44526 0.18109 0.0
H511 H 0.7426 0.45527 0.2369 0.0
H512 H 0.6777 0.39763 0.32202 0.0
H513 H 0.72578 0.42167 0.29654 0.0
H514 H 0.64591 0.30119 0.13456 0.0
H515 H 0.68871 0.33058 0.10657 0.0
H516 H 0.58758 0.3125 0.17608 0.0
H517 H 0.57516 0.31796 0.2334 0.0
C518 C 0.37463 0.6246 0.715 0.0
C519 C 0.38349 0.64384 0.67173 0.0
C520 C 0.4474 0.6814 0.70026 0.0
C521 C 0.43909 0.66143 0.74304 0.0
N522 N 0.38757 0.62474 0.79506 0.0
N523 N 0.4188 0.69892 0.62646 0.0
C524 C 0.40005 0.63672 0.75168 0.0
C525 C 0.41682 0.6751 0.66551 0.0
N526 N 0.34464 0.59268 0.72052 0.0
N527 N 0.48569 0.70457 0.6922 0.0
H528 H 0.39617 0.69538 0.60079 0.0
H529 H 0.43961 0.72462 0.62134 0.0
H530 H 0.50789 0.71104 0.71736 0.0
H531 H 0.49677 0.71555 0.6602 0.0
H532 H 0.34118 0.5743 0.75001 0.0
H533 H 0.32549 0.58229 0.69467 0.0
H534 H 0.35715 0.60975 0.80422 0.0
H535 H 0.40557 0.63376 0.82242 0.0
C536 C 0.91314 0.9301 0.17314 0.0
C537 C 0.88144 0.89948 0.16352 0.0
C538 C 0.8956 0.86341 0.23578 0.0
C539 C 0.93263 0.89018 0.24163 0.0
N540 N 0.98102 0.94575 0.21155 0.0
N541 N 0.8439 0.8352 0.18373 0.0
C542 C 0.9424 0.92291 0.20939 0.0
C543 C 0.87269 0.86574 0.19448 0.0
N544 N 0.91456 0.96665 0.14822 0.0
N545 N 0.88146 0.83673 0.2702 0.0
H546 H 0.82603 0.83633 0.15412 0.0
H547 H 0.84018 0.80747 0.20257 0.0
H548 H 0.8966 0.83524 0.3013 0.0
H549 H 0.85204 0.81918 0.2696 0.0
H550 H 0.93362 0.99189 0.15675 0.0
H551 H 0.8929 0.97347 0.12188 0.0
H552 H 0.99242 0.96628 0.18571 0.0
H553 H 1.0042 0.94174 0.23689 0.0
C554 C 0.13794 0.12004 0.62282 0.0
C555 C 0.17999 0.14094 0.62493 0.0
C556 C 0.15814 0.16295 0.70147 0.0
C557 C 0.11605 0.142 0.69932 0.0
N558 N 0.06849 0.09528 0.66159 0.0
N559 N 0.22949 0.1852 0.66289 0.0
C560 C 0.10662 0.11917 0.66093 0.0
C561 C 0.19003 0.16315 0.66344 0.0
N562 N 0.1274 0.10203 0.58365 0.0
N563 N 0.16826 0.18096 0.74069 0.0
H564 H 0.25353 0.18524 0.63571 0.0
H565 H 0.23775 0.20509 0.68791 0.0
H566 H 0.14601 0.18063 0.76921 0.0
H567 H 0.19952 0.19408 0.74641 0.0
H568 H 0.09517 0.09111 0.57744 0.0
H569 H 0.15009 0.10027 0.55554 0.0
H570 H 0.06221 0.07392 0.63734 0.0
H571 H 0.0442 0.09428 0.68831 0.0
C572 C 0.18023 0.90519 0.20659 0.0
C573 C 0.17115 0.88765 0.16483 0.0
C574 C 0.10912 0.84698 0.2014 0.0
C575 C 0.11718 0.8656 0.24272 0.0
N576 N 0.16835 0.90131 0.28814 0.0
N577 N 0.13767 0.8329 0.12529 0.0
C578 C 0.15564 0.89092 0.24642 0.0
C579 C 0.1391 0.85545 0.16327 0.0
N580 N 0.20971 0.93737 0.2079 0.0
N581 N 0.07136 0.82331 0.19777 0.0
H582 H 0.15989 0.8381 0.09715 0.0
H583 H 0.11794 0.80658 0.12336 0.0
H584 H 0.04938 0.81522 0.22519 0.0
H585 H 0.06041 0.81355 0.16712 0.0
H586 H 0.21332 0.95457 0.23647 0.0
H587 H 0.22844 0.94892 0.17964 0.0
H588 H 0.19835 0.91682 0.29359 0.0
H589 H 0.15115 0.89043 0.31771 0.0
C590 C 0.84879 0.10812 0.70521 0.0
C591 C 0.85606 0.11452 0.65787 0.0
C592 C 0.92816 0.14927 0.66872 0.0
C593 C 0.92131 0.14218 0.71587 0.0
N594 N 0.87115 0.12466 0.78008 0.0
N595 N 0.89495 0.15085 0.59539 0.0
C596 C 0.88002 0.1251 0.73445 0.0
C597 C 0.89337 0.13829 0.63991 0.0
N598 N 0.81413 0.08343 0.72209 0.0
N599 N 0.96864 0.16501 0.65145 0.0
H600 H 0.86931 0.14401 0.57372 0.0
H601 H 0.91907 0.17125 0.581 0.0
H602 H 0.99387 0.17534 0.67176 0.0
H603 H 0.97823 0.16586 0.61721 0.0
H604 H 0.8105 0.07349 0.75579 0.0
H605 H 0.79046 0.07042 0.70192 0.0
H606 H 0.83989 0.11619 0.79563 0.0
H607 H 0.89388 0.13635 0.80222 0.0
loop_
_geom_bond_atom_site_label_1
_geom_bond_atom_site_label_2
_geom_bond_distance
_geom_bond_site_symmetry_2
_ccdc_geom_bond_type
O0 Cd1 2.300 . S
O0 C7 1.275 . S
Cd1 O0 2.300 . S
Cd1 O9 2.381 . S
Cd1 O10 2.378 . S
O2 Cd3 2.385 1_556 S
O2 C7 1.255 . S
Cd3 O2 2.385 1_554 S
Cd3 O4 2.317 . S
O4 Cd3 2.317 . S
O4 C5 1.232 . S
C5 O4 1.232 . S
C5 O6 1.218 . S
O6 C5 1.218 . S
C7 O0 1.275 . S
C7 O2 1.255 . S
C8 O9 1.258 . S
C8 O10 1.256 . S
O9 Cd1 2.381 . S
O9 C8 1.258 . S
O10 Cd1 2.378 . S
O10 C8 1.256 . S
O11 Cd12 2.300 . S
O11 C18 1.275 . S
Cd12 O11 2.300 . S
Cd12 O20 2.381 . S
Cd12 O21 2.378 . S
O13 Cd14 2.385 . S
O13 C18 1.255 . S
Cd14 O13 2.385 . S
Cd14 O15 2.317 . S
O15 Cd14 2.317 . S
O15 C16 1.232 . S
C16 O15 1.232 . S
C16 O17 1.218 . S
O17 C16 1.218 . S
C18 O11 1.275 . S
C18 O13 1.255 . S
C19 O20 1.258 . S
C19 O21 1.256 . S
O20 Cd12 2.381 . S
O20 C19 1.258 . S
O21 Cd12 2.378 . S
O21 C19 1.256 . S
O22 Cd23 2.300 . S
O22 C29 1.275 . S
Cd23 O22 2.300 . S
Cd23 O31 2.381 . S
Cd23 O32 2.378 . S
O24 Cd25 2.385 . S
O24 C29 1.255 1_554 S
Cd25 O24 2.385 . S
Cd25 O26 2.317 . S
O26 Cd25 2.317 . S
O26 C27 1.232 . S
C27 O26 1.232 . S
C27 O28 1.218 . S
O28 C27 1.218 . S
C29 O22 1.275 . S
C29 O24 1.255 1_556 S
C30 O31 1.258 . S
C30 O32 1.256 . S
O31 Cd23 2.381 . S
O31 C30 1.258 . S
O32 Cd23 2.378 . S
O32 C30 1.256 . S
O33 Cd34 2.300 . S
O33 C40 1.275 . S
Cd34 O33 2.300 . S
Cd34 O42 2.381 . S
Cd34 O43 2.378 . S
O35 Cd36 2.385 . S
O35 C40 1.255 . S
Cd36 O35 2.385 . S
Cd36 O37 2.317 . S
O37 Cd36 2.317 . S
O37 C38 1.232 . S
C38 O37 1.232 . S
C38 O39 1.218 . S
O39 C38 1.218 . S
C40 O33 1.275 . S
C40 O35 1.255 . S
C41 O42 1.258 . S
C41 O43 1.256 . S
O42 Cd34 2.381 . S
O42 C41 1.258 . S
O43 Cd34 2.378 . S
O43 C41 1.256 . S
O44 Cd45 2.300 . S
O44 C51 1.275 . S
Cd45 O44 2.300 . S
Cd45 O53 2.381 . S
Cd45 O54 2.378 . S
O46 Cd47 2.385 1_556 S
O46 C51 1.255 . S
Cd47 O46 2.385 1_554 S
Cd47 O48 2.317 . S
O48 Cd47 2.317 . S
O48 C49 1.232 . S
C49 O48 1.232 . S
C49 O50 1.218 . S
O50 C49 1.218 . S
C51 O44 1.275 . S
C51 O46 1.255 . S
C52 O53 1.258 . S
C52 O54 1.256 . S
O53 Cd45 2.381 . S
O53 C52 1.258 . S
O54 Cd45 2.378 . S
O54 C52 1.256 . S
O55 Cd56 2.300 . S
O55 C62 1.275 . S
Cd56 O55 2.300 . S
Cd56 O64 2.381 . S
Cd56 O65 2.378 . S
O57 Cd58 2.385 . S
O57 C62 1.255 . S
Cd58 O57 2.385 . S
Cd58 O59 2.317 . S
O59 Cd58 2.317 . S
O59 C60 1.232 . S
C60 O59 1.232 . S
C60 O61 1.218 1_545 S
O61 C60 1.218 1_565 S
C62 O55 1.275 . S
C62 O57 1.255 . S
C63 O64 1.258 . S
C63 O65 1.256 . S
O64 Cd56 2.381 . S
O64 C63 1.258 . S
O65 Cd56 2.378 . S
O65 C63 1.256 . S
O66 Cd67 2.300 . S
O66 C73 1.275 . S
Cd67 O66 2.300 . S
Cd67 O75 2.381 . S
Cd67 O76 2.378 . S
O68 Cd69 2.385 . S
O68 C73 1.255 1_554 S
Cd69 O68 2.385 . S
Cd69 O70 2.317 . S
O70 Cd69 2.317 . S
O70 C71 1.232 . S
C71 O70 1.232 . S
C71 O72 1.218 . S
O72 C71 1.218 . S
C73 O66 1.275 . S
C73 O68 1.255 1_556 S
C74 O75 1.258 . S
C74 O76 1.256 . S
O75 Cd67 2.381 . S
O75 C74 1.258 . S
O76 Cd67 2.378 . S
O76 C74 1.256 . S
O77 Cd78 2.300 . S
O77 C84 1.275 . S
Cd78 O77 2.300 . S
Cd78 O86 2.381 . S
Cd78 O87 2.378 . S
O79 Cd80 2.385 . S
O79 C84 1.255 . S
Cd80 O79 2.385 . S
Cd80 O81 2.317 . S
O81 Cd80 2.317 . S
O81 C82 1.232 . S
C82 O81 1.232 . S
C82 O83 1.218 . S
O83 C82 1.218 . S
C84 O77 1.275 . S
C84 O79 1.255 . S
C85 O86 1.258 . S
C85 O87 1.256 . S
O86 Cd78 2.381 . S
O86 C85 1.258 . S
O87 Cd78 2.378 . S
O87 C85 1.256 . S
Fe88 O90 1.918 . S
Fe88 O93 1.997 1_455 S
Fe88 O94 2.002 1_455 S
Fe88 O99 1.976 . S
Fe88 O102 1.996 . S
Fe89 O90 1.918 . S
Fe89 O97 1.997 1_455 S
Fe89 O100 1.996 . S
Fe89 O104 1.976 . S
Fe89 O107 2.002 1_455 S
O90 Fe88 1.918 . S
O90 Fe89 1.918 . S
O90 Fe91 1.918 . S
Fe91 O90 1.918 . S
Fe91 O92 2.002 1_455 S
Fe91 O101 1.976 . S
Fe91 O105 1.996 . S
Fe91 O108 1.997 1_455 S
O92 Fe91 2.002 1_655 S
O92 C109 1.295 . S
O93 Fe88 1.997 1_655 S
O93 C109 1.235 . S
O94 Fe88 2.002 1_655 S
O94 C95 1.295 . S
C95 O94 1.295 . S
C95 O97 1.235 . S
C96 O101 1.287 . S
C96 O102 1.255 . S
O97 Fe89 1.997 1_655 S
O97 C95 1.235 . S
C98 O104 1.287 . S
C98 O105 1.255 . S
O99 Fe88 1.976 . S
O99 C106 1.287 . S
O100 Fe89 1.996 . S
O100 C106 1.255 . S
O101 Fe91 1.976 . S
O101 C96 1.287 . S
O102 Fe88 1.996 . S
O102 C96 1.255 . S
C103 O107 1.295 . S
C103 O108 1.235 . S
O104 Fe89 1.976 . S
O104 C98 1.287 . S
O105 Fe91 1.996 . S
O105 C98 1.255 . S
C106 O99 1.287 . S
C106 O100 1.255 . S
O107 Fe89 2.002 1_655 S
O107 C103 1.295 . S
O108 Fe91 1.997 1_655 S
O108 C103 1.235 . S
C109 O92 1.295 . S
C109 O93 1.235 . S
Fe110 O112 1.918 . S
Fe110 O115 1.997 . S
Fe110 O116 2.002 . S
Fe110 O121 1.976 1_455 S
Fe110 O124 1.996 1_455 S
Fe111 O112 1.918 . S
Fe111 O119 1.997 . S
Fe111 O122 1.996 1_455 S
Fe111 O126 1.976 1_455 S
Fe111 O129 2.002 . S
O112 Fe110 1.918 . S
O112 Fe111 1.918 . S
O112 Fe113 1.918 . S
Fe113 O112 1.918 . S
Fe113 O114 2.002 . S
Fe113 O123 1.976 1_455 S
Fe113 O127 1.996 1_455 S
Fe113 O130 1.997 . S
O114 Fe113 2.002 . S
O114 C131 1.295 . S
O115 Fe110 1.997 . S
O115 C131 1.235 . S
O116 Fe110 2.002 . S
O116 C117 1.295 . S
C117 O116 1.295 . S
C117 O119 1.235 . S
C118 O123 1.287 . S
C118 O124 1.255 . S
O119 Fe111 1.997 . S
O119 C117 1.235 . S
C120 O126 1.287 . S
C120 O127 1.255 . S
O121 Fe110 1.976 1_655 S
O121 C128 1.287 . S
O122 Fe111 1.996 1_655 S
O122 C128 1.255 . S
O123 Fe113 1.976 1_655 S
O123 C118 1.287 . S
O124 Fe110 1.996 1_655 S
O124 C118 1.255 . S
C125 O129 1.295 . S
C125 O130 1.235 . S
O126 Fe111 1.976 1_655 S
O126 C120 1.287 . S
O127 Fe113 1.996 1_655 S
O127 C120 1.255 . S
C128 O121 1.287 . S
C128 O122 1.255 . S
O129 Fe111 2.002 . S
O129 C125 1.295 . S
O130 Fe113 1.997 . S
O130 C125 1.235 . S
C131 O114 1.295 . S
C131 O115 1.235 . S
Fe132 O134 1.918 . S
Fe132 O137 1.997 . S
Fe132 O138 2.002 . S
Fe132 O143 1.976 . S
Fe132 O146 1.996 . S
Fe133 O134 1.918 . S
Fe133 O141 1.997 . S
Fe133 O144 1.996 . S
Fe133 O148 1.976 . S
Fe133 O151 2.002 . S
O134 Fe132 1.918 . S
O134 Fe133 1.918 . S
O134 Fe135 1.918 . S
Fe135 O134 1.918 . S
Fe135 O136 2.002 . S
Fe135 O145 1.976 . S
Fe135 O149 1.996 . S
Fe135 O152 1.997 . S
O136 Fe135 2.002 . S
O136 C153 1.295 . S
O137 Fe132 1.997 . S
O137 C153 1.235 . S
O138 Fe132 2.002 . S
O138 C139 1.295 . S
C139 O138 1.295 . S
C139 O141 1.235 . S
C140 O145 1.287 . S
C140 O146 1.255 . S
O141 Fe133 1.997 . S
O141 C139 1.235 . S
C142 O148 1.287 . S
C142 O149 1.255 . S
O143 Fe132 1.976 . S
O143 C150 1.287 . S
O144 Fe133 1.996 . S
O144 C150 1.255 . S
O145 Fe135 1.976 . S
O145 C140 1.287 . S
O146 Fe132 1.996 . S
O146 C140 1.255 . S
C147 O151 1.295 . S
C147 O152 1.235 . S
O148 Fe133 1.976 . S
O148 C142 1.287 . S
O149 Fe135 1.996 . S
O149 C142 1.255 . S
C150 O143 1.287 . S
C150 O144 1.255 . S
O151 Fe133 2.002 . S
O151 C147 1.295 . S
O152 Fe135 1.997 . S
O152 C147 1.235 . S
C153 O136 1.295 . S
C153 O137 1.235 . S
Fe154 O156 1.918 . S
Fe154 O159 1.997 . S
Fe154 O160 2.002 . S
Fe154 O165 1.976 . S
Fe154 O168 1.996 . S
Fe155 O156 1.918 . S
Fe155 O163 1.997 . S
Fe155 O166 1.996 . S
Fe155 O170 1.976 . S
Fe155 O173 2.002 . S
O156 Fe154 1.918 . S
O156 Fe155 1.918 . S
O156 Fe157 1.918 . S
Fe157 O156 1.918 . S
Fe157 O158 2.002 . S
Fe157 O167 1.976 . S
Fe157 O171 1.996 . S
Fe157 O174 1.997 . S
O158 Fe157 2.002 . S
O158 C175 1.295 . S
O159 Fe154 1.997 . S
O159 C175 1.235 . S
O160 Fe154 2.002 . S
O160 C161 1.295 . S
C161 O160 1.295 . S
C161 O163 1.235 . S
C162 O167 1.287 . S
C162 O168 1.255 . S
O163 Fe155 1.997 . S
O163 C161 1.235 . S
C164 O170 1.287 . S
C164 O171 1.255 . S
O165 Fe154 1.976 . S
O165 C172 1.287 . S
O166 Fe155 1.996 . S
O166 C172 1.255 . S
O167 Fe157 1.976 . S
O167 C162 1.287 . S
O168 Fe154 1.996 . S
O168 C162 1.255 . S
C169 O173 1.295 . S
C169 O174 1.235 . S
O170 Fe155 1.976 . S
O170 C164 1.287 . S
O171 Fe157 1.996 . S
O171 C164 1.255 . S
C172 O165 1.287 . S
C172 O166 1.255 . S
O173 Fe155 2.002 . S
O173 C169 1.295 . S
O174 Fe157 1.997 . S
O174 C169 1.235 . S
C175 O158 1.295 . S
C175 O159 1.235 . S
C176 C177 1.363 . S
C176 C182 1.379 . S
C176 N184 1.356 . S
C177 C176 1.363 . S
C177 C183 1.363 . S
C178 C179 1.363 . S
C178 C183 1.379 . S
C178 N185 1.356 . S
C179 C178 1.363 . S
C179 C182 1.363 . S
N180 C182 1.356 . S
N180 H192 0.984 . S
N180 H193 0.985 . S
N181 C183 1.356 . S
N181 H186 0.984 . S
N181 H187 0.985 . S
C182 C176 1.379 . S
C182 C179 1.363 . S
C182 N180 1.356 . S
C183 C177 1.363 . S
C183 C178 1.379 . S
C183 N181 1.356 . S
N184 C176 1.356 . S
N184 H190 0.978 1_556 S
N184 H191 0.984 . S
N185 C178 1.356 . S
N185 H188 0.984 . S
N185 H189 0.985 . S
H186 N181 0.984 . S
H187 N181 0.985 . S
H188 N185 0.984 . S
H189 N185 0.985 . S
H190 N184 0.978 1_554 S
H191 N184 0.984 . S
H192 N180 0.984 . S
H193 N180 0.985 . S
C194 C195 1.363 . S
C194 C200 1.379 . S
C194 N202 1.356 . S
C195 C194 1.363 . S
C195 C201 1.363 . S
C196 C197 1.363 . S
C196 C201 1.379 . S
C196 N203 1.356 . S
C197 C196 1.363 . S
C197 C200 1.363 . S
N198 C200 1.356 . S
N198 H210 0.984 . S
N198 H211 0.985 . S
N199 C201 1.356 . S
N199 H204 0.984 . S
N199 H205 0.985 . S
C200 C194 1.379 . S
C200 C197 1.363 . S
C200 N198 1.356 . S
C201 C195 1.363 . S
C201 C196 1.379 . S
C201 N199 1.356 . S
N202 C194 1.356 . S
N202 H208 0.984 . S
N202 H209 0.984 . S
N203 C196 1.356 . S
N203 H206 0.984 . S
N203 H207 0.985 . S
H204 N199 0.984 . S
H205 N199 0.985 . S
H206 N203 0.984 . S
H207 N203 0.985 . S
H208 N202 0.984 . S
H209 N202 0.984 . S
H210 N198 0.984 . S
H211 N198 0.985 . S
C212 C213 1.363 . S
C212 C218 1.379 . S
C212 N220 1.356 . S
C213 C212 1.363 . S
C213 C219 1.363 . S
C214 C215 1.363 . S
C214 C219 1.379 . S
C214 N221 1.356 . S
C215 C214 1.363 . S
C215 C218 1.363 . S
N216 C218 1.356 . S
N216 H228 0.984 . S
N216 H229 0.985 . S
N217 C219 1.356 . S
N217 H222 0.984 . S
N217 H223 0.985 . S
C218 C212 1.379 . S
C218 C215 1.363 . S
C218 N216 1.356 . S
C219 C213 1.363 . S
C219 C214 1.379 . S
C219 N217 1.356 . S
N220 C212 1.356 . S
N220 H226 0.984 1_556 S
N220 H227 0.984 . S
N221 C214 1.356 . S
N221 H224 0.984 . S
N221 H225 0.985 . S
H222 N217 0.984 . S
H223 N217 0.985 . S
H224 N221 0.984 . S
H225 N221 0.985 . S
H226 N220 0.984 1_554 S
H227 N220 0.984 . S
H228 N216 0.984 . S
H229 N216 0.985 . S
C230 C231 1.363 . S
C230 C236 1.379 . S
C230 N238 1.356 . S
C231 C230 1.363 . S
C231 C237 1.363 . S
C232 C233 1.363 . S
C232 C237 1.379 . S
C232 N239 1.356 . S
C233 C232 1.363 . S
C233 C236 1.363 . S
N234 C236 1.356 . S
N234 H246 0.984 . S
N234 H247 0.985 . S
N235 C237 1.356 . S
N235 H240 0.984 . S
N235 H241 0.985 . S
C236 C230 1.379 . S
C236 C233 1.363 . S
C236 N234 1.356 . S
C237 C231 1.363 . S
C237 C232 1.379 . S
C237 N235 1.356 . S
N238 C230 1.356 . S
N238 H244 0.984 . S
N238 H245 0.984 . S
N239 C232 1.356 . S
N239 H242 0.984 . S
N239 H243 0.985 . S
H240 N235 0.984 . S
H241 N235 0.985 . S
H242 N239 0.984 . S
H243 N239 0.985 . S
H244 N238 0.984 . S
H245 N238 0.984 . S
H246 N234 0.984 . S
H247 N234 0.985 . S
C248 C249 1.363 . S
C248 C254 1.379 . S
C248 N256 1.356 . S
C249 C248 1.363 . S
C249 C255 1.363 . S
C250 C251 1.363 . S
C250 C255 1.379 . S
C250 N257 1.356 . S
C251 C250 1.363 . S
C251 C254 1.363 . S
N252 C254 1.356 . S
N252 H264 0.984 . S
N252 H265 0.985 . S
N253 C255 1.356 . S
N253 H258 0.984 . S
N253 H259 0.985 . S
C254 C248 1.379 . S
C254 C251 1.363 . S
C254 N252 1.356 . S
C255 C249 1.363 . S
C255 C250 1.379 . S
C255 N253 1.356 . S
N256 C248 1.356 . S
N256 H262 0.984 1_556 S
N256 H263 0.984 . S
N257 C250 1.356 . S
N257 H260 0.984 . S
N257 H261 0.985 . S
H258 N253 0.984 . S
H259 N253 0.985 . S
H260 N257 0.984 . S
H261 N257 0.985 . S
H262 N256 0.984 1_554 S
H263 N256 0.984 . S
H264 N252 0.984 . S
H265 N252 0.985 . S
C266 C267 1.363 . S
C266 C272 1.379 . S
C266 N274 1.356 . S
C267 C266 1.363 . S
C267 C273 1.363 . S
C268 C269 1.363 . S
C268 C273 1.379 . S
C268 N275 1.356 . S
C269 C268 1.363 . S
C269 C272 1.363 . S
N270 C272 1.356 . S
N270 H282 0.984 . S
N270 H283 0.985 . S
N271 C273 1.356 . S
N271 H276 0.984 . S
N271 H277 0.985 . S
C272 C266 1.379 . S
C272 C269 1.363 . S
C272 N270 1.356 . S
C273 C267 1.363 . S
C273 C268 1.379 . S
C273 N271 1.356 . S
N274 C266 1.356 . S
N274 H280 0.984 . S
N274 H281 0.984 . S
N275 C268 1.356 . S
N275 H278 0.984 . S
N275 H279 0.985 . S
H276 N271 0.984 . S
H277 N271 0.985 . S
H278 N275 0.984 . S
H279 N275 0.985 . S
H280 N274 0.984 . S
H281 N274 0.984 . S
H282 N270 0.984 . S
H283 N270 0.985 . S
C284 C285 1.363 . S
C284 C290 1.379 . S
C284 N292 1.356 . S
C285 C284 1.363 . S
C285 C291 1.363 . S
C286 C287 1.363 . S
C286 C291 1.379 . S
C286 N293 1.356 . S
C287 C286 1.363 . S
C287 C290 1.363 . S
N288 C290 1.356 . S
N288 H300 0.984 . S
N288 H301 0.985 . S
N289 C291 1.356 . S
N289 H294 0.986 . S
N289 H295 0.985 1_556 S
C290 C284 1.379 . S
C290 C287 1.363 . S
C290 N288 1.356 . S
C291 C285 1.363 . S
C291 C286 1.379 . S
C291 N289 1.356 . S
N292 C284 1.356 . S
N292 H298 0.984 . S
N292 H299 0.984 . S
N293 C286 1.356 . S
N293 H296 0.984 . S
N293 H297 0.985 . S
H294 N289 0.986 . S
H295 N289 0.985 1_554 S
H296 N293 0.984 . S
H297 N293 0.985 . S
H298 N292 0.984 . S
H299 N292 0.984 . S
H300 N288 0.984 . S
H301 N288 0.985 . S
C302 C303 1.363 . S
C302 C308 1.379 . S
C302 N310 1.356 . S
C303 C302 1.363 . S
C303 C309 1.363 . S
C304 C305 1.363 . S
C304 C309 1.379 . S
C304 N311 1.356 . S
C305 C304 1.363 . S
C305 C308 1.363 . S
N306 C308 1.356 . S
N306 H318 0.984 . S
N306 H319 0.985 . S
N307 C309 1.356 . S
N307 H312 0.984 . S
N307 H313 0.985 . S
C308 C302 1.379 . S
C308 C305 1.363 . S
C308 N306 1.356 . S
C309 C303 1.363 . S
C309 C304 1.379 . S
C309 N307 1.356 . S
N310 C302 1.356 . S
N310 H316 0.984 . S
N310 H317 0.984 . S
N311 C304 1.356 . S
N311 H314 0.984 . S
N311 H315 0.985 . S
H312 N307 0.984 . S
H313 N307 0.985 . S
H314 N311 0.984 . S
H315 N311 0.985 . S
H316 N310 0.984 . S
H317 N310 0.984 . S
H318 N306 0.984 . S
H319 N306 0.985 . S
C320 C321 1.363 . S
C320 C326 1.379 . S
C320 N328 1.356 . S
C321 C320 1.363 . S
C321 C327 1.363 . S
C322 C323 1.363 . S
C322 C327 1.379 . S
C322 N329 1.356 . S
C323 C322 1.363 . S
C323 C326 1.363 . S
N324 C326 1.356 . S
N324 H336 0.984 . S
N324 H337 0.985 . S
N325 C327 1.356 . S
N325 H330 0.984 . S
N325 H331 0.985 . S
C326 C320 1.379 . S
C326 C323 1.363 . S
C326 N324 1.356 . S
C327 C321 1.363 . S
C327 C322 1.379 . S
C327 N325 1.356 . S
N328 C320 1.356 . S
N328 H334 0.984 . S
N328 H335 0.984 . S
N329 C322 1.356 . S
N329 H332 0.984 . S
N329 H333 0.985 . S
H330 N325 0.984 . S
H331 N325 0.985 . S
H332 N329 0.984 . S
H333 N329 0.985 . S
H334 N328 0.984 . S
H335 N328 0.984 . S
H336 N324 0.984 . S
H337 N324 0.985 . S
C338 C339 1.363 . S
C338 C344 1.379 . S
C338 N346 1.356 . S
C339 C338 1.363 . S
C339 C345 1.363 . S
C340 C341 1.363 . S
C340 C345 1.379 . S
C340 N347 1.356 . S
C341 C340 1.363 . S
C341 C344 1.363 . S
N342 C344 1.356 . S
N342 H354 0.984 . S
N342 H355 0.985 . S
N343 C345 1.356 . S
N343 H348 0.984 . S
N343 H349 0.985 . S
C344 C338 1.379 . S
C344 C341 1.363 . S
C344 N342 1.356 . S
C345 C339 1.363 . S
C345 C340 1.379 . S
C345 N343 1.356 . S
N346 C338 1.356 . S
N346 H352 0.984 . S
N346 H353 0.984 . S
N347 C340 1.356 . S
N347 H350 0.984 . S
N347 H351 0.985 . S
H348 N343 0.984 . S
H349 N343 0.985 . S
H350 N347 0.984 . S
H351 N347 0.985 . S
H352 N346 0.984 . S
H353 N346 0.984 . S
H354 N342 0.984 . S
H355 N342 0.985 . S
C356 C357 1.363 . S
C356 C362 1.379 . S
C356 N364 1.356 . S
C357 C356 1.363 . S
C357 C363 1.363 . S
C358 C359 1.363 . S
C358 C363 1.379 . S
C358 N365 1.356 . S
C359 C358 1.363 . S
C359 C362 1.363 . S
N360 C362 1.356 . S
N360 H372 0.984 . S
N360 H373 0.985 . S
N361 C363 1.356 1_554 S
N361 H366 0.984 . S
N361 H367 0.985 . S
C362 C356 1.379 . S
C362 C359 1.363 . S
C362 N360 1.356 . S
C363 C357 1.363 . S
C363 C358 1.379 . S
C363 N361 1.356 1_556 S
N364 C356 1.356 . S
N364 H370 0.984 . S
N364 H371 0.984 . S
N365 C358 1.356 . S
N365 H368 0.984 . S
N365 H369 0.985 . S
H366 N361 0.984 . S
H367 N361 0.985 . S
H368 N365 0.984 . S
H369 N365 0.985 . S
H370 N364 0.984 . S
H371 N364 0.984 . S
H372 N360 0.984 . S
H373 N360 0.985 . S
C374 C375 1.363 . S
C374 C380 1.379 . S
C374 N382 1.356 . S
C375 C374 1.363 . S
C375 C381 1.363 . S
C376 C377 1.363 . S
C376 C381 1.379 . S
C376 N383 1.356 . S
C377 C376 1.363 . S
C377 C380 1.363 . S
N378 C380 1.356 . S
N378 H390 0.984 . S
N378 H391 0.985 . S
N379 C381 1.356 . S
N379 H384 0.984 . S
N379 H385 0.985 . S
C380 C374 1.379 . S
C380 C377 1.363 . S
C380 N378 1.356 . S
C381 C375 1.363 . S
C381 C376 1.379 . S
C381 N379 1.356 . S
N382 C374 1.356 . S
N382 H388 0.984 . S
N382 H389 0.984 . S
N383 C376 1.356 . S
N383 H386 0.984 . S
N383 H387 0.985 . S
H384 N379 0.984 . S
H385 N379 0.985 . S
H386 N383 0.984 . S
H387 N383 0.985 . S
H388 N382 0.984 . S
H389 N382 0.984 . S
H390 N378 0.984 . S
H391 N378 0.985 . S
C392 C393 1.363 1_545 S
C392 C398 1.379 . S
C392 N400 1.356 1_556 S
C393 C392 1.363 1_565 S
C393 C399 1.363 . S
C394 C395 1.363 1_565 S
C394 C399 1.379 . S
C394 N401 1.356 . S
C395 C394 1.363 1_545 S
C395 C398 1.363 . S
N396 C398 1.356 . S
N396 H408 0.984 . S
N396 H409 0.985 . S
N397 C399 1.356 . S
N397 H402 0.984 . S
N397 H403 0.985 . S
C398 C392 1.379 . S
C398 C395 1.363 . S
C398 N396 1.356 . S
C399 C393 1.363 . S
C399 C394 1.379 . S
C399 N397 1.356 . S
N400 C392 1.356 1_554 S
N400 H406 0.984 . S
N400 H407 0.984 1_545 S
N401 C394 1.356 . S
N401 H404 0.984 1_565 S
N401 H405 0.985 . S
H402 N397 0.984 . S
H403 N397 0.985 . S
H404 N401 0.984 1_545 S
H405 N401 0.985 . S
H406 N400 0.984 . S
H407 N400 0.984 1_565 S
H408 N396 0.984 . S
H409 N396 0.985 . S
C410 C411 1.363 . S
C410 C416 1.379 . S
C410 N418 1.356 . S
C411 C410 1.363 . S
C411 C417 1.363 1_545 S
C412 C413 1.363 . S
C412 C417 1.379 . S
C412 N419 1.356 . S
C413 C412 1.363 . S
C413 C416 1.363 1_565 S
N414 C416 1.356 . S
N414 H426 0.984 . S
N414 H427 0.985 . S
N415 C417 1.356 . S
N415 H420 0.984 . S
N415 H421 0.985 . S
C416 C410 1.379 . S
C416 C413 1.363 1_545 S
C416 N414 1.356 . S
C417 C411 1.363 1_565 S
C417 C412 1.379 . S
C417 N415 1.356 . S
N418 C410 1.356 . S
N418 H424 0.984 . S
N418 H425 0.984 . S
N419 C412 1.356 . S
N419 H422 0.984 . S
N419 H423 0.985 . S
H420 N415 0.984 . S
H421 N415 0.985 . S
H422 N419 0.984 . S
H423 N419 0.985 . S
H424 N418 0.984 . S
H425 N418 0.984 . S
H426 N414 0.984 . S
H427 N414 0.985 . S
C428 C429 1.363 1_545 S
C428 C434 1.379 . S
C428 N436 1.356 1_556 S
C429 C428 1.363 1_565 S
C429 C435 1.363 . S
C430 C431 1.361 1_565 S
C430 C435 1.381 . S
C430 N437 1.356 1_565 S
C431 C430 1.361 1_545 S
C431 C434 1.363 . S
N432 C434 1.356 . S
N432 H444 0.984 . S
N432 H445 0.985 . S
N433 C435 1.356 . S
N433 H438 0.984 . S
N433 H439 0.985 . S
C434 C428 1.379 . S
C434 C431 1.363 . S
C434 N432 1.356 . S
C435 C429 1.363 . S
C435 C430 1.381 . S
C435 N433 1.356 . S
N436 C428 1.356 1_554 S
N436 H442 0.984 . S
N436 H443 0.984 1_545 S
N437 C430 1.356 1_545 S
N437 H440 0.984 . S
N437 H441 0.985 1_545 S
H438 N433 0.984 . S
H439 N433 0.985 . S
H440 N437 0.984 . S
H441 N437 0.985 1_565 S
H442 N436 0.984 . S
H443 N436 0.984 1_565 S
H444 N432 0.984 . S
H445 N432 0.985 . S
C446 C447 1.363 . S
C446 C452 1.379 1_545 S
C446 N454 1.356 . S
C447 C446 1.363 . S
C447 C453 1.363 . S
C448 C449 1.354 1_545 S
C448 C453 1.390 . S
C448 N455 1.351 1_545 S
C449 C448 1.354 1_565 S
C449 C452 1.363 . S
N450 C452 1.356 . S
N450 H462 0.984 . S
N450 H463 0.985 . S
N451 C453 1.356 . S
N451 H456 0.984 . S
N451 H457 0.985 . S
C452 C446 1.379 1_565 S
C452 C449 1.363 . S
C452 N450 1.356 . S
C453 C447 1.363 . S
C453 C448 1.390 . S
C453 N451 1.356 . S
N454 C446 1.356 . S
N454 H460 0.984 . S
N454 H461 0.984 . S
N455 C448 1.351 1_565 S
N455 H458 0.984 . S
N455 H459 0.985 1_565 S
H456 N451 0.984 . S
H457 N451 0.985 . S
H458 N455 0.984 . S
H459 N455 0.985 1_545 S
H460 N454 0.984 . S
H461 N454 0.984 . S
H462 N450 0.984 . S
H463 N450 0.985 . S
C464 C465 1.363 . S
C464 C470 1.379 . S
C464 N472 1.356 . S
C465 C464 1.363 . S
C465 C471 1.363 . S
C466 C467 1.363 . S
C466 C471 1.379 . S
C466 N473 1.356 . S
C467 C466 1.363 . S
C467 C470 1.363 . S
N468 C470 1.356 . S
N468 H480 0.984 . S
N468 H481 0.985 . S
N469 C471 1.356 . S
N469 H474 0.984 . S
N469 H475 0.985 . S
C470 C464 1.379 . S
C470 C467 1.363 . S
C470 N468 1.356 . S
C471 C465 1.363 . S
C471 C466 1.379 . S
C471 N469 1.356 . S
N472 C464 1.356 . S
N472 H478 0.984 . S
N472 H479 0.984 . S
N473 C466 1.356 . S
N473 H476 0.984 . S
N473 H477 0.985 . S
H474 N469 0.984 . S
H475 N469 0.985 . S
H476 N473 0.984 . S
H477 N473 0.985 . S
H478 N472 0.984 . S
H479 N472 0.984 . S
H480 N468 0.984 . S
H481 N468 0.985 . S
C482 C483 1.363 . S
C482 C488 1.379 . S
C482 N490 1.356 . S
C483 C482 1.363 . S
C483 C489 1.363 . S
C484 C485 1.363 . S
C484 C489 1.379 . S
C484 N491 1.356 . S
C485 C484 1.363 . S
C485 C488 1.363 . S
N486 C488 1.356 . S
N486 H498 0.984 . S
N486 H499 0.985 . S
N487 C489 1.356 . S
N487 H492 0.984 . S
N487 H493 0.985 . S
C488 C482 1.379 . S
C488 C485 1.363 . S
C488 N486 1.356 . S
C489 C483 1.363 . S
C489 C484 1.379 . S
C489 N487 1.356 . S
N490 C482 1.356 . S
N490 H496 0.984 . S
N490 H497 0.984 . S
N491 C484 1.356 . S
N491 H494 0.984 . S
N491 H495 0.985 . S
H492 N487 0.984 . S
H493 N487 0.985 . S
H494 N491 0.984 . S
H495 N491 0.985 . S
H496 N490 0.984 . S
H497 N490 0.984 . S
H498 N486 0.984 . S
H499 N486 0.985 . S
C500 C501 1.363 . S
C500 C506 1.379 . S
C500 N508 1.356 . S
C501 C500 1.363 . S
C501 C507 1.363 . S
C502 C503 1.363 . S
C502 C507 1.379 . S
C502 N509 1.356 . S
C503 C502 1.363 . S
C503 C506 1.363 . S
N504 C506 1.356 . S
N504 H516 0.984 . S
N504 H517 0.985 . S
N505 C507 1.356 . S
N505 H510 0.984 . S
N505 H511 0.985 . S
C506 C500 1.379 . S
C506 C503 1.363 . S
C506 N504 1.356 . S
C507 C501 1.363 . S
C507 C502 1.379 . S
C507 N505 1.356 . S
N508 C500 1.356 . S
N508 H514 0.984 . S
N508 H515 0.984 . S
N509 C502 1.356 . S
N509 H512 0.984 . S
N509 H513 0.985 . S
H510 N505 0.984 . S
H511 N505 0.985 . S
H512 N509 0.984 . S
H513 N509 0.985 . S
H514 N508 0.984 . S
H515 N508 0.984 . S
H516 N504 0.984 . S
H517 N504 0.985 . S
C518 C519 1.363 . S
C518 C524 1.379 . S
C518 N526 1.356 . S
C519 C518 1.363 . S
C519 C525 1.363 . S
C520 C521 1.363 . S
C520 C525 1.379 . S
C520 N527 1.356 . S
C521 C520 1.363 . S
C521 C524 1.363 . S
N522 C524 1.356 . S
N522 H534 0.984 . S
N522 H535 0.985 . S
N523 C525 1.356 . S
N523 H528 0.984 . S
N523 H529 0.985 . S
C524 C518 1.379 . S
C524 C521 1.363 . S
C524 N522 1.356 . S
C525 C519 1.363 . S
C525 C520 1.379 . S
C525 N523 1.356 . S
N526 C518 1.356 . S
N526 H532 0.984 . S
N526 H533 0.984 . S
N527 C520 1.356 . S
N527 H530 0.984 . S
N527 H531 0.985 . S
H528 N523 0.984 . S
H529 N523 0.985 . S
H530 N527 0.984 . S
H531 N527 0.985 . S
H532 N526 0.984 . S
H533 N526 0.984 . S
H534 N522 0.984 . S
H535 N522 0.985 . S
C536 C537 1.363 . S
C536 C542 1.379 . S
C536 N544 1.356 . S
C537 C536 1.363 . S
C537 C543 1.363 . S
C538 C539 1.363 . S
C538 C543 1.379 . S
C538 N545 1.356 . S
C539 C538 1.363 . S
C539 C542 1.363 . S
N540 C542 1.356 . S
N540 H552 0.984 . S
N540 H553 0.985 . S
N541 C543 1.356 . S
N541 H546 0.984 . S
N541 H547 0.985 . S
C542 C536 1.379 . S
C542 C539 1.363 . S
C542 N540 1.356 . S
C543 C537 1.363 . S
C543 C538 1.379 . S
C543 N541 1.356 . S
N544 C536 1.356 . S
N544 H550 0.984 . S
N544 H551 0.984 . S
N545 C538 1.356 . S
N545 H548 0.984 . S
N545 H549 0.985 . S
H546 N541 0.984 . S
H547 N541 0.985 . S
H548 N545 0.984 . S
H549 N545 0.985 . S
H550 N544 0.984 . S
H551 N544 0.984 . S
H552 N540 0.984 . S
H553 N540 0.985 . S
C554 C555 1.363 . S
C554 C560 1.379 . S
C554 N562 1.356 . S
C555 C554 1.363 . S
C555 C561 1.363 . S
C556 C557 1.363 . S
C556 C561 1.379 . S
C556 N563 1.356 . S
C557 C556 1.363 . S
C557 C560 1.363 . S
N558 C560 1.356 . S
N558 H570 0.984 . S
N558 H571 0.985 . S
N559 C561 1.356 . S
N559 H564 0.984 . S
N559 H565 0.985 . S
C560 C554 1.379 . S
C560 C557 1.363 . S
C560 N558 1.356 . S
C561 C555 1.363 . S
C561 C556 1.379 . S
C561 N559 1.356 . S
N562 C554 1.356 . S
N562 H568 0.984 . S
N562 H569 0.984 . S
N563 C556 1.356 . S
N563 H566 0.984 . S
N563 H567 0.985 . S
H564 N559 0.984 . S
H565 N559 0.985 . S
H566 N563 0.984 . S
H567 N563 0.985 . S
H568 N562 0.984 . S
H569 N562 0.984 . S
H570 N558 0.984 . S
H571 N558 0.985 . S
C572 C573 1.363 . S
C572 C578 1.379 . S
C572 N580 1.356 . S
C573 C572 1.363 . S
C573 C579 1.363 . S
C574 C575 1.363 . S
C574 C579 1.379 . S
C574 N581 1.356 . S
C575 C574 1.363 . S
C575 C578 1.363 . S
N576 C578 1.356 . S
N576 H588 0.984 . S
N576 H589 0.985 . S
N577 C579 1.356 . S
N577 H582 0.984 . S
N577 H583 0.985 . S
C578 C572 1.379 . S
C578 C575 1.363 . S
C578 N576 1.356 . S
C579 C573 1.363 . S
C579 C574 1.379 . S
C579 N577 1.356 . S
N580 C572 1.356 . S
N580 H586 0.984 . S
N580 H587 0.984 . S
N581 C574 1.356 . S
N581 H584 0.984 . S
N581 H585 0.985 . S
H582 N577 0.984 . S
H583 N577 0.985 . S
H584 N581 0.984 . S
H585 N581 0.985 . S
H586 N580 0.984 . S
H587 N580 0.984 . S
H588 N576 0.984 . S
H589 N576 0.985 . S
C590 C591 1.363 . S
C590 C596 1.379 . S
C590 N598 1.356 . S
C591 C590 1.363 . S
C591 C597 1.363 . S
C592 C593 1.363 . S
C592 C597 1.379 . S
C592 N599 1.356 . S
C593 C592 1.363 . S
C593 C596 1.363 . S
N594 C596 1.356 . S
N594 H606 0.984 . S
N594 H607 0.985 . S
N595 C597 1.356 . S
N595 H600 0.984 . S
N595 H601 0.985 . S
C596 C590 1.379 . S
C596 C593 1.363 . S
C596 N594 1.356 . S
C597 C591 1.363 . S
C597 C592 1.379 . S
C597 N595 1.356 . S
N598 C590 1.356 . S
N598 H604 0.984 . S
N598 H605 0.984 . S
N599 C592 1.356 . S
N599 H602 0.984 . S
N599 H603 0.985 . S
H600 N595 0.984 . S
H601 N595 0.985 . S
H602 N599 0.984 . S
H603 N599 0.985 . S
H604 N598 0.984 . S
H605 N598 0.984 . S
H606 N594 0.984 . S
H607 N594 0.985 . S
C177 C8 1.672 . S
C179 C131 1.688 . S
C197 C95 1.441 . S
C195 C19 1.470 . S
C215 C118 1.553 . S
C213 C30 1.561 . S
C233 C106 1.554 . S
C231 C41 1.559 . S
C251 C175 1.688 . S
C249 C52 1.672 . S
C269 C139 1.441 . S
C267 C63 1.470 . S
C285 C74 1.562 . S
C287 C162 1.553 . S
C305 C150 1.554 . S
C303 C85 1.560 . S
C321 C7 1.638 . S
C323 C172 1.717 . S
C341 C142 1.385 . S
C339 C16 1.300 . S
C357 C29 1.602 . S
C359 C161 1.603 . S
C375 C40 1.544 . S
C377 C147 1.543 . S
C395 C128 1.717 . S
C393 C51 1.638 . S
C411 C60 1.299 . S
C413 C98 1.385 . S
C431 C117 1.603 . S
C429 C73 1.602 . S
C449 C103 1.543 . S
C447 C84 1.544 . S
C467 C153 1.513 . S
C465 C5 1.251 . S
C485 C169 1.518 . S
C483 C18 1.519 . S
C501 C27 1.395 . S
C503 C140 1.500 . S
C521 C164 1.494 . S
C519 C38 1.396 . S
C539 C109 1.513 . S
C537 C49 1.251 . S
C555 C62 1.518 . S
C557 C125 1.518 . S
C573 C71 1.395 . S
C575 C96 1.500 . S
C591 C82 1.397 . S
C593 C120 1.495 . S
