# Generated by pormake.
# Topology myd, (4,6)-cn, num edge types: 1
# Building blocks:
#     Node 0, Type 0, BuildingBlock: NAWXER_clean_sbu_0, # of connection points: 4
#     Node 1, Type 0, BuildingBlock: NAWXER_clean_sbu_0, # of connection points: 4
#     Node 2, Type 0, BuildingBlock: NAWXER_clean_sbu_0, # of connection points: 4
#     Node 3, Type 0, BuildingBlock: NAWXER_clean_sbu_0, # of connection points: 4
#     Node 4, Type 0, BuildingBlock: NAWXER_clean_sbu_0, # of connection points: 4
#     Node 5, Type 0, BuildingBlock: NAWXER_clean_sbu_0, # of connection points: 4
#     Node 6, Type 0, BuildingBlock: NAWXER_clean_sbu_0, # of connection points: 4
#     Node 7, Type 0, BuildingBlock: NAWXER_clean_sbu_0, # of connection points: 4
#     Node 8, Type 0, BuildingBlock: NAWXER_clean_sbu_0, # of connection points: 4
#     Node 9, Type 0, BuildingBlock: NAWXER_clean_sbu_0, # of connection points: 4
#     Node 10, Type 0, BuildingBlock: NAWXER_clean_sbu_0, # of connection points: 4
#     Node 11, Type 0, BuildingBlock: NAWXER_clean_sbu_0, # of connection points: 4
#     Node 12, Type 1, BuildingBlock: CIFDUS_clean_sbu_1, # of connection points: 6
#     Node 13, Type 1, BuildingBlock: CIFDUS_clean_sbu_1, # of connection points: 6
#     Node 14, Type 1, BuildingBlock: CIFDUS_clean_sbu_1, # of connection points: 6
#     Node 15, Type 1, BuildingBlock: CIFDUS_clean_sbu_1, # of connection points: 6
#     Node 16, Type 1, BuildingBlock: CIFDUS_clean_sbu_1, # of connection points: 6
#     Node 17, Type 1, BuildingBlock: CIFDUS_clean_sbu_1, # of connection points: 6
#     Node 18, Type 1, BuildingBlock: CIFDUS_clean_sbu_1, # of connection points: 6
#     Node 19, Type 1, BuildingBlock: CIFDUS_clean_sbu_1, # of connection points: 6
#     Edge 20, Type (0, 1), BuildingBlock: XUDNAN_clean_linker_2, # of connection points: 2
#     Edge 21, Type (0, 1), BuildingBlock: XUDNAN_clean_linker_2, # of connection points: 2
#     Edge 22, Type (0, 1), BuildingBlock: XUDNAN_clean_linker_2, # of connection points: 2
#     Edge 23, Type (0, 1), BuildingBlock: XUDNAN_clean_linker_2, # of connection points: 2
#     Edge 24, Type (0, 1), BuildingBlock: XUDNAN_clean_linker_2, # of connection points: 2
#     Edge 25, Type (0, 1), BuildingBlock: XUDNAN_clean_linker_2, # of connection points: 2
#     Edge 26, Type (0, 1), BuildingBlock: XUDNAN_clean_linker_2, # of connection points: 2
#     Edge 27, Type (0, 1), BuildingBlock: XUDNAN_clean_linker_2, # of connection points: 2
#     Edge 28, Type (0, 1), BuildingBlock: XUDNAN_clean_linker_2, # of connection points: 2
#     Edge 29, Type (0, 1), BuildingBlock: XUDNAN_clean_linker_2, # of connection points: 2
#     Edge 30, Type (0, 1), BuildingBlock: XUDNAN_clean_linker_2, # of connection points: 2
#     Edge 31, Type (0, 1), BuildingBlock: XUDNAN_clean_linker_2, # of connection points: 2
#     Edge 32, Type (0, 1), BuildingBlock: XUDNAN_clean_linker_2, # of connection points: 2
#     Edge 33, Type (0, 1), BuildingBlock: XUDNAN_clean_linker_2, # of connection points: 2
#     Edge 34, Type (0, 1), BuildingBlock: XUDNAN_clean_linker_2, # of connection points: 2
#     Edge 35, Type (0, 1), BuildingBlock: XUDNAN_clean_linker_2, # of connection points: 2
#     Edge 36, Type (0, 1), BuildingBlock: XUDNAN_clean_linker_2, # of connection points: 2
#     Edge 37, Type (0, 1), BuildingBlock: XUDNAN_clean_linker_2, # of connection points: 2
#     Edge 38, Type (0, 1), BuildingBlock: XUDNAN_clean_linker_2, # of connection points: 2
#     Edge 39, Type (0, 1), BuildingBlock: XUDNAN_clean_linker_2, # of connection points: 2
#     Edge 40, Type (0, 1), BuildingBlock: XUDNAN_clean_linker_2, # of connection points: 2
#     Edge 41, Type (0, 1), BuildingBlock: XUDNAN_clean_linker_2, # of connection points: 2
#     Edge 42, Type (0, 1), BuildingBlock: XUDNAN_clean_linker_2, # of connection points: 2
#     Edge 43, Type (0, 1), BuildingBlock: XUDNAN_clean_linker_2, # of connection points: 2
#     Edge 44, Type (0, 1), BuildingBlock: XUDNAN_clean_linker_2, # of connection points: 2
#     Edge 45, Type (0, 1), BuildingBlock: XUDNAN_clean_linker_2, # of connection points: 2
#     Edge 46, Type (0, 1), BuildingBlock: XUDNAN_clean_linker_2, # of connection points: 2
#     Edge 47, Type (0, 1), BuildingBlock: XUDNAN_clean_linker_2, # of connection points: 2
#     Edge 48, Type (0, 1), BuildingBlock: XUDNAN_clean_linker_2, # of connection points: 2
#     Edge 49, Type (0, 1), BuildingBlock: XUDNAN_clean_linker_2, # of connection points: 2
#     Edge 50, Type (0, 1), BuildingBlock: XUDNAN_clean_linker_2, # of connection points: 2
#     Edge 51, Type (0, 1), BuildingBlock: XUDNAN_clean_linker_2, # of connection points: 2
#     Edge 52, Type (0, 1), BuildingBlock: XUDNAN_clean_linker_2, # of connection points: 2
#     Edge 53, Type (0, 1), BuildingBlock: XUDNAN_clean_linker_2, # of connection points: 2
#     Edge 54, Type (0, 1), BuildingBlock: XUDNAN_clean_linker_2, # of connection points: 2
#     Edge 55, Type (0, 1), BuildingBlock: XUDNAN_clean_linker_2, # of connection points: 2
#     Edge 56, Type (0, 1), BuildingBlock: XUDNAN_clean_linker_2, # of connection points: 2
#     Edge 57, Type (0, 1), BuildingBlock: XUDNAN_clean_linker_2, # of connection points: 2
#     Edge 58, Type (0, 1), BuildingBlock: XUDNAN_clean_linker_2, # of connection points: 2
#     Edge 59, Type (0, 1), BuildingBlock: XUDNAN_clean_linker_2, # of connection points: 2
#     Edge 60, Type (0, 1), BuildingBlock: XUDNAN_clean_linker_2, # of connection points: 2
#     Edge 61, Type (0, 1), BuildingBlock: XUDNAN_clean_linker_2, # of connection points: 2
#     Edge 62, Type (0, 1), BuildingBlock: XUDNAN_clean_linker_2, # of connection points: 2
#     Edge 63, Type (0, 1), BuildingBlock: XUDNAN_clean_linker_2, # of connection points: 2
#     Edge 64, Type (0, 1), BuildingBlock: XUDNAN_clean_linker_2, # of connection points: 2
#     Edge 65, Type (0, 1), BuildingBlock: XUDNAN_clean_linker_2, # of connection points: 2
#     Edge 66, Type (0, 1), BuildingBlock: XUDNAN_clean_linker_2, # of connection points: 2
#     Edge 67, Type (0, 1), BuildingBlock: XUDNAN_clean_linker_2, # of connection points: 2
# Relax obj value: 0.215
# Max RMSD: 0.185
# Mean RMSD: 0.133
data_MOF--net-myd--node1-NAWXER_clean_sbu_0--node2-CIFDUS_clean_sbu_1--edge1-XUDNAN_clean_linker_2
_symmetry_space_group_name_H-M    P1
_symmetry_Int_Tables_number       1
_symmetry_cell_setting            triclinic
loop_
_symmetry_equiv_pos_as_xyz
'x, y, z'
_cell_length_a     44.758122
_cell_length_b     45.471289
_cell_length_c     44.546627
_cell_angle_alpha  90.719099
_cell_angle_beta   91.474087
_cell_angle_gamma 91.684533
loop_
_atom_site_label
_atom_site_type_symbol
_atom_site_fract_x
_atom_site_fract_y
_atom_site_fract_z
_atom_type_partial_charge
C0 C 0.03873 0.237 0.26564 0.0
C1 C 0.03635 0.31233 0.34621 0.0
O2 O 0.06208 0.25124 0.2754 0.0
Zn3 Zn 0.04207 0.27082 0.30888 0.0
O4 O 0.01405 0.23919 0.27906 0.0
Zn5 Zn 0.99492 0.26099 0.31558 0.0
O6 O 0.96505 0.28191 0.29084 0.0
O7 O 0.01198 0.29539 0.28237 0.0
O8 O 0.0117 0.2975 0.34259 0.0
O9 O 0.05953 0.3037 0.33302 0.0
O10 O 0.03495 0.23384 0.33699 0.0
O11 O 0.98651 0.22655 0.34152 0.0
C12 C 0.98405 0.29789 0.27697 0.0
C13 C 0.01307 0.21833 0.34693 0.0
C14 C 0.04829 0.79863 0.22527 0.0
C15 C 0.03021 0.71437 0.15605 0.0
O16 O 0.0687 0.78327 0.21403 0.0
Zn17 Zn 0.04188 0.75929 0.18771 0.0
O18 O 0.02093 0.79387 0.21715 0.0
Zn19 Zn 0.9945 0.76559 0.18762 0.0
O20 O 0.96988 0.74615 0.21753 0.0
O21 O 0.01812 0.73703 0.22196 0.0
O22 O 0.00637 0.72776 0.16229 0.0
O23 O 0.05544 0.72525 0.16502 0.0
O24 O 0.02713 0.7915 0.15653 0.0
O25 O 0.97805 0.79368 0.15968 0.0
C26 C 0.99142 0.73368 0.23106 0.0
C27 C 1.00238 0.80289 0.14854 0.0
C28 C 0.33362 0.0458 0.20484 0.0
C29 C 0.2595 0.04196 0.28363 0.0
O30 O 0.32938 0.0196 0.21469 0.0
Zn31 Zn 0.30469 0.99887 0.25031 0.0
O32 O 0.32258 0.06724 0.21891 0.0
Zn33 Zn 0.29936 0.04538 0.24783 0.0
O34 O 0.32871 0.03273 0.28354 0.0
O35 O 0.33286 0.98471 0.28118 0.0
O36 O 0.26937 0.06518 0.27109 0.0
O37 O 0.27092 0.01712 0.27759 0.0
O38 O 0.27879 0.97124 0.2269 0.0
O39 O 0.27082 0.01837 0.21862 0.0
C40 C 0.33907 0.00909 0.29454 0.0
C41 C 0.26485 0.9911 0.21284 0.0
C42 C 0.73027 0.48664 0.22195 0.0
C43 C 0.66154 0.50069 0.30766 0.0
O44 O 0.71907 0.46484 0.2362 0.0
Zn45 Zn 0.6923 0.48772 0.26269 0.0
O46 O 0.7225 0.51267 0.22854 0.0
Zn47 Zn 0.696 0.53741 0.257 0.0
O48 O 0.72972 0.55783 0.28125 0.0
O49 O 0.72571 0.50971 0.28665 0.0
O50 O 0.67036 0.52365 0.29369 0.0
O51 O 0.66733 0.47527 0.29715 0.0
O52 O 0.66294 0.50411 0.23107 0.0
O53 O 0.66699 0.55213 0.22571 0.0
C54 C 0.739 0.53413 0.2931 0.0
C55 C 0.6548 0.52736 0.21779 0.0
C56 C 0.21253 0.35339 0.00345 0.0
C57 C 0.28389 0.27516 0.97943 0.0
O58 O 0.22111 0.34796 0.97687 0.0
Zn59 Zn 0.25177 0.3183 0.98706 0.0
O60 O 0.22638 0.34197 0.02566 0.0
Zn61 Zn 0.25914 0.31085 0.03562 0.0
O62 O 0.29398 0.33374 0.05322 0.0
O63 O 0.29022 0.34105 0.00451 0.0
O64 O 0.28109 0.28134 0.00726 0.0
O65 O 0.27037 0.29041 0.95966 0.0
O66 O 0.22262 0.28827 0.0069 0.0
O67 O 0.23124 0.28185 0.05526 0.0
C68 C 0.30454 0.34507 0.0295 0.0
C69 C 0.21543 0.27617 0.0314 0.0
C70 C 0.20735 0.74514 0.52872 0.0
C71 C 0.29267 0.67823 0.53804 0.0
O72 O 0.22063 0.74 0.50414 0.0
Zn73 Zn 0.25726 0.71476 0.48791 0.0
O74 O 0.21607 0.73287 0.55288 0.0
Zn75 Zn 0.24811 0.71035 0.53489 0.0
O76 O 0.27687 0.74609 0.5234 0.0
O77 O 0.2837 0.74646 0.47431 0.0
O78 O 0.27406 0.68442 0.55811 0.0
O79 O 0.2887 0.68801 0.51143 0.0
O80 O 0.23501 0.68881 0.45942 0.0
O81 O 0.22171 0.68203 0.50618 0.0
C82 C 0.28859 0.75776 0.50033 0.0
C83 C 0.21803 0.6762 0.47813 0.0
C84 C 0.70635 0.85038 0.49397 0.0
C85 C 0.7828 0.77626 0.47973 0.0
O86 O 0.71684 0.84176 0.46916 0.0
Zn87 Zn 0.74752 0.81576 0.48419 0.0
O88 O 0.7189 0.84256 0.51865 0.0
Zn89 Zn 0.75352 0.81381 0.53254 0.0
O90 O 0.78664 0.83874 0.55 0.0
O91 O 0.78468 0.8419 0.50073 0.0
O92 O 0.77912 0.78404 0.50703 0.0
O93 O 0.76821 0.78836 0.4585 0.0
O94 O 0.71965 0.78524 0.50584 0.0
O95 O 0.72855 0.78482 0.55471 0.0
C96 C 0.79797 0.84827 0.52586 0.0
C97 C 0.7136 0.77515 0.53164 0.0
C98 C 0.49263 0.79444 0.76011 0.0
C99 C 0.51787 0.71864 0.83438 0.0
O100 O 0.47331 0.777 0.77154 0.0
Zn101 Zn 0.50109 0.75923 0.80076 0.0
O102 O 0.51972 0.79489 0.76967 0.0
Zn103 Zn 0.54809 0.77416 0.80061 0.0
O104 O 0.57418 0.75681 0.77019 0.0
O105 O 0.52775 0.73854 0.76932 0.0
O106 O 0.5398 0.73598 0.82766 0.0
O107 O 0.49154 0.7247 0.8253 0.0
O108 O 0.51128 0.79518 0.83044 0.0
O109 O 0.55889 0.80843 0.82718 0.0
C110 C 0.5541 0.73895 0.75917 0.0
C111 C 0.53324 0.81268 0.83791 0.0
C112 C 0.49116 0.22005 0.72945 0.0
C113 C 0.48343 0.30208 0.65873 0.0
O114 O 0.46705 0.23087 0.7193 0.0
Zn115 Zn 0.48544 0.25993 0.69352 0.0
O116 O 0.51649 0.23036 0.72101 0.0
Zn117 Zn 0.53316 0.26268 0.69027 0.0
O118 O 0.55615 0.29009 0.71694 0.0
O119 O 0.50763 0.28923 0.72495 0.0
O120 O 0.51034 0.29423 0.66357 0.0
O121 O 0.46204 0.28791 0.67081 0.0
O122 O 0.5026 0.23088 0.6611 0.0
O123 O 0.55175 0.23683 0.66103 0.0
C124 C 0.53401 0.29944 0.73134 0.0
C125 C 0.52793 0.22357 0.65129 0.0
C126 C 0.76321 0.4889 0.70151 0.0
C127 C 0.83279 0.48437 0.78864 0.0
O128 O 0.77403 0.51401 0.71049 0.0
Zn129 Zn 0.80504 0.5324 0.7443 0.0
O130 O 0.77053 0.46556 0.71509 0.0
Zn131 Zn 0.799 0.48517 0.74313 0.0
O132 O 0.76863 0.50772 0.76948 0.0
O133 O 0.77735 0.55568 0.76872 0.0
O134 O 0.82064 0.46328 0.77331 0.0
O135 O 0.82959 0.51085 0.7797 0.0
O136 O 0.83449 0.55003 0.71651 0.0
O137 O 0.82985 0.50183 0.7117 0.0
C138 C 0.76196 0.53363 0.77782 0.0
C139 C 0.84055 0.52642 0.70245 0.0
C140 C 0.23588 0.02379 0.70997 0.0
C141 C 0.16896 0.03499 0.79573 0.0
O142 O 0.22496 0.99943 0.71969 0.0
Zn143 Zn 0.19597 0.98432 0.75483 0.0
O144 O 0.22918 0.04792 0.7226 0.0
Zn145 Zn 0.20179 0.03064 0.75166 0.0
O146 O 0.23332 0.0095 0.78002 0.0
O147 O 0.22304 0.96158 0.77898 0.0
O148 O 0.18164 0.0551 0.78061 0.0
O149 O 0.17209 0.00802 0.7881 0.0
O150 O 0.16556 0.96369 0.73172 0.0
O151 O 0.16731 0.01125 0.72224 0.0
C152 C 0.23901 0.98344 0.7885 0.0
C153 C 0.15629 0.9853 0.71667 0.0
C154 C 0.71293 0.18047 0.99578 0.0
C155 C 0.79677 0.25245 0.99008 0.0
O156 O 0.72435 0.18883 0.0213 0.0
Zn157 Zn 0.75816 0.21844 0.03947 0.0
O158 O 0.7238 0.19055 0.97175 0.0
Zn159 Zn 0.75464 0.21678 0.99054 0.0
O160 O 0.7875 0.18904 0.00999 0.0
O161 O 0.78721 0.19255 0.05945 0.0
O162 O 0.78144 0.24238 0.9675 0.0
O163 O 0.78951 0.24532 0.01665 0.0
O164 O 0.73477 0.24869 0.06034 0.0
O165 O 0.72798 0.24813 0.01114 0.0
C166 C 0.79862 0.18225 0.0357 0.0
C167 C 0.72183 0.25865 0.03692 0.0
O168 O 0.0306 0.07163 0.09152 0.0
Mn169 Mn 0.04546 0.05785 0.05002 0.0
O170 O 0.0692 0.10333 0.09887 0.0
Mn171 Mn 0.09387 0.08573 0.07159 0.0
O172 O 0.06315 0.04738 0.00805 0.0
O173 O 1.00347 0.06268 0.0321 0.0
Mn174 Mn 0.99843 0.03354 0.00505 0.0
O175 O 0.0351 0.01344 0.05957 0.0
O176 O 0.02561 0.03882 0.97478 0.0
O177 O 0.05275 0.1032 0.0396 0.0
O178 O 0.09996 0.10157 0.03479 0.0
O179 O 0.96337 0.05296 0.0037 0.0
O180 O 1.00048 0.9982 0.02487 0.0
C181 C 0.11468 0.0497 0.08235 0.0
C182 C 0.04399 0.09268 0.10645 0.0
C183 C 0.05325 0.04317 0.98096 0.0
C184 C 0.97644 0.06972 0.02408 0.0
C185 C 0.01748 0.99345 0.04753 0.0
C186 C 0.07661 0.11488 0.02943 0.0
O187 O 0.08768 0.04722 0.06945 0.0
O188 O 0.12717 0.07529 0.08848 0.0
O189 O 0.97901 0.43845 0.08618 0.0
Mn190 Mn 0.95794 0.45653 0.04886 0.0
O191 O 0.95023 0.39836 0.08234 0.0
Mn192 Mn 0.91945 0.41851 0.06328 0.0
O193 O 0.93318 0.47216 0.01127 0.0
O194 O 0.99859 0.45975 0.02742 0.0
Mn195 Mn 0.99452 0.49428 0.00883 0.0
O196 O 0.96525 0.49876 0.06895 0.0
O197 O 0.96514 0.49196 0.9793 0.0
O198 O 0.95513 0.41487 0.026 0.0
O199 O 0.9077 0.41063 0.02441 0.0
O200 O 0.03093 0.48299 0.99825 0.0
O201 O 0.99255 0.52465 0.03639 0.0
C202 C 0.89451 0.44364 0.08852 0.0
C203 C 0.97208 0.41249 0.0949 0.0
C204 C 0.93914 0.48254 0.98528 0.0
C205 C 0.02474 0.46029 0.01452 0.0
C206 C 0.97935 0.52254 0.06119 0.0
C207 C 0.93155 0.40466 0.01243 0.0
O208 O 0.91679 0.4565 0.07368 0.0
O209 O 0.88888 0.41561 0.0862 0.0
O210 O 0.08628 0.98832 0.43281 0.0
Mn211 Mn 0.05202 0.96283 0.45325 0.0
O212 O 0.12597 0.96345 0.44124 0.0
Mn213 Mn 0.09997 0.93328 0.43057 0.0
O214 O 0.01533 0.93938 0.47241 0.0
O215 O 0.02942 1.00186 0.449 0.0
Mn216 Mn 0.0097 1.00349 0.48334 0.0
O217 O 0.06818 0.97524 0.49532 0.0
O218 O 0.98194 0.97301 0.48443 0.0
O219 O 0.03678 0.94735 0.4113 0.0
O220 O 0.08055 0.93439 0.39329 0.0
O221 O 0.99907 0.03641 0.46395 0.0
O222 O 0.03622 0.00567 0.51634 0.0
C223 C 0.09337 0.90076 0.46014 0.0
C224 C 0.11474 0.98712 0.43352 0.0
C225 C 0.98925 0.94647 0.48131 0.0
C226 C 0.0169 0.02715 0.44366 0.0
C227 C 0.05976 0.99064 0.51753 0.0
C228 C 0.05256 0.93745 0.38998 0.0
O229 O 0.07575 0.92373 0.46042 0.0
O230 O 0.11357 0.89859 0.43997 0.0
O231 O 0.93485 0.59986 0.46207 0.0
Mn232 Mn 0.95452 0.56147 0.44872 0.0
O233 O 0.89735 0.59613 0.42782 0.0
Mn234 Mn 0.91647 0.57055 0.40178 0.0
O235 O 0.97288 0.52234 0.43223 0.0
O236 O 0.95666 0.54776 0.49233 0.0
Mn237 Mn 0.99186 0.53103 0.49638 0.0
O238 O 0.99722 0.58145 0.45218 0.0
O239 O 0.99182 0.49806 0.47139 0.0
O240 O 0.9114 0.54085 0.44839 0.0
O241 O 0.9085 0.53093 0.40148 0.0
O242 O 0.97548 0.52797 0.53323 0.0
O243 O 0.02147 0.55926 0.48994 0.0
C244 C 0.94962 0.58691 0.37713 0.0
C245 C 0.90991 0.60854 0.45096 0.0
C246 C 0.98466 0.49942 0.44366 0.0
C247 C 0.95313 0.54066 0.52035 0.0
C248 C 0.02042 0.57837 0.46932 0.0
C249 C 0.89968 0.52529 0.42709 0.0
O250 O 0.95536 0.57825 0.40483 0.0
O251 O 0.92273 0.5841 0.36567 0.0
O252 O 0.48881 0.94888 0.58774 0.0
Mn253 Mn 0.46362 0.9712 0.55451 0.0
O254 O 0.47327 0.96796 0.62818 0.0
Mn255 Mn 0.43862 0.95868 0.60717 0.0
O256 O 0.43988 0.98938 0.51689 0.0
O257 O 0.49765 0.95834 0.52723 0.0
Mn258 Mn 0.50038 0.99027 0.50408 0.0
O259 O 0.48498 0.01141 0.56667 0.0
O260 O 0.46937 0.98241 0.47766 0.0
O261 O 0.44045 0.93214 0.54475 0.0
O262 O 0.43092 0.92069 0.59209 0.0
O263 O 0.53781 0.97668 0.5065 0.0
O264 O 0.49871 0.0271 0.52216 0.0
C265 C 0.407 0.98811 0.60194 0.0
C266 C 0.49189 0.95222 0.61609 0.0
C267 C 0.44369 0.98632 0.48822 0.0
C268 C 0.52677 0.958 0.52516 0.0
C269 C 0.49431 0.03196 0.54969 0.0
C270 C 0.42911 0.91478 0.56404 0.0
O271 O 0.42681 0.98516 0.5804 0.0
O272 O 0.40836 0.97251 0.62605 0.0
O273 O 0.51399 0.57589 0.59387 0.0
Mn274 Mn 0.53697 0.55451 0.55932 0.0
O275 O 0.53753 0.56212 0.63398 0.0
Mn276 Mn 0.57122 0.57158 0.61349 0.0
O277 O 0.55964 0.53686 0.52197 0.0
O278 O 0.49898 0.56022 0.53408 0.0
Mn279 Mn 0.49421 0.52883 0.50982 0.0
O280 O 0.51971 0.51348 0.57176 0.0
O281 O 0.52587 0.52857 0.48441 0.0
O282 O 0.55578 0.59597 0.5498 0.0
O283 O 0.57475 0.60819 0.59582 0.0
O284 O 0.46162 0.5516 0.50274 0.0
O285 O 0.49014 0.49561 0.53387 0.0
C286 C 0.5991 0.53956 0.60046 0.0
C287 C 0.51666 0.57626 0.62251 0.0
C288 C 0.55275 0.53028 0.49425 0.0
C289 C 0.47278 0.56814 0.52433 0.0
C290 C 0.50261 0.49323 0.55975 0.0
C291 C 0.56964 0.61419 0.56825 0.0
O292 O 0.57501 0.54534 0.58448 0.0
O293 O 0.60479 0.55452 0.62502 0.0
O294 O 0.58982 0.48908 0.9356 0.0
Mn295 Mn 0.55218 0.46906 0.95411 0.0
O296 O 0.59468 0.45315 0.9027 0.0
Mn297 Mn 0.57437 0.42572 0.92586 0.0
O298 O 0.51366 0.44798 0.97218 0.0
O299 O 0.53105 0.50833 0.94718 0.0
Mn300 Mn 0.51182 0.51354 0.98132 0.0
O301 O 0.56737 0.48229 0.9973 0.0
O302 O 0.4837 0.48371 0.98688 0.0
O303 O 0.53517 0.45754 0.90968 0.0
O304 O 0.53792 0.41088 0.9131 0.0
O305 O 0.50156 0.54475 0.95896 0.0
O306 O 0.53957 0.51946 0.01262 0.0
C307 C 0.5927 0.40657 0.96123 0.0
C308 C 0.60166 0.47896 0.91199 0.0
C309 C 0.48896 0.45666 0.98307 0.0
C310 C 0.51948 0.53354 0.93982 0.0
C311 C 0.56128 0.50242 0.01651 0.0
C312 C 0.52682 0.43196 0.89982 0.0
O313 O 0.57635 0.43019 0.9657 0.0
O314 O 0.5981 0.39742 0.93429 0.0
O315 O 0.43184 0.09482 0.96605 0.0
Mn316 Mn 0.45871 0.05919 0.95041 0.0
O317 O 0.44715 0.12832 0.93713 0.0
Mn318 Mn 0.43793 0.09693 0.91215 0.0
O319 O 0.48093 0.02059 0.93496 0.0
O320 O 0.44846 0.04358 0.99296 0.0
Mn321 Mn 0.48161 0.02384 0.99958 0.0
O322 O 0.49898 0.07994 0.96704 0.0
O323 O 0.48297 0.99202 0.97485 0.0
O324 O 0.42096 0.03787 0.93308 0.0
O325 O 0.40112 0.07628 0.91176 0.0
O326 O 0.46195 0.01744 0.03319 0.0
O327 O 0.51483 0.04838 1.00161 0.0
C328 C 0.46728 0.08971 0.88113 0.0
C329 C 0.43231 0.1221 0.95939 0.0
C330 C 0.48413 0.99509 0.94684 0.0
C331 C 0.44231 0.03353 0.01987 0.0
C332 C 0.51867 0.07163 0.98652 0.0
C333 C 0.39961 0.04937 0.9186 0.0
O334 O 0.47026 0.07539 0.9069 0.0
O335 O 0.44512 0.10671 0.87566 0.0
H336 H 0.97449 0.17033 0.35598 0.0
H337 H 0.06675 0.2004 0.36985 0.0
H338 H 0.07952 0.15168 0.38936 0.0
H339 H 0.96915 0.12678 0.42183 0.0
H340 H 0.94632 0.09801 0.40382 0.0
H341 H 0.94513 0.13499 0.39009 0.0
H342 H 0.95841 0.11573 0.33713 0.0
H343 H 0.9604 0.07875 0.35106 0.0
H344 H 0.99196 0.09531 0.33265 0.0
H345 H 0.0822 0.09899 0.40879 0.0
H346 H 0.07238 0.05063 0.43236 0.0
H347 H 0.97905 0.05475 0.40578 0.0
C348 C 0.99731 0.16679 0.3634 0.0
C349 C 0.0195 0.18954 0.3615 0.0
C350 C 0.04921 0.18357 0.37108 0.0
C351 C 0.05679 0.15578 0.38203 0.0
C352 C 0.03457 0.13371 0.38308 0.0
C353 C 0.00537 0.13899 0.37423 0.0
C354 C 0.98554 0.11176 0.37845 0.0
C355 C 0.96004 0.11828 0.39983 0.0
C356 C 0.97335 0.09969 0.34801 0.0
C357 C 0.00775 0.09087 0.39231 0.0
C358 C 0.03615 0.10358 0.39407 0.0
C359 C 0.06008 0.08874 0.4071 0.0
C360 C 0.05451 0.06093 0.41995 0.0
C361 C 0.02522 0.04834 0.41996 0.0
C362 C 1.00187 0.06328 0.40512 0.0
H363 H 1.00374 0.33069 0.39448 0.0
H364 H 0.06561 0.36209 0.32793 0.0
H365 H 0.05728 0.4134 0.34399 0.0
H366 H 0.95197 0.38763 0.38933 0.0
H367 H 0.94555 0.39042 0.42903 0.0
H368 H 0.95659 0.35603 0.41285 0.0
H369 H 1.00207 0.35473 0.45 0.0
H370 H 0.99081 0.38882 0.4667 0.0
H371 H 0.02796 0.38585 0.45249 0.0
H372 H 0.03777 0.46177 0.36376 0.0
H373 H 0.01698 0.50294 0.39281 0.0
H374 H 0.97255 0.44035 0.4505 0.0
C375 C 0.01605 0.34835 0.38378 0.0
C376 C 0.03561 0.34228 0.36011 0.0
C377 C 0.051 0.36608 0.34646 0.0
C378 C 0.04612 0.39536 0.3552 0.0
C379 C 0.02624 0.40061 0.37813 0.0
C380 C 0.01217 0.37773 0.39289 0.0
C381 C 0.99281 0.38937 0.41764 0.0
C382 C 0.95977 0.38032 0.41186 0.0
C383 C 1.00409 0.37908 0.44854 0.0
C384 C 0.99784 0.42233 0.41424 0.0
C385 C 0.01669 0.42837 0.39086 0.0
C386 C 0.02338 0.45725 0.3824 0.0
C387 C 0.01128 0.48049 0.39883 0.0
C388 C 0.99328 0.47479 0.42386 0.0
C389 C 0.98636 0.4453 0.43149 0.0
H390 H 0.00514 0.86092 0.16471 0.0
H391 H 1.00262 0.80177 0.08763 0.0
H392 H 0.00743 0.84446 0.05382 0.0
H393 H 0.96307 0.91939 0.12978 0.0
H394 H 0.98505 0.9486 0.14803 0.0
H395 H 0.98055 0.91355 0.16604 0.0
H396 H 0.03808 0.90958 0.17042 0.0
H397 H 0.04279 0.94451 0.1522 0.0
H398 H 0.05996 0.91236 0.13708 0.0
H399 H 0.01182 0.89282 0.02873 0.0
H400 H 0.01599 0.94444 0.01297 0.0
H401 H 0.01813 0.9734 0.1062 0.0
C402 C 0.00523 0.85716 0.14065 0.0
C403 C 1.00296 0.82829 0.12845 0.0
C404 C 1.00382 0.82384 0.0971 0.0
C405 C 0.00669 0.8479 0.07786 0.0
C406 C 0.00897 0.87616 0.09049 0.0
C407 C 0.00831 0.88098 0.12113 0.0
C408 C 0.01152 0.91364 0.12875 0.0
C409 C 0.98337 0.92443 0.14405 0.0
C410 C 0.03977 0.9204 0.14827 0.0
C411 C 0.01436 0.9264 0.09758 0.0
C412 C 0.01257 0.90427 0.07593 0.0
C413 C 0.01343 0.9103 0.04545 0.0
C414 C 0.01581 0.9397 0.03675 0.0
C415 C 0.01766 0.96284 0.05836 0.0
C416 C 0.01731 0.95609 0.08925 0.0
H417 H 0.00989 0.69309 0.10069 0.0
H418 H 0.04153 0.66622 0.18856 0.0
H419 H 0.02848 0.61427 0.17541 0.0
H420 H 0.94876 0.64177 0.09152 0.0
H421 H 0.95444 0.6342 0.0523 0.0
H422 H 0.9661 0.66936 0.0684 0.0
H423 H 0.02008 0.66219 0.0505 0.0
H424 H 0.00837 0.62732 0.0338 0.0
H425 H 0.03925 0.62928 0.0606 0.0
H426 H 0.00835 0.56534 0.15365 0.0
H427 H 0.99171 0.52244 0.12182 0.0
H428 H 0.97749 0.58057 0.04676 0.0
C429 C 0.01463 0.67612 0.11682 0.0
C430 C 0.02719 0.68346 0.14545 0.0
C431 C 0.03258 0.66084 0.16627 0.0
C432 C 0.0249 0.63135 0.15911 0.0
C433 C 0.01223 0.62473 0.13083 0.0
C434 C 0.00787 0.64638 0.10971 0.0
C435 C 0.99518 0.63317 0.08047 0.0
C436 C 0.96428 0.64537 0.07273 0.0
C437 C 0.01702 0.63828 0.05483 0.0
C438 C 0.99271 0.60089 0.08858 0.0
C439 C 1.0021 0.59649 0.1179 0.0
C440 C 1.00114 0.56852 0.13058 0.0
C441 C 0.9913 0.54431 0.1125 0.0
C442 C 0.98306 0.5482 0.08197 0.0
C443 C 0.98345 0.57696 0.07012 0.0
H444 H 0.35415 1.00386 0.16614 0.0
H445 H 0.34473 0.09814 0.17607 0.0
H446 H 0.36497 0.10525 0.12541 0.0
H447 H 0.42314 0.00698 0.12877 0.0
H448 H 0.41383 0.9756 0.10485 0.0
H449 H 0.39739 0.97868 0.14111 0.0
H450 H 0.34464 0.97349 0.11568 0.0
H451 H 0.361 0.97116 0.07922 0.0
H452 H 0.33406 0.99883 0.08675 0.0
H453 H 0.38891 0.10184 0.07345 0.0
H454 H 0.41875 0.08828 0.02933 0.0
H455 H 0.41026 0.9966 0.05367 0.0
C456 C 0.3564 0.02607 0.1578 0.0
C457 C 0.34798 0.05045 0.17535 0.0
C458 C 0.3512 0.07907 0.16327 0.0
C459 C 0.36245 0.08332 0.13434 0.0
C460 C 0.37017 0.05873 0.11751 0.0
C461 C 0.36741 0.03068 0.129 0.0
C462 C 0.37852 0.00795 0.10722 0.0
C463 C 0.40478 0.99134 0.12131 0.0
C464 C 0.35303 0.9866 0.0966 0.0
C465 C 0.38857 0.02754 0.08191 0.0
C466 C 0.38329 0.05678 0.08789 0.0
C467 C 0.39272 0.07894 0.06839 0.0
C468 C 0.40925 0.07107 0.04306 0.0
C469 C 0.4162 0.04135 0.03769 0.0
C470 C 0.40457 0.01942 0.05676 0.0
H471 H 0.64257 0.56477 0.16923 0.0
H472 H 0.6206 0.47867 0.2055 0.0
H473 H 0.59635 0.46369 0.15787 0.0
H474 H 0.56925 0.56801 0.1252 0.0
H475 H 0.5861 0.58741 0.0946 0.0
H476 H 0.60103 0.59261 0.13233 0.0
H477 H 0.65312 0.57802 0.11423 0.0
H478 H 0.63824 0.57218 0.0766 0.0
H479 H 0.65715 0.54299 0.09557 0.0
H480 H 0.58223 0.45428 0.10512 0.0
H481 H 0.56566 0.45533 0.05193 0.0
H482 H 0.58832 0.54867 0.04925 0.0
C483 C 0.63186 0.54314 0.1674 0.0
C484 C 0.63412 0.52284 0.19123 0.0
C485 C 0.61979 0.49464 0.18768 0.0
C486 C 0.60593 0.48573 0.16057 0.0
C487 C 0.60549 0.50546 0.13713 0.0
C488 C 0.61685 0.53397 0.14039 0.0
C489 C 0.612 0.55066 0.1113 0.0
C490 C 0.59083 0.57619 0.11615 0.0
C491 C 0.64192 0.5616 0.09869 0.0
C492 C 0.59733 0.52665 0.09124 0.0
C493 C 0.5944 0.50066 0.10669 0.0
C494 C 0.58369 0.47464 0.09286 0.0
C495 C 0.57468 0.47535 0.06259 0.0
C496 C 0.57571 0.502 0.04664 0.0
C497 C 0.58727 0.52803 0.06109 0.0
H498 H 0.36352 0.96374 0.32769 0.0
H499 H 0.34857 0.05769 0.33039 0.0
H500 H 0.36827 0.0604 0.38237 0.0
H501 H 0.34491 0.94928 0.40507 0.0
H502 H 0.3739 0.92309 0.41084 0.0
H503 H 0.35753 0.92774 0.37386 0.0
H504 H 0.40991 0.93899 0.35255 0.0
H505 H 0.42643 0.93373 0.38928 0.0
H506 H 0.43344 0.96766 0.3698 0.0
H507 H 0.3883 0.05329 0.43475 0.0
H508 H 0.41597 0.0381 0.48061 0.0
H509 H 0.42121 0.9499 0.44368 0.0
C510 C 0.3646 0.98491 0.33912 0.0
C511 C 0.35435 0.01047 0.32471 0.0
C512 C 0.35623 0.03772 0.34067 0.0
C513 C 0.36717 0.03951 0.37043 0.0
C514 C 0.3764 0.0139 0.38417 0.0
C515 C 0.37583 0.98721 0.36892 0.0
C516 C 0.38873 0.9634 0.38857 0.0
C517 C 0.36484 0.93945 0.39495 0.0
C518 C 0.41627 0.95018 0.3742 0.0
C519 C 0.39717 0.98108 0.41687 0.0
C520 C 0.38906 0.01 0.41414 0.0
C521 C 0.39465 0.03066 0.43724 0.0
C522 C 0.40999 0.02181 0.46337 0.0
C523 C 0.41998 0.99276 0.4659 0.0
C524 C 0.41305 0.97207 0.44255 0.0
H525 H 0.61467 0.47211 0.33744 0.0
H526 H 0.68379 0.54066 0.34786 0.0
H527 H 0.66642 0.55242 0.3984 0.0
H528 H 0.55798 0.51233 0.37225 0.0
H529 H 0.54105 0.48128 0.39082 0.0
H530 H 0.5608 0.47578 0.35661 0.0
H531 H 0.59468 0.43849 0.38343 0.0
H532 H 0.57507 0.44402 0.41781 0.0
H533 H 0.61509 0.44956 0.41732 0.0
H534 H 0.6414 0.55791 0.44775 0.0
H535 H 0.6065 0.56005 0.48998 0.0
H536 H 0.55115 0.49097 0.44708 0.0
C537 C 0.62636 0.48921 0.35063 0.0
C538 C 0.65073 0.50531 0.33867 0.0
C539 C 0.66505 0.528 0.35645 0.0
C540 C 0.65548 0.5348 0.38533 0.0
C541 C 0.63127 0.5189 0.39642 0.0
C542 C 0.61666 0.49675 0.37961 0.0
C543 C 0.58982 0.48472 0.39624 0.0
C544 C 0.56069 0.48879 0.37789 0.0
C545 C 0.59391 0.45226 0.40416 0.0
C546 C 0.59127 0.5041 0.42439 0.0
C547 C 0.61586 0.52311 0.42441 0.0
C548 C 0.62209 0.54304 0.44807 0.0
C549 C 0.60231 0.54399 0.47209 0.0
C550 C 0.57629 0.5256 0.47194 0.0
C551 C 0.57099 0.50521 0.44787 0.0
H552 H 0.17742 0.38888 0.96658 0.0
H553 H 0.18124 0.34932 0.0548 0.0
H554 H 0.13211 0.36855 0.06593 0.0
H555 H 0.14301 0.45555 0.99221 0.0
H556 H 0.12027 0.45919 0.95855 0.0
H557 H 0.15552 0.44123 0.95692 0.0
H558 H 0.12853 0.39501 0.93307 0.0
H559 H 0.09315 0.41277 0.93502 0.0
H560 H 0.09797 0.37756 0.95236 0.0
H561 H 0.08114 0.39167 0.06779 0.0
H562 H 0.03622 0.42225 0.06159 0.0
H563 H 0.06635 0.448 0.9737 0.0
C564 C 0.16799 0.3844 0.98824 0.0
C565 C 0.1836 0.36764 0.00973 0.0
C566 C 0.1702 0.36235 0.03788 0.0
C567 C 0.14199 0.37298 0.04447 0.0
C568 C 0.12714 0.38923 0.02287 0.0
C569 C 0.13984 0.39533 0.9955 0.0
C570 C 0.11973 0.41471 0.97697 0.0
C571 C 0.13557 0.44443 0.9708 0.0
C572 C 0.10923 0.39907 0.94761 0.0
C573 C 0.09394 0.41832 0.99808 0.0
C574 C 0.09834 0.4032 0.02435 0.0
C575 C 0.07744 0.40365 0.04725 0.0
C576 C 0.05184 0.42082 0.04351 0.0
C577 C 0.0477 0.43746 0.01722 0.0
C578 C 0.06881 0.4355 0.99412 0.0
H579 H 0.1829 0.64153 0.5129 0.0
H580 H 0.1909 0.67293 0.4218 0.0
H581 H 0.14045 0.65164 0.40906 0.0
H582 H 0.14145 0.57294 0.49465 0.0
H583 H 0.11918 0.57578 0.52765 0.0
H584 H 0.15671 0.59121 0.52803 0.0
H585 H 0.13642 0.64174 0.54405 0.0
H586 H 0.09877 0.62667 0.54304 0.0
H587 H 0.10809 0.65848 0.52101 0.0
H588 H 0.08659 0.63029 0.40811 0.0
H589 H 0.03743 0.60602 0.41752 0.0
H590 H 0.06633 0.58977 0.50939 0.0
C591 C 0.17444 0.64341 0.49002 0.0
C592 C 0.19098 0.65874 0.46828 0.0
C593 C 0.17884 0.66091 0.43872 0.0
C594 C 0.15009 0.64913 0.43137 0.0
C595 C 0.13395 0.63516 0.45379 0.0
C596 C 0.146 0.63189 0.48238 0.0
C597 C 0.12409 0.61687 0.50284 0.0
C598 C 0.13607 0.58745 0.51393 0.0
C599 C 0.11639 0.63715 0.52929 0.0
C600 C 0.09767 0.61219 0.4814 0.0
C601 C 0.10353 0.62301 0.45324 0.0
C602 C 0.08192 0.62157 0.43004 0.0
C603 C 0.05397 0.60803 0.43566 0.0
C604 C 0.04806 0.59602 0.46417 0.0
C605 C 0.07017 0.59859 0.48729 0.0
H606 H 0.83094 0.86293 0.47677 0.0
H607 H 0.8341 0.86656 0.57422 0.0
H608 H 0.88585 0.88739 0.57305 0.0
H609 H 0.90754 0.842 0.46795 0.0
H610 H 0.91266 0.86355 0.43469 0.0
H611 H 0.87607 0.84879 0.44321 0.0
H612 H 0.85453 0.90102 0.44126 0.0
H613 H 0.89086 0.91584 0.43221 0.0
H614 H 0.87175 0.93012 0.46417 0.0
H615 H 0.93741 0.90834 0.56095 0.0
H616 H 0.98211 0.93216 0.53913 0.0
H617 H 0.94526 0.91497 0.44965 0.0
C618 C 0.8423 0.86832 0.49797 0.0
C619 C 0.82815 0.86324 0.52568 0.0
C620 C 0.84422 0.87035 0.55274 0.0
C621 C 0.87374 0.88202 0.55227 0.0
C622 C 0.88709 0.88623 0.52456 0.0
C623 C 0.87175 0.8798 0.49791 0.0
C624 C 0.89087 0.88679 0.47108 0.0
C625 C 0.89715 0.8586 0.45317 0.0
C626 C 0.87613 0.90982 0.45101 0.0
C627 C 0.91916 0.89908 0.4867 0.0
C628 C 0.91672 0.89802 0.51759 0.0
C629 C 0.93963 0.90889 0.53683 0.0
C630 C 0.96513 0.92206 0.52425 0.0
C631 C 0.96763 0.92438 0.49275 0.0
C632 C 0.94448 0.91237 0.47376 0.0
H633 H 0.35077 0.68908 0.52253 0.0
H634 H 0.29403 0.6266 0.56881 0.0
H635 H 0.33742 0.59476 0.57729 0.0
H636 H 0.39504 0.64191 0.48438 0.0
H637 H 0.42991 0.66226 0.49052 0.0
H638 H 0.39523 0.68114 0.49103 0.0
H639 H 0.40908 0.70182 0.54427 0.0
H640 H 0.4438 0.68263 0.544 0.0
H641 H 0.41811 0.67675 0.57395 0.0
H642 H 0.38611 0.56794 0.57682 0.0
H643 H 0.43448 0.54676 0.56434 0.0
H644 H 0.46005 0.62667 0.51869 0.0
C645 C 0.34765 0.66884 0.53479 0.0
C646 C 0.31906 0.66021 0.54505 0.0
C647 C 0.31579 0.63371 0.56107 0.0
C648 C 0.34034 0.61556 0.56602 0.0
C649 C 0.36828 0.62468 0.55565 0.0
C650 C 0.37213 0.65089 0.54066 0.0
C651 C 0.40434 0.65525 0.53123 0.0
C652 C 0.40622 0.66041 0.49727 0.0
C653 C 0.41974 0.68064 0.54942 0.0
C654 C 0.41726 0.62608 0.54034 0.0
C655 C 0.39643 0.60933 0.55562 0.0
C656 C 0.40275 0.58117 0.5655 0.0
C657 C 0.4305 0.56945 0.55867 0.0
C658 C 0.45153 0.5855 0.54159 0.0
C659 C 0.44501 0.61445 0.5329 0.0
H660 H 0.47941 0.67071 0.84337 0.0
H661 H 0.57137 0.70133 0.85856 0.0
H662 H 0.58379 0.65313 0.87955 0.0
H663 H 0.47265 0.63012 0.91031 0.0
H664 H 0.45004 0.60072 0.89314 0.0
H665 H 0.44937 0.63703 0.87766 0.0
H666 H 0.46368 0.61532 0.826 0.0
H667 H 0.4652 0.57901 0.8417 0.0
H668 H 0.49722 0.59458 0.82323 0.0
H669 H 0.58601 0.60139 0.90085 0.0
H670 H 0.57544 0.55474 0.92733 0.0
H671 H 0.4825 0.55803 0.8989 0.0
C672 C 0.50213 0.66738 0.85124 0.0
C673 C 0.52431 0.69013 0.84937 0.0
C674 C 0.55384 0.68449 0.85975 0.0
C675 C 0.56124 0.65699 0.87151 0.0
C676 C 0.53901 0.63494 0.87261 0.0
C677 C 0.50997 0.63994 0.863 0.0
C678 C 0.48991 0.61308 0.86807 0.0
C679 C 0.46398 0.6207 0.88853 0.0
C680 C 0.47831 0.59972 0.83796 0.0
C681 C 0.51177 0.5928 0.88341 0.0
C682 C 0.54024 0.60538 0.88497 0.0
C683 C 0.56385 0.5912 0.89936 0.0
C684 C 0.55782 0.56437 0.91392 0.0
C685 C 0.52837 0.55225 0.91439 0.0
C686 C 0.50542 0.56623 0.89798 0.0
H687 H 0.54825 0.87249 0.83234 0.0
H688 H 0.50271 0.80929 0.88877 0.0
H689 H 0.48424 0.84971 0.91967 0.0
H690 H 0.56966 0.92664 0.89218 0.0
H691 H 0.56222 0.95824 0.86943 0.0
H692 H 0.57355 0.92451 0.85202 0.0
H693 H 0.52618 0.92442 0.81738 0.0
H694 H 0.51449 0.95793 0.83505 0.0
H695 H 0.4899 0.92581 0.83389 0.0
H696 H 0.4676 0.89465 0.94206 0.0
H697 H 0.45847 0.94383 0.96131 0.0
H698 H 0.51524 0.98208 0.89336 0.0
C699 C 0.53511 0.86732 0.85176 0.0
C700 C 0.52734 0.8376 0.85857 0.0
C701 C 0.5092 0.83173 0.88342 0.0
C702 C 0.49843 0.85458 0.90096 0.0
C703 C 0.50567 0.88346 0.89332 0.0
C704 C 0.52383 0.89019 0.86966 0.0
C705 C 0.52721 0.92363 0.86658 0.0
C706 C 0.56013 0.93386 0.87028 0.0
C707 C 0.51365 0.93353 0.83643 0.0
C708 C 0.50878 0.93434 0.89275 0.0
C709 C 0.4962 0.91041 0.90715 0.0
C710 C 0.47763 0.91357 0.93129 0.0
C711 C 0.4726 0.94181 0.94204 0.0
C712 C 0.48648 0.96706 0.92932 0.0
C713 C 0.50427 0.96335 0.90363 0.0
H714 H 0.506 0.32339 0.6059 0.0
H715 H 0.45172 0.34643 0.68138 0.0
H716 H 0.45074 0.39786 0.66416 0.0
H717 H 0.54979 0.38867 0.60252 0.0
H718 H 0.54941 0.39108 0.56216 0.0
H719 H 0.54536 0.35575 0.57965 0.0
H720 H 0.49547 0.3455 0.54995 0.0
H721 H 0.49959 0.3807 0.53209 0.0
H722 H 0.46611 0.37169 0.55209 0.0
H723 H 0.46095 0.4477 0.64246 0.0
H724 H 0.47403 0.49153 0.61247 0.0
H725 H 0.51627 0.4359 0.54733 0.0
C726 C 0.49329 0.33918 0.61828 0.0
C727 C 0.47852 0.33093 0.64474 0.0
C728 C 0.46254 0.35219 0.6607 0.0
C729 C 0.46214 0.3815 0.65125 0.0
C730 C 0.47718 0.38908 0.62533 0.0
C731 C 0.49174 0.36841 0.60853 0.0
C732 C 0.50538 0.38239 0.58105 0.0
C733 C 0.53951 0.37928 0.58139 0.0
C734 C 0.49077 0.36929 0.55207 0.0
C735 C 0.49704 0.41423 0.5856 0.0
C736 C 0.48113 0.41762 0.61154 0.0
C737 C 0.47276 0.44523 0.62173 0.0
C738 C 0.48037 0.46997 0.60469 0.0
C739 C 0.49562 0.46687 0.57751 0.0
C740 C 0.50406 0.43866 0.56781 0.0
H741 H 0.53086 0.16594 0.66652 0.0
H742 H 0.52294 0.22392 0.59052 0.0
H743 H 0.51412 0.18072 0.55666 0.0
H744 H 0.56808 0.10566 0.626 0.0
H745 H 0.54851 0.07728 0.64626 0.0
H746 H 0.55682 0.11256 0.66395 0.0
H747 H 0.50067 0.1179 0.67483 0.0
H748 H 0.4921 0.08288 0.6568 0.0
H749 H 0.47356 0.11533 0.64419 0.0
H750 H 0.50336 0.13234 0.53191 0.0
H751 H 0.49309 0.0811 0.51623 0.0
H752 H 0.50694 0.05275 0.6082 0.0
C753 C 0.52828 0.16931 0.64257 0.0
C754 C 0.52861 0.19805 0.63074 0.0
C755 C 0.52377 0.20198 0.59964 0.0
C756 C 0.5185 0.1776 0.58039 0.0
C757 C 0.51799 0.14952 0.59272 0.0
C758 C 0.52298 0.14514 0.62302 0.0
C759 C 0.52012 0.11263 0.63048 0.0
C760 C 0.55017 0.10136 0.64238 0.0
C761 C 0.49512 0.10686 0.65291 0.0
C762 C 0.51198 0.09947 0.59971 0.0
C763 C 0.51115 0.12129 0.57836 0.0
C764 C 0.50419 0.11505 0.54836 0.0
C765 C 0.4984 0.08575 0.53971 0.0
C766 C 0.49936 0.06272 0.5609 0.0
C767 C 0.50594 0.06979 0.59147 0.0
H768 H 0.87536 0.57039 0.67479 0.0
H769 H 0.83582 0.48266 0.66073 0.0
H770 H 0.85321 0.48204 0.6092 0.0
H771 H 0.86171 0.59618 0.59715 0.0
H772 H 0.89714 0.61587 0.59539 0.0
H773 H 0.87912 0.6117 0.63092 0.0
H774 H 0.92638 0.58791 0.65362 0.0
H775 H 0.94466 0.59274 0.61845 0.0
H776 H 0.94177 0.5567 0.63476 0.0
H777 H 0.87413 0.48977 0.55915 0.0
H778 H 0.90791 0.50076 0.51759 0.0
H779 H 0.93879 0.5809 0.56347 0.0
C780 C 0.87041 0.55111 0.66083 0.0
C781 C 0.85412 0.52662 0.67216 0.0
C782 C 0.84836 0.50173 0.65303 0.0
C783 C 0.85781 0.50123 0.62338 0.0
C784 C 0.87336 0.52566 0.61278 0.0
C785 C 0.88035 0.54989 0.63098 0.0
C786 C 0.89996 0.57186 0.61436 0.0
C787 C 0.8835 0.60062 0.60917 0.0
C788 C 0.92998 0.57762 0.6313 0.0
C789 C 0.90384 0.55548 0.58473 0.0
C790 C 0.8871 0.52949 0.58393 0.0
C791 C 0.88713 0.51021 0.55933 0.0
C792 C 0.90601 0.51686 0.53554 0.0
C793 C 0.92512 0.54215 0.53681 0.0
C794 C 0.92344 0.56208 0.56137 0.0
H795 H 0.12623 0.02594 0.68304 0.0
H796 H 0.14382 0.93268 0.68859 0.0
H797 H 0.12011 0.92453 0.63865 0.0
H798 H 0.05243 0.0155 0.64249 0.0
H799 H 0.05835 0.04805 0.62046 0.0
H800 H 0.07445 0.0462 0.65788 0.0
H801 H 0.12679 0.05802 0.63674 0.0
H802 H 0.11103 0.05929 0.5992 0.0
H803 H 0.14095 0.03477 0.60761 0.0
H804 H 0.10222 0.92743 0.58608 0.0
H805 H 0.08156 0.93926 0.53623 0.0
H806 H 0.07076 0.02988 0.56496 0.0
C807 C 0.12439 1.0037 0.67406 0.0
C808 C 0.1369 0.97994 0.68973 0.0
C809 C 0.13423 0.95119 0.67716 0.0
C810 C 0.12096 0.94634 0.6487 0.0
C811 C 0.10993 0.97036 0.6334 0.0
C812 C 0.11065 0.99833 0.64585 0.0
C813 C 0.09732 0.02023 0.62425 0.0
C814 C 0.06894 0.03327 0.63703 0.0
C815 C 0.12041 0.04451 0.6165 0.0
C816 C 0.08994 1.0003 0.59737 0.0
C817 C 0.09778 0.9717 0.6032 0.0
C818 C 0.09537 0.94958 0.58142 0.0
C819 C 0.08393 0.95664 0.55307 0.0
C820 C 0.07456 0.9855 0.54682 0.0
C821 C 0.07757 0.00764 0.56929 0.0
H822 H 0.8744 0.51911 0.82097 0.0
H823 H 0.822 0.43751 0.82489 0.0
H824 H 0.84034 0.43032 0.87696 0.0
H825 H 0.93871 0.49221 0.86234 0.0
H826 H 0.94708 0.52694 0.88113 0.0
H827 H 0.92888 0.52615 0.84459 0.0
H828 H 0.88582 0.55638 0.86586 0.0
H829 H 0.90372 0.5568 0.90257 0.0
H830 H 0.86581 0.54276 0.89769 0.0
H831 H 0.86188 0.4338 0.93033 0.0
H832 H 0.89241 0.44263 0.97684 0.0
H833 H 0.93509 0.51863 0.93644 0.0
C834 C 0.86697 0.49962 0.83271 0.0
C835 C 0.84673 0.47884 0.81872 0.0
C836 C 0.83767 0.45361 0.83493 0.0
C837 C 0.84774 0.44947 0.86468 0.0
C838 C 0.8673 0.47053 0.87796 0.0
C839 C 0.87739 0.49476 0.86227 0.0
C840 C 0.89976 0.51318 0.88123 0.0
C841 C 0.93043 0.51469 0.86644 0.0
C842 C 0.88807 0.54411 0.88718 0.0
C843 C 0.90076 0.49546 0.90988 0.0
C844 C 0.88128 0.47137 0.90785 0.0
C845 C 0.87751 0.4524 0.93196 0.0
C846 C 0.89487 0.45762 0.95839 0.0
C847 C 0.91646 0.481 0.96022 0.0
C848 C 0.91891 0.50043 0.93573 0.0
H849 H 0.11992 0.00649 0.81945 0.0
H850 H 0.1835 0.07908 0.83584 0.0
H851 H 0.1615 0.08818 0.88534 0.0
H852 H 0.05716 0.04332 0.85387 0.0
H853 H 0.0415 0.00975 0.86878 0.0
H854 H 0.06248 0.00873 0.83482 0.0
H855 H 0.0976 0.9708 0.8588 0.0
H856 H 0.07692 0.97194 0.89293 0.0
H857 H 0.11667 0.97963 0.89406 0.0
H858 H 0.13557 0.08661 0.93476 0.0
H859 H 0.10227 0.07977 0.97762 0.0
H860 H 0.05171 0.0118 0.92753 0.0
C861 C 0.12897 0.02447 0.83338 0.0
C862 C 0.15343 0.04214 0.82382 0.0
C863 C 0.16461 0.06551 0.84259 0.0
C864 C 0.1524 0.07069 0.87083 0.0
C865 C 0.12855 0.05272 0.87976 0.0
C866 C 0.11645 0.03052 0.86133 0.0
C867 C 0.08996 0.01528 0.87589 0.0
C868 C 0.06106 0.01953 0.85723 0.0
C869 C 0.09564 0.98247 0.8807 0.0
C870 C 0.0895 0.03197 0.90561 0.0
C871 C 0.11227 0.05316 0.90752 0.0
C872 C 0.11742 0.07036 0.93336 0.0
C873 C 0.09853 0.06617 0.9577 0.0
C874 C 0.07438 0.04535 0.95591 0.0
C875 C 0.06987 0.02805 0.92945 0.0
H876 H 0.68551 0.88858 0.53675 0.0
H877 H 0.65949 0.84182 0.45427 0.0
H878 H 0.60757 0.85774 0.45963 0.0
H879 H 0.61655 0.87613 0.57659 0.0
H880 H 0.61658 0.91258 0.59295 0.0
H881 H 0.65145 0.89593 0.58427 0.0
H882 H 0.66624 0.94029 0.55122 0.0
H883 H 0.63192 0.95739 0.56061 0.0
H884 H 0.64081 0.95154 0.52178 0.0
H885 H 0.55796 0.87703 0.47495 0.0
H886 H 0.51773 0.90944 0.4906 0.0
H887 H 0.57661 0.94825 0.55979 0.0
C888 C 0.66891 0.88195 0.51968 0.0
C889 C 0.67663 0.86404 0.49497 0.0
C890 C 0.65426 0.85585 0.47313 0.0
C891 C 0.62457 0.86439 0.47626 0.0
C892 C 0.61756 0.88148 0.50118 0.0
C893 C 0.63926 0.89097 0.52201 0.0
C894 C 0.62631 0.91158 0.54507 0.0
C895 C 0.62783 0.89825 0.57659 0.0
C896 C 0.64225 0.94201 0.54462 0.0
C897 C 0.59412 0.91271 0.53354 0.0
C898 C 0.58931 0.8942 0.50894 0.0
C899 C 0.56145 0.89153 0.49425 0.0
C900 C 0.53848 0.90961 0.5037 0.0
C901 C 0.54372 0.93074 0.527 0.0
C902 C 0.57161 0.93153 0.54272 0.0
H903 H 0.66277 0.17889 0.95746 0.0
H904 H 0.70334 0.13642 0.03448 0.0
H905 H 0.65788 0.1055 0.03976 0.0
H906 H 0.58927 0.18104 0.98781 0.0
H907 H 0.56924 0.17383 0.95275 0.0
H908 H 0.60565 0.19189 0.95295 0.0
H909 H 0.62464 0.15185 0.91683 0.0
H910 H 0.58817 0.13394 0.91627 0.0
H911 H 0.62073 0.11364 0.92679 0.0
H912 H 0.60882 0.08197 0.03973 0.0
H913 H 0.55824 0.06201 0.03199 0.0
H914 H 0.54604 0.11741 0.95385 0.0
C915 C 0.66221 0.16254 0.97491 0.0
C916 C 0.68674 0.15979 0.99543 0.0
C917 C 0.68491 0.1388 0.01852 0.0
C918 C 0.65915 0.12118 0.02174 0.0
C919 C 0.63516 0.12488 1.00182 0.0
C920 C 0.63626 0.14473 0.97867 0.0
C921 C 0.60638 0.14453 0.96132 0.0
C922 C 0.59178 0.17462 0.96386 0.0
C923 C 0.61022 0.13544 0.92834 0.0
C924 C 0.5887 0.12114 0.97818 0.0
C925 C 0.60597 0.11062 1.00163 0.0
C926 C 0.59514 0.08973 0.02125 0.0
C927 C 0.56611 0.07854 0.01653 0.0
C928 C 0.54786 0.08775 0.992 0.0
C929 C 0.55926 0.10983 0.97276 0.0
H930 H 0.34047 0.35445 0.98134 0.0
H931 H 0.33618 0.37134 0.07719 0.0
H932 H 0.38525 0.39804 0.07598 0.0
H933 H 0.42133 0.34289 0.98133 0.0
H934 H 0.42586 0.35962 0.94519 0.0
H935 H 0.39102 0.34112 0.95387 0.0
H936 H 0.36241 0.38825 0.94141 0.0
H937 H 0.39705 0.40686 0.93256 0.0
H938 H 0.37321 0.42239 0.96027 0.0
H939 H 0.43313 0.4256 0.06357 0.0
H940 H 0.4759 0.45216 0.04131 0.0
H941 H 0.45052 0.41602 0.95359 0.0
C942 C 0.34978 0.36378 1.00215 0.0
C943 C 0.33421 0.361 0.02942 0.0
C944 C 0.34754 0.37318 0.05609 0.0
C945 C 0.37545 0.38834 0.05558 0.0
C946 C 0.39009 0.39068 0.02831 0.0
C947 C 0.37779 0.37855 1.00211 0.0
C948 C 0.398 0.38429 0.97572 0.0
C949 C 0.40975 0.35525 0.96329 0.0
C950 C 0.38169 0.40148 0.95104 0.0
C951 C 0.42308 0.40275 0.99084 0.0
C952 C 0.41819 0.40579 0.0213 0.0
C953 C 0.43737 0.42294 0.0399 0.0
C954 C 0.46171 0.43783 0.02708 0.0
C955 C 0.46698 0.43555 0.99593 0.0
C956 C 0.4476 0.4174 0.97762 0.0
H957 H 0.82278 0.13651 0.06975 0.0
H958 H 0.84292 0.19915 1.00005 0.0
H959 H 0.89499 0.18419 1.00031 0.0
H960 H 0.89794 0.1345 0.10784 0.0
H961 H 0.89695 0.095 0.11089 0.0
H962 H 0.86265 0.11484 0.11133 0.0
H963 H 0.84129 0.08313 0.0665 0.0
H964 H 0.87526 0.06295 0.0664 0.0
H965 H 0.86241 0.08068 0.03268 0.0
H966 H 0.9443 0.1624 0.00619 0.0
H967 H 0.98354 0.1254 0.00564 0.0
H968 H 0.93074 0.06977 0.06345 0.0
C969 C 0.83844 0.14741 0.05513 0.0
C970 C 0.82919 0.17036 0.03617 0.0
C971 C 0.84985 0.18281 0.016 0.0
C972 C 0.87957 0.17439 0.01591 0.0
C973 C 0.88831 0.15223 0.03509 0.0
C974 C 0.86817 0.13793 0.0534 0.0
C975 C 0.8822 0.1109 0.06698 0.0
C976 C 0.88509 0.114 0.10131 0.0
C977 C 0.86423 0.08275 0.05756 0.0
C978 C 0.91288 0.11216 0.05289 0.0
C979 C 0.91626 0.13703 0.03574 0.0
C980 C 0.94211 0.14291 0.01976 0.0
C981 C 0.96452 0.12202 0.0199 0.0
C982 C 0.96057 0.0953 0.03525 0.0
C983 C 0.93479 0.09063 0.05259 0.0
H984 H 0.07244 0.18937 0.25151 0.0
H985 H 1.00066 0.24328 0.21893 0.0
H986 H 0.98927 0.20773 0.17764 0.0
H987 H 0.09718 0.16561 0.17794 0.0
H988 H 0.10542 0.12918 0.19071 0.0
H989 H 0.10794 0.15985 0.21666 0.0
H990 H 0.07119 0.13191 0.25124 0.0
H991 H 0.06761 0.10168 0.2247 0.0
H992 H 0.0348 0.12022 0.23656 0.0
H993 H 0.98469 0.16567 0.14073 0.0
H994 H 0.99365 0.12451 0.10544 0.0
H995 H 0.06748 0.09752 0.16236 0.0
C996 C 0.05501 0.19402 0.23508 0.0
C997 C 0.03778 0.21926 0.23786 0.0
C998 C 0.0144 0.22424 0.21667 0.0
C999 C 0.0075 0.204 0.19344 0.0
C1000 C 0.02402 0.17866 0.19193 0.0
C1001 C 0.04764 0.17383 0.21179 0.0
C1002 C 0.06208 0.145 0.20479 0.0
C1003 C 0.0951 0.15022 0.19704 0.0
C1004 C 0.05872 0.12344 0.23089 0.0
C1005 C 0.0433 0.13474 0.17764 0.0
C1006 C 0.02104 0.15416 0.17092 0.0
C1007 C 1.00179 0.15005 0.14593 0.0
C1008 C 0.00661 0.12635 0.1263 0.0
C1009 C 0.03056 0.10747 0.13185 0.0
C1010 C 0.04829 0.11108 0.15838 0.0
H1011 H 0.97466 0.2877 0.21717 0.0
H1012 H 0.9799 0.35659 0.28511 0.0
H1013 H 0.98255 0.3942 0.24538 0.0
H1014 H 0.02745 0.32125 0.16931 0.0
H1015 H 0.00881 0.30921 0.13479 0.0
H1016 H 0.00489 0.28773 0.16827 0.0
H1017 H 0.94714 0.29064 0.16409 0.0
H1018 H 0.95092 0.31118 0.13006 0.0
H1019 H 0.9304 0.32608 0.16075 0.0
H1020 H 0.98797 0.42406 0.19773 0.0
H1021 H 0.98669 0.44395 0.14622 0.0
H1022 H 0.97879 0.35515 0.10979 0.0
C1023 C 0.9751 0.31073 0.22355 0.0
C1024 C 0.97572 0.31941 0.25409 0.0
C1025 C 0.97799 0.34969 0.26175 0.0
C1026 C 0.98011 0.37111 0.23936 0.0
C1027 C 0.98043 0.3618 0.20941 0.0
C1028 C 0.97748 0.33233 0.20147 0.0
C1029 C 0.9791 0.32801 0.16778 0.0
C1030 C 0.0067 0.3105 0.15957 0.0
C1031 C 0.95016 0.31312 0.15491 0.0
C1032 C 0.98247 0.35966 0.1579 0.0
C1033 C 0.98393 0.37883 0.18224 0.0
C1034 C 0.98686 0.40922 0.17852 0.0
C1035 C 0.98662 0.42033 0.14916 0.0
C1036 C 0.98308 0.40108 0.124 0.0
C1037 C 0.98202 0.37036 0.12858 0.0
H1038 H 0.05951 0.8586 0.23078 0.0
H1039 H 0.04678 0.77853 0.28102 0.0
H1040 H 0.03674 0.80771 0.3266 0.0
H1041 H 0.10126 0.89736 0.2939 0.0
H1042 H 0.0867 0.9326 0.28403 0.0
H1043 H 0.09162 0.9051 0.2553 0.0
H1044 H 0.03582 0.90956 0.23931 0.0
H1045 H 0.03048 0.93616 0.2689 0.0
H1046 H 0.00734 0.90306 0.26654 0.0
H1047 H 0.02143 0.84481 0.36399 0.0
H1048 H 0.02248 0.88719 0.39896 0.0
H1049 H 0.05544 0.94363 0.32866 0.0
C1050 C 0.0557 0.84738 0.2517 0.0
C1051 C 0.0536 0.81635 0.25266 0.0
C1052 C 0.04815 0.80228 0.28012 0.0
C1053 C 0.04213 0.81865 0.30591 0.0
C1054 C 0.04273 0.84917 0.304 0.0
C1055 C 0.05111 0.86351 0.27822 0.0
C1056 C 0.05306 0.89658 0.28354 0.0
C1057 C 0.08506 0.90861 0.27893 0.0
C1058 C 0.03033 0.91226 0.26336 0.0
C1059 C 0.04452 0.89837 0.3163 0.0
C1060 C 0.0372 0.87078 0.327 0.0
C1061 C 0.02751 0.86653 0.35609 0.0
C1062 C 0.02757 0.89086 0.37561 0.0
C1063 C 0.03854 0.91868 0.36631 0.0
C1064 C 0.04617 0.92274 0.33601 0.0
H1065 H 0.96826 0.67776 0.23209 0.0
H1066 H 0.00672 0.74784 0.28861 0.0
H1067 H 0.00961 0.71391 0.33154 0.0
H1068 H 0.92191 0.64597 0.28845 0.0
H1069 H 0.92672 0.60885 0.27514 0.0
H1070 H 0.92931 0.63893 0.24946 0.0
H1071 H 0.98188 0.62186 0.23473 0.0
H1072 H 0.97972 0.59232 0.26127 0.0
H1073 H 0.01067 0.61861 0.26345 0.0
H1074 H 0.00598 0.67261 0.3688 0.0
H1075 H 0.98867 0.63011 0.39868 0.0
H1076 H 0.95447 0.58675 0.31722 0.0
C1077 C 0.97668 0.68598 0.25372 0.0
C1078 C 0.98696 0.71535 0.25743 0.0
C1079 C 0.99867 0.72534 0.28564 0.0
C1080 C 1.0006 0.70619 0.30998 0.0
C1081 C 0.99095 0.67704 0.30552 0.0
C1082 C 0.97879 0.66711 0.27821 0.0
C1083 C 0.96845 0.63528 0.2797 0.0
C1084 C 0.9346 0.63208 0.27281 0.0
C1085 C 0.98625 0.61588 0.25852 0.0
C1086 C 0.97603 0.62904 0.31227 0.0
C1087 C 0.98947 0.65319 0.32676 0.0
C1088 C 0.99591 0.65336 0.35764 0.0
C1089 C 0.9865 0.62895 0.37441 0.0
C1090 C 0.97075 0.60506 0.3601 0.0
C1091 C 0.96714 0.60449 0.32853 0.0
H1092 H 0.26226 0.01611 0.15907 0.0
H1093 H 0.21599 0.95275 0.21417 0.0
H1094 H 0.17258 0.95212 0.17808 0.0
H1095 H 0.20233 0.0578 0.14666 0.0
H1096 H 0.21199 0.06859 0.10928 0.0
H1097 H 0.2408 0.05866 0.13562 0.0
H1098 H 0.25861 0.01889 0.09833 0.0
H1099 H 0.2297 0.02884 0.07175 0.0
H1100 H 0.23229 0.99121 0.0836 0.0
H1101 H 0.13025 0.96865 0.14228 0.0
H1102 H 0.09632 0.99873 0.11091 0.0
H1103 H 0.17318 0.04627 0.0769 0.0
C1104 C 0.2435 1.00109 0.1628 0.0
C1105 C 0.24244 0.98413 0.18892 0.0
C1106 C 0.21732 0.96538 0.19378 0.0
C1107 C 0.1926 0.96503 0.17347 0.0
C1108 C 0.19384 0.98313 0.14834 0.0
C1109 C 0.21907 1.00039 0.14283 0.0
C1110 C 0.21402 0.02096 0.1171 0.0
C1111 C 0.21747 0.05338 0.12781 0.0
C1112 C 0.2349 0.01456 0.09115 0.0
C1113 C 0.18198 0.0128 0.10879 0.0
C1114 C 0.17026 0.99125 0.12711 0.0
C1115 C 0.13946 0.98467 0.12703 0.0
C1116 C 0.1203 1.00155 0.10891 0.0
C1117 C 0.13233 0.02434 0.09117 0.0
C1118 C 0.16353 0.02839 0.08969 0.0
H1119 H 0.77092 0.44233 0.21297 0.0
H1120 H 0.74187 0.52576 0.17803 0.0
H1121 H 0.78316 0.52653 0.14271 0.0
H1122 H 0.84952 0.45846 0.20915 0.0
H1123 H 0.8589 0.42187 0.19742 0.0
H1124 H 0.82652 0.4273 0.21982 0.0
H1125 H 0.79271 0.40018 0.17944 0.0
H1126 H 0.82509 0.39414 0.15726 0.0
H1127 H 0.79338 0.41235 0.1411 0.0
H1128 H 0.82872 0.5187 0.11086 0.0
H1129 H 0.87131 0.49938 0.08241 0.0
H1130 H 0.87098 0.42253 0.13909 0.0
C1131 C 0.77296 0.46046 0.19756 0.0
C1132 C 0.75302 0.4839 0.19838 0.0
C1133 C 0.75685 0.50749 0.17801 0.0
C1134 C 0.78036 0.50827 0.15784 0.0
C1135 C 0.80014 0.48532 0.15812 0.0
C1136 C 0.79652 0.4617 0.17721 0.0
C1137 C 0.82077 0.43975 0.17271 0.0
C1138 C 0.84007 0.43667 0.20149 0.0
C1139 C 0.80718 0.40984 0.16198 0.0
C1140 C 0.83835 0.45466 0.14821 0.0
C1141 C 0.82632 0.48103 0.14008 0.0
C1142 C 0.83846 0.49808 0.11712 0.0
C1143 C 0.86283 0.48722 0.10129 0.0
C1144 C 0.87449 0.4596 0.10858 0.0
C1145 C 0.86259 0.44382 0.133 0.0
H1146 H 0.22552 0.99531 0.30039 0.0
H1147 H 0.23834 0.08926 0.31579 0.0
H1148 H 0.19945 0.08726 0.3547 0.0
H1149 H 0.14551 0.99131 0.3103 0.0
H1150 H 0.14717 0.95616 0.32843 0.0
H1151 H 0.17425 0.96608 0.30082 0.0
H1152 H 0.21731 0.95679 0.33943 0.0
H1153 H 0.1904 0.94684 0.36709 0.0
H1154 H 0.21792 0.97576 0.37524 0.0
H1155 H 0.16044 0.07278 0.39513 0.0
H1156 H 0.12709 0.04752 0.43144 0.0
H1157 H 0.14163 0.96439 0.38637 0.0
C1158 C 0.22007 0.01565 0.31165 0.0
C1159 C 0.23494 0.04246 0.30512 0.0
C1160 C 0.22701 0.0685 0.32038 0.0
C1161 C 0.20503 0.06752 0.3425 0.0
C1162 C 0.1911 0.04043 0.34867 0.0
C1163 C 0.19836 0.01507 0.33338 0.0
C1164 C 0.18153 0.98836 0.34443 0.0
C1165 C 0.16089 0.97469 0.31951 0.0
C1166 C 0.20308 0.96562 0.35731 0.0
C1167 C 0.16385 1.00239 0.36875 0.0
C1168 C 0.16929 0.03241 0.37108 0.0
C1169 C 0.15591 0.04931 0.39325 0.0
C1170 C 0.13697 0.03493 0.41368 0.0
C1171 C 0.13204 1.00411 0.41167 0.0
C1172 C 0.14522 0.98801 0.38855 0.0
H1173 H 0.76137 0.57218 0.33981 0.0
H1174 H 0.77605 0.48947 0.2932 0.0
H1175 H 0.80755 0.47342 0.33486 0.0
H1176 H 0.84063 0.57867 0.36396 0.0
H1177 H 0.83285 0.59702 0.39886 0.0
H1178 H 0.80805 0.60084 0.36685 0.0
H1179 H 0.76416 0.58254 0.39945 0.0
H1180 H 0.78945 0.57736 0.43099 0.0
H1181 H 0.76595 0.54707 0.41697 0.0
H1182 H 0.83512 0.46399 0.38051 0.0
H1183 H 0.87757 0.47062 0.41611 0.0
H1184 H 0.85208 0.56022 0.4334 0.0
C1185 C 0.77176 0.55104 0.33822 0.0
C1186 C 0.76522 0.53164 0.31368 0.0
C1187 C 0.77989 0.5044 0.31217 0.0
C1188 C 0.79749 0.49475 0.33597 0.0
C1189 C 0.80162 0.51307 0.36086 0.0
C1190 C 0.79097 0.54135 0.36153 0.0
C1191 C 0.80402 0.55807 0.38882 0.0
C1192 C 0.8225 0.58524 0.37904 0.0
C1193 C 0.7794 0.56677 0.41033 0.0
C1194 C 0.82373 0.53472 0.40268 0.0
C1195 C 0.82059 0.50853 0.38682 0.0
C1196 C 0.8379 0.48432 0.3933 0.0
C1197 C 0.86158 0.48798 0.41416 0.0
C1198 C 0.86817 0.51588 0.42724 0.0
C1199 C 0.84722 0.53852 0.42396 0.0
H1200 H 0.19058 0.23926 0.07487 0.0
H1201 H 0.1761 0.27157 0.98432 0.0
H1202 H 0.13113 0.24062 0.97828 0.0
H1203 H 0.17061 0.1667 0.05832 0.0
H1204 H 0.15166 0.1594 0.09279 0.0
H1205 H 0.1805 0.18766 0.09194 0.0
H1206 H 0.14323 0.22528 0.11224 0.0
H1207 H 0.11408 0.19704 0.11245 0.0
H1208 H 0.10836 0.23053 0.09214 0.0
H1209 H 0.09352 0.20032 0.97729 0.0
H1210 H 0.06712 0.15211 0.98263 0.0
H1211 H 0.10077 0.14785 0.07436 0.0
C1212 C 0.17756 0.24023 0.05411 0.0
C1213 C 0.18729 0.25791 0.03021 0.0
C1214 C 0.16963 0.25819 1.00315 0.0
C1215 C 0.14362 0.24084 0.99942 0.0
C1216 C 0.13484 0.22334 0.023 0.0
C1217 C 0.15107 0.22292 0.04992 0.0
C1218 C 0.13805 0.19976 0.07036 0.0
C1219 C 0.16159 0.17704 0.07882 0.0
C1220 C 0.12516 0.21401 0.09847 0.0
C1221 C 0.11329 0.18641 0.05 0.0
C1222 C 0.1115 0.20065 0.02291 0.0
C1223 C 0.09374 0.18952 0.99879 0.0
C1224 C 0.07853 0.16232 1.00199 0.0
C1225 C 0.08104 0.14697 0.02916 0.0
C1226 C 0.09737 0.15995 0.05383 0.0
H1227 H 0.20305 0.80299 0.54582 0.0
H1228 H 0.15311 0.72932 0.50506 0.0
H1229 H 0.11111 0.76173 0.49311 0.0
H1230 H 0.13594 0.84344 0.57486 0.0
H1231 H 0.1526 0.87873 0.56596 0.0
H1232 H 0.176 0.84886 0.57698 0.0
H1233 H 0.20556 0.85421 0.52797 0.0
H1234 H 0.18266 0.88425 0.51716 0.0
H1235 H 0.18552 0.8529 0.49231 0.0
H1236 H 0.07831 0.80309 0.4785 0.0
H1237 H 0.06033 0.84993 0.45832 0.0
H1238 H 0.13079 0.89742 0.50822 0.0
C1239 C 0.18263 0.79357 0.53569 0.0
C1240 C 0.18066 0.76348 0.52743 0.0
C1241 C 0.15447 0.75211 0.5125 0.0
C1242 C 0.13054 0.77039 0.50562 0.0
C1243 C 0.13312 0.80011 0.51376 0.0
C1244 C 0.15853 0.81166 0.5285 0.0
C1245 C 0.15732 0.84492 0.53116 0.0
C1246 C 0.15535 0.85456 0.56421 0.0
C1247 C 0.18435 0.85993 0.51624 0.0
C1248 C 0.12821 0.85043 0.51409 0.0
C1249 C 0.11413 0.82422 0.50503 0.0
C1250 C 0.08861 0.82372 0.48627 0.0
C1251 C 0.07815 0.85051 0.47526 0.0
C1252 C 0.09328 0.87742 0.48279 0.0
C1253 C 0.11782 0.87734 0.50347 0.0
H1254 H 0.77573 0.71789 0.46489 0.0
H1255 H 0.84206 0.78718 0.48467 0.0
H1256 H 0.88215 0.75083 0.48362 0.0
H1257 H 0.81156 0.66324 0.51085 0.0
H1258 H 0.80164 0.63296 0.48571 0.0
H1259 H 0.77801 0.66432 0.48766 0.0
H1260 H 0.78238 0.67182 0.43018 0.0
H1261 H 0.80532 0.64005 0.42825 0.0
H1262 H 0.81895 0.67482 0.4142 0.0
H1263 H 0.91476 0.70674 0.48167 0.0
H1264 H 0.93816 0.65881 0.47267 0.0
H1265 H 0.85055 0.61855 0.4538 0.0
C1266 C 0.7988 0.72534 0.46817 0.0
C1267 C 0.8062 0.75525 0.4739 0.0
C1268 C 0.83634 0.76432 0.47945 0.0
C1269 C 0.85911 0.74385 0.47924 0.0
C1270 C 0.8512 0.71436 0.47392 0.0
C1271 C 0.82182 0.70511 0.46825 0.0
C1272 C 0.8194 0.67211 0.46334 0.0
C1273 C 0.80159 0.6573 0.48838 0.0
C1274 C 0.80573 0.66425 0.43213 0.0
C1275 C 0.85206 0.66454 0.46578 0.0
C1276 C 0.86999 0.68903 0.47274 0.0
C1277 C 0.90096 0.68737 0.47625 0.0
C1278 C 0.91403 0.66007 0.47141 0.0
C1279 C 0.89609 0.63514 0.4627 0.0
C1280 C 0.86472 0.63734 0.46055 0.0
H1281 H 0.34525 0.77549 0.48284 0.0
H1282 H 0.26703 0.80331 0.52994 0.0
H1283 H 0.29444 0.8479 0.54797 0.0
H1284 H 0.39754 0.79678 0.53793 0.0
H1285 H 0.42621 0.81065 0.51371 0.0
H1286 H 0.39976 0.78271 0.50005 0.0
H1287 H 0.38438 0.8157 0.45557 0.0
H1288 H 0.41121 0.84362 0.46876 0.0
H1289 H 0.37254 0.85259 0.46299 0.0
H1290 H 0.33044 0.88387 0.56743 0.0
H1291 H 0.37346 0.91539 0.58325 0.0
H1292 H 0.43011 0.86818 0.5226 0.0
C1293 C 0.33377 0.79166 0.49595 0.0
C1294 C 0.30404 0.78636 0.50485 0.0
C1295 C 0.28977 0.80728 0.52283 0.0
C1296 C 0.30512 0.83261 0.53318 0.0
C1297 C 0.33471 0.8368 0.52517 0.0
C1298 C 0.34893 0.81741 0.50657 0.0
C1299 C 0.38157 0.82685 0.50333 0.0
C1300 C 0.4025 0.80281 0.51442 0.0
C1301 C 0.38779 0.83519 0.47072 0.0
C1302 C 0.38351 0.85375 0.52397 0.0
C1303 C 0.35602 0.85881 0.53618 0.0
C1304 C 0.35199 0.88061 0.55763 0.0
C1305 C 0.37664 0.89814 0.56671 0.0
C1306 C 0.40499 0.894 0.55424 0.0
C1307 C 0.40856 0.87174 0.53231 0.0
H1308 H 0.55385 0.68011 0.76159 0.0
H1309 H 0.55872 0.75302 0.7003 0.0
H1310 H 0.54379 0.71934 0.65793 0.0
H1311 H 0.58024 0.6228 0.70895 0.0
H1312 H 0.55519 0.59546 0.72431 0.0
H1313 H 0.57013 0.62514 0.74781 0.0
H1314 H 0.51594 0.63811 0.76099 0.0
H1315 H 0.50076 0.60952 0.73623 0.0
H1316 H 0.48975 0.64699 0.73126 0.0
H1317 H 0.52258 0.67791 0.62349 0.0
H1318 H 0.50857 0.6309 0.59796 0.0
H1319 H 0.51652 0.58582 0.68295 0.0
C1320 C 0.55345 0.68859 0.73896 0.0
C1321 C 0.55869 0.71883 0.73388 0.0
C1322 C 0.55621 0.72964 0.70431 0.0
C1323 C 0.54702 0.71077 0.6803 0.0
C1324 C 0.54031 0.6813 0.68643 0.0
C1325 C 0.54422 0.67016 0.71495 0.0
C1326 C 0.53484 0.63797 0.71603 0.0
C1327 C 0.56169 0.61923 0.72477 0.0
C1328 C 0.50878 0.63288 0.73741 0.0
C1329 C 0.52482 0.63261 0.68369 0.0
C1330 C 0.52778 0.65789 0.66698 0.0
C1331 C 0.52035 0.65798 0.63638 0.0
C1332 C 0.51184 0.63114 0.62214 0.0
C1333 C 0.51139 0.60447 0.63842 0.0
C1334 C 0.51626 0.60577 0.66991 0.0
H1335 H 0.47895 0.85213 0.75952 0.0
H1336 H 0.49764 0.77766 0.7023 0.0
H1337 H 0.50509 0.81105 0.65945 0.0
H1338 H 0.43894 0.89421 0.70077 0.0
H1339 H 0.45366 0.92884 0.71575 0.0
H1340 H 0.44755 0.89828 0.74039 0.0
H1341 H 0.50296 0.90351 0.75868 0.0
H1342 H 0.50956 0.93328 0.73319 0.0
H1343 H 0.5322 0.90119 0.73173 0.0
H1344 H 0.51383 0.85333 0.62386 0.0
H1345 H 0.51399 0.89986 0.59586 0.0
H1346 H 0.49072 0.94666 0.67717 0.0
C1347 C 0.48316 0.84284 0.73757 0.0
C1348 C 0.48637 0.81231 0.73368 0.0
C1349 C 0.49367 0.80091 0.70518 0.0
C1350 C 0.49853 0.81976 0.68094 0.0
C1351 C 0.49616 0.84994 0.68573 0.0
C1352 C 0.48795 0.86134 0.71315 0.0
C1353 C 0.48688 0.89455 0.71245 0.0
C1354 C 0.45486 0.90457 0.71763 0.0
C1355 C 0.50924 0.90896 0.73538 0.0
C1356 C 0.49624 0.90012 0.68052 0.0
C1357 C 0.50166 0.87417 0.66549 0.0
C1358 C 0.50954 0.8738 0.63539 0.0
C1359 C 0.50998 0.90046 0.61973 0.0
C1360 C 0.50236 0.92707 0.63418 0.0
C1361 C 0.49695 0.92687 0.6654 0.0
H1362 H 0.50221 0.30599 0.78187 0.0
H1363 H 0.57189 0.34813 0.73045 0.0
H1364 H 0.57069 0.39217 0.76395 0.0
H1365 H 0.45991 0.36925 0.79824 0.0
H1366 H 0.45206 0.35836 0.83608 0.0
H1367 H 0.45789 0.33079 0.80758 0.0
H1368 H 0.50059 0.3086 0.83977 0.0
H1369 H 0.49404 0.3353 0.86879 0.0
H1370 H 0.53088 0.33235 0.85381 0.0
H1371 H 0.56131 0.43171 0.80387 0.0
H1372 H 0.55294 0.45792 0.85174 0.0
H1373 H 0.48996 0.38898 0.87671 0.0
C1374 C 0.51737 0.32444 0.77778 0.0
C1375 C 0.53717 0.32374 0.75365 0.0
C1376 C 0.55681 0.34815 0.74908 0.0
C1377 C 0.55594 0.37337 0.76771 0.0
C1378 C 0.53545 0.37365 0.79087 0.0
C1379 C 0.5171 0.34944 0.79632 0.0
C1380 C 0.4988 0.35404 0.82395 0.0
C1381 C 0.46517 0.35305 0.81597 0.0
C1382 C 0.50655 0.33124 0.848 0.0
C1383 C 0.50953 0.38474 0.83334 0.0
C1384 C 0.53033 0.39598 0.81375 0.0
C1385 C 0.54482 0.42323 0.81913 0.0
C1386 C 0.53947 0.43833 0.84617 0.0
C1387 C 0.52021 0.42584 0.86766 0.0
C1388 C 0.5039 0.39956 0.86024 0.0
H1389 H 0.51742 0.21327 0.78488 0.0
H1390 H 0.46417 0.16725 0.7156 0.0
H1391 H 0.46644 0.12132 0.74481 0.0
H1392 H 0.56368 0.1512 0.80962 0.0
H1393 H 0.56173 0.16135 0.84876 0.0
H1394 H 0.56037 0.18929 0.82041 0.0
H1395 H 0.51002 0.20733 0.84041 0.0
H1396 H 0.51215 0.18033 0.86938 0.0
H1397 H 0.47953 0.18106 0.84482 0.0
H1398 H 0.47125 0.08174 0.7828 0.0
H1399 H 0.46557 0.05635 0.83084 0.0
H1400 H 0.51375 0.12794 0.87693 0.0
C1401 C 0.50648 0.19337 0.7759 0.0
C1402 C 0.49058 0.19357 0.74815 0.0
C1403 C 0.47617 0.16743 0.73705 0.0
C1404 C 0.47781 0.1412 0.75323 0.0
C1405 C 0.49381 0.14156 0.78056 0.0
C1406 C 0.50727 0.16717 0.79216 0.0
C1407 C 0.519 0.16281 0.82398 0.0
C1408 C 0.55324 0.16638 0.82578 0.0
C1409 C 0.50428 0.18411 0.84593 0.0
C1410 C 0.50911 0.13104 0.8289 0.0
C1411 C 0.49569 0.11886 0.80313 0.0
C1412 C 0.48211 0.09086 0.80296 0.0
C1413 C 0.47966 0.07613 0.83033 0.0
C1414 C 0.48943 0.09005 0.85755 0.0
C1415 C 0.50698 0.11637 0.85634 0.0
H1416 H 0.70886 0.46033 0.69297 0.0
H1417 H 0.77336 0.5174 0.64985 0.0
H1418 H 0.73827 0.52319 0.60692 0.0
H1419 H 0.66988 0.42873 0.6203 0.0
H1420 H 0.63391 0.43011 0.63746 0.0
H1421 H 0.66682 0.42261 0.66002 0.0
H1422 H 0.65577 0.46649 0.69565 0.0
H1423 H 0.62274 0.47332 0.67364 0.0
H1424 H 0.65062 0.50236 0.67985 0.0
H1425 H 0.69415 0.53135 0.57467 0.0
H1426 H 0.64364 0.54802 0.56184 0.0
H1427 H 0.60615 0.48703 0.62516 0.0
C1428 C 0.71593 0.47282 0.67374 0.0
C1429 C 0.74389 0.48787 0.67423 0.0
C1430 C 0.75209 0.50535 0.64954 0.0
C1431 C 0.73242 0.50853 0.62493 0.0
C1432 C 0.70452 0.49411 0.6253 0.0
C1433 C 0.69619 0.47669 0.64918 0.0
C1434 C 0.66311 0.46864 0.64709 0.0
C1435 C 0.65815 0.43555 0.64085 0.0
C1436 C 0.64715 0.47832 0.67571 0.0
C1437 C 0.65375 0.48624 0.61991 0.0
C1438 C 0.67821 0.49958 0.60674 0.0
C1439 C 0.67489 0.52028 0.58409 0.0
C1440 C 0.64601 0.5293 0.57646 0.0
C1441 C 0.62114 0.51819 0.59204 0.0
C1442 C 0.62482 0.49476 0.61209 0.0
H1443 H 0.28965 0.05346 0.70325 0.0
H1444 H 0.22806 0.99049 0.65928 0.0
H1445 H 0.26329 0.98445 0.61797 0.0
H1446 H 0.32361 0.08523 0.63364 0.0
H1447 H 0.3605 0.08701 0.65088 0.0
H1448 H 0.32808 0.09138 0.67359 0.0
H1449 H 0.34483 0.04862 0.70761 0.0
H1450 H 0.3774 0.04471 0.6854 0.0
H1451 H 0.35239 0.01349 0.69066 0.0
H1452 H 0.30721 0.98097 0.58443 0.0
H1453 H 0.35847 0.97326 0.56741 0.0
H1454 H 0.39294 0.03599 0.63425 0.0
C1455 C 0.28324 0.03926 0.68432 0.0
C1456 C 0.25584 0.02304 0.68397 0.0
C1457 C 0.24875 1.0035 0.65965 0.0
C1458 C 0.26855 1.00008 0.63599 0.0
C1459 C 0.29559 0.01614 0.63704 0.0
C1460 C 0.30313 0.03506 0.66082 0.0
C1461 C 0.33535 0.04606 0.65903 0.0
C1462 C 0.33697 0.07941 0.65399 0.0
C1463 C 0.35356 0.03769 0.68733 0.0
C1464 C 0.3451 0.02949 0.63132 0.0
C1465 C 0.32153 0.01319 0.61831 0.0
C1466 C 0.32566 0.99419 0.59398 0.0
C1467 C 0.35485 0.99038 0.58395 0.0
C1468 C 0.37957 1.00488 0.59873 0.0
C1469 C 0.37433 0.02582 0.62158 0.0
H1470 H 0.71609 0.49456 0.78167 0.0
H1471 H 0.75029 0.57728 0.8201 0.0
H1472 H 0.71033 0.57504 0.85808 0.0
H1473 H 0.63712 0.50501 0.79304 0.0
H1474 H 0.63073 0.46677 0.80173 0.0
H1475 H 0.65984 0.47733 0.7765 0.0
H1476 H 0.69854 0.45054 0.80996 0.0
H1477 H 0.66963 0.44011 0.83533 0.0
H1478 H 0.70248 0.46027 0.84925 0.0
H1479 H 0.66777 0.55959 0.89523 0.0
H1480 H 0.62857 0.53405 0.92486 0.0
H1481 H 0.6254 0.46242 0.85946 0.0
C1482 C 0.71504 0.5126 0.79771 0.0
C1483 C 0.73626 0.53616 0.79792 0.0
C1484 C 0.734 0.55919 0.81935 0.0
C1485 C 0.71149 0.55795 0.84106 0.0
C1486 C 0.69145 0.53369 0.8407 0.0
C1487 C 0.6931 0.51164 0.81921 0.0
C1488 C 0.67063 0.48693 0.82394 0.0
C1489 C 0.64825 0.48385 0.79722 0.0
C1490 C 0.68626 0.45776 0.82999 0.0
C1491 C 0.65593 0.49819 0.85165 0.0
C1492 C 0.66791 0.52513 0.86129 0.0
C1493 C 0.65816 0.53862 0.88756 0.0
C1494 C 0.6359 0.524 0.90427 0.0
C1495 C 0.62383 0.49619 0.8946 0.0
C1496 C 0.63395 0.48362 0.86772 0.0
H1497 H 0.24468 0.99194 0.84865 0.0
H1498 H 0.29339 0.97038 0.76907 0.0
H1499 H 0.34117 0.97786 0.79755 0.0
H1500 H 0.28679 0.04849 0.87313 0.0
H1501 H 0.2868 0.04153 0.9129 0.0
H1502 H 0.25654 0.02737 0.88917 0.0
H1503 H 0.26592 0.97438 0.90724 0.0
H1504 H 0.29599 0.98845 0.93161 0.0
H1505 H 0.30274 0.95969 0.90464 0.0
H1506 H 0.38232 0.99617 0.83094 0.0
H1507 H 0.41509 0.02322 0.86784 0.0
H1508 H 0.34025 0.03409 0.9263 0.0
C1509 C 0.26548 0.98724 0.8379 0.0
C1510 C 0.26575 0.97956 0.80719 0.0
C1511 C 0.29307 0.97511 0.79297 0.0
C1512 C 0.3202 0.97943 0.80893 0.0
C1513 C 0.31939 0.98781 0.83911 0.0
C1514 C 0.29276 0.99117 0.85368 0.0
C1515 C 0.29818 1.00348 0.88521 0.0
C1516 C 0.28107 0.03191 0.89036 0.0
C1517 C 0.29023 0.98012 0.90857 0.0
C1518 C 0.33162 0.00931 0.88497 0.0
C1519 C 0.34348 0.99905 0.85855 0.0
C1520 C 0.37349 1.0035 0.85205 0.0
C1521 C 0.39186 0.01888 0.87305 0.0
C1522 C 0.38005 0.03003 0.89988 0.0
C1523 C 0.34968 0.02509 0.90614 0.0
H1524 H 0.69193 0.74463 0.58088 0.0
H1525 H 0.67768 0.75614 0.48488 0.0
H1526 H 0.63614 0.72004 0.48467 0.0
H1527 H 0.67786 0.66747 0.58001 0.0
H1528 H 0.65876 0.66679 0.61513 0.0
H1529 H 0.68639 0.69532 0.60836 0.0
H1530 H 0.64739 0.73479 0.61942 0.0
H1531 H 0.61951 0.70633 0.62594 0.0
H1532 H 0.6124 0.73417 0.59842 0.0
H1533 H 0.59846 0.67974 0.49328 0.0
H1534 H 0.56803 0.63739 0.51114 0.0
H1535 H 0.60476 0.65335 0.60137 0.0
C1536 C 0.67991 0.73972 0.55993 0.0
C1537 C 0.68834 0.75332 0.533 0.0
C1538 C 0.67197 0.74608 0.50596 0.0
C1539 C 0.64808 0.72562 0.5055 0.0
C1540 C 0.64042 0.7125 0.53225 0.0
C1541 C 0.65572 0.71922 0.559 0.0
C1542 C 0.64362 0.70074 0.58421 0.0
C1543 C 0.66811 0.68143 0.59771 0.0
C1544 C 0.62991 0.72017 0.60843 0.0
C1545 C 0.61973 0.68236 0.56722 0.0
C1546 C 0.61809 0.68955 0.53731 0.0
C1547 C 0.59915 0.67411 0.51681 0.0
C1548 C 0.58188 0.65014 0.52712 0.0
C1549 C 0.58369 0.64201 0.55763 0.0
C1550 C 0.60238 0.65899 0.57791 0.0
H1551 H 0.67572 0.26404 0.99784 0.0
H1552 H 0.71716 0.30576 0.07699 0.0
H1553 H 0.68275 0.34762 0.07139 0.0
H1554 H 0.67016 0.32736 0.95636 0.0
H1555 H 0.63546 0.31601 0.93769 0.0
H1556 H 0.66082 0.28881 0.95077 0.0
H1557 H 0.61867 0.26466 0.98187 0.0
H1558 H 0.59315 0.29191 0.96885 0.0
H1559 H 0.59917 0.28666 0.00858 0.0
H1560 H 0.6476 0.38905 0.05043 0.0
H1561 H 0.61655 0.42179 0.01849 0.0
H1562 H 0.5971 0.34843 0.95742 0.0
C1563 C 0.67724 0.28164 0.0145 0.0
C1564 C 0.69907 0.28168 0.03787 0.0
C1565 C 0.70035 0.3052 0.05905 0.0
C1566 C 0.68097 0.32908 0.05592 0.0
C1567 C 0.6602 0.3287 0.03184 0.0
C1568 C 0.65815 0.30514 0.01184 0.0
C1569 C 0.63595 0.31009 0.98659 0.0
C1570 C 0.65153 0.31061 0.95608 0.0
C1571 C 0.61021 0.28695 0.9865 0.0
C1572 C 0.62551 0.34014 0.99526 0.0
C1573 C 0.63974 0.3511 0.02111 0.0
C1574 C 0.63587 0.38029 0.03058 0.0
C1575 C 0.618 0.39873 0.01253 0.0
C1576 C 0.60427 0.38764 0.98555 0.0
C1577 C 0.60707 0.35763 0.97802 0.0
H1578 H 0.32034 0.24382 0.01709 0.0
H1579 H 0.29043 0.24975 0.92384 0.0
H1580 H 0.3215 0.20758 0.91111 0.0
H1581 H 0.39586 0.22761 0.00345 0.0
H1582 H 0.39947 0.20222 0.03401 0.0
H1583 H 0.37329 0.23141 0.03616 0.0
H1584 H 0.33084 0.19271 0.04544 0.0
H1585 H 0.35708 0.1635 0.04268 0.0
H1586 H 0.32403 0.16303 0.01869 0.0
H1587 H 0.35512 0.16617 0.90815 0.0
H1588 H 0.39531 0.13142 0.91253 0.0
H1589 H 0.4069 0.15224 0.00762 0.0
C1590 C 0.32013 0.23617 0.99397 0.0
C1591 C 0.30272 0.25006 0.97137 0.0
C1592 C 0.30341 0.23949 0.94146 0.0
C1593 C 0.32085 0.21544 0.9341 0.0
C1594 C 0.33749 0.20223 0.95691 0.0
C1595 C 0.33762 0.21231 0.98619 0.0
C1596 C 0.35895 0.19499 0.00595 0.0
C1597 C 0.38334 0.21528 0.02074 0.0
C1598 C 0.34169 0.17753 0.0296 0.0
C1599 C 0.37177 0.17437 0.98285 0.0
C1600 C 0.35817 0.17854 0.955 0.0
C1601 C 0.3658 0.1626 0.92982 0.0
C1602 C 0.3886 0.14259 0.93273 0.0
C1603 C 0.40421 0.13866 0.96056 0.0
C1604 C 0.3952 0.15437 0.98622 0.0
H1605 H 0.81095 0.2987 0.9528 0.0
H1606 H 0.84667 0.24431 0.0234 0.0
H1607 H 0.89502 0.27044 0.0214 0.0
H1608 H 0.884 0.31886 0.914 0.0
H1609 H 0.87362 0.35672 0.91066 0.0
H1610 H 0.8452 0.32771 0.90906 0.0
H1611 H 0.81759 0.35239 0.95287 0.0
H1612 H 0.84537 0.38161 0.95376 0.0
H1613 H 0.83804 0.36121 0.98737 0.0
H1614 H 0.93611 0.30605 0.0189 0.0
H1615 H 0.95989 0.35499 0.02707 0.0
H1616 H 0.89731 0.39154 0.96313 0.0
C1617 C 0.8295 0.29164 0.96675 0.0
C1618 C 0.82571 0.26823 0.98683 0.0
C1619 C 0.84964 0.26093 0.0065 0.0
C1620 C 0.87731 0.27572 0.00555 0.0
C1621 C 0.88059 0.29879 0.98563 0.0
C1622 C 0.85704 0.3074 0.96724 0.0
C1623 C 0.86382 0.33735 0.9541 0.0
C1624 C 0.86684 0.33501 0.91991 0.0
C1625 C 0.83981 0.35943 0.96257 0.0
C1626 C 0.89386 0.34484 0.96944 0.0
C1627 C 0.90386 0.32154 0.98617 0.0
C1628 C 0.92899 0.32428 0.00535 0.0
C1629 C 0.94275 0.35214 0.00956 0.0
C1630 C 0.93062 0.37686 0.99539 0.0
C1631 C 0.90748 0.37275 0.97342 0.0
loop_
_geom_bond_atom_site_label_1
_geom_bond_atom_site_label_2
_geom_bond_distance
_geom_bond_site_symmetry_2
_ccdc_geom_bond_type
C0 O2 1.247 . S
C0 O4 1.258 . S
C1 O8 1.247 . S
C1 O9 1.258 . S
O2 C0 1.247 . S
O2 Zn3 2.028 . S
Zn3 O2 2.028 . S
Zn3 O7 2.035 . S
Zn3 O9 2.035 . S
Zn3 O10 2.028 . S
O4 C0 1.258 . S
O4 Zn5 2.040 . S
Zn5 O4 2.040 . S
Zn5 O6 2.028 . S
Zn5 O8 2.028 . S
Zn5 O11 2.040 . S
O6 Zn5 2.028 . S
O6 C12 1.247 . S
O7 Zn3 2.035 . S
O7 C12 1.258 . S
O8 C1 1.247 . S
O8 Zn5 2.028 . S
O9 C1 1.258 . S
O9 Zn3 2.035 . S
O10 Zn3 2.028 . S
O10 C13 1.247 . S
O11 Zn5 2.040 . S
O11 C13 1.258 . S
C12 O6 1.247 . S
C12 O7 1.258 . S
C13 O10 1.247 . S
C13 O11 1.258 . S
C14 O16 1.247 . S
C14 O18 1.258 1_455 S
C15 O22 1.247 1_455 S
C15 O23 1.258 . S
O16 C14 1.247 . S
O16 Zn17 2.028 . S
Zn17 O16 2.028 . S
Zn17 O21 2.035 . S
Zn17 O23 2.035 . S
Zn17 O24 2.028 . S
O18 C14 1.258 1_655 S
O18 Zn19 2.035 . S
Zn19 O18 2.035 . S
Zn19 O20 2.028 . S
Zn19 O22 2.028 . S
Zn19 O25 2.035 . S
O20 Zn19 2.028 . S
O20 C26 1.247 1_655 S
O21 Zn17 2.035 . S
O21 C26 1.258 . S
O22 C15 1.247 1_655 S
O22 Zn19 2.028 . S
O23 C15 1.258 . S
O23 Zn17 2.035 . S
O24 Zn17 2.028 . S
O24 C27 1.247 . S
O25 Zn19 2.035 . S
O25 C27 1.258 1_655 S
C26 O20 1.247 1_455 S
C26 O21 1.258 . S
C27 O24 1.247 . S
C27 O25 1.258 1_455 S
C28 O30 1.247 1_545 S
C28 O32 1.258 . S
C29 O36 1.247 1_565 S
C29 O37 1.258 . S
O30 C28 1.247 1_565 S
O30 Zn31 2.028 . S
Zn31 O30 2.028 . S
Zn31 O35 2.035 . S
Zn31 O37 2.035 . S
Zn31 O38 2.028 . S
O32 C28 1.258 . S
O32 Zn33 2.035 . S
Zn33 O32 2.035 . S
Zn33 O34 2.028 . S
Zn33 O36 2.028 . S
Zn33 O39 2.035 . S
O34 Zn33 2.028 . S
O34 C40 1.247 1_545 S
O35 Zn31 2.035 . S
O35 C40 1.258 . S
O36 C29 1.247 1_545 S
O36 Zn33 2.028 . S
O37 C29 1.258 . S
O37 Zn31 2.035 . S
O38 Zn31 2.028 . S
O38 C41 1.247 1_565 S
O39 Zn33 2.035 . S
O39 C41 1.258 . S
C40 O34 1.247 1_565 S
C40 O35 1.258 . S
C41 O38 1.247 1_545 S
C41 O39 1.258 . S
C42 O44 1.247 . S
C42 O46 1.258 . S
C43 O50 1.247 . S
C43 O51 1.258 . S
O44 C42 1.247 . S
O44 Zn45 2.028 . S
Zn45 O44 2.028 . S
Zn45 O49 2.035 . S
Zn45 O51 2.035 . S
Zn45 O52 2.028 . S
O46 C42 1.258 . S
O46 Zn47 2.035 . S
Zn47 O46 2.035 . S
Zn47 O48 2.028 . S
Zn47 O50 2.028 . S
Zn47 O53 2.035 . S
O48 Zn47 2.028 . S
O48 C54 1.247 . S
O49 Zn45 2.035 . S
O49 C54 1.258 . S
O50 C43 1.247 . S
O50 Zn47 2.028 . S
O51 C43 1.258 . S
O51 Zn45 2.035 . S
O52 Zn45 2.028 . S
O52 C55 1.247 . S
O53 Zn47 2.035 . S
O53 C55 1.258 . S
C54 O48 1.247 . S
C54 O49 1.258 . S
C55 O52 1.247 . S
C55 O53 1.258 . S
C56 O58 1.247 . S
C56 O60 1.258 . S
C57 O64 1.247 . S
C57 O65 1.258 1_554 S
O58 C56 1.247 . S
O58 Zn59 2.028 1_554 S
Zn59 O58 2.028 1_556 S
Zn59 O63 2.035 . S
Zn59 O65 2.035 . S
Zn59 O66 2.028 1_556 S
O60 C56 1.258 . S
O60 Zn61 2.035 . S
Zn61 O60 2.035 . S
Zn61 O62 2.028 . S
Zn61 O64 2.028 . S
Zn61 O67 2.035 . S
O62 Zn61 2.028 . S
O62 C68 1.247 . S
O63 Zn59 2.035 . S
O63 C68 1.258 1_556 S
O64 C57 1.247 . S
O64 Zn61 2.028 . S
O65 C57 1.258 1_556 S
O65 Zn59 2.035 . S
O66 Zn59 2.028 1_554 S
O66 C69 1.247 . S
O67 Zn61 2.035 . S
O67 C69 1.258 . S
C68 O62 1.247 . S
C68 O63 1.258 1_554 S
C69 O66 1.247 . S
C69 O67 1.258 . S
C70 O72 1.247 . S
C70 O74 1.258 . S
C71 O78 1.247 . S
C71 O79 1.258 . S
O72 C70 1.247 . S
O72 Zn73 2.028 . S
Zn73 O72 2.028 . S
Zn73 O77 2.035 . S
Zn73 O79 2.035 . S
Zn73 O80 2.028 . S
O74 C70 1.258 . S
O74 Zn75 2.035 . S
Zn75 O74 2.035 . S
Zn75 O76 2.028 . S
Zn75 O78 2.028 . S
Zn75 O81 2.035 . S
O76 Zn75 2.028 . S
O76 C82 1.247 . S
O77 Zn73 2.035 . S
O77 C82 1.258 . S
O78 C71 1.247 . S
O78 Zn75 2.028 . S
O79 C71 1.258 . S
O79 Zn73 2.035 . S
O80 Zn73 2.028 . S
O80 C83 1.247 . S
O81 Zn75 2.035 . S
O81 C83 1.258 . S
C82 O76 1.247 . S
C82 O77 1.258 . S
C83 O80 1.247 . S
C83 O81 1.258 . S
C84 O86 1.247 . S
C84 O88 1.258 . S
C85 O92 1.247 . S
C85 O93 1.258 . S
O86 C84 1.247 . S
O86 Zn87 2.028 . S
Zn87 O86 2.028 . S
Zn87 O91 2.035 . S
Zn87 O93 2.035 . S
Zn87 O94 2.028 . S
O88 C84 1.258 . S
O88 Zn89 2.035 . S
Zn89 O88 2.035 . S
Zn89 O90 2.028 . S
Zn89 O92 2.028 . S
Zn89 O95 2.035 . S
O90 Zn89 2.028 . S
O90 C96 1.247 . S
O91 Zn87 2.035 . S
O91 C96 1.258 . S
O92 C85 1.247 . S
O92 Zn89 2.028 . S
O93 C85 1.258 . S
O93 Zn87 2.035 . S
O94 Zn87 2.028 . S
O94 C97 1.247 . S
O95 Zn89 2.035 . S
O95 C97 1.258 . S
C96 O90 1.247 . S
C96 O91 1.258 . S
C97 O94 1.247 . S
C97 O95 1.258 . S
C98 O100 1.247 . S
C98 O102 1.258 . S
C99 O106 1.247 . S
C99 O107 1.258 . S
O100 C98 1.247 . S
O100 Zn101 2.028 . S
Zn101 O100 2.028 . S
Zn101 O105 2.035 . S
Zn101 O107 2.035 . S
Zn101 O108 2.028 . S
O102 C98 1.258 . S
O102 Zn103 2.035 . S
Zn103 O102 2.035 . S
Zn103 O104 2.028 . S
Zn103 O106 2.028 . S
Zn103 O109 2.035 . S
O104 Zn103 2.028 . S
O104 C110 1.247 . S
O105 Zn101 2.035 . S
O105 C110 1.258 . S
O106 C99 1.247 . S
O106 Zn103 2.028 . S
O107 C99 1.258 . S
O107 Zn101 2.035 . S
O108 Zn101 2.028 . S
O108 C111 1.247 . S
O109 Zn103 2.035 . S
O109 C111 1.258 . S
C110 O104 1.247 . S
C110 O105 1.258 . S
C111 O108 1.247 . S
C111 O109 1.258 . S
C112 O114 1.247 . S
C112 O116 1.258 . S
C113 O120 1.247 . S
C113 O121 1.258 . S
O114 C112 1.247 . S
O114 Zn115 2.028 . S
Zn115 O114 2.028 . S
Zn115 O119 2.035 . S
Zn115 O121 2.035 . S
Zn115 O122 2.028 . S
O116 C112 1.258 . S
O116 Zn117 2.035 . S
Zn117 O116 2.035 . S
Zn117 O118 2.028 . S
Zn117 O120 2.028 . S
Zn117 O123 2.035 . S
O118 Zn117 2.028 . S
O118 C124 1.247 . S
O119 Zn115 2.035 . S
O119 C124 1.258 . S
O120 C113 1.247 . S
O120 Zn117 2.028 . S
O121 C113 1.258 . S
O121 Zn115 2.035 . S
O122 Zn115 2.028 . S
O122 C125 1.247 . S
O123 Zn117 2.035 . S
O123 C125 1.258 . S
C124 O118 1.247 . S
C124 O119 1.258 . S
C125 O122 1.247 . S
C125 O123 1.258 . S
C126 O128 1.247 . S
C126 O130 1.258 . S
C127 O134 1.247 . S
C127 O135 1.258 . S
O128 C126 1.247 . S
O128 Zn129 2.028 . S
Zn129 O128 2.028 . S
Zn129 O133 2.035 . S
Zn129 O135 2.035 . S
Zn129 O136 2.028 . S
O130 C126 1.258 . S
O130 Zn131 2.035 . S
Zn131 O130 2.035 . S
Zn131 O132 2.028 . S
Zn131 O134 2.028 . S
Zn131 O137 2.035 . S
O132 Zn131 2.028 . S
O132 C138 1.247 . S
O133 Zn129 2.035 . S
O133 C138 1.258 . S
O134 C127 1.247 . S
O134 Zn131 2.028 . S
O135 C127 1.258 . S
O135 Zn129 2.035 . S
O136 Zn129 2.028 . S
O136 C139 1.247 . S
O137 Zn131 2.035 . S
O137 C139 1.258 . S
C138 O132 1.247 . S
C138 O133 1.258 . S
C139 O136 1.247 . S
C139 O137 1.258 . S
C140 O142 1.247 . S
C140 O144 1.258 1_565 S
C141 O148 1.247 . S
C141 O149 1.258 1_545 S
O142 C140 1.247 . S
O142 Zn143 2.028 . S
Zn143 O142 2.028 . S
Zn143 O147 2.035 . S
Zn143 O149 2.035 . S
Zn143 O150 2.028 . S
O144 C140 1.258 1_545 S
O144 Zn145 2.035 . S
Zn145 O144 2.035 . S
Zn145 O146 2.028 . S
Zn145 O148 2.028 . S
Zn145 O151 2.035 . S
O146 Zn145 2.028 . S
O146 C152 1.247 . S
O147 Zn143 2.035 . S
O147 C152 1.258 1_565 S
O148 C141 1.247 . S
O148 Zn145 2.028 . S
O149 C141 1.258 1_565 S
O149 Zn143 2.035 . S
O150 Zn143 2.028 . S
O150 C153 1.247 . S
O151 Zn145 2.035 . S
O151 C153 1.258 1_545 S
C152 O146 1.247 . S
C152 O147 1.258 1_545 S
C153 O150 1.247 . S
C153 O151 1.258 1_565 S
C154 O156 1.247 . S
C154 O158 1.258 1_554 S
C155 O162 1.247 . S
C155 O163 1.258 . S
O156 C154 1.247 . S
O156 Zn157 2.028 . S
Zn157 O156 2.028 . S
Zn157 O161 2.035 . S
Zn157 O163 2.035 . S
Zn157 O164 2.028 . S
O158 C154 1.258 1_556 S
O158 Zn159 2.035 . S
Zn159 O158 2.035 . S
Zn159 O160 2.028 1_556 S
Zn159 O162 2.028 1_556 S
Zn159 O165 2.035 . S
O160 Zn159 2.028 1_554 S
O160 C166 1.247 . S
O161 Zn157 2.035 . S
O161 C166 1.258 . S
O162 C155 1.247 . S
O162 Zn159 2.028 1_554 S
O163 C155 1.258 . S
O163 Zn157 2.035 . S
O164 Zn157 2.028 . S
O164 C167 1.247 . S
O165 Zn159 2.035 . S
O165 C167 1.258 1_556 S
C166 O160 1.247 . S
C166 O161 1.258 . S
C167 O164 1.247 . S
C167 O165 1.258 1_554 S
O168 Mn169 2.163 . S
O168 C182 1.244 . S
Mn169 O168 2.163 . S
Mn169 O172 2.128 1_554 S
Mn169 O173 2.216 1_455 S
Mn169 O175 2.163 . S
Mn169 O177 2.160 . S
Mn169 O187 2.221 . S
O170 Mn171 2.087 . S
O170 C182 1.256 . S
Mn171 O170 2.087 . S
Mn171 O178 2.089 . S
Mn171 O187 2.290 . S
Mn171 O188 2.251 . S
O172 Mn169 2.128 1_556 S
O172 C183 1.263 . S
O173 Mn169 2.216 1_655 S
O173 Mn174 2.292 1_554 S
O173 C184 1.284 . S
Mn174 O173 2.292 1_556 S
Mn174 O176 2.089 1_655 S
Mn174 O179 2.251 1_556 S
Mn174 O180 2.087 1_546 S
O175 Mn169 2.163 . S
O175 C185 1.244 1_545 S
O176 Mn174 2.089 1_455 S
O176 C183 1.256 . S
O177 Mn169 2.160 . S
O177 C186 1.239 . S
O178 Mn171 2.089 . S
O178 C186 1.256 . S
O179 Mn174 2.251 1_554 S
O179 C184 1.241 . S
O180 Mn174 2.087 1_564 S
O180 C185 1.256 1_655 S
C181 O187 1.278 . S
C181 O188 1.241 . S
C182 O168 1.244 . S
C182 O170 1.256 . S
C183 O172 1.263 . S
C183 O176 1.256 . S
C184 O173 1.284 . S
C184 O179 1.241 . S
C185 O175 1.244 1_565 S
C185 O180 1.256 1_455 S
C186 O177 1.239 . S
C186 O178 1.256 . S
O187 Mn169 2.221 . S
O187 Mn171 2.290 . S
O187 C181 1.278 . S
O188 Mn171 2.251 . S
O188 C181 1.241 . S
O189 Mn190 2.163 . S
O189 C203 1.244 . S
Mn190 O189 2.163 . S
Mn190 O193 2.160 . S
Mn190 O194 2.221 . S
Mn190 O196 2.163 . S
Mn190 O198 2.160 . S
Mn190 O208 2.221 . S
O191 Mn192 2.087 . S
O191 C203 1.256 . S
Mn192 O191 2.087 . S
Mn192 O199 2.089 . S
Mn192 O208 2.290 . S
Mn192 O209 2.251 . S
O193 Mn190 2.160 . S
O193 C204 1.239 1_554 S
O194 Mn190 2.221 . S
O194 Mn195 2.290 1_654 S
O194 C205 1.278 1_655 S
Mn195 O194 2.290 1_456 S
Mn195 O197 2.089 1_455 S
Mn195 O200 2.251 1_556 S
Mn195 O201 2.086 1_456 S
O196 Mn190 2.163 . S
O196 C206 1.244 . S
O197 Mn195 2.089 1_655 S
O197 C204 1.256 . S
O198 Mn190 2.160 . S
O198 C207 1.239 . S
O199 Mn192 2.089 . S
O199 C207 1.256 . S
O200 Mn195 2.251 1_554 S
O200 C205 1.241 . S
O201 Mn195 2.086 1_654 S
O201 C206 1.267 . S
C202 O208 1.278 . S
C202 O209 1.241 . S
C203 O189 1.244 . S
C203 O191 1.256 . S
C204 O193 1.239 1_556 S
C204 O197 1.256 . S
C205 O194 1.278 1_455 S
C205 O200 1.241 . S
C206 O196 1.244 . S
C206 O201 1.267 . S
C207 O198 1.239 . S
C207 O199 1.256 . S
O208 Mn190 2.221 . S
O208 Mn192 2.290 . S
O208 C202 1.278 . S
O209 Mn192 2.251 . S
O209 C202 1.241 . S
O210 Mn211 2.163 . S
O210 C224 1.244 . S
Mn211 O210 2.163 . S
Mn211 O214 2.160 . S
Mn211 O215 2.221 . S
Mn211 O217 2.163 . S
Mn211 O219 2.160 . S
Mn211 O229 2.221 . S
O212 Mn213 2.087 . S
O212 C224 1.256 . S
Mn213 O212 2.087 . S
Mn213 O220 2.089 . S
Mn213 O229 2.290 . S
Mn213 O230 2.251 . S
O214 Mn211 2.160 . S
O214 C225 1.239 1_455 S
O215 Mn211 2.221 . S
O215 Mn216 2.290 1_565 S
O215 C226 1.278 1_565 S
Mn216 O215 2.290 1_545 S
Mn216 O218 2.089 1_445 S
Mn216 O221 2.251 . S
Mn216 O222 2.087 . S
O217 Mn211 2.163 . S
O217 C227 1.244 . S
O218 Mn216 2.089 1_665 S
O218 C225 1.256 . S
O219 Mn211 2.160 . S
O219 C228 1.239 . S
O220 Mn213 2.089 . S
O220 C228 1.256 . S
O221 Mn216 2.251 . S
O221 C226 1.241 . S
O222 Mn216 2.087 . S
O222 C227 1.256 1_545 S
C223 O229 1.278 . S
C223 O230 1.241 . S
C224 O210 1.244 . S
C224 O212 1.256 . S
C225 O214 1.239 1_655 S
C225 O218 1.256 . S
C226 O215 1.278 1_545 S
C226 O221 1.241 . S
C227 O217 1.244 . S
C227 O222 1.256 1_565 S
C228 O219 1.239 . S
C228 O220 1.256 . S
O229 Mn211 2.221 . S
O229 Mn213 2.290 . S
O229 C223 1.278 . S
O230 Mn213 2.251 . S
O230 C223 1.241 . S
O231 Mn232 2.163 . S
O231 C245 1.244 . S
Mn232 O231 2.163 . S
Mn232 O235 2.160 . S
Mn232 O236 2.221 . S
Mn232 O238 2.163 . S
Mn232 O240 2.160 . S
Mn232 O250 2.221 . S
O233 Mn234 2.087 . S
O233 C245 1.256 . S
Mn234 O233 2.087 . S
Mn234 O241 2.089 . S
Mn234 O250 2.290 . S
Mn234 O251 2.251 . S
O235 Mn232 2.160 . S
O235 C246 1.239 . S
O236 Mn232 2.221 . S
O236 Mn237 2.290 . S
O236 C247 1.278 . S
Mn237 O236 2.290 . S
Mn237 O239 2.089 . S
Mn237 O242 2.251 . S
Mn237 O243 2.087 1_655 S
O238 Mn232 2.163 . S
O238 C248 1.244 1_655 S
O239 Mn237 2.089 . S
O239 C246 1.256 . S
O240 Mn232 2.160 . S
O240 C249 1.239 . S
O241 Mn234 2.089 . S
O241 C249 1.256 . S
O242 Mn237 2.251 . S
O242 C247 1.241 . S
O243 Mn237 2.087 1_455 S
O243 C248 1.256 . S
C244 O250 1.278 . S
C244 O251 1.241 . S
C245 O231 1.244 . S
C245 O233 1.256 . S
C246 O235 1.239 . S
C246 O239 1.256 . S
C247 O236 1.278 . S
C247 O242 1.241 . S
C248 O238 1.244 1_455 S
C248 O243 1.256 . S
C249 O240 1.239 . S
C249 O241 1.256 . S
O250 Mn232 2.221 . S
O250 Mn234 2.290 . S
O250 C244 1.278 . S
O251 Mn234 2.251 . S
O251 C244 1.241 . S
O252 Mn253 2.163 . S
O252 C266 1.244 . S
Mn253 O252 2.163 . S
Mn253 O256 2.160 . S
Mn253 O257 2.221 . S
Mn253 O259 2.163 . S
Mn253 O261 2.160 . S
Mn253 O271 2.221 . S
O254 Mn255 2.087 . S
O254 C266 1.256 . S
Mn255 O254 2.087 . S
Mn255 O262 2.089 . S
Mn255 O271 2.290 . S
Mn255 O272 2.251 . S
O256 Mn253 2.160 . S
O256 C267 1.239 . S
O257 Mn253 2.221 . S
O257 Mn258 2.290 . S
O257 C268 1.278 . S
Mn258 O257 2.290 . S
Mn258 O260 2.089 1_565 S
Mn258 O263 2.251 . S
Mn258 O264 2.087 1_565 S
O259 Mn253 2.163 . S
O259 C269 1.244 1_565 S
O260 Mn258 2.089 1_545 S
O260 C267 1.256 1_545 S
O261 Mn253 2.160 . S
O261 C270 1.239 . S
O262 Mn255 2.089 . S
O262 C270 1.256 . S
O263 Mn258 2.251 . S
O263 C268 1.241 . S
O264 Mn258 2.087 1_545 S
O264 C269 1.256 . S
C265 O271 1.278 . S
C265 O272 1.241 . S
C266 O252 1.244 . S
C266 O254 1.256 . S
C267 O256 1.239 . S
C267 O260 1.256 1_565 S
C268 O257 1.278 . S
C268 O263 1.241 . S
C269 O259 1.244 1_545 S
C269 O264 1.256 . S
C270 O261 1.239 . S
C270 O262 1.256 . S
O271 Mn253 2.221 . S
O271 Mn255 2.290 . S
O271 C265 1.278 . S
O272 Mn255 2.251 . S
O272 C265 1.241 . S
O273 Mn274 2.163 . S
O273 C287 1.244 . S
Mn274 O273 2.163 . S
Mn274 O277 2.160 . S
Mn274 O278 2.221 . S
Mn274 O280 2.163 . S
Mn274 O282 2.160 . S
Mn274 O292 2.221 . S
O275 Mn276 2.087 . S
O275 C287 1.256 . S
Mn276 O275 2.087 . S
Mn276 O283 2.089 . S
Mn276 O292 2.290 . S
Mn276 O293 2.251 . S
O277 Mn274 2.160 . S
O277 C288 1.239 . S
O278 Mn274 2.221 . S
O278 Mn279 2.290 . S
O278 C289 1.278 . S
Mn279 O278 2.290 . S
Mn279 O281 2.089 . S
Mn279 O284 2.251 . S
Mn279 O285 2.087 . S
O280 Mn274 2.163 . S
O280 C290 1.244 . S
O281 Mn279 2.089 . S
O281 C288 1.256 . S
O282 Mn274 2.160 . S
O282 C291 1.239 . S
O283 Mn276 2.089 . S
O283 C291 1.256 . S
O284 Mn279 2.251 . S
O284 C289 1.241 . S
O285 Mn279 2.087 . S
O285 C290 1.256 . S
C286 O292 1.278 . S
C286 O293 1.241 . S
C287 O273 1.244 . S
C287 O275 1.256 . S
C288 O277 1.239 . S
C288 O281 1.256 . S
C289 O278 1.278 . S
C289 O284 1.241 . S
C290 O280 1.244 . S
C290 O285 1.256 . S
C291 O282 1.239 . S
C291 O283 1.256 . S
O292 Mn274 2.221 . S
O292 Mn276 2.290 . S
O292 C286 1.278 . S
O293 Mn276 2.251 . S
O293 C286 1.241 . S
O294 Mn295 2.163 . S
O294 C308 1.244 . S
Mn295 O294 2.163 . S
Mn295 O298 2.160 . S
Mn295 O299 2.221 . S
Mn295 O301 2.163 . S
Mn295 O303 2.160 . S
Mn295 O313 2.221 . S
O296 Mn297 2.087 . S
O296 C308 1.256 . S
Mn297 O296 2.087 . S
Mn297 O304 2.089 . S
Mn297 O313 2.290 . S
Mn297 O314 2.251 . S
O298 Mn295 2.160 . S
O298 C309 1.239 . S
O299 Mn295 2.221 . S
O299 Mn300 2.290 . S
O299 C310 1.278 . S
Mn300 O299 2.290 . S
Mn300 O302 2.089 . S
Mn300 O305 2.251 . S
Mn300 O306 2.087 1_556 S
O301 Mn295 2.163 . S
O301 C311 1.244 1_556 S
O302 Mn300 2.089 . S
O302 C309 1.256 . S
O303 Mn295 2.160 . S
O303 C312 1.239 . S
O304 Mn297 2.089 . S
O304 C312 1.256 . S
O305 Mn300 2.251 . S
O305 C310 1.241 . S
O306 Mn300 2.087 1_554 S
O306 C311 1.256 . S
C307 O313 1.278 . S
C307 O314 1.241 . S
C308 O294 1.244 . S
C308 O296 1.256 . S
C309 O298 1.239 . S
C309 O302 1.256 . S
C310 O299 1.278 . S
C310 O305 1.241 . S
C311 O301 1.244 1_554 S
C311 O306 1.256 . S
C312 O303 1.239 . S
C312 O304 1.256 . S
O313 Mn295 2.221 . S
O313 Mn297 2.290 . S
O313 C307 1.278 . S
O314 Mn297 2.251 . S
O314 C307 1.241 . S
O315 Mn316 2.163 . S
O315 C329 1.244 . S
Mn316 O315 2.163 . S
Mn316 O319 2.160 . S
Mn316 O320 2.221 . S
Mn316 O322 2.163 . S
Mn316 O324 2.160 . S
Mn316 O334 2.221 . S
O317 Mn318 2.087 . S
O317 C329 1.256 . S
Mn318 O317 2.087 . S
Mn318 O325 2.089 . S
Mn318 O334 2.290 . S
Mn318 O335 2.251 . S
O319 Mn316 2.160 . S
O319 C330 1.265 . S
O320 Mn316 2.221 . S
O320 Mn321 2.290 1_556 S
O320 C331 1.278 1_556 S
Mn321 O320 2.290 1_554 S
Mn321 O323 2.089 1_544 S
Mn321 O326 2.251 . S
Mn321 O327 2.086 1_554 S
O322 Mn316 2.163 . S
O322 C332 1.244 . S
O323 Mn321 2.089 1_566 S
O323 C330 1.251 1_565 S
O324 Mn316 2.160 . S
O324 C333 1.239 . S
O325 Mn318 2.089 . S
O325 C333 1.256 . S
O326 Mn321 2.251 . S
O326 C331 1.241 . S
O327 Mn321 2.086 1_556 S
O327 C332 1.274 . S
C328 O334 1.278 . S
C328 O335 1.241 . S
C329 O315 1.244 . S
C329 O317 1.256 . S
C330 O319 1.265 . S
C330 O323 1.251 1_545 S
C331 O320 1.278 1_554 S
C331 O326 1.241 . S
C332 O322 1.244 . S
C332 O327 1.274 . S
C333 O324 1.239 . S
C333 O325 1.256 . S
O334 Mn316 2.221 . S
O334 Mn318 2.290 . S
O334 C328 1.278 . S
O335 Mn318 2.251 . S
O335 C328 1.241 . S
H336 C348 0.930 . S
H337 C350 0.930 . S
H338 C351 0.930 . S
H339 C355 0.959 . S
H340 C355 0.959 . S
H341 C355 0.961 . S
H342 C356 0.960 . S
H343 C356 0.961 . S
H344 C356 0.959 . S
H345 C359 0.929 . S
H346 C360 0.931 . S
H347 C362 0.930 . S
C348 H336 0.930 . S
C348 C349 1.399 . S
C348 C353 1.399 . S
C349 C348 1.399 . S
C349 C350 1.376 . S
C350 H337 0.930 . S
C350 C349 1.376 . S
C350 C351 1.388 . S
C351 H338 0.930 . S
C351 C350 1.388 . S
C351 C352 1.390 . S
C352 C351 1.390 . S
C352 C353 1.394 . S
C352 C358 1.465 . S
C353 C348 1.399 . S
C353 C352 1.394 . S
C353 C354 1.516 . S
C354 C353 1.516 . S
C354 C355 1.502 1_455 S
C354 C356 1.561 . S
C354 C357 1.526 . S
C355 H339 0.959 . S
C355 H340 0.959 . S
C355 H341 0.961 . S
C355 C354 1.502 1_655 S
C356 H342 0.960 . S
C356 H343 0.961 . S
C356 H344 0.959 . S
C356 C354 1.561 . S
C357 C354 1.526 . S
C357 C358 1.396 . S
C357 C362 1.390 . S
C358 C352 1.465 . S
C358 C357 1.396 . S
C358 C359 1.399 . S
C359 H345 0.929 . S
C359 C358 1.399 . S
C359 C360 1.385 . S
C360 H346 0.931 . S
C360 C359 1.385 . S
C360 C361 1.389 . S
C361 C360 1.389 . S
C361 C362 1.387 . S
C362 H347 0.930 . S
C362 C357 1.390 . S
C362 C361 1.387 . S
H363 C375 0.930 1_655 S
H364 C377 0.930 . S
H365 C378 0.930 . S
H366 C382 0.959 . S
H367 C382 0.959 . S
H368 C382 0.961 . S
H369 C383 0.960 . S
H370 C383 0.961 1_655 S
H371 C383 0.959 . S
H372 C386 0.929 . S
H373 C387 0.931 . S
H374 C389 0.930 . S
C375 H363 0.930 1_455 S
C375 C376 1.399 . S
C375 C380 1.399 . S
C376 C375 1.399 . S
C376 C377 1.376 . S
C377 H364 0.930 . S
C377 C376 1.376 . S
C377 C378 1.388 . S
C378 H365 0.930 . S
C378 C377 1.388 . S
C378 C379 1.390 . S
C379 C378 1.390 . S
C379 C380 1.394 . S
C379 C385 1.465 . S
C380 C375 1.399 . S
C380 C379 1.394 . S
C380 C381 1.516 1_455 S
C381 C380 1.516 1_655 S
C381 C382 1.502 . S
C381 C383 1.561 1_655 S
C381 C384 1.526 . S
C382 H366 0.959 . S
C382 H367 0.959 . S
C382 H368 0.961 . S
C382 C381 1.502 . S
C383 H369 0.960 . S
C383 H370 0.961 1_455 S
C383 H371 0.959 . S
C383 C381 1.561 1_455 S
C384 C381 1.526 . S
C384 C385 1.396 1_655 S
C384 C389 1.390 . S
C385 C379 1.465 . S
C385 C384 1.396 1_455 S
C385 C386 1.399 . S
C386 H372 0.929 . S
C386 C385 1.399 . S
C386 C387 1.385 . S
C387 H373 0.931 . S
C387 C386 1.385 . S
C387 C388 1.389 1_455 S
C388 C387 1.389 1_655 S
C388 C389 1.387 . S
C389 H374 0.930 . S
C389 C384 1.390 . S
C389 C388 1.387 . S
H390 C402 0.930 . S
H391 C404 0.930 . S
H392 C405 0.930 . S
H393 C409 0.959 . S
H394 C409 0.959 . S
H395 C409 0.961 . S
H396 C410 0.960 . S
H397 C410 0.961 . S
H398 C410 0.959 . S
H399 C413 0.929 . S
H400 C414 0.931 . S
H401 C416 0.930 . S
C402 H390 0.930 . S
C402 C403 1.399 . S
C402 C407 1.399 . S
C403 C402 1.399 . S
C403 C404 1.376 . S
C404 H391 0.930 . S
C404 C403 1.376 . S
C404 C405 1.388 . S
C405 H392 0.930 . S
C405 C404 1.388 . S
C405 C406 1.390 . S
C406 C405 1.390 . S
C406 C407 1.394 . S
C406 C412 1.465 . S
C407 C402 1.399 . S
C407 C406 1.394 . S
C407 C408 1.516 . S
C408 C407 1.516 . S
C408 C409 1.502 1_455 S
C408 C410 1.561 . S
C408 C411 1.526 . S
C409 H393 0.959 . S
C409 H394 0.959 . S
C409 H395 0.961 . S
C409 C408 1.502 1_655 S
C410 H396 0.960 . S
C410 H397 0.961 . S
C410 H398 0.959 . S
C410 C408 1.561 . S
C411 C408 1.526 . S
C411 C412 1.396 . S
C411 C416 1.390 . S
C412 C406 1.465 . S
C412 C411 1.396 . S
C412 C413 1.399 . S
C413 H399 0.929 . S
C413 C412 1.399 . S
C413 C414 1.385 . S
C414 H400 0.931 . S
C414 C413 1.385 . S
C414 C415 1.389 . S
C415 C414 1.389 . S
C415 C416 1.387 . S
C416 H401 0.930 . S
C416 C411 1.390 . S
C416 C415 1.387 . S
H417 C429 0.930 . S
H418 C431 0.930 . S
H419 C432 0.930 . S
H420 C436 0.959 . S
H421 C436 0.959 . S
H422 C436 0.961 . S
H423 C437 0.960 . S
H424 C437 0.961 . S
H425 C437 0.959 . S
H426 C440 0.936 . S
H427 C441 0.931 . S
H428 C443 0.930 . S
C429 H417 0.930 . S
C429 C430 1.399 1_655 S
C429 C434 1.399 . S
C430 C429 1.399 1_455 S
C430 C431 1.376 . S
C431 H418 0.930 . S
C431 C430 1.376 . S
C431 C432 1.388 . S
C432 H419 0.930 . S
C432 C431 1.388 . S
C432 C433 1.390 . S
C433 C432 1.390 . S
C433 C434 1.394 1_455 S
C433 C439 1.465 1_455 S
C434 C429 1.399 . S
C434 C433 1.394 1_655 S
C434 C435 1.516 . S
C435 C434 1.516 . S
C435 C436 1.502 . S
C435 C437 1.561 1_655 S
C435 C438 1.526 . S
C436 H420 0.959 . S
C436 H421 0.959 . S
C436 H422 0.961 . S
C436 C435 1.502 . S
C437 H423 0.960 . S
C437 H424 0.961 . S
C437 H425 0.959 . S
C437 C435 1.561 1_455 S
C438 C435 1.526 . S
C438 C439 1.396 . S
C438 C443 1.390 . S
C439 C433 1.465 1_655 S
C439 C438 1.396 . S
C439 C440 1.396 1_655 S
C440 H426 0.936 . S
C440 C439 1.396 1_455 S
C440 C441 1.382 1_455 S
C441 H427 0.931 . S
C441 C440 1.382 1_655 S
C441 C442 1.389 . S
C442 C441 1.389 . S
C442 C443 1.387 . S
C443 H428 0.930 . S
C443 C438 1.390 . S
C443 C442 1.387 . S
H444 C456 0.930 1_565 S
H445 C458 0.930 . S
H446 C459 0.930 . S
H447 C463 0.959 1_545 S
H448 C463 0.959 . S
H449 C463 0.961 . S
H450 C464 0.960 . S
H451 C464 0.961 . S
H452 C464 0.959 . S
H453 C467 0.929 . S
H454 C468 0.931 . S
H455 C470 0.930 1_565 S
C456 H444 0.930 1_545 S
C456 C457 1.399 . S
C456 C461 1.399 . S
C457 C456 1.399 . S
C457 C458 1.376 . S
C458 H445 0.930 . S
C458 C457 1.376 . S
C458 C459 1.388 . S
C459 H446 0.930 . S
C459 C458 1.388 . S
C459 C460 1.390 . S
C460 C459 1.390 . S
C460 C461 1.394 . S
C460 C466 1.465 . S
C461 C456 1.399 . S
C461 C460 1.394 . S
C461 C462 1.516 1_545 S
C462 C461 1.516 1_565 S
C462 C463 1.502 . S
C462 C464 1.561 . S
C462 C465 1.526 1_565 S
C463 H447 0.959 1_565 S
C463 H448 0.959 . S
C463 H449 0.961 . S
C463 C462 1.502 . S
C464 H450 0.960 . S
C464 H451 0.961 . S
C464 H452 0.959 . S
C464 C462 1.561 . S
C465 C462 1.526 1_545 S
C465 C466 1.396 . S
C465 C470 1.390 . S
C466 C460 1.465 . S
C466 C465 1.396 . S
C466 C467 1.399 . S
C467 H453 0.929 . S
C467 C466 1.399 . S
C467 C468 1.385 . S
C468 H454 0.931 . S
C468 C467 1.385 . S
C468 C469 1.389 . S
C469 C468 1.389 . S
C469 C470 1.387 . S
C470 H455 0.930 1_545 S
C470 C465 1.390 . S
C470 C469 1.387 . S
H471 C483 0.930 . S
H472 C485 0.930 . S
H473 C486 0.930 . S
H474 C490 0.959 . S
H475 C490 0.959 . S
H476 C490 0.961 . S
H477 C491 0.960 . S
H478 C491 0.961 . S
H479 C491 0.959 . S
H480 C494 0.929 . S
H481 C495 0.931 . S
H482 C497 0.930 . S
C483 H471 0.930 . S
C483 C484 1.399 . S
C483 C488 1.399 . S
C484 C483 1.399 . S
C484 C485 1.376 . S
C485 H472 0.930 . S
C485 C484 1.376 . S
C485 C486 1.388 . S
C486 H473 0.930 . S
C486 C485 1.388 . S
C486 C487 1.390 . S
C487 C486 1.390 . S
C487 C488 1.394 . S
C487 C493 1.465 . S
C488 C483 1.399 . S
C488 C487 1.394 . S
C488 C489 1.516 . S
C489 C488 1.516 . S
C489 C490 1.502 . S
C489 C491 1.561 . S
C489 C492 1.526 . S
C490 H474 0.959 . S
C490 H475 0.959 . S
C490 H476 0.961 . S
C490 C489 1.502 . S
C491 H477 0.960 . S
C491 H478 0.961 . S
C491 H479 0.959 . S
C491 C489 1.561 . S
C492 C489 1.526 . S
C492 C493 1.396 . S
C492 C497 1.390 . S
C493 C487 1.465 . S
C493 C492 1.396 . S
C493 C494 1.399 . S
C494 H480 0.929 . S
C494 C493 1.399 . S
C494 C495 1.385 . S
C495 H481 0.931 . S
C495 C494 1.385 . S
C495 C496 1.389 . S
C496 C495 1.389 . S
C496 C497 1.387 . S
C497 H482 0.930 . S
C497 C492 1.390 . S
C497 C496 1.387 . S
H498 C510 0.930 . S
H499 C512 0.930 . S
H500 C513 0.930 . S
H501 C517 0.959 . S
H502 C517 0.959 . S
H503 C517 0.961 . S
H504 C518 0.960 . S
H505 C518 0.961 . S
H506 C518 0.959 . S
H507 C521 0.929 . S
H508 C522 0.931 . S
H509 C524 0.930 . S
C510 H498 0.930 . S
C510 C511 1.399 . S
C510 C515 1.399 . S
C511 C510 1.399 . S
C511 C512 1.376 1_565 S
C512 H499 0.930 . S
C512 C511 1.376 1_545 S
C512 C513 1.388 . S
C513 H500 0.930 . S
C513 C512 1.388 . S
C513 C514 1.390 . S
C514 C513 1.390 . S
C514 C515 1.394 1_545 S
C514 C520 1.465 . S
C515 C510 1.399 . S
C515 C514 1.394 1_565 S
C515 C516 1.516 . S
C516 C515 1.516 . S
C516 C517 1.502 . S
C516 C518 1.561 . S
C516 C519 1.526 . S
C517 H501 0.959 . S
C517 H502 0.959 . S
C517 H503 0.961 . S
C517 C516 1.502 . S
C518 H504 0.960 . S
C518 H505 0.961 . S
C518 H506 0.959 . S
C518 C516 1.561 . S
C519 C516 1.526 . S
C519 C520 1.396 1_565 S
C519 C524 1.390 . S
C520 C514 1.465 . S
C520 C519 1.396 1_545 S
C520 C521 1.399 . S
C521 H507 0.929 . S
C521 C520 1.399 . S
C521 C522 1.385 . S
C522 H508 0.931 . S
C522 C521 1.385 . S
C522 C523 1.389 1_545 S
C523 C522 1.389 1_565 S
C523 C524 1.387 . S
C524 H509 0.930 . S
C524 C519 1.390 . S
C524 C523 1.387 . S
H525 C537 0.930 . S
H526 C539 0.930 . S
H527 C540 0.930 . S
H528 C544 0.959 . S
H529 C544 0.959 . S
H530 C544 0.961 . S
H531 C545 0.960 . S
H532 C545 0.961 . S
H533 C545 0.959 . S
H534 C548 0.929 . S
H535 C549 0.931 . S
H536 C551 0.930 . S
C537 H525 0.930 . S
C537 C538 1.399 . S
C537 C542 1.399 . S
C538 C537 1.399 . S
C538 C539 1.376 . S
C539 H526 0.930 . S
C539 C538 1.376 . S
C539 C540 1.388 . S
C540 H527 0.930 . S
C540 C539 1.388 . S
C540 C541 1.390 . S
C541 C540 1.390 . S
C541 C542 1.394 . S
C541 C547 1.465 . S
C542 C537 1.399 . S
C542 C541 1.394 . S
C542 C543 1.516 . S
C543 C542 1.516 . S
C543 C544 1.502 . S
C543 C545 1.561 . S
C543 C546 1.526 . S
C544 H528 0.959 . S
C544 H529 0.959 . S
C544 H530 0.961 . S
C544 C543 1.502 . S
C545 H531 0.960 . S
C545 H532 0.961 . S
C545 H533 0.959 . S
C545 C543 1.561 . S
C546 C543 1.526 . S
C546 C547 1.396 . S
C546 C551 1.390 . S
C547 C541 1.465 . S
C547 C546 1.396 . S
C547 C548 1.399 . S
C548 H534 0.929 . S
C548 C547 1.399 . S
C548 C549 1.385 . S
C549 H535 0.931 . S
C549 C548 1.385 . S
C549 C550 1.389 . S
C550 C549 1.389 . S
C550 C551 1.387 . S
C551 H536 0.930 . S
C551 C546 1.390 . S
C551 C550 1.387 . S
H552 C564 0.930 . S
H553 C566 0.930 . S
H554 C567 0.930 . S
H555 C571 0.959 1_554 S
H556 C571 0.959 . S
H557 C571 0.961 . S
H558 C572 0.960 . S
H559 C572 0.961 . S
H560 C572 0.959 . S
H561 C575 0.929 . S
H562 C576 0.931 . S
H563 C578 0.930 1_556 S
C564 H552 0.930 . S
C564 C565 1.399 . S
C564 C569 1.399 . S
C565 C564 1.399 . S
C565 C566 1.376 . S
C566 H553 0.930 . S
C566 C565 1.376 . S
C566 C567 1.388 . S
C567 H554 0.930 . S
C567 C566 1.388 . S
C567 C568 1.390 . S
C568 C567 1.390 . S
C568 C569 1.394 . S
C568 C574 1.465 . S
C569 C564 1.399 . S
C569 C568 1.394 . S
C569 C570 1.500 1_554 S
C570 C569 1.500 1_556 S
C570 C571 1.505 . S
C570 C572 1.589 . S
C570 C573 1.511 1_556 S
C571 H555 0.959 1_556 S
C571 H556 0.959 . S
C571 H557 0.961 . S
C571 C570 1.505 . S
C572 H558 0.960 . S
C572 H559 0.961 . S
C572 H560 0.959 . S
C572 C570 1.589 . S
C573 C570 1.511 1_554 S
C573 C574 1.396 . S
C573 C578 1.390 . S
C574 C568 1.465 . S
C574 C573 1.396 . S
C574 C575 1.399 . S
C575 H561 0.929 . S
C575 C574 1.399 . S
C575 C576 1.385 . S
C576 H562 0.931 . S
C576 C575 1.385 . S
C576 C577 1.389 . S
C577 C576 1.389 . S
C577 C578 1.387 . S
C578 H563 0.930 1_554 S
C578 C573 1.390 . S
C578 C577 1.387 . S
H579 C591 0.930 . S
H580 C593 0.930 . S
H581 C594 0.930 . S
H582 C598 0.959 . S
H583 C598 0.959 . S
H584 C598 0.961 . S
H585 C599 0.960 . S
H586 C599 0.961 . S
H587 C599 0.959 . S
H588 C602 0.929 . S
H589 C603 0.931 . S
H590 C605 0.930 . S
C591 H579 0.930 . S
C591 C592 1.399 . S
C591 C596 1.399 . S
C592 C591 1.399 . S
C592 C593 1.376 . S
C593 H580 0.930 . S
C593 C592 1.376 . S
C593 C594 1.388 . S
C594 H581 0.930 . S
C594 C593 1.388 . S
C594 C595 1.390 . S
C595 C594 1.390 . S
C595 C596 1.394 . S
C595 C601 1.465 . S
C596 C591 1.399 . S
C596 C595 1.394 . S
C596 C597 1.516 . S
C597 C596 1.516 . S
C597 C598 1.502 . S
C597 C599 1.561 . S
C597 C600 1.526 . S
C598 H582 0.959 . S
C598 H583 0.959 . S
C598 H584 0.961 . S
C598 C597 1.502 . S
C599 H585 0.960 . S
C599 H586 0.961 . S
C599 H587 0.959 . S
C599 C597 1.561 . S
C600 C597 1.526 . S
C600 C601 1.396 . S
C600 C605 1.390 . S
C601 C595 1.465 . S
C601 C600 1.396 . S
C601 C602 1.399 . S
C602 H588 0.929 . S
C602 C601 1.399 . S
C602 C603 1.385 . S
C603 H589 0.931 . S
C603 C602 1.385 . S
C603 C604 1.389 . S
C604 C603 1.389 . S
C604 C605 1.387 . S
C605 H590 0.930 . S
C605 C600 1.390 . S
C605 C604 1.387 . S
H606 C618 0.930 . S
H607 C620 0.930 . S
H608 C621 0.930 . S
H609 C625 0.959 . S
H610 C625 0.959 . S
H611 C625 0.961 . S
H612 C626 0.960 . S
H613 C626 0.961 . S
H614 C626 0.959 . S
H615 C629 0.929 . S
H616 C630 0.931 . S
H617 C632 0.930 . S
C618 H606 0.930 . S
C618 C619 1.399 . S
C618 C623 1.399 . S
C619 C618 1.399 . S
C619 C620 1.376 . S
C620 H607 0.930 . S
C620 C619 1.376 . S
C620 C621 1.388 . S
C621 H608 0.930 . S
C621 C620 1.388 . S
C621 C622 1.390 . S
C622 C621 1.390 . S
C622 C623 1.394 . S
C622 C628 1.465 . S
C623 C618 1.399 . S
C623 C622 1.394 . S
C623 C624 1.516 . S
C624 C623 1.516 . S
C624 C625 1.502 . S
C624 C626 1.561 . S
C624 C627 1.526 . S
C625 H609 0.959 . S
C625 H610 0.959 . S
C625 H611 0.961 . S
C625 C624 1.502 . S
C626 H612 0.960 . S
C626 H613 0.961 . S
C626 H614 0.959 . S
C626 C624 1.561 . S
C627 C624 1.526 . S
C627 C628 1.396 . S
C627 C632 1.390 . S
C628 C622 1.465 . S
C628 C627 1.396 . S
C628 C629 1.399 . S
C629 H615 0.929 . S
C629 C628 1.399 . S
C629 C630 1.385 . S
C630 H616 0.931 . S
C630 C629 1.385 . S
C630 C631 1.389 . S
C631 C630 1.389 . S
C631 C632 1.387 . S
C632 H617 0.930 . S
C632 C627 1.390 . S
C632 C631 1.387 . S
H633 C645 0.930 . S
H634 C647 0.930 . S
H635 C648 0.930 . S
H636 C652 0.959 . S
H637 C652 0.959 . S
H638 C652 0.961 . S
H639 C653 0.960 . S
H640 C653 0.961 . S
H641 C653 0.959 . S
H642 C656 0.929 . S
H643 C657 0.931 . S
H644 C659 0.930 . S
C645 H633 0.930 . S
C645 C646 1.399 . S
C645 C650 1.399 . S
C646 C645 1.399 . S
C646 C647 1.376 . S
C647 H634 0.930 . S
C647 C646 1.376 . S
C647 C648 1.388 . S
C648 H635 0.930 . S
C648 C647 1.388 . S
C648 C649 1.390 . S
C649 C648 1.390 . S
C649 C650 1.394 . S
C649 C655 1.465 . S
C650 C645 1.399 . S
C650 C649 1.394 . S
C650 C651 1.516 . S
C651 C650 1.516 . S
C651 C652 1.502 . S
C651 C653 1.561 . S
C651 C654 1.526 . S
C652 H636 0.959 . S
C652 H637 0.959 . S
C652 H638 0.961 . S
C652 C651 1.502 . S
C653 H639 0.960 . S
C653 H640 0.961 . S
C653 H641 0.959 . S
C653 C651 1.561 . S
C654 C651 1.526 . S
C654 C655 1.396 . S
C654 C659 1.390 . S
C655 C649 1.465 . S
C655 C654 1.396 . S
C655 C656 1.399 . S
C656 H642 0.929 . S
C656 C655 1.399 . S
C656 C657 1.385 . S
C657 H643 0.931 . S
C657 C656 1.385 . S
C657 C658 1.389 . S
C658 C657 1.389 . S
C658 C659 1.387 . S
C659 H644 0.930 . S
C659 C654 1.390 . S
C659 C658 1.387 . S
H660 C672 0.930 . S
H661 C674 0.930 . S
H662 C675 0.930 . S
H663 C679 0.959 . S
H664 C679 0.959 . S
H665 C679 0.961 . S
H666 C680 0.960 . S
H667 C680 0.961 . S
H668 C680 0.959 . S
H669 C683 0.929 . S
H670 C684 0.931 . S
H671 C686 0.930 . S
C672 H660 0.930 . S
C672 C673 1.399 . S
C672 C677 1.399 . S
C673 C672 1.399 . S
C673 C674 1.376 . S
C674 H661 0.930 . S
C674 C673 1.376 . S
C674 C675 1.388 . S
C675 H662 0.930 . S
C675 C674 1.388 . S
C675 C676 1.390 . S
C676 C675 1.390 . S
C676 C677 1.394 . S
C676 C682 1.465 . S
C677 C672 1.399 . S
C677 C676 1.394 . S
C677 C678 1.516 . S
C678 C677 1.516 . S
C678 C679 1.502 . S
C678 C680 1.561 . S
C678 C681 1.526 . S
C679 H663 0.959 . S
C679 H664 0.959 . S
C679 H665 0.961 . S
C679 C678 1.502 . S
C680 H666 0.960 . S
C680 H667 0.961 . S
C680 H668 0.959 . S
C680 C678 1.561 . S
C681 C678 1.526 . S
C681 C682 1.396 . S
C681 C686 1.390 . S
C682 C676 1.465 . S
C682 C681 1.396 . S
C682 C683 1.399 . S
C683 H669 0.929 . S
C683 C682 1.399 . S
C683 C684 1.385 . S
C684 H670 0.931 . S
C684 C683 1.385 . S
C684 C685 1.389 . S
C685 C684 1.389 . S
C685 C686 1.387 . S
C686 H671 0.930 . S
C686 C681 1.390 . S
C686 C685 1.387 . S
H687 C699 0.930 . S
H688 C701 0.930 . S
H689 C702 0.930 . S
H690 C706 0.959 . S
H691 C706 0.959 . S
H692 C706 0.961 . S
H693 C707 0.960 . S
H694 C707 0.961 . S
H695 C707 0.959 . S
H696 C710 0.929 . S
H697 C711 0.931 . S
H698 C713 0.930 . S
C699 H687 0.930 . S
C699 C700 1.399 . S
C699 C704 1.399 . S
C700 C699 1.399 . S
C700 C701 1.376 . S
C701 H688 0.930 . S
C701 C700 1.376 . S
C701 C702 1.388 . S
C702 H689 0.930 . S
C702 C701 1.388 . S
C702 C703 1.390 . S
C703 C702 1.390 . S
C703 C704 1.394 . S
C703 C709 1.465 . S
C704 C699 1.399 . S
C704 C703 1.394 . S
C704 C705 1.516 . S
C705 C704 1.516 . S
C705 C706 1.502 . S
C705 C707 1.561 . S
C705 C708 1.526 . S
C706 H690 0.959 . S
C706 H691 0.959 . S
C706 H692 0.961 . S
C706 C705 1.502 . S
C707 H693 0.960 . S
C707 H694 0.961 . S
C707 H695 0.959 . S
C707 C705 1.561 . S
C708 C705 1.526 . S
C708 C709 1.396 . S
C708 C713 1.390 . S
C709 C703 1.465 . S
C709 C708 1.396 . S
C709 C710 1.399 . S
C710 H696 0.929 . S
C710 C709 1.399 . S
C710 C711 1.385 . S
C711 H697 0.931 . S
C711 C710 1.385 . S
C711 C712 1.389 . S
C712 C711 1.389 . S
C712 C713 1.387 . S
C713 H698 0.930 . S
C713 C708 1.390 . S
C713 C712 1.387 . S
H714 C726 0.930 . S
H715 C728 0.930 . S
H716 C729 0.930 . S
H717 C733 0.959 . S
H718 C733 0.959 . S
H719 C733 0.961 . S
H720 C734 0.960 . S
H721 C734 0.961 . S
H722 C734 0.959 . S
H723 C737 0.929 . S
H724 C738 0.931 . S
H725 C740 0.930 . S
C726 H714 0.930 . S
C726 C727 1.399 . S
C726 C731 1.399 . S
C727 C726 1.399 . S
C727 C728 1.376 . S
C728 H715 0.930 . S
C728 C727 1.376 . S
C728 C729 1.388 . S
C729 H716 0.930 . S
C729 C728 1.388 . S
C729 C730 1.390 . S
C730 C729 1.390 . S
C730 C731 1.394 . S
C730 C736 1.465 . S
C731 C726 1.399 . S
C731 C730 1.394 . S
C731 C732 1.516 . S
C732 C731 1.516 . S
C732 C733 1.502 . S
C732 C734 1.561 . S
C732 C735 1.526 . S
C733 H717 0.959 . S
C733 H718 0.959 . S
C733 H719 0.961 . S
C733 C732 1.502 . S
C734 H720 0.960 . S
C734 H721 0.961 . S
C734 H722 0.959 . S
C734 C732 1.561 . S
C735 C732 1.526 . S
C735 C736 1.396 . S
C735 C740 1.390 . S
C736 C730 1.465 . S
C736 C735 1.396 . S
C736 C737 1.399 . S
C737 H723 0.929 . S
C737 C736 1.399 . S
C737 C738 1.385 . S
C738 H724 0.931 . S
C738 C737 1.385 . S
C738 C739 1.389 . S
C739 C738 1.389 . S
C739 C740 1.387 . S
C740 H725 0.930 . S
C740 C735 1.390 . S
C740 C739 1.387 . S
H741 C753 0.930 . S
H742 C755 0.930 . S
H743 C756 0.930 . S
H744 C760 0.959 . S
H745 C760 0.959 . S
H746 C760 0.961 . S
H747 C761 0.960 . S
H748 C761 0.961 . S
H749 C761 0.959 . S
H750 C764 0.929 . S
H751 C765 0.931 . S
H752 C767 0.930 . S
C753 H741 0.930 . S
C753 C754 1.399 . S
C753 C758 1.399 . S
C754 C753 1.399 . S
C754 C755 1.376 . S
C755 H742 0.930 . S
C755 C754 1.376 . S
C755 C756 1.388 . S
C756 H743 0.930 . S
C756 C755 1.388 . S
C756 C757 1.390 . S
C757 C756 1.390 . S
C757 C758 1.394 . S
C757 C763 1.465 . S
C758 C753 1.399 . S
C758 C757 1.394 . S
C758 C759 1.516 . S
C759 C758 1.516 . S
C759 C760 1.502 . S
C759 C761 1.561 . S
C759 C762 1.526 . S
C760 H744 0.959 . S
C760 H745 0.959 . S
C760 H746 0.961 . S
C760 C759 1.502 . S
C761 H747 0.960 . S
C761 H748 0.961 . S
C761 H749 0.959 . S
C761 C759 1.561 . S
C762 C759 1.526 . S
C762 C763 1.396 . S
C762 C767 1.390 . S
C763 C757 1.465 . S
C763 C762 1.396 . S
C763 C764 1.399 . S
C764 H750 0.929 . S
C764 C763 1.399 . S
C764 C765 1.385 . S
C765 H751 0.931 . S
C765 C764 1.385 . S
C765 C766 1.389 . S
C766 C765 1.389 . S
C766 C767 1.387 . S
C767 H752 0.930 . S
C767 C762 1.390 . S
C767 C766 1.387 . S
H768 C780 0.930 . S
H769 C782 0.930 . S
H770 C783 0.930 . S
H771 C787 0.959 . S
H772 C787 0.959 . S
H773 C787 0.961 . S
H774 C788 0.960 . S
H775 C788 0.961 . S
H776 C788 0.959 . S
H777 C791 0.929 . S
H778 C792 0.931 . S
H779 C794 0.930 . S
C780 H768 0.930 . S
C780 C781 1.399 . S
C780 C785 1.399 . S
C781 C780 1.399 . S
C781 C782 1.376 . S
C782 H769 0.930 . S
C782 C781 1.376 . S
C782 C783 1.388 . S
C783 H770 0.930 . S
C783 C782 1.388 . S
C783 C784 1.390 . S
C784 C783 1.390 . S
C784 C785 1.394 . S
C784 C790 1.465 . S
C785 C780 1.399 . S
C785 C784 1.394 . S
C785 C786 1.516 . S
C786 C785 1.516 . S
C786 C787 1.502 . S
C786 C788 1.561 . S
C786 C789 1.526 . S
C787 H771 0.959 . S
C787 H772 0.959 . S
C787 H773 0.961 . S
C787 C786 1.502 . S
C788 H774 0.960 . S
C788 H775 0.961 . S
C788 H776 0.959 . S
C788 C786 1.561 . S
C789 C786 1.526 . S
C789 C790 1.396 . S
C789 C794 1.390 . S
C790 C784 1.465 . S
C790 C789 1.396 . S
C790 C791 1.399 . S
C791 H777 0.929 . S
C791 C790 1.399 . S
C791 C792 1.385 . S
C792 H778 0.931 . S
C792 C791 1.385 . S
C792 C793 1.389 . S
C793 C792 1.389 . S
C793 C794 1.387 . S
C794 H779 0.930 . S
C794 C789 1.390 . S
C794 C793 1.387 . S
H795 C807 0.930 . S
H796 C809 0.930 . S
H797 C810 0.930 . S
H798 C814 0.959 . S
H799 C814 0.959 . S
H800 C814 0.961 . S
H801 C815 0.960 . S
H802 C815 0.961 . S
H803 C815 0.959 . S
H804 C818 0.929 . S
H805 C819 0.931 . S
H806 C821 0.930 . S
C807 H795 0.930 . S
C807 C808 1.399 1_545 S
C807 C812 1.399 . S
C808 C807 1.399 1_565 S
C808 C809 1.376 . S
C809 H796 0.930 . S
C809 C808 1.376 . S
C809 C810 1.388 . S
C810 H797 0.930 . S
C810 C809 1.388 . S
C810 C811 1.390 . S
C811 C810 1.390 . S
C811 C812 1.394 1_565 S
C811 C817 1.465 . S
C812 C807 1.399 . S
C812 C811 1.394 1_545 S
C812 C813 1.516 . S
C813 C812 1.516 . S
C813 C814 1.502 . S
C813 C815 1.561 . S
C813 C816 1.524 1_545 S
C814 H798 0.959 . S
C814 H799 0.959 . S
C814 H800 0.961 . S
C814 C813 1.502 . S
C815 H801 0.960 . S
C815 H802 0.961 . S
C815 H803 0.959 . S
C815 C813 1.561 . S
C816 C813 1.524 1_565 S
C816 C817 1.398 . S
C816 C821 1.389 1_565 S
C817 C811 1.465 . S
C817 C816 1.398 . S
C817 C818 1.399 . S
C818 H804 0.929 . S
C818 C817 1.399 . S
C818 C819 1.385 . S
C819 H805 0.931 . S
C819 C818 1.385 . S
C819 C820 1.389 . S
C820 C819 1.389 . S
C820 C821 1.387 1_565 S
C821 H806 0.930 . S
C821 C816 1.389 1_545 S
C821 C820 1.387 1_545 S
H822 C834 0.930 . S
H823 C836 0.930 . S
H824 C837 0.930 . S
H825 C841 0.959 . S
H826 C841 0.959 . S
H827 C841 0.961 . S
H828 C842 0.960 . S
H829 C842 0.961 . S
H830 C842 0.959 . S
H831 C845 0.929 . S
H832 C846 0.931 . S
H833 C848 0.930 . S
C834 H822 0.930 . S
C834 C835 1.399 . S
C834 C839 1.399 . S
C835 C834 1.399 . S
C835 C836 1.376 . S
C836 H823 0.930 . S
C836 C835 1.376 . S
C836 C837 1.388 . S
C837 H824 0.930 . S
C837 C836 1.388 . S
C837 C838 1.390 . S
C838 C837 1.390 . S
C838 C839 1.394 . S
C838 C844 1.465 . S
C839 C834 1.399 . S
C839 C838 1.394 . S
C839 C840 1.516 . S
C840 C839 1.516 . S
C840 C841 1.502 . S
C840 C842 1.561 . S
C840 C843 1.526 . S
C841 H825 0.959 . S
C841 H826 0.959 . S
C841 H827 0.961 . S
C841 C840 1.502 . S
C842 H828 0.960 . S
C842 H829 0.961 . S
C842 H830 0.959 . S
C842 C840 1.561 . S
C843 C840 1.526 . S
C843 C844 1.396 . S
C843 C848 1.390 . S
C844 C838 1.465 . S
C844 C843 1.396 . S
C844 C845 1.399 . S
C845 H831 0.929 . S
C845 C844 1.399 . S
C845 C846 1.385 . S
C846 H832 0.931 . S
C846 C845 1.385 . S
C846 C847 1.389 . S
C847 C846 1.389 . S
C847 C848 1.387 . S
C848 H833 0.930 . S
C848 C843 1.390 . S
C848 C847 1.387 . S
H849 C861 0.949 . S
H850 C863 0.930 . S
H851 C864 0.930 . S
H852 C868 0.959 1_545 S
H853 C868 0.959 . S
H854 C868 0.961 . S
H855 C869 0.960 . S
H856 C869 0.961 . S
H857 C869 0.959 . S
H858 C872 0.929 . S
H859 C873 0.931 . S
H860 C875 0.930 1_565 S
C861 H849 0.949 . S
C861 C862 1.385 1_565 S
C861 C866 1.396 1_565 S
C862 C861 1.385 1_545 S
C862 C863 1.376 . S
C863 H850 0.930 . S
C863 C862 1.376 . S
C863 C864 1.388 . S
C864 H851 0.930 . S
C864 C863 1.388 . S
C864 C865 1.390 . S
C865 C864 1.390 . S
C865 C866 1.394 . S
C865 C871 1.465 . S
C866 C861 1.396 1_545 S
C866 C865 1.394 . S
C866 C867 1.516 1_545 S
C867 C866 1.516 1_565 S
C867 C868 1.502 . S
C867 C869 1.561 . S
C867 C870 1.526 1_565 S
C868 H852 0.959 1_565 S
C868 H853 0.959 . S
C868 H854 0.961 . S
C868 C867 1.502 . S
C869 H855 0.960 . S
C869 H856 0.961 . S
C869 H857 0.959 . S
C869 C867 1.561 . S
C870 C867 1.526 1_545 S
C870 C871 1.396 . S
C870 C875 1.390 . S
C871 C865 1.465 . S
C871 C870 1.396 . S
C871 C872 1.399 . S
C872 H858 0.929 . S
C872 C871 1.399 . S
C872 C873 1.385 . S
C873 H859 0.931 . S
C873 C872 1.385 . S
C873 C874 1.389 . S
C874 C873 1.389 . S
C874 C875 1.387 . S
C875 H860 0.930 1_545 S
C875 C870 1.390 . S
C875 C874 1.387 . S
H876 C888 0.930 . S
H877 C890 0.930 . S
H878 C891 0.930 . S
H879 C895 0.959 . S
H880 C895 0.959 . S
H881 C895 0.961 . S
H882 C896 0.960 . S
H883 C896 0.961 . S
H884 C896 0.959 . S
H885 C899 0.929 . S
H886 C900 0.931 . S
H887 C902 0.930 . S
C888 H876 0.930 . S
C888 C889 1.399 . S
C888 C893 1.399 . S
C889 C888 1.399 . S
C889 C890 1.376 . S
C890 H877 0.930 . S
C890 C889 1.376 . S
C890 C891 1.388 . S
C891 H878 0.930 . S
C891 C890 1.388 . S
C891 C892 1.390 . S
C892 C891 1.390 . S
C892 C893 1.394 . S
C892 C898 1.465 . S
C893 C888 1.399 . S
C893 C892 1.394 . S
C893 C894 1.516 . S
C894 C893 1.516 . S
C894 C895 1.502 . S
C894 C896 1.561 . S
C894 C897 1.526 . S
C895 H879 0.959 . S
C895 H880 0.959 . S
C895 H881 0.961 . S
C895 C894 1.502 . S
C896 H882 0.960 . S
C896 H883 0.961 . S
C896 H884 0.959 . S
C896 C894 1.561 . S
C897 C894 1.526 . S
C897 C898 1.396 . S
C897 C902 1.390 . S
C898 C892 1.465 . S
C898 C897 1.396 . S
C898 C899 1.399 . S
C899 H885 0.929 . S
C899 C898 1.399 . S
C899 C900 1.385 . S
C900 H886 0.931 . S
C900 C899 1.385 . S
C900 C901 1.389 . S
C901 C900 1.389 . S
C901 C902 1.387 . S
C902 H887 0.930 . S
C902 C897 1.390 . S
C902 C901 1.387 . S
H903 C915 0.930 . S
H904 C917 0.930 . S
H905 C918 0.930 . S
H906 C922 0.959 . S
H907 C922 0.959 . S
H908 C922 0.961 . S
H909 C923 0.960 . S
H910 C923 0.961 . S
H911 C923 0.959 . S
H912 C926 0.929 . S
H913 C927 0.942 . S
H914 C929 0.930 . S
C915 H903 0.930 . S
C915 C916 1.399 1_556 S
C915 C920 1.399 . S
C916 C915 1.399 1_554 S
C916 C917 1.376 . S
C917 H904 0.930 . S
C917 C916 1.376 . S
C917 C918 1.388 . S
C918 H905 0.930 . S
C918 C917 1.388 . S
C918 C919 1.390 . S
C919 C918 1.390 . S
C919 C920 1.394 1_554 S
C919 C925 1.464 1_554 S
C920 C915 1.399 . S
C920 C919 1.394 1_556 S
C920 C921 1.516 . S
C921 C920 1.516 . S
C921 C922 1.502 . S
C921 C923 1.561 . S
C921 C924 1.526 . S
C922 H906 0.959 . S
C922 H907 0.959 . S
C922 H908 0.961 . S
C922 C921 1.502 . S
C923 H909 0.960 . S
C923 H910 0.961 . S
C923 H911 0.959 . S
C923 C921 1.561 . S
C924 C921 1.526 . S
C924 C925 1.399 . S
C924 C929 1.390 . S
C925 C919 1.464 1_556 S
C925 C924 1.399 . S
C925 C926 1.397 1_556 S
C926 H912 0.929 . S
C926 C925 1.397 1_554 S
C926 C927 1.393 . S
C927 H913 0.942 . S
C927 C926 1.393 . S
C927 C928 1.371 1_554 S
C928 C927 1.371 1_556 S
C928 C929 1.387 . S
C929 H914 0.930 . S
C929 C924 1.390 . S
C929 C928 1.387 . S
H930 C942 0.930 . S
H931 C944 0.930 . S
H932 C945 0.930 . S
H933 C949 0.959 1_554 S
H934 C949 0.959 . S
H935 C949 0.961 . S
H936 C950 0.960 . S
H937 C950 0.961 . S
H938 C950 0.959 . S
H939 C953 0.929 . S
H940 C954 0.931 . S
H941 C956 0.930 . S
C942 H930 0.930 . S
C942 C943 1.399 1_556 S
C942 C947 1.399 . S
C943 C942 1.399 1_554 S
C943 C944 1.376 . S
C944 H931 0.930 . S
C944 C943 1.376 . S
C944 C945 1.388 . S
C945 H932 0.930 . S
C945 C944 1.388 . S
C945 C946 1.390 . S
C946 C945 1.390 . S
C946 C947 1.394 1_554 S
C946 C952 1.465 . S
C947 C942 1.399 . S
C947 C946 1.394 1_556 S
C947 C948 1.516 . S
C948 C947 1.516 . S
C948 C949 1.502 . S
C948 C950 1.561 . S
C948 C951 1.526 . S
C949 H933 0.959 1_556 S
C949 H934 0.959 . S
C949 H935 0.961 . S
C949 C948 1.502 . S
C950 H936 0.960 . S
C950 H937 0.961 . S
C950 H938 0.959 . S
C950 C948 1.561 . S
C951 C948 1.526 . S
C951 C952 1.396 1_556 S
C951 C956 1.390 . S
C952 C946 1.465 . S
C952 C951 1.396 1_554 S
C952 C953 1.399 . S
C953 H939 0.929 . S
C953 C952 1.399 . S
C953 C954 1.385 . S
C954 H940 0.931 . S
C954 C953 1.385 . S
C954 C955 1.389 1_554 S
C955 C954 1.389 1_556 S
C955 C956 1.387 . S
C956 H941 0.930 . S
C956 C951 1.390 . S
C956 C955 1.387 . S
H957 C969 0.930 . S
H958 C971 0.930 1_556 S
H959 C972 0.930 . S
H960 C976 0.959 . S
H961 C976 0.959 . S
H962 C976 0.961 . S
H963 C977 0.960 . S
H964 C977 0.961 . S
H965 C977 0.959 . S
H966 C980 0.929 . S
H967 C981 0.931 . S
H968 C983 0.930 . S
C969 H957 0.930 . S
C969 C970 1.399 . S
C969 C974 1.399 . S
C970 C969 1.399 . S
C970 C971 1.376 . S
C971 H958 0.930 1_554 S
C971 C970 1.376 . S
C971 C972 1.388 1_554 S
C972 H959 0.930 . S
C972 C971 1.388 1_556 S
C972 C973 1.390 1_556 S
C973 C972 1.390 1_554 S
C973 C974 1.394 . S
C973 C979 1.465 . S
C974 C969 1.399 . S
C974 C973 1.394 . S
C974 C975 1.516 . S
C975 C974 1.516 . S
C975 C976 1.502 . S
C975 C977 1.561 . S
C975 C978 1.526 . S
C976 H960 0.959 . S
C976 H961 0.959 . S
C976 H962 0.961 . S
C976 C975 1.502 . S
C977 H963 0.960 . S
C977 H964 0.961 . S
C977 H965 0.959 . S
C977 C975 1.561 . S
C978 C975 1.526 . S
C978 C979 1.396 . S
C978 C983 1.390 . S
C979 C973 1.465 . S
C979 C978 1.396 . S
C979 C980 1.399 1_554 S
C980 H966 0.929 . S
C980 C979 1.399 1_556 S
C980 C981 1.385 . S
C981 H967 0.931 . S
C981 C980 1.385 . S
C981 C982 1.389 1_556 S
C982 C981 1.389 1_554 S
C982 C983 1.387 . S
C983 H968 0.930 . S
C983 C978 1.390 . S
C983 C982 1.387 . S
H984 C996 0.930 . S
H985 C998 0.947 . S
H986 C999 0.930 1_655 S
H987 C1003 0.959 . S
H988 C1003 0.959 . S
H989 C1003 0.961 . S
H990 C1004 0.960 . S
H991 C1004 0.961 . S
H992 C1004 0.959 . S
H993 C1007 0.929 . S
H994 C1008 0.931 . S
H995 C1010 0.930 . S
C996 H984 0.930 . S
C996 C997 1.399 . S
C996 C1001 1.399 . S
C997 C996 1.399 . S
C997 C998 1.376 . S
C998 H985 0.947 . S
C998 C997 1.376 . S
C998 C999 1.388 . S
C999 H986 0.930 1_455 S
C999 C998 1.388 . S
C999 C1000 1.390 . S
C1000 C999 1.390 . S
C1000 C1001 1.394 . S
C1000 C1006 1.465 . S
C1001 C996 1.399 . S
C1001 C1000 1.394 . S
C1001 C1002 1.516 . S
C1002 C1001 1.516 . S
C1002 C1003 1.502 . S
C1002 C1004 1.561 . S
C1002 C1005 1.526 . S
C1003 H987 0.959 . S
C1003 H988 0.959 . S
C1003 H989 0.961 . S
C1003 C1002 1.502 . S
C1004 H990 0.960 . S
C1004 H991 0.961 . S
C1004 H992 0.959 . S
C1004 C1002 1.561 . S
C1005 C1002 1.526 . S
C1005 C1006 1.396 . S
C1005 C1010 1.390 . S
C1006 C1000 1.465 . S
C1006 C1005 1.396 . S
C1006 C1007 1.399 1_455 S
C1007 H993 0.929 . S
C1007 C1006 1.399 1_655 S
C1007 C1008 1.385 . S
C1008 H994 0.931 . S
C1008 C1007 1.385 . S
C1008 C1009 1.389 1_655 S
C1009 C1008 1.389 1_455 S
C1009 C1010 1.387 . S
C1010 H995 0.930 . S
C1010 C1005 1.390 . S
C1010 C1009 1.387 . S
H1011 C1023 0.930 . S
H1012 C1025 0.930 . S
H1013 C1026 0.930 . S
H1014 C1030 0.959 . S
H1015 C1030 0.959 . S
H1016 C1030 0.961 . S
H1017 C1031 0.960 . S
H1018 C1031 0.961 . S
H1019 C1031 0.959 . S
H1020 C1034 0.929 . S
H1021 C1035 0.931 . S
H1022 C1037 0.930 . S
C1023 H1011 0.930 . S
C1023 C1024 1.399 . S
C1023 C1028 1.399 . S
C1024 C1023 1.399 . S
C1024 C1025 1.376 . S
C1025 H1012 0.930 . S
C1025 C1024 1.376 . S
C1025 C1026 1.388 . S
C1026 H1013 0.930 . S
C1026 C1025 1.388 . S
C1026 C1027 1.392 . S
C1027 C1026 1.392 . S
C1027 C1028 1.400 . S
C1027 C1033 1.459 1_455 S
C1028 C1023 1.399 . S
C1028 C1027 1.400 . S
C1028 C1029 1.516 1_455 S
C1029 C1028 1.516 1_655 S
C1029 C1030 1.502 1_655 S
C1029 C1031 1.561 . S
C1029 C1032 1.526 . S
C1030 H1014 0.959 . S
C1030 H1015 0.959 . S
C1030 H1016 0.961 . S
C1030 C1029 1.502 1_455 S
C1031 H1017 0.960 . S
C1031 H1018 0.961 . S
C1031 H1019 0.959 . S
C1031 C1029 1.561 . S
C1032 C1029 1.526 . S
C1032 C1033 1.396 . S
C1032 C1037 1.390 . S
C1033 C1027 1.459 1_655 S
C1033 C1032 1.396 . S
C1033 C1034 1.399 . S
C1034 H1020 0.929 . S
C1034 C1033 1.399 . S
C1034 C1035 1.385 . S
C1035 H1021 0.931 . S
C1035 C1034 1.385 . S
C1035 C1036 1.389 . S
C1036 C1035 1.389 . S
C1036 C1037 1.387 . S
C1037 H1022 0.930 . S
C1037 C1032 1.390 . S
C1037 C1036 1.387 . S
H1038 C1050 0.930 . S
H1039 C1052 0.930 . S
H1040 C1053 0.930 . S
H1041 C1057 0.959 . S
H1042 C1057 0.959 . S
H1043 C1057 0.961 . S
H1044 C1058 0.960 . S
H1045 C1058 0.961 . S
H1046 C1058 0.959 . S
H1047 C1061 0.929 . S
H1048 C1062 0.931 . S
H1049 C1064 0.930 . S
C1050 H1038 0.930 . S
C1050 C1051 1.399 . S
C1050 C1055 1.399 . S
C1051 C1050 1.399 . S
C1051 C1052 1.376 . S
C1052 H1039 0.930 . S
C1052 C1051 1.376 . S
C1052 C1053 1.388 . S
C1053 H1040 0.930 . S
C1053 C1052 1.388 . S
C1053 C1054 1.390 . S
C1054 C1053 1.390 . S
C1054 C1055 1.394 . S
C1054 C1060 1.465 . S
C1055 C1050 1.399 . S
C1055 C1054 1.394 . S
C1055 C1056 1.516 . S
C1056 C1055 1.516 . S
C1056 C1057 1.502 . S
C1056 C1058 1.561 1_455 S
C1056 C1059 1.526 . S
C1057 H1041 0.959 . S
C1057 H1042 0.959 . S
C1057 H1043 0.961 . S
C1057 C1056 1.502 . S
C1058 H1044 0.960 . S
C1058 H1045 0.961 . S
C1058 H1046 0.959 . S
C1058 C1056 1.561 1_655 S
C1059 C1056 1.526 . S
C1059 C1060 1.396 . S
C1059 C1064 1.390 . S
C1060 C1054 1.465 . S
C1060 C1059 1.396 . S
C1060 C1061 1.399 . S
C1061 H1047 0.929 . S
C1061 C1060 1.399 . S
C1061 C1062 1.385 . S
C1062 H1048 0.931 . S
C1062 C1061 1.385 . S
C1062 C1063 1.389 . S
C1063 C1062 1.389 . S
C1063 C1064 1.387 . S
C1064 H1049 0.930 . S
C1064 C1059 1.390 . S
C1064 C1063 1.387 . S
H1065 C1077 0.930 . S
H1066 C1079 0.930 . S
H1067 C1080 0.930 . S
H1068 C1084 0.959 . S
H1069 C1084 0.959 . S
H1070 C1084 0.961 . S
H1071 C1085 0.960 . S
H1072 C1085 0.961 . S
H1073 C1085 0.959 1_455 S
H1074 C1088 0.929 . S
H1075 C1089 0.931 . S
H1076 C1091 0.930 . S
C1077 H1065 0.930 . S
C1077 C1078 1.399 1_655 S
C1077 C1082 1.399 . S
C1078 C1077 1.399 1_455 S
C1078 C1079 1.376 . S
C1079 H1066 0.930 . S
C1079 C1078 1.376 . S
C1079 C1080 1.388 . S
C1080 H1067 0.930 . S
C1080 C1079 1.388 . S
C1080 C1081 1.390 . S
C1081 C1080 1.390 . S
C1081 C1082 1.394 1_455 S
C1081 C1087 1.465 . S
C1082 C1077 1.399 . S
C1082 C1081 1.394 1_655 S
C1082 C1083 1.516 . S
C1083 C1082 1.516 . S
C1083 C1084 1.502 . S
C1083 C1085 1.561 . S
C1083 C1086 1.526 . S
C1084 H1068 0.959 . S
C1084 H1069 0.959 . S
C1084 H1070 0.961 . S
C1084 C1083 1.502 . S
C1085 H1071 0.960 . S
C1085 H1072 0.961 . S
C1085 H1073 0.959 1_655 S
C1085 C1083 1.561 . S
C1086 C1083 1.526 . S
C1086 C1087 1.396 1_655 S
C1086 C1091 1.390 . S
C1087 C1081 1.465 . S
C1087 C1086 1.396 1_455 S
C1087 C1088 1.399 . S
C1088 H1074 0.929 . S
C1088 C1087 1.399 . S
C1088 C1089 1.385 . S
C1089 H1075 0.931 . S
C1089 C1088 1.385 . S
C1089 C1090 1.389 1_455 S
C1090 C1089 1.389 1_655 S
C1090 C1091 1.387 . S
C1091 H1076 0.930 . S
C1091 C1086 1.390 . S
C1091 C1090 1.387 . S
H1092 C1104 0.930 . S
H1093 C1106 0.930 . S
H1094 C1107 0.930 . S
H1095 C1111 0.959 . S
H1096 C1111 0.959 . S
H1097 C1111 0.961 . S
H1098 C1112 0.960 . S
H1099 C1112 0.961 . S
H1100 C1112 0.959 . S
H1101 C1115 0.929 . S
H1102 C1116 0.916 1_565 S
H1103 C1118 0.930 . S
C1104 H1092 0.930 . S
C1104 C1105 1.399 . S
C1104 C1109 1.399 . S
C1105 C1104 1.399 . S
C1105 C1106 1.376 1_545 S
C1106 H1093 0.930 . S
C1106 C1105 1.376 1_565 S
C1106 C1107 1.388 . S
C1107 H1094 0.930 . S
C1107 C1106 1.388 . S
C1107 C1108 1.390 1_565 S
C1108 C1107 1.390 1_545 S
C1108 C1109 1.394 . S
C1108 C1114 1.465 . S
C1109 C1104 1.399 . S
C1109 C1108 1.394 . S
C1109 C1110 1.516 . S
C1110 C1109 1.516 . S
C1110 C1111 1.502 . S
C1110 C1112 1.561 . S
C1110 C1113 1.526 . S
C1111 H1095 0.959 . S
C1111 H1096 0.959 . S
C1111 H1097 0.961 . S
C1111 C1110 1.502 . S
C1112 H1098 0.960 . S
C1112 H1099 0.961 . S
C1112 H1100 0.959 . S
C1112 C1110 1.561 . S
C1113 C1110 1.526 . S
C1113 C1114 1.396 . S
C1113 C1118 1.390 . S
C1114 C1108 1.465 . S
C1114 C1113 1.396 . S
C1114 C1115 1.399 1_545 S
C1115 H1101 0.929 . S
C1115 C1114 1.399 1_565 S
C1115 C1116 1.379 1_565 S
C1116 H1102 0.916 1_545 S
C1116 C1115 1.379 1_545 S
C1116 C1117 1.410 . S
C1117 C1116 1.410 . S
C1117 C1118 1.387 . S
C1118 H1103 0.930 . S
C1118 C1113 1.390 . S
C1118 C1117 1.387 . S
H1119 C1131 0.930 . S
H1120 C1133 0.930 . S
H1121 C1134 0.930 . S
H1122 C1138 0.959 . S
H1123 C1138 0.959 . S
H1124 C1138 0.961 . S
H1125 C1139 0.960 . S
H1126 C1139 0.961 . S
H1127 C1139 0.959 . S
H1128 C1142 0.929 . S
H1129 C1143 0.931 . S
H1130 C1145 0.930 . S
C1131 H1119 0.930 . S
C1131 C1132 1.399 . S
C1131 C1136 1.399 . S
C1132 C1131 1.399 . S
C1132 C1133 1.376 . S
C1133 H1120 0.930 . S
C1133 C1132 1.376 . S
C1133 C1134 1.388 . S
C1134 H1121 0.930 . S
C1134 C1133 1.388 . S
C1134 C1135 1.390 . S
C1135 C1134 1.390 . S
C1135 C1136 1.394 . S
C1135 C1141 1.465 . S
C1136 C1131 1.399 . S
C1136 C1135 1.394 . S
C1136 C1137 1.516 . S
C1137 C1136 1.516 . S
C1137 C1138 1.502 . S
C1137 C1139 1.561 . S
C1137 C1140 1.526 . S
C1138 H1122 0.959 . S
C1138 H1123 0.959 . S
C1138 H1124 0.961 . S
C1138 C1137 1.502 . S
C1139 H1125 0.960 . S
C1139 H1126 0.961 . S
C1139 H1127 0.959 . S
C1139 C1137 1.561 . S
C1140 C1137 1.526 . S
C1140 C1141 1.396 . S
C1140 C1145 1.390 . S
C1141 C1135 1.465 . S
C1141 C1140 1.396 . S
C1141 C1142 1.399 . S
C1142 H1128 0.929 . S
C1142 C1141 1.399 . S
C1142 C1143 1.385 . S
C1143 H1129 0.931 . S
C1143 C1142 1.385 . S
C1143 C1144 1.389 . S
C1144 C1143 1.389 . S
C1144 C1145 1.387 . S
C1145 H1130 0.930 . S
C1145 C1140 1.390 . S
C1145 C1144 1.387 . S
H1146 C1158 0.930 . S
H1147 C1160 0.930 . S
H1148 C1161 0.930 . S
H1149 C1165 0.959 . S
H1150 C1165 0.959 . S
H1151 C1165 0.961 . S
H1152 C1166 0.960 . S
H1153 C1166 0.961 . S
H1154 C1166 0.959 . S
H1155 C1169 0.929 . S
H1156 C1170 0.931 . S
H1157 C1172 0.930 . S
C1158 H1146 0.930 . S
C1158 C1159 1.399 . S
C1158 C1163 1.399 . S
C1159 C1158 1.399 . S
C1159 C1160 1.376 1_565 S
C1160 H1147 0.930 . S
C1160 C1159 1.376 1_545 S
C1160 C1161 1.388 . S
C1161 H1148 0.930 . S
C1161 C1160 1.388 . S
C1161 C1162 1.390 . S
C1162 C1161 1.390 . S
C1162 C1163 1.394 1_545 S
C1162 C1168 1.465 . S
C1163 C1158 1.399 . S
C1163 C1162 1.394 1_565 S
C1163 C1164 1.516 . S
C1164 C1163 1.516 . S
C1164 C1165 1.502 . S
C1164 C1166 1.561 . S
C1164 C1167 1.526 . S
C1165 H1149 0.959 . S
C1165 H1150 0.959 . S
C1165 H1151 0.961 . S
C1165 C1164 1.502 . S
C1166 H1152 0.960 . S
C1166 H1153 0.961 . S
C1166 H1154 0.959 . S
C1166 C1164 1.561 . S
C1167 C1164 1.526 . S
C1167 C1168 1.396 1_565 S
C1167 C1172 1.390 . S
C1168 C1162 1.465 . S
C1168 C1167 1.396 1_545 S
C1168 C1169 1.399 . S
C1169 H1155 0.929 . S
C1169 C1168 1.399 . S
C1169 C1170 1.385 . S
C1170 H1156 0.931 . S
C1170 C1169 1.385 . S
C1170 C1171 1.389 1_545 S
C1171 C1170 1.389 1_565 S
C1171 C1172 1.387 . S
C1172 H1157 0.930 . S
C1172 C1167 1.390 . S
C1172 C1171 1.387 . S
H1173 C1185 0.930 . S
H1174 C1187 0.930 . S
H1175 C1188 0.930 . S
H1176 C1192 0.959 . S
H1177 C1192 0.959 . S
H1178 C1192 0.961 . S
H1179 C1193 0.960 . S
H1180 C1193 0.961 . S
H1181 C1193 0.959 . S
H1182 C1196 0.929 . S
H1183 C1197 0.931 . S
H1184 C1199 0.930 . S
C1185 H1173 0.930 . S
C1185 C1186 1.399 . S
C1185 C1190 1.399 . S
C1186 C1185 1.399 . S
C1186 C1187 1.376 . S
C1187 H1174 0.930 . S
C1187 C1186 1.376 . S
C1187 C1188 1.388 . S
C1188 H1175 0.930 . S
C1188 C1187 1.388 . S
C1188 C1189 1.390 . S
C1189 C1188 1.390 . S
C1189 C1190 1.394 . S
C1189 C1195 1.465 . S
C1190 C1185 1.399 . S
C1190 C1189 1.394 . S
C1190 C1191 1.516 . S
C1191 C1190 1.516 . S
C1191 C1192 1.502 . S
C1191 C1193 1.561 . S
C1191 C1194 1.526 . S
C1192 H1176 0.959 . S
C1192 H1177 0.959 . S
C1192 H1178 0.961 . S
C1192 C1191 1.502 . S
C1193 H1179 0.960 . S
C1193 H1180 0.961 . S
C1193 H1181 0.959 . S
C1193 C1191 1.561 . S
C1194 C1191 1.526 . S
C1194 C1195 1.396 . S
C1194 C1199 1.390 . S
C1195 C1189 1.465 . S
C1195 C1194 1.396 . S
C1195 C1196 1.399 . S
C1196 H1182 0.929 . S
C1196 C1195 1.399 . S
C1196 C1197 1.385 . S
C1197 H1183 0.931 . S
C1197 C1196 1.385 . S
C1197 C1198 1.389 . S
C1198 C1197 1.389 . S
C1198 C1199 1.387 . S
C1199 H1184 0.930 . S
C1199 C1194 1.390 . S
C1199 C1198 1.387 . S
H1200 C1212 0.930 . S
H1201 C1214 0.930 1_556 S
H1202 C1215 0.930 . S
H1203 C1219 0.959 . S
H1204 C1219 0.959 . S
H1205 C1219 0.961 . S
H1206 C1220 0.960 . S
H1207 C1220 0.961 . S
H1208 C1220 0.959 . S
H1209 C1223 0.929 . S
H1210 C1224 0.931 . S
H1211 C1226 0.930 . S
C1212 H1200 0.930 . S
C1212 C1213 1.399 . S
C1212 C1217 1.399 . S
C1213 C1212 1.399 . S
C1213 C1214 1.376 . S
C1214 H1201 0.930 1_554 S
C1214 C1213 1.376 . S
C1214 C1215 1.388 1_554 S
C1215 H1202 0.930 . S
C1215 C1214 1.388 1_556 S
C1215 C1216 1.390 1_556 S
C1216 C1215 1.390 1_554 S
C1216 C1217 1.394 . S
C1216 C1222 1.465 . S
C1217 C1212 1.399 . S
C1217 C1216 1.394 . S
C1217 C1218 1.516 . S
C1218 C1217 1.516 . S
C1218 C1219 1.502 . S
C1218 C1220 1.561 . S
C1218 C1221 1.526 . S
C1219 H1203 0.959 . S
C1219 H1204 0.959 . S
C1219 H1205 0.961 . S
C1219 C1218 1.502 . S
C1220 H1206 0.960 . S
C1220 H1207 0.961 . S
C1220 H1208 0.959 . S
C1220 C1218 1.561 . S
C1221 C1218 1.526 . S
C1221 C1222 1.396 . S
C1221 C1226 1.390 . S
C1222 C1216 1.465 . S
C1222 C1221 1.396 . S
C1222 C1223 1.399 1_554 S
C1223 H1209 0.929 . S
C1223 C1222 1.399 1_556 S
C1223 C1224 1.385 . S
C1224 H1210 0.931 . S
C1224 C1223 1.385 . S
C1224 C1225 1.389 1_556 S
C1225 C1224 1.389 1_554 S
C1225 C1226 1.387 . S
C1226 H1211 0.930 . S
C1226 C1221 1.390 . S
C1226 C1225 1.387 . S
H1227 C1239 0.930 . S
H1228 C1241 0.930 . S
H1229 C1242 0.930 . S
H1230 C1246 0.959 . S
H1231 C1246 0.959 . S
H1232 C1246 0.961 . S
H1233 C1247 0.960 . S
H1234 C1247 0.961 . S
H1235 C1247 0.959 . S
H1236 C1250 0.929 . S
H1237 C1251 0.931 . S
H1238 C1253 0.930 . S
C1239 H1227 0.930 . S
C1239 C1240 1.399 . S
C1239 C1244 1.399 . S
C1240 C1239 1.399 . S
C1240 C1241 1.376 . S
C1241 H1228 0.930 . S
C1241 C1240 1.376 . S
C1241 C1242 1.388 . S
C1242 H1229 0.930 . S
C1242 C1241 1.388 . S
C1242 C1243 1.390 . S
C1243 C1242 1.390 . S
C1243 C1244 1.394 . S
C1243 C1249 1.465 . S
C1244 C1239 1.399 . S
C1244 C1243 1.394 . S
C1244 C1245 1.516 . S
C1245 C1244 1.516 . S
C1245 C1246 1.502 . S
C1245 C1247 1.561 . S
C1245 C1248 1.526 . S
C1246 H1230 0.959 . S
C1246 H1231 0.959 . S
C1246 H1232 0.961 . S
C1246 C1245 1.502 . S
C1247 H1233 0.960 . S
C1247 H1234 0.961 . S
C1247 H1235 0.959 . S
C1247 C1245 1.561 . S
C1248 C1245 1.526 . S
C1248 C1249 1.396 . S
C1248 C1253 1.390 . S
C1249 C1243 1.465 . S
C1249 C1248 1.396 . S
C1249 C1250 1.399 . S
C1250 H1236 0.929 . S
C1250 C1249 1.399 . S
C1250 C1251 1.385 . S
C1251 H1237 0.931 . S
C1251 C1250 1.385 . S
C1251 C1252 1.389 . S
C1252 C1251 1.389 . S
C1252 C1253 1.387 . S
C1253 H1238 0.930 . S
C1253 C1248 1.390 . S
C1253 C1252 1.387 . S
H1254 C1266 0.930 . S
H1255 C1268 0.930 . S
H1256 C1269 0.930 . S
H1257 C1273 0.959 . S
H1258 C1273 0.959 . S
H1259 C1273 0.961 . S
H1260 C1274 0.960 . S
H1261 C1274 0.961 . S
H1262 C1274 0.959 . S
H1263 C1277 0.929 . S
H1264 C1278 0.931 . S
H1265 C1280 0.930 . S
C1266 H1254 0.930 . S
C1266 C1267 1.399 . S
C1266 C1271 1.399 . S
C1267 C1266 1.399 . S
C1267 C1268 1.376 . S
C1268 H1255 0.930 . S
C1268 C1267 1.376 . S
C1268 C1269 1.388 . S
C1269 H1256 0.930 . S
C1269 C1268 1.388 . S
C1269 C1270 1.390 . S
C1270 C1269 1.390 . S
C1270 C1271 1.394 . S
C1270 C1276 1.465 . S
C1271 C1266 1.399 . S
C1271 C1270 1.394 . S
C1271 C1272 1.516 . S
C1272 C1271 1.516 . S
C1272 C1273 1.502 . S
C1272 C1274 1.561 . S
C1272 C1275 1.526 . S
C1273 H1257 0.959 . S
C1273 H1258 0.959 . S
C1273 H1259 0.961 . S
C1273 C1272 1.502 . S
C1274 H1260 0.960 . S
C1274 H1261 0.961 . S
C1274 H1262 0.959 . S
C1274 C1272 1.561 . S
C1275 C1272 1.526 . S
C1275 C1276 1.396 . S
C1275 C1280 1.390 . S
C1276 C1270 1.465 . S
C1276 C1275 1.396 . S
C1276 C1277 1.399 . S
C1277 H1263 0.929 . S
C1277 C1276 1.399 . S
C1277 C1278 1.385 . S
C1278 H1264 0.931 . S
C1278 C1277 1.385 . S
C1278 C1279 1.389 . S
C1279 C1278 1.389 . S
C1279 C1280 1.387 . S
C1280 H1265 0.930 . S
C1280 C1275 1.390 . S
C1280 C1279 1.387 . S
H1281 C1293 0.930 . S
H1282 C1295 0.930 . S
H1283 C1296 0.930 . S
H1284 C1300 0.959 . S
H1285 C1300 0.959 . S
H1286 C1300 0.961 . S
H1287 C1301 0.960 . S
H1288 C1301 0.961 . S
H1289 C1301 0.959 . S
H1290 C1304 0.929 . S
H1291 C1305 0.931 . S
H1292 C1307 0.930 . S
C1293 H1281 0.930 . S
C1293 C1294 1.399 . S
C1293 C1298 1.399 . S
C1294 C1293 1.399 . S
C1294 C1295 1.376 . S
C1295 H1282 0.930 . S
C1295 C1294 1.376 . S
C1295 C1296 1.388 . S
C1296 H1283 0.930 . S
C1296 C1295 1.388 . S
C1296 C1297 1.390 . S
C1297 C1296 1.390 . S
C1297 C1298 1.394 . S
C1297 C1303 1.465 . S
C1298 C1293 1.399 . S
C1298 C1297 1.394 . S
C1298 C1299 1.516 . S
C1299 C1298 1.516 . S
C1299 C1300 1.502 . S
C1299 C1301 1.561 . S
C1299 C1302 1.526 . S
C1300 H1284 0.959 . S
C1300 H1285 0.959 . S
C1300 H1286 0.961 . S
C1300 C1299 1.502 . S
C1301 H1287 0.960 . S
C1301 H1288 0.961 . S
C1301 H1289 0.959 . S
C1301 C1299 1.561 . S
C1302 C1299 1.526 . S
C1302 C1303 1.396 . S
C1302 C1307 1.390 . S
C1303 C1297 1.465 . S
C1303 C1302 1.396 . S
C1303 C1304 1.399 . S
C1304 H1290 0.929 . S
C1304 C1303 1.399 . S
C1304 C1305 1.385 . S
C1305 H1291 0.931 . S
C1305 C1304 1.385 . S
C1305 C1306 1.389 . S
C1306 C1305 1.389 . S
C1306 C1307 1.387 . S
C1307 H1292 0.930 . S
C1307 C1302 1.390 . S
C1307 C1306 1.387 . S
H1308 C1320 0.930 . S
H1309 C1322 0.930 . S
H1310 C1323 0.930 . S
H1311 C1327 0.959 . S
H1312 C1327 0.959 . S
H1313 C1327 0.961 . S
H1314 C1328 0.960 . S
H1315 C1328 0.961 . S
H1316 C1328 0.959 . S
H1317 C1331 0.929 . S
H1318 C1332 0.931 . S
H1319 C1334 0.930 . S
C1320 H1308 0.930 . S
C1320 C1321 1.399 . S
C1320 C1325 1.399 . S
C1321 C1320 1.399 . S
C1321 C1322 1.376 . S
C1322 H1309 0.930 . S
C1322 C1321 1.376 . S
C1322 C1323 1.388 . S
C1323 H1310 0.930 . S
C1323 C1322 1.388 . S
C1323 C1324 1.390 . S
C1324 C1323 1.390 . S
C1324 C1325 1.394 . S
C1324 C1330 1.465 . S
C1325 C1320 1.399 . S
C1325 C1324 1.394 . S
C1325 C1326 1.516 . S
C1326 C1325 1.516 . S
C1326 C1327 1.502 . S
C1326 C1328 1.561 . S
C1326 C1329 1.526 . S
C1327 H1311 0.959 . S
C1327 H1312 0.959 . S
C1327 H1313 0.961 . S
C1327 C1326 1.502 . S
C1328 H1314 0.960 . S
C1328 H1315 0.961 . S
C1328 H1316 0.959 . S
C1328 C1326 1.561 . S
C1329 C1326 1.526 . S
C1329 C1330 1.396 . S
C1329 C1334 1.390 . S
C1330 C1324 1.465 . S
C1330 C1329 1.396 . S
C1330 C1331 1.399 . S
C1331 H1317 0.929 . S
C1331 C1330 1.399 . S
C1331 C1332 1.385 . S
C1332 H1318 0.931 . S
C1332 C1331 1.385 . S
C1332 C1333 1.389 . S
C1333 C1332 1.389 . S
C1333 C1334 1.387 . S
C1334 H1319 0.930 . S
C1334 C1329 1.390 . S
C1334 C1333 1.387 . S
H1335 C1347 0.930 . S
H1336 C1349 0.930 . S
H1337 C1350 0.930 . S
H1338 C1354 0.959 . S
H1339 C1354 0.959 . S
H1340 C1354 0.961 . S
H1341 C1355 0.960 . S
H1342 C1355 0.961 . S
H1343 C1355 0.959 . S
H1344 C1358 0.929 . S
H1345 C1359 0.931 . S
H1346 C1361 0.930 . S
C1347 H1335 0.930 . S
C1347 C1348 1.399 . S
C1347 C1352 1.399 . S
C1348 C1347 1.399 . S
C1348 C1349 1.376 . S
C1349 H1336 0.930 . S
C1349 C1348 1.376 . S
C1349 C1350 1.388 . S
C1350 H1337 0.930 . S
C1350 C1349 1.388 . S
C1350 C1351 1.390 . S
C1351 C1350 1.390 . S
C1351 C1352 1.394 . S
C1351 C1357 1.465 . S
C1352 C1347 1.399 . S
C1352 C1351 1.394 . S
C1352 C1353 1.516 . S
C1353 C1352 1.516 . S
C1353 C1354 1.502 . S
C1353 C1355 1.561 . S
C1353 C1356 1.526 . S
C1354 H1338 0.959 . S
C1354 H1339 0.959 . S
C1354 H1340 0.961 . S
C1354 C1353 1.502 . S
C1355 H1341 0.960 . S
C1355 H1342 0.961 . S
C1355 H1343 0.959 . S
C1355 C1353 1.561 . S
C1356 C1353 1.526 . S
C1356 C1357 1.396 . S
C1356 C1361 1.390 . S
C1357 C1351 1.465 . S
C1357 C1356 1.396 . S
C1357 C1358 1.399 . S
C1358 H1344 0.929 . S
C1358 C1357 1.399 . S
C1358 C1359 1.385 . S
C1359 H1345 0.931 . S
C1359 C1358 1.385 . S
C1359 C1360 1.389 . S
C1360 C1359 1.389 . S
C1360 C1361 1.387 . S
C1361 H1346 0.930 . S
C1361 C1356 1.390 . S
C1361 C1360 1.387 . S
H1362 C1374 0.930 . S
H1363 C1376 0.930 . S
H1364 C1377 0.930 . S
H1365 C1381 0.959 . S
H1366 C1381 0.959 . S
H1367 C1381 0.961 . S
H1368 C1382 0.960 . S
H1369 C1382 0.961 . S
H1370 C1382 0.959 . S
H1371 C1385 0.929 . S
H1372 C1386 0.931 . S
H1373 C1388 0.930 . S
C1374 H1362 0.930 . S
C1374 C1375 1.399 . S
C1374 C1379 1.399 . S
C1375 C1374 1.399 . S
C1375 C1376 1.376 . S
C1376 H1363 0.930 . S
C1376 C1375 1.376 . S
C1376 C1377 1.388 . S
C1377 H1364 0.930 . S
C1377 C1376 1.388 . S
C1377 C1378 1.390 . S
C1378 C1377 1.390 . S
C1378 C1379 1.394 . S
C1378 C1384 1.465 . S
C1379 C1374 1.399 . S
C1379 C1378 1.394 . S
C1379 C1380 1.516 . S
C1380 C1379 1.516 . S
C1380 C1381 1.502 . S
C1380 C1382 1.561 . S
C1380 C1383 1.526 . S
C1381 H1365 0.959 . S
C1381 H1366 0.959 . S
C1381 H1367 0.961 . S
C1381 C1380 1.502 . S
C1382 H1368 0.960 . S
C1382 H1369 0.961 . S
C1382 H1370 0.959 . S
C1382 C1380 1.561 . S
C1383 C1380 1.526 . S
C1383 C1384 1.396 . S
C1383 C1388 1.390 . S
C1384 C1378 1.465 . S
C1384 C1383 1.396 . S
C1384 C1385 1.399 . S
C1385 H1371 0.929 . S
C1385 C1384 1.399 . S
C1385 C1386 1.385 . S
C1386 H1372 0.931 . S
C1386 C1385 1.385 . S
C1386 C1387 1.389 . S
C1387 C1386 1.389 . S
C1387 C1388 1.387 . S
C1388 H1373 0.930 . S
C1388 C1383 1.390 . S
C1388 C1387 1.387 . S
H1389 C1401 0.930 . S
H1390 C1403 0.930 . S
H1391 C1404 0.930 . S
H1392 C1408 0.959 . S
H1393 C1408 0.959 . S
H1394 C1408 0.961 . S
H1395 C1409 0.960 . S
H1396 C1409 0.961 . S
H1397 C1409 0.959 . S
H1398 C1412 0.929 . S
H1399 C1413 0.931 . S
H1400 C1415 0.930 . S
C1401 H1389 0.930 . S
C1401 C1402 1.399 . S
C1401 C1406 1.399 . S
C1402 C1401 1.399 . S
C1402 C1403 1.376 . S
C1403 H1390 0.930 . S
C1403 C1402 1.376 . S
C1403 C1404 1.388 . S
C1404 H1391 0.930 . S
C1404 C1403 1.388 . S
C1404 C1405 1.390 . S
C1405 C1404 1.390 . S
C1405 C1406 1.394 . S
C1405 C1411 1.465 . S
C1406 C1401 1.399 . S
C1406 C1405 1.394 . S
C1406 C1407 1.516 . S
C1407 C1406 1.516 . S
C1407 C1408 1.502 . S
C1407 C1409 1.561 . S
C1407 C1410 1.526 . S
C1408 H1392 0.959 . S
C1408 H1393 0.959 . S
C1408 H1394 0.961 . S
C1408 C1407 1.502 . S
C1409 H1395 0.960 . S
C1409 H1396 0.961 . S
C1409 H1397 0.959 . S
C1409 C1407 1.561 . S
C1410 C1407 1.526 . S
C1410 C1411 1.396 . S
C1410 C1415 1.390 . S
C1411 C1405 1.465 . S
C1411 C1410 1.396 . S
C1411 C1412 1.399 . S
C1412 H1398 0.929 . S
C1412 C1411 1.399 . S
C1412 C1413 1.385 . S
C1413 H1399 0.931 . S
C1413 C1412 1.385 . S
C1413 C1414 1.389 . S
C1414 C1413 1.389 . S
C1414 C1415 1.387 . S
C1415 H1400 0.930 . S
C1415 C1410 1.390 . S
C1415 C1414 1.387 . S
H1416 C1428 0.930 . S
H1417 C1430 0.930 . S
H1418 C1431 0.930 . S
H1419 C1435 0.959 . S
H1420 C1435 0.959 . S
H1421 C1435 0.961 . S
H1422 C1436 0.960 . S
H1423 C1436 0.961 . S
H1424 C1436 0.959 . S
H1425 C1439 0.929 . S
H1426 C1440 0.931 . S
H1427 C1442 0.930 . S
C1428 H1416 0.930 . S
C1428 C1429 1.399 . S
C1428 C1433 1.399 . S
C1429 C1428 1.399 . S
C1429 C1430 1.376 . S
C1430 H1417 0.930 . S
C1430 C1429 1.376 . S
C1430 C1431 1.388 . S
C1431 H1418 0.930 . S
C1431 C1430 1.388 . S
C1431 C1432 1.390 . S
C1432 C1431 1.390 . S
C1432 C1433 1.394 . S
C1432 C1438 1.465 . S
C1433 C1428 1.399 . S
C1433 C1432 1.394 . S
C1433 C1434 1.516 . S
C1434 C1433 1.516 . S
C1434 C1435 1.502 . S
C1434 C1436 1.561 . S
C1434 C1437 1.526 . S
C1435 H1419 0.959 . S
C1435 H1420 0.959 . S
C1435 H1421 0.961 . S
C1435 C1434 1.502 . S
C1436 H1422 0.960 . S
C1436 H1423 0.961 . S
C1436 H1424 0.959 . S
C1436 C1434 1.561 . S
C1437 C1434 1.526 . S
C1437 C1438 1.396 . S
C1437 C1442 1.390 . S
C1438 C1432 1.465 . S
C1438 C1437 1.396 . S
C1438 C1439 1.399 . S
C1439 H1425 0.929 . S
C1439 C1438 1.399 . S
C1439 C1440 1.385 . S
C1440 H1426 0.931 . S
C1440 C1439 1.385 . S
C1440 C1441 1.389 . S
C1441 C1440 1.389 . S
C1441 C1442 1.387 . S
C1442 H1427 0.930 . S
C1442 C1437 1.390 . S
C1442 C1441 1.387 . S
H1443 C1455 0.930 . S
H1444 C1457 0.930 . S
H1445 C1458 0.930 . S
H1446 C1462 0.959 . S
H1447 C1462 0.959 . S
H1448 C1462 0.961 . S
H1449 C1463 0.960 . S
H1450 C1463 0.961 . S
H1451 C1463 0.959 . S
H1452 C1466 0.929 . S
H1453 C1467 0.931 . S
H1454 C1469 0.930 . S
C1455 H1443 0.930 . S
C1455 C1456 1.399 1_545 S
C1455 C1460 1.399 . S
C1456 C1455 1.399 1_565 S
C1456 C1457 1.376 . S
C1457 H1444 0.930 . S
C1457 C1456 1.376 . S
C1457 C1458 1.388 . S
C1458 H1445 0.930 . S
C1458 C1457 1.388 . S
C1458 C1459 1.390 . S
C1459 C1458 1.390 . S
C1459 C1460 1.394 1_565 S
C1459 C1465 1.465 . S
C1460 C1455 1.399 . S
C1460 C1459 1.394 1_545 S
C1460 C1461 1.516 . S
C1461 C1460 1.516 . S
C1461 C1462 1.502 . S
C1461 C1463 1.561 . S
C1461 C1464 1.526 . S
C1462 H1446 0.959 . S
C1462 H1447 0.959 . S
C1462 H1448 0.961 . S
C1462 C1461 1.502 . S
C1463 H1449 0.960 . S
C1463 H1450 0.961 . S
C1463 H1451 0.959 . S
C1463 C1461 1.561 . S
C1464 C1461 1.526 . S
C1464 C1465 1.396 1_545 S
C1464 C1469 1.390 . S
C1465 C1459 1.465 . S
C1465 C1464 1.396 1_565 S
C1465 C1466 1.399 . S
C1466 H1452 0.929 . S
C1466 C1465 1.399 . S
C1466 C1467 1.385 . S
C1467 H1453 0.931 . S
C1467 C1466 1.385 . S
C1467 C1468 1.389 . S
C1468 C1467 1.389 . S
C1468 C1469 1.387 1_565 S
C1469 H1454 0.930 . S
C1469 C1464 1.390 . S
C1469 C1468 1.387 1_545 S
H1470 C1482 0.930 . S
H1471 C1484 0.930 . S
H1472 C1485 0.930 . S
H1473 C1489 0.959 . S
H1474 C1489 0.959 . S
H1475 C1489 0.961 . S
H1476 C1490 0.960 . S
H1477 C1490 0.961 . S
H1478 C1490 0.959 . S
H1479 C1493 0.929 . S
H1480 C1494 0.931 . S
H1481 C1496 0.930 . S
C1482 H1470 0.930 . S
C1482 C1483 1.399 . S
C1482 C1487 1.399 . S
C1483 C1482 1.399 . S
C1483 C1484 1.376 . S
C1484 H1471 0.930 . S
C1484 C1483 1.376 . S
C1484 C1485 1.388 . S
C1485 H1472 0.930 . S
C1485 C1484 1.388 . S
C1485 C1486 1.390 . S
C1486 C1485 1.390 . S
C1486 C1487 1.394 . S
C1486 C1492 1.465 . S
C1487 C1482 1.399 . S
C1487 C1486 1.394 . S
C1487 C1488 1.516 . S
C1488 C1487 1.516 . S
C1488 C1489 1.502 . S
C1488 C1490 1.561 . S
C1488 C1491 1.526 . S
C1489 H1473 0.959 . S
C1489 H1474 0.959 . S
C1489 H1475 0.961 . S
C1489 C1488 1.502 . S
C1490 H1476 0.960 . S
C1490 H1477 0.961 . S
C1490 H1478 0.959 . S
C1490 C1488 1.561 . S
C1491 C1488 1.526 . S
C1491 C1492 1.396 . S
C1491 C1496 1.390 . S
C1492 C1486 1.465 . S
C1492 C1491 1.396 . S
C1492 C1493 1.399 . S
C1493 H1479 0.929 . S
C1493 C1492 1.399 . S
C1493 C1494 1.385 . S
C1494 H1480 0.931 . S
C1494 C1493 1.385 . S
C1494 C1495 1.389 . S
C1495 C1494 1.389 . S
C1495 C1496 1.387 . S
C1496 H1481 0.930 . S
C1496 C1491 1.390 . S
C1496 C1495 1.387 . S
H1497 C1509 0.915 1_565 S
H1498 C1511 0.930 . S
H1499 C1512 0.930 . S
H1500 C1516 0.959 1_545 S
H1501 C1516 0.959 . S
H1502 C1516 0.961 . S
H1503 C1517 0.960 . S
H1504 C1517 0.961 . S
H1505 C1517 0.959 . S
H1506 C1520 0.929 . S
H1507 C1521 0.931 . S
H1508 C1523 0.930 . S
C1509 H1497 0.915 1_545 S
C1509 C1510 1.410 . S
C1509 C1514 1.404 . S
C1510 C1509 1.410 . S
C1510 C1511 1.376 . S
C1511 H1498 0.930 . S
C1511 C1510 1.376 . S
C1511 C1512 1.388 . S
C1512 H1499 0.930 . S
C1512 C1511 1.388 . S
C1512 C1513 1.390 . S
C1513 C1512 1.390 . S
C1513 C1514 1.394 . S
C1513 C1519 1.465 . S
C1514 C1509 1.404 . S
C1514 C1513 1.394 . S
C1514 C1515 1.516 1_545 S
C1515 C1514 1.516 1_565 S
C1515 C1516 1.502 . S
C1515 C1517 1.561 . S
C1515 C1518 1.526 1_565 S
C1516 H1500 0.959 1_565 S
C1516 H1501 0.959 . S
C1516 H1502 0.961 . S
C1516 C1515 1.502 . S
C1517 H1503 0.960 . S
C1517 H1504 0.961 . S
C1517 H1505 0.959 . S
C1517 C1515 1.561 . S
C1518 C1515 1.526 1_545 S
C1518 C1519 1.396 . S
C1518 C1523 1.390 . S
C1519 C1513 1.465 . S
C1519 C1518 1.396 . S
C1519 C1520 1.399 . S
C1520 H1506 0.929 . S
C1520 C1519 1.399 . S
C1520 C1521 1.385 . S
C1521 H1507 0.931 . S
C1521 C1520 1.385 . S
C1521 C1522 1.389 . S
C1522 C1521 1.389 . S
C1522 C1523 1.387 . S
C1523 H1508 0.930 . S
C1523 C1518 1.390 . S
C1523 C1522 1.387 . S
H1524 C1536 0.930 . S
H1525 C1538 0.930 . S
H1526 C1539 0.930 . S
H1527 C1543 0.959 . S
H1528 C1543 0.959 . S
H1529 C1543 0.961 . S
H1530 C1544 0.960 . S
H1531 C1544 0.961 . S
H1532 C1544 0.959 . S
H1533 C1547 0.929 . S
H1534 C1548 0.931 . S
H1535 C1550 0.930 . S
C1536 H1524 0.930 . S
C1536 C1537 1.399 . S
C1536 C1541 1.399 . S
C1537 C1536 1.399 . S
C1537 C1538 1.376 . S
C1538 H1525 0.930 . S
C1538 C1537 1.376 . S
C1538 C1539 1.388 . S
C1539 H1526 0.930 . S
C1539 C1538 1.388 . S
C1539 C1540 1.390 . S
C1540 C1539 1.390 . S
C1540 C1541 1.394 . S
C1540 C1546 1.465 . S
C1541 C1536 1.399 . S
C1541 C1540 1.394 . S
C1541 C1542 1.516 . S
C1542 C1541 1.516 . S
C1542 C1543 1.502 . S
C1542 C1544 1.561 . S
C1542 C1545 1.526 . S
C1543 H1527 0.959 . S
C1543 H1528 0.959 . S
C1543 H1529 0.961 . S
C1543 C1542 1.502 . S
C1544 H1530 0.960 . S
C1544 H1531 0.961 . S
C1544 H1532 0.959 . S
C1544 C1542 1.561 . S
C1545 C1542 1.526 . S
C1545 C1546 1.396 . S
C1545 C1550 1.390 . S
C1546 C1540 1.465 . S
C1546 C1545 1.396 . S
C1546 C1547 1.399 . S
C1547 H1533 0.929 . S
C1547 C1546 1.399 . S
C1547 C1548 1.385 . S
C1548 H1534 0.931 . S
C1548 C1547 1.385 . S
C1548 C1549 1.389 . S
C1549 C1548 1.389 . S
C1549 C1550 1.387 . S
C1550 H1535 0.930 . S
C1550 C1545 1.390 . S
C1550 C1549 1.387 . S
H1551 C1563 0.930 . S
H1552 C1565 0.930 . S
H1553 C1566 0.930 . S
H1554 C1570 0.959 . S
H1555 C1570 0.959 . S
H1556 C1570 0.961 . S
H1557 C1571 0.960 . S
H1558 C1571 0.961 . S
H1559 C1571 0.959 . S
H1560 C1574 0.929 . S
H1561 C1575 0.931 . S
H1562 C1577 0.930 . S
C1563 H1551 0.930 . S
C1563 C1564 1.399 1_556 S
C1563 C1568 1.399 . S
C1564 C1563 1.399 1_554 S
C1564 C1565 1.376 . S
C1565 H1552 0.930 . S
C1565 C1564 1.376 . S
C1565 C1566 1.388 . S
C1566 H1553 0.930 . S
C1566 C1565 1.388 . S
C1566 C1567 1.390 . S
C1567 C1566 1.390 . S
C1567 C1568 1.394 1_554 S
C1567 C1573 1.465 . S
C1568 C1563 1.399 . S
C1568 C1567 1.394 1_556 S
C1568 C1569 1.516 . S
C1569 C1568 1.516 . S
C1569 C1570 1.502 . S
C1569 C1571 1.561 . S
C1569 C1572 1.526 . S
C1570 H1554 0.959 . S
C1570 H1555 0.959 . S
C1570 H1556 0.961 . S
C1570 C1569 1.502 . S
C1571 H1557 0.960 . S
C1571 H1558 0.961 . S
C1571 H1559 0.959 . S
C1571 C1569 1.561 . S
C1572 C1569 1.526 . S
C1572 C1573 1.396 1_556 S
C1572 C1577 1.390 . S
C1573 C1567 1.465 . S
C1573 C1572 1.396 1_554 S
C1573 C1574 1.399 . S
C1574 H1560 0.929 . S
C1574 C1573 1.399 . S
C1574 C1575 1.385 . S
C1575 H1561 0.931 . S
C1575 C1574 1.385 . S
C1575 C1576 1.389 1_554 S
C1576 C1575 1.389 1_556 S
C1576 C1577 1.387 . S
C1577 H1562 0.930 . S
C1577 C1572 1.390 . S
C1577 C1576 1.387 . S
H1578 C1590 0.930 . S
H1579 C1592 0.930 . S
H1580 C1593 0.930 . S
H1581 C1597 0.959 . S
H1582 C1597 0.959 . S
H1583 C1597 0.961 . S
H1584 C1598 0.960 . S
H1585 C1598 0.961 . S
H1586 C1598 0.959 . S
H1587 C1601 0.929 . S
H1588 C1602 0.931 . S
H1589 C1604 0.931 . S
C1590 H1578 0.930 . S
C1590 C1591 1.399 . S
C1590 C1595 1.399 . S
C1591 C1590 1.399 . S
C1591 C1592 1.376 1_554 S
C1592 H1579 0.930 . S
C1592 C1591 1.376 1_556 S
C1592 C1593 1.388 . S
C1593 H1580 0.930 . S
C1593 C1592 1.388 . S
C1593 C1594 1.390 . S
C1594 C1593 1.390 . S
C1594 C1595 1.394 1_556 S
C1594 C1600 1.465 . S
C1595 C1590 1.399 . S
C1595 C1594 1.394 1_554 S
C1595 C1596 1.516 . S
C1596 C1595 1.516 . S
C1596 C1597 1.502 . S
C1596 C1598 1.561 . S
C1596 C1599 1.533 . S
C1597 H1581 0.959 . S
C1597 H1582 0.959 . S
C1597 H1583 0.961 . S
C1597 C1596 1.502 . S
C1598 H1584 0.960 . S
C1598 H1585 0.961 . S
C1598 H1586 0.959 . S
C1598 C1596 1.561 . S
C1599 C1596 1.533 . S
C1599 C1600 1.388 1_554 S
C1599 C1604 1.389 . S
C1600 C1594 1.465 . S
C1600 C1599 1.388 1_556 S
C1600 C1601 1.399 . S
C1601 H1587 0.929 . S
C1601 C1600 1.399 . S
C1601 C1602 1.385 . S
C1602 H1588 0.931 . S
C1602 C1601 1.385 . S
C1602 C1603 1.389 . S
C1603 C1602 1.389 . S
C1603 C1604 1.386 1_556 S
C1604 H1589 0.931 . S
C1604 C1599 1.389 . S
C1604 C1603 1.386 1_554 S
H1605 C1617 0.930 1_556 S
H1606 C1619 0.930 . S
H1607 C1620 0.930 . S
H1608 C1624 0.959 . S
H1609 C1624 0.959 . S
H1610 C1624 0.961 . S
H1611 C1625 0.960 . S
H1612 C1625 0.961 . S
H1613 C1625 0.959 . S
H1614 C1628 0.929 . S
H1615 C1629 0.931 . S
H1616 C1631 0.930 1_556 S
C1617 H1605 0.930 1_554 S
C1617 C1618 1.399 . S
C1617 C1622 1.399 . S
C1618 C1617 1.399 . S
C1618 C1619 1.376 . S
C1619 H1606 0.930 . S
C1619 C1618 1.376 . S
C1619 C1620 1.388 . S
C1620 H1607 0.930 . S
C1620 C1619 1.388 . S
C1620 C1621 1.390 . S
C1621 C1620 1.390 . S
C1621 C1622 1.394 . S
C1621 C1627 1.465 . S
C1622 C1617 1.399 . S
C1622 C1621 1.394 . S
C1622 C1623 1.516 1_554 S
C1623 C1622 1.516 1_556 S
C1623 C1624 1.502 . S
C1623 C1625 1.561 . S
C1623 C1626 1.526 1_556 S
C1624 H1608 0.959 . S
C1624 H1609 0.959 . S
C1624 H1610 0.961 . S
C1624 C1623 1.502 . S
C1625 H1611 0.960 . S
C1625 H1612 0.961 . S
C1625 H1613 0.959 . S
C1625 C1623 1.561 . S
C1626 C1623 1.526 1_554 S
C1626 C1627 1.396 . S
C1626 C1631 1.390 . S
C1627 C1621 1.465 . S
C1627 C1626 1.396 . S
C1627 C1628 1.399 . S
C1628 H1614 0.929 . S
C1628 C1627 1.399 . S
C1628 C1629 1.385 . S
C1629 H1615 0.931 . S
C1629 C1628 1.385 . S
C1629 C1630 1.389 . S
C1630 C1629 1.389 . S
C1630 C1631 1.387 . S
C1631 H1616 0.930 1_554 S
C1631 C1626 1.390 . S
C1631 C1630 1.387 . S
C349 C13 1.866 . S
C361 C226 1.649 . S
C388 C246 1.753 . S
C376 C1 1.760 . S
C415 C185 1.569 . S
C403 C27 1.580 . S
C430 C15 1.482 . S
C442 C206 1.504 . S
C457 C28 1.483 . S
C469 C331 1.404 . S
C484 C55 1.410 . S
C496 C311 1.428 . S
C523 C267 1.681 . S
C511 C40 1.716 . S
C538 C43 1.480 . S
C550 C288 1.436 . S
C577 C205 1.487 . S
C565 C56 1.548 . S
C604 C248 1.485 . S
C592 C83 1.458 . S
C619 C96 1.688 . S
C631 C225 1.631 . S
C646 C71 1.547 . S
C658 C289 1.349 . S
C685 C310 1.658 . S
C673 C99 1.865 . S
C712 C330 1.664 1_565 S
C700 C111 1.776 . S
C727 C113 1.533 . S
C739 C290 1.584 . S
C766 C269 1.498 . S
C754 C125 1.511 . S
C781 C139 1.498 . S
C793 C247 1.304 . S
C808 C153 1.409 . S
C820 C227 1.427 . S
C847 C204 1.671 . S
C835 C127 1.714 . S
C862 C141 1.466 . S
C874 C183 1.463 . S
C901 C268 1.408 . S
C889 C84 1.550 . S
C928 C332 1.446 . S
C916 C154 1.487 . S
C943 C68 1.691 . S
C955 C309 1.620 . S
C970 C166 1.520 . S
C982 C184 1.390 . S
C1009 C182 1.219 . S
C997 C0 1.223 . S
C1024 C12 1.214 . S
C1036 C203 1.147 . S
C1063 C228 1.156 . S
C1051 C14 1.295 . S
C1090 C244 1.449 . S
C1078 C26 1.742 . S
C1105 C41 1.160 . S
C1117 C181 1.005 . S
C1132 C42 1.731 . S
C1144 C202 1.394 . S
C1171 C224 1.191 . S
C1159 C29 1.206 . S
C1186 C54 1.104 . S
C1198 C249 1.093 . S
C1213 C69 1.071 . S
C1225 C186 1.068 . S
C1252 C223 1.298 . S
C1240 C70 1.698 . S
C1267 C85 1.556 . S
C1279 C245 1.466 . S
C1294 C82 1.107 . S
C1306 C270 0.931 . S
C1333 C287 1.184 . S
C1321 C110 1.219 . S
C1348 C98 1.195 . S
C1360 C266 1.202 . S
C1375 C124 1.342 . S
C1387 C312 1.212 . S
C1402 C112 1.765 . S
C1414 C328 1.397 . S
C1429 C126 1.130 . S
C1441 C286 0.783 . S
C1468 C265 1.238 . S
C1456 C140 1.717 . S
C1483 C138 1.209 . S
C1495 C308 1.187 . S
C1522 C333 0.962 . S
C1510 C152 1.074 . S
C1549 C291 1.069 . S
C1537 C97 1.074 . S
C1576 C307 1.447 . S
C1564 C167 1.725 . S
C1603 C329 1.446 . S
C1591 C57 1.538 . S
C1618 C155 1.125 . S
C1630 C207 0.947 . S
