# Generated by pormake.
# Topology tsx, (6,3)-cn, num edge types: 1
# Building blocks:
#     Node 0, Type 0, BuildingBlock: MIDCAF_clean_sbu_0, # of connection points: 6
#     Node 1, Type 0, BuildingBlock: MIDCAF_clean_sbu_0, # of connection points: 6
#     Node 2, Type 1, BuildingBlock: WUSLED_clean_sbu_0, # of connection points: 3
#     Node 3, Type 1, BuildingBlock: WUSLED_clean_sbu_0, # of connection points: 3
#     Node 4, Type 1, BuildingBlock: WUSLED_clean_sbu_0, # of connection points: 3
#     Node 5, Type 1, BuildingBlock: WUSLED_clean_sbu_0, # of connection points: 3
#     Edge 6, Type (0, 1), BuildingBlock: CIFDUS_clean_linker_0, # of connection points: 2
#     Edge 7, Type (0, 1), BuildingBlock: CIFDUS_clean_linker_0, # of connection points: 2
#     Edge 8, Type (0, 1), BuildingBlock: CIFDUS_clean_linker_0, # of connection points: 2
#     Edge 9, Type (0, 1), BuildingBlock: CIFDUS_clean_linker_0, # of connection points: 2
#     Edge 10, Type (0, 1), BuildingBlock: CIFDUS_clean_linker_0, # of connection points: 2
#     Edge 11, Type (0, 1), BuildingBlock: CIFDUS_clean_linker_0, # of connection points: 2
#     Edge 12, Type (0, 1), BuildingBlock: CIFDUS_clean_linker_0, # of connection points: 2
#     Edge 13, Type (0, 1), BuildingBlock: CIFDUS_clean_linker_0, # of connection points: 2
#     Edge 14, Type (0, 1), BuildingBlock: CIFDUS_clean_linker_0, # of connection points: 2
#     Edge 15, Type (0, 1), BuildingBlock: CIFDUS_clean_linker_0, # of connection points: 2
#     Edge 16, Type (0, 1), BuildingBlock: CIFDUS_clean_linker_0, # of connection points: 2
#     Edge 17, Type (0, 1), BuildingBlock: CIFDUS_clean_linker_0, # of connection points: 2
# Relax obj value: 0.113
# Max RMSD: 0.180
# Mean RMSD: 0.109
data_MOF--net-tsx--node1-MIDCAF_clean_sbu_0--node2-WUSLED_clean_sbu_0--edge1-CIFDUS_clean_linker_0
_symmetry_space_group_name_H-M    P1
_symmetry_Int_Tables_number       1
_symmetry_cell_setting            triclinic
loop_
_symmetry_equiv_pos_as_xyz
'x, y, z'
_cell_length_a     23.004516
_cell_length_b     23.768431
_cell_length_c     44.84195
_cell_angle_alpha  90.811727
_cell_angle_beta   94.461549
_cell_angle_gamma 89.968299
loop_
_atom_site_label
_atom_site_type_symbol
_atom_site_fract_x
_atom_site_fract_y
_atom_site_fract_z
_atom_type_partial_charge
Zn0 Zn 0.94324 0.01773 0.97771 0.0
Zn1 Zn 0.09856 0.97111 0.03795 0.0
Zn2 Zn 0.03397 0.01284 0.00683 0.0
C3 C 0.13566 0.08377 0.03129 0.0
C4 C 0.12076 0.92088 0.98965 0.0
O5 O 0.98072 0.94564 0.0241 0.0
O6 O 0.89865 0.95781 0.99673 0.0
C7 C 0.96821 0.12611 0.00584 0.0
O8 O 0.07943 0.08776 0.02839 0.0
O9 O 0.15777 0.03488 0.03227 0.0
O10 O 0.10652 0.90021 0.01387 0.0
O11 O 0.1049 0.97152 0.98312 0.0
O12 O 0.93189 0.09872 0.98868 0.0
O13 O 0.01451 0.1018 0.01753 0.0
O14 O 0.06248 1.00647 0.96104 0.0
O15 O 0.97417 1.00066 0.9383 0.0
C16 C 0.02884 1.00047 0.93695 0.0
O17 O 0.03359 0.06381 0.04896 0.0
O18 O 0.04665 0.98274 0.07159 0.0
C19 C 0.92776 0.93132 0.01705 0.0
C20 C 0.03041 0.03367 0.07254 0.0
Zn21 Zn 0.6656 0.52554 0.55178 0.0
Zn22 Zn 0.52046 0.47942 0.48338 0.0
Zn23 Zn 0.58157 0.51693 0.51886 0.0
C24 C 0.59646 0.53982 0.4544 0.0
C25 C 0.48464 0.59184 0.48943 0.0
O26 O 0.54527 0.51099 0.56293 0.0
O27 O 0.62995 0.50646 0.58932 0.0
C28 C 0.69136 0.43893 0.51256 0.0
O29 O 0.58904 0.56868 0.47842 0.0
O30 O 0.58141 0.48851 0.45345 0.0
O31 O 0.46021 0.54426 0.48545 0.0
O32 O 0.54024 0.59253 0.4967 0.0
O33 O 0.71602 0.46852 0.53349 0.0
O34 O 0.63832 0.44955 0.50367 0.0
O35 O 0.60287 0.60613 0.50948 0.0
O36 O 0.6767 0.60716 0.54415 0.0
C37 C 0.64457 0.63275 0.52461 0.0
O38 O 0.50651 0.47595 0.53865 0.0
O39 O 0.50283 0.40883 0.50444 0.0
C40 C 0.57491 0.50573 0.58827 0.0
C41 C 0.4875 0.42731 0.52925 0.0
C42 C 0.99316 0.11251 0.45259 0.0
C43 C 0.9589 0.14326 0.43121 0.0
C44 C 0.91607 0.19684 0.47083 0.0
C45 C 0.9205 0.18496 0.44026 0.0
C46 C 0.94937 0.16463 0.49208 0.0
C47 C 0.98749 0.12296 0.48303 0.0
U48 U 0.07295 0.03893 0.39187 0.0
O49 O 0.16528 0.01395 0.39054 0.0
O50 O 0.09625 0.95005 0.38536 0.0
C51 C 0.15268 0.96008 0.38781 0.0
C52 C 0.0361 0.07074 0.44349 0.0
C53 C 0.19017 0.92068 0.4061 0.0
C54 C 0.20326 0.84688 0.44324 0.0
C55 C 0.16871 0.88887 0.42904 0.0
C56 C 0.28207 0.86932 0.41274 0.0
C57 C 0.26002 0.83567 0.43484 0.0
C58 C 0.2475 0.91116 0.39853 0.0
C59 C 0.02988 0.08341 0.31066 0.0
C60 C 0.04954 0.02903 0.26636 0.0
C61 C 1.00149 0.11946 0.26108 0.0
C62 C 1.00502 0.1258 0.29229 0.0
C63 C 0.02236 0.0703 0.24781 0.0
C64 C 0.05331 0.03553 0.29749 0.0
C65 C 0.02682 0.08778 0.34329 0.0
O66 O 0.01446 0.02732 0.42791 0.0
O67 O 0.08283 0.09176 0.43268 0.0
O68 O 0.07351 0.10703 0.35889 0.0
O69 O 1.00336 0.04437 0.35565 0.0
H70 H 0.9627 0.13574 0.40756 0.0
H71 H 0.89588 0.2092 0.42335 0.0
H72 H 0.94643 0.17209 0.5158 0.0
H73 H 0.01325 0.09947 0.49986 0.0
H74 H 0.18506 0.82247 0.46048 0.0
H75 H 0.12475 0.89539 0.43545 0.0
H76 H 0.32517 0.8617 0.4054 0.0
H77 H 0.26497 0.93489 0.3808 0.0
H78 H 0.06688 0.99106 0.25677 0.0
H79 H 0.98016 0.15181 0.24743 0.0
H80 H 0.98662 0.16304 0.30211 0.0
H81 H 0.07291 1.00246 0.31129 0.0
C82 C 0.92373 0.98594 0.56056 0.0
C83 C 0.87039 0.99553 0.57316 0.0
C84 C 0.8281 0.91111 0.54844 0.0
C85 C 0.82329 0.95876 0.56711 0.0
C86 C 0.88046 0.90308 0.53463 0.0
C87 C 0.92766 0.9401 0.54061 0.0
U88 U 0.03825 0.03989 0.61992 0.0
O89 O 0.13264 0.05469 0.61987 0.0
O90 O 0.07457 0.12445 0.63028 0.0
C91 C 0.12835 0.10838 0.62684 0.0
C92 C 0.97586 0.02164 0.56906 0.0
C93 C 0.16581 0.14758 0.61183 0.0
C94 C 0.20461 0.18581 0.56745 0.0
C95 C 0.16486 0.15088 0.5806 0.0
C96 C 0.24555 0.21517 0.61658 0.0
C97 C 0.24611 0.21783 0.5853 0.0
C98 C 0.20585 0.18048 0.62963 0.0
C99 C 0.02761 0.98098 0.69935 0.0
C100 C 0.04629 0.02189 0.74932 0.0
C101 C 0.04239 0.92068 0.74261 0.0
C102 C 0.03236 0.92718 0.71172 0.0
C103 C 0.04754 0.96794 0.76189 0.0
C104 C 0.03636 0.02839 0.71831 0.0
C105 C 1.00876 0.98597 0.6672 0.0
O106 O 0.96785 0.06516 0.58674 0.0
O107 O 0.02447 0.9944 0.57665 0.0
O108 O 0.04407 0.96477 0.64831 0.0
O109 O 0.98526 0.03404 0.65849 0.0
H110 H 0.86528 0.03063 0.58838 0.0
H111 H 0.78339 0.96694 0.57774 0.0
H112 H 0.88601 0.86671 0.52031 0.0
H113 H 0.96797 0.93184 0.53035 0.0
H114 H 0.20312 0.18737 0.54328 0.0
H115 H 0.13417 0.12588 0.56647 0.0
H116 H 0.27716 0.23838 0.63108 0.0
H117 H 0.2074 0.17829 0.65381 0.0
H118 H 0.04969 0.05913 0.76355 0.0
H119 H 0.04396 0.87854 0.75153 0.0
H120 H 0.02609 0.89002 0.69756 0.0
H121 H 0.03329 0.07045 0.70935 0.0
C122 C 0.48127 0.65301 0.95214 0.0
C123 C 0.43698 0.65971 0.92905 0.0
C124 C 0.39564 0.73786 0.95629 0.0
C125 C 0.39441 0.70154 0.93117 0.0
C126 C 0.44023 0.73085 0.97932 0.0
C127 C 0.48253 0.68886 0.97725 0.0
U128 U 0.56173 0.54985 0.90493 0.0
O129 O 0.65543 0.53181 0.90341 0.0
O130 O 0.59532 0.46412 0.91336 0.0
C131 C 0.64984 0.47883 0.9108 0.0
C132 C 0.52716 0.61001 0.94983 0.0
C133 C 0.69602 0.45426 0.93193 0.0
C134 C 0.79996 0.44361 0.94648 0.0
C135 C 0.75379 0.47378 0.9321 0.0
C136 C 0.73168 0.37513 0.96244 0.0
C137 C 0.78978 0.39283 0.96099 0.0
C138 C 0.68542 0.40527 0.94797 0.0
C139 C 0.50961 0.54472 0.82079 0.0
C140 C 0.53053 0.47302 0.78393 0.0
C141 C 0.50051 0.56611 0.76776 0.0
C142 C 0.49605 0.58251 0.79756 0.0
C143 C 0.51848 0.51134 0.76052 0.0
C144 C 0.5264 0.48962 0.81379 0.0
C145 C 0.50672 0.56448 0.85196 0.0
O146 O 0.50871 0.5585 0.94357 0.0
O147 O 0.57068 0.62487 0.93433 0.0
O148 O 0.55041 0.59616 0.8627 0.0
O149 O 0.49036 0.52762 0.87125 0.0
H150 H 0.43554 0.63277 0.90931 0.0
H151 H 0.36108 0.70603 0.91293 0.0
H152 H 0.44207 0.75746 0.99918 0.0
H153 H 0.51637 0.68446 0.99527 0.0
H154 H 0.84403 0.45886 0.94515 0.0
H155 H 0.76383 0.51089 0.91972 0.0
H156 H 0.72213 0.33593 0.97309 0.0
H157 H 0.64172 0.38838 0.948 0.0
H158 H 0.54383 0.43031 0.77921 0.0
H159 H 0.49188 0.5971 0.75051 0.0
H160 H 0.48304 0.62525 0.80252 0.0
H161 H 0.53698 0.45967 0.83137 0.0
C162 C 0.4146 0.44449 0.08461 0.0
C163 C 0.37585 0.43123 0.10622 0.0
C164 C 0.32692 0.36143 0.07232 0.0
C165 C 0.33229 0.3903 0.10009 0.0
C166 C 0.36566 0.37538 0.05074 0.0
C167 C 0.40886 0.4164 0.05682 0.0
U168 U 0.51965 0.53231 0.13781 0.0
O169 O 0.61331 0.54977 0.13558 0.0
O170 O 0.55072 0.61967 0.13512 0.0
C171 C 0.60564 0.60455 0.1348 0.0
C172 C 0.46197 0.48635 0.09059 0.0
C173 C 0.64286 0.63748 0.11619 0.0
C174 C 0.67888 0.66317 0.06864 0.0
C175 C 0.64271 0.62988 0.08511 0.0
C176 C 0.71578 0.71117 0.11422 0.0
C177 C 0.71575 0.7045 0.08301 0.0
C178 C 0.67982 0.67805 0.13053 0.0
C179 C 0.51924 0.52338 0.22222 0.0
C180 C 0.60309 0.54228 0.25748 0.0
C181 C 0.50579 0.54379 0.27456 0.0
C182 C 0.48244 0.53126 0.24544 0.0
C183 C 0.56646 0.54818 0.28101 0.0
C184 C 0.57971 0.53042 0.22833 0.0
C185 C 0.49431 0.50676 0.19201 0.0
O186 O 0.44748 0.5348 0.1025 0.0
O187 O 0.51159 0.46648 0.10262 0.0
O188 O 0.52802 0.47555 0.17613 0.0
O189 O 0.46735 0.54675 0.17643 0.0
H190 H 0.37965 0.45212 0.12791 0.0
H191 H 0.3037 0.38031 0.11735 0.0
H192 H 0.36247 0.3547 0.029 0.0
H193 H 0.43815 0.42597 0.03979 0.0
H194 H 0.67802 0.65649 0.04468 0.0
H195 H 0.61461 0.59859 0.07365 0.0
H196 H 0.74248 0.74308 0.12604 0.0
H197 H 0.68048 0.68458 0.15453 0.0
H198 H 0.64996 0.54575 0.26176 0.0
H199 H 0.47652 0.54746 0.29228 0.0
H200 H 0.43569 0.5264 0.24119 0.0
H201 H 0.60905 0.52546 0.21072 0.0
H202 H 0.11398 0.18887 0.0553 0.0
H203 H 0.24671 0.08971 0.01642 0.0
H204 H 0.31629 0.1664 0.02493 0.0
H205 H 0.34158 0.25997 0.04502 0.0
H206 H 0.21201 0.35997 0.08572 0.0
H207 H 0.13992 0.28485 0.07543 0.0
C208 C 0.15799 0.18442 0.0485 0.0
C209 C 0.17501 0.13345 0.03524 0.0
C210 C 0.19877 0.2287 0.05411 0.0
C211 C 0.23243 0.12822 0.02682 0.0
C212 C 0.27241 0.17212 0.03168 0.0
C213 C 0.29741 0.26576 0.05136 0.0
C214 C 0.28243 0.31588 0.06602 0.0
C215 C 0.25636 0.2223 0.04556 0.0
C216 C 0.2251 0.32179 0.07461 0.0
C217 C 0.18367 0.27887 0.06858 0.0
H218 H 0.23482 0.94343 0.98713 0.0
H219 H 0.10084 0.82467 0.95732 0.0
H220 H 0.17475 0.75858 0.94154 0.0
H221 H 0.27791 0.72991 0.94255 0.0
H222 H 0.41199 0.8467 0.97573 0.0
H223 H 0.33813 0.91778 0.98418 0.0
C224 C 0.22197 0.90387 0.97617 0.0
C225 C 0.16265 0.88923 0.97268 0.0
C226 C 0.26492 0.86508 0.96857 0.0
C227 C 0.14629 0.83711 0.95955 0.0
C228 C 0.1886 0.79912 0.95091 0.0
C229 C 0.29105 0.77125 0.9511 0.0
C230 C 0.35053 0.78259 0.95879 0.0
C231 C 0.24815 0.81185 0.95627 0.0
C232 C 0.36657 0.83635 0.97014 0.0
C233 C 0.32433 0.87722 0.97481 0.0
H234 H 0.82452 0.88166 0.99954 0.0
H235 H 0.96591 0.87609 0.06857 0.0
H236 H 0.91422 0.80317 0.0943 0.0
H237 H 0.8268 0.74369 0.09799 0.0
H238 H 0.68537 0.75241 0.02897 0.0
H239 H 0.73986 0.8206 1.00218 0.0
C240 C 0.84433 0.86453 0.0202 0.0
C241 C 0.89899 0.88476 0.03219 0.0
C242 C 0.81439 0.82291 0.03482 0.0
C243 C 0.92399 0.86142 0.05882 0.0
C244 C 0.89433 0.81979 0.07356 0.0
C245 C 0.80779 0.76056 0.07711 0.0
C246 C 0.75169 0.74275 0.06565 0.0
C247 C 0.83915 0.80066 0.06192 0.0
C248 C 0.7285 0.76448 0.03824 0.0
C249 C 0.75949 0.80398 0.02299 0.0
H250 H 0.99035 0.21241 0.97062 0.0
H251 H 0.90748 0.17008 0.05004 0.0
H252 H 0.84653 0.25454 0.04489 0.0
H253 H 0.80483 0.33037 0.01233 0.0
H254 H 0.88624 0.36894 0.93152 0.0
H255 H 0.95972 0.29704 0.94276 0.0
C256 C 0.96108 0.22341 0.98763 0.0
C257 C 0.95418 0.18579 0.011 0.0
C258 C 0.9245 0.27068 0.9837 0.0
C259 C 0.91464 0.19927 0.03234 0.0
C260 C 0.87894 0.24699 0.029 0.0
C261 C 0.8392 0.32359 0.99744 0.0
C262 C 0.8394 0.35497 0.97095 0.0
C263 C 0.88141 0.2814 0.00389 0.0
C264 C 0.88488 0.34598 0.95215 0.0
C265 C 0.92693 0.30448 0.95846 0.0
H266 H 0.65362 0.71281 0.56687 0.0
H267 H 0.67233 0.68434 0.47314 0.0
H268 H 0.72861 0.77214 0.47135 0.0
H269 H 0.78457 0.84944 0.4988 0.0
H270 H 0.76665 0.87273 0.59337 0.0
H271 H 0.69794 0.79518 0.59242 0.0
C272 C 0.66826 0.72698 0.54579 0.0
C273 C 0.65866 0.69255 0.52015 0.0
C274 C 0.70194 0.77611 0.54529 0.0
C275 C 0.67836 0.71072 0.49304 0.0
C276 C 0.71139 0.76042 0.4922 0.0
C277 C 0.76517 0.83782 0.51911 0.0
C278 C 0.78126 0.86717 0.54617 0.0
C279 C 0.72557 0.79222 0.51854 0.0
C280 C 0.75495 0.85176 0.57216 0.0
C281 C 0.71572 0.80701 0.57171 0.0
H282 H 0.80188 0.40809 0.52956 0.0
H283 H 0.65669 0.36354 0.46695 0.0
H284 H 0.71347 0.28501 0.44793 0.0
H285 H 0.8047 0.2278 0.45012 0.0
H286 H 0.94754 0.27502 0.51372 0.0
H287 H 0.89101 0.35349 0.53138 0.0
C288 C 0.78229 0.38147 0.51168 0.0
C289 C 0.72485 0.39189 0.49977 0.0
C290 C 0.81484 0.33652 0.50113 0.0
C291 C 0.70072 0.35662 0.47659 0.0
C292 C 0.73322 0.31166 0.46573 0.0
C293 C 0.82342 0.25548 0.46773 0.0
C294 C 0.88023 0.24496 0.48079 0.0
C295 C 0.79036 0.30101 0.47795 0.0
C296 C 0.90369 0.28123 0.50367 0.0
C297 C 0.8715 0.32644 0.51368 0.0
H298 H 0.44501 0.32363 0.5141 0.0
H299 H 0.43179 0.45712 0.57936 0.0
H300 H 0.35609 0.40441 0.60256 0.0
H301 H 0.29102 0.32143 0.60295 0.0
H302 H 0.30546 0.18915 0.53688 0.0
H303 H 0.38207 0.2413 0.51486 0.0
C304 C 0.42596 0.34132 0.53352 0.0
C305 C 0.44463 0.39434 0.5451 0.0
C306 C 0.38179 0.31131 0.54628 0.0
C307 C 0.41902 0.41625 0.57023 0.0
C308 C 0.37531 0.38624 0.58333 0.0
C309 C 0.31115 0.30377 0.58386 0.0
C310 C 0.29184 0.25134 0.57154 0.0
C311 C 0.35597 0.33386 0.57137 0.0
C312 C 0.31824 0.22972 0.54654 0.0
C313 C 0.36261 0.2593 0.53407 0.0
H314 H 0.36739 0.60246 0.47814 0.0
H315 H 0.52666 0.69905 0.48335 0.0
H316 H 0.47152 0.78333 0.46785 0.0
H317 H 0.37782 0.82904 0.45123 0.0
H318 H 0.21948 0.73075 0.44609 0.0
H319 H 0.27436 0.64833 0.4635 0.0
C320 C 0.39018 0.64196 0.476 0.0
C321 C 0.45127 0.64413 0.48175 0.0
C322 C 0.35821 0.69022 0.46713 0.0
C323 C 0.47976 0.69596 0.47909 0.0
C324 C 0.4482 0.74422 0.47013 0.0
C325 C 0.3553 0.78959 0.45391 0.0
C326 C 0.29427 0.78654 0.44734 0.0
C327 C 0.38739 0.74177 0.46382 0.0
C328 C 0.26603 0.73499 0.45135 0.0
C329 C 0.29753 0.6875 0.4611 0.0
H330 H 0.98467 0.97682 0.11598 0.0
H331 H 0.04779 0.14138 0.09548 0.0
H332 H 0.04697 0.1695 0.14849 0.0
H333 H 0.03976 0.14213 0.20166 0.0
H334 H 0.98091 0.97475 0.22039 0.0
H335 H 0.96951 0.95256 0.16713 0.0
C336 C 0.99736 0.01926 0.123 0.0
C337 C 0.01681 0.05682 0.10198 0.0
C338 C 0.99879 0.03408 0.15334 0.0
C339 C 0.0324 0.11181 0.11126 0.0
C340 C 0.03261 0.12755 0.14162 0.0
C341 C 0.02386 0.10109 0.19397 0.0
C342 C 0.01236 0.0597 0.21503 0.0
C343 C 0.0178 0.08829 0.16304 0.0
C344 C 0.99153 1.00679 0.20475 0.0
C345 C 0.98453 0.99419 0.17427 0.0
H346 H 0.98629 0.92908 0.89418 0.0
H347 H 0.12051 0.05357 0.91314 0.0
H348 H 0.14168 0.05223 0.86016 0.0
H349 H 0.11345 0.02259 0.80743 0.0
H350 H 0.9778 0.89808 0.79034 0.0
H351 H 0.96617 0.8921 0.84357 0.0
C352 C 0.02093 0.95522 0.88679 0.0
C353 C 0.05142 0.99179 0.90729 0.0
C354 C 0.03216 0.95453 0.85655 0.0
C355 C 0.09663 0.02496 0.89766 0.0
C356 C 0.10825 0.02454 0.86736 0.0
C357 C 0.08179 0.99384 0.81546 0.0
C358 C 0.04646 0.96093 0.7948 0.0
C359 C 0.07494 0.99072 0.8464 0.0
C360 C 1.00605 0.92341 0.80561 0.0
C361 C 0.99902 0.92019 0.8361 0.0
H362 H 0.61879 0.45215 0.63731 0.0
H363 H 0.47033 0.54937 0.6036 0.0
H364 H 0.43592 0.5549 0.65406 0.0
H365 H 0.45467 0.54069 0.70863 0.0
H366 H 0.60771 0.44812 0.74139 0.0
H367 H 0.63312 0.43155 0.69042 0.0
C368 C 0.57839 0.47393 0.64091 0.0
C369 C 0.54726 0.50057 0.61683 0.0
C370 C 0.55998 0.4781 0.6699 0.0
C371 C 0.4948 0.52816 0.62174 0.0
C372 C 0.4755 0.53176 0.65064 0.0
C373 C 0.49347 0.51673 0.70461 0.0
C374 C 0.52933 0.49604 0.72904 0.0
C375 C 0.50879 0.50836 0.67506 0.0
C376 C 0.5788 0.46408 0.72325 0.0
C377 C 0.59375 0.45494 0.69403 0.0
H378 H 0.66319 0.5001 0.41244 0.0
H379 H 0.5462 0.63524 0.4312 0.0
H380 H 0.53038 0.65461 0.37764 0.0
H381 H 0.53595 0.62053 0.32532 0.0
H382 H 0.65268 0.48407 0.30754 0.0
H383 H 0.68294 0.47806 0.36069 0.0
C384 C 0.63615 0.5353 0.40481 0.0
C385 C 0.60567 0.56603 0.42556 0.0
C386 C 0.6261 0.54495 0.37406 0.0
C387 C 0.57054 0.61139 0.41561 0.0
C388 C 0.56074 0.62178 0.38493 0.0
C389 C 0.56877 0.59023 0.33312 0.0
C390 C 0.59146 0.55228 0.31256 0.0
C391 C 0.58593 0.58683 0.3639 0.0
C392 C 0.63459 0.51377 0.32285 0.0
C393 C 0.65175 0.51011 0.35329 0.0
loop_
_geom_bond_atom_site_label_1
_geom_bond_atom_site_label_2
_geom_bond_distance
_geom_bond_site_symmetry_2
_ccdc_geom_bond_type
Zn0 O6 1.920 1_545 S
Zn0 O12 1.898 . S
Zn0 O15 1.905 1_545 S
Zn1 O9 1.905 . S
Zn1 O10 1.898 1_545 S
Zn1 O18 1.920 1_545 S
Zn2 O5 2.080 1_445 S
Zn2 O8 2.114 . S
Zn2 O11 2.120 1_545 S
Zn2 O13 2.120 1_455 S
Zn2 O14 2.114 1_554 S
Zn2 O17 2.080 . S
C3 O8 1.166 . S
C3 O9 1.182 . S
C4 O10 1.167 . S
C4 O11 1.299 . S
O5 Zn2 2.080 1_665 S
O5 C19 1.305 . S
O6 Zn0 1.920 1_565 S
O6 C19 1.234 1_556 S
C7 O12 1.167 . S
C7 O13 1.299 1_556 S
O8 Zn2 2.114 . S
O8 C3 1.166 . S
O9 Zn1 1.905 . S
O9 C3 1.182 . S
O10 Zn1 1.898 1_565 S
O10 C4 1.167 . S
O11 Zn2 2.120 1_565 S
O11 C4 1.299 . S
O12 Zn0 1.898 . S
O12 C7 1.167 . S
O13 Zn2 2.120 1_655 S
O13 C7 1.299 1_554 S
O14 Zn2 2.114 1_556 S
O14 C16 1.166 1_545 S
O15 Zn0 1.905 1_565 S
O15 C16 1.182 1_655 S
C16 O14 1.166 1_565 S
C16 O15 1.182 1_455 S
O17 Zn2 2.080 . S
O17 C20 1.305 1_545 S
O18 Zn1 1.920 1_565 S
O18 C20 1.234 . S
C19 O5 1.305 . S
C19 O6 1.234 1_554 S
C20 O17 1.305 1_565 S
C20 O18 1.234 . S
Zn21 O27 1.920 . S
Zn21 O33 1.898 . S
Zn21 O36 1.905 . S
Zn22 O30 1.905 . S
Zn22 O31 1.898 . S
Zn22 O39 1.920 . S
Zn23 O26 2.080 . S
Zn23 O29 2.114 . S
Zn23 O32 2.120 . S
Zn23 O34 2.120 . S
Zn23 O35 2.114 . S
Zn23 O38 2.080 . S
C24 O29 1.166 . S
C24 O30 1.182 . S
C25 O31 1.167 . S
C25 O32 1.299 . S
O26 Zn23 2.080 . S
O26 C40 1.305 . S
O27 Zn21 1.920 . S
O27 C40 1.234 . S
C28 O33 1.167 . S
C28 O34 1.299 . S
O29 Zn23 2.114 . S
O29 C24 1.166 . S
O30 Zn22 1.905 . S
O30 C24 1.182 . S
O31 Zn22 1.898 . S
O31 C25 1.167 . S
O32 Zn23 2.120 . S
O32 C25 1.299 . S
O33 Zn21 1.898 . S
O33 C28 1.167 . S
O34 Zn23 2.120 . S
O34 C28 1.299 . S
O35 Zn23 2.114 . S
O35 C37 1.166 . S
O36 Zn21 1.905 . S
O36 C37 1.182 . S
C37 O35 1.166 . S
C37 O36 1.182 . S
O38 Zn23 2.080 . S
O38 C41 1.305 . S
O39 Zn22 1.920 . S
O39 C41 1.234 . S
C40 O26 1.305 . S
C40 O27 1.234 . S
C41 O38 1.305 . S
C41 O39 1.234 . S
C42 C43 1.264 . S
C42 C47 1.479 . S
C42 C52 1.465 1_655 S
C43 C42 1.264 . S
C43 C45 1.339 . S
C43 H70 0.931 . S
C44 C45 1.395 . S
C44 C46 1.320 . S
C45 C43 1.339 . S
C45 C44 1.395 . S
C45 H71 0.929 . S
C46 C44 1.320 . S
C46 C47 1.405 . S
C46 H72 0.930 . S
C47 C42 1.479 . S
C47 C46 1.405 . S
C47 H73 0.931 1_655 S
U48 O49 2.454 . S
U48 O50 2.458 1_545 S
U48 C51 2.984 1_545 S
U48 C52 2.847 . S
U48 C65 2.882 . S
U48 O66 2.441 . S
U48 O67 2.420 . S
U48 O68 2.455 . S
U48 O69 2.449 . S
O49 U48 2.454 . S
O49 C51 1.353 1_545 S
O50 U48 2.458 1_565 S
O50 C51 1.286 . S
C51 U48 2.984 1_565 S
C51 O49 1.353 1_565 S
C51 O50 1.286 . S
C51 C53 1.363 . S
C52 C42 1.465 1_455 S
C52 U48 2.847 . S
C52 O66 1.249 . S
C52 O67 1.202 . S
C53 C51 1.363 . S
C53 C55 1.408 . S
C53 C58 1.342 . S
C54 C55 1.310 . S
C54 C57 1.461 . S
C54 H74 0.932 . S
C55 C53 1.408 . S
C55 C54 1.310 . S
C55 H75 0.930 . S
C56 C57 1.474 . S
C56 C58 1.285 . S
C56 H76 0.929 . S
C57 C54 1.461 . S
C57 C56 1.474 . S
C58 C53 1.342 . S
C58 C56 1.285 . S
C58 H77 0.930 . S
C59 C62 1.424 . S
C59 C64 1.245 . S
C59 C65 1.428 . S
C60 C63 1.260 . S
C60 C64 1.477 . S
C60 H78 0.932 . S
C61 C62 1.384 . S
C61 C63 1.479 . S
C61 H79 0.929 . S
C62 C59 1.424 . S
C62 C61 1.384 . S
C62 H80 0.928 . S
C63 C60 1.260 . S
C63 C61 1.479 . S
C64 C59 1.245 . S
C64 C60 1.477 . S
C64 H81 0.932 1_545 S
C65 U48 2.882 . S
C65 C59 1.428 . S
C65 O68 1.301 . S
C65 O69 1.282 . S
O66 U48 2.441 . S
O66 C52 1.249 . S
O67 U48 2.420 . S
O67 C52 1.202 . S
O68 U48 2.455 . S
O68 C65 1.301 . S
O69 U48 2.449 . S
O69 C65 1.282 . S
H70 C43 0.931 . S
H71 C45 0.929 . S
H72 C46 0.930 . S
H73 C47 0.931 1_455 S
H74 C54 0.932 . S
H75 C55 0.930 . S
H76 C56 0.929 . S
H77 C58 0.930 . S
H78 C60 0.932 . S
H79 C61 0.929 . S
H80 C62 0.928 . S
H81 C64 0.932 1_565 S
C82 C83 1.264 . S
C82 C87 1.479 . S
C82 C92 1.465 . S
C83 C82 1.264 . S
C83 C85 1.339 . S
C83 H110 0.931 . S
C84 C85 1.395 . S
C84 C86 1.320 . S
C85 C83 1.339 . S
C85 C84 1.395 . S
C85 H111 0.929 . S
C86 C84 1.320 . S
C86 C87 1.405 . S
C86 H112 0.930 . S
C87 C82 1.479 . S
C87 C86 1.405 . S
C87 H113 0.931 . S
U88 O89 2.454 . S
U88 O90 2.458 . S
U88 C91 2.984 . S
U88 C92 2.847 1_445 S
U88 C105 2.882 . S
U88 O106 2.441 1_445 S
U88 O107 2.420 1_445 S
U88 O108 2.455 . S
U88 O109 2.449 1_545 S
O89 U88 2.454 . S
O89 C91 1.353 . S
O90 U88 2.458 . S
O90 C91 1.286 . S
C91 U88 2.984 . S
C91 O89 1.353 . S
C91 O90 1.286 . S
C91 C93 1.363 . S
C92 C82 1.465 . S
C92 U88 2.847 1_665 S
C92 O106 1.249 . S
C92 O107 1.202 . S
C93 C91 1.363 . S
C93 C95 1.408 . S
C93 C98 1.342 . S
C94 C95 1.310 . S
C94 C97 1.461 . S
C94 H114 0.932 . S
C95 C93 1.408 . S
C95 C94 1.310 . S
C95 H115 0.930 . S
C96 C97 1.474 . S
C96 C98 1.285 . S
C96 H116 0.929 . S
C97 C94 1.461 . S
C97 C96 1.474 . S
C98 C93 1.342 . S
C98 C96 1.285 . S
C98 H117 0.930 . S
C99 C102 1.424 1_445 S
C99 C104 1.245 . S
C99 C105 1.428 . S
C100 C103 1.260 . S
C100 C104 1.477 . S
C100 H118 0.932 . S
C101 C102 1.384 . S
C101 C103 1.479 1_665 S
C101 H119 0.929 . S
C102 C99 1.424 1_665 S
C102 C101 1.384 . S
C102 H120 0.928 . S
C103 C100 1.260 . S
C103 C101 1.479 1_445 S
C104 C99 1.245 . S
C104 C100 1.477 . S
C104 H121 0.932 . S
C105 U88 2.882 . S
C105 C99 1.428 . S
C105 O108 1.301 . S
C105 O109 1.282 1_545 S
O106 U88 2.441 1_665 S
O106 C92 1.249 . S
O107 U88 2.420 1_665 S
O107 C92 1.202 . S
O108 U88 2.455 . S
O108 C105 1.301 . S
O109 U88 2.449 1_565 S
O109 C105 1.282 1_565 S
H110 C83 0.931 . S
H111 C85 0.929 . S
H112 C86 0.930 . S
H113 C87 0.931 . S
H114 C94 0.932 . S
H115 C95 0.930 . S
H116 C96 0.929 . S
H117 C98 0.930 . S
H118 C100 0.932 . S
H119 C101 0.929 . S
H120 C102 0.928 . S
H121 C104 0.932 . S
C122 C123 1.264 . S
C122 C127 1.479 . S
C122 C132 1.465 . S
C123 C122 1.264 . S
C123 C125 1.339 . S
C123 H150 0.931 . S
C124 C125 1.395 . S
C124 C126 1.320 . S
C125 C123 1.339 . S
C125 C124 1.395 . S
C125 H151 0.929 . S
C126 C124 1.320 . S
C126 C127 1.405 . S
C126 H152 0.930 1_556 S
C127 C122 1.479 . S
C127 C126 1.405 . S
C127 H153 0.931 . S
U128 O129 2.454 . S
U128 O130 2.458 . S
U128 C131 2.984 . S
U128 C132 2.847 . S
U128 C145 2.882 . S
U128 O146 2.441 . S
U128 O147 2.420 . S
U128 O148 2.455 . S
U128 O149 2.449 . S
O129 U128 2.454 . S
O129 C131 1.353 . S
O130 U128 2.458 . S
O130 C131 1.286 . S
C131 U128 2.984 . S
C131 O129 1.353 . S
C131 O130 1.286 . S
C131 C133 1.363 . S
C132 C122 1.465 . S
C132 U128 2.847 . S
C132 O146 1.249 . S
C132 O147 1.202 . S
C133 C131 1.363 . S
C133 C135 1.408 . S
C133 C138 1.342 . S
C134 C135 1.310 . S
C134 C137 1.461 . S
C134 H154 0.932 1_556 S
C135 C133 1.408 . S
C135 C134 1.310 . S
C135 H155 0.930 . S
C136 C137 1.474 . S
C136 C138 1.285 . S
C136 H156 0.929 . S
C137 C134 1.461 . S
C137 C136 1.474 . S
C138 C133 1.342 . S
C138 C136 1.285 . S
C138 H157 0.930 . S
C139 C142 1.424 . S
C139 C144 1.245 . S
C139 C145 1.428 . S
C140 C143 1.260 . S
C140 C144 1.477 . S
C140 H158 0.932 . S
C141 C142 1.384 . S
C141 C143 1.479 . S
C141 H159 0.929 . S
C142 C139 1.424 . S
C142 C141 1.384 . S
C142 H160 0.928 . S
C143 C140 1.260 . S
C143 C141 1.479 . S
C144 C139 1.245 . S
C144 C140 1.477 . S
C144 H161 0.932 . S
C145 U128 2.882 . S
C145 C139 1.428 . S
C145 O148 1.301 . S
C145 O149 1.282 . S
O146 U128 2.441 . S
O146 C132 1.249 . S
O147 U128 2.420 . S
O147 C132 1.202 . S
O148 U128 2.455 . S
O148 C145 1.301 . S
O149 U128 2.449 . S
O149 C145 1.282 . S
H150 C123 0.931 . S
H151 C125 0.929 . S
H152 C126 0.930 1_554 S
H153 C127 0.931 . S
H154 C134 0.932 1_554 S
H155 C135 0.930 . S
H156 C136 0.929 . S
H157 C138 0.930 . S
H158 C140 0.932 . S
H159 C141 0.929 . S
H160 C142 0.928 . S
H161 C144 0.932 . S
C162 C163 1.264 . S
C162 C167 1.479 . S
C162 C172 1.465 . S
C163 C162 1.264 . S
C163 C165 1.339 . S
C163 H190 0.931 . S
C164 C165 1.395 . S
C164 C166 1.320 . S
C165 C163 1.339 . S
C165 C164 1.395 . S
C165 H191 0.929 . S
C166 C164 1.320 . S
C166 C167 1.405 . S
C166 H192 0.930 . S
C167 C162 1.479 . S
C167 C166 1.405 . S
C167 H193 0.931 . S
U168 O169 2.454 . S
U168 O170 2.458 . S
U168 C171 2.984 . S
U168 C172 2.847 . S
U168 C185 2.882 . S
U168 O186 2.441 . S
U168 O187 2.420 . S
U168 O188 2.455 . S
U168 O189 2.449 . S
O169 U168 2.454 . S
O169 C171 1.353 . S
O170 U168 2.458 . S
O170 C171 1.286 . S
C171 U168 2.984 . S
C171 O169 1.353 . S
C171 O170 1.286 . S
C171 C173 1.363 . S
C172 C162 1.465 . S
C172 U168 2.847 . S
C172 O186 1.249 . S
C172 O187 1.202 . S
C173 C171 1.363 . S
C173 C175 1.408 . S
C173 C178 1.342 . S
C174 C175 1.310 . S
C174 C177 1.461 . S
C174 H194 0.932 . S
C175 C173 1.408 . S
C175 C174 1.310 . S
C175 H195 0.930 . S
C176 C177 1.474 . S
C176 C178 1.285 . S
C176 H196 0.929 . S
C177 C174 1.461 . S
C177 C176 1.474 . S
C178 C173 1.342 . S
C178 C176 1.285 . S
C178 H197 0.930 . S
C179 C182 1.424 . S
C179 C184 1.245 . S
C179 C185 1.428 . S
C180 C183 1.260 . S
C180 C184 1.477 . S
C180 H198 0.932 . S
C181 C182 1.384 . S
C181 C183 1.479 . S
C181 H199 0.929 . S
C182 C179 1.424 . S
C182 C181 1.384 . S
C182 H200 0.928 . S
C183 C180 1.260 . S
C183 C181 1.479 . S
C184 C179 1.245 . S
C184 C180 1.477 . S
C184 H201 0.932 . S
C185 U168 2.882 . S
C185 C179 1.428 . S
C185 O188 1.301 . S
C185 O189 1.282 . S
O186 U168 2.441 . S
O186 C172 1.249 . S
O187 U168 2.420 . S
O187 C172 1.202 . S
O188 U168 2.455 . S
O188 C185 1.301 . S
O189 U168 2.449 . S
O189 C185 1.282 . S
H190 C163 0.931 . S
H191 C165 0.929 . S
H192 C166 0.930 . S
H193 C167 0.931 . S
H194 C174 0.932 . S
H195 C175 0.930 . S
H196 C176 0.929 . S
H197 C178 0.930 . S
H198 C180 0.932 . S
H199 C181 0.929 . S
H200 C182 0.928 . S
H201 C184 0.932 . S
H202 C208 0.930 . S
H203 C211 0.951 . S
H204 C212 0.930 . S
H205 C213 0.930 . S
H206 C216 0.930 . S
H207 C217 0.930 . S
C208 H202 0.930 . S
C208 C209 1.355 . S
C208 C210 1.415 . S
C209 C208 1.355 . S
C209 C211 1.395 1_554 S
C210 C208 1.415 . S
C210 C215 1.425 . S
C210 C217 1.409 . S
C211 H203 0.951 . S
C211 C209 1.395 1_556 S
C211 C212 1.366 . S
C212 H204 0.930 . S
C212 C211 1.366 . S
C212 C215 1.409 1_556 S
C213 H205 0.930 . S
C213 C214 1.355 . S
C213 C215 1.415 . S
C214 C213 1.355 . S
C214 C216 1.419 . S
C215 C210 1.425 . S
C215 C212 1.409 1_554 S
C215 C213 1.415 . S
C216 H206 0.930 . S
C216 C214 1.419 . S
C216 C217 1.362 . S
C217 H207 0.930 . S
C217 C210 1.409 . S
C217 C216 1.362 . S
H218 C224 0.930 . S
H219 C227 0.930 . S
H220 C228 0.930 . S
H221 C229 0.930 . S
H222 C232 0.930 . S
H223 C233 0.930 . S
C224 H218 0.930 . S
C224 C225 1.355 . S
C224 C226 1.415 . S
C225 C224 1.355 . S
C225 C227 1.419 . S
C226 C224 1.415 . S
C226 C231 1.425 . S
C226 C233 1.409 . S
C227 H219 0.930 . S
C227 C225 1.419 . S
C227 C228 1.362 . S
C228 H220 0.930 . S
C228 C227 1.362 . S
C228 C231 1.409 . S
C229 H221 0.930 . S
C229 C230 1.355 . S
C229 C231 1.415 . S
C230 C229 1.355 . S
C230 C232 1.419 . S
C231 C226 1.425 . S
C231 C228 1.409 . S
C231 C229 1.415 . S
C232 H222 0.930 . S
C232 C230 1.419 . S
C232 C233 1.362 . S
C233 H223 0.930 . S
C233 C226 1.409 . S
C233 C232 1.362 . S
H234 C240 0.930 . S
H235 C243 0.930 . S
H236 C244 0.930 . S
H237 C245 0.930 . S
H238 C248 0.930 . S
H239 C249 0.930 1_556 S
C240 H234 0.930 . S
C240 C241 1.355 . S
C240 C242 1.415 . S
C241 C240 1.355 . S
C241 C243 1.419 . S
C242 C240 1.415 . S
C242 C247 1.425 . S
C242 C249 1.409 . S
C243 H235 0.930 . S
C243 C241 1.419 . S
C243 C244 1.362 . S
C244 H236 0.930 . S
C244 C243 1.362 . S
C244 C247 1.409 . S
C245 H237 0.930 . S
C245 C246 1.355 . S
C245 C247 1.415 . S
C246 C245 1.355 . S
C246 C248 1.419 . S
C247 C242 1.425 . S
C247 C244 1.409 . S
C247 C245 1.415 . S
C248 H238 0.930 . S
C248 C246 1.419 . S
C248 C249 1.362 . S
C249 H239 0.930 1_554 S
C249 C242 1.409 . S
C249 C248 1.362 . S
H250 C256 0.930 . S
H251 C259 0.930 . S
H252 C260 0.930 . S
H253 C261 0.930 . S
H254 C264 0.930 . S
H255 C265 0.930 . S
C256 H250 0.930 . S
C256 C257 1.355 1_556 S
C256 C258 1.415 . S
C257 C256 1.355 1_554 S
C257 C259 1.419 . S
C258 C256 1.415 . S
C258 C263 1.425 1_556 S
C258 C265 1.409 . S
C259 H251 0.930 . S
C259 C257 1.419 . S
C259 C260 1.362 . S
C260 H252 0.930 . S
C260 C259 1.362 . S
C260 C263 1.409 . S
C261 H253 0.930 . S
C261 C262 1.355 1_554 S
C261 C263 1.415 . S
C262 C261 1.355 1_556 S
C262 C264 1.419 . S
C263 C258 1.425 1_554 S
C263 C260 1.409 . S
C263 C261 1.415 . S
C264 H254 0.930 . S
C264 C262 1.419 . S
C264 C265 1.362 . S
C265 H255 0.930 . S
C265 C258 1.409 . S
C265 C264 1.362 . S
H266 C272 0.930 . S
H267 C275 0.930 . S
H268 C276 0.930 . S
H269 C277 0.930 . S
H270 C280 0.930 . S
H271 C281 0.930 . S
C272 H266 0.930 . S
C272 C273 1.355 . S
C272 C274 1.415 . S
C273 C272 1.355 . S
C273 C275 1.419 . S
C274 C272 1.415 . S
C274 C279 1.425 . S
C274 C281 1.409 . S
C275 H267 0.930 . S
C275 C273 1.419 . S
C275 C276 1.362 . S
C276 H268 0.930 . S
C276 C275 1.362 . S
C276 C279 1.409 . S
C277 H269 0.930 . S
C277 C278 1.355 . S
C277 C279 1.415 . S
C278 C277 1.355 . S
C278 C280 1.419 . S
C279 C274 1.425 . S
C279 C276 1.409 . S
C279 C277 1.415 . S
C280 H270 0.930 . S
C280 C278 1.419 . S
C280 C281 1.362 . S
C281 H271 0.930 . S
C281 C274 1.409 . S
C281 C280 1.362 . S
H282 C288 0.930 . S
H283 C291 0.930 . S
H284 C292 0.930 . S
H285 C293 0.930 . S
H286 C296 0.930 . S
H287 C297 0.930 . S
C288 H282 0.930 . S
C288 C289 1.355 . S
C288 C290 1.415 . S
C289 C288 1.355 . S
C289 C291 1.419 . S
C290 C288 1.415 . S
C290 C295 1.425 . S
C290 C297 1.409 . S
C291 H283 0.930 . S
C291 C289 1.419 . S
C291 C292 1.362 . S
C292 H284 0.930 . S
C292 C291 1.362 . S
C292 C295 1.409 . S
C293 H285 0.930 . S
C293 C294 1.355 . S
C293 C295 1.415 . S
C294 C293 1.355 . S
C294 C296 1.419 . S
C295 C290 1.425 . S
C295 C292 1.409 . S
C295 C293 1.415 . S
C296 H286 0.930 . S
C296 C294 1.419 . S
C296 C297 1.362 . S
C297 H287 0.930 . S
C297 C290 1.409 . S
C297 C296 1.362 . S
H298 C304 0.930 . S
H299 C307 0.930 . S
H300 C308 0.930 . S
H301 C309 0.930 . S
H302 C312 0.930 . S
H303 C313 0.930 . S
C304 H298 0.930 . S
C304 C305 1.355 . S
C304 C306 1.415 . S
C305 C304 1.355 . S
C305 C307 1.419 . S
C306 C304 1.415 . S
C306 C311 1.425 . S
C306 C313 1.409 . S
C307 H299 0.930 . S
C307 C305 1.419 . S
C307 C308 1.362 . S
C308 H300 0.930 . S
C308 C307 1.362 . S
C308 C311 1.409 . S
C309 H301 0.930 . S
C309 C310 1.355 . S
C309 C311 1.415 . S
C310 C309 1.355 . S
C310 C312 1.419 . S
C311 C306 1.425 . S
C311 C308 1.409 . S
C311 C309 1.415 . S
C312 H302 0.930 . S
C312 C310 1.419 . S
C312 C313 1.362 . S
C313 H303 0.930 . S
C313 C306 1.409 . S
C313 C312 1.362 . S
H314 C320 0.930 . S
H315 C323 0.930 . S
H316 C324 0.930 . S
H317 C325 0.930 . S
H318 C328 0.930 . S
H319 C329 0.930 . S
C320 H314 0.930 . S
C320 C321 1.355 . S
C320 C322 1.415 . S
C321 C320 1.355 . S
C321 C323 1.419 . S
C322 C320 1.415 . S
C322 C327 1.425 . S
C322 C329 1.409 . S
C323 H315 0.930 . S
C323 C321 1.419 . S
C323 C324 1.362 . S
C324 H316 0.930 . S
C324 C323 1.362 . S
C324 C327 1.409 . S
C325 H317 0.930 . S
C325 C326 1.355 . S
C325 C327 1.415 . S
C326 C325 1.355 . S
C326 C328 1.419 . S
C327 C322 1.425 . S
C327 C324 1.409 . S
C327 C325 1.415 . S
C328 H318 0.930 . S
C328 C326 1.419 . S
C328 C329 1.362 . S
C329 H319 0.930 . S
C329 C322 1.409 . S
C329 C328 1.362 . S
H330 C336 0.930 . S
H331 C339 0.930 . S
H332 C340 0.930 . S
H333 C341 0.930 . S
H334 C344 0.930 . S
H335 C345 0.930 . S
C336 H330 0.930 . S
C336 C337 1.355 . S
C336 C338 1.415 . S
C337 C336 1.355 . S
C337 C339 1.419 1_565 S
C338 C336 1.415 . S
C338 C343 1.425 1_565 S
C338 C345 1.409 . S
C339 H331 0.930 . S
C339 C337 1.419 1_545 S
C339 C340 1.362 . S
C340 H332 0.930 . S
C340 C339 1.362 . S
C340 C343 1.409 . S
C341 H333 0.930 . S
C341 C342 1.355 . S
C341 C343 1.415 . S
C342 C341 1.355 . S
C342 C344 1.419 1_545 S
C343 C338 1.425 1_545 S
C343 C340 1.409 . S
C343 C341 1.415 . S
C344 H334 0.930 . S
C344 C342 1.419 1_565 S
C344 C345 1.362 . S
C345 H335 0.930 . S
C345 C338 1.409 . S
C345 C344 1.362 . S
H346 C352 0.930 . S
H347 C355 0.930 . S
H348 C356 0.930 . S
H349 C357 0.930 . S
H350 C360 0.930 . S
H351 C361 0.930 . S
C352 H346 0.930 . S
C352 C353 1.355 1_655 S
C352 C354 1.415 . S
C353 C352 1.355 1_455 S
C353 C355 1.419 1_565 S
C354 C352 1.415 . S
C354 C359 1.425 1_665 S
C354 C361 1.409 . S
C355 H347 0.930 . S
C355 C353 1.419 1_545 S
C355 C356 1.362 . S
C356 H348 0.930 . S
C356 C355 1.362 . S
C356 C359 1.409 . S
C357 H349 0.930 . S
C357 C358 1.355 . S
C357 C359 1.415 . S
C358 C357 1.355 . S
C358 C360 1.419 1_445 S
C359 C354 1.425 1_445 S
C359 C356 1.409 . S
C359 C357 1.415 . S
C360 H350 0.930 . S
C360 C358 1.419 1_665 S
C360 C361 1.362 . S
C361 H351 0.930 . S
C361 C354 1.409 . S
C361 C360 1.362 . S
H362 C368 0.930 . S
H363 C371 0.930 . S
H364 C372 0.930 . S
H365 C373 0.930 . S
H366 C376 0.930 . S
H367 C377 0.930 . S
C368 H362 0.930 . S
C368 C369 1.355 . S
C368 C370 1.415 . S
C369 C368 1.355 . S
C369 C371 1.419 . S
C370 C368 1.415 . S
C370 C375 1.425 . S
C370 C377 1.409 . S
C371 H363 0.930 . S
C371 C369 1.419 . S
C371 C372 1.362 . S
C372 H364 0.930 . S
C372 C371 1.362 . S
C372 C375 1.409 . S
C373 H365 0.930 . S
C373 C374 1.355 . S
C373 C375 1.415 . S
C374 C373 1.355 . S
C374 C376 1.419 . S
C375 C370 1.425 . S
C375 C372 1.409 . S
C375 C373 1.415 . S
C376 H366 0.930 . S
C376 C374 1.419 . S
C376 C377 1.362 . S
C377 H367 0.930 . S
C377 C370 1.409 . S
C377 C376 1.362 . S
H378 C384 0.930 . S
H379 C387 0.930 . S
H380 C388 0.930 . S
H381 C389 0.930 . S
H382 C392 0.930 . S
H383 C393 0.930 . S
C384 H378 0.930 . S
C384 C385 1.355 . S
C384 C386 1.415 . S
C385 C384 1.355 . S
C385 C387 1.419 . S
C386 C384 1.415 . S
C386 C391 1.425 . S
C386 C393 1.409 . S
C387 H379 0.930 . S
C387 C385 1.419 . S
C387 C388 1.362 . S
C388 H380 0.930 . S
C388 C387 1.362 . S
C388 C391 1.409 . S
C389 H381 0.930 . S
C389 C390 1.355 . S
C389 C391 1.415 . S
C390 C389 1.355 . S
C390 C392 1.419 . S
C391 C386 1.425 . S
C391 C388 1.409 . S
C391 C389 1.415 . S
C392 H382 0.930 . S
C392 C390 1.419 . S
C392 C393 1.362 . S
C393 H383 0.930 . S
C393 C386 1.409 . S
C393 C392 1.362 . S
C214 C164 1.276 . S
C209 C3 1.199 . S
C225 C4 1.554 1_556 S
C230 C124 1.649 . S
C241 C19 1.591 . S
C246 C177 1.676 . S
C257 C7 1.214 1_554 S
C262 C137 1.263 . S
C273 C37 1.258 . S
C278 C84 1.258 . S
C289 C28 1.557 . S
C294 C44 1.651 . S
C310 C97 1.643 . S
C305 C41 1.503 . S
C326 C57 1.296 . S
C321 C25 1.252 . S
C337 C20 1.285 . S
C342 C63 1.481 . S
C353 C16 1.386 . S
C358 C103 1.490 . S
C374 C143 1.480 . S
C369 C40 1.364 . S
C385 C24 1.281 . S
C390 C183 1.461 . S
