# Generated by pormake.
# Topology ibd, (4,6)-cn, num edge types: 1
# Building blocks:
#     Node 0, Type 0, BuildingBlock: CEKHIL_clean_sbu_0, # of connection points: 4
#     Node 1, Type 0, BuildingBlock: CEKHIL_clean_sbu_0, # of connection points: 4
#     Node 2, Type 0, BuildingBlock: CEKHIL_clean_sbu_0, # of connection points: 4
#     Node 3, Type 0, BuildingBlock: CEKHIL_clean_sbu_0, # of connection points: 4
#     Node 4, Type 0, BuildingBlock: CEKHIL_clean_sbu_0, # of connection points: 4
#     Node 5, Type 0, BuildingBlock: CEKHIL_clean_sbu_0, # of connection points: 4
#     Node 6, Type 0, BuildingBlock: CEKHIL_clean_sbu_0, # of connection points: 4
#     Node 7, Type 0, BuildingBlock: CEKHIL_clean_sbu_0, # of connection points: 4
#     Node 8, Type 0, BuildingBlock: CEKHIL_clean_sbu_0, # of connection points: 4
#     Node 9, Type 0, BuildingBlock: CEKHIL_clean_sbu_0, # of connection points: 4
#     Node 10, Type 0, BuildingBlock: CEKHIL_clean_sbu_0, # of connection points: 4
#     Node 11, Type 0, BuildingBlock: CEKHIL_clean_sbu_0, # of connection points: 4
#     Node 12, Type 0, BuildingBlock: CEKHIL_clean_sbu_0, # of connection points: 4
#     Node 13, Type 0, BuildingBlock: CEKHIL_clean_sbu_0, # of connection points: 4
#     Node 14, Type 0, BuildingBlock: CEKHIL_clean_sbu_0, # of connection points: 4
#     Node 15, Type 0, BuildingBlock: CEKHIL_clean_sbu_0, # of connection points: 4
#     Node 16, Type 0, BuildingBlock: CEKHIL_clean_sbu_0, # of connection points: 4
#     Node 17, Type 0, BuildingBlock: CEKHIL_clean_sbu_0, # of connection points: 4
#     Node 18, Type 0, BuildingBlock: CEKHIL_clean_sbu_0, # of connection points: 4
#     Node 19, Type 0, BuildingBlock: CEKHIL_clean_sbu_0, # of connection points: 4
#     Node 20, Type 0, BuildingBlock: CEKHIL_clean_sbu_0, # of connection points: 4
#     Node 21, Type 0, BuildingBlock: CEKHIL_clean_sbu_0, # of connection points: 4
#     Node 22, Type 0, BuildingBlock: CEKHIL_clean_sbu_0, # of connection points: 4
#     Node 23, Type 0, BuildingBlock: CEKHIL_clean_sbu_0, # of connection points: 4
#     Node 24, Type 1, BuildingBlock: LEVNOQ01_clean_sbu_1, # of connection points: 6
#     Node 25, Type 1, BuildingBlock: LEVNOQ01_clean_sbu_1, # of connection points: 6
#     Node 26, Type 1, BuildingBlock: LEVNOQ01_clean_sbu_1, # of connection points: 6
#     Node 27, Type 1, BuildingBlock: LEVNOQ01_clean_sbu_1, # of connection points: 6
#     Node 28, Type 1, BuildingBlock: LEVNOQ01_clean_sbu_1, # of connection points: 6
#     Node 29, Type 1, BuildingBlock: LEVNOQ01_clean_sbu_1, # of connection points: 6
#     Node 30, Type 1, BuildingBlock: LEVNOQ01_clean_sbu_1, # of connection points: 6
#     Node 31, Type 1, BuildingBlock: LEVNOQ01_clean_sbu_1, # of connection points: 6
#     Node 32, Type 1, BuildingBlock: LEVNOQ01_clean_sbu_1, # of connection points: 6
#     Node 33, Type 1, BuildingBlock: LEVNOQ01_clean_sbu_1, # of connection points: 6
#     Node 34, Type 1, BuildingBlock: LEVNOQ01_clean_sbu_1, # of connection points: 6
#     Node 35, Type 1, BuildingBlock: LEVNOQ01_clean_sbu_1, # of connection points: 6
#     Node 36, Type 1, BuildingBlock: LEVNOQ01_clean_sbu_1, # of connection points: 6
#     Node 37, Type 1, BuildingBlock: LEVNOQ01_clean_sbu_1, # of connection points: 6
#     Node 38, Type 1, BuildingBlock: LEVNOQ01_clean_sbu_1, # of connection points: 6
#     Node 39, Type 1, BuildingBlock: LEVNOQ01_clean_sbu_1, # of connection points: 6
#     Edge 40, Type (0, 1), BuildingBlock: KIFKEQ_clean_linker_1, # of connection points: 2
#     Edge 41, Type (0, 1), BuildingBlock: KIFKEQ_clean_linker_1, # of connection points: 2
#     Edge 42, Type (0, 1), BuildingBlock: KIFKEQ_clean_linker_1, # of connection points: 2
#     Edge 43, Type (0, 1), BuildingBlock: KIFKEQ_clean_linker_1, # of connection points: 2
#     Edge 44, Type (0, 1), BuildingBlock: KIFKEQ_clean_linker_1, # of connection points: 2
#     Edge 45, Type (0, 1), BuildingBlock: KIFKEQ_clean_linker_1, # of connection points: 2
#     Edge 46, Type (0, 1), BuildingBlock: KIFKEQ_clean_linker_1, # of connection points: 2
#     Edge 47, Type (0, 1), BuildingBlock: KIFKEQ_clean_linker_1, # of connection points: 2
#     Edge 48, Type (0, 1), BuildingBlock: KIFKEQ_clean_linker_1, # of connection points: 2
#     Edge 49, Type (0, 1), BuildingBlock: KIFKEQ_clean_linker_1, # of connection points: 2
#     Edge 50, Type (0, 1), BuildingBlock: KIFKEQ_clean_linker_1, # of connection points: 2
#     Edge 51, Type (0, 1), BuildingBlock: KIFKEQ_clean_linker_1, # of connection points: 2
#     Edge 52, Type (0, 1), BuildingBlock: KIFKEQ_clean_linker_1, # of connection points: 2
#     Edge 53, Type (0, 1), BuildingBlock: KIFKEQ_clean_linker_1, # of connection points: 2
#     Edge 54, Type (0, 1), BuildingBlock: KIFKEQ_clean_linker_1, # of connection points: 2
#     Edge 55, Type (0, 1), BuildingBlock: KIFKEQ_clean_linker_1, # of connection points: 2
#     Edge 56, Type (0, 1), BuildingBlock: KIFKEQ_clean_linker_1, # of connection points: 2
#     Edge 57, Type (0, 1), BuildingBlock: KIFKEQ_clean_linker_1, # of connection points: 2
#     Edge 58, Type (0, 1), BuildingBlock: KIFKEQ_clean_linker_1, # of connection points: 2
#     Edge 59, Type (0, 1), BuildingBlock: KIFKEQ_clean_linker_1, # of connection points: 2
#     Edge 60, Type (0, 1), BuildingBlock: KIFKEQ_clean_linker_1, # of connection points: 2
#     Edge 61, Type (0, 1), BuildingBlock: KIFKEQ_clean_linker_1, # of connection points: 2
#     Edge 62, Type (0, 1), BuildingBlock: KIFKEQ_clean_linker_1, # of connection points: 2
#     Edge 63, Type (0, 1), BuildingBlock: KIFKEQ_clean_linker_1, # of connection points: 2
#     Edge 64, Type (0, 1), BuildingBlock: KIFKEQ_clean_linker_1, # of connection points: 2
#     Edge 65, Type (0, 1), BuildingBlock: KIFKEQ_clean_linker_1, # of connection points: 2
#     Edge 66, Type (0, 1), BuildingBlock: KIFKEQ_clean_linker_1, # of connection points: 2
#     Edge 67, Type (0, 1), BuildingBlock: KIFKEQ_clean_linker_1, # of connection points: 2
#     Edge 68, Type (0, 1), BuildingBlock: KIFKEQ_clean_linker_1, # of connection points: 2
#     Edge 69, Type (0, 1), BuildingBlock: KIFKEQ_clean_linker_1, # of connection points: 2
#     Edge 70, Type (0, 1), BuildingBlock: KIFKEQ_clean_linker_1, # of connection points: 2
#     Edge 71, Type (0, 1), BuildingBlock: KIFKEQ_clean_linker_1, # of connection points: 2
#     Edge 72, Type (0, 1), BuildingBlock: KIFKEQ_clean_linker_1, # of connection points: 2
#     Edge 73, Type (0, 1), BuildingBlock: KIFKEQ_clean_linker_1, # of connection points: 2
#     Edge 74, Type (0, 1), BuildingBlock: KIFKEQ_clean_linker_1, # of connection points: 2
#     Edge 75, Type (0, 1), BuildingBlock: KIFKEQ_clean_linker_1, # of connection points: 2
#     Edge 76, Type (0, 1), BuildingBlock: KIFKEQ_clean_linker_1, # of connection points: 2
#     Edge 77, Type (0, 1), BuildingBlock: KIFKEQ_clean_linker_1, # of connection points: 2
#     Edge 78, Type (0, 1), BuildingBlock: KIFKEQ_clean_linker_1, # of connection points: 2
#     Edge 79, Type (0, 1), BuildingBlock: KIFKEQ_clean_linker_1, # of connection points: 2
#     Edge 80, Type (0, 1), BuildingBlock: KIFKEQ_clean_linker_1, # of connection points: 2
#     Edge 81, Type (0, 1), BuildingBlock: KIFKEQ_clean_linker_1, # of connection points: 2
#     Edge 82, Type (0, 1), BuildingBlock: KIFKEQ_clean_linker_1, # of connection points: 2
#     Edge 83, Type (0, 1), BuildingBlock: KIFKEQ_clean_linker_1, # of connection points: 2
#     Edge 84, Type (0, 1), BuildingBlock: KIFKEQ_clean_linker_1, # of connection points: 2
#     Edge 85, Type (0, 1), BuildingBlock: KIFKEQ_clean_linker_1, # of connection points: 2
#     Edge 86, Type (0, 1), BuildingBlock: KIFKEQ_clean_linker_1, # of connection points: 2
#     Edge 87, Type (0, 1), BuildingBlock: KIFKEQ_clean_linker_1, # of connection points: 2
#     Edge 88, Type (0, 1), BuildingBlock: KIFKEQ_clean_linker_1, # of connection points: 2
#     Edge 89, Type (0, 1), BuildingBlock: KIFKEQ_clean_linker_1, # of connection points: 2
#     Edge 90, Type (0, 1), BuildingBlock: KIFKEQ_clean_linker_1, # of connection points: 2
#     Edge 91, Type (0, 1), BuildingBlock: KIFKEQ_clean_linker_1, # of connection points: 2
#     Edge 92, Type (0, 1), BuildingBlock: KIFKEQ_clean_linker_1, # of connection points: 2
#     Edge 93, Type (0, 1), BuildingBlock: KIFKEQ_clean_linker_1, # of connection points: 2
#     Edge 94, Type (0, 1), BuildingBlock: KIFKEQ_clean_linker_1, # of connection points: 2
#     Edge 95, Type (0, 1), BuildingBlock: KIFKEQ_clean_linker_1, # of connection points: 2
#     Edge 96, Type (0, 1), BuildingBlock: KIFKEQ_clean_linker_1, # of connection points: 2
#     Edge 97, Type (0, 1), BuildingBlock: KIFKEQ_clean_linker_1, # of connection points: 2
#     Edge 98, Type (0, 1), BuildingBlock: KIFKEQ_clean_linker_1, # of connection points: 2
#     Edge 99, Type (0, 1), BuildingBlock: KIFKEQ_clean_linker_1, # of connection points: 2
#     Edge 100, Type (0, 1), BuildingBlock: KIFKEQ_clean_linker_1, # of connection points: 2
#     Edge 101, Type (0, 1), BuildingBlock: KIFKEQ_clean_linker_1, # of connection points: 2
#     Edge 102, Type (0, 1), BuildingBlock: KIFKEQ_clean_linker_1, # of connection points: 2
#     Edge 103, Type (0, 1), BuildingBlock: KIFKEQ_clean_linker_1, # of connection points: 2
#     Edge 104, Type (0, 1), BuildingBlock: KIFKEQ_clean_linker_1, # of connection points: 2
#     Edge 105, Type (0, 1), BuildingBlock: KIFKEQ_clean_linker_1, # of connection points: 2
#     Edge 106, Type (0, 1), BuildingBlock: KIFKEQ_clean_linker_1, # of connection points: 2
#     Edge 107, Type (0, 1), BuildingBlock: KIFKEQ_clean_linker_1, # of connection points: 2
#     Edge 108, Type (0, 1), BuildingBlock: KIFKEQ_clean_linker_1, # of connection points: 2
#     Edge 109, Type (0, 1), BuildingBlock: KIFKEQ_clean_linker_1, # of connection points: 2
#     Edge 110, Type (0, 1), BuildingBlock: KIFKEQ_clean_linker_1, # of connection points: 2
#     Edge 111, Type (0, 1), BuildingBlock: KIFKEQ_clean_linker_1, # of connection points: 2
#     Edge 112, Type (0, 1), BuildingBlock: KIFKEQ_clean_linker_1, # of connection points: 2
#     Edge 113, Type (0, 1), BuildingBlock: KIFKEQ_clean_linker_1, # of connection points: 2
#     Edge 114, Type (0, 1), BuildingBlock: KIFKEQ_clean_linker_1, # of connection points: 2
#     Edge 115, Type (0, 1), BuildingBlock: KIFKEQ_clean_linker_1, # of connection points: 2
#     Edge 116, Type (0, 1), BuildingBlock: KIFKEQ_clean_linker_1, # of connection points: 2
#     Edge 117, Type (0, 1), BuildingBlock: KIFKEQ_clean_linker_1, # of connection points: 2
#     Edge 118, Type (0, 1), BuildingBlock: KIFKEQ_clean_linker_1, # of connection points: 2
#     Edge 119, Type (0, 1), BuildingBlock: KIFKEQ_clean_linker_1, # of connection points: 2
#     Edge 120, Type (0, 1), BuildingBlock: KIFKEQ_clean_linker_1, # of connection points: 2
#     Edge 121, Type (0, 1), BuildingBlock: KIFKEQ_clean_linker_1, # of connection points: 2
#     Edge 122, Type (0, 1), BuildingBlock: KIFKEQ_clean_linker_1, # of connection points: 2
#     Edge 123, Type (0, 1), BuildingBlock: KIFKEQ_clean_linker_1, # of connection points: 2
#     Edge 124, Type (0, 1), BuildingBlock: KIFKEQ_clean_linker_1, # of connection points: 2
#     Edge 125, Type (0, 1), BuildingBlock: KIFKEQ_clean_linker_1, # of connection points: 2
#     Edge 126, Type (0, 1), BuildingBlock: KIFKEQ_clean_linker_1, # of connection points: 2
#     Edge 127, Type (0, 1), BuildingBlock: KIFKEQ_clean_linker_1, # of connection points: 2
#     Edge 128, Type (0, 1), BuildingBlock: KIFKEQ_clean_linker_1, # of connection points: 2
#     Edge 129, Type (0, 1), BuildingBlock: KIFKEQ_clean_linker_1, # of connection points: 2
#     Edge 130, Type (0, 1), BuildingBlock: KIFKEQ_clean_linker_1, # of connection points: 2
#     Edge 131, Type (0, 1), BuildingBlock: KIFKEQ_clean_linker_1, # of connection points: 2
#     Edge 132, Type (0, 1), BuildingBlock: KIFKEQ_clean_linker_1, # of connection points: 2
#     Edge 133, Type (0, 1), BuildingBlock: KIFKEQ_clean_linker_1, # of connection points: 2
#     Edge 134, Type (0, 1), BuildingBlock: KIFKEQ_clean_linker_1, # of connection points: 2
#     Edge 135, Type (0, 1), BuildingBlock: KIFKEQ_clean_linker_1, # of connection points: 2
# Relax obj value: 0.356
# Max RMSD: 0.308
# Mean RMSD: 0.280
data_MOF--net-ibd--node1-CEKHIL_clean_sbu_0--node2-LEVNOQ01_clean_sbu_1--edge1-KIFKEQ_clean_linker_1
_symmetry_space_group_name_H-M    P1
_symmetry_Int_Tables_number       1
_symmetry_cell_setting            triclinic
loop_
_symmetry_equiv_pos_as_xyz
'x, y, z'
_cell_length_a     47.742968
_cell_length_b     48.562636
_cell_length_c     49.629324
_cell_angle_alpha  91.557856
_cell_angle_beta   89.196527
_cell_angle_gamma 94.40636
loop_
_atom_site_label
_atom_site_type_symbol
_atom_site_fract_x
_atom_site_fract_y
_atom_site_fract_z
_atom_type_partial_charge
Co0 Co 0.04468 0.33759 0.36725 0.0
O1 O 0.05363 0.36492 0.3406 0.0
O2 O 0.01134 0.34367 0.34796 0.0
C3 C 0.06596 0.35743 0.4031 0.0
O4 O 0.02776 0.30897 0.3937 0.0
Co5 Co 0.09345 0.30647 0.38913 0.0
O6 O 0.06388 0.29054 0.41359 0.0
C7 C 0.07394 0.29345 0.33482 0.0
C8 C 0.02743 0.36085 0.33386 0.0
C9 C 0.03769 0.29333 0.41127 0.0
O10 O 0.05332 0.30832 0.33966 0.0
O11 O 0.09388 0.29129 0.35134 0.0
O12 O 0.04197 0.36543 0.39556 0.0
O13 O 0.07872 0.34242 0.38557 0.0
Co14 Co 0.00139 0.74666 0.65069 0.0
O15 O 0.98311 0.74294 0.68514 0.0
O16 O 0.00941 0.78004 0.67194 0.0
C17 C 0.96697 0.73049 0.62372 0.0
O18 O 0.0227 0.75723 0.61606 0.0
Co19 Co 0.01399 0.69254 0.62084 0.0
O20 O 0.03008 0.71786 0.59257 0.0
C21 C 0.03415 0.70623 0.67407 0.0
C22 C -0.00535 0.76744 0.69082 0.0
C23 C 0.03172 0.74415 0.59512 0.0
O24 O 0.03488 0.73085 0.66561 0.0
O25 O 0.02379 0.68591 0.65959 0.0
O26 O 0.96705 0.75552 0.63384 0.0
O27 O 0.98422 0.71487 0.6347 0.0
Co28 Co 0.53886 0.83818 0.86803 0.0
O29 O 0.5427 0.86406 0.8395 0.0
O30 O 0.50508 0.83542 0.84734 0.0
C31 C 0.55551 0.86408 0.90255 0.0
O32 O 0.52793 0.80928 0.89633 0.0
Co33 Co 0.594 0.82021 0.8917 0.0
O34 O 0.56793 0.79934 0.91637 0.0
C35 C 0.57752 0.80028 0.83841 0.0
C36 C 0.51813 0.85369 0.83192 0.0
C37 C 0.54126 0.7968 0.91422 0.0
O38 O 0.55355 0.80951 0.84316 0.0
O39 O 0.59827 0.80469 0.85433 0.0
O40 O 0.53008 0.86656 0.89431 0.0
O41 O 0.57142 0.85115 0.88599 0.0
Co42 Co 0.51849 0.27461 0.14978 0.0
O43 O 0.49393 0.27046 0.18 0.0
O44 O 0.52194 0.30813 0.17215 0.0
C45 C 0.48941 0.25749 0.11801 0.0
O46 O 0.54603 0.28381 0.11913 0.0
Co47 Co 0.53428 0.2179 0.12625 0.0
O48 O 0.55423 0.24251 0.09955 0.0
C49 C 0.54755 0.23573 0.18029 0.0
C50 C 0.5041 0.29465 0.18814 0.0
C51 C 0.5569 0.26892 0.10033 0.0
O52 O 0.54876 0.25989 0.17084 0.0
O53 O 0.53874 0.2144 0.16637 0.0
O54 O 0.48794 0.28294 0.12653 0.0
O55 O 0.50454 0.24267 0.13237 0.0
Co56 Co -0.00419 0.78798 0.12305 0.0
O57 O -0.00401 0.81814 0.09924 0.0
O58 O 0.96127 0.78522 0.10359 0.0
C59 C 0.01207 0.81022 0.16043 0.0
O60 O 0.98822 0.75432 0.14562 0.0
Co61 Co 0.05266 0.7698 0.14289 0.0
O62 O 0.02832 0.74438 0.16521 0.0
C63 C 0.03621 0.75668 0.08755 0.0
C64 C 0.97223 0.80642 0.09062 0.0
C65 C 0.00191 0.74032 0.16181 0.0
O66 O 0.01227 0.76556 0.09327 0.0
O67 O 0.05655 0.75787 0.10412 0.0
O68 O 0.98576 0.81077 0.15406 0.0
O69 O 0.02815 0.80015 0.14199 0.0
Co70 Co 0.54729 0.79424 0.39788 0.0
O71 O 0.52149 0.78375 0.42658 0.0
O72 O 0.54078 0.82615 0.41948 0.0
C73 C 0.52548 0.77217 0.36295 0.0
O74 O 0.57352 0.81313 0.37086 0.0
Co75 Co 0.58117 0.74968 0.36935 0.0
O76 O 0.59548 0.78091 0.34702 0.0
C77 C 0.59416 0.7668 0.42485 0.0
C78 C 0.52512 0.80954 0.43447 0.0
C79 C 0.59024 0.80588 0.35202 0.0
O80 O 0.5792 0.78729 0.42202 0.0
O81 O 0.59582 0.74762 0.40685 0.0
O82 O 0.51708 0.79543 0.37235 0.0
O83 O 0.54367 0.76102 0.37753 0.0
Co84 Co 0.521 0.29314 0.6176 0.0
O85 O 0.51705 0.32119 0.5921 0.0
O86 O 0.4862 0.28527 0.5984 0.0
C87 C 0.53487 0.31995 0.65295 0.0
O88 O 0.51806 0.26121 0.6435 0.0
Co89 Co 0.58081 0.28399 0.63695 0.0
O90 O 0.55967 0.2614 0.66432 0.0
C91 C 0.56607 0.27188 0.58121 0.0
C92 C 0.49397 0.30722 0.58488 0.0
C93 C 0.53361 0.25366 0.6626 0.0
O94 O 0.54033 0.27143 0.58897 0.0
O95 O 0.58652 0.27849 0.59704 0.0
O96 O 0.50837 0.31671 0.64687 0.0
O97 O 0.55204 0.31041 0.63517 0.0
Co98 Co 0.04418 0.28919 0.89775 0.0
O99 O 0.01527 0.28081 0.92446 0.0
O100 O 0.03985 0.3213 0.91985 0.0
C101 C 0.02383 0.27037 0.86047 0.0
O102 O 0.07399 0.3062 0.87303 0.0
Co103 Co 0.07568 0.24239 0.87045 0.0
O104 O 0.0915 0.27254 0.8474 0.0
C105 C 0.08898 0.25869 0.92603 0.0
C106 C 0.02163 0.30591 0.93349 0.0
C107 C 0.08916 0.29794 0.8534 0.0
O108 O 0.07311 0.27857 0.92375 0.0
O109 O 0.09156 0.24022 0.90748 0.0
O110 O 0.01691 0.29415 0.87005 0.0
O111 O 0.03888 0.25673 0.87625 0.0
Co112 Co 0.38963 -0.00383 0.22597 0.0
O113 O 0.41822 0.98989 0.19957 0.0
O114 O 0.40356 0.96039 0.23114 0.0
C115 C 0.35835 0.01367 0.19905 0.0
O116 O 0.35974 -0.00482 0.25551 0.0
Co117 Co 0.37471 0.05585 0.24047 0.0
O118 O 0.34136 0.03648 0.2576 0.0
C119 C 0.42633 0.03621 0.26153 0.0
C120 C 0.42107 0.96685 0.21158 0.0
C121 C 0.3407 0.01107 0.26345 0.0
O122 O 0.41945 0.01219 0.2513 0.0
O123 O 0.412 0.05709 0.25856 0.0
O124 O 0.35964 0.98702 0.20006 0.0
O125 O 0.37809 0.02849 0.21141 0.0
Co126 Co 0.25906 0.14827 0.5236 0.0
O127 O 0.25177 0.12055 0.55056 0.0
O128 O 0.2929 0.13165 0.53055 0.0
C129 C 0.23665 0.18291 0.5421 0.0
O130 O 0.27527 0.17547 0.49633 0.0
Co131 Co 0.21083 0.16692 0.48946 0.0
O132 O 0.24048 0.19299 0.47385 0.0
C133 C 0.22701 0.11053 0.48428 0.0
C134 C 0.27793 0.11554 0.54659 0.0
C135 C 0.26642 0.1921 0.47929 0.0
O136 O 0.25042 0.11911 0.49494 0.0
O137 O 0.20643 0.12577 0.4828 0.0
O138 O 0.2615 0.17809 0.55038 0.0
O139 O 0.22459 0.16426 0.52609 0.0
Co140 Co 0.14875 0.06956 0.72571 0.0
O141 O 0.1812 0.07349 0.70261 0.0
O142 O 0.16266 0.03409 0.71955 0.0
C143 C 0.11958 0.0946 0.70487 0.0
O144 O 0.11517 0.0581 0.74943 0.0
Co145 Co 0.13271 0.12138 0.75848 0.0
O146 O 0.10065 0.09628 0.7706 0.0
C147 C 0.18287 0.09502 0.77219 0.0
C148 C 0.18265 0.04717 0.70578 0.0
C149 C 0.09798 0.07048 0.76487 0.0
O150 O 0.1735 0.07436 0.75766 0.0
O151 O 0.17108 0.1178 0.7735 0.0
O152 O 0.12414 0.07003 0.69557 0.0
O153 O 0.13742 0.10524 0.72247 0.0
Co154 Co 0.31074 0.91262 0.03961 0.0
O155 O 0.32069 0.88468 0.06288 0.0
O156 O 0.3456 0.89913 0.02697 0.0
C157 C 0.2976 0.94277 0.07111 0.0
O158 O 0.30704 0.94224 0.0121 0.0
Co159 Co 0.24858 0.92664 0.03788 0.0
O160 O 0.2655 0.96012 0.01974 0.0
C161 C 0.26471 0.87453 0.01398 0.0
C162 C 0.34183 0.8819 0.04657 0.0
C163 C 0.29001 0.96119 0.00905 0.0
O164 O 0.29053 0.88349 0.01604 0.0
O165 O 0.24429 0.88758 0.02332 0.0
O166 O 0.32416 0.94176 0.06517 0.0
O167 O 0.28092 0.92335 0.06061 0.0
Co168 Co 0.31109 0.42055 0.01173 0.0
O169 O 0.33743 0.39344 0.01861 0.0
O170 O 0.31662 0.39884 0.9796 0.0
C171 C 0.33259 0.45835 0.03107 0.0
O172 O 0.28396 0.44674 -0.00295 0.0
Co173 Co 0.27888 0.44473 0.0605 0.0
O174 O 0.2645 0.46829 0.03275 0.0
C175 C 0.26629 0.38729 0.04416 0.0
C176 C 0.33258 0.38461 -0.00598 0.0
C177 C 0.26857 0.46498 0.00749 0.0
O178 O 0.27976 0.39255 0.02212 0.0
O179 O 0.26528 0.4049 0.06369 0.0
O180 O 0.34088 0.44973 0.00743 0.0
O181 O 0.31566 0.44107 0.04395 0.0
Co182 Co 0.76663 0.16939 0.99319 0.0
O183 O 0.80019 0.15096 0.99165 0.0
O184 O 0.76877 0.14911 0.95902 0.0
C185 C 0.78508 0.20992 0.00921 0.0
O186 O 0.73023 0.18758 0.98887 0.0
Co187 Co 0.74436 0.18464 0.04991 0.0
O188 O 0.72178 0.20883 0.02876 0.0
C189 C 0.74185 0.12703 0.03228 0.0
C190 C 0.79195 0.14076 0.96845 0.0
C191 C 0.71779 0.2054 0.0035 0.0
O192 O 0.74668 0.1357 0.00847 0.0
O193 O 0.74208 0.14326 0.05302 0.0
O194 O 0.7866 0.20392 0.98357 0.0
O195 O 0.77598 0.18986 0.02458 0.0
Co196 Co 0.16537 0.54935 0.27545 0.0
O197 O 0.19003 0.52109 0.28115 0.0
O198 O 0.18395 0.55619 0.30976 0.0
C199 C 0.12882 0.52232 0.26069 0.0
O200 O 0.1399 0.58117 0.276 0.0
Co201 Co 0.14783 0.56013 0.21705 0.0
O202 O 0.11767 0.57904 0.23622 0.0
C203 C 0.2052 0.5758 0.23379 0.0
C204 C 0.19699 0.53427 0.30341 0.0
C205 C 0.11964 0.5872 0.2608 0.0
O206 O 0.19709 0.57181 0.25814 0.0
O207 O 0.18919 0.57078 0.21351 0.0
O208 O 0.13304 0.52545 0.28648 0.0
O209 O 0.14858 0.53265 0.245 0.0
Co210 Co 0.80861 0.91972 0.50394 0.0
O211 O 0.83784 0.89499 0.50908 0.0
O212 O 0.81224 0.89721 0.47229 0.0
C213 C 0.82853 0.96004 0.51993 0.0
O214 O 0.77765 0.94087 0.49057 0.0
Co215 Co 0.77848 0.94589 0.55324 0.0
O216 O 0.75524 0.96099 0.52508 0.0
C217 C 0.76777 0.88743 0.54071 0.0
C218 C 0.83047 0.88455 0.4855 0.0
C219 C 0.75844 0.95538 0.50003 0.0
O220 O 0.78051 0.89094 0.5181 0.0
O221 O 0.76736 0.90595 0.55944 0.0
O222 O 0.83494 0.95115 0.49578 0.0
O223 O 0.8144 0.94238 0.53486 0.0
Co224 Co 0.89948 -0.00158 0.26963 0.0
O225 O 0.92731 0.9743 0.25704 0.0
O226 O 0.92088 0.98824 0.29954 0.0
C227 C 0.8624 0.97923 0.24749 0.0
O228 O 0.87213 0.02208 0.29023 0.0
Co229 Co 0.87273 0.0359 0.22917 0.0
O230 O 0.8467 0.04257 0.25964 0.0
C231 C 0.93174 0.04744 0.24391 0.0
C232 C 0.93542 0.97478 0.28193 0.0
C233 C 0.85155 0.03618 0.28376 0.0
O234 O 0.92776 0.03075 0.26346 0.0
O235 O 0.9129 0.05091 0.22649 0.0
O236 O 0.87016 0.9684 0.26962 0.0
O237 O 0.87967 -0.00176 0.23761 0.0
Co238 Co 0.26359 0.67048 0.49609 0.0
O239 O 0.29786 0.65342 0.49279 0.0
O240 O 0.26496 0.65074 0.46151 0.0
C241 C 0.28127 0.71139 0.5121 0.0
O242 O 0.22614 0.68732 0.494 0.0
Co243 Co 0.24385 0.68367 0.55438 0.0
O244 O 0.21917 0.70715 0.53488 0.0
C245 C 0.24101 0.62663 0.53504 0.0
C246 C 0.289 0.64327 0.4698 0.0
C247 C 0.21373 0.70416 0.50985 0.0
O248 O 0.24551 0.63593 0.51143 0.0
O249 O 0.24164 0.64224 0.55622 0.0
O250 O 0.28204 0.7058 0.48635 0.0
O251 O 0.27351 0.69079 0.52733 0.0
Co252 Co 0.40475 0.49952 0.76797 0.0
O253 O 0.4337 0.47568 0.75853 0.0
O254 O 0.42499 0.49286 0.79959 0.0
C255 C 0.36878 0.4784 0.74592 0.0
O256 O 0.37664 0.5241 0.78515 0.0
Co257 Co 0.38043 0.5332 0.7228 0.0
O258 O 0.35393 0.54342 0.75178 0.0
C259 C 0.43682 0.54908 0.74229 0.0
C260 C 0.44122 0.47939 0.78353 0.0
C261 C 0.35744 0.53862 0.77656 0.0
O262 O 0.43219 0.53202 0.76133 0.0
O263 O 0.41955 0.55144 0.72317 0.0
O264 O 0.37605 0.46907 0.76896 0.0
O265 O 0.38645 0.49648 0.73509 0.0
Co266 Co 0.66842 0.04249 0.7726 0.0
O267 O 0.6937 0.01407 0.77398 0.0
O268 O 0.68689 0.04466 0.8071 0.0
C269 C 0.63195 0.01751 0.75433 0.0
O270 O 0.64307 0.07372 0.77799 0.0
Co271 Co 0.64995 0.06152 0.71667 0.0
O272 O 0.62165 0.08013 0.73875 0.0
C273 C 0.70782 0.07344 0.7342 0.0
C274 C 0.70071 0.02436 0.79757 0.0
C275 C 0.62407 0.08413 0.76413 0.0
O276 O 0.69963 0.06788 0.75824 0.0
O277 O 0.69165 0.07008 0.71384 0.0
O278 O 0.63622 0.01642 0.78013 0.0
O279 O 0.65166 0.03054 0.74053 0.0
Co280 Co 0.76196 0.65505 0.03186 0.0
O281 O 0.75788 0.62591 0.05722 0.0
O282 O 0.79771 0.6401 0.03635 0.0
C283 C 0.73948 0.68763 0.05333 0.0
O284 O 0.77295 0.6851 0.00472 0.0
Co285 Co 0.70741 0.66842 0.00373 0.0
O286 O 0.73201 0.6999 0.99073 0.0
C287 C 0.73306 0.61827 0.9879 0.0
C288 C 0.78428 0.62289 0.05256 0.0
C289 C 0.75874 0.70209 0.99195 0.0
O290 O 0.75405 0.62718 0.00218 0.0
O291 O 0.71043 0.63065 0.98707 0.0
O292 O 0.76471 0.68278 0.06031 0.0
O293 O 0.72658 0.66853 0.0382 0.0
Co294 Co 0.89497 0.52847 0.72397 0.0
O295 O 0.92378 0.52563 0.69716 0.0
O296 O 0.91088 0.49333 0.72662 0.0
C297 C 0.86204 0.54589 0.69928 0.0
O298 O 0.86547 0.52419 0.75373 0.0
Co299 Co 0.87808 0.58649 0.74253 0.0
O300 O 0.84625 0.56482 0.75998 0.0
C301 C 0.9323 0.56892 0.75825 0.0
C302 C 0.92835 0.50227 0.70785 0.0
C303 C 0.84638 0.53896 0.76372 0.0
O304 O 0.92439 0.54452 0.74954 0.0
O305 O 0.9176 0.58964 0.75604 0.0
O306 O 0.8651 0.51946 0.69789 0.0
O307 O 0.88149 0.56075 0.71202 0.0
Co308 Co 0.76778 0.40525 0.53186 0.0
O309 O 0.76659 0.3725 0.55211 0.0
O310 O 0.80304 0.38883 0.52731 0.0
C311 C 0.74909 0.43313 0.56199 0.0
O312 O 0.77572 0.43892 0.50913 0.0
Co313 Co 0.71086 0.42538 0.51498 0.0
O314 O 0.73489 0.45779 0.50187 0.0
C315 C 0.72848 0.37232 0.49667 0.0
C316 C 0.79151 0.36934 0.54227 0.0
C317 C 0.76164 0.45833 0.50037 0.0
O318 O 0.75338 0.38317 0.50014 0.0
O319 O 0.70689 0.38508 0.50343 0.0
O320 O 0.77546 0.42835 0.56382 0.0
O321 O 0.73445 0.41732 0.54517 0.0
Co322 Co 0.6443 0.55435 0.22194 0.0
O323 O 0.67097 0.5519 0.19276 0.0
O324 O 0.65638 0.51787 0.21995 0.0
C325 C 0.61118 0.57652 0.20322 0.0
O326 O 0.6168 0.54858 0.25308 0.0
Co327 Co 0.63362 0.61078 0.24893 0.0
O328 O 0.60202 0.58948 0.2672 0.0
C329 C 0.68641 0.58689 0.25857 0.0
C330 C 0.6735 0.52703 0.20107 0.0
C331 C 0.60021 0.56317 0.26702 0.0
O332 O 0.67628 0.56474 0.24666 0.0
O333 O 0.67349 0.60896 0.26053 0.0
O334 O 0.61275 0.55025 0.19795 0.0
O335 O 0.63268 0.58925 0.21502 0.0
O336 O 0.15815 0.09797 0.07714 0.0
Mg337 Mg 0.12007 0.11648 0.0877 0.0
O338 O 0.18217 0.11873 0.11109 0.0
Mg339 Mg 0.16056 0.15315 0.13328 0.0
O340 O 0.13147 0.15603 0.09886 0.0
O341 O 0.10325 0.14702 0.06469 0.0
O342 O 0.13798 0.18683 0.15735 0.0
O343 O 0.18889 0.187 0.1119 0.0
Mg344 Mg 0.20511 0.18978 0.17418 0.0
O345 O 0.19325 0.14954 0.16552 0.0
O346 O 0.16814 0.20782 0.18673 0.0
O347 O 0.22277 0.2067 0.13791 0.0
O348 O 0.22509 0.16078 0.19639 0.0
C349 C 0.10648 0.10585 0.14776 0.0
C350 C 0.1801 0.10133 0.09142 0.0
C351 C 0.11762 0.16504 0.07941 0.0
C352 C 0.14387 0.20444 0.17641 0.0
C353 C 0.21042 0.20395 0.11537 0.0
C354 C 0.21177 0.14183 0.18185 0.0
O355 O 0.09989 0.10213 0.12311 0.0
O356 O 0.12832 0.12128 0.15496 0.0
O357 O 0.12551 0.82722 0.33254 0.0
Mg358 Mg 0.16624 0.84475 0.34089 0.0
O359 O 0.10176 0.85993 0.35275 0.0
Mg360 Mg 0.1315 0.88495 0.38448 0.0
O361 O 0.16408 0.85496 0.38019 0.0
O362 O 0.19465 0.82642 0.36576 0.0
O363 O 0.16113 0.91021 0.41473 0.0
O364 O 0.10883 0.859 0.41927 0.0
Mg365 Mg 0.09461 0.92247 0.42913 0.0
O366 O 0.10142 0.9172 0.38917 0.0
O367 O 0.13532 0.93436 0.44333 0.0
O368 O 0.07892 0.88344 0.4431 0.0
O369 O 0.074 0.94863 0.40365 0.0
C370 C 0.17045 0.90703 0.33057 0.0
C371 C 0.10272 0.83859 0.33696 0.0
C372 C 0.18373 0.83957 0.38569 0.0
C373 C 0.15895 0.92708 0.43477 0.0
C374 C 0.09004 0.86095 0.43778 0.0
C375 C 0.08603 0.93669 0.38363 0.0
O376 O 0.17707 0.8831 0.32311 0.0
O377 O 0.15467 0.91096 0.35114 0.0
O378 O 0.46017 0.98222 0.63011 0.0
Mg379 Mg 0.44561 0.96758 0.59184 0.0
O380 O 0.43801 0.94932 0.6548 0.0
Mg381 Mg 0.40322 0.92445 0.63029 0.0
O382 O 0.40504 0.95612 0.59907 0.0
O383 O 0.41601 0.98763 0.56925 0.0
O384 O 0.36965 0.89804 0.60527 0.0
O385 O 0.36898 0.94789 0.6519 0.0
Mg386 Mg 0.36049 0.8848 0.67102 0.0
O387 O 0.40134 0.89301 0.66163 0.0
O388 O 0.34305 0.87161 0.6334 0.0
O389 O 0.34767 0.92365 0.68496 0.0
O390 O 0.38928 0.86222 0.69187 0.0
C391 C 0.45681 0.90588 0.59082 0.0
C392 C 0.45612 0.96987 0.65227 0.0
C393 C 0.39686 0.97366 0.58272 0.0
C394 C 0.3495 0.87976 0.6098 0.0
C395 C 0.3519 0.94576 0.67187 0.0
C396 C 0.40892 0.87609 0.67891 0.0
O397 O 0.46246 0.92971 0.58117 0.0
O398 O 0.43701 0.90084 0.60796 0.0
O399 O 0.46659 0.18001 0.92192 0.0
Mg400 Mg 0.44032 0.14531 0.9123 0.0
O401 O 0.42633 0.19729 0.91642 0.0
Mg402 Mg 0.40533 0.17281 0.87934 0.0
O403 O 0.43995 0.14225 0.87158 0.0
O404 O 0.46139 0.11372 0.89808 0.0
O405 O 0.38163 0.14899 0.8448 0.0
O406 O 0.43105 0.20054 0.84919 0.0
Mg407 Mg 0.36531 0.21339 0.8458 0.0
O408 O 0.37282 0.20339 0.88425 0.0
O409 O 0.35165 0.1758 0.82638 0.0
O410 O 0.40445 0.23039 0.83059 0.0
O411 O 0.34185 0.23311 0.87582 0.0
C412 C 0.38214 0.13079 0.92817 0.0
C413 C 0.45025 0.19848 0.92763 0.0
C414 C 0.45749 0.12344 0.8746 0.0
C415 C 0.36225 0.15271 0.82818 0.0
C416 C 0.42805 0.2203 0.83323 0.0
C417 C 0.35573 0.22072 0.89329 0.0
O418 O 0.40658 0.13119 0.93754 0.0
O419 O 0.37785 0.14315 0.90653 0.0
O420 O 0.63801 0.34774 0.82717 0.0
Mg421 Mg 0.67893 0.3609 0.8408 0.0
O422 O 0.61325 0.37806 0.85034 0.0
Mg423 Mg 0.64075 0.40042 0.88425 0.0
O424 O 0.6711 0.36915 0.87956 0.0
O425 O 0.70033 0.33808 0.86927 0.0
O426 O 0.66873 0.42351 0.91611 0.0
O427 O 0.61848 0.37391 0.91763 0.0
Mg428 Mg 0.60159 0.43529 0.92939 0.0
O429 O 0.61059 0.43247 0.88977 0.0
O430 O 0.64203 0.44609 0.94523 0.0
O431 O 0.58469 0.39513 0.9393 0.0
O432 O 0.58197 0.46281 0.9045 0.0
C433 C 0.68398 0.42433 0.83426 0.0
C434 C 0.61519 0.35891 0.83225 0.0
C435 C 0.68651 0.3508 0.88753 0.0
C436 C 0.66596 0.43942 0.93674 0.0
C437 C 0.59819 0.37392 0.9347 0.0
C438 C 0.59484 0.45171 0.88451 0.0
O439 O 0.69258 0.40086 0.8277 0.0
O440 O 0.66544 0.4275 0.85272 0.0
O441 O 0.96388 0.48104 0.13627 0.0
Mg442 Mg 0.95143 0.46637 0.09733 0.0
O443 O 0.93998 0.4474 0.15868 0.0
Mg444 Mg 0.90713 0.42276 0.13171 0.0
O445 O 0.90977 0.45644 0.10139 0.0
O446 O 0.92573 0.4886 0.0734 0.0
O447 O 0.87573 0.39673 0.10386 0.0
O448 O 0.87086 0.4439 0.15401 0.0
Mg449 Mg 0.86478 0.37587 0.16693 0.0
O450 O 0.90487 0.38966 0.16164 0.0
O451 O 0.85251 0.36348 0.12758 0.0
O452 O 0.84757 0.41282 0.18023 0.0
O453 O 0.89458 0.35687 0.19028 0.0
C454 C 0.96215 0.40525 0.09298 0.0
C455 C 0.95781 0.46839 0.15791 0.0
C456 C 0.90469 0.47568 0.08528 0.0
C457 C 0.85825 0.37551 0.10554 0.0
C458 C 0.85185 0.4373 0.17169 0.0
C459 C 0.91316 0.37416 0.17988 0.0
O460 O 0.96866 0.42949 0.08476 0.0
O461 O 0.94185 0.40005 0.1095 0.0
O462 O 0.96364 0.66769 0.43526 0.0
Mg463 Mg 0.94816 0.62851 0.42042 0.0
O464 O 0.92822 0.68838 0.41836 0.0
Mg465 Mg 0.90388 0.66051 0.38681 0.0
O466 O 0.93963 0.63212 0.3807 0.0
O467 O 0.97217 0.60569 0.39481 0.0
O468 O 0.87819 0.63186 0.35664 0.0
O469 O 0.92483 0.68436 0.35132 0.0
Mg470 Mg 0.86513 0.69624 0.35355 0.0
O471 O 0.8687 0.69016 0.39344 0.0
O472 O 0.85504 0.65942 0.3315 0.0
O473 O 0.90132 0.72004 0.34184 0.0
O474 O 0.83533 0.71425 0.37656 0.0
C475 C 0.8877 0.61626 0.43718 0.0
C476 C 0.94957 0.68869 0.43356 0.0
C477 C 0.95977 0.61642 0.37516 0.0
C478 C 0.86222 0.63564 0.33695 0.0
C479 C 0.92221 0.70591 0.33784 0.0
C480 C 0.8489 0.70682 0.39712 0.0
O481 O 0.9127 0.60994 0.4404 0.0
O482 O 0.88184 0.63397 0.42003 0.0
O483 O 0.83503 0.86709 0.8747 0.0
Mg484 Mg 0.85783 0.8818 0.84046 0.0
O485 O 0.86782 0.88228 0.90422 0.0
Mg486 Mg 0.90087 0.91395 0.88522 0.0
O487 O 0.87284 0.92078 0.85052 0.0
O488 O 0.84395 0.9127 0.81653 0.0
O489 O 0.93541 0.94431 0.86607 0.0
O490 O 0.88104 0.95079 0.90733 0.0
Mg491 Mg 0.94444 0.94464 0.93193 0.0
O492 O 0.92796 0.90728 0.92001 0.0
O493 O 0.96694 0.95763 0.8976 0.0
O494 O 0.90932 0.96761 0.94027 0.0
O495 O 0.95642 0.91173 0.95454 0.0
C496 C 0.9163 0.86105 0.84298 0.0
C497 C 0.84505 0.86793 0.89832 0.0
C498 C 0.85759 0.93032 0.8323 0.0
C499 C 0.95879 0.95683 0.87332 0.0
C500 C 0.88689 0.96798 0.92678 0.0
C501 C 0.9407 0.89593 0.9388 0.0
O502 O 0.8929 0.85962 0.83099 0.0
O503 O 0.92217 0.87849 0.86219 0.0
O504 O 0.93318 0.24282 0.6832 0.0
Mg505 Mg 0.89083 0.22859 0.67568 0.0
O506 O 0.95145 0.20754 0.66136 0.0
Mg507 Mg 0.92025 0.18581 0.62941 0.0
O508 O 0.89121 0.21753 0.63652 0.0
O509 O 0.86385 0.24914 0.6502 0.0
O510 O 0.88897 0.16112 0.59913 0.0
O511 O 0.941 0.21186 0.59436 0.0
Mg512 Mg 0.95678 0.1469 0.5838 0.0
O513 O 0.94888 0.15407 0.62252 0.0
O514 O 0.91522 0.13644 0.57105 0.0
O515 O 0.97194 0.1871 0.57192 0.0
O516 O 0.97644 0.12179 0.61207 0.0
C517 C 0.88518 0.16537 0.68542 0.0
C518 C 0.95366 0.22821 0.67804 0.0
C519 C 0.87348 0.23457 0.63064 0.0
C520 C 0.89149 0.14386 0.57928 0.0
C521 C 0.96046 0.2096 0.57659 0.0
C522 C 0.96391 0.13554 0.63048 0.0
O523 O 0.87965 0.18965 0.69311 0.0
O524 O 0.89894 0.16068 0.66369 0.0
O525 O 0.70807 0.20062 0.37272 0.0
Mg526 Mg 0.6905 0.18529 0.33579 0.0
O527 O 0.67663 0.18007 0.40085 0.0
Mg528 Mg 0.64709 0.14831 0.37779 0.0
O529 O 0.67919 0.14562 0.34476 0.0
O530 O 0.71069 0.15482 0.31308 0.0
O531 O 0.61692 0.11705 0.35431 0.0
O532 O 0.66931 0.11356 0.39699 0.0
Mg533 Mg 0.60931 0.112 0.41897 0.0
O534 O 0.61384 0.15259 0.41064 0.0
O535 O 0.59479 0.08951 0.38422 0.0
O536 O 0.64724 0.10296 0.43528 0.0
O537 O 0.58304 0.13584 0.44108 0.0
C538 C 0.62993 0.20083 0.34006 0.0
C539 C 0.69818 0.19668 0.39639 0.0
C540 C 0.69816 0.13696 0.32873 0.0
C541 C 0.59993 0.09639 0.36008 0.0
C542 C 0.6682 0.10177 0.41956 0.0
C543 C 0.59518 0.15685 0.42908 0.0
O544 O 0.65307 0.20401 0.32712 0.0
O545 O 0.62551 0.18259 0.35783 0.0
O546 O 0.58945 0.89347 0.07697 0.0
Mg547 Mg 0.602 0.93496 0.08697 0.0
O548 O 0.62437 0.87245 0.09508 0.0
Mg549 Mg 0.64866 0.90453 0.12358 0.0
O550 O 0.61307 0.93151 0.12554 0.0
O551 O 0.57871 0.95682 0.11558 0.0
O552 O 0.67258 0.93588 0.15271 0.0
O553 O 0.62823 0.88385 0.16095 0.0
Mg554 Mg 0.68599 0.86919 0.16005 0.0
O555 O 0.68564 0.87787 0.12072 0.0
O556 O 0.69107 0.90756 0.18092 0.0
O557 O 0.64788 0.84516 0.16544 0.0
O558 O 0.71827 0.85357 0.13791 0.0
C559 C 0.66345 0.94466 0.06977 0.0
C560 C 0.60206 0.87185 0.08109 0.0
C561 C 0.59271 0.94548 0.1337 0.0
C562 C 0.68533 0.93159 0.17447 0.0
C563 C 0.62945 0.86117 0.17286 0.0
C564 C 0.70645 0.8627 0.11708 0.0
O565 O 0.63845 0.95115 0.06661 0.0
O566 O 0.66969 0.92827 0.08806 0.0
O567 O 0.43461 0.74964 0.17968 0.0
Mg568 Mg 0.39185 0.73591 0.17189 0.0
O569 O 0.45082 0.71045 0.16435 0.0
Mg570 Mg 0.42179 0.68778 0.13218 0.0
O571 O 0.39298 0.72059 0.13402 0.0
O572 O 0.36503 0.75297 0.14351 0.0
O573 O 0.39195 0.66234 0.10229 0.0
O574 O 0.44651 0.70964 0.09667 0.0
Mg575 Mg 0.45884 0.64529 0.09193 0.0
O576 O 0.44963 0.65444 0.13049 0.0
O577 O 0.418 0.63519 0.07668 0.0
O578 O 0.47779 0.683 0.0776 0.0
O579 O 0.47608 0.62066 0.1215 0.0
C580 C 0.38244 0.6743 0.18758 0.0
C581 C 0.45363 0.73267 0.17877 0.0
C582 C 0.37475 0.73618 0.12586 0.0
C583 C 0.39444 0.64406 0.0835 0.0
C584 C 0.46673 0.70593 0.08009 0.0
C585 C 0.4636 0.63535 0.13925 0.0
O586 O 0.37838 0.69953 0.19289 0.0
O587 O 0.39684 0.66688 0.16706 0.0
O588 O 0.11306 0.58532 0.88108 0.0
Mg589 Mg 0.1211 0.61267 0.91323 0.0
O590 O 0.11953 0.6245 0.86005 0.0
Mg591 Mg 0.14986 0.65639 0.88507 0.0
O592 O 0.16229 0.62626 0.91832 0.0
O593 O 0.13817 0.5955 0.94471 0.0
O594 O 0.17924 0.69051 0.90746 0.0
O595 O 0.18698 0.63981 0.86207 0.0
Mg596 Mg 0.18094 0.69986 0.8416 0.0
O597 O 0.14129 0.68591 0.85251 0.0
O598 O 0.1969 0.72005 0.87667 0.0
O599 O 0.20224 0.66521 0.82752 0.0
O600 O 0.14887 0.71653 0.82067 0.0
C601 C 0.09161 0.66293 0.92223 0.0
C602 C 0.1098 0.59924 0.86046 0.0
C603 C 0.16158 0.60839 0.93745 0.0
C604 C 0.19411 0.71246 0.9009 0.0
C605 C 0.20292 0.64384 0.8416 0.0
C606 C 0.13133 0.70107 0.83463 0.0
O607 O 0.08905 0.63715 0.9253 0.0
O608 O 0.1127 0.67394 0.90936 0.0
O609 O 0.08873 0.3926 0.58328 0.0
Mg610 Mg 0.10386 0.43348 0.59187 0.0
O611 O 0.12566 0.37288 0.59871 0.0
Mg612 Mg 0.15131 0.40468 0.6266 0.0
O613 O 0.11605 0.43263 0.63058 0.0
O614 O 0.0819 0.45778 0.61857 0.0
O615 O 0.17673 0.43621 0.65465 0.0
O616 O 0.13247 0.3841 0.66468 0.0
Mg617 Mg 0.19288 0.37067 0.6615 0.0
O618 O 0.18716 0.37653 0.62222 0.0
O619 O 0.20039 0.40953 0.68055 0.0
O620 O 0.15572 0.34792 0.67303 0.0
O621 O 0.22168 0.35273 0.63653 0.0
C622 C 0.16392 0.44351 0.57155 0.0
C623 C 0.10246 0.3715 0.58602 0.0
C624 C 0.09632 0.44813 0.63743 0.0
C625 C 0.19243 0.43297 0.67473 0.0
C626 C 0.13551 0.36269 0.67819 0.0
C627 C 0.20671 0.36015 0.61695 0.0
O628 O 0.13858 0.44902 0.56873 0.0
O629 O 0.17112 0.42812 0.59029 0.0
O630 O 0.64149 0.60463 0.5898 0.0
Mg631 Mg 0.60535 0.62478 0.60285 0.0
O632 O 0.67288 0.62874 0.61591 0.0
Mg633 Mg 0.65525 0.66664 0.63559 0.0
O634 O 0.62065 0.66447 0.60581 0.0
O635 O 0.58642 0.65293 0.57789 0.0
O636 O 0.63653 0.704 0.65623 0.0
O637 O 0.68078 0.6949 0.60626 0.0
Mg638 Mg 0.70532 0.70801 0.66497 0.0
O639 O 0.69111 0.66776 0.66485 0.0
O640 O 0.67062 0.72991 0.67704 0.0
O641 O 0.71945 0.71499 0.62504 0.0
O642 O 0.72634 0.68327 0.69072 0.0
C643 C 0.60587 0.62344 0.66489 0.0
C644 C 0.66611 0.60904 0.59925 0.0
C645 C 0.60478 0.67152 0.58699 0.0
C646 C 0.64498 0.72498 0.67073 0.0
C647 C 0.70394 0.7097 0.6047 0.0
C648 C 0.7107 0.6626 0.68114 0.0
O649 O 0.59323 0.61615 0.64314 0.0
O650 O 0.628 0.63997 0.66548 0.0
O651 O 0.3329 0.36708 0.39523 0.0
Mg652 Mg 0.34816 0.38069 0.3573 0.0
O653 O 0.37187 0.38327 0.41594 0.0
Mg654 Mg 0.39701 0.41719 0.39168 0.0
O655 O 0.36237 0.4209 0.36208 0.0
O656 O 0.32768 0.40822 0.3344 0.0
O657 O 0.42471 0.44925 0.36714 0.0
O658 O 0.37833 0.45295 0.4163 0.0
Mg659 Mg 0.44535 0.45249 0.43073 0.0
O660 O 0.43092 0.41356 0.42118 0.0
O661 O 0.4591 0.4684 0.39338 0.0
O662 O 0.4097 0.47158 0.44574 0.0
O663 O 0.46522 0.42115 0.44997 0.0
C664 C 0.40824 0.36456 0.34823 0.0
C665 C 0.34893 0.368 0.41545 0.0
C666 C 0.3436 0.42774 0.34567 0.0
C667 C 0.44679 0.46545 0.37084 0.0
C668 C 0.3856 0.47062 0.43495 0.0
C669 C 0.44812 0.40373 0.4373 0.0
O670 O 0.38258 0.36017 0.3418 0.0
O671 O 0.41643 0.38342 0.36541 0.0
H672 H 0.09347 0.24326 0.32341 0.0
H673 H 0.05731 0.31186 0.28687 0.0
H674 H 0.09936 0.22167 0.2788 0.0
H675 H 0.06415 0.29061 0.24212 0.0
H676 H 0.14437 0.2593 0.1866 0.0
H677 H 0.11709 0.28109 0.22208 0.0
H678 H 0.06832 0.20371 0.23395 0.0
H679 H 0.09509 0.18209 0.19766 0.0
C680 C 0.08647 0.25348 0.30585 0.0
C681 C 0.07509 0.27918 0.30842 0.0
C682 C 0.08952 0.24103 0.28044 0.0
C683 C 0.08185 0.25443 0.25724 0.0
C684 C 0.06979 0.2798 0.25983 0.0
C685 C 0.06603 0.29192 0.28533 0.0
C686 C 0.1268 0.24742 0.19582 0.0
C687 C 0.12166 0.21916 0.18961 0.0
C688 C 0.11124 0.25983 0.21606 0.0
C689 C 0.09088 0.24391 0.23072 0.0
C690 C 0.08392 0.21629 0.22275 0.0
C691 C 0.09905 0.20403 0.20198 0.0
H692 H 0.00031 0.7642 0.55656 0.0
H693 H 0.08596 0.75888 0.58076 0.0
H694 H 0.01656 0.7886 0.51607 0.0
H695 H 0.10257 0.78361 0.54036 0.0
H696 H 0.11396 0.861 0.48616 0.0
H697 H 0.10129 0.83075 0.52357 0.0
H698 H 0.04225 0.78261 0.4726 0.0
H699 H 0.05497 0.81347 0.43508 0.0
C700 C 0.02264 0.76839 0.55312 0.0
C701 C 0.04194 0.76006 0.5717 0.0
C702 C 0.03199 0.78209 0.52986 0.0
C703 C 0.06089 0.78799 0.52491 0.0
C704 C 0.08018 0.77953 0.54366 0.0
C705 C 0.07077 0.76549 0.56677 0.0
C706 C 0.09877 0.84351 0.48284 0.0
C707 C 0.0856 0.83925 0.45782 0.0
C708 C 0.09152 0.82618 0.50422 0.0
C709 C 0.07069 0.80431 0.50112 0.0
C710 C 0.05819 0.79946 0.47567 0.0
C711 C 0.0656 0.81685 0.45415 0.0
H712 H 0.53969 0.89195 0.79611 0.0
H713 H 0.47432 0.82623 0.80616 0.0
H714 H 0.52488 0.89727 0.74956 0.0
H715 H 0.45966 0.83154 0.76021 0.0
H716 H 0.43763 0.83047 0.68098 0.0
H717 H 0.4752 0.82529 0.71281 0.0
H718 H 0.4814 0.91343 0.72887 0.0
H719 H 0.44451 0.91849 0.69646 0.0
C720 C 0.52211 0.87876 0.78843 0.0
C721 C 0.50786 0.85891 0.80485 0.0
C722 C 0.51389 0.88164 0.76176 0.0
C723 C 0.4916 0.86441 0.75106 0.0
C724 C 0.47749 0.8446 0.76758 0.0
C725 C 0.48548 0.84192 0.79415 0.0
C726 C 0.44825 0.84882 0.69016 0.0
C727 C 0.43813 0.87478 0.68675 0.0
C728 C 0.46958 0.8459 0.70847 0.0
C729 C 0.48021 0.86882 0.72411 0.0
C730 C 0.47335 0.89536 0.71732 0.0
C731 C 0.45229 0.89832 0.6986 0.0
H732 H 0.45375 0.2825 0.08587 0.0
H733 H 0.50545 0.2134 0.08862 0.0
H734 H 0.44227 0.27019 0.03894 0.0
H735 H 0.49589 0.20249 0.04169 0.0
H736 H 0.44991 0.1683 0.97099 0.0
H737 H 0.45671 0.18342 0.01728 0.0
H738 H 0.46275 0.26863 0.99302 0.0
H739 H 0.45465 0.25296 0.94583 0.0
C740 C 0.46264 0.26473 0.07642 0.0
C741 C 0.48034 0.24878 0.09083 0.0
C742 C 0.4564 0.25797 0.04954 0.0
C743 C 0.46811 0.23539 0.03671 0.0
C744 C 0.48601 0.21967 0.05119 0.0
C745 C 0.49161 0.22597 0.0781 0.0
C746 C 0.45258 0.19031 0.97557 0.0
C747 C 0.45242 0.20959 0.9551 0.0
C748 C 0.45664 0.19896 0.00203 0.0
C749 C 0.46105 0.22715 0.00867 0.0
C750 C 0.45956 0.24672 0.98834 0.0
C751 C 0.45509 0.23791 0.96149 0.0
H752 H 0.06457 0.80639 0.17972 0.0
H753 H 0.98091 0.82525 0.20454 0.0
H754 H 0.07951 0.81024 0.22637 0.0
H755 H -0.00397 0.82907 0.25163 0.0
H756 H 0.05592 0.86593 0.32432 0.0
H757 H 0.03 0.85881 0.28222 0.0
H758 H 0.06861 0.78224 0.26752 0.0
H759 H 0.09527 0.78992 0.30864 0.0
C760 C 0.04938 0.81147 0.19513 0.0
C761 C 0.02155 0.81535 0.18846 0.0
C762 C 0.05786 0.81342 0.22191 0.0
C763 C 0.03874 0.81936 0.2427 0.0
C764 C 0.01113 0.82429 0.23602 0.0
C765 C 0.00255 0.82216 0.2091 0.0
C766 C 0.05865 0.8475 0.31229 0.0
C767 C 0.07901 0.82948 0.31896 0.0
C768 C 0.04359 0.84327 0.28827 0.0
C769 C 0.04835 0.8206 0.27104 0.0
C770 C 0.06541 0.80047 0.27991 0.0
C771 C 0.08052 0.80482 0.30363 0.0
H772 H 0.50373 0.7783 0.47618 0.0
H773 H 0.52516 0.86247 0.45268 0.0
H774 H 0.49242 0.79497 0.52189 0.0
H775 H 0.51384 0.87887 0.49771 0.0
H776 H 0.51197 0.90718 0.57775 0.0
H777 H 0.53256 0.87698 0.54419 0.0
H778 H 0.45539 0.82433 0.54268 0.0
H779 H 0.43514 0.85413 0.57703 0.0
C780 C 0.50573 0.8003 0.48071 0.0
C781 C 0.51521 0.81915 0.46095 0.0
C782 C 0.49956 0.80974 0.50683 0.0
C783 C 0.50299 0.83807 0.51344 0.0
C784 C 0.51192 0.85681 0.49344 0.0
C785 C 0.51799 0.84746 0.46751 0.0
C786 C 0.49992 0.88847 0.57108 0.0
C787 C 0.47183 0.88321 0.57918 0.0
C788 C 0.51162 0.87127 0.55188 0.0
C789 C 0.49511 0.84903 0.54023 0.0
C790 C 0.46843 0.84152 0.55123 0.0
C791 C 0.45684 0.85856 0.57083 0.0
H792 H 0.55884 0.23529 0.70729 0.0
H793 H 0.47733 0.2427 0.67231 0.0
H794 H 0.53649 0.22688 0.75107 0.0
H795 H 0.45522 0.23401 0.71604 0.0
H796 H 0.43093 0.26328 0.79891 0.0
H797 H 0.45804 0.2665 0.75715 0.0
H798 H 0.50152 0.19557 0.77835 0.0
H799 H 0.47435 0.19218 0.82041 0.0
C800 C 0.53613 0.23434 0.7087 0.0
C801 C 0.51992 0.24026 0.68634 0.0
C802 C 0.5234 0.22958 0.73384 0.0
C803 C 0.49429 0.23069 0.73703 0.0
C804 C 0.47785 0.23386 0.7142 0.0
C805 C 0.49052 0.23851 0.68907 0.0
C806 C 0.44671 0.24873 0.79506 0.0
C807 C 0.45011 0.2272 0.8128 0.0
C808 C 0.46196 0.25037 0.77097 0.0
C809 C 0.48108 0.23067 0.76416 0.0
C810 C 0.48658 0.21077 0.78299 0.0
C811 C 0.47117 0.20902 0.80717 0.0
H812 H 0.08253 0.28943 0.97236 0.0
H813 H 0.12787 0.22267 0.93878 0.0
H814 H 0.09866 0.27987 0.01718 0.0
H815 H 0.14384 0.21301 0.98351 0.0
H816 H 0.16586 0.18931 0.0599 0.0
H817 H 0.16839 0.22534 0.0264 0.0
H818 H 0.08095 0.23804 0.04182 0.0
H819 H 0.07877 0.20228 0.07534 0.0
C820 C 0.09648 0.27317 0.97439 0.0
C821 C 0.10324 0.2563 0.95207 0.0
C822 C 0.10582 0.2678 0.0001 0.0
C823 C 0.12228 0.24556 0.00394 0.0
C824 C 0.13136 0.23049 0.98125 0.0
C825 C 0.12186 0.23575 0.95558 0.0
C826 C 0.14776 0.20107 0.05726 0.0
C827 C 0.12214 0.19328 0.07006 0.0
C828 C 0.14911 0.22148 0.03791 0.0
C829 C 0.1247 0.23395 0.031 0.0
C830 C 0.10016 0.22885 0.04668 0.0
C831 C 0.09882 0.20835 0.0659 0.0
H832 H 0.30347 -0.00528 0.20633 0.0
H833 H 0.3565 0.06177 0.17329 0.0
H834 H 0.26188 0.02025 0.19868 0.0
H835 H 0.31516 0.0868 0.1649 0.0
H836 H 0.23615 0.11975 0.13801 0.0
H837 H 0.26899 0.08347 0.13781 0.0
H838 H 0.24834 0.06782 0.2212 0.0
H839 H 0.21619 0.10489 0.22156 0.0
C840 C 0.30608 0.01449 0.19662 0.0
C841 C 0.33306 0.02628 0.19014 0.0
C842 C 0.28237 0.02913 0.19245 0.0
C843 C 0.2853 0.05541 0.18106 0.0
C844 C 0.31222 0.06644 0.17337 0.0
C845 C 0.33588 0.05218 0.17821 0.0
C846 C 0.23772 0.10771 0.15592 0.0
C847 C 0.22318 0.11457 0.17961 0.0
C848 C 0.25674 0.08719 0.15591 0.0
C849 C 0.26114 0.07278 0.17945 0.0
C850 C 0.245 0.07826 0.20263 0.0
C851 C 0.22652 0.09933 0.20283 0.0
H852 H 0.17821 0.07807 0.48229 0.0
H853 H 0.26761 0.07664 0.4679 0.0
H854 H 0.17243 0.02838 0.47345 0.0
H855 H 0.26151 0.02661 0.45835 0.0
H856 H 0.20267 0.95091 0.40582 0.0
H857 H 0.2275 -0.00504 0.41939 0.0
H858 H 0.19447 0.98565 0.50024 0.0
H859 H 0.1696 0.94185 0.48673 0.0
C860 C 0.19654 0.06723 0.4768 0.0
C861 C 0.2233 0.08122 0.47565 0.0
C862 C 0.1933 0.03878 0.47211 0.0
C863 C 0.21665 0.02381 0.46574 0.0
C864 C 0.24333 0.0378 0.46354 0.0
C865 C 0.2467 0.06631 0.46885 0.0
C866 C 0.20217 0.95743 0.42686 0.0
C867 C 0.18381 0.94344 0.44516 0.0
C868 C 0.21624 0.98271 0.43457 0.0
C869 C 0.21213 -0.0062 0.46061 0.0
C870 C 0.19755 0.97754 0.47994 0.0
C871 C 0.1835 0.95243 0.47226 0.0
H872 H 0.22287 0.06409 0.66891 0.0
H873 H 0.20069 0.00125 0.72718 0.0
H874 H 0.26828 0.04458 0.66104 0.0
H875 H 0.24589 0.98225 0.71964 0.0
H876 H 0.33735 0.96959 0.71978 0.0
H877 H 0.29795 -0.00142 0.72756 0.0
H878 H 0.28228 -0.00314 0.64199 0.0
H879 H 0.32083 0.96731 0.63456 0.0
C880 C 0.22764 0.04603 0.67982 0.0
C881 C 0.20828 0.03391 0.69839 0.0
C882 C 0.25356 0.03509 0.67549 0.0
C883 C 0.26057 0.01234 0.69016 0.0
C884 C 0.24109 0.00015 0.70851 0.0
C885 C 0.21508 0.01072 0.71244 0.0
C886 C 0.32589 0.97617 0.70271 0.0
C887 C 0.33245 0.96718 0.6765 0.0
C888 C 0.30346 0.99258 0.70709 0.0
C889 C 0.28732 -0.00011 0.6853 0.0
C890 C 0.29482 0.99197 0.659 0.0
C891 C 0.31705 0.97542 0.6547 0.0
H892 H 0.26418 0.00933 0.00533 0.0
H893 H 0.33909 0.97018 0.98039 0.0
H894 H 0.28275 0.05202 0.98443 0.0
H895 H 0.35732 0.01287 0.95946 0.0
H896 H 0.36604 0.08416 0.90112 0.0
H897 H 0.34128 0.04268 0.91937 0.0
H898 H 0.32848 0.0866 -0.00519 0.0
H899 H 0.35443 0.12798 0.97672 0.0
C900 C 0.28439 0.00965 -0.00491 0.0
C901 C 0.30004 0.98621 -0.00567 0.0
C902 C 0.29503 0.03416 0.98334 0.0
C903 C 0.32132 0.03557 0.97032 0.0
C904 C 0.3368 0.01211 0.96913 0.0
C905 C 0.32634 0.98771 0.98113 0.0
C906 C 0.35715 0.08513 0.92132 0.0
C907 C 0.36154 0.10917 0.93747 0.0
C908 C 0.34331 0.0614 0.93181 0.0
C909 C 0.3331 0.06156 0.95844 0.0
C910 C 0.33607 0.08613 0.97415 0.0
C911 C 0.3507 0.10972 0.96385 0.0
H912 H 0.32399 0.95637 0.26717 0.0
H913 H 0.29976 0.03783 0.29022 0.0
H914 H 0.27851 0.93639 0.28252 0.0
H915 H 0.254 0.01757 0.30553 0.0
H916 H 0.19014 0.95529 0.35534 0.0
H917 H 0.23148 0.98401 0.34034 0.0
H918 H 0.22975 0.9395 0.26378 0.0
H919 H 0.18887 0.91064 0.27885 0.0
C920 C 0.30917 0.96999 0.2759 0.0
C921 C 0.31536 -0.00128 0.27718 0.0
C922 C 0.28299 0.95857 0.28437 0.0
C923 C 0.26255 0.9756 0.29446 0.0
C924 C 0.26932 0.0041 0.29749 0.0
C925 C 0.29549 0.01561 0.28876 0.0
C926 C 0.19787 0.9525 0.3349 0.0
C927 C 0.1867 0.93051 0.31837 0.0
C928 C 0.22165 0.96875 0.32642 0.0
C929 C 0.23422 0.96323 0.3013 0.0
C930 C 0.22087 0.94356 0.28358 0.0
C931 C 0.19729 0.92731 0.29205 0.0
H932 H 0.32091 0.09084 0.5236 0.0
H933 H 0.25925 0.08163 0.58801 0.0
H934 H 0.33864 0.04736 0.5345 0.0
H935 H 0.27806 0.03751 0.59964 0.0
H936 H 0.37031 0.00024 0.62234 0.0
H937 H 0.33115 0.02888 0.61595 0.0
H938 H 0.32069 -0.00506 0.53512 0.0
H939 H 0.36034 0.96677 0.54143 0.0
C940 C 0.31123 0.07957 0.54029 0.0
C941 C 0.28899 0.08982 0.55524 0.0
C942 C 0.32107 0.05436 0.54619 0.0
C943 C 0.30926 0.03885 0.56748 0.0
C944 C 0.28711 0.049 0.58281 0.0
C945 C 0.27664 0.07422 0.57638 0.0
C946 C 0.3586 -0.00214 0.60377 0.0
C947 C 0.36799 0.98142 0.58237 0.0
C948 C 0.33616 0.01414 0.60016 0.0
C949 C 0.32318 0.01419 0.575 0.0
C950 C 0.33042 -0.00487 0.55473 0.0
C951 C 0.35303 0.97908 0.55827 0.0
H952 H 0.20967 0.13117 0.80836 0.0
H953 H 0.21811 0.05373 0.76468 0.0
H954 H 0.25893 0.1319 0.82125 0.0
H955 H 0.26741 0.05524 0.77711 0.0
H956 H 0.34464 0.10488 0.85175 0.0
H957 H 0.30043 0.07889 0.83986 0.0
H958 H 0.29977 0.12158 0.76485 0.0
H959 H 0.34326 0.14833 0.77708 0.0
C960 C 0.22171 0.11403 0.80212 0.0
C961 C 0.21014 0.09275 0.78512 0.0
C962 C 0.24974 0.11437 0.80958 0.0
C963 C 0.2665 0.09361 0.79998 0.0
C964 C 0.25459 0.07124 0.78479 0.0
C965 C 0.22643 0.07061 0.77766 0.0
C966 C 0.33599 0.10741 0.83198 0.0
C967 C 0.34683 0.12882 0.81544 0.0
C968 C 0.3107 0.09264 0.82531 0.0
C969 C 0.29695 0.09873 0.80173 0.0
C970 C 0.31033 0.11668 0.78312 0.0
C971 C 0.33518 0.13187 0.79003 0.0
H972 H 0.24942 0.94649 0.09917 0.0
H973 H 0.31844 -0.00415 0.06319 0.0
H974 H 0.22329 0.98738 0.10503 0.0
H975 H 0.292 0.03705 0.06883 0.0
H976 H 0.21187 0.08619 0.04768 0.0
H977 H 0.24502 0.04963 0.04633 0.0
H978 H 0.2261 0.03327 0.13004 0.0
H979 H 0.19342 0.06938 0.13126 0.0
C980 C 0.25931 0.96631 0.09334 0.0
C981 C 0.28594 0.9682 0.08103 0.0
C982 C 0.24434 0.98964 0.09653 0.0
C983 C 0.25563 0.01521 0.08716 0.0
C984 C 0.28287 0.01744 0.07602 0.0
C985 C 0.29812 -0.00594 0.07324 0.0
C986 C 0.2152 0.07484 0.06571 0.0
C987 C 0.20065 0.08059 0.08967 0.0
C988 C 0.23419 0.05423 0.06505 0.0
C989 C 0.23817 0.03893 0.0882 0.0
C990 C 0.22342 0.04481 0.11199 0.0
C991 C 0.20489 0.06549 0.11271 0.0
H992 H 0.27765 0.34031 0.01575 0.0
H993 H 0.22588 0.37016 0.08078 0.0
H994 H 0.26145 0.29277 0.02614 0.0
H995 H 0.20965 0.32274 0.09091 0.0
H996 H 0.17315 0.23695 0.09654 0.0
H997 H 0.18291 0.27957 0.0721 0.0
H998 H 0.27098 0.26491 0.06838 0.0
H999 H 0.26095 0.22181 0.09266 0.0
C1000 C 0.26237 0.33679 0.03188 0.0
C1001 C 0.25323 0.359 0.04768 0.0
C1002 C 0.25324 0.30956 0.03785 0.0
C1003 C 0.23443 0.30411 0.05936 0.0
C1004 C 0.22401 0.32636 0.07406 0.0
C1005 C 0.23343 0.35352 0.06838 0.0
C1006 C 0.19438 0.24218 0.08934 0.0
C1007 C 0.21623 0.22586 0.09579 0.0
C1008 C 0.20001 0.26675 0.07573 0.0
C1009 C 0.22769 0.27556 0.06847 0.0
C1010 C 0.2494 0.25842 0.07351 0.0
C1011 C 0.24374 0.23386 0.08742 0.0
H1012 H 0.72496 0.2201 0.95157 0.0
H1013 H 0.67993 0.24008 0.02496 0.0
H1014 H 0.71276 0.26293 0.93243 0.0
H1015 H 0.66721 0.28324 0.00504 0.0
H1016 H 0.64092 0.32557 0.91084 0.0
H1017 H 0.64195 0.2927 0.94715 0.0
H1018 H 0.72939 0.31807 0.96012 0.0
H1019 H 0.72841 0.35083 0.92358 0.0
C1020 C 0.71166 0.23311 0.9633 0.0
C1021 C 0.70351 0.22677 0.98982 0.0
C1022 C 0.70506 0.25779 0.95247 0.0
C1023 C 0.68982 0.27634 0.96772 0.0
C1024 C 0.67948 0.26923 0.99332 0.0
C1025 C 0.68652 0.24455 0.00446 0.0
C1026 C 0.65981 0.32537 0.92266 0.0
C1027 C 0.68457 0.3406 0.91481 0.0
C1028 C 0.66037 0.30657 0.94333 0.0
C1029 C 0.68573 0.30305 0.95611 0.0
C1030 C 0.70957 0.32084 0.95054 0.0
C1031 C 0.70907 0.33942 0.9297 0.0
H1032 H 0.11911 0.49562 0.21293 0.0
H1033 H 0.07737 0.52648 0.28407 0.0
H1034 H 0.07353 0.48063 0.19347 0.0
H1035 H 0.03154 0.51212 0.26413 0.0
H1036 H 0.96897 0.51752 0.18498 0.0
H1037 H 0.0087 0.52891 0.21538 0.0
H1038 H 0.03022 0.44421 0.20953 0.0
H1039 H 0.99087 0.43302 0.17926 0.0
C1040 C 0.10015 0.49893 0.22443 0.0
C1041 C 0.10155 0.5118 0.25001 0.0
C1042 C 0.0742 0.49035 0.21339 0.0
C1043 C 0.04929 0.4951 0.22753 0.0
C1044 C 0.0506 0.50812 0.25309 0.0
C1045 C 0.07667 0.51612 0.26445 0.0
C1046 C 0.98163 0.50126 0.19114 0.0
C1047 C 0.97662 0.47428 0.18061 0.0
C1048 C 0.00419 0.50771 0.20843 0.0
C1049 C 0.02223 0.48733 0.21467 0.0
C1050 C 0.01638 0.46013 0.20507 0.0
C1051 C 0.99375 0.45368 0.1881 0.0
H1052 H 0.81245 0.8571 0.44003 0.0
H1053 H 0.86177 0.84799 0.51123 0.0
H1054 H 0.81547 0.80867 0.42837 0.0
H1055 H 0.86539 0.79895 0.49881 0.0
H1056 H 0.89115 0.73293 0.42499 0.0
H1057 H 0.88748 0.77354 0.45446 0.0
H1058 H 0.79709 0.76174 0.45096 0.0
H1059 H 0.80093 0.7203 0.42243 0.0
C1060 C 0.82431 0.84487 0.45305 0.0
C1061 C 0.83702 0.85649 0.47652 0.0
C1062 C 0.82563 0.81698 0.44655 0.0
C1063 C 0.84004 0.80002 0.46309 0.0
C1064 C 0.85382 0.81165 0.486 0.0
C1065 C 0.85206 0.8397 0.49285 0.0
C1066 C 0.87059 0.73765 0.43243 0.0
C1067 C 0.84637 0.72306 0.42223 0.0
C1068 C 0.86846 0.7612 0.44889 0.0
C1069 C 0.84204 0.77083 0.45465 0.0
C1070 C 0.81771 0.75466 0.44671 0.0
C1071 C 0.81988 0.73092 0.43056 0.0
H1072 H 0.98203 0.03099 0.26107 0.0
H1073 H 0.94575 0.09409 0.216 0.0
H1074 H 0.02877 0.04667 0.24381 0.0
H1075 H 0.99235 0.10958 0.19906 0.0
H1076 H 0.05731 0.07587 0.13748 0.0
H1077 H 0.01821 0.066 0.16791 0.0
H1078 H 0.06702 0.10101 0.2346 0.0
H1079 H 0.10697 0.1121 0.20361 0.0
C1080 C 0.98412 0.04885 0.24838 0.0
C1081 C 0.96016 0.06106 0.2395 0.0
C1082 C 0.01088 0.05783 0.23863 0.0
C1083 C 0.01395 0.07922 0.22016 0.0
C1084 C 0.99039 0.09306 0.21338 0.0
C1085 C 0.96374 0.08407 0.22294 0.0
C1086 C 0.06025 0.08127 0.15862 0.0
C1087 C 0.08541 0.09514 0.16796 0.0
C1088 C 0.03765 0.07563 0.17602 0.0
C1089 C 0.0396 0.08315 0.20336 0.0
C1090 C 0.06514 0.09527 0.21343 0.0
C1091 C 0.08793 0.10145 0.19575 0.0
H1092 H 0.27284 0.73119 0.56321 0.0
H1093 H 0.30451 0.75543 0.48468 0.0
H1094 H 0.28537 0.7777 0.58092 0.0
H1095 H 0.31699 0.80212 0.50241 0.0
H1096 H 0.37311 0.86062 0.56343 0.0
H1097 H 0.35278 0.82253 0.53499 0.0
H1098 H 0.2736 0.82608 0.57772 0.0
H1099 H 0.29422 0.86353 0.60654 0.0
C1100 C 0.28232 0.74652 0.54973 0.0
C1101 C 0.28794 0.73968 0.52271 0.0
C1102 C 0.28921 0.77325 0.55974 0.0
C1103 C 0.30199 0.7936 0.54295 0.0
C1104 C 0.30721 0.78685 0.51578 0.0
C1105 C 0.30006 0.76014 0.5057 0.0
C1106 C 0.35105 0.85398 0.56592 0.0
C1107 C 0.33525 0.86458 0.5873 0.0
C1108 C 0.33942 0.83213 0.54973 0.0
C1109 C 0.31182 0.82092 0.55469 0.0
C1110 C 0.29513 0.83388 0.57397 0.0
C1111 C 0.30682 0.85542 0.59028 0.0
H1112 H 0.10799 0.5937 0.31439 0.0
H1113 H 0.07522 0.60795 0.23555 0.0
H1114 H 0.06285 0.60288 0.33464 0.0
H1115 H 0.02988 0.61738 0.2563 0.0
H1116 H 0.9737 0.65695 0.33946 0.0
H1117 H 0.01139 0.65463 0.30541 0.0
H1118 H 0.01247 0.5671 0.31747 0.0
H1119 H 0.97516 0.56942 0.35133 0.0
C1120 C 0.09155 0.59966 0.30143 0.0
C1121 C 0.09521 0.59983 0.27331 0.0
C1122 C 0.06565 0.60472 0.31304 0.0
C1123 C 0.04304 0.61042 0.29687 0.0
C1124 C 0.04711 0.6129 0.26904 0.0
C1125 C 0.07305 0.60755 0.25729 0.0
C1126 C 0.98087 0.63701 0.3336 0.0
C1127 C 0.97178 0.61337 0.34798 0.0
C1128 C 0.00256 0.63574 0.31436 0.0
C1129 C 0.01494 0.61078 0.30941 0.0
C1130 C 0.00324 0.58657 0.32122 0.0
C1131 C 0.98183 0.58787 0.34042 0.0
H1132 H 0.48211 0.45526 0.75387 0.0
H1133 H 0.46538 0.49478 0.83099 0.0
H1134 H 0.5317 0.45402 0.76605 0.0
H1135 H 0.5142 0.494 0.84262 0.0
H1136 H 0.59342 0.50317 0.86494 0.0
H1137 H 0.56409 0.51392 0.82728 0.0
H1138 H 0.55179 0.4271 0.8062 0.0
H1139 H 0.58094 0.41663 0.84373 0.0
C1140 C 0.48896 0.46354 0.77338 0.0
C1141 C 0.46986 0.47481 0.79166 0.0
C1142 C 0.51731 0.4633 0.78003 0.0
C1143 C 0.52684 0.47486 0.80476 0.0
C1144 C 0.50763 0.48593 0.82294 0.0
C1145 C 0.47947 0.48575 0.81655 0.0
C1146 C 0.58584 0.48666 0.85115 0.0
C1147 C 0.58902 0.45903 0.85701 0.0
C1148 C 0.56929 0.49278 0.82955 0.0
C1149 C 0.55516 0.47117 0.81452 0.0
C1150 C 0.56254 0.44406 0.81749 0.0
C1151 C 0.5793 0.438 0.83894 0.0
H1152 H 0.98694 0.74043 0.73778 0.0
H1153 H -0.00376 0.82205 0.70487 0.0
H1154 H 0.97789 0.76046 0.78243 0.0
H1155 H 0.98619 0.84213 0.7492 0.0
H1156 H 0.97037 0.87648 0.82883 0.0
H1157 H -0.00139 0.85128 0.79633 0.0
H1158 H 0.93672 0.78152 0.79892 0.0
H1159 H 0.90902 0.80658 0.83125 0.0
C1160 C 0.98713 0.7627 0.74019 0.0
C1161 C 0.99173 0.77979 0.71794 0.0
C1162 C 0.98212 0.77415 0.76573 0.0
C1163 C 0.9812 0.80286 0.76936 0.0
C1164 C 0.98727 0.81997 0.74724 0.0
C1165 C 0.9927 0.80851 0.72178 0.0
C1166 C 0.96365 0.85528 0.82333 0.0
C1167 C 0.93753 0.84343 0.83212 0.0
C1168 C 0.97958 0.84098 0.80454 0.0
C1169 C 0.96958 0.81467 0.7946 0.0
C1170 C 0.94511 0.8017 0.8061 0.0
C1171 C 0.92915 0.81605 0.8246 0.0
H1172 H 0.98827 0.3111 0.43254 0.0
H1173 H 0.04593 0.24726 0.43842 0.0
H1174 H 0.96657 0.29709 0.4758 0.0
H1175 H 0.02421 0.23316 0.48074 0.0
H1176 H 0.01208 0.23391 0.56665 0.0
H1177 H 0.02674 0.25766 0.52556 0.0
H1178 H 0.94015 0.25651 0.5012 0.0
H1179 H 0.92544 0.23365 0.5432 0.0
C1180 C -0.00424 0.29363 0.44263 0.0
C1181 C 0.01919 0.28064 0.43241 0.0
C1182 C 0.98351 0.28579 0.46745 0.0
C1183 C 0.99449 0.26479 0.48211 0.0
C1184 C 0.01604 0.25018 0.47044 0.0
C1185 C 0.02826 0.25802 0.44599 0.0
C1186 C -0.00385 0.23989 0.55309 0.0
C1187 C 0.96775 0.23201 0.55791 0.0
C1188 C 0.00449 0.25311 0.52942 0.0
C1189 C 0.98462 0.25799 0.50979 0.0
C1190 C 0.95589 0.2528 0.5159 0.0
C1191 C 0.94748 0.23991 0.53996 0.0
H1192 H 0.51296 0.21476 0.2195 0.0
H1193 H 0.59482 0.25566 0.20469 0.0
H1194 H 0.52098 0.21838 0.2681 0.0
H1195 H 0.60411 0.25756 0.25245 0.0
H1196 H 0.62995 0.25512 0.32808 0.0
H1197 H 0.59805 0.27312 0.29618 0.0
H1198 H 0.54672 0.19569 0.29793 0.0
H1199 H 0.57698 0.17922 0.33153 0.0
C1200 C 0.53298 0.22378 0.2268 0.0
C1201 C 0.55384 0.2339 0.20873 0.0
C1202 C 0.53745 0.22628 0.25453 0.0
C1203 C 0.56319 0.23822 0.26446 0.0
C1204 C 0.5837 0.24884 0.24597 0.0
C1205 C 0.57886 0.24702 0.21845 0.0
C1206 C 0.61095 0.24271 0.32259 0.0
C1207 C 0.60637 0.21543 0.33097 0.0
C1208 C 0.59278 0.25284 0.30423 0.0
C1209 C 0.5712 0.23498 0.29288 0.0
C1210 C 0.56363 0.2098 0.30545 0.0
C1211 C 0.58114 0.20016 0.32468 0.0
H1212 H 0.60556 0.87023 0.92799 0.0
H1213 H 0.51677 0.85179 0.94154 0.0
H1214 H 0.61483 0.85644 0.97325 0.0
H1215 H 0.52578 0.83408 0.98507 0.0
H1216 H 0.54896 0.85024 0.07278 0.0
H1217 H 0.5345 0.84029 0.02738 0.0
H1218 H 0.62031 0.82602 0.00477 0.0
H1219 H 0.63479 0.8396 0.04987 0.0
C1220 C 0.58804 0.86333 0.94088 0.0
C1221 C 0.56052 0.86244 0.93149 0.0
C1222 C 0.5933 0.85434 0.96661 0.0
C1223 C 0.5712 0.84309 0.98319 0.0
C1224 C 0.54355 0.84283 0.97363 0.0
C1225 C 0.53824 0.85326 0.94852 0.0
C1226 C 0.56451 0.84373 0.05832 0.0
C1227 C 0.59316 0.84759 0.06425 0.0
C1228 C 0.5563 0.83822 0.03182 0.0
C1229 C 0.57679 0.8353 0.01142 0.0
C1230 C 0.6043 0.83095 0.01939 0.0
C1231 C 0.61262 0.83766 0.04573 0.0
H1232 H 0.03406 0.2216 0.83394 0.0
H1233 H 0.00489 0.30221 0.82149 0.0
H1234 H 0.02684 0.20974 0.7861 0.0
H1235 H -0.00285 0.29041 0.77436 0.0
H1236 H 0.99091 0.27253 0.68881 0.0
H1237 H 0.01593 0.28145 0.73121 0.0
H1238 H 0.98845 0.19916 0.75656 0.0
H1239 H 0.96466 0.19024 0.71391 0.0
C1240 C 0.02608 0.23675 0.82101 0.0
C1241 C 0.01957 0.26264 0.83162 0.0
C1242 C 0.02198 0.23 0.79359 0.0
C1243 C 0.01145 0.2491 0.77616 0.0
C1244 C 0.00574 0.27525 0.78683 0.0
C1245 C 0.00974 0.2819 0.81411 0.0
C1246 C 0.99149 0.256 0.70297 0.0
C1247 C 0.9764 0.23053 0.6979 0.0
C1248 C 0.00539 0.26118 0.72748 0.0
C1249 C 0.00365 0.24128 0.74773 0.0
C1250 C 0.99056 0.21496 0.74154 0.0
C1251 C 0.97707 0.20969 0.71689 0.0
H1252 H 0.53089 0.27467 0.53897 0.0
H1253 H 0.61407 0.25298 0.55899 0.0
H1254 H 0.53787 0.25847 0.49271 0.0
H1255 H 0.62078 0.23605 0.51281 0.0
H1256 H 0.63042 0.20381 0.43168 0.0
H1257 H 0.6242 0.24265 0.46332 0.0
H1258 H 0.53842 0.2107 0.47792 0.0
H1259 H 0.54505 0.1722 0.44713 0.0
C1260 C 0.55076 0.26657 0.53344 0.0
C1261 C 0.57171 0.26438 0.55275 0.0
C1262 C 0.55481 0.25754 0.50687 0.0
C1263 C 0.57977 0.24582 0.49913 0.0
C1264 C 0.60145 0.24535 0.51801 0.0
C1265 C 0.5975 0.25467 0.54458 0.0
C1266 C 0.61007 0.20583 0.44104 0.0
C1267 C 0.58859 0.18466 0.43806 0.0
C1268 C 0.60649 0.22793 0.45913 0.0
C1269 C 0.58111 0.22923 0.47373 0.0
C1270 C 0.55831 0.21029 0.46721 0.0
C1271 C 0.5621 0.18809 0.44962 0.0
H1272 H 0.56523 0.85129 0.33637 0.0
H1273 H 0.63954 0.8067 0.3247 0.0
H1274 H 0.57662 0.87661 0.29521 0.0
H1275 H 0.65072 0.83138 0.28388 0.0
H1276 H 0.66841 0.87005 0.21059 0.0
H1277 H 0.66203 0.8719 0.259 0.0
H1278 H 0.57226 0.85653 0.24898 0.0
H1279 H 0.57877 0.85738 0.1998 0.0
C1280 C 0.58454 0.8477 0.32555 0.0
C1281 C 0.60125 0.82667 0.3331 0.0
C1282 C 0.5909 0.86201 0.30198 0.0
C1283 C 0.61416 0.85556 0.28609 0.0
C1284 C 0.63264 0.83695 0.29566 0.0
C1285 C 0.62618 0.82258 0.31896 0.0
C1286 C 0.64725 0.86779 0.21873 0.0
C1287 C 0.62405 0.86275 0.20177 0.0
C1288 C 0.64362 0.86892 0.24642 0.0
C1289 C 0.61678 0.86374 0.25775 0.0
C1290 C 0.59324 0.86069 0.24076 0.0
C1291 C 0.59688 0.86055 0.21274 0.0
H1292 H -0.00217 0.84155 0.05503 0.0
H1293 H 0.92499 0.78389 0.06497 0.0
H1294 H 0.9856 0.84737 0.00857 0.0
H1295 H 0.91236 0.79029 0.01783 0.0
H1296 H 0.89528 0.87261 0.96367 0.0
H1297 H 0.89846 0.83625 -0.00409 0.0
H1298 H 0.97974 0.81951 0.96294 0.0
H1299 H 0.97628 0.85589 0.93048 0.0
C1300 C 0.97905 0.83023 0.04734 0.0
C1301 C 0.96216 0.81256 0.06376 0.0
C1302 C 0.97242 0.83304 0.02049 0.0
C1303 C 0.94853 0.81852 0.00943 0.0
C1304 C 0.93122 0.80116 0.02584 0.0
C1305 C 0.93817 0.79797 0.05281 0.0
C1306 C 0.9128 0.8597 0.96201 0.0
C1307 C 0.93562 0.86691 0.94498 0.0
C1308 C 0.91465 0.83886 0.98048 0.0
C1309 C 0.93981 0.82596 0.98243 0.0
C1310 C 0.9603 0.82956 0.96194 0.0
C1311 C 0.95833 0.85032 0.94337 0.0
H1312 H 0.73597 0.05451 0.83263 0.0
H1313 H 0.72389 0.976 0.78964 0.0
H1314 H 0.78383 0.04359 0.84457 0.0
H1315 H 0.77107 0.96551 0.80119 0.0
H1316 H 0.85602 0.96286 0.78921 0.0
H1317 H 0.82114 -0.00349 0.78512 0.0
H1318 H 0.80531 -0.00561 0.87081 0.0
H1319 H 0.84042 0.96081 0.87486 0.0
C1320 C 0.74326 0.03473 0.82634 0.0
C1321 C 0.72635 0.01606 0.81016 0.0
C1322 C 0.77063 0.02873 0.83285 0.0
C1323 C 0.78117 0.00418 0.82299 0.0
C1324 C 0.76357 0.98495 0.80833 0.0
C1325 C 0.73649 0.99081 0.80199 0.0
C1326 C 0.84658 0.97109 0.8074 0.0
C1327 C 0.85058 0.95916 0.83231 0.0
C1328 C 0.82658 0.99029 0.80507 0.0
C1329 C 0.81021 -0.00266 0.82759 0.0
C1330 C 0.81773 0.9892 0.85322 0.0
C1331 C 0.83802 0.97013 0.85557 0.0
H1332 H 0.82399 0.00364 0.48723 0.0
H1333 H 0.83692 0.98311 0.56986 0.0
H1334 H 0.82618 0.05261 0.50006 0.0
H1335 H 0.84116 0.03196 0.58267 0.0
H1336 H 0.84752 0.11769 0.60654 0.0
H1337 H 0.82307 0.0744 0.59061 0.0
H1338 H 0.85922 0.08748 0.51112 0.0
H1339 H 0.88201 0.13096 0.52683 0.0
C1340 C 0.82781 0.00973 0.50811 0.0
C1341 C 0.831 0.98973 0.5275 0.0
C1342 C 0.82895 0.03782 0.51555 0.0
C1343 C 0.83405 0.04662 0.54247 0.0
C1344 C 0.83662 0.02629 0.56186 0.0
C1345 C 0.83472 -0.00179 0.5545 0.0
C1346 C 0.84875 0.11203 0.58531 0.0
C1347 C 0.86698 0.1274 0.56798 0.0
C1348 C 0.83533 0.08682 0.57626 0.0
C1349 C 0.84017 0.07658 0.54983 0.0
C1350 C 0.85501 0.09421 0.53164 0.0
C1351 C 0.8681 0.1194 0.54061 0.0
H1352 H 0.84662 0.08783 0.3038 0.0
H1353 H 0.80986 0.00421 0.30814 0.0
H1354 H 0.80442 0.10464 0.32508 0.0
H1355 H 0.76677 0.02114 0.32776 0.0
H1356 H 0.70203 0.09381 0.29326 0.0
H1357 H 0.7393 0.06184 0.29333 0.0
H1358 H 0.76496 0.09346 0.37192 0.0
H1359 H 0.72673 0.12439 0.37244 0.0
C1360 C 0.82996 0.073 0.31033 0.0
C1361 C 0.83141 0.04477 0.30442 0.0
C1362 C 0.80581 0.08257 0.32239 0.0
C1363 C 0.78246 0.06411 0.32795 0.0
C1364 C 0.78463 0.03567 0.32381 0.0
C1365 C 0.80921 0.02604 0.31254 0.0
C1366 C 0.71449 0.0926 0.31122 0.0
C1367 C 0.71137 0.11116 0.33297 0.0
C1368 C 0.73585 0.07445 0.31125 0.0
C1369 C 0.7549 0.07536 0.33263 0.0
C1370 C 0.75029 0.09222 0.3554 0.0
C1371 C 0.72834 0.10974 0.35572 0.0
H1372 H 0.72958 0.09829 0.07835 0.0
H1373 H 0.74271 0.08733 0.99235 0.0
H1374 H 0.72048 0.04842 0.08208 0.0
H1375 H 0.73374 0.03768 -0.00369 0.0
H1376 H 0.66145 0.96764 0.02062 0.0
H1377 H 0.68879 0.00971 0.00787 0.0
H1378 H 0.74299 0.00256 0.07588 0.0
H1379 H 0.71562 0.96034 0.08864 0.0
C1380 C 0.73076 0.08531 0.06034 0.0
C1381 C 0.73653 0.09688 0.0351 0.0
C1382 C 0.72596 0.05674 0.06251 0.0
C1383 C 0.72681 0.03925 0.03948 0.0
C1384 C 0.7331 0.05072 0.01434 0.0
C1385 C 0.738 0.07921 0.01216 0.0
C1386 C 0.67998 0.97437 0.0321 0.0
C1387 C 0.68597 0.96135 0.05603 0.0
C1388 C 0.69566 -0.00156 0.02481 0.0
C1389 C 0.71735 0.00975 0.0415 0.0
C1390 C 0.72591 -0.00554 0.0631 0.0
C1391 C 0.71041 0.97017 0.07022 0.0
H1392 H 0.74985 0.07575 0.77126 0.0
H1393 H 0.73336 0.09164 0.68776 0.0
H1394 H 0.79958 0.08914 0.76384 0.0
H1395 H 0.78294 0.10504 0.68059 0.0
H1396 H 0.87044 0.1139 0.66464 0.0
H1397 H 0.8304 0.08427 0.68038 0.0
H1398 H 0.82559 0.13515 0.75279 0.0
H1399 H 0.86572 0.16467 0.73724 0.0
C1400 C 0.75677 0.08212 0.75134 0.0
C1401 C 0.73763 0.08272 0.73004 0.0
C1402 C 0.78526 0.08952 0.74713 0.0
C1403 C 0.79509 0.09744 0.72155 0.0
C1404 C 0.77599 0.09812 0.70033 0.0
C1405 C 0.74754 0.09083 0.70451 0.0
C1406 C 0.86172 0.11801 0.68449 0.0
C1407 C 0.87036 0.14212 0.69931 0.0
C1408 C 0.8387 0.10115 0.69339 0.0
C1409 C 0.82445 0.10814 0.71725 0.0
C1410 C 0.83604 0.12955 0.73413 0.0
C1411 C 0.85894 0.14651 0.72517 0.0
H1412 H 0.77316 0.96991 0.44909 0.0
H1413 H 0.70468 0.96899 0.5071 0.0
H1414 H 0.75011 0.00263 0.42225 0.0
H1415 H 0.68117 0.00092 0.47962 0.0
H1416 H 0.68969 0.09264 0.46772 0.0
H1417 H 0.7076 0.04959 0.48082 0.0
H1418 H 0.70634 0.0204 0.39775 0.0
H1419 H 0.68856 0.06414 0.38447 0.0
C1420 C 0.75266 0.97589 0.45552 0.0
C1421 C 0.74113 0.96818 0.48068 0.0
C1422 C 0.73943 -0.00565 0.44002 0.0
C1423 C 0.71459 0.0048 0.4496 0.0
C1424 C 0.70086 -0.00647 0.47245 0.0
C1425 C 0.71431 0.97555 0.48821 0.0
C1426 C 0.6941 0.07737 0.45221 0.0
C1427 C 0.68769 0.0813 0.42528 0.0
C1428 C 0.7037 0.05261 0.45968 0.0
C1429 C 0.70687 0.03144 0.44034 0.0
C1430 C 0.70327 0.03635 0.41295 0.0
C1431 C 0.69367 0.0614 0.40539 0.0
H1432 H 0.84198 0.98689 0.19787 0.0
H1433 H 0.81668 0.96761 0.27927 0.0
H1434 H 0.79333 0.98737 0.18526 0.0
H1435 H 0.76816 0.97257 0.26836 0.0
H1436 H 0.68924 0.933 0.22845 0.0
H1437 H 0.73054 0.95226 0.25075 0.0
H1438 H 0.75132 0.00331 0.18184 0.0
H1439 H 0.71093 0.98099 0.15836 0.0
C1440 C 0.8258 0.98317 0.21315 0.0
C1441 C 0.83289 0.97703 0.23943 0.0
C1442 C 0.79773 0.98424 0.2062 0.0
C1443 C 0.77606 0.98038 0.22571 0.0
C1444 C 0.78364 0.97501 0.25233 0.0
C1445 C 0.81161 0.97237 0.25881 0.0
C1446 C 0.70216 0.94911 0.21847 0.0
C1447 C 0.69804 0.95437 0.19124 0.0
C1448 C 0.72623 0.96033 0.23131 0.0
C1449 C 0.74598 0.97783 0.21731 0.0
C1450 C 0.73791 0.98812 0.19245 0.0
C1451 C 0.71423 0.97601 0.17917 0.0
H1452 H 0.84097 0.12355 0.98459 0.0
H1453 H 0.77542 0.10509 0.92615 0.0
H1454 H 0.86144 0.08139 0.9724 0.0
H1455 H 0.79752 0.06265 0.91232 0.0
H1456 H 0.8296 0.97324 0.92405 0.0
H1457 H 0.80603 0.01652 0.92936 0.0
H1458 H 0.88712 0.0619 0.93787 0.0
H1459 H 0.90988 0.01935 0.93439 0.0
C1460 C 0.83129 0.11079 0.9685 0.0
C1461 C 0.80657 0.11774 0.9563 0.0
C1462 C 0.84322 0.08651 0.96135 0.0
C1463 C 0.83134 0.06865 0.94115 0.0
C1464 C 0.80704 0.07591 0.92811 0.0
C1465 C 0.79467 0.10034 0.93569 0.0
C1466 C 0.8421 0.99258 0.92732 0.0
C1467 C 0.87141 0.99295 0.92973 0.0
C1468 C 0.82874 0.01732 0.93002 0.0
C1469 C 0.84468 0.04262 0.93462 0.0
C1470 C 0.87407 0.04277 0.93534 0.0
C1471 C 0.88716 0.01831 0.93341 0.0
H1472 H 0.73675 0.75127 0.98832 0.0
H1473 H 0.81263 0.71047 0.9717 0.0
H1474 H 0.75863 0.79387 0.97151 0.0
H1475 H 0.8341 0.75297 0.95227 0.0
H1476 H 0.87256 0.83643 0.93139 0.0
H1477 H 0.85301 0.7984 0.9585 0.0
H1478 H 0.76997 0.81299 0.93073 0.0
H1479 H 0.7897 0.85251 0.90598 0.0
C1480 C 0.7581 0.75132 0.98059 0.0
C1481 C 0.77294 0.72745 0.98104 0.0
C1482 C 0.77062 0.77582 0.97079 0.0
C1483 C 0.79799 0.77692 0.96002 0.0
C1484 C 0.81308 0.75306 0.96072 0.0
C1485 C 0.80076 0.7286 0.97152 0.0
C1486 C 0.85004 0.83249 0.93263 0.0
C1487 C 0.83255 0.84803 0.91764 0.0
C1488 C 0.83883 0.8101 0.94737 0.0
C1489 C 0.80986 0.80239 0.9468 0.0
C1490 C 0.79231 0.81851 0.9322 0.0
C1491 C 0.80355 0.84112 0.91785 0.0
H1492 H 0.35334 0.84851 0.00361 0.0
H1493 H 0.35789 0.85638 0.09035 0.0
H1494 H 0.35817 0.79845 0.0062 0.0
H1495 H 0.36309 0.80711 0.09284 0.0
H1496 H 0.3229 0.73843 0.10457 0.0
H1497 H 0.31527 0.76564 0.06524 0.0
H1498 H 0.40324 0.7667 0.04479 0.0
H1499 H 0.41081 0.73963 0.08382 0.0
C1500 C 0.35673 0.83974 0.02303 0.0
C1501 C 0.35549 0.85606 0.04684 0.0
C1502 C 0.35891 0.81121 0.02446 0.0
C1503 C 0.36008 0.79925 0.04969 0.0
C1504 C 0.3616 0.81608 0.07318 0.0
C1505 C 0.35916 0.84423 0.07178 0.0
C1506 C 0.34017 0.74274 0.09053 0.0
C1507 C 0.36764 0.73773 0.09743 0.0
C1508 C 0.33575 0.75791 0.06773 0.0
C1509 C 0.35908 0.76934 0.05316 0.0
C1510 C 0.3851 0.75844 0.05616 0.0
C1511 C 0.3895 0.74293 0.07872 0.0
H1512 H 0.94765 0.60293 0.80095 0.0
H1513 H 0.97914 0.54358 0.74393 0.0
H1514 H 0.99346 0.6074 0.82313 0.0
H1515 H 0.02511 0.54878 0.7657 0.0
H1516 H 0.10644 0.60853 0.80615 0.0
H1517 H 0.06381 0.60042 0.77871 0.0
H1518 H 0.02072 0.55986 0.84535 0.0
H1519 H 0.06273 0.56764 0.87253 0.0
C1520 C 0.96447 0.59121 0.79299 0.0
C1521 C 0.95998 0.57288 0.7709 0.0
C1522 C 0.99051 0.59373 0.80561 0.0
C1523 C 0.01251 0.5785 0.79584 0.0
C1524 C 0.00834 0.56077 0.77333 0.0
C1525 C 0.98212 0.55773 0.7611 0.0
C1526 C 0.08794 0.59758 0.81468 0.0
C1527 C 0.08767 0.58915 0.84152 0.0
C1528 C 0.06376 0.59289 0.79906 0.0
C1529 C 0.03917 0.58003 0.81034 0.0
C1530 C 0.03949 0.57006 0.83648 0.0
C1531 C 0.06362 0.57431 0.85186 0.0
H1532 H 0.26323 0.22851 0.52143 0.0
H1533 H 0.19019 0.20048 0.56782 0.0
H1534 H 0.25054 0.27573 0.52572 0.0
H1535 H 0.1792 0.24834 0.5757 0.0
H1536 H 0.16293 0.33208 0.59355 0.0
H1537 H 0.16552 0.29118 0.56444 0.0
H1538 H 0.25593 0.30747 0.55995 0.0
H1539 H 0.25246 0.34926 0.58698 0.0
C1540 C 0.24418 0.23253 0.53227 0.0
C1541 C 0.22748 0.211 0.544 0.0
C1542 C 0.23709 0.25971 0.53518 0.0
C1543 C 0.2141 0.26621 0.55147 0.0
C1544 C 0.19678 0.24434 0.56255 0.0
C1545 C 0.20321 0.21689 0.55845 0.0
C1546 C 0.18293 0.328 0.58433 0.0
C1547 C 0.20736 0.34403 0.59175 0.0
C1548 C 0.18463 0.30403 0.56843 0.0
C1549 C 0.21099 0.29534 0.56043 0.0
C1550 C 0.23514 0.31327 0.56546 0.0
C1551 C 0.23329 0.33741 0.58099 0.0
H1552 H 0.07368 0.08073 0.81321 0.0
H1553 H 0.06934 0.02373 0.74467 0.0
H1554 H 0.03705 0.05212 0.83604 0.0
H1555 H 0.0321 -0.00488 0.76772 0.0
H1556 H 0.94604 0.97447 0.82294 0.0
H1557 H 0.9777 0.00234 0.79288 0.0
H1558 H 0.04496 -0.0013 0.84955 0.0
H1559 H 0.01415 0.97109 0.87913 0.0
C1560 C 0.06453 0.06233 0.80286 0.0
C1561 C 0.07448 0.05414 0.77739 0.0
C1562 C 0.04361 0.04607 0.81588 0.0
C1563 C 0.03201 0.02162 0.80347 0.0
C1564 C 0.04082 0.01404 0.77745 0.0
C1565 C 0.06219 0.03016 0.76451 0.0
C1566 C 0.9677 0.97932 0.82866 0.0
C1567 C 0.97754 0.97099 0.8535 0.0
C1568 C 0.98567 -0.00483 0.81156 0.0
C1569 C 0.01341 0.00273 0.81933 0.0
C1570 C 0.02345 0.99335 0.84348 0.0
C1571 C 0.00576 0.97761 0.86036 0.0
H1572 H 0.7705 0.33861 0.48698 0.0
H1573 H 0.68015 0.34089 0.48312 0.0
H1574 H 0.76677 0.29132 0.47003 0.0
H1575 H 0.67664 0.29322 0.46551 0.0
H1576 H 0.67631 0.20311 0.4473 0.0
H1577 H 0.68528 0.24375 0.47682 0.0
H1578 H 0.75404 0.27261 0.42475 0.0
H1579 H 0.74486 0.23257 0.39511 0.0
C1580 C 0.74978 0.32911 0.4824 0.0
C1581 C 0.72556 0.34373 0.48587 0.0
C1582 C 0.74774 0.30191 0.47288 0.0
C1583 C 0.72149 0.28872 0.46653 0.0
C1584 C 0.69713 0.30291 0.47067 0.0
C1585 C 0.69915 0.33026 0.48033 0.0
C1586 C 0.69362 0.2179 0.44242 0.0
C1587 C 0.70906 0.21536 0.41828 0.0
C1588 C 0.69871 0.24109 0.45931 0.0
C1589 C 0.71981 0.26153 0.45259 0.0
C1590 C 0.73749 0.2572 0.4303 0.0
C1591 C 0.73217 0.23427 0.41327 0.0
H1592 H 0.96997 0.52059 0.67375 0.0
H1593 H 0.9486 0.45752 0.73196 0.0
H1594 H 0.01719 0.50618 0.67036 0.0
H1595 H -0.00334 0.44285 0.72845 0.0
H1596 H 0.06748 0.40929 0.66639 0.0
H1597 H 0.02682 0.4212 0.69317 0.0
H1598 H 0.06027 0.50638 0.6971 0.0
H1599 H 0.1 0.49453 0.66892 0.0
C1600 C 0.97529 0.50345 0.68572 0.0
C1601 C 0.95545 0.49013 0.70302 0.0
C1602 C 0.00263 0.49553 0.68421 0.0
C1603 C 0.01097 0.47396 0.69986 0.0
C1604 C 0.99094 0.45986 0.71652 0.0
C1605 C 0.9634 0.46802 0.71824 0.0
C1606 C 0.06702 0.43021 0.67451 0.0
C1607 C 0.08625 0.4512 0.66515 0.0
C1608 C 0.04357 0.43709 0.68972 0.0
C1609 C 0.03977 0.46495 0.69599 0.0
C1610 C 0.06225 0.48487 0.69161 0.0
C1611 C 0.08527 0.47807 0.67587 0.0
H1612 H 0.59837 0.62943 0.19705 0.0
H1613 H 0.56269 0.54867 0.21853 0.0
H1614 H 0.55254 0.6473 0.20166 0.0
H1615 H 0.5177 0.56699 0.22748 0.0
H1616 H 0.45405 0.58728 0.16459 0.0
H1617 H 0.48348 0.5746 0.20017 0.0
H1618 H 0.51028 0.66083 0.21527 0.0
H1619 H 0.48163 0.67299 0.17803 0.0
C1620 C 0.58062 0.61568 0.2032 0.0
C1621 C 0.58359 0.58754 0.20617 0.0
C1622 C 0.55432 0.62599 0.20672 0.0
C1623 C 0.53062 0.60846 0.21427 0.0
C1624 C 0.53478 0.58094 0.22032 0.0
C1625 C 0.56061 0.57034 0.21513 0.0
C1626 C 0.46526 0.60357 0.17641 0.0
C1627 C 0.46694 0.6308 0.16788 0.0
C1628 C 0.48235 0.59643 0.1971 0.0
C1629 C 0.50181 0.61655 0.20864 0.0
C1630 C 0.49733 0.64457 0.2051 0.0
C1631 C 0.48043 0.65171 0.18406 0.0
H1632 H 0.62546 0.77984 0.81842 0.0
H1633 H 0.53839 0.78844 0.79915 0.0
H1634 H 0.63387 0.76386 0.77232 0.0
H1635 H 0.54718 0.77234 0.75296 0.0
H1636 H 0.5924 0.70662 0.6874 0.0
H1637 H 0.56927 0.72497 0.7276 0.0
H1638 H 0.6287 0.79655 0.72795 0.0
H1639 H 0.65197 0.7783 0.68811 0.0
C1640 C 0.60807 0.77801 0.80454 0.0
C1641 C 0.58149 0.78601 0.81227 0.0
C1642 C 0.61292 0.76903 0.77819 0.0
C1643 C 0.59126 0.76779 0.75926 0.0
C1644 C 0.56415 0.77361 0.76731 0.0
C1645 C 0.55927 0.78276 0.7937 0.0
C1646 C 0.5996 0.72692 0.69527 0.0
C1647 C 0.62444 0.74073 0.68537 0.0
C1648 C 0.58645 0.73728 0.71828 0.0
C1649 C 0.59799 0.76157 0.73101 0.0
C1650 C 0.61997 0.77745 0.71854 0.0
C1651 C 0.63313 0.7671 0.69575 0.0
H1652 H 0.56899 0.2446 0.05191 0.0
H1653 H 0.57354 0.32393 0.09425 0.0
H1654 H 0.5823 0.26734 0.01006 0.0
H1655 H 0.58759 0.34645 0.05195 0.0
H1656 H 0.63897 0.36195 0.96792 0.0
H1657 H 0.63366 0.33482 0.00886 0.0
H1658 H 0.54672 0.31318 0.98983 0.0
H1659 H 0.55184 0.34099 0.94909 0.0
C1660 C 0.57349 0.26681 0.05252 0.0
C1661 C 0.56995 0.28252 0.07648 0.0
C1662 C 0.581 0.2797 0.02849 0.0
C1663 C 0.58569 0.30843 0.02805 0.0
C1664 C 0.584 0.32415 0.05209 0.0
C1665 C 0.57598 0.3113 0.07617 0.0
C1666 C 0.61899 0.35062 0.97208 0.0
C1667 C 0.59595 0.35278 0.95519 0.0
C1668 C 0.61594 0.33549 -0.00445 0.0
C1669 C 0.58984 0.32216 0.0022 0.0
C1670 C 0.56706 0.32331 0.98478 0.0
C1671 C 0.56998 0.33893 0.96154 0.0
H1672 H 0.05636 0.36917 0.28688 0.0
H1673 H 0.97521 0.37621 0.32492 0.0
H1674 H 0.03637 0.37883 0.24306 0.0
H1675 H 0.95567 0.38685 0.28155 0.0
H1676 H 0.93102 0.42113 0.20568 0.0
H1677 H 0.96658 0.42555 0.24076 0.0
H1678 H 0.99001 0.34338 0.22061 0.0
H1679 H 0.95373 0.33868 0.18591 0.0
C1680 C 0.03455 0.37378 0.28598 0.0
C1681 C 0.01718 0.37206 0.30909 0.0
C1682 C 0.02322 0.37918 0.26101 0.0
C1683 C -0.0053 0.38378 0.25924 0.0
C1684 C 0.97787 0.38376 0.28265 0.0
C1685 C 0.98894 0.3776 0.30736 0.0
C1686 C 0.94482 0.40464 0.20778 0.0
C1687 C 0.94019 0.37976 0.193 0.0
C1688 C 0.96497 0.40711 0.2279 0.0
C1689 C 0.98096 0.38489 0.23307 0.0
C1690 C 0.97822 0.36097 0.21649 0.0
C1691 C 0.95756 0.35825 0.19676 0.0
H1692 H 0.9781 0.68729 0.58998 0.0
H1693 H 0.93362 0.76158 0.59486 0.0
H1694 H 0.97517 0.6871 0.54105 0.0
H1695 H 0.92979 0.76062 0.54573 0.0
H1696 H 0.90714 0.71004 0.46094 0.0
H1697 H 0.90865 0.72584 0.50749 0.0
H1698 H -0.00116 0.72369 0.50627 0.0
H1699 H -0.00255 0.7092 0.45867 0.0
C1700 C 0.96722 0.70325 0.58068 0.0
C1701 C 0.957 0.72502 0.5961 0.0
C1702 C 0.96588 0.70333 0.55272 0.0
C1703 C 0.95345 0.72463 0.53989 0.0
C1704 C 0.94023 0.74452 0.55534 0.0
C1705 C 0.94215 0.74482 0.58335 0.0
C1706 C 0.92749 0.7154 0.46965 0.0
C1707 C 0.9522 0.70895 0.45597 0.0
C1708 C 0.92827 0.72376 0.49666 0.0
C1709 C 0.95373 0.72518 0.51036 0.0
C1710 C 0.9789 0.7222 0.49595 0.0
C1711 C 0.97815 0.71422 0.46876 0.0
H1712 H 0.58415 0.31108 0.67722 0.0
H1713 H 0.50522 0.34751 0.69096 0.0
H1714 H 0.59562 0.3189 0.72467 0.0
H1715 H 0.51767 0.35675 0.73837 0.0
H1716 H 0.59231 0.39632 0.80231 0.0
H1717 H 0.56649 0.38742 0.76061 0.0
H1718 H 0.56729 0.29977 0.77212 0.0
H1719 H 0.59179 0.3089 0.81495 0.0
C1720 C 0.56934 0.32091 0.69029 0.0
C1721 C 0.54359 0.32827 0.68051 0.0
C1722 C 0.57584 0.32521 0.71743 0.0
C1723 C 0.55715 0.33779 0.73505 0.0
C1724 C 0.53207 0.34653 0.72511 0.0
C1725 C 0.52513 0.34143 0.69807 0.0
C1726 C 0.58484 0.37532 0.79719 0.0
C1727 C 0.59283 0.35339 0.81245 0.0
C1728 C 0.57066 0.37017 0.77298 0.0
C1729 C 0.56503 0.34296 0.76337 0.0
C1730 C 0.57141 0.32093 0.77936 0.0
C1731 C 0.58521 0.32612 0.80381 0.0
H1732 H 0.0573 0.32821 0.97029 0.0
H1733 H 0.96992 0.30203 0.9585 0.0
H1734 H 0.0477 0.34099 0.01667 0.0
H1735 H 0.95906 0.31891 0.00406 0.0
H1736 H 0.94147 0.35151 0.08457 0.0
H1737 H 0.95898 0.31958 0.0506 0.0
H1738 H 0.03088 0.37778 0.0367 0.0
H1739 H 0.01435 0.40803 0.07136 0.0
C1740 C 0.03587 0.32549 0.97774 0.0
C1741 C 0.01427 0.3144 0.961 0.0
C1742 C 0.03024 0.33312 0.00429 0.0
C1743 C 0.00246 0.33178 0.01421 0.0
C1744 C 0.9808 0.31998 -0.00254 0.0
C1745 C 0.9868 0.31078 0.97118 0.0
C1746 C 0.96161 0.35672 0.07493 0.0
C1747 C 0.97621 0.38254 0.07985 0.0
C1748 C 0.97145 0.33867 0.05515 0.0
C1749 C -0.00416 0.34638 0.04 0.0
C1750 C 0.01202 0.37076 0.0476 0.0
C1751 C 0.00241 0.38847 0.06746 0.0
H1752 H 0.02049 0.69852 0.19096 0.0
H1753 H 0.94696 0.74212 0.17561 0.0
H1754 H -0.00162 0.68059 0.23218 0.0
H1755 H 0.92574 0.72579 0.21696 0.0
H1756 H 0.89128 0.69946 0.29376 0.0
H1757 H 0.90705 0.69446 0.24745 0.0
H1758 H 0.99345 0.70493 0.27371 0.0
H1759 H 0.97716 0.7078 0.32064 0.0
C1760 C -0.00064 0.70369 0.19606 0.0
C1761 C 0.98578 0.7224 0.18068 0.0
C1762 C 0.98682 0.69365 0.21972 0.0
C1763 C 0.96084 0.70263 0.2284 0.0
C1764 C 0.94582 0.71841 0.21106 0.0
C1765 C 0.95809 0.72796 0.18724 0.0
C1766 C 0.91368 0.7009 0.28951 0.0
C1767 C 0.9332 0.70526 0.31036 0.0
C1768 C 0.92269 0.69778 0.26304 0.0
C1769 C 0.95147 0.69979 0.25675 0.0
C1770 C 0.97108 0.70304 0.27785 0.0
C1771 C 0.96193 0.70535 0.30462 0.0
H1772 H 0.58578 0.79672 0.47149 0.0
H1773 H 0.6313 0.72966 0.4385 0.0
H1774 H 0.59659 0.78342 0.51691 0.0
H1775 H 0.6415 0.7161 0.48364 0.0
H1776 H 0.65352 0.68745 0.56247 0.0
H1777 H 0.66056 0.72138 0.52734 0.0
H1778 H 0.57519 0.74342 0.53962 0.0
H1779 H 0.56881 0.71008 0.57549 0.0
C1780 C 0.59876 0.77961 0.47385 0.0
C1781 C 0.60698 0.76364 0.4514 0.0
C1782 C 0.60483 0.77197 0.49993 0.0
C1783 C 0.61929 0.74833 0.50395 0.0
C1784 C 0.6303 0.73445 0.48139 0.0
C1785 C 0.62421 0.74204 0.45538 0.0
C1786 C 0.63693 0.70081 0.55878 0.0
C1787 C 0.61093 0.69685 0.57206 0.0
C1788 C 0.64074 0.71987 0.53829 0.0
C1789 C 0.61841 0.73497 0.53049 0.0
C1790 C 0.59303 0.73251 0.54537 0.0
C1791 C 0.58925 0.71335 0.56584 0.0
H1792 H 0.81214 0.51833 0.68299 0.0
H1793 H 0.85095 0.59953 0.70316 0.0
H1794 H 0.76632 0.5382 0.67963 0.0
H1795 H 0.80566 0.6187 0.70067 0.0
H1796 H 0.7239 0.64031 0.72822 0.0
H1797 H 0.75568 0.60355 0.73232 0.0
H1798 H 0.75133 0.58709 0.64665 0.0
H1799 H 0.71982 0.62411 0.64253 0.0
C1800 C 0.81096 0.54032 0.68645 0.0
C1801 C 0.8351 0.55739 0.69349 0.0
C1802 C 0.78481 0.55153 0.68477 0.0
C1803 C 0.78263 0.57973 0.69061 0.0
C1804 C 0.80685 0.59675 0.69671 0.0
C1805 C 0.8328 0.58578 0.69793 0.0
C1806 C 0.72842 0.62773 0.71055 0.0
C1807 C 0.71913 0.63462 0.6851 0.0
C1808 C 0.74655 0.60675 0.71289 0.0
C1809 C 0.75576 0.59262 0.68976 0.0
C1810 C 0.74399 0.59736 0.66476 0.0
C1811 C 0.7258 0.61839 0.66244 0.0
H1812 H 0.70001 0.59467 0.94747 0.0
H1813 H 0.76988 0.57999 -0.00151 0.0
H1814 H 0.69699 0.54594 0.93303 0.0
H1815 H 0.766 0.53144 0.98455 0.0
H1816 H 0.7139 0.45464 0.90887 0.0
H1817 H 0.74178 0.49834 0.91718 0.0
H1818 H 0.7009 0.5071 -0.00537 0.0
H1819 H 0.67241 0.46404 0.98622 0.0
C1820 C 0.71512 0.58132 0.95501 0.0
C1821 C 0.7347 0.591 0.97451 0.0
C1822 C 0.71361 0.55362 0.94655 0.0
C1823 C 0.73139 0.53537 0.95777 0.0
C1824 C 0.75244 0.5454 0.97549 0.0
C1825 C 0.75436 0.57315 0.98354 0.0
C1826 C 0.7119 0.46513 0.92827 0.0
C1827 C 0.69059 0.45639 0.9467 0.0
C1828 C 0.72774 0.49015 0.93286 0.0
C1829 C 0.723 0.50582 0.95631 0.0
C1830 C 0.7048 0.49503 0.97645 0.0
C1831 C 0.68862 0.4704 0.97168 0.0
H1832 H 0.7027 0.5198 0.15372 0.0
H1833 H 0.70476 0.50814 0.23948 0.0
H1834 H 0.74943 0.5026 0.14899 0.0
H1835 H 0.75214 0.49442 0.23565 0.0
H1836 H 0.81846 0.43508 0.21628 0.0
H1837 H 0.77637 0.45848 0.22372 0.0
H1838 H 0.79722 0.50926 0.15473 0.0
H1839 H 0.83829 0.48344 0.14609 0.0
C1840 C 0.71323 0.51346 0.17145 0.0
C1841 C 0.69999 0.51427 0.19675 0.0
C1842 C 0.74022 0.50422 0.16896 0.0
C1843 C 0.75478 0.49689 0.19195 0.0
C1844 C 0.74148 0.49875 0.21731 0.0
C1845 C 0.71419 0.50659 0.21955 0.0
C1846 C 0.81429 0.45151 0.2029 0.0
C1847 C 0.83144 0.45715 0.18025 0.0
C1848 C 0.79011 0.46526 0.2073 0.0
C1849 C 0.7828 0.48556 0.1895 0.0
C1850 C 0.80157 0.49314 0.16838 0.0
C1851 C 0.82555 0.47885 0.1637 0.0
H1852 H 0.81766 0.46496 0.48907 0.0
H1853 H 0.7416 0.50799 0.48828 0.0
H1854 H 0.84483 0.50692 0.47636 0.0
H1855 H 0.76921 0.55032 0.47565 0.0
H1856 H 0.83325 0.60624 0.42115 0.0
H1857 H 0.79978 0.56948 0.4372 0.0
H1858 H 0.85748 0.552 0.49967 0.0
H1859 H 0.89104 0.58822 0.48342 0.0
C1860 C 0.80669 0.48333 0.48612 0.0
C1861 C 0.77748 0.48315 0.4899 0.0
C1862 C 0.82231 0.50745 0.47905 0.0
C1863 C 0.80915 0.53198 0.47565 0.0
C1864 C 0.77983 0.53168 0.47832 0.0
C1865 C 0.76409 0.50744 0.48547 0.0
C1866 C 0.8384 0.59506 0.43879 0.0
C1867 C 0.86491 0.59967 0.45078 0.0
C1868 C 0.81927 0.57402 0.44792 0.0
C1869 C 0.82644 0.55752 0.4692 0.0
C1870 C 0.85181 0.56398 0.48274 0.0
C1871 C 0.87092 0.58479 0.47356 0.0
H1872 H 0.80469 0.56257 0.79268 0.0
H1873 H 0.83255 0.48357 0.76582 0.0
H1874 H 0.76077 0.53939 0.80936 0.0
H1875 H 0.78897 0.46073 0.78252 0.0
H1876 H 0.70068 0.42986 0.78245 0.0
H1877 H 0.73904 0.46145 0.76641 0.0
H1878 H 0.74222 0.50353 0.84424 0.0
H1879 H 0.7032 0.4721 0.86014 0.0
C1880 C 0.80163 0.54029 0.79063 0.0
C1881 C 0.822 0.52493 0.77766 0.0
C1882 C 0.77651 0.52711 0.80015 0.0
C1883 C 0.77128 0.49845 0.79655 0.0
C1884 C 0.79222 0.48299 0.78489 0.0
C1885 C 0.81734 0.49606 0.7756 0.0
C1886 C 0.7089 0.44652 0.79577 0.0
C1887 C 0.69936 0.44848 0.82253 0.0
C1888 C 0.73099 0.46436 0.78673 0.0
C1889 C 0.74407 0.48426 0.8044 0.0
C1890 C 0.73256 0.4882 0.83031 0.0
C1891 C 0.71016 0.47038 0.83933 0.0
H1892 H 0.83893 0.61974 0.06567 0.0
H1893 H 0.75905 0.57177 0.06069 0.0
H1894 H 0.86144 0.57825 0.07796 0.0
H1895 H 0.78191 0.53005 0.07207 0.0
H1896 H 0.86803 0.47635 0.04387 0.0
H1897 H 0.83227 0.50983 0.04002 0.0
H1898 H 0.84835 0.53842 0.1218 0.0
H1899 H 0.88349 0.5047 0.12576 0.0
C1900 C 0.82623 0.6004 0.0675 0.0
C1901 C 0.79737 0.59885 0.06248 0.0
C1902 C 0.83901 0.5768 0.07453 0.0
C1903 C 0.82319 0.55128 0.07596 0.0
C1904 C 0.79429 0.54967 0.07121 0.0
C1905 C 0.78134 0.57346 0.06487 0.0
C1906 C 0.8627 0.48879 0.06138 0.0
C1907 C 0.87771 0.4877 0.08533 0.0
C1908 C 0.84244 0.50789 0.05919 0.0
C1909 C 0.83777 0.52641 0.0807 0.0
C1910 C 0.85154 0.52406 0.10514 0.0
C1911 C 0.87138 0.50473 0.10744 0.0
H1912 H 0.73023 0.56162 0.23676 0.0
H1913 H 0.70586 0.61121 0.30542 0.0
H1914 H 0.77746 0.56048 0.25507 0.0
H1915 H 0.75304 0.60997 0.32382 0.0
H1916 H 0.83089 0.5943 0.36053 0.0
H1917 H 0.7879 0.57271 0.34046 0.0
H1918 H 0.81418 0.60464 0.26304 0.0
H1919 H 0.85667 0.62682 0.28327 0.0
C1920 C 0.73489 0.57178 0.25604 0.0
C1921 C 0.71456 0.5864 0.26986 0.0
C1922 C 0.76179 0.57107 0.26644 0.0
C1923 C 0.76852 0.58458 0.29105 0.0
C1924 C 0.74802 0.59879 0.3051 0.0
C1925 C 0.72127 0.59991 0.29445 0.0
C1926 C 0.82828 0.59519 0.33892 0.0
C1927 C 0.8467 0.61233 0.32337 0.0
C1928 C 0.80359 0.58312 0.32753 0.0
C1929 C 0.79769 0.5876 0.30044 0.0
C1930 C 0.81835 0.60095 0.28399 0.0
C1931 C 0.84271 0.61349 0.29549 0.0
H1932 H 0.69932 0.45337 0.55095 0.0
H1933 H 0.77655 0.47248 0.59453 0.0
H1934 H 0.68646 0.50024 0.5592 0.0
H1935 H 0.76271 0.51953 0.60383 0.0
H1936 H 0.68799 0.57895 0.63683 0.0
H1937 H 0.71454 0.53831 0.62942 0.0
H1938 H 0.71265 0.54992 0.54353 0.0
H1939 H 0.6865 0.59114 0.5511 0.0
C1940 C 0.71342 0.46746 0.56253 0.0
C1941 C 0.73915 0.45946 0.5717 0.0
C1942 C 0.70616 0.49431 0.567 0.0
C1943 C 0.72411 0.51336 0.58136 0.0
C1944 C 0.74898 0.50509 0.59218 0.0
C1945 C 0.75665 0.47825 0.5871 0.0
C1946 C 0.69453 0.57353 0.61651 0.0
C1947 C 0.68584 0.58806 0.5945 0.0
C1948 C 0.70954 0.55035 0.61231 0.0
C1949 C 0.71547 0.54132 0.58599 0.0
C1950 C 0.7082 0.5568 0.56399 0.0
C1951 C 0.69326 0.5801 0.56824 0.0
H1952 H 0.78519 0.85173 0.57579 0.0
H1953 H 0.72318 0.86133 0.51504 0.0
H1954 H 0.76824 0.80332 0.58009 0.0
H1955 H 0.70543 0.81269 0.51982 0.0
H1956 H 0.66875 0.74508 0.5868 0.0
H1957 H 0.68249 0.78664 0.56213 0.0
H1958 H 0.76539 0.75851 0.54941 0.0
H1959 H 0.75136 0.71653 0.57401 0.0
C1960 C 0.76763 0.8434 0.5637 0.0
C1961 C 0.75503 0.85988 0.5455 0.0
C1962 C 0.75832 0.81572 0.5657 0.0
C1963 C 0.73604 0.80431 0.54975 0.0
C1964 C 0.72295 0.82106 0.53192 0.0
C1965 C 0.73278 0.84871 0.52946 0.0
C1966 C 0.68926 0.74689 0.5771 0.0
C1967 C 0.70895 0.72761 0.58179 0.0
C1968 C 0.69717 0.77076 0.56315 0.0
C1969 C 0.72505 0.77575 0.55435 0.0
C1970 C 0.7438 0.75498 0.55628 0.0
C1971 C 0.73583 0.73104 0.57019 0.0
H1972 H 0.19857 0.70704 0.45728 0.0
H1973 H 0.19424 0.75033 0.53451 0.0
H1974 H 0.19202 0.74978 0.43477 0.0
H1975 H 0.18804 0.79326 0.51151 0.0
H1976 H 0.1536 0.84694 0.43228 0.0
H1977 H 0.1554 0.81612 0.47023 0.0
H1978 H 0.23543 0.79151 0.44074 0.0
H1979 H 0.23247 0.82068 0.40199 0.0
C1980 C 0.19528 0.72536 0.46951 0.0
C1981 C 0.19814 0.72554 0.49758 0.0
C1982 C 0.19182 0.74985 0.45662 0.0
C1983 C 0.19102 0.7747 0.47162 0.0
C1984 C 0.18945 0.7743 0.49973 0.0
C1985 C 0.19282 0.74967 0.51274 0.0
C1986 C 0.17176 0.83549 0.43434 0.0
C1987 C 0.19168 0.83429 0.41337 0.0
C1988 C 0.17297 0.81815 0.45618 0.0
C1989 C 0.19484 0.80064 0.45726 0.0
C1990 C 0.21787 0.80429 0.43951 0.0
C1991 C 0.21621 0.82097 0.41743 0.0
H1992 H 0.58537 0.99099 0.77814 0.0
H1993 H 0.61731 0.02375 0.70262 0.0
H1994 H 0.54033 0.97669 0.75649 0.0
H1995 H 0.57277 0.01041 0.68164 0.0
H1996 H 0.50777 0.95643 0.64181 0.0
H1997 H 0.54909 0.96466 0.66964 0.0
H1998 H 0.4985 -0.00117 0.73327 0.0
H1999 H 0.4563 0.98958 0.70512 0.0
C2000 C 0.58277 -0.00486 0.75703 0.0
C2001 C 0.6049 0.00823 0.74197 0.0
C2002 C 0.55702 0.98718 0.74478 0.0
C2003 C 0.55325 0.99223 0.71739 0.0
C2004 C 0.57528 0.00577 0.70266 0.0
C2005 C 0.60081 0.01349 0.71474 0.0
C2006 C 0.50544 0.96545 0.66187 0.0
C2007 C 0.47928 0.97305 0.67127 0.0
C2008 C 0.52902 0.97015 0.67776 0.0
C2009 C 0.52704 0.98296 0.7033 0.0
C2010 C 0.50048 0.98902 0.71356 0.0
C2011 C 0.47652 0.98395 0.69754 0.0
H2012 H 0.31208 0.3557 0.95042 0.0
H2013 H 0.36877 0.35062 0.01696 0.0
H2014 H 0.3186 0.30818 0.93752 0.0
H2015 H 0.37586 0.30243 0.00333 0.0
H2016 H 0.40003 0.24275 0.92207 0.0
H2017 H 0.39629 0.27925 0.95637 0.0
H2018 H 0.30661 0.26011 0.96059 0.0
H2019 H 0.31039 0.22384 0.92605 0.0
C2020 C 0.32624 0.34454 0.96213 0.0
C2021 C 0.34003 0.35699 0.98461 0.0
C2022 C 0.32961 0.31712 0.955 0.0
C2023 C 0.34713 0.30147 0.9699 0.0
C2024 C 0.36185 0.31401 0.99185 0.0
C2025 C 0.35801 0.34155 -0.00059 0.0
C2026 C 0.37984 0.24499 0.93173 0.0
C2027 C 0.35545 0.23073 0.9214 0.0
C2028 C 0.37767 0.26608 0.95126 0.0
C2029 C 0.35106 0.27291 0.96041 0.0
C2030 C 0.3273 0.25542 0.95344 0.0
C2031 C 0.32945 0.2346 0.9338 0.0
H2032 H 0.48441 0.53809 0.76847 0.0
H2033 H 0.4515 0.59599 0.71464 0.0
H2034 H 0.53169 0.55975 0.76151 0.0
H2035 H 0.49876 0.61781 0.70817 0.0
H2036 H 0.58346 0.65693 0.7022 0.0
H2037 H 0.54425 0.64268 0.73238 0.0
H2038 H 0.55624 0.55717 0.71283 0.0
H2039 H 0.59459 0.5715 0.68205 0.0
C2040 C 0.48711 0.55593 0.75577 0.0
C2041 C 0.46431 0.56512 0.7417 0.0
C2042 C 0.51416 0.56832 0.75195 0.0
C2043 C 0.51871 0.59044 0.73447 0.0
C2044 C 0.49566 0.60101 0.72209 0.0
C2045 C 0.46869 0.58832 0.72552 0.0
C2046 C 0.57857 0.63513 0.70552 0.0
C2047 C 0.59176 0.6152 0.69 0.0
C2048 C 0.55613 0.62701 0.72261 0.0
C2049 C 0.54724 0.59891 0.72467 0.0
C2050 C 0.56289 0.57896 0.71174 0.0
C2051 C 0.5848 0.58709 0.69417 0.0
H2052 H 0.79184 0.25703 0.9807 0.0
H2053 H 0.79691 0.22582 0.0611 0.0
H2054 H 0.80873 0.30326 -0.00257 0.0
H2055 H 0.8138 0.27208 0.0776 0.0
H2056 H 0.88723 0.34852 0.0677 0.0
H2057 H 0.86708 0.31021 0.03916 0.0
H2058 H 0.78367 0.33076 0.0623 0.0
H2059 H 0.8038 0.36878 0.09122 0.0
C2060 C 0.79652 0.26008 0.00191 0.0
C2061 C 0.79335 0.2379 0.01966 0.0
C2062 C 0.80607 0.28643 0.01135 0.0
C2063 C 0.81253 0.2908 0.03859 0.0
C2064 C 0.80879 0.26888 0.05646 0.0
C2065 C 0.79914 0.24258 0.04708 0.0
C2066 C 0.86463 0.3458 0.06541 0.0
C2067 C 0.84692 0.36158 0.08122 0.0
C2068 C 0.85317 0.32385 0.04933 0.0
C2069 C 0.82398 0.31786 0.04879 0.0
C2070 C 0.80624 0.33533 0.06246 0.0
C2071 C 0.81769 0.35708 0.07874 0.0
H2072 H 0.61788 0.09015 0.81845 0.0
H2073 H 0.57977 0.10904 0.74319 0.0
H2074 H 0.57693 0.1037 0.84278 0.0
H2075 H 0.53876 0.12382 0.76802 0.0
H2076 H 0.45759 0.10373 0.82193 0.0
H2077 H 0.49961 0.10049 0.79295 0.0
H2078 H 0.55075 0.14093 0.85594 0.0
H2079 H 0.50957 0.14249 0.88479 0.0
C2080 C 0.6011 0.09795 0.8071 0.0
C2081 C 0.60199 0.09817 0.77884 0.0
C2082 C 0.57755 0.10587 0.82111 0.0
C2083 C 0.55449 0.11467 0.80727 0.0
C2084 C 0.55604 0.11664 0.77913 0.0
C2085 C 0.57962 0.10843 0.76499 0.0
C2086 C 0.47795 0.11176 0.82927 0.0
C2087 C 0.48088 0.12244 0.85561 0.0
C2088 C 0.50185 0.11029 0.81274 0.0
C2089 C 0.52855 0.12002 0.82243 0.0
C2090 C 0.5307 0.13251 0.84818 0.0
C2091 C 0.50717 0.13339 0.86468 0.0
H2092 H 0.97766 0.95846 0.2483 0.0
H2093 H 0.95443 0.96905 0.33228 0.0
H2094 H 0.02603 0.9511 0.26157 0.0
H2095 H 0.00206 0.96185 0.34514 0.0
H2096 H 0.07962 0.98823 0.3664 0.0
H2097 H 0.05003 -0.00234 0.32873 0.0
H2098 H 0.04939 0.91243 0.3019 0.0
H2099 H 0.08119 0.90374 0.33871 0.0
C2100 C 0.98272 0.95867 0.26951 0.0
C2101 C 0.96244 0.96465 0.28933 0.0
C2102 C 0.01032 0.9547 0.27696 0.0
C2103 C 0.01765 0.95688 0.30419 0.0
C2104 C -0.0031 0.96089 0.32391 0.0
C2105 C 0.9696 0.96477 0.31658 0.0
C2106 C 0.07459 0.97194 0.3515 0.0
C2107 C 0.08095 0.94478 0.356 0.0
C2108 C 0.05788 0.97737 0.32984 0.0
C2109 C 0.04658 0.95541 0.3134 0.0
C2110 C 0.05754 0.92952 0.31471 0.0
C2111 C 0.07527 0.9244 0.33591 0.0
H2112 H 0.48766 0.26248 0.22957 0.0
H2113 H 0.50577 0.3479 0.20891 0.0
H2114 H 0.47205 0.27652 0.27414 0.0
H2115 H 0.48881 0.36221 0.25367 0.0
H2116 H 0.46347 0.38113 0.33882 0.0
H2117 H 0.49364 0.36251 0.3036 0.0
H2118 H 0.42923 0.29712 0.28641 0.0
H2119 H 0.3996 0.31529 0.32157 0.0
C2120 C 0.4884 0.28435 0.23464 0.0
C2121 C 0.49733 0.30421 0.21564 0.0
C2122 C 0.47949 0.29235 0.26022 0.0
C2123 C 0.47881 0.32042 0.26726 0.0
C2124 C 0.48932 0.34037 0.24884 0.0
C2125 C 0.49874 0.33228 0.22318 0.0
C2126 C 0.45623 0.36227 0.32806 0.0
C2127 C 0.42905 0.34987 0.33253 0.0
C2128 C 0.47336 0.35181 0.30776 0.0
C2129 C 0.46362 0.32868 0.29199 0.0
C2130 C 0.43745 0.31493 0.29825 0.0
C2131 C 0.42035 0.32542 0.31832 0.0
H2132 H 0.55982 0.75635 0.9442 0.0
H2133 H 0.48794 0.8037 0.93369 0.0
H2134 H 0.53959 0.73854 0.98583 0.0
H2135 H 0.46779 0.78626 0.9762 0.0
H2136 H 0.43327 0.72199 0.04114 0.0
H2137 H 0.44846 0.74517 -0.00023 0.0
H2138 H 0.53291 0.75716 0.03057 0.0
H2139 H 0.51762 0.73315 0.07148 0.0
C2140 C 0.53948 0.76274 0.95068 0.0
C2141 C 0.52562 0.78167 0.93581 0.0
C2142 C 0.52807 0.75285 0.97479 0.0
C2143 C 0.50256 0.76175 0.98484 0.0
C2144 C 0.48763 0.77922 0.9691 0.0
C2145 C 0.49904 0.78902 0.94467 0.0
C2146 C 0.45477 0.73071 0.03945 0.0
C2147 C 0.47424 0.72638 0.05954 0.0
C2148 C 0.46354 0.74373 0.01567 0.0
C2149 C 0.492 0.75249 0.01165 0.0
C2150 C 0.51097 0.74998 0.03277 0.0
C2151 C 0.50224 0.73665 0.05635 0.0
H2152 H 0.06589 0.74243 0.70526 0.0
H2153 H 0.01869 0.66293 0.70714 0.0
H2154 H 0.07583 0.73979 0.75245 0.0
H2155 H 0.02812 0.66044 0.75542 0.0
H2156 H 0.10207 0.65463 0.81824 0.0
H2157 H 0.06736 0.65382 0.78283 0.0
H2158 H 0.0594 0.74109 0.79727 0.0
H2159 H 0.09585 0.7418 0.83123 0.0
C2160 C 0.05753 0.72433 0.71586 0.0
C2161 C 0.04192 0.70268 0.70235 0.0
C2162 C 0.0627 0.72305 0.74323 0.0
C2163 C 0.05226 0.70013 0.75807 0.0
C2164 C 0.03643 0.67842 0.74462 0.0
C2165 C 0.03134 0.67966 0.71694 0.0
C2166 C 0.0916 0.67313 0.81484 0.0
C2167 C 0.10189 0.69825 0.82671 0.0
C2168 C 0.07175 0.67281 0.79442 0.0
C2169 C 0.06178 0.69774 0.78622 0.0
C2170 C 0.06777 0.72178 0.80228 0.0
C2171 C 0.08831 0.72219 0.82201 0.0
H2172 H 0.0262 0.34897 0.4416 0.0
H2173 H 0.11585 0.35621 0.4288 0.0
H2174 H 0.03206 0.33248 0.48595 0.0
H2175 H 0.12269 0.34463 0.47512 0.0
H2176 H 0.13712 0.34016 0.5565 0.0
H2177 H 0.12576 0.32272 0.51195 0.0
H2178 H 0.03854 0.33774 0.5278 0.0
H2179 H 0.0499 0.35084 0.57324 0.0
C2180 C 0.04738 0.34804 0.44887 0.0
C2181 C 0.07062 0.35401 0.43191 0.0
C2182 C 0.05091 0.33855 0.47468 0.0
C2183 C 0.07797 0.33706 0.48528 0.0
C2184 C 0.10132 0.34426 0.46824 0.0
C2185 C 0.09762 0.35189 0.44168 0.0
C2186 C 0.11527 0.33744 0.55117 0.0
C2187 C 0.09456 0.34785 0.56798 0.0
C2188 C 0.10874 0.32875 0.52486 0.0
C2189 C 0.08183 0.3321 0.51467 0.0
C2190 C 0.06007 0.33645 0.53356 0.0
C2191 C 0.06645 0.34381 0.56019 0.0
H2192 H 0.47981 0.78415 0.3353 0.0
H2193 H 0.55341 0.73778 0.3287 0.0
H2194 H 0.4675 0.77053 0.28902 0.0
H2195 H 0.54116 0.72464 0.28177 0.0
H2196 H 0.50488 0.76088 0.18976 0.0
H2197 H 0.52658 0.76634 0.23473 0.0
H2198 H 0.46056 0.71086 0.26731 0.0
H2199 H 0.43963 0.70475 0.22273 0.0
C2200 C 0.49334 0.771 0.32397 0.0
C2201 C 0.5175 0.76192 0.33563 0.0
C2202 C 0.48634 0.76335 0.29751 0.0
C2203 C 0.50358 0.74684 0.28199 0.0
C2204 C 0.52774 0.73758 0.29345 0.0
C2205 C 0.53455 0.74489 0.32026 0.0
C2206 C 0.49576 0.74918 0.20641 0.0
C2207 C 0.47084 0.73227 0.203 0.0
C2208 C 0.50808 0.75224 0.23197 0.0
C2209 C 0.49516 0.73887 0.25422 0.0
C2210 C 0.47103 0.72101 0.25035 0.0
C2211 C 0.45913 0.71756 0.22492 0.0
H2212 H 0.06818 0.7146 0.07294 0.0
H2213 H 0.01181 0.77103 0.04135 0.0
H2214 H 0.07303 0.69368 0.02782 0.0
H2215 H 0.01744 0.75047 -0.00394 0.0
H2216 H 0.09542 0.71933 0.92937 0.0
H2217 H 0.07516 0.74427 0.96754 0.0
H2218 H 0.02683 0.66979 0.99057 0.0
H2219 H 0.04604 0.64494 0.95224 0.0
C2220 C 0.05707 0.72262 0.05634 0.0
C2221 C 0.03984 0.74447 0.06047 0.0
C2222 C 0.05964 0.71058 0.03071 0.0
C2223 C 0.04549 0.72062 0.00886 0.0
C2224 C 0.02838 0.74251 0.01282 0.0
C2225 C 0.02527 0.75417 0.03859 0.0
C2226 C 0.07956 0.70857 0.94185 0.0
C2227 C 0.07301 0.68001 0.93834 0.0
C2228 C 0.06802 0.72284 0.96361 0.0
C2229 C 0.05 0.7086 0.98193 0.0
C2230 C 0.04087 0.68097 0.97662 0.0
C2231 C 0.05199 0.66684 0.95472 0.0
H2232 H 0.06612 0.34486 0.84011 0.0
H2233 H 0.13692 0.29641 0.82336 0.0
H2234 H 0.07726 0.37141 0.79965 0.0
H2235 H 0.14844 0.32349 0.78348 0.0
H2236 H 0.16856 0.38078 0.71843 0.0
H2237 H 0.15918 0.37625 0.76656 0.0
H2238 H 0.07441 0.34356 0.74944 0.0
H2239 H 0.08397 0.34807 0.7008 0.0
C2240 C 0.08475 0.34072 0.82843 0.0
C2241 C 0.10058 0.31848 0.83445 0.0
C2242 C 0.09094 0.3558 0.80535 0.0
C2243 C 0.11346 0.34919 0.78869 0.0
C2244 C 0.13102 0.32892 0.7963 0.0
C2245 C 0.12444 0.31342 0.81895 0.0
C2246 C 0.14771 0.37327 0.72507 0.0
C2247 C 0.12704 0.36409 0.70636 0.0
C2248 C 0.14237 0.37095 0.75245 0.0
C2249 C 0.11622 0.35957 0.76136 0.0
C2250 C 0.09465 0.3527 0.74275 0.0
C2251 C 0.10009 0.35494 0.71514 0.0
H2252 H 0.50093 0.35557 0.55945 0.0
H2253 H 0.45606 0.27486 0.55395 0.0
H2254 H 0.48494 0.36579 0.51496 0.0
H2255 H 0.43958 0.28558 0.50873 0.0
H2256 H 0.404 0.37279 0.45844 0.0
H2257 H 0.41003 0.33688 0.49091 0.0
H2258 H 0.49656 0.33425 0.46561 0.0
H2259 H 0.49068 0.37046 0.43362 0.0
C2260 C 0.48736 0.3401 0.54885 0.0
C2261 C 0.47986 0.31439 0.56011 0.0
C2262 C 0.47842 0.34587 0.5233 0.0
C2263 C 0.46172 0.32613 0.50835 0.0
C2264 C 0.45281 0.30087 0.51991 0.0
C2265 C 0.46198 0.29494 0.54574 0.0
C2266 C 0.42367 0.36309 0.45843 0.0
C2267 C 0.44705 0.37452 0.44401 0.0
C2268 C 0.42712 0.34253 0.47705 0.0
C2269 C 0.45391 0.33344 0.48103 0.0
C2270 C 0.47574 0.34111 0.46285 0.0
C2271 C 0.47242 0.36187 0.4446 0.0
H2272 H 0.2402 0.56747 0.32555 0.0
H2273 H 0.20916 0.48239 0.31236 0.0
H2274 H 0.2864 0.55219 0.33791 0.0
H2275 H 0.25459 0.46738 0.3248 0.0
H2276 H 0.33653 0.45153 0.29812 0.0
H2277 H 0.30557 0.48842 0.29204 0.0
H2278 H 0.30332 0.50387 0.37798 0.0
H2279 H 0.33501 0.46718 0.384 0.0
C2280 C 0.24293 0.54558 0.32639 0.0
C2281 C 0.22124 0.52599 0.31821 0.0
C2282 C 0.26931 0.53695 0.33315 0.0
C2283 C 0.27385 0.50874 0.33185 0.0
C2284 C 0.25149 0.48928 0.32566 0.0
C2285 C 0.2255 0.49781 0.31877 0.0
C2286 C 0.33093 0.46403 0.31552 0.0
C2287 C 0.33769 0.45646 0.34154 0.0
C2288 C 0.31327 0.48514 0.31205 0.0
C2289 C 0.30184 0.49849 0.33462 0.0
C2290 C 0.31204 0.49386 0.36034 0.0
C2291 C 0.33019 0.47293 0.36377 0.0
H2292 H 0.30384 0.48648 0.06987 0.0
H2293 H 0.36897 0.49742 0.00904 0.0
H2294 H 0.30633 0.53613 0.07856 0.0
H2295 H 0.37327 0.54658 0.01912 0.0
H2296 H 0.37969 0.63289 0.0315 0.0
H2297 H 0.35574 0.58919 0.01649 0.0
H2298 H 0.3338 0.57097 0.09938 0.0
H2299 H 0.35564 0.61553 0.11367 0.0
C2300 C 0.31891 0.49946 0.05854 0.0
C2301 C 0.33619 0.48802 0.03873 0.0
C2302 C 0.32038 0.52802 0.06354 0.0
C2303 C 0.33979 0.54573 0.04942 0.0
C2304 C 0.35734 0.53401 0.02987 0.0
C2305 C 0.35534 0.50561 0.02442 0.0
C2306 C 0.36813 0.6202 0.04617 0.0
C2307 C 0.36967 0.62729 0.0737 0.0
C2308 C 0.355 0.59482 0.03773 0.0
C2309 C 0.34418 0.57574 0.05684 0.0
C2310 C 0.34212 0.58477 0.08397 0.0
C2311 C 0.3545 0.61056 0.09226 0.0
H2312 H 0.35927 0.59176 0.79332 0.0
H2313 H 0.31213 0.51297 0.80143 0.0
H2314 H 0.32049 0.61482 0.81474 0.0
H2315 H 0.27295 0.53613 0.82205 0.0
H2316 H 0.21906 0.62332 0.79281 0.0
H2317 H 0.25802 0.594 0.78385 0.0
H2318 H 0.27492 0.59319 0.86897 0.0
H2319 H 0.23583 0.62226 0.87804 0.0
C2320 C 0.34098 0.57939 0.80056 0.0
C2321 C 0.33838 0.55077 0.79584 0.0
C2322 C 0.31893 0.59248 0.81265 0.0
C2323 C 0.29407 0.57704 0.81974 0.0
C2324 C 0.29219 0.5482 0.81681 0.0
C2325 C 0.31447 0.53505 0.80504 0.0
C2326 C 0.23091 0.61654 0.80953 0.0
C2327 C 0.22454 0.62467 0.83605 0.0
C2328 C 0.25293 0.59981 0.80448 0.0
C2329 C 0.26897 0.5915 0.82585 0.0
C2330 C 0.26239 0.59919 0.85239 0.0
C2331 C 0.24011 0.6156 0.85748 0.0
H2332 H 0.23876 0.58816 0.49381 0.0
H2333 H 0.23117 0.59658 0.58063 0.0
H2334 H 0.22952 0.5384 0.49663 0.0
H2335 H 0.2218 0.54667 0.58323 0.0
H2336 H 0.21735 0.45866 0.58752 0.0
H2337 H 0.2439 0.5011 0.57426 0.0
H2338 H 0.18544 0.50996 0.51001 0.0
H2339 H 0.15895 0.46757 0.52315 0.0
C2340 C 0.23525 0.57945 0.51355 0.0
C2341 C 0.23548 0.59643 0.53709 0.0
C2342 C 0.23015 0.55091 0.51506 0.0
C2343 C 0.2254 0.53873 0.54012 0.0
C2344 C 0.22612 0.55554 0.56367 0.0
C2345 C 0.23109 0.58414 0.56218 0.0
C2346 C 0.21095 0.46891 0.56975 0.0
C2347 C 0.1856 0.46045 0.55688 0.0
C2348 C 0.22601 0.49333 0.56235 0.0
C2349 C 0.21607 0.50917 0.54179 0.0
C2350 C 0.19337 0.49827 0.52615 0.0
C2351 C 0.17818 0.47401 0.53369 0.0
H2352 H 0.24916 0.56887 0.26644 0.0
H2353 H 0.22769 0.6056 0.19176 0.0
H2354 H 0.29803 0.58718 0.2607 0.0
H2355 H 0.27672 0.62366 0.18615 0.0
H2356 H 0.35333 0.68145 0.23465 0.0
H2357 H 0.31285 0.65182 0.24955 0.0
H2358 H 0.33171 0.59023 0.1892 0.0
H2359 H 0.37247 0.61953 0.17417 0.0
C2360 C 0.25489 0.58083 0.24881 0.0
C2361 C 0.23466 0.58603 0.22955 0.0
C2362 C 0.28278 0.59104 0.24555 0.0
C2363 C 0.29074 0.60639 0.22294 0.0
C2364 C 0.27078 0.61135 0.20351 0.0
C2365 C 0.24288 0.60114 0.20673 0.0
C2366 C 0.34959 0.66113 0.22523 0.0
C2367 C 0.36549 0.65315 0.20265 0.0
C2368 C 0.3265 0.64423 0.23385 0.0
C2369 C 0.31929 0.61922 0.22009 0.0
C2370 C 0.33709 0.60964 0.19985 0.0
C2371 C 0.36036 0.62641 0.19135 0.0
H2372 H 0.29574 0.50145 0.97348 0.0
H2373 H 0.21394 0.47391 0.00482 0.0
H2374 H 0.27628 0.54287 0.95595 0.0
H2375 H 0.19446 0.51452 0.98709 0.0
H2376 H 0.17221 0.59821 0.98927 0.0
H2377 H 0.20336 0.56415 0.00362 0.0
H2378 H 0.23839 0.55936 0.92308 0.0
H2379 H 0.20727 0.59397 0.90886 0.0
C2380 C 0.27343 0.50379 0.97563 0.0
C2381 C 0.25614 0.48465 0.99027 0.0
C2382 C 0.26242 0.52754 0.96594 0.0
C2383 C 0.23413 0.53223 0.97098 0.0
C2384 C 0.21656 0.51182 0.9837 0.0
C2385 C 0.22752 0.4884 -0.00654 0.0
C2386 C 0.18757 0.59092 0.97502 0.0
C2387 C 0.18738 0.5985 0.948 0.0
C2388 C 0.20511 0.57118 0.98308 0.0
C2389 C 0.22245 0.55846 0.96415 0.0
C2390 C 0.22499 0.56869 0.93796 0.0
C2391 C 0.20747 0.58873 0.92992 0.0
H2392 H 0.34826 0.4838 0.69598 0.0
H2393 H 0.32313 0.47129 0.77876 0.0
H2394 H 0.29969 0.48598 0.68363 0.0
H2395 H 0.27483 0.47732 0.76761 0.0
H2396 H 0.19547 0.43634 0.72862 0.0
H2397 H 0.23683 0.45609 0.75065 0.0
H2398 H 0.25851 0.5044 0.68011 0.0
H2399 H 0.21792 0.48172 0.6571 0.0
C2400 C 0.33215 0.48175 0.71155 0.0
C2401 C 0.33921 0.47686 0.73814 0.0
C2402 C 0.30421 0.48384 0.70471 0.0
C2403 C 0.2827 0.48215 0.72456 0.0
C2404 C 0.29025 0.47807 0.75144 0.0
C2405 C 0.31805 0.47461 0.75796 0.0
C2406 C 0.20852 0.4521 0.71827 0.0
C2407 C 0.20463 0.45645 0.69082 0.0
C2408 C 0.2326 0.46356 0.73092 0.0
C2409 C 0.2526 0.48027 0.7164 0.0
C2410 C 0.24477 0.48985 0.69116 0.0
C2411 C 0.22103 0.47753 0.67814 0.0
H2412 H 0.34172 0.63177 0.48001 0.0
H2413 H 0.26986 0.60355 0.43197 0.0
H2414 H 0.36299 0.58962 0.47005 0.0
H2415 H 0.29269 0.56113 0.41976 0.0
H2416 H 0.32808 0.47521 0.43616 0.0
H2417 H 0.30437 0.51849 0.43899 0.0
H2418 H 0.38554 0.56477 0.43856 0.0
H2419 H 0.40845 0.52243 0.43821 0.0
C2420 C 0.33085 0.61684 0.46643 0.0
C2421 C 0.30404 0.62095 0.4569 0.0
C2422 C 0.34324 0.59251 0.46048 0.0
C2423 C 0.32971 0.57177 0.44395 0.0
C2424 C 0.30352 0.57651 0.43288 0.0
C2425 C 0.29069 0.60096 0.43941 0.0
C2426 C 0.34057 0.49478 0.43732 0.0
C2427 C 0.37 0.49551 0.43816 0.0
C2428 C 0.3271 0.51954 0.43844 0.0
C2429 C 0.34302 0.54525 0.43962 0.0
C2430 C 0.37245 0.54555 0.43887 0.0
C2431 C 0.38568 0.52115 0.43874 0.0
H2432 H 0.2629 0.22096 0.43324 0.0
H2433 H 0.31461 0.21364 0.50315 0.0
H2434 H 0.29047 0.2638 0.42198 0.0
H2435 H 0.34159 0.25688 0.49202 0.0
H2436 H 0.31284 0.35774 0.4579 0.0
H2437 H 0.29951 0.3116 0.47551 0.0
H2438 H 0.36347 0.27726 0.42556 0.0
H2439 H 0.37749 0.32333 0.40882 0.0
C2440 C 0.28044 0.22819 0.44585 0.0
C2441 C 0.28647 0.21412 0.46914 0.0
C2442 C 0.29608 0.25262 0.43947 0.0
C2443 C 0.31767 0.26344 0.45644 0.0
C2444 C 0.32494 0.24869 0.47878 0.0
C2445 C 0.30961 0.22395 0.48494 0.0
C2446 C 0.32483 0.34052 0.45179 0.0
C2447 C 0.3463 0.34383 0.43241 0.0
C2448 C 0.3172 0.31428 0.46166 0.0
C2449 C 0.3306 0.29126 0.45173 0.0
C2450 C 0.35327 0.2949 0.43371 0.0
C2451 C 0.36127 0.32116 0.42429 0.0
H2452 H 0.83778 0.35053 0.51637 0.0
H2453 H 0.77365 0.32902 0.57611 0.0
H2454 H 0.85837 0.30659 0.52338 0.0
H2455 H 0.79412 0.28623 0.58353 0.0
H2456 H 0.82561 0.21666 0.60516 0.0
H2457 H 0.8056 0.2415 0.56887 0.0
H2458 H 0.88433 0.29102 0.56032 0.0
H2459 H 0.90455 0.26476 0.59512 0.0
C2460 C 0.82814 0.33643 0.53095 0.0
C2461 C 0.80451 0.34334 0.54612 0.0
C2462 C 0.83969 0.31122 0.53472 0.0
C2463 C 0.82776 0.29268 0.55375 0.0
C2464 C 0.8035 0.29944 0.5681 0.0
C2465 C 0.79202 0.32438 0.56427 0.0
C2466 C 0.83897 0.23171 0.59424 0.0
C2467 C 0.86617 0.23955 0.603 0.0
C2468 C 0.82758 0.24605 0.57363 0.0
C2469 C 0.84292 0.26923 0.56289 0.0
C2470 C 0.87173 0.27364 0.56848 0.0
C2471 C 0.88334 0.25873 0.58855 0.0
H2472 H 0.47574 0.01314 0.25087 0.0
H2473 H 0.43549 0.06766 0.30687 0.0
H2474 H 0.52087 0.02476 0.27317 0.0
H2475 H 0.48024 0.07866 0.32944 0.0
H2476 H 0.56568 0.12492 0.33164 0.0
H2477 H 0.52344 0.1064 0.30845 0.0
H2478 H 0.5459 0.02332 0.32131 0.0
H2479 H 0.5881 0.04214 0.34556 0.0
C2480 C 0.4765 0.02716 0.26826 0.0
C2481 C 0.45246 0.04011 0.27688 0.0
C2482 C 0.5022 0.03369 0.28098 0.0
C2483 C 0.50396 0.05302 0.30254 0.0
C2484 C 0.47945 0.06427 0.31234 0.0
C2485 C 0.45394 0.05803 0.29949 0.0
C2486 C 0.56213 0.10274 0.32861 0.0
C2487 C 0.58017 0.08487 0.33982 0.0
C2488 C 0.53779 0.09215 0.31578 0.0
C2489 C 0.53136 0.0635 0.31351 0.0
C2490 C 0.55046 0.0455 0.32298 0.0
C2491 C 0.57457 0.05618 0.33654 0.0
H2492 H 0.68845 0.70991 0.06061 0.0
H2493 H 0.77619 0.73067 0.04312 0.0
H2494 H 0.68056 0.75905 0.06259 0.0
H2495 H 0.7679 0.77859 0.0406 0.0
H2496 H 0.75757 0.85272 0.09706 0.0
H2497 H 0.76513 0.81219 0.0703 0.0
H2498 H 0.6766 0.80327 0.05049 0.0
H2499 H 0.66943 0.84337 0.07967 0.0
C2500 C 0.7058 0.72499 0.05655 0.0
C2501 C 0.73297 0.71667 0.05256 0.0
C2502 C 0.70132 0.7532 0.05708 0.0
C2503 C 0.7238 0.77334 0.0524 0.0
C2504 C 0.75031 0.76428 0.04583 0.0
C2505 C 0.75505 0.73656 0.04705 0.0
C2506 C 0.74006 0.84286 0.08584 0.0
C2507 C 0.71282 0.85052 0.09072 0.0
C2508 C 0.74422 0.81927 0.07032 0.0
C2509 C 0.72111 0.80315 0.05917 0.0
C2510 C 0.69469 0.81421 0.05985 0.0
C2511 C 0.69058 0.83774 0.0758 0.0
H2512 H 0.57528 0.51284 0.2533 0.0
H2513 H 0.56952 0.58134 0.30995 0.0
H2514 H 0.53269 0.49034 0.27201 0.0
H2515 H 0.528 0.55777 0.33042 0.0
H2516 H 0.44611 0.51883 0.35664 0.0
H2517 H 0.48074 0.54339 0.32743 0.0
H2518 H 0.5174 0.46613 0.30875 0.0
H2519 H 0.48156 0.44193 0.33618 0.0
C2520 C 0.56521 0.5228 0.27023 0.0
C2521 C 0.5759 0.54868 0.28043 0.0
C2522 C 0.54071 0.50988 0.28099 0.0
C2523 C 0.52681 0.52205 0.30288 0.0
C2524 C 0.53768 0.54795 0.3132 0.0
C2525 C 0.56178 0.56131 0.30182 0.0
C2526 C 0.46089 0.5072 0.34514 0.0
C2527 C 0.46116 0.47863 0.34801 0.0
C2528 C 0.48107 0.52122 0.32889 0.0
C2529 C 0.50231 0.5069 0.31605 0.0
C2530 C 0.50127 0.47794 0.31786 0.0
C2531 C 0.48071 0.46394 0.33354 0.0
H2532 H 0.25961 0.86904 0.96023 0.0
H2533 H 0.25644 0.82266 0.03319 0.0
H2534 H 0.2454 0.82694 0.93418 0.0
H2535 H 0.24183 0.78021 0.00718 0.0
H2536 H 0.23412 0.70779 0.93968 0.0
H2537 H 0.25544 0.74611 0.96821 0.0
H2538 H 0.19812 0.80083 0.93543 0.0
H2539 H 0.17751 0.76318 0.90721 0.0
C2540 C 0.25599 0.84968 0.97054 0.0
C2541 C 0.25834 0.84885 -0.00146 0.0
C2542 C 0.24792 0.82567 0.95576 0.0
C2543 C 0.24204 0.80047 0.96881 0.0
C2544 C 0.24616 0.79938 -0.00329 0.0
C2545 C 0.25419 0.82356 0.01155 0.0
C2546 C 0.22588 0.72795 0.93921 0.0
C2547 C 0.2042 0.73277 0.92155 0.0
C2548 C 0.2381 0.74979 0.95528 0.0
C2549 C 0.22873 0.77648 0.95356 0.0
C2550 C 0.20622 0.78066 0.93667 0.0
C2551 C 0.19421 0.7591 0.92078 0.0
H2552 H 0.4538 0.94507 0.24891 0.0
H2553 H 0.44708 0.95862 0.16371 0.0
H2554 H 0.5032 0.93483 0.24215 0.0
H2555 H 0.49578 0.94767 0.157 0.0
H2556 H 0.57492 0.89887 0.15905 0.0
H2557 H 0.53337 0.89633 0.18838 0.0
H2558 H 0.53989 0.9851 0.19738 0.0
H2559 H 0.5809 0.9877 0.16745 0.0
C2560 C 0.46247 0.94455 0.22863 0.0
C2561 C 0.44672 0.95245 0.20673 0.0
C2562 C 0.49067 0.93891 0.22489 0.0
C2563 C 0.50296 0.94061 0.19913 0.0
C2564 C 0.4865 0.94621 0.17702 0.0
C2565 C 0.45869 0.95232 0.18081 0.0
C2566 C 0.56879 0.91767 0.16895 0.0
C2567 C 0.58084 0.94352 0.16097 0.0
C2568 C 0.54488 0.91618 0.18561 0.0
C2569 C 0.53347 0.94054 0.19473 0.0
C2570 C 0.54854 0.96607 0.19061 0.0
C2571 C 0.57203 0.96759 0.17356 0.0
H2572 H 0.07831 0.07151 0.67345 0.0
H2573 H 0.09595 0.13681 0.73318 0.0
H2574 H 0.02967 0.08047 0.67422 0.0
H2575 H 0.04606 0.14565 0.73441 0.0
H2576 H 0.98943 0.17464 0.6622 0.0
H2577 H 0.01927 0.16541 0.69905 0.0
H2578 H 0.98435 0.08068 0.69877 0.0
H2579 H 0.95448 0.09014 0.6611 0.0
C2580 C 0.0717 0.08772 0.68699 0.0
C2581 C 0.09097 0.10344 0.70327 0.0
C2582 C 0.04351 0.09238 0.68803 0.0
C2583 C 0.0337 0.11314 0.70519 0.0
C2584 C 0.05296 0.12909 0.72148 0.0
C2585 C 0.08149 0.12438 0.72039 0.0
C2586 C 0.98652 0.15464 0.67136 0.0
C2587 C 0.9703 0.13294 0.65875 0.0
C2588 C 0.0037 0.14925 0.69263 0.0
C2589 C 0.00533 0.12189 0.70044 0.0
C2590 C 0.98413 0.10177 0.69221 0.0
C2591 C 0.96727 0.10703 0.67053 0.0
loop_
_geom_bond_atom_site_label_1
_geom_bond_atom_site_label_2
_geom_bond_distance
_geom_bond_site_symmetry_2
_ccdc_geom_bond_type
Co0 O1 2.216 . S
Co0 O2 2.091 . S
Co0 O4 2.004 . S
Co0 O10 2.021 . S
Co0 O12 2.137 . S
Co0 O13 2.244 . S
O1 Co0 2.216 . S
O1 C8 1.247 . S
O2 Co0 2.091 . S
O2 C8 1.261 . S
C3 O12 1.247 . S
C3 O13 1.272 . S
O4 Co0 2.004 . S
O4 C9 1.259 . S
Co5 O6 2.061 . S
Co5 O11 2.052 . S
Co5 O13 2.135 . S
O6 Co5 2.061 . S
O6 C9 1.235 . S
C7 O10 1.238 . S
C7 O11 1.241 . S
C8 O1 1.247 . S
C8 O2 1.261 . S
C9 O4 1.259 . S
C9 O6 1.235 . S
O10 Co0 2.021 . S
O10 C7 1.238 . S
O11 Co5 2.052 . S
O11 C7 1.241 . S
O12 Co0 2.137 . S
O12 C3 1.247 . S
O13 Co0 2.244 . S
O13 C3 1.272 . S
O13 Co5 2.135 . S
Co14 O15 2.216 1_455 S
Co14 O16 2.091 1_455 S
Co14 O18 2.004 . S
Co14 O24 2.021 . S
Co14 O26 2.137 1_455 S
Co14 O27 2.244 1_455 S
O15 Co14 2.216 1_655 S
O15 C22 1.247 . S
O16 Co14 2.091 1_655 S
O16 C22 1.261 . S
C17 O26 1.247 . S
C17 O27 1.272 . S
O18 Co14 2.004 . S
O18 C23 1.259 . S
Co19 O20 2.061 . S
Co19 O25 2.052 . S
Co19 O27 2.135 1_455 S
O20 Co19 2.061 . S
O20 C23 1.235 . S
C21 O24 1.238 . S
C21 O25 1.241 . S
C22 O15 1.247 . S
C22 O16 1.261 . S
C23 O18 1.259 . S
C23 O20 1.235 . S
O24 Co14 2.021 . S
O24 C21 1.238 . S
O25 Co19 2.052 . S
O25 C21 1.241 . S
O26 Co14 2.137 1_655 S
O26 C17 1.247 . S
O27 Co14 2.244 1_655 S
O27 C17 1.272 . S
O27 Co19 2.135 1_655 S
Co28 O29 2.216 . S
Co28 O30 2.091 . S
Co28 O32 2.004 . S
Co28 O38 2.021 . S
Co28 O40 2.137 . S
Co28 O41 2.244 . S
O29 Co28 2.216 . S
O29 C36 1.247 . S
O30 Co28 2.091 . S
O30 C36 1.261 . S
C31 O40 1.247 . S
C31 O41 1.272 . S
O32 Co28 2.004 . S
O32 C37 1.259 . S
Co33 O34 2.061 . S
Co33 O39 2.052 . S
Co33 O41 2.135 . S
O34 Co33 2.061 . S
O34 C37 1.235 . S
C35 O38 1.238 . S
C35 O39 1.241 . S
C36 O29 1.247 . S
C36 O30 1.261 . S
C37 O32 1.259 . S
C37 O34 1.235 . S
O38 Co28 2.021 . S
O38 C35 1.238 . S
O39 Co33 2.052 . S
O39 C35 1.241 . S
O40 Co28 2.137 . S
O40 C31 1.247 . S
O41 Co28 2.244 . S
O41 C31 1.272 . S
O41 Co33 2.135 . S
Co42 O43 2.216 . S
Co42 O44 2.091 . S
Co42 O46 2.004 . S
Co42 O52 2.021 . S
Co42 O54 2.137 . S
Co42 O55 2.244 . S
O43 Co42 2.216 . S
O43 C50 1.247 . S
O44 Co42 2.091 . S
O44 C50 1.261 . S
C45 O54 1.247 . S
C45 O55 1.272 . S
O46 Co42 2.004 . S
O46 C51 1.259 . S
Co47 O48 2.061 . S
Co47 O53 2.052 . S
Co47 O55 2.135 . S
O48 Co47 2.061 . S
O48 C51 1.235 . S
C49 O52 1.238 . S
C49 O53 1.241 . S
C50 O43 1.247 . S
C50 O44 1.261 . S
C51 O46 1.259 . S
C51 O48 1.235 . S
O52 Co42 2.021 . S
O52 C49 1.238 . S
O53 Co47 2.052 . S
O53 C49 1.241 . S
O54 Co42 2.137 . S
O54 C45 1.247 . S
O55 Co42 2.244 . S
O55 C45 1.272 . S
O55 Co47 2.135 . S
Co56 O57 2.216 1_655 S
Co56 O58 2.091 . S
Co56 O60 2.004 . S
Co56 O66 2.021 1_655 S
Co56 O68 2.137 . S
Co56 O69 2.244 1_655 S
O57 Co56 2.216 1_455 S
O57 C64 1.247 1_455 S
O58 Co56 2.091 . S
O58 C64 1.261 . S
C59 O68 1.247 1_455 S
C59 O69 1.272 . S
O60 Co56 2.004 . S
O60 C65 1.259 . S
Co61 O62 2.061 . S
Co61 O67 2.052 . S
Co61 O69 2.135 . S
O62 Co61 2.061 . S
O62 C65 1.235 1_455 S
C63 O66 1.238 . S
C63 O67 1.241 . S
C64 O57 1.247 1_655 S
C64 O58 1.261 . S
C65 O60 1.259 . S
C65 O62 1.235 1_655 S
O66 Co56 2.021 1_455 S
O66 C63 1.238 . S
O67 Co61 2.052 . S
O67 C63 1.241 . S
O68 Co56 2.137 . S
O68 C59 1.247 1_655 S
O69 Co56 2.244 1_455 S
O69 C59 1.272 . S
O69 Co61 2.135 . S
Co70 O71 2.216 . S
Co70 O72 2.091 . S
Co70 O74 2.004 . S
Co70 O80 2.021 . S
Co70 O82 2.137 . S
Co70 O83 2.244 . S
O71 Co70 2.216 . S
O71 C78 1.247 . S
O72 Co70 2.091 . S
O72 C78 1.261 . S
C73 O82 1.247 . S
C73 O83 1.272 . S
O74 Co70 2.004 . S
O74 C79 1.259 . S
Co75 O76 2.061 . S
Co75 O81 2.052 . S
Co75 O83 2.135 . S
O76 Co75 2.061 . S
O76 C79 1.235 . S
C77 O80 1.238 . S
C77 O81 1.241 . S
C78 O71 1.247 . S
C78 O72 1.261 . S
C79 O74 1.259 . S
C79 O76 1.235 . S
O80 Co70 2.021 . S
O80 C77 1.238 . S
O81 Co75 2.052 . S
O81 C77 1.241 . S
O82 Co70 2.137 . S
O82 C73 1.247 . S
O83 Co70 2.244 . S
O83 C73 1.272 . S
O83 Co75 2.135 . S
Co84 O85 2.216 . S
Co84 O86 2.091 . S
Co84 O88 2.004 . S
Co84 O94 2.021 . S
Co84 O96 2.137 . S
Co84 O97 2.244 . S
O85 Co84 2.216 . S
O85 C92 1.247 . S
O86 Co84 2.091 . S
O86 C92 1.261 . S
C87 O96 1.247 . S
C87 O97 1.272 . S
O88 Co84 2.004 . S
O88 C93 1.259 . S
Co89 O90 2.061 . S
Co89 O95 2.052 . S
Co89 O97 2.135 . S
O90 Co89 2.061 . S
O90 C93 1.235 . S
C91 O94 1.238 . S
C91 O95 1.241 . S
C92 O85 1.247 . S
C92 O86 1.261 . S
C93 O88 1.259 . S
C93 O90 1.235 . S
O94 Co84 2.021 . S
O94 C91 1.238 . S
O95 Co89 2.052 . S
O95 C91 1.241 . S
O96 Co84 2.137 . S
O96 C87 1.247 . S
O97 Co84 2.244 . S
O97 C87 1.272 . S
O97 Co89 2.135 . S
Co98 O99 2.216 . S
Co98 O100 2.091 . S
Co98 O102 2.004 . S
Co98 O108 2.021 . S
Co98 O110 2.137 . S
Co98 O111 2.244 . S
O99 Co98 2.216 . S
O99 C106 1.247 . S
O100 Co98 2.091 . S
O100 C106 1.261 . S
C101 O110 1.247 . S
C101 O111 1.272 . S
O102 Co98 2.004 . S
O102 C107 1.259 . S
Co103 O104 2.061 . S
Co103 O109 2.052 . S
Co103 O111 2.135 . S
O104 Co103 2.061 . S
O104 C107 1.235 . S
C105 O108 1.238 . S
C105 O109 1.241 . S
C106 O99 1.247 . S
C106 O100 1.261 . S
C107 O102 1.259 . S
C107 O104 1.235 . S
O108 Co98 2.021 . S
O108 C105 1.238 . S
O109 Co103 2.052 . S
O109 C105 1.241 . S
O110 Co98 2.137 . S
O110 C101 1.247 . S
O111 Co98 2.244 . S
O111 C101 1.272 . S
O111 Co103 2.135 . S
Co112 O113 2.216 1_565 S
Co112 O114 2.091 . S
Co112 O116 2.004 . S
Co112 O122 2.021 1_565 S
Co112 O124 2.142 . S
Co112 O125 2.244 1_565 S
O113 Co112 2.216 1_545 S
O113 C120 1.247 1_545 S
O114 Co112 2.091 . S
O114 C120 1.261 . S
C115 O124 1.227 1_545 S
C115 O125 1.272 . S
O116 Co112 2.004 . S
O116 C121 1.259 . S
Co117 O118 2.061 . S
Co117 O123 2.052 . S
Co117 O125 2.135 . S
O118 Co117 2.061 . S
O118 C121 1.235 1_545 S
C119 O122 1.238 . S
C119 O123 1.241 . S
C120 O113 1.247 1_565 S
C120 O114 1.261 . S
C121 O116 1.259 . S
C121 O118 1.235 1_565 S
O122 Co112 2.021 1_545 S
O122 C119 1.238 . S
O123 Co117 2.052 . S
O123 C119 1.241 . S
O124 Co112 2.142 . S
O124 C115 1.227 1_565 S
O125 Co112 2.244 1_545 S
O125 C115 1.272 . S
O125 Co117 2.135 . S
Co126 O127 2.216 . S
Co126 O128 2.091 . S
Co126 O130 2.004 . S
Co126 O136 2.021 . S
Co126 O138 2.137 . S
Co126 O139 2.244 . S
O127 Co126 2.216 . S
O127 C134 1.247 . S
O128 Co126 2.091 . S
O128 C134 1.261 . S
C129 O138 1.247 . S
C129 O139 1.272 . S
O130 Co126 2.004 . S
O130 C135 1.259 . S
Co131 O132 2.061 . S
Co131 O137 2.052 . S
Co131 O139 2.135 . S
O132 Co131 2.061 . S
O132 C135 1.235 . S
C133 O136 1.238 . S
C133 O137 1.241 . S
C134 O127 1.247 . S
C134 O128 1.261 . S
C135 O130 1.259 . S
C135 O132 1.235 . S
O136 Co126 2.021 . S
O136 C133 1.238 . S
O137 Co131 2.052 . S
O137 C133 1.241 . S
O138 Co126 2.137 . S
O138 C129 1.247 . S
O139 Co126 2.244 . S
O139 C129 1.272 . S
O139 Co131 2.135 . S
Co140 O141 2.216 . S
Co140 O142 2.091 . S
Co140 O144 2.004 . S
Co140 O150 2.021 . S
Co140 O152 2.137 . S
Co140 O153 2.244 . S
O141 Co140 2.216 . S
O141 C148 1.247 . S
O142 Co140 2.091 . S
O142 C148 1.261 . S
C143 O152 1.247 . S
C143 O153 1.272 . S
O144 Co140 2.004 . S
O144 C149 1.259 . S
Co145 O146 2.061 . S
Co145 O151 2.052 . S
Co145 O153 2.135 . S
O146 Co145 2.061 . S
O146 C149 1.235 . S
C147 O150 1.238 . S
C147 O151 1.241 . S
C148 O141 1.247 . S
C148 O142 1.261 . S
C149 O144 1.259 . S
C149 O146 1.235 . S
O150 Co140 2.021 . S
O150 C147 1.238 . S
O151 Co145 2.052 . S
O151 C147 1.241 . S
O152 Co140 2.137 . S
O152 C143 1.247 . S
O153 Co140 2.244 . S
O153 C143 1.272 . S
O153 Co145 2.135 . S
Co154 O155 2.216 . S
Co154 O156 2.091 . S
Co154 O158 2.004 . S
Co154 O164 2.021 . S
Co154 O166 2.137 . S
Co154 O167 2.244 . S
O155 Co154 2.216 . S
O155 C162 1.247 . S
O156 Co154 2.091 . S
O156 C162 1.261 . S
C157 O166 1.247 . S
C157 O167 1.272 . S
O158 Co154 2.004 . S
O158 C163 1.259 1_554 S
Co159 O160 2.061 1_554 S
Co159 O165 2.052 1_554 S
Co159 O167 2.135 . S
O160 Co159 2.061 1_556 S
O160 C163 1.235 . S
C161 O164 1.238 1_556 S
C161 O165 1.241 . S
C162 O155 1.247 . S
C162 O156 1.261 . S
C163 O158 1.259 1_556 S
C163 O160 1.235 . S
O164 Co154 2.021 . S
O164 C161 1.238 1_554 S
O165 Co159 2.052 1_556 S
O165 C161 1.241 . S
O166 Co154 2.137 . S
O166 C157 1.247 . S
O167 Co154 2.244 . S
O167 C157 1.272 . S
O167 Co159 2.135 . S
Co168 O169 2.216 . S
Co168 O170 2.091 1_554 S
Co168 O172 2.004 1_554 S
Co168 O178 2.021 . S
Co168 O180 2.137 . S
Co168 O181 2.244 . S
O169 Co168 2.216 . S
O169 C176 1.247 1_554 S
O170 Co168 2.091 1_556 S
O170 C176 1.261 . S
C171 O180 1.247 . S
C171 O181 1.272 . S
O172 Co168 2.004 1_556 S
O172 C177 1.259 . S
Co173 O174 2.061 . S
Co173 O179 2.052 . S
Co173 O181 2.135 . S
O174 Co173 2.061 . S
O174 C177 1.235 1_554 S
C175 O178 1.238 . S
C175 O179 1.241 . S
C176 O169 1.247 1_556 S
C176 O170 1.261 . S
C177 O172 1.259 . S
C177 O174 1.235 1_556 S
O178 Co168 2.021 . S
O178 C175 1.238 . S
O179 Co173 2.052 . S
O179 C175 1.241 . S
O180 Co168 2.137 . S
O180 C171 1.247 . S
O181 Co168 2.244 . S
O181 C171 1.272 . S
O181 Co173 2.135 . S
Co182 O183 2.210 1_556 S
Co182 O184 2.091 . S
Co182 O186 2.004 . S
Co182 O192 2.021 1_556 S
Co182 O194 2.137 . S
Co182 O195 2.244 1_556 S
O183 Co182 2.210 1_554 S
O183 C190 1.217 1_554 S
O184 Co182 2.091 . S
O184 C190 1.261 . S
C185 O194 1.247 1_554 S
C185 O195 1.272 . S
O186 Co182 2.004 . S
O186 C191 1.259 . S
Co187 O188 2.061 . S
Co187 O193 2.052 . S
Co187 O195 2.135 . S
O188 Co187 2.061 . S
O188 C191 1.235 1_554 S
C189 O192 1.238 . S
C189 O193 1.241 . S
C190 O183 1.217 1_556 S
C190 O184 1.261 . S
C191 O186 1.259 . S
C191 O188 1.235 1_556 S
O192 Co182 2.021 1_554 S
O192 C189 1.238 . S
O193 Co187 2.052 . S
O193 C189 1.241 . S
O194 Co182 2.137 . S
O194 C185 1.247 1_556 S
O195 Co182 2.244 1_554 S
O195 C185 1.272 . S
O195 Co187 2.135 . S
Co196 O197 2.216 . S
Co196 O198 2.091 . S
Co196 O200 2.004 . S
Co196 O206 2.021 . S
Co196 O208 2.137 . S
Co196 O209 2.244 . S
O197 Co196 2.216 . S
O197 C204 1.247 . S
O198 Co196 2.091 . S
O198 C204 1.261 . S
C199 O208 1.247 . S
C199 O209 1.272 . S
O200 Co196 2.004 . S
O200 C205 1.259 . S
Co201 O202 2.061 . S
Co201 O207 2.052 . S
Co201 O209 2.135 . S
O202 Co201 2.061 . S
O202 C205 1.235 . S
C203 O206 1.238 . S
C203 O207 1.241 . S
C204 O197 1.247 . S
C204 O198 1.261 . S
C205 O200 1.259 . S
C205 O202 1.235 . S
O206 Co196 2.021 . S
O206 C203 1.238 . S
O207 Co201 2.052 . S
O207 C203 1.241 . S
O208 Co196 2.137 . S
O208 C199 1.247 . S
O209 Co196 2.244 . S
O209 C199 1.272 . S
O209 Co201 2.135 . S
Co210 O211 2.216 . S
Co210 O212 2.091 . S
Co210 O214 2.004 . S
Co210 O220 2.021 . S
Co210 O222 2.137 . S
Co210 O223 2.244 . S
O211 Co210 2.216 . S
O211 C218 1.247 . S
O212 Co210 2.091 . S
O212 C218 1.261 . S
C213 O222 1.247 . S
C213 O223 1.272 . S
O214 Co210 2.004 . S
O214 C219 1.259 . S
Co215 O216 2.061 . S
Co215 O221 2.052 . S
Co215 O223 2.135 . S
O216 Co215 2.061 . S
O216 C219 1.235 . S
C217 O220 1.238 . S
C217 O221 1.241 . S
C218 O211 1.247 . S
C218 O212 1.261 . S
C219 O214 1.259 . S
C219 O216 1.235 . S
O220 Co210 2.021 . S
O220 C217 1.238 . S
O221 Co215 2.052 . S
O221 C217 1.241 . S
O222 Co210 2.137 . S
O222 C213 1.247 . S
O223 Co210 2.244 . S
O223 C213 1.272 . S
O223 Co215 2.135 . S
Co224 O225 2.216 1_545 S
Co224 O226 2.091 1_545 S
Co224 O228 2.004 . S
Co224 O234 2.021 . S
Co224 O236 2.137 1_545 S
Co224 O237 2.244 . S
O225 Co224 2.216 1_565 S
O225 C232 1.247 . S
O226 Co224 2.091 1_565 S
O226 C232 1.261 . S
C227 O236 1.247 . S
C227 O237 1.272 1_565 S
O228 Co224 2.004 . S
O228 C233 1.259 . S
Co229 O230 2.061 . S
Co229 O235 2.052 . S
Co229 O237 2.135 . S
O230 Co229 2.061 . S
O230 C233 1.235 . S
C231 O234 1.238 . S
C231 O235 1.241 . S
C232 O225 1.247 . S
C232 O226 1.261 . S
C233 O228 1.259 . S
C233 O230 1.235 . S
O234 Co224 2.021 . S
O234 C231 1.238 . S
O235 Co229 2.052 . S
O235 C231 1.241 . S
O236 Co224 2.137 1_565 S
O236 C227 1.247 . S
O237 Co224 2.244 . S
O237 C227 1.272 1_545 S
O237 Co229 2.135 . S
Co238 O239 2.216 . S
Co238 O240 2.091 . S
Co238 O242 2.004 . S
Co238 O248 2.021 . S
Co238 O250 2.137 . S
Co238 O251 2.244 . S
O239 Co238 2.216 . S
O239 C246 1.247 . S
O240 Co238 2.091 . S
O240 C246 1.261 . S
C241 O250 1.247 . S
C241 O251 1.272 . S
O242 Co238 2.004 . S
O242 C247 1.259 . S
Co243 O244 2.061 . S
Co243 O249 2.052 . S
Co243 O251 2.135 . S
O244 Co243 2.061 . S
O244 C247 1.235 . S
C245 O248 1.238 . S
C245 O249 1.241 . S
C246 O239 1.247 . S
C246 O240 1.261 . S
C247 O242 1.259 . S
C247 O244 1.235 . S
O248 Co238 2.021 . S
O248 C245 1.238 . S
O249 Co243 2.052 . S
O249 C245 1.241 . S
O250 Co238 2.137 . S
O250 C241 1.247 . S
O251 Co238 2.244 . S
O251 C241 1.272 . S
O251 Co243 2.135 . S
Co252 O253 2.216 . S
Co252 O254 2.091 . S
Co252 O256 2.004 . S
Co252 O262 2.021 . S
Co252 O264 2.137 . S
Co252 O265 2.244 . S
O253 Co252 2.216 . S
O253 C260 1.247 . S
O254 Co252 2.091 . S
O254 C260 1.261 . S
C255 O264 1.247 . S
C255 O265 1.272 . S
O256 Co252 2.004 . S
O256 C261 1.259 . S
Co257 O258 2.061 . S
Co257 O263 2.052 . S
Co257 O265 2.135 . S
O258 Co257 2.061 . S
O258 C261 1.235 . S
C259 O262 1.238 . S
C259 O263 1.241 . S
C260 O253 1.247 . S
C260 O254 1.261 . S
C261 O256 1.259 . S
C261 O258 1.235 . S
O262 Co252 2.021 . S
O262 C259 1.238 . S
O263 Co257 2.052 . S
O263 C259 1.241 . S
O264 Co252 2.137 . S
O264 C255 1.247 . S
O265 Co252 2.244 . S
O265 C255 1.272 . S
O265 Co257 2.135 . S
Co266 O267 2.216 . S
Co266 O268 2.091 . S
Co266 O270 2.004 . S
Co266 O276 2.021 . S
Co266 O278 2.137 . S
Co266 O279 2.244 . S
O267 Co266 2.216 . S
O267 C274 1.247 . S
O268 Co266 2.091 . S
O268 C274 1.261 . S
C269 O278 1.247 . S
C269 O279 1.272 . S
O270 Co266 2.004 . S
O270 C275 1.259 . S
Co271 O272 2.061 . S
Co271 O277 2.052 . S
Co271 O279 2.135 . S
O272 Co271 2.061 . S
O272 C275 1.235 . S
C273 O276 1.238 . S
C273 O277 1.241 . S
C274 O267 1.247 . S
C274 O268 1.261 . S
C275 O270 1.259 . S
C275 O272 1.235 . S
O276 Co266 2.021 . S
O276 C273 1.238 . S
O277 Co271 2.052 . S
O277 C273 1.241 . S
O278 Co266 2.137 . S
O278 C269 1.247 . S
O279 Co266 2.244 . S
O279 C269 1.272 . S
O279 Co271 2.135 . S
Co280 O281 2.216 . S
Co280 O282 2.091 . S
Co280 O284 1.993 1_554 S
Co280 O290 2.021 1_554 S
Co280 O292 2.137 . S
Co280 O293 2.244 . S
O281 Co280 2.216 . S
O281 C288 1.247 . S
O282 Co280 2.091 . S
O282 C288 1.261 . S
C283 O292 1.247 . S
C283 O293 1.272 . S
O284 Co280 1.993 1_556 S
O284 C289 1.274 . S
Co285 O286 2.061 . S
Co285 O291 2.052 . S
Co285 O293 2.135 1_556 S
O286 Co285 2.061 . S
O286 C289 1.235 . S
C287 O290 1.238 . S
C287 O291 1.241 . S
C288 O281 1.247 . S
C288 O282 1.261 . S
C289 O284 1.274 . S
C289 O286 1.235 . S
O290 Co280 2.021 1_556 S
O290 C287 1.238 . S
O291 Co285 2.052 . S
O291 C287 1.241 . S
O292 Co280 2.137 . S
O292 C283 1.247 . S
O293 Co280 2.244 . S
O293 C283 1.272 . S
O293 Co285 2.135 1_554 S
Co294 O295 2.216 . S
Co294 O296 2.091 . S
Co294 O298 2.004 . S
Co294 O304 2.021 . S
Co294 O306 2.137 . S
Co294 O307 2.244 . S
O295 Co294 2.216 . S
O295 C302 1.247 . S
O296 Co294 2.091 . S
O296 C302 1.261 . S
C297 O306 1.247 . S
C297 O307 1.272 . S
O298 Co294 2.004 . S
O298 C303 1.259 . S
Co299 O300 2.061 . S
Co299 O305 2.052 . S
Co299 O307 2.135 . S
O300 Co299 2.061 . S
O300 C303 1.235 . S
C301 O304 1.238 . S
C301 O305 1.241 . S
C302 O295 1.247 . S
C302 O296 1.261 . S
C303 O298 1.259 . S
C303 O300 1.235 . S
O304 Co294 2.021 . S
O304 C301 1.238 . S
O305 Co299 2.052 . S
O305 C301 1.241 . S
O306 Co294 2.137 . S
O306 C297 1.247 . S
O307 Co294 2.244 . S
O307 C297 1.272 . S
O307 Co299 2.135 . S
Co308 O309 2.216 . S
Co308 O310 2.091 . S
Co308 O312 2.004 . S
Co308 O318 2.021 . S
Co308 O320 2.137 . S
Co308 O321 2.244 . S
O309 Co308 2.216 . S
O309 C316 1.247 . S
O310 Co308 2.091 . S
O310 C316 1.261 . S
C311 O320 1.247 . S
C311 O321 1.272 . S
O312 Co308 2.004 . S
O312 C317 1.259 . S
Co313 O314 2.061 . S
Co313 O319 2.052 . S
Co313 O321 2.135 . S
O314 Co313 2.061 . S
O314 C317 1.235 . S
C315 O318 1.238 . S
C315 O319 1.241 . S
C316 O309 1.247 . S
C316 O310 1.261 . S
C317 O312 1.259 . S
C317 O314 1.235 . S
O318 Co308 2.021 . S
O318 C315 1.238 . S
O319 Co313 2.052 . S
O319 C315 1.241 . S
O320 Co308 2.137 . S
O320 C311 1.247 . S
O321 Co308 2.244 . S
O321 C311 1.272 . S
O321 Co313 2.135 . S
Co322 O323 2.216 . S
Co322 O324 2.091 . S
Co322 O326 2.004 . S
Co322 O332 2.021 . S
Co322 O334 2.137 . S
Co322 O335 2.244 . S
O323 Co322 2.216 . S
O323 C330 1.247 . S
O324 Co322 2.091 . S
O324 C330 1.261 . S
C325 O334 1.247 . S
C325 O335 1.272 . S
O326 Co322 2.004 . S
O326 C331 1.259 . S
Co327 O328 2.061 . S
Co327 O333 2.052 . S
Co327 O335 2.135 . S
O328 Co327 2.061 . S
O328 C331 1.235 . S
C329 O332 1.238 . S
C329 O333 1.241 . S
C330 O323 1.247 . S
C330 O324 1.261 . S
C331 O326 1.259 . S
C331 O328 1.235 . S
O332 Co322 2.021 . S
O332 C329 1.238 . S
O333 Co327 2.052 . S
O333 C329 1.241 . S
O334 Co322 2.137 . S
O334 C325 1.247 . S
O335 Co322 2.244 . S
O335 C325 1.272 . S
O335 Co327 2.135 . S
O336 Mg337 1.990 . S
O336 C350 1.253 . S
Mg337 O336 1.990 . S
Mg337 O340 2.180 . S
Mg337 O341 2.117 . S
Mg337 O355 2.030 . S
O338 Mg339 2.072 . S
O338 C350 1.260 . S
Mg339 O338 2.072 . S
Mg339 O340 2.099 . S
Mg339 O342 2.079 . S
Mg339 O343 2.072 . S
Mg339 O345 2.099 . S
Mg339 O356 2.079 . S
O340 Mg337 2.180 . S
O340 Mg339 2.099 . S
O340 C351 1.279 . S
O341 Mg337 2.117 . S
O341 C351 1.250 . S
O342 Mg339 2.079 . S
O342 C352 1.264 . S
O343 Mg339 2.072 . S
O343 C353 1.260 . S
Mg344 O345 2.180 . S
Mg344 O346 2.030 . S
Mg344 O347 1.990 . S
Mg344 O348 2.117 . S
O345 Mg339 2.099 . S
O345 Mg344 2.180 . S
O345 C354 1.279 . S
O346 Mg344 2.030 . S
O346 C352 1.248 . S
O347 Mg344 1.990 . S
O347 C353 1.253 . S
O348 Mg344 2.117 . S
O348 C354 1.250 . S
C349 O355 1.248 . S
C349 O356 1.264 . S
C350 O336 1.253 . S
C350 O338 1.260 . S
C351 O340 1.279 . S
C351 O341 1.250 . S
C352 O342 1.264 . S
C352 O346 1.248 . S
C353 O343 1.260 . S
C353 O347 1.253 . S
C354 O345 1.279 . S
C354 O348 1.250 . S
O355 Mg337 2.030 . S
O355 C349 1.248 . S
O356 Mg339 2.079 . S
O356 C349 1.264 . S
O357 Mg358 1.990 . S
O357 C371 1.253 . S
Mg358 O357 1.990 . S
Mg358 O361 2.180 . S
Mg358 O362 2.117 . S
Mg358 O376 2.030 . S
O359 Mg360 2.072 . S
O359 C371 1.260 . S
Mg360 O359 2.072 . S
Mg360 O361 2.099 . S
Mg360 O363 2.079 . S
Mg360 O364 2.072 . S
Mg360 O366 2.099 . S
Mg360 O377 2.079 . S
O361 Mg358 2.180 . S
O361 Mg360 2.099 . S
O361 C372 1.279 . S
O362 Mg358 2.117 . S
O362 C372 1.250 . S
O363 Mg360 2.079 . S
O363 C373 1.264 . S
O364 Mg360 2.072 . S
O364 C374 1.260 . S
Mg365 O366 2.180 . S
Mg365 O367 2.030 . S
Mg365 O368 1.990 . S
Mg365 O369 2.117 . S
O366 Mg360 2.099 . S
O366 Mg365 2.180 . S
O366 C375 1.279 . S
O367 Mg365 2.030 . S
O367 C373 1.248 . S
O368 Mg365 1.990 . S
O368 C374 1.253 . S
O369 Mg365 2.117 . S
O369 C375 1.250 . S
C370 O376 1.248 . S
C370 O377 1.264 . S
C371 O357 1.253 . S
C371 O359 1.260 . S
C372 O361 1.279 . S
C372 O362 1.250 . S
C373 O363 1.264 . S
C373 O367 1.248 . S
C374 O364 1.260 . S
C374 O368 1.253 . S
C375 O366 1.279 . S
C375 O369 1.250 . S
O376 Mg358 2.030 . S
O376 C370 1.248 . S
O377 Mg360 2.079 . S
O377 C370 1.264 . S
O378 Mg379 1.990 . S
O378 C392 1.253 . S
Mg379 O378 1.990 . S
Mg379 O382 2.180 . S
Mg379 O383 2.097 1_565 S
Mg379 O397 2.030 . S
O380 Mg381 2.072 . S
O380 C392 1.260 . S
Mg381 O380 2.072 . S
Mg381 O382 2.099 . S
Mg381 O384 2.079 . S
Mg381 O385 2.072 . S
Mg381 O387 2.099 . S
Mg381 O398 2.079 . S
O382 Mg379 2.180 . S
O382 Mg381 2.099 . S
O382 C393 1.279 . S
O383 Mg379 2.097 1_545 S
O383 C393 1.224 1_545 S
O384 Mg381 2.079 . S
O384 C394 1.264 . S
O385 Mg381 2.072 . S
O385 C395 1.260 . S
Mg386 O387 2.180 . S
Mg386 O388 2.030 . S
Mg386 O389 1.990 . S
Mg386 O390 2.117 . S
O387 Mg381 2.099 . S
O387 Mg386 2.180 . S
O387 C396 1.279 . S
O388 Mg386 2.030 . S
O388 C394 1.248 . S
O389 Mg386 1.990 . S
O389 C395 1.253 . S
O390 Mg386 2.117 . S
O390 C396 1.250 . S
C391 O397 1.248 . S
C391 O398 1.264 . S
C392 O378 1.253 . S
C392 O380 1.260 . S
C393 O382 1.279 . S
C393 O383 1.224 1_565 S
C394 O384 1.264 . S
C394 O388 1.248 . S
C395 O385 1.260 . S
C395 O389 1.253 . S
C396 O387 1.279 . S
C396 O390 1.250 . S
O397 Mg379 2.030 . S
O397 C391 1.248 . S
O398 Mg381 2.079 . S
O398 C391 1.264 . S
O399 Mg400 1.990 . S
O399 C413 1.253 . S
Mg400 O399 1.990 . S
Mg400 O403 2.180 . S
Mg400 O404 2.117 . S
Mg400 O418 2.030 . S
O401 Mg402 2.072 . S
O401 C413 1.260 . S
Mg402 O401 2.072 . S
Mg402 O403 2.099 . S
Mg402 O405 2.079 . S
Mg402 O406 2.072 . S
Mg402 O408 2.099 . S
Mg402 O419 2.079 . S
O403 Mg400 2.180 . S
O403 Mg402 2.099 . S
O403 C414 1.279 . S
O404 Mg400 2.117 . S
O404 C414 1.250 . S
O405 Mg402 2.079 . S
O405 C415 1.264 . S
O406 Mg402 2.072 . S
O406 C416 1.260 . S
Mg407 O408 2.180 . S
Mg407 O409 2.030 . S
Mg407 O410 1.990 . S
Mg407 O411 2.117 . S
O408 Mg402 2.099 . S
O408 Mg407 2.180 . S
O408 C417 1.279 . S
O409 Mg407 2.030 . S
O409 C415 1.248 . S
O410 Mg407 1.990 . S
O410 C416 1.253 . S
O411 Mg407 2.117 . S
O411 C417 1.250 . S
C412 O418 1.248 . S
C412 O419 1.264 . S
C413 O399 1.253 . S
C413 O401 1.260 . S
C414 O403 1.279 . S
C414 O404 1.250 . S
C415 O405 1.264 . S
C415 O409 1.248 . S
C416 O406 1.260 . S
C416 O410 1.253 . S
C417 O408 1.279 . S
C417 O411 1.250 . S
O418 Mg400 2.030 . S
O418 C412 1.248 . S
O419 Mg402 2.079 . S
O419 C412 1.264 . S
O420 Mg421 1.990 . S
O420 C434 1.253 . S
Mg421 O420 1.990 . S
Mg421 O424 2.180 . S
Mg421 O425 2.117 . S
Mg421 O439 2.030 . S
O422 Mg423 2.072 . S
O422 C434 1.260 . S
Mg423 O422 2.072 . S
Mg423 O424 2.099 . S
Mg423 O426 2.079 . S
Mg423 O427 2.072 . S
Mg423 O429 2.099 . S
Mg423 O440 2.079 . S
O424 Mg421 2.180 . S
O424 Mg423 2.099 . S
O424 C435 1.279 . S
O425 Mg421 2.117 . S
O425 C435 1.250 . S
O426 Mg423 2.079 . S
O426 C436 1.264 . S
O427 Mg423 2.072 . S
O427 C437 1.260 . S
Mg428 O429 2.180 . S
Mg428 O430 2.030 . S
Mg428 O431 1.990 . S
Mg428 O432 2.117 . S
O429 Mg423 2.099 . S
O429 Mg428 2.180 . S
O429 C438 1.279 . S
O430 Mg428 2.030 . S
O430 C436 1.248 . S
O431 Mg428 1.990 . S
O431 C437 1.253 . S
O432 Mg428 2.117 . S
O432 C438 1.250 . S
C433 O439 1.248 . S
C433 O440 1.264 . S
C434 O420 1.253 . S
C434 O422 1.260 . S
C435 O424 1.279 . S
C435 O425 1.250 . S
C436 O426 1.264 . S
C436 O430 1.248 . S
C437 O427 1.260 . S
C437 O431 1.253 . S
C438 O429 1.279 . S
C438 O432 1.250 . S
O439 Mg421 2.030 . S
O439 C433 1.248 . S
O440 Mg423 2.079 . S
O440 C433 1.264 . S
O441 Mg442 1.990 . S
O441 C455 1.253 . S
Mg442 O441 1.990 . S
Mg442 O445 2.180 . S
Mg442 O446 2.117 . S
Mg442 O460 2.030 . S
O443 Mg444 2.072 . S
O443 C455 1.260 . S
Mg444 O443 2.072 . S
Mg444 O445 2.099 . S
Mg444 O447 2.079 . S
Mg444 O448 2.072 . S
Mg444 O450 2.099 . S
Mg444 O461 2.079 . S
O445 Mg442 2.180 . S
O445 Mg444 2.099 . S
O445 C456 1.279 . S
O446 Mg442 2.117 . S
O446 C456 1.250 . S
O447 Mg444 2.079 . S
O447 C457 1.264 . S
O448 Mg444 2.072 . S
O448 C458 1.260 . S
Mg449 O450 2.180 . S
Mg449 O451 2.030 . S
Mg449 O452 1.990 . S
Mg449 O453 2.117 . S
O450 Mg444 2.099 . S
O450 Mg449 2.180 . S
O450 C459 1.279 . S
O451 Mg449 2.030 . S
O451 C457 1.248 . S
O452 Mg449 1.990 . S
O452 C458 1.253 . S
O453 Mg449 2.117 . S
O453 C459 1.250 . S
C454 O460 1.248 . S
C454 O461 1.264 . S
C455 O441 1.253 . S
C455 O443 1.260 . S
C456 O445 1.279 . S
C456 O446 1.250 . S
C457 O447 1.264 . S
C457 O451 1.248 . S
C458 O448 1.260 . S
C458 O452 1.253 . S
C459 O450 1.279 . S
C459 O453 1.250 . S
O460 Mg442 2.030 . S
O460 C454 1.248 . S
O461 Mg444 2.079 . S
O461 C454 1.264 . S
O462 Mg463 1.990 . S
O462 C476 1.253 . S
Mg463 O462 1.990 . S
Mg463 O466 2.180 . S
Mg463 O467 2.117 . S
Mg463 O481 2.030 . S
O464 Mg465 2.072 . S
O464 C476 1.260 . S
Mg465 O464 2.072 . S
Mg465 O466 2.099 . S
Mg465 O468 2.079 . S
Mg465 O469 2.072 . S
Mg465 O471 2.099 . S
Mg465 O482 2.079 . S
O466 Mg463 2.180 . S
O466 Mg465 2.099 . S
O466 C477 1.279 . S
O467 Mg463 2.117 . S
O467 C477 1.250 . S
O468 Mg465 2.079 . S
O468 C478 1.264 . S
O469 Mg465 2.072 . S
O469 C479 1.260 . S
Mg470 O471 2.180 . S
Mg470 O472 2.030 . S
Mg470 O473 1.990 . S
Mg470 O474 2.117 . S
O471 Mg465 2.099 . S
O471 Mg470 2.180 . S
O471 C480 1.279 . S
O472 Mg470 2.030 . S
O472 C478 1.248 . S
O473 Mg470 1.990 . S
O473 C479 1.253 . S
O474 Mg470 2.117 . S
O474 C480 1.250 . S
C475 O481 1.248 . S
C475 O482 1.264 . S
C476 O462 1.253 . S
C476 O464 1.260 . S
C477 O466 1.279 . S
C477 O467 1.250 . S
C478 O468 1.264 . S
C478 O472 1.248 . S
C479 O469 1.260 . S
C479 O473 1.253 . S
C480 O471 1.279 . S
C480 O474 1.250 . S
O481 Mg463 2.030 . S
O481 C475 1.248 . S
O482 Mg465 2.079 . S
O482 C475 1.264 . S
O483 Mg484 1.990 . S
O483 C497 1.253 . S
Mg484 O483 1.990 . S
Mg484 O487 2.180 . S
Mg484 O488 2.117 . S
Mg484 O502 2.030 . S
O485 Mg486 2.072 . S
O485 C497 1.260 . S
Mg486 O485 2.072 . S
Mg486 O487 2.099 . S
Mg486 O489 2.079 . S
Mg486 O490 2.072 . S
Mg486 O492 2.099 . S
Mg486 O503 2.079 . S
O487 Mg484 2.180 . S
O487 Mg486 2.099 . S
O487 C498 1.279 . S
O488 Mg484 2.117 . S
O488 C498 1.250 . S
O489 Mg486 2.079 . S
O489 C499 1.264 . S
O490 Mg486 2.072 . S
O490 C500 1.260 . S
Mg491 O492 2.180 . S
Mg491 O493 2.030 . S
Mg491 O494 1.990 . S
Mg491 O495 2.117 . S
O492 Mg486 2.099 . S
O492 Mg491 2.180 . S
O492 C501 1.279 . S
O493 Mg491 2.030 . S
O493 C499 1.248 . S
O494 Mg491 1.990 . S
O494 C500 1.253 . S
O495 Mg491 2.117 . S
O495 C501 1.250 . S
C496 O502 1.248 . S
C496 O503 1.264 . S
C497 O483 1.253 . S
C497 O485 1.260 . S
C498 O487 1.279 . S
C498 O488 1.250 . S
C499 O489 1.264 . S
C499 O493 1.248 . S
C500 O490 1.260 . S
C500 O494 1.253 . S
C501 O492 1.279 . S
C501 O495 1.250 . S
O502 Mg484 2.030 . S
O502 C496 1.248 . S
O503 Mg486 2.079 . S
O503 C496 1.264 . S
O504 Mg505 1.990 . S
O504 C518 1.253 . S
Mg505 O504 1.990 . S
Mg505 O508 2.180 . S
Mg505 O509 2.117 . S
Mg505 O523 2.030 . S
O506 Mg507 2.072 . S
O506 C518 1.260 . S
Mg507 O506 2.072 . S
Mg507 O508 2.099 . S
Mg507 O510 2.079 . S
Mg507 O511 2.072 . S
Mg507 O513 2.099 . S
Mg507 O524 2.079 . S
O508 Mg505 2.180 . S
O508 Mg507 2.099 . S
O508 C519 1.279 . S
O509 Mg505 2.117 . S
O509 C519 1.250 . S
O510 Mg507 2.079 . S
O510 C520 1.264 . S
O511 Mg507 2.072 . S
O511 C521 1.260 . S
Mg512 O513 2.180 . S
Mg512 O514 2.030 . S
Mg512 O515 1.990 . S
Mg512 O516 2.117 . S
O513 Mg507 2.099 . S
O513 Mg512 2.180 . S
O513 C522 1.279 . S
O514 Mg512 2.030 . S
O514 C520 1.248 . S
O515 Mg512 1.990 . S
O515 C521 1.253 . S
O516 Mg512 2.117 . S
O516 C522 1.250 . S
C517 O523 1.248 . S
C517 O524 1.264 . S
C518 O504 1.253 . S
C518 O506 1.260 . S
C519 O508 1.279 . S
C519 O509 1.250 . S
C520 O510 1.264 . S
C520 O514 1.248 . S
C521 O511 1.260 . S
C521 O515 1.253 . S
C522 O513 1.279 . S
C522 O516 1.250 . S
O523 Mg505 2.030 . S
O523 C517 1.248 . S
O524 Mg507 2.079 . S
O524 C517 1.264 . S
O525 Mg526 1.990 . S
O525 C539 1.253 . S
Mg526 O525 1.990 . S
Mg526 O529 2.180 . S
Mg526 O530 2.117 . S
Mg526 O544 2.030 . S
O527 Mg528 2.072 . S
O527 C539 1.260 . S
Mg528 O527 2.072 . S
Mg528 O529 2.099 . S
Mg528 O531 2.079 . S
Mg528 O532 2.072 . S
Mg528 O534 2.099 . S
Mg528 O545 2.079 . S
O529 Mg526 2.180 . S
O529 Mg528 2.099 . S
O529 C540 1.279 . S
O530 Mg526 2.117 . S
O530 C540 1.250 . S
O531 Mg528 2.079 . S
O531 C541 1.264 . S
O532 Mg528 2.072 . S
O532 C542 1.260 . S
Mg533 O534 2.180 . S
Mg533 O535 2.030 . S
Mg533 O536 1.990 . S
Mg533 O537 2.117 . S
O534 Mg528 2.099 . S
O534 Mg533 2.180 . S
O534 C543 1.279 . S
O535 Mg533 2.030 . S
O535 C541 1.248 . S
O536 Mg533 1.990 . S
O536 C542 1.253 . S
O537 Mg533 2.117 . S
O537 C543 1.250 . S
C538 O544 1.248 . S
C538 O545 1.264 . S
C539 O525 1.253 . S
C539 O527 1.260 . S
C540 O529 1.279 . S
C540 O530 1.250 . S
C541 O531 1.264 . S
C541 O535 1.248 . S
C542 O532 1.260 . S
C542 O536 1.253 . S
C543 O534 1.279 . S
C543 O537 1.250 . S
O544 Mg526 2.030 . S
O544 C538 1.248 . S
O545 Mg528 2.079 . S
O545 C538 1.264 . S
O546 Mg547 1.990 . S
O546 C560 1.253 . S
Mg547 O546 1.990 . S
Mg547 O550 2.180 . S
Mg547 O551 2.117 . S
Mg547 O565 2.030 . S
O548 Mg549 2.072 . S
O548 C560 1.260 . S
Mg549 O548 2.072 . S
Mg549 O550 2.099 . S
Mg549 O552 2.079 . S
Mg549 O553 2.072 . S
Mg549 O555 2.099 . S
Mg549 O566 2.079 . S
O550 Mg547 2.180 . S
O550 Mg549 2.099 . S
O550 C561 1.279 . S
O551 Mg547 2.117 . S
O551 C561 1.250 . S
O552 Mg549 2.079 . S
O552 C562 1.264 . S
O553 Mg549 2.072 . S
O553 C563 1.260 . S
Mg554 O555 2.180 . S
Mg554 O556 2.030 . S
Mg554 O557 1.990 . S
Mg554 O558 2.117 . S
O555 Mg549 2.099 . S
O555 Mg554 2.180 . S
O555 C564 1.279 . S
O556 Mg554 2.030 . S
O556 C562 1.248 . S
O557 Mg554 1.990 . S
O557 C563 1.253 . S
O558 Mg554 2.117 . S
O558 C564 1.250 . S
C559 O565 1.248 . S
C559 O566 1.264 . S
C560 O546 1.253 . S
C560 O548 1.260 . S
C561 O550 1.279 . S
C561 O551 1.250 . S
C562 O552 1.264 . S
C562 O556 1.248 . S
C563 O553 1.260 . S
C563 O557 1.253 . S
C564 O555 1.279 . S
C564 O558 1.250 . S
O565 Mg547 2.030 . S
O565 C559 1.248 . S
O566 Mg549 2.079 . S
O566 C559 1.264 . S
O567 Mg568 1.990 . S
O567 C581 1.253 . S
Mg568 O567 1.990 . S
Mg568 O571 2.180 . S
Mg568 O572 2.117 . S
Mg568 O586 2.030 . S
O569 Mg570 2.072 . S
O569 C581 1.260 . S
Mg570 O569 2.072 . S
Mg570 O571 2.099 . S
Mg570 O573 2.079 . S
Mg570 O574 2.072 . S
Mg570 O576 2.099 . S
Mg570 O587 2.079 . S
O571 Mg568 2.180 . S
O571 Mg570 2.099 . S
O571 C582 1.279 . S
O572 Mg568 2.117 . S
O572 C582 1.250 . S
O573 Mg570 2.079 . S
O573 C583 1.264 . S
O574 Mg570 2.072 . S
O574 C584 1.260 . S
Mg575 O576 2.180 . S
Mg575 O577 2.030 . S
Mg575 O578 1.990 . S
Mg575 O579 2.117 . S
O576 Mg570 2.099 . S
O576 Mg575 2.180 . S
O576 C585 1.279 . S
O577 Mg575 2.030 . S
O577 C583 1.248 . S
O578 Mg575 1.990 . S
O578 C584 1.253 . S
O579 Mg575 2.117 . S
O579 C585 1.250 . S
C580 O586 1.248 . S
C580 O587 1.264 . S
C581 O567 1.253 . S
C581 O569 1.260 . S
C582 O571 1.279 . S
C582 O572 1.250 . S
C583 O573 1.264 . S
C583 O577 1.248 . S
C584 O574 1.260 . S
C584 O578 1.253 . S
C585 O576 1.279 . S
C585 O579 1.250 . S
O586 Mg568 2.030 . S
O586 C580 1.248 . S
O587 Mg570 2.079 . S
O587 C580 1.264 . S
O588 Mg589 1.990 . S
O588 C602 1.253 . S
Mg589 O588 1.990 . S
Mg589 O592 2.180 . S
Mg589 O593 2.117 . S
Mg589 O607 2.030 . S
O590 Mg591 2.072 . S
O590 C602 1.260 . S
Mg591 O590 2.072 . S
Mg591 O592 2.099 . S
Mg591 O594 2.079 . S
Mg591 O595 2.072 . S
Mg591 O597 2.099 . S
Mg591 O608 2.079 . S
O592 Mg589 2.180 . S
O592 Mg591 2.099 . S
O592 C603 1.279 . S
O593 Mg589 2.117 . S
O593 C603 1.250 . S
O594 Mg591 2.079 . S
O594 C604 1.264 . S
O595 Mg591 2.072 . S
O595 C605 1.260 . S
Mg596 O597 2.180 . S
Mg596 O598 2.030 . S
Mg596 O599 1.990 . S
Mg596 O600 2.117 . S
O597 Mg591 2.099 . S
O597 Mg596 2.180 . S
O597 C606 1.279 . S
O598 Mg596 2.030 . S
O598 C604 1.248 . S
O599 Mg596 1.990 . S
O599 C605 1.253 . S
O600 Mg596 2.117 . S
O600 C606 1.250 . S
C601 O607 1.248 . S
C601 O608 1.264 . S
C602 O588 1.253 . S
C602 O590 1.260 . S
C603 O592 1.279 . S
C603 O593 1.250 . S
C604 O594 1.264 . S
C604 O598 1.248 . S
C605 O595 1.260 . S
C605 O599 1.253 . S
C606 O597 1.279 . S
C606 O600 1.250 . S
O607 Mg589 2.030 . S
O607 C601 1.248 . S
O608 Mg591 2.079 . S
O608 C601 1.264 . S
O609 Mg610 1.990 . S
O609 C623 1.253 . S
Mg610 O609 1.990 . S
Mg610 O613 2.180 . S
Mg610 O614 2.117 . S
Mg610 O628 2.030 . S
O611 Mg612 2.072 . S
O611 C623 1.260 . S
Mg612 O611 2.072 . S
Mg612 O613 2.099 . S
Mg612 O615 2.079 . S
Mg612 O616 2.072 . S
Mg612 O618 2.099 . S
Mg612 O629 2.079 . S
O613 Mg610 2.180 . S
O613 Mg612 2.099 . S
O613 C624 1.279 . S
O614 Mg610 2.117 . S
O614 C624 1.250 . S
O615 Mg612 2.079 . S
O615 C625 1.264 . S
O616 Mg612 2.072 . S
O616 C626 1.260 . S
Mg617 O618 2.180 . S
Mg617 O619 2.030 . S
Mg617 O620 1.990 . S
Mg617 O621 2.117 . S
O618 Mg612 2.099 . S
O618 Mg617 2.180 . S
O618 C627 1.279 . S
O619 Mg617 2.030 . S
O619 C625 1.248 . S
O620 Mg617 1.990 . S
O620 C626 1.253 . S
O621 Mg617 2.117 . S
O621 C627 1.250 . S
C622 O628 1.248 . S
C622 O629 1.264 . S
C623 O609 1.253 . S
C623 O611 1.260 . S
C624 O613 1.279 . S
C624 O614 1.250 . S
C625 O615 1.264 . S
C625 O619 1.248 . S
C626 O616 1.260 . S
C626 O620 1.253 . S
C627 O618 1.279 . S
C627 O621 1.250 . S
O628 Mg610 2.030 . S
O628 C622 1.248 . S
O629 Mg612 2.079 . S
O629 C622 1.264 . S
O630 Mg631 1.990 . S
O630 C644 1.253 . S
Mg631 O630 1.990 . S
Mg631 O634 2.180 . S
Mg631 O635 2.117 . S
Mg631 O649 2.030 . S
O632 Mg633 2.072 . S
O632 C644 1.260 . S
Mg633 O632 2.072 . S
Mg633 O634 2.099 . S
Mg633 O636 2.079 . S
Mg633 O637 2.072 . S
Mg633 O639 2.099 . S
Mg633 O650 2.079 . S
O634 Mg631 2.180 . S
O634 Mg633 2.099 . S
O634 C645 1.279 . S
O635 Mg631 2.117 . S
O635 C645 1.250 . S
O636 Mg633 2.079 . S
O636 C646 1.264 . S
O637 Mg633 2.072 . S
O637 C647 1.260 . S
Mg638 O639 2.180 . S
Mg638 O640 2.030 . S
Mg638 O641 1.990 . S
Mg638 O642 2.117 . S
O639 Mg633 2.099 . S
O639 Mg638 2.180 . S
O639 C648 1.279 . S
O640 Mg638 2.030 . S
O640 C646 1.248 . S
O641 Mg638 1.990 . S
O641 C647 1.253 . S
O642 Mg638 2.117 . S
O642 C648 1.250 . S
C643 O649 1.248 . S
C643 O650 1.264 . S
C644 O630 1.253 . S
C644 O632 1.260 . S
C645 O634 1.279 . S
C645 O635 1.250 . S
C646 O636 1.264 . S
C646 O640 1.248 . S
C647 O637 1.260 . S
C647 O641 1.253 . S
C648 O639 1.279 . S
C648 O642 1.250 . S
O649 Mg631 2.030 . S
O649 C643 1.248 . S
O650 Mg633 2.079 . S
O650 C643 1.264 . S
O651 Mg652 1.990 . S
O651 C665 1.253 . S
Mg652 O651 1.990 . S
Mg652 O655 2.180 . S
Mg652 O656 2.117 . S
Mg652 O670 2.030 . S
O653 Mg654 2.072 . S
O653 C665 1.260 . S
Mg654 O653 2.072 . S
Mg654 O655 2.099 . S
Mg654 O657 2.079 . S
Mg654 O658 2.072 . S
Mg654 O660 2.099 . S
Mg654 O671 2.079 . S
O655 Mg652 2.180 . S
O655 Mg654 2.099 . S
O655 C666 1.279 . S
O656 Mg652 2.117 . S
O656 C666 1.250 . S
O657 Mg654 2.079 . S
O657 C667 1.264 . S
O658 Mg654 2.072 . S
O658 C668 1.260 . S
Mg659 O660 2.180 . S
Mg659 O661 2.030 . S
Mg659 O662 1.990 . S
Mg659 O663 2.117 . S
O660 Mg654 2.099 . S
O660 Mg659 2.180 . S
O660 C669 1.279 . S
O661 Mg659 2.030 . S
O661 C667 1.248 . S
O662 Mg659 1.990 . S
O662 C668 1.253 . S
O663 Mg659 2.117 . S
O663 C669 1.250 . S
C664 O670 1.248 . S
C664 O671 1.264 . S
C665 O651 1.253 . S
C665 O653 1.260 . S
C666 O655 1.279 . S
C666 O656 1.250 . S
C667 O657 1.264 . S
C667 O661 1.248 . S
C668 O658 1.260 . S
C668 O662 1.253 . S
C669 O660 1.279 . S
C669 O663 1.250 . S
O670 Mg652 2.030 . S
O670 C664 1.248 . S
O671 Mg654 2.079 . S
O671 C664 1.264 . S
H672 C680 0.950 . S
H673 C685 0.950 . S
H674 C682 0.950 . S
H675 C684 0.950 . S
H676 C686 0.950 . S
H677 C688 0.950 . S
H678 C690 0.950 . S
H679 C691 0.950 . S
C680 H672 0.950 . S
C680 C681 1.386 . S
C680 C682 1.391 . S
C681 C680 1.386 . S
C681 C685 1.393 . S
C682 H674 0.950 . S
C682 C680 1.391 . S
C682 C683 1.400 . S
C683 C682 1.400 . S
C683 C684 1.398 . S
C683 C689 1.491 . S
C684 H675 0.950 . S
C684 C683 1.398 . S
C684 C685 1.391 . S
C685 H673 0.950 . S
C685 C681 1.393 . S
C685 C684 1.391 . S
C686 H676 0.950 . S
C686 C687 1.386 . S
C686 C688 1.391 . S
C687 C686 1.386 . S
C687 C691 1.393 . S
C688 H677 0.950 . S
C688 C686 1.391 . S
C688 C689 1.400 . S
C689 C683 1.491 . S
C689 C688 1.400 . S
C689 C690 1.398 . S
C690 H678 0.950 . S
C690 C689 1.398 . S
C690 C691 1.391 . S
C691 H679 0.950 . S
C691 C687 1.393 . S
C691 C690 1.391 . S
H692 C700 0.950 . S
H693 C705 0.950 . S
H694 C702 0.950 . S
H695 C704 0.950 . S
H696 C706 0.950 . S
H697 C708 0.950 . S
H698 C710 0.950 . S
H699 C711 0.950 . S
C700 H692 0.950 . S
C700 C701 1.386 . S
C700 C702 1.391 . S
C701 C700 1.386 . S
C701 C705 1.393 . S
C702 H694 0.950 . S
C702 C700 1.391 . S
C702 C703 1.400 . S
C703 C702 1.400 . S
C703 C704 1.398 . S
C703 C709 1.491 . S
C704 H695 0.950 . S
C704 C703 1.398 . S
C704 C705 1.391 . S
C705 H693 0.950 . S
C705 C701 1.393 . S
C705 C704 1.391 . S
C706 H696 0.950 . S
C706 C707 1.386 . S
C706 C708 1.391 . S
C707 C706 1.386 . S
C707 C711 1.393 . S
C708 H697 0.950 . S
C708 C706 1.391 . S
C708 C709 1.400 . S
C709 C703 1.491 . S
C709 C708 1.400 . S
C709 C710 1.398 . S
C710 H698 0.950 . S
C710 C709 1.398 . S
C710 C711 1.391 . S
C711 H699 0.950 . S
C711 C707 1.393 . S
C711 C710 1.391 . S
H712 C720 0.950 . S
H713 C725 0.950 . S
H714 C722 0.950 . S
H715 C724 0.950 . S
H716 C726 0.950 . S
H717 C728 0.950 . S
H718 C730 0.950 . S
H719 C731 0.950 . S
C720 H712 0.950 . S
C720 C721 1.386 . S
C720 C722 1.391 . S
C721 C720 1.386 . S
C721 C725 1.393 . S
C722 H714 0.950 . S
C722 C720 1.391 . S
C722 C723 1.400 . S
C723 C722 1.400 . S
C723 C724 1.398 . S
C723 C729 1.491 . S
C724 H715 0.950 . S
C724 C723 1.398 . S
C724 C725 1.391 . S
C725 H713 0.950 . S
C725 C721 1.393 . S
C725 C724 1.391 . S
C726 H716 0.950 . S
C726 C727 1.386 . S
C726 C728 1.391 . S
C727 C726 1.386 . S
C727 C731 1.393 . S
C728 H717 0.950 . S
C728 C726 1.391 . S
C728 C729 1.400 . S
C729 C723 1.491 . S
C729 C728 1.400 . S
C729 C730 1.398 . S
C730 H718 0.950 . S
C730 C729 1.398 . S
C730 C731 1.391 . S
C731 H719 0.950 . S
C731 C727 1.393 . S
C731 C730 1.391 . S
H732 C740 0.950 . S
H733 C745 0.950 . S
H734 C742 0.950 . S
H735 C744 0.950 . S
H736 C746 0.950 . S
H737 C748 0.950 . S
H738 C750 0.955 . S
H739 C751 0.950 . S
C740 H732 0.950 . S
C740 C741 1.386 . S
C740 C742 1.391 . S
C741 C740 1.386 . S
C741 C745 1.393 . S
C742 H734 0.950 . S
C742 C740 1.391 . S
C742 C743 1.400 . S
C743 C742 1.400 . S
C743 C744 1.398 . S
C743 C749 1.491 . S
C744 H735 0.950 . S
C744 C743 1.398 . S
C744 C745 1.391 . S
C745 H733 0.950 . S
C745 C741 1.393 . S
C745 C744 1.391 . S
C746 H736 0.950 . S
C746 C747 1.386 . S
C746 C748 1.391 1_556 S
C747 C746 1.386 . S
C747 C751 1.393 . S
C748 H737 0.950 . S
C748 C746 1.391 1_554 S
C748 C749 1.400 . S
C749 C743 1.491 . S
C749 C748 1.400 . S
C749 C750 1.408 . S
C750 H738 0.955 . S
C750 C749 1.408 . S
C750 C751 1.377 1_554 S
C751 H739 0.950 . S
C751 C747 1.393 . S
C751 C750 1.377 1_556 S
H752 C760 0.950 . S
H753 C765 0.950 . S
H754 C762 0.950 . S
H755 C764 0.950 . S
H756 C766 0.950 . S
H757 C768 0.950 . S
H758 C770 0.950 . S
H759 C771 0.950 . S
C760 H752 0.950 . S
C760 C761 1.386 . S
C760 C762 1.391 . S
C761 C760 1.386 . S
C761 C765 1.393 . S
C762 H754 0.950 . S
C762 C760 1.391 . S
C762 C763 1.400 . S
C763 C762 1.400 . S
C763 C764 1.398 . S
C763 C769 1.491 . S
C764 H755 0.950 . S
C764 C763 1.398 . S
C764 C765 1.391 . S
C765 H753 0.950 . S
C765 C761 1.393 . S
C765 C764 1.391 . S
C766 H756 0.950 . S
C766 C767 1.386 . S
C766 C768 1.391 . S
C767 C766 1.386 . S
C767 C771 1.393 . S
C768 H757 0.950 . S
C768 C766 1.391 . S
C768 C769 1.400 . S
C769 C763 1.491 . S
C769 C768 1.400 . S
C769 C770 1.398 . S
C770 H758 0.950 . S
C770 C769 1.398 . S
C770 C771 1.391 . S
C771 H759 0.950 . S
C771 C767 1.393 . S
C771 C770 1.391 . S
H772 C780 0.950 . S
H773 C785 0.950 . S
H774 C782 0.950 . S
H775 C784 0.950 . S
H776 C786 0.950 . S
H777 C788 0.950 . S
H778 C790 0.950 . S
H779 C791 0.950 . S
C780 H772 0.950 . S
C780 C781 1.386 . S
C780 C782 1.391 . S
C781 C780 1.386 . S
C781 C785 1.393 . S
C782 H774 0.950 . S
C782 C780 1.391 . S
C782 C783 1.400 . S
C783 C782 1.400 . S
C783 C784 1.398 . S
C783 C789 1.491 . S
C784 H775 0.950 . S
C784 C783 1.398 . S
C784 C785 1.391 . S
C785 H773 0.950 . S
C785 C781 1.393 . S
C785 C784 1.391 . S
C786 H776 0.950 . S
C786 C787 1.386 . S
C786 C788 1.391 . S
C787 C786 1.386 . S
C787 C791 1.393 . S
C788 H777 0.950 . S
C788 C786 1.391 . S
C788 C789 1.400 . S
C789 C783 1.491 . S
C789 C788 1.400 . S
C789 C790 1.398 . S
C790 H778 0.950 . S
C790 C789 1.398 . S
C790 C791 1.391 . S
C791 H779 0.950 . S
C791 C787 1.393 . S
C791 C790 1.391 . S
H792 C800 0.950 . S
H793 C805 0.950 . S
H794 C802 0.950 . S
H795 C804 0.950 . S
H796 C806 0.950 . S
H797 C808 0.950 . S
H798 C810 0.950 . S
H799 C811 0.950 . S
C800 H792 0.950 . S
C800 C801 1.386 . S
C800 C802 1.391 . S
C801 C800 1.386 . S
C801 C805 1.393 . S
C802 H794 0.950 . S
C802 C800 1.391 . S
C802 C803 1.400 . S
C803 C802 1.400 . S
C803 C804 1.398 . S
C803 C809 1.491 . S
C804 H795 0.950 . S
C804 C803 1.398 . S
C804 C805 1.391 . S
C805 H793 0.950 . S
C805 C801 1.393 . S
C805 C804 1.391 . S
C806 H796 0.950 . S
C806 C807 1.386 . S
C806 C808 1.391 . S
C807 C806 1.386 . S
C807 C811 1.393 . S
C808 H797 0.950 . S
C808 C806 1.391 . S
C808 C809 1.400 . S
C809 C803 1.491 . S
C809 C808 1.400 . S
C809 C810 1.398 . S
C810 H798 0.950 . S
C810 C809 1.398 . S
C810 C811 1.391 . S
C811 H799 0.950 . S
C811 C807 1.393 . S
C811 C810 1.391 . S
H812 C820 0.950 . S
H813 C825 0.950 . S
H814 C822 0.965 . S
H815 C824 0.950 . S
H816 C826 0.950 . S
H817 C828 0.950 . S
H818 C830 0.950 . S
H819 C831 0.950 . S
C820 H812 0.950 . S
C820 C821 1.386 . S
C820 C822 1.373 1_556 S
C821 C820 1.386 . S
C821 C825 1.393 . S
C822 H814 0.965 . S
C822 C820 1.373 1_554 S
C822 C823 1.404 . S
C823 C822 1.404 . S
C823 C824 1.398 1_554 S
C823 C829 1.491 . S
C824 H815 0.950 . S
C824 C823 1.398 1_556 S
C824 C825 1.391 . S
C825 H813 0.950 . S
C825 C821 1.393 . S
C825 C824 1.391 . S
C826 H816 0.950 . S
C826 C827 1.386 . S
C826 C828 1.391 . S
C827 C826 1.386 . S
C827 C831 1.393 . S
C828 H817 0.950 . S
C828 C826 1.391 . S
C828 C829 1.400 . S
C829 C823 1.491 . S
C829 C828 1.400 . S
C829 C830 1.398 . S
C830 H818 0.950 . S
C830 C829 1.398 . S
C830 C831 1.391 . S
C831 H819 0.950 . S
C831 C827 1.393 . S
C831 C830 1.391 . S
H832 C840 0.950 . S
H833 C845 0.950 . S
H834 C842 0.950 . S
H835 C844 0.950 . S
H836 C846 0.950 . S
H837 C848 0.950 . S
H838 C850 0.950 . S
H839 C851 0.950 . S
C840 H832 0.950 . S
C840 C841 1.386 . S
C840 C842 1.391 . S
C841 C840 1.386 . S
C841 C845 1.393 . S
C842 H834 0.950 . S
C842 C840 1.391 . S
C842 C843 1.400 . S
C843 C842 1.400 . S
C843 C844 1.398 . S
C843 C849 1.491 . S
C844 H835 0.950 . S
C844 C843 1.398 . S
C844 C845 1.391 . S
C845 H833 0.950 . S
C845 C841 1.393 . S
C845 C844 1.391 . S
C846 H836 0.950 . S
C846 C847 1.386 . S
C846 C848 1.391 . S
C847 C846 1.386 . S
C847 C851 1.393 . S
C848 H837 0.950 . S
C848 C846 1.391 . S
C848 C849 1.400 . S
C849 C843 1.491 . S
C849 C848 1.400 . S
C849 C850 1.398 . S
C850 H838 0.950 . S
C850 C849 1.398 . S
C850 C851 1.391 . S
C851 H839 0.950 . S
C851 C847 1.393 . S
C851 C850 1.391 . S
H852 C860 0.950 . S
H853 C865 0.950 . S
H854 C862 0.950 . S
H855 C864 0.950 . S
H856 C866 0.950 . S
H857 C868 0.950 1_545 S
H858 C870 0.965 . S
H859 C871 0.950 . S
C860 H852 0.950 . S
C860 C861 1.386 . S
C860 C862 1.391 . S
C861 C860 1.386 . S
C861 C865 1.393 . S
C862 H854 0.950 . S
C862 C860 1.391 . S
C862 C863 1.400 . S
C863 C862 1.400 . S
C863 C864 1.398 . S
C863 C869 1.491 . S
C864 H855 0.950 . S
C864 C863 1.398 . S
C864 C865 1.391 . S
C865 H853 0.950 . S
C865 C861 1.393 . S
C865 C864 1.391 . S
C866 H856 0.950 . S
C866 C867 1.386 . S
C866 C868 1.391 . S
C867 C866 1.386 . S
C867 C871 1.393 . S
C868 H857 0.950 1_565 S
C868 C866 1.391 . S
C868 C869 1.400 1_565 S
C869 C863 1.491 . S
C869 C868 1.400 1_545 S
C869 C870 1.411 . S
C870 H858 0.965 . S
C870 C869 1.411 . S
C870 C871 1.364 1_545 S
C871 H859 0.950 . S
C871 C867 1.393 . S
C871 C870 1.364 1_565 S
H872 C880 0.950 . S
H873 C885 0.950 . S
H874 C882 0.950 . S
H875 C884 0.950 . S
H876 C886 0.950 . S
H877 C888 0.950 . S
H878 C890 0.950 . S
H879 C891 0.950 . S
C880 H872 0.950 . S
C880 C881 1.386 . S
C880 C882 1.391 . S
C881 C880 1.386 . S
C881 C885 1.393 . S
C882 H874 0.950 . S
C882 C880 1.391 . S
C882 C883 1.400 . S
C883 C882 1.400 . S
C883 C884 1.398 . S
C883 C889 1.491 1_545 S
C884 H875 0.950 . S
C884 C883 1.398 . S
C884 C885 1.391 . S
C885 H873 0.950 . S
C885 C881 1.393 . S
C885 C884 1.391 . S
C886 H876 0.950 . S
C886 C887 1.386 . S
C886 C888 1.391 . S
C887 C886 1.386 . S
C887 C891 1.393 . S
C888 H877 0.950 . S
C888 C886 1.391 . S
C888 C889 1.400 . S
C889 C883 1.491 1_565 S
C889 C888 1.400 . S
C889 C890 1.398 . S
C890 H878 0.950 . S
C890 C889 1.398 . S
C890 C891 1.391 . S
C891 H879 0.950 . S
C891 C887 1.393 . S
C891 C890 1.391 . S
H892 C900 0.948 1_564 S
H893 C905 0.950 . S
H894 C902 0.950 . S
H895 C904 0.950 . S
H896 C906 0.950 . S
H897 C908 0.950 . S
H898 C910 0.950 . S
H899 C911 0.950 . S
C900 H892 0.948 1_546 S
C900 C901 1.378 1_545 S
C900 C902 1.401 . S
C901 C900 1.378 1_565 S
C901 C905 1.393 . S
C902 H894 0.950 . S
C902 C900 1.401 . S
C902 C903 1.400 . S
C903 C902 1.400 . S
C903 C904 1.398 . S
C903 C909 1.491 . S
C904 H895 0.950 . S
C904 C903 1.398 . S
C904 C905 1.391 1_545 S
C905 H893 0.950 . S
C905 C901 1.393 . S
C905 C904 1.391 1_565 S
C906 H896 0.950 . S
C906 C907 1.386 . S
C906 C908 1.391 . S
C907 C906 1.386 . S
C907 C911 1.393 . S
C908 H897 0.950 . S
C908 C906 1.391 . S
C908 C909 1.400 . S
C909 C903 1.491 . S
C909 C908 1.400 . S
C909 C910 1.398 . S
C910 H898 0.950 . S
C910 C909 1.398 . S
C910 C911 1.391 . S
C911 H899 0.950 . S
C911 C907 1.393 . S
C911 C910 1.391 . S
H912 C920 0.950 . S
H913 C925 0.950 . S
H914 C922 0.950 . S
H915 C924 0.950 . S
H916 C926 0.950 . S
H917 C928 0.950 . S
H918 C930 0.950 . S
H919 C931 0.950 . S
C920 H912 0.950 . S
C920 C921 1.386 . S
C920 C922 1.391 . S
C921 C920 1.386 . S
C921 C925 1.393 . S
C922 H914 0.950 . S
C922 C920 1.391 . S
C922 C923 1.400 . S
C923 C922 1.400 . S
C923 C924 1.398 . S
C923 C929 1.491 . S
C924 H915 0.950 . S
C924 C923 1.398 . S
C924 C925 1.391 . S
C925 H913 0.950 . S
C925 C921 1.393 . S
C925 C924 1.391 . S
C926 H916 0.950 . S
C926 C927 1.386 . S
C926 C928 1.391 . S
C927 C926 1.386 . S
C927 C931 1.393 . S
C928 H917 0.950 . S
C928 C926 1.391 . S
C928 C929 1.400 . S
C929 C923 1.491 . S
C929 C928 1.400 . S
C929 C930 1.398 . S
C930 H918 0.950 . S
C930 C929 1.398 . S
C930 C931 1.391 . S
C931 H919 0.950 . S
C931 C927 1.393 . S
C931 C930 1.391 . S
H932 C940 0.950 . S
H933 C945 0.950 . S
H934 C942 0.950 . S
H935 C944 0.950 . S
H936 C946 0.950 1_565 S
H937 C948 0.950 . S
H938 C950 0.950 . S
H939 C951 0.950 . S
C940 H932 0.950 . S
C940 C941 1.386 . S
C940 C942 1.391 . S
C941 C940 1.386 . S
C941 C945 1.393 . S
C942 H934 0.950 . S
C942 C940 1.391 . S
C942 C943 1.400 . S
C943 C942 1.400 . S
C943 C944 1.398 . S
C943 C949 1.491 . S
C944 H935 0.950 . S
C944 C943 1.398 . S
C944 C945 1.391 . S
C945 H933 0.950 . S
C945 C941 1.393 . S
C945 C944 1.391 . S
C946 H936 0.950 1_545 S
C946 C947 1.386 1_545 S
C946 C948 1.391 . S
C947 C946 1.386 1_565 S
C947 C951 1.393 . S
C948 H937 0.950 . S
C948 C946 1.391 . S
C948 C949 1.400 . S
C949 C943 1.491 . S
C949 C948 1.400 . S
C949 C950 1.398 . S
C950 H938 0.950 . S
C950 C949 1.398 . S
C950 C951 1.391 1_545 S
C951 H939 0.950 . S
C951 C947 1.393 . S
C951 C950 1.391 1_565 S
H952 C960 0.950 . S
H953 C965 0.950 . S
H954 C962 0.950 . S
H955 C964 0.950 . S
H956 C966 0.950 . S
H957 C968 0.950 . S
H958 C970 0.950 . S
H959 C971 0.950 . S
C960 H952 0.950 . S
C960 C961 1.386 . S
C960 C962 1.391 . S
C961 C960 1.386 . S
C961 C965 1.393 . S
C962 H954 0.950 . S
C962 C960 1.391 . S
C962 C963 1.400 . S
C963 C962 1.400 . S
C963 C964 1.398 . S
C963 C969 1.491 . S
C964 H955 0.950 . S
C964 C963 1.398 . S
C964 C965 1.391 . S
C965 H953 0.950 . S
C965 C961 1.393 . S
C965 C964 1.391 . S
C966 H956 0.950 . S
C966 C967 1.386 . S
C966 C968 1.391 . S
C967 C966 1.386 . S
C967 C971 1.393 . S
C968 H957 0.950 . S
C968 C966 1.391 . S
C968 C969 1.400 . S
C969 C963 1.491 . S
C969 C968 1.400 . S
C969 C970 1.398 . S
C970 H958 0.950 . S
C970 C969 1.398 . S
C970 C971 1.391 . S
C971 H959 0.950 . S
C971 C967 1.393 . S
C971 C970 1.391 . S
H972 C980 0.950 . S
H973 C985 0.950 . S
H974 C982 0.945 1_545 S
H975 C984 0.950 . S
H976 C986 0.950 . S
H977 C988 0.950 . S
H978 C990 0.950 . S
H979 C991 0.950 . S
C980 H972 0.950 . S
C980 C981 1.386 . S
C980 C982 1.420 . S
C981 C980 1.386 . S
C981 C985 1.393 . S
C982 H974 0.945 1_565 S
C982 C980 1.420 . S
C982 C983 1.375 1_565 S
C983 C982 1.375 1_545 S
C983 C984 1.398 . S
C983 C989 1.491 . S
C984 H975 0.950 . S
C984 C983 1.398 . S
C984 C985 1.391 1_545 S
C985 H973 0.950 . S
C985 C981 1.393 . S
C985 C984 1.391 1_565 S
C986 H976 0.950 . S
C986 C987 1.386 . S
C986 C988 1.391 . S
C987 C986 1.386 . S
C987 C991 1.393 . S
C988 H977 0.950 . S
C988 C986 1.391 . S
C988 C989 1.400 . S
C989 C983 1.491 . S
C989 C988 1.400 . S
C989 C990 1.398 . S
C990 H978 0.950 . S
C990 C989 1.398 . S
C990 C991 1.391 . S
C991 H979 0.950 . S
C991 C987 1.393 . S
C991 C990 1.391 . S
H992 C1000 0.950 . S
H993 C1005 0.950 . S
H994 C1002 0.950 . S
H995 C1004 0.950 . S
H996 C1006 0.950 . S
H997 C1008 0.950 . S
H998 C1010 0.950 . S
H999 C1011 0.950 . S
C1000 H992 0.950 . S
C1000 C1001 1.386 . S
C1000 C1002 1.391 . S
C1001 C1000 1.386 . S
C1001 C1005 1.393 . S
C1002 H994 0.950 . S
C1002 C1000 1.391 . S
C1002 C1003 1.400 . S
C1003 C1002 1.400 . S
C1003 C1004 1.398 . S
C1003 C1009 1.491 . S
C1004 H995 0.950 . S
C1004 C1003 1.398 . S
C1004 C1005 1.391 . S
C1005 H993 0.950 . S
C1005 C1001 1.393 . S
C1005 C1004 1.391 . S
C1006 H996 0.950 . S
C1006 C1007 1.386 . S
C1006 C1008 1.391 . S
C1007 C1006 1.386 . S
C1007 C1011 1.393 . S
C1008 H997 0.950 . S
C1008 C1006 1.391 . S
C1008 C1009 1.400 . S
C1009 C1003 1.491 . S
C1009 C1008 1.400 . S
C1009 C1010 1.398 . S
C1010 H998 0.950 . S
C1010 C1009 1.398 . S
C1010 C1011 1.391 . S
C1011 H999 0.950 . S
C1011 C1007 1.393 . S
C1011 C1010 1.391 . S
H1012 C1020 0.950 . S
H1013 C1025 0.950 . S
H1014 C1022 0.950 . S
H1015 C1024 0.950 . S
H1016 C1026 0.950 . S
H1017 C1028 0.950 . S
H1018 C1030 0.950 . S
H1019 C1031 0.950 . S
C1020 H1012 0.950 . S
C1020 C1021 1.386 . S
C1020 C1022 1.391 . S
C1021 C1020 1.386 . S
C1021 C1025 1.393 . S
C1022 H1014 0.950 . S
C1022 C1020 1.391 . S
C1022 C1023 1.400 . S
C1023 C1022 1.400 . S
C1023 C1024 1.398 . S
C1023 C1029 1.491 . S
C1024 H1015 0.950 . S
C1024 C1023 1.398 . S
C1024 C1025 1.391 . S
C1025 H1013 0.950 . S
C1025 C1021 1.393 . S
C1025 C1024 1.391 . S
C1026 H1016 0.950 . S
C1026 C1027 1.386 . S
C1026 C1028 1.391 . S
C1027 C1026 1.386 . S
C1027 C1031 1.393 . S
C1028 H1017 0.950 . S
C1028 C1026 1.391 . S
C1028 C1029 1.400 . S
C1029 C1023 1.491 . S
C1029 C1028 1.400 . S
C1029 C1030 1.398 . S
C1030 H1018 0.950 . S
C1030 C1029 1.398 . S
C1030 C1031 1.391 . S
C1031 H1019 0.950 . S
C1031 C1027 1.393 . S
C1031 C1030 1.391 . S
H1032 C1040 0.950 . S
H1033 C1045 0.950 . S
H1034 C1042 0.950 . S
H1035 C1044 0.950 . S
H1036 C1046 0.950 . S
H1037 C1048 0.950 . S
H1038 C1050 0.950 . S
H1039 C1051 0.950 . S
C1040 H1032 0.950 . S
C1040 C1041 1.386 . S
C1040 C1042 1.391 . S
C1041 C1040 1.386 . S
C1041 C1045 1.393 . S
C1042 H1034 0.950 . S
C1042 C1040 1.391 . S
C1042 C1043 1.400 . S
C1043 C1042 1.400 . S
C1043 C1044 1.398 . S
C1043 C1049 1.491 . S
C1044 H1035 0.950 . S
C1044 C1043 1.398 . S
C1044 C1045 1.391 . S
C1045 H1033 0.950 . S
C1045 C1041 1.393 . S
C1045 C1044 1.391 . S
C1046 H1036 0.950 . S
C1046 C1047 1.386 . S
C1046 C1048 1.391 1_655 S
C1047 C1046 1.386 . S
C1047 C1051 1.393 1_655 S
C1048 H1037 0.950 . S
C1048 C1046 1.391 1_455 S
C1048 C1049 1.400 . S
C1049 C1043 1.491 . S
C1049 C1048 1.400 . S
C1049 C1050 1.398 . S
C1050 H1038 0.950 . S
C1050 C1049 1.398 . S
C1050 C1051 1.391 . S
C1051 H1039 0.950 . S
C1051 C1047 1.393 1_455 S
C1051 C1050 1.391 . S
H1052 C1060 0.950 . S
H1053 C1065 0.950 . S
H1054 C1062 0.950 . S
H1055 C1064 0.950 . S
H1056 C1066 0.950 . S
H1057 C1068 0.950 . S
H1058 C1070 0.950 . S
H1059 C1071 0.950 . S
C1060 H1052 0.950 . S
C1060 C1061 1.386 . S
C1060 C1062 1.391 . S
C1061 C1060 1.386 . S
C1061 C1065 1.393 . S
C1062 H1054 0.950 . S
C1062 C1060 1.391 . S
C1062 C1063 1.400 . S
C1063 C1062 1.400 . S
C1063 C1064 1.398 . S
C1063 C1069 1.491 . S
C1064 H1055 0.950 . S
C1064 C1063 1.398 . S
C1064 C1065 1.391 . S
C1065 H1053 0.950 . S
C1065 C1061 1.393 . S
C1065 C1064 1.391 . S
C1066 H1056 0.950 . S
C1066 C1067 1.386 . S
C1066 C1068 1.391 . S
C1067 C1066 1.386 . S
C1067 C1071 1.393 . S
C1068 H1057 0.950 . S
C1068 C1066 1.391 . S
C1068 C1069 1.400 . S
C1069 C1063 1.491 . S
C1069 C1068 1.400 . S
C1069 C1070 1.398 . S
C1070 H1058 0.950 . S
C1070 C1069 1.398 . S
C1070 C1071 1.391 . S
C1071 H1059 0.950 . S
C1071 C1067 1.393 . S
C1071 C1070 1.391 . S
H1072 C1080 0.950 . S
H1073 C1085 0.950 . S
H1074 C1082 0.950 . S
H1075 C1084 0.950 . S
H1076 C1086 0.950 . S
H1077 C1088 0.950 . S
H1078 C1090 0.950 . S
H1079 C1091 0.950 . S
C1080 H1072 0.950 . S
C1080 C1081 1.386 . S
C1080 C1082 1.391 1_655 S
C1081 C1080 1.386 . S
C1081 C1085 1.393 . S
C1082 H1074 0.950 . S
C1082 C1080 1.391 1_455 S
C1082 C1083 1.400 . S
C1083 C1082 1.400 . S
C1083 C1084 1.398 1_455 S
C1083 C1089 1.491 . S
C1084 H1075 0.950 . S
C1084 C1083 1.398 1_655 S
C1084 C1085 1.391 . S
C1085 H1073 0.950 . S
C1085 C1081 1.393 . S
C1085 C1084 1.391 . S
C1086 H1076 0.950 . S
C1086 C1087 1.386 . S
C1086 C1088 1.391 . S
C1087 C1086 1.386 . S
C1087 C1091 1.393 . S
C1088 H1077 0.950 . S
C1088 C1086 1.391 . S
C1088 C1089 1.400 . S
C1089 C1083 1.491 . S
C1089 C1088 1.400 . S
C1089 C1090 1.398 . S
C1090 H1078 0.950 . S
C1090 C1089 1.398 . S
C1090 C1091 1.391 . S
C1091 H1079 0.950 . S
C1091 C1087 1.393 . S
C1091 C1090 1.391 . S
H1092 C1100 0.950 . S
H1093 C1105 0.950 . S
H1094 C1102 0.950 . S
H1095 C1104 0.950 . S
H1096 C1106 0.950 . S
H1097 C1108 0.950 . S
H1098 C1110 0.950 . S
H1099 C1111 0.950 . S
C1100 H1092 0.950 . S
C1100 C1101 1.386 . S
C1100 C1102 1.391 . S
C1101 C1100 1.386 . S
C1101 C1105 1.393 . S
C1102 H1094 0.950 . S
C1102 C1100 1.391 . S
C1102 C1103 1.400 . S
C1103 C1102 1.400 . S
C1103 C1104 1.398 . S
C1103 C1109 1.491 . S
C1104 H1095 0.950 . S
C1104 C1103 1.398 . S
C1104 C1105 1.391 . S
C1105 H1093 0.950 . S
C1105 C1101 1.393 . S
C1105 C1104 1.391 . S
C1106 H1096 0.950 . S
C1106 C1107 1.386 . S
C1106 C1108 1.391 . S
C1107 C1106 1.386 . S
C1107 C1111 1.393 . S
C1108 H1097 0.950 . S
C1108 C1106 1.391 . S
C1108 C1109 1.400 . S
C1109 C1103 1.491 . S
C1109 C1108 1.400 . S
C1109 C1110 1.398 . S
C1110 H1098 0.950 . S
C1110 C1109 1.398 . S
C1110 C1111 1.391 . S
C1111 H1099 0.950 . S
C1111 C1107 1.393 . S
C1111 C1110 1.391 . S
H1112 C1120 0.950 . S
H1113 C1125 0.950 . S
H1114 C1122 0.950 . S
H1115 C1124 0.950 . S
H1116 C1126 0.950 . S
H1117 C1128 0.950 . S
H1118 C1130 0.950 . S
H1119 C1131 0.950 . S
C1120 H1112 0.950 . S
C1120 C1121 1.386 . S
C1120 C1122 1.391 . S
C1121 C1120 1.386 . S
C1121 C1125 1.393 . S
C1122 H1114 0.950 . S
C1122 C1120 1.391 . S
C1122 C1123 1.400 . S
C1123 C1122 1.400 . S
C1123 C1124 1.398 . S
C1123 C1129 1.491 . S
C1124 H1115 0.950 . S
C1124 C1123 1.398 . S
C1124 C1125 1.391 . S
C1125 H1113 0.950 . S
C1125 C1121 1.393 . S
C1125 C1124 1.391 . S
C1126 H1116 0.950 . S
C1126 C1127 1.386 . S
C1126 C1128 1.391 1_655 S
C1127 C1126 1.386 . S
C1127 C1131 1.393 . S
C1128 H1117 0.950 . S
C1128 C1126 1.391 1_455 S
C1128 C1129 1.400 . S
C1129 C1123 1.491 . S
C1129 C1128 1.400 . S
C1129 C1130 1.398 . S
C1130 H1118 0.950 . S
C1130 C1129 1.398 . S
C1130 C1131 1.391 1_455 S
C1131 H1119 0.950 . S
C1131 C1127 1.393 . S
C1131 C1130 1.391 1_655 S
H1132 C1140 0.950 . S
H1133 C1145 0.950 . S
H1134 C1142 0.950 . S
H1135 C1144 0.950 . S
H1136 C1146 0.950 . S
H1137 C1148 0.950 . S
H1138 C1150 0.950 . S
H1139 C1151 0.950 . S
C1140 H1132 0.950 . S
C1140 C1141 1.386 . S
C1140 C1142 1.391 . S
C1141 C1140 1.386 . S
C1141 C1145 1.393 . S
C1142 H1134 0.950 . S
C1142 C1140 1.391 . S
C1142 C1143 1.400 . S
C1143 C1142 1.400 . S
C1143 C1144 1.398 . S
C1143 C1149 1.491 . S
C1144 H1135 0.950 . S
C1144 C1143 1.398 . S
C1144 C1145 1.391 . S
C1145 H1133 0.950 . S
C1145 C1141 1.393 . S
C1145 C1144 1.391 . S
C1146 H1136 0.950 . S
C1146 C1147 1.386 . S
C1146 C1148 1.391 . S
C1147 C1146 1.386 . S
C1147 C1151 1.393 . S
C1148 H1137 0.950 . S
C1148 C1146 1.391 . S
C1148 C1149 1.400 . S
C1149 C1143 1.491 . S
C1149 C1148 1.400 . S
C1149 C1150 1.398 . S
C1150 H1138 0.950 . S
C1150 C1149 1.398 . S
C1150 C1151 1.391 . S
C1151 H1139 0.950 . S
C1151 C1147 1.393 . S
C1151 C1150 1.391 . S
H1152 C1160 0.950 . S
H1153 C1165 0.950 . S
H1154 C1162 0.950 . S
H1155 C1164 0.950 . S
H1156 C1166 0.950 . S
H1157 C1168 0.950 . S
H1158 C1170 0.950 . S
H1159 C1171 0.950 . S
C1160 H1152 0.950 . S
C1160 C1161 1.386 . S
C1160 C1162 1.391 . S
C1161 C1160 1.386 . S
C1161 C1165 1.393 . S
C1162 H1154 0.950 . S
C1162 C1160 1.391 . S
C1162 C1163 1.400 . S
C1163 C1162 1.400 . S
C1163 C1164 1.398 . S
C1163 C1169 1.491 . S
C1164 H1155 0.950 . S
C1164 C1163 1.398 . S
C1164 C1165 1.391 . S
C1165 H1153 0.950 . S
C1165 C1161 1.393 . S
C1165 C1164 1.391 . S
C1166 H1156 0.950 . S
C1166 C1167 1.386 . S
C1166 C1168 1.391 . S
C1167 C1166 1.386 . S
C1167 C1171 1.393 . S
C1168 H1157 0.950 . S
C1168 C1166 1.391 . S
C1168 C1169 1.400 . S
C1169 C1163 1.491 . S
C1169 C1168 1.400 . S
C1169 C1170 1.398 . S
C1170 H1158 0.950 . S
C1170 C1169 1.398 . S
C1170 C1171 1.391 . S
C1171 H1159 0.950 . S
C1171 C1167 1.393 . S
C1171 C1170 1.391 . S
H1172 C1180 0.950 . S
H1173 C1185 0.950 . S
H1174 C1182 0.950 . S
H1175 C1184 0.950 . S
H1176 C1186 0.950 1_455 S
H1177 C1188 0.950 . S
H1178 C1190 0.950 . S
H1179 C1191 0.950 . S
C1180 H1172 0.950 . S
C1180 C1181 1.386 1_655 S
C1180 C1182 1.391 . S
C1181 C1180 1.386 1_455 S
C1181 C1185 1.393 . S
C1182 H1174 0.950 . S
C1182 C1180 1.391 . S
C1182 C1183 1.400 . S
C1183 C1182 1.400 . S
C1183 C1184 1.398 1_655 S
C1183 C1189 1.491 . S
C1184 H1175 0.950 . S
C1184 C1183 1.398 1_455 S
C1184 C1185 1.391 . S
C1185 H1173 0.950 . S
C1185 C1181 1.393 . S
C1185 C1184 1.391 . S
C1186 H1176 0.950 1_655 S
C1186 C1187 1.386 . S
C1186 C1188 1.391 1_655 S
C1187 C1186 1.386 . S
C1187 C1191 1.393 . S
C1188 H1177 0.950 . S
C1188 C1186 1.391 1_455 S
C1188 C1189 1.400 1_455 S
C1189 C1183 1.491 . S
C1189 C1188 1.400 1_655 S
C1189 C1190 1.398 . S
C1190 H1178 0.950 . S
C1190 C1189 1.398 . S
C1190 C1191 1.391 . S
C1191 H1179 0.950 . S
C1191 C1187 1.393 . S
C1191 C1190 1.391 . S
H1192 C1200 0.950 . S
H1193 C1205 0.950 . S
H1194 C1202 0.950 . S
H1195 C1204 0.950 . S
H1196 C1206 0.950 . S
H1197 C1208 0.950 . S
H1198 C1210 0.950 . S
H1199 C1211 0.950 . S
C1200 H1192 0.950 . S
C1200 C1201 1.386 . S
C1200 C1202 1.391 . S
C1201 C1200 1.386 . S
C1201 C1205 1.393 . S
C1202 H1194 0.950 . S
C1202 C1200 1.391 . S
C1202 C1203 1.400 . S
C1203 C1202 1.400 . S
C1203 C1204 1.398 . S
C1203 C1209 1.491 . S
C1204 H1195 0.950 . S
C1204 C1203 1.398 . S
C1204 C1205 1.391 . S
C1205 H1193 0.950 . S
C1205 C1201 1.393 . S
C1205 C1204 1.391 . S
C1206 H1196 0.950 . S
C1206 C1207 1.386 . S
C1206 C1208 1.391 . S
C1207 C1206 1.386 . S
C1207 C1211 1.393 . S
C1208 H1197 0.950 . S
C1208 C1206 1.391 . S
C1208 C1209 1.400 . S
C1209 C1203 1.491 . S
C1209 C1208 1.400 . S
C1209 C1210 1.398 . S
C1210 H1198 0.950 . S
C1210 C1209 1.398 . S
C1210 C1211 1.391 . S
C1211 H1199 0.950 . S
C1211 C1207 1.393 . S
C1211 C1210 1.391 . S
H1212 C1220 0.950 . S
H1213 C1225 0.950 . S
H1214 C1222 0.950 . S
H1215 C1224 0.950 . S
H1216 C1226 0.950 . S
H1217 C1228 0.950 . S
H1218 C1230 0.950 . S
H1219 C1231 0.950 . S
C1220 H1212 0.950 . S
C1220 C1221 1.386 . S
C1220 C1222 1.391 . S
C1221 C1220 1.386 . S
C1221 C1225 1.393 . S
C1222 H1214 0.950 . S
C1222 C1220 1.391 . S
C1222 C1223 1.400 . S
C1223 C1222 1.400 . S
C1223 C1224 1.398 . S
C1223 C1229 1.491 1_556 S
C1224 H1215 0.950 . S
C1224 C1223 1.398 . S
C1224 C1225 1.391 . S
C1225 H1213 0.950 . S
C1225 C1221 1.393 . S
C1225 C1224 1.391 . S
C1226 H1216 0.950 . S
C1226 C1227 1.386 . S
C1226 C1228 1.391 . S
C1227 C1226 1.386 . S
C1227 C1231 1.393 . S
C1228 H1217 0.950 . S
C1228 C1226 1.391 . S
C1228 C1229 1.400 . S
C1229 C1223 1.491 1_554 S
C1229 C1228 1.400 . S
C1229 C1230 1.398 . S
C1230 H1218 0.950 . S
C1230 C1229 1.398 . S
C1230 C1231 1.391 . S
C1231 H1219 0.950 . S
C1231 C1227 1.393 . S
C1231 C1230 1.391 . S
H1232 C1240 0.950 . S
H1233 C1245 0.950 . S
H1234 C1242 0.950 . S
H1235 C1244 0.950 . S
H1236 C1246 0.950 . S
H1237 C1248 0.950 1_455 S
H1238 C1250 0.950 . S
H1239 C1251 0.950 . S
C1240 H1232 0.950 . S
C1240 C1241 1.386 1_655 S
C1240 C1242 1.391 . S
C1241 C1240 1.386 1_455 S
C1241 C1245 1.393 . S
C1242 H1234 0.950 . S
C1242 C1240 1.391 . S
C1242 C1243 1.400 . S
C1243 C1242 1.400 . S
C1243 C1244 1.398 1_655 S
C1243 C1249 1.491 . S
C1244 H1235 0.950 . S
C1244 C1243 1.398 1_455 S
C1244 C1245 1.391 . S
C1245 H1233 0.950 . S
C1245 C1241 1.393 . S
C1245 C1244 1.391 . S
C1246 H1236 0.950 . S
C1246 C1247 1.386 . S
C1246 C1248 1.391 . S
C1247 C1246 1.386 . S
C1247 C1251 1.393 . S
C1248 H1237 0.950 1_655 S
C1248 C1246 1.391 . S
C1248 C1249 1.400 . S
C1249 C1243 1.491 . S
C1249 C1248 1.400 . S
C1249 C1250 1.398 . S
C1250 H1238 0.950 . S
C1250 C1249 1.398 . S
C1250 C1251 1.391 . S
C1251 H1239 0.950 . S
C1251 C1247 1.393 . S
C1251 C1250 1.391 . S
H1252 C1260 0.950 . S
H1253 C1265 0.950 . S
H1254 C1262 0.950 . S
H1255 C1264 0.950 . S
H1256 C1266 0.950 . S
H1257 C1268 0.950 . S
H1258 C1270 0.950 . S
H1259 C1271 0.950 . S
C1260 H1252 0.950 . S
C1260 C1261 1.386 . S
C1260 C1262 1.391 . S
C1261 C1260 1.386 . S
C1261 C1265 1.393 . S
C1262 H1254 0.950 . S
C1262 C1260 1.391 . S
C1262 C1263 1.400 . S
C1263 C1262 1.400 . S
C1263 C1264 1.398 . S
C1263 C1269 1.491 . S
C1264 H1255 0.950 . S
C1264 C1263 1.398 . S
C1264 C1265 1.391 . S
C1265 H1253 0.950 . S
C1265 C1261 1.393 . S
C1265 C1264 1.391 . S
C1266 H1256 0.950 . S
C1266 C1267 1.386 . S
C1266 C1268 1.391 . S
C1267 C1266 1.386 . S
C1267 C1271 1.393 . S
C1268 H1257 0.950 . S
C1268 C1266 1.391 . S
C1268 C1269 1.400 . S
C1269 C1263 1.491 . S
C1269 C1268 1.400 . S
C1269 C1270 1.398 . S
C1270 H1258 0.950 . S
C1270 C1269 1.398 . S
C1270 C1271 1.391 . S
C1271 H1259 0.950 . S
C1271 C1267 1.393 . S
C1271 C1270 1.391 . S
H1272 C1280 0.950 . S
H1273 C1285 0.950 . S
H1274 C1282 0.950 . S
H1275 C1284 0.950 . S
H1276 C1286 0.950 . S
H1277 C1288 0.950 . S
H1278 C1290 0.950 . S
H1279 C1291 0.950 . S
C1280 H1272 0.950 . S
C1280 C1281 1.386 . S
C1280 C1282 1.391 . S
C1281 C1280 1.386 . S
C1281 C1285 1.393 . S
C1282 H1274 0.950 . S
C1282 C1280 1.391 . S
C1282 C1283 1.400 . S
C1283 C1282 1.400 . S
C1283 C1284 1.398 . S
C1283 C1289 1.491 . S
C1284 H1275 0.950 . S
C1284 C1283 1.398 . S
C1284 C1285 1.391 . S
C1285 H1273 0.950 . S
C1285 C1281 1.393 . S
C1285 C1284 1.391 . S
C1286 H1276 0.950 . S
C1286 C1287 1.386 . S
C1286 C1288 1.391 . S
C1287 C1286 1.386 . S
C1287 C1291 1.393 . S
C1288 H1277 0.950 . S
C1288 C1286 1.391 . S
C1288 C1289 1.400 . S
C1289 C1283 1.491 . S
C1289 C1288 1.400 . S
C1289 C1290 1.398 . S
C1290 H1278 0.950 . S
C1290 C1289 1.398 . S
C1290 C1291 1.391 . S
C1291 H1279 0.950 . S
C1291 C1287 1.393 . S
C1291 C1290 1.391 . S
H1292 C1300 0.950 1_455 S
H1293 C1305 0.950 . S
H1294 C1302 0.950 1_455 S
H1295 C1304 0.950 . S
H1296 C1306 0.950 . S
H1297 C1308 0.944 1_554 S
H1298 C1310 0.950 . S
H1299 C1311 0.950 . S
C1300 H1292 0.950 1_655 S
C1300 C1301 1.386 . S
C1300 C1302 1.391 . S
C1301 C1300 1.386 . S
C1301 C1305 1.393 . S
C1302 H1294 0.950 1_655 S
C1302 C1300 1.391 . S
C1302 C1303 1.400 . S
C1303 C1302 1.400 . S
C1303 C1304 1.398 . S
C1303 C1309 1.491 1_554 S
C1304 H1295 0.950 . S
C1304 C1303 1.398 . S
C1304 C1305 1.391 . S
C1305 H1293 0.950 . S
C1305 C1301 1.393 . S
C1305 C1304 1.391 . S
C1306 H1296 0.950 . S
C1306 C1307 1.386 . S
C1306 C1308 1.391 . S
C1307 C1306 1.386 . S
C1307 C1311 1.393 . S
C1308 H1297 0.944 1_556 S
C1308 C1306 1.391 . S
C1308 C1309 1.400 . S
C1309 C1303 1.491 1_556 S
C1309 C1308 1.400 . S
C1309 C1310 1.398 . S
C1310 H1298 0.950 . S
C1310 C1309 1.398 . S
C1310 C1311 1.391 . S
C1311 H1299 0.950 . S
C1311 C1307 1.393 . S
C1311 C1310 1.391 . S
H1312 C1320 0.950 . S
H1313 C1325 0.950 . S
H1314 C1322 0.950 . S
H1315 C1324 0.950 . S
H1316 C1326 0.950 . S
H1317 C1328 0.950 . S
H1318 C1330 0.940 1_545 S
H1319 C1331 0.950 . S
C1320 H1312 0.950 . S
C1320 C1321 1.386 . S
C1320 C1322 1.391 . S
C1321 C1320 1.386 . S
C1321 C1325 1.393 1_545 S
C1322 H1314 0.950 . S
C1322 C1320 1.391 . S
C1322 C1323 1.400 1_545 S
C1323 C1322 1.400 1_565 S
C1323 C1324 1.398 . S
C1323 C1329 1.491 . S
C1324 H1315 0.950 . S
C1324 C1323 1.398 . S
C1324 C1325 1.391 . S
C1325 H1313 0.950 . S
C1325 C1321 1.393 1_565 S
C1325 C1324 1.391 . S
C1326 H1316 0.950 . S
C1326 C1327 1.386 . S
C1326 C1328 1.391 . S
C1327 C1326 1.386 . S
C1327 C1331 1.393 . S
C1328 H1317 0.950 . S
C1328 C1326 1.391 . S
C1328 C1329 1.400 . S
C1329 C1323 1.491 . S
C1329 C1328 1.400 . S
C1329 C1330 1.398 . S
C1330 H1318 0.940 1_565 S
C1330 C1329 1.398 . S
C1330 C1331 1.391 . S
C1331 H1319 0.950 . S
C1331 C1327 1.393 . S
C1331 C1330 1.391 . S
H1332 C1340 0.950 . S
H1333 C1345 0.950 . S
H1334 C1342 0.950 . S
H1335 C1344 0.950 . S
H1336 C1346 0.950 . S
H1337 C1348 0.950 . S
H1338 C1350 0.950 . S
H1339 C1351 0.950 . S
C1340 H1332 0.950 . S
C1340 C1341 1.386 1_545 S
C1340 C1342 1.391 . S
C1341 C1340 1.386 1_565 S
C1341 C1345 1.393 . S
C1342 H1334 0.950 . S
C1342 C1340 1.391 . S
C1342 C1343 1.400 . S
C1343 C1342 1.400 . S
C1343 C1344 1.398 . S
C1343 C1349 1.491 . S
C1344 H1335 0.950 . S
C1344 C1343 1.398 . S
C1344 C1345 1.391 1_545 S
C1345 H1333 0.950 . S
C1345 C1341 1.393 . S
C1345 C1344 1.391 1_565 S
C1346 H1336 0.950 . S
C1346 C1347 1.386 . S
C1346 C1348 1.391 . S
C1347 C1346 1.386 . S
C1347 C1351 1.393 . S
C1348 H1337 0.950 . S
C1348 C1346 1.391 . S
C1348 C1349 1.400 . S
C1349 C1343 1.491 . S
C1349 C1348 1.400 . S
C1349 C1350 1.398 . S
C1350 H1338 0.950 . S
C1350 C1349 1.398 . S
C1350 C1351 1.391 . S
C1351 H1339 0.950 . S
C1351 C1347 1.393 . S
C1351 C1350 1.391 . S
H1352 C1360 0.950 . S
H1353 C1365 0.950 . S
H1354 C1362 0.950 . S
H1355 C1364 0.950 . S
H1356 C1366 0.950 . S
H1357 C1368 0.950 . S
H1358 C1370 0.950 . S
H1359 C1371 0.950 . S
C1360 H1352 0.950 . S
C1360 C1361 1.386 . S
C1360 C1362 1.391 . S
C1361 C1360 1.386 . S
C1361 C1365 1.393 . S
C1362 H1354 0.950 . S
C1362 C1360 1.391 . S
C1362 C1363 1.400 . S
C1363 C1362 1.400 . S
C1363 C1364 1.398 . S
C1363 C1369 1.491 . S
C1364 H1355 0.950 . S
C1364 C1363 1.398 . S
C1364 C1365 1.391 . S
C1365 H1353 0.950 . S
C1365 C1361 1.393 . S
C1365 C1364 1.391 . S
C1366 H1356 0.950 . S
C1366 C1367 1.386 . S
C1366 C1368 1.391 . S
C1367 C1366 1.386 . S
C1367 C1371 1.393 . S
C1368 H1357 0.950 . S
C1368 C1366 1.391 . S
C1368 C1369 1.400 . S
C1369 C1363 1.491 . S
C1369 C1368 1.400 . S
C1369 C1370 1.398 . S
C1370 H1358 0.950 . S
C1370 C1369 1.398 . S
C1370 C1371 1.391 . S
C1371 H1359 0.950 . S
C1371 C1367 1.393 . S
C1371 C1370 1.391 . S
H1372 C1380 0.950 . S
H1373 C1385 0.950 1_556 S
H1374 C1382 0.950 . S
H1375 C1384 0.950 . S
H1376 C1386 0.950 . S
H1377 C1388 0.950 . S
H1378 C1390 0.950 . S
H1379 C1391 0.950 . S
C1380 H1372 0.950 . S
C1380 C1381 1.386 . S
C1380 C1382 1.391 . S
C1381 C1380 1.386 . S
C1381 C1385 1.393 . S
C1382 H1374 0.950 . S
C1382 C1380 1.391 . S
C1382 C1383 1.400 . S
C1383 C1382 1.400 . S
C1383 C1384 1.398 . S
C1383 C1389 1.491 . S
C1384 H1375 0.950 . S
C1384 C1383 1.398 . S
C1384 C1385 1.391 . S
C1385 H1373 0.950 1_554 S
C1385 C1381 1.393 . S
C1385 C1384 1.391 . S
C1386 H1376 0.950 . S
C1386 C1387 1.386 . S
C1386 C1388 1.391 1_565 S
C1387 C1386 1.386 . S
C1387 C1391 1.393 . S
C1388 H1377 0.950 . S
C1388 C1386 1.391 1_545 S
C1388 C1389 1.400 . S
C1389 C1383 1.491 . S
C1389 C1388 1.400 . S
C1389 C1390 1.398 . S
C1390 H1378 0.950 . S
C1390 C1389 1.398 . S
C1390 C1391 1.391 1_545 S
C1391 H1379 0.950 . S
C1391 C1387 1.393 . S
C1391 C1390 1.391 1_565 S
H1392 C1400 0.950 . S
H1393 C1405 0.950 . S
H1394 C1402 0.950 . S
H1395 C1404 0.950 . S
H1396 C1406 0.950 . S
H1397 C1408 0.950 . S
H1398 C1410 0.950 . S
H1399 C1411 0.950 . S
C1400 H1392 0.950 . S
C1400 C1401 1.386 . S
C1400 C1402 1.391 . S
C1401 C1400 1.386 . S
C1401 C1405 1.393 . S
C1402 H1394 0.950 . S
C1402 C1400 1.391 . S
C1402 C1403 1.400 . S
C1403 C1402 1.400 . S
C1403 C1404 1.398 . S
C1403 C1409 1.491 . S
C1404 H1395 0.950 . S
C1404 C1403 1.398 . S
C1404 C1405 1.391 . S
C1405 H1393 0.950 . S
C1405 C1401 1.393 . S
C1405 C1404 1.391 . S
C1406 H1396 0.950 . S
C1406 C1407 1.386 . S
C1406 C1408 1.391 . S
C1407 C1406 1.386 . S
C1407 C1411 1.393 . S
C1408 H1397 0.950 . S
C1408 C1406 1.391 . S
C1408 C1409 1.400 . S
C1409 C1403 1.491 . S
C1409 C1408 1.400 . S
C1409 C1410 1.398 . S
C1410 H1398 0.950 . S
C1410 C1409 1.398 . S
C1410 C1411 1.391 . S
C1411 H1399 0.950 . S
C1411 C1407 1.393 . S
C1411 C1410 1.391 . S
H1412 C1420 0.950 . S
H1413 C1425 0.950 . S
H1414 C1422 0.950 . S
H1415 C1424 0.950 . S
H1416 C1426 0.950 . S
H1417 C1428 0.950 . S
H1418 C1430 0.950 . S
H1419 C1431 0.950 . S
C1420 H1412 0.950 . S
C1420 C1421 1.386 . S
C1420 C1422 1.391 1_565 S
C1421 C1420 1.386 . S
C1421 C1425 1.393 . S
C1422 H1414 0.950 . S
C1422 C1420 1.391 1_545 S
C1422 C1423 1.400 . S
C1423 C1422 1.400 . S
C1423 C1424 1.398 . S
C1423 C1429 1.491 . S
C1424 H1415 0.950 . S
C1424 C1423 1.398 . S
C1424 C1425 1.391 1_545 S
C1425 H1413 0.950 . S
C1425 C1421 1.393 . S
C1425 C1424 1.391 1_565 S
C1426 H1416 0.950 . S
C1426 C1427 1.386 . S
C1426 C1428 1.391 . S
C1427 C1426 1.386 . S
C1427 C1431 1.393 . S
C1428 H1417 0.950 . S
C1428 C1426 1.391 . S
C1428 C1429 1.400 . S
C1429 C1423 1.491 . S
C1429 C1428 1.400 . S
C1429 C1430 1.398 . S
C1430 H1418 0.950 . S
C1430 C1429 1.398 . S
C1430 C1431 1.391 . S
C1431 H1419 0.950 . S
C1431 C1427 1.393 . S
C1431 C1430 1.391 . S
H1432 C1440 0.950 . S
H1433 C1445 0.950 . S
H1434 C1442 0.950 . S
H1435 C1444 0.950 . S
H1436 C1446 0.950 . S
H1437 C1448 0.950 . S
H1438 C1450 0.950 . S
H1439 C1451 0.950 . S
C1440 H1432 0.950 . S
C1440 C1441 1.386 . S
C1440 C1442 1.391 . S
C1441 C1440 1.386 . S
C1441 C1445 1.393 . S
C1442 H1434 0.950 . S
C1442 C1440 1.391 . S
C1442 C1443 1.400 . S
C1443 C1442 1.400 . S
C1443 C1444 1.398 . S
C1443 C1449 1.491 . S
C1444 H1435 0.950 . S
C1444 C1443 1.398 . S
C1444 C1445 1.391 . S
C1445 H1433 0.950 . S
C1445 C1441 1.393 . S
C1445 C1444 1.391 . S
C1446 H1436 0.950 . S
C1446 C1447 1.386 . S
C1446 C1448 1.391 . S
C1447 C1446 1.386 . S
C1447 C1451 1.393 . S
C1448 H1437 0.950 . S
C1448 C1446 1.391 . S
C1448 C1449 1.400 . S
C1449 C1443 1.491 . S
C1449 C1448 1.400 . S
C1449 C1450 1.398 . S
C1450 H1438 0.950 . S
C1450 C1449 1.398 . S
C1450 C1451 1.391 . S
C1451 H1439 0.950 . S
C1451 C1447 1.393 . S
C1451 C1450 1.391 . S
H1452 C1460 0.950 . S
H1453 C1465 0.950 . S
H1454 C1462 0.950 . S
H1455 C1464 0.950 . S
H1456 C1466 0.950 . S
H1457 C1468 0.950 . S
H1458 C1470 0.950 . S
H1459 C1471 0.943 1_565 S
C1460 H1452 0.950 . S
C1460 C1461 1.386 . S
C1460 C1462 1.391 . S
C1461 C1460 1.386 . S
C1461 C1465 1.393 . S
C1462 H1454 0.950 . S
C1462 C1460 1.391 . S
C1462 C1463 1.400 . S
C1463 C1462 1.400 . S
C1463 C1464 1.398 . S
C1463 C1469 1.491 . S
C1464 H1455 0.950 . S
C1464 C1463 1.398 . S
C1464 C1465 1.391 . S
C1465 H1453 0.950 . S
C1465 C1461 1.393 . S
C1465 C1464 1.391 . S
C1466 H1456 0.950 . S
C1466 C1467 1.386 . S
C1466 C1468 1.391 1_565 S
C1467 C1466 1.386 . S
C1467 C1471 1.393 1_565 S
C1468 H1457 0.950 . S
C1468 C1466 1.391 1_545 S
C1468 C1469 1.400 . S
C1469 C1463 1.491 . S
C1469 C1468 1.400 . S
C1469 C1470 1.398 . S
C1470 H1458 0.950 . S
C1470 C1469 1.398 . S
C1470 C1471 1.391 . S
C1471 H1459 0.943 1_545 S
C1471 C1467 1.393 1_545 S
C1471 C1470 1.391 . S
H1472 C1480 0.950 . S
H1473 C1485 0.950 . S
H1474 C1482 0.950 . S
H1475 C1484 0.950 . S
H1476 C1486 0.950 . S
H1477 C1488 0.950 . S
H1478 C1490 0.950 . S
H1479 C1491 0.950 . S
C1480 H1472 0.950 . S
C1480 C1481 1.386 . S
C1480 C1482 1.391 . S
C1481 C1480 1.386 . S
C1481 C1485 1.393 . S
C1482 H1474 0.950 . S
C1482 C1480 1.391 . S
C1482 C1483 1.400 . S
C1483 C1482 1.400 . S
C1483 C1484 1.398 . S
C1483 C1489 1.491 . S
C1484 H1475 0.950 . S
C1484 C1483 1.398 . S
C1484 C1485 1.391 . S
C1485 H1473 0.950 . S
C1485 C1481 1.393 . S
C1485 C1484 1.391 . S
C1486 H1476 0.950 . S
C1486 C1487 1.386 . S
C1486 C1488 1.391 . S
C1487 C1486 1.386 . S
C1487 C1491 1.393 . S
C1488 H1477 0.950 . S
C1488 C1486 1.391 . S
C1488 C1489 1.400 . S
C1489 C1483 1.491 . S
C1489 C1488 1.400 . S
C1489 C1490 1.398 . S
C1490 H1478 0.950 . S
C1490 C1489 1.398 . S
C1490 C1491 1.391 . S
C1491 H1479 0.950 . S
C1491 C1487 1.393 . S
C1491 C1490 1.391 . S
H1492 C1500 0.950 . S
H1493 C1505 0.950 . S
H1494 C1502 0.950 . S
H1495 C1504 0.950 . S
H1496 C1506 0.950 . S
H1497 C1508 0.950 . S
H1498 C1510 0.950 . S
H1499 C1511 0.950 . S
C1500 H1492 0.950 . S
C1500 C1501 1.386 . S
C1500 C1502 1.391 . S
C1501 C1500 1.386 . S
C1501 C1505 1.393 . S
C1502 H1494 0.950 . S
C1502 C1500 1.391 . S
C1502 C1503 1.400 . S
C1503 C1502 1.400 . S
C1503 C1504 1.398 . S
C1503 C1509 1.491 . S
C1504 H1495 0.950 . S
C1504 C1503 1.398 . S
C1504 C1505 1.391 . S
C1505 H1493 0.950 . S
C1505 C1501 1.393 . S
C1505 C1504 1.391 . S
C1506 H1496 0.950 . S
C1506 C1507 1.386 . S
C1506 C1508 1.391 . S
C1507 C1506 1.386 . S
C1507 C1511 1.393 . S
C1508 H1497 0.950 . S
C1508 C1506 1.391 . S
C1508 C1509 1.400 . S
C1509 C1503 1.491 . S
C1509 C1508 1.400 . S
C1509 C1510 1.398 . S
C1510 H1498 0.950 . S
C1510 C1509 1.398 . S
C1510 C1511 1.391 . S
C1511 H1499 0.950 . S
C1511 C1507 1.393 . S
C1511 C1510 1.391 . S
H1512 C1520 0.950 . S
H1513 C1525 0.950 . S
H1514 C1522 0.950 . S
H1515 C1524 0.950 . S
H1516 C1526 0.950 . S
H1517 C1528 0.950 . S
H1518 C1530 0.950 . S
H1519 C1531 0.950 . S
C1520 H1512 0.950 . S
C1520 C1521 1.386 . S
C1520 C1522 1.391 . S
C1521 C1520 1.386 . S
C1521 C1525 1.393 . S
C1522 H1514 0.950 . S
C1522 C1520 1.391 . S
C1522 C1523 1.400 1_655 S
C1523 C1522 1.400 1_455 S
C1523 C1524 1.398 . S
C1523 C1529 1.491 . S
C1524 H1515 0.950 . S
C1524 C1523 1.398 . S
C1524 C1525 1.391 1_455 S
C1525 H1513 0.950 . S
C1525 C1521 1.393 . S
C1525 C1524 1.391 1_655 S
C1526 H1516 0.950 . S
C1526 C1527 1.386 . S
C1526 C1528 1.391 . S
C1527 C1526 1.386 . S
C1527 C1531 1.393 . S
C1528 H1517 0.950 . S
C1528 C1526 1.391 . S
C1528 C1529 1.400 . S
C1529 C1523 1.491 . S
C1529 C1528 1.400 . S
C1529 C1530 1.398 . S
C1530 H1518 0.950 . S
C1530 C1529 1.398 . S
C1530 C1531 1.391 . S
C1531 H1519 0.950 . S
C1531 C1527 1.393 . S
C1531 C1530 1.391 . S
H1532 C1540 0.950 . S
H1533 C1545 0.950 . S
H1534 C1542 0.950 . S
H1535 C1544 0.950 . S
H1536 C1546 0.950 . S
H1537 C1548 0.950 . S
H1538 C1550 0.950 . S
H1539 C1551 0.950 . S
C1540 H1532 0.950 . S
C1540 C1541 1.386 . S
C1540 C1542 1.391 . S
C1541 C1540 1.386 . S
C1541 C1545 1.393 . S
C1542 H1534 0.950 . S
C1542 C1540 1.391 . S
C1542 C1543 1.400 . S
C1543 C1542 1.400 . S
C1543 C1544 1.398 . S
C1543 C1549 1.491 . S
C1544 H1535 0.950 . S
C1544 C1543 1.398 . S
C1544 C1545 1.391 . S
C1545 H1533 0.950 . S
C1545 C1541 1.393 . S
C1545 C1544 1.391 . S
C1546 H1536 0.950 . S
C1546 C1547 1.386 . S
C1546 C1548 1.391 . S
C1547 C1546 1.386 . S
C1547 C1551 1.393 . S
C1548 H1537 0.950 . S
C1548 C1546 1.391 . S
C1548 C1549 1.400 . S
C1549 C1543 1.491 . S
C1549 C1548 1.400 . S
C1549 C1550 1.398 . S
C1550 H1538 0.950 . S
C1550 C1549 1.398 . S
C1550 C1551 1.391 . S
C1551 H1539 0.950 . S
C1551 C1547 1.393 . S
C1551 C1550 1.391 . S
H1552 C1560 0.950 . S
H1553 C1565 0.950 . S
H1554 C1562 0.950 . S
H1555 C1564 0.950 . S
H1556 C1566 0.950 . S
H1557 C1568 0.947 1_545 S
H1558 C1570 0.950 . S
H1559 C1571 0.950 . S
C1560 H1552 0.950 . S
C1560 C1561 1.386 . S
C1560 C1562 1.391 . S
C1561 C1560 1.386 . S
C1561 C1565 1.393 . S
C1562 H1554 0.950 . S
C1562 C1560 1.391 . S
C1562 C1563 1.400 . S
C1563 C1562 1.400 . S
C1563 C1564 1.398 . S
C1563 C1569 1.491 . S
C1564 H1555 0.950 . S
C1564 C1563 1.398 . S
C1564 C1565 1.391 . S
C1565 H1553 0.950 . S
C1565 C1561 1.393 . S
C1565 C1564 1.391 . S
C1566 H1556 0.950 . S
C1566 C1567 1.386 . S
C1566 C1568 1.394 . S
C1567 C1566 1.386 . S
C1567 C1571 1.393 . S
C1568 H1557 0.947 1_565 S
C1568 C1566 1.394 . S
C1568 C1569 1.400 1_665 S
C1569 C1563 1.491 . S
C1569 C1568 1.400 1_445 S
C1569 C1570 1.398 1_545 S
C1570 H1558 0.950 . S
C1570 C1569 1.398 1_565 S
C1570 C1571 1.391 1_455 S
C1571 H1559 0.950 . S
C1571 C1567 1.393 . S
C1571 C1570 1.391 1_655 S
H1572 C1580 0.950 . S
H1573 C1585 0.950 . S
H1574 C1582 0.950 . S
H1575 C1584 0.950 . S
H1576 C1586 0.950 . S
H1577 C1588 0.950 . S
H1578 C1590 0.950 . S
H1579 C1591 0.950 . S
C1580 H1572 0.950 . S
C1580 C1581 1.386 . S
C1580 C1582 1.391 . S
C1581 C1580 1.386 . S
C1581 C1585 1.393 . S
C1582 H1574 0.950 . S
C1582 C1580 1.391 . S
C1582 C1583 1.400 . S
C1583 C1582 1.400 . S
C1583 C1584 1.398 . S
C1583 C1589 1.491 . S
C1584 H1575 0.950 . S
C1584 C1583 1.398 . S
C1584 C1585 1.391 . S
C1585 H1573 0.950 . S
C1585 C1581 1.393 . S
C1585 C1584 1.391 . S
C1586 H1576 0.950 . S
C1586 C1587 1.386 . S
C1586 C1588 1.391 . S
C1587 C1586 1.386 . S
C1587 C1591 1.393 . S
C1588 H1577 0.950 . S
C1588 C1586 1.391 . S
C1588 C1589 1.400 . S
C1589 C1583 1.491 . S
C1589 C1588 1.400 . S
C1589 C1590 1.398 . S
C1590 H1578 0.950 . S
C1590 C1589 1.398 . S
C1590 C1591 1.391 . S
C1591 H1579 0.950 . S
C1591 C1587 1.393 . S
C1591 C1590 1.391 . S
H1592 C1600 0.950 . S
H1593 C1605 0.950 . S
H1594 C1602 0.950 . S
H1595 C1604 0.950 . S
H1596 C1606 0.950 . S
H1597 C1608 0.950 . S
H1598 C1610 0.950 . S
H1599 C1611 0.950 . S
C1600 H1592 0.950 . S
C1600 C1601 1.386 . S
C1600 C1602 1.391 1_655 S
C1601 C1600 1.386 . S
C1601 C1605 1.393 . S
C1602 H1594 0.950 . S
C1602 C1600 1.391 1_455 S
C1602 C1603 1.400 . S
C1603 C1602 1.400 . S
C1603 C1604 1.398 1_455 S
C1603 C1609 1.491 . S
C1604 H1595 0.950 . S
C1604 C1603 1.398 1_655 S
C1604 C1605 1.391 . S
C1605 H1593 0.950 . S
C1605 C1601 1.393 . S
C1605 C1604 1.391 . S
C1606 H1596 0.950 . S
C1606 C1607 1.386 . S
C1606 C1608 1.391 . S
C1607 C1606 1.386 . S
C1607 C1611 1.393 . S
C1608 H1597 0.950 . S
C1608 C1606 1.391 . S
C1608 C1609 1.400 . S
C1609 C1603 1.491 . S
C1609 C1608 1.400 . S
C1609 C1610 1.398 . S
C1610 H1598 0.950 . S
C1610 C1609 1.398 . S
C1610 C1611 1.391 . S
C1611 H1599 0.950 . S
C1611 C1607 1.393 . S
C1611 C1610 1.391 . S
H1612 C1620 0.950 . S
H1613 C1625 0.950 . S
H1614 C1622 0.950 . S
H1615 C1624 0.950 . S
H1616 C1626 0.950 . S
H1617 C1628 0.950 . S
H1618 C1630 0.950 . S
H1619 C1631 0.950 . S
C1620 H1612 0.950 . S
C1620 C1621 1.386 . S
C1620 C1622 1.391 . S
C1621 C1620 1.386 . S
C1621 C1625 1.393 . S
C1622 H1614 0.950 . S
C1622 C1620 1.391 . S
C1622 C1623 1.400 . S
C1623 C1622 1.400 . S
C1623 C1624 1.398 . S
C1623 C1629 1.491 . S
C1624 H1615 0.950 . S
C1624 C1623 1.398 . S
C1624 C1625 1.391 . S
C1625 H1613 0.950 . S
C1625 C1621 1.393 . S
C1625 C1624 1.391 . S
C1626 H1616 0.950 . S
C1626 C1627 1.386 . S
C1626 C1628 1.391 . S
C1627 C1626 1.386 . S
C1627 C1631 1.393 . S
C1628 H1617 0.950 . S
C1628 C1626 1.391 . S
C1628 C1629 1.400 . S
C1629 C1623 1.491 . S
C1629 C1628 1.400 . S
C1629 C1630 1.398 . S
C1630 H1618 0.950 . S
C1630 C1629 1.398 . S
C1630 C1631 1.391 . S
C1631 H1619 0.950 . S
C1631 C1627 1.393 . S
C1631 C1630 1.391 . S
H1632 C1640 0.950 . S
H1633 C1645 0.950 . S
H1634 C1642 0.950 . S
H1635 C1644 0.950 . S
H1636 C1646 0.950 . S
H1637 C1648 0.950 . S
H1638 C1650 0.950 . S
H1639 C1651 0.950 . S
C1640 H1632 0.950 . S
C1640 C1641 1.386 . S
C1640 C1642 1.391 . S
C1641 C1640 1.386 . S
C1641 C1645 1.393 . S
C1642 H1634 0.950 . S
C1642 C1640 1.391 . S
C1642 C1643 1.400 . S
C1643 C1642 1.400 . S
C1643 C1644 1.398 . S
C1643 C1649 1.491 . S
C1644 H1635 0.950 . S
C1644 C1643 1.398 . S
C1644 C1645 1.391 . S
C1645 H1633 0.950 . S
C1645 C1641 1.393 . S
C1645 C1644 1.391 . S
C1646 H1636 0.950 . S
C1646 C1647 1.386 . S
C1646 C1648 1.391 . S
C1647 C1646 1.386 . S
C1647 C1651 1.393 . S
C1648 H1637 0.950 . S
C1648 C1646 1.391 . S
C1648 C1649 1.400 . S
C1649 C1643 1.491 . S
C1649 C1648 1.400 . S
C1649 C1650 1.398 . S
C1650 H1638 0.950 . S
C1650 C1649 1.398 . S
C1650 C1651 1.391 . S
C1651 H1639 0.950 . S
C1651 C1647 1.393 . S
C1651 C1650 1.391 . S
H1652 C1660 0.950 . S
H1653 C1665 0.950 . S
H1654 C1662 0.950 . S
H1655 C1664 0.950 . S
H1656 C1666 0.950 . S
H1657 C1668 0.950 . S
H1658 C1670 0.950 . S
H1659 C1671 0.950 . S
C1660 H1652 0.950 . S
C1660 C1661 1.386 . S
C1660 C1662 1.391 . S
C1661 C1660 1.386 . S
C1661 C1665 1.393 . S
C1662 H1654 0.950 . S
C1662 C1660 1.391 . S
C1662 C1663 1.400 . S
C1663 C1662 1.400 . S
C1663 C1664 1.398 . S
C1663 C1669 1.491 . S
C1664 H1655 0.950 . S
C1664 C1663 1.398 . S
C1664 C1665 1.391 . S
C1665 H1653 0.950 . S
C1665 C1661 1.393 . S
C1665 C1664 1.391 . S
C1666 H1656 0.950 . S
C1666 C1667 1.386 . S
C1666 C1668 1.391 1_556 S
C1667 C1666 1.386 . S
C1667 C1671 1.393 . S
C1668 H1657 0.950 . S
C1668 C1666 1.391 1_554 S
C1668 C1669 1.400 . S
C1669 C1663 1.491 . S
C1669 C1668 1.400 . S
C1669 C1670 1.398 1_554 S
C1670 H1658 0.950 . S
C1670 C1669 1.398 1_556 S
C1670 C1671 1.391 . S
C1671 H1659 0.950 . S
C1671 C1667 1.393 . S
C1671 C1670 1.391 . S
H1672 C1680 0.950 . S
H1673 C1685 0.950 . S
H1674 C1682 0.950 . S
H1675 C1684 0.950 . S
H1676 C1686 0.950 . S
H1677 C1688 0.950 . S
H1678 C1690 0.950 . S
H1679 C1691 0.950 . S
C1680 H1672 0.950 . S
C1680 C1681 1.386 . S
C1680 C1682 1.391 . S
C1681 C1680 1.386 . S
C1681 C1685 1.393 1_455 S
C1682 H1674 0.950 . S
C1682 C1680 1.391 . S
C1682 C1683 1.400 1_455 S
C1683 C1682 1.400 1_655 S
C1683 C1684 1.398 . S
C1683 C1689 1.491 . S
C1684 H1675 0.950 . S
C1684 C1683 1.398 . S
C1684 C1685 1.391 . S
C1685 H1673 0.950 . S
C1685 C1681 1.393 1_655 S
C1685 C1684 1.391 . S
C1686 H1676 0.950 . S
C1686 C1687 1.386 . S
C1686 C1688 1.391 . S
C1687 C1686 1.386 . S
C1687 C1691 1.393 . S
C1688 H1677 0.950 . S
C1688 C1686 1.391 . S
C1688 C1689 1.400 . S
C1689 C1683 1.491 . S
C1689 C1688 1.400 . S
C1689 C1690 1.398 . S
C1690 H1678 0.950 . S
C1690 C1689 1.398 . S
C1690 C1691 1.391 . S
C1691 H1679 0.950 . S
C1691 C1687 1.393 . S
C1691 C1690 1.391 . S
H1692 C1700 0.950 1_455 S
H1693 C1705 0.950 . S
H1694 C1702 0.950 . S
H1695 C1704 0.950 . S
H1696 C1706 0.950 . S
H1697 C1708 0.950 . S
H1698 C1710 0.950 . S
H1699 C1711 0.950 . S
C1700 H1692 0.950 1_655 S
C1700 C1701 1.386 . S
C1700 C1702 1.391 . S
C1701 C1700 1.386 . S
C1701 C1705 1.393 . S
C1702 H1694 0.950 . S
C1702 C1700 1.391 . S
C1702 C1703 1.400 . S
C1703 C1702 1.400 . S
C1703 C1704 1.398 . S
C1703 C1709 1.491 . S
C1704 H1695 0.950 . S
C1704 C1703 1.398 . S
C1704 C1705 1.391 . S
C1705 H1693 0.950 . S
C1705 C1701 1.393 . S
C1705 C1704 1.391 . S
C1706 H1696 0.950 . S
C1706 C1707 1.386 . S
C1706 C1708 1.391 . S
C1707 C1706 1.386 . S
C1707 C1711 1.393 . S
C1708 H1697 0.950 . S
C1708 C1706 1.391 . S
C1708 C1709 1.400 . S
C1709 C1703 1.491 . S
C1709 C1708 1.400 . S
C1709 C1710 1.398 . S
C1710 H1698 0.950 . S
C1710 C1709 1.398 . S
C1710 C1711 1.391 . S
C1711 H1699 0.950 . S
C1711 C1707 1.393 . S
C1711 C1710 1.391 . S
H1712 C1720 0.950 . S
H1713 C1725 0.950 . S
H1714 C1722 0.950 . S
H1715 C1724 0.950 . S
H1716 C1726 0.950 . S
H1717 C1728 0.950 . S
H1718 C1730 0.950 . S
H1719 C1731 0.950 . S
C1720 H1712 0.950 . S
C1720 C1721 1.386 . S
C1720 C1722 1.391 . S
C1721 C1720 1.386 . S
C1721 C1725 1.393 . S
C1722 H1714 0.950 . S
C1722 C1720 1.391 . S
C1722 C1723 1.400 . S
C1723 C1722 1.400 . S
C1723 C1724 1.398 . S
C1723 C1729 1.491 . S
C1724 H1715 0.950 . S
C1724 C1723 1.398 . S
C1724 C1725 1.391 . S
C1725 H1713 0.950 . S
C1725 C1721 1.393 . S
C1725 C1724 1.391 . S
C1726 H1716 0.950 . S
C1726 C1727 1.386 . S
C1726 C1728 1.391 . S
C1727 C1726 1.386 . S
C1727 C1731 1.393 . S
C1728 H1717 0.950 . S
C1728 C1726 1.391 . S
C1728 C1729 1.400 . S
C1729 C1723 1.491 . S
C1729 C1728 1.400 . S
C1729 C1730 1.398 . S
C1730 H1718 0.950 . S
C1730 C1729 1.398 . S
C1730 C1731 1.391 . S
C1731 H1719 0.950 . S
C1731 C1727 1.393 . S
C1731 C1730 1.391 . S
H1732 C1740 0.950 . S
H1733 C1745 0.950 . S
H1734 C1742 0.950 . S
H1735 C1744 0.950 . S
H1736 C1746 0.950 . S
H1737 C1748 0.950 . S
H1738 C1750 0.950 . S
H1739 C1751 0.950 . S
C1740 H1732 0.950 . S
C1740 C1741 1.386 . S
C1740 C1742 1.391 1_556 S
C1741 C1740 1.386 . S
C1741 C1745 1.393 1_455 S
C1742 H1734 0.950 . S
C1742 C1740 1.391 1_554 S
C1742 C1743 1.400 . S
C1743 C1742 1.400 . S
C1743 C1744 1.398 1_454 S
C1743 C1749 1.491 1_455 S
C1744 H1735 0.950 . S
C1744 C1743 1.398 1_656 S
C1744 C1745 1.391 . S
C1745 H1733 0.950 . S
C1745 C1741 1.393 1_655 S
C1745 C1744 1.391 . S
C1746 H1736 0.950 . S
C1746 C1747 1.386 . S
C1746 C1748 1.391 . S
C1747 C1746 1.386 . S
C1747 C1751 1.393 1_655 S
C1748 H1737 0.950 . S
C1748 C1746 1.391 . S
C1748 C1749 1.400 . S
C1749 C1743 1.491 1_655 S
C1749 C1748 1.400 . S
C1749 C1750 1.398 1_655 S
C1750 H1738 0.950 . S
C1750 C1749 1.398 1_455 S
C1750 C1751 1.391 . S
C1751 H1739 0.950 . S
C1751 C1747 1.393 1_455 S
C1751 C1750 1.391 . S
H1752 C1760 0.950 1_455 S
H1753 C1765 0.950 . S
H1754 C1762 0.950 . S
H1755 C1764 0.950 . S
H1756 C1766 0.950 . S
H1757 C1768 0.950 . S
H1758 C1770 0.950 . S
H1759 C1771 0.950 . S
C1760 H1752 0.950 1_655 S
C1760 C1761 1.386 . S
C1760 C1762 1.391 . S
C1761 C1760 1.386 . S
C1761 C1765 1.393 . S
C1762 H1754 0.950 . S
C1762 C1760 1.391 . S
C1762 C1763 1.400 . S
C1763 C1762 1.400 . S
C1763 C1764 1.398 . S
C1763 C1769 1.491 . S
C1764 H1755 0.950 . S
C1764 C1763 1.398 . S
C1764 C1765 1.391 . S
C1765 H1753 0.950 . S
C1765 C1761 1.393 . S
C1765 C1764 1.391 . S
C1766 H1756 0.950 . S
C1766 C1767 1.386 . S
C1766 C1768 1.391 . S
C1767 C1766 1.386 . S
C1767 C1771 1.393 . S
C1768 H1757 0.950 . S
C1768 C1766 1.391 . S
C1768 C1769 1.400 . S
C1769 C1763 1.491 . S
C1769 C1768 1.400 . S
C1769 C1770 1.398 . S
C1770 H1758 0.950 . S
C1770 C1769 1.398 . S
C1770 C1771 1.391 . S
C1771 H1759 0.950 . S
C1771 C1767 1.393 . S
C1771 C1770 1.391 . S
H1772 C1780 0.950 . S
H1773 C1785 0.950 . S
H1774 C1782 0.950 . S
H1775 C1784 0.950 . S
H1776 C1786 0.950 . S
H1777 C1788 0.950 . S
H1778 C1790 0.950 . S
H1779 C1791 0.950 . S
C1780 H1772 0.950 . S
C1780 C1781 1.386 . S
C1780 C1782 1.391 . S
C1781 C1780 1.386 . S
C1781 C1785 1.393 . S
C1782 H1774 0.950 . S
C1782 C1780 1.391 . S
C1782 C1783 1.400 . S
C1783 C1782 1.400 . S
C1783 C1784 1.398 . S
C1783 C1789 1.491 . S
C1784 H1775 0.950 . S
C1784 C1783 1.398 . S
C1784 C1785 1.391 . S
C1785 H1773 0.950 . S
C1785 C1781 1.393 . S
C1785 C1784 1.391 . S
C1786 H1776 0.950 . S
C1786 C1787 1.386 . S
C1786 C1788 1.391 . S
C1787 C1786 1.386 . S
C1787 C1791 1.393 . S
C1788 H1777 0.950 . S
C1788 C1786 1.391 . S
C1788 C1789 1.400 . S
C1789 C1783 1.491 . S
C1789 C1788 1.400 . S
C1789 C1790 1.398 . S
C1790 H1778 0.950 . S
C1790 C1789 1.398 . S
C1790 C1791 1.391 . S
C1791 H1779 0.950 . S
C1791 C1787 1.393 . S
C1791 C1790 1.391 . S
H1792 C1800 0.950 . S
H1793 C1805 0.950 . S
H1794 C1802 0.950 . S
H1795 C1804 0.950 . S
H1796 C1806 0.950 . S
H1797 C1808 0.950 . S
H1798 C1810 0.950 . S
H1799 C1811 0.950 . S
C1800 H1792 0.950 . S
C1800 C1801 1.386 . S
C1800 C1802 1.391 . S
C1801 C1800 1.386 . S
C1801 C1805 1.393 . S
C1802 H1794 0.950 . S
C1802 C1800 1.391 . S
C1802 C1803 1.400 . S
C1803 C1802 1.400 . S
C1803 C1804 1.398 . S
C1803 C1809 1.491 . S
C1804 H1795 0.950 . S
C1804 C1803 1.398 . S
C1804 C1805 1.391 . S
C1805 H1793 0.950 . S
C1805 C1801 1.393 . S
C1805 C1804 1.391 . S
C1806 H1796 0.950 . S
C1806 C1807 1.386 . S
C1806 C1808 1.391 . S
C1807 C1806 1.386 . S
C1807 C1811 1.393 . S
C1808 H1797 0.950 . S
C1808 C1806 1.391 . S
C1808 C1809 1.400 . S
C1809 C1803 1.491 . S
C1809 C1808 1.400 . S
C1809 C1810 1.398 . S
C1810 H1798 0.950 . S
C1810 C1809 1.398 . S
C1810 C1811 1.391 . S
C1811 H1799 0.950 . S
C1811 C1807 1.393 . S
C1811 C1810 1.391 . S
H1812 C1820 0.950 . S
H1813 C1825 0.950 . S
H1814 C1822 0.950 . S
H1815 C1824 0.950 . S
H1816 C1826 0.950 . S
H1817 C1828 0.950 . S
H1818 C1830 0.950 . S
H1819 C1831 0.950 . S
C1820 H1812 0.950 . S
C1820 C1821 1.386 . S
C1820 C1822 1.391 . S
C1821 C1820 1.386 . S
C1821 C1825 1.393 . S
C1822 H1814 0.950 . S
C1822 C1820 1.391 . S
C1822 C1823 1.400 . S
C1823 C1822 1.400 . S
C1823 C1824 1.398 . S
C1823 C1829 1.491 . S
C1824 H1815 0.950 . S
C1824 C1823 1.398 . S
C1824 C1825 1.391 . S
C1825 H1813 0.950 . S
C1825 C1821 1.393 . S
C1825 C1824 1.391 . S
C1826 H1816 0.950 . S
C1826 C1827 1.386 . S
C1826 C1828 1.391 . S
C1827 C1826 1.386 . S
C1827 C1831 1.393 . S
C1828 H1817 0.950 . S
C1828 C1826 1.391 . S
C1828 C1829 1.400 . S
C1829 C1823 1.491 . S
C1829 C1828 1.400 . S
C1829 C1830 1.398 . S
C1830 H1818 0.950 . S
C1830 C1829 1.398 . S
C1830 C1831 1.391 . S
C1831 H1819 0.950 . S
C1831 C1827 1.393 . S
C1831 C1830 1.391 . S
H1832 C1840 0.950 . S
H1833 C1845 0.950 . S
H1834 C1842 0.950 . S
H1835 C1844 0.950 . S
H1836 C1846 0.950 . S
H1837 C1848 0.950 . S
H1838 C1850 0.950 . S
H1839 C1851 0.950 . S
C1840 H1832 0.950 . S
C1840 C1841 1.386 . S
C1840 C1842 1.391 . S
C1841 C1840 1.386 . S
C1841 C1845 1.393 . S
C1842 H1834 0.950 . S
C1842 C1840 1.391 . S
C1842 C1843 1.400 . S
C1843 C1842 1.400 . S
C1843 C1844 1.398 . S
C1843 C1849 1.491 . S
C1844 H1835 0.950 . S
C1844 C1843 1.398 . S
C1844 C1845 1.391 . S
C1845 H1833 0.950 . S
C1845 C1841 1.393 . S
C1845 C1844 1.391 . S
C1846 H1836 0.950 . S
C1846 C1847 1.386 . S
C1846 C1848 1.391 . S
C1847 C1846 1.386 . S
C1847 C1851 1.393 . S
C1848 H1837 0.950 . S
C1848 C1846 1.391 . S
C1848 C1849 1.400 . S
C1849 C1843 1.491 . S
C1849 C1848 1.400 . S
C1849 C1850 1.398 . S
C1850 H1838 0.950 . S
C1850 C1849 1.398 . S
C1850 C1851 1.391 . S
C1851 H1839 0.950 . S
C1851 C1847 1.393 . S
C1851 C1850 1.391 . S
H1852 C1860 0.950 . S
H1853 C1865 0.950 . S
H1854 C1862 0.950 . S
H1855 C1864 0.950 . S
H1856 C1866 0.950 . S
H1857 C1868 0.950 . S
H1858 C1870 0.950 . S
H1859 C1871 0.950 . S
C1860 H1852 0.950 . S
C1860 C1861 1.386 . S
C1860 C1862 1.391 . S
C1861 C1860 1.386 . S
C1861 C1865 1.393 . S
C1862 H1854 0.950 . S
C1862 C1860 1.391 . S
C1862 C1863 1.400 . S
C1863 C1862 1.400 . S
C1863 C1864 1.398 . S
C1863 C1869 1.491 . S
C1864 H1855 0.950 . S
C1864 C1863 1.398 . S
C1864 C1865 1.391 . S
C1865 H1853 0.950 . S
C1865 C1861 1.393 . S
C1865 C1864 1.391 . S
C1866 H1856 0.950 . S
C1866 C1867 1.386 . S
C1866 C1868 1.391 . S
C1867 C1866 1.386 . S
C1867 C1871 1.393 . S
C1868 H1857 0.950 . S
C1868 C1866 1.391 . S
C1868 C1869 1.400 . S
C1869 C1863 1.491 . S
C1869 C1868 1.400 . S
C1869 C1870 1.398 . S
C1870 H1858 0.950 . S
C1870 C1869 1.398 . S
C1870 C1871 1.391 . S
C1871 H1859 0.950 . S
C1871 C1867 1.393 . S
C1871 C1870 1.391 . S
H1872 C1880 0.950 . S
H1873 C1885 0.950 . S
H1874 C1882 0.950 . S
H1875 C1884 0.950 . S
H1876 C1886 0.950 . S
H1877 C1888 0.950 . S
H1878 C1890 0.950 . S
H1879 C1891 0.950 . S
C1880 H1872 0.950 . S
C1880 C1881 1.386 . S
C1880 C1882 1.391 . S
C1881 C1880 1.386 . S
C1881 C1885 1.393 . S
C1882 H1874 0.950 . S
C1882 C1880 1.391 . S
C1882 C1883 1.400 . S
C1883 C1882 1.400 . S
C1883 C1884 1.398 . S
C1883 C1889 1.491 . S
C1884 H1875 0.950 . S
C1884 C1883 1.398 . S
C1884 C1885 1.391 . S
C1885 H1873 0.950 . S
C1885 C1881 1.393 . S
C1885 C1884 1.391 . S
C1886 H1876 0.950 . S
C1886 C1887 1.386 . S
C1886 C1888 1.391 . S
C1887 C1886 1.386 . S
C1887 C1891 1.393 . S
C1888 H1877 0.950 . S
C1888 C1886 1.391 . S
C1888 C1889 1.400 . S
C1889 C1883 1.491 . S
C1889 C1888 1.400 . S
C1889 C1890 1.398 . S
C1890 H1878 0.950 . S
C1890 C1889 1.398 . S
C1890 C1891 1.391 . S
C1891 H1879 0.950 . S
C1891 C1887 1.393 . S
C1891 C1890 1.391 . S
H1892 C1900 0.950 . S
H1893 C1905 0.950 . S
H1894 C1902 0.950 . S
H1895 C1904 0.950 . S
H1896 C1906 0.950 . S
H1897 C1908 0.950 . S
H1898 C1910 0.950 . S
H1899 C1911 0.950 . S
C1900 H1892 0.950 . S
C1900 C1901 1.386 . S
C1900 C1902 1.391 . S
C1901 C1900 1.386 . S
C1901 C1905 1.393 . S
C1902 H1894 0.950 . S
C1902 C1900 1.391 . S
C1902 C1903 1.400 . S
C1903 C1902 1.400 . S
C1903 C1904 1.398 . S
C1903 C1909 1.491 . S
C1904 H1895 0.950 . S
C1904 C1903 1.398 . S
C1904 C1905 1.391 . S
C1905 H1893 0.950 . S
C1905 C1901 1.393 . S
C1905 C1904 1.391 . S
C1906 H1896 0.950 . S
C1906 C1907 1.386 . S
C1906 C1908 1.391 . S
C1907 C1906 1.386 . S
C1907 C1911 1.393 . S
C1908 H1897 0.950 . S
C1908 C1906 1.391 . S
C1908 C1909 1.400 . S
C1909 C1903 1.491 . S
C1909 C1908 1.400 . S
C1909 C1910 1.398 . S
C1910 H1898 0.950 . S
C1910 C1909 1.398 . S
C1910 C1911 1.391 . S
C1911 H1899 0.950 . S
C1911 C1907 1.393 . S
C1911 C1910 1.391 . S
H1912 C1920 0.950 . S
H1913 C1925 0.950 . S
H1914 C1922 0.950 . S
H1915 C1924 0.950 . S
H1916 C1926 0.950 . S
H1917 C1928 0.950 . S
H1918 C1930 0.950 . S
H1919 C1931 0.950 . S
C1920 H1912 0.950 . S
C1920 C1921 1.386 . S
C1920 C1922 1.391 . S
C1921 C1920 1.386 . S
C1921 C1925 1.393 . S
C1922 H1914 0.950 . S
C1922 C1920 1.391 . S
C1922 C1923 1.400 . S
C1923 C1922 1.400 . S
C1923 C1924 1.398 . S
C1923 C1929 1.491 . S
C1924 H1915 0.950 . S
C1924 C1923 1.398 . S
C1924 C1925 1.391 . S
C1925 H1913 0.950 . S
C1925 C1921 1.393 . S
C1925 C1924 1.391 . S
C1926 H1916 0.950 . S
C1926 C1927 1.386 . S
C1926 C1928 1.391 . S
C1927 C1926 1.386 . S
C1927 C1931 1.393 . S
C1928 H1917 0.950 . S
C1928 C1926 1.391 . S
C1928 C1929 1.400 . S
C1929 C1923 1.491 . S
C1929 C1928 1.400 . S
C1929 C1930 1.398 . S
C1930 H1918 0.950 . S
C1930 C1929 1.398 . S
C1930 C1931 1.391 . S
C1931 H1919 0.950 . S
C1931 C1927 1.393 . S
C1931 C1930 1.391 . S
H1932 C1940 0.950 . S
H1933 C1945 0.950 . S
H1934 C1942 0.950 . S
H1935 C1944 0.950 . S
H1936 C1946 0.950 . S
H1937 C1948 0.950 . S
H1938 C1950 0.950 . S
H1939 C1951 0.950 . S
C1940 H1932 0.950 . S
C1940 C1941 1.386 . S
C1940 C1942 1.391 . S
C1941 C1940 1.386 . S
C1941 C1945 1.393 . S
C1942 H1934 0.950 . S
C1942 C1940 1.391 . S
C1942 C1943 1.400 . S
C1943 C1942 1.400 . S
C1943 C1944 1.398 . S
C1943 C1949 1.491 . S
C1944 H1935 0.950 . S
C1944 C1943 1.398 . S
C1944 C1945 1.391 . S
C1945 H1933 0.950 . S
C1945 C1941 1.393 . S
C1945 C1944 1.391 . S
C1946 H1936 0.950 . S
C1946 C1947 1.386 . S
C1946 C1948 1.391 . S
C1947 C1946 1.386 . S
C1947 C1951 1.393 . S
C1948 H1937 0.950 . S
C1948 C1946 1.391 . S
C1948 C1949 1.400 . S
C1949 C1943 1.491 . S
C1949 C1948 1.400 . S
C1949 C1950 1.398 . S
C1950 H1938 0.950 . S
C1950 C1949 1.398 . S
C1950 C1951 1.391 . S
C1951 H1939 0.950 . S
C1951 C1947 1.393 . S
C1951 C1950 1.391 . S
H1952 C1960 0.950 . S
H1953 C1965 0.950 . S
H1954 C1962 0.950 . S
H1955 C1964 0.950 . S
H1956 C1966 0.950 . S
H1957 C1968 0.950 . S
H1958 C1970 0.950 . S
H1959 C1971 0.950 . S
C1960 H1952 0.950 . S
C1960 C1961 1.386 . S
C1960 C1962 1.391 . S
C1961 C1960 1.386 . S
C1961 C1965 1.393 . S
C1962 H1954 0.950 . S
C1962 C1960 1.391 . S
C1962 C1963 1.400 . S
C1963 C1962 1.400 . S
C1963 C1964 1.398 . S
C1963 C1969 1.491 . S
C1964 H1955 0.950 . S
C1964 C1963 1.398 . S
C1964 C1965 1.391 . S
C1965 H1953 0.950 . S
C1965 C1961 1.393 . S
C1965 C1964 1.391 . S
C1966 H1956 0.950 . S
C1966 C1967 1.386 . S
C1966 C1968 1.391 . S
C1967 C1966 1.386 . S
C1967 C1971 1.393 . S
C1968 H1957 0.950 . S
C1968 C1966 1.391 . S
C1968 C1969 1.400 . S
C1969 C1963 1.491 . S
C1969 C1968 1.400 . S
C1969 C1970 1.398 . S
C1970 H1958 0.950 . S
C1970 C1969 1.398 . S
C1970 C1971 1.391 . S
C1971 H1959 0.950 . S
C1971 C1967 1.393 . S
C1971 C1970 1.391 . S
H1972 C1980 0.950 . S
H1973 C1985 0.950 . S
H1974 C1982 0.950 . S
H1975 C1984 0.950 . S
H1976 C1986 0.950 . S
H1977 C1988 0.950 . S
H1978 C1990 0.950 . S
H1979 C1991 0.950 . S
C1980 H1972 0.950 . S
C1980 C1981 1.386 . S
C1980 C1982 1.391 . S
C1981 C1980 1.386 . S
C1981 C1985 1.393 . S
C1982 H1974 0.950 . S
C1982 C1980 1.391 . S
C1982 C1983 1.400 . S
C1983 C1982 1.400 . S
C1983 C1984 1.398 . S
C1983 C1989 1.491 . S
C1984 H1975 0.950 . S
C1984 C1983 1.398 . S
C1984 C1985 1.391 . S
C1985 H1973 0.950 . S
C1985 C1981 1.393 . S
C1985 C1984 1.391 . S
C1986 H1976 0.950 . S
C1986 C1987 1.386 . S
C1986 C1988 1.391 . S
C1987 C1986 1.386 . S
C1987 C1991 1.393 . S
C1988 H1977 0.950 . S
C1988 C1986 1.391 . S
C1988 C1989 1.400 . S
C1989 C1983 1.491 . S
C1989 C1988 1.400 . S
C1989 C1990 1.398 . S
C1990 H1978 0.950 . S
C1990 C1989 1.398 . S
C1990 C1991 1.391 . S
C1991 H1979 0.950 . S
C1991 C1987 1.393 . S
C1991 C1990 1.391 . S
H1992 C2000 0.950 . S
H1993 C2005 0.950 . S
H1994 C2002 0.950 1_565 S
H1995 C2004 0.950 . S
H1996 C2006 0.950 . S
H1997 C2008 0.950 . S
H1998 C2010 0.950 . S
H1999 C2011 0.950 . S
C2000 H1992 0.950 . S
C2000 C2001 1.386 . S
C2000 C2002 1.391 . S
C2001 C2000 1.386 . S
C2001 C2005 1.393 . S
C2002 H1994 0.950 1_545 S
C2002 C2000 1.391 . S
C2002 C2003 1.400 . S
C2003 C2002 1.400 . S
C2003 C2004 1.398 . S
C2003 C2009 1.491 1_545 S
C2004 H1995 0.950 . S
C2004 C2003 1.398 . S
C2004 C2005 1.391 . S
C2005 H1993 0.950 . S
C2005 C2001 1.393 . S
C2005 C2004 1.391 . S
C2006 H1996 0.950 . S
C2006 C2007 1.386 . S
C2006 C2008 1.391 . S
C2007 C2006 1.386 . S
C2007 C2011 1.393 . S
C2008 H1997 0.950 . S
C2008 C2006 1.391 . S
C2008 C2009 1.400 . S
C2009 C2003 1.491 1_565 S
C2009 C2008 1.400 . S
C2009 C2010 1.398 . S
C2010 H1998 0.950 . S
C2010 C2009 1.398 . S
C2010 C2011 1.391 . S
C2011 H1999 0.950 . S
C2011 C2007 1.393 . S
C2011 C2010 1.391 . S
H2012 C2020 0.950 . S
H2013 C2025 0.950 . S
H2014 C2022 0.950 . S
H2015 C2024 0.950 . S
H2016 C2026 0.950 . S
H2017 C2028 0.950 . S
H2018 C2030 0.950 . S
H2019 C2031 0.950 . S
C2020 H2012 0.950 . S
C2020 C2021 1.386 . S
C2020 C2022 1.391 . S
C2021 C2020 1.386 . S
C2021 C2025 1.393 . S
C2022 H2014 0.950 . S
C2022 C2020 1.391 . S
C2022 C2023 1.400 . S
C2023 C2022 1.400 . S
C2023 C2024 1.398 . S
C2023 C2029 1.491 . S
C2024 H2015 0.950 . S
C2024 C2023 1.398 . S
C2024 C2025 1.391 . S
C2025 H2013 0.950 . S
C2025 C2021 1.393 . S
C2025 C2024 1.391 . S
C2026 H2016 0.950 . S
C2026 C2027 1.386 . S
C2026 C2028 1.391 . S
C2027 C2026 1.386 . S
C2027 C2031 1.393 . S
C2028 H2017 0.950 . S
C2028 C2026 1.391 . S
C2028 C2029 1.400 . S
C2029 C2023 1.491 . S
C2029 C2028 1.400 . S
C2029 C2030 1.398 . S
C2030 H2018 0.950 . S
C2030 C2029 1.398 . S
C2030 C2031 1.391 . S
C2031 H2019 0.950 . S
C2031 C2027 1.393 . S
C2031 C2030 1.391 . S
H2032 C2040 0.950 . S
H2033 C2045 0.950 . S
H2034 C2042 0.950 . S
H2035 C2044 0.950 . S
H2036 C2046 0.950 . S
H2037 C2048 0.950 . S
H2038 C2050 0.950 . S
H2039 C2051 0.950 . S
C2040 H2032 0.950 . S
C2040 C2041 1.386 . S
C2040 C2042 1.391 . S
C2041 C2040 1.386 . S
C2041 C2045 1.393 . S
C2042 H2034 0.950 . S
C2042 C2040 1.391 . S
C2042 C2043 1.400 . S
C2043 C2042 1.400 . S
C2043 C2044 1.398 . S
C2043 C2049 1.491 . S
C2044 H2035 0.950 . S
C2044 C2043 1.398 . S
C2044 C2045 1.391 . S
C2045 H2033 0.950 . S
C2045 C2041 1.393 . S
C2045 C2044 1.391 . S
C2046 H2036 0.950 . S
C2046 C2047 1.386 . S
C2046 C2048 1.391 . S
C2047 C2046 1.386 . S
C2047 C2051 1.393 . S
C2048 H2037 0.950 . S
C2048 C2046 1.391 . S
C2048 C2049 1.400 . S
C2049 C2043 1.491 . S
C2049 C2048 1.400 . S
C2049 C2050 1.398 . S
C2050 H2038 0.950 . S
C2050 C2049 1.398 . S
C2050 C2051 1.391 . S
C2051 H2039 0.950 . S
C2051 C2047 1.393 . S
C2051 C2050 1.391 . S
H2052 C2060 0.950 . S
H2053 C2065 0.950 . S
H2054 C2062 0.950 . S
H2055 C2064 0.950 . S
H2056 C2066 0.950 . S
H2057 C2068 0.950 . S
H2058 C2070 0.950 . S
H2059 C2071 0.950 . S
C2060 H2052 0.950 . S
C2060 C2061 1.386 . S
C2060 C2062 1.391 . S
C2061 C2060 1.386 . S
C2061 C2065 1.393 . S
C2062 H2054 0.950 . S
C2062 C2060 1.391 . S
C2062 C2063 1.400 . S
C2063 C2062 1.400 . S
C2063 C2064 1.398 . S
C2063 C2069 1.491 . S
C2064 H2055 0.950 . S
C2064 C2063 1.398 . S
C2064 C2065 1.391 . S
C2065 H2053 0.950 . S
C2065 C2061 1.393 . S
C2065 C2064 1.391 . S
C2066 H2056 0.950 . S
C2066 C2067 1.386 . S
C2066 C2068 1.391 . S
C2067 C2066 1.386 . S
C2067 C2071 1.393 . S
C2068 H2057 0.950 . S
C2068 C2066 1.391 . S
C2068 C2069 1.400 . S
C2069 C2063 1.491 . S
C2069 C2068 1.400 . S
C2069 C2070 1.398 . S
C2070 H2058 0.950 . S
C2070 C2069 1.398 . S
C2070 C2071 1.391 . S
C2071 H2059 0.950 . S
C2071 C2067 1.393 . S
C2071 C2070 1.391 . S
H2072 C2080 0.950 . S
H2073 C2085 0.950 . S
H2074 C2082 0.950 . S
H2075 C2084 0.950 . S
H2076 C2086 0.950 . S
H2077 C2088 0.950 . S
H2078 C2090 0.950 . S
H2079 C2091 0.950 . S
C2080 H2072 0.950 . S
C2080 C2081 1.386 . S
C2080 C2082 1.391 . S
C2081 C2080 1.386 . S
C2081 C2085 1.393 . S
C2082 H2074 0.950 . S
C2082 C2080 1.391 . S
C2082 C2083 1.400 . S
C2083 C2082 1.400 . S
C2083 C2084 1.398 . S
C2083 C2089 1.491 . S
C2084 H2075 0.950 . S
C2084 C2083 1.398 . S
C2084 C2085 1.391 . S
C2085 H2073 0.950 . S
C2085 C2081 1.393 . S
C2085 C2084 1.391 . S
C2086 H2076 0.950 . S
C2086 C2087 1.386 . S
C2086 C2088 1.391 . S
C2087 C2086 1.386 . S
C2087 C2091 1.393 . S
C2088 H2077 0.950 . S
C2088 C2086 1.391 . S
C2088 C2089 1.400 . S
C2089 C2083 1.491 . S
C2089 C2088 1.400 . S
C2089 C2090 1.398 . S
C2090 H2078 0.950 . S
C2090 C2089 1.398 . S
C2090 C2091 1.391 . S
C2091 H2079 0.950 . S
C2091 C2087 1.393 . S
C2091 C2090 1.391 . S
H2092 C2100 0.950 . S
H2093 C2105 0.950 . S
H2094 C2102 0.937 1_455 S
H2095 C2104 0.950 . S
H2096 C2106 0.950 . S
H2097 C2108 0.950 . S
H2098 C2110 0.950 . S
H2099 C2111 0.950 . S
C2100 H2092 0.950 . S
C2100 C2101 1.386 . S
C2100 C2102 1.407 . S
C2101 C2100 1.386 . S
C2101 C2105 1.393 . S
C2102 H2094 0.937 1_655 S
C2102 C2100 1.407 . S
C2102 C2103 1.397 1_655 S
C2103 C2102 1.397 1_455 S
C2103 C2104 1.398 1_455 S
C2103 C2109 1.491 . S
C2104 H2095 0.950 . S
C2104 C2103 1.398 1_655 S
C2104 C2105 1.391 . S
C2105 H2093 0.950 . S
C2105 C2101 1.393 . S
C2105 C2104 1.391 . S
C2106 H2096 0.950 . S
C2106 C2107 1.386 . S
C2106 C2108 1.391 . S
C2107 C2106 1.386 . S
C2107 C2111 1.393 . S
C2108 H2097 0.950 . S
C2108 C2106 1.391 . S
C2108 C2109 1.400 . S
C2109 C2103 1.491 . S
C2109 C2108 1.400 . S
C2109 C2110 1.398 . S
C2110 H2098 0.950 . S
C2110 C2109 1.398 . S
C2110 C2111 1.391 . S
C2111 H2099 0.950 . S
C2111 C2107 1.393 . S
C2111 C2110 1.391 . S
H2112 C2120 0.950 . S
H2113 C2125 0.950 . S
H2114 C2122 0.950 . S
H2115 C2124 0.950 . S
H2116 C2126 0.950 . S
H2117 C2128 0.950 . S
H2118 C2130 0.950 . S
H2119 C2131 0.950 . S
C2120 H2112 0.950 . S
C2120 C2121 1.386 . S
C2120 C2122 1.391 . S
C2121 C2120 1.386 . S
C2121 C2125 1.393 . S
C2122 H2114 0.950 . S
C2122 C2120 1.391 . S
C2122 C2123 1.400 . S
C2123 C2122 1.400 . S
C2123 C2124 1.398 . S
C2123 C2129 1.491 . S
C2124 H2115 0.950 . S
C2124 C2123 1.398 . S
C2124 C2125 1.391 . S
C2125 H2113 0.950 . S
C2125 C2121 1.393 . S
C2125 C2124 1.391 . S
C2126 H2116 0.950 . S
C2126 C2127 1.386 . S
C2126 C2128 1.391 . S
C2127 C2126 1.386 . S
C2127 C2131 1.393 . S
C2128 H2117 0.950 . S
C2128 C2126 1.391 . S
C2128 C2129 1.400 . S
C2129 C2123 1.491 . S
C2129 C2128 1.400 . S
C2129 C2130 1.398 . S
C2130 H2118 0.950 . S
C2130 C2129 1.398 . S
C2130 C2131 1.391 . S
C2131 H2119 0.950 . S
C2131 C2127 1.393 . S
C2131 C2130 1.391 . S
H2132 C2140 0.950 . S
H2133 C2145 0.950 . S
H2134 C2142 0.950 . S
H2135 C2144 0.950 . S
H2136 C2146 0.950 . S
H2137 C2148 0.950 . S
H2138 C2150 0.950 . S
H2139 C2151 0.950 . S
C2140 H2132 0.950 . S
C2140 C2141 1.386 . S
C2140 C2142 1.391 . S
C2141 C2140 1.386 . S
C2141 C2145 1.393 . S
C2142 H2134 0.950 . S
C2142 C2140 1.391 . S
C2142 C2143 1.400 . S
C2143 C2142 1.400 . S
C2143 C2144 1.398 . S
C2143 C2149 1.491 1_556 S
C2144 H2135 0.950 . S
C2144 C2143 1.398 . S
C2144 C2145 1.391 . S
C2145 H2133 0.950 . S
C2145 C2141 1.393 . S
C2145 C2144 1.391 . S
C2146 H2136 0.950 . S
C2146 C2147 1.386 . S
C2146 C2148 1.391 . S
C2147 C2146 1.386 . S
C2147 C2151 1.393 . S
C2148 H2137 0.950 . S
C2148 C2146 1.391 . S
C2148 C2149 1.400 . S
C2149 C2143 1.491 1_554 S
C2149 C2148 1.400 . S
C2149 C2150 1.398 . S
C2150 H2138 0.950 . S
C2150 C2149 1.398 . S
C2150 C2151 1.391 . S
C2151 H2139 0.950 . S
C2151 C2147 1.393 . S
C2151 C2150 1.391 . S
H2152 C2160 0.950 . S
H2153 C2165 0.950 . S
H2154 C2162 0.950 . S
H2155 C2164 0.950 . S
H2156 C2166 0.950 . S
H2157 C2168 0.950 . S
H2158 C2170 0.950 . S
H2159 C2171 0.950 . S
C2160 H2152 0.950 . S
C2160 C2161 1.386 . S
C2160 C2162 1.391 . S
C2161 C2160 1.386 . S
C2161 C2165 1.393 . S
C2162 H2154 0.950 . S
C2162 C2160 1.391 . S
C2162 C2163 1.400 . S
C2163 C2162 1.400 . S
C2163 C2164 1.398 . S
C2163 C2169 1.491 . S
C2164 H2155 0.950 . S
C2164 C2163 1.398 . S
C2164 C2165 1.391 . S
C2165 H2153 0.950 . S
C2165 C2161 1.393 . S
C2165 C2164 1.391 . S
C2166 H2156 0.950 . S
C2166 C2167 1.386 . S
C2166 C2168 1.391 . S
C2167 C2166 1.386 . S
C2167 C2171 1.393 . S
C2168 H2157 0.950 . S
C2168 C2166 1.391 . S
C2168 C2169 1.400 . S
C2169 C2163 1.491 . S
C2169 C2168 1.400 . S
C2169 C2170 1.398 . S
C2170 H2158 0.950 . S
C2170 C2169 1.398 . S
C2170 C2171 1.391 . S
C2171 H2159 0.950 . S
C2171 C2167 1.393 . S
C2171 C2170 1.391 . S
H2172 C2180 0.950 . S
H2173 C2185 0.950 . S
H2174 C2182 0.950 . S
H2175 C2184 0.950 . S
H2176 C2186 0.950 . S
H2177 C2188 0.950 . S
H2178 C2190 0.950 . S
H2179 C2191 0.950 . S
C2180 H2172 0.950 . S
C2180 C2181 1.386 . S
C2180 C2182 1.391 . S
C2181 C2180 1.386 . S
C2181 C2185 1.393 . S
C2182 H2174 0.950 . S
C2182 C2180 1.391 . S
C2182 C2183 1.400 . S
C2183 C2182 1.400 . S
C2183 C2184 1.398 . S
C2183 C2189 1.491 . S
C2184 H2175 0.950 . S
C2184 C2183 1.398 . S
C2184 C2185 1.391 . S
C2185 H2173 0.950 . S
C2185 C2181 1.393 . S
C2185 C2184 1.391 . S
C2186 H2176 0.950 . S
C2186 C2187 1.386 . S
C2186 C2188 1.391 . S
C2187 C2186 1.386 . S
C2187 C2191 1.393 . S
C2188 H2177 0.950 . S
C2188 C2186 1.391 . S
C2188 C2189 1.400 . S
C2189 C2183 1.491 . S
C2189 C2188 1.400 . S
C2189 C2190 1.398 . S
C2190 H2178 0.950 . S
C2190 C2189 1.398 . S
C2190 C2191 1.391 . S
C2191 H2179 0.950 . S
C2191 C2187 1.393 . S
C2191 C2190 1.391 . S
H2192 C2200 0.950 . S
H2193 C2205 0.950 . S
H2194 C2202 0.950 . S
H2195 C2204 0.950 . S
H2196 C2206 0.950 . S
H2197 C2208 0.950 . S
H2198 C2210 0.950 . S
H2199 C2211 0.950 . S
C2200 H2192 0.950 . S
C2200 C2201 1.386 . S
C2200 C2202 1.391 . S
C2201 C2200 1.386 . S
C2201 C2205 1.393 . S
C2202 H2194 0.950 . S
C2202 C2200 1.391 . S
C2202 C2203 1.400 . S
C2203 C2202 1.400 . S
C2203 C2204 1.398 . S
C2203 C2209 1.491 . S
C2204 H2195 0.950 . S
C2204 C2203 1.398 . S
C2204 C2205 1.391 . S
C2205 H2193 0.950 . S
C2205 C2201 1.393 . S
C2205 C2204 1.391 . S
C2206 H2196 0.950 . S
C2206 C2207 1.386 . S
C2206 C2208 1.391 . S
C2207 C2206 1.386 . S
C2207 C2211 1.393 . S
C2208 H2197 0.950 . S
C2208 C2206 1.391 . S
C2208 C2209 1.400 . S
C2209 C2203 1.491 . S
C2209 C2208 1.400 . S
C2209 C2210 1.398 . S
C2210 H2198 0.950 . S
C2210 C2209 1.398 . S
C2210 C2211 1.391 . S
C2211 H2199 0.950 . S
C2211 C2207 1.393 . S
C2211 C2210 1.391 . S
H2212 C2220 0.950 . S
H2213 C2225 0.950 . S
H2214 C2222 0.950 . S
H2215 C2224 0.950 . S
H2216 C2226 0.950 . S
H2217 C2228 0.950 . S
H2218 C2230 0.950 1_554 S
H2219 C2231 0.950 . S
C2220 H2212 0.950 . S
C2220 C2221 1.386 . S
C2220 C2222 1.391 . S
C2221 C2220 1.386 . S
C2221 C2225 1.393 . S
C2222 H2214 0.950 . S
C2222 C2220 1.391 . S
C2222 C2223 1.400 . S
C2223 C2222 1.400 . S
C2223 C2224 1.398 . S
C2223 C2229 1.491 1_554 S
C2224 H2215 0.950 . S
C2224 C2223 1.398 . S
C2224 C2225 1.391 . S
C2225 H2213 0.950 . S
C2225 C2221 1.393 . S
C2225 C2224 1.391 . S
C2226 H2216 0.950 . S
C2226 C2227 1.386 . S
C2226 C2228 1.391 . S
C2227 C2226 1.386 . S
C2227 C2231 1.393 . S
C2228 H2217 0.950 . S
C2228 C2226 1.391 . S
C2228 C2229 1.400 . S
C2229 C2223 1.491 1_556 S
C2229 C2228 1.400 . S
C2229 C2230 1.398 . S
C2230 H2218 0.950 1_556 S
C2230 C2229 1.398 . S
C2230 C2231 1.391 . S
C2231 H2219 0.950 . S
C2231 C2227 1.393 . S
C2231 C2230 1.391 . S
H2232 C2240 0.950 . S
H2233 C2245 0.950 . S
H2234 C2242 0.950 . S
H2235 C2244 0.950 . S
H2236 C2246 0.950 . S
H2237 C2248 0.950 . S
H2238 C2250 0.950 . S
H2239 C2251 0.950 . S
C2240 H2232 0.950 . S
C2240 C2241 1.386 . S
C2240 C2242 1.391 . S
C2241 C2240 1.386 . S
C2241 C2245 1.393 . S
C2242 H2234 0.950 . S
C2242 C2240 1.391 . S
C2242 C2243 1.400 . S
C2243 C2242 1.400 . S
C2243 C2244 1.398 . S
C2243 C2249 1.491 . S
C2244 H2235 0.950 . S
C2244 C2243 1.398 . S
C2244 C2245 1.391 . S
C2245 H2233 0.950 . S
C2245 C2241 1.393 . S
C2245 C2244 1.391 . S
C2246 H2236 0.950 . S
C2246 C2247 1.386 . S
C2246 C2248 1.391 . S
C2247 C2246 1.386 . S
C2247 C2251 1.393 . S
C2248 H2237 0.950 . S
C2248 C2246 1.391 . S
C2248 C2249 1.400 . S
C2249 C2243 1.491 . S
C2249 C2248 1.400 . S
C2249 C2250 1.398 . S
C2250 H2238 0.950 . S
C2250 C2249 1.398 . S
C2250 C2251 1.391 . S
C2251 H2239 0.950 . S
C2251 C2247 1.393 . S
C2251 C2250 1.391 . S
H2252 C2260 0.950 . S
H2253 C2265 0.950 . S
H2254 C2262 0.950 . S
H2255 C2264 0.950 . S
H2256 C2266 0.950 . S
H2257 C2268 0.950 . S
H2258 C2270 0.950 . S
H2259 C2271 0.950 . S
C2260 H2252 0.950 . S
C2260 C2261 1.386 . S
C2260 C2262 1.391 . S
C2261 C2260 1.386 . S
C2261 C2265 1.393 . S
C2262 H2254 0.950 . S
C2262 C2260 1.391 . S
C2262 C2263 1.400 . S
C2263 C2262 1.400 . S
C2263 C2264 1.398 . S
C2263 C2269 1.491 . S
C2264 H2255 0.950 . S
C2264 C2263 1.398 . S
C2264 C2265 1.391 . S
C2265 H2253 0.950 . S
C2265 C2261 1.393 . S
C2265 C2264 1.391 . S
C2266 H2256 0.950 . S
C2266 C2267 1.386 . S
C2266 C2268 1.391 . S
C2267 C2266 1.386 . S
C2267 C2271 1.393 . S
C2268 H2257 0.950 . S
C2268 C2266 1.391 . S
C2268 C2269 1.400 . S
C2269 C2263 1.491 . S
C2269 C2268 1.400 . S
C2269 C2270 1.398 . S
C2270 H2258 0.950 . S
C2270 C2269 1.398 . S
C2270 C2271 1.391 . S
C2271 H2259 0.950 . S
C2271 C2267 1.393 . S
C2271 C2270 1.391 . S
H2272 C2280 0.950 . S
H2273 C2285 0.950 . S
H2274 C2282 0.950 . S
H2275 C2284 0.950 . S
H2276 C2286 0.950 . S
H2277 C2288 0.950 . S
H2278 C2290 0.950 . S
H2279 C2291 0.950 . S
C2280 H2272 0.950 . S
C2280 C2281 1.386 . S
C2280 C2282 1.391 . S
C2281 C2280 1.386 . S
C2281 C2285 1.393 . S
C2282 H2274 0.950 . S
C2282 C2280 1.391 . S
C2282 C2283 1.400 . S
C2283 C2282 1.400 . S
C2283 C2284 1.398 . S
C2283 C2289 1.491 . S
C2284 H2275 0.950 . S
C2284 C2283 1.398 . S
C2284 C2285 1.391 . S
C2285 H2273 0.950 . S
C2285 C2281 1.393 . S
C2285 C2284 1.391 . S
C2286 H2276 0.950 . S
C2286 C2287 1.386 . S
C2286 C2288 1.391 . S
C2287 C2286 1.386 . S
C2287 C2291 1.393 . S
C2288 H2277 0.950 . S
C2288 C2286 1.391 . S
C2288 C2289 1.400 . S
C2289 C2283 1.491 . S
C2289 C2288 1.400 . S
C2289 C2290 1.398 . S
C2290 H2278 0.950 . S
C2290 C2289 1.398 . S
C2290 C2291 1.391 . S
C2291 H2279 0.950 . S
C2291 C2287 1.393 . S
C2291 C2290 1.391 . S
H2292 C2300 0.950 . S
H2293 C2305 0.950 . S
H2294 C2302 0.950 . S
H2295 C2304 0.950 . S
H2296 C2306 0.950 . S
H2297 C2308 0.950 . S
H2298 C2310 0.950 . S
H2299 C2311 0.950 . S
C2300 H2292 0.950 . S
C2300 C2301 1.386 . S
C2300 C2302 1.391 . S
C2301 C2300 1.386 . S
C2301 C2305 1.393 . S
C2302 H2294 0.950 . S
C2302 C2300 1.391 . S
C2302 C2303 1.400 . S
C2303 C2302 1.400 . S
C2303 C2304 1.398 . S
C2303 C2309 1.491 . S
C2304 H2295 0.950 . S
C2304 C2303 1.398 . S
C2304 C2305 1.391 . S
C2305 H2293 0.950 . S
C2305 C2301 1.393 . S
C2305 C2304 1.391 . S
C2306 H2296 0.950 . S
C2306 C2307 1.386 . S
C2306 C2308 1.391 . S
C2307 C2306 1.386 . S
C2307 C2311 1.393 . S
C2308 H2297 0.950 . S
C2308 C2306 1.391 . S
C2308 C2309 1.400 . S
C2309 C2303 1.491 . S
C2309 C2308 1.400 . S
C2309 C2310 1.398 . S
C2310 H2298 0.950 . S
C2310 C2309 1.398 . S
C2310 C2311 1.391 . S
C2311 H2299 0.950 . S
C2311 C2307 1.393 . S
C2311 C2310 1.391 . S
H2312 C2320 0.950 . S
H2313 C2325 0.950 . S
H2314 C2322 0.950 . S
H2315 C2324 0.950 . S
H2316 C2326 0.950 . S
H2317 C2328 0.950 . S
H2318 C2330 0.950 . S
H2319 C2331 0.950 . S
C2320 H2312 0.950 . S
C2320 C2321 1.386 . S
C2320 C2322 1.391 . S
C2321 C2320 1.386 . S
C2321 C2325 1.393 . S
C2322 H2314 0.950 . S
C2322 C2320 1.391 . S
C2322 C2323 1.400 . S
C2323 C2322 1.400 . S
C2323 C2324 1.398 . S
C2323 C2329 1.491 . S
C2324 H2315 0.950 . S
C2324 C2323 1.398 . S
C2324 C2325 1.391 . S
C2325 H2313 0.950 . S
C2325 C2321 1.393 . S
C2325 C2324 1.391 . S
C2326 H2316 0.950 . S
C2326 C2327 1.386 . S
C2326 C2328 1.391 . S
C2327 C2326 1.386 . S
C2327 C2331 1.393 . S
C2328 H2317 0.950 . S
C2328 C2326 1.391 . S
C2328 C2329 1.400 . S
C2329 C2323 1.491 . S
C2329 C2328 1.400 . S
C2329 C2330 1.398 . S
C2330 H2318 0.950 . S
C2330 C2329 1.398 . S
C2330 C2331 1.391 . S
C2331 H2319 0.950 . S
C2331 C2327 1.393 . S
C2331 C2330 1.391 . S
H2332 C2340 0.950 . S
H2333 C2345 0.950 . S
H2334 C2342 0.950 . S
H2335 C2344 0.950 . S
H2336 C2346 0.950 . S
H2337 C2348 0.950 . S
H2338 C2350 0.950 . S
H2339 C2351 0.950 . S
C2340 H2332 0.950 . S
C2340 C2341 1.386 . S
C2340 C2342 1.391 . S
C2341 C2340 1.386 . S
C2341 C2345 1.393 . S
C2342 H2334 0.950 . S
C2342 C2340 1.391 . S
C2342 C2343 1.400 . S
C2343 C2342 1.400 . S
C2343 C2344 1.398 . S
C2343 C2349 1.491 . S
C2344 H2335 0.950 . S
C2344 C2343 1.398 . S
C2344 C2345 1.391 . S
C2345 H2333 0.950 . S
C2345 C2341 1.393 . S
C2345 C2344 1.391 . S
C2346 H2336 0.950 . S
C2346 C2347 1.386 . S
C2346 C2348 1.391 . S
C2347 C2346 1.386 . S
C2347 C2351 1.393 . S
C2348 H2337 0.950 . S
C2348 C2346 1.391 . S
C2348 C2349 1.400 . S
C2349 C2343 1.491 . S
C2349 C2348 1.400 . S
C2349 C2350 1.398 . S
C2350 H2338 0.950 . S
C2350 C2349 1.398 . S
C2350 C2351 1.391 . S
C2351 H2339 0.950 . S
C2351 C2347 1.393 . S
C2351 C2350 1.391 . S
H2352 C2360 0.950 . S
H2353 C2365 0.950 . S
H2354 C2362 0.950 . S
H2355 C2364 0.950 . S
H2356 C2366 0.950 . S
H2357 C2368 0.950 . S
H2358 C2370 0.950 . S
H2359 C2371 0.950 . S
C2360 H2352 0.950 . S
C2360 C2361 1.386 . S
C2360 C2362 1.391 . S
C2361 C2360 1.386 . S
C2361 C2365 1.393 . S
C2362 H2354 0.950 . S
C2362 C2360 1.391 . S
C2362 C2363 1.400 . S
C2363 C2362 1.400 . S
C2363 C2364 1.398 . S
C2363 C2369 1.491 . S
C2364 H2355 0.950 . S
C2364 C2363 1.398 . S
C2364 C2365 1.391 . S
C2365 H2353 0.950 . S
C2365 C2361 1.393 . S
C2365 C2364 1.391 . S
C2366 H2356 0.950 . S
C2366 C2367 1.386 . S
C2366 C2368 1.391 . S
C2367 C2366 1.386 . S
C2367 C2371 1.393 . S
C2368 H2357 0.950 . S
C2368 C2366 1.391 . S
C2368 C2369 1.400 . S
C2369 C2363 1.491 . S
C2369 C2368 1.400 . S
C2369 C2370 1.398 . S
C2370 H2358 0.950 . S
C2370 C2369 1.398 . S
C2370 C2371 1.391 . S
C2371 H2359 0.950 . S
C2371 C2367 1.393 . S
C2371 C2370 1.391 . S
H2372 C2380 0.950 . S
H2373 C2385 0.950 . S
H2374 C2382 0.950 . S
H2375 C2384 0.950 . S
H2376 C2386 0.950 . S
H2377 C2388 0.950 . S
H2378 C2390 0.950 . S
H2379 C2391 0.950 . S
C2380 H2372 0.950 . S
C2380 C2381 1.386 . S
C2380 C2382 1.391 . S
C2381 C2380 1.386 . S
C2381 C2385 1.393 . S
C2382 H2374 0.950 . S
C2382 C2380 1.391 . S
C2382 C2383 1.400 . S
C2383 C2382 1.400 . S
C2383 C2384 1.398 . S
C2383 C2389 1.491 . S
C2384 H2375 0.950 . S
C2384 C2383 1.398 . S
C2384 C2385 1.391 . S
C2385 H2373 0.950 . S
C2385 C2381 1.393 . S
C2385 C2384 1.391 . S
C2386 H2376 0.950 . S
C2386 C2387 1.386 . S
C2386 C2388 1.391 . S
C2387 C2386 1.386 . S
C2387 C2391 1.393 . S
C2388 H2377 0.950 . S
C2388 C2386 1.391 . S
C2388 C2389 1.400 . S
C2389 C2383 1.491 . S
C2389 C2388 1.400 . S
C2389 C2390 1.398 . S
C2390 H2378 0.950 . S
C2390 C2389 1.398 . S
C2390 C2391 1.391 . S
C2391 H2379 0.950 . S
C2391 C2387 1.393 . S
C2391 C2390 1.391 . S
H2392 C2400 0.950 . S
H2393 C2405 0.950 . S
H2394 C2402 0.950 . S
H2395 C2404 0.950 . S
H2396 C2406 0.950 . S
H2397 C2408 0.950 . S
H2398 C2410 0.950 . S
H2399 C2411 0.950 . S
C2400 H2392 0.950 . S
C2400 C2401 1.386 . S
C2400 C2402 1.391 . S
C2401 C2400 1.386 . S
C2401 C2405 1.393 . S
C2402 H2394 0.950 . S
C2402 C2400 1.391 . S
C2402 C2403 1.400 . S
C2403 C2402 1.400 . S
C2403 C2404 1.398 . S
C2403 C2409 1.491 . S
C2404 H2395 0.950 . S
C2404 C2403 1.398 . S
C2404 C2405 1.391 . S
C2405 H2393 0.950 . S
C2405 C2401 1.393 . S
C2405 C2404 1.391 . S
C2406 H2396 0.950 . S
C2406 C2407 1.386 . S
C2406 C2408 1.391 . S
C2407 C2406 1.386 . S
C2407 C2411 1.393 . S
C2408 H2397 0.950 . S
C2408 C2406 1.391 . S
C2408 C2409 1.400 . S
C2409 C2403 1.491 . S
C2409 C2408 1.400 . S
C2409 C2410 1.398 . S
C2410 H2398 0.950 . S
C2410 C2409 1.398 . S
C2410 C2411 1.391 . S
C2411 H2399 0.950 . S
C2411 C2407 1.393 . S
C2411 C2410 1.391 . S
H2412 C2420 0.950 . S
H2413 C2425 0.950 . S
H2414 C2422 0.950 . S
H2415 C2424 0.950 . S
H2416 C2426 0.950 . S
H2417 C2428 0.950 . S
H2418 C2430 0.950 . S
H2419 C2431 0.950 . S
C2420 H2412 0.950 . S
C2420 C2421 1.386 . S
C2420 C2422 1.391 . S
C2421 C2420 1.386 . S
C2421 C2425 1.393 . S
C2422 H2414 0.950 . S
C2422 C2420 1.391 . S
C2422 C2423 1.400 . S
C2423 C2422 1.400 . S
C2423 C2424 1.398 . S
C2423 C2429 1.491 . S
C2424 H2415 0.950 . S
C2424 C2423 1.398 . S
C2424 C2425 1.391 . S
C2425 H2413 0.950 . S
C2425 C2421 1.393 . S
C2425 C2424 1.391 . S
C2426 H2416 0.950 . S
C2426 C2427 1.386 . S
C2426 C2428 1.391 . S
C2427 C2426 1.386 . S
C2427 C2431 1.393 . S
C2428 H2417 0.950 . S
C2428 C2426 1.391 . S
C2428 C2429 1.400 . S
C2429 C2423 1.491 . S
C2429 C2428 1.400 . S
C2429 C2430 1.398 . S
C2430 H2418 0.950 . S
C2430 C2429 1.398 . S
C2430 C2431 1.391 . S
C2431 H2419 0.950 . S
C2431 C2427 1.393 . S
C2431 C2430 1.391 . S
H2432 C2440 0.950 . S
H2433 C2445 0.950 . S
H2434 C2442 0.950 . S
H2435 C2444 0.950 . S
H2436 C2446 0.950 . S
H2437 C2448 0.950 . S
H2438 C2450 0.950 . S
H2439 C2451 0.950 . S
C2440 H2432 0.950 . S
C2440 C2441 1.386 . S
C2440 C2442 1.391 . S
C2441 C2440 1.386 . S
C2441 C2445 1.393 . S
C2442 H2434 0.950 . S
C2442 C2440 1.391 . S
C2442 C2443 1.400 . S
C2443 C2442 1.400 . S
C2443 C2444 1.398 . S
C2443 C2449 1.491 . S
C2444 H2435 0.950 . S
C2444 C2443 1.398 . S
C2444 C2445 1.391 . S
C2445 H2433 0.950 . S
C2445 C2441 1.393 . S
C2445 C2444 1.391 . S
C2446 H2436 0.950 . S
C2446 C2447 1.386 . S
C2446 C2448 1.391 . S
C2447 C2446 1.386 . S
C2447 C2451 1.393 . S
C2448 H2437 0.950 . S
C2448 C2446 1.391 . S
C2448 C2449 1.400 . S
C2449 C2443 1.491 . S
C2449 C2448 1.400 . S
C2449 C2450 1.398 . S
C2450 H2438 0.950 . S
C2450 C2449 1.398 . S
C2450 C2451 1.391 . S
C2451 H2439 0.950 . S
C2451 C2447 1.393 . S
C2451 C2450 1.391 . S
H2452 C2460 0.950 . S
H2453 C2465 0.950 . S
H2454 C2462 0.950 . S
H2455 C2464 0.950 . S
H2456 C2466 0.950 . S
H2457 C2468 0.950 . S
H2458 C2470 0.950 . S
H2459 C2471 0.950 . S
C2460 H2452 0.950 . S
C2460 C2461 1.386 . S
C2460 C2462 1.391 . S
C2461 C2460 1.386 . S
C2461 C2465 1.393 . S
C2462 H2454 0.950 . S
C2462 C2460 1.391 . S
C2462 C2463 1.400 . S
C2463 C2462 1.400 . S
C2463 C2464 1.398 . S
C2463 C2469 1.491 . S
C2464 H2455 0.950 . S
C2464 C2463 1.398 . S
C2464 C2465 1.391 . S
C2465 H2453 0.950 . S
C2465 C2461 1.393 . S
C2465 C2464 1.391 . S
C2466 H2456 0.950 . S
C2466 C2467 1.386 . S
C2466 C2468 1.391 . S
C2467 C2466 1.386 . S
C2467 C2471 1.393 . S
C2468 H2457 0.950 . S
C2468 C2466 1.391 . S
C2468 C2469 1.400 . S
C2469 C2463 1.491 . S
C2469 C2468 1.400 . S
C2469 C2470 1.398 . S
C2470 H2458 0.950 . S
C2470 C2469 1.398 . S
C2470 C2471 1.391 . S
C2471 H2459 0.950 . S
C2471 C2467 1.393 . S
C2471 C2470 1.391 . S
H2472 C2480 0.950 . S
H2473 C2485 0.950 . S
H2474 C2482 0.950 . S
H2475 C2484 0.950 . S
H2476 C2486 0.950 . S
H2477 C2488 0.950 . S
H2478 C2490 0.950 . S
H2479 C2491 0.950 . S
C2480 H2472 0.950 . S
C2480 C2481 1.386 . S
C2480 C2482 1.391 . S
C2481 C2480 1.386 . S
C2481 C2485 1.393 . S
C2482 H2474 0.950 . S
C2482 C2480 1.391 . S
C2482 C2483 1.400 . S
C2483 C2482 1.400 . S
C2483 C2484 1.398 . S
C2483 C2489 1.491 . S
C2484 H2475 0.950 . S
C2484 C2483 1.398 . S
C2484 C2485 1.391 . S
C2485 H2473 0.950 . S
C2485 C2481 1.393 . S
C2485 C2484 1.391 . S
C2486 H2476 0.950 . S
C2486 C2487 1.386 . S
C2486 C2488 1.391 . S
C2487 C2486 1.386 . S
C2487 C2491 1.393 . S
C2488 H2477 0.950 . S
C2488 C2486 1.391 . S
C2488 C2489 1.400 . S
C2489 C2483 1.491 . S
C2489 C2488 1.400 . S
C2489 C2490 1.398 . S
C2490 H2478 0.950 . S
C2490 C2489 1.398 . S
C2490 C2491 1.391 . S
C2491 H2479 0.950 . S
C2491 C2487 1.393 . S
C2491 C2490 1.391 . S
H2492 C2500 0.950 . S
H2493 C2505 0.950 . S
H2494 C2502 0.950 . S
H2495 C2504 0.950 . S
H2496 C2506 0.950 . S
H2497 C2508 0.950 . S
H2498 C2510 0.950 . S
H2499 C2511 0.950 . S
C2500 H2492 0.950 . S
C2500 C2501 1.386 . S
C2500 C2502 1.391 . S
C2501 C2500 1.386 . S
C2501 C2505 1.393 . S
C2502 H2494 0.950 . S
C2502 C2500 1.391 . S
C2502 C2503 1.400 . S
C2503 C2502 1.400 . S
C2503 C2504 1.398 . S
C2503 C2509 1.491 . S
C2504 H2495 0.950 . S
C2504 C2503 1.398 . S
C2504 C2505 1.391 . S
C2505 H2493 0.950 . S
C2505 C2501 1.393 . S
C2505 C2504 1.391 . S
C2506 H2496 0.950 . S
C2506 C2507 1.386 . S
C2506 C2508 1.391 . S
C2507 C2506 1.386 . S
C2507 C2511 1.393 . S
C2508 H2497 0.950 . S
C2508 C2506 1.391 . S
C2508 C2509 1.400 . S
C2509 C2503 1.491 . S
C2509 C2508 1.400 . S
C2509 C2510 1.398 . S
C2510 H2498 0.950 . S
C2510 C2509 1.398 . S
C2510 C2511 1.391 . S
C2511 H2499 0.950 . S
C2511 C2507 1.393 . S
C2511 C2510 1.391 . S
H2512 C2520 0.950 . S
H2513 C2525 0.950 . S
H2514 C2522 0.950 . S
H2515 C2524 0.950 . S
H2516 C2526 0.950 . S
H2517 C2528 0.950 . S
H2518 C2530 0.950 . S
H2519 C2531 0.950 . S
C2520 H2512 0.950 . S
C2520 C2521 1.386 . S
C2520 C2522 1.391 . S
C2521 C2520 1.386 . S
C2521 C2525 1.393 . S
C2522 H2514 0.950 . S
C2522 C2520 1.391 . S
C2522 C2523 1.400 . S
C2523 C2522 1.400 . S
C2523 C2524 1.398 . S
C2523 C2529 1.491 . S
C2524 H2515 0.950 . S
C2524 C2523 1.398 . S
C2524 C2525 1.391 . S
C2525 H2513 0.950 . S
C2525 C2521 1.393 . S
C2525 C2524 1.391 . S
C2526 H2516 0.950 . S
C2526 C2527 1.386 . S
C2526 C2528 1.391 . S
C2527 C2526 1.386 . S
C2527 C2531 1.393 . S
C2528 H2517 0.950 . S
C2528 C2526 1.391 . S
C2528 C2529 1.400 . S
C2529 C2523 1.491 . S
C2529 C2528 1.400 . S
C2529 C2530 1.398 . S
C2530 H2518 0.950 . S
C2530 C2529 1.398 . S
C2530 C2531 1.391 . S
C2531 H2519 0.950 . S
C2531 C2527 1.393 . S
C2531 C2530 1.391 . S
H2532 C2540 0.950 . S
H2533 C2545 0.910 1_554 S
H2534 C2542 0.950 . S
H2535 C2544 0.950 . S
H2536 C2546 0.950 . S
H2537 C2548 0.950 . S
H2538 C2550 0.950 . S
H2539 C2551 0.950 . S
C2540 H2532 0.950 . S
C2540 C2541 1.386 . S
C2540 C2542 1.391 . S
C2541 C2540 1.386 . S
C2541 C2545 1.415 . S
C2542 H2534 0.950 . S
C2542 C2540 1.391 . S
C2542 C2543 1.400 . S
C2543 C2542 1.400 . S
C2543 C2544 1.398 . S
C2543 C2549 1.491 . S
C2544 H2535 0.950 . S
C2544 C2543 1.398 . S
C2544 C2545 1.408 . S
C2545 H2533 0.910 1_556 S
C2545 C2541 1.415 . S
C2545 C2544 1.408 . S
C2546 H2536 0.950 . S
C2546 C2547 1.386 . S
C2546 C2548 1.391 . S
C2547 C2546 1.386 . S
C2547 C2551 1.393 . S
C2548 H2537 0.950 . S
C2548 C2546 1.391 . S
C2548 C2549 1.400 . S
C2549 C2543 1.491 . S
C2549 C2548 1.400 . S
C2549 C2550 1.398 . S
C2550 H2538 0.950 . S
C2550 C2549 1.398 . S
C2550 C2551 1.391 . S
C2551 H2539 0.950 . S
C2551 C2547 1.393 . S
C2551 C2550 1.391 . S
H2552 C2560 0.950 . S
H2553 C2565 0.950 . S
H2554 C2562 0.950 . S
H2555 C2564 0.950 . S
H2556 C2566 0.950 . S
H2557 C2568 0.950 . S
H2558 C2570 0.950 . S
H2559 C2571 0.950 . S
C2560 H2552 0.950 . S
C2560 C2561 1.386 . S
C2560 C2562 1.391 . S
C2561 C2560 1.386 . S
C2561 C2565 1.393 . S
C2562 H2554 0.950 . S
C2562 C2560 1.391 . S
C2562 C2563 1.400 . S
C2563 C2562 1.400 . S
C2563 C2564 1.398 . S
C2563 C2569 1.491 . S
C2564 H2555 0.950 . S
C2564 C2563 1.398 . S
C2564 C2565 1.391 . S
C2565 H2553 0.950 . S
C2565 C2561 1.393 . S
C2565 C2564 1.391 . S
C2566 H2556 0.950 . S
C2566 C2567 1.386 . S
C2566 C2568 1.391 . S
C2567 C2566 1.386 . S
C2567 C2571 1.393 . S
C2568 H2557 0.950 . S
C2568 C2566 1.391 . S
C2568 C2569 1.400 . S
C2569 C2563 1.491 . S
C2569 C2568 1.400 . S
C2569 C2570 1.398 . S
C2570 H2558 0.950 . S
C2570 C2569 1.398 . S
C2570 C2571 1.391 . S
C2571 H2559 0.950 . S
C2571 C2567 1.393 . S
C2571 C2570 1.391 . S
H2572 C2580 0.950 . S
H2573 C2585 0.950 . S
H2574 C2582 0.950 . S
H2575 C2584 0.950 . S
H2576 C2586 0.950 . S
H2577 C2588 0.950 . S
H2578 C2590 0.950 . S
H2579 C2591 0.950 . S
C2580 H2572 0.950 . S
C2580 C2581 1.386 . S
C2580 C2582 1.391 . S
C2581 C2580 1.386 . S
C2581 C2585 1.393 . S
C2582 H2574 0.950 . S
C2582 C2580 1.391 . S
C2582 C2583 1.400 . S
C2583 C2582 1.400 . S
C2583 C2584 1.398 . S
C2583 C2589 1.491 . S
C2584 H2575 0.950 . S
C2584 C2583 1.398 . S
C2584 C2585 1.391 . S
C2585 H2573 0.950 . S
C2585 C2581 1.393 . S
C2585 C2584 1.391 . S
C2586 H2576 0.950 . S
C2586 C2587 1.386 . S
C2586 C2588 1.391 1_655 S
C2587 C2586 1.386 . S
C2587 C2591 1.393 . S
C2588 H2577 0.950 . S
C2588 C2586 1.391 1_455 S
C2588 C2589 1.400 . S
C2589 C2583 1.491 . S
C2589 C2588 1.400 . S
C2589 C2590 1.398 . S
C2590 H2578 0.950 . S
C2590 C2589 1.398 . S
C2590 C2591 1.391 1_455 S
C2591 H2579 0.950 . S
C2591 C2587 1.393 . S
C2591 C2590 1.391 1_655 S
C687 C352 1.120 . S
C681 C7 1.206 . S
C701 C23 1.610 . S
C707 C374 1.668 . S
C727 C396 1.046 . S
C721 C36 1.158 . S
C747 C413 1.418 . S
C741 C45 1.391 . S
C767 C371 1.641 . S
C761 C59 1.625 . S
C781 C78 1.072 . S
C787 C391 1.013 . S
C807 C416 1.338 . S
C801 C93 1.283 . S
C821 C105 1.350 . S
C827 C351 1.246 . S
C841 C115 1.504 . S
C847 C354 1.412 . S
C867 C373 1.318 . S
C861 C133 1.400 . S
C887 C395 1.343 . S
C881 C148 1.307 . S
C907 C412 1.219 . S
C901 C163 1.262 . S
C927 C370 1.101 . S
C921 C121 1.140 . S
C947 C393 1.041 . S
C941 C134 1.100 . S
C961 C147 1.289 . S
C967 C415 1.193 . S
C987 C350 1.314 . S
C981 C157 1.289 . S
C1001 C175 1.511 . S
C1007 C353 1.528 . S
C1021 C191 0.955 . S
C1027 C435 0.912 . S
C1047 C455 1.296 . S
C1041 C199 1.289 . S
C1067 C480 1.115 . S
C1061 C218 1.286 . S
C1081 C231 1.572 . S
C1087 C349 1.515 . S
C1101 C241 1.485 . S
C1107 C394 1.433 . S
C1127 C477 1.248 . S
C1121 C205 1.409 . S
C1147 C438 0.834 . S
C1141 C260 0.912 . S
C1167 C496 0.981 . S
C1161 C22 1.028 . S
C1187 C521 1.569 . S
C1181 C9 1.545 . S
C1201 C49 1.168 . S
C1207 C538 1.117 . S
C1221 C31 1.095 . S
C1227 C560 1.113 . S
C1241 C101 1.610 . S
C1247 C518 1.620 . S
C1261 C91 1.222 . S
C1267 C543 1.037 . S
C1287 C563 1.326 . S
C1281 C79 1.294 . S
C1301 C64 1.130 . S
C1307 C501 0.986 . S
C1321 C274 0.996 . S
C1327 C498 0.927 . S
C1347 C520 1.359 . S
C1341 C213 1.443 . S
C1367 C540 1.296 . S
C1361 C233 1.422 . S
C1387 C559 1.265 . S
C1381 C189 1.372 . S
C1407 C517 1.028 . S
C1401 C273 1.120 . S
C1427 C542 1.007 . S
C1421 C219 1.003 . S
C1447 C562 0.878 . S
C1441 C227 0.902 . S
C1461 C190 1.216 . S
C1467 C500 1.219 . S
C1487 C497 1.235 . S
C1481 C289 1.220 . S
C1501 C162 0.924 . S
C1507 C582 0.859 . S
C1527 C602 1.246 . S
C1521 C301 1.264 . S
C1541 C129 1.380 . S
C1547 C627 1.144 . S
C1567 C499 1.288 . S
C1561 C149 1.322 . S
C1587 C539 1.313 . S
C1581 C315 1.337 . S
C1607 C624 1.070 . S
C1601 C302 1.318 . S
C1621 C325 0.856 . S
C1627 C585 0.829 . S
C1641 C35 1.158 . S
C1647 C646 1.108 . S
C1661 C51 1.442 . S
C1667 C437 1.512 . S
C1687 C459 1.108 . S
C1681 C8 1.170 . S
C1701 C17 1.245 . S
C1707 C476 1.264 . S
C1721 C87 1.389 . S
C1727 C434 1.416 . S
C1741 C106 1.098 . S
C1747 C454 1.068 . S
C1767 C479 1.242 . S
C1761 C65 1.178 . S
C1787 C645 1.215 . S
C1781 C77 1.301 . S
C1807 C648 1.154 . S
C1801 C297 1.274 . S
C1827 C436 1.110 . S
C1821 C287 1.202 . S
C1847 C458 1.371 . S
C1841 C330 1.333 . S
C1861 C317 1.253 . S
C1867 C475 1.218 . S
C1887 C433 0.981 . S
C1881 C303 1.023 . S
C1901 C288 1.123 . S
C1907 C456 0.996 . S
C1927 C478 1.034 . S
C1921 C329 1.085 . S
C1941 C311 1.138 . S
C1947 C644 1.163 . S
C1967 C647 1.321 . S
C1961 C217 1.297 . S
C1981 C247 0.855 . S
C1987 C372 0.820 . S
C2007 C392 1.360 . S
C2001 C269 1.338 . S
C2021 C176 1.247 . S
C2027 C417 1.107 . S
C2047 C643 1.331 . S
C2041 C259 1.367 . S
C2067 C457 1.369 . S
C2061 C185 1.422 . S
C2087 C414 1.133 . S
C2081 C275 1.290 . S
C2107 C375 0.826 . S
C2101 C232 0.864 . S
C2121 C50 0.938 . S
C2127 C664 0.888 . S
C2141 C37 1.584 . S
C2147 C584 1.613 . S
C2161 C21 1.255 . S
C2167 C606 1.068 . S
C2187 C623 1.171 . S
C2181 C3 1.175 . S
C2207 C581 1.539 . S
C2201 C73 1.530 . S
C2221 C63 1.178 . S
C2227 C601 1.091 . S
C2247 C626 1.264 . S
C2241 C107 1.242 . S
C2261 C92 1.170 . S
C2267 C669 1.009 . S
C2287 C666 0.921 . S
C2281 C204 1.006 . S
C2301 C171 1.240 . S
C2307 C583 1.177 . S
C2321 C261 1.238 . S
C2327 C605 1.284 . S
C2347 C622 1.150 . S
C2341 C245 1.277 . S
C2367 C580 1.170 . S
C2361 C203 1.255 . S
C2381 C177 1.201 . S
C2387 C603 1.076 . S
C2407 C625 1.075 . S
C2401 C255 1.123 . S
C2427 C668 1.180 . S
C2421 C246 1.180 . S
C2447 C665 1.322 . S
C2441 C135 1.291 . S
C2467 C519 1.068 . S
C2461 C316 1.230 . S
C2481 C119 1.432 . S
C2487 C541 1.356 . S
C2501 C283 1.294 . S
C2507 C564 1.095 . S
C2527 C667 1.273 . S
C2521 C331 1.302 . S
C2547 C604 1.373 . S
C2541 C161 1.468 . S
C2567 C561 0.946 . S
C2561 C120 1.128 . S
C2587 C522 0.841 . S
C2581 C143 0.940 . S
