# Generated by pormake.
# Topology pth, (4,4)-cn, num edge types: 1
# Building blocks:
#     Node 0, Type 0, BuildingBlock: TATPOV_clean_sbu_0, # of connection points: 4
#     Node 1, Type 0, BuildingBlock: TATPOV_clean_sbu_0, # of connection points: 4
#     Node 2, Type 0, BuildingBlock: TATPOV_clean_sbu_0, # of connection points: 4
#     Node 3, Type 1, BuildingBlock: NAWXER_clean_sbu_0, # of connection points: 4
#     Node 4, Type 1, BuildingBlock: NAWXER_clean_sbu_0, # of connection points: 4
#     Node 5, Type 1, BuildingBlock: NAWXER_clean_sbu_0, # of connection points: 4
#     Edge 6, Type (0, 1), BuildingBlock: EZIPEK_clean_linker_0, # of connection points: 2
#     Edge 7, Type (0, 1), BuildingBlock: EZIPEK_clean_linker_0, # of connection points: 2
#     Edge 8, Type (0, 1), BuildingBlock: EZIPEK_clean_linker_0, # of connection points: 2
#     Edge 9, Type (0, 1), BuildingBlock: EZIPEK_clean_linker_0, # of connection points: 2
#     Edge 10, Type (0, 1), BuildingBlock: EZIPEK_clean_linker_0, # of connection points: 2
#     Edge 11, Type (0, 1), BuildingBlock: EZIPEK_clean_linker_0, # of connection points: 2
#     Edge 12, Type (0, 1), BuildingBlock: EZIPEK_clean_linker_0, # of connection points: 2
#     Edge 13, Type (0, 1), BuildingBlock: EZIPEK_clean_linker_0, # of connection points: 2
#     Edge 14, Type (0, 1), BuildingBlock: EZIPEK_clean_linker_0, # of connection points: 2
#     Edge 15, Type (0, 1), BuildingBlock: EZIPEK_clean_linker_0, # of connection points: 2
#     Edge 16, Type (0, 1), BuildingBlock: EZIPEK_clean_linker_0, # of connection points: 2
#     Edge 17, Type (0, 1), BuildingBlock: EZIPEK_clean_linker_0, # of connection points: 2
# Relax obj value: 0.049
# Max RMSD: 0.173
# Mean RMSD: 0.098
data_MOF--net-pth--node1-TATPOV_clean_sbu_0--node2-NAWXER_clean_sbu_0--edge1-EZIPEK_clean_linker_0
_symmetry_space_group_name_H-M    P1
_symmetry_Int_Tables_number       1
_symmetry_cell_setting            triclinic
loop_
_symmetry_equiv_pos_as_xyz
'x, y, z'
_cell_length_a     16.759478
_cell_length_b     16.796681
_cell_length_c     42.08936
_cell_angle_alpha  93.013636
_cell_angle_beta   92.39872
_cell_angle_gamma 120.42277
loop_
_atom_site_label
_atom_site_type_symbol
_atom_site_fract_x
_atom_site_fract_y
_atom_site_fract_z
_atom_type_partial_charge
Zn0 Zn 0.14369 0.96541 0.98726 0.0
Zn1 Zn 0.12069 0.09351 0.02243 0.0
O2 O 0.15573 0.02911 0.05602 0.0
O3 O 0.16644 0.9204 0.02828 0.0
O4 O 0.10592 0.18822 0.04911 0.0
O5 O 0.24665 0.07099 0.96637 0.0
O6 O 0.22204 0.17179 -0.00652 0.0
C7 C 0.16851 0.9604 0.05491 0.0
C8 C 0.96241 0.94291 0.97687 0.0
O9 O 0.99373 0.01148 -0.00226 0.0
O10 O 0.01244 0.91058 0.96808 0.0
C11 C 0.03185 0.19172 0.04968 0.0
O12 O 0.95712 0.13094 0.03179 0.0
C13 C 0.26488 0.15329 0.97279 0.0
Zn14 Zn 0.21553 0.13715 0.31676 0.0
Zn15 Zn 0.07114 0.09654 0.35347 0.0
O16 O 0.17887 0.11963 0.38564 0.0
O17 O 0.29635 0.15285 0.3563 0.0
O18 O 0.96505 0.07171 0.38029 0.0
O19 O 0.20764 0.24432 0.30097 0.0
O20 O 0.08872 0.2076 0.32989 0.0
C21 C 0.26277 0.14016 0.38321 0.0
C22 C 0.05315 0.95369 0.30176 0.0
O23 O 0.01898 0.97667 0.32442 0.0
O24 O 0.13403 0.00907 0.29392 0.0
C25 C 0.91334 -0.0051 0.39182 0.0
O26 O 0.92886 0.92619 0.38694 0.0
C27 C 0.14454 0.2583 0.31016 0.0
Zn28 Zn 0.19061 0.98186 0.72537 0.0
Zn29 Zn 0.06466 0.00422 0.68925 0.0
O30 O 0.1344 0.97208 0.65633 0.0
O31 O 0.23468 0.95137 0.68508 0.0
O32 O 0.96865 0.01665 0.66301 0.0
O33 O 0.08565 0.88325 0.74765 0.0
O34 O 0.98604 0.90409 0.71853 0.0
C35 C 0.19962 0.95378 0.65818 0.0
C36 C 0.21264 0.16487 0.73364 0.0
O37 O 0.14306 0.13197 0.71325 0.0
O38 O 0.24602 0.11595 0.74239 0.0
C39 C 0.98807 0.08728 0.64798 0.0
O40 O 0.07436 0.15599 0.64893 0.0
C41 C 1.00341 0.86388 0.74027 0.0
C42 C 0.9777 0.65051 0.22017 0.0
C43 C 0.02621 0.46103 0.14014 0.0
O44 O 0.06251 0.67153 0.21942 0.0
Zn45 Zn 0.14369 0.62968 0.19309 0.0
O46 O 0.91461 0.58484 0.20134 0.0
Zn47 Zn 0.99739 0.55453 0.18011 0.0
O48 O 0.04012 0.50081 0.21758 0.0
O49 O 0.19257 0.58284 0.22494 0.0
O50 O 0.94933 0.45281 0.147 0.0
O51 O 0.10186 0.52574 0.15472 0.0
O52 O 0.2252 0.74203 0.17348 0.0
O53 O 0.07753 0.67606 0.15553 0.0
C54 C 0.11573 0.51467 0.23162 0.0
C55 C 0.16236 0.74109 0.15514 0.0
C56 C 0.70173 0.08619 0.56434 0.0
C57 C 0.49583 0.11369 0.48318 0.0
O58 O 0.63285 0.00957 0.55207 0.0
Zn59 Zn 0.5253 0.96063 0.51493 0.0
O60 O 0.71097 0.16214 0.5559 0.0
Zn61 Zn 0.60263 0.10938 0.52478 0.0
O62 O 0.49099 0.03948 0.55362 0.0
O63 O 0.41314 0.89054 0.53774 0.0
O64 O 0.5592 0.18059 0.50168 0.0
O65 O 0.48162 0.03199 0.48545 0.0
O66 O 0.57397 0.90671 0.48429 0.0
O67 O 0.65372 0.0594 0.48837 0.0
C68 C 0.42213 0.9582 0.55596 0.0
C69 C 0.64137 0.9823 0.47619 0.0
C70 C 0.50913 0.43375 0.89411 0.0
C71 C 0.71533 0.63008 0.8188 0.0
O72 O 0.48676 0.4922 0.8852 0.0
Zn73 Zn 0.53835 0.60373 0.85436 0.0
O74 O 0.57878 0.43336 0.88358 0.0
Zn75 Zn 0.6125 0.53188 0.8565 0.0
O76 O 0.66351 0.65074 0.88971 0.0
O77 O 0.57425 0.71165 0.88333 0.0
O78 O 0.71545 0.56317 0.8314 0.0
O79 O 0.6546 0.65221 0.82531 0.0
O80 O 0.4337 0.56246 0.82343 0.0
O81 O 0.49756 0.47491 0.82145 0.0
C82 C 0.64353 0.713 0.8974 0.0
C83 C 0.43528 0.49233 0.81142 0.0
C84 C 0.05459 0.26401 0.1052 0.0
C85 C 0.02812 0.25982 0.0725 0.0
C86 C 0.99362 0.38363 0.08432 0.0
C87 C 0.02914 0.39382 0.11649 0.0
N88 N 0.11522 0.35742 0.15521 0.0
N89 N 0.98725 0.32569 0.02965 0.0
C90 C 0.06661 0.3386 0.12621 0.0
C91 C 1.00098 0.32195 0.06166 0.0
N92 N 0.06379 0.1941 0.11667 0.0
N93 N 0.95463 0.43413 0.0752 0.0
H94 H 0.99413 0.28334 0.01232 0.0
H95 H 0.9772 0.37616 0.02009 0.0
H96 H 0.95558 0.48619 0.09013 0.0
H97 H 0.91716 0.42128 0.05329 0.0
H98 H 0.07281 0.18861 0.14094 0.0
H99 H 0.05193 0.1359 0.10238 0.0
H100 H 0.15238 0.32547 0.16152 0.0
H101 H 0.12645 0.41038 0.17198 0.0
C102 C 0.7474 0.9249 0.40585 0.0
C103 C 0.84354 0.9875 0.41393 0.0
C104 C 0.80801 0.04169 0.46369 0.0
C105 C 0.71079 0.98369 0.45462 0.0
N106 N 0.58917 0.88444 0.41401 0.0
N107 N 0.96657 0.10959 0.44929 0.0
C108 C 0.68074 0.92838 0.425 0.0
C109 C 0.87392 0.04708 0.44243 0.0
N110 N 0.71958 0.86265 0.37965 0.0
N111 N 0.83859 0.08891 0.49327 0.0
H112 H 0.01865 0.10838 0.43695 0.0
H113 H 0.99222 0.1658 0.46636 0.0
H114 H 0.7962 0.09359 0.50956 0.0
H115 H 0.9067 0.11891 0.50307 0.0
H116 H 0.65177 0.80776 0.37468 0.0
H117 H 0.76549 0.86182 0.36385 0.0
H118 H 0.56415 0.85126 0.39118 0.0
H119 H 0.53882 0.88877 0.42644 0.0
C120 C 0.92965 0.83557 0.79184 0.0
C121 C 0.92893 0.803 0.75996 0.0
C122 C 0.78462 0.65785 0.76606 0.0
C123 C 0.78971 0.68777 0.79861 0.0
N124 N 0.87356 0.7971 0.84419 0.0
N125 N 0.86364 0.68075 0.71734 0.0
C126 C 0.86411 0.77442 0.812 0.0
C127 C 0.85839 0.71345 0.74715 0.0
N128 N 0.99066 0.92613 0.80244 0.0
N129 N 0.70823 0.57756 0.75313 0.0
H130 H 0.91625 0.72026 0.70278 0.0
H131 H 0.81999 0.61265 0.70785 0.0
H132 H 0.65433 0.53402 0.76658 0.0
H133 H 0.69509 0.55693 0.7288 0.0
H134 H 0.98753 0.95664 0.82418 0.0
H135 H 0.0397 0.97357 0.78837 0.0
H136 H 0.93173 0.85474 0.85589 0.0
H137 H 0.82664 0.75413 0.85977 0.0
C138 C 0.12014 0.90312 0.10927 0.0
C139 C 0.18159 0.92282 0.08465 0.0
C140 C 0.24378 0.83423 0.1094 0.0
C141 C 0.18338 0.81625 0.13411 0.0
N142 N 0.09119 0.86226 0.16358 0.0
N143 N 0.32213 0.93326 0.06764 0.0
C144 C 0.13085 0.86068 0.13605 0.0
C145 C 0.25019 0.8969 0.08682 0.0
N146 N 0.04685 0.91735 0.10624 0.0
N147 N 0.29087 0.78791 0.10626 0.0
H148 H 0.33073 0.98216 0.05174 0.0
H149 H 0.37826 0.92288 0.07007 0.0
H150 H 0.2881 0.74134 0.12221 0.0
H151 H 0.32727 0.79066 0.08647 0.0
H152 H 0.99528 0.8946 0.12222 0.0
H153 H 0.03136 0.94279 0.08635 0.0
H154 H 0.05976 0.90157 0.16734 0.0
H155 H 0.09952 0.83313 0.18385 0.0
C156 C 0.28504 0.05764 0.42759 0.0
C157 C 0.31894 0.13872 0.41116 0.0
C158 C 0.47144 0.20327 0.44062 0.0
C159 C 0.43461 0.12643 0.45961 0.0
N160 N 0.29617 0.9914 0.47557 0.0
N161 N 0.43808 0.2973 0.40694 0.0
C162 C 0.33838 0.05719 0.45453 0.0
C163 C 0.41015 0.2144 0.41931 0.0
N164 N 0.20461 0.97838 0.41645 0.0
N165 N 0.56514 0.26209 0.441 0.0
H166 H 0.39449 0.30812 0.39163 0.0
H167 H 0.50071 0.3574 0.41444 0.0
H168 H 0.61357 0.2535 0.45433 0.0
H169 H 0.59532 0.31342 0.42524 0.0
H170 H 0.18315 0.91457 0.42549 0.0
H171 H 0.16425 0.97324 0.39607 0.0
H172 H 0.22439 0.94749 0.47464 0.0
H173 H 0.33004 0.9856 0.49573 0.0
C174 C 0.33724 0.3314 0.73732 0.0
C175 C 0.25431 0.26029 0.74839 0.0
C176 C 0.27613 0.35746 0.79706 0.0
C177 C 0.36293 0.4255 0.7872 0.0
N178 N 0.46506 0.49103 0.74555 0.0
N179 N 0.13117 0.21242 0.78352 0.0
C180 C 0.38942 0.41703 0.7563 0.0
C181 C 0.21882 0.27613 0.77645 0.0
N182 N 0.36755 0.31511 0.70942 0.0
N183 N 0.2519 0.36776 0.82696 0.0
H184 H 0.08844 0.1516 0.76895 0.0
H185 H 0.09784 0.22286 0.8022 0.0
H186 H 0.29104 0.42778 0.84224 0.0
H187 H 0.19562 0.31571 0.8373 0.0
H188 H 0.43233 0.35974 0.70155 0.0
H189 H 0.32819 0.25444 0.6944 0.0
H190 H 0.48564 0.49255 0.7225 0.0
H191 H 0.50325 0.55445 0.75925 0.0
C192 C 0.87217 0.01959 0.60051 0.0
C193 C 0.91508 0.08731 0.62677 0.0
C194 C 0.80984 0.14553 0.61472 0.0
C195 C 0.77308 0.08428 0.58644 0.0
N196 N 0.77829 0.96808 0.55065 0.0
N197 N 0.93272 0.22143 0.65743 0.0
C198 C 0.80583 0.02197 0.57902 0.0
C199 C 0.88675 0.15273 0.63328 0.0
N200 N 0.89507 0.95253 0.59583 0.0
N201 N 0.76721 0.19211 0.62513 0.0
H202 H 0.98508 0.22556 0.67294 0.0
H203 H 0.92318 0.27784 0.66079 0.0
H204 H 0.70733 0.18439 0.61344 0.0
H205 H 0.7847 0.23043 0.64717 0.0
H206 H 0.85534 0.89218 0.5808 0.0
H207 H 0.95107 0.954 0.60818 0.0
H208 H 0.81152 0.93422 0.54195 0.0
H209 H 0.72763 0.96159 0.53399 0.0
C210 C 0.7947 0.82095 0.97295 0.0
C211 C 0.86784 0.90147 0.96146 0.0
C212 C 0.77625 0.8736 0.91106 0.0
C213 C 0.70665 0.78857 0.9214 0.0
N214 N 0.63521 0.69284 0.96395 0.0
N215 N 0.92057 0.01941 0.92457 0.0
C216 C 0.71102 0.76658 0.95318 0.0
C217 C 0.85547 0.93318 0.9322 0.0
N218 N 0.80748 0.79466 0.00202 0.0
N219 N 0.76955 0.89384 0.88037 0.0
H220 H 0.97952 0.06375 0.93972 0.0
H221 H 0.91281 0.05011 0.90475 0.0
H222 H 0.71103 0.85293 0.86465 0.0
H223 H 0.82308 0.94858 0.86995 0.0
H224 H 0.76131 0.7316 0.01053 0.0
H225 H 0.86679 0.83574 0.01745 0.0
H226 H 0.63066 0.67547 0.98744 0.0
H227 H 0.57329 0.65304 0.94961 0.0
C228 C 0.9556 0.84919 0.25427 0.0
C229 C 1.00061 0.86038 0.28479 0.0
C230 C 0.98278 0.70708 0.27603 0.0
C231 C 0.9572 0.70544 0.24342 0.0
N232 N 0.90621 0.76577 0.20157 0.0
N233 N 0.04854 0.79846 0.32692 0.0
C234 C 0.93708 0.77252 0.23272 0.0
C235 C 0.00954 0.78768 0.29665 0.0
N236 N 0.93256 0.91307 0.24601 0.0
N237 N 0.9827 0.63164 0.28675 0.0
H238 H 0.06533 0.8554 0.34288 0.0
H239 H 0.06688 0.75303 0.33602 0.0
H240 H 0.96229 0.5719 0.27173 0.0
H241 H 0.99497 0.62476 0.3106 0.0
H242 H 0.89449 0.9071 0.22495 0.0
H243 H 0.94581 0.96944 0.26169 0.0
H244 H 0.899 0.81679 0.19115 0.0
H245 H 0.88964 0.70903 0.18561 0.0
C246 C 0.25555 0.87001 0.62266 0.0
C247 C 0.24383 0.94707 0.62913 0.0
C248 C 0.32777 0.01679 0.58266 0.0
C249 C 0.35304 0.94753 0.57926 0.0
N250 N 0.352 0.81569 0.60043 0.0
N251 N 0.28616 0.1035 0.61888 0.0
C252 C 0.31906 0.87529 0.60019 0.0
C253 C 0.28382 0.02274 0.60997 0.0
N254 N 0.20548 0.79145 0.63784 0.0
N255 N 0.34451 0.07695 0.55975 0.0
H256 H 0.25821 0.11353 0.6393 0.0
H257 H 0.32466 0.1643 0.60776 0.0
H258 H 0.3779 0.07795 0.53943 0.0
H259 H 0.31707 0.12046 0.55945 0.0
H260 H 0.20432 0.72986 0.63185 0.0
H261 H 0.15785 0.78522 0.65417 0.0
H262 H 0.33673 0.7684 0.61755 0.0
H263 H 0.40196 0.81929 0.58573 0.0
C264 C 0.41565 0.29901 0.96671 0.0
C265 C 0.32812 0.22628 0.95315 0.0
C266 C 0.36412 0.28526 0.90052 0.0
C267 C 0.44857 0.36172 0.91448 0.0
N268 N 0.55141 0.44929 0.96092 0.0
N269 N 0.21081 0.15906 0.90889 0.0
C270 C 0.47358 0.3709 0.94764 0.0
C271 C 0.30004 0.22174 0.9205 0.0
N272 N 0.4444 0.29758 -0.00255 0.0
N273 N 0.34638 0.2719 0.86806 0.0
H274 H 0.1612 0.11163 0.92281 0.0
H275 H 0.18332 0.1594 0.88628 0.0
H276 H 0.39165 0.31718 0.85258 0.0
H277 H 0.29076 0.21216 0.85625 0.0
H278 H 0.51121 0.34305 0.00774 0.0
H279 H 0.40316 0.24637 0.01213 0.0
H280 H 0.56814 0.46519 0.98541 0.0
H281 H 0.59657 0.50198 0.94743 0.0
C282 C 0.18599 0.42092 0.30106 0.0
C283 C 0.12716 0.32425 0.29381 0.0
C284 C 0.05554 0.35063 0.24682 0.0
C285 C 0.11317 0.44845 0.25437 0.0
N286 N 0.21085 0.57394 0.29415 0.0
N287 N 0.99078 0.19696 0.26491 0.0
C288 C 0.17198 0.4829 0.28314 0.0
C289 C 0.05656 0.2893 0.26854 0.0
N290 N 0.25587 0.45351 0.32483 0.0
N291 N 0.00437 0.31488 0.21809 0.0
H292 H 0.99135 0.14832 0.27915 0.0
H293 H 0.93082 0.16965 0.24955 0.0
H294 H 0.99838 0.35377 0.20083 0.0
H295 H 0.97326 0.24526 0.20983 0.0
H296 H 0.30777 0.52298 0.32875 0.0
H297 H 0.26498 0.40997 0.33945 0.0
H298 H 0.24765 0.60113 0.31637 0.0
H299 H 0.1974 0.62004 0.28274 0.0
loop_
_geom_bond_atom_site_label_1
_geom_bond_atom_site_label_2
_geom_bond_distance
_geom_bond_site_symmetry_2
_ccdc_geom_bond_type
Zn0 O3 2.031 1_556 S
Zn0 O5 2.049 1_565 S
Zn0 O10 2.067 . S
Zn1 O2 1.962 . S
Zn1 O4 1.986 . S
Zn1 O6 1.996 . S
Zn1 O9 1.943 . S
O2 Zn1 1.962 . S
O2 C7 1.254 1_545 S
O3 Zn0 2.031 1_554 S
O3 C7 1.269 . S
O4 Zn1 1.986 . S
O4 C11 1.262 . S
O5 Zn0 2.049 1_545 S
O5 C13 1.260 . S
O6 Zn1 1.996 . S
O6 C13 1.257 1_554 S
C7 O2 1.254 1_565 S
C7 O3 1.269 . S
C8 O9 1.249 1_666 S
C8 O10 1.270 1_655 S
O9 Zn1 1.943 . S
O9 C8 1.249 1_444 S
O10 Zn0 2.067 . S
O10 C8 1.270 1_455 S
C11 O4 1.262 . S
C11 O12 1.232 . S
O12 C11 1.232 . S
C13 O5 1.260 . S
C13 O6 1.257 1_556 S
Zn14 O17 2.031 . S
Zn14 O19 2.049 . S
Zn14 O24 2.067 . S
Zn15 O16 1.962 . S
Zn15 O18 1.986 1_455 S
Zn15 O20 1.996 . S
Zn15 O23 1.943 1_545 S
O16 Zn15 1.962 . S
O16 C21 1.254 . S
O17 Zn14 2.031 . S
O17 C21 1.269 . S
O18 Zn15 1.986 1_655 S
O18 C25 1.262 . S
O19 Zn14 2.049 . S
O19 C27 1.260 . S
O20 Zn15 1.996 . S
O20 C27 1.257 . S
C21 O16 1.254 . S
C21 O17 1.269 . S
C22 O23 1.249 . S
C22 O24 1.270 1_565 S
O23 Zn15 1.943 1_565 S
O23 C22 1.249 . S
O24 Zn14 2.067 . S
O24 C22 1.270 1_545 S
C25 O18 1.262 . S
C25 O26 1.232 . S
O26 C25 1.232 . S
C27 O19 1.260 . S
C27 O20 1.257 . S
Zn28 O31 2.031 1_565 S
Zn28 O33 2.049 . S
Zn28 O38 2.067 1_565 S
Zn29 O30 1.962 1_545 S
Zn29 O32 1.986 1_455 S
Zn29 O34 1.996 1_445 S
Zn29 O37 1.943 . S
O30 Zn29 1.962 1_565 S
O30 C35 1.254 1_565 S
O31 Zn28 2.031 1_545 S
O31 C35 1.269 . S
O32 Zn29 1.986 1_655 S
O32 C39 1.262 . S
O33 Zn28 2.049 . S
O33 C41 1.260 1_455 S
O34 Zn29 1.996 1_665 S
O34 C41 1.257 . S
C35 O30 1.254 1_545 S
C35 O31 1.269 . S
C36 O37 1.249 . S
C36 O38 1.270 . S
O37 Zn29 1.943 . S
O37 C36 1.249 . S
O38 Zn28 2.067 1_545 S
O38 C36 1.270 . S
C39 O32 1.262 . S
C39 O40 1.232 1_655 S
O40 C39 1.232 1_455 S
C41 O33 1.260 1_655 S
C41 O34 1.257 . S
C42 O44 1.247 . S
C42 O46 1.258 1_455 S
C43 O50 1.247 . S
C43 O51 1.258 . S
O44 C42 1.247 . S
O44 Zn45 2.028 . S
Zn45 O44 2.028 . S
Zn45 O49 2.035 . S
Zn45 O51 2.035 . S
Zn45 O52 2.028 . S
O46 C42 1.258 1_655 S
O46 Zn47 2.035 . S
Zn47 O46 2.035 . S
Zn47 O48 2.028 . S
Zn47 O50 2.028 1_655 S
Zn47 O53 2.035 1_655 S
O48 Zn47 2.028 . S
O48 C54 1.247 1_655 S
O49 Zn45 2.035 . S
O49 C54 1.258 . S
O50 C43 1.247 . S
O50 Zn47 2.028 1_455 S
O51 C43 1.258 . S
O51 Zn45 2.035 . S
O52 Zn45 2.028 . S
O52 C55 1.247 . S
O53 Zn47 2.035 1_455 S
O53 C55 1.258 . S
C54 O48 1.247 1_455 S
C54 O49 1.258 . S
C55 O52 1.247 . S
C55 O53 1.258 . S
C56 O58 1.247 1_545 S
C56 O60 1.258 . S
C57 O64 1.247 . S
C57 O65 1.258 1_545 S
O58 C56 1.247 1_565 S
O58 Zn59 2.028 . S
Zn59 O58 2.028 . S
Zn59 O63 2.035 . S
Zn59 O65 2.035 . S
Zn59 O66 2.028 . S
O60 C56 1.258 . S
O60 Zn61 2.035 . S
Zn61 O60 2.035 . S
Zn61 O62 2.028 . S
Zn61 O64 2.028 . S
Zn61 O67 2.035 . S
O62 Zn61 2.028 . S
O62 C68 1.247 . S
O63 Zn59 2.035 . S
O63 C68 1.258 1_565 S
O64 C57 1.247 . S
O64 Zn61 2.028 . S
O65 C57 1.258 1_565 S
O65 Zn59 2.035 . S
O66 Zn59 2.028 . S
O66 C69 1.247 1_565 S
O67 Zn61 2.035 . S
O67 C69 1.258 . S
C68 O62 1.247 . S
C68 O63 1.258 1_545 S
C69 O66 1.247 1_545 S
C69 O67 1.258 . S
C70 O72 1.247 . S
C70 O74 1.258 . S
C71 O78 1.247 . S
C71 O79 1.258 . S
O72 C70 1.247 . S
O72 Zn73 2.028 . S
Zn73 O72 2.028 . S
Zn73 O77 2.035 . S
Zn73 O79 2.035 . S
Zn73 O80 2.028 . S
O74 C70 1.258 . S
O74 Zn75 2.035 . S
Zn75 O74 2.035 . S
Zn75 O76 2.028 . S
Zn75 O78 2.028 . S
Zn75 O81 2.035 . S
O76 Zn75 2.028 . S
O76 C82 1.247 . S
O77 Zn73 2.035 . S
O77 C82 1.258 . S
O78 C71 1.247 . S
O78 Zn75 2.028 . S
O79 C71 1.258 . S
O79 Zn73 2.035 . S
O80 Zn73 2.028 . S
O80 C83 1.247 . S
O81 Zn75 2.035 . S
O81 C83 1.258 . S
C82 O76 1.247 . S
C82 O77 1.258 . S
C83 O80 1.247 . S
C83 O81 1.258 . S
C84 C85 1.363 . S
C84 C90 1.379 . S
C84 N92 1.356 . S
C85 C84 1.363 . S
C85 C91 1.363 . S
C86 C87 1.363 . S
C86 C91 1.379 . S
C86 N93 1.356 . S
C87 C86 1.363 . S
C87 C90 1.363 . S
N88 C90 1.356 . S
N88 H100 0.984 . S
N88 H101 0.985 . S
N89 C91 1.356 1_655 S
N89 H94 0.984 . S
N89 H95 0.985 . S
C90 C84 1.379 . S
C90 C87 1.363 . S
C90 N88 1.356 . S
C91 C85 1.363 . S
C91 C86 1.379 . S
C91 N89 1.356 1_455 S
N92 C84 1.356 . S
N92 H98 0.984 . S
N92 H99 0.984 . S
N93 C86 1.356 . S
N93 H96 0.984 . S
N93 H97 0.985 1_455 S
H94 N89 0.984 . S
H95 N89 0.985 . S
H96 N93 0.984 . S
H97 N93 0.985 1_655 S
H98 N92 0.984 . S
H99 N92 0.984 . S
H100 N88 0.984 . S
H101 N88 0.985 . S
C102 C103 1.363 1_565 S
C102 C108 1.379 . S
C102 N110 1.356 . S
C103 C102 1.363 1_545 S
C103 C109 1.363 . S
C104 C105 1.363 . S
C104 C109 1.379 . S
C104 N111 1.356 . S
C105 C104 1.363 . S
C105 C108 1.363 1_545 S
N106 C108 1.356 . S
N106 H118 0.984 . S
N106 H119 0.985 . S
N107 C109 1.356 . S
N107 H112 0.984 . S
N107 H113 0.985 . S
C108 C102 1.379 . S
C108 C105 1.363 1_565 S
C108 N106 1.356 . S
C109 C103 1.363 . S
C109 C104 1.379 . S
C109 N107 1.356 . S
N110 C102 1.356 . S
N110 H116 0.984 . S
N110 H117 0.984 . S
N111 C104 1.356 . S
N111 H114 0.984 . S
N111 H115 0.985 . S
H112 N107 0.984 . S
H113 N107 0.985 . S
H114 N111 0.984 . S
H115 N111 0.985 . S
H116 N110 0.984 . S
H117 N110 0.984 . S
H118 N106 0.984 . S
H119 N106 0.985 . S
C120 C121 1.363 . S
C120 C126 1.379 . S
C120 N128 1.356 . S
C121 C120 1.363 . S
C121 C127 1.363 . S
C122 C123 1.363 . S
C122 C127 1.379 . S
C122 N129 1.356 . S
C123 C122 1.363 . S
C123 C126 1.363 . S
N124 C126 1.356 . S
N124 H136 0.984 . S
N124 H137 0.985 . S
N125 C127 1.356 . S
N125 H130 0.984 . S
N125 H131 0.985 . S
C126 C120 1.379 . S
C126 C123 1.363 . S
C126 N124 1.356 . S
C127 C121 1.363 . S
C127 C122 1.379 . S
C127 N125 1.356 . S
N128 C120 1.356 . S
N128 H134 0.984 . S
N128 H135 0.984 . S
N129 C122 1.356 . S
N129 H132 0.984 . S
N129 H133 0.985 . S
H130 N125 0.984 . S
H131 N125 0.985 . S
H132 N129 0.984 . S
H133 N129 0.985 . S
H134 N128 0.984 . S
H135 N128 0.984 . S
H136 N124 0.984 . S
H137 N124 0.985 . S
C138 C139 1.363 . S
C138 C144 1.379 . S
C138 N146 1.356 1_565 S
C139 C138 1.363 . S
C139 C145 1.363 . S
C140 C141 1.363 . S
C140 C145 1.379 . S
C140 N147 1.356 . S
C141 C140 1.363 . S
C141 C144 1.363 . S
N142 C144 1.356 . S
N142 H154 0.984 . S
N142 H155 0.985 . S
N143 C145 1.356 . S
N143 H148 0.984 . S
N143 H149 0.985 . S
C144 C138 1.379 . S
C144 C141 1.363 . S
C144 N142 1.356 . S
C145 C139 1.363 . S
C145 C140 1.379 . S
C145 N143 1.356 . S
N146 C138 1.356 1_545 S
N146 H152 0.984 . S
N146 H153 0.984 . S
N147 C140 1.356 . S
N147 H150 0.984 . S
N147 H151 0.985 . S
H148 N143 0.984 . S
H149 N143 0.985 . S
H150 N147 0.984 . S
H151 N147 0.985 . S
H152 N146 0.984 . S
H153 N146 0.984 . S
H154 N142 0.984 . S
H155 N142 0.985 . S
C156 C157 1.363 . S
C156 C162 1.379 . S
C156 N164 1.357 1_545 S
C157 C156 1.363 . S
C157 C163 1.363 . S
C158 C159 1.363 . S
C158 C163 1.379 . S
C158 N165 1.356 . S
C159 C158 1.363 . S
C159 C162 1.363 . S
N160 C162 1.356 1_565 S
N160 H172 0.984 . S
N160 H173 0.985 . S
N161 C163 1.356 . S
N161 H166 0.984 . S
N161 H167 0.985 . S
C162 C156 1.379 . S
C162 C159 1.363 . S
C162 N160 1.356 1_545 S
C163 C157 1.363 . S
C163 C158 1.379 . S
C163 N161 1.356 . S
N164 C156 1.357 1_565 S
N164 H170 0.992 . S
N164 H171 0.976 1_565 S
N165 C158 1.356 . S
N165 H168 0.984 . S
N165 H169 0.985 . S
H166 N161 0.984 . S
H167 N161 0.985 . S
H168 N165 0.984 . S
H169 N165 0.985 . S
H170 N164 0.992 . S
H171 N164 0.976 1_545 S
H172 N160 0.984 . S
H173 N160 0.985 . S
C174 C175 1.363 . S
C174 C180 1.379 . S
C174 N182 1.356 . S
C175 C174 1.363 . S
C175 C181 1.363 . S
C176 C177 1.363 . S
C176 C181 1.379 . S
C176 N183 1.356 . S
C177 C176 1.363 . S
C177 C180 1.363 . S
N178 C180 1.356 . S
N178 H190 0.984 . S
N178 H191 0.985 . S
N179 C181 1.356 . S
N179 H184 0.984 . S
N179 H185 0.985 . S
C180 C174 1.379 . S
C180 C177 1.363 . S
C180 N178 1.356 . S
C181 C175 1.363 . S
C181 C176 1.379 . S
C181 N179 1.356 . S
N182 C174 1.356 . S
N182 H188 0.984 . S
N182 H189 0.984 . S
N183 C176 1.356 . S
N183 H186 0.984 . S
N183 H187 0.985 . S
H184 N179 0.984 . S
H185 N179 0.985 . S
H186 N183 0.984 . S
H187 N183 0.985 . S
H188 N182 0.984 . S
H189 N182 0.984 . S
H190 N178 0.984 . S
H191 N178 0.985 . S
C192 C193 1.361 1_565 S
C192 C198 1.378 . S
C192 N200 1.359 . S
C193 C192 1.361 1_545 S
C193 C199 1.363 . S
C194 C195 1.363 . S
C194 C199 1.379 . S
C194 N201 1.356 . S
C195 C194 1.363 . S
C195 C198 1.363 1_545 S
N196 C198 1.356 . S
N196 H208 0.984 . S
N196 H209 0.985 . S
N197 C199 1.356 . S
N197 H202 0.984 . S
N197 H203 0.985 . S
C198 C192 1.378 . S
C198 C195 1.363 1_565 S
C198 N196 1.356 . S
C199 C193 1.363 . S
C199 C194 1.379 . S
C199 N197 1.356 . S
N200 C192 1.359 . S
N200 H206 0.984 . S
N200 H207 0.984 . S
N201 C194 1.356 . S
N201 H204 0.984 . S
N201 H205 0.985 . S
H202 N197 0.984 . S
H203 N197 0.985 . S
H204 N201 0.984 . S
H205 N201 0.985 . S
H206 N200 0.984 . S
H207 N200 0.984 . S
H208 N196 0.984 . S
H209 N196 0.985 . S
C210 C211 1.363 . S
C210 C216 1.379 . S
C210 N218 1.356 1_556 S
C211 C210 1.363 . S
C211 C217 1.363 . S
C212 C213 1.363 . S
C212 C217 1.379 . S
C212 N219 1.356 . S
C213 C212 1.363 . S
C213 C216 1.363 . S
N214 C216 1.356 . S
N214 H226 0.984 . S
N214 H227 0.985 . S
N215 C217 1.356 . S
N215 H220 0.984 1_565 S
N215 H221 0.985 1_565 S
C216 C210 1.379 . S
C216 C213 1.363 . S
C216 N214 1.356 . S
C217 C211 1.363 . S
C217 C212 1.379 . S
C217 N215 1.356 . S
N218 C210 1.356 1_554 S
N218 H224 0.984 . S
N218 H225 0.984 . S
N219 C212 1.356 . S
N219 H222 0.984 . S
N219 H223 0.985 . S
H220 N215 0.984 1_545 S
H221 N215 0.985 1_545 S
H222 N219 0.984 . S
H223 N219 0.985 . S
H224 N218 0.984 . S
H225 N218 0.984 . S
H226 N214 0.984 . S
H227 N214 0.985 . S
C228 C229 1.363 1_655 S
C228 C234 1.379 1_655 S
C228 N236 1.356 . S
C229 C228 1.363 1_455 S
C229 C235 1.363 . S
C230 C231 1.363 . S
C230 C235 1.379 . S
C230 N237 1.356 . S
C231 C230 1.363 . S
C231 C234 1.363 . S
N232 C234 1.356 1_655 S
N232 H244 0.984 . S
N232 H245 0.990 . S
N233 C235 1.356 . S
N233 H238 0.984 . S
N233 H239 0.985 . S
C234 C228 1.379 1_455 S
C234 C231 1.363 . S
C234 N232 1.356 1_455 S
C235 C229 1.363 . S
C235 C230 1.379 . S
C235 N233 1.356 . S
N236 C228 1.356 . S
N236 H242 0.984 . S
N236 H243 0.984 . S
N237 C230 1.356 . S
N237 H240 0.984 . S
N237 H241 0.985 . S
H238 N233 0.984 . S
H239 N233 0.985 . S
H240 N237 0.984 . S
H241 N237 0.985 . S
H242 N236 0.984 . S
H243 N236 0.984 . S
H244 N232 0.984 . S
H245 N232 0.990 . S
C246 C247 1.363 1_565 S
C246 C252 1.379 . S
C246 N254 1.356 . S
C247 C246 1.363 1_545 S
C247 C253 1.363 . S
C248 C249 1.363 . S
C248 C253 1.379 . S
C248 N255 1.356 . S
C249 C248 1.363 . S
C249 C252 1.363 1_545 S
N250 C252 1.356 . S
N250 H262 0.984 . S
N250 H263 0.985 . S
N251 C253 1.356 . S
N251 H256 0.984 . S
N251 H257 0.985 . S
C252 C246 1.379 . S
C252 C249 1.363 1_565 S
C252 N250 1.356 . S
C253 C247 1.363 . S
C253 C248 1.379 . S
C253 N251 1.356 . S
N254 C246 1.356 . S
N254 H260 0.984 . S
N254 H261 0.984 . S
N255 C248 1.356 . S
N255 H258 0.984 . S
N255 H259 0.985 . S
H256 N251 0.984 . S
H257 N251 0.985 . S
H258 N255 0.984 . S
H259 N255 0.985 . S
H260 N254 0.984 . S
H261 N254 0.984 . S
H262 N250 0.984 . S
H263 N250 0.985 . S
C264 C265 1.363 . S
C264 C270 1.379 . S
C264 N272 1.356 1_556 S
C265 C264 1.363 . S
C265 C271 1.363 . S
C266 C267 1.363 . S
C266 C271 1.379 . S
C266 N273 1.356 . S
C267 C266 1.363 . S
C267 C270 1.363 . S
N268 C270 1.356 . S
N268 H280 0.984 . S
N268 H281 0.985 . S
N269 C271 1.356 . S
N269 H274 0.984 . S
N269 H275 0.985 . S
C270 C264 1.379 . S
C270 C267 1.363 . S
C270 N268 1.356 . S
C271 C265 1.363 . S
C271 C266 1.379 . S
C271 N269 1.356 . S
N272 C264 1.356 1_554 S
N272 H278 0.984 . S
N272 H279 0.984 . S
N273 C266 1.356 . S
N273 H276 0.984 . S
N273 H277 0.985 . S
H274 N269 0.984 . S
H275 N269 0.985 . S
H276 N273 0.984 . S
H277 N273 0.985 . S
H278 N272 0.984 . S
H279 N272 0.984 . S
H280 N268 0.984 . S
H281 N268 0.985 . S
C282 C283 1.363 . S
C282 C288 1.379 . S
C282 N290 1.356 . S
C283 C282 1.363 . S
C283 C289 1.363 . S
C284 C285 1.364 . S
C284 C289 1.380 . S
C284 N291 1.353 1_455 S
C285 C284 1.364 . S
C285 C288 1.363 . S
N286 C288 1.356 . S
N286 H298 0.984 . S
N286 H299 0.985 . S
N287 C289 1.356 1_655 S
N287 H292 0.984 . S
N287 H293 0.985 . S
C288 C282 1.379 . S
C288 C285 1.363 . S
C288 N286 1.356 . S
C289 C283 1.363 . S
C289 C284 1.380 . S
C289 N287 1.356 1_455 S
N290 C282 1.356 . S
N290 H296 0.984 . S
N290 H297 0.984 . S
N291 C284 1.353 1_655 S
N291 H294 0.984 . S
N291 H295 0.985 . S
H292 N287 0.984 . S
H293 N287 0.985 . S
H294 N291 0.984 . S
H295 N291 0.985 . S
H296 N290 0.984 . S
H297 N290 0.984 . S
H298 N286 0.984 . S
H299 N286 0.985 . S
C87 C43 1.382 . S
C85 C11 1.360 . S
C103 C25 1.414 . S
C105 C69 1.440 . S
C121 C41 1.396 . S
C123 C71 1.455 . S
C139 C7 1.423 . S
C141 C55 1.420 . S
C159 C57 1.470 . S
C157 C21 1.470 . S
C175 C36 1.403 . S
C177 C83 1.478 . S
C195 C56 1.431 . S
C193 C39 1.407 . S
C211 C8 1.400 . S
C213 C82 1.473 . S
C231 C42 1.526 . S
C229 C22 1.449 . S
C249 C68 1.464 . S
C247 C35 1.464 . S
C267 C70 1.449 . S
C265 C13 1.388 . S
C283 C27 1.443 . S
C285 C54 1.488 . S
