# Generated by pormake.
# Topology gar, (4,6)-cn, num edge types: 1
# Building blocks:
#     Node 0, Type 0, BuildingBlock: QUQFOY_clean_sbu_3, # of connection points: 4
#     Node 1, Type 0, BuildingBlock: QUQFOY_clean_sbu_3, # of connection points: 4
#     Node 2, Type 0, BuildingBlock: QUQFOY_clean_sbu_3, # of connection points: 4
#     Node 3, Type 0, BuildingBlock: QUQFOY_clean_sbu_3, # of connection points: 4
#     Node 4, Type 0, BuildingBlock: QUQFOY_clean_sbu_3, # of connection points: 4
#     Node 5, Type 0, BuildingBlock: QUQFOY_clean_sbu_3, # of connection points: 4
#     Node 6, Type 0, BuildingBlock: QUQFOY_clean_sbu_3, # of connection points: 4
#     Node 7, Type 0, BuildingBlock: QUQFOY_clean_sbu_3, # of connection points: 4
#     Node 8, Type 0, BuildingBlock: QUQFOY_clean_sbu_3, # of connection points: 4
#     Node 9, Type 0, BuildingBlock: QUQFOY_clean_sbu_3, # of connection points: 4
#     Node 10, Type 0, BuildingBlock: QUQFOY_clean_sbu_3, # of connection points: 4
#     Node 11, Type 0, BuildingBlock: QUQFOY_clean_sbu_3, # of connection points: 4
#     Node 12, Type 0, BuildingBlock: QUQFOY_clean_sbu_3, # of connection points: 4
#     Node 13, Type 0, BuildingBlock: QUQFOY_clean_sbu_3, # of connection points: 4
#     Node 14, Type 0, BuildingBlock: QUQFOY_clean_sbu_3, # of connection points: 4
#     Node 15, Type 0, BuildingBlock: QUQFOY_clean_sbu_3, # of connection points: 4
#     Node 16, Type 0, BuildingBlock: QUQFOY_clean_sbu_3, # of connection points: 4
#     Node 17, Type 0, BuildingBlock: QUQFOY_clean_sbu_3, # of connection points: 4
#     Node 18, Type 0, BuildingBlock: QUQFOY_clean_sbu_3, # of connection points: 4
#     Node 19, Type 0, BuildingBlock: QUQFOY_clean_sbu_3, # of connection points: 4
#     Node 20, Type 0, BuildingBlock: QUQFOY_clean_sbu_3, # of connection points: 4
#     Node 21, Type 0, BuildingBlock: QUQFOY_clean_sbu_3, # of connection points: 4
#     Node 22, Type 0, BuildingBlock: QUQFOY_clean_sbu_3, # of connection points: 4
#     Node 23, Type 0, BuildingBlock: QUQFOY_clean_sbu_3, # of connection points: 4
#     Node 24, Type 1, BuildingBlock: MIFKUJ_clean_sbu_0, # of connection points: 6
#     Node 25, Type 1, BuildingBlock: MIFKUJ_clean_sbu_0, # of connection points: 6
#     Node 26, Type 1, BuildingBlock: MIFKUJ_clean_sbu_0, # of connection points: 6
#     Node 27, Type 1, BuildingBlock: MIFKUJ_clean_sbu_0, # of connection points: 6
#     Node 28, Type 1, BuildingBlock: MIFKUJ_clean_sbu_0, # of connection points: 6
#     Node 29, Type 1, BuildingBlock: MIFKUJ_clean_sbu_0, # of connection points: 6
#     Node 30, Type 1, BuildingBlock: MIFKUJ_clean_sbu_0, # of connection points: 6
#     Node 31, Type 1, BuildingBlock: MIFKUJ_clean_sbu_0, # of connection points: 6
#     Node 32, Type 1, BuildingBlock: MIFKUJ_clean_sbu_0, # of connection points: 6
#     Node 33, Type 1, BuildingBlock: MIFKUJ_clean_sbu_0, # of connection points: 6
#     Node 34, Type 1, BuildingBlock: MIFKUJ_clean_sbu_0, # of connection points: 6
#     Node 35, Type 1, BuildingBlock: MIFKUJ_clean_sbu_0, # of connection points: 6
#     Node 36, Type 1, BuildingBlock: MIFKUJ_clean_sbu_0, # of connection points: 6
#     Node 37, Type 1, BuildingBlock: MIFKUJ_clean_sbu_0, # of connection points: 6
#     Node 38, Type 1, BuildingBlock: MIFKUJ_clean_sbu_0, # of connection points: 6
#     Node 39, Type 1, BuildingBlock: MIFKUJ_clean_sbu_0, # of connection points: 6
#     Edge 40, Type (0, 1), BuildingBlock: XUDNAN_clean_linker_2, # of connection points: 2
#     Edge 41, Type (0, 1), BuildingBlock: XUDNAN_clean_linker_2, # of connection points: 2
#     Edge 42, Type (0, 1), BuildingBlock: XUDNAN_clean_linker_2, # of connection points: 2
#     Edge 43, Type (0, 1), BuildingBlock: XUDNAN_clean_linker_2, # of connection points: 2
#     Edge 44, Type (0, 1), BuildingBlock: XUDNAN_clean_linker_2, # of connection points: 2
#     Edge 45, Type (0, 1), BuildingBlock: XUDNAN_clean_linker_2, # of connection points: 2
#     Edge 46, Type (0, 1), BuildingBlock: XUDNAN_clean_linker_2, # of connection points: 2
#     Edge 47, Type (0, 1), BuildingBlock: XUDNAN_clean_linker_2, # of connection points: 2
#     Edge 48, Type (0, 1), BuildingBlock: XUDNAN_clean_linker_2, # of connection points: 2
#     Edge 49, Type (0, 1), BuildingBlock: XUDNAN_clean_linker_2, # of connection points: 2
#     Edge 50, Type (0, 1), BuildingBlock: XUDNAN_clean_linker_2, # of connection points: 2
#     Edge 51, Type (0, 1), BuildingBlock: XUDNAN_clean_linker_2, # of connection points: 2
#     Edge 52, Type (0, 1), BuildingBlock: XUDNAN_clean_linker_2, # of connection points: 2
#     Edge 53, Type (0, 1), BuildingBlock: XUDNAN_clean_linker_2, # of connection points: 2
#     Edge 54, Type (0, 1), BuildingBlock: XUDNAN_clean_linker_2, # of connection points: 2
#     Edge 55, Type (0, 1), BuildingBlock: XUDNAN_clean_linker_2, # of connection points: 2
#     Edge 56, Type (0, 1), BuildingBlock: XUDNAN_clean_linker_2, # of connection points: 2
#     Edge 57, Type (0, 1), BuildingBlock: XUDNAN_clean_linker_2, # of connection points: 2
#     Edge 58, Type (0, 1), BuildingBlock: XUDNAN_clean_linker_2, # of connection points: 2
#     Edge 59, Type (0, 1), BuildingBlock: XUDNAN_clean_linker_2, # of connection points: 2
#     Edge 60, Type (0, 1), BuildingBlock: XUDNAN_clean_linker_2, # of connection points: 2
#     Edge 61, Type (0, 1), BuildingBlock: XUDNAN_clean_linker_2, # of connection points: 2
#     Edge 62, Type (0, 1), BuildingBlock: XUDNAN_clean_linker_2, # of connection points: 2
#     Edge 63, Type (0, 1), BuildingBlock: XUDNAN_clean_linker_2, # of connection points: 2
#     Edge 64, Type (0, 1), BuildingBlock: XUDNAN_clean_linker_2, # of connection points: 2
#     Edge 65, Type (0, 1), BuildingBlock: XUDNAN_clean_linker_2, # of connection points: 2
#     Edge 66, Type (0, 1), BuildingBlock: XUDNAN_clean_linker_2, # of connection points: 2
#     Edge 67, Type (0, 1), BuildingBlock: XUDNAN_clean_linker_2, # of connection points: 2
#     Edge 68, Type (0, 1), BuildingBlock: XUDNAN_clean_linker_2, # of connection points: 2
#     Edge 69, Type (0, 1), BuildingBlock: XUDNAN_clean_linker_2, # of connection points: 2
#     Edge 70, Type (0, 1), BuildingBlock: XUDNAN_clean_linker_2, # of connection points: 2
#     Edge 71, Type (0, 1), BuildingBlock: XUDNAN_clean_linker_2, # of connection points: 2
#     Edge 72, Type (0, 1), BuildingBlock: XUDNAN_clean_linker_2, # of connection points: 2
#     Edge 73, Type (0, 1), BuildingBlock: XUDNAN_clean_linker_2, # of connection points: 2
#     Edge 74, Type (0, 1), BuildingBlock: XUDNAN_clean_linker_2, # of connection points: 2
#     Edge 75, Type (0, 1), BuildingBlock: XUDNAN_clean_linker_2, # of connection points: 2
#     Edge 76, Type (0, 1), BuildingBlock: XUDNAN_clean_linker_2, # of connection points: 2
#     Edge 77, Type (0, 1), BuildingBlock: XUDNAN_clean_linker_2, # of connection points: 2
#     Edge 78, Type (0, 1), BuildingBlock: XUDNAN_clean_linker_2, # of connection points: 2
#     Edge 79, Type (0, 1), BuildingBlock: XUDNAN_clean_linker_2, # of connection points: 2
#     Edge 80, Type (0, 1), BuildingBlock: XUDNAN_clean_linker_2, # of connection points: 2
#     Edge 81, Type (0, 1), BuildingBlock: XUDNAN_clean_linker_2, # of connection points: 2
#     Edge 82, Type (0, 1), BuildingBlock: XUDNAN_clean_linker_2, # of connection points: 2
#     Edge 83, Type (0, 1), BuildingBlock: XUDNAN_clean_linker_2, # of connection points: 2
#     Edge 84, Type (0, 1), BuildingBlock: XUDNAN_clean_linker_2, # of connection points: 2
#     Edge 85, Type (0, 1), BuildingBlock: XUDNAN_clean_linker_2, # of connection points: 2
#     Edge 86, Type (0, 1), BuildingBlock: XUDNAN_clean_linker_2, # of connection points: 2
#     Edge 87, Type (0, 1), BuildingBlock: XUDNAN_clean_linker_2, # of connection points: 2
#     Edge 88, Type (0, 1), BuildingBlock: XUDNAN_clean_linker_2, # of connection points: 2
#     Edge 89, Type (0, 1), BuildingBlock: XUDNAN_clean_linker_2, # of connection points: 2
#     Edge 90, Type (0, 1), BuildingBlock: XUDNAN_clean_linker_2, # of connection points: 2
#     Edge 91, Type (0, 1), BuildingBlock: XUDNAN_clean_linker_2, # of connection points: 2
#     Edge 92, Type (0, 1), BuildingBlock: XUDNAN_clean_linker_2, # of connection points: 2
#     Edge 93, Type (0, 1), BuildingBlock: XUDNAN_clean_linker_2, # of connection points: 2
#     Edge 94, Type (0, 1), BuildingBlock: XUDNAN_clean_linker_2, # of connection points: 2
#     Edge 95, Type (0, 1), BuildingBlock: XUDNAN_clean_linker_2, # of connection points: 2
#     Edge 96, Type (0, 1), BuildingBlock: XUDNAN_clean_linker_2, # of connection points: 2
#     Edge 97, Type (0, 1), BuildingBlock: XUDNAN_clean_linker_2, # of connection points: 2
#     Edge 98, Type (0, 1), BuildingBlock: XUDNAN_clean_linker_2, # of connection points: 2
#     Edge 99, Type (0, 1), BuildingBlock: XUDNAN_clean_linker_2, # of connection points: 2
#     Edge 100, Type (0, 1), BuildingBlock: XUDNAN_clean_linker_2, # of connection points: 2
#     Edge 101, Type (0, 1), BuildingBlock: XUDNAN_clean_linker_2, # of connection points: 2
#     Edge 102, Type (0, 1), BuildingBlock: XUDNAN_clean_linker_2, # of connection points: 2
#     Edge 103, Type (0, 1), BuildingBlock: XUDNAN_clean_linker_2, # of connection points: 2
#     Edge 104, Type (0, 1), BuildingBlock: XUDNAN_clean_linker_2, # of connection points: 2
#     Edge 105, Type (0, 1), BuildingBlock: XUDNAN_clean_linker_2, # of connection points: 2
#     Edge 106, Type (0, 1), BuildingBlock: XUDNAN_clean_linker_2, # of connection points: 2
#     Edge 107, Type (0, 1), BuildingBlock: XUDNAN_clean_linker_2, # of connection points: 2
#     Edge 108, Type (0, 1), BuildingBlock: XUDNAN_clean_linker_2, # of connection points: 2
#     Edge 109, Type (0, 1), BuildingBlock: XUDNAN_clean_linker_2, # of connection points: 2
#     Edge 110, Type (0, 1), BuildingBlock: XUDNAN_clean_linker_2, # of connection points: 2
#     Edge 111, Type (0, 1), BuildingBlock: XUDNAN_clean_linker_2, # of connection points: 2
#     Edge 112, Type (0, 1), BuildingBlock: XUDNAN_clean_linker_2, # of connection points: 2
#     Edge 113, Type (0, 1), BuildingBlock: XUDNAN_clean_linker_2, # of connection points: 2
#     Edge 114, Type (0, 1), BuildingBlock: XUDNAN_clean_linker_2, # of connection points: 2
#     Edge 115, Type (0, 1), BuildingBlock: XUDNAN_clean_linker_2, # of connection points: 2
#     Edge 116, Type (0, 1), BuildingBlock: XUDNAN_clean_linker_2, # of connection points: 2
#     Edge 117, Type (0, 1), BuildingBlock: XUDNAN_clean_linker_2, # of connection points: 2
#     Edge 118, Type (0, 1), BuildingBlock: XUDNAN_clean_linker_2, # of connection points: 2
#     Edge 119, Type (0, 1), BuildingBlock: XUDNAN_clean_linker_2, # of connection points: 2
#     Edge 120, Type (0, 1), BuildingBlock: XUDNAN_clean_linker_2, # of connection points: 2
#     Edge 121, Type (0, 1), BuildingBlock: XUDNAN_clean_linker_2, # of connection points: 2
#     Edge 122, Type (0, 1), BuildingBlock: XUDNAN_clean_linker_2, # of connection points: 2
#     Edge 123, Type (0, 1), BuildingBlock: XUDNAN_clean_linker_2, # of connection points: 2
#     Edge 124, Type (0, 1), BuildingBlock: XUDNAN_clean_linker_2, # of connection points: 2
#     Edge 125, Type (0, 1), BuildingBlock: XUDNAN_clean_linker_2, # of connection points: 2
#     Edge 126, Type (0, 1), BuildingBlock: XUDNAN_clean_linker_2, # of connection points: 2
#     Edge 127, Type (0, 1), BuildingBlock: XUDNAN_clean_linker_2, # of connection points: 2
#     Edge 128, Type (0, 1), BuildingBlock: XUDNAN_clean_linker_2, # of connection points: 2
#     Edge 129, Type (0, 1), BuildingBlock: XUDNAN_clean_linker_2, # of connection points: 2
#     Edge 130, Type (0, 1), BuildingBlock: XUDNAN_clean_linker_2, # of connection points: 2
#     Edge 131, Type (0, 1), BuildingBlock: XUDNAN_clean_linker_2, # of connection points: 2
#     Edge 132, Type (0, 1), BuildingBlock: XUDNAN_clean_linker_2, # of connection points: 2
#     Edge 133, Type (0, 1), BuildingBlock: XUDNAN_clean_linker_2, # of connection points: 2
#     Edge 134, Type (0, 1), BuildingBlock: XUDNAN_clean_linker_2, # of connection points: 2
#     Edge 135, Type (0, 1), BuildingBlock: XUDNAN_clean_linker_2, # of connection points: 2
# Relax obj value: 0.096
# Max RMSD: 0.285
# Mean RMSD: 0.126
data_MOF--net-gar--node1-QUQFOY_clean_sbu_3--node2-MIFKUJ_clean_sbu_0--edge1-XUDNAN_clean_linker_2
_symmetry_space_group_name_H-M    P1
_symmetry_Int_Tables_number       1
_symmetry_cell_setting            triclinic
loop_
_symmetry_equiv_pos_as_xyz
'x, y, z'
_cell_length_a     56.658235
_cell_length_b     57.631323
_cell_length_c     54.856011
_cell_angle_alpha  95.54071
_cell_angle_beta   94.47831
_cell_angle_gamma 99.302617
loop_
_atom_site_label
_atom_site_type_symbol
_atom_site_fract_x
_atom_site_fract_y
_atom_site_fract_z
_atom_type_partial_charge
C0 C 0.00547 0.29301 0.38671 0.0
O1 O 0.02309 0.30361 0.37685 0.0
Cd2 Cd 0.0641 0.30156 0.38832 0.0
O3 O 0.00896 0.28039 0.40411 0.0
Cd4 Cd 0.04396 0.26895 0.42751 0.0
C5 C 0.06748 0.32638 0.44778 0.0
O6 O 0.0631 0.2602 0.39089 0.0
O7 O 0.08544 0.26054 0.42454 0.0
O8 O 0.02098 0.2297 0.42881 0.0
C9 C 0.08219 0.25561 0.40134 0.0
O10 O 0.07487 0.32798 0.42658 0.0
C11 C 0.02455 0.22955 0.45191 0.0
O12 O 0.05466 0.3074 0.45256 0.0
O13 O 0.03652 0.24819 0.46404 0.0
C14 C 0.97217 0.74301 0.6926 0.0
O15 O 0.98546 0.73222 0.70558 0.0
Cd16 Cd 0.01893 0.71572 0.69298 0.0
O17 O 0.97674 0.74728 0.67084 0.0
Cd18 Cd 0.00897 0.74342 0.64226 0.0
C19 C 0.99432 0.68336 0.63718 0.0
O20 O 0.03971 0.74771 0.67545 0.0
O21 O 0.05237 0.74139 0.63994 0.0
O22 O 0.00561 0.78374 0.63504 0.0
C23 C 0.05698 0.7444 0.6631 0.0
O24 O 0.00216 0.68473 0.65979 0.0
C25 C 0.00571 0.78065 0.61183 0.0
O26 O 0.99428 0.70181 0.62606 0.0
O27 O 0.00677 0.75985 0.60238 0.0
C28 C 0.47957 0.77164 0.86951 0.0
O29 O 0.49144 0.77946 0.85244 0.0
Cd30 Cd 0.53458 0.78501 0.85463 0.0
O31 O 0.49012 0.76454 0.88804 0.0
Cd32 Cd 0.53066 0.75931 0.90395 0.0
C33 C 0.54668 0.81868 0.91112 0.0
O34 O 0.54684 0.74928 0.86508 0.0
O35 O 0.57252 0.75884 0.89709 0.0
O36 O 0.51644 0.71944 0.91283 0.0
C37 C 0.56841 0.75149 0.87435 0.0
O38 O 0.54764 0.81702 0.88789 0.0
C39 C 0.52274 0.72318 0.93578 0.0
O40 O 0.53969 0.80052 0.92188 0.0
O41 O 0.53239 0.74414 0.94433 0.0
C42 C 0.4565 0.24205 0.16482 0.0
O43 O 0.46909 0.23313 0.18043 0.0
Cd44 Cd 0.50673 0.22229 0.17222 0.0
O45 O 0.4639 0.24614 0.144 0.0
Cd46 Cd 0.49754 0.24496 0.11747 0.0
C47 C 0.48899 0.18543 0.11685 0.0
O48 O 0.52362 0.25589 0.15406 0.0
O49 O 0.54237 0.253 0.12171 0.0
O50 O 0.47764 0.27666 0.10611 0.0
C51 C 0.54346 0.25659 0.14497 0.0
O52 O 0.49513 0.18909 0.13995 0.0
C53 C 0.48572 0.27822 0.08533 0.0
O54 O 0.48823 0.20251 0.10383 0.0
O55 O 0.49976 0.26411 0.07893 0.0
C56 C 0.00129 0.76845 0.18911 0.0
O57 O 0.01934 0.76143 0.19942 0.0
Cd58 Cd 0.05811 0.76309 0.18473 0.0
O59 O 0.00276 0.77812 0.16917 0.0
Cd60 Cd 0.03272 0.79 0.13968 0.0
C61 C 0.03976 0.7323 0.12706 0.0
O62 O 0.0658 0.8009 0.17079 0.0
O63 O 0.07573 0.80184 0.13394 0.0
O64 O 0.017 0.82661 0.13649 0.0
C65 C 0.08242 0.80416 0.15677 0.0
O66 O 0.05025 0.73366 0.1487 0.0
C67 C 0.01315 0.82399 0.11318 0.0
O68 O 0.03109 0.7497 0.11943 0.0
O69 O 0.01802 0.80521 0.10205 0.0
C70 C 0.45218 0.7454 0.34902 0.0
O71 O 0.46333 0.75836 0.3347 0.0
Cd72 Cd 0.50163 0.78213 0.34486 0.0
O73 O 0.46208 0.74282 0.3701 0.0
Cd74 Cd 0.50241 0.75463 0.39436 0.0
C75 C 0.49185 0.81105 0.40074 0.0
O76 O 0.52492 0.75463 0.35889 0.0
O77 O 0.54587 0.769 0.39299 0.0
O78 O 0.50107 0.7137 0.40202 0.0
C79 C 0.54528 0.76314 0.37004 0.0
O80 O 0.49439 0.81096 0.37787 0.0
C81 C 0.50589 0.7177 0.42518 0.0
O82 O 0.49374 0.79289 0.41182 0.0
O83 O 0.50829 0.73912 0.4345 0.0
C84 C 0.49259 0.26246 0.6785 0.0
O85 O 0.50686 0.25842 0.69602 0.0
Cd86 Cd 0.54942 0.26245 0.69434 0.0
O87 O 0.50057 0.27005 0.65913 0.0
Cd88 Cd 0.53824 0.28252 0.64034 0.0
C89 C 0.54913 0.22631 0.63949 0.0
O90 O 0.56046 0.29915 0.67872 0.0
O91 O 0.58209 0.296 0.64855 0.0
O92 O 0.5203 0.31589 0.62993 0.0
C93 C 0.58117 0.30214 0.67126 0.0
O94 O 0.55365 0.23089 0.66276 0.0
C95 C 0.52447 0.31456 0.6075 0.0
O96 O 0.54171 0.24138 0.62648 0.0
O97 O 0.53496 0.29773 0.59977 0.0
C98 C 0.95856 0.25513 0.83586 0.0
O99 O 0.97026 0.27188 0.82604 0.0
Cd100 Cd 0.01032 0.29055 0.83906 0.0
O101 O 0.96779 0.24668 0.85427 0.0
Cd102 Cd 0.00626 0.25265 0.88097 0.0
C103 C -0.00044 0.30896 0.89878 0.0
O104 O 0.03034 0.25895 0.84736 0.0
O105 O 0.05019 0.26522 0.88319 0.0
O106 O 0.00185 0.2103 0.87668 0.0
C107 C 0.05044 0.26417 0.86002 0.0
O108 O 0.00459 0.31275 0.87714 0.0
C109 C 0.00578 0.20788 0.89928 0.0
O110 O -0.00198 0.28826 0.90564 0.0
O111 O 0.00887 0.22658 0.91433 0.0
C112 C 0.43525 0.01904 0.30397 0.0
O113 O 0.44466 0.00633 0.28859 0.0
Cd114 Cd 0.42402 0.98381 0.25237 0.0
O115 O 0.41354 0.02217 0.29989 0.0
Cd116 Cd 0.38047 0.01186 0.2654 0.0
C117 C 0.37371 0.95456 0.27597 0.0
O118 O 0.40543 0.01098 0.23136 0.0
O119 O 0.36825 0.99556 0.22229 0.0
O120 O 0.37473 0.05308 0.26883 0.0
C121 C 0.38887 0.00118 0.21504 0.0
O122 O 0.3934 0.95436 0.26624 0.0
C123 C 0.35202 0.0487 0.26873 0.0
O124 O 0.36508 0.97361 0.27928 0.0
O125 O 0.34247 0.0271 0.26809 0.0
C126 C 0.28579 0.10541 0.5107 0.0
O127 O 0.27181 0.09002 0.5202 0.0
Cd128 Cd 0.23025 0.09185 0.52365 0.0
O129 O 0.27788 0.1226 0.50171 0.0
Cd130 Cd 0.23978 0.1385 0.49467 0.0
C131 C 0.23509 0.14677 0.55636 0.0
O132 O 0.21465 0.10013 0.48411 0.0
O133 O 0.19525 0.12911 0.48896 0.0
O134 O 0.25132 0.14972 0.45472 0.0
C135 C 0.19457 0.10708 0.48363 0.0
O136 O 0.23027 0.12435 0.55595 0.0
C137 C 0.25094 0.17164 0.45968 0.0
O138 O 0.24002 0.15629 0.53695 0.0
O139 O 0.24485 0.17812 0.48073 0.0
C140 C 0.10917 0.01262 0.83203 0.0
O141 O 0.09797 0.0267 0.82122 0.0
Cd142 Cd 0.10693 0.04158 0.78332 0.0
O143 O 0.12674 0.00486 0.82269 0.0
Cd144 Cd 0.1469 0.00828 0.78363 0.0
C145 C 0.1663 0.06768 0.79491 0.0
O146 O 0.10975 0.00669 0.7575 0.0
O147 O 0.14197 0.01318 0.73919 0.0
O148 O 0.15184 0.96667 0.78213 0.0
C149 C 0.11923 0.00963 0.73769 0.0
O150 O 0.1445 0.07003 0.79014 0.0
C151 C 0.1741 0.97053 0.77918 0.0
O152 O 0.17192 0.0472 0.79525 0.0
O153 O 0.18379 0.99196 0.77905 0.0
C154 C 0.28265 0.91782 0.99482 0.0
O155 O 0.2661 0.92923 0.98882 0.0
Cd156 Cd 0.22444 0.91583 0.9936 0.0
O157 O 0.27787 0.89881 0.00495 0.0
Cd158 Cd 0.24322 0.87323 0.01904 0.0
C159 C 0.21893 0.86147 0.95978 0.0
O160 O 0.22304 0.9052 0.03471 0.0
O161 O 0.20317 0.86984 0.03334 0.0
O162 O 0.27104 0.8666 0.05302 0.0
C163 C 0.20426 0.8918 0.03932 0.0
O164 O 0.2134 0.8821 0.96181 0.0
C165 C 0.26378 0.84441 0.05131 0.0
O166 O 0.23066 0.85431 0.97747 0.0
O167 O 0.24727 0.83568 0.03438 0.0
C168 C 0.29697 0.43309 0.0509 0.0
O169 O 0.28423 0.44487 0.0386 0.0
Cd170 Cd 0.2448 0.42964 0.01995 0.0
O171 O 0.28847 0.4124 0.05599 0.0
Cd172 Cd 0.24811 0.38568 0.05043 0.0
C173 C 0.25573 0.37741 0.98985 0.0
O174 O 0.22285 0.41617 0.05267 0.0
O175 O 0.20507 0.38196 0.03588 0.0
O176 O 0.25193 0.37613 0.09322 0.0
C177 C 0.20344 0.403 0.04377 0.0
O178 O 0.25011 0.39783 0.98848 0.0
C179 C 0.24649 0.35386 0.08778 0.0
O180 O 0.25748 0.36911 0.01048 0.0
O181 O 0.24226 0.34643 0.06505 0.0
C182 C 0.8057 0.08306 0.04193 0.0
O183 O 0.79557 0.07347 0.05914 0.0
Cd184 Cd 0.76508 0.08918 0.0798 0.0
O185 O 0.7997 0.10189 0.03479 0.0
Cd186 Cd 0.77018 0.12838 0.04511 0.0
C187 C 0.79343 0.14437 0.10408 0.0
O188 O 0.73541 0.09778 0.04952 0.0
O189 O 0.7327 0.13386 0.06182 0.0
O190 O 0.76404 0.13282 0.00117 0.0
C191 C 0.72252 0.11248 0.05722 0.0
O192 O 0.78441 0.12353 0.10801 0.0
C193 C 0.76668 0.15524 0.00396 0.0
O194 O 0.79213 0.15068 0.08248 0.0
O195 O 0.77152 0.16524 0.02583 0.0
C196 C 0.06303 0.48615 0.29951 0.0
O197 O 0.05241 0.49867 0.2859 0.0
Cd198 Cd 0.06081 0.50362 0.24445 0.0
O199 O 0.08068 0.47686 0.29242 0.0
Cd200 Cd 0.1057 0.47495 0.25701 0.0
C201 C 0.11837 0.5348 0.25347 0.0
O202 O 0.06913 0.46542 0.23032 0.0
O203 O 0.10087 0.46579 0.21144 0.0
O204 O 0.11571 0.44069 0.27612 0.0
C205 C 0.07815 0.4631 0.2101 0.0
O206 O 0.0963 0.53437 0.2466 0.0
C207 C 0.13726 0.44323 0.27062 0.0
O208 O 0.1258 0.51624 0.25955 0.0
O209 O 0.14405 0.46021 0.25828 0.0
C210 C 0.79297 0.93686 0.55157 0.0
O211 O 0.78112 0.95268 0.54554 0.0
Cd212 Cd 0.74001 0.94128 0.52859 0.0
O213 O 0.78243 0.91559 0.55164 0.0
Cd214 Cd 0.74329 0.88845 0.54617 0.0
C215 C 0.74921 0.89462 0.48628 0.0
O216 O 0.7182 0.91798 0.55573 0.0
O217 O 0.69977 0.88437 0.53769 0.0
O218 O 0.75836 0.87899 0.5858 0.0
C219 C 0.69855 0.90527 0.54651 0.0
O220 O 0.74516 0.91552 0.49191 0.0
C221 C 0.75152 0.85679 0.58181 0.0
O222 O 0.75018 0.88028 0.50256 0.0
O223 O 0.74022 0.8487 0.56098 0.0
C224 C 0.92956 0.9886 0.29271 0.0
O225 O 0.94091 0.978 0.27732 0.0
Cd226 Cd 0.93417 0.97653 0.23397 0.0
O227 O 0.91322 -3e-05 0.28541 0.0
Cd228 Cd 0.89468 0.00839 0.24463 0.0
C229 C 0.87571 0.94908 0.22853 0.0
O230 O 0.93321 0.01719 0.22839 0.0
O231 O 0.90293 0.01608 0.20184 0.0
O232 O 0.88866 0.04628 0.26556 0.0
C233 C 0.92551 0.0208 0.20708 0.0
O234 O 0.89734 0.94733 0.22513 0.0
C235 C 0.86736 0.04517 0.25582 0.0
O236 O 0.87021 0.96896 0.23592 0.0
O237 O 0.85865 0.02678 0.24125 0.0
C238 C 0.31328 0.60575 0.52548 0.0
O239 O 0.30156 0.59297 0.53955 0.0
Cd240 Cd 0.26465 0.59961 0.55341 0.0
O241 O 0.30582 0.62403 0.51849 0.0
Cd242 Cd 0.27014 0.64407 0.52492 0.0
C243 C 0.28234 0.65402 0.58651 0.0
O244 O 0.24437 0.60622 0.51532 0.0
O245 O 0.22588 0.63486 0.52597 0.0
O246 O 0.27777 0.65569 0.48468 0.0
C247 C 0.22472 0.61369 0.51662 0.0
O248 O 0.27599 0.63182 0.58641 0.0
C249 C 0.2701 0.67517 0.48756 0.0
O250 O 0.28239 0.6635 0.56655 0.0
O251 O 0.26347 0.68096 0.50853 0.0
C252 C 0.42565 0.51172 0.80259 0.0
O253 O 0.44001 0.50127 0.79076 0.0
Cd254 Cd 0.43039 0.49017 0.74687 0.0
O255 O 0.40764 0.5178 0.79117 0.0
Cd256 Cd 0.38754 0.51802 0.74998 0.0
C257 C 0.37378 0.45823 0.74586 0.0
O258 O 0.42268 0.52373 0.72561 0.0
O259 O 0.38728 0.51462 0.70588 0.0
O260 O 0.38204 0.55853 0.76192 0.0
C261 C 0.40976 0.52038 0.70514 0.0
O262 O 0.39592 0.45785 0.74358 0.0
C263 C 0.35923 0.55421 0.75911 0.0
O264 O 0.36615 0.47778 0.74913 0.0
O265 O 0.34949 0.53307 0.75138 0.0
C266 C 0.58439 0.00655 0.78939 0.0
O267 O 0.56738 0.01114 0.77514 0.0
Cd268 Cd 0.56762 0.0072 0.73131 0.0
O269 O 0.60143 0.99726 0.78082 0.0
Cd270 Cd 0.6159 0.9813 0.74208 0.0
C271 C 0.62522 0.03867 0.73004 0.0
O272 O 0.5763 0.96847 0.72155 0.0
O273 O 0.60473 0.96629 0.69826 0.0
O274 O 0.62698 0.95013 0.76558 0.0
C275 C 0.58232 0.96369 0.70016 0.0
O276 O 0.60249 0.03745 0.72693 0.0
C277 C 0.64767 0.95084 0.75796 0.0
O278 O 0.63452 0.02101 0.73581 0.0
O279 O 0.6534 0.96539 0.74254 0.0
C280 C 0.78657 0.59846 0.00404 0.0
O281 O 0.77254 0.58387 0.01444 0.0
Cd282 Cd 0.7312 0.58715 0.01685 0.0
O283 O 0.77875 0.61511 0.99389 0.0
Cd284 Cd 0.74147 0.63179 0.98487 0.0
C285 C 0.73808 0.64406 0.04623 0.0
O286 O 0.7168 0.59282 0.97589 0.0
O287 O 0.69719 0.62176 0.97749 0.0
O288 O 0.76193 0.64165 0.94863 0.0
C289 C 0.69667 0.59962 0.97392 0.0
O290 O 0.73244 0.62183 0.04691 0.0
C291 C 0.75473 0.66124 0.9471 0.0
O292 O 0.74315 0.65242 0.02624 0.0
O293 O 0.74082 0.6671 0.9628 0.0
C294 C 0.92918 0.51951 0.80663 0.0
O295 O 0.93797 0.50775 0.78988 0.0
Cd296 Cd 0.9158 0.48643 0.75376 0.0
O297 O 0.90732 0.52254 0.80408 0.0
Cd298 Cd 0.87287 0.51349 0.77101 0.0
C299 C 0.86759 0.45588 0.77959 0.0
O300 O 0.89544 0.51377 0.73514 0.0
O301 O 0.85824 0.49766 0.72839 0.0
O302 O 0.86712 0.55462 0.77687 0.0
C303 C 0.87808 0.50388 0.71974 0.0
O304 O 0.88643 0.45618 0.76825 0.0
C305 C 0.8444 0.55002 0.77652 0.0
O306 O 0.8591 0.47479 0.78461 0.0
O307 O 0.83491 0.52833 0.77501 0.0
C308 C 0.78278 0.40023 0.4872 0.0
O309 O 0.77026 0.41452 0.47862 0.0
Cd310 Cd 0.72743 0.40979 0.48042 0.0
O311 O 0.77342 0.38375 0.49914 0.0
Cd312 Cd 0.73433 0.36829 0.51363 0.0
C313 C 0.71396 0.35279 0.45324 0.0
O314 O 0.72116 0.40613 0.52276 0.0
O315 O 0.69463 0.37494 0.52436 0.0
O316 O 0.75252 0.36238 0.5539 0.0
C317 C 0.70046 0.39728 0.52801 0.0
O318 O 0.71239 0.37436 0.45142 0.0
C319 C 0.74499 0.34021 0.55177 0.0
O320 O 0.7219 0.34641 0.47342 0.0
O321 O 0.73295 0.33101 0.53169 0.0
C322 C 0.6094 0.52044 0.32917 0.0
O323 O 0.59566 0.53098 0.31643 0.0
Cd324 Cd 0.60337 0.5436 0.27744 0.0
O325 O 0.62816 0.51434 0.32072 0.0
Cd326 Cd 0.64835 0.51457 0.28135 0.0
C327 C 0.66141 0.57438 0.2918 0.0
O328 O 0.61104 0.50853 0.2552 0.0
O329 O 0.64261 0.51473 0.23587 0.0
O330 O 0.65451 0.4745 0.28722 0.0
C331 C 0.61989 0.51026 0.23489 0.0
O332 O 0.63896 0.57419 0.28753 0.0
C333 C 0.67656 0.47765 0.2834 0.0
O334 O 0.67001 0.55526 0.29084 0.0
O335 O 0.68577 0.49823 0.27896 0.0
Zn336 Zn 0.04243 0.00981 0.03924 0.0
Zn337 Zn -0.00075 0.02871 0.007 0.0
C338 C 0.00991 0.97616 0.058 0.0
O339 O 0.02052 0.98951 0.07786 0.0
C340 C 0.00759 0.05928 0.9719 0.0
O341 O -0.00131 0.03875 0.95931 0.0
O342 O 0.07011 0.99537 0.05322 0.0
O343 O 0.05184 0.01806 0.00681 0.0
O344 O 0.01612 0.00508 0.98717 0.0
C345 C 0.06959 0.974 0.04449 0.0
O346 O 0.05258 0.96392 0.02735 0.0
O347 O 0.01409 0.98299 0.03714 0.0
C348 C 0.94785 0.01534 0.00882 0.0
O349 O 0.95425 0.00606 0.02875 0.0
O350 O 0.96394 0.02343 0.99549 0.0
O351 O -4e-05 0.0332 0.0445 0.0
O352 O 0.03674 0.03642 0.06243 0.0
O353 O 0.01068 0.06043 0.99521 0.0
C354 C 0.03892 0.00833 0.98753 0.0
C355 C 0.01494 0.03868 0.06353 0.0
Zn356 Zn 0.24077 0.73753 0.27939 0.0
Zn357 Zn 0.27046 0.74904 0.23594 0.0
C358 C 0.20652 0.69662 0.26064 0.0
O359 O 0.1918 0.71091 0.2675 0.0
C360 C 0.30068 0.78953 0.2608 0.0
O361 O 0.31666 0.77722 0.25274 0.0
O362 O 0.23073 0.73708 0.31385 0.0
O363 O 0.27667 0.74214 0.28705 0.0
O364 O 0.28629 0.7253 0.25245 0.0
C365 C 0.23847 0.71994 0.32298 0.0
O366 O 0.24776 0.70505 0.30847 0.0
O367 O 0.22891 0.70462 0.2623 0.0
C368 C 0.27537 0.74713 0.18376 0.0
O369 O 0.25585 0.73107 0.1821 0.0
O370 O 0.28559 0.75562 0.2049 0.0
O371 O 0.23503 0.74223 0.22654 0.0
O372 O 0.22586 0.76077 0.2605 0.0
O373 O 0.27854 0.78052 0.25682 0.0
C374 C 0.29001 0.73005 0.27563 0.0
C375 C 0.22257 0.75581 0.23726 0.0
Zn376 Zn 0.48029 0.03321 0.5222 0.0
Zn377 Zn 0.52496 0.01061 0.50622 0.0
C378 C 0.50764 0.06659 0.55962 0.0
O379 O 0.49594 0.05217 0.57341 0.0
C380 C 0.50514 0.96178 0.50008 0.0
O381 O 0.5219 0.96212 0.51813 0.0
O382 O 0.44821 0.0437 0.52522 0.0
O383 O 0.48151 0.02734 0.48559 0.0
O384 O 0.52064 0.03582 0.48422 0.0
C385 C 0.44704 0.06247 0.51502 0.0
O386 O 0.46586 0.07219 0.50479 0.0
O387 O 0.50455 0.06203 0.53635 0.0
C388 C 0.574 0.00287 0.51901 0.0
O389 O 0.57395 0.01796 0.53853 0.0
O390 O 0.55649 -0.00044 0.50238 0.0
O391 O 0.52312 0.01683 0.54229 0.0
O392 O 0.48414 0.00616 0.5425 0.0
O393 O 0.50148 0.98129 0.49275 0.0
C394 C 0.49944 0.03473 0.4742 0.0
C395 C 0.50541 0.00569 0.55153 0.0
Zn396 Zn 0.29691 0.2531 0.76445 0.0
Zn397 Zn 0.25235 0.26909 0.78178 0.0
C398 C 0.27135 0.22288 0.72424 0.0
O399 O 0.28264 0.2082 0.73559 0.0
C400 C 0.2651 0.30267 0.82341 0.0
O401 O 0.25478 0.31491 0.80798 0.0
O402 O 0.32823 0.24772 0.75186 0.0
O403 O 0.30215 0.28827 0.77438 0.0
O404 O 0.26631 0.28987 0.75739 0.0
C405 C 0.33171 0.2575 0.73231 0.0
O406 O 0.31579 0.26966 0.72377 0.0
O407 O 0.2734 0.24415 0.73394 0.0
C408 C 0.20889 0.2662 0.80192 0.0
O409 O 0.22145 0.25576 0.81735 0.0
O410 O 0.21839 0.27378 0.78337 0.0
O411 O 0.24965 0.23381 0.77706 0.0
O412 O 0.28674 0.23038 0.78906 0.0
O413 O 0.26804 0.28186 0.81584 0.0
C414 C 0.28799 0.29958 0.76326 0.0
C415 C 0.26438 0.22204 0.78657 0.0
Zn416 Zn 0.00938 0.9769 0.52762 0.0
Zn417 Zn 0.99443 0.02544 0.51853 0.0
C418 C 0.04247 0.99322 0.56965 0.0
O419 O 0.05672 0.9841 0.55505 0.0
C420 C 0.96583 0.01362 0.47189 0.0
O421 O 0.95273 0.02801 0.48209 0.0
O422 O 0.01413 0.94294 0.52916 0.0
O423 O 0.97363 0.97476 0.52245 0.0
O424 O 0.97166 0.01 0.54096 0.0
C425 C 0.00641 0.93409 0.54801 0.0
O426 O -0.00316 0.94736 0.56398 0.0
O427 O 0.02084 0.99323 0.56155 0.0
C428 C -0.00041 0.06946 0.50008 0.0
O429 O 0.00955 0.05691 0.48378 0.0
O430 O 0.99087 0.05965 0.51795 0.0
O431 O 0.03008 0.02674 0.5249 0.0
O432 O 0.03051 0.99244 0.50378 0.0
O433 O 0.98427 0.00936 0.48424 0.0
C434 C 0.96256 0.98834 0.53517 0.0
C435 C 0.04031 0.0138 0.51048 0.0
Zn436 Zn 0.26067 0.78334 0.76243 0.0
Zn437 Zn 0.27227 0.73912 0.78925 0.0
C438 C 0.22294 0.75773 0.72781 0.0
O439 O 0.23656 0.76788 0.71219 0.0
C440 C 0.3072 0.7599 0.82788 0.0
O441 O 0.29013 0.75014 0.8404 0.0
O442 O 0.25593 0.81587 0.75384 0.0
O443 O 0.26318 0.78734 0.79933 0.0
O444 O 0.24521 0.75163 0.8049 0.0
C445 C 0.23484 0.82069 0.75474 0.0
O446 O 0.21731 0.80388 0.75841 0.0
O447 O 0.23023 0.76088 0.75056 0.0
C448 C 0.29509 0.70028 0.79386 0.0
O449 O 0.31233 0.71674 0.78882 0.0
O450 O 0.27444 0.70565 0.79665 0.0
O451 O 0.27225 0.73576 0.75257 0.0
O452 O 0.28715 0.77182 0.7448 0.0
O453 O 0.30314 0.75915 0.80468 0.0
C454 C 0.24862 0.77392 0.81045 0.0
C455 C 0.28483 0.74952 0.74001 0.0
Zn456 Zn 0.52053 0.01623 0.99519 0.0
Zn457 Zn 0.4925 0.98338 0.02958 0.0
C458 C 0.55286 0.04957 0.02843 0.0
O459 O 0.53857 0.06343 0.02009 0.0
C460 C 0.45616 0.9565 0.99627 0.0
O461 O 0.46544 0.9399 0.0065 0.0
O462 O 0.53182 0.02943 0.96461 0.0
O463 O 0.51828 0.98128 0.98553 0.0
O464 O 0.51925 0.96627 0.02101 0.0
C465 C 0.55339 0.02716 0.96144 0.0
O466 O 0.56589 0.01846 0.97843 0.0
O467 O 0.5481 0.02752 0.02138 0.0
C468 C 0.45448 0.97478 0.05863 0.0
O469 O 0.44547 0.9863 0.04166 0.0
O470 O 0.47571 0.97033 0.05772 0.0
O471 O 0.50047 0.01762 0.04158 0.0
O472 O 0.49207 0.03031 0.00604 0.0
O473 O 0.46703 0.97775 0.00092 0.0
C474 C 0.52399 0.96575 -0.00125 0.0
C475 C 0.49127 0.03196 0.02921 0.0
Zn476 Zn 0.27015 0.23799 0.26175 0.0
Zn477 Zn 0.25856 0.28613 0.2895 0.0
C478 C 0.30232 0.25094 0.22782 0.0
O479 O 0.28299 0.24059 0.21367 0.0
C480 C 0.22448 0.26656 0.31748 0.0
O481 O 0.2398 0.28167 0.33289 0.0
O482 O 0.26961 0.20287 0.25317 0.0
O483 O 0.27076 0.24039 0.29871 0.0
O484 O 0.28466 0.27767 0.31229 0.0
C485 C 0.28871 0.197 0.26273 0.0
O486 O 0.30497 0.2135 0.27543 0.0
O487 O 0.30174 0.25294 0.25105 0.0
C488 C 0.25264 0.3358 0.28931 0.0
O489 O 0.26456 0.33549 0.26973 0.0
O490 O 0.25037 0.3179 0.30132 0.0
O491 O 0.26301 0.28682 0.25362 0.0
O492 O 0.24462 0.25057 0.241 0.0
O493 O 0.22839 0.26417 0.29491 0.0
C494 C 0.28075 0.256 0.31599 0.0
C495 C 0.25059 0.27203 0.23694 0.0
Zn496 Zn 0.50649 0.47708 0.02342 0.0
Zn497 Zn 0.50146 0.52877 0.02169 0.0
C498 C 0.53993 0.48639 0.06691 0.0
O499 O 0.55385 0.47725 0.05194 0.0
C500 C 0.46718 0.52446 0.9814 0.0
O501 O 0.45743 0.53573 -0.0011 0.0
O502 O 0.50371 0.44152 0.02108 0.0
O503 O 0.47207 0.48255 0.0184 0.0
O504 O 0.47833 0.5147 0.04454 0.0
C505 C 0.48784 0.4326 0.03423 0.0
O506 O 0.47671 0.44679 0.04756 0.0
O507 O 0.51891 0.48861 0.05867 0.0
C508 C 0.5129 0.57244 0.00557 0.0
O509 O 0.52105 0.55798 0.98954 0.0
O510 O 0.50322 0.56417 0.02378 0.0
O511 O 0.53579 0.52437 0.02558 0.0
O512 O 0.53082 0.49103 0.00128 0.0
O513 O 0.48703 0.51768 0.98674 0.0
C514 C 0.46465 0.4958 0.03498 0.0
C515 C 0.54347 0.51096 0.00942 0.0
Zn516 Zn 0.74753 0.28095 0.25949 0.0
Zn517 Zn 0.79454 0.24007 0.29381 0.0
C518 C 0.70651 0.26862 0.22447 0.0
O519 O 0.72189 0.27802 0.20995 0.0
C520 C 0.83525 0.26093 0.32848 0.0
O521 O 0.82142 0.25234 0.34477 0.0
O522 O 0.74934 0.31676 0.26551 0.0
O523 O 0.75562 0.26667 0.29099 0.0
O524 O 0.77147 0.24788 0.31901 0.0
C525 C 0.72995 0.32409 0.27022 0.0
O526 O 0.71044 0.30851 0.27096 0.0
O527 O 0.71374 0.26689 0.24661 0.0
C528 C 0.81209 0.19581 0.29616 0.0
O529 O 0.82886 0.20937 0.31139 0.0
O530 O 0.79485 0.20477 0.28679 0.0
O531 O 0.78439 0.25383 0.26323 0.0
O532 O 0.7691 0.27062 0.23358 0.0
O533 O 0.82752 0.25769 0.30584 0.0
C534 C 0.75633 0.26086 0.31275 0.0
C535 C 0.7832 0.25701 0.24069 0.0
Zn536 Zn 0.01878 0.51153 0.50193 0.0
Zn537 Zn 0.97848 0.47579 0.53681 0.0
C538 C 0.06296 0.52252 0.48162 0.0
O539 O 0.05569 0.50111 0.47029 0.0
C540 C 0.95373 0.44386 0.49754 0.0
O541 O 0.96769 0.4303 0.50713 0.0
O542 O 0.00192 0.50198 0.46783 0.0
O543 O 0.03085 0.48355 0.51499 0.0
O544 O 0.00802 0.4609 0.5373 0.0
C545 C -0.00081 0.48037 0.45901 0.0
O546 O 0.00105 0.46434 0.47416 0.0
O547 O 0.0495 0.53139 0.49604 0.0
C548 C 0.9366 0.46239 0.56147 0.0
O549 O 0.9257 0.46602 0.54053 0.0
O550 O 0.9593 0.46369 0.56357 0.0
O551 O 0.98217 0.51042 0.54696 0.0
O552 O 0.00392 0.53365 0.52434 0.0
O553 O 0.9574 0.46575 0.50532 0.0
C554 C 0.02733 0.46587 0.5272 0.0
C555 C 0.99073 0.53089 0.54184 0.0
Zn556 Zn 0.79261 0.75225 0.25721 0.0
Zn557 Zn 0.74696 0.77893 0.28841 0.0
C558 C 0.77087 0.72291 0.21425 0.0
O559 O 0.77608 0.70683 0.22825 0.0
C560 C 0.76165 0.82176 0.31982 0.0
O561 O 0.75398 0.8302 0.29983 0.0
O562 O 0.82642 0.74747 0.25366 0.0
O563 O 0.79579 0.78729 0.26801 0.0
O564 O 0.75893 0.79286 0.25853 0.0
C565 C 0.8371 0.75851 0.23758 0.0
O566 O 0.82538 0.77154 0.22432 0.0
O567 O 0.77554 0.74457 0.223 0.0
C568 C 0.7042 0.77707 0.30971 0.0
O569 O 0.71915 0.77301 0.32772 0.0
O570 O 0.71194 0.78039 0.28897 0.0
O571 O 0.74897 0.74543 0.29298 0.0
O572 O 0.77771 0.72806 0.27825 0.0
O573 O 0.76229 0.79977 0.31904 0.0
C574 C 0.78138 0.79901 0.25788 0.0
C575 C 0.75946 0.72765 0.29032 0.0
Zn576 Zn 0.74264 0.23946 0.80163 0.0
Zn577 Zn 0.75644 0.24995 0.7511 0.0
C578 C 0.70834 0.19875 0.78009 0.0
O579 O 0.69317 0.21046 0.79076 0.0
C580 C 0.79093 0.2914 0.76607 0.0
O581 O 0.80336 0.27948 0.7517 0.0
O582 O 0.73907 0.23497 0.83731 0.0
O583 O 0.77822 0.24678 0.7997 0.0
O584 O 0.77636 0.22671 0.76319 0.0
C585 C 0.74641 0.21669 0.84419 0.0
O586 O 0.75456 0.20248 0.82792 0.0
O587 O 0.73046 0.20779 0.78204 0.0
C588 C 0.75425 0.27265 0.70841 0.0
O589 O 0.74676 0.28749 0.72455 0.0
O590 O 0.76013 0.25373 0.7153 0.0
O591 O 0.72116 0.24375 0.75312 0.0
O592 O 0.7229 0.2632 0.78978 0.0
O593 O 0.76976 0.28202 0.7695 0.0
C594 C 0.78753 0.23409 0.78418 0.0
C595 C 0.71316 0.25832 0.76782 0.0
Zn596 Zn 0.76769 0.74031 0.75801 0.0
Zn597 Zn 0.76176 0.78954 0.78036 0.0
C598 C 0.81136 0.75087 0.73741 0.0
O599 O 0.79707 0.73952 0.7185 0.0
C600 C 0.72045 0.77593 0.80213 0.0
O601 O 0.73541 0.78866 0.81978 0.0
O602 O 0.76745 0.70509 0.75032 0.0
O603 O 0.75817 0.74259 0.79283 0.0
O604 O 0.7821 0.77621 0.80581 0.0
C605 C 0.78337 0.69855 0.76459 0.0
O606 O 0.79668 0.71443 0.78096 0.0
O607 O 0.80272 0.75452 0.75788 0.0
C608 C 0.75693 0.83822 0.77575 0.0
O609 O 0.76179 0.83279 0.7531 0.0
O610 O 0.75851 0.8234 0.79131 0.0
O611 O 0.77229 0.78859 0.74625 0.0
O612 O 0.75026 0.75461 0.73062 0.0
O613 O 0.7275 0.77285 0.78076 0.0
C614 C 0.77225 0.75565 0.80966 0.0
C615 C 0.76124 0.77513 0.72777 0.0
Zn616 Zn 0.54135 0.51022 0.54076 0.0
Zn617 Zn 0.5006 0.52565 0.5062 0.0
C618 C 0.51772 0.46717 0.55304 0.0
O619 O 0.52156 0.48027 0.57441 0.0
C620 C 0.51849 0.56697 0.48874 0.0
O621 O 0.51224 0.5513 0.46934 0.0
O622 O 0.57071 0.504 0.56039 0.0
O623 O 0.55239 0.5207 0.50863 0.0
O624 O 0.51901 0.5064 0.48484 0.0
C625 C 0.59185 0.5091 0.55403 0.0
O626 O 0.59581 0.52366 0.53722 0.0
O627 O 0.52317 0.47678 0.53387 0.0
C628 C 0.45928 0.54307 0.5025 0.0
O629 O 0.47075 0.55249 0.52376 0.0
O630 O 0.46867 0.52871 0.48878 0.0
O631 O 0.49075 0.51347 0.5376 0.0
O632 O 0.52241 0.52934 0.56277 0.0
O633 O 0.51748 0.55983 0.50995 0.0
C634 C 0.54177 0.51197 0.48767 0.0
C635 C 0.4998 0.52284 0.55883 0.0
Zn636 Zn 0.98197 0.52782 0.02161 0.0
Zn637 Zn 0.02728 0.50692 0.00956 0.0
C638 C 0.00615 0.56857 0.05224 0.0
O639 O -0.00516 0.55715 0.06869 0.0
C640 C 0.00515 0.46667 0.97924 0.0
O641 O 0.01768 0.47892 0.96418 0.0
O642 O 0.94934 0.53749 0.0234 0.0
O643 O 0.98222 0.51703 0.98588 0.0
O644 O 0.0208 0.52915 0.98444 0.0
C645 C 0.94719 0.55403 0.01 0.0
O646 O 0.96528 0.56195 -0.00225 0.0
O647 O 0.00486 0.55867 0.03035 0.0
C648 C 0.0769 0.49914 0.02084 0.0
O649 O 0.07747 0.51406 0.04063 0.0
O650 O 0.05875 0.49578 0.00499 0.0
O651 O 0.02705 0.51709 0.04545 0.0
O652 O 0.98829 0.50516 0.04627 0.0
O653 O 0.00457 0.47598 0.00109 0.0
C654 C -0.00061 0.52594 0.97433 0.0
C655 C 0.00969 0.50722 0.05621 0.0
H656 H 0.0054 0.19344 0.94607 0.0
H657 H 0.01164 0.16924 0.86971 0.0
H658 H 0.01655 0.13008 0.88127 0.0
H659 H 0.0481 0.15966 0.97364 0.0
H660 H 0.03046 0.1525 -0.0013 0.0
H661 H 0.02899 0.17955 0.98511 0.0
H662 H 0.98278 0.16766 0.97646 0.0
H663 H 0.98411 0.1407 0.99019 0.0
H664 H 0.9703 0.13952 0.95926 0.0
H665 H 0.01914 0.09354 0.89978 0.0
H666 H 0.01646 0.05996 0.9244 0.0
H667 H 0.00819 0.10613 0.98929 0.0
C668 C 0.00796 0.1799 0.93188 0.0
C669 C 0.00817 0.18442 0.90698 0.0
C670 C 0.01131 0.1662 0.88887 0.0
C671 C 0.01429 0.14392 0.89526 0.0
C672 C 0.01401 0.13999 0.91984 0.0
C673 C 0.01073 0.15729 0.93792 0.0
C674 C 0.00967 0.14763 0.9627 0.0
C675 C 0.03055 0.16061 0.98113 0.0
C676 C 0.98526 0.14895 0.97274 0.0
C677 C 0.01256 0.12218 0.95553 0.0
C678 C 0.0153 0.1184 0.93072 0.0
C679 C 0.01718 0.09627 0.91927 0.0
C680 C 0.01563 0.07729 0.93339 0.0
C681 C 0.01226 0.08044 0.95869 0.0
C682 C 0.01119 0.10331 0.97005 0.0
H683 H 0.10021 0.80121 0.20394 0.0
H684 H 0.121 0.80423 0.12965 0.0
H685 H 0.16097 0.79583 0.14344 0.0
H686 H 0.16076 0.82661 0.23662 0.0
H687 H 0.15653 0.80709 0.26027 0.0
H688 H 0.13104 0.81698 0.24538 0.0
H689 H 0.11046 0.77335 0.23371 0.0
H690 H 0.13595 0.76331 0.24822 0.0
H691 H 0.1259 0.75328 0.2164 0.0
H692 H 0.19583 0.78118 0.16355 0.0
H693 H 0.22473 0.76428 0.18948 0.0
H694 H 0.18187 0.77154 0.25109 0.0
C695 C 0.11341 0.80082 0.19071 0.0
C696 C 0.10753 0.8034 0.16572 0.0
C697 C 0.12516 0.80239 0.1489 0.0
C698 C 0.1479 0.79763 0.15656 0.0
C699 C 0.15278 0.79422 0.18113 0.0
C700 C 0.13618 0.79612 0.19807 0.0
C701 C 0.14521 0.78986 0.22292 0.0
C702 C 0.14859 0.81142 0.24245 0.0
C703 C 0.12838 0.7687 0.23075 0.0
C704 C 0.16912 0.78331 0.21708 0.0
C705 C 0.17317 0.78608 0.19291 0.0
C706 C 0.19308 0.77937 0.18263 0.0
C707 C 0.20928 0.7696 0.19744 0.0
C708 C 0.20552 0.7667 0.22229 0.0
C709 C 0.18533 0.77392 0.23227 0.0
H710 H 0.50666 0.82883 0.44868 0.0
H711 H 0.46597 0.84254 0.38289 0.0
H712 H 0.45965 0.88053 0.404 0.0
H713 H 0.47305 0.85865 0.49474 0.0
H714 H 0.50008 0.87072 0.51444 0.0
H715 H 0.49802 0.84283 0.49575 0.0
H716 H 0.53672 0.85913 0.47629 0.0
H717 H 0.53891 0.88695 0.49494 0.0
H718 H 0.53816 0.88613 0.46196 0.0
H719 H 0.46115 0.91849 0.43037 0.0
H720 H 0.47302 0.95502 0.45895 0.0
H721 H 0.51395 0.91748 0.50728 0.0
C722 C 0.49587 0.83957 0.43902 0.0
C723 C 0.48655 0.83271 0.41429 0.0
C724 C 0.47318 0.84751 0.40189 0.0
C725 C 0.46936 0.86902 0.41377 0.0
C726 C 0.47916 0.87556 0.43802 0.0
C727 C 0.49226 0.86135 0.45049 0.0
C728 C 0.50329 0.8738 0.47534 0.0
C729 C 0.49298 0.86072 0.49631 0.0
C730 C 0.5309 0.87667 0.47722 0.0
C731 C 0.49492 0.89742 0.47454 0.0
C732 C 0.48061 0.89788 0.45308 0.0
C733 C 0.47207 0.91827 0.44741 0.0
C734 C 0.47891 0.93895 0.46378 0.0
C735 C 0.49437 0.93913 0.48539 0.0
C736 C 0.50188 0.91787 0.49108 0.0
H737 H 0.4692 0.25011 0.71861 0.0
H738 H 0.45696 0.26802 0.64404 0.0
H739 H 0.4138 0.26538 0.64891 0.0
H740 H 0.41225 0.20865 0.71829 0.0
H741 H 0.40865 0.21822 0.74985 0.0
H742 H 0.43833 0.21933 0.73982 0.0
H743 H 0.44862 0.26396 0.75569 0.0
H744 H 0.41901 0.26301 0.76569 0.0
H745 H 0.42964 0.28383 0.74484 0.0
H746 H 0.37313 0.26447 0.66279 0.0
H747 H 0.33685 0.26466 0.68471 0.0
H748 H 0.37487 0.24668 0.75019 0.0
C749 C 0.45741 0.25311 0.70316 0.0
C750 C 0.46649 0.25925 0.68092 0.0
C751 C 0.45046 0.26328 0.66124 0.0
C752 C 0.42589 0.26176 0.6638 0.0
C753 C 0.41762 0.25604 0.68606 0.0
C754 C 0.43281 0.25165 0.70537 0.0
C755 C 0.41946 0.24715 0.7278 0.0
C756 C 0.41969 0.22183 0.73431 0.0
C757 C 0.4298 0.26559 0.74979 0.0
C758 C 0.39451 0.2503 0.71825 0.0
C759 C 0.39387 0.25527 0.69407 0.0
C760 C 0.37329 0.26029 0.68161 0.0
C761 C 0.35282 0.26046 0.69427 0.0
C762 C 0.35308 0.25559 0.7191 0.0
C763 C 0.3741 0.25011 0.73111 0.0
H764 H -0.00292 0.82478 0.62677 0.0
H765 H 0.01419 0.78191 0.56325 0.0
H766 H 0.01633 0.81649 0.53944 0.0
H767 H 0.9596 0.8584 0.59305 0.0
H768 H 0.96981 0.88523 0.61341 0.0
H769 H 0.96922 0.85692 0.62489 0.0
H770 H 0.01445 0.86858 0.64027 0.0
H771 H 0.01521 0.89685 0.62869 0.0
H772 H 0.03575 0.87778 0.61887 0.0
H773 H 0.01839 0.85695 0.52334 0.0
H774 H 0.0176 0.89858 0.51579 0.0
H775 H -0.00181 0.91364 0.58994 0.0
C776 C 0.00115 0.82257 0.6078 0.0
C777 C 0.00551 0.80067 0.59686 0.0
C778 C 0.0107 0.79853 0.57197 0.0
C779 C 0.01203 0.81808 0.55834 0.0
C780 C 0.00793 0.83954 0.56984 0.0
C781 C 0.00235 0.84176 0.59395 0.0
C782 C -0.00134 0.86661 0.60218 0.0
C783 C 0.97279 0.86679 0.60876 0.0
C784 C 0.01712 0.87813 0.62377 0.0
C785 C 0.00323 0.87816 0.57902 0.0
C786 C 0.00864 0.86239 0.56054 0.0
C787 C 0.01401 0.86938 0.53765 0.0
C788 C 0.0136 0.89306 0.53355 0.0
C789 C 0.00773 0.90932 0.55221 0.0
C790 C 0.00258 0.90164 0.57519 0.0
H791 H 0.449 0.77532 0.82927 0.0
H792 H 0.45108 0.76783 0.90738 0.0
H793 H 0.40756 0.76843 0.90596 0.0
H794 H 0.40395 0.81383 0.82709 0.0
H795 H 0.3895 0.79959 0.7978 0.0
H796 H 0.42119 0.80033 0.80519 0.0
H797 H 0.41506 0.75457 0.79677 0.0
H798 H 0.38345 0.75376 0.7891 0.0
H799 H 0.39336 0.73686 0.8127 0.0
H800 H 0.36372 0.76818 0.89583 0.0
H801 H 0.32201 0.76358 0.87695 0.0
H802 H 0.34844 0.77074 0.80537 0.0
C803 C 0.44034 0.77403 0.84612 0.0
C804 C 0.45344 0.77164 0.86845 0.0
C805 C 0.44139 0.76963 0.89004 0.0
C806 C 0.41672 0.77013 0.88947 0.0
C807 C 0.40435 0.77257 0.86717 0.0
C808 C 0.41568 0.77427 0.84584 0.0
C809 C 0.39794 0.77504 0.82395 0.0
C810 C 0.40348 0.7986 0.81286 0.0
C811 C 0.39743 0.75379 0.80449 0.0
C812 C 0.37483 0.77323 0.83627 0.0
C813 C 0.37896 0.77211 0.86125 0.0
C814 C 0.36026 0.76921 0.87632 0.0
C815 C 0.33664 0.76664 0.86543 0.0
C816 C 0.33198 0.76686 0.83971 0.0
C817 C 0.35141 0.77082 0.82513 0.0
H818 H 0.49306 0.16814 0.06912 0.0
H819 H 0.47135 0.147 0.13899 0.0
H820 H 0.46376 0.10523 0.12141 0.0
H821 H 0.45118 0.12063 0.02852 0.0
H822 H 0.4734 0.11684 0.00735 0.0
H823 H 0.47362 0.14543 0.02401 0.0
H824 H 0.5179 0.14678 0.041 0.0
H825 H 0.51779 0.11829 0.02438 0.0
H826 H 0.52566 0.12285 0.05716 0.0
H827 H 0.46344 0.06625 0.0988 0.0
H828 H 0.47157 0.03187 0.07252 0.0
H829 H 0.4931 0.07723 0.01661 0.0
C830 C 0.4861 0.15472 0.08045 0.0
C831 C 0.48262 0.16076 0.10535 0.0
C832 C 0.47413 0.14273 0.11987 0.0
C833 C 0.4696 0.11897 0.11001 0.0
C834 C 0.47365 0.11352 0.08559 0.0
C835 C 0.48172 0.1308 0.07094 0.0
C836 C 0.4871 0.11987 0.04614 0.0
C837 C 0.47031 0.12606 0.02527 0.0
C838 C 0.51368 0.1274 0.04195 0.0
C839 C 0.48149 0.09382 0.04949 0.0
C840 C 0.47345 0.09062 0.0723 0.0
C841 C 0.46926 0.06844 0.08071 0.0
C842 C 0.47399 0.04905 0.06569 0.0
C843 C 0.48279 0.05196 0.04253 0.0
C844 C 0.4859 0.0745 0.03402 0.0
H845 H 0.13041 0.25964 0.415 0.0
H846 H 0.07592 0.23565 0.35385 0.0
H847 H 0.10729 0.22828 0.32684 0.0
H848 H 0.16927 0.29239 0.38322 0.0
H849 H 0.19663 0.2861 0.39821 0.0
H850 H 0.16999 0.28412 0.41412 0.0
H851 H 0.17294 0.24079 0.42118 0.0
H852 H 0.19971 0.24267 0.4052 0.0
H853 H 0.17444 0.21952 0.39524 0.0
H854 H 0.14417 0.23019 0.30492 0.0
H855 H 0.18375 0.24259 0.28983 0.0
H856 H 0.2144 0.26536 0.36498 0.0
C857 C 0.12509 0.25202 0.39616 0.0
C858 C 0.10081 0.2481 0.38652 0.0
C859 C 0.09448 0.23876 0.3616 0.0
C860 C 0.11215 0.23433 0.34615 0.0
C861 C 0.13606 0.23919 0.35593 0.0
C862 C 0.14258 0.24768 0.38043 0.0
C863 C 0.16957 0.2546 0.3855 0.0
C864 C 0.17677 0.28085 0.39585 0.0
C865 C 0.17976 0.23843 0.4028 0.0
C866 C 0.17701 0.25009 0.35979 0.0
C867 C 0.15753 0.24058 0.3431 0.0
C868 C 0.15967 0.23713 0.31788 0.0
C869 C 0.18219 0.24425 0.30945 0.0
C870 C 0.20206 0.25498 0.32623 0.0
C871 C 0.19953 0.2571 0.35172 0.0
H872 H 0.91539 0.02355 0.15753 0.0
H873 H 0.97395 0.0347 0.21567 0.0
H874 H 0.00292 0.04534 0.1857 0.0
H875 H 0.94512 0.99609 0.1125 0.0
H876 H 0.9328 0.00951 0.08715 0.0
H877 H 0.91627 0.00537 0.11352 0.0
H878 H 0.91407 0.04995 0.11869 0.0
H879 H 0.93133 0.05474 0.09279 0.0
H880 H 0.94139 0.07142 0.12227 0.0
H881 H 0.02586 0.05119 0.14924 0.0
H882 H 0.0413 0.05045 0.10841 0.0
H883 H 0.96805 0.03601 0.07379 0.0
C884 C 0.93427 0.02861 0.164 0.0
C885 C 0.94241 0.02835 0.18898 0.0
C886 C 0.96728 0.03477 0.19666 0.0
C887 C 0.98387 0.04097 0.17978 0.0
C888 C 0.97535 0.04079 0.15527 0.0
C889 C 0.95114 0.03482 0.14735 0.0
C890 C 0.94696 0.03451 0.11968 0.0
C891 C 0.93457 0.00991 0.10751 0.0
C892 C 0.93257 0.0538 0.11297 0.0
C893 C 0.97263 0.04029 0.11328 0.0
C894 C 0.9887 0.04424 0.13412 0.0
C895 C 0.01346 0.04846 0.13278 0.0
C896 C 0.02206 0.04801 0.10949 0.0
C897 C 0.00593 0.04326 0.08785 0.0
C898 C 0.9809 0.03998 0.08992 0.0
H899 H 0.28403 0.66671 0.44177 0.0
H900 H 0.24752 0.71389 0.48573 0.0
H901 H 0.23644 0.73236 0.44848 0.0
H902 H 0.30612 0.70881 0.39863 0.0
H903 H 0.30126 0.68578 0.3732 0.0
H904 H 0.30876 0.6789 0.4039 0.0
H905 H 0.27044 0.64673 0.39941 0.0
H906 H 0.2626 0.65382 0.36894 0.0
H907 H 0.24155 0.65489 0.39185 0.0
H908 H 0.22647 0.74313 0.4049 0.0
H909 H 0.22024 0.74595 0.35999 0.0
H910 H 0.26238 0.69027 0.34638 0.0
C911 C 0.27418 0.6813 0.44374 0.0
C912 C 0.26669 0.68892 0.46661 0.0
C913 C 0.25361 0.7079 0.46836 0.0
C914 C 0.24718 0.71845 0.4473 0.0
C915 C 0.25414 0.70986 0.4248 0.0
C916 C 0.26762 0.69187 0.42305 0.0
C917 C 0.27167 0.68466 0.39675 0.0
C918 C 0.29855 0.68986 0.3929 0.0
C919 C 0.26091 0.65848 0.38879 0.0
C920 C 0.25785 0.70091 0.38384 0.0
C921 C 0.24803 0.71557 0.40015 0.0
C922 C 0.23422 0.73182 0.392 0.0
C923 C 0.23067 0.73323 0.36652 0.0
C924 C 0.24066 0.71824 0.3497 0.0
C925 C 0.25429 0.70191 0.35866 0.0
H926 H 0.59209 0.96521 0.65226 0.0
H927 H 0.53348 0.95996 0.69891 0.0
H928 H 0.50548 0.96466 0.66362 0.0
H929 H 0.57709 0.01049 0.62276 0.0
H930 H 0.58538 0.00059 0.59292 0.0
H931 H 0.59969 0.99188 0.62012 0.0
H932 H 0.58679 0.94763 0.6031 0.0
H933 H 0.57297 0.95657 0.57561 0.0
H934 H 0.55563 0.93631 0.59319 0.0
H935 H 0.48522 0.97597 0.625 0.0
H936 H 0.47483 0.99283 0.58644 0.0
H937 H 0.54693 0.99106 0.56587 0.0
C938 C 0.57322 0.96422 0.65486 0.0
C939 C 0.56493 0.9621 0.67828 0.0
C940 C 0.54019 0.96142 0.68107 0.0
C941 C 0.52413 0.96402 0.66112 0.0
C942 C 0.53308 0.96708 0.63848 0.0
C943 C 0.55703 0.96692 0.63519 0.0
C944 C 0.56275 0.97322 0.60991 0.0
C945 C 0.58237 0.99536 0.61156 0.0
C946 C 0.56995 0.95217 0.59454 0.0
C947 C 0.5386 0.9781 0.60001 0.0
C948 C 0.52153 0.974 0.61644 0.0
C949 C 0.49833 0.97885 0.6118 0.0
C950 C 0.49258 0.98845 0.58992 0.0
C951 C 0.51013 0.9934 0.57332 0.0
C952 C 0.53318 0.98763 0.5783 0.0
H953 H 0.24944 0.38743 0.94208 0.0
H954 H 0.27278 0.33536 0.98642 0.0
H955 H 0.2806 0.31185 0.94876 0.0
H956 H 0.2186 0.34628 0.89305 0.0
H957 H 0.227 0.36481 0.8694 0.0
H958 H 0.22452 0.37802 0.89998 0.0
H959 H 0.26828 0.40047 0.90191 0.0
H960 H 0.27093 0.38716 0.87137 0.0
H961 H 0.29225 0.38406 0.8965 0.0
H962 H 0.28448 0.29323 0.90591 0.0
H963 H 0.28232 0.28029 0.86136 0.0
H964 H 0.25654 0.3447 0.84548 0.0
C965 C 0.25636 0.37118 0.94395 0.0
C966 C 0.26055 0.36331 0.96727 0.0
C967 C 0.26941 0.34179 0.96879 0.0
C968 C 0.27401 0.32834 0.9475 0.0
C969 C 0.26967 0.33663 0.92482 0.0
C970 C 0.26097 0.35751 0.92292 0.0
C971 C 0.25682 0.36202 0.89633 0.0
C972 C 0.23015 0.36282 0.88928 0.0
C973 C 0.27304 0.38478 0.89124 0.0
C974 C 0.26433 0.34029 0.88353 0.0
C975 C 0.27184 0.32592 0.90025 0.0
C976 C 0.27878 0.30443 0.89266 0.0
C977 C 0.27756 0.29726 0.86731 0.0
C978 C 0.26936 0.31151 0.8499 0.0
C979 C 0.26309 0.33347 0.85826 0.0
H980 H 0.9146 0.01395 0.33224 0.0
H981 H 0.95864 0.96095 0.31334 0.0
H982 H 0.97039 0.9598 0.35724 0.0
H983 H 0.95496 0.04584 0.38124 0.0
H984 H 0.93196 0.05237 0.40046 0.0
H985 H 0.92553 0.04798 0.36753 0.0
H986 H 0.88954 0.01504 0.37168 0.0
H987 H 0.8959 0.01931 0.40466 0.0
H988 H 0.89436 0.99039 0.38822 0.0
H989 H 0.97943 0.96582 0.40264 0.0
H990 H 0.98534 0.97905 0.44714 0.0
H991 H 0.93535 0.02785 0.43715 0.0
C992 C 0.92649 0.00191 0.33735 0.0
C993 C 0.93566 0.98754 0.31928 0.0
C994 C 0.95139 0.9722 0.32677 0.0
C995 C 0.95813 0.97132 0.3517 0.0
C996 C 0.94898 0.98584 0.369 0.0
C997 C 0.93349 0.00084 0.36224 0.0
C998 C 0.92717 0.01534 0.38459 0.0
C999 C 0.9354 0.04195 0.38338 0.0
C1000 C 0.90014 0.00967 0.38745 0.0
C1001 C 0.94182 0.00635 0.40485 0.0
C1002 C 0.95414 0.98925 0.39542 0.0
C1003 C 0.9697 0.97903 0.41032 0.0
C1004 C 0.97296 0.98668 0.43556 0.0
C1005 C 0.96071 0.00437 0.44563 0.0
C1006 C 0.94472 0.01407 0.43005 0.0
H1007 H 0.27488 0.69909 0.60042 0.0
H1008 H 0.30693 0.64135 0.62604 0.0
H1009 H 0.31817 0.66422 0.66678 0.0
H1010 H 0.31683 0.74901 0.6385 0.0
H1011 H 0.29282 0.76514 0.64466 0.0
H1012 H 0.29128 0.74643 0.61606 0.0
H1013 H 0.25004 0.7236 0.62479 0.0
H1014 H 0.25141 0.7423 0.65323 0.0
H1015 H 0.24744 0.71064 0.6533 0.0
H1016 H 0.32097 0.68991 0.70542 0.0
H1017 H 0.31231 0.71567 0.74086 0.0
H1018 H 0.27811 0.75739 0.69169 0.0
C1019 C 0.28486 0.69165 0.61447 0.0
C1020 C 0.29032 0.66863 0.61014 0.0
C1021 C 0.30268 0.659 0.62907 0.0
C1022 C 0.30933 0.67194 0.65216 0.0
C1023 C 0.30336 0.69443 0.65607 0.0
C1024 C 0.29126 0.70421 0.63786 0.0
C1025 C 0.28409 0.72726 0.64798 0.0
C1026 C 0.29703 0.7482 0.63609 0.0
C1027 C 0.25663 0.72585 0.64463 0.0
C1028 C 0.29322 0.72837 0.67487 0.0
C1029 C 0.30477 0.70948 0.67892 0.0
C1030 C 0.31251 0.70508 0.70246 0.0
C1031 C 0.30755 0.71979 0.72248 0.0
C1032 C 0.29505 0.73869 0.71886 0.0
C1033 C 0.28846 0.74354 0.69479 0.0
H1034 H 0.54694 0.01548 0.8157 0.0
H1035 H 0.62293 0.01118 0.82369 0.0
H1036 H 0.62398 0.02127 0.86851 0.0
H1037 H 0.54851 0.06401 0.865 0.0
H1038 H 0.52022 0.05115 0.87497 0.0
H1039 H 0.5258 0.04606 0.84315 0.0
H1040 H 0.51642 0.00075 0.84495 0.0
H1041 H 0.51061 0.00572 0.87664 0.0
H1042 H 0.5326 0.98777 0.86821 0.0
H1043 H 0.61651 0.02919 0.9122 0.0
H1044 H 0.60029 0.03104 0.95256 0.0
H1045 H 0.52889 0.02957 0.91673 0.0
C1046 C 0.56387 0.01698 0.82685 0.0
C1047 C 0.58488 0.01266 0.81621 0.0
C1048 C 0.60659 0.01438 0.83145 0.0
C1049 C 0.60742 0.0203 0.8569 0.0
C1050 C 0.58639 0.0244 0.86681 0.0
C1051 C 0.56497 0.02265 0.85234 0.0
C1052 C 0.54454 0.02591 0.86789 0.0
C1053 C 0.53416 0.04811 0.86242 0.0
C1054 C 0.52489 0.00371 0.86421 0.0
C1055 C 0.55774 0.02916 0.8934 0.0
C1056 C 0.58195 0.02864 0.89228 0.0
C1057 C 0.59765 0.02986 0.91335 0.0
C1058 C 0.58824 0.03088 0.93618 0.0
C1059 C 0.56335 0.03051 0.93774 0.0
C1060 C 0.54805 0.0303 0.9161 0.0
H1061 H 0.25832 0.36444 0.13755 0.0
H1062 H 0.23068 0.30594 0.08142 0.0
H1063 H 0.22717 0.27851 0.11344 0.0
H1064 H 0.29394 0.33244 0.17437 0.0
H1065 H 0.28804 0.34728 0.20314 0.0
H1066 H 0.28768 0.36221 0.17579 0.0
H1067 H 0.24448 0.36961 0.18208 0.0
H1068 H 0.24473 0.35451 0.20933 0.0
H1069 H 0.22122 0.34488 0.18466 0.0
H1070 H 0.22678 0.25733 0.15217 0.0
H1071 H 0.23141 0.24433 0.1938 0.0
H1072 H 0.26002 0.31681 0.22366 0.0
C1073 C 0.25147 0.34587 0.13197 0.0
C1074 C 0.24473 0.33736 0.10696 0.0
C1075 C 0.23598 0.31289 0.10046 0.0
C1076 C 0.23385 0.29717 0.11853 0.0
C1077 C 0.2406 0.30616 0.14303 0.0
C1078 C 0.24934 0.32995 0.14972 0.0
C1079 C 0.25602 0.33507 0.17719 0.0
C1080 C 0.28302 0.34482 0.18295 0.0
C1081 C 0.24069 0.35202 0.18899 0.0
C1082 C 0.2497 0.31049 0.1849 0.0
C1083 C 0.2407 0.29402 0.16504 0.0
C1084 C 0.2338 0.27012 0.16786 0.0
C1085 C 0.23643 0.26289 0.19157 0.0
C1086 C 0.24606 0.27951 0.21208 0.0
C1087 C 0.25254 0.3036 0.20851 0.0
H1088 H 0.19782 0.93812 0.04418 0.0
H1089 H 0.16295 0.86693 0.05261 0.0
H1090 H 0.12598 0.88208 0.06182 0.0
H1091 H 0.16642 0.96974 0.09194 0.0
H1092 H 0.16434 0.99376 0.07357 0.0
H1093 H 0.18938 0.97811 0.07195 0.0
H1094 H 0.1796 0.96913 0.02469 0.0
H1095 H 0.15461 0.98467 0.02617 0.0
H1096 H 0.14994 0.9544 0.0124 0.0
H1097 H 0.09135 0.9032 0.06292 0.0
H1098 H 0.06138 0.92928 0.05649 0.0
H1099 H 0.11835 0.98731 0.04889 0.0
C1100 C 0.18262 0.92584 0.04868 0.0
C1101 C 0.18326 0.90136 0.04777 0.0
C1102 C 0.16287 0.88576 0.05325 0.0
C1103 C 0.14183 0.89421 0.05863 0.0
C1104 C 0.14154 0.91835 0.05871 0.0
C1105 C 0.16145 0.93401 0.05408 0.0
C1106 C 0.15562 0.95864 0.05274 0.0
C1107 C 0.16978 0.97609 0.07381 0.0
C1108 C 0.1602 0.96719 0.0275 0.0
C1109 C 0.12905 0.95413 0.05615 0.0
C1110 C 0.1214 0.93081 0.05991 0.0
C1111 C 0.09719 0.92164 0.06069 0.0
C1112 C 0.08032 0.93651 0.05696 0.0
C1113 C 0.08777 0.96028 0.05273 0.0
C1114 C 0.11243 0.96939 0.05297 0.0
H1115 H 0.65366 0.60865 0.98828 0.0
H1116 H 0.68896 0.55212 0.9589 0.0
H1117 H 0.65228 0.52306 0.96183 0.0
H1118 H 0.62648 0.57769 0.03289 0.0
H1119 H 0.59921 0.59001 0.03065 0.0
H1120 H 0.62677 0.60663 0.02291 0.0
H1121 H 0.60649 0.61037 0.97974 0.0
H1122 H 0.57879 0.59384 0.98744 0.0
H1123 H 0.59212 0.58404 0.96036 0.0
H1124 H 0.61208 0.49989 0.97024 0.0
H1125 H 0.5729 0.48475 0.9852 0.0
H1126 H 0.56608 0.55656 0.01166 0.0
C1127 C 0.65347 0.59025 0.98187 0.0
C1128 C 0.67401 0.58264 0.97308 0.0
C1129 C 0.6733 0.55831 0.96552 0.0
C1130 C 0.65255 0.5417 0.96707 0.0
C1131 C 0.63276 0.54972 0.97638 0.0
C1132 C 0.63309 0.57345 0.98367 0.0
C1133 C 0.61041 0.57733 0.9951 0.0
C1134 C 0.61607 0.58857 0.02198 0.0
C1135 C 0.59611 0.59228 0.97974 0.0
C1136 C 0.59748 0.55208 0.99357 0.0
C1137 C 0.61034 0.53638 0.9823 0.0
C1138 C 0.60183 0.51205 0.97903 0.0
C1139 C 0.57961 0.5036 0.98758 0.0
C1140 C 0.56652 0.51945 -0.00033 0.0
C1141 C 0.57567 0.54395 0.00258 0.0
H1142 H 0.66086 0.43227 0.29255 0.0
H1143 H 0.72345 0.4784 0.27336 0.0
H1144 H 0.74545 0.44459 0.27048 0.0
H1145 H 0.69341 0.39551 0.32906 0.0
H1146 H 0.67227 0.36898 0.31822 0.0
H1147 H 0.66239 0.39723 0.32062 0.0
H1148 H 0.64573 0.38976 0.27463 0.0
H1149 H 0.65557 0.36155 0.27209 0.0
H1150 H 0.66544 0.38306 0.25165 0.0
H1151 H 0.7596 0.40454 0.26717 0.0
H1152 H 0.76421 0.36229 0.26353 0.0
H1153 H 0.69206 0.34351 0.285 0.0
C1154 C 0.6793 0.43539 0.28805 0.0
C1155 C 0.69046 0.45798 0.28323 0.0
C1156 C 0.71457 0.46123 0.27722 0.0
C1157 C 0.72721 0.44214 0.27557 0.0
C1158 C 0.71552 0.41999 0.28012 0.0
C1159 C 0.69212 0.41662 0.28636 0.0
C1160 C 0.68313 0.39098 0.28927 0.0
C1161 C 0.67747 0.38801 0.31588 0.0
C1162 C 0.66118 0.38074 0.2708 0.0
C1163 C 0.7049 0.3803 0.28317 0.0
C1164 C 0.72354 0.39723 0.27815 0.0
C1165 C 0.74517 0.39118 0.27126 0.0
C1166 C 0.74764 0.36716 0.26925 0.0
C1167 C 0.72851 0.34959 0.27393 0.0
C1168 C 0.70706 0.35645 0.28127 0.0
H1169 H 0.81471 0.44026 0.48259 0.0
H1170 H 0.80821 0.36417 0.48179 0.0
H1171 H 0.85113 0.36688 0.4752 0.0
H1172 H 0.86131 0.44892 0.43816 0.0
H1173 H 0.87685 0.47579 0.45583 0.0
H1174 H 0.84475 0.46763 0.45583 0.0
H1175 H 0.84924 0.47 0.50349 0.0
H1176 H 0.88118 0.47845 0.50359 0.0
H1177 H 0.86914 0.45308 0.51832 0.0
H1178 H 0.89508 0.37798 0.47351 0.0
H1179 H 0.93747 0.39693 0.48259 0.0
H1180 H 0.91594 0.46601 0.4853 0.0
C1181 C 0.82225 0.42416 0.48041 0.0
C1182 C 0.80821 0.402 0.48246 0.0
C1183 C 0.81875 0.38133 0.48027 0.0
C1184 C 0.84301 0.38266 0.47624 0.0
C1185 C 0.8565 0.40481 0.47456 0.0
C1186 C 0.84658 0.42524 0.47683 0.0
C1187 C 0.86568 0.44706 0.47796 0.0
C1188 C 0.86192 0.46065 0.45561 0.0
C1189 C 0.86635 0.46307 0.50228 0.0
C1190 C 0.88796 0.43574 0.47686 0.0
C1191 C 0.88221 0.41134 0.47424 0.0
C1192 C 0.89983 0.39707 0.4752 0.0
C1193 C 0.92389 0.40801 0.48032 0.0
C1194 C 0.93003 0.43295 0.48476 0.0
C1195 C 0.91189 0.44692 0.4817 0.0
H1196 H 0.36811 0.09639 0.27609 0.0
H1197 H 0.3031 0.04419 0.25915 0.0
H1198 H 0.27939 0.07632 0.25471 0.0
H1199 H 0.34134 0.13951 0.31193 0.0
H1200 H 0.35945 0.16432 0.30095 0.0
H1201 H 0.37086 0.13709 0.30296 0.0
H1202 H 0.3782 0.13554 0.25679 0.0
H1203 H 0.36655 0.16262 0.25459 0.0
H1204 H 0.35359 0.13648 0.2342 0.0
H1205 H 0.26311 0.11481 0.25041 0.0
H1206 H 0.25555 0.15606 0.25029 0.0
H1207 H 0.33136 0.18206 0.27108 0.0
C1208 C 0.34886 0.09168 0.27159 0.0
C1209 C 0.33745 0.06779 0.26793 0.0
C1210 C 0.31221 0.0624 0.26213 0.0
C1211 C 0.29861 0.08052 0.25946 0.0
C1212 C 0.31052 0.10391 0.26283 0.0
C1213 C 0.33506 0.10948 0.26906 0.0
C1214 C 0.34361 0.13593 0.27202 0.0
C1215 C 0.35445 0.14472 0.29854 0.0
C1216 C 0.36154 0.14305 0.25328 0.0
C1217 C 0.32011 0.14441 0.26635 0.0
C1218 C 0.30118 0.12578 0.26091 0.0
C1219 C 0.2778 0.12953 0.25478 0.0
C1220 C 0.27368 0.15296 0.25462 0.0
C1221 C 0.29283 0.17222 0.26077 0.0
C1222 C 0.31629 0.16773 0.26647 0.0
H1223 H 0.30859 0.07015 0.52658 0.0
H1224 H 0.32116 0.13591 0.49325 0.0
H1225 H 0.36385 0.13239 0.49189 0.0
H1226 H 0.36521 0.07932 0.56442 0.0
H1227 H 0.36855 0.04866 0.56002 0.0
H1228 H 0.33899 0.05648 0.55886 0.0
H1229 H 0.32842 0.03324 0.51549 0.0
H1230 H 0.35793 0.02532 0.51652 0.0
H1231 H 0.34744 0.04018 0.4914 0.0
H1232 H 0.40476 0.12158 0.49343 0.0
H1233 H 0.44147 0.10399 0.49728 0.0
H1234 H 0.40265 0.0451 0.52967 0.0
C1235 C 0.3203 0.08388 0.51906 0.0
C1236 C 0.31147 0.10334 0.51004 0.0
C1237 C 0.32745 0.12084 0.50028 0.0
C1238 C 0.35175 0.11903 0.49946 0.0
C1239 C 0.35982 0.09962 0.50847 0.0
C1240 C 0.34462 0.08234 0.51808 0.0
C1241 C 0.35783 0.06309 0.52616 0.0
C1242 C 0.35763 0.06183 0.55402 0.0
C1243 C 0.34727 0.03904 0.51151 0.0
C1244 C 0.38283 0.07221 0.51947 0.0
C1245 C 0.38353 0.09334 0.50936 0.0
C1246 C 0.40446 0.10507 0.50138 0.0
C1247 C 0.42523 0.09489 0.50364 0.0
C1248 C 0.42497 0.07315 0.5138 0.0
C1249 C 0.40346 0.06177 0.52194 0.0
H1250 H 0.70414 0.59099 0.27402 0.0
H1251 H 0.65366 0.60946 0.32498 0.0
H1252 H 0.67815 0.6492 0.33535 0.0
H1253 H 0.75998 0.62754 0.30793 0.0
H1254 H 0.77162 0.63632 0.27993 0.0
H1255 H 0.75284 0.60787 0.27978 0.0
H1256 H 0.72384 0.618 0.245 0.0
H1257 H 0.74254 0.64635 0.245 0.0
H1258 H 0.71115 0.64467 0.24942 0.0
H1259 H 0.70477 0.6876 0.33692 0.0
H1260 H 0.7299 0.72376 0.32697 0.0
H1261 H 0.76281 0.68183 0.27356 0.0
C1262 C 0.69874 0.60326 0.28786 0.0
C1263 C 0.67731 0.59723 0.29905 0.0
C1264 C 0.67016 0.61385 0.31641 0.0
C1265 C 0.68403 0.63634 0.32253 0.0
C1266 C 0.70487 0.64201 0.31091 0.0
C1267 C 0.71216 0.62608 0.29378 0.0
C1268 C 0.73343 0.63779 0.28161 0.0
C1269 C 0.7558 0.62672 0.28768 0.0
C1270 C 0.72737 0.63664 0.25361 0.0
C1271 C 0.73639 0.66293 0.29399 0.0
C1272 C 0.72005 0.66475 0.31124 0.0
C1273 C 0.71789 0.68638 0.32374 0.0
C1274 C 0.73223 0.70683 0.31792 0.0
C1275 C 0.7484 0.70559 0.29959 0.0
C1276 C 0.75101 0.68325 0.28804 0.0
H1277 H 0.88003 0.41232 0.76958 0.0
H1278 H 0.82569 0.44724 0.80196 0.0
H1279 H 0.80222 0.40823 0.80699 0.0
H1280 H 0.84116 0.36804 0.73401 0.0
H1281 H 0.85905 0.3452 0.73762 0.0
H1282 H 0.87335 0.37564 0.74035 0.0
H1283 H 0.89304 0.37181 0.78378 0.0
H1284 H 0.87886 0.34122 0.78102 0.0
H1285 H 0.87439 0.36124 0.80692 0.0
H1286 H 0.78246 0.36543 0.80374 0.0
H1287 H 0.76796 0.32271 0.79204 0.0
H1288 H 0.83528 0.31635 0.76142 0.0
C1289 C 0.86349 0.41187 0.77829 0.0
C1290 C 0.85475 0.43289 0.78544 0.0
C1291 C 0.83282 0.43141 0.79644 0.0
C1292 C 0.8194 0.40932 0.79944 0.0
C1293 C 0.82826 0.38894 0.79155 0.0
C1294 C 0.84991 0.39007 0.78136 0.0
C1295 C 0.85446 0.36571 0.77223 0.0
C1296 C 0.85715 0.36354 0.74441 0.0
C1297 C 0.87649 0.35964 0.78687 0.0
C1298 C 0.83154 0.35074 0.77794 0.0
C1299 C 0.81682 0.36436 0.78948 0.0
C1300 C 0.79401 0.35455 0.79507 0.0
C1301 C 0.78592 0.33028 0.78832 0.0
C1302 C 0.80052 0.3162 0.77586 0.0
C1303 C 0.82378 0.32657 0.77112 0.0
H1304 H 0.00483 0.86701 0.13264 0.0
H1305 H 0.00381 0.82368 0.06324 0.0
H1306 H -0.0051 0.85697 0.04087 0.0
H1307 H 0.95785 0.90206 0.11253 0.0
H1308 H 0.97395 0.92862 0.13032 0.0
H1309 H 0.97566 0.90015 0.14073 0.0
H1310 H 0.02218 0.90922 0.14247 0.0
H1311 H 0.02056 0.93764 0.13226 0.0
H1312 H 0.03609 0.91737 0.11535 0.0
H1313 H 0.99237 0.89673 0.02626 0.0
H1314 H -0.00161 0.9393 0.02096 0.0
H1315 H 0.00055 0.95627 0.09998 0.0
C1316 C 0.00205 0.86426 0.11275 0.0
C1317 C 0.00488 0.8427 0.09969 0.0
C1318 C 0.00157 0.84 0.07364 0.0
C1319 C -0.0036 0.85879 0.06078 0.0
C1320 C 0.99434 0.88006 0.07424 0.0
C1321 C -0.00306 0.8828 0.09968 0.0
C1322 C -0.00325 0.90811 0.10987 0.0
C1323 C 0.97473 0.90983 0.12421 0.0
C1324 C 0.02029 0.91869 0.12591 0.0
C1325 C -0.00523 0.91946 0.08622 0.0
C1326 C 0.99289 0.90296 0.06581 0.0
C1327 C 0.99331 0.90972 0.04208 0.0
C1328 C -0.00334 0.93398 0.03923 0.0
C1329 C -0.00012 0.95114 0.06005 0.0
C1330 C -0.00214 0.94361 0.08366 0.0
H1331 H 0.9252 0.28188 0.82461 0.0
H1332 H 0.93541 0.20923 0.82729 0.0
H1333 H 0.89267 0.19532 0.81143 0.0
H1334 H 0.86776 0.27373 0.84739 0.0
H1335 H 0.85627 0.29441 0.82894 0.0
H1336 H 0.88795 0.29814 0.83817 0.0
H1337 H 0.89671 0.29798 0.79248 0.0
H1338 H 0.86501 0.294 0.78315 0.0
H1339 H 0.88275 0.27333 0.77051 0.0
H1340 H 0.84885 0.18984 0.7941 0.0
H1341 H 0.80631 0.19331 0.78268 0.0
H1342 H 0.82494 0.26962 0.79668 0.0
C1343 C 0.91845 0.26304 0.82155 0.0
C1344 C 0.9334 0.24651 0.82667 0.0
C1345 C 0.92403 0.22204 0.82323 0.0
C1346 C 0.89992 0.21404 0.81415 0.0
C1347 C 0.88556 0.23086 0.8092 0.0
C1348 C 0.89441 0.25487 0.81324 0.0
C1349 C 0.87497 0.26943 0.80862 0.0
C1350 C 0.87154 0.28482 0.83219 0.0
C1351 C 0.88018 0.28457 0.78742 0.0
C1352 C 0.85374 0.24989 0.80136 0.0
C1353 C 0.86021 0.22775 0.8012 0.0
C1354 C 0.84354 0.20707 0.79434 0.0
C1355 C 0.81957 0.20916 0.78784 0.0
C1356 C 0.81268 0.23169 0.78897 0.0
C1357 C 0.82992 0.25221 0.79576 0.0
H1358 H 0.53152 0.20517 0.59294 0.0
H1359 H 0.57059 0.19311 0.66058 0.0
H1360 H 0.56932 0.15162 0.64431 0.0
H1361 H 0.49174 0.15303 0.5859 0.0
H1362 H 0.49063 0.14765 0.55287 0.0
H1363 H 0.49809 0.17741 0.56779 0.0
H1364 H 0.53786 0.18342 0.54708 0.0
H1365 H 0.53046 0.15361 0.53198 0.0
H1366 H 0.55858 0.16306 0.55074 0.0
H1367 H 0.55772 0.11058 0.62458 0.0
H1368 H 0.53804 0.07265 0.60124 0.0
H1369 H 0.5083 0.11064 0.54518 0.0
C1370 C 0.54044 0.19398 0.60401 0.0
C1371 C 0.55115 0.20244 0.62804 0.0
C1372 C 0.56222 0.18708 0.64214 0.0
C1373 C 0.56172 0.16347 0.63301 0.0
C1374 C 0.55034 0.15547 0.60961 0.0
C1375 C 0.54015 0.17028 0.59512 0.0
C1376 C 0.52711 0.1566 0.57158 0.0
C1377 C 0.50031 0.15881 0.56943 0.0
C1378 C 0.53924 0.16466 0.54901 0.0
C1379 C 0.53061 0.1317 0.57571 0.0
C1380 C 0.54429 0.13152 0.59768 0.0
C1381 C 0.5476 0.11048 0.60699 0.0
C1382 C 0.53633 0.08907 0.5937 0.0
C1383 C 0.5222 0.08889 0.57128 0.0
C1384 C 0.51975 0.11041 0.56188 0.0
H1385 H 0.59233 0.77151 0.38917 0.0
H1386 H 0.54669 0.76331 0.3205 0.0
H1387 H 0.58262 0.76849 0.29757 0.0
H1388 H 0.64076 0.81525 0.3722 0.0
H1389 H 0.66397 0.80249 0.38769 0.0
H1390 H 0.63469 0.80009 0.39887 0.0
H1391 H 0.63125 0.75445 0.39557 0.0
H1392 H 0.66047 0.75674 0.38439 0.0
H1393 H 0.63491 0.73843 0.3666 0.0
H1394 H 0.62344 0.77325 0.282 0.0
H1395 H 0.66628 0.7753 0.2749 0.0
H1396 H 0.68486 0.77898 0.35364 0.0
C1397 C 0.58994 0.77114 0.36934 0.0
C1398 C 0.56681 0.76716 0.35659 0.0
C1399 C 0.56431 0.76636 0.33061 0.0
C1400 C 0.58459 0.76937 0.31743 0.0
C1401 C 0.60717 0.77305 0.33052 0.0
C1402 C 0.60997 0.77385 0.35589 0.0
C1403 C 0.63616 0.77656 0.36538 0.0
C1404 C 0.64437 0.79999 0.38202 0.0
C1405 C 0.64097 0.75527 0.37877 0.0
C1406 C 0.64759 0.77688 0.34138 0.0
C1407 C 0.63062 0.77513 0.32151 0.0
C1408 C 0.63692 0.77472 0.29742 0.0
C1409 C 0.66125 0.77591 0.29356 0.0
C1410 C 0.67881 0.77721 0.3137 0.0
C1411 C 0.67182 0.7779 0.33786 0.0
H1412 H 0.01551 0.18427 0.43001 0.0
H1413 H 0.0174 0.22611 0.50043 0.0
H1414 H 0.00755 0.18931 0.52025 0.0
H1415 H 0.96773 0.1357 0.43903 0.0
H1416 H 0.98247 0.11366 0.42388 0.0
H1417 H 0.98659 0.14323 0.41498 0.0
H1418 H 0.03278 0.14645 0.42321 0.0
H1419 H 0.02879 0.11695 0.43214 0.0
H1420 H 0.04546 0.14122 0.45295 0.0
H1421 H -0.00084 0.14749 0.53242 0.0
H1422 H -0.00386 0.10466 0.53644 0.0
H1423 H 0.00269 0.09114 0.4583 0.0
C1424 C 0.0133 0.18572 0.4495 0.0
C1425 C 0.01682 0.20798 0.46367 0.0
C1426 C 0.01455 0.20917 0.48926 0.0
C1427 C 0.0089 0.18839 0.50062 0.0
C1428 C 0.00589 0.16666 0.48614 0.0
C1429 C 0.00819 0.16524 0.46115 0.0
C1430 C 0.00639 0.13989 0.45004 0.0
C1431 C 0.98449 0.1327 0.43085 0.0
C1432 C 0.02975 0.13591 0.43894 0.0
C1433 C 0.00297 0.12722 0.47269 0.0
C1434 C 0.0023 0.14285 0.49329 0.0
C1435 C -0.00041 0.13511 0.51639 0.0
C1436 C -0.00216 0.11079 0.5185 0.0
C1437 C -0.00072 0.09469 0.4977 0.0
C1438 C 0.00164 0.10307 0.47454 0.0
H1439 H 0.58955 0.26225 0.1315 0.0
H1440 H 0.54798 0.25289 0.19416 0.0
H1441 H 0.58508 0.25262 0.22064 0.0
H1442 H 0.63312 0.2256 0.14765 0.0
H1443 H 0.65803 0.24483 0.13771 0.0
H1444 H 0.62811 0.24358 0.12324 0.0
H1445 H 0.63176 0.28895 0.1335 0.0
H1446 H 0.66174 0.29036 0.14779 0.0
H1447 H 0.63954 0.30201 0.1649 0.0
H1448 H 0.62621 0.25303 0.24027 0.0
H1449 H 0.66958 0.25773 0.25282 0.0
H1450 H 0.68485 0.26812 0.17787 0.0
C1451 C 0.5883 0.26011 0.15078 0.0
C1452 C 0.56592 0.25747 0.16076 0.0
C1453 C 0.56496 0.25494 0.18612 0.0
C1454 C 0.5859 0.25464 0.2013 0.0
C1455 C 0.60765 0.25707 0.19087 0.0
C1456 C 0.60908 0.26002 0.16629 0.0
C1457 C 0.63489 0.26325 0.16002 0.0
C1458 C 0.63875 0.24311 0.14103 0.0
C1459 C 0.64242 0.28759 0.15103 0.0
C1460 C 0.64768 0.26174 0.18496 0.0
C1461 C 0.63158 0.25789 0.2024 0.0
C1462 C 0.63904 0.25604 0.22681 0.0
C1463 C 0.66371 0.25865 0.23372 0.0
C1464 C 0.68059 0.2633 0.21632 0.0
C1465 C 0.67238 0.26454 0.19157 0.0
H1466 H 0.53165 0.83222 0.95585 0.0
H1467 H 0.5723 0.85884 0.89754 0.0
H1468 H 0.57581 0.89948 0.91774 0.0
H1469 H 0.497 0.87547 0.95981 0.0
H1470 H 0.49603 0.87806 0.99271 0.0
H1471 H 0.50055 0.85068 0.97663 0.0
H1472 H 0.53989 0.85195 0.00454 0.0
H1473 H 0.53541 0.87933 0.0209 0.0
H1474 H 0.56307 0.87772 0.00719 0.0
H1475 H 0.56931 0.93688 0.93964 0.0
H1476 H 0.55406 0.96917 0.96283 0.0
H1477 H 0.51805 0.91919 0.00784 0.0
C1478 C 0.542 0.84653 0.94781 0.0
C1479 C 0.55185 0.84238 0.92522 0.0
C1480 C 0.56466 0.86162 0.91487 0.0
C1481 C 0.56686 0.88475 0.92627 0.0
C1482 C 0.55624 0.88836 0.94806 0.0
C1483 C 0.54423 0.86981 0.9589 0.0
C1484 C 0.5322 0.87879 0.98084 0.0
C1485 C 0.50483 0.87024 0.97726 0.0
C1486 C 0.54331 0.87151 0.00479 0.0
C1487 C 0.53846 0.90524 0.97993 0.0
C1488 C 0.55262 0.91031 0.96106 0.0
C1489 C 0.55874 0.93322 0.95485 0.0
C1490 C 0.54989 0.95141 0.96803 0.0
C1491 C 0.53517 0.94663 0.98726 0.0
C1492 C 0.5298 0.92334 0.99363 0.0
H1493 H 0.92864 0.74605 0.6686 0.0
H1494 H 0.96819 0.75606 0.74083 0.0
H1495 H 0.93212 0.76496 0.75974 0.0
H1496 H 0.88859 0.79079 0.68088 0.0
H1497 H 0.86308 0.77212 0.66339 0.0
H1498 H 0.893 0.7707 0.65499 0.0
H1499 H 0.88591 0.72557 0.65821 0.0
H1500 H 0.85607 0.72685 0.66659 0.0
H1501 H 0.87678 0.71483 0.68641 0.0
H1502 H 0.89111 0.7686 0.77128 0.0
H1503 H 0.84745 0.76418 0.77478 0.0
H1504 H 0.83404 0.75033 0.69529 0.0
C1505 C 0.92982 0.75081 0.6883 0.0
C1506 C 0.95119 0.75062 0.70327 0.0
C1507 C 0.95195 0.75618 0.72906 0.0
C1508 C 0.93162 0.76142 0.73995 0.0
C1509 C 0.91062 0.76092 0.7248 0.0
C1510 C 0.90953 0.75571 0.69953 0.0
C1511 C 0.88406 0.75354 0.68778 0.0
C1512 C 0.88207 0.77295 0.67075 0.0
C1513 C 0.87519 0.72872 0.67395 0.0
C1514 C 0.87096 0.75749 0.71045 0.0
C1515 C 0.88667 0.76227 0.73156 0.0
C1516 C 0.87863 0.76519 0.75487 0.0
C1517 C 0.85381 0.76266 0.75668 0.0
C1518 C 0.83739 0.7569 0.73532 0.0
C1519 C 0.84618 0.75482 0.71194 0.0
H1520 H 0.06447 0.01015 0.84783 0.0
H1521 H 0.13676 -0.00058 0.86987 0.0
H1522 H 0.12474 0.99184 0.91119 0.0
H1523 H 0.05273 0.04079 0.90161 0.0
H1524 H 0.02178 0.02637 0.89992 0.0
H1525 H 0.03655 0.02872 0.87231 0.0
H1526 H 0.02442 0.98289 0.8628 0.0
H1527 H 0.01098 0.98129 0.89145 0.0
H1528 H 0.03405 0.96413 0.8847 0.0
H1529 H 0.10663 0.99155 0.95131 0.0
H1530 H 0.08352 0.99691 0.98706 0.0
H1531 H 0.0221 0.00572 0.93859 0.0
C1532 C 0.07766 0.00583 0.86126 0.0
C1533 C 0.10159 0.00552 0.85579 0.0
C1534 C 0.11833 -0.00035 0.8737 0.0
C1535 C 0.11164 0.99529 0.89717 0.0
C1536 C 0.08801 0.99628 0.90214 0.0
C1537 C 0.07116 0.00098 0.88455 0.0
C1538 C 0.04726 0.00204 0.89487 0.0
C1539 C 0.03917 0.02594 0.89202 0.0
C1540 C 0.02804 0.98135 0.88273 0.0
C1541 C 0.05381 -0.00088 0.92157 0.0
C1542 C 0.07728 0.99531 0.92523 0.0
C1543 C 0.08812 0.99404 0.9486 0.0
C1544 C 0.07487 0.99724 0.9688 0.0
C1545 C 0.051 0.0017 0.96558 0.0
C1546 C 0.04015 0.00199 0.94157 0.0
H1547 H 0.75068 0.35533 0.60078 0.0
H1548 H 0.74712 0.29295 0.54877 0.0
H1549 H 0.75161 0.26885 0.58336 0.0
H1550 H 0.79305 0.34111 0.64789 0.0
H1551 H 0.77759 0.35227 0.67281 0.0
H1552 H 0.77631 0.36479 0.64398 0.0
H1553 H 0.72972 0.35589 0.64084 0.0
H1554 H 0.73087 0.3433 0.6696 0.0
H1555 H 0.71468 0.3261 0.64247 0.0
H1556 H 0.7558 0.25158 0.62406 0.0
H1557 H 0.75635 0.24212 0.66721 0.0
H1558 H 0.75443 0.3156 0.69174 0.0
C1559 C 0.75129 0.33668 0.59669 0.0
C1560 C 0.74893 0.326 0.57219 0.0
C1561 C 0.74907 0.30144 0.56749 0.0
C1562 C 0.75167 0.28766 0.58698 0.0
C1563 C 0.75371 0.2987 0.61099 0.0
C1564 C 0.7533 0.32263 0.61587 0.0
C1565 C 0.75392 0.32992 0.64318 0.0
C1566 C 0.77657 0.34809 0.65251 0.0
C1567 C 0.73093 0.33935 0.64937 0.0
C1568 C 0.75486 0.30641 0.65293 0.0
C1569 C 0.75499 0.28863 0.63418 0.0
C1570 C 0.75571 0.26537 0.63889 0.0
C1571 C 0.75607 0.26017 0.66341 0.0
C1572 C 0.75537 0.27811 0.68275 0.0
C1573 C 0.75489 0.30148 0.67733 0.0
H1574 H 0.41855 0.02834 0.34875 0.0
H1575 H 0.48397 0.03042 0.31232 0.0
H1576 H 0.50809 0.04081 0.35247 0.0
H1577 H 0.44283 0.07584 0.40097 0.0
H1578 H 0.42623 0.05979 0.42257 0.0
H1579 H 0.41425 0.05741 0.39083 0.0
H1580 H 0.41056 0.01179 0.38805 0.0
H1581 H 0.42263 0.01404 0.41963 0.0
H1582 H 0.43679 -0.00097 0.39595 0.0
H1583 H 0.52487 0.04532 0.39642 0.0
H1584 H 0.53286 0.04262 0.44089 0.0
H1585 H 0.45652 0.03658 0.44875 0.0
C1586 C 0.43796 0.03186 0.3492 0.0
C1587 C 0.44943 0.02885 0.32748 0.0
C1588 C 0.47485 0.03277 0.32879 0.0
C1589 C 0.4887 0.03879 0.35149 0.0
C1590 C 0.47686 0.04081 0.3727 0.0
C1591 C 0.45205 0.03756 0.37177 0.0
C1592 C 0.44371 0.03775 0.39734 0.0
C1593 C 0.43101 0.05897 0.40327 0.0
C1594 C 0.42748 0.01426 0.4004 0.0
C1595 C 0.46762 0.0406 0.41265 0.0
C1596 C 0.48656 0.04284 0.39817 0.0
C1597 C 0.51022 0.04399 0.40803 0.0
C1598 C 0.51459 0.04239 0.43329 0.0
C1599 C 0.49533 0.03936 0.44829 0.0
C1600 C 0.47165 0.039 0.43782 0.0
H1601 H 0.7378 0.63218 0.09337 0.0
H1602 H 0.74282 0.69253 0.05126 0.0
H1603 H 0.7481 0.71942 0.08994 0.0
H1604 H 0.70636 0.65647 0.14342 0.0
H1605 H 0.72299 0.64368 0.16647 0.0
H1606 H 0.71712 0.6292 0.13546 0.0
H1607 H 0.76275 0.62984 0.13321 0.0
H1608 H 0.76874 0.64429 0.16415 0.0
H1609 H 0.78318 0.6576 0.13954 0.0
H1610 H 0.7554 0.73979 0.13344 0.0
H1611 H 0.76586 0.7519 0.17796 0.0
H1612 H 0.75677 0.67805 0.19113 0.0
C1613 C 0.73957 0.65102 0.0922 0.0
C1614 C 0.73975 0.66023 0.06924 0.0
C1615 C 0.74257 0.68505 0.06862 0.0
C1616 C 0.74549 0.70046 0.0905 0.0
C1617 C 0.74554 0.69078 0.11282 0.0
C1618 C 0.74268 0.66662 0.1138 0.0
C1619 C 0.74512 0.66072 0.14008 0.0
C1620 C 0.72149 0.64669 0.14674 0.0
C1621 C 0.7662 0.64733 0.14449 0.0
C1622 C 0.75031 0.68535 0.15374 0.0
C1623 C 0.75016 0.70247 0.13776 0.0
C1624 C 0.75537 0.72653 0.14613 0.0
C1625 C 0.76126 0.73324 0.17145 0.0
C1626 C 0.76212 0.71593 0.18803 0.0
C1627 C 0.75619 0.69172 0.17897 0.0
H1628 H 0.13266 0.00546 0.69074 0.0
H1629 H 0.07235 0.01536 0.73245 0.0
H1630 H 0.0471 0.0159 0.69381 0.0
H1631 H 0.11923 0.04166 0.64169 0.0
H1632 H 0.12801 0.02172 0.61804 0.0
H1633 H 0.14204 0.02428 0.64904 0.0
H1634 H 0.12994 0.97903 0.64986 0.0
H1635 H 0.11598 0.97634 0.61888 0.0
H1636 H 0.09883 0.96549 0.64299 0.0
H1637 H 0.02794 0.01364 0.65082 0.0
H1638 H 0.01538 0.00596 0.60629 0.0
H1639 H 0.0878 0.99633 0.59249 0.0
C1640 C 0.11424 0.00807 0.69172 0.0
C1641 C 0.10447 0.01051 0.71454 0.0
C1642 C 0.08017 0.01346 0.71512 0.0
C1643 C 0.06573 0.01393 0.6933 0.0
C1644 C 0.07584 0.01131 0.67108 0.0
C1645 C 0.09948 0.0083 0.67009 0.0
C1646 C 0.10542 0.00415 0.64375 0.0
C1647 C 0.12482 0.02415 0.63779 0.0
C1648 C 0.11298 0.97981 0.63858 0.0
C1649 C 0.08132 0.00493 0.63013 0.0
C1650 C 0.06461 0.00943 0.64622 0.0
C1651 C 0.04089 0.01025 0.63801 0.0
C1652 C 0.03394 0.0059 0.61268 0.0
C1653 C 0.0506 0.00055 0.59591 0.0
C1654 C 0.07467 0.00047 0.60482 0.0
H1655 H 0.7345 0.3136 0.44545 0.0
H1656 H 0.68704 0.35476 0.40987 0.0
H1657 H 0.68755 0.33032 0.37034 0.0
H1658 H 0.7718 0.31304 0.40022 0.0
H1659 H 0.7784 0.28373 0.40261 0.0
H1660 H 0.7698 0.30031 0.4289 0.0
H1661 H 0.7348 0.26627 0.43279 0.0
H1662 H 0.74343 0.2494 0.40654 0.0
H1663 H 0.71317 0.25537 0.40669 0.0
H1664 H 0.69761 0.30512 0.33396 0.0
H1665 H 0.71803 0.28294 0.30363 0.0
H1666 H 0.76116 0.26065 0.3628 0.0
C1667 C 0.72339 0.31684 0.42959 0.0
C1668 C 0.71036 0.33578 0.43079 0.0
C1669 C 0.69688 0.34012 0.40938 0.0
C1670 C 0.69702 0.32628 0.3869 0.0
C1671 C 0.71081 0.30829 0.38616 0.0
C1672 C 0.72375 0.30355 0.40699 0.0
C1673 C 0.73997 0.28579 0.40078 0.0
C1674 C 0.76655 0.29637 0.40858 0.0
C1675 C 0.73238 0.26284 0.41239 0.0
C1676 C 0.73483 0.28191 0.37309 0.0
C1677 C 0.71755 0.29459 0.36505 0.0
C1678 C 0.711 0.29498 0.3401 0.0
C1679 C 0.72284 0.28259 0.32299 0.0
C1680 C 0.74138 0.27048 0.33083 0.0
C1681 C 0.74691 0.2696 0.35622 0.0
H1682 H 0.43305 0.00213 0.19793 0.0
H1683 H 0.35665 0.98199 0.17574 0.0
H1684 H 0.36559 0.96825 0.13392 0.0
H1685 H 0.44925 0.02447 0.14298 0.0
H1686 H 0.47742 0.01373 0.14338 0.0
H1687 H 0.46483 0.02044 0.1718 0.0
H1688 H 0.46664 0.97789 0.18265 0.0
H1689 H 0.47897 0.97099 0.15405 0.0
H1690 H 0.452 0.95292 0.16147 0.0
H1691 H 0.38262 0.96048 0.09386 0.0
H1692 H 0.40667 0.95976 0.05815 0.0
H1693 H 0.47197 0.98257 0.10687 0.0
C1694 C 0.41819 0.99471 0.18431 0.0
C1695 C 0.39414 0.99314 0.19001 0.0
C1696 C 0.3752 0.98333 0.17173 0.0
C1697 C 0.38011 0.97537 0.14799 0.0
C1698 C 0.40403 0.9771 0.143 0.0
C1699 C 0.42276 0.98648 0.16064 0.0
C1700 C 0.44683 0.9874 0.15024 0.0
C1701 C 0.46037 0.01303 0.15221 0.0
C1702 C 0.462 0.97134 0.16286 0.0
C1703 C 0.43869 0.97767 0.12378 0.0
C1704 C 0.41392 0.97171 0.12002 0.0
C1705 C 0.40203 0.96456 0.09665 0.0
C1706 C 0.41577 0.96413 0.07653 0.0
C1707 C 0.44107 0.97052 0.08001 0.0
C1708 C 0.4527 0.97676 0.10394 0.0
H1709 H 0.73003 0.69173 0.92447 0.0
H1710 H 0.79745 0.66517 0.92708 0.0
H1711 H 0.8113 0.69073 0.89551 0.0
H1712 H 0.72315 0.69109 0.86012 0.0
H1713 H 0.71004 0.71755 0.85991 0.0
H1714 H 0.70634 0.6998 0.88503 0.0
H1715 H 0.72403 0.73616 0.91566 0.0
H1716 H 0.72915 0.75465 0.8912 0.0
H1717 H 0.75371 0.75202 0.91303 0.0
H1718 H 0.81749 0.7185 0.86296 0.0
H1719 H 0.8131 0.74182 0.82767 0.0
H1720 H 0.74043 0.74726 0.84362 0.0
C1721 C 0.74782 0.69159 0.9186 0.0
C1722 C 0.76282 0.67671 0.92834 0.0
C1723 C 0.78575 0.67651 0.91984 0.0
C1724 C 0.79383 0.69109 0.90208 0.0
C1725 C 0.77862 0.70553 0.89276 0.0
C1726 C 0.75594 0.70561 0.90043 0.0
C1727 C 0.74227 0.72101 0.88576 0.0
C1728 C 0.71908 0.70649 0.87189 0.0
C1729 C 0.73696 0.7422 0.90242 0.0
C1730 C 0.76053 0.729 0.86824 0.0
C1731 C 0.78167 0.7205 0.87307 0.0
C1732 C 0.80107 0.72535 0.8591 0.0
C1733 C 0.79851 0.73869 0.83923 0.0
C1734 C 0.77659 0.74648 0.83334 0.0
C1735 C 0.75751 0.74182 0.84816 0.0
H1736 H 0.82898 0.04868 0.05852 0.0
H1737 H 0.82585 0.09348 -0.00048 0.0
H1738 H 0.85862 0.07642 0.98126 0.0
H1739 H 0.89123 0.0553 0.06689 0.0
H1740 H 0.892 0.02538 0.07356 0.0
H1741 H 0.86642 0.0389 0.08004 0.0
H1742 H 0.83858 0.00411 0.05319 0.0
H1743 H 0.86427 0.99063 0.04651 0.0
H1744 H 0.84424 0.99684 0.02172 0.0
H1745 H 0.89364 0.05673 0.97122 0.0
H1746 H 0.93033 0.03883 0.97215 0.0
H1747 H 0.91108 0.00757 0.03832 0.0
C1748 C 0.83486 0.05463 0.04151 0.0
C1749 C 0.82473 0.07233 0.03036 0.0
C1750 C 0.8333 0.07992 0.00837 0.0
C1751 C 0.85179 0.07021 -0.00223 0.0
C1752 C 0.86149 0.0529 0.00936 0.0
C1753 C 0.85338 0.04526 0.03081 0.0
C1754 C 0.86823 0.02808 0.04086 0.0
C1755 C 0.88018 0.0375 0.06686 0.0
C1756 C 0.85291 0.00346 0.04054 0.0
C1757 C 0.88654 0.02791 0.02219 0.0
C1758 C 0.88201 0.04191 0.00386 0.0
C1759 C 0.89722 0.04553 0.98533 0.0
C1760 C 0.91803 0.03523 0.986 0.0
C1761 C 0.92361 0.02174 0.0053 0.0
C1762 C 0.90722 0.01751 0.02316 0.0
H1763 H 0.33437 0.41759 0.03064 0.0
H1764 H 0.31629 0.472 0.08245 0.0
H1765 H 0.35855 0.49274 0.08659 0.0
H1766 H 0.39763 0.41796 0.05625 0.0
H1767 H 0.40657 0.41391 0.02547 0.0
H1768 H 0.37649 0.40218 0.03155 0.0
H1769 H 0.36143 0.42537 0.99652 0.0
H1770 H 0.39177 0.4381 0.99225 0.0
H1771 H 0.37024 0.45707 -0.00089 0.0
H1772 H 0.40176 0.50923 0.08204 0.0
H1773 H 0.44253 0.52041 0.06922 0.0
H1774 H 0.43157 0.45604 0.01857 0.0
C1775 C 0.33965 0.43336 0.04358 0.0
C1776 C 0.32253 0.44291 0.05692 0.0
C1777 C 0.3295 0.46422 0.07267 0.0
C1778 C 0.35337 0.4761 0.07503 0.0
C1779 C 0.36982 0.46656 0.06115 0.0
C1780 C 0.36326 0.44566 0.04571 0.0
C1781 C 0.38352 0.44058 0.03071 0.0
C1782 C 0.39154 0.41728 0.03638 0.0
C1783 C 0.3763 0.44027 0.00302 0.0
C1784 C 0.40258 0.46178 0.04019 0.0
C1785 C 0.39438 0.47652 0.05779 0.0
C1786 C 0.40846 0.49771 0.06845 0.0
C1787 C 0.43157 0.50395 0.06098 0.0
C1788 C 0.4403 0.48912 0.04291 0.0
C1789 C 0.42552 0.46775 0.0325 0.0
H1790 H 0.37562 0.60133 0.77237 0.0
H1791 H 0.31023 0.5492 0.75961 0.0
H1792 H 0.28644 0.58047 0.77054 0.0
H1793 H 0.35828 0.63661 0.82409 0.0
H1794 H 0.37241 0.66419 0.81462 0.0
H1795 H 0.38423 0.63748 0.80694 0.0
H1796 H 0.38016 0.64376 0.76069 0.0
H1797 H 0.36859 0.67057 0.7683 0.0
H1798 H 0.35147 0.64749 0.74637 0.0
H1799 H 0.26976 0.61822 0.78194 0.0
H1800 H 0.26175 0.6592 0.7898 0.0
H1801 H 0.33834 0.6857 0.79475 0.0
C1802 C 0.3563 0.59642 0.77198 0.0
C1803 C 0.34478 0.57282 0.7652 0.0
C1804 C 0.31944 0.56719 0.76474 0.0
C1805 C 0.30579 0.5848 0.77104 0.0
C1806 C 0.31777 0.60792 0.77775 0.0
C1807 C 0.34246 0.61372 0.7781 0.0
C1808 C 0.351 0.63996 0.78482 0.0
C1809 C 0.36745 0.64484 0.80906 0.0
C1810 C 0.36353 0.65109 0.76379 0.0
C1811 C 0.32725 0.6481 0.78791 0.0
C1812 C 0.30825 0.62942 0.78403 0.0
C1813 C 0.28453 0.63295 0.78515 0.0
C1814 C 0.28015 0.65625 0.78974 0.0
C1815 C 0.29941 0.67561 0.79291 0.0
C1816 C 0.32321 0.67128 0.79247 0.0
H1817 H 0.17887 0.61936 0.52581 0.0
H1818 H 0.21933 0.57353 0.48503 0.0
H1819 H 0.18164 0.54739 0.46822 0.0
H1820 H 0.1369 0.57323 0.54326 0.0
H1821 H 0.11169 0.58862 0.54075 0.0
H1822 H 0.14165 0.60511 0.54764 0.0
H1823 H 0.13542 0.62823 0.51004 0.0
H1824 H 0.10543 0.61168 0.50298 0.0
H1825 H 0.12653 0.61219 0.48 0.0
H1826 H 0.14026 0.52516 0.45748 0.0
H1827 H 0.0977 0.50661 0.45592 0.0
H1828 H 0.084 0.56616 0.50439 0.0
C1829 C 0.17971 0.60398 0.51311 0.0
C1830 C 0.20193 0.59848 0.50663 0.0
C1831 C 0.20244 0.57802 0.49027 0.0
C1832 C 0.18115 0.56316 0.48047 0.0
C1833 C 0.15952 0.56895 0.48729 0.0
C1834 C 0.15859 0.58875 0.50335 0.0
C1835 C 0.13309 0.58985 0.50915 0.0
C1836 C 0.1307 0.58915 0.53684 0.0
C1837 C 0.12462 0.61179 0.49999 0.0
C1838 C 0.11999 0.56734 0.49424 0.0
C1839 C 0.13553 0.55576 0.48147 0.0
C1840 C 0.12783 0.53411 0.46723 0.0
C1841 C 0.10364 0.52372 0.46646 0.0
C1842 C 0.08757 0.53492 0.48005 0.0
C1843 C 0.09583 0.55723 0.49369 0.0
H1844 H 0.68625 0.93851 0.73594 0.0
H1845 H 0.64651 0.92844 0.79965 0.0
H1846 H 0.67413 0.90249 0.81418 0.0
H1847 H 0.69443 0.87946 0.72486 0.0
H1848 H 0.72399 0.88641 0.7147 0.0
H1849 H 0.70295 0.90636 0.71106 0.0
H1850 H 0.73392 0.94044 0.73532 0.0
H1851 H 0.755 0.92046 0.73923 0.0
H1852 H 0.74638 0.93693 0.76574 0.0
H1853 H 0.70465 0.87595 0.82055 0.0
H1854 H 0.73258 0.84745 0.81592 0.0
H1855 H 0.75145 0.87377 0.74724 0.0
C1856 C 0.68361 0.93113 0.75315 0.0
C1857 C 0.66439 0.93561 0.7668 0.0
C1858 C 0.66116 0.92524 0.78894 0.0
C1859 C 0.67686 0.91064 0.79742 0.0
C1860 C 0.6956 0.90649 0.78348 0.0
C1861 C 0.69889 0.91625 0.76168 0.0
C1862 C 0.71893 0.90721 0.74895 0.0
C1863 C 0.7095 0.89408 0.72339 0.0
C1864 C 0.73979 0.92747 0.74722 0.0
C1865 C 0.72603 0.89043 0.7667 0.0
C1866 C 0.71273 0.89064 0.78676 0.0
C1867 C 0.71532 0.87578 0.80503 0.0
C1868 C 0.73133 0.85971 0.80229 0.0
C1869 C 0.74426 0.85839 0.78123 0.0
C1870 C 0.742 0.87446 0.76363 0.0
H1871 H 0.68736 0.94715 0.56714 0.0
H1872 H 0.66106 0.88719 0.51224 0.0
H1873 H 0.62703 0.90618 0.49895 0.0
H1874 H 0.62722 0.95644 0.58288 0.0
H1875 H 0.63561 0.98817 0.58766 0.0
H1876 H 0.65777 0.96969 0.59351 0.0
H1877 H 0.68469 0.99107 0.56359 0.0
H1878 H 0.6626 0.00952 0.55748 0.0
H1879 H 0.67262 0.9922 0.53241 0.0
H1880 H 0.59778 0.93256 0.48941 0.0
H1881 H 0.57171 0.9627 0.48755 0.0
H1882 H 0.61515 0.00498 0.55006 0.0
C1883 C 0.67427 0.93794 0.55252 0.0
C1884 C 0.67691 0.91574 0.54065 0.0
C1885 C 0.65938 0.90416 0.52165 0.0
C1886 C 0.64004 0.91485 0.51388 0.0
C1887 C 0.63822 0.93693 0.52556 0.0
C1888 C 0.65451 0.94817 0.54481 0.0
C1889 C 0.64799 0.97168 0.55442 0.0
C1890 C 0.64178 0.97147 0.58121 0.0
C1891 C 0.66818 0.99234 0.55181 0.0
C1892 C 0.6259 0.97211 0.5371 0.0
C1893 C 0.6207 0.95192 0.52056 0.0
C1894 C 0.60153 0.94838 0.50238 0.0
C1895 C 0.58693 0.96573 0.50137 0.0
C1896 C 0.59142 0.9863 0.51859 0.0
C1897 C 0.6113 0.98953 0.53658 0.0
H1898 H 0.3845 0.41443 0.75268 0.0
H1899 H 0.32472 0.45143 0.73866 0.0
H1900 H 0.29627 0.41434 0.73979 0.0
H1901 H 0.35786 0.35816 0.71732 0.0
H1902 H 0.37011 0.34085 0.73925 0.0
H1903 H 0.38583 0.36991 0.73562 0.0
H1904 H 0.38558 0.38241 0.78227 0.0
H1905 H 0.36984 0.35343 0.78603 0.0
H1906 H 0.35741 0.37929 0.79583 0.0
H1907 H 0.27434 0.37355 0.74336 0.0
H1908 H 0.2604 0.3322 0.75081 0.0
H1909 H 0.33447 0.32226 0.76404 0.0
C1910 C 0.36544 0.41467 0.74951 0.0
C1911 C 0.35682 0.43579 0.74542 0.0
C1912 C 0.33172 0.43545 0.7418 0.0
C1913 C 0.31543 0.41447 0.74233 0.0
C1914 C 0.32452 0.39403 0.74665 0.0
C1915 C 0.34892 0.39396 0.75026 0.0
C1916 C 0.35397 0.3699 0.75583 0.0
C1917 C 0.36775 0.35907 0.73581 0.0
C1918 C 0.36749 0.37136 0.78151 0.0
C1919 C 0.32858 0.35652 0.75501 0.0
C1920 C 0.31186 0.37068 0.74942 0.0
C1921 C 0.28726 0.36227 0.74771 0.0
C1922 C 0.27952 0.33877 0.75194 0.0
C1923 C 0.29635 0.32407 0.75807 0.0
C1924 C 0.32118 0.33312 0.75952 0.0
H1925 H 0.10853 0.57968 0.25158 0.0
H1926 H 0.16746 0.54007 0.25545 0.0
H1927 H 0.19629 0.57691 0.2543 0.0
H1928 H 0.13331 0.62131 0.21089 0.0
H1929 H 0.12246 0.64588 0.22654 0.0
H1930 H 0.10632 0.61623 0.22638 0.0
H1931 H 0.10941 0.62134 0.27406 0.0
H1932 H 0.12534 0.65104 0.27435 0.0
H1933 H 0.1385 0.63017 0.29115 0.0
H1934 H 0.21871 0.61817 0.25317 0.0
H1935 H 0.23334 0.66117 0.25613 0.0
H1936 H 0.15976 0.67384 0.25413 0.0
C1937 C 0.12749 0.5787 0.25204 0.0
C1938 C 0.13573 0.55696 0.25349 0.0
C1939 C 0.16072 0.55652 0.25439 0.0
C1940 C 0.17722 0.57733 0.25358 0.0
C1941 C 0.16846 0.59843 0.25201 0.0
C1942 C 0.1442 0.59931 0.2515 0.0
C1943 C 0.13954 0.62442 0.25114 0.0
C1944 C 0.12452 0.62711 0.22732 0.0
C1945 C 0.1275 0.63219 0.27404 0.0
C1946 C 0.16501 0.63758 0.2518 0.0
C1947 C 0.1814 0.62225 0.25194 0.0
C1948 C 0.20604 0.63034 0.253 0.0
C1949 C 0.21416 0.65481 0.25458 0.0
C1950 C 0.1977 0.67089 0.25535 0.0
C1951 C 0.1728 0.66203 0.25349 0.0
H1952 H 0.5084 0.67222 0.40839 0.0
H1953 H 0.51187 0.71932 0.47571 0.0
H1954 H 0.51858 0.6865 0.50008 0.0
H1955 H 0.47692 0.62097 0.42968 0.0
H1956 H 0.49303 0.60105 0.41307 0.0
H1957 H 0.48914 0.6285 0.40154 0.0
H1958 H 0.53534 0.63969 0.40105 0.0
H1959 H 0.53933 0.61234 0.41286 0.0
H1960 H 0.55459 0.64013 0.42891 0.0
H1961 H 0.52305 0.64716 0.51689 0.0
H1962 H 0.52392 0.60547 0.52417 0.0
H1963 H 0.51928 0.58591 0.44532 0.0
C1964 C 0.51056 0.67571 0.42827 0.0
C1965 C 0.50951 0.6983 0.44016 0.0
C1966 C 0.51257 0.70211 0.46621 0.0
C1967 C 0.51646 0.68361 0.48019 0.0
C1968 C 0.5175 0.66152 0.46779 0.0
C1969 C 0.51467 0.65762 0.44238 0.0
C1970 C 0.51605 0.63233 0.4333 0.0
C1971 C 0.49238 0.62 0.41854 0.0
C1972 C 0.53761 0.63106 0.41814 0.0
C1973 C 0.51974 0.62241 0.45755 0.0
C1974 C 0.52061 0.63941 0.47731 0.0
C1975 C 0.52265 0.63379 0.50151 0.0
C1976 C 0.52324 0.61011 0.50549 0.0
C1977 C 0.52181 0.59243 0.48534 0.0
C1978 C 0.52061 0.59896 0.46118 0.0
H1979 H 0.62491 0.29066 0.66278 0.0
H1980 H 0.58516 0.31848 0.72002 0.0
H1981 H 0.61786 0.31516 0.75131 0.0
H1982 H 0.64155 0.24712 0.6929 0.0
H1983 H 0.6711 0.24825 0.68253 0.0
H1984 H 0.64795 0.25821 0.66407 0.0
H1985 H 0.67492 0.29917 0.66433 0.0
H1986 H 0.69838 0.28911 0.68247 0.0
H1987 H 0.68765 0.31568 0.69324 0.0
H1988 H 0.65178 0.30308 0.77679 0.0
H1989 H 0.68417 0.28341 0.79397 0.0
H1990 H 0.69969 0.26149 0.71984 0.0
C1991 C 0.62355 0.29699 0.68177 0.0
C1992 C 0.60265 0.30501 0.689 0.0
C1993 C 0.60115 0.31244 0.71412 0.0
C1994 C 0.61965 0.31067 0.73201 0.0
C1995 C 0.63952 0.30153 0.72442 0.0
C1996 C 0.6417 0.29505 0.69983 0.0
C1997 C 0.6631 0.28277 0.6967 0.0
C1998 C 0.65545 0.25761 0.68327 0.0
C1999 C 0.68214 0.29757 0.68341 0.0
C2000 C 0.67181 0.28227 0.72335 0.0
C2001 C 0.65846 0.29369 0.73911 0.0
C2002 C 0.6626 0.29439 0.76462 0.0
C2003 C 0.68089 0.28309 0.77422 0.0
C2004 C 0.69432 0.27086 0.75825 0.0
C2005 C 0.68972 0.27067 0.73256 0.0
H2006 H -0.00453 0.35277 0.88661 0.0
H2007 H 0.99386 0.31131 0.94863 0.0
H2008 H 0.98892 0.34678 0.97596 0.0
H2009 H 0.03088 0.40301 0.91655 0.0
H2010 H 0.01592 0.42329 0.90063 0.0
H2011 H 0.01592 0.39401 0.88608 0.0
H2012 H 0.96932 0.38677 0.87993 0.0
H2013 H 0.9692 0.41608 0.89467 0.0
H2014 H 0.95249 0.39074 0.90614 0.0
H2015 H 0.98844 0.38841 -0.00312 0.0
H2016 H -0.0052 0.4316 0.00937 0.0
H2017 H -0.00331 0.44435 0.93288 0.0
C2018 C 0.99375 0.35089 0.90588 0.0
C2019 C -0.0049 0.32923 0.91549 0.0
C2020 C 0.99281 0.32772 0.94084 0.0
C2021 C 0.98991 0.34774 0.95645 0.0
C2022 C 0.98903 0.36895 0.9463 0.0
C2023 C 0.99083 0.3705 0.92152 0.0
C2024 C 0.99151 0.39549 0.91517 0.0
C2025 C 0.01495 0.40446 0.90397 0.0
C2026 C 0.9693 0.39737 0.89796 0.0
C2027 C 0.99073 0.40811 0.94041 0.0
C2028 C 0.98885 0.39258 0.95815 0.0
C2029 C 0.98955 0.40064 0.98307 0.0
C2030 C 0.99306 0.42519 0.98998 0.0
C2031 C -0.00383 0.44126 0.97204 0.0
C2032 C 0.99419 0.43248 0.94697 0.0
H2033 H 0.96001 0.78539 0.1758 0.0
H2034 H 0.99031 0.74319 0.22767 0.0
H2035 H 0.95168 0.7362 0.24576 0.0
H2036 H 0.92415 0.81292 0.21822 0.0
H2037 H 0.89952 0.81238 0.19518 0.0
H2038 H 0.92971 0.81434 0.18643 0.0
H2039 H 0.91617 0.77703 0.15502 0.0
H2040 H 0.88598 0.77494 0.16376 0.0
H2041 H 0.90149 0.7501 0.16539 0.0
H2042 H 0.90961 0.73294 0.25765 0.0
H2043 H 0.86707 0.73467 0.26325 0.0
H2044 H 0.86445 0.77943 0.2041 0.0
C2045 C 0.95856 0.77472 0.19099 0.0
C2046 C 0.97822 0.76482 0.20027 0.0
C2047 C 0.97555 0.75102 0.22024 0.0
C2048 C 0.95367 0.7469 0.23065 0.0
C2049 C 0.93465 0.75682 0.22099 0.0
C2050 C 0.93689 0.77055 0.20172 0.0
C2051 C 0.91364 0.77914 0.19482 0.0
C2052 C 0.91696 0.80631 0.19892 0.0
C2053 C 0.90374 0.76973 0.16817 0.0
C2054 C 0.89798 0.76792 0.21309 0.0
C2055 C 0.91043 0.75511 0.22801 0.0
C2056 C 0.89966 0.74298 0.24614 0.0
C2057 C 0.87551 0.74403 0.24915 0.0
C2058 C 0.86245 0.75717 0.23412 0.0
C2059 C 0.87392 0.76924 0.21589 0.0
H2060 H 0.51516 0.30604 0.05843 0.0
H2061 H 0.44264 0.29228 0.07989 0.0
H2062 H 0.43345 0.32747 0.06144 0.0
H2063 H 0.52457 0.36482 0.07569 0.0
H2064 H 0.542 0.37427 0.05121 0.0
H2065 H 0.54149 0.345 0.06007 0.0
H2066 H 0.52693 0.32688 0.01532 0.0
H2067 H 0.52762 0.35622 0.00621 0.0
H2068 H 0.50042 0.33468 0.0001 0.0
H2069 H 0.43431 0.36707 0.04931 0.0
H2070 H 0.44485 0.40899 0.04301 0.0
H2071 H 0.51678 0.39871 0.02855 0.0
C2072 C 0.49708 0.30996 0.05817 0.0
C2073 C 0.47943 0.29639 0.07015 0.0
C2074 C 0.45626 0.30242 0.07054 0.0
C2075 C 0.45086 0.32229 0.06001 0.0
C2076 C 0.46889 0.33598 0.04923 0.0
C2077 C 0.49151 0.33007 0.04801 0.0
C2078 C 0.50852 0.34971 0.03869 0.0
C2079 C 0.53042 0.35899 0.05755 0.0
C2080 C 0.51633 0.34137 0.01358 0.0
C2081 C 0.49229 0.36804 0.03629 0.0
C2082 C 0.46938 0.35946 0.042 0.0
C2083 C 0.45193 0.37378 0.04404 0.0
C2084 C 0.45809 0.3976 0.04053 0.0
C2085 C 0.48143 0.40689 0.03487 0.0
C2086 C 0.49861 0.39181 0.03216 0.0
H2087 H 0.9631 0.27305 0.40322 0.0
H2088 H 0.99183 0.31578 0.3478 0.0
H2089 H 0.95075 0.31532 0.32921 0.0
H2090 H 0.91828 0.2359 0.36435 0.0
H2091 H 0.8961 0.23382 0.38623 0.0
H2092 H 0.92755 0.2396 0.39689 0.0
H2093 H 0.92169 0.27764 0.42336 0.0
H2094 H 0.89015 0.27193 0.41281 0.0
H2095 H 0.90828 0.29983 0.409 0.0
H2096 H 0.9074 0.30641 0.31376 0.0
H2097 H 0.86418 0.2908 0.30346 0.0
H2098 H 0.86327 0.25512 0.3696 0.0
C2099 C 0.96075 0.28267 0.38744 0.0
C2100 C 0.98072 0.29444 0.37699 0.0
C2101 C 0.97685 0.30666 0.3562 0.0
C2102 C 0.95356 0.30656 0.34551 0.0
C2103 C 0.93433 0.2944 0.35598 0.0
C2104 C 0.93762 0.28287 0.37661 0.0
C2105 C 0.91396 0.27003 0.38339 0.0
C2106 C 0.91399 0.24326 0.38265 0.0
C2107 C 0.90818 0.28049 0.40864 0.0
C2108 C 0.89698 0.27552 0.36287 0.0
C2109 C 0.90909 0.28972 0.34734 0.0
C2110 C 0.89761 0.29566 0.32601 0.0
C2111 C 0.87312 0.28665 0.32027 0.0
C2112 C 0.86041 0.27199 0.33588 0.0
C2113 C 0.87245 0.2667 0.35763 0.0
H2114 H 0.00353 0.6679 0.59069 0.0
H2115 H 0.96887 0.64522 0.65413 0.0
H2116 H 0.96047 0.60403 0.6343 0.0
H2117 H 0.96532 0.62423 0.54282 0.0
H2118 H 0.99062 0.61989 0.52597 0.0
H2119 H 0.99026 0.6481 0.54316 0.0
H2120 H 0.03105 0.64576 0.56683 0.0
H2121 H 0.03144 0.6175 0.54992 0.0
H2122 H 0.03388 0.62045 0.58307 0.0
H2123 H 0.95926 0.56526 0.60984 0.0
H2124 H 0.96615 0.53091 0.58281 0.0
H2125 H 0.00361 0.5781 0.53579 0.0
C2126 C 0.99346 0.65433 0.59995 0.0
C2127 C 0.98642 0.65966 0.62369 0.0
C2128 C 0.97414 0.64142 0.6358 0.0
C2129 C 0.96926 0.61803 0.62467 0.0
C2130 C 0.97701 0.61317 0.60153 0.0
C2131 C 0.98886 0.63076 0.58927 0.0
C2132 C -0.00242 0.62036 0.56584 0.0
C2133 C 0.9852 0.62864 0.5431 0.0
C2134 C 0.02512 0.62638 0.56647 0.0
C2135 C 0.98929 0.5942 0.56721 0.0
C2136 C 0.97711 0.59052 0.58774 0.0
C2137 C 0.96854 0.56791 0.59356 0.0
C2138 C 0.97262 0.54848 0.57807 0.0
C2139 C 0.98545 0.55175 0.55711 0.0
C2140 C 0.99367 0.57498 0.55158 0.0
H2141 H 0.61622 0.75799 0.88945 0.0
H2142 H 0.56551 0.74035 0.82426 0.0
H2143 H 0.59932 0.74024 0.79831 0.0
H2144 H 0.65723 0.79824 0.86515 0.0
H2145 H 0.68351 0.79026 0.88063 0.0
H2146 H 0.65538 0.78577 0.89399 0.0
H2147 H 0.65761 0.74116 0.89516 0.0
H2148 H 0.68601 0.74597 0.88229 0.0
H2149 H 0.66197 0.7236 0.86736 0.0
H2150 H 0.63907 0.74614 0.77934 0.0
H2151 H 0.6809 0.75822 0.7693 0.0
H2152 H 0.70465 0.77198 0.84726 0.0
C2153 C 0.61217 0.75365 0.86975 0.0
C2154 C 0.58827 0.74913 0.85887 0.0
C2155 C 0.58373 0.74377 0.833 0.0
C2156 C 0.6028 0.74361 0.81812 0.0
C2157 C 0.62623 0.74865 0.82945 0.0
C2158 C 0.63091 0.75344 0.85471 0.0
C2159 C 0.65752 0.76003 0.86236 0.0
C2160 C 0.66376 0.78506 0.87634 0.0
C2161 C 0.66628 0.74157 0.87769 0.0
C2162 C 0.66712 0.75912 0.83742 0.0
C2163 C 0.64891 0.75215 0.81861 0.0
C2164 C 0.6535 0.75133 0.79393 0.0
C2165 C 0.67726 0.75821 0.78839 0.0
C2166 C 0.69594 0.7661 0.80749 0.0
C2167 C 0.69075 0.76605 0.83223 0.0
H2168 H 0.45764 0.52711 0.69566 0.0
H2169 H 0.38488 0.51857 0.66047 0.0
H2170 H 0.40065 0.52057 0.62015 0.0
H2171 H 0.48554 0.56806 0.65453 0.0
H2172 H 0.51252 0.55527 0.65401 0.0
H2173 H 0.49589 0.5545 0.68071 0.0
H2174 H 0.49266 0.50893 0.67749 0.0
H2175 H 0.50926 0.50957 0.6508 0.0
H2176 H 0.48004 0.49133 0.6491 0.0
H2177 H 0.42307 0.52053 0.58381 0.0
H2178 H 0.45151 0.51947 0.55251 0.0
H2179 H 0.51089 0.52935 0.60967 0.0
C2180 C 0.44509 0.52593 0.67947 0.0
C2181 C 0.41998 0.5227 0.68127 0.0
C2182 C 0.40414 0.52101 0.65963 0.0
C2183 C 0.41293 0.52218 0.6366 0.0
C2184 C 0.43764 0.52511 0.6354 0.0
C2185 C 0.4536 0.52705 0.65614 0.0
C2186 C 0.4793 0.52928 0.64924 0.0
C2187 C 0.49419 0.55321 0.66028 0.0
C2188 C 0.49099 0.50854 0.65713 0.0
C2189 C 0.47513 0.52796 0.6214 0.0
C2190 C 0.4509 0.52559 0.614 0.0
C2191 C 0.44213 0.52275 0.58934 0.0
C2192 C 0.45851 0.52221 0.57167 0.0
C2193 C 0.48352 0.52473 0.57855 0.0
C2194 C 0.49195 0.52783 0.60383 0.0
H2195 H 0.76495 0.13972 0.95499 0.0
H2196 H 0.76115 0.20167 0.00522 0.0
H2197 H 0.75417 0.22404 0.96982 0.0
H2198 H 0.79686 0.17128 0.91071 0.0
H2199 H 0.78133 0.15182 0.88466 0.0
H2200 H 0.78553 0.14078 0.91401 0.0
H2201 H 0.73957 0.12672 0.91275 0.0
H2202 H 0.73522 0.13787 0.88346 0.0
H2203 H 0.71951 0.14766 0.90881 0.0
H2204 H 0.74656 0.2393 0.92852 0.0
H2205 H 0.74229 0.24706 0.8849 0.0
H2206 H 0.75263 0.17541 0.86229 0.0
C2207 C 0.76265 0.15799 0.95856 0.0
C2208 C 0.7635 0.16894 0.98284 0.0
C2209 C 0.76061 0.19295 0.98675 0.0
C2210 C 0.75654 0.20576 0.96676 0.0
C2211 C 0.75562 0.19437 0.94302 0.0
C2212 C 0.75886 0.17109 0.93887 0.0
C2213 C 0.75777 0.16312 0.91165 0.0
C2214 C 0.78181 0.15636 0.90487 0.0
C2215 C 0.73676 0.14263 0.90371 0.0
C2216 C 0.75334 0.18551 0.9011 0.0
C2217 C 0.75194 0.2033 0.91944 0.0
C2218 C 0.74772 0.22552 0.91402 0.0
C2219 C 0.74522 0.22974 0.88921 0.0
C2220 C 0.74721 0.21188 0.87022 0.0
C2221 C 0.75114 0.18948 0.87638 0.0
H2222 H 0.09383 0.475 0.16627 0.0
H2223 H 0.02936 0.45271 0.20164 0.0
H2224 H 0.00441 0.45882 0.16462 0.0
H2225 H 0.07377 0.52139 0.14052 0.0
H2226 H 0.08766 0.5179 0.11223 0.0
H2227 H 0.10051 0.50821 0.13968 0.0
H2228 H 0.09786 0.46607 0.11718 0.0
H2229 H 0.08529 0.47577 0.08953 0.0
H2230 H 0.06945 0.45065 0.10213 0.0
H2231 H 0.98659 0.47118 0.12552 0.0
H2232 H 0.9774 0.48812 0.08681 0.0
H2233 H 0.05366 0.50361 0.0782 0.0
C2234 C 0.07447 0.47071 0.16593 0.0
C2235 C 0.06349 0.4632 0.1867 0.0
C2236 C 0.0381 0.45836 0.18582 0.0
C2237 C 0.02379 0.46175 0.16489 0.0
C2238 C 0.03516 0.46997 0.14502 0.0
C2239 C 0.05993 0.47422 0.14527 0.0
C2240 C 0.06773 0.48496 0.12247 0.0
C2241 C 0.08333 0.50957 0.12914 0.0
C2242 C 0.08085 0.46837 0.10691 0.0
C2243 C 0.04351 0.48664 0.10974 0.0
C2244 C 0.02492 0.47765 0.12281 0.0
C2245 C 0.00099 0.47806 0.11496 0.0
C2246 C -0.00406 0.4878 0.09304 0.0
C2247 C 0.0148 0.49722 0.07947 0.0
C2248 C 0.03882 0.49655 0.08806 0.0
H2249 H 0.75016 0.84984 0.46335 0.0
H2250 H 0.75862 0.92392 0.45085 0.0
H2251 H 0.76611 0.9134 0.408 0.0
H2252 H 0.79559 0.83371 0.42423 0.0
H2253 H 0.77824 0.8052 0.41261 0.0
H2254 H 0.77481 0.81843 0.44299 0.0
H2255 H 0.72899 0.81483 0.4315 0.0
H2256 H 0.73229 0.80147 0.40119 0.0
H2257 H 0.7185 0.82751 0.40476 0.0
H2258 H 0.77073 0.89523 0.36617 0.0
H2259 H 0.77051 0.86992 0.32717 0.0
H2260 H 0.75941 0.80752 0.36607 0.0
C2261 C 0.7538 0.86385 0.45165 0.0
C2262 C 0.75383 0.88772 0.46056 0.0
C2263 C 0.7584 0.90549 0.44453 0.0
C2264 C 0.76282 0.89973 0.42014 0.0
C2265 C 0.76261 0.8761 0.41191 0.0
C2266 C 0.75811 0.85839 0.42707 0.0
C2267 C 0.75769 0.83427 0.41306 0.0
C2268 C 0.77778 0.8222 0.42387 0.0
C2269 C 0.7329 0.81861 0.4126 0.0
C2270 C 0.76248 0.84128 0.38772 0.0
C2271 C 0.76538 0.86553 0.38755 0.0
C2272 C 0.76872 0.87622 0.36607 0.0
C2273 C 0.76859 0.86172 0.34402 0.0
C2274 C 0.76521 0.83681 0.34363 0.0
C2275 C 0.76256 0.82654 0.36588 0.0
H2276 H 0.46226 0.50206 0.83449 0.0
H2277 H 0.39567 0.53048 0.83246 0.0
H2278 H 0.39871 0.53541 0.87763 0.0
H2279 H 0.45235 0.46971 0.88654 0.0
H2280 H 0.48318 0.47646 0.89962 0.0
H2281 H 0.47623 0.47516 0.86685 0.0
H2282 H 0.49967 0.51776 0.86739 0.0
H2283 H 0.50688 0.51908 0.90011 0.0
H2284 H 0.49203 0.54136 0.8877 0.0
H2285 H 0.40798 0.53661 0.92256 0.0
H2286 H 0.42462 0.53657 0.96533 0.0
H2287 H 0.48569 0.50806 0.93923 0.0
C2288 C 0.4484 0.50943 0.84355 0.0
C2289 C 0.4287 0.51582 0.82983 0.0
C2290 C 0.41095 0.52543 0.84246 0.0
C2291 C 0.41245 0.52826 0.86816 0.0
C2292 C 0.43185 0.52152 0.88109 0.0
C2293 C 0.44966 0.51252 0.86933 0.0
C2294 C 0.46876 0.50704 0.88785 0.0
C2295 C 0.4702 0.48052 0.88504 0.0
C2296 C 0.49329 0.52222 0.88563 0.0
C2297 C 0.45877 0.51428 0.91176 0.0
C2298 C 0.43741 0.52247 0.90733 0.0
C2299 C 0.42473 0.5303 0.92632 0.0
C2300 C 0.43433 0.53015 0.95057 0.0
C2301 C 0.45645 0.52231 0.95566 0.0
C2302 C 0.46867 0.51403 0.93594 0.0
H2303 H 0.78714 0.19021 0.10954 0.0
H2304 H 0.81793 0.13774 0.14703 0.0
H2305 H 0.82617 0.16547 0.18521 0.0
H2306 H 0.82489 0.24521 0.14516 0.0
H2307 H 0.79927 0.26011 0.1456 0.0
H2308 H 0.80169 0.23893 0.11986 0.0
H2309 H 0.75993 0.21554 0.1261 0.0
H2310 H 0.75744 0.23647 0.15181 0.0
H2311 H 0.75472 0.20546 0.15564 0.0
H2312 H 0.82553 0.19614 0.22044 0.0
H2313 H 0.81305 0.22543 0.25039 0.0
H2314 H 0.77961 0.25646 0.19058 0.0
C2315 C 0.79663 0.18503 0.1255 0.0
C2316 C 0.80246 0.16213 0.1253 0.0
C2317 C 0.81373 0.1554 0.1468 0.0
C2318 C 0.81855 0.17107 0.1685 0.0
C2319 C 0.81177 0.19328 0.1684 0.0
C2320 C 0.80098 0.20024 0.14744 0.0
C2321 C 0.79166 0.22317 0.15312 0.0
C2322 C 0.80519 0.24303 0.14017 0.0
C2323 C 0.76433 0.21995 0.14628 0.0
C2324 C 0.79788 0.22747 0.1807 0.0
C2325 C 0.81014 0.21044 0.18905 0.0
C2326 C 0.81621 0.20972 0.21405 0.0
C2327 C 0.80889 0.22634 0.23096 0.0
C2328 C 0.79511 0.24303 0.22284 0.0
C2329 C 0.79029 0.24404 0.19735 0.0
H2330 H 0.0412 0.5143 0.33049 0.0
H2331 H 0.06289 0.44542 0.32095 0.0
H2332 H 0.04376 0.43466 0.35823 0.0
H2333 H 0.05397 0.5223 0.39608 0.0
H2334 H 0.02936 0.53789 0.40124 0.0
H2335 H 0.04322 0.53922 0.37288 0.0
H2336 H 0.00154 0.52405 0.34857 0.0
H2337 H 0.98768 0.52221 0.37696 0.0
H2338 H 0.98419 0.49649 0.35467 0.0
H2339 H 0.02217 0.43135 0.39618 0.0
H2340 H 0.00641 0.43806 0.43636 0.0
H2341 H 0.00086 0.51005 0.42262 0.0
C2342 C 0.04183 0.49694 0.33625 0.0
C2343 C 0.05334 0.48059 0.32283 0.0
C2344 C 0.05421 0.4582 0.33108 0.0
C2345 C 0.04318 0.45185 0.35204 0.0
C2346 C 0.03166 0.46824 0.36467 0.0
C2347 C 0.03138 0.49051 0.35743 0.0
C2348 C 0.0197 0.50555 0.37549 0.0
C2349 C 0.03763 0.52753 0.38711 0.0
C2350 C -0.00308 0.51248 0.36318 0.0
C2351 C 0.01357 0.48829 0.39411 0.0
C2352 C 0.02015 0.46671 0.38723 0.0
C2353 C 0.01694 0.44817 0.40179 0.0
C2354 C 0.00782 0.45214 0.42455 0.0
C2355 C 0.00246 0.47463 0.43274 0.0
C2356 C 0.00461 0.49262 0.41686 0.0
H2357 H 0.72193 0.82168 0.60103 0.0
H2358 H 0.7954 0.85847 0.60515 0.0
H2359 H 0.80668 0.83625 0.63922 0.0
H2360 H 0.71925 0.82512 0.66448 0.0
H2361 H 0.70073 0.79665 0.66489 0.0
H2362 H 0.69905 0.81199 0.63793 0.0
H2363 H 0.70871 0.77561 0.61144 0.0
H2364 H 0.71043 0.76015 0.6384 0.0
H2365 H 0.73542 0.76383 0.61989 0.0
H2366 H 0.80937 0.81433 0.67508 0.0
H2367 H 0.80303 0.79547 0.71292 0.0
H2368 H 0.72755 0.77283 0.68788 0.0
C2369 C 0.74049 0.8244 0.6087 0.0
C2370 C 0.75799 0.84139 0.60029 0.0
C2371 C 0.7819 0.84531 0.61125 0.0
C2372 C 0.78847 0.8327 0.6305 0.0
C2373 C 0.77082 0.81639 0.63879 0.0
C2374 C 0.74728 0.81223 0.62842 0.0
C2375 C 0.7314 0.79592 0.64298 0.0
C2376 C 0.71144 0.80816 0.65317 0.0
C2377 C 0.72087 0.77248 0.62723 0.0
C2378 C 0.74958 0.79221 0.66349 0.0
C2379 C 0.77227 0.80389 0.66031 0.0
C2380 C 0.7918 0.8048 0.6776 0.0
C2381 C 0.78801 0.79407 0.69905 0.0
C2382 C 0.76488 0.7825 0.70312 0.0
C2383 C 0.7455 0.78104 0.68486 0.0
H2384 H 0.69934 0.44344 0.52125 0.0
H2385 H 0.66416 0.38491 0.55662 0.0
H2386 H 0.63627 0.4101 0.57294 0.0
H2387 H 0.69224 0.49194 0.5678 0.0
H2388 H 0.68587 0.51108 0.54491 0.0
H2389 H 0.70518 0.48963 0.53885 0.0
H2390 H 0.67792 0.47187 0.49908 0.0
H2391 H 0.65876 0.4934 0.50488 0.0
H2392 H 0.64624 0.46232 0.50086 0.0
H2393 H 0.61081 0.4406 0.58317 0.0
H2394 H 0.58614 0.47199 0.5819 0.0
H2395 H 0.63673 0.5102 0.5382 0.0
C2396 C 0.68602 0.4361 0.53281 0.0
C2397 C 0.68399 0.41236 0.53794 0.0
C2398 C 0.66599 0.4031 0.55255 0.0
C2399 C 0.65024 0.41733 0.56207 0.0
C2400 C 0.65266 0.44068 0.55662 0.0
C2401 C 0.6699 0.44992 0.54207 0.0
C2402 C 0.66692 0.4746 0.53658 0.0
C2403 C 0.68886 0.49289 0.54771 0.0
C2404 C 0.66217 0.47559 0.5087 0.0
C2405 C 0.64495 0.47757 0.54982 0.0
C2406 C 0.63737 0.45804 0.56176 0.0
C2407 C 0.61668 0.45608 0.57407 0.0
C2408 C 0.60281 0.47409 0.5733 0.0
C2409 C 0.60947 0.49361 0.55993 0.0
C2410 C 0.63128 0.49568 0.54881 0.0
H2411 H 0.15069 0.11513 0.4971 0.0
H2412 H 0.18756 0.0601 0.46695 0.0
H2413 H 0.15102 0.03042 0.46787 0.0
H2414 H 0.12137 0.08195 0.53924 0.0
H2415 H 0.09391 0.09389 0.53612 0.0
H2416 H 0.12181 0.11129 0.53027 0.0
H2417 H 0.1035 0.11633 0.48669 0.0
H2418 H 0.07545 0.09903 0.49248 0.0
H2419 H 0.09028 0.09048 0.46599 0.0
H2420 H 0.1114 0.00632 0.47472 0.0
H2421 H 0.07185 0.98963 0.48752 0.0
H2422 H 0.06153 0.0603 0.51443 0.0
C2423 C 0.1509 0.09693 0.49016 0.0
C2424 C 0.1719 0.08993 0.48177 0.0
C2425 C 0.17162 0.06585 0.47336 0.0
C2426 C 0.15095 0.04888 0.47377 0.0
C2427 C 0.13071 0.05626 0.48268 0.0
C2428 C 0.13048 0.07973 0.49067 0.0
C2429 C 0.10703 0.08276 0.50105 0.0
C2430 C 0.1113 0.09307 0.52828 0.0
C2431 C 0.09325 0.09806 0.48563 0.0
C2432 C 0.09435 0.05729 0.49814 0.0
C2433 C 0.10814 0.0423 0.48722 0.0
C2434 C 0.10036 0.01791 0.48314 0.0
C2435 C 0.0779 0.00859 0.49049 0.0
C2436 C 0.06365 0.02363 0.50205 0.0
C2437 C 0.07203 0.0483 0.50574 0.0
H2438 H 0.15764 0.92298 0.77779 0.0
H2439 H 0.22158 0.97383 0.77103 0.0
H2440 H 0.24405 0.94105 0.76244 0.0
H2441 H 0.1878 0.8817 0.80795 0.0
H2442 H 0.16798 0.8561 0.79225 0.0
H2443 H 0.1572 0.88367 0.79787 0.0
H2444 H 0.14444 0.88228 0.75122 0.0
H2445 H 0.1554 0.85481 0.74545 0.0
H2446 H 0.16641 0.87968 0.72949 0.0
H2447 H 0.25956 0.90229 0.75466 0.0
H2448 H 0.26696 0.86096 0.74993 0.0
H2449 H 0.19253 0.83616 0.76131 0.0
C2450 C 0.17638 0.92726 0.77459 0.0
C2451 C 0.18786 0.95097 0.7751 0.0
C2452 C 0.21242 0.95579 0.77078 0.0
C2453 C 0.22532 0.93729 0.76581 0.0
C2454 C 0.21339 0.91409 0.76522 0.0
C2455 C 0.18949 0.90905 0.76961 0.0
C2456 C 0.18087 0.88267 0.76816 0.0
C2457 C 0.17301 0.87563 0.79304 0.0
C2458 C 0.16058 0.87438 0.74734 0.0
C2459 C 0.20362 0.87364 0.76227 0.0
C2460 C 0.22221 0.89196 0.76061 0.0
C2461 C 0.24509 0.88779 0.75585 0.0
C2462 C 0.24912 0.86428 0.75311 0.0
C2463 C 0.23033 0.84531 0.75513 0.0
C2464 C 0.20727 0.8502 0.75946 0.0
H2465 H 0.32201 0.89669 0.00341 0.0
H2466 H 0.29997 0.95833 0.97473 0.0
H2467 H 0.34189 0.97267 0.96689 0.0
H2468 H 0.3759 0.92613 0.03508 0.0
H2469 H 0.39261 0.90251 0.02869 0.0
H2470 H 0.36061 0.89589 0.02977 0.0
H2471 H 0.35559 0.87385 0.98581 0.0
H2472 H 0.38764 0.88019 0.98442 0.0
H2473 H 0.36773 0.88882 0.961 0.0
H2474 H 0.38681 0.98191 0.96557 0.0
H2475 H 0.431 0.98598 0.97254 0.0
H2476 H 0.42299 0.91761 0.00075 0.0
C2477 C 0.32588 0.91309 0.99523 0.0
C2478 C 0.30766 0.92636 0.98967 0.0
C2479 C 0.31361 0.94781 0.97913 0.0
C2480 C 0.33735 0.95605 0.97449 0.0
C2481 C 0.35487 0.94253 0.98026 0.0
C2482 C 0.34939 0.92149 0.99038 0.0
C2483 C 0.37166 0.911 0.99638 0.0
C2484 C 0.37542 0.90877 0.02411 0.0
C2485 C 0.37058 0.88704 0.98097 0.0
C2486 C 0.39065 0.9297 0.9886 0.0
C2487 C 0.38064 0.94766 0.97914 0.0
C2488 C 0.39483 0.96777 0.97257 0.0
C2489 C 0.41991 0.96989 0.97651 0.0
C2490 C 0.43047 0.952 0.98693 0.0
C2491 C 0.41555 0.93136 0.99225 0.0
H2492 H 0.85922 0.59738 0.78968 0.0
H2493 H 0.79668 0.54553 0.76053 0.0
H2494 H 0.77369 0.57781 0.75394 0.0
H2495 H 0.82598 0.63855 0.82176 0.0
H2496 H 0.84627 0.66415 0.81517 0.0
H2497 H 0.85707 0.63678 0.81845 0.0
H2498 H 0.87272 0.63782 0.77531 0.0
H2499 H 0.86166 0.66498 0.77176 0.0
H2500 H 0.85217 0.63974 0.74906 0.0
H2501 H 0.75876 0.61652 0.74723 0.0
H2502 H 0.75194 0.6579 0.74584 0.0
H2503 H 0.82391 0.68338 0.78114 0.0
C2504 C 0.84059 0.59279 0.78223 0.0
C2505 C 0.82972 0.56898 0.77559 0.0
C2506 C 0.8053 0.56368 0.76591 0.0
C2507 C 0.79214 0.5819 0.76196 0.0
C2508 C 0.8036 0.60526 0.76815 0.0
C2509 C 0.82715 0.61068 0.77853 0.0
C2510 C 0.83539 0.63711 0.78365 0.0
C2511 C 0.84153 0.64458 0.8114 0.0
C2512 C 0.85674 0.64539 0.76907 0.0
C2513 C 0.81298 0.64576 0.77413 0.0
C2514 C 0.79483 0.62723 0.76509 0.0
C2515 C 0.77277 0.63115 0.75454 0.0
C2516 C 0.76909 0.65466 0.75366 0.0
C2517 C 0.78732 0.67377 0.76352 0.0
C2518 C 0.80951 0.66912 0.77369 0.0
H2519 H 0.80991 0.56552 0.02437 0.0
H2520 H 0.82107 0.62558 0.9819 0.0
H2521 H 0.86337 0.621 0.97978 0.0
H2522 H 0.86819 0.57822 0.05973 0.0
H2523 H 0.87124 0.54753 0.05929 0.0
H2524 H 0.84182 0.55571 0.05798 0.0
H2525 H 0.82912 0.52753 0.01772 0.0
H2526 H 0.85848 0.51928 0.0189 0.0
H2527 H 0.84678 0.5308 0.99192 0.0
H2528 H 0.90378 0.60946 0.98109 0.0
H2529 H 0.94044 0.59205 0.9862 0.0
H2530 H 0.90374 0.53953 0.02829 0.0
C2531 C 0.82125 0.57779 0.0147 0.0
C2532 C 0.81211 0.59593 0.00329 0.0
C2533 C 0.8276 0.61156 0.9908 0.0
C2534 C 0.85167 0.60911 0.98949 0.0
C2535 C 0.86003 0.59101 0.00082 0.0
C2536 C 0.84537 0.57564 0.01325 0.0
C2537 C 0.8589 0.55752 0.02357 0.0
C2538 C 0.86011 0.5599 0.05182 0.0
C2539 C 0.84765 0.53229 0.01235 0.0
C2540 C 0.88342 0.56505 0.01484 0.0
C2541 C 0.88359 0.58441 0.00176 0.0
C2542 C 0.90392 0.59438 0.99139 0.0
C2543 C 0.92467 0.58429 0.99439 0.0
C2544 C 0.92501 0.56444 0.00772 0.0
C2545 C 0.90408 0.55477 0.01815 0.0
H2546 H 0.16061 0.11384 0.79395 0.0
H2547 H 0.21517 0.06972 0.80358 0.0
H2548 H 0.24681 0.10509 0.80597 0.0
H2549 H 0.19041 0.14996 0.75474 0.0
H2550 H 0.18066 0.17661 0.767 0.0
H2551 H 0.16251 0.14829 0.76874 0.0
H2552 H 0.16351 0.15778 0.81605 0.0
H2553 H 0.18164 0.18621 0.81441 0.0
H2554 H 0.19203 0.16609 0.83432 0.0
H2555 H 0.27265 0.14542 0.80388 0.0
H2556 H 0.28973 0.18653 0.79729 0.0
H2557 H 0.21766 0.20306 0.7891 0.0
C2558 C 0.17917 0.11157 0.79699 0.0
C2559 C 0.18535 0.08896 0.79864 0.0
C2560 C 0.20994 0.08686 0.80236 0.0
C2561 C 0.22806 0.10686 0.80377 0.0
C2562 C 0.2213 0.12884 0.80158 0.0
C2563 C 0.1974 0.13126 0.79842 0.0
C2564 C 0.19471 0.15645 0.79507 0.0
C2565 C 0.18129 0.15789 0.76989 0.0
C2566 C 0.18224 0.16727 0.81623 0.0
C2567 C 0.22082 0.16776 0.79627 0.0
C2568 C 0.23599 0.15173 0.80027 0.0
C2569 C 0.26091 0.15817 0.80099 0.0
C2570 C 0.27047 0.18153 0.79726 0.0
C2571 C 0.25506 0.19799 0.79266 0.0
C2572 C 0.22998 0.19094 0.79256 0.0
H2573 H 0.38855 0.91169 0.27411 0.0
H2574 H 0.32773 0.9459 0.28988 0.0
H2575 H 0.30349 0.9069 0.29359 0.0
H2576 H 0.35718 0.86493 0.23581 0.0
H2577 H 0.37443 0.84322 0.24557 0.0
H2578 H 0.38803 0.87387 0.24845 0.0
H2579 H 0.39897 0.87298 0.2951 0.0
H2580 H 0.38545 0.84219 0.29233 0.0
H2581 H 0.37574 0.86316 0.31427 0.0
H2582 H 0.28435 0.86379 0.28937 0.0
H2583 H 0.27227 0.82068 0.27808 0.0
H2584 H 0.34598 0.81522 0.26563 0.0
C2585 C 0.37032 0.91112 0.27896 0.0
C2586 C 0.36006 0.93189 0.28172 0.0
C2587 C 0.33604 0.93026 0.28782 0.0
C2588 C 0.32214 0.90818 0.29 0.0
C2589 C 0.33263 0.88798 0.28637 0.0
C2590 C 0.35629 0.88933 0.28125 0.0
C2591 C 0.36277 0.86502 0.27588 0.0
C2592 C 0.37107 0.86157 0.24989 0.0
C2593 C 0.38186 0.86058 0.29558 0.0
C2594 C 0.33878 0.84973 0.27768 0.0
C2595 C 0.32167 0.86321 0.28411 0.0
C2596 C 0.2977 0.85303 0.28481 0.0
C2597 C 0.291 0.82853 0.27831 0.0
C2598 C 0.3082 0.81456 0.27106 0.0
C2599 C 0.33245 0.82532 0.27139 0.0
H2600 H 0.50476 0.35321 0.62134 0.0
H2601 H 0.53194 0.3177 0.55881 0.0
H2602 H 0.52638 0.35104 0.53486 0.0
H2603 H 0.46093 0.3824 0.58609 0.0
H2604 H 0.46767 0.40875 0.60769 0.0
H2605 H 0.46956 0.38028 0.61802 0.0
H2606 H 0.51361 0.39572 0.63609 0.0
H2607 H 0.51182 0.42411 0.62588 0.0
H2608 H 0.53512 0.4083 0.61637 0.0
H2609 H 0.52292 0.39074 0.51992 0.0
H2610 H 0.52411 0.43337 0.51637 0.0
H2611 H 0.49977 0.44244 0.58915 0.0
C2612 C 0.50895 0.35208 0.60238 0.0
C2613 C 0.51865 0.3328 0.59188 0.0
C2614 C 0.52432 0.33224 0.56717 0.0
C2615 C 0.52112 0.35105 0.5534 0.0
C2616 C 0.51208 0.37013 0.56459 0.0
C2617 C 0.506 0.37067 0.58854 0.0
C2618 C 0.49933 0.39419 0.59746 0.0
C2619 C 0.47279 0.39122 0.60261 0.0
C2620 C 0.51597 0.40628 0.62028 0.0
C2621 C 0.50363 0.40726 0.57521 0.0
C2622 C 0.51043 0.393 0.55618 0.0
C2623 C 0.51719 0.40192 0.53453 0.0
C2624 C 0.51775 0.42615 0.53264 0.0
C2625 C 0.51197 0.44117 0.55248 0.0
C2626 C 0.50408 0.43135 0.5736 0.0
H2627 H 0.42951 0.73833 0.3026 0.0
H2628 H 0.41751 0.72945 0.37856 0.0
H2629 H 0.37388 0.71833 0.36646 0.0
H2630 H 0.38253 0.76611 0.28971 0.0
H2631 H 0.37459 0.75248 0.25855 0.0
H2632 H 0.40492 0.75528 0.27219 0.0
H2633 H 0.40322 0.71002 0.26296 0.0
H2634 H 0.37283 0.70709 0.24905 0.0
H2635 H 0.37948 0.68993 0.27372 0.0
H2636 H 0.33187 0.71646 0.34777 0.0
H2637 H 0.29474 0.72078 0.32331 0.0
H2638 H 0.33392 0.72849 0.25898 0.0
C2639 C 0.41778 0.73339 0.3166 0.0
C2640 C 0.42684 0.73477 0.34152 0.0
C2641 C 0.41095 0.72833 0.35933 0.0
C2642 C 0.38615 0.722 0.35262 0.0
C2643 C 0.37771 0.72173 0.32799 0.0
C2644 C 0.39312 0.72682 0.31017 0.0
C2645 C 0.37948 0.72742 0.28545 0.0
C2646 C 0.38575 0.75176 0.27594 0.0
C2647 C 0.38402 0.70742 0.26669 0.0
C2648 C 0.35397 0.72308 0.29237 0.0
C2649 C 0.35331 0.71965 0.31696 0.0
C2650 C 0.33208 0.71834 0.32835 0.0
C2651 C 0.3111 0.72089 0.31433 0.0
C2652 C 0.31146 0.72445 0.28917 0.0
C2653 C 0.33305 0.72501 0.27797 0.0
H2654 H 0.03929 0.6882 0.1412 0.0
H2655 H 0.03405 0.72561 0.07657 0.0
H2656 H 0.02951 0.68762 0.04993 0.0
H2657 H 0.07118 0.64243 0.11586 0.0
H2658 H 0.05437 0.61971 0.13107 0.0
H2659 H 0.05979 0.65001 0.14483 0.0
H2660 H 0.01399 0.6487 0.14656 0.0
H2661 H 0.00847 0.61842 0.13299 0.0
H2662 H 0.99407 0.64006 0.11875 0.0
H2663 H 0.02422 0.64524 0.03056 0.0
H2664 H 0.01379 0.60191 0.0201 0.0
H2665 H 0.02038 0.59256 0.09773 0.0
C2666 C 0.03757 0.68846 0.12142 0.0
C2667 C 0.03728 0.70984 0.11089 0.0
C2668 C 0.03437 0.7094 0.08498 0.0
C2669 C 0.03196 0.68795 0.06973 0.0
C2670 C 0.0323 0.66716 0.08075 0.0
C2671 C 0.03476 0.66726 0.10602 0.0
C2672 C 0.03234 0.64241 0.11339 0.0
C2673 C 0.05582 0.63841 0.12709 0.0
C2674 C 0.01094 0.63709 0.12882 0.0
C2675 C 0.0277 0.62824 0.08831 0.0
C2676 C 0.02826 0.64281 0.06969 0.0
C2677 C 0.02386 0.63368 0.04498 0.0
C2678 C 0.01807 0.60904 0.03922 0.0
C2679 C 0.01631 0.59392 0.05813 0.0
C2680 C 0.02168 0.6037 0.08291 0.0
H2681 H 0.09577 0.26178 0.87926 0.0
H2682 H 0.05525 0.27647 0.81375 0.0
H2683 H 0.09228 0.28143 0.79247 0.0
H2684 H 0.15208 0.3019 0.87305 0.0
H2685 H 0.17049 0.28145 0.88362 0.0
H2686 H 0.14138 0.28183 0.89459 0.0
H2687 H 0.12914 0.23703 0.87989 0.0
H2688 H 0.15812 0.23655 0.86876 0.0
H2689 H 0.13122 0.22656 0.8482 0.0
H2690 H 0.13307 0.28258 0.77764 0.0
H2691 H 0.17468 0.27845 0.76986 0.0
H2692 H 0.18783 0.26125 0.84451 0.0
C2693 C 0.09484 0.26653 0.86062 0.0
C2694 C 0.07281 0.26894 0.84815 0.0
C2695 C 0.07206 0.27461 0.82359 0.0
C2696 C 0.09296 0.27754 0.8114 0.0
C2697 C 0.11436 0.27461 0.82404 0.0
C2698 C 0.11546 0.26919 0.84808 0.0
C2699 C 0.14028 0.26513 0.85682 0.0
C2700 C 0.15173 0.28369 0.87829 0.0
C2701 C 0.13963 0.23982 0.86382 0.0
C2702 C 0.15281 0.26869 0.8338 0.0
C2703 C 0.13768 0.27448 0.81522 0.0
C2704 C 0.14515 0.27817 0.79208 0.0
C2705 C 0.16876 0.27577 0.78783 0.0
C2706 C 0.18435 0.26943 0.80654 0.0
C2707 C 0.17625 0.266 0.82981 0.0
H2708 H 0.51851 0.67636 0.92063 0.0
H2709 H 0.52161 0.72592 0.98599 0.0
H2710 H 0.51804 0.69254 0.01162 0.0
H2711 H 0.4767 0.62859 0.9387 0.0
H2712 H 0.49201 0.60609 0.92537 0.0
H2713 H 0.4933 0.63378 0.91246 0.0
H2714 H 0.53991 0.64015 0.91789 0.0
H2715 H 0.53871 0.61249 0.93082 0.0
H2716 H 0.55508 0.63933 0.94786 0.0
H2717 H 0.51358 0.65281 0.02978 0.0
H2718 H 0.51184 0.61118 0.03887 0.0
H2719 H 0.51461 0.5894 0.96138 0.0
C2720 C 0.51815 0.6802 0.94031 0.0
C2721 C 0.52003 0.70362 0.95136 0.0
C2722 C 0.52006 0.70801 0.97721 0.0
C2723 C 0.518 0.68919 0.99186 0.0
C2724 C 0.51628 0.66623 0.98032 0.0
C2725 C 0.51659 0.66179 0.95513 0.0
C2726 C 0.51587 0.63584 0.94719 0.0
C2727 C 0.49311 0.62547 0.92991 0.0
C2728 C 0.53876 0.63172 0.93524 0.0
C2729 C 0.51501 0.62628 0.9718 0.0
C2730 C 0.51497 0.64391 0.99075 0.0
C2731 C 0.51375 0.63891 0.01508 0.0
C2732 C 0.51272 0.61529 0.02008 0.0
C2733 C 0.51334 0.59722 0.00086 0.0
C2734 C 0.51444 0.6029 0.97651 0.0
H2735 H 0.10082 0.74939 0.64455 0.0
H2736 H 0.06511 0.73197 0.7092 0.0
H2737 H 0.1037 0.72706 0.73033 0.0
H2738 H 0.14709 0.7106 0.65037 0.0
H2739 H 0.17018 0.73233 0.64092 0.0
H2740 H 0.13926 0.73084 0.62923 0.0
H2741 H 0.14149 0.7751 0.645 0.0
H2742 H 0.17237 0.77673 0.65649 0.0
H2743 H 0.15103 0.78511 0.67694 0.0
H2744 H 0.14594 0.7275 0.7458 0.0
H2745 H 0.18971 0.7373 0.75625 0.0
H2746 H 0.19869 0.75581 0.68223 0.0
C2747 C 0.10112 0.74406 0.66296 0.0
C2748 C 0.08004 0.74083 0.6752 0.0
C2749 C 0.0811 0.73447 0.69949 0.0
C2750 C 0.10288 0.73143 0.71156 0.0
C2751 C 0.12343 0.73494 0.69912 0.0
C2752 C 0.12283 0.74132 0.67544 0.0
C2753 C 0.14792 0.74679 0.6674 0.0
C2754 C 0.15131 0.72908 0.64569 0.0
C2755 C 0.15352 0.77245 0.6611 0.0
C2756 C 0.16269 0.74328 0.69057 0.0
C2757 C 0.14816 0.73589 0.7084 0.0
C2758 C 0.15755 0.73301 0.73191 0.0
C2759 C 0.18245 0.73863 0.73767 0.0
C2760 C 0.19761 0.74734 0.72006 0.0
C2761 C 0.1876 0.74894 0.69599 0.0
H2762 H 0.04052 0.33599 0.48548 0.0
H2763 H 0.10211 0.36572 0.44953 0.0
H2764 H 0.10377 0.40409 0.47438 0.0
H2765 H 0.01174 0.38225 0.48225 0.0
H2766 H -0.00097 0.38113 0.51132 0.0
H2767 H 0.00646 0.3548 0.49579 0.0
H2768 H 0.03355 0.34952 0.5345 0.0
H2769 H 0.02617 0.37599 0.5502 0.0
H2770 H 0.05715 0.37332 0.54754 0.0
H2771 H 0.09398 0.44052 0.49636 0.0
H2772 H 0.07267 0.47203 0.51214 0.0
H2773 H 0.01719 0.41905 0.53392 0.0
C2774 C 0.05499 0.35029 0.48363 0.0
C2775 C 0.07137 0.3478 0.4658 0.0
C2776 C 0.0895 0.36718 0.46322 0.0
C2777 C 0.09066 0.38902 0.47737 0.0
C2778 C 0.07361 0.3912 0.49409 0.0
C2779 C 0.05618 0.37228 0.49739 0.0
C2780 C 0.03772 0.3801 0.5135 0.0
C2781 C 0.01226 0.37423 0.49989 0.0
C2782 C 0.03872 0.36908 0.53789 0.0
C2783 C 0.0467 0.40652 0.51758 0.0
C2784 C 0.06778 0.41251 0.50678 0.0
C2785 C 0.07785 0.43603 0.50546 0.0
C2786 C 0.06559 0.45384 0.51448 0.0
C2787 C 0.04336 0.44804 0.52451 0.0
C2788 C 0.03445 0.42411 0.52701 0.0
H2789 H 0.43663 0.23904 0.20865 0.0
H2790 H 0.4234 0.25857 0.1349 0.0
H2791 H 0.38389 0.26748 0.14488 0.0
H2792 H 0.37829 0.20985 0.21349 0.0
H2793 H 0.37796 0.21982 0.24561 0.0
H2794 H 0.40598 0.21696 0.23331 0.0
H2795 H 0.4228 0.26082 0.24928 0.0
H2796 H 0.3947 0.26384 0.26152 0.0
H2797 H 0.40669 0.28365 0.2403 0.0
H2798 H 0.34445 0.27025 0.16129 0.0
H2799 H 0.30771 0.2666 0.18316 0.0
H2800 H 0.34725 0.24709 0.24674 0.0
C2801 C 0.42557 0.24543 0.19465 0.0
C2802 C 0.43313 0.24808 0.17098 0.0
C2803 C 0.41803 0.25641 0.15317 0.0
C2804 C 0.39559 0.26161 0.1587 0.0
C2805 C 0.38866 0.25866 0.18216 0.0
C2806 C 0.40322 0.25085 0.19989 0.0
C2807 C 0.39101 0.24792 0.22325 0.0
C2808 C 0.38814 0.22211 0.22925 0.0
C2809 C 0.40461 0.26509 0.24486 0.0
C2810 C 0.36702 0.25468 0.21564 0.0
C2811 C 0.36608 0.26096 0.19191 0.0
C2812 C 0.34509 0.26583 0.18004 0.0
C2813 C 0.32436 0.2637 0.19255 0.0
C2814 C 0.32491 0.25696 0.21668 0.0
C2815 C 0.34662 0.25297 0.22857 0.0
H2816 H 0.56613 0.52026 0.34786 0.0
H2817 H 0.63931 0.51034 0.36721 0.0
H2818 H 0.62965 0.50547 0.40988 0.0
H2819 H 0.55859 0.55379 0.40311 0.0
H2820 H 0.52765 0.54054 0.40405 0.0
H2821 H 0.54011 0.54221 0.37495 0.0
H2822 H 0.52766 0.4968 0.36448 0.0
H2823 H 0.51505 0.495 0.39352 0.0
H2824 H 0.53744 0.47737 0.38557 0.0
H2825 H 0.6126 0.50517 0.45134 0.0
H2826 H 0.58879 0.50643 0.48726 0.0
H2827 H 0.52641 0.51422 0.43963 0.0
C2828 C 0.58013 0.51689 0.36099 0.0
C2829 C 0.60352 0.51577 0.35425 0.0
C2830 C 0.62125 0.51119 0.37196 0.0
C2831 C 0.61594 0.50847 0.39624 0.0
C2832 C 0.59276 0.51003 0.40232 0.0
C2833 C 0.57507 0.51385 0.3851 0.0
C2834 C 0.55163 0.51502 0.39624 0.0
C2835 C 0.54407 0.53933 0.39448 0.0
C2836 C 0.53178 0.49484 0.38424 0.0
C2837 C 0.55893 0.51159 0.42256 0.0
C2838 C 0.58275 0.50891 0.4258 0.0
C2839 C 0.59385 0.50694 0.44892 0.0
C2840 C 0.58024 0.50777 0.46921 0.0
C2841 C 0.55575 0.51027 0.46616 0.0
C2842 C 0.54499 0.51194 0.44247 0.0
H2843 H 0.2424 0.80101 0.06152 0.0
H2844 H 0.30546 0.85501 0.08191 0.0
H2845 H 0.31886 0.83185 0.11441 0.0
H2846 H 0.23039 0.79249 0.12096 0.0
H2847 H 0.21962 0.76112 0.1149 0.0
H2848 H 0.21732 0.77971 0.09064 0.0
H2849 H 0.24093 0.75374 0.06377 0.0
H2850 H 0.24337 0.73509 0.08809 0.0
H2851 H 0.27005 0.74878 0.07568 0.0
H2852 H 0.32276 0.80554 0.14761 0.0
H2853 H 0.31569 0.77956 0.18044 0.0
H2854 H 0.24963 0.74305 0.13881 0.0
C2855 C 0.25938 0.80761 0.07236 0.0
C2856 C 0.27307 0.82963 0.06906 0.0
C2857 C 0.29481 0.83808 0.08408 0.0
C2858 C 0.30261 0.82499 0.10246 0.0
C2859 C 0.28844 0.80353 0.10558 0.0
C2860 C 0.26724 0.79493 0.09097 0.0
C2861 C 0.25381 0.77297 0.09997 0.0
C2862 C 0.22882 0.77682 0.10704 0.0
C2863 C 0.25194 0.75136 0.08073 0.0
C2864 C 0.2704 0.77096 0.12237 0.0
C2865 C 0.29049 0.7885 0.12504 0.0
C2866 C 0.30733 0.79148 0.14549 0.0
C2867 C 0.30314 0.77664 0.16406 0.0
C2868 C 0.28218 0.75917 0.16212 0.0
C2869 C 0.26606 0.75589 0.14062 0.0
H2870 H 0.91425 0.5257 0.85267 0.0
H2871 H 0.97804 0.53066 0.81333 0.0
H2872 H 0.00353 0.53814 0.8528 0.0
H2873 H 0.94036 0.56964 0.90726 0.0
H2874 H 0.92458 0.55192 0.92816 0.0
H2875 H 0.9115 0.55174 0.89709 0.0
H2876 H 0.90766 0.50608 0.89064 0.0
H2877 H 0.92085 0.50613 0.92152 0.0
H2878 H 0.93404 0.49279 0.89601 0.0
H2879 H 0.02187 0.53983 0.89611 0.0
H2880 H 0.03145 0.535 0.93991 0.0
H2881 H 0.95562 0.52753 0.95073 0.0
C2882 C 0.93358 0.52926 0.85241 0.0
C2883 C 0.9442 0.52789 0.83001 0.0
C2884 C 0.96957 0.53179 0.83034 0.0
C2885 C 0.98419 0.53613 0.85266 0.0
C2886 C 0.97317 0.5365 0.87448 0.0
C2887 C 0.94843 0.53329 0.87455 0.0
C2888 C 0.94103 0.53163 0.90034 0.0
C2889 C 0.92864 0.55248 0.9087 0.0
C2890 C 0.92496 0.50774 0.90222 0.0
C2891 C 0.96538 0.53348 0.91454 0.0
C2892 C 0.98374 0.53677 0.89943 0.0
C2893 C 0.00768 0.53762 0.90822 0.0
C2894 C 0.01295 0.53482 0.93309 0.0
C2895 C 0.99429 0.53086 0.94869 0.0
C2896 C 0.9703 0.53056 0.93927 0.0
H2897 H 0.23889 0.13357 0.60288 0.0
H2898 H 0.23359 0.19427 0.56298 0.0
H2899 H 0.23724 0.21985 0.6024 0.0
H2900 H 0.20716 0.15176 0.65599 0.0
H2901 H 0.22724 0.14079 0.67745 0.0
H2902 H 0.22098 0.1268 0.64627 0.0
H2903 H 0.26659 0.13322 0.64103 0.0
H2904 H 0.27296 0.14713 0.67214 0.0
H2905 H 0.28392 0.16263 0.64717 0.0
H2906 H 0.24455 0.23928 0.64614 0.0
H2907 H 0.2579 0.25131 0.69019 0.0
H2908 H 0.25955 0.17797 0.70103 0.0
C2909 C 0.23797 0.15215 0.60241 0.0
C2910 C 0.23575 0.1619 0.57986 0.0
C2911 C 0.23522 0.18641 0.58005 0.0
C2912 C 0.23713 0.20105 0.60235 0.0
C2913 C 0.23962 0.19092 0.62427 0.0
C2914 C 0.24013 0.16703 0.62445 0.0
C2915 C 0.2453 0.16087 0.6503 0.0
C2916 C 0.22389 0.14406 0.65795 0.0
C2917 C 0.26857 0.15036 0.6528 0.0
C2918 C 0.24825 0.18512 0.66459 0.0
C2919 C 0.24445 0.20217 0.64935 0.0
C2920 C 0.24732 0.22604 0.65829 0.0
C2921 C 0.25484 0.23271 0.68334 0.0
C2922 C 0.25973 0.21557 0.69901 0.0
C2923 C 0.25584 0.19146 0.68953 0.0
H2924 H 0.63228 0.5034 0.18761 0.0
H2925 H 0.57234 0.51347 0.22984 0.0
H2926 H 0.5459 0.51049 0.19134 0.0
H2927 H 0.61609 0.53569 0.13673 0.0
H2928 H 0.62514 0.51522 0.11378 0.0
H2929 H 0.63979 0.51953 0.14463 0.0
H2930 H 0.62937 0.47449 0.14772 0.0
H2931 H 0.61473 0.47006 0.1169 0.0
H2932 H 0.59852 0.45988 0.14191 0.0
H2933 H 0.52583 0.50595 0.14847 0.0
H2934 H 0.51285 0.49775 0.10403 0.0
H2935 H 0.58538 0.48908 0.08958 0.0
C2936 C 0.61364 0.50519 0.18871 0.0
C2937 C 0.60437 0.50879 0.21168 0.0
C2938 C 0.57981 0.5107 0.21242 0.0
C2939 C 0.56467 0.50913 0.19066 0.0
C2940 C 0.57432 0.50547 0.16831 0.0
C2941 C 0.59818 0.50337 0.16714 0.0
C2942 C 0.60369 0.4983 0.14076 0.0
C2943 C 0.62228 0.51839 0.13355 0.0
C2944 C 0.61206 0.47425 0.13658 0.0
C2945 C 0.57916 0.49773 0.12733 0.0
C2946 C 0.56255 0.50218 0.14356 0.0
C2947 C 0.53867 0.50246 0.13555 0.0
C2948 C 0.53148 0.49782 0.11028 0.0
C2949 C 0.54808 0.49272 0.09334 0.0
C2950 C 0.57226 0.49287 0.10206 0.0
H2951 H 0.23154 0.81811 0.94726 0.0
H2952 H 0.19611 0.8721 0.91749 0.0
H2953 H 0.19432 0.85128 0.8759 0.0
H2954 H 0.26896 0.8128 0.90268 0.0
H2955 H 0.26774 0.78124 0.90105 0.0
H2956 H 0.26209 0.79743 0.92905 0.0
H2957 H 0.22072 0.77048 0.92848 0.0
H2958 H 0.22633 0.75396 0.90051 0.0
H2959 H 0.1995 0.76696 0.90158 0.0
H2960 H 0.20408 0.83027 0.83773 0.0
H2961 H 0.22167 0.80797 0.80527 0.0
H2962 H 0.2484 0.76556 0.85866 0.0
C2963 C 0.22268 0.82514 0.93212 0.0
C2964 C 0.21398 0.84678 0.93568 0.0
C2965 C 0.20286 0.85556 0.91529 0.0
C2966 C 0.20169 0.84381 0.89156 0.0
C2967 C 0.21134 0.82309 0.88856 0.0
C2968 C 0.22124 0.81354 0.90829 0.0
C2969 C 0.23244 0.79235 0.89974 0.0
C2970 C 0.2594 0.79621 0.90866 0.0
C2971 C 0.21893 0.76959 0.90807 0.0
C2972 C 0.22847 0.79231 0.87211 0.0
C2973 C 0.21605 0.81009 0.86611 0.0
C2974 C 0.21301 0.81573 0.84208 0.0
C2975 C 0.2231 0.80304 0.82376 0.0
C2976 C 0.2357 0.78471 0.82946 0.0
C2977 C 0.23803 0.77895 0.85382 0.0
H2978 H 0.92095 0.50445 0.70002 0.0
H2979 H 0.84389 0.48418 0.68227 0.0
H2980 H 0.85055 0.46838 0.6403 0.0
H2981 H 0.93455 0.52282 0.64153 0.0
H2982 H 0.96242 0.51154 0.64195 0.0
H2983 H 0.95128 0.52102 0.67043 0.0
H2984 H 0.95324 0.47984 0.68513 0.0
H2985 H 0.96407 0.47014 0.6565 0.0
H2986 H 0.93746 0.4536 0.66653 0.0
H2987 H 0.8657 0.45639 0.5998 0.0
H2988 H 0.88824 0.44999 0.56358 0.0
H2989 H 0.95524 0.47631 0.60891 0.0
C2990 C 0.90546 0.49678 0.68729 0.0
C2991 C 0.8819 0.49558 0.69432 0.0
C2992 C 0.8621 0.48528 0.6772 0.0
C2993 C 0.8657 0.47619 0.65338 0.0
C2994 C 0.8892 0.47738 0.64714 0.0
C2995 C 0.90873 0.48745 0.66359 0.0
C2996 C 0.93214 0.48684 0.65227 0.0
C2997 C 0.94589 0.51205 0.65149 0.0
C2998 C 0.94763 0.4717 0.66592 0.0
C2999 C 0.92273 0.47508 0.62677 0.0
C3000 C 0.89792 0.46975 0.62414 0.0
C3001 C 0.88514 0.46021 0.60171 0.0
C3002 C 0.89806 0.45659 0.58129 0.0
C3003 C 0.92344 0.46233 0.58357 0.0
C3004 C 0.93587 0.47118 0.60675 0.0
H3005 H 0.25913 0.16196 0.41153 0.0
H3006 H 0.25788 0.22011 0.46763 0.0
H3007 H 0.26957 0.24864 0.43797 0.0
H3008 H 0.30968 0.18966 0.38165 0.0
H3009 H 0.2965 0.17738 0.35123 0.0
H3010 H 0.28955 0.16166 0.37731 0.0
H3011 H 0.24402 0.16063 0.36602 0.0
H3012 H 0.25089 0.17605 0.33979 0.0
H3013 H 0.23317 0.18793 0.36227 0.0
H3014 H 0.28044 0.27085 0.40135 0.0
H3015 H 0.28559 0.28437 0.36028 0.0
H3016 H 0.27898 0.21134 0.3287 0.0
C3017 C 0.2615 0.18069 0.41767 0.0
C3018 C 0.25772 0.18881 0.44194 0.0
C3019 C 0.26071 0.21348 0.44912 0.0
C3020 C 0.26748 0.22982 0.43245 0.0
C3021 C 0.27116 0.2212 0.40866 0.0
C3022 C 0.26808 0.19719 0.40126 0.0
C3023 C 0.27166 0.19239 0.37432 0.0
C3024 C 0.29313 0.17951 0.37094 0.0
C3025 C 0.24856 0.17844 0.35975 0.0
C3026 C 0.27699 0.21742 0.36762 0.0
C3027 C 0.27694 0.23387 0.38767 0.0
C3028 C 0.28063 0.25811 0.38555 0.0
C3029 C 0.28367 0.26564 0.36218 0.0
C3030 C 0.2826 0.24893 0.34125 0.0
C3031 C 0.27991 0.2246 0.34431 0.0
H3032 H 0.33818 0.57383 0.54394 0.0
H3033 H 0.33751 0.62056 0.4865 0.0
H3034 H 0.37258 0.60554 0.47045 0.0
H3035 H 0.40115 0.58167 0.55609 0.0
H3036 H 0.40115 0.55153 0.5623 0.0
H3037 H 0.37542 0.56519 0.56776 0.0
H3038 H 0.34837 0.5309 0.53935 0.0
H3039 H 0.3742 0.51738 0.53347 0.0
H3040 H 0.35528 0.52433 0.50817 0.0
H3041 H 0.40894 0.58578 0.46178 0.0
H3042 H 0.44543 0.56695 0.46463 0.0
H3043 H 0.42102 0.53403 0.52788 0.0
C3044 C 0.34525 0.58088 0.52789 0.0
C3045 C 0.33505 0.59827 0.51638 0.0
C3046 C 0.34512 0.60724 0.49564 0.0
C3047 C 0.36486 0.59866 0.48627 0.0
C3048 C 0.37422 0.58117 0.4979 0.0
C3049 C 0.36484 0.57264 0.51845 0.0
C3050 C 0.37887 0.55508 0.52876 0.0
C3051 C 0.3898 0.56391 0.55528 0.0
C3052 C 0.36324 0.53047 0.52734 0.0
C3053 C 0.39795 0.55526 0.51105 0.0
C3054 C 0.39488 0.57006 0.49309 0.0
C3055 C 0.41129 0.5739 0.47556 0.0
C3056 C 0.43178 0.56299 0.4771 0.0
C3057 C 0.4355 0.54874 0.49613 0.0
C3058 C 0.41815 0.54442 0.51283 0.0
H3059 H 0.8227 0.97909 0.54824 0.0
H3060 H 0.82333 0.90694 0.56473 0.0
H3061 H 0.86744 0.91398 0.56648 0.0
H3062 H 0.86705 0.9815 0.50862 0.0
H3063 H 0.88111 0.01168 0.5183 0.0
H3064 H 0.8498 0.00242 0.52176 0.0
H3065 H 0.85725 0.01673 0.56838 0.0
H3066 H 0.88863 0.02628 0.56504 0.0
H3067 H 0.87988 0.00599 0.58705 0.0
H3068 H 0.91005 0.92621 0.5597 0.0
H3069 H 0.9496 0.94436 0.54853 0.0
H3070 H 0.92272 0.00952 0.53887 0.0
C3071 C 0.83214 0.96498 0.55289 0.0
C3072 C 0.81949 0.94245 0.55633 0.0
C3073 C 0.83255 0.92436 0.56203 0.0
C3074 C 0.85765 0.92818 0.56312 0.0
C3075 C 0.86951 0.95029 0.55881 0.0
C3076 C 0.85729 0.96855 0.55422 0.0
C3077 C 0.87436 0.9901 0.54863 0.0
C3078 C 0.86768 0.9968 0.5228 0.0
C3079 C 0.87507 0.01101 0.56846 0.0
C3080 C 0.89788 0.98074 0.54987 0.0
C3081 C 0.89461 0.95774 0.55584 0.0
C3082 C 0.91302 0.94441 0.55568 0.0
C3083 C 0.93538 0.95483 0.5492 0.0
C3084 C 0.93924 0.97843 0.54331 0.0
C3085 C 0.92035 0.99165 0.54397 0.0
H3086 H 0.8811 0.08591 0.28727 0.0
H3087 H 0.82288 0.04886 0.23458 0.0
H3088 H 0.80116 0.08257 0.24058 0.0
H3089 H 0.8436 0.11335 0.3288 0.0
H3090 H 0.86503 0.14042 0.33533 0.0
H3091 H 0.87523 0.1128 0.32782 0.0
H3092 H 0.89726 0.1304 0.29235 0.0
H3093 H 0.88709 0.15802 0.29973 0.0
H3094 H 0.88062 0.14287 0.26903 0.0
H3095 H 0.787 0.12168 0.25052 0.0
H3096 H 0.78135 0.16243 0.2643 0.0
H3097 H 0.84862 0.17311 0.31088 0.0
C3098 C 0.86367 0.08475 0.27717 0.0
C3099 C 0.85368 0.06473 0.26048 0.0
C3100 C 0.83086 0.06399 0.24754 0.0
C3101 C 0.81838 0.08305 0.25082 0.0
C3102 C 0.82888 0.10265 0.26722 0.0
C3103 C 0.85095 0.10355 0.2803 0.0
C3104 C 0.85866 0.12688 0.29627 0.0
C3105 C 0.86074 0.12313 0.32368 0.0
C3106 C 0.8823 0.14033 0.28889 0.0
C3107 C 0.8377 0.13915 0.28983 0.0
C3108 C 0.82064 0.12491 0.27312 0.0
C3109 C 0.80013 0.13289 0.26381 0.0
C3110 C 0.79707 0.15605 0.27174 0.0
C3111 C 0.81444 0.17094 0.28878 0.0
C3112 C 0.83487 0.16217 0.298 0.0
H3113 H 0.69438 0.06908 0.04358 0.0
H3114 H 0.69245 0.14002 0.07717 0.0
H3115 H 0.64877 0.12936 0.07909 0.0
H3116 H 0.64209 0.06341 0.00501 0.0
H3117 H 0.63204 0.03248 0.00742 0.0
H3118 H 0.66356 0.04451 0.01204 0.0
H3119 H 0.66605 0.02923 0.05495 0.0
H3120 H 0.63442 0.01718 0.05045 0.0
H3121 H 0.64629 0.03763 0.0772 0.0
H3122 H 0.60509 0.11311 0.07208 0.0
H3123 H 0.56436 0.09223 0.0564 0.0
H3124 H 0.59445 0.03144 0.02859 0.0
C3125 C 0.68484 0.08218 0.05187 0.0
C3126 C 0.6968 0.10534 0.06031 0.0
C3127 C 0.68366 0.12214 0.07063 0.0
C3128 C 0.65886 0.11623 0.07193 0.0
C3129 C 0.6475 0.09339 0.06301 0.0
C3130 C 0.66006 0.07657 0.05329 0.0
C3131 C 0.64325 0.05402 0.04289 0.0
C3132 C 0.64536 0.04829 0.01521 0.0
C3133 C 0.64778 0.03329 0.05724 0.0
C3134 C 0.61925 0.06111 0.04747 0.0
C3135 C 0.62212 0.0838 0.05936 0.0
C3136 C 0.60258 0.09514 0.06329 0.0
C3137 C 0.57954 0.08318 0.05431 0.0
C3138 C 0.57631 0.06015 0.04165 0.0
C3139 C 0.59636 0.04878 0.03883 0.0
H3140 H 0.17848 0.43479 0.25086 0.0
H3141 H 0.13315 0.41607 0.3086 0.0
H3142 H 0.16078 0.38997 0.32264 0.0
H3143 H 0.19078 0.37693 0.23562 0.0
H3144 H 0.22121 0.38679 0.229 0.0
H3145 H 0.19904 0.40556 0.2251 0.0
H3146 H 0.22641 0.43902 0.25426 0.0
H3147 H 0.24845 0.42007 0.25847 0.0
H3148 H 0.23641 0.43337 0.2848 0.0
H3149 H 0.19229 0.36496 0.32952 0.0
H3150 H 0.22295 0.33931 0.32603 0.0
H3151 H 0.2471 0.37297 0.26274 0.0
C3152 C 0.17455 0.42539 0.26663 0.0
C3153 C 0.1538 0.42755 0.27879 0.0
C3154 C 0.14897 0.41464 0.29904 0.0
C3155 C 0.16464 0.39992 0.30725 0.0
C3156 C 0.18495 0.39817 0.29488 0.0
C3157 C 0.18981 0.41031 0.27482 0.0
C3158 C 0.21177 0.40377 0.26356 0.0
C3159 C 0.2053 0.39259 0.23674 0.0
C3160 C 0.23196 0.42535 0.26539 0.0
C3161 C 0.21825 0.38578 0.2802 0.0
C3162 C 0.2028 0.38315 0.29841 0.0
C3163 C 0.20459 0.36694 0.31543 0.0
C3164 C 0.22213 0.35248 0.31332 0.0
C3165 C 0.2375 0.35411 0.29413 0.0
C3166 C 0.23584 0.37143 0.27778 0.0
H3167 H 0.19114 0.44352 0.06559 0.0
H3168 H 0.16696 0.38572 0.0078 0.0
H3169 H 0.13275 0.40485 0.99484 0.0
H3170 H 0.13077 0.45092 0.08092 0.0
H3171 H 0.13885 0.48258 0.08746 0.0
H3172 H 0.16117 0.46408 0.09233 0.0
H3173 H 0.1882 0.48769 0.06395 0.0
H3174 H 0.16581 0.50602 0.05873 0.0
H3175 H 0.17642 0.49019 0.03299 0.0
H3176 H 0.10269 0.43136 0.98664 0.0
H3177 H 0.07571 0.46087 0.98685 0.0
H3178 H 0.11822 0.50063 0.05131 0.0
C3179 C 0.17851 0.43482 0.05034 0.0
C3180 C 0.18171 0.4132 0.03761 0.0
C3181 C 0.16477 0.40224 0.01786 0.0
C3182 C 0.14538 0.41304 0.01028 0.0
C3183 C 0.14299 0.43458 0.02291 0.0
C3184 C 0.1588 0.44514 0.04283 0.0
C3185 C 0.15178 0.468 0.0536 0.0
C3186 C 0.14526 0.46628 0.08015 0.0
C3187 C 0.17174 0.48923 0.05222 0.0
C3188 C 0.12983 0.46888 0.03631 0.0
C3189 C 0.12518 0.44951 0.01866 0.0
C3190 C 0.10605 0.44653 0.00047 0.0
C3191 C 0.0909 0.4635 0.00068 0.0
C3192 C 0.09483 0.48313 0.01908 0.0
C3193 C 0.11476 0.4859 0.03694 0.0
H3194 H 0.88302 0.90369 0.23188 0.0
H3195 H 0.82686 0.94592 0.22204 0.0
H3196 H 0.79617 0.91065 0.22426 0.0
H3197 H 0.84957 0.84693 0.19871 0.0
H3198 H 0.86191 0.82969 0.22065 0.0
H3199 H 0.8792 0.85715 0.21422 0.0
H3200 H 0.88393 0.87235 0.26066 0.0
H3201 H 0.86657 0.84505 0.26718 0.0
H3202 H 0.85747 0.8728 0.27685 0.0
H3203 H 0.77192 0.87193 0.23137 0.0
H3204 H 0.7559 0.83298 0.24402 0.0
H3205 H 0.82812 0.81662 0.25128 0.0
C3206 C 0.86424 0.90535 0.2294 0.0
C3207 C 0.85728 0.92747 0.22645 0.0
C3208 C 0.83255 0.9291 0.22412 0.0
C3209 C 0.81501 0.90916 0.22529 0.0
C3210 C 0.8225 0.88776 0.2289 0.0
C3211 C 0.84653 0.88571 0.23088 0.0
C3212 C 0.84996 0.86138 0.23727 0.0
C3213 C 0.8608 0.848 0.21647 0.0
C3214 C 0.86538 0.86301 0.26195 0.0
C3215 C 0.82416 0.85031 0.2392 0.0
C3216 C 0.80857 0.86565 0.23388 0.0
C3217 C 0.78393 0.85968 0.23534 0.0
C3218 C 0.77501 0.83751 0.24259 0.0
C3219 C 0.79074 0.82171 0.24867 0.0
C3220 C 0.8156 0.82822 0.24668 0.0
H3221 H 0.6131 0.08255 0.73747 0.0
H3222 H 0.6732 0.04665 0.72371 0.0
H3223 H 0.70066 0.08511 0.72998 0.0
H3224 H 0.63581 0.13859 0.7109 0.0
H3225 H 0.62457 0.15629 0.73481 0.0
H3226 H 0.60915 0.12667 0.72452 0.0
H3227 H 0.61277 0.11614 0.76938 0.0
H3228 H 0.62837 0.14555 0.77977 0.0
H3229 H 0.64202 0.12038 0.78628 0.0
H3230 H 0.72205 0.12651 0.74272 0.0
H3231 H 0.73591 0.16753 0.76177 0.0
H3232 H 0.66191 0.17599 0.76888 0.0
C3233 C 0.6319 0.08285 0.7349 0.0
C3234 C 0.64101 0.06167 0.72981 0.0
C3235 C 0.66585 0.06271 0.72743 0.0
C3236 C 0.68155 0.08447 0.73088 0.0
C3237 C 0.67211 0.10496 0.73673 0.0
C3238 C 0.64783 0.10435 0.73864 0.0
C3239 C 0.64261 0.12841 0.74799 0.0
C3240 C 0.62712 0.13806 0.72838 0.0
C3241 C 0.63076 0.12755 0.77229 0.0
C3242 C 0.66783 0.14245 0.75192 0.0
C3243 C 0.68454 0.12875 0.74485 0.0
C3244 C 0.70911 0.13751 0.748 0.0
C3245 C 0.7168 0.1608 0.7589 0.0
C3246 C 0.69998 0.17493 0.76683 0.0
C3247 C 0.67519 0.16566 0.76293 0.0
loop_
_geom_bond_atom_site_label_1
_geom_bond_atom_site_label_2
_geom_bond_distance
_geom_bond_site_symmetry_2
_ccdc_geom_bond_type
C0 O1 1.306 . S
C0 O3 1.160 . S
O1 C0 1.306 . S
O1 Cd2 2.228 1_655 S
Cd2 O1 2.228 1_455 S
Cd2 O6 2.273 . S
Cd2 O10 2.277 . S
O3 C0 1.160 . S
O3 Cd4 2.203 1_655 S
Cd4 O3 2.203 1_455 S
Cd4 O6 2.411 . S
Cd4 O7 2.333 . S
Cd4 O8 2.352 . S
Cd4 O12 2.277 . S
Cd4 O13 2.356 . S
C5 O10 1.209 . S
C5 O12 1.226 . S
O6 Cd2 2.273 . S
O6 Cd4 2.411 . S
O6 C9 1.320 . S
O7 Cd4 2.333 . S
O7 C9 1.214 . S
O8 Cd4 2.352 . S
O8 C11 1.258 . S
C9 O6 1.320 . S
C9 O7 1.214 . S
O10 Cd2 2.277 . S
O10 C5 1.209 . S
C11 O8 1.258 . S
C11 O13 1.282 . S
O12 Cd4 2.277 . S
O12 C5 1.226 . S
O13 Cd4 2.356 . S
O13 C11 1.282 . S
C14 O15 1.306 . S
C14 O17 1.160 . S
O15 C14 1.306 . S
O15 Cd16 2.228 1_655 S
Cd16 O15 2.228 1_455 S
Cd16 O20 2.273 . S
Cd16 O24 2.277 . S
O17 C14 1.160 . S
O17 Cd18 2.203 1_655 S
Cd18 O17 2.203 1_455 S
Cd18 O20 2.411 . S
Cd18 O21 2.333 . S
Cd18 O22 2.352 . S
Cd18 O26 2.277 . S
Cd18 O27 2.356 . S
C19 O24 1.209 . S
C19 O26 1.226 . S
O20 Cd16 2.273 . S
O20 Cd18 2.411 . S
O20 C23 1.320 . S
O21 Cd18 2.333 . S
O21 C23 1.214 . S
O22 Cd18 2.352 . S
O22 C25 1.258 . S
C23 O20 1.320 . S
C23 O21 1.214 . S
O24 Cd16 2.277 . S
O24 C19 1.209 . S
C25 O22 1.258 . S
C25 O27 1.282 . S
O26 Cd18 2.277 . S
O26 C19 1.226 . S
O27 Cd18 2.356 . S
O27 C25 1.282 . S
C28 O29 1.306 . S
C28 O31 1.160 . S
O29 C28 1.306 . S
O29 Cd30 2.228 . S
Cd30 O29 2.228 . S
Cd30 O34 2.273 . S
Cd30 O38 2.277 . S
O31 C28 1.160 . S
O31 Cd32 2.203 . S
Cd32 O31 2.203 . S
Cd32 O34 2.411 . S
Cd32 O35 2.333 . S
Cd32 O36 2.352 . S
Cd32 O40 2.277 . S
Cd32 O41 2.356 . S
C33 O38 1.209 . S
C33 O40 1.226 . S
O34 Cd30 2.273 . S
O34 Cd32 2.411 . S
O34 C37 1.320 . S
O35 Cd32 2.333 . S
O35 C37 1.214 . S
O36 Cd32 2.352 . S
O36 C39 1.258 . S
C37 O34 1.320 . S
C37 O35 1.214 . S
O38 Cd30 2.277 . S
O38 C33 1.209 . S
C39 O36 1.258 . S
C39 O41 1.282 . S
O40 Cd32 2.277 . S
O40 C33 1.226 . S
O41 Cd32 2.356 . S
O41 C39 1.282 . S
C42 O43 1.306 . S
C42 O45 1.160 . S
O43 C42 1.306 . S
O43 Cd44 2.228 . S
Cd44 O43 2.228 . S
Cd44 O48 2.273 . S
Cd44 O52 2.277 . S
O45 C42 1.160 . S
O45 Cd46 2.203 . S
Cd46 O45 2.203 . S
Cd46 O48 2.411 . S
Cd46 O49 2.333 . S
Cd46 O50 2.352 . S
Cd46 O54 2.277 . S
Cd46 O55 2.356 . S
C47 O52 1.209 . S
C47 O54 1.226 . S
O48 Cd44 2.273 . S
O48 Cd46 2.411 . S
O48 C51 1.320 . S
O49 Cd46 2.333 . S
O49 C51 1.214 . S
O50 Cd46 2.352 . S
O50 C53 1.258 . S
C51 O48 1.320 . S
C51 O49 1.214 . S
O52 Cd44 2.277 . S
O52 C47 1.209 . S
C53 O50 1.258 . S
C53 O55 1.282 . S
O54 Cd46 2.277 . S
O54 C47 1.226 . S
O55 Cd46 2.356 . S
O55 C53 1.282 . S
C56 O57 1.306 1_655 S
C56 O59 1.160 . S
O57 C56 1.306 1_455 S
O57 Cd58 2.228 . S
Cd58 O57 2.228 . S
Cd58 O62 2.273 . S
Cd58 O66 2.277 . S
O59 C56 1.160 . S
O59 Cd60 2.203 1_655 S
Cd60 O59 2.203 1_455 S
Cd60 O62 2.411 . S
Cd60 O63 2.333 . S
Cd60 O64 2.352 . S
Cd60 O68 2.277 . S
Cd60 O69 2.356 . S
C61 O66 1.209 . S
C61 O68 1.226 . S
O62 Cd58 2.273 . S
O62 Cd60 2.411 . S
O62 C65 1.320 . S
O63 Cd60 2.333 . S
O63 C65 1.214 . S
O64 Cd60 2.352 . S
O64 C67 1.258 . S
C65 O62 1.320 . S
C65 O63 1.214 . S
O66 Cd58 2.277 . S
O66 C61 1.209 . S
C67 O64 1.258 . S
C67 O69 1.282 . S
O68 Cd60 2.277 . S
O68 C61 1.226 . S
O69 Cd60 2.356 . S
O69 C67 1.282 . S
C70 O71 1.306 . S
C70 O73 1.160 . S
O71 C70 1.306 . S
O71 Cd72 2.228 . S
Cd72 O71 2.228 . S
Cd72 O76 2.273 . S
Cd72 O80 2.277 . S
O73 C70 1.160 . S
O73 Cd74 2.203 . S
Cd74 O73 2.203 . S
Cd74 O76 2.411 . S
Cd74 O77 2.333 . S
Cd74 O78 2.352 . S
Cd74 O82 2.277 . S
Cd74 O83 2.356 . S
C75 O80 1.209 . S
C75 O82 1.226 . S
O76 Cd72 2.273 . S
O76 Cd74 2.411 . S
O76 C79 1.320 . S
O77 Cd74 2.333 . S
O77 C79 1.214 . S
O78 Cd74 2.352 . S
O78 C81 1.258 . S
C79 O76 1.320 . S
C79 O77 1.214 . S
O80 Cd72 2.277 . S
O80 C75 1.209 . S
C81 O78 1.258 . S
C81 O83 1.282 . S
O82 Cd74 2.277 . S
O82 C75 1.226 . S
O83 Cd74 2.356 . S
O83 C81 1.282 . S
C84 O85 1.306 . S
C84 O87 1.160 . S
O85 C84 1.306 . S
O85 Cd86 2.228 . S
Cd86 O85 2.228 . S
Cd86 O90 2.273 . S
Cd86 O94 2.277 . S
O87 C84 1.160 . S
O87 Cd88 2.203 . S
Cd88 O87 2.203 . S
Cd88 O90 2.411 . S
Cd88 O91 2.333 . S
Cd88 O92 2.352 . S
Cd88 O96 2.277 . S
Cd88 O97 2.356 . S
C89 O94 1.209 . S
C89 O96 1.226 . S
O90 Cd86 2.273 . S
O90 Cd88 2.411 . S
O90 C93 1.320 . S
O91 Cd88 2.333 . S
O91 C93 1.214 . S
O92 Cd88 2.352 . S
O92 C95 1.258 . S
C93 O90 1.320 . S
C93 O91 1.214 . S
O94 Cd86 2.277 . S
O94 C89 1.209 . S
C95 O92 1.258 . S
C95 O97 1.282 . S
O96 Cd88 2.277 . S
O96 C89 1.226 . S
O97 Cd88 2.356 . S
O97 C95 1.282 . S
C98 O99 1.306 . S
C98 O101 1.160 . S
O99 C98 1.306 . S
O99 Cd100 2.228 1_655 S
Cd100 O99 2.228 1_455 S
Cd100 O104 2.273 . S
Cd100 O108 2.277 . S
O101 C98 1.160 . S
O101 Cd102 2.203 1_655 S
Cd102 O101 2.203 1_455 S
Cd102 O104 2.411 . S
Cd102 O105 2.333 . S
Cd102 O106 2.352 1_455 S
Cd102 O110 2.277 . S
Cd102 O111 2.356 . S
C103 O108 1.209 . S
C103 O110 1.226 . S
O104 Cd100 2.273 . S
O104 Cd102 2.411 . S
O104 C107 1.320 . S
O105 Cd102 2.333 . S
O105 C107 1.214 . S
O106 Cd102 2.352 1_655 S
O106 C109 1.261 . S
C107 O104 1.320 . S
C107 O105 1.214 . S
O108 Cd100 2.277 . S
O108 C103 1.209 . S
C109 O106 1.261 . S
C109 O111 1.281 1_655 S
O110 Cd102 2.277 . S
O110 C103 1.226 . S
O111 Cd102 2.356 . S
O111 C109 1.281 1_455 S
C112 O113 1.306 . S
C112 O115 1.160 . S
O113 C112 1.306 . S
O113 Cd114 2.228 1_545 S
Cd114 O113 2.228 1_565 S
Cd114 O118 2.273 1_565 S
Cd114 O122 2.277 . S
O115 C112 1.160 . S
O115 Cd116 2.203 . S
Cd116 O115 2.203 . S
Cd116 O118 2.411 . S
Cd116 O119 2.333 . S
Cd116 O120 2.352 . S
Cd116 O124 2.277 1_545 S
Cd116 O125 2.356 . S
C117 O122 1.209 . S
C117 O124 1.226 . S
O118 Cd114 2.273 1_545 S
O118 Cd116 2.411 . S
O118 C121 1.320 . S
O119 Cd116 2.333 . S
O119 C121 1.214 . S
O120 Cd116 2.352 . S
O120 C123 1.258 . S
C121 O118 1.320 . S
C121 O119 1.214 . S
O122 Cd114 2.277 . S
O122 C117 1.209 . S
C123 O120 1.258 . S
C123 O125 1.282 . S
O124 Cd116 2.277 1_565 S
O124 C117 1.226 . S
O125 Cd116 2.356 . S
O125 C123 1.282 . S
C126 O127 1.306 . S
C126 O129 1.160 . S
O127 C126 1.306 . S
O127 Cd128 2.228 . S
Cd128 O127 2.228 . S
Cd128 O132 2.273 . S
Cd128 O136 2.277 . S
O129 C126 1.160 . S
O129 Cd130 2.203 . S
Cd130 O129 2.203 . S
Cd130 O132 2.411 . S
Cd130 O133 2.333 . S
Cd130 O134 2.352 . S
Cd130 O138 2.277 . S
Cd130 O139 2.356 . S
C131 O136 1.209 . S
C131 O138 1.226 . S
O132 Cd128 2.273 . S
O132 Cd130 2.411 . S
O132 C135 1.320 . S
O133 Cd130 2.333 . S
O133 C135 1.214 . S
O134 Cd130 2.352 . S
O134 C137 1.258 . S
C135 O132 1.320 . S
C135 O133 1.214 . S
O136 Cd128 2.277 . S
O136 C131 1.209 . S
C137 O134 1.258 . S
C137 O139 1.282 . S
O138 Cd130 2.277 . S
O138 C131 1.226 . S
O139 Cd130 2.356 . S
O139 C137 1.282 . S
C140 O141 1.306 . S
C140 O143 1.160 . S
O141 C140 1.306 . S
O141 Cd142 2.228 . S
Cd142 O141 2.228 . S
Cd142 O146 2.273 . S
Cd142 O150 2.277 . S
O143 C140 1.160 . S
O143 Cd144 2.203 . S
Cd144 O143 2.203 . S
Cd144 O146 2.411 . S
Cd144 O147 2.333 . S
Cd144 O148 2.352 1_545 S
Cd144 O152 2.277 . S
Cd144 O153 2.356 1_545 S
C145 O150 1.209 . S
C145 O152 1.226 . S
O146 Cd142 2.273 . S
O146 Cd144 2.411 . S
O146 C149 1.320 . S
O147 Cd144 2.333 . S
O147 C149 1.214 . S
O148 Cd144 2.352 1_565 S
O148 C151 1.258 . S
C149 O146 1.320 . S
C149 O147 1.214 . S
O150 Cd142 2.277 . S
O150 C145 1.209 . S
C151 O148 1.258 . S
C151 O153 1.282 . S
O152 Cd144 2.277 . S
O152 C145 1.226 . S
O153 Cd144 2.356 1_565 S
O153 C151 1.282 . S
C154 O155 1.306 . S
C154 O157 1.160 . S
O155 C154 1.306 . S
O155 Cd156 2.228 1_554 S
Cd156 O155 2.228 1_556 S
Cd156 O160 2.273 1_556 S
Cd156 O164 2.277 . S
O157 C154 1.160 . S
O157 Cd158 2.203 . S
Cd158 O157 2.203 . S
Cd158 O160 2.411 . S
Cd158 O161 2.333 . S
Cd158 O162 2.352 . S
Cd158 O166 2.277 1_554 S
Cd158 O167 2.356 . S
C159 O164 1.209 . S
C159 O166 1.226 . S
O160 Cd156 2.273 1_554 S
O160 Cd158 2.411 . S
O160 C163 1.320 . S
O161 Cd158 2.333 . S
O161 C163 1.214 . S
O162 Cd158 2.352 . S
O162 C165 1.258 . S
C163 O160 1.320 . S
C163 O161 1.214 . S
O164 Cd156 2.277 . S
O164 C159 1.209 . S
C165 O162 1.258 . S
C165 O167 1.282 . S
O166 Cd158 2.277 1_556 S
O166 C159 1.226 . S
O167 Cd158 2.356 . S
O167 C165 1.282 . S
C168 O169 1.306 . S
C168 O171 1.160 . S
O169 C168 1.306 . S
O169 Cd170 2.228 . S
Cd170 O169 2.228 . S
Cd170 O174 2.273 . S
Cd170 O178 2.280 . S
O171 C168 1.160 . S
O171 Cd172 2.203 . S
Cd172 O171 2.203 . S
Cd172 O174 2.411 . S
Cd172 O175 2.333 . S
Cd172 O176 2.352 . S
Cd172 O180 2.277 . S
Cd172 O181 2.356 . S
C173 O178 1.208 1_556 S
C173 O180 1.226 1_556 S
O174 Cd170 2.273 . S
O174 Cd172 2.411 . S
O174 C177 1.320 . S
O175 Cd172 2.333 . S
O175 C177 1.214 . S
O176 Cd172 2.352 . S
O176 C179 1.258 . S
C177 O174 1.320 . S
C177 O175 1.214 . S
O178 Cd170 2.280 . S
O178 C173 1.208 1_554 S
C179 O176 1.258 . S
C179 O181 1.282 . S
O180 Cd172 2.277 . S
O180 C173 1.226 1_554 S
O181 Cd172 2.356 . S
O181 C179 1.282 . S
C182 O183 1.306 . S
C182 O185 1.160 . S
O183 C182 1.306 . S
O183 Cd184 2.228 . S
Cd184 O183 2.228 . S
Cd184 O188 2.273 . S
Cd184 O192 2.277 . S
O185 C182 1.160 . S
O185 Cd186 2.203 . S
Cd186 O185 2.203 . S
Cd186 O188 2.411 . S
Cd186 O189 2.333 . S
Cd186 O190 2.352 1_554 S
Cd186 O194 2.277 . S
Cd186 O195 2.356 1_554 S
C187 O192 1.209 . S
C187 O194 1.226 . S
O188 Cd184 2.273 . S
O188 Cd186 2.411 . S
O188 C191 1.320 . S
O189 Cd186 2.333 . S
O189 C191 1.214 . S
O190 Cd186 2.352 1_556 S
O190 C193 1.258 . S
C191 O188 1.320 . S
C191 O189 1.214 . S
O192 Cd184 2.277 . S
O192 C187 1.209 . S
C193 O190 1.258 . S
C193 O195 1.282 . S
O194 Cd186 2.277 . S
O194 C187 1.226 . S
O195 Cd186 2.356 1_556 S
O195 C193 1.282 . S
C196 O197 1.306 . S
C196 O199 1.160 . S
O197 C196 1.306 . S
O197 Cd198 2.228 . S
Cd198 O197 2.228 . S
Cd198 O202 2.273 . S
Cd198 O206 2.277 . S
O199 C196 1.160 . S
O199 Cd200 2.203 . S
Cd200 O199 2.203 . S
Cd200 O202 2.411 . S
Cd200 O203 2.333 . S
Cd200 O204 2.352 . S
Cd200 O208 2.277 . S
Cd200 O209 2.356 . S
C201 O206 1.209 . S
C201 O208 1.226 . S
O202 Cd198 2.273 . S
O202 Cd200 2.411 . S
O202 C205 1.320 . S
O203 Cd200 2.333 . S
O203 C205 1.214 . S
O204 Cd200 2.352 . S
O204 C207 1.258 . S
C205 O202 1.320 . S
C205 O203 1.214 . S
O206 Cd198 2.277 . S
O206 C201 1.209 . S
C207 O204 1.258 . S
C207 O209 1.282 . S
O208 Cd200 2.277 . S
O208 C201 1.226 . S
O209 Cd200 2.356 . S
O209 C207 1.282 . S
C210 O211 1.306 . S
C210 O213 1.160 . S
O211 C210 1.306 . S
O211 Cd212 2.228 . S
Cd212 O211 2.228 . S
Cd212 O216 2.273 . S
Cd212 O220 2.277 . S
O213 C210 1.160 . S
O213 Cd214 2.203 . S
Cd214 O213 2.203 . S
Cd214 O216 2.411 . S
Cd214 O217 2.333 . S
Cd214 O218 2.352 . S
Cd214 O222 2.277 . S
Cd214 O223 2.356 . S
C215 O220 1.209 . S
C215 O222 1.226 . S
O216 Cd212 2.273 . S
O216 Cd214 2.411 . S
O216 C219 1.320 . S
O217 Cd214 2.333 . S
O217 C219 1.214 . S
O218 Cd214 2.352 . S
O218 C221 1.258 . S
C219 O216 1.320 . S
C219 O217 1.214 . S
O220 Cd212 2.277 . S
O220 C215 1.209 . S
C221 O218 1.258 . S
C221 O223 1.282 . S
O222 Cd214 2.277 . S
O222 C215 1.226 . S
O223 Cd214 2.356 . S
O223 C221 1.282 . S
C224 O225 1.306 . S
C224 O227 1.160 . S
O225 C224 1.306 . S
O225 Cd226 2.228 1_545 S
Cd226 O225 2.228 1_565 S
Cd226 O230 2.273 1_565 S
Cd226 O234 2.277 . S
O227 C224 1.160 . S
O227 Cd228 2.203 . S
Cd228 O227 2.203 . S
Cd228 O230 2.411 . S
Cd228 O231 2.333 . S
Cd228 O232 2.352 . S
Cd228 O236 2.277 1_545 S
Cd228 O237 2.356 . S
C229 O234 1.209 . S
C229 O236 1.226 . S
O230 Cd226 2.273 1_545 S
O230 Cd228 2.411 . S
O230 C233 1.320 . S
O231 Cd228 2.333 . S
O231 C233 1.214 . S
O232 Cd228 2.352 . S
O232 C235 1.258 . S
C233 O230 1.320 . S
C233 O231 1.214 . S
O234 Cd226 2.277 . S
O234 C229 1.209 . S
C235 O232 1.258 . S
C235 O237 1.282 . S
O236 Cd228 2.277 1_565 S
O236 C229 1.226 . S
O237 Cd228 2.356 . S
O237 C235 1.282 . S
C238 O239 1.306 . S
C238 O241 1.160 . S
O239 C238 1.306 . S
O239 Cd240 2.228 . S
Cd240 O239 2.228 . S
Cd240 O244 2.273 . S
Cd240 O248 2.277 . S
O241 C238 1.160 . S
O241 Cd242 2.203 . S
Cd242 O241 2.203 . S
Cd242 O244 2.411 . S
Cd242 O245 2.333 . S
Cd242 O246 2.352 . S
Cd242 O250 2.277 . S
Cd242 O251 2.356 . S
C243 O248 1.209 . S
C243 O250 1.226 . S
O244 Cd240 2.273 . S
O244 Cd242 2.411 . S
O244 C247 1.320 . S
O245 Cd242 2.333 . S
O245 C247 1.214 . S
O246 Cd242 2.352 . S
O246 C249 1.258 . S
C247 O244 1.320 . S
C247 O245 1.214 . S
O248 Cd240 2.277 . S
O248 C243 1.209 . S
C249 O246 1.258 . S
C249 O251 1.282 . S
O250 Cd242 2.277 . S
O250 C243 1.226 . S
O251 Cd242 2.356 . S
O251 C249 1.282 . S
C252 O253 1.306 . S
C252 O255 1.160 . S
O253 C252 1.306 . S
O253 Cd254 2.228 . S
Cd254 O253 2.228 . S
Cd254 O258 2.273 . S
Cd254 O262 2.277 . S
O255 C252 1.160 . S
O255 Cd256 2.203 . S
Cd256 O255 2.203 . S
Cd256 O258 2.411 . S
Cd256 O259 2.333 . S
Cd256 O260 2.352 . S
Cd256 O264 2.277 . S
Cd256 O265 2.356 . S
C257 O262 1.209 . S
C257 O264 1.226 . S
O258 Cd254 2.273 . S
O258 Cd256 2.411 . S
O258 C261 1.320 . S
O259 Cd256 2.333 . S
O259 C261 1.214 . S
O260 Cd256 2.352 . S
O260 C263 1.258 . S
C261 O258 1.320 . S
C261 O259 1.214 . S
O262 Cd254 2.277 . S
O262 C257 1.209 . S
C263 O260 1.258 . S
C263 O265 1.282 . S
O264 Cd256 2.277 . S
O264 C257 1.226 . S
O265 Cd256 2.356 . S
O265 C263 1.282 . S
C266 O267 1.306 . S
C266 O269 1.149 1_545 S
O267 C266 1.306 . S
O267 Cd268 2.228 . S
Cd268 O267 2.228 . S
Cd268 O272 2.273 1_545 S
Cd268 O276 2.277 . S
O269 C266 1.149 1_565 S
O269 Cd270 2.204 . S
Cd270 O269 2.204 . S
Cd270 O272 2.411 . S
Cd270 O273 2.333 . S
Cd270 O274 2.352 . S
Cd270 O278 2.277 1_565 S
Cd270 O279 2.356 . S
C271 O276 1.209 . S
C271 O278 1.226 . S
O272 Cd268 2.273 1_565 S
O272 Cd270 2.411 . S
O272 C275 1.320 . S
O273 Cd270 2.333 . S
O273 C275 1.214 . S
O274 Cd270 2.352 . S
O274 C277 1.258 . S
C275 O272 1.320 . S
C275 O273 1.214 . S
O276 Cd268 2.277 . S
O276 C271 1.209 . S
C277 O274 1.258 . S
C277 O279 1.282 . S
O278 Cd270 2.277 1_545 S
O278 C271 1.226 . S
O279 Cd270 2.356 . S
O279 C277 1.282 . S
C280 O281 1.306 . S
C280 O283 1.146 1_554 S
O281 C280 1.306 . S
O281 Cd282 2.228 . S
Cd282 O281 2.228 . S
Cd282 O286 2.273 1_554 S
Cd282 O290 2.277 . S
O283 C280 1.146 1_556 S
O283 Cd284 2.204 . S
Cd284 O283 2.204 . S
Cd284 O286 2.411 . S
Cd284 O287 2.333 . S
Cd284 O288 2.352 . S
Cd284 O292 2.277 1_556 S
Cd284 O293 2.356 . S
C285 O290 1.209 . S
C285 O292 1.226 . S
O286 Cd282 2.273 1_556 S
O286 Cd284 2.411 . S
O286 C289 1.320 . S
O287 Cd284 2.333 . S
O287 C289 1.214 . S
O288 Cd284 2.352 . S
O288 C291 1.258 . S
C289 O286 1.320 . S
C289 O287 1.214 . S
O290 Cd282 2.277 . S
O290 C285 1.209 . S
C291 O288 1.258 . S
C291 O293 1.282 . S
O292 Cd284 2.277 1_554 S
O292 C285 1.226 . S
O293 Cd284 2.356 . S
O293 C291 1.282 . S
C294 O295 1.306 . S
C294 O297 1.160 . S
O295 C294 1.306 . S
O295 Cd296 2.228 . S
Cd296 O295 2.228 . S
Cd296 O300 2.273 . S
Cd296 O304 2.277 . S
O297 C294 1.160 . S
O297 Cd298 2.203 . S
Cd298 O297 2.203 . S
Cd298 O300 2.411 . S
Cd298 O301 2.333 . S
Cd298 O302 2.352 . S
Cd298 O306 2.277 . S
Cd298 O307 2.356 . S
C299 O304 1.209 . S
C299 O306 1.226 . S
O300 Cd296 2.273 . S
O300 Cd298 2.411 . S
O300 C303 1.320 . S
O301 Cd298 2.333 . S
O301 C303 1.214 . S
O302 Cd298 2.352 . S
O302 C305 1.258 . S
C303 O300 1.320 . S
C303 O301 1.214 . S
O304 Cd296 2.277 . S
O304 C299 1.209 . S
C305 O302 1.258 . S
C305 O307 1.282 . S
O306 Cd298 2.277 . S
O306 C299 1.226 . S
O307 Cd298 2.356 . S
O307 C305 1.282 . S
C308 O309 1.306 . S
C308 O311 1.160 . S
O309 C308 1.306 . S
O309 Cd310 2.228 . S
Cd310 O309 2.228 . S
Cd310 O314 2.273 . S
Cd310 O318 2.277 . S
O311 C308 1.160 . S
O311 Cd312 2.203 . S
Cd312 O311 2.203 . S
Cd312 O314 2.411 . S
Cd312 O315 2.333 . S
Cd312 O316 2.352 . S
Cd312 O320 2.277 . S
Cd312 O321 2.356 . S
C313 O318 1.209 . S
C313 O320 1.226 . S
O314 Cd310 2.273 . S
O314 Cd312 2.411 . S
O314 C317 1.320 . S
O315 Cd312 2.333 . S
O315 C317 1.214 . S
O316 Cd312 2.352 . S
O316 C319 1.258 . S
C317 O314 1.320 . S
C317 O315 1.214 . S
O318 Cd310 2.277 . S
O318 C313 1.209 . S
C319 O316 1.258 . S
C319 O321 1.282 . S
O320 Cd312 2.277 . S
O320 C313 1.226 . S
O321 Cd312 2.356 . S
O321 C319 1.282 . S
C322 O323 1.306 . S
C322 O325 1.160 . S
O323 C322 1.306 . S
O323 Cd324 2.228 . S
Cd324 O323 2.228 . S
Cd324 O328 2.273 . S
Cd324 O332 2.277 . S
O325 C322 1.160 . S
O325 Cd326 2.203 . S
Cd326 O325 2.203 . S
Cd326 O328 2.411 . S
Cd326 O329 2.333 . S
Cd326 O330 2.352 . S
Cd326 O334 2.277 . S
Cd326 O335 2.356 . S
C327 O332 1.209 . S
C327 O334 1.226 . S
O328 Cd324 2.273 . S
O328 Cd326 2.411 . S
O328 C331 1.320 . S
O329 Cd326 2.333 . S
O329 C331 1.214 . S
O330 Cd326 2.352 . S
O330 C333 1.258 . S
C331 O328 1.320 . S
C331 O329 1.214 . S
O332 Cd324 2.277 . S
O332 C327 1.209 . S
C333 O330 1.258 . S
C333 O335 1.282 . S
O334 Cd326 2.277 . S
O334 C327 1.226 . S
O335 Cd326 2.356 . S
O335 C333 1.282 . S
Zn336 O342 1.969 . S
Zn336 O343 1.965 1_565 S
Zn336 O347 2.024 . S
Zn336 O352 1.969 1_565 S
Zn337 O344 1.969 1_654 S
Zn337 O350 1.969 1_554 S
Zn337 O351 1.965 . S
Zn337 O353 2.024 1_655 S
C338 O339 1.229 . S
C338 O347 1.058 . S
O339 C338 1.229 . S
C340 O341 1.229 1_454 S
C340 O353 1.058 . S
O341 C340 1.229 1_656 S
O342 Zn336 1.969 . S
O342 C345 1.267 . S
O343 Zn336 1.965 1_545 S
O343 C354 1.260 1_554 S
O344 Zn337 1.969 1_456 S
O344 C354 1.258 . S
C345 O342 1.267 . S
C345 O346 1.228 . S
O346 C345 1.228 . S
O347 Zn336 2.024 . S
O347 C338 1.058 . S
C348 O349 1.228 . S
C348 O350 1.267 1_554 S
O349 C348 1.228 . S
O350 Zn337 1.969 1_556 S
O350 C348 1.267 1_556 S
O351 Zn337 1.965 . S
O351 C355 1.260 1_655 S
O352 Zn336 1.969 1_545 S
O352 C355 1.258 . S
O353 Zn337 2.024 1_455 S
O353 C340 1.058 . S
C354 O343 1.260 1_556 S
C354 O344 1.258 . S
C355 O351 1.260 1_455 S
C355 O352 1.258 . S
Zn356 O362 1.969 . S
Zn356 O363 1.965 . S
Zn356 O367 2.024 . S
Zn356 O372 1.969 . S
Zn357 O364 1.969 . S
Zn357 O370 1.969 . S
Zn357 O371 1.965 . S
Zn357 O373 2.024 . S
C358 O359 1.229 . S
C358 O367 1.058 . S
O359 C358 1.229 . S
C360 O361 1.229 . S
C360 O373 1.058 . S
O361 C360 1.229 . S
O362 Zn356 1.969 . S
O362 C365 1.267 . S
O363 Zn356 1.965 . S
O363 C374 1.260 . S
O364 Zn357 1.969 . S
O364 C374 1.258 . S
C365 O362 1.267 . S
C365 O366 1.228 . S
O366 C365 1.228 . S
O367 Zn356 2.024 . S
O367 C358 1.058 . S
C368 O369 1.228 . S
C368 O370 1.267 . S
O369 C368 1.228 . S
O370 Zn357 1.969 . S
O370 C368 1.267 . S
O371 Zn357 1.965 . S
O371 C375 1.260 . S
O372 Zn356 1.969 . S
O372 C375 1.258 . S
O373 Zn357 2.024 . S
O373 C360 1.058 . S
C374 O363 1.260 . S
C374 O364 1.258 . S
C375 O371 1.260 . S
C375 O372 1.258 . S
Zn376 O382 1.969 . S
Zn376 O383 1.965 . S
Zn376 O387 2.024 . S
Zn376 O392 1.969 . S
Zn377 O384 1.969 . S
Zn377 O390 1.969 . S
Zn377 O391 1.965 1_565 S
Zn377 O393 2.024 . S
C378 O379 1.229 . S
C378 O387 1.058 . S
O379 C378 1.229 . S
C380 O381 1.229 . S
C380 O393 1.058 . S
O381 C380 1.229 . S
O382 Zn376 1.969 . S
O382 C385 1.267 . S
O383 Zn376 1.965 . S
O383 C394 1.260 . S
O384 Zn377 1.969 . S
O384 C394 1.258 1_565 S
C385 O382 1.267 . S
C385 O386 1.228 . S
O386 C385 1.228 . S
O387 Zn376 2.024 . S
O387 C378 1.058 . S
C388 O389 1.228 . S
C388 O390 1.267 . S
O389 C388 1.228 . S
O390 Zn377 1.969 . S
O390 C388 1.267 . S
O391 Zn377 1.965 1_545 S
O391 C395 1.260 . S
O392 Zn376 1.969 . S
O392 C395 1.258 . S
O393 Zn377 2.024 . S
O393 C380 1.058 . S
C394 O383 1.260 . S
C394 O384 1.258 1_545 S
C395 O391 1.260 . S
C395 O392 1.258 . S
Zn396 O402 1.969 . S
Zn396 O403 1.965 . S
Zn396 O407 2.024 . S
Zn396 O412 1.969 . S
Zn397 O404 1.969 . S
Zn397 O410 1.969 . S
Zn397 O411 1.965 . S
Zn397 O413 2.024 . S
C398 O399 1.229 . S
C398 O407 1.058 . S
O399 C398 1.229 . S
C400 O401 1.229 . S
C400 O413 1.058 . S
O401 C400 1.229 . S
O402 Zn396 1.969 . S
O402 C405 1.267 . S
O403 Zn396 1.965 . S
O403 C414 1.260 . S
O404 Zn397 1.969 . S
O404 C414 1.258 . S
C405 O402 1.267 . S
C405 O406 1.228 . S
O406 C405 1.228 . S
O407 Zn396 2.024 . S
O407 C398 1.058 . S
C408 O409 1.228 . S
C408 O410 1.267 . S
O409 C408 1.228 . S
O410 Zn397 1.969 . S
O410 C408 1.267 . S
O411 Zn397 1.965 . S
O411 C415 1.260 . S
O412 Zn396 1.969 . S
O412 C415 1.258 . S
O413 Zn397 2.024 . S
O413 C400 1.058 . S
C414 O403 1.260 . S
C414 O404 1.258 . S
C415 O411 1.260 . S
C415 O412 1.258 . S
Zn416 O422 1.969 . S
Zn416 O423 1.948 1_455 S
Zn416 O427 2.024 1_565 S
Zn416 O432 1.969 1_565 S
Zn417 O424 1.969 1_455 S
Zn417 O430 1.969 1_455 S
Zn417 O431 1.965 . S
Zn417 O433 2.024 . S
C418 O419 1.229 1_545 S
C418 O427 1.058 . S
O419 C418 1.229 1_565 S
C420 O421 1.229 . S
C420 O433 1.058 1_655 S
O421 C420 1.229 . S
O422 Zn416 1.969 . S
O422 C425 1.267 . S
O423 Zn416 1.948 1_655 S
O423 C434 1.278 . S
O424 Zn417 1.969 1_655 S
O424 C434 1.258 1_545 S
C425 O422 1.267 . S
C425 O426 1.228 . S
O426 C425 1.228 . S
O427 Zn416 2.024 1_545 S
O427 C418 1.058 . S
C428 O429 1.228 . S
C428 O430 1.267 1_455 S
O429 C428 1.228 . S
O430 Zn417 1.969 1_655 S
O430 C428 1.267 1_655 S
O431 Zn417 1.965 . S
O431 C435 1.260 . S
O432 Zn416 1.969 1_545 S
O432 C435 1.258 . S
O433 Zn417 2.024 . S
O433 C420 1.058 1_455 S
C434 O423 1.278 . S
C434 O424 1.258 1_565 S
C435 O431 1.260 . S
C435 O432 1.258 . S
Zn436 O442 1.969 . S
Zn436 O443 1.965 . S
Zn436 O447 2.024 . S
Zn436 O452 1.969 . S
Zn437 O444 1.969 . S
Zn437 O450 1.969 . S
Zn437 O451 1.965 . S
Zn437 O453 2.024 . S
C438 O439 1.229 . S
C438 O447 1.058 . S
O439 C438 1.229 . S
C440 O441 1.229 . S
C440 O453 1.058 . S
O441 C440 1.229 . S
O442 Zn436 1.969 . S
O442 C445 1.267 . S
O443 Zn436 1.965 . S
O443 C454 1.260 . S
O444 Zn437 1.969 . S
O444 C454 1.258 . S
C445 O442 1.267 . S
C445 O446 1.228 . S
O446 C445 1.228 . S
O447 Zn436 2.024 . S
O447 C438 1.058 . S
C448 O449 1.228 . S
C448 O450 1.267 . S
O449 C448 1.228 . S
O450 Zn437 1.969 . S
O450 C448 1.267 . S
O451 Zn437 1.965 . S
O451 C455 1.260 . S
O452 Zn436 1.969 . S
O452 C455 1.258 . S
O453 Zn437 2.024 . S
O453 C440 1.058 . S
C454 O443 1.260 . S
C454 O444 1.258 . S
C455 O451 1.260 . S
C455 O452 1.258 . S
Zn456 O462 2.011 . S
Zn456 O463 1.963 1_545 S
Zn456 O467 2.002 1_556 S
Zn456 O472 1.949 1_556 S
Zn457 O464 2.005 . S
Zn457 O470 1.987 . S
Zn457 O471 1.929 1_565 S
Zn457 O473 2.012 1_565 S
C458 O459 1.229 . S
C458 O467 1.058 . S
O459 C458 1.229 . S
C460 O461 1.229 . S
C460 O473 1.058 1_565 S
O461 C460 1.229 . S
O462 Zn456 2.011 . S
O462 C465 1.267 . S
O463 Zn456 1.963 1_565 S
O463 C474 1.239 1_556 S
O464 Zn457 2.005 . S
O464 C474 1.258 . S
C465 O462 1.267 . S
C465 O466 1.228 . S
O466 C465 1.228 . S
O467 Zn456 2.002 1_554 S
O467 C458 1.058 . S
C468 O469 1.228 . S
C468 O470 1.267 1_545 S
O469 C468 1.228 . S
O470 Zn457 1.987 . S
O470 C468 1.267 1_565 S
O471 Zn457 1.929 1_545 S
O471 C475 1.260 . S
O472 Zn456 1.949 1_554 S
O472 C475 1.258 . S
O473 Zn457 2.012 1_545 S
O473 C460 1.058 1_545 S
C474 O463 1.239 1_554 S
C474 O464 1.258 . S
C475 O471 1.260 . S
C475 O472 1.258 . S
Zn476 O482 1.969 . S
Zn476 O483 1.965 . S
Zn476 O487 2.024 . S
Zn476 O492 1.969 . S
Zn477 O484 1.969 . S
Zn477 O490 1.969 . S
Zn477 O491 1.965 . S
Zn477 O493 2.024 . S
C478 O479 1.229 . S
C478 O487 1.058 . S
O479 C478 1.229 . S
C480 O481 1.229 . S
C480 O493 1.058 . S
O481 C480 1.229 . S
O482 Zn476 1.969 . S
O482 C485 1.267 . S
O483 Zn476 1.965 . S
O483 C494 1.260 . S
O484 Zn477 1.969 . S
O484 C494 1.258 . S
C485 O482 1.267 . S
C485 O486 1.228 . S
O486 C485 1.228 . S
O487 Zn476 2.024 . S
O487 C478 1.058 . S
C488 O489 1.228 . S
C488 O490 1.267 . S
O489 C488 1.228 . S
O490 Zn477 1.969 . S
O490 C488 1.267 . S
O491 Zn477 1.965 . S
O491 C495 1.260 . S
O492 Zn476 1.969 . S
O492 C495 1.258 . S
O493 Zn477 2.024 . S
O493 C480 1.058 . S
C494 O483 1.260 . S
C494 O484 1.258 . S
C495 O491 1.260 . S
C495 O492 1.258 . S
Zn496 O502 1.969 . S
Zn496 O503 1.965 . S
Zn496 O507 2.024 . S
Zn496 O512 1.969 . S
Zn497 O504 1.969 1_556 S
Zn497 O510 1.969 1_556 S
Zn497 O511 1.965 1_556 S
Zn497 O513 2.024 . S
C498 O499 1.229 . S
C498 O507 1.058 . S
O499 C498 1.229 . S
C500 O501 1.229 . S
C500 O513 1.058 . S
O501 C500 1.229 . S
O502 Zn496 1.969 . S
O502 C505 1.267 . S
O503 Zn496 1.965 . S
O503 C514 1.260 . S
O504 Zn497 1.969 1_554 S
O504 C514 1.258 . S
C505 O502 1.267 . S
C505 O506 1.228 . S
O506 C505 1.228 . S
O507 Zn496 2.024 . S
O507 C498 1.058 . S
C508 O509 1.228 . S
C508 O510 1.267 1_556 S
O509 C508 1.228 . S
O510 Zn497 1.969 1_554 S
O510 C508 1.267 1_554 S
O511 Zn497 1.965 1_554 S
O511 C515 1.260 . S
O512 Zn496 1.969 . S
O512 C515 1.258 . S
O513 Zn497 2.024 . S
O513 C500 1.058 . S
C514 O503 1.260 . S
C514 O504 1.258 . S
C515 O511 1.260 . S
C515 O512 1.258 . S
Zn516 O522 1.969 . S
Zn516 O523 1.965 . S
Zn516 O527 2.024 . S
Zn516 O532 1.969 . S
Zn517 O524 1.969 . S
Zn517 O530 1.969 . S
Zn517 O531 1.965 . S
Zn517 O533 2.024 . S
C518 O519 1.229 . S
C518 O527 1.058 . S
O519 C518 1.229 . S
C520 O521 1.229 . S
C520 O533 1.058 . S
O521 C520 1.229 . S
O522 Zn516 1.969 . S
O522 C525 1.267 . S
O523 Zn516 1.965 . S
O523 C534 1.260 . S
O524 Zn517 1.969 . S
O524 C534 1.258 . S
C525 O522 1.267 . S
C525 O526 1.228 . S
O526 C525 1.228 . S
O527 Zn516 2.024 . S
O527 C518 1.058 . S
C528 O529 1.228 . S
C528 O530 1.267 . S
O529 C528 1.228 . S
O530 Zn517 1.969 . S
O530 C528 1.267 . S
O531 Zn517 1.965 . S
O531 C535 1.260 . S
O532 Zn516 1.969 . S
O532 C535 1.258 . S
O533 Zn517 2.024 . S
O533 C520 1.058 . S
C534 O523 1.260 . S
C534 O524 1.258 . S
C535 O531 1.260 . S
C535 O532 1.258 . S
Zn536 O542 1.969 . S
Zn536 O543 1.965 . S
Zn536 O547 2.024 . S
Zn536 O552 1.969 . S
Zn537 O544 1.969 1_655 S
Zn537 O550 1.969 . S
Zn537 O551 1.965 1_655 S
Zn537 O553 2.024 . S
C538 O539 1.229 . S
C538 O547 1.058 . S
O539 C538 1.229 . S
C540 O541 1.229 . S
C540 O553 1.058 . S
O541 C540 1.229 . S
O542 Zn536 1.969 . S
O542 C545 1.267 . S
O543 Zn536 1.965 . S
O543 C554 1.260 . S
O544 Zn537 1.969 1_455 S
O544 C554 1.258 . S
C545 O542 1.267 . S
C545 O546 1.228 . S
O546 C545 1.228 . S
O547 Zn536 2.024 . S
O547 C538 1.058 . S
C548 O549 1.228 . S
C548 O550 1.267 . S
O549 C548 1.228 . S
O550 Zn537 1.969 . S
O550 C548 1.267 . S
O551 Zn537 1.965 1_455 S
O551 C555 1.260 . S
O552 Zn536 1.969 . S
O552 C555 1.258 . S
O553 Zn537 2.024 . S
O553 C540 1.058 . S
C554 O543 1.260 . S
C554 O544 1.258 . S
C555 O551 1.260 . S
C555 O552 1.258 . S
Zn556 O562 1.969 . S
Zn556 O563 1.965 . S
Zn556 O567 2.024 . S
Zn556 O572 1.969 . S
Zn557 O564 1.969 . S
Zn557 O570 1.969 . S
Zn557 O571 1.965 . S
Zn557 O573 2.024 . S
C558 O559 1.229 . S
C558 O567 1.058 . S
O559 C558 1.229 . S
C560 O561 1.229 . S
C560 O573 1.058 . S
O561 C560 1.229 . S
O562 Zn556 1.969 . S
O562 C565 1.267 . S
O563 Zn556 1.965 . S
O563 C574 1.260 . S
O564 Zn557 1.969 . S
O564 C574 1.258 . S
C565 O562 1.267 . S
C565 O566 1.228 . S
O566 C565 1.228 . S
O567 Zn556 2.024 . S
O567 C558 1.058 . S
C568 O569 1.228 . S
C568 O570 1.267 . S
O569 C568 1.228 . S
O570 Zn557 1.969 . S
O570 C568 1.267 . S
O571 Zn557 1.965 . S
O571 C575 1.260 . S
O572 Zn556 1.969 . S
O572 C575 1.258 . S
O573 Zn557 2.024 . S
O573 C560 1.058 . S
C574 O563 1.260 . S
C574 O564 1.258 . S
C575 O571 1.260 . S
C575 O572 1.258 . S
Zn576 O582 1.969 . S
Zn576 O583 1.965 . S
Zn576 O587 2.024 . S
Zn576 O592 1.969 . S
Zn577 O584 1.969 . S
Zn577 O590 1.969 . S
Zn577 O591 1.965 . S
Zn577 O593 2.024 . S
C578 O579 1.229 . S
C578 O587 1.058 . S
O579 C578 1.229 . S
C580 O581 1.229 . S
C580 O593 1.058 . S
O581 C580 1.229 . S
O582 Zn576 1.969 . S
O582 C585 1.267 . S
O583 Zn576 1.965 . S
O583 C594 1.260 . S
O584 Zn577 1.969 . S
O584 C594 1.258 . S
C585 O582 1.267 . S
C585 O586 1.228 . S
O586 C585 1.228 . S
O587 Zn576 2.024 . S
O587 C578 1.058 . S
C588 O589 1.228 . S
C588 O590 1.267 . S
O589 C588 1.228 . S
O590 Zn577 1.969 . S
O590 C588 1.267 . S
O591 Zn577 1.965 . S
O591 C595 1.260 . S
O592 Zn576 1.969 . S
O592 C595 1.258 . S
O593 Zn577 2.024 . S
O593 C580 1.058 . S
C594 O583 1.260 . S
C594 O584 1.258 . S
C595 O591 1.260 . S
C595 O592 1.258 . S
Zn596 O602 1.969 . S
Zn596 O603 1.965 . S
Zn596 O607 2.024 . S
Zn596 O612 1.969 . S
Zn597 O604 1.969 . S
Zn597 O610 1.969 . S
Zn597 O611 1.965 . S
Zn597 O613 2.024 . S
C598 O599 1.229 . S
C598 O607 1.058 . S
O599 C598 1.229 . S
C600 O601 1.229 . S
C600 O613 1.058 . S
O601 C600 1.229 . S
O602 Zn596 1.969 . S
O602 C605 1.267 . S
O603 Zn596 1.965 . S
O603 C614 1.260 . S
O604 Zn597 1.969 . S
O604 C614 1.258 . S
C605 O602 1.267 . S
C605 O606 1.228 . S
O606 C605 1.228 . S
O607 Zn596 2.024 . S
O607 C598 1.058 . S
C608 O609 1.228 . S
C608 O610 1.267 . S
O609 C608 1.228 . S
O610 Zn597 1.969 . S
O610 C608 1.267 . S
O611 Zn597 1.965 . S
O611 C615 1.260 . S
O612 Zn596 1.969 . S
O612 C615 1.258 . S
O613 Zn597 2.024 . S
O613 C600 1.058 . S
C614 O603 1.260 . S
C614 O604 1.258 . S
C615 O611 1.260 . S
C615 O612 1.258 . S
Zn616 O622 1.969 . S
Zn616 O623 1.965 . S
Zn616 O627 2.024 . S
Zn616 O632 1.969 . S
Zn617 O624 1.969 . S
Zn617 O630 1.969 . S
Zn617 O631 1.965 . S
Zn617 O633 2.024 . S
C618 O619 1.229 . S
C618 O627 1.058 . S
O619 C618 1.229 . S
C620 O621 1.229 . S
C620 O633 1.058 . S
O621 C620 1.229 . S
O622 Zn616 1.969 . S
O622 C625 1.267 . S
O623 Zn616 1.965 . S
O623 C634 1.260 . S
O624 Zn617 1.969 . S
O624 C634 1.258 . S
C625 O622 1.267 . S
C625 O626 1.228 . S
O626 C625 1.228 . S
O627 Zn616 2.024 . S
O627 C618 1.058 . S
C628 O629 1.228 . S
C628 O630 1.267 . S
O629 C628 1.228 . S
O630 Zn617 1.969 . S
O630 C628 1.267 . S
O631 Zn617 1.965 . S
O631 C635 1.260 . S
O632 Zn616 1.969 . S
O632 C635 1.258 . S
O633 Zn617 2.024 . S
O633 C620 1.058 . S
C634 O623 1.260 . S
C634 O624 1.258 . S
C635 O631 1.260 . S
C635 O632 1.258 . S
Zn636 O642 1.969 . S
Zn636 O643 1.965 . S
Zn636 O647 2.024 1_655 S
Zn636 O652 1.969 1_655 S
Zn637 O644 1.969 1_554 S
Zn637 O650 1.969 . S
Zn637 O651 1.965 . S
Zn637 O653 2.024 . S
C638 O639 1.229 . S
C638 O647 1.058 . S
O639 C638 1.229 . S
C640 O641 1.205 1_554 S
C640 O653 1.081 . S
O641 C640 1.205 1_556 S
O642 Zn636 1.969 . S
O642 C645 1.267 . S
O643 Zn636 1.965 . S
O643 C654 1.260 1_654 S
O644 Zn637 1.969 1_556 S
O644 C654 1.258 . S
C645 O642 1.267 . S
C645 O646 1.228 . S
O646 C645 1.228 . S
O647 Zn636 2.024 1_455 S
O647 C638 1.058 . S
C648 O649 1.228 . S
C648 O650 1.267 . S
O649 C648 1.228 . S
O650 Zn637 1.969 . S
O650 C648 1.267 . S
O651 Zn637 1.965 . S
O651 C655 1.260 . S
O652 Zn636 1.969 1_455 S
O652 C655 1.258 . S
O653 Zn637 2.024 . S
O653 C640 1.081 . S
C654 O643 1.260 1_456 S
C654 O644 1.258 . S
C655 O651 1.260 . S
C655 O652 1.258 . S
H656 C668 0.930 . S
H657 C670 0.930 . S
H658 C671 0.930 . S
H659 C675 0.959 1_455 S
H660 C675 0.959 . S
H661 C675 0.961 . S
H662 C676 0.960 . S
H663 C676 0.963 . S
H664 C676 0.959 . S
H665 C679 0.929 . S
H666 C680 0.931 . S
H667 C682 0.919 1_655 S
C668 H656 0.930 . S
C668 C669 1.396 1_655 S
C668 C673 1.399 . S
C669 C668 1.396 1_455 S
C669 C670 1.383 . S
C670 H657 0.930 . S
C670 C669 1.383 . S
C670 C671 1.388 . S
C671 H658 0.930 . S
C671 C670 1.388 . S
C671 C672 1.390 . S
C672 C671 1.390 . S
C672 C673 1.394 1_455 S
C672 C678 1.465 . S
C673 C668 1.399 . S
C673 C672 1.394 1_655 S
C673 C674 1.516 . S
C674 C673 1.516 . S
C674 C675 1.502 1_556 S
C674 C676 1.561 . S
C674 C677 1.526 1_655 S
C675 H659 0.959 1_655 S
C675 H660 0.959 . S
C675 H661 0.961 . S
C675 C674 1.502 1_554 S
C676 H662 0.960 . S
C676 H663 0.963 . S
C676 H664 0.959 . S
C676 C674 1.561 . S
C677 C674 1.526 1_455 S
C677 C678 1.396 . S
C677 C682 1.390 1_556 S
C678 C672 1.465 . S
C678 C677 1.396 . S
C678 C679 1.399 . S
C679 H665 0.929 . S
C679 C678 1.399 . S
C679 C680 1.385 . S
C680 H666 0.931 . S
C680 C679 1.385 . S
C680 C681 1.389 1_556 S
C681 C680 1.389 1_554 S
C681 C682 1.387 . S
C682 H667 0.919 1_455 S
C682 C677 1.390 1_554 S
C682 C681 1.387 . S
H683 C695 0.930 . S
H684 C697 0.930 . S
H685 C698 0.930 . S
H686 C702 0.959 . S
H687 C702 0.959 . S
H688 C702 0.961 . S
H689 C703 0.960 . S
H690 C703 0.961 . S
H691 C703 0.959 . S
H692 C706 0.929 . S
H693 C707 0.931 . S
H694 C709 0.930 . S
C695 H683 0.930 . S
C695 C696 1.399 . S
C695 C700 1.399 . S
C696 C695 1.399 . S
C696 C697 1.376 . S
C697 H684 0.930 . S
C697 C696 1.376 . S
C697 C698 1.388 . S
C698 H685 0.930 . S
C698 C697 1.388 . S
C698 C699 1.390 . S
C699 C698 1.390 . S
C699 C700 1.394 . S
C699 C705 1.465 . S
C700 C695 1.399 . S
C700 C699 1.394 . S
C700 C701 1.516 . S
C701 C700 1.516 . S
C701 C702 1.502 . S
C701 C703 1.561 . S
C701 C704 1.526 . S
C702 H686 0.959 . S
C702 H687 0.959 . S
C702 H688 0.961 . S
C702 C701 1.502 . S
C703 H689 0.960 . S
C703 H690 0.961 . S
C703 H691 0.959 . S
C703 C701 1.561 . S
C704 C701 1.526 . S
C704 C705 1.396 . S
C704 C709 1.390 . S
C705 C699 1.465 . S
C705 C704 1.396 . S
C705 C706 1.399 . S
C706 H692 0.929 . S
C706 C705 1.399 . S
C706 C707 1.385 . S
C707 H693 0.931 . S
C707 C706 1.385 . S
C707 C708 1.389 . S
C708 C707 1.389 . S
C708 C709 1.387 . S
C709 H694 0.930 . S
C709 C704 1.390 . S
C709 C708 1.387 . S
H710 C722 0.930 . S
H711 C724 0.930 . S
H712 C725 0.930 . S
H713 C729 0.959 . S
H714 C729 0.959 . S
H715 C729 0.961 . S
H716 C730 0.960 . S
H717 C730 0.961 . S
H718 C730 0.959 . S
H719 C733 0.929 . S
H720 C734 0.931 . S
H721 C736 0.930 . S
C722 H710 0.930 . S
C722 C723 1.399 . S
C722 C727 1.399 . S
C723 C722 1.399 . S
C723 C724 1.376 . S
C724 H711 0.930 . S
C724 C723 1.376 . S
C724 C725 1.388 . S
C725 H712 0.930 . S
C725 C724 1.388 . S
C725 C726 1.390 . S
C726 C725 1.390 . S
C726 C727 1.394 . S
C726 C732 1.465 . S
C727 C722 1.399 . S
C727 C726 1.394 . S
C727 C728 1.516 . S
C728 C727 1.516 . S
C728 C729 1.502 . S
C728 C730 1.561 . S
C728 C731 1.526 . S
C729 H713 0.959 . S
C729 H714 0.959 . S
C729 H715 0.961 . S
C729 C728 1.502 . S
C730 H716 0.960 . S
C730 H717 0.961 . S
C730 H718 0.959 . S
C730 C728 1.561 . S
C731 C728 1.526 . S
C731 C732 1.396 . S
C731 C736 1.390 . S
C732 C726 1.465 . S
C732 C731 1.396 . S
C732 C733 1.399 . S
C733 H719 0.929 . S
C733 C732 1.399 . S
C733 C734 1.385 . S
C734 H720 0.931 . S
C734 C733 1.385 . S
C734 C735 1.389 . S
C735 C734 1.389 . S
C735 C736 1.387 . S
C736 H721 0.930 . S
C736 C731 1.390 . S
C736 C735 1.387 . S
H737 C749 0.930 . S
H738 C751 0.930 . S
H739 C752 0.930 . S
H740 C756 0.959 . S
H741 C756 0.959 . S
H742 C756 0.961 . S
H743 C757 0.960 . S
H744 C757 0.961 . S
H745 C757 0.959 . S
H746 C760 0.929 . S
H747 C761 0.931 . S
H748 C763 0.930 . S
C749 H737 0.930 . S
C749 C750 1.399 . S
C749 C754 1.399 . S
C750 C749 1.399 . S
C750 C751 1.376 . S
C751 H738 0.930 . S
C751 C750 1.376 . S
C751 C752 1.388 . S
C752 H739 0.930 . S
C752 C751 1.388 . S
C752 C753 1.390 . S
C753 C752 1.390 . S
C753 C754 1.394 . S
C753 C759 1.465 . S
C754 C749 1.399 . S
C754 C753 1.394 . S
C754 C755 1.516 . S
C755 C754 1.516 . S
C755 C756 1.502 . S
C755 C757 1.561 . S
C755 C758 1.526 . S
C756 H740 0.959 . S
C756 H741 0.959 . S
C756 H742 0.961 . S
C756 C755 1.502 . S
C757 H743 0.960 . S
C757 H744 0.961 . S
C757 H745 0.959 . S
C757 C755 1.561 . S
C758 C755 1.526 . S
C758 C759 1.396 . S
C758 C763 1.390 . S
C759 C753 1.465 . S
C759 C758 1.396 . S
C759 C760 1.399 . S
C760 H746 0.929 . S
C760 C759 1.399 . S
C760 C761 1.385 . S
C761 H747 0.931 . S
C761 C760 1.385 . S
C761 C762 1.389 . S
C762 C761 1.389 . S
C762 C763 1.387 . S
C763 H748 0.930 . S
C763 C758 1.390 . S
C763 C762 1.387 . S
H764 C776 0.930 . S
H765 C778 0.930 . S
H766 C779 0.930 . S
H767 C783 0.959 1_655 S
H768 C783 0.959 . S
H769 C783 0.961 . S
H770 C784 0.960 . S
H771 C784 0.961 . S
H772 C784 0.959 . S
H773 C787 0.929 . S
H774 C788 0.931 . S
H775 C790 0.930 . S
C776 H764 0.930 . S
C776 C777 1.399 . S
C776 C781 1.399 . S
C777 C776 1.399 . S
C777 C778 1.376 . S
C778 H765 0.930 . S
C778 C777 1.376 . S
C778 C779 1.388 . S
C779 H766 0.930 . S
C779 C778 1.388 . S
C779 C780 1.390 . S
C780 C779 1.390 . S
C780 C781 1.394 . S
C780 C786 1.465 . S
C781 C776 1.399 . S
C781 C780 1.394 . S
C781 C782 1.516 . S
C782 C781 1.516 . S
C782 C783 1.502 . S
C782 C784 1.561 . S
C782 C785 1.526 . S
C783 H767 0.959 1_455 S
C783 H768 0.959 . S
C783 H769 0.961 . S
C783 C782 1.502 . S
C784 H770 0.960 . S
C784 H771 0.961 . S
C784 H772 0.959 . S
C784 C782 1.561 . S
C785 C782 1.526 . S
C785 C786 1.396 . S
C785 C790 1.390 . S
C786 C780 1.465 . S
C786 C785 1.396 . S
C786 C787 1.399 . S
C787 H773 0.929 . S
C787 C786 1.399 . S
C787 C788 1.385 . S
C788 H774 0.931 . S
C788 C787 1.385 . S
C788 C789 1.389 . S
C789 C788 1.389 . S
C789 C790 1.387 . S
C790 H775 0.930 . S
C790 C785 1.390 . S
C790 C789 1.387 . S
H791 C803 0.930 . S
H792 C805 0.930 . S
H793 C806 0.930 . S
H794 C810 0.959 . S
H795 C810 0.959 . S
H796 C810 0.961 . S
H797 C811 0.960 . S
H798 C811 0.961 . S
H799 C811 0.959 . S
H800 C814 0.929 . S
H801 C815 0.931 . S
H802 C817 0.930 . S
C803 H791 0.930 . S
C803 C804 1.399 . S
C803 C808 1.399 . S
C804 C803 1.399 . S
C804 C805 1.376 . S
C805 H792 0.930 . S
C805 C804 1.376 . S
C805 C806 1.388 . S
C806 H793 0.930 . S
C806 C805 1.388 . S
C806 C807 1.390 . S
C807 C806 1.390 . S
C807 C808 1.394 . S
C807 C813 1.465 . S
C808 C803 1.399 . S
C808 C807 1.394 . S
C808 C809 1.516 . S
C809 C808 1.516 . S
C809 C810 1.502 . S
C809 C811 1.561 . S
C809 C812 1.526 . S
C810 H794 0.959 . S
C810 H795 0.959 . S
C810 H796 0.961 . S
C810 C809 1.502 . S
C811 H797 0.960 . S
C811 H798 0.961 . S
C811 H799 0.959 . S
C811 C809 1.561 . S
C812 C809 1.526 . S
C812 C813 1.396 . S
C812 C817 1.390 . S
C813 C807 1.465 . S
C813 C812 1.396 . S
C813 C814 1.399 . S
C814 H800 0.929 . S
C814 C813 1.399 . S
C814 C815 1.385 . S
C815 H801 0.931 . S
C815 C814 1.385 . S
C815 C816 1.389 . S
C816 C815 1.389 . S
C816 C817 1.387 . S
C817 H802 0.930 . S
C817 C812 1.390 . S
C817 C816 1.387 . S
H818 C830 0.930 . S
H819 C832 0.930 . S
H820 C833 0.930 . S
H821 C837 0.959 . S
H822 C837 0.959 . S
H823 C837 0.961 . S
H824 C838 0.960 . S
H825 C838 0.961 . S
H826 C838 0.959 . S
H827 C841 0.929 . S
H828 C842 0.931 . S
H829 C844 0.930 . S
C830 H818 0.930 . S
C830 C831 1.399 . S
C830 C835 1.399 . S
C831 C830 1.399 . S
C831 C832 1.376 . S
C832 H819 0.930 . S
C832 C831 1.376 . S
C832 C833 1.388 . S
C833 H820 0.930 . S
C833 C832 1.388 . S
C833 C834 1.390 . S
C834 C833 1.390 . S
C834 C835 1.394 . S
C834 C840 1.465 . S
C835 C830 1.399 . S
C835 C834 1.394 . S
C835 C836 1.516 . S
C836 C835 1.516 . S
C836 C837 1.502 . S
C836 C838 1.561 . S
C836 C839 1.526 . S
C837 H821 0.959 . S
C837 H822 0.959 . S
C837 H823 0.961 . S
C837 C836 1.502 . S
C838 H824 0.960 . S
C838 H825 0.961 . S
C838 H826 0.959 . S
C838 C836 1.561 . S
C839 C836 1.526 . S
C839 C840 1.396 . S
C839 C844 1.390 . S
C840 C834 1.465 . S
C840 C839 1.396 . S
C840 C841 1.399 . S
C841 H827 0.929 . S
C841 C840 1.399 . S
C841 C842 1.385 . S
C842 H828 0.931 . S
C842 C841 1.385 . S
C842 C843 1.389 . S
C843 C842 1.389 . S
C843 C844 1.387 . S
C844 H829 0.930 . S
C844 C839 1.390 . S
C844 C843 1.387 . S
H845 C857 0.930 . S
H846 C859 0.930 . S
H847 C860 0.930 . S
H848 C864 0.959 . S
H849 C864 0.959 . S
H850 C864 0.961 . S
H851 C865 0.960 . S
H852 C865 0.961 . S
H853 C865 0.959 . S
H854 C868 0.929 . S
H855 C869 0.931 . S
H856 C871 0.930 . S
C857 H845 0.930 . S
C857 C858 1.399 . S
C857 C862 1.399 . S
C858 C857 1.399 . S
C858 C859 1.376 . S
C859 H846 0.930 . S
C859 C858 1.376 . S
C859 C860 1.388 . S
C860 H847 0.930 . S
C860 C859 1.388 . S
C860 C861 1.390 . S
C861 C860 1.390 . S
C861 C862 1.394 . S
C861 C867 1.465 . S
C862 C857 1.399 . S
C862 C861 1.394 . S
C862 C863 1.516 . S
C863 C862 1.516 . S
C863 C864 1.502 . S
C863 C865 1.561 . S
C863 C866 1.526 . S
C864 H848 0.959 . S
C864 H849 0.959 . S
C864 H850 0.961 . S
C864 C863 1.502 . S
C865 H851 0.960 . S
C865 H852 0.961 . S
C865 H853 0.959 . S
C865 C863 1.561 . S
C866 C863 1.526 . S
C866 C867 1.396 . S
C866 C871 1.390 . S
C867 C861 1.465 . S
C867 C866 1.396 . S
C867 C868 1.399 . S
C868 H854 0.929 . S
C868 C867 1.399 . S
C868 C869 1.385 . S
C869 H855 0.931 . S
C869 C868 1.385 . S
C869 C870 1.389 . S
C870 C869 1.389 . S
C870 C871 1.387 . S
C871 H856 0.930 . S
C871 C866 1.390 . S
C871 C870 1.387 . S
H872 C884 0.930 . S
H873 C886 0.930 . S
H874 C887 0.930 . S
H875 C891 0.959 . S
H876 C891 0.959 . S
H877 C891 0.961 . S
H878 C892 0.960 . S
H879 C892 0.961 . S
H880 C892 0.959 . S
H881 C895 0.929 . S
H882 C896 0.931 . S
H883 C898 0.930 1_565 S
C884 H872 0.930 . S
C884 C885 1.399 1_565 S
C884 C889 1.399 1_565 S
C885 C884 1.399 1_545 S
C885 C886 1.376 . S
C886 H873 0.930 . S
C886 C885 1.376 . S
C886 C887 1.388 . S
C887 H874 0.930 . S
C887 C886 1.388 . S
C887 C888 1.390 . S
C888 C887 1.390 . S
C888 C889 1.394 . S
C888 C894 1.465 . S
C889 C884 1.399 1_545 S
C889 C888 1.394 . S
C889 C890 1.516 1_545 S
C890 C889 1.516 1_565 S
C890 C891 1.502 . S
C890 C892 1.561 . S
C890 C893 1.526 1_565 S
C891 H875 0.959 . S
C891 H876 0.959 . S
C891 H877 0.961 . S
C891 C890 1.502 . S
C892 H878 0.960 . S
C892 H879 0.961 . S
C892 H880 0.959 . S
C892 C890 1.561 . S
C893 C890 1.526 1_545 S
C893 C894 1.396 . S
C893 C898 1.390 . S
C894 C888 1.465 . S
C894 C893 1.396 . S
C894 C895 1.399 . S
C895 H881 0.929 . S
C895 C894 1.399 . S
C895 C896 1.385 . S
C896 H882 0.931 . S
C896 C895 1.385 . S
C896 C897 1.389 . S
C897 C896 1.389 . S
C897 C898 1.387 . S
C898 H883 0.930 1_545 S
C898 C893 1.390 . S
C898 C897 1.387 . S
H899 C911 0.930 . S
H900 C913 0.930 . S
H901 C914 0.930 . S
H902 C918 0.959 . S
H903 C918 0.959 . S
H904 C918 0.961 . S
H905 C919 0.960 . S
H906 C919 0.961 . S
H907 C919 0.959 . S
H908 C922 0.929 . S
H909 C923 0.931 . S
H910 C925 0.930 . S
C911 H899 0.930 . S
C911 C912 1.399 . S
C911 C916 1.399 . S
C912 C911 1.399 . S
C912 C913 1.376 . S
C913 H900 0.930 . S
C913 C912 1.376 . S
C913 C914 1.388 . S
C914 H901 0.930 . S
C914 C913 1.388 . S
C914 C915 1.390 . S
C915 C914 1.390 . S
C915 C916 1.394 . S
C915 C921 1.465 . S
C916 C911 1.399 . S
C916 C915 1.394 . S
C916 C917 1.516 . S
C917 C916 1.516 . S
C917 C918 1.502 . S
C917 C919 1.561 . S
C917 C920 1.526 . S
C918 H902 0.959 . S
C918 H903 0.959 . S
C918 H904 0.961 . S
C918 C917 1.502 . S
C919 H905 0.960 . S
C919 H906 0.961 . S
C919 H907 0.959 . S
C919 C917 1.561 . S
C920 C917 1.526 . S
C920 C921 1.396 . S
C920 C925 1.390 . S
C921 C915 1.465 . S
C921 C920 1.396 . S
C921 C922 1.399 . S
C922 H908 0.929 . S
C922 C921 1.399 . S
C922 C923 1.385 . S
C923 H909 0.931 . S
C923 C922 1.385 . S
C923 C924 1.389 . S
C924 C923 1.389 . S
C924 C925 1.387 . S
C925 H910 0.930 . S
C925 C920 1.390 . S
C925 C924 1.387 . S
H926 C938 0.930 . S
H927 C940 0.930 . S
H928 C941 0.930 . S
H929 C945 0.959 . S
H930 C945 0.959 . S
H931 C945 0.961 . S
H932 C946 0.960 . S
H933 C946 0.961 . S
H934 C946 0.959 . S
H935 C949 0.929 . S
H936 C950 0.931 . S
H937 C952 0.930 . S
C938 H926 0.930 . S
C938 C939 1.399 . S
C938 C943 1.399 . S
C939 C938 1.399 . S
C939 C940 1.376 1_565 S
C940 H927 0.930 . S
C940 C939 1.376 1_545 S
C940 C941 1.388 . S
C941 H928 0.930 . S
C941 C940 1.388 . S
C941 C942 1.390 . S
C942 C941 1.390 . S
C942 C943 1.394 1_545 S
C942 C948 1.465 . S
C943 C938 1.399 . S
C943 C942 1.394 1_565 S
C943 C944 1.516 . S
C944 C943 1.516 . S
C944 C945 1.502 . S
C944 C946 1.561 . S
C944 C947 1.526 . S
C945 H929 0.959 . S
C945 H930 0.959 . S
C945 H931 0.961 . S
C945 C944 1.502 . S
C946 H932 0.960 . S
C946 H933 0.961 . S
C946 H934 0.959 . S
C946 C944 1.561 . S
C947 C944 1.526 . S
C947 C948 1.396 1_565 S
C947 C952 1.390 . S
C948 C942 1.465 . S
C948 C947 1.396 1_545 S
C948 C949 1.399 . S
C949 H935 0.929 . S
C949 C948 1.399 . S
C949 C950 1.385 . S
C950 H936 0.931 . S
C950 C949 1.385 . S
C950 C951 1.389 . S
C951 C950 1.389 . S
C951 C952 1.387 1_545 S
C952 H937 0.930 . S
C952 C947 1.390 . S
C952 C951 1.387 1_565 S
H953 C965 0.930 . S
H954 C967 0.930 . S
H955 C968 0.930 . S
H956 C972 0.959 . S
H957 C972 0.959 . S
H958 C972 0.961 . S
H959 C973 0.960 . S
H960 C973 0.961 . S
H961 C973 0.959 . S
H962 C976 0.929 . S
H963 C977 0.931 . S
H964 C979 0.930 . S
C965 H953 0.930 . S
C965 C966 1.399 . S
C965 C970 1.399 . S
C966 C965 1.399 . S
C966 C967 1.376 . S
C967 H954 0.930 . S
C967 C966 1.376 . S
C967 C968 1.388 . S
C968 H955 0.930 . S
C968 C967 1.388 . S
C968 C969 1.390 . S
C969 C968 1.390 . S
C969 C970 1.394 . S
C969 C975 1.465 . S
C970 C965 1.399 . S
C970 C969 1.394 . S
C970 C971 1.516 . S
C971 C970 1.516 . S
C971 C972 1.502 . S
C971 C973 1.561 . S
C971 C974 1.526 . S
C972 H956 0.959 . S
C972 H957 0.959 . S
C972 H958 0.961 . S
C972 C971 1.502 . S
C973 H959 0.960 . S
C973 H960 0.961 . S
C973 H961 0.959 . S
C973 C971 1.561 . S
C974 C971 1.526 . S
C974 C975 1.396 . S
C974 C979 1.390 . S
C975 C969 1.465 . S
C975 C974 1.396 . S
C975 C976 1.399 . S
C976 H962 0.929 . S
C976 C975 1.399 . S
C976 C977 1.385 . S
C977 H963 0.931 . S
C977 C976 1.385 . S
C977 C978 1.389 . S
C978 C977 1.389 . S
C978 C979 1.387 . S
C979 H964 0.930 . S
C979 C974 1.390 . S
C979 C978 1.387 . S
H980 C992 0.930 . S
H981 C994 0.930 . S
H982 C995 0.930 . S
H983 C999 0.959 . S
H984 C999 0.959 . S
H985 C999 0.961 . S
H986 C1000 0.960 . S
H987 C1000 0.961 . S
H988 C1000 0.959 . S
H989 C1003 0.929 . S
H990 C1004 0.931 1_455 S
H991 C1006 0.930 . S
C992 H980 0.930 . S
C992 C993 1.399 1_565 S
C992 C997 1.399 1_565 S
C993 C992 1.399 1_545 S
C993 C994 1.376 . S
C994 H981 0.930 . S
C994 C993 1.376 . S
C994 C995 1.388 . S
C995 H982 0.930 . S
C995 C994 1.388 . S
C995 C996 1.390 . S
C996 C995 1.390 . S
C996 C997 1.401 . S
C996 C1002 1.465 . S
C997 C992 1.399 1_545 S
C997 C996 1.401 . S
C997 C998 1.509 1_545 S
C998 C997 1.509 1_565 S
C998 C999 1.502 . S
C998 C1000 1.561 . S
C998 C1001 1.526 . S
C999 H983 0.959 . S
C999 H984 0.959 . S
C999 H985 0.961 . S
C999 C998 1.502 . S
C1000 H986 0.960 . S
C1000 H987 0.961 . S
C1000 H988 0.959 . S
C1000 C998 1.561 . S
C1001 C998 1.526 . S
C1001 C1002 1.396 1_565 S
C1001 C1006 1.390 . S
C1002 C996 1.465 . S
C1002 C1001 1.396 1_545 S
C1002 C1003 1.399 . S
C1003 H989 0.929 . S
C1003 C1002 1.399 . S
C1003 C1004 1.385 . S
C1004 H990 0.931 1_655 S
C1004 C1003 1.385 . S
C1004 C1005 1.389 . S
C1005 C1004 1.389 . S
C1005 C1006 1.387 1_545 S
C1006 H991 0.930 . S
C1006 C1001 1.390 . S
C1006 C1005 1.387 1_565 S
H1007 C1019 0.930 . S
H1008 C1021 0.930 . S
H1009 C1022 0.930 . S
H1010 C1026 0.959 . S
H1011 C1026 0.959 . S
H1012 C1026 0.961 . S
H1013 C1027 0.960 . S
H1014 C1027 0.961 . S
H1015 C1027 0.959 . S
H1016 C1030 0.929 . S
H1017 C1031 0.931 . S
H1018 C1033 0.930 . S
C1019 H1007 0.930 . S
C1019 C1020 1.399 . S
C1019 C1024 1.399 . S
C1020 C1019 1.399 . S
C1020 C1021 1.376 . S
C1021 H1008 0.930 . S
C1021 C1020 1.376 . S
C1021 C1022 1.388 . S
C1022 H1009 0.930 . S
C1022 C1021 1.388 . S
C1022 C1023 1.390 . S
C1023 C1022 1.390 . S
C1023 C1024 1.394 . S
C1023 C1029 1.465 . S
C1024 C1019 1.399 . S
C1024 C1023 1.394 . S
C1024 C1025 1.516 . S
C1025 C1024 1.516 . S
C1025 C1026 1.502 . S
C1025 C1027 1.561 . S
C1025 C1028 1.526 . S
C1026 H1010 0.959 . S
C1026 H1011 0.959 . S
C1026 H1012 0.961 . S
C1026 C1025 1.502 . S
C1027 H1013 0.960 . S
C1027 H1014 0.961 . S
C1027 H1015 0.959 . S
C1027 C1025 1.561 . S
C1028 C1025 1.526 . S
C1028 C1029 1.396 . S
C1028 C1033 1.390 . S
C1029 C1023 1.465 . S
C1029 C1028 1.396 . S
C1029 C1030 1.399 . S
C1030 H1016 0.929 . S
C1030 C1029 1.399 . S
C1030 C1031 1.385 . S
C1031 H1017 0.931 . S
C1031 C1030 1.385 . S
C1031 C1032 1.389 . S
C1032 C1031 1.389 . S
C1032 C1033 1.387 . S
C1033 H1018 0.930 . S
C1033 C1028 1.390 . S
C1033 C1032 1.387 . S
H1034 C1046 0.930 . S
H1035 C1048 0.930 . S
H1036 C1049 0.930 . S
H1037 C1053 0.959 . S
H1038 C1053 0.959 . S
H1039 C1053 0.961 . S
H1040 C1054 0.960 . S
H1041 C1054 0.961 . S
H1042 C1054 0.959 . S
H1043 C1057 0.929 . S
H1044 C1058 0.931 . S
H1045 C1060 0.930 . S
C1046 H1034 0.930 . S
C1046 C1047 1.411 . S
C1046 C1051 1.399 . S
C1047 C1046 1.411 . S
C1047 C1048 1.364 1_545 S
C1048 H1035 0.930 . S
C1048 C1047 1.364 1_565 S
C1048 C1049 1.388 . S
C1049 H1036 0.930 . S
C1049 C1048 1.388 . S
C1049 C1050 1.390 . S
C1050 C1049 1.390 . S
C1050 C1051 1.394 1_565 S
C1050 C1056 1.465 1_565 S
C1051 C1046 1.399 . S
C1051 C1050 1.394 1_545 S
C1051 C1052 1.516 . S
C1052 C1051 1.516 . S
C1052 C1053 1.502 . S
C1052 C1054 1.561 . S
C1052 C1055 1.526 . S
C1053 H1037 0.959 . S
C1053 H1038 0.959 . S
C1053 H1039 0.961 . S
C1053 C1052 1.502 . S
C1054 H1040 0.960 . S
C1054 H1041 0.961 . S
C1054 H1042 0.959 . S
C1054 C1052 1.561 . S
C1055 C1052 1.526 . S
C1055 C1056 1.396 . S
C1055 C1060 1.390 . S
C1056 C1050 1.465 1_545 S
C1056 C1055 1.396 . S
C1056 C1057 1.399 1_545 S
C1057 H1043 0.929 . S
C1057 C1056 1.399 1_565 S
C1057 C1058 1.385 . S
C1058 H1044 0.931 . S
C1058 C1057 1.385 . S
C1058 C1059 1.389 1_565 S
C1059 C1058 1.389 1_545 S
C1059 C1060 1.387 . S
C1060 H1045 0.930 . S
C1060 C1055 1.390 . S
C1060 C1059 1.387 . S
H1061 C1073 0.930 . S
H1062 C1075 0.930 . S
H1063 C1076 0.930 . S
H1064 C1080 0.959 . S
H1065 C1080 0.959 . S
H1066 C1080 0.961 . S
H1067 C1081 0.960 . S
H1068 C1081 0.961 . S
H1069 C1081 0.959 . S
H1070 C1084 0.929 . S
H1071 C1085 0.931 . S
H1072 C1087 0.930 . S
C1073 H1061 0.930 . S
C1073 C1074 1.399 . S
C1073 C1078 1.399 . S
C1074 C1073 1.399 . S
C1074 C1075 1.376 . S
C1075 H1062 0.930 . S
C1075 C1074 1.376 . S
C1075 C1076 1.388 . S
C1076 H1063 0.930 . S
C1076 C1075 1.388 . S
C1076 C1077 1.390 . S
C1077 C1076 1.390 . S
C1077 C1078 1.394 . S
C1077 C1083 1.465 . S
C1078 C1073 1.399 . S
C1078 C1077 1.394 . S
C1078 C1079 1.516 . S
C1079 C1078 1.516 . S
C1079 C1080 1.502 . S
C1079 C1081 1.561 . S
C1079 C1082 1.526 . S
C1080 H1064 0.959 . S
C1080 H1065 0.959 . S
C1080 H1066 0.961 . S
C1080 C1079 1.502 . S
C1081 H1067 0.960 . S
C1081 H1068 0.961 . S
C1081 H1069 0.959 . S
C1081 C1079 1.561 . S
C1082 C1079 1.526 . S
C1082 C1083 1.396 . S
C1082 C1087 1.390 . S
C1083 C1077 1.465 . S
C1083 C1082 1.396 . S
C1083 C1084 1.399 . S
C1084 H1070 0.929 . S
C1084 C1083 1.399 . S
C1084 C1085 1.385 . S
C1085 H1071 0.931 . S
C1085 C1084 1.385 . S
C1085 C1086 1.389 . S
C1086 C1085 1.389 . S
C1086 C1087 1.387 . S
C1087 H1072 0.930 . S
C1087 C1082 1.390 . S
C1087 C1086 1.387 . S
H1088 C1100 0.930 . S
H1089 C1102 0.930 . S
H1090 C1103 0.930 . S
H1091 C1107 0.959 . S
H1092 C1107 0.959 . S
H1093 C1107 0.961 . S
H1094 C1108 0.960 . S
H1095 C1108 0.961 . S
H1096 C1108 0.959 . S
H1097 C1111 0.929 1_556 S
H1098 C1112 0.931 . S
H1099 C1114 0.930 . S
C1100 H1088 0.930 . S
C1100 C1101 1.399 . S
C1100 C1105 1.399 . S
C1101 C1100 1.399 . S
C1101 C1102 1.376 1_554 S
C1102 H1089 0.930 . S
C1102 C1101 1.376 1_556 S
C1102 C1103 1.388 . S
C1103 H1090 0.930 . S
C1103 C1102 1.388 . S
C1103 C1104 1.390 1_556 S
C1104 C1103 1.390 1_554 S
C1104 C1105 1.394 . S
C1104 C1110 1.465 . S
C1105 C1100 1.399 . S
C1105 C1104 1.394 . S
C1105 C1106 1.516 . S
C1106 C1105 1.516 . S
C1106 C1107 1.502 . S
C1106 C1108 1.561 . S
C1106 C1109 1.526 . S
C1107 H1091 0.959 . S
C1107 H1092 0.959 . S
C1107 H1093 0.961 . S
C1107 C1106 1.502 . S
C1108 H1094 0.960 . S
C1108 H1095 0.961 . S
C1108 H1096 0.959 . S
C1108 C1106 1.561 . S
C1109 C1106 1.526 . S
C1109 C1110 1.396 . S
C1109 C1114 1.390 . S
C1110 C1104 1.465 . S
C1110 C1109 1.396 . S
C1110 C1111 1.399 . S
C1111 H1097 0.929 1_554 S
C1111 C1110 1.399 . S
C1111 C1112 1.385 . S
C1112 H1098 0.931 . S
C1112 C1111 1.385 . S
C1112 C1113 1.389 . S
C1113 C1112 1.389 . S
C1113 C1114 1.387 . S
C1114 H1099 0.930 . S
C1114 C1109 1.390 . S
C1114 C1113 1.387 . S
H1115 C1127 0.930 . S
H1116 C1129 0.930 . S
H1117 C1130 0.930 . S
H1118 C1134 0.959 . S
H1119 C1134 0.959 . S
H1120 C1134 0.961 . S
H1121 C1135 0.960 . S
H1122 C1135 0.961 . S
H1123 C1135 0.959 . S
H1124 C1138 0.929 . S
H1125 C1139 0.931 . S
H1126 C1141 0.930 . S
C1127 H1115 0.930 . S
C1127 C1128 1.399 1_556 S
C1127 C1132 1.399 . S
C1128 C1127 1.399 1_554 S
C1128 C1129 1.376 . S
C1129 H1116 0.930 . S
C1129 C1128 1.376 . S
C1129 C1130 1.388 . S
C1130 H1117 0.930 . S
C1130 C1129 1.388 . S
C1130 C1131 1.390 . S
C1131 C1130 1.390 . S
C1131 C1132 1.394 1_554 S
C1131 C1137 1.465 . S
C1132 C1127 1.399 . S
C1132 C1131 1.394 1_556 S
C1132 C1133 1.516 . S
C1133 C1132 1.516 . S
C1133 C1134 1.502 . S
C1133 C1135 1.561 . S
C1133 C1136 1.526 . S
C1134 H1118 0.959 . S
C1134 H1119 0.959 . S
C1134 H1120 0.961 . S
C1134 C1133 1.502 . S
C1135 H1121 0.960 . S
C1135 H1122 0.961 . S
C1135 H1123 0.959 . S
C1135 C1133 1.561 . S
C1136 C1133 1.526 . S
C1136 C1137 1.396 1_556 S
C1136 C1141 1.390 . S
C1137 C1131 1.465 . S
C1137 C1136 1.396 1_554 S
C1137 C1138 1.399 . S
C1138 H1124 0.929 . S
C1138 C1137 1.399 . S
C1138 C1139 1.385 . S
C1139 H1125 0.931 . S
C1139 C1138 1.385 . S
C1139 C1140 1.389 . S
C1140 C1139 1.389 . S
C1140 C1141 1.387 1_554 S
C1141 H1126 0.930 . S
C1141 C1136 1.390 . S
C1141 C1140 1.387 1_556 S
H1142 C1154 0.930 . S
H1143 C1156 0.930 . S
H1144 C1157 0.930 . S
H1145 C1161 0.959 . S
H1146 C1161 0.959 . S
H1147 C1161 0.961 . S
H1148 C1162 0.960 . S
H1149 C1162 0.961 . S
H1150 C1162 0.959 . S
H1151 C1165 0.929 . S
H1152 C1166 0.931 . S
H1153 C1168 0.930 . S
C1154 H1142 0.930 . S
C1154 C1155 1.399 . S
C1154 C1159 1.399 . S
C1155 C1154 1.399 . S
C1155 C1156 1.376 . S
C1156 H1143 0.930 . S
C1156 C1155 1.376 . S
C1156 C1157 1.388 . S
C1157 H1144 0.930 . S
C1157 C1156 1.388 . S
C1157 C1158 1.390 . S
C1158 C1157 1.390 . S
C1158 C1159 1.394 . S
C1158 C1164 1.465 . S
C1159 C1154 1.399 . S
C1159 C1158 1.394 . S
C1159 C1160 1.516 . S
C1160 C1159 1.516 . S
C1160 C1161 1.502 . S
C1160 C1162 1.561 . S
C1160 C1163 1.526 . S
C1161 H1145 0.959 . S
C1161 H1146 0.959 . S
C1161 H1147 0.961 . S
C1161 C1160 1.502 . S
C1162 H1148 0.960 . S
C1162 H1149 0.961 . S
C1162 H1150 0.959 . S
C1162 C1160 1.561 . S
C1163 C1160 1.526 . S
C1163 C1164 1.396 . S
C1163 C1168 1.390 . S
C1164 C1158 1.465 . S
C1164 C1163 1.396 . S
C1164 C1165 1.399 . S
C1165 H1151 0.929 . S
C1165 C1164 1.399 . S
C1165 C1166 1.385 . S
C1166 H1152 0.931 . S
C1166 C1165 1.385 . S
C1166 C1167 1.389 . S
C1167 C1166 1.389 . S
C1167 C1168 1.387 . S
C1168 H1153 0.930 . S
C1168 C1163 1.390 . S
C1168 C1167 1.387 . S
H1169 C1181 0.930 . S
H1170 C1183 0.930 . S
H1171 C1184 0.930 . S
H1172 C1188 0.959 . S
H1173 C1188 0.959 . S
H1174 C1188 0.961 . S
H1175 C1189 0.960 . S
H1176 C1189 0.961 . S
H1177 C1189 0.959 . S
H1178 C1192 0.929 . S
H1179 C1193 0.931 . S
H1180 C1195 0.930 . S
C1181 H1169 0.930 . S
C1181 C1182 1.399 . S
C1181 C1186 1.399 . S
C1182 C1181 1.399 . S
C1182 C1183 1.376 . S
C1183 H1170 0.930 . S
C1183 C1182 1.376 . S
C1183 C1184 1.388 . S
C1184 H1171 0.930 . S
C1184 C1183 1.388 . S
C1184 C1185 1.390 . S
C1185 C1184 1.390 . S
C1185 C1186 1.394 . S
C1185 C1191 1.465 . S
C1186 C1181 1.399 . S
C1186 C1185 1.394 . S
C1186 C1187 1.516 . S
C1187 C1186 1.516 . S
C1187 C1188 1.502 . S
C1187 C1189 1.561 . S
C1187 C1190 1.526 . S
C1188 H1172 0.959 . S
C1188 H1173 0.959 . S
C1188 H1174 0.961 . S
C1188 C1187 1.502 . S
C1189 H1175 0.960 . S
C1189 H1176 0.961 . S
C1189 H1177 0.959 . S
C1189 C1187 1.561 . S
C1190 C1187 1.526 . S
C1190 C1191 1.396 . S
C1190 C1195 1.390 . S
C1191 C1185 1.465 . S
C1191 C1190 1.396 . S
C1191 C1192 1.399 . S
C1192 H1178 0.929 . S
C1192 C1191 1.399 . S
C1192 C1193 1.385 . S
C1193 H1179 0.931 . S
C1193 C1192 1.385 . S
C1193 C1194 1.389 . S
C1194 C1193 1.389 . S
C1194 C1195 1.387 . S
C1195 H1180 0.930 . S
C1195 C1190 1.390 . S
C1195 C1194 1.387 . S
H1196 C1208 0.930 . S
H1197 C1210 0.930 . S
H1198 C1211 0.930 . S
H1199 C1215 0.959 . S
H1200 C1215 0.959 . S
H1201 C1215 0.961 . S
H1202 C1216 0.960 . S
H1203 C1216 0.961 . S
H1204 C1216 0.959 . S
H1205 C1219 0.929 . S
H1206 C1220 0.931 . S
H1207 C1222 0.930 . S
C1208 H1196 0.930 . S
C1208 C1209 1.399 . S
C1208 C1213 1.399 . S
C1209 C1208 1.399 . S
C1209 C1210 1.376 . S
C1210 H1197 0.930 . S
C1210 C1209 1.376 . S
C1210 C1211 1.388 . S
C1211 H1198 0.930 . S
C1211 C1210 1.388 . S
C1211 C1212 1.390 . S
C1212 C1211 1.390 . S
C1212 C1213 1.394 . S
C1212 C1218 1.465 . S
C1213 C1208 1.399 . S
C1213 C1212 1.394 . S
C1213 C1214 1.516 . S
C1214 C1213 1.516 . S
C1214 C1215 1.502 . S
C1214 C1216 1.561 . S
C1214 C1217 1.526 . S
C1215 H1199 0.959 . S
C1215 H1200 0.959 . S
C1215 H1201 0.961 . S
C1215 C1214 1.502 . S
C1216 H1202 0.960 . S
C1216 H1203 0.961 . S
C1216 H1204 0.959 . S
C1216 C1214 1.561 . S
C1217 C1214 1.526 . S
C1217 C1218 1.396 . S
C1217 C1222 1.390 . S
C1218 C1212 1.465 . S
C1218 C1217 1.396 . S
C1218 C1219 1.399 . S
C1219 H1205 0.929 . S
C1219 C1218 1.399 . S
C1219 C1220 1.385 . S
C1220 H1206 0.931 . S
C1220 C1219 1.385 . S
C1220 C1221 1.389 . S
C1221 C1220 1.389 . S
C1221 C1222 1.387 . S
C1222 H1207 0.930 . S
C1222 C1217 1.390 . S
C1222 C1221 1.387 . S
H1223 C1235 0.930 . S
H1224 C1237 0.930 . S
H1225 C1238 0.930 . S
H1226 C1242 0.959 . S
H1227 C1242 0.959 . S
H1228 C1242 0.961 . S
H1229 C1243 0.960 . S
H1230 C1243 0.961 . S
H1231 C1243 0.959 . S
H1232 C1246 0.929 . S
H1233 C1247 0.931 . S
H1234 C1249 0.930 . S
C1235 H1223 0.930 . S
C1235 C1236 1.399 . S
C1235 C1240 1.399 . S
C1236 C1235 1.399 . S
C1236 C1237 1.376 . S
C1237 H1224 0.930 . S
C1237 C1236 1.376 . S
C1237 C1238 1.388 . S
C1238 H1225 0.930 . S
C1238 C1237 1.388 . S
C1238 C1239 1.390 . S
C1239 C1238 1.390 . S
C1239 C1240 1.394 . S
C1239 C1245 1.465 . S
C1240 C1235 1.399 . S
C1240 C1239 1.394 . S
C1240 C1241 1.516 . S
C1241 C1240 1.516 . S
C1241 C1242 1.502 . S
C1241 C1243 1.561 . S
C1241 C1244 1.526 . S
C1242 H1226 0.959 . S
C1242 H1227 0.959 . S
C1242 H1228 0.961 . S
C1242 C1241 1.502 . S
C1243 H1229 0.960 . S
C1243 H1230 0.961 . S
C1243 H1231 0.959 . S
C1243 C1241 1.561 . S
C1244 C1241 1.526 . S
C1244 C1245 1.396 . S
C1244 C1249 1.390 . S
C1245 C1239 1.465 . S
C1245 C1244 1.396 . S
C1245 C1246 1.399 . S
C1246 H1232 0.929 . S
C1246 C1245 1.399 . S
C1246 C1247 1.385 . S
C1247 H1233 0.931 . S
C1247 C1246 1.385 . S
C1247 C1248 1.389 . S
C1248 C1247 1.389 . S
C1248 C1249 1.387 . S
C1249 H1234 0.930 . S
C1249 C1244 1.390 . S
C1249 C1248 1.387 . S
H1250 C1262 0.930 . S
H1251 C1264 0.930 . S
H1252 C1265 0.930 . S
H1253 C1269 0.959 . S
H1254 C1269 0.959 . S
H1255 C1269 0.961 . S
H1256 C1270 0.960 . S
H1257 C1270 0.961 . S
H1258 C1270 0.959 . S
H1259 C1273 0.929 . S
H1260 C1274 0.931 . S
H1261 C1276 0.930 . S
C1262 H1250 0.930 . S
C1262 C1263 1.399 . S
C1262 C1267 1.399 . S
C1263 C1262 1.399 . S
C1263 C1264 1.376 . S
C1264 H1251 0.930 . S
C1264 C1263 1.376 . S
C1264 C1265 1.388 . S
C1265 H1252 0.930 . S
C1265 C1264 1.388 . S
C1265 C1266 1.390 . S
C1266 C1265 1.390 . S
C1266 C1267 1.394 . S
C1266 C1272 1.465 . S
C1267 C1262 1.399 . S
C1267 C1266 1.394 . S
C1267 C1268 1.516 . S
C1268 C1267 1.516 . S
C1268 C1269 1.502 . S
C1268 C1270 1.561 . S
C1268 C1271 1.526 . S
C1269 H1253 0.959 . S
C1269 H1254 0.959 . S
C1269 H1255 0.961 . S
C1269 C1268 1.502 . S
C1270 H1256 0.960 . S
C1270 H1257 0.961 . S
C1270 H1258 0.959 . S
C1270 C1268 1.561 . S
C1271 C1268 1.526 . S
C1271 C1272 1.396 . S
C1271 C1276 1.390 . S
C1272 C1266 1.465 . S
C1272 C1271 1.396 . S
C1272 C1273 1.399 . S
C1273 H1259 0.929 . S
C1273 C1272 1.399 . S
C1273 C1274 1.385 . S
C1274 H1260 0.931 . S
C1274 C1273 1.385 . S
C1274 C1275 1.389 . S
C1275 C1274 1.389 . S
C1275 C1276 1.387 . S
C1276 H1261 0.930 . S
C1276 C1271 1.390 . S
C1276 C1275 1.387 . S
H1277 C1289 0.930 . S
H1278 C1291 0.930 . S
H1279 C1292 0.930 . S
H1280 C1296 0.959 . S
H1281 C1296 0.959 . S
H1282 C1296 0.961 . S
H1283 C1297 0.960 . S
H1284 C1297 0.961 . S
H1285 C1297 0.959 . S
H1286 C1300 0.929 . S
H1287 C1301 0.931 . S
H1288 C1303 0.930 . S
C1289 H1277 0.930 . S
C1289 C1290 1.399 . S
C1289 C1294 1.399 . S
C1290 C1289 1.399 . S
C1290 C1291 1.376 . S
C1291 H1278 0.930 . S
C1291 C1290 1.376 . S
C1291 C1292 1.388 . S
C1292 H1279 0.930 . S
C1292 C1291 1.388 . S
C1292 C1293 1.390 . S
C1293 C1292 1.390 . S
C1293 C1294 1.394 . S
C1293 C1299 1.465 . S
C1294 C1289 1.399 . S
C1294 C1293 1.394 . S
C1294 C1295 1.516 . S
C1295 C1294 1.516 . S
C1295 C1296 1.502 . S
C1295 C1297 1.561 . S
C1295 C1298 1.526 . S
C1296 H1280 0.959 . S
C1296 H1281 0.959 . S
C1296 H1282 0.961 . S
C1296 C1295 1.502 . S
C1297 H1283 0.960 . S
C1297 H1284 0.961 . S
C1297 H1285 0.959 . S
C1297 C1295 1.561 . S
C1298 C1295 1.526 . S
C1298 C1299 1.396 . S
C1298 C1303 1.390 . S
C1299 C1293 1.465 . S
C1299 C1298 1.396 . S
C1299 C1300 1.399 . S
C1300 H1286 0.929 . S
C1300 C1299 1.399 . S
C1300 C1301 1.385 . S
C1301 H1287 0.931 . S
C1301 C1300 1.385 . S
C1301 C1302 1.389 . S
C1302 C1301 1.389 . S
C1302 C1303 1.387 . S
C1303 H1288 0.930 . S
C1303 C1298 1.390 . S
C1303 C1302 1.387 . S
H1304 C1316 0.930 . S
H1305 C1318 0.930 . S
H1306 C1319 0.930 . S
H1307 C1323 0.972 . S
H1308 C1323 0.965 . S
H1309 C1323 0.961 1_455 S
H1310 C1324 0.960 . S
H1311 C1324 0.961 . S
H1312 C1324 0.959 . S
H1313 C1327 0.929 . S
H1314 C1328 0.931 . S
H1315 C1330 0.930 . S
C1316 H1304 0.930 . S
C1316 C1317 1.399 . S
C1316 C1321 1.399 . S
C1317 C1316 1.399 . S
C1317 C1318 1.376 . S
C1318 H1305 0.930 . S
C1318 C1317 1.376 . S
C1318 C1319 1.388 . S
C1319 H1306 0.930 . S
C1319 C1318 1.388 . S
C1319 C1320 1.390 . S
C1320 C1319 1.390 . S
C1320 C1321 1.394 . S
C1320 C1326 1.465 . S
C1321 C1316 1.399 . S
C1321 C1320 1.394 . S
C1321 C1322 1.516 . S
C1322 C1321 1.516 . S
C1322 C1323 1.484 1_455 S
C1322 C1324 1.561 . S
C1322 C1325 1.526 . S
C1323 H1307 0.972 . S
C1323 H1308 0.965 . S
C1323 H1309 0.961 1_655 S
C1323 C1322 1.484 1_655 S
C1324 H1310 0.960 . S
C1324 H1311 0.961 . S
C1324 H1312 0.959 . S
C1324 C1322 1.561 . S
C1325 C1322 1.526 . S
C1325 C1326 1.396 . S
C1325 C1330 1.390 . S
C1326 C1320 1.465 . S
C1326 C1325 1.396 . S
C1326 C1327 1.399 . S
C1327 H1313 0.929 . S
C1327 C1326 1.399 . S
C1327 C1328 1.385 . S
C1328 H1314 0.931 . S
C1328 C1327 1.385 . S
C1328 C1329 1.389 . S
C1329 C1328 1.389 . S
C1329 C1330 1.387 . S
C1330 H1315 0.930 . S
C1330 C1325 1.390 . S
C1330 C1329 1.387 . S
H1331 C1343 0.930 . S
H1332 C1345 0.930 . S
H1333 C1346 0.930 . S
H1334 C1350 0.959 . S
H1335 C1350 0.959 . S
H1336 C1350 0.961 . S
H1337 C1351 0.960 . S
H1338 C1351 0.961 . S
H1339 C1351 0.959 . S
H1340 C1354 0.929 . S
H1341 C1355 0.931 . S
H1342 C1357 0.930 . S
C1343 H1331 0.930 . S
C1343 C1344 1.399 . S
C1343 C1348 1.399 . S
C1344 C1343 1.399 . S
C1344 C1345 1.376 . S
C1345 H1332 0.930 . S
C1345 C1344 1.376 . S
C1345 C1346 1.388 . S
C1346 H1333 0.930 . S
C1346 C1345 1.388 . S
C1346 C1347 1.390 . S
C1347 C1346 1.390 . S
C1347 C1348 1.394 . S
C1347 C1353 1.465 . S
C1348 C1343 1.399 . S
C1348 C1347 1.394 . S
C1348 C1349 1.516 . S
C1349 C1348 1.516 . S
C1349 C1350 1.502 . S
C1349 C1351 1.561 . S
C1349 C1352 1.526 . S
C1350 H1334 0.959 . S
C1350 H1335 0.959 . S
C1350 H1336 0.961 . S
C1350 C1349 1.502 . S
C1351 H1337 0.960 . S
C1351 H1338 0.961 . S
C1351 H1339 0.959 . S
C1351 C1349 1.561 . S
C1352 C1349 1.526 . S
C1352 C1353 1.396 . S
C1352 C1357 1.390 . S
C1353 C1347 1.465 . S
C1353 C1352 1.396 . S
C1353 C1354 1.399 . S
C1354 H1340 0.929 . S
C1354 C1353 1.399 . S
C1354 C1355 1.385 . S
C1355 H1341 0.931 . S
C1355 C1354 1.385 . S
C1355 C1356 1.389 . S
C1356 C1355 1.389 . S
C1356 C1357 1.387 . S
C1357 H1342 0.930 . S
C1357 C1352 1.390 . S
C1357 C1356 1.387 . S
H1358 C1370 0.930 . S
H1359 C1372 0.930 . S
H1360 C1373 0.930 . S
H1361 C1377 0.959 . S
H1362 C1377 0.959 . S
H1363 C1377 0.961 . S
H1364 C1378 0.960 . S
H1365 C1378 0.961 . S
H1366 C1378 0.959 . S
H1367 C1381 0.929 . S
H1368 C1382 0.931 . S
H1369 C1384 0.930 . S
C1370 H1358 0.930 . S
C1370 C1371 1.399 . S
C1370 C1375 1.399 . S
C1371 C1370 1.399 . S
C1371 C1372 1.376 . S
C1372 H1359 0.930 . S
C1372 C1371 1.376 . S
C1372 C1373 1.388 . S
C1373 H1360 0.930 . S
C1373 C1372 1.388 . S
C1373 C1374 1.390 . S
C1374 C1373 1.390 . S
C1374 C1375 1.394 . S
C1374 C1380 1.465 . S
C1375 C1370 1.399 . S
C1375 C1374 1.394 . S
C1375 C1376 1.516 . S
C1376 C1375 1.516 . S
C1376 C1377 1.502 . S
C1376 C1378 1.561 . S
C1376 C1379 1.526 . S
C1377 H1361 0.959 . S
C1377 H1362 0.959 . S
C1377 H1363 0.961 . S
C1377 C1376 1.502 . S
C1378 H1364 0.960 . S
C1378 H1365 0.961 . S
C1378 H1366 0.959 . S
C1378 C1376 1.561 . S
C1379 C1376 1.526 . S
C1379 C1380 1.396 . S
C1379 C1384 1.390 . S
C1380 C1374 1.465 . S
C1380 C1379 1.396 . S
C1380 C1381 1.399 . S
C1381 H1367 0.929 . S
C1381 C1380 1.399 . S
C1381 C1382 1.385 . S
C1382 H1368 0.931 . S
C1382 C1381 1.385 . S
C1382 C1383 1.389 . S
C1383 C1382 1.389 . S
C1383 C1384 1.387 . S
C1384 H1369 0.930 . S
C1384 C1379 1.390 . S
C1384 C1383 1.387 . S
H1385 C1397 0.930 . S
H1386 C1399 0.930 . S
H1387 C1400 0.930 . S
H1388 C1404 0.959 . S
H1389 C1404 0.959 . S
H1390 C1404 0.961 . S
H1391 C1405 0.960 . S
H1392 C1405 0.961 . S
H1393 C1405 0.959 . S
H1394 C1408 0.929 . S
H1395 C1409 0.931 . S
H1396 C1411 0.930 . S
C1397 H1385 0.930 . S
C1397 C1398 1.399 . S
C1397 C1402 1.399 . S
C1398 C1397 1.399 . S
C1398 C1399 1.376 . S
C1399 H1386 0.930 . S
C1399 C1398 1.376 . S
C1399 C1400 1.388 . S
C1400 H1387 0.930 . S
C1400 C1399 1.388 . S
C1400 C1401 1.390 . S
C1401 C1400 1.390 . S
C1401 C1402 1.394 . S
C1401 C1407 1.465 . S
C1402 C1397 1.399 . S
C1402 C1401 1.394 . S
C1402 C1403 1.516 . S
C1403 C1402 1.516 . S
C1403 C1404 1.502 . S
C1403 C1405 1.561 . S
C1403 C1406 1.526 . S
C1404 H1388 0.959 . S
C1404 H1389 0.959 . S
C1404 H1390 0.961 . S
C1404 C1403 1.502 . S
C1405 H1391 0.960 . S
C1405 H1392 0.961 . S
C1405 H1393 0.959 . S
C1405 C1403 1.561 . S
C1406 C1403 1.526 . S
C1406 C1407 1.396 . S
C1406 C1411 1.390 . S
C1407 C1401 1.465 . S
C1407 C1406 1.396 . S
C1407 C1408 1.399 . S
C1408 H1394 0.929 . S
C1408 C1407 1.399 . S
C1408 C1409 1.385 . S
C1409 H1395 0.931 . S
C1409 C1408 1.385 . S
C1409 C1410 1.389 . S
C1410 C1409 1.389 . S
C1410 C1411 1.387 . S
C1411 H1396 0.930 . S
C1411 C1406 1.390 . S
C1411 C1410 1.387 . S
H1412 C1424 0.930 1_655 S
H1413 C1426 0.930 . S
H1414 C1427 0.930 . S
H1415 C1431 0.959 . S
H1416 C1431 0.959 . S
H1417 C1431 0.961 . S
H1418 C1432 0.958 1_655 S
H1419 C1432 0.961 1_655 S
H1420 C1432 0.959 . S
H1421 C1435 0.929 . S
H1422 C1436 0.931 . S
H1423 C1438 0.930 . S
C1424 H1412 0.930 1_455 S
C1424 C1425 1.399 . S
C1424 C1429 1.399 . S
C1425 C1424 1.399 . S
C1425 C1426 1.376 . S
C1426 H1413 0.930 . S
C1426 C1425 1.376 . S
C1426 C1427 1.388 . S
C1427 H1414 0.930 . S
C1427 C1426 1.388 . S
C1427 C1428 1.390 . S
C1428 C1427 1.390 . S
C1428 C1429 1.394 . S
C1428 C1434 1.465 . S
C1429 C1424 1.399 . S
C1429 C1428 1.394 . S
C1429 C1430 1.516 1_455 S
C1430 C1429 1.516 1_655 S
C1430 C1431 1.502 . S
C1430 C1432 1.561 1_655 S
C1430 C1433 1.526 1_655 S
C1431 H1415 0.959 . S
C1431 H1416 0.959 . S
C1431 H1417 0.961 . S
C1431 C1430 1.502 . S
C1432 H1418 0.958 1_455 S
C1432 H1419 0.961 1_455 S
C1432 H1420 0.959 . S
C1432 C1430 1.561 1_455 S
C1433 C1430 1.526 1_455 S
C1433 C1434 1.396 . S
C1433 C1438 1.390 1_455 S
C1434 C1428 1.465 . S
C1434 C1433 1.396 . S
C1434 C1435 1.399 . S
C1435 H1421 0.929 . S
C1435 C1434 1.399 . S
C1435 C1436 1.385 . S
C1436 H1422 0.931 . S
C1436 C1435 1.385 . S
C1436 C1437 1.389 . S
C1437 C1436 1.389 . S
C1437 C1438 1.387 1_455 S
C1438 H1423 0.930 . S
C1438 C1433 1.390 1_655 S
C1438 C1437 1.387 1_655 S
H1439 C1451 0.930 . S
H1440 C1453 0.930 . S
H1441 C1454 0.930 . S
H1442 C1458 0.959 . S
H1443 C1458 0.959 . S
H1444 C1458 0.961 . S
H1445 C1459 0.960 . S
H1446 C1459 0.961 . S
H1447 C1459 0.959 . S
H1448 C1462 0.929 . S
H1449 C1463 0.931 . S
H1450 C1465 0.930 . S
C1451 H1439 0.930 . S
C1451 C1452 1.399 . S
C1451 C1456 1.399 . S
C1452 C1451 1.399 . S
C1452 C1453 1.376 . S
C1453 H1440 0.930 . S
C1453 C1452 1.376 . S
C1453 C1454 1.388 . S
C1454 H1441 0.930 . S
C1454 C1453 1.388 . S
C1454 C1455 1.390 . S
C1455 C1454 1.390 . S
C1455 C1456 1.394 . S
C1455 C1461 1.465 . S
C1456 C1451 1.399 . S
C1456 C1455 1.394 . S
C1456 C1457 1.516 . S
C1457 C1456 1.516 . S
C1457 C1458 1.502 . S
C1457 C1459 1.561 . S
C1457 C1460 1.526 . S
C1458 H1442 0.959 . S
C1458 H1443 0.959 . S
C1458 H1444 0.961 . S
C1458 C1457 1.502 . S
C1459 H1445 0.960 . S
C1459 H1446 0.961 . S
C1459 H1447 0.959 . S
C1459 C1457 1.561 . S
C1460 C1457 1.526 . S
C1460 C1461 1.396 . S
C1460 C1465 1.390 . S
C1461 C1455 1.465 . S
C1461 C1460 1.396 . S
C1461 C1462 1.399 . S
C1462 H1448 0.929 . S
C1462 C1461 1.399 . S
C1462 C1463 1.385 . S
C1463 H1449 0.931 . S
C1463 C1462 1.385 . S
C1463 C1464 1.389 . S
C1464 C1463 1.389 . S
C1464 C1465 1.387 . S
C1465 H1450 0.930 . S
C1465 C1460 1.390 . S
C1465 C1464 1.387 . S
H1466 C1478 0.930 . S
H1467 C1480 0.930 . S
H1468 C1481 0.930 . S
H1469 C1485 0.959 . S
H1470 C1485 0.959 . S
H1471 C1485 0.961 . S
H1472 C1486 0.960 . S
H1473 C1486 0.961 . S
H1474 C1486 0.959 1_556 S
H1475 C1489 0.929 . S
H1476 C1490 0.931 . S
H1477 C1492 0.930 . S
C1478 H1466 0.930 . S
C1478 C1479 1.399 . S
C1478 C1483 1.399 . S
C1479 C1478 1.399 . S
C1479 C1480 1.376 . S
C1480 H1467 0.930 . S
C1480 C1479 1.376 . S
C1480 C1481 1.388 . S
C1481 H1468 0.930 . S
C1481 C1480 1.388 . S
C1481 C1482 1.390 . S
C1482 C1481 1.390 . S
C1482 C1483 1.394 . S
C1482 C1488 1.465 . S
C1483 C1478 1.399 . S
C1483 C1482 1.394 . S
C1483 C1484 1.516 . S
C1484 C1483 1.516 . S
C1484 C1485 1.502 1_556 S
C1484 C1486 1.561 1_556 S
C1484 C1487 1.526 . S
C1485 H1469 0.959 . S
C1485 H1470 0.959 . S
C1485 H1471 0.961 . S
C1485 C1484 1.502 1_554 S
C1486 H1472 0.960 . S
C1486 H1473 0.961 . S
C1486 H1474 0.959 1_554 S
C1486 C1484 1.561 1_554 S
C1487 C1484 1.526 . S
C1487 C1488 1.396 . S
C1487 C1492 1.390 1_556 S
C1488 C1482 1.465 . S
C1488 C1487 1.396 . S
C1488 C1489 1.399 . S
C1489 H1475 0.929 . S
C1489 C1488 1.399 . S
C1489 C1490 1.385 . S
C1490 H1476 0.931 . S
C1490 C1489 1.385 . S
C1490 C1491 1.389 . S
C1491 C1490 1.389 . S
C1491 C1492 1.387 1_556 S
C1492 H1477 0.930 . S
C1492 C1487 1.390 1_554 S
C1492 C1491 1.387 1_554 S
H1493 C1505 0.930 . S
H1494 C1507 0.930 . S
H1495 C1508 0.930 . S
H1496 C1512 0.959 . S
H1497 C1512 0.959 . S
H1498 C1512 0.961 . S
H1499 C1513 0.960 . S
H1500 C1513 0.961 . S
H1501 C1513 0.959 . S
H1502 C1516 0.929 . S
H1503 C1517 0.931 . S
H1504 C1519 0.930 . S
C1505 H1493 0.930 . S
C1505 C1506 1.399 . S
C1505 C1510 1.399 . S
C1506 C1505 1.399 . S
C1506 C1507 1.376 . S
C1507 H1494 0.930 . S
C1507 C1506 1.376 . S
C1507 C1508 1.388 . S
C1508 H1495 0.930 . S
C1508 C1507 1.388 . S
C1508 C1509 1.390 . S
C1509 C1508 1.390 . S
C1509 C1510 1.394 . S
C1509 C1515 1.465 . S
C1510 C1505 1.399 . S
C1510 C1509 1.394 . S
C1510 C1511 1.516 . S
C1511 C1510 1.516 . S
C1511 C1512 1.502 . S
C1511 C1513 1.561 . S
C1511 C1514 1.526 . S
C1512 H1496 0.959 . S
C1512 H1497 0.959 . S
C1512 H1498 0.961 . S
C1512 C1511 1.502 . S
C1513 H1499 0.960 . S
C1513 H1500 0.961 . S
C1513 H1501 0.959 . S
C1513 C1511 1.561 . S
C1514 C1511 1.526 . S
C1514 C1515 1.396 . S
C1514 C1519 1.390 . S
C1515 C1509 1.465 . S
C1515 C1514 1.396 . S
C1515 C1516 1.399 . S
C1516 H1502 0.929 . S
C1516 C1515 1.399 . S
C1516 C1517 1.385 . S
C1517 H1503 0.931 . S
C1517 C1516 1.385 . S
C1517 C1518 1.389 . S
C1518 C1517 1.389 . S
C1518 C1519 1.387 . S
C1519 H1504 0.930 . S
C1519 C1514 1.390 . S
C1519 C1518 1.387 . S
H1520 C1532 0.930 . S
H1521 C1534 0.930 . S
H1522 C1535 0.930 . S
H1523 C1539 0.959 . S
H1524 C1539 0.959 . S
H1525 C1539 0.961 . S
H1526 C1540 0.960 . S
H1527 C1540 0.961 . S
H1528 C1540 0.959 . S
H1529 C1543 0.929 . S
H1530 C1544 0.931 . S
H1531 C1546 0.930 . S
C1532 H1520 0.930 . S
C1532 C1533 1.399 1_565 S
C1532 C1537 1.399 . S
C1533 C1532 1.399 1_545 S
C1533 C1534 1.376 . S
C1534 H1521 0.930 . S
C1534 C1533 1.376 . S
C1534 C1535 1.388 . S
C1535 H1522 0.930 . S
C1535 C1534 1.388 . S
C1535 C1536 1.390 . S
C1536 C1535 1.390 . S
C1536 C1537 1.394 1_545 S
C1536 C1542 1.465 . S
C1537 C1532 1.399 . S
C1537 C1536 1.394 1_565 S
C1537 C1538 1.516 . S
C1538 C1537 1.516 . S
C1538 C1539 1.502 . S
C1538 C1540 1.561 . S
C1538 C1541 1.526 . S
C1539 H1523 0.959 . S
C1539 H1524 0.959 . S
C1539 H1525 0.961 . S
C1539 C1538 1.502 . S
C1540 H1526 0.960 . S
C1540 H1527 0.961 . S
C1540 H1528 0.959 . S
C1540 C1538 1.561 . S
C1541 C1538 1.526 . S
C1541 C1542 1.396 1_565 S
C1541 C1546 1.390 . S
C1542 C1536 1.465 . S
C1542 C1541 1.396 1_545 S
C1542 C1543 1.399 . S
C1543 H1529 0.929 . S
C1543 C1542 1.399 . S
C1543 C1544 1.385 . S
C1544 H1530 0.931 . S
C1544 C1543 1.385 . S
C1544 C1545 1.389 . S
C1545 C1544 1.389 . S
C1545 C1546 1.387 1_545 S
C1546 H1531 0.930 . S
C1546 C1541 1.390 . S
C1546 C1545 1.387 1_565 S
H1547 C1559 0.930 . S
H1548 C1561 0.930 . S
H1549 C1562 0.930 . S
H1550 C1566 0.959 . S
H1551 C1566 0.959 . S
H1552 C1566 0.961 . S
H1553 C1567 0.960 . S
H1554 C1567 0.961 . S
H1555 C1567 0.959 . S
H1556 C1570 0.929 . S
H1557 C1571 0.931 . S
H1558 C1573 0.930 . S
C1559 H1547 0.930 . S
C1559 C1560 1.399 . S
C1559 C1564 1.399 . S
C1560 C1559 1.399 . S
C1560 C1561 1.376 . S
C1561 H1548 0.930 . S
C1561 C1560 1.376 . S
C1561 C1562 1.388 . S
C1562 H1549 0.930 . S
C1562 C1561 1.388 . S
C1562 C1563 1.390 . S
C1563 C1562 1.390 . S
C1563 C1564 1.394 . S
C1563 C1569 1.465 . S
C1564 C1559 1.399 . S
C1564 C1563 1.394 . S
C1564 C1565 1.516 . S
C1565 C1564 1.516 . S
C1565 C1566 1.502 . S
C1565 C1567 1.561 . S
C1565 C1568 1.526 . S
C1566 H1550 0.959 . S
C1566 H1551 0.959 . S
C1566 H1552 0.961 . S
C1566 C1565 1.502 . S
C1567 H1553 0.960 . S
C1567 H1554 0.961 . S
C1567 H1555 0.959 . S
C1567 C1565 1.561 . S
C1568 C1565 1.526 . S
C1568 C1569 1.396 . S
C1568 C1573 1.390 . S
C1569 C1563 1.465 . S
C1569 C1568 1.396 . S
C1569 C1570 1.399 . S
C1570 H1556 0.929 . S
C1570 C1569 1.399 . S
C1570 C1571 1.385 . S
C1571 H1557 0.931 . S
C1571 C1570 1.385 . S
C1571 C1572 1.389 . S
C1572 C1571 1.389 . S
C1572 C1573 1.387 . S
C1573 H1558 0.930 . S
C1573 C1568 1.390 . S
C1573 C1572 1.387 . S
H1574 C1586 0.930 . S
H1575 C1588 0.922 1_565 S
H1576 C1589 0.930 1_565 S
H1577 C1593 0.959 . S
H1578 C1593 0.959 . S
H1579 C1593 0.961 . S
H1580 C1594 0.960 . S
H1581 C1594 0.961 . S
H1582 C1594 0.959 . S
H1583 C1597 0.949 . S
H1584 C1598 0.931 1_565 S
H1585 C1600 0.930 . S
C1586 H1574 0.930 . S
C1586 C1587 1.399 . S
C1586 C1591 1.399 . S
C1587 C1586 1.399 . S
C1587 C1588 1.376 . S
C1588 H1575 0.922 1_545 S
C1588 C1587 1.376 . S
C1588 C1589 1.388 . S
C1589 H1576 0.930 1_545 S
C1589 C1588 1.388 . S
C1589 C1590 1.390 . S
C1590 C1589 1.390 . S
C1590 C1591 1.394 . S
C1590 C1596 1.465 . S
C1591 C1586 1.399 . S
C1591 C1590 1.394 . S
C1591 C1592 1.516 . S
C1592 C1591 1.516 . S
C1592 C1593 1.502 . S
C1592 C1594 1.561 . S
C1592 C1595 1.526 . S
C1593 H1577 0.959 . S
C1593 H1578 0.959 . S
C1593 H1579 0.961 . S
C1593 C1592 1.502 . S
C1594 H1580 0.960 . S
C1594 H1581 0.961 . S
C1594 H1582 0.959 . S
C1594 C1592 1.561 . S
C1595 C1592 1.526 . S
C1595 C1596 1.396 . S
C1595 C1600 1.390 . S
C1596 C1590 1.465 . S
C1596 C1595 1.396 . S
C1596 C1597 1.378 1_545 S
C1597 H1583 0.949 . S
C1597 C1596 1.378 1_565 S
C1597 C1598 1.387 1_565 S
C1598 H1584 0.931 1_545 S
C1598 C1597 1.387 1_545 S
C1598 C1599 1.389 . S
C1599 C1598 1.389 . S
C1599 C1600 1.387 . S
C1600 H1585 0.930 . S
C1600 C1595 1.390 . S
C1600 C1599 1.387 . S
H1601 C1613 0.930 . S
H1602 C1615 0.930 . S
H1603 C1616 0.930 . S
H1604 C1620 0.959 . S
H1605 C1620 0.959 . S
H1606 C1620 0.961 . S
H1607 C1621 0.960 . S
H1608 C1621 0.961 . S
H1609 C1621 0.959 . S
H1610 C1624 0.929 . S
H1611 C1625 0.931 . S
H1612 C1627 0.930 . S
C1613 H1601 0.930 . S
C1613 C1614 1.399 . S
C1613 C1618 1.399 . S
C1614 C1613 1.399 . S
C1614 C1615 1.376 . S
C1615 H1602 0.930 . S
C1615 C1614 1.376 . S
C1615 C1616 1.388 . S
C1616 H1603 0.930 . S
C1616 C1615 1.388 . S
C1616 C1617 1.390 . S
C1617 C1616 1.390 . S
C1617 C1618 1.394 . S
C1617 C1623 1.465 . S
C1618 C1613 1.399 . S
C1618 C1617 1.394 . S
C1618 C1619 1.516 . S
C1619 C1618 1.516 . S
C1619 C1620 1.502 . S
C1619 C1621 1.561 . S
C1619 C1622 1.526 . S
C1620 H1604 0.959 . S
C1620 H1605 0.959 . S
C1620 H1606 0.961 . S
C1620 C1619 1.502 . S
C1621 H1607 0.960 . S
C1621 H1608 0.961 . S
C1621 H1609 0.959 . S
C1621 C1619 1.561 . S
C1622 C1619 1.526 . S
C1622 C1623 1.396 . S
C1622 C1627 1.390 . S
C1623 C1617 1.465 . S
C1623 C1622 1.396 . S
C1623 C1624 1.399 . S
C1624 H1610 0.929 . S
C1624 C1623 1.399 . S
C1624 C1625 1.385 . S
C1625 H1611 0.931 . S
C1625 C1624 1.385 . S
C1625 C1626 1.389 . S
C1626 C1625 1.389 . S
C1626 C1627 1.387 . S
C1627 H1612 0.930 . S
C1627 C1622 1.390 . S
C1627 C1626 1.387 . S
H1628 C1640 0.930 . S
H1629 C1642 0.930 . S
H1630 C1643 0.930 . S
H1631 C1647 0.959 . S
H1632 C1647 0.959 . S
H1633 C1647 0.961 . S
H1634 C1648 0.960 . S
H1635 C1648 0.961 . S
H1636 C1648 0.959 . S
H1637 C1651 0.929 . S
H1638 C1652 0.931 . S
H1639 C1654 0.930 . S
C1640 H1628 0.930 . S
C1640 C1641 1.399 1_565 S
C1640 C1645 1.399 . S
C1641 C1640 1.399 1_545 S
C1641 C1642 1.376 . S
C1642 H1629 0.930 . S
C1642 C1641 1.376 . S
C1642 C1643 1.388 . S
C1643 H1630 0.930 . S
C1643 C1642 1.388 . S
C1643 C1644 1.390 . S
C1644 C1643 1.390 . S
C1644 C1645 1.394 1_545 S
C1644 C1650 1.465 . S
C1645 C1640 1.399 . S
C1645 C1644 1.394 1_565 S
C1645 C1646 1.516 . S
C1646 C1645 1.516 . S
C1646 C1647 1.502 . S
C1646 C1648 1.561 . S
C1646 C1649 1.521 1_565 S
C1647 H1631 0.959 . S
C1647 H1632 0.959 . S
C1647 H1633 0.961 . S
C1647 C1646 1.502 . S
C1648 H1634 0.960 . S
C1648 H1635 0.961 . S
C1648 H1636 0.959 . S
C1648 C1646 1.561 . S
C1649 C1646 1.521 1_545 S
C1649 C1650 1.401 . S
C1649 C1654 1.390 1_545 S
C1650 C1644 1.465 . S
C1650 C1649 1.401 . S
C1650 C1651 1.399 . S
C1651 H1637 0.929 . S
C1651 C1650 1.399 . S
C1651 C1652 1.385 . S
C1652 H1638 0.931 . S
C1652 C1651 1.385 . S
C1652 C1653 1.389 . S
C1653 C1652 1.389 . S
C1653 C1654 1.387 1_545 S
C1654 H1639 0.930 . S
C1654 C1649 1.390 1_565 S
C1654 C1653 1.387 1_565 S
H1655 C1667 0.930 . S
H1656 C1669 0.930 . S
H1657 C1670 0.930 . S
H1658 C1674 0.959 . S
H1659 C1674 0.959 . S
H1660 C1674 0.961 . S
H1661 C1675 0.960 . S
H1662 C1675 0.961 . S
H1663 C1675 0.959 . S
H1664 C1678 0.929 . S
H1665 C1679 0.931 . S
H1666 C1681 0.930 . S
C1667 H1655 0.930 . S
C1667 C1668 1.399 . S
C1667 C1672 1.399 . S
C1668 C1667 1.399 . S
C1668 C1669 1.376 . S
C1669 H1656 0.930 . S
C1669 C1668 1.376 . S
C1669 C1670 1.388 . S
C1670 H1657 0.930 . S
C1670 C1669 1.388 . S
C1670 C1671 1.390 . S
C1671 C1670 1.390 . S
C1671 C1672 1.394 . S
C1671 C1677 1.465 . S
C1672 C1667 1.399 . S
C1672 C1671 1.394 . S
C1672 C1673 1.516 . S
C1673 C1672 1.516 . S
C1673 C1674 1.502 . S
C1673 C1675 1.561 . S
C1673 C1676 1.526 . S
C1674 H1658 0.959 . S
C1674 H1659 0.959 . S
C1674 H1660 0.961 . S
C1674 C1673 1.502 . S
C1675 H1661 0.960 . S
C1675 H1662 0.961 . S
C1675 H1663 0.959 . S
C1675 C1673 1.561 . S
C1676 C1673 1.526 . S
C1676 C1677 1.396 . S
C1676 C1681 1.390 . S
C1677 C1671 1.465 . S
C1677 C1676 1.396 . S
C1677 C1678 1.399 . S
C1678 H1664 0.929 . S
C1678 C1677 1.399 . S
C1678 C1679 1.385 . S
C1679 H1665 0.931 . S
C1679 C1678 1.385 . S
C1679 C1680 1.389 . S
C1680 C1679 1.389 . S
C1680 C1681 1.387 . S
C1681 H1666 0.930 . S
C1681 C1676 1.390 . S
C1681 C1680 1.387 . S
H1682 C1694 0.930 1_565 S
H1683 C1696 0.930 . S
H1684 C1697 0.930 . S
H1685 C1701 0.959 . S
H1686 C1701 0.959 . S
H1687 C1701 0.961 . S
H1688 C1702 0.960 . S
H1689 C1702 0.961 . S
H1690 C1702 0.959 . S
H1691 C1705 0.929 . S
H1692 C1706 0.931 . S
H1693 C1708 0.930 . S
C1694 H1682 0.930 1_545 S
C1694 C1695 1.399 . S
C1694 C1699 1.399 . S
C1695 C1694 1.399 . S
C1695 C1696 1.376 . S
C1696 H1683 0.930 . S
C1696 C1695 1.376 . S
C1696 C1697 1.388 . S
C1697 H1684 0.930 . S
C1697 C1696 1.388 . S
C1697 C1698 1.390 . S
C1698 C1697 1.390 . S
C1698 C1699 1.394 . S
C1698 C1704 1.465 . S
C1699 C1694 1.399 . S
C1699 C1698 1.394 . S
C1699 C1700 1.516 1_545 S
C1700 C1699 1.516 1_565 S
C1700 C1701 1.502 . S
C1700 C1702 1.561 . S
C1700 C1703 1.526 . S
C1701 H1685 0.959 . S
C1701 H1686 0.959 . S
C1701 H1687 0.961 . S
C1701 C1700 1.502 . S
C1702 H1688 0.960 . S
C1702 H1689 0.961 . S
C1702 H1690 0.959 . S
C1702 C1700 1.561 . S
C1703 C1700 1.526 . S
C1703 C1704 1.396 1_565 S
C1703 C1708 1.390 . S
C1704 C1698 1.465 . S
C1704 C1703 1.396 1_545 S
C1704 C1705 1.399 . S
C1705 H1691 0.929 . S
C1705 C1704 1.399 . S
C1705 C1706 1.385 . S
C1706 H1692 0.931 . S
C1706 C1705 1.385 . S
C1706 C1707 1.389 . S
C1707 C1706 1.389 . S
C1707 C1708 1.387 1_545 S
C1708 H1693 0.930 . S
C1708 C1703 1.390 . S
C1708 C1707 1.387 1_565 S
H1709 C1721 0.930 . S
H1710 C1723 0.930 . S
H1711 C1724 0.930 . S
H1712 C1728 0.959 . S
H1713 C1728 0.959 . S
H1714 C1728 0.961 . S
H1715 C1729 0.960 . S
H1716 C1729 0.961 . S
H1717 C1729 0.959 . S
H1718 C1732 0.929 . S
H1719 C1733 0.931 . S
H1720 C1735 0.930 . S
C1721 H1709 0.930 . S
C1721 C1722 1.399 . S
C1721 C1726 1.399 . S
C1722 C1721 1.399 . S
C1722 C1723 1.376 . S
C1723 H1710 0.930 . S
C1723 C1722 1.376 . S
C1723 C1724 1.388 . S
C1724 H1711 0.930 . S
C1724 C1723 1.388 . S
C1724 C1725 1.390 . S
C1725 C1724 1.390 . S
C1725 C1726 1.394 . S
C1725 C1731 1.465 . S
C1726 C1721 1.399 . S
C1726 C1725 1.394 . S
C1726 C1727 1.516 . S
C1727 C1726 1.516 . S
C1727 C1728 1.502 . S
C1727 C1729 1.561 . S
C1727 C1730 1.526 . S
C1728 H1712 0.959 . S
C1728 H1713 0.959 . S
C1728 H1714 0.961 . S
C1728 C1727 1.502 . S
C1729 H1715 0.960 . S
C1729 H1716 0.961 . S
C1729 H1717 0.959 . S
C1729 C1727 1.561 . S
C1730 C1727 1.526 . S
C1730 C1731 1.396 . S
C1730 C1735 1.390 . S
C1731 C1725 1.465 . S
C1731 C1730 1.396 . S
C1731 C1732 1.399 . S
C1732 H1718 0.929 . S
C1732 C1731 1.399 . S
C1732 C1733 1.385 . S
C1733 H1719 0.931 . S
C1733 C1732 1.385 . S
C1733 C1734 1.389 . S
C1734 C1733 1.389 . S
C1734 C1735 1.387 . S
C1735 H1720 0.930 . S
C1735 C1730 1.390 . S
C1735 C1734 1.387 . S
H1736 C1748 0.930 . S
H1737 C1750 0.930 1_556 S
H1738 C1751 0.930 . S
H1739 C1755 0.959 . S
H1740 C1755 0.959 . S
H1741 C1755 0.961 . S
H1742 C1756 0.960 . S
H1743 C1756 0.961 . S
H1744 C1756 0.959 . S
H1745 C1759 0.929 . S
H1746 C1760 0.931 . S
H1747 C1762 0.930 . S
C1748 H1736 0.930 . S
C1748 C1749 1.399 . S
C1748 C1753 1.399 . S
C1749 C1748 1.399 . S
C1749 C1750 1.376 . S
C1750 H1737 0.930 1_554 S
C1750 C1749 1.376 . S
C1750 C1751 1.388 1_554 S
C1751 H1738 0.930 . S
C1751 C1750 1.388 1_556 S
C1751 C1752 1.390 1_556 S
C1752 C1751 1.390 1_554 S
C1752 C1753 1.394 . S
C1752 C1758 1.465 . S
C1753 C1748 1.399 . S
C1753 C1752 1.394 . S
C1753 C1754 1.516 . S
C1754 C1753 1.516 . S
C1754 C1755 1.502 . S
C1754 C1756 1.561 . S
C1754 C1757 1.526 . S
C1755 H1739 0.959 . S
C1755 H1740 0.959 . S
C1755 H1741 0.961 . S
C1755 C1754 1.502 . S
C1756 H1742 0.960 . S
C1756 H1743 0.961 . S
C1756 H1744 0.959 . S
C1756 C1754 1.561 . S
C1757 C1754 1.526 . S
C1757 C1758 1.396 . S
C1757 C1762 1.390 . S
C1758 C1752 1.465 . S
C1758 C1757 1.396 . S
C1758 C1759 1.399 1_554 S
C1759 H1745 0.929 . S
C1759 C1758 1.399 1_556 S
C1759 C1760 1.385 . S
C1760 H1746 0.931 . S
C1760 C1759 1.385 . S
C1760 C1761 1.389 1_556 S
C1761 C1760 1.389 1_554 S
C1761 C1762 1.387 . S
C1762 H1747 0.930 . S
C1762 C1757 1.390 . S
C1762 C1761 1.387 . S
H1763 C1775 0.930 . S
H1764 C1777 0.930 . S
H1765 C1778 0.930 . S
H1766 C1782 0.959 . S
H1767 C1782 0.959 . S
H1768 C1782 0.961 . S
H1769 C1783 0.960 . S
H1770 C1783 0.961 . S
H1771 C1783 0.959 . S
H1772 C1786 0.929 . S
H1773 C1787 0.931 . S
H1774 C1789 0.930 . S
C1775 H1763 0.930 . S
C1775 C1776 1.399 . S
C1775 C1780 1.399 . S
C1776 C1775 1.399 . S
C1776 C1777 1.376 . S
C1777 H1764 0.930 . S
C1777 C1776 1.376 . S
C1777 C1778 1.388 . S
C1778 H1765 0.930 . S
C1778 C1777 1.388 . S
C1778 C1779 1.390 . S
C1779 C1778 1.390 . S
C1779 C1780 1.394 . S
C1779 C1785 1.465 . S
C1780 C1775 1.399 . S
C1780 C1779 1.394 . S
C1780 C1781 1.516 . S
C1781 C1780 1.516 . S
C1781 C1782 1.502 . S
C1781 C1783 1.561 1_554 S
C1781 C1784 1.526 . S
C1782 H1766 0.959 . S
C1782 H1767 0.959 . S
C1782 H1768 0.961 . S
C1782 C1781 1.502 . S
C1783 H1769 0.960 . S
C1783 H1770 0.961 . S
C1783 H1771 0.959 . S
C1783 C1781 1.561 1_556 S
C1784 C1781 1.526 . S
C1784 C1785 1.396 . S
C1784 C1789 1.390 . S
C1785 C1779 1.465 . S
C1785 C1784 1.396 . S
C1785 C1786 1.399 . S
C1786 H1772 0.929 . S
C1786 C1785 1.399 . S
C1786 C1787 1.385 . S
C1787 H1773 0.931 . S
C1787 C1786 1.385 . S
C1787 C1788 1.389 . S
C1788 C1787 1.389 . S
C1788 C1789 1.387 . S
C1789 H1774 0.930 . S
C1789 C1784 1.390 . S
C1789 C1788 1.387 . S
H1790 C1802 0.930 . S
H1791 C1804 0.930 . S
H1792 C1805 0.930 . S
H1793 C1809 0.959 . S
H1794 C1809 0.959 . S
H1795 C1809 0.961 . S
H1796 C1810 0.960 . S
H1797 C1810 0.961 . S
H1798 C1810 0.959 . S
H1799 C1813 0.929 . S
H1800 C1814 0.931 . S
H1801 C1816 0.930 . S
C1802 H1790 0.930 . S
C1802 C1803 1.399 . S
C1802 C1807 1.399 . S
C1803 C1802 1.399 . S
C1803 C1804 1.376 . S
C1804 H1791 0.930 . S
C1804 C1803 1.376 . S
C1804 C1805 1.388 . S
C1805 H1792 0.930 . S
C1805 C1804 1.388 . S
C1805 C1806 1.390 . S
C1806 C1805 1.390 . S
C1806 C1807 1.394 . S
C1806 C1812 1.465 . S
C1807 C1802 1.399 . S
C1807 C1806 1.394 . S
C1807 C1808 1.516 . S
C1808 C1807 1.516 . S
C1808 C1809 1.502 . S
C1808 C1810 1.561 . S
C1808 C1811 1.526 . S
C1809 H1793 0.959 . S
C1809 H1794 0.959 . S
C1809 H1795 0.961 . S
C1809 C1808 1.502 . S
C1810 H1796 0.960 . S
C1810 H1797 0.961 . S
C1810 H1798 0.959 . S
C1810 C1808 1.561 . S
C1811 C1808 1.526 . S
C1811 C1812 1.396 . S
C1811 C1816 1.390 . S
C1812 C1806 1.465 . S
C1812 C1811 1.396 . S
C1812 C1813 1.399 . S
C1813 H1799 0.929 . S
C1813 C1812 1.399 . S
C1813 C1814 1.385 . S
C1814 H1800 0.931 . S
C1814 C1813 1.385 . S
C1814 C1815 1.389 . S
C1815 C1814 1.389 . S
C1815 C1816 1.387 . S
C1816 H1801 0.930 . S
C1816 C1811 1.390 . S
C1816 C1815 1.387 . S
H1817 C1829 0.930 . S
H1818 C1831 0.930 . S
H1819 C1832 0.930 . S
H1820 C1836 0.959 . S
H1821 C1836 0.959 . S
H1822 C1836 0.961 . S
H1823 C1837 0.960 . S
H1824 C1837 0.961 . S
H1825 C1837 0.959 . S
H1826 C1840 0.929 . S
H1827 C1841 0.931 . S
H1828 C1843 0.930 . S
C1829 H1817 0.930 . S
C1829 C1830 1.399 . S
C1829 C1834 1.399 . S
C1830 C1829 1.399 . S
C1830 C1831 1.376 . S
C1831 H1818 0.930 . S
C1831 C1830 1.376 . S
C1831 C1832 1.388 . S
C1832 H1819 0.930 . S
C1832 C1831 1.388 . S
C1832 C1833 1.390 . S
C1833 C1832 1.390 . S
C1833 C1834 1.394 . S
C1833 C1839 1.465 . S
C1834 C1829 1.399 . S
C1834 C1833 1.394 . S
C1834 C1835 1.516 . S
C1835 C1834 1.516 . S
C1835 C1836 1.502 . S
C1835 C1837 1.561 . S
C1835 C1838 1.526 . S
C1836 H1820 0.959 . S
C1836 H1821 0.959 . S
C1836 H1822 0.961 . S
C1836 C1835 1.502 . S
C1837 H1823 0.960 . S
C1837 H1824 0.961 . S
C1837 H1825 0.959 . S
C1837 C1835 1.561 . S
C1838 C1835 1.526 . S
C1838 C1839 1.396 . S
C1838 C1843 1.390 . S
C1839 C1833 1.465 . S
C1839 C1838 1.396 . S
C1839 C1840 1.399 . S
C1840 H1826 0.929 . S
C1840 C1839 1.399 . S
C1840 C1841 1.385 . S
C1841 H1827 0.931 . S
C1841 C1840 1.385 . S
C1841 C1842 1.389 . S
C1842 C1841 1.389 . S
C1842 C1843 1.387 . S
C1843 H1828 0.930 . S
C1843 C1838 1.390 . S
C1843 C1842 1.387 . S
H1844 C1856 0.930 . S
H1845 C1858 0.930 . S
H1846 C1859 0.930 . S
H1847 C1863 0.959 . S
H1848 C1863 0.959 . S
H1849 C1863 0.961 . S
H1850 C1864 0.960 . S
H1851 C1864 0.961 . S
H1852 C1864 0.959 . S
H1853 C1867 0.929 . S
H1854 C1868 0.931 . S
H1855 C1870 0.930 . S
C1856 H1844 0.930 . S
C1856 C1857 1.399 . S
C1856 C1861 1.399 . S
C1857 C1856 1.399 . S
C1857 C1858 1.376 . S
C1858 H1845 0.930 . S
C1858 C1857 1.376 . S
C1858 C1859 1.388 . S
C1859 H1846 0.930 . S
C1859 C1858 1.388 . S
C1859 C1860 1.390 . S
C1860 C1859 1.390 . S
C1860 C1861 1.394 . S
C1860 C1866 1.465 . S
C1861 C1856 1.399 . S
C1861 C1860 1.394 . S
C1861 C1862 1.516 . S
C1862 C1861 1.516 . S
C1862 C1863 1.502 . S
C1862 C1864 1.561 . S
C1862 C1865 1.526 . S
C1863 H1847 0.959 . S
C1863 H1848 0.959 . S
C1863 H1849 0.961 . S
C1863 C1862 1.502 . S
C1864 H1850 0.960 . S
C1864 H1851 0.961 . S
C1864 H1852 0.959 . S
C1864 C1862 1.561 . S
C1865 C1862 1.526 . S
C1865 C1866 1.396 . S
C1865 C1870 1.390 . S
C1866 C1860 1.465 . S
C1866 C1865 1.396 . S
C1866 C1867 1.399 . S
C1867 H1853 0.929 . S
C1867 C1866 1.399 . S
C1867 C1868 1.385 . S
C1868 H1854 0.931 . S
C1868 C1867 1.385 . S
C1868 C1869 1.389 . S
C1869 C1868 1.389 . S
C1869 C1870 1.387 . S
C1870 H1855 0.930 . S
C1870 C1865 1.390 . S
C1870 C1869 1.387 . S
H1871 C1883 0.930 . S
H1872 C1885 0.930 . S
H1873 C1886 0.930 . S
H1874 C1890 0.959 . S
H1875 C1890 0.959 . S
H1876 C1890 0.961 . S
H1877 C1891 0.960 . S
H1878 C1891 0.961 . S
H1879 C1891 0.959 . S
H1880 C1894 0.929 . S
H1881 C1895 0.931 . S
H1882 C1897 0.930 . S
C1883 H1871 0.930 . S
C1883 C1884 1.399 . S
C1883 C1888 1.399 . S
C1884 C1883 1.399 . S
C1884 C1885 1.376 . S
C1885 H1872 0.930 . S
C1885 C1884 1.376 . S
C1885 C1886 1.388 . S
C1886 H1873 0.930 . S
C1886 C1885 1.388 . S
C1886 C1887 1.390 . S
C1887 C1886 1.390 . S
C1887 C1888 1.394 . S
C1887 C1893 1.465 . S
C1888 C1883 1.399 . S
C1888 C1887 1.394 . S
C1888 C1889 1.516 . S
C1889 C1888 1.516 . S
C1889 C1890 1.502 . S
C1889 C1891 1.561 . S
C1889 C1892 1.526 . S
C1890 H1874 0.959 . S
C1890 H1875 0.959 . S
C1890 H1876 0.961 . S
C1890 C1889 1.502 . S
C1891 H1877 0.960 . S
C1891 H1878 0.961 . S
C1891 H1879 0.959 . S
C1891 C1889 1.561 . S
C1892 C1889 1.526 . S
C1892 C1893 1.396 . S
C1892 C1897 1.390 . S
C1893 C1887 1.465 . S
C1893 C1892 1.396 . S
C1893 C1894 1.399 . S
C1894 H1880 0.929 . S
C1894 C1893 1.399 . S
C1894 C1895 1.385 . S
C1895 H1881 0.931 . S
C1895 C1894 1.385 . S
C1895 C1896 1.389 . S
C1896 C1895 1.389 . S
C1896 C1897 1.387 . S
C1897 H1882 0.930 . S
C1897 C1892 1.390 . S
C1897 C1896 1.387 . S
H1898 C1910 0.930 . S
H1899 C1912 0.930 . S
H1900 C1913 0.930 . S
H1901 C1917 0.959 . S
H1902 C1917 0.959 . S
H1903 C1917 0.961 . S
H1904 C1918 0.960 . S
H1905 C1918 0.961 . S
H1906 C1918 0.959 . S
H1907 C1921 0.929 . S
H1908 C1922 0.931 . S
H1909 C1924 0.930 . S
C1910 H1898 0.930 . S
C1910 C1911 1.399 . S
C1910 C1915 1.399 . S
C1911 C1910 1.399 . S
C1911 C1912 1.376 . S
C1912 H1899 0.930 . S
C1912 C1911 1.376 . S
C1912 C1913 1.388 . S
C1913 H1900 0.930 . S
C1913 C1912 1.388 . S
C1913 C1914 1.390 . S
C1914 C1913 1.390 . S
C1914 C1915 1.394 . S
C1914 C1920 1.465 . S
C1915 C1910 1.399 . S
C1915 C1914 1.394 . S
C1915 C1916 1.516 . S
C1916 C1915 1.516 . S
C1916 C1917 1.502 . S
C1916 C1918 1.561 . S
C1916 C1919 1.526 . S
C1917 H1901 0.959 . S
C1917 H1902 0.959 . S
C1917 H1903 0.961 . S
C1917 C1916 1.502 . S
C1918 H1904 0.960 . S
C1918 H1905 0.961 . S
C1918 H1906 0.959 . S
C1918 C1916 1.561 . S
C1919 C1916 1.526 . S
C1919 C1920 1.396 . S
C1919 C1924 1.390 . S
C1920 C1914 1.465 . S
C1920 C1919 1.396 . S
C1920 C1921 1.399 . S
C1921 H1907 0.929 . S
C1921 C1920 1.399 . S
C1921 C1922 1.385 . S
C1922 H1908 0.931 . S
C1922 C1921 1.385 . S
C1922 C1923 1.389 . S
C1923 C1922 1.389 . S
C1923 C1924 1.387 . S
C1924 H1909 0.930 . S
C1924 C1919 1.390 . S
C1924 C1923 1.387 . S
H1925 C1937 0.930 . S
H1926 C1939 0.930 . S
H1927 C1940 0.930 . S
H1928 C1944 0.959 . S
H1929 C1944 0.959 . S
H1930 C1944 0.961 . S
H1931 C1945 0.960 . S
H1932 C1945 0.961 . S
H1933 C1945 0.959 . S
H1934 C1948 0.929 . S
H1935 C1949 0.931 . S
H1936 C1951 0.930 . S
C1937 H1925 0.930 . S
C1937 C1938 1.399 . S
C1937 C1942 1.399 . S
C1938 C1937 1.399 . S
C1938 C1939 1.376 . S
C1939 H1926 0.930 . S
C1939 C1938 1.376 . S
C1939 C1940 1.388 . S
C1940 H1927 0.930 . S
C1940 C1939 1.388 . S
C1940 C1941 1.390 . S
C1941 C1940 1.390 . S
C1941 C1942 1.394 . S
C1941 C1947 1.465 . S
C1942 C1937 1.399 . S
C1942 C1941 1.394 . S
C1942 C1943 1.516 . S
C1943 C1942 1.516 . S
C1943 C1944 1.502 . S
C1943 C1945 1.561 . S
C1943 C1946 1.526 . S
C1944 H1928 0.959 . S
C1944 H1929 0.959 . S
C1944 H1930 0.961 . S
C1944 C1943 1.502 . S
C1945 H1931 0.960 . S
C1945 H1932 0.961 . S
C1945 H1933 0.959 . S
C1945 C1943 1.561 . S
C1946 C1943 1.526 . S
C1946 C1947 1.396 . S
C1946 C1951 1.390 . S
C1947 C1941 1.465 . S
C1947 C1946 1.396 . S
C1947 C1948 1.399 . S
C1948 H1934 0.929 . S
C1948 C1947 1.399 . S
C1948 C1949 1.385 . S
C1949 H1935 0.931 . S
C1949 C1948 1.385 . S
C1949 C1950 1.389 . S
C1950 C1949 1.389 . S
C1950 C1951 1.387 . S
C1951 H1936 0.930 . S
C1951 C1946 1.390 . S
C1951 C1950 1.387 . S
H1952 C1964 0.930 . S
H1953 C1966 0.930 . S
H1954 C1967 0.930 . S
H1955 C1971 0.959 . S
H1956 C1971 0.959 . S
H1957 C1971 0.961 . S
H1958 C1972 0.960 . S
H1959 C1972 0.961 . S
H1960 C1972 0.959 . S
H1961 C1975 0.929 . S
H1962 C1976 0.931 . S
H1963 C1978 0.930 . S
C1964 H1952 0.930 . S
C1964 C1965 1.399 . S
C1964 C1969 1.399 . S
C1965 C1964 1.399 . S
C1965 C1966 1.376 . S
C1966 H1953 0.930 . S
C1966 C1965 1.376 . S
C1966 C1967 1.388 . S
C1967 H1954 0.930 . S
C1967 C1966 1.388 . S
C1967 C1968 1.390 . S
C1968 C1967 1.390 . S
C1968 C1969 1.394 . S
C1968 C1974 1.465 . S
C1969 C1964 1.399 . S
C1969 C1968 1.394 . S
C1969 C1970 1.516 . S
C1970 C1969 1.516 . S
C1970 C1971 1.502 . S
C1970 C1972 1.561 . S
C1970 C1973 1.526 . S
C1971 H1955 0.959 . S
C1971 H1956 0.959 . S
C1971 H1957 0.961 . S
C1971 C1970 1.502 . S
C1972 H1958 0.960 . S
C1972 H1959 0.961 . S
C1972 H1960 0.959 . S
C1972 C1970 1.561 . S
C1973 C1970 1.526 . S
C1973 C1974 1.396 . S
C1973 C1978 1.390 . S
C1974 C1968 1.465 . S
C1974 C1973 1.396 . S
C1974 C1975 1.399 . S
C1975 H1961 0.929 . S
C1975 C1974 1.399 . S
C1975 C1976 1.385 . S
C1976 H1962 0.931 . S
C1976 C1975 1.385 . S
C1976 C1977 1.389 . S
C1977 C1976 1.389 . S
C1977 C1978 1.387 . S
C1978 H1963 0.930 . S
C1978 C1973 1.390 . S
C1978 C1977 1.387 . S
H1979 C1991 0.930 . S
H1980 C1993 0.930 . S
H1981 C1994 0.930 . S
H1982 C1998 0.959 . S
H1983 C1998 0.959 . S
H1984 C1998 0.961 . S
H1985 C1999 0.960 . S
H1986 C1999 0.961 . S
H1987 C1999 0.959 . S
H1988 C2002 0.929 . S
H1989 C2003 0.931 . S
H1990 C2005 0.930 . S
C1991 H1979 0.930 . S
C1991 C1992 1.399 . S
C1991 C1996 1.399 . S
C1992 C1991 1.399 . S
C1992 C1993 1.376 . S
C1993 H1980 0.930 . S
C1993 C1992 1.376 . S
C1993 C1994 1.388 . S
C1994 H1981 0.930 . S
C1994 C1993 1.388 . S
C1994 C1995 1.390 . S
C1995 C1994 1.390 . S
C1995 C1996 1.394 . S
C1995 C2001 1.465 . S
C1996 C1991 1.399 . S
C1996 C1995 1.394 . S
C1996 C1997 1.516 . S
C1997 C1996 1.516 . S
C1997 C1998 1.502 . S
C1997 C1999 1.561 . S
C1997 C2000 1.526 . S
C1998 H1982 0.959 . S
C1998 H1983 0.959 . S
C1998 H1984 0.961 . S
C1998 C1997 1.502 . S
C1999 H1985 0.960 . S
C1999 H1986 0.961 . S
C1999 H1987 0.959 . S
C1999 C1997 1.561 . S
C2000 C1997 1.526 . S
C2000 C2001 1.396 . S
C2000 C2005 1.390 . S
C2001 C1995 1.465 . S
C2001 C2000 1.396 . S
C2001 C2002 1.399 . S
C2002 H1988 0.929 . S
C2002 C2001 1.399 . S
C2002 C2003 1.385 . S
C2003 H1989 0.931 . S
C2003 C2002 1.385 . S
C2003 C2004 1.389 . S
C2004 C2003 1.389 . S
C2004 C2005 1.387 . S
C2005 H1990 0.930 . S
C2005 C2000 1.390 . S
C2005 C2004 1.387 . S
H2006 C2018 0.930 . S
H2007 C2020 0.930 . S
H2008 C2021 0.930 . S
H2009 C2025 0.959 . S
H2010 C2025 0.959 . S
H2011 C2025 0.961 . S
H2012 C2026 0.960 . S
H2013 C2026 0.961 . S
H2014 C2026 0.959 . S
H2015 C2029 0.929 . S
H2016 C2030 0.931 . S
H2017 C2032 0.930 . S
C2018 H2006 0.930 . S
C2018 C2019 1.399 . S
C2018 C2023 1.399 . S
C2019 C2018 1.399 . S
C2019 C2020 1.376 . S
C2020 H2007 0.930 . S
C2020 C2019 1.376 . S
C2020 C2021 1.388 . S
C2021 H2008 0.930 . S
C2021 C2020 1.388 . S
C2021 C2022 1.390 . S
C2022 C2021 1.390 . S
C2022 C2023 1.394 . S
C2022 C2028 1.465 . S
C2023 C2018 1.399 . S
C2023 C2022 1.394 . S
C2023 C2024 1.516 1_455 S
C2024 C2023 1.516 1_655 S
C2024 C2025 1.502 1_655 S
C2024 C2026 1.561 . S
C2024 C2027 1.526 1_655 S
C2025 H2009 0.959 . S
C2025 H2010 0.959 . S
C2025 H2011 0.961 . S
C2025 C2024 1.502 1_455 S
C2026 H2012 0.960 . S
C2026 H2013 0.961 . S
C2026 H2014 0.959 . S
C2026 C2024 1.561 . S
C2027 C2024 1.526 1_455 S
C2027 C2028 1.396 . S
C2027 C2032 1.390 . S
C2028 C2022 1.465 . S
C2028 C2027 1.396 . S
C2028 C2029 1.399 1_556 S
C2029 H2015 0.929 . S
C2029 C2028 1.399 1_554 S
C2029 C2030 1.385 . S
C2030 H2016 0.931 . S
C2030 C2029 1.385 . S
C2030 C2031 1.389 1_554 S
C2031 C2030 1.389 1_556 S
C2031 C2032 1.387 . S
C2032 H2017 0.930 . S
C2032 C2027 1.390 . S
C2032 C2031 1.387 . S
H2033 C2045 0.930 . S
H2034 C2047 0.930 . S
H2035 C2048 0.930 . S
H2036 C2052 0.959 . S
H2037 C2052 0.959 . S
H2038 C2052 0.961 . S
H2039 C2053 0.960 . S
H2040 C2053 0.961 . S
H2041 C2053 0.959 . S
H2042 C2056 0.929 . S
H2043 C2057 0.931 . S
H2044 C2059 0.930 . S
C2045 H2033 0.930 . S
C2045 C2046 1.399 . S
C2045 C2050 1.399 . S
C2046 C2045 1.399 . S
C2046 C2047 1.376 . S
C2047 H2034 0.930 . S
C2047 C2046 1.376 . S
C2047 C2048 1.388 . S
C2048 H2035 0.930 . S
C2048 C2047 1.388 . S
C2048 C2049 1.390 . S
C2049 C2048 1.390 . S
C2049 C2050 1.394 . S
C2049 C2055 1.465 . S
C2050 C2045 1.399 . S
C2050 C2049 1.394 . S
C2050 C2051 1.516 . S
C2051 C2050 1.516 . S
C2051 C2052 1.502 . S
C2051 C2053 1.561 . S
C2051 C2054 1.526 . S
C2052 H2036 0.959 . S
C2052 H2037 0.959 . S
C2052 H2038 0.961 . S
C2052 C2051 1.502 . S
C2053 H2039 0.960 . S
C2053 H2040 0.961 . S
C2053 H2041 0.959 . S
C2053 C2051 1.561 . S
C2054 C2051 1.526 . S
C2054 C2055 1.396 . S
C2054 C2059 1.390 . S
C2055 C2049 1.465 . S
C2055 C2054 1.396 . S
C2055 C2056 1.399 . S
C2056 H2042 0.929 . S
C2056 C2055 1.399 . S
C2056 C2057 1.385 . S
C2057 H2043 0.931 . S
C2057 C2056 1.385 . S
C2057 C2058 1.389 . S
C2058 C2057 1.389 . S
C2058 C2059 1.387 . S
C2059 H2044 0.930 . S
C2059 C2054 1.390 . S
C2059 C2058 1.387 . S
H2060 C2072 0.930 . S
H2061 C2074 0.930 . S
H2062 C2075 0.930 . S
H2063 C2079 0.959 . S
H2064 C2079 0.959 . S
H2065 C2079 0.961 . S
H2066 C2080 0.960 . S
H2067 C2080 0.961 . S
H2068 C2080 0.959 . S
H2069 C2083 0.929 . S
H2070 C2084 0.931 . S
H2071 C2086 0.930 . S
C2072 H2060 0.930 . S
C2072 C2073 1.399 . S
C2072 C2077 1.399 . S
C2073 C2072 1.399 . S
C2073 C2074 1.376 . S
C2074 H2061 0.930 . S
C2074 C2073 1.376 . S
C2074 C2075 1.388 . S
C2075 H2062 0.930 . S
C2075 C2074 1.388 . S
C2075 C2076 1.390 . S
C2076 C2075 1.390 . S
C2076 C2077 1.394 . S
C2076 C2082 1.465 . S
C2077 C2072 1.399 . S
C2077 C2076 1.394 . S
C2077 C2078 1.516 . S
C2078 C2077 1.516 . S
C2078 C2079 1.502 . S
C2078 C2080 1.561 . S
C2078 C2081 1.526 . S
C2079 H2063 0.959 . S
C2079 H2064 0.959 . S
C2079 H2065 0.961 . S
C2079 C2078 1.502 . S
C2080 H2066 0.960 . S
C2080 H2067 0.961 . S
C2080 H2068 0.959 . S
C2080 C2078 1.561 . S
C2081 C2078 1.526 . S
C2081 C2082 1.396 . S
C2081 C2086 1.390 . S
C2082 C2076 1.465 . S
C2082 C2081 1.396 . S
C2082 C2083 1.399 . S
C2083 H2069 0.929 . S
C2083 C2082 1.399 . S
C2083 C2084 1.385 . S
C2084 H2070 0.931 . S
C2084 C2083 1.385 . S
C2084 C2085 1.389 . S
C2085 C2084 1.389 . S
C2085 C2086 1.387 . S
C2086 H2071 0.930 . S
C2086 C2081 1.390 . S
C2086 C2085 1.387 . S
H2087 C2099 0.930 . S
H2088 C2101 0.930 . S
H2089 C2102 0.930 . S
H2090 C2106 0.959 . S
H2091 C2106 0.959 . S
H2092 C2106 0.961 . S
H2093 C2107 0.960 . S
H2094 C2107 0.961 . S
H2095 C2107 0.959 . S
H2096 C2110 0.929 . S
H2097 C2111 0.931 . S
H2098 C2113 0.930 . S
C2099 H2087 0.930 . S
C2099 C2100 1.399 . S
C2099 C2104 1.399 . S
C2100 C2099 1.399 . S
C2100 C2101 1.376 . S
C2101 H2088 0.930 . S
C2101 C2100 1.376 . S
C2101 C2102 1.388 . S
C2102 H2089 0.930 . S
C2102 C2101 1.388 . S
C2102 C2103 1.390 . S
C2103 C2102 1.390 . S
C2103 C2104 1.394 . S
C2103 C2109 1.465 . S
C2104 C2099 1.399 . S
C2104 C2103 1.394 . S
C2104 C2105 1.516 . S
C2105 C2104 1.516 . S
C2105 C2106 1.502 . S
C2105 C2107 1.561 . S
C2105 C2108 1.526 . S
C2106 H2090 0.959 . S
C2106 H2091 0.959 . S
C2106 H2092 0.961 . S
C2106 C2105 1.502 . S
C2107 H2093 0.960 . S
C2107 H2094 0.961 . S
C2107 H2095 0.959 . S
C2107 C2105 1.561 . S
C2108 C2105 1.526 . S
C2108 C2109 1.396 . S
C2108 C2113 1.390 . S
C2109 C2103 1.465 . S
C2109 C2108 1.396 . S
C2109 C2110 1.399 . S
C2110 H2096 0.929 . S
C2110 C2109 1.399 . S
C2110 C2111 1.385 . S
C2111 H2097 0.931 . S
C2111 C2110 1.385 . S
C2111 C2112 1.389 . S
C2112 C2111 1.389 . S
C2112 C2113 1.387 . S
C2113 H2098 0.930 . S
C2113 C2108 1.390 . S
C2113 C2112 1.387 . S
H2114 C2126 0.930 . S
H2115 C2128 0.930 . S
H2116 C2129 0.930 . S
H2117 C2133 0.959 . S
H2118 C2133 0.959 . S
H2119 C2133 0.961 . S
H2120 C2134 0.960 . S
H2121 C2134 0.961 . S
H2122 C2134 0.959 1_455 S
H2123 C2137 0.929 . S
H2124 C2138 0.931 . S
H2125 C2140 0.930 . S
C2126 H2114 0.930 . S
C2126 C2127 1.399 1_655 S
C2126 C2131 1.399 . S
C2127 C2126 1.399 1_455 S
C2127 C2128 1.376 . S
C2128 H2115 0.930 . S
C2128 C2127 1.376 . S
C2128 C2129 1.388 . S
C2129 H2116 0.930 . S
C2129 C2128 1.388 . S
C2129 C2130 1.390 . S
C2130 C2129 1.390 . S
C2130 C2131 1.394 1_455 S
C2130 C2136 1.465 . S
C2131 C2126 1.399 . S
C2131 C2130 1.394 1_655 S
C2131 C2132 1.516 . S
C2132 C2131 1.516 . S
C2132 C2133 1.502 . S
C2132 C2134 1.561 . S
C2132 C2135 1.545 . S
C2133 H2117 0.959 . S
C2133 H2118 0.959 . S
C2133 H2119 0.961 . S
C2133 C2132 1.502 . S
C2134 H2120 0.960 . S
C2134 H2121 0.961 . S
C2134 H2122 0.959 1_655 S
C2134 C2132 1.561 . S
C2135 C2132 1.545 . S
C2135 C2136 1.378 1_655 S
C2135 C2140 1.388 . S
C2136 C2130 1.465 . S
C2136 C2135 1.378 1_455 S
C2136 C2137 1.399 . S
C2137 H2123 0.929 . S
C2137 C2136 1.399 . S
C2137 C2138 1.385 . S
C2138 H2124 0.931 . S
C2138 C2137 1.385 . S
C2138 C2139 1.389 . S
C2139 C2138 1.389 . S
C2139 C2140 1.387 1_455 S
C2140 H2125 0.930 . S
C2140 C2135 1.388 . S
C2140 C2139 1.387 1_655 S
H2141 C2153 0.930 . S
H2142 C2155 0.930 . S
H2143 C2156 0.930 . S
H2144 C2160 0.959 . S
H2145 C2160 0.959 . S
H2146 C2160 0.961 . S
H2147 C2161 0.960 . S
H2148 C2161 0.961 . S
H2149 C2161 0.959 . S
H2150 C2164 0.929 . S
H2151 C2165 0.931 . S
H2152 C2167 0.930 . S
C2153 H2141 0.930 . S
C2153 C2154 1.399 . S
C2153 C2158 1.399 . S
C2154 C2153 1.399 . S
C2154 C2155 1.376 . S
C2155 H2142 0.930 . S
C2155 C2154 1.376 . S
C2155 C2156 1.388 . S
C2156 H2143 0.930 . S
C2156 C2155 1.388 . S
C2156 C2157 1.390 . S
C2157 C2156 1.390 . S
C2157 C2158 1.394 . S
C2157 C2163 1.465 . S
C2158 C2153 1.399 . S
C2158 C2157 1.394 . S
C2158 C2159 1.516 . S
C2159 C2158 1.516 . S
C2159 C2160 1.502 . S
C2159 C2161 1.561 . S
C2159 C2162 1.526 . S
C2160 H2144 0.959 . S
C2160 H2145 0.959 . S
C2160 H2146 0.961 . S
C2160 C2159 1.502 . S
C2161 H2147 0.960 . S
C2161 H2148 0.961 . S
C2161 H2149 0.959 . S
C2161 C2159 1.561 . S
C2162 C2159 1.526 . S
C2162 C2163 1.396 . S
C2162 C2167 1.390 . S
C2163 C2157 1.465 . S
C2163 C2162 1.396 . S
C2163 C2164 1.399 . S
C2164 H2150 0.929 . S
C2164 C2163 1.399 . S
C2164 C2165 1.385 . S
C2165 H2151 0.931 . S
C2165 C2164 1.385 . S
C2165 C2166 1.389 . S
C2166 C2165 1.389 . S
C2166 C2167 1.387 . S
C2167 H2152 0.930 . S
C2167 C2162 1.390 . S
C2167 C2166 1.387 . S
H2168 C2180 0.930 . S
H2169 C2182 0.930 . S
H2170 C2183 0.930 . S
H2171 C2187 0.959 . S
H2172 C2187 0.959 . S
H2173 C2187 0.961 . S
H2174 C2188 0.960 . S
H2175 C2188 0.961 . S
H2176 C2188 0.959 . S
H2177 C2191 0.929 . S
H2178 C2192 0.931 . S
H2179 C2194 0.930 . S
C2180 H2168 0.930 . S
C2180 C2181 1.399 . S
C2180 C2185 1.399 . S
C2181 C2180 1.399 . S
C2181 C2182 1.376 . S
C2182 H2169 0.930 . S
C2182 C2181 1.376 . S
C2182 C2183 1.388 . S
C2183 H2170 0.930 . S
C2183 C2182 1.388 . S
C2183 C2184 1.390 . S
C2184 C2183 1.390 . S
C2184 C2185 1.394 . S
C2184 C2190 1.465 . S
C2185 C2180 1.399 . S
C2185 C2184 1.394 . S
C2185 C2186 1.516 . S
C2186 C2185 1.516 . S
C2186 C2187 1.502 . S
C2186 C2188 1.561 . S
C2186 C2189 1.526 . S
C2187 H2171 0.959 . S
C2187 H2172 0.959 . S
C2187 H2173 0.961 . S
C2187 C2186 1.502 . S
C2188 H2174 0.960 . S
C2188 H2175 0.961 . S
C2188 H2176 0.959 . S
C2188 C2186 1.561 . S
C2189 C2186 1.526 . S
C2189 C2190 1.396 . S
C2189 C2194 1.390 . S
C2190 C2184 1.465 . S
C2190 C2189 1.396 . S
C2190 C2191 1.399 . S
C2191 H2177 0.929 . S
C2191 C2190 1.399 . S
C2191 C2192 1.385 . S
C2192 H2178 0.931 . S
C2192 C2191 1.385 . S
C2192 C2193 1.389 . S
C2193 C2192 1.389 . S
C2193 C2194 1.387 . S
C2194 H2179 0.930 . S
C2194 C2189 1.390 . S
C2194 C2193 1.387 . S
H2195 C2207 0.930 . S
H2196 C2209 0.930 . S
H2197 C2210 0.930 . S
H2198 C2214 0.959 . S
H2199 C2214 0.959 . S
H2200 C2214 0.961 . S
H2201 C2215 0.960 . S
H2202 C2215 0.961 . S
H2203 C2215 0.959 . S
H2204 C2218 0.929 . S
H2205 C2219 0.931 . S
H2206 C2221 0.930 . S
C2207 H2195 0.930 . S
C2207 C2208 1.399 . S
C2207 C2212 1.399 . S
C2208 C2207 1.399 . S
C2208 C2209 1.376 . S
C2209 H2196 0.930 . S
C2209 C2208 1.376 . S
C2209 C2210 1.388 . S
C2210 H2197 0.930 . S
C2210 C2209 1.388 . S
C2210 C2211 1.390 . S
C2211 C2210 1.390 . S
C2211 C2212 1.394 . S
C2211 C2217 1.465 . S
C2212 C2207 1.399 . S
C2212 C2211 1.394 . S
C2212 C2213 1.516 . S
C2213 C2212 1.516 . S
C2213 C2214 1.502 . S
C2213 C2215 1.561 . S
C2213 C2216 1.526 . S
C2214 H2198 0.959 . S
C2214 H2199 0.959 . S
C2214 H2200 0.961 . S
C2214 C2213 1.502 . S
C2215 H2201 0.960 . S
C2215 H2202 0.961 . S
C2215 H2203 0.959 . S
C2215 C2213 1.561 . S
C2216 C2213 1.526 . S
C2216 C2217 1.396 . S
C2216 C2221 1.390 . S
C2217 C2211 1.465 . S
C2217 C2216 1.396 . S
C2217 C2218 1.399 . S
C2218 H2204 0.929 . S
C2218 C2217 1.399 . S
C2218 C2219 1.385 . S
C2219 H2205 0.931 . S
C2219 C2218 1.385 . S
C2219 C2220 1.389 . S
C2220 C2219 1.389 . S
C2220 C2221 1.387 . S
C2221 H2206 0.930 . S
C2221 C2216 1.390 . S
C2221 C2220 1.387 . S
H2222 C2234 0.930 . S
H2223 C2236 0.930 . S
H2224 C2237 0.930 . S
H2225 C2241 0.959 . S
H2226 C2241 0.959 . S
H2227 C2241 0.961 . S
H2228 C2242 0.960 . S
H2229 C2242 0.961 . S
H2230 C2242 0.959 . S
H2231 C2245 0.929 . S
H2232 C2246 0.898 1_655 S
H2233 C2248 0.930 . S
C2234 H2222 0.930 . S
C2234 C2235 1.399 . S
C2234 C2239 1.399 . S
C2235 C2234 1.399 . S
C2235 C2236 1.376 . S
C2236 H2223 0.930 . S
C2236 C2235 1.376 . S
C2236 C2237 1.388 . S
C2237 H2224 0.930 . S
C2237 C2236 1.388 . S
C2237 C2238 1.390 . S
C2238 C2237 1.390 . S
C2238 C2239 1.394 . S
C2238 C2244 1.465 . S
C2239 C2234 1.399 . S
C2239 C2238 1.394 . S
C2239 C2240 1.516 . S
C2240 C2239 1.516 . S
C2240 C2241 1.502 . S
C2240 C2242 1.561 . S
C2240 C2243 1.526 . S
C2241 H2225 0.959 . S
C2241 H2226 0.959 . S
C2241 H2227 0.961 . S
C2241 C2240 1.502 . S
C2242 H2228 0.960 . S
C2242 H2229 0.961 . S
C2242 H2230 0.959 . S
C2242 C2240 1.561 . S
C2243 C2240 1.526 . S
C2243 C2244 1.396 . S
C2243 C2248 1.390 . S
C2244 C2238 1.465 . S
C2244 C2243 1.396 . S
C2244 C2245 1.399 . S
C2245 H2231 0.929 . S
C2245 C2244 1.399 . S
C2245 C2246 1.385 . S
C2246 H2232 0.898 1_455 S
C2246 C2245 1.385 . S
C2246 C2247 1.389 . S
C2247 C2246 1.389 . S
C2247 C2248 1.387 . S
C2248 H2233 0.930 . S
C2248 C2243 1.390 . S
C2248 C2247 1.387 . S
H2249 C2261 0.930 . S
H2250 C2263 0.930 . S
H2251 C2264 0.930 . S
H2252 C2268 0.959 . S
H2253 C2268 0.959 . S
H2254 C2268 0.961 . S
H2255 C2269 0.960 . S
H2256 C2269 0.961 . S
H2257 C2269 0.959 . S
H2258 C2272 0.929 . S
H2259 C2273 0.931 . S
H2260 C2275 0.930 . S
C2261 H2249 0.930 . S
C2261 C2262 1.399 . S
C2261 C2266 1.399 . S
C2262 C2261 1.399 . S
C2262 C2263 1.376 . S
C2263 H2250 0.930 . S
C2263 C2262 1.376 . S
C2263 C2264 1.388 . S
C2264 H2251 0.930 . S
C2264 C2263 1.388 . S
C2264 C2265 1.390 . S
C2265 C2264 1.390 . S
C2265 C2266 1.394 . S
C2265 C2271 1.465 . S
C2266 C2261 1.399 . S
C2266 C2265 1.394 . S
C2266 C2267 1.516 . S
C2267 C2266 1.516 . S
C2267 C2268 1.502 . S
C2267 C2269 1.561 . S
C2267 C2270 1.526 . S
C2268 H2252 0.959 . S
C2268 H2253 0.959 . S
C2268 H2254 0.961 . S
C2268 C2267 1.502 . S
C2269 H2255 0.960 . S
C2269 H2256 0.961 . S
C2269 H2257 0.959 . S
C2269 C2267 1.561 . S
C2270 C2267 1.526 . S
C2270 C2271 1.396 . S
C2270 C2275 1.390 . S
C2271 C2265 1.465 . S
C2271 C2270 1.396 . S
C2271 C2272 1.399 . S
C2272 H2258 0.929 . S
C2272 C2271 1.399 . S
C2272 C2273 1.385 . S
C2273 H2259 0.931 . S
C2273 C2272 1.385 . S
C2273 C2274 1.389 . S
C2274 C2273 1.389 . S
C2274 C2275 1.387 . S
C2275 H2260 0.930 . S
C2275 C2270 1.390 . S
C2275 C2274 1.387 . S
H2276 C2288 0.930 . S
H2277 C2290 0.930 . S
H2278 C2291 0.930 . S
H2279 C2295 0.959 . S
H2280 C2295 0.959 . S
H2281 C2295 0.961 . S
H2282 C2296 0.960 . S
H2283 C2296 0.961 . S
H2284 C2296 0.959 . S
H2285 C2299 0.929 . S
H2286 C2300 0.931 . S
H2287 C2302 0.930 . S
C2288 H2276 0.930 . S
C2288 C2289 1.399 . S
C2288 C2293 1.399 . S
C2289 C2288 1.399 . S
C2289 C2290 1.376 . S
C2290 H2277 0.930 . S
C2290 C2289 1.376 . S
C2290 C2291 1.388 . S
C2291 H2278 0.930 . S
C2291 C2290 1.388 . S
C2291 C2292 1.390 . S
C2292 C2291 1.390 . S
C2292 C2293 1.394 . S
C2292 C2298 1.465 . S
C2293 C2288 1.399 . S
C2293 C2292 1.394 . S
C2293 C2294 1.516 . S
C2294 C2293 1.516 . S
C2294 C2295 1.502 . S
C2294 C2296 1.561 . S
C2294 C2297 1.526 . S
C2295 H2279 0.959 . S
C2295 H2280 0.959 . S
C2295 H2281 0.961 . S
C2295 C2294 1.502 . S
C2296 H2282 0.960 . S
C2296 H2283 0.961 . S
C2296 H2284 0.959 . S
C2296 C2294 1.561 . S
C2297 C2294 1.526 . S
C2297 C2298 1.396 . S
C2297 C2302 1.390 . S
C2298 C2292 1.465 . S
C2298 C2297 1.396 . S
C2298 C2299 1.399 . S
C2299 H2285 0.929 . S
C2299 C2298 1.399 . S
C2299 C2300 1.385 . S
C2300 H2286 0.931 . S
C2300 C2299 1.385 . S
C2300 C2301 1.389 . S
C2301 C2300 1.389 . S
C2301 C2302 1.387 . S
C2302 H2287 0.930 . S
C2302 C2297 1.390 . S
C2302 C2301 1.387 . S
H2303 C2315 0.930 . S
H2304 C2317 0.930 . S
H2305 C2318 0.930 . S
H2306 C2322 0.959 . S
H2307 C2322 0.959 . S
H2308 C2322 0.961 . S
H2309 C2323 0.960 . S
H2310 C2323 0.961 . S
H2311 C2323 0.959 . S
H2312 C2326 0.929 . S
H2313 C2327 0.931 . S
H2314 C2329 0.930 . S
C2315 H2303 0.930 . S
C2315 C2316 1.399 . S
C2315 C2320 1.399 . S
C2316 C2315 1.399 . S
C2316 C2317 1.376 . S
C2317 H2304 0.930 . S
C2317 C2316 1.376 . S
C2317 C2318 1.388 . S
C2318 H2305 0.930 . S
C2318 C2317 1.388 . S
C2318 C2319 1.390 . S
C2319 C2318 1.390 . S
C2319 C2320 1.394 . S
C2319 C2325 1.465 . S
C2320 C2315 1.399 . S
C2320 C2319 1.394 . S
C2320 C2321 1.516 . S
C2321 C2320 1.516 . S
C2321 C2322 1.502 . S
C2321 C2323 1.561 . S
C2321 C2324 1.526 . S
C2322 H2306 0.959 . S
C2322 H2307 0.959 . S
C2322 H2308 0.961 . S
C2322 C2321 1.502 . S
C2323 H2309 0.960 . S
C2323 H2310 0.961 . S
C2323 H2311 0.959 . S
C2323 C2321 1.561 . S
C2324 C2321 1.526 . S
C2324 C2325 1.396 . S
C2324 C2329 1.390 . S
C2325 C2319 1.465 . S
C2325 C2324 1.396 . S
C2325 C2326 1.399 . S
C2326 H2312 0.929 . S
C2326 C2325 1.399 . S
C2326 C2327 1.385 . S
C2327 H2313 0.931 . S
C2327 C2326 1.385 . S
C2327 C2328 1.389 . S
C2328 C2327 1.389 . S
C2328 C2329 1.387 . S
C2329 H2314 0.930 . S
C2329 C2324 1.390 . S
C2329 C2328 1.387 . S
H2330 C2342 0.930 . S
H2331 C2344 0.930 . S
H2332 C2345 0.930 . S
H2333 C2349 0.959 . S
H2334 C2349 0.959 . S
H2335 C2349 0.961 . S
H2336 C2350 0.960 . S
H2337 C2350 0.961 . S
H2338 C2350 0.959 . S
H2339 C2353 0.929 . S
H2340 C2354 0.931 . S
H2341 C2356 0.930 . S
C2342 H2330 0.930 . S
C2342 C2343 1.399 . S
C2342 C2347 1.399 . S
C2343 C2342 1.399 . S
C2343 C2344 1.376 . S
C2344 H2331 0.930 . S
C2344 C2343 1.376 . S
C2344 C2345 1.388 . S
C2345 H2332 0.930 . S
C2345 C2344 1.388 . S
C2345 C2346 1.390 . S
C2346 C2345 1.390 . S
C2346 C2347 1.394 . S
C2346 C2352 1.465 . S
C2347 C2342 1.399 . S
C2347 C2346 1.394 . S
C2347 C2348 1.516 . S
C2348 C2347 1.516 . S
C2348 C2349 1.502 . S
C2348 C2350 1.561 . S
C2348 C2351 1.526 . S
C2349 H2333 0.959 . S
C2349 H2334 0.959 . S
C2349 H2335 0.961 . S
C2349 C2348 1.502 . S
C2350 H2336 0.960 . S
C2350 H2337 0.961 . S
C2350 H2338 0.959 . S
C2350 C2348 1.561 . S
C2351 C2348 1.526 . S
C2351 C2352 1.396 . S
C2351 C2356 1.390 . S
C2352 C2346 1.465 . S
C2352 C2351 1.396 . S
C2352 C2353 1.399 . S
C2353 H2339 0.929 . S
C2353 C2352 1.399 . S
C2353 C2354 1.385 . S
C2354 H2340 0.931 . S
C2354 C2353 1.385 . S
C2354 C2355 1.389 . S
C2355 C2354 1.389 . S
C2355 C2356 1.387 . S
C2356 H2341 0.930 . S
C2356 C2351 1.390 . S
C2356 C2355 1.387 . S
H2357 C2369 0.930 . S
H2358 C2371 0.930 . S
H2359 C2372 0.930 . S
H2360 C2376 0.959 . S
H2361 C2376 0.959 . S
H2362 C2376 0.961 . S
H2363 C2377 0.960 . S
H2364 C2377 0.961 . S
H2365 C2377 0.959 . S
H2366 C2380 0.929 . S
H2367 C2381 0.931 . S
H2368 C2383 0.930 . S
C2369 H2357 0.930 . S
C2369 C2370 1.399 . S
C2369 C2374 1.399 . S
C2370 C2369 1.399 . S
C2370 C2371 1.376 . S
C2371 H2358 0.930 . S
C2371 C2370 1.376 . S
C2371 C2372 1.388 . S
C2372 H2359 0.930 . S
C2372 C2371 1.388 . S
C2372 C2373 1.390 . S
C2373 C2372 1.390 . S
C2373 C2374 1.394 . S
C2373 C2379 1.465 . S
C2374 C2369 1.399 . S
C2374 C2373 1.394 . S
C2374 C2375 1.516 . S
C2375 C2374 1.516 . S
C2375 C2376 1.502 . S
C2375 C2377 1.561 . S
C2375 C2378 1.526 . S
C2376 H2360 0.959 . S
C2376 H2361 0.959 . S
C2376 H2362 0.961 . S
C2376 C2375 1.502 . S
C2377 H2363 0.960 . S
C2377 H2364 0.961 . S
C2377 H2365 0.959 . S
C2377 C2375 1.561 . S
C2378 C2375 1.526 . S
C2378 C2379 1.396 . S
C2378 C2383 1.390 . S
C2379 C2373 1.465 . S
C2379 C2378 1.396 . S
C2379 C2380 1.399 . S
C2380 H2366 0.929 . S
C2380 C2379 1.399 . S
C2380 C2381 1.385 . S
C2381 H2367 0.931 . S
C2381 C2380 1.385 . S
C2381 C2382 1.389 . S
C2382 C2381 1.389 . S
C2382 C2383 1.387 . S
C2383 H2368 0.930 . S
C2383 C2378 1.390 . S
C2383 C2382 1.387 . S
H2384 C2396 0.930 . S
H2385 C2398 0.930 . S
H2386 C2399 0.930 . S
H2387 C2403 0.959 . S
H2388 C2403 0.959 . S
H2389 C2403 0.961 . S
H2390 C2404 0.960 . S
H2391 C2404 0.961 . S
H2392 C2404 0.959 . S
H2393 C2407 0.929 . S
H2394 C2408 0.931 . S
H2395 C2410 0.930 . S
C2396 H2384 0.930 . S
C2396 C2397 1.399 . S
C2396 C2401 1.399 . S
C2397 C2396 1.399 . S
C2397 C2398 1.376 . S
C2398 H2385 0.930 . S
C2398 C2397 1.376 . S
C2398 C2399 1.388 . S
C2399 H2386 0.930 . S
C2399 C2398 1.388 . S
C2399 C2400 1.390 . S
C2400 C2399 1.390 . S
C2400 C2401 1.394 . S
C2400 C2406 1.465 . S
C2401 C2396 1.399 . S
C2401 C2400 1.394 . S
C2401 C2402 1.516 . S
C2402 C2401 1.516 . S
C2402 C2403 1.502 . S
C2402 C2404 1.561 . S
C2402 C2405 1.526 . S
C2403 H2387 0.959 . S
C2403 H2388 0.959 . S
C2403 H2389 0.961 . S
C2403 C2402 1.502 . S
C2404 H2390 0.960 . S
C2404 H2391 0.961 . S
C2404 H2392 0.959 . S
C2404 C2402 1.561 . S
C2405 C2402 1.526 . S
C2405 C2406 1.396 . S
C2405 C2410 1.390 . S
C2406 C2400 1.465 . S
C2406 C2405 1.396 . S
C2406 C2407 1.399 . S
C2407 H2393 0.929 . S
C2407 C2406 1.399 . S
C2407 C2408 1.385 . S
C2408 H2394 0.931 . S
C2408 C2407 1.385 . S
C2408 C2409 1.389 . S
C2409 C2408 1.389 . S
C2409 C2410 1.387 . S
C2410 H2395 0.930 . S
C2410 C2405 1.390 . S
C2410 C2409 1.387 . S
H2411 C2423 0.930 . S
H2412 C2425 0.930 . S
H2413 C2426 0.930 . S
H2414 C2430 0.959 . S
H2415 C2430 0.959 . S
H2416 C2430 0.961 . S
H2417 C2431 0.960 . S
H2418 C2431 0.961 . S
H2419 C2431 0.959 . S
H2420 C2434 0.929 . S
H2421 C2435 0.931 . S
H2422 C2437 0.930 . S
C2423 H2411 0.930 . S
C2423 C2424 1.399 . S
C2423 C2428 1.399 . S
C2424 C2423 1.399 . S
C2424 C2425 1.376 . S
C2425 H2412 0.930 . S
C2425 C2424 1.376 . S
C2425 C2426 1.388 . S
C2426 H2413 0.930 . S
C2426 C2425 1.388 . S
C2426 C2427 1.390 . S
C2427 C2426 1.390 . S
C2427 C2428 1.394 . S
C2427 C2433 1.465 . S
C2428 C2423 1.399 . S
C2428 C2427 1.394 . S
C2428 C2429 1.516 . S
C2429 C2428 1.516 . S
C2429 C2430 1.502 . S
C2429 C2431 1.561 . S
C2429 C2432 1.526 . S
C2430 H2414 0.959 . S
C2430 H2415 0.959 . S
C2430 H2416 0.961 . S
C2430 C2429 1.502 . S
C2431 H2417 0.960 . S
C2431 H2418 0.961 . S
C2431 H2419 0.959 . S
C2431 C2429 1.561 . S
C2432 C2429 1.526 . S
C2432 C2433 1.396 . S
C2432 C2437 1.390 . S
C2433 C2427 1.465 . S
C2433 C2432 1.396 . S
C2433 C2434 1.399 . S
C2434 H2420 0.929 . S
C2434 C2433 1.399 . S
C2434 C2435 1.385 . S
C2435 H2421 0.931 . S
C2435 C2434 1.385 . S
C2435 C2436 1.389 . S
C2436 C2435 1.389 . S
C2436 C2437 1.387 . S
C2437 H2422 0.930 . S
C2437 C2432 1.390 . S
C2437 C2436 1.387 . S
H2438 C2450 0.930 . S
H2439 C2452 0.930 . S
H2440 C2453 0.930 . S
H2441 C2457 0.959 . S
H2442 C2457 0.959 . S
H2443 C2457 0.961 . S
H2444 C2458 0.960 . S
H2445 C2458 0.961 . S
H2446 C2458 0.959 . S
H2447 C2461 0.929 . S
H2448 C2462 0.931 . S
H2449 C2464 0.930 . S
C2450 H2438 0.930 . S
C2450 C2451 1.399 . S
C2450 C2455 1.399 . S
C2451 C2450 1.399 . S
C2451 C2452 1.376 . S
C2452 H2439 0.930 . S
C2452 C2451 1.376 . S
C2452 C2453 1.388 . S
C2453 H2440 0.930 . S
C2453 C2452 1.388 . S
C2453 C2454 1.390 . S
C2454 C2453 1.390 . S
C2454 C2455 1.394 . S
C2454 C2460 1.465 . S
C2455 C2450 1.399 . S
C2455 C2454 1.394 . S
C2455 C2456 1.516 . S
C2456 C2455 1.516 . S
C2456 C2457 1.502 . S
C2456 C2458 1.561 . S
C2456 C2459 1.526 . S
C2457 H2441 0.959 . S
C2457 H2442 0.959 . S
C2457 H2443 0.961 . S
C2457 C2456 1.502 . S
C2458 H2444 0.960 . S
C2458 H2445 0.961 . S
C2458 H2446 0.959 . S
C2458 C2456 1.561 . S
C2459 C2456 1.526 . S
C2459 C2460 1.396 . S
C2459 C2464 1.390 . S
C2460 C2454 1.465 . S
C2460 C2459 1.396 . S
C2460 C2461 1.399 . S
C2461 H2447 0.929 . S
C2461 C2460 1.399 . S
C2461 C2462 1.385 . S
C2462 H2448 0.931 . S
C2462 C2461 1.385 . S
C2462 C2463 1.389 . S
C2463 C2462 1.389 . S
C2463 C2464 1.387 . S
C2464 H2449 0.930 . S
C2464 C2459 1.390 . S
C2464 C2463 1.387 . S
H2465 C2477 0.930 . S
H2466 C2479 0.930 . S
H2467 C2480 0.930 . S
H2468 C2484 0.959 . S
H2469 C2484 0.959 . S
H2470 C2484 0.961 . S
H2471 C2485 0.960 . S
H2472 C2485 0.961 . S
H2473 C2485 0.959 . S
H2474 C2488 0.929 . S
H2475 C2489 0.931 . S
H2476 C2491 0.930 . S
C2477 H2465 0.930 . S
C2477 C2478 1.399 . S
C2477 C2482 1.399 . S
C2478 C2477 1.399 . S
C2478 C2479 1.376 1_554 S
C2479 H2466 0.930 . S
C2479 C2478 1.376 1_556 S
C2479 C2480 1.388 . S
C2480 H2467 0.930 . S
C2480 C2479 1.388 . S
C2480 C2481 1.390 1_556 S
C2481 C2480 1.390 1_554 S
C2481 C2482 1.394 . S
C2481 C2487 1.465 . S
C2482 C2477 1.399 . S
C2482 C2481 1.394 . S
C2482 C2483 1.516 . S
C2483 C2482 1.516 . S
C2483 C2484 1.502 . S
C2483 C2485 1.561 . S
C2483 C2486 1.526 . S
C2484 H2468 0.959 . S
C2484 H2469 0.959 . S
C2484 H2470 0.961 . S
C2484 C2483 1.502 . S
C2485 H2471 0.960 . S
C2485 H2472 0.961 . S
C2485 H2473 0.959 . S
C2485 C2483 1.561 . S
C2486 C2483 1.526 . S
C2486 C2487 1.396 . S
C2486 C2491 1.390 . S
C2487 C2481 1.465 . S
C2487 C2486 1.396 . S
C2487 C2488 1.399 1_554 S
C2488 H2474 0.929 . S
C2488 C2487 1.399 1_556 S
C2488 C2489 1.385 . S
C2489 H2475 0.931 . S
C2489 C2488 1.385 . S
C2489 C2490 1.389 1_556 S
C2490 C2489 1.389 1_554 S
C2490 C2491 1.387 . S
C2491 H2476 0.930 . S
C2491 C2486 1.390 . S
C2491 C2490 1.387 . S
H2492 C2504 0.930 . S
H2493 C2506 0.930 . S
H2494 C2507 0.930 . S
H2495 C2511 0.959 . S
H2496 C2511 0.959 . S
H2497 C2511 0.961 . S
H2498 C2512 0.960 . S
H2499 C2512 0.961 . S
H2500 C2512 0.959 . S
H2501 C2515 0.929 . S
H2502 C2516 0.931 . S
H2503 C2518 0.930 . S
C2504 H2492 0.930 . S
C2504 C2505 1.399 . S
C2504 C2509 1.399 . S
C2505 C2504 1.399 . S
C2505 C2506 1.376 . S
C2506 H2493 0.930 . S
C2506 C2505 1.376 . S
C2506 C2507 1.388 . S
C2507 H2494 0.930 . S
C2507 C2506 1.388 . S
C2507 C2508 1.390 . S
C2508 C2507 1.390 . S
C2508 C2509 1.394 . S
C2508 C2514 1.465 . S
C2509 C2504 1.399 . S
C2509 C2508 1.394 . S
C2509 C2510 1.516 . S
C2510 C2509 1.516 . S
C2510 C2511 1.502 . S
C2510 C2512 1.561 . S
C2510 C2513 1.526 . S
C2511 H2495 0.959 . S
C2511 H2496 0.959 . S
C2511 H2497 0.961 . S
C2511 C2510 1.502 . S
C2512 H2498 0.960 . S
C2512 H2499 0.961 . S
C2512 H2500 0.959 . S
C2512 C2510 1.561 . S
C2513 C2510 1.526 . S
C2513 C2514 1.396 . S
C2513 C2518 1.390 . S
C2514 C2508 1.465 . S
C2514 C2513 1.396 . S
C2514 C2515 1.399 . S
C2515 H2501 0.929 . S
C2515 C2514 1.399 . S
C2515 C2516 1.385 . S
C2516 H2502 0.931 . S
C2516 C2515 1.385 . S
C2516 C2517 1.389 . S
C2517 C2516 1.389 . S
C2517 C2518 1.387 . S
C2518 H2503 0.930 . S
C2518 C2513 1.390 . S
C2518 C2517 1.387 . S
H2519 C2531 0.925 1_556 S
H2520 C2533 0.930 . S
H2521 C2534 0.930 . S
H2522 C2538 0.959 . S
H2523 C2538 0.959 . S
H2524 C2538 0.961 . S
H2525 C2539 0.960 . S
H2526 C2539 0.961 . S
H2527 C2539 0.959 . S
H2528 C2542 0.929 . S
H2529 C2543 0.931 . S
H2530 C2545 0.930 . S
C2531 H2519 0.925 1_554 S
C2531 C2532 1.399 . S
C2531 C2536 1.399 . S
C2532 C2531 1.399 . S
C2532 C2533 1.376 . S
C2533 H2520 0.930 . S
C2533 C2532 1.376 . S
C2533 C2534 1.388 . S
C2534 H2521 0.930 . S
C2534 C2533 1.388 . S
C2534 C2535 1.390 . S
C2535 C2534 1.390 . S
C2535 C2536 1.394 . S
C2535 C2541 1.465 . S
C2536 C2531 1.399 . S
C2536 C2535 1.394 . S
C2536 C2537 1.516 . S
C2537 C2536 1.516 . S
C2537 C2538 1.502 . S
C2537 C2539 1.561 1_554 S
C2537 C2540 1.526 . S
C2538 H2522 0.959 . S
C2538 H2523 0.959 . S
C2538 H2524 0.961 . S
C2538 C2537 1.502 . S
C2539 H2525 0.960 . S
C2539 H2526 0.961 . S
C2539 H2527 0.959 . S
C2539 C2537 1.561 1_556 S
C2540 C2537 1.526 . S
C2540 C2541 1.396 . S
C2540 C2545 1.390 . S
C2541 C2535 1.465 . S
C2541 C2540 1.396 . S
C2541 C2542 1.399 . S
C2542 H2528 0.929 . S
C2542 C2541 1.399 . S
C2542 C2543 1.385 . S
C2543 H2529 0.931 . S
C2543 C2542 1.385 . S
C2543 C2544 1.389 . S
C2544 C2543 1.389 . S
C2544 C2545 1.387 . S
C2545 H2530 0.930 . S
C2545 C2540 1.390 . S
C2545 C2544 1.387 . S
H2546 C2558 0.930 . S
H2547 C2560 0.930 . S
H2548 C2561 0.930 . S
H2549 C2565 0.959 . S
H2550 C2565 0.959 . S
H2551 C2565 0.961 . S
H2552 C2566 0.960 . S
H2553 C2566 0.961 . S
H2554 C2566 0.959 . S
H2555 C2569 0.929 . S
H2556 C2570 0.931 . S
H2557 C2572 0.930 . S
C2558 H2546 0.930 . S
C2558 C2559 1.399 . S
C2558 C2563 1.399 . S
C2559 C2558 1.399 . S
C2559 C2560 1.376 . S
C2560 H2547 0.930 . S
C2560 C2559 1.376 . S
C2560 C2561 1.388 . S
C2561 H2548 0.930 . S
C2561 C2560 1.388 . S
C2561 C2562 1.390 . S
C2562 C2561 1.390 . S
C2562 C2563 1.394 . S
C2562 C2568 1.465 . S
C2563 C2558 1.399 . S
C2563 C2562 1.394 . S
C2563 C2564 1.516 . S
C2564 C2563 1.516 . S
C2564 C2565 1.502 . S
C2564 C2566 1.561 . S
C2564 C2567 1.526 . S
C2565 H2549 0.959 . S
C2565 H2550 0.959 . S
C2565 H2551 0.961 . S
C2565 C2564 1.502 . S
C2566 H2552 0.960 . S
C2566 H2553 0.961 . S
C2566 H2554 0.959 . S
C2566 C2564 1.561 . S
C2567 C2564 1.526 . S
C2567 C2568 1.396 . S
C2567 C2572 1.390 . S
C2568 C2562 1.465 . S
C2568 C2567 1.396 . S
C2568 C2569 1.399 . S
C2569 H2555 0.929 . S
C2569 C2568 1.399 . S
C2569 C2570 1.385 . S
C2570 H2556 0.931 . S
C2570 C2569 1.385 . S
C2570 C2571 1.389 . S
C2571 C2570 1.389 . S
C2571 C2572 1.387 . S
C2572 H2557 0.930 . S
C2572 C2567 1.390 . S
C2572 C2571 1.387 . S
H2573 C2585 0.930 . S
H2574 C2587 0.930 . S
H2575 C2588 0.930 . S
H2576 C2592 0.959 . S
H2577 C2592 0.959 . S
H2578 C2592 0.961 . S
H2579 C2593 0.960 . S
H2580 C2593 0.961 . S
H2581 C2593 0.959 . S
H2582 C2596 0.929 . S
H2583 C2597 0.931 . S
H2584 C2599 0.930 . S
C2585 H2573 0.930 . S
C2585 C2586 1.399 . S
C2585 C2590 1.399 . S
C2586 C2585 1.399 . S
C2586 C2587 1.376 . S
C2587 H2574 0.930 . S
C2587 C2586 1.376 . S
C2587 C2588 1.388 . S
C2588 H2575 0.930 . S
C2588 C2587 1.388 . S
C2588 C2589 1.390 . S
C2589 C2588 1.390 . S
C2589 C2590 1.394 . S
C2589 C2595 1.465 . S
C2590 C2585 1.399 . S
C2590 C2589 1.394 . S
C2590 C2591 1.516 . S
C2591 C2590 1.516 . S
C2591 C2592 1.502 . S
C2591 C2593 1.561 . S
C2591 C2594 1.526 . S
C2592 H2576 0.959 . S
C2592 H2577 0.959 . S
C2592 H2578 0.961 . S
C2592 C2591 1.502 . S
C2593 H2579 0.960 . S
C2593 H2580 0.961 . S
C2593 H2581 0.959 . S
C2593 C2591 1.561 . S
C2594 C2591 1.526 . S
C2594 C2595 1.396 . S
C2594 C2599 1.390 . S
C2595 C2589 1.465 . S
C2595 C2594 1.396 . S
C2595 C2596 1.399 . S
C2596 H2582 0.929 . S
C2596 C2595 1.399 . S
C2596 C2597 1.385 . S
C2597 H2583 0.931 . S
C2597 C2596 1.385 . S
C2597 C2598 1.389 . S
C2598 C2597 1.389 . S
C2598 C2599 1.387 . S
C2599 H2584 0.930 . S
C2599 C2594 1.390 . S
C2599 C2598 1.387 . S
H2600 C2612 0.930 . S
H2601 C2614 0.930 . S
H2602 C2615 0.930 . S
H2603 C2619 0.959 . S
H2604 C2619 0.959 . S
H2605 C2619 0.961 . S
H2606 C2620 0.960 . S
H2607 C2620 0.961 . S
H2608 C2620 0.959 . S
H2609 C2623 0.929 . S
H2610 C2624 0.931 . S
H2611 C2626 0.930 . S
C2612 H2600 0.930 . S
C2612 C2613 1.399 . S
C2612 C2617 1.399 . S
C2613 C2612 1.399 . S
C2613 C2614 1.376 . S
C2614 H2601 0.930 . S
C2614 C2613 1.376 . S
C2614 C2615 1.388 . S
C2615 H2602 0.930 . S
C2615 C2614 1.388 . S
C2615 C2616 1.390 . S
C2616 C2615 1.390 . S
C2616 C2617 1.394 . S
C2616 C2622 1.465 . S
C2617 C2612 1.399 . S
C2617 C2616 1.394 . S
C2617 C2618 1.516 . S
C2618 C2617 1.516 . S
C2618 C2619 1.502 . S
C2618 C2620 1.561 . S
C2618 C2621 1.526 . S
C2619 H2603 0.959 . S
C2619 H2604 0.959 . S
C2619 H2605 0.961 . S
C2619 C2618 1.502 . S
C2620 H2606 0.960 . S
C2620 H2607 0.961 . S
C2620 H2608 0.959 . S
C2620 C2618 1.561 . S
C2621 C2618 1.526 . S
C2621 C2622 1.396 . S
C2621 C2626 1.390 . S
C2622 C2616 1.465 . S
C2622 C2621 1.396 . S
C2622 C2623 1.399 . S
C2623 H2609 0.929 . S
C2623 C2622 1.399 . S
C2623 C2624 1.385 . S
C2624 H2610 0.931 . S
C2624 C2623 1.385 . S
C2624 C2625 1.389 . S
C2625 C2624 1.389 . S
C2625 C2626 1.387 . S
C2626 H2611 0.930 . S
C2626 C2621 1.390 . S
C2626 C2625 1.387 . S
H2627 C2639 0.930 . S
H2628 C2641 0.930 . S
H2629 C2642 0.930 . S
H2630 C2646 0.959 . S
H2631 C2646 0.959 . S
H2632 C2646 0.961 . S
H2633 C2647 0.960 . S
H2634 C2647 0.961 . S
H2635 C2647 0.959 . S
H2636 C2650 0.929 . S
H2637 C2651 0.931 . S
H2638 C2653 0.930 . S
C2639 H2627 0.930 . S
C2639 C2640 1.399 . S
C2639 C2644 1.399 . S
C2640 C2639 1.399 . S
C2640 C2641 1.376 . S
C2641 H2628 0.930 . S
C2641 C2640 1.376 . S
C2641 C2642 1.388 . S
C2642 H2629 0.930 . S
C2642 C2641 1.388 . S
C2642 C2643 1.390 . S
C2643 C2642 1.390 . S
C2643 C2644 1.394 . S
C2643 C2649 1.465 . S
C2644 C2639 1.399 . S
C2644 C2643 1.394 . S
C2644 C2645 1.516 . S
C2645 C2644 1.516 . S
C2645 C2646 1.502 . S
C2645 C2647 1.561 . S
C2645 C2648 1.526 . S
C2646 H2630 0.959 . S
C2646 H2631 0.959 . S
C2646 H2632 0.961 . S
C2646 C2645 1.502 . S
C2647 H2633 0.960 . S
C2647 H2634 0.961 . S
C2647 H2635 0.959 . S
C2647 C2645 1.561 . S
C2648 C2645 1.526 . S
C2648 C2649 1.396 . S
C2648 C2653 1.390 . S
C2649 C2643 1.465 . S
C2649 C2648 1.396 . S
C2649 C2650 1.399 . S
C2650 H2636 0.929 . S
C2650 C2649 1.399 . S
C2650 C2651 1.385 . S
C2651 H2637 0.931 . S
C2651 C2650 1.385 . S
C2651 C2652 1.389 . S
C2652 C2651 1.389 . S
C2652 C2653 1.387 . S
C2653 H2638 0.930 . S
C2653 C2648 1.390 . S
C2653 C2652 1.387 . S
H2654 C2666 0.930 . S
H2655 C2668 0.930 . S
H2656 C2669 0.930 . S
H2657 C2673 0.959 . S
H2658 C2673 0.959 . S
H2659 C2673 0.961 . S
H2660 C2674 0.960 . S
H2661 C2674 0.961 . S
H2662 C2674 0.959 1_655 S
H2663 C2677 0.929 . S
H2664 C2678 0.931 . S
H2665 C2680 0.930 . S
C2666 H2654 0.930 . S
C2666 C2667 1.399 . S
C2666 C2671 1.399 . S
C2667 C2666 1.399 . S
C2667 C2668 1.376 . S
C2668 H2655 0.930 . S
C2668 C2667 1.376 . S
C2668 C2669 1.388 . S
C2669 H2656 0.930 . S
C2669 C2668 1.388 . S
C2669 C2670 1.390 . S
C2670 C2669 1.390 . S
C2670 C2671 1.394 . S
C2670 C2676 1.465 . S
C2671 C2666 1.399 . S
C2671 C2670 1.394 . S
C2671 C2672 1.516 . S
C2672 C2671 1.516 . S
C2672 C2673 1.502 . S
C2672 C2674 1.561 . S
C2672 C2675 1.526 . S
C2673 H2657 0.959 . S
C2673 H2658 0.959 . S
C2673 H2659 0.961 . S
C2673 C2672 1.502 . S
C2674 H2660 0.960 . S
C2674 H2661 0.961 . S
C2674 H2662 0.959 1_455 S
C2674 C2672 1.561 . S
C2675 C2672 1.526 . S
C2675 C2676 1.396 . S
C2675 C2680 1.390 . S
C2676 C2670 1.465 . S
C2676 C2675 1.396 . S
C2676 C2677 1.399 . S
C2677 H2663 0.929 . S
C2677 C2676 1.399 . S
C2677 C2678 1.385 . S
C2678 H2664 0.931 . S
C2678 C2677 1.385 . S
C2678 C2679 1.389 . S
C2679 C2678 1.389 . S
C2679 C2680 1.387 . S
C2680 H2665 0.930 . S
C2680 C2675 1.390 . S
C2680 C2679 1.387 . S
H2681 C2693 0.930 . S
H2682 C2695 0.930 . S
H2683 C2696 0.930 . S
H2684 C2700 0.959 . S
H2685 C2700 0.959 . S
H2686 C2700 0.961 . S
H2687 C2701 0.960 . S
H2688 C2701 0.961 . S
H2689 C2701 0.959 . S
H2690 C2704 0.929 . S
H2691 C2705 0.931 . S
H2692 C2707 0.930 . S
C2693 H2681 0.930 . S
C2693 C2694 1.399 . S
C2693 C2698 1.399 . S
C2694 C2693 1.399 . S
C2694 C2695 1.376 . S
C2695 H2682 0.930 . S
C2695 C2694 1.376 . S
C2695 C2696 1.388 . S
C2696 H2683 0.930 . S
C2696 C2695 1.388 . S
C2696 C2697 1.390 . S
C2697 C2696 1.390 . S
C2697 C2698 1.394 . S
C2697 C2703 1.465 . S
C2698 C2693 1.399 . S
C2698 C2697 1.394 . S
C2698 C2699 1.516 . S
C2699 C2698 1.516 . S
C2699 C2700 1.502 . S
C2699 C2701 1.561 . S
C2699 C2702 1.526 . S
C2700 H2684 0.959 . S
C2700 H2685 0.959 . S
C2700 H2686 0.961 . S
C2700 C2699 1.502 . S
C2701 H2687 0.960 . S
C2701 H2688 0.961 . S
C2701 H2689 0.959 . S
C2701 C2699 1.561 . S
C2702 C2699 1.526 . S
C2702 C2703 1.396 . S
C2702 C2707 1.390 . S
C2703 C2697 1.465 . S
C2703 C2702 1.396 . S
C2703 C2704 1.399 . S
C2704 H2690 0.929 . S
C2704 C2703 1.399 . S
C2704 C2705 1.385 . S
C2705 H2691 0.931 . S
C2705 C2704 1.385 . S
C2705 C2706 1.389 . S
C2706 C2705 1.389 . S
C2706 C2707 1.387 . S
C2707 H2692 0.930 . S
C2707 C2702 1.390 . S
C2707 C2706 1.387 . S
H2708 C2720 0.930 . S
H2709 C2722 0.930 . S
H2710 C2723 0.930 . S
H2711 C2727 0.959 . S
H2712 C2727 0.959 . S
H2713 C2727 0.961 . S
H2714 C2728 0.960 . S
H2715 C2728 0.961 . S
H2716 C2728 0.959 . S
H2717 C2731 0.921 1_554 S
H2718 C2732 0.963 . S
H2719 C2734 0.930 . S
C2720 H2708 0.930 . S
C2720 C2721 1.399 . S
C2720 C2725 1.399 . S
C2721 C2720 1.399 . S
C2721 C2722 1.376 . S
C2722 H2709 0.930 . S
C2722 C2721 1.376 . S
C2722 C2723 1.388 . S
C2723 H2710 0.930 . S
C2723 C2722 1.388 . S
C2723 C2724 1.390 . S
C2724 C2723 1.390 . S
C2724 C2725 1.394 . S
C2724 C2730 1.465 . S
C2725 C2720 1.399 . S
C2725 C2724 1.394 . S
C2725 C2726 1.516 . S
C2726 C2725 1.516 . S
C2726 C2727 1.502 . S
C2726 C2728 1.561 . S
C2726 C2729 1.526 . S
C2727 H2711 0.959 . S
C2727 H2712 0.959 . S
C2727 H2713 0.961 . S
C2727 C2726 1.502 . S
C2728 H2714 0.960 . S
C2728 H2715 0.961 . S
C2728 H2716 0.959 . S
C2728 C2726 1.561 . S
C2729 C2726 1.526 . S
C2729 C2730 1.396 . S
C2729 C2734 1.390 . S
C2730 C2724 1.465 . S
C2730 C2729 1.396 . S
C2730 C2731 1.399 . S
C2731 H2717 0.921 1_556 S
C2731 C2730 1.399 . S
C2731 C2732 1.368 1_556 S
C2732 H2718 0.963 . S
C2732 C2731 1.368 1_554 S
C2732 C2733 1.376 1_554 S
C2733 C2732 1.376 1_556 S
C2733 C2734 1.387 . S
C2734 H2719 0.930 . S
C2734 C2729 1.390 . S
C2734 C2733 1.387 . S
H2735 C2747 0.930 . S
H2736 C2749 0.930 . S
H2737 C2750 0.930 . S
H2738 C2754 0.959 . S
H2739 C2754 0.959 . S
H2740 C2754 0.961 . S
H2741 C2755 0.960 . S
H2742 C2755 0.961 . S
H2743 C2755 0.959 . S
H2744 C2758 0.929 . S
H2745 C2759 0.931 . S
H2746 C2761 0.930 . S
C2747 H2735 0.930 . S
C2747 C2748 1.399 . S
C2747 C2752 1.399 . S
C2748 C2747 1.399 . S
C2748 C2749 1.376 . S
C2749 H2736 0.930 . S
C2749 C2748 1.376 . S
C2749 C2750 1.388 . S
C2750 H2737 0.930 . S
C2750 C2749 1.388 . S
C2750 C2751 1.390 . S
C2751 C2750 1.390 . S
C2751 C2752 1.394 . S
C2751 C2757 1.465 . S
C2752 C2747 1.399 . S
C2752 C2751 1.394 . S
C2752 C2753 1.516 . S
C2753 C2752 1.516 . S
C2753 C2754 1.502 . S
C2753 C2755 1.561 . S
C2753 C2756 1.526 . S
C2754 H2738 0.959 . S
C2754 H2739 0.959 . S
C2754 H2740 0.961 . S
C2754 C2753 1.502 . S
C2755 H2741 0.960 . S
C2755 H2742 0.961 . S
C2755 H2743 0.959 . S
C2755 C2753 1.561 . S
C2756 C2753 1.526 . S
C2756 C2757 1.396 . S
C2756 C2761 1.390 . S
C2757 C2751 1.465 . S
C2757 C2756 1.396 . S
C2757 C2758 1.399 . S
C2758 H2744 0.929 . S
C2758 C2757 1.399 . S
C2758 C2759 1.385 . S
C2759 H2745 0.931 . S
C2759 C2758 1.385 . S
C2759 C2760 1.389 . S
C2760 C2759 1.389 . S
C2760 C2761 1.387 . S
C2761 H2746 0.930 . S
C2761 C2756 1.390 . S
C2761 C2760 1.387 . S
H2762 C2774 0.930 . S
H2763 C2776 0.930 . S
H2764 C2777 0.930 . S
H2765 C2781 0.944 1_655 S
H2766 C2781 0.955 1_655 S
H2767 C2781 0.966 1_655 S
H2768 C2782 0.960 . S
H2769 C2782 0.961 . S
H2770 C2782 0.959 . S
H2771 C2785 0.929 . S
H2772 C2786 0.931 . S
H2773 C2788 0.930 . S
C2774 H2762 0.930 . S
C2774 C2775 1.399 . S
C2774 C2779 1.399 . S
C2775 C2774 1.399 . S
C2775 C2776 1.376 . S
C2776 H2763 0.930 . S
C2776 C2775 1.376 . S
C2776 C2777 1.388 . S
C2777 H2764 0.930 . S
C2777 C2776 1.388 . S
C2777 C2778 1.390 . S
C2778 C2777 1.390 . S
C2778 C2779 1.394 . S
C2778 C2784 1.465 . S
C2779 C2774 1.399 . S
C2779 C2778 1.394 . S
C2779 C2780 1.516 . S
C2780 C2779 1.516 . S
C2780 C2781 1.518 . S
C2780 C2782 1.561 . S
C2780 C2783 1.526 . S
C2781 H2765 0.944 1_455 S
C2781 H2766 0.955 1_455 S
C2781 H2767 0.966 1_455 S
C2781 C2780 1.518 . S
C2782 H2768 0.960 . S
C2782 H2769 0.961 . S
C2782 H2770 0.959 . S
C2782 C2780 1.561 . S
C2783 C2780 1.526 . S
C2783 C2784 1.396 . S
C2783 C2788 1.390 . S
C2784 C2778 1.465 . S
C2784 C2783 1.396 . S
C2784 C2785 1.399 . S
C2785 H2771 0.929 . S
C2785 C2784 1.399 . S
C2785 C2786 1.385 . S
C2786 H2772 0.931 . S
C2786 C2785 1.385 . S
C2786 C2787 1.389 . S
C2787 C2786 1.389 . S
C2787 C2788 1.387 . S
C2788 H2773 0.930 . S
C2788 C2783 1.390 . S
C2788 C2787 1.387 . S
H2789 C2801 0.930 . S
H2790 C2803 0.930 . S
H2791 C2804 0.930 . S
H2792 C2808 0.959 . S
H2793 C2808 0.959 . S
H2794 C2808 0.961 . S
H2795 C2809 0.960 . S
H2796 C2809 0.961 . S
H2797 C2809 0.959 . S
H2798 C2812 0.929 . S
H2799 C2813 0.931 . S
H2800 C2815 0.930 . S
C2801 H2789 0.930 . S
C2801 C2802 1.399 . S
C2801 C2806 1.399 . S
C2802 C2801 1.399 . S
C2802 C2803 1.376 . S
C2803 H2790 0.930 . S
C2803 C2802 1.376 . S
C2803 C2804 1.388 . S
C2804 H2791 0.930 . S
C2804 C2803 1.388 . S
C2804 C2805 1.390 . S
C2805 C2804 1.390 . S
C2805 C2806 1.394 . S
C2805 C2811 1.465 . S
C2806 C2801 1.399 . S
C2806 C2805 1.394 . S
C2806 C2807 1.516 . S
C2807 C2806 1.516 . S
C2807 C2808 1.502 . S
C2807 C2809 1.561 . S
C2807 C2810 1.526 . S
C2808 H2792 0.959 . S
C2808 H2793 0.959 . S
C2808 H2794 0.961 . S
C2808 C2807 1.502 . S
C2809 H2795 0.960 . S
C2809 H2796 0.961 . S
C2809 H2797 0.959 . S
C2809 C2807 1.561 . S
C2810 C2807 1.526 . S
C2810 C2811 1.396 . S
C2810 C2815 1.390 . S
C2811 C2805 1.465 . S
C2811 C2810 1.396 . S
C2811 C2812 1.399 . S
C2812 H2798 0.929 . S
C2812 C2811 1.399 . S
C2812 C2813 1.385 . S
C2813 H2799 0.931 . S
C2813 C2812 1.385 . S
C2813 C2814 1.389 . S
C2814 C2813 1.389 . S
C2814 C2815 1.387 . S
C2815 H2800 0.930 . S
C2815 C2810 1.390 . S
C2815 C2814 1.387 . S
H2816 C2828 0.930 . S
H2817 C2830 0.930 . S
H2818 C2831 0.930 . S
H2819 C2835 0.959 . S
H2820 C2835 0.959 . S
H2821 C2835 0.961 . S
H2822 C2836 0.960 . S
H2823 C2836 0.961 . S
H2824 C2836 0.959 . S
H2825 C2839 0.929 . S
H2826 C2840 0.931 . S
H2827 C2842 0.930 . S
C2828 H2816 0.930 . S
C2828 C2829 1.399 . S
C2828 C2833 1.399 . S
C2829 C2828 1.399 . S
C2829 C2830 1.376 . S
C2830 H2817 0.930 . S
C2830 C2829 1.376 . S
C2830 C2831 1.388 . S
C2831 H2818 0.930 . S
C2831 C2830 1.388 . S
C2831 C2832 1.390 . S
C2832 C2831 1.390 . S
C2832 C2833 1.394 . S
C2832 C2838 1.465 . S
C2833 C2828 1.399 . S
C2833 C2832 1.394 . S
C2833 C2834 1.516 . S
C2834 C2833 1.516 . S
C2834 C2835 1.502 . S
C2834 C2836 1.561 . S
C2834 C2837 1.526 . S
C2835 H2819 0.959 . S
C2835 H2820 0.959 . S
C2835 H2821 0.961 . S
C2835 C2834 1.502 . S
C2836 H2822 0.960 . S
C2836 H2823 0.961 . S
C2836 H2824 0.959 . S
C2836 C2834 1.561 . S
C2837 C2834 1.526 . S
C2837 C2838 1.396 . S
C2837 C2842 1.390 . S
C2838 C2832 1.465 . S
C2838 C2837 1.396 . S
C2838 C2839 1.399 . S
C2839 H2825 0.929 . S
C2839 C2838 1.399 . S
C2839 C2840 1.385 . S
C2840 H2826 0.931 . S
C2840 C2839 1.385 . S
C2840 C2841 1.389 . S
C2841 C2840 1.389 . S
C2841 C2842 1.387 . S
C2842 H2827 0.930 . S
C2842 C2837 1.390 . S
C2842 C2841 1.387 . S
H2843 C2855 0.930 . S
H2844 C2857 0.930 . S
H2845 C2858 0.930 . S
H2846 C2862 0.959 . S
H2847 C2862 0.959 . S
H2848 C2862 0.961 . S
H2849 C2863 0.960 . S
H2850 C2863 0.961 . S
H2851 C2863 0.959 . S
H2852 C2866 0.929 . S
H2853 C2867 0.931 . S
H2854 C2869 0.930 . S
C2855 H2843 0.930 . S
C2855 C2856 1.399 . S
C2855 C2860 1.399 . S
C2856 C2855 1.399 . S
C2856 C2857 1.376 . S
C2857 H2844 0.930 . S
C2857 C2856 1.376 . S
C2857 C2858 1.388 . S
C2858 H2845 0.930 . S
C2858 C2857 1.388 . S
C2858 C2859 1.390 . S
C2859 C2858 1.390 . S
C2859 C2860 1.394 . S
C2859 C2865 1.465 . S
C2860 C2855 1.399 . S
C2860 C2859 1.394 . S
C2860 C2861 1.516 . S
C2861 C2860 1.516 . S
C2861 C2862 1.502 . S
C2861 C2863 1.561 . S
C2861 C2864 1.526 . S
C2862 H2846 0.959 . S
C2862 H2847 0.959 . S
C2862 H2848 0.961 . S
C2862 C2861 1.502 . S
C2863 H2849 0.960 . S
C2863 H2850 0.961 . S
C2863 H2851 0.959 . S
C2863 C2861 1.561 . S
C2864 C2861 1.526 . S
C2864 C2865 1.396 . S
C2864 C2869 1.390 . S
C2865 C2859 1.465 . S
C2865 C2864 1.396 . S
C2865 C2866 1.399 . S
C2866 H2852 0.929 . S
C2866 C2865 1.399 . S
C2866 C2867 1.385 . S
C2867 H2853 0.931 . S
C2867 C2866 1.385 . S
C2867 C2868 1.389 . S
C2868 C2867 1.389 . S
C2868 C2869 1.387 . S
C2869 H2854 0.930 . S
C2869 C2864 1.390 . S
C2869 C2868 1.387 . S
H2870 C2882 0.930 . S
H2871 C2884 0.930 . S
H2872 C2885 0.930 . S
H2873 C2889 0.959 . S
H2874 C2889 0.959 . S
H2875 C2889 0.961 . S
H2876 C2890 0.960 . S
H2877 C2890 0.961 . S
H2878 C2890 0.959 . S
H2879 C2893 0.929 . S
H2880 C2894 0.931 . S
H2881 C2896 0.930 . S
C2882 H2870 0.930 . S
C2882 C2883 1.399 . S
C2882 C2887 1.399 . S
C2883 C2882 1.399 . S
C2883 C2884 1.376 . S
C2884 H2871 0.930 . S
C2884 C2883 1.376 . S
C2884 C2885 1.388 . S
C2885 H2872 0.930 . S
C2885 C2884 1.388 . S
C2885 C2886 1.390 . S
C2886 C2885 1.390 . S
C2886 C2887 1.394 . S
C2886 C2892 1.465 . S
C2887 C2882 1.399 . S
C2887 C2886 1.394 . S
C2887 C2888 1.516 . S
C2888 C2887 1.516 . S
C2888 C2889 1.502 . S
C2888 C2890 1.561 . S
C2888 C2891 1.526 . S
C2889 H2873 0.959 . S
C2889 H2874 0.959 . S
C2889 H2875 0.961 . S
C2889 C2888 1.502 . S
C2890 H2876 0.960 . S
C2890 H2877 0.961 . S
C2890 H2878 0.959 . S
C2890 C2888 1.561 . S
C2891 C2888 1.526 . S
C2891 C2892 1.396 . S
C2891 C2896 1.390 . S
C2892 C2886 1.465 . S
C2892 C2891 1.396 . S
C2892 C2893 1.399 1_655 S
C2893 H2879 0.929 . S
C2893 C2892 1.399 1_455 S
C2893 C2894 1.385 . S
C2894 H2880 0.931 . S
C2894 C2893 1.385 . S
C2894 C2895 1.389 1_455 S
C2895 C2894 1.389 1_655 S
C2895 C2896 1.387 . S
C2896 H2881 0.930 . S
C2896 C2891 1.390 . S
C2896 C2895 1.387 . S
H2897 C2909 0.930 . S
H2898 C2911 0.930 . S
H2899 C2912 0.930 . S
H2900 C2916 0.959 . S
H2901 C2916 0.959 . S
H2902 C2916 0.961 . S
H2903 C2917 0.960 . S
H2904 C2917 0.961 . S
H2905 C2917 0.959 . S
H2906 C2920 0.929 . S
H2907 C2921 0.931 . S
H2908 C2923 0.930 . S
C2909 H2897 0.930 . S
C2909 C2910 1.399 . S
C2909 C2914 1.399 . S
C2910 C2909 1.399 . S
C2910 C2911 1.376 . S
C2911 H2898 0.930 . S
C2911 C2910 1.376 . S
C2911 C2912 1.388 . S
C2912 H2899 0.930 . S
C2912 C2911 1.388 . S
C2912 C2913 1.390 . S
C2913 C2912 1.390 . S
C2913 C2914 1.394 . S
C2913 C2919 1.465 . S
C2914 C2909 1.399 . S
C2914 C2913 1.394 . S
C2914 C2915 1.516 . S
C2915 C2914 1.516 . S
C2915 C2916 1.502 . S
C2915 C2917 1.561 . S
C2915 C2918 1.526 . S
C2916 H2900 0.959 . S
C2916 H2901 0.959 . S
C2916 H2902 0.961 . S
C2916 C2915 1.502 . S
C2917 H2903 0.960 . S
C2917 H2904 0.961 . S
C2917 H2905 0.959 . S
C2917 C2915 1.561 . S
C2918 C2915 1.526 . S
C2918 C2919 1.396 . S
C2918 C2923 1.390 . S
C2919 C2913 1.465 . S
C2919 C2918 1.396 . S
C2919 C2920 1.399 . S
C2920 H2906 0.929 . S
C2920 C2919 1.399 . S
C2920 C2921 1.385 . S
C2921 H2907 0.931 . S
C2921 C2920 1.385 . S
C2921 C2922 1.389 . S
C2922 C2921 1.389 . S
C2922 C2923 1.387 . S
C2923 H2908 0.930 . S
C2923 C2918 1.390 . S
C2923 C2922 1.387 . S
H2924 C2936 0.930 . S
H2925 C2938 0.930 . S
H2926 C2939 0.930 . S
H2927 C2943 0.959 . S
H2928 C2943 0.959 . S
H2929 C2943 0.961 . S
H2930 C2944 0.960 . S
H2931 C2944 0.961 . S
H2932 C2944 0.959 . S
H2933 C2947 0.929 . S
H2934 C2948 0.931 . S
H2935 C2950 0.930 . S
C2936 H2924 0.930 . S
C2936 C2937 1.399 . S
C2936 C2941 1.399 . S
C2937 C2936 1.399 . S
C2937 C2938 1.376 . S
C2938 H2925 0.930 . S
C2938 C2937 1.376 . S
C2938 C2939 1.388 . S
C2939 H2926 0.930 . S
C2939 C2938 1.388 . S
C2939 C2940 1.390 . S
C2940 C2939 1.390 . S
C2940 C2941 1.394 . S
C2940 C2946 1.465 . S
C2941 C2936 1.399 . S
C2941 C2940 1.394 . S
C2941 C2942 1.516 . S
C2942 C2941 1.516 . S
C2942 C2943 1.502 . S
C2942 C2944 1.561 . S
C2942 C2945 1.526 . S
C2943 H2927 0.959 . S
C2943 H2928 0.959 . S
C2943 H2929 0.961 . S
C2943 C2942 1.502 . S
C2944 H2930 0.960 . S
C2944 H2931 0.961 . S
C2944 H2932 0.959 . S
C2944 C2942 1.561 . S
C2945 C2942 1.526 . S
C2945 C2946 1.396 . S
C2945 C2950 1.390 . S
C2946 C2940 1.465 . S
C2946 C2945 1.396 . S
C2946 C2947 1.399 . S
C2947 H2933 0.929 . S
C2947 C2946 1.399 . S
C2947 C2948 1.385 . S
C2948 H2934 0.931 . S
C2948 C2947 1.385 . S
C2948 C2949 1.389 . S
C2949 C2948 1.389 . S
C2949 C2950 1.387 . S
C2950 H2935 0.930 . S
C2950 C2945 1.390 . S
C2950 C2949 1.387 . S
H2951 C2963 0.930 . S
H2952 C2965 0.930 . S
H2953 C2966 0.930 . S
H2954 C2970 0.959 . S
H2955 C2970 0.959 . S
H2956 C2970 0.961 . S
H2957 C2971 0.960 . S
H2958 C2971 0.961 . S
H2959 C2971 0.959 . S
H2960 C2974 0.929 . S
H2961 C2975 0.931 . S
H2962 C2977 0.930 . S
C2963 H2951 0.930 . S
C2963 C2964 1.399 . S
C2963 C2968 1.399 . S
C2964 C2963 1.399 . S
C2964 C2965 1.376 . S
C2965 H2952 0.930 . S
C2965 C2964 1.376 . S
C2965 C2966 1.388 . S
C2966 H2953 0.930 . S
C2966 C2965 1.388 . S
C2966 C2967 1.390 . S
C2967 C2966 1.390 . S
C2967 C2968 1.394 . S
C2967 C2973 1.465 . S
C2968 C2963 1.399 . S
C2968 C2967 1.394 . S
C2968 C2969 1.516 . S
C2969 C2968 1.516 . S
C2969 C2970 1.502 . S
C2969 C2971 1.561 . S
C2969 C2972 1.526 . S
C2970 H2954 0.959 . S
C2970 H2955 0.959 . S
C2970 H2956 0.961 . S
C2970 C2969 1.502 . S
C2971 H2957 0.960 . S
C2971 H2958 0.961 . S
C2971 H2959 0.959 . S
C2971 C2969 1.561 . S
C2972 C2969 1.526 . S
C2972 C2973 1.396 . S
C2972 C2977 1.390 . S
C2973 C2967 1.465 . S
C2973 C2972 1.396 . S
C2973 C2974 1.399 . S
C2974 H2960 0.929 . S
C2974 C2973 1.399 . S
C2974 C2975 1.385 . S
C2975 H2961 0.931 . S
C2975 C2974 1.385 . S
C2975 C2976 1.389 . S
C2976 C2975 1.389 . S
C2976 C2977 1.387 . S
C2977 H2962 0.930 . S
C2977 C2972 1.390 . S
C2977 C2976 1.387 . S
H2978 C2990 0.930 . S
H2979 C2992 0.930 . S
H2980 C2993 0.930 . S
H2981 C2997 0.959 . S
H2982 C2997 0.959 . S
H2983 C2997 0.961 . S
H2984 C2998 0.960 . S
H2985 C2998 0.961 . S
H2986 C2998 0.959 . S
H2987 C3001 0.929 . S
H2988 C3002 0.931 . S
H2989 C3004 0.930 . S
C2990 H2978 0.930 . S
C2990 C2991 1.399 . S
C2990 C2995 1.399 . S
C2991 C2990 1.399 . S
C2991 C2992 1.376 . S
C2992 H2979 0.930 . S
C2992 C2991 1.376 . S
C2992 C2993 1.388 . S
C2993 H2980 0.930 . S
C2993 C2992 1.388 . S
C2993 C2994 1.390 . S
C2994 C2993 1.390 . S
C2994 C2995 1.394 . S
C2994 C3000 1.465 . S
C2995 C2990 1.399 . S
C2995 C2994 1.394 . S
C2995 C2996 1.516 . S
C2996 C2995 1.516 . S
C2996 C2997 1.502 . S
C2996 C2998 1.561 . S
C2996 C2999 1.526 . S
C2997 H2981 0.959 . S
C2997 H2982 0.959 . S
C2997 H2983 0.961 . S
C2997 C2996 1.502 . S
C2998 H2984 0.960 . S
C2998 H2985 0.961 . S
C2998 H2986 0.959 . S
C2998 C2996 1.561 . S
C2999 C2996 1.526 . S
C2999 C3000 1.396 . S
C2999 C3004 1.390 . S
C3000 C2994 1.465 . S
C3000 C2999 1.396 . S
C3000 C3001 1.399 . S
C3001 H2987 0.929 . S
C3001 C3000 1.399 . S
C3001 C3002 1.385 . S
C3002 H2988 0.931 . S
C3002 C3001 1.385 . S
C3002 C3003 1.389 . S
C3003 C3002 1.389 . S
C3003 C3004 1.387 . S
C3004 H2989 0.930 . S
C3004 C2999 1.390 . S
C3004 C3003 1.387 . S
H3005 C3017 0.930 . S
H3006 C3019 0.930 . S
H3007 C3020 0.930 . S
H3008 C3024 0.959 . S
H3009 C3024 0.959 . S
H3010 C3024 0.961 . S
H3011 C3025 0.960 . S
H3012 C3025 0.961 . S
H3013 C3025 0.959 . S
H3014 C3028 0.929 . S
H3015 C3029 0.931 . S
H3016 C3031 0.930 . S
C3017 H3005 0.930 . S
C3017 C3018 1.399 . S
C3017 C3022 1.399 . S
C3018 C3017 1.399 . S
C3018 C3019 1.376 . S
C3019 H3006 0.930 . S
C3019 C3018 1.376 . S
C3019 C3020 1.388 . S
C3020 H3007 0.930 . S
C3020 C3019 1.388 . S
C3020 C3021 1.390 . S
C3021 C3020 1.390 . S
C3021 C3022 1.394 . S
C3021 C3027 1.465 . S
C3022 C3017 1.399 . S
C3022 C3021 1.394 . S
C3022 C3023 1.516 . S
C3023 C3022 1.516 . S
C3023 C3024 1.502 . S
C3023 C3025 1.561 . S
C3023 C3026 1.526 . S
C3024 H3008 0.959 . S
C3024 H3009 0.959 . S
C3024 H3010 0.961 . S
C3024 C3023 1.502 . S
C3025 H3011 0.960 . S
C3025 H3012 0.961 . S
C3025 H3013 0.959 . S
C3025 C3023 1.561 . S
C3026 C3023 1.526 . S
C3026 C3027 1.396 . S
C3026 C3031 1.390 . S
C3027 C3021 1.465 . S
C3027 C3026 1.396 . S
C3027 C3028 1.399 . S
C3028 H3014 0.929 . S
C3028 C3027 1.399 . S
C3028 C3029 1.385 . S
C3029 H3015 0.931 . S
C3029 C3028 1.385 . S
C3029 C3030 1.389 . S
C3030 C3029 1.389 . S
C3030 C3031 1.387 . S
C3031 H3016 0.930 . S
C3031 C3026 1.390 . S
C3031 C3030 1.387 . S
H3032 C3044 0.930 . S
H3033 C3046 0.930 . S
H3034 C3047 0.930 . S
H3035 C3051 0.959 . S
H3036 C3051 0.959 . S
H3037 C3051 0.961 . S
H3038 C3052 0.960 . S
H3039 C3052 0.961 . S
H3040 C3052 0.959 . S
H3041 C3055 0.929 . S
H3042 C3056 0.931 . S
H3043 C3058 0.930 . S
C3044 H3032 0.930 . S
C3044 C3045 1.399 . S
C3044 C3049 1.399 . S
C3045 C3044 1.399 . S
C3045 C3046 1.376 . S
C3046 H3033 0.930 . S
C3046 C3045 1.376 . S
C3046 C3047 1.388 . S
C3047 H3034 0.930 . S
C3047 C3046 1.388 . S
C3047 C3048 1.390 . S
C3048 C3047 1.390 . S
C3048 C3049 1.394 . S
C3048 C3054 1.465 . S
C3049 C3044 1.399 . S
C3049 C3048 1.394 . S
C3049 C3050 1.516 . S
C3050 C3049 1.516 . S
C3050 C3051 1.502 . S
C3050 C3052 1.561 . S
C3050 C3053 1.526 . S
C3051 H3035 0.959 . S
C3051 H3036 0.959 . S
C3051 H3037 0.961 . S
C3051 C3050 1.502 . S
C3052 H3038 0.960 . S
C3052 H3039 0.961 . S
C3052 H3040 0.959 . S
C3052 C3050 1.561 . S
C3053 C3050 1.526 . S
C3053 C3054 1.396 . S
C3053 C3058 1.390 . S
C3054 C3048 1.465 . S
C3054 C3053 1.396 . S
C3054 C3055 1.399 . S
C3055 H3041 0.929 . S
C3055 C3054 1.399 . S
C3055 C3056 1.385 . S
C3056 H3042 0.931 . S
C3056 C3055 1.385 . S
C3056 C3057 1.389 . S
C3057 C3056 1.389 . S
C3057 C3058 1.387 . S
C3058 H3043 0.930 . S
C3058 C3053 1.390 . S
C3058 C3057 1.387 . S
H3059 C3071 0.930 . S
H3060 C3073 0.930 . S
H3061 C3074 0.930 . S
H3062 C3078 0.959 . S
H3063 C3078 0.959 . S
H3064 C3078 0.961 . S
H3065 C3079 0.960 . S
H3066 C3079 0.961 . S
H3067 C3079 0.959 . S
H3068 C3082 0.929 . S
H3069 C3083 0.931 . S
H3070 C3085 0.930 . S
C3071 H3059 0.930 . S
C3071 C3072 1.399 . S
C3071 C3076 1.399 . S
C3072 C3071 1.399 . S
C3072 C3073 1.376 . S
C3073 H3060 0.930 . S
C3073 C3072 1.376 . S
C3073 C3074 1.388 . S
C3074 H3061 0.930 . S
C3074 C3073 1.388 . S
C3074 C3075 1.390 . S
C3075 C3074 1.390 . S
C3075 C3076 1.394 . S
C3075 C3081 1.465 . S
C3076 C3071 1.399 . S
C3076 C3075 1.394 . S
C3076 C3077 1.516 . S
C3077 C3076 1.516 . S
C3077 C3078 1.502 . S
C3077 C3079 1.561 . S
C3077 C3080 1.526 . S
C3078 H3062 0.959 . S
C3078 H3063 0.959 . S
C3078 H3064 0.961 . S
C3078 C3077 1.502 . S
C3079 H3065 0.960 . S
C3079 H3066 0.961 . S
C3079 H3067 0.959 . S
C3079 C3077 1.561 . S
C3080 C3077 1.526 . S
C3080 C3081 1.396 . S
C3080 C3085 1.390 . S
C3081 C3075 1.465 . S
C3081 C3080 1.396 . S
C3081 C3082 1.399 . S
C3082 H3068 0.929 . S
C3082 C3081 1.399 . S
C3082 C3083 1.385 . S
C3083 H3069 0.931 . S
C3083 C3082 1.385 . S
C3083 C3084 1.389 . S
C3084 C3083 1.389 . S
C3084 C3085 1.387 . S
C3085 H3070 0.930 . S
C3085 C3080 1.390 . S
C3085 C3084 1.387 . S
H3086 C3098 0.930 . S
H3087 C3100 0.930 . S
H3088 C3101 0.930 . S
H3089 C3105 0.959 . S
H3090 C3105 0.959 . S
H3091 C3105 0.961 . S
H3092 C3106 0.960 . S
H3093 C3106 0.961 . S
H3094 C3106 0.959 . S
H3095 C3109 0.929 . S
H3096 C3110 0.931 . S
H3097 C3112 0.930 . S
C3098 H3086 0.930 . S
C3098 C3099 1.399 . S
C3098 C3103 1.399 . S
C3099 C3098 1.399 . S
C3099 C3100 1.376 . S
C3100 H3087 0.930 . S
C3100 C3099 1.376 . S
C3100 C3101 1.388 . S
C3101 H3088 0.930 . S
C3101 C3100 1.388 . S
C3101 C3102 1.390 . S
C3102 C3101 1.390 . S
C3102 C3103 1.394 . S
C3102 C3108 1.465 . S
C3103 C3098 1.399 . S
C3103 C3102 1.394 . S
C3103 C3104 1.516 . S
C3104 C3103 1.516 . S
C3104 C3105 1.502 . S
C3104 C3106 1.561 . S
C3104 C3107 1.526 . S
C3105 H3089 0.959 . S
C3105 H3090 0.959 . S
C3105 H3091 0.961 . S
C3105 C3104 1.502 . S
C3106 H3092 0.960 . S
C3106 H3093 0.961 . S
C3106 H3094 0.959 . S
C3106 C3104 1.561 . S
C3107 C3104 1.526 . S
C3107 C3108 1.396 . S
C3107 C3112 1.390 . S
C3108 C3102 1.465 . S
C3108 C3107 1.396 . S
C3108 C3109 1.399 . S
C3109 H3095 0.929 . S
C3109 C3108 1.399 . S
C3109 C3110 1.385 . S
C3110 H3096 0.931 . S
C3110 C3109 1.385 . S
C3110 C3111 1.389 . S
C3111 C3110 1.389 . S
C3111 C3112 1.387 . S
C3112 H3097 0.930 . S
C3112 C3107 1.390 . S
C3112 C3111 1.387 . S
H3113 C3125 0.930 1_556 S
H3114 C3127 0.930 . S
H3115 C3128 0.930 . S
H3116 C3132 0.959 . S
H3117 C3132 0.959 . S
H3118 C3132 0.961 . S
H3119 C3133 0.960 . S
H3120 C3133 0.961 . S
H3121 C3133 0.959 . S
H3122 C3136 0.929 . S
H3123 C3137 0.931 . S
H3124 C3139 0.930 1_556 S
C3125 H3113 0.930 1_554 S
C3125 C3126 1.399 . S
C3125 C3130 1.399 . S
C3126 C3125 1.399 . S
C3126 C3127 1.376 . S
C3127 H3114 0.930 . S
C3127 C3126 1.376 . S
C3127 C3128 1.388 . S
C3128 H3115 0.930 . S
C3128 C3127 1.388 . S
C3128 C3129 1.390 . S
C3129 C3128 1.390 . S
C3129 C3130 1.394 . S
C3129 C3135 1.465 . S
C3130 C3125 1.399 . S
C3130 C3129 1.394 . S
C3130 C3131 1.516 1_554 S
C3131 C3130 1.516 1_556 S
C3131 C3132 1.502 . S
C3131 C3133 1.561 . S
C3131 C3134 1.526 1_556 S
C3132 H3116 0.959 . S
C3132 H3117 0.959 . S
C3132 H3118 0.961 . S
C3132 C3131 1.502 . S
C3133 H3119 0.960 . S
C3133 H3120 0.961 . S
C3133 H3121 0.959 . S
C3133 C3131 1.561 . S
C3134 C3131 1.526 1_554 S
C3134 C3135 1.396 . S
C3134 C3139 1.390 . S
C3135 C3129 1.465 . S
C3135 C3134 1.396 . S
C3135 C3136 1.399 . S
C3136 H3122 0.929 . S
C3136 C3135 1.399 . S
C3136 C3137 1.385 . S
C3137 H3123 0.931 . S
C3137 C3136 1.385 . S
C3137 C3138 1.389 . S
C3138 C3137 1.389 . S
C3138 C3139 1.387 . S
C3139 H3124 0.930 1_554 S
C3139 C3134 1.390 . S
C3139 C3138 1.387 . S
H3140 C3152 0.930 . S
H3141 C3154 0.930 . S
H3142 C3155 0.930 . S
H3143 C3159 0.959 . S
H3144 C3159 0.959 . S
H3145 C3159 0.961 . S
H3146 C3160 0.960 . S
H3147 C3160 0.961 . S
H3148 C3160 0.959 . S
H3149 C3163 0.929 . S
H3150 C3164 0.931 . S
H3151 C3166 0.930 . S
C3152 H3140 0.930 . S
C3152 C3153 1.399 . S
C3152 C3157 1.399 . S
C3153 C3152 1.399 . S
C3153 C3154 1.376 . S
C3154 H3141 0.930 . S
C3154 C3153 1.376 . S
C3154 C3155 1.388 . S
C3155 H3142 0.930 . S
C3155 C3154 1.388 . S
C3155 C3156 1.390 . S
C3156 C3155 1.390 . S
C3156 C3157 1.394 . S
C3156 C3162 1.465 . S
C3157 C3152 1.399 . S
C3157 C3156 1.394 . S
C3157 C3158 1.516 . S
C3158 C3157 1.516 . S
C3158 C3159 1.502 . S
C3158 C3160 1.561 . S
C3158 C3161 1.526 . S
C3159 H3143 0.959 . S
C3159 H3144 0.959 . S
C3159 H3145 0.961 . S
C3159 C3158 1.502 . S
C3160 H3146 0.960 . S
C3160 H3147 0.961 . S
C3160 H3148 0.959 . S
C3160 C3158 1.561 . S
C3161 C3158 1.526 . S
C3161 C3162 1.396 . S
C3161 C3166 1.390 . S
C3162 C3156 1.465 . S
C3162 C3161 1.396 . S
C3162 C3163 1.399 . S
C3163 H3149 0.929 . S
C3163 C3162 1.399 . S
C3163 C3164 1.385 . S
C3164 H3150 0.931 . S
C3164 C3163 1.385 . S
C3164 C3165 1.389 . S
C3165 C3164 1.389 . S
C3165 C3166 1.387 . S
C3166 H3151 0.930 . S
C3166 C3161 1.390 . S
C3166 C3165 1.387 . S
H3167 C3179 0.930 . S
H3168 C3181 0.930 . S
H3169 C3182 0.930 1_556 S
H3170 C3186 0.959 . S
H3171 C3186 0.959 . S
H3172 C3186 0.961 . S
H3173 C3187 0.960 . S
H3174 C3187 0.961 . S
H3175 C3187 0.959 . S
H3176 C3190 0.929 . S
H3177 C3191 0.931 . S
H3178 C3193 0.930 . S
C3179 H3167 0.930 . S
C3179 C3180 1.399 . S
C3179 C3184 1.399 . S
C3180 C3179 1.399 . S
C3180 C3181 1.376 . S
C3181 H3168 0.930 . S
C3181 C3180 1.376 . S
C3181 C3182 1.388 . S
C3182 H3169 0.930 1_554 S
C3182 C3181 1.388 . S
C3182 C3183 1.390 . S
C3183 C3182 1.390 . S
C3183 C3184 1.394 . S
C3183 C3189 1.465 . S
C3184 C3179 1.399 . S
C3184 C3183 1.394 . S
C3184 C3185 1.516 . S
C3185 C3184 1.516 . S
C3185 C3186 1.502 . S
C3185 C3187 1.561 . S
C3185 C3188 1.526 . S
C3186 H3170 0.959 . S
C3186 H3171 0.959 . S
C3186 H3172 0.961 . S
C3186 C3185 1.502 . S
C3187 H3173 0.960 . S
C3187 H3174 0.961 . S
C3187 H3175 0.959 . S
C3187 C3185 1.561 . S
C3188 C3185 1.526 . S
C3188 C3189 1.396 . S
C3188 C3193 1.390 . S
C3189 C3183 1.465 . S
C3189 C3188 1.396 . S
C3189 C3190 1.399 1_554 S
C3190 H3176 0.929 . S
C3190 C3189 1.399 1_556 S
C3190 C3191 1.385 . S
C3191 H3177 0.931 . S
C3191 C3190 1.385 . S
C3191 C3192 1.389 1_556 S
C3192 C3191 1.389 1_554 S
C3192 C3193 1.387 . S
C3193 H3178 0.930 . S
C3193 C3188 1.390 . S
C3193 C3192 1.387 . S
H3194 C3206 0.930 . S
H3195 C3208 0.930 . S
H3196 C3209 0.930 . S
H3197 C3213 0.959 . S
H3198 C3213 0.959 . S
H3199 C3213 0.961 . S
H3200 C3214 0.960 . S
H3201 C3214 0.961 . S
H3202 C3214 0.959 . S
H3203 C3217 0.929 . S
H3204 C3218 0.931 . S
H3205 C3220 0.930 . S
C3206 H3194 0.930 . S
C3206 C3207 1.399 . S
C3206 C3211 1.399 . S
C3207 C3206 1.399 . S
C3207 C3208 1.376 . S
C3208 H3195 0.930 . S
C3208 C3207 1.376 . S
C3208 C3209 1.388 . S
C3209 H3196 0.930 . S
C3209 C3208 1.388 . S
C3209 C3210 1.390 . S
C3210 C3209 1.390 . S
C3210 C3211 1.394 . S
C3210 C3216 1.465 . S
C3211 C3206 1.399 . S
C3211 C3210 1.394 . S
C3211 C3212 1.516 . S
C3212 C3211 1.516 . S
C3212 C3213 1.502 . S
C3212 C3214 1.561 . S
C3212 C3215 1.526 . S
C3213 H3197 0.959 . S
C3213 H3198 0.959 . S
C3213 H3199 0.961 . S
C3213 C3212 1.502 . S
C3214 H3200 0.960 . S
C3214 H3201 0.961 . S
C3214 H3202 0.959 . S
C3214 C3212 1.561 . S
C3215 C3212 1.526 . S
C3215 C3216 1.396 . S
C3215 C3220 1.390 . S
C3216 C3210 1.465 . S
C3216 C3215 1.396 . S
C3216 C3217 1.399 . S
C3217 H3203 0.929 . S
C3217 C3216 1.399 . S
C3217 C3218 1.385 . S
C3218 H3204 0.931 . S
C3218 C3217 1.385 . S
C3218 C3219 1.389 . S
C3219 C3218 1.389 . S
C3219 C3220 1.387 . S
C3220 H3205 0.930 . S
C3220 C3215 1.390 . S
C3220 C3219 1.387 . S
H3221 C3233 0.930 . S
H3222 C3235 0.930 . S
H3223 C3236 0.930 . S
H3224 C3240 0.959 . S
H3225 C3240 0.959 . S
H3226 C3240 0.961 . S
H3227 C3241 0.960 . S
H3228 C3241 0.961 . S
H3229 C3241 0.959 . S
H3230 C3244 0.929 . S
H3231 C3245 0.931 . S
H3232 C3247 0.930 . S
C3233 H3221 0.930 . S
C3233 C3234 1.399 . S
C3233 C3238 1.399 . S
C3234 C3233 1.399 . S
C3234 C3235 1.376 . S
C3235 H3222 0.930 . S
C3235 C3234 1.376 . S
C3235 C3236 1.388 . S
C3236 H3223 0.930 . S
C3236 C3235 1.388 . S
C3236 C3237 1.390 . S
C3237 C3236 1.390 . S
C3237 C3238 1.394 . S
C3237 C3243 1.465 . S
C3238 C3233 1.399 . S
C3238 C3237 1.394 . S
C3238 C3239 1.516 . S
C3239 C3238 1.516 . S
C3239 C3240 1.502 . S
C3239 C3241 1.561 . S
C3239 C3242 1.526 . S
C3240 H3224 0.959 . S
C3240 H3225 0.959 . S
C3240 H3226 0.961 . S
C3240 C3239 1.502 . S
C3241 H3227 0.960 . S
C3241 H3228 0.961 . S
C3241 H3229 0.959 . S
C3241 C3239 1.561 . S
C3242 C3239 1.526 . S
C3242 C3243 1.396 . S
C3242 C3247 1.390 . S
C3243 C3237 1.465 . S
C3243 C3242 1.396 . S
C3243 C3244 1.399 . S
C3244 H3230 0.929 . S
C3244 C3243 1.399 . S
C3244 C3245 1.385 . S
C3245 H3231 0.931 . S
C3245 C3244 1.385 . S
C3245 C3246 1.389 . S
C3246 C3245 1.389 . S
C3246 C3247 1.387 . S
C3247 H3232 0.930 . S
C3247 C3242 1.390 . S
C3247 C3246 1.387 . S
C669 C109 1.404 1_455 S
C681 C340 1.204 . S
C696 C65 1.491 . S
C708 C375 1.427 . S
C723 C75 1.123 . S
C735 C380 0.940 . S
C762 C405 1.390 . S
C750 C84 1.465 . S
C777 C25 1.428 . S
C789 C425 1.405 . S
C816 C440 1.019 . S
C804 C28 1.075 . S
C843 C475 1.463 . S
C831 C47 1.522 . S
C858 C9 1.402 . S
C870 C480 1.313 . S
C897 C355 1.614 1_655 S
C885 C233 1.655 . S
C912 C249 0.958 . S
C924 C365 1.022 . S
C951 C395 1.426 . S
C939 C275 1.490 . S
C978 C400 1.189 . S
C966 C173 1.207 . S
C993 C224 1.248 . S
C1005 C420 1.118 . S
C1032 C455 1.389 . S
C1020 C243 1.454 . S
C1059 C465 0.923 . S
C1047 C266 1.043 . S
C1086 C495 1.506 . S
C1074 C179 1.514 . S
C1113 C345 1.289 . S
C1101 C163 1.488 . S
C1128 C289 1.738 1_554 S
C1140 C515 1.677 . S
C1167 C525 1.418 . S
C1155 C333 1.476 . S
C1194 C540 0.982 . S
C1182 C308 1.034 . S
C1209 C123 1.416 . S
C1221 C485 1.321 . S
C1236 C126 1.564 . S
C1248 C385 1.450 . S
C1263 C327 1.779 . S
C1275 C575 1.748 . S
C1302 C580 1.002 . S
C1290 C299 1.132 . S
C1329 C338 1.250 . S
C1317 C67 1.384 . S
C1356 C594 1.505 . S
C1344 C98 1.513 . S
C1371 C89 1.127 . S
C1383 C378 1.023 . S
C1398 C79 1.503 . S
C1410 C568 1.391 . S
C1437 C428 1.400 . S
C1425 C11 1.464 . S
C1452 C51 1.104 . S
C1464 C518 1.091 . S
C1491 C474 1.512 1_556 S
C1479 C33 1.569 . S
C1518 C598 1.173 . S
C1506 C14 1.420 . S
C1545 C354 1.526 . S
C1533 C140 1.644 . S
C1572 C588 0.999 . S
C1560 C319 1.009 . S
C1587 C112 1.467 . S
C1599 C394 1.453 . S
C1614 C285 1.240 . S
C1626 C558 1.146 . S
C1641 C149 1.288 . S
C1653 C418 1.243 . S
C1680 C534 1.441 . S
C1668 C313 1.504 . S
C1695 C121 1.076 . S
C1707 C468 0.965 . S
C1722 C291 1.543 . S
C1734 C614 1.529 . S
C1749 C182 1.453 . S
C1761 C348 1.336 . S
C1776 C168 1.738 . S
C1788 C514 1.746 . S
C1803 C263 1.546 . S
C1815 C448 1.379 . S
C1830 C247 1.069 . S
C1842 C538 0.918 . S
C1869 C608 1.359 . S
C1857 C277 1.415 . S
C1884 C219 1.604 . S
C1896 C388 1.524 . S
C1923 C414 1.805 . S
C1911 C257 1.822 . S
C1950 C358 0.965 . S
C1938 C201 1.148 . S
C1965 C81 1.363 . S
C1977 C620 1.295 . S
C2004 C595 1.465 . S
C1992 C93 1.491 . S
C2019 C103 1.100 . S
C2031 C640 1.065 1_556 S
C2046 C56 1.447 . S
C2058 C565 1.437 . S
C2073 C53 1.453 . S
C2085 C505 1.314 . S
C2112 C520 0.938 . S
C2100 C0 1.077 . S
C2139 C555 1.455 . S
C2127 C19 1.517 . S
C2166 C600 1.252 . S
C2154 C37 1.424 . S
C2193 C635 1.547 . S
C2181 C261 1.672 . S
C2208 C193 0.958 . S
C2220 C585 1.025 . S
C2247 C655 1.471 . S
C2235 C205 1.497 . S
C2274 C560 1.071 . S
C2262 C215 1.230 . S
C2301 C500 1.097 . S
C2289 C252 1.266 . S
C2316 C187 1.465 . S
C2328 C535 1.411 . S
C2355 C545 0.944 . S
C2343 C196 1.031 . S
C2370 C221 1.546 . S
C2382 C615 1.442 . S
C2409 C625 1.329 . S
C2397 C317 1.461 . S
C2424 C135 1.742 . S
C2436 C435 1.725 . S
C2463 C445 1.405 . S
C2451 C151 1.482 . S
C2490 C460 0.999 . S
C2478 C154 1.028 . S
C2517 C605 1.361 . S
C2505 C305 1.401 . S
C2532 C280 1.577 . S
C2544 C645 1.425 . S
C2571 C415 1.729 . S
C2559 C145 1.765 . S
C2598 C360 1.007 . S
C2586 C117 1.131 . S
C2613 C95 1.399 . S
C2625 C618 1.203 . S
C2652 C374 1.443 . S
C2640 C70 1.494 . S
C2667 C61 1.132 . S
C2679 C638 1.041 . S
C2694 C107 1.504 . S
C2706 C408 1.397 . S
C2721 C39 1.465 . S
C2733 C508 1.394 . S
C2760 C438 0.945 . S
C2748 C23 1.097 . S
C2775 C5 1.572 . S
C2787 C554 1.524 . S
C2802 C42 1.394 . S
C2814 C478 1.303 . S
C2841 C634 1.532 . S
C2829 C322 1.634 . S
C2856 C165 1.034 . S
C2868 C368 0.884 . S
C2895 C654 1.495 1_655 S
C2883 C294 1.488 . S
C2910 C131 1.251 . S
C2922 C398 1.069 . S
C2937 C331 1.280 . S
C2949 C498 1.112 . S
C2976 C454 1.463 . S
C2964 C159 1.507 . S
C2991 C303 1.074 . S
C3003 C548 0.960 . S
C3030 C494 1.488 . S
C3018 C137 1.531 . S
C3057 C628 1.337 . S
C3045 C238 1.453 . S
C3084 C434 1.699 . S
C3072 C210 1.734 . S
C3099 C235 1.546 . S
C3111 C528 1.383 . S
C3138 C458 1.070 . S
C3126 C191 1.077 . S
C3153 C207 1.408 . S
C3165 C488 1.365 . S
C3180 C177 1.604 . S
C3192 C648 1.521 . S
C3219 C574 1.757 . S
C3207 C229 1.808 . S
C3246 C578 1.121 . S
C3234 C271 1.116 . S
