# Generated by pormake.
# Topology gar, (4,6)-cn, num edge types: 1
# Building blocks:
#     Node 0, Type 0, BuildingBlock: NAHDIM_clean_sbu_0, # of connection points: 4
#     Node 1, Type 0, BuildingBlock: NAHDIM_clean_sbu_0, # of connection points: 4
#     Node 2, Type 0, BuildingBlock: NAHDIM_clean_sbu_0, # of connection points: 4
#     Node 3, Type 0, BuildingBlock: NAHDIM_clean_sbu_0, # of connection points: 4
#     Node 4, Type 0, BuildingBlock: NAHDIM_clean_sbu_0, # of connection points: 4
#     Node 5, Type 0, BuildingBlock: NAHDIM_clean_sbu_0, # of connection points: 4
#     Node 6, Type 0, BuildingBlock: NAHDIM_clean_sbu_0, # of connection points: 4
#     Node 7, Type 0, BuildingBlock: NAHDIM_clean_sbu_0, # of connection points: 4
#     Node 8, Type 0, BuildingBlock: NAHDIM_clean_sbu_0, # of connection points: 4
#     Node 9, Type 0, BuildingBlock: NAHDIM_clean_sbu_0, # of connection points: 4
#     Node 10, Type 0, BuildingBlock: NAHDIM_clean_sbu_0, # of connection points: 4
#     Node 11, Type 0, BuildingBlock: NAHDIM_clean_sbu_0, # of connection points: 4
#     Node 12, Type 0, BuildingBlock: NAHDIM_clean_sbu_0, # of connection points: 4
#     Node 13, Type 0, BuildingBlock: NAHDIM_clean_sbu_0, # of connection points: 4
#     Node 14, Type 0, BuildingBlock: NAHDIM_clean_sbu_0, # of connection points: 4
#     Node 15, Type 0, BuildingBlock: NAHDIM_clean_sbu_0, # of connection points: 4
#     Node 16, Type 0, BuildingBlock: NAHDIM_clean_sbu_0, # of connection points: 4
#     Node 17, Type 0, BuildingBlock: NAHDIM_clean_sbu_0, # of connection points: 4
#     Node 18, Type 0, BuildingBlock: NAHDIM_clean_sbu_0, # of connection points: 4
#     Node 19, Type 0, BuildingBlock: NAHDIM_clean_sbu_0, # of connection points: 4
#     Node 20, Type 0, BuildingBlock: NAHDIM_clean_sbu_0, # of connection points: 4
#     Node 21, Type 0, BuildingBlock: NAHDIM_clean_sbu_0, # of connection points: 4
#     Node 22, Type 0, BuildingBlock: NAHDIM_clean_sbu_0, # of connection points: 4
#     Node 23, Type 0, BuildingBlock: NAHDIM_clean_sbu_0, # of connection points: 4
#     Node 24, Type 1, BuildingBlock: INOVEN_clean_sbu_0, # of connection points: 6
#     Node 25, Type 1, BuildingBlock: INOVEN_clean_sbu_0, # of connection points: 6
#     Node 26, Type 1, BuildingBlock: INOVEN_clean_sbu_0, # of connection points: 6
#     Node 27, Type 1, BuildingBlock: INOVEN_clean_sbu_0, # of connection points: 6
#     Node 28, Type 1, BuildingBlock: INOVEN_clean_sbu_0, # of connection points: 6
#     Node 29, Type 1, BuildingBlock: INOVEN_clean_sbu_0, # of connection points: 6
#     Node 30, Type 1, BuildingBlock: INOVEN_clean_sbu_0, # of connection points: 6
#     Node 31, Type 1, BuildingBlock: INOVEN_clean_sbu_0, # of connection points: 6
#     Node 32, Type 1, BuildingBlock: INOVEN_clean_sbu_0, # of connection points: 6
#     Node 33, Type 1, BuildingBlock: INOVEN_clean_sbu_0, # of connection points: 6
#     Node 34, Type 1, BuildingBlock: INOVEN_clean_sbu_0, # of connection points: 6
#     Node 35, Type 1, BuildingBlock: INOVEN_clean_sbu_0, # of connection points: 6
#     Node 36, Type 1, BuildingBlock: INOVEN_clean_sbu_0, # of connection points: 6
#     Node 37, Type 1, BuildingBlock: INOVEN_clean_sbu_0, # of connection points: 6
#     Node 38, Type 1, BuildingBlock: INOVEN_clean_sbu_0, # of connection points: 6
#     Node 39, Type 1, BuildingBlock: INOVEN_clean_sbu_0, # of connection points: 6
#     Edge 40, Type (0, 1), BuildingBlock: TEMPAE_clean_linker_10, # of connection points: 2
#     Edge 41, Type (0, 1), BuildingBlock: TEMPAE_clean_linker_10, # of connection points: 2
#     Edge 42, Type (0, 1), BuildingBlock: TEMPAE_clean_linker_10, # of connection points: 2
#     Edge 43, Type (0, 1), BuildingBlock: TEMPAE_clean_linker_10, # of connection points: 2
#     Edge 44, Type (0, 1), BuildingBlock: TEMPAE_clean_linker_10, # of connection points: 2
#     Edge 45, Type (0, 1), BuildingBlock: TEMPAE_clean_linker_10, # of connection points: 2
#     Edge 46, Type (0, 1), BuildingBlock: TEMPAE_clean_linker_10, # of connection points: 2
#     Edge 47, Type (0, 1), BuildingBlock: TEMPAE_clean_linker_10, # of connection points: 2
#     Edge 48, Type (0, 1), BuildingBlock: TEMPAE_clean_linker_10, # of connection points: 2
#     Edge 49, Type (0, 1), BuildingBlock: TEMPAE_clean_linker_10, # of connection points: 2
#     Edge 50, Type (0, 1), BuildingBlock: TEMPAE_clean_linker_10, # of connection points: 2
#     Edge 51, Type (0, 1), BuildingBlock: TEMPAE_clean_linker_10, # of connection points: 2
#     Edge 52, Type (0, 1), BuildingBlock: TEMPAE_clean_linker_10, # of connection points: 2
#     Edge 53, Type (0, 1), BuildingBlock: TEMPAE_clean_linker_10, # of connection points: 2
#     Edge 54, Type (0, 1), BuildingBlock: TEMPAE_clean_linker_10, # of connection points: 2
#     Edge 55, Type (0, 1), BuildingBlock: TEMPAE_clean_linker_10, # of connection points: 2
#     Edge 56, Type (0, 1), BuildingBlock: TEMPAE_clean_linker_10, # of connection points: 2
#     Edge 57, Type (0, 1), BuildingBlock: TEMPAE_clean_linker_10, # of connection points: 2
#     Edge 58, Type (0, 1), BuildingBlock: TEMPAE_clean_linker_10, # of connection points: 2
#     Edge 59, Type (0, 1), BuildingBlock: TEMPAE_clean_linker_10, # of connection points: 2
#     Edge 60, Type (0, 1), BuildingBlock: TEMPAE_clean_linker_10, # of connection points: 2
#     Edge 61, Type (0, 1), BuildingBlock: TEMPAE_clean_linker_10, # of connection points: 2
#     Edge 62, Type (0, 1), BuildingBlock: TEMPAE_clean_linker_10, # of connection points: 2
#     Edge 63, Type (0, 1), BuildingBlock: TEMPAE_clean_linker_10, # of connection points: 2
#     Edge 64, Type (0, 1), BuildingBlock: TEMPAE_clean_linker_10, # of connection points: 2
#     Edge 65, Type (0, 1), BuildingBlock: TEMPAE_clean_linker_10, # of connection points: 2
#     Edge 66, Type (0, 1), BuildingBlock: TEMPAE_clean_linker_10, # of connection points: 2
#     Edge 67, Type (0, 1), BuildingBlock: TEMPAE_clean_linker_10, # of connection points: 2
#     Edge 68, Type (0, 1), BuildingBlock: TEMPAE_clean_linker_10, # of connection points: 2
#     Edge 69, Type (0, 1), BuildingBlock: TEMPAE_clean_linker_10, # of connection points: 2
#     Edge 70, Type (0, 1), BuildingBlock: TEMPAE_clean_linker_10, # of connection points: 2
#     Edge 71, Type (0, 1), BuildingBlock: TEMPAE_clean_linker_10, # of connection points: 2
#     Edge 72, Type (0, 1), BuildingBlock: TEMPAE_clean_linker_10, # of connection points: 2
#     Edge 73, Type (0, 1), BuildingBlock: TEMPAE_clean_linker_10, # of connection points: 2
#     Edge 74, Type (0, 1), BuildingBlock: TEMPAE_clean_linker_10, # of connection points: 2
#     Edge 75, Type (0, 1), BuildingBlock: TEMPAE_clean_linker_10, # of connection points: 2
#     Edge 76, Type (0, 1), BuildingBlock: TEMPAE_clean_linker_10, # of connection points: 2
#     Edge 77, Type (0, 1), BuildingBlock: TEMPAE_clean_linker_10, # of connection points: 2
#     Edge 78, Type (0, 1), BuildingBlock: TEMPAE_clean_linker_10, # of connection points: 2
#     Edge 79, Type (0, 1), BuildingBlock: TEMPAE_clean_linker_10, # of connection points: 2
#     Edge 80, Type (0, 1), BuildingBlock: TEMPAE_clean_linker_10, # of connection points: 2
#     Edge 81, Type (0, 1), BuildingBlock: TEMPAE_clean_linker_10, # of connection points: 2
#     Edge 82, Type (0, 1), BuildingBlock: TEMPAE_clean_linker_10, # of connection points: 2
#     Edge 83, Type (0, 1), BuildingBlock: TEMPAE_clean_linker_10, # of connection points: 2
#     Edge 84, Type (0, 1), BuildingBlock: TEMPAE_clean_linker_10, # of connection points: 2
#     Edge 85, Type (0, 1), BuildingBlock: TEMPAE_clean_linker_10, # of connection points: 2
#     Edge 86, Type (0, 1), BuildingBlock: TEMPAE_clean_linker_10, # of connection points: 2
#     Edge 87, Type (0, 1), BuildingBlock: TEMPAE_clean_linker_10, # of connection points: 2
#     Edge 88, Type (0, 1), BuildingBlock: TEMPAE_clean_linker_10, # of connection points: 2
#     Edge 89, Type (0, 1), BuildingBlock: TEMPAE_clean_linker_10, # of connection points: 2
#     Edge 90, Type (0, 1), BuildingBlock: TEMPAE_clean_linker_10, # of connection points: 2
#     Edge 91, Type (0, 1), BuildingBlock: TEMPAE_clean_linker_10, # of connection points: 2
#     Edge 92, Type (0, 1), BuildingBlock: TEMPAE_clean_linker_10, # of connection points: 2
#     Edge 93, Type (0, 1), BuildingBlock: TEMPAE_clean_linker_10, # of connection points: 2
#     Edge 94, Type (0, 1), BuildingBlock: TEMPAE_clean_linker_10, # of connection points: 2
#     Edge 95, Type (0, 1), BuildingBlock: TEMPAE_clean_linker_10, # of connection points: 2
#     Edge 96, Type (0, 1), BuildingBlock: TEMPAE_clean_linker_10, # of connection points: 2
#     Edge 97, Type (0, 1), BuildingBlock: TEMPAE_clean_linker_10, # of connection points: 2
#     Edge 98, Type (0, 1), BuildingBlock: TEMPAE_clean_linker_10, # of connection points: 2
#     Edge 99, Type (0, 1), BuildingBlock: TEMPAE_clean_linker_10, # of connection points: 2
#     Edge 100, Type (0, 1), BuildingBlock: TEMPAE_clean_linker_10, # of connection points: 2
#     Edge 101, Type (0, 1), BuildingBlock: TEMPAE_clean_linker_10, # of connection points: 2
#     Edge 102, Type (0, 1), BuildingBlock: TEMPAE_clean_linker_10, # of connection points: 2
#     Edge 103, Type (0, 1), BuildingBlock: TEMPAE_clean_linker_10, # of connection points: 2
#     Edge 104, Type (0, 1), BuildingBlock: TEMPAE_clean_linker_10, # of connection points: 2
#     Edge 105, Type (0, 1), BuildingBlock: TEMPAE_clean_linker_10, # of connection points: 2
#     Edge 106, Type (0, 1), BuildingBlock: TEMPAE_clean_linker_10, # of connection points: 2
#     Edge 107, Type (0, 1), BuildingBlock: TEMPAE_clean_linker_10, # of connection points: 2
#     Edge 108, Type (0, 1), BuildingBlock: TEMPAE_clean_linker_10, # of connection points: 2
#     Edge 109, Type (0, 1), BuildingBlock: TEMPAE_clean_linker_10, # of connection points: 2
#     Edge 110, Type (0, 1), BuildingBlock: TEMPAE_clean_linker_10, # of connection points: 2
#     Edge 111, Type (0, 1), BuildingBlock: TEMPAE_clean_linker_10, # of connection points: 2
#     Edge 112, Type (0, 1), BuildingBlock: TEMPAE_clean_linker_10, # of connection points: 2
#     Edge 113, Type (0, 1), BuildingBlock: TEMPAE_clean_linker_10, # of connection points: 2
#     Edge 114, Type (0, 1), BuildingBlock: TEMPAE_clean_linker_10, # of connection points: 2
#     Edge 115, Type (0, 1), BuildingBlock: TEMPAE_clean_linker_10, # of connection points: 2
#     Edge 116, Type (0, 1), BuildingBlock: TEMPAE_clean_linker_10, # of connection points: 2
#     Edge 117, Type (0, 1), BuildingBlock: TEMPAE_clean_linker_10, # of connection points: 2
#     Edge 118, Type (0, 1), BuildingBlock: TEMPAE_clean_linker_10, # of connection points: 2
#     Edge 119, Type (0, 1), BuildingBlock: TEMPAE_clean_linker_10, # of connection points: 2
#     Edge 120, Type (0, 1), BuildingBlock: TEMPAE_clean_linker_10, # of connection points: 2
#     Edge 121, Type (0, 1), BuildingBlock: TEMPAE_clean_linker_10, # of connection points: 2
#     Edge 122, Type (0, 1), BuildingBlock: TEMPAE_clean_linker_10, # of connection points: 2
#     Edge 123, Type (0, 1), BuildingBlock: TEMPAE_clean_linker_10, # of connection points: 2
#     Edge 124, Type (0, 1), BuildingBlock: TEMPAE_clean_linker_10, # of connection points: 2
#     Edge 125, Type (0, 1), BuildingBlock: TEMPAE_clean_linker_10, # of connection points: 2
#     Edge 126, Type (0, 1), BuildingBlock: TEMPAE_clean_linker_10, # of connection points: 2
#     Edge 127, Type (0, 1), BuildingBlock: TEMPAE_clean_linker_10, # of connection points: 2
#     Edge 128, Type (0, 1), BuildingBlock: TEMPAE_clean_linker_10, # of connection points: 2
#     Edge 129, Type (0, 1), BuildingBlock: TEMPAE_clean_linker_10, # of connection points: 2
#     Edge 130, Type (0, 1), BuildingBlock: TEMPAE_clean_linker_10, # of connection points: 2
#     Edge 131, Type (0, 1), BuildingBlock: TEMPAE_clean_linker_10, # of connection points: 2
#     Edge 132, Type (0, 1), BuildingBlock: TEMPAE_clean_linker_10, # of connection points: 2
#     Edge 133, Type (0, 1), BuildingBlock: TEMPAE_clean_linker_10, # of connection points: 2
#     Edge 134, Type (0, 1), BuildingBlock: TEMPAE_clean_linker_10, # of connection points: 2
#     Edge 135, Type (0, 1), BuildingBlock: TEMPAE_clean_linker_10, # of connection points: 2
# Relax obj value: 0.193
# Max RMSD: 0.302
# Mean RMSD: 0.181
data_MOF--net-gar--node1-NAHDIM_clean_sbu_0--node2-INOVEN_clean_sbu_0--edge1-TEMPAE_clean_linker_10
_symmetry_space_group_name_H-M    P1
_symmetry_Int_Tables_number       1
_symmetry_cell_setting            triclinic
loop_
_symmetry_equiv_pos_as_xyz
'x, y, z'
_cell_length_a     64.005524
_cell_length_b     57.559736
_cell_length_c     56.520437
_cell_angle_alpha  99.804389
_cell_angle_beta   95.630175
_cell_angle_gamma 103.91002
loop_
_atom_site_label
_atom_site_type_symbol
_atom_site_fract_x
_atom_site_fract_y
_atom_site_fract_z
_atom_type_partial_charge
C0 C 0.17272 0.37382 0.37644 0.0
O1 O 0.1754 0.38303 0.3998 0.0
O2 O 0.12814 0.32426 0.39986 0.0
Zn3 Zn 0.12875 0.35362 0.38424 0.0
O4 O 0.12955 0.38295 0.40953 0.0
C5 C 0.08342 0.34029 0.37027 0.0
O6 O 0.08462 0.3381 0.3931 0.0
O7 O 0.15416 0.3606 0.36599 0.0
C8 C 0.12599 0.40214 0.40368 0.0
O9 O 0.12295 0.40321 0.3806 0.0
C10 C 0.12704 0.32568 0.4224 0.0
O11 O 0.12739 0.34682 0.4358 0.0
O12 O 0.10094 0.34662 0.36145 0.0
C13 C 0.94916 0.7357 0.66379 0.0
O14 O 0.94508 0.73039 0.63997 0.0
O15 O 0.99277 0.72419 0.62974 0.0
Zn16 Zn 0.99272 0.7534 0.6545 0.0
O17 O 0.9906 0.78027 0.6368 0.0
C18 C 0.03801 0.76639 0.66482 0.0
O19 O 0.03498 0.76436 0.64114 0.0
O20 O 0.96855 0.74569 0.67408 0.0
C21 C 0.97901 0.79526 0.64035 0.0
O22 O 0.96646 0.79397 0.6574 0.0
C23 C 0.99698 0.70567 0.63648 0.0
O24 O 0.99952 0.70528 0.65975 0.0
O25 O 0.02152 0.76311 0.67586 0.0
C26 C 0.66635 0.86591 0.8911 0.0
O27 O 0.67014 0.8658 0.91435 0.0
O28 O 0.61873 0.82557 0.91323 0.0
Zn29 Zn 0.62115 0.85544 0.89855 0.0
O30 O 0.62151 0.88407 0.92468 0.0
C31 C 0.58316 0.82929 0.86323 0.0
O32 O 0.5895 0.80979 0.86629 0.0
O33 O 0.64691 0.86213 0.88102 0.0
C34 C 0.62169 0.88245 0.94686 0.0
O35 O 0.62358 0.86212 0.95336 0.0
C36 C 0.62804 0.80856 0.90822 0.0
O37 O 0.64108 0.80948 0.89165 0.0
O38 O 0.59434 0.8502 0.87479 0.0
C39 C 0.4489 0.22324 0.15451 0.0
O40 O 0.44426 0.22258 0.1312 0.0
O41 O 0.48872 0.20128 0.1183 0.0
Zn42 Zn 0.49204 0.23192 0.14295 0.0
O43 O 0.49071 0.26055 0.12709 0.0
C44 C 0.53671 0.23271 0.15603 0.0
O45 O 0.5342 0.22135 0.13331 0.0
O46 O 0.46857 0.2267 0.16367 0.0
C47 C 0.50545 0.26883 0.1149 0.0
O48 O 0.5214 0.2583 0.1125 0.0
C49 C 0.48333 0.19864 0.09557 0.0
O50 O 0.4784 0.21665 0.08674 0.0
O51 O 0.52079 0.23919 0.16435 0.0
C52 C 0.0592 0.82359 0.14378 0.0
O53 O 0.05578 0.82534 0.12093 0.0
O54 O 0.08888 0.78692 0.10619 0.0
Zn55 Zn 0.09998 0.82101 0.12847 0.0
O56 O 0.09985 0.85064 0.11175 0.0
C57 C 0.1362 0.80503 0.15125 0.0
O58 O 0.12186 0.7837 0.14436 0.0
O59 O 0.07779 0.82167 0.15227 0.0
C60 C 0.09338 0.85045 0.08958 0.0
O61 O 0.087 0.82942 0.07414 0.0
C62 C 0.09867 0.77663 0.09063 0.0
O63 O 0.11731 0.78919 0.086 0.0
O64 O 0.1307 0.82397 0.14684 0.0
C65 C 0.55524 0.76124 0.39134 0.0
O66 O 0.55797 0.75969 0.4143 0.0
O67 O 0.51366 0.73426 0.42202 0.0
Zn68 Zn 0.51378 0.76338 0.4046 0.0
O69 O 0.52385 0.79757 0.42655 0.0
C70 C 0.48113 0.77627 0.37306 0.0
O71 O 0.49796 0.79479 0.37361 0.0
O72 O 0.53682 0.76287 0.38199 0.0
C73 C 0.51332 0.80754 0.44144 0.0
O74 O 0.49447 0.79465 0.44522 0.0
C75 C 0.51992 0.7351 0.44438 0.0
O76 O 0.52602 0.75642 0.45935 0.0
O77 O 0.48367 0.75987 0.38487 0.0
C78 C 0.55481 0.31462 0.64196 0.0
O79 O 0.54977 0.30583 0.61851 0.0
O80 O 0.58693 0.28745 0.60528 0.0
Zn81 Zn 0.5972 0.32153 0.62745 0.0
O82 O 0.59772 0.35098 0.61048 0.0
C83 C 0.62915 0.30971 0.66059 0.0
O84 O 0.61132 0.29457 0.66412 0.0
O85 O 0.57486 0.32274 0.65096 0.0
C86 C 0.59043 0.35056 0.58851 0.0
O87 O 0.58259 0.32934 0.5736 0.0
C88 C 0.59874 0.27728 0.59234 0.0
O89 O 0.61844 0.28995 0.59091 0.0
O90 O 0.62747 0.32395 0.6459 0.0
C91 C 0.05696 0.26632 0.89455 0.0
O92 O 0.06047 0.27094 0.91839 0.0
O93 O 0.01226 0.23315 0.92256 0.0
Zn94 Zn 0.01358 0.26267 0.90543 0.0
O95 O 0.02315 0.29685 0.92755 0.0
C96 C 0.96571 0.25543 0.89047 0.0
O97 O 0.9638 0.24936 0.91169 0.0
O98 O 0.0375 0.26195 0.88394 0.0
C99 C 0.01256 0.30639 0.94267 0.0
O100 O 0.99416 0.29293 0.94692 0.0
C101 C 0.02083 0.23404 0.9442 0.0
O102 O 0.02989 0.25551 0.95827 0.0
O103 O 0.98461 0.26066 0.88407 0.0
C104 C 0.40114 0.10253 0.34299 0.0
O105 O 0.42072 0.11707 0.35073 0.0
O106 O 0.43334 0.0727 0.29264 0.0
Zn107 Zn 0.42254 0.0651 0.32344 0.0
O108 O 0.44728 0.07362 0.35092 0.0
C109 C 0.41765 0.01298 0.30927 0.0
O110 O 0.43796 0.01944 0.30542 0.0
O111 O 0.39893 0.08097 0.33146 0.0
C112 C 0.46657 0.07508 0.34636 0.0
O113 O 0.47007 0.072 0.32366 0.0
C114 C 0.43524 0.09259 0.28512 0.0
O115 O 0.42952 0.11072 0.29793 0.0
O116 O 0.40844 0.02933 0.31725 0.0
C117 C 0.32835 0.17159 0.49963 0.0
O118 O 0.3341 0.1956 0.50395 0.0
O119 O 0.29351 0.20319 0.53105 0.0
Zn120 Zn 0.28742 0.18268 0.49647 0.0
O121 O 0.2942 0.20193 0.46937 0.0
C122 C 0.24754 0.15411 0.50824 0.0
O123 O 0.26015 0.15846 0.52916 0.0
O124 O 0.30813 0.16067 0.4957 0.0
C125 C 0.2833 0.2149 0.46022 0.0
O126 O 0.26574 0.21799 0.46915 0.0
C127 C 0.29072 0.22413 0.539 0.0
O128 O 0.28385 0.2363 0.52358 0.0
O129 O 0.2556 0.16234 0.49062 0.0
C130 C 0.20526 0.97629 0.78752 0.0
O131 O 0.19625 0.97729 0.80745 0.0
O132 O 0.16318 0.01836 0.74286 0.0
Zn133 Zn 0.18351 0.02183 0.7786 0.0
O134 O 0.16532 0.01983 0.8114 0.0
C135 C 0.20847 0.07172 0.76713 0.0
O136 O 0.20028 0.06025 0.74479 0.0
O137 O 0.20255 0.99204 0.7741 0.0
C138 C 0.15307 0.03311 0.82051 0.0
O139 O 0.14958 0.05012 0.80901 0.0
C140 C 0.14996 0.03095 0.73677 0.0
O141 O 0.14615 0.04714 0.75402 0.0
O142 O 0.20467 0.05955 0.78421 0.0
C143 C 0.2645 0.97736 0.97815 0.0
O144 O 0.25489 0.95452 0.97837 0.0
O145 O 0.28913 0.94356 0.0147 0.0
Zn146 Zn 0.3015 0.96017 0.98862 0.0
O147 O 0.29967 0.93427 0.95933 0.0
C148 C 0.3432 0.97491 0.01943 0.0
O149 O 0.33245 0.962 0.03353 0.0
O150 O 0.28512 0.98431 0.98135 0.0
C151 C 0.31106 0.91924 0.96149 0.0
O152 O 0.32361 0.92188 0.98214 0.0
C153 C 0.27633 0.92219 0.0098 0.0
O154 O 0.26967 0.91117 0.98703 0.0
O155 O 0.33314 0.97723 0.99978 0.0
C156 C 0.28835 0.41789 0.04148 0.0
O157 O 0.28398 0.39469 0.0311 0.0
O158 O 0.32925 0.38932 0.07556 0.0
Zn159 Zn 0.33141 0.41004 0.04885 0.0
O160 O 0.32639 0.39042 0.01388 0.0
C161 C 0.37891 0.42588 0.05436 0.0
O162 O 0.3767 0.40251 0.05393 0.0
O163 O 0.30792 0.42899 0.05086 0.0
C164 C 0.3274 0.36871 1.00583 0.0
O165 O 0.33168 0.35524 0.02129 0.0
C166 C 0.32725 0.3999 0.09668 0.0
O167 O 0.32694 0.42296 0.09996 0.0
O168 O 0.36187 0.43372 0.05331 0.0
C169 C 0.8357 0.10375 0.04321 0.0
O170 O 0.84156 0.12514 0.03708 0.0
O171 O 0.79662 0.14015 0.07791 0.0
Zn172 Zn 0.79688 0.11864 0.04621 0.0
O173 O 0.80552 0.14026 0.02266 0.0
C174 C 0.75399 0.08863 0.04624 0.0
O175 O 0.76199 0.08774 0.06829 0.0
O176 O 0.81678 0.09672 0.04879 0.0
C177 C 0.79939 0.15981 0.02447 0.0
O178 O 0.78805 0.16525 0.04177 0.0
C179 C 0.81344 0.15615 0.08938 0.0
O180 O 0.83233 0.15701 0.08186 0.0
O181 O 0.76638 0.09974 0.03325 0.0
C182 C 0.19975 0.4686 0.21462 0.0
O183 O 0.18179 0.46378 0.22437 0.0
O184 O 0.16301 0.50349 0.18168 0.0
Zn185 Zn 0.18695 0.51166 0.20962 0.0
O186 O 0.17452 0.51107 0.24083 0.0
C187 C 0.1976 0.56285 0.21014 0.0
O188 O 0.1763 0.55852 0.20656 0.0
O189 O 0.20483 0.48788 0.20608 0.0
C190 C 0.18111 0.52794 0.25962 0.0
O191 O 0.19718 0.54695 0.25936 0.0
C192 C 0.14321 0.49637 0.18455 0.0
O193 O 0.1384 0.49334 0.20607 0.0
O194 O 0.20605 0.54516 0.21127 0.0
C195 C 0.79218 0.91994 0.53652 0.0
O196 O 0.78858 0.89838 0.5223 0.0
O197 O 0.83263 0.89076 0.57555 0.0
Zn198 Zn 0.83434 0.91057 0.54802 0.0
O199 O 0.83007 0.89059 0.51326 0.0
C200 C 0.88179 0.92803 0.55494 0.0
O201 O 0.88026 0.90498 0.55559 0.0
O202 O 0.81076 0.92926 0.54946 0.0
C203 C 0.82913 0.86824 0.50523 0.0
O204 O 0.83075 0.85389 0.52069 0.0
C205 C 0.81462 0.88249 0.583 0.0
O206 O 0.79671 0.88516 0.57165 0.0
O207 O 0.86436 0.935 0.55261 0.0
C208 C 0.91232 0.11434 0.27603 0.0
O209 O 0.92238 0.11522 0.2977 0.0
O210 O 0.95151 0.06804 0.22554 0.0
Zn211 Zn 0.93323 0.06759 0.25836 0.0
O212 O 0.95318 0.07269 0.29454 0.0
C213 C 0.90914 0.01801 0.27128 0.0
O214 O 0.91843 0.02959 0.29327 0.0
O215 O 0.91416 0.09717 0.2586 0.0
C216 C 0.96849 0.06275 0.30072 0.0
O217 O 0.97493 0.04904 0.2834 0.0
C218 C 0.96462 0.05557 0.21715 0.0
O219 O 0.96951 0.0399 0.22971 0.0
O220 O 0.91205 0.02997 0.25391 0.0
C221 C 0.34363 0.6099 0.56406 0.0
O222 O 0.3528 0.63321 0.57276 0.0
O223 O 0.31518 0.65685 0.57275 0.0
Zn224 Zn 0.31067 0.62942 0.544 0.0
O225 O 0.32421 0.64325 0.51729 0.0
C226 C 0.26783 0.62204 0.51692 0.0
O227 O 0.27823 0.63852 0.50574 0.0
O228 O 0.32478 0.60364 0.55173 0.0
C229 C 0.32191 0.63041 0.49611 0.0
O230 O 0.31113 0.60725 0.49189 0.0
C231 C 0.30714 0.67458 0.57018 0.0
O232 O 0.29642 0.67432 0.54906 0.0
O233 O 0.27841 0.61513 0.53344 0.0
C234 C 0.41176 0.61318 0.74875 0.0
O235 O 0.42062 0.61181 0.72873 0.0
O236 O 0.45085 0.56885 0.72461 0.0
Zn237 Zn 0.43356 0.56788 0.75825 0.0
O238 O 0.45424 0.57187 0.79394 0.0
C239 C 0.40881 0.51874 0.77132 0.0
O240 O 0.41735 0.53074 0.7934 0.0
O241 O 0.41457 0.59771 0.76247 0.0
C242 C 0.46789 0.55986 0.80032 0.0
O243 O 0.47221 0.54382 0.78333 0.0
C244 C 0.46623 0.55921 0.7176 0.0
O245 O 0.4744 0.5472 0.73228 0.0
O246 O 0.41233 0.53033 0.75377 0.0
C247 C 0.72023 1.00254 0.7089 0.0
O248 O 0.72144 0.02379 0.70277 0.0
O249 O 0.6596 1.0067 0.6948 0.0
Zn250 Zn 0.68108 1.01054 0.72456 0.0
O251 O 0.66552 0.99866 0.75112 0.0
C252 C 0.68877 0.06266 0.74507 0.0
O253 O 0.66813 0.05711 0.74781 0.0
O254 O 0.70356 0.99246 0.71757 0.0
C255 C 0.67565 0.99853 0.77156 0.0
O256 O 0.697 1.00587 0.7753 0.0
C257 C 0.64043 1.00813 0.69745 0.0
O258 O 0.63516 0.01143 0.71943 0.0
O259 O 0.69708 0.04592 0.73586 0.0
C260 C 0.82393 0.67178 1.00523 0.0
O261 O 0.82819 0.69321 0.01985 0.0
O262 O 0.7883 0.70329 0.02895 0.0
Zn263 Zn 0.78359 0.68455 0.99372 0.0
O264 O 0.78935 0.7068 0.9686 0.0
C265 C 0.74501 0.65252 1.00436 0.0
O266 O 0.7583 0.65572 0.02459 0.0
O267 O 0.80549 0.66365 0.99179 0.0
C268 C 0.77583 0.70499 0.94977 0.0
O269 O 0.75669 0.6892 0.94676 0.0
C270 C 0.78924 0.72552 0.03749 0.0
O271 O 0.78738 0.74024 0.02248 0.0
O272 O 0.75216 0.6627 0.98734 0.0
C273 C 0.89988 0.59848 0.82359 0.0
O274 O 0.91902 0.61116 0.82034 0.0
O275 O 0.93288 0.56677 0.78869 0.0
Zn276 Zn 0.92042 0.55924 0.81828 0.0
O277 O 0.94543 0.56894 0.84514 0.0
C278 C 0.89015 0.51449 0.79636 0.0
O279 O 0.88142 0.52946 0.78614 0.0
O280 O 0.89713 0.5761 0.82443 0.0
C281 C 0.94625 0.57951 0.86694 0.0
O282 O 0.92884 0.58494 0.8743 0.0
C283 C 0.94733 0.55576 0.78364 0.0
O284 O 0.952 0.54104 0.79755 0.0
O285 O 0.9073 0.52318 0.81177 0.0
C286 C 0.78498 0.47436 0.49507 0.0
O287 O 0.77879 0.45284 0.48045 0.0
O288 O 0.80917 0.43451 0.53475 0.0
Zn289 Zn 0.82013 0.45556 0.51164 0.0
O290 O 0.81834 0.4338 0.4793 0.0
C291 C 0.86232 0.48969 0.51624 0.0
O292 O 0.8528 0.49794 0.499 0.0
O293 O 0.80261 0.47987 0.50968 0.0
C294 C 0.83251 0.42183 0.4764 0.0
O295 O 0.84816 0.4246 0.49434 0.0
C296 C 0.79179 0.41729 0.52985 0.0
O297 O 0.77957 0.41322 0.50872 0.0
O298 O 0.85129 0.47227 0.52453 0.0
C299 C 0.70599 0.47497 0.2626 0.0
O300 O 0.69852 0.47543 0.24023 0.0
O301 O 0.66331 0.51576 0.24308 0.0
Zn302 Zn 0.68407 0.52144 0.27901 0.0
O303 O 0.66688 0.52349 0.31266 0.0
C304 C 0.70474 0.57878 0.2903 0.0
O305 O 0.68873 0.57926 0.30308 0.0
O306 O 0.70232 0.49117 0.27976 0.0
C307 C 0.64864 0.52829 0.31719 0.0
O308 O 0.63667 0.53296 0.29926 0.0
C309 C 0.65199 0.52988 0.23596 0.0
O310 O 0.65088 0.54879 0.252 0.0
O311 O 0.70653 0.55761 0.28001 0.0
Gd312 Gd 0.04109 0.02938 1.00463 0.0
Gd313 Gd 0.07441 0.05719 0.03158 0.0
C314 C 0.04892 0.08501 1.00356 0.0
C315 C 1.00226 1.00786 0.98177 0.0
C316 C 0.98085 1.00431 0.98985 0.0
C317 C 0.96326 1.00645 0.9744 0.0
C318 C 0.97858 1.00253 0.01399 0.0
C319 C 0.9421 1.00809 0.00789 0.0
C320 C 0.95929 1.00422 0.0229 0.0
C321 C 0.94406 1.00836 0.98331 0.0
C322 C 0.07519 0.03026 0.97665 0.0
C323 C 0.06637 1.00121 0.03266 0.0
C324 C 0.11314 0.07946 0.05425 0.0
C325 C 0.13447 0.08481 0.04592 0.0
C326 C 0.1518 0.07933 0.05886 0.0
C327 C 0.13686 0.0916 0.0234 0.0
C328 C 0.17269 0.08391 0.02538 0.0
C329 C 0.15593 0.0914 0.01333 0.0
C330 C 0.17067 0.07874 0.04869 0.0
C331 C 0.04033 0.05623 0.05953 0.0
O332 O 0.03368 0.06633 1.00641 0.0
O333 O 0.06898 0.08379 0.00827 0.0
O334 O 0.01211 0.03051 0.98206 0.0
O335 O 0.01528 0.9962 0.99061 0.0
O336 O 0.06038 0.01131 0.97861 0.0
O337 O 0.07198 0.04854 0.99068 0.0
O338 O 0.08174 0.02024 0.03074 0.0
O339 O 0.04631 1.00211 0.02711 0.0
O340 O 0.10419 0.05633 0.05278 0.0
O341 O 0.0993 0.09089 0.04683 0.0
O342 O 0.05496 0.07525 0.05741 0.0
O343 O 0.04369 0.03798 0.0456 0.0
H344 H 0.96485 1.00815 0.95581 0.0
H345 H 0.99208 1.00107 0.02628 0.0
H346 H 0.95824 1.00364 0.04181 0.0
H347 H 0.93136 0.01176 0.9713 0.0
H348 H 0.15016 0.07382 0.07614 0.0
H349 H 0.1236 0.09578 0.01298 0.0
H350 H 0.15705 0.09592 0.9956 0.0
H351 H 0.18293 0.07243 0.05844 0.0
Gd352 Gd 0.31374 0.78515 0.2336 0.0
Gd353 Gd 0.30194 0.79032 0.28918 0.0
C354 C 0.32958 0.83726 0.27134 0.0
C355 C 0.3108 0.7848 0.18787 0.0
C356 C 0.30427 0.80008 0.17167 0.0
C357 C 0.31352 0.82546 0.17633 0.0
C358 C 0.28853 0.78912 0.15121 0.0
C359 C 0.29201 0.82846 0.13973 0.0
C360 C 0.28235 0.80324 0.13538 0.0
C361 C 0.30755 0.8395 0.16034 0.0
C362 C 0.34402 0.77452 0.26502 0.0
C363 C 0.28767 0.73769 0.2517 0.0
C364 C 0.30251 0.78924 0.33456 0.0
C365 C 0.30754 0.773 0.35062 0.0
C366 C 0.29065 0.75923 0.3605 0.0
C367 C 0.32875 0.77062 0.35588 0.0
C368 C 0.31598 0.7407 0.3804 0.0
C369 C 0.33295 0.75462 0.37063 0.0
C370 C 0.29478 0.74315 0.37509 0.0
C371 C 0.27189 0.80171 0.25799 0.0
O372 O 0.32403 0.82567 0.24832 0.0
O373 O 0.32467 0.82678 0.28994 0.0
O374 O 0.32902 0.79446 0.20292 0.0
O375 O 0.29515 0.77231 0.19764 0.0
O376 O 0.34503 0.77335 0.242 0.0
O377 O 0.32675 0.78025 0.26893 0.0
O378 O 0.29232 0.74962 0.27463 0.0
O379 O 0.29247 0.74816 0.23313 0.0
O380 O 0.28497 0.77996 0.31846 0.0
O381 O 0.31877 0.80227 0.32602 0.0
O382 O 0.27094 0.80245 0.28092 0.0
O383 O 0.289 0.79566 0.25384 0.0
H384 H 0.32551 0.83445 0.19215 0.0
H385 H 0.28112 0.76961 0.14739 0.0
H386 H 0.2704 0.79441 0.11947 0.0
H387 H 0.31512 0.85897 0.16399 0.0
H388 H 0.27414 0.76073 0.35673 0.0
H389 H 0.34209 0.78105 0.34863 0.0
H390 H 0.3495 0.75339 0.37461 0.0
H391 H 0.28127 0.73241 0.38198 0.0
Gd392 Gd 0.58252 0.04603 0.52439 0.0
Gd393 Gd 0.53275 0.03888 0.51155 0.0
C394 C 0.55021 0.99108 0.50179 0.0
C395 C 0.6212 0.04497 0.54193 0.0
C396 C 0.63752 0.03057 0.53997 0.0
C397 C 0.65847 0.04199 0.53592 0.0
C398 C 0.63317 1.00636 0.54354 0.0
C399 C 0.67063 1.00547 0.53917 0.0
C400 C 0.64957 0.99396 0.54315 0.0
C401 C 0.67479 0.02963 0.53548 0.0
C402 C 0.56843 0.05112 0.47951 0.0
C403 C 0.56486 0.0937 0.5338 0.0
C404 C 0.49389 0.03952 0.49414 0.0
C405 C 0.4785 0.05492 0.4945 0.0
C406 C 0.48041 0.07475 0.5136 0.0
C407 C 0.46098 0.04892 0.47568 0.0
C408 C 0.44683 0.0818 0.49534 0.0
C409 C 0.44534 0.06222 0.47603 0.0
C410 C 0.46468 0.08804 0.51405 0.0
C411 C 0.54707 0.03361 0.55631 0.0
O412 O 0.56906 1.00441 0.51476 0.0
O413 O 0.53463 1.0012 0.49517 0.0
O414 O 0.61739 0.05569 0.52392 0.0
O415 O 0.60368 0.03633 0.55124 0.0
O416 O 0.58682 0.0643 0.49201 0.0
O417 O 0.55933 0.03549 0.49079 0.0
O418 O 0.54632 0.08039 0.52025 0.0
O419 O 0.58017 0.08351 0.54117 0.0
O420 O 0.49835 0.03181 0.51406 0.0
O421 O 0.5109 0.04581 0.48324 0.0
O422 O 0.52879 0.02022 0.54373 0.0
O423 O 0.55597 0.04942 0.54512 0.0
H424 H 0.66234 0.06074 0.53347 0.0
H425 H 0.6172 0.99708 0.54682 0.0
H426 H 0.64571 0.9753 0.54584 0.0
H427 H 0.69086 0.03925 0.53278 0.0
H428 H 0.4939 0.07975 0.52827 0.0
H429 H 0.45921 0.03365 0.46079 0.0
H430 H 0.43176 0.05672 0.46146 0.0
H431 H 0.46648 0.10321 0.52902 0.0
Gd432 Gd 0.28479 0.2999 0.76976 0.0
Gd433 Gd 0.33262 0.29185 0.77474 0.0
C434 C 0.31261 0.30855 0.82341 0.0
C435 C 0.24318 0.2949 0.76688 0.0
C436 C 0.2237 0.2878 0.7787 0.0
C437 C 0.2053 0.29537 0.77129 0.0
C438 C 0.22345 0.27531 0.798 0.0
C439 C 0.18679 0.27916 0.80298 0.0
C440 C 0.20505 0.27089 0.80998 0.0
C441 C 0.18708 0.29112 0.78325 0.0
C442 C 0.31512 0.34236 0.76543 0.0
C443 C 0.30494 0.28364 0.72117 0.0
C444 C 0.37419 0.29683 0.77709 0.0
C445 C 0.39337 0.30467 0.76501 0.0
C446 C 0.41384 0.3048 0.77648 0.0
C447 C 0.39142 0.30934 0.74141 0.0
C448 C 0.43008 0.31235 0.74033 0.0
C449 C 0.40967 0.31328 0.7292 0.0
C450 C 0.43199 0.30858 0.7643 0.0
C451 C 0.30225 0.2492 0.77849 0.0
O452 O 0.29317 0.30366 0.81024 0.0
O453 O 0.33039 0.30733 0.81357 0.0
O454 O 0.25782 0.31481 0.77803 0.0
O455 O 0.25163 0.27777 0.75673 0.0
O456 O 0.29427 0.33924 0.76394 0.0
O457 O 0.31843 0.3221 0.76868 0.0
O458 O 0.32437 0.28876 0.73438 0.0
O459 O 0.28706 0.28443 0.73097 0.0
O460 O 0.35944 0.27722 0.76545 0.0
O461 O 0.36588 0.31359 0.78831 0.0
O462 O 0.32311 0.25236 0.78011 0.0
O463 O 0.29896 0.26954 0.77551 0.0
H464 H 0.20518 0.30506 0.75645 0.0
H465 H 0.23757 0.26946 0.8041 0.0
H466 H 0.20539 0.26173 0.82517 0.0
H467 H 0.17321 0.29738 0.77713 0.0
H468 H 0.41568 0.30114 0.79464 0.0
H469 H 0.3757 0.30911 0.73216 0.0
H470 H 0.40761 0.31602 0.71072 0.0
H471 H 0.44749 0.3081 0.77352 0.0
Gd472 Gd 0.06034 0.0748 0.53084 0.0
Gd473 Gd 0.05638 0.01965 0.50799 0.0
C474 C 0.03976 0.05258 0.47189 0.0
C475 C 0.06968 0.12185 0.54004 0.0
C476 C 0.07603 0.14125 0.52615 0.0
C477 C 0.06573 0.13916 0.50248 0.0
C478 C 0.09309 0.16193 0.53653 0.0
C479 C 0.08923 0.17852 0.49997 0.0
C480 C 0.09966 0.18039 0.52356 0.0
C481 C 0.07223 0.15767 0.48953 0.0
C482 C 0.02654 0.04133 0.54133 0.0
C483 C 0.07897 0.04241 0.56557 0.0
C484 C 0.04095 0.97288 0.49787 0.0
C485 C 0.02933 0.95632 0.51207 0.0
C486 C 0.02176 0.93124 0.50251 0.0
C487 C 0.0265 0.96557 0.53581 0.0
C488 C 0.0098 0.92451 0.54097 0.0
C489 C 0.01691 0.9498 0.55018 0.0
C490 C 0.01198 0.91541 0.51684 0.0
C491 C 0.09459 0.04906 0.5006 0.0
O492 O 0.0473 0.07192 0.49024 0.0
O493 O 0.04105 0.03037 0.4746 0.0
O494 O 0.04966 0.10798 0.53452 0.0
O495 O 0.08409 0.10964 0.54389 0.0
O496 O 0.03633 0.06187 0.55607 0.0
O497 O 0.03413 0.04077 0.5216 0.0
O498 O 0.06747 0.02287 0.54905 0.0
O499 O 0.08091 0.06477 0.56112 0.0
O500 O 0.06129 0.98365 0.50693 0.0
O501 O 0.03045 0.98782 0.49048 0.0
O502 O 0.08871 0.02557 0.49259 0.0
O503 O 0.07963 0.05464 0.51112 0.0
H504 H 0.05266 0.12326 0.49398 0.0
H505 H 0.10133 0.16382 0.55471 0.0
H506 H 0.11265 0.19634 0.5322 0.0
H507 H 0.06404 0.15557 0.47129 0.0
H508 H 0.02384 0.92387 0.48419 0.0
H509 H 0.03211 0.98495 0.5434 0.0
H510 H 0.01525 0.95738 0.56859 0.0
H511 H 1.00687 0.89598 0.50935 0.0
Gd512 Gd 0.33024 0.81372 0.77102 0.0
Gd513 Gd 0.28707 0.77599 0.76355 0.0
C514 C 0.33026 0.75443 0.76838 0.0
C515 C 0.36838 0.84102 0.78995 0.0
C516 C 0.39059 0.83837 0.79261 0.0
C517 C 0.39577 0.81807 0.77937 0.0
C518 C 0.40644 0.85545 0.80997 0.0
C519 C 0.43241 0.83156 0.8017 0.0
C520 C 0.4272 0.8521 0.81449 0.0
C521 C 0.41663 0.81475 0.78382 0.0
C522 C 0.31486 0.79266 0.72438 0.0
C523 C 0.28697 0.83526 0.76623 0.0
C524 C 0.24881 0.74872 0.74507 0.0
C525 C 0.2266 0.75142 0.74314 0.0
C526 C 0.22171 0.77162 0.75689 0.0
C527 C 0.21043 0.73445 0.72608 0.0
C528 C 0.18452 0.75811 0.73589 0.0
C529 C 0.18956 0.73776 0.72244 0.0
C530 C 0.20078 0.77493 0.75332 0.0
C531 C 0.30268 0.7975 0.81012 0.0
O532 O 0.34142 0.77809 0.77419 0.0
O533 O 0.30872 0.74894 0.76197 0.0
O534 O 0.35945 0.84061 0.76795 0.0
O535 O 0.35525 0.82817 0.80211 0.0
O536 O 0.32622 0.81528 0.7312 0.0
O537 O 0.31378 0.78235 0.74228 0.0
O538 O 0.27583 0.8116 0.76044 0.0
O539 O 0.30854 0.84076 0.77255 0.0
O540 O 0.25812 0.74885 0.76683 0.0
O541 O 0.26167 0.76177 0.7328 0.0
O542 O 0.29132 0.77486 0.80364 0.0
O543 O 0.30347 0.8074 0.79199 0.0
H544 H 0.38358 0.80458 0.76604 0.0
H545 H 0.40261 0.87113 0.82039 0.0
H546 H 0.43917 0.86547 0.82816 0.0
H547 H 0.42022 0.79869 0.77386 0.0
H548 H 0.23415 0.785 0.77004 0.0
H549 H 0.21407 0.71894 0.71513 0.0
H550 H 0.17759 0.72475 0.70851 0.0
H551 H 0.19738 0.7907 0.76406 0.0
Gd552 Gd 0.55486 0.05224 0.05013 0.0
Gd553 Gd 0.54268 0.01918 0.99881 0.0
C554 C 0.50557 0.01751 0.03154 0.0
C555 C 0.5573 0.08259 0.09035 0.0
C556 C 0.54249 0.08853 0.10723 0.0
C557 C 0.52233 0.07208 0.10699 0.0
C558 C 0.54893 0.11046 0.12441 0.0
C559 C 0.51581 0.09876 0.14221 0.0
C560 C 0.53569 0.11557 0.14177 0.0
C561 C 0.50909 0.07714 0.12435 0.0
C562 C 0.56572 1.00936 0.0454 0.0
C563 C 0.59216 0.05374 0.01786 0.0
C564 C 0.54132 0.99024 0.95793 0.0
C565 C 0.55713 0.98794 0.94115 0.0
C566 C 0.57652 1.00638 0.94377 0.0
C567 C 0.5527 0.9677 0.92198 0.0
C568 C 0.58645 0.98507 0.9074 0.0
C569 C 0.56726 0.96625 0.9052 0.0
C570 C 0.5911 1.00491 0.92716 0.0
C571 C 0.53175 0.06195 1.00364 0.0
O572 O 0.51836 0.03771 0.04559 0.0
O573 O 0.51262 1.00422 0.01417 0.0
O574 O 0.561 0.06108 0.08928 0.0
O575 O 0.55439 0.08819 0.06902 0.0
O576 O 0.57741 0.02948 0.05942 0.0
O577 O 0.54837 0.01271 0.03571 0.0
O578 O 0.57927 0.03375 1.00361 0.0
O579 O 0.58512 0.06694 0.03523 0.0
O580 O 0.53495 1.01033 0.95971 0.0
O581 O 0.54555 0.98457 0.979 0.0
O582 O 0.52003 0.04184 0.98968 0.0
O583 O 0.54917 0.05862 0.01318 0.0
H584 H 0.51709 0.05506 0.0938 0.0
H585 H 0.56439 0.12342 0.12469 0.0
H586 H 0.54115 0.13251 0.15507 0.0
H587 H 0.49397 0.06372 0.12432 0.0
H588 H 0.58022 0.0222 0.95838 0.0
H589 H 0.5378 0.95329 0.91973 0.0
H590 H 0.56315 0.95083 0.89008 0.0
H591 H 0.6059 0.01948 0.92962 0.0
Gd592 Gd 0.33855 0.32649 0.2887 0.0
Gd593 Gd 0.29917 0.27667 0.26674 0.0
C594 C 0.28833 0.32515 0.29397 0.0
C595 C 0.36403 0.36936 0.29352 0.0
C596 C 0.35824 0.39099 0.28696 0.0
C597 C 0.34801 0.40467 0.30289 0.0
C598 C 0.35755 0.394 0.26278 0.0
C599 C 0.33073 0.41693 0.26884 0.0
C600 C 0.34362 0.40664 0.2537 0.0
C601 C 0.33419 0.41747 0.29382 0.0
C602 C 0.33086 0.29646 0.32147 0.0
C603 C 0.34989 0.27809 0.26194 0.0
C604 C 0.27394 0.23381 0.26377 0.0
C605 C 0.27824 0.21444 0.27574 0.0
C606 C 0.26243 0.19237 0.27409 0.0
C607 C 0.29888 0.21821 0.28895 0.0
C608 C 0.28819 0.17815 0.29866 0.0
C609 C 0.3037 0.2004 0.30061 0.0
C610 C 0.2675 0.17407 0.28532 0.0
C611 C 0.30485 0.30777 0.23474 0.0
O612 O 0.3077 0.33866 0.29164 0.0
O613 O 0.28256 0.30098 0.28828 0.0
O614 O 0.35493 0.36151 0.3115 0.0
O615 O 0.36339 0.35152 0.27529 0.0
O616 O 0.34583 0.31697 0.32579 0.0
O617 O 0.32228 0.29313 0.29976 0.0
O618 O 0.32997 0.26486 0.26258 0.0
O619 O 0.35637 0.30211 0.26931 0.0
O620 O 0.28655 0.23924 0.24745 0.0
O621 O 0.27199 0.25318 0.27846 0.0
O622 O 0.28969 0.28736 0.23079 0.0
O623 O 0.31515 0.31019 0.25556 0.0
H624 H 0.34869 0.40328 0.32181 0.0
H625 H 0.36586 0.38438 0.25029 0.0
H626 H 0.34156 0.40659 0.23448 0.0
H627 H 0.32454 0.42554 0.30588 0.0
H628 H 0.24646 0.18915 0.26379 0.0
H629 H 0.31137 0.235 0.29019 0.0
H630 H 0.31989 0.20362 0.31045 0.0
H631 H 0.25554 0.15671 0.28328 0.0
Gd632 Gd 0.55898 0.56961 0.03034 0.0
Gd633 Gd 0.55544 0.51474 1.00709 0.0
C634 C 0.53878 0.54798 0.97125 0.0
C635 C 0.56821 0.61667 0.03992 0.0
C636 C 0.57557 0.63534 0.02569 0.0
C637 C 0.5808 0.66013 0.0366 0.0
C638 C 0.57796 0.62849 1.00127 0.0
C639 C 0.59048 0.67118 0.99863 0.0
C640 C 0.5853 0.64625 0.98782 0.0
C641 C 0.58822 0.67795 0.02318 0.0
C642 C 0.52528 0.53585 0.04054 0.0
C643 C 0.57805 0.53704 0.06464 0.0
C644 C 0.54087 0.46783 0.99481 0.0
C645 C 0.53059 0.44836 1.00685 0.0
C646 C 0.52846 0.42401 0.99608 0.0
C647 C 0.52411 0.45391 0.0297 0.0
C648 C 0.51474 0.41076 0.03158 0.0
C649 C 0.51621 0.43523 0.04198 0.0
C650 C 0.5206 0.40534 0.00831 0.0
C651 C 0.59344 0.54483 0.99967 0.0
O652 O 0.54617 0.56715 0.98978 0.0
O653 O 0.54008 0.52574 0.9738 0.0
O654 O 0.54831 0.6028 0.03292 0.0
O655 O 0.58225 0.60437 0.045 0.0
O656 O 0.53495 0.55638 0.05536 0.0
O657 O 0.53288 0.53546 0.02082 0.0
O658 O 0.56655 0.51745 0.04812 0.0
O659 O 0.57983 0.5594 0.06024 0.0
O660 O 0.56122 0.4789 1.00353 0.0
O661 O 0.52933 0.48289 0.99019 0.0
O662 O 0.58773 0.52139 0.99151 0.0
O663 O 0.57844 0.55001 0.01038 0.0
H664 H 0.57913 0.66569 0.05547 0.0
H665 H 0.57431 0.6094 0.99264 0.0
H666 H 0.58712 0.64049 0.96904 0.0
H667 H 0.59187 0.69702 0.03191 0.0
H668 H 0.53351 0.41948 0.9785 0.0
H669 H 0.52568 0.4727 0.03826 0.0
H670 H 0.51165 0.43995 0.05977 0.0
H671 H 0.52 0.38676 0.99996 0.0
Gd672 Gd 0.83008 0.31328 0.27183 0.0
Gd673 Gd 0.78841 0.2773 0.27539 0.0
C674 C 0.83137 0.25533 0.27566 0.0
C675 C 0.86926 0.34112 0.28189 0.0
C676 C 0.89152 0.3383 0.2832 0.0
C677 C 0.90832 0.35719 0.27918 0.0
C678 C 0.89642 0.31764 0.28997 0.0
C679 C 0.935 0.33583 0.29082 0.0
C680 C 0.91797 0.31641 0.29374 0.0
C681 C 0.9299 0.35598 0.28292 0.0
C682 C 0.80851 0.28597 0.22895 0.0
C683 C 0.78692 0.33473 0.27041 0.0
C684 C 0.74931 0.24934 0.26596 0.0
C685 C 0.72716 0.25234 0.26175 0.0
C686 C 0.71029 0.23766 0.27084 0.0
C687 C 0.72243 0.26875 0.2476 0.0
C688 C 0.68382 0.25394 0.24961 0.0
C689 C 0.70097 0.26944 0.24147 0.0
C690 C 0.68881 0.23853 0.26495 0.0
C691 C 0.8108 0.30323 0.31824 0.0
O692 O 0.84237 0.27859 0.27653 0.0
O693 O 0.80974 0.24999 0.27418 0.0
O694 O 0.85786 0.33614 0.26025 0.0
O695 O 0.85804 0.33283 0.29827 0.0
O696 O 0.81931 0.30872 0.23152 0.0
O697 O 0.81076 0.27922 0.2488 0.0
O698 O 0.77597 0.31138 0.26902 0.0
O699 O 0.8086 0.34036 0.27294 0.0
O700 O 0.75978 0.2573 0.28807 0.0
O701 O 0.76153 0.25435 0.24923 0.0
O702 O 0.80014 0.28036 0.31502 0.0
O703 O 0.80806 0.31114 0.29904 0.0
H704 H 0.9048 0.37322 0.27384 0.0
H705 H 0.8837 0.30286 0.29324 0.0
H706 H 0.92134 0.30076 0.30007 0.0
H707 H 0.94264 0.37107 0.28018 0.0
H708 H 0.71367 0.22506 0.28199 0.0
H709 H 0.73522 0.28045 0.24053 0.0
H710 H 0.6978 0.28134 0.22943 0.0
H711 H 0.67607 0.22673 0.27196 0.0
Gd712 Gd 0.07413 0.56265 0.55099 0.0
Gd713 Gd 0.05653 0.54495 0.4964 0.0
C714 C 0.02382 0.53061 0.53249 0.0
C715 C 0.08073 0.58006 0.59707 0.0
C716 C 0.06636 0.58187 0.61546 0.0
C717 C 0.0747 0.58587 0.64005 0.0
C718 C 0.04396 0.57765 0.60843 0.0
C719 C 0.03808 0.58043 0.65047 0.0
C720 C 0.02989 0.57653 0.62574 0.0
C721 C 0.06067 0.58532 0.65749 0.0
C722 C 0.08496 0.52288 0.5287 0.0
C723 C 0.10682 0.57685 0.51475 0.0
C724 C 0.0501 0.52741 0.45034 0.0
C725 C 0.0642 0.52582 0.43157 0.0
C726 C 0.05619 0.50976 0.40923 0.0
C727 C 0.08563 0.54057 0.43572 0.0
C728 C 0.09086 0.52364 0.39512 0.0
C729 C 0.09891 0.53941 0.41769 0.0
C730 C 0.06941 0.50874 0.39104 0.0
C731 C 0.04526 0.58444 0.51867 0.0
O732 O 0.03778 0.54744 0.54945 0.0
O733 O 0.02897 0.52315 0.51097 0.0
O734 O 0.08105 0.55775 0.58774 0.0
O735 O 0.07961 0.59354 0.58075 0.0
O736 O 0.0979 0.53958 0.54573 0.0
O737 O 0.06678 0.52748 0.52534 0.0
O738 O 0.09278 0.56007 0.49789 0.0
O739 O 0.10188 0.5842 0.53641 0.0
O740 O 0.04916 0.54951 0.45965 0.0
O741 O 0.05186 0.5141 0.46666 0.0
O742 O 0.0326 0.56779 0.50138 0.0
O743 O 0.06357 0.5801 0.52214 0.0
H744 H 0.09198 0.58893 0.64571 0.0
H745 H 0.03734 0.57497 0.58955 0.0
H746 H 0.0126 0.57284 0.61976 0.0
H747 H 0.06744 0.58793 0.67638 0.0
H748 H 0.03969 0.49819 0.40581 0.0
H749 H 0.09199 0.55331 0.45271 0.0
H750 H 0.11531 0.55123 0.42121 0.0
H751 H 0.06294 0.49626 0.37383 0.0
Gd752 Gd 0.78535 0.79894 0.26928 0.0
Gd753 Gd 0.83325 0.79072 0.27378 0.0
C754 C 0.81396 0.80792 0.32272 0.0
C755 C 0.7438 0.79313 0.26805 0.0
C756 C 0.72544 0.78523 0.28144 0.0
C757 C 0.72706 0.79354 0.3066 0.0
C758 C 0.70524 0.77132 0.26841 0.0
C759 C 0.68811 0.77585 0.30504 0.0
C760 C 0.68678 0.76659 0.28007 0.0
C761 C 0.70858 0.78894 0.31825 0.0
C762 C 0.81556 0.84132 0.26477 0.0
C763 C 0.80474 0.78206 0.22034 0.0
C764 C 0.87472 0.79603 0.27438 0.0
C765 C 0.8928 0.80327 0.26037 0.0
C766 C 0.89059 0.79452 0.23521 0.0
C767 C 0.91331 0.81698 0.27278 0.0
C768 C 0.92952 0.81144 0.23556 0.0
C769 C 0.93145 0.82111 0.26053 0.0
C770 C 0.90876 0.79851 0.22297 0.0
C771 C 0.80277 0.74854 0.27856 0.0
O772 O 0.79443 0.80309 0.30974 0.0
O773 O 0.83162 0.8065 0.31269 0.0
O774 O 0.75843 0.81345 0.27824 0.0
O775 O 0.75215 0.77642 0.25681 0.0
O776 O 0.7947 0.83822 0.26341 0.0
O777 O 0.81893 0.82103 0.26791 0.0
O778 O 0.82419 0.78648 0.23334 0.0
O779 O 0.78711 0.78368 0.23032 0.0
O780 O 0.85989 0.77566 0.26486 0.0
O781 O 0.86663 0.8131 0.28542 0.0
O782 O 0.82365 0.75154 0.28044 0.0
O783 O 0.79969 0.7688 0.27504 0.0
H784 H 0.74245 0.80423 0.31716 0.0
H785 H 0.70355 0.76485 0.24898 0.0
H786 H 0.67128 0.75657 0.26932 0.0
H787 H 0.71025 0.79597 0.33757 0.0
H788 H 0.87497 0.78396 0.2251 0.0
H789 H 0.91547 0.82378 0.2922 0.0
H790 H 0.94717 0.83101 0.27084 0.0
H791 H 0.90659 0.79118 0.20367 0.0
Gd792 Gd 0.80688 0.27803 0.74636 0.0
Gd793 Gd 0.79496 0.29191 0.79349 0.0
C794 C 0.82095 0.33458 0.77254 0.0
C795 C 0.81389 0.27302 0.70172 0.0
C796 C 0.80584 0.2819 0.68068 0.0
C797 C 0.82023 0.2903 0.66503 0.0
C798 C 0.78425 0.28351 0.67691 0.0
C799 C 0.79179 0.30274 0.6425 0.0
C800 C 0.77725 0.29376 0.65792 0.0
C801 C 0.81331 0.30068 0.64614 0.0
C802 C 0.83376 0.26908 0.78248 0.0
C803 C 0.77813 0.23644 0.7664 0.0
C804 C 0.7879 0.29621 0.838 0.0
C805 C 0.79132 0.28264 0.85704 0.0
C806 C 0.77709 0.28053 0.8743 0.0
C807 C 0.80839 0.27121 0.85775 0.0
C808 C 0.79695 0.25571 0.893 0.0
C809 C 0.81129 0.25797 0.87575 0.0
C810 C 0.77984 0.26708 0.89214 0.0
C811 C 0.76835 0.30145 0.75766 0.0
O812 O 0.81427 0.31923 0.75149 0.0
O813 O 0.8183 0.327 0.79291 0.0
O814 O 0.8265 0.28976 0.71922 0.0
O815 O 0.79965 0.25696 0.70964 0.0
O816 O 0.82724 0.25518 0.76126 0.0
O817 O 0.82656 0.28771 0.78332 0.0
O818 O 0.78692 0.25075 0.78754 0.0
O819 O 0.78043 0.24489 0.74639 0.0
O820 O 0.77292 0.28439 0.81968 0.0
O821 O 0.80554 0.30848 0.83134 0.0
O822 O 0.77487 0.31511 0.77903 0.0
O823 O 0.77535 0.28262 0.75646 0.0
H824 H 0.83699 0.28943 0.66783 0.0
H825 H 0.77289 0.27723 0.68886 0.0
H826 H 0.76055 0.2949 0.65552 0.0
H827 H 0.82506 0.30789 0.63492 0.0
H828 H 0.76381 0.28917 0.87388 0.0
H829 H 0.81939 0.2724 0.84434 0.0
H830 H 0.82446 0.24916 0.87595 0.0
H831 H 0.7687 0.2657 0.90539 0.0
Gd832 Gd 0.8213 0.82563 0.78097 0.0
Gd833 Gd 0.78971 0.77668 0.76511 0.0
C834 C 0.77285 0.82398 0.78675 0.0
C835 C 0.84945 0.86646 0.78215 0.0
C836 C 0.84664 0.89011 0.77789 0.0
C837 C 0.83077 0.8999 0.7882 0.0
C838 C 0.85753 0.90113 0.76063 0.0
C839 C 0.8351 0.92983 0.76223 0.0
C840 C 0.85178 0.92083 0.75281 0.0
C841 C 0.82513 0.91959 0.78051 0.0
C842 C 0.81387 0.80043 0.81706 0.0
C843 C 0.83824 0.77825 0.75955 0.0
C844 C 0.76219 0.73538 0.76333 0.0
C845 C 0.7663 0.71163 0.76505 0.0
C846 C 0.75722 0.69881 0.78219 0.0
C847 C 0.78224 0.70389 0.75281 0.0
C848 C 0.78184 0.67266 0.77688 0.0
C849 C 0.78988 0.6846 0.75862 0.0
C850 C 0.76493 0.67944 0.78808 0.0
C851 C 0.79776 0.80138 0.7288 0.0
O852 O 0.79112 0.83838 0.78314 0.0
O853 O 0.76963 0.80002 0.78276 0.0
O854 O 0.84285 0.85958 0.80168 0.0
O855 O 0.84361 0.84881 0.76298 0.0
O856 O 0.81722 0.82392 0.81998 0.0
O857 O 0.81611 0.79166 0.79573 0.0
O858 O 0.81985 0.76384 0.76286 0.0
O859 O 0.84149 0.80221 0.76365 0.0
O860 O 0.76694 0.74383 0.74387 0.0
O861 O 0.769 0.752 0.78325 0.0
O862 O 0.79446 0.77793 0.72634 0.0
O863 O 0.79513 0.81055 0.74992 0.0
H864 H 0.82183 0.89153 0.80124 0.0
H865 H 0.86968 0.89367 0.75229 0.0
H866 H 0.85976 0.92836 0.73872 0.0
H867 H 0.81188 0.92569 0.78778 0.0
H868 H 0.7451 0.70471 0.79205 0.0
H869 H 0.78985 0.71371 0.73983 0.0
H870 H 0.80323 0.68025 0.74999 0.0
H871 H 0.75836 0.67052 0.80214 0.0
Gd872 Gd 0.54089 0.53053 0.50437 0.0
Gd873 Gd 0.57504 0.55814 0.53138 0.0
C874 C 0.54902 0.58701 0.50477 0.0
C875 C 0.50162 0.50898 0.48299 0.0
C876 C 0.48131 0.50662 0.49331 0.0
C877 C 0.4613 0.50021 0.47822 0.0
C878 C 0.48226 0.51415 0.51842 0.0
C879 C 0.44375 0.51211 0.513 0.0
C880 C 0.46364 0.51685 0.52822 0.0
C881 C 0.44257 0.5028 0.48803 0.0
C882 C 0.5748 0.53108 0.47621 0.0
C883 C 0.56644 0.50218 0.53142 0.0
C884 C 0.61424 0.57808 0.55397 0.0
C885 C 0.63524 0.57594 0.54699 0.0
C886 C 0.65313 0.57966 0.56487 0.0
C887 C 0.6368 0.56742 0.5226 0.0
C888 C 0.67348 0.56452 0.53426 0.0
C889 C 0.65582 0.56188 0.51626 0.0
C890 C 0.67215 0.57401 0.55855 0.0
C891 C 0.54099 0.55802 0.55922 0.0
O892 O 0.5337 0.56754 0.50573 0.0
O893 O 0.56916 0.58666 0.51091 0.0
O894 O 0.51157 0.53134 0.48223 0.0
O895 O 0.51486 0.49733 0.49138 0.0
O896 O 0.55984 0.51219 0.47802 0.0
O897 O 0.57174 0.54935 0.49038 0.0
O898 O 0.58179 0.52069 0.52836 0.0
O899 O 0.54645 0.50378 0.52725 0.0
O900 O 0.60188 0.55803 0.55793 0.0
O901 O 0.60353 0.58912 0.54085 0.0
O902 O 0.55591 0.57687 0.55718 0.0
O903 O 0.54415 0.5396 0.54535 0.0
H904 H 0.46035 0.49444 0.45879 0.0
H905 H 0.4977 0.5194 0.53024 0.0
H906 H 0.46522 0.52435 0.54744 0.0
H907 H 0.42739 0.49871 0.47591 0.0
H908 H 0.65209 0.58604 0.58378 0.0
H909 H 0.623 0.5641 0.50859 0.0
H910 H 0.65626 0.55429 0.49747 0.0
H911 H 0.6856 0.57636 0.57274 0.0
Gd912 Gd 0.07818 0.54475 0.02309 0.0
Gd913 Gd 0.02809 0.53754 0.01282 0.0
C914 C 0.04571 0.49012 1.00076 0.0
C915 C 0.11773 0.54379 0.03748 0.0
C916 C 0.13376 0.52897 0.03588 0.0
C917 C 0.15498 0.54012 0.03246 0.0
C918 C 0.12888 0.50468 0.03918 0.0
C919 C 0.16654 0.50338 0.03648 0.0
C920 C 0.14515 0.49206 0.03963 0.0
C921 C 0.17114 0.5275 0.03266 0.0
C922 C 0.062 0.55163 0.97961 0.0
C923 C 0.06075 0.59229 0.03514 0.0
C924 C 0.98853 0.53832 0.99838 0.0
C925 C 0.97252 0.55288 1.00137 0.0
C926 C 0.95033 0.54074 0.99584 0.0
C927 C 0.97879 0.57846 0.00851 0.0
C928 C 0.94066 0.5795 1.00363 0.0
C929 C 0.96297 0.59168 0.00946 0.0
C930 C 0.93457 0.55386 0.99703 0.0
C931 C 0.04377 0.53044 0.05615 0.0
O932 O 0.06459 0.50331 0.01366 0.0
O933 O 0.03006 0.50036 0.99452 0.0
O934 O 0.11224 0.55197 0.01819 0.0
O935 O 0.10147 0.53739 0.04947 0.0
O936 O 0.08049 0.56483 0.99183 0.0
O937 O 0.05379 0.53518 0.99049 0.0
O938 O 0.04167 0.57905 0.02266 0.0
O939 O 0.07654 0.58213 0.04099 0.0
O940 O 0.99378 0.52855 0.0166 0.0
O941 O 1.00509 0.54661 0.9875 0.0
O942 O 0.02514 0.51767 0.04398 0.0
O943 O 0.05238 0.54693 0.04548 0.0
H944 H 0.15921 0.55889 0.03007 0.0
H945 H 0.11261 0.49556 0.04174 0.0
H946 H 0.14097 0.47343 0.04237 0.0
H947 H 0.18743 0.5369 0.03045 0.0
H948 H 0.94516 0.52102 0.99021 0.0
H949 H 0.99585 0.58821 0.01284 0.0
H950 H 0.96817 0.61141 0.01475 0.0
H951 H 0.91757 0.54395 0.99223 0.0
C952 C 0.01895 0.18889 0.93654 0.0
C953 C 0.02247 0.21125 0.9529 0.0
C954 C 0.02235 0.16788 0.94441 0.0
C955 C 0.02914 0.16898 0.96935 0.0
C956 C 0.03205 0.1913 0.98602 0.0
C957 C 0.02886 0.21209 0.97761 0.0
C958 C 0.01926 0.14466 0.9259 0.0
C959 C 0.03895 0.19338 0.01278 0.0
C960 C 0.0225 0.10938 0.99322 0.0
C961 C 0.04372 0.10643 0.99487 0.0
C962 C 0.01751 0.12955 0.98501 0.0
C963 C 0.03404 0.14716 0.9779 0.0
C964 C 0.05544 0.14412 0.97933 0.0
C965 C 0.06003 0.12399 0.98791 0.0
C966 C 0.99454 0.13211 0.98414 0.0
C967 C 0.07357 0.16215 0.97173 0.0
H968 H 0.01416 0.18796 0.9174 0.0
H969 H 0.03156 0.22915 0.99049 0.0
H970 H 0.03494 0.13966 0.92553 0.0
H971 H 1.00754 0.12938 0.93099 0.0
H972 H 0.01325 0.14645 0.90735 0.0
H973 H 0.03928 0.21152 0.0236 0.0
H974 H 0.02769 0.17903 0.01967 0.0
H975 H 0.05542 0.19041 0.01578 0.0
H976 H 0.00975 0.09599 0.99855 0.0
H977 H 0.07646 0.12189 0.98895 0.0
H978 H 0.98794 0.13253 0.96537 0.0
H979 H 0.99447 0.14966 0.99581 0.0
H980 H 0.98354 0.11696 0.99029 0.0
H981 H 0.06909 0.16358 0.95267 0.0
H982 H 0.08918 0.15689 0.97327 0.0
H983 H 0.0761 0.18055 0.98318 0.0
C984 C 0.16399 0.78487 0.16686 0.0
C985 C 0.15818 0.80647 0.16427 0.0
C986 C 0.18401 0.7854 0.18004 0.0
C987 C 0.19877 0.80807 0.19123 0.0
C988 C 0.19347 0.82998 0.18787 0.0
C989 C 0.17328 0.82894 0.17448 0.0
C990 C 0.18914 0.76158 0.1825 0.0
C991 C 0.20902 0.85451 0.1988 0.0
C992 C 0.23454 0.80668 0.24875 0.0
C993 C 0.2542 0.80484 0.24053 0.0
C994 C 0.21679 0.80842 0.23304 0.0
C995 C 0.21858 0.80862 0.20829 0.0
C996 C 0.23871 0.80771 0.20001 0.0
C997 C 0.25621 0.80561 0.21617 0.0
C998 C 0.19584 0.80936 0.2429 0.0
C999 C 0.24197 0.80838 0.17406 0.0
H1000 H 0.15273 0.76734 0.1588 0.0
H1001 H 0.16918 0.84576 0.17241 0.0
H1002 H 0.20513 0.7613 0.17658 0.0
H1003 H 0.19036 0.7599 0.20183 0.0
H1004 H 0.17658 0.74548 0.17162 0.0
H1005 H 0.20329 0.86981 0.19326 0.0
H1006 H 0.21105 0.85726 0.21889 0.0
H1007 H 0.22527 0.85512 0.19323 0.0
H1008 H 0.2328 0.80621 0.26756 0.0
H1009 H 0.2714 0.80457 0.20969 0.0
H1010 H 0.18274 0.79291 0.23379 0.0
H1011 H 0.19069 0.82556 0.239 0.0
H1012 H 0.19736 0.81017 0.26279 0.0
H1013 H 0.24102 0.78962 0.16431 0.0
H1014 H 0.2584 0.82002 0.17348 0.0
H1015 H 0.22974 0.81545 0.16426 0.0
C1016 C 0.53773 0.84953 0.44352 0.0
C1017 C 0.5212 0.83413 0.45255 0.0
C1018 C 0.54389 0.875 0.45227 0.0
C1019 C 0.53353 0.88544 0.47079 0.0
C1020 C 0.51746 0.86988 0.48066 0.0
C1021 C 0.51139 0.84452 0.47132 0.0
C1022 C 0.56089 0.89084 0.441 0.0
C1023 C 0.50621 0.88011 0.50065 0.0
C1024 C 0.55927 0.95128 0.50497 0.0
C1025 C 0.54655 0.96417 0.49366 0.0
C1026 C 0.55526 0.9257 0.49781 0.0
C1027 C 0.53834 0.91268 0.47862 0.0
C1028 C 0.52572 0.92571 0.46691 0.0
C1029 C 0.52986 0.95115 0.47466 0.0
C1030 C 0.56892 0.91256 0.51103 0.0
C1031 C 0.50775 0.91275 0.44615 0.0
H1032 H 0.54539 0.84178 0.42898 0.0
H1033 H 0.49871 0.83284 0.47856 0.0
H1034 H 0.5534 0.90282 0.43145 0.0
H1035 H 0.57397 0.9029 0.45527 0.0
H1036 H 0.56833 0.87988 0.4278 0.0
H1037 H 0.49546 0.86552 0.50779 0.0
H1038 H 0.51841 0.89211 0.51585 0.0
H1039 H 0.49622 0.89149 0.49372 0.0
H1040 H 0.57212 0.96112 0.51976 0.0
H1041 H 0.52001 0.96088 0.46565 0.0
H1042 H 0.57703 0.90233 0.49803 0.0
H1043 H 0.55835 0.89901 0.51948 0.0
H1044 H 0.58157 0.92528 0.5254 0.0
H1045 H 0.51432 0.90253 0.43147 0.0
H1046 H 0.49987 0.92558 0.43845 0.0
H1047 H 0.49514 0.89924 0.45242 0.0
C1048 C 0.51563 0.30209 0.64762 0.0
C1049 C 0.53717 0.31505 0.65726 0.0
C1050 C 0.49854 0.30229 0.66143 0.0
C1051 C 0.50293 0.31604 0.68548 0.0
C1052 C 0.52461 0.32931 0.69532 0.0
C1053 C 0.54148 0.32853 0.68117 0.0
C1054 C 0.47578 0.28759 0.65028 0.0
C1055 C 0.52995 0.34437 0.7208 0.0
C1056 C 0.45433 0.33163 0.71244 0.0
C1057 C 0.44907 0.31394 0.72671 0.0
C1058 C 0.47213 0.33295 0.69942 0.0
C1059 C 0.48482 0.31596 0.7004 0.0
C1060 C 0.47959 0.2981 0.71482 0.0
C1061 C 0.4619 0.29738 0.72783 0.0
C1062 C 0.47725 0.35242 0.68448 0.0
C1063 C 0.49241 0.27937 0.71611 0.0
H1064 H 0.51208 0.29153 0.62922 0.0
H1065 H 0.55802 0.3387 0.68875 0.0
H1066 H 0.46951 0.27395 0.66132 0.0
H1067 H 0.46471 0.29975 0.65023 0.0
H1068 H 0.47506 0.27783 0.63137 0.0
H1069 H 0.54749 0.35415 0.72559 0.0
H1070 H 0.52025 0.35799 0.7228 0.0
H1071 H 0.52552 0.33243 0.73398 0.0
H1072 H 0.44462 0.34461 0.71163 0.0
H1073 H 0.45778 0.28341 0.73851 0.0
H1074 H 0.47538 0.34377 0.66502 0.0
H1075 H 0.49441 0.36332 0.68988 0.0
H1076 H 0.4665 0.36497 0.68651 0.0
H1077 H 0.49109 0.26805 0.69778 0.0
H1078 H 0.48665 0.26711 0.72865 0.0
H1079 H 0.5099 0.28861 0.72223 0.0
C1080 C 0.99417 0.81548 0.60782 0.0
C1081 C 0.98042 0.81445 0.6257 0.0
C1082 C 0.99663 0.83398 0.59435 0.0
C1083 C 0.98502 0.85194 0.59876 0.0
C1084 C 0.97071 0.85077 0.61636 0.0
C1085 C 0.96859 0.83201 0.62968 0.0
C1086 C 0.01208 0.83458 0.57573 0.0
C1087 C 0.95802 0.86959 0.62143 0.0
C1088 C 0.0124 0.91072 0.58046 0.0
C1089 C 1.00146 0.90753 0.55692 0.0
C1090 C 1.00632 0.89343 0.59491 0.0
C1091 C 0.98887 0.87245 0.58558 0.0
C1092 C 0.97694 0.86984 0.5624 0.0
C1093 C 0.98344 0.8874 0.54828 0.0
C1094 C 0.01948 0.89687 0.61953 0.0
C1095 C 0.95807 0.84786 0.55197 0.0
H1096 H 1.00332 0.80196 0.60451 0.0
H1097 H 0.95788 0.8313 0.6434 0.0
H1098 H 1.00342 0.8345 0.55771 0.0
H1099 H 0.02541 0.85167 0.58084 0.0
H1100 H 0.01937 0.81881 0.574 0.0
H1101 H 0.94644 0.86514 0.63443 0.0
H1102 H 0.96941 0.88778 0.62906 0.0
H1103 H 0.9488 0.87108 0.60432 0.0
H1104 H 0.02644 0.92616 0.58718 0.0
H1105 H 0.97468 0.88514 0.53027 0.0
H1106 H 0.02905 0.88312 0.61903 0.0
H1107 H 1.00861 0.89397 0.63347 0.0
H1108 H 0.03091 0.91536 0.6252 0.0
H1109 H 0.96425 0.83145 0.54742 0.0
H1110 H 0.94876 0.85015 0.53526 0.0
H1111 H 0.94685 0.84437 0.56549 0.0
C1112 C 0.54653 0.80428 0.84186 0.0
C1113 C 0.562 0.82697 0.84874 0.0
C1114 C 0.52533 0.80255 0.83114 0.0
C1115 C 0.51964 0.824 0.82712 0.0
C1116 C 0.53561 0.84666 0.83255 0.0
C1117 C 0.55659 0.84789 0.84337 0.0
C1118 C 0.50871 0.77807 0.82558 0.0
C1119 C 0.53023 0.86991 0.8283 0.0
C1120 C 0.46649 0.82205 0.78949 0.0
C1121 C 0.45409 0.82754 0.80775 0.0
C1122 C 0.48773 0.82005 0.79541 0.0
C1123 C 0.49655 0.82344 0.8201 0.0
C1124 C 0.48371 0.82798 0.83851 0.0
C1125 C 0.46266 0.83002 0.83209 0.0
C1126 C 0.501 0.81524 0.77535 0.0
C1127 C 0.49244 0.83144 0.86505 0.0
H1128 H 0.55064 0.78803 0.84587 0.0
H1129 H 0.56856 0.86543 0.84835 0.0
H1130 H 0.49697 0.77788 0.83878 0.0
H1131 H 0.49933 0.77484 0.80721 0.0
H1132 H 0.51634 0.76279 0.82664 0.0
H1133 H 0.54499 0.88544 0.83095 0.0
H1134 H 0.52159 0.86721 0.80964 0.0
H1135 H 0.5192 0.8749 0.8411 0.0
H1136 H 0.45986 0.82017 0.77066 0.0
H1137 H 0.4529 0.83382 0.84618 0.0
H1138 H 0.50827 0.79995 0.77757 0.0
H1139 H 0.51461 0.83164 0.77631 0.0
H1140 H 0.49112 0.81078 0.75709 0.0
H1141 H 0.4987 0.81571 0.86833 0.0
H1142 H 0.4799 0.83336 0.87697 0.0
H1143 H 0.50626 0.84807 0.87039 0.0
C1144 C 0.48665 0.1765 0.05456 0.0
C1145 C 0.48557 0.1767 0.07925 0.0
C1146 C 0.49202 0.1572 0.0398 0.0
C1147 C 0.49625 0.1377 0.05002 0.0
C1148 C 0.49376 0.13706 0.07451 0.0
C1149 C 0.48854 0.15662 0.08886 0.0
C1150 C 0.49427 0.1583 0.01366 0.0
C1151 C 0.49789 0.11647 0.086 0.0
C1152 C 0.5001 0.07868 0.01125 0.0
C1153 C 0.5227 0.08224 0.01315 0.0
C1154 C 0.49115 0.09687 0.02258 0.0
C1155 C 0.5052 0.11911 0.03593 0.0
C1156 C 0.52804 0.12306 0.03714 0.0
C1157 C 0.53651 0.10456 0.0256 0.0
C1158 C 0.46674 0.09189 0.02107 0.0
C1159 C 0.54356 0.14643 0.05147 0.0
H1160 H 0.48429 0.19192 0.04699 0.0
H1161 H 0.48749 0.15652 0.10788 0.0
H1162 H 0.51165 0.16132 0.01124 0.0
H1163 H 0.48524 0.14072 1.00158 0.0
H1164 H 0.48819 0.17325 0.0078 0.0
H1165 H 0.49283 0.11732 0.1043 0.0
H1166 H 0.48913 0.09849 0.07446 0.0
H1167 H 0.5155 0.11751 0.08769 0.0
H1168 H 0.48938 0.06131 1.00169 0.0
H1169 H 0.55398 0.10728 0.02688 0.0
H1170 H 0.46115 0.10689 0.01474 0.0
H1171 H 0.46203 0.09122 0.03936 0.0
H1172 H 0.45809 0.07433 0.00865 0.0
H1173 H 0.53946 0.16247 0.04568 0.0
H1174 H 0.56077 0.14722 0.04933 0.0
H1175 H 0.54199 0.14798 0.07102 0.0
C1176 C 0.18835 0.37041 0.33761 0.0
C1177 C 0.19158 0.37598 0.36306 0.0
C1178 C 0.20562 0.36799 0.32475 0.0
C1179 C 0.22638 0.37058 0.33772 0.0
C1180 C 0.23018 0.37865 0.36323 0.0
C1181 C 0.2127 0.3814 0.37564 0.0
C1182 C 0.20119 0.36046 0.29744 0.0
C1183 C 0.25219 0.382 0.37765 0.0
C1184 C 0.25533 0.32354 0.31389 0.0
C1185 C 0.27242 0.33726 0.30428 0.0
C1186 C 0.24032 0.33432 0.32463 0.0
C1187 C 0.2422 0.35948 0.32556 0.0
C1188 C 0.25912 0.37344 0.3154 0.0
C1189 C 0.27426 0.36219 0.30511 0.0
C1190 C 0.22259 0.3187 0.33531 0.0
C1191 C 0.26163 0.40024 0.31575 0.0
H1192 H 0.17213 0.36684 0.32775 0.0
H1193 H 0.21537 0.38609 0.39529 0.0
H1194 H 0.21475 0.37041 0.28917 0.0
H1195 H 0.19989 0.34064 0.2921 0.0
H1196 H 0.18579 0.36393 0.28989 0.0
H1197 H 0.25336 0.39175 0.39667 0.0
H1198 H 0.25516 0.36383 0.37799 0.0
H1199 H 0.26523 0.39235 0.36901 0.0
H1200 H 0.25387 0.30432 0.31353 0.0
H1201 H 0.28743 0.37288 0.29765 0.0
H1202 H 0.20638 0.31871 0.32633 0.0
H1203 H 0.22368 0.32633 0.35492 0.0
H1204 H 0.22357 0.29946 0.33323 0.0
H1205 H 0.24561 0.40447 0.31359 0.0
H1206 H 0.2708 0.40633 0.30122 0.0
H1207 H 0.27083 0.41102 0.33346 0.0
C1208 C 0.96597 0.06578 0.17358 0.0
C1209 C 0.97489 0.05759 0.19352 0.0
C1210 C 0.97514 0.06522 0.15124 0.0
C1211 C 0.99423 0.0568 0.14821 0.0
C1212 C 1.00341 0.04898 0.16846 0.0
C1213 C 0.99372 0.04923 0.19022 0.0
C1214 C 0.96416 0.0735 0.13063 0.0
C1215 C 0.02378 0.04028 0.16725 0.0
C1216 C 0.01177 0.03529 0.08467 0.0
C1217 C 0.02772 0.05588 0.0816 0.0
C1218 C 1.00042 0.03554 0.10543 0.0
C1219 C 1.00504 0.05668 0.12454 0.0
C1220 C 0.02109 0.07745 0.1214 0.0
C1221 C 0.03181 0.07688 0.10031 0.0
C1222 C 0.98331 0.01292 0.10689 0.0
C1223 C 0.02734 0.10046 0.14071 0.0
H1224 H 0.95143 0.07208 0.17513 0.0
H1225 H 1.00117 0.04279 0.20498 0.0
H1226 H 0.97469 0.09084 0.12776 0.0
H1227 H 0.96178 0.05977 0.11357 0.0
H1228 H 0.94814 0.07649 0.13417 0.0
H1229 H 0.0294 0.03526 0.18444 0.0
H1230 H 0.02083 0.02414 0.1523 0.0
H1231 H 0.03704 0.05479 0.16321 0.0
H1232 H 1.00804 0.01886 0.07073 0.0
H1233 H 0.0439 0.0931 0.09872 0.0
H1234 H 0.96786 0.01762 0.1101 0.0
H1235 H 0.98856 1.00523 0.12247 0.0
H1236 H 0.98017 0.99865 0.09008 0.0
H1237 H 0.0128 0.10724 0.14372 0.0
H1238 H 0.0399 0.11519 0.13589 0.0
H1239 H 0.03369 0.09648 0.15815 0.0
C1240 C 0.31354 0.63434 0.45328 0.0
C1241 C 0.32676 0.64293 0.47587 0.0
C1242 C 0.31445 0.649 0.43577 0.0
C1243 C 0.32925 0.67248 0.44091 0.0
C1244 C 0.34412 0.68014 0.46271 0.0
C1245 C 0.34252 0.66536 0.4801 0.0
C1246 C 0.29816 0.64029 0.41285 0.0
C1247 C 0.36051 0.70478 0.46856 0.0
C1248 C 0.33442 0.70908 0.39081 0.0
C1249 C 0.32023 0.72379 0.39625 0.0
C1250 C 0.33788 0.69248 0.40538 0.0
C1251 C 0.32668 0.69042 0.42561 0.0
C1252 C 0.31257 0.70543 0.43133 0.0
C1253 C 0.30967 0.72205 0.41671 0.0
C1254 C 0.35324 0.67696 0.39896 0.0
C1255 C 0.30031 0.7038 0.45279 0.0
H1256 H 0.30129 0.61703 0.44999 0.0
H1257 H 0.35293 0.67188 0.49749 0.0
H1258 H 0.28553 0.65053 0.41401 0.0
H1259 H 0.30612 0.64385 0.39679 0.0
H1260 H 0.29 0.62047 0.40999 0.0
H1261 H 0.37328 0.70611 0.48391 0.0
H1262 H 0.36844 0.70852 0.45251 0.0
H1263 H 0.35208 0.71925 0.47361 0.0
H1264 H 0.34251 0.71019 0.37491 0.0
H1265 H 0.29909 0.73374 0.42134 0.0
H1266 H 0.34404 0.65745 0.3937 0.0
H1267 H 0.36545 0.67872 0.41496 0.0
H1268 H 0.3619 0.68207 0.38374 0.0
H1269 H 0.29002 0.68492 0.45104 0.0
H1270 H 0.28972 0.71654 0.45449 0.0
H1271 H 0.31194 0.70808 0.46981 0.0
C1272 C 0.60489 0.01334 0.67994 0.0
C1273 C 0.62477 1.00806 0.67635 0.0
C1274 C 0.59066 0.01555 0.66047 0.0
C1275 C 0.59639 0.01221 0.63681 0.0
C1276 C 0.61597 1.00582 0.63287 0.0
C1277 C 0.62999 1.0039 0.65273 0.0
C1278 C 0.57001 0.0226 0.66539 0.0
C1279 C 0.6225 1.00193 0.60781 0.0
C1280 C 0.5532 1.00471 0.58288 0.0
C1281 C 0.55829 0.02824 0.57783 0.0
C1282 C 0.56547 0.99912 0.60209 0.0
C1283 C 0.58291 0.01763 0.61663 0.0
C1284 C 0.58767 0.04157 0.61189 0.0
C1285 C 0.57535 0.04653 0.59244 0.0
C1286 C 0.56015 0.97333 0.60646 0.0
C1287 C 0.606 0.06188 0.62711 0.0
H1288 H 0.60069 0.01651 0.69812 0.0
H1289 H 0.64525 0.99964 0.64979 0.0
H1290 H 0.57097 0.04112 0.66167 0.0
H1291 H 0.5558 1.00982 0.65312 0.0
H1292 H 0.56711 0.02269 0.68446 0.0
H1293 H 0.63718 0.99484 0.60745 0.0
H1294 H 0.60898 0.98893 0.59472 0.0
H1295 H 0.62599 0.01947 0.60142 0.0
H1296 H 0.54012 0.99053 0.57135 0.0
H1297 H 0.57924 0.06474 0.58846 0.0
H1298 H 0.54574 0.96122 0.5939 0.0
H1299 H 0.55697 0.97328 0.6254 0.0
H1300 H 0.57428 0.9656 0.60409 0.0
H1301 H 0.60377 0.06403 0.64651 0.0
H1302 H 0.60705 0.07966 0.62149 0.0
H1303 H 0.62173 0.05723 0.6256 0.0
C1304 C 0.32416 0.33472 0.96992 0.0
C1305 C 0.32451 0.3591 0.97911 0.0
C1306 C 0.3219 0.32562 0.94475 0.0
C1307 C 0.32012 0.34128 0.92825 0.0
C1308 C 0.32039 0.36587 0.93741 0.0
C1309 C 0.32249 0.37443 0.96262 0.0
C1310 C 0.32152 0.29925 0.93582 0.0
C1311 C 0.31866 0.38326 0.92055 0.0
C1312 C 0.33505 0.32555 0.8647 0.0
C1313 C 0.31454 0.31609 0.85035 0.0
C1314 C 0.33708 0.33362 0.89 0.0
C1315 C 0.31818 0.33207 0.90143 0.0
C1316 C 0.29745 0.32218 0.88712 0.0
C1317 C 0.29587 0.31444 0.86183 0.0
C1318 C 0.35951 0.34419 0.90447 0.0
C1319 C 0.27687 0.31996 0.89851 0.0
H1320 H 0.32565 0.32266 0.9824 0.0
H1321 H 0.32279 0.3933 0.96943 0.0
H1322 H 0.30632 0.28979 0.92317 0.0
H1323 H 0.3353 0.29823 0.92557 0.0
H1324 H 0.32261 0.28929 0.9509 0.0
H1325 H 0.31906 0.4018 0.93048 0.0
H1326 H 0.33226 0.38485 0.90966 0.0
H1327 H 0.30331 0.37607 0.90764 0.0
H1328 H 0.34961 0.32703 0.85614 0.0
H1329 H 0.27993 0.30709 0.85104 0.0
H1330 H 0.36182 0.33383 0.91893 0.0
H1331 H 0.36128 0.36338 0.91352 0.0
H1332 H 0.3726 0.34382 0.89298 0.0
H1333 H 0.27715 0.3091 0.91292 0.0
H1334 H 0.26202 0.31117 0.88504 0.0
H1335 H 0.27581 0.33834 0.90725 0.0
C1336 C 0.99976 0.06097 0.33156 0.0
C1337 C 0.97892 0.06499 0.32701 0.0
C1338 C 0.00952 0.06038 0.35514 0.0
C1339 C 0.99832 0.06331 0.37553 0.0
C1340 C 0.97734 0.06767 0.37121 0.0
C1341 C 0.96808 0.06868 0.34735 0.0
C1342 C 0.03194 0.05621 0.35812 0.0
C1343 C 0.96428 0.07055 0.39178 0.0
C1344 C 0.01598 0.03533 0.43017 0.0
C1345 C 0.02903 0.05565 0.44741 0.0
C1346 C 1.00561 0.03766 0.40746 0.0
C1347 C 1.00833 0.0609 0.40083 0.0
C1348 C 0.02154 0.0815 0.41811 0.0
C1349 C 0.03141 0.0787 0.44094 0.0
C1350 C 0.99164 0.01497 0.39041 0.0
C1351 C 0.02562 0.10669 0.41233 0.0
H1352 H 1.0086 0.05805 0.3164 0.0
H1353 H 0.95194 0.07147 0.34451 0.0
H1354 H 0.04288 0.07077 0.37257 0.0
H1355 H 0.03109 0.03855 0.36385 0.0
H1356 H 0.03927 0.05592 0.34109 0.0
H1357 H 0.94865 0.07459 0.38603 0.0
H1358 H 0.96075 0.05352 0.39908 0.0
H1359 H 0.97381 0.08549 0.40681 0.0
H1360 H 0.0136 0.01735 0.43453 0.0
H1361 H 0.04137 0.09472 0.45362 0.0
H1362 H 0.99885 0.01189 0.37346 0.0
H1363 H 0.9752 0.01735 0.38532 0.0
H1364 H 0.98992 0.99844 0.3985 0.0
H1365 H 0.03387 0.10715 0.39597 0.0
H1366 H 0.03586 0.12099 0.42754 0.0
H1367 H 0.00995 0.11119 0.4081 0.0
C1368 C 0.32431 0.69844 0.61152 0.0
C1369 C 0.30889 0.6947 0.59093 0.0
C1370 C 0.32538 0.71671 0.63181 0.0
C1371 C 0.31039 0.73123 0.63162 0.0
C1372 C 0.29514 0.72794 0.61066 0.0
C1373 C 0.2947 0.70982 0.59045 0.0
C1374 C 0.34212 0.71995 0.65374 0.0
C1375 C 0.27865 0.74277 0.60997 0.0
C1376 C 0.29857 0.75435 0.69419 0.0
C1377 C 0.31138 0.77853 0.6994 0.0
C1378 C 0.29722 0.73919 0.67166 0.0
C1379 C 0.30949 0.74825 0.65414 0.0
C1380 C 0.32192 0.77293 0.65896 0.0
C1381 C 0.32253 0.78793 0.68154 0.0
C1382 C 0.28341 0.71313 0.66706 0.0
C1383 C 0.33548 0.78307 0.64084 0.0
H1384 H 0.33547 0.68695 0.61186 0.0
H1385 H 0.28271 0.70697 0.57457 0.0
H1386 H 0.35126 0.73945 0.65963 0.0
H1387 H 0.33385 0.71448 0.66905 0.0
H1388 H 0.35388 0.70884 0.65012 0.0
H1389 H 0.26904 0.73932 0.59167 0.0
H1390 H 0.26728 0.73815 0.6231 0.0
H1391 H 0.28684 0.76257 0.61551 0.0
H1392 H 0.2901 0.74698 0.70805 0.0
H1393 H 0.3326 0.80658 0.68565 0.0
H1394 H 0.29405 0.70047 0.6662 0.0
H1395 H 0.27268 0.7086 0.64935 0.0
H1396 H 0.27312 0.70978 0.6815 0.0
H1397 H 0.34889 0.77405 0.63892 0.0
H1398 H 0.34266 0.80311 0.64643 0.0
H1399 H 0.32554 0.77913 0.62271 0.0
C1400 C 0.64054 0.98468 0.78726 0.0
C1401 C 0.66335 0.99216 0.79144 0.0
C1402 C 0.62851 0.98094 0.80634 0.0
C1403 C 0.63955 0.98479 0.8302 0.0
C1404 C 0.66257 0.99115 0.83438 0.0
C1405 C 0.67422 0.99475 0.81492 0.0
C1406 C 0.60397 0.97407 0.80114 0.0
C1407 C 0.6749 0.99535 0.85957 0.0
C1408 C 0.60918 1.00641 0.88012 0.0
C1409 C 0.60093 0.98489 0.88844 0.0
C1410 C 0.62219 1.00666 0.8616 0.0
C1411 C 0.627 0.9848 0.85097 0.0
C1412 C 0.61903 0.96306 0.8595 0.0
C1413 C 0.60605 0.96335 0.87816 0.0
C1414 C 0.63034 0.03023 0.853 0.0
C1415 C 0.62389 0.93944 0.84863 0.0
H1416 H 0.63199 0.98242 0.76915 0.0
H1417 H 0.69184 1.00038 0.81829 0.0
H1418 H 0.59698 0.95819 0.80923 0.0
H1419 H 0.59785 0.98953 0.80956 0.0
H1420 H 0.59789 0.9695 0.78137 0.0
H1421 H 0.69259 0.99745 0.85938 0.0
H1422 H 0.6727 0.01216 0.87076 0.0
H1423 H 0.66844 0.97997 0.86855 0.0
H1424 H 0.605 0.02302 0.88768 0.0
H1425 H 0.59991 0.94674 0.88473 0.0
H1426 H 0.62343 0.02809 0.83372 0.0
H1427 H 0.6483 0.03476 0.85403 0.0
H1428 H 0.62589 0.04584 0.86386 0.0
H1429 H 0.61668 0.93377 0.82921 0.0
H1430 H 0.61736 0.92443 0.85809 0.0
H1431 H 0.64172 0.94208 0.84944 0.0
C1432 C 0.32691 0.36288 0.11562 0.0
C1433 C 0.32488 0.38686 0.11743 0.0
C1434 C 0.32452 0.35084 0.1354 0.0
C1435 C 0.31978 0.36288 0.15755 0.0
C1436 C 0.31766 0.38704 0.15934 0.0
C1437 C 0.32043 0.39871 0.1395 0.0
C1438 C 0.32689 0.32509 0.13253 0.0
C1439 C 0.31257 0.40087 0.18224 0.0
C1440 C 0.29165 0.32302 0.19887 0.0
C1441 C 0.30881 0.324 0.21681 0.0
C1442 C 0.29494 0.33592 0.17993 0.0
C1443 C 0.31608 0.34985 0.17836 0.0
C1444 C 0.33347 0.35123 0.19667 0.0
C1445 C 0.32959 0.3385 0.21581 0.0
C1446 C 0.27574 0.33451 0.16144 0.0
C1447 C 0.35624 0.36583 0.19577 0.0
H1448 H 0.3304 0.35351 0.09874 0.0
H1449 H 0.31886 0.41724 0.1413 0.0
H1450 H 0.33951 0.32407 0.14697 0.0
H1451 H 0.31135 0.31254 0.13464 0.0
H1452 H 0.33138 0.31853 0.11458 0.0
H1453 H 0.30586 0.41628 0.17881 0.0
H1454 H 0.30076 0.38869 0.19073 0.0
H1455 H 0.32776 0.40851 0.19528 0.0
H1456 H 0.27551 0.3119 0.19954 0.0
H1457 H 0.34298 0.33907 0.22937 0.0
H1458 H 0.27857 0.32677 0.14305 0.0
H1459 H 0.27386 0.35315 0.16119 0.0
H1460 H 0.2603 0.32311 0.1653 0.0
H1461 H 0.36839 0.36293 0.20962 0.0
H1462 H 0.35684 0.38555 0.19883 0.0
H1463 H 0.36095 0.36083 0.17758 0.0
C1464 C 0.23153 0.99086 0.98671 0.0
C1465 C 0.2517 0.99552 0.97836 0.0
C1466 C 0.22047 1.00906 0.99061 0.0
C1467 C 0.2295 0.03227 0.98529 0.0
C1468 C 0.24908 0.03651 0.97514 0.0
C1469 C 0.26022 0.01818 0.97223 0.0
C1470 C 0.19966 1.00377 1.00164 0.0
C1471 C 0.25872 0.06056 0.96815 0.0
C1472 C 0.18609 0.06594 0.98804 0.0
C1473 C 0.19049 0.07769 0.01262 0.0
C1474 C 0.20044 0.05363 0.97767 0.0
C1475 C 0.21907 0.05228 0.99246 0.0
C1476 C 0.22491 0.06655 0.01627 0.0
C1477 C 0.21074 0.07953 0.02588 0.0
C1478 C 0.19438 0.03995 0.95169 0.0
C1479 C 0.24476 0.0658 0.03262 0.0
H1480 H 0.22491 0.97337 0.99148 0.0
H1481 H 0.27573 0.02172 0.9655 0.0
H1482 H 0.20159 0.01666 0.01921 0.0
H1483 H 0.18613 1.00647 0.98949 0.0
H1484 H 0.19497 0.98483 1.00487 0.0
H1485 H 0.26986 0.05854 0.9545 0.0
H1486 H 0.24583 0.06834 0.9607 0.0
H1487 H 0.26824 0.07384 0.98445 0.0
H1488 H 0.17066 0.06449 0.97735 0.0
H1489 H 0.21474 0.08949 0.04451 0.0
H1490 H 0.18494 0.02095 0.95122 0.0
H1491 H 0.20904 0.03914 0.94295 0.0
H1492 H 0.18412 0.04863 0.94092 0.0
H1493 H 0.24205 0.04762 0.0377 0.0
H1494 H 0.24836 0.08 0.04953 0.0
H1495 H 0.25922 0.06838 0.02309 0.0
C1496 C 0.70705 0.63438 0.98109 0.0
C1497 C 0.72202 0.63768 1.00206 0.0
C1498 C 0.68535 0.62036 0.97917 0.0
C1499 C 0.67842 0.60931 0.99866 0.0
C1500 C 0.69343 0.61279 0.01992 0.0
C1501 C 0.71493 0.62685 0.02135 0.0
C1502 C 0.66989 0.61716 0.95621 0.0
C1503 C 0.68684 0.60139 0.04115 0.0
C1504 C 0.6185 0.58706 1.00567 0.0
C1505 C 0.61446 0.56176 0.99769 0.0
C1506 C 0.63895 0.60293 1.00525 0.0
C1507 C 0.65583 0.59323 0.99668 0.0
C1508 C 0.65154 0.56772 0.98786 0.0
C1509 C 0.63094 0.55235 0.98843 0.0
C1510 C 0.64265 0.62998 0.01457 0.0
C1511 C 0.66896 0.55651 0.97858 0.0
H1512 H 0.71228 0.64272 0.96612 0.0
H1513 H 0.72624 0.62928 0.0377 0.0
H1514 H 0.66431 0.59755 0.94737 0.0
H1515 H 0.65525 0.62317 0.96056 0.0
H1516 H 0.67749 0.62765 0.94308 0.0
H1517 H 0.70026 0.60635 0.05663 0.0
H1518 H 0.67272 0.60728 0.04752 0.0
H1519 H 0.6817 0.5812 0.0354 0.0
H1520 H 0.60575 0.59443 0.0125 0.0
H1521 H 0.6279 0.53281 0.98213 0.0
H1522 H 0.64866 0.64028 1.00061 0.0
H1523 H 0.65535 0.63615 0.03079 0.0
H1524 H 0.62762 0.63475 0.01957 0.0
H1525 H 0.67602 0.56574 0.96439 0.0
H1526 H 0.66265 0.53664 0.97089 0.0
H1527 H 0.68235 0.55914 0.99362 0.0
C1528 C 0.72524 0.44967 0.28871 0.0
C1529 C 0.71835 0.45508 0.26614 0.0
C1530 C 0.73602 0.43049 0.29057 0.0
C1531 C 0.74053 0.41574 0.26951 0.0
C1532 C 0.73371 0.42131 0.24685 0.0
C1533 C 0.72297 0.44031 0.24551 0.0
C1534 C 0.74252 0.4259 0.31533 0.0
C1535 C 0.73781 0.40704 0.22359 0.0
C1536 C 0.78622 0.38014 0.2722 0.0
C1537 C 0.77484 0.35534 0.27028 0.0
C1538 C 0.77555 0.3995 0.27241 0.0
C1539 C 0.75243 0.39491 0.27078 0.0
C1540 C 0.74084 0.36992 0.269 0.0
C1541 C 0.75193 0.35086 0.26877 0.0
C1542 C 0.78925 0.42517 0.27415 0.0
C1543 C 0.71641 0.36315 0.26721 0.0
H1544 H 0.72207 0.46029 0.30506 0.0
H1545 H 0.71812 0.44359 0.22773 0.0
H1546 H 0.73462 0.40674 0.31625 0.0
H1547 H 0.76036 0.4283 0.31858 0.0
H1548 H 0.73798 0.43836 0.33002 0.0
H1549 H 0.73179 0.4133 0.20731 0.0
H1550 H 0.7555 0.40882 0.22403 0.0
H1551 H 0.7297 0.38735 0.22172 0.0
H1552 H 0.80378 0.3846 0.27349 0.0
H1553 H 0.74245 0.33223 0.26738 0.0
H1554 H 0.78612 0.43749 0.28998 0.0
H1555 H 0.78469 0.43201 0.25771 0.0
H1556 H 0.80693 0.42631 0.27601 0.0
H1557 H 0.71149 0.37388 0.28293 0.0
H1558 H 0.70952 0.34339 0.26668 0.0
H1559 H 0.70917 0.36782 0.25057 0.0
C1560 C 0.89621 0.4883 0.54136 0.0
C1561 C 0.8861 0.4984 0.52398 0.0
C1562 C 0.91894 0.49402 0.54671 0.0
C1563 C 0.93181 0.5102 0.53436 0.0
C1564 C 0.92171 0.52153 0.51784 0.0
C1565 C 0.89894 0.51549 0.51285 0.0
C1566 C 0.92913 0.48169 0.56453 0.0
C1567 C 0.93494 0.53901 0.50442 0.0
C1568 C 0.99249 0.53735 0.5533 0.0
C1569 C 1.00083 0.52287 0.53605 0.0
C1570 C 0.97001 0.53284 0.55376 0.0
C1571 C 0.95565 0.51335 0.53662 0.0
C1572 C 0.96408 0.49779 0.52017 0.0
C1573 C 0.98658 0.50277 0.52007 0.0
C1574 C 0.96161 0.54966 0.57173 0.0
C1575 C 0.94927 0.47665 0.50176 0.0
H1576 H 0.8864 0.47521 0.55022 0.0
H1577 H 0.89126 0.52351 0.49954 0.0
H1578 H 0.93636 0.46796 0.55457 0.0
H1579 H 0.94245 0.49516 0.57747 0.0
H1580 H 0.91706 0.47227 0.57496 0.0
H1581 H 0.92476 0.54826 0.49427 0.0
H1582 H 0.94788 0.55312 0.51725 0.0
H1583 H 0.94306 0.52887 0.49134 0.0
H1584 H 1.00336 0.55305 0.56558 0.0
H1585 H 0.99294 0.49142 0.50681 0.0
H1586 H 0.95062 0.5389 0.58225 0.0
H1587 H 0.95195 0.5596 0.56189 0.0
H1588 H 0.97498 0.56325 0.5846 0.0
H1589 H 0.93761 0.46487 0.51084 0.0
H1590 H 0.95845 0.46523 0.49153 0.0
H1591 H 0.93962 0.4837 0.48861 0.0
C1592 C 0.36117 0.09543 0.34268 0.0
C1593 C 0.38165 0.1118 0.34424 0.0
C1594 C 0.34205 0.10302 0.33931 0.0
C1595 C 0.34353 0.12734 0.33677 0.0
C1596 C 0.36422 0.14436 0.34013 0.0
C1597 C 0.38308 0.13641 0.34411 0.0
C1598 C 0.32036 0.08452 0.33671 0.0
C1599 C 0.3665 0.17051 0.33749 0.0
C1600 C 0.30441 0.14352 0.29227 0.0
C1601 C 0.29543 0.15866 0.30791 0.0
C1602 C 0.31887 0.13139 0.3015 0.0
C1603 C 0.32407 0.13429 0.32697 0.0
C1604 C 0.31296 0.14723 0.34269 0.0
C1605 C 0.29892 0.15967 0.33294 0.0
C1606 C 0.33038 0.1178 0.28408 0.0
C1607 C 0.31726 0.14953 0.36982 0.0
H1608 H 0.36005 0.07642 0.34318 0.0
H1609 H 0.3989 0.14909 0.34537 0.0
H1610 H 0.3081 0.09299 0.3446 0.0
H1611 H 0.31426 0.077 0.31717 0.0
H1612 H 0.32178 0.06906 0.3456 0.0
H1613 H 0.38361 0.1818 0.34233 0.0
H1614 H 0.36071 0.17091 0.31843 0.0
H1615 H 0.3563 0.17902 0.34917 0.0
H1616 H 0.30183 0.14314 0.27293 0.0
H1617 H 0.29191 0.17152 0.34492 0.0
H1618 H 0.32995 0.09955 0.28819 0.0
H1619 H 0.34773 0.1281 0.28611 0.0
H1620 H 0.32304 0.11536 0.26488 0.0
H1621 H 0.31616 0.1313 0.37435 0.0
H1622 H 0.30562 0.15791 0.37926 0.0
H1623 H 0.33402 0.16097 0.37689 0.0
C1624 C 0.33978 0.13224 0.49424 0.0
C1625 C 0.34535 0.15788 0.49916 0.0
C1626 C 0.35594 0.11938 0.49363 0.0
C1627 C 0.37821 0.13244 0.49803 0.0
C1628 C 0.3839 0.1583 0.50305 0.0
C1629 C 0.36746 0.17066 0.50356 0.0
C1630 C 0.34919 0.09181 0.48821 0.0
C1631 C 0.40741 0.17296 0.50784 0.0
C1632 C 0.42141 0.10138 0.51787 0.0
C1633 C 0.4295 0.09516 0.49613 0.0
C1634 C 0.4046 0.11326 0.5187 0.0
C1635 C 0.39564 0.11918 0.49729 0.0
C1636 C 0.40378 0.11302 0.47529 0.0
C1637 C 0.42057 0.10111 0.47498 0.0
C1638 C 0.3964 0.11945 0.54251 0.0
C1639 C 0.39484 0.11916 0.45209 0.0
H1640 H 0.32277 0.12219 0.49082 0.0
H1641 H 0.37201 0.19046 0.50739 0.0
H1642 H 0.35558 0.08473 0.47168 0.0
H1643 H 0.35629 0.08483 0.50337 0.0
H1644 H 0.33124 0.08435 0.48538 0.0
H1645 H 0.40914 0.19297 0.51154 0.0
H1646 H 0.41608 0.16832 0.52363 0.0
H1647 H 0.41562 0.16829 0.49197 0.0
H1648 H 0.42796 0.09655 0.53423 0.0
H1649 H 0.42687 0.09666 0.45816 0.0
H1650 H 0.37869 0.11075 0.54061 0.0
H1651 H 0.39871 0.13948 0.54765 0.0
H1652 H 0.40487 0.11335 0.55746 0.0
H1653 H 0.37705 0.11075 0.44783 0.0
H1654 H 0.40263 0.11273 0.43641 0.0
H1655 H 0.3974 0.13922 0.45437 0.0
C1656 C 0.73154 0.60629 0.26848 0.0
C1657 C 0.71973 0.60326 0.28804 0.0
C1658 C 0.74392 0.6298 0.26596 0.0
C1659 C 0.7452 0.65128 0.28358 0.0
C1660 C 0.73357 0.64816 0.30349 0.0
C1661 C 0.72101 0.62465 0.30528 0.0
C1662 C 0.75552 0.6317 0.24413 0.0
C1663 C 0.73455 0.66977 0.32328 0.0
C1664 C 0.79507 0.70747 0.29117 0.0
C1665 C 0.78691 0.72463 0.28059 0.0
C1666 C 0.78186 0.6841 0.2923 0.0
C1667 C 0.75952 0.67663 0.28211 0.0
C1668 C 0.75106 0.69387 0.27135 0.0
C1669 C 0.76465 0.71751 0.27089 0.0
C1670 C 0.79198 0.66733 0.30464 0.0
C1671 C 0.7276 0.68715 0.25986 0.0
H1672 H 0.73069 0.59033 0.25475 0.0
H1673 H 0.71216 0.62305 0.32056 0.0
H1674 H 0.7504 0.64503 0.23433 0.0
H1675 H 0.77332 0.63863 0.25004 0.0
H1676 H 0.75222 0.61386 0.23137 0.0
H1677 H 0.72479 0.66458 0.33767 0.0
H1678 H 0.75168 0.67841 0.33174 0.0
H1679 H 0.72848 0.68374 0.31548 0.0
H1680 H 0.81212 0.71236 0.29876 0.0
H1681 H 0.75796 0.73013 0.26234 0.0
H1682 H 0.79082 0.65021 0.29155 0.0
H1683 H 0.78295 0.66222 0.31958 0.0
H1684 H 0.80935 0.67583 0.31224 0.0
H1685 H 0.72428 0.67056 0.24534 0.0
H1686 H 0.72335 0.70209 0.25193 0.0
H1687 H 0.71679 0.68269 0.27354 0.0
C1688 C 0.8586 0.4787 0.77851 0.0
C1689 C 0.88016 0.4879 0.79005 0.0
C1690 C 0.84862 0.45353 0.77343 0.0
C1691 C 0.86064 0.43725 0.77973 0.0
C1692 C 0.88267 0.44639 0.79054 0.0
C1693 C 0.89212 0.47165 0.79576 0.0
C1694 C 0.82499 0.44445 0.76225 0.0
C1695 C 0.89607 0.42954 0.79724 0.0
C1696 C 0.83105 0.37767 0.79492 0.0
C1697 C 0.83049 0.36081 0.77365 0.0
C1698 C 0.84038 0.40263 0.79685 0.0
C1699 C 0.84969 0.41094 0.77713 0.0
C1700 C 0.84901 0.39409 0.75547 0.0
C1701 C 0.83922 0.36915 0.7539 0.0
C1702 C 0.84047 0.42009 0.82012 0.0
C1703 C 0.85903 0.40235 0.73422 0.0
H1704 H 0.8493 0.49121 0.77406 0.0
H1705 H 0.90889 0.47867 0.80441 0.0
H1706 H 0.82289 0.42979 0.74602 0.0
H1707 H 0.81518 0.43646 0.77544 0.0
H1708 H 0.81839 0.45927 0.75688 0.0
H1709 H 0.91347 0.43932 0.80345 0.0
H1710 H 0.88955 0.42085 0.812 0.0
H1711 H 0.89502 0.41468 0.78147 0.0
H1712 H 0.82409 0.37137 0.81015 0.0
H1713 H 0.83884 0.35614 0.73745 0.0
H1714 H 0.83283 0.43465 0.81616 0.0
H1715 H 0.85747 0.42912 0.82879 0.0
H1716 H 0.83165 0.41077 0.83329 0.0
H1717 H 0.85191 0.41662 0.72845 0.0
H1718 H 0.85658 0.38705 0.71844 0.0
H1719 H 0.87675 0.41065 0.73973 0.0
C1720 C 0.09331 0.89508 0.09836 0.0
C1721 C 0.09148 0.87346 0.08147 0.0
C1722 C 0.09008 0.91633 0.09087 0.0
C1723 C 0.08512 0.91624 0.06582 0.0
C1724 C 0.0838 0.89467 0.04867 0.0
C1725 C 0.08685 0.87362 0.05667 0.0
C1726 C 0.09148 0.93873 0.10986 0.0
C1727 C 0.0788 0.89366 0.0218 0.0
C1728 C 0.0546 0.96113 0.04619 0.0
C1729 C 0.07135 0.97958 0.04114 0.0
C1730 C 0.05889 0.9407 0.05443 0.0
C1731 C 0.08049 0.93831 0.05755 0.0
C1732 C 0.09749 0.95686 0.05242 0.0
C1733 C 0.09275 0.97726 0.04443 0.0
C1734 C 0.04023 0.92164 0.05982 0.0
C1735 C 0.1207 0.95507 0.05521 0.0
H1736 H 0.09677 0.89526 0.11756 0.0
H1737 H 0.08546 0.85716 0.04337 0.0
H1738 H 0.10357 0.95467 0.10634 0.0
H1739 H 0.07553 0.94319 0.10889 0.0
H1740 H 0.09614 0.93621 0.12853 0.0
H1741 H 0.0794 0.876 0.01072 0.0
H1742 H 0.06234 0.89631 0.01751 0.0
H1743 H 0.09056 0.90868 0.01637 0.0
H1744 H 0.03802 0.9627 0.04386 0.0
H1745 H 0.10585 0.99134 0.0406 0.0
H1746 H 0.04337 0.91945 0.07887 0.0
H1747 H 0.03881 0.9037 0.04796 0.0
H1748 H 0.02446 0.92638 0.05704 0.0
H1749 H 0.12602 0.95397 0.07417 0.0
H1750 H 0.13208 0.97093 0.05052 0.0
H1751 H 0.12188 0.9381 0.04335 0.0
C1752 C 0.94807 0.26696 0.85371 0.0
C1753 C 0.94609 0.2572 0.87479 0.0
C1754 C 0.9297 0.26936 0.83929 0.0
C1755 C 0.90867 0.26165 0.84588 0.0
C1756 C 0.90655 0.25173 0.86709 0.0
C1757 C 0.9252 0.24971 0.88126 0.0
C1758 C 0.9328 0.28019 0.81697 0.0
C1759 C 0.88452 0.24308 0.87477 0.0
C1760 C 0.86265 0.28598 0.81925 0.0
C1761 C 0.85217 0.26694 0.7996 0.0
C1762 C 0.88092 0.28449 0.83452 0.0
C1763 C 0.88886 0.26337 0.83024 0.0
C1764 C 0.87796 0.24388 0.81076 0.0
C1765 C 0.85987 0.24593 0.7957 0.0
C1766 C 0.89196 0.30572 0.85502 0.0
C1767 C 0.88555 0.22088 0.80563 0.0
H1768 H 0.96405 0.27296 0.84854 0.0
H1769 H 0.92336 0.24216 0.89746 0.0
H1770 H 0.92375 0.26668 0.80059 0.0
H1771 H 0.92608 0.29635 0.81813 0.0
H1772 H 0.9502 0.28586 0.81459 0.0
H1773 H 0.88559 0.23611 0.89189 0.0
H1774 H 0.87651 0.25823 0.87736 0.0
H1775 H 0.87388 0.2283 0.86031 0.0
H1776 H 0.85679 0.30225 0.82245 0.0
H1777 H 0.85181 0.23106 0.78067 0.0
H1778 H 0.90909 0.31312 0.85249 0.0
H1779 H 0.8923 0.2995 0.87255 0.0
H1780 H 0.88367 0.32068 0.85619 0.0
H1781 H 0.90241 0.22534 0.80127 0.0
H1782 H 0.87497 0.20709 0.79026 0.0
H1783 H 0.88584 0.21262 0.82198 0.0
C1784 C 0.60262 0.24031 0.564 0.0
C1785 C 0.59142 0.25066 0.58133 0.0
C1786 C 0.59716 0.21491 0.55499 0.0
C1787 C 0.58032 0.19927 0.56379 0.0
C1788 C 0.56861 0.20966 0.58086 0.0
C1789 C 0.57416 0.23518 0.58925 0.0
C1790 C 0.60982 0.20474 0.53649 0.0
C1791 C 0.55076 0.19374 0.59101 0.0
C1792 C 0.55631 0.13335 0.52915 0.0
C1793 C 0.56835 0.1206 0.54164 0.0
C1794 C 0.56002 0.1589 0.53606 0.0
C1795 C 0.57588 0.17204 0.55623 0.0
C1796 C 0.5878 0.15916 0.56912 0.0
C1797 C 0.58405 0.13373 0.56156 0.0
C1798 C 0.54719 0.17188 0.52154 0.0
C1799 C 0.6046 0.17227 0.59095 0.0
H1800 H 0.61589 0.25206 0.55765 0.0
H1801 H 0.56547 0.24292 0.60272 0.0
H1802 H 0.61939 0.19358 0.54456 0.0
H1803 H 0.59853 0.19256 0.52065 0.0
H1804 H 0.62117 0.21937 0.53 0.0
H1805 H 0.54248 0.20463 0.60322 0.0
H1806 H 0.53845 0.18151 0.57606 0.0
H1807 H 0.55769 0.18192 0.60137 0.0
H1808 H 0.54425 0.12342 0.51364 0.0
H1809 H 0.59334 0.12408 0.57146 0.0
H1810 H 0.55845 0.18565 0.51398 0.0
H1811 H 0.53808 0.18184 0.53347 0.0
H1812 H 0.53548 0.15909 0.50635 0.0
H1813 H 0.61779 0.18584 0.58554 0.0
H1814 H 0.61195 0.15954 0.59952 0.0
H1815 H 0.59709 0.18244 0.6047 0.0
C1816 C 0.59278 0.75689 0.38721 0.0
C1817 C 0.57373 0.76181 0.37718 0.0
C1818 C 0.6109 0.75828 0.37483 0.0
C1819 C 0.61014 0.76494 0.35185 0.0
C1820 C 0.59086 0.76961 0.34141 0.0
C1821 C 0.57286 0.76789 0.35415 0.0
C1822 C 0.63101 0.75296 0.38658 0.0
C1823 C 0.58942 0.77689 0.31701 0.0
C1824 C 0.66472 0.79271 0.33297 0.0
C1825 C 0.66809 0.77288 0.31699 0.0
C1826 C 0.6458 0.79048 0.34405 0.0
C1827 C 0.62981 0.7678 0.33922 0.0
C1828 C 0.63307 0.7477 0.32306 0.0
C1829 C 0.6521 0.75051 0.31208 0.0
C1830 C 0.64295 0.81242 0.36102 0.0
C1831 C 0.61658 0.72314 0.31761 0.0
H1832 H 0.59364 0.75203 0.40492 0.0
H1833 H 0.55826 0.77177 0.34626 0.0
H1834 H 0.63559 0.73846 0.3742 0.0
H1835 H 0.64486 0.76955 0.39001 0.0
H1836 H 0.62868 0.74702 0.40405 0.0
H1837 H 0.5731 0.77916 0.31103 0.0
H1838 H 0.60176 0.79436 0.31786 0.0
H1839 H 0.59308 0.76291 0.30311 0.0
H1840 H 0.67678 0.81018 0.33655 0.0
H1841 H 0.65463 0.73504 0.2999 0.0
H1842 H 0.64192 0.80842 0.37946 0.0
H1843 H 0.6275 0.81651 0.35476 0.0
H1844 H 0.65656 0.82895 0.36231 0.0
H1845 H 0.61478 0.71603 0.33457 0.0
H1846 H 0.62123 0.70951 0.30419 0.0
H1847 H 0.60042 0.72503 0.31047 0.0
C1848 C 0.1219 0.2805 0.41882 0.0
C1849 C 0.12359 0.30351 0.43314 0.0
C1850 C 0.11723 0.25926 0.42861 0.0
C1851 C 0.11413 0.2611 0.45325 0.0
C1852 C 0.11628 0.28432 0.46791 0.0
C1853 C 0.12102 0.30522 0.4577 0.0
C1854 C 0.11516 0.23482 0.41246 0.0
C1855 C 0.11308 0.28705 0.49427 0.0
C1856 C 0.07979 0.20703 0.47432 0.0
C1857 C 0.0957 0.19864 0.48662 0.0
C1858 C 0.08559 0.22696 0.46285 0.0
C1859 C 0.10785 0.23875 0.46364 0.0
C1860 C 0.12401 0.22994 0.47545 0.0
C1861 C 0.11774 0.21002 0.48686 0.0
C1862 C 0.06786 0.23587 0.45054 0.0
C1863 C 0.14791 0.2419 0.47651 0.0
H1864 H 0.12389 0.279 0.39985 0.0
H1865 H 0.12233 0.32289 0.46894 0.0
H1866 H 0.1261 0.22515 0.42074 0.0
H1867 H 0.09829 0.22321 0.41062 0.0
H1868 H 0.11915 0.23662 0.39405 0.0
H1869 H 0.11599 0.30647 0.50338 0.0
H1870 H 0.09624 0.27716 0.49571 0.0
H1871 H 0.12427 0.27877 0.50419 0.0
H1872 H 0.06273 0.19848 0.47429 0.0
H1873 H 0.13011 0.20338 0.49605 0.0
H1874 H 0.07033 0.23672 0.43152 0.0
H1875 H 0.06858 0.25466 0.45999 0.0
H1876 H 0.05138 0.22395 0.45047 0.0
H1877 H 0.15186 0.24283 0.45796 0.0
H1878 H 0.15843 0.23196 0.48514 0.0
H1879 H 0.15191 0.26093 0.48699 0.0
C1880 C 0.57653 0.2363 0.1613 0.0
C1881 C 0.55777 0.23765 0.17172 0.0
C1882 C 0.59659 0.24037 0.17584 0.0
C1883 C 0.59784 0.2455 0.20142 0.0
C1884 C 0.57899 0.24707 0.21207 0.0
C1885 C 0.55917 0.24331 0.19706 0.0
C1886 C 0.61642 0.23888 0.1638 0.0
C1887 C 0.57966 0.25213 0.23928 0.0
C1888 C 0.64548 0.22958 0.23381 0.0
C1889 C 0.66085 0.25239 0.24037 0.0
C1890 C 0.62447 0.22731 0.22231 0.0
C1891 C 0.61879 0.24828 0.21683 0.0
C1892 C 0.63385 0.27149 0.22429 0.0
C1893 C 0.65465 0.2733 0.23616 0.0
C1894 C 0.60873 0.20226 0.21492 0.0
C1895 C 0.62839 0.29425 0.21864 0.0
H1896 H 0.57557 0.23213 0.14172 0.0
H1897 H 0.54467 0.24427 0.20519 0.0
H1898 H 0.62959 0.25595 0.17046 0.0
H1899 H 0.62266 0.22364 0.16861 0.0
H1900 H 0.6129 0.23591 0.14372 0.0
H1901 H 0.56375 0.25368 0.24469 0.0
H1902 H 0.58429 0.23719 0.24682 0.0
H1903 H 0.59221 0.2693 0.24766 0.0
H1904 H 0.65012 0.21325 0.23664 0.0
H1905 H 0.66626 0.29106 0.2416 0.0
H1906 H 0.6061 0.19649 0.19487 0.0
H1907 H 0.5927 0.20268 0.22062 0.0
H1908 H 0.61476 0.18831 0.22289 0.0
H1909 H 0.62647 0.29316 0.19872 0.0
H1910 H 0.6412 0.31112 0.22742 0.0
H1911 H 0.61271 0.29573 0.22468 0.0
C1912 C 0.61324 0.92284 0.95696 0.0
C1913 C 0.6167 0.90187 0.96439 0.0
C1914 C 0.606 0.94004 0.9724 0.0
C1915 C 0.60209 0.93618 0.99583 0.0
C1916 C 0.60639 0.91559 1.00383 0.0
C1917 C 0.61367 0.89865 0.988 0.0
C1918 C 0.60155 0.96174 0.96318 0.0
C1919 C 0.60253 0.91098 0.02875 0.0
C1920 C 0.59739 0.99225 0.03883 0.0
C1921 C 0.57481 0.98907 0.03582 0.0
C1922 C 0.60649 0.97456 0.0268 0.0
C1923 C 0.59267 0.95331 0.01142 0.0
C1924 C 0.56981 0.94944 0.00941 0.0
C1925 C 0.56114 0.96732 0.02187 0.0
C1926 C 0.63091 0.9791 0.02961 0.0
C1927 C 0.55452 0.9271 0.99304 0.0
H1928 H 0.61557 0.92551 0.93877 0.0
H1929 H 0.61634 0.88252 0.99392 0.0
H1930 H 0.58376 0.95958 0.96045 0.0
H1931 H 0.60901 0.97886 0.97668 0.0
H1932 H 0.60775 0.96359 0.94573 0.0
H1933 H 0.60831 0.89521 0.03293 0.0
H1934 H 0.61089 0.9274 0.04283 0.0
H1935 H 0.58488 0.90726 0.02998 0.0
H1936 H 0.60801 1.00905 0.04973 0.0
H1937 H 0.54366 0.96477 0.01986 0.0
H1938 H 0.63655 0.98023 0.01181 0.0
H1939 H 0.63576 0.96361 0.03578 0.0
H1940 H 0.63934 0.9962 0.0428 0.0
H1941 H 0.5563 0.92785 0.97383 0.0
H1942 H 0.53724 0.92571 0.9953 0.0
H1943 H 0.55864 0.91028 0.99673 0.0
C1944 C 0.93552 0.73452 0.70353 0.0
C1945 C 0.93124 0.73346 0.6785 0.0
C1946 C 0.91957 0.73671 0.71846 0.0
C1947 C 0.89909 0.73841 0.70811 0.0
C1948 C 0.89412 0.73531 0.6826 0.0
C1949 C 0.91025 0.73266 0.66805 0.0
C1950 C 0.92526 0.73925 0.7455 0.0
C1951 C 0.87249 0.73712 0.67088 0.0
C1952 C 0.85229 0.7423 0.74382 0.0
C1953 C 0.85506 0.76767 0.74931 0.0
C1954 C 0.86707 0.73232 0.73134 0.0
C1955 C 0.88469 0.74812 0.72391 0.0
C1956 C 0.888 0.77373 0.73032 0.0
C1957 C 0.87326 0.78316 0.74308 0.0
C1958 C 0.86333 0.70494 0.72531 0.0
C1959 C 0.90659 0.79127 0.72273 0.0
H1960 H 0.95164 0.73466 0.71163 0.0
H1961 H 0.90681 0.73167 0.64868 0.0
H1962 H 0.92875 0.75876 0.75445 0.0
H1963 H 0.91145 0.72893 0.75314 0.0
H1964 H 0.93983 0.73268 0.75006 0.0
H1965 H 0.87012 0.73111 0.65083 0.0
H1966 H 0.85891 0.72592 0.67812 0.0
H1967 H 0.87159 0.75638 0.67518 0.0
H1968 H 0.83831 0.7302 0.74869 0.0
H1969 H 0.87563 0.80278 0.74732 0.0
H1970 H 0.8788 0.69982 0.72898 0.0
H1971 H 0.85712 0.69814 0.70571 0.0
H1972 H 0.85132 0.69556 0.73583 0.0
H1973 H 0.92233 0.78809 0.72943 0.0
H1974 H 0.90713 0.81069 0.72971 0.0
H1975 H 0.90497 0.78812 0.70263 0.0
C1976 C 0.12507 0.04156 0.84825 0.0
C1977 C 0.14235 0.03067 0.84384 0.0
C1978 C 0.11505 0.04136 0.86977 0.0
C1979 C 0.12231 0.03043 0.8887 0.0
C1980 C 0.13978 0.01934 0.88451 0.0
C1981 C 0.14929 0.01936 0.8624 0.0
C1982 C 0.09629 0.05282 0.87207 0.0
C1983 C 0.14853 1.0071 0.90332 0.0
C1984 C 0.10553 0.05037 0.95305 0.0
C1985 C 0.08791 0.03072 0.95466 0.0
C1986 C 0.11716 0.05017 0.93251 0.0
C1987 C 0.11109 0.03018 0.91209 0.0
C1988 C 0.09335 1.01036 0.91375 0.0
C1989 C 0.08241 0.01075 0.93469 0.0
C1990 C 0.13627 0.07147 0.93277 0.0
C1991 C 0.08562 0.98858 0.89307 0.0
H1992 H 0.11908 0.05038 0.83455 0.0
H1993 H 0.16251 0.01086 0.85994 0.0
H1994 H 0.08177 0.03914 0.87497 0.0
H1995 H 0.10044 0.06804 0.88812 0.0
H1996 H 0.09196 0.06002 0.85576 0.0
H1997 H 0.1656 1.00663 0.90175 0.0
H1998 H 0.14782 0.01643 0.92198 0.0
H1999 H 0.1385 0.98798 0.90055 0.0
H2000 H 0.11047 0.06591 0.96807 0.0
H2001 H 0.06906 0.99524 0.93517 0.0
H2002 H 0.13287 0.0809 0.91785 0.0
H2003 H 0.15085 0.0648 0.92958 0.0
H2004 H 0.14005 0.08491 0.95023 0.0
H2005 H 0.08114 0.99461 0.87608 0.0
H2006 H 0.07134 0.97486 0.89646 0.0
H2007 H 0.09896 0.97966 0.89012 0.0
C2008 C 0.80137 0.40382 0.56813 0.0
C2009 C 0.78682 0.40053 0.54687 0.0
C2010 C 0.79845 0.38676 0.58322 0.0
C2011 C 0.78039 0.36598 0.57705 0.0
C2012 C 0.76496 0.36318 0.55636 0.0
C2013 C 0.76842 0.38047 0.54138 0.0
C2014 C 0.81531 0.39042 0.60516 0.0
C2015 C 0.7453 0.34147 0.54953 0.0
C2016 C 0.79289 0.31296 0.6013 0.0
C2017 C 0.78521 0.31577 0.62372 0.0
C2018 C 0.79007 0.32818 0.58506 0.0
C2019 C 0.77902 0.3464 0.59128 0.0
C2020 C 0.76956 0.34791 0.61289 0.0
C2021 C 0.7729 0.33266 0.62898 0.0
C2022 C 0.80036 0.32594 0.56213 0.0
C2023 C 0.75729 0.36678 0.61992 0.0
H2024 H 0.81555 0.41936 0.57263 0.0
H2025 H 0.757 0.37792 0.52508 0.0
H2026 H 0.80741 0.38965 0.62172 0.0
H2027 H 0.82361 0.3755 0.60289 0.0
H2028 H 0.82781 0.40816 0.60805 0.0
H2029 H 0.73338 0.3437 0.53499 0.0
H2030 H 0.75052 0.32475 0.54301 0.0
H2031 H 0.73708 0.33855 0.56558 0.0
H2032 H 0.80191 0.29949 0.59686 0.0
H2033 H 0.76691 0.335 0.64629 0.0
H2034 H 0.81434 0.34212 0.56362 0.0
H2035 H 0.78858 0.32557 0.54623 0.0
H2036 H 0.80633 0.30925 0.55872 0.0
H2037 H 0.76903 0.38492 0.62663 0.0
H2038 H 0.74741 0.36245 0.63448 0.0
H2039 H 0.7464 0.36822 0.60401 0.0
C2040 C 0.50447 0.07398 0.3605 0.0
C2041 C 0.48432 0.07713 0.36607 0.0
C2042 C 0.52045 0.07253 0.37862 0.0
C2043 C 0.51621 0.07446 0.40287 0.0
C2044 C 0.49646 0.0792 0.40886 0.0
C2045 C 0.48071 0.08043 0.39036 0.0
C2046 C 0.54128 0.06738 0.37154 0.0
C2047 C 0.4915 0.08163 0.43461 0.0
C2048 C 0.54038 0.03866 0.44326 0.0
C2049 C 0.55709 0.05697 0.45836 0.0
C2050 C 0.52738 0.04409 0.42469 0.0
C2051 C 0.5311 0.0685 0.42136 0.0
C2052 C 0.5484 0.08699 0.43616 0.0
C2053 C 0.56135 0.08094 0.45449 0.0
C2054 C 0.5092 0.0238 0.4092 0.0
C2055 C 0.55265 0.11323 0.43329 0.0
H2056 H 0.50745 0.07156 0.34181 0.0
H2057 H 0.46527 0.08315 0.39485 0.0
H2058 H 0.55557 0.07996 0.38385 0.0
H2059 H 0.54137 0.04849 0.37332 0.0
H2060 H 0.54318 0.06919 0.35256 0.0
H2061 H 0.47602 0.08681 0.43653 0.0
H2062 H 0.49032 0.06402 0.44055 0.0
H2063 H 0.5049 0.09554 0.44705 0.0
H2064 H 0.53715 0.02012 0.44635 0.0
H2065 H 0.57416 0.09511 0.46642 0.0
H2066 H 0.51046 0.02325 0.38969 0.0
H2067 H 0.49328 0.02728 0.41234 0.0
H2068 H 0.50935 1.00561 0.41324 0.0
H2069 H 0.5539 0.11447 0.41408 0.0
H2070 H 0.5678 0.12499 0.44484 0.0
H2071 H 0.53882 0.12055 0.43834 0.0
C2072 C 0.79236 0.71822 0.08018 0.0
C2073 C 0.79196 0.73446 0.06428 0.0
C2074 C 0.79455 0.72621 0.10547 0.0
C2075 C 0.79651 0.75112 0.1153 0.0
C2076 C 0.79627 0.76765 0.09939 0.0
C2077 C 0.79396 0.75913 0.07413 0.0
C2078 C 0.79465 0.70792 0.1217 0.0
C2079 C 0.79841 0.79435 0.10907 0.0
C2080 C 0.78211 0.7671 0.17899 0.0
C2081 C 0.80265 0.77481 0.19338 0.0
C2082 C 0.7799 0.75953 0.15362 0.0
C2083 C 0.79867 0.75977 0.14219 0.0
C2084 C 0.81946 0.76782 0.15655 0.0
C2085 C 0.8212 0.77515 0.18189 0.0
C2086 C 0.75741 0.75098 0.13907 0.0
C2087 C 0.83992 0.7685 0.14515 0.0
H2088 H 0.7908 0.69911 0.07286 0.0
H2089 H 0.79371 0.77187 0.06209 0.0
H2090 H 0.81 0.71361 0.13465 0.0
H2091 H 0.78108 0.70731 0.13258 0.0
H2092 H 0.79301 0.68923 0.11127 0.0
H2093 H 0.79821 0.80493 0.09438 0.0
H2094 H 0.7849 0.79635 0.11946 0.0
H2095 H 0.81382 0.80246 0.12176 0.0
H2096 H 0.76763 0.76666 0.18756 0.0
H2097 H 0.83718 0.78113 0.1927 0.0
H2098 H 0.75442 0.73172 0.1295 0.0
H2099 H 0.75612 0.76207 0.12501 0.0
H2100 H 0.74447 0.75224 0.15059 0.0
H2101 H 0.83967 0.74984 0.13579 0.0
H2102 H 0.85488 0.77578 0.15872 0.0
H2103 H 0.84072 0.78004 0.13124 0.0
C2104 C 0.12029 0.03733 0.70668 0.0
C2105 C 0.1392 0.02906 0.71063 0.0
C2106 C 0.11057 0.0382 0.68315 0.0
C2107 C 0.1199 0.03117 0.66212 0.0
C2108 C 0.13891 0.02254 0.66584 0.0
C2109 C 0.14811 0.02139 0.6897 0.0
C2110 C 0.09025 0.04707 0.6809 0.0
C2111 C 0.14996 0.01509 0.64455 0.0
C2112 C 0.08425 0.01693 0.5982 0.0
C2113 C 0.08976 0.03921 0.59001 0.0
C2114 C 0.09388 0.01399 0.62108 0.0
C2115 C 0.11003 0.03355 0.6367 0.0
C2116 C 0.1159 0.05593 0.62831 0.0
C2117 C 0.10573 0.0585 0.60557 0.0
C2118 C 0.0864 0.98987 0.62877 0.0
C2119 C 0.13305 0.07743 0.64351 0.0
H2120 H 0.11293 0.04337 0.72226 0.0
H2121 H 0.16277 0.01525 0.692 0.0
H2122 H 0.09361 0.06425 0.67387 0.0
H2123 H 0.07726 0.0334 0.66769 0.0
H2124 H 0.08409 0.0505 0.69851 0.0
H2125 H 0.16418 1.00826 0.64995 0.0
H2126 H 0.13828 1.00062 0.63069 0.0
H2127 H 0.15555 0.03096 0.63588 0.0
H2128 H 0.07201 1.00171 0.58682 0.0
H2129 H 0.1105 0.07584 0.59989 0.0
H2130 H 0.07939 0.99264 0.6459 0.0
H2131 H 0.10046 0.98224 0.63243 0.0
H2132 H 0.07398 0.97628 0.6148 0.0
H2133 H 0.12739 0.08363 0.66083 0.0
H2134 H 0.13695 0.09305 0.63411 0.0
H2135 H 0.14818 0.07193 0.64812 0.0
C2136 C 0.81212 0.39762 0.43633 0.0
C2137 C 0.83101 0.40436 0.45345 0.0
C2138 C 0.81024 0.3806 0.41479 0.0
C2139 C 0.82776 0.37028 0.41013 0.0
C2140 C 0.84694 0.37714 0.42723 0.0
C2141 C 0.8483 0.39402 0.44877 0.0
C2142 C 0.78944 0.37359 0.39704 0.0
C2143 C 0.86605 0.36675 0.42269 0.0
C2144 C 0.81334 0.31101 0.3634 0.0
C2145 C 0.81785 0.31963 0.34223 0.0
C2146 C 0.81718 0.32723 0.38588 0.0
C2147 C 0.82597 0.35254 0.38714 0.0
C2148 C 0.83165 0.36111 0.366 0.0
C2149 C 0.82737 0.34455 0.34376 0.0
C2150 C 0.81081 0.31745 0.40802 0.0
C2151 C 0.84133 0.3879 0.36665 0.0
H2152 H 0.79866 0.40544 0.43989 0.0
H2153 H 0.86298 0.39921 0.46189 0.0
H2154 H 0.79297 0.3783 0.37935 0.0
H2155 H 0.78226 0.35355 0.39374 0.0
H2156 H 0.77719 0.38292 0.40362 0.0
H2157 H 0.87983 0.37404 0.43779 0.0
H2158 H 0.86099 0.34656 0.42025 0.0
H2159 H 0.87186 0.37108 0.40568 0.0
H2160 H 0.80595 0.29174 0.36225 0.0
H2161 H 0.83088 0.35126 0.3274 0.0
H2162 H 0.79715 0.32445 0.41424 0.0
H2163 H 0.82458 0.32393 0.42312 0.0
H2164 H 0.80568 0.29717 0.40437 0.0
H2165 H 0.82904 0.39817 0.37062 0.0
H2166 H 0.84681 0.39122 0.34918 0.0
H2167 H 0.85539 0.39543 0.38135 0.0
C2168 C 0.45127 0.07593 0.24959 0.0
C2169 C 0.44492 0.09543 0.26268 0.0
C2170 C 0.46161 0.07849 0.22911 0.0
C2171 C 0.4657 0.10111 0.22144 0.0
C2172 C 0.45879 0.12069 0.23409 0.0
C2173 C 0.44849 0.11763 0.25463 0.0
C2174 C 0.4687 0.05714 0.2161 0.0
C2175 C 0.4628 0.14503 0.22633 0.0
C2176 C 0.51334 0.11071 0.18626 0.0
C2177 C 0.50288 0.10276 0.16221 0.0
C2178 C 0.50137 0.11163 0.20571 0.0
C2179 C 0.47836 0.10439 0.20101 0.0
C2180 C 0.46769 0.09766 0.17675 0.0
C2181 C 0.48009 0.09689 0.15761 0.0
C2182 C 0.51338 0.1189 0.23131 0.0
C2183 C 0.44318 0.09005 0.17102 0.0
H2184 H 0.4485 0.05866 0.25557 0.0
H2185 H 0.44356 0.13277 0.26459 0.0
H2186 H 0.4619 0.05277 0.19656 0.0
H2187 H 0.48669 0.06199 0.21735 0.0
H2188 H 0.46347 0.04049 0.22377 0.0
H2189 H 0.45483 0.15771 0.23681 0.0
H2190 H 0.48054 0.15373 0.22893 0.0
H2191 H 0.45672 0.14244 0.20674 0.0
H2192 H 0.53094 0.11505 0.18997 0.0
H2193 H 0.47194 0.09112 0.13903 0.0
H2194 H 0.51078 0.1027 0.23995 0.0
H2195 H 0.50698 0.13275 0.24235 0.0
H2196 H 0.53115 0.12642 0.23188 0.0
H2197 H 0.43686 0.07213 0.17608 0.0
H2198 H 0.43745 0.08833 0.15144 0.0
H2199 H 0.43609 0.10342 0.18178 0.0
C2200 C 0.76572 0.72005 0.91209 0.0
C2201 C 0.78176 0.71947 0.93068 0.0
C2202 C 0.77096 0.73292 0.89346 0.0
C2203 C 0.79286 0.74539 0.89308 0.0
C2204 C 0.80917 0.74478 0.91171 0.0
C2205 C 0.80342 0.73201 0.93034 0.0
C2206 C 0.75298 0.73327 0.87422 0.0
C2207 C 0.83275 0.75749 0.91186 0.0
C2208 C 0.80824 0.76139 0.83287 0.0
C2209 C 0.8087 0.78623 0.83637 0.0
C2210 C 0.80344 0.74796 0.85123 0.0
C2211 C 0.79858 0.7595 0.87352 0.0
C2212 C 0.79884 0.78456 0.87698 0.0
C2213 C 0.80402 0.7976 0.85848 0.0
C2214 C 0.80344 0.72138 0.84668 0.0
C2215 C 0.79343 0.79757 0.90018 0.0
H2216 H 0.74893 0.71048 0.91211 0.0
H2217 H 0.81599 0.73155 0.94444 0.0
H2218 H 0.75256 0.7524 0.87401 0.0
H2219 H 0.75614 0.72532 0.85604 0.0
H2220 H 0.73675 0.72289 0.87717 0.0
H2221 H 0.84355 0.75489 0.92726 0.0
H2222 H 0.83815 0.75042 0.89464 0.0
H2223 H 0.83472 0.77735 0.91304 0.0
H2224 H 0.81176 0.75245 0.8158 0.0
H2225 H 0.80418 0.81676 0.86125 0.0
H2226 H 0.78672 0.70991 0.84622 0.0
H2227 H 0.81398 0.71772 0.86163 0.0
H2228 H 0.8092 0.71567 0.82924 0.0
H2229 H 0.77683 0.78828 0.90307 0.0
H2230 H 0.79418 0.81703 0.89999 0.0
H2231 H 0.8049 0.7968 0.91587 0.0
C2232 C 0.86826 0.09255 0.02925 0.0
C2233 C 0.85034 0.08744 0.04168 0.0
C2234 C 0.88174 0.07674 0.02627 0.0
C2235 C 0.87744 0.05547 0.03634 0.0
C2236 C 0.85971 0.05046 0.04946 0.0
C2237 C 0.8462 0.06644 0.0518 0.0
C2238 C 0.90041 0.08264 0.01195 0.0
C2239 C 0.85495 0.02821 0.06083 0.0
C2240 C 0.90287 1.0086 1.00445 0.0
C2241 C 0.92361 0.01533 0.01826 0.0
C2242 C 0.88681 0.02016 0.01122 0.0
C2243 C 0.89154 0.03854 0.03253 0.0
C2244 C 0.91154 0.04345 0.04793 0.0
C2245 C 0.92743 0.03192 0.04052 0.0
C2246 C 0.86566 0.01439 0.9943 0.0
C2247 C 0.91699 0.06257 0.07107 0.0
H2248 H 0.8715 0.10868 0.0213 0.0
H2249 H 0.83241 0.0625 0.06155 0.0
H2250 H 0.91604 0.08453 0.02344 0.0
H2251 H 0.8986 0.0675 0.99621 0.0
H2252 H 0.90137 0.09981 1.00512 0.0
H2253 H 0.84124 0.02763 0.07153 0.0
H2254 H 0.85087 0.0114 0.0465 0.0
H2255 H 0.8696 0.02792 0.07291 0.0
H2256 H 0.89959 0.99531 0.98756 0.0
H2257 H 0.94339 0.03738 0.05136 0.0
H2258 H 0.86575 0.0296 0.98456 0.0
H2259 H 0.85166 0.01265 1.00458 0.0
H2260 H 0.86315 0.99727 0.98063 0.0
H2261 H 0.92103 0.08101 0.06658 0.0
H2262 H 0.93114 0.06091 0.08306 0.0
H2263 H 0.90289 0.06116 0.08119 0.0
C2264 C 0.40323 0.46615 0.0503 0.0
C2265 C 0.40088 0.44236 0.05445 0.0
C2266 C 0.42378 0.4812 0.04881 0.0
C2267 C 0.44259 0.47244 0.0518 0.0
C2268 C 0.44039 0.44864 0.05654 0.0
C2269 C 0.41963 0.4339 0.05769 0.0
C2270 C 0.42531 0.50634 0.0435 0.0
C2271 C 0.45996 0.43857 0.05999 0.0
C2272 C 0.4918 0.50175 0.02389 0.0
C2273 C 0.50481 0.51873 0.04382 0.0
C2274 C 0.47172 0.4864 0.0263 0.0
C2275 C 0.46442 0.48792 0.04926 0.0
C2276 C 0.47778 0.50463 0.06959 0.0
C2277 C 0.49774 0.51991 0.0666 0.0
C2278 C 0.45808 0.46894 1.00411 0.0
C2279 C 0.47086 0.50655 0.09446 0.0
H2280 H 0.38891 0.47287 0.04767 0.0
H2281 H 0.41809 0.41559 0.06096 0.0
H2282 H 0.43672 0.52038 0.058 0.0
H2283 H 0.43192 0.5077 0.02621 0.0
H2284 H 0.40928 0.51066 0.04207 0.0
H2285 H 0.45579 0.42046 0.06525 0.0
H2286 H 0.46712 0.43663 0.04289 0.0
H2287 H 0.47269 0.4514 0.07415 0.0
H2288 H 0.49705 0.50087 1.00619 0.0
H2289 H 0.50777 0.53293 0.08209 0.0
H2290 H 0.44226 0.47336 1.00058 0.0
H2291 H 0.45452 0.44997 1.00723 0.0
H2292 H 0.46623 0.46966 0.98767 0.0
H2293 H 0.45562 0.51253 0.09425 0.0
H2294 H 0.48346 0.51968 0.10859 0.0
H2295 H 0.46739 0.48838 0.09959 0.0
C2296 C 0.39515 0.64661 0.73575 0.0
C2297 C 0.39899 0.63316 0.75388 0.0
C2298 C 0.38425 0.66571 0.73895 0.0
C2299 C 0.37647 0.67279 0.76112 0.0
C2300 C 0.38016 0.65936 0.77964 0.0
C2301 C 0.3911 0.64003 0.77588 0.0
C2302 C 0.38105 0.67848 0.71819 0.0
C2303 C 0.3726 0.66558 0.80376 0.0
C2304 C 0.36495 0.73816 0.77406 0.0
C2305 C 0.34216 0.73359 0.76754 0.0
C2306 C 0.376 0.71901 0.77269 0.0
C2307 C 0.3645 0.69381 0.76444 0.0
C2308 C 0.34149 0.68912 0.75796 0.0
C2309 C 0.33085 0.70859 0.7596 0.0
C2310 C 0.40032 0.72591 0.77995 0.0
C2311 C 0.32791 0.66322 0.74879 0.0
H2312 H 0.40077 0.64218 0.7185 0.0
H2313 H 0.39366 0.63048 0.7904 0.0
H2314 H 0.36347 0.67661 0.71297 0.0
H2315 H 0.38913 0.69829 0.72393 0.0
H2316 H 0.38769 0.67107 0.70196 0.0
H2317 H 0.37651 0.654 0.81649 0.0
H2318 H 0.38036 0.68504 0.81217 0.0
H2319 H 0.35476 0.66326 0.80107 0.0
H2320 H 0.37439 0.75697 0.78021 0.0
H2321 H 0.3134 0.70406 0.75429 0.0
H2322 H 0.40824 0.72039 0.76409 0.0
H2323 H 0.40461 0.71597 0.79411 0.0
H2324 H 0.40706 0.74585 0.78699 0.0
H2325 H 0.33301 0.65536 0.73168 0.0
H2326 H 0.31026 0.66204 0.74533 0.0
H2327 H 0.33055 0.65179 0.76216 0.0
C2328 C 0.23267 0.59579 0.52385 0.0
C2329 C 0.24383 0.61345 0.51203 0.0
C2330 C 0.20989 0.58927 0.52127 0.0
C2331 C 0.19804 0.60076 0.50662 0.0
C2332 C 0.20914 0.61777 0.49377 0.0
C2333 C 0.23194 0.62389 0.4966 0.0
C2334 C 0.19857 0.57085 0.53509 0.0
C2335 C 0.19701 0.63033 0.47793 0.0
C2336 C 0.13732 0.57158 0.4918 0.0
C2337 C 0.12955 0.58507 0.51044 0.0
C2338 C 0.15953 0.57705 0.48965 0.0
C2339 C 0.17423 0.59648 0.50654 0.0
C2340 C 0.16634 0.61088 0.52466 0.0
C2341 C 0.14408 0.60496 0.52642 0.0
C2342 C 0.16734 0.56135 0.47004 0.0
C2343 C 0.18153 0.63186 0.54292 0.0
H2344 H 0.24173 0.58748 0.53563 0.0
H2345 H 0.24045 0.63747 0.4873 0.0
H2346 H 0.19066 0.57999 0.54917 0.0
H2347 H 0.18559 0.55634 0.5227 0.0
H2348 H 0.20998 0.56215 0.5441 0.0
H2349 H 0.20782 0.64112 0.46723 0.0
H2350 H 0.18357 0.61673 0.46525 0.0
H2351 H 0.18961 0.64282 0.48945 0.0
H2352 H 0.12625 0.55599 0.47953 0.0
H2353 H 0.13816 0.61553 0.54078 0.0
H2354 H 0.17745 0.55088 0.47842 0.0
H2355 H 0.17774 0.57294 0.45965 0.0
H2356 H 0.15365 0.54822 0.4572 0.0
H2357 H 0.19246 0.62476 0.5546 0.0
H2358 H 0.17263 0.6423 0.55473 0.0
H2359 H 0.19194 0.64456 0.53349 0.0
C2360 C 0.75987 1.00683 0.70722 0.0
C2361 C 0.73943 0.99252 0.70978 0.0
C2362 C 0.77879 0.9992 0.71223 0.0
C2363 C 0.77712 0.97677 0.71992 0.0
C2364 C 0.75637 0.96146 0.72076 0.0
C2365 C 0.73778 0.96955 0.7157 0.0
C2366 C 0.80061 0.01583 0.71082 0.0
C2367 C 0.75387 0.93719 0.72851 0.0
C2368 C 0.82076 0.94333 0.72563 0.0
C2369 C 0.82571 0.94722 0.75096 0.0
C2370 C 0.80622 0.95452 0.71483 0.0
C2371 C 0.7968 0.97026 0.72979 0.0
C2372 C 0.80388 0.97659 0.75513 0.0
C2373 C 0.81826 0.96494 0.76543 0.0
C2374 C 0.79933 0.94752 0.68771 0.0
C2375 C 0.7946 0.99375 0.77168 0.0
H2376 H 0.76127 0.02457 0.7025 0.0
H2377 H 0.72201 0.95825 0.71739 0.0
H2378 H 0.80887 0.02492 0.72944 0.0
H2379 H 0.81124 1.00527 0.70225 0.0
H2380 H 0.79896 0.0302 0.70043 0.0
H2381 H 0.73657 0.92659 0.72618 0.0
H2382 H 0.76296 0.92601 0.71788 0.0
H2383 H 0.7608 0.94029 0.74792 0.0
H2384 H 0.8268 0.93004 0.71428 0.0
H2385 H 0.82257 0.96853 0.78499 0.0
H2386 H 0.79711 0.96345 0.68011 0.0
H2387 H 0.7835 0.93345 0.68366 0.0
H2388 H 0.81135 0.93978 0.67834 0.0
H2389 H 0.79446 1.01036 0.76426 0.0
H2390 H 0.80395 0.99938 0.79027 0.0
H2391 H 0.77752 0.98455 0.77298 0.0
C2392 C 0.75383 0.9213 0.52423 0.0
C2393 C 0.7745 0.93269 0.53769 0.0
C2394 C 0.73684 0.93288 0.5249 0.0
C2395 C 0.74051 0.95653 0.53932 0.0
C2396 C 0.76129 0.96812 0.55306 0.0
C2397 C 0.77801 0.95607 0.55212 0.0
C2398 C 0.71496 0.9198 0.51002 0.0
C2399 C 0.76589 0.99336 0.56862 0.0
C2400 C 0.703 0.99529 0.52219 0.0
C2401 C 0.68834 0.9926 0.53909 0.0
C2402 C 0.72012 0.98387 0.52224 0.0
C2403 C 0.7227 0.96927 0.53955 0.0
C2404 C 0.70793 0.96639 0.55661 0.0
C2405 C 0.69096 0.97806 0.55618 0.0
C2406 C 0.73539 0.98735 0.50363 0.0
C2407 C 0.71008 0.95097 0.57536 0.0
H2408 H 0.75086 0.90323 0.51307 0.0
H2409 H 0.79388 0.96503 0.5626 0.0
H2410 H 0.70214 0.91804 0.52195 0.0
H2411 H 0.71079 0.9306 0.49664 0.0
H2412 H 0.71461 0.90127 0.50011 0.0
H2413 H 0.78275 0.99972 0.57853 0.0
H2414 H 0.76342 1.00657 0.55714 0.0
H2415 H 0.75435 0.99352 0.58203 0.0
H2416 H 0.70098 1.00617 0.50869 0.0
H2417 H 0.67994 0.97612 0.56953 0.0
H2418 H 0.73458 0.96944 0.49208 0.0
H2419 H 0.75239 0.99506 0.51284 0.0
H2420 H 0.73148 0.9997 0.49174 0.0
H2421 H 0.70885 0.93194 0.56624 0.0
H2422 H 0.69739 0.95068 0.58746 0.0
H2423 H 0.72631 0.95807 0.58666 0.0
C2424 C 0.39137 0.48202 0.78893 0.0
C2425 C 0.3958 0.49195 0.76815 0.0
C2426 C 0.37982 0.45732 0.78755 0.0
C2427 C 0.37217 0.44112 0.76475 0.0
C2428 C 0.37673 0.4508 0.74359 0.0
C2429 C 0.38829 0.47585 0.74549 0.0
C2430 C 0.37544 0.44868 0.81079 0.0
C2431 C 0.36923 0.43465 0.71879 0.0
C2432 C 0.35345 0.37108 0.76539 0.0
C2433 C 0.33073 0.36682 0.76446 0.0
C2434 C 0.36704 0.39469 0.76476 0.0
C2435 C 0.358 0.41496 0.76334 0.0
C2436 C 0.33508 0.41047 0.76217 0.0
C2437 C 0.32201 0.38688 0.76264 0.0
C2438 C 0.39121 0.39801 0.76586 0.0
C2439 C 0.32421 0.43088 0.76095 0.0
H2440 H 0.39686 0.49375 0.8067 0.0
H2441 H 0.39153 0.48274 0.72918 0.0
H2442 H 0.35764 0.4431 0.8111 0.0
H2443 H 0.38166 0.43242 0.81177 0.0
H2444 H 0.38308 0.46301 0.82718 0.0
H2445 H 0.37508 0.44407 0.70416 0.0
H2446 H 0.37512 0.41794 0.71788 0.0
H2447 H 0.3512 0.42871 0.71539 0.0
H2448 H 0.36066 0.35604 0.76668 0.0
H2449 H 0.30459 0.38427 0.76186 0.0
H2450 H 0.39976 0.41061 0.78301 0.0
H2451 H 0.39708 0.40648 0.75069 0.0
H2452 H 0.39573 0.38044 0.76494 0.0
H2453 H 0.33022 0.44535 0.77755 0.0
H2454 H 0.30621 0.42448 0.75928 0.0
H2455 H 0.32842 0.43934 0.74524 0.0
C2456 C 0.2023 0.60781 0.21441 0.0
C2457 C 0.21153 0.58819 0.21542 0.0
C2458 C 0.21518 0.632 0.22064 0.0
C2459 C 0.23782 0.63663 0.22811 0.0
C2460 C 0.24728 0.61691 0.22898 0.0
C2461 C 0.23402 0.59291 0.22258 0.0
C2462 C 0.20458 0.65261 0.21932 0.0
C2463 C 0.27137 0.62118 0.23682 0.0
C2464 C 0.27305 0.69789 0.22242 0.0
C2465 C 0.2761 0.7114 0.24623 0.0
C2466 C 0.26095 0.67342 0.21639 0.0
C2467 C 0.25163 0.66214 0.2346 0.0
C2468 C 0.25504 0.67541 0.25878 0.0
C2469 C 0.26728 0.69991 0.26433 0.0
C2470 C 0.25779 0.65979 0.19043 0.0
C2471 C 0.24534 0.66389 0.27866 0.0
H2472 H 0.18494 0.60431 0.20889 0.0
H2473 H 0.24128 0.57785 0.22349 0.0
H2474 H 0.2074 0.66483 0.23742 0.0
H2475 H 0.212 0.66378 0.20662 0.0
H2476 H 0.18677 0.64591 0.21317 0.0
H2477 H 0.27617 0.60384 0.23654 0.0
H2478 H 0.28074 0.63155 0.22472 0.0
H2479 H 0.27611 0.6324 0.25547 0.0
H2480 H 0.27991 0.7065 0.20829 0.0
H2481 H 0.26953 0.71018 0.28276 0.0
H2482 H 0.24025 0.65423 0.18292 0.0
H2483 H 0.26331 0.64286 0.18965 0.0
H2484 H 0.26681 0.67096 0.17863 0.0
H2485 H 0.22733 0.65863 0.27447 0.0
H2486 H 0.25023 0.67638 0.2967 0.0
H2487 H 0.25047 0.64695 0.27969 0.0
C2488 C 0.52094 0.6908 0.43682 0.0
C2489 C 0.52208 0.71253 0.45321 0.0
C2490 C 0.52452 0.67002 0.44499 0.0
C2491 C 0.52913 0.67071 0.47022 0.0
C2492 C 0.52974 0.69238 0.48684 0.0
C2493 C 0.52636 0.71297 0.47818 0.0
C2494 C 0.5239 0.64748 0.42654 0.0
C2495 C 0.53432 0.69398 0.51387 0.0
C2496 C 0.52227 0.61028 0.4925 0.0
C2497 C 0.54382 0.60855 0.49636 0.0
C2498 C 0.51725 0.63036 0.48415 0.0
C2499 C 0.53411 0.64915 0.4792 0.0
C2500 C 0.55588 0.64742 0.483 0.0
C2501 C 0.56045 0.62732 0.49162 0.0
C2502 C 0.49386 0.63149 0.48067 0.0
C2503 C 0.5744 0.66679 0.4778 0.0
H2504 H 0.51777 0.69019 0.4175 0.0
H2505 H 0.52723 0.72955 0.49107 0.0
H2506 H 0.54006 0.64354 0.42816 0.0
H2507 H 0.51198 0.63143 0.4301 0.0
H2508 H 0.51948 0.64952 0.40765 0.0
H2509 H 0.53313 0.71161 0.52446 0.0
H2510 H 0.52271 0.67885 0.51932 0.0
H2511 H 0.55091 0.69194 0.51875 0.0
H2512 H 0.50926 0.59594 0.49609 0.0
H2513 H 0.57715 0.62618 0.49437 0.0
H2514 H 0.48872 0.63199 0.46148 0.0
H2515 H 0.4922 0.64852 0.49198 0.0
H2516 H 0.48265 0.61563 0.48556 0.0
H2517 H 0.57159 0.66854 0.45857 0.0
H2518 H 0.59037 0.66264 0.4813 0.0
H2519 H 0.57519 0.68476 0.48921 0.0
C2520 C 0.65149 0.29737 0.69288 0.0
C2521 C 0.65069 0.30954 0.6734 0.0
C2522 C 0.6714 0.29645 0.70517 0.0
C2523 C 0.69123 0.30768 0.69774 0.0
C2524 C 0.6906 0.3198 0.67791 0.0
C2525 C 0.67037 0.32076 0.66612 0.0
C2526 C 0.67118 0.28357 0.72635 0.0
C2527 C 0.71129 0.3317 0.66911 0.0
C2528 C 0.74128 0.32412 0.74615 0.0
C2529 C 0.74984 0.30385 0.7409 0.0
C2530 C 0.72271 0.32598 0.73181 0.0
C2531 C 0.71248 0.30727 0.71139 0.0
C2532 C 0.72163 0.28725 0.70538 0.0
C2533 C 0.74002 0.28565 0.72035 0.0
C2534 C 0.71354 0.34755 0.73911 0.0
C2535 C 0.71159 0.26711 0.68358 0.0
H2536 H 0.63646 0.28866 0.69876 0.0
H2537 H 0.66998 0.33003 0.65098 0.0
H2538 H 0.67932 0.26862 0.72285 0.0
H2539 H 0.68041 0.29656 0.74299 0.0
H2540 H 0.65442 0.27572 0.72988 0.0
H2541 H 0.70807 0.33954 0.6529 0.0
H2542 H 0.72162 0.34651 0.68375 0.0
H2543 H 0.72076 0.31816 0.66453 0.0
H2544 H 0.74878 0.33833 0.76195 0.0
H2545 H 0.74642 0.26985 0.71624 0.0
H2546 H 0.69721 0.34115 0.7444 0.0
H2547 H 0.71148 0.35663 0.72355 0.0
H2548 H 0.72407 0.36125 0.75456 0.0
H2549 H 0.69555 0.25651 0.68675 0.0
H2550 H 0.72199 0.25439 0.67975 0.0
H2551 H 0.70877 0.27493 0.66728 0.0
C2552 C 0.00934 0.3433 0.97174 0.0
C2553 C 0.01963 0.33313 0.95331 0.0
C2554 C 0.01456 0.36873 0.98055 0.0
C2555 C 0.03027 0.38457 0.97052 0.0
C2556 C 0.04108 0.37438 0.95232 0.0
C2557 C 0.03575 0.34886 0.94407 0.0
C2558 C 1.00287 0.3787 1.00023 0.0
C2559 C 0.05777 0.39051 0.94094 0.0
C2560 C 0.02549 0.4499 0.97384 0.0
C2561 C 0.04211 0.46322 0.99279 0.0
C2562 C 0.02169 0.42445 0.96628 0.0
C2563 C 0.03456 0.41177 0.97818 0.0
C2564 C 0.05131 0.4251 0.99741 0.0
C2565 C 0.05499 0.45063 1.00434 0.0
C2566 C 1.00386 0.41112 0.9455 0.0
C2567 C 0.06519 0.41235 0.01087 0.0
H2568 H 0.99694 0.33139 0.97911 0.0
H2569 H 0.04378 0.34129 0.92979 0.0
H2570 H 0.0148 0.39099 0.01549 0.0
H2571 H 0.99265 0.38971 0.99301 0.0
H2572 H 0.99227 0.36397 1.00736 0.0
H2573 H 0.06542 0.37979 0.92777 0.0
H2574 H 0.04995 0.40222 0.93135 0.0
H2575 H 0.07073 0.40284 0.95517 0.0
H2576 H 0.01551 0.45942 0.96471 0.0
H2577 H 0.06775 0.46068 0.01915 0.0
H2578 H 0.99146 0.39738 0.95177 0.0
H2579 H 0.01066 0.40113 0.93089 0.0
H2580 H 0.99568 0.42368 0.93772 0.0
H2581 H 0.05474 0.39849 0.0191 0.0
H2582 H 0.07749 0.42527 0.02545 0.0
H2583 H 0.07374 0.40253 0.99806 0.0
C2584 C 0.02202 0.82834 0.14957 0.0
C2585 C 0.04125 0.82321 0.15879 0.0
C2586 C 1.00441 0.82719 0.16274 0.0
C2587 C 1.00584 0.82058 0.18574 0.0
C2588 C 0.0253 0.81568 0.19534 0.0
C2589 C 0.0428 0.81714 0.18181 0.0
C2590 C 0.9841 0.83274 0.15183 0.0
C2591 C 0.02748 0.80846 0.21973 0.0
C2592 C 0.96543 0.83605 0.22736 0.0
C2593 C 0.94919 0.8139 0.22295 0.0
C2594 C 0.98407 0.83842 0.21567 0.0
C2595 C 0.98668 0.81811 0.19926 0.0
C2596 C 0.97046 0.79564 0.19496 0.0
C2597 C 0.95194 0.79383 0.20676 0.0
C2598 C 1.00081 0.86278 0.22059 0.0
C2599 C 0.97261 0.77347 0.17776 0.0
H2600 H 0.02063 0.83317 0.13188 0.0
H2601 H 0.05753 0.81311 0.18909 0.0
H2602 H 0.97014 0.81632 0.14893 0.0
H2603 H 0.98005 0.84744 0.1645 0.0
H2604 H 0.98585 0.83853 0.1342 0.0
H2605 H 0.04385 0.80594 0.225 0.0
H2606 H 0.0244 0.8226 0.23392 0.0
H2607 H 0.01509 0.79115 0.21931 0.0
H2608 H 0.9634 0.85171 0.23968 0.0
H2609 H 0.93971 0.77652 0.20354 0.0
H2610 H 1.00209 0.86984 0.20356 0.0
H2611 H 0.01705 0.86062 0.22702 0.0
H2612 H 0.99675 0.87658 0.23438 0.0
H2613 H 0.97305 0.77731 0.15921 0.0
H2614 H 0.95897 0.75711 0.17702 0.0
H2615 H 0.98813 0.76919 0.18338 0.0
C2616 C 0.48813 0.30189 0.10645 0.0
C2617 C 0.50468 0.28994 0.10339 0.0
C2618 C 0.48747 0.32205 0.09572 0.0
C2619 C 0.50372 0.33037 0.08158 0.0
C2620 C 0.52039 0.31832 0.07837 0.0
C2621 C 0.52068 0.29829 0.08932 0.0
C2622 C 0.46948 0.33449 0.09956 0.0
C2623 C 0.538 0.32662 0.06337 0.0
C2624 C 0.49591 0.36787 0.03403 0.0
C2625 C 0.50896 0.39108 0.04557 0.0
C2626 C 0.4931 0.34813 0.046 0.0
C2627 C 0.50354 0.35173 0.0701 0.0
C2628 C 0.51563 0.37543 0.08234 0.0
C2629 C 0.51822 0.39482 0.06991 0.0
C2630 C 0.47996 0.32316 0.03239 0.0
C2631 C 0.52693 0.38004 0.10808 0.0
H2632 H 0.4757 0.29555 0.11731 0.0
H2633 H 0.53351 0.28917 0.08682 0.0
H2634 H 0.47651 0.35395 0.10844 0.0
H2635 H 0.46021 0.33418 0.08181 0.0
H2636 H 0.458 0.32568 0.11093 0.0
H2637 H 0.54974 0.31518 0.06255 0.0
H2638 H 0.53061 0.32595 0.04459 0.0
H2639 H 0.54709 0.34585 0.0711 0.0
H2640 H 0.48841 0.36497 0.01535 0.0
H2641 H 0.52849 0.41265 0.07889 0.0
H2642 H 0.46805 0.31463 0.04344 0.0
H2643 H 0.49096 0.31112 0.02883 0.0
H2644 H 0.47106 0.3239 0.01475 0.0
H2645 H 0.51555 0.37183 0.11983 0.0
H2646 H 0.53356 0.39985 0.1159 0.0
H2647 H 0.54056 0.37124 0.10846 0.0
C2648 C 0.0429 0.33014 0.36579 0.0
C2649 C 0.06205 0.33704 0.3557 0.0
C2650 C 0.02258 0.32869 0.35301 0.0
C2651 C 0.02138 0.33429 0.32957 0.0
C2652 C 0.04054 0.34047 0.31891 0.0
C2653 C 0.06069 0.34178 0.33212 0.0
C2654 C 1.00247 0.32197 0.36497 0.0
C2655 C 0.03985 0.3465 0.29392 0.0
C2656 C 0.96492 0.3146 0.29289 0.0
C2657 C 0.95796 0.336 0.29814 0.0
C2658 C 0.9859 0.31398 0.30218 0.0
C2659 C 1.00018 0.33526 0.31706 0.0
C2660 C 0.99357 0.35717 0.32156 0.0
C2661 C 0.97254 0.35726 0.31208 0.0
C2662 C 0.99245 0.29033 0.29688 0.0
C2663 C 1.00834 0.38024 0.33738 0.0
H2664 H 0.04378 0.3263 0.38393 0.0
H2665 H 0.07542 0.34705 0.32417 0.0
H2666 H 0.99516 0.33767 0.368 0.0
H2667 H 0.99011 0.3065 0.35295 0.0
H2668 H 1.00605 0.3168 0.38269 0.0
H2669 H 0.05592 0.34897 0.28743 0.0
H2670 H 0.02772 0.3318 0.28071 0.0
H2671 H 0.03465 0.36358 0.2942 0.0
H2672 H 0.95381 0.29819 0.28187 0.0
H2673 H 0.9672 0.37376 0.31653 0.0
H2674 H 0.99436 0.28331 0.31385 0.0
H2675 H 1.00839 0.29342 0.29013 0.0
H2676 H 0.98024 0.27609 0.28326 0.0
H2677 H 0.01118 0.37751 0.35627 0.0
H2678 H 1.00137 0.39618 0.33757 0.0
H2679 H 0.0244 0.38459 0.33097 0.0
C2680 C 1.00367 0.6895 0.5948 0.0
C2681 C 1.00159 0.6863 0.6186 0.0
C2682 C 0.01008 0.6724 0.57828 0.0
C2683 C 0.0143 0.6515 0.58567 0.0
C2684 C 0.01149 0.64775 0.60939 0.0
C2685 C 1.00529 0.66527 0.62563 0.0
C2686 C 0.01293 0.67705 0.55314 0.0
C2687 C 0.0156 0.62559 0.61782 0.0
C2688 C 0.01507 0.59835 0.53607 0.0
C2689 C 0.03744 0.60174 0.53561 0.0
C2690 C 1.0073 0.61417 0.55256 0.0
C2691 C 0.02228 0.63396 0.56876 0.0
C2692 C 0.04491 0.63736 0.56842 0.0
C2693 C 0.05222 0.62117 0.5518 0.0
C2694 C 0.98308 0.60974 0.55264 0.0
C2695 C 0.06139 0.65821 0.58548 0.0
H2696 H 1.00089 0.70575 0.58923 0.0
H2697 H 1.00365 0.66263 0.64397 0.0
H2698 H 0.03014 0.67896 0.55039 0.0
H2699 H 1.00285 0.6613 0.53926 0.0
H2700 H 1.00836 0.69384 0.55 0.0
H2701 H 0.01047 0.62399 0.63582 0.0
H2702 H 1.0068 0.60879 0.60443 0.0
H2703 H 0.03322 0.62667 0.61913 0.0
H2704 H 1.00361 0.58311 0.52372 0.0
H2705 H 0.06952 0.62379 0.55134 0.0
H2706 H 0.97773 0.62574 0.54848 0.0
H2707 H 0.97909 0.60754 0.57094 0.0
H2708 H 0.97365 0.59322 0.53921 0.0
H2709 H 0.05864 0.67589 0.58254 0.0
H2710 H 0.07839 0.6582 0.58298 0.0
H2711 H 0.05939 0.65709 0.60456 0.0
C2712 C 0.68043 0.87058 0.85205 0.0
C2713 C 0.68396 0.86704 0.87593 0.0
C2714 C 0.69558 0.86797 0.83616 0.0
C2715 C 0.71453 0.86135 0.84429 0.0
C2716 C 0.71888 0.85941 0.86884 0.0
C2717 C 0.70357 0.86243 0.88443 0.0
C2718 C 0.69058 0.87066 0.81025 0.0
C2719 C 0.73892 0.85232 0.87817 0.0
C2720 C 0.73685 0.81904 0.80114 0.0
C2721 C 0.75641 0.8346 0.79787 0.0
C2722 C 0.72267 0.82783 0.8154 0.0
C2723 C 0.72806 0.85287 0.82653 0.0
C2724 C 0.74703 0.86904 0.822 0.0
C2725 C 0.76107 0.85968 0.80773 0.0
C2726 C 0.70251 0.80998 0.81964 0.0
C2727 C 0.75308 0.89593 0.83323 0.0
H2728 H 0.66542 0.87453 0.84548 0.0
H2729 H 0.70644 0.85979 0.90289 0.0
H2730 H 0.70526 0.8812 0.80416 0.0
H2731 H 0.68541 0.85232 0.7982 0.0
H2732 H 0.67734 0.87989 0.80795 0.0
H2733 H 0.7411 0.85417 0.89821 0.0
H2734 H 0.73759 0.83304 0.86977 0.0
H2735 H 0.75367 0.86377 0.87304 0.0
H2736 H 0.73299 0.79968 0.79339 0.0
H2737 H 0.77612 0.87185 0.80523 0.0
H2738 H 0.68788 0.81645 0.81525 0.0
H2739 H 0.70377 0.80872 0.83908 0.0
H2740 H 0.70007 0.79138 0.80857 0.0
H2741 H 0.73877 0.90349 0.83119 0.0
H2742 H 0.76635 0.90653 0.825 0.0
H2743 H 0.75862 0.89852 0.85295 0.0
C2744 C 0.46502 0.56555 0.67238 0.0
C2745 C 0.47571 0.56063 0.69338 0.0
C2746 C 0.47396 0.56477 0.64986 0.0
C2747 C 0.49448 0.55928 0.64765 0.0
C2748 C 0.50532 0.55466 0.66889 0.0
C2749 C 0.49595 0.5552 0.69086 0.0
C2750 C 0.46117 0.56949 0.62817 0.0
C2751 C 0.52714 0.54906 0.66852 0.0
C2752 C 0.51378 0.53665 0.5855 0.0
C2753 C 0.52802 0.55787 0.58104 0.0
C2754 C 0.50232 0.53696 0.60618 0.0
C2755 C 0.50504 0.55892 0.6238 0.0
C2756 C 0.51927 0.58036 0.6192 0.0
C2757 C 0.53022 0.5796 0.59826 0.0
C2758 C 0.48732 0.51348 0.60929 0.0
C2759 C 0.52338 0.60434 0.63683 0.0
H2760 H 0.44937 0.5695 0.6733 0.0
H2761 H 0.5048 0.55131 0.7064 0.0
H2762 H 0.47102 0.58509 0.62157 0.0
H2763 H 0.45743 0.55329 0.61313 0.0
H2764 H 0.44567 0.57355 0.63234 0.0
H2765 H 0.53382 0.54608 0.68632 0.0
H2766 H 0.52568 0.53245 0.65455 0.0
H2767 H 0.53895 0.56433 0.6635 0.0
H2768 H 0.51162 0.51957 0.57283 0.0
H2769 H 0.54095 0.59633 0.59558 0.0
H2770 H 0.47102 0.51619 0.61177 0.0
H2771 H 0.49372 0.50802 0.62585 0.0
H2772 H 0.48548 0.49835 0.5935 0.0
H2773 H 0.50775 0.60884 0.63944 0.0
H2774 H 0.53415 0.61963 0.63063 0.0
H2775 H 0.53104 0.60279 0.65478 0.0
C2776 C 0.79927 0.1983 0.01008 0.0
C2777 C 0.8032 0.17514 1.00613 0.0
C2778 C 0.80063 0.21212 0.9919 0.0
C2779 C 0.80581 0.20235 0.96918 0.0
C2780 C 0.81073 0.17944 0.96543 0.0
C2781 C 0.80949 0.16613 0.98406 0.0
C2782 C 0.79558 0.23667 0.99663 0.0
C2783 C 0.81618 0.16843 0.94136 0.0
C2784 C 0.78169 0.22387 0.91588 0.0
C2785 C 0.79963 0.2413 0.91175 0.0
C2786 C 0.78367 0.2106 0.93415 0.0
C2787 C 0.80406 0.21512 0.94875 0.0
C2788 C 0.82235 0.2324 0.94438 0.0
C2789 C 0.81993 0.24525 0.92577 0.0
C2790 C 0.76387 0.19203 0.93808 0.0
C2791 C 0.84427 0.23779 0.95976 0.0
H2792 H 0.79465 0.20546 0.02724 0.0
H2793 H 0.81259 0.14822 0.98094 0.0
H2794 H 0.80854 0.25076 0.99154 0.0
H2795 H 0.78012 0.23568 0.98526 0.0
H2796 H 0.79395 0.24267 0.01596 0.0
H2797 H 0.8216 0.15159 0.94214 0.0
H2798 H 0.80161 0.16377 0.92734 0.0
H2799 H 0.82915 0.18178 0.9354 0.0
H2800 H 0.76607 0.22061 0.90475 0.0
H2801 H 0.83377 0.25885 0.92259 0.0
H2802 H 0.75963 0.19765 0.95637 0.0
H2803 H 0.7674 0.17399 0.9373 0.0
H2804 H 0.74951 0.18989 0.92437 0.0
H2805 H 0.84318 0.24575 0.97877 0.0
H2806 H 0.8571 0.25075 0.95311 0.0
H2807 H 0.84927 0.22066 0.96003 0.0
C2808 C 0.10545 0.49729 0.17006 0.0
C2809 C 0.12593 0.49515 0.1648 0.0
C2810 C 0.0901 0.50028 0.15216 0.0
C2811 C 0.09533 0.50073 0.12847 0.0
C2812 C 0.11536 0.49674 0.12265 0.0
C2813 C 0.13052 0.49418 0.14097 0.0
C2814 C 0.06897 0.50468 0.15905 0.0
C2815 C 0.12127 0.49657 0.09742 0.0
C2816 C 0.05132 0.49827 0.07736 0.0
C2817 C 0.05566 0.52291 0.07568 0.0
C2818 C 0.06406 0.49065 0.09457 0.0
C2819 C 0.08111 0.50824 0.11063 0.0
C2820 C 0.08508 0.53326 0.10937 0.0
C2821 C 0.07239 0.54026 0.09169 0.0
C2822 C 0.05975 0.46378 0.09505 0.0
C2823 C 0.10299 0.5526 0.12638 0.0
H2824 H 0.10184 0.49803 0.18847 0.0
H2825 H 0.14625 0.4922 0.13679 0.0
H2826 H 0.06904 0.52395 0.15885 0.0
H2827 H 0.055 0.49291 0.14569 0.0
H2828 H 0.06638 0.50115 0.1774 0.0
H2829 H 0.13633 0.49054 0.09521 0.0
H2830 H 0.10781 0.4843 0.08373 0.0
H2831 H 0.12383 0.51521 0.0935 0.0
H2832 H 0.03851 0.48486 0.06465 0.0
H2833 H 0.07566 0.55931 0.09023 0.0
H2834 H 0.05732 0.4607 0.11354 0.0
H2835 H 0.07407 0.45722 0.09039 0.0
H2836 H 0.04524 0.4526 0.08205 0.0
H2837 H 0.10109 0.55155 0.1455 0.0
H2838 H 0.10312 0.57134 0.12381 0.0
H2839 H 0.11902 0.54939 0.12334 0.0
C2840 C 0.82487 0.83395 0.46925 0.0
C2841 C 0.82659 0.8587 0.47851 0.0
C2842 C 0.82268 0.82487 0.44409 0.0
C2843 C 0.82226 0.84087 0.42765 0.0
C2844 C 0.82396 0.86584 0.43688 0.0
C2845 C 0.82605 0.87441 0.46209 0.0
C2846 C 0.82082 0.79811 0.43508 0.0
C2847 C 0.82365 0.88359 0.42009 0.0
C2848 C 0.83664 0.82368 0.36405 0.0
C2849 C 0.81608 0.81554 0.34969 0.0
C2850 C 0.83887 0.83173 0.38938 0.0
C2851 C 0.8201 0.83158 0.40081 0.0
C2852 C 0.79929 0.82306 0.38649 0.0
C2853 C 0.79754 0.81524 0.36119 0.0
C2854 C 0.86137 0.84076 0.40387 0.0
C2855 C 0.77884 0.82242 0.39786 0.0
H2856 H 0.82524 0.8216 0.48168 0.0
H2857 H 0.82737 0.89355 0.46894 0.0
H2858 H 0.80542 0.78957 0.42248 0.0
H2859 H 0.83435 0.79602 0.42475 0.0
H2860 H 0.82122 0.78799 0.45012 0.0
H2861 H 0.82516 0.90242 0.43008 0.0
H2862 H 0.83722 0.88404 0.40922 0.0
H2863 H 0.80829 0.87749 0.40716 0.0
H2864 H 0.85111 0.8241 0.35549 0.0
H2865 H 0.78154 0.80895 0.35042 0.0
H2866 H 0.8628 0.83014 0.41832 0.0
H2867 H 0.86424 0.86015 0.41296 0.0
H2868 H 0.87431 0.83928 0.3924 0.0
H2869 H 0.77824 0.81134 0.41216 0.0
H2870 H 0.76387 0.81466 0.38436 0.0
H2871 H 0.77888 0.84117 0.40674 0.0
C2872 C 0.49905 0.55714 0.83081 0.0
C2873 C 0.47864 0.56228 0.82654 0.0
C2874 C 0.50885 0.55637 0.85434 0.0
C2875 C 0.49805 0.56009 0.87496 0.0
C2876 C 0.47749 0.56553 0.8709 0.0
C2877 C 0.46825 0.56682 0.8471 0.0
C2878 C 0.53087 0.55115 0.85701 0.0
C2879 C 0.46478 0.56919 0.89167 0.0
C2880 C 0.51475 0.53136 0.92954 0.0
C2881 C 0.52825 0.55139 0.94678 0.0
C2882 C 0.50455 0.53404 0.90688 0.0
C2883 C 0.50797 0.55734 0.90022 0.0
C2884 C 0.5217 0.57764 0.91748 0.0
C2885 C 0.5313 0.57451 0.94032 0.0
C2886 C 0.48994 0.51168 0.88993 0.0
C2887 C 0.52663 0.60282 0.91166 0.0
H2888 H 0.5075 0.55349 0.81545 0.0
H2889 H 0.4524 0.57038 0.84449 0.0
H2890 H 0.54222 0.56531 0.87146 0.0
H2891 H 0.5294 0.53331 0.86256 0.0
H2892 H 0.53807 0.5506 0.83989 0.0
H2893 H 0.44945 0.57393 0.88611 0.0
H2894 H 0.46074 0.55223 0.89904 0.0
H2895 H 0.47479 0.58393 0.90659 0.0
H2896 H 0.51186 0.51334 0.93389 0.0
H2897 H 0.54159 0.59033 0.95302 0.0
H2898 H 0.49698 0.50812 0.87293 0.0
H2899 H 0.47378 0.5148 0.88491 0.0
H2900 H 0.48764 0.49515 0.89808 0.0
H2901 H 0.53437 0.60272 0.89492 0.0
H2902 H 0.53761 0.61679 0.9266 0.0
H2903 H 0.51131 0.60824 0.90805 0.0
C2904 C 0.79105 0.18135 0.10949 0.0
C2905 C 0.8111 0.17558 0.10881 0.0
C2906 C 0.78868 0.20046 0.12714 0.0
C2907 C 0.80666 0.2137 0.14484 0.0
C2908 C 0.82695 0.20794 0.14426 0.0
C2909 C 0.82899 0.18911 0.12603 0.0
C2910 C 0.76692 0.20636 0.12695 0.0
C2911 C 0.84636 0.22131 0.16321 0.0
C2912 C 0.80934 0.27508 0.18425 0.0
C2913 C 0.8041 0.26802 0.20591 0.0
C2914 C 0.80917 0.25745 0.16363 0.0
C2915 C 0.80394 0.2324 0.16502 0.0
C2916 C 0.79745 0.22521 0.18645 0.0
C2917 C 0.79735 0.2431 0.20651 0.0
C2918 C 0.81564 0.26568 0.14082 0.0
C2919 C 0.79196 0.19873 0.18879 0.0
H2920 H 0.77725 0.17118 0.09594 0.0
H2921 H 0.8445 0.1847 0.12548 0.0
H2922 H 0.76004 0.20266 0.14361 0.0
H2923 H 0.76894 0.22606 0.12698 0.0
H2924 H 0.75503 0.19549 0.11092 0.0
H2925 H 0.86108 0.21495 0.15989 0.0
H2926 H 0.85012 0.24122 0.16354 0.0
H2927 H 0.84255 0.21861 0.18145 0.0
H2928 H 0.81449 0.29434 0.18372 0.0
H2929 H 0.79314 0.23754 0.22319 0.0
H2930 H 0.80388 0.25473 0.12476 0.0
H2931 H 0.83181 0.26274 0.13809 0.0
H2932 H 0.81655 0.28533 0.14166 0.0
H2933 H 0.77931 0.18742 0.17369 0.0
H2934 H 0.78604 0.19613 0.20624 0.0
H2935 H 0.80663 0.19175 0.18765 0.0
C2936 C 0.1707 0.54817 0.29759 0.0
C2937 C 0.16975 0.52676 0.28099 0.0
C2938 C 0.15853 0.54751 0.31689 0.0
C2939 C 0.14551 0.52484 0.31983 0.0
C2940 C 0.14515 0.50305 0.30364 0.0
C2941 C 0.15713 0.50431 0.28423 0.0
C2942 C 0.15902 0.57115 0.33362 0.0
C2943 C 0.13176 0.4785 0.30653 0.0
C2944 C 0.12619 0.52176 0.38074 0.0
C2945 C 0.10471 0.52321 0.37574 0.0
C2946 C 0.13962 0.5219 0.3626 0.0
C2947 C 0.13143 0.52404 0.33912 0.0
C2948 C 0.10977 0.52559 0.334 0.0
C2949 C 0.09659 0.52496 0.35237 0.0
C2950 C 0.16252 0.51978 0.36855 0.0
C2951 C 0.10061 0.52828 0.30924 0.0
H2952 H 0.18036 0.56557 0.29503 0.0
H2953 H 0.15652 0.4877 0.27151 0.0
H2954 H 0.14252 0.57423 0.33218 0.0
H2955 H 0.16374 0.5701 0.35275 0.0
H2956 H 0.17054 0.58713 0.32932 0.0
H2957 H 0.13449 0.46317 0.29343 0.0
H2958 H 0.13574 0.47571 0.32521 0.0
H2959 H 0.11422 0.47788 0.30373 0.0
H2960 H 0.13243 0.52034 0.39883 0.0
H2961 H 0.08007 0.52643 0.34863 0.0
H2962 H 0.17437 0.53634 0.36591 0.0
H2963 H 0.16506 0.50394 0.35605 0.0
H2964 H 0.16613 0.5175 0.38753 0.0
H2965 H 0.11061 0.54498 0.3045 0.0
H2966 H 0.08349 0.52946 0.30835 0.0
H2967 H 0.10129 0.5125 0.29529 0.0
C2968 C 0.79327 0.86041 0.61121 0.0
C2969 C 0.81358 0.87112 0.60492 0.0
C2970 C 0.79159 0.85019 0.63208 0.0
C2971 C 0.81067 0.8507 0.64737 0.0
C2972 C 0.83126 0.86162 0.64128 0.0
C2973 C 0.83248 0.8716 0.62012 0.0
C2974 C 0.76929 0.83862 0.63765 0.0
C2975 C 0.85201 0.8627 0.65711 0.0
C2976 C 0.80342 0.83969 0.71147 0.0
C2977 C 0.80207 0.81467 0.70864 0.0
C2978 C 0.80675 0.85184 0.69191 0.0
C2979 C 0.8089 0.83871 0.669 0.0
C2980 C 0.80809 0.81357 0.66634 0.0
C2981 C 0.80468 0.80192 0.68611 0.0
C2982 C 0.80757 0.87862 0.69564 0.0
C2983 C 0.8103 0.79878 0.64239 0.0
H2984 H 0.77851 0.8599 0.59971 0.0
H2985 H 0.84825 0.87997 0.61561 0.0
H2986 H 0.7676 0.81899 0.63773 0.0
H2987 H 0.76719 0.84741 0.65599 0.0
H2988 H 0.75602 0.84014 0.62426 0.0
H2989 H 0.86671 0.87242 0.65035 0.0
H2990 H 0.85191 0.87211 0.67592 0.0
H2991 H 0.85317 0.84393 0.65793 0.0
H2992 H 0.80159 0.84971 0.72887 0.0
H2993 H 0.80384 0.78261 0.6838 0.0
H2994 H 0.79368 0.88129 0.68403 0.0
H2995 H 0.82269 0.88886 0.69011 0.0
H2996 H 0.80693 0.88651 0.71484 0.0
H2997 H 0.79662 0.7982 0.62845 0.0
H2998 H 0.81037 0.77973 0.64359 0.0
H2999 H 0.82557 0.80751 0.63604 0.0
C3000 C 0.7777 0.51452 0.51073 0.0
C3001 C 0.77034 0.49072 0.49681 0.0
C3002 C 0.76328 0.52911 0.51517 0.0
C3003 C 0.74097 0.51951 0.5057 0.0
C3004 C 0.73367 0.49602 0.49055 0.0
C3005 C 0.74849 0.48194 0.48616 0.0
C3006 C 0.77172 0.55425 0.53107 0.0
C3007 C 0.70996 0.48512 0.4802 0.0
C3008 C 0.69956 0.53983 0.54187 0.0
C3009 C 0.69219 0.55502 0.52798 0.0
C3010 C 0.71575 0.52858 0.53501 0.0
C3011 C 0.7249 0.53277 0.51382 0.0
C3012 C 0.71802 0.54868 0.50009 0.0
C3013 C 0.70162 0.55954 0.50728 0.0
C3014 C 0.72251 0.51155 0.55002 0.0
C3015 C 0.72761 0.55375 0.47756 0.0
H3016 H 0.79464 0.52152 0.51878 0.0
H3017 H 0.7427 0.46359 0.47532 0.0
H3018 H 0.76553 0.56785 0.5227 0.0
H3019 H 0.76576 0.5542 0.54885 0.0
H3020 H 0.78978 0.56023 0.53434 0.0
H3021 H 0.70727 0.46764 0.467 0.0
H3022 H 0.70037 0.48161 0.49516 0.0
H3023 H 0.70353 0.49808 0.47106 0.0
H3024 H 0.69204 0.53595 0.55763 0.0
H3025 H 0.696 0.57139 0.49659 0.0
H3026 H 0.74034 0.51745 0.55597 0.0
H3027 H 0.71865 0.49282 0.53885 0.0
H3028 H 0.71421 0.51081 0.56635 0.0
H3029 H 0.74563 0.55973 0.4816 0.0
H3030 H 0.7217 0.568 0.47001 0.0
H3031 H 0.72326 0.53675 0.46344 0.0
C3032 C 0.21019 0.13541 0.48379 0.0
C3033 C 0.22434 0.13995 0.50567 0.0
C3034 C 0.18833 0.12179 0.48145 0.0
C3035 C 0.1804 0.1124 0.50142 0.0
C3036 C 0.19453 0.11722 0.5236 0.0
C3037 C 0.21622 0.13089 0.52545 0.0
C3038 C 0.17379 0.11717 0.45753 0.0
C3039 C 0.18685 0.10757 0.54535 0.0
C3040 C 0.11972 0.09104 0.50531 0.0
C3041 C 0.11589 0.0656 0.499 0.0
C3042 C 0.14042 0.10662 0.50534 0.0
C3043 C 0.15772 0.09648 0.49898 0.0
C3044 C 0.15365 0.07079 0.49181 0.0
C3045 C 0.1328 0.05571 0.49182 0.0
C3046 C 0.14389 0.13388 0.51284 0.0
C3047 C 0.17153 0.05912 0.48491 0.0
H3048 H 0.21622 0.14239 0.46843 0.0
H3049 H 0.2269 0.1343 0.54248 0.0
H3050 H 0.1685 0.09728 0.44978 0.0
H3051 H 0.15891 0.12333 0.46031 0.0
H3052 H 0.18206 0.12669 0.44413 0.0
H3053 H 0.19963 0.11355 0.56152 0.0
H3054 H 0.17241 0.11384 0.55007 0.0
H3055 H 0.18181 0.0873 0.54095 0.0
H3056 H 0.10658 0.09877 0.51035 0.0
H3057 H 0.12991 0.03605 0.48682 0.0
H3058 H 0.152 0.14337 0.49937 0.0
H3059 H 0.15475 0.14064 0.53049 0.0
H3060 H 0.12837 0.13897 0.51477 0.0
H3061 H 0.17934 0.0672 0.47046 0.0
H3062 H 0.16545 0.03904 0.47841 0.0
H3063 H 0.1843 0.06279 0.50085 0.0
C3064 C 0.22191 0.9427 0.80008 0.0
C3065 C 0.21807 0.95638 0.78216 0.0
C3066 C 0.23282 0.92362 0.79665 0.0
C3067 C 0.2406 0.91679 0.77441 0.0
C3068 C 0.23691 0.93044 0.75609 0.0
C3069 C 0.22597 0.94976 0.7601 0.0
C3070 C 0.23602 0.91061 0.81721 0.0
C3071 C 0.24446 0.92447 0.73193 0.0
C3072 C 0.2863 0.88107 0.7754 0.0
C3073 C 0.27504 0.85608 0.76726 0.0
C3074 C 0.27562 0.90051 0.77728 0.0
C3075 C 0.2526 0.8958 0.77084 0.0
C3076 C 0.24114 0.87061 0.76238 0.0
C3077 C 0.25223 0.85149 0.76078 0.0
C3078 C 0.28917 0.92638 0.78667 0.0
C3079 C 0.21682 0.86368 0.75512 0.0
H3080 H 0.21628 0.94694 0.81736 0.0
H3081 H 0.2234 0.95947 0.74572 0.0
H3082 H 0.22794 0.89081 0.81128 0.0
H3083 H 0.25361 0.91246 0.82238 0.0
H3084 H 0.22939 0.91784 0.83351 0.0
H3085 H 0.24053 0.9362 0.71935 0.0
H3086 H 0.2623 0.9268 0.73457 0.0
H3087 H 0.23671 0.90506 0.72335 0.0
H3088 H 0.30376 0.88561 0.7807 0.0
H3089 H 0.24282 0.83268 0.7545 0.0
H3090 H 0.28405 0.93406 0.80385 0.0
H3091 H 0.2865 0.93797 0.77346 0.0
H3092 H 0.30682 0.92759 0.79009 0.0
H3093 H 0.20889 0.86897 0.77104 0.0
H3094 H 0.21011 0.84377 0.74786 0.0
H3095 H 0.21249 0.87379 0.74114 0.0
C3096 C 0.37865 0.9785 0.04456 0.0
C3097 C 0.36714 0.9842 0.02487 0.0
C3098 C 0.40147 0.98486 0.04834 0.0
C3099 C 0.41298 0.99725 0.03207 0.0
C3100 C 0.40149 1.00407 0.01285 0.0
C3101 C 0.37869 0.99743 0.00946 0.0
C3102 C 0.41323 0.97746 0.06914 0.0
C3103 C 0.41325 0.01751 0.99526 0.0
C3104 C 0.47334 0.02825 0.04741 0.0
C3105 C 0.48219 0.01116 0.03385 0.0
C3106 C 0.45086 0.02371 0.04762 0.0
C3107 C 0.43693 1.00155 0.03398 0.0
C3108 C 0.44582 0.98386 0.02097 0.0
C3109 C 0.46836 0.98891 0.02102 0.0
C3110 C 0.44199 0.04305 0.06164 0.0
C3111 C 0.43145 0.95995 1.00629 0.0
H3112 H 0.36986 0.96837 0.05663 0.0
H3113 H 0.36992 1.00206 0.9943 0.0
H3114 H 0.42156 0.96353 0.0619 0.0
H3115 H 0.42593 0.9934 0.08 0.0
H3116 H 0.40201 0.96975 0.08131 0.0
H3117 H 0.402 0.02297 0.98234 0.0
H3118 H 0.42569 0.03414 1.00526 0.0
H3119 H 0.42189 1.00568 0.98472 0.0
H3120 H 0.48388 0.04561 0.05723 0.0
H3121 H 0.47509 0.97561 0.01056 0.0
H3122 H 0.43052 0.03493 0.07335 0.0
H3123 H 0.43277 0.05084 0.04879 0.0
H3124 H 0.45508 0.05818 0.07319 0.0
H3125 H 0.42069 0.95038 0.01783 0.0
H3126 H 0.44099 0.94761 0.9983 0.0
H3127 H 0.42082 0.9635 0.99134 0.0
C3128 C 0.88311 0.63246 0.81802 0.0
C3129 C 0.88087 0.60881 0.82237 0.0
C3130 C 0.86479 0.64112 0.81319 0.0
C3131 C 0.84377 0.62574 0.81275 0.0
C3132 C 0.84147 0.60242 0.81858 0.0
C3133 C 0.86007 0.59421 0.82333 0.0
C3134 C 0.86787 0.66625 0.80725 0.0
C3135 C 0.81933 0.58563 0.81848 0.0
C3136 C 0.79925 0.65855 0.81133 0.0
C3137 C 0.79338 0.65589 0.78625 0.0
C3138 C 0.81477 0.64758 0.82046 0.0
C3139 C 0.82437 0.6334 0.80405 0.0
C3140 C 0.81695 0.62871 0.77884 0.0
C3141 C 0.8015 0.64 0.77023 0.0
C3142 C 0.82212 0.65285 0.84748 0.0
C3143 C 0.82655 0.61331 0.76077 0.0
H3144 H 0.89912 0.6439 0.81743 0.0
H3145 H 0.85821 0.57595 0.82687 0.0
H3146 H 0.86124 0.66454 0.78796 0.0
H3147 H 0.85879 0.67694 0.81849 0.0
H3148 H 0.88527 0.67663 0.81028 0.0
H3149 H 0.82042 0.56952 0.82645 0.0
H3150 H 0.80911 0.59555 0.82872 0.0
H3151 H 0.81091 0.57901 0.79954 0.0
H3152 H 0.79288 0.67056 0.82385 0.0
H3153 H 0.79661 0.63742 0.75085 0.0
H3154 H 0.83842 0.66605 0.85179 0.0
H3155 H 0.82362 0.63598 0.85371 0.0
H3156 H 0.81077 0.66081 0.85788 0.0
H3157 H 0.84363 0.62312 0.76021 0.0
H3158 H 0.81736 0.60925 0.74218 0.0
H3159 H 0.82678 0.5958 0.76636 0.0
C3160 C 0.83885 0.63752 0.98593 0.0
C3161 C 0.84065 0.65769 1.00461 0.0
C3162 C 0.85504 0.62467 0.98512 0.0
C3163 C 0.87332 0.63192 1.00361 0.0
C3164 C 0.87508 0.6521 0.02262 0.0
C3165 C 0.85885 0.66478 0.0228 0.0
C3166 C 0.85265 0.60343 0.9644 0.0
C3167 C 0.89409 0.66027 0.04288 0.0
C3168 C 0.90511 0.58572 0.01493 0.0
C3169 C 0.92368 0.59328 1.00399 0.0
C3170 C 0.88862 0.59805 0.01487 0.0
C3171 C 0.89054 0.61832 1.00333 0.0
C3172 C 0.90921 0.62598 0.99215 0.0
C3173 C 0.92561 0.61348 0.99276 0.0
C3174 C 0.86921 0.58949 0.02734 0.0
C3175 C 0.91182 0.64731 0.97943 0.0
H3176 H 0.82493 0.63196 0.97174 0.0
H3177 H 0.86039 0.68024 0.0374 0.0
H3178 H 0.86697 0.60674 0.95464 0.0
H3179 H 0.85213 0.58652 0.97151 0.0
H3180 H 0.8377 0.60032 0.95124 0.0
H3181 H 0.89295 0.67613 0.05649 0.0
H3182 H 0.89495 0.64501 0.05226 0.0
H3183 H 0.90953 0.66539 0.03534 0.0
H3184 H 0.9036 0.57024 0.02381 0.0
H3185 H 0.93977 0.61921 0.984 0.0
H3186 H 0.85402 0.58462 0.01423 0.0
H3187 H 0.86807 0.60448 0.04196 0.0
H3188 H 0.8701 0.57338 0.0354 0.0
H3189 H 0.89773 0.64401 0.96505 0.0
H3190 H 0.92699 0.65058 0.97106 0.0
H3191 H 0.91209 0.66414 0.99251 0.0
C3192 C 0.22858 0.11417 0.79413 0.0
C3193 C 0.22145 0.09861 0.77113 0.0
C3194 C 0.24014 0.13933 0.79681 0.0
C3195 C 0.24506 0.14971 0.77612 0.0
C3196 C 0.23778 0.13406 0.75297 0.0
C3197 C 0.22623 0.10922 0.75082 0.0
C3198 C 0.24723 0.15487 0.82195 0.0
C3199 C 0.24255 0.14345 0.73019 0.0
C3200 C 0.26383 0.22015 0.77744 0.0
C3201 C 0.2866 0.22455 0.77878 0.0
C3202 C 0.2502 0.19635 0.77734 0.0
C3203 C 0.25924 0.17603 0.77838 0.0
C3204 C 0.2822 0.18065 0.77998 0.0
C3205 C 0.29531 0.20441 0.78025 0.0
C3206 C 0.22599 0.19291 0.77584 0.0
C3207 C 0.29308 0.1602 0.78085 0.0
H3208 H 0.22507 0.10675 0.81011 0.0
H3209 H 0.22102 0.09793 0.73281 0.0
H3210 H 0.26525 0.16084 0.82574 0.0
H3211 H 0.24133 0.1716 0.82319 0.0
H3212 H 0.24111 0.14495 0.83615 0.0
H3213 H 0.23517 0.12949 0.71345 0.0
H3214 H 0.23631 0.15975 0.72954 0.0
H3215 H 0.2604 0.1492 0.73027 0.0
H3216 H 0.25663 0.23522 0.77639 0.0
H3217 H 0.31276 0.20713 0.78132 0.0
H3218 H 0.21981 0.18372 0.79046 0.0
H3219 H 0.21772 0.18091 0.75828 0.0
H3220 H 0.22148 0.21053 0.77737 0.0
H3221 H 0.28859 0.15121 0.79617 0.0
H3222 H 0.31109 0.16668 0.78294 0.0
H3223 H 0.28735 0.14612 0.76392 0.0
C3224 C 0.41534 0.96844 0.29685 0.0
C3225 C 0.40513 0.98705 0.30356 0.0
C3226 C 0.40341 0.94382 0.29123 0.0
C3227 C 0.38077 0.93779 0.29221 0.0
C3228 C 0.37037 0.95649 0.29885 0.0
C3229 C 0.38268 0.98088 0.30454 0.0
C3230 C 0.41503 0.92427 0.28439 0.0
C3231 C 0.34622 0.95075 0.29998 0.0
C3232 C 0.3454 0.8762 0.25789 0.0
C3233 C 0.3424 0.86309 0.27661 0.0
C3234 C 0.358 0.90052 0.26267 0.0
C3235 C 0.36791 0.91188 0.28669 0.0
C3236 C 0.36504 0.89873 0.30563 0.0
C3237 C 0.35225 0.87452 0.30038 0.0
C3238 C 0.36058 0.91409 0.24206 0.0
C3239 C 0.37545 0.91024 0.33147 0.0
H3240 H 0.43267 0.97308 0.29609 0.0
H3241 H 0.37463 0.99515 0.3096 0.0
H3242 H 0.41303 0.91164 0.2973 0.0
H3243 H 0.40775 0.91325 0.26608 0.0
H3244 H 0.43269 0.93201 0.28439 0.0
H3245 H 0.34057 0.96748 0.30505 0.0
H3246 H 0.33704 0.94036 0.28212 0.0
H3247 H 0.34214 0.93904 0.31345 0.0
H3248 H 0.33785 0.86753 0.23947 0.0
H3249 H 0.3502 0.86449 0.31494 0.0
H3250 H 0.37807 0.92077 0.24058 0.0
H3251 H 0.35406 0.93035 0.24573 0.0
H3252 H 0.35203 0.90251 0.22436 0.0
H3253 H 0.39333 0.91687 0.33229 0.0
H3254 H 0.37205 0.89731 0.34399 0.0
H3255 H 0.36937 0.92633 0.33805 0.0
C3256 C 0.59285 0.39583 0.5968 0.0
C3257 C 0.58933 0.37366 0.58013 0.0
C3258 C 0.5903 0.41725 0.58918 0.0
C3259 C 0.5843 0.41675 0.56421 0.0
C3260 C 0.58135 0.39461 0.54725 0.0
C3261 C 0.58375 0.37342 0.55539 0.0
C3262 C 0.59343 0.44028 0.60798 0.0
C3263 C 0.57519 0.39316 0.52046 0.0
C3264 C 0.55461 0.46282 0.54607 0.0
C3265 C 0.57128 0.48043 0.53971 0.0
C3266 C 0.55869 0.44231 0.55425 0.0
C3267 C 0.57998 0.43894 0.55596 0.0
C3268 C 0.5969 0.45662 0.54949 0.0
C3269 C 0.5924 0.47717 0.54161 0.0
C3270 C 0.54014 0.4242 0.56112 0.0
C3271 C 0.61978 0.45374 0.55077 0.0
H3272 H 0.59709 0.39632 0.61595 0.0
H3273 H 0.58107 0.35652 0.54227 0.0
H3274 H 0.60553 0.45554 0.60336 0.0
H3275 H 0.57788 0.44559 0.60812 0.0
H3276 H 0.59898 0.43805 0.62651 0.0
H3277 H 0.57482 0.3751 0.50944 0.0
H3278 H 0.55888 0.39647 0.51709 0.0
H3279 H 0.58689 0.40757 0.51414 0.0
H3280 H 0.53825 0.46515 0.54485 0.0
H3281 H 0.60542 0.4906 0.53676 0.0
H3282 H 0.54413 0.42236 0.58014 0.0
H3283 H 0.53764 0.40593 0.54942 0.0
H3284 H 0.52464 0.42967 0.55931 0.0
H3285 H 0.62594 0.45283 0.56954 0.0
H3286 H 0.63114 0.46901 0.54516 0.0
H3287 H 0.61986 0.43633 0.53885 0.0
C3288 C 0.4407 0.75703 0.35963 0.0
C3289 C 0.45975 0.7749 0.35867 0.0
C3290 C 0.42063 0.75598 0.34595 0.0
C3291 C 0.41954 0.77301 0.33072 0.0
C3292 C 0.43869 0.79116 0.32988 0.0
C3293 C 0.45841 0.79192 0.34383 0.0
C3294 C 0.40061 0.73653 0.34766 0.0
C3295 C 0.43843 0.80976 0.31403 0.0
C3296 C 0.37599 0.7584 0.27513 0.0
C3297 C 0.36169 0.77216 0.28293 0.0
C3298 C 0.39427 0.75771 0.29078 0.0
C3299 C 0.39874 0.77148 0.31486 0.0
C3300 C 0.38417 0.78521 0.32295 0.0
C3301 C 0.36576 0.78524 0.30694 0.0
C3302 C 0.40928 0.74292 0.2812 0.0
C3303 C 0.38834 0.80039 0.34833 0.0
H3304 H 0.44143 0.74388 0.3711 0.0
H3305 H 0.47291 0.80586 0.34289 0.0
H3306 H 0.38765 0.74513 0.35334 0.0
H3307 H 0.3942 0.72456 0.32957 0.0
H3308 H 0.40392 0.72504 0.36076 0.0
H3309 H 0.45454 0.82308 0.31583 0.0
H3310 H 0.43354 0.80035 0.29473 0.0
H3311 H 0.42625 0.81994 0.3188 0.0
H3312 H 0.37304 0.74838 0.25653 0.0
H3313 H 0.35515 0.79643 0.31285 0.0
H3314 H 0.41189 0.73039 0.29343 0.0
H3315 H 0.4254 0.75531 0.28074 0.0
H3316 H 0.40283 0.73196 0.26263 0.0
H3317 H 0.38643 0.78813 0.36159 0.0
H3318 H 0.37701 0.81219 0.35099 0.0
H3319 H 0.40526 0.81219 0.35249 0.0
C3320 C 0.10008 0.73885 0.06153 0.0
C3321 C 0.09058 0.74987 0.08023 0.0
C3322 C 0.09398 0.71333 0.05302 0.0
C3323 C 0.07818 0.69827 0.06365 0.0
C3324 C 0.06812 0.70933 0.08211 0.0
C3325 C 0.07433 0.73493 0.09005 0.0
C3326 C 0.10492 0.70243 0.03308 0.0
C3327 C 0.05137 0.69406 0.09414 0.0
C3328 C 0.05183 0.63195 0.03128 0.0
C3329 C 0.0646 0.61926 0.04285 0.0
C3330 C 0.05603 0.65759 0.03777 0.0
C3331 C 0.07321 0.67094 0.05655 0.0
C3332 C 0.08591 0.65814 0.06851 0.0
C3333 C 0.08158 0.63259 0.06141 0.0
C3334 C 0.04227 0.67043 0.02426 0.0
C3335 C 0.1042 0.67147 0.08882 0.0
H3336 H 0.11257 0.75015 0.05371 0.0
H3337 H 0.06691 0.74315 0.10456 0.0
H3338 H 0.11498 0.69127 0.04029 0.0
H3339 H 0.09253 0.6901 0.01825 0.0
H3340 H 0.11554 0.71664 0.02536 0.0
H3341 H 0.04421 0.70542 0.10727 0.0
H3342 H 0.03808 0.68174 0.08028 0.0
H3343 H 0.059 0.68234 0.10393 0.0
H3344 H 0.0388 0.62189 0.01676 0.0
H3345 H 0.09151 0.62302 0.07055 0.0
H3346 H 0.05275 0.68373 0.01547 0.0
H3347 H 0.03424 0.68091 0.03714 0.0
H3348 H 0.02956 0.65749 0.01012 0.0
H3349 H 0.11669 0.68462 0.08199 0.0
H3350 H 0.11214 0.65883 0.09678 0.0
H3351 H 0.09792 0.68215 0.10342 0.0
C3352 C 0.0724 0.26068 0.85517 0.0
C3353 C 0.07563 0.26668 0.88063 0.0
C3354 C 0.09014 0.26145 0.8421 0.0
C3355 C 0.11167 0.26853 0.85475 0.0
C3356 C 0.11498 0.27436 0.88043 0.0
C3357 C 0.09699 0.2733 0.89301 0.0
C3358 C 0.08588 0.25498 0.81474 0.0
C3359 C 0.1376 0.28217 0.89468 0.0
C3360 C 0.15856 0.25402 0.82322 0.0
C3361 C 0.16769 0.27623 0.8165 0.0
C3362 C 0.14017 0.2511 0.83537 0.0
C3363 C 0.1308 0.27095 0.8412 0.0
C3364 C 0.1401 0.29346 0.83465 0.0
C3365 C 0.15833 0.29579 0.82238 0.0
C3366 C 0.13071 0.22677 0.8419 0.0
C3367 C 0.1309 0.3152 0.84078 0.0
H3368 H 0.056 0.25546 0.84541 0.0
H3369 H 0.09975 0.27798 0.91266 0.0
H3370 H 0.09326 0.27112 0.80719 0.0
H3371 H 0.09363 0.24033 0.80802 0.0
H3372 H 0.06823 0.24877 0.80763 0.0
H3373 H 0.13741 0.28541 0.91459 0.0
H3374 H 0.14637 0.268 0.88982 0.0
H3375 H 0.14698 0.29922 0.89 0.0
H3376 H 0.16557 0.23877 0.81859 0.0
H3377 H 0.16546 0.31314 0.81761 0.0
H3378 H 0.11339 0.2196 0.83361 0.0
H3379 H 0.13119 0.22905 0.86185 0.0
H3380 H 0.13962 0.21302 0.83573 0.0
H3381 H 0.11356 0.31046 0.83261 0.0
H3382 H 0.13988 0.33135 0.83422 0.0
H3383 H 0.13155 0.32031 0.86073 0.0
C3384 C 0.60859 0.78641 0.9373 0.0
C3385 C 0.62371 0.78775 0.92086 0.0
C3386 C 0.60402 0.76686 0.9494 0.0
C3387 C 0.61487 0.74819 0.94506 0.0
C3388 C 0.63021 0.74941 0.92858 0.0
C3389 C 0.63443 0.76918 0.91662 0.0
C3390 C 0.58749 0.76618 0.96678 0.0
C3391 C 0.64214 0.72983 0.92361 0.0
C3392 C 0.61519 0.71059 0.99402 0.0
C3393 C 0.59775 0.69011 0.98422 0.0
C3394 C 0.62148 0.72925 0.98107 0.0
C3395 C 0.60997 0.7274 0.95783 0.0
C3396 C 0.59273 0.70645 0.94757 0.0
C3397 C 0.58685 0.68803 0.96088 0.0
C3398 C 0.64004 0.75124 0.99254 0.0
C3399 C 0.57999 0.70389 0.9229 0.0
H3400 H 0.60019 0.80064 0.94071 0.0
H3401 H 0.64615 0.7701 0.90398 0.0
H3402 H 0.57406 0.74924 0.96085 0.0
H3403 H 0.59516 0.76587 0.98516 0.0
H3404 H 0.58044 0.78213 0.96808 0.0
H3405 H 0.65372 0.73358 0.91045 0.0
H3406 H 0.65128 0.72834 0.94076 0.0
H3407 H 0.63031 0.71186 0.9163 0.0
H3408 H 0.62386 0.71207 0.0119 0.0
H3409 H 0.57324 0.67233 0.95332 0.0
H3410 H 0.63384 0.76774 0.99604 0.0
H3411 H 0.65223 0.7545 0.97999 0.0
H3412 H 0.64828 0.74909 0.00996 0.0
H3413 H 0.57104 0.71823 0.92348 0.0
H3414 H 0.56807 0.68574 0.9168 0.0
H3415 H 0.59117 0.70658 0.90921 0.0
C3416 C 0.07714 0.76749 0.66475 0.0
C3417 C 0.06002 0.76975 0.67788 0.0
C3418 C 0.09758 0.768 0.67655 0.0
C3419 C 0.10105 0.77116 0.70215 0.0
C3420 C 0.08418 0.77469 0.71563 0.0
C3421 C 0.06376 0.77376 0.7033 0.0
C3422 C 0.11513 0.76398 0.66151 0.0
C3423 C 0.08746 0.77855 0.74297 0.0
C3424 C 0.14409 0.74237 0.72541 0.0
C3425 C 0.16265 0.76221 0.73065 0.0
C3426 C 0.12371 0.74528 0.71712 0.0
C3427 C 0.12178 0.76869 0.71438 0.0
C3428 C 0.14014 0.7891 0.72115 0.0
C3429 C 0.16043 0.7856 0.72906 0.0
C3430 C 0.10451 0.72303 0.71003 0.0
C3431 C 0.13862 0.81441 0.71883 0.0
H3432 H 0.07439 0.76442 0.6451 0.0
H3433 H 0.05063 0.77572 0.71357 0.0
H3434 H 0.13023 0.77891 0.6679 0.0
H3435 H 0.11907 0.74663 0.66364 0.0
H3436 H 0.11017 0.76308 0.6419 0.0
H3437 H 0.07363 0.7838 0.75087 0.0
H3438 H 0.08921 0.76149 0.74859 0.0
H3439 H 0.10265 0.79298 0.75076 0.0
H3440 H 0.14561 0.72436 0.72714 0.0
H3441 H 0.1747 0.80102 0.73294 0.0
H3442 H 0.09917 0.71942 0.69017 0.0
H3443 H 0.09059 0.72627 0.71912 0.0
H3444 H 0.10842 0.70645 0.71477 0.0
H3445 H 0.13631 0.81543 0.69936 0.0
H3446 H 0.15351 0.8287 0.72802 0.0
H3447 H 0.12436 0.8185 0.72664 0.0
C3448 C 0.12393 0.4192 0.44683 0.0
C3449 C 0.12299 0.42181 0.42254 0.0
C3450 C 0.11905 0.43649 0.46458 0.0
C3451 C 0.11319 0.45691 0.4579 0.0
C3452 C 0.11294 0.46012 0.43361 0.0
C3453 C 0.11789 0.44253 0.4162 0.0
C3454 C 0.11937 0.43239 0.49029 0.0
C3455 C 0.10696 0.4818 0.42591 0.0
C3456 C 0.07717 0.48557 0.49642 0.0
C3457 C 0.09234 0.50567 0.51127 0.0
C3458 C 0.08377 0.4696 0.47889 0.0
C3459 C 0.10605 0.47407 0.47607 0.0
C3460 C 0.12141 0.49454 0.49093 0.0
C3461 C 0.11438 0.51 0.50856 0.0
C3462 C 0.0669 0.44798 0.46336 0.0
C3463 C 0.14521 0.50017 0.48809 0.0
H3464 H 0.1279 0.40328 0.45192 0.0
H3465 H 0.11728 0.44476 0.3975 0.0
H3466 H 0.12995 0.44869 0.50311 0.0
H3467 H 0.10272 0.4297 0.49525 0.0
H3468 H 0.12528 0.4162 0.49276 0.0
H3469 H 0.10648 0.48089 0.40607 0.0
H3470 H 0.09079 0.48287 0.43077 0.0
H3471 H 0.11893 0.49892 0.43565 0.0
H3472 H 0.06012 0.48233 0.49855 0.0
H3473 H 0.12606 0.52581 0.51986 0.0
H3474 H 0.07107 0.43078 0.46561 0.0
H3475 H 0.06674 0.44904 0.44393 0.0
H3476 H 0.05028 0.44703 0.46799 0.0
H3477 H 0.15186 0.48464 0.49115 0.0
H3478 H 0.15499 0.51696 0.50094 0.0
H3479 H 0.14717 0.50259 0.46931 0.0
C3480 C 0.4127 0.22896 0.16261 0.0
C3481 C 0.43213 0.22369 0.17061 0.0
C3482 C 0.39842 0.23385 0.1789 0.0
C3483 C 0.4036 0.23306 0.20364 0.0
C3484 C 0.42221 0.2256 0.21135 0.0
C3485 C 0.43639 0.22119 0.19475 0.0
C3486 C 0.37871 0.24175 0.16998 0.0
C3487 C 0.42796 0.22393 0.23744 0.0
C3488 C 0.38503 0.27965 0.24599 0.0
C3489 C 0.36517 0.2657 0.25045 0.0
C3490 C 0.39816 0.26893 0.23165 0.0
C3491 C 0.39141 0.24356 0.22177 0.0
C3492 C 0.37218 0.22903 0.22759 0.0
C3493 C 0.35918 0.24031 0.24179 0.0
C3494 C 0.41863 0.28508 0.22593 0.0
C3495 C 0.36475 0.20184 0.2178 0.0
H3496 H 0.40926 0.23076 0.14394 0.0
H3497 H 0.45123 0.2167 0.20093 0.0
H3498 H 0.36398 0.23151 0.17622 0.0
H3499 H 0.38108 0.26143 0.17766 0.0
H3500 H 0.37576 0.23897 0.14987 0.0
H3501 H 0.44032 0.21349 0.23947 0.0
H3502 H 0.43466 0.2426 0.2486 0.0
H3503 H 0.41331 0.21513 0.24482 0.0
H3504 H 0.38993 0.29924 0.25271 0.0
H3505 H 0.34397 0.22931 0.24536 0.0
H3506 H 0.4169 0.28528 0.20624 0.0
H3507 H 0.43277 0.27777 0.23023 0.0
H3508 H 0.42222 0.30419 0.23618 0.0
H3509 H 0.3584 0.19835 0.19819 0.0
H3510 H 0.35167 0.19266 0.22724 0.0
H3511 H 0.37855 0.19342 0.21964 0.0
C3512 C 0.65118 0.52555 0.36346 0.0
C3513 C 0.6399 0.52891 0.342 0.0
C3514 C 0.64226 0.52648 0.38598 0.0
C3515 C 0.62128 0.53081 0.38784 0.0
C3516 C 0.60998 0.53422 0.36625 0.0
C3517 C 0.61922 0.5333 0.3442 0.0
C3518 C 0.65541 0.52277 0.40796 0.0
C3519 C 0.58772 0.53876 0.36632 0.0
C3520 C 0.58612 0.50981 0.43741 0.0
C3521 C 0.5878 0.53152 0.45444 0.0
C3522 C 0.5971 0.50929 0.41651 0.0
C3523 C 0.61069 0.53101 0.41165 0.0
C3524 C 0.61282 0.55298 0.42903 0.0
C3525 C 0.60152 0.553 0.44983 0.0
C3526 C 0.59376 0.48524 0.39921 0.0
C3527 C 0.62694 0.57679 0.42548 0.0
H3528 H 0.66707 0.52221 0.36274 0.0
H3529 H 0.60988 0.536 0.32833 0.0
H3530 H 0.65784 0.53866 0.42309 0.0
H3531 H 0.6464 0.50642 0.41414 0.0
H3532 H 0.67156 0.52035 0.40425 0.0
H3533 H 0.58094 0.54145 0.34843 0.0
H3534 H 0.57633 0.52307 0.37121 0.0
H3535 H 0.58853 0.55518 0.38023 0.0
H3536 H 0.57582 0.49289 0.44026 0.0
H3537 H 0.60334 0.57003 0.46245 0.0
H3538 H 0.60969 0.48153 0.39663 0.0
H3539 H 0.58575 0.48615 0.38119 0.0
H3540 H 0.58359 0.46973 0.40571 0.0
H3541 H 0.64353 0.57495 0.42322 0.0
H3542 H 0.62818 0.59206 0.44095 0.0
H3543 H 0.62016 0.5815 0.40864 0.0
C3544 C 0.27561 0.92078 0.05359 0.0
C3545 C 0.27233 0.90842 0.02937 0.0
C3546 C 0.27544 0.90799 0.07261 0.0
C3547 C 0.27247 0.88238 0.06719 0.0
C3548 C 0.26781 0.86967 0.04274 0.0
C3549 C 0.26756 0.88286 0.02409 0.0
C3550 C 0.27987 0.92207 0.09848 0.0
C3551 C 0.26489 0.84241 0.03622 0.0
C3552 C 0.30351 0.85556 0.11109 0.0
C3553 C 0.28683 0.84303 0.12204 0.0
C3554 C 0.29899 0.86854 0.0933 0.0
C3555 C 0.27729 0.86941 0.08675 0.0
C3556 C 0.26043 0.8573 0.09827 0.0
C3557 C 0.26538 0.84391 0.11563 0.0
C3558 C 0.31737 0.88085 0.08113 0.0
C3559 C 0.23724 0.85837 0.09215 0.0
H3560 H 0.27905 0.94054 0.05771 0.0
H3561 H 0.26504 0.87323 1.00538 0.0
H3562 H 0.26863 0.91261 0.10966 0.0
H3563 H 0.29669 0.92315 0.10649 0.0
H3564 H 0.27816 0.94097 0.09962 0.0
H3565 H 0.25904 0.83498 0.01658 0.0
H3566 H 0.28068 0.83827 0.04084 0.0
H3567 H 0.25319 0.83277 0.04682 0.0
H3568 H 0.32006 0.85463 0.11603 0.0
H3569 H 0.25257 0.83425 0.12433 0.0
H3570 H 0.31878 0.90074 0.08386 0.0
H3571 H 0.31394 0.87346 0.06128 0.0
H3572 H 0.33327 0.8782 0.08822 0.0
H3573 H 0.23652 0.87767 0.09409 0.0
H3574 H 0.22634 0.84935 0.10394 0.0
H3575 H 0.23096 0.84931 0.07298 0.0
C3576 C 0.98567 0.5816 0.87531 0.0
C3577 C 0.96618 0.58306 0.88415 0.0
C3578 C 1.00383 0.58077 0.8908 0.0
C3579 C 1.00235 0.58112 0.91564 0.0
C3580 C 0.98333 0.58458 0.92498 0.0
C3581 C 0.96545 0.58561 0.9091 0.0
C3582 C 0.02398 0.57763 0.88022 0.0
C3583 C 0.98099 0.58489 0.95129 0.0
C3584 C 0.03156 0.54184 0.94611 0.0
C3585 C 0.04893 0.55933 0.9611 0.0
C3586 C 0.01653 0.54878 0.93098 0.0
C3587 C 0.01905 0.57387 0.93078 0.0
C3588 C 0.03708 0.59161 0.94524 0.0
C3589 C 0.05192 0.58409 0.96028 0.0
C3590 C 0.99748 0.52927 0.91594 0.0
C3591 C 0.04019 0.6185 0.9456 0.0
H3592 H 0.98647 0.5801 0.85605 0.0
H3593 H 0.95047 0.58688 0.91605 0.0
H3594 H 0.03882 0.58984 0.89192 0.0
H3595 H 0.02505 0.55855 0.87936 0.0
H3596 H 0.02382 0.5815 0.86162 0.0
H3597 H 0.96763 0.59297 0.95669 0.0
H3598 H 0.97717 0.56582 0.95415 0.0
H3599 H 0.99632 0.59522 0.96334 0.0
H3600 H 0.02928 0.52271 0.9469 0.0
H3601 H 0.06524 0.59763 0.97218 0.0
H3602 H 0.99695 0.5304 0.8965 0.0
H3603 H 0.98205 0.53221 0.92163 0.0
H3604 H 0.99824 0.51057 0.91777 0.0
H3605 H 0.03905 0.62188 0.92683 0.0
H3606 H 0.0561 0.6297 0.95596 0.0
H3607 H 0.02705 0.62473 0.95407 0.0
C3608 C 0.29299 0.25789 0.57476 0.0
C3609 C 0.29392 0.23394 0.56567 0.0
C3610 C 0.29522 0.26699 0.59991 0.0
C3611 C 0.29823 0.25173 0.61647 0.0
C3612 C 0.29931 0.2276 0.6074 0.0
C3613 C 0.29726 0.21906 0.58221 0.0
C3614 C 0.29421 0.2929 0.60877 0.0
C3615 C 0.30232 0.21062 0.62434 0.0
C3616 C 0.32188 0.27938 0.68283 0.0
C3617 C 0.30315 0.27636 0.69427 0.0
C3618 C 0.3205 0.27188 0.65755 0.0
C3619 C 0.29991 0.26081 0.64324 0.0
C3620 C 0.28094 0.25788 0.65463 0.0
C3621 C 0.28277 0.26579 0.67991 0.0
C3622 C 0.34112 0.27562 0.64618 0.0
C3623 C 0.25869 0.24597 0.64015 0.0
H3624 H 0.29047 0.26958 0.56221 0.0
H3625 H 0.29791 0.2005 0.57546 0.0
H3626 H 0.28022 0.29291 0.61891 0.0
H3627 H 0.30915 0.3032 0.6215 0.0
H3628 H 0.29248 0.30269 0.59366 0.0
H3629 H 0.30297 0.19245 0.61446 0.0
H3630 H 0.31757 0.2188 0.63726 0.0
H3631 H 0.28872 0.20799 0.6352 0.0
H3632 H 0.33772 0.28762 0.69365 0.0
H3633 H 0.26819 0.26324 0.68848 0.0
H3634 H 0.34004 0.28631 0.63172 0.0
H3635 H 0.34323 0.2577 0.6375 0.0
H3636 H 0.35578 0.28532 0.65964 0.0
H3637 H 0.2556 0.25604 0.62566 0.0
H3638 H 0.2455 0.24533 0.65162 0.0
H3639 H 0.25792 0.22703 0.63112 0.0
C3640 C 0.62181 0.53562 0.20613 0.0
C3641 C 0.6403 0.52659 0.20995 0.0
C3642 C 0.61159 0.53573 0.18257 0.0
C3643 C 0.62005 0.52722 0.16135 0.0
C3644 C 0.63861 0.51779 0.16496 0.0
C3645 C 0.64825 0.51734 0.18888 0.0
C3646 C 0.59172 0.54542 0.18048 0.0
C3647 C 0.64883 0.5089 0.14348 0.0
C3648 C 0.58328 0.5122 0.09794 0.0
C3649 C 0.58912 0.53403 0.08904 0.0
C3650 C 0.59312 0.50965 0.12092 0.0
C3651 C 0.60988 0.52911 0.13584 0.0
C3652 C 0.61612 0.55098 0.12667 0.0
C3653 C 0.60568 0.55323 0.10393 0.0
C3654 C 0.58517 0.48609 0.12949 0.0
C3655 C 0.63397 0.5723 0.14101 0.0
H3656 H 0.61524 0.54292 0.22185 0.0
H3657 H 0.66262 0.51065 0.19107 0.0
H3658 H 0.59545 0.56234 0.17304 0.0
H3659 H 0.57829 0.53191 0.16769 0.0
H3660 H 0.58599 0.5496 0.19825 0.0
H3661 H 0.66266 0.50143 0.14881 0.0
H3662 H 0.63654 0.49453 0.13014 0.0
H3663 H 0.6548 0.52421 0.13421 0.0
H3664 H 0.57057 0.49708 0.08712 0.0
H3665 H 0.61073 0.57023 0.09769 0.0
H3666 H 0.57853 0.48981 0.14674 0.0
H3667 H 0.59891 0.478 0.13325 0.0
H3668 H 0.57234 0.47249 0.11599 0.0
H3669 H 0.62884 0.57951 0.15835 0.0
H3670 H 0.63819 0.58738 0.13097 0.0
H3671 H 0.6488 0.56624 0.14563 0.0
C3672 C 0.32534 0.88512 0.94189 0.0
C3673 C 0.30991 0.89876 0.94131 0.0
C3674 C 0.32497 0.86628 0.92239 0.0
C3675 C 0.30864 0.86084 0.90201 0.0
C3676 C 0.29253 0.87393 0.90174 0.0
C3677 C 0.29344 0.89285 0.92135 0.0
C3678 C 0.34257 0.85292 0.92313 0.0
C3679 C 0.27474 0.86851 0.88038 0.0
C3680 C 0.31878 0.83661 0.83908 0.0
C3681 C 0.30681 0.81212 0.83495 0.0
C3682 C 0.32052 0.85227 0.86139 0.0
C3683 C 0.30959 0.84334 0.87987 0.0
C3684 C 0.29821 0.81834 0.87622 0.0
C3685 C 0.29708 0.80289 0.85374 0.0
C3686 C 0.33308 0.87871 0.86463 0.0
C3687 C 0.28622 0.80828 0.8955 0.0
H3688 H 0.33809 0.88958 0.95731 0.0
H3689 H 0.28131 0.90313 0.92094 0.0
H3690 H 0.33532 0.83288 0.91864 0.0
H3691 H 0.35315 0.85753 0.90928 0.0
H3692 H 0.35286 0.85775 0.94117 0.0
H3693 H 0.26235 0.87876 0.88398 0.0
H3694 H 0.28191 0.87349 0.86426 0.0
H3695 H 0.2665 0.84868 0.87574 0.0
H3696 H 0.32614 0.84387 0.82452 0.0
H3697 H 0.2877 0.78398 0.85049 0.0
H3698 H 0.34447 0.88447 0.88193 0.0
H3699 H 0.32164 0.89046 0.86552 0.0
H3700 H 0.34253 0.88204 0.84951 0.0
H3701 H 0.29686 0.81373 0.9133 0.0
H3702 H 0.28023 0.78804 0.89093 0.0
H3703 H 0.27205 0.81603 0.89757 0.0
C3704 C 0.95414 0.57516 0.74777 0.0
C3705 C 0.95925 0.55988 0.76305 0.0
C3706 C 0.9658 0.57953 0.72851 0.0
C3707 C 0.98296 0.56841 0.72461 0.0
C3708 C 0.98807 0.55285 0.73986 0.0
C3709 C 0.97612 0.54874 0.75887 0.0
C3710 C 0.95987 0.59609 0.71244 0.0
C3711 C 1.00631 0.5407 0.73625 0.0
C3712 C 1.0036 0.55998 0.66415 0.0
C3713 C 0.02305 0.57862 0.66879 0.0
C3714 C 0.98985 0.55711 0.68183 0.0
C3715 C 0.99585 0.5731 0.70476 0.0
C3716 C 0.01509 0.59243 0.70931 0.0
C3717 C 0.02844 0.59502 0.6912 0.0
C3718 C 0.96937 0.53636 0.67631 0.0
C3719 C 0.02197 0.60982 0.73359 0.0
H3720 H 0.94108 0.58378 0.75089 0.0
H3721 H 0.98016 0.53691 0.7706 0.0
H3722 H 0.97398 0.61198 0.71343 0.0
H3723 H 0.95582 0.58619 0.69325 0.0
H3724 H 0.94581 0.60294 0.71763 0.0
H3725 H 1.00811 0.52902 0.74966 0.0
H3726 H 1.00332 0.52924 0.71774 0.0
H3727 H 0.02192 0.55479 0.73785 0.0
H3728 H 0.99945 0.54709 0.64695 0.0
H3729 H 0.04324 0.60974 0.69469 0.0
H3730 H 0.95519 0.54316 0.68105 0.0
H3731 H 0.97098 0.52266 0.68752 0.0
H3732 H 0.96597 0.5271 0.65689 0.0
H3733 H 1.00857 0.61797 0.73857 0.0
H3734 H 0.03664 0.62481 0.73366 0.0
H3735 H 0.02558 0.59969 0.74784 0.0
C3736 C 0.28179 0.24489 0.4329 0.0
C3737 C 0.29 0.22587 0.43913 0.0
C3738 C 0.28803 0.25552 0.41314 0.0
C3739 C 0.30254 0.24666 0.39884 0.0
C3740 C 0.31064 0.22721 0.40481 0.0
C3741 C 0.30441 0.21718 0.42493 0.0
C3742 C 0.27944 0.27664 0.40789 0.0
C3743 C 0.3259 0.21697 0.3899 0.0
C3744 C 0.30457 0.26373 0.33637 0.0
C3745 C 0.32381 0.28252 0.34048 0.0
C3746 C 0.29779 0.25125 0.35486 0.0
C3747 C 0.31005 0.25857 0.37844 0.0
C3748 C 0.3293 0.27792 0.38278 0.0
C3749 C 0.33606 0.28938 0.36373 0.0
C3750 C 0.27752 0.23029 0.34917 0.0
C3751 C 0.34258 0.28691 0.40772 0.0
H3752 H 0.27071 0.25179 0.44376 0.0
H3753 H 0.31069 0.20232 0.42939 0.0
H3754 H 0.2932 0.29298 0.40917 0.0
H3755 H 0.27063 0.27216 0.38911 0.0
H3756 H 0.26826 0.28137 0.42064 0.0
H3757 H 0.33133 0.20243 0.39737 0.0
H3758 H 0.3177 0.20938 0.37098 0.0
H3759 H 0.34048 0.23166 0.38912 0.0
H3760 H 0.29463 0.25907 0.31887 0.0
H3761 H 0.35082 0.30415 0.36722 0.0
H3762 H 0.26557 0.23393 0.3613 0.0
H3763 H 0.28166 0.21338 0.35254 0.0
H3764 H 0.26969 0.22698 0.33004 0.0
H3765 H 0.33234 0.29302 0.42096 0.0
H3766 H 0.35701 0.30232 0.40817 0.0
H3767 H 0.34822 0.27184 0.41383 0.0
C3768 C 0.34667 0.56691 0.55505 0.0
C3769 C 0.35651 0.59178 0.5644 0.0
C3770 C 0.35932 0.5503 0.55037 0.0
C3771 C 0.38225 0.5589 0.55489 0.0
C3772 C 0.39215 0.58346 0.56656 0.0
C3773 C 0.37911 0.59962 0.5713 0.0
C3774 C 0.34818 0.52406 0.53864 0.0
C3775 C 0.41659 0.59329 0.57188 0.0
C3776 C 0.42051 0.51795 0.54576 0.0
C3777 C 0.42548 0.52052 0.52254 0.0
C3778 C 0.40565 0.5294 0.5563 0.0
C3779 C 0.39578 0.5439 0.54334 0.0
C3780 C 0.40001 0.54562 0.51949 0.0
C3781 C 0.41476 0.53389 0.5094 0.0
C3782 C 0.40136 0.52691 0.58165 0.0
C3783 C 0.3899 0.561 0.50505 0.0
H3784 H 0.32915 0.56061 0.55013 0.0
H3785 H 0.38682 0.61874 0.57886 0.0
H3786 H 0.3495 0.52115 0.51898 0.0
H3787 H 0.35613 0.51146 0.54659 0.0
H3788 H 0.33066 0.51921 0.54066 0.0
H3789 H 0.42161 0.61174 0.5838 0.0
H3790 H 0.42403 0.58083 0.58069 0.0
H3791 H 0.42323 0.59452 0.55459 0.0
H3792 H 0.42868 0.50751 0.55595 0.0
H3793 H 0.41882 0.5364 0.49167 0.0
H3794 H 0.38384 0.52439 0.58314 0.0
H3795 H 0.4105 0.54385 0.59466 0.0
H3796 H 0.40662 0.51132 0.58716 0.0
H3797 H 0.37192 0.55535 0.50373 0.0
H3798 H 0.39422 0.55958 0.48639 0.0
H3799 H 0.39546 0.58047 0.51444 0.0
C3800 C 0.92261 0.93768 0.5599 0.0
C3801 C 0.90351 0.94515 0.5554 0.0
C3802 C 0.94321 0.95297 0.5591 0.0
C3803 C 0.94488 0.97631 0.55334 0.0
C3804 C 0.92569 0.98414 0.54919 0.0
C3805 C 0.90529 0.96855 0.55037 0.0
C3806 C 0.96307 0.94373 0.56365 0.0
C3807 C 0.92664 1.0088 0.54291 0.0
C3808 C 0.9991 0.02546 0.56759 0.0
C3809 C 1.00633 0.02393 0.54489 0.0
C3810 C 0.9794 1.00977 0.57076 0.0
C3811 C 0.96652 0.99218 0.55072 0.0
C3812 C 0.97406 0.99024 0.52789 0.0
C3813 C 0.99377 1.00615 0.52526 0.0
C3814 C 0.97224 0.01217 0.59551 0.0
C3815 C 0.96107 0.97166 0.50606 0.0
H3816 H 0.92151 0.91967 0.56383 0.0
H3817 H 0.89069 0.97453 0.54681 0.0
H3818 H 0.9691 0.93915 0.54618 0.0
H3819 H 0.97629 0.95799 0.57596 0.0
H3820 H 0.95953 0.9271 0.57164 0.0
H3821 H 0.91039 0.01252 0.54091 0.0
H3822 H 0.93769 0.02343 0.55718 0.0
H3823 H 0.93339 1.00977 0.52564 0.0
H3824 H 0.00877 0.03908 0.58288 0.0
H3825 H 0.99912 1.00497 0.5076 0.0
H3826 H 0.96945 0.99435 0.60136 0.0
H3827 H 0.95657 0.01727 0.59468 0.0
H3828 H 0.9844 0.02613 0.60943 0.0
H3829 H 0.95835 0.95301 0.50997 0.0
H3830 H 0.96932 0.97223 0.48968 0.0
H3831 H 0.94486 0.975 0.50197 0.0
C3832 C 0.89631 0.1492 0.2948 0.0
C3833 C 0.89942 0.13397 0.27357 0.0
C3834 C 0.88547 0.16824 0.29442 0.0
C3835 C 0.87705 0.17342 0.27219 0.0
C3836 C 0.87999 0.15817 0.25054 0.0
C3837 C 0.89086 0.13893 0.25143 0.0
C3838 C 0.88306 0.18301 0.31826 0.0
C3839 C 0.87175 0.16236 0.22615 0.0
C3840 C 0.83186 0.20984 0.27364 0.0
C3841 C 0.84324 0.23448 0.2747 0.0
C3842 C 0.84234 0.19025 0.27241 0.0
C3843 C 0.86523 0.19444 0.272 0.0
C3844 C 0.8768 0.21925 0.27284 0.0
C3845 C 0.86592 0.23853 0.27416 0.0
C3846 C 0.8287 0.1648 0.27178 0.0
C3847 C 0.901 0.22558 0.27241 0.0
H3848 H 0.90247 0.14626 0.31228 0.0
H3849 H 0.89288 0.12797 0.23465 0.0
H3850 H 0.89123 0.20259 0.31949 0.0
H3851 H 0.86559 0.18159 0.31934 0.0
H3852 H 0.89009 0.17691 0.33412 0.0
H3853 H 0.87509 0.14946 0.21092 0.0
H3854 H 0.85396 0.16032 0.22453 0.0
H3855 H 0.87952 0.18133 0.22447 0.0
H3856 H 0.81446 0.20569 0.27386 0.0
H3857 H 0.87536 0.257 0.27471 0.0
H3858 H 0.83438 0.15813 0.2879 0.0
H3859 H 0.83061 0.15214 0.25548 0.0
H3860 H 0.81116 0.16397 0.27153 0.0
H3861 H 0.90934 0.22106 0.28848 0.0
H3862 H 0.90783 0.24524 0.27238 0.0
H3863 H 0.90468 0.21448 0.25606 0.0
C3864 C 0.71632 0.06807 0.05204 0.0
C3865 C 0.7303 0.08029 0.03792 0.0
C3866 C 0.69369 0.0628 0.0459 0.0
C3867 C 0.6849 0.07013 0.02527 0.0
C3868 C 0.6989 0.08153 0.01036 0.0
C3869 C 0.72146 0.08638 0.01681 0.0
C3870 C 0.67923 0.05035 0.06209 0.0
C3871 C 0.69012 0.08979 0.98835 0.0
C3872 C 0.62471 0.04204 1.00388 0.0
C3873 C 0.61571 0.05957 0.01647 0.0
C3874 C 0.64731 0.04565 1.00573 0.0
C3875 C 0.66115 0.06731 0.02041 0.0
C3876 C 0.65218 0.08568 0.03195 0.0
C3877 C 0.62954 0.08155 0.0299 0.0
C3878 C 0.65638 0.02581 0.993 0.0
C3879 C 0.66648 0.10924 0.04739 0.0
H3880 H 0.72304 0.06319 0.06828 0.0
H3881 H 0.73215 0.09585 1.00577 0.0
H3882 H 0.67119 0.06344 0.07175 0.0
H3883 H 0.66623 0.03486 0.05107 0.0
H3884 H 0.68843 0.04342 0.07578 0.0
H3885 H 0.70298 0.09595 0.97724 0.0
H3886 H 0.67697 0.07484 0.97675 0.0
H3887 H 0.68296 0.10518 0.99427 0.0
H3888 H 0.61414 0.02496 0.99349 0.0
H3889 H 0.6227 0.09526 0.0395 0.0
H3890 H 0.66454 0.01792 1.00668 0.0
H3891 H 0.66884 0.03349 0.98211 0.0
H3892 H 0.64356 0.01091 0.98081 0.0
H3893 H 0.67493 0.10534 0.06377 0.0
H3894 H 0.65705 0.12251 0.05332 0.0
H3895 H 0.67917 0.11787 0.03724 0.0
C3896 C 0.23384 0.45816 0.20492 0.0
C3897 C 0.21603 0.45473 0.21772 0.0
C3898 C 0.25168 0.44922 0.21104 0.0
C3899 C 0.25169 0.43674 0.23053 0.0
C3900 C 0.23306 0.43153 0.24226 0.0
C3901 C 0.21533 0.44054 0.23562 0.0
C3902 C 0.27112 0.45459 0.19778 0.0
C3903 C 0.23248 0.41812 0.26305 0.0
C3904 C 0.29615 0.405 0.24055 0.0
C3905 C 0.31122 0.42281 0.25821 0.0
C3906 C 0.27654 0.40912 0.23143 0.0
C3907 C 0.27202 0.4316 0.24027 0.0
C3908 C 0.28712 0.44957 0.2583 0.0
C3909 C 0.30659 0.44489 0.26714 0.0
C3910 C 0.26072 0.38948 0.2124 0.0
C3911 C 0.28268 0.47369 0.26829 0.0
H3912 H 0.23427 0.46882 0.19081 0.0
H3913 H 0.20156 0.43777 0.24552 0.0
H3914 H 0.28497 0.46789 0.21017 0.0
H3915 H 0.27632 0.43772 0.19198 0.0
H3916 H 0.26766 0.4623 0.18154 0.0
H3917 H 0.21576 0.41211 0.26754 0.0
H3918 H 0.23895 0.40188 0.25881 0.0
H3919 H 0.24297 0.4304 0.27938 0.0
H3920 H 0.29952 0.38756 0.23428 0.0
H3921 H 0.31818 0.45842 0.28108 0.0
H3922 H 0.25957 0.39584 0.19498 0.0
H3923 H 0.24421 0.3857 0.21777 0.0
H3924 H 0.26573 0.37214 0.20932 0.0
H3925 H 0.28053 0.48361 0.25341 0.0
H3926 H 0.29603 0.48555 0.28242 0.0
H3927 H 0.26734 0.47047 0.2763 0.0
C3928 C 0.27418 0.45478 0.05442 0.0
C3929 C 0.27061 0.43066 0.04167 0.0
C3930 C 0.25738 0.46679 0.05439 0.0
C3931 C 0.23651 0.45451 0.04116 0.0
C3932 C 0.23282 0.43017 0.02835 0.0
C3933 C 0.24982 0.41857 0.02883 0.0
C3934 C 0.26199 0.49267 0.06843 0.0
C3935 C 0.21093 0.4164 0.01386 0.0
C3936 C 0.18665 0.47692 0.05558 0.0
C3937 C 0.18417 0.4904 0.03748 0.0
C3938 C 0.20372 0.46543 0.0572 0.0
C3939 C 0.21862 0.46722 0.04018 0.0
C3940 C 0.21608 0.48065 0.02177 0.0
C3941 C 0.199 0.4921 0.0207 0.0
C3942 C 0.20587 0.45146 0.07721 0.0
C3943 C 0.23136 0.48281 1.00306 0.0
H3944 H 0.29012 0.46429 0.06446 0.0
H3945 H 0.24679 0.39997 0.01887 0.0
H3946 H 0.25957 0.50497 0.05588 0.0
H3947 H 0.25041 0.49381 0.0817 0.0
H3948 H 0.27884 0.49946 0.07835 0.0
H3949 H 0.21061 0.3975 1.00508 0.0
H3950 H 0.19813 0.41548 0.02581 0.0
H3951 H 0.2067 0.42622 0.99957 0.0
H3952 H 0.17547 0.47574 0.06881 0.0
H3953 H 0.1971 0.50224 1.00648 0.0
H3954 H 0.22214 0.45904 0.08836 0.0
H3955 H 0.20455 0.43206 0.0693 0.0
H3956 H 0.19323 0.45213 0.08927 0.0
H3957 H 0.24834 0.49112 0.01214 0.0
H3958 H 0.22732 0.49406 0.99003 0.0
H3959 H 0.23072 0.46437 0.99274 0.0
C3960 C 0.88832 0.97527 0.24531 0.0
C3961 C 0.896 0.99125 0.26802 0.0
C3962 C 0.87677 0.95021 0.24332 0.0
C3963 C 0.87237 0.94036 0.26444 0.0
C3964 C 0.88015 0.95646 0.28728 0.0
C3965 C 0.89171 0.98117 0.28875 0.0
C3966 C 0.86915 0.93418 0.21847 0.0
C3967 C 0.87591 0.94767 0.31049 0.0
C3968 C 0.82234 0.88593 0.26227 0.0
C3969 C 0.83112 0.86585 0.26387 0.0
C3970 C 0.83535 0.90958 0.26191 0.0
C3971 C 0.85826 0.91414 0.26295 0.0
C3972 C 0.86736 0.89389 0.26416 0.0
C3973 C 0.85384 0.87021 0.2647 0.0
C3974 C 0.82441 0.92997 0.26094 0.0
C3975 C 0.89153 0.89729 0.26512 0.0
H3976 H 0.89145 0.98227 0.22902 0.0
H3977 H 0.89733 0.9928 0.30655 0.0
H3978 H 0.8751 0.91749 0.21736 0.0
H3979 H 0.85112 0.92818 0.21521 0.0
H3980 H 0.87485 0.94373 0.20386 0.0
H3981 H 0.88358 0.96194 0.3269 0.0
H3982 H 0.85813 0.942 0.31088 0.0
H3983 H 0.8822 0.93143 0.31132 0.0
H3984 H 0.80493 0.88326 0.26159 0.0
H3985 H 0.8611 0.85519 0.26583 0.0
H3986 H 0.82849 0.93854 0.24525 0.0
H3987 H 0.83049 0.94437 0.27759 0.0
H3988 H 0.80643 0.92353 0.2594 0.0
H3989 H 0.89725 0.90564 0.24982 0.0
H3990 H 0.89612 0.87977 0.26428 0.0
H3991 H 0.90015 0.91002 0.28216 0.0
C3992 C 0.72461 0.09361 0.75054 0.0
C3993 C 0.70215 0.08829 0.75141 0.0
C3994 C 0.73737 0.11781 0.75489 0.0
C3995 C 0.72742 0.13718 0.7601 0.0
C3996 C 0.70489 0.13197 0.76175 0.0
C3997 C 0.69252 0.10755 0.75745 0.0
C3998 C 0.76137 0.12263 0.75312 0.0
C3999 C 0.69372 0.15217 0.76717 0.0
C4000 C 0.76362 0.20112 0.78599 0.0
C4001 C 0.76533 0.21105 0.76503 0.0
C4002 C 0.75124 0.1771 0.78474 0.0
C4003 C 0.74029 0.16279 0.76202 0.0
C4004 C 0.74191 0.17276 0.74085 0.0
C4005 C 0.75444 0.19672 0.7426 0.0
C4006 C 0.74997 0.167 0.80768 0.0
C4007 C 0.73042 0.15808 0.71628 0.0
H4008 H 0.73222 0.07884 0.74607 0.0
H4009 H 0.67519 0.10359 0.7582 0.0
H4010 H 0.76495 0.13153 0.7375 0.0
H4011 H 0.77103 0.13535 0.7697 0.0
H4012 H 0.76689 0.10561 0.7507 0.0
H4013 H 0.67644 0.14512 0.76946 0.0
H4014 H 0.70233 0.16539 0.78393 0.0
H4015 H 0.69428 0.16234 0.75214 0.0
H4016 H 0.77198 0.21209 0.80339 0.0
H4017 H 0.75559 0.20427 0.72632 0.0
H4018 H 0.75648 0.15068 0.80594 0.0
H4019 H 0.73275 0.16103 0.81055 0.0
H4020 H 0.75924 0.1806 0.82395 0.0
H4021 H 0.73633 0.1415 0.71163 0.0
H4022 H 0.73303 0.1687 0.70165 0.0
H4023 H 0.71269 0.15189 0.71673 0.0
loop_
_geom_bond_atom_site_label_1
_geom_bond_atom_site_label_2
_geom_bond_distance
_geom_bond_site_symmetry_2
_ccdc_geom_bond_type
C0 O1 1.160 . S
C0 O7 1.185 . S
O1 C0 1.160 . S
O2 Zn3 1.899 . S
O2 C10 1.284 . S
Zn3 O2 1.899 . S
Zn3 O4 2.032 . S
Zn3 O7 2.086 . S
Zn3 O12 1.977 . S
O4 Zn3 2.032 . S
O4 C8 1.278 . S
C5 O6 1.203 . S
C5 O12 1.267 . S
O6 C5 1.203 . S
O7 C0 1.185 . S
O7 Zn3 2.086 . S
C8 O4 1.278 . S
C8 O9 1.211 . S
O9 C8 1.211 . S
C10 O2 1.284 . S
C10 O11 1.273 . S
O11 C10 1.273 . S
O12 Zn3 1.977 . S
O12 C5 1.267 . S
C13 O14 1.160 . S
C13 O20 1.185 . S
O14 C13 1.160 . S
O15 Zn16 1.899 . S
O15 C23 1.284 . S
Zn16 O15 1.899 . S
Zn16 O17 2.032 . S
Zn16 O20 2.086 . S
Zn16 O25 1.977 1_655 S
O17 Zn16 2.032 . S
O17 C21 1.278 1_655 S
C18 O19 1.203 . S
C18 O25 1.267 . S
O19 C18 1.203 . S
O20 C13 1.185 . S
O20 Zn16 2.086 . S
C21 O17 1.278 1_455 S
C21 O22 1.211 . S
O22 C21 1.211 . S
C23 O15 1.284 . S
C23 O24 1.273 1_655 S
O24 C23 1.273 1_455 S
O25 Zn16 1.977 1_455 S
O25 C18 1.267 . S
C26 O27 1.160 . S
C26 O33 1.185 . S
O27 C26 1.160 . S
O28 Zn29 1.899 . S
O28 C36 1.284 . S
Zn29 O28 1.899 . S
Zn29 O30 2.032 . S
Zn29 O33 2.086 . S
Zn29 O38 1.977 . S
O30 Zn29 2.032 . S
O30 C34 1.278 . S
C31 O32 1.203 . S
C31 O38 1.267 . S
O32 C31 1.203 . S
O33 C26 1.185 . S
O33 Zn29 2.086 . S
C34 O30 1.278 . S
C34 O35 1.211 . S
O35 C34 1.211 . S
C36 O28 1.284 . S
C36 O37 1.273 . S
O37 C36 1.273 . S
O38 Zn29 1.977 . S
O38 C31 1.267 . S
C39 O40 1.160 . S
C39 O46 1.185 . S
O40 C39 1.160 . S
O41 Zn42 1.899 . S
O41 C49 1.284 . S
Zn42 O41 1.899 . S
Zn42 O43 2.032 . S
Zn42 O46 2.086 . S
Zn42 O51 1.977 . S
O43 Zn42 2.032 . S
O43 C47 1.278 . S
C44 O45 1.203 . S
C44 O51 1.267 . S
O45 C44 1.203 . S
O46 C39 1.185 . S
O46 Zn42 2.086 . S
C47 O43 1.278 . S
C47 O48 1.211 . S
O48 C47 1.211 . S
C49 O41 1.284 . S
C49 O50 1.273 . S
O50 C49 1.273 . S
O51 Zn42 1.977 . S
O51 C44 1.267 . S
C52 O53 1.160 . S
C52 O59 1.185 . S
O53 C52 1.160 . S
O54 Zn55 1.899 . S
O54 C62 1.284 . S
Zn55 O54 1.899 . S
Zn55 O56 2.032 . S
Zn55 O59 2.086 . S
Zn55 O64 1.977 . S
O56 Zn55 2.032 . S
O56 C60 1.278 . S
C57 O58 1.203 . S
C57 O64 1.267 . S
O58 C57 1.203 . S
O59 C52 1.185 . S
O59 Zn55 2.086 . S
C60 O56 1.278 . S
C60 O61 1.211 . S
O61 C60 1.211 . S
C62 O54 1.284 . S
C62 O63 1.273 . S
O63 C62 1.273 . S
O64 Zn55 1.977 . S
O64 C57 1.267 . S
C65 O66 1.160 . S
C65 O72 1.185 . S
O66 C65 1.160 . S
O67 Zn68 1.899 . S
O67 C75 1.284 . S
Zn68 O67 1.899 . S
Zn68 O69 2.032 . S
Zn68 O72 2.086 . S
Zn68 O77 1.977 . S
O69 Zn68 2.032 . S
O69 C73 1.278 . S
C70 O71 1.203 . S
C70 O77 1.267 . S
O71 C70 1.203 . S
O72 C65 1.185 . S
O72 Zn68 2.086 . S
C73 O69 1.278 . S
C73 O74 1.211 . S
O74 C73 1.211 . S
C75 O67 1.284 . S
C75 O76 1.273 . S
O76 C75 1.273 . S
O77 Zn68 1.977 . S
O77 C70 1.267 . S
C78 O79 1.160 . S
C78 O85 1.185 . S
O79 C78 1.160 . S
O80 Zn81 1.899 . S
O80 C88 1.284 . S
Zn81 O80 1.899 . S
Zn81 O82 2.032 . S
Zn81 O85 2.086 . S
Zn81 O90 1.977 . S
O82 Zn81 2.032 . S
O82 C86 1.278 . S
C83 O84 1.203 . S
C83 O90 1.267 . S
O84 C83 1.203 . S
O85 C78 1.185 . S
O85 Zn81 2.086 . S
C86 O82 1.278 . S
C86 O87 1.211 . S
O87 C86 1.211 . S
C88 O80 1.284 . S
C88 O89 1.273 . S
O89 C88 1.273 . S
O90 Zn81 1.977 . S
O90 C83 1.267 . S
C91 O92 1.160 . S
C91 O98 1.185 . S
O92 C91 1.160 . S
O93 Zn94 1.899 . S
O93 C101 1.284 . S
Zn94 O93 1.899 . S
Zn94 O95 2.032 . S
Zn94 O98 2.086 . S
Zn94 O103 1.977 1_455 S
O95 Zn94 2.032 . S
O95 C99 1.278 . S
C96 O97 1.203 . S
C96 O103 1.267 . S
O97 C96 1.203 . S
O98 C91 1.185 . S
O98 Zn94 2.086 . S
C99 O95 1.278 . S
C99 O100 1.211 . S
O100 C99 1.211 . S
C101 O93 1.284 . S
C101 O102 1.273 . S
O102 C101 1.273 . S
O103 Zn94 1.977 1_655 S
O103 C96 1.267 . S
C104 O105 1.160 . S
C104 O111 1.185 . S
O105 C104 1.160 . S
O106 Zn107 1.899 . S
O106 C114 1.283 . S
Zn107 O106 1.899 . S
Zn107 O108 2.032 . S
Zn107 O111 2.086 . S
Zn107 O116 1.977 1_545 S
O108 Zn107 2.032 . S
O108 C112 1.278 . S
C109 O110 1.203 . S
C109 O116 1.267 . S
O110 C109 1.203 . S
O111 C104 1.185 . S
O111 Zn107 2.086 . S
C112 O108 1.278 . S
C112 O113 1.211 1_545 S
O113 C112 1.211 1_565 S
C114 O106 1.283 . S
C114 O115 1.275 1_545 S
O115 C114 1.275 1_565 S
O116 Zn107 1.977 1_565 S
O116 C109 1.267 . S
C117 O118 1.160 . S
C117 O124 1.185 . S
O118 C117 1.160 . S
O119 Zn120 1.899 . S
O119 C127 1.284 . S
Zn120 O119 1.899 . S
Zn120 O121 2.032 . S
Zn120 O124 2.086 . S
Zn120 O129 1.977 . S
O121 Zn120 2.032 . S
O121 C125 1.278 . S
C122 O123 1.203 . S
C122 O129 1.267 . S
O123 C122 1.203 . S
O124 C117 1.185 . S
O124 Zn120 2.086 . S
C125 O121 1.278 . S
C125 O126 1.211 . S
O126 C125 1.211 . S
C127 O119 1.284 . S
C127 O128 1.273 . S
O128 C127 1.273 . S
O129 Zn120 1.977 . S
O129 C122 1.267 . S
C130 O131 1.160 . S
C130 O137 1.185 . S
O131 C130 1.160 . S
O132 Zn133 1.899 1_565 S
O132 C140 1.284 . S
Zn133 O132 1.899 1_545 S
Zn133 O134 2.032 1_545 S
Zn133 O137 2.086 1_545 S
Zn133 O142 1.977 . S
O134 Zn133 2.032 1_565 S
O134 C138 1.278 1_565 S
C135 O136 1.203 . S
C135 O142 1.267 . S
O136 C135 1.203 . S
O137 C130 1.185 . S
O137 Zn133 2.086 1_565 S
C138 O134 1.278 1_545 S
C138 O139 1.211 . S
O139 C138 1.211 . S
C140 O132 1.284 . S
C140 O141 1.273 1_565 S
O141 C140 1.273 1_545 S
O142 Zn133 1.977 . S
O142 C135 1.267 . S
C143 O144 1.160 . S
C143 O150 1.185 . S
O144 C143 1.160 . S
O145 Zn146 1.899 . S
O145 C153 1.284 . S
Zn146 O145 1.899 . S
Zn146 O147 2.032 1_554 S
Zn146 O150 2.086 . S
Zn146 O155 1.977 . S
O147 Zn146 2.032 1_556 S
O147 C151 1.278 . S
C148 O149 1.203 . S
C148 O155 1.267 . S
O149 C148 1.203 . S
O150 C143 1.185 . S
O150 Zn146 2.086 . S
C151 O147 1.278 . S
C151 O152 1.211 . S
O152 C151 1.211 . S
C153 O145 1.284 . S
C153 O154 1.273 . S
O154 C153 1.273 . S
O155 Zn146 1.977 . S
O155 C148 1.267 . S
C156 O157 1.160 . S
C156 O163 1.185 . S
O157 C156 1.160 . S
O158 Zn159 1.899 . S
O158 C166 1.284 . S
Zn159 O158 1.899 . S
Zn159 O160 2.032 1_554 S
Zn159 O163 2.086 . S
Zn159 O168 1.977 . S
O160 Zn159 2.032 1_556 S
O160 C164 1.278 . S
C161 O162 1.203 . S
C161 O168 1.267 . S
O162 C161 1.203 . S
O163 C156 1.185 . S
O163 Zn159 2.086 . S
C164 O160 1.278 . S
C164 O165 1.211 . S
O165 C164 1.211 . S
C166 O158 1.284 . S
C166 O167 1.273 . S
O167 C166 1.273 . S
O168 Zn159 1.977 . S
O168 C161 1.267 . S
C169 O170 1.160 . S
C169 O176 1.185 . S
O170 C169 1.160 . S
O171 Zn172 1.899 . S
O171 C179 1.284 . S
Zn172 O171 1.899 . S
Zn172 O173 2.032 1_554 S
Zn172 O176 2.086 . S
Zn172 O181 1.977 . S
O173 Zn172 2.032 1_556 S
O173 C177 1.278 . S
C174 O175 1.203 . S
C174 O181 1.267 . S
O175 C174 1.203 . S
O176 C169 1.185 . S
O176 Zn172 2.086 . S
C177 O173 1.278 . S
C177 O178 1.211 . S
O178 C177 1.211 . S
C179 O171 1.284 . S
C179 O180 1.273 . S
O180 C179 1.273 . S
O181 Zn172 1.977 . S
O181 C174 1.267 . S
C182 O183 1.160 . S
C182 O189 1.185 . S
O183 C182 1.160 . S
O184 Zn185 1.899 . S
O184 C192 1.284 . S
Zn185 O184 1.899 . S
Zn185 O186 2.032 . S
Zn185 O189 2.086 . S
Zn185 O194 1.977 . S
O186 Zn185 2.032 . S
O186 C190 1.278 . S
C187 O188 1.203 . S
C187 O194 1.267 . S
O188 C187 1.203 . S
O189 C182 1.185 . S
O189 Zn185 2.086 . S
C190 O186 1.278 . S
C190 O191 1.211 . S
O191 C190 1.211 . S
C192 O184 1.284 . S
C192 O193 1.273 . S
O193 C192 1.273 . S
O194 Zn185 1.977 . S
O194 C187 1.267 . S
C195 O196 1.160 . S
C195 O202 1.185 . S
O196 C195 1.160 . S
O197 Zn198 1.899 . S
O197 C205 1.284 . S
Zn198 O197 1.899 . S
Zn198 O199 2.032 . S
Zn198 O202 2.086 . S
Zn198 O207 1.977 . S
O199 Zn198 2.032 . S
O199 C203 1.278 . S
C200 O201 1.203 . S
C200 O207 1.267 . S
O201 C200 1.203 . S
O202 C195 1.185 . S
O202 Zn198 2.086 . S
C203 O199 1.278 . S
C203 O204 1.211 . S
O204 C203 1.211 . S
C205 O197 1.284 . S
C205 O206 1.273 . S
O206 C205 1.273 . S
O207 Zn198 1.977 . S
O207 C200 1.267 . S
C208 O209 1.160 . S
C208 O215 1.185 . S
O209 C208 1.160 . S
O210 Zn211 1.899 . S
O210 C218 1.284 . S
Zn211 O210 1.899 . S
Zn211 O212 2.032 . S
Zn211 O215 2.086 . S
Zn211 O220 1.977 . S
O212 Zn211 2.032 . S
O212 C216 1.278 . S
C213 O214 1.203 . S
C213 O220 1.267 . S
O214 C213 1.203 . S
O215 C208 1.185 . S
O215 Zn211 2.086 . S
C216 O212 1.278 . S
C216 O217 1.211 . S
O217 C216 1.211 . S
C218 O210 1.284 . S
C218 O219 1.273 . S
O219 C218 1.273 . S
O220 Zn211 1.977 . S
O220 C213 1.267 . S
C221 O222 1.160 . S
C221 O228 1.185 . S
O222 C221 1.160 . S
O223 Zn224 1.899 . S
O223 C231 1.284 . S
Zn224 O223 1.899 . S
Zn224 O225 2.032 . S
Zn224 O228 2.086 . S
Zn224 O233 1.977 . S
O225 Zn224 2.032 . S
O225 C229 1.278 . S
C226 O227 1.203 . S
C226 O233 1.267 . S
O227 C226 1.203 . S
O228 C221 1.185 . S
O228 Zn224 2.086 . S
C229 O225 1.278 . S
C229 O230 1.211 . S
O230 C229 1.211 . S
C231 O223 1.284 . S
C231 O232 1.273 . S
O232 C231 1.273 . S
O233 Zn224 1.977 . S
O233 C226 1.267 . S
C234 O235 1.160 . S
C234 O241 1.185 . S
O235 C234 1.160 . S
O236 Zn237 1.899 . S
O236 C244 1.284 . S
Zn237 O236 1.899 . S
Zn237 O238 2.032 . S
Zn237 O241 2.086 . S
Zn237 O246 1.977 . S
O238 Zn237 2.032 . S
O238 C242 1.278 . S
C239 O240 1.203 . S
C239 O246 1.267 . S
O240 C239 1.203 . S
O241 C234 1.185 . S
O241 Zn237 2.086 . S
C242 O238 1.278 . S
C242 O243 1.211 . S
O243 C242 1.211 . S
C244 O236 1.284 . S
C244 O245 1.273 . S
O245 C244 1.273 . S
O246 Zn237 1.977 . S
O246 C239 1.267 . S
C247 O248 1.160 . S
C247 O254 1.185 . S
O248 C247 1.160 . S
O249 Zn250 1.899 . S
O249 C257 1.284 . S
Zn250 O249 1.899 . S
Zn250 O251 2.032 . S
Zn250 O254 2.086 . S
Zn250 O259 1.977 . S
O251 Zn250 2.032 . S
O251 C255 1.278 . S
C252 O253 1.203 . S
C252 O259 1.267 . S
O253 C252 1.203 . S
O254 C247 1.185 . S
O254 Zn250 2.086 . S
C255 O251 1.278 . S
C255 O256 1.211 . S
O256 C255 1.211 . S
C257 O249 1.284 . S
C257 O258 1.273 . S
O258 C257 1.273 . S
O259 Zn250 1.977 . S
O259 C252 1.267 . S
C260 O261 1.160 . S
C260 O267 1.181 1_554 S
O261 C260 1.160 . S
O262 Zn263 1.899 . S
O262 C270 1.284 . S
Zn263 O262 1.899 . S
Zn263 O264 2.032 1_554 S
Zn263 O267 2.083 1_554 S
Zn263 O272 1.977 1_554 S
O264 Zn263 2.032 1_556 S
O264 C268 1.278 . S
C265 O266 1.203 . S
C265 O272 1.267 1_554 S
O266 C265 1.203 . S
O267 C260 1.181 1_556 S
O267 Zn263 2.083 1_556 S
C268 O264 1.278 . S
C268 O269 1.211 . S
O269 C268 1.211 . S
C270 O262 1.284 . S
C270 O271 1.273 . S
O271 C270 1.273 . S
O272 Zn263 1.977 1_556 S
O272 C265 1.267 1_556 S
C273 O274 1.160 . S
C273 O280 1.185 . S
O274 C273 1.160 . S
O275 Zn276 1.899 . S
O275 C283 1.284 . S
Zn276 O275 1.899 . S
Zn276 O277 2.032 . S
Zn276 O280 2.086 . S
Zn276 O285 1.977 . S
O277 Zn276 2.032 . S
O277 C281 1.278 . S
C278 O279 1.203 . S
C278 O285 1.267 . S
O279 C278 1.203 . S
O280 C273 1.185 . S
O280 Zn276 2.086 . S
C281 O277 1.278 . S
C281 O282 1.211 . S
O282 C281 1.211 . S
C283 O275 1.284 . S
C283 O284 1.273 . S
O284 C283 1.273 . S
O285 Zn276 1.977 . S
O285 C278 1.267 . S
C286 O287 1.160 . S
C286 O293 1.185 . S
O287 C286 1.160 . S
O288 Zn289 1.899 . S
O288 C296 1.284 . S
Zn289 O288 1.899 . S
Zn289 O290 2.032 . S
Zn289 O293 2.086 . S
Zn289 O298 1.977 . S
O290 Zn289 2.032 . S
O290 C294 1.278 . S
C291 O292 1.203 . S
C291 O298 1.267 . S
O292 C291 1.203 . S
O293 C286 1.185 . S
O293 Zn289 2.086 . S
C294 O290 1.278 . S
C294 O295 1.211 . S
O295 C294 1.211 . S
C296 O288 1.284 . S
C296 O297 1.273 . S
O297 C296 1.273 . S
O298 Zn289 1.977 . S
O298 C291 1.267 . S
C299 O300 1.160 . S
C299 O306 1.185 . S
O300 C299 1.160 . S
O301 Zn302 1.899 . S
O301 C309 1.284 . S
Zn302 O301 1.899 . S
Zn302 O303 2.032 . S
Zn302 O306 2.086 . S
Zn302 O311 1.977 . S
O303 Zn302 2.032 . S
O303 C307 1.278 . S
C304 O305 1.203 . S
C304 O311 1.267 . S
O305 C304 1.203 . S
O306 C299 1.185 . S
O306 Zn302 2.086 . S
C307 O303 1.278 . S
C307 O308 1.211 . S
O308 C307 1.211 . S
C309 O301 1.284 . S
C309 O310 1.273 . S
O310 C309 1.273 . S
O311 Zn302 1.977 . S
O311 C304 1.267 . S
Gd312 C315 2.818 1_455 S
Gd312 O332 2.377 . S
Gd312 O334 2.448 1_455 S
Gd312 O335 2.506 1_456 S
Gd312 O336 2.435 . S
Gd312 O337 2.717 . S
Gd312 O339 2.395 1_546 S
Gd312 O343 2.327 1_556 S
Gd313 C324 2.818 . S
Gd313 O333 2.395 . S
Gd313 O337 2.327 1_554 S
Gd313 O338 2.377 . S
Gd313 O340 2.448 . S
Gd313 O341 2.506 . S
Gd313 O342 2.435 . S
Gd313 O343 2.717 . S
C314 O332 1.240 1_554 S
C314 O333 1.240 . S
C315 Gd312 2.818 1_655 S
C315 C316 1.510 . S
C315 O334 1.249 . S
C315 O335 1.252 1_556 S
C316 C315 1.510 . S
C316 C317 1.404 . S
C316 C318 1.352 . S
C317 C316 1.404 . S
C317 C321 1.389 . S
C317 H344 0.930 . S
C318 C316 1.352 . S
C318 C320 1.374 . S
C318 H345 0.931 1_556 S
C319 C320 1.359 . S
C319 C321 1.364 . S
C320 C318 1.374 . S
C320 C319 1.359 . S
C320 H346 0.931 1_556 S
C321 C317 1.389 . S
C321 C319 1.364 . S
C321 H347 0.931 . S
C322 O336 1.256 . S
C322 O337 1.257 . S
C323 O338 1.240 1_565 S
C323 O339 1.240 . S
C324 Gd313 2.818 . S
C324 C325 1.510 . S
C324 O340 1.249 . S
C324 O341 1.252 . S
C325 C324 1.510 . S
C325 C326 1.404 . S
C325 C327 1.352 . S
C326 C325 1.404 . S
C326 C330 1.389 . S
C326 H348 0.930 . S
C327 C325 1.352 . S
C327 C329 1.374 1_545 S
C327 H349 0.931 1_545 S
C328 C329 1.359 1_545 S
C328 C330 1.364 . S
C329 C327 1.374 1_565 S
C329 C328 1.359 1_565 S
C329 H350 0.931 . S
C330 C326 1.389 . S
C330 C328 1.364 . S
C330 H351 0.931 . S
C331 O342 1.256 . S
C331 O343 1.257 . S
O332 Gd312 2.377 . S
O332 C314 1.240 1_556 S
O333 Gd313 2.395 . S
O333 C314 1.240 . S
O334 Gd312 2.448 1_655 S
O334 C315 1.249 . S
O335 Gd312 2.506 1_654 S
O335 C315 1.252 1_554 S
O336 Gd312 2.435 . S
O336 C322 1.256 . S
O337 Gd312 2.717 . S
O337 Gd313 2.327 1_556 S
O337 C322 1.257 . S
O338 Gd313 2.377 . S
O338 C323 1.240 1_545 S
O339 Gd312 2.395 1_564 S
O339 C323 1.240 . S
O340 Gd313 2.448 . S
O340 C324 1.249 . S
O341 Gd313 2.506 . S
O341 C324 1.252 . S
O342 Gd313 2.435 . S
O342 C331 1.256 . S
O343 Gd312 2.327 1_554 S
O343 Gd313 2.717 . S
O343 C331 1.257 . S
H344 C317 0.930 . S
H345 C318 0.931 1_554 S
H346 C320 0.931 1_554 S
H347 C321 0.931 . S
H348 C326 0.930 . S
H349 C327 0.931 1_565 S
H350 C329 0.931 . S
H351 C330 0.931 . S
Gd352 C355 2.818 . S
Gd352 O372 2.377 . S
Gd352 O374 2.448 . S
Gd352 O375 2.506 . S
Gd352 O376 2.435 . S
Gd352 O377 2.717 . S
Gd352 O379 2.395 . S
Gd352 O383 2.327 . S
Gd353 C364 2.818 . S
Gd353 O373 2.395 . S
Gd353 O377 2.327 . S
Gd353 O378 2.377 . S
Gd353 O380 2.448 . S
Gd353 O381 2.506 . S
Gd353 O382 2.435 . S
Gd353 O383 2.717 . S
C354 O372 1.240 . S
C354 O373 1.240 . S
C355 Gd352 2.818 . S
C355 C356 1.510 . S
C355 O374 1.249 . S
C355 O375 1.252 . S
C356 C355 1.510 . S
C356 C357 1.404 . S
C356 C358 1.352 . S
C357 C356 1.404 . S
C357 C361 1.389 . S
C357 H384 0.930 . S
C358 C356 1.352 . S
C358 C360 1.374 . S
C358 H385 0.931 . S
C359 C360 1.359 . S
C359 C361 1.364 . S
C360 C358 1.374 . S
C360 C359 1.359 . S
C360 H386 0.931 . S
C361 C357 1.389 . S
C361 C359 1.364 . S
C361 H387 0.931 . S
C362 O376 1.256 . S
C362 O377 1.257 . S
C363 O378 1.240 . S
C363 O379 1.240 . S
C364 Gd353 2.818 . S
C364 C365 1.510 . S
C364 O380 1.249 . S
C364 O381 1.252 . S
C365 C364 1.510 . S
C365 C366 1.404 . S
C365 C367 1.352 . S
C366 C365 1.404 . S
C366 C370 1.389 . S
C366 H388 0.930 . S
C367 C365 1.352 . S
C367 C369 1.374 . S
C367 H389 0.931 . S
C368 C369 1.359 . S
C368 C370 1.364 . S
C369 C367 1.374 . S
C369 C368 1.359 . S
C369 H390 0.931 . S
C370 C366 1.389 . S
C370 C368 1.364 . S
C370 H391 0.931 . S
C371 O382 1.256 . S
C371 O383 1.257 . S
O372 Gd352 2.377 . S
O372 C354 1.240 . S
O373 Gd353 2.395 . S
O373 C354 1.240 . S
O374 Gd352 2.448 . S
O374 C355 1.249 . S
O375 Gd352 2.506 . S
O375 C355 1.252 . S
O376 Gd352 2.435 . S
O376 C362 1.256 . S
O377 Gd352 2.717 . S
O377 Gd353 2.327 . S
O377 C362 1.257 . S
O378 Gd353 2.377 . S
O378 C363 1.240 . S
O379 Gd352 2.395 . S
O379 C363 1.240 . S
O380 Gd353 2.448 . S
O380 C364 1.249 . S
O381 Gd353 2.506 . S
O381 C364 1.252 . S
O382 Gd353 2.435 . S
O382 C371 1.256 . S
O383 Gd352 2.327 . S
O383 Gd353 2.717 . S
O383 C371 1.257 . S
H384 C357 0.930 . S
H385 C358 0.931 . S
H386 C360 0.931 . S
H387 C361 0.931 . S
H388 C366 0.930 . S
H389 C367 0.931 . S
H390 C369 0.931 . S
H391 C370 0.931 . S
Gd392 C395 2.818 . S
Gd392 O412 2.355 1_545 S
Gd392 O414 2.448 . S
Gd392 O415 2.506 . S
Gd392 O416 2.435 . S
Gd392 O417 2.717 . S
Gd392 O419 2.395 . S
Gd392 O423 2.327 . S
Gd393 C404 2.818 . S
Gd393 O413 2.395 1_545 S
Gd393 O417 2.327 . S
Gd393 O418 2.377 . S
Gd393 O420 2.448 . S
Gd393 O421 2.506 . S
Gd393 O422 2.435 . S
Gd393 O423 2.717 . S
C394 O412 1.254 . S
C394 O413 1.240 . S
C395 Gd392 2.818 . S
C395 C396 1.510 1_545 S
C395 O414 1.249 . S
C395 O415 1.252 . S
C396 C395 1.510 1_565 S
C396 C397 1.404 . S
C396 C398 1.352 . S
C397 C396 1.404 . S
C397 C401 1.389 . S
C397 H424 0.930 1_565 S
C398 C396 1.352 . S
C398 C400 1.374 . S
C398 H425 0.931 . S
C399 C400 1.359 . S
C399 C401 1.364 . S
C400 C398 1.374 . S
C400 C399 1.359 . S
C400 H426 0.931 . S
C401 C397 1.389 . S
C401 C399 1.364 . S
C401 H427 0.931 . S
C402 O416 1.256 . S
C402 O417 1.257 . S
C403 O418 1.240 . S
C403 O419 1.240 . S
C404 Gd393 2.818 . S
C404 C405 1.510 . S
C404 O420 1.249 . S
C404 O421 1.252 . S
C405 C404 1.510 . S
C405 C406 1.404 . S
C405 C407 1.352 . S
C406 C405 1.404 . S
C406 C410 1.389 . S
C406 H428 0.930 . S
C407 C405 1.352 . S
C407 C409 1.374 . S
C407 H429 0.931 . S
C408 C409 1.359 . S
C408 C410 1.364 . S
C409 C407 1.374 . S
C409 C408 1.359 . S
C409 H430 0.931 . S
C410 C406 1.389 . S
C410 C408 1.364 . S
C410 H431 0.931 . S
C411 O422 1.256 . S
C411 O423 1.257 . S
O412 Gd392 2.355 1_565 S
O412 C394 1.254 . S
O413 Gd393 2.395 1_565 S
O413 C394 1.240 . S
O414 Gd392 2.448 . S
O414 C395 1.249 . S
O415 Gd392 2.506 . S
O415 C395 1.252 . S
O416 Gd392 2.435 . S
O416 C402 1.256 . S
O417 Gd392 2.717 . S
O417 Gd393 2.327 . S
O417 C402 1.257 . S
O418 Gd393 2.377 . S
O418 C403 1.240 . S
O419 Gd392 2.395 . S
O419 C403 1.240 . S
O420 Gd393 2.448 . S
O420 C404 1.249 . S
O421 Gd393 2.506 . S
O421 C404 1.252 . S
O422 Gd393 2.435 . S
O422 C411 1.256 . S
O423 Gd392 2.327 . S
O423 Gd393 2.717 . S
O423 C411 1.257 . S
H424 C397 0.930 1_545 S
H425 C398 0.931 . S
H426 C400 0.931 . S
H427 C401 0.931 . S
H428 C406 0.930 . S
H429 C407 0.931 . S
H430 C409 0.931 . S
H431 C410 0.931 . S
Gd432 C435 2.818 . S
Gd432 O452 2.377 . S
Gd432 O454 2.448 . S
Gd432 O455 2.506 . S
Gd432 O456 2.435 . S
Gd432 O457 2.717 . S
Gd432 O459 2.395 . S
Gd432 O463 2.327 . S
Gd433 C444 2.818 . S
Gd433 O453 2.395 . S
Gd433 O457 2.327 . S
Gd433 O458 2.377 . S
Gd433 O460 2.448 . S
Gd433 O461 2.506 . S
Gd433 O462 2.435 . S
Gd433 O463 2.717 . S
C434 O452 1.240 . S
C434 O453 1.240 . S
C435 Gd432 2.818 . S
C435 C436 1.510 . S
C435 O454 1.249 . S
C435 O455 1.252 . S
C436 C435 1.510 . S
C436 C437 1.404 . S
C436 C438 1.352 . S
C437 C436 1.404 . S
C437 C441 1.389 . S
C437 H464 0.930 . S
C438 C436 1.352 . S
C438 C440 1.374 . S
C438 H465 0.931 . S
C439 C440 1.359 . S
C439 C441 1.364 . S
C440 C438 1.374 . S
C440 C439 1.359 . S
C440 H466 0.931 . S
C441 C437 1.389 . S
C441 C439 1.364 . S
C441 H467 0.931 . S
C442 O456 1.256 . S
C442 O457 1.257 . S
C443 O458 1.240 . S
C443 O459 1.240 . S
C444 Gd433 2.818 . S
C444 C445 1.510 . S
C444 O460 1.249 . S
C444 O461 1.252 . S
C445 C444 1.510 . S
C445 C446 1.404 . S
C445 C447 1.352 . S
C446 C445 1.404 . S
C446 C450 1.389 . S
C446 H468 0.930 . S
C447 C445 1.352 . S
C447 C449 1.374 . S
C447 H469 0.931 . S
C448 C449 1.359 . S
C448 C450 1.364 . S
C449 C447 1.374 . S
C449 C448 1.359 . S
C449 H470 0.931 . S
C450 C446 1.389 . S
C450 C448 1.364 . S
C450 H471 0.931 . S
C451 O462 1.256 . S
C451 O463 1.257 . S
O452 Gd432 2.377 . S
O452 C434 1.240 . S
O453 Gd433 2.395 . S
O453 C434 1.240 . S
O454 Gd432 2.448 . S
O454 C435 1.249 . S
O455 Gd432 2.506 . S
O455 C435 1.252 . S
O456 Gd432 2.435 . S
O456 C442 1.256 . S
O457 Gd432 2.717 . S
O457 Gd433 2.327 . S
O457 C442 1.257 . S
O458 Gd433 2.377 . S
O458 C443 1.240 . S
O459 Gd432 2.395 . S
O459 C443 1.240 . S
O460 Gd433 2.448 . S
O460 C444 1.249 . S
O461 Gd433 2.506 . S
O461 C444 1.252 . S
O462 Gd433 2.435 . S
O462 C451 1.256 . S
O463 Gd432 2.327 . S
O463 Gd433 2.717 . S
O463 C451 1.257 . S
H464 C437 0.930 . S
H465 C438 0.931 . S
H466 C440 0.931 . S
H467 C441 0.931 . S
H468 C446 0.930 . S
H469 C447 0.931 . S
H470 C449 0.931 . S
H471 C450 0.931 . S
Gd472 C475 2.818 . S
Gd472 O492 2.377 . S
Gd472 O494 2.448 . S
Gd472 O495 2.506 . S
Gd472 O496 2.435 . S
Gd472 O497 2.717 . S
Gd472 O499 2.395 . S
Gd472 O503 2.327 . S
Gd473 C484 2.818 1_545 S
Gd473 O493 2.395 . S
Gd473 O497 2.327 . S
Gd473 O498 2.377 . S
Gd473 O500 2.448 1_545 S
Gd473 O501 2.506 1_545 S
Gd473 O502 2.435 . S
Gd473 O503 2.717 . S
C474 O492 1.240 . S
C474 O493 1.240 . S
C475 Gd472 2.818 . S
C475 C476 1.510 . S
C475 O494 1.249 . S
C475 O495 1.252 . S
C476 C475 1.510 . S
C476 C477 1.404 . S
C476 C478 1.352 . S
C477 C476 1.404 . S
C477 C481 1.389 . S
C477 H504 0.930 . S
C478 C476 1.352 . S
C478 C480 1.374 . S
C478 H505 0.931 . S
C479 C480 1.359 . S
C479 C481 1.364 . S
C480 C478 1.374 . S
C480 C479 1.359 . S
C480 H506 0.931 . S
C481 C477 1.389 . S
C481 C479 1.364 . S
C481 H507 0.931 . S
C482 O496 1.256 . S
C482 O497 1.257 . S
C483 O498 1.240 . S
C483 O499 1.240 . S
C484 Gd473 2.818 1_565 S
C484 C485 1.510 . S
C484 O500 1.249 . S
C484 O501 1.252 . S
C485 C484 1.510 . S
C485 C486 1.404 . S
C485 C487 1.352 . S
C486 C485 1.404 . S
C486 C490 1.389 . S
C486 H508 0.930 . S
C487 C485 1.352 . S
C487 C489 1.374 . S
C487 H509 0.931 . S
C488 C489 1.359 . S
C488 C490 1.364 . S
C489 C487 1.374 . S
C489 C488 1.359 . S
C489 H510 0.931 . S
C490 C486 1.389 . S
C490 C488 1.364 . S
C490 H511 0.931 . S
C491 O502 1.256 . S
C491 O503 1.257 . S
O492 Gd472 2.377 . S
O492 C474 1.240 . S
O493 Gd473 2.395 . S
O493 C474 1.240 . S
O494 Gd472 2.448 . S
O494 C475 1.249 . S
O495 Gd472 2.506 . S
O495 C475 1.252 . S
O496 Gd472 2.435 . S
O496 C482 1.256 . S
O497 Gd472 2.717 . S
O497 Gd473 2.327 . S
O497 C482 1.257 . S
O498 Gd473 2.377 . S
O498 C483 1.240 . S
O499 Gd472 2.395 . S
O499 C483 1.240 . S
O500 Gd473 2.448 1_565 S
O500 C484 1.249 . S
O501 Gd473 2.506 1_565 S
O501 C484 1.252 . S
O502 Gd473 2.435 . S
O502 C491 1.256 . S
O503 Gd472 2.327 . S
O503 Gd473 2.717 . S
O503 C491 1.257 . S
H504 C477 0.930 . S
H505 C478 0.931 . S
H506 C480 0.931 . S
H507 C481 0.931 . S
H508 C486 0.930 . S
H509 C487 0.931 . S
H510 C489 0.931 . S
H511 C490 0.931 . S
Gd512 C515 2.818 . S
Gd512 O532 2.377 . S
Gd512 O534 2.448 . S
Gd512 O535 2.506 . S
Gd512 O536 2.435 . S
Gd512 O537 2.717 . S
Gd512 O539 2.395 . S
Gd512 O543 2.327 . S
Gd513 C524 2.818 . S
Gd513 O533 2.395 . S
Gd513 O537 2.327 . S
Gd513 O538 2.377 . S
Gd513 O540 2.448 . S
Gd513 O541 2.506 . S
Gd513 O542 2.435 . S
Gd513 O543 2.717 . S
C514 O532 1.240 . S
C514 O533 1.240 . S
C515 Gd512 2.818 . S
C515 C516 1.510 . S
C515 O534 1.249 . S
C515 O535 1.252 . S
C516 C515 1.510 . S
C516 C517 1.404 . S
C516 C518 1.352 . S
C517 C516 1.404 . S
C517 C521 1.389 . S
C517 H544 0.930 . S
C518 C516 1.352 . S
C518 C520 1.374 . S
C518 H545 0.931 . S
C519 C520 1.359 . S
C519 C521 1.364 . S
C520 C518 1.374 . S
C520 C519 1.359 . S
C520 H546 0.931 . S
C521 C517 1.389 . S
C521 C519 1.364 . S
C521 H547 0.931 . S
C522 O536 1.256 . S
C522 O537 1.257 . S
C523 O538 1.240 . S
C523 O539 1.240 . S
C524 Gd513 2.818 . S
C524 C525 1.510 . S
C524 O540 1.249 . S
C524 O541 1.252 . S
C525 C524 1.510 . S
C525 C526 1.404 . S
C525 C527 1.352 . S
C526 C525 1.404 . S
C526 C530 1.389 . S
C526 H548 0.930 . S
C527 C525 1.352 . S
C527 C529 1.374 . S
C527 H549 0.931 . S
C528 C529 1.359 . S
C528 C530 1.364 . S
C529 C527 1.374 . S
C529 C528 1.359 . S
C529 H550 0.931 . S
C530 C526 1.389 . S
C530 C528 1.364 . S
C530 H551 0.931 . S
C531 O542 1.256 . S
C531 O543 1.257 . S
O532 Gd512 2.377 . S
O532 C514 1.240 . S
O533 Gd513 2.395 . S
O533 C514 1.240 . S
O534 Gd512 2.448 . S
O534 C515 1.249 . S
O535 Gd512 2.506 . S
O535 C515 1.252 . S
O536 Gd512 2.435 . S
O536 C522 1.256 . S
O537 Gd512 2.717 . S
O537 Gd513 2.327 . S
O537 C522 1.257 . S
O538 Gd513 2.377 . S
O538 C523 1.240 . S
O539 Gd512 2.395 . S
O539 C523 1.240 . S
O540 Gd513 2.448 . S
O540 C524 1.249 . S
O541 Gd513 2.506 . S
O541 C524 1.252 . S
O542 Gd513 2.435 . S
O542 C531 1.256 . S
O543 Gd512 2.327 . S
O543 Gd513 2.717 . S
O543 C531 1.257 . S
H544 C517 0.930 . S
H545 C518 0.931 . S
H546 C520 0.931 . S
H547 C521 0.931 . S
H548 C526 0.930 . S
H549 C527 0.931 . S
H550 C529 0.931 . S
H551 C530 0.931 . S
Gd552 C555 2.818 . S
Gd552 O572 2.377 . S
Gd552 O574 2.448 1_545 S
Gd552 O575 2.506 . S
Gd552 O576 2.435 1_545 S
Gd552 O577 2.683 1_554 S
Gd552 O579 2.395 . S
Gd552 O583 2.327 . S
Gd553 C564 2.818 . S
Gd553 O573 2.395 . S
Gd553 O577 2.345 . S
Gd553 O578 2.377 1_556 S
Gd553 O580 2.448 . S
Gd553 O581 2.506 . S
Gd553 O582 2.435 1_556 S
Gd553 O583 2.717 1_556 S
C554 O572 1.240 . S
C554 O573 1.240 1_554 S
C555 Gd552 2.818 . S
C555 C556 1.515 . S
C555 O574 1.249 1_545 S
C555 O575 1.252 . S
C556 C555 1.515 . S
C556 C557 1.389 1_545 S
C556 C558 1.362 . S
C557 C556 1.389 1_565 S
C557 C561 1.389 . S
C557 H584 0.930 . S
C558 C556 1.362 . S
C558 C560 1.374 . S
C558 H585 0.931 . S
C559 C560 1.359 1_565 S
C559 C561 1.364 . S
C560 C558 1.374 . S
C560 C559 1.359 1_545 S
C560 H586 0.931 . S
C561 C557 1.389 . S
C561 C559 1.364 . S
C561 H587 0.931 . S
C562 O576 1.256 . S
C562 O577 1.246 1_564 S
C563 O578 1.240 . S
C563 O579 1.240 . S
C564 Gd553 2.818 . S
C564 C565 1.510 . S
C564 O580 1.249 . S
C564 O581 1.252 . S
C565 C564 1.510 . S
C565 C566 1.404 . S
C565 C567 1.352 . S
C566 C565 1.404 . S
C566 C570 1.389 . S
C566 H588 0.930 . S
C567 C565 1.352 . S
C567 C569 1.374 . S
C567 H589 0.931 . S
C568 C569 1.359 . S
C568 C570 1.364 . S
C569 C567 1.374 . S
C569 C568 1.359 . S
C569 H590 0.931 . S
C570 C566 1.389 . S
C570 C568 1.364 . S
C570 H591 0.931 . S
C571 O582 1.256 . S
C571 O583 1.257 . S
O572 Gd552 2.377 . S
O572 C554 1.240 . S
O573 Gd553 2.395 . S
O573 C554 1.240 1_556 S
O574 Gd552 2.448 1_565 S
O574 C555 1.249 1_565 S
O575 Gd552 2.506 . S
O575 C555 1.252 . S
O576 Gd552 2.435 1_565 S
O576 C562 1.256 . S
O577 Gd552 2.683 1_556 S
O577 Gd553 2.345 . S
O577 C562 1.246 1_546 S
O578 Gd553 2.377 1_554 S
O578 C563 1.240 . S
O579 Gd552 2.395 . S
O579 C563 1.240 . S
O580 Gd553 2.448 . S
O580 C564 1.249 . S
O581 Gd553 2.506 . S
O581 C564 1.252 . S
O582 Gd553 2.435 1_554 S
O582 C571 1.256 . S
O583 Gd552 2.327 . S
O583 Gd553 2.717 1_554 S
O583 C571 1.257 . S
H584 C557 0.930 . S
H585 C558 0.931 . S
H586 C560 0.931 . S
H587 C561 0.931 . S
H588 C566 0.930 . S
H589 C567 0.931 . S
H590 C569 0.931 . S
H591 C570 0.931 . S
Gd592 C595 2.818 . S
Gd592 O612 2.377 . S
Gd592 O614 2.448 . S
Gd592 O615 2.506 . S
Gd592 O616 2.435 . S
Gd592 O617 2.717 . S
Gd592 O619 2.395 . S
Gd592 O623 2.327 . S
Gd593 C604 2.818 . S
Gd593 O613 2.395 . S
Gd593 O617 2.327 . S
Gd593 O618 2.377 . S
Gd593 O620 2.448 . S
Gd593 O621 2.506 . S
Gd593 O622 2.435 . S
Gd593 O623 2.717 . S
C594 O612 1.240 . S
C594 O613 1.240 . S
C595 Gd592 2.818 . S
C595 C596 1.510 . S
C595 O614 1.249 . S
C595 O615 1.252 . S
C596 C595 1.510 . S
C596 C597 1.404 . S
C596 C598 1.352 . S
C597 C596 1.404 . S
C597 C601 1.389 . S
C597 H624 0.930 . S
C598 C596 1.352 . S
C598 C600 1.374 . S
C598 H625 0.931 . S
C599 C600 1.359 . S
C599 C601 1.364 . S
C600 C598 1.374 . S
C600 C599 1.359 . S
C600 H626 0.931 . S
C601 C597 1.389 . S
C601 C599 1.364 . S
C601 H627 0.931 . S
C602 O616 1.256 . S
C602 O617 1.257 . S
C603 O618 1.240 . S
C603 O619 1.240 . S
C604 Gd593 2.818 . S
C604 C605 1.510 . S
C604 O620 1.249 . S
C604 O621 1.252 . S
C605 C604 1.510 . S
C605 C606 1.404 . S
C605 C607 1.352 . S
C606 C605 1.404 . S
C606 C610 1.389 . S
C606 H628 0.930 . S
C607 C605 1.352 . S
C607 C609 1.374 . S
C607 H629 0.931 . S
C608 C609 1.359 . S
C608 C610 1.364 . S
C609 C607 1.374 . S
C609 C608 1.359 . S
C609 H630 0.931 . S
C610 C606 1.389 . S
C610 C608 1.364 . S
C610 H631 0.931 . S
C611 O622 1.256 . S
C611 O623 1.257 . S
O612 Gd592 2.377 . S
O612 C594 1.240 . S
O613 Gd593 2.395 . S
O613 C594 1.240 . S
O614 Gd592 2.448 . S
O614 C595 1.249 . S
O615 Gd592 2.506 . S
O615 C595 1.252 . S
O616 Gd592 2.435 . S
O616 C602 1.256 . S
O617 Gd592 2.717 . S
O617 Gd593 2.327 . S
O617 C602 1.257 . S
O618 Gd593 2.377 . S
O618 C603 1.240 . S
O619 Gd592 2.395 . S
O619 C603 1.240 . S
O620 Gd593 2.448 . S
O620 C604 1.249 . S
O621 Gd593 2.506 . S
O621 C604 1.252 . S
O622 Gd593 2.435 . S
O622 C611 1.256 . S
O623 Gd592 2.327 . S
O623 Gd593 2.717 . S
O623 C611 1.257 . S
H624 C597 0.930 . S
H625 C598 0.931 . S
H626 C600 0.931 . S
H627 C601 0.931 . S
H628 C606 0.930 . S
H629 C607 0.931 . S
H630 C609 0.931 . S
H631 C610 0.931 . S
Gd632 C635 2.818 . S
Gd632 O652 2.377 1_554 S
Gd632 O654 2.448 . S
Gd632 O655 2.506 . S
Gd632 O656 2.435 . S
Gd632 O657 2.717 . S
Gd632 O659 2.395 . S
Gd632 O663 2.327 . S
Gd633 C644 2.818 . S
Gd633 O653 2.395 1_554 S
Gd633 O657 2.327 . S
Gd633 O658 2.377 . S
Gd633 O660 2.448 . S
Gd633 O661 2.506 . S
Gd633 O662 2.435 . S
Gd633 O663 2.717 . S
C634 O652 1.240 . S
C634 O653 1.240 . S
C635 Gd632 2.818 . S
C635 C636 1.510 1_554 S
C635 O654 1.249 . S
C635 O655 1.252 . S
C636 C635 1.510 1_556 S
C636 C637 1.404 . S
C636 C638 1.352 . S
C637 C636 1.404 . S
C637 C641 1.389 . S
C637 H664 0.930 1_556 S
C638 C636 1.352 . S
C638 C640 1.374 . S
C638 H665 0.931 . S
C639 C640 1.359 . S
C639 C641 1.364 . S
C640 C638 1.374 . S
C640 C639 1.359 . S
C640 H666 0.931 . S
C641 C637 1.389 . S
C641 C639 1.364 . S
C641 H667 0.931 . S
C642 O656 1.256 . S
C642 O657 1.257 . S
C643 O658 1.240 . S
C643 O659 1.240 . S
C644 Gd633 2.818 . S
C644 C645 1.510 . S
C644 O660 1.249 . S
C644 O661 1.252 . S
C645 C644 1.510 . S
C645 C646 1.404 . S
C645 C647 1.352 . S
C646 C645 1.404 . S
C646 C650 1.389 . S
C646 H668 0.930 . S
C647 C645 1.352 . S
C647 C649 1.374 . S
C647 H669 0.931 . S
C648 C649 1.359 . S
C648 C650 1.364 . S
C649 C647 1.374 . S
C649 C648 1.359 . S
C649 H670 0.931 . S
C650 C646 1.389 . S
C650 C648 1.364 . S
C650 H671 0.931 . S
C651 O662 1.256 . S
C651 O663 1.257 . S
O652 Gd632 2.377 1_556 S
O652 C634 1.240 . S
O653 Gd633 2.395 1_556 S
O653 C634 1.240 . S
O654 Gd632 2.448 . S
O654 C635 1.249 . S
O655 Gd632 2.506 . S
O655 C635 1.252 . S
O656 Gd632 2.435 . S
O656 C642 1.256 . S
O657 Gd632 2.717 . S
O657 Gd633 2.327 . S
O657 C642 1.257 . S
O658 Gd633 2.377 . S
O658 C643 1.240 . S
O659 Gd632 2.395 . S
O659 C643 1.240 . S
O660 Gd633 2.448 . S
O660 C644 1.249 . S
O661 Gd633 2.506 . S
O661 C644 1.252 . S
O662 Gd633 2.435 . S
O662 C651 1.256 . S
O663 Gd632 2.327 . S
O663 Gd633 2.717 . S
O663 C651 1.257 . S
H664 C637 0.930 1_554 S
H665 C638 0.931 . S
H666 C640 0.931 . S
H667 C641 0.931 . S
H668 C646 0.930 . S
H669 C647 0.931 . S
H670 C649 0.931 . S
H671 C650 0.931 . S
Gd672 C675 2.818 . S
Gd672 O692 2.377 . S
Gd672 O694 2.448 . S
Gd672 O695 2.506 . S
Gd672 O696 2.435 . S
Gd672 O697 2.717 . S
Gd672 O699 2.395 . S
Gd672 O703 2.327 . S
Gd673 C684 2.818 . S
Gd673 O693 2.395 . S
Gd673 O697 2.327 . S
Gd673 O698 2.377 . S
Gd673 O700 2.448 . S
Gd673 O701 2.506 . S
Gd673 O702 2.435 . S
Gd673 O703 2.717 . S
C674 O692 1.240 . S
C674 O693 1.240 . S
C675 Gd672 2.818 . S
C675 C676 1.510 . S
C675 O694 1.249 . S
C675 O695 1.252 . S
C676 C675 1.510 . S
C676 C677 1.404 . S
C676 C678 1.352 . S
C677 C676 1.404 . S
C677 C681 1.389 . S
C677 H704 0.930 . S
C678 C676 1.352 . S
C678 C680 1.374 . S
C678 H705 0.931 . S
C679 C680 1.359 . S
C679 C681 1.364 . S
C680 C678 1.374 . S
C680 C679 1.359 . S
C680 H706 0.931 . S
C681 C677 1.389 . S
C681 C679 1.364 . S
C681 H707 0.931 . S
C682 O696 1.256 . S
C682 O697 1.257 . S
C683 O698 1.240 . S
C683 O699 1.240 . S
C684 Gd673 2.818 . S
C684 C685 1.510 . S
C684 O700 1.249 . S
C684 O701 1.252 . S
C685 C684 1.510 . S
C685 C686 1.404 . S
C685 C687 1.352 . S
C686 C685 1.404 . S
C686 C690 1.389 . S
C686 H708 0.930 . S
C687 C685 1.352 . S
C687 C689 1.374 . S
C687 H709 0.931 . S
C688 C689 1.359 . S
C688 C690 1.364 . S
C689 C687 1.374 . S
C689 C688 1.359 . S
C689 H710 0.931 . S
C690 C686 1.389 . S
C690 C688 1.364 . S
C690 H711 0.931 . S
C691 O702 1.256 . S
C691 O703 1.257 . S
O692 Gd672 2.377 . S
O692 C674 1.240 . S
O693 Gd673 2.395 . S
O693 C674 1.240 . S
O694 Gd672 2.448 . S
O694 C675 1.249 . S
O695 Gd672 2.506 . S
O695 C675 1.252 . S
O696 Gd672 2.435 . S
O696 C682 1.256 . S
O697 Gd672 2.717 . S
O697 Gd673 2.327 . S
O697 C682 1.257 . S
O698 Gd673 2.377 . S
O698 C683 1.240 . S
O699 Gd672 2.395 . S
O699 C683 1.240 . S
O700 Gd673 2.448 . S
O700 C684 1.249 . S
O701 Gd673 2.506 . S
O701 C684 1.252 . S
O702 Gd673 2.435 . S
O702 C691 1.256 . S
O703 Gd672 2.327 . S
O703 Gd673 2.717 . S
O703 C691 1.257 . S
H704 C677 0.930 . S
H705 C678 0.931 . S
H706 C680 0.931 . S
H707 C681 0.931 . S
H708 C686 0.930 . S
H709 C687 0.931 . S
H710 C689 0.931 . S
H711 C690 0.931 . S
Gd712 C715 2.818 . S
Gd712 O732 2.377 . S
Gd712 O734 2.448 . S
Gd712 O735 2.506 . S
Gd712 O736 2.435 . S
Gd712 O737 2.717 . S
Gd712 O739 2.395 . S
Gd712 O743 2.327 . S
Gd713 C724 2.818 . S
Gd713 O733 2.395 . S
Gd713 O737 2.327 . S
Gd713 O738 2.377 . S
Gd713 O740 2.448 . S
Gd713 O741 2.506 . S
Gd713 O742 2.435 . S
Gd713 O743 2.717 . S
C714 O732 1.240 . S
C714 O733 1.240 . S
C715 Gd712 2.818 . S
C715 C716 1.510 . S
C715 O734 1.249 . S
C715 O735 1.252 . S
C716 C715 1.510 . S
C716 C717 1.404 . S
C716 C718 1.352 . S
C717 C716 1.404 . S
C717 C721 1.389 . S
C717 H744 0.930 . S
C718 C716 1.352 . S
C718 C720 1.374 1_455 S
C718 H745 0.931 . S
C719 C720 1.359 . S
C719 C721 1.364 1_655 S
C720 C718 1.374 1_655 S
C720 C719 1.359 . S
C720 H746 0.931 . S
C721 C717 1.389 . S
C721 C719 1.364 1_455 S
C721 H747 0.931 . S
C722 O736 1.256 . S
C722 O737 1.257 . S
C723 O738 1.240 . S
C723 O739 1.240 . S
C724 Gd713 2.818 . S
C724 C725 1.510 . S
C724 O740 1.249 . S
C724 O741 1.252 . S
C725 C724 1.510 . S
C725 C726 1.404 . S
C725 C727 1.352 . S
C726 C725 1.404 . S
C726 C730 1.389 . S
C726 H748 0.930 . S
C727 C725 1.352 . S
C727 C729 1.374 . S
C727 H749 0.931 . S
C728 C729 1.359 . S
C728 C730 1.364 . S
C729 C727 1.374 . S
C729 C728 1.359 . S
C729 H750 0.931 . S
C730 C726 1.389 . S
C730 C728 1.364 . S
C730 H751 0.931 . S
C731 O742 1.256 . S
C731 O743 1.257 . S
O732 Gd712 2.377 . S
O732 C714 1.240 . S
O733 Gd713 2.395 . S
O733 C714 1.240 . S
O734 Gd712 2.448 . S
O734 C715 1.249 . S
O735 Gd712 2.506 . S
O735 C715 1.252 . S
O736 Gd712 2.435 . S
O736 C722 1.256 . S
O737 Gd712 2.717 . S
O737 Gd713 2.327 . S
O737 C722 1.257 . S
O738 Gd713 2.377 . S
O738 C723 1.240 . S
O739 Gd712 2.395 . S
O739 C723 1.240 . S
O740 Gd713 2.448 . S
O740 C724 1.249 . S
O741 Gd713 2.506 . S
O741 C724 1.252 . S
O742 Gd713 2.435 . S
O742 C731 1.256 . S
O743 Gd712 2.327 . S
O743 Gd713 2.717 . S
O743 C731 1.257 . S
H744 C717 0.930 . S
H745 C718 0.931 . S
H746 C720 0.931 . S
H747 C721 0.931 . S
H748 C726 0.930 . S
H749 C727 0.931 . S
H750 C729 0.931 . S
H751 C730 0.931 . S
Gd752 C755 2.818 . S
Gd752 O772 2.377 . S
Gd752 O774 2.448 . S
Gd752 O775 2.506 . S
Gd752 O776 2.435 . S
Gd752 O777 2.717 . S
Gd752 O779 2.395 . S
Gd752 O783 2.327 . S
Gd753 C764 2.818 . S
Gd753 O773 2.395 . S
Gd753 O777 2.327 . S
Gd753 O778 2.377 . S
Gd753 O780 2.448 . S
Gd753 O781 2.506 . S
Gd753 O782 2.435 . S
Gd753 O783 2.717 . S
C754 O772 1.240 . S
C754 O773 1.240 . S
C755 Gd752 2.818 . S
C755 C756 1.510 . S
C755 O774 1.249 . S
C755 O775 1.252 . S
C756 C755 1.510 . S
C756 C757 1.404 . S
C756 C758 1.352 . S
C757 C756 1.404 . S
C757 C761 1.389 . S
C757 H784 0.930 . S
C758 C756 1.352 . S
C758 C760 1.374 . S
C758 H785 0.931 . S
C759 C760 1.359 . S
C759 C761 1.364 . S
C760 C758 1.374 . S
C760 C759 1.359 . S
C760 H786 0.931 . S
C761 C757 1.389 . S
C761 C759 1.364 . S
C761 H787 0.931 . S
C762 O776 1.256 . S
C762 O777 1.257 . S
C763 O778 1.240 . S
C763 O779 1.240 . S
C764 Gd753 2.818 . S
C764 C765 1.510 . S
C764 O780 1.249 . S
C764 O781 1.252 . S
C765 C764 1.510 . S
C765 C766 1.404 . S
C765 C767 1.352 . S
C766 C765 1.404 . S
C766 C770 1.389 . S
C766 H788 0.930 . S
C767 C765 1.352 . S
C767 C769 1.374 . S
C767 H789 0.931 . S
C768 C769 1.359 . S
C768 C770 1.364 . S
C769 C767 1.374 . S
C769 C768 1.359 . S
C769 H790 0.931 . S
C770 C766 1.389 . S
C770 C768 1.364 . S
C770 H791 0.931 . S
C771 O782 1.256 . S
C771 O783 1.257 . S
O772 Gd752 2.377 . S
O772 C754 1.240 . S
O773 Gd753 2.395 . S
O773 C754 1.240 . S
O774 Gd752 2.448 . S
O774 C755 1.249 . S
O775 Gd752 2.506 . S
O775 C755 1.252 . S
O776 Gd752 2.435 . S
O776 C762 1.256 . S
O777 Gd752 2.717 . S
O777 Gd753 2.327 . S
O777 C762 1.257 . S
O778 Gd753 2.377 . S
O778 C763 1.240 . S
O779 Gd752 2.395 . S
O779 C763 1.240 . S
O780 Gd753 2.448 . S
O780 C764 1.249 . S
O781 Gd753 2.506 . S
O781 C764 1.252 . S
O782 Gd753 2.435 . S
O782 C771 1.256 . S
O783 Gd752 2.327 . S
O783 Gd753 2.717 . S
O783 C771 1.257 . S
H784 C757 0.930 . S
H785 C758 0.931 . S
H786 C760 0.931 . S
H787 C761 0.931 . S
H788 C766 0.930 . S
H789 C767 0.931 . S
H790 C769 0.931 . S
H791 C770 0.931 . S
Gd792 C795 2.818 . S
Gd792 O812 2.377 . S
Gd792 O814 2.448 . S
Gd792 O815 2.506 . S
Gd792 O816 2.435 . S
Gd792 O817 2.717 . S
Gd792 O819 2.395 . S
Gd792 O823 2.327 . S
Gd793 C804 2.818 . S
Gd793 O813 2.395 . S
Gd793 O817 2.327 . S
Gd793 O818 2.377 . S
Gd793 O820 2.448 . S
Gd793 O821 2.506 . S
Gd793 O822 2.435 . S
Gd793 O823 2.717 . S
C794 O812 1.240 . S
C794 O813 1.240 . S
C795 Gd792 2.818 . S
C795 C796 1.510 . S
C795 O814 1.249 . S
C795 O815 1.252 . S
C796 C795 1.510 . S
C796 C797 1.404 . S
C796 C798 1.352 . S
C797 C796 1.404 . S
C797 C801 1.389 . S
C797 H824 0.930 . S
C798 C796 1.352 . S
C798 C800 1.374 . S
C798 H825 0.931 . S
C799 C800 1.359 . S
C799 C801 1.364 . S
C800 C798 1.374 . S
C800 C799 1.359 . S
C800 H826 0.931 . S
C801 C797 1.389 . S
C801 C799 1.364 . S
C801 H827 0.931 . S
C802 O816 1.256 . S
C802 O817 1.257 . S
C803 O818 1.240 . S
C803 O819 1.240 . S
C804 Gd793 2.818 . S
C804 C805 1.510 . S
C804 O820 1.249 . S
C804 O821 1.252 . S
C805 C804 1.510 . S
C805 C806 1.404 . S
C805 C807 1.352 . S
C806 C805 1.404 . S
C806 C810 1.389 . S
C806 H828 0.930 . S
C807 C805 1.352 . S
C807 C809 1.374 . S
C807 H829 0.931 . S
C808 C809 1.359 . S
C808 C810 1.364 . S
C809 C807 1.374 . S
C809 C808 1.359 . S
C809 H830 0.931 . S
C810 C806 1.389 . S
C810 C808 1.364 . S
C810 H831 0.931 . S
C811 O822 1.256 . S
C811 O823 1.257 . S
O812 Gd792 2.377 . S
O812 C794 1.240 . S
O813 Gd793 2.395 . S
O813 C794 1.240 . S
O814 Gd792 2.448 . S
O814 C795 1.249 . S
O815 Gd792 2.506 . S
O815 C795 1.252 . S
O816 Gd792 2.435 . S
O816 C802 1.256 . S
O817 Gd792 2.717 . S
O817 Gd793 2.327 . S
O817 C802 1.257 . S
O818 Gd793 2.377 . S
O818 C803 1.240 . S
O819 Gd792 2.395 . S
O819 C803 1.240 . S
O820 Gd793 2.448 . S
O820 C804 1.249 . S
O821 Gd793 2.506 . S
O821 C804 1.252 . S
O822 Gd793 2.435 . S
O822 C811 1.256 . S
O823 Gd792 2.327 . S
O823 Gd793 2.717 . S
O823 C811 1.257 . S
H824 C797 0.930 . S
H825 C798 0.931 . S
H826 C800 0.931 . S
H827 C801 0.931 . S
H828 C806 0.930 . S
H829 C807 0.931 . S
H830 C809 0.931 . S
H831 C810 0.931 . S
Gd832 C835 2.818 . S
Gd832 O852 2.377 . S
Gd832 O854 2.448 . S
Gd832 O855 2.506 . S
Gd832 O856 2.435 . S
Gd832 O857 2.717 . S
Gd832 O859 2.395 . S
Gd832 O863 2.327 . S
Gd833 C844 2.818 . S
Gd833 O853 2.395 . S
Gd833 O857 2.327 . S
Gd833 O858 2.377 . S
Gd833 O860 2.448 . S
Gd833 O861 2.506 . S
Gd833 O862 2.435 . S
Gd833 O863 2.717 . S
C834 O852 1.240 . S
C834 O853 1.240 . S
C835 Gd832 2.818 . S
C835 C836 1.510 . S
C835 O854 1.249 . S
C835 O855 1.252 . S
C836 C835 1.510 . S
C836 C837 1.404 . S
C836 C838 1.352 . S
C837 C836 1.404 . S
C837 C841 1.389 . S
C837 H864 0.930 . S
C838 C836 1.352 . S
C838 C840 1.374 . S
C838 H865 0.931 . S
C839 C840 1.359 . S
C839 C841 1.364 . S
C840 C838 1.374 . S
C840 C839 1.359 . S
C840 H866 0.931 . S
C841 C837 1.389 . S
C841 C839 1.364 . S
C841 H867 0.931 . S
C842 O856 1.256 . S
C842 O857 1.257 . S
C843 O858 1.240 . S
C843 O859 1.240 . S
C844 Gd833 2.818 . S
C844 C845 1.510 . S
C844 O860 1.249 . S
C844 O861 1.252 . S
C845 C844 1.510 . S
C845 C846 1.404 . S
C845 C847 1.352 . S
C846 C845 1.404 . S
C846 C850 1.389 . S
C846 H868 0.930 . S
C847 C845 1.352 . S
C847 C849 1.374 . S
C847 H869 0.931 . S
C848 C849 1.359 . S
C848 C850 1.364 . S
C849 C847 1.374 . S
C849 C848 1.359 . S
C849 H870 0.931 . S
C850 C846 1.389 . S
C850 C848 1.364 . S
C850 H871 0.931 . S
C851 O862 1.256 . S
C851 O863 1.257 . S
O852 Gd832 2.377 . S
O852 C834 1.240 . S
O853 Gd833 2.395 . S
O853 C834 1.240 . S
O854 Gd832 2.448 . S
O854 C835 1.249 . S
O855 Gd832 2.506 . S
O855 C835 1.252 . S
O856 Gd832 2.435 . S
O856 C842 1.256 . S
O857 Gd832 2.717 . S
O857 Gd833 2.327 . S
O857 C842 1.257 . S
O858 Gd833 2.377 . S
O858 C843 1.240 . S
O859 Gd832 2.395 . S
O859 C843 1.240 . S
O860 Gd833 2.448 . S
O860 C844 1.249 . S
O861 Gd833 2.506 . S
O861 C844 1.252 . S
O862 Gd833 2.435 . S
O862 C851 1.256 . S
O863 Gd832 2.327 . S
O863 Gd833 2.717 . S
O863 C851 1.257 . S
H864 C837 0.930 . S
H865 C838 0.931 . S
H866 C840 0.931 . S
H867 C841 0.931 . S
H868 C846 0.930 . S
H869 C847 0.931 . S
H870 C849 0.931 . S
H871 C850 0.931 . S
Gd872 C875 2.818 . S
Gd872 O892 2.377 . S
Gd872 O894 2.448 . S
Gd872 O895 2.506 . S
Gd872 O896 2.435 . S
Gd872 O897 2.717 . S
Gd872 O899 2.395 . S
Gd872 O903 2.327 . S
Gd873 C884 2.818 . S
Gd873 O893 2.395 . S
Gd873 O897 2.327 . S
Gd873 O898 2.377 . S
Gd873 O900 2.448 . S
Gd873 O901 2.506 . S
Gd873 O902 2.435 . S
Gd873 O903 2.717 . S
C874 O892 1.240 . S
C874 O893 1.240 . S
C875 Gd872 2.818 . S
C875 C876 1.510 . S
C875 O894 1.249 . S
C875 O895 1.252 . S
C876 C875 1.510 . S
C876 C877 1.404 . S
C876 C878 1.352 . S
C877 C876 1.404 . S
C877 C881 1.389 . S
C877 H904 0.930 . S
C878 C876 1.352 . S
C878 C880 1.374 . S
C878 H905 0.931 . S
C879 C880 1.359 . S
C879 C881 1.364 . S
C880 C878 1.374 . S
C880 C879 1.359 . S
C880 H906 0.931 . S
C881 C877 1.389 . S
C881 C879 1.364 . S
C881 H907 0.931 . S
C882 O896 1.256 . S
C882 O897 1.257 . S
C883 O898 1.240 . S
C883 O899 1.240 . S
C884 Gd873 2.818 . S
C884 C885 1.510 . S
C884 O900 1.249 . S
C884 O901 1.252 . S
C885 C884 1.510 . S
C885 C886 1.404 . S
C885 C887 1.352 . S
C886 C885 1.404 . S
C886 C890 1.389 . S
C886 H908 0.930 . S
C887 C885 1.352 . S
C887 C889 1.374 . S
C887 H909 0.931 . S
C888 C889 1.359 . S
C888 C890 1.364 . S
C889 C887 1.374 . S
C889 C888 1.359 . S
C889 H910 0.931 . S
C890 C886 1.389 . S
C890 C888 1.364 . S
C890 H911 0.931 . S
C891 O902 1.256 . S
C891 O903 1.257 . S
O892 Gd872 2.377 . S
O892 C874 1.240 . S
O893 Gd873 2.395 . S
O893 C874 1.240 . S
O894 Gd872 2.448 . S
O894 C875 1.249 . S
O895 Gd872 2.506 . S
O895 C875 1.252 . S
O896 Gd872 2.435 . S
O896 C882 1.256 . S
O897 Gd872 2.717 . S
O897 Gd873 2.327 . S
O897 C882 1.257 . S
O898 Gd873 2.377 . S
O898 C883 1.240 . S
O899 Gd872 2.395 . S
O899 C883 1.240 . S
O900 Gd873 2.448 . S
O900 C884 1.249 . S
O901 Gd873 2.506 . S
O901 C884 1.252 . S
O902 Gd873 2.435 . S
O902 C891 1.256 . S
O903 Gd872 2.327 . S
O903 Gd873 2.717 . S
O903 C891 1.257 . S
H904 C877 0.930 . S
H905 C878 0.931 . S
H906 C880 0.931 . S
H907 C881 0.931 . S
H908 C886 0.930 . S
H909 C887 0.931 . S
H910 C889 0.931 . S
H911 C890 0.931 . S
Gd912 C915 2.818 . S
Gd912 O932 2.377 . S
Gd912 O934 2.448 . S
Gd912 O935 2.506 1_556 S
Gd912 O936 2.435 . S
Gd912 O937 2.717 . S
Gd912 O939 2.395 1_556 S
Gd912 O943 2.327 1_556 S
Gd913 C924 2.818 1_455 S
Gd913 O933 2.395 . S
Gd913 O937 2.327 1_554 S
Gd913 O938 2.377 . S
Gd913 O940 2.448 1_455 S
Gd913 O941 2.506 1_455 S
Gd913 O942 2.435 . S
Gd913 O943 2.717 . S
C914 O932 1.251 . S
C914 O933 1.232 1_556 S
C915 Gd912 2.818 . S
C915 C916 1.510 . S
C915 O934 1.249 . S
C915 O935 1.252 1_556 S
C916 C915 1.510 . S
C916 C917 1.404 . S
C916 C918 1.352 1_556 S
C917 C916 1.404 . S
C917 C921 1.389 . S
C917 H944 0.930 . S
C918 C916 1.352 1_554 S
C918 C920 1.374 1_554 S
C918 H945 0.931 . S
C919 C920 1.359 . S
C919 C921 1.364 . S
C920 C918 1.374 1_556 S
C920 C919 1.359 . S
C920 H946 0.931 1_556 S
C921 C917 1.389 . S
C921 C919 1.364 . S
C921 H947 0.931 . S
C922 O936 1.256 . S
C922 O937 1.257 . S
C923 O938 1.240 . S
C923 O939 1.240 . S
C924 Gd913 2.818 1_655 S
C924 C925 1.510 . S
C924 O940 1.249 . S
C924 O941 1.252 . S
C925 C924 1.510 . S
C925 C926 1.404 . S
C925 C927 1.352 . S
C926 C925 1.404 . S
C926 C930 1.389 . S
C926 H948 0.930 . S
C927 C925 1.352 . S
C927 C929 1.374 . S
C927 H949 0.928 . S
C928 C929 1.359 . S
C928 C930 1.364 . S
C929 C927 1.374 . S
C929 C928 1.359 . S
C929 H950 0.931 . S
C930 C926 1.389 . S
C930 C928 1.364 . S
C930 H951 0.931 . S
C931 O942 1.256 . S
C931 O943 1.257 . S
O932 Gd912 2.377 . S
O932 C914 1.251 . S
O933 Gd913 2.395 . S
O933 C914 1.232 1_554 S
O934 Gd912 2.448 . S
O934 C915 1.249 . S
O935 Gd912 2.506 1_554 S
O935 C915 1.252 1_554 S
O936 Gd912 2.435 . S
O936 C922 1.256 . S
O937 Gd912 2.717 . S
O937 Gd913 2.327 1_556 S
O937 C922 1.257 . S
O938 Gd913 2.377 . S
O938 C923 1.240 . S
O939 Gd912 2.395 1_554 S
O939 C923 1.240 . S
O940 Gd913 2.448 1_655 S
O940 C924 1.249 . S
O941 Gd913 2.506 1_655 S
O941 C924 1.252 . S
O942 Gd913 2.435 . S
O942 C931 1.256 . S
O943 Gd912 2.327 1_554 S
O943 Gd913 2.717 . S
O943 C931 1.257 . S
H944 C917 0.930 . S
H945 C918 0.931 . S
H946 C920 0.931 1_554 S
H947 C921 0.931 . S
H948 C926 0.930 . S
H949 C927 0.928 . S
H950 C929 0.931 . S
H951 C930 0.931 . S
C952 C953 1.391 . S
C952 C954 1.394 . S
C952 H968 0.931 . S
C953 C952 1.391 . S
C953 C957 1.376 . S
C954 C952 1.394 . S
C954 C955 1.369 . S
C954 C958 1.531 . S
C955 C954 1.369 . S
C955 C956 1.410 . S
C955 C963 1.503 . S
C956 C955 1.410 . S
C956 C957 1.392 . S
C956 C959 1.511 1_556 S
C957 C953 1.376 . S
C957 C956 1.392 . S
C957 H969 0.929 . S
C958 C954 1.531 . S
C958 H970 0.960 . S
C958 H971 0.962 1_455 S
C958 H972 0.960 . S
C959 C956 1.511 1_554 S
C959 H973 0.961 . S
C959 H974 0.961 . S
C959 H975 0.961 . S
C960 C961 1.375 . S
C960 C962 1.376 . S
C960 H976 0.914 1_556 S
C961 C960 1.375 . S
C961 C965 1.408 . S
C962 C960 1.376 . S
C962 C963 1.370 . S
C962 C966 1.524 1_455 S
C963 C955 1.503 . S
C963 C962 1.370 . S
C963 C964 1.403 . S
C964 C963 1.403 . S
C964 C965 1.404 . S
C964 C967 1.539 . S
C965 C961 1.408 . S
C965 C964 1.404 . S
C965 H977 0.930 . S
C966 C962 1.524 1_655 S
C966 H978 0.956 . S
C966 H979 0.961 1_656 S
C966 H980 0.961 1_556 S
C967 C964 1.539 . S
C967 H981 0.958 . S
C967 H982 0.961 . S
C967 H983 0.960 . S
H968 C952 0.931 . S
H969 C957 0.929 . S
H970 C958 0.960 . S
H971 C958 0.962 1_655 S
H972 C958 0.960 . S
H973 C959 0.961 . S
H974 C959 0.961 . S
H975 C959 0.961 . S
H976 C960 0.914 1_554 S
H977 C965 0.930 . S
H978 C966 0.956 . S
H979 C966 0.961 1_454 S
H980 C966 0.961 1_554 S
H981 C967 0.958 . S
H982 C967 0.961 . S
H983 C967 0.960 . S
C984 C985 1.391 . S
C984 C986 1.394 . S
C984 H1000 0.931 . S
C985 C984 1.391 . S
C985 C989 1.376 . S
C986 C984 1.394 . S
C986 C987 1.369 . S
C986 C990 1.531 . S
C987 C986 1.369 . S
C987 C988 1.410 . S
C987 C995 1.503 . S
C988 C987 1.410 . S
C988 C989 1.392 . S
C988 C991 1.511 . S
C989 C985 1.376 . S
C989 C988 1.392 . S
C989 H1001 0.929 . S
C990 C986 1.531 . S
C990 H1002 0.960 . S
C990 H1003 0.962 . S
C990 H1004 0.960 . S
C991 C988 1.511 . S
C991 H1005 0.961 . S
C991 H1006 0.961 . S
C991 H1007 0.961 . S
C992 C993 1.370 . S
C992 C994 1.363 . S
C992 H1008 0.931 . S
C993 C992 1.370 . S
C993 C997 1.408 . S
C994 C992 1.363 . S
C994 C995 1.370 . S
C994 C998 1.524 . S
C995 C987 1.503 . S
C995 C994 1.370 . S
C995 C996 1.403 . S
C996 C995 1.403 . S
C996 C997 1.404 . S
C996 C999 1.539 . S
C997 C993 1.408 . S
C997 C996 1.404 . S
C997 H1009 0.930 . S
C998 C994 1.524 . S
C998 H1010 0.956 . S
C998 H1011 0.961 . S
C998 H1012 0.961 . S
C999 C996 1.539 . S
C999 H1013 0.958 . S
C999 H1014 0.961 . S
C999 H1015 0.960 . S
H1000 C984 0.931 . S
H1001 C989 0.929 . S
H1002 C990 0.960 . S
H1003 C990 0.962 . S
H1004 C990 0.960 . S
H1005 C991 0.961 . S
H1006 C991 0.961 . S
H1007 C991 0.961 . S
H1008 C992 0.931 . S
H1009 C997 0.930 . S
H1010 C998 0.956 . S
H1011 C998 0.961 . S
H1012 C998 0.961 . S
H1013 C999 0.958 . S
H1014 C999 0.961 . S
H1015 C999 0.960 . S
C1016 C1017 1.391 . S
C1016 C1018 1.394 . S
C1016 H1032 0.931 . S
C1017 C1016 1.391 . S
C1017 C1021 1.376 . S
C1018 C1016 1.394 . S
C1018 C1019 1.369 . S
C1018 C1022 1.531 . S
C1019 C1018 1.369 . S
C1019 C1020 1.410 . S
C1019 C1027 1.503 . S
C1020 C1019 1.410 . S
C1020 C1021 1.392 . S
C1020 C1023 1.511 . S
C1021 C1017 1.376 . S
C1021 C1020 1.392 . S
C1021 H1033 0.929 . S
C1022 C1018 1.531 . S
C1022 H1034 0.960 . S
C1022 H1035 0.962 . S
C1022 H1036 0.960 . S
C1023 C1020 1.511 . S
C1023 H1037 0.961 . S
C1023 H1038 0.961 . S
C1023 H1039 0.961 . S
C1024 C1025 1.370 . S
C1024 C1026 1.363 . S
C1024 H1040 0.931 . S
C1025 C1024 1.370 . S
C1025 C1029 1.408 . S
C1026 C1024 1.363 . S
C1026 C1027 1.370 . S
C1026 C1030 1.524 . S
C1027 C1019 1.503 . S
C1027 C1026 1.370 . S
C1027 C1028 1.403 . S
C1028 C1027 1.403 . S
C1028 C1029 1.404 . S
C1028 C1031 1.539 . S
C1029 C1025 1.408 . S
C1029 C1028 1.404 . S
C1029 H1041 0.930 . S
C1030 C1026 1.524 . S
C1030 H1042 0.956 . S
C1030 H1043 0.961 . S
C1030 H1044 0.961 . S
C1031 C1028 1.539 . S
C1031 H1045 0.958 . S
C1031 H1046 0.961 . S
C1031 H1047 0.960 . S
H1032 C1016 0.931 . S
H1033 C1021 0.929 . S
H1034 C1022 0.960 . S
H1035 C1022 0.962 . S
H1036 C1022 0.960 . S
H1037 C1023 0.961 . S
H1038 C1023 0.961 . S
H1039 C1023 0.961 . S
H1040 C1024 0.931 . S
H1041 C1029 0.930 . S
H1042 C1030 0.956 . S
H1043 C1030 0.961 . S
H1044 C1030 0.961 . S
H1045 C1031 0.958 . S
H1046 C1031 0.961 . S
H1047 C1031 0.960 . S
C1048 C1049 1.391 . S
C1048 C1050 1.394 . S
C1048 H1064 0.931 . S
C1049 C1048 1.391 . S
C1049 C1053 1.376 . S
C1050 C1048 1.394 . S
C1050 C1051 1.369 . S
C1050 C1054 1.531 . S
C1051 C1050 1.369 . S
C1051 C1052 1.410 . S
C1051 C1059 1.503 . S
C1052 C1051 1.410 . S
C1052 C1053 1.392 . S
C1052 C1055 1.511 . S
C1053 C1049 1.376 . S
C1053 C1052 1.392 . S
C1053 H1065 0.929 . S
C1054 C1050 1.531 . S
C1054 H1066 0.960 . S
C1054 H1067 0.962 . S
C1054 H1068 0.960 . S
C1055 C1052 1.511 . S
C1055 H1069 0.961 . S
C1055 H1070 0.961 . S
C1055 H1071 0.961 . S
C1056 C1057 1.370 . S
C1056 C1058 1.363 . S
C1056 H1072 0.931 . S
C1057 C1056 1.370 . S
C1057 C1061 1.408 . S
C1058 C1056 1.363 . S
C1058 C1059 1.370 . S
C1058 C1062 1.524 . S
C1059 C1051 1.503 . S
C1059 C1058 1.370 . S
C1059 C1060 1.403 . S
C1060 C1059 1.403 . S
C1060 C1061 1.404 . S
C1060 C1063 1.539 . S
C1061 C1057 1.408 . S
C1061 C1060 1.404 . S
C1061 H1073 0.930 . S
C1062 C1058 1.524 . S
C1062 H1074 0.956 . S
C1062 H1075 0.961 . S
C1062 H1076 0.961 . S
C1063 C1060 1.539 . S
C1063 H1077 0.958 . S
C1063 H1078 0.961 . S
C1063 H1079 0.960 . S
H1064 C1048 0.931 . S
H1065 C1053 0.929 . S
H1066 C1054 0.960 . S
H1067 C1054 0.962 . S
H1068 C1054 0.960 . S
H1069 C1055 0.961 . S
H1070 C1055 0.961 . S
H1071 C1055 0.961 . S
H1072 C1056 0.931 . S
H1073 C1061 0.930 . S
H1074 C1062 0.956 . S
H1075 C1062 0.961 . S
H1076 C1062 0.961 . S
H1077 C1063 0.958 . S
H1078 C1063 0.961 . S
H1079 C1063 0.960 . S
C1080 C1081 1.391 . S
C1080 C1082 1.394 . S
C1080 H1096 0.931 . S
C1081 C1080 1.391 . S
C1081 C1085 1.376 1_455 S
C1082 C1080 1.394 . S
C1082 C1083 1.369 . S
C1082 C1086 1.531 . S
C1083 C1082 1.369 . S
C1083 C1084 1.410 . S
C1083 C1091 1.503 . S
C1084 C1083 1.410 . S
C1084 C1085 1.392 1_455 S
C1084 C1087 1.511 1_455 S
C1085 C1081 1.376 1_655 S
C1085 C1084 1.392 1_655 S
C1085 H1097 0.929 . S
C1086 C1082 1.531 . S
C1086 H1098 0.960 . S
C1086 H1099 0.962 . S
C1086 H1100 0.960 . S
C1087 C1084 1.511 1_655 S
C1087 H1101 0.961 . S
C1087 H1102 0.961 1_655 S
C1087 H1103 0.961 . S
C1088 C1089 1.370 . S
C1088 C1090 1.363 . S
C1088 H1104 0.931 . S
C1089 C1088 1.370 . S
C1089 C1093 1.408 . S
C1090 C1088 1.363 . S
C1090 C1091 1.370 . S
C1090 C1094 1.524 . S
C1091 C1083 1.503 . S
C1091 C1090 1.370 . S
C1091 C1092 1.403 . S
C1092 C1091 1.403 . S
C1092 C1093 1.404 . S
C1092 C1095 1.539 . S
C1093 C1089 1.408 . S
C1093 C1092 1.404 . S
C1093 H1105 0.930 . S
C1094 C1090 1.524 . S
C1094 H1106 0.956 . S
C1094 H1107 0.961 . S
C1094 H1108 0.961 . S
C1095 C1092 1.539 . S
C1095 H1109 0.958 . S
C1095 H1110 0.961 . S
C1095 H1111 0.975 . S
H1096 C1080 0.931 . S
H1097 C1085 0.929 . S
H1098 C1086 0.960 . S
H1099 C1086 0.962 . S
H1100 C1086 0.960 . S
H1101 C1087 0.961 . S
H1102 C1087 0.961 1_455 S
H1103 C1087 0.961 . S
H1104 C1088 0.931 . S
H1105 C1093 0.930 . S
H1106 C1094 0.956 . S
H1107 C1094 0.961 . S
H1108 C1094 0.961 . S
H1109 C1095 0.958 . S
H1110 C1095 0.961 . S
H1111 C1095 0.975 . S
C1112 C1113 1.391 . S
C1112 C1114 1.394 . S
C1112 H1128 0.931 . S
C1113 C1112 1.391 . S
C1113 C1117 1.376 . S
C1114 C1112 1.394 . S
C1114 C1115 1.369 . S
C1114 C1118 1.531 . S
C1115 C1114 1.369 . S
C1115 C1116 1.410 . S
C1115 C1123 1.503 . S
C1116 C1115 1.410 . S
C1116 C1117 1.392 . S
C1116 C1119 1.511 . S
C1117 C1113 1.376 . S
C1117 C1116 1.392 . S
C1117 H1129 0.929 . S
C1118 C1114 1.531 . S
C1118 H1130 0.960 . S
C1118 H1131 0.962 . S
C1118 H1132 0.960 . S
C1119 C1116 1.511 . S
C1119 H1133 0.961 . S
C1119 H1134 0.961 . S
C1119 H1135 0.961 . S
C1120 C1121 1.370 . S
C1120 C1122 1.363 . S
C1120 H1136 0.931 . S
C1121 C1120 1.370 . S
C1121 C1125 1.408 . S
C1122 C1120 1.363 . S
C1122 C1123 1.370 . S
C1122 C1126 1.524 . S
C1123 C1115 1.503 . S
C1123 C1122 1.370 . S
C1123 C1124 1.403 . S
C1124 C1123 1.403 . S
C1124 C1125 1.404 . S
C1124 C1127 1.539 . S
C1125 C1121 1.408 . S
C1125 C1124 1.404 . S
C1125 H1137 0.930 . S
C1126 C1122 1.524 . S
C1126 H1138 0.956 . S
C1126 H1139 0.961 . S
C1126 H1140 0.961 . S
C1127 C1124 1.539 . S
C1127 H1141 0.958 . S
C1127 H1142 0.961 . S
C1127 H1143 0.960 . S
H1128 C1112 0.931 . S
H1129 C1117 0.929 . S
H1130 C1118 0.960 . S
H1131 C1118 0.962 . S
H1132 C1118 0.960 . S
H1133 C1119 0.961 . S
H1134 C1119 0.961 . S
H1135 C1119 0.961 . S
H1136 C1120 0.931 . S
H1137 C1125 0.930 . S
H1138 C1126 0.956 . S
H1139 C1126 0.961 . S
H1140 C1126 0.961 . S
H1141 C1127 0.958 . S
H1142 C1127 0.961 . S
H1143 C1127 0.960 . S
C1144 C1145 1.391 . S
C1144 C1146 1.394 . S
C1144 H1160 0.931 . S
C1145 C1144 1.391 . S
C1145 C1149 1.376 . S
C1146 C1144 1.394 . S
C1146 C1147 1.369 . S
C1146 C1150 1.531 . S
C1147 C1146 1.369 . S
C1147 C1148 1.410 . S
C1147 C1155 1.503 . S
C1148 C1147 1.410 . S
C1148 C1149 1.392 . S
C1148 C1151 1.511 . S
C1149 C1145 1.376 . S
C1149 C1148 1.392 . S
C1149 H1161 0.929 . S
C1150 C1146 1.531 . S
C1150 H1162 0.960 . S
C1150 H1163 0.962 . S
C1150 H1164 0.960 . S
C1151 C1148 1.511 . S
C1151 H1165 0.961 . S
C1151 H1166 0.961 . S
C1151 H1167 0.961 . S
C1152 C1153 1.370 . S
C1152 C1154 1.363 . S
C1152 H1168 0.931 . S
C1153 C1152 1.370 . S
C1153 C1157 1.408 . S
C1154 C1152 1.363 . S
C1154 C1155 1.370 . S
C1154 C1158 1.524 . S
C1155 C1147 1.503 . S
C1155 C1154 1.370 . S
C1155 C1156 1.403 . S
C1156 C1155 1.403 . S
C1156 C1157 1.404 . S
C1156 C1159 1.539 . S
C1157 C1153 1.408 . S
C1157 C1156 1.404 . S
C1157 H1169 0.930 . S
C1158 C1154 1.524 . S
C1158 H1170 0.956 . S
C1158 H1171 0.961 . S
C1158 H1172 0.961 . S
C1159 C1156 1.539 . S
C1159 H1173 0.958 . S
C1159 H1174 0.961 . S
C1159 H1175 0.960 . S
H1160 C1144 0.931 . S
H1161 C1149 0.929 . S
H1162 C1150 0.960 . S
H1163 C1150 0.962 . S
H1164 C1150 0.960 . S
H1165 C1151 0.961 . S
H1166 C1151 0.961 . S
H1167 C1151 0.961 . S
H1168 C1152 0.931 . S
H1169 C1157 0.930 . S
H1170 C1158 0.956 . S
H1171 C1158 0.961 . S
H1172 C1158 0.961 . S
H1173 C1159 0.958 . S
H1174 C1159 0.961 . S
H1175 C1159 0.960 . S
C1176 C1177 1.391 . S
C1176 C1178 1.394 . S
C1176 H1192 0.931 . S
C1177 C1176 1.391 . S
C1177 C1181 1.376 . S
C1178 C1176 1.394 . S
C1178 C1179 1.369 . S
C1178 C1182 1.531 . S
C1179 C1178 1.369 . S
C1179 C1180 1.410 . S
C1179 C1187 1.503 . S
C1180 C1179 1.410 . S
C1180 C1181 1.392 . S
C1180 C1183 1.511 . S
C1181 C1177 1.376 . S
C1181 C1180 1.392 . S
C1181 H1193 0.929 . S
C1182 C1178 1.531 . S
C1182 H1194 0.960 . S
C1182 H1195 0.962 . S
C1182 H1196 0.960 . S
C1183 C1180 1.511 . S
C1183 H1197 0.961 . S
C1183 H1198 0.961 . S
C1183 H1199 0.961 . S
C1184 C1185 1.370 . S
C1184 C1186 1.363 . S
C1184 H1200 0.931 . S
C1185 C1184 1.370 . S
C1185 C1189 1.408 . S
C1186 C1184 1.363 . S
C1186 C1187 1.370 . S
C1186 C1190 1.524 . S
C1187 C1179 1.503 . S
C1187 C1186 1.370 . S
C1187 C1188 1.403 . S
C1188 C1187 1.403 . S
C1188 C1189 1.404 . S
C1188 C1191 1.539 . S
C1189 C1185 1.408 . S
C1189 C1188 1.404 . S
C1189 H1201 0.930 . S
C1190 C1186 1.524 . S
C1190 H1202 0.956 . S
C1190 H1203 0.961 . S
C1190 H1204 0.961 . S
C1191 C1188 1.539 . S
C1191 H1205 0.958 . S
C1191 H1206 0.961 . S
C1191 H1207 0.960 . S
H1192 C1176 0.931 . S
H1193 C1181 0.929 . S
H1194 C1182 0.960 . S
H1195 C1182 0.962 . S
H1196 C1182 0.960 . S
H1197 C1183 0.961 . S
H1198 C1183 0.961 . S
H1199 C1183 0.961 . S
H1200 C1184 0.931 . S
H1201 C1189 0.930 . S
H1202 C1190 0.956 . S
H1203 C1190 0.961 . S
H1204 C1190 0.961 . S
H1205 C1191 0.958 . S
H1206 C1191 0.961 . S
H1207 C1191 0.960 . S
C1208 C1209 1.391 . S
C1208 C1210 1.394 . S
C1208 H1224 0.931 . S
C1209 C1208 1.391 . S
C1209 C1213 1.376 . S
C1210 C1208 1.394 . S
C1210 C1211 1.369 . S
C1210 C1214 1.531 . S
C1211 C1210 1.369 . S
C1211 C1212 1.410 1_655 S
C1211 C1219 1.503 1_655 S
C1212 C1211 1.410 1_455 S
C1212 C1213 1.392 1_455 S
C1212 C1215 1.511 . S
C1213 C1209 1.376 . S
C1213 C1212 1.392 1_655 S
C1213 H1225 0.929 1_655 S
C1214 C1210 1.531 . S
C1214 H1226 0.960 . S
C1214 H1227 0.962 . S
C1214 H1228 0.960 . S
C1215 C1212 1.511 . S
C1215 H1229 0.961 . S
C1215 H1230 0.961 . S
C1215 H1231 0.961 . S
C1216 C1217 1.370 . S
C1216 C1218 1.363 . S
C1216 H1232 0.931 . S
C1217 C1216 1.370 . S
C1217 C1221 1.408 . S
C1218 C1216 1.363 . S
C1218 C1219 1.370 . S
C1218 C1222 1.524 . S
C1219 C1211 1.503 1_455 S
C1219 C1218 1.370 . S
C1219 C1220 1.403 1_455 S
C1220 C1219 1.403 1_655 S
C1220 C1221 1.404 1_655 S
C1220 C1223 1.539 . S
C1221 C1217 1.408 . S
C1221 C1220 1.404 1_455 S
C1221 H1233 0.930 . S
C1222 C1218 1.524 . S
C1222 H1234 0.956 . S
C1222 H1235 0.961 . S
C1222 H1236 0.961 . S
C1223 C1220 1.539 . S
C1223 H1237 0.958 . S
C1223 H1238 0.961 . S
C1223 H1239 0.960 . S
H1224 C1208 0.931 . S
H1225 C1213 0.929 1_455 S
H1226 C1214 0.960 . S
H1227 C1214 0.962 . S
H1228 C1214 0.960 . S
H1229 C1215 0.961 . S
H1230 C1215 0.961 . S
H1231 C1215 0.961 . S
H1232 C1216 0.931 . S
H1233 C1221 0.930 . S
H1234 C1222 0.956 . S
H1235 C1222 0.961 . S
H1236 C1222 0.961 . S
H1237 C1223 0.958 . S
H1238 C1223 0.961 . S
H1239 C1223 0.960 . S
C1240 C1241 1.391 . S
C1240 C1242 1.394 . S
C1240 H1256 0.931 . S
C1241 C1240 1.391 . S
C1241 C1245 1.376 . S
C1242 C1240 1.394 . S
C1242 C1243 1.369 . S
C1242 C1246 1.531 . S
C1243 C1242 1.369 . S
C1243 C1244 1.410 . S
C1243 C1251 1.503 . S
C1244 C1243 1.410 . S
C1244 C1245 1.392 . S
C1244 C1247 1.511 . S
C1245 C1241 1.376 . S
C1245 C1244 1.392 . S
C1245 H1257 0.929 . S
C1246 C1242 1.531 . S
C1246 H1258 0.960 . S
C1246 H1259 0.962 . S
C1246 H1260 0.960 . S
C1247 C1244 1.511 . S
C1247 H1261 0.961 . S
C1247 H1262 0.961 . S
C1247 H1263 0.961 . S
C1248 C1249 1.370 . S
C1248 C1250 1.363 . S
C1248 H1264 0.931 . S
C1249 C1248 1.370 . S
C1249 C1253 1.408 . S
C1250 C1248 1.363 . S
C1250 C1251 1.370 . S
C1250 C1254 1.524 . S
C1251 C1243 1.503 . S
C1251 C1250 1.370 . S
C1251 C1252 1.403 . S
C1252 C1251 1.403 . S
C1252 C1253 1.404 . S
C1252 C1255 1.539 . S
C1253 C1249 1.408 . S
C1253 C1252 1.404 . S
C1253 H1265 0.930 . S
C1254 C1250 1.524 . S
C1254 H1266 0.956 . S
C1254 H1267 0.961 . S
C1254 H1268 0.961 . S
C1255 C1252 1.539 . S
C1255 H1269 0.958 . S
C1255 H1270 0.961 . S
C1255 H1271 0.960 . S
H1256 C1240 0.931 . S
H1257 C1245 0.929 . S
H1258 C1246 0.960 . S
H1259 C1246 0.962 . S
H1260 C1246 0.960 . S
H1261 C1247 0.961 . S
H1262 C1247 0.961 . S
H1263 C1247 0.961 . S
H1264 C1248 0.931 . S
H1265 C1253 0.930 . S
H1266 C1254 0.956 . S
H1267 C1254 0.961 . S
H1268 C1254 0.961 . S
H1269 C1255 0.958 . S
H1270 C1255 0.961 . S
H1271 C1255 0.960 . S
C1272 C1273 1.391 . S
C1272 C1274 1.394 . S
C1272 H1288 0.931 . S
C1273 C1272 1.391 . S
C1273 C1277 1.376 . S
C1274 C1272 1.394 . S
C1274 C1275 1.369 . S
C1274 C1278 1.531 . S
C1275 C1274 1.369 . S
C1275 C1276 1.410 . S
C1275 C1283 1.503 . S
C1276 C1275 1.410 . S
C1276 C1277 1.392 . S
C1276 C1279 1.511 . S
C1277 C1273 1.376 . S
C1277 C1276 1.392 . S
C1277 H1289 0.929 . S
C1278 C1274 1.531 . S
C1278 H1290 0.960 . S
C1278 H1291 0.962 1_545 S
C1278 H1292 0.947 1_545 S
C1279 C1276 1.511 . S
C1279 H1293 0.961 . S
C1279 H1294 0.961 . S
C1279 H1295 0.961 . S
C1280 C1281 1.370 . S
C1280 C1282 1.363 . S
C1280 H1296 0.931 . S
C1281 C1280 1.370 . S
C1281 C1285 1.408 . S
C1282 C1280 1.363 . S
C1282 C1283 1.370 . S
C1282 C1286 1.524 . S
C1283 C1275 1.503 . S
C1283 C1282 1.370 . S
C1283 C1284 1.403 . S
C1284 C1283 1.403 . S
C1284 C1285 1.404 . S
C1284 C1287 1.539 . S
C1285 C1281 1.408 . S
C1285 C1284 1.404 . S
C1285 H1297 0.930 . S
C1286 C1282 1.524 . S
C1286 H1298 0.956 . S
C1286 H1299 0.961 . S
C1286 H1300 0.961 . S
C1287 C1284 1.539 . S
C1287 H1301 0.958 . S
C1287 H1302 0.961 . S
C1287 H1303 0.960 . S
H1288 C1272 0.931 . S
H1289 C1277 0.929 . S
H1290 C1278 0.960 . S
H1291 C1278 0.962 1_565 S
H1292 C1278 0.947 1_565 S
H1293 C1279 0.961 . S
H1294 C1279 0.961 . S
H1295 C1279 0.961 . S
H1296 C1280 0.931 . S
H1297 C1285 0.930 . S
H1298 C1286 0.956 . S
H1299 C1286 0.961 . S
H1300 C1286 0.961 . S
H1301 C1287 0.958 . S
H1302 C1287 0.961 . S
H1303 C1287 0.960 . S
C1304 C1305 1.391 . S
C1304 C1306 1.394 . S
C1304 H1320 0.931 . S
C1305 C1304 1.391 . S
C1305 C1309 1.376 . S
C1306 C1304 1.394 . S
C1306 C1307 1.369 . S
C1306 C1310 1.531 . S
C1307 C1306 1.369 . S
C1307 C1308 1.410 . S
C1307 C1315 1.503 . S
C1308 C1307 1.410 . S
C1308 C1309 1.392 . S
C1308 C1311 1.511 . S
C1309 C1305 1.376 . S
C1309 C1308 1.392 . S
C1309 H1321 0.929 . S
C1310 C1306 1.531 . S
C1310 H1322 0.960 . S
C1310 H1323 0.962 . S
C1310 H1324 0.960 . S
C1311 C1308 1.511 . S
C1311 H1325 0.961 . S
C1311 H1326 0.961 . S
C1311 H1327 0.961 . S
C1312 C1313 1.370 . S
C1312 C1314 1.363 . S
C1312 H1328 0.931 . S
C1313 C1312 1.370 . S
C1313 C1317 1.408 . S
C1314 C1312 1.363 . S
C1314 C1315 1.370 . S
C1314 C1318 1.524 . S
C1315 C1307 1.503 . S
C1315 C1314 1.370 . S
C1315 C1316 1.403 . S
C1316 C1315 1.403 . S
C1316 C1317 1.404 . S
C1316 C1319 1.539 . S
C1317 C1313 1.408 . S
C1317 C1316 1.404 . S
C1317 H1329 0.930 . S
C1318 C1314 1.524 . S
C1318 H1330 0.956 . S
C1318 H1331 0.961 . S
C1318 H1332 0.961 . S
C1319 C1316 1.539 . S
C1319 H1333 0.958 . S
C1319 H1334 0.961 . S
C1319 H1335 0.960 . S
H1320 C1304 0.931 . S
H1321 C1309 0.929 . S
H1322 C1310 0.960 . S
H1323 C1310 0.962 . S
H1324 C1310 0.960 . S
H1325 C1311 0.961 . S
H1326 C1311 0.961 . S
H1327 C1311 0.961 . S
H1328 C1312 0.931 . S
H1329 C1317 0.930 . S
H1330 C1318 0.956 . S
H1331 C1318 0.961 . S
H1332 C1318 0.961 . S
H1333 C1319 0.958 . S
H1334 C1319 0.961 . S
H1335 C1319 0.960 . S
C1336 C1337 1.391 . S
C1336 C1338 1.394 . S
C1336 H1352 0.931 . S
C1337 C1336 1.391 . S
C1337 C1341 1.376 . S
C1338 C1336 1.394 . S
C1338 C1339 1.369 . S
C1338 C1342 1.531 1_655 S
C1339 C1338 1.369 . S
C1339 C1340 1.410 . S
C1339 C1347 1.503 1_655 S
C1340 C1339 1.410 . S
C1340 C1341 1.392 . S
C1340 C1343 1.511 . S
C1341 C1337 1.376 . S
C1341 C1340 1.392 . S
C1341 H1353 0.929 . S
C1342 C1338 1.531 1_455 S
C1342 H1354 0.960 . S
C1342 H1355 0.962 . S
C1342 H1356 0.960 . S
C1343 C1340 1.511 . S
C1343 H1357 0.961 . S
C1343 H1358 0.961 . S
C1343 H1359 0.961 . S
C1344 C1345 1.370 . S
C1344 C1346 1.363 . S
C1344 H1360 0.931 . S
C1345 C1344 1.370 . S
C1345 C1349 1.408 . S
C1346 C1344 1.363 . S
C1346 C1347 1.370 . S
C1346 C1350 1.524 . S
C1347 C1339 1.503 1_455 S
C1347 C1346 1.370 . S
C1347 C1348 1.403 1_455 S
C1348 C1347 1.403 1_655 S
C1348 C1349 1.404 1_655 S
C1348 C1351 1.539 . S
C1349 C1345 1.408 . S
C1349 C1348 1.404 1_455 S
C1349 H1361 0.930 1_455 S
C1350 C1346 1.524 . S
C1350 H1362 0.956 . S
C1350 H1363 0.961 . S
C1350 H1364 0.961 . S
C1351 C1348 1.539 . S
C1351 H1365 0.958 . S
C1351 H1366 0.961 . S
C1351 H1367 0.960 . S
H1352 C1336 0.931 . S
H1353 C1341 0.929 . S
H1354 C1342 0.960 . S
H1355 C1342 0.962 . S
H1356 C1342 0.960 . S
H1357 C1343 0.961 . S
H1358 C1343 0.961 . S
H1359 C1343 0.961 . S
H1360 C1344 0.931 . S
H1361 C1349 0.930 1_655 S
H1362 C1350 0.956 . S
H1363 C1350 0.961 . S
H1364 C1350 0.961 . S
H1365 C1351 0.958 . S
H1366 C1351 0.961 . S
H1367 C1351 0.960 . S
C1368 C1369 1.391 . S
C1368 C1370 1.394 . S
C1368 H1384 0.931 . S
C1369 C1368 1.391 . S
C1369 C1373 1.376 . S
C1370 C1368 1.394 . S
C1370 C1371 1.369 . S
C1370 C1374 1.531 . S
C1371 C1370 1.369 . S
C1371 C1372 1.410 . S
C1371 C1379 1.503 . S
C1372 C1371 1.410 . S
C1372 C1373 1.392 . S
C1372 C1375 1.511 . S
C1373 C1369 1.376 . S
C1373 C1372 1.392 . S
C1373 H1385 0.929 . S
C1374 C1370 1.531 . S
C1374 H1386 0.960 . S
C1374 H1387 0.962 . S
C1374 H1388 0.960 . S
C1375 C1372 1.511 . S
C1375 H1389 0.961 . S
C1375 H1390 0.961 . S
C1375 H1391 0.961 . S
C1376 C1377 1.370 . S
C1376 C1378 1.363 . S
C1376 H1392 0.931 . S
C1377 C1376 1.370 . S
C1377 C1381 1.408 . S
C1378 C1376 1.363 . S
C1378 C1379 1.370 . S
C1378 C1382 1.524 . S
C1379 C1371 1.503 . S
C1379 C1378 1.370 . S
C1379 C1380 1.403 . S
C1380 C1379 1.403 . S
C1380 C1381 1.404 . S
C1380 C1383 1.539 . S
C1381 C1377 1.408 . S
C1381 C1380 1.404 . S
C1381 H1393 0.930 . S
C1382 C1378 1.524 . S
C1382 H1394 0.956 . S
C1382 H1395 0.961 . S
C1382 H1396 0.961 . S
C1383 C1380 1.539 . S
C1383 H1397 0.958 . S
C1383 H1398 0.961 . S
C1383 H1399 0.960 . S
H1384 C1368 0.931 . S
H1385 C1373 0.929 . S
H1386 C1374 0.960 . S
H1387 C1374 0.962 . S
H1388 C1374 0.960 . S
H1389 C1375 0.961 . S
H1390 C1375 0.961 . S
H1391 C1375 0.961 . S
H1392 C1376 0.931 . S
H1393 C1381 0.930 . S
H1394 C1382 0.956 . S
H1395 C1382 0.961 . S
H1396 C1382 0.961 . S
H1397 C1383 0.958 . S
H1398 C1383 0.961 . S
H1399 C1383 0.960 . S
C1400 C1401 1.391 . S
C1400 C1402 1.394 . S
C1400 H1416 0.931 . S
C1401 C1400 1.391 . S
C1401 C1405 1.376 . S
C1402 C1400 1.394 . S
C1402 C1403 1.369 . S
C1402 C1406 1.531 . S
C1403 C1402 1.369 . S
C1403 C1404 1.410 . S
C1403 C1411 1.503 . S
C1404 C1403 1.410 . S
C1404 C1405 1.392 . S
C1404 C1407 1.511 . S
C1405 C1401 1.376 . S
C1405 C1404 1.392 . S
C1405 H1417 0.929 . S
C1406 C1402 1.531 . S
C1406 H1418 0.960 . S
C1406 H1419 0.962 . S
C1406 H1420 0.960 . S
C1407 C1404 1.511 . S
C1407 H1421 0.961 . S
C1407 H1422 0.961 . S
C1407 H1423 0.961 . S
C1408 C1409 1.370 . S
C1408 C1410 1.363 . S
C1408 H1424 0.931 . S
C1409 C1408 1.370 . S
C1409 C1413 1.408 . S
C1410 C1408 1.363 . S
C1410 C1411 1.370 . S
C1410 C1414 1.524 . S
C1411 C1403 1.503 . S
C1411 C1410 1.370 . S
C1411 C1412 1.403 . S
C1412 C1411 1.403 . S
C1412 C1413 1.404 . S
C1412 C1415 1.539 . S
C1413 C1409 1.408 . S
C1413 C1412 1.404 . S
C1413 H1425 0.930 . S
C1414 C1410 1.524 . S
C1414 H1426 0.956 . S
C1414 H1427 0.961 . S
C1414 H1428 0.961 . S
C1415 C1412 1.539 . S
C1415 H1429 0.958 . S
C1415 H1430 0.961 . S
C1415 H1431 0.960 . S
H1416 C1400 0.931 . S
H1417 C1405 0.929 . S
H1418 C1406 0.960 . S
H1419 C1406 0.962 . S
H1420 C1406 0.960 . S
H1421 C1407 0.961 . S
H1422 C1407 0.961 . S
H1423 C1407 0.961 . S
H1424 C1408 0.931 . S
H1425 C1413 0.930 . S
H1426 C1414 0.956 . S
H1427 C1414 0.961 . S
H1428 C1414 0.961 . S
H1429 C1415 0.958 . S
H1430 C1415 0.961 . S
H1431 C1415 0.960 . S
C1432 C1433 1.391 . S
C1432 C1434 1.394 . S
C1432 H1448 0.931 . S
C1433 C1432 1.391 . S
C1433 C1437 1.376 . S
C1434 C1432 1.394 . S
C1434 C1435 1.369 . S
C1434 C1438 1.531 . S
C1435 C1434 1.369 . S
C1435 C1436 1.410 . S
C1435 C1443 1.503 . S
C1436 C1435 1.410 . S
C1436 C1437 1.392 . S
C1436 C1439 1.511 . S
C1437 C1433 1.376 . S
C1437 C1436 1.392 . S
C1437 H1449 0.929 . S
C1438 C1434 1.531 . S
C1438 H1450 0.960 . S
C1438 H1451 0.962 . S
C1438 H1452 0.960 . S
C1439 C1436 1.511 . S
C1439 H1453 0.961 . S
C1439 H1454 0.961 . S
C1439 H1455 0.961 . S
C1440 C1441 1.370 . S
C1440 C1442 1.363 . S
C1440 H1456 0.931 . S
C1441 C1440 1.370 . S
C1441 C1445 1.408 . S
C1442 C1440 1.363 . S
C1442 C1443 1.370 . S
C1442 C1446 1.524 . S
C1443 C1435 1.503 . S
C1443 C1442 1.370 . S
C1443 C1444 1.403 . S
C1444 C1443 1.403 . S
C1444 C1445 1.404 . S
C1444 C1447 1.539 . S
C1445 C1441 1.408 . S
C1445 C1444 1.404 . S
C1445 H1457 0.930 . S
C1446 C1442 1.524 . S
C1446 H1458 0.956 . S
C1446 H1459 0.961 . S
C1446 H1460 0.961 . S
C1447 C1444 1.539 . S
C1447 H1461 0.958 . S
C1447 H1462 0.961 . S
C1447 H1463 0.960 . S
H1448 C1432 0.931 . S
H1449 C1437 0.929 . S
H1450 C1438 0.960 . S
H1451 C1438 0.962 . S
H1452 C1438 0.960 . S
H1453 C1439 0.961 . S
H1454 C1439 0.961 . S
H1455 C1439 0.961 . S
H1456 C1440 0.931 . S
H1457 C1445 0.930 . S
H1458 C1446 0.956 . S
H1459 C1446 0.961 . S
H1460 C1446 0.961 . S
H1461 C1447 0.958 . S
H1462 C1447 0.961 . S
H1463 C1447 0.960 . S
C1464 C1465 1.391 . S
C1464 C1466 1.394 . S
C1464 H1480 0.931 . S
C1465 C1464 1.391 . S
C1465 C1469 1.376 1_554 S
C1466 C1464 1.394 . S
C1466 C1467 1.369 . S
C1466 C1470 1.531 . S
C1467 C1466 1.369 . S
C1467 C1468 1.410 . S
C1467 C1475 1.503 . S
C1468 C1467 1.410 . S
C1468 C1469 1.392 1_554 S
C1468 C1471 1.511 1_554 S
C1469 C1465 1.376 1_556 S
C1469 C1468 1.392 1_556 S
C1469 H1481 0.929 . S
C1470 C1466 1.531 . S
C1470 H1482 0.960 . S
C1470 H1483 0.962 . S
C1470 H1484 0.960 . S
C1471 C1468 1.511 1_556 S
C1471 H1485 0.961 . S
C1471 H1486 0.961 . S
C1471 H1487 0.961 1_565 S
C1472 C1473 1.370 . S
C1472 C1474 1.363 . S
C1472 H1488 0.931 . S
C1473 C1472 1.370 . S
C1473 C1477 1.408 1_565 S
C1474 C1472 1.363 . S
C1474 C1475 1.370 . S
C1474 C1478 1.524 . S
C1475 C1467 1.503 . S
C1475 C1474 1.370 . S
C1475 C1476 1.403 1_565 S
C1476 C1475 1.403 1_545 S
C1476 C1477 1.404 . S
C1476 C1479 1.539 . S
C1477 C1473 1.408 1_545 S
C1477 C1476 1.404 . S
C1477 H1489 0.930 . S
C1478 C1474 1.524 . S
C1478 H1490 0.956 . S
C1478 H1491 0.961 . S
C1478 H1492 0.961 . S
C1479 C1476 1.539 . S
C1479 H1493 0.958 . S
C1479 H1494 0.961 . S
C1479 H1495 0.960 . S
H1480 C1464 0.931 . S
H1481 C1469 0.929 . S
H1482 C1470 0.960 . S
H1483 C1470 0.962 . S
H1484 C1470 0.960 . S
H1485 C1471 0.961 . S
H1486 C1471 0.961 . S
H1487 C1471 0.961 1_545 S
H1488 C1472 0.931 . S
H1489 C1477 0.930 . S
H1490 C1478 0.956 . S
H1491 C1478 0.961 . S
H1492 C1478 0.961 . S
H1493 C1479 0.958 . S
H1494 C1479 0.961 . S
H1495 C1479 0.960 . S
C1496 C1497 1.373 1_556 S
C1496 C1498 1.394 . S
C1496 H1512 0.931 . S
C1497 C1496 1.373 1_554 S
C1497 C1501 1.403 . S
C1498 C1496 1.394 . S
C1498 C1499 1.369 1_556 S
C1498 C1502 1.531 . S
C1499 C1498 1.369 1_554 S
C1499 C1500 1.410 . S
C1499 C1507 1.503 . S
C1500 C1499 1.410 . S
C1500 C1501 1.392 . S
C1500 C1503 1.511 . S
C1501 C1497 1.403 . S
C1501 C1500 1.392 . S
C1501 H1513 0.929 . S
C1502 C1498 1.531 . S
C1502 H1514 0.960 . S
C1502 H1515 0.962 . S
C1502 H1516 0.960 . S
C1503 C1500 1.511 . S
C1503 H1517 0.961 . S
C1503 H1518 0.961 . S
C1503 H1519 0.961 . S
C1504 C1505 1.370 1_556 S
C1504 C1506 1.363 . S
C1504 H1520 0.931 . S
C1505 C1504 1.370 1_554 S
C1505 C1509 1.408 . S
C1506 C1504 1.363 . S
C1506 C1507 1.370 1_556 S
C1506 C1510 1.524 . S
C1507 C1499 1.503 . S
C1507 C1506 1.370 1_554 S
C1507 C1508 1.403 . S
C1508 C1507 1.403 . S
C1508 C1509 1.404 . S
C1508 C1511 1.539 . S
C1509 C1505 1.408 . S
C1509 C1508 1.404 . S
C1509 H1521 0.930 . S
C1510 C1506 1.524 . S
C1510 H1522 0.956 . S
C1510 H1523 0.961 . S
C1510 H1524 0.961 . S
C1511 C1508 1.539 . S
C1511 H1525 0.958 . S
C1511 H1526 0.961 . S
C1511 H1527 0.960 . S
H1512 C1496 0.931 . S
H1513 C1501 0.929 . S
H1514 C1502 0.960 . S
H1515 C1502 0.962 . S
H1516 C1502 0.960 . S
H1517 C1503 0.961 . S
H1518 C1503 0.961 . S
H1519 C1503 0.961 . S
H1520 C1504 0.931 . S
H1521 C1509 0.930 . S
H1522 C1510 0.956 . S
H1523 C1510 0.961 . S
H1524 C1510 0.961 . S
H1525 C1511 0.958 . S
H1526 C1511 0.961 . S
H1527 C1511 0.960 . S
C1528 C1529 1.391 . S
C1528 C1530 1.394 . S
C1528 H1544 0.931 . S
C1529 C1528 1.391 . S
C1529 C1533 1.376 . S
C1530 C1528 1.394 . S
C1530 C1531 1.369 . S
C1530 C1534 1.531 . S
C1531 C1530 1.369 . S
C1531 C1532 1.410 . S
C1531 C1539 1.503 . S
C1532 C1531 1.410 . S
C1532 C1533 1.392 . S
C1532 C1535 1.511 . S
C1533 C1529 1.376 . S
C1533 C1532 1.392 . S
C1533 H1545 0.929 . S
C1534 C1530 1.531 . S
C1534 H1546 0.960 . S
C1534 H1547 0.962 . S
C1534 H1548 0.960 . S
C1535 C1532 1.511 . S
C1535 H1549 0.961 . S
C1535 H1550 0.961 . S
C1535 H1551 0.961 . S
C1536 C1537 1.370 . S
C1536 C1538 1.363 . S
C1536 H1552 0.931 . S
C1537 C1536 1.370 . S
C1537 C1541 1.408 . S
C1538 C1536 1.363 . S
C1538 C1539 1.370 . S
C1538 C1542 1.524 . S
C1539 C1531 1.503 . S
C1539 C1538 1.370 . S
C1539 C1540 1.403 . S
C1540 C1539 1.403 . S
C1540 C1541 1.404 . S
C1540 C1543 1.539 . S
C1541 C1537 1.408 . S
C1541 C1540 1.404 . S
C1541 H1553 0.930 . S
C1542 C1538 1.524 . S
C1542 H1554 0.956 . S
C1542 H1555 0.961 . S
C1542 H1556 0.961 . S
C1543 C1540 1.539 . S
C1543 H1557 0.958 . S
C1543 H1558 0.961 . S
C1543 H1559 0.960 . S
H1544 C1528 0.931 . S
H1545 C1533 0.929 . S
H1546 C1534 0.960 . S
H1547 C1534 0.962 . S
H1548 C1534 0.960 . S
H1549 C1535 0.961 . S
H1550 C1535 0.961 . S
H1551 C1535 0.961 . S
H1552 C1536 0.931 . S
H1553 C1541 0.930 . S
H1554 C1542 0.956 . S
H1555 C1542 0.961 . S
H1556 C1542 0.961 . S
H1557 C1543 0.958 . S
H1558 C1543 0.961 . S
H1559 C1543 0.960 . S
C1560 C1561 1.391 . S
C1560 C1562 1.394 . S
C1560 H1576 0.931 . S
C1561 C1560 1.391 . S
C1561 C1565 1.376 . S
C1562 C1560 1.394 . S
C1562 C1563 1.369 . S
C1562 C1566 1.531 . S
C1563 C1562 1.369 . S
C1563 C1564 1.410 . S
C1563 C1571 1.503 . S
C1564 C1563 1.410 . S
C1564 C1565 1.392 . S
C1564 C1567 1.511 . S
C1565 C1561 1.376 . S
C1565 C1564 1.392 . S
C1565 H1577 0.929 . S
C1566 C1562 1.531 . S
C1566 H1578 0.960 . S
C1566 H1579 0.962 . S
C1566 H1580 0.960 . S
C1567 C1564 1.511 . S
C1567 H1581 0.961 . S
C1567 H1582 0.961 . S
C1567 H1583 0.961 . S
C1568 C1569 1.370 . S
C1568 C1570 1.363 . S
C1568 H1584 0.931 . S
C1569 C1568 1.370 . S
C1569 C1573 1.408 . S
C1570 C1568 1.363 . S
C1570 C1571 1.370 . S
C1570 C1574 1.524 . S
C1571 C1563 1.503 . S
C1571 C1570 1.370 . S
C1571 C1572 1.403 . S
C1572 C1571 1.403 . S
C1572 C1573 1.404 . S
C1572 C1575 1.539 . S
C1573 C1569 1.408 . S
C1573 C1572 1.404 . S
C1573 H1585 0.930 . S
C1574 C1570 1.524 . S
C1574 H1586 0.956 . S
C1574 H1587 0.961 . S
C1574 H1588 0.961 . S
C1575 C1572 1.539 . S
C1575 H1589 0.958 . S
C1575 H1590 0.961 . S
C1575 H1591 0.960 . S
H1576 C1560 0.931 . S
H1577 C1565 0.929 . S
H1578 C1566 0.960 . S
H1579 C1566 0.962 . S
H1580 C1566 0.960 . S
H1581 C1567 0.961 . S
H1582 C1567 0.961 . S
H1583 C1567 0.961 . S
H1584 C1568 0.931 . S
H1585 C1573 0.930 . S
H1586 C1574 0.956 . S
H1587 C1574 0.961 . S
H1588 C1574 0.961 . S
H1589 C1575 0.958 . S
H1590 C1575 0.961 . S
H1591 C1575 0.960 . S
C1592 C1593 1.391 . S
C1592 C1594 1.394 . S
C1592 H1608 0.931 . S
C1593 C1592 1.391 . S
C1593 C1597 1.376 . S
C1594 C1592 1.394 . S
C1594 C1595 1.369 . S
C1594 C1598 1.531 . S
C1595 C1594 1.369 . S
C1595 C1596 1.410 . S
C1595 C1603 1.503 . S
C1596 C1595 1.410 . S
C1596 C1597 1.392 . S
C1596 C1599 1.511 . S
C1597 C1593 1.376 . S
C1597 C1596 1.392 . S
C1597 H1609 0.929 . S
C1598 C1594 1.531 . S
C1598 H1610 0.960 . S
C1598 H1611 0.962 . S
C1598 H1612 0.960 . S
C1599 C1596 1.511 . S
C1599 H1613 0.961 . S
C1599 H1614 0.961 . S
C1599 H1615 0.961 . S
C1600 C1601 1.370 . S
C1600 C1602 1.363 . S
C1600 H1616 0.931 . S
C1601 C1600 1.370 . S
C1601 C1605 1.408 . S
C1602 C1600 1.363 . S
C1602 C1603 1.370 . S
C1602 C1606 1.524 . S
C1603 C1595 1.503 . S
C1603 C1602 1.370 . S
C1603 C1604 1.403 . S
C1604 C1603 1.403 . S
C1604 C1605 1.404 . S
C1604 C1607 1.539 . S
C1605 C1601 1.408 . S
C1605 C1604 1.404 . S
C1605 H1617 0.930 . S
C1606 C1602 1.524 . S
C1606 H1618 0.956 . S
C1606 H1619 0.961 . S
C1606 H1620 0.961 . S
C1607 C1604 1.539 . S
C1607 H1621 0.958 . S
C1607 H1622 0.961 . S
C1607 H1623 0.960 . S
H1608 C1592 0.931 . S
H1609 C1597 0.929 . S
H1610 C1598 0.960 . S
H1611 C1598 0.962 . S
H1612 C1598 0.960 . S
H1613 C1599 0.961 . S
H1614 C1599 0.961 . S
H1615 C1599 0.961 . S
H1616 C1600 0.931 . S
H1617 C1605 0.930 . S
H1618 C1606 0.956 . S
H1619 C1606 0.961 . S
H1620 C1606 0.961 . S
H1621 C1607 0.958 . S
H1622 C1607 0.961 . S
H1623 C1607 0.960 . S
C1624 C1625 1.391 . S
C1624 C1626 1.394 . S
C1624 H1640 0.931 . S
C1625 C1624 1.391 . S
C1625 C1629 1.376 . S
C1626 C1624 1.394 . S
C1626 C1627 1.369 . S
C1626 C1630 1.531 . S
C1627 C1626 1.369 . S
C1627 C1628 1.410 . S
C1627 C1635 1.503 . S
C1628 C1627 1.410 . S
C1628 C1629 1.392 . S
C1628 C1631 1.511 . S
C1629 C1625 1.376 . S
C1629 C1628 1.392 . S
C1629 H1641 0.929 . S
C1630 C1626 1.531 . S
C1630 H1642 0.960 . S
C1630 H1643 0.962 . S
C1630 H1644 0.960 . S
C1631 C1628 1.511 . S
C1631 H1645 0.961 . S
C1631 H1646 0.961 . S
C1631 H1647 0.961 . S
C1632 C1633 1.370 . S
C1632 C1634 1.363 . S
C1632 H1648 0.931 . S
C1633 C1632 1.370 . S
C1633 C1637 1.408 . S
C1634 C1632 1.363 . S
C1634 C1635 1.370 . S
C1634 C1638 1.524 . S
C1635 C1627 1.503 . S
C1635 C1634 1.370 . S
C1635 C1636 1.403 . S
C1636 C1635 1.403 . S
C1636 C1637 1.404 . S
C1636 C1639 1.539 . S
C1637 C1633 1.408 . S
C1637 C1636 1.404 . S
C1637 H1649 0.930 . S
C1638 C1634 1.524 . S
C1638 H1650 0.956 . S
C1638 H1651 0.961 . S
C1638 H1652 0.961 . S
C1639 C1636 1.539 . S
C1639 H1653 0.958 . S
C1639 H1654 0.961 . S
C1639 H1655 0.960 . S
H1640 C1624 0.931 . S
H1641 C1629 0.929 . S
H1642 C1630 0.960 . S
H1643 C1630 0.962 . S
H1644 C1630 0.960 . S
H1645 C1631 0.961 . S
H1646 C1631 0.961 . S
H1647 C1631 0.961 . S
H1648 C1632 0.931 . S
H1649 C1637 0.930 . S
H1650 C1638 0.956 . S
H1651 C1638 0.961 . S
H1652 C1638 0.961 . S
H1653 C1639 0.958 . S
H1654 C1639 0.961 . S
H1655 C1639 0.960 . S
C1656 C1657 1.391 . S
C1656 C1658 1.394 . S
C1656 H1672 0.931 . S
C1657 C1656 1.391 . S
C1657 C1661 1.376 . S
C1658 C1656 1.394 . S
C1658 C1659 1.369 . S
C1658 C1662 1.531 . S
C1659 C1658 1.369 . S
C1659 C1660 1.410 . S
C1659 C1667 1.503 . S
C1660 C1659 1.410 . S
C1660 C1661 1.392 . S
C1660 C1663 1.511 . S
C1661 C1657 1.376 . S
C1661 C1660 1.392 . S
C1661 H1673 0.929 . S
C1662 C1658 1.531 . S
C1662 H1674 0.960 . S
C1662 H1675 0.962 . S
C1662 H1676 0.960 . S
C1663 C1660 1.511 . S
C1663 H1677 0.961 . S
C1663 H1678 0.961 . S
C1663 H1679 0.961 . S
C1664 C1665 1.370 . S
C1664 C1666 1.363 . S
C1664 H1680 0.931 . S
C1665 C1664 1.370 . S
C1665 C1669 1.408 . S
C1666 C1664 1.363 . S
C1666 C1667 1.370 . S
C1666 C1670 1.524 . S
C1667 C1659 1.503 . S
C1667 C1666 1.370 . S
C1667 C1668 1.403 . S
C1668 C1667 1.403 . S
C1668 C1669 1.404 . S
C1668 C1671 1.539 . S
C1669 C1665 1.408 . S
C1669 C1668 1.404 . S
C1669 H1681 0.930 . S
C1670 C1666 1.524 . S
C1670 H1682 0.956 . S
C1670 H1683 0.961 . S
C1670 H1684 0.961 . S
C1671 C1668 1.539 . S
C1671 H1685 0.958 . S
C1671 H1686 0.961 . S
C1671 H1687 0.960 . S
H1672 C1656 0.931 . S
H1673 C1661 0.929 . S
H1674 C1662 0.960 . S
H1675 C1662 0.962 . S
H1676 C1662 0.960 . S
H1677 C1663 0.961 . S
H1678 C1663 0.961 . S
H1679 C1663 0.961 . S
H1680 C1664 0.931 . S
H1681 C1669 0.930 . S
H1682 C1670 0.956 . S
H1683 C1670 0.961 . S
H1684 C1670 0.961 . S
H1685 C1671 0.958 . S
H1686 C1671 0.961 . S
H1687 C1671 0.960 . S
C1688 C1689 1.391 . S
C1688 C1690 1.394 . S
C1688 H1704 0.931 . S
C1689 C1688 1.391 . S
C1689 C1693 1.376 . S
C1690 C1688 1.394 . S
C1690 C1691 1.369 . S
C1690 C1694 1.531 . S
C1691 C1690 1.369 . S
C1691 C1692 1.410 . S
C1691 C1699 1.503 . S
C1692 C1691 1.410 . S
C1692 C1693 1.392 . S
C1692 C1695 1.511 . S
C1693 C1689 1.376 . S
C1693 C1692 1.392 . S
C1693 H1705 0.929 . S
C1694 C1690 1.531 . S
C1694 H1706 0.960 . S
C1694 H1707 0.962 . S
C1694 H1708 0.960 . S
C1695 C1692 1.511 . S
C1695 H1709 0.961 . S
C1695 H1710 0.961 . S
C1695 H1711 0.961 . S
C1696 C1697 1.370 . S
C1696 C1698 1.363 . S
C1696 H1712 0.931 . S
C1697 C1696 1.370 . S
C1697 C1701 1.408 . S
C1698 C1696 1.363 . S
C1698 C1699 1.370 . S
C1698 C1702 1.524 . S
C1699 C1691 1.503 . S
C1699 C1698 1.370 . S
C1699 C1700 1.403 . S
C1700 C1699 1.403 . S
C1700 C1701 1.404 . S
C1700 C1703 1.539 . S
C1701 C1697 1.408 . S
C1701 C1700 1.404 . S
C1701 H1713 0.930 . S
C1702 C1698 1.524 . S
C1702 H1714 0.956 . S
C1702 H1715 0.961 . S
C1702 H1716 0.961 . S
C1703 C1700 1.539 . S
C1703 H1717 0.958 . S
C1703 H1718 0.961 . S
C1703 H1719 0.960 . S
H1704 C1688 0.931 . S
H1705 C1693 0.929 . S
H1706 C1694 0.960 . S
H1707 C1694 0.962 . S
H1708 C1694 0.960 . S
H1709 C1695 0.961 . S
H1710 C1695 0.961 . S
H1711 C1695 0.961 . S
H1712 C1696 0.931 . S
H1713 C1701 0.930 . S
H1714 C1702 0.956 . S
H1715 C1702 0.961 . S
H1716 C1702 0.961 . S
H1717 C1703 0.958 . S
H1718 C1703 0.961 . S
H1719 C1703 0.960 . S
C1720 C1721 1.391 . S
C1720 C1722 1.394 . S
C1720 H1736 0.931 . S
C1721 C1720 1.391 . S
C1721 C1725 1.376 . S
C1722 C1720 1.394 . S
C1722 C1723 1.369 . S
C1722 C1726 1.531 . S
C1723 C1722 1.369 . S
C1723 C1724 1.410 . S
C1723 C1731 1.503 . S
C1724 C1723 1.410 . S
C1724 C1725 1.392 . S
C1724 C1727 1.511 . S
C1725 C1721 1.376 . S
C1725 C1724 1.392 . S
C1725 H1737 0.929 . S
C1726 C1722 1.531 . S
C1726 H1738 0.960 . S
C1726 H1739 0.962 . S
C1726 H1740 0.960 . S
C1727 C1724 1.511 . S
C1727 H1741 0.961 1_554 S
C1727 H1742 0.961 . S
C1727 H1743 0.961 1_554 S
C1728 C1729 1.370 . S
C1728 C1730 1.363 . S
C1728 H1744 0.931 . S
C1729 C1728 1.370 . S
C1729 C1733 1.408 . S
C1730 C1728 1.363 . S
C1730 C1731 1.370 . S
C1730 C1734 1.524 . S
C1731 C1723 1.503 . S
C1731 C1730 1.370 . S
C1731 C1732 1.403 . S
C1732 C1731 1.403 . S
C1732 C1733 1.404 . S
C1732 C1735 1.539 . S
C1733 C1729 1.408 . S
C1733 C1732 1.404 . S
C1733 H1745 0.930 . S
C1734 C1730 1.524 . S
C1734 H1746 0.956 . S
C1734 H1747 0.961 . S
C1734 H1748 0.961 . S
C1735 C1732 1.539 . S
C1735 H1749 0.958 . S
C1735 H1750 0.961 . S
C1735 H1751 0.960 . S
H1736 C1720 0.931 . S
H1737 C1725 0.929 . S
H1738 C1726 0.960 . S
H1739 C1726 0.962 . S
H1740 C1726 0.960 . S
H1741 C1727 0.961 1_556 S
H1742 C1727 0.961 . S
H1743 C1727 0.961 1_556 S
H1744 C1728 0.931 . S
H1745 C1733 0.930 . S
H1746 C1734 0.956 . S
H1747 C1734 0.961 . S
H1748 C1734 0.961 . S
H1749 C1735 0.958 . S
H1750 C1735 0.961 . S
H1751 C1735 0.960 . S
C1752 C1753 1.391 . S
C1752 C1754 1.394 . S
C1752 H1768 0.931 . S
C1753 C1752 1.391 . S
C1753 C1757 1.376 . S
C1754 C1752 1.394 . S
C1754 C1755 1.369 . S
C1754 C1758 1.531 . S
C1755 C1754 1.369 . S
C1755 C1756 1.410 . S
C1755 C1763 1.503 . S
C1756 C1755 1.410 . S
C1756 C1757 1.392 . S
C1756 C1759 1.511 . S
C1757 C1753 1.376 . S
C1757 C1756 1.392 . S
C1757 H1769 0.929 . S
C1758 C1754 1.531 . S
C1758 H1770 0.960 . S
C1758 H1771 0.962 . S
C1758 H1772 0.960 . S
C1759 C1756 1.511 . S
C1759 H1773 0.961 . S
C1759 H1774 0.961 . S
C1759 H1775 0.961 . S
C1760 C1761 1.370 . S
C1760 C1762 1.363 . S
C1760 H1776 0.931 . S
C1761 C1760 1.370 . S
C1761 C1765 1.408 . S
C1762 C1760 1.363 . S
C1762 C1763 1.370 . S
C1762 C1766 1.524 . S
C1763 C1755 1.503 . S
C1763 C1762 1.370 . S
C1763 C1764 1.403 . S
C1764 C1763 1.403 . S
C1764 C1765 1.404 . S
C1764 C1767 1.539 . S
C1765 C1761 1.408 . S
C1765 C1764 1.404 . S
C1765 H1777 0.930 . S
C1766 C1762 1.524 . S
C1766 H1778 0.956 . S
C1766 H1779 0.961 . S
C1766 H1780 0.961 . S
C1767 C1764 1.539 . S
C1767 H1781 0.958 . S
C1767 H1782 0.961 . S
C1767 H1783 0.960 . S
H1768 C1752 0.931 . S
H1769 C1757 0.929 . S
H1770 C1758 0.960 . S
H1771 C1758 0.962 . S
H1772 C1758 0.960 . S
H1773 C1759 0.961 . S
H1774 C1759 0.961 . S
H1775 C1759 0.961 . S
H1776 C1760 0.931 . S
H1777 C1765 0.930 . S
H1778 C1766 0.956 . S
H1779 C1766 0.961 . S
H1780 C1766 0.961 . S
H1781 C1767 0.958 . S
H1782 C1767 0.961 . S
H1783 C1767 0.960 . S
C1784 C1785 1.391 . S
C1784 C1786 1.394 . S
C1784 H1800 0.931 . S
C1785 C1784 1.391 . S
C1785 C1789 1.376 . S
C1786 C1784 1.394 . S
C1786 C1787 1.369 . S
C1786 C1790 1.531 . S
C1787 C1786 1.369 . S
C1787 C1788 1.410 . S
C1787 C1795 1.503 . S
C1788 C1787 1.410 . S
C1788 C1789 1.392 . S
C1788 C1791 1.511 . S
C1789 C1785 1.376 . S
C1789 C1788 1.392 . S
C1789 H1801 0.929 . S
C1790 C1786 1.531 . S
C1790 H1802 0.960 . S
C1790 H1803 0.962 . S
C1790 H1804 0.960 . S
C1791 C1788 1.511 . S
C1791 H1805 0.961 . S
C1791 H1806 0.961 . S
C1791 H1807 0.961 . S
C1792 C1793 1.370 . S
C1792 C1794 1.363 . S
C1792 H1808 0.931 . S
C1793 C1792 1.370 . S
C1793 C1797 1.408 . S
C1794 C1792 1.363 . S
C1794 C1795 1.370 . S
C1794 C1798 1.524 . S
C1795 C1787 1.503 . S
C1795 C1794 1.370 . S
C1795 C1796 1.403 . S
C1796 C1795 1.403 . S
C1796 C1797 1.404 . S
C1796 C1799 1.539 . S
C1797 C1793 1.408 . S
C1797 C1796 1.404 . S
C1797 H1809 0.930 . S
C1798 C1794 1.524 . S
C1798 H1810 0.956 . S
C1798 H1811 0.961 . S
C1798 H1812 0.961 . S
C1799 C1796 1.539 . S
C1799 H1813 0.958 . S
C1799 H1814 0.961 . S
C1799 H1815 0.960 . S
H1800 C1784 0.931 . S
H1801 C1789 0.929 . S
H1802 C1790 0.960 . S
H1803 C1790 0.962 . S
H1804 C1790 0.960 . S
H1805 C1791 0.961 . S
H1806 C1791 0.961 . S
H1807 C1791 0.961 . S
H1808 C1792 0.931 . S
H1809 C1797 0.930 . S
H1810 C1798 0.956 . S
H1811 C1798 0.961 . S
H1812 C1798 0.961 . S
H1813 C1799 0.958 . S
H1814 C1799 0.961 . S
H1815 C1799 0.960 . S
C1816 C1817 1.391 . S
C1816 C1818 1.394 . S
C1816 H1832 0.931 . S
C1817 C1816 1.391 . S
C1817 C1821 1.376 . S
C1818 C1816 1.394 . S
C1818 C1819 1.369 . S
C1818 C1822 1.531 . S
C1819 C1818 1.369 . S
C1819 C1820 1.410 . S
C1819 C1827 1.503 . S
C1820 C1819 1.410 . S
C1820 C1821 1.392 . S
C1820 C1823 1.511 . S
C1821 C1817 1.376 . S
C1821 C1820 1.392 . S
C1821 H1833 0.929 . S
C1822 C1818 1.531 . S
C1822 H1834 0.960 . S
C1822 H1835 0.962 . S
C1822 H1836 0.960 . S
C1823 C1820 1.511 . S
C1823 H1837 0.961 . S
C1823 H1838 0.961 . S
C1823 H1839 0.961 . S
C1824 C1825 1.370 . S
C1824 C1826 1.363 . S
C1824 H1840 0.931 . S
C1825 C1824 1.370 . S
C1825 C1829 1.408 . S
C1826 C1824 1.363 . S
C1826 C1827 1.370 . S
C1826 C1830 1.524 . S
C1827 C1819 1.503 . S
C1827 C1826 1.370 . S
C1827 C1828 1.403 . S
C1828 C1827 1.403 . S
C1828 C1829 1.404 . S
C1828 C1831 1.539 . S
C1829 C1825 1.408 . S
C1829 C1828 1.404 . S
C1829 H1841 0.930 . S
C1830 C1826 1.524 . S
C1830 H1842 0.956 . S
C1830 H1843 0.961 . S
C1830 H1844 0.961 . S
C1831 C1828 1.539 . S
C1831 H1845 0.958 . S
C1831 H1846 0.961 . S
C1831 H1847 0.960 . S
H1832 C1816 0.931 . S
H1833 C1821 0.929 . S
H1834 C1822 0.960 . S
H1835 C1822 0.962 . S
H1836 C1822 0.960 . S
H1837 C1823 0.961 . S
H1838 C1823 0.961 . S
H1839 C1823 0.961 . S
H1840 C1824 0.931 . S
H1841 C1829 0.930 . S
H1842 C1830 0.956 . S
H1843 C1830 0.961 . S
H1844 C1830 0.961 . S
H1845 C1831 0.958 . S
H1846 C1831 0.961 . S
H1847 C1831 0.960 . S
C1848 C1849 1.391 . S
C1848 C1850 1.394 . S
C1848 H1864 0.931 . S
C1849 C1848 1.391 . S
C1849 C1853 1.376 . S
C1850 C1848 1.394 . S
C1850 C1851 1.369 . S
C1850 C1854 1.531 . S
C1851 C1850 1.369 . S
C1851 C1852 1.410 . S
C1851 C1859 1.503 . S
C1852 C1851 1.410 . S
C1852 C1853 1.392 . S
C1852 C1855 1.511 . S
C1853 C1849 1.376 . S
C1853 C1852 1.392 . S
C1853 H1865 0.929 . S
C1854 C1850 1.531 . S
C1854 H1866 0.960 . S
C1854 H1867 0.962 . S
C1854 H1868 0.960 . S
C1855 C1852 1.511 . S
C1855 H1869 0.961 . S
C1855 H1870 0.961 . S
C1855 H1871 0.961 . S
C1856 C1857 1.370 . S
C1856 C1858 1.363 . S
C1856 H1872 0.931 . S
C1857 C1856 1.370 . S
C1857 C1861 1.408 . S
C1858 C1856 1.363 . S
C1858 C1859 1.370 . S
C1858 C1862 1.524 . S
C1859 C1851 1.503 . S
C1859 C1858 1.370 . S
C1859 C1860 1.403 . S
C1860 C1859 1.403 . S
C1860 C1861 1.404 . S
C1860 C1863 1.539 . S
C1861 C1857 1.408 . S
C1861 C1860 1.404 . S
C1861 H1873 0.930 . S
C1862 C1858 1.524 . S
C1862 H1874 0.956 . S
C1862 H1875 0.961 . S
C1862 H1876 0.961 . S
C1863 C1860 1.539 . S
C1863 H1877 0.958 . S
C1863 H1878 0.961 . S
C1863 H1879 0.960 . S
H1864 C1848 0.931 . S
H1865 C1853 0.929 . S
H1866 C1854 0.960 . S
H1867 C1854 0.962 . S
H1868 C1854 0.960 . S
H1869 C1855 0.961 . S
H1870 C1855 0.961 . S
H1871 C1855 0.961 . S
H1872 C1856 0.931 . S
H1873 C1861 0.930 . S
H1874 C1862 0.956 . S
H1875 C1862 0.961 . S
H1876 C1862 0.961 . S
H1877 C1863 0.958 . S
H1878 C1863 0.961 . S
H1879 C1863 0.960 . S
C1880 C1881 1.391 . S
C1880 C1882 1.394 . S
C1880 H1896 0.931 . S
C1881 C1880 1.391 . S
C1881 C1885 1.376 . S
C1882 C1880 1.394 . S
C1882 C1883 1.369 . S
C1882 C1886 1.531 . S
C1883 C1882 1.369 . S
C1883 C1884 1.410 . S
C1883 C1891 1.503 . S
C1884 C1883 1.410 . S
C1884 C1885 1.392 . S
C1884 C1887 1.511 . S
C1885 C1881 1.376 . S
C1885 C1884 1.392 . S
C1885 H1897 0.929 . S
C1886 C1882 1.531 . S
C1886 H1898 0.960 . S
C1886 H1899 0.962 . S
C1886 H1900 0.960 . S
C1887 C1884 1.511 . S
C1887 H1901 0.961 . S
C1887 H1902 0.961 . S
C1887 H1903 0.961 . S
C1888 C1889 1.370 . S
C1888 C1890 1.363 . S
C1888 H1904 0.931 . S
C1889 C1888 1.370 . S
C1889 C1893 1.408 . S
C1890 C1888 1.363 . S
C1890 C1891 1.370 . S
C1890 C1894 1.524 . S
C1891 C1883 1.503 . S
C1891 C1890 1.370 . S
C1891 C1892 1.403 . S
C1892 C1891 1.403 . S
C1892 C1893 1.404 . S
C1892 C1895 1.539 . S
C1893 C1889 1.408 . S
C1893 C1892 1.404 . S
C1893 H1905 0.930 . S
C1894 C1890 1.524 . S
C1894 H1906 0.956 . S
C1894 H1907 0.961 . S
C1894 H1908 0.961 . S
C1895 C1892 1.539 . S
C1895 H1909 0.958 . S
C1895 H1910 0.961 . S
C1895 H1911 0.960 . S
H1896 C1880 0.931 . S
H1897 C1885 0.929 . S
H1898 C1886 0.960 . S
H1899 C1886 0.962 . S
H1900 C1886 0.960 . S
H1901 C1887 0.961 . S
H1902 C1887 0.961 . S
H1903 C1887 0.961 . S
H1904 C1888 0.931 . S
H1905 C1893 0.930 . S
H1906 C1894 0.956 . S
H1907 C1894 0.961 . S
H1908 C1894 0.961 . S
H1909 C1895 0.958 . S
H1910 C1895 0.961 . S
H1911 C1895 0.960 . S
C1912 C1913 1.391 . S
C1912 C1914 1.394 . S
C1912 H1928 0.931 . S
C1913 C1912 1.391 . S
C1913 C1917 1.376 . S
C1914 C1912 1.394 . S
C1914 C1915 1.369 . S
C1914 C1918 1.531 . S
C1915 C1914 1.369 . S
C1915 C1916 1.410 . S
C1915 C1923 1.503 . S
C1916 C1915 1.410 . S
C1916 C1917 1.392 . S
C1916 C1919 1.511 . S
C1917 C1913 1.376 . S
C1917 C1916 1.392 . S
C1917 H1929 0.929 . S
C1918 C1914 1.531 . S
C1918 H1930 0.960 . S
C1918 H1931 0.962 . S
C1918 H1932 0.960 . S
C1919 C1916 1.511 . S
C1919 H1933 0.961 . S
C1919 H1934 0.961 . S
C1919 H1935 0.961 . S
C1920 C1921 1.370 . S
C1920 C1922 1.363 . S
C1920 H1936 0.931 . S
C1921 C1920 1.370 . S
C1921 C1925 1.408 . S
C1922 C1920 1.363 . S
C1922 C1923 1.370 . S
C1922 C1926 1.524 . S
C1923 C1915 1.503 . S
C1923 C1922 1.370 . S
C1923 C1924 1.403 . S
C1924 C1923 1.403 . S
C1924 C1925 1.404 . S
C1924 C1927 1.539 . S
C1925 C1921 1.408 . S
C1925 C1924 1.404 . S
C1925 H1937 0.930 . S
C1926 C1922 1.524 . S
C1926 H1938 0.956 . S
C1926 H1939 0.961 . S
C1926 H1940 0.961 . S
C1927 C1924 1.539 . S
C1927 H1941 0.958 . S
C1927 H1942 0.961 . S
C1927 H1943 0.960 . S
H1928 C1912 0.931 . S
H1929 C1917 0.929 . S
H1930 C1918 0.960 . S
H1931 C1918 0.962 . S
H1932 C1918 0.960 . S
H1933 C1919 0.961 . S
H1934 C1919 0.961 . S
H1935 C1919 0.961 . S
H1936 C1920 0.931 . S
H1937 C1925 0.930 . S
H1938 C1926 0.956 . S
H1939 C1926 0.961 . S
H1940 C1926 0.961 . S
H1941 C1927 0.958 . S
H1942 C1927 0.961 . S
H1943 C1927 0.960 . S
C1944 C1945 1.391 . S
C1944 C1946 1.394 . S
C1944 H1960 0.931 . S
C1945 C1944 1.391 . S
C1945 C1949 1.376 . S
C1946 C1944 1.394 . S
C1946 C1947 1.369 . S
C1946 C1950 1.531 . S
C1947 C1946 1.369 . S
C1947 C1948 1.410 . S
C1947 C1955 1.503 . S
C1948 C1947 1.410 . S
C1948 C1949 1.392 . S
C1948 C1951 1.511 . S
C1949 C1945 1.376 . S
C1949 C1948 1.392 . S
C1949 H1961 0.929 . S
C1950 C1946 1.531 . S
C1950 H1962 0.960 . S
C1950 H1963 0.962 . S
C1950 H1964 0.960 . S
C1951 C1948 1.511 . S
C1951 H1965 0.961 . S
C1951 H1966 0.961 . S
C1951 H1967 0.961 . S
C1952 C1953 1.370 . S
C1952 C1954 1.363 . S
C1952 H1968 0.931 . S
C1953 C1952 1.370 . S
C1953 C1957 1.408 . S
C1954 C1952 1.363 . S
C1954 C1955 1.370 . S
C1954 C1958 1.524 . S
C1955 C1947 1.503 . S
C1955 C1954 1.370 . S
C1955 C1956 1.403 . S
C1956 C1955 1.403 . S
C1956 C1957 1.404 . S
C1956 C1959 1.539 . S
C1957 C1953 1.408 . S
C1957 C1956 1.404 . S
C1957 H1969 0.930 . S
C1958 C1954 1.524 . S
C1958 H1970 0.956 . S
C1958 H1971 0.961 . S
C1958 H1972 0.961 . S
C1959 C1956 1.539 . S
C1959 H1973 0.958 . S
C1959 H1974 0.961 . S
C1959 H1975 0.960 . S
H1960 C1944 0.931 . S
H1961 C1949 0.929 . S
H1962 C1950 0.960 . S
H1963 C1950 0.962 . S
H1964 C1950 0.960 . S
H1965 C1951 0.961 . S
H1966 C1951 0.961 . S
H1967 C1951 0.961 . S
H1968 C1952 0.931 . S
H1969 C1957 0.930 . S
H1970 C1958 0.956 . S
H1971 C1958 0.961 . S
H1972 C1958 0.961 . S
H1973 C1959 0.958 . S
H1974 C1959 0.961 . S
H1975 C1959 0.960 . S
C1976 C1977 1.391 . S
C1976 C1978 1.394 . S
C1976 H1992 0.931 . S
C1977 C1976 1.391 . S
C1977 C1981 1.376 1_545 S
C1978 C1976 1.394 . S
C1978 C1979 1.369 . S
C1978 C1982 1.531 . S
C1979 C1978 1.369 . S
C1979 C1980 1.410 1_545 S
C1979 C1987 1.503 . S
C1980 C1979 1.410 1_565 S
C1980 C1981 1.392 . S
C1980 C1983 1.511 . S
C1981 C1977 1.376 1_565 S
C1981 C1980 1.392 . S
C1981 H1993 0.929 . S
C1982 C1978 1.531 . S
C1982 H1994 0.960 . S
C1982 H1995 0.962 . S
C1982 H1996 0.960 . S
C1983 C1980 1.511 . S
C1983 H1997 0.961 . S
C1983 H1998 0.961 . S
C1983 H1999 0.961 . S
C1984 C1985 1.370 . S
C1984 C1986 1.363 . S
C1984 H2000 0.931 . S
C1985 C1984 1.370 . S
C1985 C1989 1.408 1_545 S
C1986 C1984 1.363 . S
C1986 C1987 1.370 . S
C1986 C1990 1.524 . S
C1987 C1979 1.503 . S
C1987 C1986 1.370 . S
C1987 C1988 1.403 1_545 S
C1988 C1987 1.403 1_565 S
C1988 C1989 1.404 . S
C1988 C1991 1.539 . S
C1989 C1985 1.408 1_565 S
C1989 C1988 1.404 . S
C1989 H2001 0.930 . S
C1990 C1986 1.524 . S
C1990 H2002 0.956 . S
C1990 H2003 0.961 . S
C1990 H2004 0.961 . S
C1991 C1988 1.539 . S
C1991 H2005 0.958 . S
C1991 H2006 0.961 . S
C1991 H2007 0.960 . S
H1992 C1976 0.931 . S
H1993 C1981 0.929 . S
H1994 C1982 0.960 . S
H1995 C1982 0.962 . S
H1996 C1982 0.960 . S
H1997 C1983 0.961 . S
H1998 C1983 0.961 . S
H1999 C1983 0.961 . S
H2000 C1984 0.931 . S
H2001 C1989 0.930 . S
H2002 C1990 0.956 . S
H2003 C1990 0.961 . S
H2004 C1990 0.961 . S
H2005 C1991 0.958 . S
H2006 C1991 0.961 . S
H2007 C1991 0.960 . S
C2008 C2009 1.391 . S
C2008 C2010 1.394 . S
C2008 H2024 0.931 . S
C2009 C2008 1.391 . S
C2009 C2013 1.376 . S
C2010 C2008 1.394 . S
C2010 C2011 1.369 . S
C2010 C2014 1.531 . S
C2011 C2010 1.369 . S
C2011 C2012 1.410 . S
C2011 C2019 1.503 . S
C2012 C2011 1.410 . S
C2012 C2013 1.392 . S
C2012 C2015 1.511 . S
C2013 C2009 1.376 . S
C2013 C2012 1.392 . S
C2013 H2025 0.929 . S
C2014 C2010 1.531 . S
C2014 H2026 0.960 . S
C2014 H2027 0.962 . S
C2014 H2028 0.960 . S
C2015 C2012 1.511 . S
C2015 H2029 0.961 . S
C2015 H2030 0.961 . S
C2015 H2031 0.961 . S
C2016 C2017 1.370 . S
C2016 C2018 1.363 . S
C2016 H2032 0.931 . S
C2017 C2016 1.370 . S
C2017 C2021 1.408 . S
C2018 C2016 1.363 . S
C2018 C2019 1.370 . S
C2018 C2022 1.524 . S
C2019 C2011 1.503 . S
C2019 C2018 1.370 . S
C2019 C2020 1.403 . S
C2020 C2019 1.403 . S
C2020 C2021 1.404 . S
C2020 C2023 1.539 . S
C2021 C2017 1.408 . S
C2021 C2020 1.404 . S
C2021 H2033 0.930 . S
C2022 C2018 1.524 . S
C2022 H2034 0.956 . S
C2022 H2035 0.961 . S
C2022 H2036 0.961 . S
C2023 C2020 1.539 . S
C2023 H2037 0.958 . S
C2023 H2038 0.961 . S
C2023 H2039 0.960 . S
H2024 C2008 0.931 . S
H2025 C2013 0.929 . S
H2026 C2014 0.960 . S
H2027 C2014 0.962 . S
H2028 C2014 0.960 . S
H2029 C2015 0.961 . S
H2030 C2015 0.961 . S
H2031 C2015 0.961 . S
H2032 C2016 0.931 . S
H2033 C2021 0.930 . S
H2034 C2022 0.956 . S
H2035 C2022 0.961 . S
H2036 C2022 0.961 . S
H2037 C2023 0.958 . S
H2038 C2023 0.961 . S
H2039 C2023 0.960 . S
C2040 C2041 1.391 . S
C2040 C2042 1.394 . S
C2040 H2056 0.931 . S
C2041 C2040 1.391 . S
C2041 C2045 1.376 . S
C2042 C2040 1.394 . S
C2042 C2043 1.369 . S
C2042 C2046 1.531 . S
C2043 C2042 1.369 . S
C2043 C2044 1.410 . S
C2043 C2051 1.503 . S
C2044 C2043 1.410 . S
C2044 C2045 1.392 . S
C2044 C2047 1.511 . S
C2045 C2041 1.376 . S
C2045 C2044 1.392 . S
C2045 H2057 0.929 . S
C2046 C2042 1.531 . S
C2046 H2058 0.960 . S
C2046 H2059 0.962 . S
C2046 H2060 0.960 . S
C2047 C2044 1.511 . S
C2047 H2061 0.961 . S
C2047 H2062 0.961 . S
C2047 H2063 0.961 . S
C2048 C2049 1.370 . S
C2048 C2050 1.363 . S
C2048 H2064 0.931 1_545 S
C2049 C2048 1.370 . S
C2049 C2053 1.408 . S
C2050 C2048 1.363 . S
C2050 C2051 1.370 . S
C2050 C2054 1.524 1_545 S
C2051 C2043 1.503 . S
C2051 C2050 1.370 . S
C2051 C2052 1.403 . S
C2052 C2051 1.403 . S
C2052 C2053 1.404 . S
C2052 C2055 1.539 . S
C2053 C2049 1.408 . S
C2053 C2052 1.404 . S
C2053 H2065 0.930 . S
C2054 C2050 1.524 1_565 S
C2054 H2066 0.956 . S
C2054 H2067 0.961 . S
C2054 H2068 0.961 . S
C2055 C2052 1.539 . S
C2055 H2069 0.958 . S
C2055 H2070 0.961 . S
C2055 H2071 0.960 . S
H2056 C2040 0.931 . S
H2057 C2045 0.929 . S
H2058 C2046 0.960 . S
H2059 C2046 0.962 . S
H2060 C2046 0.960 . S
H2061 C2047 0.961 . S
H2062 C2047 0.961 . S
H2063 C2047 0.961 . S
H2064 C2048 0.931 1_565 S
H2065 C2053 0.930 . S
H2066 C2054 0.956 . S
H2067 C2054 0.961 . S
H2068 C2054 0.961 . S
H2069 C2055 0.958 . S
H2070 C2055 0.961 . S
H2071 C2055 0.960 . S
C2072 C2073 1.391 . S
C2072 C2074 1.394 . S
C2072 H2088 0.931 . S
C2073 C2072 1.391 . S
C2073 C2077 1.376 . S
C2074 C2072 1.394 . S
C2074 C2075 1.369 . S
C2074 C2078 1.531 . S
C2075 C2074 1.369 . S
C2075 C2076 1.410 . S
C2075 C2083 1.503 . S
C2076 C2075 1.410 . S
C2076 C2077 1.392 . S
C2076 C2079 1.511 . S
C2077 C2073 1.376 . S
C2077 C2076 1.392 . S
C2077 H2089 0.929 . S
C2078 C2074 1.531 . S
C2078 H2090 0.960 . S
C2078 H2091 0.962 . S
C2078 H2092 0.960 . S
C2079 C2076 1.511 . S
C2079 H2093 0.961 . S
C2079 H2094 0.961 . S
C2079 H2095 0.961 . S
C2080 C2081 1.370 . S
C2080 C2082 1.363 . S
C2080 H2096 0.931 . S
C2081 C2080 1.370 . S
C2081 C2085 1.408 . S
C2082 C2080 1.363 . S
C2082 C2083 1.370 . S
C2082 C2086 1.524 . S
C2083 C2075 1.503 . S
C2083 C2082 1.370 . S
C2083 C2084 1.403 . S
C2084 C2083 1.403 . S
C2084 C2085 1.404 . S
C2084 C2087 1.539 . S
C2085 C2081 1.408 . S
C2085 C2084 1.404 . S
C2085 H2097 0.930 . S
C2086 C2082 1.524 . S
C2086 H2098 0.956 . S
C2086 H2099 0.961 . S
C2086 H2100 0.961 . S
C2087 C2084 1.539 . S
C2087 H2101 0.958 . S
C2087 H2102 0.961 . S
C2087 H2103 0.960 . S
H2088 C2072 0.931 . S
H2089 C2077 0.929 . S
H2090 C2078 0.960 . S
H2091 C2078 0.962 . S
H2092 C2078 0.960 . S
H2093 C2079 0.961 . S
H2094 C2079 0.961 . S
H2095 C2079 0.961 . S
H2096 C2080 0.931 . S
H2097 C2085 0.930 . S
H2098 C2086 0.956 . S
H2099 C2086 0.961 . S
H2100 C2086 0.961 . S
H2101 C2087 0.958 . S
H2102 C2087 0.961 . S
H2103 C2087 0.960 . S
C2104 C2105 1.391 . S
C2104 C2106 1.394 . S
C2104 H2120 0.931 1_545 S
C2105 C2104 1.391 . S
C2105 C2109 1.376 . S
C2106 C2104 1.394 . S
C2106 C2107 1.369 . S
C2106 C2110 1.531 . S
C2107 C2106 1.369 . S
C2107 C2108 1.410 . S
C2107 C2115 1.503 . S
C2108 C2107 1.410 . S
C2108 C2109 1.392 . S
C2108 C2111 1.511 . S
C2109 C2105 1.376 . S
C2109 C2108 1.392 . S
C2109 H2121 0.929 . S
C2110 C2106 1.531 . S
C2110 H2122 0.960 . S
C2110 H2123 0.962 1_545 S
C2110 H2124 0.960 . S
C2111 C2108 1.511 . S
C2111 H2125 0.961 . S
C2111 H2126 0.961 . S
C2111 H2127 0.961 . S
C2112 C2113 1.370 . S
C2112 C2114 1.356 1_545 S
C2112 H2128 0.931 1_545 S
C2113 C2112 1.370 . S
C2113 C2117 1.408 . S
C2114 C2112 1.356 1_565 S
C2114 C2115 1.361 1_565 S
C2114 C2118 1.541 . S
C2115 C2107 1.503 . S
C2115 C2114 1.361 1_545 S
C2115 C2116 1.403 . S
C2116 C2115 1.403 . S
C2116 C2117 1.404 . S
C2116 C2119 1.539 . S
C2117 C2113 1.408 . S
C2117 C2116 1.404 . S
C2117 H2129 0.930 . S
C2118 C2114 1.541 . S
C2118 H2130 0.956 . S
C2118 H2131 0.961 . S
C2118 H2132 0.961 . S
C2119 C2116 1.539 . S
C2119 H2133 0.958 . S
C2119 H2134 0.961 . S
C2119 H2135 0.960 . S
H2120 C2104 0.931 1_565 S
H2121 C2109 0.929 . S
H2122 C2110 0.960 . S
H2123 C2110 0.962 1_565 S
H2124 C2110 0.960 . S
H2125 C2111 0.961 . S
H2126 C2111 0.961 . S
H2127 C2111 0.961 . S
H2128 C2112 0.931 1_565 S
H2129 C2117 0.930 . S
H2130 C2118 0.956 . S
H2131 C2118 0.961 . S
H2132 C2118 0.961 . S
H2133 C2119 0.958 . S
H2134 C2119 0.961 . S
H2135 C2119 0.960 . S
C2136 C2137 1.391 . S
C2136 C2138 1.394 . S
C2136 H2152 0.931 . S
C2137 C2136 1.391 . S
C2137 C2141 1.376 . S
C2138 C2136 1.394 . S
C2138 C2139 1.369 . S
C2138 C2142 1.531 . S
C2139 C2138 1.369 . S
C2139 C2140 1.410 . S
C2139 C2147 1.503 . S
C2140 C2139 1.410 . S
C2140 C2141 1.392 . S
C2140 C2143 1.511 . S
C2141 C2137 1.376 . S
C2141 C2140 1.392 . S
C2141 H2153 0.929 . S
C2142 C2138 1.531 . S
C2142 H2154 0.960 . S
C2142 H2155 0.962 . S
C2142 H2156 0.960 . S
C2143 C2140 1.511 . S
C2143 H2157 0.961 . S
C2143 H2158 0.961 . S
C2143 H2159 0.961 . S
C2144 C2145 1.370 . S
C2144 C2146 1.363 . S
C2144 H2160 0.931 . S
C2145 C2144 1.370 . S
C2145 C2149 1.408 . S
C2146 C2144 1.363 . S
C2146 C2147 1.370 . S
C2146 C2150 1.524 . S
C2147 C2139 1.503 . S
C2147 C2146 1.370 . S
C2147 C2148 1.403 . S
C2148 C2147 1.403 . S
C2148 C2149 1.404 . S
C2148 C2151 1.539 . S
C2149 C2145 1.408 . S
C2149 C2148 1.404 . S
C2149 H2161 0.930 . S
C2150 C2146 1.524 . S
C2150 H2162 0.956 . S
C2150 H2163 0.961 . S
C2150 H2164 0.961 . S
C2151 C2148 1.539 . S
C2151 H2165 0.958 . S
C2151 H2166 0.961 . S
C2151 H2167 0.960 . S
H2152 C2136 0.931 . S
H2153 C2141 0.929 . S
H2154 C2142 0.960 . S
H2155 C2142 0.962 . S
H2156 C2142 0.960 . S
H2157 C2143 0.961 . S
H2158 C2143 0.961 . S
H2159 C2143 0.961 . S
H2160 C2144 0.931 . S
H2161 C2149 0.930 . S
H2162 C2150 0.956 . S
H2163 C2150 0.961 . S
H2164 C2150 0.961 . S
H2165 C2151 0.958 . S
H2166 C2151 0.961 . S
H2167 C2151 0.960 . S
C2168 C2169 1.391 1_565 S
C2168 C2170 1.394 . S
C2168 H2184 0.931 . S
C2169 C2168 1.391 1_545 S
C2169 C2173 1.376 . S
C2170 C2168 1.394 . S
C2170 C2171 1.369 . S
C2170 C2174 1.531 . S
C2171 C2170 1.369 . S
C2171 C2172 1.410 1_565 S
C2171 C2179 1.503 . S
C2172 C2171 1.410 1_545 S
C2172 C2173 1.392 . S
C2172 C2175 1.511 . S
C2173 C2169 1.376 . S
C2173 C2172 1.392 . S
C2173 H2185 0.929 . S
C2174 C2170 1.531 . S
C2174 H2186 0.960 . S
C2174 H2187 0.962 . S
C2174 H2188 0.960 . S
C2175 C2172 1.511 . S
C2175 H2189 0.961 . S
C2175 H2190 0.961 . S
C2175 H2191 0.961 . S
C2176 C2177 1.370 . S
C2176 C2178 1.363 . S
C2176 H2192 0.931 . S
C2177 C2176 1.370 . S
C2177 C2181 1.408 1_565 S
C2178 C2176 1.363 . S
C2178 C2179 1.370 . S
C2178 C2182 1.524 . S
C2179 C2171 1.503 . S
C2179 C2178 1.370 . S
C2179 C2180 1.403 1_565 S
C2180 C2179 1.403 1_545 S
C2180 C2181 1.404 . S
C2180 C2183 1.539 . S
C2181 C2177 1.408 1_545 S
C2181 C2180 1.404 . S
C2181 H2193 0.930 . S
C2182 C2178 1.524 . S
C2182 H2194 0.956 . S
C2182 H2195 0.961 . S
C2182 H2196 0.961 . S
C2183 C2180 1.539 . S
C2183 H2197 0.958 . S
C2183 H2198 0.961 . S
C2183 H2199 0.960 . S
H2184 C2168 0.931 . S
H2185 C2173 0.929 . S
H2186 C2174 0.960 . S
H2187 C2174 0.962 . S
H2188 C2174 0.960 . S
H2189 C2175 0.961 . S
H2190 C2175 0.961 . S
H2191 C2175 0.961 . S
H2192 C2176 0.931 . S
H2193 C2181 0.930 . S
H2194 C2182 0.956 . S
H2195 C2182 0.961 . S
H2196 C2182 0.961 . S
H2197 C2183 0.958 . S
H2198 C2183 0.961 . S
H2199 C2183 0.960 . S
C2200 C2201 1.391 . S
C2200 C2202 1.394 . S
C2200 H2216 0.931 . S
C2201 C2200 1.391 . S
C2201 C2205 1.376 . S
C2202 C2200 1.394 . S
C2202 C2203 1.369 . S
C2202 C2206 1.531 . S
C2203 C2202 1.369 . S
C2203 C2204 1.410 . S
C2203 C2211 1.503 . S
C2204 C2203 1.410 . S
C2204 C2205 1.392 . S
C2204 C2207 1.511 . S
C2205 C2201 1.376 . S
C2205 C2204 1.392 . S
C2205 H2217 0.929 . S
C2206 C2202 1.531 . S
C2206 H2218 0.960 . S
C2206 H2219 0.962 . S
C2206 H2220 0.960 . S
C2207 C2204 1.511 . S
C2207 H2221 0.961 . S
C2207 H2222 0.961 . S
C2207 H2223 0.961 . S
C2208 C2209 1.370 . S
C2208 C2210 1.363 . S
C2208 H2224 0.931 . S
C2209 C2208 1.370 . S
C2209 C2213 1.408 . S
C2210 C2208 1.363 . S
C2210 C2211 1.370 . S
C2210 C2214 1.524 . S
C2211 C2203 1.503 . S
C2211 C2210 1.370 . S
C2211 C2212 1.403 . S
C2212 C2211 1.403 . S
C2212 C2213 1.404 . S
C2212 C2215 1.539 . S
C2213 C2209 1.408 . S
C2213 C2212 1.404 . S
C2213 H2225 0.930 . S
C2214 C2210 1.524 . S
C2214 H2226 0.956 . S
C2214 H2227 0.961 . S
C2214 H2228 0.961 . S
C2215 C2212 1.539 . S
C2215 H2229 0.958 . S
C2215 H2230 0.961 . S
C2215 H2231 0.960 . S
H2216 C2200 0.931 . S
H2217 C2205 0.929 . S
H2218 C2206 0.960 . S
H2219 C2206 0.962 . S
H2220 C2206 0.960 . S
H2221 C2207 0.961 . S
H2222 C2207 0.961 . S
H2223 C2207 0.961 . S
H2224 C2208 0.931 . S
H2225 C2213 0.930 . S
H2226 C2214 0.956 . S
H2227 C2214 0.961 . S
H2228 C2214 0.961 . S
H2229 C2215 0.958 . S
H2230 C2215 0.961 . S
H2231 C2215 0.960 . S
C2232 C2233 1.391 . S
C2232 C2234 1.394 1_554 S
C2232 H2248 0.942 . S
C2233 C2232 1.391 . S
C2233 C2237 1.376 . S
C2234 C2232 1.394 1_556 S
C2234 C2235 1.358 1_556 S
C2234 C2238 1.531 . S
C2235 C2234 1.358 1_554 S
C2235 C2236 1.432 . S
C2235 C2243 1.490 1_554 S
C2236 C2235 1.432 . S
C2236 C2237 1.392 . S
C2236 C2239 1.511 . S
C2237 C2233 1.376 . S
C2237 C2236 1.392 . S
C2237 H2249 0.929 . S
C2238 C2234 1.531 . S
C2238 H2250 0.960 . S
C2238 H2251 0.962 . S
C2238 H2252 0.960 . S
C2239 C2236 1.511 . S
C2239 H2253 0.961 . S
C2239 H2254 0.961 . S
C2239 H2255 0.961 . S
C2240 C2241 1.370 . S
C2240 C2242 1.363 . S
C2240 H2256 0.931 . S
C2241 C2240 1.370 . S
C2241 C2245 1.408 . S
C2242 C2240 1.363 . S
C2242 C2243 1.370 . S
C2242 C2246 1.524 . S
C2243 C2235 1.490 1_556 S
C2243 C2242 1.370 . S
C2243 C2244 1.403 1_556 S
C2244 C2243 1.403 1_554 S
C2244 C2245 1.404 1_554 S
C2244 C2247 1.539 . S
C2245 C2241 1.408 . S
C2245 C2244 1.404 1_556 S
C2245 H2257 0.930 1_556 S
C2246 C2242 1.524 . S
C2246 H2258 0.956 . S
C2246 H2259 0.961 . S
C2246 H2260 0.961 . S
C2247 C2244 1.539 . S
C2247 H2261 0.958 . S
C2247 H2262 0.961 . S
C2247 H2263 0.960 . S
H2248 C2232 0.942 . S
H2249 C2237 0.929 . S
H2250 C2238 0.960 . S
H2251 C2238 0.962 . S
H2252 C2238 0.960 . S
H2253 C2239 0.961 . S
H2254 C2239 0.961 . S
H2255 C2239 0.961 . S
H2256 C2240 0.931 . S
H2257 C2245 0.930 1_554 S
H2258 C2246 0.956 . S
H2259 C2246 0.961 . S
H2260 C2246 0.961 . S
H2261 C2247 0.958 . S
H2262 C2247 0.961 . S
H2263 C2247 0.960 . S
C2264 C2265 1.391 . S
C2264 C2266 1.394 . S
C2264 H2280 0.931 . S
C2265 C2264 1.391 . S
C2265 C2269 1.376 . S
C2266 C2264 1.394 . S
C2266 C2267 1.369 . S
C2266 C2270 1.531 . S
C2267 C2266 1.369 . S
C2267 C2268 1.410 . S
C2267 C2275 1.503 . S
C2268 C2267 1.410 . S
C2268 C2269 1.392 . S
C2268 C2271 1.511 . S
C2269 C2265 1.376 . S
C2269 C2268 1.392 . S
C2269 H2281 0.929 . S
C2270 C2266 1.531 . S
C2270 H2282 0.960 . S
C2270 H2283 0.962 . S
C2270 H2284 0.960 . S
C2271 C2268 1.511 . S
C2271 H2285 0.961 1_554 S
C2271 H2286 0.961 . S
C2271 H2287 0.961 . S
C2272 C2273 1.370 . S
C2272 C2274 1.363 . S
C2272 H2288 0.931 1_554 S
C2273 C2272 1.370 . S
C2273 C2277 1.408 . S
C2274 C2272 1.363 . S
C2274 C2275 1.370 . S
C2274 C2278 1.524 1_554 S
C2275 C2267 1.503 . S
C2275 C2274 1.370 . S
C2275 C2276 1.403 . S
C2276 C2275 1.403 . S
C2276 C2277 1.404 . S
C2276 C2279 1.539 . S
C2277 C2273 1.408 . S
C2277 C2276 1.404 . S
C2277 H2289 0.930 . S
C2278 C2274 1.524 1_556 S
C2278 H2290 0.956 . S
C2278 H2291 0.961 . S
C2278 H2292 0.961 . S
C2279 C2276 1.539 . S
C2279 H2293 0.958 . S
C2279 H2294 0.961 . S
C2279 H2295 0.960 . S
H2280 C2264 0.931 . S
H2281 C2269 0.929 . S
H2282 C2270 0.960 . S
H2283 C2270 0.962 . S
H2284 C2270 0.960 . S
H2285 C2271 0.961 1_556 S
H2286 C2271 0.961 . S
H2287 C2271 0.961 . S
H2288 C2272 0.931 1_556 S
H2289 C2277 0.930 . S
H2290 C2278 0.956 . S
H2291 C2278 0.961 . S
H2292 C2278 0.961 . S
H2293 C2279 0.958 . S
H2294 C2279 0.961 . S
H2295 C2279 0.960 . S
C2296 C2297 1.391 . S
C2296 C2298 1.394 . S
C2296 H2312 0.931 . S
C2297 C2296 1.391 . S
C2297 C2301 1.376 . S
C2298 C2296 1.394 . S
C2298 C2299 1.369 . S
C2298 C2302 1.531 . S
C2299 C2298 1.369 . S
C2299 C2300 1.410 . S
C2299 C2307 1.503 . S
C2300 C2299 1.410 . S
C2300 C2301 1.392 . S
C2300 C2303 1.511 . S
C2301 C2297 1.376 . S
C2301 C2300 1.392 . S
C2301 H2313 0.929 . S
C2302 C2298 1.531 . S
C2302 H2314 0.960 . S
C2302 H2315 0.962 . S
C2302 H2316 0.960 . S
C2303 C2300 1.511 . S
C2303 H2317 0.961 . S
C2303 H2318 0.961 . S
C2303 H2319 0.961 . S
C2304 C2305 1.370 . S
C2304 C2306 1.363 . S
C2304 H2320 0.931 . S
C2305 C2304 1.370 . S
C2305 C2309 1.408 . S
C2306 C2304 1.363 . S
C2306 C2307 1.370 . S
C2306 C2310 1.524 . S
C2307 C2299 1.503 . S
C2307 C2306 1.370 . S
C2307 C2308 1.403 . S
C2308 C2307 1.403 . S
C2308 C2309 1.404 . S
C2308 C2311 1.539 . S
C2309 C2305 1.408 . S
C2309 C2308 1.404 . S
C2309 H2321 0.930 . S
C2310 C2306 1.524 . S
C2310 H2322 0.956 . S
C2310 H2323 0.961 . S
C2310 H2324 0.961 . S
C2311 C2308 1.539 . S
C2311 H2325 0.958 . S
C2311 H2326 0.961 . S
C2311 H2327 0.960 . S
H2312 C2296 0.931 . S
H2313 C2301 0.929 . S
H2314 C2302 0.960 . S
H2315 C2302 0.962 . S
H2316 C2302 0.960 . S
H2317 C2303 0.961 . S
H2318 C2303 0.961 . S
H2319 C2303 0.961 . S
H2320 C2304 0.931 . S
H2321 C2309 0.930 . S
H2322 C2310 0.956 . S
H2323 C2310 0.961 . S
H2324 C2310 0.961 . S
H2325 C2311 0.958 . S
H2326 C2311 0.961 . S
H2327 C2311 0.960 . S
C2328 C2329 1.391 . S
C2328 C2330 1.394 . S
C2328 H2344 0.931 . S
C2329 C2328 1.391 . S
C2329 C2333 1.376 . S
C2330 C2328 1.394 . S
C2330 C2331 1.369 . S
C2330 C2334 1.531 . S
C2331 C2330 1.369 . S
C2331 C2332 1.410 . S
C2331 C2339 1.503 . S
C2332 C2331 1.410 . S
C2332 C2333 1.392 . S
C2332 C2335 1.511 . S
C2333 C2329 1.376 . S
C2333 C2332 1.392 . S
C2333 H2345 0.929 . S
C2334 C2330 1.531 . S
C2334 H2346 0.960 . S
C2334 H2347 0.962 . S
C2334 H2348 0.960 . S
C2335 C2332 1.511 . S
C2335 H2349 0.961 . S
C2335 H2350 0.961 . S
C2335 H2351 0.961 . S
C2336 C2337 1.370 . S
C2336 C2338 1.363 . S
C2336 H2352 0.931 . S
C2337 C2336 1.370 . S
C2337 C2341 1.408 . S
C2338 C2336 1.363 . S
C2338 C2339 1.370 . S
C2338 C2342 1.524 . S
C2339 C2331 1.503 . S
C2339 C2338 1.370 . S
C2339 C2340 1.403 . S
C2340 C2339 1.403 . S
C2340 C2341 1.404 . S
C2340 C2343 1.539 . S
C2341 C2337 1.408 . S
C2341 C2340 1.404 . S
C2341 H2353 0.930 . S
C2342 C2338 1.524 . S
C2342 H2354 0.956 . S
C2342 H2355 0.961 . S
C2342 H2356 0.961 . S
C2343 C2340 1.539 . S
C2343 H2357 0.958 . S
C2343 H2358 0.961 . S
C2343 H2359 0.960 . S
H2344 C2328 0.931 . S
H2345 C2333 0.929 . S
H2346 C2334 0.960 . S
H2347 C2334 0.962 . S
H2348 C2334 0.960 . S
H2349 C2335 0.961 . S
H2350 C2335 0.961 . S
H2351 C2335 0.961 . S
H2352 C2336 0.931 . S
H2353 C2341 0.930 . S
H2354 C2342 0.956 . S
H2355 C2342 0.961 . S
H2356 C2342 0.961 . S
H2357 C2343 0.958 . S
H2358 C2343 0.961 . S
H2359 C2343 0.960 . S
C2360 C2361 1.391 1_565 S
C2360 C2362 1.394 . S
C2360 H2376 0.931 . S
C2361 C2360 1.391 1_545 S
C2361 C2365 1.376 . S
C2362 C2360 1.394 . S
C2362 C2363 1.369 . S
C2362 C2366 1.531 . S
C2363 C2362 1.369 . S
C2363 C2364 1.410 1_565 S
C2363 C2371 1.503 . S
C2364 C2363 1.410 1_545 S
C2364 C2365 1.392 . S
C2364 C2367 1.511 . S
C2365 C2361 1.376 . S
C2365 C2364 1.392 . S
C2365 H2377 0.929 . S
C2366 C2362 1.531 . S
C2366 H2378 0.960 . S
C2366 H2379 0.962 . S
C2366 H2380 0.960 . S
C2367 C2364 1.511 . S
C2367 H2381 0.961 . S
C2367 H2382 0.961 . S
C2367 H2383 0.961 . S
C2368 C2369 1.370 . S
C2368 C2370 1.363 . S
C2368 H2384 0.931 . S
C2369 C2368 1.370 . S
C2369 C2373 1.408 . S
C2370 C2368 1.363 . S
C2370 C2371 1.370 . S
C2370 C2374 1.524 . S
C2371 C2363 1.503 . S
C2371 C2370 1.370 . S
C2371 C2372 1.403 . S
C2372 C2371 1.403 . S
C2372 C2373 1.404 . S
C2372 C2375 1.539 . S
C2373 C2369 1.408 . S
C2373 C2372 1.404 . S
C2373 H2385 0.930 . S
C2374 C2370 1.524 . S
C2374 H2386 0.956 . S
C2374 H2387 0.961 . S
C2374 H2388 0.961 . S
C2375 C2372 1.539 . S
C2375 H2389 0.958 . S
C2375 H2390 0.961 . S
C2375 H2391 0.957 . S
H2376 C2360 0.931 . S
H2377 C2365 0.929 . S
H2378 C2366 0.960 . S
H2379 C2366 0.962 . S
H2380 C2366 0.960 . S
H2381 C2367 0.961 . S
H2382 C2367 0.961 . S
H2383 C2367 0.961 . S
H2384 C2368 0.931 . S
H2385 C2373 0.930 . S
H2386 C2374 0.956 . S
H2387 C2374 0.961 . S
H2388 C2374 0.961 . S
H2389 C2375 0.958 . S
H2390 C2375 0.961 . S
H2391 C2375 0.957 . S
C2392 C2393 1.391 . S
C2392 C2394 1.394 . S
C2392 H2408 0.931 . S
C2393 C2392 1.391 . S
C2393 C2397 1.376 . S
C2394 C2392 1.394 . S
C2394 C2395 1.369 . S
C2394 C2398 1.531 . S
C2395 C2394 1.369 . S
C2395 C2396 1.410 . S
C2395 C2403 1.503 . S
C2396 C2395 1.410 . S
C2396 C2397 1.392 . S
C2396 C2399 1.511 . S
C2397 C2393 1.376 . S
C2397 C2396 1.392 . S
C2397 H2409 0.929 . S
C2398 C2394 1.531 . S
C2398 H2410 0.960 . S
C2398 H2411 0.962 . S
C2398 H2412 0.960 . S
C2399 C2396 1.511 . S
C2399 H2413 0.961 . S
C2399 H2414 0.961 . S
C2399 H2415 0.961 . S
C2400 C2401 1.370 . S
C2400 C2402 1.363 . S
C2400 H2416 0.931 . S
C2401 C2400 1.370 . S
C2401 C2405 1.408 . S
C2402 C2400 1.363 . S
C2402 C2403 1.370 . S
C2402 C2406 1.524 . S
C2403 C2395 1.503 . S
C2403 C2402 1.370 . S
C2403 C2404 1.403 . S
C2404 C2403 1.403 . S
C2404 C2405 1.404 . S
C2404 C2407 1.539 . S
C2405 C2401 1.408 . S
C2405 C2404 1.404 . S
C2405 H2417 0.930 . S
C2406 C2402 1.524 . S
C2406 H2418 0.956 . S
C2406 H2419 0.961 . S
C2406 H2420 0.961 . S
C2407 C2404 1.539 . S
C2407 H2421 0.958 . S
C2407 H2422 0.961 . S
C2407 H2423 0.960 . S
H2408 C2392 0.931 . S
H2409 C2397 0.929 . S
H2410 C2398 0.960 . S
H2411 C2398 0.962 . S
H2412 C2398 0.960 . S
H2413 C2399 0.961 . S
H2414 C2399 0.961 . S
H2415 C2399 0.961 . S
H2416 C2400 0.931 . S
H2417 C2405 0.930 . S
H2418 C2406 0.956 . S
H2419 C2406 0.961 . S
H2420 C2406 0.961 . S
H2421 C2407 0.958 . S
H2422 C2407 0.961 . S
H2423 C2407 0.960 . S
C2424 C2425 1.391 . S
C2424 C2426 1.394 . S
C2424 H2440 0.931 . S
C2425 C2424 1.391 . S
C2425 C2429 1.376 . S
C2426 C2424 1.394 . S
C2426 C2427 1.369 . S
C2426 C2430 1.531 . S
C2427 C2426 1.369 . S
C2427 C2428 1.410 . S
C2427 C2435 1.503 . S
C2428 C2427 1.410 . S
C2428 C2429 1.392 . S
C2428 C2431 1.511 . S
C2429 C2425 1.376 . S
C2429 C2428 1.392 . S
C2429 H2441 0.929 . S
C2430 C2426 1.531 . S
C2430 H2442 0.960 . S
C2430 H2443 0.962 . S
C2430 H2444 0.960 . S
C2431 C2428 1.511 . S
C2431 H2445 0.961 . S
C2431 H2446 0.961 . S
C2431 H2447 0.961 . S
C2432 C2433 1.370 . S
C2432 C2434 1.363 . S
C2432 H2448 0.931 . S
C2433 C2432 1.370 . S
C2433 C2437 1.408 . S
C2434 C2432 1.363 . S
C2434 C2435 1.370 . S
C2434 C2438 1.524 . S
C2435 C2427 1.503 . S
C2435 C2434 1.370 . S
C2435 C2436 1.403 . S
C2436 C2435 1.403 . S
C2436 C2437 1.404 . S
C2436 C2439 1.539 . S
C2437 C2433 1.408 . S
C2437 C2436 1.404 . S
C2437 H2449 0.930 . S
C2438 C2434 1.524 . S
C2438 H2450 0.956 . S
C2438 H2451 0.961 . S
C2438 H2452 0.961 . S
C2439 C2436 1.539 . S
C2439 H2453 0.958 . S
C2439 H2454 0.961 . S
C2439 H2455 0.960 . S
H2440 C2424 0.931 . S
H2441 C2429 0.929 . S
H2442 C2430 0.960 . S
H2443 C2430 0.962 . S
H2444 C2430 0.960 . S
H2445 C2431 0.961 . S
H2446 C2431 0.961 . S
H2447 C2431 0.961 . S
H2448 C2432 0.931 . S
H2449 C2437 0.930 . S
H2450 C2438 0.956 . S
H2451 C2438 0.961 . S
H2452 C2438 0.961 . S
H2453 C2439 0.958 . S
H2454 C2439 0.961 . S
H2455 C2439 0.960 . S
C2456 C2457 1.391 . S
C2456 C2458 1.394 . S
C2456 H2472 0.931 . S
C2457 C2456 1.391 . S
C2457 C2461 1.376 . S
C2458 C2456 1.394 . S
C2458 C2459 1.369 . S
C2458 C2462 1.531 . S
C2459 C2458 1.369 . S
C2459 C2460 1.410 . S
C2459 C2467 1.503 . S
C2460 C2459 1.410 . S
C2460 C2461 1.392 . S
C2460 C2463 1.511 . S
C2461 C2457 1.376 . S
C2461 C2460 1.392 . S
C2461 H2473 0.929 . S
C2462 C2458 1.531 . S
C2462 H2474 0.960 . S
C2462 H2475 0.962 . S
C2462 H2476 0.960 . S
C2463 C2460 1.511 . S
C2463 H2477 0.961 . S
C2463 H2478 0.961 . S
C2463 H2479 0.961 . S
C2464 C2465 1.370 . S
C2464 C2466 1.363 . S
C2464 H2480 0.931 . S
C2465 C2464 1.370 . S
C2465 C2469 1.408 . S
C2466 C2464 1.363 . S
C2466 C2467 1.370 . S
C2466 C2470 1.524 . S
C2467 C2459 1.503 . S
C2467 C2466 1.370 . S
C2467 C2468 1.403 . S
C2468 C2467 1.403 . S
C2468 C2469 1.404 . S
C2468 C2471 1.539 . S
C2469 C2465 1.408 . S
C2469 C2468 1.404 . S
C2469 H2481 0.930 . S
C2470 C2466 1.524 . S
C2470 H2482 0.956 . S
C2470 H2483 0.961 . S
C2470 H2484 0.961 . S
C2471 C2468 1.539 . S
C2471 H2485 0.958 . S
C2471 H2486 0.961 . S
C2471 H2487 0.960 . S
H2472 C2456 0.931 . S
H2473 C2461 0.929 . S
H2474 C2462 0.960 . S
H2475 C2462 0.962 . S
H2476 C2462 0.960 . S
H2477 C2463 0.961 . S
H2478 C2463 0.961 . S
H2479 C2463 0.961 . S
H2480 C2464 0.931 . S
H2481 C2469 0.930 . S
H2482 C2470 0.956 . S
H2483 C2470 0.961 . S
H2484 C2470 0.961 . S
H2485 C2471 0.958 . S
H2486 C2471 0.961 . S
H2487 C2471 0.960 . S
C2488 C2489 1.391 . S
C2488 C2490 1.394 . S
C2488 H2504 0.931 . S
C2489 C2488 1.391 . S
C2489 C2493 1.376 . S
C2490 C2488 1.394 . S
C2490 C2491 1.369 . S
C2490 C2494 1.531 . S
C2491 C2490 1.369 . S
C2491 C2492 1.410 . S
C2491 C2499 1.503 . S
C2492 C2491 1.410 . S
C2492 C2493 1.392 . S
C2492 C2495 1.511 . S
C2493 C2489 1.376 . S
C2493 C2492 1.392 . S
C2493 H2505 0.929 . S
C2494 C2490 1.531 . S
C2494 H2506 0.960 . S
C2494 H2507 0.962 . S
C2494 H2508 0.960 . S
C2495 C2492 1.511 . S
C2495 H2509 0.961 . S
C2495 H2510 0.961 . S
C2495 H2511 0.961 . S
C2496 C2497 1.370 . S
C2496 C2498 1.363 . S
C2496 H2512 0.931 . S
C2497 C2496 1.370 . S
C2497 C2501 1.408 . S
C2498 C2496 1.363 . S
C2498 C2499 1.370 . S
C2498 C2502 1.524 . S
C2499 C2491 1.503 . S
C2499 C2498 1.370 . S
C2499 C2500 1.403 . S
C2500 C2499 1.403 . S
C2500 C2501 1.404 . S
C2500 C2503 1.539 . S
C2501 C2497 1.408 . S
C2501 C2500 1.404 . S
C2501 H2513 0.930 . S
C2502 C2498 1.524 . S
C2502 H2514 0.956 . S
C2502 H2515 0.961 . S
C2502 H2516 0.961 . S
C2503 C2500 1.539 . S
C2503 H2517 0.958 . S
C2503 H2518 0.961 . S
C2503 H2519 0.960 . S
H2504 C2488 0.931 . S
H2505 C2493 0.929 . S
H2506 C2494 0.960 . S
H2507 C2494 0.962 . S
H2508 C2494 0.960 . S
H2509 C2495 0.961 . S
H2510 C2495 0.961 . S
H2511 C2495 0.961 . S
H2512 C2496 0.931 . S
H2513 C2501 0.930 . S
H2514 C2502 0.956 . S
H2515 C2502 0.961 . S
H2516 C2502 0.961 . S
H2517 C2503 0.958 . S
H2518 C2503 0.961 . S
H2519 C2503 0.960 . S
C2520 C2521 1.391 . S
C2520 C2522 1.394 . S
C2520 H2536 0.931 . S
C2521 C2520 1.391 . S
C2521 C2525 1.376 . S
C2522 C2520 1.394 . S
C2522 C2523 1.369 . S
C2522 C2526 1.531 . S
C2523 C2522 1.369 . S
C2523 C2524 1.410 . S
C2523 C2531 1.503 . S
C2524 C2523 1.410 . S
C2524 C2525 1.392 . S
C2524 C2527 1.511 . S
C2525 C2521 1.376 . S
C2525 C2524 1.392 . S
C2525 H2537 0.929 . S
C2526 C2522 1.531 . S
C2526 H2538 0.960 . S
C2526 H2539 0.962 . S
C2526 H2540 0.960 . S
C2527 C2524 1.511 . S
C2527 H2541 0.961 . S
C2527 H2542 0.961 . S
C2527 H2543 0.961 . S
C2528 C2529 1.370 . S
C2528 C2530 1.363 . S
C2528 H2544 0.931 . S
C2529 C2528 1.370 . S
C2529 C2533 1.408 . S
C2530 C2528 1.363 . S
C2530 C2531 1.370 . S
C2530 C2534 1.524 . S
C2531 C2523 1.503 . S
C2531 C2530 1.370 . S
C2531 C2532 1.403 . S
C2532 C2531 1.403 . S
C2532 C2533 1.404 . S
C2532 C2535 1.539 . S
C2533 C2529 1.408 . S
C2533 C2532 1.404 . S
C2533 H2545 0.930 . S
C2534 C2530 1.524 . S
C2534 H2546 0.956 . S
C2534 H2547 0.961 . S
C2534 H2548 0.961 . S
C2535 C2532 1.539 . S
C2535 H2549 0.958 . S
C2535 H2550 0.961 . S
C2535 H2551 0.960 . S
H2536 C2520 0.931 . S
H2537 C2525 0.929 . S
H2538 C2526 0.960 . S
H2539 C2526 0.962 . S
H2540 C2526 0.960 . S
H2541 C2527 0.961 . S
H2542 C2527 0.961 . S
H2543 C2527 0.961 . S
H2544 C2528 0.931 . S
H2545 C2533 0.930 . S
H2546 C2534 0.956 . S
H2547 C2534 0.961 . S
H2548 C2534 0.961 . S
H2549 C2535 0.958 . S
H2550 C2535 0.961 . S
H2551 C2535 0.960 . S
C2552 C2553 1.391 . S
C2552 C2554 1.394 . S
C2552 H2568 0.931 . S
C2553 C2552 1.391 . S
C2553 C2557 1.376 . S
C2554 C2552 1.394 . S
C2554 C2555 1.369 . S
C2554 C2558 1.531 1_556 S
C2555 C2554 1.369 . S
C2555 C2556 1.410 . S
C2555 C2563 1.503 . S
C2556 C2555 1.410 . S
C2556 C2557 1.392 . S
C2556 C2559 1.511 . S
C2557 C2553 1.376 . S
C2557 C2556 1.392 . S
C2557 H2569 0.929 . S
C2558 C2554 1.531 1_554 S
C2558 H2570 0.960 . S
C2558 H2571 0.962 1_454 S
C2558 H2572 0.967 . S
C2559 C2556 1.511 . S
C2559 H2573 0.961 . S
C2559 H2574 0.961 . S
C2559 H2575 0.961 . S
C2560 C2561 1.370 . S
C2560 C2562 1.363 . S
C2560 H2576 0.931 . S
C2561 C2560 1.370 . S
C2561 C2565 1.408 1_556 S
C2562 C2560 1.363 . S
C2562 C2563 1.370 . S
C2562 C2566 1.524 . S
C2563 C2555 1.503 . S
C2563 C2562 1.370 . S
C2563 C2564 1.403 1_556 S
C2564 C2563 1.403 1_554 S
C2564 C2565 1.404 . S
C2564 C2567 1.539 . S
C2565 C2561 1.408 1_554 S
C2565 C2564 1.404 . S
C2565 H2577 0.930 . S
C2566 C2562 1.524 . S
C2566 H2578 0.956 . S
C2566 H2579 0.961 . S
C2566 H2580 0.961 . S
C2567 C2564 1.539 . S
C2567 H2581 0.958 . S
C2567 H2582 0.961 . S
C2567 H2583 0.960 . S
H2568 C2552 0.931 . S
H2569 C2557 0.929 . S
H2570 C2558 0.960 . S
H2571 C2558 0.962 1_656 S
H2572 C2558 0.967 . S
H2573 C2559 0.961 . S
H2574 C2559 0.961 . S
H2575 C2559 0.961 . S
H2576 C2560 0.931 . S
H2577 C2565 0.930 . S
H2578 C2566 0.956 . S
H2579 C2566 0.961 . S
H2580 C2566 0.961 . S
H2581 C2567 0.958 . S
H2582 C2567 0.961 . S
H2583 C2567 0.960 . S
C2584 C2585 1.391 . S
C2584 C2586 1.394 1_455 S
C2584 H2600 0.931 . S
C2585 C2584 1.391 . S
C2585 C2589 1.376 . S
C2586 C2584 1.394 1_655 S
C2586 C2587 1.369 . S
C2586 C2590 1.531 . S
C2587 C2586 1.369 . S
C2587 C2588 1.410 1_655 S
C2587 C2595 1.503 . S
C2588 C2587 1.410 1_455 S
C2588 C2589 1.392 . S
C2588 C2591 1.511 . S
C2589 C2585 1.376 . S
C2589 C2588 1.392 . S
C2589 H2601 0.929 . S
C2590 C2586 1.531 . S
C2590 H2602 0.960 . S
C2590 H2603 0.962 . S
C2590 H2604 0.960 . S
C2591 C2588 1.511 . S
C2591 H2605 0.961 . S
C2591 H2606 0.961 1_455 S
C2591 H2607 0.961 . S
C2592 C2593 1.370 . S
C2592 C2594 1.363 . S
C2592 H2608 0.931 . S
C2593 C2592 1.370 . S
C2593 C2597 1.408 . S
C2594 C2592 1.363 . S
C2594 C2595 1.370 . S
C2594 C2598 1.524 . S
C2595 C2587 1.503 . S
C2595 C2594 1.370 . S
C2595 C2596 1.403 . S
C2596 C2595 1.403 . S
C2596 C2597 1.404 . S
C2596 C2599 1.539 . S
C2597 C2593 1.408 . S
C2597 C2596 1.404 . S
C2597 H2609 0.930 . S
C2598 C2594 1.524 . S
C2598 H2610 0.956 . S
C2598 H2611 0.961 . S
C2598 H2612 0.961 . S
C2599 C2596 1.539 . S
C2599 H2613 0.958 . S
C2599 H2614 0.961 . S
C2599 H2615 0.960 . S
H2600 C2584 0.931 . S
H2601 C2589 0.929 . S
H2602 C2590 0.960 . S
H2603 C2590 0.962 . S
H2604 C2590 0.960 . S
H2605 C2591 0.961 . S
H2606 C2591 0.961 1_655 S
H2607 C2591 0.961 . S
H2608 C2592 0.931 . S
H2609 C2597 0.930 . S
H2610 C2598 0.956 . S
H2611 C2598 0.961 . S
H2612 C2598 0.961 . S
H2613 C2599 0.958 . S
H2614 C2599 0.961 . S
H2615 C2599 0.960 . S
C2616 C2617 1.391 . S
C2616 C2618 1.394 . S
C2616 H2632 0.931 . S
C2617 C2616 1.391 . S
C2617 C2621 1.376 . S
C2618 C2616 1.394 . S
C2618 C2619 1.369 . S
C2618 C2622 1.531 . S
C2619 C2618 1.369 . S
C2619 C2620 1.410 . S
C2619 C2627 1.503 . S
C2620 C2619 1.410 . S
C2620 C2621 1.392 . S
C2620 C2623 1.511 . S
C2621 C2617 1.376 . S
C2621 C2620 1.392 . S
C2621 H2633 0.929 . S
C2622 C2618 1.531 . S
C2622 H2634 0.960 . S
C2622 H2635 0.962 . S
C2622 H2636 0.960 . S
C2623 C2620 1.511 . S
C2623 H2637 0.961 . S
C2623 H2638 0.961 . S
C2623 H2639 0.961 . S
C2624 C2625 1.370 . S
C2624 C2626 1.363 . S
C2624 H2640 0.931 . S
C2625 C2624 1.370 . S
C2625 C2629 1.408 . S
C2626 C2624 1.363 . S
C2626 C2627 1.370 . S
C2626 C2630 1.524 . S
C2627 C2619 1.503 . S
C2627 C2626 1.370 . S
C2627 C2628 1.403 . S
C2628 C2627 1.403 . S
C2628 C2629 1.404 . S
C2628 C2631 1.539 . S
C2629 C2625 1.408 . S
C2629 C2628 1.404 . S
C2629 H2641 0.930 . S
C2630 C2626 1.524 . S
C2630 H2642 0.956 . S
C2630 H2643 0.961 . S
C2630 H2644 0.961 . S
C2631 C2628 1.539 . S
C2631 H2645 0.958 . S
C2631 H2646 0.961 . S
C2631 H2647 0.960 . S
H2632 C2616 0.931 . S
H2633 C2621 0.929 . S
H2634 C2622 0.960 . S
H2635 C2622 0.962 . S
H2636 C2622 0.960 . S
H2637 C2623 0.961 . S
H2638 C2623 0.961 . S
H2639 C2623 0.961 . S
H2640 C2624 0.931 . S
H2641 C2629 0.930 . S
H2642 C2630 0.956 . S
H2643 C2630 0.961 . S
H2644 C2630 0.961 . S
H2645 C2631 0.958 . S
H2646 C2631 0.961 . S
H2647 C2631 0.960 . S
C2648 C2649 1.391 . S
C2648 C2650 1.394 . S
C2648 H2664 0.931 . S
C2649 C2648 1.391 . S
C2649 C2653 1.376 . S
C2650 C2648 1.394 . S
C2650 C2651 1.369 . S
C2650 C2654 1.531 . S
C2651 C2650 1.369 . S
C2651 C2652 1.410 . S
C2651 C2659 1.503 1_455 S
C2652 C2651 1.410 . S
C2652 C2653 1.392 . S
C2652 C2655 1.511 . S
C2653 C2649 1.376 . S
C2653 C2652 1.392 . S
C2653 H2665 0.929 . S
C2654 C2650 1.531 . S
C2654 H2666 0.960 1_455 S
C2654 H2667 0.962 1_455 S
C2654 H2668 0.960 . S
C2655 C2652 1.511 . S
C2655 H2669 0.961 . S
C2655 H2670 0.961 1_455 S
C2655 H2671 0.961 . S
C2656 C2657 1.370 . S
C2656 C2658 1.363 . S
C2656 H2672 0.931 . S
C2657 C2656 1.370 . S
C2657 C2661 1.408 . S
C2658 C2656 1.363 . S
C2658 C2659 1.370 . S
C2658 C2662 1.524 . S
C2659 C2651 1.503 1_655 S
C2659 C2658 1.370 . S
C2659 C2660 1.403 . S
C2660 C2659 1.403 . S
C2660 C2661 1.404 . S
C2660 C2663 1.539 . S
C2661 C2657 1.408 . S
C2661 C2660 1.404 . S
C2661 H2673 0.930 . S
C2662 C2658 1.524 . S
C2662 H2674 0.956 . S
C2662 H2675 0.961 . S
C2662 H2676 0.961 . S
C2663 C2660 1.539 . S
C2663 H2677 0.958 . S
C2663 H2678 0.961 . S
C2663 H2679 0.960 1_655 S
H2664 C2648 0.931 . S
H2665 C2653 0.929 . S
H2666 C2654 0.960 1_655 S
H2667 C2654 0.962 1_655 S
H2668 C2654 0.960 . S
H2669 C2655 0.961 . S
H2670 C2655 0.961 1_655 S
H2671 C2655 0.961 . S
H2672 C2656 0.931 . S
H2673 C2661 0.930 . S
H2674 C2662 0.956 . S
H2675 C2662 0.961 . S
H2676 C2662 0.961 . S
H2677 C2663 0.958 . S
H2678 C2663 0.961 . S
H2679 C2663 0.960 1_455 S
C2680 C2681 1.391 1_455 S
C2680 C2682 1.394 . S
C2680 H2696 0.931 . S
C2681 C2680 1.391 1_655 S
C2681 C2685 1.376 . S
C2682 C2680 1.394 . S
C2682 C2683 1.369 . S
C2682 C2686 1.531 . S
C2683 C2682 1.369 . S
C2683 C2684 1.410 1_455 S
C2683 C2691 1.503 . S
C2684 C2683 1.410 1_655 S
C2684 C2685 1.392 . S
C2684 C2687 1.511 . S
C2685 C2681 1.376 . S
C2685 C2684 1.392 . S
C2685 H2697 0.929 . S
C2686 C2682 1.531 . S
C2686 H2698 0.960 . S
C2686 H2699 0.962 . S
C2686 H2700 0.960 . S
C2687 C2684 1.511 . S
C2687 H2701 0.961 . S
C2687 H2702 0.961 . S
C2687 H2703 0.961 . S
C2688 C2689 1.370 . S
C2688 C2690 1.363 . S
C2688 H2704 0.931 . S
C2689 C2688 1.370 . S
C2689 C2693 1.408 . S
C2690 C2688 1.363 . S
C2690 C2691 1.370 . S
C2690 C2694 1.524 . S
C2691 C2683 1.503 . S
C2691 C2690 1.370 . S
C2691 C2692 1.403 . S
C2692 C2691 1.403 . S
C2692 C2693 1.404 . S
C2692 C2695 1.539 . S
C2693 C2689 1.408 . S
C2693 C2692 1.404 . S
C2693 H2705 0.930 . S
C2694 C2690 1.524 . S
C2694 H2706 0.956 . S
C2694 H2707 0.961 . S
C2694 H2708 0.961 . S
C2695 C2692 1.539 . S
C2695 H2709 0.958 . S
C2695 H2710 0.961 1_455 S
C2695 H2711 0.960 1_455 S
H2696 C2680 0.931 . S
H2697 C2685 0.929 . S
H2698 C2686 0.960 . S
H2699 C2686 0.962 . S
H2700 C2686 0.960 . S
H2701 C2687 0.961 . S
H2702 C2687 0.961 . S
H2703 C2687 0.961 . S
H2704 C2688 0.931 . S
H2705 C2693 0.930 . S
H2706 C2694 0.956 . S
H2707 C2694 0.961 . S
H2708 C2694 0.961 . S
H2709 C2695 0.958 . S
H2710 C2695 0.961 1_655 S
H2711 C2695 0.960 1_655 S
C2712 C2713 1.391 . S
C2712 C2714 1.394 . S
C2712 H2728 0.931 . S
C2713 C2712 1.391 . S
C2713 C2717 1.376 . S
C2714 C2712 1.394 . S
C2714 C2715 1.369 . S
C2714 C2718 1.531 . S
C2715 C2714 1.369 . S
C2715 C2716 1.410 . S
C2715 C2723 1.503 . S
C2716 C2715 1.410 . S
C2716 C2717 1.392 . S
C2716 C2719 1.511 . S
C2717 C2713 1.376 . S
C2717 C2716 1.392 . S
C2717 H2729 0.929 . S
C2718 C2714 1.531 . S
C2718 H2730 0.960 . S
C2718 H2731 0.962 . S
C2718 H2732 0.960 . S
C2719 C2716 1.511 . S
C2719 H2733 0.961 . S
C2719 H2734 0.961 . S
C2719 H2735 0.961 . S
C2720 C2721 1.370 . S
C2720 C2722 1.363 . S
C2720 H2736 0.931 . S
C2721 C2720 1.370 . S
C2721 C2725 1.408 . S
C2722 C2720 1.363 . S
C2722 C2723 1.370 . S
C2722 C2726 1.524 . S
C2723 C2715 1.503 . S
C2723 C2722 1.370 . S
C2723 C2724 1.403 . S
C2724 C2723 1.403 . S
C2724 C2725 1.404 . S
C2724 C2727 1.539 . S
C2725 C2721 1.408 . S
C2725 C2724 1.404 . S
C2725 H2737 0.930 . S
C2726 C2722 1.524 . S
C2726 H2738 0.956 . S
C2726 H2739 0.961 . S
C2726 H2740 0.961 . S
C2727 C2724 1.539 . S
C2727 H2741 0.958 . S
C2727 H2742 0.961 . S
C2727 H2743 0.960 . S
H2728 C2712 0.931 . S
H2729 C2717 0.929 . S
H2730 C2718 0.960 . S
H2731 C2718 0.962 . S
H2732 C2718 0.960 . S
H2733 C2719 0.961 . S
H2734 C2719 0.961 . S
H2735 C2719 0.961 . S
H2736 C2720 0.931 . S
H2737 C2725 0.930 . S
H2738 C2726 0.956 . S
H2739 C2726 0.961 . S
H2740 C2726 0.961 . S
H2741 C2727 0.958 . S
H2742 C2727 0.961 . S
H2743 C2727 0.960 . S
C2744 C2745 1.391 . S
C2744 C2746 1.394 . S
C2744 H2760 0.931 . S
C2745 C2744 1.391 . S
C2745 C2749 1.376 . S
C2746 C2744 1.394 . S
C2746 C2747 1.369 . S
C2746 C2750 1.531 . S
C2747 C2746 1.369 . S
C2747 C2748 1.410 . S
C2747 C2755 1.503 . S
C2748 C2747 1.410 . S
C2748 C2749 1.392 . S
C2748 C2751 1.511 . S
C2749 C2745 1.376 . S
C2749 C2748 1.392 . S
C2749 H2761 0.929 . S
C2750 C2746 1.531 . S
C2750 H2762 0.960 . S
C2750 H2763 0.962 . S
C2750 H2764 0.960 . S
C2751 C2748 1.511 . S
C2751 H2765 0.961 . S
C2751 H2766 0.961 . S
C2751 H2767 0.961 . S
C2752 C2753 1.370 . S
C2752 C2754 1.363 . S
C2752 H2768 0.931 . S
C2753 C2752 1.370 . S
C2753 C2757 1.408 . S
C2754 C2752 1.363 . S
C2754 C2755 1.370 . S
C2754 C2758 1.524 . S
C2755 C2747 1.503 . S
C2755 C2754 1.370 . S
C2755 C2756 1.403 . S
C2756 C2755 1.403 . S
C2756 C2757 1.404 . S
C2756 C2759 1.539 . S
C2757 C2753 1.408 . S
C2757 C2756 1.404 . S
C2757 H2769 0.930 . S
C2758 C2754 1.524 . S
C2758 H2770 0.956 . S
C2758 H2771 0.961 . S
C2758 H2772 0.961 . S
C2759 C2756 1.539 . S
C2759 H2773 0.958 . S
C2759 H2774 0.961 . S
C2759 H2775 0.960 . S
H2760 C2744 0.931 . S
H2761 C2749 0.929 . S
H2762 C2750 0.960 . S
H2763 C2750 0.962 . S
H2764 C2750 0.960 . S
H2765 C2751 0.961 . S
H2766 C2751 0.961 . S
H2767 C2751 0.961 . S
H2768 C2752 0.931 . S
H2769 C2757 0.930 . S
H2770 C2758 0.956 . S
H2771 C2758 0.961 . S
H2772 C2758 0.961 . S
H2773 C2759 0.958 . S
H2774 C2759 0.961 . S
H2775 C2759 0.960 . S
C2776 C2777 1.391 . S
C2776 C2778 1.394 . S
C2776 H2792 0.931 . S
C2777 C2776 1.391 . S
C2777 C2781 1.376 . S
C2778 C2776 1.394 . S
C2778 C2779 1.369 . S
C2778 C2782 1.531 . S
C2779 C2778 1.369 . S
C2779 C2780 1.410 . S
C2779 C2787 1.503 . S
C2780 C2779 1.410 . S
C2780 C2781 1.392 . S
C2780 C2783 1.511 . S
C2781 C2777 1.376 . S
C2781 C2780 1.392 . S
C2781 H2793 0.929 . S
C2782 C2778 1.531 . S
C2782 H2794 0.960 . S
C2782 H2795 0.962 . S
C2782 H2796 0.960 . S
C2783 C2780 1.511 . S
C2783 H2797 0.961 . S
C2783 H2798 0.961 . S
C2783 H2799 0.961 . S
C2784 C2785 1.370 . S
C2784 C2786 1.363 . S
C2784 H2800 0.931 . S
C2785 C2784 1.370 . S
C2785 C2789 1.408 . S
C2786 C2784 1.363 . S
C2786 C2787 1.370 . S
C2786 C2790 1.524 . S
C2787 C2779 1.503 . S
C2787 C2786 1.370 . S
C2787 C2788 1.403 . S
C2788 C2787 1.403 . S
C2788 C2789 1.404 . S
C2788 C2791 1.539 . S
C2789 C2785 1.408 . S
C2789 C2788 1.404 . S
C2789 H2801 0.930 . S
C2790 C2786 1.524 . S
C2790 H2802 0.956 . S
C2790 H2803 0.961 . S
C2790 H2804 0.961 . S
C2791 C2788 1.539 . S
C2791 H2805 0.958 . S
C2791 H2806 0.961 . S
C2791 H2807 0.960 . S
H2792 C2776 0.931 . S
H2793 C2781 0.929 . S
H2794 C2782 0.960 . S
H2795 C2782 0.962 . S
H2796 C2782 0.960 . S
H2797 C2783 0.961 . S
H2798 C2783 0.961 . S
H2799 C2783 0.961 . S
H2800 C2784 0.931 . S
H2801 C2789 0.930 . S
H2802 C2790 0.956 . S
H2803 C2790 0.961 . S
H2804 C2790 0.961 . S
H2805 C2791 0.958 . S
H2806 C2791 0.961 . S
H2807 C2791 0.960 . S
C2808 C2809 1.391 . S
C2808 C2810 1.394 . S
C2808 H2824 0.931 . S
C2809 C2808 1.391 . S
C2809 C2813 1.376 . S
C2810 C2808 1.394 . S
C2810 C2811 1.369 . S
C2810 C2814 1.531 . S
C2811 C2810 1.369 . S
C2811 C2812 1.410 . S
C2811 C2819 1.503 . S
C2812 C2811 1.410 . S
C2812 C2813 1.392 . S
C2812 C2815 1.511 . S
C2813 C2809 1.376 . S
C2813 C2812 1.392 . S
C2813 H2825 0.929 . S
C2814 C2810 1.531 . S
C2814 H2826 0.960 . S
C2814 H2827 0.962 . S
C2814 H2828 0.960 . S
C2815 C2812 1.511 . S
C2815 H2829 0.961 . S
C2815 H2830 0.961 . S
C2815 H2831 0.961 . S
C2816 C2817 1.370 . S
C2816 C2818 1.363 . S
C2816 H2832 0.931 . S
C2817 C2816 1.370 . S
C2817 C2821 1.408 . S
C2818 C2816 1.363 . S
C2818 C2819 1.370 . S
C2818 C2822 1.524 . S
C2819 C2811 1.503 . S
C2819 C2818 1.370 . S
C2819 C2820 1.403 . S
C2820 C2819 1.403 . S
C2820 C2821 1.404 . S
C2820 C2823 1.539 . S
C2821 C2817 1.408 . S
C2821 C2820 1.404 . S
C2821 H2833 0.930 . S
C2822 C2818 1.524 . S
C2822 H2834 0.956 . S
C2822 H2835 0.961 . S
C2822 H2836 0.961 . S
C2823 C2820 1.539 . S
C2823 H2837 0.958 . S
C2823 H2838 0.961 . S
C2823 H2839 0.960 . S
H2824 C2808 0.931 . S
H2825 C2813 0.929 . S
H2826 C2814 0.960 . S
H2827 C2814 0.962 . S
H2828 C2814 0.960 . S
H2829 C2815 0.961 . S
H2830 C2815 0.961 . S
H2831 C2815 0.961 . S
H2832 C2816 0.931 . S
H2833 C2821 0.930 . S
H2834 C2822 0.956 . S
H2835 C2822 0.961 . S
H2836 C2822 0.961 . S
H2837 C2823 0.958 . S
H2838 C2823 0.961 . S
H2839 C2823 0.960 . S
C2840 C2841 1.391 . S
C2840 C2842 1.394 . S
C2840 H2856 0.931 . S
C2841 C2840 1.391 . S
C2841 C2845 1.376 . S
C2842 C2840 1.394 . S
C2842 C2843 1.369 . S
C2842 C2846 1.531 . S
C2843 C2842 1.369 . S
C2843 C2844 1.410 . S
C2843 C2851 1.503 . S
C2844 C2843 1.410 . S
C2844 C2845 1.392 . S
C2844 C2847 1.511 . S
C2845 C2841 1.376 . S
C2845 C2844 1.392 . S
C2845 H2857 0.929 . S
C2846 C2842 1.531 . S
C2846 H2858 0.960 . S
C2846 H2859 0.962 . S
C2846 H2860 0.960 . S
C2847 C2844 1.511 . S
C2847 H2861 0.961 . S
C2847 H2862 0.961 . S
C2847 H2863 0.961 . S
C2848 C2849 1.370 . S
C2848 C2850 1.363 . S
C2848 H2864 0.931 . S
C2849 C2848 1.370 . S
C2849 C2853 1.408 . S
C2850 C2848 1.363 . S
C2850 C2851 1.370 . S
C2850 C2854 1.524 . S
C2851 C2843 1.503 . S
C2851 C2850 1.370 . S
C2851 C2852 1.403 . S
C2852 C2851 1.403 . S
C2852 C2853 1.404 . S
C2852 C2855 1.539 . S
C2853 C2849 1.408 . S
C2853 C2852 1.404 . S
C2853 H2865 0.930 . S
C2854 C2850 1.524 . S
C2854 H2866 0.956 . S
C2854 H2867 0.961 . S
C2854 H2868 0.961 . S
C2855 C2852 1.539 . S
C2855 H2869 0.958 . S
C2855 H2870 0.961 . S
C2855 H2871 0.960 . S
H2856 C2840 0.931 . S
H2857 C2845 0.929 . S
H2858 C2846 0.960 . S
H2859 C2846 0.962 . S
H2860 C2846 0.960 . S
H2861 C2847 0.961 . S
H2862 C2847 0.961 . S
H2863 C2847 0.961 . S
H2864 C2848 0.931 . S
H2865 C2853 0.930 . S
H2866 C2854 0.956 . S
H2867 C2854 0.961 . S
H2868 C2854 0.961 . S
H2869 C2855 0.958 . S
H2870 C2855 0.961 . S
H2871 C2855 0.960 . S
C2872 C2873 1.391 . S
C2872 C2874 1.394 . S
C2872 H2888 0.931 . S
C2873 C2872 1.391 . S
C2873 C2877 1.376 . S
C2874 C2872 1.394 . S
C2874 C2875 1.369 . S
C2874 C2878 1.531 . S
C2875 C2874 1.369 . S
C2875 C2876 1.410 . S
C2875 C2883 1.503 . S
C2876 C2875 1.410 . S
C2876 C2877 1.392 . S
C2876 C2879 1.511 . S
C2877 C2873 1.376 . S
C2877 C2876 1.392 . S
C2877 H2889 0.929 . S
C2878 C2874 1.531 . S
C2878 H2890 0.960 . S
C2878 H2891 0.962 . S
C2878 H2892 0.960 . S
C2879 C2876 1.511 . S
C2879 H2893 0.961 . S
C2879 H2894 0.961 . S
C2879 H2895 0.961 . S
C2880 C2881 1.370 . S
C2880 C2882 1.363 . S
C2880 H2896 0.931 . S
C2881 C2880 1.370 . S
C2881 C2885 1.408 . S
C2882 C2880 1.363 . S
C2882 C2883 1.370 . S
C2882 C2886 1.524 . S
C2883 C2875 1.503 . S
C2883 C2882 1.370 . S
C2883 C2884 1.403 . S
C2884 C2883 1.403 . S
C2884 C2885 1.404 . S
C2884 C2887 1.539 . S
C2885 C2881 1.408 . S
C2885 C2884 1.404 . S
C2885 H2897 0.930 . S
C2886 C2882 1.524 . S
C2886 H2898 0.956 . S
C2886 H2899 0.961 . S
C2886 H2900 0.961 . S
C2887 C2884 1.539 . S
C2887 H2901 0.958 . S
C2887 H2902 0.961 . S
C2887 H2903 0.960 . S
H2888 C2872 0.931 . S
H2889 C2877 0.929 . S
H2890 C2878 0.960 . S
H2891 C2878 0.962 . S
H2892 C2878 0.960 . S
H2893 C2879 0.961 . S
H2894 C2879 0.961 . S
H2895 C2879 0.961 . S
H2896 C2880 0.931 . S
H2897 C2885 0.930 . S
H2898 C2886 0.956 . S
H2899 C2886 0.961 . S
H2900 C2886 0.961 . S
H2901 C2887 0.958 . S
H2902 C2887 0.961 . S
H2903 C2887 0.960 . S
C2904 C2905 1.391 . S
C2904 C2906 1.394 . S
C2904 H2920 0.931 . S
C2905 C2904 1.391 . S
C2905 C2909 1.376 . S
C2906 C2904 1.394 . S
C2906 C2907 1.369 . S
C2906 C2910 1.531 . S
C2907 C2906 1.369 . S
C2907 C2908 1.410 . S
C2907 C2915 1.503 . S
C2908 C2907 1.410 . S
C2908 C2909 1.392 . S
C2908 C2911 1.511 . S
C2909 C2905 1.376 . S
C2909 C2908 1.392 . S
C2909 H2921 0.929 . S
C2910 C2906 1.531 . S
C2910 H2922 0.960 . S
C2910 H2923 0.962 . S
C2910 H2924 0.960 . S
C2911 C2908 1.511 . S
C2911 H2925 0.961 . S
C2911 H2926 0.961 . S
C2911 H2927 0.961 . S
C2912 C2913 1.370 . S
C2912 C2914 1.363 . S
C2912 H2928 0.931 . S
C2913 C2912 1.370 . S
C2913 C2917 1.408 . S
C2914 C2912 1.363 . S
C2914 C2915 1.370 . S
C2914 C2918 1.524 . S
C2915 C2907 1.503 . S
C2915 C2914 1.370 . S
C2915 C2916 1.403 . S
C2916 C2915 1.403 . S
C2916 C2917 1.404 . S
C2916 C2919 1.539 . S
C2917 C2913 1.408 . S
C2917 C2916 1.404 . S
C2917 H2929 0.930 . S
C2918 C2914 1.524 . S
C2918 H2930 0.956 . S
C2918 H2931 0.961 . S
C2918 H2932 0.961 . S
C2919 C2916 1.539 . S
C2919 H2933 0.958 . S
C2919 H2934 0.961 . S
C2919 H2935 0.960 . S
H2920 C2904 0.931 . S
H2921 C2909 0.929 . S
H2922 C2910 0.960 . S
H2923 C2910 0.962 . S
H2924 C2910 0.960 . S
H2925 C2911 0.961 . S
H2926 C2911 0.961 . S
H2927 C2911 0.961 . S
H2928 C2912 0.931 . S
H2929 C2917 0.930 . S
H2930 C2918 0.956 . S
H2931 C2918 0.961 . S
H2932 C2918 0.961 . S
H2933 C2919 0.958 . S
H2934 C2919 0.961 . S
H2935 C2919 0.960 . S
C2936 C2937 1.391 . S
C2936 C2938 1.394 . S
C2936 H2952 0.931 . S
C2937 C2936 1.391 . S
C2937 C2941 1.376 . S
C2938 C2936 1.394 . S
C2938 C2939 1.369 . S
C2938 C2942 1.531 . S
C2939 C2938 1.369 . S
C2939 C2940 1.410 . S
C2939 C2947 1.503 . S
C2940 C2939 1.410 . S
C2940 C2941 1.392 . S
C2940 C2943 1.511 . S
C2941 C2937 1.376 . S
C2941 C2940 1.392 . S
C2941 H2953 0.929 . S
C2942 C2938 1.531 . S
C2942 H2954 0.960 . S
C2942 H2955 0.962 . S
C2942 H2956 0.960 . S
C2943 C2940 1.511 . S
C2943 H2957 0.961 . S
C2943 H2958 0.961 . S
C2943 H2959 0.961 . S
C2944 C2945 1.370 . S
C2944 C2946 1.363 . S
C2944 H2960 0.931 . S
C2945 C2944 1.370 . S
C2945 C2949 1.408 . S
C2946 C2944 1.363 . S
C2946 C2947 1.370 . S
C2946 C2950 1.524 . S
C2947 C2939 1.503 . S
C2947 C2946 1.370 . S
C2947 C2948 1.403 . S
C2948 C2947 1.403 . S
C2948 C2949 1.404 . S
C2948 C2951 1.539 . S
C2949 C2945 1.408 . S
C2949 C2948 1.404 . S
C2949 H2961 0.930 . S
C2950 C2946 1.524 . S
C2950 H2962 0.956 . S
C2950 H2963 0.961 . S
C2950 H2964 0.961 . S
C2951 C2948 1.539 . S
C2951 H2965 0.958 . S
C2951 H2966 0.961 . S
C2951 H2967 0.960 . S
H2952 C2936 0.931 . S
H2953 C2941 0.929 . S
H2954 C2942 0.960 . S
H2955 C2942 0.962 . S
H2956 C2942 0.960 . S
H2957 C2943 0.961 . S
H2958 C2943 0.961 . S
H2959 C2943 0.961 . S
H2960 C2944 0.931 . S
H2961 C2949 0.930 . S
H2962 C2950 0.956 . S
H2963 C2950 0.961 . S
H2964 C2950 0.961 . S
H2965 C2951 0.958 . S
H2966 C2951 0.961 . S
H2967 C2951 0.960 . S
C2968 C2969 1.391 . S
C2968 C2970 1.394 . S
C2968 H2984 0.931 . S
C2969 C2968 1.391 . S
C2969 C2973 1.376 . S
C2970 C2968 1.394 . S
C2970 C2971 1.369 . S
C2970 C2974 1.531 . S
C2971 C2970 1.369 . S
C2971 C2972 1.410 . S
C2971 C2979 1.503 . S
C2972 C2971 1.410 . S
C2972 C2973 1.392 . S
C2972 C2975 1.511 . S
C2973 C2969 1.376 . S
C2973 C2972 1.392 . S
C2973 H2985 0.929 . S
C2974 C2970 1.531 . S
C2974 H2986 0.960 . S
C2974 H2987 0.962 . S
C2974 H2988 0.960 . S
C2975 C2972 1.511 . S
C2975 H2989 0.961 . S
C2975 H2990 0.961 . S
C2975 H2991 0.961 . S
C2976 C2977 1.370 . S
C2976 C2978 1.363 . S
C2976 H2992 0.931 . S
C2977 C2976 1.370 . S
C2977 C2981 1.408 . S
C2978 C2976 1.363 . S
C2978 C2979 1.370 . S
C2978 C2982 1.524 . S
C2979 C2971 1.503 . S
C2979 C2978 1.370 . S
C2979 C2980 1.403 . S
C2980 C2979 1.403 . S
C2980 C2981 1.404 . S
C2980 C2983 1.539 . S
C2981 C2977 1.408 . S
C2981 C2980 1.404 . S
C2981 H2993 0.930 . S
C2982 C2978 1.524 . S
C2982 H2994 0.956 . S
C2982 H2995 0.961 . S
C2982 H2996 0.961 . S
C2983 C2980 1.539 . S
C2983 H2997 0.958 . S
C2983 H2998 0.961 . S
C2983 H2999 0.960 . S
H2984 C2968 0.931 . S
H2985 C2973 0.929 . S
H2986 C2974 0.960 . S
H2987 C2974 0.962 . S
H2988 C2974 0.960 . S
H2989 C2975 0.961 . S
H2990 C2975 0.961 . S
H2991 C2975 0.961 . S
H2992 C2976 0.931 . S
H2993 C2981 0.930 . S
H2994 C2982 0.956 . S
H2995 C2982 0.961 . S
H2996 C2982 0.961 . S
H2997 C2983 0.958 . S
H2998 C2983 0.961 . S
H2999 C2983 0.960 . S
C3000 C3001 1.391 . S
C3000 C3002 1.394 . S
C3000 H3016 0.931 . S
C3001 C3000 1.391 . S
C3001 C3005 1.376 . S
C3002 C3000 1.394 . S
C3002 C3003 1.369 . S
C3002 C3006 1.531 . S
C3003 C3002 1.369 . S
C3003 C3004 1.410 . S
C3003 C3011 1.503 . S
C3004 C3003 1.410 . S
C3004 C3005 1.392 . S
C3004 C3007 1.511 . S
C3005 C3001 1.376 . S
C3005 C3004 1.392 . S
C3005 H3017 0.929 . S
C3006 C3002 1.531 . S
C3006 H3018 0.960 . S
C3006 H3019 0.962 . S
C3006 H3020 0.960 . S
C3007 C3004 1.511 . S
C3007 H3021 0.961 . S
C3007 H3022 0.961 . S
C3007 H3023 0.961 . S
C3008 C3009 1.370 . S
C3008 C3010 1.363 . S
C3008 H3024 0.931 . S
C3009 C3008 1.370 . S
C3009 C3013 1.408 . S
C3010 C3008 1.363 . S
C3010 C3011 1.370 . S
C3010 C3014 1.524 . S
C3011 C3003 1.503 . S
C3011 C3010 1.370 . S
C3011 C3012 1.403 . S
C3012 C3011 1.403 . S
C3012 C3013 1.404 . S
C3012 C3015 1.539 . S
C3013 C3009 1.408 . S
C3013 C3012 1.404 . S
C3013 H3025 0.930 . S
C3014 C3010 1.524 . S
C3014 H3026 0.956 . S
C3014 H3027 0.961 . S
C3014 H3028 0.961 . S
C3015 C3012 1.539 . S
C3015 H3029 0.958 . S
C3015 H3030 0.961 . S
C3015 H3031 0.960 . S
H3016 C3000 0.931 . S
H3017 C3005 0.929 . S
H3018 C3006 0.960 . S
H3019 C3006 0.962 . S
H3020 C3006 0.960 . S
H3021 C3007 0.961 . S
H3022 C3007 0.961 . S
H3023 C3007 0.961 . S
H3024 C3008 0.931 . S
H3025 C3013 0.930 . S
H3026 C3014 0.956 . S
H3027 C3014 0.961 . S
H3028 C3014 0.961 . S
H3029 C3015 0.958 . S
H3030 C3015 0.961 . S
H3031 C3015 0.960 . S
C3032 C3033 1.391 . S
C3032 C3034 1.394 . S
C3032 H3048 0.931 . S
C3033 C3032 1.391 . S
C3033 C3037 1.376 . S
C3034 C3032 1.394 . S
C3034 C3035 1.369 . S
C3034 C3038 1.531 . S
C3035 C3034 1.369 . S
C3035 C3036 1.410 . S
C3035 C3043 1.503 . S
C3036 C3035 1.410 . S
C3036 C3037 1.392 . S
C3036 C3039 1.511 . S
C3037 C3033 1.376 . S
C3037 C3036 1.392 . S
C3037 H3049 0.929 . S
C3038 C3034 1.531 . S
C3038 H3050 0.960 . S
C3038 H3051 0.962 . S
C3038 H3052 0.960 . S
C3039 C3036 1.511 . S
C3039 H3053 0.961 . S
C3039 H3054 0.961 . S
C3039 H3055 0.961 . S
C3040 C3041 1.370 . S
C3040 C3042 1.363 . S
C3040 H3056 0.931 . S
C3041 C3040 1.370 . S
C3041 C3045 1.408 . S
C3042 C3040 1.363 . S
C3042 C3043 1.370 . S
C3042 C3046 1.524 . S
C3043 C3035 1.503 . S
C3043 C3042 1.370 . S
C3043 C3044 1.403 . S
C3044 C3043 1.403 . S
C3044 C3045 1.404 . S
C3044 C3047 1.539 . S
C3045 C3041 1.408 . S
C3045 C3044 1.404 . S
C3045 H3057 0.930 . S
C3046 C3042 1.524 . S
C3046 H3058 0.956 . S
C3046 H3059 0.961 . S
C3046 H3060 0.961 . S
C3047 C3044 1.539 . S
C3047 H3061 0.958 . S
C3047 H3062 0.961 . S
C3047 H3063 0.960 . S
H3048 C3032 0.931 . S
H3049 C3037 0.929 . S
H3050 C3038 0.960 . S
H3051 C3038 0.962 . S
H3052 C3038 0.960 . S
H3053 C3039 0.961 . S
H3054 C3039 0.961 . S
H3055 C3039 0.961 . S
H3056 C3040 0.931 . S
H3057 C3045 0.930 . S
H3058 C3046 0.956 . S
H3059 C3046 0.961 . S
H3060 C3046 0.961 . S
H3061 C3047 0.958 . S
H3062 C3047 0.961 . S
H3063 C3047 0.960 . S
C3064 C3065 1.391 . S
C3064 C3066 1.394 . S
C3064 H3080 0.931 . S
C3065 C3064 1.391 . S
C3065 C3069 1.376 . S
C3066 C3064 1.394 . S
C3066 C3067 1.369 . S
C3066 C3070 1.531 . S
C3067 C3066 1.369 . S
C3067 C3068 1.410 . S
C3067 C3075 1.503 . S
C3068 C3067 1.410 . S
C3068 C3069 1.392 . S
C3068 C3071 1.511 . S
C3069 C3065 1.376 . S
C3069 C3068 1.392 . S
C3069 H3081 0.929 . S
C3070 C3066 1.531 . S
C3070 H3082 0.960 . S
C3070 H3083 0.962 . S
C3070 H3084 0.960 . S
C3071 C3068 1.511 . S
C3071 H3085 0.961 . S
C3071 H3086 0.961 . S
C3071 H3087 0.961 . S
C3072 C3073 1.370 . S
C3072 C3074 1.363 . S
C3072 H3088 0.931 . S
C3073 C3072 1.370 . S
C3073 C3077 1.408 . S
C3074 C3072 1.363 . S
C3074 C3075 1.370 . S
C3074 C3078 1.524 . S
C3075 C3067 1.503 . S
C3075 C3074 1.370 . S
C3075 C3076 1.403 . S
C3076 C3075 1.403 . S
C3076 C3077 1.404 . S
C3076 C3079 1.539 . S
C3077 C3073 1.408 . S
C3077 C3076 1.404 . S
C3077 H3089 0.930 . S
C3078 C3074 1.524 . S
C3078 H3090 0.956 . S
C3078 H3091 0.961 . S
C3078 H3092 0.961 . S
C3079 C3076 1.539 . S
C3079 H3093 0.958 . S
C3079 H3094 0.961 . S
C3079 H3095 0.960 . S
H3080 C3064 0.931 . S
H3081 C3069 0.929 . S
H3082 C3070 0.960 . S
H3083 C3070 0.962 . S
H3084 C3070 0.960 . S
H3085 C3071 0.961 . S
H3086 C3071 0.961 . S
H3087 C3071 0.961 . S
H3088 C3072 0.931 . S
H3089 C3077 0.930 . S
H3090 C3078 0.956 . S
H3091 C3078 0.961 . S
H3092 C3078 0.961 . S
H3093 C3079 0.958 . S
H3094 C3079 0.961 . S
H3095 C3079 0.960 . S
C3096 C3097 1.391 . S
C3096 C3098 1.394 . S
C3096 H3112 0.931 . S
C3097 C3096 1.391 . S
C3097 C3101 1.376 1_554 S
C3098 C3096 1.394 . S
C3098 C3099 1.369 . S
C3098 C3102 1.531 . S
C3099 C3098 1.369 . S
C3099 C3100 1.410 1_554 S
C3099 C3107 1.503 . S
C3100 C3099 1.410 1_556 S
C3100 C3101 1.392 . S
C3100 C3103 1.511 . S
C3101 C3097 1.376 1_556 S
C3101 C3100 1.392 . S
C3101 H3113 0.929 . S
C3102 C3098 1.531 . S
C3102 H3114 0.960 . S
C3102 H3115 0.962 . S
C3102 H3116 0.960 . S
C3103 C3100 1.511 . S
C3103 H3117 0.961 1_565 S
C3103 H3118 0.961 1_565 S
C3103 H3119 0.961 . S
C3104 C3105 1.370 . S
C3104 C3106 1.363 . S
C3104 H3120 0.931 . S
C3105 C3104 1.370 . S
C3105 C3109 1.408 1_545 S
C3106 C3104 1.363 . S
C3106 C3107 1.370 1_545 S
C3106 C3110 1.524 . S
C3107 C3099 1.503 . S
C3107 C3106 1.370 1_565 S
C3107 C3108 1.403 . S
C3108 C3107 1.403 . S
C3108 C3109 1.404 . S
C3108 C3111 1.539 1_554 S
C3109 C3105 1.408 1_565 S
C3109 C3108 1.404 . S
C3109 H3121 0.930 1_554 S
C3110 C3106 1.524 . S
C3110 H3122 0.956 . S
C3110 H3123 0.961 . S
C3110 H3124 0.961 . S
C3111 C3108 1.539 1_556 S
C3111 H3125 0.958 . S
C3111 H3126 0.961 . S
C3111 H3127 0.960 . S
H3112 C3096 0.931 . S
H3113 C3101 0.929 . S
H3114 C3102 0.960 . S
H3115 C3102 0.962 . S
H3116 C3102 0.960 . S
H3117 C3103 0.961 1_545 S
H3118 C3103 0.961 1_545 S
H3119 C3103 0.961 . S
H3120 C3104 0.931 . S
H3121 C3109 0.930 1_556 S
H3122 C3110 0.956 . S
H3123 C3110 0.961 . S
H3124 C3110 0.961 . S
H3125 C3111 0.958 . S
H3126 C3111 0.961 . S
H3127 C3111 0.960 . S
C3128 C3129 1.391 . S
C3128 C3130 1.394 . S
C3128 H3144 0.931 . S
C3129 C3128 1.391 . S
C3129 C3133 1.376 . S
C3130 C3128 1.394 . S
C3130 C3131 1.369 . S
C3130 C3134 1.531 . S
C3131 C3130 1.369 . S
C3131 C3132 1.410 . S
C3131 C3139 1.503 . S
C3132 C3131 1.410 . S
C3132 C3133 1.392 . S
C3132 C3135 1.511 . S
C3133 C3129 1.376 . S
C3133 C3132 1.392 . S
C3133 H3145 0.929 . S
C3134 C3130 1.531 . S
C3134 H3146 0.960 . S
C3134 H3147 0.962 . S
C3134 H3148 0.960 . S
C3135 C3132 1.511 . S
C3135 H3149 0.961 . S
C3135 H3150 0.961 . S
C3135 H3151 0.961 . S
C3136 C3137 1.370 . S
C3136 C3138 1.363 . S
C3136 H3152 0.931 . S
C3137 C3136 1.370 . S
C3137 C3141 1.408 . S
C3138 C3136 1.363 . S
C3138 C3139 1.370 . S
C3138 C3142 1.524 . S
C3139 C3131 1.503 . S
C3139 C3138 1.370 . S
C3139 C3140 1.403 . S
C3140 C3139 1.403 . S
C3140 C3141 1.404 . S
C3140 C3143 1.539 . S
C3141 C3137 1.408 . S
C3141 C3140 1.404 . S
C3141 H3153 0.930 . S
C3142 C3138 1.524 . S
C3142 H3154 0.956 . S
C3142 H3155 0.961 . S
C3142 H3156 0.961 . S
C3143 C3140 1.539 . S
C3143 H3157 0.958 . S
C3143 H3158 0.961 . S
C3143 H3159 0.960 . S
H3144 C3128 0.931 . S
H3145 C3133 0.929 . S
H3146 C3134 0.960 . S
H3147 C3134 0.962 . S
H3148 C3134 0.960 . S
H3149 C3135 0.961 . S
H3150 C3135 0.961 . S
H3151 C3135 0.961 . S
H3152 C3136 0.931 . S
H3153 C3141 0.930 . S
H3154 C3142 0.956 . S
H3155 C3142 0.961 . S
H3156 C3142 0.961 . S
H3157 C3143 0.958 . S
H3158 C3143 0.961 . S
H3159 C3143 0.960 . S
C3160 C3161 1.391 . S
C3160 C3162 1.394 . S
C3160 H3176 0.931 . S
C3161 C3160 1.391 . S
C3161 C3165 1.374 . S
C3162 C3160 1.394 . S
C3162 C3163 1.369 . S
C3162 C3166 1.531 . S
C3163 C3162 1.369 . S
C3163 C3164 1.410 . S
C3163 C3171 1.503 . S
C3164 C3163 1.410 . S
C3164 C3165 1.391 . S
C3164 C3167 1.517 . S
C3165 C3161 1.374 . S
C3165 C3164 1.391 . S
C3165 H3177 0.932 1_554 S
C3166 C3162 1.531 . S
C3166 H3178 0.960 . S
C3166 H3179 0.962 . S
C3166 H3180 0.960 . S
C3167 C3164 1.517 . S
C3167 H3181 0.959 . S
C3167 H3182 0.971 . S
C3167 H3183 0.946 1_554 S
C3168 C3169 1.370 . S
C3168 C3170 1.363 . S
C3168 H3184 0.931 . S
C3169 C3168 1.370 . S
C3169 C3173 1.408 . S
C3170 C3168 1.363 . S
C3170 C3171 1.370 . S
C3170 C3174 1.524 . S
C3171 C3163 1.503 . S
C3171 C3170 1.370 . S
C3171 C3172 1.403 . S
C3172 C3171 1.403 . S
C3172 C3173 1.404 . S
C3172 C3175 1.539 1_554 S
C3173 C3169 1.408 . S
C3173 C3172 1.404 . S
C3173 H3185 0.930 . S
C3174 C3170 1.524 . S
C3174 H3186 0.956 . S
C3174 H3187 0.961 . S
C3174 H3188 0.961 . S
C3175 C3172 1.539 1_556 S
C3175 H3189 0.958 . S
C3175 H3190 0.961 . S
C3175 H3191 0.960 . S
H3176 C3160 0.931 . S
H3177 C3165 0.932 1_556 S
H3178 C3166 0.960 . S
H3179 C3166 0.962 . S
H3180 C3166 0.960 . S
H3181 C3167 0.959 . S
H3182 C3167 0.971 . S
H3183 C3167 0.946 1_556 S
H3184 C3168 0.931 . S
H3185 C3173 0.930 . S
H3186 C3174 0.956 . S
H3187 C3174 0.961 . S
H3188 C3174 0.961 . S
H3189 C3175 0.958 . S
H3190 C3175 0.961 . S
H3191 C3175 0.960 . S
C3192 C3193 1.391 . S
C3192 C3194 1.394 . S
C3192 H3208 0.931 . S
C3193 C3192 1.391 . S
C3193 C3197 1.376 . S
C3194 C3192 1.394 . S
C3194 C3195 1.369 . S
C3194 C3198 1.531 . S
C3195 C3194 1.369 . S
C3195 C3196 1.410 . S
C3195 C3203 1.503 . S
C3196 C3195 1.410 . S
C3196 C3197 1.392 . S
C3196 C3199 1.511 . S
C3197 C3193 1.376 . S
C3197 C3196 1.392 . S
C3197 H3209 0.929 . S
C3198 C3194 1.531 . S
C3198 H3210 0.960 . S
C3198 H3211 0.962 . S
C3198 H3212 0.960 . S
C3199 C3196 1.511 . S
C3199 H3213 0.961 . S
C3199 H3214 0.961 . S
C3199 H3215 0.961 . S
C3200 C3201 1.370 . S
C3200 C3202 1.363 . S
C3200 H3216 0.931 . S
C3201 C3200 1.370 . S
C3201 C3205 1.408 . S
C3202 C3200 1.363 . S
C3202 C3203 1.370 . S
C3202 C3206 1.524 . S
C3203 C3195 1.503 . S
C3203 C3202 1.370 . S
C3203 C3204 1.403 . S
C3204 C3203 1.403 . S
C3204 C3205 1.404 . S
C3204 C3207 1.539 . S
C3205 C3201 1.408 . S
C3205 C3204 1.404 . S
C3205 H3217 0.930 . S
C3206 C3202 1.524 . S
C3206 H3218 0.956 . S
C3206 H3219 0.961 . S
C3206 H3220 0.961 . S
C3207 C3204 1.539 . S
C3207 H3221 0.958 . S
C3207 H3222 0.961 . S
C3207 H3223 0.960 . S
H3208 C3192 0.931 . S
H3209 C3197 0.929 . S
H3210 C3198 0.960 . S
H3211 C3198 0.962 . S
H3212 C3198 0.960 . S
H3213 C3199 0.961 . S
H3214 C3199 0.961 . S
H3215 C3199 0.961 . S
H3216 C3200 0.931 . S
H3217 C3205 0.930 . S
H3218 C3206 0.956 . S
H3219 C3206 0.961 . S
H3220 C3206 0.961 . S
H3221 C3207 0.958 . S
H3222 C3207 0.961 . S
H3223 C3207 0.960 . S
C3224 C3225 1.391 . S
C3224 C3226 1.394 . S
C3224 H3240 0.931 . S
C3225 C3224 1.391 . S
C3225 C3229 1.376 . S
C3226 C3224 1.394 . S
C3226 C3227 1.369 . S
C3226 C3230 1.531 . S
C3227 C3226 1.369 . S
C3227 C3228 1.410 . S
C3227 C3235 1.503 . S
C3228 C3227 1.410 . S
C3228 C3229 1.392 . S
C3228 C3231 1.511 . S
C3229 C3225 1.376 . S
C3229 C3228 1.392 . S
C3229 H3241 0.929 . S
C3230 C3226 1.531 . S
C3230 H3242 0.960 . S
C3230 H3243 0.962 . S
C3230 H3244 0.960 . S
C3231 C3228 1.511 . S
C3231 H3245 0.961 . S
C3231 H3246 0.961 . S
C3231 H3247 0.961 . S
C3232 C3233 1.370 . S
C3232 C3234 1.363 . S
C3232 H3248 0.931 . S
C3233 C3232 1.370 . S
C3233 C3237 1.408 . S
C3234 C3232 1.363 . S
C3234 C3235 1.370 . S
C3234 C3238 1.524 . S
C3235 C3227 1.503 . S
C3235 C3234 1.370 . S
C3235 C3236 1.403 . S
C3236 C3235 1.403 . S
C3236 C3237 1.404 . S
C3236 C3239 1.539 . S
C3237 C3233 1.408 . S
C3237 C3236 1.404 . S
C3237 H3249 0.930 . S
C3238 C3234 1.524 . S
C3238 H3250 0.956 . S
C3238 H3251 0.961 . S
C3238 H3252 0.961 . S
C3239 C3236 1.539 . S
C3239 H3253 0.958 . S
C3239 H3254 0.961 . S
C3239 H3255 0.960 . S
H3240 C3224 0.931 . S
H3241 C3229 0.929 . S
H3242 C3230 0.960 . S
H3243 C3230 0.962 . S
H3244 C3230 0.960 . S
H3245 C3231 0.961 . S
H3246 C3231 0.961 . S
H3247 C3231 0.961 . S
H3248 C3232 0.931 . S
H3249 C3237 0.930 . S
H3250 C3238 0.956 . S
H3251 C3238 0.961 . S
H3252 C3238 0.961 . S
H3253 C3239 0.958 . S
H3254 C3239 0.961 . S
H3255 C3239 0.960 . S
C3256 C3257 1.391 . S
C3256 C3258 1.394 . S
C3256 H3272 0.931 . S
C3257 C3256 1.391 . S
C3257 C3261 1.376 . S
C3258 C3256 1.394 . S
C3258 C3259 1.369 . S
C3258 C3262 1.531 . S
C3259 C3258 1.369 . S
C3259 C3260 1.410 . S
C3259 C3267 1.503 . S
C3260 C3259 1.410 . S
C3260 C3261 1.392 . S
C3260 C3263 1.511 . S
C3261 C3257 1.376 . S
C3261 C3260 1.392 . S
C3261 H3273 0.929 . S
C3262 C3258 1.531 . S
C3262 H3274 0.960 . S
C3262 H3275 0.962 . S
C3262 H3276 0.960 . S
C3263 C3260 1.511 . S
C3263 H3277 0.961 . S
C3263 H3278 0.961 . S
C3263 H3279 0.961 . S
C3264 C3265 1.370 . S
C3264 C3266 1.363 . S
C3264 H3280 0.931 . S
C3265 C3264 1.370 . S
C3265 C3269 1.408 . S
C3266 C3264 1.363 . S
C3266 C3267 1.370 . S
C3266 C3270 1.524 . S
C3267 C3259 1.503 . S
C3267 C3266 1.370 . S
C3267 C3268 1.403 . S
C3268 C3267 1.403 . S
C3268 C3269 1.404 . S
C3268 C3271 1.539 . S
C3269 C3265 1.408 . S
C3269 C3268 1.404 . S
C3269 H3281 0.930 . S
C3270 C3266 1.524 . S
C3270 H3282 0.956 . S
C3270 H3283 0.961 . S
C3270 H3284 0.961 . S
C3271 C3268 1.539 . S
C3271 H3285 0.958 . S
C3271 H3286 0.961 . S
C3271 H3287 0.960 . S
H3272 C3256 0.931 . S
H3273 C3261 0.929 . S
H3274 C3262 0.960 . S
H3275 C3262 0.962 . S
H3276 C3262 0.960 . S
H3277 C3263 0.961 . S
H3278 C3263 0.961 . S
H3279 C3263 0.961 . S
H3280 C3264 0.931 . S
H3281 C3269 0.930 . S
H3282 C3270 0.956 . S
H3283 C3270 0.961 . S
H3284 C3270 0.961 . S
H3285 C3271 0.958 . S
H3286 C3271 0.961 . S
H3287 C3271 0.960 . S
C3288 C3289 1.391 . S
C3288 C3290 1.394 . S
C3288 H3304 0.931 . S
C3289 C3288 1.391 . S
C3289 C3293 1.376 . S
C3290 C3288 1.394 . S
C3290 C3291 1.369 . S
C3290 C3294 1.531 . S
C3291 C3290 1.369 . S
C3291 C3292 1.410 . S
C3291 C3299 1.503 . S
C3292 C3291 1.410 . S
C3292 C3293 1.392 . S
C3292 C3295 1.511 . S
C3293 C3289 1.376 . S
C3293 C3292 1.392 . S
C3293 H3305 0.929 . S
C3294 C3290 1.531 . S
C3294 H3306 0.960 . S
C3294 H3307 0.962 . S
C3294 H3308 0.960 . S
C3295 C3292 1.511 . S
C3295 H3309 0.961 . S
C3295 H3310 0.961 . S
C3295 H3311 0.961 . S
C3296 C3297 1.370 . S
C3296 C3298 1.363 . S
C3296 H3312 0.931 . S
C3297 C3296 1.370 . S
C3297 C3301 1.408 . S
C3298 C3296 1.363 . S
C3298 C3299 1.370 . S
C3298 C3302 1.524 . S
C3299 C3291 1.503 . S
C3299 C3298 1.370 . S
C3299 C3300 1.403 . S
C3300 C3299 1.403 . S
C3300 C3301 1.404 . S
C3300 C3303 1.539 . S
C3301 C3297 1.408 . S
C3301 C3300 1.404 . S
C3301 H3313 0.930 . S
C3302 C3298 1.524 . S
C3302 H3314 0.956 . S
C3302 H3315 0.961 . S
C3302 H3316 0.961 . S
C3303 C3300 1.539 . S
C3303 H3317 0.958 . S
C3303 H3318 0.961 . S
C3303 H3319 0.960 . S
H3304 C3288 0.931 . S
H3305 C3293 0.929 . S
H3306 C3294 0.960 . S
H3307 C3294 0.962 . S
H3308 C3294 0.960 . S
H3309 C3295 0.961 . S
H3310 C3295 0.961 . S
H3311 C3295 0.961 . S
H3312 C3296 0.931 . S
H3313 C3301 0.930 . S
H3314 C3302 0.956 . S
H3315 C3302 0.961 . S
H3316 C3302 0.961 . S
H3317 C3303 0.958 . S
H3318 C3303 0.961 . S
H3319 C3303 0.960 . S
C3320 C3321 1.391 . S
C3320 C3322 1.394 . S
C3320 H3336 0.931 . S
C3321 C3320 1.391 . S
C3321 C3325 1.376 . S
C3322 C3320 1.394 . S
C3322 C3323 1.369 . S
C3322 C3326 1.531 . S
C3323 C3322 1.369 . S
C3323 C3324 1.410 . S
C3323 C3331 1.503 . S
C3324 C3323 1.410 . S
C3324 C3325 1.392 . S
C3324 C3327 1.511 . S
C3325 C3321 1.376 . S
C3325 C3324 1.392 . S
C3325 H3337 0.929 . S
C3326 C3322 1.531 . S
C3326 H3338 0.960 . S
C3326 H3339 0.962 . S
C3326 H3340 0.960 . S
C3327 C3324 1.511 . S
C3327 H3341 0.961 . S
C3327 H3342 0.961 . S
C3327 H3343 0.961 . S
C3328 C3329 1.370 . S
C3328 C3330 1.363 . S
C3328 H3344 0.931 1_554 S
C3329 C3328 1.370 . S
C3329 C3333 1.408 . S
C3330 C3328 1.363 . S
C3330 C3331 1.370 . S
C3330 C3334 1.524 . S
C3331 C3323 1.503 . S
C3331 C3330 1.370 . S
C3331 C3332 1.403 . S
C3332 C3331 1.403 . S
C3332 C3333 1.404 . S
C3332 C3335 1.539 . S
C3333 C3329 1.408 . S
C3333 C3332 1.404 . S
C3333 H3345 0.930 . S
C3334 C3330 1.524 . S
C3334 H3346 0.956 1_554 S
C3334 H3347 0.961 . S
C3334 H3348 0.961 1_554 S
C3335 C3332 1.539 . S
C3335 H3349 0.958 . S
C3335 H3350 0.961 . S
C3335 H3351 0.960 . S
H3336 C3320 0.931 . S
H3337 C3325 0.929 . S
H3338 C3326 0.960 . S
H3339 C3326 0.962 . S
H3340 C3326 0.960 . S
H3341 C3327 0.961 . S
H3342 C3327 0.961 . S
H3343 C3327 0.961 . S
H3344 C3328 0.931 1_556 S
H3345 C3333 0.930 . S
H3346 C3334 0.956 1_556 S
H3347 C3334 0.961 . S
H3348 C3334 0.961 1_556 S
H3349 C3335 0.958 . S
H3350 C3335 0.961 . S
H3351 C3335 0.960 . S
C3352 C3353 1.391 . S
C3352 C3354 1.394 . S
C3352 H3368 0.931 . S
C3353 C3352 1.391 . S
C3353 C3357 1.376 . S
C3354 C3352 1.394 . S
C3354 C3355 1.369 . S
C3354 C3358 1.531 . S
C3355 C3354 1.369 . S
C3355 C3356 1.410 . S
C3355 C3363 1.503 . S
C3356 C3355 1.410 . S
C3356 C3357 1.392 . S
C3356 C3359 1.511 . S
C3357 C3353 1.376 . S
C3357 C3356 1.392 . S
C3357 H3369 0.929 . S
C3358 C3354 1.531 . S
C3358 H3370 0.960 . S
C3358 H3371 0.962 . S
C3358 H3372 0.960 . S
C3359 C3356 1.511 . S
C3359 H3373 0.961 . S
C3359 H3374 0.961 . S
C3359 H3375 0.961 . S
C3360 C3361 1.370 . S
C3360 C3362 1.363 . S
C3360 H3376 0.931 . S
C3361 C3360 1.370 . S
C3361 C3365 1.408 . S
C3362 C3360 1.363 . S
C3362 C3363 1.370 . S
C3362 C3366 1.524 . S
C3363 C3355 1.503 . S
C3363 C3362 1.370 . S
C3363 C3364 1.403 . S
C3364 C3363 1.403 . S
C3364 C3365 1.404 . S
C3364 C3367 1.539 . S
C3365 C3361 1.408 . S
C3365 C3364 1.404 . S
C3365 H3377 0.930 . S
C3366 C3362 1.524 . S
C3366 H3378 0.956 . S
C3366 H3379 0.961 . S
C3366 H3380 0.961 . S
C3367 C3364 1.539 . S
C3367 H3381 0.958 . S
C3367 H3382 0.961 . S
C3367 H3383 0.960 . S
H3368 C3352 0.931 . S
H3369 C3357 0.929 . S
H3370 C3358 0.960 . S
H3371 C3358 0.962 . S
H3372 C3358 0.960 . S
H3373 C3359 0.961 . S
H3374 C3359 0.961 . S
H3375 C3359 0.961 . S
H3376 C3360 0.931 . S
H3377 C3365 0.930 . S
H3378 C3366 0.956 . S
H3379 C3366 0.961 . S
H3380 C3366 0.961 . S
H3381 C3367 0.958 . S
H3382 C3367 0.961 . S
H3383 C3367 0.960 . S
C3384 C3385 1.391 . S
C3384 C3386 1.394 . S
C3384 H3400 0.931 . S
C3385 C3384 1.391 . S
C3385 C3389 1.376 . S
C3386 C3384 1.394 . S
C3386 C3387 1.369 . S
C3386 C3390 1.531 . S
C3387 C3386 1.369 . S
C3387 C3388 1.410 . S
C3387 C3395 1.503 . S
C3388 C3387 1.410 . S
C3388 C3389 1.392 . S
C3388 C3391 1.511 . S
C3389 C3385 1.376 . S
C3389 C3388 1.392 . S
C3389 H3401 0.929 . S
C3390 C3386 1.531 . S
C3390 H3402 0.960 . S
C3390 H3403 0.962 . S
C3390 H3404 0.960 . S
C3391 C3388 1.511 . S
C3391 H3405 0.961 . S
C3391 H3406 0.961 . S
C3391 H3407 0.961 . S
C3392 C3393 1.370 . S
C3392 C3394 1.363 . S
C3392 H3408 0.931 . S
C3393 C3392 1.370 . S
C3393 C3397 1.408 . S
C3394 C3392 1.363 . S
C3394 C3395 1.370 . S
C3394 C3398 1.524 . S
C3395 C3387 1.503 . S
C3395 C3394 1.370 . S
C3395 C3396 1.403 . S
C3396 C3395 1.403 . S
C3396 C3397 1.404 . S
C3396 C3399 1.539 . S
C3397 C3393 1.408 . S
C3397 C3396 1.404 . S
C3397 H3409 0.930 . S
C3398 C3394 1.524 . S
C3398 H3410 0.956 . S
C3398 H3411 0.961 . S
C3398 H3412 0.961 . S
C3399 C3396 1.539 . S
C3399 H3413 0.958 . S
C3399 H3414 0.961 . S
C3399 H3415 0.960 . S
H3400 C3384 0.931 . S
H3401 C3389 0.929 . S
H3402 C3390 0.960 . S
H3403 C3390 0.962 . S
H3404 C3390 0.960 . S
H3405 C3391 0.961 . S
H3406 C3391 0.961 . S
H3407 C3391 0.961 . S
H3408 C3392 0.931 . S
H3409 C3397 0.930 . S
H3410 C3398 0.956 . S
H3411 C3398 0.961 . S
H3412 C3398 0.961 . S
H3413 C3399 0.958 . S
H3414 C3399 0.961 . S
H3415 C3399 0.960 . S
C3416 C3417 1.391 . S
C3416 C3418 1.394 . S
C3416 H3432 0.931 . S
C3417 C3416 1.391 . S
C3417 C3421 1.376 . S
C3418 C3416 1.394 . S
C3418 C3419 1.369 . S
C3418 C3422 1.531 . S
C3419 C3418 1.369 . S
C3419 C3420 1.410 . S
C3419 C3427 1.503 . S
C3420 C3419 1.410 . S
C3420 C3421 1.392 . S
C3420 C3423 1.511 . S
C3421 C3417 1.376 . S
C3421 C3420 1.392 . S
C3421 H3433 0.929 . S
C3422 C3418 1.531 . S
C3422 H3434 0.960 . S
C3422 H3435 0.962 . S
C3422 H3436 0.960 . S
C3423 C3420 1.511 . S
C3423 H3437 0.961 . S
C3423 H3438 0.961 . S
C3423 H3439 0.961 . S
C3424 C3425 1.370 . S
C3424 C3426 1.363 . S
C3424 H3440 0.931 . S
C3425 C3424 1.370 . S
C3425 C3429 1.408 . S
C3426 C3424 1.363 . S
C3426 C3427 1.370 . S
C3426 C3430 1.524 . S
C3427 C3419 1.503 . S
C3427 C3426 1.370 . S
C3427 C3428 1.403 . S
C3428 C3427 1.403 . S
C3428 C3429 1.404 . S
C3428 C3431 1.539 . S
C3429 C3425 1.408 . S
C3429 C3428 1.404 . S
C3429 H3441 0.930 . S
C3430 C3426 1.524 . S
C3430 H3442 0.956 . S
C3430 H3443 0.961 . S
C3430 H3444 0.961 . S
C3431 C3428 1.539 . S
C3431 H3445 0.958 . S
C3431 H3446 0.961 . S
C3431 H3447 0.960 . S
H3432 C3416 0.931 . S
H3433 C3421 0.929 . S
H3434 C3422 0.960 . S
H3435 C3422 0.962 . S
H3436 C3422 0.960 . S
H3437 C3423 0.961 . S
H3438 C3423 0.961 . S
H3439 C3423 0.961 . S
H3440 C3424 0.931 . S
H3441 C3429 0.930 . S
H3442 C3430 0.956 . S
H3443 C3430 0.961 . S
H3444 C3430 0.961 . S
H3445 C3431 0.958 . S
H3446 C3431 0.961 . S
H3447 C3431 0.960 . S
C3448 C3449 1.391 . S
C3448 C3450 1.394 . S
C3448 H3464 0.931 . S
C3449 C3448 1.391 . S
C3449 C3453 1.376 . S
C3450 C3448 1.394 . S
C3450 C3451 1.369 . S
C3450 C3454 1.531 . S
C3451 C3450 1.369 . S
C3451 C3452 1.410 . S
C3451 C3459 1.503 . S
C3452 C3451 1.410 . S
C3452 C3453 1.392 . S
C3452 C3455 1.511 . S
C3453 C3449 1.376 . S
C3453 C3452 1.392 . S
C3453 H3465 0.929 . S
C3454 C3450 1.531 . S
C3454 H3466 0.960 . S
C3454 H3467 0.962 . S
C3454 H3468 0.960 . S
C3455 C3452 1.511 . S
C3455 H3469 0.961 . S
C3455 H3470 0.961 . S
C3455 H3471 0.961 . S
C3456 C3457 1.370 . S
C3456 C3458 1.363 . S
C3456 H3472 0.931 . S
C3457 C3456 1.370 . S
C3457 C3461 1.408 . S
C3458 C3456 1.363 . S
C3458 C3459 1.370 . S
C3458 C3462 1.524 . S
C3459 C3451 1.503 . S
C3459 C3458 1.370 . S
C3459 C3460 1.403 . S
C3460 C3459 1.403 . S
C3460 C3461 1.404 . S
C3460 C3463 1.539 . S
C3461 C3457 1.408 . S
C3461 C3460 1.404 . S
C3461 H3473 0.930 . S
C3462 C3458 1.524 . S
C3462 H3474 0.956 . S
C3462 H3475 0.961 . S
C3462 H3476 0.961 . S
C3463 C3460 1.539 . S
C3463 H3477 0.958 . S
C3463 H3478 0.961 . S
C3463 H3479 0.960 . S
H3464 C3448 0.931 . S
H3465 C3453 0.929 . S
H3466 C3454 0.960 . S
H3467 C3454 0.962 . S
H3468 C3454 0.960 . S
H3469 C3455 0.961 . S
H3470 C3455 0.961 . S
H3471 C3455 0.961 . S
H3472 C3456 0.931 . S
H3473 C3461 0.930 . S
H3474 C3462 0.956 . S
H3475 C3462 0.961 . S
H3476 C3462 0.961 . S
H3477 C3463 0.958 . S
H3478 C3463 0.961 . S
H3479 C3463 0.960 . S
C3480 C3481 1.391 . S
C3480 C3482 1.394 . S
C3480 H3496 0.931 . S
C3481 C3480 1.391 . S
C3481 C3485 1.376 . S
C3482 C3480 1.394 . S
C3482 C3483 1.369 . S
C3482 C3486 1.531 . S
C3483 C3482 1.369 . S
C3483 C3484 1.410 . S
C3483 C3491 1.503 . S
C3484 C3483 1.410 . S
C3484 C3485 1.392 . S
C3484 C3487 1.511 . S
C3485 C3481 1.376 . S
C3485 C3484 1.392 . S
C3485 H3497 0.929 . S
C3486 C3482 1.531 . S
C3486 H3498 0.960 . S
C3486 H3499 0.962 . S
C3486 H3500 0.960 . S
C3487 C3484 1.511 . S
C3487 H3501 0.961 . S
C3487 H3502 0.961 . S
C3487 H3503 0.961 . S
C3488 C3489 1.370 . S
C3488 C3490 1.363 . S
C3488 H3504 0.931 . S
C3489 C3488 1.370 . S
C3489 C3493 1.408 . S
C3490 C3488 1.363 . S
C3490 C3491 1.370 . S
C3490 C3494 1.524 . S
C3491 C3483 1.503 . S
C3491 C3490 1.370 . S
C3491 C3492 1.403 . S
C3492 C3491 1.403 . S
C3492 C3493 1.404 . S
C3492 C3495 1.539 . S
C3493 C3489 1.408 . S
C3493 C3492 1.404 . S
C3493 H3505 0.930 . S
C3494 C3490 1.524 . S
C3494 H3506 0.956 . S
C3494 H3507 0.961 . S
C3494 H3508 0.961 . S
C3495 C3492 1.539 . S
C3495 H3509 0.958 . S
C3495 H3510 0.961 . S
C3495 H3511 0.960 . S
H3496 C3480 0.931 . S
H3497 C3485 0.929 . S
H3498 C3486 0.960 . S
H3499 C3486 0.962 . S
H3500 C3486 0.960 . S
H3501 C3487 0.961 . S
H3502 C3487 0.961 . S
H3503 C3487 0.961 . S
H3504 C3488 0.931 . S
H3505 C3493 0.930 . S
H3506 C3494 0.956 . S
H3507 C3494 0.961 . S
H3508 C3494 0.961 . S
H3509 C3495 0.958 . S
H3510 C3495 0.961 . S
H3511 C3495 0.960 . S
C3512 C3513 1.391 . S
C3512 C3514 1.394 . S
C3512 H3528 0.931 . S
C3513 C3512 1.391 . S
C3513 C3517 1.376 . S
C3514 C3512 1.394 . S
C3514 C3515 1.369 . S
C3514 C3518 1.531 . S
C3515 C3514 1.369 . S
C3515 C3516 1.410 . S
C3515 C3523 1.503 . S
C3516 C3515 1.410 . S
C3516 C3517 1.392 . S
C3516 C3519 1.511 . S
C3517 C3513 1.376 . S
C3517 C3516 1.392 . S
C3517 H3529 0.929 . S
C3518 C3514 1.531 . S
C3518 H3530 0.960 . S
C3518 H3531 0.962 . S
C3518 H3532 0.960 . S
C3519 C3516 1.511 . S
C3519 H3533 0.961 . S
C3519 H3534 0.961 . S
C3519 H3535 0.961 . S
C3520 C3521 1.370 . S
C3520 C3522 1.363 . S
C3520 H3536 0.931 . S
C3521 C3520 1.370 . S
C3521 C3525 1.408 . S
C3522 C3520 1.363 . S
C3522 C3523 1.370 . S
C3522 C3526 1.524 . S
C3523 C3515 1.503 . S
C3523 C3522 1.370 . S
C3523 C3524 1.403 . S
C3524 C3523 1.403 . S
C3524 C3525 1.404 . S
C3524 C3527 1.539 . S
C3525 C3521 1.408 . S
C3525 C3524 1.404 . S
C3525 H3537 0.930 . S
C3526 C3522 1.524 . S
C3526 H3538 0.956 . S
C3526 H3539 0.961 . S
C3526 H3540 0.961 . S
C3527 C3524 1.539 . S
C3527 H3541 0.958 . S
C3527 H3542 0.961 . S
C3527 H3543 0.960 . S
H3528 C3512 0.931 . S
H3529 C3517 0.929 . S
H3530 C3518 0.960 . S
H3531 C3518 0.962 . S
H3532 C3518 0.960 . S
H3533 C3519 0.961 . S
H3534 C3519 0.961 . S
H3535 C3519 0.961 . S
H3536 C3520 0.931 . S
H3537 C3525 0.930 . S
H3538 C3526 0.956 . S
H3539 C3526 0.961 . S
H3540 C3526 0.961 . S
H3541 C3527 0.958 . S
H3542 C3527 0.961 . S
H3543 C3527 0.960 . S
C3544 C3545 1.391 . S
C3544 C3546 1.394 . S
C3544 H3560 0.931 . S
C3545 C3544 1.391 . S
C3545 C3549 1.376 . S
C3546 C3544 1.394 . S
C3546 C3547 1.369 . S
C3546 C3550 1.531 . S
C3547 C3546 1.369 . S
C3547 C3548 1.410 . S
C3547 C3555 1.503 . S
C3548 C3547 1.410 . S
C3548 C3549 1.392 . S
C3548 C3551 1.511 . S
C3549 C3545 1.376 . S
C3549 C3548 1.392 . S
C3549 H3561 0.929 . S
C3550 C3546 1.531 . S
C3550 H3562 0.960 . S
C3550 H3563 0.962 . S
C3550 H3564 0.960 . S
C3551 C3548 1.511 . S
C3551 H3565 0.961 . S
C3551 H3566 0.961 . S
C3551 H3567 0.961 . S
C3552 C3553 1.370 . S
C3552 C3554 1.363 . S
C3552 H3568 0.931 . S
C3553 C3552 1.370 . S
C3553 C3557 1.408 . S
C3554 C3552 1.363 . S
C3554 C3555 1.370 . S
C3554 C3558 1.524 . S
C3555 C3547 1.503 . S
C3555 C3554 1.370 . S
C3555 C3556 1.403 . S
C3556 C3555 1.403 . S
C3556 C3557 1.404 . S
C3556 C3559 1.539 . S
C3557 C3553 1.408 . S
C3557 C3556 1.404 . S
C3557 H3569 0.930 . S
C3558 C3554 1.524 . S
C3558 H3570 0.956 . S
C3558 H3571 0.961 . S
C3558 H3572 0.961 . S
C3559 C3556 1.539 . S
C3559 H3573 0.958 . S
C3559 H3574 0.961 . S
C3559 H3575 0.960 . S
H3560 C3544 0.931 . S
H3561 C3549 0.929 . S
H3562 C3550 0.960 . S
H3563 C3550 0.962 . S
H3564 C3550 0.960 . S
H3565 C3551 0.961 . S
H3566 C3551 0.961 . S
H3567 C3551 0.961 . S
H3568 C3552 0.931 . S
H3569 C3557 0.930 . S
H3570 C3558 0.956 . S
H3571 C3558 0.961 . S
H3572 C3558 0.961 . S
H3573 C3559 0.958 . S
H3574 C3559 0.961 . S
H3575 C3559 0.960 . S
C3576 C3577 1.391 . S
C3576 C3578 1.394 . S
C3576 H3592 0.931 . S
C3577 C3576 1.391 . S
C3577 C3581 1.376 . S
C3578 C3576 1.394 . S
C3578 C3579 1.369 . S
C3578 C3582 1.531 1_655 S
C3579 C3578 1.369 . S
C3579 C3580 1.410 . S
C3579 C3587 1.507 . S
C3580 C3579 1.410 . S
C3580 C3581 1.392 . S
C3580 C3583 1.511 . S
C3581 C3577 1.376 . S
C3581 C3580 1.392 . S
C3581 H3593 0.929 . S
C3582 C3578 1.531 1_455 S
C3582 H3594 0.960 . S
C3582 H3595 0.962 . S
C3582 H3596 0.960 . S
C3583 C3580 1.511 . S
C3583 H3597 0.961 . S
C3583 H3598 0.961 . S
C3583 H3599 0.961 . S
C3584 C3585 1.370 . S
C3584 C3586 1.363 . S
C3584 H3600 0.931 . S
C3585 C3584 1.370 . S
C3585 C3589 1.408 . S
C3586 C3584 1.363 . S
C3586 C3587 1.366 1_455 S
C3586 C3590 1.524 . S
C3587 C3579 1.507 . S
C3587 C3586 1.366 1_655 S
C3587 C3588 1.403 1_655 S
C3588 C3587 1.403 1_455 S
C3588 C3589 1.404 . S
C3588 C3591 1.539 1_455 S
C3589 C3585 1.408 . S
C3589 C3588 1.404 . S
C3589 H3601 0.930 . S
C3590 C3586 1.524 . S
C3590 H3602 0.956 . S
C3590 H3603 0.960 1_455 S
C3590 H3604 0.961 . S
C3591 C3588 1.539 1_655 S
C3591 H3605 0.958 1_655 S
C3591 H3606 0.961 . S
C3591 H3607 0.960 . S
H3592 C3576 0.931 . S
H3593 C3581 0.929 . S
H3594 C3582 0.960 . S
H3595 C3582 0.962 . S
H3596 C3582 0.960 . S
H3597 C3583 0.961 . S
H3598 C3583 0.961 . S
H3599 C3583 0.961 . S
H3600 C3584 0.931 . S
H3601 C3589 0.930 . S
H3602 C3590 0.956 . S
H3603 C3590 0.960 1_655 S
H3604 C3590 0.961 . S
H3605 C3591 0.958 1_455 S
H3606 C3591 0.961 . S
H3607 C3591 0.960 . S
C3608 C3609 1.391 . S
C3608 C3610 1.394 . S
C3608 H3624 0.931 . S
C3609 C3608 1.391 . S
C3609 C3613 1.376 . S
C3610 C3608 1.394 . S
C3610 C3611 1.369 . S
C3610 C3614 1.531 . S
C3611 C3610 1.369 . S
C3611 C3612 1.410 . S
C3611 C3619 1.503 . S
C3612 C3611 1.410 . S
C3612 C3613 1.392 . S
C3612 C3615 1.511 . S
C3613 C3609 1.376 . S
C3613 C3612 1.392 . S
C3613 H3625 0.929 . S
C3614 C3610 1.531 . S
C3614 H3626 0.960 . S
C3614 H3627 0.962 . S
C3614 H3628 0.960 . S
C3615 C3612 1.511 . S
C3615 H3629 0.961 . S
C3615 H3630 0.961 . S
C3615 H3631 0.961 . S
C3616 C3617 1.370 . S
C3616 C3618 1.363 . S
C3616 H3632 0.931 . S
C3617 C3616 1.370 . S
C3617 C3621 1.408 . S
C3618 C3616 1.363 . S
C3618 C3619 1.370 . S
C3618 C3622 1.524 . S
C3619 C3611 1.503 . S
C3619 C3618 1.370 . S
C3619 C3620 1.403 . S
C3620 C3619 1.403 . S
C3620 C3621 1.404 . S
C3620 C3623 1.539 . S
C3621 C3617 1.408 . S
C3621 C3620 1.404 . S
C3621 H3633 0.930 . S
C3622 C3618 1.524 . S
C3622 H3634 0.956 . S
C3622 H3635 0.961 . S
C3622 H3636 0.961 . S
C3623 C3620 1.539 . S
C3623 H3637 0.958 . S
C3623 H3638 0.961 . S
C3623 H3639 0.960 . S
H3624 C3608 0.931 . S
H3625 C3613 0.929 . S
H3626 C3614 0.960 . S
H3627 C3614 0.962 . S
H3628 C3614 0.960 . S
H3629 C3615 0.961 . S
H3630 C3615 0.961 . S
H3631 C3615 0.961 . S
H3632 C3616 0.931 . S
H3633 C3621 0.930 . S
H3634 C3622 0.956 . S
H3635 C3622 0.961 . S
H3636 C3622 0.961 . S
H3637 C3623 0.958 . S
H3638 C3623 0.961 . S
H3639 C3623 0.960 . S
C3640 C3641 1.391 . S
C3640 C3642 1.394 . S
C3640 H3656 0.931 . S
C3641 C3640 1.391 . S
C3641 C3645 1.376 . S
C3642 C3640 1.394 . S
C3642 C3643 1.369 . S
C3642 C3646 1.531 . S
C3643 C3642 1.369 . S
C3643 C3644 1.410 . S
C3643 C3651 1.503 . S
C3644 C3643 1.410 . S
C3644 C3645 1.392 . S
C3644 C3647 1.511 . S
C3645 C3641 1.376 . S
C3645 C3644 1.392 . S
C3645 H3657 0.929 . S
C3646 C3642 1.531 . S
C3646 H3658 0.960 . S
C3646 H3659 0.962 . S
C3646 H3660 0.960 . S
C3647 C3644 1.511 . S
C3647 H3661 0.961 . S
C3647 H3662 0.961 . S
C3647 H3663 0.961 . S
C3648 C3649 1.370 . S
C3648 C3650 1.363 . S
C3648 H3664 0.931 . S
C3649 C3648 1.370 . S
C3649 C3653 1.408 . S
C3650 C3648 1.363 . S
C3650 C3651 1.370 . S
C3650 C3654 1.524 . S
C3651 C3643 1.503 . S
C3651 C3650 1.370 . S
C3651 C3652 1.403 . S
C3652 C3651 1.403 . S
C3652 C3653 1.404 . S
C3652 C3655 1.539 . S
C3653 C3649 1.408 . S
C3653 C3652 1.404 . S
C3653 H3665 0.930 . S
C3654 C3650 1.524 . S
C3654 H3666 0.956 . S
C3654 H3667 0.961 . S
C3654 H3668 0.961 . S
C3655 C3652 1.539 . S
C3655 H3669 0.958 . S
C3655 H3670 0.961 . S
C3655 H3671 0.960 . S
H3656 C3640 0.931 . S
H3657 C3645 0.929 . S
H3658 C3646 0.960 . S
H3659 C3646 0.962 . S
H3660 C3646 0.960 . S
H3661 C3647 0.961 . S
H3662 C3647 0.961 . S
H3663 C3647 0.961 . S
H3664 C3648 0.931 . S
H3665 C3653 0.930 . S
H3666 C3654 0.956 . S
H3667 C3654 0.961 . S
H3668 C3654 0.961 . S
H3669 C3655 0.958 . S
H3670 C3655 0.961 . S
H3671 C3655 0.960 . S
C3672 C3673 1.391 . S
C3672 C3674 1.394 . S
C3672 H3688 0.931 . S
C3673 C3672 1.391 . S
C3673 C3677 1.376 . S
C3674 C3672 1.394 . S
C3674 C3675 1.369 . S
C3674 C3678 1.531 . S
C3675 C3674 1.369 . S
C3675 C3676 1.410 . S
C3675 C3683 1.503 . S
C3676 C3675 1.410 . S
C3676 C3677 1.392 . S
C3676 C3679 1.511 . S
C3677 C3673 1.376 . S
C3677 C3676 1.392 . S
C3677 H3689 0.929 . S
C3678 C3674 1.531 . S
C3678 H3690 0.960 . S
C3678 H3691 0.962 . S
C3678 H3692 0.960 . S
C3679 C3676 1.511 . S
C3679 H3693 0.961 . S
C3679 H3694 0.961 . S
C3679 H3695 0.961 . S
C3680 C3681 1.370 . S
C3680 C3682 1.363 . S
C3680 H3696 0.931 . S
C3681 C3680 1.370 . S
C3681 C3685 1.408 . S
C3682 C3680 1.363 . S
C3682 C3683 1.370 . S
C3682 C3686 1.524 . S
C3683 C3675 1.503 . S
C3683 C3682 1.370 . S
C3683 C3684 1.403 . S
C3684 C3683 1.403 . S
C3684 C3685 1.404 . S
C3684 C3687 1.539 . S
C3685 C3681 1.408 . S
C3685 C3684 1.404 . S
C3685 H3697 0.930 . S
C3686 C3682 1.524 . S
C3686 H3698 0.956 . S
C3686 H3699 0.961 . S
C3686 H3700 0.961 . S
C3687 C3684 1.539 . S
C3687 H3701 0.958 . S
C3687 H3702 0.961 . S
C3687 H3703 0.960 . S
H3688 C3672 0.931 . S
H3689 C3677 0.929 . S
H3690 C3678 0.960 . S
H3691 C3678 0.962 . S
H3692 C3678 0.960 . S
H3693 C3679 0.961 . S
H3694 C3679 0.961 . S
H3695 C3679 0.961 . S
H3696 C3680 0.931 . S
H3697 C3685 0.930 . S
H3698 C3686 0.956 . S
H3699 C3686 0.961 . S
H3700 C3686 0.961 . S
H3701 C3687 0.958 . S
H3702 C3687 0.961 . S
H3703 C3687 0.960 . S
C3704 C3705 1.391 . S
C3704 C3706 1.394 . S
C3704 H3720 0.931 . S
C3705 C3704 1.391 . S
C3705 C3709 1.376 . S
C3706 C3704 1.394 . S
C3706 C3707 1.369 . S
C3706 C3710 1.531 . S
C3707 C3706 1.369 . S
C3707 C3708 1.410 . S
C3707 C3715 1.503 . S
C3708 C3707 1.410 . S
C3708 C3709 1.392 . S
C3708 C3711 1.511 . S
C3709 C3705 1.376 . S
C3709 C3708 1.392 . S
C3709 H3721 0.929 . S
C3710 C3706 1.531 . S
C3710 H3722 0.960 . S
C3710 H3723 0.962 . S
C3710 H3724 0.960 . S
C3711 C3708 1.511 . S
C3711 H3725 0.961 . S
C3711 H3726 0.961 . S
C3711 H3727 0.961 . S
C3712 C3713 1.370 . S
C3712 C3714 1.363 . S
C3712 H3728 0.931 . S
C3713 C3712 1.370 . S
C3713 C3717 1.408 1_655 S
C3714 C3712 1.363 . S
C3714 C3715 1.370 . S
C3714 C3718 1.524 . S
C3715 C3707 1.503 . S
C3715 C3714 1.370 . S
C3715 C3716 1.403 . S
C3716 C3715 1.403 . S
C3716 C3717 1.404 1_655 S
C3716 C3719 1.539 1_655 S
C3717 C3713 1.408 1_455 S
C3717 C3716 1.404 1_455 S
C3717 H3729 0.930 . S
C3718 C3714 1.524 . S
C3718 H3730 0.956 . S
C3718 H3731 0.961 . S
C3718 H3732 0.961 . S
C3719 C3716 1.539 1_455 S
C3719 H3733 0.958 . S
C3719 H3734 0.961 . S
C3719 H3735 0.960 . S
H3720 C3704 0.931 . S
H3721 C3709 0.929 . S
H3722 C3710 0.960 . S
H3723 C3710 0.962 . S
H3724 C3710 0.960 . S
H3725 C3711 0.961 . S
H3726 C3711 0.961 . S
H3727 C3711 0.961 . S
H3728 C3712 0.931 . S
H3729 C3717 0.930 . S
H3730 C3718 0.956 . S
H3731 C3718 0.961 . S
H3732 C3718 0.961 . S
H3733 C3719 0.958 . S
H3734 C3719 0.961 . S
H3735 C3719 0.960 . S
C3736 C3737 1.391 . S
C3736 C3738 1.394 . S
C3736 H3752 0.931 . S
C3737 C3736 1.391 . S
C3737 C3741 1.376 . S
C3738 C3736 1.394 . S
C3738 C3739 1.369 . S
C3738 C3742 1.531 . S
C3739 C3738 1.369 . S
C3739 C3740 1.410 . S
C3739 C3747 1.503 . S
C3740 C3739 1.410 . S
C3740 C3741 1.392 . S
C3740 C3743 1.511 . S
C3741 C3737 1.376 . S
C3741 C3740 1.392 . S
C3741 H3753 0.929 . S
C3742 C3738 1.531 . S
C3742 H3754 0.960 . S
C3742 H3755 0.962 . S
C3742 H3756 0.960 . S
C3743 C3740 1.511 . S
C3743 H3757 0.961 . S
C3743 H3758 0.961 . S
C3743 H3759 0.961 . S
C3744 C3745 1.370 . S
C3744 C3746 1.363 . S
C3744 H3760 0.931 . S
C3745 C3744 1.370 . S
C3745 C3749 1.408 . S
C3746 C3744 1.363 . S
C3746 C3747 1.370 . S
C3746 C3750 1.524 . S
C3747 C3739 1.503 . S
C3747 C3746 1.370 . S
C3747 C3748 1.403 . S
C3748 C3747 1.403 . S
C3748 C3749 1.404 . S
C3748 C3751 1.539 . S
C3749 C3745 1.408 . S
C3749 C3748 1.404 . S
C3749 H3761 0.930 . S
C3750 C3746 1.524 . S
C3750 H3762 0.956 . S
C3750 H3763 0.961 . S
C3750 H3764 0.961 . S
C3751 C3748 1.539 . S
C3751 H3765 0.958 . S
C3751 H3766 0.961 . S
C3751 H3767 0.960 . S
H3752 C3736 0.931 . S
H3753 C3741 0.929 . S
H3754 C3742 0.960 . S
H3755 C3742 0.962 . S
H3756 C3742 0.960 . S
H3757 C3743 0.961 . S
H3758 C3743 0.961 . S
H3759 C3743 0.961 . S
H3760 C3744 0.931 . S
H3761 C3749 0.930 . S
H3762 C3750 0.956 . S
H3763 C3750 0.961 . S
H3764 C3750 0.961 . S
H3765 C3751 0.958 . S
H3766 C3751 0.961 . S
H3767 C3751 0.960 . S
C3768 C3769 1.391 . S
C3768 C3770 1.394 . S
C3768 H3784 0.931 . S
C3769 C3768 1.391 . S
C3769 C3773 1.376 . S
C3770 C3768 1.394 . S
C3770 C3771 1.369 . S
C3770 C3774 1.531 . S
C3771 C3770 1.369 . S
C3771 C3772 1.410 . S
C3771 C3779 1.503 . S
C3772 C3771 1.410 . S
C3772 C3773 1.392 . S
C3772 C3775 1.511 . S
C3773 C3769 1.376 . S
C3773 C3772 1.392 . S
C3773 H3785 0.929 . S
C3774 C3770 1.531 . S
C3774 H3786 0.960 . S
C3774 H3787 0.962 . S
C3774 H3788 0.960 . S
C3775 C3772 1.511 . S
C3775 H3789 0.961 . S
C3775 H3790 0.961 . S
C3775 H3791 0.961 . S
C3776 C3777 1.370 . S
C3776 C3778 1.363 . S
C3776 H3792 0.931 . S
C3777 C3776 1.370 . S
C3777 C3781 1.408 . S
C3778 C3776 1.363 . S
C3778 C3779 1.370 . S
C3778 C3782 1.524 . S
C3779 C3771 1.503 . S
C3779 C3778 1.370 . S
C3779 C3780 1.403 . S
C3780 C3779 1.403 . S
C3780 C3781 1.404 . S
C3780 C3783 1.539 . S
C3781 C3777 1.408 . S
C3781 C3780 1.404 . S
C3781 H3793 0.930 . S
C3782 C3778 1.524 . S
C3782 H3794 0.956 . S
C3782 H3795 0.961 . S
C3782 H3796 0.961 . S
C3783 C3780 1.539 . S
C3783 H3797 0.958 . S
C3783 H3798 0.961 . S
C3783 H3799 0.960 . S
H3784 C3768 0.931 . S
H3785 C3773 0.929 . S
H3786 C3774 0.960 . S
H3787 C3774 0.962 . S
H3788 C3774 0.960 . S
H3789 C3775 0.961 . S
H3790 C3775 0.961 . S
H3791 C3775 0.961 . S
H3792 C3776 0.931 . S
H3793 C3781 0.930 . S
H3794 C3782 0.956 . S
H3795 C3782 0.961 . S
H3796 C3782 0.961 . S
H3797 C3783 0.958 . S
H3798 C3783 0.961 . S
H3799 C3783 0.960 . S
C3800 C3801 1.391 . S
C3800 C3802 1.394 . S
C3800 H3816 0.931 . S
C3801 C3800 1.391 . S
C3801 C3805 1.376 . S
C3802 C3800 1.394 . S
C3802 C3803 1.369 . S
C3802 C3806 1.531 . S
C3803 C3802 1.369 . S
C3803 C3804 1.410 . S
C3803 C3811 1.503 . S
C3804 C3803 1.410 . S
C3804 C3805 1.392 . S
C3804 C3807 1.511 . S
C3805 C3801 1.376 . S
C3805 C3804 1.392 . S
C3805 H3817 0.929 . S
C3806 C3802 1.531 . S
C3806 H3818 0.960 . S
C3806 H3819 0.962 . S
C3806 H3820 0.960 . S
C3807 C3804 1.511 . S
C3807 H3821 0.961 . S
C3807 H3822 0.961 . S
C3807 H3823 0.961 . S
C3808 C3809 1.370 1_565 S
C3808 C3810 1.363 . S
C3808 H3824 0.931 1_565 S
C3809 C3808 1.370 1_545 S
C3809 C3813 1.408 1_545 S
C3810 C3808 1.363 . S
C3810 C3811 1.370 . S
C3810 C3814 1.524 . S
C3811 C3803 1.503 . S
C3811 C3810 1.370 . S
C3811 C3812 1.403 . S
C3812 C3811 1.403 . S
C3812 C3813 1.404 . S
C3812 C3815 1.539 . S
C3813 C3809 1.408 1_565 S
C3813 C3812 1.404 . S
C3813 H3825 0.930 . S
C3814 C3810 1.524 . S
C3814 H3826 0.956 . S
C3814 H3827 0.961 . S
C3814 H3828 0.961 . S
C3815 C3812 1.539 . S
C3815 H3829 0.958 . S
C3815 H3830 0.961 . S
C3815 H3831 0.960 . S
H3816 C3800 0.931 . S
H3817 C3805 0.929 . S
H3818 C3806 0.960 . S
H3819 C3806 0.962 . S
H3820 C3806 0.960 . S
H3821 C3807 0.961 . S
H3822 C3807 0.961 . S
H3823 C3807 0.961 . S
H3824 C3808 0.931 1_545 S
H3825 C3813 0.930 . S
H3826 C3814 0.956 . S
H3827 C3814 0.961 . S
H3828 C3814 0.961 . S
H3829 C3815 0.958 . S
H3830 C3815 0.961 . S
H3831 C3815 0.960 . S
C3832 C3833 1.391 . S
C3832 C3834 1.394 . S
C3832 H3848 0.931 . S
C3833 C3832 1.391 . S
C3833 C3837 1.376 . S
C3834 C3832 1.394 . S
C3834 C3835 1.369 . S
C3834 C3838 1.531 . S
C3835 C3834 1.369 . S
C3835 C3836 1.410 . S
C3835 C3843 1.503 . S
C3836 C3835 1.410 . S
C3836 C3837 1.392 . S
C3836 C3839 1.511 . S
C3837 C3833 1.376 . S
C3837 C3836 1.392 . S
C3837 H3849 0.929 . S
C3838 C3834 1.531 . S
C3838 H3850 0.960 . S
C3838 H3851 0.962 . S
C3838 H3852 0.960 . S
C3839 C3836 1.511 . S
C3839 H3853 0.961 . S
C3839 H3854 0.961 . S
C3839 H3855 0.961 . S
C3840 C3841 1.370 . S
C3840 C3842 1.363 . S
C3840 H3856 0.931 . S
C3841 C3840 1.370 . S
C3841 C3845 1.408 . S
C3842 C3840 1.363 . S
C3842 C3843 1.370 . S
C3842 C3846 1.524 . S
C3843 C3835 1.503 . S
C3843 C3842 1.370 . S
C3843 C3844 1.403 . S
C3844 C3843 1.403 . S
C3844 C3845 1.404 . S
C3844 C3847 1.539 . S
C3845 C3841 1.408 . S
C3845 C3844 1.404 . S
C3845 H3857 0.930 . S
C3846 C3842 1.524 . S
C3846 H3858 0.956 . S
C3846 H3859 0.961 . S
C3846 H3860 0.961 . S
C3847 C3844 1.539 . S
C3847 H3861 0.958 . S
C3847 H3862 0.961 . S
C3847 H3863 0.960 . S
H3848 C3832 0.931 . S
H3849 C3837 0.929 . S
H3850 C3838 0.960 . S
H3851 C3838 0.962 . S
H3852 C3838 0.960 . S
H3853 C3839 0.961 . S
H3854 C3839 0.961 . S
H3855 C3839 0.961 . S
H3856 C3840 0.931 . S
H3857 C3845 0.930 . S
H3858 C3846 0.956 . S
H3859 C3846 0.961 . S
H3860 C3846 0.961 . S
H3861 C3847 0.958 . S
H3862 C3847 0.961 . S
H3863 C3847 0.960 . S
C3864 C3865 1.391 . S
C3864 C3866 1.394 . S
C3864 H3880 0.931 . S
C3865 C3864 1.391 . S
C3865 C3869 1.376 . S
C3866 C3864 1.394 . S
C3866 C3867 1.369 . S
C3866 C3870 1.531 . S
C3867 C3866 1.369 . S
C3867 C3868 1.410 . S
C3867 C3875 1.503 . S
C3868 C3867 1.410 . S
C3868 C3869 1.392 . S
C3868 C3871 1.511 . S
C3869 C3865 1.376 . S
C3869 C3868 1.392 . S
C3869 H3881 0.929 . S
C3870 C3866 1.531 . S
C3870 H3882 0.960 . S
C3870 H3883 0.962 . S
C3870 H3884 0.960 . S
C3871 C3868 1.511 . S
C3871 H3885 0.961 1_554 S
C3871 H3886 0.961 1_554 S
C3871 H3887 0.961 . S
C3872 C3873 1.370 1_556 S
C3872 C3874 1.363 . S
C3872 H3888 0.931 . S
C3873 C3872 1.370 1_554 S
C3873 C3877 1.408 . S
C3874 C3872 1.363 . S
C3874 C3875 1.370 1_556 S
C3874 C3878 1.524 . S
C3875 C3867 1.503 . S
C3875 C3874 1.370 1_554 S
C3875 C3876 1.403 . S
C3876 C3875 1.403 . S
C3876 C3877 1.404 . S
C3876 C3879 1.539 . S
C3877 C3873 1.408 . S
C3877 C3876 1.404 . S
C3877 H3889 0.930 . S
C3878 C3874 1.524 . S
C3878 H3890 0.956 . S
C3878 H3891 0.961 . S
C3878 H3892 0.961 . S
C3879 C3876 1.539 . S
C3879 H3893 0.958 . S
C3879 H3894 0.961 . S
C3879 H3895 0.960 . S
H3880 C3864 0.931 . S
H3881 C3869 0.929 . S
H3882 C3870 0.960 . S
H3883 C3870 0.962 . S
H3884 C3870 0.960 . S
H3885 C3871 0.961 1_556 S
H3886 C3871 0.961 1_556 S
H3887 C3871 0.961 . S
H3888 C3872 0.931 . S
H3889 C3877 0.930 . S
H3890 C3878 0.956 . S
H3891 C3878 0.961 . S
H3892 C3878 0.961 . S
H3893 C3879 0.958 . S
H3894 C3879 0.961 . S
H3895 C3879 0.960 . S
C3896 C3897 1.391 . S
C3896 C3898 1.394 . S
C3896 H3912 0.931 . S
C3897 C3896 1.391 . S
C3897 C3901 1.376 . S
C3898 C3896 1.394 . S
C3898 C3899 1.369 . S
C3898 C3902 1.531 . S
C3899 C3898 1.369 . S
C3899 C3900 1.410 . S
C3899 C3907 1.503 . S
C3900 C3899 1.410 . S
C3900 C3901 1.392 . S
C3900 C3903 1.511 . S
C3901 C3897 1.376 . S
C3901 C3900 1.392 . S
C3901 H3913 0.929 . S
C3902 C3898 1.531 . S
C3902 H3914 0.960 . S
C3902 H3915 0.962 . S
C3902 H3916 0.960 . S
C3903 C3900 1.511 . S
C3903 H3917 0.961 . S
C3903 H3918 0.961 . S
C3903 H3919 0.961 . S
C3904 C3905 1.370 . S
C3904 C3906 1.363 . S
C3904 H3920 0.931 . S
C3905 C3904 1.370 . S
C3905 C3909 1.408 . S
C3906 C3904 1.363 . S
C3906 C3907 1.370 . S
C3906 C3910 1.524 . S
C3907 C3899 1.503 . S
C3907 C3906 1.370 . S
C3907 C3908 1.403 . S
C3908 C3907 1.403 . S
C3908 C3909 1.404 . S
C3908 C3911 1.539 . S
C3909 C3905 1.408 . S
C3909 C3908 1.404 . S
C3909 H3921 0.930 . S
C3910 C3906 1.524 . S
C3910 H3922 0.956 . S
C3910 H3923 0.961 . S
C3910 H3924 0.961 . S
C3911 C3908 1.539 . S
C3911 H3925 0.958 . S
C3911 H3926 0.961 . S
C3911 H3927 0.960 . S
H3912 C3896 0.931 . S
H3913 C3901 0.929 . S
H3914 C3902 0.960 . S
H3915 C3902 0.962 . S
H3916 C3902 0.960 . S
H3917 C3903 0.961 . S
H3918 C3903 0.961 . S
H3919 C3903 0.961 . S
H3920 C3904 0.931 . S
H3921 C3909 0.930 . S
H3922 C3910 0.956 . S
H3923 C3910 0.961 . S
H3924 C3910 0.961 . S
H3925 C3911 0.958 . S
H3926 C3911 0.961 . S
H3927 C3911 0.960 . S
C3928 C3929 1.391 . S
C3928 C3930 1.394 . S
C3928 H3944 0.931 . S
C3929 C3928 1.391 . S
C3929 C3933 1.376 . S
C3930 C3928 1.394 . S
C3930 C3931 1.369 1_554 S
C3930 C3934 1.531 . S
C3931 C3930 1.369 1_556 S
C3931 C3932 1.410 . S
C3931 C3939 1.503 . S
C3932 C3931 1.410 . S
C3932 C3933 1.392 1_556 S
C3932 C3935 1.511 . S
C3933 C3929 1.376 . S
C3933 C3932 1.392 1_554 S
C3933 H3945 0.929 . S
C3934 C3930 1.531 . S
C3934 H3946 0.960 1_554 S
C3934 H3947 0.962 . S
C3934 H3948 0.960 . S
C3935 C3932 1.511 . S
C3935 H3949 0.961 . S
C3935 H3950 0.961 . S
C3935 H3951 0.961 . S
C3936 C3937 1.345 1_554 S
C3936 C3938 1.370 . S
C3936 H3952 0.950 . S
C3937 C3936 1.345 1_556 S
C3937 C3941 1.408 . S
C3938 C3936 1.370 . S
C3938 C3939 1.370 1_554 S
C3938 C3942 1.524 . S
C3939 C3931 1.503 . S
C3939 C3938 1.370 1_556 S
C3939 C3940 1.403 . S
C3940 C3939 1.403 . S
C3940 C3941 1.404 . S
C3940 C3943 1.539 . S
C3941 C3937 1.408 . S
C3941 C3940 1.404 . S
C3941 H3953 0.930 . S
C3942 C3938 1.524 . S
C3942 H3954 0.956 . S
C3942 H3955 0.961 . S
C3942 H3956 0.961 . S
C3943 C3940 1.539 . S
C3943 H3957 0.958 . S
C3943 H3958 0.961 . S
C3943 H3959 0.960 . S
H3944 C3928 0.931 . S
H3945 C3933 0.929 . S
H3946 C3934 0.960 1_556 S
H3947 C3934 0.962 . S
H3948 C3934 0.960 . S
H3949 C3935 0.961 . S
H3950 C3935 0.961 . S
H3951 C3935 0.961 . S
H3952 C3936 0.950 . S
H3953 C3941 0.930 . S
H3954 C3942 0.956 . S
H3955 C3942 0.961 . S
H3956 C3942 0.961 . S
H3957 C3943 0.958 . S
H3958 C3943 0.961 . S
H3959 C3943 0.960 . S
C3960 C3961 1.391 . S
C3960 C3962 1.394 . S
C3960 H3976 0.931 . S
C3961 C3960 1.391 . S
C3961 C3965 1.376 . S
C3962 C3960 1.394 . S
C3962 C3963 1.369 . S
C3962 C3966 1.531 . S
C3963 C3962 1.369 . S
C3963 C3964 1.410 . S
C3963 C3971 1.503 . S
C3964 C3963 1.410 . S
C3964 C3965 1.392 . S
C3964 C3967 1.511 . S
C3965 C3961 1.376 . S
C3965 C3964 1.392 . S
C3965 H3977 0.929 . S
C3966 C3962 1.531 . S
C3966 H3978 0.960 . S
C3966 H3979 0.962 . S
C3966 H3980 0.960 . S
C3967 C3964 1.511 . S
C3967 H3981 0.961 . S
C3967 H3982 0.961 . S
C3967 H3983 0.961 . S
C3968 C3969 1.370 . S
C3968 C3970 1.363 . S
C3968 H3984 0.931 . S
C3969 C3968 1.370 . S
C3969 C3973 1.408 . S
C3970 C3968 1.363 . S
C3970 C3971 1.370 . S
C3970 C3974 1.524 . S
C3971 C3963 1.503 . S
C3971 C3970 1.370 . S
C3971 C3972 1.403 . S
C3972 C3971 1.403 . S
C3972 C3973 1.404 . S
C3972 C3975 1.539 . S
C3973 C3969 1.408 . S
C3973 C3972 1.404 . S
C3973 H3985 0.930 . S
C3974 C3970 1.524 . S
C3974 H3986 0.956 . S
C3974 H3987 0.961 . S
C3974 H3988 0.961 . S
C3975 C3972 1.539 . S
C3975 H3989 0.958 . S
C3975 H3990 0.961 . S
C3975 H3991 0.960 . S
H3976 C3960 0.931 . S
H3977 C3965 0.929 . S
H3978 C3966 0.960 . S
H3979 C3966 0.962 . S
H3980 C3966 0.960 . S
H3981 C3967 0.961 . S
H3982 C3967 0.961 . S
H3983 C3967 0.961 . S
H3984 C3968 0.931 . S
H3985 C3973 0.930 . S
H3986 C3974 0.956 . S
H3987 C3974 0.961 . S
H3988 C3974 0.961 . S
H3989 C3975 0.958 . S
H3990 C3975 0.961 . S
H3991 C3975 0.960 . S
C3992 C3993 1.391 . S
C3992 C3994 1.394 . S
C3992 H4008 0.931 . S
C3993 C3992 1.391 . S
C3993 C3997 1.376 . S
C3994 C3992 1.394 . S
C3994 C3995 1.369 . S
C3994 C3998 1.531 . S
C3995 C3994 1.369 . S
C3995 C3996 1.410 . S
C3995 C4003 1.503 . S
C3996 C3995 1.410 . S
C3996 C3997 1.392 . S
C3996 C3999 1.511 . S
C3997 C3993 1.376 . S
C3997 C3996 1.392 . S
C3997 H4009 0.929 . S
C3998 C3994 1.531 . S
C3998 H4010 0.960 . S
C3998 H4011 0.962 . S
C3998 H4012 0.960 . S
C3999 C3996 1.511 . S
C3999 H4013 0.961 . S
C3999 H4014 0.961 . S
C3999 H4015 0.961 . S
C4000 C4001 1.370 . S
C4000 C4002 1.363 . S
C4000 H4016 0.931 . S
C4001 C4000 1.370 . S
C4001 C4005 1.408 . S
C4002 C4000 1.363 . S
C4002 C4003 1.370 . S
C4002 C4006 1.524 . S
C4003 C3995 1.503 . S
C4003 C4002 1.370 . S
C4003 C4004 1.403 . S
C4004 C4003 1.403 . S
C4004 C4005 1.404 . S
C4004 C4007 1.539 . S
C4005 C4001 1.408 . S
C4005 C4004 1.404 . S
C4005 H4017 0.930 . S
C4006 C4002 1.524 . S
C4006 H4018 0.956 . S
C4006 H4019 0.961 . S
C4006 H4020 0.961 . S
C4007 C4004 1.539 . S
C4007 H4021 0.958 . S
C4007 H4022 0.961 . S
C4007 H4023 0.960 . S
H4008 C3992 0.931 . S
H4009 C3997 0.929 . S
H4010 C3998 0.960 . S
H4011 C3998 0.962 . S
H4012 C3998 0.960 . S
H4013 C3999 0.961 . S
H4014 C3999 0.961 . S
H4015 C3999 0.961 . S
H4016 C4000 0.931 . S
H4017 C4005 0.930 . S
H4018 C4006 0.956 . S
H4019 C4006 0.961 . S
H4020 C4006 0.961 . S
H4021 C4007 0.958 . S
H4022 C4007 0.961 . S
H4023 C4007 0.960 . S
C953 C101 2.261 . S
C961 C314 2.269 1_556 S
C985 C57 2.125 . S
C993 C371 2.159 . S
C1017 C73 1.236 . S
C1025 C394 1.321 . S
C1057 C448 1.375 . S
C1049 C78 1.307 . S
C1081 C21 1.310 . S
C1089 C488 1.305 . S
C1121 C519 0.501 . S
C1113 C31 0.489 . S
C1153 C571 1.345 . S
C1145 C49 1.276 . S
C1177 C0 1.688 . S
C1185 C594 1.723 . S
C1217 C331 2.462 . S
C1209 C218 2.471 . S
C1241 C229 0.591 . S
C1249 C368 0.502 . S
C1281 C411 1.283 . S
C1273 C257 1.287 . S
C1313 C434 1.403 . S
C1305 C164 1.364 . S
C1337 C216 1.772 . S
C1345 C474 1.891 . S
C1377 C522 1.427 . S
C1369 C231 1.461 . S
C1409 C568 0.392 . S
C1401 C255 0.494 . S
C1441 C611 2.028 . S
C1433 C166 2.045 . S
C1473 C328 1.441 1_565 S
C1465 C143 1.406 . S
C1497 C265 1.960 . S
C1505 C651 1.998 . S
C1537 C683 2.545 . S
C1529 C299 2.554 . S
C1569 C714 0.676 1_655 S
C1561 C291 0.719 . S
C1593 C104 1.287 . S
C1601 C608 1.266 . S
C1625 C117 1.463 . S
C1633 C408 1.498 . S
C1657 C304 2.182 . S
C1665 C771 2.234 . S
C1697 C794 0.446 . S
C1689 C278 0.398 . S
C1729 C323 2.241 . S
C1721 C60 2.233 . S
C1761 C802 2.071 . S
C1753 C96 2.074 . S
C1785 C88 1.217 . S
C1793 C403 1.204 . S
C1817 C65 1.282 . S
C1825 C759 1.296 . S
C1857 C479 1.262 . S
C1849 C10 1.339 . S
C1881 C44 0.566 . S
C1889 C688 0.485 . S
C1921 C562 1.225 1_556 S
C1913 C34 1.054 . S
C1953 C843 1.683 . S
C1945 C13 1.755 . S
C1985 C322 2.405 . S
C1977 C138 2.375 . S
C2017 C799 0.472 . S
C2009 C296 0.515 . S
C2041 C112 1.224 . S
C2049 C402 1.217 . S
C2073 C270 1.299 . S
C2081 C763 1.296 . S
C2105 C140 1.792 1_545 S
C2113 C483 1.814 . S
C2145 C691 1.402 . S
C2137 C294 1.374 . S
C2169 C114 0.329 . S
C2177 C559 0.347 . S
C2201 C268 1.978 . S
C2209 C842 1.968 . S
C2233 C169 1.444 . S
C2241 C319 1.399 . S
C2265 C161 1.908 . S
C2273 C642 1.929 . S
C2297 C234 2.505 . S
C2305 C514 2.491 . S
C2329 C226 0.491 . S
C2337 C723 0.512 . S
C2369 C839 1.308 . S
C2361 C247 1.399 . S
C2393 C195 1.523 . S
C2401 C399 1.465 . S
C2433 C442 2.148 . S
C2425 C239 2.144 . S
C2465 C363 0.474 . S
C2457 C187 0.437 . S
C2489 C75 2.260 . S
C2497 C874 2.272 . S
C2529 C811 2.162 . S
C2521 C83 2.106 . S
C2553 C99 1.317 . S
C2561 C914 1.336 . S
C2585 C52 1.316 . S
C2593 C768 1.372 . S
C2617 C47 1.239 . S
C2625 C648 1.322 . S
C2657 C679 0.527 . S
C2649 C5 0.599 . S
C2689 C731 1.346 . S
C2681 C23 1.337 . S
C2721 C834 1.726 . S
C2713 C26 1.680 . S
C2753 C891 2.458 . S
C2745 C244 2.467 . S
C2777 C177 0.619 . S
C2785 C808 0.486 . S
C2817 C931 1.294 . S
C2809 C192 1.303 . S
C2849 C754 1.403 . S
C2841 C203 1.366 . S
C2881 C634 1.893 . S
C2873 C242 1.799 . S
C2905 C179 1.461 . S
C2913 C682 1.427 . S
C2945 C728 0.441 . S
C2937 C190 0.376 . S
C2969 C205 2.051 . S
C2977 C851 2.015 . S
C3009 C888 1.428 . S
C3001 C286 1.434 . S
C3033 C122 1.976 . S
C3041 C491 1.997 . S
C3073 C523 2.552 . S
C3065 C130 2.539 . S
C3105 C554 0.676 . S
C3097 C148 0.635 . S
C3137 C848 1.300 . S
C3129 C273 1.198 . S
C3161 C260 1.494 . S
C3169 C928 1.488 . S
C3201 C451 2.231 . S
C3193 C135 2.188 . S
C3233 C354 0.474 . S
C3225 C109 0.483 . S
C3257 C86 2.225 . S
C3265 C883 2.235 . S
C3297 C362 2.076 . S
C3289 C70 2.061 . S
C3321 C62 1.217 . S
C3329 C923 1.202 . S
C3353 C91 1.319 . S
C3361 C439 1.312 . S
C3385 C36 1.334 . S
C3393 C639 1.267 . S
C3425 C528 0.495 . S
C3417 C18 0.582 . S
C3449 C8 1.167 . S
C3457 C722 1.211 . S
C3481 C39 1.748 . S
C3489 C603 1.694 . S
C3521 C882 2.404 . S
C3513 C307 2.342 . S
C3545 C153 0.515 . S
C3553 C359 0.470 . S
C3585 C922 1.219 . S
C3577 C281 1.220 . S
C3609 C127 1.307 . S
C3617 C443 1.301 . S
C3641 C309 1.791 . S
C3649 C643 1.817 . S
C3681 C531 1.393 . S
C3673 C151 1.403 . S
C3705 C283 0.253 . S
C3713 C719 0.380 . S
C3745 C602 1.967 . S
C3737 C125 1.976 . S
C3777 C879 1.428 . S
C3769 C221 1.456 . S
C3809 C482 1.926 1_655 S
C3801 C200 1.912 . S
C3833 C208 2.506 . S
C3841 C674 2.491 . S
C3873 C563 0.512 . S
C3865 C174 0.505 . S
C3897 C182 1.391 . S
C3905 C599 1.326 . S
C3929 C156 1.529 . S
C3937 C919 1.491 . S
C3969 C762 2.155 . S
C3961 C213 2.128 1_565 S
C4001 C803 0.480 . S
C3993 C252 0.412 . S
