# Generated by pormake.
# Topology anh, (6,3)-cn, num edge types: 1
# Building blocks:
#     Node 0, Type 0, BuildingBlock: PAMTUU_clean_sbu_0, # of connection points: 6
#     Node 1, Type 0, BuildingBlock: PAMTUU_clean_sbu_0, # of connection points: 6
#     Node 2, Type 0, BuildingBlock: PAMTUU_clean_sbu_0, # of connection points: 6
#     Node 3, Type 1, BuildingBlock: OLANEW_clean_sbu_2, # of connection points: 3
#     Node 4, Type 1, BuildingBlock: OLANEW_clean_sbu_2, # of connection points: 3
#     Node 5, Type 1, BuildingBlock: OLANEW_clean_sbu_2, # of connection points: 3
#     Node 6, Type 1, BuildingBlock: OLANEW_clean_sbu_2, # of connection points: 3
#     Node 7, Type 1, BuildingBlock: OLANEW_clean_sbu_2, # of connection points: 3
#     Node 8, Type 1, BuildingBlock: OLANEW_clean_sbu_2, # of connection points: 3
#     Edge 9, Type (0, 1), BuildingBlock: KIFKEQ_clean_linker_1, # of connection points: 2
#     Edge 10, Type (0, 1), BuildingBlock: KIFKEQ_clean_linker_1, # of connection points: 2
#     Edge 11, Type (0, 1), BuildingBlock: KIFKEQ_clean_linker_1, # of connection points: 2
#     Edge 12, Type (0, 1), BuildingBlock: KIFKEQ_clean_linker_1, # of connection points: 2
#     Edge 13, Type (0, 1), BuildingBlock: KIFKEQ_clean_linker_1, # of connection points: 2
#     Edge 14, Type (0, 1), BuildingBlock: KIFKEQ_clean_linker_1, # of connection points: 2
#     Edge 15, Type (0, 1), BuildingBlock: KIFKEQ_clean_linker_1, # of connection points: 2
#     Edge 16, Type (0, 1), BuildingBlock: KIFKEQ_clean_linker_1, # of connection points: 2
#     Edge 17, Type (0, 1), BuildingBlock: KIFKEQ_clean_linker_1, # of connection points: 2
#     Edge 18, Type (0, 1), BuildingBlock: KIFKEQ_clean_linker_1, # of connection points: 2
#     Edge 19, Type (0, 1), BuildingBlock: KIFKEQ_clean_linker_1, # of connection points: 2
#     Edge 20, Type (0, 1), BuildingBlock: KIFKEQ_clean_linker_1, # of connection points: 2
#     Edge 21, Type (0, 1), BuildingBlock: KIFKEQ_clean_linker_1, # of connection points: 2
#     Edge 22, Type (0, 1), BuildingBlock: KIFKEQ_clean_linker_1, # of connection points: 2
#     Edge 23, Type (0, 1), BuildingBlock: KIFKEQ_clean_linker_1, # of connection points: 2
#     Edge 24, Type (0, 1), BuildingBlock: KIFKEQ_clean_linker_1, # of connection points: 2
#     Edge 25, Type (0, 1), BuildingBlock: KIFKEQ_clean_linker_1, # of connection points: 2
#     Edge 26, Type (0, 1), BuildingBlock: KIFKEQ_clean_linker_1, # of connection points: 2
# Relax obj value: 0.224
# Max RMSD: 0.140
# Mean RMSD: 0.111
data_MOF--net-anh--node1-PAMTUU_clean_sbu_0--node2-OLANEW_clean_sbu_2--edge1-KIFKEQ_clean_linker_1
_symmetry_space_group_name_H-M    P1
_symmetry_Int_Tables_number       1
_symmetry_cell_setting            triclinic
loop_
_symmetry_equiv_pos_as_xyz
'x, y, z'
_cell_length_a     36.632034
_cell_length_b     36.729895
_cell_length_c     50.91667
_cell_angle_alpha  91.939555
_cell_angle_beta   92.402409
_cell_angle_gamma 120.07927
loop_
_atom_site_label
_atom_site_type_symbol
_atom_site_fract_x
_atom_site_fract_y
_atom_site_fract_z
_atom_type_partial_charge
Tb0 Tb 1.01886 0.56604 0.15721 0.0
Tb1 Tb 0.07132 0.51581 0.15921 0.0
C2 C 0.04639 0.54059 0.1071 0.0
C3 C 0.93329 0.59047 0.16294 0.0
C4 C 0.85285 0.5706 0.17836 0.0
C5 C 0.88586 0.61279 0.17911 0.0
C6 C 0.92574 0.62261 0.1714 0.0
C7 C 0.90083 0.54821 0.16293 0.0
C8 C 0.86079 0.53836 0.17041 0.0
C9 C 0.97528 0.60145 0.15461 0.0
O10 O 0.97035 0.49881 0.15255 0.0
O11 O 1.0078 0.46744 0.16698 0.0
O12 O 0.07577 0.54115 0.19928 0.0
O13 O 1.01533 0.54548 0.19668 0.0
O14 O 0.10847 0.49772 0.13841 0.0
O15 O 0.09266 0.47913 0.17798 0.0
O16 O 0.12005 0.58201 0.15772 0.0
O17 O 0.08347 0.61536 0.16922 0.0
O18 O 0.04909 0.57286 0.12057 0.0
O19 O 0.04234 0.50817 0.11947 0.0
C20 C 0.9718 0.46587 0.16086 0.0
O21 O 1.0038 0.6097 0.17362 0.0
O22 O 0.97621 0.57747 0.13544 0.0
C23 C 0.04597 0.54479 0.21043 0.0
C24 C 0.16171 0.50024 0.16627 0.0
C25 C 0.25047 0.54488 0.17228 0.0
C26 C 0.22891 0.50732 0.15615 0.0
C27 C 0.18479 0.48514 0.15318 0.0
C28 C 0.18307 0.53662 0.1834 0.0
C29 C 0.22716 0.55864 0.18652 0.0
C30 C 0.11653 0.48205 0.15894 0.0
C31 C 0.1192 0.61609 0.16556 0.0
H32 H 0.88045 0.6383 0.18481 0.0
H33 H 0.95055 0.65535 0.17172 0.0
H34 H 0.90627 0.52288 0.15686 0.0
H35 H 0.83596 0.50561 0.1698 0.0
H36 H 0.24625 0.49599 0.14508 0.0
H37 H 0.16881 0.45739 0.13969 0.0
H38 H 0.16577 0.5492 0.19333 0.0
H39 H 0.24305 0.58775 0.19881 0.0
Tb40 Tb 0.50601 0.96959 0.48976 0.0
Tb41 Tb 0.60841 0.02242 0.48862 0.0
C42 C 0.55106 0.99345 0.43785 0.0
C43 C 0.3951 0.88452 0.49681 0.0
C44 C 0.33335 0.8046 0.51151 0.0
C45 C 0.33563 0.81462 0.48502 0.0
C46 C 0.36607 0.85422 0.47778 0.0
C47 C 0.39322 0.87453 0.52335 0.0
C48 C 0.36236 0.8349 0.53065 0.0
C49 C 0.4266 0.92612 0.48838 0.0
O50 O 0.52399 0.9209 0.48739 0.0
O51 O 0.59575 0.95999 0.49814 0.0
O52 O 0.59312 0.03134 0.52821 0.0
O53 O 0.53057 0.96933 0.52915 0.0
O54 O 0.66055 0.06105 0.46732 0.0
O55 O 0.6692 0.04379 0.50626 0.0
O56 O 0.58895 0.06968 0.48513 0.0
O57 O 0.52231 0.03434 0.50024 0.0
O58 O 0.52333 0.99649 0.45171 0.0
O59 O 0.58171 0.99062 0.44992 0.0
C60 C 0.56033 0.92353 0.49454 0.0
O61 O 0.44959 0.95542 0.50679 0.0
O62 O 0.44889 0.92575 0.46914 0.0
C63 C 0.56365 1.0019 0.54135 0.0
C64 C 0.71341 0.11413 0.49566 0.0
C65 C 0.7524 0.20208 0.50431 0.0
C66 C 0.76466 0.18436 0.48404 0.0
C67 C 0.74535 0.14066 0.47979 0.0
C68 C 0.70249 0.13182 0.5167 0.0
C69 C 0.72213 0.17552 0.52112 0.0
C70 C 0.68706 0.06912 0.48755 0.0
C71 C 0.55568 0.06947 0.49418 0.0
H72 H 0.31314 0.79215 0.46991 0.0
H73 H 0.36677 0.86131 0.45725 0.0
H74 H 0.41536 0.89728 0.53847 0.0
H75 H 0.36122 0.8279 0.5512 0.0
H76 H 0.78816 0.20434 0.47092 0.0
H77 H 0.75379 0.1276 0.4633 0.0
H78 H 0.6773 0.11196 0.52891 0.0
H79 H 0.71191 0.18849 0.53669 0.0
Tb80 Tb 0.55205 0.50814 0.83085 0.0
Tb81 Tb 0.60233 0.60894 0.82333 0.0
C82 C 0.5693 0.54427 0.77543 0.0
C83 C 0.52591 0.40418 0.85307 0.0
C84 C 0.55042 0.35231 0.87849 0.0
C85 C 0.51033 0.33491 0.86493 0.0
C86 C 0.49822 0.3607 0.85234 0.0
C87 C 0.56517 0.42208 0.86746 0.0
C88 C 0.57735 0.39631 0.88012 0.0
C89 C 0.51419 0.43054 0.83819 0.0
O90 O 0.61738 0.52332 0.82763 0.0
O91 O 0.65242 0.59558 0.83475 0.0
O92 O 0.5812 0.59961 0.86293 0.0
O93 O 0.58434 0.53999 0.86859 0.0
O94 O 0.61327 0.65869 0.7997 0.0
O95 O 0.64763 0.67029 0.83754 0.0
O96 O 0.53542 0.59094 0.81892 0.0
O97 O 0.50515 0.52668 0.83719 0.0
O98 O 0.54005 0.51732 0.78992 0.0
O99 O 0.60286 0.57747 0.78662 0.0
C100 C 0.65243 0.55972 0.83289 0.0
O101 O 0.50993 0.45819 0.85237 0.0
O102 O 0.53581 0.44675 0.81776 0.0
C103 C 0.58442 0.57347 0.8784 0.0
C104 C 0.62535 0.71783 0.82563 0.0
C105 C 0.59279 0.7712 0.83621 0.0
C106 C 0.58786 0.7408 0.85385 0.0
C107 C 0.60369 0.71398 0.84848 0.0
C108 C 0.63139 0.74904 0.80845 0.0
C109 C 0.61512 0.77548 0.81365 0.0
C110 C 0.63787 0.68694 0.8182 0.0
C111 C 0.50296 0.559 0.82882 0.0
H112 H 0.48914 0.30112 0.86278 0.0
H113 H 0.46778 0.34654 0.84134 0.0
H114 H 0.58679 0.45583 0.86832 0.0
H115 H 0.6083 0.41064 0.89047 0.0
H116 H 0.57054 0.73684 0.87127 0.0
H117 H 0.59805 0.68958 0.86181 0.0
H118 H 0.64767 0.75217 0.79064 0.0
H119 H 0.61963 0.79905 0.7999 0.0
O120 O 0.60026 0.08478 0.23972 0.0
Cd121 Cd 0.62304 0.11683 0.19653 0.0
O122 O 0.54476 0.02361 0.22542 0.0
Cd123 Cd 0.486 0.96047 0.22634 0.0
O124 O 0.42622 0.89802 0.21923 0.0
C125 C 0.39501 0.89456 0.20496 0.0
O126 O 0.39855 0.92853 0.19483 0.0
C127 C 0.56916 0.04877 0.2445 0.0
C128 C 0.70059 0.19386 0.1932 0.0
O129 O 0.66642 0.19366 0.19807 0.0
O130 O 0.69872 0.15807 0.19102 0.0
O131 O 0.55705 0.45766 0.57138 0.0
Cd132 Cd 0.56322 0.42699 0.52832 0.0
O133 O 0.55734 0.51535 0.55986 0.0
Cd134 Cd 0.55418 0.57504 0.55948 0.0
O135 O 0.54836 0.63016 0.54667 0.0
C136 C 0.57372 0.66817 0.55533 0.0
O137 O 0.60426 0.67548 0.57294 0.0
C138 C 0.55573 0.49101 0.57778 0.0
C139 C 0.56081 0.34811 0.52567 0.0
O140 O 0.59558 0.38287 0.53109 0.0
O141 O 0.52702 0.35022 0.5225 0.0
O142 O 0.12361 0.55855 0.90623 0.0
Cd143 Cd 0.15396 0.56305 0.8626 0.0
O144 O 0.06161 0.55116 0.8935 0.0
Cd145 Cd 0.99849 0.54685 0.89534 0.0
O146 O 0.93598 0.5436 0.88828 0.0
C147 C 0.93182 0.56759 0.87235 0.0
O148 O 0.9651 0.59454 0.86045 0.0
C149 C 0.08797 0.55417 0.91195 0.0
C150 C 0.2311 0.5626 0.85895 0.0
O151 O 0.23098 0.59704 0.8637 0.0
O152 O 0.1952 0.52833 0.85694 0.0
O153 O 1.00386 0.51608 0.41705 0.0
Cd154 Cd 0.9862 0.50001 0.46266 0.0
O155 O 0.98992 0.56785 0.41444 0.0
Cd156 Cd 0.96859 0.56077 0.4542 0.0
O157 O 0.93249 0.52155 0.48508 0.0
C158 C 0.89269 0.50593 0.48342 0.0
O159 O 0.87583 0.51881 0.46535 0.0
C160 C 1.00244 0.54438 0.40403 0.0
C161 C 0.0574 0.55336 0.49545 0.0
O162 O 1.02909 0.56305 0.48967 0.0
O163 O 0.05124 0.51755 0.48648 0.0
O164 O 0.54762 0.04939 0.74861 0.0
Cd165 Cd 0.53394 0.06079 0.79401 0.0
O166 O 0.61377 0.06301 0.7523 0.0
Cd167 Cd 0.62529 0.08607 0.79342 0.0
O168 O 0.62636 0.1232 0.82792 0.0
C169 C 0.60677 0.14262 0.82264 0.0
O170 O 0.59178 0.14011 0.79834 0.0
C171 C 0.57959 0.05123 0.73835 0.0
C172 C 0.52881 0.99658 0.82355 0.0
O173 O 0.56338 0.03183 0.82333 0.0
O174 O 0.49605 0.99221 0.81046 0.0
O175 O 0.55482 0.60457 0.0854 0.0
Cd176 Cd 0.54017 0.60251 0.13211 0.0
O177 O 0.62136 0.65629 0.0864 0.0
Cd178 Cd 0.61837 0.67805 0.12609 0.0
O179 O 0.5772 0.68252 0.15393 0.0
C180 C 0.55692 0.70015 0.14599 0.0
O181 O 0.567 0.71967 0.124 0.0
C182 C 0.58866 0.62639 0.07381 0.0
C183 C 0.59316 0.58204 0.16086 0.0
O184 O 0.55835 0.55292 0.14935 0.0
O185 O 0.60187 0.62025 0.1595 0.0
H186 H 0.30884 0.58263 0.21435 0.0
H187 H 0.29623 0.5688 0.12936 0.0
H188 H 0.38568 0.62892 0.21289 0.0
H189 H 0.37226 0.61464 0.1279 0.0
H190 H 0.50076 0.72419 0.1296 0.0
H191 H 0.42694 0.69186 0.1398 0.0
H192 H 0.44642 0.6181 0.197 0.0
H193 H 0.52045 0.65038 0.18691 0.0
C194 C 0.32254 0.58957 0.19543 0.0
C195 C 0.29684 0.57189 0.17197 0.0
C196 C 0.36629 0.61594 0.19461 0.0
C197 C 0.38469 0.62566 0.17029 0.0
C198 C 0.35881 0.60821 0.14691 0.0
C199 C 0.3154 0.58151 0.14774 0.0
C200 C 0.4897 0.70192 0.14485 0.0
C201 C 0.51623 0.68919 0.15704 0.0
C202 C 0.44739 0.68333 0.1506 0.0
C203 C 0.43094 0.65195 0.16878 0.0
C204 C 0.45836 0.64221 0.18287 0.0
C205 C 0.50072 0.66065 0.17703 0.0
H206 H 0.75256 0.24973 0.46496 0.0
H207 H 0.78675 0.25703 0.54794 0.0
H208 H 0.7798 0.3254 0.46696 0.0
H209 H 0.81437 0.33351 0.55002 0.0
H210 H 0.91781 0.46721 0.51892 0.0
H211 H 0.87747 0.39366 0.52948 0.0
H212 H 0.76673 0.38123 0.48724 0.0
H213 H 0.80698 0.45473 0.47647 0.0
C214 C 0.7659 0.26767 0.48365 0.0
C215 C 0.76819 0.24785 0.50621 0.0
C216 C 0.7809 0.31084 0.48491 0.0
C217 C 0.79885 0.33522 0.50871 0.0
C218 C 0.80056 0.31533 0.53146 0.0
C219 C 0.78489 0.2718 0.53027 0.0
C220 C 0.88452 0.44921 0.51256 0.0
C221 C 0.86587 0.46645 0.49625 0.0
C222 C 0.86138 0.4071 0.51873 0.0
C223 C 0.81929 0.38163 0.50866 0.0
C224 C 0.79941 0.40011 0.49482 0.0
C225 C 0.82246 0.44224 0.48875 0.0
H226 H 0.54245 0.78344 0.80156 0.0
H227 H 0.60011 0.81841 0.88087 0.0
H228 H 0.51747 0.83328 0.80655 0.0
H229 H 0.57477 0.86854 0.88606 0.0
H230 H 0.59203 0.99709 0.85405 0.0
H231 H 0.59847 0.93618 0.864 0.0
H232 H 0.47137 0.85335 0.8303 0.0
H233 H 0.46495 0.9144 0.82005 0.0
C234 C 0.54921 0.80148 0.8202 0.0
C235 C 0.57369 0.79775 0.84068 0.0
C236 C 0.53443 0.82957 0.82322 0.0
C237 C 0.54415 0.85475 0.84673 0.0
C238 C 0.56694 0.84953 0.86773 0.0
C239 C 0.58136 0.82095 0.86479 0.0
C240 C 0.565 0.9659 0.84943 0.0
C241 C 0.52838 0.96049 0.83568 0.0
C242 C 0.56859 0.93097 0.85533 0.0
C243 C 0.53566 0.8901 0.84749 0.0
C244 C 0.49744 0.88461 0.83618 0.0
C245 C 0.49377 0.91956 0.83038 0.0
H246 H 0.82854 0.60168 0.21939 0.0
H247 H 0.77983 0.51829 0.14905 0.0
H248 H 0.75956 0.5957 0.22345 0.0
H249 H 0.71147 0.51309 0.15258 0.0
H250 H 0.58944 0.50565 0.16181 0.0
H251 H 0.64764 0.49367 0.17392 0.0
H252 H 0.72655 0.62592 0.19815 0.0
H253 H 0.66846 0.63747 0.1869 0.0
C254 C 0.80285 0.58159 0.20504 0.0
C255 C 0.8096 0.56094 0.1837 0.0
C256 C 0.7634 0.57817 0.20733 0.0
C257 C 0.73013 0.55445 0.18812 0.0
C258 C 0.73614 0.53127 0.16791 0.0
C259 C 0.77544 0.53438 0.16579 0.0
C260 C 0.6189 0.53187 0.17039 0.0
C261 C 0.62464 0.57265 0.17295 0.0
C262 C 0.6523 0.52505 0.1772 0.0
C263 C 0.69199 0.55892 0.18663 0.0
C264 C 0.69643 0.59897 0.19116 0.0
C265 C 0.66312 0.60571 0.18446 0.0
H266 H 0.28056 0.78892 0.55129 0.0
H267 H 0.30853 0.72734 0.48805 0.0
H268 H 0.21558 0.72284 0.55751 0.0
H269 H 0.24341 0.66191 0.49367 0.0
H270 H 0.12722 0.54601 0.50597 0.0
H271 H 0.1985 0.60314 0.5195 0.0
H272 H 0.15079 0.68885 0.52888 0.0
H273 H 0.07976 0.63184 0.51596 0.0
C274 C 0.27336 0.76098 0.53921 0.0
C275 C 0.29908 0.76329 0.51889 0.0
C276 C 0.23607 0.72326 0.54265 0.0
C277 C 0.22406 0.68728 0.52589 0.0
C278 C 0.25177 0.68887 0.50708 0.0
C279 C 0.28887 0.7265 0.50361 0.0
C280 C 0.1318 0.57679 0.51165 0.0
C281 C 0.09806 0.58469 0.50934 0.0
C282 C 0.17264 0.60952 0.51932 0.0
C283 C 0.18041 0.65066 0.52481 0.0
C284 C 0.14595 0.65752 0.52492 0.0
C285 C 0.10518 0.62485 0.51728 0.0
H286 H 0.62837 0.36171 0.8729 0.0
H287 H 0.50721 0.27826 0.90292 0.0
H288 H 0.64513 0.30571 0.87261 0.0
H289 H 0.52392 0.2217 0.9021 0.0
H290 H 0.53519 0.14468 0.82778 0.0
H291 H 0.52542 0.19332 0.85598 0.0
H292 H 0.65233 0.24493 0.8913 0.0
H293 H 0.66167 0.19482 0.86312 0.0
C294 C 0.60609 0.33206 0.88064 0.0
C295 C 0.56586 0.32396 0.88712 0.0
C296 C 0.61582 0.29989 0.88054 0.0
C297 C 0.58538 0.25916 0.88675 0.0
C298 C 0.54765 0.25275 0.89684 0.0
C299 C 0.53799 0.285 0.8971 0.0
C300 C 0.56055 0.16561 0.84211 0.0
C301 C 0.59932 0.16668 0.84314 0.0
C302 C 0.55482 0.1931 0.85851 0.0
C303 C 0.58814 0.22287 0.87587 0.0
C304 C 0.62614 0.2221 0.87815 0.0
C305 C 0.6315 0.19366 0.86207 0.0
H306 H 0.49323 0.84255 0.49722 0.0
H307 H 0.62961 0.91526 0.50582 0.0
H308 H 0.49523 0.78042 0.51103 0.0
H309 H 0.63164 0.85327 0.51896 0.0
H310 H 0.62185 0.75173 0.57137 0.0
H311 H 0.61741 0.81111 0.55554 0.0
H312 H 0.51321 0.72685 0.50061 0.0
H313 H 0.51712 0.66687 0.51702 0.0
C314 C 0.52369 0.84525 0.50168 0.0
C315 C 0.56124 0.88427 0.50046 0.0
C316 C 0.52485 0.80944 0.50956 0.0
C317 C 0.5636 0.81157 0.51648 0.0
C318 C 0.6011 0.85033 0.51444 0.0
C319 C 0.59994 0.88602 0.50664 0.0
C320 C 0.59789 0.74564 0.55592 0.0
C321 C 0.56993 0.70423 0.54549 0.0
C322 C 0.59554 0.77996 0.54663 0.0
C323 C 0.56521 0.77423 0.5265 0.0
C324 C 0.53683 0.73271 0.51623 0.0
C325 C 0.53918 0.69821 0.52558 0.0
H326 H 0.73247 0.62835 0.8411 0.0
H327 H 0.66511 0.49221 0.83711 0.0
H328 H 0.79861 0.62945 0.85118 0.0
H329 H 0.73158 0.49335 0.84681 0.0
H330 H 0.85419 0.51336 0.89111 0.0
H331 H 0.78683 0.51091 0.88163 0.0
H332 H 0.84813 0.61422 0.83117 0.0
H333 H 0.91509 0.61705 0.84088 0.0
C334 C 0.73169 0.59858 0.84218 0.0
C335 C 0.6932 0.5602 0.8381 0.0
C336 C 0.76982 0.5992 0.84788 0.0
C337 C 0.77075 0.56149 0.84979 0.0
C338 C 0.73222 0.52307 0.84579 0.0
C339 C 0.69404 0.52243 0.83997 0.0
C340 C 0.85328 0.53559 0.87803 0.0
C341 C 0.89031 0.56548 0.86687 0.0
C342 C 0.81454 0.53403 0.87244 0.0
C343 C 0.8118 0.56246 0.85565 0.0
C344 C 0.84889 0.59222 0.8445 0.0
C345 C 0.88744 0.59367 0.84999 0.0
H346 H 0.20038 0.62979 0.16552 0.0
H347 H 0.13102 0.6946 0.17857 0.0
H348 H 0.26686 0.69599 0.17523 0.0
H349 H 0.19728 0.76041 0.18862 0.0
H350 H 0.32271 0.87907 0.17709 0.0
H351 H 0.25755 0.81225 0.16748 0.0
H352 H 0.31062 0.74861 0.21075 0.0
H353 H 0.37652 0.81587 0.22013 0.0
C354 C 0.19919 0.65809 0.1704 0.0
C355 C 0.16006 0.65665 0.17105 0.0
C356 C 0.23744 0.6961 0.17621 0.0
C357 C 0.23772 0.73384 0.18268 0.0
C358 C 0.19855 0.73228 0.18335 0.0
C359 C 0.16037 0.69432 0.17768 0.0
C360 C 0.32067 0.85093 0.18463 0.0
C361 C 0.35509 0.85312 0.19948 0.0
C362 C 0.28301 0.81246 0.17921 0.0
C363 C 0.27844 0.77478 0.1884 0.0
C364 C 0.31298 0.77683 0.20312 0.0
C365 C 0.35075 0.81549 0.20866 0.0
H366 H 0.61878 0.14948 0.48468 0.0
H367 H 0.49422 0.08253 0.5139 0.0
H368 H 0.61994 0.21596 0.4924 0.0
H369 H 0.49587 0.14894 0.52236 0.0
H370 H 0.493 0.27021 0.51031 0.0
H371 H 0.49198 0.20394 0.50228 0.0
H372 H 0.62556 0.26621 0.52529 0.0
H373 H 0.62669 0.33281 0.53255 0.0
C374 C 0.59159 0.14883 0.49275 0.0
C375 C 0.55627 0.11031 0.49846 0.0
C376 C 0.5924 0.18717 0.49744 0.0
C377 C 0.55798 0.18826 0.50805 0.0
C378 C 0.52274 0.14966 0.51377 0.0
C379 C 0.52188 0.11136 0.50903 0.0
C380 C 0.52216 0.2698 0.51377 0.0
C381 C 0.55991 0.30705 0.52213 0.0
C382 C 0.52156 0.23157 0.50927 0.0
C383 C 0.55868 0.22926 0.51308 0.0
C384 C 0.5964 0.26656 0.52169 0.0
C385 C 0.597 0.30485 0.5261 0.0
H386 H 0.43091 0.49955 0.84978 0.0
H387 H 0.48415 0.6206 0.8159 0.0
H388 H 0.36692 0.50134 0.85734 0.0
H389 H 0.41906 0.62182 0.8228 0.0
H390 H 0.31269 0.62963 0.8634 0.0
H391 H 0.37791 0.62931 0.85566 0.0
H392 H 0.30536 0.49506 0.83631 0.0
H393 H 0.24058 0.4953 0.84478 0.0
C394 C 0.42891 0.52647 0.84364 0.0
C395 C 0.46297 0.55986 0.83208 0.0
C396 C 0.39182 0.52737 0.84787 0.0
C397 C 0.38731 0.56162 0.84062 0.0
C398 C 0.42134 0.59507 0.82896 0.0
C399 C 0.45865 0.59421 0.82477 0.0
C400 C 0.31069 0.6 0.85763 0.0
C401 C 0.27122 0.56245 0.8549 0.0
C402 C 0.34817 0.59986 0.85294 0.0
C403 C 0.3473 0.56216 0.84532 0.0
C404 C 0.3077 0.52467 0.84256 0.0
C405 C 0.27032 0.5248 0.84733 0.0
H406 H 0.88937 0.44638 0.14908 0.0
H407 H 0.96272 0.3941 0.18155 0.0
H408 H 0.82429 0.38134 0.15671 0.0
H409 H 0.89813 0.32998 0.1898 0.0
H410 H 0.71561 0.27516 0.19802 0.0
H411 H 0.78019 0.3403 0.18992 0.0
H412 H 0.84001 0.26832 0.16969 0.0
H413 H 0.776 0.20358 0.17855 0.0
C414 C 0.89173 0.42113 0.15785 0.0
C415 C 0.93159 0.42574 0.16454 0.0
C416 C 0.85428 0.38379 0.16244 0.0
C417 C 0.85556 0.34997 0.17391 0.0
C418 C 0.8955 0.35472 0.18051 0.0
C419 C 0.9328 0.39186 0.17586 0.0
C420 C 0.74264 0.27326 0.192 0.0
C421 C 0.74049 0.23395 0.1891 0.0
C422 C 0.77969 0.3107 0.18709 0.0
C423 C 0.81571 0.30998 0.17907 0.0
C424 C 0.81342 0.27055 0.17623 0.0
C425 C 0.77648 0.2332 0.18123 0.0
H426 H 0.07859 0.60987 0.07822 0.0
H427 H 1.02101 0.47434 0.07033 0.0
H428 H 0.08575 0.61312 0.03078 0.0
H429 H 1.02745 0.47774 0.0225 0.0
H430 H 1.01152 0.50894 0.93394 0.0
H431 H 0.99876 0.50445 0.98111 0.0
H432 H 0.13103 0.59306 1.00036 0.0
H433 H 0.14394 0.59685 0.95361 0.0
C434 C 0.0671 0.5807 0.06634 0.0
C435 C 0.04936 0.54183 0.0781 0.0
C436 C 0.07129 0.58263 0.03917 0.0
C437 C 0.05707 0.5457 0.02297 0.0
C438 C 0.03838 0.50666 0.03454 0.0
C439 C 0.03497 0.50477 0.06189 0.0
C440 C 0.03768 0.52778 0.94827 0.0
C441 C 0.07868 0.55344 0.94008 0.0
C442 C 1.03046 0.5249 0.97521 0.0
C443 C 0.06393 0.54843 0.99435 0.0
C444 C 0.10463 0.57475 0.98606 0.0
C445 C 0.11199 0.57685 0.95929 0.0
H446 H 0.51054 0.02592 0.40937 0.0
H447 H 0.58934 0.97028 0.40086 0.0
H448 H 0.51187 0.03657 0.36223 0.0
H449 H 0.58974 0.98016 0.3534 0.0
H450 H 0.53949 0.97097 0.26449 0.0
H451 H 0.53268 0.95445 0.31105 0.0
H452 H 0.57612 0.08481 0.33356 0.0
H453 H 0.5838 0.10147 0.28734 0.0
C454 C 0.52772 1.01547 0.39741 0.0
C455 C 0.54996 0.99735 0.40891 0.0
C456 C 0.52855 1.02171 0.37042 0.0
C457 C 0.55086 1.00916 0.35418 0.0
C458 C 0.57206 0.98986 0.36546 0.0
C459 C 0.572 0.98443 0.39262 0.0
C460 C 0.54706 0.99592 0.27938 0.0
C461 C 0.5619 0.03746 0.27226 0.0
C462 C 0.54353 0.98655 0.30599 0.0
C463 C 0.55381 1.01836 0.32588 0.0
C464 C 0.56773 0.05964 0.31865 0.0
C465 C 0.57221 0.06916 0.2922 0.0
H466 H 0.50424 0.47929 0.74481 0.0
H467 H 0.62327 0.59446 0.73959 0.0
H468 H 0.49703 0.46828 0.69691 0.0
H469 H 0.61644 0.58301 0.69179 0.0
H470 H 0.57736 0.5672 0.60396 0.0
H471 H 0.57728 0.58111 0.65134 0.0
H472 H 0.52938 0.44927 0.66311 0.0
H473 H 0.52838 0.43533 0.6161 0.0
C474 C 0.52892 0.50226 0.73349 0.0
C475 C 0.56447 0.53761 0.74618 0.0
C476 C 0.52485 0.49589 0.70597 0.0
C477 C 0.55621 0.52469 0.69036 0.0
C478 C 0.59139 0.56043 0.70306 0.0
C479 C 0.59548 0.56678 0.73057 0.0
C480 C 0.56596 0.5411 0.61658 0.0
C481 C 0.55268 0.50012 0.60609 0.0
C482 C 0.5664 0.54912 0.64383 0.0
C483 C 0.55336 0.51632 0.66117 0.0
C484 C 0.5391 0.47527 0.65047 0.0
C485 C 0.53885 0.46733 0.62341 0.0
H486 H 0.50669 0.95008 0.57517 0.0
H487 H 0.62799 0.06416 0.57341 0.0
H488 H 0.51104 0.95919 0.62306 0.0
H489 H 0.63191 0.07346 0.62123 0.0
H490 H 0.64269 0.05634 0.70889 0.0
H491 H 0.63925 0.04166 0.66148 0.0
H492 H 0.50796 1.00821 0.65574 0.0
H493 H 0.51108 0.02223 0.70308 0.0
C494 C 0.53432 0.97703 0.58497 0.0
C495 C 0.56693 1.00648 0.57045 0.0
C496 C 0.53669 0.98233 0.6124 0.0
C497 C 0.57176 1.01708 0.62589 0.0
C498 C 0.60471 0.0461 0.61141 0.0
C499 C 0.6023 0.04089 0.58398 0.0
C500 C 0.61301 0.0456 0.69755 0.0
C501 C 0.5772 0.04061 0.70978 0.0
C502 C 0.61113 0.03741 0.67038 0.0
C503 C 0.57337 0.02389 0.65489 0.0
C504 C 0.53738 1.01813 0.66719 0.0
C505 C 0.53928 0.02643 0.69432 0.0
H506 H 0.55756 0.62007 0.9051 0.0
H507 H 0.61628 0.54443 0.91659 0.0
H508 H 0.55952 0.63186 0.95278 0.0
H509 H 0.61912 0.55731 0.96447 0.0
H510 H 0.65722 0.64495 0.04551 0.0
H511 H 0.65733 0.63101 0.99802 0.0
H512 H 0.52168 0.57492 0.99055 0.0
H513 H 0.5212 0.58771 0.0379 0.0
C514 C 0.57117 0.60625 0.91781 0.0
C515 C 0.5867 0.58126 0.90718 0.0
C516 C 0.57214 0.6129 0.94503 0.0
C517 C 0.58946 0.59546 0.96209 0.0
C518 C 0.60576 0.57115 0.95157 0.0
C519 C 0.60395 0.56368 0.92429 0.0
C520 C 0.62745 0.62947 0.03372 0.0
C521 C 0.58921 0.61745 0.04537 0.0
C522 C 0.62754 0.62137 1.00667 0.0
C523 C 0.58952 0.60205 0.99084 0.0
C524 C 0.55136 0.59 1.00245 0.0
C525 C 0.55114 0.59721 0.0295 0.0
H526 H 1.0336 0.60038 0.23896 0.0
H527 H 0.0597 0.49894 0.24645 0.0
H528 H 1.02939 0.6053 0.28633 0.0
H529 H 0.052 0.50098 0.29379 0.0
H530 H 0.05914 0.52773 0.38142 0.0
H531 H 0.07594 0.53264 0.3354 0.0
H532 H 0.9846 0.57204 0.31811 0.0
H533 H 0.97063 0.57014 0.36433 0.0
C534 C 0.03821 0.57897 0.25091 0.0
C535 C 0.04677 0.54918 0.23925 0.0
C536 C 0.03535 0.58138 0.27807 0.0
C537 C 0.03946 0.553 0.29413 0.0
C538 C 0.04914 0.52381 0.28232 0.0
C539 C 0.05333 0.52234 0.25516 0.0
C540 C 0.04312 0.53788 0.3677 0.0
C541 C 1.01371 0.54869 0.37638 0.0
C542 C 0.05243 0.54037 0.34124 0.0
C543 C 1.03168 0.55267 0.32272 0.0
C544 C 1.00223 0.5635 0.33165 0.0
C545 C 0.99384 0.56211 0.3582 0.0
loop_
_geom_bond_atom_site_label_1
_geom_bond_atom_site_label_2
_geom_bond_distance
_geom_bond_site_symmetry_2
_ccdc_geom_bond_type
Tb0 C9 2.764 . S
Tb0 O10 2.325 . S
Tb0 O13 2.303 1_655 S
Tb0 O17 2.322 1_655 S
Tb0 O18 2.349 1_655 S
Tb0 O21 2.415 . S
Tb0 O22 2.399 . S
Tb1 O11 2.322 1_455 S
Tb1 O12 2.349 . S
Tb1 O14 2.415 . S
Tb1 O15 2.399 . S
Tb1 O16 2.325 . S
Tb1 O19 2.303 . S
Tb1 C30 2.764 . S
C2 O18 1.261 . S
C2 O19 1.257 . S
C3 C6 1.358 . S
C3 C7 1.332 . S
C3 C9 1.504 . S
C4 C5 1.373 . S
C4 C8 1.308 . S
C5 C4 1.373 . S
C5 C6 1.429 . S
C5 H32 0.932 . S
C6 C3 1.358 . S
C6 C5 1.429 . S
C6 H33 0.930 . S
C7 C3 1.332 . S
C7 C8 1.394 . S
C7 H34 0.932 . S
C8 C4 1.308 . S
C8 C7 1.394 . S
C8 H35 0.929 . S
C9 Tb0 2.764 . S
C9 C3 1.504 . S
C9 O21 1.239 . S
C9 O22 1.263 . S
O10 Tb0 2.325 . S
O10 C20 1.236 . S
O11 Tb1 2.322 1_655 S
O11 C20 1.257 . S
O12 Tb1 2.349 . S
O12 C23 1.261 . S
O13 Tb0 2.303 1_455 S
O13 C23 1.257 . S
O14 Tb1 2.415 . S
O14 C30 1.239 . S
O15 Tb1 2.399 . S
O15 C30 1.263 . S
O16 Tb1 2.325 . S
O16 C31 1.236 . S
O17 Tb0 2.322 1_455 S
O17 C31 1.257 . S
O18 Tb0 2.349 1_455 S
O18 C2 1.261 . S
O19 Tb1 2.303 . S
O19 C2 1.257 . S
C20 O10 1.236 . S
C20 O11 1.257 . S
O21 Tb0 2.415 . S
O21 C9 1.239 . S
O22 Tb0 2.399 . S
O22 C9 1.263 . S
C23 O12 1.261 . S
C23 O13 1.257 . S
C24 C27 1.358 . S
C24 C28 1.332 . S
C24 C30 1.504 . S
C25 C26 1.373 . S
C25 C29 1.308 . S
C26 C25 1.373 . S
C26 C27 1.429 . S
C26 H36 0.932 . S
C27 C24 1.358 . S
C27 C26 1.429 . S
C27 H37 0.930 . S
C28 C24 1.332 . S
C28 C29 1.394 . S
C28 H38 0.932 . S
C29 C25 1.308 . S
C29 C28 1.394 . S
C29 H39 0.929 . S
C30 Tb1 2.764 . S
C30 O14 1.239 . S
C30 O15 1.263 . S
C30 C24 1.504 . S
C31 O16 1.236 . S
C31 O17 1.257 . S
H32 C5 0.932 . S
H33 C6 0.930 . S
H34 C7 0.932 . S
H35 C8 0.929 . S
H36 C26 0.932 . S
H37 C27 0.930 . S
H38 C28 0.932 . S
H39 C29 0.929 . S
Tb40 C49 2.743 1_545 S
Tb40 O50 2.294 1_545 S
Tb40 O53 2.303 . S
Tb40 O57 2.354 . S
Tb40 O58 2.351 . S
Tb40 O61 2.394 1_545 S
Tb40 O62 2.381 1_545 S
Tb41 O51 2.322 1_545 S
Tb41 O52 2.349 . S
Tb41 O54 2.415 . S
Tb41 O55 2.399 . S
Tb41 O56 2.325 . S
Tb41 O59 2.303 . S
Tb41 C70 2.764 . S
C42 O58 1.261 . S
C42 O59 1.257 . S
C43 C46 1.358 . S
C43 C47 1.332 . S
C43 C49 1.504 . S
C44 C45 1.373 . S
C44 C48 1.308 . S
C45 C44 1.373 . S
C45 C46 1.429 . S
C45 H72 0.932 . S
C46 C43 1.358 . S
C46 C45 1.429 . S
C46 H73 0.930 . S
C47 C43 1.332 . S
C47 C48 1.394 . S
C47 H74 0.932 . S
C48 C44 1.308 . S
C48 C47 1.394 . S
C48 H75 0.929 . S
C49 Tb40 2.743 1_565 S
C49 C43 1.504 . S
C49 O61 1.239 . S
C49 O62 1.263 . S
O50 Tb40 2.294 1_565 S
O50 C60 1.236 . S
O51 Tb41 2.322 1_565 S
O51 C60 1.257 . S
O52 Tb41 2.349 . S
O52 C63 1.261 . S
O53 Tb40 2.303 . S
O53 C63 1.257 . S
O54 Tb41 2.415 . S
O54 C70 1.239 . S
O55 Tb41 2.399 . S
O55 C70 1.263 . S
O56 Tb41 2.325 . S
O56 C71 1.236 . S
O57 Tb40 2.354 . S
O57 C71 1.257 . S
O58 Tb40 2.351 . S
O58 C42 1.261 . S
O59 Tb41 2.303 . S
O59 C42 1.257 . S
C60 O50 1.236 . S
C60 O51 1.257 . S
O61 Tb40 2.394 1_565 S
O61 C49 1.239 . S
O62 Tb40 2.381 1_565 S
O62 C49 1.263 . S
C63 O52 1.261 . S
C63 O53 1.257 . S
C64 C67 1.358 . S
C64 C68 1.332 . S
C64 C70 1.504 . S
C65 C66 1.373 . S
C65 C69 1.308 . S
C66 C65 1.373 . S
C66 C67 1.429 . S
C66 H76 0.932 . S
C67 C64 1.358 . S
C67 C66 1.429 . S
C67 H77 0.930 . S
C68 C64 1.332 . S
C68 C69 1.394 . S
C68 H78 0.932 . S
C69 C65 1.308 . S
C69 C68 1.394 . S
C69 H79 0.929 . S
C70 Tb41 2.764 . S
C70 O54 1.239 . S
C70 O55 1.263 . S
C70 C64 1.504 . S
C71 O56 1.236 . S
C71 O57 1.257 . S
H72 C45 0.932 . S
H73 C46 0.930 . S
H74 C47 0.932 . S
H75 C48 0.929 . S
H76 C66 0.932 . S
H77 C67 0.930 . S
H78 C68 0.932 . S
H79 C69 0.929 . S
Tb80 C89 2.764 . S
Tb80 O90 2.325 . S
Tb80 O93 2.303 . S
Tb80 O97 2.322 . S
Tb80 O98 2.349 . S
Tb80 O101 2.415 . S
Tb80 O102 2.399 . S
Tb81 O91 2.322 . S
Tb81 O92 2.349 . S
Tb81 O94 2.415 . S
Tb81 O95 2.399 . S
Tb81 O96 2.325 . S
Tb81 O99 2.303 . S
Tb81 C110 2.764 . S
C82 O98 1.261 . S
C82 O99 1.257 . S
C83 C86 1.358 . S
C83 C87 1.332 . S
C83 C89 1.504 . S
C84 C85 1.373 . S
C84 C88 1.308 . S
C85 C84 1.373 . S
C85 C86 1.429 . S
C85 H112 0.932 . S
C86 C83 1.358 . S
C86 C85 1.429 . S
C86 H113 0.930 . S
C87 C83 1.332 . S
C87 C88 1.394 . S
C87 H114 0.932 . S
C88 C84 1.308 . S
C88 C87 1.394 . S
C88 H115 0.929 . S
C89 Tb80 2.764 . S
C89 C83 1.504 . S
C89 O101 1.239 . S
C89 O102 1.263 . S
O90 Tb80 2.325 . S
O90 C100 1.236 . S
O91 Tb81 2.322 . S
O91 C100 1.257 . S
O92 Tb81 2.349 . S
O92 C103 1.261 . S
O93 Tb80 2.303 . S
O93 C103 1.257 . S
O94 Tb81 2.415 . S
O94 C110 1.239 . S
O95 Tb81 2.399 . S
O95 C110 1.263 . S
O96 Tb81 2.325 . S
O96 C111 1.236 . S
O97 Tb80 2.322 . S
O97 C111 1.257 . S
O98 Tb80 2.349 . S
O98 C82 1.261 . S
O99 Tb81 2.303 . S
O99 C82 1.257 . S
C100 O90 1.236 . S
C100 O91 1.257 . S
O101 Tb80 2.415 . S
O101 C89 1.239 . S
O102 Tb80 2.399 . S
O102 C89 1.263 . S
C103 O92 1.261 . S
C103 O93 1.257 . S
C104 C107 1.358 . S
C104 C108 1.332 . S
C104 C110 1.504 . S
C105 C106 1.373 . S
C105 C109 1.308 . S
C106 C105 1.373 . S
C106 C107 1.429 . S
C106 H116 0.932 . S
C107 C104 1.358 . S
C107 C106 1.429 . S
C107 H117 0.930 . S
C108 C104 1.332 . S
C108 C109 1.394 . S
C108 H118 0.932 . S
C109 C105 1.308 . S
C109 C108 1.394 . S
C109 H119 0.929 . S
C110 Tb81 2.764 . S
C110 O94 1.239 . S
C110 O95 1.263 . S
C110 C104 1.504 . S
C111 O96 1.236 . S
C111 O97 1.257 . S
H112 C85 0.932 . S
H113 C86 0.930 . S
H114 C87 0.932 . S
H115 C88 0.929 . S
H116 C106 0.932 . S
H117 C107 0.930 . S
H118 C108 0.932 . S
H119 C109 0.929 . S
O120 Cd121 2.300 . S
O120 C127 1.275 . S
Cd121 O120 2.300 . S
Cd121 O129 2.381 . S
Cd121 O130 2.378 . S
O122 Cd123 2.385 . S
O122 C127 1.255 1_565 S
Cd123 O122 2.385 . S
Cd123 O124 2.317 . S
O124 Cd123 2.317 . S
O124 C125 1.232 . S
C125 O124 1.232 . S
C125 O126 1.218 . S
O126 C125 1.218 . S
C127 O120 1.275 . S
C127 O122 1.255 1_545 S
C128 O129 1.258 . S
C128 O130 1.256 . S
O129 Cd121 2.381 . S
O129 C128 1.258 . S
O130 Cd121 2.378 . S
O130 C128 1.256 . S
O131 Cd132 2.300 . S
O131 C138 1.275 . S
Cd132 O131 2.300 . S
Cd132 O140 2.381 . S
Cd132 O141 2.378 . S
O133 Cd134 2.385 . S
O133 C138 1.255 . S
Cd134 O133 2.385 . S
Cd134 O135 2.317 . S
O135 Cd134 2.317 . S
O135 C136 1.232 . S
C136 O135 1.232 . S
C136 O137 1.218 . S
O137 C136 1.218 . S
C138 O131 1.275 . S
C138 O133 1.255 . S
C139 O140 1.258 . S
C139 O141 1.256 . S
O140 Cd132 2.381 . S
O140 C139 1.258 . S
O141 Cd132 2.378 . S
O141 C139 1.256 . S
O142 Cd143 2.300 . S
O142 C149 1.275 . S
Cd143 O142 2.300 . S
Cd143 O151 2.381 . S
Cd143 O152 2.378 . S
O144 Cd145 2.385 1_455 S
O144 C149 1.255 . S
Cd145 O144 2.385 1_655 S
Cd145 O146 2.317 . S
O146 Cd145 2.317 . S
O146 C147 1.232 . S
C147 O146 1.232 . S
C147 O148 1.218 . S
O148 C147 1.218 . S
C149 O142 1.275 . S
C149 O144 1.255 . S
C150 O151 1.258 . S
C150 O152 1.256 . S
O151 Cd143 2.381 . S
O151 C150 1.258 . S
O152 Cd143 2.378 . S
O152 C150 1.256 . S
O153 Cd154 2.300 . S
O153 C160 1.275 1_455 S
Cd154 O153 2.300 . S
Cd154 O162 2.381 . S
Cd154 O163 2.378 . S
O155 Cd156 2.385 . S
O155 C160 1.255 . S
Cd156 O155 2.385 . S
Cd156 O157 2.317 . S
O157 Cd156 2.317 . S
O157 C158 1.232 . S
C158 O157 1.232 . S
C158 O159 1.218 . S
O159 C158 1.218 . S
C160 O153 1.275 1_655 S
C160 O155 1.255 . S
C161 O162 1.258 . S
C161 O163 1.256 . S
O162 Cd154 2.381 . S
O162 C161 1.258 . S
O163 Cd154 2.378 . S
O163 C161 1.256 . S
O164 Cd165 2.300 . S
O164 C171 1.275 1_565 S
Cd165 O164 2.300 . S
Cd165 O173 2.381 . S
Cd165 O174 2.378 . S
O166 Cd167 2.385 . S
O166 C171 1.255 . S
Cd167 O166 2.385 . S
Cd167 O168 2.317 . S
O168 Cd167 2.317 . S
O168 C169 1.232 . S
C169 O168 1.232 . S
C169 O170 1.218 . S
O170 C169 1.218 . S
C171 O164 1.275 1_545 S
C171 O166 1.255 . S
C172 O173 1.258 . S
C172 O174 1.256 . S
O173 Cd165 2.381 . S
O173 C172 1.258 . S
O174 Cd165 2.378 . S
O174 C172 1.256 . S
O175 Cd176 2.300 . S
O175 C182 1.275 . S
Cd176 O175 2.300 . S
Cd176 O184 2.381 . S
Cd176 O185 2.378 . S
O177 Cd178 2.385 . S
O177 C182 1.255 . S
Cd178 O177 2.385 . S
Cd178 O179 2.317 . S
O179 Cd178 2.317 . S
O179 C180 1.232 . S
C180 O179 1.232 . S
C180 O181 1.218 . S
O181 C180 1.218 . S
C182 O175 1.275 . S
C182 O177 1.255 . S
C183 O184 1.258 . S
C183 O185 1.256 . S
O184 Cd176 2.381 . S
O184 C183 1.258 . S
O185 Cd176 2.378 . S
O185 C183 1.256 . S
H186 C194 0.950 . S
H187 C199 0.950 . S
H188 C196 0.950 . S
H189 C198 0.950 . S
H190 C200 0.950 . S
H191 C202 0.950 . S
H192 C204 0.950 . S
H193 C205 0.950 . S
C194 H186 0.950 . S
C194 C195 1.386 . S
C194 C196 1.391 . S
C195 C194 1.386 . S
C195 C199 1.393 . S
C196 H188 0.950 . S
C196 C194 1.391 . S
C196 C197 1.400 . S
C197 C196 1.400 . S
C197 C198 1.398 . S
C197 C203 1.491 . S
C198 H189 0.950 . S
C198 C197 1.398 . S
C198 C199 1.391 . S
C199 H187 0.950 . S
C199 C195 1.393 . S
C199 C198 1.391 . S
C200 H190 0.950 . S
C200 C201 1.386 . S
C200 C202 1.391 . S
C201 C200 1.386 . S
C201 C205 1.393 . S
C202 H191 0.950 . S
C202 C200 1.391 . S
C202 C203 1.400 . S
C203 C197 1.491 . S
C203 C202 1.400 . S
C203 C204 1.398 . S
C204 H192 0.950 . S
C204 C203 1.398 . S
C204 C205 1.391 . S
C205 H193 0.950 . S
C205 C201 1.393 . S
C205 C204 1.391 . S
H206 C214 0.950 . S
H207 C219 0.950 . S
H208 C216 0.950 . S
H209 C218 0.950 . S
H210 C220 0.950 . S
H211 C222 0.950 . S
H212 C224 0.950 . S
H213 C225 0.950 . S
C214 H206 0.950 . S
C214 C215 1.386 . S
C214 C216 1.391 . S
C215 C214 1.386 . S
C215 C219 1.393 . S
C216 H208 0.950 . S
C216 C214 1.391 . S
C216 C217 1.400 . S
C217 C216 1.400 . S
C217 C218 1.398 . S
C217 C223 1.491 . S
C218 H209 0.950 . S
C218 C217 1.398 . S
C218 C219 1.391 . S
C219 H207 0.950 . S
C219 C215 1.393 . S
C219 C218 1.391 . S
C220 H210 0.950 . S
C220 C221 1.386 . S
C220 C222 1.391 . S
C221 C220 1.386 . S
C221 C225 1.393 . S
C222 H211 0.950 . S
C222 C220 1.391 . S
C222 C223 1.400 . S
C223 C217 1.491 . S
C223 C222 1.400 . S
C223 C224 1.398 . S
C224 H212 0.950 . S
C224 C223 1.398 . S
C224 C225 1.391 . S
C225 H213 0.950 . S
C225 C221 1.393 . S
C225 C224 1.391 . S
H226 C234 0.950 . S
H227 C239 0.950 . S
H228 C236 0.950 . S
H229 C238 0.950 . S
H230 C240 0.950 . S
H231 C242 0.950 . S
H232 C244 0.950 . S
H233 C245 0.950 . S
C234 H226 0.950 . S
C234 C235 1.386 . S
C234 C236 1.391 . S
C235 C234 1.386 . S
C235 C239 1.393 . S
C236 H228 0.950 . S
C236 C234 1.391 . S
C236 C237 1.400 . S
C237 C236 1.400 . S
C237 C238 1.398 . S
C237 C243 1.491 . S
C238 H229 0.950 . S
C238 C237 1.398 . S
C238 C239 1.391 . S
C239 H227 0.950 . S
C239 C235 1.393 . S
C239 C238 1.391 . S
C240 H230 0.950 . S
C240 C241 1.386 . S
C240 C242 1.391 . S
C241 C240 1.386 . S
C241 C245 1.393 . S
C242 H231 0.950 . S
C242 C240 1.391 . S
C242 C243 1.400 . S
C243 C237 1.491 . S
C243 C242 1.400 . S
C243 C244 1.398 . S
C244 H232 0.950 . S
C244 C243 1.398 . S
C244 C245 1.391 . S
C245 H233 0.950 . S
C245 C241 1.393 . S
C245 C244 1.391 . S
H246 C254 0.950 . S
H247 C259 0.950 . S
H248 C256 0.950 . S
H249 C258 0.950 . S
H250 C260 0.950 . S
H251 C262 0.950 . S
H252 C264 0.950 . S
H253 C265 0.950 . S
C254 H246 0.950 . S
C254 C255 1.386 . S
C254 C256 1.391 . S
C255 C254 1.386 . S
C255 C259 1.393 . S
C256 H248 0.950 . S
C256 C254 1.391 . S
C256 C257 1.400 . S
C257 C256 1.400 . S
C257 C258 1.398 . S
C257 C263 1.491 . S
C258 H249 0.950 . S
C258 C257 1.398 . S
C258 C259 1.391 . S
C259 H247 0.950 . S
C259 C255 1.393 . S
C259 C258 1.391 . S
C260 H250 0.950 . S
C260 C261 1.386 . S
C260 C262 1.391 . S
C261 C260 1.386 . S
C261 C265 1.393 . S
C262 H251 0.950 . S
C262 C260 1.391 . S
C262 C263 1.400 . S
C263 C257 1.491 . S
C263 C262 1.400 . S
C263 C264 1.398 . S
C264 H252 0.950 . S
C264 C263 1.398 . S
C264 C265 1.391 . S
C265 H253 0.950 . S
C265 C261 1.393 . S
C265 C264 1.391 . S
H266 C274 0.950 . S
H267 C279 0.950 . S
H268 C276 0.950 . S
H269 C278 0.950 . S
H270 C280 0.950 . S
H271 C282 0.950 . S
H272 C284 0.950 . S
H273 C285 0.950 . S
C274 H266 0.950 . S
C274 C275 1.386 . S
C274 C276 1.391 . S
C275 C274 1.386 . S
C275 C279 1.393 . S
C276 H268 0.950 . S
C276 C274 1.391 . S
C276 C277 1.400 . S
C277 C276 1.400 . S
C277 C278 1.398 . S
C277 C283 1.491 . S
C278 H269 0.950 . S
C278 C277 1.398 . S
C278 C279 1.391 . S
C279 H267 0.950 . S
C279 C275 1.393 . S
C279 C278 1.391 . S
C280 H270 0.950 . S
C280 C281 1.386 . S
C280 C282 1.391 . S
C281 C280 1.386 . S
C281 C285 1.393 . S
C282 H271 0.950 . S
C282 C280 1.391 . S
C282 C283 1.400 . S
C283 C277 1.491 . S
C283 C282 1.400 . S
C283 C284 1.398 . S
C284 H272 0.950 . S
C284 C283 1.398 . S
C284 C285 1.391 . S
C285 H273 0.950 . S
C285 C281 1.393 . S
C285 C284 1.391 . S
H286 C294 0.950 . S
H287 C299 0.950 . S
H288 C296 0.950 . S
H289 C298 0.950 . S
H290 C300 0.950 . S
H291 C302 0.950 . S
H292 C304 0.950 . S
H293 C305 0.950 . S
C294 H286 0.950 . S
C294 C295 1.386 . S
C294 C296 1.391 . S
C295 C294 1.386 . S
C295 C299 1.393 . S
C296 H288 0.950 . S
C296 C294 1.391 . S
C296 C297 1.400 . S
C297 C296 1.400 . S
C297 C298 1.398 . S
C297 C303 1.491 . S
C298 H289 0.950 . S
C298 C297 1.398 . S
C298 C299 1.391 . S
C299 H287 0.950 . S
C299 C295 1.393 . S
C299 C298 1.391 . S
C300 H290 0.950 . S
C300 C301 1.386 . S
C300 C302 1.391 . S
C301 C300 1.386 . S
C301 C305 1.393 . S
C302 H291 0.950 . S
C302 C300 1.391 . S
C302 C303 1.400 . S
C303 C297 1.491 . S
C303 C302 1.400 . S
C303 C304 1.398 . S
C304 H292 0.950 . S
C304 C303 1.398 . S
C304 C305 1.391 . S
C305 H293 0.950 . S
C305 C301 1.393 . S
C305 C304 1.391 . S
H306 C314 0.950 . S
H307 C319 0.950 . S
H308 C316 0.950 . S
H309 C318 0.950 . S
H310 C320 0.950 . S
H311 C322 0.950 . S
H312 C324 0.950 . S
H313 C325 0.950 . S
C314 H306 0.950 . S
C314 C315 1.386 . S
C314 C316 1.391 . S
C315 C314 1.386 . S
C315 C319 1.393 . S
C316 H308 0.950 . S
C316 C314 1.391 . S
C316 C317 1.400 . S
C317 C316 1.400 . S
C317 C318 1.398 . S
C317 C323 1.491 . S
C318 H309 0.950 . S
C318 C317 1.398 . S
C318 C319 1.391 . S
C319 H307 0.950 . S
C319 C315 1.393 . S
C319 C318 1.391 . S
C320 H310 0.950 . S
C320 C321 1.386 . S
C320 C322 1.391 . S
C321 C320 1.386 . S
C321 C325 1.393 . S
C322 H311 0.950 . S
C322 C320 1.391 . S
C322 C323 1.400 . S
C323 C317 1.491 . S
C323 C322 1.400 . S
C323 C324 1.398 . S
C324 H312 0.950 . S
C324 C323 1.398 . S
C324 C325 1.391 . S
C325 H313 0.950 . S
C325 C321 1.393 . S
C325 C324 1.391 . S
H326 C334 0.950 . S
H327 C339 0.950 . S
H328 C336 0.950 . S
H329 C338 0.950 . S
H330 C340 0.950 . S
H331 C342 0.950 . S
H332 C344 0.950 . S
H333 C345 0.950 . S
C334 H326 0.950 . S
C334 C335 1.386 . S
C334 C336 1.391 . S
C335 C334 1.386 . S
C335 C339 1.393 . S
C336 H328 0.950 . S
C336 C334 1.391 . S
C336 C337 1.400 . S
C337 C336 1.400 . S
C337 C338 1.398 . S
C337 C343 1.491 . S
C338 H329 0.950 . S
C338 C337 1.398 . S
C338 C339 1.391 . S
C339 H327 0.950 . S
C339 C335 1.393 . S
C339 C338 1.391 . S
C340 H330 0.950 . S
C340 C341 1.386 . S
C340 C342 1.391 . S
C341 C340 1.386 . S
C341 C345 1.393 . S
C342 H331 0.950 . S
C342 C340 1.391 . S
C342 C343 1.400 . S
C343 C337 1.491 . S
C343 C342 1.400 . S
C343 C344 1.398 . S
C344 H332 0.950 . S
C344 C343 1.398 . S
C344 C345 1.391 . S
C345 H333 0.950 . S
C345 C341 1.393 . S
C345 C344 1.391 . S
H346 C354 0.950 . S
H347 C359 0.950 . S
H348 C356 0.950 . S
H349 C358 0.950 . S
H350 C360 0.950 . S
H351 C362 0.950 . S
H352 C364 0.950 . S
H353 C365 0.950 . S
C354 H346 0.950 . S
C354 C355 1.386 . S
C354 C356 1.391 . S
C355 C354 1.386 . S
C355 C359 1.393 . S
C356 H348 0.950 . S
C356 C354 1.391 . S
C356 C357 1.400 . S
C357 C356 1.400 . S
C357 C358 1.398 . S
C357 C363 1.491 . S
C358 H349 0.950 . S
C358 C357 1.398 . S
C358 C359 1.391 . S
C359 H347 0.950 . S
C359 C355 1.393 . S
C359 C358 1.391 . S
C360 H350 0.950 . S
C360 C361 1.386 . S
C360 C362 1.391 . S
C361 C360 1.386 . S
C361 C365 1.393 . S
C362 H351 0.950 . S
C362 C360 1.391 . S
C362 C363 1.400 . S
C363 C357 1.491 . S
C363 C362 1.400 . S
C363 C364 1.398 . S
C364 H352 0.950 . S
C364 C363 1.398 . S
C364 C365 1.391 . S
C365 H353 0.950 . S
C365 C361 1.393 . S
C365 C364 1.391 . S
H366 C374 0.950 . S
H367 C379 0.950 . S
H368 C376 0.950 . S
H369 C378 0.950 . S
H370 C380 0.950 . S
H371 C382 0.950 . S
H372 C384 0.950 . S
H373 C385 0.950 . S
C374 H366 0.950 . S
C374 C375 1.386 . S
C374 C376 1.391 . S
C375 C374 1.386 . S
C375 C379 1.393 . S
C376 H368 0.950 . S
C376 C374 1.391 . S
C376 C377 1.400 . S
C377 C376 1.400 . S
C377 C378 1.398 . S
C377 C383 1.491 . S
C378 H369 0.950 . S
C378 C377 1.398 . S
C378 C379 1.391 . S
C379 H367 0.950 . S
C379 C375 1.393 . S
C379 C378 1.391 . S
C380 H370 0.950 . S
C380 C381 1.386 . S
C380 C382 1.391 . S
C381 C380 1.386 . S
C381 C385 1.393 . S
C382 H371 0.950 . S
C382 C380 1.391 . S
C382 C383 1.400 . S
C383 C377 1.491 . S
C383 C382 1.400 . S
C383 C384 1.398 . S
C384 H372 0.950 . S
C384 C383 1.398 . S
C384 C385 1.391 . S
C385 H373 0.950 . S
C385 C381 1.393 . S
C385 C384 1.391 . S
H386 C394 0.950 . S
H387 C399 0.950 . S
H388 C396 0.950 . S
H389 C398 0.950 . S
H390 C400 0.950 . S
H391 C402 0.950 . S
H392 C404 0.950 . S
H393 C405 0.950 . S
C394 H386 0.950 . S
C394 C395 1.386 . S
C394 C396 1.391 . S
C395 C394 1.386 . S
C395 C399 1.393 . S
C396 H388 0.950 . S
C396 C394 1.391 . S
C396 C397 1.400 . S
C397 C396 1.400 . S
C397 C398 1.398 . S
C397 C403 1.491 . S
C398 H389 0.950 . S
C398 C397 1.398 . S
C398 C399 1.391 . S
C399 H387 0.950 . S
C399 C395 1.393 . S
C399 C398 1.391 . S
C400 H390 0.950 . S
C400 C401 1.386 . S
C400 C402 1.391 . S
C401 C400 1.386 . S
C401 C405 1.393 . S
C402 H391 0.950 . S
C402 C400 1.391 . S
C402 C403 1.400 . S
C403 C397 1.491 . S
C403 C402 1.400 . S
C403 C404 1.398 . S
C404 H392 0.950 . S
C404 C403 1.398 . S
C404 C405 1.391 . S
C405 H393 0.950 . S
C405 C401 1.393 . S
C405 C404 1.391 . S
H406 C414 0.950 . S
H407 C419 0.950 . S
H408 C416 0.950 . S
H409 C418 0.950 . S
H410 C420 0.950 . S
H411 C422 0.950 . S
H412 C424 0.950 . S
H413 C425 0.950 . S
C414 H406 0.950 . S
C414 C415 1.386 . S
C414 C416 1.391 . S
C415 C414 1.386 . S
C415 C419 1.393 . S
C416 H408 0.950 . S
C416 C414 1.391 . S
C416 C417 1.400 . S
C417 C416 1.400 . S
C417 C418 1.398 . S
C417 C423 1.491 . S
C418 H409 0.950 . S
C418 C417 1.398 . S
C418 C419 1.391 . S
C419 H407 0.950 . S
C419 C415 1.393 . S
C419 C418 1.391 . S
C420 H410 0.950 . S
C420 C421 1.386 . S
C420 C422 1.391 . S
C421 C420 1.386 . S
C421 C425 1.393 . S
C422 H411 0.950 . S
C422 C420 1.391 . S
C422 C423 1.400 . S
C423 C417 1.491 . S
C423 C422 1.400 . S
C423 C424 1.398 . S
C424 H412 0.950 . S
C424 C423 1.398 . S
C424 C425 1.391 . S
C425 H413 0.950 . S
C425 C421 1.393 . S
C425 C424 1.391 . S
H426 C434 0.950 . S
H427 C439 0.950 1_655 S
H428 C436 0.950 . S
H429 C438 0.950 1_655 S
H430 C440 0.950 1_655 S
H431 C442 0.950 1_655 S
H432 C444 0.950 1_554 S
H433 C445 0.950 . S
C434 H426 0.950 . S
C434 C435 1.386 . S
C434 C436 1.391 . S
C435 C434 1.386 . S
C435 C439 1.393 . S
C436 H428 0.950 . S
C436 C434 1.391 . S
C436 C437 1.400 . S
C437 C436 1.400 . S
C437 C438 1.398 . S
C437 C443 1.491 . S
C438 H429 0.950 1_455 S
C438 C437 1.398 . S
C438 C439 1.391 . S
C439 H427 0.950 1_455 S
C439 C435 1.393 . S
C439 C438 1.391 . S
C440 H430 0.950 1_455 S
C440 C441 1.386 . S
C440 C442 1.391 . S
C441 C440 1.386 . S
C441 C445 1.393 . S
C442 H431 0.950 1_455 S
C442 C440 1.391 . S
C442 C443 1.400 1_556 S
C443 C437 1.491 . S
C443 C442 1.400 1_554 S
C443 C444 1.398 1_554 S
C444 H432 0.950 1_556 S
C444 C443 1.398 1_556 S
C444 C445 1.391 . S
C445 H433 0.950 . S
C445 C441 1.393 . S
C445 C444 1.391 . S
H446 C454 0.950 . S
H447 C459 0.950 1_565 S
H448 C456 0.950 . S
H449 C458 0.950 1_565 S
H450 C460 0.950 . S
H451 C462 0.950 . S
H452 C464 0.950 . S
H453 C465 0.950 . S
C454 H446 0.950 . S
C454 C455 1.386 . S
C454 C456 1.391 . S
C455 C454 1.386 . S
C455 C459 1.393 . S
C456 H448 0.950 . S
C456 C454 1.391 . S
C456 C457 1.400 . S
C457 C456 1.400 . S
C457 C458 1.398 . S
C457 C463 1.491 . S
C458 H449 0.950 1_545 S
C458 C457 1.398 . S
C458 C459 1.391 . S
C459 H447 0.950 1_545 S
C459 C455 1.393 . S
C459 C458 1.391 . S
C460 H450 0.950 . S
C460 C461 1.386 1_565 S
C460 C462 1.391 . S
C461 C460 1.386 1_545 S
C461 C465 1.393 . S
C462 H451 0.950 . S
C462 C460 1.391 . S
C462 C463 1.400 1_565 S
C463 C457 1.491 . S
C463 C462 1.400 1_545 S
C463 C464 1.398 . S
C464 H452 0.950 . S
C464 C463 1.398 . S
C464 C465 1.391 . S
C465 H453 0.950 . S
C465 C461 1.393 . S
C465 C464 1.391 . S
H466 C474 0.950 . S
H467 C479 0.950 . S
H468 C476 0.950 . S
H469 C478 0.950 . S
H470 C480 0.950 . S
H471 C482 0.950 . S
H472 C484 0.950 . S
H473 C485 0.950 . S
C474 H466 0.950 . S
C474 C475 1.386 . S
C474 C476 1.391 . S
C475 C474 1.386 . S
C475 C479 1.393 . S
C476 H468 0.950 . S
C476 C474 1.391 . S
C476 C477 1.400 . S
C477 C476 1.400 . S
C477 C478 1.398 . S
C477 C483 1.491 . S
C478 H469 0.950 . S
C478 C477 1.398 . S
C478 C479 1.391 . S
C479 H467 0.950 . S
C479 C475 1.393 . S
C479 C478 1.391 . S
C480 H470 0.950 . S
C480 C481 1.386 . S
C480 C482 1.391 . S
C481 C480 1.386 . S
C481 C485 1.393 . S
C482 H471 0.950 . S
C482 C480 1.391 . S
C482 C483 1.400 . S
C483 C477 1.491 . S
C483 C482 1.400 . S
C483 C484 1.398 . S
C484 H472 0.950 . S
C484 C483 1.398 . S
C484 C485 1.391 . S
C485 H473 0.950 . S
C485 C481 1.393 . S
C485 C484 1.391 . S
H486 C494 0.950 . S
H487 C499 0.950 1_565 S
H488 C496 0.950 . S
H489 C498 0.931 1_565 S
H490 C500 0.950 . S
H491 C502 0.950 . S
H492 C504 0.950 . S
H493 C505 0.950 . S
C494 H486 0.950 . S
C494 C495 1.386 . S
C494 C496 1.391 . S
C495 C494 1.386 . S
C495 C499 1.393 . S
C496 H488 0.950 . S
C496 C494 1.391 . S
C496 C497 1.400 . S
C497 C496 1.400 . S
C497 C498 1.415 . S
C497 C503 1.491 . S
C498 H489 0.931 1_545 S
C498 C497 1.415 . S
C498 C499 1.393 . S
C499 H487 0.950 1_545 S
C499 C495 1.393 . S
C499 C498 1.393 . S
C500 H490 0.950 . S
C500 C501 1.386 1_565 S
C500 C502 1.391 . S
C501 C500 1.386 1_545 S
C501 C505 1.393 . S
C502 H491 0.950 . S
C502 C500 1.391 . S
C502 C503 1.400 1_565 S
C503 C497 1.491 . S
C503 C502 1.400 1_545 S
C503 C504 1.398 . S
C504 H492 0.950 . S
C504 C503 1.398 . S
C504 C505 1.391 . S
C505 H493 0.950 . S
C505 C501 1.393 . S
C505 C504 1.391 . S
H506 C514 0.950 . S
H507 C519 0.950 . S
H508 C516 0.950 . S
H509 C518 0.950 . S
H510 C520 0.950 . S
H511 C522 0.950 1_556 S
H512 C524 0.940 1_556 S
H513 C525 0.950 . S
C514 H506 0.950 . S
C514 C515 1.386 . S
C514 C516 1.391 . S
C515 C514 1.386 . S
C515 C519 1.393 . S
C516 H508 0.950 . S
C516 C514 1.391 . S
C516 C517 1.400 . S
C517 C516 1.400 . S
C517 C518 1.398 . S
C517 C523 1.491 . S
C518 H509 0.950 . S
C518 C517 1.398 . S
C518 C519 1.391 . S
C519 H507 0.950 . S
C519 C515 1.393 . S
C519 C518 1.391 . S
C520 H510 0.950 . S
C520 C521 1.386 . S
C520 C522 1.391 . S
C521 C520 1.386 . S
C521 C525 1.393 . S
C522 H511 0.950 1_554 S
C522 C520 1.391 . S
C522 C523 1.400 1_554 S
C523 C517 1.491 . S
C523 C522 1.400 1_556 S
C523 C524 1.389 1_556 S
C524 H512 0.940 1_554 S
C524 C523 1.389 1_554 S
C524 C525 1.410 . S
C525 H513 0.950 . S
C525 C521 1.393 . S
C525 C524 1.410 . S
H526 C534 0.950 1_655 S
H527 C539 0.950 . S
H528 C536 0.950 . S
H529 C538 0.950 . S
H530 C540 0.950 . S
H531 C542 0.950 . S
H532 C544 0.950 . S
H533 C545 0.950 . S
C534 H526 0.950 1_455 S
C534 C535 1.386 . S
C534 C536 1.391 1_455 S
C535 C534 1.386 . S
C535 C539 1.393 . S
C536 H528 0.950 . S
C536 C534 1.391 1_655 S
C536 C537 1.400 1_655 S
C537 C536 1.400 1_455 S
C537 C538 1.398 . S
C537 C543 1.491 . S
C538 H529 0.950 . S
C538 C537 1.398 . S
C538 C539 1.391 . S
C539 H527 0.950 . S
C539 C535 1.393 . S
C539 C538 1.391 . S
C540 H530 0.950 . S
C540 C541 1.386 1_455 S
C540 C542 1.391 . S
C541 C540 1.386 1_655 S
C541 C545 1.393 . S
C542 H531 0.950 . S
C542 C540 1.391 . S
C542 C543 1.400 . S
C543 C537 1.491 . S
C543 C542 1.400 . S
C543 C544 1.398 1_455 S
C544 H532 0.950 . S
C544 C543 1.398 1_655 S
C544 C545 1.391 . S
C545 H533 0.950 . S
C545 C541 1.393 . S
C545 C544 1.391 . S
C195 C25 0.436 . S
C201 C180 0.668 . S
C215 C65 0.315 . S
C221 C158 0.604 . S
C235 C105 0.363 . S
C241 C172 0.359 . S
C255 C4 0.271 . S
C261 C183 0.321 . S
C281 C161 0.259 . S
C275 C44 0.144 . S
C301 C169 0.662 . S
C295 C84 0.429 . S
C315 C60 3.137 . S
C321 C136 2.798 . S
C335 C100 3.265 . S
C341 C147 2.905 . S
C355 C31 3.246 . S
C361 C125 2.877 . S
C381 C139 2.875 . S
C375 C71 2.958 . S
C401 C150 2.753 . S
C395 C111 2.808 . S
C415 C20 2.830 . S
C421 C128 2.764 . S
C441 C149 1.694 . S
C435 C2 1.701 . S
C455 C42 1.695 . S
C461 C127 1.683 . S
C475 C82 1.727 . S
C481 C138 1.698 . S
C501 C171 1.142 . S
C495 C63 1.187 . S
C521 C182 1.164 . S
C515 C103 1.235 . S
C535 C23 1.227 . S
C541 C160 1.171 . S
