# Generated by pormake.
# Topology gar, (4,6)-cn, num edge types: 1
# Building blocks:
#     Node 0, Type 0, BuildingBlock: QUQFOY_clean_sbu_3, # of connection points: 4
#     Node 1, Type 0, BuildingBlock: QUQFOY_clean_sbu_3, # of connection points: 4
#     Node 2, Type 0, BuildingBlock: QUQFOY_clean_sbu_3, # of connection points: 4
#     Node 3, Type 0, BuildingBlock: QUQFOY_clean_sbu_3, # of connection points: 4
#     Node 4, Type 0, BuildingBlock: QUQFOY_clean_sbu_3, # of connection points: 4
#     Node 5, Type 0, BuildingBlock: QUQFOY_clean_sbu_3, # of connection points: 4
#     Node 6, Type 0, BuildingBlock: QUQFOY_clean_sbu_3, # of connection points: 4
#     Node 7, Type 0, BuildingBlock: QUQFOY_clean_sbu_3, # of connection points: 4
#     Node 8, Type 0, BuildingBlock: QUQFOY_clean_sbu_3, # of connection points: 4
#     Node 9, Type 0, BuildingBlock: QUQFOY_clean_sbu_3, # of connection points: 4
#     Node 10, Type 0, BuildingBlock: QUQFOY_clean_sbu_3, # of connection points: 4
#     Node 11, Type 0, BuildingBlock: QUQFOY_clean_sbu_3, # of connection points: 4
#     Node 12, Type 0, BuildingBlock: QUQFOY_clean_sbu_3, # of connection points: 4
#     Node 13, Type 0, BuildingBlock: QUQFOY_clean_sbu_3, # of connection points: 4
#     Node 14, Type 0, BuildingBlock: QUQFOY_clean_sbu_3, # of connection points: 4
#     Node 15, Type 0, BuildingBlock: QUQFOY_clean_sbu_3, # of connection points: 4
#     Node 16, Type 0, BuildingBlock: QUQFOY_clean_sbu_3, # of connection points: 4
#     Node 17, Type 0, BuildingBlock: QUQFOY_clean_sbu_3, # of connection points: 4
#     Node 18, Type 0, BuildingBlock: QUQFOY_clean_sbu_3, # of connection points: 4
#     Node 19, Type 0, BuildingBlock: QUQFOY_clean_sbu_3, # of connection points: 4
#     Node 20, Type 0, BuildingBlock: QUQFOY_clean_sbu_3, # of connection points: 4
#     Node 21, Type 0, BuildingBlock: QUQFOY_clean_sbu_3, # of connection points: 4
#     Node 22, Type 0, BuildingBlock: QUQFOY_clean_sbu_3, # of connection points: 4
#     Node 23, Type 0, BuildingBlock: QUQFOY_clean_sbu_3, # of connection points: 4
#     Node 24, Type 1, BuildingBlock: BETFEN_clean_sbu_0, # of connection points: 6
#     Node 25, Type 1, BuildingBlock: BETFEN_clean_sbu_0, # of connection points: 6
#     Node 26, Type 1, BuildingBlock: BETFEN_clean_sbu_0, # of connection points: 6
#     Node 27, Type 1, BuildingBlock: BETFEN_clean_sbu_0, # of connection points: 6
#     Node 28, Type 1, BuildingBlock: BETFEN_clean_sbu_0, # of connection points: 6
#     Node 29, Type 1, BuildingBlock: BETFEN_clean_sbu_0, # of connection points: 6
#     Node 30, Type 1, BuildingBlock: BETFEN_clean_sbu_0, # of connection points: 6
#     Node 31, Type 1, BuildingBlock: BETFEN_clean_sbu_0, # of connection points: 6
#     Node 32, Type 1, BuildingBlock: BETFEN_clean_sbu_0, # of connection points: 6
#     Node 33, Type 1, BuildingBlock: BETFEN_clean_sbu_0, # of connection points: 6
#     Node 34, Type 1, BuildingBlock: BETFEN_clean_sbu_0, # of connection points: 6
#     Node 35, Type 1, BuildingBlock: BETFEN_clean_sbu_0, # of connection points: 6
#     Node 36, Type 1, BuildingBlock: BETFEN_clean_sbu_0, # of connection points: 6
#     Node 37, Type 1, BuildingBlock: BETFEN_clean_sbu_0, # of connection points: 6
#     Node 38, Type 1, BuildingBlock: BETFEN_clean_sbu_0, # of connection points: 6
#     Node 39, Type 1, BuildingBlock: BETFEN_clean_sbu_0, # of connection points: 6
#     Edge 40, Type (0, 1), BuildingBlock: KIFKEQ_clean_linker_1, # of connection points: 2
#     Edge 41, Type (0, 1), BuildingBlock: KIFKEQ_clean_linker_1, # of connection points: 2
#     Edge 42, Type (0, 1), BuildingBlock: KIFKEQ_clean_linker_1, # of connection points: 2
#     Edge 43, Type (0, 1), BuildingBlock: KIFKEQ_clean_linker_1, # of connection points: 2
#     Edge 44, Type (0, 1), BuildingBlock: KIFKEQ_clean_linker_1, # of connection points: 2
#     Edge 45, Type (0, 1), BuildingBlock: KIFKEQ_clean_linker_1, # of connection points: 2
#     Edge 46, Type (0, 1), BuildingBlock: KIFKEQ_clean_linker_1, # of connection points: 2
#     Edge 47, Type (0, 1), BuildingBlock: KIFKEQ_clean_linker_1, # of connection points: 2
#     Edge 48, Type (0, 1), BuildingBlock: KIFKEQ_clean_linker_1, # of connection points: 2
#     Edge 49, Type (0, 1), BuildingBlock: KIFKEQ_clean_linker_1, # of connection points: 2
#     Edge 50, Type (0, 1), BuildingBlock: KIFKEQ_clean_linker_1, # of connection points: 2
#     Edge 51, Type (0, 1), BuildingBlock: KIFKEQ_clean_linker_1, # of connection points: 2
#     Edge 52, Type (0, 1), BuildingBlock: KIFKEQ_clean_linker_1, # of connection points: 2
#     Edge 53, Type (0, 1), BuildingBlock: KIFKEQ_clean_linker_1, # of connection points: 2
#     Edge 54, Type (0, 1), BuildingBlock: KIFKEQ_clean_linker_1, # of connection points: 2
#     Edge 55, Type (0, 1), BuildingBlock: KIFKEQ_clean_linker_1, # of connection points: 2
#     Edge 56, Type (0, 1), BuildingBlock: KIFKEQ_clean_linker_1, # of connection points: 2
#     Edge 57, Type (0, 1), BuildingBlock: KIFKEQ_clean_linker_1, # of connection points: 2
#     Edge 58, Type (0, 1), BuildingBlock: KIFKEQ_clean_linker_1, # of connection points: 2
#     Edge 59, Type (0, 1), BuildingBlock: KIFKEQ_clean_linker_1, # of connection points: 2
#     Edge 60, Type (0, 1), BuildingBlock: KIFKEQ_clean_linker_1, # of connection points: 2
#     Edge 61, Type (0, 1), BuildingBlock: KIFKEQ_clean_linker_1, # of connection points: 2
#     Edge 62, Type (0, 1), BuildingBlock: KIFKEQ_clean_linker_1, # of connection points: 2
#     Edge 63, Type (0, 1), BuildingBlock: KIFKEQ_clean_linker_1, # of connection points: 2
#     Edge 64, Type (0, 1), BuildingBlock: KIFKEQ_clean_linker_1, # of connection points: 2
#     Edge 65, Type (0, 1), BuildingBlock: KIFKEQ_clean_linker_1, # of connection points: 2
#     Edge 66, Type (0, 1), BuildingBlock: KIFKEQ_clean_linker_1, # of connection points: 2
#     Edge 67, Type (0, 1), BuildingBlock: KIFKEQ_clean_linker_1, # of connection points: 2
#     Edge 68, Type (0, 1), BuildingBlock: KIFKEQ_clean_linker_1, # of connection points: 2
#     Edge 69, Type (0, 1), BuildingBlock: KIFKEQ_clean_linker_1, # of connection points: 2
#     Edge 70, Type (0, 1), BuildingBlock: KIFKEQ_clean_linker_1, # of connection points: 2
#     Edge 71, Type (0, 1), BuildingBlock: KIFKEQ_clean_linker_1, # of connection points: 2
#     Edge 72, Type (0, 1), BuildingBlock: KIFKEQ_clean_linker_1, # of connection points: 2
#     Edge 73, Type (0, 1), BuildingBlock: KIFKEQ_clean_linker_1, # of connection points: 2
#     Edge 74, Type (0, 1), BuildingBlock: KIFKEQ_clean_linker_1, # of connection points: 2
#     Edge 75, Type (0, 1), BuildingBlock: KIFKEQ_clean_linker_1, # of connection points: 2
#     Edge 76, Type (0, 1), BuildingBlock: KIFKEQ_clean_linker_1, # of connection points: 2
#     Edge 77, Type (0, 1), BuildingBlock: KIFKEQ_clean_linker_1, # of connection points: 2
#     Edge 78, Type (0, 1), BuildingBlock: KIFKEQ_clean_linker_1, # of connection points: 2
#     Edge 79, Type (0, 1), BuildingBlock: KIFKEQ_clean_linker_1, # of connection points: 2
#     Edge 80, Type (0, 1), BuildingBlock: KIFKEQ_clean_linker_1, # of connection points: 2
#     Edge 81, Type (0, 1), BuildingBlock: KIFKEQ_clean_linker_1, # of connection points: 2
#     Edge 82, Type (0, 1), BuildingBlock: KIFKEQ_clean_linker_1, # of connection points: 2
#     Edge 83, Type (0, 1), BuildingBlock: KIFKEQ_clean_linker_1, # of connection points: 2
#     Edge 84, Type (0, 1), BuildingBlock: KIFKEQ_clean_linker_1, # of connection points: 2
#     Edge 85, Type (0, 1), BuildingBlock: KIFKEQ_clean_linker_1, # of connection points: 2
#     Edge 86, Type (0, 1), BuildingBlock: KIFKEQ_clean_linker_1, # of connection points: 2
#     Edge 87, Type (0, 1), BuildingBlock: KIFKEQ_clean_linker_1, # of connection points: 2
#     Edge 88, Type (0, 1), BuildingBlock: KIFKEQ_clean_linker_1, # of connection points: 2
#     Edge 89, Type (0, 1), BuildingBlock: KIFKEQ_clean_linker_1, # of connection points: 2
#     Edge 90, Type (0, 1), BuildingBlock: KIFKEQ_clean_linker_1, # of connection points: 2
#     Edge 91, Type (0, 1), BuildingBlock: KIFKEQ_clean_linker_1, # of connection points: 2
#     Edge 92, Type (0, 1), BuildingBlock: KIFKEQ_clean_linker_1, # of connection points: 2
#     Edge 93, Type (0, 1), BuildingBlock: KIFKEQ_clean_linker_1, # of connection points: 2
#     Edge 94, Type (0, 1), BuildingBlock: KIFKEQ_clean_linker_1, # of connection points: 2
#     Edge 95, Type (0, 1), BuildingBlock: KIFKEQ_clean_linker_1, # of connection points: 2
#     Edge 96, Type (0, 1), BuildingBlock: KIFKEQ_clean_linker_1, # of connection points: 2
#     Edge 97, Type (0, 1), BuildingBlock: KIFKEQ_clean_linker_1, # of connection points: 2
#     Edge 98, Type (0, 1), BuildingBlock: KIFKEQ_clean_linker_1, # of connection points: 2
#     Edge 99, Type (0, 1), BuildingBlock: KIFKEQ_clean_linker_1, # of connection points: 2
#     Edge 100, Type (0, 1), BuildingBlock: KIFKEQ_clean_linker_1, # of connection points: 2
#     Edge 101, Type (0, 1), BuildingBlock: KIFKEQ_clean_linker_1, # of connection points: 2
#     Edge 102, Type (0, 1), BuildingBlock: KIFKEQ_clean_linker_1, # of connection points: 2
#     Edge 103, Type (0, 1), BuildingBlock: KIFKEQ_clean_linker_1, # of connection points: 2
#     Edge 104, Type (0, 1), BuildingBlock: KIFKEQ_clean_linker_1, # of connection points: 2
#     Edge 105, Type (0, 1), BuildingBlock: KIFKEQ_clean_linker_1, # of connection points: 2
#     Edge 106, Type (0, 1), BuildingBlock: KIFKEQ_clean_linker_1, # of connection points: 2
#     Edge 107, Type (0, 1), BuildingBlock: KIFKEQ_clean_linker_1, # of connection points: 2
#     Edge 108, Type (0, 1), BuildingBlock: KIFKEQ_clean_linker_1, # of connection points: 2
#     Edge 109, Type (0, 1), BuildingBlock: KIFKEQ_clean_linker_1, # of connection points: 2
#     Edge 110, Type (0, 1), BuildingBlock: KIFKEQ_clean_linker_1, # of connection points: 2
#     Edge 111, Type (0, 1), BuildingBlock: KIFKEQ_clean_linker_1, # of connection points: 2
#     Edge 112, Type (0, 1), BuildingBlock: KIFKEQ_clean_linker_1, # of connection points: 2
#     Edge 113, Type (0, 1), BuildingBlock: KIFKEQ_clean_linker_1, # of connection points: 2
#     Edge 114, Type (0, 1), BuildingBlock: KIFKEQ_clean_linker_1, # of connection points: 2
#     Edge 115, Type (0, 1), BuildingBlock: KIFKEQ_clean_linker_1, # of connection points: 2
#     Edge 116, Type (0, 1), BuildingBlock: KIFKEQ_clean_linker_1, # of connection points: 2
#     Edge 117, Type (0, 1), BuildingBlock: KIFKEQ_clean_linker_1, # of connection points: 2
#     Edge 118, Type (0, 1), BuildingBlock: KIFKEQ_clean_linker_1, # of connection points: 2
#     Edge 119, Type (0, 1), BuildingBlock: KIFKEQ_clean_linker_1, # of connection points: 2
#     Edge 120, Type (0, 1), BuildingBlock: KIFKEQ_clean_linker_1, # of connection points: 2
#     Edge 121, Type (0, 1), BuildingBlock: KIFKEQ_clean_linker_1, # of connection points: 2
#     Edge 122, Type (0, 1), BuildingBlock: KIFKEQ_clean_linker_1, # of connection points: 2
#     Edge 123, Type (0, 1), BuildingBlock: KIFKEQ_clean_linker_1, # of connection points: 2
#     Edge 124, Type (0, 1), BuildingBlock: KIFKEQ_clean_linker_1, # of connection points: 2
#     Edge 125, Type (0, 1), BuildingBlock: KIFKEQ_clean_linker_1, # of connection points: 2
#     Edge 126, Type (0, 1), BuildingBlock: KIFKEQ_clean_linker_1, # of connection points: 2
#     Edge 127, Type (0, 1), BuildingBlock: KIFKEQ_clean_linker_1, # of connection points: 2
#     Edge 128, Type (0, 1), BuildingBlock: KIFKEQ_clean_linker_1, # of connection points: 2
#     Edge 129, Type (0, 1), BuildingBlock: KIFKEQ_clean_linker_1, # of connection points: 2
#     Edge 130, Type (0, 1), BuildingBlock: KIFKEQ_clean_linker_1, # of connection points: 2
#     Edge 131, Type (0, 1), BuildingBlock: KIFKEQ_clean_linker_1, # of connection points: 2
#     Edge 132, Type (0, 1), BuildingBlock: KIFKEQ_clean_linker_1, # of connection points: 2
#     Edge 133, Type (0, 1), BuildingBlock: KIFKEQ_clean_linker_1, # of connection points: 2
#     Edge 134, Type (0, 1), BuildingBlock: KIFKEQ_clean_linker_1, # of connection points: 2
#     Edge 135, Type (0, 1), BuildingBlock: KIFKEQ_clean_linker_1, # of connection points: 2
# Relax obj value: 0.186
# Max RMSD: 0.314
# Mean RMSD: 0.160
data_MOF--net-gar--node1-QUQFOY_clean_sbu_3--node2-BETFEN_clean_sbu_0--edge1-KIFKEQ_clean_linker_1
_symmetry_space_group_name_H-M    P1
_symmetry_Int_Tables_number       1
_symmetry_cell_setting            triclinic
loop_
_symmetry_equiv_pos_as_xyz
'x, y, z'
_cell_length_a     65.002966
_cell_length_b     58.769016
_cell_length_c     58.372224
_cell_angle_alpha  95.218032
_cell_angle_beta   98.817611
_cell_angle_gamma 102.60621
loop_
_atom_site_label
_atom_site_type_symbol
_atom_site_fract_x
_atom_site_fract_y
_atom_site_fract_z
_atom_type_partial_charge
C0 C 0.99006 0.32534 0.38319 0.0
O1 O 1.00363 0.33827 0.37354 0.0
Cd2 Cd 0.0416 0.34708 0.38401 0.0
O3 O 0.9962 0.3154 0.40078 0.0
Cd4 Cd 0.03273 0.31576 0.42491 0.0
C5 C 0.0447 0.37673 0.43837 0.0
O6 O 0.05114 0.31118 0.39148 0.0
O7 O 0.0715 0.31987 0.42526 0.0
O8 O 0.01803 0.27363 0.42791 0.0
C9 C 0.06963 0.31375 0.40352 0.0
O10 O 0.04862 0.37688 0.41767 0.0
C11 C 0.02656 0.27406 0.44907 0.0
O12 O 0.03757 0.35716 0.44582 0.0
O13 O 0.03674 0.29416 0.45972 0.0
C14 C 0.0369 0.83115 0.68037 0.0
O15 O 0.04823 0.81902 0.6911 0.0
Cd16 Cd 0.08195 0.81352 0.68277 0.0
O17 O 0.04285 0.84097 0.66302 0.0
Cd18 Cd 0.07397 0.84404 0.64101 0.0
C19 C 0.06893 0.78387 0.62696 0.0
O20 O 0.10151 0.85091 0.67639 0.0
O21 O 0.11279 0.84478 0.64416 0.0
O22 O 0.07678 0.88637 0.63931 0.0
C23 C 0.11724 0.85005 0.66622 0.0
O24 O 0.07631 0.78435 0.64855 0.0
C25 C 0.0715 0.88546 0.61737 0.0
O26 O 0.06462 0.80231 0.61913 0.0
O27 O 0.06711 0.86508 0.60573 0.0
C28 C 0.4869 0.81879 0.87996 0.0
O29 O 0.49933 0.82945 0.86756 0.0
Cd30 Cd 0.5368 0.84374 0.87972 0.0
O31 O 0.49446 0.81314 0.89968 0.0
Cd32 Cd 0.53203 0.8146 0.92256 0.0
C33 C 0.53972 0.87478 0.93414 0.0
O34 O 0.54911 0.80954 0.88825 0.0
O35 O 0.57092 0.82119 0.92085 0.0
O36 O 0.51831 0.77255 0.92679 0.0
C37 C 0.56817 0.81385 0.89925 0.0
O38 O 0.54102 0.87454 0.91257 0.0
C39 C 0.52772 0.77341 0.94768 0.0
O40 O 0.53619 0.85551 0.9431 0.0
O41 O 0.53819 0.79367 0.95765 0.0
C42 C 0.53897 0.33098 0.17795 0.0
O43 O 0.5501 0.31933 0.18975 0.0
Cd44 Cd 0.58307 0.31101 0.18247 0.0
O45 O 0.54496 0.33956 0.16001 0.0
Cd46 Cd 0.57599 0.34272 0.13785 0.0
C47 C 0.56812 0.28162 0.1257 0.0
O48 O 0.60135 0.3478 0.17391 0.0
O49 O 0.61602 0.348 0.14344 0.0
O50 O 0.57167 0.38318 0.13644 0.0
C51 C 0.61832 0.34929 0.16554 0.0
O52 O 0.57411 0.28215 0.14762 0.0
C53 C 0.572 0.38409 0.11488 0.0
O54 O 0.5664 0.30057 0.11702 0.0
O55 O 0.5739 0.36547 0.10326 0.0
C56 C 0.05408 0.83695 0.18628 0.0
O57 O 0.06616 0.82727 0.19937 0.0
Cd58 Cd 0.10015 0.82132 0.19356 0.0
O59 O 0.05988 0.84531 0.16817 0.0
Cd60 Cd 0.09109 0.85061 0.14647 0.0
C61 C 0.0836 0.79012 0.13761 0.0
O62 O 0.11672 0.85762 0.18252 0.0
O63 O 0.13122 0.85743 0.15197 0.0
O64 O 0.08121 0.88817 0.14112 0.0
C65 C 0.13366 0.85895 0.17408 0.0
O66 O 0.08981 0.79141 0.15958 0.0
C67 C 0.08274 0.88808 0.11969 0.0
O68 O 0.08219 0.80853 0.12789 0.0
O69 O 0.08847 0.8706 0.11033 0.0
C70 C 0.4799 0.81068 0.37365 0.0
O71 O 0.49409 0.82182 0.36344 0.0
Cd72 Cd 0.53114 0.83504 0.37795 0.0
O73 O 0.48526 0.80388 0.39352 0.0
Cd74 Cd 0.52119 0.80571 0.42038 0.0
C75 C 0.52865 0.86558 0.43076 0.0
O76 O 0.54208 0.80146 0.38974 0.0
O77 O 0.56105 0.8149 0.42365 0.0
O78 O 0.51305 0.76336 0.42386 0.0
C79 C 0.56043 0.80715 0.40249 0.0
O80 O 0.53264 0.8651 0.41006 0.0
C81 C 0.51715 0.76516 0.446 0.0
O82 O 0.52343 0.84647 0.43962 0.0
O83 O 0.52158 0.78594 0.45677 0.0
C84 C 0.55564 0.33774 0.68539 0.0
O85 O 0.56796 0.32782 0.69787 0.0
Cd86 Cd 0.60279 0.32437 0.69174 0.0
O87 O 0.56136 0.34699 0.6677 0.0
Cd88 Cd 0.59271 0.35264 0.64664 0.0
C89 C 0.58847 0.293 0.63648 0.0
O90 O 0.61969 0.36131 0.68206 0.0
O91 O 0.63233 0.35547 0.65076 0.0
O92 O 0.58929 0.39297 0.64219 0.0
C93 C 0.63594 0.36046 0.67286 0.0
O94 O 0.59668 0.2946 0.658 0.0
C95 C 0.58575 0.39072 0.62001 0.0
O96 O 0.58352 0.31068 0.62771 0.0
O97 O 0.58569 0.37067 0.60968 0.0
C98 C 0.97786 0.3112 0.87733 0.0
O99 O 0.99191 0.32351 0.86776 0.0
Cd100 Cd 0.02971 0.33278 0.8793 0.0
O101 O 0.98344 0.30194 0.89565 0.0
Cd102 Cd 0.01978 0.30346 0.92105 0.0
C103 C 0.03122 0.3637 0.93249 0.0
O104 O 0.03931 0.29774 0.88902 0.0
O105 O 0.05906 0.3109 0.92261 0.0
O106 O 0.00799 0.26172 0.92708 0.0
C107 C 0.05781 0.3027 0.90148 0.0
O108 O 0.03655 0.36324 0.91239 0.0
C109 C 0.01615 0.2644 0.94865 0.0
O110 O 0.02281 0.34464 0.93995 0.0
O111 O 0.02452 0.28545 0.95797 0.0
C112 C 0.50973 0.17106 0.36303 0.0
O113 O 0.52079 0.16631 0.34789 0.0
Cd114 Cd 0.51037 0.16131 0.3064 0.0
O115 O 0.49152 0.17566 0.35691 0.0
Cd116 Cd 0.46947 0.17914 0.31902 0.0
C117 C 0.46309 0.12063 0.30336 0.0
O118 O 0.49735 0.19489 0.29739 0.0
O119 O 0.46614 0.17972 0.27689 0.0
O120 O 0.45667 0.2139 0.33061 0.0
C121 C 0.48535 0.19067 0.27752 0.0
O122 O 0.48191 0.12481 0.29852 0.0
C123 C 0.43698 0.20326 0.3251 0.0
O124 O 0.45564 0.13713 0.31194 0.0
O125 O 0.43278 0.18134 0.31839 0.0
C126 C 0.3078 0.18539 0.52185 0.0
O127 O 0.29452 0.17223 0.53167 0.0
Cd128 Cd 0.26067 0.17796 0.53778 0.0
O129 O 0.30311 0.20321 0.51307 0.0
Cd130 Cd 0.27159 0.22281 0.50748 0.0
C131 C 0.27796 0.23465 0.5675 0.0
O132 O 0.24429 0.18599 0.50112 0.0
O133 O 0.23186 0.21671 0.50539 0.0
O134 O 0.2805 0.2268 0.46815 0.0
C135 C 0.22806 0.19446 0.50177 0.0
O136 O 0.27101 0.21258 0.56705 0.0
C137 C 0.27917 0.24797 0.4675 0.0
O138 O 0.28029 0.24374 0.54867 0.0
O139 O 0.27431 0.25792 0.48553 0.0
C140 C 0.166 0.11712 0.89919 0.0
O141 O 0.15784 0.12731 0.88307 0.0
Cd142 Cd 0.16892 0.13184 0.84655 0.0
O143 O 0.18297 0.10996 0.89776 0.0
Cd144 Cd 0.20798 0.11044 0.86968 0.0
C145 C 0.21905 0.1682 0.86201 0.0
O146 O 0.17887 0.09599 0.8371 0.0
O147 O 0.21008 0.10412 0.82775 0.0
O148 O 0.21501 0.07357 0.88078 0.0
C149 C 0.19005 0.09636 0.8212 0.0
O150 O 0.19983 0.16444 0.85126 0.0
C151 C 0.23524 0.08089 0.88532 0.0
O152 O 0.22574 0.1522 0.87215 0.0
O153 O 0.24277 0.10234 0.8835 0.0
C154 C 0.35409 0.98009 0.03348 0.0
O155 O 0.34201 0.99017 0.02092 0.0
Cd156 Cd 0.30402 0.98089 0.01389 0.0
O157 O 0.3463 0.96266 0.04367 0.0
Cd158 Cd 0.30906 0.93879 0.04537 0.0
C159 C 0.29772 0.92545 0.98485 0.0
O160 O 0.29483 0.97359 0.05085 0.0
O161 O 0.27103 0.94106 0.04503 0.0
O162 O 0.3252 0.93513 0.08576 0.0
C163 C 0.27544 0.96324 0.04979 0.0
O164 O 0.29555 0.94645 0.98481 0.0
C165 C 0.3149 0.91421 0.08618 0.0
O166 O 0.30354 0.91787 1.00414 0.0
O167 O 0.3025 0.90409 0.0673 0.0
C168 C 0.36867 0.47842 0.05017 0.0
O169 O 0.35563 0.48894 0.03977 0.0
Cd170 Cd 0.31788 0.4766 0.03093 0.0
O171 O 0.36177 0.45914 0.05826 0.0
Cd172 Cd 0.32416 0.43312 0.05836 0.0
C173 C 0.31599 0.42392 0.99818 0.0
O174 O 0.30621 0.46494 0.06555 0.0
O175 O 0.28491 0.43144 0.05237 0.0
O176 O 0.33415 0.42706 0.09979 0.0
C177 C 0.28716 0.45269 0.06075 0.0
O178 O 0.31301 0.44467 0.99969 0.0
C179 C 0.32614 0.40505 0.09713 0.0
O180 O 0.32109 0.41478 0.01669 0.0
O181 O 0.31848 0.39558 0.0762 0.0
C182 C 0.82025 0.1804 0.03691 0.0
O183 O 0.80726 0.16919 0.04848 0.0
Cd184 Cd 0.77363 0.17566 0.05488 0.0
O185 O 0.81611 0.19791 0.02706 0.0
Cd186 Cd 0.78608 0.21975 0.02286 0.0
C187 C 0.79052 0.23285 0.08329 0.0
O188 O 0.75884 0.18351 0.01777 0.0
O189 O 0.74632 0.21437 0.01842 0.0
O190 O 0.79142 0.22156 0.9821 0.0
C191 C 0.74259 0.19213 0.01644 0.0
O192 O 0.78286 0.21093 0.08297 0.0
C193 C 0.79133 0.24305 0.98139 0.0
O194 O 0.79423 0.24129 0.06441 0.0
O195 O 0.78974 0.25446 1.00039 0.0
C196 C 0.09388 0.47442 0.25734 0.0
O197 O 0.08224 0.4796 0.23996 0.0
Cd198 Cd 0.09271 0.49081 0.20431 0.0
O199 O 0.11322 0.47347 0.2567 0.0
Cd200 Cd 0.13842 0.47791 0.22838 0.0
C201 C 0.13677 0.53553 0.22883 0.0
O202 O 0.11232 0.46331 0.1937 0.0
O203 O 0.14335 0.47937 0.18716 0.0
O204 O 0.15328 0.44537 0.24042 0.0
C205 C 0.1238 0.47011 0.17886 0.0
O206 O 0.11816 0.52928 0.21616 0.0
C207 C 0.17246 0.4576 0.24606 0.0
O208 O 0.14652 0.52035 0.23635 0.0
O209 O 0.17569 0.47919 0.24326 0.0
C210 C 0.86734 0.98265 0.54694 0.0
O211 O 0.85429 0.99298 0.53623 0.0
Cd212 Cd 0.81649 0.98022 0.52724 0.0
O213 O 0.86047 0.96353 0.55524 0.0
Cd214 Cd 0.82329 0.93745 0.55564 0.0
C215 C 0.81476 0.92697 0.49567 0.0
O216 O 0.80457 0.96863 0.56171 0.0
O217 O 0.78394 0.93448 0.54936 0.0
O218 O 0.83157 0.93411 0.59756 0.0
C219 C 0.78572 0.95581 0.55715 0.0
O220 O 0.81171 0.94768 0.49677 0.0
C221 C 0.82609 0.91185 0.59592 0.0
O222 O 0.82006 0.91825 0.51439 0.0
O223 O 0.82064 0.90093 0.57527 0.0
C224 C 0.94146 0.03258 0.22697 0.0
O225 O 0.94259 0.01892 0.20919 0.0
Cd226 Cd 0.91931 0.00683 0.17087 0.0
O227 O 0.9266 0.0436 0.22663 0.0
Cd228 Cd 0.89748 0.04649 0.19656 0.0
C229 C 0.87529 0.98521 0.19104 0.0
O230 O 0.90625 0.03971 0.15878 0.0
O231 O 0.91987 0.07463 0.17712 0.0
O232 O 0.88869 0.07646 0.2216 0.0
C233 C 0.91839 0.05991 0.15935 0.0
O234 O 0.88876 0.97919 0.17949 0.0
C235 C 0.87064 0.07546 0.20903 0.0
O236 O 0.87661 0.00677 0.19774 0.0
O237 O 0.86499 0.06064 0.19064 0.0
C238 C 0.32219 0.68249 0.54 0.0
O239 O 0.30939 0.67238 0.5524 0.0
Cd240 Cd 0.2756 0.67905 0.55828 0.0
O241 O 0.31812 0.69953 0.5293 0.0
Cd242 Cd 0.28852 0.7219 0.52554 0.0
C243 C 0.29074 0.7364 0.58543 0.0
O244 O 0.26088 0.68611 0.52095 0.0
O245 O 0.24891 0.71737 0.52266 0.0
O246 O 0.28743 0.72278 0.48335 0.0
C247 C 0.24486 0.69507 0.52014 0.0
O248 O 0.2825 0.71467 0.58549 0.0
C249 C 0.29238 0.74491 0.48365 0.0
O250 O 0.29613 0.74409 0.5668 0.0
O251 O 0.29655 0.75703 0.50372 0.0
C252 C 0.43922 0.54117 0.7263 0.0
O253 O 0.44439 0.52822 0.71049 0.0
Cd254 Cd 0.42464 0.51102 0.67159 0.0
O255 O 0.42212 0.54852 0.72253 0.0
Cd256 Cd 0.39411 0.54651 0.6892 0.0
C257 C 0.37889 0.48503 0.68757 0.0
O258 O 0.40818 0.53967 0.65475 0.0
O259 O 0.41609 0.57593 0.67015 0.0
O260 O 0.38173 0.5735 0.71359 0.0
C261 C 0.4185 0.56063 0.65469 0.0
O262 O 0.39578 0.48155 0.68081 0.0
C263 C 0.36472 0.57307 0.69938 0.0
O264 O 0.37574 0.50565 0.69054 0.0
O265 O 0.3612 0.56 0.6799 0.0
C266 C 0.58585 0.96778 0.75357 0.0
O267 O 0.57432 0.97323 0.73627 0.0
Cd268 Cd 0.58509 0.98489 0.70094 0.0
O269 O 0.60516 0.96668 0.75293 0.0
Cd270 Cd 0.63069 0.97083 0.72495 0.0
C271 C 0.6299 0.02882 0.72558 0.0
O272 O 0.60461 0.95739 0.69015 0.0
O273 O 0.63586 0.97275 0.68375 0.0
O274 O 0.64545 0.93787 0.73657 0.0
C275 C 0.61615 0.96443 0.67543 0.0
O276 O 0.61105 0.02298 0.71341 0.0
C277 C 0.66438 0.95036 0.74371 0.0
O278 O 0.63949 0.01333 0.7326 0.0
O279 O 0.66755 0.9721 0.74156 0.0
C280 C 0.80752 0.68199 0.02333 0.0
O281 O 0.79386 0.66959 0.03332 0.0
Cd282 Cd 0.75896 0.67487 0.03643 0.0
O283 O 0.80321 0.69944 0.01359 0.0
Cd284 Cd 0.77188 0.71904 0.00789 0.0
C285 C 0.77361 0.73059 0.06702 0.0
O286 O 0.74358 0.68255 0.99929 0.0
O287 O 0.73224 0.71365 0.00602 0.0
O288 O 0.78003 0.72471 0.9685 0.0
C289 C 0.72772 0.69152 1.00054 0.0
O290 O 0.76441 0.70891 0.06562 0.0
C291 C 0.77984 0.74633 0.96945 0.0
O292 O 0.78018 0.7392 0.04935 0.0
O293 O 0.77607 0.7557 0.9884 0.0
C294 C 0.0067 0.67792 0.86956 0.0
O295 O 0.01821 0.673 0.85498 0.0
Cd296 Cd 0.00807 0.66499 0.81357 0.0
O297 O 0.98825 0.6816 0.86268 0.0
Cd298 Cd 0.96681 0.68312 0.82385 0.0
C299 C 0.96046 0.62463 0.81169 0.0
O300 O 0.99401 0.69645 0.80056 0.0
O301 O 0.96295 0.67763 0.78166 0.0
O302 O 0.95596 0.7199 0.82805 0.0
C303 C 0.98165 0.68933 0.78102 0.0
O304 O 0.9796 0.62875 0.80772 0.0
C305 C 0.9361 0.71032 0.82551 0.0
O306 O 0.95237 0.64124 0.81875 0.0
O307 O 0.93075 0.68811 0.8245 0.0
C308 C 0.85666 0.48066 0.53553 0.0
O309 O 0.84504 0.49141 0.52323 0.0
Cd310 Cd 0.80713 0.48239 0.51516 0.0
O311 O 0.84836 0.46281 0.54487 0.0
Cd312 Cd 0.81064 0.43925 0.54535 0.0
C313 C 0.80113 0.42761 0.48477 0.0
O314 O 0.79707 0.4744 0.55168 0.0
O315 O 0.77266 0.44232 0.54411 0.0
O316 O 0.82582 0.43401 0.58557 0.0
C317 C 0.7775 0.4644 0.54992 0.0
O318 O 0.79942 0.4488 0.48509 0.0
C319 C 0.81514 0.4131 0.58522 0.0
O320 O 0.80591 0.41933 0.50392 0.0
O321 O 0.80291 0.40371 0.56601 0.0
C322 C 0.67116 0.62396 0.40447 0.0
O323 O 0.66335 0.63555 0.38947 0.0
Cd324 Cd 0.6735 0.64033 0.35255 0.0
O325 O 0.68721 0.61556 0.40156 0.0
Cd326 Cd 0.71076 0.61569 0.37203 0.0
C327 C 0.72478 0.67377 0.36729 0.0
O328 O 0.68021 0.60317 0.34039 0.0
O329 O 0.71091 0.60976 0.32968 0.0
O330 O 0.71596 0.57825 0.38344 0.0
C331 C 0.69074 0.60291 0.32394 0.0
O332 O 0.70554 0.6714 0.35714 0.0
C333 C 0.73614 0.5834 0.38478 0.0
O334 O 0.73068 0.65682 0.37638 0.0
O335 O 0.74464 0.60402 0.38113 0.0
Pr336 Pr 0.02285 0.0604 0.0163 0.0
Pr337 Pr 0.07075 0.08544 0.04251 0.0
C338 C 0.98023 0.05209 1.00199 0.0
C339 C 0.96439 0.06659 1.00438 0.0
C340 C 0.96223 0.08414 0.9899 0.0
C341 C 0.94822 0.09869 0.99328 0.0
C342 C 0.93604 0.09608 0.01122 0.0
C343 C 0.93796 0.07828 0.02544 0.0
C344 C 0.95189 0.0637 0.02202 0.0
C345 C 0.05498 0.05795 0.99098 0.0
C346 C 0.04154 0.11943 0.01998 0.0
C347 C 0.11359 0.09618 0.05674 0.0
C348 C 0.13028 0.08271 0.05696 0.0
C349 C 0.15159 0.09419 0.05709 0.0
C350 C 0.16734 0.08131 0.05659 0.0
C351 C 0.16201 0.05665 0.05582 0.0
C352 C 0.14054 0.04527 0.05565 0.0
C353 C 0.1249 0.05818 0.05628 0.0
C354 C 0.03841 0.08568 0.06842 0.0
C355 C 0.05127 0.02645 0.04014 0.0
O356 O 0.98885 0.04536 0.02119 0.0
O357 O 0.99403 0.05836 0.98823 0.0
O358 O 0.05417 0.07544 1.0046 0.0
O359 O 0.03722 0.04168 0.98726 0.0
O360 O 0.06153 0.11772 0.02642 0.0
O361 O 0.02503 0.10132 0.01896 0.0
O362 O 0.10448 0.09943 0.03609 0.0
O363 O 0.09993 0.09084 0.07087 0.0
O364 O 0.03995 0.06918 0.0541 0.0
O365 O 0.0552 0.10323 0.07146 0.0
O366 O 0.03139 0.0285 0.03356 0.0
O367 O 0.06812 0.04423 0.04102 0.0
H368 H 0.97161 0.08694 0.97615 0.0
H369 H 0.94728 0.11232 0.98213 0.0
H370 H 0.92856 0.0755 0.03918 0.0
H371 H 0.95305 0.05029 0.03341 0.0
H372 H 0.15606 0.11312 0.05755 0.0
H373 H 0.18372 0.09073 0.05705 0.0
H374 H 0.13571 0.02632 0.05468 0.0
H375 H 0.10856 0.04897 0.05614 0.0
Pr376 Pr 0.31491 0.85448 0.29769 0.0
Pr377 Pr 0.28803 0.80758 0.27227 0.0
C378 C 0.34299 0.89144 0.32412 0.0
C379 C 0.3544 0.91457 0.31987 0.0
C380 C 0.37005 0.9289 0.33756 0.0
C381 C 0.38163 0.95058 0.33327 0.0
C382 C 0.37772 0.95819 0.31118 0.0
C383 C 0.36182 0.94378 0.29355 0.0
C384 C 0.35028 0.92209 0.29786 0.0
C385 C 0.27428 0.8564 0.27545 0.0
C386 C 0.31188 0.84802 0.24114 0.0
C387 C 0.25906 0.77215 0.24459 0.0
C388 C 0.24646 0.74844 0.24551 0.0
C389 C 0.25399 0.73381 0.26084 0.0
C390 C 0.24163 0.71126 0.26135 0.0
C391 C 0.22152 0.70313 0.2467 0.0
C392 C 0.21397 0.71802 0.23163 0.0
C393 C 0.22637 0.74049 0.23104 0.0
C394 C 0.32914 0.80597 0.29331 0.0
C395 C 0.29271 0.8132 0.32907 0.0
O396 O 0.34873 0.87358 0.31408 0.0
O397 O 0.32223 0.88818 0.32255 0.0
O398 O 0.27822 0.84021 0.2871 0.0
O399 O 0.2914 0.8729 0.27627 0.0
O400 O 0.29672 0.82894 0.24124 0.0
O401 O 0.32346 0.86011 0.26081 0.0
O402 O 0.25379 0.78932 0.25644 0.0
O403 O 0.27977 0.77487 0.24597 0.0
O404 O 0.32462 0.82213 0.28202 0.0
O405 O 0.31233 0.78904 0.29263 0.0
O406 O 0.30706 0.83295 0.3289 0.0
O407 O 0.28115 0.80084 0.30951 0.0
H408 H 0.3734 0.92327 0.35462 0.0
H409 H 0.39356 0.96146 0.34729 0.0
H410 H 0.35859 0.94907 0.27632 0.0
H411 H 0.3383 0.91107 0.28397 0.0
H412 H 0.26937 0.73982 0.27236 0.0
H413 H 0.24773 0.70023 0.27331 0.0
H414 H 0.19866 0.71214 0.21996 0.0
H415 H 0.22032 0.75164 0.21919 0.0
Pr416 Pr 0.57408 0.07976 0.5416 0.0
Pr417 Pr 0.5245 0.07467 0.52975 0.0
C418 C 0.61477 0.07574 0.55392 0.0
C419 C 0.62898 0.05919 0.55274 0.0
C420 C 0.63975 0.05759 0.53375 0.0
C421 C 0.65504 0.04419 0.53373 0.0
C422 C 0.66011 0.03216 0.55277 0.0
C423 C 0.6488 0.03303 0.57142 0.0
C424 C 0.63345 0.04648 0.57145 0.0
C425 C 0.56028 0.10264 0.50459 0.0
C426 C 0.54234 0.03006 0.51055 0.0
C427 C 0.48374 0.07852 0.51754 0.0
C428 C 0.46999 0.09546 0.51582 0.0
C429 C 0.47431 0.11596 0.53185 0.0
C430 C 0.45969 0.13034 0.53138 0.0
C431 C 0.44052 0.12453 0.51484 0.0
C432 C 0.43678 0.10449 0.49824 0.0
C433 C 0.45136 0.09011 0.49877 0.0
C434 C 0.53889 0.05162 0.56658 0.0
C435 C 0.55637 0.12404 0.56076 0.0
O436 O 0.60072 0.07254 0.56787 0.0
O437 O 0.60769 0.08317 0.53445 0.0
O438 O 0.5511 0.08234 0.50814 0.0
O439 O 0.57782 0.11125 0.51961 0.0
O440 O 0.52662 0.04098 0.50648 0.0
O441 O 0.56061 0.0402 0.52476 0.0
O442 O 0.49673 0.07818 0.50251 0.0
O443 O 0.49201 0.0753 0.53855 0.0
O444 O 0.54746 0.07204 0.56292 0.0
O445 O 0.52126 0.0429 0.5517 0.0
O446 O 0.5714 0.11243 0.56581 0.0
O447 O 0.53864 0.1146 0.5454 0.0
H448 H 0.63681 0.06721 0.51909 0.0
H449 H 0.66317 0.04357 0.5189 0.0
H450 H 0.65241 0.02411 0.58645 0.0
H451 H 0.62557 0.04749 0.58645 0.0
H452 H 0.48869 0.12053 0.54508 0.0
H453 H 0.46322 0.14581 0.54422 0.0
H454 H 0.42212 0.09928 0.48545 0.0
H455 H 0.44771 0.07435 0.48628 0.0
Pr456 Pr 0.27773 0.32105 0.78096 0.0
Pr457 Pr 0.32776 0.33922 0.78513 0.0
C458 C 0.23745 0.30016 0.78527 0.0
C459 C 0.22032 0.3013 0.79884 0.0
C460 C 0.19899 0.29321 0.78752 0.0
C461 C 0.18226 0.29325 0.79991 0.0
C462 C 0.18652 0.30137 0.82398 0.0
C463 C 0.208 0.30982 0.83527 0.0
C464 C 0.22478 0.30976 0.82279 0.0
C465 C 0.29129 0.36513 0.76702 0.0
C466 C 0.30727 0.35068 0.83159 0.0
C467 C 0.36795 0.35906 0.77962 0.0
C468 C 0.38506 0.35492 0.76681 0.0
C469 C 0.39688 0.33827 0.77273 0.0
C470 C 0.41379 0.33555 0.76135 0.0
C471 C 0.4193 0.34941 0.74377 0.0
C472 C 0.40727 0.36585 0.73767 0.0
C473 C 0.3904 0.36862 0.74912 0.0
C474 C 0.31395 0.29502 0.79868 0.0
C475 C 0.29795 0.30998 0.73409 0.0
O476 O 0.25446 0.29418 0.79556 0.0
O477 O 0.24176 0.31644 0.77171 0.0
O478 O 0.30027 0.35766 0.78453 0.0
O479 O 0.27351 0.35037 0.75719 0.0
O480 O 0.32294 0.35852 0.82016 0.0
O481 O 0.28973 0.33483 0.82121 0.0
O482 O 0.35084 0.36319 0.76736 0.0
O483 O 0.3637 0.34629 0.79632 0.0
O484 O 0.30531 0.30273 0.78116 0.0
O485 O 0.33157 0.30977 0.80904 0.0
O486 O 0.28155 0.30329 0.74483 0.0
O487 O 0.31613 0.32439 0.74506 0.0
H488 H 0.19524 0.2867 0.76902 0.0
H489 H 0.16594 0.28705 0.79057 0.0
H490 H 0.21183 0.31606 0.8538 0.0
H491 H 0.24119 0.31612 0.83186 0.0
H492 H 0.39332 0.32754 0.78641 0.0
H493 H 0.4229 0.32299 0.76679 0.0
H494 H 0.41088 0.37663 0.72405 0.0
H495 H 0.38165 0.38169 0.74428 0.0
Pr496 Pr 0.04051 0.0636 0.50361 0.0
Pr497 Pr 0.06331 0.09504 0.55612 0.0
C498 C 0.0138 0.03702 0.46669 0.0
C499 C 0.01065 0.03651 0.44113 0.0
C500 C 0.01134 0.01611 0.42711 0.0
C501 C 0.00906 0.01549 0.40287 0.0
C502 C 1.00586 0.03524 0.39219 0.0
C503 C 1.00522 0.05569 0.40633 0.0
C504 C 0.0077 0.05637 0.43056 0.0
C505 C 0.08301 0.08846 0.50463 0.0
C506 C 0.04105 0.12132 0.51283 0.0
C507 C 0.09338 0.1203 0.59111 0.0
C508 C 0.10191 0.11776 0.61519 0.0
C509 C 0.08875 0.10542 0.62913 0.0
C510 C 0.09759 0.10135 0.65129 0.0
C511 C 0.11972 0.10927 0.6596 0.0
C512 C 0.13277 0.12185 0.64568 0.0
C513 C 0.1239 0.1261 0.62364 0.0
C514 C 0.02103 0.06985 0.55535 0.0
C515 C 0.05998 0.03685 0.54837 0.0
O516 O 0.00888 0.05444 0.47877 0.0
O517 O 0.03143 0.03166 0.47636 0.0
O518 O 0.07217 0.0875 0.5207 0.0
O519 O 0.07152 0.07482 0.48619 0.0
O520 O 0.05355 0.12354 0.53358 0.0
O521 O 0.03289 0.10075 0.49944 0.0
O522 O 0.09749 0.10567 0.57505 0.0
O523 O 0.07384 0.12356 0.58695 0.0
O524 O 0.03165 0.07103 0.53904 0.0
O525 O 0.03269 0.08318 0.57398 0.0
O526 O 0.04792 0.03489 0.5274 0.0
O527 O 0.06895 0.0574 0.56142 0.0
H528 H 0.01379 1.00066 0.43494 0.0
H529 H 0.00988 0.99956 0.39253 0.0
H530 H 1.00237 0.07108 0.39869 0.0
H531 H 0.00726 0.07244 0.44097 0.0
H532 H 0.07177 0.09852 0.62271 0.0
H533 H 0.08725 0.09145 0.66164 0.0
H534 H 0.14983 0.12836 0.65182 0.0
H535 H 0.13427 0.13549 0.61298 0.0
Pr536 Pr 0.28582 0.8031 0.78498 0.0
Pr537 Pr 0.30899 0.86014 0.78612 0.0
C538 C 0.26965 0.75687 0.77198 0.0
C539 C 0.27672 0.73776 0.76018 0.0
C540 C 0.26345 0.71506 0.75564 0.0
C541 C 0.27095 0.69641 0.74616 0.0
C542 C 0.29181 0.70036 0.74108 0.0
C543 C 0.30466 0.72342 0.74478 0.0
C544 C 0.29725 0.74193 0.75448 0.0
C545 C 0.28206 0.83065 0.82586 0.0
C546 C 0.33753 0.82309 0.80724 0.0
C547 C 0.32511 0.90631 0.80009 0.0
C548 C 0.32113 0.92577 0.81531 0.0
C549 C 0.31385 0.94391 0.8051 0.0
C550 C 0.30929 0.96212 0.81895 0.0
C551 C 0.312 0.96265 0.84337 0.0
C552 C 0.31971 0.94476 0.85369 0.0
C553 C 0.3244 0.92656 0.83979 0.0
C554 C 0.31249 0.83279 0.74499 0.0
C555 C 0.25728 0.83959 0.76288 0.0
O556 O 0.26508 0.77284 0.75909 0.0
O557 O 0.28082 0.76567 0.79276 0.0
O558 O 0.29011 0.83727 0.80866 0.0
O559 O 0.27439 0.80805 0.82167 0.0
O560 O 0.33499 0.84492 0.80822 0.0
O561 O 0.32252 0.80471 0.79606 0.0
O562 O 0.33243 0.88993 0.81022 0.0
O563 O 0.31094 0.89812 0.78096 0.0
O564 O 0.30458 0.82611 0.76228 0.0
O565 O 0.32016 0.85542 0.74921 0.0
O566 O 0.25965 0.81778 0.76299 0.0
O567 O 0.27226 0.85822 0.77369 0.0
H568 H 0.24756 0.71165 0.76007 0.0
H569 H 0.26078 0.67882 0.74374 0.0
H570 H 0.32067 0.72709 0.7407 0.0
H571 H 0.30775 0.75938 0.75813 0.0
H572 H 0.31139 0.94385 0.7863 0.0
H573 H 0.30309 0.97549 0.81045 0.0
H574 H 0.32213 0.94486 0.87248 0.0
H575 H 0.33037 0.91304 0.84823 0.0
Pr576 Pr 0.56013 0.07712 0.05713 0.0
Pr577 Pr 0.54312 0.07953 1.00075 0.0
C578 C 0.57147 0.08989 0.10346 0.0
C579 C 0.56574 0.10728 0.11932 0.0
C580 C 0.5726 0.10927 0.14345 0.0
C581 C 0.5663 0.12535 0.15843 0.0
C582 C 0.55342 0.14011 0.14943 0.0
C583 C 0.54717 0.13836 0.12503 0.0
C584 C 0.55282 0.12169 0.11023 0.0
C585 C 0.55961 0.03494 0.0294 0.0
C586 C 0.50784 0.06114 0.03504 0.0
C587 C 0.53037 0.06734 0.95445 0.0
C588 C 0.53409 0.0517 0.93515 0.0
C589 C 0.53904 0.0611 0.91492 0.0
C590 C 0.54245 0.04675 0.89621 0.0
C591 C 0.54098 0.02266 0.89736 0.0
C592 C 0.5362 0.01325 0.91772 0.0
C593 C 0.53263 0.02763 0.93643 0.0
C594 C 0.54379 0.1218 0.0285 0.0
C595 C 0.59527 0.09631 0.02289 0.0
O596 O 0.58317 0.09856 0.08849 0.0
O597 O 0.55576 0.07186 0.09408 0.0
O598 O 0.55505 0.05333 0.02277 0.0
O599 O 0.56539 0.03829 0.05204 0.0
O600 O 0.51191 0.0619 0.01358 0.0
O601 O 0.52272 0.0684 0.05405 0.0
O602 O 0.52001 0.05743 0.96992 0.0
O603 O 0.54617 0.08542 0.96353 0.0
O604 O 0.54863 0.1035 0.03506 0.0
O605 O 0.53716 0.11813 0.006 0.0
O606 O 0.59119 0.09564 0.04439 0.0
O607 O 0.58047 0.08836 1.00388 0.0
H608 H 0.58238 0.09801 0.15073 0.0
H609 H 0.57102 0.12558 0.17706 0.0
H610 H 0.53761 0.14955 0.11725 0.0
H611 H 0.54682 0.11974 0.09165 0.0
H612 H 0.54024 0.0796 0.91358 0.0
H613 H 0.54643 0.05456 0.88087 0.0
H614 H 0.53483 0.99472 0.919 0.0
H615 H 0.52861 0.0199 0.95177 0.0
Pr616 Pr 0.28229 0.31279 0.28205 0.0
Pr617 Pr 0.32888 0.35141 0.28981 0.0
C618 C 0.24605 0.28486 0.2899 0.0
C619 C 0.22933 0.28812 0.30352 0.0
C620 C 0.21663 0.26878 0.31112 0.0
C621 C 0.20006 0.27171 0.32307 0.0
C622 C 0.19584 0.29405 0.32751 0.0
C623 C 0.20896 0.31346 0.32028 0.0
C624 C 0.22557 0.31054 0.30849 0.0
C625 C 0.29514 0.32386 0.23903 0.0
C626 C 0.2843 0.37039 0.29046 0.0
C627 C 0.36546 0.38091 0.28475 0.0
C628 C 0.38261 0.37773 0.27177 0.0
C629 C 0.40197 0.39479 0.27528 0.0
C630 C 0.41857 0.39118 0.26367 0.0
C631 C 0.416 0.37051 0.24821 0.0
C632 C 0.39644 0.35359 0.24458 0.0
C633 C 0.37999 0.35709 0.25637 0.0
C634 C 0.31646 0.33273 0.32958 0.0
C635 C 0.32718 0.29531 0.28256 0.0
O636 O 0.26497 0.28529 0.30186 0.0
O637 O 0.24695 0.2963 0.27169 0.0
O638 O 0.30509 0.32972 0.25961 0.0
O639 O 0.27686 0.30984 0.23996 0.0
O640 O 0.30487 0.37612 0.28883 0.0
O641 O 0.27351 0.34857 0.29068 0.0
O642 O 0.34683 0.38023 0.27204 0.0
O643 O 0.36389 0.36917 0.30266 0.0
O644 O 0.30414 0.33811 0.31307 0.0
O645 O 0.3363 0.33913 0.32686 0.0
O646 O 0.30795 0.29054 0.28841 0.0
O647 O 0.33551 0.31576 0.27596 0.0
H648 H 0.21931 0.25135 0.30749 0.0
H649 H 0.19018 0.25638 0.32827 0.0
H650 H 0.20637 0.33095 0.32373 0.0
H651 H 0.23529 0.32576 0.30297 0.0
H652 H 0.40434 0.41076 0.28718 0.0
H653 H 0.43342 0.40458 0.26676 0.0
H654 H 0.39407 0.33732 0.23311 0.0
H655 H 0.36532 0.34348 0.25374 0.0
Pr656 Pr 0.5392 0.5633 1.00412 0.0
Pr657 Pr 0.56342 0.5941 0.05653 0.0
C658 C 0.5104 0.53803 0.96803 0.0
C659 C 0.50584 0.53903 0.94292 0.0
C660 C 0.51999 0.55462 0.93243 0.0
C661 C 0.51511 0.55631 0.9086 0.0
C662 C 0.49594 0.54253 0.89506 0.0
C663 C 0.482 0.52668 0.90566 0.0
C664 C 0.48694 0.52496 0.92945 0.0
C665 C 0.58172 0.58755 1.00412 0.0
C666 C 0.54145 0.62139 0.01387 0.0
C667 C 0.59386 0.61865 0.09155 0.0
C668 C 0.60221 0.61604 0.11569 0.0
C669 C 0.58858 0.60556 0.13021 0.0
C670 C 0.59708 0.60176 0.15261 0.0
C671 C 0.61933 0.60809 0.16061 0.0
C672 C 0.63287 0.61871 0.14605 0.0
C673 C 0.62436 0.62269 0.12377 0.0
C674 C 0.52124 0.56882 0.05672 0.0
C675 C 0.55976 0.53585 0.04746 0.0
O676 O 0.50659 0.55539 0.98126 0.0
O677 O 0.52843 0.53238 0.97579 0.0
O678 O 0.57131 0.58675 0.02057 0.0
O679 O 0.56976 0.57403 0.98584 0.0
O680 O 0.55415 0.62324 0.03444 0.0
O681 O 0.53262 0.60093 1.00054 0.0
O682 O 0.59761 0.6037 0.07551 0.0
O683 O 0.57459 0.62261 0.08732 0.0
O684 O 0.53143 0.57047 0.04009 0.0
O685 O 0.5333 0.58188 0.07528 0.0
O686 O 0.5466 0.53417 0.02725 0.0
O687 O 0.56962 0.55634 0.06023 0.0
H688 H 0.53462 0.56572 0.94274 0.0
H689 H 0.52601 0.56882 0.90093 0.0
H690 H 0.46725 0.51566 0.89554 0.0
H691 H 0.4759 0.51285 0.93738 0.0
H692 H 0.57143 0.59997 0.12413 0.0
H693 H 0.58633 0.5934 0.16347 0.0
H694 H 0.65006 0.624 0.15193 0.0
H695 H 0.63509 0.63066 0.11269 0.0
Pr696 Pr 0.78751 0.30429 0.28506 0.0
Pr697 Pr 0.81078 0.36018 0.28261 0.0
C698 C 0.77087 0.2579 0.27419 0.0
C699 C 0.77738 0.2383 0.26254 0.0
C700 C 0.76763 0.21521 0.2651 0.0
C701 C 0.77556 0.19658 0.25639 0.0
C702 C 0.79333 0.20092 0.24502 0.0
C703 C 0.80239 0.22409 0.24158 0.0
C704 C 0.79459 0.24267 0.25048 0.0
C705 C 0.78612 0.33323 0.3258 0.0
C706 C 0.84068 0.32379 0.30219 0.0
C707 C 0.82586 0.40651 0.29585 0.0
C708 C 0.81848 0.42355 0.31046 0.0
C709 C 0.83064 0.44669 0.31662 0.0
C710 C 0.82326 0.46286 0.33038 0.0
C711 C 0.80368 0.45598 0.33826 0.0
C712 C 0.79189 0.43252 0.33246 0.0
C713 C 0.79912 0.41654 0.31848 0.0
C714 C 0.81185 0.33139 0.24166 0.0
C715 C 0.758 0.34013 0.26347 0.0
O716 O 0.76574 0.27335 0.26092 0.0
O717 O 0.78285 0.26736 0.29438 0.0
O718 O 0.79379 0.33931 0.30812 0.0
O719 O 0.77767 0.31077 0.32215 0.0
O720 O 0.83915 0.34566 0.30025 0.0
O721 O 0.82424 0.30525 0.29582 0.0
O722 O 0.83313 0.39065 0.30688 0.0
O723 O 0.81319 0.39779 0.27582 0.0
O724 O 0.8043 0.32529 0.25942 0.0
O725 O 0.82032 0.35393 0.24523 0.0
O726 O 0.75952 0.31831 0.26566 0.0
O727 O 0.77419 0.35872 0.27078 0.0
H728 H 0.75442 0.21167 0.27457 0.0
H729 H 0.76842 0.17895 0.25954 0.0
H730 H 0.8159 0.22793 0.2326 0.0
H731 H 0.80245 0.26049 0.24864 0.0
H732 H 0.84565 0.45232 0.31053 0.0
H733 H 0.83258 0.48086 0.33425 0.0
H734 H 0.77695 0.42652 0.33855 0.0
H735 H 0.78954 0.39867 0.31383 0.0
Pr736 Pr 0.0626 0.57867 0.56046 0.0
Pr737 Pr 0.0457 0.5806 0.5041 0.0
C738 C 0.07316 0.59097 0.60686 0.0
C739 C 0.06548 0.60659 0.62271 0.0
C740 C 0.0735 0.61017 0.6467 0.0
C741 C 0.06568 0.62485 0.66162 0.0
C742 C 0.05007 0.63665 0.65266 0.0
C743 C 0.04254 0.63327 0.62838 0.0
C744 C 0.04976 0.61791 0.6137 0.0
C745 C 0.06299 0.53664 0.53302 0.0
C746 C 0.0103 0.56226 0.53829 0.0
C747 C 0.03308 0.56703 0.45799 0.0
C748 C 0.0374 0.55075 0.43975 0.0
C749 C 0.02087 0.53976 0.42119 0.0
C750 C 0.02481 0.52505 0.40307 0.0
C751 C 0.04543 0.52119 0.40311 0.0
C752 C 0.06177 0.53147 0.42231 0.0
C753 C 0.05777 0.54611 0.44052 0.0
C754 C 0.04587 0.62303 0.53128 0.0
C755 C 0.09781 0.59835 0.52652 0.0
O756 O 0.08415 0.60136 0.59212 0.0
O757 O 0.05897 0.57174 0.59719 0.0
O758 O 0.0578 0.5547 0.52627 0.0
O759 O 0.06929 0.54047 0.55557 0.0
O760 O 0.01441 0.56322 0.51686 0.0
O761 O 0.02517 0.56939 0.55731 0.0
O762 O 0.02281 0.55736 0.4736 0.0
O763 O 0.04854 0.58557 0.46675 0.0
O764 O 0.05079 0.60486 0.53821 0.0
O765 O 0.03957 0.61909 0.50871 0.0
O766 O 0.09369 0.59749 0.54799 0.0
O767 O 0.08309 0.59025 0.50746 0.0
H768 H 0.08548 0.60128 0.65392 0.0
H769 H 0.07151 0.62639 0.68021 0.0
H770 H 0.03091 0.64225 0.62058 0.0
H771 H 0.04296 0.61474 0.59524 0.0
H772 H 1.00497 0.54287 0.42053 0.0
H773 H 0.01178 0.51702 0.38878 0.0
H774 H 0.07785 0.52899 0.42283 0.0
H775 H 0.07067 0.55418 0.45494 0.0
Pr776 Pr 0.77834 0.81735 0.28142 0.0
Pr777 Pr 0.82679 0.8406 0.28382 0.0
C778 C 0.73928 0.79479 0.28799 0.0
C779 C 0.72238 0.79803 0.30132 0.0
C780 C 0.70095 0.79128 0.29003 0.0
C781 C 0.68452 0.79406 0.30211 0.0
C782 C 0.68918 0.80361 0.32583 0.0
C783 C 0.71072 0.81031 0.33718 0.0
C784 C 0.7272 0.80763 0.32501 0.0
C785 C 0.78737 0.86106 0.26525 0.0
C786 C 0.80671 0.85074 0.33054 0.0
C787 C 0.86541 0.86369 0.27654 0.0
C788 C 0.88313 0.85959 0.26484 0.0
C789 C 0.89342 0.84151 0.27008 0.0
C790 C 0.91102 0.83883 0.25996 0.0
C791 C 0.91866 0.85404 0.24428 0.0
C792 C 0.90797 0.87168 0.23852 0.0
C793 C 0.89043 0.87448 0.24879 0.0
C794 C 0.81796 0.7965 0.29936 0.0
C795 C 0.79809 0.80666 0.23485 0.0
O796 O 0.75718 0.79192 0.29971 0.0
O797 O 0.74214 0.80786 0.27125 0.0
O798 O 0.79723 0.85555 0.28337 0.0
O799 O 0.77123 0.84404 0.25536 0.0
O800 O 0.82099 0.86021 0.31812 0.0
O801 O 0.79061 0.83269 0.32124 0.0
O802 O 0.84744 0.86412 0.26314 0.0
O803 O 0.86257 0.85334 0.29513 0.0
O804 O 0.80798 0.80253 0.28163 0.0
O805 O 0.83451 0.81315 0.30897 0.0
O806 O 0.78398 0.79728 0.24746 0.0
O807 O 0.81418 0.82488 0.2439 0.0
H808 H 0.69689 0.78377 0.2718 0.0
H809 H 0.66811 0.78838 0.29294 0.0
H810 H 0.71484 0.8179 0.35538 0.0
H811 H 0.74365 0.8131 0.33409 0.0
H812 H 0.88806 0.8296 0.28222 0.0
H813 H 0.91872 0.82485 0.26447 0.0
H814 H 0.91357 0.88375 0.22661 0.0
H815 H 0.88277 0.88856 0.2445 0.0
Pr816 Pr 0.81628 0.35284 0.79658 0.0
Pr817 Pr 0.78694 0.29987 0.76773 0.0
C818 C 0.84962 0.38732 0.81797 0.0
C819 C 0.85936 0.41196 0.81636 0.0
C820 C 0.84692 0.42858 0.81326 0.0
C821 C 0.85662 0.45173 0.81096 0.0
C822 C 0.87881 0.45845 0.81141 0.0
C823 C 0.89116 0.44176 0.8145 0.0
C824 C 0.88151 0.41872 0.81703 0.0
C825 C 0.77436 0.35386 0.77623 0.0
C826 C 0.81005 0.34257 0.73791 0.0
C827 C 0.75382 0.26597 0.74467 0.0
C828 C 0.74211 0.24161 0.74491 0.0
C829 C 0.73629 0.22622 0.72399 0.0
C830 C 0.72391 0.20348 0.72331 0.0
C831 C 0.71696 0.19575 0.74355 0.0
C832 C 0.7232 0.2111 0.76465 0.0
C833 C 0.73571 0.23383 0.76534 0.0
C834 C 0.82881 0.29925 0.7888 0.0
C835 C 0.7939 0.30996 0.82648 0.0
O836 O 0.85089 0.37207 0.80065 0.0
O837 O 0.83123 0.38274 0.82542 0.0
O838 O 0.78305 0.33677 0.77677 0.0
O839 O 0.78782 0.37234 0.78839 0.0
O840 O 0.79635 0.32201 0.73747 0.0
O841 O 0.82067 0.35592 0.75759 0.0
O842 O 0.75197 0.28186 0.7611 0.0
O843 O 0.77305 0.26918 0.73922 0.0
O844 O 0.82005 0.31617 0.78704 0.0
O845 O 0.81536 0.28031 0.77747 0.0
O846 O 0.80801 0.33016 0.82666 0.0
O847 O 0.78245 0.29695 0.8069 0.0
H848 H 0.82973 0.42365 0.81242 0.0
H849 H 0.84675 0.46427 0.80845 0.0
H850 H 0.90833 0.44659 0.81519 0.0
H851 H 0.89133 0.4061 0.81935 0.0
H852 H 0.74112 0.23191 0.70806 0.0
H853 H 0.71977 0.19196 0.70688 0.0
H854 H 0.71799 0.20578 0.78051 0.0
H855 H 0.74004 0.2454 0.78174 0.0
Pr856 Pr 0.78046 0.8142 0.7776 0.0
Pr857 Pr 0.82265 0.85159 0.79092 0.0
C858 C 0.7407 0.78798 0.77699 0.0
C859 C 0.72342 0.79029 0.79014 0.0
C860 C 0.70194 0.78147 0.77946 0.0
C861 C 0.68542 0.78432 0.79149 0.0
C862 C 0.69008 0.79601 0.81449 0.0
C863 C 0.71167 0.80477 0.82516 0.0
C864 C 0.72817 0.80204 0.81306 0.0
C865 C 0.79591 0.83241 0.73908 0.0
C866 C 0.78015 0.86956 0.79475 0.0
C867 C 0.86294 0.87648 0.79155 0.0
C868 C 0.88077 0.87259 0.77955 0.0
C869 C 0.8936 0.85741 0.78737 0.0
C870 C 0.90959 0.85283 0.77531 0.0
C871 C 0.91338 0.86347 0.75522 0.0
C872 C 0.90087 0.87906 0.7477 0.0
C873 C 0.88477 0.88354 0.7597 0.0
C874 C 0.80725 0.83235 0.82917 0.0
C875 C 0.82331 0.79669 0.77447 0.0
O876 O 0.75797 0.7838 0.7888 0.0
O877 O 0.7449 0.80341 0.76257 0.0
O878 O 0.79622 0.8442 0.7584 0.0
O879 O 0.78631 0.81044 0.73867 0.0
O880 O 0.79954 0.87661 0.79002 0.0
O881 O 0.77208 0.84724 0.79639 0.0
O882 O 0.84615 0.88044 0.77855 0.0
O883 O 0.85782 0.86285 0.80732 0.0
O884 O 0.80719 0.82117 0.80967 0.0
O885 O 0.81646 0.85451 0.82993 0.0
O886 O 0.804 0.78948 0.77933 0.0
O887 O 0.83061 0.8188 0.77167 0.0
H888 H 0.69794 0.77246 0.76176 0.0
H889 H 0.66899 0.77717 0.78284 0.0
H890 H 0.71582 0.81413 0.84271 0.0
H891 H 0.74465 0.80929 0.82157 0.0
H892 H 0.89115 0.84878 0.80268 0.0
H893 H 0.91912 0.84104 0.78187 0.0
H894 H 0.90322 0.88745 0.73223 0.0
H895 H 0.87526 0.89539 0.75324 0.0
Pr896 Pr 0.52675 0.56475 0.51946 0.0
Pr897 Pr 0.57533 0.59056 0.54383 0.0
C898 C 0.48379 0.55545 0.50717 0.0
C899 C 0.46793 0.56972 0.50914 0.0
C900 C 0.4471 0.562 0.49626 0.0
C901 C 0.43197 0.57544 0.49826 0.0
C902 C 0.43745 0.59696 0.51311 0.0
C903 C 0.45848 0.60475 0.52577 0.0
C904 C 0.47354 0.59122 0.52387 0.0
C905 C 0.55783 0.56293 0.49258 0.0
C906 C 0.54538 0.62376 0.5214 0.0
C907 C 0.61847 0.6012 0.5555 0.0
C908 C 0.63497 0.58743 0.55649 0.0
C909 C 0.65677 0.59874 0.56219 0.0
C910 C 0.67241 0.58564 0.56236 0.0
C911 C 0.6665 0.56097 0.55686 0.0
C912 C 0.64458 0.54979 0.55124 0.0
C913 C 0.62904 0.56289 0.55102 0.0
C914 C 0.54396 0.59034 0.5711 0.0
C915 C 0.55635 0.53129 0.54268 0.0
O916 O 0.4935 0.55077 0.52691 0.0
O917 O 0.49677 0.56121 0.49247 0.0
O918 O 0.55721 0.58024 0.50652 0.0
O919 O 0.5403 0.54636 0.48942 0.0
O920 O 0.56544 0.62202 0.52701 0.0
O921 O 0.52891 0.60587 0.52146 0.0
O922 O 0.60826 0.60203 0.53457 0.0
O923 O 0.60578 0.5981 0.57093 0.0
O924 O 0.54538 0.57395 0.55659 0.0
O925 O 0.56039 0.60828 0.57351 0.0
O926 O 0.53632 0.53243 0.53522 0.0
O927 O 0.57279 0.54969 0.54426 0.0
H928 H 0.4425 0.54551 0.48474 0.0
H929 H 0.41599 0.56904 0.48808 0.0
H930 H 0.46317 0.62103 0.53759 0.0
H931 H 0.48952 0.59745 0.53408 0.0
H932 H 0.66169 0.61769 0.56639 0.0
H933 H 0.68913 0.59482 0.56698 0.0
H934 H 0.63941 0.53091 0.54653 0.0
H935 H 0.61238 0.55383 0.54628 0.0
Pr936 Pr 0.07737 0.58032 0.0384 0.0
Pr937 Pr 0.02715 0.57304 0.03008 0.0
C938 C 0.11857 0.57733 0.048 0.0
C939 C 0.13301 0.56092 0.04855 0.0
C940 C 0.14606 0.56059 0.0315 0.0
C941 C 0.16136 0.54714 0.03282 0.0
C942 C 0.1642 0.53378 0.05137 0.0
C943 C 0.15069 0.53351 0.06809 0.0
C944 C 0.13529 0.547 0.06674 0.0
C945 C 0.06062 0.60394 1.00377 0.0
C946 C 0.04556 0.52972 0.0087 0.0
C947 C 0.98583 0.57579 0.02058 0.0
C948 C 0.97109 0.59178 0.02168 0.0
C949 C 0.95691 0.58904 0.03766 0.0
C950 C 0.94176 0.60259 0.03808 0.0
C951 C 0.94023 0.61924 0.02242 0.0
C952 C 0.95453 0.62214 0.00647 0.0
C953 C 0.96981 0.60857 0.00611 0.0
C954 C 0.04471 0.55031 0.06529 0.0
C955 C 0.05908 0.62347 0.06025 0.0
O956 O 0.10642 0.57746 0.06395 0.0
O957 O 0.10933 0.58077 0.02746 0.0
O958 O 0.05222 0.5832 0.00692 0.0
O959 O 0.07904 0.61226 0.01737 0.0
O960 O 0.02895 0.53947 0.00631 0.0
O961 O 0.06432 0.54085 0.02143 0.0
O962 O 0.99852 0.5779 0.00508 0.0
O963 O 0.99465 0.57035 0.0404 0.0
O964 O 0.05236 0.57096 0.06147 0.0
O965 O 0.02642 0.54119 0.05166 0.0
O966 O 0.07578 0.61388 0.06198 0.0
O967 O 0.04006 0.61233 0.04807 0.0
H968 H 0.14478 0.5712 0.01735 0.0
H969 H 0.17118 0.54744 0.0194 0.0
H970 H 0.15251 0.52356 0.0827 0.0
H971 H 0.12559 0.54695 0.08026 0.0
H972 H 0.95724 0.576 0.04961 0.0
H973 H 0.93078 0.59949 0.05028 0.0
H974 H 0.9539 0.63489 0.99425 0.0
H975 H 0.98041 0.61104 0.99344 0.0
H976 H 0.03965 0.26409 0.99191 0.0
H977 H 0.99669 0.21793 0.93427 0.0
H978 H 0.04526 0.22997 0.01094 0.0
H979 H 1.0023 0.18389 0.95323 0.0
H980 H 1.00278 0.12797 1.00223 0.0
H981 H 0.99559 0.1632 0.987 0.0
H982 H 0.06293 0.19708 0.00481 0.0
H983 H 0.07021 0.16173 0.0202 0.0
C984 C 0.03117 0.2467 0.98342 0.0
C985 C 0.01766 0.24383 0.96154 0.0
C986 C 0.03455 0.22709 0.99425 0.0
C987 C 0.02433 0.20408 0.98363 0.0
C988 C 0.01031 0.20129 0.96208 0.0
C989 C 0.00711 0.22086 0.95115 0.0
C990 C 0.01611 0.14294 1.00313 0.0
C991 C 0.03715 0.14183 0.01246 0.0
C992 C 0.01196 0.16317 0.99422 0.0
C993 C 0.02866 0.18303 0.99449 0.0
C994 C 0.04962 0.18222 1.00445 0.0
C995 C 0.05382 0.16187 0.01322 0.0
H996 H 0.14094 0.85341 0.2204 0.0
H997 H 0.17309 0.86333 0.16131 0.0
H998 H 0.17459 0.85192 0.24472 0.0
H999 H 0.20678 0.86177 0.18567 0.0
H1000 H 0.26654 0.88577 0.24364 0.0
H1001 H 0.23271 0.88595 0.21911 0.0
H1002 H 0.20087 0.82661 0.24934 0.0
H1003 H 0.23497 0.82652 0.27413 0.0
C1004 C 0.1552 0.85532 0.21259 0.0
C1005 C 0.15432 0.8586 0.1889 0.0
C1006 C 0.17446 0.85426 0.22651 0.0
C1007 C 0.19339 0.85669 0.21717 0.0
C1008 C 0.19253 0.86005 0.19349 0.0
C1009 C 0.17321 0.86088 0.1795 0.0
C1010 C 0.25233 0.87276 0.24512 0.0
C1011 C 0.25341 0.85617 0.26089 0.0
C1012 C 0.23295 0.87276 0.2309 0.0
C1013 C 0.21406 0.85627 0.23218 0.0
C1014 C 0.2151 0.83968 0.24805 0.0
C1015 C 0.23461 0.83954 0.26217 0.0
H1016 H 0.53196 0.878 0.47833 0.0
H1017 H 0.52699 0.90613 0.41238 0.0
H1018 H 0.53424 0.91725 0.4987 0.0
H1019 H 0.5291 0.94478 0.43253 0.0
H1020 H 0.51201 1.00579 0.47338 0.0
H1021 H 0.50737 0.96531 0.45551 0.0
H1022 H 0.56068 0.95761 0.50576 0.0
H1023 H 0.5654 0.99809 0.52364 0.0
C1024 C 0.53124 0.89244 0.46819 0.0
C1025 C 0.52939 0.88887 0.44373 0.0
C1026 C 0.53263 0.91492 0.47984 0.0
C1027 C 0.53177 0.93413 0.46721 0.0
C1028 C 0.52957 0.93037 0.44278 0.0
C1029 C 0.52852 0.90815 0.43124 0.0
C1030 C 0.52271 0.99547 0.48066 0.0
C1031 C 0.53922 1.00533 0.49977 0.0
C1032 C 0.52008 0.97228 0.4704 0.0
C1033 C 0.53368 0.95823 0.47919 0.0
C1034 C 0.54983 0.96788 0.49868 0.0
C1035 C 0.55266 0.99118 0.50876 0.0
H1036 H 0.5273 0.36308 0.66779 0.0
H1037 H 0.53631 0.31459 0.71775 0.0
H1038 H 0.49323 0.36533 0.67972 0.0
H1039 H 0.50253 0.31699 0.72965 0.0
H1040 H 0.43172 0.30918 0.73052 0.0
H1041 H 0.46362 0.30583 0.71456 0.0
H1042 H 0.481 0.38113 0.7151 0.0
H1043 H 0.44928 0.38459 0.73139 0.0
C1044 C 0.522 0.35283 0.68121 0.0
C1045 C 0.53459 0.3387 0.69184 0.0
C1046 C 0.50254 0.35422 0.68812 0.0
C1047 C 0.49516 0.34131 0.7056 0.0
C1048 C 0.50761 0.32692 0.71593 0.0
C1049 C 0.52708 0.32569 0.70919 0.0
C1050 C 0.44236 0.32506 0.72733 0.0
C1051 C 0.43796 0.34718 0.73244 0.0
C1052 C 0.46062 0.32312 0.71812 0.0
C1053 C 0.4749 0.34322 0.71367 0.0
C1054 C 0.47019 0.36527 0.71808 0.0
C1055 C 0.45197 0.36724 0.72741 0.0
H1056 H 0.09197 0.93061 0.63526 0.0
H1057 H 0.0491 0.88982 0.57456 0.0
H1058 H 0.09053 0.96653 0.61827 0.0
H1059 H 0.04633 0.92593 0.55797 0.0
H1060 H 0.05668 0.99339 0.5244 0.0
H1061 H 0.06047 0.95726 0.54015 0.0
H1062 H 0.07166 0.99385 0.61029 0.0
H1063 H 0.06923 0.03013 0.59433 0.0
C1064 C 0.08202 0.92934 0.6183 0.0
C1065 C 0.07063 0.90726 0.60631 0.0
C1066 C 0.08099 0.9501 0.60855 0.0
C1067 C 0.0681 0.94963 0.58665 0.0
C1068 C 0.05675 0.92737 0.57463 0.0
C1069 C 0.05819 0.90651 0.58421 0.0
C1070 C 0.06012 0.99372 0.5432 0.0
C1071 C 0.06278 0.01479 0.55805 0.0
C1072 C 0.06211 0.97283 0.55234 0.0
C1073 C 0.06638 0.97216 0.57669 0.0
C1074 C 0.0689 0.99337 0.59148 0.0
C1075 C 0.06737 0.01435 0.58231 0.0
H1076 H 0.45441 0.82064 0.90475 0.0
H1077 H 0.4667 0.80665 0.8349 0.0
H1078 H 0.41678 0.81894 0.88854 0.0
H1079 H 0.42929 0.80446 0.81884 0.0
H1080 H 0.35585 0.78583 0.79914 0.0
H1081 H 0.39062 0.78093 0.81838 0.0
H1082 H 0.40024 0.84664 0.86263 0.0
H1083 H 0.3658 0.85178 0.84327 0.0
C1084 C 0.44896 0.81661 0.88603 0.0
C1085 C 0.46349 0.81383 0.8711 0.0
C1086 C 0.4275 0.81581 0.87674 0.0
C1087 C 0.4201 0.81162 0.85239 0.0
C1088 C 0.43442 0.80754 0.83764 0.0
C1089 C 0.45587 0.80888 0.84686 0.0
C1090 C 0.36532 0.79915 0.81307 0.0
C1091 C 0.35811 0.8193 0.8195 0.0
C1092 C 0.38522 0.79634 0.82407 0.0
C1093 C 0.39812 0.81336 0.84209 0.0
C1094 C 0.39058 0.8331 0.849 0.0
C1095 C 0.37092 0.83614 0.83772 0.0
H1096 H 0.55864 0.27143 0.07731 0.0
H1097 H 0.5672 0.23856 0.14022 0.0
H1098 H 0.55281 0.23304 0.05382 0.0
H1099 H 0.56102 0.20058 0.11701 0.0
H1100 H 0.57219 0.13985 0.06923 0.0
H1101 H 0.57765 0.17836 0.09216 0.0
H1102 H 0.52831 0.19491 0.04248 0.0
H1103 H 0.52296 0.15638 0.01976 0.0
C1104 C 0.55915 0.25609 0.08616 0.0
C1105 C 0.56352 0.25833 0.11073 0.0
C1106 C 0.55573 0.234 0.07269 0.0
C1107 C 0.55661 0.21355 0.08344 0.0
C1108 C 0.56066 0.21585 0.10799 0.0
C1109 C 0.56407 0.23779 0.12136 0.0
C1110 C 0.56224 0.15156 0.06353 0.0
C1111 C 0.54674 0.14481 0.04308 0.0
C1112 C 0.56542 0.17374 0.07658 0.0
C1113 C 0.55335 0.18992 0.06933 0.0
C1114 C 0.53806 0.18316 0.04859 0.0
C1115 C 0.53486 0.16096 0.03563 0.0
H1116 H 0.07109 0.30636 0.35693 0.0
H1117 H 0.11028 0.3147 0.42534 0.0
H1118 H 0.1016 0.30152 0.33887 0.0
H1119 H 0.14086 0.30998 0.40724 0.0
H1120 H 0.1833 0.27464 0.36564 0.0
H1121 H 0.15285 0.27928 0.38407 0.0
H1122 H 0.1367 0.3252 0.33403 0.0
H1123 H 0.16683 0.32022 0.31538 0.0
C1124 C 0.08623 0.3072 0.36812 0.0
C1125 C 0.08825 0.31095 0.39258 0.0
C1126 C 0.10375 0.30454 0.35776 0.0
C1127 C 0.12369 0.30539 0.37161 0.0
C1128 C 0.12568 0.30901 0.39608 0.0
C1129 C 0.10819 0.31186 0.40644 0.0
C1130 C 0.17318 0.28562 0.35852 0.0
C1131 C 0.17752 0.29707 0.33905 0.0
C1132 C 0.15585 0.28845 0.3692 0.0
C1133 C 0.14233 0.3026 0.36051 0.0
C1134 C 0.14667 0.314 0.34103 0.0
C1135 C 0.16408 0.31134 0.33048 0.0
H1136 H 0.93527 0.02809 0.13698 0.0
H1137 H 0.93645 0.10208 0.14654 0.0
H1138 H 0.96416 0.03583 0.11512 0.0
H1139 H 0.96442 0.10991 0.12273 0.0
H1140 H 0.03117 0.11779 0.10188 0.0
H1141 H 1.00079 0.11241 0.12271 0.0
H1142 H 0.97332 0.04482 0.08076 0.0
H1143 H 1.00463 0.0489 0.06293 0.0
C1144 C 0.94133 0.04597 0.13373 0.0
C1145 C 0.93365 0.06447 0.1433 0.0
C1146 C 0.95788 0.05048 0.12103 0.0
C1147 C 0.96664 0.07355 0.11687 0.0
C1148 C 0.95837 0.09201 0.12587 0.0
C1149 C 0.94219 0.08753 0.13924 0.0
C1150 C 0.0186 0.10181 0.09738 0.0
C1151 C 0.02004 0.08391 0.08055 0.0
C1152 C 1.00107 0.09879 0.10905 0.0
C1153 C 0.98456 0.07804 0.1036 0.0
C1154 C 0.98586 0.06073 0.08603 0.0
C1155 C 1.00363 0.06334 0.07523 0.0
H1156 H 0.31475 0.78839 0.47622 0.0
H1157 H 0.26931 0.72568 0.44078 0.0
H1158 H 0.31477 0.80487 0.4393 0.0
H1159 H 0.26782 0.74254 0.40439 0.0
H1160 H 0.28237 0.76721 0.33644 0.0
H1161 H 0.28303 0.7513 0.3734 0.0
H1162 H 0.29924 0.82196 0.4102 0.0
H1163 H 0.30016 0.83764 0.37303 0.0
C1164 C 0.30457 0.77824 0.46055 0.0
C1165 C 0.29221 0.75563 0.46144 0.0
C1166 C 0.30437 0.78776 0.43926 0.0
C1167 C 0.29135 0.77519 0.41833 0.0
C1168 C 0.27863 0.75273 0.41961 0.0
C1169 C 0.2793 0.74303 0.44068 0.0
C1170 C 0.28591 0.77933 0.35244 0.0
C1171 C 0.29108 0.8037 0.35172 0.0
C1172 C 0.28619 0.7702 0.37385 0.0
C1173 C 0.29109 0.78514 0.39531 0.0
C1174 C 0.29582 0.80964 0.3944 0.0
C1175 C 0.29611 0.81874 0.37297 0.0
H1176 H 0.63526 0.99498 0.64781 0.0
H1177 H 0.57425 0.95137 0.65449 0.0
H1178 H 0.61705 0.01441 0.61846 0.0
H1179 H 0.55609 0.97101 0.62558 0.0
H1180 H 0.52966 1.00385 0.56367 0.0
H1181 H 0.5497 0.97965 0.58544 0.0
H1182 H 0.59432 0.04248 0.62251 0.0
H1183 H 0.57428 0.06661 0.60062 0.0
C1184 C 0.61804 0.98912 0.64261 0.0
C1185 C 0.60616 0.97183 0.6537 0.0
C1186 C 0.60759 1.00044 0.62599 0.0
C1187 C 0.5851 0.99459 0.62006 0.0
C1188 C 0.57343 0.97594 0.62972 0.0
C1189 C 0.58385 0.96468 0.64633 0.0
C1190 C 0.54368 0.01245 0.57658 0.0
C1191 C 0.55041 0.03709 0.58057 0.0
C1192 C 0.55521 0.9986 0.58896 0.0
C1193 C 0.57368 0.00912 0.6056 0.0
C1194 C 0.5804 0.0338 0.60949 0.0
C1195 C 0.56884 0.04764 0.59714 0.0
H1196 H 0.31312 0.37667 0.98437 0.0
H1197 H 0.3162 0.44331 0.95766 0.0
H1198 H 0.31143 0.35765 0.94452 0.0
H1199 H 0.31474 0.42453 0.91852 0.0
H1200 H 0.33616 0.3893 0.85665 0.0
H1201 H 0.33876 0.40531 0.89735 0.0
H1202 H 0.28561 0.34939 0.90427 0.0
H1203 H 0.28284 0.33332 0.8634 0.0
C1204 C 0.31346 0.38725 0.97012 0.0
C1205 C 0.31475 0.41153 0.97433 0.0
C1206 C 0.31242 0.37636 0.94731 0.0
C1207 C 0.3131 0.38963 0.92837 0.0
C1208 C 0.31445 0.41383 0.9327 0.0
C1209 C 0.31514 0.42457 0.95523 0.0
C1210 C 0.32504 0.38032 0.8668 0.0
C1211 C 0.30917 0.36012 0.85661 0.0
C1212 C 0.32652 0.38954 0.89015 0.0
C1213 C 0.31236 0.37866 0.90406 0.0
C1214 C 0.29684 0.35809 0.89409 0.0
C1215 C 0.29517 0.34902 0.8706 0.0
H1216 H 0.95145 0.06784 0.26326 0.0
H1217 H 0.96564 1.0018 0.24044 0.0
H1218 H 0.97239 0.06859 0.30177 0.0
H1219 H 0.98658 1.00255 0.27922 0.0
H1220 H 0.02028 0.06992 0.36608 0.0
H1221 H 0.00967 0.07008 0.32412 0.0
H1222 H 0.97284 0.99846 0.31787 0.0
H1223 H 0.9828 0.99842 0.35976 0.0
C1224 C 0.95934 0.05368 0.26637 0.0
C1225 C 0.95671 0.03462 0.24896 0.0
C1226 C 0.97148 0.05421 0.28835 0.0
C1227 C 0.98101 0.03557 0.29344 0.0
C1228 C 0.97928 0.01707 0.27571 0.0
C1229 C 0.96737 0.0167 0.25355 0.0
C1230 C 0.00999 0.05417 0.35575 0.0
C1231 C 1.00211 0.03428 0.36635 0.0
C1232 C 1.00408 0.05423 0.33174 0.0
C1233 C 0.99041 0.03432 0.31785 0.0
C1234 C 0.98363 0.01395 0.32815 0.0
C1235 C 0.98935 0.01395 0.35218 0.0
H1236 H 0.26672 0.73097 0.61953 0.0
H1237 H 0.32174 0.77735 0.60221 0.0
H1238 H 0.27228 0.75415 0.65739 0.0
H1239 H 0.32822 0.80017 0.64094 0.0
H1240 H 0.32352 0.84853 0.7051 0.0
H1241 H 0.31824 0.82649 0.66647 0.0
H1242 H 0.29242 0.76265 0.69427 0.0
H1243 H 0.29646 0.78533 0.7325 0.0
C1244 C 0.28015 0.74615 0.6239 0.0
C1245 C 0.29381 0.75225 0.60777 0.0
C1246 C 0.28353 0.75939 0.64587 0.0
C1247 C 0.30096 0.779 0.65278 0.0
C1248 C 0.31446 0.78539 0.63641 0.0
C1249 C 0.31081 0.77229 0.61411 0.0
C1250 C 0.31674 0.82975 0.70293 0.0
C1251 C 0.31045 0.81863 0.72193 0.0
C1252 C 0.31384 0.817 0.68071 0.0
C1253 C 0.3048 0.7926 0.67682 0.0
C1254 C 0.29898 0.78143 0.69613 0.0
C1255 C 0.30156 0.79433 0.71828 0.0
H1256 H 0.60868 0.97373 0.79798 0.0
H1257 H 0.54408 0.95799 0.75897 0.0
H1258 H 0.59523 0.9806 0.83409 0.0
H1259 H 0.53055 0.96407 0.79515 0.0
H1260 H 0.52453 0.02173 0.85155 0.0
H1261 H 0.53349 1.00119 0.81791 0.0
H1262 H 0.57377 0.96848 0.86374 0.0
H1263 H 0.56517 0.98983 0.89769 0.0
C1264 C 0.59154 0.97093 0.79721 0.0
C1265 C 0.57747 0.96586 0.77562 0.0
C1266 C 0.58381 0.97478 0.81795 0.0
C1267 C 0.56186 0.9734 0.81741 0.0
C1268 C 0.54761 0.96589 0.79604 0.0
C1269 C 0.55535 0.96231 0.77534 0.0
C1270 C 0.53518 0.01003 0.85446 0.0
C1271 C 0.54441 0.00766 0.8772 0.0
C1272 C 0.5401 0.99797 0.83516 0.0
C1273 C 0.55436 0.98315 0.83812 0.0
C1274 C 0.56285 0.9799 0.86091 0.0
C1275 C 0.55784 0.99198 0.88031 0.0
H1276 H 0.34061 0.4213 0.14365 0.0
H1277 H 0.30679 0.35849 0.0972 0.0
H1278 H 0.33421 0.40077 0.17728 0.0
H1279 H 0.30069 0.33773 0.13088 0.0
H1280 H 0.27069 0.31803 0.19549 0.0
H1281 H 0.27956 0.33641 0.16125 0.0
H1282 H 0.34241 0.37089 0.20017 0.0
H1283 H 0.33322 0.35255 0.23436 0.0
C1284 C 0.33207 0.40298 0.14058 0.0
C1285 C 0.32422 0.39162 0.11761 0.0
C1286 C 0.32845 0.39112 0.15995 0.0
C1287 C 0.3168 0.36751 0.157 0.0
C1288 C 0.30943 0.35598 0.13398 0.0
C1289 C 0.3131 0.36784 0.11459 0.0
C1290 C 0.28644 0.32945 0.19669 0.0
C1291 C 0.30119 0.33408 0.21783 0.0
C1292 C 0.29161 0.33993 0.17697 0.0
C1293 C 0.31172 0.35535 0.17777 0.0
C1294 C 0.32662 0.35953 0.19886 0.0
C1295 C 0.32141 0.34899 0.21855 0.0
H1296 H 0.28071 0.01088 0.05526 0.0
H1297 H 0.23232 0.94597 0.04748 0.0
H1298 H 0.25335 0.03317 0.0569 0.0
H1299 H 0.20482 0.96836 0.04887 0.0
H1300 H 0.16602 0.01804 0.07781 0.0
H1301 H 0.19302 0.99521 0.07633 0.0
H1302 H 0.22296 0.04107 0.03099 0.0
H1303 H 0.1958 0.06373 0.03215 0.0
C1304 C 0.26421 1.00135 0.05389 0.0
C1305 C 0.25869 0.97663 0.05121 0.0
C1306 C 0.2485 0.01415 0.05468 0.0
C1307 C 0.22687 1.00257 0.05292 0.0
C1308 C 0.22136 0.97783 0.05048 0.0
C1309 C 0.23709 0.965 0.04958 0.0
C1310 C 0.1782 0.02314 0.0673 0.0
C1311 C 0.17867 0.0428 0.05511 0.0
C1312 C 0.19371 0.01003 0.06648 0.0
C1313 C 0.21018 0.01631 0.05357 0.0
C1314 C 0.21068 0.03596 0.04139 0.0
C1315 C 0.19512 0.049 0.04211 0.0
H1316 H 0.69235 0.70514 0.01204 0.0
H1317 H 0.714 0.64391 0.98905 0.0
H1318 H 0.6573 0.68003 0.01355 0.0
H1319 H 0.67913 0.61888 0.99069 0.0
H1320 H 0.60701 0.58493 0.97153 0.0
H1321 H 0.64191 0.61022 0.97043 0.0
H1322 H 0.64028 0.64951 0.03609 0.0
H1323 H 0.60506 0.62421 0.03695 0.0
C1324 C 0.68962 0.68635 0.0072 0.0
C1325 C 0.706 0.67657 1.00034 0.0
C1326 C 0.66958 0.67193 0.00827 0.0
C1327 C 0.66536 0.64739 1.0023 0.0
C1328 C 0.6817 0.6377 0.9952 0.0
C1329 C 0.70175 0.65207 0.99431 0.0
C1330 C 0.61416 0.59887 0.98581 0.0
C1331 C 0.6034 0.60242 1.00446 0.0
C1332 C 0.63422 0.61334 0.98523 0.0
C1333 C 0.644 0.63192 1.00319 0.0
C1334 C 0.63317 0.63549 0.02188 0.0
C1335 C 0.61312 0.62084 0.02254 0.0
H1336 H 0.72211 0.53822 0.39314 0.0
H1337 H 0.7782 0.58756 0.38143 0.0
H1338 H 0.74007 0.50624 0.38816 0.0
H1339 H 0.79596 0.55552 0.37598 0.0
H1340 H 0.82514 0.49234 0.37248 0.0
H1341 H 0.81052 0.52293 0.39085 0.0
H1342 H 0.74769 0.48955 0.3512 0.0
H1343 H 0.76216 0.45948 0.33273 0.0
C1344 C 0.73844 0.54231 0.39001 0.0
C1345 C 0.74861 0.5653 0.38722 0.0
C1346 C 0.74868 0.524 0.38707 0.0
C1347 C 0.76924 0.52833 0.38122 0.0
C1348 C 0.78014 0.55163 0.38054 0.0
C1349 C 0.76991 0.56998 0.38355 0.0
C1350 C 0.80819 0.49153 0.36779 0.0
C1351 C 0.79482 0.47348 0.35111 0.0
C1352 C 0.79983 0.50896 0.37839 0.0
C1353 C 0.77795 0.50855 0.37259 0.0
C1354 C 0.76453 0.49009 0.35648 0.0
C1355 C 0.77286 0.47282 0.34584 0.0
H1356 H 0.87875 0.48602 0.50032 0.0
H1357 H 0.88688 0.49457 0.57552 0.0
H1358 H 0.91627 0.50502 0.50258 0.0
H1359 H 0.92448 0.51517 0.57808 0.0
H1360 H 0.99648 0.53694 0.57252 0.0
H1361 H 0.95994 0.51507 0.57305 0.0
H1362 H 0.93743 0.54284 0.51029 0.0
H1363 H 0.97387 0.56336 0.50917 0.0
C1364 C 0.88874 0.49191 0.51739 0.0
C1365 C 0.88005 0.48886 0.53773 0.0
C1366 C 0.9102 0.50315 0.51874 0.0
C1367 C 0.92342 0.51234 0.54051 0.0
C1368 C 0.91488 0.50834 0.561 0.0
C1369 C 0.89337 0.49653 0.5596 0.0
C1370 C 0.98361 0.53845 0.559 0.0
C1371 C 0.98802 0.55165 0.54067 0.0
C1372 C 0.96265 0.52593 0.55929 0.0
C1373 C 0.94565 0.52667 0.54143 0.0
C1374 C 0.9501 0.54102 0.52388 0.0
C1375 C 0.971 0.55306 0.52335 0.0
H1376 H 0.4412 0.25078 0.33152 0.0
H1377 H 0.3939 0.1847 0.31384 0.0
H1378 H 0.41331 0.2718 0.32123 0.0
H1379 H 0.36613 0.20572 0.30323 0.0
H1380 H 0.3201 0.2561 0.30495 0.0
H1381 H 0.34609 0.23352 0.31793 0.0
H1382 H 0.39222 0.2753 0.28329 0.0
H1383 H 0.36649 0.298 0.27051 0.0
C1384 C 0.42481 0.24077 0.32584 0.0
C1385 C 0.41978 0.2161 0.32331 0.0
C1386 C 0.40889 0.25278 0.3197 0.0
C1387 C 0.38763 0.24035 0.31098 0.0
C1388 C 0.38237 0.21576 0.30987 0.0
C1389 C 0.39829 0.20374 0.31595 0.0
C1390 C 0.33565 0.26018 0.29973 0.0
C1391 C 0.34125 0.27893 0.28678 0.0
C1392 C 0.35055 0.24731 0.30727 0.0
C1393 C 0.37131 0.25298 0.30202 0.0
C1394 C 0.37652 0.27095 0.28813 0.0
C1395 C 0.36167 0.28377 0.28058 0.0
H1396 H 0.33812 0.20233 0.49526 0.0
H1397 H 0.32525 0.15519 0.54673 0.0
H1398 H 0.37217 0.19102 0.49371 0.0
H1399 H 0.35878 0.14401 0.54509 0.0
H1400 H 0.42765 0.14224 0.55378 0.0
H1401 H 0.39758 0.1604 0.5557 0.0
H1402 H 0.38438 0.15486 0.48037 0.0
H1403 H 0.41497 0.13724 0.47843 0.0
C1404 C 0.34257 0.18971 0.5063 0.0
C1405 C 0.32889 0.17965 0.52106 0.0
C1406 C 0.362 0.18316 0.50535 0.0
C1407 C 0.36826 0.16671 0.51939 0.0
C1408 C 0.35467 0.15699 0.53431 0.0
C1409 C 0.33529 0.1633 0.53509 0.0
C1410 C 0.4187 0.14537 0.53762 0.0
C1411 C 0.42369 0.1381 0.51594 0.0
C1412 C 0.40129 0.15558 0.53871 0.0
C1413 C 0.38841 0.15883 0.51817 0.0
C1414 C 0.39401 0.15267 0.49652 0.0
C1415 C 0.41141 0.14235 0.49541 0.0
H1416 H 0.76867 0.6815 0.37677 0.0
H1417 H 0.71734 0.71398 0.35164 0.0
H1418 H 0.79416 0.71209 0.36291 0.0
H1419 H 0.74275 0.74411 0.33776 0.0
H1420 H 0.78366 0.76093 0.2814 0.0
H1421 H 0.76299 0.73322 0.30274 0.0
H1422 H 0.80893 0.76076 0.36608 0.0
H1423 H 0.82964 0.78905 0.34471 0.0
C1424 C 0.76291 0.69548 0.36894 0.0
C1425 C 0.7409 0.69504 0.36487 0.0
C1426 C 0.77751 0.71291 0.36101 0.0
C1427 C 0.77022 0.72999 0.34888 0.0
C1428 C 0.74861 0.73079 0.34673 0.0
C1429 C 0.73411 0.71357 0.35475 0.0
C1430 C 0.78953 0.76089 0.2998 0.0
C1431 C 0.80805 0.77727 0.3115 0.0
C1432 C 0.77765 0.74516 0.31201 0.0
C1433 C 0.78423 0.74529 0.33607 0.0
C1434 C 0.80354 0.76054 0.34754 0.0
C1435 C 0.81537 0.77657 0.33532 0.0
H1436 H 0.91749 0.60991 0.81069 0.0
H1437 H 0.97435 0.58413 0.80619 0.0
H1438 H 0.89653 0.56974 0.808 0.0
H1439 H 0.95352 0.54399 0.80431 0.0
H1440 H 0.90746 0.47302 0.78319 0.0
H1441 H 0.92613 0.51326 0.78067 0.0
H1442 H 0.89262 0.53897 0.83223 0.0
H1443 H 0.87362 0.49877 0.83421 0.0
C1444 C 0.92552 0.59566 0.80915 0.0
C1445 C 0.94761 0.60019 0.80878 0.0
C1446 C 0.91352 0.57264 0.80772 0.0
C1447 C 0.92337 0.55366 0.80611 0.0
C1448 C 0.94537 0.55818 0.80523 0.0
C1449 C 0.95735 0.58121 0.80644 0.0
C1450 C 0.90409 0.48734 0.7939 0.0
C1451 C 0.8892 0.48287 0.80896 0.0
C1452 C 0.9148 0.51035 0.79251 0.0
C1453 C 0.91096 0.52933 0.80633 0.0
C1454 C 0.89572 0.5248 0.82107 0.0
C1455 C 0.88488 0.5018 0.82229 0.0
H1456 H 0.06235 0.92179 0.13287 0.0
H1457 H 0.09179 0.89818 0.0766 0.0
H1458 H 0.0541 0.95359 0.11176 0.0
H1459 H 0.08369 0.93034 0.05549 0.0
H1460 H 0.08756 0.00936 0.04236 0.0
H1461 H 0.09475 0.97513 0.06019 0.0
H1462 H 0.03055 0.95898 0.07519 0.0
H1463 H 0.02338 0.99319 0.05742 0.0
C1464 C 0.06708 0.92337 0.11597 0.0
C1465 C 0.07776 0.90738 0.10647 0.0
C1466 C 0.06222 0.94155 0.10379 0.0
C1467 C 0.06815 0.94452 0.08186 0.0
C1468 C 0.07897 0.92863 0.07238 0.0
C1469 C 0.08355 0.91015 0.08443 0.0
C1470 C 0.07494 0.99845 0.04935 0.0
C1471 C 0.05494 1.0042 0.04859 0.0
C1472 C 0.07902 0.97871 0.05943 0.0
C1473 C 0.06329 0.96437 0.06931 0.0
C1474 C 0.04311 0.96978 0.06799 0.0
C1475 C 0.03894 0.9893 0.05761 0.0
H1476 H 0.96147 0.34134 0.85173 0.0
H1477 H 0.94249 0.27565 0.87921 0.0
H1478 H 0.92486 0.33748 0.83236 0.0
H1479 H 0.90534 0.27167 0.85933 0.0
H1480 H 0.85027 0.26411 0.79224 0.0
H1481 H 0.88527 0.266 0.8162 0.0
H1482 H 0.88897 0.33786 0.84337 0.0
H1483 H 0.85397 0.33571 0.81993 0.0
C1484 C 0.94943 0.32604 0.85372 0.0
C1485 C 0.95497 0.30875 0.867 0.0
C1486 C 0.92837 0.32393 0.84269 0.0
C1487 C 0.91217 0.30431 0.84431 0.0
C1488 C 0.91753 0.28695 0.85769 0.0
C1489 C 0.93873 0.28929 0.86917 0.0
C1490 C 0.85857 0.28026 0.80342 0.0
C1491 C 0.84967 0.30003 0.80371 0.0
C1492 C 0.87851 0.28127 0.81726 0.0
C1493 C 0.88999 0.30214 0.83153 0.0
C1494 C 0.88071 0.32164 0.83228 0.0
C1495 C 0.86075 0.32052 0.81867 0.0
H1496 H 0.55292 0.27045 0.60408 0.0
H1497 H 0.61462 0.26296 0.63724 0.0
H1498 H 0.54438 0.22966 0.58563 0.0
H1499 H 0.60703 0.223 0.61771 0.0
H1500 H 0.58115 0.14499 0.60256 0.0
H1501 H 0.58837 0.18588 0.61944 0.0
H1502 H 0.54866 0.20066 0.55867 0.0
H1503 H 0.54038 0.15926 0.54269 0.0
C1504 C 0.56487 0.26023 0.60689 0.0
C1505 C 0.58438 0.26979 0.62216 0.0
C1506 C 0.56003 0.23678 0.5963 0.0
C1507 C 0.57482 0.22255 0.60037 0.0
C1508 C 0.59482 0.23283 0.61469 0.0
C1509 C 0.59936 0.25594 0.62569 0.0
C1510 C 0.57387 0.15698 0.59291 0.0
C1511 C 0.56017 0.14887 0.57134 0.0
C1512 C 0.57819 0.18062 0.60245 0.0
C1513 C 0.56941 0.19704 0.59038 0.0
C1514 C 0.55556 0.18874 0.56877 0.0
C1515 C 0.55084 0.16494 0.5595 0.0
H1516 H 0.60247 0.82105 0.42463 0.0
H1517 H 0.56262 0.7935 0.35732 0.0
H1518 H 0.63449 0.82183 0.40711 0.0
H1519 H 0.59436 0.79388 0.34002 0.0
H1520 H 0.6539 0.81983 0.31035 0.0
H1521 H 0.62366 0.8218 0.3298 0.0
H1522 H 0.65405 0.79544 0.38953 0.0
H1523 H 0.68447 0.79359 0.37002 0.0
C1524 C 0.60054 0.81511 0.40614 0.0
C1525 C 0.58 0.80732 0.39235 0.0
C1526 C 0.61887 0.81546 0.39613 0.0
C1527 C 0.61701 0.80809 0.37211 0.0
C1528 C 0.59642 0.80012 0.35846 0.0
C1529 C 0.57819 0.79974 0.36843 0.0
C1530 C 0.65413 0.81441 0.32762 0.0
C1531 C 0.6715 0.80632 0.33853 0.0
C1532 C 0.63678 0.81552 0.33877 0.0
C1533 C 0.63629 0.80852 0.36113 0.0
C1534 C 0.65398 0.80114 0.37239 0.0
C1535 C 0.6714 0.80006 0.36121 0.0
H1536 H 0.0514 0.26793 0.4894 0.0
H1537 H 1.00144 0.22982 0.43303 0.0
H1538 H 0.05388 0.23128 0.5047 0.0
H1539 H 1.00304 0.19315 0.44889 0.0
H1540 H 0.02705 0.12824 0.46761 0.0
H1541 H 0.02252 0.16474 0.45308 0.0
H1542 H 0.03978 0.20054 0.52379 0.0
H1543 H 0.0453 0.16434 0.53801 0.0
C1544 C 0.0406 0.25175 0.48053 0.0
C1545 C 0.02622 0.25193 0.45996 0.0
C1546 C 0.04194 0.23057 0.48938 0.0
C1547 C 0.02872 0.20885 0.47813 0.0
C1548 C 0.01387 0.20923 0.45791 0.0
C1549 C 0.01276 0.23039 0.44889 0.0
C1550 C 0.02977 0.14388 0.48007 0.0
C1551 C 0.03666 0.14324 0.50401 0.0
C1552 C 0.02705 0.16495 0.47173 0.0
C1553 C 0.03083 0.186 0.48712 0.0
C1554 C 0.03717 0.18507 0.51116 0.0
C1555 C 0.04019 0.16412 0.51942 0.0
H1556 H 0.62498 0.34105 0.21097 0.0
H1557 H 0.65856 0.35869 0.15425 0.0
H1558 H 0.6587 0.34046 0.23565 0.0
H1559 H 0.69247 0.35834 0.17919 0.0
H1560 H 0.75087 0.37733 0.24075 0.0
H1561 H 0.71728 0.38091 0.21739 0.0
H1562 H 0.68501 0.31406 0.23466 0.0
H1563 H 0.71845 0.31031 0.25771 0.0
C1564 C 0.63958 0.34496 0.2038 0.0
C1565 C 0.63907 0.34984 0.1806 0.0
C1566 C 0.65889 0.34453 0.21794 0.0
C1567 C 0.67822 0.34933 0.20936 0.0
C1568 C 0.67783 0.35475 0.18633 0.0
C1569 C 0.65842 0.35482 0.17202 0.0
C1570 C 0.73655 0.36353 0.23977 0.0
C1571 C 0.73736 0.34354 0.25112 0.0
C1572 C 0.71738 0.3655 0.22623 0.0
C1573 C 0.69854 0.34774 0.22415 0.0
C1574 C 0.69923 0.3281 0.23604 0.0
C1575 C 0.71842 0.32594 0.2492 0.0
H1576 H 0.55298 0.88717 0.98169 0.0
H1577 H 0.53195 0.91508 0.91874 0.0
H1578 H 0.55854 0.92577 1.00409 0.0
H1579 H 0.53601 0.95318 0.94107 0.0
H1580 H 0.56194 0.02583 0.9829 0.0
H1581 H 0.55777 0.98749 0.9602 0.0
H1582 H 0.54439 0.95358 0.02086 0.0
H1583 H 0.55003 0.99185 0.04348 0.0
C1584 C 0.54922 0.90148 0.97269 0.0
C1585 C 0.54207 0.89795 0.9484 0.0
C1586 C 0.55227 0.92375 0.98557 0.0
C1587 C 0.54775 0.94308 0.97464 0.0
C1588 C 0.54023 0.93924 0.95031 0.0
C1589 C 0.53767 0.91716 0.93742 0.0
C1590 C 0.55805 0.01008 0.99121 0.0
C1591 C 0.55627 0.01184 0.01491 0.0
C1592 C 0.55553 0.98796 0.9782 0.0
C1593 C 0.55069 0.96694 0.98846 0.0
C1594 C 0.54862 0.96901 0.01221 0.0
C1595 C 0.55165 0.99108 0.02525 0.0
H1596 H 0.00981 0.85896 0.665 0.0
H1597 H 0.01964 0.81166 0.71593 0.0
H1598 H 0.97892 0.86614 0.68127 0.0
H1599 H 0.98933 0.8192 0.73237 0.0
H1600 H 0.92289 0.82088 0.74508 0.0
H1601 H 0.95117 0.81237 0.72518 0.0
H1602 H 0.97055 0.8856 0.71594 0.0
H1603 H 0.94209 0.89407 0.73576 0.0
C1604 C 1.00536 0.85001 0.67956 0.0
C1605 C 0.01729 0.83472 0.6891 0.0
C1606 C 0.98773 0.85426 0.68902 0.0
C1607 C 0.98156 0.84328 0.70819 0.0
C1608 C 0.99332 0.82773 0.71742 0.0
C1609 C 0.01087 0.82351 0.70802 0.0
C1610 C 0.93323 0.83522 0.73891 0.0
C1611 C 0.93027 0.85822 0.74223 0.0
C1612 C 0.94949 0.83033 0.72746 0.0
C1613 C 0.96332 0.84831 0.71903 0.0
C1614 C 0.96007 0.87123 0.72191 0.0
C1615 C 0.94375 0.87612 0.73333 0.0
H1616 H 0.17135 0.0848 0.92931 0.0
H1617 H 0.13154 0.13246 0.90952 0.0
H1618 H 0.14505 0.06621 0.95192 0.0
H1619 H 0.1055 0.11387 0.93192 0.0
H1620 H 0.09674 0.06104 0.00724 0.0
H1621 H 0.12643 0.07543 0.98695 0.0
H1622 H 0.08089 0.07232 0.9238 0.0
H1623 H 0.05136 0.0584 0.94436 0.0
C1624 C 0.1573 0.09168 0.93023 0.0
C1625 C 0.15333 0.10985 0.91732 0.0
C1626 C 0.14222 0.08093 0.94301 0.0
C1627 C 0.12302 0.08817 0.94294 0.0
C1628 C 0.11991 0.10751 0.9316 0.0
C1629 C 0.13493 0.1183 0.91898 0.0
C1630 C 0.09327 0.06302 0.98889 0.0
C1631 C 0.07203 0.05903 0.97728 0.0
C1632 C 0.11016 0.07112 0.97731 0.0
C1633 C 0.10582 0.07548 0.95404 0.0
C1634 C 0.08455 0.06949 0.94192 0.0
C1635 C 0.06771 0.06125 0.95349 0.0
H1636 H 0.84494 0.42529 0.62555 0.0
H1637 H 0.78724 0.37369 0.59361 0.0
H1638 H 0.84533 0.40725 0.66148 0.0
H1639 H 0.78687 0.35625 0.62991 0.0
H1640 H 0.79828 0.31854 0.69341 0.0
H1641 H 0.80104 0.33411 0.65641 0.0
H1642 H 0.82925 0.40354 0.69396 0.0
H1643 H 0.82741 0.38771 0.73078 0.0
C1644 C 0.83229 0.41006 0.62621 0.0
C1645 C 0.81606 0.40098 0.60663 0.0
C1646 C 0.83237 0.39978 0.64699 0.0
C1647 C 0.816 0.38028 0.64903 0.0
C1648 C 0.79997 0.37096 0.62918 0.0
C1649 C 0.80009 0.38106 0.60827 0.0
C1650 C 0.80526 0.3371 0.69377 0.0
C1651 C 0.81269 0.35178 0.71521 0.0
C1652 C 0.80669 0.34614 0.67244 0.0
C1653 C 0.81532 0.37025 0.67185 0.0
C1654 C 0.82289 0.38484 0.6934 0.0
C1655 C 0.82173 0.37574 0.7147 0.0
H1656 H 0.48521 0.1593 0.39621 0.0
H1657 H 0.55062 0.17453 0.38466 0.0
H1658 H 0.49665 0.1455 0.43333 0.0
H1659 H 0.56199 0.16088 0.42163 0.0
H1660 H 0.5239 0.0877 0.47162 0.0
H1661 H 0.51078 0.10902 0.44061 0.0
H1662 H 0.56476 0.16806 0.46528 0.0
H1663 H 0.57775 0.14685 0.4964 0.0
C1664 C 0.50209 0.16034 0.40191 0.0
C1665 C 0.51702 0.16785 0.3875 0.0
C1666 C 0.50858 0.15224 0.42301 0.0
C1667 C 0.53015 0.15191 0.43021 0.0
C1668 C 0.54527 0.16103 0.41659 0.0
C1669 C 0.53876 0.16879 0.39539 0.0
C1670 C 0.53277 0.10534 0.47058 0.0
C1671 C 0.55187 0.11559 0.48629 0.0
C1672 C 0.52521 0.1176 0.45295 0.0
C1673 C 0.53675 0.14021 0.45059 0.0
C1674 C 0.55562 0.15061 0.46664 0.0
C1675 C 0.56306 0.13846 0.48438 0.0
H1676 H 0.80819 0.76625 0.08833 0.0
H1677 H 0.74627 0.72752 0.09774 0.0
H1678 H 0.81498 0.78542 0.12876 0.0
H1679 H 0.75227 0.74738 0.1373 0.0
H1680 H 0.77647 0.76268 0.21434 0.0
H1681 H 0.77122 0.74622 0.17365 0.0
H1682 H 0.80794 0.81178 0.15783 0.0
H1683 H 0.81409 0.82781 0.19911 0.0
C1684 C 0.79584 0.76228 0.09887 0.0
C1685 C 0.77679 0.74523 0.08996 0.0
C1686 C 0.79968 0.77326 0.12208 0.0
C1687 C 0.78439 0.76767 0.13672 0.0
C1688 C 0.76484 0.75161 0.12709 0.0
C1689 C 0.76123 0.74037 0.10421 0.0
C1690 C 0.7835 0.77358 0.20221 0.0
C1691 C 0.79565 0.79658 0.21001 0.0
C1692 C 0.78032 0.76421 0.1787 0.0
C1693 C 0.7888 0.77771 0.16207 0.0
C1694 C 0.80126 0.80069 0.16999 0.0
C1695 C 0.80475 0.80995 0.19369 0.0
H1696 H 0.20924 0.10743 0.78391 0.0
H1697 H 0.14788 0.07891 0.80269 0.0
H1698 H 0.19158 0.10791 0.7441 0.0
H1699 H 0.13026 0.07868 0.76268 0.0
H1700 H 0.10577 0.11499 0.70095 0.0
H1701 H 0.12259 0.10841 0.73928 0.0
H1702 H 0.17183 0.08491 0.7082 0.0
H1703 H 0.1552 0.09205 0.66997 0.0
C1704 C 0.19203 0.1008 0.77939 0.0
C1705 C 0.17991 0.09337 0.79643 0.0
C1706 C 0.18191 0.10098 0.75655 0.0
C1707 C 0.15948 0.09356 0.75029 0.0
C1708 C 0.14751 0.08497 0.76709 0.0
C1709 C 0.15762 0.08494 0.78994 0.0
C1710 C 0.12006 0.1082 0.70235 0.0
C1711 C 0.1293 0.10419 0.68262 0.0
C1712 C 0.12966 0.10432 0.72425 0.0
C1713 C 0.14857 0.09614 0.72678 0.0
C1714 C 0.15748 0.09157 0.70688 0.0
C1715 C 0.14797 0.09564 0.68502 0.0
H1716 H 0.79624 0.44256 0.44171 0.0
H1717 H 0.80063 0.38053 0.47482 0.0
H1718 H 0.79294 0.42038 0.40358 0.0
H1719 H 0.79737 0.35824 0.43632 0.0
H1720 H 0.76671 0.32082 0.36218 0.0
H1721 H 0.77058 0.34322 0.40046 0.0
H1722 H 0.81392 0.40112 0.37945 0.0
H1723 H 0.81025 0.37828 0.34109 0.0
C1724 C 0.79647 0.42414 0.44093 0.0
C1725 C 0.79863 0.41336 0.46152 0.0
C1726 C 0.79475 0.41146 0.41895 0.0
C1727 C 0.79494 0.38753 0.41679 0.0
C1728 C 0.79698 0.37663 0.43731 0.0
C1729 C 0.79891 0.38941 0.45942 0.0
C1730 C 0.77702 0.33838 0.36567 0.0
C1731 C 0.78793 0.34796 0.34843 0.0
C1732 C 0.77936 0.35116 0.38772 0.0
C1733 C 0.79262 0.37397 0.39318 0.0
C1734 C 0.80339 0.38369 0.37581 0.0
C1735 C 0.8012 0.37073 0.35375 0.0
H1736 H 0.46659 0.16821 0.23412 0.0
H1737 H 0.52498 0.21487 0.27236 0.0
H1738 H 0.48399 0.16255 0.20109 0.0
H1739 H 0.54231 0.21046 0.2385 0.0
H1740 H 0.57292 0.16301 0.19325 0.0
H1741 H 0.55638 0.18133 0.22194 0.0
H1742 H 0.49945 0.17387 0.16994 0.0
H1743 H 0.5149 0.15303 0.14214 0.0
C1744 C 0.48301 0.17789 0.23517 0.0
C1745 C 0.49457 0.1916 0.25598 0.0
C1746 C 0.49302 0.17481 0.21605 0.0
C1747 C 0.51476 0.18578 0.21709 0.0
C1748 C 0.52573 0.20119 0.23726 0.0
C1749 C 0.51579 0.2039 0.25661 0.0
C1750 C 0.55679 0.16504 0.18793 0.0
C1751 C 0.54511 0.15572 0.16546 0.0
C1752 C 0.54742 0.17611 0.20433 0.0
C1753 C 0.5263 0.1787 0.1985 0.0
C1754 C 0.51547 0.17154 0.17534 0.0
C1755 C 0.52458 0.15987 0.15916 0.0
H1756 H 0.77657 0.79161 0.96417 0.0
H1757 H 0.79181 0.73129 0.92889 0.0
H1758 H 0.78203 0.81273 0.93055 0.0
H1759 H 0.79795 0.75248 0.89575 0.0
H1760 H 0.78807 0.78634 0.8299 0.0
H1761 H 0.78062 0.76634 0.86351 0.0
H1762 H 0.8077 0.83164 0.90916 0.0
H1763 H 0.81437 0.85178 0.87519 0.0
C1764 C 0.78122 0.78289 0.94931 0.0
C1765 C 0.78366 0.75967 0.94928 0.0
C1766 C 0.78448 0.79507 0.93001 0.0
C1767 C 0.79035 0.7844 0.91015 0.0
C1768 C 0.793 0.76124 0.91035 0.0
C1769 C 0.78963 0.74907 0.92954 0.0
C1770 C 0.79228 0.79648 0.84709 0.0
C1771 C 0.80188 0.82066 0.84983 0.0
C1772 C 0.78819 0.78495 0.8665 0.0
C1773 C 0.79376 0.79718 0.88932 0.0
C1774 C 0.80298 0.82155 0.89196 0.0
C1775 C 0.80693 0.83314 0.87246 0.0
H1776 H 0.83681 0.1498 0.06208 0.0
H1777 H 0.84778 0.19118 0.0057 0.0
H1778 H 0.86624 0.13223 0.05596 0.0
H1779 H 0.87787 0.17366 0.99979 0.0
H1780 H 0.90897 0.1115 0.97847 0.0
H1781 H 0.88332 0.13508 0.98526 0.0
H1782 H 0.90454 0.14003 0.05976 0.0
H1783 H 0.93002 0.1164 0.05298 0.0
C1784 C 0.84568 0.1554 0.04851 0.0
C1785 C 0.8398 0.17187 0.03431 0.0
C1786 C 0.86274 0.1454 0.04512 0.0
C1787 C 0.8745 0.1515 0.02739 0.0
C1788 C 0.86902 0.1684 0.01347 0.0
C1789 C 0.8519 0.17858 0.01697 0.0
C1790 C 0.90836 0.1179 0.99629 0.0
C1791 C 0.92137 0.11177 0.01519 0.0
C1792 C 0.89369 0.1315 1.00018 0.0
C1793 C 0.8917 0.13931 0.02307 0.0
C1794 C 0.90531 0.13392 0.04191 0.0
C1795 C 0.91991 0.12031 0.03803 0.0
H1796 H 0.38664 0.50588 0.02033 0.0
H1797 H 0.4034 0.47443 0.08247 0.0
H1798 H 0.42394 0.52527 0.02227 0.0
H1799 H 0.44131 0.49431 0.08451 0.0
H1800 H 0.49943 0.56188 0.0929 0.0
H1801 H 0.46358 0.53715 0.09176 0.0
H1802 H 0.45887 0.51571 0.01806 0.0
H1803 H 0.49474 0.54024 0.01932 0.0
C1804 C 0.39834 0.50301 0.03443 0.0
C1805 C 0.39195 0.48866 0.05135 0.0
C1806 C 0.41981 0.51404 0.03541 0.0
C1807 C 0.43565 0.51135 0.0535 0.0
C1808 C 0.42944 0.49681 0.07039 0.0
C1809 C 0.40779 0.48533 0.06918 0.0
C1810 C 0.49076 0.55178 0.07648 0.0
C1811 C 0.49976 0.5533 0.05608 0.0
C1812 C 0.4703 0.53746 0.07589 0.0
C1813 C 0.45831 0.52451 0.05482 0.0
C1814 C 0.46758 0.52565 0.03454 0.0
C1815 C 0.4881 0.53976 0.0352 0.0
H1816 H 0.33481 0.5874 0.66943 0.0
H1817 H 0.36252 0.59263 0.74244 0.0
H1818 H 0.31512 0.61699 0.67907 0.0
H1819 H 0.34245 0.62142 0.75213 0.0
H1820 H 0.33175 0.69463 0.75631 0.0
H1821 H 0.3469 0.66194 0.74546 0.0
H1822 H 0.28726 0.62726 0.69981 0.0
H1823 H 0.27227 0.66085 0.70989 0.0
C1824 C 0.33632 0.59452 0.68755 0.0
C1825 C 0.35042 0.5881 0.70516 0.0
C1826 C 0.32502 0.61136 0.69307 0.0
C1827 C 0.32759 0.62182 0.71629 0.0
C1828 C 0.34061 0.61414 0.734 0.0
C1829 C 0.35202 0.59758 0.72847 0.0
C1830 C 0.32193 0.68025 0.74366 0.0
C1831 C 0.30086 0.6804 0.73383 0.0
C1832 C 0.3305 0.66131 0.73774 0.0
C1833 C 0.31816 0.64189 0.72203 0.0
C1834 C 0.29713 0.64203 0.71195 0.0
C1835 C 0.28852 0.66113 0.71785 0.0
H1836 H 0.20626 0.70711 0.51065 0.0
H1837 H 0.23451 0.64957 0.52856 0.0
H1838 H 0.17057 0.68235 0.5106 0.0
H1839 H 0.19902 0.62514 0.52887 0.0
H1840 H 0.13492 0.60479 0.55796 0.0
H1841 H 0.17044 0.62771 0.55516 0.0
H1842 H 0.14558 0.64294 0.48684 0.0
H1843 H 0.11001 0.61967 0.4894 0.0
C1844 C 0.20484 0.68922 0.51455 0.0
C1845 C 0.22317 0.6803 0.51964 0.0
C1846 C 0.18445 0.67504 0.5144 0.0
C1847 C 0.1821 0.65187 0.51976 0.0
C1848 C 0.20041 0.64298 0.5248 0.0
C1849 C 0.2207 0.65696 0.52454 0.0
C1850 C 0.13706 0.61281 0.54223 0.0
C1851 C 0.11967 0.61036 0.52387 0.0
C1852 C 0.15739 0.62589 0.54063 0.0
C1853 C 0.16069 0.63717 0.52084 0.0
C1854 C 0.1434 0.63454 0.50235 0.0
C1855 C 0.12312 0.62106 0.50375 0.0
H1856 H 0.70529 0.97366 0.76347 0.0
H1857 H 0.66307 0.90424 0.74821 0.0
H1858 H 0.73427 0.95701 0.78099 0.0
H1859 H 0.69214 0.88753 0.76511 0.0
H1860 H 0.74192 0.86313 0.81 0.0
H1861 H 0.71437 0.88477 0.80114 0.0
H1862 H 0.75739 0.9333 0.76865 0.0
H1863 H 0.78514 0.91204 0.77809 0.0
C1864 C 0.70221 0.95483 0.7638 0.0
C1865 C 0.68191 0.94023 0.75436 0.0
C1866 C 0.71884 0.9453 0.77382 0.0
C1867 C 0.71555 0.92095 0.77455 0.0
C1868 C 0.69515 0.90641 0.76527 0.0
C1869 C 0.67852 0.91595 0.75535 0.0
C1870 C 0.74569 0.87877 0.80148 0.0
C1871 C 0.76564 0.88573 0.79451 0.0
C1872 C 0.72981 0.89104 0.7962 0.0
C1873 C 0.73349 0.91045 0.7837 0.0
C1874 C 0.75401 0.91847 0.77834 0.0
C1875 C 0.76997 0.90628 0.78378 0.0
H1876 H 0.74309 0.93354 0.54489 0.0
H1877 H 0.78572 1.00133 0.57105 0.0
H1878 H 0.7123 0.9513 0.54431 0.0
H1879 H 0.7551 0.0189 0.57082 0.0
H1880 H 0.69899 0.0476 0.54017 0.0
H1881 H 0.72854 0.02831 0.54158 0.0
H1882 H 0.69201 0.9703 0.56979 0.0
H1883 H 0.66195 0.98939 0.56765 0.0
C1884 C 0.74588 0.95217 0.55066 0.0
C1885 C 0.76686 0.96606 0.55783 0.0
C1886 C 0.72824 0.96232 0.55045 0.0
C1887 C 0.73124 0.98656 0.55733 0.0
C1888 C 0.75222 1.00027 0.565 0.0
C1889 C 0.76979 0.99016 0.56524 0.0
C1890 C 0.69709 0.03059 0.5464 0.0
C1891 C 0.67802 0.01999 0.55366 0.0
C1892 C 0.71418 0.01966 0.5475 0.0
C1893 C 0.71272 0.99781 0.55594 0.0
C1894 C 0.69361 0.98706 0.56307 0.0
C1895 C 0.67646 0.99808 0.56204 0.0
H1896 H 0.38755 0.44477 0.7021 0.0
H1897 H 0.33706 0.48195 0.69127 0.0
H1898 H 0.36504 0.41617 0.72121 0.0
H1899 H 0.31447 0.453 0.71002 0.0
H1900 H 0.27714 0.37798 0.72485 0.0
H1901 H 0.29729 0.40646 0.70347 0.0
H1902 H 0.35042 0.42323 0.76128 0.0
H1903 H 0.33006 0.3954 0.78303 0.0
C1904 C 0.37149 0.44653 0.70331 0.0
C1905 C 0.36407 0.46562 0.69526 0.0
C1906 C 0.35873 0.43032 0.71442 0.0
C1907 C 0.3382 0.43266 0.71725 0.0
C1908 C 0.33028 0.45092 0.70804 0.0
C1909 C 0.34319 0.46741 0.69733 0.0
C1910 C 0.29299 0.38803 0.73312 0.0
C1911 C 0.30222 0.38429 0.75544 0.0
C1912 C 0.30449 0.40421 0.72087 0.0
C1913 C 0.32546 0.41662 0.73063 0.0
C1914 C 0.33438 0.41351 0.75327 0.0
C1915 C 0.32273 0.3977 0.7657 0.0
H1916 H 0.12469 0.57274 0.21018 0.0
H1917 H 0.17402 0.55529 0.25927 0.0
H1918 H 0.14478 0.61364 0.21634 0.0
H1919 H 0.19376 0.5962 0.26584 0.0
H1920 H 0.23552 0.66267 0.24637 0.0
H1921 H 0.21421 0.62265 0.24393 0.0
H1922 H 0.15714 0.64899 0.24432 0.0
H1923 H 0.17852 0.68909 0.24646 0.0
C1924 C 0.13965 0.57767 0.22253 0.0
C1925 C 0.14784 0.56071 0.23406 0.0
C1926 C 0.15112 0.60114 0.22614 0.0
C1927 C 0.17096 0.60813 0.24144 0.0
C1928 C 0.17874 0.5913 0.25359 0.0
C1929 C 0.16735 0.56786 0.2499 0.0
C1930 C 0.21847 0.65992 0.24625 0.0
C1931 C 0.20867 0.67897 0.24657 0.0
C1932 C 0.20625 0.637 0.24489 0.0
C1933 C 0.18396 0.63263 0.24394 0.0
C1934 C 0.17422 0.65174 0.24468 0.0
C1935 C 0.18645 0.67468 0.24594 0.0
H1936 H 0.52114 0.72256 0.42704 0.0
H1937 H 0.51776 0.76048 0.49276 0.0
H1938 H 0.52784 0.68948 0.44714 0.0
H1939 H 0.52379 0.72673 0.51275 0.0
H1940 H 0.5088 0.64026 0.52078 0.0
H1941 H 0.50089 0.67499 0.50409 0.0
H1942 H 0.56365 0.69121 0.48553 0.0
H1943 H 0.57191 0.65708 0.50275 0.0
C1944 C 0.52144 0.72372 0.44572 0.0
C1945 C 0.51887 0.74425 0.45826 0.0
C1946 C 0.52538 0.70477 0.45722 0.0
C1947 C 0.52637 0.70558 0.48148 0.0
C1948 C 0.52306 0.72567 0.49401 0.0
C1949 C 0.51961 0.74495 0.48256 0.0
C1950 C 0.52104 0.65142 0.51345 0.0
C1951 C 0.54105 0.64587 0.5132 0.0
C1952 C 0.5165 0.67131 0.50395 0.0
C1953 C 0.53166 0.68574 0.49351 0.0
C1954 C 0.5517 0.68038 0.4935 0.0
C1955 C 0.55643 0.66088 0.50346 0.0
H1956 H 0.6479 0.37278 0.71998 0.0
H1957 H 0.6711 0.34801 0.6592 0.0
H1958 H 0.681 0.37074 0.74486 0.0
H1959 H 0.70441 0.34604 0.68421 0.0
H1960 H 0.7502 0.32093 0.7404 0.0
H1961 H 0.71706 0.3229 0.71505 0.0
H1962 H 0.71938 0.39021 0.75314 0.0
H1963 H 0.7523 0.38806 0.77848 0.0
C1964 C 0.66014 0.36706 0.71188 0.0
C1965 C 0.65683 0.3606 0.68756 0.0
C1966 C 0.67917 0.36595 0.72617 0.0
C1967 C 0.69539 0.35817 0.71658 0.0
C1968 C 0.69216 0.35186 0.69221 0.0
C1969 C 0.67315 0.35318 0.67785 0.0
C1970 C 0.74343 0.33595 0.74352 0.0
C1971 C 0.75367 0.35418 0.76162 0.0
C1972 C 0.7246 0.33724 0.72882 0.0
C1973 C 0.71552 0.35672 0.73203 0.0
C1974 C 0.72576 0.37484 0.7503 0.0
C1975 C 0.74466 0.37364 0.76482 0.0
H1976 H 0.00909 0.37652 0.96643 0.0
H1977 H 0.05967 0.40411 0.92925 0.0
H1978 H 0.01209 0.41643 0.98565 0.0
H1979 H 0.06266 0.44351 0.94832 0.0
H1980 H 0.07734 0.50689 1.00412 0.0
H1981 H 0.07396 0.46633 0.988 0.0
H1982 H 1.00516 0.45551 0.97334 0.0
H1983 H 0.00848 0.4964 0.9896 0.0
C1984 C 0.02102 0.39099 0.96261 0.0
C1985 C 0.03415 0.3871 0.94632 0.0
C1986 C 0.02259 0.41385 0.97342 0.0
C1987 C 0.03759 0.43317 0.96847 0.0
C1988 C 0.05106 0.42906 0.95269 0.0
C1989 C 0.04928 0.40642 0.94169 0.0
C1990 C 0.06144 0.49598 0.99743 0.0
C1991 C 0.04319 0.50508 0.998 0.0
C1992 C 0.05953 0.47267 0.98816 0.0
C1993 C 0.0393 0.45765 0.97937 0.0
C1994 C 0.02097 0.46657 0.98016 0.0
C1995 C 0.02289 0.49007 0.98925 0.0
H1996 H 0.02758 0.86501 0.17027 0.0
H1997 H 0.03328 0.81278 0.21688 0.0
H1998 H 0.99456 0.86952 0.18349 0.0
H1999 H 1.00021 0.81667 0.22942 0.0
H2000 H 0.95618 0.84823 0.26809 0.0
H2001 H 0.9882 0.84431 0.25294 0.0
H2002 H 0.95745 0.85104 0.18361 0.0
H2003 H 0.9254 0.8555 0.19906 0.0
C2004 C 0.02167 0.85431 0.18311 0.0
C2005 C 0.03321 0.83874 0.19271 0.0
C2006 C 1.00271 0.85682 0.19063 0.0
C2007 C 0.99483 0.84369 0.20778 0.0
C2008 C 0.00605 0.82755 0.21667 0.0
C2009 C 0.025 0.8252 0.20935 0.0
C2010 C 0.95619 0.84872 0.24958 0.0
C2011 C 0.93819 0.85194 0.23474 0.0
C2012 C 0.97455 0.84642 0.24085 0.0
C2013 C 0.97538 0.84706 0.21696 0.0
C2014 C 0.95746 0.85065 0.20212 0.0
C2015 C 0.93908 0.85314 0.21095 0.0
H2016 H 0.56871 0.42595 0.13675 0.0
H2017 H 0.57201 0.39223 0.06901 0.0
H2018 H 0.56649 0.46204 0.12018 0.0
H2019 H 0.57014 0.42867 0.05236 0.0
H2020 H 0.54289 0.49028 0.0266 0.0
H2021 H 0.54623 0.45394 0.04225 0.0
H2022 H 0.58705 0.49419 0.10467 0.0
H2023 H 0.58341 0.53058 0.08922 0.0
C2024 C 0.56903 0.42622 0.11828 0.0
C2025 C 0.57053 0.40605 0.10426 0.0
C2026 C 0.56793 0.44708 0.10877 0.0
C2027 C 0.56824 0.44851 0.08488 0.0
C2028 C 0.56964 0.42828 0.07078 0.0
C2029 C 0.57081 0.40736 0.08035 0.0
C2030 C 0.55268 0.49147 0.04364 0.0
C2031 C 0.56282 0.51356 0.0566 0.0
C2032 C 0.55469 0.47051 0.05258 0.0
C2033 C 0.56686 0.47093 0.07483 0.0
C2034 C 0.57727 0.49304 0.08764 0.0
C2035 C 0.5753 0.514 0.07867 0.0
H2036 H 0.95662 0.28574 0.37382 0.0
H2037 H 0.9718 0.3606 0.37182 0.0
H2038 H 0.92002 0.283 0.35329 0.0
H2039 H 0.93543 0.35836 0.35288 0.0
H2040 H 0.87943 0.34879 0.29667 0.0
H2041 H 0.91458 0.34705 0.31643 0.0
H2042 H 0.88548 0.29071 0.35241 0.0
H2043 H 0.85009 0.29167 0.33124 0.0
C2044 C 0.95196 0.30163 0.36945 0.0
C2045 C 0.96707 0.32334 0.37417 0.0
C2046 C 0.931 0.30013 0.35768 0.0
C2047 C 0.92472 0.32038 0.35076 0.0
C2048 C 0.93969 0.34219 0.35693 0.0
C2049 C 0.96056 0.34358 0.36811 0.0
C2050 C 0.88054 0.33585 0.30861 0.0
C2051 C 0.86199 0.3205 0.31252 0.0
C2052 C 0.90075 0.33499 0.32023 0.0
C2053 C 0.90305 0.3192 0.3367 0.0
C2054 C 0.88447 0.30312 0.33992 0.0
C2055 C 0.86415 0.30366 0.3278 0.0
H2056 H 0.09357 0.75211 0.63031 0.0
H2057 H 0.0372 0.76428 0.58873 0.0
H2058 H 0.0883 0.71421 0.60729 0.0
H2059 H 0.03073 0.72535 0.56645 0.0
H2060 H 0.03232 0.66115 0.51752 0.0
H2061 H 0.03825 0.69999 0.53918 0.0
H2062 H 0.07099 0.67617 0.59939 0.0
H2063 H 0.06698 0.63823 0.57643 0.0
C2064 C 0.07988 0.74654 0.61624 0.0
C2065 C 0.06584 0.76132 0.61136 0.0
C2066 C 0.07663 0.72448 0.6031 0.0
C2067 C 0.05883 0.71599 0.58492 0.0
C2068 C 0.04484 0.73102 0.57993 0.0
C2069 C 0.04846 0.75347 0.59277 0.0
C2070 C 0.0408 0.66426 0.53541 0.0
C2071 C 0.04867 0.64629 0.54548 0.0
C2072 C 0.04405 0.68664 0.54805 0.0
C2073 C 0.05505 0.69176 0.57139 0.0
C2074 C 0.06274 0.67351 0.58145 0.0
C2075 C 0.05995 0.65132 0.56852 0.0
H2076 H 0.6112 0.82632 0.91722 0.0
H2077 H 0.56608 0.79622 0.85382 0.0
H2078 H 0.6408 0.8228 0.89699 0.0
H2079 H 0.5955 0.79199 0.83381 0.0
H2080 H 0.65314 0.80886 0.79772 0.0
H2081 H 0.62422 0.81381 0.81833 0.0
H2082 H 0.65808 0.79492 0.88071 0.0
H2083 H 0.68718 0.79041 0.86012 0.0
C2084 C 0.6076 0.81885 0.89899 0.0
C2085 C 0.58627 0.81163 0.88713 0.0
C2086 C 0.62457 0.81668 0.8874 0.0
C2087 C 0.62064 0.80713 0.86368 0.0
C2088 C 0.59925 0.79982 0.85192 0.0
C2089 C 0.58232 0.80211 0.86346 0.0
C2090 C 0.65435 0.80564 0.8158 0.0
C2091 C 0.67247 0.79917 0.82722 0.0
C2092 C 0.63773 0.80843 0.82765 0.0
C2093 C 0.63867 0.80468 0.85124 0.0
C2094 C 0.65688 0.79832 0.86269 0.0
C2095 C 0.67357 0.79567 0.85086 0.0
H2096 H 0.44122 0.53072 0.63958 0.0
H2097 H 0.43594 0.60278 0.64107 0.0
H2098 H 0.47243 0.53976 0.62139 0.0
H2099 H 0.46647 0.61166 0.62075 0.0
H2100 H 0.53478 0.62312 0.60268 0.0
H2101 H 0.50411 0.617 0.62329 0.0
H2102 H 0.48124 0.54657 0.5861 0.0
H2103 H 0.51251 0.55177 0.56829 0.0
C2104 C 0.44647 0.54841 0.63546 0.0
C2105 C 0.43608 0.56599 0.6415 0.0
C2106 C 0.46436 0.55365 0.62486 0.0
C2107 C 0.47185 0.57641 0.61915 0.0
C2108 C 0.46131 0.59403 0.62507 0.0
C2109 C 0.44369 0.5889 0.63642 0.0
C2110 C 0.52319 0.60635 0.59927 0.0
C2111 C 0.52584 0.58803 0.5837 0.0
C2112 C 0.50554 0.60288 0.61081 0.0
C2113 C 0.49024 0.58116 0.60657 0.0
C2114 C 0.49287 0.56328 0.59046 0.0
C2115 C 0.51066 0.56647 0.57972 0.0
H2116 H 0.79087 0.28854 0.97369 0.0
H2117 H 0.79301 0.22152 0.93838 0.0
H2118 H 0.79026 0.30501 0.93662 0.0
H2119 H 0.79269 0.23796 0.90153 0.0
H2120 H 0.81304 0.33206 0.87052 0.0
H2121 H 0.81226 0.31648 0.90769 0.0
H2122 H 0.76963 0.2518 0.87212 0.0
H2123 H 0.77064 0.26726 0.83476 0.0
C2124 C 0.79137 0.27735 0.95808 0.0
C2125 C 0.79202 0.25369 0.95913 0.0
C2126 C 0.79107 0.28681 0.93678 0.0
C2127 C 0.7913 0.27283 0.9159 0.0
C2128 C 0.79211 0.24921 0.91706 0.0
C2129 C 0.79249 0.23981 0.93832 0.0
C2130 C 0.80334 0.31456 0.87053 0.0
C2131 C 0.79192 0.30097 0.84943 0.0
C2132 C 0.80283 0.30564 0.89199 0.0
C2133 C 0.79097 0.28278 0.89307 0.0
C2134 C 0.77922 0.26934 0.87202 0.0
C2135 C 0.77965 0.27831 0.85054 0.0
H2136 H 0.14271 0.49776 0.14886 0.0
H2137 H 0.08178 0.45616 0.15844 0.0
H2138 H 0.12433 0.51499 0.11767 0.0
H2139 H 0.06348 0.47368 0.12776 0.0
H2140 H 0.03575 0.50279 0.06449 0.0
H2141 H 0.05641 0.47966 0.08703 0.0
H2142 H 0.10211 0.54359 0.11987 0.0
H2143 H 0.08152 0.5666 0.09712 0.0
C2144 C 0.12546 0.49186 0.14394 0.0
C2145 C 0.11366 0.47588 0.15637 0.0
C2146 C 0.11493 0.50191 0.12625 0.0
C2147 C 0.09243 0.49608 0.1206 0.0
C2148 C 0.08082 0.47855 0.13163 0.0
C2149 C 0.09133 0.46854 0.14929 0.0
C2150 C 0.05021 0.51185 0.07656 0.0
C2151 C 0.05702 0.53647 0.07921 0.0
C2152 C 0.06207 0.49862 0.08939 0.0
C2153 C 0.08095 0.50976 0.10517 0.0
C2154 C 0.08786 0.53441 0.10754 0.0
C2155 C 0.076 0.54763 0.09469 0.0
H2156 H 0.81169 0.94477 0.45421 0.0
H2157 H 0.81474 0.88023 0.48322 0.0
H2158 H 0.81036 0.92533 0.41544 0.0
H2159 H 0.81327 0.86055 0.44372 0.0
H2160 H 0.78461 0.83207 0.36362 0.0
H2161 H 0.7871 0.84897 0.40413 0.0
H2162 H 0.83548 0.90861 0.39422 0.0
H2163 H 0.83308 0.89184 0.35384 0.0
C2164 C 0.81201 0.92635 0.45238 0.0
C2165 C 0.81334 0.9141 0.47202 0.0
C2166 C 0.8114 0.91525 0.43004 0.0
C2167 C 0.8119 0.89146 0.42647 0.0
C2168 C 0.81283 0.87893 0.44593 0.0
C2169 C 0.81374 0.8902 0.46854 0.0
C2170 C 0.79582 0.84878 0.37008 0.0
C2171 C 0.80852 0.86069 0.35534 0.0
C2172 C 0.79736 0.85834 0.39337 0.0
C2173 C 0.81142 0.88016 0.40239 0.0
C2174 C 0.82432 0.89186 0.38775 0.0
C2175 C 0.82298 0.88221 0.36459 0.0
H2176 H 0.47081 0.5204 0.74454 0.0
H2177 H 0.43663 0.57314 0.76193 0.0
H2178 H 0.48725 0.52387 0.78558 0.0
H2179 H 0.45337 0.57688 0.80275 0.0
H2180 H 0.45726 0.54606 0.87242 0.0
H2181 H 0.44686 0.54922 0.83124 0.0
H2182 H 0.5111 0.54912 0.82027 0.0
H2183 H 0.52141 0.54529 0.86165 0.0
C2184 C 0.46719 0.53311 0.75701 0.0
C2185 C 0.45211 0.54616 0.75009 0.0
C2186 C 0.47667 0.53516 0.78049 0.0
C2187 C 0.47128 0.55035 0.79738 0.0
C2188 C 0.45744 0.56465 0.79016 0.0
C2189 C 0.44791 0.56254 0.76677 0.0
C2190 C 0.46914 0.54661 0.86121 0.0
C2191 C 0.49007 0.54523 0.87015 0.0
C2192 C 0.46329 0.54876 0.8377 0.0
C2193 C 0.47823 0.54958 0.82258 0.0
C2194 C 0.49926 0.54846 0.83154 0.0
C2195 C 0.50517 0.54641 0.85518 0.0
H2196 H 0.79963 0.28152 0.09276 0.0
H2197 H 0.79154 0.2185 0.12645 0.0
H2198 H 0.80489 0.30518 0.13094 0.0
H2199 H 0.79737 0.24187 0.16421 0.0
H2200 H 0.78583 0.28747 0.22623 0.0
H2201 H 0.78105 0.26436 0.18802 0.0
H2202 H 0.82826 0.31897 0.16749 0.0
H2203 H 0.83259 0.34208 0.20555 0.0
C2204 C 0.79917 0.27271 0.10825 0.0
C2205 C 0.795 0.24804 0.10634 0.0
C2206 C 0.80226 0.28627 0.13023 0.0
C2207 C 0.80139 0.27552 0.15087 0.0
C2208 C 0.79766 0.25089 0.14885 0.0
C2209 C 0.79446 0.23742 0.12703 0.0
C2210 C 0.79539 0.29431 0.21367 0.0
C2211 C 0.80976 0.31644 0.21906 0.0
C2212 C 0.79266 0.28111 0.19165 0.0
C2213 C 0.80427 0.28969 0.17441 0.0
C2214 C 0.81876 0.31184 0.18 0.0
C2215 C 0.8214 0.32503 0.20197 0.0
H2216 H 0.11665 0.47994 0.30179 0.0
H2217 H 0.0521 0.46465 0.2627 0.0
H2218 H 0.10305 0.4857 0.33804 0.0
H2219 H 0.03846 0.46968 0.29894 0.0
H2220 H 0.0312 0.52406 0.35742 0.0
H2221 H 0.04123 0.50608 0.3232 0.0
H2222 H 0.08129 0.47149 0.36704 0.0
H2223 H 0.07103 0.48959 0.4017 0.0
C2224 C 0.09951 0.47707 0.301 0.0
C2225 C 0.08547 0.47235 0.27938 0.0
C2226 C 0.0917 0.48029 0.3218 0.0
C2227 C 0.06971 0.47864 0.3213 0.0
C2228 C 0.05554 0.47167 0.29983 0.0
C2229 C 0.06335 0.4687 0.27908 0.0
C2230 C 0.0417 0.51215 0.35983 0.0
C2231 C 0.05026 0.50824 0.38232 0.0
C2232 C 0.04746 0.50178 0.34014 0.0
C2233 C 0.06198 0.48721 0.34235 0.0
C2234 C 0.07018 0.48276 0.36479 0.0
C2235 C 0.06435 0.49315 0.3846 0.0
H2236 H 0.82196 0.86473 0.60002 0.0
H2237 H 0.82546 0.9314 0.63985 0.0
H2238 H 0.81682 0.84509 0.63456 0.0
H2239 H 0.81895 0.91195 0.67374 0.0
H2240 H 0.82073 0.87608 0.73798 0.0
H2241 H 0.83069 0.89415 0.70424 0.0
H2242 H 0.79351 0.8317 0.65886 0.0
H2243 H 0.78511 0.81312 0.69305 0.0
C2244 C 0.82164 0.8752 0.61616 0.0
C2245 C 0.82429 0.89968 0.61714 0.0
C2246 C 0.81844 0.86391 0.63602 0.0
C2247 C 0.81736 0.87672 0.65732 0.0
C2248 C 0.82016 0.90128 0.65812 0.0
C2249 C 0.82378 0.91255 0.63848 0.0
C2250 C 0.81494 0.86612 0.72081 0.0
C2251 C 0.80217 0.84315 0.71827 0.0
C2252 C 0.82042 0.87661 0.70126 0.0
C2253 C 0.81278 0.8647 0.67839 0.0
C2254 C 0.8001 0.84152 0.67597 0.0
C2255 C 0.79507 0.83084 0.69564 0.0
H2256 H 0.78421 0.5118 0.56127 0.0
H2257 H 0.73379 0.44838 0.54281 0.0
H2258 H 0.75761 0.53495 0.56367 0.0
H2259 H 0.70704 0.47165 0.54469 0.0
H2260 H 0.66621 0.51852 0.573 0.0
H2261 H 0.69278 0.49507 0.57177 0.0
H2262 H 0.73064 0.54799 0.5387 0.0
H2263 H 0.70412 0.57146 0.54002 0.0
C2264 C 0.76742 0.50279 0.55766 0.0
C2265 C 0.76113 0.47823 0.5518 0.0
C2266 C 0.75214 0.5161 0.55889 0.0
C2267 C 0.73014 0.50523 0.55425 0.0
C2268 C 0.72384 0.4806 0.54862 0.0
C2269 C 0.73917 0.46726 0.54741 0.0
C2270 C 0.68015 0.5251 0.56535 0.0
C2271 C 0.68301 0.54691 0.55663 0.0
C2272 C 0.69538 0.51162 0.56461 0.0
C2273 C 0.71389 0.51959 0.55513 0.0
C2274 C 0.71678 0.54145 0.54648 0.0
C2275 C 0.70156 0.55494 0.54725 0.0
H2276 H 0.21583 0.14657 0.49322 0.0
H2277 H 0.19185 0.20756 0.5113 0.0
H2278 H 0.18122 0.12106 0.49496 0.0
H2279 H 0.15707 0.18194 0.51294 0.0
H2280 H 0.10487 0.12632 0.53685 0.0
H2281 H 0.14 0.15213 0.53653 0.0
H2282 H 0.14437 0.11106 0.47299 0.0
H2283 H 0.10956 0.0853 0.47355 0.0
C2284 C 0.20313 0.15456 0.49747 0.0
C2285 C 0.20663 0.17914 0.50204 0.0
C2286 C 0.18325 0.13991 0.49841 0.0
C2287 C 0.16632 0.14942 0.5041 0.0
C2288 C 0.16981 0.17402 0.50875 0.0
C2289 C 0.1897 0.18871 0.50761 0.0
C2290 C 0.11353 0.12267 0.52306 0.0
C2291 C 0.10462 0.10363 0.5054 0.0
C2292 C 0.13352 0.13759 0.52269 0.0
C2293 C 0.14506 0.13365 0.50475 0.0
C2294 C 0.1361 0.11446 0.48723 0.0
C2295 C 0.1161 0.09973 0.48749 0.0
H2296 H 0.27902 0.09123 0.89402 0.0
H2297 H 0.22326 0.03347 0.88532 0.0
H2298 H 0.3017 0.06334 0.89187 0.0
H2299 H 0.24575 1.00569 0.88251 0.0
H2300 H 0.28916 0.95788 0.87905 0.0
H2301 H 0.27407 0.98765 0.89797 0.0
H2302 H 0.30501 0.03893 0.85786 0.0
H2303 H 0.32064 0.00955 0.83976 0.0
C2304 C 0.27166 0.0726 0.89215 0.0
C2305 C 0.24932 0.06452 0.88937 0.0
C2306 C 0.28464 0.05663 0.89082 0.0
C2307 C 0.2755 0.0323 0.88657 0.0
C2308 C 0.25337 0.02428 0.88591 0.0
C2309 C 0.24042 0.04024 0.88736 0.0
C2310 C 0.29322 0.97571 0.87483 0.0
C2311 C 0.30579 0.98134 0.85765 0.0
C2312 C 0.28445 0.99269 0.88552 0.0
C2313 C 0.28814 0.0156 0.87925 0.0
C2314 C 0.30196 0.02155 0.86329 0.0
C2315 C 0.3107 1.00462 0.85265 0.0
H2316 H 0.38503 0.99262 0.07299 0.0
H2317 H 0.37538 0.98754 0.99782 0.0
H2318 H 0.42256 0.0132 0.07523 0.0
H2319 H 0.41283 1.00641 0.99966 0.0
H2320 H 0.47136 0.06355 0.00681 0.0
H2321 H 0.43484 0.04348 0.00815 0.0
H2322 H 0.45754 0.01334 0.06927 0.0
H2323 H 0.49414 0.03487 0.06862 0.0
C2324 C 0.39116 0.99538 0.05697 0.0
C2325 C 0.37741 0.98869 0.03525 0.0
C2326 C 0.41264 0.00716 0.05818 0.0
C2327 C 0.42078 0.01206 0.03763 0.0
C2328 C 0.40711 1.00389 0.01593 0.0
C2329 C 0.38567 0.99273 0.01479 0.0
C2330 C 0.4685 0.05283 0.02067 0.0
C2331 C 0.48557 0.05069 0.03753 0.0
C2332 C 0.44754 0.04103 0.02132 0.0
C2333 C 0.4431 0.02615 0.03847 0.0
C2334 C 0.46021 0.02464 0.05584 0.0
C2335 C 0.48121 0.03696 0.05548 0.0
H2336 H 0.89602 0.70419 0.83654 0.0
H2337 H 0.93944 0.74521 0.79861 0.0
H2338 H 0.86818 0.72388 0.82189 0.0
H2339 H 0.91144 0.76306 0.78201 0.0
H2340 H 0.86597 0.81015 0.77505 0.0
H2341 H 0.89279 0.7898 0.78825 0.0
H2342 H 0.84325 0.72801 0.79127 0.0
H2343 H 0.81608 0.74975 0.78015 0.0
C2344 C 0.89954 0.71752 0.82512 0.0
C2345 C 0.91993 0.72367 0.81913 0.0
C2346 C 0.88351 0.7285 0.81631 0.0
C2347 C 0.88735 0.7452 0.80062 0.0
C2348 C 0.90784 0.75097 0.79455 0.0
C2349 C 0.92401 0.7407 0.80406 0.0
C2350 C 0.86067 0.79214 0.77827 0.0
C2351 C 0.83883 0.7817 0.77681 0.0
C2352 C 0.87622 0.78024 0.78574 0.0
C2353 C 0.87043 0.75712 0.79113 0.0
C2354 C 0.84845 0.74602 0.78802 0.0
C2355 C 0.8328 0.75831 0.78121 0.0
H2356 H 0.82417 0.65228 0.04977 0.0
H2357 H 0.83838 0.69717 0.9968 0.0
H2358 H 0.85753 0.6403 0.04931 0.0
H2359 H 0.87221 0.68506 0.99644 0.0
H2360 H 0.91496 0.63023 0.98467 0.0
H2361 H 0.88446 0.64832 0.98491 0.0
H2362 H 0.89637 0.65663 0.06036 0.0
H2363 H 0.92686 0.63882 0.06017 0.0
C2364 C 0.83446 0.65972 0.03805 0.0
C2365 C 0.8285 0.6757 0.02328 0.0
C2366 C 0.85373 0.65294 0.03794 0.0
C2367 C 0.86764 0.66181 0.02295 0.0
C2368 C 0.8618 0.67785 0.00814 0.0
C2369 C 0.84249 0.68487 0.00843 0.0
C2370 C 0.91135 0.63635 1.00132 0.0
C2371 C 0.92322 0.63273 0.0224 0.0
C2372 C 0.89384 0.64672 1.00144 0.0
C2373 C 0.88779 0.65363 0.02265 0.0
C2374 C 0.90032 0.65105 0.0437 0.0
C2375 C 0.91779 0.64079 0.04359 0.0
H2376 H 0.20986 0.20673 0.844 0.0
H2377 H 0.26298 0.17871 0.87307 0.0
H2378 H 0.23461 0.23795 0.83068 0.0
H2379 H 0.28777 0.21018 0.85961 0.0
H2380 H 0.27811 0.26195 0.77883 0.0
H2381 H 0.25617 0.23323 0.79816 0.0
H2382 H 0.30196 0.25552 0.86248 0.0
H2383 H 0.32393 0.28459 0.84311 0.0
C2384 C 0.22685 0.20747 0.84798 0.0
C2385 C 0.2344 0.18996 0.85923 0.0
C2386 C 0.24098 0.22528 0.84021 0.0
C2387 C 0.26298 0.22606 0.84363 0.0
C2388 C 0.27083 0.20984 0.85666 0.0
C2389 C 0.25663 0.19188 0.86439 0.0
C2390 C 0.28358 0.26059 0.79704 0.0
C2391 C 0.30253 0.27562 0.80957 0.0
C2392 C 0.27097 0.2443 0.80814 0.0
C2393 C 0.27721 0.24254 0.83192 0.0
C2394 C 0.29677 0.25667 0.84417 0.0
C2395 C 0.30933 0.27318 0.83308 0.0
H2396 H 0.42151 0.10628 0.30877 0.0
H2397 H 0.47485 0.07978 0.29095 0.0
H2398 H 0.40082 0.06631 0.30754 0.0
H2399 H 0.45385 0.03957 0.28934 0.0
H2400 H 0.42074 0.97671 0.32413 0.0
H2401 H 0.44097 0.01538 0.31883 0.0
H2402 H 0.38328 0.02978 0.28188 0.0
H2403 H 0.36288 0.99136 0.2879 0.0
C2404 C 0.42875 0.09192 0.30429 0.0
C2405 C 0.44993 0.09624 0.30019 0.0
C2406 C 0.4168 0.06898 0.30342 0.0
C2407 C 0.42574 0.04979 0.29844 0.0
C2408 C 0.44664 0.05404 0.29351 0.0
C2409 C 0.45862 0.07705 0.29431 0.0
C2410 C 0.41238 0.98816 0.31493 0.0
C2411 C 0.3902 0.9811 0.30663 0.0
C2412 C 0.42402 0.01017 0.3116 0.0
C2413 C 0.41371 0.02562 0.29994 0.0
C2414 C 0.39162 0.01832 0.29112 0.0
C2415 C 0.37998 0.99627 0.2944 0.0
H2416 H 0.59348 0.43701 0.6375 0.0
H2417 H 0.5686 0.38951 0.57353 0.0
H2418 H 0.58637 0.46974 0.61728 0.0
H2419 H 0.56122 0.4225 0.55323 0.0
H2420 H 0.52959 0.48678 0.53697 0.0
H2421 H 0.53682 0.45207 0.55415 0.0
H2422 H 0.60039 0.49184 0.58581 0.0
H2423 H 0.59331 0.52621 0.56889 0.0
C2424 C 0.58651 0.43353 0.61908 0.0
C2425 C 0.5817 0.41058 0.60715 0.0
C2426 C 0.5825 0.45236 0.60745 0.0
C2427 C 0.57327 0.4488 0.58359 0.0
C2428 C 0.56824 0.42583 0.57163 0.0
C2429 C 0.5726 0.40696 0.58323 0.0
C2430 C 0.54517 0.48804 0.54741 0.0
C2431 C 0.56085 0.50941 0.55141 0.0
C2432 C 0.54934 0.46811 0.55718 0.0
C2433 C 0.56915 0.4692 0.5715 0.0
C2434 C 0.58489 0.49041 0.57509 0.0
C2435 C 0.58085 0.51014 0.56515 0.0
H2436 H 0.46506 0.81697 0.32913 0.0
H2437 H 0.44295 0.7964 0.39203 0.0
H2438 H 0.42869 0.81526 0.31076 0.0
H2439 H 0.40602 0.7949 0.37338 0.0
H2440 H 0.34057 0.77412 0.32101 0.0
H2441 H 0.37641 0.77387 0.34119 0.0
H2442 H 0.40234 0.8382 0.31448 0.0
H2443 H 0.36664 0.83814 0.29402 0.0
C2444 C 0.45242 0.81202 0.33912 0.0
C2445 C 0.45708 0.80703 0.36224 0.0
C2446 C 0.43148 0.81121 0.32854 0.0
C2447 C 0.41442 0.80538 0.34068 0.0
C2448 C 0.41882 0.79947 0.36352 0.0
C2449 C 0.43996 0.80031 0.37422 0.0
C2450 C 0.35397 0.78817 0.31944 0.0
C2451 C 0.35083 0.80606 0.30576 0.0
C2452 C 0.37447 0.78813 0.33117 0.0
C2453 C 0.39232 0.80591 0.32937 0.0
C2454 C 0.38903 0.824 0.31596 0.0
C2455 C 0.36856 0.82406 0.30431 0.0
H2456 H 0.06311 0.74957 0.15086 0.0
H2457 H 0.09117 0.77712 0.09373 0.0
H2458 H 0.05619 0.70967 0.13071 0.0
H2459 H 0.08476 0.73677 0.07374 0.0
H2460 H 0.09601 0.65822 0.07043 0.0
H2461 H 0.1004 0.69931 0.08661 0.0
H2462 H 0.03314 0.68555 0.09041 0.0
H2463 H 0.02856 0.64461 0.07371 0.0
C2464 C 0.06765 0.74708 0.13387 0.0
C2465 C 0.07766 0.76645 0.12383 0.0
C2466 C 0.06364 0.72424 0.12234 0.0
C2467 C 0.07001 0.72014 0.10074 0.0
C2468 C 0.07976 0.7395 0.09045 0.0
C2469 C 0.08329 0.76253 0.10176 0.0
C2470 C 0.08216 0.66394 0.07477 0.0
C2471 C 0.06196 0.6481 0.07098 0.0
C2472 C 0.08465 0.68751 0.08378 0.0
C2473 C 0.06709 0.6956 0.08963 0.0
C2474 C 0.04693 0.67975 0.08601 0.0
C2475 C 0.04434 0.65633 0.07651 0.0
H2476 H 0.0999 0.31617 0.92305 0.0
H2477 H 0.05936 0.28754 0.85635 0.0
H2478 H 0.1316 0.3153 0.90552 0.0
H2479 H 0.09093 0.287 0.83881 0.0
H2480 H 0.15014 0.26653 0.82003 0.0
H2481 H 0.11963 0.26641 0.83958 0.0
H2482 H 0.15149 0.33482 0.87727 0.0
H2483 H 0.18211 0.33498 0.8576 0.0
C2484 C 0.09775 0.3097 0.90466 0.0
C2485 C 0.07711 0.30191 0.8911 0.0
C2486 C 0.11592 0.30933 0.89459 0.0
C2487 C 0.11382 0.30104 0.87077 0.0
C2488 C 0.09314 0.29317 0.85728 0.0
C2489 C 0.07502 0.29361 0.86731 0.0
C2490 C 0.15062 0.28162 0.83239 0.0
C2491 C 0.1685 0.30087 0.83706 0.0
C2492 C 0.13311 0.28154 0.84361 0.0
C2493 C 0.13302 0.30069 0.85984 0.0
C2494 C 0.15113 0.31969 0.86501 0.0
C2495 C 0.16868 0.31978 0.85374 0.0
H2496 H 0.55414 0.76782 0.98719 0.0
H2497 H 0.50172 0.72931 0.93361 0.0
H2498 H 0.55669 0.7315 1.00326 0.0
H2499 H 0.5034 0.6931 0.95027 0.0
H2500 H 0.52626 0.62785 0.96889 0.0
H2501 H 0.52225 0.66423 0.95393 0.0
H2502 H 0.54326 0.70159 0.02384 0.0
H2503 H 0.54824 0.66533 0.0385 0.0
C2504 C 0.54285 0.75165 0.97909 0.0
C2505 C 0.52775 0.75159 0.95905 0.0
C2506 C 0.54423 0.73067 0.9884 0.0
C2507 C 0.53033 0.70895 0.97815 0.0
C2508 C 0.51478 0.70915 0.95848 0.0
C2509 C 0.51363 0.73006 0.949 0.0
C2510 C 0.52993 0.6438 0.98112 0.0
C2511 C 0.53762 0.6435 0.00495 0.0
C2512 C 0.5275 0.66482 0.97253 0.0
C2513 C 0.5324 0.68626 0.98752 0.0
C2514 C 0.53969 0.68577 0.01148 0.0
C2515 C 0.54241 0.66481 0.02 0.0
H2516 H 0.13205 0.86587 0.71262 0.0
H2517 H 0.15138 0.83731 0.65074 0.0
H2518 H 0.1666 0.86535 0.73582 0.0
H2519 H 0.18586 0.83666 0.67401 0.0
H2520 H 0.22888 0.80793 0.7294 0.0
H2521 H 0.19629 0.81274 0.70581 0.0
H2522 H 0.20709 0.88336 0.7407 0.0
H2523 H 0.24015 0.87867 0.76449 0.0
C2524 C 0.14374 0.85967 0.70392 0.0
C2525 C 0.13889 0.85151 0.67983 0.0
C2526 C 0.16358 0.8595 0.71721 0.0
C2527 C 0.17893 0.85086 0.70679 0.0
C2528 C 0.17428 0.84322 0.6826 0.0
C2529 C 0.15456 0.8437 0.66924 0.0
C2530 C 0.22439 0.82453 0.7322 0.0
C2531 C 0.23718 0.8429 0.74899 0.0
C2532 C 0.20575 0.82733 0.71846 0.0
C2533 C 0.19915 0.84846 0.72126 0.0
C2534 C 0.21175 0.86684 0.73818 0.0
C2535 C 0.23069 0.86417 0.75176 0.0
H2536 H 0.05917 0.42051 0.42634 0.0
H2537 H 0.03683 0.38604 0.48324 0.0
H2538 H 0.06325 0.45861 0.4486 0.0
H2539 H 0.04068 0.42457 0.50558 0.0
H2540 H 0.07184 0.49693 0.54814 0.0
H2541 H 0.06725 0.45855 0.52581 0.0
H2542 H 0.04361 0.48541 0.46303 0.0
H2543 H 0.04854 0.52411 0.48558 0.0
C2544 C 0.05508 0.42097 0.44365 0.0
C2545 C 0.04769 0.39996 0.45293 0.0
C2546 C 0.05727 0.443 0.45638 0.0
C2547 C 0.05222 0.44489 0.47892 0.0
C2548 C 0.04495 0.4239 0.48836 0.0
C2549 C 0.04268 0.40174 0.47553 0.0
C2550 C 0.06571 0.4947 0.52954 0.0
C2551 C 0.06061 0.51364 0.51864 0.0
C2552 C 0.06288 0.47255 0.51674 0.0
C2553 C 0.05491 0.46862 0.49256 0.0
C2554 C 0.04995 0.48771 0.48157 0.0
C2555 C 0.05272 0.50992 0.49447 0.0
H2556 H 0.50925 0.35341 0.15719 0.0
H2557 H 0.52521 0.32009 0.21837 0.0
H2558 H 0.47923 0.36368 0.17323 0.0
H2559 H 0.49552 0.3304 0.23418 0.0
H2560 H 0.45814 0.37726 0.26795 0.0
H2561 H 0.48721 0.36795 0.24976 0.0
H2562 H 0.44349 0.34395 0.18423 0.0
H2563 H 0.41433 0.35345 0.20243 0.0
C2564 C 0.50631 0.34814 0.17392 0.0
C2565 C 0.51974 0.33597 0.18647 0.0
C2566 C 0.48911 0.35399 0.18308 0.0
C2567 C 0.48517 0.34807 0.20509 0.0
C2568 C 0.49834 0.33555 0.21737 0.0
C2569 C 0.51531 0.3295 0.20816 0.0
C2570 C 0.45476 0.37027 0.24959 0.0
C2571 C 0.43391 0.36606 0.23665 0.0
C2572 C 0.47138 0.36474 0.23922 0.0
C2573 C 0.46762 0.35507 0.21559 0.0
C2574 C 0.4469 0.35145 0.20244 0.0
C2575 C 0.43019 0.35673 0.21291 0.0
H2576 H 0.64027 0.64292 0.41952 0.0
H2577 H 0.67346 0.58741 0.42998 0.0
H2578 H 0.61335 0.62433 0.44098 0.0
H2579 H 0.64628 0.56875 0.45148 0.0
H2580 H 0.59835 0.5596 0.50651 0.0
H2581 H 0.62886 0.57471 0.48765 0.0
H2582 H 0.5851 0.58606 0.42853 0.0
H2583 H 0.55484 0.57131 0.44774 0.0
C2584 C 0.64207 0.62702 0.42682 0.0
C2585 C 0.65876 0.61642 0.42271 0.0
C2586 C 0.62653 0.61625 0.43887 0.0
C2587 C 0.62742 0.59473 0.44712 0.0
C2588 C 0.64515 0.58521 0.44499 0.0
C2589 C 0.66076 0.59599 0.43284 0.0
C2590 C 0.59541 0.56468 0.48918 0.0
C2591 C 0.57453 0.56434 0.47841 0.0
C2592 C 0.61276 0.57335 0.47845 0.0
C2593 C 0.60928 0.58201 0.45692 0.0
C2594 C 0.58817 0.57991 0.44538 0.0
C2595 C 0.57087 0.57113 0.4561 0.0
H2596 H 0.28736 0.87551 0.09626 0.0
H2597 H 0.34538 0.92764 0.12595 0.0
H2598 H 0.28768 0.8594 0.13325 0.0
H2599 H 0.34652 0.91083 0.16263 0.0
H2600 H 0.33022 0.89268 0.23332 0.0
H2601 H 0.33172 0.90777 0.19598 0.0
H2602 H 0.30204 0.83801 0.15983 0.0
H2603 H 0.29953 0.82338 0.19722 0.0
C2604 C 0.30045 0.88325 0.11058 0.0
C2605 C 0.31631 0.90291 0.10808 0.0
C2606 C 0.30074 0.87392 0.13191 0.0
C2607 C 0.31711 0.88371 0.15133 0.0
C2608 C 0.33333 0.90299 0.14848 0.0
C2609 C 0.33282 0.91256 0.12727 0.0
C2610 C 0.32417 0.88054 0.21739 0.0
C2611 C 0.31472 0.8568 0.21835 0.0
C2612 C 0.32511 0.88918 0.19582 0.0
C2613 C 0.31693 0.87426 0.1745 0.0
C2614 C 0.30807 0.85033 0.17562 0.0
C2615 C 0.3068 0.8418 0.19718 0.0
H2616 H 0.98139 0.66301 0.90111 0.0
H2617 H 0.04744 0.68509 0.89297 0.0
H2618 H 0.99282 0.64796 0.93754 0.0
H2619 H 0.05881 0.67017 0.92913 0.0
H2620 H 0.07523 0.64998 0.99997 0.0
H2621 H 0.06051 0.67309 0.97192 0.0
H2622 H 0.00878 0.61281 0.94317 0.0
H2623 H 0.02355 0.58961 0.97143 0.0
C2624 C 0.99836 0.6654 0.90753 0.0
C2625 C 0.01355 0.67508 0.89419 0.0
C2626 C 1.00487 0.65654 0.9282 0.0
C2627 C 0.02666 0.65763 0.93599 0.0
C2628 C 0.0419 0.66917 0.92365 0.0
C2629 C 0.03541 0.6777 0.90291 0.0
C2630 C 0.06063 0.64169 0.98776 0.0
C2631 C 0.05066 0.61791 0.98761 0.0
C2632 C 0.05218 0.65496 0.97178 0.0
C2633 C 0.03357 0.64475 0.95531 0.0
C2634 C 0.02303 0.62123 0.95585 0.0
C2635 C 0.03154 0.60789 0.97186 0.0
H2636 H 0.30074 0.22529 0.6068 0.0
H2637 H 0.26745 0.27621 0.5807 0.0
H2638 H 0.30681 0.2459 0.64644 0.0
H2639 H 0.27289 0.2965 0.62081 0.0
H2640 H 0.26141 0.29469 0.70116 0.0
H2641 H 0.2583 0.27978 0.65984 0.0
H2642 H 0.3269 0.2896 0.66904 0.0
H2643 H 0.33016 0.30516 0.71018 0.0
C2644 C 0.29495 0.2411 0.60955 0.0
C2645 C 0.28374 0.24925 0.59067 0.0
C2646 C 0.29844 0.25288 0.63222 0.0
C2647 C 0.29027 0.27273 0.6367 0.0
C2648 C 0.27933 0.28119 0.6178 0.0
C2649 C 0.27635 0.26973 0.59489 0.0
C2650 C 0.27584 0.29377 0.69435 0.0
C2651 C 0.29603 0.30098 0.70901 0.0
C2652 C 0.27406 0.28544 0.67066 0.0
C2653 C 0.29236 0.28365 0.66123 0.0
C2654 C 0.31254 0.29087 0.67585 0.0
C2655 C 0.31438 0.29974 0.69939 0.0
H2656 H 0.70909 0.60981 0.28533 0.0
H2657 H 0.64797 0.58765 0.3071 0.0
H2658 H 0.69079 0.60811 0.24534 0.0
H2659 H 0.62967 0.58526 0.26696 0.0
H2660 H 0.60625 0.61799 0.20178 0.0
H2661 H 0.62295 0.61327 0.24085 0.0
H2662 H 0.66952 0.58305 0.21124 0.0
H2663 H 0.65303 0.58829 0.17223 0.0
C2664 C 0.69173 0.60416 0.28148 0.0
C2665 C 0.67992 0.5991 0.29934 0.0
C2666 C 0.68126 0.60306 0.25854 0.0
C2667 C 0.65875 0.59672 0.25301 0.0
C2668 C 0.647 0.59063 0.27075 0.0
C2669 C 0.65747 0.59186 0.2937 0.0
C2670 C 0.6199 0.61009 0.20366 0.0
C2671 C 0.62849 0.60369 0.18409 0.0
C2672 C 0.62942 0.60728 0.226 0.0
C2673 C 0.64763 0.59786 0.22915 0.0
C2674 C 0.65576 0.59075 0.20943 0.0
C2675 C 0.64633 0.59372 0.18712 0.0
H2676 H 0.30274 0.88013 0.97547 0.0
H2677 H 0.28571 0.93746 0.94152 0.0
H2678 H 0.29919 0.85753 0.9371 0.0
H2679 H 0.28193 0.91494 0.90357 0.0
H2680 H 0.29851 0.87808 0.8385 0.0
H2681 H 0.30252 0.90057 0.87713 0.0
H2682 H 0.27299 0.83733 0.90333 0.0
H2683 H 0.26941 0.81505 0.86503 0.0
C2684 C 0.29809 0.88786 0.95992 0.0
C2685 C 0.29453 0.91067 0.96177 0.0
C2686 C 0.29599 0.87488 0.93787 0.0
C2687 C 0.29036 0.88441 0.9171 0.0
C2688 C 0.28664 0.90711 0.91904 0.0
C2689 C 0.28865 0.91999 0.94097 0.0
C2690 C 0.29293 0.86911 0.85257 0.0
C2691 C 0.28373 0.84485 0.84875 0.0
C2692 C 0.29511 0.88194 0.87469 0.0
C2693 C 0.28818 0.87078 0.89351 0.0
C2694 C 0.27885 0.8465 0.88948 0.0
C2695 C 0.27662 0.83375 0.86741 0.0
H2696 H 0.96339 0.66106 0.74035 0.0
H2697 H 0.01954 0.71497 0.77255 0.0
H2698 H 0.98015 0.65361 0.70723 0.0
H2699 H 0.03606 0.70865 0.7384 0.0
H2700 H 0.06949 0.66302 0.69501 0.0
H2701 H 0.05234 0.68056 0.72362 0.0
H2702 H 0.99274 0.66339 0.67411 0.0
H2703 H 0.00905 0.64327 0.64672 0.0
C2704 C 0.97912 0.67186 0.73999 0.0
C2705 C 0.99031 0.68833 0.75918 0.0
C2706 C 0.98874 0.66774 0.72081 0.0
C2707 C 0.00964 0.68037 0.72009 0.0
C2708 C 0.02018 0.69816 0.73858 0.0
C2709 C 0.01068 0.70194 0.75806 0.0
C2710 C 0.05265 0.66269 0.69027 0.0
C2711 C 0.04064 0.65105 0.66864 0.0
C2712 C 0.04288 0.6733 0.70657 0.0
C2713 C 0.02097 0.67309 0.70142 0.0
C2714 C 0.00947 0.6633 0.67902 0.0
C2715 C 0.01904 0.65207 0.66303 0.0
H2716 H 0.2703 0.28991 0.4565 0.0
H2717 H 0.29751 0.23379 0.43131 0.0
H2718 H 0.2778 0.30986 0.42245 0.0
H2719 H 0.30519 0.25379 0.39765 0.0
H2720 H 0.34045 0.31187 0.35944 0.0
H2721 H 0.33039 0.29134 0.39199 0.0
H2722 H 0.26713 0.30422 0.37698 0.0
H2723 H 0.27721 0.32468 0.34393 0.0
C2724 C 0.27786 0.28182 0.44374 0.0
C2725 C 0.28337 0.26026 0.44676 0.0
C2726 C 0.28203 0.29318 0.42414 0.0
C2727 C 0.29216 0.28348 0.40731 0.0
C2728 C 0.29754 0.26188 0.41033 0.0
C2729 C 0.29307 0.25037 0.42964 0.0
C2730 C 0.32436 0.31033 0.36301 0.0
C2731 C 0.30966 0.31999 0.34911 0.0
C2732 C 0.31856 0.29844 0.38164 0.0
C2733 C 0.29795 0.29611 0.38717 0.0
C2734 C 0.28319 0.30585 0.37332 0.0
C2735 C 0.28892 0.31747 0.35434 0.0
H2736 H 0.35107 0.69376 0.51017 0.0
H2737 H 0.33623 0.64903 0.56314 0.0
H2738 H 0.37966 0.67417 0.50311 0.0
H2739 H 0.36451 0.62982 0.55615 0.0
H2740 H 0.39582 0.58031 0.51762 0.0
H2741 H 0.36922 0.60259 0.52374 0.0
H2742 H 0.41534 0.66729 0.52204 0.0
H2743 H 0.44202 0.64483 0.5154 0.0
C2744 C 0.35402 0.68002 0.52049 0.0
C2745 C 0.34114 0.67286 0.53705 0.0
C2746 C 0.3704 0.66881 0.51645 0.0
C2747 C 0.37411 0.65016 0.5288 0.0
C2748 C 0.36177 0.64373 0.54595 0.0
C2749 C 0.34559 0.65491 0.55004 0.0
C2750 C 0.40026 0.59925 0.51825 0.0
C2751 C 0.42108 0.61075 0.51604 0.0
C2752 C 0.38506 0.61207 0.522 0.0
C2753 C 0.39021 0.63675 0.52358 0.0
C2754 C 0.41086 0.6483 0.52084 0.0
C2755 C 0.42618 0.63544 0.51725 0.0
H2756 H 0.90172 0.97692 0.57847 0.0
H2757 H 0.88569 0.01171 0.51843 0.0
H2758 H 0.93982 0.99601 0.58077 0.0
H2759 H 0.92324 0.03031 0.52062 0.0
H2760 H 0.99409 0.04299 0.51721 0.0
H2761 H 0.95772 0.01938 0.51538 0.0
H2762 H 0.96279 0.03864 0.58954 0.0
H2763 H 0.9991 0.06243 0.59126 0.0
C2764 C 0.9063 0.98843 0.56571 0.0
C2765 C 0.89063 0.99288 0.54838 0.0
C2766 C 0.92806 0.99942 0.56706 0.0
C2767 C 0.93453 0.01461 0.5508 0.0
C2768 C 0.91886 0.01854 0.53324 0.0
C2769 C 0.89726 0.00797 0.53214 0.0
C2770 C 0.98743 0.04216 0.53308 0.0
C2771 C 0.99932 0.0548 0.55428 0.0
C2772 C 0.96663 0.02862 0.53208 0.0
C2773 C 0.95735 0.02717 0.55233 0.0
C2774 C 0.96954 0.03922 0.57369 0.0
C2775 C 0.99025 0.053 0.57462 0.0
H2776 H 0.83431 0.08174 0.18265 0.0
H2777 H 0.87709 0.10574 0.24894 0.0
H2778 H 0.81448 0.11138 0.19115 0.0
H2779 H 0.85699 0.13487 0.25765 0.0
H2780 H 0.83598 0.20267 0.25115 0.0
H2781 H 0.85324 0.17107 0.24236 0.0
H2782 H 0.79132 0.12362 0.21718 0.0
H2783 H 0.77393 0.15574 0.22504 0.0
C2784 C 0.83927 0.09312 0.19916 0.0
C2785 C 0.85736 0.09164 0.21503 0.0
C2786 C 0.82788 0.10999 0.20406 0.0
C2787 C 0.83437 0.12559 0.22493 0.0
C2788 C 0.85191 0.1234 0.2412 0.0
C2789 C 0.86334 0.10664 0.23627 0.0
C2790 C 0.82602 0.18563 0.24335 0.0
C2791 C 0.8036 0.18171 0.23865 0.0
C2792 C 0.83591 0.16742 0.23867 0.0
C2793 C 0.82361 0.14483 0.22935 0.0
C2794 C 0.80118 0.14091 0.22431 0.0
C2795 C 0.79125 0.15921 0.22896 0.0
H2796 H 0.73237 0.14671 0.02533 0.0
H2797 H 0.70394 0.2037 0.00596 0.0
H2798 H 0.69685 0.1222 0.02553 0.0
H2799 H 0.66828 0.17891 0.00583 0.0
H2800 H 0.6077 0.11687 0.98545 0.0
H2801 H 0.64341 0.13956 0.98267 0.0
H2802 H 0.66804 0.12496 0.05133 0.0
H2803 H 0.63237 0.1026 0.05435 0.0
C2804 C 0.71852 0.15395 0.02095 0.0
C2805 C 0.72094 0.17717 0.01569 0.0
C2806 C 0.69822 0.13993 0.02114 0.0
C2807 C 0.67986 0.14867 0.01569 0.0
C2808 C 0.68219 0.1717 0.00993 0.0
C2809 C 0.70256 0.1859 0.01013 0.0
C2810 C 0.62079 0.11826 0.99983 0.0
C2811 C 0.61722 0.10793 0.02012 0.0
C2812 C 0.64116 0.1314 0.9983 0.0
C2813 C 0.65842 0.13406 0.01681 0.0
C2814 C 0.65501 0.12309 0.03676 0.0
C2815 C 0.63459 0.11034 0.03849 0.0
H2816 H 0.21489 0.47954 0.25951 0.0
H2817 H 0.17013 0.41221 0.25391 0.0
H2818 H 0.24419 0.4621 0.27482 0.0
H2819 H 0.19933 0.39477 0.26871 0.0
H2820 H 0.25012 0.37109 0.31162 0.0
H2821 H 0.22433 0.39513 0.30415 0.0
H2822 H 0.2638 0.43385 0.26073 0.0
H2823 H 0.28996 0.41002 0.26874 0.0
C2824 C 0.21131 0.46104 0.26156 0.0
C2825 C 0.19021 0.44722 0.2555 0.0
C2826 C 0.2281 0.45107 0.27027 0.0
C2827 C 0.22407 0.42713 0.27316 0.0
C2828 C 0.20293 0.4134 0.26717 0.0
C2829 C 0.18619 0.42333 0.25848 0.0
C2830 C 0.25352 0.3851 0.30091 0.0
C2831 C 0.27185 0.38852 0.29047 0.0
C2832 C 0.23869 0.39876 0.2965 0.0
C2833 C 0.24176 0.41597 0.28137 0.0
C2834 C 0.26099 0.42071 0.27247 0.0
C2835 C 0.27599 0.40712 0.27707 0.0
H2836 H 0.24436 0.43214 0.04611 0.0
H2837 H 0.28812 0.49808 0.07656 0.0
H2838 H 0.21435 0.45116 0.04476 0.0
H2839 H 0.25822 0.51691 0.07567 0.0
H2840 H 0.20501 0.54934 0.04361 0.0
H2841 H 0.23388 0.52902 0.04658 0.0
H2842 H 0.19296 0.46972 0.06846 0.0
H2843 H 0.16359 0.48983 0.0646 0.0
C2844 C 0.24756 0.45062 0.05272 0.0
C2845 C 0.26866 0.46363 0.06126 0.0
C2846 C 0.23034 0.46151 0.05206 0.0
C2847 C 0.23385 0.48564 0.05991 0.0
C2848 C 0.25493 0.49842 0.06904 0.0
C2849 C 0.27209 0.48757 0.06968 0.0
C2850 C 0.20202 0.53185 0.0488 0.0
C2851 C 0.18187 0.52118 0.05369 0.0
C2852 C 0.21872 0.5203 0.05083 0.0
C2853 C 0.21584 0.49775 0.05788 0.0
C2854 C 0.1957 0.48701 0.06281 0.0
C2855 C 0.17893 0.49863 0.06082 0.0
H2856 H 0.8649 0.9374 0.17807 0.0
H2857 H 0.84912 0.99221 0.22188 0.0
H2858 H 0.84087 0.90772 0.19466 0.0
H2859 H 0.82548 0.96259 0.23843 0.0
H2860 H 0.81668 0.90094 0.28478 0.0
H2861 H 0.83564 0.93137 0.26457 0.0
H2862 H 0.79966 0.89456 0.19822 0.0
H2863 H 0.78037 0.86422 0.21851 0.0
C2864 C 0.85614 0.94313 0.19096 0.0
C2865 C 0.85905 0.96716 0.19876 0.0
C2866 C 0.84236 0.92617 0.20036 0.0
C2867 C 0.83151 0.93298 0.21788 0.0
C2868 C 0.83382 0.95695 0.22506 0.0
C2869 C 0.84732 0.97387 0.21549 0.0
C2870 C 0.81259 0.8996 0.26592 0.0
C2871 C 0.797 0.88045 0.25318 0.0
C2872 C 0.82339 0.91695 0.25439 0.0
C2873 C 0.81903 0.91522 0.22989 0.0
C2874 C 0.80328 0.89618 0.21712 0.0
C2875 C 0.79216 0.87901 0.22872 0.0
H2876 H 0.61455 0.06743 0.71579 0.0
H2877 H 0.67149 0.04694 0.7467 0.0
H2878 H 0.63446 0.10843 0.7221 0.0
H2879 H 0.69144 0.08765 0.75229 0.0
H2880 H 0.71854 0.1649 0.77592 0.0
H2881 H 0.69595 0.12553 0.77383 0.0
H2882 H 0.66204 0.13283 0.70619 0.0
H2883 H 0.68376 0.17262 0.7089 0.0
C2884 C 0.63127 0.07166 0.72398 0.0
C2885 C 0.64143 0.05388 0.73066 0.0
C2886 C 0.64272 0.09514 0.72747 0.0
C2887 C 0.66458 0.10132 0.7376 0.0
C2888 C 0.67457 0.08358 0.74474 0.0
C2889 C 0.66312 0.06017 0.74139 0.0
C2890 C 0.70603 0.15825 0.76078 0.0
C2891 C 0.70305 0.17187 0.74252 0.0
C2892 C 0.69324 0.13558 0.75946 0.0
C2893 C 0.67724 0.12597 0.73979 0.0
C2894 C 0.67404 0.13976 0.72171 0.0
C2895 C 0.68674 0.16245 0.7231 0.0
loop_
_geom_bond_atom_site_label_1
_geom_bond_atom_site_label_2
_geom_bond_distance
_geom_bond_site_symmetry_2
_ccdc_geom_bond_type
C0 O1 1.306 . S
C0 O3 1.160 . S
O1 C0 1.306 . S
O1 Cd2 2.228 1_655 S
Cd2 O1 2.228 1_455 S
Cd2 O6 2.273 . S
Cd2 O10 2.277 . S
O3 C0 1.160 . S
O3 Cd4 2.203 1_655 S
Cd4 O3 2.203 1_455 S
Cd4 O6 2.411 . S
Cd4 O7 2.333 . S
Cd4 O8 2.352 . S
Cd4 O12 2.277 . S
Cd4 O13 2.356 . S
C5 O10 1.209 . S
C5 O12 1.226 . S
O6 Cd2 2.273 . S
O6 Cd4 2.411 . S
O6 C9 1.320 . S
O7 Cd4 2.333 . S
O7 C9 1.214 . S
O8 Cd4 2.352 . S
O8 C11 1.258 . S
C9 O6 1.320 . S
C9 O7 1.214 . S
O10 Cd2 2.277 . S
O10 C5 1.209 . S
C11 O8 1.258 . S
C11 O13 1.282 . S
O12 Cd4 2.277 . S
O12 C5 1.226 . S
O13 Cd4 2.356 . S
O13 C11 1.282 . S
C14 O15 1.306 . S
C14 O17 1.160 . S
O15 C14 1.306 . S
O15 Cd16 2.228 . S
Cd16 O15 2.228 . S
Cd16 O20 2.273 . S
Cd16 O24 2.277 . S
O17 C14 1.160 . S
O17 Cd18 2.203 . S
Cd18 O17 2.203 . S
Cd18 O20 2.411 . S
Cd18 O21 2.333 . S
Cd18 O22 2.352 . S
Cd18 O26 2.277 . S
Cd18 O27 2.356 . S
C19 O24 1.209 . S
C19 O26 1.226 . S
O20 Cd16 2.273 . S
O20 Cd18 2.411 . S
O20 C23 1.320 . S
O21 Cd18 2.333 . S
O21 C23 1.214 . S
O22 Cd18 2.352 . S
O22 C25 1.258 . S
C23 O20 1.320 . S
C23 O21 1.214 . S
O24 Cd16 2.277 . S
O24 C19 1.209 . S
C25 O22 1.258 . S
C25 O27 1.282 . S
O26 Cd18 2.277 . S
O26 C19 1.226 . S
O27 Cd18 2.356 . S
O27 C25 1.282 . S
C28 O29 1.306 . S
C28 O31 1.160 . S
O29 C28 1.306 . S
O29 Cd30 2.228 . S
Cd30 O29 2.228 . S
Cd30 O34 2.273 . S
Cd30 O38 2.277 . S
O31 C28 1.160 . S
O31 Cd32 2.203 . S
Cd32 O31 2.203 . S
Cd32 O34 2.411 . S
Cd32 O35 2.333 . S
Cd32 O36 2.352 . S
Cd32 O40 2.277 . S
Cd32 O41 2.356 . S
C33 O38 1.209 . S
C33 O40 1.226 . S
O34 Cd30 2.273 . S
O34 Cd32 2.411 . S
O34 C37 1.320 . S
O35 Cd32 2.333 . S
O35 C37 1.214 . S
O36 Cd32 2.352 . S
O36 C39 1.258 . S
C37 O34 1.320 . S
C37 O35 1.214 . S
O38 Cd30 2.277 . S
O38 C33 1.209 . S
C39 O36 1.258 . S
C39 O41 1.282 . S
O40 Cd32 2.277 . S
O40 C33 1.226 . S
O41 Cd32 2.356 . S
O41 C39 1.282 . S
C42 O43 1.306 . S
C42 O45 1.160 . S
O43 C42 1.306 . S
O43 Cd44 2.228 . S
Cd44 O43 2.228 . S
Cd44 O48 2.273 . S
Cd44 O52 2.277 . S
O45 C42 1.160 . S
O45 Cd46 2.203 . S
Cd46 O45 2.203 . S
Cd46 O48 2.411 . S
Cd46 O49 2.333 . S
Cd46 O50 2.352 . S
Cd46 O54 2.277 . S
Cd46 O55 2.356 . S
C47 O52 1.209 . S
C47 O54 1.226 . S
O48 Cd44 2.273 . S
O48 Cd46 2.411 . S
O48 C51 1.320 . S
O49 Cd46 2.333 . S
O49 C51 1.214 . S
O50 Cd46 2.352 . S
O50 C53 1.258 . S
C51 O48 1.320 . S
C51 O49 1.214 . S
O52 Cd44 2.277 . S
O52 C47 1.209 . S
C53 O50 1.258 . S
C53 O55 1.282 . S
O54 Cd46 2.277 . S
O54 C47 1.226 . S
O55 Cd46 2.356 . S
O55 C53 1.282 . S
C56 O57 1.306 . S
C56 O59 1.160 . S
O57 C56 1.306 . S
O57 Cd58 2.228 . S
Cd58 O57 2.228 . S
Cd58 O62 2.273 . S
Cd58 O66 2.277 . S
O59 C56 1.160 . S
O59 Cd60 2.203 . S
Cd60 O59 2.203 . S
Cd60 O62 2.411 . S
Cd60 O63 2.333 . S
Cd60 O64 2.352 . S
Cd60 O68 2.277 . S
Cd60 O69 2.356 . S
C61 O66 1.209 . S
C61 O68 1.226 . S
O62 Cd58 2.273 . S
O62 Cd60 2.411 . S
O62 C65 1.320 . S
O63 Cd60 2.333 . S
O63 C65 1.214 . S
O64 Cd60 2.352 . S
O64 C67 1.258 . S
C65 O62 1.320 . S
C65 O63 1.214 . S
O66 Cd58 2.277 . S
O66 C61 1.209 . S
C67 O64 1.258 . S
C67 O69 1.282 . S
O68 Cd60 2.277 . S
O68 C61 1.226 . S
O69 Cd60 2.356 . S
O69 C67 1.282 . S
C70 O71 1.306 . S
C70 O73 1.160 . S
O71 C70 1.306 . S
O71 Cd72 2.228 . S
Cd72 O71 2.228 . S
Cd72 O76 2.273 . S
Cd72 O80 2.277 . S
O73 C70 1.160 . S
O73 Cd74 2.203 . S
Cd74 O73 2.203 . S
Cd74 O76 2.411 . S
Cd74 O77 2.333 . S
Cd74 O78 2.352 . S
Cd74 O82 2.277 . S
Cd74 O83 2.356 . S
C75 O80 1.209 . S
C75 O82 1.226 . S
O76 Cd72 2.273 . S
O76 Cd74 2.411 . S
O76 C79 1.320 . S
O77 Cd74 2.333 . S
O77 C79 1.214 . S
O78 Cd74 2.352 . S
O78 C81 1.258 . S
C79 O76 1.320 . S
C79 O77 1.214 . S
O80 Cd72 2.277 . S
O80 C75 1.209 . S
C81 O78 1.258 . S
C81 O83 1.282 . S
O82 Cd74 2.277 . S
O82 C75 1.226 . S
O83 Cd74 2.356 . S
O83 C81 1.282 . S
C84 O85 1.306 . S
C84 O87 1.160 . S
O85 C84 1.306 . S
O85 Cd86 2.228 . S
Cd86 O85 2.228 . S
Cd86 O90 2.273 . S
Cd86 O94 2.277 . S
O87 C84 1.160 . S
O87 Cd88 2.203 . S
Cd88 O87 2.203 . S
Cd88 O90 2.411 . S
Cd88 O91 2.333 . S
Cd88 O92 2.352 . S
Cd88 O96 2.277 . S
Cd88 O97 2.356 . S
C89 O94 1.209 . S
C89 O96 1.226 . S
O90 Cd86 2.273 . S
O90 Cd88 2.411 . S
O90 C93 1.320 . S
O91 Cd88 2.333 . S
O91 C93 1.214 . S
O92 Cd88 2.352 . S
O92 C95 1.258 . S
C93 O90 1.320 . S
C93 O91 1.214 . S
O94 Cd86 2.277 . S
O94 C89 1.209 . S
C95 O92 1.258 . S
C95 O97 1.282 . S
O96 Cd88 2.277 . S
O96 C89 1.226 . S
O97 Cd88 2.356 . S
O97 C95 1.282 . S
C98 O99 1.306 . S
C98 O101 1.160 . S
O99 C98 1.306 . S
O99 Cd100 2.228 1_655 S
Cd100 O99 2.228 1_455 S
Cd100 O104 2.273 . S
Cd100 O108 2.277 . S
O101 C98 1.160 . S
O101 Cd102 2.203 1_655 S
Cd102 O101 2.203 1_455 S
Cd102 O104 2.411 . S
Cd102 O105 2.333 . S
Cd102 O106 2.352 . S
Cd102 O110 2.277 . S
Cd102 O111 2.356 . S
C103 O108 1.209 . S
C103 O110 1.226 . S
O104 Cd100 2.273 . S
O104 Cd102 2.411 . S
O104 C107 1.320 . S
O105 Cd102 2.333 . S
O105 C107 1.214 . S
O106 Cd102 2.352 . S
O106 C109 1.258 . S
C107 O104 1.320 . S
C107 O105 1.214 . S
O108 Cd100 2.277 . S
O108 C103 1.209 . S
C109 O106 1.258 . S
C109 O111 1.282 . S
O110 Cd102 2.277 . S
O110 C103 1.226 . S
O111 Cd102 2.356 . S
O111 C109 1.282 . S
C112 O113 1.306 . S
C112 O115 1.160 . S
O113 C112 1.306 . S
O113 Cd114 2.228 . S
Cd114 O113 2.228 . S
Cd114 O118 2.273 . S
Cd114 O122 2.277 . S
O115 C112 1.160 . S
O115 Cd116 2.203 . S
Cd116 O115 2.203 . S
Cd116 O118 2.411 . S
Cd116 O119 2.333 . S
Cd116 O120 2.352 . S
Cd116 O124 2.277 . S
Cd116 O125 2.356 . S
C117 O122 1.209 . S
C117 O124 1.226 . S
O118 Cd114 2.273 . S
O118 Cd116 2.411 . S
O118 C121 1.320 . S
O119 Cd116 2.333 . S
O119 C121 1.214 . S
O120 Cd116 2.352 . S
O120 C123 1.258 . S
C121 O118 1.320 . S
C121 O119 1.214 . S
O122 Cd114 2.277 . S
O122 C117 1.209 . S
C123 O120 1.258 . S
C123 O125 1.282 . S
O124 Cd116 2.277 . S
O124 C117 1.226 . S
O125 Cd116 2.356 . S
O125 C123 1.282 . S
C126 O127 1.306 . S
C126 O129 1.160 . S
O127 C126 1.306 . S
O127 Cd128 2.228 . S
Cd128 O127 2.228 . S
Cd128 O132 2.273 . S
Cd128 O136 2.277 . S
O129 C126 1.160 . S
O129 Cd130 2.203 . S
Cd130 O129 2.203 . S
Cd130 O132 2.411 . S
Cd130 O133 2.333 . S
Cd130 O134 2.352 . S
Cd130 O138 2.277 . S
Cd130 O139 2.356 . S
C131 O136 1.209 . S
C131 O138 1.226 . S
O132 Cd128 2.273 . S
O132 Cd130 2.411 . S
O132 C135 1.320 . S
O133 Cd130 2.333 . S
O133 C135 1.214 . S
O134 Cd130 2.352 . S
O134 C137 1.258 . S
C135 O132 1.320 . S
C135 O133 1.214 . S
O136 Cd128 2.277 . S
O136 C131 1.209 . S
C137 O134 1.258 . S
C137 O139 1.282 . S
O138 Cd130 2.277 . S
O138 C131 1.226 . S
O139 Cd130 2.356 . S
O139 C137 1.282 . S
C140 O141 1.306 . S
C140 O143 1.160 . S
O141 C140 1.306 . S
O141 Cd142 2.228 . S
Cd142 O141 2.228 . S
Cd142 O146 2.273 . S
Cd142 O150 2.277 . S
O143 C140 1.160 . S
O143 Cd144 2.203 . S
Cd144 O143 2.203 . S
Cd144 O146 2.411 . S
Cd144 O147 2.333 . S
Cd144 O148 2.352 . S
Cd144 O152 2.277 . S
Cd144 O153 2.356 . S
C145 O150 1.209 . S
C145 O152 1.226 . S
O146 Cd142 2.273 . S
O146 Cd144 2.411 . S
O146 C149 1.320 . S
O147 Cd144 2.333 . S
O147 C149 1.214 . S
O148 Cd144 2.352 . S
O148 C151 1.258 . S
C149 O146 1.320 . S
C149 O147 1.214 . S
O150 Cd142 2.277 . S
O150 C145 1.209 . S
C151 O148 1.258 . S
C151 O153 1.282 . S
O152 Cd144 2.277 . S
O152 C145 1.226 . S
O153 Cd144 2.356 . S
O153 C151 1.282 . S
C154 O155 1.306 . S
C154 O157 1.160 . S
O155 C154 1.306 . S
O155 Cd156 2.228 . S
Cd156 O155 2.228 . S
Cd156 O160 2.273 . S
Cd156 O164 2.277 . S
O157 C154 1.160 . S
O157 Cd158 2.203 . S
Cd158 O157 2.203 . S
Cd158 O160 2.411 . S
Cd158 O161 2.333 . S
Cd158 O162 2.352 . S
Cd158 O166 2.277 . S
Cd158 O167 2.356 . S
C159 O164 1.209 . S
C159 O166 1.226 . S
O160 Cd156 2.273 . S
O160 Cd158 2.411 . S
O160 C163 1.320 . S
O161 Cd158 2.333 . S
O161 C163 1.214 . S
O162 Cd158 2.352 . S
O162 C165 1.258 . S
C163 O160 1.320 . S
C163 O161 1.214 . S
O164 Cd156 2.277 . S
O164 C159 1.209 . S
C165 O162 1.258 . S
C165 O167 1.282 . S
O166 Cd158 2.277 . S
O166 C159 1.226 . S
O167 Cd158 2.356 . S
O167 C165 1.282 . S
C168 O169 1.306 . S
C168 O171 1.160 . S
O169 C168 1.306 . S
O169 Cd170 2.228 . S
Cd170 O169 2.228 . S
Cd170 O174 2.273 . S
Cd170 O178 2.277 1_554 S
O171 C168 1.160 . S
O171 Cd172 2.203 . S
Cd172 O171 2.203 . S
Cd172 O174 2.411 . S
Cd172 O175 2.333 . S
Cd172 O176 2.352 . S
Cd172 O180 2.277 . S
Cd172 O181 2.356 . S
C173 O178 1.209 . S
C173 O180 1.226 1_556 S
O174 Cd170 2.273 . S
O174 Cd172 2.411 . S
O174 C177 1.320 . S
O175 Cd172 2.333 . S
O175 C177 1.214 . S
O176 Cd172 2.352 . S
O176 C179 1.258 . S
C177 O174 1.320 . S
C177 O175 1.214 . S
O178 Cd170 2.277 1_556 S
O178 C173 1.209 . S
C179 O176 1.258 . S
C179 O181 1.282 . S
O180 Cd172 2.277 . S
O180 C173 1.226 1_554 S
O181 Cd172 2.356 . S
O181 C179 1.282 . S
C182 O183 1.306 . S
C182 O185 1.168 . S
O183 C182 1.306 . S
O183 Cd184 2.228 . S
Cd184 O183 2.228 . S
Cd184 O188 2.273 1_554 S
Cd184 O192 2.277 . S
O185 C182 1.168 . S
O185 Cd186 2.204 1_554 S
Cd186 O185 2.204 1_556 S
Cd186 O188 2.411 . S
Cd186 O189 2.333 . S
Cd186 O190 2.352 . S
Cd186 O194 2.277 1_556 S
Cd186 O195 2.356 . S
C187 O192 1.209 . S
C187 O194 1.226 . S
O188 Cd184 2.273 1_556 S
O188 Cd186 2.411 . S
O188 C191 1.320 . S
O189 Cd186 2.333 . S
O189 C191 1.214 . S
O190 Cd186 2.352 . S
O190 C193 1.258 . S
C191 O188 1.320 . S
C191 O189 1.214 . S
O192 Cd184 2.277 . S
O192 C187 1.209 . S
C193 O190 1.258 . S
C193 O195 1.282 . S
O194 Cd186 2.277 1_554 S
O194 C187 1.226 . S
O195 Cd186 2.356 . S
O195 C193 1.282 . S
C196 O197 1.306 . S
C196 O199 1.160 . S
O197 C196 1.306 . S
O197 Cd198 2.228 . S
Cd198 O197 2.228 . S
Cd198 O202 2.273 . S
Cd198 O206 2.277 . S
O199 C196 1.160 . S
O199 Cd200 2.203 . S
Cd200 O199 2.203 . S
Cd200 O202 2.411 . S
Cd200 O203 2.333 . S
Cd200 O204 2.352 . S
Cd200 O208 2.277 . S
Cd200 O209 2.356 . S
C201 O206 1.209 . S
C201 O208 1.226 . S
O202 Cd198 2.273 . S
O202 Cd200 2.411 . S
O202 C205 1.320 . S
O203 Cd200 2.333 . S
O203 C205 1.214 . S
O204 Cd200 2.352 . S
O204 C207 1.258 . S
C205 O202 1.320 . S
C205 O203 1.214 . S
O206 Cd198 2.277 . S
O206 C201 1.209 . S
C207 O204 1.258 . S
C207 O209 1.282 . S
O208 Cd200 2.277 . S
O208 C201 1.226 . S
O209 Cd200 2.356 . S
O209 C207 1.282 . S
C210 O211 1.306 . S
C210 O213 1.160 . S
O211 C210 1.306 . S
O211 Cd212 2.228 . S
Cd212 O211 2.228 . S
Cd212 O216 2.273 . S
Cd212 O220 2.277 . S
O213 C210 1.160 . S
O213 Cd214 2.203 . S
Cd214 O213 2.203 . S
Cd214 O216 2.411 . S
Cd214 O217 2.333 . S
Cd214 O218 2.352 . S
Cd214 O222 2.277 . S
Cd214 O223 2.356 . S
C215 O220 1.209 . S
C215 O222 1.226 . S
O216 Cd212 2.273 . S
O216 Cd214 2.411 . S
O216 C219 1.320 . S
O217 Cd214 2.333 . S
O217 C219 1.214 . S
O218 Cd214 2.352 . S
O218 C221 1.258 . S
C219 O216 1.320 . S
C219 O217 1.214 . S
O220 Cd212 2.277 . S
O220 C215 1.209 . S
C221 O218 1.258 . S
C221 O223 1.282 . S
O222 Cd214 2.277 . S
O222 C215 1.226 . S
O223 Cd214 2.356 . S
O223 C221 1.282 . S
C224 O225 1.306 . S
C224 O227 1.160 . S
O225 C224 1.306 . S
O225 Cd226 2.228 . S
Cd226 O225 2.228 . S
Cd226 O230 2.273 . S
Cd226 O234 2.275 1_545 S
O227 C224 1.160 . S
O227 Cd228 2.203 . S
Cd228 O227 2.203 . S
Cd228 O230 2.411 . S
Cd228 O231 2.333 . S
Cd228 O232 2.352 . S
Cd228 O236 2.277 . S
Cd228 O237 2.356 . S
C229 O234 1.209 . S
C229 O236 1.226 1_565 S
O230 Cd226 2.273 . S
O230 Cd228 2.411 . S
O230 C233 1.320 . S
O231 Cd228 2.333 . S
O231 C233 1.214 . S
O232 Cd228 2.352 . S
O232 C235 1.258 . S
C233 O230 1.320 . S
C233 O231 1.214 . S
O234 Cd226 2.275 1_565 S
O234 C229 1.209 . S
C235 O232 1.258 . S
C235 O237 1.282 . S
O236 Cd228 2.277 . S
O236 C229 1.226 1_545 S
O237 Cd228 2.356 . S
O237 C235 1.282 . S
C238 O239 1.306 . S
C238 O241 1.160 . S
O239 C238 1.306 . S
O239 Cd240 2.228 . S
Cd240 O239 2.228 . S
Cd240 O244 2.273 . S
Cd240 O248 2.277 . S
O241 C238 1.160 . S
O241 Cd242 2.203 . S
Cd242 O241 2.203 . S
Cd242 O244 2.411 . S
Cd242 O245 2.333 . S
Cd242 O246 2.352 . S
Cd242 O250 2.277 . S
Cd242 O251 2.356 . S
C243 O248 1.209 . S
C243 O250 1.226 . S
O244 Cd240 2.273 . S
O244 Cd242 2.411 . S
O244 C247 1.320 . S
O245 Cd242 2.333 . S
O245 C247 1.214 . S
O246 Cd242 2.352 . S
O246 C249 1.258 . S
C247 O244 1.320 . S
C247 O245 1.214 . S
O248 Cd240 2.277 . S
O248 C243 1.209 . S
C249 O246 1.258 . S
C249 O251 1.282 . S
O250 Cd242 2.277 . S
O250 C243 1.226 . S
O251 Cd242 2.356 . S
O251 C249 1.282 . S
C252 O253 1.306 . S
C252 O255 1.160 . S
O253 C252 1.306 . S
O253 Cd254 2.228 . S
Cd254 O253 2.228 . S
Cd254 O258 2.273 . S
Cd254 O262 2.277 . S
O255 C252 1.160 . S
O255 Cd256 2.203 . S
Cd256 O255 2.203 . S
Cd256 O258 2.411 . S
Cd256 O259 2.333 . S
Cd256 O260 2.352 . S
Cd256 O264 2.277 . S
Cd256 O265 2.356 . S
C257 O262 1.209 . S
C257 O264 1.226 . S
O258 Cd254 2.273 . S
O258 Cd256 2.411 . S
O258 C261 1.320 . S
O259 Cd256 2.333 . S
O259 C261 1.214 . S
O260 Cd256 2.352 . S
O260 C263 1.258 . S
C261 O258 1.320 . S
C261 O259 1.214 . S
O262 Cd254 2.277 . S
O262 C257 1.209 . S
C263 O260 1.258 . S
C263 O265 1.282 . S
O264 Cd256 2.277 . S
O264 C257 1.226 . S
O265 Cd256 2.356 . S
O265 C263 1.282 . S
C266 O267 1.306 . S
C266 O269 1.157 1_545 S
O267 C266 1.306 . S
O267 Cd268 2.228 . S
Cd268 O267 2.228 . S
Cd268 O272 2.273 1_545 S
Cd268 O276 2.277 . S
O269 C266 1.157 1_565 S
O269 Cd270 2.203 . S
Cd270 O269 2.203 . S
Cd270 O272 2.411 . S
Cd270 O273 2.333 . S
Cd270 O274 2.352 . S
Cd270 O278 2.277 1_565 S
Cd270 O279 2.356 . S
C271 O276 1.209 . S
C271 O278 1.226 . S
O272 Cd268 2.273 1_565 S
O272 Cd270 2.411 . S
O272 C275 1.320 . S
O273 Cd270 2.333 . S
O273 C275 1.214 . S
O274 Cd270 2.352 . S
O274 C277 1.258 . S
C275 O272 1.320 . S
C275 O273 1.214 . S
O276 Cd268 2.277 . S
O276 C271 1.209 . S
C277 O274 1.258 . S
C277 O279 1.282 . S
O278 Cd270 2.277 1_545 S
O278 C271 1.226 . S
O279 Cd270 2.356 . S
O279 C277 1.282 . S
C280 O281 1.306 . S
C280 O283 1.160 . S
O281 C280 1.306 . S
O281 Cd282 2.228 . S
Cd282 O281 2.228 . S
Cd282 O286 2.273 . S
Cd282 O290 2.277 . S
O283 C280 1.160 . S
O283 Cd284 2.203 . S
Cd284 O283 2.203 . S
Cd284 O286 2.411 . S
Cd284 O287 2.333 . S
Cd284 O288 2.352 1_554 S
Cd284 O292 2.277 . S
Cd284 O293 2.356 1_554 S
C285 O290 1.209 . S
C285 O292 1.226 . S
O286 Cd282 2.273 . S
O286 Cd284 2.411 . S
O286 C289 1.320 . S
O287 Cd284 2.333 . S
O287 C289 1.214 . S
O288 Cd284 2.352 1_556 S
O288 C291 1.258 . S
C289 O286 1.320 . S
C289 O287 1.214 . S
O290 Cd282 2.277 . S
O290 C285 1.209 . S
C291 O288 1.258 . S
C291 O293 1.282 . S
O292 Cd284 2.277 . S
O292 C285 1.226 . S
O293 Cd284 2.356 1_556 S
O293 C291 1.282 . S
C294 O295 1.306 . S
C294 O297 1.160 . S
O295 C294 1.306 . S
O295 Cd296 2.228 . S
Cd296 O295 2.228 . S
Cd296 O300 2.273 . S
Cd296 O304 2.277 . S
O297 C294 1.160 . S
O297 Cd298 2.203 . S
Cd298 O297 2.203 . S
Cd298 O300 2.411 . S
Cd298 O301 2.333 . S
Cd298 O302 2.352 . S
Cd298 O306 2.277 . S
Cd298 O307 2.356 . S
C299 O304 1.209 . S
C299 O306 1.226 . S
O300 Cd296 2.273 . S
O300 Cd298 2.411 . S
O300 C303 1.320 . S
O301 Cd298 2.333 . S
O301 C303 1.214 . S
O302 Cd298 2.352 . S
O302 C305 1.258 . S
C303 O300 1.320 . S
C303 O301 1.214 . S
O304 Cd296 2.277 . S
O304 C299 1.209 . S
C305 O302 1.258 . S
C305 O307 1.282 . S
O306 Cd298 2.277 . S
O306 C299 1.226 . S
O307 Cd298 2.356 . S
O307 C305 1.282 . S
C308 O309 1.306 . S
C308 O311 1.160 . S
O309 C308 1.306 . S
O309 Cd310 2.228 . S
Cd310 O309 2.228 . S
Cd310 O314 2.273 . S
Cd310 O318 2.277 . S
O311 C308 1.160 . S
O311 Cd312 2.203 . S
Cd312 O311 2.203 . S
Cd312 O314 2.411 . S
Cd312 O315 2.333 . S
Cd312 O316 2.352 . S
Cd312 O320 2.277 . S
Cd312 O321 2.356 . S
C313 O318 1.209 . S
C313 O320 1.226 . S
O314 Cd310 2.273 . S
O314 Cd312 2.411 . S
O314 C317 1.320 . S
O315 Cd312 2.333 . S
O315 C317 1.214 . S
O316 Cd312 2.352 . S
O316 C319 1.258 . S
C317 O314 1.320 . S
C317 O315 1.214 . S
O318 Cd310 2.277 . S
O318 C313 1.209 . S
C319 O316 1.258 . S
C319 O321 1.282 . S
O320 Cd312 2.277 . S
O320 C313 1.226 . S
O321 Cd312 2.356 . S
O321 C319 1.282 . S
C322 O323 1.306 . S
C322 O325 1.160 . S
O323 C322 1.306 . S
O323 Cd324 2.228 . S
Cd324 O323 2.228 . S
Cd324 O328 2.273 . S
Cd324 O332 2.277 . S
O325 C322 1.160 . S
O325 Cd326 2.203 . S
Cd326 O325 2.203 . S
Cd326 O328 2.411 . S
Cd326 O329 2.333 . S
Cd326 O330 2.352 . S
Cd326 O334 2.277 . S
Cd326 O335 2.356 . S
C327 O332 1.209 . S
C327 O334 1.226 . S
O328 Cd324 2.273 . S
O328 Cd326 2.411 . S
O328 C331 1.320 . S
O329 Cd326 2.333 . S
O329 C331 1.214 . S
O330 Cd326 2.352 . S
O330 C333 1.258 . S
C331 O328 1.320 . S
C331 O329 1.214 . S
O332 Cd324 2.277 . S
O332 C327 1.209 . S
C333 O330 1.258 . S
C333 O335 1.282 . S
O334 Cd326 2.277 . S
O334 C327 1.226 . S
O335 Cd326 2.356 . S
O335 C333 1.282 . S
Pr336 C338 2.880 1_454 S
Pr336 O356 2.562 1_455 S
Pr336 O357 2.490 1_454 S
Pr336 O358 2.695 . S
Pr336 O359 2.512 1_554 S
Pr336 O361 2.437 . S
Pr336 O364 2.436 . S
Pr336 O366 2.438 . S
Pr337 C347 2.880 . S
Pr337 O358 2.436 . S
Pr337 O360 2.438 . S
Pr337 O362 2.562 . S
Pr337 O363 2.490 . S
Pr337 O364 2.695 . S
Pr337 O365 2.512 . S
Pr337 O367 2.437 . S
C338 Pr336 2.880 1_656 S
C338 C339 1.491 . S
C338 O356 1.254 1_556 S
C338 O357 1.225 . S
C339 C338 1.491 . S
C339 C340 1.392 . S
C339 C344 1.356 1_556 S
C340 C339 1.392 . S
C340 C341 1.368 . S
C340 H368 0.929 . S
C341 C340 1.368 . S
C341 C342 1.386 . S
C341 H369 0.929 . S
C342 C341 1.386 . S
C342 C343 1.373 . S
C343 C342 1.373 . S
C343 C344 1.409 1_556 S
C343 H370 0.931 1_556 S
C344 C339 1.356 1_554 S
C344 C343 1.409 1_554 S
C344 H371 0.930 . S
C345 O358 1.270 1_556 S
C345 O359 1.248 . S
C346 O360 1.267 . S
C346 O361 1.278 . S
C347 Pr337 2.880 . S
C347 C348 1.491 . S
C347 O362 1.254 . S
C347 O363 1.225 . S
C348 C347 1.491 . S
C348 C349 1.392 . S
C348 C353 1.356 . S
C349 C348 1.392 . S
C349 C350 1.368 . S
C349 H372 0.929 . S
C350 C349 1.368 . S
C350 C351 1.386 . S
C350 H373 0.929 . S
C351 C350 1.386 . S
C351 C352 1.373 . S
C352 C351 1.373 . S
C352 C353 1.409 . S
C352 H374 0.931 . S
C353 C348 1.356 . S
C353 C352 1.409 . S
C353 H375 0.930 . S
C354 O364 1.270 . S
C354 O365 1.248 . S
C355 O366 1.267 . S
C355 O367 1.278 . S
O356 Pr336 2.562 1_655 S
O356 C338 1.254 1_554 S
O357 Pr336 2.490 1_656 S
O357 C338 1.225 . S
O358 Pr336 2.695 . S
O358 Pr337 2.436 . S
O358 C345 1.270 1_554 S
O359 Pr336 2.512 1_556 S
O359 C345 1.248 . S
O360 Pr337 2.438 . S
O360 C346 1.267 . S
O361 Pr336 2.437 . S
O361 C346 1.278 . S
O362 Pr337 2.562 . S
O362 C347 1.254 . S
O363 Pr337 2.490 . S
O363 C347 1.225 . S
O364 Pr336 2.436 . S
O364 Pr337 2.695 . S
O364 C354 1.270 . S
O365 Pr337 2.512 . S
O365 C354 1.248 . S
O366 Pr336 2.438 . S
O366 C355 1.267 . S
O367 Pr337 2.437 . S
O367 C355 1.278 . S
H368 C340 0.929 . S
H369 C341 0.929 . S
H370 C343 0.931 1_554 S
H371 C344 0.930 . S
H372 C349 0.929 . S
H373 C350 0.929 . S
H374 C352 0.931 . S
H375 C353 0.930 . S
Pr376 C378 2.880 . S
Pr376 O396 2.562 . S
Pr376 O397 2.490 . S
Pr376 O398 2.695 . S
Pr376 O399 2.512 . S
Pr376 O401 2.437 . S
Pr376 O404 2.436 . S
Pr376 O406 2.438 . S
Pr377 C387 2.880 . S
Pr377 O398 2.436 . S
Pr377 O400 2.438 . S
Pr377 O402 2.562 . S
Pr377 O403 2.490 . S
Pr377 O404 2.695 . S
Pr377 O405 2.512 . S
Pr377 O407 2.437 . S
C378 Pr376 2.880 . S
C378 C379 1.491 . S
C378 O396 1.254 . S
C378 O397 1.225 . S
C379 C378 1.491 . S
C379 C380 1.392 . S
C379 C384 1.356 . S
C380 C379 1.392 . S
C380 C381 1.368 . S
C380 H408 0.929 . S
C381 C380 1.368 . S
C381 C382 1.386 . S
C381 H409 0.929 . S
C382 C381 1.386 . S
C382 C383 1.373 . S
C383 C382 1.373 . S
C383 C384 1.409 . S
C383 H410 0.931 . S
C384 C379 1.356 . S
C384 C383 1.409 . S
C384 H411 0.930 . S
C385 O398 1.270 . S
C385 O399 1.248 . S
C386 O400 1.267 . S
C386 O401 1.278 . S
C387 Pr377 2.880 . S
C387 C388 1.491 . S
C387 O402 1.254 . S
C387 O403 1.225 . S
C388 C387 1.491 . S
C388 C389 1.392 . S
C388 C393 1.356 . S
C389 C388 1.392 . S
C389 C390 1.368 . S
C389 H412 0.929 . S
C390 C389 1.368 . S
C390 C391 1.386 . S
C390 H413 0.929 . S
C391 C390 1.386 . S
C391 C392 1.373 . S
C392 C391 1.373 . S
C392 C393 1.409 . S
C392 H414 0.931 . S
C393 C388 1.356 . S
C393 C392 1.409 . S
C393 H415 0.930 . S
C394 O404 1.270 . S
C394 O405 1.248 . S
C395 O406 1.267 . S
C395 O407 1.278 . S
O396 Pr376 2.562 . S
O396 C378 1.254 . S
O397 Pr376 2.490 . S
O397 C378 1.225 . S
O398 Pr376 2.695 . S
O398 Pr377 2.436 . S
O398 C385 1.270 . S
O399 Pr376 2.512 . S
O399 C385 1.248 . S
O400 Pr377 2.438 . S
O400 C386 1.267 . S
O401 Pr376 2.437 . S
O401 C386 1.278 . S
O402 Pr377 2.562 . S
O402 C387 1.254 . S
O403 Pr377 2.490 . S
O403 C387 1.225 . S
O404 Pr376 2.436 . S
O404 Pr377 2.695 . S
O404 C394 1.270 . S
O405 Pr377 2.512 . S
O405 C394 1.248 . S
O406 Pr376 2.438 . S
O406 C395 1.267 . S
O407 Pr377 2.437 . S
O407 C395 1.278 . S
H408 C380 0.929 . S
H409 C381 0.929 . S
H410 C383 0.931 . S
H411 C384 0.930 . S
H412 C389 0.929 . S
H413 C390 0.929 . S
H414 C392 0.931 . S
H415 C393 0.930 . S
Pr416 C418 2.880 . S
Pr416 O436 2.562 . S
Pr416 O437 2.490 . S
Pr416 O438 2.695 . S
Pr416 O439 2.512 . S
Pr416 O441 2.437 . S
Pr416 O444 2.436 . S
Pr416 O446 2.438 . S
Pr417 C427 2.880 . S
Pr417 O438 2.436 . S
Pr417 O440 2.438 . S
Pr417 O442 2.562 . S
Pr417 O443 2.490 . S
Pr417 O444 2.695 . S
Pr417 O445 2.512 . S
Pr417 O447 2.437 . S
C418 Pr416 2.880 . S
C418 C419 1.491 . S
C418 O436 1.254 . S
C418 O437 1.225 . S
C419 C418 1.491 . S
C419 C420 1.392 . S
C419 C424 1.356 . S
C420 C419 1.392 . S
C420 C421 1.368 . S
C420 H448 0.929 . S
C421 C420 1.368 . S
C421 C422 1.386 . S
C421 H449 0.929 . S
C422 C421 1.386 . S
C422 C423 1.373 . S
C423 C422 1.373 . S
C423 C424 1.409 . S
C423 H450 0.931 1_545 S
C424 C419 1.356 . S
C424 C423 1.409 . S
C424 H451 0.930 . S
C425 O438 1.270 . S
C425 O439 1.248 . S
C426 O440 1.267 . S
C426 O441 1.278 . S
C427 Pr417 2.880 . S
C427 C428 1.491 . S
C427 O442 1.254 . S
C427 O443 1.225 . S
C428 C427 1.491 . S
C428 C429 1.392 . S
C428 C433 1.356 . S
C429 C428 1.392 . S
C429 C430 1.368 . S
C429 H452 0.929 . S
C430 C429 1.368 . S
C430 C431 1.386 . S
C430 H453 0.929 . S
C431 C430 1.386 . S
C431 C432 1.373 . S
C432 C431 1.373 . S
C432 C433 1.409 . S
C432 H454 0.931 . S
C433 C428 1.356 . S
C433 C432 1.409 . S
C433 H455 0.930 . S
C434 O444 1.270 . S
C434 O445 1.248 . S
C435 O446 1.267 . S
C435 O447 1.278 . S
O436 Pr416 2.562 . S
O436 C418 1.254 . S
O437 Pr416 2.490 . S
O437 C418 1.225 . S
O438 Pr416 2.695 . S
O438 Pr417 2.436 . S
O438 C425 1.270 . S
O439 Pr416 2.512 . S
O439 C425 1.248 . S
O440 Pr417 2.438 . S
O440 C426 1.267 . S
O441 Pr416 2.437 . S
O441 C426 1.278 . S
O442 Pr417 2.562 . S
O442 C427 1.254 . S
O443 Pr417 2.490 . S
O443 C427 1.225 . S
O444 Pr416 2.436 . S
O444 Pr417 2.695 . S
O444 C434 1.270 . S
O445 Pr417 2.512 . S
O445 C434 1.248 . S
O446 Pr416 2.438 . S
O446 C435 1.267 . S
O447 Pr417 2.437 . S
O447 C435 1.278 . S
H448 C420 0.929 . S
H449 C421 0.929 . S
H450 C423 0.931 1_565 S
H451 C424 0.930 . S
H452 C429 0.929 . S
H453 C430 0.929 . S
H454 C432 0.931 . S
H455 C433 0.930 . S
Pr456 C458 2.880 . S
Pr456 O476 2.562 . S
Pr456 O477 2.490 . S
Pr456 O478 2.695 . S
Pr456 O479 2.512 . S
Pr456 O481 2.437 . S
Pr456 O484 2.436 . S
Pr456 O486 2.438 . S
Pr457 C467 2.880 . S
Pr457 O478 2.436 . S
Pr457 O480 2.438 . S
Pr457 O482 2.562 . S
Pr457 O483 2.490 . S
Pr457 O484 2.695 . S
Pr457 O485 2.512 . S
Pr457 O487 2.437 . S
C458 Pr456 2.880 . S
C458 C459 1.491 . S
C458 O476 1.254 . S
C458 O477 1.225 . S
C459 C458 1.491 . S
C459 C460 1.392 . S
C459 C464 1.356 . S
C460 C459 1.392 . S
C460 C461 1.368 . S
C460 H488 0.929 . S
C461 C460 1.368 . S
C461 C462 1.386 . S
C461 H489 0.929 . S
C462 C461 1.386 . S
C462 C463 1.373 . S
C463 C462 1.373 . S
C463 C464 1.409 . S
C463 H490 0.931 . S
C464 C459 1.356 . S
C464 C463 1.409 . S
C464 H491 0.930 . S
C465 O478 1.270 . S
C465 O479 1.248 . S
C466 O480 1.267 . S
C466 O481 1.278 . S
C467 Pr457 2.880 . S
C467 C468 1.491 . S
C467 O482 1.254 . S
C467 O483 1.225 . S
C468 C467 1.491 . S
C468 C469 1.392 . S
C468 C473 1.356 . S
C469 C468 1.392 . S
C469 C470 1.368 . S
C469 H492 0.929 . S
C470 C469 1.368 . S
C470 C471 1.386 . S
C470 H493 0.929 . S
C471 C470 1.386 . S
C471 C472 1.373 . S
C472 C471 1.373 . S
C472 C473 1.409 . S
C472 H494 0.931 . S
C473 C468 1.356 . S
C473 C472 1.409 . S
C473 H495 0.930 . S
C474 O484 1.270 . S
C474 O485 1.248 . S
C475 O486 1.267 . S
C475 O487 1.278 . S
O476 Pr456 2.562 . S
O476 C458 1.254 . S
O477 Pr456 2.490 . S
O477 C458 1.225 . S
O478 Pr456 2.695 . S
O478 Pr457 2.436 . S
O478 C465 1.270 . S
O479 Pr456 2.512 . S
O479 C465 1.248 . S
O480 Pr457 2.438 . S
O480 C466 1.267 . S
O481 Pr456 2.437 . S
O481 C466 1.278 . S
O482 Pr457 2.562 . S
O482 C467 1.254 . S
O483 Pr457 2.490 . S
O483 C467 1.225 . S
O484 Pr456 2.436 . S
O484 Pr457 2.695 . S
O484 C474 1.270 . S
O485 Pr457 2.512 . S
O485 C474 1.248 . S
O486 Pr456 2.438 . S
O486 C475 1.267 . S
O487 Pr457 2.437 . S
O487 C475 1.278 . S
H488 C460 0.929 . S
H489 C461 0.929 . S
H490 C463 0.931 . S
H491 C464 0.930 . S
H492 C469 0.929 . S
H493 C470 0.929 . S
H494 C472 0.931 . S
H495 C473 0.930 . S
Pr496 C498 2.880 . S
Pr496 O516 2.562 . S
Pr496 O517 2.490 . S
Pr496 O518 2.695 . S
Pr496 O519 2.512 . S
Pr496 O521 2.437 . S
Pr496 O524 2.436 . S
Pr496 O526 2.438 . S
Pr497 C507 2.880 . S
Pr497 O518 2.436 . S
Pr497 O520 2.438 . S
Pr497 O522 2.562 . S
Pr497 O523 2.490 . S
Pr497 O524 2.695 . S
Pr497 O525 2.512 . S
Pr497 O527 2.437 . S
C498 Pr496 2.880 . S
C498 C499 1.491 . S
C498 O516 1.254 . S
C498 O517 1.225 . S
C499 C498 1.491 . S
C499 C500 1.392 . S
C499 C504 1.356 1_455 S
C500 C499 1.392 . S
C500 C501 1.368 . S
C500 H528 0.929 . S
C501 C500 1.368 . S
C501 C502 1.411 . S
C501 H529 0.929 . S
C502 C501 1.411 . S
C502 C503 1.355 1_455 S
C503 C502 1.355 1_655 S
C503 C504 1.409 . S
C503 H530 0.931 . S
C504 C499 1.356 1_655 S
C504 C503 1.409 . S
C504 H531 0.930 . S
C505 O518 1.270 . S
C505 O519 1.248 . S
C506 O520 1.267 . S
C506 O521 1.278 . S
C507 Pr497 2.880 . S
C507 C508 1.491 . S
C507 O522 1.254 . S
C507 O523 1.225 . S
C508 C507 1.491 . S
C508 C509 1.392 . S
C508 C513 1.356 . S
C509 C508 1.392 . S
C509 C510 1.368 . S
C509 H532 0.929 . S
C510 C509 1.368 . S
C510 C511 1.386 . S
C510 H533 0.929 . S
C511 C510 1.386 . S
C511 C512 1.373 . S
C512 C511 1.373 . S
C512 C513 1.409 . S
C512 H534 0.931 . S
C513 C508 1.356 . S
C513 C512 1.409 . S
C513 H535 0.930 . S
C514 O524 1.270 . S
C514 O525 1.248 . S
C515 O526 1.267 . S
C515 O527 1.278 . S
O516 Pr496 2.562 . S
O516 C498 1.254 . S
O517 Pr496 2.490 . S
O517 C498 1.225 . S
O518 Pr496 2.695 . S
O518 Pr497 2.436 . S
O518 C505 1.270 . S
O519 Pr496 2.512 . S
O519 C505 1.248 . S
O520 Pr497 2.438 . S
O520 C506 1.267 . S
O521 Pr496 2.437 . S
O521 C506 1.278 . S
O522 Pr497 2.562 . S
O522 C507 1.254 . S
O523 Pr497 2.490 . S
O523 C507 1.225 . S
O524 Pr496 2.436 . S
O524 Pr497 2.695 . S
O524 C514 1.270 . S
O525 Pr497 2.512 . S
O525 C514 1.248 . S
O526 Pr496 2.438 . S
O526 C515 1.267 . S
O527 Pr497 2.437 . S
O527 C515 1.278 . S
H528 C500 0.929 . S
H529 C501 0.929 . S
H530 C503 0.931 . S
H531 C504 0.930 . S
H532 C509 0.929 . S
H533 C510 0.929 . S
H534 C512 0.931 . S
H535 C513 0.930 . S
Pr536 C538 2.880 . S
Pr536 O556 2.562 . S
Pr536 O557 2.490 . S
Pr536 O558 2.695 . S
Pr536 O559 2.512 . S
Pr536 O561 2.437 . S
Pr536 O564 2.436 . S
Pr536 O566 2.438 . S
Pr537 C547 2.880 . S
Pr537 O558 2.436 . S
Pr537 O560 2.438 . S
Pr537 O562 2.562 . S
Pr537 O563 2.490 . S
Pr537 O564 2.695 . S
Pr537 O565 2.512 . S
Pr537 O567 2.437 . S
C538 Pr536 2.880 . S
C538 C539 1.491 . S
C538 O556 1.254 . S
C538 O557 1.225 . S
C539 C538 1.491 . S
C539 C540 1.392 . S
C539 C544 1.356 . S
C540 C539 1.392 . S
C540 C541 1.368 . S
C540 H568 0.929 . S
C541 C540 1.368 . S
C541 C542 1.386 . S
C541 H569 0.929 . S
C542 C541 1.386 . S
C542 C543 1.373 . S
C543 C542 1.373 . S
C543 C544 1.409 . S
C543 H570 0.931 . S
C544 C539 1.356 . S
C544 C543 1.409 . S
C544 H571 0.930 . S
C545 O558 1.270 . S
C545 O559 1.248 . S
C546 O560 1.267 . S
C546 O561 1.278 . S
C547 Pr537 2.880 . S
C547 C548 1.491 . S
C547 O562 1.254 . S
C547 O563 1.225 . S
C548 C547 1.491 . S
C548 C549 1.392 . S
C548 C553 1.356 . S
C549 C548 1.392 . S
C549 C550 1.368 . S
C549 H572 0.929 . S
C550 C549 1.368 . S
C550 C551 1.386 . S
C550 H573 0.929 . S
C551 C550 1.386 . S
C551 C552 1.373 . S
C552 C551 1.373 . S
C552 C553 1.409 . S
C552 H574 0.931 . S
C553 C548 1.356 . S
C553 C552 1.409 . S
C553 H575 0.930 . S
C554 O564 1.270 . S
C554 O565 1.248 . S
C555 O566 1.267 . S
C555 O567 1.278 . S
O556 Pr536 2.562 . S
O556 C538 1.254 . S
O557 Pr536 2.490 . S
O557 C538 1.225 . S
O558 Pr536 2.695 . S
O558 Pr537 2.436 . S
O558 C545 1.270 . S
O559 Pr536 2.512 . S
O559 C545 1.248 . S
O560 Pr537 2.438 . S
O560 C546 1.267 . S
O561 Pr536 2.437 . S
O561 C546 1.278 . S
O562 Pr537 2.562 . S
O562 C547 1.254 . S
O563 Pr537 2.490 . S
O563 C547 1.225 . S
O564 Pr536 2.436 . S
O564 Pr537 2.695 . S
O564 C554 1.270 . S
O565 Pr537 2.512 . S
O565 C554 1.248 . S
O566 Pr536 2.438 . S
O566 C555 1.267 . S
O567 Pr537 2.437 . S
O567 C555 1.278 . S
H568 C540 0.929 . S
H569 C541 0.929 . S
H570 C543 0.931 . S
H571 C544 0.930 . S
H572 C549 0.929 . S
H573 C550 0.929 . S
H574 C552 0.931 . S
H575 C553 0.930 . S
Pr576 C578 2.880 . S
Pr576 O596 2.562 . S
Pr576 O597 2.490 . S
Pr576 O598 2.695 . S
Pr576 O599 2.512 . S
Pr576 O601 2.437 . S
Pr576 O604 2.436 . S
Pr576 O606 2.438 . S
Pr577 C587 2.880 . S
Pr577 O598 2.436 1_556 S
Pr577 O600 2.438 1_556 S
Pr577 O602 2.562 . S
Pr577 O603 2.490 . S
Pr577 O604 2.695 1_556 S
Pr577 O605 2.512 1_556 S
Pr577 O607 2.437 1_556 S
C578 Pr576 2.880 . S
C578 C579 1.491 . S
C578 O596 1.254 . S
C578 O597 1.225 . S
C579 C578 1.491 . S
C579 C580 1.392 . S
C579 C584 1.356 . S
C580 C579 1.392 . S
C580 C581 1.368 . S
C580 H608 0.929 . S
C581 C580 1.368 . S
C581 C582 1.386 . S
C581 H609 0.929 . S
C582 C581 1.386 . S
C582 C583 1.373 . S
C583 C582 1.373 . S
C583 C584 1.409 . S
C583 H610 0.931 . S
C584 C579 1.356 . S
C584 C583 1.409 . S
C584 H611 0.930 . S
C585 O598 1.270 . S
C585 O599 1.248 . S
C586 O600 1.267 . S
C586 O601 1.278 . S
C587 Pr577 2.880 . S
C587 C588 1.491 . S
C587 O602 1.254 . S
C587 O603 1.225 . S
C588 C587 1.491 . S
C588 C589 1.392 . S
C588 C593 1.356 . S
C589 C588 1.392 . S
C589 C590 1.368 . S
C589 H612 0.929 . S
C590 C589 1.368 . S
C590 C591 1.386 . S
C590 H613 0.929 . S
C591 C590 1.386 . S
C591 C592 1.373 . S
C592 C591 1.373 . S
C592 C593 1.409 . S
C592 H614 0.931 . S
C593 C588 1.356 . S
C593 C592 1.409 . S
C593 H615 0.930 . S
C594 O604 1.270 . S
C594 O605 1.248 . S
C595 O606 1.267 . S
C595 O607 1.278 . S
O596 Pr576 2.562 . S
O596 C578 1.254 . S
O597 Pr576 2.490 . S
O597 C578 1.225 . S
O598 Pr576 2.695 . S
O598 Pr577 2.436 1_554 S
O598 C585 1.270 . S
O599 Pr576 2.512 . S
O599 C585 1.248 . S
O600 Pr577 2.438 1_554 S
O600 C586 1.267 . S
O601 Pr576 2.437 . S
O601 C586 1.278 . S
O602 Pr577 2.562 . S
O602 C587 1.254 . S
O603 Pr577 2.490 . S
O603 C587 1.225 . S
O604 Pr576 2.436 . S
O604 Pr577 2.695 1_554 S
O604 C594 1.270 . S
O605 Pr577 2.512 1_554 S
O605 C594 1.248 . S
O606 Pr576 2.438 . S
O606 C595 1.267 . S
O607 Pr577 2.437 1_554 S
O607 C595 1.278 . S
H608 C580 0.929 . S
H609 C581 0.929 . S
H610 C583 0.931 . S
H611 C584 0.930 . S
H612 C589 0.929 . S
H613 C590 0.929 . S
H614 C592 0.931 . S
H615 C593 0.930 . S
Pr616 C618 2.880 . S
Pr616 O636 2.562 . S
Pr616 O637 2.490 . S
Pr616 O638 2.695 . S
Pr616 O639 2.512 . S
Pr616 O641 2.437 . S
Pr616 O644 2.436 . S
Pr616 O646 2.438 . S
Pr617 C627 2.880 . S
Pr617 O638 2.436 . S
Pr617 O640 2.438 . S
Pr617 O642 2.562 . S
Pr617 O643 2.490 . S
Pr617 O644 2.695 . S
Pr617 O645 2.512 . S
Pr617 O647 2.437 . S
C618 Pr616 2.880 . S
C618 C619 1.491 . S
C618 O636 1.254 . S
C618 O637 1.225 . S
C619 C618 1.491 . S
C619 C620 1.392 . S
C619 C624 1.356 . S
C620 C619 1.392 . S
C620 C621 1.368 . S
C620 H648 0.929 . S
C621 C620 1.368 . S
C621 C622 1.386 . S
C621 H649 0.929 . S
C622 C621 1.386 . S
C622 C623 1.373 . S
C623 C622 1.373 . S
C623 C624 1.409 . S
C623 H650 0.931 . S
C624 C619 1.356 . S
C624 C623 1.409 . S
C624 H651 0.930 . S
C625 O638 1.270 . S
C625 O639 1.248 . S
C626 O640 1.267 . S
C626 O641 1.278 . S
C627 Pr617 2.880 . S
C627 C628 1.491 . S
C627 O642 1.254 . S
C627 O643 1.225 . S
C628 C627 1.491 . S
C628 C629 1.392 . S
C628 C633 1.356 . S
C629 C628 1.392 . S
C629 C630 1.368 . S
C629 H652 0.929 . S
C630 C629 1.368 . S
C630 C631 1.386 . S
C630 H653 0.929 . S
C631 C630 1.386 . S
C631 C632 1.373 . S
C632 C631 1.373 . S
C632 C633 1.409 . S
C632 H654 0.931 . S
C633 C628 1.356 . S
C633 C632 1.409 . S
C633 H655 0.930 . S
C634 O644 1.270 . S
C634 O645 1.248 . S
C635 O646 1.267 . S
C635 O647 1.278 . S
O636 Pr616 2.562 . S
O636 C618 1.254 . S
O637 Pr616 2.490 . S
O637 C618 1.225 . S
O638 Pr616 2.695 . S
O638 Pr617 2.436 . S
O638 C625 1.270 . S
O639 Pr616 2.512 . S
O639 C625 1.248 . S
O640 Pr617 2.438 . S
O640 C626 1.267 . S
O641 Pr616 2.437 . S
O641 C626 1.278 . S
O642 Pr617 2.562 . S
O642 C627 1.254 . S
O643 Pr617 2.490 . S
O643 C627 1.225 . S
O644 Pr616 2.436 . S
O644 Pr617 2.695 . S
O644 C634 1.270 . S
O645 Pr617 2.512 . S
O645 C634 1.248 . S
O646 Pr616 2.438 . S
O646 C635 1.267 . S
O647 Pr617 2.437 . S
O647 C635 1.278 . S
H648 C620 0.929 . S
H649 C621 0.929 . S
H650 C623 0.931 . S
H651 C624 0.930 . S
H652 C629 0.929 . S
H653 C630 0.929 . S
H654 C632 0.931 . S
H655 C633 0.930 . S
Pr656 C658 2.880 . S
Pr656 O676 2.562 . S
Pr656 O677 2.490 . S
Pr656 O678 2.695 1_556 S
Pr656 O679 2.512 . S
Pr656 O681 2.437 . S
Pr656 O684 2.436 1_556 S
Pr656 O686 2.438 1_556 S
Pr657 C667 2.880 . S
Pr657 O678 2.436 . S
Pr657 O680 2.438 . S
Pr657 O682 2.562 . S
Pr657 O683 2.490 . S
Pr657 O684 2.695 . S
Pr657 O685 2.512 . S
Pr657 O687 2.437 . S
C658 Pr656 2.880 . S
C658 C659 1.491 . S
C658 O676 1.254 . S
C658 O677 1.225 . S
C659 C658 1.491 . S
C659 C660 1.392 . S
C659 C664 1.356 . S
C660 C659 1.392 . S
C660 C661 1.368 . S
C660 H688 0.929 . S
C661 C660 1.368 . S
C661 C662 1.386 . S
C661 H689 0.929 . S
C662 C661 1.386 . S
C662 C663 1.373 . S
C663 C662 1.373 . S
C663 C664 1.409 . S
C663 H690 0.931 . S
C664 C659 1.356 . S
C664 C663 1.409 . S
C664 H691 0.930 . S
C665 O678 1.270 . S
C665 O679 1.248 1_554 S
C666 O680 1.267 . S
C666 O681 1.278 1_554 S
C667 Pr657 2.880 . S
C667 C668 1.491 . S
C667 O682 1.254 . S
C667 O683 1.225 . S
C668 C667 1.491 . S
C668 C669 1.392 . S
C668 C673 1.356 . S
C669 C668 1.392 . S
C669 C670 1.368 . S
C669 H692 0.929 . S
C670 C669 1.368 . S
C670 C671 1.386 . S
C670 H693 0.929 . S
C671 C670 1.386 . S
C671 C672 1.373 . S
C672 C671 1.373 . S
C672 C673 1.409 . S
C672 H694 0.931 . S
C673 C668 1.356 . S
C673 C672 1.409 . S
C673 H695 0.930 . S
C674 O684 1.270 . S
C674 O685 1.248 . S
C675 O686 1.267 . S
C675 O687 1.278 . S
O676 Pr656 2.562 . S
O676 C658 1.254 . S
O677 Pr656 2.490 . S
O677 C658 1.225 . S
O678 Pr656 2.695 1_554 S
O678 Pr657 2.436 . S
O678 C665 1.270 . S
O679 Pr656 2.512 . S
O679 C665 1.248 1_556 S
O680 Pr657 2.438 . S
O680 C666 1.267 . S
O681 Pr656 2.437 . S
O681 C666 1.278 1_556 S
O682 Pr657 2.562 . S
O682 C667 1.254 . S
O683 Pr657 2.490 . S
O683 C667 1.225 . S
O684 Pr656 2.436 1_554 S
O684 Pr657 2.695 . S
O684 C674 1.270 . S
O685 Pr657 2.512 . S
O685 C674 1.248 . S
O686 Pr656 2.438 1_554 S
O686 C675 1.267 . S
O687 Pr657 2.437 . S
O687 C675 1.278 . S
H688 C660 0.929 . S
H689 C661 0.929 . S
H690 C663 0.931 . S
H691 C664 0.930 . S
H692 C669 0.929 . S
H693 C670 0.929 . S
H694 C672 0.931 . S
H695 C673 0.930 . S
Pr696 C698 2.880 . S
Pr696 O716 2.562 . S
Pr696 O717 2.490 . S
Pr696 O718 2.695 . S
Pr696 O719 2.512 . S
Pr696 O721 2.437 . S
Pr696 O724 2.436 . S
Pr696 O726 2.438 . S
Pr697 C707 2.880 . S
Pr697 O718 2.436 . S
Pr697 O720 2.438 . S
Pr697 O722 2.562 . S
Pr697 O723 2.490 . S
Pr697 O724 2.695 . S
Pr697 O725 2.512 . S
Pr697 O727 2.437 . S
C698 Pr696 2.880 . S
C698 C699 1.491 . S
C698 O716 1.254 . S
C698 O717 1.225 . S
C699 C698 1.491 . S
C699 C700 1.392 . S
C699 C704 1.356 . S
C700 C699 1.392 . S
C700 C701 1.368 . S
C700 H728 0.929 . S
C701 C700 1.368 . S
C701 C702 1.386 . S
C701 H729 0.929 . S
C702 C701 1.386 . S
C702 C703 1.373 . S
C703 C702 1.373 . S
C703 C704 1.409 . S
C703 H730 0.931 . S
C704 C699 1.356 . S
C704 C703 1.409 . S
C704 H731 0.930 . S
C705 O718 1.270 . S
C705 O719 1.248 . S
C706 O720 1.267 . S
C706 O721 1.278 . S
C707 Pr697 2.880 . S
C707 C708 1.491 . S
C707 O722 1.254 . S
C707 O723 1.225 . S
C708 C707 1.491 . S
C708 C709 1.392 . S
C708 C713 1.356 . S
C709 C708 1.392 . S
C709 C710 1.368 . S
C709 H732 0.929 . S
C710 C709 1.368 . S
C710 C711 1.386 . S
C710 H733 0.929 . S
C711 C710 1.386 . S
C711 C712 1.373 . S
C712 C711 1.373 . S
C712 C713 1.409 . S
C712 H734 0.931 . S
C713 C708 1.356 . S
C713 C712 1.409 . S
C713 H735 0.930 . S
C714 O724 1.270 . S
C714 O725 1.248 . S
C715 O726 1.267 . S
C715 O727 1.278 . S
O716 Pr696 2.562 . S
O716 C698 1.254 . S
O717 Pr696 2.490 . S
O717 C698 1.225 . S
O718 Pr696 2.695 . S
O718 Pr697 2.436 . S
O718 C705 1.270 . S
O719 Pr696 2.512 . S
O719 C705 1.248 . S
O720 Pr697 2.438 . S
O720 C706 1.267 . S
O721 Pr696 2.437 . S
O721 C706 1.278 . S
O722 Pr697 2.562 . S
O722 C707 1.254 . S
O723 Pr697 2.490 . S
O723 C707 1.225 . S
O724 Pr696 2.436 . S
O724 Pr697 2.695 . S
O724 C714 1.270 . S
O725 Pr697 2.512 . S
O725 C714 1.248 . S
O726 Pr696 2.438 . S
O726 C715 1.267 . S
O727 Pr697 2.437 . S
O727 C715 1.278 . S
H728 C700 0.929 . S
H729 C701 0.929 . S
H730 C703 0.931 . S
H731 C704 0.930 . S
H732 C709 0.929 . S
H733 C710 0.929 . S
H734 C712 0.931 . S
H735 C713 0.930 . S
Pr736 C738 2.880 . S
Pr736 O756 2.562 . S
Pr736 O757 2.490 . S
Pr736 O758 2.695 . S
Pr736 O759 2.512 . S
Pr736 O761 2.437 . S
Pr736 O764 2.436 . S
Pr736 O766 2.438 . S
Pr737 C747 2.880 . S
Pr737 O758 2.436 . S
Pr737 O760 2.438 . S
Pr737 O762 2.562 . S
Pr737 O763 2.490 . S
Pr737 O764 2.695 . S
Pr737 O765 2.512 . S
Pr737 O767 2.437 . S
C738 Pr736 2.880 . S
C738 C739 1.491 . S
C738 O756 1.254 . S
C738 O757 1.225 . S
C739 C738 1.491 . S
C739 C740 1.392 . S
C739 C744 1.356 . S
C740 C739 1.392 . S
C740 C741 1.368 . S
C740 H768 0.929 . S
C741 C740 1.368 . S
C741 C742 1.386 . S
C741 H769 0.929 . S
C742 C741 1.386 . S
C742 C743 1.373 . S
C743 C742 1.373 . S
C743 C744 1.409 . S
C743 H770 0.931 1_455 S
C744 C739 1.356 . S
C744 C743 1.409 . S
C744 H771 0.930 . S
C745 O758 1.270 . S
C745 O759 1.248 . S
C746 O760 1.267 . S
C746 O761 1.278 . S
C747 Pr737 2.880 . S
C747 C748 1.491 . S
C747 O762 1.254 . S
C747 O763 1.225 . S
C748 C747 1.491 . S
C748 C749 1.392 . S
C748 C753 1.356 . S
C749 C748 1.392 . S
C749 C750 1.368 . S
C749 H772 0.929 . S
C750 C749 1.368 . S
C750 C751 1.386 . S
C750 H773 0.929 . S
C751 C750 1.386 . S
C751 C752 1.373 . S
C752 C751 1.373 . S
C752 C753 1.409 . S
C752 H774 0.931 . S
C753 C748 1.356 . S
C753 C752 1.409 . S
C753 H775 0.930 . S
C754 O764 1.270 . S
C754 O765 1.248 . S
C755 O766 1.267 . S
C755 O767 1.278 . S
O756 Pr736 2.562 . S
O756 C738 1.254 . S
O757 Pr736 2.490 . S
O757 C738 1.225 . S
O758 Pr736 2.695 . S
O758 Pr737 2.436 . S
O758 C745 1.270 . S
O759 Pr736 2.512 . S
O759 C745 1.248 . S
O760 Pr737 2.438 . S
O760 C746 1.267 . S
O761 Pr736 2.437 . S
O761 C746 1.278 . S
O762 Pr737 2.562 . S
O762 C747 1.254 . S
O763 Pr737 2.490 . S
O763 C747 1.225 . S
O764 Pr736 2.436 . S
O764 Pr737 2.695 . S
O764 C754 1.270 . S
O765 Pr737 2.512 . S
O765 C754 1.248 . S
O766 Pr736 2.438 . S
O766 C755 1.267 . S
O767 Pr737 2.437 . S
O767 C755 1.278 . S
H768 C740 0.929 . S
H769 C741 0.929 . S
H770 C743 0.931 1_655 S
H771 C744 0.930 . S
H772 C749 0.929 . S
H773 C750 0.929 . S
H774 C752 0.931 . S
H775 C753 0.930 . S
Pr776 C778 2.880 . S
Pr776 O796 2.562 . S
Pr776 O797 2.490 . S
Pr776 O798 2.695 . S
Pr776 O799 2.512 . S
Pr776 O801 2.437 . S
Pr776 O804 2.436 . S
Pr776 O806 2.438 . S
Pr777 C787 2.880 . S
Pr777 O798 2.436 . S
Pr777 O800 2.438 . S
Pr777 O802 2.562 . S
Pr777 O803 2.490 . S
Pr777 O804 2.695 . S
Pr777 O805 2.512 . S
Pr777 O807 2.437 . S
C778 Pr776 2.880 . S
C778 C779 1.491 . S
C778 O796 1.254 . S
C778 O797 1.225 . S
C779 C778 1.491 . S
C779 C780 1.392 . S
C779 C784 1.356 . S
C780 C779 1.392 . S
C780 C781 1.368 . S
C780 H808 0.929 . S
C781 C780 1.368 . S
C781 C782 1.386 . S
C781 H809 0.929 . S
C782 C781 1.386 . S
C782 C783 1.373 . S
C783 C782 1.373 . S
C783 C784 1.409 . S
C783 H810 0.931 . S
C784 C779 1.356 . S
C784 C783 1.409 . S
C784 H811 0.930 . S
C785 O798 1.270 . S
C785 O799 1.248 . S
C786 O800 1.267 . S
C786 O801 1.278 . S
C787 Pr777 2.880 . S
C787 C788 1.491 . S
C787 O802 1.254 . S
C787 O803 1.225 . S
C788 C787 1.491 . S
C788 C789 1.392 . S
C788 C793 1.356 . S
C789 C788 1.392 . S
C789 C790 1.368 . S
C789 H812 0.929 . S
C790 C789 1.368 . S
C790 C791 1.386 . S
C790 H813 0.929 . S
C791 C790 1.386 . S
C791 C792 1.373 . S
C792 C791 1.373 . S
C792 C793 1.409 . S
C792 H814 0.931 . S
C793 C788 1.356 . S
C793 C792 1.409 . S
C793 H815 0.930 . S
C794 O804 1.270 . S
C794 O805 1.248 . S
C795 O806 1.267 . S
C795 O807 1.278 . S
O796 Pr776 2.562 . S
O796 C778 1.254 . S
O797 Pr776 2.490 . S
O797 C778 1.225 . S
O798 Pr776 2.695 . S
O798 Pr777 2.436 . S
O798 C785 1.270 . S
O799 Pr776 2.512 . S
O799 C785 1.248 . S
O800 Pr777 2.438 . S
O800 C786 1.267 . S
O801 Pr776 2.437 . S
O801 C786 1.278 . S
O802 Pr777 2.562 . S
O802 C787 1.254 . S
O803 Pr777 2.490 . S
O803 C787 1.225 . S
O804 Pr776 2.436 . S
O804 Pr777 2.695 . S
O804 C794 1.270 . S
O805 Pr777 2.512 . S
O805 C794 1.248 . S
O806 Pr776 2.438 . S
O806 C795 1.267 . S
O807 Pr777 2.437 . S
O807 C795 1.278 . S
H808 C780 0.929 . S
H809 C781 0.929 . S
H810 C783 0.931 . S
H811 C784 0.930 . S
H812 C789 0.929 . S
H813 C790 0.929 . S
H814 C792 0.931 . S
H815 C793 0.930 . S
Pr816 C818 2.880 . S
Pr816 O836 2.562 . S
Pr816 O837 2.490 . S
Pr816 O838 2.695 . S
Pr816 O839 2.512 . S
Pr816 O841 2.437 . S
Pr816 O844 2.436 . S
Pr816 O846 2.438 . S
Pr817 C827 2.880 . S
Pr817 O838 2.436 . S
Pr817 O840 2.438 . S
Pr817 O842 2.562 . S
Pr817 O843 2.490 . S
Pr817 O844 2.695 . S
Pr817 O845 2.512 . S
Pr817 O847 2.437 . S
C818 Pr816 2.880 . S
C818 C819 1.491 . S
C818 O836 1.254 . S
C818 O837 1.225 . S
C819 C818 1.491 . S
C819 C820 1.392 . S
C819 C824 1.356 . S
C820 C819 1.392 . S
C820 C821 1.368 . S
C820 H848 0.929 . S
C821 C820 1.368 . S
C821 C822 1.386 . S
C821 H849 0.929 . S
C822 C821 1.386 . S
C822 C823 1.373 . S
C823 C822 1.373 . S
C823 C824 1.409 . S
C823 H850 0.931 . S
C824 C819 1.356 . S
C824 C823 1.409 . S
C824 H851 0.930 . S
C825 O838 1.270 . S
C825 O839 1.248 . S
C826 O840 1.267 . S
C826 O841 1.278 . S
C827 Pr817 2.880 . S
C827 C828 1.491 . S
C827 O842 1.254 . S
C827 O843 1.225 . S
C828 C827 1.491 . S
C828 C829 1.392 . S
C828 C833 1.356 . S
C829 C828 1.392 . S
C829 C830 1.368 . S
C829 H852 0.929 . S
C830 C829 1.368 . S
C830 C831 1.386 . S
C830 H853 0.929 . S
C831 C830 1.386 . S
C831 C832 1.373 . S
C832 C831 1.373 . S
C832 C833 1.409 . S
C832 H854 0.931 . S
C833 C828 1.356 . S
C833 C832 1.409 . S
C833 H855 0.930 . S
C834 O844 1.270 . S
C834 O845 1.248 . S
C835 O846 1.267 . S
C835 O847 1.278 . S
O836 Pr816 2.562 . S
O836 C818 1.254 . S
O837 Pr816 2.490 . S
O837 C818 1.225 . S
O838 Pr816 2.695 . S
O838 Pr817 2.436 . S
O838 C825 1.270 . S
O839 Pr816 2.512 . S
O839 C825 1.248 . S
O840 Pr817 2.438 . S
O840 C826 1.267 . S
O841 Pr816 2.437 . S
O841 C826 1.278 . S
O842 Pr817 2.562 . S
O842 C827 1.254 . S
O843 Pr817 2.490 . S
O843 C827 1.225 . S
O844 Pr816 2.436 . S
O844 Pr817 2.695 . S
O844 C834 1.270 . S
O845 Pr817 2.512 . S
O845 C834 1.248 . S
O846 Pr816 2.438 . S
O846 C835 1.267 . S
O847 Pr817 2.437 . S
O847 C835 1.278 . S
H848 C820 0.929 . S
H849 C821 0.929 . S
H850 C823 0.931 . S
H851 C824 0.930 . S
H852 C829 0.929 . S
H853 C830 0.929 . S
H854 C832 0.931 . S
H855 C833 0.930 . S
Pr856 C858 2.880 . S
Pr856 O876 2.562 . S
Pr856 O877 2.490 . S
Pr856 O878 2.695 . S
Pr856 O879 2.512 . S
Pr856 O881 2.437 . S
Pr856 O884 2.436 . S
Pr856 O886 2.438 . S
Pr857 C867 2.880 . S
Pr857 O878 2.436 . S
Pr857 O880 2.438 . S
Pr857 O882 2.562 . S
Pr857 O883 2.490 . S
Pr857 O884 2.695 . S
Pr857 O885 2.512 . S
Pr857 O887 2.437 . S
C858 Pr856 2.880 . S
C858 C859 1.491 . S
C858 O876 1.254 . S
C858 O877 1.225 . S
C859 C858 1.491 . S
C859 C860 1.392 . S
C859 C864 1.356 . S
C860 C859 1.392 . S
C860 C861 1.368 . S
C860 H888 0.929 . S
C861 C860 1.368 . S
C861 C862 1.386 . S
C861 H889 0.929 . S
C862 C861 1.386 . S
C862 C863 1.373 . S
C863 C862 1.373 . S
C863 C864 1.409 . S
C863 H890 0.931 . S
C864 C859 1.356 . S
C864 C863 1.409 . S
C864 H891 0.930 . S
C865 O878 1.270 . S
C865 O879 1.248 . S
C866 O880 1.267 . S
C866 O881 1.278 . S
C867 Pr857 2.880 . S
C867 C868 1.491 . S
C867 O882 1.254 . S
C867 O883 1.225 . S
C868 C867 1.491 . S
C868 C869 1.392 . S
C868 C873 1.356 . S
C869 C868 1.392 . S
C869 C870 1.368 . S
C869 H892 0.929 . S
C870 C869 1.368 . S
C870 C871 1.386 . S
C870 H893 0.929 . S
C871 C870 1.386 . S
C871 C872 1.373 . S
C872 C871 1.373 . S
C872 C873 1.409 . S
C872 H894 0.931 . S
C873 C868 1.356 . S
C873 C872 1.409 . S
C873 H895 0.930 . S
C874 O884 1.270 . S
C874 O885 1.248 . S
C875 O886 1.267 . S
C875 O887 1.278 . S
O876 Pr856 2.562 . S
O876 C858 1.254 . S
O877 Pr856 2.490 . S
O877 C858 1.225 . S
O878 Pr856 2.695 . S
O878 Pr857 2.436 . S
O878 C865 1.270 . S
O879 Pr856 2.512 . S
O879 C865 1.248 . S
O880 Pr857 2.438 . S
O880 C866 1.267 . S
O881 Pr856 2.437 . S
O881 C866 1.278 . S
O882 Pr857 2.562 . S
O882 C867 1.254 . S
O883 Pr857 2.490 . S
O883 C867 1.225 . S
O884 Pr856 2.436 . S
O884 Pr857 2.695 . S
O884 C874 1.270 . S
O885 Pr857 2.512 . S
O885 C874 1.248 . S
O886 Pr856 2.438 . S
O886 C875 1.267 . S
O887 Pr857 2.437 . S
O887 C875 1.278 . S
H888 C860 0.929 . S
H889 C861 0.929 . S
H890 C863 0.931 . S
H891 C864 0.930 . S
H892 C869 0.929 . S
H893 C870 0.929 . S
H894 C872 0.931 . S
H895 C873 0.930 . S
Pr896 C898 2.880 . S
Pr896 O916 2.562 . S
Pr896 O917 2.490 . S
Pr896 O918 2.695 . S
Pr896 O919 2.512 . S
Pr896 O921 2.437 . S
Pr896 O924 2.436 . S
Pr896 O926 2.438 . S
Pr897 C907 2.880 . S
Pr897 O918 2.436 . S
Pr897 O920 2.438 . S
Pr897 O922 2.562 . S
Pr897 O923 2.490 . S
Pr897 O924 2.695 . S
Pr897 O925 2.512 . S
Pr897 O927 2.437 . S
C898 Pr896 2.880 . S
C898 C899 1.491 . S
C898 O916 1.254 . S
C898 O917 1.225 . S
C899 C898 1.491 . S
C899 C900 1.392 . S
C899 C904 1.356 . S
C900 C899 1.392 . S
C900 C901 1.368 . S
C900 H928 0.929 . S
C901 C900 1.368 . S
C901 C902 1.386 . S
C901 H929 0.929 . S
C902 C901 1.386 . S
C902 C903 1.373 . S
C903 C902 1.373 . S
C903 C904 1.409 . S
C903 H930 0.931 . S
C904 C899 1.356 . S
C904 C903 1.409 . S
C904 H931 0.930 . S
C905 O918 1.270 . S
C905 O919 1.248 . S
C906 O920 1.267 . S
C906 O921 1.278 . S
C907 Pr897 2.880 . S
C907 C908 1.491 . S
C907 O922 1.254 . S
C907 O923 1.225 . S
C908 C907 1.491 . S
C908 C909 1.392 . S
C908 C913 1.356 . S
C909 C908 1.392 . S
C909 C910 1.368 . S
C909 H932 0.929 . S
C910 C909 1.368 . S
C910 C911 1.386 . S
C910 H933 0.929 . S
C911 C910 1.386 . S
C911 C912 1.373 . S
C912 C911 1.373 . S
C912 C913 1.409 . S
C912 H934 0.931 . S
C913 C908 1.356 . S
C913 C912 1.409 . S
C913 H935 0.930 . S
C914 O924 1.270 . S
C914 O925 1.248 . S
C915 O926 1.267 . S
C915 O927 1.278 . S
O916 Pr896 2.562 . S
O916 C898 1.254 . S
O917 Pr896 2.490 . S
O917 C898 1.225 . S
O918 Pr896 2.695 . S
O918 Pr897 2.436 . S
O918 C905 1.270 . S
O919 Pr896 2.512 . S
O919 C905 1.248 . S
O920 Pr897 2.438 . S
O920 C906 1.267 . S
O921 Pr896 2.437 . S
O921 C906 1.278 . S
O922 Pr897 2.562 . S
O922 C907 1.254 . S
O923 Pr897 2.490 . S
O923 C907 1.225 . S
O924 Pr896 2.436 . S
O924 Pr897 2.695 . S
O924 C914 1.270 . S
O925 Pr897 2.512 . S
O925 C914 1.248 . S
O926 Pr896 2.438 . S
O926 C915 1.267 . S
O927 Pr897 2.437 . S
O927 C915 1.278 . S
H928 C900 0.929 . S
H929 C901 0.929 . S
H930 C903 0.931 . S
H931 C904 0.930 . S
H932 C909 0.929 . S
H933 C910 0.929 . S
H934 C912 0.931 . S
H935 C913 0.930 . S
Pr936 C938 2.880 . S
Pr936 O956 2.562 . S
Pr936 O957 2.490 . S
Pr936 O958 2.695 . S
Pr936 O959 2.512 1_554 S
Pr936 O961 2.437 . S
Pr936 O964 2.436 . S
Pr936 O966 2.438 . S
Pr937 C947 2.880 1_455 S
Pr937 O958 2.436 . S
Pr937 O960 2.438 . S
Pr937 O962 2.562 1_455 S
Pr937 O963 2.490 1_455 S
Pr937 O964 2.695 . S
Pr937 O965 2.512 . S
Pr937 O967 2.437 . S
C938 Pr936 2.880 . S
C938 C939 1.491 . S
C938 O956 1.254 . S
C938 O957 1.225 . S
C939 C938 1.491 . S
C939 C940 1.392 1_554 S
C939 C944 1.356 . S
C940 C939 1.392 1_556 S
C940 C941 1.368 . S
C940 H968 0.929 . S
C941 C940 1.368 . S
C941 C942 1.386 . S
C941 H969 0.929 . S
C942 C941 1.386 . S
C942 C943 1.373 1_556 S
C943 C942 1.373 1_554 S
C943 C944 1.409 . S
C943 H970 0.931 . S
C944 C939 1.356 . S
C944 C943 1.409 . S
C944 H971 0.930 . S
C945 O958 1.270 1_556 S
C945 O959 1.248 . S
C946 O960 1.267 . S
C946 O961 1.278 . S
C947 Pr937 2.880 1_655 S
C947 C948 1.491 . S
C947 O962 1.254 . S
C947 O963 1.225 . S
C948 C947 1.491 . S
C948 C949 1.392 . S
C948 C953 1.356 . S
C949 C948 1.392 . S
C949 C950 1.368 . S
C949 H972 0.929 . S
C950 C949 1.368 . S
C950 C951 1.386 . S
C950 H973 0.929 . S
C951 C950 1.386 . S
C951 C952 1.373 . S
C952 C951 1.373 . S
C952 C953 1.409 . S
C952 H974 0.931 . S
C953 C948 1.356 . S
C953 C952 1.409 . S
C953 H975 0.930 . S
C954 O964 1.270 . S
C954 O965 1.248 . S
C955 O966 1.267 . S
C955 O967 1.278 . S
O956 Pr936 2.562 . S
O956 C938 1.254 . S
O957 Pr936 2.490 . S
O957 C938 1.225 . S
O958 Pr936 2.695 . S
O958 Pr937 2.436 . S
O958 C945 1.270 1_554 S
O959 Pr936 2.512 1_556 S
O959 C945 1.248 . S
O960 Pr937 2.438 . S
O960 C946 1.267 . S
O961 Pr936 2.437 . S
O961 C946 1.278 . S
O962 Pr937 2.562 1_655 S
O962 C947 1.254 . S
O963 Pr937 2.490 1_655 S
O963 C947 1.225 . S
O964 Pr936 2.436 . S
O964 Pr937 2.695 . S
O964 C954 1.270 . S
O965 Pr937 2.512 . S
O965 C954 1.248 . S
O966 Pr936 2.438 . S
O966 C955 1.267 . S
O967 Pr937 2.437 . S
O967 C955 1.278 . S
H968 C940 0.929 . S
H969 C941 0.929 . S
H970 C943 0.931 . S
H971 C944 0.930 . S
H972 C949 0.929 . S
H973 C950 0.929 . S
H974 C952 0.931 . S
H975 C953 0.930 . S
H976 C984 0.950 . S
H977 C989 0.950 1_655 S
H978 C986 0.926 1_554 S
H979 C988 0.950 . S
H980 C990 0.950 . S
H981 C992 0.950 . S
H982 C994 0.950 . S
H983 C995 0.950 . S
C984 H976 0.950 . S
C984 C985 1.386 . S
C984 C986 1.391 . S
C985 C984 1.386 . S
C985 C989 1.393 . S
C986 H978 0.926 1_556 S
C986 C984 1.391 . S
C986 C987 1.400 . S
C987 C986 1.400 . S
C987 C988 1.398 . S
C987 C993 1.491 . S
C988 H979 0.950 . S
C988 C987 1.398 . S
C988 C989 1.391 . S
C989 H977 0.950 1_455 S
C989 C985 1.393 . S
C989 C988 1.391 . S
C990 H980 0.950 . S
C990 C991 1.386 1_556 S
C990 C992 1.391 . S
C991 C990 1.386 1_554 S
C991 C995 1.393 . S
C992 H981 0.950 . S
C992 C990 1.391 . S
C992 C993 1.400 . S
C993 C987 1.491 . S
C993 C992 1.400 . S
C993 C994 1.398 1_556 S
C994 H982 0.950 . S
C994 C993 1.398 1_554 S
C994 C995 1.391 . S
C995 H983 0.950 . S
C995 C991 1.393 . S
C995 C994 1.391 . S
H996 C1004 0.950 . S
H997 C1009 0.950 . S
H998 C1006 0.950 . S
H999 C1008 0.950 . S
H1000 C1010 0.950 . S
H1001 C1012 0.950 . S
H1002 C1014 0.950 . S
H1003 C1015 0.950 . S
C1004 H996 0.950 . S
C1004 C1005 1.386 . S
C1004 C1006 1.391 . S
C1005 C1004 1.386 . S
C1005 C1009 1.393 . S
C1006 H998 0.950 . S
C1006 C1004 1.391 . S
C1006 C1007 1.400 . S
C1007 C1006 1.400 . S
C1007 C1008 1.398 . S
C1007 C1013 1.491 . S
C1008 H999 0.950 . S
C1008 C1007 1.398 . S
C1008 C1009 1.391 . S
C1009 H997 0.950 . S
C1009 C1005 1.393 . S
C1009 C1008 1.391 . S
C1010 H1000 0.950 . S
C1010 C1011 1.386 . S
C1010 C1012 1.391 . S
C1011 C1010 1.386 . S
C1011 C1015 1.393 . S
C1012 H1001 0.950 . S
C1012 C1010 1.391 . S
C1012 C1013 1.400 . S
C1013 C1007 1.491 . S
C1013 C1012 1.400 . S
C1013 C1014 1.398 . S
C1014 H1002 0.950 . S
C1014 C1013 1.398 . S
C1014 C1015 1.391 . S
C1015 H1003 0.950 . S
C1015 C1011 1.393 . S
C1015 C1014 1.391 . S
H1016 C1024 0.950 . S
H1017 C1029 0.950 . S
H1018 C1026 0.950 . S
H1019 C1028 0.950 . S
H1020 C1030 0.950 1_545 S
H1021 C1032 0.950 . S
H1022 C1034 0.950 . S
H1023 C1035 0.950 . S
C1024 H1016 0.950 . S
C1024 C1025 1.386 . S
C1024 C1026 1.391 . S
C1025 C1024 1.386 . S
C1025 C1029 1.393 . S
C1026 H1018 0.950 . S
C1026 C1024 1.391 . S
C1026 C1027 1.400 . S
C1027 C1026 1.400 . S
C1027 C1028 1.398 . S
C1027 C1033 1.491 . S
C1028 H1019 0.950 . S
C1028 C1027 1.398 . S
C1028 C1029 1.391 . S
C1029 H1017 0.950 . S
C1029 C1025 1.393 . S
C1029 C1028 1.391 . S
C1030 H1020 0.950 1_565 S
C1030 C1031 1.386 1_565 S
C1030 C1032 1.391 . S
C1031 C1030 1.386 1_545 S
C1031 C1035 1.393 1_545 S
C1032 H1021 0.950 . S
C1032 C1030 1.391 . S
C1032 C1033 1.400 . S
C1033 C1027 1.491 . S
C1033 C1032 1.400 . S
C1033 C1034 1.398 . S
C1034 H1022 0.950 . S
C1034 C1033 1.398 . S
C1034 C1035 1.391 . S
C1035 H1023 0.950 . S
C1035 C1031 1.393 1_565 S
C1035 C1034 1.391 . S
H1036 C1044 0.950 . S
H1037 C1049 0.950 . S
H1038 C1046 0.950 . S
H1039 C1048 0.950 . S
H1040 C1050 0.950 . S
H1041 C1052 0.950 . S
H1042 C1054 0.950 . S
H1043 C1055 0.950 . S
C1044 H1036 0.950 . S
C1044 C1045 1.386 . S
C1044 C1046 1.391 . S
C1045 C1044 1.386 . S
C1045 C1049 1.393 . S
C1046 H1038 0.950 . S
C1046 C1044 1.391 . S
C1046 C1047 1.400 . S
C1047 C1046 1.400 . S
C1047 C1048 1.398 . S
C1047 C1053 1.491 . S
C1048 H1039 0.950 . S
C1048 C1047 1.398 . S
C1048 C1049 1.391 . S
C1049 H1037 0.950 . S
C1049 C1045 1.393 . S
C1049 C1048 1.391 . S
C1050 H1040 0.950 . S
C1050 C1051 1.386 . S
C1050 C1052 1.391 . S
C1051 C1050 1.386 . S
C1051 C1055 1.393 . S
C1052 H1041 0.950 . S
C1052 C1050 1.391 . S
C1052 C1053 1.400 . S
C1053 C1047 1.491 . S
C1053 C1052 1.400 . S
C1053 C1054 1.398 . S
C1054 H1042 0.950 . S
C1054 C1053 1.398 . S
C1054 C1055 1.391 . S
C1055 H1043 0.950 . S
C1055 C1051 1.393 . S
C1055 C1054 1.391 . S
H1056 C1064 0.950 . S
H1057 C1069 0.950 . S
H1058 C1066 0.950 . S
H1059 C1068 0.950 . S
H1060 C1070 0.950 . S
H1061 C1072 0.950 . S
H1062 C1074 0.950 . S
H1063 C1075 0.936 1_545 S
C1064 H1056 0.950 . S
C1064 C1065 1.386 . S
C1064 C1066 1.391 . S
C1065 C1064 1.386 . S
C1065 C1069 1.393 . S
C1066 H1058 0.950 . S
C1066 C1064 1.391 . S
C1066 C1067 1.400 . S
C1067 C1066 1.400 . S
C1067 C1068 1.398 . S
C1067 C1073 1.491 . S
C1068 H1059 0.950 . S
C1068 C1067 1.398 . S
C1068 C1069 1.391 . S
C1069 H1057 0.950 . S
C1069 C1065 1.393 . S
C1069 C1068 1.391 . S
C1070 H1060 0.950 . S
C1070 C1071 1.386 . S
C1070 C1072 1.391 1_545 S
C1071 C1070 1.386 . S
C1071 C1075 1.393 1_545 S
C1072 H1061 0.950 . S
C1072 C1070 1.391 1_565 S
C1072 C1073 1.400 . S
C1073 C1067 1.491 . S
C1073 C1072 1.400 . S
C1073 C1074 1.398 . S
C1074 H1062 0.950 . S
C1074 C1073 1.398 . S
C1074 C1075 1.391 . S
C1075 H1063 0.936 1_565 S
C1075 C1071 1.393 1_565 S
C1075 C1074 1.391 . S
H1076 C1084 0.950 . S
H1077 C1089 0.950 . S
H1078 C1086 0.950 . S
H1079 C1088 0.950 . S
H1080 C1090 0.950 . S
H1081 C1092 0.950 . S
H1082 C1094 0.950 . S
H1083 C1095 0.950 . S
C1084 H1076 0.950 . S
C1084 C1085 1.386 . S
C1084 C1086 1.391 . S
C1085 C1084 1.386 . S
C1085 C1089 1.393 . S
C1086 H1078 0.950 . S
C1086 C1084 1.391 . S
C1086 C1087 1.400 . S
C1087 C1086 1.400 . S
C1087 C1088 1.398 . S
C1087 C1093 1.491 . S
C1088 H1079 0.950 . S
C1088 C1087 1.398 . S
C1088 C1089 1.391 . S
C1089 H1077 0.950 . S
C1089 C1085 1.393 . S
C1089 C1088 1.391 . S
C1090 H1080 0.950 . S
C1090 C1091 1.386 . S
C1090 C1092 1.391 . S
C1091 C1090 1.386 . S
C1091 C1095 1.393 . S
C1092 H1081 0.950 . S
C1092 C1090 1.391 . S
C1092 C1093 1.400 . S
C1093 C1087 1.491 . S
C1093 C1092 1.400 . S
C1093 C1094 1.398 . S
C1094 H1082 0.950 . S
C1094 C1093 1.398 . S
C1094 C1095 1.391 . S
C1095 H1083 0.950 . S
C1095 C1091 1.393 . S
C1095 C1094 1.391 . S
H1096 C1104 0.950 . S
H1097 C1109 0.950 . S
H1098 C1106 0.950 . S
H1099 C1108 0.950 . S
H1100 C1110 0.950 . S
H1101 C1112 0.950 . S
H1102 C1114 0.950 . S
H1103 C1115 0.950 . S
C1104 H1096 0.950 . S
C1104 C1105 1.386 . S
C1104 C1106 1.391 . S
C1105 C1104 1.386 . S
C1105 C1109 1.393 . S
C1106 H1098 0.950 . S
C1106 C1104 1.391 . S
C1106 C1107 1.400 . S
C1107 C1106 1.400 . S
C1107 C1108 1.398 . S
C1107 C1113 1.491 . S
C1108 H1099 0.950 . S
C1108 C1107 1.398 . S
C1108 C1109 1.391 . S
C1109 H1097 0.950 . S
C1109 C1105 1.393 . S
C1109 C1108 1.391 . S
C1110 H1100 0.950 . S
C1110 C1111 1.386 . S
C1110 C1112 1.391 . S
C1111 C1110 1.386 . S
C1111 C1115 1.393 . S
C1112 H1101 0.950 . S
C1112 C1110 1.391 . S
C1112 C1113 1.400 . S
C1113 C1107 1.491 . S
C1113 C1112 1.400 . S
C1113 C1114 1.398 . S
C1114 H1102 0.950 . S
C1114 C1113 1.398 . S
C1114 C1115 1.391 . S
C1115 H1103 0.950 . S
C1115 C1111 1.393 . S
C1115 C1114 1.391 . S
H1116 C1124 0.950 . S
H1117 C1129 0.950 . S
H1118 C1126 0.950 . S
H1119 C1128 0.950 . S
H1120 C1130 0.950 . S
H1121 C1132 0.950 . S
H1122 C1134 0.950 . S
H1123 C1135 0.950 . S
C1124 H1116 0.950 . S
C1124 C1125 1.386 . S
C1124 C1126 1.391 . S
C1125 C1124 1.386 . S
C1125 C1129 1.393 . S
C1126 H1118 0.950 . S
C1126 C1124 1.391 . S
C1126 C1127 1.400 . S
C1127 C1126 1.400 . S
C1127 C1128 1.398 . S
C1127 C1133 1.491 . S
C1128 H1119 0.950 . S
C1128 C1127 1.398 . S
C1128 C1129 1.391 . S
C1129 H1117 0.950 . S
C1129 C1125 1.393 . S
C1129 C1128 1.391 . S
C1130 H1120 0.950 . S
C1130 C1131 1.386 . S
C1130 C1132 1.391 . S
C1131 C1130 1.386 . S
C1131 C1135 1.393 . S
C1132 H1121 0.950 . S
C1132 C1130 1.391 . S
C1132 C1133 1.400 . S
C1133 C1127 1.491 . S
C1133 C1132 1.400 . S
C1133 C1134 1.398 . S
C1134 H1122 0.950 . S
C1134 C1133 1.398 . S
C1134 C1135 1.391 . S
C1135 H1123 0.950 . S
C1135 C1131 1.393 . S
C1135 C1134 1.391 . S
H1136 C1144 0.950 . S
H1137 C1149 0.950 . S
H1138 C1146 0.950 . S
H1139 C1148 0.950 . S
H1140 C1150 0.950 . S
H1141 C1152 0.950 . S
H1142 C1154 0.957 . S
H1143 C1155 0.950 . S
C1144 H1136 0.950 . S
C1144 C1145 1.386 . S
C1144 C1146 1.391 . S
C1145 C1144 1.386 . S
C1145 C1149 1.393 . S
C1146 H1138 0.950 . S
C1146 C1144 1.391 . S
C1146 C1147 1.400 . S
C1147 C1146 1.400 . S
C1147 C1148 1.398 . S
C1147 C1153 1.491 . S
C1148 H1139 0.950 . S
C1148 C1147 1.398 . S
C1148 C1149 1.391 . S
C1149 H1137 0.950 . S
C1149 C1145 1.393 . S
C1149 C1148 1.391 . S
C1150 H1140 0.950 . S
C1150 C1151 1.386 . S
C1150 C1152 1.391 1_455 S
C1151 C1150 1.386 . S
C1151 C1155 1.393 . S
C1152 H1141 0.950 . S
C1152 C1150 1.391 1_655 S
C1152 C1153 1.400 . S
C1153 C1147 1.491 . S
C1153 C1152 1.400 . S
C1153 C1154 1.436 . S
C1154 H1142 0.957 . S
C1154 C1153 1.436 . S
C1154 C1155 1.349 1_655 S
C1155 H1143 0.950 . S
C1155 C1151 1.393 . S
C1155 C1154 1.349 1_455 S
H1156 C1164 0.950 . S
H1157 C1169 0.950 . S
H1158 C1166 0.950 . S
H1159 C1168 0.950 . S
H1160 C1170 0.950 . S
H1161 C1172 0.950 . S
H1162 C1174 0.950 . S
H1163 C1175 0.950 . S
C1164 H1156 0.950 . S
C1164 C1165 1.386 . S
C1164 C1166 1.391 . S
C1165 C1164 1.386 . S
C1165 C1169 1.393 . S
C1166 H1158 0.950 . S
C1166 C1164 1.391 . S
C1166 C1167 1.400 . S
C1167 C1166 1.400 . S
C1167 C1168 1.398 . S
C1167 C1173 1.491 . S
C1168 H1159 0.950 . S
C1168 C1167 1.398 . S
C1168 C1169 1.391 . S
C1169 H1157 0.950 . S
C1169 C1165 1.393 . S
C1169 C1168 1.391 . S
C1170 H1160 0.950 . S
C1170 C1171 1.386 . S
C1170 C1172 1.391 . S
C1171 C1170 1.386 . S
C1171 C1175 1.393 . S
C1172 H1161 0.950 . S
C1172 C1170 1.391 . S
C1172 C1173 1.400 . S
C1173 C1167 1.491 . S
C1173 C1172 1.400 . S
C1173 C1174 1.398 . S
C1174 H1162 0.950 . S
C1174 C1173 1.398 . S
C1174 C1175 1.391 . S
C1175 H1163 0.950 . S
C1175 C1171 1.393 . S
C1175 C1174 1.391 . S
H1176 C1184 0.950 . S
H1177 C1189 0.950 . S
H1178 C1186 0.950 . S
H1179 C1188 0.950 . S
H1180 C1190 0.950 . S
H1181 C1192 0.950 . S
H1182 C1194 0.950 . S
H1183 C1195 0.950 . S
C1184 H1176 0.950 . S
C1184 C1185 1.351 1_545 S
C1184 C1186 1.391 . S
C1185 C1184 1.351 1_565 S
C1185 C1189 1.405 . S
C1186 H1178 0.950 . S
C1186 C1184 1.391 . S
C1186 C1187 1.400 . S
C1187 C1186 1.400 . S
C1187 C1188 1.398 1_545 S
C1187 C1193 1.491 . S
C1188 H1179 0.950 . S
C1188 C1187 1.398 1_565 S
C1188 C1189 1.391 . S
C1189 H1177 0.950 . S
C1189 C1185 1.405 . S
C1189 C1188 1.391 . S
C1190 H1180 0.950 . S
C1190 C1191 1.386 . S
C1190 C1192 1.391 . S
C1191 C1190 1.386 . S
C1191 C1195 1.393 . S
C1192 H1181 0.950 . S
C1192 C1190 1.391 . S
C1192 C1193 1.400 . S
C1193 C1187 1.491 . S
C1193 C1192 1.400 . S
C1193 C1194 1.398 . S
C1194 H1182 0.950 . S
C1194 C1193 1.398 . S
C1194 C1195 1.391 . S
C1195 H1183 0.950 . S
C1195 C1191 1.393 . S
C1195 C1194 1.391 . S
H1196 C1204 0.950 . S
H1197 C1209 0.950 . S
H1198 C1206 0.950 . S
H1199 C1208 0.950 . S
H1200 C1210 0.950 . S
H1201 C1212 0.950 . S
H1202 C1214 0.950 . S
H1203 C1215 0.950 . S
C1204 H1196 0.950 . S
C1204 C1205 1.386 . S
C1204 C1206 1.391 . S
C1205 C1204 1.386 . S
C1205 C1209 1.393 . S
C1206 H1198 0.950 . S
C1206 C1204 1.391 . S
C1206 C1207 1.400 . S
C1207 C1206 1.400 . S
C1207 C1208 1.398 . S
C1207 C1213 1.491 . S
C1208 H1199 0.950 . S
C1208 C1207 1.398 . S
C1208 C1209 1.391 . S
C1209 H1197 0.950 . S
C1209 C1205 1.393 . S
C1209 C1208 1.391 . S
C1210 H1200 0.950 . S
C1210 C1211 1.386 . S
C1210 C1212 1.391 . S
C1211 C1210 1.386 . S
C1211 C1215 1.393 . S
C1212 H1201 0.950 . S
C1212 C1210 1.391 . S
C1212 C1213 1.400 . S
C1213 C1207 1.491 . S
C1213 C1212 1.400 . S
C1213 C1214 1.398 . S
C1214 H1202 0.950 . S
C1214 C1213 1.398 . S
C1214 C1215 1.391 . S
C1215 H1203 0.950 . S
C1215 C1211 1.393 . S
C1215 C1214 1.391 . S
H1216 C1224 0.950 . S
H1217 C1229 0.950 . S
H1218 C1226 0.950 . S
H1219 C1228 0.950 . S
H1220 C1230 0.950 . S
H1221 C1232 0.950 . S
H1222 C1234 0.950 . S
H1223 C1235 0.950 . S
C1224 H1216 0.950 . S
C1224 C1225 1.386 . S
C1224 C1226 1.391 . S
C1225 C1224 1.386 . S
C1225 C1229 1.393 . S
C1226 H1218 0.950 . S
C1226 C1224 1.391 . S
C1226 C1227 1.400 . S
C1227 C1226 1.400 . S
C1227 C1228 1.398 . S
C1227 C1233 1.491 . S
C1228 H1219 0.950 . S
C1228 C1227 1.398 . S
C1228 C1229 1.391 . S
C1229 H1217 0.950 . S
C1229 C1225 1.393 . S
C1229 C1228 1.391 . S
C1230 H1220 0.950 . S
C1230 C1231 1.389 . S
C1230 C1232 1.391 1_455 S
C1231 C1230 1.389 . S
C1231 C1235 1.377 1_455 S
C1232 H1221 0.950 . S
C1232 C1230 1.391 1_655 S
C1232 C1233 1.400 . S
C1233 C1227 1.491 . S
C1233 C1232 1.400 . S
C1233 C1234 1.398 . S
C1234 H1222 0.950 . S
C1234 C1233 1.398 . S
C1234 C1235 1.391 . S
C1235 H1223 0.950 . S
C1235 C1231 1.377 1_655 S
C1235 C1234 1.391 . S
H1236 C1244 0.950 . S
H1237 C1249 0.950 . S
H1238 C1246 0.950 . S
H1239 C1248 0.950 . S
H1240 C1250 0.950 . S
H1241 C1252 0.950 . S
H1242 C1254 0.950 . S
H1243 C1255 0.950 . S
C1244 H1236 0.950 . S
C1244 C1245 1.386 . S
C1244 C1246 1.391 . S
C1245 C1244 1.386 . S
C1245 C1249 1.393 . S
C1246 H1238 0.950 . S
C1246 C1244 1.391 . S
C1246 C1247 1.400 . S
C1247 C1246 1.400 . S
C1247 C1248 1.398 . S
C1247 C1253 1.491 . S
C1248 H1239 0.950 . S
C1248 C1247 1.398 . S
C1248 C1249 1.391 . S
C1249 H1237 0.950 . S
C1249 C1245 1.393 . S
C1249 C1248 1.391 . S
C1250 H1240 0.950 . S
C1250 C1251 1.386 . S
C1250 C1252 1.391 . S
C1251 C1250 1.386 . S
C1251 C1255 1.393 . S
C1252 H1241 0.950 . S
C1252 C1250 1.391 . S
C1252 C1253 1.400 . S
C1253 C1247 1.491 . S
C1253 C1252 1.400 . S
C1253 C1254 1.398 . S
C1254 H1242 0.950 . S
C1254 C1253 1.398 . S
C1254 C1255 1.391 . S
C1255 H1243 0.950 . S
C1255 C1251 1.393 . S
C1255 C1254 1.391 . S
H1256 C1264 0.950 . S
H1257 C1269 0.950 . S
H1258 C1266 0.950 . S
H1259 C1268 0.950 . S
H1260 C1270 0.950 . S
H1261 C1272 0.950 . S
H1262 C1274 0.950 . S
H1263 C1275 0.950 . S
C1264 H1256 0.950 . S
C1264 C1265 1.386 . S
C1264 C1266 1.391 . S
C1265 C1264 1.386 . S
C1265 C1269 1.393 1_545 S
C1266 H1258 0.950 . S
C1266 C1264 1.391 . S
C1266 C1267 1.400 . S
C1267 C1266 1.400 . S
C1267 C1268 1.398 . S
C1267 C1273 1.491 . S
C1268 H1259 0.950 . S
C1268 C1267 1.398 . S
C1268 C1269 1.391 1_545 S
C1269 H1257 0.950 . S
C1269 C1265 1.393 1_565 S
C1269 C1268 1.391 1_565 S
C1270 H1260 0.950 . S
C1270 C1271 1.386 . S
C1270 C1272 1.391 . S
C1271 C1270 1.386 . S
C1271 C1275 1.393 . S
C1272 H1261 0.950 . S
C1272 C1270 1.391 . S
C1272 C1273 1.400 . S
C1273 C1267 1.491 . S
C1273 C1272 1.400 . S
C1273 C1274 1.398 . S
C1274 H1262 0.950 . S
C1274 C1273 1.398 . S
C1274 C1275 1.391 . S
C1275 H1263 0.950 . S
C1275 C1271 1.393 . S
C1275 C1274 1.391 . S
H1276 C1284 0.950 . S
H1277 C1289 0.950 . S
H1278 C1286 0.950 . S
H1279 C1288 0.950 . S
H1280 C1290 0.950 . S
H1281 C1292 0.950 . S
H1282 C1294 0.950 . S
H1283 C1295 0.950 . S
C1284 H1276 0.950 . S
C1284 C1285 1.386 . S
C1284 C1286 1.391 . S
C1285 C1284 1.386 . S
C1285 C1289 1.393 . S
C1286 H1278 0.950 . S
C1286 C1284 1.391 . S
C1286 C1287 1.400 . S
C1287 C1286 1.400 . S
C1287 C1288 1.398 . S
C1287 C1293 1.491 . S
C1288 H1279 0.950 . S
C1288 C1287 1.398 . S
C1288 C1289 1.391 . S
C1289 H1277 0.950 . S
C1289 C1285 1.393 . S
C1289 C1288 1.391 . S
C1290 H1280 0.950 . S
C1290 C1291 1.386 . S
C1290 C1292 1.391 . S
C1291 C1290 1.386 . S
C1291 C1295 1.393 . S
C1292 H1281 0.950 . S
C1292 C1290 1.391 . S
C1292 C1293 1.400 . S
C1293 C1287 1.491 . S
C1293 C1292 1.400 . S
C1293 C1294 1.398 . S
C1294 H1282 0.950 . S
C1294 C1293 1.398 . S
C1294 C1295 1.391 . S
C1295 H1283 0.950 . S
C1295 C1291 1.393 . S
C1295 C1294 1.391 . S
H1296 C1304 0.950 . S
H1297 C1309 0.950 . S
H1298 C1306 0.950 . S
H1299 C1308 0.950 . S
H1300 C1310 0.950 . S
H1301 C1312 0.950 1_565 S
H1302 C1314 0.950 . S
H1303 C1315 0.950 . S
C1304 H1296 0.950 . S
C1304 C1305 1.386 . S
C1304 C1306 1.391 . S
C1305 C1304 1.386 . S
C1305 C1309 1.393 . S
C1306 H1298 0.950 . S
C1306 C1304 1.391 . S
C1306 C1307 1.400 . S
C1307 C1306 1.400 . S
C1307 C1308 1.398 . S
C1307 C1313 1.491 1_565 S
C1308 H1299 0.950 . S
C1308 C1307 1.398 . S
C1308 C1309 1.391 . S
C1309 H1297 0.950 . S
C1309 C1305 1.393 . S
C1309 C1308 1.391 . S
C1310 H1300 0.950 . S
C1310 C1311 1.386 . S
C1310 C1312 1.391 . S
C1311 C1310 1.386 . S
C1311 C1315 1.393 . S
C1312 H1301 0.950 1_545 S
C1312 C1310 1.391 . S
C1312 C1313 1.400 . S
C1313 C1307 1.491 1_545 S
C1313 C1312 1.400 . S
C1313 C1314 1.398 . S
C1314 H1302 0.950 . S
C1314 C1313 1.398 . S
C1314 C1315 1.391 . S
C1315 H1303 0.950 . S
C1315 C1311 1.393 . S
C1315 C1314 1.391 . S
H1316 C1324 0.950 . S
H1317 C1329 0.950 . S
H1318 C1326 0.950 . S
H1319 C1328 0.952 1_556 S
H1320 C1330 0.950 1_556 S
H1321 C1332 0.950 1_556 S
H1322 C1334 0.950 . S
H1323 C1335 0.950 . S
C1324 H1316 0.950 . S
C1324 C1325 1.386 . S
C1324 C1326 1.391 . S
C1325 C1324 1.386 . S
C1325 C1329 1.393 1_554 S
C1326 H1318 0.950 . S
C1326 C1324 1.391 . S
C1326 C1327 1.400 . S
C1327 C1326 1.400 . S
C1327 C1328 1.395 . S
C1327 C1333 1.491 . S
C1328 H1319 0.952 1_554 S
C1328 C1327 1.395 . S
C1328 C1329 1.392 1_554 S
C1329 H1317 0.950 . S
C1329 C1325 1.393 1_556 S
C1329 C1328 1.392 1_556 S
C1330 H1320 0.950 1_554 S
C1330 C1331 1.386 . S
C1330 C1332 1.391 . S
C1331 C1330 1.386 . S
C1331 C1335 1.393 . S
C1332 H1321 0.950 1_554 S
C1332 C1330 1.391 . S
C1332 C1333 1.400 . S
C1333 C1327 1.491 . S
C1333 C1332 1.400 . S
C1333 C1334 1.398 . S
C1334 H1322 0.950 . S
C1334 C1333 1.398 . S
C1334 C1335 1.391 . S
C1335 H1323 0.950 . S
C1335 C1331 1.393 . S
C1335 C1334 1.391 . S
H1336 C1344 0.950 . S
H1337 C1349 0.950 . S
H1338 C1346 0.950 . S
H1339 C1348 0.950 . S
H1340 C1350 0.950 . S
H1341 C1352 0.950 . S
H1342 C1354 0.950 . S
H1343 C1355 0.950 . S
C1344 H1336 0.950 . S
C1344 C1345 1.386 . S
C1344 C1346 1.391 . S
C1345 C1344 1.386 . S
C1345 C1349 1.393 . S
C1346 H1338 0.950 . S
C1346 C1344 1.391 . S
C1346 C1347 1.400 . S
C1347 C1346 1.400 . S
C1347 C1348 1.398 . S
C1347 C1353 1.491 . S
C1348 H1339 0.950 . S
C1348 C1347 1.398 . S
C1348 C1349 1.391 . S
C1349 H1337 0.950 . S
C1349 C1345 1.393 . S
C1349 C1348 1.391 . S
C1350 H1340 0.950 . S
C1350 C1351 1.386 . S
C1350 C1352 1.391 . S
C1351 C1350 1.386 . S
C1351 C1355 1.393 . S
C1352 H1341 0.950 . S
C1352 C1350 1.391 . S
C1352 C1353 1.400 . S
C1353 C1347 1.491 . S
C1353 C1352 1.400 . S
C1353 C1354 1.398 . S
C1354 H1342 0.950 . S
C1354 C1353 1.398 . S
C1354 C1355 1.391 . S
C1355 H1343 0.950 . S
C1355 C1351 1.393 . S
C1355 C1354 1.391 . S
H1356 C1364 0.950 . S
H1357 C1369 0.950 . S
H1358 C1366 0.950 . S
H1359 C1368 0.950 . S
H1360 C1370 0.950 . S
H1361 C1372 0.950 . S
H1362 C1374 0.950 . S
H1363 C1375 0.950 . S
C1364 H1356 0.950 . S
C1364 C1365 1.386 . S
C1364 C1366 1.391 . S
C1365 C1364 1.386 . S
C1365 C1369 1.393 . S
C1366 H1358 0.950 . S
C1366 C1364 1.391 . S
C1366 C1367 1.400 . S
C1367 C1366 1.400 . S
C1367 C1368 1.398 . S
C1367 C1373 1.491 . S
C1368 H1359 0.950 . S
C1368 C1367 1.398 . S
C1368 C1369 1.391 . S
C1369 H1357 0.950 . S
C1369 C1365 1.393 . S
C1369 C1368 1.391 . S
C1370 H1360 0.950 . S
C1370 C1371 1.386 . S
C1370 C1372 1.391 . S
C1371 C1370 1.386 . S
C1371 C1375 1.393 . S
C1372 H1361 0.950 . S
C1372 C1370 1.391 . S
C1372 C1373 1.400 . S
C1373 C1367 1.491 . S
C1373 C1372 1.400 . S
C1373 C1374 1.398 . S
C1374 H1362 0.950 . S
C1374 C1373 1.398 . S
C1374 C1375 1.391 . S
C1375 H1363 0.950 . S
C1375 C1371 1.393 . S
C1375 C1374 1.391 . S
H1376 C1384 0.950 . S
H1377 C1389 0.950 . S
H1378 C1386 0.950 . S
H1379 C1388 0.950 . S
H1380 C1390 0.950 . S
H1381 C1392 0.950 . S
H1382 C1394 0.950 . S
H1383 C1395 0.950 . S
C1384 H1376 0.950 . S
C1384 C1385 1.386 . S
C1384 C1386 1.391 . S
C1385 C1384 1.386 . S
C1385 C1389 1.393 . S
C1386 H1378 0.950 . S
C1386 C1384 1.391 . S
C1386 C1387 1.400 . S
C1387 C1386 1.400 . S
C1387 C1388 1.398 . S
C1387 C1393 1.491 . S
C1388 H1379 0.950 . S
C1388 C1387 1.398 . S
C1388 C1389 1.391 . S
C1389 H1377 0.950 . S
C1389 C1385 1.393 . S
C1389 C1388 1.391 . S
C1390 H1380 0.950 . S
C1390 C1391 1.386 . S
C1390 C1392 1.391 . S
C1391 C1390 1.386 . S
C1391 C1395 1.393 . S
C1392 H1381 0.950 . S
C1392 C1390 1.391 . S
C1392 C1393 1.400 . S
C1393 C1387 1.491 . S
C1393 C1392 1.400 . S
C1393 C1394 1.398 . S
C1394 H1382 0.950 . S
C1394 C1393 1.398 . S
C1394 C1395 1.391 . S
C1395 H1383 0.950 . S
C1395 C1391 1.393 . S
C1395 C1394 1.391 . S
H1396 C1404 0.950 . S
H1397 C1409 0.950 . S
H1398 C1406 0.950 . S
H1399 C1408 0.950 . S
H1400 C1410 0.950 . S
H1401 C1412 0.950 . S
H1402 C1414 0.950 . S
H1403 C1415 0.950 . S
C1404 H1396 0.950 . S
C1404 C1405 1.386 . S
C1404 C1406 1.391 . S
C1405 C1404 1.386 . S
C1405 C1409 1.393 . S
C1406 H1398 0.950 . S
C1406 C1404 1.391 . S
C1406 C1407 1.400 . S
C1407 C1406 1.400 . S
C1407 C1408 1.398 . S
C1407 C1413 1.491 . S
C1408 H1399 0.950 . S
C1408 C1407 1.398 . S
C1408 C1409 1.391 . S
C1409 H1397 0.950 . S
C1409 C1405 1.393 . S
C1409 C1408 1.391 . S
C1410 H1400 0.950 . S
C1410 C1411 1.386 . S
C1410 C1412 1.391 . S
C1411 C1410 1.386 . S
C1411 C1415 1.393 . S
C1412 H1401 0.950 . S
C1412 C1410 1.391 . S
C1412 C1413 1.400 . S
C1413 C1407 1.491 . S
C1413 C1412 1.400 . S
C1413 C1414 1.398 . S
C1414 H1402 0.950 . S
C1414 C1413 1.398 . S
C1414 C1415 1.391 . S
C1415 H1403 0.950 . S
C1415 C1411 1.393 . S
C1415 C1414 1.391 . S
H1416 C1424 0.950 . S
H1417 C1429 0.950 . S
H1418 C1426 0.950 . S
H1419 C1428 0.950 . S
H1420 C1430 0.950 . S
H1421 C1432 0.950 . S
H1422 C1434 0.950 . S
H1423 C1435 0.950 . S
C1424 H1416 0.950 . S
C1424 C1425 1.386 . S
C1424 C1426 1.391 . S
C1425 C1424 1.386 . S
C1425 C1429 1.393 . S
C1426 H1418 0.950 . S
C1426 C1424 1.391 . S
C1426 C1427 1.400 . S
C1427 C1426 1.400 . S
C1427 C1428 1.398 . S
C1427 C1433 1.491 . S
C1428 H1419 0.950 . S
C1428 C1427 1.398 . S
C1428 C1429 1.391 . S
C1429 H1417 0.950 . S
C1429 C1425 1.393 . S
C1429 C1428 1.391 . S
C1430 H1420 0.950 . S
C1430 C1431 1.386 . S
C1430 C1432 1.391 . S
C1431 C1430 1.386 . S
C1431 C1435 1.393 . S
C1432 H1421 0.950 . S
C1432 C1430 1.391 . S
C1432 C1433 1.400 . S
C1433 C1427 1.491 . S
C1433 C1432 1.400 . S
C1433 C1434 1.398 . S
C1434 H1422 0.950 . S
C1434 C1433 1.398 . S
C1434 C1435 1.391 . S
C1435 H1423 0.950 . S
C1435 C1431 1.393 . S
C1435 C1434 1.391 . S
H1436 C1444 0.950 . S
H1437 C1449 0.950 . S
H1438 C1446 0.950 . S
H1439 C1448 0.950 . S
H1440 C1450 0.950 . S
H1441 C1452 0.950 . S
H1442 C1454 0.950 . S
H1443 C1455 0.950 . S
C1444 H1436 0.950 . S
C1444 C1445 1.386 . S
C1444 C1446 1.391 . S
C1445 C1444 1.386 . S
C1445 C1449 1.393 . S
C1446 H1438 0.950 . S
C1446 C1444 1.391 . S
C1446 C1447 1.400 . S
C1447 C1446 1.400 . S
C1447 C1448 1.398 . S
C1447 C1453 1.491 . S
C1448 H1439 0.950 . S
C1448 C1447 1.398 . S
C1448 C1449 1.391 . S
C1449 H1437 0.950 . S
C1449 C1445 1.393 . S
C1449 C1448 1.391 . S
C1450 H1440 0.950 . S
C1450 C1451 1.386 . S
C1450 C1452 1.391 . S
C1451 C1450 1.386 . S
C1451 C1455 1.393 . S
C1452 H1441 0.950 . S
C1452 C1450 1.391 . S
C1452 C1453 1.400 . S
C1453 C1447 1.491 . S
C1453 C1452 1.400 . S
C1453 C1454 1.398 . S
C1454 H1442 0.950 . S
C1454 C1453 1.398 . S
C1454 C1455 1.391 . S
C1455 H1443 0.950 . S
C1455 C1451 1.393 . S
C1455 C1454 1.391 . S
H1456 C1464 0.950 . S
H1457 C1469 0.950 . S
H1458 C1466 0.950 . S
H1459 C1468 0.950 . S
H1460 C1470 0.950 . S
H1461 C1472 0.950 . S
H1462 C1474 0.950 . S
H1463 C1475 0.950 1_545 S
C1464 H1456 0.950 . S
C1464 C1465 1.386 . S
C1464 C1466 1.391 . S
C1465 C1464 1.386 . S
C1465 C1469 1.393 . S
C1466 H1458 0.950 . S
C1466 C1464 1.391 . S
C1466 C1467 1.400 . S
C1467 C1466 1.400 . S
C1467 C1468 1.398 . S
C1467 C1473 1.491 . S
C1468 H1459 0.950 . S
C1468 C1467 1.398 . S
C1468 C1469 1.391 . S
C1469 H1457 0.950 . S
C1469 C1465 1.393 . S
C1469 C1468 1.391 . S
C1470 H1460 0.950 . S
C1470 C1471 1.386 . S
C1470 C1472 1.391 . S
C1471 C1470 1.386 . S
C1471 C1475 1.393 . S
C1472 H1461 0.950 . S
C1472 C1470 1.391 . S
C1472 C1473 1.400 . S
C1473 C1467 1.491 . S
C1473 C1472 1.400 . S
C1473 C1474 1.398 . S
C1474 H1462 0.950 . S
C1474 C1473 1.398 . S
C1474 C1475 1.391 . S
C1475 H1463 0.950 1_565 S
C1475 C1471 1.393 . S
C1475 C1474 1.391 . S
H1476 C1484 0.950 . S
H1477 C1489 0.950 . S
H1478 C1486 0.950 . S
H1479 C1488 0.950 . S
H1480 C1490 0.950 . S
H1481 C1492 0.950 . S
H1482 C1494 0.950 . S
H1483 C1495 0.950 . S
C1484 H1476 0.950 . S
C1484 C1485 1.386 . S
C1484 C1486 1.391 . S
C1485 C1484 1.386 . S
C1485 C1489 1.393 . S
C1486 H1478 0.950 . S
C1486 C1484 1.391 . S
C1486 C1487 1.400 . S
C1487 C1486 1.400 . S
C1487 C1488 1.398 . S
C1487 C1493 1.491 . S
C1488 H1479 0.950 . S
C1488 C1487 1.398 . S
C1488 C1489 1.391 . S
C1489 H1477 0.950 . S
C1489 C1485 1.393 . S
C1489 C1488 1.391 . S
C1490 H1480 0.950 . S
C1490 C1491 1.386 . S
C1490 C1492 1.391 . S
C1491 C1490 1.386 . S
C1491 C1495 1.393 . S
C1492 H1481 0.950 . S
C1492 C1490 1.391 . S
C1492 C1493 1.400 . S
C1493 C1487 1.491 . S
C1493 C1492 1.400 . S
C1493 C1494 1.398 . S
C1494 H1482 0.950 . S
C1494 C1493 1.398 . S
C1494 C1495 1.391 . S
C1495 H1483 0.950 . S
C1495 C1491 1.393 . S
C1495 C1494 1.391 . S
H1496 C1504 0.950 . S
H1497 C1509 0.950 . S
H1498 C1506 0.950 . S
H1499 C1508 0.950 . S
H1500 C1510 0.950 . S
H1501 C1512 0.950 . S
H1502 C1514 0.950 . S
H1503 C1515 0.950 . S
C1504 H1496 0.950 . S
C1504 C1505 1.386 . S
C1504 C1506 1.391 . S
C1505 C1504 1.386 . S
C1505 C1509 1.393 . S
C1506 H1498 0.950 . S
C1506 C1504 1.391 . S
C1506 C1507 1.400 . S
C1507 C1506 1.400 . S
C1507 C1508 1.398 . S
C1507 C1513 1.491 . S
C1508 H1499 0.950 . S
C1508 C1507 1.398 . S
C1508 C1509 1.391 . S
C1509 H1497 0.950 . S
C1509 C1505 1.393 . S
C1509 C1508 1.391 . S
C1510 H1500 0.950 . S
C1510 C1511 1.386 . S
C1510 C1512 1.391 . S
C1511 C1510 1.386 . S
C1511 C1515 1.393 . S
C1512 H1501 0.950 . S
C1512 C1510 1.391 . S
C1512 C1513 1.400 . S
C1513 C1507 1.491 . S
C1513 C1512 1.400 . S
C1513 C1514 1.398 . S
C1514 H1502 0.950 . S
C1514 C1513 1.398 . S
C1514 C1515 1.391 . S
C1515 H1503 0.950 . S
C1515 C1511 1.393 . S
C1515 C1514 1.391 . S
H1516 C1524 0.950 . S
H1517 C1529 0.950 . S
H1518 C1526 0.950 . S
H1519 C1528 0.950 . S
H1520 C1530 0.950 . S
H1521 C1532 0.950 . S
H1522 C1534 0.950 . S
H1523 C1535 0.950 . S
C1524 H1516 0.950 . S
C1524 C1525 1.386 . S
C1524 C1526 1.391 . S
C1525 C1524 1.386 . S
C1525 C1529 1.393 . S
C1526 H1518 0.950 . S
C1526 C1524 1.391 . S
C1526 C1527 1.400 . S
C1527 C1526 1.400 . S
C1527 C1528 1.398 . S
C1527 C1533 1.491 . S
C1528 H1519 0.950 . S
C1528 C1527 1.398 . S
C1528 C1529 1.391 . S
C1529 H1517 0.950 . S
C1529 C1525 1.393 . S
C1529 C1528 1.391 . S
C1530 H1520 0.950 . S
C1530 C1531 1.386 . S
C1530 C1532 1.391 . S
C1531 C1530 1.386 . S
C1531 C1535 1.393 . S
C1532 H1521 0.950 . S
C1532 C1530 1.391 . S
C1532 C1533 1.400 . S
C1533 C1527 1.491 . S
C1533 C1532 1.400 . S
C1533 C1534 1.398 . S
C1534 H1522 0.950 . S
C1534 C1533 1.398 . S
C1534 C1535 1.391 . S
C1535 H1523 0.950 . S
C1535 C1531 1.393 . S
C1535 C1534 1.391 . S
H1536 C1544 0.950 . S
H1537 C1549 0.943 1_655 S
H1538 C1546 0.950 . S
H1539 C1548 0.950 1_655 S
H1540 C1550 0.950 . S
H1541 C1552 0.950 . S
H1542 C1554 0.950 . S
H1543 C1555 0.950 . S
C1544 H1536 0.950 . S
C1544 C1545 1.386 . S
C1544 C1546 1.391 . S
C1545 C1544 1.386 . S
C1545 C1549 1.395 . S
C1546 H1538 0.950 . S
C1546 C1544 1.391 . S
C1546 C1547 1.400 . S
C1547 C1546 1.400 . S
C1547 C1548 1.398 . S
C1547 C1553 1.491 . S
C1548 H1539 0.950 1_455 S
C1548 C1547 1.398 . S
C1548 C1549 1.395 . S
C1549 H1537 0.943 1_455 S
C1549 C1545 1.395 . S
C1549 C1548 1.395 . S
C1550 H1540 0.950 . S
C1550 C1551 1.386 . S
C1550 C1552 1.391 . S
C1551 C1550 1.386 . S
C1551 C1555 1.393 . S
C1552 H1541 0.950 . S
C1552 C1550 1.391 . S
C1552 C1553 1.400 . S
C1553 C1547 1.491 . S
C1553 C1552 1.400 . S
C1553 C1554 1.398 . S
C1554 H1542 0.950 . S
C1554 C1553 1.398 . S
C1554 C1555 1.391 . S
C1555 H1543 0.950 . S
C1555 C1551 1.393 . S
C1555 C1554 1.391 . S
H1556 C1564 0.950 . S
H1557 C1569 0.950 . S
H1558 C1566 0.950 . S
H1559 C1568 0.950 . S
H1560 C1570 0.950 . S
H1561 C1572 0.950 . S
H1562 C1574 0.950 . S
H1563 C1575 0.950 . S
C1564 H1556 0.950 . S
C1564 C1565 1.386 . S
C1564 C1566 1.391 . S
C1565 C1564 1.386 . S
C1565 C1569 1.393 . S
C1566 H1558 0.950 . S
C1566 C1564 1.391 . S
C1566 C1567 1.400 . S
C1567 C1566 1.400 . S
C1567 C1568 1.398 . S
C1567 C1573 1.491 . S
C1568 H1559 0.950 . S
C1568 C1567 1.398 . S
C1568 C1569 1.391 . S
C1569 H1557 0.950 . S
C1569 C1565 1.393 . S
C1569 C1568 1.391 . S
C1570 H1560 0.950 . S
C1570 C1571 1.386 . S
C1570 C1572 1.391 . S
C1571 C1570 1.386 . S
C1571 C1575 1.393 . S
C1572 H1561 0.950 . S
C1572 C1570 1.391 . S
C1572 C1573 1.400 . S
C1573 C1567 1.491 . S
C1573 C1572 1.400 . S
C1573 C1574 1.398 . S
C1574 H1562 0.950 . S
C1574 C1573 1.398 . S
C1574 C1575 1.391 . S
C1575 H1563 0.950 . S
C1575 C1571 1.393 . S
C1575 C1574 1.391 . S
H1576 C1584 0.950 . S
H1577 C1589 0.950 . S
H1578 C1586 0.950 . S
H1579 C1588 0.950 . S
H1580 C1590 0.950 1_545 S
H1581 C1592 0.950 . S
H1582 C1594 0.950 . S
H1583 C1595 0.950 . S
C1584 H1576 0.950 . S
C1584 C1585 1.386 . S
C1584 C1586 1.391 . S
C1585 C1584 1.386 . S
C1585 C1589 1.393 . S
C1586 H1578 0.950 . S
C1586 C1584 1.391 . S
C1586 C1587 1.400 . S
C1587 C1586 1.400 . S
C1587 C1588 1.398 . S
C1587 C1593 1.491 . S
C1588 H1579 0.950 . S
C1588 C1587 1.398 . S
C1588 C1589 1.391 . S
C1589 H1577 0.950 . S
C1589 C1585 1.393 . S
C1589 C1588 1.391 . S
C1590 H1580 0.950 1_565 S
C1590 C1591 1.386 1_556 S
C1590 C1592 1.391 . S
C1591 C1590 1.386 1_554 S
C1591 C1595 1.393 . S
C1592 H1581 0.950 . S
C1592 C1590 1.391 . S
C1592 C1593 1.400 . S
C1593 C1587 1.491 . S
C1593 C1592 1.400 . S
C1593 C1594 1.398 . S
C1594 H1582 0.950 . S
C1594 C1593 1.398 . S
C1594 C1595 1.391 1_556 S
C1595 H1583 0.950 . S
C1595 C1591 1.393 . S
C1595 C1594 1.391 1_554 S
H1596 C1604 0.950 . S
H1597 C1609 0.950 . S
H1598 C1606 0.950 . S
H1599 C1608 0.950 . S
H1600 C1610 0.950 . S
H1601 C1612 0.950 . S
H1602 C1614 0.950 . S
H1603 C1615 0.950 . S
C1604 H1596 0.950 . S
C1604 C1605 1.386 . S
C1604 C1606 1.391 1_455 S
C1605 C1604 1.386 . S
C1605 C1609 1.393 . S
C1606 H1598 0.950 . S
C1606 C1604 1.391 1_655 S
C1606 C1607 1.400 . S
C1607 C1606 1.400 . S
C1607 C1608 1.398 1_655 S
C1607 C1613 1.491 . S
C1608 H1599 0.950 . S
C1608 C1607 1.398 1_455 S
C1608 C1609 1.391 . S
C1609 H1597 0.950 . S
C1609 C1605 1.393 . S
C1609 C1608 1.391 . S
C1610 H1600 0.950 . S
C1610 C1611 1.386 . S
C1610 C1612 1.391 . S
C1611 C1610 1.386 . S
C1611 C1615 1.393 . S
C1612 H1601 0.950 . S
C1612 C1610 1.391 . S
C1612 C1613 1.400 . S
C1613 C1607 1.491 . S
C1613 C1612 1.400 . S
C1613 C1614 1.398 . S
C1614 H1602 0.950 . S
C1614 C1613 1.398 . S
C1614 C1615 1.391 . S
C1615 H1603 0.950 . S
C1615 C1611 1.393 . S
C1615 C1614 1.391 . S
H1616 C1624 0.950 . S
H1617 C1629 0.950 . S
H1618 C1626 0.950 . S
H1619 C1628 0.950 . S
H1620 C1630 0.950 . S
H1621 C1632 0.950 . S
H1622 C1634 0.950 . S
H1623 C1635 0.950 . S
C1624 H1616 0.950 . S
C1624 C1625 1.386 . S
C1624 C1626 1.391 . S
C1625 C1624 1.386 . S
C1625 C1629 1.393 . S
C1626 H1618 0.950 . S
C1626 C1624 1.391 . S
C1626 C1627 1.400 . S
C1627 C1626 1.400 . S
C1627 C1628 1.398 . S
C1627 C1633 1.491 . S
C1628 H1619 0.950 . S
C1628 C1627 1.398 . S
C1628 C1629 1.391 . S
C1629 H1617 0.950 . S
C1629 C1625 1.393 . S
C1629 C1628 1.391 . S
C1630 H1620 0.950 . S
C1630 C1631 1.386 . S
C1630 C1632 1.391 . S
C1631 C1630 1.386 . S
C1631 C1635 1.393 . S
C1632 H1621 0.950 . S
C1632 C1630 1.391 . S
C1632 C1633 1.400 . S
C1633 C1627 1.491 . S
C1633 C1632 1.400 . S
C1633 C1634 1.398 . S
C1634 H1622 0.950 . S
C1634 C1633 1.398 . S
C1634 C1635 1.391 . S
C1635 H1623 0.950 . S
C1635 C1631 1.393 . S
C1635 C1634 1.391 . S
H1636 C1644 0.950 . S
H1637 C1649 0.950 . S
H1638 C1646 0.950 . S
H1639 C1648 0.950 . S
H1640 C1650 0.950 . S
H1641 C1652 0.950 . S
H1642 C1654 0.950 . S
H1643 C1655 0.950 . S
C1644 H1636 0.950 . S
C1644 C1645 1.386 . S
C1644 C1646 1.391 . S
C1645 C1644 1.386 . S
C1645 C1649 1.393 . S
C1646 H1638 0.950 . S
C1646 C1644 1.391 . S
C1646 C1647 1.400 . S
C1647 C1646 1.400 . S
C1647 C1648 1.398 . S
C1647 C1653 1.491 . S
C1648 H1639 0.950 . S
C1648 C1647 1.398 . S
C1648 C1649 1.391 . S
C1649 H1637 0.950 . S
C1649 C1645 1.393 . S
C1649 C1648 1.391 . S
C1650 H1640 0.950 . S
C1650 C1651 1.386 . S
C1650 C1652 1.391 . S
C1651 C1650 1.386 . S
C1651 C1655 1.393 . S
C1652 H1641 0.950 . S
C1652 C1650 1.391 . S
C1652 C1653 1.400 . S
C1653 C1647 1.491 . S
C1653 C1652 1.400 . S
C1653 C1654 1.398 . S
C1654 H1642 0.950 . S
C1654 C1653 1.398 . S
C1654 C1655 1.391 . S
C1655 H1643 0.950 . S
C1655 C1651 1.393 . S
C1655 C1654 1.391 . S
H1656 C1664 0.950 . S
H1657 C1669 0.950 . S
H1658 C1666 0.950 . S
H1659 C1668 0.950 . S
H1660 C1670 0.950 . S
H1661 C1672 0.950 . S
H1662 C1674 0.950 . S
H1663 C1675 0.950 . S
C1664 H1656 0.950 . S
C1664 C1665 1.386 . S
C1664 C1666 1.391 . S
C1665 C1664 1.386 . S
C1665 C1669 1.393 . S
C1666 H1658 0.950 . S
C1666 C1664 1.391 . S
C1666 C1667 1.400 . S
C1667 C1666 1.400 . S
C1667 C1668 1.398 . S
C1667 C1673 1.491 . S
C1668 H1659 0.950 . S
C1668 C1667 1.398 . S
C1668 C1669 1.391 . S
C1669 H1657 0.950 . S
C1669 C1665 1.393 . S
C1669 C1668 1.391 . S
C1670 H1660 0.950 . S
C1670 C1671 1.386 . S
C1670 C1672 1.391 . S
C1671 C1670 1.386 . S
C1671 C1675 1.393 . S
C1672 H1661 0.950 . S
C1672 C1670 1.391 . S
C1672 C1673 1.400 . S
C1673 C1667 1.491 . S
C1673 C1672 1.400 . S
C1673 C1674 1.398 . S
C1674 H1662 0.950 . S
C1674 C1673 1.398 . S
C1674 C1675 1.391 . S
C1675 H1663 0.950 . S
C1675 C1671 1.393 . S
C1675 C1674 1.391 . S
H1676 C1684 0.950 . S
H1677 C1689 0.950 . S
H1678 C1686 0.950 . S
H1679 C1688 0.950 . S
H1680 C1690 0.950 . S
H1681 C1692 0.950 . S
H1682 C1694 0.950 . S
H1683 C1695 0.950 . S
C1684 H1676 0.950 . S
C1684 C1685 1.386 . S
C1684 C1686 1.391 . S
C1685 C1684 1.386 . S
C1685 C1689 1.393 . S
C1686 H1678 0.950 . S
C1686 C1684 1.391 . S
C1686 C1687 1.400 . S
C1687 C1686 1.400 . S
C1687 C1688 1.398 . S
C1687 C1693 1.491 . S
C1688 H1679 0.950 . S
C1688 C1687 1.398 . S
C1688 C1689 1.391 . S
C1689 H1677 0.950 . S
C1689 C1685 1.393 . S
C1689 C1688 1.391 . S
C1690 H1680 0.950 . S
C1690 C1691 1.386 . S
C1690 C1692 1.391 . S
C1691 C1690 1.386 . S
C1691 C1695 1.393 . S
C1692 H1681 0.950 . S
C1692 C1690 1.391 . S
C1692 C1693 1.400 . S
C1693 C1687 1.491 . S
C1693 C1692 1.400 . S
C1693 C1694 1.398 . S
C1694 H1682 0.950 . S
C1694 C1693 1.398 . S
C1694 C1695 1.391 . S
C1695 H1683 0.950 . S
C1695 C1691 1.393 . S
C1695 C1694 1.391 . S
H1696 C1704 0.950 . S
H1697 C1709 0.950 . S
H1698 C1706 0.950 . S
H1699 C1708 0.950 . S
H1700 C1710 0.950 . S
H1701 C1712 0.950 . S
H1702 C1714 0.950 . S
H1703 C1715 0.950 . S
C1704 H1696 0.950 . S
C1704 C1705 1.386 . S
C1704 C1706 1.391 . S
C1705 C1704 1.386 . S
C1705 C1709 1.393 . S
C1706 H1698 0.950 . S
C1706 C1704 1.391 . S
C1706 C1707 1.400 . S
C1707 C1706 1.400 . S
C1707 C1708 1.398 . S
C1707 C1713 1.491 . S
C1708 H1699 0.950 . S
C1708 C1707 1.398 . S
C1708 C1709 1.391 . S
C1709 H1697 0.950 . S
C1709 C1705 1.393 . S
C1709 C1708 1.391 . S
C1710 H1700 0.950 . S
C1710 C1711 1.386 . S
C1710 C1712 1.391 . S
C1711 C1710 1.386 . S
C1711 C1715 1.393 . S
C1712 H1701 0.950 . S
C1712 C1710 1.391 . S
C1712 C1713 1.400 . S
C1713 C1707 1.491 . S
C1713 C1712 1.400 . S
C1713 C1714 1.398 . S
C1714 H1702 0.950 . S
C1714 C1713 1.398 . S
C1714 C1715 1.391 . S
C1715 H1703 0.950 . S
C1715 C1711 1.393 . S
C1715 C1714 1.391 . S
H1716 C1724 0.950 . S
H1717 C1729 0.950 . S
H1718 C1726 0.950 . S
H1719 C1728 0.950 . S
H1720 C1730 0.950 . S
H1721 C1732 0.950 . S
H1722 C1734 0.950 . S
H1723 C1735 0.950 . S
C1724 H1716 0.950 . S
C1724 C1725 1.386 . S
C1724 C1726 1.391 . S
C1725 C1724 1.386 . S
C1725 C1729 1.393 . S
C1726 H1718 0.950 . S
C1726 C1724 1.391 . S
C1726 C1727 1.400 . S
C1727 C1726 1.400 . S
C1727 C1728 1.398 . S
C1727 C1733 1.491 . S
C1728 H1719 0.950 . S
C1728 C1727 1.398 . S
C1728 C1729 1.391 . S
C1729 H1717 0.950 . S
C1729 C1725 1.393 . S
C1729 C1728 1.391 . S
C1730 H1720 0.950 . S
C1730 C1731 1.386 . S
C1730 C1732 1.391 . S
C1731 C1730 1.386 . S
C1731 C1735 1.393 . S
C1732 H1721 0.950 . S
C1732 C1730 1.391 . S
C1732 C1733 1.400 . S
C1733 C1727 1.491 . S
C1733 C1732 1.400 . S
C1733 C1734 1.398 . S
C1734 H1722 0.950 . S
C1734 C1733 1.398 . S
C1734 C1735 1.391 . S
C1735 H1723 0.950 . S
C1735 C1731 1.393 . S
C1735 C1734 1.391 . S
H1736 C1744 0.950 . S
H1737 C1749 0.950 . S
H1738 C1746 0.950 . S
H1739 C1748 0.950 . S
H1740 C1750 0.950 . S
H1741 C1752 0.950 . S
H1742 C1754 0.950 . S
H1743 C1755 0.950 . S
C1744 H1736 0.950 . S
C1744 C1745 1.386 . S
C1744 C1746 1.391 . S
C1745 C1744 1.386 . S
C1745 C1749 1.393 . S
C1746 H1738 0.950 . S
C1746 C1744 1.391 . S
C1746 C1747 1.400 . S
C1747 C1746 1.400 . S
C1747 C1748 1.398 . S
C1747 C1753 1.491 . S
C1748 H1739 0.950 . S
C1748 C1747 1.398 . S
C1748 C1749 1.391 . S
C1749 H1737 0.950 . S
C1749 C1745 1.393 . S
C1749 C1748 1.391 . S
C1750 H1740 0.950 . S
C1750 C1751 1.386 . S
C1750 C1752 1.391 . S
C1751 C1750 1.386 . S
C1751 C1755 1.393 . S
C1752 H1741 0.950 . S
C1752 C1750 1.391 . S
C1752 C1753 1.400 . S
C1753 C1747 1.491 . S
C1753 C1752 1.400 . S
C1753 C1754 1.398 . S
C1754 H1742 0.950 . S
C1754 C1753 1.398 . S
C1754 C1755 1.391 . S
C1755 H1743 0.950 . S
C1755 C1751 1.393 . S
C1755 C1754 1.391 . S
H1756 C1764 0.950 . S
H1757 C1769 0.950 . S
H1758 C1766 0.950 . S
H1759 C1768 0.950 . S
H1760 C1770 0.950 . S
H1761 C1772 0.950 . S
H1762 C1774 0.950 . S
H1763 C1775 0.950 . S
C1764 H1756 0.950 . S
C1764 C1765 1.386 . S
C1764 C1766 1.391 . S
C1765 C1764 1.386 . S
C1765 C1769 1.393 . S
C1766 H1758 0.950 . S
C1766 C1764 1.391 . S
C1766 C1767 1.400 . S
C1767 C1766 1.400 . S
C1767 C1768 1.398 . S
C1767 C1773 1.491 . S
C1768 H1759 0.950 . S
C1768 C1767 1.398 . S
C1768 C1769 1.391 . S
C1769 H1757 0.950 . S
C1769 C1765 1.393 . S
C1769 C1768 1.391 . S
C1770 H1760 0.950 . S
C1770 C1771 1.386 . S
C1770 C1772 1.391 . S
C1771 C1770 1.386 . S
C1771 C1775 1.393 . S
C1772 H1761 0.950 . S
C1772 C1770 1.391 . S
C1772 C1773 1.400 . S
C1773 C1767 1.491 . S
C1773 C1772 1.400 . S
C1773 C1774 1.398 . S
C1774 H1762 0.950 . S
C1774 C1773 1.398 . S
C1774 C1775 1.391 . S
C1775 H1763 0.950 . S
C1775 C1771 1.393 . S
C1775 C1774 1.391 . S
H1776 C1784 0.950 . S
H1777 C1789 0.950 . S
H1778 C1786 0.950 . S
H1779 C1788 0.950 . S
H1780 C1790 0.950 . S
H1781 C1792 0.950 . S
H1782 C1794 0.950 1_554 S
H1783 C1795 0.950 1_554 S
C1784 H1776 0.950 . S
C1784 C1785 1.379 1_554 S
C1784 C1786 1.391 . S
C1785 C1784 1.379 1_556 S
C1785 C1789 1.404 . S
C1786 H1778 0.950 . S
C1786 C1784 1.391 . S
C1786 C1787 1.400 1_554 S
C1787 C1786 1.400 1_556 S
C1787 C1788 1.398 . S
C1787 C1793 1.491 . S
C1788 H1779 0.950 . S
C1788 C1787 1.398 . S
C1788 C1789 1.391 . S
C1789 H1777 0.950 . S
C1789 C1785 1.404 . S
C1789 C1788 1.391 . S
C1790 H1780 0.950 . S
C1790 C1791 1.386 . S
C1790 C1792 1.391 . S
C1791 C1790 1.386 . S
C1791 C1795 1.393 . S
C1792 H1781 0.950 . S
C1792 C1790 1.391 . S
C1792 C1793 1.400 . S
C1793 C1787 1.491 . S
C1793 C1792 1.400 . S
C1793 C1794 1.398 . S
C1794 H1782 0.950 1_556 S
C1794 C1793 1.398 . S
C1794 C1795 1.391 . S
C1795 H1783 0.950 1_556 S
C1795 C1791 1.393 . S
C1795 C1794 1.391 . S
H1796 C1804 0.950 . S
H1797 C1809 0.950 . S
H1798 C1806 0.950 . S
H1799 C1808 0.950 . S
H1800 C1810 0.950 . S
H1801 C1812 0.950 . S
H1802 C1814 0.950 1_556 S
H1803 C1815 0.950 1_556 S
C1804 H1796 0.950 . S
C1804 C1805 1.386 . S
C1804 C1806 1.391 . S
C1805 C1804 1.386 . S
C1805 C1809 1.393 . S
C1806 H1798 0.950 . S
C1806 C1804 1.391 . S
C1806 C1807 1.400 . S
C1807 C1806 1.400 . S
C1807 C1808 1.398 . S
C1807 C1813 1.491 . S
C1808 H1799 0.950 . S
C1808 C1807 1.398 . S
C1808 C1809 1.391 . S
C1809 H1797 0.950 . S
C1809 C1805 1.393 . S
C1809 C1808 1.391 . S
C1810 H1800 0.950 . S
C1810 C1811 1.386 . S
C1810 C1812 1.391 . S
C1811 C1810 1.386 . S
C1811 C1815 1.393 . S
C1812 H1801 0.950 . S
C1812 C1810 1.391 . S
C1812 C1813 1.400 . S
C1813 C1807 1.491 . S
C1813 C1812 1.400 . S
C1813 C1814 1.398 . S
C1814 H1802 0.950 1_554 S
C1814 C1813 1.398 . S
C1814 C1815 1.391 . S
C1815 H1803 0.950 1_554 S
C1815 C1811 1.393 . S
C1815 C1814 1.391 . S
H1816 C1824 0.950 . S
H1817 C1829 0.950 . S
H1818 C1826 0.950 . S
H1819 C1828 0.950 . S
H1820 C1830 0.950 . S
H1821 C1832 0.950 . S
H1822 C1834 0.950 . S
H1823 C1835 0.950 . S
C1824 H1816 0.950 . S
C1824 C1825 1.386 . S
C1824 C1826 1.391 . S
C1825 C1824 1.386 . S
C1825 C1829 1.393 . S
C1826 H1818 0.950 . S
C1826 C1824 1.391 . S
C1826 C1827 1.400 . S
C1827 C1826 1.400 . S
C1827 C1828 1.398 . S
C1827 C1833 1.491 . S
C1828 H1819 0.950 . S
C1828 C1827 1.398 . S
C1828 C1829 1.391 . S
C1829 H1817 0.950 . S
C1829 C1825 1.393 . S
C1829 C1828 1.391 . S
C1830 H1820 0.950 . S
C1830 C1831 1.386 . S
C1830 C1832 1.391 . S
C1831 C1830 1.386 . S
C1831 C1835 1.393 . S
C1832 H1821 0.950 . S
C1832 C1830 1.391 . S
C1832 C1833 1.400 . S
C1833 C1827 1.491 . S
C1833 C1832 1.400 . S
C1833 C1834 1.398 . S
C1834 H1822 0.950 . S
C1834 C1833 1.398 . S
C1834 C1835 1.391 . S
C1835 H1823 0.950 . S
C1835 C1831 1.393 . S
C1835 C1834 1.391 . S
H1836 C1844 0.950 . S
H1837 C1849 0.950 . S
H1838 C1846 0.950 . S
H1839 C1848 0.950 . S
H1840 C1850 0.950 . S
H1841 C1852 0.950 . S
H1842 C1854 0.950 . S
H1843 C1855 0.950 . S
C1844 H1836 0.950 . S
C1844 C1845 1.386 . S
C1844 C1846 1.391 . S
C1845 C1844 1.386 . S
C1845 C1849 1.393 . S
C1846 H1838 0.950 . S
C1846 C1844 1.391 . S
C1846 C1847 1.400 . S
C1847 C1846 1.400 . S
C1847 C1848 1.398 . S
C1847 C1853 1.491 . S
C1848 H1839 0.950 . S
C1848 C1847 1.398 . S
C1848 C1849 1.391 . S
C1849 H1837 0.950 . S
C1849 C1845 1.393 . S
C1849 C1848 1.391 . S
C1850 H1840 0.950 . S
C1850 C1851 1.386 . S
C1850 C1852 1.391 . S
C1851 C1850 1.386 . S
C1851 C1855 1.393 . S
C1852 H1841 0.950 . S
C1852 C1850 1.391 . S
C1852 C1853 1.400 . S
C1853 C1847 1.491 . S
C1853 C1852 1.400 . S
C1853 C1854 1.398 . S
C1854 H1842 0.950 . S
C1854 C1853 1.398 . S
C1854 C1855 1.391 . S
C1855 H1843 0.950 . S
C1855 C1851 1.393 . S
C1855 C1854 1.391 . S
H1856 C1864 0.950 . S
H1857 C1869 0.950 . S
H1858 C1866 0.950 . S
H1859 C1868 0.950 . S
H1860 C1870 0.950 . S
H1861 C1872 0.950 . S
H1862 C1874 0.950 . S
H1863 C1875 0.950 . S
C1864 H1856 0.950 . S
C1864 C1865 1.386 . S
C1864 C1866 1.391 . S
C1865 C1864 1.386 . S
C1865 C1869 1.393 . S
C1866 H1858 0.950 . S
C1866 C1864 1.391 . S
C1866 C1867 1.400 . S
C1867 C1866 1.400 . S
C1867 C1868 1.398 . S
C1867 C1873 1.491 . S
C1868 H1859 0.950 . S
C1868 C1867 1.398 . S
C1868 C1869 1.391 . S
C1869 H1857 0.950 . S
C1869 C1865 1.393 . S
C1869 C1868 1.391 . S
C1870 H1860 0.950 . S
C1870 C1871 1.386 . S
C1870 C1872 1.391 . S
C1871 C1870 1.386 . S
C1871 C1875 1.393 . S
C1872 H1861 0.950 . S
C1872 C1870 1.391 . S
C1872 C1873 1.400 . S
C1873 C1867 1.491 . S
C1873 C1872 1.400 . S
C1873 C1874 1.398 . S
C1874 H1862 0.950 . S
C1874 C1873 1.398 . S
C1874 C1875 1.391 . S
C1875 H1863 0.950 . S
C1875 C1871 1.393 . S
C1875 C1874 1.391 . S
H1876 C1884 0.950 . S
H1877 C1889 0.950 . S
H1878 C1886 0.950 . S
H1879 C1888 0.950 1_545 S
H1880 C1890 0.950 . S
H1881 C1892 0.950 . S
H1882 C1894 0.950 . S
H1883 C1895 0.950 . S
C1884 H1876 0.950 . S
C1884 C1885 1.386 . S
C1884 C1886 1.391 . S
C1885 C1884 1.386 . S
C1885 C1889 1.393 . S
C1886 H1878 0.950 . S
C1886 C1884 1.391 . S
C1886 C1887 1.400 . S
C1887 C1886 1.400 . S
C1887 C1888 1.398 . S
C1887 C1893 1.491 . S
C1888 H1879 0.950 1_565 S
C1888 C1887 1.398 . S
C1888 C1889 1.391 . S
C1889 H1877 0.950 . S
C1889 C1885 1.393 . S
C1889 C1888 1.391 . S
C1890 H1880 0.950 . S
C1890 C1891 1.386 . S
C1890 C1892 1.391 . S
C1891 C1890 1.386 . S
C1891 C1895 1.393 1_545 S
C1892 H1881 0.950 . S
C1892 C1890 1.391 . S
C1892 C1893 1.400 1_545 S
C1893 C1887 1.491 . S
C1893 C1892 1.400 1_565 S
C1893 C1894 1.398 . S
C1894 H1882 0.950 . S
C1894 C1893 1.398 . S
C1894 C1895 1.391 . S
C1895 H1883 0.950 . S
C1895 C1891 1.393 1_565 S
C1895 C1894 1.391 . S
H1896 C1904 0.950 . S
H1897 C1909 0.950 . S
H1898 C1906 0.950 . S
H1899 C1908 0.950 . S
H1900 C1910 0.950 . S
H1901 C1912 0.950 . S
H1902 C1914 0.950 . S
H1903 C1915 0.950 . S
C1904 H1896 0.950 . S
C1904 C1905 1.386 . S
C1904 C1906 1.391 . S
C1905 C1904 1.386 . S
C1905 C1909 1.393 . S
C1906 H1898 0.950 . S
C1906 C1904 1.391 . S
C1906 C1907 1.400 . S
C1907 C1906 1.400 . S
C1907 C1908 1.398 . S
C1907 C1913 1.491 . S
C1908 H1899 0.950 . S
C1908 C1907 1.398 . S
C1908 C1909 1.391 . S
C1909 H1897 0.950 . S
C1909 C1905 1.393 . S
C1909 C1908 1.391 . S
C1910 H1900 0.950 . S
C1910 C1911 1.386 . S
C1910 C1912 1.391 . S
C1911 C1910 1.386 . S
C1911 C1915 1.393 . S
C1912 H1901 0.950 . S
C1912 C1910 1.391 . S
C1912 C1913 1.400 . S
C1913 C1907 1.491 . S
C1913 C1912 1.400 . S
C1913 C1914 1.398 . S
C1914 H1902 0.950 . S
C1914 C1913 1.398 . S
C1914 C1915 1.391 . S
C1915 H1903 0.950 . S
C1915 C1911 1.393 . S
C1915 C1914 1.391 . S
H1916 C1924 0.950 . S
H1917 C1929 0.950 . S
H1918 C1926 0.950 . S
H1919 C1928 0.950 . S
H1920 C1930 0.950 . S
H1921 C1932 0.950 . S
H1922 C1934 0.950 . S
H1923 C1935 0.950 . S
C1924 H1916 0.950 . S
C1924 C1925 1.386 . S
C1924 C1926 1.391 . S
C1925 C1924 1.386 . S
C1925 C1929 1.393 . S
C1926 H1918 0.950 . S
C1926 C1924 1.391 . S
C1926 C1927 1.400 . S
C1927 C1926 1.400 . S
C1927 C1928 1.398 . S
C1927 C1933 1.491 . S
C1928 H1919 0.950 . S
C1928 C1927 1.398 . S
C1928 C1929 1.391 . S
C1929 H1917 0.950 . S
C1929 C1925 1.393 . S
C1929 C1928 1.391 . S
C1930 H1920 0.950 . S
C1930 C1931 1.386 . S
C1930 C1932 1.391 . S
C1931 C1930 1.386 . S
C1931 C1935 1.393 . S
C1932 H1921 0.950 . S
C1932 C1930 1.391 . S
C1932 C1933 1.400 . S
C1933 C1927 1.491 . S
C1933 C1932 1.400 . S
C1933 C1934 1.398 . S
C1934 H1922 0.950 . S
C1934 C1933 1.398 . S
C1934 C1935 1.391 . S
C1935 H1923 0.950 . S
C1935 C1931 1.393 . S
C1935 C1934 1.391 . S
H1936 C1944 0.950 . S
H1937 C1949 0.950 . S
H1938 C1946 0.950 . S
H1939 C1948 0.950 . S
H1940 C1950 0.950 . S
H1941 C1952 0.950 . S
H1942 C1954 0.950 . S
H1943 C1955 0.950 . S
C1944 H1936 0.950 . S
C1944 C1945 1.386 . S
C1944 C1946 1.391 . S
C1945 C1944 1.386 . S
C1945 C1949 1.393 . S
C1946 H1938 0.950 . S
C1946 C1944 1.391 . S
C1946 C1947 1.400 . S
C1947 C1946 1.400 . S
C1947 C1948 1.398 . S
C1947 C1953 1.491 . S
C1948 H1939 0.950 . S
C1948 C1947 1.398 . S
C1948 C1949 1.391 . S
C1949 H1937 0.950 . S
C1949 C1945 1.393 . S
C1949 C1948 1.391 . S
C1950 H1940 0.950 . S
C1950 C1951 1.386 . S
C1950 C1952 1.391 . S
C1951 C1950 1.386 . S
C1951 C1955 1.393 . S
C1952 H1941 0.950 . S
C1952 C1950 1.391 . S
C1952 C1953 1.400 . S
C1953 C1947 1.491 . S
C1953 C1952 1.400 . S
C1953 C1954 1.398 . S
C1954 H1942 0.950 . S
C1954 C1953 1.398 . S
C1954 C1955 1.391 . S
C1955 H1943 0.950 . S
C1955 C1951 1.393 . S
C1955 C1954 1.391 . S
H1956 C1964 0.950 . S
H1957 C1969 0.950 . S
H1958 C1966 0.950 . S
H1959 C1968 0.950 . S
H1960 C1970 0.950 . S
H1961 C1972 0.950 . S
H1962 C1974 0.950 . S
H1963 C1975 0.950 . S
C1964 H1956 0.950 . S
C1964 C1965 1.386 . S
C1964 C1966 1.391 . S
C1965 C1964 1.386 . S
C1965 C1969 1.393 . S
C1966 H1958 0.950 . S
C1966 C1964 1.391 . S
C1966 C1967 1.400 . S
C1967 C1966 1.400 . S
C1967 C1968 1.398 . S
C1967 C1973 1.491 . S
C1968 H1959 0.950 . S
C1968 C1967 1.398 . S
C1968 C1969 1.391 . S
C1969 H1957 0.950 . S
C1969 C1965 1.393 . S
C1969 C1968 1.391 . S
C1970 H1960 0.950 . S
C1970 C1971 1.386 . S
C1970 C1972 1.391 . S
C1971 C1970 1.386 . S
C1971 C1975 1.393 . S
C1972 H1961 0.950 . S
C1972 C1970 1.391 . S
C1972 C1973 1.400 . S
C1973 C1967 1.491 . S
C1973 C1972 1.400 . S
C1973 C1974 1.398 . S
C1974 H1962 0.950 . S
C1974 C1973 1.398 . S
C1974 C1975 1.391 . S
C1975 H1963 0.950 . S
C1975 C1971 1.393 . S
C1975 C1974 1.391 . S
H1976 C1984 0.950 1_655 S
H1977 C1989 0.950 . S
H1978 C1986 0.950 . S
H1979 C1988 0.950 . S
H1980 C1990 0.950 . S
H1981 C1992 0.950 . S
H1982 C1994 0.950 . S
H1983 C1995 0.950 1_554 S
C1984 H1976 0.950 1_455 S
C1984 C1985 1.386 . S
C1984 C1986 1.391 . S
C1985 C1984 1.386 . S
C1985 C1989 1.393 . S
C1986 H1978 0.950 . S
C1986 C1984 1.391 . S
C1986 C1987 1.400 . S
C1987 C1986 1.400 . S
C1987 C1988 1.398 . S
C1987 C1993 1.491 . S
C1988 H1979 0.950 . S
C1988 C1987 1.398 . S
C1988 C1989 1.391 . S
C1989 H1977 0.950 . S
C1989 C1985 1.393 . S
C1989 C1988 1.391 . S
C1990 H1980 0.950 . S
C1990 C1991 1.386 1_556 S
C1990 C1992 1.391 . S
C1991 C1990 1.386 1_554 S
C1991 C1995 1.393 1_554 S
C1992 H1981 0.950 . S
C1992 C1990 1.391 . S
C1992 C1993 1.400 . S
C1993 C1987 1.491 . S
C1993 C1992 1.400 . S
C1993 C1994 1.398 . S
C1994 H1982 0.950 . S
C1994 C1993 1.398 . S
C1994 C1995 1.391 . S
C1995 H1983 0.950 1_556 S
C1995 C1991 1.393 1_556 S
C1995 C1994 1.391 . S
H1996 C2004 0.949 . S
H1997 C2009 0.950 . S
H1998 C2006 0.950 . S
H1999 C2008 0.950 . S
H2000 C2010 0.950 . S
H2001 C2012 0.950 . S
H2002 C2014 0.950 . S
H2003 C2015 0.950 . S
C2004 H1996 0.949 . S
C2004 C2005 1.352 1_655 S
C2004 C2006 1.427 . S
C2005 C2004 1.352 1_455 S
C2005 C2009 1.393 . S
C2006 H1998 0.950 . S
C2006 C2004 1.427 . S
C2006 C2007 1.400 . S
C2007 C2006 1.400 . S
C2007 C2008 1.398 . S
C2007 C2013 1.491 . S
C2008 H1999 0.950 . S
C2008 C2007 1.398 . S
C2008 C2009 1.391 1_655 S
C2009 H1997 0.950 . S
C2009 C2005 1.393 . S
C2009 C2008 1.391 1_455 S
C2010 H2000 0.950 . S
C2010 C2011 1.386 . S
C2010 C2012 1.391 . S
C2011 C2010 1.386 . S
C2011 C2015 1.393 . S
C2012 H2001 0.950 . S
C2012 C2010 1.391 . S
C2012 C2013 1.400 . S
C2013 C2007 1.491 . S
C2013 C2012 1.400 . S
C2013 C2014 1.398 . S
C2014 H2002 0.950 . S
C2014 C2013 1.398 . S
C2014 C2015 1.391 . S
C2015 H2003 0.950 . S
C2015 C2011 1.393 . S
C2015 C2014 1.391 . S
H2016 C2024 0.950 . S
H2017 C2029 0.950 . S
H2018 C2026 0.950 . S
H2019 C2028 0.950 . S
H2020 C2030 0.950 . S
H2021 C2032 0.950 . S
H2022 C2034 0.950 . S
H2023 C2035 0.950 . S
C2024 H2016 0.950 . S
C2024 C2025 1.386 . S
C2024 C2026 1.391 . S
C2025 C2024 1.386 . S
C2025 C2029 1.393 . S
C2026 H2018 0.950 . S
C2026 C2024 1.391 . S
C2026 C2027 1.400 . S
C2027 C2026 1.400 . S
C2027 C2028 1.398 . S
C2027 C2033 1.491 . S
C2028 H2019 0.950 . S
C2028 C2027 1.398 . S
C2028 C2029 1.391 . S
C2029 H2017 0.950 . S
C2029 C2025 1.393 . S
C2029 C2028 1.391 . S
C2030 H2020 0.950 . S
C2030 C2031 1.386 . S
C2030 C2032 1.391 . S
C2031 C2030 1.386 . S
C2031 C2035 1.393 . S
C2032 H2021 0.950 . S
C2032 C2030 1.391 . S
C2032 C2033 1.400 . S
C2033 C2027 1.491 . S
C2033 C2032 1.400 . S
C2033 C2034 1.398 . S
C2034 H2022 0.950 . S
C2034 C2033 1.398 . S
C2034 C2035 1.391 . S
C2035 H2023 0.950 . S
C2035 C2031 1.393 . S
C2035 C2034 1.391 . S
H2036 C2044 0.950 . S
H2037 C2049 0.950 . S
H2038 C2046 0.950 . S
H2039 C2048 0.950 . S
H2040 C2050 0.950 . S
H2041 C2052 0.950 . S
H2042 C2054 0.950 . S
H2043 C2055 0.950 . S
C2044 H2036 0.950 . S
C2044 C2045 1.386 . S
C2044 C2046 1.391 . S
C2045 C2044 1.386 . S
C2045 C2049 1.393 . S
C2046 H2038 0.950 . S
C2046 C2044 1.391 . S
C2046 C2047 1.400 . S
C2047 C2046 1.400 . S
C2047 C2048 1.398 . S
C2047 C2053 1.491 . S
C2048 H2039 0.950 . S
C2048 C2047 1.398 . S
C2048 C2049 1.391 . S
C2049 H2037 0.950 . S
C2049 C2045 1.393 . S
C2049 C2048 1.391 . S
C2050 H2040 0.950 . S
C2050 C2051 1.386 . S
C2050 C2052 1.391 . S
C2051 C2050 1.386 . S
C2051 C2055 1.393 . S
C2052 H2041 0.950 . S
C2052 C2050 1.391 . S
C2052 C2053 1.400 . S
C2053 C2047 1.491 . S
C2053 C2052 1.400 . S
C2053 C2054 1.398 . S
C2054 H2042 0.950 . S
C2054 C2053 1.398 . S
C2054 C2055 1.391 . S
C2055 H2043 0.950 . S
C2055 C2051 1.393 . S
C2055 C2054 1.391 . S
H2056 C2064 0.950 . S
H2057 C2069 0.950 . S
H2058 C2066 0.950 . S
H2059 C2068 0.950 . S
H2060 C2070 0.950 . S
H2061 C2072 0.950 . S
H2062 C2074 0.950 . S
H2063 C2075 0.950 . S
C2064 H2056 0.950 . S
C2064 C2065 1.386 . S
C2064 C2066 1.391 . S
C2065 C2064 1.386 . S
C2065 C2069 1.393 . S
C2066 H2058 0.950 . S
C2066 C2064 1.391 . S
C2066 C2067 1.400 . S
C2067 C2066 1.400 . S
C2067 C2068 1.398 . S
C2067 C2073 1.491 . S
C2068 H2059 0.950 . S
C2068 C2067 1.398 . S
C2068 C2069 1.391 . S
C2069 H2057 0.950 . S
C2069 C2065 1.393 . S
C2069 C2068 1.391 . S
C2070 H2060 0.950 . S
C2070 C2071 1.386 . S
C2070 C2072 1.391 . S
C2071 C2070 1.386 . S
C2071 C2075 1.393 . S
C2072 H2061 0.950 . S
C2072 C2070 1.391 . S
C2072 C2073 1.400 . S
C2073 C2067 1.491 . S
C2073 C2072 1.400 . S
C2073 C2074 1.398 . S
C2074 H2062 0.950 . S
C2074 C2073 1.398 . S
C2074 C2075 1.391 . S
C2075 H2063 0.950 . S
C2075 C2071 1.393 . S
C2075 C2074 1.391 . S
H2076 C2084 0.950 . S
H2077 C2089 0.950 . S
H2078 C2086 0.950 . S
H2079 C2088 0.950 . S
H2080 C2090 0.950 . S
H2081 C2092 0.950 . S
H2082 C2094 0.950 . S
H2083 C2095 0.950 . S
C2084 H2076 0.950 . S
C2084 C2085 1.386 . S
C2084 C2086 1.391 . S
C2085 C2084 1.386 . S
C2085 C2089 1.393 . S
C2086 H2078 0.950 . S
C2086 C2084 1.391 . S
C2086 C2087 1.400 . S
C2087 C2086 1.400 . S
C2087 C2088 1.398 . S
C2087 C2093 1.491 . S
C2088 H2079 0.950 . S
C2088 C2087 1.398 . S
C2088 C2089 1.391 . S
C2089 H2077 0.950 . S
C2089 C2085 1.393 . S
C2089 C2088 1.391 . S
C2090 H2080 0.950 . S
C2090 C2091 1.386 . S
C2090 C2092 1.391 . S
C2091 C2090 1.386 . S
C2091 C2095 1.393 . S
C2092 H2081 0.950 . S
C2092 C2090 1.391 . S
C2092 C2093 1.400 . S
C2093 C2087 1.491 . S
C2093 C2092 1.400 . S
C2093 C2094 1.398 . S
C2094 H2082 0.950 . S
C2094 C2093 1.398 . S
C2094 C2095 1.391 . S
C2095 H2083 0.950 . S
C2095 C2091 1.393 . S
C2095 C2094 1.391 . S
H2096 C2104 0.950 . S
H2097 C2109 0.950 . S
H2098 C2106 0.950 . S
H2099 C2108 0.950 . S
H2100 C2110 0.950 . S
H2101 C2112 0.950 . S
H2102 C2114 0.950 . S
H2103 C2115 0.950 . S
C2104 H2096 0.950 . S
C2104 C2105 1.386 . S
C2104 C2106 1.391 . S
C2105 C2104 1.386 . S
C2105 C2109 1.393 . S
C2106 H2098 0.950 . S
C2106 C2104 1.391 . S
C2106 C2107 1.400 . S
C2107 C2106 1.400 . S
C2107 C2108 1.398 . S
C2107 C2113 1.491 . S
C2108 H2099 0.950 . S
C2108 C2107 1.398 . S
C2108 C2109 1.391 . S
C2109 H2097 0.950 . S
C2109 C2105 1.393 . S
C2109 C2108 1.391 . S
C2110 H2100 0.950 . S
C2110 C2111 1.386 . S
C2110 C2112 1.391 . S
C2111 C2110 1.386 . S
C2111 C2115 1.393 . S
C2112 H2101 0.950 . S
C2112 C2110 1.391 . S
C2112 C2113 1.400 . S
C2113 C2107 1.491 . S
C2113 C2112 1.400 . S
C2113 C2114 1.398 . S
C2114 H2102 0.950 . S
C2114 C2113 1.398 . S
C2114 C2115 1.391 . S
C2115 H2103 0.950 . S
C2115 C2111 1.393 . S
C2115 C2114 1.391 . S
H2116 C2124 0.950 . S
H2117 C2129 0.950 . S
H2118 C2126 0.950 . S
H2119 C2128 0.950 . S
H2120 C2130 0.950 . S
H2121 C2132 0.950 . S
H2122 C2134 0.950 . S
H2123 C2135 0.950 . S
C2124 H2116 0.950 . S
C2124 C2125 1.386 . S
C2124 C2126 1.391 . S
C2125 C2124 1.386 . S
C2125 C2129 1.393 . S
C2126 H2118 0.950 . S
C2126 C2124 1.391 . S
C2126 C2127 1.400 . S
C2127 C2126 1.400 . S
C2127 C2128 1.398 . S
C2127 C2133 1.491 . S
C2128 H2119 0.950 . S
C2128 C2127 1.398 . S
C2128 C2129 1.391 . S
C2129 H2117 0.950 . S
C2129 C2125 1.393 . S
C2129 C2128 1.391 . S
C2130 H2120 0.950 . S
C2130 C2131 1.386 . S
C2130 C2132 1.391 . S
C2131 C2130 1.386 . S
C2131 C2135 1.393 . S
C2132 H2121 0.950 . S
C2132 C2130 1.391 . S
C2132 C2133 1.400 . S
C2133 C2127 1.491 . S
C2133 C2132 1.400 . S
C2133 C2134 1.398 . S
C2134 H2122 0.950 . S
C2134 C2133 1.398 . S
C2134 C2135 1.391 . S
C2135 H2123 0.950 . S
C2135 C2131 1.393 . S
C2135 C2134 1.391 . S
H2136 C2144 0.950 . S
H2137 C2149 0.950 . S
H2138 C2146 0.950 . S
H2139 C2148 0.950 . S
H2140 C2150 0.950 . S
H2141 C2152 0.950 . S
H2142 C2154 0.950 . S
H2143 C2155 0.950 . S
C2144 H2136 0.950 . S
C2144 C2145 1.386 . S
C2144 C2146 1.391 . S
C2145 C2144 1.386 . S
C2145 C2149 1.393 . S
C2146 H2138 0.950 . S
C2146 C2144 1.391 . S
C2146 C2147 1.400 . S
C2147 C2146 1.400 . S
C2147 C2148 1.398 . S
C2147 C2153 1.491 . S
C2148 H2139 0.950 . S
C2148 C2147 1.398 . S
C2148 C2149 1.391 . S
C2149 H2137 0.950 . S
C2149 C2145 1.393 . S
C2149 C2148 1.391 . S
C2150 H2140 0.950 . S
C2150 C2151 1.386 . S
C2150 C2152 1.391 . S
C2151 C2150 1.386 . S
C2151 C2155 1.393 . S
C2152 H2141 0.950 . S
C2152 C2150 1.391 . S
C2152 C2153 1.400 . S
C2153 C2147 1.491 . S
C2153 C2152 1.400 . S
C2153 C2154 1.398 . S
C2154 H2142 0.950 . S
C2154 C2153 1.398 . S
C2154 C2155 1.391 . S
C2155 H2143 0.950 . S
C2155 C2151 1.393 . S
C2155 C2154 1.391 . S
H2156 C2164 0.950 . S
H2157 C2169 0.950 . S
H2158 C2166 0.950 . S
H2159 C2168 0.950 . S
H2160 C2170 0.950 . S
H2161 C2172 0.950 . S
H2162 C2174 0.950 . S
H2163 C2175 0.950 . S
C2164 H2156 0.950 . S
C2164 C2165 1.386 . S
C2164 C2166 1.391 . S
C2165 C2164 1.386 . S
C2165 C2169 1.393 . S
C2166 H2158 0.950 . S
C2166 C2164 1.391 . S
C2166 C2167 1.400 . S
C2167 C2166 1.400 . S
C2167 C2168 1.398 . S
C2167 C2173 1.491 . S
C2168 H2159 0.950 . S
C2168 C2167 1.398 . S
C2168 C2169 1.391 . S
C2169 H2157 0.950 . S
C2169 C2165 1.393 . S
C2169 C2168 1.391 . S
C2170 H2160 0.950 . S
C2170 C2171 1.386 . S
C2170 C2172 1.391 . S
C2171 C2170 1.386 . S
C2171 C2175 1.393 . S
C2172 H2161 0.950 . S
C2172 C2170 1.391 . S
C2172 C2173 1.400 . S
C2173 C2167 1.491 . S
C2173 C2172 1.400 . S
C2173 C2174 1.398 . S
C2174 H2162 0.950 . S
C2174 C2173 1.398 . S
C2174 C2175 1.391 . S
C2175 H2163 0.950 . S
C2175 C2171 1.393 . S
C2175 C2174 1.391 . S
H2176 C2184 0.950 . S
H2177 C2189 0.950 . S
H2178 C2186 0.950 . S
H2179 C2188 0.950 . S
H2180 C2190 0.950 . S
H2181 C2192 0.950 . S
H2182 C2194 0.950 . S
H2183 C2195 0.950 . S
C2184 H2176 0.950 . S
C2184 C2185 1.386 . S
C2184 C2186 1.391 . S
C2185 C2184 1.386 . S
C2185 C2189 1.393 . S
C2186 H2178 0.950 . S
C2186 C2184 1.391 . S
C2186 C2187 1.400 . S
C2187 C2186 1.400 . S
C2187 C2188 1.398 . S
C2187 C2193 1.491 . S
C2188 H2179 0.950 . S
C2188 C2187 1.398 . S
C2188 C2189 1.391 . S
C2189 H2177 0.950 . S
C2189 C2185 1.393 . S
C2189 C2188 1.391 . S
C2190 H2180 0.950 . S
C2190 C2191 1.386 . S
C2190 C2192 1.391 . S
C2191 C2190 1.386 . S
C2191 C2195 1.393 . S
C2192 H2181 0.950 . S
C2192 C2190 1.391 . S
C2192 C2193 1.400 . S
C2193 C2187 1.491 . S
C2193 C2192 1.400 . S
C2193 C2194 1.398 . S
C2194 H2182 0.950 . S
C2194 C2193 1.398 . S
C2194 C2195 1.391 . S
C2195 H2183 0.950 . S
C2195 C2191 1.393 . S
C2195 C2194 1.391 . S
H2196 C2204 0.950 . S
H2197 C2209 0.950 . S
H2198 C2206 0.950 . S
H2199 C2208 0.950 . S
H2200 C2210 0.950 . S
H2201 C2212 0.950 . S
H2202 C2214 0.950 . S
H2203 C2215 0.950 . S
C2204 H2196 0.950 . S
C2204 C2205 1.386 . S
C2204 C2206 1.391 . S
C2205 C2204 1.386 . S
C2205 C2209 1.393 . S
C2206 H2198 0.950 . S
C2206 C2204 1.391 . S
C2206 C2207 1.400 . S
C2207 C2206 1.400 . S
C2207 C2208 1.398 . S
C2207 C2213 1.491 . S
C2208 H2199 0.950 . S
C2208 C2207 1.398 . S
C2208 C2209 1.391 . S
C2209 H2197 0.950 . S
C2209 C2205 1.393 . S
C2209 C2208 1.391 . S
C2210 H2200 0.950 . S
C2210 C2211 1.386 . S
C2210 C2212 1.391 . S
C2211 C2210 1.386 . S
C2211 C2215 1.393 . S
C2212 H2201 0.950 . S
C2212 C2210 1.391 . S
C2212 C2213 1.400 . S
C2213 C2207 1.491 . S
C2213 C2212 1.400 . S
C2213 C2214 1.398 . S
C2214 H2202 0.950 . S
C2214 C2213 1.398 . S
C2214 C2215 1.391 . S
C2215 H2203 0.950 . S
C2215 C2211 1.393 . S
C2215 C2214 1.391 . S
H2216 C2224 0.950 . S
H2217 C2229 0.950 . S
H2218 C2226 0.950 . S
H2219 C2228 0.950 . S
H2220 C2230 0.950 . S
H2221 C2232 0.950 . S
H2222 C2234 0.950 . S
H2223 C2235 0.950 . S
C2224 H2216 0.950 . S
C2224 C2225 1.386 . S
C2224 C2226 1.391 . S
C2225 C2224 1.386 . S
C2225 C2229 1.393 . S
C2226 H2218 0.950 . S
C2226 C2224 1.391 . S
C2226 C2227 1.400 . S
C2227 C2226 1.400 . S
C2227 C2228 1.398 . S
C2227 C2233 1.491 . S
C2228 H2219 0.950 . S
C2228 C2227 1.398 . S
C2228 C2229 1.391 . S
C2229 H2217 0.950 . S
C2229 C2225 1.393 . S
C2229 C2228 1.391 . S
C2230 H2220 0.950 . S
C2230 C2231 1.386 . S
C2230 C2232 1.391 . S
C2231 C2230 1.386 . S
C2231 C2235 1.393 . S
C2232 H2221 0.950 . S
C2232 C2230 1.391 . S
C2232 C2233 1.400 . S
C2233 C2227 1.491 . S
C2233 C2232 1.400 . S
C2233 C2234 1.398 . S
C2234 H2222 0.950 . S
C2234 C2233 1.398 . S
C2234 C2235 1.391 . S
C2235 H2223 0.950 . S
C2235 C2231 1.393 . S
C2235 C2234 1.391 . S
H2236 C2244 0.950 . S
H2237 C2249 0.950 . S
H2238 C2246 0.950 . S
H2239 C2248 0.950 . S
H2240 C2250 0.950 . S
H2241 C2252 0.950 . S
H2242 C2254 0.950 . S
H2243 C2255 0.950 . S
C2244 H2236 0.950 . S
C2244 C2245 1.386 . S
C2244 C2246 1.391 . S
C2245 C2244 1.386 . S
C2245 C2249 1.393 . S
C2246 H2238 0.950 . S
C2246 C2244 1.391 . S
C2246 C2247 1.400 . S
C2247 C2246 1.400 . S
C2247 C2248 1.398 . S
C2247 C2253 1.491 . S
C2248 H2239 0.950 . S
C2248 C2247 1.398 . S
C2248 C2249 1.391 . S
C2249 H2237 0.950 . S
C2249 C2245 1.393 . S
C2249 C2248 1.391 . S
C2250 H2240 0.950 . S
C2250 C2251 1.386 . S
C2250 C2252 1.391 . S
C2251 C2250 1.386 . S
C2251 C2255 1.393 . S
C2252 H2241 0.950 . S
C2252 C2250 1.391 . S
C2252 C2253 1.400 . S
C2253 C2247 1.491 . S
C2253 C2252 1.400 . S
C2253 C2254 1.398 . S
C2254 H2242 0.950 . S
C2254 C2253 1.398 . S
C2254 C2255 1.391 . S
C2255 H2243 0.950 . S
C2255 C2251 1.393 . S
C2255 C2254 1.391 . S
H2256 C2264 0.950 . S
H2257 C2269 0.950 . S
H2258 C2266 0.950 . S
H2259 C2268 0.950 . S
H2260 C2270 0.950 . S
H2261 C2272 0.950 . S
H2262 C2274 0.950 . S
H2263 C2275 0.950 . S
C2264 H2256 0.950 . S
C2264 C2265 1.386 . S
C2264 C2266 1.391 . S
C2265 C2264 1.386 . S
C2265 C2269 1.393 . S
C2266 H2258 0.950 . S
C2266 C2264 1.391 . S
C2266 C2267 1.400 . S
C2267 C2266 1.400 . S
C2267 C2268 1.398 . S
C2267 C2273 1.491 . S
C2268 H2259 0.950 . S
C2268 C2267 1.398 . S
C2268 C2269 1.391 . S
C2269 H2257 0.950 . S
C2269 C2265 1.393 . S
C2269 C2268 1.391 . S
C2270 H2260 0.950 . S
C2270 C2271 1.386 . S
C2270 C2272 1.391 . S
C2271 C2270 1.386 . S
C2271 C2275 1.393 . S
C2272 H2261 0.950 . S
C2272 C2270 1.391 . S
C2272 C2273 1.400 . S
C2273 C2267 1.491 . S
C2273 C2272 1.400 . S
C2273 C2274 1.398 . S
C2274 H2262 0.950 . S
C2274 C2273 1.398 . S
C2274 C2275 1.391 . S
C2275 H2263 0.950 . S
C2275 C2271 1.393 . S
C2275 C2274 1.391 . S
H2276 C2284 0.950 . S
H2277 C2289 0.950 . S
H2278 C2286 0.950 . S
H2279 C2288 0.950 . S
H2280 C2290 0.950 . S
H2281 C2292 0.950 . S
H2282 C2294 0.950 . S
H2283 C2295 0.950 . S
C2284 H2276 0.950 . S
C2284 C2285 1.386 . S
C2284 C2286 1.391 . S
C2285 C2284 1.386 . S
C2285 C2289 1.393 . S
C2286 H2278 0.950 . S
C2286 C2284 1.391 . S
C2286 C2287 1.400 . S
C2287 C2286 1.400 . S
C2287 C2288 1.398 . S
C2287 C2293 1.491 . S
C2288 H2279 0.950 . S
C2288 C2287 1.398 . S
C2288 C2289 1.391 . S
C2289 H2277 0.950 . S
C2289 C2285 1.393 . S
C2289 C2288 1.391 . S
C2290 H2280 0.950 . S
C2290 C2291 1.386 . S
C2290 C2292 1.391 . S
C2291 C2290 1.386 . S
C2291 C2295 1.393 . S
C2292 H2281 0.950 . S
C2292 C2290 1.391 . S
C2292 C2293 1.400 . S
C2293 C2287 1.491 . S
C2293 C2292 1.400 . S
C2293 C2294 1.398 . S
C2294 H2282 0.950 . S
C2294 C2293 1.398 . S
C2294 C2295 1.391 . S
C2295 H2283 0.950 . S
C2295 C2291 1.393 . S
C2295 C2294 1.391 . S
H2296 C2304 0.950 . S
H2297 C2309 0.950 . S
H2298 C2306 0.950 . S
H2299 C2308 0.950 1_565 S
H2300 C2310 0.950 . S
H2301 C2312 0.950 . S
H2302 C2314 0.950 . S
H2303 C2315 0.950 . S
C2304 H2296 0.950 . S
C2304 C2305 1.386 . S
C2304 C2306 1.391 . S
C2305 C2304 1.386 . S
C2305 C2309 1.393 . S
C2306 H2298 0.950 . S
C2306 C2304 1.391 . S
C2306 C2307 1.400 . S
C2307 C2306 1.400 . S
C2307 C2308 1.398 . S
C2307 C2313 1.491 1_545 S
C2308 H2299 0.950 1_545 S
C2308 C2307 1.398 . S
C2308 C2309 1.391 . S
C2309 H2297 0.950 . S
C2309 C2305 1.393 . S
C2309 C2308 1.391 . S
C2310 H2300 0.950 . S
C2310 C2311 1.386 . S
C2310 C2312 1.391 . S
C2311 C2310 1.386 . S
C2311 C2315 1.393 . S
C2312 H2301 0.950 . S
C2312 C2310 1.391 . S
C2312 C2313 1.400 . S
C2313 C2307 1.491 1_565 S
C2313 C2312 1.400 . S
C2313 C2314 1.398 1_565 S
C2314 H2302 0.950 . S
C2314 C2313 1.398 1_545 S
C2314 C2315 1.391 1_545 S
C2315 H2303 0.950 . S
C2315 C2311 1.393 . S
C2315 C2314 1.391 1_565 S
H2316 C2324 0.950 . S
H2317 C2329 0.950 . S
H2318 C2326 0.950 . S
H2319 C2328 0.950 . S
H2320 C2330 0.950 . S
H2321 C2332 0.950 . S
H2322 C2334 0.950 . S
H2323 C2335 0.950 . S
C2324 H2316 0.950 . S
C2324 C2325 1.386 . S
C2324 C2326 1.391 . S
C2325 C2324 1.386 . S
C2325 C2329 1.393 . S
C2326 H2318 0.950 . S
C2326 C2324 1.391 . S
C2326 C2327 1.400 1_565 S
C2327 C2326 1.400 1_545 S
C2327 C2328 1.398 . S
C2327 C2333 1.491 . S
C2328 H2319 0.950 . S
C2328 C2327 1.398 . S
C2328 C2329 1.391 1_545 S
C2329 H2317 0.950 . S
C2329 C2325 1.393 . S
C2329 C2328 1.391 1_565 S
C2330 H2320 0.950 . S
C2330 C2331 1.386 . S
C2330 C2332 1.391 . S
C2331 C2330 1.386 . S
C2331 C2335 1.393 . S
C2332 H2321 0.950 . S
C2332 C2330 1.391 . S
C2332 C2333 1.400 . S
C2333 C2327 1.491 . S
C2333 C2332 1.400 . S
C2333 C2334 1.398 . S
C2334 H2322 0.950 . S
C2334 C2333 1.398 . S
C2334 C2335 1.391 . S
C2335 H2323 0.950 . S
C2335 C2331 1.393 . S
C2335 C2334 1.391 . S
H2336 C2344 0.950 . S
H2337 C2349 0.950 . S
H2338 C2346 0.950 . S
H2339 C2348 0.950 . S
H2340 C2350 0.950 . S
H2341 C2352 0.950 . S
H2342 C2354 0.950 . S
H2343 C2355 0.950 . S
C2344 H2336 0.950 . S
C2344 C2345 1.386 . S
C2344 C2346 1.391 . S
C2345 C2344 1.386 . S
C2345 C2349 1.393 . S
C2346 H2338 0.950 . S
C2346 C2344 1.391 . S
C2346 C2347 1.400 . S
C2347 C2346 1.400 . S
C2347 C2348 1.398 . S
C2347 C2353 1.491 . S
C2348 H2339 0.950 . S
C2348 C2347 1.398 . S
C2348 C2349 1.391 . S
C2349 H2337 0.950 . S
C2349 C2345 1.393 . S
C2349 C2348 1.391 . S
C2350 H2340 0.950 . S
C2350 C2351 1.386 . S
C2350 C2352 1.391 . S
C2351 C2350 1.386 . S
C2351 C2355 1.393 . S
C2352 H2341 0.950 . S
C2352 C2350 1.391 . S
C2352 C2353 1.400 . S
C2353 C2347 1.491 . S
C2353 C2352 1.400 . S
C2353 C2354 1.398 . S
C2354 H2342 0.950 . S
C2354 C2353 1.398 . S
C2354 C2355 1.391 . S
C2355 H2343 0.950 . S
C2355 C2351 1.393 . S
C2355 C2354 1.391 . S
H2356 C2364 0.950 . S
H2357 C2369 0.950 1_556 S
H2358 C2366 0.950 . S
H2359 C2368 0.950 . S
H2360 C2370 0.950 . S
H2361 C2372 0.950 . S
H2362 C2374 0.950 . S
H2363 C2375 0.950 . S
C2364 H2356 0.950 . S
C2364 C2365 1.386 . S
C2364 C2366 1.391 . S
C2365 C2364 1.386 . S
C2365 C2369 1.393 . S
C2366 H2358 0.950 . S
C2366 C2364 1.391 . S
C2366 C2367 1.400 . S
C2367 C2366 1.400 . S
C2367 C2368 1.398 . S
C2367 C2373 1.491 . S
C2368 H2359 0.950 . S
C2368 C2367 1.398 . S
C2368 C2369 1.391 . S
C2369 H2357 0.950 1_554 S
C2369 C2365 1.393 . S
C2369 C2368 1.391 . S
C2370 H2360 0.950 . S
C2370 C2371 1.386 . S
C2370 C2372 1.391 . S
C2371 C2370 1.386 . S
C2371 C2375 1.393 . S
C2372 H2361 0.950 . S
C2372 C2370 1.391 . S
C2372 C2373 1.400 . S
C2373 C2367 1.491 . S
C2373 C2372 1.400 . S
C2373 C2374 1.398 . S
C2374 H2362 0.950 . S
C2374 C2373 1.398 . S
C2374 C2375 1.391 . S
C2375 H2363 0.950 . S
C2375 C2371 1.393 . S
C2375 C2374 1.391 . S
H2376 C2384 0.950 . S
H2377 C2389 0.950 . S
H2378 C2386 0.950 . S
H2379 C2388 0.950 . S
H2380 C2390 0.950 . S
H2381 C2392 0.950 . S
H2382 C2394 0.950 . S
H2383 C2395 0.950 . S
C2384 H2376 0.950 . S
C2384 C2385 1.386 . S
C2384 C2386 1.391 . S
C2385 C2384 1.386 . S
C2385 C2389 1.393 . S
C2386 H2378 0.950 . S
C2386 C2384 1.391 . S
C2386 C2387 1.400 . S
C2387 C2386 1.400 . S
C2387 C2388 1.398 . S
C2387 C2393 1.491 . S
C2388 H2379 0.950 . S
C2388 C2387 1.398 . S
C2388 C2389 1.391 . S
C2389 H2377 0.950 . S
C2389 C2385 1.393 . S
C2389 C2388 1.391 . S
C2390 H2380 0.950 . S
C2390 C2391 1.386 . S
C2390 C2392 1.391 . S
C2391 C2390 1.386 . S
C2391 C2395 1.393 . S
C2392 H2381 0.950 . S
C2392 C2390 1.391 . S
C2392 C2393 1.400 . S
C2393 C2387 1.491 . S
C2393 C2392 1.400 . S
C2393 C2394 1.398 . S
C2394 H2382 0.950 . S
C2394 C2393 1.398 . S
C2394 C2395 1.391 . S
C2395 H2383 0.950 . S
C2395 C2391 1.393 . S
C2395 C2394 1.391 . S
H2396 C2404 0.950 . S
H2397 C2409 0.950 . S
H2398 C2406 0.950 . S
H2399 C2408 0.950 . S
H2400 C2410 0.950 . S
H2401 C2412 0.950 . S
H2402 C2414 0.950 . S
H2403 C2415 0.950 . S
C2404 H2396 0.950 . S
C2404 C2405 1.386 . S
C2404 C2406 1.391 . S
C2405 C2404 1.386 . S
C2405 C2409 1.393 . S
C2406 H2398 0.950 . S
C2406 C2404 1.391 . S
C2406 C2407 1.400 . S
C2407 C2406 1.400 . S
C2407 C2408 1.398 . S
C2407 C2413 1.491 . S
C2408 H2399 0.950 . S
C2408 C2407 1.398 . S
C2408 C2409 1.391 . S
C2409 H2397 0.950 . S
C2409 C2405 1.393 . S
C2409 C2408 1.391 . S
C2410 H2400 0.950 . S
C2410 C2411 1.386 . S
C2410 C2412 1.391 1_565 S
C2411 C2410 1.386 . S
C2411 C2415 1.393 . S
C2412 H2401 0.950 . S
C2412 C2410 1.391 1_545 S
C2412 C2413 1.400 . S
C2413 C2407 1.491 . S
C2413 C2412 1.400 . S
C2413 C2414 1.398 . S
C2414 H2402 0.950 . S
C2414 C2413 1.398 . S
C2414 C2415 1.391 1_545 S
C2415 H2403 0.950 . S
C2415 C2411 1.393 . S
C2415 C2414 1.391 1_565 S
H2416 C2424 0.950 . S
H2417 C2429 0.950 . S
H2418 C2426 0.950 . S
H2419 C2428 0.950 . S
H2420 C2430 0.950 . S
H2421 C2432 0.950 . S
H2422 C2434 0.950 . S
H2423 C2435 0.950 . S
C2424 H2416 0.950 . S
C2424 C2425 1.386 . S
C2424 C2426 1.391 . S
C2425 C2424 1.386 . S
C2425 C2429 1.393 . S
C2426 H2418 0.950 . S
C2426 C2424 1.391 . S
C2426 C2427 1.400 . S
C2427 C2426 1.400 . S
C2427 C2428 1.398 . S
C2427 C2433 1.491 . S
C2428 H2419 0.950 . S
C2428 C2427 1.398 . S
C2428 C2429 1.391 . S
C2429 H2417 0.950 . S
C2429 C2425 1.393 . S
C2429 C2428 1.391 . S
C2430 H2420 0.950 . S
C2430 C2431 1.386 . S
C2430 C2432 1.391 . S
C2431 C2430 1.386 . S
C2431 C2435 1.393 . S
C2432 H2421 0.950 . S
C2432 C2430 1.391 . S
C2432 C2433 1.400 . S
C2433 C2427 1.491 . S
C2433 C2432 1.400 . S
C2433 C2434 1.398 . S
C2434 H2422 0.950 . S
C2434 C2433 1.398 . S
C2434 C2435 1.391 . S
C2435 H2423 0.950 . S
C2435 C2431 1.393 . S
C2435 C2434 1.391 . S
H2436 C2444 0.950 . S
H2437 C2449 0.950 . S
H2438 C2446 0.950 . S
H2439 C2448 0.950 . S
H2440 C2450 0.950 . S
H2441 C2452 0.950 . S
H2442 C2454 0.950 . S
H2443 C2455 0.950 . S
C2444 H2436 0.950 . S
C2444 C2445 1.386 . S
C2444 C2446 1.391 . S
C2445 C2444 1.386 . S
C2445 C2449 1.393 . S
C2446 H2438 0.950 . S
C2446 C2444 1.391 . S
C2446 C2447 1.400 . S
C2447 C2446 1.400 . S
C2447 C2448 1.398 . S
C2447 C2453 1.491 . S
C2448 H2439 0.950 . S
C2448 C2447 1.398 . S
C2448 C2449 1.391 . S
C2449 H2437 0.950 . S
C2449 C2445 1.393 . S
C2449 C2448 1.391 . S
C2450 H2440 0.950 . S
C2450 C2451 1.386 . S
C2450 C2452 1.391 . S
C2451 C2450 1.386 . S
C2451 C2455 1.393 . S
C2452 H2441 0.950 . S
C2452 C2450 1.391 . S
C2452 C2453 1.400 . S
C2453 C2447 1.491 . S
C2453 C2452 1.400 . S
C2453 C2454 1.398 . S
C2454 H2442 0.950 . S
C2454 C2453 1.398 . S
C2454 C2455 1.391 . S
C2455 H2443 0.950 . S
C2455 C2451 1.393 . S
C2455 C2454 1.391 . S
H2456 C2464 0.950 . S
H2457 C2469 0.950 . S
H2458 C2466 0.950 . S
H2459 C2468 0.950 . S
H2460 C2470 0.950 . S
H2461 C2472 0.950 . S
H2462 C2474 0.950 . S
H2463 C2475 0.950 . S
C2464 H2456 0.950 . S
C2464 C2465 1.386 . S
C2464 C2466 1.391 . S
C2465 C2464 1.386 . S
C2465 C2469 1.393 . S
C2466 H2458 0.950 . S
C2466 C2464 1.391 . S
C2466 C2467 1.400 . S
C2467 C2466 1.400 . S
C2467 C2468 1.398 . S
C2467 C2473 1.491 . S
C2468 H2459 0.950 . S
C2468 C2467 1.398 . S
C2468 C2469 1.391 . S
C2469 H2457 0.950 . S
C2469 C2465 1.393 . S
C2469 C2468 1.391 . S
C2470 H2460 0.950 . S
C2470 C2471 1.386 . S
C2470 C2472 1.391 . S
C2471 C2470 1.386 . S
C2471 C2475 1.393 . S
C2472 H2461 0.950 . S
C2472 C2470 1.391 . S
C2472 C2473 1.400 . S
C2473 C2467 1.491 . S
C2473 C2472 1.400 . S
C2473 C2474 1.398 . S
C2474 H2462 0.950 . S
C2474 C2473 1.398 . S
C2474 C2475 1.391 . S
C2475 H2463 0.950 . S
C2475 C2471 1.393 . S
C2475 C2474 1.391 . S
H2476 C2484 0.950 . S
H2477 C2489 0.950 . S
H2478 C2486 0.950 . S
H2479 C2488 0.950 . S
H2480 C2490 0.950 . S
H2481 C2492 0.950 . S
H2482 C2494 0.950 . S
H2483 C2495 0.950 . S
C2484 H2476 0.950 . S
C2484 C2485 1.386 . S
C2484 C2486 1.391 . S
C2485 C2484 1.386 . S
C2485 C2489 1.393 . S
C2486 H2478 0.950 . S
C2486 C2484 1.391 . S
C2486 C2487 1.400 . S
C2487 C2486 1.400 . S
C2487 C2488 1.398 . S
C2487 C2493 1.491 . S
C2488 H2479 0.950 . S
C2488 C2487 1.398 . S
C2488 C2489 1.391 . S
C2489 H2477 0.950 . S
C2489 C2485 1.393 . S
C2489 C2488 1.391 . S
C2490 H2480 0.950 . S
C2490 C2491 1.386 . S
C2490 C2492 1.391 . S
C2491 C2490 1.386 . S
C2491 C2495 1.393 . S
C2492 H2481 0.950 . S
C2492 C2490 1.391 . S
C2492 C2493 1.400 . S
C2493 C2487 1.491 . S
C2493 C2492 1.400 . S
C2493 C2494 1.398 . S
C2494 H2482 0.950 . S
C2494 C2493 1.398 . S
C2494 C2495 1.391 . S
C2495 H2483 0.950 . S
C2495 C2491 1.393 . S
C2495 C2494 1.391 . S
H2496 C2504 0.950 . S
H2497 C2509 0.950 . S
H2498 C2506 0.950 . S
H2499 C2508 0.950 . S
H2500 C2510 0.950 . S
H2501 C2512 0.950 . S
H2502 C2514 0.950 . S
H2503 C2515 0.954 . S
C2504 H2496 0.950 . S
C2504 C2505 1.386 . S
C2504 C2506 1.391 . S
C2505 C2504 1.386 . S
C2505 C2509 1.393 . S
C2506 H2498 0.950 . S
C2506 C2504 1.391 . S
C2506 C2507 1.400 . S
C2507 C2506 1.400 . S
C2507 C2508 1.398 . S
C2507 C2513 1.491 . S
C2508 H2499 0.950 . S
C2508 C2507 1.398 . S
C2508 C2509 1.391 . S
C2509 H2497 0.950 . S
C2509 C2505 1.393 . S
C2509 C2508 1.391 . S
C2510 H2500 0.950 . S
C2510 C2511 1.386 . S
C2510 C2512 1.391 . S
C2511 C2510 1.386 . S
C2511 C2515 1.391 1_556 S
C2512 H2501 0.950 . S
C2512 C2510 1.391 . S
C2512 C2513 1.400 . S
C2513 C2507 1.491 . S
C2513 C2512 1.400 . S
C2513 C2514 1.398 . S
C2514 H2502 0.950 . S
C2514 C2513 1.398 . S
C2514 C2515 1.388 1_556 S
C2515 H2503 0.954 . S
C2515 C2511 1.391 1_554 S
C2515 C2514 1.388 1_554 S
H2516 C2524 0.950 . S
H2517 C2529 0.950 . S
H2518 C2526 0.950 . S
H2519 C2528 0.950 . S
H2520 C2530 0.950 . S
H2521 C2532 0.950 . S
H2522 C2534 0.950 . S
H2523 C2535 0.950 . S
C2524 H2516 0.950 . S
C2524 C2525 1.386 . S
C2524 C2526 1.391 . S
C2525 C2524 1.386 . S
C2525 C2529 1.393 . S
C2526 H2518 0.950 . S
C2526 C2524 1.391 . S
C2526 C2527 1.400 . S
C2527 C2526 1.400 . S
C2527 C2528 1.398 . S
C2527 C2533 1.491 . S
C2528 H2519 0.950 . S
C2528 C2527 1.398 . S
C2528 C2529 1.391 . S
C2529 H2517 0.950 . S
C2529 C2525 1.393 . S
C2529 C2528 1.391 . S
C2530 H2520 0.950 . S
C2530 C2531 1.386 . S
C2530 C2532 1.391 . S
C2531 C2530 1.386 . S
C2531 C2535 1.393 . S
C2532 H2521 0.950 . S
C2532 C2530 1.391 . S
C2532 C2533 1.400 . S
C2533 C2527 1.491 . S
C2533 C2532 1.400 . S
C2533 C2534 1.398 . S
C2534 H2522 0.950 . S
C2534 C2533 1.398 . S
C2534 C2535 1.391 . S
C2535 H2523 0.950 . S
C2535 C2531 1.393 . S
C2535 C2534 1.391 . S
H2536 C2544 0.950 . S
H2537 C2549 0.950 . S
H2538 C2546 0.950 . S
H2539 C2548 0.950 . S
H2540 C2550 0.950 . S
H2541 C2552 0.950 . S
H2542 C2554 0.950 . S
H2543 C2555 0.950 . S
C2544 H2536 0.950 . S
C2544 C2545 1.386 . S
C2544 C2546 1.391 . S
C2545 C2544 1.386 . S
C2545 C2549 1.393 . S
C2546 H2538 0.950 . S
C2546 C2544 1.391 . S
C2546 C2547 1.400 . S
C2547 C2546 1.400 . S
C2547 C2548 1.398 . S
C2547 C2553 1.491 . S
C2548 H2539 0.950 . S
C2548 C2547 1.398 . S
C2548 C2549 1.391 . S
C2549 H2537 0.950 . S
C2549 C2545 1.393 . S
C2549 C2548 1.391 . S
C2550 H2540 0.950 . S
C2550 C2551 1.386 . S
C2550 C2552 1.391 . S
C2551 C2550 1.386 . S
C2551 C2555 1.393 . S
C2552 H2541 0.950 . S
C2552 C2550 1.391 . S
C2552 C2553 1.400 . S
C2553 C2547 1.491 . S
C2553 C2552 1.400 . S
C2553 C2554 1.398 . S
C2554 H2542 0.950 . S
C2554 C2553 1.398 . S
C2554 C2555 1.391 . S
C2555 H2543 0.950 . S
C2555 C2551 1.393 . S
C2555 C2554 1.391 . S
H2556 C2564 0.950 . S
H2557 C2569 0.950 . S
H2558 C2566 0.950 . S
H2559 C2568 0.950 . S
H2560 C2570 0.950 . S
H2561 C2572 0.950 . S
H2562 C2574 0.950 . S
H2563 C2575 0.950 . S
C2564 H2556 0.950 . S
C2564 C2565 1.386 . S
C2564 C2566 1.391 . S
C2565 C2564 1.386 . S
C2565 C2569 1.393 . S
C2566 H2558 0.950 . S
C2566 C2564 1.391 . S
C2566 C2567 1.400 . S
C2567 C2566 1.400 . S
C2567 C2568 1.398 . S
C2567 C2573 1.491 . S
C2568 H2559 0.950 . S
C2568 C2567 1.398 . S
C2568 C2569 1.391 . S
C2569 H2557 0.950 . S
C2569 C2565 1.393 . S
C2569 C2568 1.391 . S
C2570 H2560 0.950 . S
C2570 C2571 1.386 . S
C2570 C2572 1.391 . S
C2571 C2570 1.386 . S
C2571 C2575 1.393 . S
C2572 H2561 0.950 . S
C2572 C2570 1.391 . S
C2572 C2573 1.400 . S
C2573 C2567 1.491 . S
C2573 C2572 1.400 . S
C2573 C2574 1.398 . S
C2574 H2562 0.950 . S
C2574 C2573 1.398 . S
C2574 C2575 1.391 . S
C2575 H2563 0.950 . S
C2575 C2571 1.393 . S
C2575 C2574 1.391 . S
H2576 C2584 0.950 . S
H2577 C2589 0.950 . S
H2578 C2586 0.950 . S
H2579 C2588 0.950 . S
H2580 C2590 0.950 . S
H2581 C2592 0.950 . S
H2582 C2594 0.950 . S
H2583 C2595 0.950 . S
C2584 H2576 0.950 . S
C2584 C2585 1.386 . S
C2584 C2586 1.391 . S
C2585 C2584 1.386 . S
C2585 C2589 1.393 . S
C2586 H2578 0.950 . S
C2586 C2584 1.391 . S
C2586 C2587 1.400 . S
C2587 C2586 1.400 . S
C2587 C2588 1.398 . S
C2587 C2593 1.491 . S
C2588 H2579 0.950 . S
C2588 C2587 1.398 . S
C2588 C2589 1.391 . S
C2589 H2577 0.950 . S
C2589 C2585 1.393 . S
C2589 C2588 1.391 . S
C2590 H2580 0.950 . S
C2590 C2591 1.386 . S
C2590 C2592 1.391 . S
C2591 C2590 1.386 . S
C2591 C2595 1.393 . S
C2592 H2581 0.950 . S
C2592 C2590 1.391 . S
C2592 C2593 1.400 . S
C2593 C2587 1.491 . S
C2593 C2592 1.400 . S
C2593 C2594 1.398 . S
C2594 H2582 0.950 . S
C2594 C2593 1.398 . S
C2594 C2595 1.391 . S
C2595 H2583 0.950 . S
C2595 C2591 1.393 . S
C2595 C2594 1.391 . S
H2596 C2604 0.950 . S
H2597 C2609 0.950 . S
H2598 C2606 0.950 . S
H2599 C2608 0.950 . S
H2600 C2610 0.950 . S
H2601 C2612 0.950 . S
H2602 C2614 0.950 . S
H2603 C2615 0.950 . S
C2604 H2596 0.950 . S
C2604 C2605 1.386 . S
C2604 C2606 1.391 . S
C2605 C2604 1.386 . S
C2605 C2609 1.393 . S
C2606 H2598 0.950 . S
C2606 C2604 1.391 . S
C2606 C2607 1.400 . S
C2607 C2606 1.400 . S
C2607 C2608 1.398 . S
C2607 C2613 1.491 . S
C2608 H2599 0.950 . S
C2608 C2607 1.398 . S
C2608 C2609 1.391 . S
C2609 H2597 0.950 . S
C2609 C2605 1.393 . S
C2609 C2608 1.391 . S
C2610 H2600 0.950 . S
C2610 C2611 1.386 . S
C2610 C2612 1.391 . S
C2611 C2610 1.386 . S
C2611 C2615 1.393 . S
C2612 H2601 0.950 . S
C2612 C2610 1.391 . S
C2612 C2613 1.400 . S
C2613 C2607 1.491 . S
C2613 C2612 1.400 . S
C2613 C2614 1.398 . S
C2614 H2602 0.950 . S
C2614 C2613 1.398 . S
C2614 C2615 1.391 . S
C2615 H2603 0.950 . S
C2615 C2611 1.393 . S
C2615 C2614 1.391 . S
H2616 C2624 0.950 . S
H2617 C2629 0.950 . S
H2618 C2626 0.950 . S
H2619 C2628 0.950 . S
H2620 C2630 0.950 . S
H2621 C2632 0.950 . S
H2622 C2634 0.960 . S
H2623 C2635 0.950 . S
C2624 H2616 0.950 . S
C2624 C2625 1.386 . S
C2624 C2626 1.391 . S
C2625 C2624 1.386 . S
C2625 C2629 1.393 . S
C2626 H2618 0.950 . S
C2626 C2624 1.391 . S
C2626 C2627 1.400 1_655 S
C2627 C2626 1.400 1_455 S
C2627 C2628 1.398 . S
C2627 C2633 1.491 . S
C2628 H2619 0.950 . S
C2628 C2627 1.398 . S
C2628 C2629 1.391 1_455 S
C2629 H2617 0.950 . S
C2629 C2625 1.393 . S
C2629 C2628 1.391 1_655 S
C2630 H2620 0.950 . S
C2630 C2631 1.386 . S
C2630 C2632 1.391 . S
C2631 C2630 1.386 . S
C2631 C2635 1.393 . S
C2632 H2621 0.950 . S
C2632 C2630 1.391 . S
C2632 C2633 1.400 . S
C2633 C2627 1.491 . S
C2633 C2632 1.400 . S
C2633 C2634 1.398 . S
C2634 H2622 0.960 . S
C2634 C2633 1.398 . S
C2634 C2635 1.391 . S
C2635 H2623 0.950 . S
C2635 C2631 1.393 . S
C2635 C2634 1.391 . S
H2636 C2644 0.950 . S
H2637 C2649 0.950 . S
H2638 C2646 0.950 . S
H2639 C2648 0.950 . S
H2640 C2650 0.950 . S
H2641 C2652 0.950 . S
H2642 C2654 0.950 . S
H2643 C2655 0.950 . S
C2644 H2636 0.950 . S
C2644 C2645 1.386 . S
C2644 C2646 1.391 . S
C2645 C2644 1.386 . S
C2645 C2649 1.393 . S
C2646 H2638 0.950 . S
C2646 C2644 1.391 . S
C2646 C2647 1.400 . S
C2647 C2646 1.400 . S
C2647 C2648 1.398 . S
C2647 C2653 1.491 . S
C2648 H2639 0.950 . S
C2648 C2647 1.398 . S
C2648 C2649 1.391 . S
C2649 H2637 0.950 . S
C2649 C2645 1.393 . S
C2649 C2648 1.391 . S
C2650 H2640 0.950 . S
C2650 C2651 1.386 . S
C2650 C2652 1.391 . S
C2651 C2650 1.386 . S
C2651 C2655 1.393 . S
C2652 H2641 0.950 . S
C2652 C2650 1.391 . S
C2652 C2653 1.400 . S
C2653 C2647 1.491 . S
C2653 C2652 1.400 . S
C2653 C2654 1.398 . S
C2654 H2642 0.950 . S
C2654 C2653 1.398 . S
C2654 C2655 1.391 . S
C2655 H2643 0.950 . S
C2655 C2651 1.393 . S
C2655 C2654 1.391 . S
H2656 C2664 0.950 . S
H2657 C2669 0.950 . S
H2658 C2666 0.950 . S
H2659 C2668 0.950 . S
H2660 C2670 0.950 . S
H2661 C2672 0.950 . S
H2662 C2674 0.950 . S
H2663 C2675 0.950 . S
C2664 H2656 0.950 . S
C2664 C2665 1.386 . S
C2664 C2666 1.391 . S
C2665 C2664 1.386 . S
C2665 C2669 1.393 . S
C2666 H2658 0.950 . S
C2666 C2664 1.391 . S
C2666 C2667 1.400 . S
C2667 C2666 1.400 . S
C2667 C2668 1.398 . S
C2667 C2673 1.491 . S
C2668 H2659 0.950 . S
C2668 C2667 1.398 . S
C2668 C2669 1.391 . S
C2669 H2657 0.950 . S
C2669 C2665 1.393 . S
C2669 C2668 1.391 . S
C2670 H2660 0.950 . S
C2670 C2671 1.386 . S
C2670 C2672 1.391 . S
C2671 C2670 1.386 . S
C2671 C2675 1.393 . S
C2672 H2661 0.950 . S
C2672 C2670 1.391 . S
C2672 C2673 1.400 . S
C2673 C2667 1.491 . S
C2673 C2672 1.400 . S
C2673 C2674 1.398 . S
C2674 H2662 0.950 . S
C2674 C2673 1.398 . S
C2674 C2675 1.391 . S
C2675 H2663 0.950 . S
C2675 C2671 1.393 . S
C2675 C2674 1.391 . S
H2676 C2684 0.950 . S
H2677 C2689 0.950 . S
H2678 C2686 0.950 . S
H2679 C2688 0.950 . S
H2680 C2690 0.950 . S
H2681 C2692 0.950 . S
H2682 C2694 0.950 . S
H2683 C2695 0.950 . S
C2684 H2676 0.950 . S
C2684 C2685 1.386 . S
C2684 C2686 1.391 . S
C2685 C2684 1.386 . S
C2685 C2689 1.393 . S
C2686 H2678 0.950 . S
C2686 C2684 1.391 . S
C2686 C2687 1.400 . S
C2687 C2686 1.400 . S
C2687 C2688 1.398 . S
C2687 C2693 1.491 . S
C2688 H2679 0.950 . S
C2688 C2687 1.398 . S
C2688 C2689 1.391 . S
C2689 H2677 0.950 . S
C2689 C2685 1.393 . S
C2689 C2688 1.391 . S
C2690 H2680 0.950 . S
C2690 C2691 1.386 . S
C2690 C2692 1.391 . S
C2691 C2690 1.386 . S
C2691 C2695 1.393 . S
C2692 H2681 0.950 . S
C2692 C2690 1.391 . S
C2692 C2693 1.400 . S
C2693 C2687 1.491 . S
C2693 C2692 1.400 . S
C2693 C2694 1.398 . S
C2694 H2682 0.950 . S
C2694 C2693 1.398 . S
C2694 C2695 1.391 . S
C2695 H2683 0.950 . S
C2695 C2691 1.393 . S
C2695 C2694 1.391 . S
H2696 C2704 0.950 . S
H2697 C2709 0.950 . S
H2698 C2706 0.950 . S
H2699 C2708 0.950 1_455 S
H2700 C2710 0.950 . S
H2701 C2712 0.950 . S
H2702 C2714 0.950 . S
H2703 C2715 0.950 . S
C2704 H2696 0.950 . S
C2704 C2705 1.386 . S
C2704 C2706 1.391 . S
C2705 C2704 1.386 . S
C2705 C2709 1.393 . S
C2706 H2698 0.950 . S
C2706 C2704 1.391 . S
C2706 C2707 1.400 . S
C2707 C2706 1.400 . S
C2707 C2708 1.398 . S
C2707 C2713 1.491 . S
C2708 H2699 0.950 1_655 S
C2708 C2707 1.398 . S
C2708 C2709 1.391 . S
C2709 H2697 0.950 . S
C2709 C2705 1.393 . S
C2709 C2708 1.391 . S
C2710 H2700 0.950 . S
C2710 C2711 1.386 1_455 S
C2710 C2712 1.391 . S
C2711 C2710 1.386 1_655 S
C2711 C2715 1.393 . S
C2712 H2701 0.950 . S
C2712 C2710 1.391 . S
C2712 C2713 1.400 1_455 S
C2713 C2707 1.491 . S
C2713 C2712 1.400 1_655 S
C2713 C2714 1.398 . S
C2714 H2702 0.950 . S
C2714 C2713 1.398 . S
C2714 C2715 1.391 . S
C2715 H2703 0.950 . S
C2715 C2711 1.393 . S
C2715 C2714 1.391 . S
H2716 C2724 0.950 . S
H2717 C2729 0.950 . S
H2718 C2726 0.950 . S
H2719 C2728 0.950 . S
H2720 C2730 0.950 . S
H2721 C2732 0.950 . S
H2722 C2734 0.950 . S
H2723 C2735 0.950 . S
C2724 H2716 0.950 . S
C2724 C2725 1.386 . S
C2724 C2726 1.391 . S
C2725 C2724 1.386 . S
C2725 C2729 1.393 . S
C2726 H2718 0.950 . S
C2726 C2724 1.391 . S
C2726 C2727 1.400 . S
C2727 C2726 1.400 . S
C2727 C2728 1.398 . S
C2727 C2733 1.491 . S
C2728 H2719 0.950 . S
C2728 C2727 1.398 . S
C2728 C2729 1.391 . S
C2729 H2717 0.950 . S
C2729 C2725 1.393 . S
C2729 C2728 1.391 . S
C2730 H2720 0.950 . S
C2730 C2731 1.386 . S
C2730 C2732 1.391 . S
C2731 C2730 1.386 . S
C2731 C2735 1.393 . S
C2732 H2721 0.950 . S
C2732 C2730 1.391 . S
C2732 C2733 1.400 . S
C2733 C2727 1.491 . S
C2733 C2732 1.400 . S
C2733 C2734 1.398 . S
C2734 H2722 0.950 . S
C2734 C2733 1.398 . S
C2734 C2735 1.391 . S
C2735 H2723 0.950 . S
C2735 C2731 1.393 . S
C2735 C2734 1.391 . S
H2736 C2744 0.950 . S
H2737 C2749 0.950 . S
H2738 C2746 0.950 . S
H2739 C2748 0.950 . S
H2740 C2750 0.950 . S
H2741 C2752 0.950 . S
H2742 C2754 0.950 . S
H2743 C2755 0.950 . S
C2744 H2736 0.950 . S
C2744 C2745 1.386 . S
C2744 C2746 1.391 . S
C2745 C2744 1.386 . S
C2745 C2749 1.393 . S
C2746 H2738 0.950 . S
C2746 C2744 1.391 . S
C2746 C2747 1.400 . S
C2747 C2746 1.400 . S
C2747 C2748 1.398 . S
C2747 C2753 1.491 . S
C2748 H2739 0.950 . S
C2748 C2747 1.398 . S
C2748 C2749 1.391 . S
C2749 H2737 0.950 . S
C2749 C2745 1.393 . S
C2749 C2748 1.391 . S
C2750 H2740 0.950 . S
C2750 C2751 1.386 . S
C2750 C2752 1.391 . S
C2751 C2750 1.386 . S
C2751 C2755 1.393 . S
C2752 H2741 0.950 . S
C2752 C2750 1.391 . S
C2752 C2753 1.400 . S
C2753 C2747 1.491 . S
C2753 C2752 1.400 . S
C2753 C2754 1.398 . S
C2754 H2742 0.950 . S
C2754 C2753 1.398 . S
C2754 C2755 1.391 . S
C2755 H2743 0.950 . S
C2755 C2751 1.393 . S
C2755 C2754 1.391 . S
H2756 C2764 0.950 . S
H2757 C2769 0.950 . S
H2758 C2766 0.925 1_545 S
H2759 C2768 0.950 . S
H2760 C2770 0.950 . S
H2761 C2772 0.950 1_565 S
H2762 C2774 0.950 . S
H2763 C2775 0.950 . S
C2764 H2756 0.950 . S
C2764 C2765 1.386 . S
C2764 C2766 1.408 . S
C2765 C2764 1.386 . S
C2765 C2769 1.393 . S
C2766 H2758 0.925 1_565 S
C2766 C2764 1.408 . S
C2766 C2767 1.409 . S
C2767 C2766 1.409 . S
C2767 C2768 1.398 . S
C2767 C2773 1.491 1_565 S
C2768 H2759 0.950 . S
C2768 C2767 1.398 . S
C2768 C2769 1.391 . S
C2769 H2757 0.950 . S
C2769 C2765 1.393 . S
C2769 C2768 1.391 . S
C2770 H2760 0.950 . S
C2770 C2771 1.386 . S
C2770 C2772 1.391 . S
C2771 C2770 1.386 . S
C2771 C2775 1.393 . S
C2772 H2761 0.950 1_545 S
C2772 C2770 1.391 . S
C2772 C2773 1.400 . S
C2773 C2767 1.491 1_545 S
C2773 C2772 1.400 . S
C2773 C2774 1.398 . S
C2774 H2762 0.950 . S
C2774 C2773 1.398 . S
C2774 C2775 1.391 . S
C2775 H2763 0.950 . S
C2775 C2771 1.393 . S
C2775 C2774 1.391 . S
H2776 C2784 0.950 . S
H2777 C2789 0.950 . S
H2778 C2786 0.950 . S
H2779 C2788 0.950 . S
H2780 C2790 0.950 . S
H2781 C2792 0.950 . S
H2782 C2794 0.950 . S
H2783 C2795 0.950 . S
C2784 H2776 0.950 . S
C2784 C2785 1.386 . S
C2784 C2786 1.391 . S
C2785 C2784 1.386 . S
C2785 C2789 1.393 . S
C2786 H2778 0.950 . S
C2786 C2784 1.391 . S
C2786 C2787 1.400 . S
C2787 C2786 1.400 . S
C2787 C2788 1.398 . S
C2787 C2793 1.491 . S
C2788 H2779 0.950 . S
C2788 C2787 1.398 . S
C2788 C2789 1.391 . S
C2789 H2777 0.950 . S
C2789 C2785 1.393 . S
C2789 C2788 1.391 . S
C2790 H2780 0.950 . S
C2790 C2791 1.386 . S
C2790 C2792 1.391 . S
C2791 C2790 1.386 . S
C2791 C2795 1.393 . S
C2792 H2781 0.950 . S
C2792 C2790 1.391 . S
C2792 C2793 1.400 . S
C2793 C2787 1.491 . S
C2793 C2792 1.400 . S
C2793 C2794 1.398 . S
C2794 H2782 0.950 . S
C2794 C2793 1.398 . S
C2794 C2795 1.391 . S
C2795 H2783 0.950 . S
C2795 C2791 1.393 . S
C2795 C2794 1.391 . S
H2796 C2804 0.950 . S
H2797 C2809 0.950 . S
H2798 C2806 0.950 . S
H2799 C2808 0.950 . S
H2800 C2810 0.938 1_556 S
H2801 C2812 0.950 . S
H2802 C2814 0.950 . S
H2803 C2815 0.950 . S
C2804 H2796 0.950 . S
C2804 C2805 1.386 1_554 S
C2804 C2806 1.391 . S
C2805 C2804 1.386 1_556 S
C2805 C2809 1.393 . S
C2806 H2798 0.950 . S
C2806 C2804 1.391 . S
C2806 C2807 1.400 . S
C2807 C2806 1.400 . S
C2807 C2808 1.398 1_554 S
C2807 C2813 1.491 . S
C2808 H2799 0.950 . S
C2808 C2807 1.398 1_556 S
C2808 C2809 1.391 . S
C2809 H2797 0.950 . S
C2809 C2805 1.393 . S
C2809 C2808 1.391 . S
C2810 H2800 0.938 1_554 S
C2810 C2811 1.409 . S
C2810 C2812 1.380 1_554 S
C2811 C2810 1.409 . S
C2811 C2815 1.393 . S
C2812 H2801 0.950 . S
C2812 C2810 1.380 1_556 S
C2812 C2813 1.400 1_556 S
C2813 C2807 1.491 . S
C2813 C2812 1.400 1_554 S
C2813 C2814 1.398 . S
C2814 H2802 0.950 . S
C2814 C2813 1.398 . S
C2814 C2815 1.391 . S
C2815 H2803 0.950 . S
C2815 C2811 1.393 . S
C2815 C2814 1.391 . S
H2816 C2824 0.950 . S
H2817 C2829 0.950 . S
H2818 C2826 0.950 . S
H2819 C2828 0.950 . S
H2820 C2830 0.950 . S
H2821 C2832 0.950 . S
H2822 C2834 0.950 . S
H2823 C2835 0.950 . S
C2824 H2816 0.950 . S
C2824 C2825 1.386 . S
C2824 C2826 1.391 . S
C2825 C2824 1.386 . S
C2825 C2829 1.393 . S
C2826 H2818 0.950 . S
C2826 C2824 1.391 . S
C2826 C2827 1.400 . S
C2827 C2826 1.400 . S
C2827 C2828 1.398 . S
C2827 C2833 1.491 . S
C2828 H2819 0.950 . S
C2828 C2827 1.398 . S
C2828 C2829 1.391 . S
C2829 H2817 0.950 . S
C2829 C2825 1.393 . S
C2829 C2828 1.391 . S
C2830 H2820 0.950 . S
C2830 C2831 1.386 . S
C2830 C2832 1.391 . S
C2831 C2830 1.386 . S
C2831 C2835 1.393 . S
C2832 H2821 0.950 . S
C2832 C2830 1.391 . S
C2832 C2833 1.400 . S
C2833 C2827 1.491 . S
C2833 C2832 1.400 . S
C2833 C2834 1.398 . S
C2834 H2822 0.950 . S
C2834 C2833 1.398 . S
C2834 C2835 1.391 . S
C2835 H2823 0.950 . S
C2835 C2831 1.393 . S
C2835 C2834 1.391 . S
H2836 C2844 0.950 . S
H2837 C2849 0.950 . S
H2838 C2846 0.950 1_556 S
H2839 C2848 0.950 . S
H2840 C2850 0.950 . S
H2841 C2852 0.950 . S
H2842 C2854 0.950 . S
H2843 C2855 0.950 . S
C2844 H2836 0.950 . S
C2844 C2845 1.386 . S
C2844 C2846 1.391 . S
C2845 C2844 1.386 . S
C2845 C2849 1.393 . S
C2846 H2838 0.950 1_554 S
C2846 C2844 1.391 . S
C2846 C2847 1.400 . S
C2847 C2846 1.400 . S
C2847 C2848 1.398 . S
C2847 C2853 1.491 . S
C2848 H2839 0.950 . S
C2848 C2847 1.398 . S
C2848 C2849 1.391 . S
C2849 H2837 0.950 . S
C2849 C2845 1.393 . S
C2849 C2848 1.391 . S
C2850 H2840 0.950 . S
C2850 C2851 1.386 1_554 S
C2850 C2852 1.391 . S
C2851 C2850 1.386 1_556 S
C2851 C2855 1.393 . S
C2852 H2841 0.950 . S
C2852 C2850 1.391 . S
C2852 C2853 1.400 . S
C2853 C2847 1.491 . S
C2853 C2852 1.400 . S
C2853 C2854 1.398 1_554 S
C2854 H2842 0.950 . S
C2854 C2853 1.398 1_556 S
C2854 C2855 1.391 . S
C2855 H2843 0.950 . S
C2855 C2851 1.393 . S
C2855 C2854 1.391 . S
H2856 C2864 0.950 . S
H2857 C2869 0.950 . S
H2858 C2866 0.950 . S
H2859 C2868 0.950 . S
H2860 C2870 0.950 . S
H2861 C2872 0.950 . S
H2862 C2874 0.950 . S
H2863 C2875 0.950 . S
C2864 H2856 0.950 . S
C2864 C2865 1.386 . S
C2864 C2866 1.391 . S
C2865 C2864 1.386 . S
C2865 C2869 1.393 . S
C2866 H2858 0.950 . S
C2866 C2864 1.391 . S
C2866 C2867 1.400 . S
C2867 C2866 1.400 . S
C2867 C2868 1.398 . S
C2867 C2873 1.491 . S
C2868 H2859 0.950 . S
C2868 C2867 1.398 . S
C2868 C2869 1.391 . S
C2869 H2857 0.950 . S
C2869 C2865 1.393 . S
C2869 C2868 1.391 . S
C2870 H2860 0.950 . S
C2870 C2871 1.386 . S
C2870 C2872 1.391 . S
C2871 C2870 1.386 . S
C2871 C2875 1.393 . S
C2872 H2861 0.950 . S
C2872 C2870 1.391 . S
C2872 C2873 1.400 . S
C2873 C2867 1.491 . S
C2873 C2872 1.400 . S
C2873 C2874 1.398 . S
C2874 H2862 0.950 . S
C2874 C2873 1.398 . S
C2874 C2875 1.391 . S
C2875 H2863 0.950 . S
C2875 C2871 1.393 . S
C2875 C2874 1.391 . S
H2876 C2884 0.950 . S
H2877 C2889 0.950 . S
H2878 C2886 0.950 . S
H2879 C2888 0.950 . S
H2880 C2890 0.950 . S
H2881 C2892 0.950 . S
H2882 C2894 0.950 . S
H2883 C2895 0.950 . S
C2884 H2876 0.950 . S
C2884 C2885 1.386 . S
C2884 C2886 1.391 . S
C2885 C2884 1.386 . S
C2885 C2889 1.393 . S
C2886 H2878 0.950 . S
C2886 C2884 1.391 . S
C2886 C2887 1.400 . S
C2887 C2886 1.400 . S
C2887 C2888 1.398 . S
C2887 C2893 1.491 . S
C2888 H2879 0.950 . S
C2888 C2887 1.398 . S
C2888 C2889 1.391 . S
C2889 H2877 0.950 . S
C2889 C2885 1.393 . S
C2889 C2888 1.391 . S
C2890 H2880 0.950 . S
C2890 C2891 1.386 . S
C2890 C2892 1.391 . S
C2891 C2890 1.386 . S
C2891 C2895 1.393 . S
C2892 H2881 0.950 . S
C2892 C2890 1.391 . S
C2892 C2893 1.400 . S
C2893 C2887 1.491 . S
C2893 C2892 1.400 . S
C2893 C2894 1.398 . S
C2894 H2882 0.950 . S
C2894 C2893 1.398 . S
C2894 C2895 1.391 . S
C2895 H2883 0.950 . S
C2895 C2891 1.393 . S
C2895 C2894 1.391 . S
C985 C109 2.115 . S
C991 C346 2.047 . S
C1005 C65 1.802 . S
C1011 C385 1.754 . S
C1025 C75 1.427 . S
C1031 C426 1.405 . S
C1051 C471 1.437 . S
C1045 C84 1.458 . S
C1065 C25 2.052 . S
C1071 C515 2.017 . S
C1091 C546 1.326 . S
C1085 C28 1.349 . S
C1111 C594 2.006 . S
C1105 C47 2.015 . S
C1125 C9 1.773 . S
C1131 C622 1.716 . S
C1151 C354 1.589 . S
C1145 C233 1.577 . S
C1165 C249 1.418 . S
C1171 C395 1.383 . S
C1191 C434 1.474 . S
C1185 C275 1.481 . S
C1211 C466 1.454 . S
C1205 C173 1.474 . S
C1225 C224 0.209 . S
C1231 C502 0.246 . S
C1251 C554 2.215 . S
C1245 C243 2.235 . S
C1271 C591 0.989 . S
C1265 C266 0.980 . S
C1291 C625 1.893 . S
C1285 C179 1.895 . S
C1311 C351 1.889 . S
C1305 C163 1.944 . S
C1325 C289 1.971 . S
C1331 C665 1.928 . S
C1351 C711 1.202 . S
C1345 C333 1.205 . S
C1371 C746 1.442 1_655 S
C1365 C308 1.482 . S
C1385 C123 1.936 . S
C1391 C635 1.907 . S
C1405 C126 1.404 . S
C1411 C431 1.391 . S
C1425 C327 1.304 . S
C1431 C794 1.344 . S
C1451 C822 0.476 . S
C1445 C299 0.471 . S
C1471 C355 2.073 1_565 S
C1465 C67 2.139 . S
C1491 C834 1.779 . S
C1485 C98 1.791 . S
C1505 C89 1.458 . S
C1511 C435 1.439 . S
C1525 C79 1.504 . S
C1531 C782 1.471 . S
C1551 C506 2.069 . S
C1545 C11 2.095 . S
C1565 C51 1.394 . S
C1571 C715 1.357 . S
C1591 C585 2.046 1_565 S
C1585 C33 2.051 . S
C1611 C871 1.680 . S
C1605 C14 1.725 . S
C1631 C345 1.549 . S
C1625 C140 1.529 . S
C1651 C826 1.413 . S
C1645 C319 1.450 . S
C1665 C112 1.444 . S
C1671 C425 1.499 . S
C1685 C285 1.502 . S
C1691 C795 1.492 . S
C1705 C149 0.256 . S
C1711 C511 0.245 . S
C1731 C705 2.264 . S
C1725 C313 2.279 . S
C1745 C121 1.042 . S
C1751 C582 1.018 . S
C1765 C291 1.919 . S
C1771 C874 1.917 . S
C1785 C182 1.926 1_556 S
C1791 C342 1.860 . S
C1805 C168 1.967 . S
C1811 C674 1.949 . S
C1825 C263 1.233 . S
C1831 C542 1.219 . S
C1845 C247 1.569 . S
C1851 C755 1.497 . S
C1871 C866 1.894 . S
C1865 C277 1.937 . S
C1885 C219 1.461 . S
C1891 C422 1.435 . S
C1911 C465 1.398 . S
C1905 C257 1.360 . S
C1931 C391 0.476 . S
C1925 C201 0.473 . S
C1945 C81 2.107 . S
C1951 C906 2.052 . S
C1971 C825 1.743 . S
C1965 C93 1.799 . S
C1985 C103 1.427 . S
C1991 C946 1.402 . S
C2005 C56 1.450 . S
C2011 C791 1.428 . S
C2025 C53 2.049 . S
C2031 C675 2.017 . S
C2051 C706 1.348 . S
C2045 C0 1.356 . S
C2071 C754 2.004 . S
C2065 C19 2.014 . S
C2091 C862 1.698 . S
C2085 C37 1.762 . S
C2111 C914 1.591 . S
C2105 C261 1.580 . S
C2125 C193 1.412 . S
C2131 C835 1.385 . S
C2151 C954 1.470 . S
C2145 C205 1.460 . S
C2171 C786 1.458 . S
C2165 C215 1.471 . S
C2191 C662 0.225 . S
C2185 C252 0.220 . S
C2205 C187 2.234 . S
C2211 C714 2.210 . S
C2231 C751 0.982 . S
C2225 C196 0.976 . S
C2245 C221 1.897 . S
C2251 C865 1.887 . S
C2271 C911 1.895 . S
C2265 C317 1.947 . S
C2285 C135 1.970 . S
C2291 C505 1.915 . S
C2311 C551 1.238 . S
C2305 C151 1.238 . S
C2331 C586 1.468 . S
C2325 C154 1.479 . S
C2351 C875 1.924 . S
C2345 C305 1.948 . S
C2365 C280 1.408 . S
C2371 C951 1.401 . S
C2391 C474 1.359 . S
C2385 C145 1.325 . S
C2411 C382 0.508 . S
C2405 C117 0.494 . S
C2425 C95 2.134 . S
C2431 C915 2.062 . S
C2451 C394 1.771 . S
C2445 C70 1.788 . S
C2465 C61 1.459 . S
C2471 C955 1.438 . S
C2485 C107 1.504 . S
C2491 C462 1.478 . S
C2505 C39 2.095 . S
C2511 C666 2.070 1_556 S
C2531 C555 1.333 . S
C2525 C23 1.394 . S
C2545 C5 2.052 . S
C2551 C745 2.047 . S
C2565 C42 1.727 . S
C2571 C631 1.683 . S
C2591 C905 1.558 . S
C2585 C322 1.523 . S
C2605 C165 1.453 . S
C2611 C386 1.395 . S
C2631 C945 1.510 . S
C2625 C294 1.436 . S
C2645 C131 1.505 . S
C2651 C475 1.490 . S
C2665 C331 0.255 . S
C2671 C671 0.244 . S
C2691 C545 2.260 . S
C2685 C159 2.279 1_556 S
C2705 C303 1.055 . S
C2711 C742 1.033 1_655 S
C2731 C634 1.915 . S
C2725 C137 1.918 . S
C2751 C902 1.870 . S
C2745 C238 1.934 . S
C2771 C514 1.948 1_655 S
C2765 C210 1.973 . S
C2785 C235 1.231 . S
C2791 C702 1.209 . S
C2811 C595 1.516 . S
C2805 C191 1.561 . S
C2825 C207 1.941 . S
C2831 C626 1.896 . S
C2845 C177 1.460 . S
C2851 C942 1.433 . S
C2871 C785 1.402 . S
C2865 C229 1.383 . S
C2891 C831 0.514 . S
C2885 C271 0.496 . S
