# Generated by pormake.
# Topology iac, (4,6)-cn, num edge types: 1
# Building blocks:
#     Node 0, Type 0, BuildingBlock: AZAVOO_clean_sbu_0, # of connection points: 4
#     Node 1, Type 0, BuildingBlock: AZAVOO_clean_sbu_0, # of connection points: 4
#     Node 2, Type 0, BuildingBlock: AZAVOO_clean_sbu_0, # of connection points: 4
#     Node 3, Type 0, BuildingBlock: AZAVOO_clean_sbu_0, # of connection points: 4
#     Node 4, Type 0, BuildingBlock: AZAVOO_clean_sbu_0, # of connection points: 4
#     Node 5, Type 0, BuildingBlock: AZAVOO_clean_sbu_0, # of connection points: 4
#     Node 6, Type 0, BuildingBlock: AZAVOO_clean_sbu_0, # of connection points: 4
#     Node 7, Type 0, BuildingBlock: AZAVOO_clean_sbu_0, # of connection points: 4
#     Node 8, Type 0, BuildingBlock: AZAVOO_clean_sbu_0, # of connection points: 4
#     Node 9, Type 0, BuildingBlock: AZAVOO_clean_sbu_0, # of connection points: 4
#     Node 10, Type 0, BuildingBlock: AZAVOO_clean_sbu_0, # of connection points: 4
#     Node 11, Type 0, BuildingBlock: AZAVOO_clean_sbu_0, # of connection points: 4
#     Node 12, Type 0, BuildingBlock: AZAVOO_clean_sbu_0, # of connection points: 4
#     Node 13, Type 0, BuildingBlock: AZAVOO_clean_sbu_0, # of connection points: 4
#     Node 14, Type 0, BuildingBlock: AZAVOO_clean_sbu_0, # of connection points: 4
#     Node 15, Type 0, BuildingBlock: AZAVOO_clean_sbu_0, # of connection points: 4
#     Node 16, Type 0, BuildingBlock: AZAVOO_clean_sbu_0, # of connection points: 4
#     Node 17, Type 0, BuildingBlock: AZAVOO_clean_sbu_0, # of connection points: 4
#     Node 18, Type 0, BuildingBlock: AZAVOO_clean_sbu_0, # of connection points: 4
#     Node 19, Type 0, BuildingBlock: AZAVOO_clean_sbu_0, # of connection points: 4
#     Node 20, Type 0, BuildingBlock: AZAVOO_clean_sbu_0, # of connection points: 4
#     Node 21, Type 0, BuildingBlock: AZAVOO_clean_sbu_0, # of connection points: 4
#     Node 22, Type 0, BuildingBlock: AZAVOO_clean_sbu_0, # of connection points: 4
#     Node 23, Type 0, BuildingBlock: AZAVOO_clean_sbu_0, # of connection points: 4
#     Node 24, Type 1, BuildingBlock: JUFBIX_clean_sbu_0, # of connection points: 6
#     Node 25, Type 1, BuildingBlock: JUFBIX_clean_sbu_0, # of connection points: 6
#     Node 26, Type 1, BuildingBlock: JUFBIX_clean_sbu_0, # of connection points: 6
#     Node 27, Type 1, BuildingBlock: JUFBIX_clean_sbu_0, # of connection points: 6
#     Node 28, Type 1, BuildingBlock: JUFBIX_clean_sbu_0, # of connection points: 6
#     Node 29, Type 1, BuildingBlock: JUFBIX_clean_sbu_0, # of connection points: 6
#     Node 30, Type 1, BuildingBlock: JUFBIX_clean_sbu_0, # of connection points: 6
#     Node 31, Type 1, BuildingBlock: JUFBIX_clean_sbu_0, # of connection points: 6
#     Node 32, Type 1, BuildingBlock: JUFBIX_clean_sbu_0, # of connection points: 6
#     Node 33, Type 1, BuildingBlock: JUFBIX_clean_sbu_0, # of connection points: 6
#     Node 34, Type 1, BuildingBlock: JUFBIX_clean_sbu_0, # of connection points: 6
#     Node 35, Type 1, BuildingBlock: JUFBIX_clean_sbu_0, # of connection points: 6
#     Node 36, Type 1, BuildingBlock: JUFBIX_clean_sbu_0, # of connection points: 6
#     Node 37, Type 1, BuildingBlock: JUFBIX_clean_sbu_0, # of connection points: 6
#     Node 38, Type 1, BuildingBlock: JUFBIX_clean_sbu_0, # of connection points: 6
#     Node 39, Type 1, BuildingBlock: JUFBIX_clean_sbu_0, # of connection points: 6
#     Edge 40, Type (0, 1), None
#     Edge 41, Type (0, 1), None
#     Edge 42, Type (0, 1), None
#     Edge 43, Type (0, 1), None
#     Edge 44, Type (0, 1), None
#     Edge 45, Type (0, 1), None
#     Edge 46, Type (0, 1), None
#     Edge 47, Type (0, 1), None
#     Edge 48, Type (0, 1), None
#     Edge 49, Type (0, 1), None
#     Edge 50, Type (0, 1), None
#     Edge 51, Type (0, 1), None
#     Edge 52, Type (0, 1), None
#     Edge 53, Type (0, 1), None
#     Edge 54, Type (0, 1), None
#     Edge 55, Type (0, 1), None
#     Edge 56, Type (0, 1), None
#     Edge 57, Type (0, 1), None
#     Edge 58, Type (0, 1), None
#     Edge 59, Type (0, 1), None
#     Edge 60, Type (0, 1), None
#     Edge 61, Type (0, 1), None
#     Edge 62, Type (0, 1), None
#     Edge 63, Type (0, 1), None
#     Edge 64, Type (0, 1), None
#     Edge 65, Type (0, 1), None
#     Edge 66, Type (0, 1), None
#     Edge 67, Type (0, 1), None
#     Edge 68, Type (0, 1), None
#     Edge 69, Type (0, 1), None
#     Edge 70, Type (0, 1), None
#     Edge 71, Type (0, 1), None
#     Edge 72, Type (0, 1), None
#     Edge 73, Type (0, 1), None
#     Edge 74, Type (0, 1), None
#     Edge 75, Type (0, 1), None
#     Edge 76, Type (0, 1), None
#     Edge 77, Type (0, 1), None
#     Edge 78, Type (0, 1), None
#     Edge 79, Type (0, 1), None
#     Edge 80, Type (0, 1), None
#     Edge 81, Type (0, 1), None
#     Edge 82, Type (0, 1), None
#     Edge 83, Type (0, 1), None
#     Edge 84, Type (0, 1), None
#     Edge 85, Type (0, 1), None
#     Edge 86, Type (0, 1), None
#     Edge 87, Type (0, 1), None
#     Edge 88, Type (0, 1), None
#     Edge 89, Type (0, 1), None
#     Edge 90, Type (0, 1), None
#     Edge 91, Type (0, 1), None
#     Edge 92, Type (0, 1), None
#     Edge 93, Type (0, 1), None
#     Edge 94, Type (0, 1), None
#     Edge 95, Type (0, 1), None
#     Edge 96, Type (0, 1), None
#     Edge 97, Type (0, 1), None
#     Edge 98, Type (0, 1), None
#     Edge 99, Type (0, 1), None
#     Edge 100, Type (0, 1), None
#     Edge 101, Type (0, 1), None
#     Edge 102, Type (0, 1), None
#     Edge 103, Type (0, 1), None
#     Edge 104, Type (0, 1), None
#     Edge 105, Type (0, 1), None
#     Edge 106, Type (0, 1), None
#     Edge 107, Type (0, 1), None
#     Edge 108, Type (0, 1), None
#     Edge 109, Type (0, 1), None
#     Edge 110, Type (0, 1), None
#     Edge 111, Type (0, 1), None
#     Edge 112, Type (0, 1), None
#     Edge 113, Type (0, 1), None
#     Edge 114, Type (0, 1), None
#     Edge 115, Type (0, 1), None
#     Edge 116, Type (0, 1), None
#     Edge 117, Type (0, 1), None
#     Edge 118, Type (0, 1), None
#     Edge 119, Type (0, 1), None
#     Edge 120, Type (0, 1), None
#     Edge 121, Type (0, 1), None
#     Edge 122, Type (0, 1), None
#     Edge 123, Type (0, 1), None
#     Edge 124, Type (0, 1), None
#     Edge 125, Type (0, 1), None
#     Edge 126, Type (0, 1), None
#     Edge 127, Type (0, 1), None
#     Edge 128, Type (0, 1), None
#     Edge 129, Type (0, 1), None
#     Edge 130, Type (0, 1), None
#     Edge 131, Type (0, 1), None
#     Edge 132, Type (0, 1), None
#     Edge 133, Type (0, 1), None
#     Edge 134, Type (0, 1), None
#     Edge 135, Type (0, 1), None
# Relax obj value: 0.361
# Max RMSD: 0.259
# Mean RMSD: 0.181
data_MOF--net-iac--node1-AZAVOO_clean_sbu_0--node2-JUFBIX_clean_sbu_0--edge1-none
_symmetry_space_group_name_H-M    P1
_symmetry_Int_Tables_number       1
_symmetry_cell_setting            triclinic
loop_
_symmetry_equiv_pos_as_xyz
'x, y, z'
_cell_length_a     26.285261
_cell_length_b     25.627612
_cell_length_c     26.403631
_cell_angle_alpha  91.146158
_cell_angle_beta   86.645135
_cell_angle_gamma 88.249126
loop_
_atom_site_label
_atom_site_type_symbol
_atom_site_fract_x
_atom_site_fract_y
_atom_site_fract_z
_atom_type_partial_charge
Mg0 Mg 0.05993 0.29681 0.19818 0.0
O1 O 0.05051 0.2091 0.15784 0.0
O2 O 0.99522 0.22622 0.09836 0.0
Mg3 Mg 0.95184 0.30718 0.11631 0.0
C4 C 0.02495 0.19384 0.11976 0.0
C5 C 0.16801 0.31113 0.2666 0.0
O6 O 0.1389 0.34362 0.29536 0.0
O7 O 0.06364 0.38503 0.15858 0.0
O8 O 1.00442 0.37997 0.10163 0.0
O9 O 0.99843 0.2943 0.26962 0.0
O10 O 0.9743 0.30253 0.19506 0.0
C11 C 0.04014 0.40523 0.12127 0.0
C12 C 0.96059 0.29737 0.2417 0.0
O13 O 0.14874 0.28938 0.22753 0.0
Mg14 Mg 0.11607 0.77243 0.40286 0.0
O15 O 0.07871 0.83163 0.4599 0.0
O16 O 0.99682 0.80957 0.47048 0.0
Mg17 Mg 0.9802 0.74284 0.41824 0.0
C18 C 0.03371 0.83831 0.48089 0.0
C19 C 0.17445 0.71149 0.31035 0.0
O20 O 0.182 0.67146 0.27868 0.0
O21 O 0.11546 0.71196 0.46301 0.0
O22 O 0.03268 0.69404 0.46336 0.0
O23 O 0.09434 0.82635 0.33956 0.0
O24 O 0.04588 0.76555 0.37043 0.0
C25 C 0.07726 0.6864 0.47858 0.0
C26 C 0.05075 0.80502 0.34218 0.0
O27 O 0.14198 0.70844 0.34715 0.0
Mg28 Mg 0.55993 0.79683 0.69817 0.0
O29 O 0.55052 0.70909 0.6579 0.0
O30 O 0.49525 0.7262 0.5984 0.0
Mg31 Mg 0.45185 0.80716 0.6163 0.0
C32 C 0.52497 0.69381 0.61981 0.0
C33 C 0.66801 0.81115 0.76659 0.0
O34 O 0.63891 0.84363 0.79536 0.0
O35 O 0.56362 0.88505 0.65859 0.0
O36 O 0.50441 0.87997 0.60163 0.0
O37 O 0.49844 0.79434 0.76961 0.0
O38 O 0.47429 0.80253 0.69506 0.0
C39 C 0.54012 0.90525 0.62127 0.0
C40 C 0.4606 0.79739 0.7417 0.0
O41 O 0.64875 0.78941 0.72752 0.0
Mg42 Mg 0.6161 0.2724 0.90287 0.0
O43 O 0.57875 0.3316 0.95991 0.0
O44 O 0.49686 0.30954 0.9705 0.0
Mg45 Mg 0.48023 0.24282 0.91825 0.0
C46 C 0.53376 0.33828 0.9809 0.0
C47 C 0.67453 0.21143 0.81039 0.0
O48 O 0.68208 0.1714 0.77872 0.0
O49 O 0.61549 0.21192 0.96301 0.0
O50 O 0.5327 0.19401 0.96336 0.0
O51 O 0.59436 0.32633 0.83957 0.0
O52 O 0.5459 0.26553 0.87044 0.0
C53 C 0.57729 0.18637 0.97858 0.0
C54 C 0.55077 0.30501 0.84219 0.0
O55 O 0.64202 0.20842 0.84715 0.0
Mg56 Mg 0.1573 0.01672 0.33921 0.0
O57 O 0.2213 0.07136 0.33819 0.0
O58 O 0.26436 0.04964 0.40597 0.0
Mg59 Mg 0.2277 0.9852 0.4493 0.0
C60 C 0.25804 0.0772 0.36696 0.0
C61 C 0.11712 0.98685 0.25314 0.0
O62 O 0.11459 0.95068 0.28769 0.0
O63 O 0.21184 0.95522 0.30807 0.0
O64 O 0.24838 0.93521 0.37952 0.0
O65 O 0.10968 0.07334 0.38453 0.0
O66 O 0.16005 0.01078 0.41382 0.0
C67 C 0.24264 0.92823 0.33226 0.0
C68 C 0.13058 0.05113 0.42207 0.0
O69 O 0.13764 0.02998 0.2626 0.0
Mg70 Mg 0.26785 0.93612 0.59606 0.0
O71 O 0.28065 0.87612 0.52822 0.0
O72 O 0.36035 0.84795 0.54115 0.0
Mg73 Mg 0.39887 0.89421 0.59949 0.0
C74 C 0.31936 0.84491 0.51791 0.0
C75 C 0.18122 0.99342 0.616 0.0
O76 O 0.21794 0.01707 0.63805 0.0
O77 O 0.26346 0.86965 0.64669 0.0
O78 O 0.34604 0.84994 0.65288 0.0
O79 O 0.28589 1.00235 0.54786 0.0
O80 O 0.34015 0.95349 0.58963 0.0
C81 C 0.299 0.84189 0.6634 0.0
C82 C 0.33192 0.99155 0.55967 0.0
O83 O 0.1872 0.94624 0.6 0.0
Mg84 Mg 0.45214 0.07449 0.74815 0.0
O85 O 0.3968 0.01882 0.78144 0.0
O86 O 0.3755 0.05158 0.85956 0.0
Mg87 Mg 0.42942 0.11394 0.88107 0.0
C88 C 0.3696 0.01925 0.82316 0.0
C89 C 0.51876 0.14644 0.68026 0.0
O90 O 0.54275 0.18964 0.67063 0.0
O91 O 0.38892 0.1346 0.74438 0.0
O92 O 0.39262 0.1649 0.82408 0.0
O93 O 0.51869 0.02163 0.77203 0.0
O94 O 0.48169 0.08301 0.8202 0.0
C95 C 0.37783 0.16853 0.77916 0.0
C96 C 0.51242 0.04353 0.8161 0.0
O97 O 0.5003 0.13983 0.72455 0.0
Mg98 Mg 0.30713 0.15895 0.0454 0.0
O99 O 0.31533 0.20029 0.13102 0.0
O100 O 0.37266 0.26241 0.11836 0.0
Mg101 Mg 0.41975 0.24464 0.04045 0.0
C102 C 0.34073 0.23911 0.14807 0.0
C103 C 0.19568 0.0929 0.02411 0.0
O104 O 0.22178 0.07296 0.98405 0.0
O105 O 0.30731 0.20849 0.96425 0.0
O106 O 0.36975 0.26497 0.97116 0.0
O107 O 0.36772 0.08623 0.03989 0.0
O108 O 0.39334 0.16363 0.04031 0.0
C109 C 0.33324 0.24717 0.9463 0.0
C110 C 0.40613 0.11526 0.03977 0.0
O111 O 0.21752 0.12669 0.05231 0.0
Mg112 Mg 0.7679 0.43607 0.09601 0.0
O113 O 0.78073 0.37607 0.02821 0.0
O114 O 0.86042 0.34791 0.04117 0.0
Mg115 Mg 0.8989 0.39417 0.09954 0.0
C116 C 0.81943 0.34487 0.01791 0.0
C117 C 0.68137 0.49348 0.11575 0.0
O118 O 0.71818 0.51718 0.13761 0.0
O119 O 0.76346 0.36962 0.14668 0.0
O120 O 0.84603 0.34991 0.1529 0.0
O121 O 0.78597 0.50225 0.04778 0.0
O122 O 0.8402 0.45346 0.08965 0.0
C123 C 0.79899 0.34186 0.16341 0.0
C124 C 0.83199 0.49149 0.05966 0.0
O125 O 0.68726 0.44625 0.09986 0.0
Mg126 Mg 0.95212 0.57449 0.24814 0.0
O127 O 0.89678 0.51881 0.28143 0.0
O128 O 0.87548 0.55157 0.35954 0.0
Mg129 Mg 0.92939 0.61393 0.38105 0.0
C130 C 0.86957 0.51925 0.32314 0.0
C131 C 0.01877 0.64643 0.18028 0.0
O132 O 0.04277 0.68963 0.17065 0.0
O133 O 0.8889 0.63459 0.24437 0.0
O134 O 0.89259 0.6649 0.32406 0.0
O135 O 0.01867 0.52163 0.27202 0.0
O136 O 0.98167 0.583 0.32019 0.0
C137 C 0.87781 0.66853 0.27915 0.0
C138 C 0.0124 0.54353 0.3161 0.0
O139 O 1.00028 0.63983 0.22456 0.0
Mg140 Mg 0.80713 0.65897 0.54539 0.0
O141 O 0.81534 0.70029 0.63102 0.0
O142 O 0.87266 0.76241 0.61834 0.0
Mg143 Mg 0.91975 0.74465 0.54043 0.0
C144 C 0.84073 0.73911 0.64806 0.0
C145 C 0.69568 0.59291 0.52409 0.0
O146 O 0.72177 0.573 0.48402 0.0
O147 O 0.80732 0.70849 0.46423 0.0
O148 O 0.86975 0.76498 0.47114 0.0
O149 O 0.86773 0.58624 0.53988 0.0
O150 O 0.89334 0.66364 0.5403 0.0
C151 C 0.83324 0.74717 0.44629 0.0
C152 C 0.90614 0.61527 0.53976 0.0
O153 O 0.71753 0.6267 0.5523 0.0
Mg154 Mg 0.6573 0.51671 0.83919 0.0
O155 O 0.72131 0.57135 0.83816 0.0
O156 O 0.76436 0.54964 0.90595 0.0
Mg157 Mg 0.72768 0.48521 0.94929 0.0
C158 C 0.75805 0.57719 0.86694 0.0
C159 C 0.61714 0.48684 0.75312 0.0
O160 O 0.6146 0.45068 0.78768 0.0
O161 O 0.71184 0.45519 0.80806 0.0
O162 O 0.74837 0.43519 0.87952 0.0
O163 O 0.60969 0.57336 0.88447 0.0
O164 O 0.66003 0.5108 0.91379 0.0
C165 C 0.74264 0.4282 0.83226 0.0
C166 C 0.63056 0.55115 0.92203 0.0
O167 O 0.63766 0.52996 0.76257 0.0
Mg168 Mg 0.05238 0.79222 0.90176 0.0
O169 O 0.051 0.88629 0.93174 0.0
O170 O 0.04625 0.86479 0.0108 0.0
Mg171 Mg 0.00775 0.80959 0.9562 0.0
C172 C 0.05354 0.90048 0.97835 0.0
C173 C 0.15864 0.7885 0.83888 0.0
O174 O 0.13132 0.75874 0.81073 0.0
O175 O 0.07986 0.72384 0.96209 0.0
O176 O 0.00805 0.735 0.00537 0.0
O177 O 1.00392 0.81977 0.83597 0.0
O178 O 0.96636 0.77166 0.89379 0.0
C179 C 0.04874 0.70736 0.99715 0.0
C180 C 0.96486 0.79341 0.85015 0.0
O181 O 0.13766 0.80951 0.87931 0.0
Mg182 Mg 0.01783 0.36766 0.71816 0.0
O183 O 0.03892 0.29042 0.67434 0.0
O184 O 0.99455 0.30098 0.60619 0.0
Mg185 Mg 0.9198 0.34463 0.63267 0.0
C186 C 0.03262 0.28132 0.62762 0.0
C187 C 0.09958 0.3383 0.78415 0.0
O188 O 0.05868 0.33819 0.81493 0.0
O189 O 0.03571 0.41489 0.64665 0.0
O190 O 0.96517 0.41186 0.60233 0.0
O191 O 0.97385 0.32672 0.77958 0.0
O192 O 0.94157 0.36077 0.71158 0.0
C193 C 0.00943 0.42856 0.60939 0.0
C194 C 0.93489 0.33656 0.75374 0.0
O195 O 0.09818 0.36172 0.74225 0.0
Mg196 Mg 0.55238 0.29223 0.40175 0.0
O197 O 0.55098 0.38631 0.43172 0.0
O198 O 0.54626 0.36482 0.51077 0.0
Mg199 Mg 0.50776 0.30961 0.45619 0.0
C200 C 0.55353 0.4005 0.47832 0.0
C201 C 0.65864 0.28848 0.3389 0.0
O202 O 0.63132 0.25871 0.31077 0.0
O203 O 0.57985 0.22383 0.46207 0.0
O204 O 0.50806 0.23501 0.50537 0.0
O205 O 0.50392 0.31977 0.33597 0.0
O206 O 0.46635 0.27167 0.39379 0.0
C207 C 0.54874 0.20736 0.49713 0.0
C208 C 0.46486 0.29341 0.35015 0.0
O209 O 0.63766 0.30953 0.37932 0.0
Mg210 Mg 0.51779 0.86765 0.2182 0.0
O211 O 0.53891 0.79041 0.17438 0.0
O212 O 0.49454 0.80096 0.10622 0.0
Mg213 Mg 0.41978 0.8446 0.13269 0.0
C214 C 0.53261 0.78131 0.12766 0.0
C215 C 0.59955 0.83828 0.28419 0.0
O216 O 0.55865 0.83815 0.31495 0.0
O217 O 0.53567 0.91489 0.14669 0.0
O218 O 0.46515 0.91184 0.10235 0.0
O219 O 0.47381 0.8267 0.27962 0.0
O220 O 0.44154 0.86073 0.2116 0.0
C221 C 0.5094 0.92854 0.10942 0.0
C222 C 0.43485 0.83652 0.25376 0.0
O223 O 0.59815 0.86172 0.24229 0.0
Mg224 Mg 0.92614 0.13681 0.75506 0.0
O225 O 0.90256 0.05674 0.76152 0.0
O226 O 0.876 0.0313 0.8383 0.0
Mg227 Mg 0.84772 0.11103 0.87129 0.0
C228 C 0.88663 0.02217 0.7909 0.0
C229 C 0.98908 0.07719 0.68339 0.0
O230 O 0.99403 0.04977 0.72427 0.0
O231 O 0.84943 0.13703 0.72164 0.0
O232 O 0.81601 0.1106 0.79322 0.0
O233 O 0.9925 0.12354 0.7996 0.0
O234 O 0.91596 0.14651 0.83467 0.0
C235 C 0.82113 0.14632 0.76099 0.0
C236 C 0.96242 0.13067 0.83944 0.0
O237 O 0.96027 0.11744 0.68289 0.0
Mg238 Mg 0.85681 0.15044 0.49287 0.0
O239 O 0.84065 0.20127 0.5652 0.0
O240 O 0.88537 0.27143 0.54735 0.0
Mg241 Mg 0.95435 0.24629 0.49456 0.0
C242 C 0.84882 0.24965 0.57172 0.0
C243 C 0.78111 0.078 0.537 0.0
O244 O 0.82333 0.05111 0.54292 0.0
O245 O 0.82852 0.21422 0.44764 0.0
O246 O 0.89812 0.26266 0.4351 0.0
O247 O 0.90267 0.09643 0.52938 0.0
O248 O 0.93353 0.16413 0.48733 0.0
C249 C 0.8527 0.2506 0.42615 0.0
C250 C 0.94079 0.1227 0.51307 0.0
O251 O 0.781 0.11817 0.50951 0.0
Mg252 Mg 0.6528 1.002 0.34044 0.0
O253 O 0.69454 0.08038 0.33624 0.0
O254 O 0.76178 0.05697 0.37778 0.0
Mg255 Mg 0.72975 0.01395 0.44749 0.0
C256 C 0.74238 0.08124 0.3417 0.0
C257 C 0.58526 0.04527 0.26293 0.0
O258 O 0.55491 0.04413 0.30387 0.0
O259 O 0.7291 0.95872 0.32015 0.0
O260 O 0.76449 0.95007 0.39563 0.0
O261 O 0.58546 0.03118 0.38829 0.0
O262 O 0.65458 0.99533 0.41815 0.0
C263 C 0.76339 0.94008 0.34816 0.0
C264 C 0.60872 0.01414 0.42624 0.0
O265 O 0.6289 0.02179 0.2617 0.0
Mg266 Mg 0.81178 0.92725 0.04672 0.0
O267 O 0.81441 0.91004 0.95705 0.0
O268 O 0.8401 0.83022 0.97576 0.0
Mg269 Mg 0.89932 0.84526 0.0395 0.0
C270 C 0.81956 0.86109 0.94466 0.0
C271 C 0.70574 0.00364 0.04358 0.0
O272 O 0.73871 0.04092 0.046 0.0
O273 O 0.81062 0.90693 0.13596 0.0
O274 O 0.85584 0.83331 0.11855 0.0
O275 O 0.85588 0.00707 0.04966 0.0
O276 O 0.89944 0.93469 0.0466 0.0
C277 C 0.82836 0.86215 0.15015 0.0
C278 C 0.89994 0.98483 0.05059 0.0
O279 O 0.72222 0.95584 0.04537 0.0
Mg280 Mg 0.3568 0.65045 0.99289 0.0
O281 O 0.3406 0.70133 0.0652 0.0
O282 O 0.38535 0.77147 0.04736 0.0
Mg283 Mg 0.45433 0.74632 0.99457 0.0
C284 C 0.34879 0.7497 0.07172 0.0
C285 C 0.28111 0.57801 0.037 0.0
O286 O 0.32333 0.55112 0.04291 0.0
O287 O 0.32851 0.71421 0.94762 0.0
O288 O 0.3981 0.76267 0.93511 0.0
O289 O 0.40265 0.59647 0.02945 0.0
O290 O 0.43351 0.66415 0.98736 0.0
C291 C 0.35268 0.7506 0.92615 0.0
C292 C 0.44077 0.62273 0.01312 0.0
O293 O 0.28099 0.61818 0.00952 0.0
Mg294 Mg 0.1528 0.50201 0.84044 0.0
O295 O 0.19454 0.58039 0.83623 0.0
O296 O 0.26179 0.55698 0.87776 0.0
Mg297 Mg 0.22976 0.51397 0.94748 0.0
C298 C 0.24238 0.58126 0.84169 0.0
C299 C 0.08527 0.54532 0.76294 0.0
O300 O 0.05493 0.54423 0.80389 0.0
O301 O 0.2291 0.45873 0.82015 0.0
O302 O 0.2645 0.45009 0.89563 0.0
O303 O 0.08546 0.53119 0.8883 0.0
O304 O 0.15459 0.49534 0.91815 0.0
C305 C 0.26339 0.44009 0.84816 0.0
C306 C 0.10873 0.51415 0.92625 0.0
O307 O 0.12889 0.52181 0.7617 0.0
Mg308 Mg 0.31194 0.42712 0.54672 0.0
O309 O 0.31447 0.41004 0.45704 0.0
O310 O 0.34 0.33019 0.47575 0.0
Mg311 Mg 0.39905 0.34524 0.53952 0.0
C312 C 0.31954 0.36109 0.44465 0.0
C313 C 0.20578 0.50365 0.54358 0.0
O314 O 0.23873 0.54095 0.546 0.0
O315 O 0.31068 0.40695 0.63599 0.0
O316 O 0.35579 0.33329 0.61859 0.0
O317 O 0.35586 0.5069 0.54964 0.0
O318 O 0.39979 0.43469 0.54662 0.0
C319 C 0.32837 0.36216 0.65019 0.0
C320 C 0.40001 0.48484 0.55061 0.0
O321 O 0.22231 0.45585 0.54537 0.0
Mg322 Mg 0.42621 0.63676 0.25503 0.0
O323 O 0.40257 0.55672 0.26149 0.0
O324 O 0.37604 0.53131 0.33829 0.0
Mg325 Mg 0.34778 0.61107 0.37124 0.0
C326 C 0.38664 0.52217 0.29089 0.0
C327 C 0.48912 0.57713 0.18337 0.0
O328 O 0.49404 0.54968 0.22424 0.0
O329 O 0.3495 0.63713 0.22162 0.0
O330 O 0.3161 0.6106 0.29316 0.0
O331 O 0.49254 0.62336 0.29956 0.0
O332 O 0.41604 0.64655 0.33461 0.0
C333 C 0.32115 0.64634 0.26094 0.0
C334 C 0.46247 0.63062 0.3394 0.0
O335 O 0.46031 0.61737 0.18286 0.0
Co336 Co 0.03613 0.06479 0.00872 0.0
C337 C 0.02976 0.13815 0.09674 0.0
Co338 Co 0.05216 0.03117 0.08006 0.0
C339 C 1.00026 0.08809 0.90929 0.0
C340 C 0.01873 0.15607 0.95188 0.0
N341 N 0.02126 0.10306 0.95235 0.0
N342 N 0.98154 0.12965 0.88517 0.0
C343 C 0.99315 0.17232 0.91136 0.0
H344 H 0.99594 0.04782 0.89755 0.0
H345 H 0.03349 0.18229 0.97954 0.0
C346 C 0.05869 0.9572 0.99586 0.0
N347 N 0.06524 0.99636 0.13547 0.0
C348 C 0.09127 0.01475 0.17337 0.0
C349 C 0.0534 0.94708 0.14755 0.0
N350 N 0.09585 0.97911 0.20906 0.0
C351 C 0.07282 0.93609 0.19325 0.0
C352 C 0.94912 0.01538 0.05276 0.0
O353 O 0.04815 0.99701 0.96908 0.0
O354 O 0.0665 0.96598 0.04216 0.0
O355 O 0.98017 0.0081 0.08763 0.0
O356 O 0.96361 0.04508 0.01681 0.0
O357 O 0.03852 0.09729 0.1218 0.0
H358 H 0.03253 0.92084 0.12446 0.0
H359 H 0.10622 0.05364 0.17493 0.0
O360 O 0.02344 0.13063 0.04984 0.0
O361 O 0.10866 0.08356 0.99857 0.0
O362 O 0.12483 0.05231 0.07212 0.0
C363 C 0.14034 0.07716 0.03301 0.0
H364 H 0.9852 0.21227 0.90085 0.0
H365 H 0.07073 0.89949 0.21282 0.0
Co366 Co 0.30442 0.78303 0.33047 0.0
C367 C 0.32153 0.69944 0.27728 0.0
Co368 Co 0.28651 0.79855 0.25221 0.0
C369 C 0.29378 0.81279 0.43655 0.0
C370 C 0.35385 0.75527 0.41945 0.0
N371 N 0.31522 0.78124 0.39881 0.0
N372 N 0.31983 0.80968 0.47882 0.0
C373 C 0.35677 0.77259 0.46854 0.0
H374 H 0.26376 0.84171 0.4313 0.0
H375 H 0.38083 0.72883 0.39889 0.0
C376 C 0.26557 0.88152 0.30901 0.0
N377 N 0.28041 0.80162 0.18178 0.0
C378 C 0.29435 0.76178 0.14858 0.0
C379 C 0.29131 0.84517 0.15582 0.0
N380 N 0.31877 0.7788 0.10606 0.0
C381 C 0.31549 0.83125 0.10971 0.0
C382 C 0.20883 0.7547 0.30644 0.0
O383 O 0.28839 0.8522 0.33847 0.0
O384 O 0.25638 0.86553 0.26466 0.0
O385 O 0.22381 0.7679 0.26213 0.0
O386 O 0.23531 0.76522 0.34403 0.0
O387 O 0.31564 0.73263 0.24336 0.0
H388 H 0.28985 0.88418 0.17233 0.0
H389 H 0.29418 0.72096 0.15833 0.0
O390 O 0.31945 0.71282 0.32346 0.0
O391 O 0.37485 0.79976 0.31396 0.0
O392 O 0.34937 0.82713 0.24124 0.0
C393 C 0.38449 0.8202 0.2709 0.0
H394 H 0.38646 0.76173 0.49347 0.0
H395 H 0.33322 0.85761 0.08294 0.0
Co396 Co 0.51459 0.05733 0.55112 0.0
C397 C 0.55268 0.153 0.52094 0.0
Co398 Co 0.59179 0.05819 0.57283 0.0
C399 C 0.41792 0.01549 0.55696 0.0
C400 C 0.41833 0.0786 0.50526 0.0
N401 N 0.44847 0.05057 0.53524 0.0
N402 N 0.37069 0.01982 0.54172 0.0
C403 C 0.36968 0.0599 0.50992 0.0
H404 H 0.42852 0.9893 0.58636 0.0
H405 H 0.4302 0.11152 0.48301 0.0
C406 C 0.5491 0.96103 0.60135 0.0
N407 N 0.65729 0.06226 0.58765 0.0
C408 C 0.69191 0.0844 0.55655 0.0
C409 C 0.68403 0.03074 0.61758 0.0
N410 N 0.73871 0.06582 0.56395 0.0
C411 C 0.73465 0.03233 0.60237 0.0
C412 C 0.52712 0.10264 0.64478 0.0
O413 O 0.51523 0.98377 0.5764 0.0
O414 O 0.58869 0.98735 0.60752 0.0
O415 O 0.57307 0.09187 0.63216 0.0
O416 O 0.49234 0.08637 0.61728 0.0
O417 O 0.59323 0.13085 0.53705 0.0
H418 H 0.66792 0.00509 0.64582 0.0
H419 H 0.68283 0.10869 0.52506 0.0
O420 O 0.51237 0.12738 0.52588 0.0
O421 O 0.53816 0.03265 0.48488 0.0
O422 O 0.61461 0.0254 0.51282 0.0
C423 C 0.58563 0.02224 0.47697 0.0
H424 H 0.33586 0.07546 0.49358 0.0
H425 H 0.76573 0.00987 0.61736 0.0
Co426 Co 0.36135 0.32377 0.80167 0.0
C427 C 0.32448 0.34469 0.70501 0.0
Co428 Co 0.28719 0.28974 0.7944 0.0
C429 C 0.46297 0.30699 0.82336 0.0
C430 C 0.45437 0.38166 0.78963 0.0
N431 N 0.42825 0.33971 0.80473 0.0
N432 N 0.50961 0.32684 0.82159 0.0
C433 C 0.50478 0.37386 0.80033 0.0
H434 H 0.454 0.269 0.83789 0.0
H435 H 0.43775 0.41582 0.7728 0.0
C436 C 0.32653 0.26999 0.8931 0.0
N437 N 0.21961 0.27523 0.7922 0.0
C438 C 0.18669 0.308 0.77044 0.0
C439 C 0.19115 0.25055 0.82804 0.0
N440 N 0.14011 0.30741 0.79374 0.0
C441 C 0.14216 0.27094 0.82953 0.0
C442 C 0.35518 0.21816 0.76748 0.0
O443 O 0.36181 0.29695 0.87227 0.0
O444 O 0.28807 0.26237 0.86665 0.0
O445 O 0.30719 0.22354 0.77067 0.0
O446 O 0.38243 0.25694 0.77613 0.0
O447 O 0.28831 0.31662 0.72275 0.0
H448 H 0.20572 0.22354 0.85498 0.0
H449 H 0.19796 0.33711 0.7432 0.0
O450 O 0.36193 0.35087 0.73276 0.0
O451 O 0.33976 0.39018 0.82744 0.0
O452 O 0.26568 0.35554 0.81838 0.0
C453 C 0.29156 0.39421 0.82923 0.0
H454 H 0.53458 0.4015 0.79546 0.0
H455 H 0.11103 0.26112 0.85599 0.0
Co456 Co 0.0508 0.0252 0.55425 0.0
C457 C 0.02206 0.06742 0.64069 0.0
Co458 Co 0.08297 0.10309 0.56121 0.0
C459 C 0.0526 0.92162 0.51655 0.0
C460 C 0.98153 0.94209 0.55729 0.0
N461 N 0.02749 0.96064 0.54301 0.0
N462 N 0.02339 0.88002 0.51207 0.0
C463 C 0.97877 0.89224 0.53799 0.0
H464 H 0.09037 0.92493 0.49833 0.0
H465 H 0.95153 0.96403 0.57889 0.0
C466 C 0.10954 0.05976 0.47224 0.0
N467 N 0.10195 0.17255 0.5724 0.0
C468 C 0.08447 0.2023 0.61337 0.0
C469 C 0.10084 0.20574 0.5332 0.0
N470 N 0.06652 0.24958 0.59985 0.0
C471 C 0.07729 0.25205 0.54958 0.0
C472 C 0.13989 0.02309 0.59701 0.0
O473 O 0.07995 0.02563 0.48935 0.0
O474 O 0.12094 0.09854 0.49923 0.0
O475 O 0.1386 0.07297 0.5953 0.0
O476 O 0.10699 0.99658 0.57662 0.0
O477 O 0.04419 0.10566 0.62118 0.0
H478 H 0.10678 0.19413 0.49365 0.0
H479 H 0.07583 0.18664 0.65055 0.0
O480 O 0.02193 0.02399 0.61815 0.0
O481 O 0.99282 0.05398 0.53226 0.0
O482 O 0.02677 0.131 0.52864 0.0
C483 C 0.98978 0.10189 0.52262 0.0
H484 H 0.94599 0.86766 0.54116 0.0
H485 H 0.06497 0.2833 0.52565 0.0
Co486 Co 0.30933 0.83209 0.81059 0.0
C487 C 0.2138 0.79261 0.82508 0.0
Co488 Co 0.30866 0.75247 0.78063 0.0
C489 C 0.33621 0.93664 0.8032 0.0
C490 C 0.28869 0.92422 0.87038 0.0
N491 N 0.30888 0.90059 0.82731 0.0
N492 N 0.33651 0.98093 0.83097 0.0
C493 C 0.30588 0.9741 0.87281 0.0
H494 H 0.35949 0.92882 0.7685 0.0
H495 H 0.26627 0.9052 0.89986 0.0
C496 C 0.40571 0.79381 0.76231 0.0
N497 N 0.30326 0.67974 0.76998 0.0
C498 C 0.26124 0.65335 0.78615 0.0
C499 C 0.34261 0.64641 0.77831 0.0
N500 N 0.27344 0.60898 0.80972 0.0
C501 C 0.32453 0.60366 0.80353 0.0
C502 C 0.28785 0.81691 0.71004 0.0
O503 O 0.38101 0.834 0.78137 0.0
O504 O 0.38258 0.75062 0.76168 0.0
O505 O 0.29784 0.76849 0.7143 0.0
O506 O 0.28603 0.84773 0.74819 0.0
O507 O 0.23635 0.7573 0.79734 0.0
H508 H 0.38238 0.65588 0.7743 0.0
H509 H 0.22273 0.66956 0.78825 0.0
O510 O 0.23954 0.83054 0.83929 0.0
O511 O 0.33341 0.81772 0.87227 0.0
O512 O 0.32066 0.73729 0.84792 0.0
C513 C 0.33257 0.76993 0.88134 0.0
H514 H 0.29945 1.00166 0.90434 0.0
H515 H 0.34755 0.57309 0.81954 0.0
Co516 Co 0.55188 0.03426 0.00611 0.0
C517 C 0.65002 0.0192 0.04271 0.0
Co518 Co 0.55912 0.07716 0.07779 0.0
C519 C 0.52582 0.04245 0.90513 0.0
C520 C 0.57066 0.9722 0.91172 0.0
N521 N 0.5483 0.01248 0.93926 0.0
N522 N 0.53254 0.02273 0.85764 0.0
C523 C 0.56084 0.97837 0.86114 0.0
H524 H 0.50648 0.07945 0.91481 0.0
H525 H 0.5937 0.94132 0.92705 0.0
C526 C 0.4605 0.0936 0.04091 0.0
N527 N 0.56288 0.09852 0.14425 0.0
C528 C 0.59132 0.07127 0.17616 0.0
C529 C 0.52495 0.12176 0.17426 0.0
N530 N 0.57067 0.07367 0.22362 0.0
C531 C 0.52934 0.10589 0.22317 0.0
C532 C 0.58435 0.13945 0.0061 0.0
O533 O 0.48032 0.06322 0.00574 0.0
O534 O 0.48755 0.10332 0.07817 0.0
O535 O 0.579 0.14101 0.05397 0.0
O536 O 0.57648 0.0977 0.98172 0.0
O537 O 0.63059 0.05247 0.0753 0.0
H538 H 0.4928 0.14389 0.16118 0.0
H539 H 0.62186 0.04375 0.16416 0.0
O540 O 0.62245 0.0049 0.00704 0.0
O541 O 0.52701 0.97133 0.03132 0.0
O542 O 0.53875 0.01259 0.10313 0.0
C543 C 0.52665 0.97198 0.07944 0.0
H544 H 0.57359 0.95255 0.82967 0.0
H545 H 0.50262 0.11482 0.25521 0.0
Co546 Co 0.31688 0.26016 0.31168 0.0
C547 C 0.41734 0.29216 0.3206 0.0
Co548 Co 0.32578 0.33666 0.28483 0.0
C549 C 0.28067 0.15783 0.32849 0.0
C550 C 0.34023 0.17942 0.37611 0.0
N551 N 0.31169 0.19664 0.33851 0.0
N552 N 0.2885 0.11756 0.35922 0.0
C553 C 0.3267 0.13037 0.38813 0.0
H554 H 0.25118 0.16035 0.30157 0.0
H555 H 0.36825 0.20158 0.39496 0.0
C556 C 0.22405 0.30548 0.27779 0.0
N557 N 0.33774 0.40072 0.26304 0.0
C558 C 0.35875 0.43549 0.29352 0.0
C559 C 0.33723 0.42263 0.21715 0.0
N560 N 0.37138 0.47809 0.26914 0.0
C561 C 0.35857 0.47085 0.22073 0.0
C562 C 0.33479 0.25887 0.20371 0.0
O563 O 0.24184 0.26681 0.30214 0.0
O564 O 0.25417 0.34252 0.26775 0.0
O565 O 0.34243 0.30669 0.21514 0.0
O566 O 0.32453 0.22894 0.24093 0.0
O567 O 0.39822 0.33311 0.30238 0.0
H568 H 0.32336 0.40447 0.18352 0.0
H569 H 0.36769 0.42914 0.33243 0.0
O570 O 0.38984 0.25265 0.32147 0.0
O571 O 0.30981 0.2901 0.38266 0.0
O572 O 0.3085 0.36785 0.35368 0.0
C573 C 0.30915 0.33911 0.39198 0.0
H574 H 0.34233 0.1068 0.41705 0.0
H575 H 0.36233 0.49913 0.1909 0.0
Co576 Co 0.55081 0.52519 0.05422 0.0
C577 C 0.52211 0.56737 0.14068 0.0
Co578 Co 0.58298 0.6031 0.06117 0.0
C579 C 0.55263 0.42161 0.01653 0.0
C580 C 0.48155 0.44206 0.05728 0.0
N581 N 0.52751 0.46063 0.04298 0.0
N582 N 0.52343 0.37999 0.01207 0.0
C583 C 0.47881 0.3922 0.038 0.0
H584 H 0.59039 0.42492 0.9983 0.0
H585 H 0.45156 0.464 0.07888 0.0
C586 C 0.60952 0.5598 0.97219 0.0
N587 N 0.60194 0.67256 0.07239 0.0
C588 C 0.58446 0.70229 0.11338 0.0
C589 C 0.60084 0.70577 0.03321 0.0
N590 N 0.56652 0.74959 0.09988 0.0
C591 C 0.5773 0.75209 0.04962 0.0
C592 C 0.63996 0.52311 0.09688 0.0
O593 O 0.57996 0.52564 0.98932 0.0
O594 O 0.62087 0.59861 0.99916 0.0
O595 O 0.63865 0.57299 0.09516 0.0
O596 O 0.60701 0.49659 0.07658 0.0
O597 O 0.54425 0.60561 0.12119 0.0
H598 H 0.60678 0.69419 0.99366 0.0
H599 H 0.57581 0.68661 0.15055 0.0
O600 O 0.52193 0.52397 0.1181 0.0
O601 O 0.49281 0.55398 0.03223 0.0
O602 O 0.52674 0.63101 0.02869 0.0
C603 C 0.48976 0.60191 0.02264 0.0
H604 H 0.44604 0.36761 0.04119 0.0
H605 H 0.56499 0.78335 0.0257 0.0
Co606 Co 0.80933 0.33207 0.3106 0.0
C607 C 0.7138 0.29259 0.32509 0.0
Co608 Co 0.80866 0.25246 0.28064 0.0
C609 C 0.8362 0.43663 0.30319 0.0
C610 C 0.78867 0.42421 0.37037 0.0
N611 N 0.80887 0.40058 0.32731 0.0
N612 N 0.83649 0.48092 0.33095 0.0
C613 C 0.80586 0.47409 0.37279 0.0
H614 H 0.85948 0.42881 0.26849 0.0
H615 H 0.76625 0.4052 0.39985 0.0
C616 C 0.9057 0.29379 0.2623 0.0
N617 N 0.80326 0.17972 0.26999 0.0
C618 C 0.76125 0.15333 0.28616 0.0
C619 C 0.84261 0.1464 0.27833 0.0
N620 N 0.77345 0.10897 0.30974 0.0
C621 C 0.82453 0.10365 0.30355 0.0
C622 C 0.78783 0.31689 0.21005 0.0
O623 O 0.881 0.33398 0.28136 0.0
O624 O 0.88257 0.25061 0.26168 0.0
O625 O 0.79783 0.26847 0.21431 0.0
O626 O 0.78601 0.34771 0.2482 0.0
O627 O 0.73635 0.25728 0.29736 0.0
H628 H 0.88238 0.15587 0.27432 0.0
H629 H 0.72274 0.16954 0.28826 0.0
O630 O 0.73954 0.33053 0.3393 0.0
O631 O 0.83342 0.31772 0.37227 0.0
O632 O 0.82067 0.23728 0.34793 0.0
C633 C 0.83259 0.26992 0.38134 0.0
H634 H 0.79942 0.50166 0.40432 0.0
H635 H 0.84755 0.07308 0.31957 0.0
Co636 Co 0.05189 0.53429 0.5061 0.0
C637 C 0.15004 0.51922 0.54271 0.0
Co638 Co 0.05913 0.57718 0.57778 0.0
C639 C 0.02582 0.54247 0.40512 0.0
C640 C 0.07067 0.47223 0.41171 0.0
N641 N 0.04831 0.51251 0.43925 0.0
N642 N 0.03253 0.52275 0.35763 0.0
C643 C 0.06085 0.4784 0.36114 0.0
H644 H 0.00647 0.57946 0.4148 0.0
H645 H 0.09372 0.44136 0.42705 0.0
C646 C 0.9605 0.59362 0.5409 0.0
N647 N 0.06288 0.59853 0.64425 0.0
C648 C 0.09132 0.57128 0.67616 0.0
C649 C 0.02496 0.62181 0.67425 0.0
N650 N 0.07067 0.57371 0.72362 0.0
C651 C 0.02935 0.60594 0.72316 0.0
C652 C 0.08434 0.63949 0.50609 0.0
O653 O 0.98033 0.56324 0.50573 0.0
O654 O 0.98755 0.60333 0.57817 0.0
O655 O 0.07899 0.64104 0.55397 0.0
O656 O 0.07648 0.59773 0.48172 0.0
O657 O 0.13061 0.55249 0.57529 0.0
H658 H 0.99283 0.64394 0.66116 0.0
H659 H 0.12184 0.54374 0.66416 0.0
O660 O 0.12247 0.50493 0.50703 0.0
O661 O 0.02703 0.47135 0.5313 0.0
O662 O 0.03877 0.51261 0.60311 0.0
C663 C 0.02668 0.472 0.57941 0.0
H664 H 0.07359 0.45257 0.32966 0.0
H665 H 1.00264 0.6149 0.7552 0.0
Co666 Co 0.86134 0.82376 0.30165 0.0
C667 C 0.82447 0.84467 0.20497 0.0
Co668 Co 0.78718 0.78974 0.29438 0.0
C669 C 0.96296 0.80699 0.32333 0.0
C670 C 0.95435 0.88167 0.28962 0.0
N671 N 0.92824 0.8397 0.3047 0.0
N672 N 0.00959 0.82685 0.32156 0.0
C673 C 0.00476 0.87387 0.30032 0.0
H674 H 0.954 0.76899 0.33785 0.0
H675 H 0.93772 0.91583 0.27281 0.0
C676 C 0.82653 0.76999 0.39308 0.0
N677 N 0.7196 0.77523 0.2922 0.0
C678 C 0.68666 0.80801 0.27046 0.0
C679 C 0.69114 0.75054 0.32803 0.0
N680 N 0.64009 0.80741 0.29376 0.0
C681 C 0.64216 0.77092 0.32954 0.0
C682 C 0.85516 0.71816 0.26746 0.0
O683 O 0.86181 0.79695 0.37225 0.0
O684 O 0.78806 0.76237 0.36664 0.0
O685 O 0.80717 0.72354 0.27065 0.0
O686 O 0.88242 0.75693 0.27611 0.0
O687 O 0.78829 0.81662 0.22273 0.0
H688 H 0.70573 0.72352 0.35495 0.0
H689 H 0.69793 0.83714 0.24322 0.0
O690 O 0.86191 0.85086 0.23273 0.0
O691 O 0.83975 0.89018 0.32742 0.0
O692 O 0.76567 0.85554 0.31837 0.0
C693 C 0.79155 0.8942 0.32922 0.0
H694 H 0.03455 0.90152 0.29547 0.0
H695 H 0.61103 0.76109 0.35599 0.0
Co696 Co 0.80449 0.28302 0.83047 0.0
C697 C 0.82164 0.19942 0.7773 0.0
Co698 Co 0.78659 0.29852 0.75222 0.0
C699 C 0.79387 0.31276 0.93655 0.0
C700 C 0.85397 0.25528 0.91942 0.0
N701 N 0.81532 0.28124 0.8988 0.0
N702 N 0.81992 0.30965 0.97882 0.0
C703 C 0.85689 0.27259 0.96852 0.0
H704 H 0.76383 0.34167 0.93131 0.0
H705 H 0.88097 0.22887 0.89884 0.0
C706 C 0.76558 0.38149 0.80902 0.0
N707 N 0.78046 0.30157 0.68179 0.0
C708 C 0.7944 0.26173 0.64859 0.0
C709 C 0.79133 0.34512 0.65582 0.0
N710 N 0.81881 0.27874 0.60606 0.0
C711 C 0.8155 0.33119 0.6097 0.0
C712 C 0.70892 0.25464 0.80646 0.0
O713 O 0.78843 0.3522 0.83847 0.0
O714 O 0.7564 0.36549 0.76467 0.0
O715 O 0.72391 0.26782 0.76215 0.0
O716 O 0.73539 0.26519 0.84406 0.0
O717 O 0.81577 0.23261 0.74337 0.0
H718 H 0.78986 0.38413 0.67232 0.0
H719 H 0.79426 0.22091 0.65835 0.0
O720 O 0.81954 0.21282 0.82347 0.0
O721 O 0.87491 0.29978 0.81394 0.0
O722 O 0.84941 0.32715 0.74123 0.0
C723 C 0.88453 0.32024 0.77089 0.0
H724 H 0.88659 0.26173 0.99344 0.0
H725 H 0.83321 0.35756 0.58292 0.0
Co726 Co 0.81688 0.76017 0.81168 0.0
C727 C 0.91734 0.79215 0.8206 0.0
Co728 Co 0.82579 0.83667 0.78482 0.0
C729 C 0.78067 0.65783 0.82847 0.0
C730 C 0.84022 0.67943 0.87611 0.0
N731 N 0.81168 0.69665 0.8385 0.0
N732 N 0.7885 0.61756 0.8592 0.0
C733 C 0.8267 0.63038 0.88812 0.0
H734 H 0.75119 0.66034 0.80154 0.0
H735 H 0.86823 0.70159 0.89496 0.0
C736 C 0.72406 0.80549 0.77777 0.0
N737 N 0.83776 0.90073 0.76302 0.0
C738 C 0.85877 0.93549 0.7935 0.0
C739 C 0.83724 0.92264 0.71714 0.0
N740 N 0.8714 0.9781 0.76913 0.0
C741 C 0.85859 0.97086 0.72073 0.0
C742 C 0.8348 0.75887 0.7037 0.0
O743 O 0.74184 0.76682 0.80213 0.0
O744 O 0.75417 0.84253 0.76773 0.0
O745 O 0.84244 0.80669 0.71513 0.0
O746 O 0.82453 0.72895 0.74092 0.0
O747 O 0.89823 0.83311 0.80237 0.0
H748 H 0.82337 0.90448 0.68351 0.0
H749 H 0.86771 0.92913 0.83242 0.0
O750 O 0.88984 0.75265 0.82146 0.0
O751 O 0.80982 0.7901 0.88266 0.0
O752 O 0.80851 0.86785 0.85369 0.0
C753 C 0.80917 0.8391 0.89199 0.0
H754 H 0.84233 0.60682 0.91704 0.0
H755 H 0.86233 0.99915 0.6909 0.0
Co756 Co 0.53612 0.56482 0.50873 0.0
C757 C 0.52979 0.63813 0.5968 0.0
Co758 Co 0.55216 0.53119 0.58007 0.0
C759 C 0.5005 0.58813 0.4092 0.0
C760 C 0.51833 0.65615 0.45205 0.0
N761 N 0.52123 0.60314 0.45239 0.0
N762 N 0.48158 0.62963 0.38513 0.0
C763 C 0.49277 0.67232 0.4115 0.0
H764 H 0.49645 0.54784 0.39734 0.0
H765 H 0.53283 0.68244 0.4798 0.0
C766 C 0.55868 0.45723 0.49583 0.0
N767 N 0.56527 0.49634 0.63545 0.0
C768 C 0.59131 0.51472 0.67334 0.0
C769 C 0.55344 0.44705 0.64753 0.0
N770 N 0.59588 0.47909 0.70903 0.0
C771 C 0.57286 0.43606 0.69322 0.0
C772 C 0.44906 0.51556 0.55285 0.0
O773 O 0.54812 0.49704 0.46906 0.0
O774 O 0.5665 0.466 0.54213 0.0
O775 O 0.48017 0.50816 0.58764 0.0
O776 O 0.46358 0.54517 0.51684 0.0
O777 O 0.53853 0.59727 0.62185 0.0
H778 H 0.53256 0.42082 0.62444 0.0
H779 H 0.60626 0.55362 0.6749 0.0
O780 O 0.52348 0.63061 0.54989 0.0
O781 O 0.60866 0.58357 0.49856 0.0
O782 O 0.62484 0.55232 0.57211 0.0
C783 C 0.64034 0.57717 0.53299 0.0
H784 H 0.48457 0.71225 0.40108 0.0
H785 H 0.57076 0.39947 0.7128 0.0
Co786 Co 0.01461 0.55732 0.05113 0.0
C787 C 0.05269 0.653 0.02096 0.0
Co788 Co 0.09181 0.55818 0.07285 0.0
C789 C 0.91796 0.5155 0.05703 0.0
C790 C 0.91839 0.5785 0.0052 0.0
N791 N 0.94851 0.55055 0.03526 0.0
N792 N 0.87075 0.51977 0.04173 0.0
C793 C 0.86976 0.55978 0.00985 0.0
H794 H 0.92854 0.48939 0.08649 0.0
H795 H 0.93028 0.61137 0.98287 0.0
C796 C 0.04913 0.46102 0.10135 0.0
N797 N 0.15729 0.56226 0.08767 0.0
C798 C 0.19191 0.5844 0.05657 0.0
C799 C 0.18404 0.53075 0.1176 0.0
N800 N 0.23871 0.56583 0.06397 0.0
C801 C 0.23466 0.53235 0.1024 0.0
C802 C 0.02714 0.60263 0.1448 0.0
O803 O 0.01526 0.48375 0.07639 0.0
O804 O 0.08871 0.48734 0.10754 0.0
O805 O 0.07308 0.59187 0.13217 0.0
O806 O 0.99235 0.58635 0.1173 0.0
O807 O 0.09323 0.63084 0.03707 0.0
H808 H 0.16793 0.50511 0.14585 0.0
H809 H 0.18283 0.60869 0.02507 0.0
O810 O 0.01238 0.62738 0.0259 0.0
O811 O 0.03818 0.53266 0.9849 0.0
O812 O 0.11463 0.5254 0.01283 0.0
C813 C 0.08565 0.52225 0.97698 0.0
H814 H 0.83595 0.57527 0.99344 0.0
H815 H 0.26574 0.5099 0.11738 0.0
loop_
_geom_bond_atom_site_label_1
_geom_bond_atom_site_label_2
_geom_bond_distance
_geom_bond_site_symmetry_2
_ccdc_geom_bond_type
Mg0 O1 2.028 . S
Mg0 O7 1.986 . S
Mg0 O9 2.114 . S
Mg0 O10 2.251 1_455 S
Mg0 O13 2.010 . S
O1 Mg0 2.028 . S
O1 C4 1.250 . S
O2 Mg3 2.028 1_455 S
O2 C4 1.248 . S
Mg3 O2 2.028 1_655 S
Mg3 O8 2.032 1_655 S
Mg3 O10 2.079 . S
C4 O1 1.250 . S
C4 O2 1.248 . S
C5 O6 1.264 . S
C5 O13 1.249 . S
O6 C5 1.264 . S
O7 Mg0 1.986 . S
O7 C11 1.246 . S
O8 Mg3 2.032 1_455 S
O8 C11 1.259 . S
O9 Mg0 2.114 . S
O9 C12 1.252 1_455 S
O10 Mg0 2.251 1_655 S
O10 Mg3 2.079 . S
O10 C12 1.273 . S
C11 O7 1.246 . S
C11 O8 1.259 . S
C12 O9 1.252 1_655 S
C12 O10 1.273 . S
O13 Mg0 2.010 . S
O13 C5 1.249 . S
Mg14 O15 2.028 . S
Mg14 O21 1.986 . S
Mg14 O23 2.114 . S
Mg14 O24 2.251 . S
Mg14 O27 2.010 . S
O15 Mg14 2.028 . S
O15 C18 1.250 . S
O16 Mg17 2.034 . S
O16 C18 1.248 . S
Mg17 O16 2.034 . S
Mg17 O22 2.038 . S
Mg17 O24 2.080 . S
C18 O15 1.250 . S
C18 O16 1.248 . S
C19 O20 1.264 . S
C19 O27 1.249 . S
O20 C19 1.264 . S
O21 Mg14 1.986 . S
O21 C25 1.246 . S
O22 Mg17 2.038 . S
O22 C25 1.259 . S
O23 Mg14 2.114 . S
O23 C26 1.252 . S
O24 Mg14 2.251 . S
O24 Mg17 2.080 . S
O24 C26 1.273 . S
C25 O21 1.246 . S
C25 O22 1.259 . S
C26 O23 1.252 . S
C26 O24 1.273 . S
O27 Mg14 2.010 . S
O27 C19 1.249 . S
Mg28 O29 2.028 . S
Mg28 O35 1.986 . S
Mg28 O37 2.114 . S
Mg28 O38 2.251 . S
Mg28 O41 2.010 . S
O29 Mg28 2.028 . S
O29 C32 1.250 . S
O30 Mg31 2.028 . S
O30 C32 1.248 . S
Mg31 O30 2.028 . S
Mg31 O36 2.032 . S
Mg31 O38 2.079 . S
C32 O29 1.250 . S
C32 O30 1.248 . S
C33 O34 1.264 . S
C33 O41 1.249 . S
O34 C33 1.264 . S
O35 Mg28 1.986 . S
O35 C39 1.246 . S
O36 Mg31 2.032 . S
O36 C39 1.259 . S
O37 Mg28 2.114 . S
O37 C40 1.252 . S
O38 Mg28 2.251 . S
O38 Mg31 2.079 . S
O38 C40 1.273 . S
C39 O35 1.246 . S
C39 O36 1.259 . S
C40 O37 1.252 . S
C40 O38 1.273 . S
O41 Mg28 2.010 . S
O41 C33 1.249 . S
Mg42 O43 2.028 . S
Mg42 O49 1.986 . S
Mg42 O51 2.114 . S
Mg42 O52 2.251 . S
Mg42 O55 2.010 . S
O43 Mg42 2.028 . S
O43 C46 1.250 . S
O44 Mg45 2.028 . S
O44 C46 1.248 . S
Mg45 O44 2.028 . S
Mg45 O50 2.032 1_556 S
Mg45 O52 2.079 . S
C46 O43 1.250 . S
C46 O44 1.248 . S
C47 O48 1.264 . S
C47 O55 1.249 . S
O48 C47 1.264 . S
O49 Mg42 1.986 . S
O49 C53 1.246 . S
O50 Mg45 2.032 1_554 S
O50 C53 1.259 1_554 S
O51 Mg42 2.114 . S
O51 C54 1.252 . S
O52 Mg42 2.251 . S
O52 Mg45 2.079 . S
O52 C54 1.273 . S
C53 O49 1.246 . S
C53 O50 1.259 1_556 S
C54 O51 1.252 . S
C54 O52 1.273 . S
O55 Mg42 2.010 . S
O55 C47 1.249 . S
Mg56 O57 2.028 1_565 S
Mg56 O63 1.986 . S
Mg56 O65 2.114 1_565 S
Mg56 O66 2.251 . S
Mg56 O69 2.010 . S
O57 Mg56 2.028 1_545 S
O57 C60 1.250 . S
O58 Mg59 2.028 1_545 S
O58 C60 1.248 . S
Mg59 O58 2.028 1_565 S
Mg59 O64 2.032 . S
Mg59 O66 2.079 . S
C60 O57 1.250 . S
C60 O58 1.248 . S
C61 O62 1.264 . S
C61 O69 1.249 . S
O62 C61 1.264 . S
O63 Mg56 1.986 . S
O63 C67 1.246 . S
O64 Mg59 2.032 . S
O64 C67 1.259 . S
O65 Mg56 2.114 1_545 S
O65 C68 1.252 . S
O66 Mg56 2.251 . S
O66 Mg59 2.079 . S
O66 C68 1.273 1_565 S
C67 O63 1.246 . S
C67 O64 1.259 . S
C68 O65 1.252 . S
C68 O66 1.273 1_545 S
O69 Mg56 2.010 . S
O69 C61 1.249 . S
Mg70 O71 2.028 . S
Mg70 O77 1.986 . S
Mg70 O79 2.114 . S
Mg70 O80 2.251 . S
Mg70 O83 2.010 . S
O71 Mg70 2.028 . S
O71 C74 1.250 . S
O72 Mg73 2.028 . S
O72 C74 1.248 . S
Mg73 O72 2.028 . S
Mg73 O78 2.032 . S
Mg73 O80 2.079 . S
C74 O71 1.250 . S
C74 O72 1.248 . S
C75 O76 1.264 . S
C75 O83 1.249 1_545 S
O76 C75 1.264 . S
O77 Mg70 1.986 . S
O77 C81 1.246 . S
O78 Mg73 2.032 . S
O78 C81 1.259 . S
O79 Mg70 2.114 . S
O79 C82 1.252 . S
O80 Mg70 2.251 . S
O80 Mg73 2.079 . S
O80 C82 1.273 . S
C81 O77 1.246 . S
C81 O78 1.259 . S
C82 O79 1.252 . S
C82 O80 1.273 . S
O83 Mg70 2.010 . S
O83 C75 1.249 1_565 S
Mg84 O85 2.028 . S
Mg84 O91 1.986 . S
Mg84 O93 2.114 . S
Mg84 O94 2.251 . S
Mg84 O97 2.010 . S
O85 Mg84 2.028 . S
O85 C88 1.250 . S
O86 Mg87 2.028 . S
O86 C88 1.248 . S
Mg87 O86 2.028 . S
Mg87 O92 2.032 . S
Mg87 O94 2.079 . S
C88 O85 1.250 . S
C88 O86 1.248 . S
C89 O90 1.264 . S
C89 O97 1.249 . S
O90 C89 1.264 . S
O91 Mg84 1.986 . S
O91 C95 1.246 . S
O92 Mg87 2.032 . S
O92 C95 1.259 . S
O93 Mg84 2.114 . S
O93 C96 1.252 . S
O94 Mg84 2.251 . S
O94 Mg87 2.079 . S
O94 C96 1.273 . S
C95 O91 1.246 . S
C95 O92 1.259 . S
C96 O93 1.252 . S
C96 O94 1.273 . S
O97 Mg84 2.010 . S
O97 C89 1.249 . S
Mg98 O99 2.028 . S
Mg98 O105 1.986 1_554 S
Mg98 O107 2.114 . S
Mg98 O108 2.251 . S
Mg98 O111 2.010 . S
O99 Mg98 2.028 . S
O99 C102 1.250 . S
O100 Mg101 2.028 . S
O100 C102 1.248 . S
Mg101 O100 2.028 . S
Mg101 O106 2.032 1_554 S
Mg101 O108 2.079 . S
C102 O99 1.250 . S
C102 O100 1.248 . S
C103 O104 1.264 . S
C103 O111 1.249 . S
O104 C103 1.264 . S
O105 Mg98 1.986 1_556 S
O105 C109 1.246 . S
O106 Mg101 2.032 1_556 S
O106 C109 1.259 . S
O107 Mg98 2.114 . S
O107 C110 1.252 . S
O108 Mg98 2.251 . S
O108 Mg101 2.079 . S
O108 C110 1.273 . S
C109 O105 1.246 . S
C109 O106 1.259 . S
C110 O107 1.252 . S
C110 O108 1.273 . S
O111 Mg98 2.010 . S
O111 C103 1.249 . S
Mg112 O113 2.028 . S
Mg112 O119 1.986 . S
Mg112 O121 2.114 . S
Mg112 O122 2.251 . S
Mg112 O125 2.010 . S
O113 Mg112 2.028 . S
O113 C116 1.250 . S
O114 Mg115 2.028 . S
O114 C116 1.248 . S
Mg115 O114 2.028 . S
Mg115 O120 2.032 . S
Mg115 O122 2.079 . S
C116 O113 1.250 . S
C116 O114 1.248 . S
C117 O118 1.264 . S
C117 O125 1.249 . S
O118 C117 1.264 . S
O119 Mg112 1.986 . S
O119 C123 1.246 . S
O120 Mg115 2.032 . S
O120 C123 1.259 . S
O121 Mg112 2.114 . S
O121 C124 1.252 . S
O122 Mg112 2.251 . S
O122 Mg115 2.079 . S
O122 C124 1.273 . S
C123 O119 1.246 . S
C123 O120 1.259 . S
C124 O121 1.252 . S
C124 O122 1.273 . S
O125 Mg112 2.010 . S
O125 C117 1.249 . S
Mg126 O127 2.028 . S
Mg126 O133 1.986 . S
Mg126 O135 2.098 1_655 S
Mg126 O136 2.251 . S
Mg126 O139 2.010 . S
O127 Mg126 2.028 . S
O127 C130 1.250 . S
O128 Mg129 2.028 . S
O128 C130 1.248 . S
Mg129 O128 2.028 . S
Mg129 O134 2.032 . S
Mg129 O136 2.079 . S
C130 O127 1.250 . S
C130 O128 1.248 . S
C131 O132 1.264 . S
C131 O139 1.249 1_455 S
O132 C131 1.264 . S
O133 Mg126 1.986 . S
O133 C137 1.246 . S
O134 Mg129 2.032 . S
O134 C137 1.259 . S
O135 Mg126 2.098 1_455 S
O135 C138 1.243 1_455 S
O136 Mg126 2.251 . S
O136 Mg129 2.079 . S
O136 C138 1.273 . S
C137 O133 1.246 . S
C137 O134 1.259 . S
C138 O135 1.243 1_655 S
C138 O136 1.273 . S
O139 Mg126 2.010 . S
O139 C131 1.249 1_655 S
Mg140 O141 2.028 . S
Mg140 O147 1.986 . S
Mg140 O149 2.114 . S
Mg140 O150 2.251 . S
Mg140 O153 2.010 . S
O141 Mg140 2.028 . S
O141 C144 1.250 . S
O142 Mg143 2.028 . S
O142 C144 1.248 . S
Mg143 O142 2.028 . S
Mg143 O148 2.032 . S
Mg143 O150 2.079 . S
C144 O141 1.250 . S
C144 O142 1.248 . S
C145 O146 1.264 . S
C145 O153 1.249 . S
O146 C145 1.264 . S
O147 Mg140 1.986 . S
O147 C151 1.246 . S
O148 Mg143 2.032 . S
O148 C151 1.259 . S
O149 Mg140 2.114 . S
O149 C152 1.252 . S
O150 Mg140 2.251 . S
O150 Mg143 2.079 . S
O150 C152 1.273 . S
C151 O147 1.246 . S
C151 O148 1.259 . S
C152 O149 1.252 . S
C152 O150 1.273 . S
O153 Mg140 2.010 . S
O153 C145 1.249 . S
Mg154 O155 2.028 . S
Mg154 O161 1.986 . S
Mg154 O163 2.114 . S
Mg154 O164 2.251 . S
Mg154 O167 2.010 . S
O155 Mg154 2.028 . S
O155 C158 1.250 . S
O156 Mg157 2.028 . S
O156 C158 1.248 . S
Mg157 O156 2.028 . S
Mg157 O162 2.032 . S
Mg157 O164 2.079 . S
C158 O155 1.250 . S
C158 O156 1.248 . S
C159 O160 1.264 . S
C159 O167 1.249 . S
O160 C159 1.264 . S
O161 Mg154 1.986 . S
O161 C165 1.246 . S
O162 Mg157 2.032 . S
O162 C165 1.259 . S
O163 Mg154 2.114 . S
O163 C166 1.252 . S
O164 Mg154 2.251 . S
O164 Mg157 2.079 . S
O164 C166 1.273 . S
C165 O161 1.246 . S
C165 O162 1.259 . S
C166 O163 1.252 . S
C166 O164 1.273 . S
O167 Mg154 2.010 . S
O167 C159 1.249 . S
Mg168 O169 2.028 . S
Mg168 O175 1.986 . S
Mg168 O177 2.114 . S
Mg168 O178 2.251 1_455 S
Mg168 O181 2.010 . S
O169 Mg168 2.028 . S
O169 C172 1.250 . S
O170 Mg171 2.028 1_554 S
O170 C172 1.248 1_654 S
Mg171 O170 2.028 1_556 S
Mg171 O176 2.032 1_556 S
Mg171 O178 2.079 . S
C172 O169 1.250 . S
C172 O170 1.248 1_456 S
C173 O174 1.264 . S
C173 O181 1.249 . S
O174 C173 1.264 . S
O175 Mg168 1.986 . S
O175 C179 1.254 . S
O176 Mg171 2.032 1_554 S
O176 C179 1.256 1_654 S
O177 Mg168 2.114 . S
O177 C180 1.252 1_455 S
O178 Mg168 2.251 1_655 S
O178 Mg171 2.079 . S
O178 C180 1.273 . S
C179 O175 1.254 . S
C179 O176 1.256 1_456 S
C180 O177 1.252 1_655 S
C180 O178 1.273 . S
O181 Mg168 2.010 . S
O181 C173 1.249 . S
Mg182 O183 2.028 1_655 S
Mg182 O189 1.986 1_655 S
Mg182 O191 2.114 . S
Mg182 O192 2.251 . S
Mg182 O195 2.010 1_655 S
O183 Mg182 2.028 1_455 S
O183 C186 1.250 1_455 S
O184 Mg185 2.028 . S
O184 C186 1.248 . S
Mg185 O184 2.028 . S
Mg185 O190 2.032 . S
Mg185 O192 2.079 . S
C186 O183 1.250 1_655 S
C186 O184 1.248 . S
C187 O188 1.264 . S
C187 O195 1.249 . S
O188 C187 1.264 . S
O189 Mg182 1.986 1_455 S
O189 C193 1.246 1_455 S
O190 Mg185 2.032 . S
O190 C193 1.259 . S
O191 Mg182 2.114 . S
O191 C194 1.252 . S
O192 Mg182 2.251 . S
O192 Mg185 2.079 . S
O192 C194 1.273 . S
C193 O189 1.246 1_655 S
C193 O190 1.259 . S
C194 O191 1.252 . S
C194 O192 1.273 . S
O195 Mg182 2.010 1_455 S
O195 C187 1.249 . S
Mg196 O197 2.028 . S
Mg196 O203 1.986 . S
Mg196 O205 2.114 . S
Mg196 O206 2.251 . S
Mg196 O209 2.010 . S
O197 Mg196 2.028 . S
O197 C200 1.250 . S
O198 Mg199 2.028 . S
O198 C200 1.248 . S
Mg199 O198 2.028 . S
Mg199 O204 2.032 . S
Mg199 O206 2.079 . S
C200 O197 1.250 . S
C200 O198 1.248 . S
C201 O202 1.264 . S
C201 O209 1.249 . S
O202 C201 1.264 . S
O203 Mg196 1.986 . S
O203 C207 1.246 . S
O204 Mg199 2.032 . S
O204 C207 1.259 . S
O205 Mg196 2.114 . S
O205 C208 1.252 . S
O206 Mg196 2.251 . S
O206 Mg199 2.079 . S
O206 C208 1.273 . S
C207 O203 1.246 . S
C207 O204 1.259 . S
C208 O205 1.252 . S
C208 O206 1.273 . S
O209 Mg196 2.010 . S
O209 C201 1.249 . S
Mg210 O211 2.028 . S
Mg210 O217 1.986 . S
Mg210 O219 2.114 . S
Mg210 O220 2.251 . S
Mg210 O223 2.010 . S
O211 Mg210 2.028 . S
O211 C214 1.250 . S
O212 Mg213 2.028 . S
O212 C214 1.248 . S
Mg213 O212 2.028 . S
Mg213 O218 2.032 . S
Mg213 O220 2.079 . S
C214 O211 1.250 . S
C214 O212 1.248 . S
C215 O216 1.264 . S
C215 O223 1.249 . S
O216 C215 1.264 . S
O217 Mg210 1.986 . S
O217 C221 1.246 . S
O218 Mg213 2.032 . S
O218 C221 1.259 . S
O219 Mg210 2.114 . S
O219 C222 1.252 . S
O220 Mg210 2.251 . S
O220 Mg213 2.079 . S
O220 C222 1.273 . S
C221 O217 1.246 . S
C221 O218 1.259 . S
C222 O219 1.252 . S
C222 O220 1.273 . S
O223 Mg210 2.010 . S
O223 C215 1.249 . S
Mg224 O225 2.028 . S
Mg224 O231 1.986 . S
Mg224 O233 2.114 . S
Mg224 O234 2.251 . S
Mg224 O237 2.010 . S
O225 Mg224 2.028 . S
O225 C228 1.250 . S
O226 Mg227 2.028 . S
O226 C228 1.248 . S
Mg227 O226 2.028 . S
Mg227 O232 2.032 . S
Mg227 O234 2.079 . S
C228 O225 1.250 . S
C228 O226 1.248 . S
C229 O230 1.264 . S
C229 O237 1.249 1_455 S
O230 C229 1.264 . S
O231 Mg224 1.986 . S
O231 C235 1.246 . S
O232 Mg227 2.032 . S
O232 C235 1.259 . S
O233 Mg224 2.114 . S
O233 C236 1.252 . S
O234 Mg224 2.251 . S
O234 Mg227 2.079 . S
O234 C236 1.273 . S
C235 O231 1.246 . S
C235 O232 1.259 . S
C236 O233 1.252 . S
C236 O234 1.273 . S
O237 Mg224 2.010 . S
O237 C229 1.249 1_655 S
Mg238 O239 2.028 . S
Mg238 O245 1.986 . S
Mg238 O247 2.114 . S
Mg238 O248 2.251 . S
Mg238 O251 2.010 . S
O239 Mg238 2.028 . S
O239 C242 1.250 . S
O240 Mg241 2.028 . S
O240 C242 1.248 . S
Mg241 O240 2.028 . S
Mg241 O246 2.032 . S
Mg241 O248 2.079 . S
C242 O239 1.250 . S
C242 O240 1.248 . S
C243 O244 1.264 . S
C243 O251 1.249 . S
O244 C243 1.264 . S
O245 Mg238 1.986 . S
O245 C249 1.246 . S
O246 Mg241 2.032 . S
O246 C249 1.259 . S
O247 Mg238 2.114 . S
O247 C250 1.252 . S
O248 Mg238 2.251 . S
O248 Mg241 2.079 . S
O248 C250 1.273 . S
C249 O245 1.246 . S
C249 O246 1.259 . S
C250 O247 1.252 . S
C250 O248 1.273 . S
O251 Mg238 2.010 . S
O251 C243 1.249 . S
Mg252 O253 2.028 1_565 S
Mg252 O259 1.986 . S
Mg252 O261 2.114 1_565 S
Mg252 O262 2.251 . S
Mg252 O265 2.010 . S
O253 Mg252 2.028 1_545 S
O253 C256 1.250 . S
O254 Mg255 2.028 1_545 S
O254 C256 1.248 . S
Mg255 O254 2.028 1_565 S
Mg255 O260 2.032 . S
Mg255 O262 2.079 . S
C256 O253 1.250 . S
C256 O254 1.248 . S
C257 O258 1.264 . S
C257 O265 1.249 . S
O258 C257 1.264 . S
O259 Mg252 1.986 . S
O259 C263 1.246 . S
O260 Mg255 2.032 . S
O260 C263 1.259 . S
O261 Mg252 2.114 1_545 S
O261 C264 1.252 . S
O262 Mg252 2.251 . S
O262 Mg255 2.079 . S
O262 C264 1.273 1_565 S
C263 O259 1.246 . S
C263 O260 1.259 . S
C264 O261 1.252 . S
C264 O262 1.273 1_545 S
O265 Mg252 2.010 . S
O265 C257 1.249 . S
Mg266 O267 2.028 . S
Mg266 O273 1.986 . S
Mg266 O275 2.106 1_565 S
Mg266 O276 2.251 . S
Mg266 O279 2.010 . S
O267 Mg266 2.028 . S
O267 C270 1.251 1_554 S
O268 Mg269 2.028 1_556 S
O268 C270 1.248 . S
Mg269 O268 2.028 1_554 S
Mg269 O274 2.032 . S
Mg269 O276 2.079 . S
C270 O267 1.251 1_556 S
C270 O268 1.248 . S
C271 O272 1.264 . S
C271 O279 1.249 1_545 S
O272 C271 1.264 . S
O273 Mg266 1.986 . S
O273 C277 1.246 . S
O274 Mg269 2.032 . S
O274 C277 1.259 . S
O275 Mg266 2.106 1_545 S
O275 C278 1.247 1_545 S
O276 Mg266 2.251 . S
O276 Mg269 2.079 . S
O276 C278 1.273 . S
C277 O273 1.246 . S
C277 O274 1.259 . S
C278 O275 1.247 1_565 S
C278 O276 1.273 . S
O279 Mg266 2.010 . S
O279 C271 1.249 1_565 S
Mg280 O281 2.028 1_556 S
Mg280 O287 1.986 . S
Mg280 O289 2.114 1_556 S
Mg280 O290 2.251 . S
Mg280 O293 2.010 . S
O281 Mg280 2.028 1_554 S
O281 C284 1.250 . S
O282 Mg283 2.028 1_554 S
O282 C284 1.248 . S
Mg283 O282 2.028 1_556 S
Mg283 O288 2.032 . S
Mg283 O290 2.079 . S
C284 O281 1.250 . S
C284 O282 1.248 . S
C285 O286 1.264 . S
C285 O293 1.249 . S
O286 C285 1.264 . S
O287 Mg280 1.986 . S
O287 C291 1.246 . S
O288 Mg283 2.032 . S
O288 C291 1.259 . S
O289 Mg280 2.114 1_554 S
O289 C292 1.252 1_554 S
O290 Mg280 2.251 . S
O290 Mg283 2.079 . S
O290 C292 1.273 . S
C291 O287 1.246 . S
C291 O288 1.259 . S
C292 O289 1.252 1_556 S
C292 O290 1.273 . S
O293 Mg280 2.010 . S
O293 C285 1.249 . S
Mg294 O295 2.028 . S
Mg294 O301 1.986 . S
Mg294 O303 2.114 . S
Mg294 O304 2.251 . S
Mg294 O307 2.010 . S
O295 Mg294 2.028 . S
O295 C298 1.250 . S
O296 Mg297 2.028 . S
O296 C298 1.248 . S
Mg297 O296 2.028 . S
Mg297 O302 2.032 . S
Mg297 O304 2.079 . S
C298 O295 1.250 . S
C298 O296 1.248 . S
C299 O300 1.264 . S
C299 O307 1.249 . S
O300 C299 1.264 . S
O301 Mg294 1.986 . S
O301 C305 1.246 . S
O302 Mg297 2.032 . S
O302 C305 1.259 . S
O303 Mg294 2.114 . S
O303 C306 1.252 . S
O304 Mg294 2.251 . S
O304 Mg297 2.079 . S
O304 C306 1.273 . S
C305 O301 1.246 . S
C305 O302 1.259 . S
C306 O303 1.252 . S
C306 O304 1.273 . S
O307 Mg294 2.010 . S
O307 C299 1.249 . S
Mg308 O309 2.028 . S
Mg308 O315 1.986 . S
Mg308 O317 2.114 . S
Mg308 O318 2.251 . S
Mg308 O321 2.010 . S
O309 Mg308 2.028 . S
O309 C312 1.250 . S
O310 Mg311 2.028 . S
O310 C312 1.248 . S
Mg311 O310 2.028 . S
Mg311 O316 2.032 . S
Mg311 O318 2.079 . S
C312 O309 1.250 . S
C312 O310 1.248 . S
C313 O314 1.264 . S
C313 O321 1.249 . S
O314 C313 1.264 . S
O315 Mg308 1.986 . S
O315 C319 1.246 . S
O316 Mg311 2.032 . S
O316 C319 1.259 . S
O317 Mg308 2.114 . S
O317 C320 1.252 . S
O318 Mg308 2.251 . S
O318 Mg311 2.079 . S
O318 C320 1.273 . S
C319 O315 1.246 . S
C319 O316 1.259 . S
C320 O317 1.252 . S
C320 O318 1.273 . S
O321 Mg308 2.010 . S
O321 C313 1.249 . S
Mg322 O323 2.028 . S
Mg322 O329 1.986 . S
Mg322 O331 2.114 . S
Mg322 O332 2.251 . S
Mg322 O335 2.010 . S
O323 Mg322 2.028 . S
O323 C326 1.250 . S
O324 Mg325 2.028 . S
O324 C326 1.248 . S
Mg325 O324 2.028 . S
Mg325 O330 2.032 . S
Mg325 O332 2.079 . S
C326 O323 1.250 . S
C326 O324 1.248 . S
C327 O328 1.264 . S
C327 O335 1.249 . S
O328 C327 1.264 . S
O329 Mg322 1.986 . S
O329 C333 1.246 . S
O330 Mg325 2.032 . S
O330 C333 1.259 . S
O331 Mg322 2.114 . S
O331 C334 1.252 . S
O332 Mg322 2.251 . S
O332 Mg325 2.079 . S
O332 C334 1.273 . S
C333 O329 1.246 . S
C333 O330 1.259 . S
C334 O331 1.252 . S
C334 O332 1.273 . S
O335 Mg322 2.010 . S
O335 C327 1.249 . S
Co336 N341 2.057 . S
Co336 O353 2.021 1_545 S
Co336 O356 2.062 1_456 S
Co336 O360 2.117 1_556 S
Co336 O361 2.020 . S
C337 O357 1.259 . S
C337 O360 1.258 . S
Co338 N347 2.057 1_545 S
Co338 O354 2.117 1_545 S
Co338 O355 2.020 1_455 S
Co338 O357 2.021 . S
Co338 O362 2.062 . S
C339 N341 1.316 . S
C339 N342 1.347 1_455 S
C339 H344 0.931 . S
C340 N341 1.375 1_655 S
C340 C343 1.350 . S
C340 H345 0.931 . S
N341 Co336 2.057 . S
N341 C339 1.316 . S
N341 C340 1.375 1_455 S
N342 C339 1.347 1_655 S
N342 C343 1.373 . S
C343 C340 1.350 . S
C343 N342 1.373 . S
C343 H364 0.931 . S
H344 C339 0.931 . S
H345 C340 0.931 . S
C346 O353 1.259 1_554 S
C346 O354 1.258 . S
N347 Co338 2.057 1_565 S
N347 C348 1.316 1_565 S
N347 C349 1.375 . S
C348 N347 1.316 1_545 S
C348 N350 1.347 1_545 S
C348 H359 0.931 . S
C349 N347 1.375 . S
C349 C351 1.350 . S
C349 H358 0.930 . S
N350 C348 1.347 1_565 S
N350 C351 1.373 . S
C351 C349 1.350 . S
C351 N350 1.373 . S
C351 H365 0.931 . S
C352 O355 1.256 . S
C352 O356 1.255 . S
O353 Co336 2.021 1_565 S
O353 C346 1.259 1_556 S
O354 Co338 2.117 1_565 S
O354 C346 1.258 . S
O355 Co338 2.020 1_655 S
O355 C352 1.256 . S
O356 Co336 2.062 1_654 S
O356 C352 1.255 . S
O357 C337 1.259 . S
O357 Co338 2.021 . S
H358 C349 0.930 . S
H359 C348 0.931 . S
O360 Co336 2.117 1_554 S
O360 C337 1.258 . S
O361 Co336 2.020 . S
O361 C363 1.256 1_556 S
O362 Co338 2.062 . S
O362 C363 1.255 . S
C363 O361 1.256 1_554 S
C363 O362 1.255 . S
H364 C343 0.931 . S
H365 C351 0.931 . S
Co366 N371 2.057 . S
Co366 O383 2.021 . S
Co366 O386 2.062 . S
Co366 O390 2.117 . S
Co366 O391 2.020 . S
C367 O387 1.259 . S
C367 O390 1.258 . S
Co368 N377 2.057 . S
Co368 O384 2.117 . S
Co368 O385 2.020 . S
Co368 O387 2.021 . S
Co368 O392 2.062 . S
C369 N371 1.316 . S
C369 N372 1.347 . S
C369 H374 0.931 . S
C370 N371 1.375 . S
C370 C373 1.350 . S
C370 H375 0.930 . S
N371 Co366 2.057 . S
N371 C369 1.316 . S
N371 C370 1.375 . S
N372 C369 1.347 . S
N372 C373 1.373 . S
C373 C370 1.350 . S
C373 N372 1.373 . S
C373 H394 0.931 . S
H374 C369 0.931 . S
H375 C370 0.930 . S
C376 O383 1.259 . S
C376 O384 1.258 . S
N377 Co368 2.057 . S
N377 C378 1.316 . S
N377 C379 1.375 . S
C378 N377 1.316 . S
C378 N380 1.347 . S
C378 H389 0.931 . S
C379 N377 1.375 . S
C379 C381 1.350 . S
C379 H388 0.930 . S
N380 C378 1.347 . S
N380 C381 1.373 . S
C381 C379 1.350 . S
C381 N380 1.373 . S
C381 H395 0.931 . S
C382 O385 1.256 . S
C382 O386 1.255 . S
O383 Co366 2.021 . S
O383 C376 1.259 . S
O384 Co368 2.117 . S
O384 C376 1.258 . S
O385 Co368 2.020 . S
O385 C382 1.256 . S
O386 Co366 2.062 . S
O386 C382 1.255 . S
O387 C367 1.259 . S
O387 Co368 2.021 . S
H388 C379 0.930 . S
H389 C378 0.931 . S
O390 Co366 2.117 . S
O390 C367 1.258 . S
O391 Co366 2.020 . S
O391 C393 1.256 . S
O392 Co368 2.062 . S
O392 C393 1.255 . S
C393 O391 1.256 . S
C393 O392 1.255 . S
H394 C373 0.931 . S
H395 C381 0.931 . S
Co396 N401 2.057 . S
Co396 O413 2.021 1_545 S
Co396 O416 2.062 . S
Co396 O420 2.117 . S
Co396 O421 2.020 . S
C397 O417 1.259 . S
C397 O420 1.258 . S
Co398 N407 2.057 . S
Co398 O414 2.117 1_545 S
Co398 O415 2.020 . S
Co398 O417 2.021 . S
Co398 O422 2.062 . S
C399 N401 1.316 1_565 S
C399 N402 1.347 . S
C399 H404 0.931 . S
C400 N401 1.375 . S
C400 C403 1.350 . S
C400 H405 0.930 . S
N401 Co396 2.057 . S
N401 C399 1.316 1_545 S
N401 C400 1.375 . S
N402 C399 1.347 . S
N402 C403 1.373 1_565 S
C403 C400 1.350 . S
C403 N402 1.373 1_545 S
C403 H424 0.931 . S
H404 C399 0.931 . S
H405 C400 0.930 . S
C406 O413 1.259 . S
C406 O414 1.258 . S
N407 Co398 2.057 . S
N407 C408 1.316 . S
N407 C409 1.375 . S
C408 N407 1.316 . S
C408 N410 1.347 . S
C408 H419 0.931 . S
C409 N407 1.375 . S
C409 C411 1.350 . S
C409 H418 0.930 . S
N410 C408 1.347 . S
N410 C411 1.373 . S
C411 C409 1.350 . S
C411 N410 1.373 . S
C411 H425 0.931 . S
C412 O415 1.256 . S
C412 O416 1.255 . S
O413 Co396 2.021 1_565 S
O413 C406 1.259 . S
O414 Co398 2.117 1_565 S
O414 C406 1.258 . S
O415 Co398 2.020 . S
O415 C412 1.256 . S
O416 Co396 2.062 . S
O416 C412 1.255 . S
O417 C397 1.259 . S
O417 Co398 2.021 . S
H418 C409 0.930 . S
H419 C408 0.931 . S
O420 Co396 2.117 . S
O420 C397 1.258 . S
O421 Co396 2.020 . S
O421 C423 1.256 . S
O422 Co398 2.062 . S
O422 C423 1.255 . S
C423 O421 1.256 . S
C423 O422 1.255 . S
H424 C403 0.931 . S
H425 C411 0.931 . S
Co426 N431 2.057 . S
Co426 O443 2.021 . S
Co426 O446 2.062 . S
Co426 O450 2.117 . S
Co426 O451 2.020 . S
C427 O447 1.259 . S
C427 O450 1.258 . S
Co428 N437 2.057 . S
Co428 O444 2.117 . S
Co428 O445 2.020 . S
Co428 O447 2.021 . S
Co428 O452 2.062 . S
C429 N431 1.316 . S
C429 N432 1.347 . S
C429 H434 0.931 . S
C430 N431 1.375 . S
C430 C433 1.350 . S
C430 H435 0.930 . S
N431 Co426 2.057 . S
N431 C429 1.316 . S
N431 C430 1.375 . S
N432 C429 1.347 . S
N432 C433 1.373 . S
C433 C430 1.350 . S
C433 N432 1.373 . S
C433 H454 0.931 . S
H434 C429 0.931 . S
H435 C430 0.930 . S
C436 O443 1.259 . S
C436 O444 1.258 . S
N437 Co428 2.057 . S
N437 C438 1.316 . S
N437 C439 1.375 . S
C438 N437 1.316 . S
C438 N440 1.347 . S
C438 H449 0.931 . S
C439 N437 1.375 . S
C439 C441 1.350 . S
C439 H448 0.930 . S
N440 C438 1.347 . S
N440 C441 1.373 . S
C441 C439 1.350 . S
C441 N440 1.373 . S
C441 H455 0.931 . S
C442 O445 1.256 . S
C442 O446 1.255 . S
O443 Co426 2.021 . S
O443 C436 1.259 . S
O444 Co428 2.117 . S
O444 C436 1.258 . S
O445 Co428 2.020 . S
O445 C442 1.256 . S
O446 Co426 2.062 . S
O446 C442 1.255 . S
O447 C427 1.259 . S
O447 Co428 2.021 . S
H448 C439 0.930 . S
H449 C438 0.931 . S
O450 Co426 2.117 . S
O450 C427 1.258 . S
O451 Co426 2.020 . S
O451 C453 1.256 . S
O452 Co428 2.062 . S
O452 C453 1.255 . S
C453 O451 1.256 . S
C453 O452 1.255 . S
H454 C433 0.931 . S
H455 C441 0.931 . S
Co456 N461 2.057 1_545 S
Co456 O473 2.021 . S
Co456 O476 2.062 1_545 S
Co456 O480 2.117 . S
Co456 O481 2.020 1_455 S
C457 O477 1.268 . S
C457 O480 1.259 . S
Co458 N467 2.057 . S
Co458 O474 2.117 . S
Co458 O475 2.020 . S
Co458 O477 2.021 . S
Co458 O482 2.062 1_455 S
C459 N461 1.316 . S
C459 N462 1.347 . S
C459 H464 0.931 . S
C460 N461 1.375 1_655 S
C460 C463 1.350 . S
C460 H465 0.930 . S
N461 Co456 2.057 1_565 S
N461 C459 1.316 . S
N461 C460 1.375 1_455 S
N462 C459 1.347 . S
N462 C463 1.373 1_455 S
C463 C460 1.350 . S
C463 N462 1.373 1_655 S
C463 H484 0.931 . S
H464 C459 0.931 . S
H465 C460 0.930 . S
C466 O473 1.259 . S
C466 O474 1.258 . S
N467 Co458 2.057 . S
N467 C468 1.316 . S
N467 C469 1.375 . S
C468 N467 1.316 . S
C468 N470 1.347 . S
C468 H479 0.931 . S
C469 N467 1.375 . S
C469 C471 1.350 . S
C469 H478 0.930 . S
N470 C468 1.347 . S
N470 C471 1.373 . S
C471 C469 1.350 . S
C471 N470 1.373 . S
C471 H485 0.931 . S
C472 O475 1.256 . S
C472 O476 1.255 1_545 S
O473 Co456 2.021 . S
O473 C466 1.259 . S
O474 Co458 2.117 . S
O474 C466 1.258 . S
O475 Co458 2.020 . S
O475 C472 1.256 . S
O476 Co456 2.062 1_565 S
O476 C472 1.255 1_565 S
O477 C457 1.268 . S
O477 Co458 2.021 . S
H478 C469 0.930 . S
H479 C468 0.931 . S
O480 Co456 2.117 . S
O480 C457 1.259 . S
O481 Co456 2.020 1_655 S
O481 C483 1.256 . S
O482 Co458 2.062 1_655 S
O482 C483 1.255 . S
C483 O481 1.256 . S
C483 O482 1.255 . S
H484 C463 0.931 . S
H485 C471 0.931 . S
Co486 N491 2.057 . S
Co486 O503 2.021 . S
Co486 O506 2.062 . S
Co486 O510 2.117 . S
Co486 O511 2.020 . S
C487 O507 1.259 . S
C487 O510 1.258 . S
Co488 N497 2.057 . S
Co488 O504 2.117 . S
Co488 O505 2.020 . S
Co488 O507 2.021 . S
Co488 O512 2.062 . S
C489 N491 1.316 . S
C489 N492 1.347 1_565 S
C489 H494 0.931 . S
C490 N491 1.375 . S
C490 C493 1.350 1_565 S
C490 H495 0.930 . S
N491 Co486 2.057 . S
N491 C489 1.316 . S
N491 C490 1.375 . S
N492 C489 1.347 1_545 S
N492 C493 1.373 . S
C493 C490 1.350 1_545 S
C493 N492 1.373 . S
C493 H514 0.931 . S
H494 C489 0.931 . S
H495 C490 0.930 . S
C496 O503 1.259 . S
C496 O504 1.258 . S
N497 Co488 2.057 . S
N497 C498 1.316 . S
N497 C499 1.375 . S
C498 N497 1.316 . S
C498 N500 1.347 . S
C498 H509 0.931 . S
C499 N497 1.375 . S
C499 C501 1.350 . S
C499 H508 0.930 . S
N500 C498 1.347 . S
N500 C501 1.373 . S
C501 C499 1.350 . S
C501 N500 1.373 . S
C501 H515 0.931 . S
C502 O505 1.256 . S
C502 O506 1.255 . S
O503 Co486 2.021 . S
O503 C496 1.259 . S
O504 Co488 2.117 . S
O504 C496 1.258 . S
O505 Co488 2.020 . S
O505 C502 1.256 . S
O506 Co486 2.062 . S
O506 C502 1.255 . S
O507 C487 1.259 . S
O507 Co488 2.021 . S
H508 C499 0.930 . S
H509 C498 0.931 . S
O510 Co486 2.117 . S
O510 C487 1.258 . S
O511 Co486 2.020 . S
O511 C513 1.256 . S
O512 Co488 2.062 . S
O512 C513 1.255 . S
C513 O511 1.256 . S
C513 O512 1.255 . S
H514 C493 0.931 . S
H515 C501 0.931 . S
Co516 N521 2.057 1_554 S
Co516 O533 2.021 . S
Co516 O536 2.062 1_554 S
Co516 O540 2.115 . S
Co516 O541 2.020 1_545 S
C517 O537 1.259 . S
C517 O540 1.272 . S
Co518 N527 2.057 . S
Co518 O534 2.117 . S
Co518 O535 2.020 . S
Co518 O537 2.021 . S
Co518 O542 2.062 1_545 S
C519 N521 1.316 . S
C519 N522 1.347 . S
C519 H524 0.931 . S
C520 N521 1.375 1_565 S
C520 C523 1.350 . S
C520 H525 0.930 . S
N521 Co516 2.057 1_556 S
N521 C519 1.316 . S
N521 C520 1.375 1_545 S
N522 C519 1.347 . S
N522 C523 1.373 1_545 S
C523 C520 1.350 . S
C523 N522 1.373 1_565 S
C523 H544 0.931 . S
H524 C519 0.931 . S
H525 C520 0.930 . S
C526 O533 1.259 . S
C526 O534 1.258 . S
N527 Co518 2.057 . S
N527 C528 1.316 . S
N527 C529 1.375 . S
C528 N527 1.316 . S
C528 N530 1.347 . S
C528 H539 0.931 . S
C529 N527 1.375 . S
C529 C531 1.350 . S
C529 H538 0.930 . S
N530 C528 1.347 . S
N530 C531 1.373 . S
C531 C529 1.350 . S
C531 N530 1.373 . S
C531 H545 0.931 . S
C532 O535 1.256 . S
C532 O536 1.255 1_554 S
O533 Co516 2.021 . S
O533 C526 1.259 . S
O534 Co518 2.117 . S
O534 C526 1.258 . S
O535 Co518 2.020 . S
O535 C532 1.256 . S
O536 Co516 2.062 1_556 S
O536 C532 1.255 1_556 S
O537 C517 1.259 . S
O537 Co518 2.021 . S
H538 C529 0.930 . S
H539 C528 0.931 . S
O540 Co516 2.115 . S
O540 C517 1.272 . S
O541 Co516 2.020 1_565 S
O541 C543 1.256 . S
O542 Co518 2.062 1_565 S
O542 C543 1.255 . S
C543 O541 1.256 . S
C543 O542 1.255 . S
H544 C523 0.931 . S
H545 C531 0.931 . S
Co546 N551 2.057 . S
Co546 O563 2.021 . S
Co546 O566 2.062 . S
Co546 O570 2.117 . S
Co546 O571 2.020 . S
C547 O567 1.259 . S
C547 O570 1.258 . S
Co548 N557 2.057 . S
Co548 O564 2.117 . S
Co548 O565 2.020 . S
Co548 O567 2.021 . S
Co548 O572 2.062 . S
C549 N551 1.316 . S
C549 N552 1.347 . S
C549 H554 0.931 . S
C550 N551 1.375 . S
C550 C553 1.350 . S
C550 H555 0.930 . S
N551 Co546 2.057 . S
N551 C549 1.316 . S
N551 C550 1.375 . S
N552 C549 1.347 . S
N552 C553 1.373 . S
C553 C550 1.350 . S
C553 N552 1.373 . S
C553 H574 0.931 . S
H554 C549 0.931 . S
H555 C550 0.930 . S
C556 O563 1.259 . S
C556 O564 1.258 . S
N557 Co548 2.057 . S
N557 C558 1.316 . S
N557 C559 1.375 . S
C558 N557 1.316 . S
C558 N560 1.347 . S
C558 H569 0.931 . S
C559 N557 1.375 . S
C559 C561 1.350 . S
C559 H568 0.930 . S
N560 C558 1.347 . S
N560 C561 1.373 . S
C561 C559 1.350 . S
C561 N560 1.373 . S
C561 H575 0.931 . S
C562 O565 1.256 . S
C562 O566 1.255 . S
O563 Co546 2.021 . S
O563 C556 1.259 . S
O564 Co548 2.117 . S
O564 C556 1.258 . S
O565 Co548 2.020 . S
O565 C562 1.256 . S
O566 Co546 2.062 . S
O566 C562 1.255 . S
O567 C547 1.259 . S
O567 Co548 2.021 . S
H568 C559 0.930 . S
H569 C558 0.931 . S
O570 Co546 2.117 . S
O570 C547 1.258 . S
O571 Co546 2.020 . S
O571 C573 1.256 . S
O572 Co548 2.062 . S
O572 C573 1.255 . S
C573 O571 1.256 . S
C573 O572 1.255 . S
H574 C553 0.931 . S
H575 C561 0.931 . S
Co576 N581 2.057 . S
Co576 O593 2.021 1_554 S
Co576 O596 2.062 . S
Co576 O600 2.117 . S
Co576 O601 2.020 . S
C577 O597 1.259 . S
C577 O600 1.258 . S
Co578 N587 2.057 . S
Co578 O594 2.117 1_554 S
Co578 O595 2.020 . S
Co578 O597 2.021 . S
Co578 O602 2.062 . S
C579 N581 1.316 1_556 S
C579 N582 1.347 . S
C579 H584 0.931 . S
C580 N581 1.375 . S
C580 C583 1.350 . S
C580 H585 0.930 . S
N581 Co576 2.057 . S
N581 C579 1.316 1_554 S
N581 C580 1.375 . S
N582 C579 1.347 . S
N582 C583 1.373 1_556 S
C583 C580 1.350 . S
C583 N582 1.373 1_554 S
C583 H604 0.931 . S
H584 C579 0.931 . S
H585 C580 0.930 . S
C586 O593 1.259 . S
C586 O594 1.258 . S
N587 Co578 2.057 . S
N587 C588 1.316 . S
N587 C589 1.375 . S
C588 N587 1.316 . S
C588 N590 1.347 . S
C588 H599 0.931 . S
C589 N587 1.375 . S
C589 C591 1.350 . S
C589 H598 0.930 . S
N590 C588 1.347 . S
N590 C591 1.373 . S
C591 C589 1.350 . S
C591 N590 1.373 . S
C591 H605 0.931 . S
C592 O595 1.256 . S
C592 O596 1.255 . S
O593 Co576 2.021 1_556 S
O593 C586 1.259 . S
O594 Co578 2.117 1_556 S
O594 C586 1.258 . S
O595 Co578 2.020 . S
O595 C592 1.256 . S
O596 Co576 2.062 . S
O596 C592 1.255 . S
O597 C577 1.259 . S
O597 Co578 2.021 . S
H598 C589 0.930 . S
H599 C588 0.931 . S
O600 Co576 2.117 . S
O600 C577 1.258 . S
O601 Co576 2.020 . S
O601 C603 1.256 . S
O602 Co578 2.062 . S
O602 C603 1.255 . S
C603 O601 1.256 . S
C603 O602 1.255 . S
H604 C583 0.931 . S
H605 C591 0.931 . S
Co606 N611 2.057 . S
Co606 O623 2.021 . S
Co606 O626 2.062 . S
Co606 O630 2.117 . S
Co606 O631 2.020 . S
C607 O627 1.259 . S
C607 O630 1.258 . S
Co608 N617 2.057 . S
Co608 O624 2.117 . S
Co608 O625 2.020 . S
Co608 O627 2.021 . S
Co608 O632 2.062 . S
C609 N611 1.316 . S
C609 N612 1.347 . S
C609 H614 0.931 . S
C610 N611 1.375 . S
C610 C613 1.350 . S
C610 H615 0.930 . S
N611 Co606 2.057 . S
N611 C609 1.316 . S
N611 C610 1.375 . S
N612 C609 1.347 . S
N612 C613 1.373 . S
C613 C610 1.350 . S
C613 N612 1.373 . S
C613 H634 0.931 . S
H614 C609 0.931 . S
H615 C610 0.930 . S
C616 O623 1.259 . S
C616 O624 1.258 . S
N617 Co608 2.057 . S
N617 C618 1.316 . S
N617 C619 1.375 . S
C618 N617 1.316 . S
C618 N620 1.347 . S
C618 H629 0.931 . S
C619 N617 1.375 . S
C619 C621 1.350 . S
C619 H628 0.930 . S
N620 C618 1.347 . S
N620 C621 1.373 . S
C621 C619 1.350 . S
C621 N620 1.373 . S
C621 H635 0.931 . S
C622 O625 1.256 . S
C622 O626 1.255 . S
O623 Co606 2.021 . S
O623 C616 1.259 . S
O624 Co608 2.117 . S
O624 C616 1.258 . S
O625 Co608 2.020 . S
O625 C622 1.256 . S
O626 Co606 2.062 . S
O626 C622 1.255 . S
O627 C607 1.259 . S
O627 Co608 2.021 . S
H628 C619 0.930 . S
H629 C618 0.931 . S
O630 Co606 2.117 . S
O630 C607 1.258 . S
O631 Co606 2.020 . S
O631 C633 1.256 . S
O632 Co608 2.062 . S
O632 C633 1.255 . S
C633 O631 1.256 . S
C633 O632 1.255 . S
H634 C613 0.931 . S
H635 C621 0.931 . S
Co636 N641 2.057 . S
Co636 O653 2.021 1_455 S
Co636 O656 2.062 . S
Co636 O660 2.117 . S
Co636 O661 2.020 . S
C637 O657 1.259 . S
C637 O660 1.258 . S
Co638 N647 2.057 . S
Co638 O654 2.117 1_455 S
Co638 O655 2.020 . S
Co638 O657 2.021 . S
Co638 O662 2.062 . S
C639 N641 1.316 1_655 S
C639 N642 1.347 . S
C639 H644 0.931 . S
C640 N641 1.375 . S
C640 C643 1.350 . S
C640 H645 0.930 . S
N641 Co636 2.057 . S
N641 C639 1.316 1_455 S
N641 C640 1.375 . S
N642 C639 1.347 . S
N642 C643 1.373 1_655 S
C643 C640 1.350 . S
C643 N642 1.373 1_455 S
C643 H664 0.931 . S
H644 C639 0.931 . S
H645 C640 0.930 . S
C646 O653 1.259 . S
C646 O654 1.258 . S
N647 Co638 2.057 . S
N647 C648 1.316 . S
N647 C649 1.375 . S
C648 N647 1.316 . S
C648 N650 1.347 . S
C648 H659 0.931 . S
C649 N647 1.375 . S
C649 C651 1.350 . S
C649 H658 0.930 . S
N650 C648 1.347 . S
N650 C651 1.373 . S
C651 C649 1.350 . S
C651 N650 1.373 . S
C651 H665 0.931 . S
C652 O655 1.256 . S
C652 O656 1.255 . S
O653 Co636 2.021 1_655 S
O653 C646 1.259 . S
O654 Co638 2.117 1_655 S
O654 C646 1.258 . S
O655 Co638 2.020 . S
O655 C652 1.256 . S
O656 Co636 2.062 . S
O656 C652 1.255 . S
O657 C637 1.259 . S
O657 Co638 2.021 . S
H658 C649 0.930 . S
H659 C648 0.931 . S
O660 Co636 2.117 . S
O660 C637 1.258 . S
O661 Co636 2.020 . S
O661 C663 1.256 . S
O662 Co638 2.062 . S
O662 C663 1.255 . S
C663 O661 1.256 . S
C663 O662 1.255 . S
H664 C643 0.931 . S
H665 C651 0.931 . S
Co666 N671 2.057 . S
Co666 O683 2.021 . S
Co666 O686 2.062 . S
Co666 O690 2.117 . S
Co666 O691 2.020 . S
C667 O687 1.259 . S
C667 O690 1.258 . S
Co668 N677 2.057 . S
Co668 O684 2.117 . S
Co668 O685 2.020 . S
Co668 O687 2.021 . S
Co668 O692 2.062 . S
C669 N671 1.316 . S
C669 N672 1.347 1_655 S
C669 H674 0.931 . S
C670 N671 1.375 . S
C670 C673 1.350 1_655 S
C670 H675 0.930 . S
N671 Co666 2.057 . S
N671 C669 1.316 . S
N671 C670 1.375 . S
N672 C669 1.347 1_455 S
N672 C673 1.373 . S
C673 C670 1.350 1_455 S
C673 N672 1.373 . S
C673 H694 0.931 . S
H674 C669 0.931 . S
H675 C670 0.930 . S
C676 O683 1.259 . S
C676 O684 1.258 . S
N677 Co668 2.057 . S
N677 C678 1.316 . S
N677 C679 1.375 . S
C678 N677 1.316 . S
C678 N680 1.347 . S
C678 H689 0.931 . S
C679 N677 1.375 . S
C679 C681 1.350 . S
C679 H688 0.930 . S
N680 C678 1.347 . S
N680 C681 1.373 . S
C681 C679 1.350 . S
C681 N680 1.373 . S
C681 H695 0.931 . S
C682 O685 1.256 . S
C682 O686 1.255 . S
O683 Co666 2.021 . S
O683 C676 1.259 . S
O684 Co668 2.117 . S
O684 C676 1.258 . S
O685 Co668 2.020 . S
O685 C682 1.256 . S
O686 Co666 2.062 . S
O686 C682 1.255 . S
O687 C667 1.259 . S
O687 Co668 2.021 . S
H688 C679 0.930 . S
H689 C678 0.931 . S
O690 Co666 2.117 . S
O690 C667 1.258 . S
O691 Co666 2.020 . S
O691 C693 1.256 . S
O692 Co668 2.062 . S
O692 C693 1.255 . S
C693 O691 1.256 . S
C693 O692 1.255 . S
H694 C673 0.931 . S
H695 C681 0.931 . S
Co696 N701 2.057 . S
Co696 O713 2.021 . S
Co696 O716 2.062 . S
Co696 O720 2.117 . S
Co696 O721 2.020 . S
C697 O717 1.259 . S
C697 O720 1.258 . S
Co698 N707 2.057 . S
Co698 O714 2.117 . S
Co698 O715 2.020 . S
Co698 O717 2.021 . S
Co698 O722 2.062 . S
C699 N701 1.316 . S
C699 N702 1.347 1_556 S
C699 H704 0.931 . S
C700 N701 1.375 . S
C700 C703 1.343 1_556 S
C700 H705 0.930 . S
N701 Co696 2.057 . S
N701 C699 1.316 . S
N701 C700 1.375 . S
N702 C699 1.347 1_554 S
N702 C703 1.374 . S
C703 C700 1.343 1_554 S
C703 N702 1.374 . S
C703 H724 0.936 . S
H704 C699 0.931 . S
H705 C700 0.930 . S
C706 O713 1.259 . S
C706 O714 1.258 . S
N707 Co698 2.057 . S
N707 C708 1.316 . S
N707 C709 1.375 . S
C708 N707 1.316 . S
C708 N710 1.347 . S
C708 H719 0.931 . S
C709 N707 1.375 . S
C709 C711 1.350 . S
C709 H718 0.930 . S
N710 C708 1.347 . S
N710 C711 1.373 . S
C711 C709 1.350 . S
C711 N710 1.373 . S
C711 H725 0.931 . S
C712 O715 1.256 . S
C712 O716 1.255 . S
O713 Co696 2.021 . S
O713 C706 1.259 . S
O714 Co698 2.117 . S
O714 C706 1.258 . S
O715 Co698 2.020 . S
O715 C712 1.256 . S
O716 Co696 2.062 . S
O716 C712 1.255 . S
O717 C697 1.259 . S
O717 Co698 2.021 . S
H718 C709 0.930 . S
H719 C708 0.931 . S
O720 Co696 2.117 . S
O720 C697 1.258 . S
O721 Co696 2.020 . S
O721 C723 1.256 . S
O722 Co698 2.062 . S
O722 C723 1.255 . S
C723 O721 1.256 . S
C723 O722 1.255 . S
H724 C703 0.936 . S
H725 C711 0.931 . S
Co726 N731 2.057 . S
Co726 O743 2.021 . S
Co726 O746 2.062 . S
Co726 O750 2.117 . S
Co726 O751 2.020 . S
C727 O747 1.259 . S
C727 O750 1.258 . S
Co728 N737 2.057 . S
Co728 O744 2.117 . S
Co728 O745 2.020 . S
Co728 O747 2.021 . S
Co728 O752 2.062 . S
C729 N731 1.316 . S
C729 N732 1.347 . S
C729 H734 0.931 . S
C730 N731 1.375 . S
C730 C733 1.350 . S
C730 H735 0.930 . S
N731 Co726 2.057 . S
N731 C729 1.316 . S
N731 C730 1.375 . S
N732 C729 1.347 . S
N732 C733 1.373 . S
C733 C730 1.350 . S
C733 N732 1.373 . S
C733 H754 0.931 . S
H734 C729 0.931 . S
H735 C730 0.930 . S
C736 O743 1.259 . S
C736 O744 1.258 . S
N737 Co728 2.057 . S
N737 C738 1.316 . S
N737 C739 1.375 . S
C738 N737 1.316 . S
C738 N740 1.347 . S
C738 H749 0.931 . S
C739 N737 1.375 . S
C739 C741 1.350 . S
C739 H748 0.930 . S
N740 C738 1.347 . S
N740 C741 1.373 . S
C741 C739 1.350 . S
C741 N740 1.373 . S
C741 H755 0.931 1_565 S
C742 O745 1.256 . S
C742 O746 1.255 . S
O743 Co726 2.021 . S
O743 C736 1.259 . S
O744 Co728 2.117 . S
O744 C736 1.258 . S
O745 Co728 2.020 . S
O745 C742 1.256 . S
O746 Co726 2.062 . S
O746 C742 1.255 . S
O747 C727 1.259 . S
O747 Co728 2.021 . S
H748 C739 0.930 . S
H749 C738 0.931 . S
O750 Co726 2.117 . S
O750 C727 1.258 . S
O751 Co726 2.020 . S
O751 C753 1.256 . S
O752 Co728 2.062 . S
O752 C753 1.255 . S
C753 O751 1.256 . S
C753 O752 1.255 . S
H754 C733 0.931 . S
H755 C741 0.931 1_545 S
Co756 N761 2.057 . S
Co756 O773 2.021 . S
Co756 O776 2.062 . S
Co756 O780 2.117 . S
Co756 O781 2.020 . S
C757 O777 1.259 . S
C757 O780 1.258 . S
Co758 N767 2.057 . S
Co758 O774 2.117 . S
Co758 O775 2.020 . S
Co758 O777 2.021 . S
Co758 O782 2.062 . S
C759 N761 1.316 . S
C759 N762 1.347 . S
C759 H764 0.931 . S
C760 N761 1.375 . S
C760 C763 1.350 . S
C760 H765 0.930 . S
N761 Co756 2.057 . S
N761 C759 1.316 . S
N761 C760 1.375 . S
N762 C759 1.347 . S
N762 C763 1.373 . S
C763 C760 1.350 . S
C763 N762 1.373 . S
C763 H784 0.931 . S
H764 C759 0.931 . S
H765 C760 0.930 . S
C766 O773 1.259 . S
C766 O774 1.258 . S
N767 Co758 2.057 . S
N767 C768 1.316 . S
N767 C769 1.375 . S
C768 N767 1.316 . S
C768 N770 1.347 . S
C768 H779 0.931 . S
C769 N767 1.375 . S
C769 C771 1.350 . S
C769 H778 0.930 . S
N770 C768 1.347 . S
N770 C771 1.373 . S
C771 C769 1.350 . S
C771 N770 1.373 . S
C771 H785 0.931 . S
C772 O775 1.256 . S
C772 O776 1.255 . S
O773 Co756 2.021 . S
O773 C766 1.259 . S
O774 Co758 2.117 . S
O774 C766 1.258 . S
O775 Co758 2.020 . S
O775 C772 1.256 . S
O776 Co756 2.062 . S
O776 C772 1.255 . S
O777 C757 1.259 . S
O777 Co758 2.021 . S
H778 C769 0.930 . S
H779 C768 0.931 . S
O780 Co756 2.117 . S
O780 C757 1.258 . S
O781 Co756 2.020 . S
O781 C783 1.256 . S
O782 Co758 2.062 . S
O782 C783 1.255 . S
C783 O781 1.256 . S
C783 O782 1.255 . S
H784 C763 0.931 . S
H785 C771 0.931 . S
Co786 N791 2.057 1_455 S
Co786 O803 2.021 . S
Co786 O806 2.062 1_455 S
Co786 O810 2.117 . S
Co786 O811 2.020 1_554 S
C787 O807 1.259 . S
C787 O810 1.258 . S
Co788 N797 2.057 . S
Co788 O804 2.117 . S
Co788 O805 2.020 . S
Co788 O807 2.021 . S
Co788 O812 2.062 1_554 S
C789 N791 1.316 . S
C789 N792 1.347 . S
C789 H794 0.931 . S
C790 N791 1.375 1_556 S
C790 C793 1.350 . S
C790 H795 0.930 . S
N791 Co786 2.057 1_655 S
N791 C789 1.316 . S
N791 C790 1.375 1_554 S
N792 C789 1.347 . S
N792 C793 1.373 1_554 S
C793 C790 1.350 . S
C793 N792 1.373 1_556 S
C793 H814 0.931 . S
H794 C789 0.931 . S
H795 C790 0.930 . S
C796 O803 1.259 . S
C796 O804 1.258 . S
N797 Co788 2.057 . S
N797 C798 1.316 . S
N797 C799 1.375 . S
C798 N797 1.316 . S
C798 N800 1.347 . S
C798 H809 0.931 . S
C799 N797 1.375 . S
C799 C801 1.350 . S
C799 H808 0.930 . S
N800 C798 1.347 . S
N800 C801 1.373 . S
C801 C799 1.350 . S
C801 N800 1.373 . S
C801 H815 0.931 . S
C802 O805 1.256 . S
C802 O806 1.255 1_455 S
O803 Co786 2.021 . S
O803 C796 1.259 . S
O804 Co788 2.117 . S
O804 C796 1.258 . S
O805 Co788 2.020 . S
O805 C802 1.256 . S
O806 Co786 2.062 1_655 S
O806 C802 1.255 1_655 S
O807 C787 1.259 . S
O807 Co788 2.021 . S
H808 C799 0.930 . S
H809 C798 0.931 . S
O810 Co786 2.117 . S
O810 C787 1.258 . S
O811 Co786 2.020 1_556 S
O811 C813 1.256 . S
O812 Co788 2.062 1_556 S
O812 C813 1.255 . S
C813 O811 1.256 . S
C813 O812 1.255 . S
H814 C793 0.931 . S
H815 C801 0.931 . S
C337 C4 2.428 . S
C19 C382 0.961 . S
C39 C406 2.114 . S
N432 C54 2.010 . S
C18 N462 1.928 . S
C496 C40 1.954 . S
C532 C53 0.979 1_554 S
C5 C556 1.782 . S
C61 N350 0.553 . S
C74 N372 2.025 . S
C412 C89 0.727 . S
C436 C109 2.345 . S
C68 C466 1.423 . S
C502 C81 1.113 . S
N522 C96 2.067 . S
C562 C102 2.503 . S
C363 C103 1.703 . S
C592 C117 1.076 . S
C130 N612 1.790 . S
C646 C152 1.965 . S
C60 N552 0.886 . S
N402 C82 2.007 . S
C137 C682 0.741 . S
C706 C165 1.623 . S
C172 C346 2.650 1_556 S
C723 C194 0.886 . S
C207 C397 2.075 . S
C215 N680 2.266 . S
N470 C186 2.566 1_455 S
C607 C201 1.906 . S
C543 C221 1.257 . S
C727 C180 2.418 . S
N342 C236 1.161 . S
C242 N710 2.454 . S
C423 C264 0.904 . S
C277 C667 2.352 . S
C229 C457 1.561 . S
C249 C633 1.449 . S
N530 C257 2.393 1_545 S
C270 C753 2.684 . S
C278 C352 2.278 1_565 S
C292 C603 0.930 1_556 S
C298 N500 2.460 . S
C313 C637 1.958 . S
N740 C228 1.125 1_565 S
N410 C243 2.220 . S
C453 C305 1.003 . S
C367 C333 1.139 . S
C32 C757 2.428 . S
C712 C47 0.961 . S
C796 C11 2.114 . S
C26 N672 2.010 . S
C46 N582 1.928 . S
C616 C12 1.954 . S
C652 C25 0.979 . S
C736 C33 1.782 . S
N770 C159 0.553 . S
C116 N702 2.025 . S
C131 C802 0.727 . S
C676 C151 2.345 . S
C586 C166 1.423 . S
C123 C622 1.113 . S
N642 C138 2.067 . S
C144 C742 2.502 . S
C783 C145 1.703 . S
C472 C75 1.076 . S
N492 C88 1.790 . S
C110 C526 1.965 . S
N732 C158 0.886 . S
C124 N792 2.007 . S
C442 C95 0.741 . S
C376 C67 1.622 . S
C200 C766 2.650 . S
C393 C222 0.886 . S
C787 C179 2.073 1_554 S
C187 N440 2.266 . S
C214 N590 2.566 . S
C173 C487 1.906 . S
C193 C663 1.256 1_655 S
C208 C547 2.418 . S
N762 C334 1.161 . S
C284 N380 2.453 . S
C813 C306 0.904 . S
C319 C427 2.352 . S
C327 C577 1.558 . S
C513 C291 1.451 . S
C299 N650 2.393 . S
C573 C312 2.684 . S
C772 C320 2.279 . S
C483 C250 0.931 . S
C256 N620 2.461 . S
C517 C271 1.958 . S
N560 C326 1.125 . S
C285 N800 2.217 1_556 S
C693 C263 1.003 . S
C697 C235 1.139 . S
