# Generated by pormake.
# Topology ctn, (3,4)-cn, num edge types: 1
# Building blocks:
#     Node 0, Type 0, BuildingBlock: WUSLED_clean_sbu_0, # of connection points: 3
#     Node 1, Type 0, BuildingBlock: WUSLED_clean_sbu_0, # of connection points: 3
#     Node 2, Type 0, BuildingBlock: WUSLED_clean_sbu_0, # of connection points: 3
#     Node 3, Type 0, BuildingBlock: WUSLED_clean_sbu_0, # of connection points: 3
#     Node 4, Type 0, BuildingBlock: WUSLED_clean_sbu_0, # of connection points: 3
#     Node 5, Type 0, BuildingBlock: WUSLED_clean_sbu_0, # of connection points: 3
#     Node 6, Type 0, BuildingBlock: WUSLED_clean_sbu_0, # of connection points: 3
#     Node 7, Type 0, BuildingBlock: WUSLED_clean_sbu_0, # of connection points: 3
#     Node 8, Type 0, BuildingBlock: WUSLED_clean_sbu_0, # of connection points: 3
#     Node 9, Type 0, BuildingBlock: WUSLED_clean_sbu_0, # of connection points: 3
#     Node 10, Type 0, BuildingBlock: WUSLED_clean_sbu_0, # of connection points: 3
#     Node 11, Type 0, BuildingBlock: WUSLED_clean_sbu_0, # of connection points: 3
#     Node 12, Type 0, BuildingBlock: WUSLED_clean_sbu_0, # of connection points: 3
#     Node 13, Type 0, BuildingBlock: WUSLED_clean_sbu_0, # of connection points: 3
#     Node 14, Type 0, BuildingBlock: WUSLED_clean_sbu_0, # of connection points: 3
#     Node 15, Type 0, BuildingBlock: WUSLED_clean_sbu_0, # of connection points: 3
#     Node 16, Type 1, BuildingBlock: UXUYUI_clean_sbu_0, # of connection points: 4
#     Node 17, Type 1, BuildingBlock: UXUYUI_clean_sbu_0, # of connection points: 4
#     Node 18, Type 1, BuildingBlock: UXUYUI_clean_sbu_0, # of connection points: 4
#     Node 19, Type 1, BuildingBlock: UXUYUI_clean_sbu_0, # of connection points: 4
#     Node 20, Type 1, BuildingBlock: UXUYUI_clean_sbu_0, # of connection points: 4
#     Node 21, Type 1, BuildingBlock: UXUYUI_clean_sbu_0, # of connection points: 4
#     Node 22, Type 1, BuildingBlock: UXUYUI_clean_sbu_0, # of connection points: 4
#     Node 23, Type 1, BuildingBlock: UXUYUI_clean_sbu_0, # of connection points: 4
#     Node 24, Type 1, BuildingBlock: UXUYUI_clean_sbu_0, # of connection points: 4
#     Node 25, Type 1, BuildingBlock: UXUYUI_clean_sbu_0, # of connection points: 4
#     Node 26, Type 1, BuildingBlock: UXUYUI_clean_sbu_0, # of connection points: 4
#     Node 27, Type 1, BuildingBlock: UXUYUI_clean_sbu_0, # of connection points: 4
#     Edge 28, Type (0, 1), BuildingBlock: KIFKEQ_clean_linker_1, # of connection points: 2
#     Edge 29, Type (0, 1), BuildingBlock: KIFKEQ_clean_linker_1, # of connection points: 2
#     Edge 30, Type (0, 1), BuildingBlock: KIFKEQ_clean_linker_1, # of connection points: 2
#     Edge 31, Type (0, 1), BuildingBlock: KIFKEQ_clean_linker_1, # of connection points: 2
#     Edge 32, Type (0, 1), BuildingBlock: KIFKEQ_clean_linker_1, # of connection points: 2
#     Edge 33, Type (0, 1), BuildingBlock: KIFKEQ_clean_linker_1, # of connection points: 2
#     Edge 34, Type (0, 1), BuildingBlock: KIFKEQ_clean_linker_1, # of connection points: 2
#     Edge 35, Type (0, 1), BuildingBlock: KIFKEQ_clean_linker_1, # of connection points: 2
#     Edge 36, Type (0, 1), BuildingBlock: KIFKEQ_clean_linker_1, # of connection points: 2
#     Edge 37, Type (0, 1), BuildingBlock: KIFKEQ_clean_linker_1, # of connection points: 2
#     Edge 38, Type (0, 1), BuildingBlock: KIFKEQ_clean_linker_1, # of connection points: 2
#     Edge 39, Type (0, 1), BuildingBlock: KIFKEQ_clean_linker_1, # of connection points: 2
#     Edge 40, Type (0, 1), BuildingBlock: KIFKEQ_clean_linker_1, # of connection points: 2
#     Edge 41, Type (0, 1), BuildingBlock: KIFKEQ_clean_linker_1, # of connection points: 2
#     Edge 42, Type (0, 1), BuildingBlock: KIFKEQ_clean_linker_1, # of connection points: 2
#     Edge 43, Type (0, 1), BuildingBlock: KIFKEQ_clean_linker_1, # of connection points: 2
#     Edge 44, Type (0, 1), BuildingBlock: KIFKEQ_clean_linker_1, # of connection points: 2
#     Edge 45, Type (0, 1), BuildingBlock: KIFKEQ_clean_linker_1, # of connection points: 2
#     Edge 46, Type (0, 1), BuildingBlock: KIFKEQ_clean_linker_1, # of connection points: 2
#     Edge 47, Type (0, 1), BuildingBlock: KIFKEQ_clean_linker_1, # of connection points: 2
#     Edge 48, Type (0, 1), BuildingBlock: KIFKEQ_clean_linker_1, # of connection points: 2
#     Edge 49, Type (0, 1), BuildingBlock: KIFKEQ_clean_linker_1, # of connection points: 2
#     Edge 50, Type (0, 1), BuildingBlock: KIFKEQ_clean_linker_1, # of connection points: 2
#     Edge 51, Type (0, 1), BuildingBlock: KIFKEQ_clean_linker_1, # of connection points: 2
#     Edge 52, Type (0, 1), BuildingBlock: KIFKEQ_clean_linker_1, # of connection points: 2
#     Edge 53, Type (0, 1), BuildingBlock: KIFKEQ_clean_linker_1, # of connection points: 2
#     Edge 54, Type (0, 1), BuildingBlock: KIFKEQ_clean_linker_1, # of connection points: 2
#     Edge 55, Type (0, 1), BuildingBlock: KIFKEQ_clean_linker_1, # of connection points: 2
#     Edge 56, Type (0, 1), BuildingBlock: KIFKEQ_clean_linker_1, # of connection points: 2
#     Edge 57, Type (0, 1), BuildingBlock: KIFKEQ_clean_linker_1, # of connection points: 2
#     Edge 58, Type (0, 1), BuildingBlock: KIFKEQ_clean_linker_1, # of connection points: 2
#     Edge 59, Type (0, 1), BuildingBlock: KIFKEQ_clean_linker_1, # of connection points: 2
#     Edge 60, Type (0, 1), BuildingBlock: KIFKEQ_clean_linker_1, # of connection points: 2
#     Edge 61, Type (0, 1), BuildingBlock: KIFKEQ_clean_linker_1, # of connection points: 2
#     Edge 62, Type (0, 1), BuildingBlock: KIFKEQ_clean_linker_1, # of connection points: 2
#     Edge 63, Type (0, 1), BuildingBlock: KIFKEQ_clean_linker_1, # of connection points: 2
#     Edge 64, Type (0, 1), BuildingBlock: KIFKEQ_clean_linker_1, # of connection points: 2
#     Edge 65, Type (0, 1), BuildingBlock: KIFKEQ_clean_linker_1, # of connection points: 2
#     Edge 66, Type (0, 1), BuildingBlock: KIFKEQ_clean_linker_1, # of connection points: 2
#     Edge 67, Type (0, 1), BuildingBlock: KIFKEQ_clean_linker_1, # of connection points: 2
#     Edge 68, Type (0, 1), BuildingBlock: KIFKEQ_clean_linker_1, # of connection points: 2
#     Edge 69, Type (0, 1), BuildingBlock: KIFKEQ_clean_linker_1, # of connection points: 2
#     Edge 70, Type (0, 1), BuildingBlock: KIFKEQ_clean_linker_1, # of connection points: 2
#     Edge 71, Type (0, 1), BuildingBlock: KIFKEQ_clean_linker_1, # of connection points: 2
#     Edge 72, Type (0, 1), BuildingBlock: KIFKEQ_clean_linker_1, # of connection points: 2
#     Edge 73, Type (0, 1), BuildingBlock: KIFKEQ_clean_linker_1, # of connection points: 2
#     Edge 74, Type (0, 1), BuildingBlock: KIFKEQ_clean_linker_1, # of connection points: 2
#     Edge 75, Type (0, 1), BuildingBlock: KIFKEQ_clean_linker_1, # of connection points: 2
# Relax obj value: 0.001
# Max RMSD: 0.015
# Mean RMSD: 0.010
data_MOF--net-ctn--node1-WUSLED_clean_sbu_0--node2-UXUYUI_clean_sbu_0--edge1-KIFKEQ_clean_linker_1
_symmetry_space_group_name_H-M    P1
_symmetry_Int_Tables_number       1
_symmetry_cell_setting            triclinic
loop_
_symmetry_equiv_pos_as_xyz
'x, y, z'
_cell_length_a     84.198264
_cell_length_b     84.69818
_cell_length_c     84.532579
_cell_angle_alpha  90.580405
_cell_angle_beta   89.999336
_cell_angle_gamma 90.007104
loop_
_atom_site_label
_atom_site_type_symbol
_atom_site_fract_x
_atom_site_fract_y
_atom_site_fract_z
_atom_type_partial_charge
C0 C 0.02183 0.05949 0.08673 0.0
C1 C 0.02961 0.05406 0.10034 0.0
C2 C 1.00416 0.05082 0.11373 0.0
C3 C 0.02085 0.04983 0.11374 0.0
C4 C 0.99645 0.05602 0.09997 0.0
C5 C 1.0052 0.06034 0.08664 0.0
U6 U 0.05611 0.05573 0.05684 0.0
O7 O 0.05578 0.05877 0.03097 0.0
O8 O 0.07069 0.07415 0.04584 0.0
C9 C 0.06506 0.07124 0.03159 0.0
C10 C 0.03072 0.06464 0.07263 0.0
C11 C 0.05984 0.085 0.0223 0.0
C12 C 0.05184 0.11254 0.02026 0.0
C13 C 0.05581 0.09948 0.02951 0.0
C14 C 0.05546 0.09673 0.99652 0.0
C15 C 0.05178 0.11139 1.00363 0.0
C16 C 0.05948 0.08373 1.00575 0.0
C17 C 0.08674 0.02214 0.0609 0.0
C18 C 0.1152 0.02037 0.05593 0.0
C19 C 0.09881 0.99698 0.05357 0.0
C20 C 0.08541 1.00591 0.05763 0.0
C21 C 0.11389 1.00407 0.05282 0.0
C22 C 0.10176 0.02933 0.05989 0.0
C23 C 0.07246 0.03105 0.06603 0.0
O24 O 0.04492 0.07062 0.07514 0.0
O25 O 0.03017 0.05505 0.06031 0.0
O26 O 0.06001 0.03 0.05668 0.0
O27 O 0.07473 0.04538 0.07174 0.0
H28 H 0.04244 0.05318 0.10067 0.0
H29 H 0.02714 0.0457 0.12408 0.0
H30 H 0.98363 0.05708 0.09961 0.0
H31 H 0.99897 0.06451 0.07627 0.0
H32 H 0.04922 0.12365 0.02616 0.0
H33 H 0.05595 0.10079 0.04227 0.0
H34 H 0.05523 0.09528 0.98378 0.0
H35 H 0.06249 0.07267 0.99993 0.0
H36 H 0.12662 0.02622 0.05529 0.0
H37 H 0.09741 0.98443 0.05143 0.0
H38 H 0.074 1.00006 0.05845 0.0
H39 H 0.1032 0.04183 0.0623 0.0
C40 C 0.28763 0.7473 0.19369 0.0
C41 C 0.30158 0.75296 0.1866 0.0
C42 C 0.286 0.76998 0.16937 0.0
C43 C 0.30077 0.76416 0.17453 0.0
C44 C 0.27211 0.76449 0.17678 0.0
C45 C 0.27293 0.75325 0.18876 0.0
U46 U 0.30574 0.72776 0.2304 0.0
O47 O 0.29369 0.71754 0.25105 0.0
O48 O 0.30875 0.70261 0.23588 0.0
C49 C 0.29873 0.70318 0.2478 0.0
C50 C 0.288 0.73503 0.20597 0.0
C51 C 0.28658 0.69066 0.24817 0.0
C52 C 0.26689 0.67394 0.23523 0.0
C53 C 0.27799 0.68625 0.23459 0.0
C54 C 0.27265 0.67057 0.26306 0.0
C55 C 0.26418 0.66584 0.24946 0.0
C56 C 0.28374 0.68282 0.2624 0.0
C57 C 0.34296 0.74565 0.24997 0.0
C58 C 0.36248 0.73256 0.26657 0.0
C59 C 0.36021 0.76105 0.26727 0.0
C60 C 0.348 0.76025 0.25608 0.0
C61 C 0.36775 0.74723 0.27255 0.0
C62 C 0.35018 0.73176 0.25542 0.0
C63 C 0.33042 0.74531 0.23776 0.0
O64 O 0.2998 0.72486 0.20521 0.0
O65 O 0.28487 0.73985 0.22046 0.0
O66 O 0.31596 0.74843 0.24273 0.0
O67 O 0.33099 0.73361 0.22742 0.0
H68 H 0.3131 0.74861 0.19025 0.0
H69 H 0.3117 0.76799 0.16903 0.0
H70 H 0.26055 0.76891 0.17338 0.0
H71 H 0.26203 0.74912 0.19413 0.0
H72 H 0.26069 0.67054 0.2245 0.0
H73 H 0.27999 0.69221 0.22349 0.0
H74 H 0.27066 0.66484 0.27429 0.0
H75 H 0.29018 0.68613 0.27303 0.0
H76 H 0.36807 0.72168 0.27024 0.0
H77 H 0.36369 0.77254 0.27182 0.0
H78 H 0.34253 0.77109 0.25212 0.0
H79 H 0.34644 0.72033 0.25094 0.0
C80 C 0.97393 0.44867 0.02187 0.0
C81 C 0.9818 0.43602 0.02909 0.0
C82 C 0.98183 0.42132 1.00408 0.0
C83 C 0.98569 0.42246 0.02027 0.0
C84 C 0.97423 0.43421 0.9969 0.0
C85 C 0.9703 0.4477 1.00572 0.0
U86 U 0.97851 0.47856 0.05618 0.0
O87 O 0.97549 0.50441 0.05595 0.0
O88 O 0.96018 0.48986 0.07095 0.0
C89 C 0.96301 0.50399 0.06528 0.0
C90 C 0.96909 0.46284 0.03092 0.0
C91 C 0.94908 0.51313 0.06 0.0
C92 C 0.92191 0.51471 0.05029 0.0
C93 C 0.93512 0.5057 0.05464 0.0
C94 C 0.93654 0.53867 0.05619 0.0
C95 C 0.92244 0.53131 0.05107 0.0
C96 C 0.94969 0.52966 0.06065 0.0
C97 C 1.01244 0.4744 0.08637 0.0
C98 C 1.01388 0.48108 0.11444 0.0
C99 C 0.03787 0.4806 0.09865 0.0
C100 C 0.02896 0.47635 0.08531 0.0
C101 C 0.03046 0.48288 0.11341 0.0
C102 C 1.00494 0.47694 0.10105 0.0
C103 C 1.00347 0.46921 0.07219 0.0
O104 O 0.96335 0.46041 0.04516 0.0
O105 O 0.97887 0.47491 0.03033 0.0
O106 O 1.00444 0.47845 0.05982 0.0
O107 O 0.98907 0.46366 0.07453 0.0
H108 H 0.98477 0.43655 0.04155 0.0
H109 H 0.99142 0.41274 0.02623 0.0
H110 H 0.97135 0.43392 0.98442 0.0
H111 H 0.96432 0.45738 0.99992 0.0
H112 H 0.91129 0.50869 0.04622 0.0
H113 H 0.93439 0.49294 0.05391 0.0
H114 H 0.9373 0.55142 0.0571 0.0
H115 H 0.96032 0.53563 0.06476 0.0
H116 H 1.0078 0.48292 0.1256 0.0
H117 H 0.05063 0.48173 0.09749 0.0
H118 H 0.03502 0.47438 0.07415 0.0
H119 H 0.99221 0.47561 0.10225 0.0
C120 C 0.72194 0.77316 0.19824 0.0
C121 C 0.73782 0.77239 0.19319 0.0
C122 C 0.73022 0.75537 0.17099 0.0
C123 C 0.74194 0.76351 0.17972 0.0
C124 C 0.71432 0.75634 0.17603 0.0
C125 C 0.71025 0.76513 0.18953 0.0
U126 U 0.72731 0.80718 0.22814 0.0
O127 O 0.70919 0.8223 0.23944 0.0
O128 O 0.72458 0.80742 0.25402 0.0
C129 C 0.71226 0.81695 0.25366 0.0
C130 C 0.71727 0.78212 0.21254 0.0
C131 C 0.69835 0.81211 0.26301 0.0
C132 C 0.67973 0.79218 0.27209 0.0
C133 C 0.69275 0.7965 0.26274 0.0
C134 C 0.67762 0.81909 0.28182 0.0
C135 C 0.67206 0.80341 0.28184 0.0
C136 C 0.69063 0.82337 0.27252 0.0
C137 C 0.76149 0.83682 0.22266 0.0
C138 C 0.77314 0.85417 0.24265 0.0
C139 C 0.77765 0.85921 0.21486 0.0
C140 C 0.76838 0.84607 0.21085 0.0
C141 C 0.78031 0.86336 0.23081 0.0
C142 C 0.76379 0.84105 0.23861 0.0
C143 C 0.75223 0.82274 0.21798 0.0
O144 O 0.72707 0.78142 0.22463 0.0
O145 O 0.7117 0.79639 0.21012 0.0
O146 O 0.73774 0.82541 0.2129 0.0
O147 O 0.7532 0.81049 0.22738 0.0
H148 H 0.74703 0.77861 0.19967 0.0
H149 H 0.75426 0.76314 0.17606 0.0
H150 H 0.70504 0.75008 0.16971 0.0
H151 H 0.69793 0.76557 0.19323 0.0
H152 H 0.67587 0.77998 0.27189 0.0
H153 H 0.69852 0.78763 0.25541 0.0
H154 H 0.67185 0.82813 0.28891 0.0
H155 H 0.69471 0.8355 0.27281 0.0
H156 H 0.77502 0.85692 0.25505 0.0
H157 H 0.78267 0.86616 0.20541 0.0
H158 H 0.76666 0.84308 0.19848 0.0
H159 H 0.75852 0.83411 0.24794 0.0
C160 C 0.0223 0.97363 0.45037 0.0
C161 C 0.02992 0.97765 0.43616 0.0
C162 C 1.00429 0.98219 0.42353 0.0
C163 C 0.02099 0.98181 0.42286 0.0
C164 C 0.99675 0.97845 0.43786 0.0
C165 C 1.00566 0.97416 0.4511 0.0
U166 U 0.05674 0.97761 0.48001 0.0
O167 O 0.05682 0.97432 0.50583 0.0
O168 O 0.07176 0.95932 0.49063 0.0
C169 C 0.06643 0.96212 0.505 0.0
C170 C 0.03133 0.96847 0.4644 0.0
C171 C 0.06164 0.94819 0.51413 0.0
C172 C 0.04756 0.92324 0.51657 0.0
C173 C 0.05149 0.93662 0.50775 0.0
C174 C 0.06366 0.93305 0.53829 0.0
C175 C 0.05371 0.92123 0.53193 0.0
C176 C 0.06758 0.94636 0.52947 0.0
C177 C 0.08687 1.01157 0.47588 0.0
C178 C 0.11535 1.01352 0.48071 0.0
C179 C 0.09877 0.03673 0.4835 0.0
C180 C 0.08543 0.02775 0.47938 0.0
C181 C 0.11392 0.02976 0.48408 0.0
C182 C 0.10197 1.0045 0.4767 0.0
C183 C 0.07263 1.00258 0.47081 0.0
O184 O 0.04557 0.96262 0.46178 0.0
O185 O 0.03075 0.97794 0.4768 0.0
O186 O 0.06029 1.00339 0.48031 0.0
O187 O 0.07499 0.98833 0.46492 0.0
H188 H 0.04275 0.97746 0.43528 0.0
H189 H 0.02716 0.98481 0.41205 0.0
H190 H 0.98391 0.97846 0.43873 0.0
H191 H 0.99954 0.97108 0.46192 0.0
H192 H 0.03998 0.91434 0.51124 0.0
H193 H 0.04676 0.93785 0.4959 0.0
H194 H 0.06836 0.93208 0.55017 0.0
H195 H 0.07535 0.95522 0.53463 0.0
H196 H 0.12682 1.00776 0.48122 0.0
H197 H 0.09728 0.04924 0.48585 0.0
H198 H 0.07396 0.03351 0.47873 0.0
H199 H 0.1035 0.99205 0.47412 0.0
C200 C 0.22293 0.76124 0.83899 0.0
C201 C 0.23853 0.7609 0.84485 0.0
C202 C 0.23131 0.77949 0.86592 0.0
C203 C 0.24269 0.76996 0.85819 0.0
C204 C 0.21563 0.77947 0.86014 0.0
C205 C 0.21151 0.77046 0.84682 0.0
U206 U 0.22795 0.72747 0.80856 0.0
O207 O 0.20973 0.71312 0.79658 0.0
O208 O 0.22555 0.72815 0.7826 0.0
C209 C 0.21296 0.71897 0.78259 0.0
C210 C 0.21834 0.75246 0.82456 0.0
C211 C 0.19927 0.72453 0.77325 0.0
C212 C 0.17247 0.73513 0.7714 0.0
C213 C 0.18554 0.73061 0.78055 0.0
C214 C 0.18683 0.728 0.74756 0.0
C215 C 0.17293 0.73381 0.75479 0.0
C216 C 0.19983 0.72338 0.75671 0.0
C217 C 0.26115 0.69669 0.81351 0.0
C218 C 0.27339 0.68011 0.79321 0.0
C219 C 0.27524 0.67277 0.82076 0.0
C220 C 0.26651 0.68619 0.82505 0.0
C221 C 0.27888 0.66961 0.8048 0.0
C222 C 0.26454 0.69349 0.79751 0.0
C223 C 0.25231 0.71095 0.81853 0.0
O224 O 0.22836 0.75313 0.81266 0.0
O225 O 0.21246 0.73827 0.82671 0.0
O226 O 0.23771 0.70858 0.82344 0.0
O227 O 0.25373 0.72345 0.80952 0.0
H228 H 0.24753 0.75381 0.83899 0.0
H229 H 0.2549 0.76978 0.86222 0.0
H230 H 0.20648 0.7864 0.86595 0.0
H231 H 0.19939 0.7708 0.84253 0.0
H232 H 0.16201 0.73974 0.77732 0.0
H233 H 0.18486 0.73174 0.7933 0.0
H234 H 0.18753 0.72667 0.73482 0.0
H235 H 0.2103 0.71871 0.75085 0.0
H236 H 0.27584 0.67791 0.7808 0.0
H237 H 0.27943 0.66504 0.83 0.0
H238 H 0.26405 0.68844 0.83745 0.0
H239 H 0.26043 0.70136 0.78835 0.0
C240 C 0.97386 0.58463 0.5151 0.0
C241 C 0.9801 0.59809 0.50777 0.0
C242 C 0.98175 0.61173 0.53331 0.0
C243 C 0.98397 0.61152 0.51679 0.0
C244 C 0.97581 0.59806 0.54058 0.0
C245 C 0.97187 0.58469 0.53156 0.0
U246 U 0.97866 0.55521 0.48047 0.0
O247 O 0.97593 0.52932 0.48031 0.0
O248 O 0.96054 0.54392 0.46544 0.0
C249 C 0.96344 0.52976 0.47099 0.0
C250 C 0.96906 0.57052 0.5059 0.0
C251 C 0.94955 0.52039 0.47611 0.0
C252 C 0.92152 0.51804 0.48288 0.0
C253 C 0.93462 0.52735 0.47879 0.0
C254 C 0.93813 0.49472 0.48206 0.0
C255 C 0.92307 0.50157 0.48447 0.0
C256 C 0.95117 0.50402 0.47788 0.0
C257 C 1.01276 0.56071 0.45074 0.0
C258 C 1.01525 0.54672 0.42558 0.0
C259 C 0.03699 0.56283 0.43531 0.0
C260 C 0.02813 0.5667 0.44879 0.0
C261 C 0.03064 0.55289 0.42346 0.0
C262 C 1.00639 0.55059 0.43912 0.0
C263 C 1.0036 0.56535 0.46488 0.0
O264 O 0.96326 0.57303 0.4917 0.0
O265 O 0.97889 0.55848 0.50637 0.0
O266 O 1.00459 0.55576 0.47696 0.0
O267 O 0.9891 0.57047 0.46233 0.0
H268 H 0.98181 0.59829 0.49508 0.0
H269 H 0.98838 0.62185 0.51075 0.0
H270 H 0.97424 0.59763 0.55328 0.0
H271 H 0.96718 0.57439 0.53746 0.0
H272 H 0.91011 0.52373 0.48446 0.0
H273 H 0.93297 0.53996 0.47754 0.0
H274 H 0.93988 0.48215 0.48345 0.0
H275 H 0.96256 0.49838 0.47591 0.0
H276 H 1.00992 0.53915 0.41665 0.0
H277 H 0.04889 0.56756 0.43425 0.0
H278 H 0.03328 0.57445 0.45768 0.0
H279 H 0.99453 0.54581 0.44045 0.0
C280 C 0.7872 0.78576 0.84356 0.0
C281 C 0.80119 0.77915 0.84966 0.0
C282 C 0.78572 0.76346 0.86822 0.0
C283 C 0.80046 0.76813 0.8619 0.0
C284 C 0.77176 0.76991 0.86178 0.0
C285 C 0.77251 0.78095 0.84963 0.0
U286 U 0.80525 0.80499 0.80664 0.0
O287 O 0.79309 0.81498 0.78593 0.0
O288 O 0.80814 0.8301 0.80094 0.0
C289 C 0.798 0.8294 0.78911 0.0
C290 C 0.78755 0.79788 0.83115 0.0
C291 C 0.78575 0.84184 0.78869 0.0
C292 C 0.76814 0.86066 0.80176 0.0
C293 C 0.77923 0.84836 0.80259 0.0
C294 C 0.76965 0.85977 0.77316 0.0
C295 C 0.76332 0.86664 0.78702 0.0
C296 C 0.78076 0.84754 0.774 0.0
C297 C 0.84254 0.7872 0.78714 0.0
C298 C 0.86168 0.80036 0.77017 0.0
C299 C 0.8601 0.77182 0.77015 0.0
C300 C 0.84791 0.77259 0.78136 0.0
C301 C 0.86729 0.78568 0.76452 0.0
C302 C 0.84939 0.80112 0.78134 0.0
C303 C 0.83002 0.78753 0.79937 0.0
O304 O 0.79934 0.80805 0.83182 0.0
O305 O 0.78447 0.79287 0.81671 0.0
O306 O 0.81557 0.78429 0.79444 0.0
O307 O 0.83054 0.79931 0.80962 0.0
H308 H 0.81268 0.78265 0.8451 0.0
H309 H 0.81146 0.76354 0.86663 0.0
H310 H 0.76019 0.76638 0.8661 0.0
H311 H 0.76157 0.78583 0.84501 0.0
H312 H 0.76364 0.86573 0.81268 0.0
H313 H 0.78286 0.84409 0.81407 0.0
H314 H 0.766 0.86382 0.76161 0.0
H315 H 0.78556 0.8426 0.76314 0.0
H316 H 0.86699 0.81128 0.76623 0.0
H317 H 0.86385 0.76032 0.76586 0.0
H318 H 0.84271 0.76171 0.78559 0.0
H319 H 0.8454 0.81256 0.78557 0.0
C320 C 0.28952 0.2849 0.34274 0.0
C321 C 0.30289 0.28238 0.35236 0.0
C322 C 0.28866 0.26214 0.36701 0.0
C323 C 0.30244 0.27115 0.36441 0.0
C324 C 0.27542 0.2645 0.35717 0.0
C325 C 0.27584 0.27579 0.34522 0.0
U326 U 0.30621 0.30547 0.30582 0.0
O327 O 0.29339 0.31541 0.28549 0.0
O328 O 0.30822 0.33075 0.3005 0.0
C329 C 0.29792 0.32992 0.28882 0.0
C330 C 0.28927 0.2973 0.33052 0.0
C331 C 0.28534 0.34206 0.28861 0.0
C332 C 0.26868 0.36171 0.30174 0.0
C333 C 0.28 0.3496 0.30251 0.0
C334 C 0.26758 0.35856 0.27326 0.0
C335 C 0.26245 0.36646 0.28707 0.0
C336 C 0.27892 0.34655 0.27403 0.0
C337 C 0.34362 0.28921 0.2852 0.0
C338 C 0.36404 0.30271 0.27005 0.0
C339 C 0.35906 0.2749 0.2654 0.0
C340 C 0.34719 0.27519 0.27697 0.0
C341 C 0.36772 0.28863 0.26188 0.0
C342 C 0.35207 0.30303 0.28156 0.0
C343 C 0.33137 0.28894 0.29774 0.0
O344 O 0.30063 0.30796 0.33113 0.0
O345 O 0.28601 0.29253 0.31603 0.0
O346 O 0.31692 0.28529 0.2931 0.0
O347 O 0.33172 0.3005 0.30825 0.0
H348 H 0.31366 0.28916 0.35071 0.0
H349 H 0.31289 0.2695 0.37167 0.0
H350 H 0.26456 0.25789 0.35897 0.0
H351 H 0.26535 0.27757 0.33802 0.0
H352 H 0.26512 0.36759 0.3126 0.0
H353 H 0.28473 0.34632 0.31392 0.0
H354 H 0.26283 0.36165 0.26179 0.0
H355 H 0.28281 0.34083 0.26318 0.0
H356 H 0.37038 0.31352 0.2675 0.0
H357 H 0.36171 0.26382 0.25945 0.0
H358 H 0.34089 0.26438 0.27961 0.0
H359 H 0.34951 0.31405 0.28764 0.0
C360 C 0.47367 0.94855 0.52232 0.0
C361 C 0.47984 0.93509 0.52971 0.0
C362 C 0.48158 0.9214 0.5042 0.0
C363 C 0.48372 0.92163 0.52074 0.0
C364 C 0.4757 0.93507 0.49688 0.0
C365 C 0.47176 0.94846 0.50586 0.0
U366 U 0.47831 0.97824 0.55678 0.0
O367 O 0.47545 1.0041 0.55674 0.0
O368 O 0.46004 0.98955 0.57163 0.0
C369 C 0.46301 1.00371 0.56611 0.0
C370 C 0.46881 0.96268 0.53147 0.0
C371 C 0.44916 1.01296 0.56091 0.0
C372 C 0.42299 1.01487 0.54884 0.0
C373 C 0.43615 1.00581 0.5533 0.0
C374 C 0.43586 0.03836 0.55924 0.0
C375 C 0.42269 0.03126 0.55178 0.0
C376 C 0.44893 0.02929 0.56377 0.0
C377 C 0.51242 0.97379 0.58669 0.0
C378 C 0.51385 0.98251 0.61419 0.0
C379 C 0.53804 0.97811 0.59931 0.0
C380 C 0.52906 0.9738 0.58603 0.0
C381 C 0.53055 0.98241 0.61358 0.0
C382 C 0.50486 0.97831 0.60086 0.0
C383 C 0.50332 0.96868 0.57258 0.0
O384 O 0.46305 0.96021 0.54569 0.0
O385 O 0.47856 0.97477 0.53091 0.0
O386 O 0.50425 0.97797 0.56026 0.0
O387 O 0.4889 0.96325 0.57506 0.0
H388 H 0.48149 0.93491 0.54242 0.0
H389 H 0.48807 0.9113 0.52681 0.0
H390 H 0.47419 0.93547 0.48417 0.0
H391 H 0.46711 0.95875 0.49992 0.0
H392 H 0.41312 1.00908 0.54296 0.0
H393 H 0.43612 0.99323 0.55086 0.0
H394 H 0.43594 0.0509 0.56185 0.0
H395 H 0.45885 0.03502 0.56964 0.0
H396 H 0.50772 0.98594 0.62496 0.0
H397 H 0.55087 0.97774 0.59848 0.0
H398 H 0.53514 0.97032 0.57525 0.0
H399 H 0.49202 0.97852 0.60167 0.0
C400 C 0.22205 0.27304 0.69795 0.0
C401 C 0.23753 0.27378 0.69183 0.0
C402 C 0.23065 0.25445 0.67133 0.0
C403 C 0.2418 0.26455 0.67864 0.0
C404 C 0.21509 0.25399 0.67742 0.0
C405 C 0.21087 0.26317 0.6906 0.0
U406 U 0.22739 0.30748 0.72738 0.0
O407 O 0.20923 0.32281 0.73832 0.0
O408 O 0.22438 0.30801 0.75322 0.0
C409 C 0.21205 0.31752 0.75261 0.0
C410 C 0.21732 0.28229 0.71202 0.0
C411 C 0.19796 0.31268 0.76171 0.0
C412 C 0.17965 0.29259 0.77107 0.0
C413 C 0.19293 0.29687 0.76209 0.0
C414 C 0.17611 0.31988 0.77913 0.0
C415 C 0.17109 0.30406 0.77971 0.0
C416 C 0.18942 0.32413 0.77024 0.0
C417 C 0.26185 0.33675 0.72201 0.0
C418 C 0.27106 0.35568 0.74183 0.0
C419 C 0.28038 0.35746 0.7148 0.0
C420 C 0.27113 0.34435 0.71064 0.0
C421 C 0.28059 0.36323 0.73047 0.0
C422 C 0.26175 0.34257 0.73763 0.0
C423 C 0.25257 0.32272 0.71731 0.0
O424 O 0.22703 0.28169 0.72418 0.0
O425 O 0.21195 0.29657 0.7093 0.0
O426 O 0.23815 0.32548 0.71208 0.0
O427 O 0.25331 0.31061 0.7269 0.0
H428 H 0.24634 0.28139 0.69733 0.0
H429 H 0.25391 0.26512 0.67438 0.0
H430 H 0.20611 0.2466 0.67194 0.0
H431 H 0.19883 0.26252 0.69509 0.0
H432 H 0.17599 0.28033 0.77113 0.0
H433 H 0.19929 0.28785 0.75547 0.0
H434 H 0.16991 0.32898 0.78578 0.0
H435 H 0.19312 0.33638 0.7701 0.0
H436 H 0.27102 0.35971 0.75402 0.0
H437 H 0.2873 0.36313 0.70567 0.0
H438 H 0.27127 0.3401 0.69851 0.0
H439 H 0.25461 0.33689 0.74658 0.0
C440 C 0.78793 0.24734 0.69287 0.0
C441 C 0.80158 0.25582 0.68862 0.0
C442 C 0.78665 0.26959 0.66819 0.0
C443 C 0.80095 0.26684 0.67637 0.0
C444 C 0.77297 0.26122 0.67275 0.0
C445 C 0.77363 0.2502 0.68494 0.0
U446 U 0.80606 0.22843 0.72989 0.0
O447 O 0.79395 0.21852 0.75066 0.0
O448 O 0.80897 0.20335 0.73569 0.0
C449 C 0.79888 0.2041 0.74756 0.0
C450 C 0.78831 0.23532 0.70535 0.0
C451 C 0.78664 0.19166 0.74805 0.0
C452 C 0.76806 0.17372 0.73508 0.0
C453 C 0.77923 0.18596 0.73424 0.0
C454 C 0.77134 0.17302 0.76352 0.0
C455 C 0.76407 0.167 0.74973 0.0
C456 C 0.78251 0.18519 0.76267 0.0
C457 C 0.84325 0.24618 0.7494 0.0
C458 C 0.86089 0.23279 0.76771 0.0
C459 C 0.86169 0.26128 0.7657 0.0
C460 C 0.84972 0.26069 0.75424 0.0
C461 C 0.86748 0.24734 0.77253 0.0
C462 C 0.84882 0.23222 0.7563 0.0
C463 C 0.83082 0.24595 0.73709 0.0
O464 O 0.80017 0.22525 0.70472 0.0
O465 O 0.78526 0.24045 0.71976 0.0
O466 O 0.81637 0.24921 0.74198 0.0
O467 O 0.83135 0.23412 0.7269 0.0
H468 H 0.81274 0.2538 0.69465 0.0
H469 H 0.81174 0.27296 0.6731 0.0
H470 H 0.76169 0.26323 0.66695 0.0
H471 H 0.76295 0.24385 0.68813 0.0
H472 H 0.76281 0.16931 0.7242 0.0
H473 H 0.7822 0.19084 0.72282 0.0
H474 H 0.76835 0.16839 0.77504 0.0
H475 H 0.78802 0.1895 0.77346 0.0
H476 H 0.86496 0.22186 0.77287 0.0
H477 H 0.86662 0.27266 0.769 0.0
H478 H 0.84559 0.27159 0.74905 0.0
H479 H 0.8439 0.22088 0.75284 0.0
C480 C 0.52208 0.56156 0.58647 0.0
C481 C 0.52927 0.55521 0.59999 0.0
C482 C 0.5035 0.5536 0.61314 0.0
C483 C 0.52008 0.55131 0.6132 0.0
C484 C 0.49637 0.55965 0.5994 0.0
C485 C 0.50557 0.56362 0.58626 0.0
U486 U 0.55697 0.55671 0.55746 0.0
O487 O 0.5575 0.55995 0.53165 0.0
O488 O 0.57248 0.57472 0.54703 0.0
C489 C 0.56729 0.572 0.53259 0.0
C490 C 0.5315 0.56644 0.57262 0.0
C491 C 0.56273 0.58602 0.52349 0.0
C492 C 0.5477 0.61034 0.52049 0.0
C493 C 0.55159 0.59695 0.52931 0.0
C494 C 0.56589 0.60186 0.4999 0.0
C495 C 0.55488 0.613 0.5057 0.0
C496 C 0.56977 0.58853 0.50872 0.0
C497 C 0.58621 0.52222 0.56206 0.0
C498 C 0.61314 0.52053 0.55169 0.0
C499 C 0.59943 0.49678 0.5597 0.0
C500 C 0.58613 0.50579 0.56389 0.0
C501 C 0.61313 0.50404 0.55364 0.0
C502 C 0.59977 0.52953 0.55579 0.0
C503 C 0.57212 0.53141 0.56696 0.0
O504 O 0.54584 0.5719 0.57555 0.0
O505 O 0.53093 0.55693 0.56026 0.0
O506 O 0.55996 0.53085 0.55724 0.0
O507 O 0.57481 0.54564 0.57275 0.0
H508 H 0.54201 0.55344 0.60042 0.0
H509 H 0.52602 0.54682 0.62359 0.0
H510 H 0.48363 0.56129 0.59876 0.0
H511 H 0.49978 0.56841 0.57591 0.0
H512 H 0.53928 0.61872 0.52539 0.0
H513 H 0.54601 0.59518 0.54071 0.0
H514 H 0.57143 0.60334 0.48845 0.0
H515 H 0.57833 0.58017 0.504 0.0
H516 H 0.62343 0.52646 0.54687 0.0
H517 H 0.59908 0.48414 0.56152 0.0
H518 H 0.57579 0.49992 0.56871 0.0
H519 H 0.60007 0.5422 0.55414 0.0
C520 C 0.5215 0.47278 0.94981 0.0
C521 C 0.529 0.47947 0.93663 0.0
C522 C 0.50351 0.48158 0.92307 0.0
C523 C 0.52009 0.48376 0.92334 0.0
C524 C 0.49607 0.47507 0.9364 0.0
C525 C 0.50499 0.47069 0.94961 0.0
U526 U 0.55601 0.47726 0.97923 0.0
O527 O 0.55607 0.47448 1.00512 0.0
O528 O 0.57099 0.45915 0.99021 0.0
C529 C 0.56553 0.46215 1.00451 0.0
C530 C 0.53058 0.46778 0.96383 0.0
C531 C 0.56041 0.44838 1.01374 0.0
C532 C 0.54729 0.42287 1.01584 0.0
C533 C 0.55171 0.43596 1.00682 0.0
C534 C 0.55997 0.43462 0.03883 0.0
C535 C 0.55139 0.42204 0.03196 0.0
C536 C 0.56443 0.44763 0.0298 0.0
C537 C 0.58567 0.51151 0.97413 0.0
C538 C 0.61231 0.51365 0.98514 0.0
C539 C 0.59932 0.5368 0.97465 0.0
C540 C 0.58596 0.5277 0.9709 0.0
C541 C 0.61276 0.52988 0.98166 0.0
C542 C 0.59888 0.50455 0.98143 0.0
C543 C 0.57161 0.5022 0.96944 0.0
O544 O 0.54486 0.46205 0.96115 0.0
O545 O 0.53002 0.4774 0.9761 0.0
O546 O 0.55937 0.50307 0.97906 0.0
O547 O 0.57429 0.48782 0.96407 0.0
H548 H 0.54173 0.48132 0.93657 0.0
H549 H 0.52615 0.48891 0.91334 0.0
H550 H 0.48337 0.47306 0.93652 0.0
H551 H 0.49898 0.46555 0.95966 0.0
H552 H 0.54055 0.41348 1.01023 0.0
H553 H 0.54838 0.43636 0.99445 0.0
H554 H 0.56349 0.43429 0.05114 0.0
H555 H 0.57115 0.45709 0.03535 0.0
H556 H 0.62247 0.50788 0.99041 0.0
H557 H 0.59907 0.5493 0.97209 0.0
H558 H 0.57585 0.53331 0.96536 0.0
H559 H 0.59889 0.49206 0.98409 0.0
C560 C 0.72284 0.26049 0.33893 0.0
C561 C 0.73888 0.26332 0.34263 0.0
C562 C 0.73111 0.27827 0.3662 0.0
C563 C 0.74296 0.27219 0.3561 0.0
C564 C 0.71509 0.27519 0.36256 0.0
C565 C 0.71102 0.26644 0.34904 0.0
U566 U 0.72783 0.22662 0.30874 0.0
O567 O 0.70967 0.21185 0.29716 0.0
O568 O 0.72525 0.22674 0.28281 0.0
C569 C 0.71287 0.2173 0.28301 0.0
C570 C 0.71811 0.25169 0.32451 0.0
C571 C 0.69907 0.22245 0.27371 0.0
C572 C 0.67569 0.23892 0.27025 0.0
C573 C 0.68896 0.2345 0.27918 0.0
C574 C 0.68265 0.21943 0.25025 0.0
C575 C 0.67231 0.23136 0.25571 0.0
C576 C 0.69587 0.21503 0.25918 0.0
C577 C 0.76141 0.19641 0.31417 0.0
C578 C 0.77068 0.17771 0.29417 0.0
C579 C 0.77842 0.17452 0.32155 0.0
C580 C 0.76969 0.18798 0.32571 0.0
C581 C 0.77907 0.16923 0.30573 0.0
C582 C 0.76187 0.19115 0.29837 0.0
C583 C 0.75245 0.21063 0.31895 0.0
O584 O 0.72791 0.25235 0.31242 0.0
O585 O 0.71227 0.23749 0.32677 0.0
O586 O 0.73789 0.20816 0.32392 0.0
O587 O 0.75366 0.22288 0.30959 0.0
H588 H 0.74824 0.25875 0.33508 0.0
H589 H 0.7554 0.27421 0.35868 0.0
H590 H 0.70568 0.27984 0.36999 0.0
H591 H 0.69859 0.26442 0.3464 0.0
H592 H 0.66792 0.24805 0.27488 0.0
H593 H 0.69127 0.24036 0.2904 0.0
H594 H 0.68059 0.21355 0.23901 0.0
H595 H 0.70359 0.20576 0.25474 0.0
H596 H 0.77081 0.17386 0.28192 0.0
H597 H 0.78489 0.16841 0.33072 0.0
H598 H 0.76949 0.19186 0.33796 0.0
H599 H 0.75544 0.19745 0.28929 0.0
C600 C 0.47475 0.08614 1.01384 0.0
C601 C 0.4788 0.10023 1.00616 0.0
C602 C 0.48378 0.11318 0.03159 0.0
C603 C 0.4832 0.11363 1.01496 0.0
C604 C 0.47994 0.09898 0.03919 0.0
C605 C 0.47543 0.08563 0.0304 0.0
U606 U 0.47863 0.05598 0.97977 0.0
O607 O 0.47532 0.03018 0.9799 0.0
O608 O 0.4602 0.04492 0.96492 0.0
C609 C 0.46304 0.03069 0.97032 0.0
C610 C 0.46947 0.07196 1.00494 0.0
C611 C 0.44904 0.02154 0.97521 0.0
C612 C 0.42469 0.01864 0.99039 0.0
C613 C 0.43809 0.02752 0.98626 0.0
C614 C 0.43321 0.99768 0.97262 0.0
C615 C 0.42202 1.00363 0.98353 0.0
C616 C 0.44655 1.00656 0.9685 0.0
C617 C 0.51283 0.05987 0.94987 0.0
C618 C 0.51411 0.05054 0.92256 0.0
C619 C 0.53839 0.05586 0.93702 0.0
C620 C 0.52948 0.06025 0.95032 0.0
C621 C 0.53082 0.05106 0.92294 0.0
C622 C 0.5052 0.05483 0.93592 0.0
C623 C 0.5038 0.06512 0.96396 0.0
O624 O 0.46361 0.07428 0.99073 0.0
O625 O 0.47892 0.05963 1.00563 0.0
O626 O 0.50458 0.05583 0.9763 0.0
O627 O 0.48947 0.07074 0.96145 0.0
H628 H 0.4785 0.10093 0.99338 0.0
H629 H 0.48626 0.12433 1.00875 0.0
H630 H 0.4801 0.09827 0.05198 0.0
H631 H 0.47232 0.07492 0.03658 0.0
H632 H 0.41627 0.02364 0.99873 0.0
H633 H 0.43985 0.03908 0.99158 0.0
H634 H 0.43173 0.98608 0.96732 0.0
H635 H 0.45492 1.00172 0.96002 0.0
H636 H 0.50793 0.04673 0.91195 0.0
H637 H 0.55121 0.05656 0.93767 0.0
H638 H 0.53561 0.06413 0.96094 0.0
H639 H 0.49236 0.05431 0.93529 0.0
Li640 Li 0.2835 0.90115 0.01844 0.0
Li641 Li 0.2708 0.88113 0.03539 0.0
Li642 Li 0.2656 0.88132 1.00579 0.0
Li643 Li 0.25395 0.9013 0.02385 0.0
C644 C 0.3005 0.87267 1.01263 0.0
N645 N 0.3301 0.86242 1.00283 0.0
C646 C 0.31135 0.86682 0.02362 0.0
C647 C 0.3046 0.87305 0.99662 0.0
C648 C 0.32629 0.86177 0.01845 0.0
C649 C 0.31965 0.86788 0.99191 0.0
C650 C 0.27624 0.90614 0.05433 0.0
C651 C 0.26977 0.90503 0.08209 0.0
N652 N 0.285 0.90901 0.08573 0.0
C653 C 0.29179 0.91034 0.05833 0.0
C654 C 0.26509 0.90358 0.06629 0.0
C655 C 0.29599 0.9117 0.07428 0.0
C656 C 0.2988 0.92904 1.00896 0.0
N657 N 0.30162 0.91454 1.01513 0.0
C658 C 0.32954 0.9199 0.0161 0.0
C659 C 0.31662 0.90993 0.01891 0.0
C660 C 0.32703 0.93485 1.00944 0.0
C661 C 0.31136 0.93938 1.00597 0.0
H662 H 0.28675 0.93256 1.00633 0.0
H663 H 0.3186 0.89856 0.02418 0.0
C664 C 0.26228 0.85651 0.05601 0.0
N665 N 0.27367 0.86751 0.05324 0.0
C666 C 0.26364 0.84627 0.0688 0.0
C667 C 0.28853 0.85873 0.07566 0.0
C668 C 0.28671 0.86869 0.06268 0.0
C669 C 0.27687 0.84731 0.07891 0.0
H670 H 0.25216 0.85557 0.0482 0.0
H671 H 0.29574 0.87737 0.06015 0.0
C672 C 0.26597 0.90957 0.98826 0.0
N673 N 0.2671 0.91942 0.95722 0.0
C674 C 0.25255 0.91621 0.98122 0.0
C675 C 0.28003 0.90819 0.97959 0.0
C676 C 0.25333 0.92104 0.96549 0.0
C677 C 0.28036 0.91318 0.96389 0.0
C678 C 0.23449 0.87661 0.02575 0.0
C679 C 0.22469 0.87244 1.01304 0.0
C680 C 0.22781 0.87951 0.04063 0.0
C681 C 0.2083 0.87146 1.01538 0.0
C682 C 0.21136 0.87844 0.04249 0.0
N683 N 0.20202 0.87448 0.02993 0.0
C684 C 0.26947 0.85408 0.98639 0.0
C685 C 0.25203 0.87319 0.97581 0.0
C686 C 0.26709 0.84419 0.97325 0.0
N687 N 0.26208 0.86834 0.98737 0.0
C688 C 0.24934 0.86371 0.96244 0.0
C689 C 0.25693 0.84898 0.961 0.0
H690 H 0.27722 0.85036 0.99586 0.0
H691 H 0.24586 0.8843 0.97706 0.0
C692 C 0.23607 0.9252 0.03948 0.0
N693 N 0.23586 0.91472 0.0272 0.0
C694 C 0.2231 0.93515 0.04226 0.0
C695 C 0.20992 0.92342 0.01966 0.0
C696 C 0.22319 0.91376 0.01726 0.0
C697 C 0.20972 0.93433 0.03231 0.0
H698 H 0.24638 0.92593 0.04707 0.0
H699 H 0.22335 0.90545 1.00747 0.0
O700 O 0.28582 0.87767 0.01752 0.0
O701 O 0.27193 0.90464 0.03879 0.0
O702 O 0.26537 0.90473 1.00365 0.0
O703 O 0.25055 0.87784 0.02364 0.0
H704 H 0.30833 0.86628 0.03603 0.0
H705 H 0.29622 0.87711 0.98789 0.0
H706 H 0.33484 0.85732 0.02684 0.0
H707 H 0.32299 0.86816 0.97956 0.0
H708 H 0.26129 0.90299 0.09147 0.0
H709 H 0.30054 0.91244 0.04924 0.0
H710 H 0.25298 0.90044 0.0634 0.0
H711 H 0.30801 0.91486 0.07755 0.0
H712 H 0.34138 0.91582 0.01891 0.0
H713 H 0.30877 0.95089 1.00112 0.0
H714 H 0.25451 0.83746 0.07058 0.0
H715 H 0.29887 0.8601 0.08315 0.0
H716 H 0.24161 0.91752 0.9878 0.0
H717 H 0.29064 0.90349 0.98495 0.0
H718 H 0.243 0.92609 0.95986 0.0
H719 H 0.29116 0.91214 0.95704 0.0
H720 H 0.22968 0.87007 1.00147 0.0
H721 H 0.23523 0.88264 0.05061 0.0
H722 H 0.20056 0.86833 1.00563 0.0
H723 H 0.20601 0.88075 0.05392 0.0
H724 H 0.27326 0.83299 0.97263 0.0
H725 H 0.24113 0.86774 0.95349 0.0
H726 H 0.22367 0.94355 0.05199 0.0
H727 H 0.19986 0.92219 1.01177 0.0
Li728 Li 0.13205 0.51937 0.28334 0.0
Li729 Li 0.15207 0.50199 0.27078 0.0
Li730 Li 0.15231 0.53146 0.26579 0.0
Li731 Li 0.13211 0.51387 0.25381 0.0
C732 C 0.16035 0.52491 0.30054 0.0
N733 N 0.17003 0.5353 0.3301 0.0
C734 C 0.16626 0.51419 0.31153 0.0
C735 C 0.15963 0.54096 0.30449 0.0
C736 C 0.17102 0.51966 0.32644 0.0
C737 C 0.16451 0.54597 0.31951 0.0
C738 C 0.12676 0.48353 0.27536 0.0
C739 C 0.12785 0.45597 0.26798 0.0
N740 N 0.12368 0.45203 0.28298 0.0
C741 C 0.12236 0.47922 0.29066 0.0
C742 C 0.1294 0.47183 0.26388 0.0
C743 C 0.1209 0.46323 0.29429 0.0
C744 C 0.10451 0.53019 0.29912 0.0
N745 N 0.11868 0.52288 0.30145 0.0
C746 C 0.11325 0.52072 0.32915 0.0
C747 C 0.12308 0.51796 0.31608 0.0
C748 C 0.09865 0.52851 0.32717 0.0
C749 C 0.0943 0.53319 0.31185 0.0
H750 H 0.10111 0.5337 0.28733 0.0
H751 H 0.13416 0.51177 0.31762 0.0
C752 C 0.17647 0.48059 0.26244 0.0
N753 N 0.16546 0.4839 0.27376 0.0
C754 C 0.18656 0.46761 0.26396 0.0
C755 C 0.17397 0.46168 0.28887 0.0
C756 C 0.16415 0.47483 0.28689 0.0
C757 C 0.18538 0.45787 0.27729 0.0
H758 H 0.17751 0.48813 0.25226 0.0
H759 H 0.15547 0.4778 0.29585 0.0
C760 C 0.12425 0.54967 0.26522 0.0
N761 N 0.11506 0.58099 0.26487 0.0
C762 C 0.1184 0.55633 0.25132 0.0
C763 C 0.12518 0.55888 0.279 0.0
C764 C 0.11389 0.5722 0.25137 0.0
C765 C 0.12054 0.5747 0.27857 0.0
C766 C 0.15745 0.51161 0.23473 0.0
C767 C 0.16213 0.52432 0.22541 0.0
C768 C 0.1546 0.4969 0.22763 0.0
C769 C 0.16366 0.52217 0.20907 0.0
C770 C 0.15624 0.49523 0.21125 0.0
N771 N 0.16069 0.50779 0.20239 0.0
C772 C 0.18022 0.54927 0.27023 0.0
C773 C 0.16173 0.56151 0.25319 0.0
C774 C 0.19085 0.56179 0.26842 0.0
N775 N 0.16592 0.54939 0.26276 0.0
C776 C 0.17199 0.57431 0.25107 0.0
C777 C 0.18681 0.57457 0.25873 0.0
H778 H 0.1834 0.53939 0.27759 0.0
H779 H 0.15055 0.56116 0.24695 0.0
C780 C 0.10766 0.49892 0.23618 0.0
N781 N 0.11875 0.51056 0.23566 0.0
C782 C 0.09777 0.49599 0.2232 0.0
C783 C 0.11078 0.51718 0.20936 0.0
C784 C 0.12035 0.51976 0.22265 0.0
C785 C 0.09928 0.50513 0.20947 0.0
H786 H 0.10642 0.49193 0.24673 0.0
H787 H 0.1291 0.52909 0.22256 0.0
O788 O 0.15561 0.51973 0.2859 0.0
O789 O 0.12839 0.49912 0.27163 0.0
O790 O 0.12875 0.53415 0.26536 0.0
O791 O 0.15574 0.51354 0.25072 0.0
H792 H 0.16707 0.50175 0.30863 0.0
H793 H 0.15551 0.54948 0.296 0.0
H794 H 0.1755 0.51147 0.3351 0.0
H795 H 0.16397 0.55835 0.32273 0.0
H796 H 0.12996 0.44679 0.25924 0.0
H797 H 0.12018 0.48811 0.29966 0.0
H798 H 0.13268 0.47496 0.25195 0.0
H799 H 0.11759 0.45972 0.30611 0.0
H800 H 0.11717 0.51696 0.34071 0.0
H801 H 0.08305 0.53895 0.30966 0.0
H802 H 0.19538 0.46539 0.25488 0.0
H803 H 0.17251 0.45448 0.29929 0.0
H804 H 0.11744 0.54935 0.24059 0.0
H805 H 0.12925 0.55383 0.28995 0.0
H806 H 0.10945 0.57753 0.24067 0.0
H807 H 0.12123 0.58197 0.28915 0.0
H808 H 0.16447 0.53576 0.23071 0.0
H809 H 0.15111 0.48691 0.23468 0.0
H810 H 0.1672 0.53193 0.2017 0.0
H811 H 0.15398 0.48394 0.20559 0.0
H812 H 0.20207 0.56152 0.27468 0.0
H813 H 0.16849 0.58374 0.24325 0.0
H814 H 0.08889 0.48679 0.22402 0.0
H815 H 0.11254 0.52444 0.19904 0.0
Li816 Li 0.75275 0.63215 1.01388 0.0
Li817 Li 0.76434 0.65221 0.03195 0.0
Li818 Li 0.76986 0.65261 1.00236 0.0
Li819 Li 0.78239 0.6327 0.01956 0.0
C820 C 0.73379 0.65811 1.01055 0.0
N821 N 0.70212 0.66314 1.00365 0.0
C822 C 0.72325 0.66274 0.0225 0.0
C823 C 0.72827 0.65629 0.99505 0.0
C824 C 0.70727 0.66516 0.01879 0.0
C825 C 0.71221 0.65882 0.99181 0.0
C826 C 0.76258 0.6251 0.04978 0.0
C827 C 0.77344 0.62325 0.0761 0.0
N828 N 0.75921 0.61787 0.08141 0.0
C829 C 0.74811 0.61937 0.05546 0.0
C830 C 0.7754 0.62691 0.06014 0.0
C831 C 0.74662 0.61585 0.0715 0.0
C832 C 0.73631 0.60652 0.99959 0.0
N833 N 0.73479 0.61861 1.01019 0.0
C834 C 0.7079 0.61116 1.01549 0.0
C835 C 0.72099 0.62096 0.01823 0.0
C836 C 0.70902 0.59866 1.00446 0.0
C837 C 0.72354 0.59639 0.99652 0.0
H838 H 0.74749 0.60466 0.99358 0.0
H839 H 0.72014 0.63041 0.02686 0.0
C840 C 0.76959 0.67834 0.05257 0.0
N841 N 0.76055 0.66519 0.05034 0.0
C842 C 0.76697 0.6883 0.06561 0.0
C843 C 0.7457 0.67109 0.07381 0.0
C844 C 0.74871 0.66151 0.06059 0.0
C845 C 0.75485 0.68476 0.07647 0.0
H846 H 0.77872 0.68123 0.04408 0.0
H847 H 0.74141 0.65124 0.0584 0.0
C848 C 0.77397 0.62646 0.98343 0.0
N849 N 0.77999 0.62109 0.9517 0.0
C850 C 0.78914 0.62191 0.97844 0.0
C851 C 0.76182 0.62804 0.97231 0.0
C852 C 0.79196 0.6193 0.96234 0.0
C853 C 0.76511 0.62535 0.95631 0.0
C854 C 0.79994 0.66007 0.02416 0.0
C855 C 0.81021 0.66549 1.01241 0.0
C856 C 0.80538 0.65883 0.03972 0.0
C857 C 0.82588 0.66926 0.01638 0.0
C858 C 0.82112 0.66271 0.04321 0.0
N859 N 0.83097 0.66778 0.03156 0.0
C860 C 0.76273 0.6787 0.9831 0.0
C861 C 0.78484 0.6639 0.97404 0.0
C862 C 0.76437 0.68922 0.97057 0.0
N863 N 0.77283 0.66628 0.98457 0.0
C864 C 0.78686 0.67408 0.96127 0.0
C865 C 0.77656 0.68699 0.95942 0.0
H866 H 0.75343 0.68053 0.99174 0.0
H867 H 0.79302 0.65424 0.97566 0.0
C868 C 0.79904 0.60651 0.03175 0.0
N869 N 0.80078 0.61972 0.0229 0.0
C870 C 0.812 0.59661 0.03455 0.0
C871 C 0.82833 0.61392 0.01889 0.0
C872 C 0.81503 0.62345 0.01633 0.0
C873 C 0.82693 0.60029 0.02813 0.0
H874 H 0.78755 0.60363 0.03663 0.0
H875 H 0.81606 0.63368 1.00891 0.0
O876 O 0.74945 0.65557 1.01399 0.0
O877 O 0.76421 0.62872 0.03413 0.0
O878 O 0.77102 0.62915 0.99915 0.0
O879 O 0.78459 0.65624 0.02046 0.0
H880 H 0.72734 0.66434 0.03453 0.0
H881 H 0.73632 0.65303 0.98561 0.0
H882 H 0.69897 0.66864 0.02794 0.0
H883 H 0.70777 0.65738 0.97987 0.0
H884 H 0.78325 0.62465 0.08425 0.0
H885 H 0.73811 0.61776 0.04759 0.0
H886 H 0.78676 0.63098 0.05588 0.0
H887 H 0.73546 0.61151 0.07607 0.0
H888 H 0.69695 0.61349 0.02182 0.0
H889 H 0.72513 0.58675 0.98816 0.0
H890 H 0.77414 0.69883 0.06696 0.0
H891 H 0.73632 0.66777 0.08188 0.0
H892 H 0.79865 0.62049 0.98689 0.0
H893 H 0.74995 0.63125 0.97599 0.0
H894 H 0.80366 0.61587 0.9583 0.0
H895 H 0.75582 0.6266 0.94757 0.0
H896 H 0.80618 0.66666 1.00035 0.0
H897 H 0.7975 0.65502 0.04901 0.0
H898 H 0.83399 0.67336 1.00738 0.0
H899 H 0.8255 0.66175 0.05519 0.0
H900 H 0.75608 0.69893 0.96957 0.0
H901 H 0.79659 0.67205 0.95312 0.0
H902 H 0.81038 0.58628 0.04182 0.0
H903 H 0.83952 0.61706 1.01345 0.0
Li904 Li 0.88304 0.03137 0.2718 0.0
Li905 Li 0.9031 1.01363 0.28349 0.0
Li906 Li 0.9033 0.0195 0.25402 0.0
Li907 Li 0.88317 1.00189 0.26578 0.0
C908 C 0.91073 0.04954 0.27418 0.0
N909 N 0.91899 0.08096 0.27767 0.0
C910 C 0.91629 0.05526 0.28873 0.0
C911 C 0.90964 0.05975 0.26134 0.0
C912 C 0.92033 0.0712 0.29028 0.0
C913 C 0.9138 0.0756 0.26336 0.0
C914 C 0.87672 1.01023 0.30185 0.0
C915 C 0.87606 0.99224 0.32378 0.0
N916 N 0.87139 1.00427 0.33349 0.0
C917 C 0.87174 0.02238 0.31201 0.0
C918 C 0.87874 0.995 0.30773 0.0
C919 C 0.86917 0.01914 0.32798 0.0
C920 C 0.85624 0.05106 0.2669 0.0
N921 N 0.86976 0.04948 0.27554 0.0
C922 C 0.8639 0.07325 0.28995 0.0
C923 C 0.87364 0.0602 0.28699 0.0
C924 C 0.84987 0.07527 0.28117 0.0
C925 C 0.84612 0.06393 0.26948 0.0
H926 H 0.8532 0.04222 0.2581 0.0
H927 H 0.88419 0.0585 0.29402 0.0
C928 C 0.9284 0.99953 0.30037 0.0
N929 N 0.9163 1.01009 0.30165 0.0
C930 C 0.9383 0.99659 0.31329 0.0
C931 C 0.92324 1.01556 0.32863 0.0
C932 C 0.91369 0.0182 0.31538 0.0
C933 C 0.93577 1.0046 0.32773 0.0
H934 H 0.93047 0.99346 0.28925 0.0
H935 H 0.90423 0.02679 0.31605 0.0
C936 C 0.87576 0.02467 0.23638 0.0
N937 N 0.86781 0.03414 0.20621 0.0
C938 C 0.87024 1.01364 0.22527 0.0
C939 C 0.87698 0.04055 0.23223 0.0
C940 C 0.86635 0.01865 0.21005 0.0
C941 C 0.87297 0.0451 0.2169 0.0
C942 C 0.90947 0.98351 0.26195 0.0
C943 C 0.91456 0.97869 0.24692 0.0
C944 C 0.90726 0.97227 0.27373 0.0
C945 C 0.91706 0.96265 0.24384 0.0
C946 C 0.90988 0.95633 0.2702 0.0
N947 N 0.91467 0.95189 0.25544 0.0
C948 C 0.93002 0.0318 0.23783 0.0
C949 C 0.9128 0.01658 0.22164 0.0
C950 C 0.94003 0.03465 0.22497 0.0
N951 N 0.91661 0.02304 0.23594 0.0
C952 C 0.92244 0.01914 0.20845 0.0
C953 C 0.93628 0.02832 0.20997 0.0
H954 H 0.93302 0.03652 0.24938 0.0
H955 H 0.90234 1.00928 0.22048 0.0
C956 C 0.85791 0.9805 0.27193 0.0
N957 N 0.87 0.98377 0.2618 0.0
C958 C 0.848 0.9675 0.26917 0.0
C959 C 0.8631 0.96148 0.24559 0.0
C960 C 0.87265 0.97463 0.24876 0.0
C961 C 0.8505 0.95775 0.25583 0.0
H962 H 0.85584 0.9881 0.28207 0.0
H963 H 0.88211 0.97761 0.2407 0.0
O964 O 0.90665 0.03398 0.27249 0.0
O965 O 0.87942 1.01322 0.28621 0.0
O966 O 0.87971 0.01995 0.25131 0.0
O967 O 0.90683 0.99915 0.26513 0.0
H968 H 0.91737 0.04751 0.29875 0.0
H969 H 0.90577 0.05545 0.2499 0.0
H970 H 0.92454 0.07581 0.3015 0.0
H971 H 0.91296 0.08364 0.25352 0.0
H972 H 0.87766 0.98052 0.3285 0.0
H973 H 0.86998 0.03419 0.30765 0.0
H974 H 0.8823 0.98542 0.29999 0.0
H975 H 0.86542 0.02845 0.336 0.0
H976 H 0.86738 0.0817 0.299 0.0
H977 H 0.8353 0.0648 0.26261 0.0
H978 H 0.94798 0.98829 0.31188 0.0
H979 H 0.92069 0.02194 0.33949 0.0
H980 H 0.86906 1.00134 0.22831 0.0
H981 H 0.88082 0.0493 0.24079 0.0
H982 H 0.86218 1.01022 0.2013 0.0
H983 H 0.8739 0.05735 0.21352 0.0
H984 H 0.91646 0.98724 0.2377 0.0
H985 H 0.90361 0.97581 0.28549 0.0
H986 H 0.9209 0.95875 0.23224 0.0
H987 H 0.90814 0.9475 0.27919 0.0
H988 H 0.95072 0.04153 0.22682 0.0
H989 H 0.91897 1.01409 0.19715 0.0
H990 H 0.83829 0.96531 0.27726 0.0
H991 H 0.86565 0.95426 0.23525 0.0
Li992 Li 0.26518 0.1528 0.53144 0.0
Li993 Li 0.25374 0.13266 0.51346 0.0
Li994 Li 0.28327 0.13304 0.51894 0.0
Li995 Li 0.27048 0.15287 0.50185 0.0
C996 C 0.26591 0.12459 0.54911 0.0
N997 N 0.26737 0.11487 0.58018 0.0
C998 C 0.25266 0.11768 0.55621 0.0
C999 C 0.27996 0.12633 0.55773 0.0
C1000 C 0.25362 0.11291 0.57196 0.0
C1001 C 0.28046 0.1214 0.57344 0.0
C1002 C 0.23412 0.15724 0.51138 0.0
C1003 C 0.21103 0.15544 0.49459 0.0
N1004 N 0.20164 0.15913 0.50719 0.0
C1005 C 0.22427 0.16115 0.52414 0.0
C1006 C 0.22748 0.15449 0.49646 0.0
C1007 C 0.20787 0.16201 0.52178 0.0
C1008 C 0.26861 0.18026 0.55059 0.0
N1009 N 0.26153 0.16583 0.54978 0.0
C1010 C 0.24903 0.1703 0.57486 0.0
C1011 C 0.25174 0.16082 0.5615 0.0
C1012 C 0.25632 0.18519 0.57613 0.0
C1013 C 0.26619 0.19015 0.56372 0.0
H1014 H 0.27616 0.18409 0.54101 0.0
H1015 H 0.24581 0.14957 0.56038 0.0
C1016 C 0.23587 0.1087 0.49787 0.0
N1017 N 0.23572 0.11916 0.51017 0.0
C1018 C 0.22291 0.09871 0.49518 0.0
C1019 C 0.20985 0.1104 0.51789 0.0
C1020 C 0.22312 0.12007 0.52021 0.0
C1021 C 0.20963 0.09952 0.50523 0.0
H1022 H 0.24608 0.10806 0.49015 0.0
H1023 H 0.22338 0.12829 0.53007 0.0
C1024 C 0.29995 0.16188 0.52462 0.0
N1025 N 0.32931 0.17285 0.53437 0.0
C1026 C 0.31071 0.16783 0.51359 0.0
C1027 C 0.30402 0.16177 0.54064 0.0
C1028 C 0.32552 0.17325 0.51874 0.0
C1029 C 0.31895 0.1673 0.54533 0.0
C1030 C 0.27595 0.12765 0.48303 0.0
C1031 C 0.2914 0.12316 0.47896 0.0
C1032 C 0.26476 0.13029 0.47113 0.0
C1033 C 0.29547 0.1216 0.463 0.0
C1034 C 0.2693 0.12862 0.45531 0.0
N1035 N 0.28444 0.12436 0.4516 0.0
C1036 C 0.29928 0.10554 0.52872 0.0
C1037 C 0.31639 0.12489 0.51804 0.0
C1038 C 0.31215 0.09552 0.53155 0.0
N1039 N 0.30161 0.11999 0.52225 0.0
C1040 C 0.32961 0.11529 0.5207 0.0
C1041 C 0.3276 0.10039 0.52761 0.0
H1042 H 0.2874 0.1018 0.53177 0.0
H1043 H 0.31795 0.13616 0.51243 0.0
C1044 C 0.26235 0.17763 0.48114 0.0
N1045 N 0.27349 0.16638 0.48396 0.0
C1046 C 0.26405 0.1879 0.46841 0.0
C1047 C 0.28866 0.17484 0.46162 0.0
C1048 C 0.28655 0.16491 0.47457 0.0
C1049 C 0.27734 0.18658 0.45843 0.0
H1050 H 0.25216 0.1787 0.48885 0.0
H1051 H 0.29541 0.1561 0.4772 0.0
O1052 O 0.26514 0.12939 0.53371 0.0
O1053 O 0.25018 0.15612 0.51351 0.0
O1054 O 0.28539 0.15653 0.51975 0.0
O1055 O 0.27178 0.12935 0.4986 0.0
H1056 H 0.24173 0.11609 0.54967 0.0
H1057 H 0.29044 0.13125 0.55232 0.0
H1058 H 0.24342 0.10765 0.57764 0.0
H1059 H 0.29126 0.1227 0.58026 0.0
H1060 H 0.20572 0.15323 0.48312 0.0
H1061 H 0.22922 0.1634 0.53575 0.0
H1062 H 0.23495 0.15159 0.48644 0.0
H1063 H 0.20009 0.16493 0.53157 0.0
H1064 H 0.24105 0.16612 0.58395 0.0
H1065 H 0.27211 0.2015 0.56421 0.0
H1066 H 0.2232 0.09058 0.48521 0.0
H1067 H 0.19998 0.11127 0.52606 0.0
H1068 H 0.30771 0.16817 0.50117 0.0
H1069 H 0.29571 0.15765 0.54941 0.0
H1070 H 0.33401 0.17777 0.51031 0.0
H1071 H 0.32226 0.16724 0.55769 0.0
H1072 H 0.30017 0.12099 0.48801 0.0
H1073 H 0.25273 0.13364 0.47408 0.0
H1074 H 0.30741 0.11821 0.45967 0.0
H1075 H 0.2608 0.13072 0.44597 0.0
H1076 H 0.31004 0.08419 0.53699 0.0
H1077 H 0.34124 0.11939 0.51717 0.0
H1078 H 0.25498 0.1967 0.46633 0.0
H1079 H 0.2992 0.17354 0.45438 0.0
Li1080 Li 0.40297 0.51433 0.78287 0.0
Li1081 Li 0.38279 0.53165 0.77081 0.0
Li1082 Li 0.38295 0.50224 0.76477 0.0
Li1083 Li 0.40295 0.52027 0.75348 0.0
C1084 C 0.3746 0.50792 0.79961 0.0
N1085 N 0.3649 0.49652 0.82857 0.0
C1086 C 0.3682 0.51818 0.81099 0.0
C1087 C 0.3758 0.49182 0.80286 0.0
C1088 C 0.36345 0.5122 0.82559 0.0
C1089 C 0.3709 0.48629 0.81759 0.0
C1090 C 0.40803 0.55034 0.77598 0.0
C1091 C 0.40673 0.57794 0.76935 0.0
N1092 N 0.41099 0.5818 0.78442 0.0
C1093 C 0.41253 0.55457 0.79136 0.0
C1094 C 0.40523 0.56209 0.76484 0.0
C1095 C 0.41392 0.57055 0.7954 0.0
C1096 C 0.43036 0.50352 0.79898 0.0
N1097 N 0.41612 0.51082 0.80107 0.0
C1098 C 0.42082 0.51309 0.82893 0.0
C1099 C 0.41134 0.51579 0.81566 0.0
C1100 C 0.43548 0.50533 0.82719 0.0
C1101 C 0.44025 0.50061 0.81192 0.0
H1102 H 0.43404 0.49989 0.78724 0.0
H1103 H 0.40025 0.52205 0.817 0.0
C1104 C 0.35835 0.55366 0.7637 0.0
N1105 N 0.36936 0.54961 0.7747 0.0
C1106 C 0.34832 0.5666 0.76632 0.0
C1107 C 0.36113 0.57097 0.79154 0.0
C1108 C 0.37084 0.55791 0.78847 0.0
C1109 C 0.34961 0.57548 0.78041 0.0
H1110 H 0.35722 0.54674 0.75295 0.0
H1111 H 0.37955 0.55438 0.79713 0.0
C1112 C 0.4115 0.48452 0.76365 0.0
N1113 N 0.42157 0.45348 0.7621 0.0
C1114 C 0.41764 0.47831 0.74954 0.0
C1115 C 0.41076 0.47501 0.77704 0.0
C1116 C 0.42259 0.46257 0.74897 0.0
C1117 C 0.41583 0.45933 0.77601 0.0
C1118 C 0.37754 0.52262 0.73443 0.0
C1119 C 0.37307 0.51003 0.72458 0.0
C1120 C 0.38015 0.53751 0.72794 0.0
C1121 C 0.37153 0.5125 0.70833 0.0
C1122 C 0.37851 0.5395 0.71164 0.0
N1123 N 0.37429 0.52706 0.70225 0.0
C1124 C 0.35561 0.48307 0.76851 0.0
C1125 C 0.3746 0.4725 0.75067 0.0
C1126 C 0.34568 0.47003 0.76609 0.0
N1127 N 0.36984 0.484 0.76096 0.0
C1128 C 0.36507 0.45923 0.74793 0.0
C1129 C 0.3504 0.45782 0.75572 0.0
H1130 H 0.35196 0.49249 0.77645 0.0
H1131 H 0.38566 0.47371 0.74436 0.0
C1132 C 0.42728 0.53572 0.73635 0.0
N1133 N 0.4163 0.52398 0.73545 0.0
C1134 C 0.43712 0.53893 0.72345 0.0
C1135 C 0.42429 0.5178 0.70892 0.0
C1136 C 0.41477 0.51495 0.72214 0.0
C1137 C 0.43567 0.52996 0.70942 0.0
H1138 H 0.42848 0.54258 0.74714 0.0
H1139 H 0.40611 0.50555 0.72175 0.0
O1140 O 0.37939 0.5136 0.78528 0.0
O1141 O 0.40643 0.53476 0.77185 0.0
O1142 O 0.40656 0.4999 0.76438 0.0
O1143 O 0.37928 0.52038 0.75034 0.0
H1144 H 0.36701 0.53064 0.80863 0.0
H1145 H 0.38027 0.48364 0.79406 0.0
H1146 H 0.35859 0.52003 0.83455 0.0
H1147 H 0.3718 0.47386 0.82027 0.0
H1148 H 0.4045 0.58716 0.76087 0.0
H1149 H 0.41484 0.54564 0.8001 0.0
H1150 H 0.4019 0.55902 0.75285 0.0
H1151 H 0.41731 0.574 0.80729 0.0
H1152 H 0.4168 0.51725 0.84041 0.0
H1153 H 0.45141 0.49453 0.81001 0.0
H1154 H 0.33946 0.56941 0.7575 0.0
H1155 H 0.36275 0.57753 0.80249 0.0
H1156 H 0.41848 0.48553 0.7391 0.0
H1157 H 0.40649 0.47972 0.78818 0.0
H1158 H 0.42725 0.45758 0.73808 0.0
H1159 H 0.41527 0.45184 0.78628 0.0
H1160 H 0.3709 0.49846 0.7294 0.0
H1161 H 0.38346 0.54741 0.73541 0.0
H1162 H 0.36817 0.50285 0.70056 0.0
H1163 H 0.3806 0.55094 0.70645 0.0
H1164 H 0.33452 0.46943 0.77241 0.0
H1165 H 0.36904 0.45031 0.73956 0.0
H1166 H 0.4459 0.54821 0.72455 0.0
H1167 H 0.42258 0.51067 0.69836 0.0
Li1168 Li 0.78264 0.40104 0.5172 0.0
Li1169 Li 0.77058 0.38117 0.53473 0.0
Li1170 Li 0.76502 0.38146 0.50526 0.0
Li1171 Li 0.75304 0.40158 0.52296 0.0
C1172 C 0.80129 0.37532 0.5146 0.0
N1173 N 0.83361 0.3712 0.51069 0.0
C1174 C 0.8107 0.37067 0.52735 0.0
C1175 C 0.80827 0.37768 0.49982 0.0
C1176 C 0.82703 0.36869 0.52514 0.0
C1177 C 0.82464 0.3756 0.49809 0.0
C1178 C 0.77225 0.40914 0.5532 0.0
C1179 C 0.75986 0.41337 0.57862 0.0
N1180 N 0.77399 0.4184 0.5846 0.0
C1181 C 0.7866 0.41455 0.55954 0.0
C1182 C 0.75872 0.40871 0.56276 0.0
C1183 C 0.78727 0.41911 0.57546 0.0
C1184 C 0.8002 0.42535 0.50249 0.0
N1185 N 0.80099 0.41407 0.51379 0.0
C1186 C 0.82774 0.42149 0.51995 0.0
C1187 C 0.81435 0.41211 0.5226 0.0
C1188 C 0.82731 0.43318 0.50827 0.0
C1189 C 0.81326 0.43508 0.49953 0.0
H1190 H 0.7894 0.42684 0.49576 0.0
H1191 H 0.81463 0.4033 0.53174 0.0
C1192 C 0.76602 0.35341 0.5522 0.0
N1193 N 0.77367 0.36755 0.55254 0.0
C1194 C 0.76778 0.34279 0.56462 0.0
C1195 C 0.78546 0.36133 0.5775 0.0
C1196 C 0.78338 0.37159 0.56479 0.0
C1197 C 0.7776 0.34668 0.57753 0.0
H1198 H 0.75854 0.35036 0.54223 0.0
H1199 H 0.78976 0.38263 0.56462 0.0
C1200 C 0.76093 0.40679 0.48698 0.0
N1201 N 0.75359 0.41015 0.45533 0.0
C1202 C 0.74575 0.41169 0.48247 0.0
C1203 C 0.77243 0.4038 0.47541 0.0
C1204 C 0.74226 0.41327 0.4664 0.0
C1205 C 0.76847 0.40551 0.45947 0.0
C1206 C 0.73554 0.3738 0.52874 0.0
C1207 C 0.72404 0.36789 0.51834 0.0
C1208 C 0.73216 0.37489 0.5449 0.0
C1209 C 0.7092 0.36349 0.52424 0.0
C1210 C 0.71719 0.37035 0.55035 0.0
N1211 N 0.70611 0.36482 0.53999 0.0
C1212 C 0.77191 0.35705 0.483 0.0
C1213 C 0.7475 0.37017 0.47861 0.0
C1214 C 0.76925 0.34712 0.46995 0.0
N1215 N 0.76111 0.36832 0.48705 0.0
C1216 C 0.74441 0.36059 0.46541 0.0
C1217 C 0.75532 0.34879 0.46092 0.0
H1218 H 0.78252 0.35563 0.49004 0.0
H1219 H 0.73899 0.37907 0.48216 0.0
C1220 C 0.73714 0.42891 0.53437 0.0
N1221 N 0.73497 0.41498 0.52651 0.0
C1222 C 0.72431 0.43906 0.53713 0.0
C1223 C 0.70727 0.42052 0.52341 0.0
C1224 C 0.72043 0.41075 0.5209 0.0
C1225 C 0.70908 0.43492 0.53166 0.0
H1226 H 0.74888 0.43219 0.53842 0.0
H1227 H 0.71904 0.39986 0.5143 0.0
O1228 O 0.78531 0.37746 0.51658 0.0
O1229 O 0.77141 0.40461 0.53764 0.0
O1230 O 0.76451 0.40499 0.50264 0.0
O1231 O 0.75011 0.37822 0.52314 0.0
H1232 H 0.80548 0.36871 0.53885 0.0
H1233 H 0.80114 0.38111 0.4898 0.0
H1234 H 0.83447 0.36518 0.53493 0.0
H1235 H 0.83022 0.37748 0.48674 0.0
H1236 H 0.74948 0.41304 0.58616 0.0
H1237 H 0.79715 0.41514 0.55229 0.0
H1238 H 0.74741 0.40499 0.55797 0.0
H1239 H 0.79833 0.4232 0.58055 0.0
H1240 H 0.83823 0.41977 0.52714 0.0
H1241 H 0.81243 0.44386 0.49034 0.0
H1242 H 0.76137 0.33171 0.56418 0.0
H1243 H 0.79339 0.36471 0.58703 0.0
H1244 H 0.73674 0.41415 0.49126 0.0
H1245 H 0.78427 0.40017 0.4787 0.0
H1246 H 0.73054 0.41697 0.46274 0.0
H1247 H 0.77723 0.40314 0.45039 0.0
H1248 H 0.72649 0.3668 0.50582 0.0
H1249 H 0.74105 0.37901 0.55318 0.0
H1250 H 0.70015 0.359 0.5163 0.0
H1251 H 0.71442 0.37118 0.56282 0.0
H1252 H 0.77789 0.33805 0.46716 0.0
H1253 H 0.7336 0.36249 0.45876 0.0
H1254 H 0.72638 0.45015 0.54328 0.0
H1255 H 0.69578 0.41675 0.51904 0.0
Li1256 Li 0.65303 1.00231 0.77053 0.0
Li1257 Li 0.63285 0.01968 0.78291 0.0
Li1258 Li 0.63295 1.01427 0.75327 0.0
Li1259 Li 0.65295 0.03189 0.76562 0.0
C1260 C 0.62673 0.98373 0.77351 0.0
N1261 N 0.6214 0.95196 0.77836 0.0
C1262 C 0.62187 0.97844 0.78835 0.0
C1263 C 0.62863 0.9729 0.76108 0.0
C1264 C 0.6193 0.96232 0.79058 0.0
C1265 C 0.62595 0.95688 0.76378 0.0
C1266 C 0.65982 0.02387 0.80107 0.0
C1267 C 0.66157 0.04293 0.82239 0.0
N1268 N 0.6666 0.03136 0.83224 0.0
C1269 C 0.66519 1.0122 0.81135 0.0
C1270 C 0.65814 0.03939 0.80658 0.0
C1271 C 0.66849 1.01621 0.82708 0.0
C1272 C 0.67903 0.98243 0.76344 0.0
N1273 N 0.66656 0.9843 0.7735 0.0
C1274 C 0.67413 0.96108 0.78757 0.0
C1275 C 0.66403 0.97401 0.78549 0.0
C1276 C 0.6871 0.95882 0.77732 0.0
C1277 C 0.68946 0.96973 0.76512 0.0
H1278 H 0.68097 0.99088 0.75415 0.0
H1279 H 0.65432 0.97594 0.79362 0.0
C1280 C 0.60653 0.03244 0.79947 0.0
N1281 N 0.61951 0.02304 0.80107 0.0
C1282 C 0.59647 0.03531 0.81234 0.0
C1283 C 0.61312 0.01855 0.82826 0.0
C1284 C 0.62282 1.01597 0.81506 0.0
C1285 C 0.59971 0.02838 0.82704 0.0
H1286 H 0.60393 0.03766 0.78815 0.0
H1287 H 0.63295 1.00822 0.81599 0.0
C1288 C 0.65957 1.0111 0.73486 0.0
N1289 N 0.66553 1.0052 0.70321 0.0
C1290 C 0.66466 0.02329 0.72505 0.0
C1291 C 0.65775 0.99587 0.72862 0.0
C1292 C 0.66755 0.02008 0.70907 0.0
C1293 C 0.66075 0.99313 0.71258 0.0
C1294 C 0.62593 0.05012 0.76307 0.0
C1295 C 0.62089 0.0556 0.74836 0.0
C1296 C 0.62725 0.06067 0.77581 0.0
C1297 C 0.61756 0.07164 0.74657 0.0
C1298 C 0.62382 0.07662 0.77354 0.0
N1299 N 0.61911 0.08174 0.75909 0.0
C1300 C 0.60715 1.00073 0.73653 0.0
C1301 C 0.62249 0.01839 0.72128 0.0
C1302 C 0.59709 0.99777 0.72368 0.0
N1303 N 0.61964 1.0108 0.7351 0.0
C1304 C 0.61278 1.01571 0.7081 0.0
C1305 C 0.59986 1.00525 0.70916 0.0
H1306 H 0.60491 0.99508 0.74771 0.0
H1307 H 0.63224 0.02662 0.72048 0.0
C1308 C 0.67934 0.05135 0.7723 0.0
N1309 N 0.66637 0.05002 0.76281 0.0
C1310 C 0.68963 0.0642 0.77089 0.0
C1311 C 0.67324 0.07403 0.74973 0.0
C1312 C 0.66327 0.06096 0.75155 0.0
C1313 C 0.68664 0.07583 0.75952 0.0
H1314 H 0.6818 0.04233 0.78092 0.0
H1315 H 0.65315 0.05949 0.74383 0.0
O1316 O 0.62941 0.99946 0.77113 0.0
O1317 O 0.65643 0.02014 0.78565 0.0
O1318 O 0.65658 1.01405 0.75052 0.0
O1319 O 0.62932 0.03446 0.76501 0.0
H1320 H 0.62021 0.98667 0.79806 0.0
H1321 H 0.63207 0.97683 0.74945 0.0
H1322 H 0.61564 0.95805 0.80204 0.0
H1323 H 0.62745 0.94836 0.75428 0.0
H1324 H 0.66026 0.05489 0.82682 0.0
H1325 H 0.6667 1.00017 0.80725 0.0
H1326 H 0.65435 0.04862 0.79871 0.0
H1327 H 0.67255 1.00728 0.83519 0.0
H1328 H 0.672 0.95313 0.79729 0.0
H1329 H 0.69922 0.9684 0.75686 0.0
H1330 H 0.58612 0.0427 0.81069 0.0
H1331 H 0.6162 1.01302 0.83933 0.0
H1332 H 0.66626 0.03511 0.7297 0.0
H1333 H 0.65412 0.98625 0.7361 0.0
H1334 H 0.6714 0.02942 0.70132 0.0
H1335 H 0.65932 0.98141 0.70758 0.0
H1336 H 0.61965 0.04758 0.73841 0.0
H1337 H 0.63079 0.05658 0.78735 0.0
H1338 H 0.61375 0.07606 0.73522 0.0
H1339 H 0.62486 0.08493 0.78329 0.0
H1340 H 0.58711 0.98987 0.72521 0.0
H1341 H 0.6155 0.02168 0.69716 0.0
H1342 H 0.69998 0.06486 0.77847 0.0
H1343 H 0.67039 0.08269 0.74084 0.0
Li1344 Li 0.03359 0.26862 0.88355 0.0
Li1345 Li 1.01558 0.28035 0.90363 0.0
Li1346 Li 0.02122 0.25085 0.90296 0.0
Li1347 Li 1.00386 0.26319 0.88301 0.0
C1348 C 0.05159 0.27091 0.91083 0.0
N1349 N 0.08329 0.27504 0.91827 0.0
C1350 C 0.05695 0.2854 0.91683 0.0
C1351 C 0.06231 0.25845 0.90885 0.0
C1352 C 0.07304 0.28727 0.92046 0.0
C1353 C 0.0783 0.26079 0.91261 0.0
C1354 C 1.01219 0.29894 0.87735 0.0
C1355 C 0.99351 0.32048 0.87612 0.0
N1356 N 1.00545 0.33031 0.87168 0.0
C1357 C 0.02424 0.30921 0.8726 0.0
C1358 C 0.99667 0.30457 0.87896 0.0
C1359 C 0.0206 0.32505 0.86986 0.0
C1360 C 0.054 0.26343 0.85731 0.0
N1361 N 0.05195 0.27234 0.87062 0.0
C1362 C 0.07541 0.28716 0.86484 0.0
C1363 C 0.0623 0.2841 0.87446 0.0
C1364 C 0.07786 0.27819 0.85096 0.0
C1365 C 0.06693 0.26613 0.84729 0.0
H1366 H 0.04545 0.25435 0.85431 0.0
H1367 H 0.06024 0.29131 0.88486 0.0
C1368 C 1.00171 0.29677 0.92953 0.0
N1369 N 1.01194 0.29831 0.9172 0.0
C1370 C 0.99857 0.30958 0.93961 0.0
C1371 C 0.01677 0.32532 0.92432 0.0
C1372 C 0.01961 0.31217 0.91459 0.0
C1373 C 1.00606 0.32418 0.93703 0.0
H1374 H 0.99602 0.28554 0.9316 0.0
H1375 H 0.028 0.31305 0.90498 0.0
C1376 C 0.02569 0.23315 0.87574 0.0
N1377 N 0.03313 0.20214 0.86847 0.0
C1378 C 1.01386 0.22277 0.87049 0.0
C1379 C 0.04134 0.22783 0.87704 0.0
C1380 C 0.01785 0.20711 0.86695 0.0
C1381 C 0.04485 0.2121 0.87338 0.0
C1382 C 0.98495 0.25982 0.90924 0.0
C1383 C 0.97951 0.24497 0.91383 0.0
C1384 C 0.97417 0.27225 0.90769 0.0
C1385 C 0.96329 0.24272 0.91648 0.0
C1386 C 0.95805 0.26953 0.91044 0.0
N1387 N 0.95298 0.25494 0.91472 0.0
C1388 C 0.03407 0.23402 0.92877 0.0
C1389 C 0.01718 0.21867 0.91234 0.0
C1390 C 0.03681 0.22108 0.93855 0.0
N1391 N 0.02452 0.23257 0.91586 0.0
C1392 C 0.01963 0.20541 0.92175 0.0
C1393 C 0.02959 0.20649 0.93507 0.0
H1394 H 0.03956 0.24525 0.93152 0.0
H1395 H 1.00924 0.21789 0.90234 0.0
C1396 C 0.98408 0.27022 0.857 0.0
N1397 N 0.98582 0.26021 0.86935 0.0
C1398 C 0.97115 0.26873 0.84673 0.0
C1399 C 0.9621 0.24643 0.86185 0.0
C1400 C 0.97525 0.24834 0.8718 0.0
C1401 C 0.95985 0.25675 0.84911 0.0
H1402 H 0.99282 0.27935 0.85504 0.0
H1403 H 0.97705 0.24026 0.88144 0.0
O1404 O 0.0359 0.2689 0.90712 0.0
O1405 O 1.01556 0.28342 0.88019 0.0
O1406 O 0.02198 0.24849 0.87936 0.0
O1407 O 1.00078 0.26221 0.90649 0.0
H1408 H 0.0488 0.29512 0.91858 0.0
H1409 H 0.05831 0.24707 0.90455 0.0
H1410 H 0.07736 0.29845 0.92501 0.0
H1411 H 0.08673 0.25126 0.91108 0.0
H1412 H 0.98156 0.32501 0.87739 0.0
H1413 H 0.03628 0.30504 0.87114 0.0
H1414 H 0.98715 0.29673 0.88229 0.0
H1415 H 0.02984 0.33315 0.86628 0.0
H1416 H 0.08355 0.29648 0.86828 0.0
H1417 H 0.06812 0.25908 0.8366 0.0
H1418 H 0.99048 0.308 0.94942 0.0
H1419 H 0.02276 0.33631 0.92175 0.0
H1420 H 1.00172 0.22672 0.86929 0.0
H1421 H 0.05069 0.23579 0.88072 0.0
H1422 H 1.00879 0.19892 0.86299 0.0
H1423 H 0.05691 0.20781 0.87439 0.0
H1424 H 0.98769 0.23525 0.91523 0.0
H1425 H 0.97822 0.28389 0.90449 0.0
H1426 H 0.9589 0.23125 0.91993 0.0
H1427 H 0.94957 0.27904 0.90922 0.0
H1428 H 0.04466 0.22245 0.94862 0.0
H1429 H 1.01356 0.1945 0.91878 0.0
H1430 H 0.97016 0.27675 0.83689 0.0
H1431 H 0.9537 0.23708 0.86425 0.0
Li1432 Li 0.53326 0.76857 0.38406 0.0
Li1433 Li 0.51508 0.7801 0.40402 0.0
Li1434 Li 0.52081 0.75074 0.40372 0.0
Li1435 Li 0.50362 0.76311 0.38362 0.0
C1436 C 0.55095 0.76899 0.41248 0.0
N1437 N 0.58218 0.76919 0.42253 0.0
C1438 C 0.55759 0.78275 0.4189 0.0
C1439 C 0.5601 0.75526 0.41143 0.0
C1440 C 0.57343 0.78264 0.42383 0.0
C1441 C 0.57589 0.75562 0.41651 0.0
C1442 C 0.51287 0.79924 0.37914 0.0
C1443 C 0.4958 0.82207 0.38072 0.0
N1444 N 0.50824 0.83141 0.37659 0.0
C1445 C 0.52545 0.80904 0.37478 0.0
C1446 C 0.49789 0.80577 0.38201 0.0
C1447 C 0.52288 0.82528 0.37359 0.0
C1448 C 0.55265 0.76459 0.35691 0.0
N1449 N 0.55166 0.77216 0.37114 0.0
C1450 C 0.57644 0.78515 0.36649 0.0
C1451 C 0.56314 0.78241 0.37597 0.0
C1452 C 0.57789 0.7774 0.35178 0.0
C1453 C 0.56573 0.76701 0.34702 0.0
H1454 H 0.54325 0.75669 0.3532 0.0
H1455 H 0.56187 0.78871 0.38706 0.0
C1456 C 0.49945 0.79744 0.42826 0.0
N1457 N 0.51145 0.79809 0.41753 0.0
C1458 C 0.49625 0.81037 0.43817 0.0
C1459 C 0.51792 0.82439 0.42593 0.0
C1460 C 0.52077 0.81114 0.41634 0.0
C1461 C 0.50547 0.82417 0.43703 0.0
H1462 H 0.49237 0.78685 0.42918 0.0
H1463 H 0.53037 0.81132 0.40787 0.0
C1464 C 0.52683 0.73379 0.37523 0.0
N1465 N 0.53719 0.70442 0.36511 0.0
C1466 C 0.51604 0.72285 0.36897 0.0
C1467 C 0.54293 0.72988 0.3761 0.0
C1468 C 0.5215 0.70804 0.36398 0.0
C1469 C 0.54793 0.71495 0.37099 0.0
C1470 C 0.4847 0.75777 0.40855 0.0
C1471 C 0.48072 0.7423 0.41255 0.0
C1472 C 0.47268 0.76886 0.40611 0.0
C1473 C 0.46473 0.73811 0.41382 0.0
C1474 C 0.45683 0.7642 0.40747 0.0
N1475 N 0.45321 0.74905 0.41125 0.0
C1476 C 0.53064 0.73556 0.43154 0.0
C1477 C 0.52037 0.71788 0.41223 0.0
C1478 C 0.53362 0.72308 0.44182 0.0
N1479 N 0.52429 0.73277 0.41699 0.0
C1480 C 0.52317 0.70504 0.42212 0.0
C1481 C 0.52996 0.70752 0.43715 0.0
H1482 H 0.53339 0.74753 0.43518 0.0
H1483 H 0.51495 0.71593 0.40082 0.0
C1484 C 0.48264 0.77131 0.35897 0.0
N1485 N 0.48566 0.76003 0.36988 0.0
C1486 C 0.4697 0.76984 0.34872 0.0
C1487 C 0.46321 0.74502 0.36095 0.0
C1488 C 0.47635 0.74695 0.37092 0.0
C1489 C 0.45968 0.75659 0.34966 0.0
H1490 H 0.49037 0.78146 0.35813 0.0
H1491 H 0.47909 0.73799 0.37951 0.0
O1492 O 0.53546 0.76892 0.40756 0.0
O1493 O 0.5152 0.78334 0.38053 0.0
O1494 O 0.52167 0.74833 0.38019 0.0
O1495 O 0.5003 0.76206 0.40713 0.0
H1496 H 0.55064 0.79344 0.41995 0.0
H1497 H 0.55505 0.7444 0.4069 0.0
H1498 H 0.57876 0.79324 0.42871 0.0
H1499 H 0.58312 0.74508 0.41572 0.0
H1500 H 0.48429 0.82729 0.383 0.0
H1501 H 0.53709 0.80418 0.37242 0.0
H1502 H 0.488 0.79834 0.38526 0.0
H1503 H 0.53253 0.83302 0.37031 0.0
H1504 H 0.58533 0.79352 0.3705 0.0
H1505 H 0.56636 0.76072 0.33582 0.0
H1506 H 0.48675 0.80947 0.44674 0.0
H1507 H 0.52526 0.83477 0.42446 0.0
H1508 H 0.50357 0.72573 0.36805 0.0
H1509 H 0.55151 0.73832 0.38051 0.0
H1510 H 0.51326 0.69943 0.35921 0.0
H1511 H 0.56035 0.71176 0.37164 0.0
H1512 H 0.48987 0.73359 0.41455 0.0
H1513 H 0.47555 0.78091 0.40315 0.0
H1514 H 0.46147 0.72615 0.41682 0.0
H1515 H 0.4474 0.77263 0.40552 0.0
H1516 H 0.53857 0.72564 0.45339 0.0
H1517 H 0.52023 0.69328 0.41793 0.0
H1518 H 0.46771 0.77891 0.34 0.0
H1519 H 0.4558 0.73466 0.36223 0.0
Li1520 Li 0.02039 0.78284 0.63324 0.0
Li1521 Li 1.00318 0.77049 0.65338 0.0
Li1522 Li 0.0329 0.76524 0.65296 0.0
Li1523 Li 1.01489 0.75339 0.63309 0.0
C1524 C 0.02553 0.80039 0.66114 0.0
N1525 N 0.03428 0.83067 0.66996 0.0
C1526 C 1.01422 0.81089 0.66723 0.0
C1527 C 0.04134 0.80523 0.65977 0.0
C1528 C 0.01886 0.82617 0.67156 0.0
C1529 C 0.04551 0.8206 0.66423 0.0
C1530 C 0.98433 0.77532 0.62804 0.0
C1531 C 0.95655 0.76839 0.62843 0.0
N1532 N 0.95276 0.78346 0.6245 0.0
C1533 C 0.98017 0.7907 0.62386 0.0
C1534 C 0.97245 0.76403 0.63021 0.0
C1535 C 0.96414 0.79459 0.62217 0.0
C1536 C 0.03114 0.79825 0.60583 0.0
N1537 N 0.02379 0.80082 0.61994 0.0
C1538 C 0.02156 0.82841 0.61444 0.0
C1539 C 0.01882 0.81552 0.62428 0.0
C1540 C 0.02938 0.82617 0.59988 0.0
C1541 C 0.03411 0.81078 0.59561 0.0
H1542 H 0.0347 0.78641 0.60248 0.0
H1543 H 1.0126 0.81728 0.63531 0.0
C1544 C 0.98261 0.76252 0.67843 0.0
N1545 N 0.98515 0.77347 0.66706 0.0
C1546 C 0.96966 0.76391 0.68868 0.0
C1547 C 0.96219 0.78797 0.67553 0.0
C1548 C 0.97534 0.78614 0.66556 0.0
C1549 C 0.95915 0.77673 0.68729 0.0
H1550 H 0.99072 0.75273 0.67964 0.0
H1551 H 0.97772 0.79486 0.65664 0.0
C1552 C 0.0509 0.76416 0.62532 0.0
N1553 N 0.0826 0.7629 0.61692 0.0
C1554 C 0.05755 0.75 0.61987 0.0
C1555 C 0.0603 0.77774 0.62623 0.0
C1556 C 0.07362 0.74958 0.61576 0.0
C1557 C 0.07632 0.77684 0.622 0.0
C1558 C 1.01215 0.73455 0.65829 0.0
C1559 C 0.02442 0.72449 0.66292 0.0
C1560 C 0.997 0.72838 0.65549 0.0
C1561 C 0.02138 0.70835 0.66439 0.0
C1562 C 0.99444 0.71218 0.65707 0.0
N1563 N 1.00659 0.70258 0.66144 0.0
C1564 C 0.05331 0.77086 0.67915 0.0
C1565 C 0.06196 0.75035 0.66198 0.0
C1566 C 0.06648 0.76864 0.68895 0.0
N1567 N 0.05136 0.76186 0.66587 0.0
C1568 C 0.07527 0.74768 0.67147 0.0
C1569 C 0.07772 0.7569 0.68519 0.0
H1570 H 0.04457 0.77973 0.6822 0.0
H1571 H 0.05993 0.743 0.65167 0.0
C1572 C 0.99964 0.73597 0.60867 0.0
N1573 N 1.01134 0.73527 0.61971 0.0
C1574 C 0.99647 0.72297 0.59885 0.0
C1575 C 0.0176 0.70878 0.61179 0.0
C1576 C 0.0204 0.72209 0.6213 0.0
C1577 C 1.00544 0.70906 0.60037 0.0
H1578 H 0.99277 0.74666 0.60743 0.0
H1579 H 0.02977 0.72186 0.63003 0.0
O1580 O 0.02116 0.7854 0.65678 0.0
O1581 O 0.99997 0.77133 0.62986 0.0
O1582 O 0.03519 0.76477 0.62945 0.0
O1583 O 1.01495 0.75035 0.65658 0.0
H1584 H 1.00197 0.80731 0.66853 0.0
H1585 H 0.05032 0.79715 0.65548 0.0
H1586 H 1.01021 0.83444 0.6762 0.0
H1587 H 0.0577 0.8245 0.66319 0.0
H1588 H 0.94723 0.75979 0.63017 0.0
H1589 H 0.9892 0.79956 0.62202 0.0
H1590 H 0.97545 0.75204 0.63323 0.0
H1591 H 0.96075 0.80647 0.61902 0.0
H1592 H 0.01776 0.84003 0.6183 0.0
H1593 H 0.03989 0.80839 0.5844 0.0
H1594 H 0.96805 0.75513 0.69776 0.0
H1595 H 0.95441 0.798 0.67391 0.0
H1596 H 0.05042 0.73942 0.61892 0.0
H1597 H 0.05527 0.78888 0.63001 0.0
H1598 H 0.07895 0.73867 0.61164 0.0
H1599 H 0.08373 0.78726 0.6227 0.0
H1600 H 0.03617 0.72906 0.66528 0.0
H1601 H 0.98734 0.73602 0.6521 0.0
H1602 H 0.03079 0.70041 0.66787 0.0
H1603 H 0.9828 0.70724 0.65484 0.0
H1604 H 0.06788 0.77614 0.6993 0.0
H1605 H 0.08337 0.73825 0.66825 0.0
H1606 H 0.9872 0.7239 0.59004 0.0
H1607 H 0.02473 0.69831 0.61355 0.0
Li1608 Li 0.52137 0.28268 0.13274 0.0
Li1609 Li 0.50469 0.27002 0.1528 0.0
Li1610 Li 0.53389 0.26569 0.15325 0.0
Li1611 Li 0.51711 0.25354 0.13304 0.0
C1612 C 0.53215 0.29772 0.16052 0.0
N1613 N 0.55313 0.32127 0.16941 0.0
C1614 C 0.5287 0.30754 0.17344 0.0
C1615 C 0.54628 0.29986 0.15212 0.0
C1616 C 0.53946 0.31939 0.17775 0.0
C1617 C 0.55673 0.31183 0.1568 0.0
C1618 C 0.48588 0.27468 0.1281 0.0
C1619 C 0.45814 0.2676 0.128 0.0
N1620 N 0.45423 0.28305 0.1261 0.0
C1621 C 0.4816 0.29047 0.12599 0.0
C1622 C 0.47407 0.26313 0.12897 0.0
C1623 C 0.46553 0.29446 0.12506 0.0
C1624 C 0.52857 0.29863 0.10437 0.0
N1625 N 0.52397 0.30087 0.11964 0.0
C1626 C 0.52341 0.32887 0.11608 0.0
C1627 C 0.52118 0.31561 0.12555 0.0
C1628 C 0.52845 0.32696 0.10031 0.0
C1629 C 0.53092 0.31155 0.09446 0.0
H1630 H 0.53045 0.28678 0.09989 0.0
H1631 H 0.51718 0.31709 0.13763 0.0
C1632 C 0.48133 0.26121 0.17533 0.0
N1633 N 0.4864 0.2732 0.16604 0.0
C1634 C 0.46812 0.26319 0.18515 0.0
C1635 C 0.46566 0.28996 0.1759 0.0
C1636 C 0.479 0.28747 0.16631 0.0
C1637 C 0.46 0.2777 0.18549 0.0
H1638 H 0.48765 0.25013 0.17531 0.0
H1639 H 0.48346 0.29696 0.15909 0.0
C1640 C 0.54914 0.2558 0.1241 0.0
N1641 N 0.57272 0.23628 0.11229 0.0
C1642 C 0.55419 0.24275 0.13273 0.0
C1643 C 0.55614 0.25897 0.10949 0.0
C1644 C 0.5661 0.23301 0.12656 0.0
C1645 C 0.56803 0.24896 0.10371 0.0
C1646 C 0.51393 0.23446 0.15834 0.0
C1647 C 0.52573 0.22487 0.16482 0.0
C1648 C 0.4994 0.2278 0.15386 0.0
C1649 C 0.52286 0.20873 0.16649 0.0
C1650 C 0.49699 0.21161 0.15571 0.0
N1651 N 0.50868 0.20248 0.16192 0.0
C1652 C 0.54896 0.25884 0.18207 0.0
C1653 C 0.5669 0.26612 0.16184 0.0
C1654 C 0.56152 0.25631 0.19255 0.0
N1655 N 0.55185 0.26343 0.16699 0.0
C1656 C 0.57984 0.26372 0.17192 0.0
C1657 C 0.57726 0.25857 0.18748 0.0
H1658 H 0.53685 0.25695 0.18591 0.0
H1659 H 0.56891 0.26992 0.14983 0.0
C1660 C 0.504 0.23678 0.10701 0.0
N1661 N 0.51423 0.23534 0.11937 0.0
C1662 C 0.50101 0.22393 0.09691 0.0
C1663 C 0.51923 0.20834 0.11231 0.0
C1664 C 0.52195 0.2215 0.12203 0.0
C1665 C 0.50857 0.2094 0.09958 0.0
H1666 H 0.49806 0.2479 0.10505 0.0
H1667 H 0.53011 0.22053 0.1318 0.0
O1668 O 0.52174 0.28605 0.15622 0.0
O1669 O 0.50154 0.27057 0.12927 0.0
O1670 O 0.53754 0.26555 0.12998 0.0
O1671 O 0.51656 0.25029 0.15651 0.0
H1672 H 0.51781 0.30602 0.18006 0.0
H1673 H 0.54914 0.29239 0.14206 0.0
H1674 H 0.53694 0.32709 0.18772 0.0
H1675 H 0.5677 0.31362 0.1504 0.0
H1676 H 0.44887 0.25879 0.12874 0.0
H1677 H 0.49058 0.29956 0.12525 0.0
H1678 H 0.47717 0.25084 0.13036 0.0
H1679 H 0.46205 0.30665 0.12354 0.0
H1680 H 0.52106 0.34048 0.12102 0.0
H1681 H 0.53488 0.3095 0.08243 0.0
H1682 H 0.46451 0.25351 0.1926 0.0
H1683 H 0.45978 0.30132 0.17567 0.0
H1684 H 0.54894 0.24014 0.14406 0.0
H1685 H 0.55248 0.26909 0.10269 0.0
H1686 H 0.57008 0.22285 0.13312 0.0
H1687 H 0.57354 0.25127 0.09241 0.0
H1688 H 0.53701 0.2298 0.16845 0.0
H1689 H 0.49012 0.23505 0.14893 0.0
H1690 H 0.53191 0.20116 0.17141 0.0
H1691 H 0.48584 0.2063 0.15219 0.0
H1692 H 0.55891 0.25263 0.2045 0.0
H1693 H 0.59174 0.2655 0.16742 0.0
H1694 H 0.49261 0.22526 0.08732 0.0
H1695 H 0.5255 0.19745 0.11469 0.0
H1696 H 0.25136 0.77247 0.89056 0.0
H1697 H 0.22137 0.8096 0.87265 0.0
H1698 H 0.25847 0.7892 0.91316 0.0
H1699 H 0.22788 0.82599 0.89552 0.0
H1700 H 0.25471 0.85764 0.92995 0.0
H1701 H 0.24929 0.84088 0.90698 0.0
H1702 H 0.24713 0.80009 0.93718 0.0
H1703 H 0.25266 0.81686 0.96014 0.0
C1704 C 0.2463 0.7842 0.89141 0.0
C1705 C 0.23575 0.78964 0.87977 0.0
C1706 C 0.25024 0.79373 0.90447 0.0
C1707 C 0.24374 0.80897 0.90621 0.0
C1708 C 0.23327 0.81442 0.89451 0.0
C1709 C 0.22935 0.80491 0.88147 0.0
C1710 C 0.253 0.84511 0.93171 0.0
C1711 C 0.25406 0.83863 0.94692 0.0
C1712 C 0.24988 0.83548 0.91853 0.0
C1713 C 0.24769 0.81911 0.9202 0.0
C1714 C 0.24896 0.8126 0.93539 0.0
C1715 C 0.25212 0.82223 0.94858 0.0
H1716 H 0.0496 0.5728 0.40647 0.0
H1717 H 0.03297 0.52457 0.40745 0.0
H1718 H 0.06572 0.56664 0.38335 0.0
H1719 H 0.04857 0.51857 0.38381 0.0
H1720 H 0.09241 0.50948 0.35255 0.0
H1721 H 0.07581 0.51529 0.3755 0.0
H1722 H 0.06372 0.56054 0.35568 0.0
H1723 H 0.08088 0.55505 0.33311 0.0
C1724 C 0.04937 0.56086 0.40176 0.0
C1725 C 0.04003 0.54916 0.40893 0.0
C1726 C 0.05847 0.55738 0.38834 0.0
C1727 C 0.05846 0.5421 0.38166 0.0
C1728 C 0.04902 0.53042 0.38873 0.0
C1729 C 0.03991 0.53391 0.40219 0.0
C1730 C 0.08633 0.52073 0.35315 0.0
C1731 C 0.08807 0.53181 0.34097 0.0
C1732 C 0.07663 0.52399 0.36623 0.0
C1733 C 0.06841 0.5384 0.36749 0.0
C1734 C 0.07002 0.5494 0.35523 0.0
C1735 C 0.07972 0.54616 0.34216 0.0
H1736 H 0.76558 0.76436 0.89367 0.0
H1737 H 0.80391 0.737 0.87332 0.0
H1738 H 0.76361 0.74577 0.91528 0.0
H1739 H 0.80247 0.71878 0.89545 0.0
H1740 H 0.78333 0.68009 0.92837 0.0
H1741 H 0.78594 0.69844 0.90643 0.0
H1742 H 0.77729 0.73756 0.93848 0.0
H1743 H 0.77448 0.71922 0.9603 0.0
C1744 C 0.77359 0.75436 0.89377 0.0
C1745 C 0.78485 0.75218 0.88164 0.0
C1746 C 0.77261 0.74379 0.90632 0.0
C1747 C 0.78291 0.73076 0.90719 0.0
C1748 C 0.79422 0.72858 0.8951 0.0
C1749 C 0.79518 0.73915 0.8825 0.0
C1750 C 0.78211 0.69262 0.93074 0.0
C1751 C 0.77859 0.69817 0.94608 0.0
C1752 C 0.78364 0.70316 0.91816 0.0
C1753 C 0.78176 0.71951 0.92063 0.0
C1754 C 0.77849 0.72505 0.93604 0.0
C1755 C 0.7769 0.71452 0.94858 0.0
H1756 H 1.00868 0.97174 0.3931 0.0
H1757 H 0.97823 1.00145 0.42175 0.0
H1758 H 0.99253 0.97754 0.36986 0.0
H1759 H 0.96191 1.00701 0.39857 0.0
H1760 H 0.9466 0.02594 0.34996 0.0
H1761 H 0.96332 0.0209 0.37292 0.0
H1762 H 0.96546 0.97149 0.36006 0.0
H1763 H 0.9485 0.97641 0.33727 0.0
C1764 C 0.9986 0.97959 0.39441 0.0
C1765 C 0.99473 0.98612 0.40928 0.0
C1766 C 0.98926 0.98278 0.38113 0.0
C1767 C 0.9759 0.99269 0.38237 0.0
C1768 C 0.97218 0.99942 0.39719 0.0
C1769 C 0.98145 0.99612 0.4105 0.0
C1770 C 0.95047 1.01396 0.3521 0.0
C1771 C 0.94614 1.00159 0.34171 0.0
C1772 C 0.9601 1.01108 0.36525 0.0
C1773 C 0.96575 0.9958 0.36831 0.0
C1774 C 0.96151 0.98345 0.35791 0.0
C1775 C 0.95179 0.98629 0.34481 0.0
H1776 H 0.24989 0.26191 0.6462 0.0
H1777 H 0.22167 0.22392 0.66513 0.0
H1778 H 0.25704 0.24525 0.62359 0.0
H1779 H 0.22819 0.20758 0.64223 0.0
H1780 H 0.25503 0.1766 0.60723 0.0
H1781 H 0.24965 0.1933 0.63026 0.0
H1782 H 0.24559 0.23387 0.59994 0.0
H1783 H 0.25113 0.21716 0.57693 0.0
C1784 C 0.24524 0.25001 0.64558 0.0
C1785 C 0.23516 0.2443 0.65751 0.0
C1786 C 0.24919 0.2405 0.6325 0.0
C1787 C 0.24318 0.22505 0.63103 0.0
C1788 C 0.2332 0.21933 0.64302 0.0
C1789 C 0.22928 0.22881 0.65608 0.0
C1790 C 0.25292 0.18907 0.60547 0.0
C1791 C 0.25345 0.19551 0.59022 0.0
C1792 C 0.24982 0.19866 0.61868 0.0
C1793 C 0.2471 0.21495 0.61699 0.0
C1794 C 0.24784 0.22143 0.60174 0.0
C1795 C 0.251 0.21184 0.58853 0.0
H1796 H 0.47809 0.57021 0.62492 0.0
H1797 H 0.50667 0.52884 0.63373 0.0
H1798 H 0.46177 0.56419 0.64779 0.0
H1799 H 0.49084 0.5233 0.65717 0.0
H1800 H 0.44902 0.50879 0.68844 0.0
H1801 H 0.46514 0.51438 0.66524 0.0
H1802 H 0.46236 0.5643 0.67591 0.0
H1803 H 0.44554 0.55878 0.69857 0.0
C1804 C 0.4809 0.5598 0.63171 0.0
C1805 C 0.4937 0.54998 0.62737 0.0
C1806 C 0.47166 0.55647 0.645 0.0
C1807 C 0.47498 0.54328 0.65442 0.0
C1808 C 0.4878 0.53347 0.65012 0.0
C1809 C 0.49702 0.53677 0.63677 0.0
C1810 C 0.45168 0.52098 0.68574 0.0
C1811 C 0.44589 0.53332 0.69541 0.0
C1812 C 0.46113 0.52418 0.67253 0.0
C1813 C 0.46509 0.53981 0.66864 0.0
C1814 C 0.4594 0.55213 0.67838 0.0
C1815 C 0.4499 0.54894 0.69155 0.0
H1816 H 0.80125 0.29852 0.66578 0.0
H1817 H 0.77047 0.26639 0.64023 0.0
H1818 H 0.79993 0.317 0.64384 0.0
H1819 H 0.76858 0.28512 0.6187 0.0
H1820 H 0.78116 0.31456 0.5759 0.0
H1821 H 0.78399 0.29611 0.59763 0.0
H1822 H 0.78163 0.33491 0.63113 0.0
H1823 H 0.77888 0.35339 0.60934 0.0
C1824 C 0.79423 0.29537 0.65549 0.0
C1825 C 0.78594 0.28095 0.65482 0.0
C1826 C 0.79332 0.30606 0.64298 0.0
C1827 C 0.78413 0.30259 0.62947 0.0
C1828 C 0.77592 0.28813 0.6288 0.0
C1829 C 0.77684 0.27746 0.64128 0.0
C1830 C 0.78114 0.31916 0.5879 0.0
C1831 C 0.7797 0.33547 0.59085 0.0
C1832 C 0.78276 0.30857 0.60038 0.0
C1833 C 0.78296 0.31398 0.61617 0.0
C1834 C 0.78173 0.33032 0.61912 0.0
C1835 C 0.78014 0.34093 0.60662 0.0
H1836 H 0.55714 1.00097 0.6153 0.0
H1837 H 0.5258 0.97291 0.64408 0.0
H1838 H 0.5736 1.00665 0.63846 0.0
H1839 H 0.54208 0.97884 0.66731 0.0
H1840 H 0.58612 0.97724 0.6999 0.0
H1841 H 0.56893 0.97226 0.6772 0.0
H1842 H 0.57267 0.02122 0.66397 0.0
H1843 H 0.58965 0.02633 0.68683 0.0
C1844 C 0.55375 0.99604 0.62658 0.0
C1845 C 0.54018 0.98645 0.62784 0.0
C1846 C 0.5631 0.99941 0.63988 0.0
C1847 C 0.55918 0.99317 0.65473 0.0
C1848 C 0.54552 0.9837 0.65601 0.0
C1849 C 0.5361 0.98043 0.64274 0.0
C1850 C 0.58313 0.98702 0.69229 0.0
C1851 C 0.58932 1.0022 0.69526 0.0
C1852 C 0.57328 0.98414 0.67925 0.0
C1853 C 0.56943 0.99634 0.66877 0.0
C1854 C 0.57559 1.01151 0.6717 0.0
C1855 C 0.58536 1.01442 0.6848 0.0
H1856 H 0.87076 0.26802 0.79741 0.0
H1857 H 0.89368 0.22828 0.77461 0.0
H1858 H 0.89254 0.26988 0.81632 0.0
H1859 H 0.91563 0.23025 0.79337 0.0
H1860 H 0.94598 0.22941 0.83802 0.0
H1861 H 0.92318 0.2267 0.82045 0.0
H1862 H 0.9198 0.27749 0.81753 0.0
H1863 H 0.94204 0.2802 0.83572 0.0
C1864 C 0.88051 0.25973 0.79639 0.0
C1865 C 0.8805 0.24804 0.78446 0.0
C1866 C 0.89303 0.26081 0.80721 0.0
C1867 C 0.90594 0.25028 0.80636 0.0
C1868 C 0.90581 0.23844 0.79455 0.0
C1869 C 0.89322 0.23731 0.78377 0.0
C1870 C 0.94024 0.24001 0.83382 0.0
C1871 C 0.9459 0.25503 0.83833 0.0
C1872 C 0.92727 0.23845 0.82355 0.0
C1873 C 0.91961 0.25187 0.81751 0.0
C1874 C 0.92524 0.26688 0.82208 0.0
C1875 C 0.93817 0.26844 0.83236 0.0
H1876 H 0.50626 0.90045 0.5078 0.0
H1877 H 0.465 0.90945 0.47886 0.0
H1878 H 0.51184 0.87671 0.49222 0.0
H1879 H 0.47108 0.88629 0.46279 0.0
H1880 H 0.47644 0.83551 0.44657 0.0
H1881 H 0.47082 0.8583 0.46335 0.0
H1882 H 0.52106 0.86816 0.46681 0.0
H1883 H 0.52674 0.8448 0.45077 0.0
C1884 C 0.49837 0.89739 0.49813 0.0
C1885 C 0.48518 0.90693 0.49462 0.0
C1886 C 0.50169 0.88386 0.48905 0.0
C1887 C 0.49194 0.87954 0.4762 0.0
C1888 C 0.47876 0.88909 0.47271 0.0
C1889 C 0.4754 0.90255 0.48181 0.0
C1890 C 0.48633 0.84238 0.45108 0.0
C1891 C 0.50206 0.83823 0.44727 0.0
C1892 C 0.48308 0.85562 0.46055 0.0
C1893 C 0.49547 0.86518 0.46641 0.0
C1894 C 0.51121 0.86101 0.46267 0.0
C1895 C 0.51447 0.84771 0.45326 0.0
H1896 H 0.14258 0.31939 0.78214 0.0
H1897 H 0.16786 0.27866 0.7993 0.0
H1898 H 0.11999 0.31279 0.79883 0.0
H1899 H 0.14535 0.27214 0.81621 0.0
H1900 H 0.09646 0.25716 0.83427 0.0
H1901 H 0.11837 0.26295 0.81638 0.0
H1902 H 0.11252 0.31281 0.82604 0.0
H1903 H 0.09015 0.30709 0.84321 0.0
C1904 C 0.14335 0.30907 0.78956 0.0
C1905 C 0.15706 0.2996 0.78944 0.0
C1906 C 0.1304 0.30529 0.79917 0.0
C1907 C 0.13084 0.29198 0.80899 0.0
C1908 C 0.14448 0.28236 0.80867 0.0
C1909 C 0.15741 0.2861 0.79899 0.0
C1910 C 0.09972 0.26937 0.83244 0.0
C1911 C 0.09148 0.28164 0.84023 0.0
C1912 C 0.11243 0.27269 0.82231 0.0
C1913 C 0.11726 0.28836 0.81972 0.0
C1914 C 0.10904 0.30061 0.82755 0.0
C1915 C 0.09631 0.2973 0.83762 0.0
H1916 H 0.52581 0.62718 0.50157 0.0
H1917 H 0.57524 0.63137 0.48856 0.0
H1918 H 0.51962 0.6504 0.48587 0.0
H1919 H 0.56895 0.65407 0.47233 0.0
H1920 H 0.55565 0.7033 0.45662 0.0
H1921 H 0.56118 0.68121 0.47395 0.0
H1922 H 0.51777 0.65852 0.45869 0.0
H1923 H 0.51184 0.681 0.44192 0.0
C1924 C 0.53537 0.63306 0.49541 0.0
C1925 C 0.55103 0.62734 0.49632 0.0
C1926 C 0.53179 0.64628 0.48624 0.0
C1927 C 0.54376 0.65412 0.47776 0.0
C1928 C 0.55943 0.64847 0.47881 0.0
C1929 C 0.56301 0.63529 0.48797 0.0
C1930 C 0.54715 0.69372 0.45711 0.0
C1931 C 0.53329 0.69398 0.44782 0.0
C1932 C 0.55044 0.68093 0.46692 0.0
C1933 C 0.53997 0.668 0.4677 0.0
C1934 C 0.52603 0.66832 0.45852 0.0
C1935 C 0.52273 0.68114 0.44873 0.0
H1936 H 0.89174 0.76434 0.76378 0.0
H1937 H 0.87342 0.80496 0.7392 0.0
H1938 H 0.91343 0.7624 0.74483 0.0
H1939 H 0.89534 0.80312 0.72035 0.0
H1940 H 0.94695 0.80382 0.70077 0.0
H1941 H 0.92461 0.80625 0.71904 0.0
H1942 H 0.91758 0.75579 0.71675 0.0
H1943 H 0.93972 0.75333 0.69836 0.0
C1944 C 0.89223 0.77278 0.75426 0.0
C1945 C 0.88071 0.78475 0.753 0.0
C1946 C 0.90471 0.77168 0.7434 0.0
C1947 C 0.90609 0.78256 0.73103 0.0
C1948 C 0.89471 0.79464 0.72984 0.0
C1949 C 0.88215 0.79571 0.74068 0.0
C1950 C 0.94052 0.79325 0.70399 0.0
C1951 C 0.94524 0.77836 0.69812 0.0
C1952 C 0.92772 0.79466 0.71449 0.0
C1953 C 0.91936 0.78121 0.71943 0.0
C1954 C 0.92394 0.76636 0.71341 0.0
C1955 C 0.93667 0.76495 0.70288 0.0
H1956 H 0.07375 0.9043 0.5508 0.0
H1957 H 0.02524 0.90551 0.53423 0.0
H1958 H 0.06759 0.88145 0.56688 0.0
H1959 H 0.01924 0.88214 0.54981 0.0
H1960 H 1.01018 0.85158 0.59361 0.0
H1961 H 1.01597 0.87421 0.57699 0.0
H1962 H 0.06149 0.85387 0.56492 0.0
H1963 H 0.05602 0.83163 0.58209 0.0
C1964 C 0.06175 0.8997 0.55058 0.0
C1965 C 0.04997 0.90685 0.54127 0.0
C1966 C 0.05827 0.88643 0.55965 0.0
C1967 C 0.04291 0.8799 0.55966 0.0
C1968 C 0.03115 0.88695 0.55024 0.0
C1969 C 0.03464 0.90025 0.54115 0.0
C1970 C 0.02149 0.85199 0.58753 0.0
C1971 C 0.03265 0.83977 0.58928 0.0
C1972 C 0.02473 0.86489 0.57782 0.0
C1973 C 0.03921 0.86591 0.5696 0.0
C1974 C 0.05029 0.8536 0.57121 0.0
C1975 C 0.04707 0.84072 0.58093 0.0
H1976 H 0.17244 0.75037 0.72712 0.0
H1977 H 0.14166 0.7269 0.76029 0.0
H1978 H 0.14957 0.75658 0.71062 0.0
H1979 H 0.1188 0.73286 0.7437 0.0
H1980 H 0.07912 0.75809 0.71765 0.0
H1981 H 0.10203 0.75362 0.73459 0.0
H1982 H 0.13089 0.74411 0.69331 0.0
H1983 H 0.10819 0.74941 0.67635 0.0
C1984 C 0.16079 0.74646 0.73085 0.0
C1985 C 0.15889 0.73812 0.74502 0.0
C1986 C 0.14766 0.74998 0.72136 0.0
C1987 C 0.13229 0.74517 0.72575 0.0
C1988 C 0.13039 0.73698 0.74003 0.0
C1989 C 0.14352 0.73353 0.74956 0.0
C1990 C 0.0904 0.75528 0.71215 0.0
C1991 C 0.09175 0.75414 0.69559 0.0
C1992 C 0.10352 0.7525 0.7219 0.0
C1993 C 0.11836 0.74845 0.71537 0.0
C1994 C 0.11972 0.74738 0.6988 0.0
C1995 C 0.10662 0.75021 0.68905 0.0
H1996 H 0.96506 0.62371 0.55855 0.0
H1997 H 1.00656 0.63257 0.52991 0.0
H1998 H 0.97109 0.64689 0.57464 0.0
H1999 H 1.01212 0.65629 0.54552 0.0
H2000 H 0.02676 0.68818 0.58715 0.0
H2001 H 0.02114 0.66476 0.57114 0.0
H2002 H 0.97093 0.67497 0.57382 0.0
H2003 H 0.97648 0.69786 0.59051 0.0
C2004 C 0.9755 0.63058 0.55567 0.0
C2005 C 0.98536 0.62616 0.54294 0.0
C2006 C 0.97884 0.64404 0.56479 0.0
C2007 C 0.99208 0.65355 0.56139 0.0
C2008 C 1.00192 0.64918 0.54861 0.0
C2009 C 0.99861 0.63566 0.53952 0.0
C2010 C 1.0145 0.68534 0.58449 0.0
C2011 C 1.00208 0.69494 0.59021 0.0
C2012 C 1.01129 0.672 0.5751 0.0
C2013 C 0.99557 0.66791 0.57115 0.0
C2014 C 0.98317 0.67759 0.57678 0.0
C2015 C 0.98637 0.69088 0.5862 0.0
H2016 H 0.77633 0.88527 0.25477 0.0
H2017 H 0.8079 0.87258 0.21639 0.0
H2018 H 0.79318 0.90793 0.26116 0.0
H2019 H 0.82451 0.89532 0.22264 0.0
H2020 H 0.83968 0.94713 0.22702 0.0
H2021 H 0.82288 0.92436 0.22141 0.0
H2022 H 0.82018 0.91442 0.27132 0.0
H2023 H 0.83726 0.93708 0.27699 0.0
C2024 C 0.78691 0.88721 0.24777 0.0
C2025 C 0.79066 0.8771 0.23499 0.0
C2026 C 0.79655 0.90023 0.25143 0.0
C2027 C 0.81014 0.9035 0.24235 0.0
C2028 C 0.81397 0.89331 0.22969 0.0
C2029 C 0.80441 0.88027 0.22609 0.0
C2030 C 0.83569 0.94001 0.23682 0.0
C2031 C 0.83995 0.94395 0.25247 0.0
C2032 C 0.82601 0.92696 0.23359 0.0
C2033 C 0.82023 0.91753 0.24591 0.0
C2034 C 0.8243 0.92154 0.26157 0.0
C2035 C 0.83408 0.93456 0.26481 0.0
H2036 H 0.79885 0.16511 0.28025 0.0
H2037 H 0.78093 0.1412 0.32144 0.0
H2038 H 0.81556 0.14234 0.274 0.0
H2039 H 0.79746 0.11839 0.31513 0.0
H2040 H 0.84208 0.08841 0.3099 0.0
H2041 H 0.82489 0.11091 0.31526 0.0
H2042 H 0.81534 0.11514 0.26527 0.0
H2043 H 0.83318 0.09305 0.25983 0.0
C2044 C 0.79832 0.15491 0.28785 0.0
C2045 C 0.78862 0.15503 0.3014 0.0
C2046 C 0.8079 0.14184 0.28427 0.0
C2047 C 0.80797 0.12853 0.29412 0.0
C2048 C 0.79799 0.12854 0.30746 0.0
C2049 C 0.78847 0.14162 0.31107 0.0
C2050 C 0.83648 0.09424 0.30001 0.0
C2051 C 0.8391 0.08891 0.28441 0.0
C2052 C 0.82642 0.10703 0.30311 0.0
C2053 C 0.81864 0.11484 0.29071 0.0
C2054 C 0.82124 0.10952 0.27511 0.0
C2055 C 0.83133 0.09671 0.272 0.0
H2056 H 0.40792 1.00001 1.0126 0.0
H2057 H 0.40348 0.98588 0.96356 0.0
H2058 H 0.38459 0.98421 0.01908 0.0
H2059 H 0.38066 0.9696 0.97012 0.0
H2060 H 0.33112 0.95396 0.98378 0.0
H2061 H 0.35336 0.97133 0.97802 0.0
H2062 H 0.37644 0.95691 0.02117 0.0
H2063 H 0.35383 0.94005 0.0273 0.0
C2064 C 0.40195 0.99358 1.00319 0.0
C2065 C 0.40764 0.9942 0.98756 0.0
C2066 C 0.38868 0.98437 1.00694 0.0
C2067 C 0.38073 0.97558 0.99514 0.0
C2068 C 0.38635 0.97633 0.9795 0.0
C2069 C 0.39959 0.98553 0.97576 0.0
C2070 C 0.34082 0.95464 0.99217 0.0
C2071 C 0.34064 0.94556 1.00601 0.0
C2072 C 0.3537 0.96448 0.98876 0.0
C2073 C 0.36677 0.9655 0.99908 0.0
C2074 C 0.36653 0.95655 1.01301 0.0
C2075 C 0.35364 0.94671 0.01643 0.0
H2076 H 0.2377 0.37371 0.30716 0.0
H2077 H 0.26114 0.38961 0.26472 0.0
H2078 H 0.21882 0.39551 0.30515 0.0
H2079 H 0.24219 0.41116 0.26264 0.0
H2080 H 0.19555 0.43718 0.25429 0.0
H2081 H 0.21386 0.41512 0.25697 0.0
H2082 H 0.21772 0.42474 0.30708 0.0
H2083 H 0.19954 0.44699 0.3044 0.0
C2084 C 0.23891 0.38189 0.29746 0.0
C2085 C 0.25092 0.3798 0.28604 0.0
C2086 C 0.22807 0.39437 0.29631 0.0
C2087 C 0.22893 0.40502 0.28368 0.0
C2088 C 0.24099 0.403 0.27235 0.0
C2089 C 0.25186 0.3906 0.27354 0.0
C2090 C 0.20039 0.43471 0.26587 0.0
C2091 C 0.19611 0.44398 0.2791 0.0
C2092 C 0.21088 0.42202 0.26741 0.0
C2093 C 0.21733 0.41821 0.28223 0.0
C2094 C 0.21284 0.42726 0.29553 0.0
C2095 C 0.20238 0.44001 0.29398 0.0
H2096 H 0.14282 0.02919 0.4693 0.0
H2097 H 0.11725 0.05245 0.50716 0.0
H2098 H 0.16586 0.04582 0.47463 0.0
H2099 H 0.14038 0.06892 0.51274 0.0
H2100 H 0.17812 0.10733 0.50681 0.0
H2101 H 0.15523 0.0903 0.50205 0.0
H2102 H 0.18668 0.05089 0.4931 0.0
H2103 H 0.20953 0.06802 0.49759 0.0
C2104 C 0.1422 0.03772 0.47891 0.0
C2105 C 0.12819 0.0395 0.48779 0.0
C2106 C 0.15543 0.04726 0.482 0.0
C2107 C 0.15503 0.05878 0.49411 0.0
C2108 C 0.14106 0.0604 0.50313 0.0
C2109 C 0.12779 0.05092 0.49997 0.0
C2110 C 0.18013 0.095 0.50393 0.0
C2111 C 0.19565 0.08905 0.50255 0.0
C2112 C 0.167 0.0852 0.50124 0.0
C2113 C 0.16905 0.06917 0.49718 0.0
C2114 C 0.18461 0.06321 0.49592 0.0
C2115 C 0.19773 0.07304 0.49852 0.0
H2116 H 0.73636 0.16258 0.73298 0.0
H2117 H 0.76575 0.14098 0.76864 0.0
H2118 H 0.71745 0.14082 0.73505 0.0
H2119 H 0.74682 0.11941 0.7708 0.0
H2120 H 0.70137 0.09284 0.78304 0.0
H2121 H 0.71981 0.11481 0.78036 0.0
H2122 H 0.71495 0.11225 0.72955 0.0
H2123 H 0.69658 0.09013 0.7322 0.0
C2124 C 0.73887 0.15315 0.74117 0.0
C2125 C 0.75257 0.15363 0.75071 0.0
C2126 C 0.72801 0.14069 0.74237 0.0
C2127 C 0.73056 0.12842 0.75317 0.0
C2128 C 0.74432 0.12882 0.76258 0.0
C2129 C 0.75518 0.14122 0.76134 0.0
C2130 C 0.70432 0.09685 0.77128 0.0
C2131 C 0.69752 0.08962 0.75784 0.0
C2132 C 0.71489 0.10947 0.76975 0.0
C2133 C 0.71893 0.11525 0.75474 0.0
C2134 C 0.71196 0.10821 0.74129 0.0
C2135 C 0.70141 0.09553 0.74282 0.0
H2136 H 0.39117 0.02416 0.55555 0.0
H2137 H 0.42247 0.06035 0.53796 0.0
H2138 H 0.36825 0.04061 0.5494 0.0
H2139 H 0.3996 0.07673 0.53162 0.0
H2140 H 0.3567 0.10895 0.5393 0.0
H2141 H 0.37947 0.09208 0.54459 0.0
H2142 H 0.35289 0.05147 0.52814 0.0
H2143 H 0.33005 0.06838 0.523 0.0
C2144 C 0.39315 0.03554 0.55017 0.0
C2145 C 0.40866 0.04096 0.54732 0.0
C2146 C 0.38 0.04499 0.54663 0.0
C2147 C 0.38204 0.06007 0.54008 0.0
C2148 C 0.39756 0.06534 0.53695 0.0
C2149 C 0.4107 0.05592 0.54056 0.0
C2150 C 0.35576 0.09644 0.53668 0.0
C2151 C 0.34154 0.09003 0.53071 0.0
C2152 C 0.36884 0.08675 0.5397 0.0
C2153 C 0.36808 0.07038 0.53677 0.0
C2154 C 0.35385 0.06397 0.53076 0.0
C2155 C 0.34075 0.07367 0.5278 0.0
H2156 H 0.64431 0.51078 0.5601 0.0
H2157 H 0.61428 0.47549 0.53818 0.0
H2158 H 0.66764 0.49461 0.55426 0.0
H2159 H 0.63754 0.45914 0.5327 0.0
H2160 H 0.68446 0.44148 0.51146 0.0
H2161 H 0.66156 0.45847 0.51627 0.0
H2162 H 0.67937 0.46958 0.56298 0.0
H2163 H 0.7022 0.45246 0.55826 0.0
C2164 C 0.6427 0.49962 0.55395 0.0
C2165 C 0.62742 0.49442 0.54963 0.0
C2166 C 0.65605 0.49027 0.55075 0.0
C2167 C 0.65447 0.47555 0.54306 0.0
C2168 C 0.63921 0.47047 0.53853 0.0
C2169 C 0.62586 0.47977 0.54181 0.0
C2170 C 0.68344 0.44742 0.52282 0.0
C2171 C 0.6952 0.44553 0.53448 0.0
C2172 C 0.67031 0.45719 0.52556 0.0
C2173 C 0.66861 0.46539 0.54001 0.0
C2174 C 0.68042 0.46362 0.55162 0.0
C2175 C 0.69353 0.4538 0.54891 0.0
H2176 H 0.7531 0.30202 0.36832 0.0
H2177 H 0.71864 0.27662 0.39604 0.0
H2178 H 0.75916 0.3188 0.39115 0.0
H2179 H 0.72488 0.29316 0.41897 0.0
H2180 H 0.72675 0.33626 0.45145 0.0
H2181 H 0.72134 0.31936 0.42868 0.0
H2182 H 0.77123 0.31947 0.41669 0.0
H2183 H 0.77652 0.33714 0.43898 0.0
C2184 C 0.74698 0.29988 0.37936 0.0
C2185 C 0.73534 0.28802 0.38034 0.0
C2186 C 0.75046 0.30949 0.39248 0.0
C2187 C 0.74247 0.30742 0.40694 0.0
C2188 C 0.73104 0.29534 0.40796 0.0
C2189 C 0.72749 0.28581 0.39482 0.0
C2190 C 0.73656 0.33288 0.44386 0.0
C2191 C 0.75208 0.33817 0.44708 0.0
C2192 C 0.73348 0.32296 0.43089 0.0
C2193 C 0.74584 0.31795 0.42082 0.0
C2194 C 0.76137 0.3232 0.42407 0.0
C2195 C 0.76444 0.33319 0.437 0.0
H2196 H 0.55792 0.03325 0.92126 0.0
H2197 H 0.52536 0.0597 0.89229 0.0
H2198 H 0.57426 0.02759 0.89802 0.0
H2199 H 0.5415 0.05375 0.86898 0.0
H2200 H 0.58496 0.05604 0.83574 0.0
H2201 H 0.56787 0.06093 0.85853 0.0
H2202 H 0.57365 1.0125 0.8729 0.0
H2203 H 0.59057 1.00749 0.84998 0.0
C2204 C 0.55424 0.03783 0.90992 0.0
C2205 C 0.54036 0.04697 0.90864 0.0
C2206 C 0.56352 0.03446 0.89657 0.0
C2207 C 0.55921 0.04024 0.88164 0.0
C2208 C 0.54525 0.04925 0.88033 0.0
C2209 C 0.5359 0.05252 0.89366 0.0
C2210 C 0.58245 0.04635 0.84362 0.0
C2211 C 0.58919 0.03136 0.84096 0.0
C2212 C 0.57265 0.04918 0.85671 0.0
C2213 C 0.56939 0.03711 0.86754 0.0
C2214 C 0.5761 0.02212 0.8649 0.0
C2215 C 0.58584 0.01926 0.85176 0.0
H2216 H 0.27627 0.23222 0.3665 0.0
H2217 H 0.29919 0.26612 0.39741 0.0
H2218 H 0.27389 0.21388 0.3885 0.0
H2219 H 0.29709 0.24767 0.41933 0.0
H2220 H 0.2725 0.21851 0.45803 0.0
H2221 H 0.2757 0.23644 0.43584 0.0
H2222 H 0.29053 0.19739 0.40611 0.0
H2223 H 0.28704 0.17938 0.42826 0.0
C2224 C 0.28083 0.23574 0.37798 0.0
C2225 C 0.28789 0.25065 0.38021 0.0
C2226 C 0.2796 0.22517 0.39055 0.0
C2227 C 0.28527 0.22933 0.40568 0.0
C2228 C 0.29246 0.24418 0.40786 0.0
C2229 C 0.29381 0.25468 0.39527 0.0
C2230 C 0.27635 0.21373 0.44674 0.0
C2231 C 0.27947 0.19751 0.44491 0.0
C2232 C 0.27834 0.22403 0.43406 0.0
C2233 C 0.2834 0.21835 0.41921 0.0
C2234 C 0.28651 0.20212 0.41736 0.0
C2235 C 0.28464 0.19183 0.43009 0.0
H2236 H 0.47481 0.49673 0.92222 0.0
H2237 H 0.51061 0.47609 0.89186 0.0
H2238 H 0.45871 0.50291 0.89914 0.0
H2239 H 0.49443 0.48207 0.86873 0.0
H2240 H 0.46785 0.50825 0.82968 0.0
H2241 H 0.48449 0.50314 0.85269 0.0
H2242 H 0.44286 0.48999 0.87938 0.0
H2243 H 0.42625 0.49525 0.85645 0.0
C2244 C 0.4792 0.49343 0.91061 0.0
C2245 C 0.49398 0.48587 0.9089 0.0
C2246 C 0.46995 0.49693 0.89736 0.0
C2247 C 0.47519 0.49291 0.88203 0.0
C2248 C 0.49008 0.48554 0.88031 0.0
C2249 C 0.49937 0.48209 0.89358 0.0
C2250 C 0.46226 0.50417 0.84044 0.0
C2251 C 0.4457 0.50219 0.84121 0.0
C2252 C 0.47182 0.50123 0.85364 0.0
C2253 C 0.46505 0.49617 0.86795 0.0
C2254 C 0.44848 0.49416 0.86868 0.0
C2255 C 0.43893 0.49715 0.85551 0.0
H2256 H 0.71471 0.75375 0.14257 0.0
H2257 H 0.75538 0.73512 0.16726 0.0
H2258 H 0.721 0.7372 0.11968 0.0
H2259 H 0.76159 0.71837 0.14444 0.0
H2260 H 0.77628 0.70068 0.09528 0.0
H2261 H 0.77078 0.71839 0.11752 0.0
H2262 H 0.72049 0.71008 0.11164 0.0
H2263 H 0.72593 0.69304 0.08896 0.0
C2264 C 0.72495 0.74604 0.14314 0.0
C2265 C 0.7345 0.74572 0.15678 0.0
C2266 C 0.72855 0.73651 0.13002 0.0
C2267 C 0.74175 0.72632 0.1302 0.0
C2268 C 0.75145 0.72619 0.14377 0.0
C2269 C 0.74788 0.73579 0.15688 0.0
C2270 C 0.76404 0.70277 0.09861 0.0
C2271 C 0.75156 0.69539 0.09027 0.0
C2272 C 0.76089 0.71279 0.1115 0.0
C2273 C 0.74518 0.71571 0.11642 0.0
C2274 C 0.73273 0.70831 0.10809 0.0
C2275 C 0.73587 0.69832 0.09519 0.0
H2276 H 0.97654 0.03381 0.1153 0.0
H2277 H 1.01051 0.05869 0.1446 0.0
H2278 H 0.96051 0.02821 0.13864 0.0
H2279 H 0.99467 0.05276 0.16801 0.0
H2280 H 0.95203 0.05559 0.20234 0.0
H2281 H 0.96889 0.06044 0.17945 0.0
H2282 H 0.96101 1.01264 0.16302 0.0
H2283 H 0.94429 1.00769 0.18599 0.0
C2284 C 0.9806 0.03806 0.12673 0.0
C2285 C 0.99479 0.04674 0.12807 0.0
C2286 C 0.97149 0.03471 0.14013 0.0
C2287 C 0.97628 0.04005 0.1552 0.0
C2288 C 0.99055 0.04861 0.15656 0.0
C2289 C 0.99972 0.05186 0.14317 0.0
C2290 C 0.95403 0.04603 0.19397 0.0
C2291 C 0.94674 0.03125 0.19605 0.0
C2292 C 0.9637 0.04883 0.18082 0.0
C2293 C 0.9663 0.03694 0.16938 0.0
C2294 C 0.95908 0.02213 0.17148 0.0
C2295 C 0.94945 0.01931 0.18466 0.0
H2296 H 0.26391 0.77113 0.14558 0.0
H2297 H 0.30583 0.795 0.16309 0.0
H2298 H 0.26192 0.7901 0.12424 0.0
H2299 H 0.30394 0.81386 0.14151 0.0
H2300 H 0.30399 0.83329 0.09025 0.0
H2301 H 0.30644 0.81503 0.11227 0.0
H2302 H 0.25594 0.81829 0.12055 0.0
H2303 H 0.25348 0.83671 0.09875 0.0
C2304 C 0.27263 0.7805 0.14499 0.0
C2305 C 0.28498 0.78154 0.15617 0.0
C2306 C 0.27149 0.79137 0.13271 0.0
C2307 C 0.28273 0.80354 0.1312 0.0
C2308 C 0.29519 0.80452 0.14225 0.0
C2309 C 0.29628 0.79368 0.15461 0.0
C2310 C 0.29343 0.83029 0.09689 0.0
C2311 C 0.27852 0.83646 0.09262 0.0
C2312 C 0.29484 0.81979 0.1095 0.0
C2313 C 0.28137 0.81513 0.11812 0.0
C2314 C 0.26651 0.82142 0.11398 0.0
C2315 C 0.26511 0.83197 0.10144 0.0
H2316 H 0.02782 0.4703 0.14298 0.0
H2317 H 0.0549 0.50409 0.11619 0.0
H2318 H 0.04407 0.47602 0.16628 0.0
H2319 H 0.07134 0.5096 0.13941 0.0
H2320 H 0.08617 0.52678 0.18927 0.0
H2321 H 0.06941 0.52175 0.16623 0.0
H2322 H 0.07188 0.47167 0.17489 0.0
H2323 H 0.08889 0.47661 0.19772 0.0
C2324 C 0.03718 0.47903 0.1421 0.0
C2325 C 0.04007 0.48673 0.12772 0.0
C2326 C 0.04659 0.48218 0.1554 0.0
C2327 C 0.05904 0.49322 0.15469 0.0
C2328 C 0.06178 0.50111 0.14039 0.0
C2329 C 0.05245 0.49786 0.12704 0.0
C2330 C 0.08332 0.51467 0.18618 0.0
C2331 C 0.08893 0.50211 0.19542 0.0
C2332 C 0.07366 0.51181 0.17298 0.0
C2333 C 0.06927 0.49632 0.16874 0.0
C2334 C 0.07483 0.48376 0.17798 0.0
C2335 C 0.08457 0.48661 0.1911 0.0
H2336 H 0.37448 0.72748 0.29733 0.0
H2337 H 0.39164 0.7692 0.27378 0.0
H2338 H 0.39644 0.72939 0.31614 0.0
H2339 H 0.41334 0.77121 0.2927 0.0
H2340 H 0.43944 0.77972 0.33943 0.0
H2341 H 0.4173 0.77716 0.32105 0.0
H2342 H 0.42589 0.72702 0.31713 0.0
H2343 H 0.44825 0.72957 0.33535 0.0
C2344 C 0.38297 0.73699 0.29608 0.0
C2345 C 0.38119 0.74823 0.28405 0.0
C2346 C 0.39554 0.7381 0.30689 0.0
C2347 C 0.40659 0.75051 0.30598 0.0
C2348 C 0.40487 0.76167 0.29392 0.0
C2349 C 0.39238 0.76052 0.28307 0.0
C2350 C 0.43674 0.76815 0.33456 0.0
C2351 C 0.44576 0.75487 0.33884 0.0
C2352 C 0.42401 0.76669 0.32403 0.0
C2353 C 0.41987 0.7519 0.31756 0.0
C2354 C 0.42866 0.73856 0.32203 0.0
C2355 C 0.44148 0.74003 0.33251 0.0
H2356 H 0.96347 0.40703 0.98133 0.0
H2357 H 1.00838 0.40247 1.00558 0.0
H2358 H 0.96958 0.38375 0.96542 0.0
H2359 H 1.01415 0.37864 0.99018 0.0
H2360 H 0.02685 0.34696 0.94765 0.0
H2361 H 0.02104 0.37018 0.96388 0.0
H2362 H 0.97191 0.35578 0.96695 0.0
H2363 H 0.97754 0.33304 0.95005 0.0
C2364 C 0.97467 0.40107 0.98328 0.0
C2365 C 0.98546 0.40674 0.99471 0.0
C2366 C 0.97808 0.38755 0.97429 0.0
C2367 C 0.99235 0.37924 0.97651 0.0
C2368 C 1.00312 0.38483 0.98801 0.0
C2369 C 0.99972 0.3984 0.997 0.0
C2370 C 1.01477 0.34882 0.95164 0.0
C2371 C 1.00266 0.33811 0.94744 0.0
C2372 C 1.01147 0.36205 0.96115 0.0
C2373 C 0.99599 0.36491 0.96674 0.0
C2374 C 0.98393 0.3541 0.9627 0.0
C2375 C 0.98721 0.34091 0.95315 0.0
H2376 H 0.66571 0.81342 0.31211 0.0
H2377 H 0.6475 0.78307 0.27494 0.0
H2378 H 0.64308 0.80682 0.32864 0.0
H2379 H 0.62518 0.77586 0.29182 0.0
H2380 H 0.57834 0.78127 0.3196 0.0
H2381 H 0.60112 0.78689 0.30276 0.0
H2382 H 0.63192 0.78568 0.34362 0.0
H2383 H 0.60912 0.7802 0.36045 0.0
C2384 C 0.65688 0.80532 0.30744 0.0
C2385 C 0.65843 0.79886 0.29212 0.0
C2386 C 0.64398 0.80136 0.31703 0.0
C2387 C 0.63227 0.79077 0.31161 0.0
C2388 C 0.63387 0.78419 0.29633 0.0
C2389 C 0.64678 0.78818 0.28672 0.0
C2390 C 0.58999 0.78204 0.32497 0.0
C2391 C 0.59187 0.78034 0.3414 0.0
C2392 C 0.60308 0.78525 0.3153 0.0
C2393 C 0.61839 0.7868 0.32181 0.0
C2394 C 0.62028 0.78487 0.33822 0.0
C2395 C 0.6072 0.78171 0.34788 0.0
H2396 H 0.06607 0.11998 0.97588 0.0
H2397 H 0.02959 0.13473 1.00882 0.0
H2398 H 0.06033 0.14274 0.95948 0.0
H2399 H 0.024 0.15765 0.99244 0.0
H2400 H 0.03103 0.20545 0.96746 0.0
H2401 H 0.03628 0.18261 0.98405 0.0
H2402 H 0.03937 0.15294 0.94231 0.0
H2403 H 0.03458 0.17584 0.92571 0.0
C2404 C 0.05671 0.12798 0.97957 0.0
C2405 C 0.04825 0.12542 0.99367 0.0
C2406 C 0.05344 0.14106 0.97015 0.0
C2407 C 0.04167 0.152 0.97461 0.0
C2408 C 0.03327 0.14955 0.98876 0.0
C2409 C 0.03649 0.1364 0.99816 0.0
C2410 C 0.03294 0.19407 0.96182 0.0
C2411 C 0.03243 0.1925 0.94524 0.0
C2412 C 0.03578 0.18094 0.97134 0.0
C2413 C 0.03826 0.16593 0.96452 0.0
C2414 C 0.03767 0.16435 0.94795 0.0
C2415 C 0.03476 0.17746 0.93844 0.0
H2416 H 0.36758 0.27418 0.23276 0.0
H2417 H 0.39733 0.3018 0.2641 0.0
H2418 H 0.38927 0.27233 0.21373 0.0
H2419 H 0.41916 0.29972 0.24524 0.0
H2420 H 0.45153 0.3042 0.20256 0.0
H2421 H 0.42874 0.30772 0.22 0.0
H2422 H 0.41422 0.25964 0.21034 0.0
H2423 H 0.43644 0.25643 0.19225 0.0
C2424 C 0.3788 0.2798 0.23561 0.0
C2425 C 0.38074 0.2881 0.24997 0.0
C2426 C 0.39127 0.27871 0.22472 0.0
C2427 C 0.40606 0.2858 0.22794 0.0
C2428 C 0.4079 0.2943 0.24221 0.0
C2429 C 0.39538 0.29548 0.25306 0.0
C2430 C 0.44334 0.29445 0.20394 0.0
C2431 C 0.4459 0.28001 0.19597 0.0
C2432 C 0.43036 0.29641 0.21413 0.0
C2433 C 0.41961 0.28396 0.21667 0.0
C2434 C 0.4221 0.26957 0.20857 0.0
C2435 C 0.43502 0.26765 0.19834 0.0
H2436 H 0.53995 0.42172 0.06228 0.0
H2437 H 0.55287 0.39072 0.0235 0.0
H2438 H 0.53384 0.39889 0.07852 0.0
H2439 H 0.54688 0.36785 0.03978 0.0
H2440 H 0.52084 0.33056 0.06896 0.0
H2441 H 0.52563 0.35342 0.05228 0.0
H2442 H 0.54731 0.37784 0.09186 0.0
H2443 H 0.54246 0.35505 0.10851 0.0
C2444 C 0.54157 0.41002 0.05725 0.0
C2445 C 0.54698 0.40807 0.04161 0.0
C2446 C 0.53808 0.39691 0.06657 0.0
C2447 C 0.53995 0.38149 0.06052 0.0
C2448 C 0.5451 0.37954 0.04478 0.0
C2449 C 0.54855 0.39266 0.03544 0.0
C2450 C 0.52672 0.34077 0.07408 0.0
C2451 C 0.53124 0.34095 0.0901 0.0
C2452 C 0.52947 0.35389 0.06451 0.0
C2453 C 0.53684 0.36753 0.07071 0.0
C2454 C 0.54135 0.36768 0.08674 0.0
C2455 C 0.53857 0.35459 0.0963 0.0
H2456 H 0.6521 0.21161 0.23963 0.0
H2457 H 0.66006 0.26094 0.25045 0.0
H2458 H 0.62928 0.21859 0.2235 0.0
H2459 H 0.63675 0.26789 0.2348 0.0
H2460 H 0.60522 0.27505 0.19079 0.0
H2461 H 0.6279 0.26868 0.2075 0.0
H2462 H 0.60259 0.22837 0.22565 0.0
H2463 H 0.58024 0.2343 0.20846 0.0
C2464 C 0.64899 0.22396 0.23858 0.0
C2465 C 0.65801 0.23571 0.24629 0.0
C2466 C 0.63575 0.22796 0.22947 0.0
C2467 C 0.63112 0.24381 0.22785 0.0
C2468 C 0.64006 0.25557 0.23565 0.0
C2469 C 0.65333 0.25157 0.24478 0.0
C2470 C 0.60453 0.26476 0.19826 0.0
C2471 C 0.59088 0.25517 0.1982 0.0
C2472 C 0.61748 0.26122 0.208 0.0
C2473 C 0.61712 0.24798 0.21792 0.0
C2474 C 0.60338 0.23853 0.21802 0.0
C2475 C 0.59046 0.24206 0.20829 0.0
H2476 H 0.50355 0.11512 0.05724 0.0
H2477 H 0.47373 0.14359 0.02733 0.0
H2478 H 0.50997 0.13836 0.07324 0.0
H2479 H 0.47989 0.16682 0.04348 0.0
H2480 H 0.5057 0.20822 0.06727 0.0
H2481 H 0.50033 0.18519 0.05053 0.0
H2482 H 0.4982 0.15592 0.09206 0.0
H2483 H 0.50381 0.17888 0.1087 0.0
C2484 C 0.49828 0.12634 0.05414 0.0
C2485 C 0.4881 0.12749 0.04103 0.0
C2486 C 0.50193 0.13968 0.06334 0.0
C2487 C 0.49539 0.15451 0.05974 0.0
C2488 C 0.48534 0.15568 0.0465 0.0
C2489 C 0.48177 0.14234 0.03724 0.0
C2490 C 0.50401 0.19687 0.07282 0.0
C2491 C 0.50523 0.19539 0.08932 0.0
C2492 C 0.5009 0.18365 0.06322 0.0
C2493 C 0.49885 0.16863 0.0699 0.0
C2494 C 0.50002 0.1672 0.08644 0.0
C2495 C 0.50321 0.18039 0.09601 0.0
H2496 H 0.31077 0.36966 0.72027 0.0
H2497 H 0.27374 0.38791 0.75074 0.0
H2498 H 0.32726 0.39241 0.72667 0.0
H2499 H 0.29059 0.41037 0.75774 0.0
H2500 H 0.31804 0.45708 0.75194 0.0
H2501 H 0.30123 0.43422 0.7465 0.0
H2502 H 0.34249 0.40393 0.74775 0.0
H2503 H 0.35929 0.42681 0.75306 0.0
C2504 C 0.30612 0.37853 0.72834 0.0
C2505 C 0.29085 0.37695 0.7349 0.0
C2506 C 0.31569 0.3915 0.73219 0.0
C2507 C 0.3103 0.40326 0.74276 0.0
C2508 C 0.29507 0.40164 0.74943 0.0
C2509 C 0.28548 0.38865 0.74556 0.0
C2510 C 0.32351 0.44552 0.75122 0.0
C2511 C 0.34004 0.44381 0.75287 0.0
C2512 C 0.31385 0.43239 0.74811 0.0
C2513 C 0.32048 0.4172 0.74662 0.0
C2514 C 0.337 0.41547 0.74852 0.0
C2515 C 0.34664 0.4286 0.75157 0.0
H2516 H 0.2763 0.63953 0.81605 0.0
H2517 H 0.30345 0.66786 0.7836 0.0
H2518 H 0.29286 0.61673 0.8097 0.0
H2519 H 0.32022 0.64514 0.77741 0.0
H2520 H 0.33876 0.59761 0.75944 0.0
H2521 H 0.321 0.61978 0.76466 0.0
H2522 H 0.31907 0.60709 0.814 0.0
H2523 H 0.33609 0.58448 0.80863 0.0
C2524 C 0.28587 0.64091 0.80761 0.0
C2525 C 0.28858 0.65553 0.80038 0.0
C2526 C 0.29541 0.62784 0.80399 0.0
C2527 C 0.30799 0.62907 0.7931 0.0
C2528 C 0.31053 0.64366 0.78568 0.0
C2529 C 0.30092 0.65671 0.78925 0.0
C2530 C 0.33439 0.59942 0.77137 0.0
C2531 C 0.3389 0.5892 0.7836 0.0
C2532 C 0.32435 0.61228 0.7744 0.0
C2533 C 0.31856 0.61528 0.78976 0.0
C2534 C 0.32309 0.60506 0.80198 0.0
C2535 C 0.33307 0.59219 0.79893 0.0
H2536 H 0.89842 0.50825 0.50482 0.0
H2537 H 0.91578 0.47211 0.47277 0.0
H2538 H 0.87536 0.49189 0.51077 0.0
H2539 H 0.8929 0.4557 0.47896 0.0
H2540 H 0.8585 0.4242 0.50648 0.0
H2541 H 0.88163 0.44074 0.50125 0.0
H2542 H 0.85115 0.48155 0.49757 0.0
H2543 H 0.82805 0.46506 0.50313 0.0
C2544 C 0.8973 0.49688 0.49896 0.0
C2545 C 0.90904 0.49154 0.48832 0.0
C2546 C 0.88409 0.48748 0.50241 0.0
C2547 C 0.88231 0.47247 0.49537 0.0
C2548 C 0.89404 0.4671 0.48478 0.0
C2549 C 0.90719 0.47652 0.48126 0.0
C2550 C 0.85675 0.43672 0.50469 0.0
C2551 C 0.84142 0.4433 0.50521 0.0
C2552 C 0.86999 0.44618 0.50155 0.0
C2553 C 0.86824 0.46246 0.49896 0.0
C2554 C 0.85293 0.46907 0.49963 0.0
C2555 C 0.83968 0.45959 0.50266 0.0
H2556 H 0.73686 0.87257 0.80525 0.0
H2557 H 0.76422 0.89152 0.76659 0.0
H2558 H 0.71867 0.89493 0.80365 0.0
H2559 H 0.74567 0.91336 0.76449 0.0
H2560 H 0.71952 0.95904 0.77515 0.0
H2561 H 0.73777 0.93697 0.77805 0.0
H2562 H 0.69817 0.9059 0.78709 0.0
H2563 H 0.6799 0.92809 0.78435 0.0
C2564 C 0.73902 0.88149 0.79641 0.0
C2565 C 0.75203 0.88018 0.78604 0.0
C2566 C 0.72846 0.89422 0.79537 0.0
C2567 C 0.73066 0.90599 0.78393 0.0
C2568 C 0.74368 0.90466 0.77358 0.0
C2569 C 0.75423 0.89197 0.77464 0.0
C2570 C 0.71469 0.94748 0.77766 0.0
C2571 C 0.69823 0.94533 0.77942 0.0
C2572 C 0.72516 0.9348 0.77932 0.0
C2573 C 0.71947 0.91959 0.78272 0.0
C2574 C 0.70301 0.91747 0.78467 0.0
C2575 C 0.69252 0.93019 0.78308 0.0
H2576 H 0.63259 0.52852 1.00748 0.0
H2577 H 0.62574 0.5532 0.96352 0.0
H2578 H 0.65617 0.54442 1.01288 0.0
H2579 H 0.64877 0.56958 0.96929 0.0
H2580 H 0.69955 0.58594 0.97601 0.0
H2581 H 0.67702 0.5687 0.9707 0.0
H2582 H 0.66402 0.57079 0.02012 0.0
H2583 H 0.68705 0.58738 0.02558 0.0
C2584 C 0.6361 0.53731 0.99895 0.0
C2585 C 0.62719 0.53957 0.98508 0.0
C2586 C 0.64953 0.54658 1.00215 0.0
C2587 C 0.65441 0.55834 0.99154 0.0
C2588 C 0.64552 0.56053 0.97765 0.0
C2589 C 0.63215 0.55126 0.97444 0.0
C2590 C 0.69203 0.58256 0.9858 0.0
C2591 C 0.69517 0.5881 1.00123 0.0
C2592 C 0.67896 0.57281 0.98271 0.0
C2593 C 0.6686 0.56837 0.99495 0.0
C2594 C 0.6718 0.57382 1.01041 0.0
C2595 C 0.68491 0.58353 1.01351 0.0
H2596 H 0.23499 0.66304 0.23507 0.0
H2597 H 0.26753 0.63807 0.26541 0.0
H2598 H 0.21642 0.64095 0.23643 0.0
H2599 H 0.24873 0.61638 0.26732 0.0
H2600 H 0.21908 0.57327 0.25483 0.0
H2601 H 0.23758 0.59515 0.25191 0.0
H2602 H 0.19856 0.62817 0.2548 0.0
H2603 H 0.18001 0.60623 0.25764 0.0
C2604 C 0.23821 0.65284 0.242 0.0
C2605 C 0.25277 0.65238 0.25016 0.0
C2606 C 0.22747 0.64024 0.24293 0.0
C2607 C 0.23104 0.62686 0.252 0.0
C2608 C 0.24563 0.62639 0.26007 0.0
C2609 C 0.25635 0.63895 0.25914 0.0
C2610 C 0.21444 0.5852 0.25495 0.0
C2611 C 0.19805 0.58798 0.25656 0.0
C2612 C 0.22506 0.59777 0.25327 0.0
C2613 C 0.2196 0.61346 0.25319 0.0
C2614 C 0.20318 0.61624 0.2546 0.0
C2615 C 0.19254 0.60365 0.25624 0.0
H2616 H 0.8914 0.52619 0.05916 0.0
H2617 H 0.92151 0.55832 0.03357 0.0
H2618 H 0.8684 0.54263 0.05333 0.0
H2619 H 0.89851 0.57467 0.0275 0.0
H2620 H 0.85741 0.60926 0.03503 0.0
H2621 H 0.88028 0.59242 0.04008 0.0
H2622 H 0.85106 0.55107 0.03262 0.0
H2623 H 0.82815 0.56795 0.02778 0.0
C2624 C 0.89307 0.53666 0.0521 0.0
C2625 C 0.9083 0.54097 0.04688 0.0
C2626 C 0.87987 0.54609 0.04873 0.0
C2627 C 0.88156 0.56004 0.03998 0.0
C2628 C 0.89678 0.56419 0.03453 0.0
C2629 C 0.90998 0.5548 0.03797 0.0
C2630 C 0.8559 0.59658 0.03435 0.0
C2631 C 0.84094 0.58997 0.03102 0.0
C2632 C 0.86903 0.5869 0.03721 0.0
C2633 C 0.86757 0.57034 0.03675 0.0
C2634 C 0.8526 0.56374 0.03334 0.0
C2635 C 0.83945 0.57343 0.03054 0.0
H2636 H 0.14289 1.00522 0.06743 0.0
H2637 H 0.11731 0.98092 0.03019 0.0
H2638 H 0.16615 0.98878 0.06215 0.0
H2639 H 0.14047 0.96424 0.02514 0.0
H2640 H 0.19087 0.94882 1.01024 0.0
H2641 H 0.16794 0.96585 1.01485 0.0
H2642 H 0.17401 0.96089 0.06527 0.0
H2643 H 0.19676 0.94365 0.06071 0.0
C2644 C 0.14227 0.99644 0.05804 0.0
C2645 C 0.12824 0.99438 0.04923 0.0
C2646 C 0.15554 0.98691 0.05513 0.0
C2647 C 0.15515 0.97515 0.04326 0.0
C2648 C 0.14121 0.97326 0.03429 0.0
C2649 C 0.12789 0.98272 0.03728 0.0
C2650 C 0.18723 0.9512 0.02232 0.0
C2651 C 0.19572 0.94481 0.0351 0.0
C2652 C 0.17409 0.961 0.02495 0.0
C2653 C 0.16916 0.96476 0.04042 0.0
C2654 C 0.17765 0.95843 0.0532 0.0
C2655 C 0.19072 0.94855 0.05057 0.0
loop_
_geom_bond_atom_site_label_1
_geom_bond_atom_site_label_2
_geom_bond_distance
_geom_bond_site_symmetry_2
_ccdc_geom_bond_type
C0 C1 1.264 1_655 S
C0 C5 1.479 . S
C0 C10 1.465 1_655 S
C1 C0 1.264 1_455 S
C1 C3 1.339 1_455 S
C1 H28 0.931 . S
C2 C3 1.395 . S
C2 C4 1.320 . S
C3 C1 1.339 1_655 S
C3 C2 1.395 . S
C3 H29 0.929 1_545 S
C4 C2 1.320 . S
C4 C5 1.405 . S
C4 H30 0.930 . S
C5 C0 1.479 . S
C5 C4 1.405 . S
C5 H31 0.931 . S
U6 O7 2.454 . S
U6 O8 2.458 . S
U6 C9 2.984 . S
U6 C10 2.847 . S
U6 C23 2.882 . S
U6 O24 2.441 . S
U6 O25 2.420 . S
U6 O26 2.455 . S
U6 O27 2.449 . S
O7 U6 2.454 . S
O7 C9 1.353 . S
O8 U6 2.458 . S
O8 C9 1.286 . S
C9 U6 2.984 . S
C9 O7 1.353 . S
C9 O8 1.286 . S
C9 C11 1.363 . S
C10 C0 1.465 1_455 S
C10 U6 2.847 . S
C10 O24 1.249 . S
C10 O25 1.202 . S
C11 C9 1.363 . S
C11 C13 1.408 . S
C11 C16 1.342 1_554 S
C12 C13 1.310 1_556 S
C12 C15 1.461 . S
C12 H32 0.932 . S
C13 C11 1.408 . S
C13 C12 1.310 1_554 S
C13 H33 0.930 . S
C14 C15 1.474 . S
C14 C16 1.285 . S
C14 H34 0.929 . S
C15 C12 1.461 . S
C15 C14 1.474 . S
C16 C11 1.342 1_556 S
C16 C14 1.285 . S
C16 H35 0.930 . S
C17 C20 1.424 . S
C17 C22 1.245 1_565 S
C17 C23 1.428 1_565 S
C18 C21 1.260 . S
C18 C22 1.477 1_565 S
C18 H36 0.932 . S
C19 C20 1.384 . S
C19 C21 1.479 . S
C19 H37 0.929 . S
C20 C17 1.424 . S
C20 C19 1.384 . S
C20 H38 0.928 . S
C21 C18 1.260 . S
C21 C19 1.479 . S
C22 C17 1.245 1_545 S
C22 C18 1.477 1_545 S
C22 H39 0.932 . S
C23 U6 2.882 . S
C23 C17 1.428 1_545 S
C23 O26 1.301 . S
C23 O27 1.282 . S
O24 U6 2.441 . S
O24 C10 1.249 . S
O25 U6 2.420 . S
O25 C10 1.202 . S
O26 U6 2.455 . S
O26 C23 1.301 . S
O27 U6 2.449 . S
O27 C23 1.282 . S
H28 C1 0.931 . S
H29 C3 0.929 1_565 S
H30 C4 0.930 . S
H31 C5 0.931 . S
H32 C12 0.932 . S
H33 C13 0.930 . S
H34 C14 0.929 . S
H35 C16 0.930 . S
H36 C18 0.932 . S
H37 C19 0.929 . S
H38 C20 0.928 . S
H39 C22 0.932 . S
C40 C41 1.264 . S
C40 C45 1.479 . S
C40 C50 1.465 . S
C41 C40 1.264 . S
C41 C43 1.339 . S
C41 H68 0.931 . S
C42 C43 1.395 . S
C42 C44 1.320 . S
C43 C41 1.339 . S
C43 C42 1.395 . S
C43 H69 0.929 . S
C44 C42 1.320 . S
C44 C45 1.405 . S
C44 H70 0.930 . S
C45 C40 1.479 . S
C45 C44 1.405 . S
C45 H71 0.931 . S
U46 O47 2.454 . S
U46 O48 2.458 . S
U46 C49 2.984 . S
U46 C50 2.847 . S
U46 C63 2.882 . S
U46 O64 2.441 . S
U46 O65 2.420 . S
U46 O66 2.455 . S
U46 O67 2.449 . S
O47 U46 2.454 . S
O47 C49 1.353 . S
O48 U46 2.458 . S
O48 C49 1.286 . S
C49 U46 2.984 . S
C49 O47 1.353 . S
C49 O48 1.286 . S
C49 C51 1.363 . S
C50 C40 1.465 . S
C50 U46 2.847 . S
C50 O64 1.249 . S
C50 O65 1.202 . S
C51 C49 1.363 . S
C51 C53 1.408 . S
C51 C56 1.342 . S
C52 C53 1.310 . S
C52 C55 1.461 . S
C52 H72 0.932 . S
C53 C51 1.408 . S
C53 C52 1.310 . S
C53 H73 0.930 . S
C54 C55 1.474 . S
C54 C56 1.285 . S
C54 H74 0.929 . S
C55 C52 1.461 . S
C55 C54 1.474 . S
C56 C51 1.342 . S
C56 C54 1.285 . S
C56 H75 0.930 . S
C57 C60 1.424 . S
C57 C62 1.245 . S
C57 C63 1.428 . S
C58 C61 1.260 . S
C58 C62 1.477 . S
C58 H76 0.932 . S
C59 C60 1.384 . S
C59 C61 1.479 . S
C59 H77 0.929 . S
C60 C57 1.424 . S
C60 C59 1.384 . S
C60 H78 0.928 . S
C61 C58 1.260 . S
C61 C59 1.479 . S
C62 C57 1.245 . S
C62 C58 1.477 . S
C62 H79 0.932 . S
C63 U46 2.882 . S
C63 C57 1.428 . S
C63 O66 1.301 . S
C63 O67 1.282 . S
O64 U46 2.441 . S
O64 C50 1.249 . S
O65 U46 2.420 . S
O65 C50 1.202 . S
O66 U46 2.455 . S
O66 C63 1.301 . S
O67 U46 2.449 . S
O67 C63 1.282 . S
H68 C41 0.931 . S
H69 C43 0.929 . S
H70 C44 0.930 . S
H71 C45 0.931 . S
H72 C52 0.932 . S
H73 C53 0.930 . S
H74 C54 0.929 . S
H75 C56 0.930 . S
H76 C58 0.932 . S
H77 C59 0.929 . S
H78 C60 0.928 . S
H79 C62 0.932 . S
C80 C81 1.253 1_556 S
C80 C85 1.479 . S
C80 C90 1.465 1_556 S
C81 C80 1.253 1_554 S
C81 C83 1.304 1_554 S
C81 H108 0.982 1_655 S
C82 C83 1.395 . S
C82 C84 1.320 . S
C83 C81 1.304 1_556 S
C83 C82 1.395 . S
C83 H109 0.929 1_655 S
C84 C82 1.320 . S
C84 C85 1.405 . S
C84 H110 0.930 . S
C85 C80 1.479 . S
C85 C84 1.405 . S
C85 H111 0.931 . S
U86 O87 2.454 . S
U86 O88 2.458 . S
U86 C89 2.984 . S
U86 C90 2.847 . S
U86 C103 2.882 . S
U86 O104 2.441 . S
U86 O105 2.420 . S
U86 O106 2.455 . S
U86 O107 2.449 . S
O87 U86 2.454 . S
O87 C89 1.353 . S
O88 U86 2.458 . S
O88 C89 1.286 . S
C89 U86 2.984 . S
C89 O87 1.353 . S
C89 O88 1.286 . S
C89 C91 1.363 . S
C90 C80 1.465 1_554 S
C90 U86 2.847 . S
C90 O104 1.249 . S
C90 O105 1.202 . S
C91 C89 1.363 . S
C91 C93 1.408 . S
C91 C96 1.342 . S
C92 C93 1.310 . S
C92 C95 1.461 . S
C92 H112 0.932 . S
C93 C91 1.408 . S
C93 C92 1.310 . S
C93 H113 0.930 . S
C94 C95 1.474 . S
C94 C96 1.285 . S
C94 H114 0.929 . S
C95 C92 1.461 . S
C95 C94 1.474 . S
C96 C91 1.342 . S
C96 C94 1.285 . S
C96 H115 0.930 . S
C97 C100 1.424 . S
C97 C102 1.263 . S
C97 C103 1.428 1_455 S
C98 C101 1.260 . S
C98 C102 1.525 . S
C98 H116 0.932 . S
C99 C100 1.384 . S
C99 C101 1.479 . S
C99 H117 0.929 . S
C100 C97 1.424 . S
C100 C99 1.384 . S
C100 H118 0.928 . S
C101 C98 1.260 . S
C101 C99 1.479 . S
C102 C97 1.263 . S
C102 C98 1.525 . S
C102 H119 0.874 1_455 S
C103 U86 2.882 . S
C103 C97 1.428 1_655 S
C103 O106 1.301 . S
C103 O107 1.282 . S
O104 U86 2.441 . S
O104 C90 1.249 . S
O105 U86 2.420 . S
O105 C90 1.202 . S
O106 U86 2.455 . S
O106 C103 1.301 . S
O107 U86 2.449 . S
O107 C103 1.282 . S
H108 C81 0.982 1_455 S
H109 C83 0.929 1_455 S
H110 C84 0.930 . S
H111 C85 0.931 . S
H112 C92 0.932 . S
H113 C93 0.930 . S
H114 C94 0.929 . S
H115 C96 0.930 . S
H116 C98 0.932 . S
H117 C99 0.929 . S
H118 C100 0.928 . S
H119 C102 0.874 1_655 S
C120 C121 1.264 . S
C120 C125 1.479 . S
C120 C130 1.465 . S
C121 C120 1.264 . S
C121 C123 1.339 . S
C121 H148 0.931 . S
C122 C123 1.395 . S
C122 C124 1.320 . S
C123 C121 1.339 . S
C123 C122 1.395 . S
C123 H149 0.929 . S
C124 C122 1.320 . S
C124 C125 1.405 . S
C124 H150 0.930 . S
C125 C120 1.479 . S
C125 C124 1.405 . S
C125 H151 0.931 . S
U126 O127 2.454 . S
U126 O128 2.458 . S
U126 C129 2.984 . S
U126 C130 2.847 . S
U126 C143 2.882 . S
U126 O144 2.441 . S
U126 O145 2.420 . S
U126 O146 2.455 . S
U126 O147 2.449 . S
O127 U126 2.454 . S
O127 C129 1.353 . S
O128 U126 2.458 . S
O128 C129 1.286 . S
C129 U126 2.984 . S
C129 O127 1.353 . S
C129 O128 1.286 . S
C129 C131 1.363 . S
C130 C120 1.465 . S
C130 U126 2.847 . S
C130 O144 1.249 . S
C130 O145 1.202 . S
C131 C129 1.363 . S
C131 C133 1.408 . S
C131 C136 1.342 . S
C132 C133 1.310 . S
C132 C135 1.461 . S
C132 H152 0.932 . S
C133 C131 1.408 . S
C133 C132 1.310 . S
C133 H153 0.930 . S
C134 C135 1.474 . S
C134 C136 1.285 . S
C134 H154 0.929 . S
C135 C132 1.461 . S
C135 C134 1.474 . S
C136 C131 1.342 . S
C136 C134 1.285 . S
C136 H155 0.930 . S
C137 C140 1.424 . S
C137 C142 1.245 . S
C137 C143 1.428 . S
C138 C141 1.260 . S
C138 C142 1.477 . S
C138 H156 0.932 . S
C139 C140 1.384 . S
C139 C141 1.479 . S
C139 H157 0.929 . S
C140 C137 1.424 . S
C140 C139 1.384 . S
C140 H158 0.928 . S
C141 C138 1.260 . S
C141 C139 1.479 . S
C142 C137 1.245 . S
C142 C138 1.477 . S
C142 H159 0.932 . S
C143 U126 2.882 . S
C143 C137 1.428 . S
C143 O146 1.301 . S
C143 O147 1.282 . S
O144 U126 2.441 . S
O144 C130 1.249 . S
O145 U126 2.420 . S
O145 C130 1.202 . S
O146 U126 2.455 . S
O146 C143 1.301 . S
O147 U126 2.449 . S
O147 C143 1.282 . S
H148 C121 0.931 . S
H149 C123 0.929 . S
H150 C124 0.930 . S
H151 C125 0.931 . S
H152 C132 0.932 . S
H153 C133 0.930 . S
H154 C134 0.929 . S
H155 C136 0.930 . S
H156 C138 0.932 . S
H157 C139 0.929 . S
H158 C140 0.928 . S
H159 C142 0.932 . S
C160 C161 1.264 1_655 S
C160 C165 1.479 . S
C160 C170 1.465 1_655 S
C161 C160 1.264 1_455 S
C161 C163 1.339 1_455 S
C161 H188 0.981 . S
C162 C163 1.395 . S
C162 C164 1.320 . S
C163 C161 1.339 1_655 S
C163 C162 1.395 . S
C163 H189 0.929 1_565 S
C164 C162 1.320 . S
C164 C165 1.405 . S
C164 H190 0.930 . S
C165 C160 1.479 . S
C165 C164 1.405 . S
C165 H191 0.931 . S
U166 O167 2.454 . S
U166 O168 2.458 . S
U166 C169 2.984 . S
U166 C170 2.847 . S
U166 C183 2.882 . S
U166 O184 2.441 . S
U166 O185 2.420 . S
U166 O186 2.455 . S
U166 O187 2.449 . S
O167 U166 2.454 . S
O167 C169 1.353 . S
O168 U166 2.458 . S
O168 C169 1.286 . S
C169 U166 2.984 . S
C169 O167 1.353 . S
C169 O168 1.286 . S
C169 C171 1.363 . S
C170 C160 1.465 1_455 S
C170 U166 2.847 . S
C170 O184 1.249 . S
C170 O185 1.202 . S
C171 C169 1.363 . S
C171 C173 1.408 . S
C171 C176 1.342 . S
C172 C173 1.310 . S
C172 C175 1.461 . S
C172 H192 0.932 . S
C173 C171 1.408 . S
C173 C172 1.310 . S
C173 H193 0.930 . S
C174 C175 1.474 . S
C174 C176 1.285 . S
C174 H194 0.929 . S
C175 C172 1.461 . S
C175 C174 1.474 . S
C176 C171 1.342 . S
C176 C174 1.285 . S
C176 H195 0.930 . S
C177 C180 1.424 . S
C177 C182 1.240 1_545 S
C177 C183 1.428 1_545 S
C178 C181 1.260 . S
C178 C182 1.462 1_545 S
C178 H196 0.932 . S
C179 C180 1.384 . S
C179 C181 1.479 . S
C179 H197 0.929 . S
C180 C177 1.424 . S
C180 C179 1.384 . S
C180 H198 0.928 . S
C181 C178 1.260 . S
C181 C179 1.479 . S
C182 C177 1.240 1_565 S
C182 C178 1.462 1_565 S
C182 H199 0.951 . S
C183 U166 2.882 . S
C183 C177 1.428 1_565 S
C183 O186 1.301 . S
C183 O187 1.282 . S
O184 U166 2.441 . S
O184 C170 1.249 . S
O185 U166 2.420 . S
O185 C170 1.202 . S
O186 U166 2.455 . S
O186 C183 1.301 . S
O187 U166 2.449 . S
O187 C183 1.282 . S
H188 C161 0.981 . S
H189 C163 0.929 1_545 S
H190 C164 0.930 . S
H191 C165 0.931 . S
H192 C172 0.932 . S
H193 C173 0.930 . S
H194 C174 0.929 . S
H195 C176 0.930 . S
H196 C178 0.932 . S
H197 C179 0.929 . S
H198 C180 0.928 . S
H199 C182 0.951 . S
C200 C201 1.264 . S
C200 C205 1.479 . S
C200 C210 1.465 . S
C201 C200 1.264 . S
C201 C203 1.339 . S
C201 H228 0.931 . S
C202 C203 1.395 . S
C202 C204 1.320 . S
C203 C201 1.339 . S
C203 C202 1.395 . S
C203 H229 0.929 . S
C204 C202 1.320 . S
C204 C205 1.405 . S
C204 H230 0.930 . S
C205 C200 1.479 . S
C205 C204 1.405 . S
C205 H231 0.931 . S
U206 O207 2.454 . S
U206 O208 2.458 . S
U206 C209 2.984 . S
U206 C210 2.847 . S
U206 C223 2.882 . S
U206 O224 2.441 . S
U206 O225 2.420 . S
U206 O226 2.455 . S
U206 O227 2.449 . S
O207 U206 2.454 . S
O207 C209 1.353 . S
O208 U206 2.458 . S
O208 C209 1.286 . S
C209 U206 2.984 . S
C209 O207 1.353 . S
C209 O208 1.286 . S
C209 C211 1.363 . S
C210 C200 1.465 . S
C210 U206 2.847 . S
C210 O224 1.249 . S
C210 O225 1.202 . S
C211 C209 1.363 . S
C211 C213 1.408 . S
C211 C216 1.342 . S
C212 C213 1.310 . S
C212 C215 1.461 . S
C212 H232 0.932 . S
C213 C211 1.408 . S
C213 C212 1.310 . S
C213 H233 0.930 . S
C214 C215 1.474 . S
C214 C216 1.285 . S
C214 H234 0.929 . S
C215 C212 1.461 . S
C215 C214 1.474 . S
C216 C211 1.342 . S
C216 C214 1.285 . S
C216 H235 0.930 . S
C217 C220 1.424 . S
C217 C222 1.245 . S
C217 C223 1.428 . S
C218 C221 1.260 . S
C218 C222 1.477 . S
C218 H236 0.932 . S
C219 C220 1.384 . S
C219 C221 1.479 . S
C219 H237 0.929 . S
C220 C217 1.424 . S
C220 C219 1.384 . S
C220 H238 0.928 . S
C221 C218 1.260 . S
C221 C219 1.479 . S
C222 C217 1.245 . S
C222 C218 1.477 . S
C222 H239 0.932 . S
C223 U206 2.882 . S
C223 C217 1.428 . S
C223 O226 1.301 . S
C223 O227 1.282 . S
O224 U206 2.441 . S
O224 C210 1.249 . S
O225 U206 2.420 . S
O225 C210 1.202 . S
O226 U206 2.455 . S
O226 C223 1.301 . S
O227 U206 2.449 . S
O227 C223 1.282 . S
H228 C201 0.931 . S
H229 C203 0.929 . S
H230 C204 0.930 . S
H231 C205 0.931 . S
H232 C212 0.932 . S
H233 C213 0.930 . S
H234 C214 0.929 . S
H235 C216 0.930 . S
H236 C218 0.932 . S
H237 C219 0.929 . S
H238 C220 0.928 . S
H239 C222 0.932 . S
C240 C241 1.264 . S
C240 C245 1.479 . S
C240 C250 1.465 . S
C241 C240 1.264 . S
C241 C243 1.339 . S
C241 H268 0.931 1_655 S
C242 C243 1.395 . S
C242 C244 1.320 . S
C243 C241 1.339 . S
C243 C242 1.395 . S
C243 H269 0.929 1_655 S
C244 C242 1.320 . S
C244 C245 1.405 . S
C244 H270 0.930 . S
C245 C240 1.479 . S
C245 C244 1.405 . S
C245 H271 0.931 . S
U246 O247 2.454 . S
U246 O248 2.458 . S
U246 C249 2.984 . S
U246 C250 2.847 . S
U246 C263 2.882 . S
U246 O264 2.441 . S
U246 O265 2.420 . S
U246 O266 2.455 . S
U246 O267 2.449 . S
O247 U246 2.454 . S
O247 C249 1.353 . S
O248 U246 2.458 . S
O248 C249 1.286 . S
C249 U246 2.984 . S
C249 O247 1.353 . S
C249 O248 1.286 . S
C249 C251 1.363 . S
C250 C240 1.465 . S
C250 U246 2.847 . S
C250 O264 1.249 . S
C250 O265 1.202 . S
C251 C249 1.363 . S
C251 C253 1.408 . S
C251 C256 1.342 . S
C252 C253 1.310 . S
C252 C255 1.461 . S
C252 H272 0.932 . S
C253 C251 1.408 . S
C253 C252 1.310 . S
C253 H273 0.930 . S
C254 C255 1.474 . S
C254 C256 1.285 . S
C254 H274 0.929 . S
C255 C252 1.461 . S
C255 C254 1.474 . S
C256 C251 1.342 . S
C256 C254 1.285 . S
C256 H275 0.930 . S
C257 C260 1.424 . S
C257 C262 1.263 . S
C257 C263 1.428 1_455 S
C258 C261 1.260 . S
C258 C262 1.525 . S
C258 H276 0.932 . S
C259 C260 1.384 . S
C259 C261 1.479 . S
C259 H277 0.929 . S
C260 C257 1.424 . S
C260 C259 1.384 . S
C260 H278 0.928 . S
C261 C258 1.260 . S
C261 C259 1.479 . S
C262 C257 1.263 . S
C262 C258 1.525 . S
C262 H279 0.874 1_455 S
C263 U246 2.882 . S
C263 C257 1.428 1_655 S
C263 O266 1.301 . S
C263 O267 1.282 . S
O264 U246 2.441 . S
O264 C250 1.249 . S
O265 U246 2.420 . S
O265 C250 1.202 . S
O266 U246 2.455 . S
O266 C263 1.301 . S
O267 U246 2.449 . S
O267 C263 1.282 . S
H268 C241 0.931 1_455 S
H269 C243 0.929 1_455 S
H270 C244 0.930 . S
H271 C245 0.931 . S
H272 C252 0.932 . S
H273 C253 0.930 . S
H274 C254 0.929 . S
H275 C256 0.930 . S
H276 C258 0.932 . S
H277 C259 0.929 . S
H278 C260 0.928 . S
H279 C262 0.874 1_655 S
C280 C281 1.264 . S
C280 C285 1.479 . S
C280 C290 1.465 . S
C281 C280 1.264 . S
C281 C283 1.339 . S
C281 H308 0.931 . S
C282 C283 1.395 . S
C282 C284 1.320 . S
C283 C281 1.339 . S
C283 C282 1.395 . S
C283 H309 0.929 . S
C284 C282 1.320 . S
C284 C285 1.405 . S
C284 H310 0.930 . S
C285 C280 1.479 . S
C285 C284 1.405 . S
C285 H311 0.931 . S
U286 O287 2.454 . S
U286 O288 2.458 . S
U286 C289 2.984 . S
U286 C290 2.847 . S
U286 C303 2.882 . S
U286 O304 2.441 . S
U286 O305 2.420 . S
U286 O306 2.455 . S
U286 O307 2.449 . S
O287 U286 2.454 . S
O287 C289 1.353 . S
O288 U286 2.458 . S
O288 C289 1.286 . S
C289 U286 2.984 . S
C289 O287 1.353 . S
C289 O288 1.286 . S
C289 C291 1.363 . S
C290 C280 1.465 . S
C290 U286 2.847 . S
C290 O304 1.249 . S
C290 O305 1.202 . S
C291 C289 1.363 . S
C291 C293 1.408 . S
C291 C296 1.342 . S
C292 C293 1.310 . S
C292 C295 1.461 . S
C292 H312 0.932 . S
C293 C291 1.408 . S
C293 C292 1.310 . S
C293 H313 0.930 . S
C294 C295 1.474 . S
C294 C296 1.285 . S
C294 H314 0.929 . S
C295 C292 1.461 . S
C295 C294 1.474 . S
C296 C291 1.342 . S
C296 C294 1.285 . S
C296 H315 0.930 . S
C297 C300 1.424 . S
C297 C302 1.245 . S
C297 C303 1.428 . S
C298 C301 1.260 . S
C298 C302 1.477 . S
C298 H316 0.932 . S
C299 C300 1.384 . S
C299 C301 1.479 . S
C299 H317 0.929 . S
C300 C297 1.424 . S
C300 C299 1.384 . S
C300 H318 0.928 . S
C301 C298 1.260 . S
C301 C299 1.479 . S
C302 C297 1.245 . S
C302 C298 1.477 . S
C302 H319 0.932 . S
C303 U286 2.882 . S
C303 C297 1.428 . S
C303 O306 1.301 . S
C303 O307 1.282 . S
O304 U286 2.441 . S
O304 C290 1.249 . S
O305 U286 2.420 . S
O305 C290 1.202 . S
O306 U286 2.455 . S
O306 C303 1.301 . S
O307 U286 2.449 . S
O307 C303 1.282 . S
H308 C281 0.931 . S
H309 C283 0.929 . S
H310 C284 0.930 . S
H311 C285 0.931 . S
H312 C292 0.932 . S
H313 C293 0.930 . S
H314 C294 0.929 . S
H315 C296 0.930 . S
H316 C298 0.932 . S
H317 C299 0.929 . S
H318 C300 0.928 . S
H319 C302 0.932 . S
C320 C321 1.264 . S
C320 C325 1.479 . S
C320 C330 1.465 . S
C321 C320 1.264 . S
C321 C323 1.339 . S
C321 H348 0.931 . S
C322 C323 1.395 . S
C322 C324 1.320 . S
C323 C321 1.339 . S
C323 C322 1.395 . S
C323 H349 0.929 . S
C324 C322 1.320 . S
C324 C325 1.405 . S
C324 H350 0.930 . S
C325 C320 1.479 . S
C325 C324 1.405 . S
C325 H351 0.931 . S
U326 O327 2.454 . S
U326 O328 2.458 . S
U326 C329 2.984 . S
U326 C330 2.847 . S
U326 C343 2.882 . S
U326 O344 2.441 . S
U326 O345 2.420 . S
U326 O346 2.455 . S
U326 O347 2.449 . S
O327 U326 2.454 . S
O327 C329 1.353 . S
O328 U326 2.458 . S
O328 C329 1.286 . S
C329 U326 2.984 . S
C329 O327 1.353 . S
C329 O328 1.286 . S
C329 C331 1.363 . S
C330 C320 1.465 . S
C330 U326 2.847 . S
C330 O344 1.249 . S
C330 O345 1.202 . S
C331 C329 1.363 . S
C331 C333 1.408 . S
C331 C336 1.342 . S
C332 C333 1.310 . S
C332 C335 1.461 . S
C332 H352 0.932 . S
C333 C331 1.408 . S
C333 C332 1.310 . S
C333 H353 0.930 . S
C334 C335 1.474 . S
C334 C336 1.285 . S
C334 H354 0.929 . S
C335 C332 1.461 . S
C335 C334 1.474 . S
C336 C331 1.342 . S
C336 C334 1.285 . S
C336 H355 0.930 . S
C337 C340 1.424 . S
C337 C342 1.245 . S
C337 C343 1.428 . S
C338 C341 1.260 . S
C338 C342 1.477 . S
C338 H356 0.932 . S
C339 C340 1.384 . S
C339 C341 1.479 . S
C339 H357 0.929 . S
C340 C337 1.424 . S
C340 C339 1.384 . S
C340 H358 0.928 . S
C341 C338 1.260 . S
C341 C339 1.479 . S
C342 C337 1.245 . S
C342 C338 1.477 . S
C342 H359 0.932 . S
C343 U326 2.882 . S
C343 C337 1.428 . S
C343 O346 1.301 . S
C343 O347 1.282 . S
O344 U326 2.441 . S
O344 C330 1.249 . S
O345 U326 2.420 . S
O345 C330 1.202 . S
O346 U326 2.455 . S
O346 C343 1.301 . S
O347 U326 2.449 . S
O347 C343 1.282 . S
H348 C321 0.931 . S
H349 C323 0.929 . S
H350 C324 0.930 . S
H351 C325 0.931 . S
H352 C332 0.932 . S
H353 C333 0.930 . S
H354 C334 0.929 . S
H355 C336 0.930 . S
H356 C338 0.932 . S
H357 C339 0.929 . S
H358 C340 0.928 . S
H359 C342 0.932 . S
C360 C361 1.264 . S
C360 C365 1.479 . S
C360 C370 1.465 . S
C361 C360 1.264 . S
C361 C363 1.339 . S
C361 H388 0.931 . S
C362 C363 1.395 . S
C362 C364 1.320 . S
C363 C361 1.339 . S
C363 C362 1.395 . S
C363 H389 0.929 . S
C364 C362 1.320 . S
C364 C365 1.405 . S
C364 H390 0.930 . S
C365 C360 1.479 . S
C365 C364 1.405 . S
C365 H391 0.931 . S
U366 O367 2.454 . S
U366 O368 2.458 . S
U366 C369 2.984 . S
U366 C370 2.847 . S
U366 C383 2.882 . S
U366 O384 2.441 . S
U366 O385 2.420 . S
U366 O386 2.455 . S
U366 O387 2.449 . S
O367 U366 2.454 . S
O367 C369 1.353 . S
O368 U366 2.458 . S
O368 C369 1.286 . S
C369 U366 2.984 . S
C369 O367 1.353 . S
C369 O368 1.286 . S
C369 C371 1.363 1_565 S
C370 C360 1.465 . S
C370 U366 2.847 . S
C370 O384 1.249 . S
C370 O385 1.202 . S
C371 C369 1.363 1_545 S
C371 C373 1.406 1_545 S
C371 C376 1.342 . S
C372 C373 1.306 1_545 S
C372 C375 1.461 . S
C372 H392 0.932 . S
C373 C371 1.406 1_565 S
C373 C372 1.306 1_565 S
C373 H393 0.936 . S
C374 C375 1.474 . S
C374 C376 1.285 . S
C374 H394 0.929 . S
C375 C372 1.461 . S
C375 C374 1.474 . S
C376 C371 1.342 . S
C376 C374 1.285 . S
C376 H395 0.930 . S
C377 C380 1.424 . S
C377 C382 1.245 . S
C377 C383 1.428 . S
C378 C381 1.260 . S
C378 C382 1.477 . S
C378 H396 0.901 1_565 S
C379 C380 1.384 . S
C379 C381 1.479 . S
C379 H397 0.929 . S
C380 C377 1.424 . S
C380 C379 1.384 . S
C380 H398 0.928 . S
C381 C378 1.260 . S
C381 C379 1.479 . S
C382 C377 1.245 . S
C382 C378 1.477 . S
C382 H399 0.932 . S
C383 U366 2.882 . S
C383 C377 1.428 . S
C383 O386 1.301 . S
C383 O387 1.282 . S
O384 U366 2.441 . S
O384 C370 1.249 . S
O385 U366 2.420 . S
O385 C370 1.202 . S
O386 U366 2.455 . S
O386 C383 1.301 . S
O387 U366 2.449 . S
O387 C383 1.282 . S
H388 C361 0.931 . S
H389 C363 0.929 . S
H390 C364 0.930 . S
H391 C365 0.931 . S
H392 C372 0.932 . S
H393 C373 0.936 . S
H394 C374 0.929 . S
H395 C376 0.930 . S
H396 C378 0.901 1_545 S
H397 C379 0.929 . S
H398 C380 0.928 . S
H399 C382 0.932 . S
C400 C401 1.264 . S
C400 C405 1.479 . S
C400 C410 1.465 . S
C401 C400 1.264 . S
C401 C403 1.339 . S
C401 H428 0.931 . S
C402 C403 1.395 . S
C402 C404 1.320 . S
C403 C401 1.339 . S
C403 C402 1.395 . S
C403 H429 0.929 . S
C404 C402 1.320 . S
C404 C405 1.405 . S
C404 H430 0.930 . S
C405 C400 1.479 . S
C405 C404 1.405 . S
C405 H431 0.931 . S
U406 O407 2.454 . S
U406 O408 2.458 . S
U406 C409 2.984 . S
U406 C410 2.847 . S
U406 C423 2.882 . S
U406 O424 2.441 . S
U406 O425 2.420 . S
U406 O426 2.455 . S
U406 O427 2.449 . S
O407 U406 2.454 . S
O407 C409 1.353 . S
O408 U406 2.458 . S
O408 C409 1.286 . S
C409 U406 2.984 . S
C409 O407 1.353 . S
C409 O408 1.286 . S
C409 C411 1.363 . S
C410 C400 1.465 . S
C410 U406 2.847 . S
C410 O424 1.249 . S
C410 O425 1.202 . S
C411 C409 1.363 . S
C411 C413 1.408 . S
C411 C416 1.342 . S
C412 C413 1.310 . S
C412 C415 1.461 . S
C412 H432 0.932 . S
C413 C411 1.408 . S
C413 C412 1.310 . S
C413 H433 0.930 . S
C414 C415 1.474 . S
C414 C416 1.285 . S
C414 H434 0.929 . S
C415 C412 1.461 . S
C415 C414 1.474 . S
C416 C411 1.342 . S
C416 C414 1.285 . S
C416 H435 0.930 . S
C417 C420 1.424 . S
C417 C422 1.245 . S
C417 C423 1.428 . S
C418 C421 1.260 . S
C418 C422 1.477 . S
C418 H436 0.932 . S
C419 C420 1.384 . S
C419 C421 1.479 . S
C419 H437 0.929 . S
C420 C417 1.424 . S
C420 C419 1.384 . S
C420 H438 0.928 . S
C421 C418 1.260 . S
C421 C419 1.479 . S
C422 C417 1.245 . S
C422 C418 1.477 . S
C422 H439 0.932 . S
C423 U406 2.882 . S
C423 C417 1.428 . S
C423 O426 1.301 . S
C423 O427 1.282 . S
O424 U406 2.441 . S
O424 C410 1.249 . S
O425 U406 2.420 . S
O425 C410 1.202 . S
O426 U406 2.455 . S
O426 C423 1.301 . S
O427 U406 2.449 . S
O427 C423 1.282 . S
H428 C401 0.931 . S
H429 C403 0.929 . S
H430 C404 0.930 . S
H431 C405 0.931 . S
H432 C412 0.932 . S
H433 C413 0.930 . S
H434 C414 0.929 . S
H435 C416 0.930 . S
H436 C418 0.932 . S
H437 C419 0.929 . S
H438 C420 0.928 . S
H439 C422 0.932 . S
C440 C441 1.264 . S
C440 C445 1.479 . S
C440 C450 1.465 . S
C441 C440 1.264 . S
C441 C443 1.339 . S
C441 H468 0.931 . S
C442 C443 1.395 . S
C442 C444 1.320 . S
C443 C441 1.339 . S
C443 C442 1.395 . S
C443 H469 0.929 . S
C444 C442 1.320 . S
C444 C445 1.405 . S
C444 H470 0.930 . S
C445 C440 1.479 . S
C445 C444 1.405 . S
C445 H471 0.931 . S
U446 O447 2.454 . S
U446 O448 2.458 . S
U446 C449 2.984 . S
U446 C450 2.847 . S
U446 C463 2.882 . S
U446 O464 2.441 . S
U446 O465 2.420 . S
U446 O466 2.455 . S
U446 O467 2.449 . S
O447 U446 2.454 . S
O447 C449 1.353 . S
O448 U446 2.458 . S
O448 C449 1.286 . S
C449 U446 2.984 . S
C449 O447 1.353 . S
C449 O448 1.286 . S
C449 C451 1.363 . S
C450 C440 1.465 . S
C450 U446 2.847 . S
C450 O464 1.249 . S
C450 O465 1.202 . S
C451 C449 1.363 . S
C451 C453 1.408 . S
C451 C456 1.342 . S
C452 C453 1.310 . S
C452 C455 1.461 . S
C452 H472 0.932 . S
C453 C451 1.408 . S
C453 C452 1.310 . S
C453 H473 0.930 . S
C454 C455 1.474 . S
C454 C456 1.285 . S
C454 H474 0.929 . S
C455 C452 1.461 . S
C455 C454 1.474 . S
C456 C451 1.342 . S
C456 C454 1.285 . S
C456 H475 0.930 . S
C457 C460 1.424 . S
C457 C462 1.245 . S
C457 C463 1.428 . S
C458 C461 1.260 . S
C458 C462 1.477 . S
C458 H476 0.932 . S
C459 C460 1.384 . S
C459 C461 1.479 . S
C459 H477 0.929 . S
C460 C457 1.424 . S
C460 C459 1.384 . S
C460 H478 0.928 . S
C461 C458 1.260 . S
C461 C459 1.479 . S
C462 C457 1.245 . S
C462 C458 1.477 . S
C462 H479 0.932 . S
C463 U446 2.882 . S
C463 C457 1.428 . S
C463 O466 1.301 . S
C463 O467 1.282 . S
O464 U446 2.441 . S
O464 C450 1.249 . S
O465 U446 2.420 . S
O465 C450 1.202 . S
O466 U446 2.455 . S
O466 C463 1.301 . S
O467 U446 2.449 . S
O467 C463 1.282 . S
H468 C441 0.931 . S
H469 C443 0.929 . S
H470 C444 0.930 . S
H471 C445 0.931 . S
H472 C452 0.932 . S
H473 C453 0.930 . S
H474 C454 0.929 . S
H475 C456 0.930 . S
H476 C458 0.932 . S
H477 C459 0.929 . S
H478 C460 0.928 . S
H479 C462 0.932 . S
C480 C481 1.264 . S
C480 C485 1.479 . S
C480 C490 1.465 . S
C481 C480 1.264 . S
C481 C483 1.339 . S
C481 H508 0.931 . S
C482 C483 1.395 . S
C482 C484 1.320 . S
C483 C481 1.339 . S
C483 C482 1.395 . S
C483 H509 0.929 . S
C484 C482 1.320 . S
C484 C485 1.405 . S
C484 H510 0.930 . S
C485 C480 1.479 . S
C485 C484 1.405 . S
C485 H511 0.931 . S
U486 O487 2.454 . S
U486 O488 2.458 . S
U486 C489 2.984 . S
U486 C490 2.847 . S
U486 C503 2.882 . S
U486 O504 2.441 . S
U486 O505 2.420 . S
U486 O506 2.455 . S
U486 O507 2.449 . S
O487 U486 2.454 . S
O487 C489 1.353 . S
O488 U486 2.458 . S
O488 C489 1.286 . S
C489 U486 2.984 . S
C489 O487 1.353 . S
C489 O488 1.286 . S
C489 C491 1.363 . S
C490 C480 1.465 . S
C490 U486 2.847 . S
C490 O504 1.249 . S
C490 O505 1.202 . S
C491 C489 1.363 . S
C491 C493 1.408 . S
C491 C496 1.342 . S
C492 C493 1.310 . S
C492 C495 1.461 . S
C492 H512 0.932 . S
C493 C491 1.408 . S
C493 C492 1.310 . S
C493 H513 0.930 . S
C494 C495 1.474 . S
C494 C496 1.285 . S
C494 H514 0.929 . S
C495 C492 1.461 . S
C495 C494 1.474 . S
C496 C491 1.342 . S
C496 C494 1.285 . S
C496 H515 0.930 . S
C497 C500 1.424 . S
C497 C502 1.245 . S
C497 C503 1.428 . S
C498 C501 1.260 . S
C498 C502 1.477 . S
C498 H516 0.932 . S
C499 C500 1.384 . S
C499 C501 1.479 . S
C499 H517 0.929 . S
C500 C497 1.424 . S
C500 C499 1.384 . S
C500 H518 0.928 . S
C501 C498 1.260 . S
C501 C499 1.479 . S
C502 C497 1.245 . S
C502 C498 1.477 . S
C502 H519 0.932 . S
C503 U486 2.882 . S
C503 C497 1.428 . S
C503 O506 1.301 . S
C503 O507 1.282 . S
O504 U486 2.441 . S
O504 C490 1.249 . S
O505 U486 2.420 . S
O505 C490 1.202 . S
O506 U486 2.455 . S
O506 C503 1.301 . S
O507 U486 2.449 . S
O507 C503 1.282 . S
H508 C481 0.931 . S
H509 C483 0.929 . S
H510 C484 0.930 . S
H511 C485 0.931 . S
H512 C492 0.932 . S
H513 C493 0.930 . S
H514 C494 0.929 . S
H515 C496 0.930 . S
H516 C498 0.932 . S
H517 C499 0.929 . S
H518 C500 0.928 . S
H519 C502 0.932 . S
C520 C521 1.264 . S
C520 C525 1.479 . S
C520 C530 1.465 . S
C521 C520 1.264 . S
C521 C523 1.339 . S
C521 H548 0.931 . S
C522 C523 1.395 . S
C522 C524 1.320 . S
C523 C521 1.339 . S
C523 C522 1.395 . S
C523 H549 0.929 . S
C524 C522 1.320 . S
C524 C525 1.405 . S
C524 H550 0.930 . S
C525 C520 1.479 . S
C525 C524 1.405 . S
C525 H551 0.931 . S
U526 O527 2.454 . S
U526 O528 2.458 . S
U526 C529 2.984 . S
U526 C530 2.847 . S
U526 C543 2.882 . S
U526 O544 2.441 . S
U526 O545 2.420 . S
U526 O546 2.455 . S
U526 O547 2.449 . S
O527 U526 2.454 . S
O527 C529 1.353 . S
O528 U526 2.458 . S
O528 C529 1.286 . S
C529 U526 2.984 . S
C529 O527 1.353 . S
C529 O528 1.286 . S
C529 C531 1.363 1_556 S
C530 C520 1.465 . S
C530 U526 2.847 . S
C530 O544 1.249 . S
C530 O545 1.202 . S
C531 C529 1.363 1_554 S
C531 C533 1.418 . S
C531 C536 1.342 . S
C532 C533 1.348 . S
C532 C535 1.461 . S
C532 H552 0.932 . S
C533 C531 1.418 . S
C533 C532 1.348 . S
C533 H553 0.886 1_554 S
C534 C535 1.474 . S
C534 C536 1.285 . S
C534 H554 0.929 . S
C535 C532 1.461 . S
C535 C534 1.474 . S
C536 C531 1.342 . S
C536 C534 1.285 . S
C536 H555 0.930 . S
C537 C540 1.424 . S
C537 C542 1.245 . S
C537 C543 1.428 . S
C538 C541 1.260 . S
C538 C542 1.477 . S
C538 H556 0.932 1_556 S
C539 C540 1.384 . S
C539 C541 1.479 . S
C539 H557 0.929 . S
C540 C537 1.424 . S
C540 C539 1.384 . S
C540 H558 0.928 . S
C541 C538 1.260 . S
C541 C539 1.479 . S
C542 C537 1.245 . S
C542 C538 1.477 . S
C542 H559 0.947 . S
C543 U526 2.882 . S
C543 C537 1.428 . S
C543 O546 1.301 . S
C543 O547 1.282 . S
O544 U526 2.441 . S
O544 C530 1.249 . S
O545 U526 2.420 . S
O545 C530 1.202 . S
O546 U526 2.455 . S
O546 C543 1.301 . S
O547 U526 2.449 . S
O547 C543 1.282 . S
H548 C521 0.931 . S
H549 C523 0.929 . S
H550 C524 0.930 . S
H551 C525 0.931 . S
H552 C532 0.932 . S
H553 C533 0.886 1_556 S
H554 C534 0.929 . S
H555 C536 0.930 . S
H556 C538 0.932 1_554 S
H557 C539 0.929 . S
H558 C540 0.928 . S
H559 C542 0.947 . S
C560 C561 1.264 . S
C560 C565 1.479 . S
C560 C570 1.465 . S
C561 C560 1.264 . S
C561 C563 1.339 . S
C561 H588 0.931 . S
C562 C563 1.395 . S
C562 C564 1.320 . S
C563 C561 1.339 . S
C563 C562 1.395 . S
C563 H589 0.929 . S
C564 C562 1.320 . S
C564 C565 1.405 . S
C564 H590 0.930 . S
C565 C560 1.479 . S
C565 C564 1.405 . S
C565 H591 0.931 . S
U566 O567 2.454 . S
U566 O568 2.458 . S
U566 C569 2.984 . S
U566 C570 2.847 . S
U566 C583 2.882 . S
U566 O584 2.441 . S
U566 O585 2.420 . S
U566 O586 2.455 . S
U566 O587 2.449 . S
O567 U566 2.454 . S
O567 C569 1.353 . S
O568 U566 2.458 . S
O568 C569 1.286 . S
C569 U566 2.984 . S
C569 O567 1.353 . S
C569 O568 1.286 . S
C569 C571 1.363 . S
C570 C560 1.465 . S
C570 U566 2.847 . S
C570 O584 1.249 . S
C570 O585 1.202 . S
C571 C569 1.363 . S
C571 C573 1.408 . S
C571 C576 1.342 . S
C572 C573 1.310 . S
C572 C575 1.461 . S
C572 H592 0.932 . S
C573 C571 1.408 . S
C573 C572 1.310 . S
C573 H593 0.930 . S
C574 C575 1.474 . S
C574 C576 1.285 . S
C574 H594 0.929 . S
C575 C572 1.461 . S
C575 C574 1.474 . S
C576 C571 1.342 . S
C576 C574 1.285 . S
C576 H595 0.930 . S
C577 C580 1.424 . S
C577 C582 1.245 . S
C577 C583 1.428 . S
C578 C581 1.260 . S
C578 C582 1.477 . S
C578 H596 0.932 . S
C579 C580 1.384 . S
C579 C581 1.479 . S
C579 H597 0.929 . S
C580 C577 1.424 . S
C580 C579 1.384 . S
C580 H598 0.928 . S
C581 C578 1.260 . S
C581 C579 1.479 . S
C582 C577 1.245 . S
C582 C578 1.477 . S
C582 H599 0.932 . S
C583 U566 2.882 . S
C583 C577 1.428 . S
C583 O586 1.301 . S
C583 O587 1.282 . S
O584 U566 2.441 . S
O584 C570 1.249 . S
O585 U566 2.420 . S
O585 C570 1.202 . S
O586 U566 2.455 . S
O586 C583 1.301 . S
O587 U566 2.449 . S
O587 C583 1.282 . S
H588 C561 0.931 . S
H589 C563 0.929 . S
H590 C564 0.930 . S
H591 C565 0.931 . S
H592 C572 0.932 . S
H593 C573 0.930 . S
H594 C574 0.929 . S
H595 C576 0.930 . S
H596 C578 0.932 . S
H597 C579 0.929 . S
H598 C580 0.928 . S
H599 C582 0.932 . S
C600 C601 1.264 . S
C600 C605 1.479 . S
C600 C610 1.465 1_554 S
C601 C600 1.264 . S
C601 C603 1.339 . S
C601 H628 0.931 1_554 S
C602 C603 1.395 . S
C602 C604 1.320 . S
C603 C601 1.339 . S
C603 C602 1.395 . S
C603 H629 0.929 . S
C604 C602 1.320 . S
C604 C605 1.405 . S
C604 H630 0.930 . S
C605 C600 1.479 . S
C605 C604 1.405 . S
C605 H631 0.931 . S
U606 O607 2.454 . S
U606 O608 2.458 . S
U606 C609 2.984 . S
U606 C610 2.847 . S
U606 C623 2.882 . S
U606 O624 2.471 . S
U606 O625 2.420 . S
U606 O626 2.455 . S
U606 O627 2.449 . S
O607 U606 2.454 . S
O607 C609 1.353 . S
O608 U606 2.458 . S
O608 C609 1.286 . S
C609 U606 2.984 . S
C609 O607 1.353 . S
C609 O608 1.286 . S
C609 C611 1.363 1_545 S
C610 C600 1.465 1_556 S
C610 U606 2.847 . S
C610 O624 1.253 . S
C610 O625 1.202 . S
C611 C609 1.363 1_565 S
C611 C613 1.408 1_565 S
C611 C616 1.342 . S
C612 C613 1.310 1_565 S
C612 C615 1.461 . S
C612 H632 0.932 1_556 S
C613 C611 1.408 1_545 S
C613 C612 1.310 1_545 S
C613 H633 0.909 1_556 S
C614 C615 1.474 . S
C614 C616 1.285 . S
C614 H634 0.929 . S
C615 C612 1.461 . S
C615 C614 1.474 . S
C616 C611 1.342 . S
C616 C614 1.285 . S
C616 H635 0.930 . S
C617 C620 1.424 . S
C617 C622 1.245 . S
C617 C623 1.428 . S
C618 C621 1.260 . S
C618 C622 1.477 . S
C618 H636 0.948 . S
C619 C620 1.384 . S
C619 C621 1.479 . S
C619 H637 0.929 . S
C620 C617 1.424 . S
C620 C619 1.384 . S
C620 H638 0.928 . S
C621 C618 1.260 . S
C621 C619 1.479 . S
C622 C617 1.245 . S
C622 C618 1.477 . S
C622 H639 0.932 . S
C623 U606 2.882 . S
C623 C617 1.428 . S
C623 O626 1.301 . S
C623 O627 1.282 . S
O624 U606 2.471 . S
O624 C610 1.253 . S
O625 U606 2.420 . S
O625 C610 1.202 . S
O626 U606 2.455 . S
O626 C623 1.301 . S
O627 U606 2.449 . S
O627 C623 1.282 . S
H628 C601 0.931 1_556 S
H629 C603 0.929 . S
H630 C604 0.930 . S
H631 C605 0.931 . S
H632 C612 0.932 1_554 S
H633 C613 0.909 1_554 S
H634 C614 0.929 . S
H635 C616 0.930 . S
H636 C618 0.948 . S
H637 C619 0.929 . S
H638 C620 0.928 . S
H639 C622 0.932 . S
Li640 N657 1.990 1_554 S
Li640 O700 1.956 . S
Li640 O701 1.970 . S
Li640 O702 1.961 1_554 S
Li641 N665 1.990 . S
Li641 O700 1.970 . S
Li641 O701 1.956 . S
Li641 O703 1.961 . S
Li642 N687 1.990 . S
Li642 O700 1.961 1_556 S
Li642 O702 1.956 . S
Li642 O703 1.970 1_556 S
Li643 N693 1.990 . S
Li643 O701 1.961 . S
Li643 O702 1.970 1_554 S
Li643 O703 1.956 . S
C644 C646 1.369 . S
C644 C647 1.331 1_554 S
C644 O700 1.329 . S
N645 C648 1.314 1_556 S
N645 C649 1.279 . S
C646 C644 1.369 . S
C646 C648 1.353 . S
C646 H704 0.929 . S
C647 C644 1.331 1_556 S
C647 C649 1.358 . S
C647 H705 0.930 . S
C648 N645 1.314 1_554 S
C648 C646 1.353 . S
C648 H706 0.930 . S
C649 N645 1.279 . S
C649 C647 1.358 . S
C649 H707 0.930 . S
C650 C653 1.348 . S
C650 C654 1.356 . S
C650 O701 1.325 . S
C651 N652 1.279 . S
C651 C654 1.358 . S
C651 H708 0.930 . S
N652 C651 1.279 . S
N652 C655 1.314 . S
C653 C650 1.348 . S
C653 C655 1.353 . S
C653 H709 0.929 . S
C654 C650 1.356 . S
C654 C651 1.358 . S
C654 H710 0.930 . S
C655 N652 1.314 . S
C655 C653 1.353 . S
C655 H711 0.930 . S
C656 N657 1.314 . S
C656 C661 1.353 . S
C656 H662 0.930 . S
N657 Li640 1.990 1_556 S
N657 C656 1.314 . S
N657 C659 1.280 1_556 S
C658 C659 1.359 1_556 S
C658 C660 1.356 . S
C658 H712 0.933 . S
C659 N657 1.280 1_554 S
C659 C658 1.359 1_554 S
C659 H663 0.930 . S
C660 C658 1.356 . S
C660 C661 1.348 . S
C661 C656 1.353 . S
C661 C660 1.348 . S
C661 H713 0.929 . S
H662 C656 0.930 . S
H663 C659 0.930 . S
C664 N665 1.314 . S
C664 C666 1.353 . S
C664 H670 0.930 . S
N665 Li641 1.990 . S
N665 C664 1.314 . S
N665 C668 1.279 . S
C666 C664 1.353 . S
C666 C669 1.348 . S
C666 H714 0.929 . S
C667 C668 1.358 . S
C667 C669 1.356 . S
C667 H715 0.930 . S
C668 N665 1.279 . S
C668 C667 1.358 . S
C668 H671 0.930 . S
C669 C666 1.348 . S
C669 C667 1.356 . S
H670 C664 0.930 . S
H671 C668 0.930 . S
C672 C674 1.348 . S
C672 C675 1.356 . S
C672 O702 1.325 . S
N673 C676 1.314 . S
N673 C677 1.279 . S
C674 C672 1.348 . S
C674 C676 1.353 . S
C674 H716 0.929 . S
C675 C672 1.356 . S
C675 C677 1.358 . S
C675 H717 0.930 . S
C676 N673 1.314 . S
C676 C674 1.353 . S
C676 H718 0.930 . S
C677 N673 1.279 . S
C677 C675 1.358 . S
C677 H719 0.930 . S
C678 C679 1.348 1_554 S
C678 C680 1.356 . S
C678 O703 1.325 . S
C679 C678 1.348 1_556 S
C679 C681 1.354 1_556 S
C679 H720 0.929 . S
C680 C678 1.356 . S
C680 C682 1.358 . S
C680 H721 0.930 . S
C681 C679 1.354 1_554 S
C681 N683 1.311 . S
C681 H722 0.932 1_554 S
C682 C680 1.358 . S
C682 N683 1.279 . S
C682 H723 0.930 . S
N683 C681 1.311 . S
N683 C682 1.279 . S
C684 C686 1.353 . S
C684 N687 1.314 . S
C684 H690 0.930 . S
C685 N687 1.279 . S
C685 C688 1.358 . S
C685 H691 0.930 . S
C686 C684 1.353 . S
C686 C689 1.348 . S
C686 H724 0.929 . S
N687 Li642 1.990 . S
N687 C684 1.314 . S
N687 C685 1.279 . S
C688 C685 1.358 . S
C688 C689 1.356 . S
C688 H725 0.930 . S
C689 C686 1.348 . S
C689 C688 1.356 . S
H690 C684 0.930 . S
H691 C685 0.930 . S
C692 N693 1.314 . S
C692 C694 1.353 . S
C692 H698 0.930 . S
N693 Li643 1.990 . S
N693 C692 1.314 . S
N693 C696 1.279 . S
C694 C692 1.353 . S
C694 C697 1.348 . S
C694 H726 0.929 . S
C695 C696 1.358 . S
C695 C697 1.356 . S
C695 H727 0.930 . S
C696 N693 1.279 . S
C696 C695 1.358 . S
C696 H699 0.930 . S
C697 C694 1.348 . S
C697 C695 1.356 . S
H698 C692 0.930 . S
H699 C696 0.930 . S
O700 Li640 1.956 . S
O700 Li641 1.970 . S
O700 Li642 1.961 1_554 S
O700 C644 1.329 . S
O701 Li640 1.970 . S
O701 Li641 1.956 . S
O701 Li643 1.961 . S
O701 C650 1.325 . S
O702 Li640 1.961 1_556 S
O702 Li642 1.956 . S
O702 Li643 1.970 1_556 S
O702 C672 1.325 . S
O703 Li641 1.961 . S
O703 Li642 1.970 1_554 S
O703 Li643 1.956 . S
O703 C678 1.325 . S
H704 C646 0.929 . S
H705 C647 0.930 . S
H706 C648 0.930 . S
H707 C649 0.930 . S
H708 C651 0.930 . S
H709 C653 0.929 . S
H710 C654 0.930 . S
H711 C655 0.930 . S
H712 C658 0.933 . S
H713 C661 0.929 . S
H714 C666 0.929 . S
H715 C667 0.930 . S
H716 C674 0.929 . S
H717 C675 0.930 . S
H718 C676 0.930 . S
H719 C677 0.930 . S
H720 C679 0.929 . S
H721 C680 0.930 . S
H722 C681 0.932 1_556 S
H723 C682 0.930 . S
H724 C686 0.929 . S
H725 C688 0.930 . S
H726 C694 0.929 . S
H727 C695 0.930 . S
Li728 N745 1.990 . S
Li728 O788 1.956 . S
Li728 O789 1.970 . S
Li728 O790 1.961 . S
Li729 N753 1.990 . S
Li729 O788 1.970 . S
Li729 O789 1.956 . S
Li729 O791 1.961 . S
Li730 N775 1.990 . S
Li730 O788 1.961 . S
Li730 O790 1.956 . S
Li730 O791 1.970 . S
Li731 N781 1.990 . S
Li731 O789 1.961 . S
Li731 O790 1.970 . S
Li731 O791 1.956 . S
C732 C734 1.348 . S
C732 C735 1.356 . S
C732 O788 1.325 . S
N733 C736 1.314 . S
N733 C737 1.279 . S
C734 C732 1.348 . S
C734 C736 1.353 . S
C734 H792 0.929 . S
C735 C732 1.356 . S
C735 C737 1.358 . S
C735 H793 0.930 . S
C736 N733 1.314 . S
C736 C734 1.353 . S
C736 H794 0.930 . S
C737 N733 1.279 . S
C737 C735 1.358 . S
C737 H795 0.930 . S
C738 C741 1.348 . S
C738 C742 1.356 . S
C738 O789 1.325 . S
C739 N740 1.279 . S
C739 C742 1.358 . S
C739 H796 0.930 . S
N740 C739 1.279 . S
N740 C743 1.314 . S
C741 C738 1.348 . S
C741 C743 1.353 . S
C741 H797 0.929 . S
C742 C738 1.356 . S
C742 C739 1.358 . S
C742 H798 0.930 . S
C743 N740 1.314 . S
C743 C741 1.353 . S
C743 H799 0.930 . S
C744 N745 1.314 . S
C744 C749 1.353 . S
C744 H750 0.930 . S
N745 Li728 1.990 . S
N745 C744 1.314 . S
N745 C747 1.279 . S
C746 C747 1.358 . S
C746 C748 1.356 . S
C746 H800 0.930 . S
C747 N745 1.279 . S
C747 C746 1.358 . S
C747 H751 0.930 . S
C748 C746 1.356 . S
C748 C749 1.348 . S
C749 C744 1.353 . S
C749 C748 1.348 . S
C749 H801 0.929 . S
H750 C744 0.930 . S
H751 C747 0.930 . S
C752 N753 1.314 . S
C752 C754 1.353 . S
C752 H758 0.930 . S
N753 Li729 1.990 . S
N753 C752 1.314 . S
N753 C756 1.279 . S
C754 C752 1.353 . S
C754 C757 1.348 . S
C754 H802 0.929 . S
C755 C756 1.358 . S
C755 C757 1.356 . S
C755 H803 0.930 . S
C756 N753 1.279 . S
C756 C755 1.358 . S
C756 H759 0.930 . S
C757 C754 1.348 . S
C757 C755 1.356 . S
H758 C752 0.930 . S
H759 C756 0.930 . S
C760 C762 1.348 . S
C760 C763 1.356 . S
C760 O790 1.325 . S
N761 C764 1.314 . S
N761 C765 1.279 . S
C762 C760 1.348 . S
C762 C764 1.353 . S
C762 H804 0.929 . S
C763 C760 1.356 . S
C763 C765 1.358 . S
C763 H805 0.930 . S
C764 N761 1.314 . S
C764 C762 1.353 . S
C764 H806 0.930 . S
C765 N761 1.279 . S
C765 C763 1.358 . S
C765 H807 0.930 . S
C766 C767 1.348 . S
C766 C768 1.356 . S
C766 O791 1.325 . S
C767 C766 1.348 . S
C767 C769 1.353 . S
C767 H808 0.929 . S
C768 C766 1.356 . S
C768 C770 1.358 . S
C768 H809 0.930 . S
C769 C767 1.353 . S
C769 N771 1.314 . S
C769 H810 0.930 . S
C770 C768 1.358 . S
C770 N771 1.279 . S
C770 H811 0.930 . S
N771 C769 1.314 . S
N771 C770 1.279 . S
C772 C774 1.353 . S
C772 N775 1.314 . S
C772 H778 0.930 . S
C773 N775 1.279 . S
C773 C776 1.358 . S
C773 H779 0.930 . S
C774 C772 1.353 . S
C774 C777 1.348 . S
C774 H812 0.929 . S
N775 Li730 1.990 . S
N775 C772 1.314 . S
N775 C773 1.279 . S
C776 C773 1.358 . S
C776 C777 1.356 . S
C776 H813 0.930 . S
C777 C774 1.348 . S
C777 C776 1.356 . S
H778 C772 0.930 . S
H779 C773 0.930 . S
C780 N781 1.314 . S
C780 C782 1.353 . S
C780 H786 0.930 . S
N781 Li731 1.990 . S
N781 C780 1.314 . S
N781 C784 1.279 . S
C782 C780 1.353 . S
C782 C785 1.348 . S
C782 H814 0.929 . S
C783 C784 1.358 . S
C783 C785 1.356 . S
C783 H815 0.930 . S
C784 N781 1.279 . S
C784 C783 1.358 . S
C784 H787 0.930 . S
C785 C782 1.348 . S
C785 C783 1.356 . S
H786 C780 0.930 . S
H787 C784 0.930 . S
O788 Li728 1.956 . S
O788 Li729 1.970 . S
O788 Li730 1.961 . S
O788 C732 1.325 . S
O789 Li728 1.970 . S
O789 Li729 1.956 . S
O789 Li731 1.961 . S
O789 C738 1.325 . S
O790 Li728 1.961 . S
O790 Li730 1.956 . S
O790 Li731 1.970 . S
O790 C760 1.325 . S
O791 Li729 1.961 . S
O791 Li730 1.970 . S
O791 Li731 1.956 . S
O791 C766 1.325 . S
H792 C734 0.929 . S
H793 C735 0.930 . S
H794 C736 0.930 . S
H795 C737 0.930 . S
H796 C739 0.930 . S
H797 C741 0.929 . S
H798 C742 0.930 . S
H799 C743 0.930 . S
H800 C746 0.930 . S
H801 C749 0.929 . S
H802 C754 0.929 . S
H803 C755 0.930 . S
H804 C762 0.929 . S
H805 C763 0.930 . S
H806 C764 0.930 . S
H807 C765 0.930 . S
H808 C767 0.929 . S
H809 C768 0.930 . S
H810 C769 0.930 . S
H811 C770 0.930 . S
H812 C774 0.929 . S
H813 C776 0.930 . S
H814 C782 0.929 . S
H815 C783 0.930 . S
Li816 N833 1.990 . S
Li816 O876 1.956 . S
Li816 O877 1.970 1_556 S
Li816 O878 1.961 . S
Li817 N841 1.990 . S
Li817 O876 1.970 1_554 S
Li817 O877 1.956 . S
Li817 O879 1.961 . S
Li818 N863 1.990 . S
Li818 O876 1.961 . S
Li818 O878 1.956 . S
Li818 O879 1.970 1_556 S
Li819 N869 1.990 . S
Li819 O877 1.961 . S
Li819 O878 1.970 1_554 S
Li819 O879 1.956 . S
C820 C822 1.348 1_556 S
C820 C823 1.356 . S
C820 O876 1.325 . S
N821 C824 1.314 1_556 S
N821 C825 1.279 . S
C822 C820 1.348 1_554 S
C822 C824 1.353 . S
C822 H880 0.929 . S
C823 C820 1.356 . S
C823 C825 1.358 . S
C823 H881 0.930 . S
C824 N821 1.314 1_554 S
C824 C822 1.353 . S
C824 H882 0.930 . S
C825 N821 1.279 . S
C825 C823 1.358 . S
C825 H883 0.930 . S
C826 C829 1.348 . S
C826 C830 1.356 . S
C826 O877 1.325 . S
C827 N828 1.279 . S
C827 C830 1.358 . S
C827 H884 0.930 . S
N828 C827 1.279 . S
N828 C831 1.314 . S
C829 C826 1.348 . S
C829 C831 1.353 . S
C829 H885 0.929 . S
C830 C826 1.356 . S
C830 C827 1.358 . S
C830 H886 0.930 . S
C831 N828 1.314 . S
C831 C829 1.353 . S
C831 H887 0.930 . S
C832 N833 1.314 . S
C832 C837 1.353 . S
C832 H838 0.930 . S
N833 Li816 1.990 . S
N833 C832 1.314 . S
N833 C835 1.279 . S
C834 C835 1.358 . S
C834 C836 1.356 . S
C834 H888 0.930 . S
C835 N833 1.279 . S
C835 C834 1.358 . S
C835 H839 0.930 . S
C836 C834 1.356 . S
C836 C837 1.348 . S
C837 C832 1.353 . S
C837 C836 1.348 . S
C837 H889 0.929 . S
H838 C832 0.930 . S
H839 C835 0.930 . S
C840 N841 1.314 . S
C840 C842 1.353 . S
C840 H846 0.930 . S
N841 Li817 1.990 . S
N841 C840 1.314 . S
N841 C844 1.279 . S
C842 C840 1.353 . S
C842 C845 1.348 . S
C842 H890 0.929 . S
C843 C844 1.358 . S
C843 C845 1.356 . S
C843 H891 0.930 . S
C844 N841 1.279 . S
C844 C843 1.358 . S
C844 H847 0.930 . S
C845 C842 1.348 . S
C845 C843 1.356 . S
H846 C840 0.930 . S
H847 C844 0.930 . S
C848 C850 1.348 . S
C848 C851 1.356 . S
C848 O878 1.325 . S
N849 C852 1.314 . S
N849 C853 1.279 . S
C850 C848 1.348 . S
C850 C852 1.353 . S
C850 H892 0.929 . S
C851 C848 1.356 . S
C851 C853 1.358 . S
C851 H893 0.930 . S
C852 N849 1.314 . S
C852 C850 1.353 . S
C852 H894 0.930 . S
C853 N849 1.279 . S
C853 C851 1.358 . S
C853 H895 0.930 . S
C854 C855 1.348 1_554 S
C854 C856 1.356 . S
C854 O879 1.325 . S
C855 C854 1.348 1_556 S
C855 C857 1.353 . S
C855 H896 0.929 . S
C856 C854 1.356 . S
C856 C858 1.358 . S
C856 H897 0.930 . S
C857 C855 1.353 . S
C857 N859 1.314 1_556 S
C857 H898 0.930 . S
C858 C856 1.358 . S
C858 N859 1.279 . S
C858 H899 0.930 . S
N859 C857 1.314 1_554 S
N859 C858 1.279 . S
C860 C862 1.353 . S
C860 N863 1.314 . S
C860 H866 0.930 . S
C861 N863 1.279 . S
C861 C864 1.358 . S
C861 H867 0.930 . S
C862 C860 1.353 . S
C862 C865 1.348 . S
C862 H900 0.929 . S
N863 Li818 1.990 . S
N863 C860 1.314 . S
N863 C861 1.279 . S
C864 C861 1.358 . S
C864 C865 1.356 . S
C864 H901 0.930 . S
C865 C862 1.348 . S
C865 C864 1.356 . S
H866 C860 0.930 . S
H867 C861 0.930 . S
C868 N869 1.314 . S
C868 C870 1.353 . S
C868 H874 0.930 . S
N869 Li819 1.990 . S
N869 C868 1.314 . S
N869 C872 1.279 . S
C870 C868 1.353 . S
C870 C873 1.348 . S
C870 H902 0.929 . S
C871 C872 1.358 . S
C871 C873 1.356 . S
C871 H903 0.930 . S
C872 N869 1.279 . S
C872 C871 1.358 . S
C872 H875 0.930 . S
C873 C870 1.348 . S
C873 C871 1.356 . S
H874 C868 0.930 . S
H875 C872 0.930 . S
O876 Li816 1.956 . S
O876 Li817 1.970 1_556 S
O876 Li818 1.961 . S
O876 C820 1.325 . S
O877 Li816 1.970 1_554 S
O877 Li817 1.956 . S
O877 Li819 1.961 . S
O877 C826 1.325 . S
O878 Li816 1.961 . S
O878 Li818 1.956 . S
O878 Li819 1.970 1_556 S
O878 C848 1.325 . S
O879 Li817 1.961 . S
O879 Li818 1.970 1_554 S
O879 Li819 1.956 . S
O879 C854 1.325 . S
H880 C822 0.929 . S
H881 C823 0.930 . S
H882 C824 0.930 . S
H883 C825 0.930 . S
H884 C827 0.930 . S
H885 C829 0.929 . S
H886 C830 0.930 . S
H887 C831 0.930 . S
H888 C834 0.930 . S
H889 C837 0.929 . S
H890 C842 0.929 . S
H891 C843 0.930 . S
H892 C850 0.929 . S
H893 C851 0.930 . S
H894 C852 0.930 . S
H895 C853 0.930 . S
H896 C855 0.929 . S
H897 C856 0.930 . S
H898 C857 0.930 . S
H899 C858 0.930 . S
H900 C862 0.929 . S
H901 C864 0.930 . S
H902 C870 0.929 . S
H903 C871 0.930 . S
Li904 N921 1.990 . S
Li904 O964 1.956 . S
Li904 O965 1.970 1_545 S
Li904 O966 1.961 . S
Li905 N929 1.990 . S
Li905 O964 1.970 1_565 S
Li905 O965 1.956 . S
Li905 O967 1.961 . S
Li906 N951 1.990 . S
Li906 O964 1.961 . S
Li906 O966 1.956 . S
Li906 O967 1.970 1_545 S
Li907 N957 1.990 . S
Li907 O965 1.961 . S
Li907 O966 1.970 1_565 S
Li907 O967 1.956 . S
C908 C910 1.348 . S
C908 C911 1.356 . S
C908 O964 1.325 . S
N909 C912 1.314 . S
N909 C913 1.279 . S
C910 C908 1.348 . S
C910 C912 1.353 . S
C910 H968 0.929 . S
C911 C908 1.356 . S
C911 C913 1.358 . S
C911 H969 0.930 . S
C912 N909 1.314 . S
C912 C910 1.353 . S
C912 H970 0.930 . S
C913 N909 1.279 . S
C913 C911 1.358 . S
C913 H971 0.930 . S
C914 C917 1.348 1_565 S
C914 C918 1.356 . S
C914 O965 1.325 . S
C915 N916 1.279 . S
C915 C918 1.358 . S
C915 H972 0.930 . S
N916 C915 1.279 . S
N916 C919 1.314 1_565 S
C917 C914 1.348 1_545 S
C917 C919 1.353 . S
C917 H973 0.929 . S
C918 C914 1.356 . S
C918 C915 1.358 . S
C918 H974 0.930 . S
C919 N916 1.314 1_545 S
C919 C917 1.353 . S
C919 H975 0.930 . S
C920 N921 1.314 . S
C920 C925 1.353 . S
C920 H926 0.930 . S
N921 Li904 1.990 . S
N921 C920 1.314 . S
N921 C923 1.279 . S
C922 C923 1.358 . S
C922 C924 1.356 . S
C922 H976 0.930 . S
C923 N921 1.279 . S
C923 C922 1.358 . S
C923 H927 0.930 . S
C924 C922 1.356 . S
C924 C925 1.348 . S
C925 C920 1.353 . S
C925 C924 1.348 . S
C925 H977 0.929 . S
H926 C920 0.930 . S
H927 C923 0.930 . S
C928 N929 1.314 . S
C928 C930 1.353 . S
C928 H934 0.930 . S
N929 Li905 1.990 . S
N929 C928 1.314 . S
N929 C932 1.279 . S
C930 C928 1.353 . S
C930 C933 1.348 . S
C930 H978 0.929 . S
C931 C932 1.358 . S
C931 C933 1.356 . S
C931 H979 0.930 . S
C932 N929 1.279 . S
C932 C931 1.358 . S
C932 H935 0.930 . S
C933 C930 1.348 . S
C933 C931 1.356 . S
H934 C928 0.930 . S
H935 C932 0.930 . S
C936 C938 1.348 1_545 S
C936 C939 1.356 . S
C936 O966 1.325 . S
N937 C940 1.314 1_545 S
N937 C941 1.279 . S
C938 C936 1.348 1_565 S
C938 C940 1.353 . S
C938 H980 0.929 . S
C939 C936 1.356 . S
C939 C941 1.358 . S
C939 H981 0.930 . S
C940 N937 1.314 1_565 S
C940 C938 1.353 . S
C940 H982 0.930 . S
C941 N937 1.279 . S
C941 C939 1.358 . S
C941 H983 0.930 . S
C942 C943 1.348 . S
C942 C944 1.356 . S
C942 O967 1.325 . S
C943 C942 1.348 . S
C943 C945 1.353 . S
C943 H984 0.929 . S
C944 C942 1.356 . S
C944 C946 1.358 . S
C944 H985 0.930 . S
C945 C943 1.353 . S
C945 N947 1.314 . S
C945 H986 0.930 . S
C946 C944 1.358 . S
C946 N947 1.279 . S
C946 H987 0.930 . S
N947 C945 1.314 . S
N947 C946 1.279 . S
C948 C950 1.353 . S
C948 N951 1.314 . S
C948 H954 0.930 . S
C949 N951 1.279 . S
C949 C952 1.358 . S
C949 H955 0.930 . S
C950 C948 1.353 . S
C950 C953 1.348 . S
C950 H988 0.929 . S
N951 Li906 1.990 . S
N951 C948 1.314 . S
N951 C949 1.279 . S
C952 C949 1.358 . S
C952 C953 1.356 . S
C952 H989 0.930 . S
C953 C950 1.348 . S
C953 C952 1.356 . S
H954 C948 0.930 . S
H955 C949 0.930 . S
C956 N957 1.314 . S
C956 C958 1.353 . S
C956 H962 0.930 . S
N957 Li907 1.990 . S
N957 C956 1.314 . S
N957 C960 1.279 . S
C958 C956 1.353 . S
C958 C961 1.348 . S
C958 H990 0.929 . S
C959 C960 1.358 . S
C959 C961 1.356 . S
C959 H991 0.930 . S
C960 N957 1.279 . S
C960 C959 1.358 . S
C960 H963 0.930 . S
C961 C958 1.348 . S
C961 C959 1.356 . S
H962 C956 0.930 . S
H963 C960 0.930 . S
O964 Li904 1.956 . S
O964 Li905 1.970 1_545 S
O964 Li906 1.961 . S
O964 C908 1.325 . S
O965 Li904 1.970 1_565 S
O965 Li905 1.956 . S
O965 Li907 1.961 . S
O965 C914 1.325 . S
O966 Li904 1.961 . S
O966 Li906 1.956 . S
O966 Li907 1.970 1_545 S
O966 C936 1.325 . S
O967 Li905 1.961 . S
O967 Li906 1.970 1_565 S
O967 Li907 1.956 . S
O967 C942 1.325 . S
H968 C910 0.929 . S
H969 C911 0.930 . S
H970 C912 0.930 . S
H971 C913 0.930 . S
H972 C915 0.930 . S
H973 C917 0.929 . S
H974 C918 0.930 . S
H975 C919 0.930 . S
H976 C922 0.930 . S
H977 C925 0.929 . S
H978 C930 0.929 . S
H979 C931 0.930 . S
H980 C938 0.929 . S
H981 C939 0.930 . S
H982 C940 0.930 . S
H983 C941 0.930 . S
H984 C943 0.929 . S
H985 C944 0.930 . S
H986 C945 0.930 . S
H987 C946 0.930 . S
H988 C950 0.929 . S
H989 C952 0.930 . S
H990 C958 0.929 . S
H991 C959 0.930 . S
Li992 N1009 1.990 . S
Li992 O1052 1.956 . S
Li992 O1053 1.970 . S
Li992 O1054 1.961 . S
Li993 N1017 1.990 . S
Li993 O1052 1.970 . S
Li993 O1053 1.956 . S
Li993 O1055 1.961 . S
Li994 N1039 1.990 . S
Li994 O1052 1.961 . S
Li994 O1054 1.956 . S
Li994 O1055 1.970 . S
Li995 N1045 1.990 . S
Li995 O1053 1.961 . S
Li995 O1054 1.970 . S
Li995 O1055 1.956 . S
C996 C998 1.348 . S
C996 C999 1.356 . S
C996 O1052 1.325 . S
N997 C1000 1.314 . S
N997 C1001 1.279 . S
C998 C996 1.348 . S
C998 C1000 1.353 . S
C998 H1056 0.929 . S
C999 C996 1.356 . S
C999 C1001 1.358 . S
C999 H1057 0.930 . S
C1000 N997 1.314 . S
C1000 C998 1.353 . S
C1000 H1058 0.930 . S
C1001 N997 1.279 . S
C1001 C999 1.358 . S
C1001 H1059 0.930 . S
C1002 C1005 1.348 . S
C1002 C1006 1.356 . S
C1002 O1053 1.325 . S
C1003 N1004 1.279 . S
C1003 C1006 1.358 . S
C1003 H1060 0.930 . S
N1004 C1003 1.279 . S
N1004 C1007 1.314 . S
C1005 C1002 1.348 . S
C1005 C1007 1.353 . S
C1005 H1061 0.929 . S
C1006 C1002 1.356 . S
C1006 C1003 1.358 . S
C1006 H1062 0.930 . S
C1007 N1004 1.314 . S
C1007 C1005 1.353 . S
C1007 H1063 0.930 . S
C1008 N1009 1.314 . S
C1008 C1013 1.353 . S
C1008 H1014 0.930 . S
N1009 Li992 1.990 . S
N1009 C1008 1.314 . S
N1009 C1011 1.279 . S
C1010 C1011 1.358 . S
C1010 C1012 1.356 . S
C1010 H1064 0.930 . S
C1011 N1009 1.279 . S
C1011 C1010 1.358 . S
C1011 H1015 0.930 . S
C1012 C1010 1.356 . S
C1012 C1013 1.348 . S
C1013 C1008 1.353 . S
C1013 C1012 1.348 . S
C1013 H1065 0.929 . S
H1014 C1008 0.930 . S
H1015 C1011 0.930 . S
C1016 N1017 1.314 . S
C1016 C1018 1.353 . S
C1016 H1022 0.930 . S
N1017 Li993 1.990 . S
N1017 C1016 1.314 . S
N1017 C1020 1.279 . S
C1018 C1016 1.353 . S
C1018 C1021 1.348 . S
C1018 H1066 0.929 . S
C1019 C1020 1.358 . S
C1019 C1021 1.356 . S
C1019 H1067 0.930 . S
C1020 N1017 1.279 . S
C1020 C1019 1.358 . S
C1020 H1023 0.930 . S
C1021 C1018 1.348 . S
C1021 C1019 1.356 . S
H1022 C1016 0.930 . S
H1023 C1020 0.930 . S
C1024 C1026 1.348 . S
C1024 C1027 1.356 . S
C1024 O1054 1.325 . S
N1025 C1028 1.314 . S
N1025 C1029 1.279 . S
C1026 C1024 1.348 . S
C1026 C1028 1.353 . S
C1026 H1068 0.929 . S
C1027 C1024 1.356 . S
C1027 C1029 1.358 . S
C1027 H1069 0.930 . S
C1028 N1025 1.314 . S
C1028 C1026 1.353 . S
C1028 H1070 0.930 . S
C1029 N1025 1.279 . S
C1029 C1027 1.358 . S
C1029 H1071 0.930 . S
C1030 C1031 1.348 . S
C1030 C1032 1.356 . S
C1030 O1055 1.325 . S
C1031 C1030 1.348 . S
C1031 C1033 1.353 . S
C1031 H1072 0.929 . S
C1032 C1030 1.356 . S
C1032 C1034 1.358 . S
C1032 H1073 0.930 . S
C1033 C1031 1.353 . S
C1033 N1035 1.314 . S
C1033 H1074 0.930 . S
C1034 C1032 1.358 . S
C1034 N1035 1.279 . S
C1034 H1075 0.930 . S
N1035 C1033 1.314 . S
N1035 C1034 1.279 . S
C1036 C1038 1.353 . S
C1036 N1039 1.314 . S
C1036 H1042 0.930 . S
C1037 N1039 1.279 . S
C1037 C1040 1.358 . S
C1037 H1043 0.930 . S
C1038 C1036 1.353 . S
C1038 C1041 1.348 . S
C1038 H1076 0.929 . S
N1039 Li994 1.990 . S
N1039 C1036 1.314 . S
N1039 C1037 1.279 . S
C1040 C1037 1.358 . S
C1040 C1041 1.356 . S
C1040 H1077 0.930 . S
C1041 C1038 1.348 . S
C1041 C1040 1.356 . S
H1042 C1036 0.930 . S
H1043 C1037 0.930 . S
C1044 N1045 1.314 . S
C1044 C1046 1.353 . S
C1044 H1050 0.930 . S
N1045 Li995 1.990 . S
N1045 C1044 1.314 . S
N1045 C1048 1.279 . S
C1046 C1044 1.353 . S
C1046 C1049 1.348 . S
C1046 H1078 0.929 . S
C1047 C1048 1.358 . S
C1047 C1049 1.356 . S
C1047 H1079 0.930 . S
C1048 N1045 1.279 . S
C1048 C1047 1.358 . S
C1048 H1051 0.930 . S
C1049 C1046 1.348 . S
C1049 C1047 1.356 . S
H1050 C1044 0.930 . S
H1051 C1048 0.930 . S
O1052 Li992 1.956 . S
O1052 Li993 1.970 . S
O1052 Li994 1.961 . S
O1052 C996 1.325 . S
O1053 Li992 1.970 . S
O1053 Li993 1.956 . S
O1053 Li995 1.961 . S
O1053 C1002 1.325 . S
O1054 Li992 1.961 . S
O1054 Li994 1.956 . S
O1054 Li995 1.970 . S
O1054 C1024 1.325 . S
O1055 Li993 1.961 . S
O1055 Li994 1.970 . S
O1055 Li995 1.956 . S
O1055 C1030 1.325 . S
H1056 C998 0.929 . S
H1057 C999 0.930 . S
H1058 C1000 0.930 . S
H1059 C1001 0.930 . S
H1060 C1003 0.930 . S
H1061 C1005 0.929 . S
H1062 C1006 0.930 . S
H1063 C1007 0.930 . S
H1064 C1010 0.930 . S
H1065 C1013 0.929 . S
H1066 C1018 0.929 . S
H1067 C1019 0.930 . S
H1068 C1026 0.929 . S
H1069 C1027 0.930 . S
H1070 C1028 0.930 . S
H1071 C1029 0.930 . S
H1072 C1031 0.929 . S
H1073 C1032 0.930 . S
H1074 C1033 0.930 . S
H1075 C1034 0.930 . S
H1076 C1038 0.929 . S
H1077 C1040 0.930 . S
H1078 C1046 0.929 . S
H1079 C1047 0.930 . S
Li1080 N1097 1.990 . S
Li1080 O1140 1.956 . S
Li1080 O1141 1.970 . S
Li1080 O1142 1.961 . S
Li1081 N1105 1.990 . S
Li1081 O1140 1.970 . S
Li1081 O1141 1.956 . S
Li1081 O1143 1.961 . S
Li1082 N1127 1.990 . S
Li1082 O1140 1.961 . S
Li1082 O1142 1.956 . S
Li1082 O1143 1.970 . S
Li1083 N1133 1.990 . S
Li1083 O1141 1.961 . S
Li1083 O1142 1.970 . S
Li1083 O1143 1.956 . S
C1084 C1086 1.348 . S
C1084 C1087 1.356 . S
C1084 O1140 1.325 . S
N1085 C1088 1.314 . S
N1085 C1089 1.279 . S
C1086 C1084 1.348 . S
C1086 C1088 1.353 . S
C1086 H1144 0.929 . S
C1087 C1084 1.356 . S
C1087 C1089 1.358 . S
C1087 H1145 0.930 . S
C1088 N1085 1.314 . S
C1088 C1086 1.353 . S
C1088 H1146 0.930 . S
C1089 N1085 1.279 . S
C1089 C1087 1.358 . S
C1089 H1147 0.930 . S
C1090 C1093 1.348 . S
C1090 C1094 1.356 . S
C1090 O1141 1.325 . S
C1091 N1092 1.279 . S
C1091 C1094 1.358 . S
C1091 H1148 0.930 . S
N1092 C1091 1.279 . S
N1092 C1095 1.314 . S
C1093 C1090 1.348 . S
C1093 C1095 1.353 . S
C1093 H1149 0.929 . S
C1094 C1090 1.356 . S
C1094 C1091 1.358 . S
C1094 H1150 0.930 . S
C1095 N1092 1.314 . S
C1095 C1093 1.353 . S
C1095 H1151 0.930 . S
C1096 N1097 1.314 . S
C1096 C1101 1.353 . S
C1096 H1102 0.930 . S
N1097 Li1080 1.990 . S
N1097 C1096 1.314 . S
N1097 C1099 1.279 . S
C1098 C1099 1.358 . S
C1098 C1100 1.356 . S
C1098 H1152 0.930 . S
C1099 N1097 1.279 . S
C1099 C1098 1.358 . S
C1099 H1103 0.930 . S
C1100 C1098 1.356 . S
C1100 C1101 1.348 . S
C1101 C1096 1.353 . S
C1101 C1100 1.348 . S
C1101 H1153 0.929 . S
H1102 C1096 0.930 . S
H1103 C1099 0.930 . S
C1104 N1105 1.314 . S
C1104 C1106 1.353 . S
C1104 H1110 0.930 . S
N1105 Li1081 1.990 . S
N1105 C1104 1.314 . S
N1105 C1108 1.279 . S
C1106 C1104 1.353 . S
C1106 C1109 1.348 . S
C1106 H1154 0.929 . S
C1107 C1108 1.358 . S
C1107 C1109 1.356 . S
C1107 H1155 0.930 . S
C1108 N1105 1.279 . S
C1108 C1107 1.358 . S
C1108 H1111 0.930 . S
C1109 C1106 1.348 . S
C1109 C1107 1.356 . S
H1110 C1104 0.930 . S
H1111 C1108 0.930 . S
C1112 C1114 1.348 . S
C1112 C1115 1.356 . S
C1112 O1142 1.325 . S
N1113 C1116 1.314 . S
N1113 C1117 1.279 . S
C1114 C1112 1.348 . S
C1114 C1116 1.353 . S
C1114 H1156 0.929 . S
C1115 C1112 1.356 . S
C1115 C1117 1.358 . S
C1115 H1157 0.930 . S
C1116 N1113 1.314 . S
C1116 C1114 1.353 . S
C1116 H1158 0.930 . S
C1117 N1113 1.279 . S
C1117 C1115 1.358 . S
C1117 H1159 0.930 . S
C1118 C1119 1.348 . S
C1118 C1120 1.356 . S
C1118 O1143 1.325 . S
C1119 C1118 1.348 . S
C1119 C1121 1.353 . S
C1119 H1160 0.929 . S
C1120 C1118 1.356 . S
C1120 C1122 1.358 . S
C1120 H1161 0.930 . S
C1121 C1119 1.353 . S
C1121 N1123 1.314 . S
C1121 H1162 0.930 . S
C1122 C1120 1.358 . S
C1122 N1123 1.279 . S
C1122 H1163 0.930 . S
N1123 C1121 1.314 . S
N1123 C1122 1.279 . S
C1124 C1126 1.353 . S
C1124 N1127 1.314 . S
C1124 H1130 0.930 . S
C1125 N1127 1.279 . S
C1125 C1128 1.358 . S
C1125 H1131 0.930 . S
C1126 C1124 1.353 . S
C1126 C1129 1.348 . S
C1126 H1164 0.929 . S
N1127 Li1082 1.990 . S
N1127 C1124 1.314 . S
N1127 C1125 1.279 . S
C1128 C1125 1.358 . S
C1128 C1129 1.356 . S
C1128 H1165 0.930 . S
C1129 C1126 1.348 . S
C1129 C1128 1.356 . S
H1130 C1124 0.930 . S
H1131 C1125 0.930 . S
C1132 N1133 1.314 . S
C1132 C1134 1.353 . S
C1132 H1138 0.930 . S
N1133 Li1083 1.990 . S
N1133 C1132 1.314 . S
N1133 C1136 1.279 . S
C1134 C1132 1.353 . S
C1134 C1137 1.348 . S
C1134 H1166 0.929 . S
C1135 C1136 1.358 . S
C1135 C1137 1.356 . S
C1135 H1167 0.930 . S
C1136 N1133 1.279 . S
C1136 C1135 1.358 . S
C1136 H1139 0.930 . S
C1137 C1134 1.348 . S
C1137 C1135 1.356 . S
H1138 C1132 0.930 . S
H1139 C1136 0.930 . S
O1140 Li1080 1.956 . S
O1140 Li1081 1.970 . S
O1140 Li1082 1.961 . S
O1140 C1084 1.325 . S
O1141 Li1080 1.970 . S
O1141 Li1081 1.956 . S
O1141 Li1083 1.961 . S
O1141 C1090 1.325 . S
O1142 Li1080 1.961 . S
O1142 Li1082 1.956 . S
O1142 Li1083 1.970 . S
O1142 C1112 1.325 . S
O1143 Li1081 1.961 . S
O1143 Li1082 1.970 . S
O1143 Li1083 1.956 . S
O1143 C1118 1.325 . S
H1144 C1086 0.929 . S
H1145 C1087 0.930 . S
H1146 C1088 0.930 . S
H1147 C1089 0.930 . S
H1148 C1091 0.930 . S
H1149 C1093 0.929 . S
H1150 C1094 0.930 . S
H1151 C1095 0.930 . S
H1152 C1098 0.930 . S
H1153 C1101 0.929 . S
H1154 C1106 0.929 . S
H1155 C1107 0.930 . S
H1156 C1114 0.929 . S
H1157 C1115 0.930 . S
H1158 C1116 0.930 . S
H1159 C1117 0.930 . S
H1160 C1119 0.929 . S
H1161 C1120 0.930 . S
H1162 C1121 0.930 . S
H1163 C1122 0.930 . S
H1164 C1126 0.929 . S
H1165 C1128 0.930 . S
H1166 C1134 0.929 . S
H1167 C1135 0.930 . S
Li1168 N1185 1.990 . S
Li1168 O1228 1.956 . S
Li1168 O1229 1.970 . S
Li1168 O1230 1.961 . S
Li1169 N1193 1.990 . S
Li1169 O1228 1.970 . S
Li1169 O1229 1.956 . S
Li1169 O1231 1.961 . S
Li1170 N1215 1.990 . S
Li1170 O1228 1.961 . S
Li1170 O1230 1.956 . S
Li1170 O1231 1.970 . S
Li1171 N1221 1.990 . S
Li1171 O1229 1.961 . S
Li1171 O1230 1.970 . S
Li1171 O1231 1.956 . S
C1172 C1174 1.348 . S
C1172 C1175 1.356 . S
C1172 O1228 1.325 . S
N1173 C1176 1.314 . S
N1173 C1177 1.279 . S
C1174 C1172 1.348 . S
C1174 C1176 1.353 . S
C1174 H1232 0.929 . S
C1175 C1172 1.356 . S
C1175 C1177 1.358 . S
C1175 H1233 0.930 . S
C1176 N1173 1.314 . S
C1176 C1174 1.353 . S
C1176 H1234 0.930 . S
C1177 N1173 1.279 . S
C1177 C1175 1.358 . S
C1177 H1235 0.930 . S
C1178 C1181 1.348 . S
C1178 C1182 1.356 . S
C1178 O1229 1.325 . S
C1179 N1180 1.279 . S
C1179 C1182 1.358 . S
C1179 H1236 0.930 . S
N1180 C1179 1.279 . S
N1180 C1183 1.314 . S
C1181 C1178 1.348 . S
C1181 C1183 1.353 . S
C1181 H1237 0.929 . S
C1182 C1178 1.356 . S
C1182 C1179 1.358 . S
C1182 H1238 0.930 . S
C1183 N1180 1.314 . S
C1183 C1181 1.353 . S
C1183 H1239 0.930 . S
C1184 N1185 1.314 . S
C1184 C1189 1.353 . S
C1184 H1190 0.930 . S
N1185 Li1168 1.990 . S
N1185 C1184 1.314 . S
N1185 C1187 1.279 . S
C1186 C1187 1.358 . S
C1186 C1188 1.356 . S
C1186 H1240 0.930 . S
C1187 N1185 1.279 . S
C1187 C1186 1.358 . S
C1187 H1191 0.930 . S
C1188 C1186 1.356 . S
C1188 C1189 1.348 . S
C1189 C1184 1.353 . S
C1189 C1188 1.348 . S
C1189 H1241 0.929 . S
H1190 C1184 0.930 . S
H1191 C1187 0.930 . S
C1192 N1193 1.314 . S
C1192 C1194 1.353 . S
C1192 H1198 0.930 . S
N1193 Li1169 1.990 . S
N1193 C1192 1.314 . S
N1193 C1196 1.279 . S
C1194 C1192 1.353 . S
C1194 C1197 1.348 . S
C1194 H1242 0.929 . S
C1195 C1196 1.358 . S
C1195 C1197 1.356 . S
C1195 H1243 0.930 . S
C1196 N1193 1.279 . S
C1196 C1195 1.358 . S
C1196 H1199 0.930 . S
C1197 C1194 1.348 . S
C1197 C1195 1.356 . S
H1198 C1192 0.930 . S
H1199 C1196 0.930 . S
C1200 C1202 1.348 . S
C1200 C1203 1.356 . S
C1200 O1230 1.325 . S
N1201 C1204 1.314 . S
N1201 C1205 1.279 . S
C1202 C1200 1.348 . S
C1202 C1204 1.353 . S
C1202 H1244 0.929 . S
C1203 C1200 1.356 . S
C1203 C1205 1.358 . S
C1203 H1245 0.930 . S
C1204 N1201 1.314 . S
C1204 C1202 1.353 . S
C1204 H1246 0.930 . S
C1205 N1201 1.279 . S
C1205 C1203 1.358 . S
C1205 H1247 0.930 . S
C1206 C1207 1.348 . S
C1206 C1208 1.356 . S
C1206 O1231 1.325 . S
C1207 C1206 1.348 . S
C1207 C1209 1.353 . S
C1207 H1248 0.929 . S
C1208 C1206 1.356 . S
C1208 C1210 1.358 . S
C1208 H1249 0.930 . S
C1209 C1207 1.353 . S
C1209 N1211 1.314 . S
C1209 H1250 0.930 . S
C1210 C1208 1.358 . S
C1210 N1211 1.279 . S
C1210 H1251 0.930 . S
N1211 C1209 1.314 . S
N1211 C1210 1.279 . S
C1212 C1214 1.353 . S
C1212 N1215 1.314 . S
C1212 H1218 0.930 . S
C1213 N1215 1.279 . S
C1213 C1216 1.358 . S
C1213 H1219 0.930 . S
C1214 C1212 1.353 . S
C1214 C1217 1.348 . S
C1214 H1252 0.929 . S
N1215 Li1170 1.990 . S
N1215 C1212 1.314 . S
N1215 C1213 1.279 . S
C1216 C1213 1.358 . S
C1216 C1217 1.356 . S
C1216 H1253 0.930 . S
C1217 C1214 1.348 . S
C1217 C1216 1.356 . S
H1218 C1212 0.930 . S
H1219 C1213 0.930 . S
C1220 N1221 1.314 . S
C1220 C1222 1.353 . S
C1220 H1226 0.930 . S
N1221 Li1171 1.990 . S
N1221 C1220 1.314 . S
N1221 C1224 1.279 . S
C1222 C1220 1.353 . S
C1222 C1225 1.348 . S
C1222 H1254 0.929 . S
C1223 C1224 1.358 . S
C1223 C1225 1.356 . S
C1223 H1255 0.930 . S
C1224 N1221 1.279 . S
C1224 C1223 1.358 . S
C1224 H1227 0.930 . S
C1225 C1222 1.348 . S
C1225 C1223 1.356 . S
H1226 C1220 0.930 . S
H1227 C1224 0.930 . S
O1228 Li1168 1.956 . S
O1228 Li1169 1.970 . S
O1228 Li1170 1.961 . S
O1228 C1172 1.325 . S
O1229 Li1168 1.970 . S
O1229 Li1169 1.956 . S
O1229 Li1171 1.961 . S
O1229 C1178 1.325 . S
O1230 Li1168 1.961 . S
O1230 Li1170 1.956 . S
O1230 Li1171 1.970 . S
O1230 C1200 1.325 . S
O1231 Li1169 1.961 . S
O1231 Li1170 1.970 . S
O1231 Li1171 1.956 . S
O1231 C1206 1.325 . S
H1232 C1174 0.929 . S
H1233 C1175 0.930 . S
H1234 C1176 0.930 . S
H1235 C1177 0.930 . S
H1236 C1179 0.930 . S
H1237 C1181 0.929 . S
H1238 C1182 0.930 . S
H1239 C1183 0.930 . S
H1240 C1186 0.930 . S
H1241 C1189 0.929 . S
H1242 C1194 0.929 . S
H1243 C1195 0.930 . S
H1244 C1202 0.929 . S
H1245 C1203 0.930 . S
H1246 C1204 0.930 . S
H1247 C1205 0.930 . S
H1248 C1207 0.929 . S
H1249 C1208 0.930 . S
H1250 C1209 0.930 . S
H1251 C1210 0.930 . S
H1252 C1214 0.929 . S
H1253 C1216 0.930 . S
H1254 C1222 0.929 . S
H1255 C1223 0.930 . S
Li1256 N1273 1.990 . S
Li1256 O1316 1.956 . S
Li1256 O1317 1.970 1_565 S
Li1256 O1318 1.961 . S
Li1257 N1281 1.990 . S
Li1257 O1316 1.970 1_545 S
Li1257 O1317 1.956 . S
Li1257 O1319 1.961 . S
Li1258 N1303 1.990 . S
Li1258 O1316 1.961 . S
Li1258 O1318 1.956 . S
Li1258 O1319 1.970 1_565 S
Li1259 N1309 1.990 . S
Li1259 O1317 1.961 . S
Li1259 O1318 1.970 1_545 S
Li1259 O1319 1.956 . S
C1260 C1262 1.348 . S
C1260 C1263 1.356 . S
C1260 O1316 1.325 . S
N1261 C1264 1.314 . S
N1261 C1265 1.279 . S
C1262 C1260 1.348 . S
C1262 C1264 1.353 . S
C1262 H1320 0.929 . S
C1263 C1260 1.356 . S
C1263 C1265 1.358 . S
C1263 H1321 0.930 . S
C1264 N1261 1.314 . S
C1264 C1262 1.353 . S
C1264 H1322 0.930 . S
C1265 N1261 1.279 . S
C1265 C1263 1.358 . S
C1265 H1323 0.930 . S
C1266 C1269 1.348 1_545 S
C1266 C1270 1.356 . S
C1266 O1317 1.325 . S
C1267 N1268 1.279 . S
C1267 C1270 1.358 . S
C1267 H1324 0.930 . S
N1268 C1267 1.279 . S
N1268 C1271 1.314 1_545 S
C1269 C1266 1.348 1_565 S
C1269 C1271 1.353 . S
C1269 H1325 0.929 . S
C1270 C1266 1.356 . S
C1270 C1267 1.358 . S
C1270 H1326 0.930 . S
C1271 N1268 1.314 1_565 S
C1271 C1269 1.353 . S
C1271 H1327 0.930 . S
C1272 N1273 1.314 . S
C1272 C1277 1.353 . S
C1272 H1278 0.930 . S
N1273 Li1256 1.990 . S
N1273 C1272 1.314 . S
N1273 C1275 1.279 . S
C1274 C1275 1.358 . S
C1274 C1276 1.356 . S
C1274 H1328 0.930 . S
C1275 N1273 1.279 . S
C1275 C1274 1.358 . S
C1275 H1279 0.930 . S
C1276 C1274 1.356 . S
C1276 C1277 1.348 . S
C1277 C1272 1.353 . S
C1277 C1276 1.348 . S
C1277 H1329 0.929 . S
H1278 C1272 0.930 . S
H1279 C1275 0.930 . S
C1280 N1281 1.314 . S
C1280 C1282 1.353 . S
C1280 H1286 0.930 . S
N1281 Li1257 1.990 . S
N1281 C1280 1.314 . S
N1281 C1284 1.279 . S
C1282 C1280 1.353 . S
C1282 C1285 1.348 . S
C1282 H1330 0.929 . S
C1283 C1284 1.358 . S
C1283 C1285 1.356 . S
C1283 H1331 0.930 . S
C1284 N1281 1.279 . S
C1284 C1283 1.358 . S
C1284 H1287 0.930 . S
C1285 C1282 1.348 . S
C1285 C1283 1.356 . S
H1286 C1280 0.930 . S
H1287 C1284 0.930 . S
C1288 C1290 1.348 1_565 S
C1288 C1291 1.356 . S
C1288 O1318 1.325 . S
N1289 C1292 1.314 1_565 S
N1289 C1293 1.279 . S
C1290 C1288 1.348 1_545 S
C1290 C1292 1.353 . S
C1290 H1332 0.929 . S
C1291 C1288 1.356 . S
C1291 C1293 1.358 . S
C1291 H1333 0.930 . S
C1292 N1289 1.314 1_545 S
C1292 C1290 1.353 . S
C1292 H1334 0.930 . S
C1293 N1289 1.279 . S
C1293 C1291 1.358 . S
C1293 H1335 0.930 . S
C1294 C1295 1.348 . S
C1294 C1296 1.356 . S
C1294 O1319 1.325 . S
C1295 C1294 1.348 . S
C1295 C1297 1.353 . S
C1295 H1336 0.929 . S
C1296 C1294 1.356 . S
C1296 C1298 1.358 . S
C1296 H1337 0.930 . S
C1297 C1295 1.353 . S
C1297 N1299 1.314 . S
C1297 H1338 0.930 . S
C1298 C1296 1.358 . S
C1298 N1299 1.279 . S
C1298 H1339 0.930 . S
N1299 C1297 1.314 . S
N1299 C1298 1.279 . S
C1300 C1302 1.353 . S
C1300 N1303 1.314 . S
C1300 H1306 0.930 . S
C1301 N1303 1.279 . S
C1301 C1304 1.358 . S
C1301 H1307 0.930 . S
C1302 C1300 1.353 . S
C1302 C1305 1.348 . S
C1302 H1340 0.929 . S
N1303 Li1258 1.990 . S
N1303 C1300 1.314 . S
N1303 C1301 1.279 . S
C1304 C1301 1.358 . S
C1304 C1305 1.356 . S
C1304 H1341 0.930 . S
C1305 C1302 1.348 . S
C1305 C1304 1.356 . S
H1306 C1300 0.930 . S
H1307 C1301 0.930 . S
C1308 N1309 1.314 . S
C1308 C1310 1.353 . S
C1308 H1314 0.930 . S
N1309 Li1259 1.990 . S
N1309 C1308 1.314 . S
N1309 C1312 1.279 . S
C1310 C1308 1.353 . S
C1310 C1313 1.348 . S
C1310 H1342 0.929 . S
C1311 C1312 1.358 . S
C1311 C1313 1.356 . S
C1311 H1343 0.930 . S
C1312 N1309 1.279 . S
C1312 C1311 1.358 . S
C1312 H1315 0.930 . S
C1313 C1310 1.348 . S
C1313 C1311 1.356 . S
H1314 C1308 0.930 . S
H1315 C1312 0.930 . S
O1316 Li1256 1.956 . S
O1316 Li1257 1.970 1_565 S
O1316 Li1258 1.961 . S
O1316 C1260 1.325 . S
O1317 Li1256 1.970 1_545 S
O1317 Li1257 1.956 . S
O1317 Li1259 1.961 . S
O1317 C1266 1.325 . S
O1318 Li1256 1.961 . S
O1318 Li1258 1.956 . S
O1318 Li1259 1.970 1_565 S
O1318 C1288 1.325 . S
O1319 Li1257 1.961 . S
O1319 Li1258 1.970 1_545 S
O1319 Li1259 1.956 . S
O1319 C1294 1.325 . S
H1320 C1262 0.929 . S
H1321 C1263 0.930 . S
H1322 C1264 0.930 . S
H1323 C1265 0.930 . S
H1324 C1267 0.930 . S
H1325 C1269 0.929 . S
H1326 C1270 0.930 . S
H1327 C1271 0.930 . S
H1328 C1274 0.930 . S
H1329 C1277 0.929 . S
H1330 C1282 0.929 . S
H1331 C1283 0.930 . S
H1332 C1290 0.929 . S
H1333 C1291 0.930 . S
H1334 C1292 0.930 . S
H1335 C1293 0.930 . S
H1336 C1295 0.929 . S
H1337 C1296 0.930 . S
H1338 C1297 0.930 . S
H1339 C1298 0.930 . S
H1340 C1302 0.929 . S
H1341 C1304 0.930 . S
H1342 C1310 0.929 . S
H1343 C1311 0.930 . S
Li1344 N1361 1.990 . S
Li1344 O1404 1.956 . S
Li1344 O1405 1.985 . S
Li1344 O1406 1.961 . S
Li1345 N1369 1.991 1_455 S
Li1345 O1404 1.967 . S
Li1345 O1405 1.956 . S
Li1345 O1407 1.963 1_455 S
Li1346 N1391 1.990 . S
Li1346 O1404 1.961 . S
Li1346 O1406 1.956 . S
Li1346 O1407 1.970 1_455 S
Li1347 N1397 1.990 . S
Li1347 O1405 1.950 1_655 S
Li1347 O1406 1.970 1_655 S
Li1347 O1407 1.956 . S
C1348 C1350 1.348 . S
C1348 C1351 1.356 . S
C1348 O1404 1.325 . S
N1349 C1352 1.314 . S
N1349 C1353 1.279 . S
C1350 C1348 1.348 . S
C1350 C1352 1.353 . S
C1350 H1408 0.929 . S
C1351 C1348 1.356 . S
C1351 C1353 1.358 . S
C1351 H1409 0.930 . S
C1352 N1349 1.314 . S
C1352 C1350 1.353 . S
C1352 H1410 0.930 . S
C1353 N1349 1.279 . S
C1353 C1351 1.358 . S
C1353 H1411 0.930 . S
C1354 C1357 1.348 1_655 S
C1354 C1358 1.356 . S
C1354 O1405 1.322 1_655 S
C1355 N1356 1.279 . S
C1355 C1358 1.358 . S
C1355 H1412 0.930 . S
N1356 C1355 1.279 . S
N1356 C1359 1.314 1_655 S
C1357 C1354 1.348 1_455 S
C1357 C1359 1.353 . S
C1357 H1413 0.929 . S
C1358 C1354 1.356 . S
C1358 C1355 1.358 . S
C1358 H1414 0.930 . S
C1359 N1356 1.314 1_455 S
C1359 C1357 1.353 . S
C1359 H1415 0.930 . S
C1360 N1361 1.314 . S
C1360 C1365 1.353 . S
C1360 H1366 0.930 . S
N1361 Li1344 1.990 . S
N1361 C1360 1.314 . S
N1361 C1363 1.279 . S
C1362 C1363 1.358 . S
C1362 C1364 1.356 . S
C1362 H1416 0.930 . S
C1363 N1361 1.279 . S
C1363 C1362 1.358 . S
C1363 H1367 0.930 . S
C1364 C1362 1.356 . S
C1364 C1365 1.348 . S
C1365 C1360 1.353 . S
C1365 C1364 1.348 . S
C1365 H1417 0.929 . S
H1366 C1360 0.930 . S
H1367 C1363 0.930 . S
C1368 N1369 1.314 . S
C1368 C1370 1.353 . S
C1368 H1374 0.930 . S
N1369 Li1345 1.991 1_655 S
N1369 C1368 1.314 . S
N1369 C1372 1.279 . S
C1370 C1368 1.353 . S
C1370 C1373 1.348 . S
C1370 H1418 0.929 . S
C1371 C1372 1.358 . S
C1371 C1373 1.356 . S
C1371 H1419 0.930 . S
C1372 N1369 1.279 . S
C1372 C1371 1.358 . S
C1372 H1375 0.930 1_655 S
C1373 C1370 1.348 . S
C1373 C1371 1.356 . S
H1374 C1368 0.930 . S
H1375 C1372 0.930 1_455 S
C1376 C1378 1.348 1_455 S
C1376 C1379 1.356 . S
C1376 O1406 1.325 . S
N1377 C1380 1.314 1_455 S
N1377 C1381 1.279 . S
C1378 C1376 1.348 1_655 S
C1378 C1380 1.353 . S
C1378 H1420 0.929 . S
C1379 C1376 1.356 . S
C1379 C1381 1.358 . S
C1379 H1421 0.930 . S
C1380 N1377 1.314 1_655 S
C1380 C1378 1.353 . S
C1380 H1422 0.930 . S
C1381 N1377 1.279 . S
C1381 C1379 1.358 . S
C1381 H1423 0.930 . S
C1382 C1383 1.348 . S
C1382 C1384 1.356 . S
C1382 O1407 1.325 . S
C1383 C1382 1.348 . S
C1383 C1385 1.353 . S
C1383 H1424 0.929 . S
C1384 C1382 1.356 . S
C1384 C1386 1.358 . S
C1384 H1425 0.930 . S
C1385 C1383 1.353 . S
C1385 N1387 1.314 . S
C1385 H1426 0.930 . S
C1386 C1384 1.358 . S
C1386 N1387 1.279 . S
C1386 H1427 0.930 . S
N1387 C1385 1.314 . S
N1387 C1386 1.279 . S
C1388 C1390 1.353 . S
C1388 N1391 1.314 . S
C1388 H1394 0.930 . S
C1389 N1391 1.279 . S
C1389 C1392 1.358 . S
C1389 H1395 0.930 . S
C1390 C1388 1.353 . S
C1390 C1393 1.348 . S
C1390 H1428 0.929 . S
N1391 Li1346 1.990 . S
N1391 C1388 1.314 . S
N1391 C1389 1.279 . S
C1392 C1389 1.358 . S
C1392 C1393 1.356 . S
C1392 H1429 0.930 . S
C1393 C1390 1.348 . S
C1393 C1392 1.356 . S
H1394 C1388 0.930 . S
H1395 C1389 0.930 . S
C1396 N1397 1.314 . S
C1396 C1398 1.353 . S
C1396 H1402 0.930 . S
N1397 Li1347 1.990 . S
N1397 C1396 1.314 . S
N1397 C1400 1.279 . S
C1398 C1396 1.353 . S
C1398 C1401 1.348 . S
C1398 H1430 0.929 . S
C1399 C1400 1.358 . S
C1399 C1401 1.356 . S
C1399 H1431 0.930 . S
C1400 N1397 1.279 . S
C1400 C1399 1.358 . S
C1400 H1403 0.930 . S
C1401 C1398 1.348 . S
C1401 C1399 1.356 . S
H1402 C1396 0.930 . S
H1403 C1400 0.930 . S
O1404 Li1344 1.956 . S
O1404 Li1345 1.967 . S
O1404 Li1346 1.961 . S
O1404 C1348 1.325 . S
O1405 Li1344 1.985 . S
O1405 Li1345 1.956 . S
O1405 Li1347 1.950 1_455 S
O1405 C1354 1.322 1_455 S
O1406 Li1344 1.961 . S
O1406 Li1346 1.956 . S
O1406 Li1347 1.970 1_455 S
O1406 C1376 1.325 . S
O1407 Li1345 1.963 1_655 S
O1407 Li1346 1.970 1_655 S
O1407 Li1347 1.956 . S
O1407 C1382 1.325 . S
H1408 C1350 0.929 . S
H1409 C1351 0.930 . S
H1410 C1352 0.930 . S
H1411 C1353 0.930 . S
H1412 C1355 0.930 . S
H1413 C1357 0.929 . S
H1414 C1358 0.930 . S
H1415 C1359 0.930 . S
H1416 C1362 0.930 . S
H1417 C1365 0.929 . S
H1418 C1370 0.929 . S
H1419 C1371 0.930 . S
H1420 C1378 0.929 . S
H1421 C1379 0.930 . S
H1422 C1380 0.930 . S
H1423 C1381 0.930 . S
H1424 C1383 0.929 . S
H1425 C1384 0.930 . S
H1426 C1385 0.930 . S
H1427 C1386 0.930 . S
H1428 C1390 0.929 . S
H1429 C1392 0.930 . S
H1430 C1398 0.929 . S
H1431 C1399 0.930 . S
Li1432 N1449 1.990 . S
Li1432 O1492 1.956 . S
Li1432 O1493 1.970 . S
Li1432 O1494 1.961 . S
Li1433 N1457 1.990 . S
Li1433 O1492 1.970 . S
Li1433 O1493 1.956 . S
Li1433 O1495 1.961 . S
Li1434 N1479 1.990 . S
Li1434 O1492 1.961 . S
Li1434 O1494 1.956 . S
Li1434 O1495 1.970 . S
Li1435 N1485 1.990 . S
Li1435 O1493 1.961 . S
Li1435 O1494 1.970 . S
Li1435 O1495 1.956 . S
C1436 C1438 1.348 . S
C1436 C1439 1.356 . S
C1436 O1492 1.325 . S
N1437 C1440 1.314 . S
N1437 C1441 1.279 . S
C1438 C1436 1.348 . S
C1438 C1440 1.353 . S
C1438 H1496 0.929 . S
C1439 C1436 1.356 . S
C1439 C1441 1.358 . S
C1439 H1497 0.930 . S
C1440 N1437 1.314 . S
C1440 C1438 1.353 . S
C1440 H1498 0.930 . S
C1441 N1437 1.279 . S
C1441 C1439 1.358 . S
C1441 H1499 0.930 . S
C1442 C1445 1.348 . S
C1442 C1446 1.356 . S
C1442 O1493 1.325 . S
C1443 N1444 1.279 . S
C1443 C1446 1.358 . S
C1443 H1500 0.930 . S
N1444 C1443 1.279 . S
N1444 C1447 1.314 . S
C1445 C1442 1.348 . S
C1445 C1447 1.353 . S
C1445 H1501 0.929 . S
C1446 C1442 1.356 . S
C1446 C1443 1.358 . S
C1446 H1502 0.930 . S
C1447 N1444 1.314 . S
C1447 C1445 1.353 . S
C1447 H1503 0.930 . S
C1448 N1449 1.314 . S
C1448 C1453 1.353 . S
C1448 H1454 0.930 . S
N1449 Li1432 1.990 . S
N1449 C1448 1.314 . S
N1449 C1451 1.279 . S
C1450 C1451 1.358 . S
C1450 C1452 1.356 . S
C1450 H1504 0.930 . S
C1451 N1449 1.279 . S
C1451 C1450 1.358 . S
C1451 H1455 0.930 . S
C1452 C1450 1.356 . S
C1452 C1453 1.348 . S
C1453 C1448 1.353 . S
C1453 C1452 1.348 . S
C1453 H1505 0.929 . S
H1454 C1448 0.930 . S
H1455 C1451 0.930 . S
C1456 N1457 1.314 . S
C1456 C1458 1.353 . S
C1456 H1462 0.930 . S
N1457 Li1433 1.990 . S
N1457 C1456 1.314 . S
N1457 C1460 1.279 . S
C1458 C1456 1.353 . S
C1458 C1461 1.348 . S
C1458 H1506 0.929 . S
C1459 C1460 1.358 . S
C1459 C1461 1.356 . S
C1459 H1507 0.930 . S
C1460 N1457 1.279 . S
C1460 C1459 1.358 . S
C1460 H1463 0.930 . S
C1461 C1458 1.348 . S
C1461 C1459 1.356 . S
H1462 C1456 0.930 . S
H1463 C1460 0.930 . S
C1464 C1466 1.348 . S
C1464 C1467 1.356 . S
C1464 O1494 1.325 . S
N1465 C1468 1.314 . S
N1465 C1469 1.279 . S
C1466 C1464 1.348 . S
C1466 C1468 1.353 . S
C1466 H1508 0.929 . S
C1467 C1464 1.356 . S
C1467 C1469 1.358 . S
C1467 H1509 0.930 . S
C1468 N1465 1.314 . S
C1468 C1466 1.353 . S
C1468 H1510 0.930 . S
C1469 N1465 1.279 . S
C1469 C1467 1.358 . S
C1469 H1511 0.930 . S
C1470 C1471 1.348 . S
C1470 C1472 1.356 . S
C1470 O1495 1.325 . S
C1471 C1470 1.348 . S
C1471 C1473 1.353 . S
C1471 H1512 0.929 . S
C1472 C1470 1.356 . S
C1472 C1474 1.358 . S
C1472 H1513 0.930 . S
C1473 C1471 1.353 . S
C1473 N1475 1.314 . S
C1473 H1514 0.930 . S
C1474 C1472 1.358 . S
C1474 N1475 1.279 . S
C1474 H1515 0.930 . S
N1475 C1473 1.314 . S
N1475 C1474 1.279 . S
C1476 C1478 1.353 . S
C1476 N1479 1.314 . S
C1476 H1482 0.930 . S
C1477 N1479 1.279 . S
C1477 C1480 1.358 . S
C1477 H1483 0.930 . S
C1478 C1476 1.353 . S
C1478 C1481 1.348 . S
C1478 H1516 0.929 . S
N1479 Li1434 1.990 . S
N1479 C1476 1.314 . S
N1479 C1477 1.279 . S
C1480 C1477 1.358 . S
C1480 C1481 1.356 . S
C1480 H1517 0.930 . S
C1481 C1478 1.348 . S
C1481 C1480 1.356 . S
H1482 C1476 0.930 . S
H1483 C1477 0.930 . S
C1484 N1485 1.314 . S
C1484 C1486 1.353 . S
C1484 H1490 0.930 . S
N1485 Li1435 1.990 . S
N1485 C1484 1.314 . S
N1485 C1488 1.279 . S
C1486 C1484 1.353 . S
C1486 C1489 1.348 . S
C1486 H1518 0.929 . S
C1487 C1488 1.358 . S
C1487 C1489 1.356 . S
C1487 H1519 0.930 . S
C1488 N1485 1.279 . S
C1488 C1487 1.358 . S
C1488 H1491 0.930 . S
C1489 C1486 1.348 . S
C1489 C1487 1.356 . S
H1490 C1484 0.930 . S
H1491 C1488 0.930 . S
O1492 Li1432 1.956 . S
O1492 Li1433 1.970 . S
O1492 Li1434 1.961 . S
O1492 C1436 1.325 . S
O1493 Li1432 1.970 . S
O1493 Li1433 1.956 . S
O1493 Li1435 1.961 . S
O1493 C1442 1.325 . S
O1494 Li1432 1.961 . S
O1494 Li1434 1.956 . S
O1494 Li1435 1.970 . S
O1494 C1464 1.325 . S
O1495 Li1433 1.961 . S
O1495 Li1434 1.970 . S
O1495 Li1435 1.956 . S
O1495 C1470 1.325 . S
H1496 C1438 0.929 . S
H1497 C1439 0.930 . S
H1498 C1440 0.930 . S
H1499 C1441 0.930 . S
H1500 C1443 0.930 . S
H1501 C1445 0.929 . S
H1502 C1446 0.930 . S
H1503 C1447 0.930 . S
H1504 C1450 0.930 . S
H1505 C1453 0.929 . S
H1506 C1458 0.929 . S
H1507 C1459 0.930 . S
H1508 C1466 0.929 . S
H1509 C1467 0.930 . S
H1510 C1468 0.930 . S
H1511 C1469 0.930 . S
H1512 C1471 0.929 . S
H1513 C1472 0.930 . S
H1514 C1473 0.930 . S
H1515 C1474 0.930 . S
H1516 C1478 0.929 . S
H1517 C1480 0.930 . S
H1518 C1486 0.929 . S
H1519 C1487 0.930 . S
Li1520 N1537 1.990 . S
Li1520 O1580 1.956 . S
Li1520 O1581 1.970 1_455 S
Li1520 O1582 1.961 . S
Li1521 N1545 1.990 . S
Li1521 O1580 1.970 1_655 S
Li1521 O1581 1.956 . S
Li1521 O1583 1.950 1_655 S
Li1522 N1567 1.990 . S
Li1522 O1580 1.961 . S
Li1522 O1582 1.956 . S
Li1522 O1583 1.985 . S
Li1523 N1573 1.991 1_455 S
Li1523 O1581 1.963 1_455 S
Li1523 O1582 1.967 . S
Li1523 O1583 1.956 . S
C1524 C1526 1.348 1_455 S
C1524 C1527 1.356 . S
C1524 O1580 1.325 . S
N1525 C1528 1.314 1_455 S
N1525 C1529 1.279 . S
C1526 C1524 1.348 1_655 S
C1526 C1528 1.353 . S
C1526 H1584 0.929 . S
C1527 C1524 1.356 . S
C1527 C1529 1.358 . S
C1527 H1585 0.930 . S
C1528 N1525 1.314 1_655 S
C1528 C1526 1.353 . S
C1528 H1586 0.930 . S
C1529 N1525 1.279 . S
C1529 C1527 1.358 . S
C1529 H1587 0.930 . S
C1530 C1533 1.348 . S
C1530 C1534 1.356 . S
C1530 O1581 1.325 . S
C1531 N1532 1.279 . S
C1531 C1534 1.358 . S
C1531 H1588 0.930 . S
N1532 C1531 1.279 . S
N1532 C1535 1.314 . S
C1533 C1530 1.348 . S
C1533 C1535 1.353 . S
C1533 H1589 0.929 . S
C1534 C1530 1.356 . S
C1534 C1531 1.358 . S
C1534 H1590 0.930 . S
C1535 N1532 1.314 . S
C1535 C1533 1.353 . S
C1535 H1591 0.930 . S
C1536 N1537 1.314 . S
C1536 C1541 1.353 . S
C1536 H1542 0.930 . S
N1537 Li1520 1.990 . S
N1537 C1536 1.314 . S
N1537 C1539 1.279 . S
C1538 C1539 1.358 . S
C1538 C1540 1.356 . S
C1538 H1592 0.930 . S
C1539 N1537 1.279 . S
C1539 C1538 1.358 . S
C1539 H1543 0.930 . S
C1540 C1538 1.356 . S
C1540 C1541 1.348 . S
C1541 C1536 1.353 . S
C1541 C1540 1.348 . S
C1541 H1593 0.929 . S
H1542 C1536 0.930 . S
H1543 C1539 0.930 . S
C1544 N1545 1.314 . S
C1544 C1546 1.353 . S
C1544 H1550 0.930 . S
N1545 Li1521 1.990 . S
N1545 C1544 1.314 . S
N1545 C1548 1.279 . S
C1546 C1544 1.353 . S
C1546 C1549 1.348 . S
C1546 H1594 0.929 . S
C1547 C1548 1.358 . S
C1547 C1549 1.356 . S
C1547 H1595 0.930 . S
C1548 N1545 1.279 . S
C1548 C1547 1.358 . S
C1548 H1551 0.930 . S
C1549 C1546 1.348 . S
C1549 C1547 1.356 . S
H1550 C1544 0.930 . S
H1551 C1548 0.930 . S
C1552 C1554 1.348 . S
C1552 C1555 1.356 . S
C1552 O1582 1.325 . S
N1553 C1556 1.314 . S
N1553 C1557 1.279 . S
C1554 C1552 1.348 . S
C1554 C1556 1.353 . S
C1554 H1596 0.929 . S
C1555 C1552 1.356 . S
C1555 C1557 1.358 . S
C1555 H1597 0.930 . S
C1556 N1553 1.314 . S
C1556 C1554 1.353 . S
C1556 H1598 0.930 . S
C1557 N1553 1.279 . S
C1557 C1555 1.358 . S
C1557 H1599 0.930 . S
C1558 C1559 1.348 1_655 S
C1558 C1560 1.356 . S
C1558 O1583 1.322 1_655 S
C1559 C1558 1.348 1_455 S
C1559 C1561 1.353 . S
C1559 H1600 0.929 . S
C1560 C1558 1.356 . S
C1560 C1562 1.358 . S
C1560 H1601 0.930 . S
C1561 C1559 1.353 . S
C1561 N1563 1.314 1_455 S
C1561 H1602 0.930 . S
C1562 C1560 1.358 . S
C1562 N1563 1.279 . S
C1562 H1603 0.930 . S
N1563 C1561 1.314 1_655 S
N1563 C1562 1.279 . S
C1564 C1566 1.353 . S
C1564 N1567 1.314 . S
C1564 H1570 0.930 . S
C1565 N1567 1.279 . S
C1565 C1568 1.358 . S
C1565 H1571 0.930 . S
C1566 C1564 1.353 . S
C1566 C1569 1.348 . S
C1566 H1604 0.929 . S
N1567 Li1522 1.990 . S
N1567 C1564 1.314 . S
N1567 C1565 1.279 . S
C1568 C1565 1.358 . S
C1568 C1569 1.356 . S
C1568 H1605 0.930 . S
C1569 C1566 1.348 . S
C1569 C1568 1.356 . S
H1570 C1564 0.930 . S
H1571 C1565 0.930 . S
C1572 N1573 1.314 . S
C1572 C1574 1.353 . S
C1572 H1578 0.930 . S
N1573 Li1523 1.991 1_655 S
N1573 C1572 1.314 . S
N1573 C1576 1.279 . S
C1574 C1572 1.353 . S
C1574 C1577 1.348 . S
C1574 H1606 0.929 . S
C1575 C1576 1.358 . S
C1575 C1577 1.356 . S
C1575 H1607 0.930 . S
C1576 N1573 1.279 . S
C1576 C1575 1.358 . S
C1576 H1579 0.930 1_655 S
C1577 C1574 1.348 . S
C1577 C1575 1.356 . S
H1578 C1572 0.930 . S
H1579 C1576 0.930 1_455 S
O1580 Li1520 1.956 . S
O1580 Li1521 1.970 1_455 S
O1580 Li1522 1.961 . S
O1580 C1524 1.325 . S
O1581 Li1520 1.970 1_655 S
O1581 Li1521 1.956 . S
O1581 Li1523 1.963 1_655 S
O1581 C1530 1.325 . S
O1582 Li1520 1.961 . S
O1582 Li1522 1.956 . S
O1582 Li1523 1.967 . S
O1582 C1552 1.325 . S
O1583 Li1521 1.950 1_455 S
O1583 Li1522 1.985 . S
O1583 Li1523 1.956 . S
O1583 C1558 1.322 1_455 S
H1584 C1526 0.929 . S
H1585 C1527 0.930 . S
H1586 C1528 0.930 . S
H1587 C1529 0.930 . S
H1588 C1531 0.930 . S
H1589 C1533 0.929 . S
H1590 C1534 0.930 . S
H1591 C1535 0.930 . S
H1592 C1538 0.930 . S
H1593 C1541 0.929 . S
H1594 C1546 0.929 . S
H1595 C1547 0.930 . S
H1596 C1554 0.929 . S
H1597 C1555 0.930 . S
H1598 C1556 0.930 . S
H1599 C1557 0.930 . S
H1600 C1559 0.929 . S
H1601 C1560 0.930 . S
H1602 C1561 0.930 . S
H1603 C1562 0.930 . S
H1604 C1566 0.929 . S
H1605 C1568 0.930 . S
H1606 C1574 0.929 . S
H1607 C1575 0.930 . S
Li1608 N1625 1.990 . S
Li1608 O1668 1.956 . S
Li1608 O1669 1.970 . S
Li1608 O1670 1.961 . S
Li1609 N1633 1.990 . S
Li1609 O1668 1.970 . S
Li1609 O1669 1.956 . S
Li1609 O1671 1.961 . S
Li1610 N1655 1.990 . S
Li1610 O1668 1.961 . S
Li1610 O1670 1.956 . S
Li1610 O1671 1.970 . S
Li1611 N1661 1.990 . S
Li1611 O1669 1.961 . S
Li1611 O1670 1.970 . S
Li1611 O1671 1.956 . S
C1612 C1614 1.348 . S
C1612 C1615 1.356 . S
C1612 O1668 1.325 . S
N1613 C1616 1.314 . S
N1613 C1617 1.279 . S
C1614 C1612 1.348 . S
C1614 C1616 1.353 . S
C1614 H1672 0.929 . S
C1615 C1612 1.356 . S
C1615 C1617 1.358 . S
C1615 H1673 0.930 . S
C1616 N1613 1.314 . S
C1616 C1614 1.353 . S
C1616 H1674 0.930 . S
C1617 N1613 1.279 . S
C1617 C1615 1.358 . S
C1617 H1675 0.930 . S
C1618 C1621 1.348 . S
C1618 C1622 1.356 . S
C1618 O1669 1.325 . S
C1619 N1620 1.279 . S
C1619 C1622 1.358 . S
C1619 H1676 0.930 . S
N1620 C1619 1.279 . S
N1620 C1623 1.314 . S
C1621 C1618 1.348 . S
C1621 C1623 1.353 . S
C1621 H1677 0.929 . S
C1622 C1618 1.356 . S
C1622 C1619 1.358 . S
C1622 H1678 0.930 . S
C1623 N1620 1.314 . S
C1623 C1621 1.353 . S
C1623 H1679 0.930 . S
C1624 N1625 1.314 . S
C1624 C1629 1.353 . S
C1624 H1630 0.930 . S
N1625 Li1608 1.990 . S
N1625 C1624 1.314 . S
N1625 C1627 1.279 . S
C1626 C1627 1.358 . S
C1626 C1628 1.356 . S
C1626 H1680 0.930 . S
C1627 N1625 1.279 . S
C1627 C1626 1.358 . S
C1627 H1631 0.930 . S
C1628 C1626 1.356 . S
C1628 C1629 1.348 . S
C1629 C1624 1.353 . S
C1629 C1628 1.348 . S
C1629 H1681 0.929 . S
H1630 C1624 0.930 . S
H1631 C1627 0.930 . S
C1632 N1633 1.314 . S
C1632 C1634 1.353 . S
C1632 H1638 0.930 . S
N1633 Li1609 1.990 . S
N1633 C1632 1.314 . S
N1633 C1636 1.279 . S
C1634 C1632 1.353 . S
C1634 C1637 1.348 . S
C1634 H1682 0.929 . S
C1635 C1636 1.358 . S
C1635 C1637 1.356 . S
C1635 H1683 0.930 . S
C1636 N1633 1.279 . S
C1636 C1635 1.358 . S
C1636 H1639 0.930 . S
C1637 C1634 1.348 . S
C1637 C1635 1.356 . S
H1638 C1632 0.930 . S
H1639 C1636 0.930 . S
C1640 C1642 1.348 . S
C1640 C1643 1.356 . S
C1640 O1670 1.325 . S
N1641 C1644 1.314 . S
N1641 C1645 1.279 . S
C1642 C1640 1.348 . S
C1642 C1644 1.353 . S
C1642 H1684 0.929 . S
C1643 C1640 1.356 . S
C1643 C1645 1.358 . S
C1643 H1685 0.930 . S
C1644 N1641 1.314 . S
C1644 C1642 1.353 . S
C1644 H1686 0.930 . S
C1645 N1641 1.279 . S
C1645 C1643 1.358 . S
C1645 H1687 0.930 . S
C1646 C1647 1.348 . S
C1646 C1648 1.356 . S
C1646 O1671 1.325 . S
C1647 C1646 1.348 . S
C1647 C1649 1.353 . S
C1647 H1688 0.929 . S
C1648 C1646 1.356 . S
C1648 C1650 1.358 . S
C1648 H1689 0.930 . S
C1649 C1647 1.353 . S
C1649 N1651 1.314 . S
C1649 H1690 0.930 . S
C1650 C1648 1.358 . S
C1650 N1651 1.279 . S
C1650 H1691 0.930 . S
N1651 C1649 1.314 . S
N1651 C1650 1.279 . S
C1652 C1654 1.353 . S
C1652 N1655 1.314 . S
C1652 H1658 0.930 . S
C1653 N1655 1.279 . S
C1653 C1656 1.358 . S
C1653 H1659 0.930 . S
C1654 C1652 1.353 . S
C1654 C1657 1.348 . S
C1654 H1692 0.929 . S
N1655 Li1610 1.990 . S
N1655 C1652 1.314 . S
N1655 C1653 1.279 . S
C1656 C1653 1.358 . S
C1656 C1657 1.356 . S
C1656 H1693 0.930 . S
C1657 C1654 1.348 . S
C1657 C1656 1.356 . S
H1658 C1652 0.930 . S
H1659 C1653 0.930 . S
C1660 N1661 1.314 . S
C1660 C1662 1.353 . S
C1660 H1666 0.930 . S
N1661 Li1611 1.990 . S
N1661 C1660 1.314 . S
N1661 C1664 1.279 . S
C1662 C1660 1.353 . S
C1662 C1665 1.348 . S
C1662 H1694 0.929 . S
C1663 C1664 1.358 . S
C1663 C1665 1.356 . S
C1663 H1695 0.930 . S
C1664 N1661 1.279 . S
C1664 C1663 1.358 . S
C1664 H1667 0.930 . S
C1665 C1662 1.348 . S
C1665 C1663 1.356 . S
H1666 C1660 0.930 . S
H1667 C1664 0.930 . S
O1668 Li1608 1.956 . S
O1668 Li1609 1.970 . S
O1668 Li1610 1.961 . S
O1668 C1612 1.325 . S
O1669 Li1608 1.970 . S
O1669 Li1609 1.956 . S
O1669 Li1611 1.961 . S
O1669 C1618 1.325 . S
O1670 Li1608 1.961 . S
O1670 Li1610 1.956 . S
O1670 Li1611 1.970 . S
O1670 C1640 1.325 . S
O1671 Li1609 1.961 . S
O1671 Li1610 1.970 . S
O1671 Li1611 1.956 . S
O1671 C1646 1.325 . S
H1672 C1614 0.929 . S
H1673 C1615 0.930 . S
H1674 C1616 0.930 . S
H1675 C1617 0.930 . S
H1676 C1619 0.930 . S
H1677 C1621 0.929 . S
H1678 C1622 0.930 . S
H1679 C1623 0.930 . S
H1680 C1626 0.930 . S
H1681 C1629 0.929 . S
H1682 C1634 0.929 . S
H1683 C1635 0.930 . S
H1684 C1642 0.929 . S
H1685 C1643 0.930 . S
H1686 C1644 0.930 . S
H1687 C1645 0.930 . S
H1688 C1647 0.929 . S
H1689 C1648 0.930 . S
H1690 C1649 0.930 . S
H1691 C1650 0.930 . S
H1692 C1654 0.929 . S
H1693 C1656 0.930 . S
H1694 C1662 0.929 . S
H1695 C1663 0.930 . S
H1696 C1704 0.950 . S
H1697 C1709 0.950 . S
H1698 C1706 0.950 . S
H1699 C1708 0.950 . S
H1700 C1710 0.950 . S
H1701 C1712 0.950 . S
H1702 C1714 0.950 . S
H1703 C1715 0.950 . S
C1704 H1696 0.950 . S
C1704 C1705 1.386 . S
C1704 C1706 1.391 . S
C1705 C1704 1.386 . S
C1705 C1709 1.393 . S
C1706 H1698 0.950 . S
C1706 C1704 1.391 . S
C1706 C1707 1.400 . S
C1707 C1706 1.400 . S
C1707 C1708 1.398 . S
C1707 C1713 1.491 . S
C1708 H1699 0.950 . S
C1708 C1707 1.398 . S
C1708 C1709 1.391 . S
C1709 H1697 0.950 . S
C1709 C1705 1.393 . S
C1709 C1708 1.391 . S
C1710 H1700 0.950 . S
C1710 C1711 1.386 . S
C1710 C1712 1.391 . S
C1711 C1710 1.386 . S
C1711 C1715 1.393 . S
C1712 H1701 0.950 . S
C1712 C1710 1.391 . S
C1712 C1713 1.400 . S
C1713 C1707 1.491 . S
C1713 C1712 1.400 . S
C1713 C1714 1.398 . S
C1714 H1702 0.950 . S
C1714 C1713 1.398 . S
C1714 C1715 1.391 . S
C1715 H1703 0.950 . S
C1715 C1711 1.393 . S
C1715 C1714 1.391 . S
H1716 C1724 0.950 . S
H1717 C1729 0.950 . S
H1718 C1726 0.950 . S
H1719 C1728 0.950 . S
H1720 C1730 0.950 . S
H1721 C1732 0.950 . S
H1722 C1734 0.950 . S
H1723 C1735 0.950 . S
C1724 H1716 0.950 . S
C1724 C1725 1.386 . S
C1724 C1726 1.391 . S
C1725 C1724 1.386 . S
C1725 C1729 1.393 . S
C1726 H1718 0.950 . S
C1726 C1724 1.391 . S
C1726 C1727 1.400 . S
C1727 C1726 1.400 . S
C1727 C1728 1.398 . S
C1727 C1733 1.491 . S
C1728 H1719 0.950 . S
C1728 C1727 1.398 . S
C1728 C1729 1.391 . S
C1729 H1717 0.950 . S
C1729 C1725 1.393 . S
C1729 C1728 1.391 . S
C1730 H1720 0.950 . S
C1730 C1731 1.386 . S
C1730 C1732 1.391 . S
C1731 C1730 1.386 . S
C1731 C1735 1.393 . S
C1732 H1721 0.950 . S
C1732 C1730 1.391 . S
C1732 C1733 1.400 . S
C1733 C1727 1.491 . S
C1733 C1732 1.400 . S
C1733 C1734 1.398 . S
C1734 H1722 0.950 . S
C1734 C1733 1.398 . S
C1734 C1735 1.391 . S
C1735 H1723 0.950 . S
C1735 C1731 1.393 . S
C1735 C1734 1.391 . S
H1736 C1744 0.950 . S
H1737 C1749 0.950 . S
H1738 C1746 0.950 . S
H1739 C1748 0.950 . S
H1740 C1750 0.950 . S
H1741 C1752 0.950 . S
H1742 C1754 0.950 . S
H1743 C1755 0.950 . S
C1744 H1736 0.950 . S
C1744 C1745 1.386 . S
C1744 C1746 1.391 . S
C1745 C1744 1.386 . S
C1745 C1749 1.393 . S
C1746 H1738 0.950 . S
C1746 C1744 1.391 . S
C1746 C1747 1.400 . S
C1747 C1746 1.400 . S
C1747 C1748 1.398 . S
C1747 C1753 1.491 . S
C1748 H1739 0.950 . S
C1748 C1747 1.398 . S
C1748 C1749 1.391 . S
C1749 H1737 0.950 . S
C1749 C1745 1.393 . S
C1749 C1748 1.391 . S
C1750 H1740 0.950 . S
C1750 C1751 1.386 . S
C1750 C1752 1.391 . S
C1751 C1750 1.386 . S
C1751 C1755 1.393 . S
C1752 H1741 0.950 . S
C1752 C1750 1.391 . S
C1752 C1753 1.400 . S
C1753 C1747 1.491 . S
C1753 C1752 1.400 . S
C1753 C1754 1.398 . S
C1754 H1742 0.950 . S
C1754 C1753 1.398 . S
C1754 C1755 1.391 . S
C1755 H1743 0.950 . S
C1755 C1751 1.393 . S
C1755 C1754 1.391 . S
H1756 C1764 0.950 . S
H1757 C1769 0.950 . S
H1758 C1766 0.950 . S
H1759 C1768 0.950 . S
H1760 C1770 0.923 1_545 S
H1761 C1772 0.950 . S
H1762 C1774 0.950 . S
H1763 C1775 0.950 . S
C1764 H1756 0.950 . S
C1764 C1765 1.386 . S
C1764 C1766 1.391 . S
C1765 C1764 1.386 . S
C1765 C1769 1.393 . S
C1766 H1758 0.950 . S
C1766 C1764 1.391 . S
C1766 C1767 1.400 . S
C1767 C1766 1.400 . S
C1767 C1768 1.398 . S
C1767 C1773 1.491 . S
C1768 H1759 0.950 . S
C1768 C1767 1.398 . S
C1768 C1769 1.391 . S
C1769 H1757 0.950 . S
C1769 C1765 1.393 . S
C1769 C1768 1.391 . S
C1770 H1760 0.923 1_565 S
C1770 C1771 1.386 . S
C1770 C1772 1.391 . S
C1771 C1770 1.386 . S
C1771 C1775 1.393 . S
C1772 H1761 0.950 . S
C1772 C1770 1.391 . S
C1772 C1773 1.400 . S
C1773 C1767 1.491 . S
C1773 C1772 1.400 . S
C1773 C1774 1.398 . S
C1774 H1762 0.950 . S
C1774 C1773 1.398 . S
C1774 C1775 1.391 . S
C1775 H1763 0.950 . S
C1775 C1771 1.393 . S
C1775 C1774 1.391 . S
H1776 C1784 0.950 . S
H1777 C1789 0.950 . S
H1778 C1786 0.950 . S
H1779 C1788 0.950 . S
H1780 C1790 0.950 . S
H1781 C1792 0.950 . S
H1782 C1794 0.950 . S
H1783 C1795 0.950 . S
C1784 H1776 0.950 . S
C1784 C1785 1.386 . S
C1784 C1786 1.391 . S
C1785 C1784 1.386 . S
C1785 C1789 1.393 . S
C1786 H1778 0.950 . S
C1786 C1784 1.391 . S
C1786 C1787 1.400 . S
C1787 C1786 1.400 . S
C1787 C1788 1.398 . S
C1787 C1793 1.491 . S
C1788 H1779 0.950 . S
C1788 C1787 1.398 . S
C1788 C1789 1.391 . S
C1789 H1777 0.950 . S
C1789 C1785 1.393 . S
C1789 C1788 1.391 . S
C1790 H1780 0.950 . S
C1790 C1791 1.386 . S
C1790 C1792 1.391 . S
C1791 C1790 1.386 . S
C1791 C1795 1.393 . S
C1792 H1781 0.950 . S
C1792 C1790 1.391 . S
C1792 C1793 1.400 . S
C1793 C1787 1.491 . S
C1793 C1792 1.400 . S
C1793 C1794 1.398 . S
C1794 H1782 0.950 . S
C1794 C1793 1.398 . S
C1794 C1795 1.391 . S
C1795 H1783 0.950 . S
C1795 C1791 1.393 . S
C1795 C1794 1.391 . S
H1796 C1804 0.950 . S
H1797 C1809 0.950 . S
H1798 C1806 0.950 . S
H1799 C1808 0.950 . S
H1800 C1810 0.950 . S
H1801 C1812 0.950 . S
H1802 C1814 0.950 . S
H1803 C1815 0.950 . S
C1804 H1796 0.950 . S
C1804 C1805 1.386 . S
C1804 C1806 1.391 . S
C1805 C1804 1.386 . S
C1805 C1809 1.393 . S
C1806 H1798 0.950 . S
C1806 C1804 1.391 . S
C1806 C1807 1.400 . S
C1807 C1806 1.400 . S
C1807 C1808 1.398 . S
C1807 C1813 1.491 . S
C1808 H1799 0.950 . S
C1808 C1807 1.398 . S
C1808 C1809 1.391 . S
C1809 H1797 0.950 . S
C1809 C1805 1.393 . S
C1809 C1808 1.391 . S
C1810 H1800 0.950 . S
C1810 C1811 1.386 . S
C1810 C1812 1.391 . S
C1811 C1810 1.386 . S
C1811 C1815 1.393 . S
C1812 H1801 0.950 . S
C1812 C1810 1.391 . S
C1812 C1813 1.400 . S
C1813 C1807 1.491 . S
C1813 C1812 1.400 . S
C1813 C1814 1.398 . S
C1814 H1802 0.950 . S
C1814 C1813 1.398 . S
C1814 C1815 1.391 . S
C1815 H1803 0.950 . S
C1815 C1811 1.393 . S
C1815 C1814 1.391 . S
H1816 C1824 0.950 . S
H1817 C1829 0.950 . S
H1818 C1826 0.950 . S
H1819 C1828 0.950 . S
H1820 C1830 0.950 . S
H1821 C1832 0.950 . S
H1822 C1834 0.950 . S
H1823 C1835 0.950 . S
C1824 H1816 0.950 . S
C1824 C1825 1.386 . S
C1824 C1826 1.391 . S
C1825 C1824 1.386 . S
C1825 C1829 1.393 . S
C1826 H1818 0.950 . S
C1826 C1824 1.391 . S
C1826 C1827 1.400 . S
C1827 C1826 1.400 . S
C1827 C1828 1.398 . S
C1827 C1833 1.491 . S
C1828 H1819 0.950 . S
C1828 C1827 1.398 . S
C1828 C1829 1.391 . S
C1829 H1817 0.950 . S
C1829 C1825 1.393 . S
C1829 C1828 1.391 . S
C1830 H1820 0.950 . S
C1830 C1831 1.386 . S
C1830 C1832 1.391 . S
C1831 C1830 1.386 . S
C1831 C1835 1.393 . S
C1832 H1821 0.950 . S
C1832 C1830 1.391 . S
C1832 C1833 1.400 . S
C1833 C1827 1.491 . S
C1833 C1832 1.400 . S
C1833 C1834 1.398 . S
C1834 H1822 0.950 . S
C1834 C1833 1.398 . S
C1834 C1835 1.391 . S
C1835 H1823 0.950 . S
C1835 C1831 1.393 . S
C1835 C1834 1.391 . S
H1836 C1844 0.950 . S
H1837 C1849 0.950 . S
H1838 C1846 0.950 . S
H1839 C1848 0.950 . S
H1840 C1850 0.950 . S
H1841 C1852 0.950 . S
H1842 C1854 0.950 . S
H1843 C1855 0.950 . S
C1844 H1836 0.950 . S
C1844 C1845 1.386 . S
C1844 C1846 1.391 . S
C1845 C1844 1.386 . S
C1845 C1849 1.393 . S
C1846 H1838 0.950 . S
C1846 C1844 1.391 . S
C1846 C1847 1.400 . S
C1847 C1846 1.400 . S
C1847 C1848 1.398 . S
C1847 C1853 1.491 . S
C1848 H1839 0.950 . S
C1848 C1847 1.398 . S
C1848 C1849 1.391 . S
C1849 H1837 0.950 . S
C1849 C1845 1.393 . S
C1849 C1848 1.391 . S
C1850 H1840 0.950 . S
C1850 C1851 1.386 . S
C1850 C1852 1.391 . S
C1851 C1850 1.386 . S
C1851 C1855 1.393 . S
C1852 H1841 0.950 . S
C1852 C1850 1.391 . S
C1852 C1853 1.400 . S
C1853 C1847 1.491 . S
C1853 C1852 1.400 . S
C1853 C1854 1.398 . S
C1854 H1842 0.950 . S
C1854 C1853 1.398 . S
C1854 C1855 1.391 . S
C1855 H1843 0.950 . S
C1855 C1851 1.393 . S
C1855 C1854 1.391 . S
H1856 C1864 0.950 . S
H1857 C1869 0.950 . S
H1858 C1866 0.950 . S
H1859 C1868 0.950 . S
H1860 C1870 0.950 . S
H1861 C1872 0.950 . S
H1862 C1874 0.950 . S
H1863 C1875 0.950 . S
C1864 H1856 0.950 . S
C1864 C1865 1.386 . S
C1864 C1866 1.391 . S
C1865 C1864 1.386 . S
C1865 C1869 1.393 . S
C1866 H1858 0.950 . S
C1866 C1864 1.391 . S
C1866 C1867 1.400 . S
C1867 C1866 1.400 . S
C1867 C1868 1.398 . S
C1867 C1873 1.491 . S
C1868 H1859 0.950 . S
C1868 C1867 1.398 . S
C1868 C1869 1.391 . S
C1869 H1857 0.950 . S
C1869 C1865 1.393 . S
C1869 C1868 1.391 . S
C1870 H1860 0.950 . S
C1870 C1871 1.386 . S
C1870 C1872 1.391 . S
C1871 C1870 1.386 . S
C1871 C1875 1.393 . S
C1872 H1861 0.950 . S
C1872 C1870 1.391 . S
C1872 C1873 1.400 . S
C1873 C1867 1.491 . S
C1873 C1872 1.400 . S
C1873 C1874 1.398 . S
C1874 H1862 0.950 . S
C1874 C1873 1.398 . S
C1874 C1875 1.391 . S
C1875 H1863 0.950 . S
C1875 C1871 1.393 . S
C1875 C1874 1.391 . S
H1876 C1884 0.950 . S
H1877 C1889 0.950 . S
H1878 C1886 0.950 . S
H1879 C1888 0.950 . S
H1880 C1890 0.950 . S
H1881 C1892 0.950 . S
H1882 C1894 0.950 . S
H1883 C1895 0.950 . S
C1884 H1876 0.950 . S
C1884 C1885 1.386 . S
C1884 C1886 1.391 . S
C1885 C1884 1.386 . S
C1885 C1889 1.393 . S
C1886 H1878 0.950 . S
C1886 C1884 1.391 . S
C1886 C1887 1.400 . S
C1887 C1886 1.400 . S
C1887 C1888 1.398 . S
C1887 C1893 1.491 . S
C1888 H1879 0.950 . S
C1888 C1887 1.398 . S
C1888 C1889 1.391 . S
C1889 H1877 0.950 . S
C1889 C1885 1.393 . S
C1889 C1888 1.391 . S
C1890 H1880 0.950 . S
C1890 C1891 1.386 . S
C1890 C1892 1.391 . S
C1891 C1890 1.386 . S
C1891 C1895 1.393 . S
C1892 H1881 0.950 . S
C1892 C1890 1.391 . S
C1892 C1893 1.400 . S
C1893 C1887 1.491 . S
C1893 C1892 1.400 . S
C1893 C1894 1.398 . S
C1894 H1882 0.950 . S
C1894 C1893 1.398 . S
C1894 C1895 1.391 . S
C1895 H1883 0.950 . S
C1895 C1891 1.393 . S
C1895 C1894 1.391 . S
H1896 C1904 0.950 . S
H1897 C1909 0.950 . S
H1898 C1906 0.950 . S
H1899 C1908 0.950 . S
H1900 C1910 0.950 . S
H1901 C1912 0.950 . S
H1902 C1914 0.950 . S
H1903 C1915 0.950 . S
C1904 H1896 0.950 . S
C1904 C1905 1.386 . S
C1904 C1906 1.391 . S
C1905 C1904 1.386 . S
C1905 C1909 1.393 . S
C1906 H1898 0.950 . S
C1906 C1904 1.391 . S
C1906 C1907 1.400 . S
C1907 C1906 1.400 . S
C1907 C1908 1.398 . S
C1907 C1913 1.491 . S
C1908 H1899 0.950 . S
C1908 C1907 1.398 . S
C1908 C1909 1.391 . S
C1909 H1897 0.950 . S
C1909 C1905 1.393 . S
C1909 C1908 1.391 . S
C1910 H1900 0.950 . S
C1910 C1911 1.386 . S
C1910 C1912 1.391 . S
C1911 C1910 1.386 . S
C1911 C1915 1.393 . S
C1912 H1901 0.950 . S
C1912 C1910 1.391 . S
C1912 C1913 1.400 . S
C1913 C1907 1.491 . S
C1913 C1912 1.400 . S
C1913 C1914 1.398 . S
C1914 H1902 0.950 . S
C1914 C1913 1.398 . S
C1914 C1915 1.391 . S
C1915 H1903 0.950 . S
C1915 C1911 1.393 . S
C1915 C1914 1.391 . S
H1916 C1924 0.950 . S
H1917 C1929 0.950 . S
H1918 C1926 0.950 . S
H1919 C1928 0.950 . S
H1920 C1930 0.950 . S
H1921 C1932 0.950 . S
H1922 C1934 0.950 . S
H1923 C1935 0.950 . S
C1924 H1916 0.950 . S
C1924 C1925 1.386 . S
C1924 C1926 1.391 . S
C1925 C1924 1.386 . S
C1925 C1929 1.393 . S
C1926 H1918 0.950 . S
C1926 C1924 1.391 . S
C1926 C1927 1.400 . S
C1927 C1926 1.400 . S
C1927 C1928 1.398 . S
C1927 C1933 1.491 . S
C1928 H1919 0.950 . S
C1928 C1927 1.398 . S
C1928 C1929 1.391 . S
C1929 H1917 0.950 . S
C1929 C1925 1.393 . S
C1929 C1928 1.391 . S
C1930 H1920 0.950 . S
C1930 C1931 1.386 . S
C1930 C1932 1.391 . S
C1931 C1930 1.386 . S
C1931 C1935 1.393 . S
C1932 H1921 0.950 . S
C1932 C1930 1.391 . S
C1932 C1933 1.400 . S
C1933 C1927 1.491 . S
C1933 C1932 1.400 . S
C1933 C1934 1.398 . S
C1934 H1922 0.950 . S
C1934 C1933 1.398 . S
C1934 C1935 1.391 . S
C1935 H1923 0.950 . S
C1935 C1931 1.393 . S
C1935 C1934 1.391 . S
H1936 C1944 0.950 . S
H1937 C1949 0.950 . S
H1938 C1946 0.950 . S
H1939 C1948 0.950 . S
H1940 C1950 0.950 . S
H1941 C1952 0.950 . S
H1942 C1954 0.950 . S
H1943 C1955 0.950 . S
C1944 H1936 0.950 . S
C1944 C1945 1.386 . S
C1944 C1946 1.391 . S
C1945 C1944 1.386 . S
C1945 C1949 1.393 . S
C1946 H1938 0.950 . S
C1946 C1944 1.391 . S
C1946 C1947 1.400 . S
C1947 C1946 1.400 . S
C1947 C1948 1.398 . S
C1947 C1953 1.491 . S
C1948 H1939 0.950 . S
C1948 C1947 1.398 . S
C1948 C1949 1.391 . S
C1949 H1937 0.950 . S
C1949 C1945 1.393 . S
C1949 C1948 1.391 . S
C1950 H1940 0.950 . S
C1950 C1951 1.386 . S
C1950 C1952 1.391 . S
C1951 C1950 1.386 . S
C1951 C1955 1.393 . S
C1952 H1941 0.950 . S
C1952 C1950 1.391 . S
C1952 C1953 1.400 . S
C1953 C1947 1.491 . S
C1953 C1952 1.400 . S
C1953 C1954 1.398 . S
C1954 H1942 0.950 . S
C1954 C1953 1.398 . S
C1954 C1955 1.391 . S
C1955 H1943 0.950 . S
C1955 C1951 1.393 . S
C1955 C1954 1.391 . S
H1956 C1964 0.950 . S
H1957 C1969 0.930 1_655 S
H1958 C1966 0.950 . S
H1959 C1968 0.950 1_655 S
H1960 C1970 0.950 1_655 S
H1961 C1972 0.950 1_655 S
H1962 C1974 0.950 . S
H1963 C1975 0.950 . S
C1964 H1956 0.950 . S
C1964 C1965 1.386 . S
C1964 C1966 1.391 . S
C1965 C1964 1.386 . S
C1965 C1969 1.393 . S
C1966 H1958 0.950 . S
C1966 C1964 1.391 . S
C1966 C1967 1.400 . S
C1967 C1966 1.400 . S
C1967 C1968 1.398 . S
C1967 C1973 1.491 . S
C1968 H1959 0.950 1_455 S
C1968 C1967 1.398 . S
C1968 C1969 1.391 . S
C1969 H1957 0.930 1_455 S
C1969 C1965 1.393 . S
C1969 C1968 1.391 . S
C1970 H1960 0.950 1_455 S
C1970 C1971 1.386 . S
C1970 C1972 1.391 . S
C1971 C1970 1.386 . S
C1971 C1975 1.393 . S
C1972 H1961 0.950 1_455 S
C1972 C1970 1.391 . S
C1972 C1973 1.400 . S
C1973 C1967 1.491 . S
C1973 C1972 1.400 . S
C1973 C1974 1.398 . S
C1974 H1962 0.950 . S
C1974 C1973 1.398 . S
C1974 C1975 1.391 . S
C1975 H1963 0.950 . S
C1975 C1971 1.393 . S
C1975 C1974 1.391 . S
H1976 C1984 0.950 . S
H1977 C1989 0.950 . S
H1978 C1986 0.950 . S
H1979 C1988 0.950 . S
H1980 C1990 0.950 . S
H1981 C1992 0.950 . S
H1982 C1994 0.950 . S
H1983 C1995 0.950 . S
C1984 H1976 0.950 . S
C1984 C1985 1.386 . S
C1984 C1986 1.391 . S
C1985 C1984 1.386 . S
C1985 C1989 1.393 . S
C1986 H1978 0.950 . S
C1986 C1984 1.391 . S
C1986 C1987 1.400 . S
C1987 C1986 1.400 . S
C1987 C1988 1.398 . S
C1987 C1993 1.491 . S
C1988 H1979 0.950 . S
C1988 C1987 1.398 . S
C1988 C1989 1.391 . S
C1989 H1977 0.950 . S
C1989 C1985 1.393 . S
C1989 C1988 1.391 . S
C1990 H1980 0.950 . S
C1990 C1991 1.386 . S
C1990 C1992 1.391 . S
C1991 C1990 1.386 . S
C1991 C1995 1.393 . S
C1992 H1981 0.950 . S
C1992 C1990 1.391 . S
C1992 C1993 1.400 . S
C1993 C1987 1.491 . S
C1993 C1992 1.400 . S
C1993 C1994 1.398 . S
C1994 H1982 0.950 . S
C1994 C1993 1.398 . S
C1994 C1995 1.391 . S
C1995 H1983 0.950 . S
C1995 C1991 1.393 . S
C1995 C1994 1.391 . S
H1996 C2004 0.950 . S
H1997 C2009 0.980 . S
H1998 C2006 0.950 . S
H1999 C2008 0.950 . S
H2000 C2010 0.950 . S
H2001 C2012 0.950 . S
H2002 C2014 0.950 . S
H2003 C2015 0.950 . S
C2004 H1996 0.950 . S
C2004 C2005 1.386 . S
C2004 C2006 1.391 . S
C2005 C2004 1.386 . S
C2005 C2009 1.360 1_655 S
C2006 H1998 0.950 . S
C2006 C2004 1.391 . S
C2006 C2007 1.400 . S
C2007 C2006 1.400 . S
C2007 C2008 1.398 1_655 S
C2007 C2013 1.491 . S
C2008 H1999 0.950 . S
C2008 C2007 1.398 1_455 S
C2008 C2009 1.394 . S
C2009 H1997 0.980 . S
C2009 C2005 1.360 1_455 S
C2009 C2008 1.394 . S
C2010 H2000 0.950 . S
C2010 C2011 1.386 1_455 S
C2010 C2012 1.391 . S
C2011 C2010 1.386 1_655 S
C2011 C2015 1.393 . S
C2012 H2001 0.950 . S
C2012 C2010 1.391 . S
C2012 C2013 1.400 1_455 S
C2013 C2007 1.491 . S
C2013 C2012 1.400 1_655 S
C2013 C2014 1.398 . S
C2014 H2002 0.950 . S
C2014 C2013 1.398 . S
C2014 C2015 1.391 . S
C2015 H2003 0.950 . S
C2015 C2011 1.393 . S
C2015 C2014 1.391 . S
H2016 C2024 0.950 . S
H2017 C2029 0.950 . S
H2018 C2026 0.950 . S
H2019 C2028 0.950 . S
H2020 C2030 0.950 . S
H2021 C2032 0.950 . S
H2022 C2034 0.950 . S
H2023 C2035 0.950 . S
C2024 H2016 0.950 . S
C2024 C2025 1.386 . S
C2024 C2026 1.391 . S
C2025 C2024 1.386 . S
C2025 C2029 1.393 . S
C2026 H2018 0.950 . S
C2026 C2024 1.391 . S
C2026 C2027 1.400 . S
C2027 C2026 1.400 . S
C2027 C2028 1.398 . S
C2027 C2033 1.491 . S
C2028 H2019 0.950 . S
C2028 C2027 1.398 . S
C2028 C2029 1.391 . S
C2029 H2017 0.950 . S
C2029 C2025 1.393 . S
C2029 C2028 1.391 . S
C2030 H2020 0.950 . S
C2030 C2031 1.386 . S
C2030 C2032 1.391 . S
C2031 C2030 1.386 . S
C2031 C2035 1.393 . S
C2032 H2021 0.950 . S
C2032 C2030 1.391 . S
C2032 C2033 1.400 . S
C2033 C2027 1.491 . S
C2033 C2032 1.400 . S
C2033 C2034 1.398 . S
C2034 H2022 0.950 . S
C2034 C2033 1.398 . S
C2034 C2035 1.391 . S
C2035 H2023 0.950 . S
C2035 C2031 1.393 . S
C2035 C2034 1.391 . S
H2036 C2044 0.950 . S
H2037 C2049 0.950 . S
H2038 C2046 0.950 . S
H2039 C2048 0.950 . S
H2040 C2050 0.950 . S
H2041 C2052 0.950 . S
H2042 C2054 0.950 . S
H2043 C2055 0.950 . S
C2044 H2036 0.950 . S
C2044 C2045 1.386 . S
C2044 C2046 1.391 . S
C2045 C2044 1.386 . S
C2045 C2049 1.393 . S
C2046 H2038 0.950 . S
C2046 C2044 1.391 . S
C2046 C2047 1.400 . S
C2047 C2046 1.400 . S
C2047 C2048 1.398 . S
C2047 C2053 1.491 . S
C2048 H2039 0.950 . S
C2048 C2047 1.398 . S
C2048 C2049 1.391 . S
C2049 H2037 0.950 . S
C2049 C2045 1.393 . S
C2049 C2048 1.391 . S
C2050 H2040 0.950 . S
C2050 C2051 1.386 . S
C2050 C2052 1.391 . S
C2051 C2050 1.386 . S
C2051 C2055 1.393 . S
C2052 H2041 0.950 . S
C2052 C2050 1.391 . S
C2052 C2053 1.400 . S
C2053 C2047 1.491 . S
C2053 C2052 1.400 . S
C2053 C2054 1.398 . S
C2054 H2042 0.950 . S
C2054 C2053 1.398 . S
C2054 C2055 1.391 . S
C2055 H2043 0.950 . S
C2055 C2051 1.393 . S
C2055 C2054 1.391 . S
H2056 C2064 0.950 1_554 S
H2057 C2069 0.950 . S
H2058 C2066 0.948 1_554 S
H2059 C2068 0.950 . S
H2060 C2070 0.950 . S
H2061 C2072 0.950 . S
H2062 C2074 0.950 . S
H2063 C2075 0.950 . S
C2064 H2056 0.950 1_556 S
C2064 C2065 1.386 . S
C2064 C2066 1.392 . S
C2065 C2064 1.386 . S
C2065 C2069 1.393 . S
C2066 H2058 0.948 1_556 S
C2066 C2064 1.392 . S
C2066 C2067 1.402 . S
C2067 C2066 1.402 . S
C2067 C2068 1.398 . S
C2067 C2073 1.491 . S
C2068 H2059 0.950 . S
C2068 C2067 1.398 . S
C2068 C2069 1.391 . S
C2069 H2057 0.950 . S
C2069 C2065 1.393 . S
C2069 C2068 1.391 . S
C2070 H2060 0.950 . S
C2070 C2071 1.386 . S
C2070 C2072 1.391 . S
C2071 C2070 1.386 . S
C2071 C2075 1.393 1_556 S
C2072 H2061 0.950 . S
C2072 C2070 1.391 . S
C2072 C2073 1.400 . S
C2073 C2067 1.491 . S
C2073 C2072 1.400 . S
C2073 C2074 1.398 1_556 S
C2074 H2062 0.950 . S
C2074 C2073 1.398 1_554 S
C2074 C2075 1.391 . S
C2075 H2063 0.950 . S
C2075 C2071 1.393 1_554 S
C2075 C2074 1.391 . S
H2076 C2084 0.950 . S
H2077 C2089 0.950 . S
H2078 C2086 0.950 . S
H2079 C2088 0.950 . S
H2080 C2090 0.950 . S
H2081 C2092 0.950 . S
H2082 C2094 0.950 . S
H2083 C2095 0.950 . S
C2084 H2076 0.950 . S
C2084 C2085 1.386 . S
C2084 C2086 1.391 . S
C2085 C2084 1.386 . S
C2085 C2089 1.393 . S
C2086 H2078 0.950 . S
C2086 C2084 1.391 . S
C2086 C2087 1.400 . S
C2087 C2086 1.400 . S
C2087 C2088 1.398 . S
C2087 C2093 1.491 . S
C2088 H2079 0.950 . S
C2088 C2087 1.398 . S
C2088 C2089 1.391 . S
C2089 H2077 0.950 . S
C2089 C2085 1.393 . S
C2089 C2088 1.391 . S
C2090 H2080 0.950 . S
C2090 C2091 1.386 . S
C2090 C2092 1.391 . S
C2091 C2090 1.386 . S
C2091 C2095 1.393 . S
C2092 H2081 0.950 . S
C2092 C2090 1.391 . S
C2092 C2093 1.400 . S
C2093 C2087 1.491 . S
C2093 C2092 1.400 . S
C2093 C2094 1.398 . S
C2094 H2082 0.950 . S
C2094 C2093 1.398 . S
C2094 C2095 1.391 . S
C2095 H2083 0.950 . S
C2095 C2091 1.393 . S
C2095 C2094 1.391 . S
H2096 C2104 0.950 . S
H2097 C2109 0.950 . S
H2098 C2106 0.950 . S
H2099 C2108 0.950 . S
H2100 C2110 0.950 . S
H2101 C2112 0.950 . S
H2102 C2114 0.950 . S
H2103 C2115 0.950 . S
C2104 H2096 0.950 . S
C2104 C2105 1.386 . S
C2104 C2106 1.391 . S
C2105 C2104 1.386 . S
C2105 C2109 1.393 . S
C2106 H2098 0.950 . S
C2106 C2104 1.391 . S
C2106 C2107 1.400 . S
C2107 C2106 1.400 . S
C2107 C2108 1.398 . S
C2107 C2113 1.491 . S
C2108 H2099 0.950 . S
C2108 C2107 1.398 . S
C2108 C2109 1.391 . S
C2109 H2097 0.950 . S
C2109 C2105 1.393 . S
C2109 C2108 1.391 . S
C2110 H2100 0.950 . S
C2110 C2111 1.386 . S
C2110 C2112 1.391 . S
C2111 C2110 1.386 . S
C2111 C2115 1.393 . S
C2112 H2101 0.950 . S
C2112 C2110 1.391 . S
C2112 C2113 1.400 . S
C2113 C2107 1.491 . S
C2113 C2112 1.400 . S
C2113 C2114 1.398 . S
C2114 H2102 0.950 . S
C2114 C2113 1.398 . S
C2114 C2115 1.391 . S
C2115 H2103 0.950 . S
C2115 C2111 1.393 . S
C2115 C2114 1.391 . S
H2116 C2124 0.950 . S
H2117 C2129 0.950 . S
H2118 C2126 0.950 . S
H2119 C2128 0.950 . S
H2120 C2130 0.950 . S
H2121 C2132 0.950 . S
H2122 C2134 0.950 . S
H2123 C2135 0.950 . S
C2124 H2116 0.950 . S
C2124 C2125 1.386 . S
C2124 C2126 1.391 . S
C2125 C2124 1.386 . S
C2125 C2129 1.393 . S
C2126 H2118 0.950 . S
C2126 C2124 1.391 . S
C2126 C2127 1.400 . S
C2127 C2126 1.400 . S
C2127 C2128 1.398 . S
C2127 C2133 1.491 . S
C2128 H2119 0.950 . S
C2128 C2127 1.398 . S
C2128 C2129 1.391 . S
C2129 H2117 0.950 . S
C2129 C2125 1.393 . S
C2129 C2128 1.391 . S
C2130 H2120 0.950 . S
C2130 C2131 1.386 . S
C2130 C2132 1.391 . S
C2131 C2130 1.386 . S
C2131 C2135 1.393 . S
C2132 H2121 0.950 . S
C2132 C2130 1.391 . S
C2132 C2133 1.400 . S
C2133 C2127 1.491 . S
C2133 C2132 1.400 . S
C2133 C2134 1.398 . S
C2134 H2122 0.950 . S
C2134 C2133 1.398 . S
C2134 C2135 1.391 . S
C2135 H2123 0.950 . S
C2135 C2131 1.393 . S
C2135 C2134 1.391 . S
H2136 C2144 0.950 . S
H2137 C2149 0.950 . S
H2138 C2146 0.950 . S
H2139 C2148 0.950 . S
H2140 C2150 0.950 . S
H2141 C2152 0.950 . S
H2142 C2154 0.950 . S
H2143 C2155 0.950 . S
C2144 H2136 0.950 . S
C2144 C2145 1.386 . S
C2144 C2146 1.391 . S
C2145 C2144 1.386 . S
C2145 C2149 1.393 . S
C2146 H2138 0.950 . S
C2146 C2144 1.391 . S
C2146 C2147 1.400 . S
C2147 C2146 1.400 . S
C2147 C2148 1.398 . S
C2147 C2153 1.491 . S
C2148 H2139 0.950 . S
C2148 C2147 1.398 . S
C2148 C2149 1.391 . S
C2149 H2137 0.950 . S
C2149 C2145 1.393 . S
C2149 C2148 1.391 . S
C2150 H2140 0.950 . S
C2150 C2151 1.386 . S
C2150 C2152 1.391 . S
C2151 C2150 1.386 . S
C2151 C2155 1.393 . S
C2152 H2141 0.950 . S
C2152 C2150 1.391 . S
C2152 C2153 1.400 . S
C2153 C2147 1.491 . S
C2153 C2152 1.400 . S
C2153 C2154 1.398 . S
C2154 H2142 0.950 . S
C2154 C2153 1.398 . S
C2154 C2155 1.391 . S
C2155 H2143 0.950 . S
C2155 C2151 1.393 . S
C2155 C2154 1.391 . S
H2156 C2164 0.950 . S
H2157 C2169 0.950 . S
H2158 C2166 0.950 . S
H2159 C2168 0.950 . S
H2160 C2170 0.950 . S
H2161 C2172 0.950 . S
H2162 C2174 0.950 . S
H2163 C2175 0.950 . S
C2164 H2156 0.950 . S
C2164 C2165 1.386 . S
C2164 C2166 1.391 . S
C2165 C2164 1.386 . S
C2165 C2169 1.393 . S
C2166 H2158 0.950 . S
C2166 C2164 1.391 . S
C2166 C2167 1.400 . S
C2167 C2166 1.400 . S
C2167 C2168 1.398 . S
C2167 C2173 1.491 . S
C2168 H2159 0.950 . S
C2168 C2167 1.398 . S
C2168 C2169 1.391 . S
C2169 H2157 0.950 . S
C2169 C2165 1.393 . S
C2169 C2168 1.391 . S
C2170 H2160 0.950 . S
C2170 C2171 1.386 . S
C2170 C2172 1.391 . S
C2171 C2170 1.386 . S
C2171 C2175 1.393 . S
C2172 H2161 0.950 . S
C2172 C2170 1.391 . S
C2172 C2173 1.400 . S
C2173 C2167 1.491 . S
C2173 C2172 1.400 . S
C2173 C2174 1.398 . S
C2174 H2162 0.950 . S
C2174 C2173 1.398 . S
C2174 C2175 1.391 . S
C2175 H2163 0.950 . S
C2175 C2171 1.393 . S
C2175 C2174 1.391 . S
H2176 C2184 0.950 . S
H2177 C2189 0.950 . S
H2178 C2186 0.950 . S
H2179 C2188 0.950 . S
H2180 C2190 0.950 . S
H2181 C2192 0.950 . S
H2182 C2194 0.950 . S
H2183 C2195 0.950 . S
C2184 H2176 0.950 . S
C2184 C2185 1.386 . S
C2184 C2186 1.391 . S
C2185 C2184 1.386 . S
C2185 C2189 1.393 . S
C2186 H2178 0.950 . S
C2186 C2184 1.391 . S
C2186 C2187 1.400 . S
C2187 C2186 1.400 . S
C2187 C2188 1.398 . S
C2187 C2193 1.491 . S
C2188 H2179 0.950 . S
C2188 C2187 1.398 . S
C2188 C2189 1.391 . S
C2189 H2177 0.950 . S
C2189 C2185 1.393 . S
C2189 C2188 1.391 . S
C2190 H2180 0.950 . S
C2190 C2191 1.386 . S
C2190 C2192 1.391 . S
C2191 C2190 1.386 . S
C2191 C2195 1.393 . S
C2192 H2181 0.950 . S
C2192 C2190 1.391 . S
C2192 C2193 1.400 . S
C2193 C2187 1.491 . S
C2193 C2192 1.400 . S
C2193 C2194 1.398 . S
C2194 H2182 0.950 . S
C2194 C2193 1.398 . S
C2194 C2195 1.391 . S
C2195 H2183 0.950 . S
C2195 C2191 1.393 . S
C2195 C2194 1.391 . S
H2196 C2204 0.950 . S
H2197 C2209 0.950 . S
H2198 C2206 0.950 . S
H2199 C2208 0.950 . S
H2200 C2210 0.950 . S
H2201 C2212 0.950 . S
H2202 C2214 0.950 . S
H2203 C2215 0.950 . S
C2204 H2196 0.950 . S
C2204 C2205 1.386 . S
C2204 C2206 1.391 . S
C2205 C2204 1.386 . S
C2205 C2209 1.393 . S
C2206 H2198 0.950 . S
C2206 C2204 1.391 . S
C2206 C2207 1.400 . S
C2207 C2206 1.400 . S
C2207 C2208 1.398 . S
C2207 C2213 1.491 . S
C2208 H2199 0.950 . S
C2208 C2207 1.398 . S
C2208 C2209 1.391 . S
C2209 H2197 0.950 . S
C2209 C2205 1.393 . S
C2209 C2208 1.391 . S
C2210 H2200 0.950 . S
C2210 C2211 1.386 . S
C2210 C2212 1.391 . S
C2211 C2210 1.386 . S
C2211 C2215 1.393 . S
C2212 H2201 0.950 . S
C2212 C2210 1.391 . S
C2212 C2213 1.400 . S
C2213 C2207 1.491 . S
C2213 C2212 1.400 . S
C2213 C2214 1.398 . S
C2214 H2202 0.950 . S
C2214 C2213 1.398 . S
C2214 C2215 1.391 . S
C2215 H2203 0.950 . S
C2215 C2211 1.393 . S
C2215 C2214 1.391 . S
H2216 C2224 0.950 . S
H2217 C2229 0.950 . S
H2218 C2226 0.950 . S
H2219 C2228 0.950 . S
H2220 C2230 0.950 . S
H2221 C2232 0.950 . S
H2222 C2234 0.950 . S
H2223 C2235 0.950 . S
C2224 H2216 0.950 . S
C2224 C2225 1.386 . S
C2224 C2226 1.391 . S
C2225 C2224 1.386 . S
C2225 C2229 1.393 . S
C2226 H2218 0.950 . S
C2226 C2224 1.391 . S
C2226 C2227 1.400 . S
C2227 C2226 1.400 . S
C2227 C2228 1.398 . S
C2227 C2233 1.491 . S
C2228 H2219 0.950 . S
C2228 C2227 1.398 . S
C2228 C2229 1.391 . S
C2229 H2217 0.950 . S
C2229 C2225 1.393 . S
C2229 C2228 1.391 . S
C2230 H2220 0.950 . S
C2230 C2231 1.386 . S
C2230 C2232 1.391 . S
C2231 C2230 1.386 . S
C2231 C2235 1.393 . S
C2232 H2221 0.950 . S
C2232 C2230 1.391 . S
C2232 C2233 1.400 . S
C2233 C2227 1.491 . S
C2233 C2232 1.400 . S
C2233 C2234 1.398 . S
C2234 H2222 0.950 . S
C2234 C2233 1.398 . S
C2234 C2235 1.391 . S
C2235 H2223 0.950 . S
C2235 C2231 1.393 . S
C2235 C2234 1.391 . S
H2236 C2244 0.950 . S
H2237 C2249 0.950 . S
H2238 C2246 0.950 . S
H2239 C2248 0.950 . S
H2240 C2250 0.950 . S
H2241 C2252 0.950 . S
H2242 C2254 0.950 . S
H2243 C2255 0.950 . S
C2244 H2236 0.950 . S
C2244 C2245 1.386 . S
C2244 C2246 1.391 . S
C2245 C2244 1.386 . S
C2245 C2249 1.393 . S
C2246 H2238 0.950 . S
C2246 C2244 1.391 . S
C2246 C2247 1.400 . S
C2247 C2246 1.400 . S
C2247 C2248 1.398 . S
C2247 C2253 1.491 . S
C2248 H2239 0.950 . S
C2248 C2247 1.398 . S
C2248 C2249 1.391 . S
C2249 H2237 0.950 . S
C2249 C2245 1.393 . S
C2249 C2248 1.391 . S
C2250 H2240 0.950 . S
C2250 C2251 1.386 . S
C2250 C2252 1.391 . S
C2251 C2250 1.386 . S
C2251 C2255 1.393 . S
C2252 H2241 0.950 . S
C2252 C2250 1.391 . S
C2252 C2253 1.400 . S
C2253 C2247 1.491 . S
C2253 C2252 1.400 . S
C2253 C2254 1.398 . S
C2254 H2242 0.950 . S
C2254 C2253 1.398 . S
C2254 C2255 1.391 . S
C2255 H2243 0.950 . S
C2255 C2251 1.393 . S
C2255 C2254 1.391 . S
H2256 C2264 0.950 . S
H2257 C2269 0.950 . S
H2258 C2266 0.950 . S
H2259 C2268 0.950 . S
H2260 C2270 0.950 . S
H2261 C2272 0.950 . S
H2262 C2274 0.950 . S
H2263 C2275 0.950 . S
C2264 H2256 0.950 . S
C2264 C2265 1.386 . S
C2264 C2266 1.391 . S
C2265 C2264 1.386 . S
C2265 C2269 1.393 . S
C2266 H2258 0.950 . S
C2266 C2264 1.391 . S
C2266 C2267 1.400 . S
C2267 C2266 1.400 . S
C2267 C2268 1.398 . S
C2267 C2273 1.491 . S
C2268 H2259 0.950 . S
C2268 C2267 1.398 . S
C2268 C2269 1.391 . S
C2269 H2257 0.950 . S
C2269 C2265 1.393 . S
C2269 C2268 1.391 . S
C2270 H2260 0.950 . S
C2270 C2271 1.386 . S
C2270 C2272 1.391 . S
C2271 C2270 1.386 . S
C2271 C2275 1.393 . S
C2272 H2261 0.950 . S
C2272 C2270 1.391 . S
C2272 C2273 1.400 . S
C2273 C2267 1.491 . S
C2273 C2272 1.400 . S
C2273 C2274 1.398 . S
C2274 H2262 0.950 . S
C2274 C2273 1.398 . S
C2274 C2275 1.391 . S
C2275 H2263 0.950 . S
C2275 C2271 1.393 . S
C2275 C2274 1.391 . S
H2276 C2284 0.950 . S
H2277 C2289 0.950 . S
H2278 C2286 0.981 . S
H2279 C2288 0.950 . S
H2280 C2290 0.950 . S
H2281 C2292 0.950 . S
H2282 C2294 0.961 . S
H2283 C2295 0.950 1_565 S
C2284 H2276 0.950 . S
C2284 C2285 1.386 . S
C2284 C2286 1.391 . S
C2285 C2284 1.386 . S
C2285 C2289 1.393 . S
C2286 H2278 0.981 . S
C2286 C2284 1.391 . S
C2286 C2287 1.400 . S
C2287 C2286 1.400 . S
C2287 C2288 1.398 . S
C2287 C2293 1.491 . S
C2288 H2279 0.950 . S
C2288 C2287 1.398 . S
C2288 C2289 1.391 . S
C2289 H2277 0.950 . S
C2289 C2285 1.393 . S
C2289 C2288 1.391 . S
C2290 H2280 0.950 . S
C2290 C2291 1.386 . S
C2290 C2292 1.391 . S
C2291 C2290 1.386 . S
C2291 C2295 1.393 . S
C2292 H2281 0.950 . S
C2292 C2290 1.391 . S
C2292 C2293 1.400 . S
C2293 C2287 1.491 . S
C2293 C2292 1.400 . S
C2293 C2294 1.398 . S
C2294 H2282 0.961 . S
C2294 C2293 1.398 . S
C2294 C2295 1.391 . S
C2295 H2283 0.950 1_545 S
C2295 C2291 1.393 . S
C2295 C2294 1.391 . S
H2296 C2304 0.950 . S
H2297 C2309 0.950 . S
H2298 C2306 0.950 . S
H2299 C2308 0.950 . S
H2300 C2310 0.950 . S
H2301 C2312 0.950 . S
H2302 C2314 0.950 . S
H2303 C2315 0.950 . S
C2304 H2296 0.950 . S
C2304 C2305 1.386 . S
C2304 C2306 1.391 . S
C2305 C2304 1.386 . S
C2305 C2309 1.393 . S
C2306 H2298 0.950 . S
C2306 C2304 1.391 . S
C2306 C2307 1.400 . S
C2307 C2306 1.400 . S
C2307 C2308 1.398 . S
C2307 C2313 1.491 . S
C2308 H2299 0.950 . S
C2308 C2307 1.398 . S
C2308 C2309 1.391 . S
C2309 H2297 0.950 . S
C2309 C2305 1.393 . S
C2309 C2308 1.391 . S
C2310 H2300 0.950 . S
C2310 C2311 1.386 . S
C2310 C2312 1.391 . S
C2311 C2310 1.386 . S
C2311 C2315 1.393 . S
C2312 H2301 0.950 . S
C2312 C2310 1.391 . S
C2312 C2313 1.400 . S
C2313 C2307 1.491 . S
C2313 C2312 1.400 . S
C2313 C2314 1.398 . S
C2314 H2302 0.950 . S
C2314 C2313 1.398 . S
C2314 C2315 1.391 . S
C2315 H2303 0.950 . S
C2315 C2311 1.393 . S
C2315 C2314 1.391 . S
H2316 C2324 0.950 . S
H2317 C2329 0.950 . S
H2318 C2326 0.950 . S
H2319 C2328 0.950 . S
H2320 C2330 0.950 . S
H2321 C2332 0.950 . S
H2322 C2334 0.950 . S
H2323 C2335 0.950 . S
C2324 H2316 0.950 . S
C2324 C2325 1.386 . S
C2324 C2326 1.391 . S
C2325 C2324 1.386 . S
C2325 C2329 1.393 . S
C2326 H2318 0.950 . S
C2326 C2324 1.391 . S
C2326 C2327 1.400 . S
C2327 C2326 1.400 . S
C2327 C2328 1.398 . S
C2327 C2333 1.491 . S
C2328 H2319 0.950 . S
C2328 C2327 1.398 . S
C2328 C2329 1.391 . S
C2329 H2317 0.950 . S
C2329 C2325 1.393 . S
C2329 C2328 1.391 . S
C2330 H2320 0.950 . S
C2330 C2331 1.386 . S
C2330 C2332 1.391 . S
C2331 C2330 1.386 . S
C2331 C2335 1.393 . S
C2332 H2321 0.950 . S
C2332 C2330 1.391 . S
C2332 C2333 1.400 . S
C2333 C2327 1.491 . S
C2333 C2332 1.400 . S
C2333 C2334 1.398 . S
C2334 H2322 0.950 . S
C2334 C2333 1.398 . S
C2334 C2335 1.391 . S
C2335 H2323 0.950 . S
C2335 C2331 1.393 . S
C2335 C2334 1.391 . S
H2336 C2344 0.950 . S
H2337 C2349 0.950 . S
H2338 C2346 0.950 . S
H2339 C2348 0.950 . S
H2340 C2350 0.950 . S
H2341 C2352 0.950 . S
H2342 C2354 0.950 . S
H2343 C2355 0.950 . S
C2344 H2336 0.950 . S
C2344 C2345 1.386 . S
C2344 C2346 1.391 . S
C2345 C2344 1.386 . S
C2345 C2349 1.393 . S
C2346 H2338 0.950 . S
C2346 C2344 1.391 . S
C2346 C2347 1.400 . S
C2347 C2346 1.400 . S
C2347 C2348 1.398 . S
C2347 C2353 1.491 . S
C2348 H2339 0.950 . S
C2348 C2347 1.398 . S
C2348 C2349 1.391 . S
C2349 H2337 0.950 . S
C2349 C2345 1.393 . S
C2349 C2348 1.391 . S
C2350 H2340 0.950 . S
C2350 C2351 1.386 . S
C2350 C2352 1.391 . S
C2351 C2350 1.386 . S
C2351 C2355 1.393 . S
C2352 H2341 0.950 . S
C2352 C2350 1.391 . S
C2352 C2353 1.400 . S
C2353 C2347 1.491 . S
C2353 C2352 1.400 . S
C2353 C2354 1.398 . S
C2354 H2342 0.950 . S
C2354 C2353 1.398 . S
C2354 C2355 1.391 . S
C2355 H2343 0.950 . S
C2355 C2351 1.393 . S
C2355 C2354 1.391 . S
H2356 C2364 0.950 . S
H2357 C2369 0.950 1_455 S
H2358 C2366 0.950 . S
H2359 C2368 0.950 1_455 S
H2360 C2370 0.950 . S
H2361 C2372 0.950 . S
H2362 C2374 0.950 . S
H2363 C2375 0.950 . S
C2364 H2356 0.950 . S
C2364 C2365 1.386 . S
C2364 C2366 1.391 . S
C2365 C2364 1.386 . S
C2365 C2369 1.393 . S
C2366 H2358 0.950 . S
C2366 C2364 1.391 . S
C2366 C2367 1.400 . S
C2367 C2366 1.400 . S
C2367 C2368 1.399 . S
C2367 C2373 1.491 . S
C2368 H2359 0.950 1_655 S
C2368 C2367 1.399 . S
C2368 C2369 1.391 . S
C2369 H2357 0.950 1_655 S
C2369 C2365 1.393 . S
C2369 C2368 1.391 . S
C2370 H2360 0.950 . S
C2370 C2371 1.386 1_455 S
C2370 C2372 1.391 . S
C2371 C2370 1.386 1_655 S
C2371 C2375 1.393 . S
C2372 H2361 0.950 . S
C2372 C2370 1.391 . S
C2372 C2373 1.400 1_455 S
C2373 C2367 1.491 . S
C2373 C2372 1.400 1_655 S
C2373 C2374 1.398 . S
C2374 H2362 0.950 . S
C2374 C2373 1.398 . S
C2374 C2375 1.391 . S
C2375 H2363 0.950 . S
C2375 C2371 1.393 . S
C2375 C2374 1.391 . S
H2376 C2384 0.950 . S
H2377 C2389 0.950 . S
H2378 C2386 0.950 . S
H2379 C2388 0.950 . S
H2380 C2390 0.950 . S
H2381 C2392 0.950 . S
H2382 C2394 0.950 . S
H2383 C2395 0.950 . S
C2384 H2376 0.950 . S
C2384 C2385 1.386 . S
C2384 C2386 1.391 . S
C2385 C2384 1.386 . S
C2385 C2389 1.393 . S
C2386 H2378 0.950 . S
C2386 C2384 1.391 . S
C2386 C2387 1.400 . S
C2387 C2386 1.400 . S
C2387 C2388 1.398 . S
C2387 C2393 1.491 . S
C2388 H2379 0.950 . S
C2388 C2387 1.398 . S
C2388 C2389 1.391 . S
C2389 H2377 0.950 . S
C2389 C2385 1.393 . S
C2389 C2388 1.391 . S
C2390 H2380 0.950 . S
C2390 C2391 1.386 . S
C2390 C2392 1.391 . S
C2391 C2390 1.386 . S
C2391 C2395 1.393 . S
C2392 H2381 0.950 . S
C2392 C2390 1.391 . S
C2392 C2393 1.400 . S
C2393 C2387 1.491 . S
C2393 C2392 1.400 . S
C2393 C2394 1.398 . S
C2394 H2382 0.950 . S
C2394 C2393 1.398 . S
C2394 C2395 1.391 . S
C2395 H2383 0.950 . S
C2395 C2391 1.393 . S
C2395 C2394 1.391 . S
H2396 C2404 0.950 . S
H2397 C2409 0.950 1_655 S
H2398 C2406 0.950 . S
H2399 C2408 0.950 1_655 S
H2400 C2410 0.950 1_655 S
H2401 C2412 0.950 1_655 S
H2402 C2414 0.950 . S
H2403 C2415 0.950 . S
C2404 H2396 0.950 . S
C2404 C2405 1.386 . S
C2404 C2406 1.391 . S
C2405 C2404 1.386 . S
C2405 C2409 1.393 . S
C2406 H2398 0.950 . S
C2406 C2404 1.391 . S
C2406 C2407 1.400 . S
C2407 C2406 1.400 . S
C2407 C2408 1.398 . S
C2407 C2413 1.491 . S
C2408 H2399 0.950 1_455 S
C2408 C2407 1.398 . S
C2408 C2409 1.391 . S
C2409 H2397 0.950 1_455 S
C2409 C2405 1.393 . S
C2409 C2408 1.391 . S
C2410 H2400 0.950 1_455 S
C2410 C2411 1.386 . S
C2410 C2412 1.391 . S
C2411 C2410 1.386 . S
C2411 C2415 1.393 . S
C2412 H2401 0.950 1_455 S
C2412 C2410 1.391 . S
C2412 C2413 1.400 . S
C2413 C2407 1.491 . S
C2413 C2412 1.400 . S
C2413 C2414 1.398 . S
C2414 H2402 0.950 . S
C2414 C2413 1.398 . S
C2414 C2415 1.391 . S
C2415 H2403 0.950 . S
C2415 C2411 1.393 . S
C2415 C2414 1.391 . S
H2416 C2424 0.950 . S
H2417 C2429 0.950 . S
H2418 C2426 0.950 . S
H2419 C2428 0.950 . S
H2420 C2430 0.950 . S
H2421 C2432 0.950 . S
H2422 C2434 0.950 . S
H2423 C2435 0.950 . S
C2424 H2416 0.950 . S
C2424 C2425 1.386 . S
C2424 C2426 1.391 . S
C2425 C2424 1.386 . S
C2425 C2429 1.393 . S
C2426 H2418 0.950 . S
C2426 C2424 1.391 . S
C2426 C2427 1.400 . S
C2427 C2426 1.400 . S
C2427 C2428 1.398 . S
C2427 C2433 1.491 . S
C2428 H2419 0.950 . S
C2428 C2427 1.398 . S
C2428 C2429 1.391 . S
C2429 H2417 0.950 . S
C2429 C2425 1.393 . S
C2429 C2428 1.391 . S
C2430 H2420 0.950 . S
C2430 C2431 1.386 . S
C2430 C2432 1.391 . S
C2431 C2430 1.386 . S
C2431 C2435 1.393 . S
C2432 H2421 0.950 . S
C2432 C2430 1.391 . S
C2432 C2433 1.400 . S
C2433 C2427 1.491 . S
C2433 C2432 1.400 . S
C2433 C2434 1.398 . S
C2434 H2422 0.950 . S
C2434 C2433 1.398 . S
C2434 C2435 1.391 . S
C2435 H2423 0.950 . S
C2435 C2431 1.393 . S
C2435 C2434 1.391 . S
H2436 C2444 0.950 . S
H2437 C2449 0.950 . S
H2438 C2446 0.950 . S
H2439 C2448 0.950 . S
H2440 C2450 0.950 . S
H2441 C2452 0.950 . S
H2442 C2454 0.950 . S
H2443 C2455 0.950 . S
C2444 H2436 0.950 . S
C2444 C2445 1.386 . S
C2444 C2446 1.391 . S
C2445 C2444 1.386 . S
C2445 C2449 1.393 . S
C2446 H2438 0.950 . S
C2446 C2444 1.391 . S
C2446 C2447 1.400 . S
C2447 C2446 1.400 . S
C2447 C2448 1.398 . S
C2447 C2453 1.491 . S
C2448 H2439 0.950 . S
C2448 C2447 1.398 . S
C2448 C2449 1.391 . S
C2449 H2437 0.950 . S
C2449 C2445 1.393 . S
C2449 C2448 1.391 . S
C2450 H2440 0.950 . S
C2450 C2451 1.386 . S
C2450 C2452 1.391 . S
C2451 C2450 1.386 . S
C2451 C2455 1.393 . S
C2452 H2441 0.950 . S
C2452 C2450 1.391 . S
C2452 C2453 1.400 . S
C2453 C2447 1.491 . S
C2453 C2452 1.400 . S
C2453 C2454 1.398 . S
C2454 H2442 0.950 . S
C2454 C2453 1.398 . S
C2454 C2455 1.391 . S
C2455 H2443 0.950 . S
C2455 C2451 1.393 . S
C2455 C2454 1.391 . S
H2456 C2464 0.950 . S
H2457 C2469 0.950 . S
H2458 C2466 0.950 . S
H2459 C2468 0.950 . S
H2460 C2470 0.950 . S
H2461 C2472 0.950 . S
H2462 C2474 0.950 . S
H2463 C2475 0.950 . S
C2464 H2456 0.950 . S
C2464 C2465 1.386 . S
C2464 C2466 1.391 . S
C2465 C2464 1.386 . S
C2465 C2469 1.393 . S
C2466 H2458 0.950 . S
C2466 C2464 1.391 . S
C2466 C2467 1.400 . S
C2467 C2466 1.400 . S
C2467 C2468 1.398 . S
C2467 C2473 1.491 . S
C2468 H2459 0.950 . S
C2468 C2467 1.398 . S
C2468 C2469 1.391 . S
C2469 H2457 0.950 . S
C2469 C2465 1.393 . S
C2469 C2468 1.391 . S
C2470 H2460 0.950 . S
C2470 C2471 1.386 . S
C2470 C2472 1.391 . S
C2471 C2470 1.386 . S
C2471 C2475 1.393 . S
C2472 H2461 0.950 . S
C2472 C2470 1.391 . S
C2472 C2473 1.400 . S
C2473 C2467 1.491 . S
C2473 C2472 1.400 . S
C2473 C2474 1.398 . S
C2474 H2462 0.950 . S
C2474 C2473 1.398 . S
C2474 C2475 1.391 . S
C2475 H2463 0.950 . S
C2475 C2471 1.393 . S
C2475 C2474 1.391 . S
H2476 C2484 0.950 . S
H2477 C2489 0.950 . S
H2478 C2486 0.950 . S
H2479 C2488 0.950 . S
H2480 C2490 0.950 . S
H2481 C2492 0.950 . S
H2482 C2494 0.950 . S
H2483 C2495 0.950 . S
C2484 H2476 0.950 . S
C2484 C2485 1.386 . S
C2484 C2486 1.391 . S
C2485 C2484 1.386 . S
C2485 C2489 1.393 . S
C2486 H2478 0.950 . S
C2486 C2484 1.391 . S
C2486 C2487 1.400 . S
C2487 C2486 1.400 . S
C2487 C2488 1.398 . S
C2487 C2493 1.491 . S
C2488 H2479 0.950 . S
C2488 C2487 1.398 . S
C2488 C2489 1.391 . S
C2489 H2477 0.950 . S
C2489 C2485 1.393 . S
C2489 C2488 1.391 . S
C2490 H2480 0.950 . S
C2490 C2491 1.386 . S
C2490 C2492 1.391 . S
C2491 C2490 1.386 . S
C2491 C2495 1.393 . S
C2492 H2481 0.950 . S
C2492 C2490 1.391 . S
C2492 C2493 1.400 . S
C2493 C2487 1.491 . S
C2493 C2492 1.400 . S
C2493 C2494 1.398 . S
C2494 H2482 0.950 . S
C2494 C2493 1.398 . S
C2494 C2495 1.391 . S
C2495 H2483 0.950 . S
C2495 C2491 1.393 . S
C2495 C2494 1.391 . S
H2496 C2504 0.950 . S
H2497 C2509 0.950 . S
H2498 C2506 0.950 . S
H2499 C2508 0.950 . S
H2500 C2510 0.950 . S
H2501 C2512 0.950 . S
H2502 C2514 0.950 . S
H2503 C2515 0.950 . S
C2504 H2496 0.950 . S
C2504 C2505 1.386 . S
C2504 C2506 1.391 . S
C2505 C2504 1.386 . S
C2505 C2509 1.393 . S
C2506 H2498 0.950 . S
C2506 C2504 1.391 . S
C2506 C2507 1.400 . S
C2507 C2506 1.400 . S
C2507 C2508 1.398 . S
C2507 C2513 1.491 . S
C2508 H2499 0.950 . S
C2508 C2507 1.398 . S
C2508 C2509 1.391 . S
C2509 H2497 0.950 . S
C2509 C2505 1.393 . S
C2509 C2508 1.391 . S
C2510 H2500 0.950 . S
C2510 C2511 1.386 . S
C2510 C2512 1.391 . S
C2511 C2510 1.386 . S
C2511 C2515 1.393 . S
C2512 H2501 0.950 . S
C2512 C2510 1.391 . S
C2512 C2513 1.400 . S
C2513 C2507 1.491 . S
C2513 C2512 1.400 . S
C2513 C2514 1.398 . S
C2514 H2502 0.950 . S
C2514 C2513 1.398 . S
C2514 C2515 1.391 . S
C2515 H2503 0.950 . S
C2515 C2511 1.393 . S
C2515 C2514 1.391 . S
H2516 C2524 0.950 . S
H2517 C2529 0.950 . S
H2518 C2526 0.950 . S
H2519 C2528 0.950 . S
H2520 C2530 0.950 . S
H2521 C2532 0.950 . S
H2522 C2534 0.950 . S
H2523 C2535 0.950 . S
C2524 H2516 0.950 . S
C2524 C2525 1.386 . S
C2524 C2526 1.391 . S
C2525 C2524 1.386 . S
C2525 C2529 1.393 . S
C2526 H2518 0.950 . S
C2526 C2524 1.391 . S
C2526 C2527 1.400 . S
C2527 C2526 1.400 . S
C2527 C2528 1.398 . S
C2527 C2533 1.491 . S
C2528 H2519 0.950 . S
C2528 C2527 1.398 . S
C2528 C2529 1.391 . S
C2529 H2517 0.950 . S
C2529 C2525 1.393 . S
C2529 C2528 1.391 . S
C2530 H2520 0.950 . S
C2530 C2531 1.386 . S
C2530 C2532 1.391 . S
C2531 C2530 1.386 . S
C2531 C2535 1.393 . S
C2532 H2521 0.950 . S
C2532 C2530 1.391 . S
C2532 C2533 1.400 . S
C2533 C2527 1.491 . S
C2533 C2532 1.400 . S
C2533 C2534 1.398 . S
C2534 H2522 0.950 . S
C2534 C2533 1.398 . S
C2534 C2535 1.391 . S
C2535 H2523 0.950 . S
C2535 C2531 1.393 . S
C2535 C2534 1.391 . S
H2536 C2544 0.950 . S
H2537 C2549 0.950 . S
H2538 C2546 0.950 . S
H2539 C2548 0.950 . S
H2540 C2550 0.950 . S
H2541 C2552 0.950 . S
H2542 C2554 0.950 . S
H2543 C2555 0.950 . S
C2544 H2536 0.950 . S
C2544 C2545 1.386 . S
C2544 C2546 1.391 . S
C2545 C2544 1.386 . S
C2545 C2549 1.393 . S
C2546 H2538 0.950 . S
C2546 C2544 1.391 . S
C2546 C2547 1.400 . S
C2547 C2546 1.400 . S
C2547 C2548 1.398 . S
C2547 C2553 1.491 . S
C2548 H2539 0.950 . S
C2548 C2547 1.398 . S
C2548 C2549 1.391 . S
C2549 H2537 0.950 . S
C2549 C2545 1.393 . S
C2549 C2548 1.391 . S
C2550 H2540 0.950 . S
C2550 C2551 1.386 . S
C2550 C2552 1.391 . S
C2551 C2550 1.386 . S
C2551 C2555 1.393 . S
C2552 H2541 0.950 . S
C2552 C2550 1.391 . S
C2552 C2553 1.400 . S
C2553 C2547 1.491 . S
C2553 C2552 1.400 . S
C2553 C2554 1.398 . S
C2554 H2542 0.950 . S
C2554 C2553 1.398 . S
C2554 C2555 1.391 . S
C2555 H2543 0.950 . S
C2555 C2551 1.393 . S
C2555 C2554 1.391 . S
H2556 C2564 0.950 . S
H2557 C2569 0.950 . S
H2558 C2566 0.950 . S
H2559 C2568 0.950 . S
H2560 C2570 0.950 . S
H2561 C2572 0.950 . S
H2562 C2574 0.950 . S
H2563 C2575 0.950 . S
C2564 H2556 0.950 . S
C2564 C2565 1.386 . S
C2564 C2566 1.391 . S
C2565 C2564 1.386 . S
C2565 C2569 1.393 . S
C2566 H2558 0.950 . S
C2566 C2564 1.391 . S
C2566 C2567 1.400 . S
C2567 C2566 1.400 . S
C2567 C2568 1.398 . S
C2567 C2573 1.491 . S
C2568 H2559 0.950 . S
C2568 C2567 1.398 . S
C2568 C2569 1.391 . S
C2569 H2557 0.950 . S
C2569 C2565 1.393 . S
C2569 C2568 1.391 . S
C2570 H2560 0.950 . S
C2570 C2571 1.386 . S
C2570 C2572 1.391 . S
C2571 C2570 1.386 . S
C2571 C2575 1.393 . S
C2572 H2561 0.950 . S
C2572 C2570 1.391 . S
C2572 C2573 1.400 . S
C2573 C2567 1.491 . S
C2573 C2572 1.400 . S
C2573 C2574 1.398 . S
C2574 H2562 0.950 . S
C2574 C2573 1.398 . S
C2574 C2575 1.391 . S
C2575 H2563 0.950 . S
C2575 C2571 1.393 . S
C2575 C2574 1.391 . S
H2576 C2584 0.950 1_554 S
H2577 C2589 0.950 . S
H2578 C2586 0.950 1_554 S
H2579 C2588 0.950 . S
H2580 C2590 0.950 . S
H2581 C2592 0.950 . S
H2582 C2594 0.974 . S
H2583 C2595 0.950 . S
C2584 H2576 0.950 1_556 S
C2584 C2585 1.386 . S
C2584 C2586 1.391 . S
C2585 C2584 1.386 . S
C2585 C2589 1.393 . S
C2586 H2578 0.950 1_556 S
C2586 C2584 1.391 . S
C2586 C2587 1.400 . S
C2587 C2586 1.400 . S
C2587 C2588 1.398 . S
C2587 C2593 1.491 . S
C2588 H2579 0.950 . S
C2588 C2587 1.398 . S
C2588 C2589 1.391 . S
C2589 H2577 0.950 . S
C2589 C2585 1.393 . S
C2589 C2588 1.391 . S
C2590 H2580 0.950 . S
C2590 C2591 1.386 . S
C2590 C2592 1.391 . S
C2591 C2590 1.386 . S
C2591 C2595 1.393 1_556 S
C2592 H2581 0.950 . S
C2592 C2590 1.391 . S
C2592 C2593 1.400 . S
C2593 C2587 1.491 . S
C2593 C2592 1.400 . S
C2593 C2594 1.373 1_556 S
C2594 H2582 0.974 . S
C2594 C2593 1.373 1_554 S
C2594 C2595 1.393 . S
C2595 H2583 0.950 . S
C2595 C2591 1.393 1_554 S
C2595 C2594 1.393 . S
H2596 C2604 0.950 . S
H2597 C2609 0.950 . S
H2598 C2606 0.950 . S
H2599 C2608 0.950 . S
H2600 C2610 0.950 . S
H2601 C2612 0.950 . S
H2602 C2614 0.950 . S
H2603 C2615 0.950 . S
C2604 H2596 0.950 . S
C2604 C2605 1.386 . S
C2604 C2606 1.391 . S
C2605 C2604 1.386 . S
C2605 C2609 1.393 . S
C2606 H2598 0.950 . S
C2606 C2604 1.391 . S
C2606 C2607 1.400 . S
C2607 C2606 1.400 . S
C2607 C2608 1.398 . S
C2607 C2613 1.491 . S
C2608 H2599 0.950 . S
C2608 C2607 1.398 . S
C2608 C2609 1.391 . S
C2609 H2597 0.950 . S
C2609 C2605 1.393 . S
C2609 C2608 1.391 . S
C2610 H2600 0.950 . S
C2610 C2611 1.386 . S
C2610 C2612 1.391 . S
C2611 C2610 1.386 . S
C2611 C2615 1.393 . S
C2612 H2601 0.950 . S
C2612 C2610 1.391 . S
C2612 C2613 1.400 . S
C2613 C2607 1.491 . S
C2613 C2612 1.400 . S
C2613 C2614 1.398 . S
C2614 H2602 0.950 . S
C2614 C2613 1.398 . S
C2614 C2615 1.391 . S
C2615 H2603 0.950 . S
C2615 C2611 1.393 . S
C2615 C2614 1.391 . S
H2616 C2624 0.950 . S
H2617 C2629 0.950 . S
H2618 C2626 0.950 . S
H2619 C2628 0.950 . S
H2620 C2630 0.950 . S
H2621 C2632 0.950 . S
H2622 C2634 0.961 . S
H2623 C2635 0.950 1_556 S
C2624 H2616 0.950 . S
C2624 C2625 1.386 . S
C2624 C2626 1.391 . S
C2625 C2624 1.386 . S
C2625 C2629 1.393 . S
C2626 H2618 0.950 . S
C2626 C2624 1.391 . S
C2626 C2627 1.400 . S
C2627 C2626 1.400 . S
C2627 C2628 1.398 . S
C2627 C2633 1.491 . S
C2628 H2619 0.950 . S
C2628 C2627 1.398 . S
C2628 C2629 1.391 . S
C2629 H2617 0.950 . S
C2629 C2625 1.393 . S
C2629 C2628 1.391 . S
C2630 H2620 0.950 . S
C2630 C2631 1.386 . S
C2630 C2632 1.391 . S
C2631 C2630 1.386 . S
C2631 C2635 1.393 . S
C2632 H2621 0.950 . S
C2632 C2630 1.391 . S
C2632 C2633 1.400 . S
C2633 C2627 1.491 . S
C2633 C2632 1.400 . S
C2633 C2634 1.398 . S
C2634 H2622 0.961 . S
C2634 C2633 1.398 . S
C2634 C2635 1.391 . S
C2635 H2623 0.950 1_554 S
C2635 C2631 1.393 . S
C2635 C2634 1.391 . S
H2636 C2644 0.950 . S
H2637 C2649 0.950 . S
H2638 C2646 0.950 . S
H2639 C2648 0.950 . S
H2640 C2650 0.950 . S
H2641 C2652 0.950 . S
H2642 C2654 0.950 . S
H2643 C2655 0.950 . S
C2644 H2636 0.950 . S
C2644 C2645 1.386 . S
C2644 C2646 1.391 . S
C2645 C2644 1.386 . S
C2645 C2649 1.393 . S
C2646 H2638 0.950 . S
C2646 C2644 1.391 . S
C2646 C2647 1.400 . S
C2647 C2646 1.400 . S
C2647 C2648 1.398 . S
C2647 C2653 1.491 . S
C2648 H2639 0.950 . S
C2648 C2647 1.398 . S
C2648 C2649 1.391 . S
C2649 H2637 0.950 . S
C2649 C2645 1.393 . S
C2649 C2648 1.391 . S
C2650 H2640 0.950 . S
C2650 C2651 1.386 . S
C2650 C2652 1.391 . S
C2651 C2650 1.386 . S
C2651 C2655 1.393 . S
C2652 H2641 0.950 . S
C2652 C2650 1.391 . S
C2652 C2653 1.400 . S
C2653 C2647 1.491 . S
C2653 C2652 1.400 . S
C2653 C2654 1.398 . S
C2654 H2642 0.950 . S
C2654 C2653 1.398 . S
C2654 C2655 1.391 . S
C2655 H2643 0.950 . S
C2655 C2651 1.393 . S
C2655 C2654 1.391 . S
C1711 C689 1.494 . S
C1705 C202 1.475 . S
C1731 C748 1.544 . S
C1725 C261 1.539 . S
C1745 C282 1.510 . S
C1751 C865 1.528 . S
C1771 C933 1.525 . S
C1765 C162 1.515 . S
C1791 C1012 1.494 . S
C1785 C402 1.476 . S
C1811 C1137 1.526 . S
C1805 C482 1.514 . S
C1825 C442 1.520 . S
C1831 C1197 1.520 . S
C1851 C1305 1.542 . S
C1845 C381 1.541 . S
C1865 C461 1.557 . S
C1871 C1401 1.563 . S
C1891 C1461 1.493 . S
C1885 C362 1.493 . S
C1905 C415 1.456 . S
C1911 C1364 1.459 . S
C1931 C1481 1.543 . S
C1925 C495 1.542 . S
C1945 C301 1.557 . S
C1951 C1549 1.563 . S
C1965 C175 1.545 . S
C1971 C1540 1.546 . S
C1985 C215 1.459 . S
C1991 C1569 1.461 . S
C2005 C242 1.484 . S
C2011 C1577 1.496 . S
C2025 C141 1.538 . S
C2031 C961 1.555 . S
C2045 C581 1.538 . S
C2051 C924 1.555 . S
C2071 C660 1.462 . S
C2065 C615 1.461 . S
C2091 C757 1.494 . S
C2085 C335 1.493 . S
C2105 C181 1.585 . S
C2111 C1021 1.585 . S
C2131 C1313 1.494 . S
C2125 C455 1.493 . S
C2151 C1041 1.463 . S
C2145 C375 1.461 . S
C2171 C1225 1.586 . S
C2165 C501 1.583 . S
C2191 C1217 1.493 . S
C2185 C562 1.469 . S
C2205 C621 1.541 . S
C2211 C1285 1.541 . S
C2225 C322 1.519 . S
C2231 C1049 1.521 . S
C2251 C1100 1.525 . S
C2245 C522 1.518 . S
C2265 C122 1.460 . S
C2271 C845 1.484 . S
C2291 C953 1.523 . S
C2285 C2 1.522 . S
C2311 C669 1.523 . S
C2305 C42 1.511 . S
C2331 C785 1.543 . S
C2325 C101 1.541 . S
C2345 C61 1.563 . S
C2351 C1489 1.558 . S
C2365 C82 1.484 . S
C2371 C1373 1.496 . S
C2385 C135 1.457 . S
C2391 C1452 1.460 . S
C2405 C15 1.546 . S
C2411 C1393 1.546 . S
C2431 C1637 1.562 . S
C2425 C341 1.558 . S
C2451 C1628 1.545 . S
C2445 C535 1.545 . S
C2471 C1657 1.459 . S
C2465 C575 1.457 . S
C2485 C602 1.489 . S
C2491 C1665 1.495 . S
C2505 C421 1.523 . S
C2511 C1129 1.551 . S
C2531 C1109 1.551 . S
C2525 C221 1.524 . S
C2551 C1188 1.463 . S
C2545 C255 1.461 . S
C2571 C1276 1.494 . S
C2565 C295 1.493 . S
C2585 C541 1.586 . S
C2591 C836 1.585 . S
C2611 C777 1.495 . S
C2605 C55 1.494 . S
C2625 C95 1.462 . S
C2631 C873 1.463 . S
C2651 C697 1.586 . S
C2645 C21 1.582 . S
