# Generated by pormake.
# Topology cor, (4,6)-cn, num edge types: 1
# Building blocks:
#     Node 0, Type 0, BuildingBlock: KUFVIS_clean_sbu_0, # of connection points: 4
#     Node 1, Type 0, BuildingBlock: KUFVIS_clean_sbu_0, # of connection points: 4
#     Node 2, Type 0, BuildingBlock: KUFVIS_clean_sbu_0, # of connection points: 4
#     Node 3, Type 0, BuildingBlock: KUFVIS_clean_sbu_0, # of connection points: 4
#     Node 4, Type 0, BuildingBlock: KUFVIS_clean_sbu_0, # of connection points: 4
#     Node 5, Type 0, BuildingBlock: KUFVIS_clean_sbu_0, # of connection points: 4
#     Node 6, Type 0, BuildingBlock: KUFVIS_clean_sbu_0, # of connection points: 4
#     Node 7, Type 0, BuildingBlock: KUFVIS_clean_sbu_0, # of connection points: 4
#     Node 8, Type 0, BuildingBlock: KUFVIS_clean_sbu_0, # of connection points: 4
#     Node 9, Type 0, BuildingBlock: KUFVIS_clean_sbu_0, # of connection points: 4
#     Node 10, Type 0, BuildingBlock: KUFVIS_clean_sbu_0, # of connection points: 4
#     Node 11, Type 0, BuildingBlock: KUFVIS_clean_sbu_0, # of connection points: 4
#     Node 12, Type 0, BuildingBlock: KUFVIS_clean_sbu_0, # of connection points: 4
#     Node 13, Type 0, BuildingBlock: KUFVIS_clean_sbu_0, # of connection points: 4
#     Node 14, Type 0, BuildingBlock: KUFVIS_clean_sbu_0, # of connection points: 4
#     Node 15, Type 0, BuildingBlock: KUFVIS_clean_sbu_0, # of connection points: 4
#     Node 16, Type 0, BuildingBlock: KUFVIS_clean_sbu_0, # of connection points: 4
#     Node 17, Type 0, BuildingBlock: KUFVIS_clean_sbu_0, # of connection points: 4
#     Node 18, Type 1, BuildingBlock: MIDCAF_clean_sbu_0, # of connection points: 6
#     Node 19, Type 1, BuildingBlock: MIDCAF_clean_sbu_0, # of connection points: 6
#     Node 20, Type 1, BuildingBlock: MIDCAF_clean_sbu_0, # of connection points: 6
#     Node 21, Type 1, BuildingBlock: MIDCAF_clean_sbu_0, # of connection points: 6
#     Node 22, Type 1, BuildingBlock: MIDCAF_clean_sbu_0, # of connection points: 6
#     Node 23, Type 1, BuildingBlock: MIDCAF_clean_sbu_0, # of connection points: 6
#     Node 24, Type 1, BuildingBlock: MIDCAF_clean_sbu_0, # of connection points: 6
#     Node 25, Type 1, BuildingBlock: MIDCAF_clean_sbu_0, # of connection points: 6
#     Node 26, Type 1, BuildingBlock: MIDCAF_clean_sbu_0, # of connection points: 6
#     Node 27, Type 1, BuildingBlock: MIDCAF_clean_sbu_0, # of connection points: 6
#     Node 28, Type 1, BuildingBlock: MIDCAF_clean_sbu_0, # of connection points: 6
#     Node 29, Type 1, BuildingBlock: MIDCAF_clean_sbu_0, # of connection points: 6
#     Edge 30, Type (0, 1), BuildingBlock: UVAHIK_clean_linker_0, # of connection points: 2
#     Edge 31, Type (0, 1), BuildingBlock: UVAHIK_clean_linker_0, # of connection points: 2
#     Edge 32, Type (0, 1), BuildingBlock: UVAHIK_clean_linker_0, # of connection points: 2
#     Edge 33, Type (0, 1), BuildingBlock: UVAHIK_clean_linker_0, # of connection points: 2
#     Edge 34, Type (0, 1), BuildingBlock: UVAHIK_clean_linker_0, # of connection points: 2
#     Edge 35, Type (0, 1), BuildingBlock: UVAHIK_clean_linker_0, # of connection points: 2
#     Edge 36, Type (0, 1), BuildingBlock: UVAHIK_clean_linker_0, # of connection points: 2
#     Edge 37, Type (0, 1), BuildingBlock: UVAHIK_clean_linker_0, # of connection points: 2
#     Edge 38, Type (0, 1), BuildingBlock: UVAHIK_clean_linker_0, # of connection points: 2
#     Edge 39, Type (0, 1), BuildingBlock: UVAHIK_clean_linker_0, # of connection points: 2
#     Edge 40, Type (0, 1), BuildingBlock: UVAHIK_clean_linker_0, # of connection points: 2
#     Edge 41, Type (0, 1), BuildingBlock: UVAHIK_clean_linker_0, # of connection points: 2
#     Edge 42, Type (0, 1), BuildingBlock: UVAHIK_clean_linker_0, # of connection points: 2
#     Edge 43, Type (0, 1), BuildingBlock: UVAHIK_clean_linker_0, # of connection points: 2
#     Edge 44, Type (0, 1), BuildingBlock: UVAHIK_clean_linker_0, # of connection points: 2
#     Edge 45, Type (0, 1), BuildingBlock: UVAHIK_clean_linker_0, # of connection points: 2
#     Edge 46, Type (0, 1), BuildingBlock: UVAHIK_clean_linker_0, # of connection points: 2
#     Edge 47, Type (0, 1), BuildingBlock: UVAHIK_clean_linker_0, # of connection points: 2
#     Edge 48, Type (0, 1), BuildingBlock: UVAHIK_clean_linker_0, # of connection points: 2
#     Edge 49, Type (0, 1), BuildingBlock: UVAHIK_clean_linker_0, # of connection points: 2
#     Edge 50, Type (0, 1), BuildingBlock: UVAHIK_clean_linker_0, # of connection points: 2
#     Edge 51, Type (0, 1), BuildingBlock: UVAHIK_clean_linker_0, # of connection points: 2
#     Edge 52, Type (0, 1), BuildingBlock: UVAHIK_clean_linker_0, # of connection points: 2
#     Edge 53, Type (0, 1), BuildingBlock: UVAHIK_clean_linker_0, # of connection points: 2
#     Edge 54, Type (0, 1), BuildingBlock: UVAHIK_clean_linker_0, # of connection points: 2
#     Edge 55, Type (0, 1), BuildingBlock: UVAHIK_clean_linker_0, # of connection points: 2
#     Edge 56, Type (0, 1), BuildingBlock: UVAHIK_clean_linker_0, # of connection points: 2
#     Edge 57, Type (0, 1), BuildingBlock: UVAHIK_clean_linker_0, # of connection points: 2
#     Edge 58, Type (0, 1), BuildingBlock: UVAHIK_clean_linker_0, # of connection points: 2
#     Edge 59, Type (0, 1), BuildingBlock: UVAHIK_clean_linker_0, # of connection points: 2
#     Edge 60, Type (0, 1), BuildingBlock: UVAHIK_clean_linker_0, # of connection points: 2
#     Edge 61, Type (0, 1), BuildingBlock: UVAHIK_clean_linker_0, # of connection points: 2
#     Edge 62, Type (0, 1), BuildingBlock: UVAHIK_clean_linker_0, # of connection points: 2
#     Edge 63, Type (0, 1), BuildingBlock: UVAHIK_clean_linker_0, # of connection points: 2
#     Edge 64, Type (0, 1), BuildingBlock: UVAHIK_clean_linker_0, # of connection points: 2
#     Edge 65, Type (0, 1), BuildingBlock: UVAHIK_clean_linker_0, # of connection points: 2
#     Edge 66, Type (0, 1), BuildingBlock: UVAHIK_clean_linker_0, # of connection points: 2
#     Edge 67, Type (0, 1), BuildingBlock: UVAHIK_clean_linker_0, # of connection points: 2
#     Edge 68, Type (0, 1), BuildingBlock: UVAHIK_clean_linker_0, # of connection points: 2
#     Edge 69, Type (0, 1), BuildingBlock: UVAHIK_clean_linker_0, # of connection points: 2
#     Edge 70, Type (0, 1), BuildingBlock: UVAHIK_clean_linker_0, # of connection points: 2
#     Edge 71, Type (0, 1), BuildingBlock: UVAHIK_clean_linker_0, # of connection points: 2
#     Edge 72, Type (0, 1), BuildingBlock: UVAHIK_clean_linker_0, # of connection points: 2
#     Edge 73, Type (0, 1), BuildingBlock: UVAHIK_clean_linker_0, # of connection points: 2
#     Edge 74, Type (0, 1), BuildingBlock: UVAHIK_clean_linker_0, # of connection points: 2
#     Edge 75, Type (0, 1), BuildingBlock: UVAHIK_clean_linker_0, # of connection points: 2
#     Edge 76, Type (0, 1), BuildingBlock: UVAHIK_clean_linker_0, # of connection points: 2
#     Edge 77, Type (0, 1), BuildingBlock: UVAHIK_clean_linker_0, # of connection points: 2
#     Edge 78, Type (0, 1), BuildingBlock: UVAHIK_clean_linker_0, # of connection points: 2
#     Edge 79, Type (0, 1), BuildingBlock: UVAHIK_clean_linker_0, # of connection points: 2
#     Edge 80, Type (0, 1), BuildingBlock: UVAHIK_clean_linker_0, # of connection points: 2
#     Edge 81, Type (0, 1), BuildingBlock: UVAHIK_clean_linker_0, # of connection points: 2
#     Edge 82, Type (0, 1), BuildingBlock: UVAHIK_clean_linker_0, # of connection points: 2
#     Edge 83, Type (0, 1), BuildingBlock: UVAHIK_clean_linker_0, # of connection points: 2
#     Edge 84, Type (0, 1), BuildingBlock: UVAHIK_clean_linker_0, # of connection points: 2
#     Edge 85, Type (0, 1), BuildingBlock: UVAHIK_clean_linker_0, # of connection points: 2
#     Edge 86, Type (0, 1), BuildingBlock: UVAHIK_clean_linker_0, # of connection points: 2
#     Edge 87, Type (0, 1), BuildingBlock: UVAHIK_clean_linker_0, # of connection points: 2
#     Edge 88, Type (0, 1), BuildingBlock: UVAHIK_clean_linker_0, # of connection points: 2
#     Edge 89, Type (0, 1), BuildingBlock: UVAHIK_clean_linker_0, # of connection points: 2
#     Edge 90, Type (0, 1), BuildingBlock: UVAHIK_clean_linker_0, # of connection points: 2
#     Edge 91, Type (0, 1), BuildingBlock: UVAHIK_clean_linker_0, # of connection points: 2
#     Edge 92, Type (0, 1), BuildingBlock: UVAHIK_clean_linker_0, # of connection points: 2
#     Edge 93, Type (0, 1), BuildingBlock: UVAHIK_clean_linker_0, # of connection points: 2
#     Edge 94, Type (0, 1), BuildingBlock: UVAHIK_clean_linker_0, # of connection points: 2
#     Edge 95, Type (0, 1), BuildingBlock: UVAHIK_clean_linker_0, # of connection points: 2
#     Edge 96, Type (0, 1), BuildingBlock: UVAHIK_clean_linker_0, # of connection points: 2
#     Edge 97, Type (0, 1), BuildingBlock: UVAHIK_clean_linker_0, # of connection points: 2
#     Edge 98, Type (0, 1), BuildingBlock: UVAHIK_clean_linker_0, # of connection points: 2
#     Edge 99, Type (0, 1), BuildingBlock: UVAHIK_clean_linker_0, # of connection points: 2
#     Edge 100, Type (0, 1), BuildingBlock: UVAHIK_clean_linker_0, # of connection points: 2
#     Edge 101, Type (0, 1), BuildingBlock: UVAHIK_clean_linker_0, # of connection points: 2
# Relax obj value: 0.120
# Max RMSD: 0.161
# Mean RMSD: 0.124
data_MOF--net-cor--node1-KUFVIS_clean_sbu_0--node2-MIDCAF_clean_sbu_0--edge1-UVAHIK_clean_linker_0
_symmetry_space_group_name_H-M    P1
_symmetry_Int_Tables_number       1
_symmetry_cell_setting            triclinic
loop_
_symmetry_equiv_pos_as_xyz
'x, y, z'
_cell_length_a     49.281177
_cell_length_b     49.19301
_cell_length_c     128.43841
_cell_angle_alpha  89.649094
_cell_angle_beta   90.649651
_cell_angle_gamma 120.07337
loop_
_atom_site_label
_atom_site_type_symbol
_atom_site_fract_x
_atom_site_fract_y
_atom_site_fract_z
_atom_type_partial_charge
Mn0 Mn 0.73206 0.01279 0.25643 0.0
Mn1 Mn 0.79873 0.08314 0.25504 0.0
C2 C 0.77371 0.02434 0.26762 0.0
C3 C 0.68208 0.97938 0.26305 0.0
C4 C 0.78084 0.03102 0.23927 0.0
O5 O 0.71821 0.03975 0.24818 0.0
O6 O 0.76337 0.08626 0.24886 0.0
C7 C 0.78231 0.11907 0.26954 0.0
N8 N 0.80187 0.10837 0.26674 0.0
C9 C 0.83633 0.13448 0.28128 0.0
C10 C 0.81663 0.14591 0.2843 0.0
C11 C 0.78948 0.13811 0.27842 0.0
C12 C 0.82801 0.11565 0.27236 0.0
H13 H 0.76141 0.11308 0.26505 0.0
C14 C 0.73445 0.06921 0.24622 0.0
O15 O 0.6909 0.97391 0.25421 0.0
O16 O 0.7017 0.0052 0.2678 0.0
N17 N 0.83481 0.08335 0.26081 0.0
C18 C 0.8505 0.06922 0.25712 0.0
C19 C 0.87796 0.07418 0.26222 0.0
C20 C 0.8891 0.09375 0.27102 0.0
C21 C 0.87266 0.10818 0.27463 0.0
C22 C 0.84559 0.10259 0.26917 0.0
H23 H 0.8421 0.05425 0.25034 0.0
O24 O 0.75277 0.99537 0.26567 0.0
O25 O 0.76977 0.04557 0.26292 0.0
O26 O 0.7559 0.01061 0.24377 0.0
O27 O 0.79813 0.05893 0.24269 0.0
C28 C 0.88179 0.1275 0.28353 0.0
C29 C 0.86359 0.14057 0.28687 0.0
H30 H 0.82201 0.1605 0.29116 0.0
H31 H 0.7741 0.14673 0.28072 0.0
H32 H 0.8905 0.06292 0.2594 0.0
H33 H 0.91022 0.09741 0.27496 0.0
H34 H 0.90251 0.1321 0.28795 0.0
H35 H 0.8706 0.15503 0.29381 0.0
Mn36 Mn 0.02507 0.74525 0.25051 0.0
Mn37 Mn 0.08639 0.81942 0.25128 0.0
C38 C 0.0302 0.78122 0.23783 0.0
C39 C 0.00179 0.69293 0.24511 0.0
C40 C 0.03148 0.79496 0.26605 0.0
O41 O 0.05631 0.74183 0.26033 0.0
O42 O 0.09723 0.79141 0.25919 0.0
C43 C 0.13213 0.81124 0.23895 0.0
N44 N 0.11515 0.82578 0.24043 0.0
C45 C 0.13843 0.85906 0.22553 0.0
C46 C 0.1563 0.84455 0.22386 0.0
C47 C 0.15304 0.82046 0.23058 0.0
C48 C 0.11797 0.84886 0.23398 0.0
H49 H 0.12972 0.79278 0.24412 0.0
C50 C 0.08434 0.76318 0.26265 0.0
O51 O 0.99198 0.70093 0.25323 0.0
O52 O 0.02602 0.7151 0.2404 0.0
N53 N 0.07873 0.84883 0.24389 0.0
C54 C 0.05835 0.85897 0.2462 0.0
C55 C 0.05774 0.88225 0.23998 0.0
C56 C 0.07828 0.89505 0.23154 0.0
C57 C 0.09921 0.8844 0.22938 0.0
C58 C 0.09874 0.86115 0.23584 0.0
H59 H 0.04262 0.84926 0.2527 0.0
O60 O 0.00296 0.75691 0.2397 0.0
O61 O 0.05334 0.78387 0.24352 0.0
O62 O 0.01511 0.76789 0.26195 0.0
O63 O 0.05838 0.81564 0.26276 0.0
C64 C 0.12023 0.89563 0.22099 0.0
C65 C 0.13978 0.88292 0.21905 0.0
H66 H 0.1724 0.85154 0.21741 0.0
H67 H 0.16666 0.80906 0.22933 0.0
H68 H 0.04149 0.89032 0.2417 0.0
H69 H 0.07764 0.9129 0.22674 0.0
H70 H 0.1212 0.91369 0.21588 0.0
H71 H 0.15545 0.89137 0.21246 0.0
Mn72 Mn 0.30506 0.30038 0.25888 0.0
Mn73 Mn 0.3102 0.2349 0.25622 0.0
C74 C 0.27698 0.25779 0.26968 0.0
C75 C 0.32028 0.34944 0.26605 0.0
C76 C 0.27097 0.25041 0.24185 0.0
O77 O 0.34523 0.31654 0.2506 0.0
O78 O 0.3449 0.2708 0.24865 0.0
C79 C 0.36886 0.25676 0.26842 0.0
N80 N 0.33801 0.23532 0.2668 0.0
C81 C 0.33767 0.20455 0.28149 0.0
C82 C 0.36948 0.2262 0.28327 0.0
C83 C 0.38512 0.25245 0.27671 0.0
C84 C 0.32272 0.21004 0.27308 0.0
H85 H 0.38094 0.27704 0.26343 0.0
C86 C 0.35665 0.30031 0.24699 0.0
O87 O 0.3054 0.34067 0.2572 0.0
O88 O 0.32775 0.3303 0.2705 0.0
N89 N 0.27844 0.19833 0.26313 0.0
C90 C 0.24755 0.1801 0.26052 0.0
C91 C 0.22848 0.15303 0.26638 0.0
C92 C 0.2414 0.14485 0.2748 0.0
C93 C 0.27334 0.16372 0.27724 0.0
C94 C 0.29125 0.19026 0.27106 0.0
H95 H 0.23747 0.18633 0.25408 0.0
O96 O 0.26773 0.27792 0.26801 0.0
O97 O 0.30223 0.2629 0.26489 0.0
O98 O 0.27883 0.27687 0.246 0.0
O99 O 0.28056 0.23218 0.24523 0.0
C100 C 0.28799 0.15752 0.28567 0.0
C101 C 0.32011 0.17796 0.28781 0.0
H102 H 0.38209 0.22302 0.28969 0.0
H103 H 0.40963 0.26934 0.27807 0.0
H104 H 0.20385 0.13859 0.26445 0.0
H105 H 0.22656 0.12411 0.27936 0.0
H106 H 0.27469 0.13728 0.29063 0.0
H107 H 0.33104 0.17312 0.29437 0.0
Mn108 Mn 0.31127 0.02844 0.75367 0.0
Mn109 Mn 0.24606 0.95855 0.74955 0.0
C110 C 0.27336 0.02472 0.74214 0.0
C111 C 0.36219 0.06566 0.74899 0.0
C112 C 0.25661 0.99739 0.76895 0.0
O113 O 0.32378 0.99765 0.75947 0.0
O114 O 0.27911 0.95195 0.75616 0.0
C115 C 0.27051 0.93409 0.73339 0.0
N116 N 0.24925 0.94235 0.73643 0.0
C117 C 0.22347 0.92858 0.71969 0.0
C118 C 0.24495 0.9197 0.7164 0.0
C119 C 0.26859 0.92248 0.72328 0.0
C120 C 0.22633 0.93964 0.72989 0.0
H121 H 0.28884 0.93643 0.73864 0.0
C122 C 0.30714 0.96774 0.75983 0.0
O123 O 0.35165 0.06585 0.75821 0.0
O124 O 0.34386 0.04289 0.74284 0.0
N125 N 0.21245 0.96185 0.74326 0.0
C126 C 0.19499 0.97344 0.74742 0.0
C127 C 0.17106 0.97352 0.7414 0.0
C128 C 0.16529 0.96162 0.7312 0.0
C129 C 0.18344 0.94962 0.72712 0.0
C130 C 0.20678 0.9499 0.73352 0.0
H131 H 0.19954 0.98284 0.75523 0.0
O132 O 0.29281 0.05135 0.74644 0.0
O133 O 0.27648 0.00087 0.74485 0.0
O134 O 0.28325 0.02062 0.76644 0.0
O135 O 0.24062 0.97347 0.76313 0.0
C136 C 0.17979 0.93811 0.71688 0.0
C137 C 0.19979 0.92759 0.71317 0.0
H138 H 0.24373 0.91101 0.70858 0.0
H139 H 0.28536 0.91584 0.72079 0.0
H140 H 0.15722 0.98292 0.7446 0.0
H141 H 0.14704 0.96205 0.72655 0.0
H142 H 0.16199 0.93767 0.71175 0.0
H143 H 0.19704 0.9192 0.70523 0.0
Mn144 Mn 0.00949 0.29318 0.75623 0.0
Mn145 Mn 0.07876 0.29771 0.75171 0.0
C146 C 0.01157 0.2566 0.74564 0.0
C147 C 0.97232 0.3068 0.75101 0.0
C148 C 0.04315 0.27271 0.77194 0.0
O149 O 0.04079 0.33745 0.76096 0.0
O150 O 0.08597 0.33882 0.7571 0.0
C151 C 0.09953 0.34279 0.73418 0.0
N152 N 0.09236 0.31414 0.73804 0.0
C153 C 0.10349 0.29861 0.72164 0.0
C154 C 0.11122 0.32804 0.7175 0.0
C155 C 0.1092 0.35021 0.72379 0.0
C156 C 0.0943 0.29266 0.73207 0.0
H157 H 0.09779 0.3598 0.73897 0.0
C158 C 0.07067 0.35153 0.76064 0.0
O159 O 0.97268 0.29745 0.76049 0.0
O160 O 0.99416 0.30946 0.7449 0.0
N161 N 0.07512 0.25968 0.74647 0.0
C162 C 0.06514 0.23181 0.75148 0.0
C163 C 0.0647 0.20673 0.74616 0.0
C164 C 0.07466 0.21063 0.73577 0.0
C165 C 0.08513 0.23963 0.73082 0.0
C166 C 0.0853 0.26386 0.73654 0.0
H167 H 0.05729 0.22865 0.75944 0.0
O168 O 0.98559 0.25038 0.75006 0.0
O169 O 0.03564 0.28418 0.74757 0.0
O170 O 0.01944 0.27561 0.76949 0.0
O171 O 0.06608 0.28007 0.7658 0.0
C172 C 0.09475 0.24525 0.72036 0.0
C173 C 0.10391 0.27471 0.71577 0.0
H174 H 0.11845 0.33376 0.70947 0.0
H175 H 0.11496 0.3729 0.72064 0.0
H176 H 0.05654 0.1844 0.75003 0.0
H177 H 0.07396 0.19112 0.73166 0.0
H178 H 0.09478 0.22693 0.71573 0.0
H179 H 0.11086 0.2786 0.70768 0.0
Mn180 Mn 0.73964 0.73525 0.76279 0.0
Mn181 Mn 0.81127 0.74667 0.76907 0.0
C182 C 0.77076 0.7739 0.77466 0.0
C183 C 0.68584 0.70906 0.76611 0.0
C184 C 0.79674 0.76853 0.74862 0.0
O185 O 0.73826 0.69597 0.7572 0.0
O186 O 0.78506 0.70393 0.76299 0.0
C187 C 0.79307 0.70043 0.78617 0.0
N188 N 0.81045 0.73049 0.78268 0.0
C189 C 0.83539 0.74825 0.79943 0.0
C190 C 0.8179 0.71743 0.8032 0.0
C191 C 0.7966 0.69343 0.79655 0.0
C192 C 0.83096 0.75376 0.78901 0.0
H193 H 0.77663 0.68198 0.78108 0.0
C194 C 0.7588 0.68753 0.75818 0.0
O195 O 0.69675 0.72214 0.75713 0.0
O196 O 0.70597 0.71024 0.77291 0.0
N197 N 0.83932 0.78698 0.77494 0.0
C198 C 0.85324 0.81565 0.77022 0.0
C199 C 0.87465 0.84235 0.77588 0.0
C200 C 0.88175 0.83925 0.78629 0.0
C201 C 0.86748 0.80944 0.79093 0.0
C202 C 0.84647 0.78366 0.78489 0.0
H203 H 0.84789 0.81813 0.76222 0.0
O204 O 0.74786 0.77467 0.76989 0.0
O205 O 0.77456 0.75022 0.77244 0.0
O206 O 0.76816 0.76025 0.75051 0.0
O207 O 0.81434 0.76439 0.75505 0.0
C208 C 0.87272 0.80436 0.80139 0.0
C209 C 0.85665 0.7738 0.80564 0.0
H210 H 0.82046 0.71196 0.81121 0.0
H211 H 0.78292 0.66962 0.79941 0.0
H212 H 0.88556 0.86528 0.77225 0.0
H213 H 0.89802 0.85994 0.79067 0.0
H214 H 0.88871 0.82386 0.80628 0.0
H215 H 0.86056 0.77026 0.81373 0.0
Mn216 Mn 0.39157 0.33473 0.58913 0.0
Mn217 Mn 0.46703 0.39282 0.59095 0.0
C218 C 0.42585 0.32946 0.60024 0.0
C219 C 0.33983 0.3092 0.59489 0.0
C220 C 0.44127 0.34749 0.5728 0.0
O221 O 0.39032 0.37223 0.58258 0.0
O222 O 0.44095 0.40963 0.58499 0.0
C223 C 0.46 0.43156 0.60706 0.0
N224 N 0.47348 0.41484 0.60377 0.0
C225 C 0.50388 0.42616 0.61959 0.0
C226 C 0.49047 0.44367 0.62312 0.0
C227 C 0.46841 0.44635 0.61682 0.0
C228 C 0.49477 0.41216 0.60975 0.0
H229 H 0.44292 0.43354 0.60226 0.0
C230 C 0.41294 0.4006 0.58179 0.0
O231 O 0.34681 0.30465 0.58558 0.0
O232 O 0.3625 0.33065 0.60045 0.0
N233 N 0.49467 0.37967 0.59664 0.0
C234 C 0.50404 0.36049 0.59235 0.0
C235 C 0.52539 0.35454 0.5978 0.0
C236 C 0.537 0.36849 0.60757 0.0
C237 C 0.52726 0.38841 0.61178 0.0
C238 C 0.50613 0.39366 0.60595 0.0
H239 H 0.49507 0.3496 0.58486 0.0
O240 O 0.4007 0.3049 0.59687 0.0
O241 O 0.43032 0.35649 0.59698 0.0
O242 O 0.41345 0.33083 0.5762 0.0
O243 O 0.46292 0.3713 0.57759 0.0
C244 C 0.53714 0.40267 0.62163 0.0
C245 C 0.52545 0.42153 0.62554 0.0
H246 H 0.49673 0.45493 0.63068 0.0
H247 H 0.45784 0.4597 0.61951 0.0
H248 H 0.53275 0.3391 0.59451 0.0
H249 H 0.55318 0.36355 0.61181 0.0
H250 H 0.55335 0.39892 0.62634 0.0
H251 H 0.53289 0.43203 0.63318 0.0
Mn252 Mn 0.70635 0.0899 0.58239 0.0
Mn253 Mn 0.77665 0.1559 0.57971 0.0
C254 C 0.71437 0.12546 0.56921 0.0
C255 C 0.66999 0.03765 0.57818 0.0
C256 C 0.73061 0.14866 0.59627 0.0
O257 O 0.7349 0.07916 0.59098 0.0
O258 O 0.77985 0.1253 0.589 0.0
C259 C 0.80786 0.12765 0.56806 0.0
N260 N 0.79893 0.14966 0.56879 0.0
C261 C 0.82431 0.17373 0.55269 0.0
C262 C 0.83391 0.15141 0.55178 0.0
C263 C 0.82553 0.12819 0.55948 0.0
C264 C 0.80662 0.17191 0.56139 0.0
H265 H 0.80158 0.10989 0.57399 0.0
C266 C 0.76396 0.09781 0.59298 0.0
O267 O 0.66761 0.05053 0.58666 0.0
O268 O 0.69456 0.05443 0.57255 0.0
N269 N 0.77729 0.18785 0.57099 0.0
C270 C 0.76488 0.20665 0.5728 0.0
C271 C 0.77022 0.23053 0.56565 0.0
C272 C 0.78873 0.23518 0.55685 0.0
C273 C 0.80169 0.21586 0.55526 0.0
C274 C 0.79538 0.19233 0.5626 0.0
H275 H 0.75088 0.20331 0.57961 0.0
O276 O 0.6864 0.1067 0.57263 0.0
O277 O 0.737 0.12333 0.57369 0.0
O278 O 0.70998 0.12034 0.59403 0.0
O279 O 0.75555 0.16469 0.59101 0.0
C280 C 0.82034 0.21879 0.54662 0.0
C281 C 0.83142 0.19758 0.54529 0.0
H282 H 0.84759 0.15178 0.54518 0.0
H283 H 0.83278 0.11083 0.55881 0.0
H284 H 0.76018 0.24537 0.56695 0.0
H285 H 0.79273 0.25356 0.55134 0.0
H286 H 0.82602 0.23706 0.54089 0.0
H287 H 0.84528 0.19975 0.53852 0.0
Mn288 Mn 0.96873 0.63774 0.58961 0.0
Mn289 Mn 0.94789 0.56123 0.59025 0.0
C290 C 0.92975 0.60381 0.60069 0.0
C291 C 0.99791 0.68896 0.59581 0.0
C292 C 0.9275 0.58976 0.57306 0.0
O293 O 0.00551 0.63772 0.58246 0.0
O294 O 0.98986 0.58617 0.58369 0.0
C295 C 0.9959 0.56575 0.6053 0.0
N296 N 0.9652 0.55352 0.60254 0.0
C297 C 0.94819 0.5236 0.61842 0.0
C298 C 0.97964 0.53571 0.62139 0.0
C299 C 0.00359 0.5569 0.6148 0.0
C300 C 0.94197 0.53307 0.60881 0.0
H301 H 0.01437 0.58221 0.60029 0.0
C302 C 0.0095 0.61432 0.58083 0.0
O303 O 0.98506 0.68302 0.5866 0.0
O304 O 0.99602 0.66541 0.60101 0.0
N305 N 0.90793 0.53464 0.59644 0.0
C306 C 0.87885 0.52633 0.59266 0.0
C307 C 0.85229 0.50586 0.59844 0.0
C308 C 0.85589 0.49406 0.60803 0.0
C309 C 0.88604 0.50268 0.61171 0.0
C310 C 0.91163 0.52292 0.60555 0.0
H311 H 0.87597 0.53549 0.58532 0.0
O312 O 0.93136 0.62982 0.59777 0.0
O313 O 0.95109 0.59835 0.59701 0.0
O314 O 0.94103 0.61757 0.57673 0.0
O315 O 0.92857 0.56692 0.57744 0.0
C316 C 0.89174 0.49249 0.62134 0.0
C317 C 0.92279 0.50297 0.62469 0.0
H318 H 0.98567 0.52912 0.62875 0.0
H319 H 0.02791 0.56648 0.61707 0.0
H320 H 0.8291 0.49935 0.59556 0.0
H321 H 0.83536 0.47856 0.61253 0.0
H322 H 0.87242 0.47693 0.62628 0.0
H323 H 0.92688 0.49528 0.63217 0.0
Mn324 Mn 0.98101 0.37691 0.09175 0.0
Mn325 Mn 0.90869 0.31401 0.09414 0.0
C326 C 0.93975 0.37402 0.08214 0.0
C327 C 0.02905 0.40267 0.08328 0.0
C328 C 0.93777 0.36596 0.11019 0.0
O329 O 0.98982 0.34463 0.09868 0.0
O330 O 0.94037 0.30364 0.09973 0.0
C331 C 0.91479 0.27236 0.07899 0.0
N332 N 0.89991 0.28782 0.08219 0.0
C333 C 0.86476 0.2691 0.06743 0.0
C334 C 0.87955 0.25278 0.06401 0.0
C335 C 0.90467 0.25443 0.06982 0.0
C336 C 0.87563 0.28629 0.07669 0.0
H337 H 0.9343 0.27382 0.08337 0.0
C338 C 0.97004 0.31644 0.10132 0.0
O339 O 0.02606 0.41068 0.09264 0.0
O340 O 0.00484 0.37858 0.07922 0.0
N341 N 0.87612 0.32105 0.089 0.0
C342 C 0.86567 0.33967 0.09303 0.0
C343 C 0.8412 0.34145 0.08797 0.0
C344 C 0.82772 0.32407 0.07884 0.0
C345 C 0.83874 0.30492 0.07488 0.0
C346 C 0.86295 0.3038 0.08032 0.0
H347 H 0.87616 0.35328 0.1 0.0
O348 O 0.96447 0.40096 0.08404 0.0
O349 O 0.93988 0.3496 0.08605 0.0
O350 O 0.96365 0.38302 0.1055 0.0
O351 O 0.91568 0.33993 0.10664 0.0
C352 C 0.82714 0.28746 0.06561 0.0
C353 C 0.84014 0.26956 0.06189 0.0
H354 H 0.87201 0.23917 0.05689 0.0
H355 H 0.91633 0.24206 0.06719 0.0
H356 H 0.83289 0.35635 0.09106 0.0
H357 H 0.80912 0.32581 0.07489 0.0
H358 H 0.80854 0.28799 0.0612 0.0
H359 H 0.83131 0.25658 0.05469 0.0
Mn360 Mn 0.67819 0.63017 0.08844 0.0
Mn361 Mn 0.74548 0.62797 0.08946 0.0
C362 C 0.68252 0.59255 0.07913 0.0
C363 C 0.64602 0.64767 0.08124 0.0
C364 C 0.69653 0.59969 0.10616 0.0
O365 O 0.70882 0.67311 0.09451 0.0
O366 O 0.75123 0.66739 0.09586 0.0
C367 C 0.77975 0.68007 0.07453 0.0
N368 N 0.7689 0.64965 0.07739 0.0
C369 C 0.79054 0.64001 0.06209 0.0
C370 C 0.80209 0.67128 0.05901 0.0
C371 C 0.79661 0.69136 0.06525 0.0
C372 C 0.77379 0.63006 0.0714 0.0
H373 H 0.77553 0.69558 0.07928 0.0
C374 C 0.73708 0.68287 0.09736 0.0
O375 O 0.64219 0.637 0.0907 0.0
O376 O 0.66943 0.64946 0.07613 0.0
N377 N 0.74441 0.59169 0.08366 0.0
C378 C 0.73247 0.56247 0.08788 0.0
C379 C 0.7364 0.53965 0.08269 0.0
C380 C 0.75298 0.54725 0.0733 0.0
C381 C 0.76569 0.57768 0.06923 0.0
C382 C 0.76125 0.59951 0.0748 0.0
H383 H 0.71981 0.55653 0.09512 0.0
O384 O 0.65526 0.58844 0.08153 0.0
O385 O 0.70678 0.61905 0.08204 0.0
O386 O 0.67859 0.60904 0.10229 0.0
O387 O 0.72184 0.60454 0.10184 0.0
C388 C 0.78259 0.5872 0.05987 0.0
C389 C 0.79488 0.61831 0.05627 0.0
H390 H 0.81513 0.68009 0.05186 0.0
H391 H 0.80536 0.7155 0.06291 0.0
H392 H 0.72667 0.51626 0.08591 0.0
H393 H 0.75601 0.52963 0.06932 0.0
H394 H 0.7862 0.57077 0.05535 0.0
H395 H 0.80772 0.62533 0.04904 0.0
Mn396 Mn 0.40617 0.07523 0.09707 0.0
Mn397 Mn 0.47941 0.0857 0.09758 0.0
C398 C 0.44148 0.10499 0.1101 0.0
C399 C 0.35319 0.04889 0.10173 0.0
C400 C 0.45998 0.1211 0.08288 0.0
O401 O 0.40143 0.03975 0.08765 0.0
O402 O 0.45156 0.05038 0.08822 0.0
C403 C 0.46415 0.0261 0.10814 0.0
N404 N 0.48119 0.05804 0.10771 0.0
C405 C 0.51144 0.06019 0.12284 0.0
C406 C 0.49431 0.02731 0.12343 0.0
C407 C 0.47046 0.0102 0.11608 0.0
C408 C 0.5039 0.07473 0.11482 0.0
H409 H 0.44596 0.01288 0.10246 0.0
C410 C 0.42323 0.03451 0.08487 0.0
O411 O 0.36308 0.06664 0.09353 0.0
O412 O 0.37379 0.04518 0.10696 0.0
N413 N 0.5092 0.11896 0.10628 0.0
C414 C 0.52263 0.15057 0.10487 0.0
C415 C 0.54642 0.17109 0.11174 0.0
C416 C 0.55657 0.1589 0.11984 0.0
C417 C 0.54275 0.12628 0.12102 0.0
C418 C 0.51897 0.107 0.114 0.0
H419 H 0.51511 0.16004 0.0986 0.0
O420 O 0.4184 0.1094 0.10759 0.0
O421 O 0.44359 0.08365 0.10484 0.0
O422 O 0.4313 0.10744 0.08563 0.0
O423 O 0.48024 0.11548 0.08709 0.0
C424 C 0.55149 0.11212 0.12893 0.0
C425 C 0.53563 0.07912 0.12991 0.0
H426 H 0.49919 0.01495 0.12951 0.0
H427 H 0.45708 0.98483 0.11649 0.0
H428 H 0.557 0.19624 0.11077 0.0
H429 H 0.5749 0.17479 0.12513 0.0
H430 H 0.57012 0.12643 0.13439 0.0
H431 H 0.54219 0.06854 0.13614 0.0
Mn432 Mn 0.06071 0.66912 0.91999 0.0
Mn433 Mn 0.13747 0.72249 0.92296 0.0
C434 C 0.09131 0.65987 0.93162 0.0
C435 C 0.00893 0.64823 0.92546 0.0
C436 C 0.11168 0.67729 0.90468 0.0
O437 O 0.06356 0.70813 0.91327 0.0
O438 O 0.11504 0.74205 0.91599 0.0
C439 C 0.13077 0.76369 0.93816 0.0
N440 N 0.14316 0.74541 0.93553 0.0
C441 C 0.17075 0.75587 0.95192 0.0
C442 C 0.1585 0.77503 0.95476 0.0
C443 C 0.13837 0.7789 0.94786 0.0
C444 C 0.16249 0.74146 0.94213 0.0
H445 H 0.11513 0.76658 0.93291 0.0
C446 C 0.08788 0.73538 0.9125 0.0
O447 O 0.01522 0.64205 0.91626 0.0
O448 O 0.03248 0.66834 0.93101 0.0
N449 N 0.16206 0.70712 0.92966 0.0
C450 C 0.17049 0.6865 0.92599 0.0
C451 C 0.19003 0.67944 0.93207 0.0
C452 C 0.20082 0.69375 0.94183 0.0
C453 C 0.19203 0.71506 0.94542 0.0
C454 C 0.17274 0.72141 0.93898 0.0
H455 H 0.16201 0.67518 0.91854 0.0
O456 O 0.06554 0.6368 0.92792 0.0
O457 O 0.09854 0.68782 0.92841 0.0
O458 O 0.0828 0.6636 0.90729 0.0
O459 O 0.13372 0.69931 0.91002 0.0
C460 C 0.20106 0.72971 0.95524 0.0
C461 C 0.19039 0.75006 0.95849 0.0
H462 H 0.16416 0.78665 0.96226 0.0
H463 H 0.12866 0.79349 0.95003 0.0
H464 H 0.19658 0.66284 0.92926 0.0
H465 H 0.21559 0.68797 0.94655 0.0
H466 H 0.21582 0.72512 0.96041 0.0
H467 H 0.19715 0.76086 0.96612 0.0
Mn468 Mn 0.37386 0.42063 0.9197 0.0
Mn469 Mn 0.44747 0.48115 0.91624 0.0
C470 C 0.3841 0.45729 0.90669 0.0
C471 C 0.33438 0.36934 0.91566 0.0
C472 C 0.40594 0.4783 0.93393 0.0
O473 O 0.40049 0.40674 0.92805 0.0
O474 O 0.44861 0.44733 0.92431 0.0
C475 C 0.46979 0.44921 0.90219 0.0
N476 N 0.46455 0.47338 0.90409 0.0
C477 C 0.48479 0.49646 0.88736 0.0
C478 C 0.49061 0.47192 0.88523 0.0
C479 C 0.483 0.44815 0.89267 0.0
C480 C 0.47163 0.49627 0.89698 0.0
H481 H 0.46386 0.43088 0.90789 0.0
C482 C 0.43039 0.42143 0.92897 0.0
O483 O 0.33362 0.38307 0.92418 0.0
O484 O 0.35888 0.38469 0.90988 0.0
N485 N 0.45 0.51593 0.90866 0.0
C486 C 0.44217 0.53746 0.91184 0.0
C487 C 0.44801 0.56271 0.90527 0.0
C488 C 0.46207 0.5657 0.89555 0.0
C489 C 0.47032 0.54347 0.89252 0.0
C490 C 0.46424 0.51901 0.89944 0.0
H491 H 0.43145 0.5353 0.91932 0.0
O492 O 0.35588 0.44009 0.91017 0.0
O493 O 0.40539 0.45243 0.91089 0.0
O494 O 0.38145 0.45261 0.93128 0.0
O495 O 0.43147 0.491 0.9288 0.0
C496 C 0.48398 0.5444 0.88285 0.0
C497 C 0.49112 0.52086 0.88025 0.0
H498 H 0.5007 0.47096 0.87789 0.0
H499 H 0.48728 0.42906 0.89107 0.0
H500 H 0.44162 0.5798 0.90767 0.0
H501 H 0.46635 0.58509 0.89048 0.0
H502 H 0.48876 0.56292 0.8773 0.0
H503 H 0.50127 0.52161 0.87275 0.0
Mn504 Mn 0.63855 0.97203 0.92245 0.0
Mn505 Mn 0.62065 0.89709 0.92617 0.0
C506 C 0.59989 0.94072 0.93408 0.0
C507 C 0.66809 0.02476 0.92702 0.0
C508 C 0.59965 0.91908 0.90713 0.0
O509 O 0.67556 0.97088 0.91596 0.0
O510 O 0.66344 0.92151 0.92018 0.0
C511 C 0.667 0.90816 0.94284 0.0
N512 N 0.63665 0.89392 0.93947 0.0
C513 C 0.61799 0.86941 0.95615 0.0
C514 C 0.64907 0.88361 0.95978 0.0
C515 C 0.67367 0.90309 0.9531 0.0
C516 C 0.6128 0.87521 0.94585 0.0
H517 H 0.68596 0.92339 0.93776 0.0
C518 C 0.68168 0.94853 0.91615 0.0
O519 O 0.65445 0.01628 0.91794 0.0
O520 O 0.66604 0.00273 0.93311 0.0
N521 N 0.58002 0.87095 0.932 0.0
C522 C 0.55137 0.85926 0.92732 0.0
C523 C 0.52423 0.83924 0.93295 0.0
C524 C 0.52685 0.83138 0.9433 0.0
C525 C 0.55661 0.84332 0.9479 0.0
C526 C 0.58283 0.86276 0.94185 0.0
H527 H 0.54921 0.86527 0.91938 0.0
O528 O 0.60103 0.96571 0.93028 0.0
O529 O 0.62169 0.93511 0.93104 0.0
O530 O 0.61083 0.94751 0.91004 0.0
O531 O 0.60269 0.89858 0.91241 0.0
C532 C 0.56129 0.83698 0.95827 0.0
C533 C 0.59195 0.85009 0.9624 0.0
H534 H 0.65431 0.8799 0.9677 0.0
H535 H 0.69771 0.91428 0.95586 0.0
H536 H 0.50135 0.83005 0.92934 0.0
H537 H 0.50586 0.81625 0.94766 0.0
H538 H 0.54145 0.82226 0.96316 0.0
H539 H 0.59523 0.84527 0.97042 0.0
Mn540 Mn 0.64714 0.69975 0.41894 0.0
Mn541 Mn 0.57895 0.63228 0.41556 0.0
C542 C 0.61074 0.69811 0.40715 0.0
C543 C 0.69946 0.72976 0.41391 0.0
C544 C 0.59325 0.67475 0.43444 0.0
O545 O 0.65528 0.66733 0.42574 0.0
O546 O 0.6105 0.62266 0.42187 0.0
C547 C 0.59826 0.60309 0.39936 0.0
N548 N 0.57911 0.61391 0.40252 0.0
C549 C 0.55139 0.60016 0.38611 0.0
C550 C 0.57067 0.58865 0.38271 0.0
C551 C 0.59422 0.59015 0.38936 0.0
C552 C 0.55631 0.61249 0.3962 0.0
H553 H 0.61652 0.60441 0.40443 0.0
C554 C 0.63815 0.63751 0.4259 0.0
O555 O 0.69031 0.73463 0.42282 0.0
O556 O 0.67846 0.7076 0.40815 0.0
N557 N 0.54664 0.63827 0.40952 0.0
C558 C 0.53147 0.65225 0.41375 0.0
C559 C 0.50796 0.65381 0.40795 0.0
C560 C 0.50024 0.64089 0.39789 0.0
C561 C 0.51602 0.62641 0.39374 0.0
C562 C 0.53905 0.62533 0.39992 0.0
H563 H 0.53745 0.66237 0.42145 0.0
O564 O 0.63259 0.72474 0.41083 0.0
O565 O 0.61115 0.67324 0.41046 0.0
O566 O 0.62007 0.69709 0.43154 0.0
O567 O 0.57667 0.64992 0.42905 0.0
C568 C 0.5103 0.61365 0.38363 0.0
C569 C 0.52798 0.60055 0.37981 0.0
H570 H 0.56781 0.57889 0.37496 0.0
H571 H 0.6093 0.58147 0.38676 0.0
H572 H 0.49594 0.6651 0.4112 0.0
H573 H 0.48233 0.64245 0.3934 0.0
H574 H 0.49268 0.61422 0.37866 0.0
H575 H 0.52367 0.59122 0.37197 0.0
Mn576 Mn 0.34957 0.97742 0.41944 0.0
Mn577 Mn 0.41394 0.97099 0.41644 0.0
C578 C 0.34717 0.93843 0.409 0.0
C579 C 0.31944 0.99927 0.41373 0.0
C580 C 0.37293 0.94651 0.43545 0.0
O581 O 0.38405 0.01934 0.42468 0.0
O582 O 0.42546 0.01213 0.4231 0.0
C583 C 0.44426 0.0208 0.40052 0.0
N584 N 0.43264 0.99038 0.40351 0.0
C585 C 0.44579 0.97711 0.38704 0.0
C586 C 0.45812 0.00836 0.38381 0.0
C587 C 0.4573 0.03028 0.39057 0.0
C588 C 0.43325 0.96909 0.39706 0.0
H589 H 0.44354 0.03768 0.40567 0.0
C590 C 0.41301 0.0284 0.42587 0.0
O591 O 0.31685 0.98859 0.42318 0.0
O592 O 0.33986 0.99794 0.40786 0.0
N593 N 0.40689 0.93274 0.41019 0.0
C594 C 0.39303 0.90332 0.41436 0.0
C595 C 0.39128 0.87846 0.4085 0.0
C596 C 0.40407 0.88417 0.39847 0.0
C597 C 0.4187 0.91475 0.39441 0.0
C598 C 0.4199 0.93862 0.40064 0.0
H599 H 0.38299 0.89877 0.42204 0.0
O600 O 0.32186 0.93593 0.41289 0.0
O601 O 0.37335 0.96396 0.41129 0.0
O602 O 0.35382 0.95605 0.43289 0.0
O603 O 0.39545 0.95007 0.42968 0.0
C604 C 0.43154 0.92238 0.38436 0.0
C605 C 0.44504 0.95352 0.38067 0.0
H606 H 0.46806 0.01573 0.37613 0.0
H607 H 0.46663 0.0544 0.38811 0.0
H608 H 0.37993 0.85492 0.41169 0.0
H609 H 0.40235 0.86488 0.39393 0.0
H610 H 0.43083 0.90439 0.37934 0.0
H611 H 0.45455 0.95903 0.37288 0.0
Mn612 Mn 0.06305 0.39319 0.4276 0.0
Mn613 Mn 0.12541 0.38478 0.4331 0.0
C614 C 0.09873 0.42478 0.44014 0.0
C615 C 0.01039 0.37592 0.43091 0.0
C616 C 0.12119 0.41899 0.41386 0.0
O617 O 0.05182 0.35188 0.4207 0.0
O618 O 0.09249 0.34621 0.42586 0.0
C619 C 0.09577 0.334 0.44872 0.0
N620 N 0.1188 0.36344 0.44611 0.0
C621 C 0.14192 0.37207 0.46324 0.0
C622 C 0.11857 0.34175 0.4661 0.0
C623 C 0.09536 0.32266 0.45882 0.0
C624 C 0.14117 0.38204 0.45306 0.0
H625 H 0.07782 0.31935 0.44315 0.0
C626 C 0.06629 0.3365 0.42102 0.0
O627 O 0.02329 0.39053 0.42229 0.0
O628 O 0.0279 0.37129 0.4374 0.0
N629 N 0.1592 0.42001 0.44003 0.0
C630 C 0.17945 0.44899 0.43612 0.0
C631 C 0.20375 0.47119 0.44248 0.0
C632 C 0.20719 0.46326 0.45274 0.0
C633 C 0.18641 0.4331 0.45653 0.0
C634 C 0.16275 0.4119 0.44981 0.0
H635 H 0.17692 0.4552 0.42823 0.0
O636 O 0.07962 0.43254 0.43588 0.0
O637 O 0.09575 0.39816 0.43711 0.0
O638 O 0.09469 0.41677 0.41582 0.0
O639 O 0.13405 0.40754 0.41978 0.0
C640 C 0.18793 0.42339 0.46676 0.0
C641 C 0.16564 0.39294 0.47012 0.0
H642 H 0.11811 0.33296 0.47389 0.0
H643 H 0.07718 0.2993 0.46099 0.0
H644 H 0.21973 0.4944 0.43949 0.0
H645 H 0.22577 0.48054 0.45766 0.0
H646 H 0.20593 0.43928 0.47213 0.0
H647 H 0.16682 0.38588 0.47804 0.0
Zn648 Zn 0.01654 0.02643 0.13177 0.0
Zn649 Zn 0.01844 0.01778 0.17219 0.0
Zn650 Zn 0.01887 0.02266 0.15233 0.0
C651 C 0.05319 0.99171 0.16549 0.0
C652 C 0.04642 0.08151 0.16826 0.0
O653 O 0.03489 0.07248 0.14818 0.0
O654 O 0.029 0.07149 0.13105 0.0
C655 C 0.95644 0.9812 0.13808 0.0
O656 O 0.04577 0.99872 0.15661 0.0
O657 O 0.0451 0.99896 0.17382 0.0
O658 O 0.03708 0.06241 0.17577 0.0
O659 O 0.04186 0.07133 0.15881 0.0
O660 O 0.97163 0.99372 0.12989 0.0
O661 O 0.96997 0.99021 0.14707 0.0
O662 O 0.05107 0.00723 0.14598 0.0
O663 O 0.04904 0.01483 0.12908 0.0
C664 C 0.06042 0.00713 0.13664 0.0
O665 O 0.96922 0.99583 0.15788 0.0
O666 O 0.97339 0.99091 0.17484 0.0
C667 C 0.03615 0.08651 0.13952 0.0
C668 C 0.95642 0.98616 0.16688 0.0
Zn669 Zn 0.02213 0.02279 0.33613 0.0
Zn670 Zn 0.01813 0.02194 0.37556 0.0
Zn671 Zn 0.02109 0.02245 0.35557 0.0
C672 C 0.99459 0.05962 0.36926 0.0
C673 C 0.98291 0.95991 0.3698 0.0
O674 O 0.9948 0.97278 0.34985 0.0
O675 O 0.9906 0.97884 0.33299 0.0
C676 C 0.08347 0.04596 0.34188 0.0
O677 O 0.00209 0.05314 0.3604 0.0
O678 O 0.99754 0.04706 0.37746 0.0
O679 O 0.99332 0.97639 0.37792 0.0
O680 O 0.99044 0.97295 0.36075 0.0
O681 O 0.06617 0.03476 0.33393 0.0
O682 O 0.07117 0.0448 0.3508 0.0
O683 O 0.99854 0.04917 0.34943 0.0
O684 O 0.01038 0.05457 0.33274 0.0
C685 C 0.99774 0.05996 0.34032 0.0
O686 O 0.06989 0.04181 0.36177 0.0
O687 O 0.06328 0.04247 0.37873 0.0
C688 C 0.98464 0.96092 0.34073 0.0
C689 C 0.08124 0.0478 0.37112 0.0
Zn690 Zn 0.03288 0.02281 0.88099 0.0
Zn691 Zn 0.03444 0.03641 0.84093 0.0
Zn692 Zn 0.03316 0.02917 0.86049 0.0
C693 C 0.06375 0.09627 0.84822 0.0
C694 C 0.97167 0.00239 0.84549 0.0
O695 O 0.05535 0.00038 0.86436 0.0
O696 O 0.05405 0.99756 0.88157 0.0
C697 C 0.06807 0.08723 0.87694 0.0
O698 O 0.05531 0.08056 0.85681 0.0
O699 O 0.05952 0.08214 0.83968 0.0
O700 O 0.98928 0.01713 0.83798 0.0
O701 O 0.98365 0.00372 0.85458 0.0
O702 O 0.05796 0.06811 0.88446 0.0
O703 O 0.06077 0.07708 0.8675 0.0
O704 O 0.98351 0.00502 0.86556 0.0
O705 O 0.98666 0.00084 0.88264 0.0
C706 C 0.97028 0.99636 0.87451 0.0
O707 O 0.05944 0.00743 0.85368 0.0
O708 O 0.05412 0.01213 0.83677 0.0
C709 C 0.06098 0.99039 0.87297 0.0
C710 C 0.06434 0.00278 0.84418 0.0
Zn711 Zn 0.02221 0.00475 0.67631 0.0
Zn712 Zn 0.00611 0.00572 0.63727 0.0
Zn713 Zn 0.01623 0.00769 0.65666 0.0
C714 C 0.99441 0.94675 0.64187 0.0
C715 C 0.06916 0.05054 0.64028 0.0
O716 O 0.99402 0.03246 0.66415 0.0
O717 O 0.00038 0.02665 0.68092 0.0
C718 C 0.98766 0.94342 0.67067 0.0
O719 O 0.99768 0.95839 0.65108 0.0
O720 O 0.99839 0.96373 0.634 0.0
O721 O 0.0476 0.04146 0.6335 0.0
O722 O 0.06278 0.03894 0.64956 0.0
O723 O 0.00079 0.95936 0.67872 0.0
O724 O 0.99147 0.95724 0.66178 0.0
O725 O 0.06768 0.03323 0.65998 0.0
O726 O 0.06797 0.02828 0.6771 0.0
C727 C 0.08268 0.0382 0.66869 0.0
O728 O 0.98366 0.0261 0.65378 0.0
O729 O 0.96909 0.01086 0.63751 0.0
C730 C 0.9907 0.03743 0.67378 0.0
C731 C 0.96575 0.02216 0.64586 0.0
Zn732 Zn 0.69143 0.35797 0.50517 0.0
Zn733 Zn 0.68137 0.35609 0.4641 0.0
Zn734 Zn 0.68709 0.35771 0.48483 0.0
C735 C 0.7231 0.33506 0.46905 0.0
C736 C 0.62182 0.31636 0.472 0.0
O737 O 0.63902 0.33154 0.49146 0.0
O738 O 0.64657 0.33068 0.50843 0.0
C739 C 0.71765 0.42031 0.49919 0.0
O740 O 0.71691 0.34009 0.47833 0.0
O741 O 0.70985 0.33944 0.46127 0.0
O742 O 0.63547 0.32694 0.46342 0.0
O743 O 0.63734 0.32576 0.48063 0.0
O744 O 0.71014 0.40362 0.5073 0.0
O745 O 0.7112 0.40739 0.49012 0.0
O746 O 0.71465 0.33499 0.48919 0.0
O747 O 0.71923 0.33994 0.50632 0.0
C748 C 0.72483 0.33048 0.49795 0.0
O749 O 0.70374 0.40629 0.47943 0.0
O750 O 0.6978 0.40166 0.46231 0.0
C751 C 0.62807 0.32344 0.50074 0.0
C752 C 0.70576 0.41858 0.47038 0.0
Zn753 Zn 0.68893 0.35847 0.71019 0.0
Zn754 Zn 0.68842 0.35641 0.67109 0.0
Zn755 Zn 0.68848 0.35689 0.69025 0.0
C756 C 0.62662 0.32219 0.6756 0.0
C757 C 0.71697 0.41826 0.67525 0.0
O758 O 0.71377 0.33275 0.69606 0.0
O759 O 0.70758 0.33193 0.71309 0.0
C760 C 0.62646 0.32824 0.70465 0.0
O761 O 0.63866 0.33338 0.68462 0.0
O762 O 0.64426 0.32607 0.66804 0.0
O763 O 0.70268 0.40049 0.66766 0.0
O764 O 0.7155 0.4063 0.68434 0.0
O765 O 0.64366 0.33992 0.71261 0.0
O766 O 0.63897 0.33182 0.69562 0.0
O767 O 0.71318 0.40712 0.69528 0.0
O768 O 0.71587 0.40395 0.7124 0.0
C769 C 0.72201 0.42041 0.70427 0.0
O770 O 0.71092 0.3295 0.68506 0.0
O771 O 0.71825 0.34186 0.66839 0.0
C772 C 0.71819 0.32502 0.70528 0.0
C773 C 0.72164 0.32789 0.67611 0.0
Zn774 Zn 0.69124 0.36032 0.21576 0.0
Zn775 Zn 0.69484 0.36189 0.17481 0.0
Zn776 Zn 0.69352 0.36124 0.19503 0.0
C777 C 0.66089 0.39045 0.18013 0.0
C778 C 0.66354 0.2993 0.18021 0.0
O779 O 0.67539 0.31187 0.20012 0.0
O780 O 0.67772 0.31494 0.2173 0.0
C781 C 0.7538 0.40227 0.21004 0.0
O782 O 0.66775 0.38492 0.18932 0.0
O783 O 0.66945 0.38189 0.17219 0.0
O784 O 0.67431 0.31639 0.17225 0.0
O785 O 0.66887 0.31186 0.18934 0.0
O786 O 0.73616 0.39201 0.21787 0.0
O787 O 0.74239 0.39242 0.20083 0.0
O788 O 0.66172 0.37845 0.19996 0.0
O789 O 0.65956 0.37382 0.21712 0.0
C790 C 0.65053 0.38058 0.20875 0.0
O791 O 0.74364 0.38713 0.19006 0.0
O792 O 0.74035 0.38737 0.17287 0.0
C793 C 0.67205 0.29878 0.20911 0.0
C794 C 0.75684 0.39466 0.18106 0.0
Zn795 Zn 0.69558 0.31985 1.00124 0.0
Zn796 Zn 0.67492 0.34665 0.96999 0.0
Zn797 Zn 0.69068 0.34571 0.98732 0.0
C798 C 0.67508 0.2904 0.97208 0.0
C799 C 0.73705 0.39909 0.97325 0.0
O800 O 0.66906 0.35872 0.99973 0.0
O801 O 0.69953 0.35433 0.01144 0.0
C802 C 0.63382 0.29503 0.99897 0.0
O803 O 0.6846 0.30225 0.98111 0.0
O804 O 0.66763 0.30478 0.96549 0.0
O805 O 0.71594 0.38434 0.96645 0.0
O806 O 0.73253 0.38919 0.98268 0.0
O807 O 0.6512 0.28283 0.99926 0.0
O808 O 0.64604 0.32394 0.99609 0.0
O809 O 0.7387 0.37163 0.99322 0.0
O810 O 0.73604 0.32612 0.99523 0.0
C811 C 0.75249 0.35584 0.99517 0.0
O812 O 0.6498 0.35277 0.98967 0.0
O813 O 0.63862 0.35248 0.97292 0.0
C814 C 0.68291 0.36624 0.00872 0.0
C815 C 0.63295 0.35503 0.98231 0.0
Zn816 Zn 0.35039 0.679 0.83342 0.0
Zn817 Zn 0.35621 0.68688 0.79498 0.0
Zn818 Zn 0.35415 0.68359 0.81546 0.0
C819 C 0.3958 0.66408 0.80137 0.0
C820 C 0.29358 0.64531 0.80055 0.0
O821 O 0.30374 0.66033 0.82027 0.0
O822 O 0.31292 0.68302 0.83564 0.0
C823 C 0.39801 0.73775 0.83013 0.0
O824 O 0.38545 0.66584 0.81037 0.0
O825 O 0.38659 0.67187 0.79326 0.0
O826 O 0.31081 0.65649 0.79265 0.0
O827 O 0.30545 0.6538 0.80977 0.0
O828 O 0.39229 0.71573 0.8364 0.0
O829 O 0.38141 0.73189 0.82176 0.0
O830 O 0.37649 0.65633 0.82078 0.0
O831 O 0.34582 0.63654 0.83437 0.0
C832 C 0.36527 0.63601 0.8282 0.0
O833 O 0.37307 0.73367 0.81142 0.0
O834 O 0.37153 0.73281 0.79419 0.0
C835 C 0.29383 0.66763 0.82845 0.0
C836 C 0.37706 0.74787 0.80262 0.0
Zn837 Zn 0.34594 0.69105 0.04237 0.0
Zn838 Zn 0.35631 0.69884 1.00242 0.0
Zn839 Zn 0.35356 0.69401 0.02224 0.0
C840 C 0.29418 0.66108 0.00601 0.0
C841 C 0.38549 0.75941 0.00876 0.0
O842 O 0.38349 0.67581 0.02841 0.0
O843 O 0.37909 0.68034 0.04534 0.0
C844 C 0.28816 0.64927 0.03452 0.0
O845 O 0.30516 0.66726 0.0154 0.0
O846 O 0.31241 0.67169 0.99837 0.0
O847 O 0.375 0.7443 1.00039 0.0
O848 O 0.37969 0.74468 0.01754 0.0
O849 O 0.30189 0.65772 0.04323 0.0
O850 O 0.30334 0.66113 0.02602 0.0
O851 O 0.36942 0.74246 0.02794 0.0
O852 O 0.35413 0.7342 0.04434 0.0
C853 C 0.36537 0.75259 0.03668 0.0
O854 O 0.3814 0.67212 0.01744 0.0
O855 O 0.38421 0.6814 1.00051 0.0
C856 C 0.39126 0.67374 0.03787 0.0
C857 C 0.39082 0.67003 0.00832 0.0
Zn858 Zn 0.35623 0.69758 0.5446 0.0
Zn859 Zn 0.36732 0.69695 0.50902 0.0
Zn860 Zn 0.36225 0.69524 0.52623 0.0
C861 C 0.36353 0.74777 0.51293 0.0
C862 C 0.31438 0.64327 0.51189 0.0
O863 O 0.38341 0.66778 0.53235 0.0
O864 O 0.36129 0.66062 0.54768 0.0
C865 C 0.40093 0.75765 0.53996 0.0
O866 O 0.37715 0.74415 0.52102 0.0
O867 O 0.35056 0.7256 0.50646 0.0
O868 O 0.3388 0.65115 0.50669 0.0
O869 O 0.31566 0.66128 0.51936 0.0
O870 O 0.39144 0.73983 0.5478 0.0
O871 O 0.39002 0.74624 0.53083 0.0
O872 O 0.31058 0.67161 0.52876 0.0
O873 O 0.31371 0.69253 0.54418 0.0
C874 C 0.29751 0.67761 0.53635 0.0
O875 O 0.39623 0.67962 0.52215 0.0
O876 O 0.41347 0.71394 0.50939 0.0
C877 C 0.37606 0.6537 0.54123 0.0
C878 C 0.41742 0.69572 0.51535 0.0
Zn879 Zn 0.34199 0.67731 0.30274 0.0
Zn880 Zn 0.35499 0.68077 0.34238 0.0
Zn881 Zn 0.3498 0.68087 0.32259 0.0
C882 C 0.41573 0.71304 0.33516 0.0
C883 C 0.32177 0.61863 0.33752 0.0
O884 O 0.31814 0.69959 0.31869 0.0
O885 O 0.30675 0.68543 0.30219 0.0
C886 C 0.40521 0.72084 0.30635 0.0
O887 O 0.40099 0.70605 0.32634 0.0
O888 O 0.40072 0.7054 0.34356 0.0
O889 O 0.3346 0.63568 0.34538 0.0
O890 O 0.32513 0.63117 0.32842 0.0
O891 O 0.38485 0.71083 0.29914 0.0
O892 O 0.39711 0.71092 0.31575 0.0
O893 O 0.32987 0.63082 0.3177 0.0
O894 O 0.33122 0.63371 0.30052 0.0
C895 C 0.32598 0.61767 0.30872 0.0
O896 O 0.32723 0.70665 0.32915 0.0
O897 O 0.33175 0.70195 0.34612 0.0
C898 C 0.30206 0.69653 0.31035 0.0
C899 C 0.32274 0.71211 0.3386 0.0
C900 C 0.24376 0.26131 0.22704 0.0
C901 C 0.24904 0.23989 0.2328 0.0
C902 C 0.2224 0.25099 0.21868 0.0
C903 C 0.15117 0.18202 0.2098 0.0
H904 H 0.17112 0.21643 0.18185 0.0
C905 C 0.09829 0.13023 0.16802 0.0
C906 C 0.06661 0.11492 0.17088 0.0
C907 C 0.12094 0.15463 0.17421 0.0
C908 C 0.16518 0.20685 0.18964 0.0
H909 H 0.23622 0.19087 0.23412 0.0
H910 H 0.19855 0.17294 0.21975 0.0
H911 H 0.21086 0.23957 0.19581 0.0
H912 H 0.0331 0.11581 0.18139 0.0
H913 H 0.07227 0.1591 0.19191 0.0
H914 H 0.10602 0.14893 0.20378 0.0
C915 C 0.21108 0.1977 0.22169 0.0
C916 C 0.18783 0.2201 0.19761 0.0
C917 C 0.23274 0.20803 0.22991 0.0
C918 C 0.05742 0.12731 0.17903 0.0
C919 C 0.0799 0.15181 0.18513 0.0
C920 C 0.12853 0.16916 0.20193 0.0
C921 C 0.20552 0.219 0.21604 0.0
C922 C 0.18117 0.20729 0.20771 0.0
C923 C 0.11201 0.16403 0.18327 0.0
C924 C 0.13532 0.18105 0.19171 0.0
H925 H 0.25608 0.28604 0.22901 0.0
H926 H 0.21845 0.26785 0.21445 0.0
H927 H 0.14536 0.17185 0.21753 0.0
H928 H 0.10596 0.12083 0.16184 0.0
H929 H 0.14549 0.16363 0.17255 0.0
C930 C 0.80529 0.04429 0.22166 0.0
C931 C 0.79044 0.02208 0.22959 0.0
C932 C 0.81528 0.03634 0.21262 0.0
C933 C 0.81186 0.96787 0.19827 0.0
H934 H 0.8887 0.03399 0.18628 0.0
C935 C 0.90728 0.95506 0.1768 0.0
C936 C 0.92316 0.97611 0.16864 0.0
C937 C 0.88215 0.9552 0.18169 0.0
C938 C 0.86685 0.01536 0.18939 0.0
H939 H 0.77422 0.97406 0.23428 0.0
H940 H 0.79336 0.9606 0.21886 0.0
H941 H 0.86438 0.04632 0.20033 0.0
H942 H 0.92305 0.0112 0.15842 0.0
H943 H 0.87942 0.01188 0.16709 0.0
H944 H 0.81639 0.93658 0.18773 0.0
C945 C 0.79627 0.98387 0.21933 0.0
C946 C 0.85272 0.02241 0.19748 0.0
C947 C 0.78548 0.99161 0.22826 0.0
C948 C 0.91107 0.99454 0.16463 0.0
C949 C 0.88633 0.99518 0.16967 0.0
C950 C 0.82649 0.9607 0.1903 0.0
C951 C 0.81161 0.0062 0.21139 0.0
C952 C 0.82518 0.99875 0.20217 0.0
C953 C 0.87287 0.9768 0.17861 0.0
C954 C 0.85431 0.98437 0.18585 0.0
H955 H 0.80899 0.06784 0.22241 0.0
H956 H 0.82603 0.05404 0.20662 0.0
H957 H 0.79035 0.94902 0.20146 0.0
H958 H 0.91628 0.94074 0.18006 0.0
H959 H 0.87226 0.9408 0.18855 0.0
C960 C 0.05764 0.80132 0.22098 0.0
C961 C 0.03524 0.79909 0.22811 0.0
C962 C 0.06237 0.81775 0.21163 0.0
C963 C 0.02569 0.85058 0.19388 0.0
H964 H 0.11141 0.90864 0.18583 0.0
C965 C 0.04818 0.93989 0.16217 0.0
C966 C 0.06557 0.97011 0.16644 0.0
C967 C 0.04938 0.91466 0.16682 0.0
C968 C 0.08734 0.89223 0.18789 0.0
H969 H 0.99875 0.81026 0.23086 0.0
H970 H 0.00741 0.83981 0.21466 0.0
H971 H 0.1012 0.87203 0.20013 0.0
H972 H 0.10104 0.99869 0.17783 0.0
H973 H 0.10406 0.95518 0.18569 0.0
H974 H 0.01185 0.8715 0.18186 0.0
C975 C 0.02136 0.82883 0.21621 0.0
C976 C 0.08144 0.87125 0.19611 0.0
C977 C 0.01654 0.8122 0.22554 0.0
C978 C 0.08755 0.97557 0.17437 0.0
C979 C 0.08913 0.95053 0.1789 0.0
C980 C 0.03156 0.87129 0.18559 0.0
C981 C 0.0445 0.83199 0.20916 0.0
C982 C 0.05058 0.85103 0.19948 0.0
C983 C 0.06842 0.91956 0.17567 0.0
C984 C 0.06249 0.8931 0.18273 0.0
H985 H 0.07158 0.79038 0.22266 0.0
H986 H 0.08 0.81921 0.20633 0.0
H987 H 0.00161 0.8348 0.19609 0.0
H988 H 0.03085 0.93507 0.15611 0.0
H989 H 0.0335 0.89107 0.16406 0.0
C990 C 0.28251 0.23473 0.28637 0.0
C991 C 0.26329 0.23521 0.2783 0.0
C992 C 0.26941 0.21403 0.29476 0.0
C993 C 0.23115 0.17975 0.3143 0.0
H994 H 0.16478 0.09536 0.30774 0.0
C995 C 0.13294 0.09716 0.34226 0.0
C996 C 0.11741 0.06487 0.3401 0.0
C997 C 0.15935 0.11795 0.3365 0.0
C998 C 0.18371 0.11858 0.30976 0.0
H999 H 0.21545 0.2165 0.27296 0.0
H1000 H 0.19241 0.17986 0.28752 0.0
H1001 H 0.19251 0.13181 0.29374 0.0
H1002 H 0.11963 0.02839 0.3315 0.0
H1003 H 0.16661 0.0643 0.3219 0.0
H1004 H 0.22164 0.16656 0.33039 0.0
C1005 C 0.21764 0.19489 0.28727 0.0
C1006 C 0.19929 0.13963 0.3017 0.0
C1007 C 0.23072 0.21584 0.27896 0.0
C1008 C 0.13123 0.05325 0.33328 0.0
C1009 C 0.15785 0.07389 0.32767 0.0
C1010 C 0.21534 0.15864 0.32242 0.0
C1011 C 0.23686 0.19354 0.29521 0.0
C1012 C 0.22267 0.17064 0.30386 0.0
C1013 C 0.17068 0.10655 0.32862 0.0
C1014 C 0.19104 0.12792 0.32024 0.0
H1015 H 0.30767 0.25034 0.28616 0.0
H1016 H 0.28478 0.21359 0.30077 0.0
H1017 H 0.2491 0.20355 0.31619 0.0
H1018 H 0.12251 0.10666 0.34742 0.0
H1019 H 0.16869 0.14294 0.33748 0.0
C1020 C 0.79603 0.05077 0.28459 0.0
C1021 C 0.79572 0.03182 0.27641 0.0
C1022 C 0.81707 0.0583 0.29294 0.0
C1023 C 0.89289 0.06435 0.29926 0.0
H1024 H 0.87083 0.06621 0.32804 0.0
C1025 C 0.94525 0.05526 0.34061 0.0
C1026 C 0.97698 0.07266 0.33785 0.0
C1027 C 0.92251 0.05752 0.33461 0.0
C1028 C 0.87738 0.06598 0.32004 0.0
H1029 H 0.81481 0.00349 0.27089 0.0
H1030 H 0.85194 0.01676 0.28543 0.0
H1031 H 0.83122 0.05226 0.31426 0.0
H1032 H 0.01043 0.10948 0.32784 0.0
H1033 H 0.97113 0.11475 0.31776 0.0
H1034 H 0.9385 0.07688 0.30491 0.0
C1035 C 0.83657 0.02657 0.28529 0.0
C1036 C 0.85475 0.05811 0.31214 0.0
C1037 C 0.81532 0.01886 0.277 0.0
C1038 C 0.98606 0.09568 0.33008 0.0
C1039 C 0.96347 0.09832 0.32421 0.0
C1040 C 0.91544 0.07234 0.30709 0.0
C1041 C 0.83807 0.04683 0.29326 0.0
C1042 C 0.86215 0.05665 0.30168 0.0
C1043 C 0.93137 0.07755 0.32588 0.0
C1044 C 0.90795 0.0729 0.31761 0.0
H1045 H 0.7803 0.06017 0.28443 0.0
H1046 H 0.81758 0.07391 0.29894 0.0
H1047 H 0.89952 0.06389 0.29128 0.0
H1048 H 0.93764 0.03717 0.34653 0.0
H1049 H 0.89802 0.04129 0.33617 0.0
C1050 C 0.04039 0.81349 0.28435 0.0
C1051 C 0.02029 0.8022 0.27567 0.0
C1052 C 0.03092 0.8215 0.29347 0.0
C1053 C 0.96165 0.81925 0.30654 0.0
H1054 H 0.02785 0.89049 0.32134 0.0
C1055 C 0.95187 0.91349 0.33003 0.0
C1056 C 0.97244 0.92734 0.33854 0.0
C1057 C 0.95067 0.88812 0.32477 0.0
C1058 C 0.00911 0.87011 0.31746 0.0
H1059 H 0.97436 0.7898 0.26968 0.0
H1060 H 0.95833 0.80589 0.28536 0.0
H1061 H 0.04098 0.86827 0.30688 0.0
H1062 H 0.00469 0.92301 0.34906 0.0
H1063 H 0.00295 0.87886 0.33977 0.0
H1064 H 0.92969 0.82345 0.31678 0.0
C1065 C 0.98104 0.80748 0.28535 0.0
C1066 C 0.01662 0.85718 0.30911 0.0
C1067 C 0.99024 0.79851 0.2763 0.0
C1068 C 0.98854 0.91272 0.34255 0.0
C1069 C 0.98778 0.88766 0.33717 0.0
C1070 C 0.95408 0.83274 0.3148 0.0
C1071 C 0.00144 0.81953 0.29405 0.0
C1072 C 0.99305 0.83171 0.30342 0.0
C1073 C 0.97037 0.8765 0.32786 0.0
C1074 C 0.97777 0.85849 0.32028 0.0
H1075 H 0.0635 0.81595 0.2841 0.0
H1076 H 0.047 0.82949 0.30004 0.0
H1077 H 0.94279 0.79934 0.30253 0.0
H1078 H 0.93923 0.92438 0.32678 0.0
H1079 H 0.93702 0.88002 0.31764 0.0
C1080 C 0.79942 0.82842 0.78151 0.0
C1081 C 0.78738 0.79625 0.78318 0.0
C1082 C 0.81426 0.84983 0.78961 0.0
C1083 C 0.82573 0.85701 0.81848 0.0
H1084 H 0.89955 0.93525 0.81083 0.0
C1085 C 0.92519 0.94834 0.84608 0.0
C1086 C 0.93855 0.97988 0.84297 0.0
C1087 C 0.90022 0.92462 0.84033 0.0
C1088 C 0.87872 0.91371 0.81309 0.0
H1089 H 0.77799 0.76064 0.79479 0.0
H1090 H 0.8051 0.79809 0.80894 0.0
H1091 H 0.87058 0.89628 0.79754 0.0
H1092 H 0.93369 0.01183 0.83248 0.0
H1093 H 0.8898 0.97075 0.82269 0.0
H1094 H 0.8352 0.87449 0.83421 0.0
C1095 C 0.80347 0.80699 0.80137 0.0
C1096 C 0.862 0.89131 0.80544 0.0
C1097 C 0.78848 0.78556 0.79324 0.0
C1098 C 0.92391 0.98766 0.835 0.0
C1099 C 0.89901 0.96412 0.82932 0.0
C1100 C 0.84284 0.87943 0.8262 0.0
C1101 C 0.8171 0.83951 0.79961 0.0
C1102 C 0.83503 0.8628 0.80798 0.0
C1103 C 0.88835 0.93233 0.83148 0.0
C1104 C 0.86928 0.90819 0.82353 0.0
H1105 H 0.79774 0.83705 0.77389 0.0
H1106 H 0.82348 0.87454 0.78801 0.0
H1107 H 0.80501 0.83539 0.82073 0.0
H1108 H 0.93621 0.94173 0.85215 0.0
H1109 H 0.89234 0.90029 0.84219 0.0
C1110 C 0.23061 0.96848 0.78509 0.0
C1111 C 0.24393 0.99657 0.77937 0.0
C1112 C 0.21643 0.96619 0.79464 0.0
C1113 C 0.20272 0.01285 0.81485 0.0
H1114 H 0.12645 0.93325 0.8191 0.0
C1115 C 0.11427 0.0015 0.8458 0.0
C1116 C 0.0841 0.98928 0.84148 0.0
C1117 C 0.13684 0.99716 0.84068 0.0
C1118 C 0.14774 0.95562 0.81808 0.0
H1119 H 0.25385 0.04465 0.77924 0.0
H1120 H 0.22739 0.04033 0.79569 0.0
H1121 H 0.16076 0.9387 0.80494 0.0
H1122 H 0.05269 0.96033 0.82919 0.0
H1123 H 0.09132 0.95238 0.82039 0.0
H1124 H 0.188 0.03036 0.82751 0.0
C1125 C 0.22874 0.02023 0.79301 0.0
C1126 C 0.16778 0.95871 0.80999 0.0
C1127 C 0.24372 0.02274 0.78353 0.0
C1128 C 0.07582 0.96991 0.83268 0.0
C1129 C 0.0981 0.96536 0.82764 0.0
C1130 C 0.18236 0.00985 0.82288 0.0
C1131 C 0.21433 0.99167 0.79861 0.0
C1132 C 0.19517 0.98762 0.80806 0.0
C1133 C 0.12933 0.98025 0.83125 0.0
C1134 C 0.15409 0.98146 0.82437 0.0
H1135 H 0.23105 0.94812 0.78213 0.0
H1136 H 0.20663 0.94414 0.79882 0.0
H1137 H 0.2239 0.03526 0.8138 0.0
H1138 H 0.12122 0.01672 0.85255 0.0
H1139 H 0.16055 0.0085 0.84377 0.0
C1140 C 0.0716 0.25834 0.78514 0.0
C1141 C 0.04532 0.26118 0.78249 0.0
C1142 C 0.07488 0.24862 0.79506 0.0
C1143 C 0.03014 0.20343 0.81767 0.0
H1144 H 0.11341 0.23789 0.82981 0.0
C1145 C 0.05049 0.13805 0.85078 0.0
C1146 C 0.07238 0.12951 0.84761 0.0
C1147 C 0.04969 0.16331 0.84598 0.0
C1148 C 0.08995 0.22822 0.82659 0.0
H1149 H 0.00174 0.25572 0.78834 0.0
H1150 H 0.00742 0.23833 0.80576 0.0
H1151 H 0.10522 0.26337 0.8147 0.0
H1152 H 0.11301 0.14283 0.83807 0.0
H1153 H 0.11252 0.18741 0.83 0.0
H1154 H 0.01513 0.16744 0.82926 0.0
C1155 C 0.02549 0.24381 0.80006 0.0
C1156 C 0.08526 0.24269 0.8179 0.0
C1157 C 0.02223 0.25375 0.79008 0.0
C1158 C 0.0961 0.14917 0.84071 0.0
C1159 C 0.09564 0.17465 0.83604 0.0
C1160 C 0.03481 0.18898 0.82639 0.0
C1161 C 0.05201 0.24134 0.80268 0.0
C1162 C 0.05556 0.22969 0.81306 0.0
C1163 C 0.07114 0.18065 0.83809 0.0
C1164 C 0.06503 0.20048 0.8307 0.0
H1165 H 0.08988 0.26363 0.77955 0.0
H1166 H 0.0952 0.24623 0.79669 0.0
H1167 H 0.007 0.19271 0.81413 0.0
H1168 H 0.03171 0.12299 0.85599 0.0
H1169 H 0.03081 0.16766 0.84783 0.0
C1170 C 0.79234 0.7847 0.73017 0.0
C1171 C 0.81028 0.78172 0.73824 0.0
C1172 C 0.80511 0.79471 0.72021 0.0
C1173 C 0.84862 0.83619 0.70233 0.0
H1174 H 0.90173 0.80513 0.69198 0.0
C1175 C 0.96894 0.89274 0.67976 0.0
C1176 C 0.9635 0.91031 0.67224 0.0
C1177 C 0.94387 0.86759 0.68477 0.0
C1178 C 0.88677 0.81385 0.69469 0.0
H1179 H 0.85614 0.78793 0.74212 0.0
H1180 H 0.87791 0.80509 0.72496 0.0
H1181 H 0.86943 0.7809 0.70728 0.0
H1182 H 0.92779 0.9134 0.66322 0.0
H1183 H 0.8837 0.86924 0.67199 0.0
H1184 H 0.86732 0.87035 0.69012 0.0
C1185 C 0.85388 0.79923 0.72624 0.0
C1186 C 0.86833 0.80004 0.70347 0.0
C1187 C 0.84137 0.78961 0.73614 0.0
C1188 C 0.93259 0.9 0.66893 0.0
C1189 C 0.90737 0.87504 0.67406 0.0
C1190 C 0.86717 0.8501 0.69355 0.0
C1191 C 0.83587 0.80152 0.71811 0.0
C1192 C 0.8501 0.81193 0.70765 0.0
C1193 C 0.91281 0.85975 0.68244 0.0
C1194 C 0.88747 0.83994 0.68989 0.0
H1195 H 0.76834 0.77881 0.73149 0.0
H1196 H 0.79076 0.79649 0.71409 0.0
H1197 H 0.83485 0.84589 0.70537 0.0
H1198 H 0.99257 0.90041 0.6825 0.0
H1199 H 0.94904 0.85649 0.69119 0.0
C1200 C 0.24069 0.04241 0.73267 0.0
C1201 C 0.25615 0.02502 0.73274 0.0
C1202 C 0.22853 0.04707 0.72339 0.0
C1203 C 0.19898 0.01558 0.69773 0.0
H1204 H 0.21949 0.10077 0.69104 0.0
C1205 C 0.13004 0.03435 0.66563 0.0
C1206 C 0.11681 0.05185 0.66933 0.0
C1207 C 0.1566 0.03661 0.67058 0.0
C1208 C 0.2135 0.07683 0.69276 0.0
H1209 H 0.27272 0.00042 0.72312 0.0
H1210 H 0.24982 0.00705 0.70691 0.0
H1211 H 0.24394 0.09103 0.70614 0.0
H1212 H 0.12305 0.08844 0.67997 0.0
H1213 H 0.16909 0.09282 0.68848 0.0
H1214 H 0.16691 0.00091 0.68488 0.0
C1215 C 0.24685 0.01674 0.71407 0.0
C1216 C 0.22752 0.0713 0.70142 0.0
C1217 C 0.2595 0.01257 0.72334 0.0
C1218 C 0.13305 0.0749 0.67693 0.0
C1219 C 0.15947 0.0772 0.68186 0.0
C1220 C 0.18452 0.02103 0.68917 0.0
C1221 C 0.23174 0.03452 0.71399 0.0
C1222 C 0.2197 0.04055 0.70415 0.0
C1223 C 0.17019 0.05644 0.67927 0.0
C1224 C 0.19083 0.05166 0.68676 0.0
H1225 H 0.23856 0.0529 0.73978 0.0
H1226 H 0.21679 0.06069 0.72354 0.0
H1227 H 0.1926 0.99166 0.69968 0.0
H1228 H 0.11772 0.0162 0.65984 0.0
H1229 H 0.16477 0.02089 0.66818 0.0
C1230 C 0.02028 0.2497 0.727 0.0
C1231 C 0.01024 0.23668 0.73694 0.0
C1232 C 0.01519 0.23028 0.71842 0.0
C1233 C 0.96197 0.15047 0.70908 0.0
H1234 H 0.02916 0.16349 0.69063 0.0
C1235 C 0.9617 0.05201 0.68597 0.0
C1236 C 0.97939 0.05875 0.67687 0.0
C1237 C 0.95978 0.07571 0.69121 0.0
C1238 C 0.00987 0.15992 0.69552 0.0
H1239 H 0.98578 0.19345 0.74571 0.0
H1240 H 0.97675 0.15933 0.73072 0.0
H1241 H 0.03921 0.20157 0.70437 0.0
H1242 H 0.00685 0.09478 0.66559 0.0
H1243 H 0.00299 0.13641 0.67464 0.0
H1244 H 0.9327 0.10865 0.70039 0.0
C1245 C 0.98899 0.18453 0.72957 0.0
C1246 C 0.01576 0.18164 0.70344 0.0
C1247 C 0.99438 0.20397 0.73814 0.0
C1248 C 0.99264 0.08892 0.67252 0.0
C1249 C 0.99087 0.11283 0.6778 0.0
C1250 C 0.95599 0.12894 0.70111 0.0
C1251 C 0.99906 0.19747 0.71961 0.0
C1252 C 0.99211 0.17656 0.7105 0.0
C1253 C 0.97572 0.10677 0.68748 0.0
C1254 C 0.98013 0.13281 0.69444 0.0
H1255 H 0.0313 0.27484 0.72583 0.0
H1256 H 0.02294 0.24085 0.71082 0.0
H1257 H 0.94313 0.14637 0.71428 0.0
H1258 H 0.95149 0.02893 0.68951 0.0
H1259 H 0.94808 0.07008 0.69865 0.0
C1260 C 0.9073 0.5605 0.5563 0.0
C1261 C 0.90936 0.58344 0.56324 0.0
C1262 C 0.88933 0.55368 0.54718 0.0
C1263 C 0.81827 0.54447 0.53775 0.0
H1264 H 0.84897 0.54706 0.50989 0.0
C1265 C 0.72995 0.47158 0.50663 0.0
C1266 C 0.73913 0.4541 0.50054 0.0
C1267 C 0.75248 0.49862 0.5118 0.0
C1268 C 0.83983 0.54591 0.51761 0.0
H1269 H 0.89443 0.61735 0.56608 0.0
H1270 H 0.86164 0.60419 0.55029 0.0
H1271 H 0.88613 0.5713 0.52432 0.0
H1272 H 0.77864 0.45231 0.49424 0.0
H1273 H 0.81783 0.49806 0.50358 0.0
H1274 H 0.77226 0.51662 0.53155 0.0
C1275 C 0.87467 0.59221 0.55184 0.0
C1276 C 0.86123 0.56009 0.52583 0.0
C1277 C 0.89335 0.59966 0.56084 0.0
C1278 C 0.77108 0.46576 0.49879 0.0
C1279 C 0.79362 0.49214 0.50423 0.0
C1280 C 0.79688 0.52956 0.52961 0.0
C1281 C 0.87251 0.56912 0.54496 0.0
C1282 C 0.85054 0.55882 0.536 0.0
C1283 C 0.78454 0.50777 0.51135 0.0
C1284 C 0.80727 0.52919 0.51944 0.0
H1285 H 0.91954 0.54777 0.55794 0.0
H1286 H 0.88766 0.53552 0.54203 0.0
H1287 H 0.80954 0.54299 0.54556 0.0
H1288 H 0.70534 0.46288 0.5081 0.0
H1289 H 0.74446 0.51076 0.51679 0.0
C1290 C 0.46073 0.36072 0.55465 0.0
C1291 C 0.4493 0.33892 0.56282 0.0
C1292 C 0.47086 0.35379 0.54544 0.0
C1293 C 0.47625 0.28917 0.53152 0.0
H1294 H 0.54826 0.36028 0.51903 0.0
C1295 C 0.5811 0.29072 0.5115 0.0
C1296 C 0.59455 0.3108 0.50293 0.0
C1297 C 0.55411 0.28753 0.51611 0.0
C1298 C 0.52774 0.34021 0.52227 0.0
H1299 H 0.43904 0.29278 0.56787 0.0
H1300 H 0.45864 0.28124 0.55213 0.0
H1301 H 0.52047 0.36913 0.53278 0.0
H1302 H 0.58872 0.34076 0.4918 0.0
H1303 H 0.5419 0.33587 0.50006 0.0
H1304 H 0.48597 0.26031 0.52149 0.0
C1305 C 0.45862 0.30319 0.55251 0.0
C1306 C 0.51158 0.34523 0.53019 0.0
C1307 C 0.44757 0.30981 0.5616 0.0
C1308 C 0.57869 0.32497 0.49835 0.0
C1309 C 0.55206 0.32236 0.50312 0.0
C1310 C 0.49299 0.28414 0.52374 0.0
C1311 C 0.47092 0.32531 0.54433 0.0
C1312 C 0.48588 0.31979 0.5351 0.0
C1313 C 0.54053 0.30489 0.51235 0.0
C1314 C 0.51916 0.30963 0.51916 0.0
H1315 H 0.46198 0.38325 0.55543 0.0
H1316 H 0.47912 0.37111 0.53928 0.0
H1317 H 0.4562 0.26893 0.53487 0.0
H1318 H 0.59297 0.27961 0.51517 0.0
H1319 H 0.5458 0.274 0.52322 0.0
C1320 C 0.70249 0.15904 0.55763 0.0
C1321 C 0.71836 0.14244 0.55936 0.0
C1322 C 0.70559 0.17446 0.54817 0.0
C1323 C 0.75891 0.21042 0.52642 0.0
H1324 H 0.68762 0.21188 0.514 0.0
C1325 C 0.75998 0.31471 0.50658 0.0
C1326 C 0.73759 0.30917 0.49879 0.0
C1327 C 0.76296 0.28993 0.51061 0.0
C1328 C 0.70771 0.21123 0.51721 0.0
H1329 H 0.74741 0.12623 0.55232 0.0
H1330 H 0.75364 0.15398 0.53581 0.0
H1331 H 0.67947 0.1758 0.52829 0.0
H1332 H 0.7036 0.27451 0.48818 0.0
H1333 H 0.70832 0.23086 0.4954 0.0
H1334 H 0.78736 0.24739 0.51575 0.0
C1335 C 0.73939 0.15569 0.54184 0.0
C1336 C 0.70306 0.19086 0.52548 0.0
C1337 C 0.73607 0.14009 0.55129 0.0
C1338 C 0.72113 0.27936 0.49416 0.0
C1339 C 0.72363 0.25435 0.49835 0.0
C1340 C 0.76366 0.23125 0.51825 0.0
C1341 C 0.72428 0.17316 0.5402 0.0
C1342 C 0.72872 0.19102 0.53041 0.0
C1343 C 0.74317 0.25915 0.50704 0.0
C1344 C 0.73816 0.23248 0.51377 0.0
H1345 H 0.68816 0.16057 0.56368 0.0
H1346 H 0.69387 0.18796 0.54717 0.0
H1347 H 0.77906 0.2108 0.52999 0.0
H1348 H 0.77289 0.33755 0.51027 0.0
H1349 H 0.7782 0.29436 0.51731 0.0
C1350 C 0.87854 0.57939 0.60974 0.0
C1351 C 0.90995 0.58685 0.60962 0.0
C1352 C 0.86055 0.56675 0.61868 0.0
C1353 C 0.85654 0.52604 0.64331 0.0
H1354 H 0.79681 0.55214 0.6506 0.0
C1355 C 0.77089 0.46436 0.67646 0.0
C1356 C 0.73985 0.45127 0.67284 0.0
C1357 C 0.79535 0.48903 0.67097 0.0
C1358 C 0.81349 0.54474 0.64871 0.0
H1359 H 0.94799 0.58906 0.61887 0.0
H1360 H 0.9165 0.56654 0.63452 0.0
H1361 H 0.83203 0.57704 0.63597 0.0
H1362 H 0.70948 0.4562 0.66163 0.0
H1363 H 0.7517 0.49948 0.65226 0.0
H1364 H 0.83732 0.49301 0.65581 0.0
C1365 C 0.90543 0.56958 0.62762 0.0
C1366 C 0.83352 0.55883 0.64028 0.0
C1367 C 0.92339 0.58222 0.61866 0.0
C1368 C 0.73325 0.46593 0.66457 0.0
C1369 C 0.75755 0.49073 0.65918 0.0
C1370 C 0.8365 0.51194 0.65174 0.0
C1371 C 0.87384 0.56194 0.62776 0.0
C1372 C 0.8547 0.54906 0.63732 0.0
C1373 C 0.78897 0.50121 0.66191 0.0
C1374 C 0.81417 0.52055 0.65438 0.0
H1375 H 0.86794 0.58345 0.60291 0.0
H1376 H 0.83619 0.56073 0.61847 0.0
H1377 H 0.87244 0.51784 0.64121 0.0
H1378 H 0.77661 0.45337 0.68278 0.0
H1379 H 0.81932 0.49703 0.67337 0.0
C1380 C 0.45252 0.30341 0.60867 0.0
C1381 C 0.44327 0.32605 0.60904 0.0
C1382 C 0.46742 0.29874 0.61724 0.0
C1383 C 0.48162 0.31321 0.64575 0.0
H1384 H 0.55149 0.30045 0.64007 0.0
C1385 C 0.57956 0.32823 0.67503 0.0
C1386 C 0.59318 0.30959 0.67319 0.0
C1387 C 0.55436 0.32461 0.66882 0.0
C1388 C 0.53165 0.30339 0.64181 0.0
H1389 H 0.43941 0.35947 0.61888 0.0
H1390 H 0.46651 0.35227 0.6338 0.0
H1391 H 0.52316 0.30729 0.62569 0.0
H1392 H 0.58868 0.26981 0.66462 0.0
H1393 H 0.54406 0.26259 0.65411 0.0
H1394 H 0.49128 0.3105 0.66198 0.0
C1395 C 0.46258 0.33823 0.62689 0.0
C1396 C 0.51539 0.30735 0.63354 0.0
C1397 C 0.44761 0.34281 0.6183 0.0
C1398 C 0.57856 0.2845 0.66615 0.0
C1399 C 0.55331 0.28067 0.66005 0.0
C1400 C 0.49818 0.3095 0.65407 0.0
C1401 C 0.47296 0.31633 0.62643 0.0
C1402 C 0.49007 0.31217 0.63538 0.0
C1403 C 0.54248 0.30212 0.66079 0.0
C1404 C 0.52326 0.30435 0.65217 0.0
H1405 H 0.44842 0.28948 0.60171 0.0
H1406 H 0.47435 0.2811 0.61669 0.0
H1407 H 0.46206 0.31662 0.64745 0.0
H1408 H 0.59066 0.34794 0.68035 0.0
H1409 H 0.54639 0.34139 0.66961 0.0
C1410 C 0.74929 0.19469 0.60826 0.0
C1411 C 0.72753 0.16306 0.60601 0.0
C1412 C 0.74975 0.20749 0.61797 0.0
C1413 C 0.70304 0.19877 0.64106 0.0
H1414 H 0.78482 0.25482 0.65323 0.0
C1415 C 0.71321 0.27372 0.67632 0.0
C1416 C 0.73264 0.30567 0.67397 0.0
C1417 C 0.71549 0.25079 0.67058 0.0
C1418 C 0.76179 0.23907 0.64999 0.0
H1419 H 0.68826 0.1205 0.61218 0.0
H1420 H 0.68884 0.14319 0.62916 0.0
H1421 H 0.78084 0.22559 0.63746 0.0
H1422 H 0.77205 0.33897 0.66482 0.0
H1423 H 0.77679 0.29942 0.65509 0.0
H1424 H 0.68408 0.21334 0.65331 0.0
C1425 C 0.70568 0.1579 0.62336 0.0
C1426 C 0.75951 0.22245 0.64092 0.0
C1427 C 0.70528 0.14496 0.61361 0.0
C1428 C 0.75694 0.31445 0.66682 0.0
C1429 C 0.75953 0.29168 0.6612 0.0
C1430 C 0.70533 0.21549 0.65013 0.0
C1431 C 0.72843 0.18912 0.62572 0.0
C1432 C 0.73021 0.20298 0.63615 0.0
C1433 C 0.73759 0.25962 0.66255 0.0
C1434 C 0.73483 0.23668 0.6545 0.0
H1435 H 0.76662 0.20953 0.6026 0.0
H1436 H 0.76703 0.23186 0.61942 0.0
H1437 H 0.68014 0.184 0.63757 0.0
H1438 H 0.69408 0.26638 0.68174 0.0
H1439 H 0.69857 0.22626 0.67191 0.0
C1440 C 0.47241 0.15069 0.1219 0.0
C1441 C 0.45945 0.11863 0.11978 0.0
C1442 C 0.48979 0.16356 0.13105 0.0
C1443 C 0.53519 0.14841 0.15102 0.0
H1444 H 0.53899 0.22104 0.16408 0.0
C1445 C 0.64386 0.25002 0.17013 0.0
C1446 C 0.64012 0.26597 0.17851 0.0
C1447 C 0.61799 0.22358 0.16586 0.0
C1448 C 0.53783 0.20041 0.16066 0.0
H1449 H 0.45146 0.07417 0.12592 0.0
H1450 H 0.4816 0.09645 0.14196 0.0
H1451 H 0.49934 0.19237 0.15073 0.0
H1452 H 0.6072 0.26516 0.1897 0.0
H1453 H 0.56164 0.21909 0.1821 0.0
H1454 H 0.57469 0.15746 0.16065 0.0
C1455 C 0.47947 0.11199 0.13643 0.0
C1456 C 0.51539 0.18424 0.15289 0.0
C1457 C 0.46231 0.09923 0.12724 0.0
C1458 C 0.61071 0.25312 0.18328 0.0
C1459 C 0.58462 0.22699 0.17886 0.0
C1460 C 0.55796 0.16489 0.15867 0.0
C1461 C 0.49387 0.14444 0.13839 0.0
C1462 C 0.51449 0.15869 0.1477 0.0
C1463 C 0.58782 0.21299 0.16979 0.0
C1464 C 0.56005 0.19157 0.16337 0.0
H1465 H 0.46998 0.16596 0.11632 0.0
H1466 H 0.50081 0.18868 0.13221 0.0
H1467 H 0.53487 0.12855 0.14736 0.0
H1468 H 0.66632 0.25959 0.1663 0.0
H1469 H 0.62121 0.21337 0.15886 0.0
C1470 C 0.93428 0.40538 0.12144 0.0
C1471 C 0.93267 0.37628 0.12035 0.0
C1472 C 0.9249 0.41292 0.13073 0.0
C1473 C 0.87504 0.37228 0.15371 0.0
H1474 H 0.90032 0.45745 0.16197 0.0
C1475 C 0.80504 0.39164 0.18445 0.0
C1476 C 0.79074 0.40723 0.17978 0.0
C1477 C 0.83226 0.39428 0.18014 0.0
C1478 C 0.89338 0.43354 0.15984 0.0
H1479 H 0.92236 0.33318 0.12819 0.0
H1480 H 0.90813 0.34698 0.14461 0.0
H1481 H 0.92946 0.44847 0.14844 0.0
H1482 H 0.79561 0.44092 0.16798 0.0
H1483 H 0.84352 0.44637 0.1607 0.0
H1484 H 0.8388 0.35743 0.16499 0.0
C1485 C 0.91498 0.36352 0.13822 0.0
C1486 C 0.9098 0.42833 0.152 0.0
C1487 C 0.92345 0.35566 0.12885 0.0
C1488 C 0.80629 0.42871 0.17171 0.0
C1489 C 0.83374 0.43181 0.16754 0.0
C1490 C 0.85911 0.37749 0.16165 0.0
C1491 C 0.9144 0.39175 0.1392 0.0
C1492 C 0.90022 0.3976 0.14857 0.0
C1493 C 0.84578 0.41302 0.17126 0.0
C1494 C 0.86744 0.40816 0.1646 0.0
H1495 H 0.94113 0.42152 0.11493 0.0
H1496 H 0.92448 0.43468 0.13105 0.0
H1497 H 0.86626 0.34829 0.15124 0.0
H1498 H 0.79336 0.37479 0.19063 0.0
H1499 H 0.84126 0.37975 0.18321 0.0
C1500 C 0.66212 0.57848 0.12197 0.0
C1501 C 0.68685 0.58086 0.11589 0.0
C1502 C 0.65192 0.55894 0.13076 0.0
C1503 C 0.6451 0.48671 0.14003 0.0
H1504 H 0.64622 0.51342 0.16847 0.0
C1505 C 0.66385 0.44209 0.18072 0.0
C1506 C 0.64645 0.40994 0.1784 0.0
C1507 C 0.65868 0.4635 0.17504 0.0
C1508 C 0.64537 0.50556 0.16055 0.0
H1509 H 0.72077 0.56517 0.11453 0.0
H1510 H 0.70243 0.53072 0.12962 0.0
H1511 H 0.65943 0.55116 0.15408 0.0
H1512 H 0.60716 0.37428 0.16961 0.0
H1513 H 0.59698 0.41134 0.16008 0.0
H1514 H 0.63252 0.44179 0.14628 0.0
C1515 C 0.69109 0.54408 0.1276 0.0
C1516 C 0.65283 0.52709 0.15235 0.0
C1517 C 0.70159 0.56388 0.11896 0.0
C1518 C 0.62086 0.39904 0.17151 0.0
C1519 C 0.61532 0.42031 0.16597 0.0
C1520 C 0.63733 0.46524 0.14815 0.0
C1521 C 0.66594 0.5411 0.13349 0.0
C1522 C 0.65368 0.51796 0.14207 0.0
C1523 C 0.63584 0.45282 0.16705 0.0
C1524 C 0.63815 0.47453 0.15854 0.0
H1525 H 0.65038 0.59139 0.11987 0.0
H1526 H 0.63246 0.55695 0.13521 0.0
H1527 H 0.64546 0.47912 0.13216 0.0
H1528 H 0.68392 0.45097 0.18595 0.0
H1529 H 0.67487 0.48836 0.1761 0.0
C1530 C 0.5025 0.16534 0.07279 0.0
C1531 C 0.47042 0.14371 0.07408 0.0
C1532 C 0.51302 0.18479 0.06404 0.0
C1533 C 0.52804 0.23294 0.0469 0.0
H1534 H 0.50134 0.19029 0.02029 0.0
C1535 C 0.59158 0.29558 0.00948 0.0
C1536 C 0.6032 0.27854 1.00427 0.0
C1537 C 0.56757 0.28064 0.01678 0.0
C1538 C 0.50877 0.20265 0.02765 0.0
H1539 H 0.42413 0.12613 0.06726 0.0
H1540 H 0.44272 0.15996 0.05183 0.0
H1541 H 0.47515 0.16245 0.03622 0.0
H1542 H 0.59671 0.23212 1.00177 0.0
H1543 H 0.55472 0.20608 0.01433 0.0
H1544 H 0.56268 0.27257 0.03845 0.0
C1545 C 0.45961 0.16184 0.05766 0.0
C1546 C 0.49363 0.18677 0.03676 0.0
C1547 C 0.44899 0.14262 0.06652 0.0
C1548 C 0.58833 0.24588 1.00572 0.0
C1549 C 0.56414 0.23092 0.0129 0.0
C1550 C 0.54298 0.24888 0.03779 0.0
C1551 C 0.4918 0.18292 0.05628 0.0
C1552 C 0.50386 0.2014 0.04652 0.0
C1553 C 0.55445 0.24834 0.01886 0.0
C1554 C 0.53425 0.23357 0.0281 0.0
H1555 H 0.51967 0.16688 0.07845 0.0
H1556 H 0.53799 0.20048 0.06316 0.0
H1557 H 0.53621 0.24494 0.0543 0.0
H1558 H 0.6026 0.32081 0.00853 0.0
H1559 H 0.56033 0.29462 0.02117 0.0
C1560 C 0.90695 0.39224 0.07284 0.0
C1561 C 0.91903 0.37181 0.07343 0.0
C1562 C 0.89084 0.39304 0.0639 0.0
C1563 C 0.85108 0.34803 0.03999 0.0
H1564 H 0.86707 0.42874 0.0294 0.0
C1565 C 0.79996 0.35403 1.00071 0.0
C1566 C 0.78296 0.36994 1.00073 0.0
C1567 C 0.8213 0.35876 0.00872 0.0
C1568 C 0.86228 0.40603 0.03228 0.0
H1569 H 0.92562 0.33769 0.06497 0.0
H1570 H 0.8973 0.33869 0.04941 0.0
H1571 H 0.89228 0.42624 0.04561 0.0
H1572 H 0.77735 0.4057 0.00854 0.0
H1573 H 0.81467 0.41405 0.02255 0.0
H1574 H 0.82101 0.32772 0.02677 0.0
C1575 C 0.89924 0.35339 0.05594 0.0
C1576 C 0.87659 0.40456 0.0416 0.0
C1577 C 0.91529 0.35263 0.06487 0.0
C1578 C 0.79034 0.39332 0.00826 0.0
C1579 C 0.81158 0.3979 0.01635 0.0
C1580 C 0.83689 0.34951 0.0307 0.0
C1581 C 0.88703 0.37381 0.05529 0.0
C1582 C 0.87121 0.37551 0.04555 0.0
C1583 C 0.82591 0.37934 0.01697 0.0
C1584 C 0.84239 0.37851 0.02668 0.0
H1585 H 0.91025 0.40778 0.07928 0.0
H1586 H 0.88154 0.40884 0.0637 0.0
H1587 H 0.84592 0.32522 0.0429 0.0
H1588 H 0.7948 0.33593 0.99499 0.0
H1589 H 0.83268 0.34479 0.00879 0.0
C1590 C 0.69849 0.57932 0.06239 0.0
C1591 C 0.68423 0.56982 0.07216 0.0
C1592 C 0.69744 0.5571 0.05538 0.0
C1593 C 0.69561 0.48403 0.05343 0.0
H1594 H 0.65001 0.46847 0.02732 0.0
C1595 C 0.67995 0.38358 0.0267 0.0
C1596 C 0.6785 0.38701 0.0159 0.0
C1597 C 0.6786 0.40493 0.03351 0.0
C1598 C 0.66343 0.4728 0.03445 0.0
H1599 H 0.65655 0.52993 0.08214 0.0
H1600 H 0.65597 0.49112 0.07005 0.0
H1601 H 0.6538 0.50903 0.03907 0.0
H1602 H 0.67418 0.41514 1.0037 0.0
H1603 H 0.6738 0.45357 0.01545 0.0
H1604 H 0.70697 0.44947 0.04877 0.0
C1605 C 0.66795 0.51569 0.06785 0.0
C1606 C 0.66534 0.49595 0.04121 0.0
C1607 C 0.66834 0.53779 0.07473 0.0
C1608 C 0.67509 0.41185 0.01201 0.0
C1609 C 0.6747 0.43381 0.01881 0.0
C1610 C 0.69453 0.46157 0.04656 0.0
C1611 C 0.68233 0.52515 0.0581 0.0
C1612 C 0.68126 0.50156 0.05077 0.0
C1613 C 0.67683 0.43094 0.02969 0.0
C1614 C 0.67814 0.45529 0.03698 0.0
H1615 H 0.71003 0.60384 0.06013 0.0
H1616 H 0.70861 0.56485 0.04788 0.0
H1617 H 0.70799 0.48798 0.06078 0.0
H1618 H 0.68222 0.36438 0.02991 0.0
H1619 H 0.67916 0.40098 0.04179 0.0
C1620 C 0.58038 0.88367 0.89159 0.0
C1621 C 0.58251 0.90933 0.89706 0.0
C1622 C 0.56437 0.87441 0.88207 0.0
C1623 C 0.49965 0.8712 0.86774 0.0
H1624 H 0.5355 0.85101 0.84437 0.0
C1625 C 0.42043 0.79477 0.83426 0.0
C1626 C 0.42464 0.769 0.83255 0.0
C1627 C 0.44362 0.82129 0.83957 0.0
C1628 C 0.52513 0.85664 0.85079 0.0
H1629 H 0.56928 0.94528 0.89685 0.0
H1630 H 0.5403 0.92829 0.88029 0.0
H1631 H 0.56842 0.87856 0.85941 0.0
H1632 H 0.45677 0.75133 0.83417 0.0
H1633 H 0.49698 0.79706 0.84325 0.0
H1634 H 0.45582 0.84721 0.85954 0.0
C1635 C 0.55154 0.91579 0.88335 0.0
C1636 C 0.54402 0.87243 0.85939 0.0
C1637 C 0.56814 0.92548 0.8928 0.0
C1638 C 0.45319 0.7711 0.83536 0.0
C1639 C 0.4763 0.79747 0.84054 0.0
C1640 C 0.48059 0.85496 0.8592 0.0
C1641 C 0.54965 0.89025 0.87789 0.0
C1642 C 0.53118 0.87883 0.86809 0.0
C1643 C 0.47131 0.82234 0.84314 0.0
C1644 C 0.49283 0.84632 0.85081 0.0
H1645 H 0.59128 0.87082 0.89464 0.0
H1646 H 0.5629 0.85438 0.87808 0.0
H1647 H 0.48919 0.87584 0.87437 0.0
H1648 H 0.39839 0.79342 0.83224 0.0
H1649 H 0.43919 0.8402 0.84136 0.0
C1650 C 0.15189 0.67393 0.89394 0.0
C1651 C 0.12076 0.66718 0.89509 0.0
C1652 C 0.16122 0.66521 0.88496 0.0
C1653 C 0.14798 0.65406 0.85742 0.0
H1654 H 0.1992 0.6149 0.86009 0.0
C1655 C 0.24026 0.62648 0.83351 0.0
C1656 C 0.26059 0.65726 0.83013 0.0
C1657 C 0.21316 0.61949 0.83904 0.0
C1658 C 0.18438 0.62518 0.8591 0.0
H1659 H 0.07507 0.64611 0.88756 0.0
H1660 H 0.09192 0.63171 0.87156 0.0
H1661 H 0.17128 0.61791 0.87516 0.0
H1662 H 0.26766 0.70424 0.8291 0.0
H1663 H 0.22023 0.69211 0.83851 0.0
H1664 H 0.16274 0.66309 0.84149 0.0
C1665 C 0.10877 0.64333 0.8778 0.0
C1666 C 0.1686 0.62713 0.86778 0.0
C1667 C 0.09917 0.65149 0.88695 0.0
C1668 C 0.25195 0.68018 0.83146 0.0
C1669 C 0.22478 0.67319 0.83689 0.0
C1670 C 0.16413 0.65245 0.84873 0.0
C1671 C 0.13989 0.65 0.87677 0.0
C1672 C 0.15111 0.64249 0.86712 0.0
C1673 C 0.20603 0.64323 0.84126 0.0
C1674 C 0.18332 0.63887 0.84957 0.0
H1675 H 0.16925 0.68606 0.9 0.0
H1676 H 0.18546 0.67104 0.88432 0.0
H1677 H 0.13473 0.66612 0.85671 0.0
H1678 H 0.24686 0.60862 0.8328 0.0
H1679 H 0.19905 0.59612 0.84224 0.0
C1680 C 0.40117 0.46891 0.88825 0.0
C1681 C 0.38931 0.47572 0.89713 0.0
C1682 C 0.40508 0.48558 0.87899 0.0
C1683 C 0.38911 0.51125 0.85926 0.0
H1684 H 0.42381 0.60144 0.86069 0.0
C1685 C 0.35462 0.58278 0.83276 0.0
C1686 C 0.37665 0.61417 0.83054 0.0
C1687 C 0.36339 0.56413 0.83847 0.0
C1688 C 0.41472 0.57638 0.86008 0.0
H1689 H 0.3703 0.50348 0.90324 0.0
H1690 H 0.37776 0.53329 0.88713 0.0
H1691 H 0.42438 0.57276 0.87618 0.0
H1692 H 0.42549 0.65019 0.83177 0.0
H1693 H 0.44094 0.61763 0.84194 0.0
H1694 H 0.37786 0.51469 0.84329 0.0
C1695 C 0.38464 0.51555 0.88736 0.0
C1696 C 0.41471 0.55993 0.86899 0.0
C1697 C 0.38025 0.49851 0.89654 0.0
C1698 C 0.40822 0.62587 0.83327 0.0
C1699 C 0.41694 0.60736 0.83918 0.0
C1700 C 0.38874 0.52767 0.85037 0.0
C1701 C 0.39723 0.50936 0.87851 0.0
C1702 C 0.40109 0.52712 0.86874 0.0
C1703 C 0.39425 0.57681 0.84225 0.0
C1704 C 0.40077 0.5603 0.85077 0.0
H1705 H 0.40737 0.45067 0.88847 0.0
H1706 H 0.41462 0.48021 0.87227 0.0
H1707 H 0.37845 0.48594 0.85886 0.0
H1708 H 0.33007 0.57345 0.83082 0.0
H1709 H 0.3453 0.54082 0.84076 0.0
C1710 C 0.54772 0.91176 0.9425 0.0
C1711 C 0.58032 0.92562 0.94321 0.0
C1712 C 0.52928 0.89947 0.95136 0.0
C1713 C 0.53396 0.88122 0.97978 0.0
H1714 H 0.44953 0.86731 0.97884 0.0
C1715 C 0.44181 0.79649 0.00831 0.0
C1716 C 0.41138 0.79181 0.00776 0.0
C1717 C 0.46598 0.82073 1.00268 0.0
C1718 C 0.47322 0.87163 0.97955 0.0
H1719 H 0.61975 0.94003 0.95371 0.0
H1720 H 0.58823 0.92109 0.96931 0.0
H1721 H 0.48389 0.89358 0.96469 0.0
H1722 H 0.38303 0.81117 1.00229 0.0
H1723 H 0.42587 0.85612 0.9937 0.0
H1724 H 0.52453 0.86239 0.99509 0.0
C1725 C 0.57616 0.91731 0.96192 0.0
C1726 C 0.49297 0.88607 0.97111 0.0
C1727 C 0.59444 0.92843 0.95297 0.0
C1728 C 0.40643 0.8144 1.00281 0.0
C1729 C 0.43101 0.83965 0.99759 0.0
C1730 C 0.51471 0.86814 0.98845 0.0
C1731 C 0.54314 0.90243 0.96129 0.0
C1732 C 0.52327 0.88997 0.97085 0.0
C1733 C 0.46053 0.84164 0.99663 0.0
C1734 C 0.4834 0.86171 0.98835 0.0
H1735 H 0.53647 0.90991 0.93503 0.0
H1736 H 0.50412 0.88744 0.95031 0.0
H1737 H 0.55693 0.88346 0.98007 0.0
H1738 H 0.44605 0.77902 0.01197 0.0
H1739 H 0.48787 0.82074 1.00241 0.0
C1740 C 0.11162 0.67076 0.94987 0.0
C1741 C 0.10669 0.65414 0.94055 0.0
C1742 C 0.12524 0.66451 0.95848 0.0
C1743 C 0.17601 0.63163 0.9647 0.0
H1744 H 0.15377 0.63574 0.99329 0.0
C1745 C 0.24814 0.61965 0.9967 0.0
C1746 C 0.26044 0.64481 1.00373 0.0
C1747 C 0.22134 0.61237 0.99084 0.0
C1748 C 0.16017 0.63444 0.98535 0.0
H1749 H 0.10896 0.61602 0.93313 0.0
H1750 H 0.13289 0.60499 0.94814 0.0
H1751 H 0.12322 0.6407 0.97899 0.0
H1752 H 0.25299 0.67998 0.01103 0.0
H1753 H 0.20644 0.66784 1.00064 0.0
H1754 H 0.21341 0.62642 0.9709 0.0
C1755 C 0.12729 0.62358 0.94873 0.0
C1756 C 0.14279 0.63742 0.97716 0.0
C1757 C 0.11361 0.62982 0.94015 0.0
C1758 C 0.24359 0.66019 1.00573 0.0
C1759 C 0.217 0.6533 0.99972 0.0
C1760 C 0.19328 0.62865 0.97283 0.0
C1761 C 0.13374 0.6412 0.95795 0.0
C1762 C 0.15073 0.63631 0.96674 0.0
C1763 C 0.20691 0.63072 0.99173 0.0
C1764 C 0.18579 0.63024 0.98327 0.0
H1765 H 0.10515 0.68874 0.95046 0.0
H1766 H 0.12995 0.67858 0.96544 0.0
H1767 H 0.18324 0.63137 0.95678 0.0
H1768 H 0.26091 0.60758 0.99503 0.0
H1769 H 0.21358 0.59419 0.98498 0.0
C1770 C 0.43361 0.50697 0.95005 0.0
C1771 C 0.4062 0.49327 0.9439 0.0
C1772 C 0.4349 0.52176 0.95943 0.0
C1773 C 0.4404 0.56986 0.97486 0.0
H1774 H 0.36641 0.54866 0.99097 0.0
C1775 C 0.42723 0.66026 0.99814 0.0
C1776 C 0.40549 0.6509 0.00624 0.0
C1777 C 0.43258 0.6384 0.9931 0.0
C1778 C 0.38756 0.55457 0.98674 0.0
H1779 H 0.35836 0.48365 0.94283 0.0
H1780 H 0.361 0.51122 0.95893 0.0
H1781 H 0.36331 0.51393 0.97705 0.0
H1782 H 0.37494 0.61226 0.01625 0.0
H1783 H 0.38481 0.5738 0.00758 0.0
H1784 H 0.46477 0.61016 0.98465 0.0
C1785 C 0.38131 0.50969 0.95671 0.0
C1786 C 0.3856 0.53491 0.97858 0.0
C1787 C 0.37979 0.49412 0.94742 0.0
C1788 C 0.39195 0.62006 0.01005 0.0
C1789 C 0.39721 0.59798 1.00495 0.0
C1790 C 0.44246 0.58918 0.98311 0.0
C1791 C 0.40905 0.52405 0.9628 0.0
C1792 C 0.41175 0.5428 0.97229 0.0
C1793 C 0.41627 0.60657 0.99605 0.0
C1794 C 0.41582 0.58249 0.98892 0.0
H1795 H 0.45412 0.506 0.94765 0.0
H1796 H 0.45634 0.53153 0.96399 0.0
H1797 H 0.46111 0.57713 0.97021 0.0
H1798 H 0.43792 0.68393 0.99506 0.0
H1799 H 0.44731 0.64611 0.98629 0.0
C1800 C 0.13764 0.47594 0.44792 0.0
C1801 C 0.11836 0.44337 0.44899 0.0
C1802 C 0.15409 0.49443 0.4565 0.0
C1803 C 0.18308 0.49044 0.4828 0.0
H1804 H 0.19625 0.57487 0.48483 0.0
C1805 C 0.28764 0.58994 0.50419 0.0
C1806 C 0.28525 0.61452 0.50875 0.0
C1807 C 0.26196 0.5653 0.49917 0.0
C1808 C 0.19233 0.55117 0.48453 0.0
H1809 H 0.09898 0.40471 0.45992 0.0
H1810 H 0.12786 0.43697 0.47501 0.0
H1811 H 0.16174 0.53965 0.4713 0.0
H1812 H 0.25359 0.63167 0.51223 0.0
H1813 H 0.20818 0.58821 0.50338 0.0
H1814 H 0.21392 0.50209 0.49598 0.0
C1815 C 0.13116 0.44817 0.46748 0.0
C1816 C 0.17293 0.53111 0.47665 0.0
C1817 C 0.11479 0.42965 0.45885 0.0
C1818 C 0.25599 0.61292 0.50881 0.0
C1819 C 0.23016 0.58823 0.50366 0.0
C1820 C 0.20247 0.5105 0.49068 0.0
C1821 C 0.15099 0.48084 0.46641 0.0
C1822 C 0.16878 0.50081 0.47549 0.0
C1823 C 0.23317 0.56463 0.49851 0.0
C1824 C 0.20807 0.54144 0.49146 0.0
H1825 H 0.1401 0.48706 0.44041 0.0
H1826 H 0.16946 0.5194 0.45533 0.0
H1827 H 0.1804 0.46728 0.48217 0.0
H1828 H 0.30991 0.59053 0.50407 0.0
H1829 H 0.26537 0.54785 0.49523 0.0
C1830 C 0.59154 0.70478 0.45016 0.0
C1831 C 0.58027 0.67642 0.44467 0.0
C1832 C 0.57772 0.70551 0.4596 0.0
C1833 C 0.50309 0.65964 0.47393 0.0
H1834 H 0.54944 0.71299 0.49726 0.0
C1835 C 0.43652 0.65982 0.50988 0.0
C1836 C 0.44323 0.69001 0.51278 0.0
C1837 C 0.45744 0.65593 0.50361 0.0
C1838 C 0.53618 0.6979 0.49081 0.0
H1839 H 0.54668 0.62635 0.44515 0.0
H1840 H 0.52342 0.62761 0.46146 0.0
H1841 H 0.57763 0.71189 0.48183 0.0
H1842 H 0.47796 0.73946 0.5122 0.0
H1843 H 0.51447 0.7328 0.50139 0.0
H1844 H 0.4617 0.6461 0.48269 0.0
C1845 C 0.54216 0.64949 0.4584 0.0
C1846 C 0.55232 0.69743 0.48194 0.0
C1847 C 0.55567 0.6488 0.44901 0.0
C1848 C 0.47247 0.71587 0.51018 0.0
C1849 C 0.49337 0.71202 0.50395 0.0
C1850 C 0.48706 0.66004 0.48276 0.0
C1851 C 0.55251 0.67788 0.46375 0.0
C1852 C 0.53593 0.67839 0.47335 0.0
C1853 C 0.48532 0.6822 0.50009 0.0
C1854 C 0.50328 0.67932 0.4913 0.0
H1855 H 0.61049 0.72645 0.44707 0.0
H1856 H 0.5862 0.72785 0.46348 0.0
H1857 H 0.48952 0.64519 0.4674 0.0
H1858 H 0.4138 0.6396 0.51149 0.0
H1859 H 0.45074 0.63255 0.50092 0.0
C1860 C 0.35388 0.93447 0.45407 0.0
C1861 C 0.37008 0.93105 0.44569 0.0
C1862 C 0.35404 0.92173 0.46389 0.0
C1863 C 0.39787 0.89051 0.4791 0.0
H1864 H 0.32142 0.8458 0.49494 0.0
C1865 C 0.39002 0.80674 0.51168 0.0
C1866 C 0.36317 0.77701 0.51057 0.0
C1867 C 0.39139 0.83298 0.50672 0.0
C1868 C 0.34306 0.85829 0.49064 0.0
H1869 H 0.39807 0.9104 0.44104 0.0
H1870 H 0.3975 0.88776 0.4578 0.0
H1871 H 0.32275 0.8763 0.47973 0.0
H1872 H 0.31575 0.75183 0.50441 0.0
H1873 H 0.31803 0.79674 0.49584 0.0
H1874 H 0.4175 0.87062 0.48943 0.0
C1875 C 0.38561 0.90116 0.45701 0.0
C1876 C 0.34389 0.87608 0.48196 0.0
C1877 C 0.38561 0.91393 0.4473 0.0
C1878 C 0.33685 0.7745 0.50533 0.0
C1879 C 0.33812 0.80047 0.50046 0.0
C1880 C 0.39694 0.87247 0.48769 0.0
C1881 C 0.37033 0.90526 0.46551 0.0
C1882 C 0.37091 0.89129 0.47581 0.0
C1883 C 0.36585 0.82983 0.50066 0.0
C1884 C 0.3691 0.85498 0.49331 0.0
H1885 H 0.3418 0.94765 0.45312 0.0
H1886 H 0.34194 0.9253 0.47026 0.0
H1887 H 0.41943 0.90273 0.47474 0.0
H1888 H 0.41065 0.80927 0.51567 0.0
H1889 H 0.41297 0.85535 0.50721 0.0
C1890 C 0.1678 0.43785 0.40235 0.0
C1891 C 0.13852 0.43528 0.40427 0.0
C1892 C 0.18478 0.45297 0.39349 0.0
C1893 C 0.18053 0.48017 0.36708 0.0
H1894 H 0.2691 0.53718 0.37211 0.0
C1895 C 0.26673 0.57551 0.33823 0.0
C1896 C 0.29871 0.58549 0.33949 0.0
C1897 C 0.24434 0.55088 0.34433 0.0
C1898 C 0.24459 0.52085 0.37047 0.0
H1899 H 0.10399 0.44629 0.39809 0.0
H1900 H 0.13422 0.47333 0.38251 0.0
H1901 H 0.23544 0.50889 0.38654 0.0
H1902 H 0.33212 0.57523 0.34692 0.0
H1903 H 0.29307 0.53096 0.357 0.0
H1904 H 0.18996 0.49275 0.35092 0.0
C1905 C 0.14368 0.46323 0.38795 0.0
C1906 C 0.22519 0.50477 0.3788 0.0
C1907 C 0.1265 0.44797 0.39691 0.0
C1908 C 0.30755 0.56784 0.3458 0.0
C1909 C 0.2852 0.54288 0.35171 0.0
C1910 C 0.20011 0.49636 0.35867 0.0
C1911 C 0.17322 0.4662 0.38624 0.0
C1912 C 0.19299 0.48405 0.37723 0.0
C1913 C 0.25371 0.53571 0.35165 0.0
C1914 C 0.23248 0.51672 0.36026 0.0
H1915 H 0.17791 0.42825 0.40773 0.0
H1916 H 0.20717 0.45434 0.39233 0.0
H1917 H 0.15581 0.46425 0.36562 0.0
H1918 H 0.25944 0.58912 0.33352 0.0
H1919 H 0.22032 0.54595 0.34402 0.0
C1920 C 0.59399 0.68426 0.38863 0.0
C1921 C 0.59284 0.69839 0.39796 0.0
C1922 C 0.58077 0.68836 0.37947 0.0
C1923 C 0.56269 0.74424 0.36688 0.0
H1924 H 0.49952 0.67364 0.35102 0.0
C1925 C 0.46632 0.74819 0.34368 0.0
C1926 C 0.44971 0.72557 0.33599 0.0
C1927 C 0.49288 0.75013 0.34837 0.0
C1928 C 0.51781 0.69376 0.35513 0.0
H1929 H 0.57862 0.72905 0.405 0.0
H1930 H 0.55569 0.73651 0.38898 0.0
H1931 H 0.5262 0.6644 0.36554 0.0
H1932 H 0.44993 0.69017 0.32615 0.0
H1933 H 0.49702 0.69399 0.33418 0.0
H1934 H 0.55418 0.77366 0.35663 0.0
C1935 C 0.56622 0.72177 0.38878 0.0
C1936 C 0.53285 0.68835 0.36352 0.0
C1937 C 0.57902 0.7173 0.39794 0.0
C1938 C 0.46251 0.70797 0.33203 0.0
C1939 C 0.48914 0.70977 0.33678 0.0
C1940 C 0.54801 0.7497 0.35841 0.0
C1941 C 0.56725 0.70761 0.37944 0.0
C1942 C 0.55455 0.71346 0.3697 0.0
C1943 C 0.5033 0.72937 0.34548 0.0
C1944 C 0.52443 0.72445 0.35268 0.0
H1945 H 0.60589 0.67081 0.38836 0.0
H1946 H 0.58206 0.67737 0.37236 0.0
H1947 H 0.57987 0.76407 0.3714 0.0
H1948 H 0.45671 0.76187 0.3469 0.0
H1949 H 0.50298 0.76554 0.35502 0.0
C1950 C 0.32472 0.88392 0.40251 0.0
C1951 C 0.34412 0.9162 0.40085 0.0
C1952 C 0.31923 0.86257 0.39454 0.0
C1953 C 0.32246 0.85565 0.36585 0.0
H1954 H 0.3189 0.77754 0.3734 0.0
C1955 C 0.32837 0.7651 0.33799 0.0
C1956 C 0.31114 0.73355 0.34113 0.0
C1957 C 0.32713 0.78847 0.34381 0.0
C1958 C 0.31932 0.79903 0.37117 0.0
H1959 H 0.37085 0.95192 0.38939 0.0
H1960 H 0.36235 0.91453 0.37547 0.0
H1961 H 0.33015 0.81664 0.38671 0.0
H1962 H 0.27633 0.70108 0.35186 0.0
H1963 H 0.27332 0.74156 0.36179 0.0
H1964 H 0.3127 0.83799 0.35015 0.0
C1965 C 0.35152 0.90559 0.38295 0.0
C1966 C 0.3258 0.8215 0.37882 0.0
C1967 C 0.35691 0.92697 0.39095 0.0
C1968 C 0.28972 0.72528 0.34928 0.0
C1969 C 0.28832 0.74848 0.35503 0.0
C1970 C 0.31628 0.83315 0.35813 0.0
C1971 C 0.33272 0.87307 0.38467 0.0
C1972 C 0.32708 0.84995 0.37631 0.0
C1973 C 0.30859 0.78038 0.35279 0.0
C1974 C 0.31424 0.80443 0.36077 0.0
H1975 H 0.31375 0.87521 0.40999 0.0
H1976 H 0.30394 0.8378 0.39609 0.0
H1977 H 0.32308 0.87723 0.36365 0.0
H1978 H 0.34542 0.77204 0.33182 0.0
H1979 H 0.34294 0.81289 0.34189 0.0
C1980 C 0.3135 0.0285 0.11604 0.0
C1981 C 0.32071 0.03631 0.10549 0.0
C1982 C 0.28399 0.02087 0.11989 0.0
C1983 C 0.21588 0.03109 0.11299 0.0
H1984 H 0.17594 0.97472 0.13625 0.0
C1985 C 0.09055 0.99407 0.12415 0.0
C1986 C 0.08627 0.00075 0.13444 0.0
C1987 C 0.11783 0.99421 0.1213 0.0
C1988 C 0.18697 0.99062 0.12978 0.0
H1989 H 0.30206 0.04035 0.09059 0.0
H1990 H 0.2503 0.02554 0.09712 0.0
H1991 H 0.22563 0.98216 0.12955 0.0
H1992 H 0.10676 0.01091 0.14995 0.0
H1993 H 0.15451 0.01041 0.14496 0.0
H1994 H 0.17694 0.03894 0.11305 0.0
C1995 C 0.26768 0.02656 0.10257 0.0
C1996 C 0.21549 0.99501 0.12594 0.0
C1997 C 0.29731 0.03474 0.09878 0.0
C1998 C 0.1091 0.00533 0.14199 0.0
C1999 C 0.13652 0.00522 0.13913 0.0
C2000 C 0.1873 0.02633 0.1167 0.0
C2001 C 0.26082 0.02043 0.11325 0.0
C2002 C 0.2303 0.01522 0.11743 0.0
C2003 C 0.14159 0.00082 0.12866 0.0
C2004 C 0.17242 0.00595 0.12509 0.0
H2005 H 0.33113 0.02971 0.12143 0.0
H2006 H 0.27988 0.01658 0.12816 0.0
H2007 H 0.2268 0.04763 0.10668 0.0
H2008 H 0.07334 0.99008 0.11814 0.0
H2009 H 0.12087 0.99023 0.11322 0.0
C2010 C 0.01043 0.30027 0.10459 0.0
C2011 C 0.98143 0.2976 0.10691 0.0
C2012 C 0.02022 0.28136 0.10974 0.0
C2013 C 0.98821 0.20833 0.1261 0.0
H2014 H 0.07614 0.23391 0.12929 0.0
C2015 C 0.02648 0.12834 0.14636 0.0
C2016 C 0.04172 0.11895 0.13928 0.0
C2017 C 0.02373 0.15488 0.14428 0.0
C2018 C 0.05151 0.22666 0.12853 0.0
H2019 H 0.94073 0.2744 0.11682 0.0
H2020 H 0.95835 0.24301 0.12618 0.0
H2021 H 0.06138 0.2707 0.12194 0.0
H2022 H 0.06854 0.1314 0.12506 0.0
H2023 H 0.06492 0.17843 0.12168 0.0
H2024 H 0.97854 0.16449 0.13284 0.0
C2025 C 0.97305 0.2583 0.12005 0.0
C2026 C 0.04295 0.24756 0.12419 0.0
C2027 C 0.96295 0.27653 0.11472 0.0
C2028 C 0.05677 0.13821 0.13066 0.0
C2029 C 0.05469 0.16511 0.12872 0.0
C2030 C 0.9968 0.18782 0.13064 0.0
C2031 C 0.00157 0.2599 0.11752 0.0
C2032 C 0.0111 0.23854 0.12274 0.0
C2033 C 0.0369 0.17285 0.13524 0.0
C2034 C 0.02848 0.19655 0.13176 0.0
H2035 H 0.02512 0.3163 0.09859 0.0
H2036 H 0.04207 0.28312 0.1074 0.0
H2037 H 0.96347 0.19989 0.12492 0.0
H2038 H 0.0144 0.11373 0.15301 0.0
H2039 H 0.00997 0.16045 0.14944 0.0
C2040 C 0.7756 0.71637 0.11101 0.0
C2041 C 0.75449 0.71307 0.10302 0.0
C2042 C 0.79282 0.7448 0.11632 0.0
C2043 C 0.80057 0.82434 0.12004 0.0
H2044 H 0.8839 0.84541 0.12944 0.0
C2045 C 0.90651 0.94936 0.1281 0.0
C2046 C 0.92485 0.95312 0.13703 0.0
C2047 C 0.8807 0.92005 0.12561 0.0
C2048 C 0.8605 0.83967 0.127 0.0
H2049 H 0.73464 0.7369 0.09435 0.0
H2050 H 0.76609 0.78731 0.10315 0.0
H2051 H 0.85023 0.79492 0.12131 0.0
H2052 H 0.92932 0.92958 0.1507 0.0
H2053 H 0.8846 0.87809 0.1462 0.0
H2054 H 0.8124 0.87058 0.12515 0.0
C2055 C 0.76864 0.76765 0.10563 0.0
C2056 C 0.84097 0.81053 0.12235 0.0
C2057 C 0.75071 0.7388 0.10051 0.0
C2058 C 0.9155 0.9275 0.14382 0.0
C2059 C 0.89008 0.89798 0.1412 0.0
C2060 C 0.8205 0.85387 0.12448 0.0
C2061 C 0.7902 0.77119 0.11359 0.0
C2062 C 0.81064 0.80229 0.11878 0.0
C2063 C 0.87312 0.89379 0.13189 0.0
C2064 C 0.85065 0.86177 0.12801 0.0
H2065 H 0.77858 0.69674 0.11325 0.0
H2066 H 0.8082 0.74592 0.12259 0.0
H2067 H 0.7773 0.81891 0.11759 0.0
H2068 H 0.9132 0.9687 0.12272 0.0
H2069 H 0.86811 0.91745 0.11837 0.0
C2070 C 0.02485 0.29572 0.40927 0.0
C2071 C 0.05318 0.30695 0.41489 0.0
C2072 C 0.01393 0.26954 0.40275 0.0
C2073 C 0.98843 0.20324 0.39399 0.0
H2074 H 0.04973 0.19464 0.37786 0.0
C2075 C 0.97137 0.08596 0.37924 0.0
C2076 C 0.98767 0.08541 0.37042 0.0
C2077 C 0.97336 0.11391 0.38251 0.0
C2078 C 0.03214 0.1969 0.38213 0.0
H2079 H 0.0917 0.29862 0.41823 0.0
H2080 H 0.07247 0.25286 0.40698 0.0
H2081 H 0.06635 0.24157 0.38831 0.0
H2082 H 0.01609 0.11291 0.35745 0.0
H2083 H 0.01933 0.16188 0.36309 0.0
H2084 H 0.9543 0.15826 0.38791 0.0
C2085 C 0.05899 0.26469 0.40748 0.0
C2086 C 0.04179 0.22361 0.38827 0.0
C2087 C 0.06986 0.29079 0.41402 0.0
C2088 C 0.0032 0.11259 0.36427 0.0
C2089 C 0.00539 0.14073 0.36758 0.0
C2090 C 0.97877 0.17643 0.38786 0.0
C2091 C 0.03112 0.25399 0.40166 0.0
C2092 C 0.02021 0.22676 0.39447 0.0
C2093 C 0.99184 0.14201 0.37703 0.0
C2094 C 0.00064 0.17261 0.38204 0.0
H2095 H 0.01133 0.30752 0.40973 0.0
H2096 H 0.99244 0.26197 0.39836 0.0
H2097 H 0.97119 0.20492 0.39868 0.0
H2098 H 0.95911 0.0653 0.38411 0.0
H2099 H 0.96265 0.11393 0.38982 0.0
C2100 C 0.74151 0.73786 0.4016 0.0
C2101 C 0.73177 0.74901 0.41 0.0
C2102 C 0.77049 0.75681 0.39695 0.0
C2103 C 0.82167 0.80774 0.38402 0.0
H2104 H 0.89493 0.86676 0.39982 0.0
C2105 C 0.92991 0.91461 0.36583 0.0
C2106 C 0.95869 0.92673 0.37113 0.0
C2107 C 0.90326 0.88805 0.36969 0.0
C2108 C 0.87491 0.85004 0.39526 0.0
H2109 H 0.74515 0.78845 0.42031 0.0
H2110 H 0.7958 0.82207 0.41205 0.0
H2111 H 0.84724 0.83078 0.40892 0.0
H2112 H 0.98334 0.91876 0.38376 0.0
H2113 H 0.9375 0.8715 0.39012 0.0
H2114 H 0.84956 0.82676 0.37036 0.0
C2115 C 0.78116 0.79839 0.40916 0.0
C2116 C 0.84732 0.82974 0.4005 0.0
C2117 C 0.75214 0.77921 0.4139 0.0
C2118 C 0.96129 0.9099 0.37957 0.0
C2119 C 0.9349 0.88313 0.38331 0.0
C2120 C 0.84937 0.82794 0.37877 0.0
C2121 C 0.79044 0.78759 0.4005 0.0
C2122 C 0.82023 0.8085 0.39495 0.0
C2123 C 0.9052 0.873 0.37882 0.0
C2124 C 0.87631 0.84954 0.38432 0.0
H2125 H 0.72645 0.71452 0.39849 0.0
H2126 H 0.77712 0.74737 0.3905 0.0
H2127 H 0.80116 0.792 0.37945 0.0
H2128 H 0.92728 0.92739 0.35936 0.0
H2129 H 0.88083 0.88095 0.366 0.0
C2130 C 0.28151 0.01899 0.41588 0.0
C2131 C 0.29918 0.01094 0.40943 0.0
C2132 C 0.26198 0.02928 0.41153 0.0
C2133 C 0.24363 0.05628 0.38629 0.0
H2134 H 0.16435 0.03024 0.39975 0.0
C2135 C 0.13059 0.04673 0.36725 0.0
C2136 C 0.1142 0.05699 0.37348 0.0
C2137 C 0.15783 0.0477 0.3711 0.0
C2138 C 0.18658 0.03797 0.39596 0.0
H2139 H 0.31011 0.00714 0.39337 0.0
H2140 H 0.27535 0.02348 0.38584 0.0
H2141 H 0.20179 0.01813 0.40788 0.0
H2142 H 0.11521 0.07928 0.38812 0.0
H2143 H 0.16235 0.08075 0.39478 0.0
H2144 H 0.22717 0.07463 0.37407 0.0
C2145 C 0.27718 0.02314 0.39424 0.0
C2146 C 0.2082 0.0312 0.40065 0.0
C2147 C 0.29701 0.01344 0.39858 0.0
C2148 C 0.12712 0.07087 0.38317 0.0
C2149 C 0.15404 0.07162 0.38702 0.0
C2150 C 0.22166 0.06254 0.38149 0.0
C2151 C 0.25928 0.03117 0.40063 0.0
C2152 C 0.23702 0.0401 0.39588 0.0
C2153 C 0.16883 0.05877 0.38123 0.0
C2154 C 0.19294 0.05342 0.38629 0.0
H2155 H 0.28287 0.01748 0.42427 0.0
H2156 H 0.24904 0.03576 0.41674 0.0
H2157 H 0.26577 0.06412 0.38244 0.0
H2158 H 0.12104 0.03558 0.35982 0.0
H2159 H 0.16887 0.03764 0.36648 0.0
C2160 C 0.72261 0.93322 0.9137 0.0
C2161 C 0.71095 0.95341 0.91127 0.0
C2162 C 0.74942 0.93676 0.90886 0.0
C2163 C 0.79757 0.96724 0.88548 0.0
H2164 H 0.86176 0.9661 0.90286 0.0
C2165 C 0.92105 0.99762 0.87051 0.0
C2166 C 0.93631 0.98384 0.87575 0.0
C2167 C 0.89141 0.9915 0.87376 0.0
C2168 C 0.84387 0.96583 0.89783 0.0
H2169 H 0.71838 0.99312 0.90175 0.0
H2170 H 0.76529 0.9991 0.8932 0.0
H2171 H 0.81521 0.96141 0.91084 0.0
H2172 H 0.93149 0.95052 0.8877 0.0
H2173 H 0.87934 0.9384 0.89294 0.0
H2174 H 0.82613 0.97122 0.87243 0.0
C2175 C 0.75352 0.98056 0.89889 0.0
C2176 C 0.81724 0.96338 0.90244 0.0
C2177 C 0.72684 0.97729 0.90385 0.0
C2178 C 0.92034 0.96171 0.88361 0.0
C2179 C 0.89061 0.95512 0.8867 0.0
C2180 C 0.82418 0.96936 0.88082 0.0
C2181 C 0.7651 0.96035 0.90137 0.0
C2182 C 0.79373 0.96392 0.89634 0.0
C2183 C 0.87641 0.97113 0.8822 0.0
C2184 C 0.84761 0.96846 0.88694 0.0
H2185 H 0.71102 0.91459 0.91937 0.0
H2186 H 0.75767 0.9207 0.91088 0.0
H2187 H 0.77968 0.96753 0.88058 0.0
H2188 H 0.933 0.01494 0.86448 0.0
H2189 H 0.88127 0.00426 0.87009 0.0
C2190 C 0.06153 0.75396 0.89969 0.0
C2191 C 0.08531 0.76079 0.9071 0.0
C2192 C 0.06075 0.7782 0.89412 0.0
C2193 C 0.11115 0.86375 0.88767 0.0
H2194 H 0.03172 0.85795 0.88065 0.0
C2195 C 0.0924 0.96915 0.8812 0.0
C2196 C 0.0723 0.9677 0.87312 0.0
C2197 C 0.09725 0.94392 0.88312 0.0
C2198 C 0.05409 0.85968 0.88239 0.0
H2199 H 0.12625 0.79857 0.91473 0.0
H2200 H 0.12413 0.84056 0.90545 0.0
H2201 H 0.03224 0.81347 0.88893 0.0
H2202 H 0.04267 0.93944 0.86036 0.0
H2203 H 0.05054 0.89468 0.8639 0.0
H2204 H 0.13277 0.91076 0.88167 0.0
C2205 C 0.10673 0.81656 0.90357 0.0
C2206 C 0.05444 0.83415 0.88715 0.0
C2207 C 0.10778 0.7924 0.90899 0.0
C2208 C 0.05856 0.94127 0.86657 0.0
C2209 C 0.06281 0.9156 0.86865 0.0
C2210 C 0.11074 0.88941 0.88307 0.0
C2211 C 0.0835 0.80989 0.89593 0.0
C2212 C 0.08299 0.83602 0.89005 0.0
C2213 C 0.08152 0.91639 0.87714 0.0
C2214 C 0.08221 0.88782 0.88054 0.0
H2215 H 0.04401 0.72985 0.89798 0.0
H2216 H 0.04265 0.77197 0.88825 0.0
H2217 H 0.13366 0.86591 0.88948 0.0
H2218 H 0.10311 0.9892 0.88639 0.0
H2219 H 0.11166 0.94515 0.88973 0.0
C2220 C 0.30789 0.32723 0.90217 0.0
C2221 C 0.30725 0.33927 0.91202 0.0
C2222 C 0.28126 0.30094 0.89811 0.0
C2223 C 0.20549 0.23228 0.90549 0.0
H2224 H 0.18319 0.23367 0.8765 0.0
C2225 C 0.08989 0.13283 0.88907 0.0
C2226 C 0.09079 0.12059 0.87931 0.0
C2227 C 0.11481 0.16147 0.89251 0.0
C2228 C 0.1892 0.23274 0.88458 0.0
H2229 H 0.27823 0.33255 0.92543 0.0
H2230 H 0.23176 0.28643 0.91839 0.0
H2231 H 0.23015 0.2785 0.88384 0.0
H2232 H 0.1178 0.12971 0.86523 0.0
H2233 H 0.16172 0.17972 0.87127 0.0
H2234 H 0.16505 0.18646 0.90624 0.0
C2235 C 0.25295 0.29734 0.91381 0.0
C2236 C 0.21616 0.25846 0.88879 0.0
C2237 C 0.27958 0.32379 0.91785 0.0
C2238 C 0.11629 0.13868 0.87275 0.0
C2239 C 0.14153 0.16732 0.87625 0.0
C2240 C 0.17868 0.20656 0.90127 0.0
C2241 C 0.25332 0.28588 0.90382 0.0
C2242 C 0.22463 0.25855 0.89931 0.0
C2243 C 0.14159 0.17849 0.88635 0.0
C2244 C 0.17005 0.20642 0.89077 0.0
H2245 H 0.32879 0.33855 0.89745 0.0
H2246 H 0.28256 0.29244 0.89048 0.0
H2247 H 0.21156 0.2313 0.91356 0.0
H2248 H 0.0704 0.11957 0.89426 0.0
H2249 H 0.11348 0.16974 0.90018 0.0
C2250 C 0.01776 0.72382 0.61149 0.0
C2251 C 0.00848 0.71955 0.60095 0.0
C2252 C 0.02084 0.74962 0.61705 0.0
C2253 C 0.02364 0.82641 0.61388 0.0
H2254 H 0.98341 0.80668 0.64088 0.0
C2255 C 0.97644 0.90033 0.63047 0.0
C2256 C 0.98935 0.9149 0.64007 0.0
C2257 C 0.97947 0.87517 0.6271 0.0
C2258 C 0.99502 0.81255 0.63341 0.0
H2259 H 0.99719 0.74009 0.58782 0.0
H2260 H 0.0023 0.78474 0.59745 0.0
H2261 H 0.99145 0.76754 0.63187 0.0
H2262 H 0.01288 0.91262 0.65413 0.0
H2263 H 0.0177 0.86769 0.64823 0.0
H2264 H 0.02584 0.87079 0.61521 0.0
C2265 C 0.00748 0.76843 0.60146 0.0
C2266 C 0.99982 0.79028 0.62826 0.0
C2267 C 0.00448 0.74272 0.59591 0.0
C2268 C 0.00261 0.90175 0.64671 0.0
C2269 C 0.00556 0.87625 0.64332 0.0
C2270 C 0.01854 0.8484 0.61896 0.0
C2271 C 0.01474 0.77171 0.61218 0.0
C2272 C 0.01351 0.79669 0.61831 0.0
C2273 C 0.99534 0.86385 0.63327 0.0
C2274 C 0.00351 0.84142 0.62864 0.0
H2275 H 0.02109 0.70641 0.61561 0.0
H2276 H 0.02708 0.75175 0.62524 0.0
H2277 H 0.03492 0.83247 0.60636 0.0
H2278 H 0.96574 0.90971 0.62524 0.0
H2279 H 0.97078 0.86553 0.61942 0.0
C2280 C 0.30446 0.28912 0.61035 0.0
C2281 C 0.30935 0.28691 0.59968 0.0
C2282 C 0.27896 0.26451 0.61546 0.0
C2283 C 0.22708 0.17892 0.61305 0.0
H2284 H 0.17801 0.18885 0.63451 0.0
C2285 C 0.10961 0.07738 0.62673 0.0
C2286 C 0.1011 0.07508 0.63724 0.0
C2287 C 0.13736 0.10286 0.62318 0.0
C2288 C 0.1919 0.18574 0.62867 0.0
H2289 H 0.28999 0.25805 0.58589 0.0
H2290 H 0.24524 0.21546 0.59475 0.0
H2291 H 0.21967 0.23531 0.62585 0.0
H2292 H 0.11562 0.09721 0.65238 0.0
H2293 H 0.16467 0.14229 0.64612 0.0
H2294 H 0.19926 0.12948 0.61575 0.0
C2295 C 0.26154 0.2359 0.59922 0.0
C2296 C 0.21564 0.21235 0.62366 0.0
C2297 C 0.28701 0.26049 0.59411 0.0
C2298 C 0.12172 0.09827 0.64425 0.0
C2299 C 0.14956 0.12419 0.64065 0.0
C2300 C 0.20347 0.15244 0.61804 0.0
C2301 C 0.2578 0.23712 0.61003 0.0
C2302 C 0.23311 0.20919 0.61565 0.0
C2303 C 0.15739 0.12697 0.63002 0.0
C2304 C 0.18517 0.15543 0.62577 0.0
H2305 H 0.32127 0.30912 0.61488 0.0
H2306 H 0.27681 0.26625 0.62378 0.0
H2307 H 0.24066 0.17564 0.60713 0.0
H2308 H 0.09424 0.05984 0.62114 0.0
H2309 H 0.1424 0.10433 0.61494 0.0
C2310 C 0.80626 0.11323 0.60625 0.0
C2311 C 0.78039 0.08914 0.6009 0.0
C2312 C 0.8229 0.1063 0.61358 0.0
C2313 C 0.82142 0.04273 0.62973 0.0
H2314 H 0.91179 0.09562 0.6281 0.0
C2315 C 0.91029 0.00622 0.6428 0.0
C2316 C 0.94019 0.02928 0.64623 0.0
C2317 C 0.8876 0.01417 0.64021 0.0
C2318 C 0.88661 0.08107 0.62887 0.0
H2319 H 0.751 0.03871 0.59934 0.0
H2320 H 0.78102 0.02639 0.61201 0.0
H2321 H 0.8784 0.10714 0.61719 0.0
H2322 H 0.96946 0.07822 0.65031 0.0
H2323 H 0.92956 0.0924 0.64585 0.0
H2324 H 0.83007 0.01586 0.64113 0.0
C2325 C 0.78802 0.05075 0.6106 0.0
C2326 C 0.86737 0.08758 0.62256 0.0
C2327 C 0.77096 0.05775 0.60329 0.0
C2328 C 0.94637 0.06001 0.64784 0.0
C2329 C 0.92367 0.06811 0.64516 0.0
C2330 C 0.84078 0.0361 0.63603 0.0
C2331 C 0.81452 0.07505 0.6157 0.0
C2332 C 0.83454 0.06835 0.62281 0.0
C2333 C 0.89455 0.0455 0.64087 0.0
C2334 C 0.87363 0.05498 0.63556 0.0
H2335 H 0.81373 0.13771 0.60481 0.0
H2336 H 0.84255 0.12559 0.61756 0.0
H2337 H 0.79624 0.02772 0.63023 0.0
H2338 H 0.90517 0.98237 0.64146 0.0
H2339 H 0.86561 0.99624 0.63687 0.0
C2340 C 0.96206 0.34155 0.44091 0.0
C2341 C 0.97769 0.36592 0.43366 0.0
C2342 C 0.93261 0.33412 0.44462 0.0
C2343 C 0.88635 0.37045 0.45027 0.0
H2344 H 0.81588 0.28544 0.45219 0.0
C2345 C 0.77594 0.34235 0.47335 0.0
C2346 C 0.74867 0.32836 0.46713 0.0
C2347 C 0.80318 0.34298 0.46998 0.0
C2348 C 0.83546 0.30924 0.45175 0.0
H2349 H 0.97452 0.40114 0.42438 0.0
H2350 H 0.92299 0.38856 0.43107 0.0
H2351 H 0.86441 0.29501 0.44382 0.0
H2352 H 0.72759 0.30174 0.45303 0.0
H2353 H 0.77482 0.302 0.44734 0.0
H2354 H 0.85762 0.38472 0.45826 0.0
C2355 C 0.93359 0.37511 0.43381 0.0
C2356 C 0.86313 0.31472 0.44696 0.0
C2357 C 0.96289 0.38215 0.42993 0.0
C2358 C 0.74832 0.3127 0.45797 0.0
C2359 C 0.77532 0.31283 0.45471 0.0
C2360 C 0.85893 0.36493 0.45521 0.0
C2361 C 0.91841 0.35129 0.44129 0.0
C2362 C 0.88874 0.34542 0.4461 0.0
C2363 C 0.80335 0.3291 0.46046 0.0
C2364 C 0.83316 0.3343 0.45596 0.0
H2365 H 0.97292 0.3286 0.44391 0.0
H2366 H 0.92152 0.31577 0.45041 0.0
H2367 H 0.90588 0.39429 0.44982 0.0
H2368 H 0.77698 0.35484 0.48039 0.0
H2369 H 0.82446 0.35544 0.4746 0.0
C2370 C 0.63161 0.58676 0.43289 0.0
C2371 C 0.65045 0.61938 0.43149 0.0
C2372 C 0.64257 0.57014 0.43876 0.0
C2373 C 0.66401 0.54436 0.45654 0.0
H2374 H 0.74805 0.55897 0.45225 0.0
C2375 C 0.70307 0.46535 0.47649 0.0
C2376 C 0.71348 0.45153 0.4692 0.0
C2377 C 0.70212 0.49256 0.47389 0.0
C2378 C 0.72462 0.55483 0.45361 0.0
H2379 H 0.69596 0.65994 0.43507 0.0
H2380 H 0.71492 0.63089 0.44527 0.0
H2381 H 0.7309 0.59151 0.44314 0.0
H2382 H 0.73416 0.45692 0.45399 0.0
H2383 H 0.73272 0.50418 0.44948 0.0
H2384 H 0.65713 0.5067 0.4666 0.0
C2385 C 0.69171 0.61819 0.4418 0.0
C2386 C 0.71483 0.57355 0.44842 0.0
C2387 C 0.68075 0.63483 0.43596 0.0
C2388 C 0.72587 0.46704 0.45973 0.0
C2389 C 0.72517 0.49425 0.45717 0.0
C2390 C 0.6738 0.52571 0.46174 0.0
C2391 C 0.67264 0.58571 0.44335 0.0
C2392 C 0.68412 0.56794 0.44962 0.0
C2393 C 0.71183 0.50642 0.464 0.0
C2394 C 0.70394 0.53016 0.46012 0.0
H2395 H 0.6082 0.57404 0.42956 0.0
H2396 H 0.62752 0.545 0.43965 0.0
H2397 H 0.64039 0.53985 0.45778 0.0
H2398 H 0.69319 0.45377 0.48382 0.0
H2399 H 0.69212 0.50168 0.47937 0.0
C2400 C 0.45628 0.06116 0.43837 0.0
C2401 C 0.43261 0.05819 0.4315 0.0
C2402 C 0.47271 0.088 0.44454 0.0
C2403 C 0.47042 0.15942 0.45355 0.0
H2404 H 0.55728 0.18819 0.46069 0.0
C2405 C 0.56953 0.28572 0.46345 0.0
C2406 C 0.58987 0.28893 0.4717 0.0
C2407 C 0.54423 0.25624 0.46088 0.0
C2408 C 0.53285 0.1801 0.4589 0.0
H2409 H 0.4081 0.08121 0.42544 0.0
H2410 H 0.43813 0.12898 0.43562 0.0
H2411 H 0.52765 0.14031 0.45066 0.0
H2412 H 0.59814 0.26453 0.48435 0.0
H2413 H 0.55435 0.21273 0.47964 0.0
H2414 H 0.47702 0.2011 0.46118 0.0
C2415 C 0.44321 0.11013 0.43666 0.0
C2416 C 0.51573 0.15253 0.45316 0.0
C2417 C 0.42623 0.08291 0.4307 0.0
C2418 C 0.58268 0.26276 0.478 0.0
C2419 C 0.55781 0.2331 0.47527 0.0
C2420 C 0.48789 0.18749 0.45908 0.0
C2421 C 0.46645 0.11295 0.44379 0.0
C2422 C 0.48429 0.14183 0.4503 0.0
C2423 C 0.53934 0.22948 0.4664 0.0
C2424 C 0.51927 0.19807 0.46177 0.0
H2425 H 0.46129 0.04219 0.43928 0.0
H2426 H 0.48983 0.08874 0.45005 0.0
H2427 H 0.44612 0.15172 0.45175 0.0
H2428 H 0.57466 0.30556 0.45847 0.0
H2429 H 0.53036 0.25398 0.45399 0.0
C2430 C 0.77382 0.64681 0.75451 0.0
C2431 C 0.7537 0.6589 0.75265 0.0
C2432 C 0.7718 0.62244 0.74841 0.0
C2433 C 0.74533 0.58512 0.72265 0.0
H2434 H 0.75297 0.51788 0.73558 0.0
C2435 C 0.71994 0.4696 0.70181 0.0
C2436 C 0.73578 0.45452 0.70564 0.0
C2437 C 0.72562 0.49802 0.70623 0.0
C2438 C 0.75144 0.53678 0.73179 0.0
H2439 H 0.71506 0.6541 0.74301 0.0
H2440 H 0.71141 0.61128 0.73242 0.0
H2441 H 0.75354 0.55845 0.74638 0.0
H2442 H 0.77238 0.4587 0.7161 0.0
H2443 H 0.78364 0.50894 0.72337 0.0
H2444 H 0.74311 0.56318 0.70802 0.0
C2445 C 0.72898 0.62101 0.73855 0.0
C2446 C 0.75156 0.55998 0.73801 0.0
C2447 C 0.73085 0.64531 0.74471 0.0
C2448 C 0.75982 0.4699 0.71305 0.0
C2449 C 0.76588 0.49842 0.71732 0.0
C2450 C 0.74531 0.56187 0.71639 0.0
C2451 C 0.74969 0.60956 0.74026 0.0
C2452 C 0.74862 0.58449 0.73354 0.0
C2453 C 0.74748 0.51181 0.71445 0.0
C2454 C 0.74856 0.53749 0.72088 0.0
H2455 H 0.79172 0.65668 0.76054 0.0
H2456 H 0.78825 0.61432 0.7499 0.0
H2457 H 0.74333 0.6039 0.71896 0.0
H2458 H 0.70105 0.45796 0.69618 0.0
H2459 H 0.71109 0.5077 0.7038 0.0
C2460 C 0.40271 0.08984 0.73518 0.0
C2461 C 0.3916 0.09223 0.74497 0.0
C2462 C 0.42709 0.11625 0.73041 0.0
C2463 C 0.491 0.19773 0.73531 0.0
H2464 H 0.48239 0.20775 0.70566 0.0
C2465 C 0.57674 0.27827 0.70076 0.0
C2466 C 0.59272 0.30657 0.70634 0.0
C2467 C 0.54873 0.25334 0.70461 0.0
C2468 C 0.48514 0.20522 0.71393 0.0
H2469 H 0.39821 0.12395 0.75763 0.0
H2470 H 0.44075 0.17021 0.74929 0.0
H2471 H 0.44237 0.16108 0.71464 0.0
H2472 H 0.59025 0.33244 0.71954 0.0
H2473 H 0.5411 0.28946 0.72605 0.0
H2474 H 0.53375 0.24172 0.73462 0.0
C2475 C 0.43077 0.14783 0.74532 0.0
C2476 C 0.46233 0.17842 0.71907 0.0
C2477 C 0.40641 0.12131 0.75012 0.0
C2478 C 0.57854 0.31073 0.71514 0.0
C2479 C 0.55058 0.28601 0.71893 0.0
C2480 C 0.51368 0.22452 0.73018 0.0
C2481 C 0.44088 0.14575 0.7353 0.0
C2482 C 0.46507 0.17429 0.72983 0.0
C2483 C 0.53631 0.25652 0.71405 0.0
C2484 C 0.51106 0.22859 0.71944 0.0
H2485 H 0.39188 0.0677 0.73102 0.0
H2486 H 0.43481 0.11361 0.72282 0.0
H2487 H 0.49415 0.19513 0.74354 0.0
H2488 H 0.58729 0.27433 0.69401 0.0
H2489 H 0.53823 0.23092 0.70064 0.0
C2490 C 0.9176 0.29822 0.75176 0.0
C2491 C 0.94665 0.31103 0.74676 0.0
C2492 C 0.89202 0.29791 0.74674 0.0
C2493 C 0.87088 0.33363 0.72484 0.0
H2494 H 0.79049 0.25662 0.72599 0.0
C2495 C 0.76603 0.32173 0.7012 0.0
C2496 C 0.73913 0.31209 0.70723 0.0
C2497 C 0.79038 0.31724 0.70489 0.0
C2498 C 0.81278 0.2783 0.7256 0.0
H2499 H 0.97212 0.3349 0.73282 0.0
H2500 H 0.92788 0.3344 0.72414 0.0
H2501 H 0.83528 0.26043 0.73562 0.0
H2502 H 0.71516 0.28749 0.72126 0.0
H2503 H 0.75724 0.27952 0.72762 0.0
H2504 H 0.8484 0.35168 0.71494 0.0
C2505 C 0.92464 0.32464 0.73192 0.0
C2506 C 0.83838 0.28057 0.73119 0.0
C2507 C 0.95003 0.32483 0.73689 0.0
C2508 C 0.73571 0.29526 0.71647 0.0
C2509 C 0.75986 0.29062 0.72011 0.0
C2510 C 0.84532 0.33136 0.71926 0.0
C2511 C 0.89515 0.3106 0.73667 0.0
C2512 C 0.8677 0.30834 0.73092 0.0
C2513 C 0.78807 0.30285 0.71461 0.0
C2514 C 0.81588 0.30375 0.71963 0.0
H2515 H 0.91426 0.2873 0.75935 0.0
H2516 H 0.86969 0.28733 0.75068 0.0
H2517 H 0.89303 0.35548 0.72455 0.0
H2518 H 0.76941 0.33497 0.69409 0.0
H2519 H 0.81164 0.32643 0.70038 0.0
C2520 C 0.38718 0.30113 0.23159 0.0
C2521 C 0.38515 0.31595 0.24059 0.0
C2522 C 0.41502 0.31405 0.22597 0.0
C2523 C 0.49608 0.38488 0.22412 0.0
H2524 H 0.51446 0.32335 0.21253 0.0
C2525 C 0.61897 0.39925 0.2182 0.0
C2526 C 0.62379 0.38621 0.20919 0.0
C2527 C 0.59008 0.39729 0.21992 0.0
C2528 C 0.50949 0.3409 0.21555 0.0
H2529 H 0.4102 0.35615 0.25072 0.0
H2530 H 0.45958 0.3779 0.24133 0.0
H2531 H 0.46339 0.30611 0.2199 0.0
H2532 H 0.60284 0.36265 0.19461 0.0
H2533 H 0.55213 0.35877 0.19772 0.0
H2534 H 0.54361 0.41929 0.22039 0.0
C2535 C 0.43945 0.35693 0.2383 0.0
C2536 C 0.48003 0.33106 0.21977 0.0
C2537 C 0.4112 0.34442 0.24375 0.0
C2538 C 0.59997 0.37327 0.20156 0.0
C2539 C 0.57086 0.37079 0.20338 0.0
C2540 C 0.5259 0.39463 0.22008 0.0
C2541 C 0.44197 0.34158 0.22942 0.0
C2542 C 0.47286 0.3528 0.22422 0.0
C2543 C 0.5653 0.38172 0.21276 0.0
C2544 C 0.53292 0.37266 0.21583 0.0
H2545 H 0.36722 0.27933 0.22893 0.0
H2546 H 0.41544 0.30199 0.21901 0.0
H2547 H 0.49146 0.4025 0.22727 0.0
H2548 H 0.63693 0.40931 0.22421 0.0
H2549 H 0.58639 0.40575 0.22724 0.0
C2550 C 0.73936 0.11663 0.23723 0.0
C2551 C 0.72011 0.08528 0.24044 0.0
C2552 C 0.72692 0.13256 0.23184 0.0
C2553 C 0.65515 0.13566 0.22755 0.0
H2554 H 0.70658 0.19566 0.20645 0.0
C2555 C 0.6703 0.25029 0.20201 0.0
C2556 C 0.6644 0.26559 0.21013 0.0
C2557 C 0.66854 0.22129 0.20374 0.0
C2558 C 0.69138 0.17864 0.21214 0.0
H2559 H 0.67232 0.0462 0.2404 0.0
H2560 H 0.65036 0.07448 0.23093 0.0
H2561 H 0.7201 0.15748 0.21289 0.0
H2562 H 0.64996 0.26136 0.22623 0.0
H2563 H 0.64783 0.2117 0.22932 0.0
H2564 H 0.6266 0.15716 0.22687 0.0
C2565 C 0.67526 0.08648 0.23265 0.0
C2566 C 0.69944 0.15695 0.21594 0.0
C2567 C 0.68784 0.07029 0.23805 0.0
C2568 C 0.65481 0.25031 0.2198 0.0
C2569 C 0.65327 0.22153 0.22155 0.0
C2570 C 0.64694 0.15732 0.22369 0.0
C2571 C 0.69478 0.1178 0.22944 0.0
C2572 C 0.68224 0.1361 0.224 0.0
C2573 C 0.66118 0.2071 0.21366 0.0
C2574 C 0.66569 0.17994 0.21622 0.0
H2575 H 0.7643 0.12917 0.2389 0.0
H2576 H 0.74256 0.15685 0.22972 0.0
H2577 H 0.64134 0.11987 0.23373 0.0
H2578 H 0.6782 0.26152 0.19452 0.0
H2579 H 0.67428 0.21067 0.19741 0.0
C2580 C 0.98678 0.65523 0.23023 0.0
C2581 C 0.98419 0.66069 0.24081 0.0
C2582 C 0.96719 0.62565 0.22581 0.0
C2583 C 0.91748 0.54188 0.23154 0.0
H2584 H 0.86488 0.54053 0.20864 0.0
C2585 C 0.79995 0.43215 0.22181 0.0
C2586 C 0.78684 0.42743 0.21175 0.0
C2587 C 0.82867 0.45876 0.22416 0.0
C2588 C 0.87981 0.54027 0.21484 0.0
H2589 H 0.9601 0.63912 0.25516 0.0
H2590 H 0.92658 0.58715 0.24751 0.0
H2591 H 0.90708 0.5906 0.21512 0.0
H2592 H 0.79448 0.44666 0.19615 0.0
H2593 H 0.84556 0.49238 0.20006 0.0
H2594 H 0.89067 0.49174 0.23128 0.0
C2595 C 0.94354 0.60587 0.24262 0.0
C2596 C 0.90392 0.56908 0.21859 0.0
C2597 C 0.96264 0.63561 0.24699 0.0
C2598 C 0.80411 0.44918 0.20392 0.0
C2599 C 0.83319 0.47578 0.20624 0.0
C2600 C 0.8938 0.51305 0.22766 0.0
C2601 C 0.94515 0.60078 0.23195 0.0
C2602 C 0.92241 0.57018 0.22716 0.0
C2603 C 0.84545 0.48142 0.21648 0.0
C2604 C 0.87391 0.5118 0.21947 0.0
H2605 H 0.00304 0.67415 0.22525 0.0
H2606 H 0.96894 0.6223 0.21757 0.0
H2607 H 0.93169 0.54209 0.23807 0.0
H2608 H 0.78732 0.4159 0.22805 0.0
H2609 H 0.83678 0.46221 0.23217 0.0
C2610 C 0.69471 0.06502 0.94096 0.0
C2611 C 0.68089 0.05708 0.93099 0.0
C2612 C 0.70077 0.09301 0.94571 0.0
C2613 C 0.70353 0.1691 0.94099 0.0
H2614 H 0.67352 0.15801 0.96938 0.0
C2615 C 0.66442 0.24961 0.95875 0.0
C2616 C 0.6756 0.26193 0.96874 0.0
C2617 C 0.66862 0.22572 0.95479 0.0
C2618 C 0.68242 0.1616 0.96152 0.0
H2619 H 0.66461 0.07323 0.91789 0.0
H2620 H 0.67486 0.12186 0.92618 0.0
H2621 H 0.67724 0.11581 0.96084 0.0
H2622 H 0.69867 0.25765 0.98262 0.0
H2623 H 0.7056 0.21514 0.97569 0.0
H2624 H 0.70753 0.21443 0.94156 0.0
C2625 C 0.68129 0.10666 0.93033 0.0
C2626 C 0.68469 0.13751 0.95662 0.0
C2627 C 0.67534 0.07871 0.92556 0.0
C2628 C 0.68976 0.24864 0.9749 0.0
C2629 C 0.69381 0.22442 0.97093 0.0
C2630 C 0.70109 0.19306 0.94586 0.0
C2631 C 0.69309 0.11362 0.9406 0.0
C2632 C 0.69462 0.14072 0.94621 0.0
C2633 C 0.68397 0.21334 0.96073 0.0
C2634 C 0.6898 0.18925 0.95608 0.0
H2635 H 0.69948 0.04892 0.94531 0.0
H2636 H 0.7105 0.09798 0.95353 0.0
H2637 H 0.71185 0.1726 0.93305 0.0
H2638 H 0.65312 0.25904 0.95381 0.0
H2639 H 0.6601 0.2171 0.947 0.0
C2640 C 0.95315 0.60376 0.925 0.0
C2641 C 0.97761 0.62947 0.93026 0.0
C2642 C 0.92587 0.58259 0.9303 0.0
C2643 C 0.89977 0.55157 0.95663 0.0
H2644 H 0.81692 0.51246 0.94404 0.0
C2645 C 0.78685 0.45115 0.97653 0.0
C2646 C 0.76645 0.42703 0.96974 0.0
C2647 C 0.81266 0.47857 0.97256 0.0
C2648 C 0.83994 0.52301 0.94766 0.0
H2649 H 0.99179 0.65408 0.94506 0.0
H2650 H 0.94429 0.61724 0.95422 0.0
H2651 H 0.86076 0.55589 0.93516 0.0
H2652 H 0.75843 0.41193 0.95358 0.0
H2653 H 0.80299 0.45863 0.94684 0.0
H2654 H 0.87902 0.51794 0.96898 0.0
C2655 C 0.94634 0.61322 0.94606 0.0
C2656 C 0.86504 0.54794 0.94256 0.0
C2657 C 0.97345 0.63448 0.94076 0.0
C2658 C 0.77319 0.43027 0.95904 0.0
C2659 C 0.79874 0.45726 0.95513 0.0
C2660 C 0.87462 0.52642 0.96172 0.0
C2661 C 0.92258 0.5866 0.94097 0.0
C2662 C 0.89537 0.56212 0.94687 0.0
C2663 C 0.81841 0.48214 0.96176 0.0
C2664 C 0.84454 0.51134 0.95716 0.0
H2665 H 0.95567 0.59914 0.91694 0.0
H2666 H 0.90803 0.56222 0.92615 0.0
H2667 H 0.92293 0.56188 0.96013 0.0
H2668 H 0.78231 0.44927 0.98481 0.0
H2669 H 0.82754 0.49728 0.97789 0.0
C2670 C 0.43537 0.38 0.93926 0.0
C2671 C 0.44539 0.41161 0.93703 0.0
C2672 C 0.45141 0.37233 0.9468 0.0
C2673 C 0.52939 0.40897 0.95987 0.0
H2674 H 0.49122 0.33632 0.97804 0.0
C2675 C 0.60843 0.387 0.98628 0.0
C2676 C 0.60506 0.35746 0.98438 0.0
C2677 C 0.58397 0.3926 0.98372 0.0
C2678 C 0.50212 0.35683 0.97306 0.0
H2679 H 0.47801 0.45977 0.94153 0.0
H2680 H 0.50481 0.44658 0.95471 0.0
H2681 H 0.458 0.34737 0.96643 0.0
H2682 H 0.57297 0.30979 0.97949 0.0
H2683 H 0.53023 0.31935 0.9751 0.0
H2684 H 0.57334 0.4183 0.96623 0.0
C2685 C 0.48584 0.4276 0.9504 0.0
C2686 C 0.48315 0.363 0.96635 0.0
C2687 C 0.47039 0.43518 0.94282 0.0
C2688 C 0.57584 0.33269 0.98111 0.0
C2689 C 0.55139 0.33822 0.97858 0.0
C2690 C 0.54816 0.40301 0.96659 0.0
C2691 C 0.47726 0.39619 0.95231 0.0
C2692 C 0.49663 0.38913 0.95963 0.0
C2693 C 0.55599 0.36875 0.97918 0.0
C2694 C 0.53489 0.3768 0.97323 0.0
H2695 H 0.41589 0.3614 0.935 0.0
H2696 H 0.44418 0.34786 0.94808 0.0
H2697 H 0.54081 0.4288 0.95462 0.0
H2698 H 0.63094 0.4065 0.98867 0.0
H2699 H 0.58797 0.41626 0.98445 0.0
C2700 C 0.6399 0.67465 0.77726 0.0
C2701 C 0.65267 0.69627 0.76902 0.0
C2702 C 0.61018 0.66591 0.78111 0.0
C2703 C 0.55995 0.69803 0.78538 0.0
H2704 H 0.49114 0.61253 0.7884 0.0
C2705 C 0.44721 0.67014 0.80705 0.0
C2706 C 0.42112 0.65657 0.8003 0.0
C2707 C 0.47485 0.67041 0.80438 0.0
C2708 C 0.51032 0.63646 0.78769 0.0
H2709 H 0.64409 0.72509 0.75818 0.0
H2710 H 0.59236 0.71044 0.76513 0.0
H2711 H 0.54056 0.6223 0.78057 0.0
H2712 H 0.40239 0.63036 0.78599 0.0
H2713 H 0.45015 0.62965 0.78157 0.0
H2714 H 0.53002 0.71228 0.79256 0.0
C2715 C 0.60529 0.70002 0.76849 0.0
C2716 C 0.53845 0.64203 0.7832 0.0
C2717 C 0.63472 0.7082 0.76447 0.0
C2718 C 0.42218 0.64088 0.79134 0.0
C2719 C 0.44948 0.64048 0.78881 0.0
C2720 C 0.53217 0.69244 0.79007 0.0
C2721 C 0.593 0.67919 0.77695 0.0
C2722 C 0.56332 0.67291 0.78186 0.0
C2723 C 0.47648 0.65641 0.79507 0.0
C2724 C 0.50695 0.66164 0.79117 0.0
H2725 H 0.65326 0.66511 0.78092 0.0
H2726 H 0.60124 0.64987 0.78765 0.0
H2727 H 0.57891 0.72202 0.78452 0.0
H2728 H 0.44711 0.68271 0.81393 0.0
H2729 H 0.49537 0.68276 0.80935 0.0
C2730 C 0.34983 0.95592 0.76443 0.0
C2731 C 0.31923 0.95025 0.76576 0.0
C2732 C 0.36042 0.93848 0.77008 0.0
C2733 C 0.32912 0.86481 0.78602 0.0
H2734 H 0.41721 0.89635 0.79202 0.0
C2735 C 0.3684 0.7907 0.80895 0.0
C2736 C 0.38355 0.78056 0.8021 0.0
C2737 C 0.36607 0.81724 0.80653 0.0
C2738 C 0.39252 0.88751 0.79049 0.0
H2739 H 0.27635 0.92367 0.77443 0.0
H2740 H 0.29517 0.89494 0.78474 0.0
H2741 H 0.40089 0.93084 0.7837 0.0
H2742 H 0.41111 0.79194 0.78806 0.0
H2743 H 0.40807 0.83902 0.78407 0.0
H2744 H 0.32088 0.82176 0.793 0.0
C2745 C 0.31067 0.91125 0.77896 0.0
C2746 C 0.38311 0.90704 0.78559 0.0
C2747 C 0.29984 0.92789 0.77309 0.0
C2748 C 0.3993 0.79931 0.79346 0.0
C2749 C 0.39762 0.82624 0.79118 0.0
C2750 C 0.33845 0.84572 0.79114 0.0
C2751 C 0.34089 0.9157 0.7774 0.0
C2752 C 0.35124 0.89582 0.78314 0.0
C2753 C 0.3796 0.83443 0.7974 0.0
C2754 C 0.3702 0.8567 0.7933 0.0
H2755 H 0.36522 0.9732 0.75883 0.0
H2756 H 0.38366 0.94244 0.7685 0.0
H2757 H 0.30453 0.85467 0.78404 0.0
H2758 H 0.35586 0.77653 0.81562 0.0
H2759 H 0.35202 0.82317 0.81142 0.0
C2760 C 0.07362 0.39913 0.76902 0.0
C2761 C 0.08882 0.38349 0.76521 0.0
C2762 C 0.0907 0.42814 0.77408 0.0
C2763 C 0.16471 0.47591 0.78847 0.0
H2764 H 0.15392 0.54675 0.78151 0.0
C2765 C 0.24598 0.5962 0.80658 0.0
C2766 C 0.26087 0.61966 0.799 0.0
C2767 C 0.2186 0.56809 0.80409 0.0
C2768 C 0.157 0.52709 0.7836 0.0
H2769 H 0.13417 0.38674 0.76352 0.0
H2770 H 0.16371 0.4371 0.77228 0.0
H2771 H 0.11967 0.49558 0.77344 0.0
H2772 H 0.2572 0.63344 0.78321 0.0
H2773 H 0.20967 0.58468 0.77888 0.0
H2774 H 0.20277 0.50744 0.79828 0.0
C2775 C 0.13854 0.42673 0.77148 0.0
C2776 C 0.13731 0.49779 0.77902 0.0
C2777 C 0.12157 0.39793 0.76637 0.0
C2778 C 0.24635 0.61568 0.7892 0.0
C2779 C 0.21895 0.58775 0.78674 0.0
C2780 C 0.18422 0.50506 0.79309 0.0
C2781 C 0.12328 0.44197 0.77551 0.0
C2782 C 0.14159 0.47214 0.78119 0.0
C2783 C 0.20556 0.56308 0.79399 0.0
C2784 C 0.18115 0.53121 0.79051 0.0
H2785 H 0.04844 0.38876 0.76826 0.0
H2786 H 0.07832 0.43937 0.7771 0.0
H2787 H 0.16823 0.45643 0.79042 0.0
H2788 H 0.2567 0.59849 0.81417 0.0
H2789 H 0.20856 0.54966 0.80989 0.0
C2790 C 0.44072 0.01031 0.07142 0.0
C2791 C 0.41626 0.00904 0.07734 0.0
C2792 C 0.43534 0.98573 0.06478 0.0
C2793 C 0.37233 0.91289 0.05215 0.0
H2794 H 0.43665 0.88938 0.05231 0.0
C2795 C 0.34879 0.78888 0.04346 0.0
C2796 C 0.37079 0.78474 0.03787 0.0
C2797 C 0.35448 0.81885 0.04587 0.0
C2798 C 0.41875 0.89601 0.05199 0.0
H2799 H 0.36671 0.98124 0.0807 0.0
H2800 H 0.35737 0.93762 0.06933 0.0
H2801 H 0.44581 0.93628 0.06155 0.0
H2802 H 0.4156 0.8086 0.03013 0.0
H2803 H 0.42608 0.8617 0.03458 0.0
H2804 H 0.34472 0.87146 0.04301 0.0
C2805 C 0.38067 0.95801 0.06966 0.0
C2806 C 0.42393 0.92293 0.05731 0.0
C2807 C 0.386 0.98293 0.07623 0.0
C2808 C 0.39821 0.81126 0.03438 0.0
C2809 C 0.40424 0.8415 0.03698 0.0
C2810 C 0.36706 0.88578 0.0469 0.0
C2811 C 0.40543 0.95891 0.06397 0.0
C2812 C 0.40059 0.93148 0.05762 0.0
C2813 C 0.38256 0.8455 0.04291 0.0
C2814 C 0.38999 0.87675 0.04694 0.0
H2815 H 0.46424 0.03035 0.07195 0.0
H2816 H 0.45481 0.98772 0.06035 0.0
H2817 H 0.35408 0.91902 0.05202 0.0
H2818 H 0.32736 0.76877 0.04619 0.0
H2819 H 0.3375 0.82106 0.05054 0.0
C2820 C 0.05443 0.41937 0.06594 0.0
C2821 C 0.0568 0.4226 0.07684 0.0
C2822 C 0.07842 0.44105 0.05959 0.0
C2823 C 0.16073 0.49741 0.05771 0.0
H2824 H 0.13751 0.54691 0.03999 0.0
C2825 C 0.24894 0.59396 0.03045 0.0
C2826 C 0.25566 0.62322 0.03441 0.0
C2827 C 0.22164 0.56664 0.03347 0.0
C2828 C 0.14411 0.5329 0.04477 0.0
H2829 H 0.08688 0.45009 0.08965 0.0
H2830 H 0.12959 0.48749 0.07847 0.0
H2831 H 0.09722 0.5032 0.05021 0.0
H2832 H 0.23848 0.64756 0.04385 0.0
H2833 H 0.18984 0.60001 0.04864 0.0
H2834 H 0.20764 0.52718 0.05232 0.0
C2835 C 0.10881 0.46833 0.07491 0.0
C2836 C 0.12121 0.50805 0.05061 0.0
C2837 C 0.08444 0.44699 0.08128 0.0
C2838 C 0.23344 0.62523 0.04059 0.0
C2839 C 0.20578 0.59808 0.04336 0.0
C2840 C 0.18349 0.52175 0.05168 0.0
C2841 C 0.10557 0.46595 0.06401 0.0
C2842 C 0.12947 0.49053 0.05727 0.0
C2843 C 0.20044 0.56849 0.04024 0.0
C2844 C 0.17544 0.54 0.0453 0.0
H2845 H 0.03337 0.40094 0.06226 0.0
H2846 H 0.07553 0.43875 0.05121 0.0
H2847 H 0.16755 0.48415 0.0628 0.0
H2848 H 0.2661 0.5919 0.02583 0.0
H2849 H 0.21792 0.544 0.031 0.0
C2850 C 0.59688 0.65067 0.08171 0.0
C2851 C 0.62307 0.65468 0.07619 0.0
C2852 C 0.57352 0.6542 0.07671 0.0
C2853 C 0.53944 0.65147 0.05071 0.0
H2854 H 0.4974 0.68801 0.06556 0.0
C2855 C 0.44064 0.67297 0.03351 0.0
C2856 C 0.41587 0.66581 0.04036 0.0
C2857 C 0.46677 0.67096 0.03691 0.0
C2858 C 0.50879 0.67756 0.06133 0.0
H2859 H 0.64567 0.66633 0.06113 0.0
H2860 H 0.60501 0.67297 0.05243 0.0
H2861 H 0.54266 0.68842 0.07347 0.0
H2862 H 0.39783 0.64846 0.0558 0.0
H2863 H 0.44289 0.64474 0.06163 0.0
H2864 H 0.50521 0.64069 0.03854 0.0
C2865 C 0.60235 0.66664 0.06059 0.0
C2866 C 0.53472 0.67777 0.06587 0.0
C2867 C 0.62578 0.66311 0.06561 0.0
C2868 C 0.41673 0.65459 0.05038 0.0
C2869 C 0.44263 0.65262 0.05375 0.0
C2870 C 0.51345 0.65141 0.04612 0.0
C2871 C 0.57578 0.66191 0.06607 0.0
C2872 C 0.55 0.66415 0.06073 0.0
C2873 C 0.46843 0.66187 0.04721 0.0
C2874 C 0.49746 0.66384 0.0515 0.0
H2875 H 0.59398 0.644 0.08985 0.0
H2876 H 0.55319 0.64995 0.08115 0.0
H2877 H 0.55055 0.64061 0.04656 0.0
H2878 H 0.44074 0.68191 0.02578 0.0
H2879 H 0.48632 0.67812 0.0317 0.0
C2880 C 0.06088 0.64957 0.5719 0.0
C2881 C 0.03758 0.61934 0.57499 0.0
C2882 C 0.08656 0.65379 0.56606 0.0
C2883 C 0.13113 0.61404 0.559 0.0
H2884 H 0.16595 0.6787 0.53777 0.0
C2885 C 0.24033 0.63705 0.53573 0.0
C2886 C 0.26416 0.66864 0.53621 0.0
C2887 C 0.20949 0.62854 0.53839 0.0
C2888 C 0.15642 0.66046 0.54365 0.0
H2889 H 0.02327 0.56981 0.57425 0.0
H2890 H 0.06752 0.57715 0.56401 0.0
H2891 H 0.11906 0.66923 0.54705 0.0
H2892 H 0.27451 0.71618 0.53912 0.0
H2893 H 0.22099 0.70162 0.54348 0.0
H2894 H 0.1688 0.60563 0.55569 0.0
C2895 C 0.0663 0.59771 0.56623 0.0
C2896 C 0.12967 0.65519 0.54904 0.0
C2897 C 0.04076 0.59351 0.5721 0.0
C2898 C 0.25639 0.69168 0.53862 0.0
C2899 C 0.22571 0.6833 0.5411 0.0
C2900 C 0.15778 0.61921 0.55357 0.0
C2901 C 0.08956 0.62788 0.56311 0.0
C2902 C 0.11699 0.6323 0.55693 0.0
C2903 C 0.20208 0.65157 0.54141 0.0
C2904 C 0.17111 0.64289 0.54597 0.0
H2905 H 0.0593 0.67004 0.57399 0.0
H2906 H 0.10427 0.67745 0.56396 0.0
H2907 H 0.12232 0.59646 0.56509 0.0
H2908 H 0.24591 0.61888 0.53402 0.0
H2909 H 0.19171 0.6039 0.53848 0.0
C2910 C 0.37818 0.41692 0.57219 0.0
C2911 C 0.40746 0.42465 0.5766 0.0
C2912 C 0.37399 0.4398 0.56702 0.0
C2913 C 0.41846 0.51874 0.55456 0.0
H2914 H 0.34445 0.52423 0.56048 0.0
C2915 C 0.39347 0.61452 0.53685 0.0
C2916 C 0.38268 0.62819 0.54409 0.0
C2917 C 0.39632 0.58833 0.53964 0.0
C2918 C 0.36525 0.52298 0.55872 0.0
H2919 H 0.45522 0.46293 0.57901 0.0
H2920 H 0.44777 0.50236 0.57016 0.0
H2921 H 0.34918 0.48068 0.56754 0.0
H2922 H 0.36769 0.62564 0.5601 0.0
H2923 H 0.37266 0.58071 0.56486 0.0
H2924 H 0.43491 0.56175 0.54601 0.0
C2925 C 0.42816 0.47856 0.57052 0.0
C2926 C 0.36781 0.49782 0.56269 0.0
C2927 C 0.43231 0.45585 0.57571 0.0
C2928 C 0.37577 0.61568 0.55423 0.0
C2929 C 0.37838 0.58964 0.55698 0.0
C2930 C 0.41581 0.54388 0.55053 0.0
C2931 C 0.39902 0.4709 0.56608 0.0
C2932 C 0.39477 0.49574 0.56087 0.0
C2933 C 0.38813 0.57524 0.54969 0.0
C2934 C 0.38952 0.54671 0.55279 0.0
H2935 H 0.35854 0.39317 0.57268 0.0
H2936 H 0.35124 0.43306 0.56365 0.0
H2937 H 0.43935 0.51761 0.55287 0.0
H2938 H 0.39888 0.62347 0.52899 0.0
H2939 H 0.40403 0.5778 0.53386 0.0
C2940 C 0.64591 0.99563 0.56452 0.0
C2941 C 0.6441 0.00704 0.57435 0.0
C2942 C 0.62003 0.96899 0.56025 0.0
C2943 C 0.54385 0.89937 0.56715 0.0
H2944 H 0.52285 0.90103 0.53803 0.0
C2945 C 0.42563 0.80518 0.5511 0.0
C2946 C 0.4254 0.79081 0.54166 0.0
C2947 C 0.45194 0.83314 0.55424 0.0
C2948 C 0.52854 0.90008 0.54614 0.0
H2949 H 0.61384 0.99881 0.58753 0.0
H2950 H 0.56878 0.95235 0.58014 0.0
H2951 H 0.57021 0.94535 0.54548 0.0
H2952 H 0.45179 0.7955 0.52775 0.0
H2953 H 0.49835 0.84471 0.53328 0.0
H2954 H 0.50242 0.85427 0.56787 0.0
C2955 C 0.59027 0.96387 0.57572 0.0
C2956 C 0.55573 0.92545 0.55042 0.0
C2957 C 0.61613 0.99056 0.57997 0.0
C2958 C 0.45127 0.80623 0.53503 0.0
C2959 C 0.47795 0.83431 0.53823 0.0
C2960 C 0.51679 0.87411 0.56289 0.0
C2961 C 0.59171 0.95301 0.56573 0.0
C2962 C 0.56356 0.92553 0.56101 0.0
C2963 C 0.47899 0.84736 0.54808 0.0
C2964 C 0.50851 0.87425 0.55237 0.0
H2965 H 0.66708 0.00778 0.55996 0.0
H2966 H 0.62216 0.96102 0.55263 0.0
H2967 H 0.54944 0.89827 0.57526 0.0
H2968 H 0.40588 0.79395 0.55633 0.0
H2969 H 0.45149 0.84301 0.56171 0.0
C2970 C 0.31626 0.39802 0.26628 0.0
C2971 C 0.32554 0.37846 0.27126 0.0
C2972 C 0.31784 0.42354 0.27152 0.0
C2973 C 0.31901 0.45357 0.29788 0.0
H2974 H 0.34037 0.52971 0.28254 0.0
C2975 C 0.33124 0.5714 0.31419 0.0
C2976 C 0.31799 0.58464 0.30759 0.0
C2977 C 0.33108 0.54389 0.3112 0.0
C2978 C 0.33422 0.50853 0.28692 0.0
H2979 H 0.34448 0.37077 0.28558 0.0
H2980 H 0.34771 0.41584 0.29471 0.0
H2981 H 0.34578 0.48842 0.27425 0.0
H2982 H 0.2912 0.57789 0.29338 0.0
H2983 H 0.29054 0.53004 0.2883 0.0
H2984 H 0.30758 0.47427 0.31059 0.0
C2985 C 0.33882 0.41111 0.28679 0.0
C2986 C 0.33728 0.48484 0.28217 0.0
C2987 C 0.33725 0.38549 0.28152 0.0
C2988 C 0.30192 0.56838 0.29855 0.0
C2989 C 0.3017 0.5411 0.2956 0.0
C2990 C 0.31618 0.47756 0.30269 0.0
C2991 C 0.32884 0.43026 0.28187 0.0
C2992 C 0.32895 0.45672 0.28747 0.0
C2993 C 0.31765 0.5295 0.3016 0.0
C2994 C 0.32297 0.50488 0.29713 0.0
H2995 H 0.30695 0.39317 0.2584 0.0
H2996 H 0.30949 0.43745 0.26753 0.0
H2997 H 0.31228 0.43213 0.30217 0.0
H2998 H 0.34391 0.58359 0.32117 0.0
H2999 H 0.34338 0.53524 0.31599 0.0
C3000 C 0.63133 0.92839 0.26247 0.0
C3001 C 0.65241 0.95564 0.26796 0.0
C3002 C 0.60495 0.90436 0.26737 0.0
C3003 C 0.57423 0.87045 0.29321 0.0
H3004 H 0.49543 0.82595 0.27807 0.0
C3005 C 0.4566 0.76962 0.3106 0.0
C3006 C 0.43761 0.74519 0.30368 0.0
C3007 C 0.48436 0.79584 0.30708 0.0
C3008 C 0.51735 0.83789 0.28238 0.0
H3009 H 0.662 0.97926 0.28288 0.0
H3010 H 0.6157 0.93724 0.29144 0.0
H3011 H 0.53949 0.87158 0.27022 0.0
H3012 H 0.43412 0.72767 0.28799 0.0
H3013 H 0.48245 0.77254 0.28199 0.0
H3014 H 0.55185 0.83634 0.30536 0.0
C3015 C 0.61978 0.93442 0.28335 0.0
C3016 C 0.54262 0.86413 0.27788 0.0
C3017 C 0.64613 0.95861 0.27842 0.0
C3018 C 0.44802 0.74635 0.29347 0.0
C3019 C 0.47562 0.77222 0.29 0.0
C3020 C 0.54883 0.84404 0.29774 0.0
C3021 C 0.59901 0.90688 0.27791 0.0
C3022 C 0.57154 0.88046 0.28314 0.0
C3023 C 0.4935 0.79788 0.29661 0.0
C3024 C 0.52026 0.82709 0.29227 0.0
H3025 H 0.63555 0.92527 0.25442 0.0
H3026 H 0.58967 0.88335 0.26296 0.0
H3027 H 0.59627 0.88241 0.29745 0.0
H3028 H 0.44906 0.76943 0.3185 0.0
H3029 H 0.49769 0.81518 0.31239 0.0
C3030 C 0.09679 0.72514 0.2718 0.0
C3031 C 0.10322 0.75602 0.27004 0.0
C3032 C 0.11595 0.71935 0.27853 0.0
C3033 C 0.19605 0.76012 0.29004 0.0
H3034 H 0.16442 0.68433 0.30662 0.0
C3035 C 0.28032 0.73247 0.31298 0.0
C3036 C 0.27601 0.70302 0.31021 0.0
C3037 C 0.25683 0.73984 0.31069 0.0
C3038 C 0.17354 0.70573 0.30209 0.0
H3039 H 0.13371 0.8048 0.27444 0.0
H3040 H 0.16626 0.79466 0.28626 0.0
H3041 H 0.12765 0.69516 0.2971 0.0
H3042 H 0.24349 0.65749 0.30367 0.0
H3043 H 0.20255 0.67 0.29985 0.0
H3044 H 0.24192 0.77034 0.29484 0.0
C3045 C 0.14722 0.77496 0.28222 0.0
C3046 C 0.15251 0.7118 0.29656 0.0
C3047 C 0.12843 0.78075 0.27544 0.0
C3048 C 0.24727 0.68039 0.30586 0.0
C3049 C 0.22376 0.6875 0.30373 0.0
C3050 C 0.217 0.75415 0.29562 0.0
C3051 C 0.14166 0.74429 0.28372 0.0
C3052 C 0.16356 0.73877 0.29029 0.0
C3053 C 0.22865 0.71764 0.30577 0.0
C3054 C 0.20605 0.72655 0.30151 0.0
H3055 H 0.07752 0.7056 0.26778 0.0
H3056 H 0.11113 0.69544 0.27942 0.0
H3057 H 0.20554 0.78089 0.28518 0.0
H3058 H 0.30245 0.75032 0.31625 0.0
H3059 H 0.26114 0.76323 0.31238 0.0
loop_
_geom_bond_atom_site_label_1
_geom_bond_atom_site_label_2
_geom_bond_distance
_geom_bond_site_symmetry_2
_ccdc_geom_bond_type
Mn0 O5 2.095 . S
Mn0 O15 2.162 1_545 S
Mn0 O16 2.296 1_545 S
Mn0 O24 2.385 1_545 S
Mn0 O25 2.209 . S
Mn0 O26 2.094 1_545 S
Mn1 O6 2.121 . S
Mn1 N8 2.257 . S
Mn1 N17 2.282 . S
Mn1 O25 2.215 . S
Mn1 O27 2.117 . S
C2 O24 1.234 1_545 S
C2 O25 1.283 . S
C3 O15 1.281 . S
C3 O16 1.234 . S
C4 O26 1.240 1_545 S
C4 O27 1.264 . S
O5 Mn0 2.095 . S
O5 C14 1.250 . S
O6 Mn1 2.121 . S
O6 C14 1.258 . S
C7 N8 1.326 . S
C7 C11 1.460 . S
C7 H13 0.929 . S
N8 Mn1 2.257 . S
N8 C7 1.326 . S
N8 C12 1.362 . S
C9 C10 1.258 . S
C9 C12 1.431 . S
C9 C29 1.449 . S
C10 C9 1.258 . S
C10 C11 1.477 . S
C10 H30 0.931 . S
C11 C7 1.460 . S
C11 C10 1.477 . S
C11 H31 0.930 . S
C12 N8 1.362 . S
C12 C9 1.431 . S
C12 C22 1.476 . S
H13 C7 0.929 . S
C14 O5 1.250 . S
C14 O6 1.258 . S
O15 Mn0 2.162 1_565 S
O15 C3 1.281 . S
O16 Mn0 2.296 1_565 S
O16 C3 1.234 . S
N17 Mn1 2.282 . S
N17 C18 1.328 . S
N17 C22 1.318 . S
C18 N17 1.328 . S
C18 C19 1.457 . S
C18 H23 0.929 . S
C19 C18 1.457 . S
C19 C20 1.291 . S
C19 H32 0.931 . S
C20 C19 1.291 . S
C20 C21 1.373 . S
C20 H33 0.929 . S
C21 C20 1.373 . S
C21 C22 1.396 . S
C21 C28 1.403 . S
C22 C12 1.476 . S
C22 N17 1.318 . S
C22 C21 1.396 . S
H23 C18 0.929 . S
O24 Mn0 2.385 1_565 S
O24 C2 1.234 1_565 S
O25 Mn0 2.209 . S
O25 Mn1 2.215 . S
O25 C2 1.283 . S
O26 Mn0 2.094 1_565 S
O26 C4 1.240 1_565 S
O27 Mn1 2.117 . S
O27 C4 1.264 . S
C28 C21 1.403 . S
C28 C29 1.399 . S
C28 H34 0.929 . S
C29 C9 1.449 . S
C29 C28 1.399 . S
C29 H35 0.930 . S
H30 C10 0.931 . S
H31 C11 0.930 . S
H32 C19 0.931 . S
H33 C20 0.929 . S
H34 C28 0.929 . S
H35 C29 0.930 . S
Mn36 O41 2.095 . S
Mn36 O51 2.162 1_455 S
Mn36 O52 2.297 . S
Mn36 O60 2.385 1_455 S
Mn36 O61 2.209 . S
Mn36 O62 2.094 . S
Mn37 O42 2.121 . S
Mn37 N44 2.257 . S
Mn37 N53 2.282 . S
Mn37 O61 2.215 . S
Mn37 O63 2.117 . S
C38 O60 1.234 1_455 S
C38 O61 1.283 . S
C39 O51 1.281 . S
C39 O52 1.236 1_655 S
C40 O62 1.240 . S
C40 O63 1.264 . S
O41 Mn36 2.095 . S
O41 C50 1.250 . S
O42 Mn37 2.121 . S
O42 C50 1.258 . S
C43 N44 1.326 . S
C43 C47 1.460 . S
C43 H49 0.929 . S
N44 Mn37 2.257 . S
N44 C43 1.326 . S
N44 C48 1.362 . S
C45 C46 1.258 . S
C45 C48 1.431 . S
C45 C65 1.449 . S
C46 C45 1.258 . S
C46 C47 1.477 . S
C46 H66 0.931 . S
C47 C43 1.460 . S
C47 C46 1.477 . S
C47 H67 0.930 . S
C48 N44 1.362 . S
C48 C45 1.431 . S
C48 C58 1.476 . S
H49 C43 0.929 . S
C50 O41 1.250 . S
C50 O42 1.258 . S
O51 Mn36 2.162 1_655 S
O51 C39 1.281 . S
O52 Mn36 2.297 . S
O52 C39 1.236 1_455 S
N53 Mn37 2.282 . S
N53 C54 1.328 . S
N53 C58 1.318 . S
C54 N53 1.328 . S
C54 C55 1.457 . S
C54 H59 0.929 . S
C55 C54 1.457 . S
C55 C56 1.291 . S
C55 H68 0.931 . S
C56 C55 1.291 . S
C56 C57 1.373 . S
C56 H69 0.929 . S
C57 C56 1.373 . S
C57 C58 1.396 . S
C57 C64 1.403 . S
C58 C48 1.476 . S
C58 N53 1.318 . S
C58 C57 1.396 . S
H59 C54 0.929 . S
O60 Mn36 2.385 1_655 S
O60 C38 1.234 1_655 S
O61 Mn36 2.209 . S
O61 Mn37 2.215 . S
O61 C38 1.283 . S
O62 Mn36 2.094 . S
O62 C40 1.240 . S
O63 Mn37 2.117 . S
O63 C40 1.264 . S
C64 C57 1.403 . S
C64 C65 1.399 . S
C64 H70 0.929 . S
C65 C45 1.449 . S
C65 C64 1.399 . S
C65 H71 0.930 . S
H66 C46 0.931 . S
H67 C47 0.930 . S
H68 C55 0.931 . S
H69 C56 0.929 . S
H70 C64 0.929 . S
H71 C65 0.930 . S
Mn72 O77 2.095 . S
Mn72 O87 2.162 . S
Mn72 O88 2.297 . S
Mn72 O96 2.385 . S
Mn72 O97 2.209 . S
Mn72 O98 2.094 . S
Mn73 O78 2.121 . S
Mn73 N80 2.257 . S
Mn73 N89 2.282 . S
Mn73 O97 2.215 . S
Mn73 O99 2.117 . S
C74 O96 1.234 . S
C74 O97 1.283 . S
C75 O87 1.281 . S
C75 O88 1.236 . S
C76 O98 1.240 . S
C76 O99 1.264 . S
O77 Mn72 2.095 . S
O77 C86 1.250 . S
O78 Mn73 2.121 . S
O78 C86 1.258 . S
C79 N80 1.326 . S
C79 C83 1.460 . S
C79 H85 0.929 . S
N80 Mn73 2.257 . S
N80 C79 1.326 . S
N80 C84 1.362 . S
C81 C82 1.258 . S
C81 C84 1.431 . S
C81 C101 1.449 . S
C82 C81 1.258 . S
C82 C83 1.477 . S
C82 H102 0.931 . S
C83 C79 1.460 . S
C83 C82 1.477 . S
C83 H103 0.930 . S
C84 N80 1.362 . S
C84 C81 1.431 . S
C84 C94 1.476 . S
H85 C79 0.929 . S
C86 O77 1.250 . S
C86 O78 1.258 . S
O87 Mn72 2.162 . S
O87 C75 1.281 . S
O88 Mn72 2.297 . S
O88 C75 1.236 . S
N89 Mn73 2.282 . S
N89 C90 1.328 . S
N89 C94 1.318 . S
C90 N89 1.328 . S
C90 C91 1.457 . S
C90 H95 0.929 . S
C91 C90 1.457 . S
C91 C92 1.291 . S
C91 H104 0.931 . S
C92 C91 1.291 . S
C92 C93 1.373 . S
C92 H105 0.929 . S
C93 C92 1.373 . S
C93 C94 1.396 . S
C93 C100 1.403 . S
C94 C84 1.476 . S
C94 N89 1.318 . S
C94 C93 1.396 . S
H95 C90 0.929 . S
O96 Mn72 2.385 . S
O96 C74 1.234 . S
O97 Mn72 2.209 . S
O97 Mn73 2.215 . S
O97 C74 1.283 . S
O98 Mn72 2.094 . S
O98 C76 1.240 . S
O99 Mn73 2.117 . S
O99 C76 1.264 . S
C100 C93 1.403 . S
C100 C101 1.399 . S
C100 H106 0.929 . S
C101 C81 1.449 . S
C101 C100 1.399 . S
C101 H107 0.930 . S
H102 C82 0.931 . S
H103 C83 0.930 . S
H104 C91 0.931 . S
H105 C92 0.929 . S
H106 C100 0.929 . S
H107 C101 0.930 . S
Mn108 O113 2.061 1_545 S
Mn108 O123 2.162 . S
Mn108 O124 2.297 . S
Mn108 O132 2.385 . S
Mn108 O133 2.209 1_545 S
Mn108 O134 2.094 . S
Mn109 O114 2.121 . S
Mn109 N116 2.257 . S
Mn109 N125 2.282 . S
Mn109 O133 2.215 . S
Mn109 O135 2.117 . S
C110 O132 1.234 . S
C110 O133 1.283 1_545 S
C111 O123 1.281 . S
C111 O124 1.236 . S
C112 O134 1.240 . S
C112 O135 1.264 1_545 S
O113 Mn108 2.061 1_565 S
O113 C122 1.286 . S
O114 Mn109 2.121 . S
O114 C122 1.258 . S
C115 N116 1.326 . S
C115 C119 1.460 . S
C115 H121 0.929 . S
N116 Mn109 2.257 . S
N116 C115 1.326 . S
N116 C120 1.362 . S
C117 C118 1.258 . S
C117 C120 1.431 . S
C117 C137 1.449 . S
C118 C117 1.258 . S
C118 C119 1.477 . S
C118 H138 0.931 . S
C119 C115 1.460 . S
C119 C118 1.477 . S
C119 H139 0.930 . S
C120 N116 1.362 . S
C120 C117 1.431 . S
C120 C130 1.476 . S
H121 C115 0.929 . S
C122 O113 1.286 . S
C122 O114 1.258 . S
O123 Mn108 2.162 . S
O123 C111 1.281 . S
O124 Mn108 2.297 . S
O124 C111 1.236 . S
N125 Mn109 2.282 . S
N125 C126 1.328 . S
N125 C130 1.318 . S
C126 N125 1.328 . S
C126 C127 1.457 . S
C126 H131 0.929 1_565 S
C127 C126 1.457 . S
C127 C128 1.291 . S
C127 H140 0.931 1_565 S
C128 C127 1.291 . S
C128 C129 1.373 . S
C128 H141 0.929 . S
C129 C128 1.373 . S
C129 C130 1.396 . S
C129 C136 1.403 . S
C130 C120 1.476 . S
C130 N125 1.318 . S
C130 C129 1.396 . S
H131 C126 0.929 1_545 S
O132 Mn108 2.385 . S
O132 C110 1.234 . S
O133 Mn108 2.209 1_565 S
O133 Mn109 2.215 . S
O133 C110 1.283 1_565 S
O134 Mn108 2.094 . S
O134 C112 1.240 . S
O135 Mn109 2.117 . S
O135 C112 1.264 1_565 S
C136 C129 1.403 . S
C136 C137 1.399 . S
C136 H142 0.929 . S
C137 C117 1.449 . S
C137 C136 1.399 . S
C137 H143 0.930 . S
H138 C118 0.931 . S
H139 C119 0.930 . S
H140 C127 0.931 1_545 S
H141 C128 0.929 . S
H142 C136 0.929 . S
H143 C137 0.930 . S
Mn144 O149 2.095 . S
Mn144 O159 2.162 1_455 S
Mn144 O160 2.297 . S
Mn144 O168 2.385 1_455 S
Mn144 O169 2.209 . S
Mn144 O170 2.090 . S
Mn145 O150 2.121 . S
Mn145 N152 2.257 . S
Mn145 N161 2.282 . S
Mn145 O169 2.215 . S
Mn145 O171 2.117 . S
C146 O168 1.234 1_455 S
C146 O169 1.283 . S
C147 O159 1.281 . S
C147 O160 1.236 1_655 S
C148 O170 1.277 . S
C148 O171 1.264 . S
O149 Mn144 2.095 . S
O149 C158 1.250 . S
O150 Mn145 2.121 . S
O150 C158 1.258 . S
C151 N152 1.326 . S
C151 C155 1.460 . S
C151 H157 0.929 . S
N152 Mn145 2.257 . S
N152 C151 1.326 . S
N152 C156 1.362 . S
C153 C154 1.258 . S
C153 C156 1.431 . S
C153 C173 1.449 . S
C154 C153 1.258 . S
C154 C155 1.477 . S
C154 H174 0.931 . S
C155 C151 1.460 . S
C155 C154 1.477 . S
C155 H175 0.930 . S
C156 N152 1.362 . S
C156 C153 1.431 . S
C156 C166 1.476 . S
H157 C151 0.929 . S
C158 O149 1.250 . S
C158 O150 1.258 . S
O159 Mn144 2.162 1_655 S
O159 C147 1.281 . S
O160 Mn144 2.297 . S
O160 C147 1.236 1_455 S
N161 Mn145 2.282 . S
N161 C162 1.328 . S
N161 C166 1.318 . S
C162 N161 1.328 . S
C162 C163 1.457 . S
C162 H167 0.929 . S
C163 C162 1.457 . S
C163 C164 1.291 . S
C163 H176 0.931 . S
C164 C163 1.291 . S
C164 C165 1.373 . S
C164 H177 0.929 . S
C165 C164 1.373 . S
C165 C166 1.396 . S
C165 C172 1.403 . S
C166 C156 1.476 . S
C166 N161 1.318 . S
C166 C165 1.396 . S
H167 C162 0.929 . S
O168 Mn144 2.385 1_655 S
O168 C146 1.234 1_655 S
O169 Mn144 2.209 . S
O169 Mn145 2.215 . S
O169 C146 1.283 . S
O170 Mn144 2.090 . S
O170 C148 1.277 . S
O171 Mn145 2.117 . S
O171 C148 1.264 . S
C172 C165 1.403 . S
C172 C173 1.399 . S
C172 H178 0.929 . S
C173 C153 1.449 . S
C173 C172 1.399 . S
C173 H179 0.930 . S
H174 C154 0.931 . S
H175 C155 0.930 . S
H176 C163 0.931 . S
H177 C164 0.929 . S
H178 C172 0.929 . S
H179 C173 0.930 . S
Mn180 O185 2.095 . S
Mn180 O195 2.162 . S
Mn180 O196 2.297 . S
Mn180 O204 2.385 . S
Mn180 O205 2.209 . S
Mn180 O206 2.094 . S
Mn181 O186 2.121 . S
Mn181 N188 2.257 . S
Mn181 N197 2.282 . S
Mn181 O205 2.215 . S
Mn181 O207 2.117 . S
C182 O204 1.234 . S
C182 O205 1.283 . S
C183 O195 1.281 . S
C183 O196 1.236 . S
C184 O206 1.240 . S
C184 O207 1.264 . S
O185 Mn180 2.095 . S
O185 C194 1.250 . S
O186 Mn181 2.121 . S
O186 C194 1.258 . S
C187 N188 1.326 . S
C187 C191 1.460 . S
C187 H193 0.929 . S
N188 Mn181 2.257 . S
N188 C187 1.326 . S
N188 C192 1.362 . S
C189 C190 1.258 . S
C189 C192 1.431 . S
C189 C209 1.449 . S
C190 C189 1.258 . S
C190 C191 1.477 . S
C190 H210 0.931 . S
C191 C187 1.460 . S
C191 C190 1.477 . S
C191 H211 0.930 . S
C192 N188 1.362 . S
C192 C189 1.431 . S
C192 C202 1.476 . S
H193 C187 0.929 . S
C194 O185 1.250 . S
C194 O186 1.258 . S
O195 Mn180 2.162 . S
O195 C183 1.281 . S
O196 Mn180 2.297 . S
O196 C183 1.236 . S
N197 Mn181 2.282 . S
N197 C198 1.328 . S
N197 C202 1.318 . S
C198 N197 1.328 . S
C198 C199 1.457 . S
C198 H203 0.929 . S
C199 C198 1.457 . S
C199 C200 1.291 . S
C199 H212 0.931 . S
C200 C199 1.291 . S
C200 C201 1.373 . S
C200 H213 0.929 . S
C201 C200 1.373 . S
C201 C202 1.396 . S
C201 C208 1.403 . S
C202 C192 1.476 . S
C202 N197 1.318 . S
C202 C201 1.396 . S
H203 C198 0.929 . S
O204 Mn180 2.385 . S
O204 C182 1.234 . S
O205 Mn180 2.209 . S
O205 Mn181 2.215 . S
O205 C182 1.283 . S
O206 Mn180 2.094 . S
O206 C184 1.240 . S
O207 Mn181 2.117 . S
O207 C184 1.264 . S
C208 C201 1.403 . S
C208 C209 1.399 . S
C208 H214 0.929 . S
C209 C189 1.449 . S
C209 C208 1.399 . S
C209 H215 0.930 . S
H210 C190 0.931 . S
H211 C191 0.930 . S
H212 C199 0.931 . S
H213 C200 0.929 . S
H214 C208 0.929 . S
H215 C209 0.930 . S
Mn216 O221 2.095 . S
Mn216 O231 2.162 . S
Mn216 O232 2.297 . S
Mn216 O240 2.385 . S
Mn216 O241 2.209 . S
Mn216 O242 2.094 . S
Mn217 O222 2.121 . S
Mn217 N224 2.257 . S
Mn217 N233 2.282 . S
Mn217 O241 2.215 . S
Mn217 O243 2.117 . S
C218 O240 1.234 . S
C218 O241 1.283 . S
C219 O231 1.281 . S
C219 O232 1.236 . S
C220 O242 1.240 . S
C220 O243 1.264 . S
O221 Mn216 2.095 . S
O221 C230 1.250 . S
O222 Mn217 2.121 . S
O222 C230 1.258 . S
C223 N224 1.326 . S
C223 C227 1.460 . S
C223 H229 0.929 . S
N224 Mn217 2.257 . S
N224 C223 1.326 . S
N224 C228 1.362 . S
C225 C226 1.258 . S
C225 C228 1.431 . S
C225 C245 1.449 . S
C226 C225 1.258 . S
C226 C227 1.477 . S
C226 H246 0.931 . S
C227 C223 1.460 . S
C227 C226 1.477 . S
C227 H247 0.930 . S
C228 N224 1.362 . S
C228 C225 1.431 . S
C228 C238 1.476 . S
H229 C223 0.929 . S
C230 O221 1.250 . S
C230 O222 1.258 . S
O231 Mn216 2.162 . S
O231 C219 1.281 . S
O232 Mn216 2.297 . S
O232 C219 1.236 . S
N233 Mn217 2.282 . S
N233 C234 1.328 . S
N233 C238 1.318 . S
C234 N233 1.328 . S
C234 C235 1.457 . S
C234 H239 0.929 . S
C235 C234 1.457 . S
C235 C236 1.291 . S
C235 H248 0.931 . S
C236 C235 1.291 . S
C236 C237 1.373 . S
C236 H249 0.929 . S
C237 C236 1.373 . S
C237 C238 1.396 . S
C237 C244 1.403 . S
C238 C228 1.476 . S
C238 N233 1.318 . S
C238 C237 1.396 . S
H239 C234 0.929 . S
O240 Mn216 2.385 . S
O240 C218 1.234 . S
O241 Mn216 2.209 . S
O241 Mn217 2.215 . S
O241 C218 1.283 . S
O242 Mn216 2.094 . S
O242 C220 1.240 . S
O243 Mn217 2.117 . S
O243 C220 1.264 . S
C244 C237 1.403 . S
C244 C245 1.399 . S
C244 H250 0.929 . S
C245 C225 1.449 . S
C245 C244 1.399 . S
C245 H251 0.930 . S
H246 C226 0.931 . S
H247 C227 0.930 . S
H248 C235 0.931 . S
H249 C236 0.929 . S
H250 C244 0.929 . S
H251 C245 0.930 . S
Mn252 O257 2.095 . S
Mn252 O267 2.162 . S
Mn252 O268 2.297 . S
Mn252 O276 2.385 . S
Mn252 O277 2.209 . S
Mn252 O278 2.094 . S
Mn253 O258 2.121 . S
Mn253 N260 2.257 . S
Mn253 N269 2.282 . S
Mn253 O277 2.215 . S
Mn253 O279 2.117 . S
C254 O276 1.234 . S
C254 O277 1.283 . S
C255 O267 1.281 . S
C255 O268 1.236 . S
C256 O278 1.240 . S
C256 O279 1.264 . S
O257 Mn252 2.095 . S
O257 C266 1.250 . S
O258 Mn253 2.121 . S
O258 C266 1.258 . S
C259 N260 1.326 . S
C259 C263 1.460 . S
C259 H265 0.929 . S
N260 Mn253 2.257 . S
N260 C259 1.326 . S
N260 C264 1.362 . S
C261 C262 1.258 . S
C261 C264 1.431 . S
C261 C281 1.449 . S
C262 C261 1.258 . S
C262 C263 1.477 . S
C262 H282 0.931 . S
C263 C259 1.460 . S
C263 C262 1.477 . S
C263 H283 0.930 . S
C264 N260 1.362 . S
C264 C261 1.431 . S
C264 C274 1.476 . S
H265 C259 0.929 . S
C266 O257 1.250 . S
C266 O258 1.258 . S
O267 Mn252 2.162 . S
O267 C255 1.281 . S
O268 Mn252 2.297 . S
O268 C255 1.236 . S
N269 Mn253 2.282 . S
N269 C270 1.328 . S
N269 C274 1.318 . S
C270 N269 1.328 . S
C270 C271 1.457 . S
C270 H275 0.929 . S
C271 C270 1.457 . S
C271 C272 1.291 . S
C271 H284 0.931 . S
C272 C271 1.291 . S
C272 C273 1.373 . S
C272 H285 0.929 . S
C273 C272 1.373 . S
C273 C274 1.396 . S
C273 C280 1.403 . S
C274 C264 1.476 . S
C274 N269 1.318 . S
C274 C273 1.396 . S
H275 C270 0.929 . S
O276 Mn252 2.385 . S
O276 C254 1.234 . S
O277 Mn252 2.209 . S
O277 Mn253 2.215 . S
O277 C254 1.283 . S
O278 Mn252 2.094 . S
O278 C256 1.240 . S
O279 Mn253 2.117 . S
O279 C256 1.264 . S
C280 C273 1.403 . S
C280 C281 1.399 . S
C280 H286 0.929 . S
C281 C261 1.449 . S
C281 C280 1.399 . S
C281 H287 0.930 . S
H282 C262 0.931 . S
H283 C263 0.930 . S
H284 C271 0.931 . S
H285 C272 0.929 . S
H286 C280 0.929 . S
H287 C281 0.930 . S
Mn288 O293 2.095 1_655 S
Mn288 O303 2.162 . S
Mn288 O304 2.297 . S
Mn288 O312 2.385 . S
Mn288 O313 2.209 . S
Mn288 O314 2.094 . S
Mn289 O294 2.121 1_655 S
Mn289 N296 2.257 . S
Mn289 N305 2.282 . S
Mn289 O313 2.215 . S
Mn289 O315 2.117 . S
C290 O312 1.234 . S
C290 O313 1.283 . S
C291 O303 1.281 . S
C291 O304 1.236 . S
C292 O314 1.240 . S
C292 O315 1.264 . S
O293 Mn288 2.095 1_455 S
O293 C302 1.250 . S
O294 Mn289 2.121 1_455 S
O294 C302 1.258 . S
C295 N296 1.326 1_455 S
C295 C299 1.460 . S
C295 H301 0.929 . S
N296 Mn289 2.257 . S
N296 C295 1.326 1_655 S
N296 C300 1.362 . S
C297 C298 1.258 . S
C297 C300 1.431 . S
C297 C317 1.449 . S
C298 C297 1.258 . S
C298 C299 1.477 1_655 S
C298 H318 0.931 . S
C299 C295 1.460 . S
C299 C298 1.477 1_455 S
C299 H319 0.930 . S
C300 N296 1.362 . S
C300 C297 1.431 . S
C300 C310 1.476 . S
H301 C295 0.929 . S
C302 O293 1.250 . S
C302 O294 1.258 . S
O303 Mn288 2.162 . S
O303 C291 1.281 . S
O304 Mn288 2.297 . S
O304 C291 1.236 . S
N305 Mn289 2.282 . S
N305 C306 1.328 . S
N305 C310 1.318 . S
C306 N305 1.328 . S
C306 C307 1.457 . S
C306 H311 0.929 . S
C307 C306 1.457 . S
C307 C308 1.291 . S
C307 H320 0.931 . S
C308 C307 1.291 . S
C308 C309 1.373 . S
C308 H321 0.929 . S
C309 C308 1.373 . S
C309 C310 1.396 . S
C309 C316 1.403 . S
C310 C300 1.476 . S
C310 N305 1.318 . S
C310 C309 1.396 . S
H311 C306 0.929 . S
O312 Mn288 2.385 . S
O312 C290 1.234 . S
O313 Mn288 2.209 . S
O313 Mn289 2.215 . S
O313 C290 1.283 . S
O314 Mn288 2.094 . S
O314 C292 1.240 . S
O315 Mn289 2.117 . S
O315 C292 1.264 . S
C316 C309 1.403 . S
C316 C317 1.399 . S
C316 H322 0.929 . S
C317 C297 1.449 . S
C317 C316 1.399 . S
C317 H323 0.930 . S
H318 C298 0.931 . S
H319 C299 0.930 . S
H320 C307 0.931 . S
H321 C308 0.929 . S
H322 C316 0.929 . S
H323 C317 0.930 . S
Mn324 O329 2.095 . S
Mn324 O339 2.162 1_655 S
Mn324 O340 2.297 1_655 S
Mn324 O348 2.385 . S
Mn324 O349 2.209 . S
Mn324 O350 2.094 . S
Mn325 O330 2.121 . S
Mn325 N332 2.257 . S
Mn325 N341 2.282 . S
Mn325 O349 2.215 . S
Mn325 O351 2.117 . S
C326 O348 1.234 . S
C326 O349 1.283 . S
C327 O339 1.281 . S
C327 O340 1.236 . S
C328 O350 1.240 . S
C328 O351 1.264 . S
O329 Mn324 2.095 . S
O329 C338 1.250 . S
O330 Mn325 2.121 . S
O330 C338 1.258 . S
C331 N332 1.326 . S
C331 C335 1.460 . S
C331 H337 0.929 . S
N332 Mn325 2.257 . S
N332 C331 1.326 . S
N332 C336 1.362 . S
C333 C334 1.258 . S
C333 C336 1.431 . S
C333 C353 1.449 . S
C334 C333 1.258 . S
C334 C335 1.477 . S
C334 H354 0.931 . S
C335 C331 1.460 . S
C335 C334 1.477 . S
C335 H355 0.930 . S
C336 N332 1.362 . S
C336 C333 1.431 . S
C336 C346 1.476 . S
H337 C331 0.929 . S
C338 O329 1.250 . S
C338 O330 1.258 . S
O339 Mn324 2.162 1_455 S
O339 C327 1.281 . S
O340 Mn324 2.297 1_455 S
O340 C327 1.236 . S
N341 Mn325 2.282 . S
N341 C342 1.328 . S
N341 C346 1.318 . S
C342 N341 1.328 . S
C342 C343 1.457 . S
C342 H347 0.929 . S
C343 C342 1.457 . S
C343 C344 1.291 . S
C343 H356 0.931 . S
C344 C343 1.291 . S
C344 C345 1.373 . S
C344 H357 0.929 . S
C345 C344 1.373 . S
C345 C346 1.396 . S
C345 C352 1.403 . S
C346 C336 1.476 . S
C346 N341 1.318 . S
C346 C345 1.396 . S
H347 C342 0.929 . S
O348 Mn324 2.385 . S
O348 C326 1.234 . S
O349 Mn324 2.209 . S
O349 Mn325 2.215 . S
O349 C326 1.283 . S
O350 Mn324 2.094 . S
O350 C328 1.240 . S
O351 Mn325 2.117 . S
O351 C328 1.264 . S
C352 C345 1.403 . S
C352 C353 1.399 . S
C352 H358 0.929 . S
C353 C333 1.449 . S
C353 C352 1.399 . S
C353 H359 0.930 . S
H354 C334 0.931 . S
H355 C335 0.930 . S
H356 C343 0.931 . S
H357 C344 0.929 . S
H358 C352 0.929 . S
H359 C353 0.930 . S
Mn360 O365 2.095 . S
Mn360 O375 2.162 . S
Mn360 O376 2.297 . S
Mn360 O384 2.385 . S
Mn360 O385 2.209 . S
Mn360 O386 2.094 . S
Mn361 O366 2.121 . S
Mn361 N368 2.257 . S
Mn361 N377 2.282 . S
Mn361 O385 2.215 . S
Mn361 O387 2.117 . S
C362 O384 1.234 . S
C362 O385 1.283 . S
C363 O375 1.281 . S
C363 O376 1.236 . S
C364 O386 1.240 . S
C364 O387 1.264 . S
O365 Mn360 2.095 . S
O365 C374 1.250 . S
O366 Mn361 2.121 . S
O366 C374 1.258 . S
C367 N368 1.326 . S
C367 C371 1.460 . S
C367 H373 0.929 . S
N368 Mn361 2.257 . S
N368 C367 1.326 . S
N368 C372 1.362 . S
C369 C370 1.258 . S
C369 C372 1.431 . S
C369 C389 1.449 . S
C370 C369 1.258 . S
C370 C371 1.477 . S
C370 H390 0.931 . S
C371 C367 1.460 . S
C371 C370 1.477 . S
C371 H391 0.930 . S
C372 N368 1.362 . S
C372 C369 1.431 . S
C372 C382 1.476 . S
H373 C367 0.929 . S
C374 O365 1.250 . S
C374 O366 1.258 . S
O375 Mn360 2.162 . S
O375 C363 1.281 . S
O376 Mn360 2.297 . S
O376 C363 1.236 . S
N377 Mn361 2.282 . S
N377 C378 1.328 . S
N377 C382 1.318 . S
C378 N377 1.328 . S
C378 C379 1.457 . S
C378 H383 0.929 . S
C379 C378 1.457 . S
C379 C380 1.291 . S
C379 H392 0.931 . S
C380 C379 1.291 . S
C380 C381 1.373 . S
C380 H393 0.929 . S
C381 C380 1.373 . S
C381 C382 1.396 . S
C381 C388 1.403 . S
C382 C372 1.476 . S
C382 N377 1.318 . S
C382 C381 1.396 . S
H383 C378 0.929 . S
O384 Mn360 2.385 . S
O384 C362 1.234 . S
O385 Mn360 2.209 . S
O385 Mn361 2.215 . S
O385 C362 1.283 . S
O386 Mn360 2.094 . S
O386 C364 1.240 . S
O387 Mn361 2.117 . S
O387 C364 1.264 . S
C388 C381 1.403 . S
C388 C389 1.399 . S
C388 H394 0.929 . S
C389 C369 1.449 . S
C389 C388 1.399 . S
C389 H395 0.930 . S
H390 C370 0.931 . S
H391 C371 0.930 . S
H392 C379 0.931 . S
H393 C380 0.929 . S
H394 C388 0.929 . S
H395 C389 0.930 . S
Mn396 O401 2.095 . S
Mn396 O411 2.162 . S
Mn396 O412 2.297 . S
Mn396 O420 2.385 . S
Mn396 O421 2.209 . S
Mn396 O422 2.094 . S
Mn397 O402 2.121 . S
Mn397 N404 2.257 . S
Mn397 N413 2.282 . S
Mn397 O421 2.215 . S
Mn397 O423 2.117 . S
C398 O420 1.234 . S
C398 O421 1.283 . S
C399 O411 1.281 . S
C399 O412 1.236 . S
C400 O422 1.240 . S
C400 O423 1.264 . S
O401 Mn396 2.095 . S
O401 C410 1.250 . S
O402 Mn397 2.121 . S
O402 C410 1.258 . S
C403 N404 1.326 . S
C403 C407 1.460 . S
C403 H409 0.929 . S
N404 Mn397 2.257 . S
N404 C403 1.326 . S
N404 C408 1.362 . S
C405 C406 1.258 . S
C405 C408 1.431 . S
C405 C425 1.449 . S
C406 C405 1.258 . S
C406 C407 1.477 . S
C406 H426 0.931 . S
C407 C403 1.460 . S
C407 C406 1.477 . S
C407 H427 0.930 . S
C408 N404 1.362 . S
C408 C405 1.431 . S
C408 C418 1.476 . S
H409 C403 0.929 . S
C410 O401 1.250 . S
C410 O402 1.258 . S
O411 Mn396 2.162 . S
O411 C399 1.281 . S
O412 Mn396 2.297 . S
O412 C399 1.236 . S
N413 Mn397 2.282 . S
N413 C414 1.328 . S
N413 C418 1.318 . S
C414 N413 1.328 . S
C414 C415 1.457 . S
C414 H419 0.929 . S
C415 C414 1.457 . S
C415 C416 1.291 . S
C415 H428 0.931 . S
C416 C415 1.291 . S
C416 C417 1.373 . S
C416 H429 0.929 . S
C417 C416 1.373 . S
C417 C418 1.396 . S
C417 C424 1.403 . S
C418 C408 1.476 . S
C418 N413 1.318 . S
C418 C417 1.396 . S
H419 C414 0.929 . S
O420 Mn396 2.385 . S
O420 C398 1.234 . S
O421 Mn396 2.209 . S
O421 Mn397 2.215 . S
O421 C398 1.283 . S
O422 Mn396 2.094 . S
O422 C400 1.240 . S
O423 Mn397 2.117 . S
O423 C400 1.264 . S
C424 C417 1.403 . S
C424 C425 1.399 . S
C424 H430 0.929 . S
C425 C405 1.449 . S
C425 C424 1.399 . S
C425 H431 0.930 . S
H426 C406 0.931 . S
H427 C407 0.930 . S
H428 C415 0.931 . S
H429 C416 0.929 . S
H430 C424 0.929 . S
H431 C425 0.930 . S
Mn432 O437 2.095 . S
Mn432 O447 2.162 . S
Mn432 O448 2.297 . S
Mn432 O456 2.385 . S
Mn432 O457 2.209 . S
Mn432 O458 2.094 . S
Mn433 O438 2.121 . S
Mn433 N440 2.257 . S
Mn433 N449 2.282 . S
Mn433 O457 2.215 . S
Mn433 O459 2.117 . S
C434 O456 1.234 . S
C434 O457 1.283 . S
C435 O447 1.281 . S
C435 O448 1.236 . S
C436 O458 1.240 . S
C436 O459 1.264 . S
O437 Mn432 2.095 . S
O437 C446 1.250 . S
O438 Mn433 2.121 . S
O438 C446 1.258 . S
C439 N440 1.326 . S
C439 C443 1.460 . S
C439 H445 0.929 . S
N440 Mn433 2.257 . S
N440 C439 1.326 . S
N440 C444 1.362 . S
C441 C442 1.258 . S
C441 C444 1.431 . S
C441 C461 1.449 . S
C442 C441 1.258 . S
C442 C443 1.477 . S
C442 H462 0.931 . S
C443 C439 1.460 . S
C443 C442 1.477 . S
C443 H463 0.930 . S
C444 N440 1.362 . S
C444 C441 1.431 . S
C444 C454 1.476 . S
H445 C439 0.929 . S
C446 O437 1.250 . S
C446 O438 1.258 . S
O447 Mn432 2.162 . S
O447 C435 1.281 . S
O448 Mn432 2.297 . S
O448 C435 1.236 . S
N449 Mn433 2.282 . S
N449 C450 1.328 . S
N449 C454 1.318 . S
C450 N449 1.328 . S
C450 C451 1.457 . S
C450 H455 0.929 . S
C451 C450 1.457 . S
C451 C452 1.291 . S
C451 H464 0.931 . S
C452 C451 1.291 . S
C452 C453 1.373 . S
C452 H465 0.929 . S
C453 C452 1.373 . S
C453 C454 1.396 . S
C453 C460 1.403 . S
C454 C444 1.476 . S
C454 N449 1.318 . S
C454 C453 1.396 . S
H455 C450 0.929 . S
O456 Mn432 2.385 . S
O456 C434 1.234 . S
O457 Mn432 2.209 . S
O457 Mn433 2.215 . S
O457 C434 1.283 . S
O458 Mn432 2.094 . S
O458 C436 1.240 . S
O459 Mn433 2.117 . S
O459 C436 1.264 . S
C460 C453 1.403 . S
C460 C461 1.399 . S
C460 H466 0.929 . S
C461 C441 1.449 . S
C461 C460 1.399 . S
C461 H467 0.930 . S
H462 C442 0.931 . S
H463 C443 0.930 . S
H464 C451 0.931 . S
H465 C452 0.929 . S
H466 C460 0.929 . S
H467 C461 0.930 . S
Mn468 O473 2.095 . S
Mn468 O483 2.162 . S
Mn468 O484 2.297 . S
Mn468 O492 2.385 . S
Mn468 O493 2.209 . S
Mn468 O494 2.094 . S
Mn469 O474 2.121 . S
Mn469 N476 2.257 . S
Mn469 N485 2.282 . S
Mn469 O493 2.215 . S
Mn469 O495 2.117 . S
C470 O492 1.234 . S
C470 O493 1.283 . S
C471 O483 1.281 . S
C471 O484 1.236 . S
C472 O494 1.240 . S
C472 O495 1.264 . S
O473 Mn468 2.095 . S
O473 C482 1.250 . S
O474 Mn469 2.121 . S
O474 C482 1.258 . S
C475 N476 1.326 . S
C475 C479 1.460 . S
C475 H481 0.929 . S
N476 Mn469 2.257 . S
N476 C475 1.326 . S
N476 C480 1.362 . S
C477 C478 1.258 . S
C477 C480 1.431 . S
C477 C497 1.449 . S
C478 C477 1.258 . S
C478 C479 1.477 . S
C478 H498 0.931 . S
C479 C475 1.460 . S
C479 C478 1.477 . S
C479 H499 0.930 . S
C480 N476 1.362 . S
C480 C477 1.431 . S
C480 C490 1.476 . S
H481 C475 0.929 . S
C482 O473 1.250 . S
C482 O474 1.258 . S
O483 Mn468 2.162 . S
O483 C471 1.281 . S
O484 Mn468 2.297 . S
O484 C471 1.236 . S
N485 Mn469 2.282 . S
N485 C486 1.328 . S
N485 C490 1.318 . S
C486 N485 1.328 . S
C486 C487 1.457 . S
C486 H491 0.929 . S
C487 C486 1.457 . S
C487 C488 1.291 . S
C487 H500 0.931 . S
C488 C487 1.291 . S
C488 C489 1.373 . S
C488 H501 0.929 . S
C489 C488 1.373 . S
C489 C490 1.396 . S
C489 C496 1.403 . S
C490 C480 1.476 . S
C490 N485 1.318 . S
C490 C489 1.396 . S
H491 C486 0.929 . S
O492 Mn468 2.385 . S
O492 C470 1.234 . S
O493 Mn468 2.209 . S
O493 Mn469 2.215 . S
O493 C470 1.283 . S
O494 Mn468 2.094 . S
O494 C472 1.240 . S
O495 Mn469 2.117 . S
O495 C472 1.264 . S
C496 C489 1.403 . S
C496 C497 1.399 . S
C496 H502 0.929 . S
C497 C477 1.449 . S
C497 C496 1.399 . S
C497 H503 0.930 . S
H498 C478 0.931 . S
H499 C479 0.930 . S
H500 C487 0.931 . S
H501 C488 0.929 . S
H502 C496 0.929 . S
H503 C497 0.930 . S
Mn504 O509 2.095 . S
Mn504 O519 2.162 1_565 S
Mn504 O520 2.297 1_565 S
Mn504 O528 2.385 . S
Mn504 O529 2.209 . S
Mn504 O530 2.094 . S
Mn505 O510 2.121 . S
Mn505 N512 2.257 . S
Mn505 N521 2.282 . S
Mn505 O529 2.215 . S
Mn505 O531 2.117 . S
C506 O528 1.234 . S
C506 O529 1.283 . S
C507 O519 1.281 . S
C507 O520 1.236 . S
C508 O530 1.240 . S
C508 O531 1.264 . S
O509 Mn504 2.095 . S
O509 C518 1.250 . S
O510 Mn505 2.121 . S
O510 C518 1.258 . S
C511 N512 1.326 . S
C511 C515 1.460 . S
C511 H517 0.929 . S
N512 Mn505 2.257 . S
N512 C511 1.326 . S
N512 C516 1.362 . S
C513 C514 1.258 . S
C513 C516 1.431 . S
C513 C533 1.449 . S
C514 C513 1.258 . S
C514 C515 1.477 . S
C514 H534 0.931 . S
C515 C511 1.460 . S
C515 C514 1.477 . S
C515 H535 0.930 . S
C516 N512 1.362 . S
C516 C513 1.431 . S
C516 C526 1.476 . S
H517 C511 0.929 . S
C518 O509 1.250 . S
C518 O510 1.258 . S
O519 Mn504 2.162 1_545 S
O519 C507 1.281 . S
O520 Mn504 2.297 1_545 S
O520 C507 1.236 . S
N521 Mn505 2.282 . S
N521 C522 1.328 . S
N521 C526 1.318 . S
C522 N521 1.328 . S
C522 C523 1.457 . S
C522 H527 0.929 . S
C523 C522 1.457 . S
C523 C524 1.291 . S
C523 H536 0.931 . S
C524 C523 1.291 . S
C524 C525 1.373 . S
C524 H537 0.929 . S
C525 C524 1.373 . S
C525 C526 1.396 . S
C525 C532 1.403 . S
C526 C516 1.476 . S
C526 N521 1.318 . S
C526 C525 1.396 . S
H527 C522 0.929 . S
O528 Mn504 2.385 . S
O528 C506 1.234 . S
O529 Mn504 2.209 . S
O529 Mn505 2.215 . S
O529 C506 1.283 . S
O530 Mn504 2.094 . S
O530 C508 1.240 . S
O531 Mn505 2.117 . S
O531 C508 1.264 . S
C532 C525 1.403 . S
C532 C533 1.399 . S
C532 H538 0.929 . S
C533 C513 1.449 . S
C533 C532 1.399 . S
C533 H539 0.930 . S
H534 C514 0.931 . S
H535 C515 0.930 . S
H536 C523 0.931 . S
H537 C524 0.929 . S
H538 C532 0.929 . S
H539 C533 0.930 . S
Mn540 O545 2.095 . S
Mn540 O555 2.162 . S
Mn540 O556 2.297 . S
Mn540 O564 2.385 . S
Mn540 O565 2.209 . S
Mn540 O566 2.094 . S
Mn541 O546 2.121 . S
Mn541 N548 2.257 . S
Mn541 N557 2.282 . S
Mn541 O565 2.215 . S
Mn541 O567 2.117 . S
C542 O564 1.234 . S
C542 O565 1.283 . S
C543 O555 1.281 . S
C543 O556 1.236 . S
C544 O566 1.240 . S
C544 O567 1.264 . S
O545 Mn540 2.095 . S
O545 C554 1.250 . S
O546 Mn541 2.121 . S
O546 C554 1.258 . S
C547 N548 1.326 . S
C547 C551 1.460 . S
C547 H553 0.929 . S
N548 Mn541 2.257 . S
N548 C547 1.326 . S
N548 C552 1.362 . S
C549 C550 1.258 . S
C549 C552 1.431 . S
C549 C569 1.449 . S
C550 C549 1.258 . S
C550 C551 1.477 . S
C550 H570 0.931 . S
C551 C547 1.460 . S
C551 C550 1.477 . S
C551 H571 0.930 . S
C552 N548 1.362 . S
C552 C549 1.431 . S
C552 C562 1.476 . S
H553 C547 0.929 . S
C554 O545 1.250 . S
C554 O546 1.258 . S
O555 Mn540 2.162 . S
O555 C543 1.281 . S
O556 Mn540 2.297 . S
O556 C543 1.236 . S
N557 Mn541 2.282 . S
N557 C558 1.328 . S
N557 C562 1.318 . S
C558 N557 1.328 . S
C558 C559 1.457 . S
C558 H563 0.929 . S
C559 C558 1.457 . S
C559 C560 1.291 . S
C559 H572 0.931 . S
C560 C559 1.291 . S
C560 C561 1.373 . S
C560 H573 0.929 . S
C561 C560 1.373 . S
C561 C562 1.396 . S
C561 C568 1.403 . S
C562 C552 1.476 . S
C562 N557 1.318 . S
C562 C561 1.396 . S
H563 C558 0.929 . S
O564 Mn540 2.385 . S
O564 C542 1.234 . S
O565 Mn540 2.209 . S
O565 Mn541 2.215 . S
O565 C542 1.283 . S
O566 Mn540 2.094 . S
O566 C544 1.240 . S
O567 Mn541 2.117 . S
O567 C544 1.264 . S
C568 C561 1.403 . S
C568 C569 1.399 . S
C568 H574 0.929 . S
C569 C549 1.449 . S
C569 C568 1.399 . S
C569 H575 0.930 . S
H570 C550 0.931 . S
H571 C551 0.930 . S
H572 C559 0.931 . S
H573 C560 0.929 . S
H574 C568 0.929 . S
H575 C569 0.930 . S
Mn576 O581 2.095 1_565 S
Mn576 O591 2.162 . S
Mn576 O592 2.297 . S
Mn576 O600 2.385 . S
Mn576 O601 2.209 . S
Mn576 O602 2.094 . S
Mn577 O582 2.121 1_565 S
Mn577 N584 2.257 . S
Mn577 N593 2.282 . S
Mn577 O601 2.215 . S
Mn577 O603 2.117 . S
C578 O600 1.234 . S
C578 O601 1.283 . S
C579 O591 1.281 . S
C579 O592 1.236 . S
C580 O602 1.240 . S
C580 O603 1.264 . S
O581 Mn576 2.095 1_545 S
O581 C590 1.250 . S
O582 Mn577 2.121 1_545 S
O582 C590 1.258 . S
C583 N584 1.326 1_545 S
C583 C587 1.460 . S
C583 H589 0.929 . S
N584 Mn577 2.257 . S
N584 C583 1.326 1_565 S
N584 C588 1.362 . S
C585 C586 1.258 . S
C585 C588 1.431 . S
C585 C605 1.449 . S
C586 C585 1.258 . S
C586 C587 1.477 1_565 S
C586 H606 0.931 . S
C587 C583 1.460 . S
C587 C586 1.477 1_545 S
C587 H607 0.930 . S
C588 N584 1.362 . S
C588 C585 1.431 . S
C588 C598 1.476 . S
H589 C583 0.929 . S
C590 O581 1.250 . S
C590 O582 1.258 . S
O591 Mn576 2.162 . S
O591 C579 1.281 . S
O592 Mn576 2.297 . S
O592 C579 1.236 . S
N593 Mn577 2.282 . S
N593 C594 1.328 . S
N593 C598 1.318 . S
C594 N593 1.328 . S
C594 C595 1.457 . S
C594 H599 0.929 . S
C595 C594 1.457 . S
C595 C596 1.291 . S
C595 H608 0.931 . S
C596 C595 1.291 . S
C596 C597 1.373 . S
C596 H609 0.929 . S
C597 C596 1.373 . S
C597 C598 1.396 . S
C597 C604 1.403 . S
C598 C588 1.476 . S
C598 N593 1.318 . S
C598 C597 1.396 . S
H599 C594 0.929 . S
O600 Mn576 2.385 . S
O600 C578 1.234 . S
O601 Mn576 2.209 . S
O601 Mn577 2.215 . S
O601 C578 1.283 . S
O602 Mn576 2.094 . S
O602 C580 1.240 . S
O603 Mn577 2.117 . S
O603 C580 1.264 . S
C604 C597 1.403 . S
C604 C605 1.399 . S
C604 H610 0.929 . S
C605 C585 1.449 . S
C605 C604 1.399 . S
C605 H611 0.930 . S
H606 C586 0.931 . S
H607 C587 0.930 . S
H608 C595 0.931 . S
H609 C596 0.929 . S
H610 C604 0.929 . S
H611 C605 0.930 . S
Mn612 O617 2.095 . S
Mn612 O627 2.162 . S
Mn612 O628 2.297 . S
Mn612 O636 2.385 . S
Mn612 O637 2.209 . S
Mn612 O638 2.094 . S
Mn613 O618 2.121 . S
Mn613 N620 2.257 . S
Mn613 N629 2.282 . S
Mn613 O637 2.215 . S
Mn613 O639 2.117 . S
C614 O636 1.234 . S
C614 O637 1.283 . S
C615 O627 1.281 . S
C615 O628 1.236 . S
C616 O638 1.240 . S
C616 O639 1.264 . S
O617 Mn612 2.095 . S
O617 C626 1.250 . S
O618 Mn613 2.121 . S
O618 C626 1.258 . S
C619 N620 1.326 . S
C619 C623 1.460 . S
C619 H625 0.929 . S
N620 Mn613 2.257 . S
N620 C619 1.326 . S
N620 C624 1.362 . S
C621 C622 1.258 . S
C621 C624 1.431 . S
C621 C641 1.449 . S
C622 C621 1.258 . S
C622 C623 1.477 . S
C622 H642 0.931 . S
C623 C619 1.460 . S
C623 C622 1.477 . S
C623 H643 0.930 . S
C624 N620 1.362 . S
C624 C621 1.431 . S
C624 C634 1.476 . S
H625 C619 0.929 . S
C626 O617 1.250 . S
C626 O618 1.258 . S
O627 Mn612 2.162 . S
O627 C615 1.281 . S
O628 Mn612 2.297 . S
O628 C615 1.236 . S
N629 Mn613 2.282 . S
N629 C630 1.328 . S
N629 C634 1.318 . S
C630 N629 1.328 . S
C630 C631 1.457 . S
C630 H635 0.929 . S
C631 C630 1.457 . S
C631 C632 1.291 . S
C631 H644 0.931 . S
C632 C631 1.291 . S
C632 C633 1.373 . S
C632 H645 0.929 . S
C633 C632 1.373 . S
C633 C634 1.396 . S
C633 C640 1.403 . S
C634 C624 1.476 . S
C634 N629 1.318 . S
C634 C633 1.396 . S
H635 C630 0.929 . S
O636 Mn612 2.385 . S
O636 C614 1.234 . S
O637 Mn612 2.209 . S
O637 Mn613 2.215 . S
O637 C614 1.283 . S
O638 Mn612 2.094 . S
O638 C616 1.240 . S
O639 Mn613 2.117 . S
O639 C616 1.264 . S
C640 C633 1.403 . S
C640 C641 1.399 . S
C640 H646 0.929 . S
C641 C621 1.449 . S
C641 C640 1.399 . S
C641 H647 0.930 . S
H642 C622 0.931 . S
H643 C623 0.930 . S
H644 C631 0.931 . S
H645 C632 0.929 . S
H646 C640 0.929 . S
H647 C641 0.930 . S
Zn648 O654 1.920 . S
Zn648 O660 1.898 1_445 S
Zn648 O663 1.905 . S
Zn649 O657 1.905 1_545 S
Zn649 O658 1.898 . S
Zn649 O666 1.920 1_455 S
Zn650 O653 2.080 . S
Zn650 O656 2.114 1_545 S
Zn650 O659 2.120 . S
Zn650 O661 2.120 1_445 S
Zn650 O662 2.114 . S
Zn650 O665 2.080 1_455 S
C651 O656 1.166 . S
C651 O657 1.182 . S
C652 O658 1.167 . S
C652 O659 1.299 . S
O653 Zn650 2.080 . S
O653 C667 1.305 . S
O654 Zn648 1.920 . S
O654 C667 1.234 . S
C655 O660 1.167 . S
C655 O661 1.299 . S
O656 Zn650 2.114 1_565 S
O656 C651 1.166 . S
O657 Zn649 1.905 1_565 S
O657 C651 1.182 . S
O658 Zn649 1.898 . S
O658 C652 1.167 . S
O659 Zn650 2.120 . S
O659 C652 1.299 . S
O660 Zn648 1.898 1_665 S
O660 C655 1.167 . S
O661 Zn650 2.120 1_665 S
O661 C655 1.299 . S
O662 Zn650 2.114 . S
O662 C664 1.166 . S
O663 Zn648 1.905 . S
O663 C664 1.182 . S
C664 O662 1.166 . S
C664 O663 1.182 . S
O665 Zn650 2.080 1_655 S
O665 C668 1.305 . S
O666 Zn649 1.920 1_655 S
O666 C668 1.234 . S
C667 O653 1.305 . S
C667 O654 1.234 . S
C668 O665 1.305 . S
C668 O666 1.234 . S
Zn669 O675 1.920 1_545 S
Zn669 O681 1.898 . S
Zn669 O684 1.905 1_455 S
Zn670 O678 1.905 . S
Zn670 O679 1.902 1_455 S
Zn670 O687 1.920 . S
Zn671 O674 2.080 1_545 S
Zn671 O677 2.114 . S
Zn671 O680 2.120 1_445 S
Zn671 O682 2.120 . S
Zn671 O683 2.114 1_455 S
Zn671 O686 2.080 . S
C672 O677 1.166 . S
C672 O678 1.182 . S
C673 O679 1.159 1_565 S
C673 O680 1.299 . S
O674 Zn671 2.080 1_565 S
O674 C688 1.305 . S
O675 Zn669 1.920 1_565 S
O675 C688 1.234 . S
C676 O681 1.167 . S
C676 O682 1.299 . S
O677 Zn671 2.114 . S
O677 C672 1.166 . S
O678 Zn670 1.905 . S
O678 C672 1.182 . S
O679 Zn670 1.902 1_655 S
O679 C673 1.159 1_545 S
O680 Zn671 2.120 1_665 S
O680 C673 1.299 . S
O681 Zn669 1.898 . S
O681 C676 1.167 . S
O682 Zn671 2.120 . S
O682 C676 1.299 . S
O683 Zn671 2.114 1_655 S
O683 C685 1.166 . S
O684 Zn669 1.905 1_655 S
O684 C685 1.182 . S
C685 O683 1.166 . S
C685 O684 1.182 . S
O686 Zn671 2.080 . S
O686 C689 1.305 . S
O687 Zn670 1.920 . S
O687 C689 1.234 . S
C688 O674 1.305 . S
C688 O675 1.234 . S
C689 O686 1.305 . S
C689 O687 1.234 . S
Zn690 O696 1.920 1_545 S
Zn690 O702 1.898 . S
Zn690 O705 1.905 1_445 S
Zn691 O699 1.905 . S
Zn691 O700 1.898 1_445 S
Zn691 O708 1.920 . S
Zn692 O695 2.080 1_545 S
Zn692 O698 2.114 . S
Zn692 O701 2.120 1_445 S
Zn692 O703 2.120 . S
Zn692 O704 2.114 1_455 S
Zn692 O707 2.080 . S
C693 O698 1.166 . S
C693 O699 1.182 . S
C694 O700 1.167 . S
C694 O701 1.299 . S
O695 Zn692 2.080 1_565 S
O695 C709 1.305 . S
O696 Zn690 1.920 1_565 S
O696 C709 1.234 . S
C697 O702 1.167 . S
C697 O703 1.299 . S
O698 Zn692 2.114 . S
O698 C693 1.166 . S
O699 Zn691 1.905 . S
O699 C693 1.182 . S
O700 Zn691 1.898 1_665 S
O700 C694 1.167 . S
O701 Zn692 2.120 1_665 S
O701 C694 1.299 . S
O702 Zn690 1.898 . S
O702 C697 1.167 . S
O703 Zn692 2.120 . S
O703 C697 1.299 . S
O704 Zn692 2.114 1_655 S
O704 C706 1.166 . S
O705 Zn690 1.905 1_665 S
O705 C706 1.182 1_565 S
C706 O704 1.166 . S
C706 O705 1.182 1_545 S
O707 Zn692 2.080 . S
O707 C710 1.305 . S
O708 Zn691 1.920 . S
O708 C710 1.234 . S
C709 O695 1.305 . S
C709 O696 1.234 . S
C710 O707 1.305 . S
C710 O708 1.234 . S
Zn711 O717 1.920 . S
Zn711 O723 1.898 1_445 S
Zn711 O726 1.905 . S
Zn712 O720 1.905 1_545 S
Zn712 O721 1.898 . S
Zn712 O729 1.920 1_455 S
Zn713 O716 2.080 . S
Zn713 O719 2.114 1_545 S
Zn713 O722 2.120 . S
Zn713 O724 2.120 1_445 S
Zn713 O725 2.114 . S
Zn713 O728 2.080 1_455 S
C714 O719 1.166 . S
C714 O720 1.182 . S
C715 O721 1.167 . S
C715 O722 1.299 . S
O716 Zn713 2.080 . S
O716 C730 1.305 . S
O717 Zn711 1.920 . S
O717 C730 1.234 . S
C718 O723 1.167 . S
C718 O724 1.299 . S
O719 Zn713 2.114 1_565 S
O719 C714 1.166 . S
O720 Zn712 1.905 1_565 S
O720 C714 1.182 . S
O721 Zn712 1.898 . S
O721 C715 1.167 . S
O722 Zn713 2.120 . S
O722 C715 1.299 . S
O723 Zn711 1.898 1_665 S
O723 C718 1.167 . S
O724 Zn713 2.120 1_665 S
O724 C718 1.299 . S
O725 Zn713 2.114 . S
O725 C727 1.166 . S
O726 Zn711 1.905 . S
O726 C727 1.182 . S
C727 O725 1.166 . S
C727 O726 1.182 . S
O728 Zn713 2.080 1_655 S
O728 C731 1.305 . S
O729 Zn712 1.920 1_655 S
O729 C731 1.234 . S
C730 O716 1.305 . S
C730 O717 1.234 . S
C731 O728 1.305 . S
C731 O729 1.234 . S
Zn732 O738 1.920 . S
Zn732 O744 1.898 . S
Zn732 O747 1.905 . S
Zn733 O741 1.905 . S
Zn733 O742 1.898 . S
Zn733 O750 1.920 . S
Zn734 O737 2.080 . S
Zn734 O740 2.114 . S
Zn734 O743 2.120 . S
Zn734 O745 2.120 . S
Zn734 O746 2.114 . S
Zn734 O749 2.080 . S
C735 O740 1.166 . S
C735 O741 1.182 . S
C736 O742 1.167 . S
C736 O743 1.299 . S
O737 Zn734 2.080 . S
O737 C751 1.305 . S
O738 Zn732 1.920 . S
O738 C751 1.234 . S
C739 O744 1.167 . S
C739 O745 1.299 . S
O740 Zn734 2.114 . S
O740 C735 1.166 . S
O741 Zn733 1.905 . S
O741 C735 1.182 . S
O742 Zn733 1.898 . S
O742 C736 1.167 . S
O743 Zn734 2.120 . S
O743 C736 1.299 . S
O744 Zn732 1.898 . S
O744 C739 1.167 . S
O745 Zn734 2.120 . S
O745 C739 1.299 . S
O746 Zn734 2.114 . S
O746 C748 1.166 . S
O747 Zn732 1.905 . S
O747 C748 1.182 . S
C748 O746 1.166 . S
C748 O747 1.182 . S
O749 Zn734 2.080 . S
O749 C752 1.305 . S
O750 Zn733 1.920 . S
O750 C752 1.234 . S
C751 O737 1.305 . S
C751 O738 1.234 . S
C752 O749 1.305 . S
C752 O750 1.234 . S
Zn753 O759 1.920 . S
Zn753 O765 1.898 . S
Zn753 O768 1.905 . S
Zn754 O762 1.905 . S
Zn754 O763 1.898 . S
Zn754 O771 1.920 . S
Zn755 O758 2.080 . S
Zn755 O761 2.114 . S
Zn755 O764 2.120 . S
Zn755 O766 2.120 . S
Zn755 O767 2.114 . S
Zn755 O770 2.080 . S
C756 O761 1.166 . S
C756 O762 1.182 . S
C757 O763 1.167 . S
C757 O764 1.299 . S
O758 Zn755 2.080 . S
O758 C772 1.305 . S
O759 Zn753 1.920 . S
O759 C772 1.234 . S
C760 O765 1.167 . S
C760 O766 1.299 . S
O761 Zn755 2.114 . S
O761 C756 1.166 . S
O762 Zn754 1.905 . S
O762 C756 1.182 . S
O763 Zn754 1.898 . S
O763 C757 1.167 . S
O764 Zn755 2.120 . S
O764 C757 1.299 . S
O765 Zn753 1.898 . S
O765 C760 1.167 . S
O766 Zn755 2.120 . S
O766 C760 1.299 . S
O767 Zn755 2.114 . S
O767 C769 1.166 . S
O768 Zn753 1.905 . S
O768 C769 1.182 . S
C769 O767 1.166 . S
C769 O768 1.182 . S
O770 Zn755 2.080 . S
O770 C773 1.305 . S
O771 Zn754 1.920 . S
O771 C773 1.234 . S
C772 O758 1.305 . S
C772 O759 1.234 . S
C773 O770 1.305 . S
C773 O771 1.234 . S
Zn774 O780 1.920 . S
Zn774 O786 1.898 . S
Zn774 O789 1.905 . S
Zn775 O783 1.905 . S
Zn775 O784 1.898 . S
Zn775 O792 1.920 . S
Zn776 O779 2.080 . S
Zn776 O782 2.114 . S
Zn776 O785 2.120 . S
Zn776 O787 2.120 . S
Zn776 O788 2.114 . S
Zn776 O791 2.080 . S
C777 O782 1.166 . S
C777 O783 1.182 . S
C778 O784 1.167 . S
C778 O785 1.299 . S
O779 Zn776 2.080 . S
O779 C793 1.305 . S
O780 Zn774 1.920 . S
O780 C793 1.234 . S
C781 O786 1.167 . S
C781 O787 1.299 . S
O782 Zn776 2.114 . S
O782 C777 1.166 . S
O783 Zn775 1.905 . S
O783 C777 1.182 . S
O784 Zn775 1.898 . S
O784 C778 1.167 . S
O785 Zn776 2.120 . S
O785 C778 1.299 . S
O786 Zn774 1.898 . S
O786 C781 1.167 . S
O787 Zn776 2.120 . S
O787 C781 1.299 . S
O788 Zn776 2.114 . S
O788 C790 1.166 . S
O789 Zn774 1.905 . S
O789 C790 1.182 . S
C790 O788 1.166 . S
C790 O789 1.182 . S
O791 Zn776 2.080 . S
O791 C794 1.305 . S
O792 Zn775 1.920 . S
O792 C794 1.234 . S
C793 O779 1.305 . S
C793 O780 1.234 . S
C794 O791 1.305 . S
C794 O792 1.234 . S
Zn795 O801 1.920 . S
Zn795 O807 1.898 . S
Zn795 O810 1.905 . S
Zn796 O804 1.905 . S
Zn796 O805 1.898 . S
Zn796 O813 1.920 . S
Zn797 O800 2.080 . S
Zn797 O803 2.114 . S
Zn797 O806 2.120 . S
Zn797 O808 2.120 . S
Zn797 O809 2.114 . S
Zn797 O812 2.080 . S
C798 O803 1.166 . S
C798 O804 1.182 . S
C799 O805 1.167 . S
C799 O806 1.299 . S
O800 Zn797 2.080 . S
O800 C814 1.259 1_556 S
O801 Zn795 1.920 . S
O801 C814 1.289 . S
C802 O807 1.238 . S
C802 O808 1.240 1_554 S
O803 Zn797 2.114 . S
O803 C798 1.166 . S
O804 Zn796 1.905 . S
O804 C798 1.182 . S
O805 Zn796 1.898 . S
O805 C799 1.167 . S
O806 Zn797 2.120 . S
O806 C799 1.299 . S
O807 Zn795 1.898 . S
O807 C802 1.238 . S
O808 Zn797 2.120 . S
O808 C802 1.240 1_556 S
O809 Zn797 2.114 . S
O809 C811 1.129 1_556 S
O810 Zn795 1.905 . S
O810 C811 1.227 . S
C811 O809 1.129 1_554 S
C811 O810 1.227 . S
O812 Zn797 2.080 . S
O812 C815 1.305 . S
O813 Zn796 1.920 . S
O813 C815 1.234 . S
C814 O800 1.259 1_554 S
C814 O801 1.289 . S
C815 O812 1.305 . S
C815 O813 1.234 . S
Zn816 O822 1.920 . S
Zn816 O828 1.898 . S
Zn816 O831 1.905 . S
Zn817 O825 1.905 . S
Zn817 O826 1.898 . S
Zn817 O834 1.920 . S
Zn818 O821 2.080 . S
Zn818 O824 2.114 . S
Zn818 O827 2.120 . S
Zn818 O829 2.120 . S
Zn818 O830 2.114 . S
Zn818 O833 2.080 . S
C819 O824 1.166 . S
C819 O825 1.182 . S
C820 O826 1.167 . S
C820 O827 1.299 . S
O821 Zn818 2.080 . S
O821 C835 1.305 . S
O822 Zn816 1.920 . S
O822 C835 1.234 . S
C823 O828 1.167 . S
C823 O829 1.299 . S
O824 Zn818 2.114 . S
O824 C819 1.166 . S
O825 Zn817 1.905 . S
O825 C819 1.182 . S
O826 Zn817 1.898 . S
O826 C820 1.167 . S
O827 Zn818 2.120 . S
O827 C820 1.299 . S
O828 Zn816 1.898 . S
O828 C823 1.167 . S
O829 Zn818 2.120 . S
O829 C823 1.299 . S
O830 Zn818 2.114 . S
O830 C832 1.166 . S
O831 Zn816 1.905 . S
O831 C832 1.182 . S
C832 O830 1.166 . S
C832 O831 1.182 . S
O833 Zn818 2.080 . S
O833 C836 1.305 . S
O834 Zn817 1.920 . S
O834 C836 1.234 . S
C835 O821 1.305 . S
C835 O822 1.234 . S
C836 O833 1.305 . S
C836 O834 1.234 . S
Zn837 O843 1.920 . S
Zn837 O849 1.898 . S
Zn837 O852 1.905 . S
Zn838 O846 1.905 . S
Zn838 O847 1.898 . S
Zn838 O855 1.920 . S
Zn839 O842 2.080 . S
Zn839 O845 2.114 . S
Zn839 O848 2.120 . S
Zn839 O850 2.120 . S
Zn839 O851 2.114 . S
Zn839 O854 2.080 . S
C840 O845 1.127 1_556 S
C840 O846 1.228 . S
C841 O847 1.241 . S
C841 O848 1.237 1_556 S
O842 Zn839 2.080 . S
O842 C856 1.305 . S
O843 Zn837 1.920 . S
O843 C856 1.234 . S
C844 O849 1.167 . S
C844 O850 1.299 . S
O845 Zn839 2.114 . S
O845 C840 1.127 1_554 S
O846 Zn838 1.905 . S
O846 C840 1.228 . S
O847 Zn838 1.898 . S
O847 C841 1.241 . S
O848 Zn839 2.120 . S
O848 C841 1.237 1_554 S
O849 Zn837 1.898 . S
O849 C844 1.167 . S
O850 Zn839 2.120 . S
O850 C844 1.299 . S
O851 Zn839 2.114 . S
O851 C853 1.166 . S
O852 Zn837 1.905 . S
O852 C853 1.182 . S
C853 O851 1.166 . S
C853 O852 1.182 . S
O854 Zn839 2.080 . S
O854 C857 1.262 1_554 S
O855 Zn838 1.920 . S
O855 C857 1.286 . S
C856 O842 1.305 . S
C856 O843 1.234 . S
C857 O854 1.262 1_556 S
C857 O855 1.286 . S
Zn858 O864 1.920 . S
Zn858 O870 1.898 . S
Zn858 O873 1.905 . S
Zn859 O867 1.905 . S
Zn859 O868 1.898 . S
Zn859 O876 1.920 . S
Zn860 O863 2.080 . S
Zn860 O866 2.114 . S
Zn860 O869 2.120 . S
Zn860 O871 2.120 . S
Zn860 O872 2.114 . S
Zn860 O875 2.080 . S
C861 O866 1.166 . S
C861 O867 1.182 . S
C862 O868 1.167 . S
C862 O869 1.299 . S
O863 Zn860 2.080 . S
O863 C877 1.305 . S
O864 Zn858 1.920 . S
O864 C877 1.234 . S
C865 O870 1.167 . S
C865 O871 1.299 . S
O866 Zn860 2.114 . S
O866 C861 1.166 . S
O867 Zn859 1.905 . S
O867 C861 1.182 . S
O868 Zn859 1.898 . S
O868 C862 1.167 . S
O869 Zn860 2.120 . S
O869 C862 1.299 . S
O870 Zn858 1.898 . S
O870 C865 1.167 . S
O871 Zn860 2.120 . S
O871 C865 1.299 . S
O872 Zn860 2.114 . S
O872 C874 1.166 . S
O873 Zn858 1.905 . S
O873 C874 1.182 . S
C874 O872 1.166 . S
C874 O873 1.182 . S
O875 Zn860 2.080 . S
O875 C878 1.305 . S
O876 Zn859 1.920 . S
O876 C878 1.234 . S
C877 O863 1.305 . S
C877 O864 1.234 . S
C878 O875 1.305 . S
C878 O876 1.234 . S
Zn879 O885 1.920 . S
Zn879 O891 1.898 . S
Zn879 O894 1.905 . S
Zn880 O888 1.905 . S
Zn880 O889 1.898 . S
Zn880 O897 1.920 . S
Zn881 O884 2.080 . S
Zn881 O887 2.114 . S
Zn881 O890 2.120 . S
Zn881 O892 2.120 . S
Zn881 O893 2.114 . S
Zn881 O896 2.080 . S
C882 O887 1.166 . S
C882 O888 1.182 . S
C883 O889 1.167 . S
C883 O890 1.299 . S
O884 Zn881 2.080 . S
O884 C898 1.305 . S
O885 Zn879 1.920 . S
O885 C898 1.234 . S
C886 O891 1.167 . S
C886 O892 1.299 . S
O887 Zn881 2.114 . S
O887 C882 1.166 . S
O888 Zn880 1.905 . S
O888 C882 1.182 . S
O889 Zn880 1.898 . S
O889 C883 1.167 . S
O890 Zn881 2.120 . S
O890 C883 1.299 . S
O891 Zn879 1.898 . S
O891 C886 1.167 . S
O892 Zn881 2.120 . S
O892 C886 1.299 . S
O893 Zn881 2.114 . S
O893 C895 1.166 . S
O894 Zn879 1.905 . S
O894 C895 1.182 . S
C895 O893 1.166 . S
C895 O894 1.182 . S
O896 Zn881 2.080 . S
O896 C899 1.305 . S
O897 Zn880 1.920 . S
O897 C899 1.234 . S
C898 O884 1.305 . S
C898 O885 1.234 . S
C899 O896 1.305 . S
C899 O897 1.234 . S
C900 C901 1.349 . S
C900 C902 1.327 . S
C900 H925 0.950 . S
C901 C900 1.349 . S
C901 C917 1.349 . S
C902 C900 1.327 . S
C902 C921 1.429 . S
C902 H926 0.950 . S
C903 C920 1.574 . S
C903 C922 1.368 . S
C903 H927 0.949 . S
H904 C908 0.949 . S
C905 C906 1.349 . S
C905 C907 1.327 . S
C905 H928 0.950 . S
C906 C905 1.349 . S
C906 C918 1.349 . S
C907 C905 1.327 . S
C907 C923 1.429 . S
C907 H929 0.950 . S
C908 H904 0.949 . S
C908 C916 1.574 . S
C908 C924 1.368 . S
H909 C917 0.950 . S
H910 C915 0.950 . S
H911 C916 0.949 . S
H912 C918 0.950 . S
H913 C919 0.950 . S
H914 C920 0.949 . S
C915 H910 0.950 . S
C915 C917 1.327 . S
C915 C921 1.429 . S
C916 C908 1.574 . S
C916 H911 0.949 . S
C916 C922 1.368 . S
C917 C901 1.349 . S
C917 H909 0.950 . S
C917 C915 1.327 . S
C918 C906 1.349 . S
C918 H912 0.950 . S
C918 C919 1.327 . S
C919 H913 0.950 . S
C919 C918 1.327 . S
C919 C923 1.429 . S
C920 C903 1.574 . S
C920 H914 0.949 . S
C920 C924 1.368 . S
C921 C902 1.429 . S
C921 C915 1.429 . S
C921 C922 1.523 . S
C922 C903 1.368 . S
C922 C916 1.368 . S
C922 C921 1.523 . S
C923 C907 1.429 . S
C923 C919 1.429 . S
C923 C924 1.523 . S
C924 C908 1.368 . S
C924 C920 1.368 . S
C924 C923 1.523 . S
H925 C900 0.950 . S
H926 C902 0.950 . S
H927 C903 0.949 . S
H928 C905 0.950 . S
H929 C907 0.950 . S
C930 C931 1.349 . S
C930 C932 1.327 . S
C930 H955 0.950 . S
C931 C930 1.349 . S
C931 C947 1.349 1_545 S
C932 C930 1.327 . S
C932 C951 1.429 . S
C932 H956 0.950 . S
C933 C950 1.574 . S
C933 C952 1.368 1_565 S
C933 H957 0.949 . S
H934 C938 0.949 . S
C935 C936 1.349 . S
C935 C937 1.327 . S
C935 H958 0.950 1_545 S
C936 C935 1.349 . S
C936 C948 1.349 . S
C937 C935 1.327 . S
C937 C953 1.429 . S
C937 H959 0.950 1_545 S
C938 H934 0.949 . S
C938 C946 1.574 . S
C938 C954 1.368 . S
H939 C947 0.950 . S
H940 C945 0.950 . S
H941 C946 0.949 . S
H942 C948 0.950 . S
H943 C949 0.950 . S
H944 C950 0.949 . S
C945 H940 0.950 . S
C945 C947 1.327 . S
C945 C951 1.429 1_565 S
C946 C938 1.574 . S
C946 H941 0.949 . S
C946 C952 1.368 . S
C947 C931 1.349 1_565 S
C947 H939 0.950 . S
C947 C945 1.327 . S
C948 C936 1.349 . S
C948 H942 0.950 . S
C948 C949 1.327 . S
C949 H943 0.950 . S
C949 C948 1.327 . S
C949 C953 1.429 . S
C950 C933 1.574 . S
C950 H944 0.949 . S
C950 C954 1.368 1_565 S
C951 C932 1.429 . S
C951 C945 1.429 1_545 S
C951 C952 1.523 . S
C952 C933 1.368 1_545 S
C952 C946 1.368 . S
C952 C951 1.523 . S
C953 C937 1.429 . S
C953 C949 1.429 . S
C953 C954 1.523 . S
C954 C938 1.368 . S
C954 C950 1.368 1_545 S
C954 C953 1.523 . S
H955 C930 0.950 . S
H956 C932 0.950 . S
H957 C933 0.949 . S
H958 C935 0.950 1_565 S
H959 C937 0.950 1_565 S
C960 C961 1.349 . S
C960 C962 1.327 . S
C960 H985 0.950 . S
C961 C960 1.349 . S
C961 C977 1.349 . S
C962 C960 1.327 . S
C962 C981 1.429 . S
C962 H986 0.950 . S
C963 C980 1.574 . S
C963 C982 1.368 1_655 S
C963 H987 0.949 . S
H964 C968 0.949 . S
C965 C966 1.349 1_655 S
C965 C967 1.327 . S
C965 H988 0.950 . S
C966 C965 1.349 1_455 S
C966 C978 1.349 . S
C967 C965 1.327 . S
C967 C983 1.429 1_655 S
C967 H989 0.950 . S
C968 H964 0.949 . S
C968 C976 1.574 . S
C968 C984 1.368 . S
H969 C977 0.950 1_655 S
H970 C975 0.950 . S
H971 C976 0.949 . S
H972 C978 0.950 . S
H973 C979 0.950 . S
H974 C980 0.949 . S
C975 H970 0.950 . S
C975 C977 1.327 1_655 S
C975 C981 1.429 1_655 S
C976 C968 1.574 . S
C976 H971 0.949 . S
C976 C982 1.368 . S
C977 C961 1.349 . S
C977 H969 0.950 1_455 S
C977 C975 1.327 1_455 S
C978 C966 1.349 . S
C978 H972 0.950 . S
C978 C979 1.327 . S
C979 H973 0.950 . S
C979 C978 1.327 . S
C979 C983 1.429 . S
C980 C963 1.574 . S
C980 H974 0.949 . S
C980 C984 1.368 1_655 S
C981 C962 1.429 . S
C981 C975 1.429 1_455 S
C981 C982 1.523 . S
C982 C963 1.368 1_455 S
C982 C976 1.368 . S
C982 C981 1.523 . S
C983 C967 1.429 1_455 S
C983 C979 1.429 . S
C983 C984 1.523 . S
C984 C968 1.368 . S
C984 C980 1.368 1_455 S
C984 C983 1.523 . S
H985 C960 0.950 . S
H986 C962 0.950 . S
H987 C963 0.949 . S
H988 C965 0.950 . S
H989 C967 0.950 . S
C990 C991 1.349 . S
C990 C992 1.327 . S
C990 H1015 0.950 . S
C991 C990 1.349 . S
C991 C1007 1.349 . S
C992 C990 1.327 . S
C992 C1011 1.429 . S
C992 H1016 0.950 . S
C993 C1010 1.574 . S
C993 C1012 1.368 . S
C993 H1017 0.949 . S
H994 C998 0.949 . S
C995 C996 1.349 . S
C995 C997 1.327 . S
C995 H1018 0.950 . S
C996 C995 1.349 . S
C996 C1008 1.349 . S
C997 C995 1.327 . S
C997 C1013 1.429 . S
C997 H1019 0.950 . S
C998 H994 0.949 . S
C998 C1006 1.574 . S
C998 C1014 1.368 . S
H999 C1007 0.950 . S
H1000 C1005 0.950 . S
H1001 C1006 0.949 . S
H1002 C1008 0.950 . S
H1003 C1009 0.950 . S
H1004 C1010 0.949 . S
C1005 H1000 0.950 . S
C1005 C1007 1.327 . S
C1005 C1011 1.429 . S
C1006 C998 1.574 . S
C1006 H1001 0.949 . S
C1006 C1012 1.368 . S
C1007 C991 1.349 . S
C1007 H999 0.950 . S
C1007 C1005 1.327 . S
C1008 C996 1.349 . S
C1008 H1002 0.950 . S
C1008 C1009 1.327 . S
C1009 H1003 0.950 . S
C1009 C1008 1.327 . S
C1009 C1013 1.429 . S
C1010 C993 1.574 . S
C1010 H1004 0.949 . S
C1010 C1014 1.368 . S
C1011 C992 1.429 . S
C1011 C1005 1.429 . S
C1011 C1012 1.523 . S
C1012 C993 1.368 . S
C1012 C1006 1.368 . S
C1012 C1011 1.523 . S
C1013 C997 1.429 . S
C1013 C1009 1.429 . S
C1013 C1014 1.523 . S
C1014 C998 1.368 . S
C1014 C1010 1.368 . S
C1014 C1013 1.523 . S
H1015 C990 0.950 . S
H1016 C992 0.950 . S
H1017 C993 0.949 . S
H1018 C995 0.950 . S
H1019 C997 0.950 . S
C1020 C1021 1.349 . S
C1020 C1022 1.327 . S
C1020 H1045 0.950 . S
C1021 C1020 1.349 . S
C1021 C1037 1.349 . S
C1022 C1020 1.327 . S
C1022 C1041 1.429 . S
C1022 H1046 0.950 . S
C1023 C1040 1.574 . S
C1023 C1042 1.368 1_565 S
C1023 H1047 0.949 . S
H1024 C1028 0.949 . S
C1025 C1026 1.349 1_565 S
C1025 C1027 1.327 . S
C1025 H1048 0.950 . S
C1026 C1025 1.349 1_545 S
C1026 C1038 1.349 . S
C1027 C1025 1.327 . S
C1027 C1043 1.429 1_565 S
C1027 H1049 0.950 . S
C1028 H1024 0.949 . S
C1028 C1036 1.574 . S
C1028 C1044 1.368 . S
H1029 C1037 0.950 1_565 S
H1030 C1035 0.950 1_565 S
H1031 C1036 0.949 . S
H1032 C1038 0.950 . S
H1033 C1039 0.950 . S
H1034 C1040 0.949 . S
C1035 H1030 0.950 1_545 S
C1035 C1037 1.327 . S
C1035 C1041 1.429 . S
C1036 C1028 1.574 . S
C1036 H1031 0.949 . S
C1036 C1042 1.368 . S
C1037 C1021 1.349 . S
C1037 H1029 0.950 1_545 S
C1037 C1035 1.327 . S
C1038 C1026 1.349 . S
C1038 H1032 0.950 . S
C1038 C1039 1.327 . S
C1039 H1033 0.950 . S
C1039 C1038 1.327 . S
C1039 C1043 1.429 . S
C1040 C1023 1.574 . S
C1040 H1034 0.949 . S
C1040 C1044 1.368 1_565 S
C1041 C1022 1.429 . S
C1041 C1035 1.429 . S
C1041 C1042 1.523 . S
C1042 C1023 1.368 1_545 S
C1042 C1036 1.368 . S
C1042 C1041 1.523 . S
C1043 C1027 1.429 1_545 S
C1043 C1039 1.429 . S
C1043 C1044 1.523 . S
C1044 C1028 1.368 . S
C1044 C1040 1.368 1_545 S
C1044 C1043 1.523 . S
H1045 C1020 0.950 . S
H1046 C1022 0.950 . S
H1047 C1023 0.949 . S
H1048 C1025 0.950 . S
H1049 C1027 0.950 . S
C1050 C1051 1.349 . S
C1050 C1052 1.327 . S
C1050 H1075 0.950 . S
C1051 C1050 1.349 . S
C1051 C1067 1.349 1_455 S
C1052 C1050 1.327 . S
C1052 C1071 1.429 . S
C1052 H1076 0.950 . S
C1053 C1070 1.573 . S
C1053 C1072 1.371 . S
C1053 H1077 0.948 1_455 S
H1054 C1058 0.949 . S
C1055 C1056 1.349 . S
C1055 C1057 1.327 . S
C1055 H1078 0.950 1_455 S
C1056 C1055 1.349 . S
C1056 C1068 1.349 . S
C1057 C1055 1.327 . S
C1057 C1073 1.429 . S
C1057 H1079 0.950 1_455 S
C1058 H1054 0.949 . S
C1058 C1066 1.574 . S
C1058 C1074 1.368 . S
H1059 C1067 0.950 . S
H1060 C1065 0.950 . S
H1061 C1066 0.949 . S
H1062 C1068 0.950 . S
H1063 C1069 0.950 . S
H1064 C1070 0.949 1_655 S
C1065 H1060 0.950 . S
C1065 C1067 1.327 . S
C1065 C1071 1.429 1_655 S
C1066 C1058 1.574 . S
C1066 H1061 0.949 . S
C1066 C1072 1.368 . S
C1067 C1051 1.349 1_655 S
C1067 H1059 0.950 . S
C1067 C1065 1.327 . S
C1068 C1056 1.349 . S
C1068 H1062 0.950 . S
C1068 C1069 1.327 . S
C1069 H1063 0.950 . S
C1069 C1068 1.327 . S
C1069 C1073 1.429 . S
C1070 C1053 1.573 . S
C1070 H1064 0.949 1_455 S
C1070 C1074 1.368 . S
C1071 C1052 1.429 . S
C1071 C1065 1.429 1_455 S
C1071 C1072 1.523 . S
C1072 C1053 1.371 . S
C1072 C1066 1.368 . S
C1072 C1071 1.523 . S
C1073 C1057 1.429 . S
C1073 C1069 1.429 . S
C1073 C1074 1.523 . S
C1074 C1058 1.368 . S
C1074 C1070 1.368 . S
C1074 C1073 1.523 . S
H1075 C1050 0.950 . S
H1076 C1052 0.950 . S
H1077 C1053 0.948 1_655 S
H1078 C1055 0.950 1_655 S
H1079 C1057 0.950 1_655 S
C1080 C1081 1.349 . S
C1080 C1082 1.327 . S
C1080 H1105 0.950 . S
C1081 C1080 1.349 . S
C1081 C1097 1.349 . S
C1082 C1080 1.327 . S
C1082 C1101 1.429 . S
C1082 H1106 0.950 . S
C1083 C1100 1.574 . S
C1083 C1102 1.368 . S
C1083 H1107 0.949 . S
H1084 C1088 0.949 . S
C1085 C1086 1.349 . S
C1085 C1087 1.327 . S
C1085 H1108 0.950 . S
C1086 C1085 1.349 . S
C1086 C1098 1.349 . S
C1087 C1085 1.327 . S
C1087 C1103 1.429 . S
C1087 H1109 0.950 . S
C1088 H1084 0.949 . S
C1088 C1096 1.574 . S
C1088 C1104 1.368 . S
H1089 C1097 0.950 . S
H1090 C1095 0.950 . S
H1091 C1096 0.949 . S
H1092 C1098 0.950 . S
H1093 C1099 0.950 . S
H1094 C1100 0.949 . S
C1095 H1090 0.950 . S
C1095 C1097 1.327 . S
C1095 C1101 1.429 . S
C1096 C1088 1.574 . S
C1096 H1091 0.949 . S
C1096 C1102 1.368 . S
C1097 C1081 1.349 . S
C1097 H1089 0.950 . S
C1097 C1095 1.327 . S
C1098 C1086 1.349 . S
C1098 H1092 0.950 . S
C1098 C1099 1.327 . S
C1099 H1093 0.950 . S
C1099 C1098 1.327 . S
C1099 C1103 1.429 . S
C1100 C1083 1.574 . S
C1100 H1094 0.949 . S
C1100 C1104 1.368 . S
C1101 C1082 1.429 . S
C1101 C1095 1.429 . S
C1101 C1102 1.523 . S
C1102 C1083 1.368 . S
C1102 C1096 1.368 . S
C1102 C1101 1.523 . S
C1103 C1087 1.429 . S
C1103 C1099 1.429 . S
C1103 C1104 1.523 . S
C1104 C1088 1.368 . S
C1104 C1100 1.368 . S
C1104 C1103 1.523 . S
H1105 C1080 0.950 . S
H1106 C1082 0.950 . S
H1107 C1083 0.949 . S
H1108 C1085 0.950 . S
H1109 C1087 0.950 . S
C1110 C1111 1.349 . S
C1110 C1112 1.336 1_545 S
C1110 H1135 0.950 1_545 S
C1111 C1110 1.349 . S
C1111 C1127 1.349 . S
C1112 C1110 1.336 1_565 S
C1112 C1131 1.400 1_565 S
C1112 H1136 0.971 . S
C1113 C1130 1.574 . S
C1113 C1132 1.368 . S
C1113 H1137 0.949 . S
H1114 C1118 0.949 . S
C1115 C1116 1.349 . S
C1115 C1117 1.327 . S
C1115 H1138 0.950 . S
C1116 C1115 1.349 . S
C1116 C1128 1.349 1_545 S
C1117 C1115 1.327 . S
C1117 C1133 1.429 . S
C1117 H1139 0.950 . S
C1118 H1114 0.949 . S
C1118 C1126 1.574 . S
C1118 C1134 1.368 1_565 S
H1119 C1127 0.950 . S
H1120 C1125 0.950 . S
H1121 C1126 0.949 . S
H1122 C1128 0.950 . S
H1123 C1129 0.950 . S
H1124 C1130 0.949 . S
C1125 H1120 0.950 . S
C1125 C1127 1.327 . S
C1125 C1131 1.429 . S
C1126 C1118 1.574 . S
C1126 H1121 0.949 . S
C1126 C1132 1.368 1_565 S
C1127 C1111 1.349 . S
C1127 H1119 0.950 . S
C1127 C1125 1.327 . S
C1128 C1116 1.349 1_565 S
C1128 H1122 0.950 . S
C1128 C1129 1.327 . S
C1129 H1123 0.950 . S
C1129 C1128 1.327 . S
C1129 C1133 1.429 1_565 S
C1130 C1113 1.574 . S
C1130 H1124 0.949 . S
C1130 C1134 1.368 . S
C1131 C1112 1.400 1_545 S
C1131 C1125 1.429 . S
C1131 C1132 1.523 . S
C1132 C1113 1.368 . S
C1132 C1126 1.368 1_545 S
C1132 C1131 1.523 . S
C1133 C1117 1.429 . S
C1133 C1129 1.429 1_545 S
C1133 C1134 1.523 . S
C1134 C1118 1.368 1_545 S
C1134 C1130 1.368 . S
C1134 C1133 1.523 . S
H1135 C1110 0.950 1_565 S
H1136 C1112 0.971 . S
H1137 C1113 0.949 . S
H1138 C1115 0.950 . S
H1139 C1117 0.950 . S
C1140 C1141 1.349 . S
C1140 C1142 1.327 . S
C1140 H1165 0.950 . S
C1141 C1140 1.349 . S
C1141 C1157 1.349 . S
C1142 C1140 1.327 . S
C1142 C1161 1.429 . S
C1142 H1166 0.950 . S
C1143 C1160 1.574 . S
C1143 C1162 1.368 . S
C1143 H1167 0.949 . S
H1144 C1148 0.949 . S
C1145 C1146 1.349 . S
C1145 C1147 1.327 . S
C1145 H1168 0.950 . S
C1146 C1145 1.349 . S
C1146 C1158 1.349 . S
C1147 C1145 1.327 . S
C1147 C1163 1.429 . S
C1147 H1169 0.950 . S
C1148 H1144 0.949 . S
C1148 C1156 1.574 . S
C1148 C1164 1.368 . S
H1149 C1157 0.948 1_655 S
H1150 C1155 0.950 . S
H1151 C1156 0.949 . S
H1152 C1158 0.950 . S
H1153 C1159 0.950 . S
H1154 C1160 0.949 . S
C1155 H1150 0.950 . S
C1155 C1157 1.327 . S
C1155 C1161 1.429 . S
C1156 C1148 1.574 . S
C1156 H1151 0.949 . S
C1156 C1162 1.368 . S
C1157 C1141 1.349 . S
C1157 H1149 0.948 1_455 S
C1157 C1155 1.327 . S
C1158 C1146 1.349 . S
C1158 H1152 0.950 . S
C1158 C1159 1.327 . S
C1159 H1153 0.950 . S
C1159 C1158 1.327 . S
C1159 C1163 1.429 . S
C1160 C1143 1.574 . S
C1160 H1154 0.949 . S
C1160 C1164 1.368 . S
C1161 C1142 1.429 . S
C1161 C1155 1.429 . S
C1161 C1162 1.523 . S
C1162 C1143 1.368 . S
C1162 C1156 1.368 . S
C1162 C1161 1.523 . S
C1163 C1147 1.429 . S
C1163 C1159 1.429 . S
C1163 C1164 1.523 . S
C1164 C1148 1.368 . S
C1164 C1160 1.368 . S
C1164 C1163 1.523 . S
H1165 C1140 0.950 . S
H1166 C1142 0.950 . S
H1167 C1143 0.949 . S
H1168 C1145 0.950 . S
H1169 C1147 0.950 . S
C1170 C1171 1.349 . S
C1170 C1172 1.327 . S
C1170 H1195 0.950 . S
C1171 C1170 1.349 . S
C1171 C1187 1.349 . S
C1172 C1170 1.327 . S
C1172 C1191 1.429 . S
C1172 H1196 0.950 . S
C1173 C1190 1.574 . S
C1173 C1192 1.368 . S
C1173 H1197 0.949 . S
H1174 C1178 0.949 . S
C1175 C1176 1.349 . S
C1175 C1177 1.327 . S
C1175 H1198 0.950 . S
C1176 C1175 1.349 . S
C1176 C1188 1.349 . S
C1177 C1175 1.327 . S
C1177 C1193 1.429 . S
C1177 H1199 0.950 . S
C1178 H1174 0.949 . S
C1178 C1186 1.574 . S
C1178 C1194 1.368 . S
H1179 C1187 0.950 . S
H1180 C1185 0.950 . S
H1181 C1186 0.949 . S
H1182 C1188 0.950 . S
H1183 C1189 0.950 . S
H1184 C1190 0.949 . S
C1185 H1180 0.950 . S
C1185 C1187 1.327 . S
C1185 C1191 1.429 . S
C1186 C1178 1.574 . S
C1186 H1181 0.949 . S
C1186 C1192 1.368 . S
C1187 C1171 1.349 . S
C1187 H1179 0.950 . S
C1187 C1185 1.327 . S
C1188 C1176 1.349 . S
C1188 H1182 0.950 . S
C1188 C1189 1.327 . S
C1189 H1183 0.950 . S
C1189 C1188 1.327 . S
C1189 C1193 1.429 . S
C1190 C1173 1.574 . S
C1190 H1184 0.949 . S
C1190 C1194 1.368 . S
C1191 C1172 1.429 . S
C1191 C1185 1.429 . S
C1191 C1192 1.523 . S
C1192 C1173 1.368 . S
C1192 C1186 1.368 . S
C1192 C1191 1.523 . S
C1193 C1177 1.429 . S
C1193 C1189 1.429 . S
C1193 C1194 1.523 . S
C1194 C1178 1.368 . S
C1194 C1190 1.368 . S
C1194 C1193 1.523 . S
H1195 C1170 0.950 . S
H1196 C1172 0.950 . S
H1197 C1173 0.949 . S
H1198 C1175 0.950 . S
H1199 C1177 0.950 . S
C1200 C1201 1.349 . S
C1200 C1202 1.327 . S
C1200 H1225 0.950 . S
C1201 C1200 1.349 . S
C1201 C1217 1.349 1_545 S
C1202 C1200 1.327 . S
C1202 C1221 1.429 . S
C1202 H1226 0.950 . S
C1203 C1220 1.576 1_565 S
C1203 C1222 1.370 1_565 S
C1203 H1227 0.946 . S
H1204 C1208 0.949 . S
C1205 C1206 1.349 . S
C1205 C1207 1.327 . S
C1205 H1228 0.950 1_545 S
C1206 C1205 1.349 . S
C1206 C1218 1.349 . S
C1207 C1205 1.327 . S
C1207 C1223 1.429 . S
C1207 H1229 0.950 1_545 S
C1208 H1204 0.949 . S
C1208 C1216 1.574 . S
C1208 C1224 1.368 . S
H1209 C1217 0.950 . S
H1210 C1215 0.950 . S
H1211 C1216 0.949 . S
H1212 C1218 0.950 . S
H1213 C1219 0.950 . S
H1214 C1220 0.949 1_565 S
C1215 H1210 0.950 . S
C1215 C1217 1.327 . S
C1215 C1221 1.429 1_565 S
C1216 C1208 1.574 . S
C1216 H1211 0.949 . S
C1216 C1222 1.368 . S
C1217 C1201 1.349 1_565 S
C1217 H1209 0.950 . S
C1217 C1215 1.327 . S
C1218 C1206 1.349 . S
C1218 H1212 0.950 . S
C1218 C1219 1.327 . S
C1219 H1213 0.950 . S
C1219 C1218 1.327 . S
C1219 C1223 1.429 . S
C1220 C1203 1.576 1_545 S
C1220 H1214 0.949 1_545 S
C1220 C1224 1.368 . S
C1221 C1202 1.429 . S
C1221 C1215 1.429 1_545 S
C1221 C1222 1.523 . S
C1222 C1203 1.370 1_545 S
C1222 C1216 1.368 . S
C1222 C1221 1.523 . S
C1223 C1207 1.429 . S
C1223 C1219 1.429 . S
C1223 C1224 1.523 . S
C1224 C1208 1.368 . S
C1224 C1220 1.368 . S
C1224 C1223 1.523 . S
H1225 C1200 0.950 . S
H1226 C1202 0.950 . S
H1227 C1203 0.946 . S
H1228 C1205 0.950 1_565 S
H1229 C1207 0.950 1_565 S
C1230 C1231 1.349 . S
C1230 C1232 1.327 . S
C1230 H1255 0.950 . S
C1231 C1230 1.349 . S
C1231 C1247 1.349 . S
C1232 C1230 1.327 . S
C1232 C1251 1.429 . S
C1232 H1256 0.950 . S
C1233 C1250 1.574 . S
C1233 C1252 1.368 1_655 S
C1233 H1257 0.949 . S
H1234 C1238 0.949 . S
C1235 C1236 1.349 1_655 S
C1235 C1237 1.327 . S
C1235 H1258 0.950 . S
C1236 C1235 1.349 1_455 S
C1236 C1248 1.349 . S
C1237 C1235 1.327 . S
C1237 C1253 1.429 1_655 S
C1237 H1259 0.950 . S
C1238 H1234 0.949 . S
C1238 C1246 1.574 . S
C1238 C1254 1.368 . S
H1239 C1247 0.950 1_655 S
H1240 C1245 0.975 . S
H1241 C1246 0.949 . S
H1242 C1248 0.950 . S
H1243 C1249 0.950 . S
H1244 C1250 0.949 . S
C1245 H1240 0.975 . S
C1245 C1247 1.338 1_655 S
C1245 C1251 1.394 1_655 S
C1246 C1238 1.574 . S
C1246 H1241 0.949 . S
C1246 C1252 1.368 . S
C1247 C1231 1.349 . S
C1247 H1239 0.950 1_455 S
C1247 C1245 1.338 1_455 S
C1248 C1236 1.349 . S
C1248 H1242 0.950 . S
C1248 C1249 1.327 . S
C1249 H1243 0.950 . S
C1249 C1248 1.327 . S
C1249 C1253 1.429 . S
C1250 C1233 1.574 . S
C1250 H1244 0.949 . S
C1250 C1254 1.368 1_655 S
C1251 C1232 1.429 . S
C1251 C1245 1.394 1_455 S
C1251 C1252 1.523 . S
C1252 C1233 1.368 1_455 S
C1252 C1246 1.368 . S
C1252 C1251 1.523 . S
C1253 C1237 1.429 1_455 S
C1253 C1249 1.429 . S
C1253 C1254 1.523 . S
C1254 C1238 1.368 . S
C1254 C1250 1.368 1_455 S
C1254 C1253 1.523 . S
H1255 C1230 0.950 . S
H1256 C1232 0.950 . S
H1257 C1233 0.949 . S
H1258 C1235 0.950 . S
H1259 C1237 0.950 . S
C1260 C1261 1.349 . S
C1260 C1262 1.327 . S
C1260 H1285 0.950 . S
C1261 C1260 1.349 . S
C1261 C1277 1.349 . S
C1262 C1260 1.327 . S
C1262 C1281 1.429 . S
C1262 H1286 0.950 . S
C1263 C1280 1.574 . S
C1263 C1282 1.368 . S
C1263 H1287 0.949 . S
H1264 C1268 0.949 . S
C1265 C1266 1.349 . S
C1265 C1267 1.327 . S
C1265 H1288 0.950 . S
C1266 C1265 1.349 . S
C1266 C1278 1.349 . S
C1267 C1265 1.327 . S
C1267 C1283 1.429 . S
C1267 H1289 0.950 . S
C1268 H1264 0.949 . S
C1268 C1276 1.574 . S
C1268 C1284 1.368 . S
H1269 C1277 0.950 . S
H1270 C1275 0.950 . S
H1271 C1276 0.949 . S
H1272 C1278 0.950 . S
H1273 C1279 0.950 . S
H1274 C1280 0.949 . S
C1275 H1270 0.950 . S
C1275 C1277 1.327 . S
C1275 C1281 1.429 . S
C1276 C1268 1.574 . S
C1276 H1271 0.949 . S
C1276 C1282 1.368 . S
C1277 C1261 1.349 . S
C1277 H1269 0.950 . S
C1277 C1275 1.327 . S
C1278 C1266 1.349 . S
C1278 H1272 0.950 . S
C1278 C1279 1.327 . S
C1279 H1273 0.950 . S
C1279 C1278 1.327 . S
C1279 C1283 1.429 . S
C1280 C1263 1.574 . S
C1280 H1274 0.949 . S
C1280 C1284 1.368 . S
C1281 C1262 1.429 . S
C1281 C1275 1.429 . S
C1281 C1282 1.523 . S
C1282 C1263 1.368 . S
C1282 C1276 1.368 . S
C1282 C1281 1.523 . S
C1283 C1267 1.429 . S
C1283 C1279 1.429 . S
C1283 C1284 1.523 . S
C1284 C1268 1.368 . S
C1284 C1280 1.368 . S
C1284 C1283 1.523 . S
H1285 C1260 0.950 . S
H1286 C1262 0.950 . S
H1287 C1263 0.949 . S
H1288 C1265 0.950 . S
H1289 C1267 0.950 . S
C1290 C1291 1.349 . S
C1290 C1292 1.327 . S
C1290 H1315 0.950 . S
C1291 C1290 1.349 . S
C1291 C1307 1.349 . S
C1292 C1290 1.327 . S
C1292 C1311 1.429 . S
C1292 H1316 0.950 . S
C1293 C1310 1.574 . S
C1293 C1312 1.368 . S
C1293 H1317 0.949 . S
H1294 C1298 0.949 . S
C1295 C1296 1.349 . S
C1295 C1297 1.327 . S
C1295 H1318 0.950 . S
C1296 C1295 1.349 . S
C1296 C1308 1.349 . S
C1297 C1295 1.327 . S
C1297 C1313 1.429 . S
C1297 H1319 0.950 . S
C1298 H1294 0.949 . S
C1298 C1306 1.574 . S
C1298 C1314 1.368 . S
H1299 C1307 0.950 . S
H1300 C1305 0.950 . S
H1301 C1306 0.949 . S
H1302 C1308 0.950 . S
H1303 C1309 0.950 . S
H1304 C1310 0.949 . S
C1305 H1300 0.950 . S
C1305 C1307 1.327 . S
C1305 C1311 1.429 . S
C1306 C1298 1.574 . S
C1306 H1301 0.949 . S
C1306 C1312 1.368 . S
C1307 C1291 1.349 . S
C1307 H1299 0.950 . S
C1307 C1305 1.327 . S
C1308 C1296 1.349 . S
C1308 H1302 0.950 . S
C1308 C1309 1.327 . S
C1309 H1303 0.950 . S
C1309 C1308 1.327 . S
C1309 C1313 1.429 . S
C1310 C1293 1.574 . S
C1310 H1304 0.949 . S
C1310 C1314 1.368 . S
C1311 C1292 1.429 . S
C1311 C1305 1.429 . S
C1311 C1312 1.523 . S
C1312 C1293 1.368 . S
C1312 C1306 1.368 . S
C1312 C1311 1.523 . S
C1313 C1297 1.429 . S
C1313 C1309 1.429 . S
C1313 C1314 1.523 . S
C1314 C1298 1.368 . S
C1314 C1310 1.368 . S
C1314 C1313 1.523 . S
H1315 C1290 0.950 . S
H1316 C1292 0.950 . S
H1317 C1293 0.949 . S
H1318 C1295 0.950 . S
H1319 C1297 0.950 . S
C1320 C1321 1.349 . S
C1320 C1322 1.327 . S
C1320 H1345 0.950 . S
C1321 C1320 1.349 . S
C1321 C1337 1.349 . S
C1322 C1320 1.327 . S
C1322 C1341 1.429 . S
C1322 H1346 0.950 . S
C1323 C1340 1.574 . S
C1323 C1342 1.368 . S
C1323 H1347 0.949 . S
H1324 C1328 0.949 . S
C1325 C1326 1.349 . S
C1325 C1327 1.327 . S
C1325 H1348 0.950 . S
C1326 C1325 1.349 . S
C1326 C1338 1.349 . S
C1327 C1325 1.327 . S
C1327 C1343 1.429 . S
C1327 H1349 0.950 . S
C1328 H1324 0.949 . S
C1328 C1336 1.574 . S
C1328 C1344 1.368 . S
H1329 C1337 0.950 . S
H1330 C1335 0.950 . S
H1331 C1336 0.949 . S
H1332 C1338 0.950 . S
H1333 C1339 0.950 . S
H1334 C1340 0.949 . S
C1335 H1330 0.950 . S
C1335 C1337 1.327 . S
C1335 C1341 1.429 . S
C1336 C1328 1.574 . S
C1336 H1331 0.949 . S
C1336 C1342 1.368 . S
C1337 C1321 1.349 . S
C1337 H1329 0.950 . S
C1337 C1335 1.327 . S
C1338 C1326 1.349 . S
C1338 H1332 0.950 . S
C1338 C1339 1.327 . S
C1339 H1333 0.950 . S
C1339 C1338 1.327 . S
C1339 C1343 1.429 . S
C1340 C1323 1.574 . S
C1340 H1334 0.949 . S
C1340 C1344 1.368 . S
C1341 C1322 1.429 . S
C1341 C1335 1.429 . S
C1341 C1342 1.523 . S
C1342 C1323 1.368 . S
C1342 C1336 1.368 . S
C1342 C1341 1.523 . S
C1343 C1327 1.429 . S
C1343 C1339 1.429 . S
C1343 C1344 1.523 . S
C1344 C1328 1.368 . S
C1344 C1340 1.368 . S
C1344 C1343 1.523 . S
H1345 C1320 0.950 . S
H1346 C1322 0.950 . S
H1347 C1323 0.949 . S
H1348 C1325 0.950 . S
H1349 C1327 0.950 . S
C1350 C1351 1.349 . S
C1350 C1352 1.327 . S
C1350 H1375 0.950 . S
C1351 C1350 1.349 . S
C1351 C1367 1.349 . S
C1352 C1350 1.327 . S
C1352 C1371 1.429 . S
C1352 H1376 0.950 . S
C1353 C1370 1.574 . S
C1353 C1372 1.368 . S
C1353 H1377 0.949 . S
H1354 C1358 0.949 . S
C1355 C1356 1.349 . S
C1355 C1357 1.327 . S
C1355 H1378 0.950 . S
C1356 C1355 1.349 . S
C1356 C1368 1.349 . S
C1357 C1355 1.327 . S
C1357 C1373 1.429 . S
C1357 H1379 0.950 . S
C1358 H1354 0.949 . S
C1358 C1366 1.574 . S
C1358 C1374 1.368 . S
H1359 C1367 0.950 . S
H1360 C1365 0.950 . S
H1361 C1366 0.949 . S
H1362 C1368 0.950 . S
H1363 C1369 0.950 . S
H1364 C1370 0.949 . S
C1365 H1360 0.950 . S
C1365 C1367 1.327 . S
C1365 C1371 1.429 . S
C1366 C1358 1.574 . S
C1366 H1361 0.949 . S
C1366 C1372 1.368 . S
C1367 C1351 1.349 . S
C1367 H1359 0.950 . S
C1367 C1365 1.327 . S
C1368 C1356 1.349 . S
C1368 H1362 0.950 . S
C1368 C1369 1.327 . S
C1369 H1363 0.950 . S
C1369 C1368 1.327 . S
C1369 C1373 1.429 . S
C1370 C1353 1.574 . S
C1370 H1364 0.949 . S
C1370 C1374 1.368 . S
C1371 C1352 1.429 . S
C1371 C1365 1.429 . S
C1371 C1372 1.523 . S
C1372 C1353 1.368 . S
C1372 C1366 1.368 . S
C1372 C1371 1.523 . S
C1373 C1357 1.429 . S
C1373 C1369 1.429 . S
C1373 C1374 1.523 . S
C1374 C1358 1.368 . S
C1374 C1370 1.368 . S
C1374 C1373 1.523 . S
H1375 C1350 0.950 . S
H1376 C1352 0.950 . S
H1377 C1353 0.949 . S
H1378 C1355 0.950 . S
H1379 C1357 0.950 . S
C1380 C1381 1.349 . S
C1380 C1382 1.327 . S
C1380 H1405 0.950 . S
C1381 C1380 1.349 . S
C1381 C1397 1.349 . S
C1382 C1380 1.327 . S
C1382 C1401 1.429 . S
C1382 H1406 0.950 . S
C1383 C1400 1.574 . S
C1383 C1402 1.368 . S
C1383 H1407 0.949 . S
H1384 C1388 0.949 . S
C1385 C1386 1.349 . S
C1385 C1387 1.327 . S
C1385 H1408 0.950 . S
C1386 C1385 1.349 . S
C1386 C1398 1.349 . S
C1387 C1385 1.327 . S
C1387 C1403 1.429 . S
C1387 H1409 0.950 . S
C1388 H1384 0.949 . S
C1388 C1396 1.574 . S
C1388 C1404 1.368 . S
H1389 C1397 0.950 . S
H1390 C1395 0.950 . S
H1391 C1396 0.949 . S
H1392 C1398 0.950 . S
H1393 C1399 0.950 . S
H1394 C1400 0.949 . S
C1395 H1390 0.950 . S
C1395 C1397 1.327 . S
C1395 C1401 1.429 . S
C1396 C1388 1.574 . S
C1396 H1391 0.949 . S
C1396 C1402 1.368 . S
C1397 C1381 1.349 . S
C1397 H1389 0.950 . S
C1397 C1395 1.327 . S
C1398 C1386 1.349 . S
C1398 H1392 0.950 . S
C1398 C1399 1.327 . S
C1399 H1393 0.950 . S
C1399 C1398 1.327 . S
C1399 C1403 1.429 . S
C1400 C1383 1.574 . S
C1400 H1394 0.949 . S
C1400 C1404 1.368 . S
C1401 C1382 1.429 . S
C1401 C1395 1.429 . S
C1401 C1402 1.523 . S
C1402 C1383 1.368 . S
C1402 C1396 1.368 . S
C1402 C1401 1.523 . S
C1403 C1387 1.429 . S
C1403 C1399 1.429 . S
C1403 C1404 1.523 . S
C1404 C1388 1.368 . S
C1404 C1400 1.368 . S
C1404 C1403 1.523 . S
H1405 C1380 0.950 . S
H1406 C1382 0.950 . S
H1407 C1383 0.949 . S
H1408 C1385 0.950 . S
H1409 C1387 0.950 . S
C1410 C1411 1.349 . S
C1410 C1412 1.327 . S
C1410 H1435 0.950 . S
C1411 C1410 1.349 . S
C1411 C1427 1.349 . S
C1412 C1410 1.327 . S
C1412 C1431 1.429 . S
C1412 H1436 0.950 . S
C1413 C1430 1.574 . S
C1413 C1432 1.368 . S
C1413 H1437 0.949 . S
H1414 C1418 0.949 . S
C1415 C1416 1.349 . S
C1415 C1417 1.327 . S
C1415 H1438 0.950 . S
C1416 C1415 1.349 . S
C1416 C1428 1.349 . S
C1417 C1415 1.327 . S
C1417 C1433 1.429 . S
C1417 H1439 0.950 . S
C1418 H1414 0.949 . S
C1418 C1426 1.574 . S
C1418 C1434 1.368 . S
H1419 C1427 0.950 . S
H1420 C1425 0.950 . S
H1421 C1426 0.949 . S
H1422 C1428 0.950 . S
H1423 C1429 0.950 . S
H1424 C1430 0.949 . S
C1425 H1420 0.950 . S
C1425 C1427 1.327 . S
C1425 C1431 1.429 . S
C1426 C1418 1.574 . S
C1426 H1421 0.949 . S
C1426 C1432 1.368 . S
C1427 C1411 1.349 . S
C1427 H1419 0.950 . S
C1427 C1425 1.327 . S
C1428 C1416 1.349 . S
C1428 H1422 0.950 . S
C1428 C1429 1.327 . S
C1429 H1423 0.950 . S
C1429 C1428 1.327 . S
C1429 C1433 1.429 . S
C1430 C1413 1.574 . S
C1430 H1424 0.949 . S
C1430 C1434 1.368 . S
C1431 C1412 1.429 . S
C1431 C1425 1.429 . S
C1431 C1432 1.523 . S
C1432 C1413 1.368 . S
C1432 C1426 1.368 . S
C1432 C1431 1.523 . S
C1433 C1417 1.429 . S
C1433 C1429 1.429 . S
C1433 C1434 1.523 . S
C1434 C1418 1.368 . S
C1434 C1430 1.368 . S
C1434 C1433 1.523 . S
H1435 C1410 0.950 . S
H1436 C1412 0.950 . S
H1437 C1413 0.949 . S
H1438 C1415 0.950 . S
H1439 C1417 0.950 . S
C1440 C1441 1.349 . S
C1440 C1442 1.327 . S
C1440 H1465 0.950 . S
C1441 C1440 1.349 . S
C1441 C1457 1.349 . S
C1442 C1440 1.327 . S
C1442 C1461 1.429 . S
C1442 H1466 0.950 . S
C1443 C1460 1.574 . S
C1443 C1462 1.368 . S
C1443 H1467 0.949 . S
H1444 C1448 0.949 . S
C1445 C1446 1.349 . S
C1445 C1447 1.327 . S
C1445 H1468 0.950 . S
C1446 C1445 1.349 . S
C1446 C1458 1.349 . S
C1447 C1445 1.327 . S
C1447 C1463 1.429 . S
C1447 H1469 0.950 . S
C1448 H1444 0.949 . S
C1448 C1456 1.574 . S
C1448 C1464 1.368 . S
H1449 C1457 0.950 . S
H1450 C1455 0.950 . S
H1451 C1456 0.949 . S
H1452 C1458 0.950 . S
H1453 C1459 0.950 . S
H1454 C1460 0.949 . S
C1455 H1450 0.950 . S
C1455 C1457 1.327 . S
C1455 C1461 1.429 . S
C1456 C1448 1.574 . S
C1456 H1451 0.949 . S
C1456 C1462 1.368 . S
C1457 C1441 1.349 . S
C1457 H1449 0.950 . S
C1457 C1455 1.327 . S
C1458 C1446 1.349 . S
C1458 H1452 0.950 . S
C1458 C1459 1.327 . S
C1459 H1453 0.950 . S
C1459 C1458 1.327 . S
C1459 C1463 1.429 . S
C1460 C1443 1.574 . S
C1460 H1454 0.949 . S
C1460 C1464 1.368 . S
C1461 C1442 1.429 . S
C1461 C1455 1.429 . S
C1461 C1462 1.523 . S
C1462 C1443 1.368 . S
C1462 C1456 1.368 . S
C1462 C1461 1.523 . S
C1463 C1447 1.429 . S
C1463 C1459 1.429 . S
C1463 C1464 1.523 . S
C1464 C1448 1.368 . S
C1464 C1460 1.368 . S
C1464 C1463 1.523 . S
H1465 C1440 0.950 . S
H1466 C1442 0.950 . S
H1467 C1443 0.949 . S
H1468 C1445 0.950 . S
H1469 C1447 0.950 . S
C1470 C1471 1.349 . S
C1470 C1472 1.327 . S
C1470 H1495 0.950 . S
C1471 C1470 1.349 . S
C1471 C1487 1.349 . S
C1472 C1470 1.327 . S
C1472 C1491 1.429 . S
C1472 H1496 0.950 . S
C1473 C1490 1.574 . S
C1473 C1492 1.368 . S
C1473 H1497 0.949 . S
H1474 C1478 0.949 . S
C1475 C1476 1.349 . S
C1475 C1477 1.327 . S
C1475 H1498 0.950 . S
C1476 C1475 1.349 . S
C1476 C1488 1.349 . S
C1477 C1475 1.327 . S
C1477 C1493 1.429 . S
C1477 H1499 0.950 . S
C1478 H1474 0.949 . S
C1478 C1486 1.574 . S
C1478 C1494 1.368 . S
H1479 C1487 0.950 . S
H1480 C1485 0.950 . S
H1481 C1486 0.949 . S
H1482 C1488 0.950 . S
H1483 C1489 0.950 . S
H1484 C1490 0.949 . S
C1485 H1480 0.950 . S
C1485 C1487 1.327 . S
C1485 C1491 1.429 . S
C1486 C1478 1.574 . S
C1486 H1481 0.949 . S
C1486 C1492 1.368 . S
C1487 C1471 1.349 . S
C1487 H1479 0.950 . S
C1487 C1485 1.327 . S
C1488 C1476 1.349 . S
C1488 H1482 0.950 . S
C1488 C1489 1.327 . S
C1489 H1483 0.950 . S
C1489 C1488 1.327 . S
C1489 C1493 1.429 . S
C1490 C1473 1.574 . S
C1490 H1484 0.949 . S
C1490 C1494 1.368 . S
C1491 C1472 1.429 . S
C1491 C1485 1.429 . S
C1491 C1492 1.523 . S
C1492 C1473 1.368 . S
C1492 C1486 1.368 . S
C1492 C1491 1.523 . S
C1493 C1477 1.429 . S
C1493 C1489 1.429 . S
C1493 C1494 1.523 . S
C1494 C1478 1.368 . S
C1494 C1490 1.368 . S
C1494 C1493 1.523 . S
H1495 C1470 0.950 . S
H1496 C1472 0.950 . S
H1497 C1473 0.949 . S
H1498 C1475 0.950 . S
H1499 C1477 0.950 . S
C1500 C1501 1.349 . S
C1500 C1502 1.327 . S
C1500 H1525 0.950 . S
C1501 C1500 1.349 . S
C1501 C1517 1.349 . S
C1502 C1500 1.327 . S
C1502 C1521 1.429 . S
C1502 H1526 0.950 . S
C1503 C1520 1.574 . S
C1503 C1522 1.368 . S
C1503 H1527 0.949 . S
H1504 C1508 0.949 . S
C1505 C1506 1.349 . S
C1505 C1507 1.327 . S
C1505 H1528 0.950 . S
C1506 C1505 1.349 . S
C1506 C1518 1.349 . S
C1507 C1505 1.327 . S
C1507 C1523 1.429 . S
C1507 H1529 0.950 . S
C1508 H1504 0.949 . S
C1508 C1516 1.574 . S
C1508 C1524 1.368 . S
H1509 C1517 0.950 . S
H1510 C1515 0.950 . S
H1511 C1516 0.949 . S
H1512 C1518 0.950 . S
H1513 C1519 0.950 . S
H1514 C1520 0.949 . S
C1515 H1510 0.950 . S
C1515 C1517 1.327 . S
C1515 C1521 1.429 . S
C1516 C1508 1.574 . S
C1516 H1511 0.949 . S
C1516 C1522 1.368 . S
C1517 C1501 1.349 . S
C1517 H1509 0.950 . S
C1517 C1515 1.327 . S
C1518 C1506 1.349 . S
C1518 H1512 0.950 . S
C1518 C1519 1.327 . S
C1519 H1513 0.950 . S
C1519 C1518 1.327 . S
C1519 C1523 1.429 . S
C1520 C1503 1.574 . S
C1520 H1514 0.949 . S
C1520 C1524 1.368 . S
C1521 C1502 1.429 . S
C1521 C1515 1.429 . S
C1521 C1522 1.523 . S
C1522 C1503 1.368 . S
C1522 C1516 1.368 . S
C1522 C1521 1.523 . S
C1523 C1507 1.429 . S
C1523 C1519 1.429 . S
C1523 C1524 1.523 . S
C1524 C1508 1.368 . S
C1524 C1520 1.368 . S
C1524 C1523 1.523 . S
H1525 C1500 0.950 . S
H1526 C1502 0.950 . S
H1527 C1503 0.949 . S
H1528 C1505 0.950 . S
H1529 C1507 0.950 . S
C1530 C1531 1.349 . S
C1530 C1532 1.327 . S
C1530 H1555 0.950 . S
C1531 C1530 1.349 . S
C1531 C1547 1.349 . S
C1532 C1530 1.327 . S
C1532 C1551 1.429 . S
C1532 H1556 0.950 . S
C1533 C1550 1.574 . S
C1533 C1552 1.368 . S
C1533 H1557 0.949 . S
H1534 C1538 0.949 . S
C1535 C1536 1.349 . S
C1535 C1537 1.327 . S
C1535 H1558 0.950 . S
C1536 C1535 1.349 . S
C1536 C1548 1.350 1_554 S
C1537 C1535 1.327 . S
C1537 C1553 1.429 . S
C1537 H1559 0.950 . S
C1538 H1534 0.949 . S
C1538 C1546 1.574 . S
C1538 C1554 1.368 . S
H1539 C1547 0.950 . S
H1540 C1545 0.950 . S
H1541 C1546 0.949 . S
H1542 C1548 0.939 . S
H1543 C1549 0.950 . S
H1544 C1550 0.949 . S
C1545 H1540 0.950 . S
C1545 C1547 1.327 . S
C1545 C1551 1.429 . S
C1546 C1538 1.574 . S
C1546 H1541 0.949 . S
C1546 C1552 1.368 . S
C1547 C1531 1.349 . S
C1547 H1539 0.950 . S
C1547 C1545 1.327 . S
C1548 C1536 1.350 1_556 S
C1548 H1542 0.939 . S
C1548 C1549 1.336 1_556 S
C1549 H1543 0.950 . S
C1549 C1548 1.336 1_554 S
C1549 C1553 1.429 . S
C1550 C1533 1.574 . S
C1550 H1544 0.949 . S
C1550 C1554 1.368 . S
C1551 C1532 1.429 . S
C1551 C1545 1.429 . S
C1551 C1552 1.523 . S
C1552 C1533 1.368 . S
C1552 C1546 1.368 . S
C1552 C1551 1.523 . S
C1553 C1537 1.429 . S
C1553 C1549 1.429 . S
C1553 C1554 1.523 . S
C1554 C1538 1.368 . S
C1554 C1550 1.368 . S
C1554 C1553 1.523 . S
H1555 C1530 0.950 . S
H1556 C1532 0.950 . S
H1557 C1533 0.949 . S
H1558 C1535 0.950 . S
H1559 C1537 0.950 . S
C1560 C1561 1.349 . S
C1560 C1562 1.327 . S
C1560 H1585 0.950 . S
C1561 C1560 1.349 . S
C1561 C1577 1.349 . S
C1562 C1560 1.327 . S
C1562 C1581 1.429 . S
C1562 H1586 0.950 . S
C1563 C1580 1.574 . S
C1563 C1582 1.368 . S
C1563 H1587 0.949 . S
H1564 C1568 0.949 . S
C1565 C1566 1.349 . S
C1565 C1567 1.327 . S
C1565 H1588 0.950 . S
C1566 C1565 1.349 . S
C1566 C1578 1.349 . S
C1567 C1565 1.327 . S
C1567 C1583 1.429 . S
C1567 H1589 0.950 . S
C1568 H1564 0.949 . S
C1568 C1576 1.574 . S
C1568 C1584 1.368 . S
H1569 C1577 0.950 . S
H1570 C1575 0.950 . S
H1571 C1576 0.949 . S
H1572 C1578 0.950 1_556 S
H1573 C1579 0.950 . S
H1574 C1580 0.949 . S
C1575 H1570 0.950 . S
C1575 C1577 1.327 . S
C1575 C1581 1.429 . S
C1576 C1568 1.574 . S
C1576 H1571 0.949 . S
C1576 C1582 1.368 . S
C1577 C1561 1.349 . S
C1577 H1569 0.950 . S
C1577 C1575 1.327 . S
C1578 C1566 1.349 . S
C1578 H1572 0.950 1_554 S
C1578 C1579 1.327 . S
C1579 H1573 0.950 . S
C1579 C1578 1.327 . S
C1579 C1583 1.429 . S
C1580 C1563 1.574 . S
C1580 H1574 0.949 . S
C1580 C1584 1.368 . S
C1581 C1562 1.429 . S
C1581 C1575 1.429 . S
C1581 C1582 1.523 . S
C1582 C1563 1.368 . S
C1582 C1576 1.368 . S
C1582 C1581 1.523 . S
C1583 C1567 1.429 . S
C1583 C1579 1.429 . S
C1583 C1584 1.523 . S
C1584 C1568 1.368 . S
C1584 C1580 1.368 . S
C1584 C1583 1.523 . S
H1585 C1560 0.950 . S
H1586 C1562 0.950 . S
H1587 C1563 0.949 . S
H1588 C1565 0.950 . S
H1589 C1567 0.950 . S
C1590 C1591 1.349 . S
C1590 C1592 1.327 . S
C1590 H1615 0.950 . S
C1591 C1590 1.349 . S
C1591 C1607 1.349 . S
C1592 C1590 1.327 . S
C1592 C1611 1.429 . S
C1592 H1616 0.950 . S
C1593 C1610 1.574 . S
C1593 C1612 1.368 . S
C1593 H1617 0.949 . S
H1594 C1598 0.949 . S
C1595 C1596 1.349 . S
C1595 C1597 1.327 . S
C1595 H1618 0.950 . S
C1596 C1595 1.349 . S
C1596 C1608 1.354 . S
C1597 C1595 1.327 . S
C1597 C1613 1.429 . S
C1597 H1619 0.950 . S
C1598 H1594 0.949 . S
C1598 C1606 1.574 . S
C1598 C1614 1.368 . S
H1599 C1607 0.950 . S
H1600 C1605 0.950 . S
H1601 C1606 0.949 . S
H1602 C1608 0.923 1_556 S
H1603 C1609 0.950 . S
H1604 C1610 0.949 . S
C1605 H1600 0.950 . S
C1605 C1607 1.327 . S
C1605 C1611 1.429 . S
C1606 C1598 1.574 . S
C1606 H1601 0.949 . S
C1606 C1612 1.368 . S
C1607 C1591 1.349 . S
C1607 H1599 0.950 . S
C1607 C1605 1.327 . S
C1608 C1596 1.354 . S
C1608 H1602 0.923 1_554 S
C1608 C1609 1.350 . S
C1609 H1603 0.950 . S
C1609 C1608 1.350 . S
C1609 C1613 1.429 . S
C1610 C1593 1.574 . S
C1610 H1604 0.949 . S
C1610 C1614 1.368 . S
C1611 C1592 1.429 . S
C1611 C1605 1.429 . S
C1611 C1612 1.523 . S
C1612 C1593 1.368 . S
C1612 C1606 1.368 . S
C1612 C1611 1.523 . S
C1613 C1597 1.429 . S
C1613 C1609 1.429 . S
C1613 C1614 1.523 . S
C1614 C1598 1.368 . S
C1614 C1610 1.368 . S
C1614 C1613 1.523 . S
H1615 C1590 0.950 . S
H1616 C1592 0.950 . S
H1617 C1593 0.949 . S
H1618 C1595 0.950 . S
H1619 C1597 0.950 . S
C1620 C1621 1.349 . S
C1620 C1622 1.327 . S
C1620 H1645 0.950 . S
C1621 C1620 1.349 . S
C1621 C1637 1.349 . S
C1622 C1620 1.327 . S
C1622 C1641 1.429 . S
C1622 H1646 0.950 . S
C1623 C1640 1.574 . S
C1623 C1642 1.368 . S
C1623 H1647 0.949 . S
H1624 C1628 0.949 . S
C1625 C1626 1.349 . S
C1625 C1627 1.327 . S
C1625 H1648 0.950 . S
C1626 C1625 1.349 . S
C1626 C1638 1.349 . S
C1627 C1625 1.327 . S
C1627 C1643 1.429 . S
C1627 H1649 0.950 . S
C1628 H1624 0.949 . S
C1628 C1636 1.574 . S
C1628 C1644 1.368 . S
H1629 C1637 0.950 . S
H1630 C1635 0.950 . S
H1631 C1636 0.949 . S
H1632 C1638 0.950 . S
H1633 C1639 0.950 . S
H1634 C1640 0.949 . S
C1635 H1630 0.950 . S
C1635 C1637 1.327 . S
C1635 C1641 1.429 . S
C1636 C1628 1.574 . S
C1636 H1631 0.949 . S
C1636 C1642 1.368 . S
C1637 C1621 1.349 . S
C1637 H1629 0.950 . S
C1637 C1635 1.327 . S
C1638 C1626 1.349 . S
C1638 H1632 0.950 . S
C1638 C1639 1.327 . S
C1639 H1633 0.950 . S
C1639 C1638 1.327 . S
C1639 C1643 1.429 . S
C1640 C1623 1.574 . S
C1640 H1634 0.949 . S
C1640 C1644 1.368 . S
C1641 C1622 1.429 . S
C1641 C1635 1.429 . S
C1641 C1642 1.523 . S
C1642 C1623 1.368 . S
C1642 C1636 1.368 . S
C1642 C1641 1.523 . S
C1643 C1627 1.429 . S
C1643 C1639 1.429 . S
C1643 C1644 1.523 . S
C1644 C1628 1.368 . S
C1644 C1640 1.368 . S
C1644 C1643 1.523 . S
H1645 C1620 0.950 . S
H1646 C1622 0.950 . S
H1647 C1623 0.949 . S
H1648 C1625 0.950 . S
H1649 C1627 0.950 . S
C1650 C1651 1.349 . S
C1650 C1652 1.327 . S
C1650 H1675 0.950 . S
C1651 C1650 1.349 . S
C1651 C1667 1.349 . S
C1652 C1650 1.327 . S
C1652 C1671 1.429 . S
C1652 H1676 0.950 . S
C1653 C1670 1.574 . S
C1653 C1672 1.368 . S
C1653 H1677 0.949 . S
H1654 C1658 0.949 . S
C1655 C1656 1.349 . S
C1655 C1657 1.327 . S
C1655 H1678 0.950 . S
C1656 C1655 1.349 . S
C1656 C1668 1.349 . S
C1657 C1655 1.327 . S
C1657 C1673 1.429 . S
C1657 H1679 0.950 . S
C1658 H1654 0.949 . S
C1658 C1666 1.574 . S
C1658 C1674 1.368 . S
H1659 C1667 0.950 . S
H1660 C1665 0.950 . S
H1661 C1666 0.949 . S
H1662 C1668 0.950 . S
H1663 C1669 0.950 . S
H1664 C1670 0.949 . S
C1665 H1660 0.950 . S
C1665 C1667 1.327 . S
C1665 C1671 1.429 . S
C1666 C1658 1.574 . S
C1666 H1661 0.949 . S
C1666 C1672 1.368 . S
C1667 C1651 1.349 . S
C1667 H1659 0.950 . S
C1667 C1665 1.327 . S
C1668 C1656 1.349 . S
C1668 H1662 0.950 . S
C1668 C1669 1.327 . S
C1669 H1663 0.950 . S
C1669 C1668 1.327 . S
C1669 C1673 1.429 . S
C1670 C1653 1.574 . S
C1670 H1664 0.949 . S
C1670 C1674 1.368 . S
C1671 C1652 1.429 . S
C1671 C1665 1.429 . S
C1671 C1672 1.523 . S
C1672 C1653 1.368 . S
C1672 C1666 1.368 . S
C1672 C1671 1.523 . S
C1673 C1657 1.429 . S
C1673 C1669 1.429 . S
C1673 C1674 1.523 . S
C1674 C1658 1.368 . S
C1674 C1670 1.368 . S
C1674 C1673 1.523 . S
H1675 C1650 0.950 . S
H1676 C1652 0.950 . S
H1677 C1653 0.949 . S
H1678 C1655 0.950 . S
H1679 C1657 0.950 . S
C1680 C1681 1.349 . S
C1680 C1682 1.327 . S
C1680 H1705 0.950 . S
C1681 C1680 1.349 . S
C1681 C1697 1.349 . S
C1682 C1680 1.327 . S
C1682 C1701 1.429 . S
C1682 H1706 0.950 . S
C1683 C1700 1.574 . S
C1683 C1702 1.368 . S
C1683 H1707 0.949 . S
H1684 C1688 0.949 . S
C1685 C1686 1.349 . S
C1685 C1687 1.327 . S
C1685 H1708 0.950 . S
C1686 C1685 1.349 . S
C1686 C1698 1.349 . S
C1687 C1685 1.327 . S
C1687 C1703 1.429 . S
C1687 H1709 0.950 . S
C1688 H1684 0.949 . S
C1688 C1696 1.574 . S
C1688 C1704 1.368 . S
H1689 C1697 0.950 . S
H1690 C1695 0.950 . S
H1691 C1696 0.949 . S
H1692 C1698 0.950 . S
H1693 C1699 0.950 . S
H1694 C1700 0.949 . S
C1695 H1690 0.950 . S
C1695 C1697 1.327 . S
C1695 C1701 1.429 . S
C1696 C1688 1.574 . S
C1696 H1691 0.949 . S
C1696 C1702 1.368 . S
C1697 C1681 1.349 . S
C1697 H1689 0.950 . S
C1697 C1695 1.327 . S
C1698 C1686 1.349 . S
C1698 H1692 0.950 . S
C1698 C1699 1.327 . S
C1699 H1693 0.950 . S
C1699 C1698 1.327 . S
C1699 C1703 1.429 . S
C1700 C1683 1.574 . S
C1700 H1694 0.949 . S
C1700 C1704 1.368 . S
C1701 C1682 1.429 . S
C1701 C1695 1.429 . S
C1701 C1702 1.523 . S
C1702 C1683 1.368 . S
C1702 C1696 1.368 . S
C1702 C1701 1.523 . S
C1703 C1687 1.429 . S
C1703 C1699 1.429 . S
C1703 C1704 1.523 . S
C1704 C1688 1.368 . S
C1704 C1700 1.368 . S
C1704 C1703 1.523 . S
H1705 C1680 0.950 . S
H1706 C1682 0.950 . S
H1707 C1683 0.949 . S
H1708 C1685 0.950 . S
H1709 C1687 0.950 . S
C1710 C1711 1.349 . S
C1710 C1712 1.327 . S
C1710 H1735 0.950 . S
C1711 C1710 1.349 . S
C1711 C1727 1.349 . S
C1712 C1710 1.327 . S
C1712 C1731 1.429 . S
C1712 H1736 0.950 . S
C1713 C1730 1.574 . S
C1713 C1732 1.368 . S
C1713 H1737 0.949 . S
H1714 C1718 0.949 . S
C1715 C1716 1.349 . S
C1715 C1717 1.327 . S
C1715 H1738 0.891 1_556 S
C1716 C1715 1.349 . S
C1716 C1728 1.349 . S
C1717 C1715 1.327 . S
C1717 C1733 1.429 . S
C1717 H1739 0.950 . S
C1718 H1714 0.949 . S
C1718 C1726 1.574 . S
C1718 C1734 1.368 . S
H1719 C1727 0.950 . S
H1720 C1725 0.950 . S
H1721 C1726 0.949 . S
H1722 C1728 0.950 . S
H1723 C1729 0.950 . S
H1724 C1730 0.949 . S
C1725 H1720 0.950 . S
C1725 C1727 1.327 . S
C1725 C1731 1.429 . S
C1726 C1718 1.574 . S
C1726 H1721 0.949 . S
C1726 C1732 1.368 . S
C1727 C1711 1.349 . S
C1727 H1719 0.950 . S
C1727 C1725 1.327 . S
C1728 C1716 1.349 . S
C1728 H1722 0.950 . S
C1728 C1729 1.327 . S
C1729 H1723 0.950 . S
C1729 C1728 1.327 . S
C1729 C1733 1.429 . S
C1730 C1713 1.574 . S
C1730 H1724 0.949 . S
C1730 C1734 1.368 . S
C1731 C1712 1.429 . S
C1731 C1725 1.429 . S
C1731 C1732 1.523 . S
C1732 C1713 1.368 . S
C1732 C1726 1.368 . S
C1732 C1731 1.523 . S
C1733 C1717 1.429 . S
C1733 C1729 1.429 . S
C1733 C1734 1.523 . S
C1734 C1718 1.368 . S
C1734 C1730 1.368 . S
C1734 C1733 1.523 . S
H1735 C1710 0.950 . S
H1736 C1712 0.950 . S
H1737 C1713 0.949 . S
H1738 C1715 0.891 1_554 S
H1739 C1717 0.950 . S
C1740 C1741 1.349 . S
C1740 C1742 1.327 . S
C1740 H1765 0.950 . S
C1741 C1740 1.349 . S
C1741 C1757 1.349 . S
C1742 C1740 1.327 . S
C1742 C1761 1.429 . S
C1742 H1766 0.950 . S
C1743 C1760 1.574 . S
C1743 C1762 1.368 . S
C1743 H1767 0.949 . S
H1744 C1748 0.949 . S
C1745 C1746 1.349 . S
C1745 C1747 1.327 . S
C1745 H1768 0.950 . S
C1746 C1745 1.349 . S
C1746 C1758 1.351 . S
C1747 C1745 1.327 . S
C1747 C1763 1.429 . S
C1747 H1769 0.950 . S
C1748 H1744 0.949 . S
C1748 C1756 1.574 . S
C1748 C1764 1.368 . S
H1749 C1757 0.950 . S
H1750 C1755 0.950 . S
H1751 C1756 0.949 . S
H1752 C1758 0.940 1_554 S
H1753 C1759 0.950 . S
H1754 C1760 0.949 . S
C1755 H1750 0.950 . S
C1755 C1757 1.327 . S
C1755 C1761 1.429 . S
C1756 C1748 1.574 . S
C1756 H1751 0.949 . S
C1756 C1762 1.368 . S
C1757 C1741 1.349 . S
C1757 H1749 0.950 . S
C1757 C1755 1.327 . S
C1758 C1746 1.351 . S
C1758 H1752 0.940 1_556 S
C1758 C1759 1.335 . S
C1759 H1753 0.950 . S
C1759 C1758 1.335 . S
C1759 C1763 1.429 . S
C1760 C1743 1.574 . S
C1760 H1754 0.949 . S
C1760 C1764 1.368 . S
C1761 C1742 1.429 . S
C1761 C1755 1.429 . S
C1761 C1762 1.523 . S
C1762 C1743 1.368 . S
C1762 C1756 1.368 . S
C1762 C1761 1.523 . S
C1763 C1747 1.429 . S
C1763 C1759 1.429 . S
C1763 C1764 1.523 . S
C1764 C1748 1.368 . S
C1764 C1760 1.368 . S
C1764 C1763 1.523 . S
H1765 C1740 0.950 . S
H1766 C1742 0.950 . S
H1767 C1743 0.949 . S
H1768 C1745 0.950 . S
H1769 C1747 0.950 . S
C1770 C1771 1.349 . S
C1770 C1772 1.327 . S
C1770 H1795 0.950 . S
C1771 C1770 1.349 . S
C1771 C1787 1.349 . S
C1772 C1770 1.327 . S
C1772 C1791 1.429 . S
C1772 H1796 0.950 . S
C1773 C1790 1.574 . S
C1773 C1792 1.368 . S
C1773 H1797 0.949 . S
H1774 C1778 0.949 . S
C1775 C1776 1.349 . S
C1775 C1777 1.327 . S
C1775 H1798 0.950 . S
C1776 C1775 1.349 . S
C1776 C1788 1.349 1_556 S
C1777 C1775 1.327 . S
C1777 C1793 1.429 . S
C1777 H1799 0.950 . S
C1778 H1774 0.949 . S
C1778 C1786 1.574 . S
C1778 C1794 1.368 . S
H1779 C1787 0.950 . S
H1780 C1785 0.950 . S
H1781 C1786 0.949 . S
H1782 C1788 0.950 . S
H1783 C1789 0.950 . S
H1784 C1790 0.949 . S
C1785 H1780 0.950 . S
C1785 C1787 1.327 . S
C1785 C1791 1.429 . S
C1786 C1778 1.574 . S
C1786 H1781 0.949 . S
C1786 C1792 1.368 . S
C1787 C1771 1.349 . S
C1787 H1779 0.950 . S
C1787 C1785 1.327 . S
C1788 C1776 1.349 1_554 S
C1788 H1782 0.950 . S
C1788 C1789 1.327 1_554 S
C1789 H1783 0.950 . S
C1789 C1788 1.327 1_556 S
C1789 C1793 1.429 . S
C1790 C1773 1.574 . S
C1790 H1784 0.949 . S
C1790 C1794 1.368 . S
C1791 C1772 1.429 . S
C1791 C1785 1.429 . S
C1791 C1792 1.523 . S
C1792 C1773 1.368 . S
C1792 C1786 1.368 . S
C1792 C1791 1.523 . S
C1793 C1777 1.429 . S
C1793 C1789 1.429 . S
C1793 C1794 1.523 . S
C1794 C1778 1.368 . S
C1794 C1790 1.368 . S
C1794 C1793 1.523 . S
H1795 C1770 0.950 . S
H1796 C1772 0.950 . S
H1797 C1773 0.949 . S
H1798 C1775 0.950 . S
H1799 C1777 0.950 . S
C1800 C1801 1.349 . S
C1800 C1802 1.327 . S
C1800 H1825 0.950 . S
C1801 C1800 1.349 . S
C1801 C1817 1.349 . S
C1802 C1800 1.327 . S
C1802 C1821 1.429 . S
C1802 H1826 0.950 . S
C1803 C1820 1.574 . S
C1803 C1822 1.368 . S
C1803 H1827 0.949 . S
H1804 C1808 0.949 . S
C1805 C1806 1.349 . S
C1805 C1807 1.327 . S
C1805 H1828 0.950 . S
C1806 C1805 1.349 . S
C1806 C1818 1.349 . S
C1807 C1805 1.327 . S
C1807 C1823 1.429 . S
C1807 H1829 0.950 . S
C1808 H1804 0.949 . S
C1808 C1816 1.574 . S
C1808 C1824 1.368 . S
H1809 C1817 0.950 . S
H1810 C1815 0.950 . S
H1811 C1816 0.949 . S
H1812 C1818 0.950 . S
H1813 C1819 0.950 . S
H1814 C1820 0.949 . S
C1815 H1810 0.950 . S
C1815 C1817 1.327 . S
C1815 C1821 1.429 . S
C1816 C1808 1.574 . S
C1816 H1811 0.949 . S
C1816 C1822 1.368 . S
C1817 C1801 1.349 . S
C1817 H1809 0.950 . S
C1817 C1815 1.327 . S
C1818 C1806 1.349 . S
C1818 H1812 0.950 . S
C1818 C1819 1.327 . S
C1819 H1813 0.950 . S
C1819 C1818 1.327 . S
C1819 C1823 1.429 . S
C1820 C1803 1.574 . S
C1820 H1814 0.949 . S
C1820 C1824 1.368 . S
C1821 C1802 1.429 . S
C1821 C1815 1.429 . S
C1821 C1822 1.523 . S
C1822 C1803 1.368 . S
C1822 C1816 1.368 . S
C1822 C1821 1.523 . S
C1823 C1807 1.429 . S
C1823 C1819 1.429 . S
C1823 C1824 1.523 . S
C1824 C1808 1.368 . S
C1824 C1820 1.368 . S
C1824 C1823 1.523 . S
H1825 C1800 0.950 . S
H1826 C1802 0.950 . S
H1827 C1803 0.949 . S
H1828 C1805 0.950 . S
H1829 C1807 0.950 . S
C1830 C1831 1.349 . S
C1830 C1832 1.327 . S
C1830 H1855 0.950 . S
C1831 C1830 1.349 . S
C1831 C1847 1.349 . S
C1832 C1830 1.327 . S
C1832 C1851 1.429 . S
C1832 H1856 0.950 . S
C1833 C1850 1.574 . S
C1833 C1852 1.368 . S
C1833 H1857 0.949 . S
H1834 C1838 0.949 . S
C1835 C1836 1.349 . S
C1835 C1837 1.327 . S
C1835 H1858 0.950 . S
C1836 C1835 1.349 . S
C1836 C1848 1.349 . S
C1837 C1835 1.327 . S
C1837 C1853 1.429 . S
C1837 H1859 0.950 . S
C1838 H1834 0.949 . S
C1838 C1846 1.574 . S
C1838 C1854 1.368 . S
H1839 C1847 0.950 . S
H1840 C1845 0.950 . S
H1841 C1846 0.949 . S
H1842 C1848 0.950 . S
H1843 C1849 0.950 . S
H1844 C1850 0.949 . S
C1845 H1840 0.950 . S
C1845 C1847 1.327 . S
C1845 C1851 1.429 . S
C1846 C1838 1.574 . S
C1846 H1841 0.949 . S
C1846 C1852 1.368 . S
C1847 C1831 1.349 . S
C1847 H1839 0.950 . S
C1847 C1845 1.327 . S
C1848 C1836 1.349 . S
C1848 H1842 0.950 . S
C1848 C1849 1.327 . S
C1849 H1843 0.950 . S
C1849 C1848 1.327 . S
C1849 C1853 1.429 . S
C1850 C1833 1.574 . S
C1850 H1844 0.949 . S
C1850 C1854 1.368 . S
C1851 C1832 1.429 . S
C1851 C1845 1.429 . S
C1851 C1852 1.523 . S
C1852 C1833 1.368 . S
C1852 C1846 1.368 . S
C1852 C1851 1.523 . S
C1853 C1837 1.429 . S
C1853 C1849 1.429 . S
C1853 C1854 1.523 . S
C1854 C1838 1.368 . S
C1854 C1850 1.368 . S
C1854 C1853 1.523 . S
H1855 C1830 0.950 . S
H1856 C1832 0.950 . S
H1857 C1833 0.949 . S
H1858 C1835 0.950 . S
H1859 C1837 0.950 . S
C1860 C1861 1.349 . S
C1860 C1862 1.327 . S
C1860 H1885 0.950 . S
C1861 C1860 1.349 . S
C1861 C1877 1.349 . S
C1862 C1860 1.327 . S
C1862 C1881 1.429 . S
C1862 H1886 0.950 . S
C1863 C1880 1.574 . S
C1863 C1882 1.368 . S
C1863 H1887 0.949 . S
H1864 C1868 0.949 . S
C1865 C1866 1.349 . S
C1865 C1867 1.327 . S
C1865 H1888 0.950 . S
C1866 C1865 1.349 . S
C1866 C1878 1.349 . S
C1867 C1865 1.327 . S
C1867 C1883 1.429 . S
C1867 H1889 0.950 . S
C1868 H1864 0.949 . S
C1868 C1876 1.574 . S
C1868 C1884 1.368 . S
H1869 C1877 0.950 . S
H1870 C1875 0.950 . S
H1871 C1876 0.949 . S
H1872 C1878 0.950 . S
H1873 C1879 0.950 . S
H1874 C1880 0.949 . S
C1875 H1870 0.950 . S
C1875 C1877 1.327 . S
C1875 C1881 1.429 . S
C1876 C1868 1.574 . S
C1876 H1871 0.949 . S
C1876 C1882 1.368 . S
C1877 C1861 1.349 . S
C1877 H1869 0.950 . S
C1877 C1875 1.327 . S
C1878 C1866 1.349 . S
C1878 H1872 0.950 . S
C1878 C1879 1.327 . S
C1879 H1873 0.950 . S
C1879 C1878 1.327 . S
C1879 C1883 1.429 . S
C1880 C1863 1.574 . S
C1880 H1874 0.949 . S
C1880 C1884 1.368 . S
C1881 C1862 1.429 . S
C1881 C1875 1.429 . S
C1881 C1882 1.523 . S
C1882 C1863 1.368 . S
C1882 C1876 1.368 . S
C1882 C1881 1.523 . S
C1883 C1867 1.429 . S
C1883 C1879 1.429 . S
C1883 C1884 1.523 . S
C1884 C1868 1.368 . S
C1884 C1880 1.368 . S
C1884 C1883 1.523 . S
H1885 C1860 0.950 . S
H1886 C1862 0.950 . S
H1887 C1863 0.949 . S
H1888 C1865 0.950 . S
H1889 C1867 0.950 . S
C1890 C1891 1.349 . S
C1890 C1892 1.327 . S
C1890 H1915 0.950 . S
C1891 C1890 1.349 . S
C1891 C1907 1.349 . S
C1892 C1890 1.327 . S
C1892 C1911 1.429 . S
C1892 H1916 0.950 . S
C1893 C1910 1.574 . S
C1893 C1912 1.368 . S
C1893 H1917 0.949 . S
H1894 C1898 0.949 . S
C1895 C1896 1.349 . S
C1895 C1897 1.327 . S
C1895 H1918 0.950 . S
C1896 C1895 1.349 . S
C1896 C1908 1.349 . S
C1897 C1895 1.327 . S
C1897 C1913 1.429 . S
C1897 H1919 0.950 . S
C1898 H1894 0.949 . S
C1898 C1906 1.574 . S
C1898 C1914 1.368 . S
H1899 C1907 0.950 . S
H1900 C1905 0.950 . S
H1901 C1906 0.949 . S
H1902 C1908 0.950 . S
H1903 C1909 0.950 . S
H1904 C1910 0.949 . S
C1905 H1900 0.950 . S
C1905 C1907 1.327 . S
C1905 C1911 1.429 . S
C1906 C1898 1.574 . S
C1906 H1901 0.949 . S
C1906 C1912 1.368 . S
C1907 C1891 1.349 . S
C1907 H1899 0.950 . S
C1907 C1905 1.327 . S
C1908 C1896 1.349 . S
C1908 H1902 0.950 . S
C1908 C1909 1.327 . S
C1909 H1903 0.950 . S
C1909 C1908 1.327 . S
C1909 C1913 1.429 . S
C1910 C1893 1.574 . S
C1910 H1904 0.949 . S
C1910 C1914 1.368 . S
C1911 C1892 1.429 . S
C1911 C1905 1.429 . S
C1911 C1912 1.523 . S
C1912 C1893 1.368 . S
C1912 C1906 1.368 . S
C1912 C1911 1.523 . S
C1913 C1897 1.429 . S
C1913 C1909 1.429 . S
C1913 C1914 1.523 . S
C1914 C1898 1.368 . S
C1914 C1910 1.368 . S
C1914 C1913 1.523 . S
H1915 C1890 0.950 . S
H1916 C1892 0.950 . S
H1917 C1893 0.949 . S
H1918 C1895 0.950 . S
H1919 C1897 0.950 . S
C1920 C1921 1.349 . S
C1920 C1922 1.327 . S
C1920 H1945 0.950 . S
C1921 C1920 1.349 . S
C1921 C1937 1.349 . S
C1922 C1920 1.327 . S
C1922 C1941 1.429 . S
C1922 H1946 0.950 . S
C1923 C1940 1.574 . S
C1923 C1942 1.368 . S
C1923 H1947 0.949 . S
H1924 C1928 0.949 . S
C1925 C1926 1.349 . S
C1925 C1927 1.327 . S
C1925 H1948 0.950 . S
C1926 C1925 1.349 . S
C1926 C1938 1.349 . S
C1927 C1925 1.327 . S
C1927 C1943 1.429 . S
C1927 H1949 0.950 . S
C1928 H1924 0.949 . S
C1928 C1936 1.574 . S
C1928 C1944 1.368 . S
H1929 C1937 0.950 . S
H1930 C1935 0.950 . S
H1931 C1936 0.949 . S
H1932 C1938 0.950 . S
H1933 C1939 0.950 . S
H1934 C1940 0.949 . S
C1935 H1930 0.950 . S
C1935 C1937 1.327 . S
C1935 C1941 1.429 . S
C1936 C1928 1.574 . S
C1936 H1931 0.949 . S
C1936 C1942 1.368 . S
C1937 C1921 1.349 . S
C1937 H1929 0.950 . S
C1937 C1935 1.327 . S
C1938 C1926 1.349 . S
C1938 H1932 0.950 . S
C1938 C1939 1.327 . S
C1939 H1933 0.950 . S
C1939 C1938 1.327 . S
C1939 C1943 1.429 . S
C1940 C1923 1.574 . S
C1940 H1934 0.949 . S
C1940 C1944 1.368 . S
C1941 C1922 1.429 . S
C1941 C1935 1.429 . S
C1941 C1942 1.523 . S
C1942 C1923 1.368 . S
C1942 C1936 1.368 . S
C1942 C1941 1.523 . S
C1943 C1927 1.429 . S
C1943 C1939 1.429 . S
C1943 C1944 1.523 . S
C1944 C1928 1.368 . S
C1944 C1940 1.368 . S
C1944 C1943 1.523 . S
H1945 C1920 0.950 . S
H1946 C1922 0.950 . S
H1947 C1923 0.949 . S
H1948 C1925 0.950 . S
H1949 C1927 0.950 . S
C1950 C1951 1.349 . S
C1950 C1952 1.327 . S
C1950 H1975 0.950 . S
C1951 C1950 1.349 . S
C1951 C1967 1.349 . S
C1952 C1950 1.327 . S
C1952 C1971 1.429 . S
C1952 H1976 0.950 . S
C1953 C1970 1.574 . S
C1953 C1972 1.368 . S
C1953 H1977 0.949 . S
H1954 C1958 0.949 . S
C1955 C1956 1.349 . S
C1955 C1957 1.327 . S
C1955 H1978 0.950 . S
C1956 C1955 1.349 . S
C1956 C1968 1.349 . S
C1957 C1955 1.327 . S
C1957 C1973 1.429 . S
C1957 H1979 0.950 . S
C1958 H1954 0.949 . S
C1958 C1966 1.574 . S
C1958 C1974 1.368 . S
H1959 C1967 0.950 . S
H1960 C1965 0.950 . S
H1961 C1966 0.949 . S
H1962 C1968 0.950 . S
H1963 C1969 0.950 . S
H1964 C1970 0.949 . S
C1965 H1960 0.950 . S
C1965 C1967 1.327 . S
C1965 C1971 1.429 . S
C1966 C1958 1.574 . S
C1966 H1961 0.949 . S
C1966 C1972 1.368 . S
C1967 C1951 1.349 . S
C1967 H1959 0.950 . S
C1967 C1965 1.327 . S
C1968 C1956 1.349 . S
C1968 H1962 0.950 . S
C1968 C1969 1.327 . S
C1969 H1963 0.950 . S
C1969 C1968 1.327 . S
C1969 C1973 1.429 . S
C1970 C1953 1.574 . S
C1970 H1964 0.949 . S
C1970 C1974 1.368 . S
C1971 C1952 1.429 . S
C1971 C1965 1.429 . S
C1971 C1972 1.523 . S
C1972 C1953 1.368 . S
C1972 C1966 1.368 . S
C1972 C1971 1.523 . S
C1973 C1957 1.429 . S
C1973 C1969 1.429 . S
C1973 C1974 1.523 . S
C1974 C1958 1.368 . S
C1974 C1970 1.368 . S
C1974 C1973 1.523 . S
H1975 C1950 0.950 . S
H1976 C1952 0.950 . S
H1977 C1953 0.949 . S
H1978 C1955 0.950 . S
H1979 C1957 0.950 . S
C1980 C1981 1.349 . S
C1980 C1982 1.327 . S
C1980 H2005 0.950 . S
C1981 C1980 1.349 . S
C1981 C1997 1.349 . S
C1982 C1980 1.327 . S
C1982 C2001 1.429 . S
C1982 H2006 0.950 . S
C1983 C2000 1.574 . S
C1983 C2002 1.368 . S
C1983 H2007 0.949 . S
H1984 C1988 0.949 . S
C1985 C1986 1.349 . S
C1985 C1987 1.327 . S
C1985 H2008 0.950 . S
C1986 C1985 1.349 . S
C1986 C1998 1.349 . S
C1987 C1985 1.327 . S
C1987 C2003 1.429 . S
C1987 H2009 0.950 . S
C1988 H1984 0.949 . S
C1988 C1996 1.574 . S
C1988 C2004 1.368 . S
H1989 C1997 0.950 . S
H1990 C1995 0.950 . S
H1991 C1996 0.949 . S
H1992 C1998 0.950 1_565 S
H1993 C1999 0.947 1_565 S
H1994 C2000 0.949 . S
C1995 H1990 0.950 . S
C1995 C1997 1.327 . S
C1995 C2001 1.429 . S
C1996 C1988 1.574 . S
C1996 H1991 0.949 . S
C1996 C2002 1.368 . S
C1997 C1981 1.349 . S
C1997 H1989 0.950 . S
C1997 C1995 1.327 . S
C1998 C1986 1.349 . S
C1998 H1992 0.950 1_545 S
C1998 C1999 1.327 . S
C1999 H1993 0.947 1_545 S
C1999 C1998 1.327 . S
C1999 C2003 1.429 . S
C2000 C1983 1.574 . S
C2000 H1994 0.949 . S
C2000 C2004 1.368 . S
C2001 C1982 1.429 . S
C2001 C1995 1.429 . S
C2001 C2002 1.523 . S
C2002 C1983 1.368 . S
C2002 C1996 1.368 . S
C2002 C2001 1.523 . S
C2003 C1987 1.429 . S
C2003 C1999 1.429 . S
C2003 C2004 1.523 . S
C2004 C1988 1.368 . S
C2004 C2000 1.368 . S
C2004 C2003 1.523 . S
H2005 C1980 0.950 . S
H2006 C1982 0.950 . S
H2007 C1983 0.949 . S
H2008 C1985 0.950 . S
H2009 C1987 0.950 . S
C2010 C2011 1.349 1_455 S
C2010 C2012 1.327 . S
C2010 H2035 0.950 . S
C2011 C2010 1.349 1_655 S
C2011 C2027 1.349 . S
C2012 C2010 1.327 . S
C2012 C2031 1.429 1_455 S
C2012 H2036 0.950 . S
C2013 C2030 1.574 . S
C2013 C2032 1.368 . S
C2013 H2037 0.949 . S
H2014 C2018 0.949 . S
C2015 C2016 1.382 . S
C2015 C2017 1.327 . S
C2015 H2038 0.950 . S
C2016 C2015 1.382 . S
C2016 C2028 1.333 1_655 S
C2017 C2015 1.327 . S
C2017 C2033 1.429 . S
C2017 H2039 0.950 . S
C2018 H2014 0.949 . S
C2018 C2026 1.574 . S
C2018 C2034 1.368 1_455 S
H2019 C2027 0.950 . S
H2020 C2025 0.950 . S
H2021 C2026 0.949 . S
H2022 C2028 0.950 . S
H2023 C2029 0.950 . S
H2024 C2030 0.949 . S
C2025 H2020 0.950 . S
C2025 C2027 1.327 . S
C2025 C2031 1.429 . S
C2026 C2018 1.574 . S
C2026 H2021 0.949 . S
C2026 C2032 1.368 1_455 S
C2027 C2011 1.349 . S
C2027 H2019 0.950 . S
C2027 C2025 1.327 . S
C2028 C2016 1.333 1_455 S
C2028 H2022 0.950 . S
C2028 C2029 1.327 . S
C2029 H2023 0.950 . S
C2029 C2028 1.327 . S
C2029 C2033 1.429 1_455 S
C2030 C2013 1.574 . S
C2030 H2024 0.949 . S
C2030 C2034 1.368 . S
C2031 C2012 1.429 1_655 S
C2031 C2025 1.429 . S
C2031 C2032 1.523 . S
C2032 C2013 1.368 . S
C2032 C2026 1.368 1_655 S
C2032 C2031 1.523 . S
C2033 C2017 1.429 . S
C2033 C2029 1.429 1_655 S
C2033 C2034 1.523 . S
C2034 C2018 1.368 1_655 S
C2034 C2030 1.368 . S
C2034 C2033 1.523 . S
H2035 C2010 0.950 . S
H2036 C2012 0.950 . S
H2037 C2013 0.949 . S
H2038 C2015 0.950 . S
H2039 C2017 0.950 . S
C2040 C2041 1.349 . S
C2040 C2042 1.327 . S
C2040 H2065 0.950 . S
C2041 C2040 1.349 . S
C2041 C2057 1.349 . S
C2042 C2040 1.327 . S
C2042 C2061 1.429 . S
C2042 H2066 0.950 . S
C2043 C2060 1.574 . S
C2043 C2062 1.368 . S
C2043 H2067 0.949 . S
H2044 C2048 0.949 . S
C2045 C2046 1.349 . S
C2045 C2047 1.327 . S
C2045 H2068 0.950 . S
C2046 C2045 1.349 . S
C2046 C2058 1.349 . S
C2047 C2045 1.327 . S
C2047 C2063 1.429 . S
C2047 H2069 0.950 . S
C2048 H2044 0.949 . S
C2048 C2056 1.574 . S
C2048 C2064 1.368 . S
H2049 C2057 0.950 . S
H2050 C2055 0.950 . S
H2051 C2056 0.949 . S
H2052 C2058 0.950 . S
H2053 C2059 0.950 . S
H2054 C2060 0.949 . S
C2055 H2050 0.950 . S
C2055 C2057 1.327 . S
C2055 C2061 1.429 . S
C2056 C2048 1.574 . S
C2056 H2051 0.949 . S
C2056 C2062 1.368 . S
C2057 C2041 1.349 . S
C2057 H2049 0.950 . S
C2057 C2055 1.327 . S
C2058 C2046 1.349 . S
C2058 H2052 0.950 . S
C2058 C2059 1.327 . S
C2059 H2053 0.950 . S
C2059 C2058 1.327 . S
C2059 C2063 1.429 . S
C2060 C2043 1.574 . S
C2060 H2054 0.949 . S
C2060 C2064 1.368 . S
C2061 C2042 1.429 . S
C2061 C2055 1.429 . S
C2061 C2062 1.523 . S
C2062 C2043 1.368 . S
C2062 C2056 1.368 . S
C2062 C2061 1.523 . S
C2063 C2047 1.429 . S
C2063 C2059 1.429 . S
C2063 C2064 1.523 . S
C2064 C2048 1.368 . S
C2064 C2060 1.368 . S
C2064 C2063 1.523 . S
H2065 C2040 0.950 . S
H2066 C2042 0.950 . S
H2067 C2043 0.949 . S
H2068 C2045 0.950 . S
H2069 C2047 0.950 . S
C2070 C2071 1.349 . S
C2070 C2072 1.327 . S
C2070 H2095 0.950 . S
C2071 C2070 1.349 . S
C2071 C2087 1.349 . S
C2072 C2070 1.327 . S
C2072 C2091 1.429 . S
C2072 H2096 0.950 . S
C2073 C2090 1.574 . S
C2073 C2092 1.368 . S
C2073 H2097 0.949 . S
H2074 C2078 0.949 . S
C2075 C2076 1.349 . S
C2075 C2077 1.327 . S
C2075 H2098 0.950 . S
C2076 C2075 1.349 . S
C2076 C2088 1.349 . S
C2077 C2075 1.327 . S
C2077 C2093 1.429 . S
C2077 H2099 0.950 . S
C2078 H2074 0.949 . S
C2078 C2086 1.574 . S
C2078 C2094 1.368 . S
H2079 C2087 0.950 . S
H2080 C2085 0.950 . S
H2081 C2086 0.949 . S
H2082 C2088 0.950 . S
H2083 C2089 0.950 . S
H2084 C2090 0.949 . S
C2085 H2080 0.950 . S
C2085 C2087 1.327 . S
C2085 C2091 1.429 . S
C2086 C2078 1.574 . S
C2086 H2081 0.949 . S
C2086 C2092 1.368 . S
C2087 C2071 1.349 . S
C2087 H2079 0.950 . S
C2087 C2085 1.327 . S
C2088 C2076 1.349 . S
C2088 H2082 0.950 . S
C2088 C2089 1.327 . S
C2089 H2083 0.950 . S
C2089 C2088 1.327 . S
C2089 C2093 1.429 . S
C2090 C2073 1.574 . S
C2090 H2084 0.949 . S
C2090 C2094 1.368 . S
C2091 C2072 1.429 . S
C2091 C2085 1.429 . S
C2091 C2092 1.523 . S
C2092 C2073 1.368 . S
C2092 C2086 1.368 . S
C2092 C2091 1.523 . S
C2093 C2077 1.429 . S
C2093 C2089 1.429 . S
C2093 C2094 1.523 . S
C2094 C2078 1.368 . S
C2094 C2090 1.368 . S
C2094 C2093 1.523 . S
H2095 C2070 0.950 . S
H2096 C2072 0.950 . S
H2097 C2073 0.949 . S
H2098 C2075 0.950 . S
H2099 C2077 0.950 . S
C2100 C2101 1.349 . S
C2100 C2102 1.327 . S
C2100 H2125 0.950 . S
C2101 C2100 1.349 . S
C2101 C2117 1.349 . S
C2102 C2100 1.327 . S
C2102 C2121 1.429 . S
C2102 H2126 0.950 . S
C2103 C2120 1.574 . S
C2103 C2122 1.368 . S
C2103 H2127 0.949 . S
H2104 C2108 0.949 . S
C2105 C2106 1.349 . S
C2105 C2107 1.327 . S
C2105 H2128 0.950 . S
C2106 C2105 1.349 . S
C2106 C2118 1.349 . S
C2107 C2105 1.327 . S
C2107 C2123 1.429 . S
C2107 H2129 0.950 . S
C2108 H2104 0.949 . S
C2108 C2116 1.574 . S
C2108 C2124 1.368 . S
H2109 C2117 0.950 . S
H2110 C2115 0.950 . S
H2111 C2116 0.949 . S
H2112 C2118 0.950 . S
H2113 C2119 0.950 . S
H2114 C2120 0.949 . S
C2115 H2110 0.950 . S
C2115 C2117 1.327 . S
C2115 C2121 1.429 . S
C2116 C2108 1.574 . S
C2116 H2111 0.949 . S
C2116 C2122 1.368 . S
C2117 C2101 1.349 . S
C2117 H2109 0.950 . S
C2117 C2115 1.327 . S
C2118 C2106 1.349 . S
C2118 H2112 0.950 . S
C2118 C2119 1.327 . S
C2119 H2113 0.950 . S
C2119 C2118 1.327 . S
C2119 C2123 1.429 . S
C2120 C2103 1.574 . S
C2120 H2114 0.949 . S
C2120 C2124 1.368 . S
C2121 C2102 1.429 . S
C2121 C2115 1.429 . S
C2121 C2122 1.523 . S
C2122 C2103 1.368 . S
C2122 C2116 1.368 . S
C2122 C2121 1.523 . S
C2123 C2107 1.429 . S
C2123 C2119 1.429 . S
C2123 C2124 1.523 . S
C2124 C2108 1.368 . S
C2124 C2120 1.368 . S
C2124 C2123 1.523 . S
H2125 C2100 0.950 . S
H2126 C2102 0.950 . S
H2127 C2103 0.949 . S
H2128 C2105 0.950 . S
H2129 C2107 0.950 . S
C2130 C2131 1.349 . S
C2130 C2132 1.327 . S
C2130 H2155 0.950 . S
C2131 C2130 1.349 . S
C2131 C2147 1.349 1_565 S
C2132 C2130 1.327 . S
C2132 C2151 1.429 . S
C2132 H2156 0.950 . S
C2133 C2150 1.574 . S
C2133 C2152 1.368 1_545 S
C2133 H2157 0.949 . S
H2134 C2138 0.949 . S
C2135 C2136 1.349 . S
C2135 C2137 1.327 . S
C2135 H2158 0.950 . S
C2136 C2135 1.349 . S
C2136 C2148 1.349 1_545 S
C2137 C2135 1.327 . S
C2137 C2153 1.425 . S
C2137 H2159 0.950 . S
C2138 H2134 0.949 . S
C2138 C2146 1.574 . S
C2138 C2154 1.368 . S
H2139 C2147 0.950 . S
H2140 C2145 0.950 . S
H2141 C2146 0.949 . S
H2142 C2148 0.950 . S
H2143 C2149 0.950 . S
H2144 C2150 0.949 . S
C2145 H2140 0.950 . S
C2145 C2147 1.327 . S
C2145 C2151 1.429 1_545 S
C2146 C2138 1.574 . S
C2146 H2141 0.949 . S
C2146 C2152 1.368 . S
C2147 C2131 1.349 1_545 S
C2147 H2139 0.950 . S
C2147 C2145 1.327 . S
C2148 C2136 1.349 1_565 S
C2148 H2142 0.950 . S
C2148 C2149 1.327 . S
C2149 H2143 0.950 . S
C2149 C2148 1.327 . S
C2149 C2153 1.430 1_565 S
C2150 C2133 1.574 . S
C2150 H2144 0.949 . S
C2150 C2154 1.368 1_545 S
C2151 C2132 1.429 . S
C2151 C2145 1.429 1_565 S
C2151 C2152 1.523 . S
C2152 C2133 1.368 1_565 S
C2152 C2146 1.368 . S
C2152 C2151 1.523 . S
C2153 C2137 1.425 . S
C2153 C2149 1.430 1_545 S
C2153 C2154 1.525 1_545 S
C2154 C2138 1.368 . S
C2154 C2150 1.368 1_565 S
C2154 C2153 1.525 1_565 S
H2155 C2130 0.950 . S
H2156 C2132 0.950 . S
H2157 C2133 0.949 . S
H2158 C2135 0.950 . S
H2159 C2137 0.950 . S
C2160 C2161 1.349 . S
C2160 C2162 1.327 . S
C2160 H2185 0.960 . S
C2161 C2160 1.349 . S
C2161 C2177 1.349 . S
C2162 C2160 1.327 . S
C2162 C2181 1.429 . S
C2162 H2186 0.950 1_565 S
C2163 C2180 1.574 . S
C2163 C2182 1.368 . S
C2163 H2187 0.949 . S
H2164 C2168 0.951 1_545 S
C2165 C2166 1.349 . S
C2165 C2167 1.327 . S
C2165 H2188 0.950 . S
C2166 C2165 1.349 . S
C2166 C2178 1.349 1_565 S
C2167 C2165 1.327 . S
C2167 C2183 1.429 . S
C2167 H2189 0.950 . S
C2168 H2164 0.951 1_565 S
C2168 C2176 1.567 . S
C2168 C2184 1.372 . S
H2169 C2177 0.950 . S
H2170 C2175 0.950 . S
H2171 C2176 0.949 1_545 S
H2172 C2178 0.950 . S
H2173 C2179 0.950 . S
H2174 C2180 0.949 . S
C2175 H2170 0.950 . S
C2175 C2177 1.327 . S
C2175 C2181 1.429 . S
C2176 C2168 1.567 . S
C2176 H2171 0.949 1_565 S
C2176 C2182 1.368 . S
C2177 C2161 1.349 . S
C2177 H2169 0.950 . S
C2177 C2175 1.327 . S
C2178 C2166 1.349 1_545 S
C2178 H2172 0.950 . S
C2178 C2179 1.327 . S
C2179 H2173 0.950 . S
C2179 C2178 1.327 . S
C2179 C2183 1.429 1_545 S
C2180 C2163 1.574 . S
C2180 H2174 0.949 . S
C2180 C2184 1.368 . S
C2181 C2162 1.429 . S
C2181 C2175 1.429 . S
C2181 C2182 1.523 . S
C2182 C2163 1.368 . S
C2182 C2176 1.368 . S
C2182 C2181 1.523 . S
C2183 C2167 1.429 . S
C2183 C2179 1.429 1_565 S
C2183 C2184 1.523 . S
C2184 C2168 1.372 . S
C2184 C2180 1.368 . S
C2184 C2183 1.523 . S
H2185 C2160 0.960 . S
H2186 C2162 0.950 1_545 S
H2187 C2163 0.949 . S
H2188 C2165 0.950 . S
H2189 C2167 0.950 . S
C2190 C2191 1.349 . S
C2190 C2192 1.327 . S
C2190 H2215 0.950 . S
C2191 C2190 1.349 . S
C2191 C2207 1.349 . S
C2192 C2190 1.327 . S
C2192 C2211 1.429 . S
C2192 H2216 0.950 . S
C2193 C2210 1.574 . S
C2193 C2212 1.368 . S
C2193 H2217 0.949 . S
H2194 C2198 0.949 . S
C2195 C2196 1.349 . S
C2195 C2197 1.327 . S
C2195 H2218 0.950 . S
C2196 C2195 1.349 . S
C2196 C2208 1.349 . S
C2197 C2195 1.327 . S
C2197 C2213 1.429 . S
C2197 H2219 0.950 . S
C2198 H2194 0.949 . S
C2198 C2206 1.574 . S
C2198 C2214 1.368 . S
H2199 C2207 0.950 . S
H2200 C2205 0.950 . S
H2201 C2206 0.949 . S
H2202 C2208 0.950 . S
H2203 C2209 0.950 . S
H2204 C2210 0.949 . S
C2205 H2200 0.950 . S
C2205 C2207 1.327 . S
C2205 C2211 1.429 . S
C2206 C2198 1.574 . S
C2206 H2201 0.949 . S
C2206 C2212 1.368 . S
C2207 C2191 1.349 . S
C2207 H2199 0.950 . S
C2207 C2205 1.327 . S
C2208 C2196 1.349 . S
C2208 H2202 0.950 . S
C2208 C2209 1.327 . S
C2209 H2203 0.950 . S
C2209 C2208 1.327 . S
C2209 C2213 1.429 . S
C2210 C2193 1.574 . S
C2210 H2204 0.949 . S
C2210 C2214 1.368 . S
C2211 C2192 1.429 . S
C2211 C2205 1.429 . S
C2211 C2212 1.523 . S
C2212 C2193 1.368 . S
C2212 C2206 1.368 . S
C2212 C2211 1.523 . S
C2213 C2197 1.429 . S
C2213 C2209 1.429 . S
C2213 C2214 1.523 . S
C2214 C2198 1.368 . S
C2214 C2210 1.368 . S
C2214 C2213 1.523 . S
H2215 C2190 0.950 . S
H2216 C2192 0.950 . S
H2217 C2193 0.949 . S
H2218 C2195 0.950 . S
H2219 C2197 0.950 . S
C2220 C2221 1.349 . S
C2220 C2222 1.327 . S
C2220 H2245 0.950 . S
C2221 C2220 1.349 . S
C2221 C2237 1.349 . S
C2222 C2220 1.327 . S
C2222 C2241 1.429 . S
C2222 H2246 0.950 . S
C2223 C2240 1.574 . S
C2223 C2242 1.368 . S
C2223 H2247 0.949 . S
H2224 C2228 0.949 . S
C2225 C2226 1.349 . S
C2225 C2227 1.327 . S
C2225 H2248 0.950 . S
C2226 C2225 1.349 . S
C2226 C2238 1.349 . S
C2227 C2225 1.327 . S
C2227 C2243 1.429 . S
C2227 H2249 0.950 . S
C2228 H2224 0.949 . S
C2228 C2236 1.574 . S
C2228 C2244 1.368 . S
H2229 C2237 0.950 . S
H2230 C2235 0.950 . S
H2231 C2236 0.949 . S
H2232 C2238 0.950 . S
H2233 C2239 0.950 . S
H2234 C2240 0.949 . S
C2235 H2230 0.950 . S
C2235 C2237 1.327 . S
C2235 C2241 1.429 . S
C2236 C2228 1.574 . S
C2236 H2231 0.949 . S
C2236 C2242 1.368 . S
C2237 C2221 1.349 . S
C2237 H2229 0.950 . S
C2237 C2235 1.327 . S
C2238 C2226 1.349 . S
C2238 H2232 0.950 . S
C2238 C2239 1.327 . S
C2239 H2233 0.950 . S
C2239 C2238 1.327 . S
C2239 C2243 1.429 . S
C2240 C2223 1.574 . S
C2240 H2234 0.949 . S
C2240 C2244 1.368 . S
C2241 C2222 1.429 . S
C2241 C2235 1.429 . S
C2241 C2242 1.523 . S
C2242 C2223 1.368 . S
C2242 C2236 1.368 . S
C2242 C2241 1.523 . S
C2243 C2227 1.429 . S
C2243 C2239 1.429 . S
C2243 C2244 1.523 . S
C2244 C2228 1.368 . S
C2244 C2240 1.368 . S
C2244 C2243 1.523 . S
H2245 C2220 0.950 . S
H2246 C2222 0.950 . S
H2247 C2223 0.949 . S
H2248 C2225 0.950 . S
H2249 C2227 0.950 . S
C2250 C2251 1.351 . S
C2250 C2252 1.331 1_655 S
C2250 H2275 0.943 1_655 S
C2251 C2250 1.351 . S
C2251 C2267 1.349 . S
C2252 C2250 1.331 1_455 S
C2252 C2271 1.429 1_455 S
C2252 H2276 0.950 . S
C2253 C2270 1.574 . S
C2253 C2272 1.368 . S
C2253 H2277 0.949 . S
H2254 C2258 0.949 . S
C2255 C2256 1.349 1_655 S
C2255 C2257 1.327 . S
C2255 H2278 0.950 . S
C2256 C2255 1.349 1_455 S
C2256 C2268 1.349 . S
C2257 C2255 1.327 . S
C2257 C2273 1.414 1_655 S
C2257 H2279 0.950 . S
C2258 H2254 0.949 . S
C2258 C2266 1.574 . S
C2258 C2274 1.368 1_455 S
H2259 C2267 0.950 . S
H2260 C2265 0.950 . S
H2261 C2266 0.949 . S
H2262 C2268 0.950 . S
H2263 C2269 0.950 . S
H2264 C2270 0.949 . S
C2265 H2260 0.950 . S
C2265 C2267 1.327 . S
C2265 C2271 1.429 . S
C2266 C2258 1.574 . S
C2266 H2261 0.949 . S
C2266 C2272 1.368 1_455 S
C2267 C2251 1.349 . S
C2267 H2259 0.950 . S
C2267 C2265 1.327 . S
C2268 C2256 1.349 . S
C2268 H2262 0.950 . S
C2268 C2269 1.327 . S
C2269 H2263 0.950 . S
C2269 C2268 1.327 . S
C2269 C2273 1.433 . S
C2270 C2253 1.574 . S
C2270 H2264 0.949 . S
C2270 C2274 1.368 . S
C2271 C2252 1.429 1_655 S
C2271 C2265 1.429 . S
C2271 C2272 1.523 . S
C2272 C2253 1.368 . S
C2272 C2266 1.368 1_655 S
C2272 C2271 1.523 . S
C2273 C2257 1.414 1_455 S
C2273 C2269 1.433 . S
C2273 C2274 1.533 1_455 S
C2274 C2258 1.368 1_655 S
C2274 C2270 1.368 . S
C2274 C2273 1.533 1_655 S
H2275 C2250 0.943 1_455 S
H2276 C2252 0.950 . S
H2277 C2253 0.949 . S
H2278 C2255 0.950 . S
H2279 C2257 0.950 . S
C2280 C2281 1.349 . S
C2280 C2282 1.327 . S
C2280 H2305 0.950 . S
C2281 C2280 1.349 . S
C2281 C2297 1.349 . S
C2282 C2280 1.327 . S
C2282 C2301 1.429 . S
C2282 H2306 0.950 . S
C2283 C2300 1.574 . S
C2283 C2302 1.368 . S
C2283 H2307 0.949 . S
H2284 C2288 0.949 . S
C2285 C2286 1.349 . S
C2285 C2287 1.327 . S
C2285 H2308 0.950 . S
C2286 C2285 1.349 . S
C2286 C2298 1.349 . S
C2287 C2285 1.327 . S
C2287 C2303 1.429 . S
C2287 H2309 0.950 . S
C2288 H2284 0.949 . S
C2288 C2296 1.574 . S
C2288 C2304 1.368 . S
H2289 C2297 0.950 . S
H2290 C2295 0.950 . S
H2291 C2296 0.949 . S
H2292 C2298 0.950 . S
H2293 C2299 0.950 . S
H2294 C2300 0.949 . S
C2295 H2290 0.950 . S
C2295 C2297 1.327 . S
C2295 C2301 1.429 . S
C2296 C2288 1.574 . S
C2296 H2291 0.949 . S
C2296 C2302 1.368 . S
C2297 C2281 1.349 . S
C2297 H2289 0.950 . S
C2297 C2295 1.327 . S
C2298 C2286 1.349 . S
C2298 H2292 0.950 . S
C2298 C2299 1.327 . S
C2299 H2293 0.950 . S
C2299 C2298 1.327 . S
C2299 C2303 1.429 . S
C2300 C2283 1.574 . S
C2300 H2294 0.949 . S
C2300 C2304 1.368 . S
C2301 C2282 1.429 . S
C2301 C2295 1.429 . S
C2301 C2302 1.523 . S
C2302 C2283 1.368 . S
C2302 C2296 1.368 . S
C2302 C2301 1.523 . S
C2303 C2287 1.429 . S
C2303 C2299 1.429 . S
C2303 C2304 1.523 . S
C2304 C2288 1.368 . S
C2304 C2300 1.368 . S
C2304 C2303 1.523 . S
H2305 C2280 0.950 . S
H2306 C2282 0.950 . S
H2307 C2283 0.949 . S
H2308 C2285 0.950 . S
H2309 C2287 0.950 . S
C2310 C2311 1.349 . S
C2310 C2312 1.327 . S
C2310 H2335 0.950 . S
C2311 C2310 1.349 . S
C2311 C2327 1.349 . S
C2312 C2310 1.327 . S
C2312 C2331 1.429 . S
C2312 H2336 0.950 . S
C2313 C2330 1.574 . S
C2313 C2332 1.368 . S
C2313 H2337 0.949 . S
H2314 C2318 0.949 . S
C2315 C2316 1.349 . S
C2315 C2317 1.327 . S
C2315 H2338 0.950 . S
C2316 C2315 1.349 . S
C2316 C2328 1.349 . S
C2317 C2315 1.327 . S
C2317 C2333 1.429 . S
C2317 H2339 0.950 . S
C2318 H2314 0.949 . S
C2318 C2326 1.574 . S
C2318 C2334 1.368 . S
H2319 C2327 0.950 . S
H2320 C2325 0.950 . S
H2321 C2326 0.949 . S
H2322 C2328 0.950 . S
H2323 C2329 0.950 . S
H2324 C2330 0.949 . S
C2325 H2320 0.950 . S
C2325 C2327 1.327 . S
C2325 C2331 1.429 . S
C2326 C2318 1.574 . S
C2326 H2321 0.949 . S
C2326 C2332 1.368 . S
C2327 C2311 1.349 . S
C2327 H2319 0.950 . S
C2327 C2325 1.327 . S
C2328 C2316 1.349 . S
C2328 H2322 0.950 . S
C2328 C2329 1.327 . S
C2329 H2323 0.950 . S
C2329 C2328 1.327 . S
C2329 C2333 1.429 . S
C2330 C2313 1.574 . S
C2330 H2324 0.949 . S
C2330 C2334 1.368 . S
C2331 C2312 1.429 . S
C2331 C2325 1.429 . S
C2331 C2332 1.523 . S
C2332 C2313 1.368 . S
C2332 C2326 1.368 . S
C2332 C2331 1.523 . S
C2333 C2317 1.429 . S
C2333 C2329 1.429 . S
C2333 C2334 1.523 . S
C2334 C2318 1.368 . S
C2334 C2330 1.368 . S
C2334 C2333 1.523 . S
H2335 C2310 0.950 . S
H2336 C2312 0.950 . S
H2337 C2313 0.949 . S
H2338 C2315 0.950 . S
H2339 C2317 0.950 . S
C2340 C2341 1.349 . S
C2340 C2342 1.327 . S
C2340 H2365 0.950 . S
C2341 C2340 1.349 . S
C2341 C2357 1.349 . S
C2342 C2340 1.327 . S
C2342 C2361 1.429 . S
C2342 H2366 0.950 . S
C2343 C2360 1.574 . S
C2343 C2362 1.368 . S
C2343 H2367 0.949 . S
H2344 C2348 0.949 . S
C2345 C2346 1.349 . S
C2345 C2347 1.327 . S
C2345 H2368 0.950 . S
C2346 C2345 1.349 . S
C2346 C2358 1.349 . S
C2347 C2345 1.327 . S
C2347 C2363 1.429 . S
C2347 H2369 0.950 . S
C2348 H2344 0.949 . S
C2348 C2356 1.574 . S
C2348 C2364 1.368 . S
H2349 C2357 0.950 . S
H2350 C2355 0.950 . S
H2351 C2356 0.949 . S
H2352 C2358 0.950 . S
H2353 C2359 0.950 . S
H2354 C2360 0.949 . S
C2355 H2350 0.950 . S
C2355 C2357 1.327 . S
C2355 C2361 1.429 . S
C2356 C2348 1.574 . S
C2356 H2351 0.949 . S
C2356 C2362 1.368 . S
C2357 C2341 1.349 . S
C2357 H2349 0.950 . S
C2357 C2355 1.327 . S
C2358 C2346 1.349 . S
C2358 H2352 0.950 . S
C2358 C2359 1.327 . S
C2359 H2353 0.950 . S
C2359 C2358 1.327 . S
C2359 C2363 1.429 . S
C2360 C2343 1.574 . S
C2360 H2354 0.949 . S
C2360 C2364 1.368 . S
C2361 C2342 1.429 . S
C2361 C2355 1.429 . S
C2361 C2362 1.523 . S
C2362 C2343 1.368 . S
C2362 C2356 1.368 . S
C2362 C2361 1.523 . S
C2363 C2347 1.429 . S
C2363 C2359 1.429 . S
C2363 C2364 1.523 . S
C2364 C2348 1.368 . S
C2364 C2360 1.368 . S
C2364 C2363 1.523 . S
H2365 C2340 0.950 . S
H2366 C2342 0.950 . S
H2367 C2343 0.949 . S
H2368 C2345 0.950 . S
H2369 C2347 0.950 . S
C2370 C2371 1.349 . S
C2370 C2372 1.327 . S
C2370 H2395 0.950 . S
C2371 C2370 1.349 . S
C2371 C2387 1.349 . S
C2372 C2370 1.327 . S
C2372 C2391 1.429 . S
C2372 H2396 0.950 . S
C2373 C2390 1.574 . S
C2373 C2392 1.368 . S
C2373 H2397 0.949 . S
H2374 C2378 0.949 . S
C2375 C2376 1.349 . S
C2375 C2377 1.327 . S
C2375 H2398 0.950 . S
C2376 C2375 1.349 . S
C2376 C2388 1.349 . S
C2377 C2375 1.327 . S
C2377 C2393 1.429 . S
C2377 H2399 0.950 . S
C2378 H2374 0.949 . S
C2378 C2386 1.574 . S
C2378 C2394 1.368 . S
H2379 C2387 0.950 . S
H2380 C2385 0.950 . S
H2381 C2386 0.949 . S
H2382 C2388 0.950 . S
H2383 C2389 0.950 . S
H2384 C2390 0.949 . S
C2385 H2380 0.950 . S
C2385 C2387 1.327 . S
C2385 C2391 1.429 . S
C2386 C2378 1.574 . S
C2386 H2381 0.949 . S
C2386 C2392 1.368 . S
C2387 C2371 1.349 . S
C2387 H2379 0.950 . S
C2387 C2385 1.327 . S
C2388 C2376 1.349 . S
C2388 H2382 0.950 . S
C2388 C2389 1.327 . S
C2389 H2383 0.950 . S
C2389 C2388 1.327 . S
C2389 C2393 1.429 . S
C2390 C2373 1.574 . S
C2390 H2384 0.949 . S
C2390 C2394 1.368 . S
C2391 C2372 1.429 . S
C2391 C2385 1.429 . S
C2391 C2392 1.523 . S
C2392 C2373 1.368 . S
C2392 C2386 1.368 . S
C2392 C2391 1.523 . S
C2393 C2377 1.429 . S
C2393 C2389 1.429 . S
C2393 C2394 1.523 . S
C2394 C2378 1.368 . S
C2394 C2390 1.368 . S
C2394 C2393 1.523 . S
H2395 C2370 0.950 . S
H2396 C2372 0.950 . S
H2397 C2373 0.949 . S
H2398 C2375 0.950 . S
H2399 C2377 0.950 . S
C2400 C2401 1.349 . S
C2400 C2402 1.327 . S
C2400 H2425 0.950 . S
C2401 C2400 1.349 . S
C2401 C2417 1.349 . S
C2402 C2400 1.327 . S
C2402 C2421 1.429 . S
C2402 H2426 0.950 . S
C2403 C2420 1.574 . S
C2403 C2422 1.368 . S
C2403 H2427 0.949 . S
H2404 C2408 0.949 . S
C2405 C2406 1.349 . S
C2405 C2407 1.327 . S
C2405 H2428 0.950 . S
C2406 C2405 1.349 . S
C2406 C2418 1.349 . S
C2407 C2405 1.327 . S
C2407 C2423 1.429 . S
C2407 H2429 0.950 . S
C2408 H2404 0.949 . S
C2408 C2416 1.574 . S
C2408 C2424 1.368 . S
H2409 C2417 0.950 . S
H2410 C2415 0.950 . S
H2411 C2416 0.949 . S
H2412 C2418 0.950 . S
H2413 C2419 0.950 . S
H2414 C2420 0.949 . S
C2415 H2410 0.950 . S
C2415 C2417 1.327 . S
C2415 C2421 1.429 . S
C2416 C2408 1.574 . S
C2416 H2411 0.949 . S
C2416 C2422 1.368 . S
C2417 C2401 1.349 . S
C2417 H2409 0.950 . S
C2417 C2415 1.327 . S
C2418 C2406 1.349 . S
C2418 H2412 0.950 . S
C2418 C2419 1.327 . S
C2419 H2413 0.950 . S
C2419 C2418 1.327 . S
C2419 C2423 1.429 . S
C2420 C2403 1.574 . S
C2420 H2414 0.949 . S
C2420 C2424 1.368 . S
C2421 C2402 1.429 . S
C2421 C2415 1.429 . S
C2421 C2422 1.523 . S
C2422 C2403 1.368 . S
C2422 C2416 1.368 . S
C2422 C2421 1.523 . S
C2423 C2407 1.429 . S
C2423 C2419 1.429 . S
C2423 C2424 1.523 . S
C2424 C2408 1.368 . S
C2424 C2420 1.368 . S
C2424 C2423 1.523 . S
H2425 C2400 0.950 . S
H2426 C2402 0.950 . S
H2427 C2403 0.949 . S
H2428 C2405 0.950 . S
H2429 C2407 0.950 . S
C2430 C2431 1.349 . S
C2430 C2432 1.327 . S
C2430 H2455 0.950 . S
C2431 C2430 1.349 . S
C2431 C2447 1.349 . S
C2432 C2430 1.327 . S
C2432 C2451 1.429 . S
C2432 H2456 0.950 . S
C2433 C2450 1.574 . S
C2433 C2452 1.368 . S
C2433 H2457 0.949 . S
H2434 C2438 0.949 . S
C2435 C2436 1.349 . S
C2435 C2437 1.327 . S
C2435 H2458 0.950 . S
C2436 C2435 1.349 . S
C2436 C2448 1.349 . S
C2437 C2435 1.327 . S
C2437 C2453 1.429 . S
C2437 H2459 0.950 . S
C2438 H2434 0.949 . S
C2438 C2446 1.574 . S
C2438 C2454 1.368 . S
H2439 C2447 0.950 . S
H2440 C2445 0.950 . S
H2441 C2446 0.949 . S
H2442 C2448 0.950 . S
H2443 C2449 0.950 . S
H2444 C2450 0.949 . S
C2445 H2440 0.950 . S
C2445 C2447 1.327 . S
C2445 C2451 1.429 . S
C2446 C2438 1.574 . S
C2446 H2441 0.949 . S
C2446 C2452 1.368 . S
C2447 C2431 1.349 . S
C2447 H2439 0.950 . S
C2447 C2445 1.327 . S
C2448 C2436 1.349 . S
C2448 H2442 0.950 . S
C2448 C2449 1.327 . S
C2449 H2443 0.950 . S
C2449 C2448 1.327 . S
C2449 C2453 1.429 . S
C2450 C2433 1.574 . S
C2450 H2444 0.949 . S
C2450 C2454 1.368 . S
C2451 C2432 1.429 . S
C2451 C2445 1.429 . S
C2451 C2452 1.523 . S
C2452 C2433 1.368 . S
C2452 C2446 1.368 . S
C2452 C2451 1.523 . S
C2453 C2437 1.429 . S
C2453 C2449 1.429 . S
C2453 C2454 1.523 . S
C2454 C2438 1.368 . S
C2454 C2450 1.368 . S
C2454 C2453 1.523 . S
H2455 C2430 0.950 . S
H2456 C2432 0.950 . S
H2457 C2433 0.949 . S
H2458 C2435 0.950 . S
H2459 C2437 0.950 . S
C2460 C2461 1.349 . S
C2460 C2462 1.327 . S
C2460 H2485 0.950 . S
C2461 C2460 1.349 . S
C2461 C2477 1.349 . S
C2462 C2460 1.327 . S
C2462 C2481 1.429 . S
C2462 H2486 0.950 . S
C2463 C2480 1.574 . S
C2463 C2482 1.368 . S
C2463 H2487 0.949 . S
H2464 C2468 0.949 . S
C2465 C2466 1.349 . S
C2465 C2467 1.327 . S
C2465 H2488 0.950 . S
C2466 C2465 1.349 . S
C2466 C2478 1.349 . S
C2467 C2465 1.327 . S
C2467 C2483 1.429 . S
C2467 H2489 0.950 . S
C2468 H2464 0.949 . S
C2468 C2476 1.574 . S
C2468 C2484 1.368 . S
H2469 C2477 0.950 . S
H2470 C2475 0.950 . S
H2471 C2476 0.949 . S
H2472 C2478 0.950 . S
H2473 C2479 0.950 . S
H2474 C2480 0.949 . S
C2475 H2470 0.950 . S
C2475 C2477 1.327 . S
C2475 C2481 1.429 . S
C2476 C2468 1.574 . S
C2476 H2471 0.949 . S
C2476 C2482 1.368 . S
C2477 C2461 1.349 . S
C2477 H2469 0.950 . S
C2477 C2475 1.327 . S
C2478 C2466 1.349 . S
C2478 H2472 0.950 . S
C2478 C2479 1.327 . S
C2479 H2473 0.950 . S
C2479 C2478 1.327 . S
C2479 C2483 1.429 . S
C2480 C2463 1.574 . S
C2480 H2474 0.949 . S
C2480 C2484 1.368 . S
C2481 C2462 1.429 . S
C2481 C2475 1.429 . S
C2481 C2482 1.523 . S
C2482 C2463 1.368 . S
C2482 C2476 1.368 . S
C2482 C2481 1.523 . S
C2483 C2467 1.429 . S
C2483 C2479 1.429 . S
C2483 C2484 1.523 . S
C2484 C2468 1.368 . S
C2484 C2480 1.368 . S
C2484 C2483 1.523 . S
H2485 C2460 0.950 . S
H2486 C2462 0.950 . S
H2487 C2463 0.949 . S
H2488 C2465 0.950 . S
H2489 C2467 0.950 . S
C2490 C2491 1.349 . S
C2490 C2492 1.327 . S
C2490 H2515 0.950 . S
C2491 C2490 1.349 . S
C2491 C2507 1.349 . S
C2492 C2490 1.327 . S
C2492 C2511 1.429 . S
C2492 H2516 0.950 . S
C2493 C2510 1.574 . S
C2493 C2512 1.368 . S
C2493 H2517 0.949 . S
H2494 C2498 0.949 . S
C2495 C2496 1.349 . S
C2495 C2497 1.327 . S
C2495 H2518 0.950 . S
C2496 C2495 1.349 . S
C2496 C2508 1.349 . S
C2497 C2495 1.327 . S
C2497 C2513 1.429 . S
C2497 H2519 0.950 . S
C2498 H2494 0.949 . S
C2498 C2506 1.574 . S
C2498 C2514 1.368 . S
H2499 C2507 0.950 . S
H2500 C2505 0.950 . S
H2501 C2506 0.949 . S
H2502 C2508 0.950 . S
H2503 C2509 0.950 . S
H2504 C2510 0.949 . S
C2505 H2500 0.950 . S
C2505 C2507 1.327 . S
C2505 C2511 1.429 . S
C2506 C2498 1.574 . S
C2506 H2501 0.949 . S
C2506 C2512 1.368 . S
C2507 C2491 1.349 . S
C2507 H2499 0.950 . S
C2507 C2505 1.327 . S
C2508 C2496 1.349 . S
C2508 H2502 0.950 . S
C2508 C2509 1.327 . S
C2509 H2503 0.950 . S
C2509 C2508 1.327 . S
C2509 C2513 1.429 . S
C2510 C2493 1.574 . S
C2510 H2504 0.949 . S
C2510 C2514 1.368 . S
C2511 C2492 1.429 . S
C2511 C2505 1.429 . S
C2511 C2512 1.523 . S
C2512 C2493 1.368 . S
C2512 C2506 1.368 . S
C2512 C2511 1.523 . S
C2513 C2497 1.429 . S
C2513 C2509 1.429 . S
C2513 C2514 1.523 . S
C2514 C2498 1.368 . S
C2514 C2510 1.368 . S
C2514 C2513 1.523 . S
H2515 C2490 0.950 . S
H2516 C2492 0.950 . S
H2517 C2493 0.949 . S
H2518 C2495 0.950 . S
H2519 C2497 0.950 . S
C2520 C2521 1.349 . S
C2520 C2522 1.327 . S
C2520 H2545 0.950 . S
C2521 C2520 1.349 . S
C2521 C2537 1.349 . S
C2522 C2520 1.327 . S
C2522 C2541 1.429 . S
C2522 H2546 0.950 . S
C2523 C2540 1.574 . S
C2523 C2542 1.368 . S
C2523 H2547 0.949 . S
H2524 C2528 0.949 . S
C2525 C2526 1.349 . S
C2525 C2527 1.327 . S
C2525 H2548 0.950 . S
C2526 C2525 1.349 . S
C2526 C2538 1.349 . S
C2527 C2525 1.327 . S
C2527 C2543 1.429 . S
C2527 H2549 0.950 . S
C2528 H2524 0.949 . S
C2528 C2536 1.574 . S
C2528 C2544 1.368 . S
H2529 C2537 0.950 . S
H2530 C2535 0.950 . S
H2531 C2536 0.949 . S
H2532 C2538 0.950 . S
H2533 C2539 0.950 . S
H2534 C2540 0.949 . S
C2535 H2530 0.950 . S
C2535 C2537 1.327 . S
C2535 C2541 1.429 . S
C2536 C2528 1.574 . S
C2536 H2531 0.949 . S
C2536 C2542 1.368 . S
C2537 C2521 1.349 . S
C2537 H2529 0.950 . S
C2537 C2535 1.327 . S
C2538 C2526 1.349 . S
C2538 H2532 0.950 . S
C2538 C2539 1.327 . S
C2539 H2533 0.950 . S
C2539 C2538 1.327 . S
C2539 C2543 1.429 . S
C2540 C2523 1.574 . S
C2540 H2534 0.949 . S
C2540 C2544 1.368 . S
C2541 C2522 1.429 . S
C2541 C2535 1.429 . S
C2541 C2542 1.523 . S
C2542 C2523 1.368 . S
C2542 C2536 1.368 . S
C2542 C2541 1.523 . S
C2543 C2527 1.429 . S
C2543 C2539 1.429 . S
C2543 C2544 1.523 . S
C2544 C2528 1.368 . S
C2544 C2540 1.368 . S
C2544 C2543 1.523 . S
H2545 C2520 0.950 . S
H2546 C2522 0.950 . S
H2547 C2523 0.949 . S
H2548 C2525 0.950 . S
H2549 C2527 0.950 . S
C2550 C2551 1.349 . S
C2550 C2552 1.327 . S
C2550 H2575 0.950 . S
C2551 C2550 1.349 . S
C2551 C2567 1.349 . S
C2552 C2550 1.327 . S
C2552 C2571 1.429 . S
C2552 H2576 0.950 . S
C2553 C2570 1.574 . S
C2553 C2572 1.368 . S
C2553 H2577 0.949 . S
H2554 C2558 0.949 . S
C2555 C2556 1.349 . S
C2555 C2557 1.327 . S
C2555 H2578 0.950 . S
C2556 C2555 1.349 . S
C2556 C2568 1.349 . S
C2557 C2555 1.327 . S
C2557 C2573 1.429 . S
C2557 H2579 0.950 . S
C2558 H2554 0.949 . S
C2558 C2566 1.574 . S
C2558 C2574 1.368 . S
H2559 C2567 0.950 . S
H2560 C2565 0.950 . S
H2561 C2566 0.949 . S
H2562 C2568 0.950 . S
H2563 C2569 0.950 . S
H2564 C2570 0.949 . S
C2565 H2560 0.950 . S
C2565 C2567 1.327 . S
C2565 C2571 1.429 . S
C2566 C2558 1.574 . S
C2566 H2561 0.949 . S
C2566 C2572 1.368 . S
C2567 C2551 1.349 . S
C2567 H2559 0.950 . S
C2567 C2565 1.327 . S
C2568 C2556 1.349 . S
C2568 H2562 0.950 . S
C2568 C2569 1.327 . S
C2569 H2563 0.950 . S
C2569 C2568 1.327 . S
C2569 C2573 1.429 . S
C2570 C2553 1.574 . S
C2570 H2564 0.949 . S
C2570 C2574 1.368 . S
C2571 C2552 1.429 . S
C2571 C2565 1.429 . S
C2571 C2572 1.523 . S
C2572 C2553 1.368 . S
C2572 C2566 1.368 . S
C2572 C2571 1.523 . S
C2573 C2557 1.429 . S
C2573 C2569 1.429 . S
C2573 C2574 1.523 . S
C2574 C2558 1.368 . S
C2574 C2570 1.368 . S
C2574 C2573 1.523 . S
H2575 C2550 0.950 . S
H2576 C2552 0.950 . S
H2577 C2553 0.949 . S
H2578 C2555 0.950 . S
H2579 C2557 0.950 . S
C2580 C2581 1.349 . S
C2580 C2582 1.327 . S
C2580 H2605 0.950 . S
C2581 C2580 1.349 . S
C2581 C2597 1.349 . S
C2582 C2580 1.327 . S
C2582 C2601 1.429 . S
C2582 H2606 0.950 . S
C2583 C2600 1.574 . S
C2583 C2602 1.368 . S
C2583 H2607 0.949 . S
H2584 C2588 0.949 . S
C2585 C2586 1.349 . S
C2585 C2587 1.327 . S
C2585 H2608 0.950 . S
C2586 C2585 1.349 . S
C2586 C2598 1.349 . S
C2587 C2585 1.327 . S
C2587 C2603 1.429 . S
C2587 H2609 0.950 . S
C2588 H2584 0.949 . S
C2588 C2596 1.574 . S
C2588 C2604 1.368 . S
H2589 C2597 0.950 . S
H2590 C2595 0.950 . S
H2591 C2596 0.949 . S
H2592 C2598 0.950 . S
H2593 C2599 0.950 . S
H2594 C2600 0.949 . S
C2595 H2590 0.950 . S
C2595 C2597 1.327 . S
C2595 C2601 1.429 . S
C2596 C2588 1.574 . S
C2596 H2591 0.949 . S
C2596 C2602 1.368 . S
C2597 C2581 1.349 . S
C2597 H2589 0.950 . S
C2597 C2595 1.327 . S
C2598 C2586 1.349 . S
C2598 H2592 0.950 . S
C2598 C2599 1.327 . S
C2599 H2593 0.950 . S
C2599 C2598 1.327 . S
C2599 C2603 1.429 . S
C2600 C2583 1.574 . S
C2600 H2594 0.949 . S
C2600 C2604 1.368 . S
C2601 C2582 1.429 . S
C2601 C2595 1.429 . S
C2601 C2602 1.523 . S
C2602 C2583 1.368 . S
C2602 C2596 1.368 . S
C2602 C2601 1.523 . S
C2603 C2587 1.429 . S
C2603 C2599 1.429 . S
C2603 C2604 1.523 . S
C2604 C2588 1.368 . S
C2604 C2600 1.368 . S
C2604 C2603 1.523 . S
H2605 C2580 0.950 . S
H2606 C2582 0.950 . S
H2607 C2583 0.949 . S
H2608 C2585 0.950 . S
H2609 C2587 0.950 . S
C2610 C2611 1.349 . S
C2610 C2612 1.327 . S
C2610 H2635 0.950 . S
C2611 C2610 1.349 . S
C2611 C2627 1.349 . S
C2612 C2610 1.327 . S
C2612 C2631 1.429 . S
C2612 H2636 0.950 . S
C2613 C2630 1.574 . S
C2613 C2632 1.368 . S
C2613 H2637 0.949 . S
H2614 C2618 0.949 . S
C2615 C2616 1.349 . S
C2615 C2617 1.327 . S
C2615 H2638 0.950 . S
C2616 C2615 1.349 . S
C2616 C2628 1.349 . S
C2617 C2615 1.327 . S
C2617 C2633 1.429 . S
C2617 H2639 0.950 . S
C2618 H2614 0.949 . S
C2618 C2626 1.574 . S
C2618 C2634 1.368 . S
H2619 C2627 0.950 . S
H2620 C2625 0.950 . S
H2621 C2626 0.949 . S
H2622 C2628 0.950 . S
H2623 C2629 0.950 . S
H2624 C2630 0.949 . S
C2625 H2620 0.950 . S
C2625 C2627 1.327 . S
C2625 C2631 1.429 . S
C2626 C2618 1.574 . S
C2626 H2621 0.949 . S
C2626 C2632 1.368 . S
C2627 C2611 1.349 . S
C2627 H2619 0.950 . S
C2627 C2625 1.327 . S
C2628 C2616 1.349 . S
C2628 H2622 0.950 . S
C2628 C2629 1.327 . S
C2629 H2623 0.950 . S
C2629 C2628 1.327 . S
C2629 C2633 1.429 . S
C2630 C2613 1.574 . S
C2630 H2624 0.949 . S
C2630 C2634 1.368 . S
C2631 C2612 1.429 . S
C2631 C2625 1.429 . S
C2631 C2632 1.523 . S
C2632 C2613 1.368 . S
C2632 C2626 1.368 . S
C2632 C2631 1.523 . S
C2633 C2617 1.429 . S
C2633 C2629 1.429 . S
C2633 C2634 1.523 . S
C2634 C2618 1.368 . S
C2634 C2630 1.368 . S
C2634 C2633 1.523 . S
H2635 C2610 0.950 . S
H2636 C2612 0.950 . S
H2637 C2613 0.949 . S
H2638 C2615 0.950 . S
H2639 C2617 0.950 . S
C2640 C2641 1.349 . S
C2640 C2642 1.327 . S
C2640 H2665 0.950 . S
C2641 C2640 1.349 . S
C2641 C2657 1.349 . S
C2642 C2640 1.327 . S
C2642 C2661 1.429 . S
C2642 H2666 0.950 . S
C2643 C2660 1.574 . S
C2643 C2662 1.368 . S
C2643 H2667 0.949 . S
H2644 C2648 0.949 . S
C2645 C2646 1.349 . S
C2645 C2647 1.327 . S
C2645 H2668 0.950 . S
C2646 C2645 1.349 . S
C2646 C2658 1.349 . S
C2647 C2645 1.327 . S
C2647 C2663 1.429 . S
C2647 H2669 0.950 . S
C2648 H2644 0.949 . S
C2648 C2656 1.574 . S
C2648 C2664 1.368 . S
H2649 C2657 0.950 . S
H2650 C2655 0.950 . S
H2651 C2656 0.949 . S
H2652 C2658 0.950 . S
H2653 C2659 0.950 . S
H2654 C2660 0.949 . S
C2655 H2650 0.950 . S
C2655 C2657 1.327 . S
C2655 C2661 1.429 . S
C2656 C2648 1.574 . S
C2656 H2651 0.949 . S
C2656 C2662 1.368 . S
C2657 C2641 1.349 . S
C2657 H2649 0.950 . S
C2657 C2655 1.327 . S
C2658 C2646 1.349 . S
C2658 H2652 0.950 . S
C2658 C2659 1.327 . S
C2659 H2653 0.950 . S
C2659 C2658 1.327 . S
C2659 C2663 1.429 . S
C2660 C2643 1.574 . S
C2660 H2654 0.949 . S
C2660 C2664 1.368 . S
C2661 C2642 1.429 . S
C2661 C2655 1.429 . S
C2661 C2662 1.523 . S
C2662 C2643 1.368 . S
C2662 C2656 1.368 . S
C2662 C2661 1.523 . S
C2663 C2647 1.429 . S
C2663 C2659 1.429 . S
C2663 C2664 1.523 . S
C2664 C2648 1.368 . S
C2664 C2660 1.368 . S
C2664 C2663 1.523 . S
H2665 C2640 0.950 . S
H2666 C2642 0.950 . S
H2667 C2643 0.949 . S
H2668 C2645 0.950 . S
H2669 C2647 0.950 . S
C2670 C2671 1.349 . S
C2670 C2672 1.327 . S
C2670 H2695 0.950 . S
C2671 C2670 1.349 . S
C2671 C2687 1.349 . S
C2672 C2670 1.327 . S
C2672 C2691 1.429 . S
C2672 H2696 0.950 . S
C2673 C2690 1.574 . S
C2673 C2692 1.368 . S
C2673 H2697 0.949 . S
H2674 C2678 0.949 . S
C2675 C2676 1.349 . S
C2675 C2677 1.327 . S
C2675 H2698 0.950 . S
C2676 C2675 1.349 . S
C2676 C2688 1.349 . S
C2677 C2675 1.327 . S
C2677 C2693 1.429 . S
C2677 H2699 0.950 . S
C2678 H2674 0.949 . S
C2678 C2686 1.574 . S
C2678 C2694 1.368 . S
H2679 C2687 0.950 . S
H2680 C2685 0.950 . S
H2681 C2686 0.949 . S
H2682 C2688 0.950 . S
H2683 C2689 0.950 . S
H2684 C2690 0.949 . S
C2685 H2680 0.950 . S
C2685 C2687 1.327 . S
C2685 C2691 1.429 . S
C2686 C2678 1.574 . S
C2686 H2681 0.949 . S
C2686 C2692 1.368 . S
C2687 C2671 1.349 . S
C2687 H2679 0.950 . S
C2687 C2685 1.327 . S
C2688 C2676 1.349 . S
C2688 H2682 0.950 . S
C2688 C2689 1.327 . S
C2689 H2683 0.950 . S
C2689 C2688 1.327 . S
C2689 C2693 1.429 . S
C2690 C2673 1.574 . S
C2690 H2684 0.949 . S
C2690 C2694 1.368 . S
C2691 C2672 1.429 . S
C2691 C2685 1.429 . S
C2691 C2692 1.523 . S
C2692 C2673 1.368 . S
C2692 C2686 1.368 . S
C2692 C2691 1.523 . S
C2693 C2677 1.429 . S
C2693 C2689 1.429 . S
C2693 C2694 1.523 . S
C2694 C2678 1.368 . S
C2694 C2690 1.368 . S
C2694 C2693 1.523 . S
H2695 C2670 0.950 . S
H2696 C2672 0.950 . S
H2697 C2673 0.949 . S
H2698 C2675 0.950 . S
H2699 C2677 0.950 . S
C2700 C2701 1.349 . S
C2700 C2702 1.327 . S
C2700 H2725 0.950 . S
C2701 C2700 1.349 . S
C2701 C2717 1.349 . S
C2702 C2700 1.327 . S
C2702 C2721 1.429 . S
C2702 H2726 0.950 . S
C2703 C2720 1.574 . S
C2703 C2722 1.368 . S
C2703 H2727 0.949 . S
H2704 C2708 0.949 . S
C2705 C2706 1.349 . S
C2705 C2707 1.327 . S
C2705 H2728 0.950 . S
C2706 C2705 1.349 . S
C2706 C2718 1.349 . S
C2707 C2705 1.327 . S
C2707 C2723 1.429 . S
C2707 H2729 0.950 . S
C2708 H2704 0.949 . S
C2708 C2716 1.574 . S
C2708 C2724 1.368 . S
H2709 C2717 0.950 . S
H2710 C2715 0.950 . S
H2711 C2716 0.949 . S
H2712 C2718 0.950 . S
H2713 C2719 0.950 . S
H2714 C2720 0.949 . S
C2715 H2710 0.950 . S
C2715 C2717 1.327 . S
C2715 C2721 1.429 . S
C2716 C2708 1.574 . S
C2716 H2711 0.949 . S
C2716 C2722 1.368 . S
C2717 C2701 1.349 . S
C2717 H2709 0.950 . S
C2717 C2715 1.327 . S
C2718 C2706 1.349 . S
C2718 H2712 0.950 . S
C2718 C2719 1.327 . S
C2719 H2713 0.950 . S
C2719 C2718 1.327 . S
C2719 C2723 1.429 . S
C2720 C2703 1.574 . S
C2720 H2714 0.949 . S
C2720 C2724 1.368 . S
C2721 C2702 1.429 . S
C2721 C2715 1.429 . S
C2721 C2722 1.523 . S
C2722 C2703 1.368 . S
C2722 C2716 1.368 . S
C2722 C2721 1.523 . S
C2723 C2707 1.429 . S
C2723 C2719 1.429 . S
C2723 C2724 1.523 . S
C2724 C2708 1.368 . S
C2724 C2720 1.368 . S
C2724 C2723 1.523 . S
H2725 C2700 0.950 . S
H2726 C2702 0.950 . S
H2727 C2703 0.949 . S
H2728 C2705 0.950 . S
H2729 C2707 0.950 . S
C2730 C2731 1.349 . S
C2730 C2732 1.327 . S
C2730 H2755 0.950 . S
C2731 C2730 1.349 . S
C2731 C2747 1.349 . S
C2732 C2730 1.327 . S
C2732 C2751 1.429 . S
C2732 H2756 0.950 . S
C2733 C2750 1.574 . S
C2733 C2752 1.368 . S
C2733 H2757 0.949 . S
H2734 C2738 0.949 . S
C2735 C2736 1.349 . S
C2735 C2737 1.327 . S
C2735 H2758 0.950 . S
C2736 C2735 1.349 . S
C2736 C2748 1.349 . S
C2737 C2735 1.327 . S
C2737 C2753 1.429 . S
C2737 H2759 0.950 . S
C2738 H2734 0.949 . S
C2738 C2746 1.574 . S
C2738 C2754 1.368 . S
H2739 C2747 0.950 . S
H2740 C2745 0.950 . S
H2741 C2746 0.949 . S
H2742 C2748 0.950 . S
H2743 C2749 0.950 . S
H2744 C2750 0.949 . S
C2745 H2740 0.950 . S
C2745 C2747 1.327 . S
C2745 C2751 1.429 . S
C2746 C2738 1.574 . S
C2746 H2741 0.949 . S
C2746 C2752 1.368 . S
C2747 C2731 1.349 . S
C2747 H2739 0.950 . S
C2747 C2745 1.327 . S
C2748 C2736 1.349 . S
C2748 H2742 0.950 . S
C2748 C2749 1.327 . S
C2749 H2743 0.950 . S
C2749 C2748 1.327 . S
C2749 C2753 1.429 . S
C2750 C2733 1.574 . S
C2750 H2744 0.949 . S
C2750 C2754 1.368 . S
C2751 C2732 1.429 . S
C2751 C2745 1.429 . S
C2751 C2752 1.523 . S
C2752 C2733 1.368 . S
C2752 C2746 1.368 . S
C2752 C2751 1.523 . S
C2753 C2737 1.429 . S
C2753 C2749 1.429 . S
C2753 C2754 1.523 . S
C2754 C2738 1.368 . S
C2754 C2750 1.368 . S
C2754 C2753 1.523 . S
H2755 C2730 0.950 . S
H2756 C2732 0.950 . S
H2757 C2733 0.949 . S
H2758 C2735 0.950 . S
H2759 C2737 0.950 . S
C2760 C2761 1.349 . S
C2760 C2762 1.327 . S
C2760 H2785 0.950 . S
C2761 C2760 1.349 . S
C2761 C2777 1.349 . S
C2762 C2760 1.327 . S
C2762 C2781 1.429 . S
C2762 H2786 0.950 . S
C2763 C2780 1.574 . S
C2763 C2782 1.368 . S
C2763 H2787 0.949 . S
H2764 C2768 0.949 . S
C2765 C2766 1.349 . S
C2765 C2767 1.327 . S
C2765 H2788 0.950 . S
C2766 C2765 1.349 . S
C2766 C2778 1.349 . S
C2767 C2765 1.327 . S
C2767 C2783 1.429 . S
C2767 H2789 0.950 . S
C2768 H2764 0.949 . S
C2768 C2776 1.574 . S
C2768 C2784 1.368 . S
H2769 C2777 0.950 . S
H2770 C2775 0.950 . S
H2771 C2776 0.949 . S
H2772 C2778 0.950 . S
H2773 C2779 0.950 . S
H2774 C2780 0.949 . S
C2775 H2770 0.950 . S
C2775 C2777 1.327 . S
C2775 C2781 1.429 . S
C2776 C2768 1.574 . S
C2776 H2771 0.949 . S
C2776 C2782 1.368 . S
C2777 C2761 1.349 . S
C2777 H2769 0.950 . S
C2777 C2775 1.327 . S
C2778 C2766 1.349 . S
C2778 H2772 0.950 . S
C2778 C2779 1.327 . S
C2779 H2773 0.950 . S
C2779 C2778 1.327 . S
C2779 C2783 1.429 . S
C2780 C2763 1.574 . S
C2780 H2774 0.949 . S
C2780 C2784 1.368 . S
C2781 C2762 1.429 . S
C2781 C2775 1.429 . S
C2781 C2782 1.523 . S
C2782 C2763 1.368 . S
C2782 C2776 1.368 . S
C2782 C2781 1.523 . S
C2783 C2767 1.429 . S
C2783 C2779 1.429 . S
C2783 C2784 1.523 . S
C2784 C2768 1.368 . S
C2784 C2780 1.368 . S
C2784 C2783 1.523 . S
H2785 C2760 0.950 . S
H2786 C2762 0.950 . S
H2787 C2763 0.949 . S
H2788 C2765 0.950 . S
H2789 C2767 0.950 . S
C2790 C2791 1.349 . S
C2790 C2792 1.327 . S
C2790 H2815 0.950 1_565 S
C2791 C2790 1.349 . S
C2791 C2807 1.349 . S
C2792 C2790 1.327 . S
C2792 C2811 1.429 . S
C2792 H2816 0.950 . S
C2793 C2810 1.574 . S
C2793 C2812 1.368 . S
C2793 H2817 0.949 . S
H2794 C2798 0.949 . S
C2795 C2796 1.349 . S
C2795 C2797 1.327 . S
C2795 H2818 0.950 . S
C2796 C2795 1.349 . S
C2796 C2808 1.349 . S
C2797 C2795 1.327 . S
C2797 C2813 1.429 . S
C2797 H2819 0.950 . S
C2798 H2794 0.949 . S
C2798 C2806 1.574 . S
C2798 C2814 1.368 . S
H2799 C2807 0.950 . S
H2800 C2805 0.950 . S
H2801 C2806 0.949 . S
H2802 C2808 0.950 . S
H2803 C2809 0.950 . S
H2804 C2810 0.949 . S
C2805 H2800 0.950 . S
C2805 C2807 1.327 . S
C2805 C2811 1.429 . S
C2806 C2798 1.574 . S
C2806 H2801 0.949 . S
C2806 C2812 1.368 . S
C2807 C2791 1.349 . S
C2807 H2799 0.950 . S
C2807 C2805 1.327 . S
C2808 C2796 1.349 . S
C2808 H2802 0.950 . S
C2808 C2809 1.327 . S
C2809 H2803 0.950 . S
C2809 C2808 1.327 . S
C2809 C2813 1.429 . S
C2810 C2793 1.574 . S
C2810 H2804 0.949 . S
C2810 C2814 1.368 . S
C2811 C2792 1.429 . S
C2811 C2805 1.429 . S
C2811 C2812 1.523 . S
C2812 C2793 1.368 . S
C2812 C2806 1.368 . S
C2812 C2811 1.523 . S
C2813 C2797 1.429 . S
C2813 C2809 1.429 . S
C2813 C2814 1.523 . S
C2814 C2798 1.368 . S
C2814 C2810 1.368 . S
C2814 C2813 1.523 . S
H2815 C2790 0.950 1_545 S
H2816 C2792 0.950 . S
H2817 C2793 0.949 . S
H2818 C2795 0.950 . S
H2819 C2797 0.950 . S
C2820 C2821 1.349 . S
C2820 C2822 1.327 . S
C2820 H2845 0.950 . S
C2821 C2820 1.349 . S
C2821 C2837 1.349 . S
C2822 C2820 1.327 . S
C2822 C2841 1.429 . S
C2822 H2846 0.950 . S
C2823 C2840 1.574 . S
C2823 C2842 1.368 . S
C2823 H2847 0.949 . S
H2824 C2828 0.949 . S
C2825 C2826 1.349 . S
C2825 C2827 1.327 . S
C2825 H2848 0.950 . S
C2826 C2825 1.349 . S
C2826 C2838 1.349 . S
C2827 C2825 1.327 . S
C2827 C2843 1.429 . S
C2827 H2849 0.950 . S
C2828 H2824 0.949 . S
C2828 C2836 1.574 . S
C2828 C2844 1.368 . S
H2829 C2837 0.950 . S
H2830 C2835 0.950 . S
H2831 C2836 0.949 . S
H2832 C2838 0.950 . S
H2833 C2839 0.950 . S
H2834 C2840 0.949 . S
C2835 H2830 0.950 . S
C2835 C2837 1.327 . S
C2835 C2841 1.429 . S
C2836 C2828 1.574 . S
C2836 H2831 0.949 . S
C2836 C2842 1.368 . S
C2837 C2821 1.349 . S
C2837 H2829 0.950 . S
C2837 C2835 1.327 . S
C2838 C2826 1.349 . S
C2838 H2832 0.950 . S
C2838 C2839 1.327 . S
C2839 H2833 0.950 . S
C2839 C2838 1.327 . S
C2839 C2843 1.429 . S
C2840 C2823 1.574 . S
C2840 H2834 0.949 . S
C2840 C2844 1.368 . S
C2841 C2822 1.429 . S
C2841 C2835 1.429 . S
C2841 C2842 1.523 . S
C2842 C2823 1.368 . S
C2842 C2836 1.368 . S
C2842 C2841 1.523 . S
C2843 C2827 1.429 . S
C2843 C2839 1.429 . S
C2843 C2844 1.523 . S
C2844 C2828 1.368 . S
C2844 C2840 1.368 . S
C2844 C2843 1.523 . S
H2845 C2820 0.950 . S
H2846 C2822 0.950 . S
H2847 C2823 0.949 . S
H2848 C2825 0.950 . S
H2849 C2827 0.950 . S
C2850 C2851 1.349 . S
C2850 C2852 1.327 . S
C2850 H2875 0.950 . S
C2851 C2850 1.349 . S
C2851 C2867 1.349 . S
C2852 C2850 1.327 . S
C2852 C2871 1.429 . S
C2852 H2876 0.950 . S
C2853 C2870 1.574 . S
C2853 C2872 1.368 . S
C2853 H2877 0.949 . S
H2854 C2858 0.949 . S
C2855 C2856 1.349 . S
C2855 C2857 1.327 . S
C2855 H2878 0.950 . S
C2856 C2855 1.349 . S
C2856 C2868 1.349 . S
C2857 C2855 1.327 . S
C2857 C2873 1.429 . S
C2857 H2879 0.950 . S
C2858 H2854 0.949 . S
C2858 C2866 1.574 . S
C2858 C2874 1.368 . S
H2859 C2867 0.950 . S
H2860 C2865 0.950 . S
H2861 C2866 0.949 . S
H2862 C2868 0.950 . S
H2863 C2869 0.950 . S
H2864 C2870 0.949 . S
C2865 H2860 0.950 . S
C2865 C2867 1.327 . S
C2865 C2871 1.429 . S
C2866 C2858 1.574 . S
C2866 H2861 0.949 . S
C2866 C2872 1.368 . S
C2867 C2851 1.349 . S
C2867 H2859 0.950 . S
C2867 C2865 1.327 . S
C2868 C2856 1.349 . S
C2868 H2862 0.950 . S
C2868 C2869 1.327 . S
C2869 H2863 0.950 . S
C2869 C2868 1.327 . S
C2869 C2873 1.429 . S
C2870 C2853 1.574 . S
C2870 H2864 0.949 . S
C2870 C2874 1.368 . S
C2871 C2852 1.429 . S
C2871 C2865 1.429 . S
C2871 C2872 1.523 . S
C2872 C2853 1.368 . S
C2872 C2866 1.368 . S
C2872 C2871 1.523 . S
C2873 C2857 1.429 . S
C2873 C2869 1.429 . S
C2873 C2874 1.523 . S
C2874 C2858 1.368 . S
C2874 C2870 1.368 . S
C2874 C2873 1.523 . S
H2875 C2850 0.950 . S
H2876 C2852 0.950 . S
H2877 C2853 0.949 . S
H2878 C2855 0.950 . S
H2879 C2857 0.950 . S
C2880 C2881 1.349 . S
C2880 C2882 1.327 . S
C2880 H2905 0.950 . S
C2881 C2880 1.349 . S
C2881 C2897 1.349 . S
C2882 C2880 1.327 . S
C2882 C2901 1.429 . S
C2882 H2906 0.950 . S
C2883 C2900 1.574 . S
C2883 C2902 1.368 . S
C2883 H2907 0.949 . S
H2884 C2888 0.949 . S
C2885 C2886 1.349 . S
C2885 C2887 1.327 . S
C2885 H2908 0.950 . S
C2886 C2885 1.349 . S
C2886 C2898 1.349 . S
C2887 C2885 1.327 . S
C2887 C2903 1.429 . S
C2887 H2909 0.950 . S
C2888 H2884 0.949 . S
C2888 C2896 1.574 . S
C2888 C2904 1.368 . S
H2889 C2897 0.950 . S
H2890 C2895 0.950 . S
H2891 C2896 0.949 . S
H2892 C2898 0.950 . S
H2893 C2899 0.950 . S
H2894 C2900 0.949 . S
C2895 H2890 0.950 . S
C2895 C2897 1.327 . S
C2895 C2901 1.429 . S
C2896 C2888 1.574 . S
C2896 H2891 0.949 . S
C2896 C2902 1.368 . S
C2897 C2881 1.349 . S
C2897 H2889 0.950 . S
C2897 C2895 1.327 . S
C2898 C2886 1.349 . S
C2898 H2892 0.950 . S
C2898 C2899 1.327 . S
C2899 H2893 0.950 . S
C2899 C2898 1.327 . S
C2899 C2903 1.429 . S
C2900 C2883 1.574 . S
C2900 H2894 0.949 . S
C2900 C2904 1.368 . S
C2901 C2882 1.429 . S
C2901 C2895 1.429 . S
C2901 C2902 1.523 . S
C2902 C2883 1.368 . S
C2902 C2896 1.368 . S
C2902 C2901 1.523 . S
C2903 C2887 1.429 . S
C2903 C2899 1.429 . S
C2903 C2904 1.523 . S
C2904 C2888 1.368 . S
C2904 C2900 1.368 . S
C2904 C2903 1.523 . S
H2905 C2880 0.950 . S
H2906 C2882 0.950 . S
H2907 C2883 0.949 . S
H2908 C2885 0.950 . S
H2909 C2887 0.950 . S
C2910 C2911 1.349 . S
C2910 C2912 1.327 . S
C2910 H2935 0.950 . S
C2911 C2910 1.349 . S
C2911 C2927 1.349 . S
C2912 C2910 1.327 . S
C2912 C2931 1.429 . S
C2912 H2936 0.950 . S
C2913 C2930 1.574 . S
C2913 C2932 1.368 . S
C2913 H2937 0.949 . S
H2914 C2918 0.949 . S
C2915 C2916 1.349 . S
C2915 C2917 1.327 . S
C2915 H2938 0.950 . S
C2916 C2915 1.349 . S
C2916 C2928 1.349 . S
C2917 C2915 1.327 . S
C2917 C2933 1.429 . S
C2917 H2939 0.950 . S
C2918 H2914 0.949 . S
C2918 C2926 1.574 . S
C2918 C2934 1.368 . S
H2919 C2927 0.950 . S
H2920 C2925 0.950 . S
H2921 C2926 0.949 . S
H2922 C2928 0.950 . S
H2923 C2929 0.950 . S
H2924 C2930 0.949 . S
C2925 H2920 0.950 . S
C2925 C2927 1.327 . S
C2925 C2931 1.429 . S
C2926 C2918 1.574 . S
C2926 H2921 0.949 . S
C2926 C2932 1.368 . S
C2927 C2911 1.349 . S
C2927 H2919 0.950 . S
C2927 C2925 1.327 . S
C2928 C2916 1.349 . S
C2928 H2922 0.950 . S
C2928 C2929 1.327 . S
C2929 H2923 0.950 . S
C2929 C2928 1.327 . S
C2929 C2933 1.429 . S
C2930 C2913 1.574 . S
C2930 H2924 0.949 . S
C2930 C2934 1.368 . S
C2931 C2912 1.429 . S
C2931 C2925 1.429 . S
C2931 C2932 1.523 . S
C2932 C2913 1.368 . S
C2932 C2926 1.368 . S
C2932 C2931 1.523 . S
C2933 C2917 1.429 . S
C2933 C2929 1.429 . S
C2933 C2934 1.523 . S
C2934 C2918 1.368 . S
C2934 C2930 1.368 . S
C2934 C2933 1.523 . S
H2935 C2910 0.950 . S
H2936 C2912 0.950 . S
H2937 C2913 0.949 . S
H2938 C2915 0.950 . S
H2939 C2917 0.950 . S
C2940 C2941 1.349 . S
C2940 C2942 1.327 . S
C2940 H2965 0.950 . S
C2941 C2940 1.349 . S
C2941 C2957 1.349 . S
C2942 C2940 1.327 . S
C2942 C2961 1.429 . S
C2942 H2966 0.950 . S
C2943 C2960 1.574 . S
C2943 C2962 1.368 . S
C2943 H2967 0.949 . S
H2944 C2948 0.949 . S
C2945 C2946 1.349 . S
C2945 C2947 1.327 . S
C2945 H2968 0.950 . S
C2946 C2945 1.349 . S
C2946 C2958 1.349 . S
C2947 C2945 1.327 . S
C2947 C2963 1.429 . S
C2947 H2969 0.950 . S
C2948 H2944 0.949 . S
C2948 C2956 1.574 . S
C2948 C2964 1.368 . S
H2949 C2957 0.950 . S
H2950 C2955 0.950 . S
H2951 C2956 0.949 . S
H2952 C2958 0.950 . S
H2953 C2959 0.950 . S
H2954 C2960 0.949 . S
C2955 H2950 0.950 . S
C2955 C2957 1.327 . S
C2955 C2961 1.429 . S
C2956 C2948 1.574 . S
C2956 H2951 0.949 . S
C2956 C2962 1.368 . S
C2957 C2941 1.349 . S
C2957 H2949 0.950 . S
C2957 C2955 1.327 . S
C2958 C2946 1.349 . S
C2958 H2952 0.950 . S
C2958 C2959 1.327 . S
C2959 H2953 0.950 . S
C2959 C2958 1.327 . S
C2959 C2963 1.429 . S
C2960 C2943 1.574 . S
C2960 H2954 0.949 . S
C2960 C2964 1.368 . S
C2961 C2942 1.429 . S
C2961 C2955 1.429 . S
C2961 C2962 1.523 . S
C2962 C2943 1.368 . S
C2962 C2956 1.368 . S
C2962 C2961 1.523 . S
C2963 C2947 1.429 . S
C2963 C2959 1.429 . S
C2963 C2964 1.523 . S
C2964 C2948 1.368 . S
C2964 C2960 1.368 . S
C2964 C2963 1.523 . S
H2965 C2940 0.950 . S
H2966 C2942 0.950 . S
H2967 C2943 0.949 . S
H2968 C2945 0.950 . S
H2969 C2947 0.950 . S
C2970 C2971 1.349 . S
C2970 C2972 1.327 . S
C2970 H2995 0.950 . S
C2971 C2970 1.349 . S
C2971 C2987 1.349 . S
C2972 C2970 1.327 . S
C2972 C2991 1.429 . S
C2972 H2996 0.950 . S
C2973 C2990 1.574 . S
C2973 C2992 1.368 . S
C2973 H2997 0.949 . S
H2974 C2978 0.949 . S
C2975 C2976 1.349 . S
C2975 C2977 1.327 . S
C2975 H2998 0.950 . S
C2976 C2975 1.349 . S
C2976 C2988 1.349 . S
C2977 C2975 1.327 . S
C2977 C2993 1.429 . S
C2977 H2999 0.950 . S
C2978 H2974 0.949 . S
C2978 C2986 1.574 . S
C2978 C2994 1.368 . S
H2979 C2987 0.950 . S
H2980 C2985 0.950 . S
H2981 C2986 0.949 . S
H2982 C2988 0.950 . S
H2983 C2989 0.950 . S
H2984 C2990 0.949 . S
C2985 H2980 0.950 . S
C2985 C2987 1.327 . S
C2985 C2991 1.429 . S
C2986 C2978 1.574 . S
C2986 H2981 0.949 . S
C2986 C2992 1.368 . S
C2987 C2971 1.349 . S
C2987 H2979 0.950 . S
C2987 C2985 1.327 . S
C2988 C2976 1.349 . S
C2988 H2982 0.950 . S
C2988 C2989 1.327 . S
C2989 H2983 0.950 . S
C2989 C2988 1.327 . S
C2989 C2993 1.429 . S
C2990 C2973 1.574 . S
C2990 H2984 0.949 . S
C2990 C2994 1.368 . S
C2991 C2972 1.429 . S
C2991 C2985 1.429 . S
C2991 C2992 1.523 . S
C2992 C2973 1.368 . S
C2992 C2986 1.368 . S
C2992 C2991 1.523 . S
C2993 C2977 1.429 . S
C2993 C2989 1.429 . S
C2993 C2994 1.523 . S
C2994 C2978 1.368 . S
C2994 C2990 1.368 . S
C2994 C2993 1.523 . S
H2995 C2970 0.950 . S
H2996 C2972 0.950 . S
H2997 C2973 0.949 . S
H2998 C2975 0.950 . S
H2999 C2977 0.950 . S
C3000 C3001 1.349 . S
C3000 C3002 1.327 . S
C3000 H3025 0.950 . S
C3001 C3000 1.349 . S
C3001 C3017 1.349 . S
C3002 C3000 1.327 . S
C3002 C3021 1.429 . S
C3002 H3026 0.950 . S
C3003 C3020 1.574 . S
C3003 C3022 1.368 . S
C3003 H3027 0.949 . S
H3004 C3008 0.949 . S
C3005 C3006 1.349 . S
C3005 C3007 1.327 . S
C3005 H3028 0.950 . S
C3006 C3005 1.349 . S
C3006 C3018 1.349 . S
C3007 C3005 1.327 . S
C3007 C3023 1.429 . S
C3007 H3029 0.950 . S
C3008 H3004 0.949 . S
C3008 C3016 1.574 . S
C3008 C3024 1.368 . S
H3009 C3017 0.950 . S
H3010 C3015 0.950 . S
H3011 C3016 0.949 . S
H3012 C3018 0.950 . S
H3013 C3019 0.950 . S
H3014 C3020 0.949 . S
C3015 H3010 0.950 . S
C3015 C3017 1.327 . S
C3015 C3021 1.429 . S
C3016 C3008 1.574 . S
C3016 H3011 0.949 . S
C3016 C3022 1.368 . S
C3017 C3001 1.349 . S
C3017 H3009 0.950 . S
C3017 C3015 1.327 . S
C3018 C3006 1.349 . S
C3018 H3012 0.950 . S
C3018 C3019 1.327 . S
C3019 H3013 0.950 . S
C3019 C3018 1.327 . S
C3019 C3023 1.429 . S
C3020 C3003 1.574 . S
C3020 H3014 0.949 . S
C3020 C3024 1.368 . S
C3021 C3002 1.429 . S
C3021 C3015 1.429 . S
C3021 C3022 1.523 . S
C3022 C3003 1.368 . S
C3022 C3016 1.368 . S
C3022 C3021 1.523 . S
C3023 C3007 1.429 . S
C3023 C3019 1.429 . S
C3023 C3024 1.523 . S
C3024 C3008 1.368 . S
C3024 C3020 1.368 . S
C3024 C3023 1.523 . S
H3025 C3000 0.950 . S
H3026 C3002 0.950 . S
H3027 C3003 0.949 . S
H3028 C3005 0.950 . S
H3029 C3007 0.950 . S
C3030 C3031 1.349 . S
C3030 C3032 1.327 . S
C3030 H3055 0.950 . S
C3031 C3030 1.349 . S
C3031 C3047 1.349 . S
C3032 C3030 1.327 . S
C3032 C3051 1.429 . S
C3032 H3056 0.950 . S
C3033 C3050 1.574 . S
C3033 C3052 1.368 . S
C3033 H3057 0.949 . S
H3034 C3038 0.949 . S
C3035 C3036 1.349 . S
C3035 C3037 1.327 . S
C3035 H3058 0.950 . S
C3036 C3035 1.349 . S
C3036 C3048 1.349 . S
C3037 C3035 1.327 . S
C3037 C3053 1.429 . S
C3037 H3059 0.950 . S
C3038 H3034 0.949 . S
C3038 C3046 1.574 . S
C3038 C3054 1.368 . S
H3039 C3047 0.950 . S
H3040 C3045 0.950 . S
H3041 C3046 0.949 . S
H3042 C3048 0.950 . S
H3043 C3049 0.950 . S
H3044 C3050 0.949 . S
C3045 H3040 0.950 . S
C3045 C3047 1.327 . S
C3045 C3051 1.429 . S
C3046 C3038 1.574 . S
C3046 H3041 0.949 . S
C3046 C3052 1.368 . S
C3047 C3031 1.349 . S
C3047 H3039 0.950 . S
C3047 C3045 1.327 . S
C3048 C3036 1.349 . S
C3048 H3042 0.950 . S
C3048 C3049 1.327 . S
C3049 H3043 0.950 . S
C3049 C3048 1.327 . S
C3049 C3053 1.429 . S
C3050 C3033 1.574 . S
C3050 H3044 0.949 . S
C3050 C3054 1.368 . S
C3051 C3032 1.429 . S
C3051 C3045 1.429 . S
C3051 C3052 1.523 . S
C3052 C3033 1.368 . S
C3052 C3046 1.368 . S
C3052 C3051 1.523 . S
C3053 C3037 1.429 . S
C3053 C3049 1.429 . S
C3053 C3054 1.523 . S
C3054 C3038 1.368 . S
C3054 C3050 1.368 . S
C3054 C3053 1.523 . S
H3055 C3030 0.950 . S
H3056 C3032 0.950 . S
H3057 C3033 0.949 . S
H3058 C3035 0.950 . S
H3059 C3037 0.950 . S
C901 C76 1.150 . S
C906 C652 1.016 . S
C931 C4 1.139 . S
C936 C668 1.012 . S
C966 C651 1.138 . S
C961 C38 1.282 . S
C996 C676 1.116 . S
C991 C74 1.266 . S
C1021 C2 1.223 . S
C1026 C685 1.094 . S
C1056 C688 0.991 . S
C1051 C40 1.107 . S
C1081 C182 1.263 . S
C1086 C694 1.111 . S
C1116 C710 1.031 . S
C1111 C112 1.164 . S
C1146 C693 1.023 . S
C1141 C148 1.145 . S
C1171 C184 1.128 . S
C1176 C718 1.003 . S
C1206 C727 1.112 . S
C1201 C110 1.245 . S
C1236 C730 1.085 . S
C1231 C146 1.221 . S
C1266 C739 1.016 . S
C1261 C292 1.150 . S
C1296 C751 1.013 . S
C1291 C220 1.139 . S
C1326 C748 1.139 . S
C1321 C254 1.283 . S
C1351 C290 1.266 . S
C1356 C757 1.117 . S
C1386 C756 1.094 . S
C1381 C218 1.224 . S
C1411 C256 1.107 . S
C1416 C773 0.991 . S
C1446 C778 1.112 . S
C1441 C398 1.264 . S
C1476 C794 1.031 . S
C1471 C328 1.164 . S
C1501 C364 1.145 . S
C1506 C777 1.023 . S
C1536 C802 1.012 . S
C1531 C400 1.128 . S
C1566 C811 1.120 . S
C1561 C326 1.245 . S
C1591 C362 1.222 . S
C1596 C814 1.096 . S
C1621 C508 1.150 . S
C1626 C823 1.017 . S
C1656 C835 1.012 . S
C1651 C436 1.139 . S
C1686 C832 1.139 . S
C1681 C470 1.283 . S
C1711 C506 1.266 . S
C1716 C841 1.132 . S
C1746 C840 1.103 . S
C1741 C434 1.224 . S
C1771 C472 1.107 . S
C1776 C857 0.997 . S
C1806 C862 1.111 . S
C1801 C614 1.263 . S
C1836 C878 1.031 . S
C1831 C544 1.164 . S
C1861 C580 1.145 . S
C1866 C861 1.023 . S
C1896 C883 1.003 . S
C1891 C616 1.129 . S
C1926 C882 1.112 . S
C1921 C542 1.245 . S
C1956 C899 1.085 . S
C1951 C578 1.221 . S
C1986 C664 1.442 . S
C1981 C399 1.537 . S
C2011 C338 1.541 . S
C2016 C667 1.497 1_655 S
C2046 C655 1.419 . S
C2041 C374 1.450 . S
C2071 C626 1.493 . S
C2076 C672 1.465 . S
C2101 C543 1.625 . S
C2106 C673 1.510 . S
C2136 C689 1.392 . S
C2131 C579 1.486 . S
C2166 C706 1.546 1_565 S
C2161 C518 1.569 . S
C2196 C709 1.381 . S
C2191 C446 1.405 . S
C2221 C471 1.556 . S
C2226 C697 1.455 . S
C2256 C714 1.499 . S
C2251 C291 1.602 . S
C2281 C219 1.478 . S
C2286 C715 1.373 . S
C2311 C266 1.522 . S
C2316 C731 1.494 . S
C2341 C615 1.537 1_655 S
C2346 C735 1.442 . S
C2371 C554 1.541 . S
C2376 C752 1.519 . S
C2406 C736 1.419 . S
C2401 C590 1.450 . S
C2436 C769 1.465 . S
C2431 C194 1.493 . S
C2466 C760 1.510 . S
C2461 C111 1.624 . S
C2491 C147 1.487 . S
C2496 C772 1.393 . S
C2526 C790 1.547 . S
C2521 C86 1.570 . S
C2556 C793 1.381 . S
C2551 C14 1.405 . S
C2581 C39 1.556 . S
C2586 C781 1.455 . S
C2616 C798 1.500 . S
C2611 C507 1.602 . S
C2646 C799 1.373 . S
C2641 C435 1.478 1_655 S
C2676 C815 1.494 . S
C2671 C482 1.521 . S
C2706 C819 1.441 . S
C2701 C183 1.536 . S
C2736 C836 1.519 . S
C2731 C122 1.541 . S
C2761 C158 1.450 . S
C2766 C820 1.419 . S
C2791 C410 1.493 1_565 S
C2796 C853 1.466 . S
C2821 C327 1.624 . S
C2826 C844 1.510 . S
C2856 C856 1.393 . S
C2851 C363 1.486 . S
C2881 C302 1.569 . S
C2886 C874 1.546 . S
C2911 C230 1.405 . S
C2916 C877 1.381 . S
C2946 C865 1.454 . S
C2941 C255 1.556 1_565 S
C2976 C895 1.500 . S
C2971 C75 1.602 . S
C3006 C886 1.373 . S
C3001 C3 1.478 . S
C3031 C50 1.521 . S
C3036 C898 1.494 . S
