# Generated by pormake.
# Topology zzz, (3,6)-cn, num edge types: 1
# Building blocks:
#     Node 0, Type 0, BuildingBlock: OLANEW_clean_sbu_2, # of connection points: 3
#     Node 1, Type 0, BuildingBlock: OLANEW_clean_sbu_2, # of connection points: 3
#     Node 2, Type 0, BuildingBlock: OLANEW_clean_sbu_2, # of connection points: 3
#     Node 3, Type 0, BuildingBlock: OLANEW_clean_sbu_2, # of connection points: 3
#     Node 4, Type 0, BuildingBlock: OLANEW_clean_sbu_2, # of connection points: 3
#     Node 5, Type 0, BuildingBlock: OLANEW_clean_sbu_2, # of connection points: 3
#     Node 6, Type 0, BuildingBlock: OLANEW_clean_sbu_2, # of connection points: 3
#     Node 7, Type 0, BuildingBlock: OLANEW_clean_sbu_2, # of connection points: 3
#     Node 8, Type 1, BuildingBlock: BETFEN_clean_sbu_0, # of connection points: 6
#     Node 9, Type 1, BuildingBlock: BETFEN_clean_sbu_0, # of connection points: 6
#     Node 10, Type 1, BuildingBlock: BETFEN_clean_sbu_0, # of connection points: 6
#     Node 11, Type 1, BuildingBlock: BETFEN_clean_sbu_0, # of connection points: 6
#     Edge 12, Type (0, 1), BuildingBlock: KIFKEQ_clean_linker_1, # of connection points: 2
#     Edge 13, Type (0, 1), BuildingBlock: KIFKEQ_clean_linker_1, # of connection points: 2
#     Edge 14, Type (0, 1), BuildingBlock: KIFKEQ_clean_linker_1, # of connection points: 2
#     Edge 15, Type (0, 1), BuildingBlock: KIFKEQ_clean_linker_1, # of connection points: 2
#     Edge 16, Type (0, 1), BuildingBlock: KIFKEQ_clean_linker_1, # of connection points: 2
#     Edge 17, Type (0, 1), BuildingBlock: KIFKEQ_clean_linker_1, # of connection points: 2
#     Edge 18, Type (0, 1), BuildingBlock: KIFKEQ_clean_linker_1, # of connection points: 2
#     Edge 19, Type (0, 1), BuildingBlock: KIFKEQ_clean_linker_1, # of connection points: 2
#     Edge 20, Type (0, 1), BuildingBlock: KIFKEQ_clean_linker_1, # of connection points: 2
#     Edge 21, Type (0, 1), BuildingBlock: KIFKEQ_clean_linker_1, # of connection points: 2
#     Edge 22, Type (0, 1), BuildingBlock: KIFKEQ_clean_linker_1, # of connection points: 2
#     Edge 23, Type (0, 1), BuildingBlock: KIFKEQ_clean_linker_1, # of connection points: 2
#     Edge 24, Type (0, 1), BuildingBlock: KIFKEQ_clean_linker_1, # of connection points: 2
#     Edge 25, Type (0, 1), BuildingBlock: KIFKEQ_clean_linker_1, # of connection points: 2
#     Edge 26, Type (0, 1), BuildingBlock: KIFKEQ_clean_linker_1, # of connection points: 2
#     Edge 27, Type (0, 1), BuildingBlock: KIFKEQ_clean_linker_1, # of connection points: 2
#     Edge 28, Type (0, 1), BuildingBlock: KIFKEQ_clean_linker_1, # of connection points: 2
#     Edge 29, Type (0, 1), BuildingBlock: KIFKEQ_clean_linker_1, # of connection points: 2
#     Edge 30, Type (0, 1), BuildingBlock: KIFKEQ_clean_linker_1, # of connection points: 2
#     Edge 31, Type (0, 1), BuildingBlock: KIFKEQ_clean_linker_1, # of connection points: 2
#     Edge 32, Type (0, 1), BuildingBlock: KIFKEQ_clean_linker_1, # of connection points: 2
#     Edge 33, Type (0, 1), BuildingBlock: KIFKEQ_clean_linker_1, # of connection points: 2
#     Edge 34, Type (0, 1), BuildingBlock: KIFKEQ_clean_linker_1, # of connection points: 2
#     Edge 35, Type (0, 1), BuildingBlock: KIFKEQ_clean_linker_1, # of connection points: 2
# Relax obj value: 0.251
# Max RMSD: 0.191
# Mean RMSD: 0.172
data_MOF--net-zzz--node1-OLANEW_clean_sbu_2--node2-BETFEN_clean_sbu_0--edge1-KIFKEQ_clean_linker_1
_symmetry_space_group_name_H-M    P1
_symmetry_Int_Tables_number       1
_symmetry_cell_setting            triclinic
loop_
_symmetry_equiv_pos_as_xyz
'x, y, z'
_cell_length_a     57.606413
_cell_length_b     57.640987
_cell_length_c     15.402421
_cell_angle_alpha  89.866269
_cell_angle_beta   90.024871
_cell_angle_gamma 90.012034
loop_
_atom_site_label
_atom_site_type_symbol
_atom_site_fract_x
_atom_site_fract_y
_atom_site_fract_z
_atom_type_partial_charge
O0 O 0.71464 0.58319 0.21178 0.0
Cd1 Cd 0.67663 0.59926 0.24796 0.0
O2 O 0.71771 0.57152 0.34696 0.0
Cd3 Cd 0.73847 0.55648 0.45151 0.0
O4 O 0.76959 0.54106 0.50742 0.0
C5 C 0.7821 0.55264 0.55957 0.0
O6 O 0.77537 0.57353 0.58253 0.0
C7 C 0.72604 0.5727 0.27056 0.0
C8 C 0.64279 0.58195 0.1362 0.0
O9 O 0.65316 0.60114 0.11984 0.0
O10 O 0.64827 0.57107 0.20594 0.0
O11 O 0.96829 0.72296 0.36949 0.0
Cd12 Cd 0.97059 0.68392 0.43015 0.0
O13 O 0.00598 0.72147 0.34818 0.0
Cd14 Cd 0.0373 0.74171 0.32352 0.0
O15 O 0.04108 0.77803 0.35893 0.0
C16 C 0.03448 0.78235 0.4359 0.0
O17 O 0.0285 0.76494 0.48642 0.0
C18 C 0.98688 0.73247 0.34306 0.0
C19 C 0.97498 0.65078 0.30008 0.0
O20 O 0.95499 0.65641 0.32986 0.0
O21 O 0.9929 0.66081 0.33204 0.0
O22 O 0.75877 0.86347 0.03306 0.0
Cd23 Cd 0.79684 0.8463 0.05792 0.0
O24 O 0.75531 0.86703 0.17434 0.0
Cd25 Cd 0.73398 0.87735 0.28466 0.0
O26 O 0.7027 0.89289 0.33828 0.0
C27 C 0.70306 0.91345 0.36773 0.0
O28 O 0.72284 0.92479 0.37018 0.0
C29 C 0.74742 0.87062 0.09834 0.0
C30 C 0.83003 0.8747 0.98052 0.0
O31 O 0.8225 0.85656 0.94161 0.0
O32 O 0.82225 0.8791 0.05663 0.0
O33 O 0.61945 0.77969 0.11562 0.0
Cd34 Cd 0.63428 0.81852 0.14547 0.0
O35 O 0.59609 0.78408 0.22691 0.0
Cd36 Cd 0.57054 0.76892 0.31489 0.0
O37 O 0.55345 0.73851 0.36936 0.0
C38 C 0.56675 0.72264 0.39778 0.0
O39 O 0.58931 0.72598 0.39573 0.0
C40 C 0.60315 0.772 0.16313 0.0
C41 C 0.60793 0.85027 0.05093 0.0
O42 O 0.62676 0.84183 0.0199 0.0
O43 O 0.60187 0.84412 0.12767 0.0
O44 O 0.23833 0.58074 0.19417 0.0
Cd45 Cd 0.27682 0.59129 0.14137 0.0
O46 O 0.24819 0.54386 0.1991 0.0
Cd47 Cd 0.23504 0.50846 0.21235 0.0
O48 O 0.2013 0.49343 0.18114 0.0
C49 C 0.19231 0.50275 0.11427 0.0
O50 O 0.20439 0.51844 0.07176 0.0
C51 C 0.23324 0.55978 0.211 0.0
C52 C 0.31131 0.5766 0.25572 0.0
O53 O 0.30081 0.59597 0.26668 0.0
O54 O 0.30554 0.56414 0.19037 0.0
O55 O 0.07978 0.26439 0.30255 0.0
Cd56 Cd 0.09066 0.30427 0.26811 0.0
O57 O 0.07091 0.25858 0.16562 0.0
Cd58 Cd 0.06017 0.23437 0.06444 0.0
O59 O 0.04944 0.2005 0.01649 0.0
C60 C 0.0285 0.19656 0.99526 0.0
O61 O 0.01333 0.21355 0.99842 0.0
C62 C 0.07199 0.2512 0.24341 0.0
C63 C 0.06782 0.33451 0.38015 0.0
O64 O 0.05843 0.32815 0.30859 0.0
O65 O 0.08815 0.32682 0.39801 0.0
O66 O 0.21958 0.96021 0.16607 0.0
Cd67 Cd 0.18059 0.95962 0.10463 0.0
O68 O 0.22736 0.98793 0.07291 0.0
Cd69 Cd 0.25277 0.00964 0.00626 0.0
O70 O 0.28738 0.01784 0.95873 0.0
C71 C 0.30257 0.00222 0.97152 0.0
O72 O 0.2963 0.98277 0.00945 0.0
C73 C 0.2338 0.97485 0.13505 0.0
C74 C 0.14799 0.96513 0.2359 0.0
O75 O 0.1539 0.94487 0.20986 0.0
O76 O 0.15728 0.98277 0.19894 0.0
O77 O 0.47732 0.24263 0.14351 0.0
Cd78 Cd 0.46945 0.20467 0.08027 0.0
O79 O 0.44333 0.25367 0.09395 0.0
Cd80 Cd 0.42026 0.28264 0.06457 0.0
O81 O 0.41989 0.31958 0.03524 0.0
C82 C 0.41351 0.32692 0.96122 0.0
O83 O 0.40536 0.31206 0.90429 0.0
C84 C 0.46194 0.25824 0.13494 0.0
C85 C 0.47814 0.1691 0.19835 0.0
O86 O 0.49394 0.17609 0.14586 0.0
O87 O 0.45821 0.17892 0.19474 0.0
Pr88 Pr 0.99081 0.97797 0.81249 0.0
Pr89 Pr 0.98745 -0.00083 0.62366 0.0
C90 C 0.98406 0.96117 0.97387 0.0
C91 C 0.98737 0.93918 0.02037 0.0
C92 C 0.99857 0.92048 0.98016 0.0
C93 C -0.00018 0.89896 0.02193 0.0
C94 C 0.98975 0.89576 0.10437 0.0
C95 C 0.97893 0.91473 0.14495 0.0
C96 C 0.97775 0.93627 0.10319 0.0
C97 C 0.03274 0.98129 0.72366 0.0
C98 C 0.9951 0.94336 0.6438 0.0
C99 C 0.99093 0.02336 0.47495 0.0
C100 C 0.99935 0.04655 0.44943 0.0
C101 C 0.99243 0.06645 0.49513 0.0
C102 C 0.00062 0.0883 0.47074 0.0
C103 C 0.016 0.09071 0.40051 0.0
C104 C 0.02312 0.07076 0.35539 0.0
C105 C 0.0148 0.04887 0.37957 0.0
C106 C 0.94686 0.9794 0.68915 0.0
C107 C 0.99006 0.03532 0.79276 0.0
O108 O 0.96816 0.96083 0.91321 0.0
O109 O 0.00282 0.97252 0.95118 0.0
O110 O 0.0168 0.9963 0.72302 0.0
O111 O 0.02786 0.96424 0.77608 0.0
O112 O 0.00068 0.96169 0.59655 0.0
O113 O 0.98631 0.94533 0.72295 0.0
O114 O 0.00674 0.00843 0.50004 0.0
O115 O 0.97194 0.02262 0.52175 0.0
O116 O 0.96078 0.99201 0.73092 0.0
O117 O 0.95329 0.97723 0.60877 0.0
O118 O 0.99002 0.01746 0.84672 0.0
O119 O 0.98952 0.03281 0.70758 0.0
H120 H 0.00585 0.9224 0.91566 0.0
H121 H 0.008 0.88463 0.98843 0.0
H122 H 0.97123 0.91289 0.20874 0.0
H123 H 0.96893 0.95053 0.13485 0.0
H124 H 0.98071 0.06516 0.54987 0.0
H125 H 0.99511 0.10331 0.50757 0.0
H126 H 0.03484 0.07211 0.30065 0.0
H127 H 0.02043 0.03373 0.34368 0.0
Pr128 Pr 0.52091 0.00373 0.73674 0.0
Pr129 Pr 0.49755 0.98966 0.56167 0.0
C130 C 0.5475 0.00603 0.88032 0.0
C131 C 0.56689 0.99197 0.91267 0.0
C132 C 0.5794 0.99889 0.98617 0.0
C133 C 0.59803 0.98548 0.01605 0.0
C134 C 0.60418 0.96486 0.97314 0.0
C135 C 0.59145 0.95797 0.89972 0.0
C136 C 0.57309 0.97151 0.86942 0.0
C137 C 0.51095 0.04026 0.6245 0.0
C138 C 0.55292 0.98374 0.57307 0.0
C139 C 0.47219 0.98789 0.41475 0.0
C140 C 0.44752 0.98645 0.38775 0.0
C141 C 0.43636 0.96484 0.38022 0.0
C142 C 0.41317 0.96354 0.35397 0.0
C143 C 0.40062 0.98378 0.33407 0.0
C144 C 0.41185 0.00537 0.3408 0.0
C145 C 0.43504 0.00668 0.36712 0.0
C146 C 0.50854 0.95267 0.67092 0.0
C147 C 0.46448 0.00524 0.73245 0.0
O148 O 0.52736 0.99558 0.87829 0.0
O149 O 0.55171 0.01819 0.81025 0.0
O150 O 0.51923 0.02095 0.60245 0.0
O151 O 0.50858 0.04183 0.70822 0.0
O152 O 0.53621 0.98954 0.51856 0.0
O153 O 0.54966 0.98401 0.65798 0.0
O154 O 0.47918 0.00737 0.44982 0.0
O155 O 0.48131 0.96952 0.45149 0.0
O156 O 0.50024 0.97188 0.69468 0.0
O157 O 0.50957 0.95136 0.58674 0.0
O158 O 0.48275 0.00466 0.78399 0.0
O159 O 0.46611 0.00203 0.64761 0.0
H160 H 0.57483 0.01469 0.02014 0.0
H161 H 0.60752 0.99112 0.07292 0.0
H162 H 0.59602 0.94236 0.86456 0.0
H163 H 0.56379 0.96606 0.8119 0.0
H164 H 0.44554 0.94888 0.39432 0.0
H165 H 0.40516 0.94661 0.34807 0.0
H166 H 0.40262 0.02131 0.32671 0.0
H167 H 0.44318 0.02359 0.3714 0.0
Pr168 Pr 0.4808 0.53834 0.7718 0.0
Pr169 Pr 0.4902 0.51573 0.59251 0.0
C170 C 0.48458 0.5626 0.92028 0.0
C171 C 0.4976 0.58343 0.94612 0.0
C172 C 0.50625 0.58542 0.03087 0.0
C173 C 0.51893 0.60505 0.0554 0.0
C174 C 0.52311 0.62302 0.99542 0.0
C175 C 0.51475 0.62072 0.91009 0.0
C176 C 0.50216 0.60111 0.88565 0.0
C177 C 0.44296 0.53811 0.65958 0.0
C178 C 0.50356 0.56968 0.61068 0.0
C179 C 0.48925 0.49241 0.44122 0.0
C180 C 0.4867 0.46831 0.4103 0.0
C181 C 0.50402 0.45862 0.3576 0.0
C182 C 0.502 0.43583 0.32756 0.0
C183 C 0.48245 0.4224 0.34893 0.0
C184 C 0.46509 0.43212 0.40166 0.0
C185 C 0.46723 0.45481 0.43245 0.0
C186 C 0.52812 0.51768 0.70461 0.0
C187 C 0.46642 0.48409 0.75432 0.0
O188 O 0.49707 0.54422 0.9039 0.0
O189 O 0.46772 0.56571 0.86448 0.0
O190 O 0.4636 0.54251 0.63782 0.0
O191 O 0.44102 0.53479 0.74286 0.0
O192 O 0.49527 0.55447 0.55486 0.0
O193 O 0.50354 0.56547 0.69507 0.0
O194 O 0.47094 0.50235 0.47509 0.0
O195 O 0.50852 0.49739 0.4821 0.0
O196 O 0.50769 0.5122 0.72537 0.0
O197 O 0.52983 0.5213 0.62155 0.0
O198 O 0.47088 0.50075 0.81047 0.0
O199 O 0.47053 0.48647 0.6702 0.0
H200 H 0.5031 0.57183 0.07815 0.0
H201 H 0.52505 0.6064 0.12171 0.0
H202 H 0.51802 0.63408 0.862 0.0
H203 H 0.49594 0.59979 0.81947 0.0
H204 H 0.51915 0.46871 0.33954 0.0
H205 H 0.51554 0.42884 0.28649 0.0
H206 H 0.44998 0.42206 0.41997 0.0
H207 H 0.45367 0.46173 0.4736 0.0
Pr208 Pr 0.97232 0.47379 0.91876 0.0
Pr209 Pr 0.99453 0.48928 0.7289 0.0
C210 C 0.94646 0.47001 0.0631 0.0
C211 C 0.92539 0.48184 0.09333 0.0
C212 C 0.91148 0.47165 0.15749 0.0
C213 C 0.89043 0.48195 0.18122 0.0
C214 C 0.883 0.50263 0.14106 0.0
C215 C 0.89726 0.51297 0.07782 0.0
C216 C 0.91822 0.50262 0.05397 0.0
C217 C 0.9853 0.43862 0.80538 0.0
C218 C 0.93841 0.49408 0.75775 0.0
C219 C 0.01481 0.48797 0.572 0.0
C220 C 0.03661 0.49601 0.53186 0.0
C221 C 0.03614 0.507 0.45053 0.0
C222 C 0.05671 0.51489 0.41215 0.0
C223 C 0.07816 0.51184 0.45444 0.0
C224 C 0.07851 0.50058 0.53565 0.0
C225 C 0.05798 0.49289 0.57417 0.0
C226 C 0.99143 0.52681 0.84434 0.0
C227 C 0.02894 0.47837 0.90127 0.0
O228 O 0.96536 0.48268 0.05928 0.0
O229 O 0.94362 0.4566 0.99535 0.0
O230 O 0.97566 0.45742 0.78398 0.0
O231 O 0.98729 0.43676 0.88931 0.0
O232 O 0.95487 0.49055 0.69935 0.0
O233 O 0.94203 0.49181 0.84226 0.0
O234 O 0.01659 0.47119 0.62934 0.0
O235 O -0.00023 0.50404 0.59371 0.0
O236 O 0.98558 0.50614 0.85521 0.0
O237 O 0.00012 0.52917 0.76681 0.0
O238 O 0.01117 0.47925 0.95582 0.0
O239 O 0.02644 0.47853 0.81549 0.0
H240 H 0.9167 0.45554 0.18814 0.0
H241 H 0.87992 0.47369 0.2307 0.0
H242 H 0.89188 0.52869 0.04477 0.0
H243 H 0.92856 0.51058 0.00334 0.0
H244 H 0.01981 0.50961 0.41692 0.0
H245 H 0.05574 0.5237 0.35009 0.0
H246 H 0.09471 0.49751 0.56946 0.0
H247 H 0.05886 0.4845 0.6371 0.0
H248 H 0.1383 0.00467 0.32609 0.0
H249 H 0.11993 0.93217 0.30804 0.0
H250 H 0.11174 0.00919 0.44789 0.0
H251 H 0.09268 0.93684 0.42745 0.0
H252 H 0.06302 0.9459 0.69582 0.0
H253 H 0.09151 0.94254 0.57972 0.0
H254 H 0.07175 0.01037 0.48437 0.0
H255 H 0.04416 0.01412 0.60353 0.0
C256 C 0.12841 0.98975 0.34764 0.0
C257 C 0.13124 0.96805 0.30766 0.0
C258 C 0.11309 0.99235 0.41724 0.0
C259 C 0.1001 0.97336 0.44786 0.0
C260 C 0.10275 0.95173 0.40688 0.0
C261 C 0.11825 0.94908 0.33793 0.0
C262 C 0.06505 0.96021 0.65072 0.0
C263 C 0.05132 0.9802 0.65813 0.0
C264 C 0.08116 0.95818 0.58351 0.0
C265 C 0.08377 0.97606 0.52191 0.0
C266 C 0.07039 0.99634 0.53095 0.0
C267 C 0.05443 0.99843 0.59876 0.0
H268 H 0.51733 0.14269 0.21282 0.0
H269 H 0.44949 0.15288 0.32627 0.0
H270 H 0.52502 0.11163 0.31666 0.0
H271 H 0.45717 0.12165 0.42966 0.0
H272 H 0.49108 0.08219 0.65882 0.0
H273 H 0.48298 0.11353 0.55579 0.0
H274 H 0.51086 0.07186 0.34768 0.0
H275 H 0.51915 0.04071 0.45066 0.0
C276 C 0.50405 0.13829 0.2598 0.0
C277 C 0.48279 0.15024 0.26128 0.0
C278 C 0.50841 0.12041 0.31897 0.0
C279 C 0.49168 0.11419 0.38119 0.0
C280 C 0.47047 0.12622 0.38298 0.0
C281 C 0.46604 0.14401 0.32345 0.0
C282 C 0.49547 0.07978 0.59104 0.0
C283 C 0.5058 0.0591 0.56264 0.0
C284 C 0.49072 0.09764 0.53206 0.0
C285 C 0.49635 0.09516 0.44374 0.0
C286 C 0.50661 0.07439 0.4155 0.0
C287 C 0.51123 0.05652 0.47434 0.0
H288 H 0.34318 0.54203 0.23236 0.0
H289 H 0.32109 0.59412 0.41598 0.0
H290 H 0.3745 0.53057 0.33087 0.0
H291 H 0.35224 0.58249 0.5144 0.0
H292 H 0.397 0.53936 0.70177 0.0
H293 H 0.36425 0.54693 0.60444 0.0
H294 H 0.41133 0.55083 0.38681 0.0
H295 H 0.44407 0.54357 0.48409 0.0
C296 C 0.34491 0.55092 0.2939 0.0
C297 C 0.32974 0.56903 0.31632 0.0
C298 C 0.36287 0.54441 0.35003 0.0
C299 C 0.36574 0.55564 0.43016 0.0
C300 C 0.35028 0.57341 0.45334 0.0
C301 C 0.33255 0.58015 0.39675 0.0
C302 C 0.4003 0.54167 0.63306 0.0
C303 C 0.42304 0.54097 0.60039 0.0
C304 C 0.3816 0.54608 0.57754 0.0
C305 C 0.3853 0.54951 0.48826 0.0
C306 C 0.40798 0.54806 0.45527 0.0
C307 C 0.4267 0.54399 0.51094 0.0
H308 H 0.02311 0.35012 0.3685 0.0
H309 H 0.08435 0.35362 0.53004 0.0
H310 H 0.00223 0.37441 0.47164 0.0
H311 H 0.06372 0.37843 0.63184 0.0
H312 H 0.01391 0.40227 0.84114 0.0
H313 H 0.03321 0.37671 0.73787 0.0
H314 H 0.00049 0.41345 0.52558 0.0
H315 H 0.98053 0.43839 0.62938 0.0
C316 C 0.03217 0.35622 0.4257 0.0
C317 C 0.05538 0.34991 0.44117 0.0
C318 C 0.02023 0.37023 0.48465 0.0
C319 C 0.03126 0.37832 0.56024 0.0
C320 C 0.05455 0.37217 0.57513 0.0
C321 C 0.06645 0.35808 0.51641 0.0
C322 C 0.01071 0.40472 0.77242 0.0
C323 C 0.99592 0.42241 0.74309 0.0
C324 C 0.02193 0.39023 0.71317 0.0
C325 C 0.01859 0.39316 0.62331 0.0
C326 C 0.00332 0.41057 0.59427 0.0
C327 C 0.99201 0.42496 0.65363 0.0
H328 H 0.83818 0.92017 0.0175 0.0
H329 H 0.85949 0.86478 0.84709 0.0
H330 H 0.86461 0.94662 0.94404 0.0
H331 H 0.88703 0.89073 0.77672 0.0
H332 H 0.93096 0.98215 0.85526 0.0
H333 H 0.90317 0.95665 0.92638 0.0
H334 H 0.8908 0.92188 0.68194 0.0
H335 H 0.92007 0.94624 0.6132 0.0
C336 C 0.84879 0.91358 0.96498 0.0
C337 C 0.84679 0.89043 0.93797 0.0
C338 C 0.86407 0.92872 0.92302 0.0
C339 C 0.87808 0.92093 0.85412 0.0
C340 C 0.87621 0.8976 0.82804 0.0
C341 C 0.86057 0.8826 0.8689 0.0
C342 C 0.92244 0.96886 0.81719 0.0
C343 C 0.92805 0.96577 0.7294 0.0
C344 C 0.90623 0.95442 0.85758 0.0
C345 C 0.89476 0.93693 0.81036 0.0
C346 C 0.89968 0.93465 0.72121 0.0
C347 C 0.91625 0.94882 0.68136 0.0
H348 H 0.56532 0.86791 0.09274 0.0
H349 H 0.61718 0.86806 0.89019 0.0
H350 H 0.5401 0.89184 0.00256 0.0
H351 H 0.59244 0.89273 0.80146 0.0
H352 H 0.53485 0.91566 0.62454 0.0
H353 H 0.55819 0.89095 0.71824 0.0
H354 H 0.53444 0.92924 0.9424 0.0
H355 H 0.51012 0.9532 0.84822 0.0
C356 C 0.57143 0.87325 0.02927 0.0
C357 C 0.59319 0.86596 0.9984 0.0
C358 C 0.55701 0.88709 0.97768 0.0
C359 C 0.56408 0.89409 0.89423 0.0
C360 C 0.58611 0.88719 0.86435 0.0
C361 C 0.60042 0.87318 0.91557 0.0
C362 C 0.53439 0.91859 0.69397 0.0
C363 C 0.52086 0.93648 0.72915 0.0
C364 C 0.54801 0.90461 0.74771 0.0
C365 C 0.54855 0.90829 0.83796 0.0
C366 C 0.53435 0.92575 0.87337 0.0
C367 C 0.52056 0.93963 0.81945 0.0
H368 H 0.62231 0.5392 0.14131 0.0
H369 H 0.62401 0.60297 0.99336 0.0
H370 H 0.59513 0.52268 0.03705 0.0
H371 H 0.59633 0.5867 0.89048 0.0
H372 H 0.56742 0.54245 0.67245 0.0
H373 H 0.59501 0.55763 0.77814 0.0
H374 H 0.55571 0.52572 0.98552 0.0
H375 H 0.52866 0.50978 0.87902 0.0
C376 C 0.61672 0.54977 0.08695 0.0
C377 C 0.62542 0.57234 0.07531 0.0
C378 C 0.60106 0.54033 0.02737 0.0
C379 C 0.59366 0.5533 0.95505 0.0
C380 C 0.60204 0.57606 0.94447 0.0
C381 C 0.61779 0.58545 0.00377 0.0
C382 C 0.56487 0.53845 0.74053 0.0
C383 C 0.54584 0.5251 0.76779 0.0
C384 C 0.58051 0.54737 0.80121 0.0
C385 C 0.57744 0.54312 0.89045 0.0
C386 C 0.55869 0.52921 0.91731 0.0
C387 C 0.54311 0.52021 0.85648 0.0
H388 H 0.01414 0.63879 0.2106 0.0
H389 H 0.94108 0.62281 0.23377 0.0
H390 H 0.01804 0.60914 0.09857 0.0
H391 H 0.94504 0.59325 0.12159 0.0
H392 H 0.96876 0.52446 0.99822 0.0
H393 H 0.96465 0.55483 0.10724 0.0
H394 H 0.00467 0.6014 0.94591 0.0
H395 H 0.00875 0.5708 0.83683 0.0
C396 C 0.99891 0.62899 0.19168 0.0
C397 C 0.97731 0.6331 0.2312 0.0
C398 C 0.00113 0.61212 0.12719 0.0
C399 C 0.98185 0.59888 0.10149 0.0
C400 C 0.96024 0.60305 0.14075 0.0
C401 C 0.95797 0.62005 0.20468 0.0
C402 C 0.97667 0.54116 0.98629 0.0
C403 C 0.98908 0.5453 0.90952 0.0
C404 C 0.97421 0.55859 0.04831 0.0
C405 C 0.98432 0.58049 0.03501 0.0
C406 C 0.99686 0.58462 0.95817 0.0
C407 C 0.99911 0.56719 0.89569 0.0
H408 H 0.03332 0.22919 0.18481 0.0
H409 H 0.09245 0.22034 0.35375 0.0
H410 H 0.02049 0.18984 0.21816 0.0
H411 H 0.07919 0.18107 0.38983 0.0
H412 H 0.06038 0.10362 0.35914 0.0
H413 H 0.07426 0.14231 0.31907 0.0
H414 H 0.0046 0.16911 0.34517 0.0
H415 H 0.99069 0.13045 0.38341 0.0
C416 C 0.04373 0.21866 0.22823 0.0
C417 C 0.06418 0.22752 0.26501 0.0
C418 C 0.03621 0.19627 0.24834 0.0
C419 C 0.04888 0.18233 0.30638 0.0
C420 C 0.06925 0.19129 0.3439 0.0
C421 C 0.07674 0.21377 0.32387 0.0
C422 C 0.04804 0.11776 0.35552 0.0
C423 C 0.02447 0.11403 0.37455 0.0
C424 C 0.05601 0.13992 0.33342 0.0
C425 C 0.04052 0.15874 0.32915 0.0
C426 C 0.01692 0.15492 0.34724 0.0
C427 C 0.00899 0.13284 0.36991 0.0
H428 H 0.26161 0.93897 0.18468 0.0
H429 H 0.25959 0.0136 0.16427 0.0
H430 H 0.30194 0.94099 0.23401 0.0
H431 H 0.29977 0.01576 0.21414 0.0
H432 H 0.37896 0.00834 0.20488 0.0
H433 H 0.33841 0.0062 0.16033 0.0
H434 H 0.32585 0.95376 0.35558 0.0
H435 H 0.36638 0.956 0.40052 0.0
C436 C 0.2698 0.9558 0.19123 0.0
C437 C 0.25776 0.97609 0.16869 0.0
C438 C 0.29284 0.95698 0.2197 0.0
C439 C 0.30416 0.97853 0.2271 0.0
C440 C 0.29175 0.99887 0.20728 0.0
C441 C 0.26877 0.99765 0.17853 0.0
C442 C 0.3675 0.99651 0.23886 0.0
C443 C 0.37592 0.98237 0.3064 0.0
C444 C 0.34426 0.99527 0.21328 0.0
C445 C 0.32888 0.97982 0.25446 0.0
C446 C 0.33731 0.96562 0.32174 0.0
C447 C 0.36055 0.96689 0.34746 0.0
H448 H 0.43132 0.28504 0.22287 0.0
H449 H 0.50155 0.2841 0.12613 0.0
H450 H 0.43676 0.32458 0.27438 0.0
H451 H 0.50702 0.32407 0.17546 0.0
H452 H 0.51512 0.38804 0.35008 0.0
H453 H 0.51082 0.3481 0.30019 0.0
H454 H 0.4403 0.36294 0.2214 0.0
H455 H 0.44452 0.40258 0.27359 0.0
C456 C 0.44787 0.29348 0.21188 0.0
C457 C 0.46588 0.28177 0.16931 0.0
C458 C 0.451 0.31617 0.24107 0.0
C459 C 0.47224 0.32772 0.2281 0.0
C460 C 0.49048 0.31569 0.18721 0.0
C461 C 0.48738 0.29285 0.15868 0.0
C462 C 0.49877 0.38272 0.32166 0.0
C463 C 0.4801 0.39834 0.31621 0.0
C464 C 0.4963 0.35986 0.29277 0.0
C465 C 0.47517 0.35219 0.25706 0.0
C466 C 0.45667 0.36804 0.25023 0.0
C467 C 0.45907 0.39079 0.27988 0.0
H468 H 0.22326 0.53235 0.34841 0.0
H469 H 0.19115 0.57383 0.1482 0.0
H470 H 0.18501 0.52147 0.4035 0.0
H471 H 0.15259 0.56278 0.20312 0.0
H472 H 0.09118 0.51154 0.28224 0.0
H473 H 0.12807 0.52453 0.22014 0.0
H474 H 0.15191 0.54402 0.47539 0.0
H475 H 0.11497 0.532 0.53722 0.0
C476 C 0.20794 0.53904 0.31613 0.0
C477 C 0.21002 0.55376 0.24397 0.0
C478 C 0.18611 0.53293 0.34779 0.0
C479 C 0.16589 0.54132 0.30756 0.0
C480 C 0.16793 0.556 0.23494 0.0
C481 C 0.18989 0.56243 0.20404 0.0
C482 C 0.10412 0.51895 0.32497 0.0
C483 C 0.10014 0.52047 0.41503 0.0
C484 C 0.12525 0.52629 0.28934 0.0
C485 C 0.14287 0.53501 0.34321 0.0
C486 C 0.13874 0.53699 0.43265 0.0
C487 C 0.1176 0.52996 0.46805 0.0
H488 H 0.00776 0.74874 0.19769 0.0
H489 H 0.96529 0.77007 0.41366 0.0
H490 H 0.00857 0.78852 0.14375 0.0
H491 H 0.9667 0.81024 0.36188 0.0
H492 H 0.9539 0.87428 0.18879 0.0
H493 H 0.953 0.83516 0.24891 0.0
H494 H 0.02466 0.82548 0.17422 0.0
H495 H 0.02544 0.86453 0.11358 0.0
C496 C 0.99874 0.76208 0.23387 0.0
C497 C 0.9866 0.75648 0.30996 0.0
C498 C 0.99931 0.7849 0.20342 0.0
C499 C 0.98786 0.8027 0.24875 0.0
C500 C 0.97547 0.79696 0.32466 0.0
C501 C 0.97468 0.77401 0.35453 0.0
C502 C 0.96956 0.8639 0.18635 0.0
C503 C 0.98972 0.87247 0.14603 0.0
C504 C 0.96905 0.84145 0.22089 0.0
C505 C 0.98871 0.82704 0.21609 0.0
C506 C 0.00904 0.83588 0.17756 0.0
C507 C 0.00952 0.85829 0.14291 0.0
H508 H 0.71268 0.86169 0.9828 0.0
H509 H 0.73374 0.9096 0.18269 0.0
H510 H 0.67712 0.88419 0.95978 0.0
H511 H 0.69795 0.93153 0.16258 0.0
H512 H 0.64748 0.98022 0.01616 0.0
H513 H 0.68152 0.95685 0.05164 0.0
H514 H 0.64025 0.89451 0.03144 0.0
H515 H 0.60615 0.91807 0.99638 0.0
C516 C 0.70951 0.87686 0.02249 0.0
C517 C 0.72561 0.88362 0.08593 0.0
C518 C 0.68913 0.88963 0.0099 0.0
C519 C 0.68466 0.90957 0.05977 0.0
C520 C 0.7009 0.91632 0.12291 0.0
C521 C 0.72122 0.90356 0.13543 0.0
C522 C 0.64563 0.96155 0.02061 0.0
C523 C 0.62428 0.95086 0.00244 0.0
C524 C 0.66511 0.94815 0.04089 0.0
C525 C 0.66362 0.9238 0.04355 0.0
C526 C 0.64205 0.91319 0.0281 0.0
C527 C 0.62258 0.92661 0.00796 0.0
H528 H 0.5572 0.76176 0.16818 0.0
H529 H 0.62406 0.73203 0.10889 0.0
H530 H 0.53844 0.72506 0.13358 0.0
H531 H 0.60516 0.69526 0.07102 0.0
H532 H 0.56266 0.62678 0.09386 0.0
H533 H 0.58253 0.66242 0.13836 0.0
H534 H 0.53152 0.70305 0.99967 0.0
H535 H 0.51146 0.66767 0.95724 0.0
C536 C 0.56792 0.7472 0.1492 0.0
C537 C 0.59212 0.74952 0.14323 0.0
C538 C 0.55715 0.72629 0.12804 0.0
C539 C 0.57032 0.70727 0.0995 0.0
C540 C 0.59459 0.70954 0.09377 0.0
C541 C 0.60538 0.73058 0.11479 0.0
C542 C 0.55565 0.64336 0.0735 0.0
C543 C 0.53551 0.64444 0.02204 0.0
C544 C 0.56713 0.66372 0.09827 0.0
C545 C 0.55854 0.68552 0.07271 0.0
C546 C 0.53842 0.68653 0.02125 0.0
C547 C 0.52706 0.66625 0.99614 0.0
H548 H 0.74353 0.53168 0.32959 0.0
H549 H 0.75949 0.58971 0.16261 0.0
H550 H 0.78187 0.51544 0.30304 0.0
H551 H 0.79748 0.57275 0.13117 0.0
H552 H 0.87253 0.54839 0.1677 0.0
H553 H 0.83461 0.56533 0.19868 0.0
H554 H 0.80372 0.49702 0.19127 0.0
H555 H 0.84164 0.48015 0.16162 0.0
C556 C 0.7554 0.54112 0.28806 0.0
C557 C 0.74888 0.56236 0.2506 0.0
C558 C 0.77722 0.53157 0.27136 0.0
C559 C 0.79287 0.54284 0.21531 0.0
C560 C 0.78606 0.56384 0.176 0.0
C561 C 0.76424 0.57346 0.19327 0.0
C562 C 0.85761 0.53703 0.17257 0.0
C563 C 0.86009 0.51293 0.16249 0.0
C564 C 0.83586 0.54673 0.19002 0.0
C565 C 0.81607 0.53256 0.19738 0.0
C566 C 0.81862 0.50843 0.18752 0.0
C567 C 0.84037 0.49874 0.17051 0.0
H568 H 0.98823 0.1836 0.91485 0.0
H569 H 0.05233 0.15613 0.01853 0.0
H570 H 0.97661 0.14452 0.87116 0.0
H571 H 0.04068 0.11717 0.97494 0.0
H572 H 0.00255 0.04799 0.95752 0.0
H573 H 0.01018 0.08714 0.01089 0.0
H574 H 0.99093 0.11539 0.76118 0.0
H575 H 0.98323 0.0764 0.70772 0.0
C576 C -0.00021 0.16923 0.92852 0.0
C577 C 0.02126 0.17295 0.96958 0.0
C578 C 0.99316 0.1469 0.90332 0.0
C579 C 0.00773 0.12783 0.91982 0.0
C580 C 0.029 0.13151 0.96221 0.0
C581 C 0.03575 0.15385 0.98644 0.0
C582 C -0.00035 0.06256 0.91432 0.0
C583 C 0.9924 0.05905 0.82818 0.0
C584 C 0.00417 0.08495 0.94476 0.0
C585 C 0.00126 0.10427 0.89001 0.0
C586 C 0.99317 0.10084 0.805 0.0
C587 C 0.98889 0.07847 0.77429 0.0
H588 H 0.31969 0.03544 0.86167 0.0
H589 H 0.34014 0.97621 0.01632 0.0
H590 H 0.35948 0.03909 0.80798 0.0
H591 H 0.37976 0.9799 0.9628 0.0
H592 H 0.45281 0.00471 0.90459 0.0
H593 H 0.41399 0.00674 0.96733 0.0
H594 H 0.38467 0.01461 0.71088 0.0
H595 H 0.42341 0.01271 0.64782 0.0
C596 C 0.3327 0.02333 0.88466 0.0
C597 C 0.32678 0.00542 0.9426 0.0
C598 C 0.35542 0.02538 0.85371 0.0
C599 C 0.37266 0.00974 0.88108 0.0
C600 C 0.36687 0.99231 0.94113 0.0
C601 C 0.34414 0.99009 0.9712 0.0
C602 C 0.43813 0.00712 0.86156 0.0
C603 C 0.4412 0.00837 0.77111 0.0
C604 C 0.41591 0.00818 0.89755 0.0
C605 C 0.39634 0.01073 0.84393 0.0
C606 C 0.39946 0.01283 0.75382 0.0
C607 C 0.42166 0.01158 0.71772 0.0
H608 H 0.43772 0.35968 0.05178 0.0
H609 H 0.39975 0.34917 0.81302 0.0
H610 H 0.44887 0.39827 0.00314 0.0
H611 H 0.41034 0.3881 0.7653 0.0
H612 H 0.45945 0.4442 0.66228 0.0
H613 H 0.44463 0.40733 0.71522 0.0
H614 H 0.43588 0.43682 0.97089 0.0
H615 H 0.45139 0.47361 0.91851 0.0
C616 C 0.43139 0.36577 0.98955 0.0
C617 C 0.41797 0.35129 0.93598 0.0
C618 C 0.43772 0.38797 0.96174 0.0
C619 C 0.43066 0.39625 0.87992 0.0
C620 C 0.41646 0.38209 0.82792 0.0
C621 C 0.41025 0.35983 0.85552 0.0
C622 C 0.45432 0.44289 0.72977 0.0
C623 C 0.45672 0.46186 0.78623 0.0
C624 C 0.44563 0.42175 0.76002 0.0
C625 C 0.43899 0.41909 0.84733 0.0
C626 C 0.44111 0.43817 0.90354 0.0
C627 C 0.44992 0.4593 0.87338 0.0
H628 H 0.17095 0.51682 0.9661 0.0
H629 H 0.15962 0.4762 0.19845 0.0
H630 H 0.13161 0.50871 0.91887 0.0
H631 H 0.11996 0.46779 0.15011 0.0
H632 H 0.04274 0.48446 0.07051 0.0
H633 H 0.08241 0.4884 0.12482 0.0
H634 H 0.10883 0.47584 0.8668 0.0
H635 H 0.06944 0.47228 0.8122 0.0
C636 C 0.16011 0.50599 0.0069 0.0
C637 C 0.16849 0.497 0.08571 0.0
C638 C 0.13756 0.50122 0.97949 0.0
C639 C 0.12274 0.48739 0.03024 0.0
C640 C 0.13099 0.47851 0.10961 0.0
C641 C 0.15372 0.48319 0.13695 0.0
C642 C 0.05702 0.48228 0.02555 0.0
C643 C 0.05286 0.47831 0.93676 0.0
C644 C 0.07975 0.48445 0.05682 0.0
C645 C 0.09873 0.4827 0.99989 0.0
C646 C 0.09455 0.47773 0.91198 0.0
C647 C 0.07193 0.4756 0.88077 0.0
H648 H 0.03355 0.82184 0.33728 0.0
H649 H 0.02656 0.79717 0.60081 0.0
H650 H 0.02286 0.8608 0.38391 0.0
H651 H 0.01721 0.83621 0.64861 0.0
H652 H 0.97693 0.90192 0.6966 0.0
H653 H 0.98668 0.86337 0.64343 0.0
H654 H 0.03563 0.89364 0.46296 0.0
H655 H 0.02516 0.93217 0.51386 0.0
C656 C 0.03006 0.82484 0.40536 0.0
C657 C 0.0307 0.80644 0.4652 0.0
C658 C 0.02404 0.8472 0.4323 0.0
C659 C 0.01896 0.85168 0.52009 0.0
C660 C 0.02041 0.83333 0.58021 0.0
C661 C 0.02604 0.81096 0.55297 0.0
C662 C 0.98966 0.9003 0.64522 0.0
C663 C 0.00022 0.92005 0.6093 0.0
C664 C 0.9954 0.8782 0.61509 0.0
C665 C 0.01211 0.87531 0.54926 0.0
C666 C 0.02247 0.89516 0.51278 0.0
C667 C 0.01651 0.91728 0.54218 0.0
H668 H 0.6587 0.89981 0.33234 0.0
H669 H 0.69823 0.95277 0.46466 0.0
H670 H 0.62269 0.91839 0.37834 0.0
H671 H 0.66213 0.97131 0.51073 0.0
H672 H 0.59275 0.97633 0.6647 0.0
H673 H 0.62925 0.96042 0.61196 0.0
H674 H 0.60069 0.95601 0.35328 0.0
H675 H 0.56398 0.97199 0.40585 0.0
C676 C 0.6597 0.91539 0.37139 0.0
C677 C 0.68129 0.92475 0.3955 0.0
C678 C 0.63909 0.92612 0.397 0.0
C679 C 0.63965 0.94627 0.44805 0.0
C680 C 0.66122 0.95569 0.47189 0.0
C681 C 0.68186 0.94512 0.44534 0.0
C682 C 0.59425 0.97214 0.5964 0.0
C683 C 0.57544 0.97541 0.53942 0.0
C684 C 0.61521 0.96313 0.56621 0.0
C685 C 0.61777 0.95698 0.47862 0.0
C686 C 0.5991 0.96047 0.42131 0.0
C687 C 0.57816 0.96973 0.45132 0.0
H688 H 0.58944 0.68902 0.48907 0.0
H689 H 0.52254 0.70602 0.37886 0.0
H690 H 0.57405 0.65198 0.54005 0.0
H691 H 0.50719 0.66888 0.42999 0.0
H692 H 0.49861 0.58889 0.44916 0.0
H693 H 0.51366 0.62614 0.39809 0.0
H694 H 0.5445 0.63822 0.64955 0.0
H695 H 0.52962 0.60102 0.70067 0.0
C696 C 0.57144 0.68487 0.47588 0.0
C697 C 0.55718 0.70046 0.43018 0.0
C698 C 0.56262 0.66372 0.50541 0.0
C699 C 0.53944 0.65759 0.48898 0.0
C700 C 0.52518 0.67311 0.44297 0.0
C701 C 0.53393 0.69442 0.41427 0.0
C702 C 0.50865 0.59946 0.49346 0.0
C703 C 0.51291 0.59202 0.57895 0.0
C704 C 0.51712 0.62084 0.46438 0.0
C705 C 0.53021 0.63505 0.51992 0.0
C706 C 0.5346 0.62753 0.60517 0.0
C707 C 0.52596 0.60628 0.63451 0.0
H708 H 0.80473 0.51396 0.50183 0.0
H709 H 0.81028 0.57015 0.68605 0.0
H710 H 0.8423 0.49908 0.54979 0.0
H711 H 0.84788 0.55533 0.73341 0.0
H712 H 0.90187 0.50771 0.8585 0.0
H713 H 0.86387 0.52107 0.81116 0.0
H714 H 0.88395 0.51112 0.54371 0.0
H715 H 0.92208 0.49753 0.59085 0.0
C716 C 0.81391 0.52308 0.55281 0.0
C717 C 0.80451 0.54321 0.59038 0.0
C718 C 0.83549 0.51464 0.57976 0.0
C719 C 0.84801 0.52604 0.6453 0.0
C720 C 0.83851 0.54604 0.68337 0.0
C721 C 0.81703 0.55459 0.65596 0.0
C722 C 0.89824 0.50826 0.78954 0.0
C723 C 0.9151 0.50157 0.72844 0.0
C724 C 0.87647 0.51606 0.76249 0.0
C725 C 0.87097 0.51722 0.67377 0.0
C726 C 0.88765 0.51023 0.61259 0.0
C727 C 0.90953 0.50256 0.63962 0.0
loop_
_geom_bond_atom_site_label_1
_geom_bond_atom_site_label_2
_geom_bond_distance
_geom_bond_site_symmetry_2
_ccdc_geom_bond_type
O0 Cd1 2.300 . S
O0 C7 1.275 . S
Cd1 O0 2.300 . S
Cd1 O9 2.381 . S
Cd1 O10 2.378 . S
O2 Cd3 2.385 . S
O2 C7 1.255 . S
Cd3 O2 2.385 . S
Cd3 O4 2.317 . S
O4 Cd3 2.317 . S
O4 C5 1.232 . S
C5 O4 1.232 . S
C5 O6 1.218 . S
O6 C5 1.218 . S
C7 O0 1.275 . S
C7 O2 1.255 . S
C8 O9 1.258 . S
C8 O10 1.256 . S
O9 Cd1 2.381 . S
O9 C8 1.258 . S
O10 Cd1 2.378 . S
O10 C8 1.256 . S
O11 Cd12 2.300 1_655 S
O11 C18 1.275 1_655 S
Cd12 O11 2.300 1_455 S
Cd12 O20 2.381 1_455 S
Cd12 O21 2.378 . S
O13 Cd14 2.385 . S
O13 C18 1.255 . S
Cd14 O13 2.385 . S
Cd14 O15 2.317 . S
O15 Cd14 2.317 . S
O15 C16 1.232 . S
C16 O15 1.232 . S
C16 O17 1.218 . S
O17 C16 1.218 . S
C18 O11 1.275 1_455 S
C18 O13 1.255 . S
C19 O20 1.258 1_455 S
C19 O21 1.256 . S
O20 Cd12 2.381 1_655 S
O20 C19 1.258 1_655 S
O21 Cd12 2.378 . S
O21 C19 1.256 . S
O22 Cd23 2.300 1_565 S
O22 C29 1.275 1_565 S
Cd23 O22 2.300 1_545 S
Cd23 O31 2.381 1_545 S
Cd23 O32 2.378 . S
O24 Cd25 2.385 . S
O24 C29 1.255 . S
Cd25 O24 2.385 . S
Cd25 O26 2.317 . S
O26 Cd25 2.317 . S
O26 C27 1.232 . S
C27 O26 1.232 . S
C27 O28 1.218 . S
O28 C27 1.218 . S
C29 O22 1.275 1_545 S
C29 O24 1.255 . S
C30 O31 1.258 1_545 S
C30 O32 1.256 . S
O31 Cd23 2.381 1_565 S
O31 C30 1.258 1_565 S
O32 Cd23 2.378 . S
O32 C30 1.256 . S
O33 Cd34 2.300 . S
O33 C40 1.275 . S
Cd34 O33 2.300 . S
Cd34 O42 2.381 . S
Cd34 O43 2.378 . S
O35 Cd36 2.385 . S
O35 C40 1.255 . S
Cd36 O35 2.385 . S
Cd36 O37 2.317 . S
O37 Cd36 2.317 . S
O37 C38 1.232 . S
C38 O37 1.232 . S
C38 O39 1.218 . S
O39 C38 1.218 . S
C40 O33 1.275 . S
C40 O35 1.255 . S
C41 O42 1.258 . S
C41 O43 1.256 . S
O42 Cd34 2.381 . S
O42 C41 1.258 . S
O43 Cd34 2.378 . S
O43 C41 1.256 . S
O44 Cd45 2.300 . S
O44 C51 1.275 . S
Cd45 O44 2.300 . S
Cd45 O53 2.381 . S
Cd45 O54 2.378 . S
O46 Cd47 2.385 1_554 S
O46 C51 1.255 . S
Cd47 O46 2.385 1_556 S
Cd47 O48 2.317 . S
O48 Cd47 2.317 . S
O48 C49 1.232 . S
C49 O48 1.232 . S
C49 O50 1.218 . S
O50 C49 1.218 . S
C51 O44 1.275 . S
C51 O46 1.255 . S
C52 O53 1.258 . S
C52 O54 1.256 . S
O53 Cd45 2.381 . S
O53 C52 1.258 . S
O54 Cd45 2.378 . S
O54 C52 1.256 . S
O55 Cd56 2.300 1_655 S
O55 C62 1.275 1_655 S
Cd56 O55 2.300 1_455 S
Cd56 O64 2.381 1_455 S
Cd56 O65 2.378 . S
O57 Cd58 2.385 1_554 S
O57 C62 1.255 . S
Cd58 O57 2.385 1_556 S
Cd58 O59 2.317 . S
O59 Cd58 2.317 . S
O59 C60 1.232 . S
C60 O59 1.232 . S
C60 O61 1.218 . S
O61 C60 1.218 . S
C62 O55 1.275 1_455 S
C62 O57 1.255 . S
C63 O64 1.258 1_455 S
C63 O65 1.256 . S
O64 Cd56 2.381 1_655 S
O64 C63 1.258 1_655 S
O65 Cd56 2.378 . S
O65 C63 1.256 . S
O66 Cd67 2.300 1_565 S
O66 C73 1.275 1_565 S
Cd67 O66 2.300 1_545 S
Cd67 O75 2.381 1_545 S
Cd67 O76 2.378 . S
O68 Cd69 2.385 1_554 S
O68 C73 1.255 . S
Cd69 O68 2.385 1_556 S
Cd69 O70 2.317 . S
O70 Cd69 2.317 . S
O70 C71 1.232 . S
C71 O70 1.232 . S
C71 O72 1.218 . S
O72 C71 1.218 . S
C73 O66 1.275 1_545 S
C73 O68 1.255 . S
C74 O75 1.258 1_545 S
C74 O76 1.256 . S
O75 Cd67 2.381 1_565 S
O75 C74 1.258 1_565 S
O76 Cd67 2.378 . S
O76 C74 1.256 . S
O77 Cd78 2.300 . S
O77 C84 1.275 . S
Cd78 O77 2.300 . S
Cd78 O86 2.381 . S
Cd78 O87 2.378 . S
O79 Cd80 2.385 1_554 S
O79 C84 1.255 . S
Cd80 O79 2.385 1_556 S
Cd80 O81 2.317 . S
O81 Cd80 2.317 . S
O81 C82 1.232 . S
C82 O81 1.232 . S
C82 O83 1.218 . S
O83 C82 1.218 . S
C84 O77 1.275 . S
C84 O79 1.255 . S
C85 O86 1.258 . S
C85 O87 1.256 . S
O86 Cd78 2.381 . S
O86 C85 1.258 . S
O87 Cd78 2.378 . S
O87 C85 1.256 . S
Pr88 C90 2.880 . S
Pr88 O108 2.562 . S
Pr88 O109 2.490 . S
Pr88 O110 2.695 1_565 S
Pr88 O111 2.512 . S
Pr88 O113 2.437 . S
Pr88 O116 2.436 1_455 S
Pr88 O118 2.438 1_565 S
Pr89 C99 2.880 . S
Pr89 O110 2.436 1_655 S
Pr89 O112 2.438 1_545 S
Pr89 O114 2.562 . S
Pr89 O115 2.490 . S
Pr89 O116 2.695 1_545 S
Pr89 O117 2.512 . S
Pr89 O119 2.437 . S
C90 Pr88 2.880 . S
C90 C91 1.491 . S
C90 O108 1.254 . S
C90 O109 1.225 . S
C91 C90 1.491 . S
C91 C92 1.392 . S
C91 C96 1.356 . S
C92 C91 1.392 . S
C92 C93 1.368 . S
C92 H120 0.929 . S
C93 C92 1.368 . S
C93 C94 1.386 1_556 S
C93 H121 0.929 1_556 S
C94 C93 1.386 1_554 S
C94 C95 1.374 . S
C95 C94 1.374 . S
C95 C96 1.407 1_554 S
C95 H122 0.932 1_455 S
C96 C91 1.356 . S
C96 C95 1.407 1_556 S
C96 H123 0.930 1_455 S
C97 O110 1.270 1_565 S
C97 O111 1.248 . S
C98 O112 1.267 . S
C98 O113 1.278 1_655 S
C99 Pr89 2.880 . S
C99 C100 1.491 . S
C99 O114 1.254 . S
C99 O115 1.225 . S
C100 C99 1.491 . S
C100 C101 1.392 . S
C100 C105 1.356 . S
C101 C100 1.392 . S
C101 C102 1.368 . S
C101 H124 0.929 . S
C102 C101 1.368 . S
C102 C103 1.386 . S
C102 H125 0.929 . S
C103 C102 1.386 . S
C103 C104 1.373 . S
C104 C103 1.373 . S
C104 C105 1.409 . S
C104 H126 0.931 1_655 S
C105 C100 1.356 . S
C105 C104 1.409 . S
C105 H127 0.930 1_655 S
C106 O116 1.270 1_545 S
C106 O117 1.248 . S
C107 O118 1.267 . S
C107 O119 1.278 1_455 S
O108 Pr88 2.562 . S
O108 C90 1.254 . S
O109 Pr88 2.490 . S
O109 C90 1.225 . S
O110 Pr88 2.695 1_545 S
O110 Pr89 2.436 1_455 S
O110 C97 1.270 1_545 S
O111 Pr88 2.512 . S
O111 C97 1.248 . S
O112 Pr89 2.438 1_565 S
O112 C98 1.267 . S
O113 Pr88 2.437 . S
O113 C98 1.278 1_455 S
O114 Pr89 2.562 . S
O114 C99 1.254 . S
O115 Pr89 2.490 . S
O115 C99 1.225 . S
O116 Pr88 2.436 1_655 S
O116 Pr89 2.695 1_565 S
O116 C106 1.270 1_565 S
O117 Pr89 2.512 . S
O117 C106 1.248 . S
O118 Pr88 2.438 1_545 S
O118 C107 1.267 . S
O119 Pr89 2.437 . S
O119 C107 1.278 1_655 S
H120 C92 0.929 . S
H121 C93 0.929 1_554 S
H122 C95 0.932 1_655 S
H123 C96 0.930 1_655 S
H124 C101 0.929 . S
H125 C102 0.929 . S
H126 C104 0.931 1_455 S
H127 C105 0.930 1_455 S
Pr128 C130 2.880 . S
Pr128 O148 2.562 . S
Pr128 O149 2.490 . S
Pr128 O150 2.695 . S
Pr128 O151 2.512 . S
Pr128 O153 2.437 . S
Pr128 O156 2.436 1_545 S
Pr128 O158 2.438 . S
Pr129 C139 2.880 . S
Pr129 O150 2.436 1_565 S
Pr129 O152 2.438 . S
Pr129 O154 2.562 . S
Pr129 O155 2.490 . S
Pr129 O156 2.695 . S
Pr129 O157 2.512 . S
Pr129 O159 2.437 . S
C130 Pr128 2.880 . S
C130 C131 1.491 . S
C130 O148 1.254 . S
C130 O149 1.225 . S
C131 C130 1.491 . S
C131 C132 1.392 . S
C131 C136 1.356 . S
C132 C131 1.392 . S
C132 C133 1.368 . S
C132 H160 0.929 . S
C133 C132 1.368 . S
C133 C134 1.386 1_556 S
C133 H161 0.929 1_556 S
C134 C133 1.386 1_554 S
C134 C135 1.375 . S
C135 C134 1.375 . S
C135 C136 1.403 1_554 S
C135 H162 0.935 1_545 S
C136 C131 1.356 . S
C136 C135 1.403 1_556 S
C136 H163 0.930 1_545 S
C137 O150 1.270 . S
C137 O151 1.248 . S
C138 O152 1.267 . S
C138 O153 1.278 1_565 S
C139 Pr129 2.880 . S
C139 C140 1.491 . S
C139 O154 1.254 . S
C139 O155 1.225 . S
C140 C139 1.491 . S
C140 C141 1.392 . S
C140 C145 1.356 . S
C141 C140 1.392 . S
C141 C142 1.368 . S
C141 H164 0.929 . S
C142 C141 1.368 . S
C142 C143 1.386 . S
C142 H165 0.929 . S
C143 C142 1.386 . S
C143 C144 1.373 . S
C144 C143 1.373 . S
C144 C145 1.409 . S
C144 H166 0.931 1_565 S
C145 C140 1.356 . S
C145 C144 1.409 . S
C145 H167 0.930 1_565 S
C146 O156 1.270 . S
C146 O157 1.248 . S
C147 O158 1.267 . S
C147 O159 1.278 1_545 S
O148 Pr128 2.562 . S
O148 C130 1.254 . S
O149 Pr128 2.490 . S
O149 C130 1.225 . S
O150 Pr128 2.695 . S
O150 Pr129 2.436 1_545 S
O150 C137 1.270 . S
O151 Pr128 2.512 . S
O151 C137 1.248 . S
O152 Pr129 2.438 . S
O152 C138 1.267 . S
O153 Pr128 2.437 . S
O153 C138 1.278 1_545 S
O154 Pr129 2.562 . S
O154 C139 1.254 . S
O155 Pr129 2.490 . S
O155 C139 1.225 . S
O156 Pr128 2.436 1_565 S
O156 Pr129 2.695 . S
O156 C146 1.270 . S
O157 Pr129 2.512 . S
O157 C146 1.248 . S
O158 Pr128 2.438 . S
O158 C147 1.267 . S
O159 Pr129 2.437 . S
O159 C147 1.278 1_565 S
H160 C132 0.929 . S
H161 C133 0.929 1_554 S
H162 C135 0.935 1_565 S
H163 C136 0.930 1_565 S
H164 C141 0.929 . S
H165 C142 0.929 . S
H166 C144 0.931 1_545 S
H167 C145 0.930 1_545 S
Pr168 C170 2.880 . S
Pr168 O188 2.562 . S
Pr168 O189 2.490 . S
Pr168 O190 2.695 . S
Pr168 O191 2.512 . S
Pr168 O193 2.437 . S
Pr168 O196 2.436 . S
Pr168 O198 2.438 . S
Pr169 C179 2.880 . S
Pr169 O190 2.436 . S
Pr169 O192 2.438 . S
Pr169 O194 2.562 . S
Pr169 O195 2.490 . S
Pr169 O196 2.695 . S
Pr169 O197 2.512 . S
Pr169 O199 2.437 . S
C170 Pr168 2.880 . S
C170 C171 1.491 . S
C170 O188 1.254 . S
C170 O189 1.225 . S
C171 C170 1.491 . S
C171 C172 1.392 . S
C171 C176 1.356 . S
C172 C171 1.392 . S
C172 C173 1.368 . S
C172 H200 0.929 . S
C173 C172 1.368 . S
C173 C174 1.386 1_556 S
C173 H201 0.929 1_556 S
C174 C173 1.386 1_554 S
C174 C175 1.373 . S
C175 C174 1.373 . S
C175 C176 1.409 1_554 S
C175 H202 0.931 . S
C176 C171 1.356 . S
C176 C175 1.409 1_556 S
C176 H203 0.930 . S
C177 O190 1.270 . S
C177 O191 1.248 . S
C178 O192 1.267 . S
C178 O193 1.278 . S
C179 Pr169 2.880 . S
C179 C180 1.491 . S
C179 O194 1.254 . S
C179 O195 1.225 . S
C180 C179 1.491 . S
C180 C181 1.392 . S
C180 C185 1.356 . S
C181 C180 1.392 . S
C181 C182 1.368 . S
C181 H204 0.929 . S
C182 C181 1.368 . S
C182 C183 1.386 . S
C182 H205 0.929 . S
C183 C182 1.386 . S
C183 C184 1.373 . S
C184 C183 1.373 . S
C184 C185 1.409 . S
C184 H206 0.931 . S
C185 C180 1.356 . S
C185 C184 1.409 . S
C185 H207 0.930 . S
C186 O196 1.270 . S
C186 O197 1.248 . S
C187 O198 1.267 . S
C187 O199 1.278 . S
O188 Pr168 2.562 . S
O188 C170 1.254 . S
O189 Pr168 2.490 . S
O189 C170 1.225 . S
O190 Pr168 2.695 . S
O190 Pr169 2.436 . S
O190 C177 1.270 . S
O191 Pr168 2.512 . S
O191 C177 1.248 . S
O192 Pr169 2.438 . S
O192 C178 1.267 . S
O193 Pr168 2.437 . S
O193 C178 1.278 . S
O194 Pr169 2.562 . S
O194 C179 1.254 . S
O195 Pr169 2.490 . S
O195 C179 1.225 . S
O196 Pr168 2.436 . S
O196 Pr169 2.695 . S
O196 C186 1.270 . S
O197 Pr169 2.512 . S
O197 C186 1.248 . S
O198 Pr168 2.438 . S
O198 C187 1.267 . S
O199 Pr169 2.437 . S
O199 C187 1.278 . S
H200 C172 0.929 . S
H201 C173 0.929 1_554 S
H202 C175 0.931 . S
H203 C176 0.930 . S
H204 C181 0.929 . S
H205 C182 0.929 . S
H206 C184 0.931 . S
H207 C185 0.930 . S
Pr208 C210 2.880 . S
Pr208 O228 2.562 . S
Pr208 O229 2.490 . S
Pr208 O230 2.695 1_655 S
Pr208 O231 2.512 . S
Pr208 O233 2.437 . S
Pr208 O236 2.436 . S
Pr208 O238 2.438 1_655 S
Pr209 C219 2.880 . S
Pr209 O230 2.436 . S
Pr209 O232 2.438 1_455 S
Pr209 O234 2.562 . S
Pr209 O235 2.490 . S
Pr209 O236 2.695 1_455 S
Pr209 O237 2.512 . S
Pr209 O239 2.437 . S
C210 Pr208 2.880 . S
C210 C211 1.491 . S
C210 O228 1.254 . S
C210 O229 1.225 . S
C211 C210 1.491 . S
C211 C212 1.392 . S
C211 C216 1.356 . S
C212 C211 1.392 . S
C212 C213 1.368 . S
C212 H240 0.929 . S
C213 C212 1.368 . S
C213 C214 1.386 1_556 S
C213 H241 0.929 1_556 S
C214 C213 1.386 1_554 S
C214 C215 1.375 . S
C215 C214 1.375 . S
C215 C216 1.404 1_554 S
C215 H242 0.934 . S
C216 C211 1.356 . S
C216 C215 1.404 1_556 S
C216 H243 0.930 . S
C217 O230 1.256 1_655 S
C217 O231 1.273 . S
C218 O232 1.267 . S
C218 O233 1.278 . S
C219 Pr209 2.880 . S
C219 C220 1.491 . S
C219 O234 1.254 . S
C219 O235 1.225 . S
C220 C219 1.491 . S
C220 C221 1.392 . S
C220 C225 1.356 . S
C221 C220 1.392 . S
C221 C222 1.368 . S
C221 H244 0.929 . S
C222 C221 1.368 . S
C222 C223 1.386 . S
C222 H245 0.929 . S
C223 C222 1.386 . S
C223 C224 1.373 . S
C224 C223 1.373 . S
C224 C225 1.409 . S
C224 H246 0.931 . S
C225 C220 1.356 . S
C225 C224 1.409 . S
C225 H247 0.930 . S
C226 O236 1.270 1_455 S
C226 O237 1.248 . S
C227 O238 1.267 . S
C227 O239 1.278 . S
O228 Pr208 2.562 . S
O228 C210 1.254 . S
O229 Pr208 2.490 . S
O229 C210 1.225 . S
O230 Pr208 2.695 1_455 S
O230 Pr209 2.436 . S
O230 C217 1.256 1_455 S
O231 Pr208 2.512 . S
O231 C217 1.273 . S
O232 Pr209 2.438 1_655 S
O232 C218 1.267 . S
O233 Pr208 2.437 . S
O233 C218 1.278 . S
O234 Pr209 2.562 . S
O234 C219 1.254 . S
O235 Pr209 2.490 . S
O235 C219 1.225 . S
O236 Pr208 2.436 . S
O236 Pr209 2.695 1_655 S
O236 C226 1.270 1_655 S
O237 Pr209 2.512 . S
O237 C226 1.248 . S
O238 Pr208 2.438 1_455 S
O238 C227 1.267 . S
O239 Pr209 2.437 . S
O239 C227 1.278 . S
H240 C212 0.929 . S
H241 C213 0.929 1_554 S
H242 C215 0.934 . S
H243 C216 0.930 . S
H244 C221 0.929 . S
H245 C222 0.929 . S
H246 C224 0.931 . S
H247 C225 0.930 . S
H248 C256 0.950 . S
H249 C261 0.950 . S
H250 C258 0.950 . S
H251 C260 0.950 . S
H252 C262 0.950 . S
H253 C264 0.950 . S
H254 C266 0.950 . S
H255 C267 0.950 . S
C256 H248 0.950 . S
C256 C257 1.375 1_545 S
C256 C258 1.391 . S
C257 C256 1.375 1_565 S
C257 C261 1.404 . S
C258 H250 0.950 . S
C258 C256 1.391 . S
C258 C259 1.408 . S
C259 C258 1.408 . S
C259 C260 1.390 1_545 S
C259 C265 1.491 . S
C260 H251 0.950 . S
C260 C259 1.390 1_565 S
C260 C261 1.391 . S
C261 H249 0.950 . S
C261 C257 1.404 . S
C261 C260 1.391 . S
C262 H252 0.950 . S
C262 C263 1.386 1_565 S
C262 C264 1.391 . S
C263 C262 1.386 1_545 S
C263 C267 1.393 . S
C264 H253 0.950 . S
C264 C262 1.391 . S
C264 C265 1.400 1_565 S
C265 C259 1.491 . S
C265 C264 1.400 1_545 S
C265 C266 1.398 . S
C266 H254 0.950 . S
C266 C265 1.398 . S
C266 C267 1.391 . S
C267 H255 0.950 . S
C267 C263 1.393 . S
C267 C266 1.391 . S
H268 C276 0.950 . S
H269 C281 0.950 . S
H270 C278 0.950 . S
H271 C280 0.950 . S
H272 C282 0.950 . S
H273 C284 0.950 . S
H274 C286 0.950 . S
H275 C287 0.950 . S
C276 H268 0.950 . S
C276 C277 1.386 . S
C276 C278 1.391 . S
C277 C276 1.386 . S
C277 C281 1.393 . S
C278 H270 0.950 . S
C278 C276 1.391 . S
C278 C279 1.400 . S
C279 C278 1.400 . S
C279 C280 1.398 . S
C279 C285 1.491 . S
C280 H271 0.950 . S
C280 C279 1.398 . S
C280 C281 1.391 . S
C281 H269 0.950 . S
C281 C277 1.393 . S
C281 C280 1.391 . S
C282 H272 0.950 . S
C282 C283 1.386 . S
C282 C284 1.391 . S
C283 C282 1.386 . S
C283 C287 1.393 . S
C284 H273 0.950 . S
C284 C282 1.391 . S
C284 C285 1.400 . S
C285 C279 1.491 . S
C285 C284 1.400 . S
C285 C286 1.398 . S
C286 H274 0.950 . S
C286 C285 1.398 . S
C286 C287 1.391 . S
C287 H275 0.950 . S
C287 C283 1.393 . S
C287 C286 1.391 . S
H288 C296 0.950 . S
H289 C301 0.950 . S
H290 C298 0.950 . S
H291 C300 0.950 . S
H292 C302 0.950 . S
H293 C304 0.950 . S
H294 C306 0.950 . S
H295 C307 0.950 . S
C296 H288 0.950 . S
C296 C297 1.386 . S
C296 C298 1.391 . S
C297 C296 1.386 . S
C297 C301 1.393 . S
C298 H290 0.950 . S
C298 C296 1.391 . S
C298 C299 1.400 . S
C299 C298 1.400 . S
C299 C300 1.398 . S
C299 C305 1.491 . S
C300 H291 0.950 . S
C300 C299 1.398 . S
C300 C301 1.391 . S
C301 H289 0.950 . S
C301 C297 1.393 . S
C301 C300 1.391 . S
C302 H292 0.950 . S
C302 C303 1.386 . S
C302 C304 1.391 . S
C303 C302 1.386 . S
C303 C307 1.393 . S
C304 H293 0.950 . S
C304 C302 1.391 . S
C304 C305 1.400 . S
C305 C299 1.491 . S
C305 C304 1.400 . S
C305 C306 1.398 . S
C306 H294 0.950 . S
C306 C305 1.398 . S
C306 C307 1.391 . S
C307 H295 0.950 . S
C307 C303 1.393 . S
C307 C306 1.391 . S
H308 C316 0.950 . S
H309 C321 0.950 . S
H310 C318 0.950 . S
H311 C320 0.950 . S
H312 C322 0.950 . S
H313 C324 0.950 . S
H314 C326 0.950 . S
H315 C327 0.950 . S
C316 H308 0.950 . S
C316 C317 1.390 1_655 S
C316 C318 1.391 . S
C317 C316 1.390 1_455 S
C317 C321 1.389 . S
C318 H310 0.950 . S
C318 C316 1.391 . S
C318 C319 1.379 1_655 S
C319 C318 1.379 1_455 S
C319 C320 1.419 . S
C319 C325 1.491 . S
C320 H311 0.950 . S
C320 C319 1.419 . S
C320 C321 1.391 . S
C321 H309 0.950 . S
C321 C317 1.389 . S
C321 C320 1.391 . S
C322 H312 0.950 . S
C322 C323 1.386 . S
C322 C324 1.391 . S
C323 C322 1.386 . S
C323 C327 1.393 1_455 S
C324 H313 0.950 . S
C324 C322 1.391 . S
C324 C325 1.400 . S
C325 C319 1.491 . S
C325 C324 1.400 . S
C325 C326 1.398 1_455 S
C326 H314 0.950 . S
C326 C325 1.398 1_655 S
C326 C327 1.391 . S
C327 H315 0.950 . S
C327 C323 1.393 1_655 S
C327 C326 1.391 . S
H328 C336 0.949 . S
H329 C341 0.950 . S
H330 C338 0.952 . S
H331 C340 0.950 . S
H332 C342 0.949 . S
H333 C344 0.949 1_545 S
H334 C346 0.950 . S
H335 C347 0.950 . S
C336 H328 0.949 . S
C336 C337 1.385 1_565 S
C336 C338 1.391 . S
C337 C336 1.385 1_545 S
C337 C341 1.395 . S
C338 H330 0.952 . S
C338 C336 1.391 . S
C338 C339 1.400 . S
C339 C338 1.400 . S
C339 C340 1.399 1_565 S
C339 C345 1.490 . S
C340 H331 0.950 . S
C340 C339 1.399 1_545 S
C340 C341 1.391 . S
C341 H329 0.950 . S
C341 C337 1.395 . S
C341 C340 1.391 . S
C342 H332 0.949 . S
C342 C343 1.389 . S
C342 C344 1.391 1_556 S
C343 C342 1.389 . S
C343 C347 1.393 . S
C344 H333 0.949 1_565 S
C344 C342 1.391 1_554 S
C344 C345 1.401 . S
C345 C339 1.490 . S
C345 C344 1.401 . S
C345 C346 1.398 1_554 S
C346 H334 0.950 . S
C346 C345 1.398 1_556 S
C346 C347 1.391 . S
C347 H335 0.950 . S
C347 C343 1.393 . S
C347 C346 1.391 . S
H348 C356 0.950 . S
H349 C361 0.950 . S
H350 C358 0.950 . S
H351 C360 0.950 . S
H352 C362 0.950 . S
H353 C364 0.950 . S
H354 C366 0.950 . S
H355 C367 0.950 . S
C356 H348 0.950 . S
C356 C357 1.386 . S
C356 C358 1.391 . S
C357 C356 1.386 . S
C357 C361 1.393 . S
C358 H350 0.950 . S
C358 C356 1.391 . S
C358 C359 1.400 . S
C359 C358 1.400 . S
C359 C360 1.398 . S
C359 C365 1.491 . S
C360 H351 0.950 . S
C360 C359 1.398 . S
C360 C361 1.391 . S
C361 H349 0.950 . S
C361 C357 1.393 . S
C361 C360 1.391 . S
C362 H352 0.950 . S
C362 C363 1.386 . S
C362 C364 1.391 . S
C363 C362 1.386 . S
C363 C367 1.393 . S
C364 H353 0.950 . S
C364 C362 1.391 . S
C364 C365 1.400 1_556 S
C365 C359 1.491 . S
C365 C364 1.400 1_554 S
C365 C366 1.398 . S
C366 H354 0.950 . S
C366 C365 1.398 . S
C366 C367 1.391 1_554 S
C367 H355 0.950 . S
C367 C363 1.393 . S
C367 C366 1.391 1_556 S
H368 C376 0.950 . S
H369 C381 0.950 . S
H370 C378 0.950 . S
H371 C380 0.950 . S
H372 C382 0.950 . S
H373 C384 0.950 . S
H374 C386 0.950 . S
H375 C387 0.950 . S
C376 H368 0.950 . S
C376 C377 1.386 . S
C376 C378 1.391 . S
C377 C376 1.386 . S
C377 C381 1.393 . S
C378 H370 0.950 . S
C378 C376 1.391 . S
C378 C379 1.400 . S
C379 C378 1.400 . S
C379 C380 1.398 . S
C379 C385 1.491 . S
C380 H371 0.950 . S
C380 C379 1.398 . S
C380 C381 1.391 . S
C381 H369 0.950 . S
C381 C377 1.393 . S
C381 C380 1.391 . S
C382 H372 0.950 . S
C382 C383 1.386 . S
C382 C384 1.391 . S
C383 C382 1.386 . S
C383 C387 1.393 . S
C384 H373 0.950 . S
C384 C382 1.391 . S
C384 C385 1.400 1_556 S
C385 C379 1.491 . S
C385 C384 1.400 1_554 S
C385 C386 1.398 . S
C386 H374 0.950 . S
C386 C385 1.398 . S
C386 C387 1.391 1_554 S
C387 H375 0.950 . S
C387 C383 1.393 . S
C387 C386 1.391 1_556 S
H388 C396 0.950 . S
H389 C401 0.950 . S
H390 C398 0.950 . S
H391 C400 0.950 . S
H392 C402 0.950 . S
H393 C404 0.950 . S
H394 C406 0.950 . S
H395 C407 0.950 . S
C396 H388 0.950 . S
C396 C397 1.387 . S
C396 C398 1.391 . S
C397 C396 1.387 . S
C397 C401 1.391 1_455 S
C398 H390 0.950 . S
C398 C396 1.391 . S
C398 C399 1.384 1_455 S
C399 C398 1.384 1_655 S
C399 C400 1.414 . S
C399 C405 1.491 . S
C400 H391 0.950 . S
C400 C399 1.414 . S
C400 C401 1.391 . S
C401 H389 0.950 . S
C401 C397 1.391 1_655 S
C401 C400 1.391 . S
C402 H392 0.950 . S
C402 C403 1.386 . S
C402 C404 1.391 1_556 S
C403 C402 1.386 . S
C403 C407 1.393 1_655 S
C404 H393 0.950 . S
C404 C402 1.391 1_554 S
C404 C405 1.400 . S
C405 C399 1.491 . S
C405 C404 1.400 . S
C405 C406 1.398 1_654 S
C406 H394 0.950 . S
C406 C405 1.398 1_456 S
C406 C407 1.391 . S
C407 H395 0.950 . S
C407 C403 1.393 1_455 S
C407 C406 1.391 . S
H408 C416 0.950 . S
H409 C421 0.950 . S
H410 C418 0.963 . S
H411 C420 0.950 . S
H412 C422 0.950 . S
H413 C424 0.950 . S
H414 C426 0.950 . S
H415 C427 0.950 . S
C416 H408 0.950 . S
C416 C417 1.386 . S
C416 C418 1.405 . S
C417 C416 1.386 . S
C417 C421 1.393 1_455 S
C418 H410 0.963 . S
C418 C416 1.405 . S
C418 C419 1.375 1_455 S
C419 C418 1.375 1_655 S
C419 C420 1.398 . S
C419 C425 1.491 . S
C420 H411 0.950 . S
C420 C419 1.398 . S
C420 C421 1.391 . S
C421 H409 0.950 . S
C421 C417 1.393 1_655 S
C421 C420 1.391 . S
C422 H412 0.950 . S
C422 C423 1.386 . S
C422 C424 1.391 . S
C423 C422 1.386 . S
C423 C427 1.393 . S
C424 H413 0.950 . S
C424 C422 1.391 . S
C424 C425 1.400 . S
C425 C419 1.491 . S
C425 C424 1.400 . S
C425 C426 1.398 . S
C426 H414 0.950 . S
C426 C425 1.398 . S
C426 C427 1.391 . S
C427 H415 0.950 . S
C427 C423 1.393 . S
C427 C426 1.391 . S
H428 C436 0.950 . S
H429 C441 0.950 . S
H430 C438 0.950 . S
H431 C440 0.950 . S
H432 C442 0.950 1_545 S
H433 C444 0.950 1_545 S
H434 C446 0.950 . S
H435 C447 0.950 . S
C436 H428 0.950 . S
C436 C437 1.340 1_565 S
C436 C438 1.391 . S
C437 C436 1.340 1_545 S
C437 C441 1.425 . S
C438 H430 0.950 . S
C438 C436 1.391 . S
C438 C439 1.400 . S
C439 C438 1.400 . S
C439 C440 1.398 1_565 S
C439 C445 1.491 . S
C440 H431 0.950 . S
C440 C439 1.398 1_545 S
C440 C441 1.391 . S
C441 H429 0.950 . S
C441 C437 1.425 . S
C441 C440 1.391 . S
C442 H432 0.950 1_565 S
C442 C443 1.386 . S
C442 C444 1.391 . S
C443 C442 1.386 . S
C443 C447 1.393 . S
C444 H433 0.950 1_565 S
C444 C442 1.391 . S
C444 C445 1.400 . S
C445 C439 1.491 . S
C445 C444 1.400 . S
C445 C446 1.398 . S
C446 H434 0.950 . S
C446 C445 1.398 . S
C446 C447 1.391 . S
C447 H435 0.950 . S
C447 C443 1.393 . S
C447 C446 1.391 . S
H448 C456 0.950 . S
H449 C461 0.950 . S
H450 C458 0.950 . S
H451 C460 0.950 . S
H452 C462 0.950 . S
H453 C464 0.950 . S
H454 C466 0.950 . S
H455 C467 0.950 . S
C456 H448 0.950 . S
C456 C457 1.386 . S
C456 C458 1.391 . S
C457 C456 1.386 . S
C457 C461 1.393 . S
C458 H450 0.950 . S
C458 C456 1.391 . S
C458 C459 1.400 . S
C459 C458 1.400 . S
C459 C460 1.398 . S
C459 C465 1.491 . S
C460 H451 0.950 . S
C460 C459 1.398 . S
C460 C461 1.391 . S
C461 H449 0.950 . S
C461 C457 1.393 . S
C461 C460 1.391 . S
C462 H452 0.950 . S
C462 C463 1.386 . S
C462 C464 1.391 . S
C463 C462 1.386 . S
C463 C467 1.393 . S
C464 H453 0.950 . S
C464 C462 1.391 . S
C464 C465 1.400 . S
C465 C459 1.491 . S
C465 C464 1.400 . S
C465 C466 1.398 . S
C466 H454 0.950 . S
C466 C465 1.398 . S
C466 C467 1.391 . S
C467 H455 0.950 . S
C467 C463 1.393 . S
C467 C466 1.391 . S
H468 C476 0.950 . S
H469 C481 0.950 . S
H470 C478 0.950 . S
H471 C480 0.950 . S
H472 C482 0.950 . S
H473 C484 0.950 . S
H474 C486 0.950 . S
H475 C487 0.950 . S
C476 H468 0.950 . S
C476 C477 1.386 . S
C476 C478 1.391 . S
C477 C476 1.386 . S
C477 C481 1.393 . S
C478 H470 0.950 . S
C478 C476 1.391 . S
C478 C479 1.400 . S
C479 C478 1.400 . S
C479 C480 1.398 . S
C479 C485 1.491 . S
C480 H471 0.950 . S
C480 C479 1.398 . S
C480 C481 1.391 . S
C481 H469 0.950 . S
C481 C477 1.393 . S
C481 C480 1.391 . S
C482 H472 0.950 . S
C482 C483 1.386 . S
C482 C484 1.391 . S
C483 C482 1.386 . S
C483 C487 1.393 . S
C484 H473 0.950 . S
C484 C482 1.391 . S
C484 C485 1.400 . S
C485 C479 1.491 . S
C485 C484 1.400 . S
C485 C486 1.398 . S
C486 H474 0.950 . S
C486 C485 1.398 . S
C486 C487 1.391 . S
C487 H475 0.950 . S
C487 C483 1.393 . S
C487 C486 1.391 . S
H488 C496 0.950 . S
H489 C501 0.950 1_655 S
H490 C498 0.950 . S
H491 C500 0.950 . S
H492 C502 0.950 . S
H493 C504 0.950 1_556 S
H494 C506 0.950 . S
H495 C507 0.950 . S
C496 H488 0.950 . S
C496 C497 1.384 1_455 S
C496 C498 1.391 . S
C497 C496 1.384 1_655 S
C497 C501 1.392 1_655 S
C498 H490 0.950 . S
C498 C496 1.391 . S
C498 C499 1.400 . S
C499 C498 1.400 . S
C499 C500 1.398 . S
C499 C505 1.491 . S
C500 H491 0.950 . S
C500 C499 1.398 . S
C500 C501 1.391 . S
C501 H489 0.950 1_455 S
C501 C497 1.392 1_455 S
C501 C500 1.391 . S
C502 H492 0.950 . S
C502 C503 1.386 1_556 S
C502 C504 1.391 1_556 S
C503 C502 1.386 1_554 S
C503 C507 1.393 . S
C504 H493 0.950 1_554 S
C504 C502 1.391 1_554 S
C504 C505 1.400 . S
C505 C499 1.491 . S
C505 C504 1.400 . S
C505 C506 1.398 . S
C506 H494 0.950 . S
C506 C505 1.398 . S
C506 C507 1.391 . S
C507 H495 0.950 . S
C507 C503 1.393 . S
C507 C506 1.391 . S
H508 C516 0.950 . S
H509 C521 0.950 . S
H510 C518 0.950 . S
H511 C520 0.950 . S
H512 C522 0.950 1_556 S
H513 C524 0.950 . S
H514 C526 0.950 1_565 S
H515 C527 0.950 . S
C516 H508 0.950 . S
C516 C517 1.385 . S
C516 C518 1.391 . S
C517 C516 1.385 . S
C517 C521 1.393 1_565 S
C518 H510 0.950 . S
C518 C516 1.391 . S
C518 C519 1.400 1_565 S
C519 C518 1.400 1_545 S
C519 C520 1.398 . S
C519 C525 1.491 . S
C520 H511 0.950 . S
C520 C519 1.398 . S
C520 C521 1.391 . S
C521 H509 0.950 . S
C521 C517 1.393 1_545 S
C521 C520 1.391 . S
C522 H512 0.950 1_554 S
C522 C523 1.386 . S
C522 C524 1.391 . S
C523 C522 1.386 . S
C523 C527 1.393 . S
C524 H513 0.950 . S
C524 C522 1.391 . S
C524 C525 1.400 . S
C525 C519 1.491 . S
C525 C524 1.400 . S
C525 C526 1.398 . S
C526 H514 0.950 1_545 S
C526 C525 1.398 . S
C526 C527 1.391 . S
C527 H515 0.950 . S
C527 C523 1.393 . S
C527 C526 1.391 . S
H528 C536 0.950 . S
H529 C541 0.950 . S
H530 C538 0.950 . S
H531 C540 0.950 . S
H532 C542 0.950 . S
H533 C544 0.950 . S
H534 C546 0.950 . S
H535 C547 0.950 1_556 S
C536 H528 0.950 . S
C536 C537 1.386 . S
C536 C538 1.391 . S
C537 C536 1.386 . S
C537 C541 1.393 . S
C538 H530 0.950 . S
C538 C536 1.391 . S
C538 C539 1.400 . S
C539 C538 1.400 . S
C539 C540 1.398 . S
C539 C545 1.491 . S
C540 H531 0.950 . S
C540 C539 1.398 . S
C540 C541 1.391 . S
C541 H529 0.950 . S
C541 C537 1.393 . S
C541 C540 1.391 . S
C542 H532 0.950 . S
C542 C543 1.386 . S
C542 C544 1.391 . S
C543 C542 1.386 . S
C543 C547 1.393 . S
C544 H533 0.950 . S
C544 C542 1.391 . S
C544 C545 1.400 . S
C545 C539 1.491 . S
C545 C544 1.400 . S
C545 C546 1.398 . S
C546 H534 0.950 . S
C546 C545 1.398 . S
C546 C547 1.391 . S
C547 H535 0.950 1_554 S
C547 C543 1.393 . S
C547 C546 1.391 . S
H548 C556 0.950 . S
H549 C561 0.950 . S
H550 C558 0.950 . S
H551 C560 0.950 . S
H552 C562 0.950 . S
H553 C564 0.950 . S
H554 C566 0.950 . S
H555 C567 0.950 1_556 S
C556 H548 0.950 . S
C556 C557 1.386 . S
C556 C558 1.391 . S
C557 C556 1.386 . S
C557 C561 1.393 . S
C558 H550 0.950 . S
C558 C556 1.391 . S
C558 C559 1.400 . S
C559 C558 1.400 . S
C559 C560 1.398 . S
C559 C565 1.491 . S
C560 H551 0.950 . S
C560 C559 1.398 . S
C560 C561 1.391 . S
C561 H549 0.950 . S
C561 C557 1.393 . S
C561 C560 1.391 . S
C562 H552 0.950 . S
C562 C563 1.386 . S
C562 C564 1.391 . S
C563 C562 1.386 . S
C563 C567 1.393 . S
C564 H553 0.950 . S
C564 C562 1.391 . S
C564 C565 1.400 . S
C565 C559 1.491 . S
C565 C564 1.400 . S
C565 C566 1.398 . S
C566 H554 0.950 . S
C566 C565 1.398 . S
C566 C567 1.391 . S
C567 H555 0.950 1_554 S
C567 C563 1.393 . S
C567 C566 1.391 . S
H568 C576 0.950 . S
H569 C581 0.950 . S
H570 C578 0.950 . S
H571 C580 0.950 . S
H572 C582 0.950 . S
H573 C584 0.950 . S
H574 C586 0.950 . S
H575 C587 0.950 . S
C576 H568 0.950 . S
C576 C577 1.386 1_655 S
C576 C578 1.391 . S
C577 C576 1.386 1_455 S
C577 C581 1.393 . S
C578 H570 0.950 . S
C578 C576 1.391 . S
C578 C579 1.400 1_655 S
C579 C578 1.400 1_455 S
C579 C580 1.398 . S
C579 C585 1.491 . S
C580 H571 0.950 . S
C580 C579 1.398 . S
C580 C581 1.391 . S
C581 H569 0.950 . S
C581 C577 1.393 . S
C581 C580 1.391 . S
C582 H572 0.950 . S
C582 C583 1.386 . S
C582 C584 1.391 . S
C583 C582 1.386 . S
C583 C587 1.393 1_455 S
C584 H573 0.950 . S
C584 C582 1.391 . S
C584 C585 1.400 . S
C585 C579 1.491 . S
C585 C584 1.400 . S
C585 C586 1.398 1_455 S
C586 H574 0.950 . S
C586 C585 1.398 1_655 S
C586 C587 1.391 . S
C587 H575 0.950 . S
C587 C583 1.393 1_655 S
C587 C586 1.391 . S
H588 C596 0.950 . S
H589 C601 0.950 . S
H590 C598 0.950 . S
H591 C600 0.950 . S
H592 C602 0.950 . S
H593 C604 0.950 . S
H594 C606 0.950 . S
H595 C607 0.950 . S
C596 H588 0.950 . S
C596 C597 1.386 . S
C596 C598 1.391 . S
C597 C596 1.386 . S
C597 C601 1.393 1_545 S
C598 H590 0.950 . S
C598 C596 1.391 . S
C598 C599 1.400 . S
C599 C598 1.400 . S
C599 C600 1.398 1_545 S
C599 C605 1.491 . S
C600 H591 0.950 . S
C600 C599 1.398 1_565 S
C600 C601 1.391 . S
C601 H589 0.950 . S
C601 C597 1.393 1_565 S
C601 C600 1.391 . S
C602 H592 0.950 . S
C602 C603 1.386 1_565 S
C602 C604 1.391 . S
C603 C602 1.386 1_545 S
C603 C607 1.393 . S
C604 H593 0.950 . S
C604 C602 1.391 . S
C604 C605 1.400 1_565 S
C605 C599 1.491 . S
C605 C604 1.400 1_545 S
C605 C606 1.398 . S
C606 H594 0.950 . S
C606 C605 1.398 . S
C606 C607 1.391 . S
C607 H595 0.950 . S
C607 C603 1.393 . S
C607 C606 1.391 . S
H608 C616 0.950 . S
H609 C621 0.950 . S
H610 C618 0.950 . S
H611 C620 0.950 . S
H612 C622 0.950 . S
H613 C624 0.950 . S
H614 C626 0.950 . S
H615 C627 0.950 . S
C616 H608 0.950 . S
C616 C617 1.386 . S
C616 C618 1.391 . S
C617 C616 1.386 . S
C617 C621 1.393 . S
C618 H610 0.950 . S
C618 C616 1.391 . S
C618 C619 1.400 . S
C619 C618 1.400 . S
C619 C620 1.398 . S
C619 C625 1.491 . S
C620 H611 0.950 . S
C620 C619 1.398 . S
C620 C621 1.391 . S
C621 H609 0.950 . S
C621 C617 1.393 . S
C621 C620 1.391 . S
C622 H612 0.950 . S
C622 C623 1.386 . S
C622 C624 1.391 . S
C623 C622 1.386 . S
C623 C627 1.393 . S
C624 H613 0.950 . S
C624 C622 1.391 . S
C624 C625 1.400 . S
C625 C619 1.491 . S
C625 C624 1.400 . S
C625 C626 1.398 . S
C626 H614 0.950 . S
C626 C625 1.398 . S
C626 C627 1.391 . S
C627 H615 0.950 . S
C627 C623 1.393 . S
C627 C626 1.391 . S
H628 C636 0.950 . S
H629 C641 0.950 . S
H630 C638 0.950 . S
H631 C640 0.950 . S
H632 C642 0.950 . S
H633 C644 0.950 . S
H634 C646 0.950 . S
H635 C647 0.950 . S
C636 H628 0.950 . S
C636 C637 1.386 . S
C636 C638 1.391 . S
C637 C636 1.386 . S
C637 C641 1.393 . S
C638 H630 0.950 . S
C638 C636 1.391 . S
C638 C639 1.400 . S
C639 C638 1.400 . S
C639 C640 1.398 . S
C639 C645 1.491 . S
C640 H631 0.950 . S
C640 C639 1.398 . S
C640 C641 1.391 . S
C641 H629 0.950 . S
C641 C637 1.393 . S
C641 C640 1.391 . S
C642 H632 0.950 . S
C642 C643 1.386 . S
C642 C644 1.391 . S
C643 C642 1.386 . S
C643 C647 1.393 . S
C644 H633 0.950 . S
C644 C642 1.391 . S
C644 C645 1.400 . S
C645 C639 1.491 . S
C645 C644 1.400 . S
C645 C646 1.398 . S
C646 H634 0.950 . S
C646 C645 1.398 . S
C646 C647 1.391 . S
C647 H635 0.950 . S
C647 C643 1.393 . S
C647 C646 1.391 . S
H648 C656 0.950 . S
H649 C661 0.950 . S
H650 C658 0.950 . S
H651 C660 0.950 . S
H652 C662 0.950 . S
H653 C664 0.950 . S
H654 C666 0.950 . S
H655 C667 0.950 . S
C656 H648 0.950 . S
C656 C657 1.386 . S
C656 C658 1.391 . S
C657 C656 1.386 . S
C657 C661 1.393 . S
C658 H650 0.950 . S
C658 C656 1.391 . S
C658 C659 1.400 . S
C659 C658 1.400 . S
C659 C660 1.398 . S
C659 C665 1.491 . S
C660 H651 0.950 . S
C660 C659 1.398 . S
C660 C661 1.391 . S
C661 H649 0.950 . S
C661 C657 1.393 . S
C661 C660 1.391 . S
C662 H652 0.950 . S
C662 C663 1.386 . S
C662 C664 1.391 . S
C663 C662 1.386 . S
C663 C667 1.393 . S
C664 H653 0.950 . S
C664 C662 1.391 . S
C664 C665 1.400 . S
C665 C659 1.491 . S
C665 C664 1.400 . S
C665 C666 1.398 . S
C666 H654 0.950 . S
C666 C665 1.398 . S
C666 C667 1.391 . S
C667 H655 0.950 . S
C667 C663 1.393 . S
C667 C666 1.391 . S
H668 C676 0.950 . S
H669 C681 0.961 . S
H670 C678 0.950 . S
H671 C680 0.944 1_545 S
H672 C682 0.950 . S
H673 C684 0.940 1_545 S
H674 C686 0.950 . S
H675 C687 0.950 . S
C676 H668 0.950 . S
C676 C677 1.386 . S
C676 C678 1.391 . S
C677 C676 1.386 . S
C677 C681 1.387 1_565 S
C678 H670 0.950 . S
C678 C676 1.391 . S
C678 C679 1.400 . S
C679 C678 1.400 . S
C679 C680 1.408 . S
C679 C685 1.491 . S
C680 H671 0.944 1_565 S
C680 C679 1.408 . S
C680 C681 1.387 1_565 S
C681 H669 0.961 . S
C681 C677 1.387 1_545 S
C681 C680 1.387 1_545 S
C682 H672 0.950 . S
C682 C683 1.386 . S
C682 C684 1.391 . S
C683 C682 1.386 . S
C683 C687 1.393 . S
C684 H673 0.940 1_565 S
C684 C682 1.391 . S
C684 C685 1.400 . S
C685 C679 1.491 . S
C685 C684 1.400 . S
C685 C686 1.398 . S
C686 H674 0.950 . S
C686 C685 1.398 . S
C686 C687 1.391 . S
C687 H675 0.950 . S
C687 C683 1.393 . S
C687 C686 1.391 . S
H688 C696 0.950 . S
H689 C701 0.950 . S
H690 C698 0.950 . S
H691 C700 0.950 . S
H692 C702 0.950 . S
H693 C704 0.950 . S
H694 C706 0.950 . S
H695 C707 0.950 . S
C696 H688 0.950 . S
C696 C697 1.386 . S
C696 C698 1.391 . S
C697 C696 1.386 . S
C697 C701 1.393 . S
C698 H690 0.950 . S
C698 C696 1.391 . S
C698 C699 1.400 . S
C699 C698 1.400 . S
C699 C700 1.398 . S
C699 C705 1.491 . S
C700 H691 0.950 . S
C700 C699 1.398 . S
C700 C701 1.391 . S
C701 H689 0.950 . S
C701 C697 1.393 . S
C701 C700 1.391 . S
C702 H692 0.950 . S
C702 C703 1.386 . S
C702 C704 1.391 . S
C703 C702 1.386 . S
C703 C707 1.393 . S
C704 H693 0.950 . S
C704 C702 1.391 . S
C704 C705 1.400 . S
C705 C699 1.491 . S
C705 C704 1.400 . S
C705 C706 1.398 . S
C706 H694 0.950 . S
C706 C705 1.398 . S
C706 C707 1.391 . S
C707 H695 0.950 . S
C707 C703 1.393 . S
C707 C706 1.391 . S
H708 C716 0.950 . S
H709 C721 0.950 . S
H710 C718 0.950 . S
H711 C720 0.950 . S
H712 C722 0.950 . S
H713 C724 0.950 . S
H714 C726 0.950 . S
H715 C727 0.950 . S
C716 H708 0.950 . S
C716 C717 1.386 . S
C716 C718 1.391 . S
C717 C716 1.386 . S
C717 C721 1.393 . S
C718 H710 0.950 . S
C718 C716 1.391 . S
C718 C719 1.400 . S
C719 C718 1.400 . S
C719 C720 1.398 . S
C719 C725 1.491 . S
C720 H711 0.950 . S
C720 C719 1.398 . S
C720 C721 1.391 . S
C721 H709 0.950 . S
C721 C717 1.393 . S
C721 C720 1.391 . S
C722 H712 0.950 . S
C722 C723 1.386 . S
C722 C724 1.391 . S
C723 C722 1.386 . S
C723 C727 1.393 . S
C724 H713 0.950 . S
C724 C722 1.391 . S
C724 C725 1.400 . S
C725 C719 1.491 . S
C725 C724 1.400 . S
C725 C726 1.398 . S
C726 H714 0.950 . S
C726 C725 1.398 . S
C726 C727 1.391 . S
C727 H715 0.950 . S
C727 C723 1.393 . S
C727 C726 1.391 . S
C257 C74 1.779 1_565 S
C263 C97 1.864 1_545 S
C283 C137 1.873 . S
C277 C85 1.767 . S
C303 C177 1.874 . S
C297 C52 1.781 . S
C323 C217 1.867 1_455 S
C317 C63 1.761 . S
C343 C106 1.870 1_565 S
C337 C30 1.776 . S
C357 C41 1.787 . S
C363 C146 1.868 . S
C377 C8 1.786 . S
C383 C186 1.865 . S
C397 C19 1.783 . S
C403 C226 1.869 1_655 S
C423 C103 0.611 . S
C417 C62 0.558 . S
C443 C143 0.593 . S
C437 C73 0.603 . S
C463 C183 0.614 . S
C457 C84 0.568 . S
C477 C51 0.565 . S
C483 C223 0.580 . S
C497 C18 0.575 1_655 S
C503 C94 0.567 . S
C523 C134 0.572 . S
C517 C29 0.588 1_565 S
C543 C174 0.618 . S
C537 C40 0.643 . S
C557 C7 0.637 . S
C563 C214 0.618 . S
C577 C60 1.718 . S
C583 C107 2.227 . S
C597 C71 1.679 . S
C603 C147 2.221 . S
C623 C187 2.227 . S
C617 C82 1.710 . S
C643 C227 2.231 . S
C637 C49 1.711 . S
C657 C16 1.795 1_655 S
C663 C98 2.232 . S
C683 C138 2.219 . S
C677 C27 1.786 1_565 S
C703 C178 2.221 . S
C697 C38 1.782 . S
C717 C5 1.768 . S
C723 C218 2.232 . S
