# Generated by pormake.
# Topology pyr, (3,6)-cn, num edge types: 1
# Building blocks:
#     Node 0, Type 0, BuildingBlock: OLANEW_clean_sbu_2, # of connection points: 3
#     Node 1, Type 0, BuildingBlock: OLANEW_clean_sbu_2, # of connection points: 3
#     Node 2, Type 0, BuildingBlock: OLANEW_clean_sbu_2, # of connection points: 3
#     Node 3, Type 0, BuildingBlock: OLANEW_clean_sbu_2, # of connection points: 3
#     Node 4, Type 0, BuildingBlock: OLANEW_clean_sbu_2, # of connection points: 3
#     Node 5, Type 0, BuildingBlock: OLANEW_clean_sbu_2, # of connection points: 3
#     Node 6, Type 0, BuildingBlock: OLANEW_clean_sbu_2, # of connection points: 3
#     Node 7, Type 0, BuildingBlock: OLANEW_clean_sbu_2, # of connection points: 3
#     Node 8, Type 1, BuildingBlock: GEDQOX_clean_sbu_0, # of connection points: 6
#     Node 9, Type 1, BuildingBlock: GEDQOX_clean_sbu_0, # of connection points: 6
#     Node 10, Type 1, BuildingBlock: GEDQOX_clean_sbu_0, # of connection points: 6
#     Node 11, Type 1, BuildingBlock: GEDQOX_clean_sbu_0, # of connection points: 6
#     Edge 12, Type (0, 1), BuildingBlock: KIFKEQ_clean_linker_1, # of connection points: 2
#     Edge 13, Type (0, 1), BuildingBlock: KIFKEQ_clean_linker_1, # of connection points: 2
#     Edge 14, Type (0, 1), BuildingBlock: KIFKEQ_clean_linker_1, # of connection points: 2
#     Edge 15, Type (0, 1), BuildingBlock: KIFKEQ_clean_linker_1, # of connection points: 2
#     Edge 16, Type (0, 1), BuildingBlock: KIFKEQ_clean_linker_1, # of connection points: 2
#     Edge 17, Type (0, 1), BuildingBlock: KIFKEQ_clean_linker_1, # of connection points: 2
#     Edge 18, Type (0, 1), BuildingBlock: KIFKEQ_clean_linker_1, # of connection points: 2
#     Edge 19, Type (0, 1), BuildingBlock: KIFKEQ_clean_linker_1, # of connection points: 2
#     Edge 20, Type (0, 1), BuildingBlock: KIFKEQ_clean_linker_1, # of connection points: 2
#     Edge 21, Type (0, 1), BuildingBlock: KIFKEQ_clean_linker_1, # of connection points: 2
#     Edge 22, Type (0, 1), BuildingBlock: KIFKEQ_clean_linker_1, # of connection points: 2
#     Edge 23, Type (0, 1), BuildingBlock: KIFKEQ_clean_linker_1, # of connection points: 2
#     Edge 24, Type (0, 1), BuildingBlock: KIFKEQ_clean_linker_1, # of connection points: 2
#     Edge 25, Type (0, 1), BuildingBlock: KIFKEQ_clean_linker_1, # of connection points: 2
#     Edge 26, Type (0, 1), BuildingBlock: KIFKEQ_clean_linker_1, # of connection points: 2
#     Edge 27, Type (0, 1), BuildingBlock: KIFKEQ_clean_linker_1, # of connection points: 2
#     Edge 28, Type (0, 1), BuildingBlock: KIFKEQ_clean_linker_1, # of connection points: 2
#     Edge 29, Type (0, 1), BuildingBlock: KIFKEQ_clean_linker_1, # of connection points: 2
#     Edge 30, Type (0, 1), BuildingBlock: KIFKEQ_clean_linker_1, # of connection points: 2
#     Edge 31, Type (0, 1), BuildingBlock: KIFKEQ_clean_linker_1, # of connection points: 2
#     Edge 32, Type (0, 1), BuildingBlock: KIFKEQ_clean_linker_1, # of connection points: 2
#     Edge 33, Type (0, 1), BuildingBlock: KIFKEQ_clean_linker_1, # of connection points: 2
#     Edge 34, Type (0, 1), BuildingBlock: KIFKEQ_clean_linker_1, # of connection points: 2
#     Edge 35, Type (0, 1), BuildingBlock: KIFKEQ_clean_linker_1, # of connection points: 2
# Relax obj value: 0.172
# Max RMSD: 0.181
# Mean RMSD: 0.131
data_MOF--net-pyr--node1-OLANEW_clean_sbu_2--node2-GEDQOX_clean_sbu_0--edge1-KIFKEQ_clean_linker_1
_symmetry_space_group_name_H-M    P1
_symmetry_Int_Tables_number       1
_symmetry_cell_setting            triclinic
loop_
_symmetry_equiv_pos_as_xyz
'x, y, z'
_cell_length_a     43.15217
_cell_length_b     43.062232
_cell_length_c     37.426175
_cell_angle_alpha  92.693115
_cell_angle_beta   91.761301
_cell_angle_gamma 93.040687
loop_
_atom_site_label
_atom_site_type_symbol
_atom_site_fract_x
_atom_site_fract_y
_atom_site_fract_z
_atom_type_partial_charge
O0 O 0.25044 0.19111 0.16697 0.0
Cd1 Cd 0.20615 0.22719 0.17936 0.0
O2 O 0.24737 0.15058 0.20279 0.0
Cd3 Cd 0.20895 0.14726 0.24275 0.0
O4 O 0.17947 0.13369 0.28962 0.0
C5 C 0.16791 0.10599 0.29273 0.0
O6 O 0.17305 0.08476 0.26755 0.0
C7 C 0.26071 0.16556 0.17803 0.0
C8 C 0.18393 0.27784 0.139 0.0
O9 O 0.20826 0.2815 0.1597 0.0
O10 O 0.17134 0.25016 0.13519 0.0
O11 O 0.39289 0.81973 0.83258 0.0
Cd12 Cd 0.36714 0.78257 0.78834 0.0
O13 O 0.34836 0.82594 0.85836 0.0
Cd14 Cd 0.32141 0.79356 0.82149 0.0
O15 O 0.28781 0.7847 0.77727 0.0
C16 C 0.25958 0.77785 0.78356 0.0
O17 O 0.25184 0.77323 0.81665 0.0
C18 C 0.37726 0.83297 0.85662 0.0
C19 C 0.40616 0.74419 0.75163 0.0
O20 O 0.40162 0.77166 0.74155 0.0
O21 O 0.39266 0.73503 0.77961 0.0
O22 O 0.78576 0.52172 0.93557 0.0
Cd23 Cd 0.73067 0.53108 0.9343 0.0
O24 O 0.7734 0.47209 0.93787 0.0
Cd25 Cd 0.77736 0.42187 0.9385 0.0
O26 O 0.75325 0.37661 0.94278 0.0
C27 C 0.73226 0.37582 0.96583 0.0
O28 O 0.72823 0.40106 0.98589 0.0
C29 C 0.79425 0.49401 0.93709 0.0
C30 C 0.70587 0.52701 0.86462 0.0
O31 O 0.71911 0.55243 0.8781 0.0
O32 O 0.70441 0.50332 0.88412 0.0
O33 O 0.04053 0.78736 0.393 0.0
Cd34 Cd 1.02183 0.82568 0.35229 0.0
O35 O 0.04122 0.76266 0.44282 0.0
Cd36 Cd 1.02057 0.75258 0.49349 0.0
O37 O 0.97889 0.73738 0.52004 0.0
C38 C 0.95379 0.74847 0.50916 0.0
O39 O 0.95489 0.76928 0.48459 0.0
C40 C 0.0315 0.78466 0.42477 0.0
C41 C 0.99178 0.79171 0.29507 0.0
O42 O 0.977 0.79935 0.32302 0.0
O43 O 1.02033 0.80127 0.29364 0.0
O44 O 0.88999 0.86714 0.8553 0.0
Cd45 Cd 0.88831 0.82823 0.90455 0.0
O46 O 0.85276 0.90136 0.85794 0.0
Cd47 Cd 0.80993 0.92016 0.8849 0.0
O48 O 0.76458 0.93645 0.90823 0.0
C49 C 0.76275 0.95775 0.93308 0.0
O50 O 0.78866 0.97155 0.94662 0.0
C51 C 0.87678 0.89071 0.84292 0.0
C52 C 0.92524 0.77458 0.9113 0.0
O53 O 0.89816 0.77248 0.89596 0.0
O54 O 0.93604 0.80203 0.92142 0.0
O55 O 0.70178 0.26865 0.26047 0.0
Cd56 Cd 0.73403 0.30262 0.30274 0.0
O57 O 0.66363 0.26569 0.29803 0.0
Cd58 Cd 0.68496 0.29989 0.33786 0.0
O59 O 0.69144 0.33863 0.37787 0.0
C60 C 0.69599 0.36616 0.36759 0.0
O61 O 0.69836 0.37038 0.33322 0.0
C62 C 0.67496 0.25774 0.26817 0.0
C63 C 0.77382 0.2683 0.34361 0.0
O64 O 0.74612 0.27278 0.35334 0.0
O65 O 0.78278 0.28021 0.31468 0.0
O66 O 0.45903 0.65842 0.185 0.0
Cd67 Cd 0.44863 0.60794 0.20923 0.0
O68 O 0.41085 0.65504 0.16517 0.0
Cd69 Cd 0.36778 0.66641 0.13779 0.0
O70 O 0.31956 0.65714 0.11965 0.0
C71 C 0.30866 0.62988 0.12528 0.0
O72 O 0.32688 0.61054 0.14061 0.0
C73 C 0.43671 0.67062 0.16905 0.0
C74 C 0.47522 0.60909 0.27768 0.0
O75 O 0.48984 0.59906 0.25055 0.0
O76 O 0.44773 0.61823 0.27245 0.0
O77 O 0.31837 0.26297 0.8248 0.0
Cd78 Cd 0.34194 0.2248 0.78648 0.0
O79 O 0.27418 0.23828 0.80923 0.0
Cd80 Cd 0.22412 0.22757 0.80135 0.0
O81 O 0.18647 0.19473 0.78113 0.0
C82 C 0.16338 0.20184 0.76185 0.0
O83 O 0.16027 0.23114 0.75477 0.0
C84 C 0.28897 0.26146 0.82531 0.0
C85 C 0.36478 0.25962 0.73181 0.0
O86 O 0.3367 0.24825 0.7302 0.0
O87 O 0.38233 0.2532 0.75841 0.0
Nd88 Nd 0.03052 0.98155 0.56214 0.0
Nd89 Nd 0.98901 0.0329 0.56507 0.0
C90 C 0.05409 0.92631 0.55755 0.0
C91 C 0.0682 0.90583 0.58257 0.0
C92 C 0.07131 0.87446 0.57248 0.0
C93 C 0.0882 0.85577 0.59455 0.0
C94 C 0.10231 0.86849 0.62666 0.0
C95 C 0.0976 0.8995 0.63754 0.0
C96 C 0.0805 0.91803 0.61569 0.0
C97 C 0.05491 0.03141 0.60466 0.0
C98 C 0.97917 0.98392 0.6258 0.0
C99 C 0.95986 0.08519 0.56548 0.0
C100 C 0.94525 0.10399 0.53885 0.0
C101 C 0.94328 0.13596 0.54615 0.0
C102 C 0.92727 0.15379 0.52232 0.0
C103 C 0.91291 0.13978 0.49094 0.0
C104 C 0.91592 0.10786 0.4831 0.0
C105 C 0.93211 0.09009 0.50684 0.0
C106 C 0.96773 0.98191 0.52174 0.0
C107 C 0.0428 0.03212 0.50372 0.0
O108 O 1.02443 0.93003 0.56078 0.0
O109 O 0.07014 0.95234 0.55287 0.0
O110 O 0.07143 1.01332 0.5853 0.0
O111 O 1.02693 0.02143 0.60383 0.0
O112 O 0.99494 0.96578 0.60429 0.0
O113 O 0.97803 1.01378 0.61983 0.0
O114 O 0.99009 0.0845 0.56512 0.0
O115 O 0.94604 0.05797 0.56989 0.0
O116 O 0.95063 0.99537 0.54495 0.0
O117 O 0.99429 0.99495 0.52294 0.0
O118 O 1.02585 0.05 0.52432 0.0
O119 O 0.04354 1.0022 0.50926 0.0
H120 H 0.06171 0.86479 0.547 0.0
H121 H 0.09162 0.83193 0.58566 0.0
H122 H 0.10796 0.90964 0.66244 0.0
H123 H 0.07793 0.94219 0.62396 0.0
H124 H 0.95347 0.14696 0.5707 0.0
H125 H 0.92515 0.1783 0.52912 0.0
H126 H 0.90547 0.09661 0.45884 0.0
H127 H 0.93378 0.06542 0.5006 0.0
Nd128 Nd 0.51181 0.03845 0.08761 0.0
Nd129 Nd 0.50839 0.07537 0.03128 0.0
C130 C 0.51262 0.99249 0.13196 0.0
C131 C 0.50217 0.95937 0.13011 0.0
C132 C 0.52424 0.93675 0.13251 0.0
C133 C 0.51489 0.90522 0.1309 0.0
C134 C 0.48326 0.8958 0.1272 0.0
C135 C 0.46114 0.9184 0.12447 0.0
C136 C 0.47051 0.94994 0.12576 0.0
C137 C 0.46378 0.07871 0.09477 0.0
C138 C 0.47459 1.01001 0.01612 0.0
C139 C 0.50574 0.12236 0.98869 0.0
C140 C 0.52945 0.1469 0.9826 0.0
C141 C 0.5223 0.17247 0.96281 0.0
C142 C 0.54485 0.19645 0.95868 0.0
C143 C 0.57479 0.19513 0.97443 0.0
C144 C 0.58184 0.16916 0.99392 0.0
C145 C 0.55938 0.14524 0.9979 0.0
C146 C 0.55653 0.03609 0.02122 0.0
C147 C 0.55074 0.10112 0.10328 0.0
O148 O 0.53599 1.00021 0.1123 0.0
O149 O 0.49115 1.01266 0.13154 0.0
O150 O 0.48576 0.07616 0.11862 0.0
O151 O 0.46886 0.06227 0.06685 0.0
O152 O 0.49398 1.0036 0.04214 0.0
O153 O 0.47066 0.03929 1.0097 0.0
O154 O 0.4947 0.12307 0.0208 0.0
O155 O 0.51244 0.09443 0.97759 0.0
O156 O 0.53565 0.0416 0.99719 0.0
O157 O 0.55135 0.05066 0.05063 0.0
O158 O 0.53562 0.10863 0.074 0.0
O159 O 0.54814 0.07255 0.11359 0.0
H160 H 0.54875 0.94349 0.13584 0.0
H161 H 0.53237 0.88823 0.13345 0.0
H162 H 0.43663 0.91165 0.1213 0.0
H163 H 0.45292 0.96685 0.12349 0.0
H164 H 0.49928 0.17402 0.95087 0.0
H165 H 0.53886 0.21602 0.94319 0.0
H166 H 0.60449 0.16765 1.00683 0.0
H167 H 0.56523 0.12559 1.01337 0.0
Nd168 Nd 0.55496 0.53982 0.56656 0.0
Nd169 Nd 0.60774 0.58939 0.5844 0.0
C170 C 0.50536 0.50479 0.5444 0.0
C171 C 0.48396 0.4814 0.55882 0.0
C172 C 0.47498 0.48374 0.59452 0.0
C173 C 0.45768 0.45924 0.60879 0.0
C174 C 0.44959 0.43199 0.58767 0.0
C175 C 0.45792 0.43013 0.55171 0.0
C176 C 0.4749 0.45473 0.53737 0.0
C177 C 0.58908 0.53157 0.62838 0.0
C178 C 0.54075 0.60336 0.61188 0.0
C179 C 0.65728 0.6225 0.61009 0.0
C180 C 0.68811 0.63366 0.59998 0.0
C181 C 0.70376 0.65747 0.62118 0.0
C182 C 0.73279 0.66939 0.61162 0.0
C183 C 0.74655 0.65765 0.58061 0.0
C184 C 0.73087 0.63347 0.55955 0.0
C185 C 0.70171 0.62158 0.56914 0.0
C186 C 0.57274 0.59885 0.52351 0.0
C187 C 0.62092 0.52941 0.53204 0.0
O188 O 0.504 0.53367 0.55662 0.0
O189 O 0.53374 0.49624 0.54105 0.0
O190 O 0.57742 0.50845 0.60799 0.0
O191 O 0.58035 0.55675 0.61747 0.0
O192 O 0.52942 0.58246 0.58724 0.0
O193 O 0.5705 0.6057 0.621 0.0
O194 O 0.65302 0.59252 0.61398 0.0
O195 O 0.63394 0.63465 0.59374 0.0
O196 O 0.58537 0.62159 0.54386 0.0
O197 O 0.58138 0.57337 0.53373 0.0
O198 O 0.6336 0.54925 0.55703 0.0
O199 O 0.59065 0.5269 0.52591 0.0
H200 H 0.48217 0.50399 0.61164 0.0
H201 H 0.45182 0.46102 0.63672 0.0
H202 H 0.4518 0.40941 0.5349 0.0
H203 H 0.48189 0.4525 0.50984 0.0
H204 H 0.69342 0.66697 0.64506 0.0
H205 H 0.74454 0.68771 0.62858 0.0
H206 H 0.74085 0.62422 0.53534 0.0
H207 H 0.68966 0.60326 0.55242 0.0
Nd208 Nd 0.03267 0.52165 0.04444 0.0
Nd209 Nd 0.07907 0.52648 0.98771 0.0
C210 C 0.98296 0.5251 0.08317 0.0
C211 C 0.97034 0.55351 0.09824 0.0
C212 C 0.94565 0.55247 0.12159 0.0
C213 C 0.93612 0.58008 0.13809 0.0
C214 C 0.95123 0.60891 0.13125 0.0
C215 C 0.97529 0.60966 0.10682 0.0
C216 C 0.9848 0.58225 0.09063 0.0
C217 C 0.08724 0.55399 0.06607 0.0
C218 C 0.03123 0.58055 0.98973 0.0
C219 C 0.12959 0.52572 0.95043 0.0
C220 C 0.1463 0.49885 0.93851 0.0
C221 C 0.13274 0.46891 0.94232 0.0
C222 C 0.14851 0.44284 0.93196 0.0
C223 C 0.17808 0.44637 0.91763 0.0
C224 C 0.19173 0.47643 0.91415 0.0
C225 C 0.17586 0.5026 0.92459 0.0
C226 C 1.02439 0.49484 0.96532 0.0
C227 C 0.08013 0.46698 0.04167 0.0
O228 O 0.98157 0.52221 0.04823 0.0
O229 O 1.01017 0.51912 0.09666 0.0
O230 O 0.07218 0.53503 0.08596 0.0
O231 O 0.07279 0.55652 0.03678 0.0
O232 O 1.01515 0.56111 1.00945 0.0
O233 O 0.06005 0.57492 0.98172 0.0
O234 O 0.13022 0.53109 0.98512 0.0
O235 O 0.10187 0.52711 0.93569 0.0
O236 O 0.0402 0.51345 0.94564 0.0
O237 O 0.03847 0.49198 0.99486 0.0
O238 O 0.09622 0.48621 0.02167 0.0
O239 O 0.05137 0.47285 0.04995 0.0
H240 H 0.93437 0.53039 0.12778 0.0
H241 H 0.91747 0.57883 0.15675 0.0
H242 H 0.98797 0.63127 0.10158 0.0
H243 H 1.00432 0.58342 0.07316 0.0
H244 H 0.10994 0.46573 0.9534 0.0
H245 H 0.1377 0.41994 0.93544 0.0
H246 H 0.21444 0.47969 0.90293 0.0
H247 H 0.18659 0.52565 0.92182 0.0
H248 H 0.13734 0.05002 0.30286 0.0
H249 H 0.15509 0.14143 0.35397 0.0
H250 H 0.10694 0.03423 0.35291 0.0
H251 H 0.12513 0.12519 0.40523 0.0
H252 H 0.04525 0.09178 0.47839 0.0
H253 H 0.07488 0.11097 0.42819 0.0
H254 H 0.11221 0.02044 0.41212 0.0
H255 H 0.08224 1.00133 0.46086 0.0
C256 C 0.13494 0.06684 0.3249 0.0
C257 C 0.14894 0.09709 0.3241 0.0
C258 C 0.11755 0.05762 0.354 0.0
C259 C 0.11363 0.07817 0.38376 0.0
C260 C 0.1273 0.10865 0.38287 0.0
C261 C 0.14469 0.11797 0.35348 0.0
C262 C 0.05971 0.07601 0.46399 0.0
C263 C 0.06094 0.04486 0.47364 0.0
C264 C 0.07694 0.08707 0.43527 0.0
C265 C 0.09588 0.06728 0.41543 0.0
C266 C 0.09742 0.03636 0.42579 0.0
C267 C 0.08023 0.02536 0.45417 0.0
H268 H 0.34798 0.87539 0.89784 0.0
H269 H 0.43935 0.84786 0.8699 0.0
H270 H 0.37128 0.91855 0.93572 0.0
H271 H 0.46265 0.89105 0.90833 0.0
H272 H 0.48819 0.94891 1.01428 0.0
H273 H 0.46506 0.90623 0.97561 0.0
H274 H 0.40385 0.96936 0.92691 0.0
H275 H 0.42729 1.0125 0.96548 0.0
C276 C 0.37306 0.87839 0.89998 0.0
C277 C 0.39183 0.85808 0.88095 0.0
C278 C 0.38636 0.9033 0.92146 0.0
C279 C 0.41874 0.90823 0.92488 0.0
C280 C 0.43759 0.8877 0.90629 0.0
C281 C 0.42427 0.86302 0.88429 0.0
C282 C 0.46977 0.95382 0.99538 0.0
C283 C 0.45957 0.98419 0.99301 0.0
C284 C 0.45669 0.92933 0.97308 0.0
C285 C 0.43277 0.93448 0.94818 0.0
C286 C 0.42221 0.96472 0.94601 0.0
C287 C 0.43566 0.98941 0.968 0.0
H288 H 0.66606 0.48143 0.83334 0.0
H289 H 0.7139 0.56925 0.81327 0.0
H290 H 0.63945 0.4814 0.77492 0.0
H291 H 0.68834 0.56867 0.75439 0.0
H292 H 0.60804 0.57885 0.67541 0.0
H293 H 0.63802 0.57627 0.73094 0.0
H294 H 0.64404 0.47702 0.71127 0.0
H295 H 0.61276 0.47962 0.65586 0.0
C296 C 0.67124 0.50049 0.81622 0.0
C297 C 0.69179 0.52552 0.82805 0.0
C298 C 0.65613 0.50038 0.78262 0.0
C299 C 0.66152 0.52516 0.76002 0.0
C300 C 0.68307 0.54955 0.7714 0.0
C301 C 0.69788 0.54982 0.80509 0.0
C302 C 0.61575 0.55646 0.68292 0.0
C303 C 0.60795 0.52937 0.6615 0.0
C304 C 0.63323 0.55501 0.71464 0.0
C305 C 0.64364 0.52645 0.72558 0.0
C306 C 0.63608 0.49933 0.70386 0.0
C307 C 0.61832 0.50079 0.6721 0.0
H308 H 1.0135 0.77817 0.22886 0.0
H309 H 0.93767 0.75606 0.29774 0.0
H310 H 0.99433 0.73654 0.18627 0.0
H311 H 0.9185 0.71427 0.25495 0.0
H312 H 0.94139 0.61528 0.20277 0.0
H313 H 0.94298 0.66356 0.23937 0.0
H314 H 0.95008 0.71631 0.14437 0.0
H315 H 0.94783 0.66788 0.10747 0.0
C316 C 0.99237 0.76485 0.23454 0.0
C317 C 0.97726 0.77019 0.26676 0.0
C318 C 0.98126 0.74115 0.21002 0.0
C319 C 0.95498 0.72215 0.21741 0.0
C320 C 0.9389 0.72852 0.24874 0.0
C321 C 0.94983 0.75248 0.27312 0.0
C322 C 0.94205 0.63712 0.18952 0.0
C323 C 0.94488 0.63776 0.15227 0.0
C324 C 0.94304 0.66482 0.21053 0.0
C325 C 0.94701 0.69364 0.19468 0.0
C326 C 0.94742 0.69436 0.15725 0.0
C327 C 0.94619 0.66667 0.1362 0.0
H328 H 0.27719 0.10471 0.17174 0.0
H329 H 0.31059 0.19798 0.15035 0.0
H330 H 0.32525 0.0844 0.14904 0.0
H331 H 0.35911 0.17768 0.12881 0.0
H332 H 0.45455 0.12743 0.14169 0.0
H333 H 0.40541 0.14875 0.15938 0.0
H334 H 0.35527 0.08177 0.08699 0.0
H335 H 0.4047 0.06116 0.06823 0.0
C336 C 0.29472 0.12093 0.16213 0.0
C337 C 0.28972 0.15308 0.16275 0.0
C338 C 0.32228 0.10922 0.14898 0.0
C339 C 0.34613 0.12935 0.13698 0.0
C340 C 0.34128 0.16148 0.13781 0.0
C341 C 0.31334 0.17312 0.15002 0.0
C342 C 0.43307 0.11749 0.12918 0.0
C343 C 0.43366 0.0927 0.10336 0.0
C344 C 0.40488 0.12975 0.13932 0.0
C345 C 0.37627 0.11701 0.12471 0.0
C346 C 0.37681 0.09212 0.09887 0.0
C347 C 0.40516 0.08044 0.08794 0.0
H348 H 0.19651 0.77134 0.78943 0.0
H349 H 0.26779 0.79336 0.71443 0.0
H350 H 0.1572 0.78843 0.74745 0.0
H351 H 0.22843 0.81029 0.6727 0.0
H352 H 0.16059 0.88756 0.64905 0.0
H353 H 0.19778 0.8589 0.68276 0.0
H354 H 0.13138 0.78027 0.68352 0.0
H355 H 0.09381 0.80926 0.64949 0.0
C356 C 0.20372 0.77906 0.76369 0.0
C357 C 0.23533 0.78155 0.75555 0.0
C358 C 0.18118 0.78871 0.73965 0.0
C359 C 0.18996 0.80106 0.7072 0.0
C360 C 0.22121 0.80124 0.69785 0.0
C361 C 0.24369 0.79147 0.72173 0.0
C362 C 0.15391 0.86419 0.65651 0.0
C363 C 0.12435 0.85063 0.64708 0.0
C364 C 0.17529 0.84767 0.67536 0.0
C365 C 0.16747 0.81731 0.68537 0.0
C366 C 0.13788 0.80364 0.67597 0.0
C367 C 0.11652 0.82012 0.65659 0.0
H368 H 0.82416 0.44512 0.96515 0.0
H369 H 0.84024 0.5309 0.91159 0.0
H370 H 0.88006 0.43831 0.96806 0.0
H371 H 0.89571 0.52497 0.91597 0.0
H372 H 0.99195 0.50099 0.90326 0.0
H373 H 0.93602 0.49453 0.89297 0.0
H374 H 0.92617 0.4624 0.99993 0.0
H375 H 0.98262 0.4674 1.00947 0.0
C376 C 0.83949 0.46214 0.95332 0.0
C377 C 0.82772 0.48826 0.93756 0.0
C378 C 0.87156 0.4585 0.9555 0.0
C379 C 0.89238 0.48093 0.94195 0.0
C380 C 0.88041 0.50684 0.92594 0.0
C381 C 0.84855 0.51043 0.92375 0.0
C382 C 0.9779 0.49194 0.92431 0.0
C383 C 0.99146 0.48544 0.95748 0.0
C384 C 0.94583 0.48843 0.91852 0.0
C385 C 0.92655 0.47873 0.94594 0.0
C386 C 0.94034 0.46996 0.97825 0.0
C387 C 0.97262 0.47306 0.98385 0.0
H388 H 0.8965 0.76924 0.49369 0.0
H389 H 0.9428 0.69985 0.55224 0.0
H390 H 0.84638 0.74704 0.51101 0.0
H391 H 0.89259 0.67794 0.56988 0.0
H392 H 0.79616 0.62664 0.55685 0.0
H393 H 0.84655 0.64916 0.54022 0.0
H394 H 0.81602 0.74138 0.56535 0.0
H395 H 0.76546 0.71898 0.58086 0.0
C396 C 0.896 0.74941 0.51048 0.0
C397 C 0.9236 0.73628 0.52159 0.0
C398 C 0.8673 0.73679 0.52049 0.0
C399 C 0.86564 0.71073 0.54168 0.0
C400 C 0.89322 0.6978 0.55315 0.0
C401 C 0.92194 0.71052 0.54329 0.0
C402 C 0.80019 0.65171 0.55848 0.0
C403 C 0.77697 0.67108 0.57017 0.0
C404 C 0.82908 0.66457 0.54937 0.0
C405 C 0.83517 0.697 0.55161 0.0
C406 C 0.81187 0.71633 0.56311 0.0
C407 C 0.78307 0.70349 0.5723 0.0
H408 H 0.12649 0.27961 0.10519 0.0
H409 H 0.20813 0.33823 0.1354 0.0
H410 H 0.10146 0.3244 0.08173 0.0
H411 H 0.18311 0.38306 0.11197 0.0
H412 H 0.14057 0.451 0.03515 0.0
H413 H 0.16545 0.40577 0.05719 0.0
H414 H 0.07885 0.37316 0.10073 0.0
H415 H 0.05384 0.41853 0.0785 0.0
C416 C 0.13929 0.30198 0.1066 0.0
C417 C 0.16953 0.30502 0.1222 0.0
C418 C 0.12474 0.32786 0.09339 0.0
C419 C 0.14004 0.35768 0.09488 0.0
C420 C 0.17053 0.36058 0.10991 0.0
C421 C 0.18494 0.33477 0.12351 0.0
C422 C 0.1267 0.43424 0.04939 0.0
C423 C 0.09504 0.43869 0.05494 0.0
C424 C 0.14112 0.40824 0.06229 0.0
C425 C 0.12438 0.38552 0.08095 0.0
C426 C 0.0926 0.38982 0.08623 0.0
C427 C 0.07821 0.41604 0.07359 0.0
H428 H 0.68593 0.36706 1.0128 0.0
H429 H 0.7301 0.32187 0.92381 0.0
H430 H 0.64855 0.32287 1.01441 0.0
H431 H 0.69218 0.27784 0.925 0.0
H432 H 0.63682 0.19166 0.96257 0.0
H433 H 0.67596 0.2346 0.96146 0.0
H434 H 0.60482 0.3003 0.97778 0.0
H435 H 0.56598 0.25741 0.98037 0.0
C436 C 0.68771 0.34767 0.99361 0.0
C437 C 0.71093 0.34802 0.96811 0.0
C438 C 0.66613 0.32244 0.99438 0.0
C439 C 0.66724 0.297 0.96962 0.0
C440 C 0.69088 0.297 0.9446 0.0
C441 C 0.71253 0.32227 0.94386 0.0
C442 C 0.62961 0.21528 0.96612 0.0
C443 C 0.59833 0.22116 0.97164 0.0
C444 C 0.65196 0.23987 0.96513 0.0
C445 C 0.6435 0.27083 0.9697 0.0
C446 C 0.61215 0.27668 0.97469 0.0
C447 C 0.58982 0.25213 0.97568 0.0
H448 H 0.98191 0.81047 0.39263 0.0
H449 H 0.0337 0.80954 0.49294 0.0
H450 H 0.95488 0.85561 0.41528 0.0
H451 H 1.00547 0.85327 0.51632 0.0
H452 H 0.94568 0.92964 0.55311 0.0
H453 H 0.95109 0.87584 0.53007 0.0
H454 H 0.98346 0.91029 0.43057 0.0
H455 H 0.97908 0.96365 0.45402 0.0
C456 C 0.9872 0.81967 0.4196 0.0
C457 C 1.01046 0.8071 0.44064 0.0
C458 C 0.97141 0.84511 0.43274 0.0
C459 C 0.9782 0.85794 0.46748 0.0
C460 C 0.99952 0.8436 0.48958 0.0
C461 C 1.01568 0.81855 0.47619 0.0
C462 C 0.9527 0.9255 0.52583 0.0
C463 C 0.96175 0.95054 0.5051 0.0
C464 C 0.95601 0.89485 0.51278 0.0
C465 C 0.96764 0.88899 0.47856 0.0
C466 C 0.97405 0.9141 0.45683 0.0
C467 C 0.97156 0.94461 0.4702 0.0
H468 H 0.44706 0.76025 0.70077 0.0
H469 H 0.40949 0.68129 0.75571 0.0
H470 H 0.47881 0.72582 0.66556 0.0
H471 H 0.44126 0.64688 0.72023 0.0
H472 H 0.4781 0.595 0.61935 0.0
H473 H 0.44477 0.62923 0.65323 0.0
H474 H 0.52404 0.69226 0.68063 0.0
H475 H 0.5572 0.65834 0.6471 0.0
C476 C 0.44558 0.73557 0.7053 0.0
C477 C 0.42586 0.72344 0.73101 0.0
C478 C 0.46377 0.71594 0.68523 0.0
C479 C 0.46227 0.68381 0.69021 0.0
C480 C 0.4425 0.67159 0.71574 0.0
C481 C 0.42458 0.69129 0.73618 0.0
C482 C 0.48825 0.61627 0.63245 0.0
C483 C 0.52012 0.62407 0.63072 0.0
C484 C 0.46931 0.63566 0.65196 0.0
C485 C 0.48197 0.66326 0.66941 0.0
C486 C 0.51374 0.67121 0.66716 0.0
C487 C 0.53268 0.65171 0.64815 0.0
H488 H 0.85615 0.93983 0.80405 0.0
H489 H 0.92926 0.87533 0.80873 0.0
H490 H 0.87955 0.96231 0.75153 0.0
H491 H 0.95296 0.89819 0.75782 0.0
H492 H 0.97577 0.92333 0.64581 0.0
H493 H 0.94975 0.90168 0.69647 0.0
H494 H 0.92085 0.99309 0.72876 0.0
H495 H 0.94608 1.01449 0.67712 0.0
C496 C 0.8772 0.93046 0.79409 0.0
C497 C 0.89053 0.90548 0.81086 0.0
C498 C 0.89083 0.94353 0.76397 0.0
C499 C 0.91824 0.93207 0.74976 0.0
C500 C 0.93156 0.90737 0.76696 0.0
C501 C 0.91794 0.8943 0.79669 0.0
C502 C 0.96385 0.93887 0.66364 0.0
C503 C 0.96325 0.97076 0.65722 0.0
C504 C 0.94899 0.92645 0.69308 0.0
C505 C 0.93314 0.94549 0.7174 0.0
C506 C 0.93236 0.97741 0.71072 0.0
C507 C 0.94714 0.98982 0.68111 0.0
H508 H 0.62184 0.22322 0.28067 0.0
H509 H 0.68681 0.24261 0.19793 0.0
H510 H 0.59221 0.18654 0.23953 0.0
H511 H 0.65682 0.20582 0.15659 0.0
H512 H 0.57172 0.16006 0.08631 0.0
H513 H 0.6022 0.19884 0.12503 0.0
H514 H 0.60268 0.13434 0.20985 0.0
H515 H 0.57272 0.0958 0.17156 0.0
C516 C 0.62979 0.21974 0.25368 0.0
C517 C 0.65683 0.23578 0.2427 0.0
C518 C 0.61283 0.19863 0.23013 0.0
C519 C 0.62223 0.19322 0.19485 0.0
C520 C 0.64891 0.20965 0.18355 0.0
C521 C 0.66617 0.23055 0.20731 0.0
C522 C 0.57841 0.1542 0.1132 0.0
C523 C 0.5697 0.12483 0.12581 0.0
C524 C 0.59596 0.17633 0.13528 0.0
C525 C 0.60465 0.16969 0.17056 0.0
C526 C 0.59604 0.1403 0.18297 0.0
C527 C 0.57899 0.11813 0.16087 0.0
H528 H 0.528 0.58204 0.29853 0.0
H529 H 0.45497 0.63765 0.33884 0.0
H530 H 0.55086 0.58128 0.35882 0.0
H531 H 0.47812 0.63691 0.39933 0.0
H532 H 0.5536 0.65195 0.49403 0.0
H533 H 0.5294 0.65615 0.43425 0.0
H534 H 0.53187 0.55661 0.4155 0.0
H535 H 0.55549 0.55235 0.4747 0.0
C536 C 0.51691 0.59422 0.32022 0.0
C537 C 0.48956 0.60969 0.31402 0.0
C538 C 0.52994 0.59369 0.35471 0.0
C539 C 0.5161 0.60892 0.38361 0.0
C540 C 0.48925 0.62513 0.37739 0.0
C541 C 0.47596 0.62535 0.34287 0.0
C542 C 0.54877 0.63106 0.47709 0.0
C543 C 0.55668 0.60192 0.48874 0.0
C544 C 0.5349 0.63343 0.44308 0.0
C545 C 0.52918 0.60673 0.42027 0.0
C546 C 0.53652 0.5776 0.43236 0.0
C547 C 0.54994 0.57519 0.46632 0.0
H548 H 0.23197 0.26015 0.85577 0.0
H549 H 0.31018 0.32176 0.83224 0.0
H550 H 0.20521 0.30449 0.88039 0.0
H551 H 0.28341 0.36601 0.85622 0.0
H552 H 0.23876 0.43499 0.93076 0.0
H553 H 0.26581 0.38918 0.91122 0.0
H554 H 0.18111 0.34977 0.85861 0.0
H555 H 0.15409 0.39536 0.87854 0.0
C556 C 0.24325 0.28316 0.8555 0.0
C557 C 0.27292 0.28758 0.84173 0.0
C558 C 0.22801 0.30853 0.86966 0.0
C559 C 0.24218 0.33873 0.8701 0.0
C560 C 0.27208 0.34299 0.85678 0.0
C561 C 0.28735 0.31765 0.84292 0.0
C562 C 0.22605 0.41653 0.9149 0.0
C563 C 0.19443 0.41865 0.90606 0.0
C564 C 0.24147 0.39034 0.90374 0.0
C565 C 0.22556 0.36589 0.88339 0.0
C566 C 0.19385 0.36798 0.87478 0.0
C567 C 0.17842 0.3941 0.88607 0.0
H568 H 0.70303 0.93495 0.91311 0.0
H569 H 0.75252 1.00293 0.98496 0.0
H570 H 0.65385 0.9513 0.93634 0.0
H571 H 0.70365 0.02007 1.00723 0.0
H572 H 0.61137 0.03229 0.06152 0.0
H573 H 0.66024 1.01162 0.04173 0.0
H574 H 0.61808 0.98926 0.9368 0.0
H575 H 0.56957 1.00858 0.95704 0.0
C576 C 0.70351 0.95346 0.93376 0.0
C577 C 0.73207 0.96747 0.94696 0.0
C578 C 0.67512 0.96312 0.94706 0.0
C579 C 0.67421 0.98728 0.97395 0.0
C580 C 0.70289 1.00111 0.98714 0.0
C581 C 0.73119 0.99137 0.97398 0.0
C582 C 0.61256 0.02263 0.03438 0.0
C583 C 0.5864 0.02223 1.01097 0.0
C584 C 0.64076 1.01097 0.02276 0.0
C585 C 0.6437 0.99861 0.98733 0.0
C586 C 0.61716 0.99791 0.96434 0.0
C587 C 0.58913 1.00936 0.97597 0.0
H588 H 0.75906 0.23341 0.40039 0.0
H589 H 0.83573 0.26093 0.33504 0.0
H590 H 0.79333 0.2021 0.43514 0.0
H591 H 0.86992 0.22946 0.36978 0.0
H592 H 0.9262 0.19813 0.468 0.0
H593 H 0.89261 0.22948 0.43223 0.0
H594 H 0.82238 0.15393 0.42518 0.0
H595 H 0.85562 0.1229 0.46158 0.0
C596 C 0.78321 0.23281 0.39346 0.0
C597 C 0.79469 0.24964 0.36495 0.0
C598 C 0.80276 0.21473 0.41321 0.0
C599 C 0.83423 0.21331 0.40506 0.0
C600 C 0.8458 0.23033 0.37679 0.0
C601 C 0.82618 0.24822 0.35682 0.0
C602 C 0.90357 0.18829 0.45878 0.0
C603 C 0.8935 0.15811 0.46749 0.0
C604 C 0.88448 0.2061 0.43813 0.0
C605 C 0.85489 0.19413 0.42603 0.0
C606 C 0.84496 0.16383 0.43445 0.0
C607 C 0.86412 0.14596 0.45491 0.0
H608 H 0.26415 0.66376 0.09363 0.0
H609 H 0.27928 0.57354 0.13497 0.0
H610 H 0.20987 0.64724 0.07936 0.0
H611 H 0.22551 0.55704 0.12027 0.0
H612 H 0.12128 0.54844 0.12736 0.0
H613 H 0.17433 0.56846 0.14142 0.0
H614 H 0.17761 0.61038 0.03886 0.0
H615 H 0.12403 0.59081 0.02512 0.0
C616 C 0.25595 0.6404 0.09953 0.0
C617 C 0.27599 0.62002 0.11559 0.0
C618 C 0.22492 0.63091 0.09121 0.0
C619 C 0.21334 0.60091 0.09894 0.0
C620 C 0.23355 0.58049 0.11458 0.0
C621 C 0.26446 0.58992 0.1228 0.0
C622 C 0.13324 0.56213 0.10793 0.0
C623 C 0.11863 0.56795 0.07511 0.0
C624 C 0.1637 0.57342 0.11587 0.0
C625 C 0.1803 0.59073 0.0911 0.0
C626 C 0.16537 0.59728 0.05858 0.0
C627 C 0.13478 0.58598 0.05066 0.0
H628 H 0.33032 0.29079 0.68417 0.0
H629 H 0.42477 0.27787 0.71998 0.0
H630 H 0.34911 0.33104 0.64484 0.0
H631 H 0.44337 0.3178 0.68052 0.0
H632 H 0.46695 0.37229 0.58281 0.0
H633 H 0.44469 0.3277 0.61311 0.0
H634 H 0.37652 0.38584 0.65971 0.0
H635 H 0.39878 0.43053 0.6293 0.0
C636 C 0.35508 0.29615 0.68319 0.0
C637 C 0.37612 0.28124 0.70513 0.0
C638 C 0.36574 0.31926 0.66088 0.0
C639 C 0.39761 0.32741 0.65979 0.0
C640 C 0.4187 0.31169 0.68069 0.0
C641 C 0.40804 0.28895 0.70334 0.0
C642 C 0.44688 0.37538 0.59905 0.0
C643 C 0.4345 0.40475 0.60381 0.0
C644 C 0.43431 0.34997 0.61648 0.0
C645 C 0.40895 0.35345 0.63863 0.0
C646 C 0.39591 0.38257 0.64247 0.0
C647 C 0.40874 0.40811 0.62538 0.0
H648 H 0.98538 0.77086 0.93776 0.0
H649 H 0.90382 0.71327 0.90432 0.0
H650 H 1.01137 0.72457 0.95568 0.0
H651 H 0.92974 0.66712 0.92208 0.0
H652 H 0.97081 0.59642 0.99593 0.0
H653 H 0.94657 0.64265 0.97579 0.0
H654 H 0.03381 0.67613 0.93449 0.0
H655 H 0.05819 0.62975 0.9549 0.0
C656 C 0.97304 0.74833 0.93388 0.0
C657 C 0.94236 0.74604 0.91949 0.0
C658 C 0.98804 0.72166 0.9441 0.0
C659 C 0.97273 0.69184 0.94067 0.0
C660 C 0.94225 0.68957 0.92572 0.0
C661 C 0.92741 0.71615 0.91517 0.0
C662 C 0.98492 0.61355 0.98252 0.0
C663 C 1.01656 0.60909 0.97708 0.0
C664 C 0.9709 0.64013 0.97071 0.0
C665 C 0.98804 0.66336 0.95323 0.0
C666 C 1.01979 0.65902 0.94803 0.0
C667 C 0.03379 0.63224 0.9596 0.0
H668 H 0.39291 0.71361 0.15855 0.0
H669 H 0.49121 0.70026 0.15338 0.0
H670 H 0.40179 0.7673 0.14217 0.0
H671 H 0.50035 0.75438 0.13924 0.0
H672 H 0.50707 0.84715 0.08999 0.0
H673 H 0.4934 0.79179 0.09463 0.0
H674 H 0.42426 0.81435 0.17153 0.0
H675 H 0.43752 0.86958 0.16618 0.0
C676 C 0.41627 0.72181 0.15298 0.0
C677 C 0.44125 0.70243 0.15642 0.0
C678 C 0.42146 0.75281 0.14431 0.0
C679 C 0.45177 0.76512 0.13935 0.0
C680 C 0.47665 0.74553 0.1422 0.0
C681 C 0.47144 0.71455 0.15062 0.0
C682 C 0.48881 0.84016 0.10765 0.0
C683 C 0.47339 0.8625 0.12781 0.0
C684 C 0.48101 0.80853 0.11037 0.0
C685 C 0.45784 0.79866 0.13356 0.0
C686 C 0.44185 0.82115 0.15297 0.0
C687 C 0.44949 0.85278 0.15002 0.0
H688 H 0.11331 0.2078 0.71602 0.0
H689 H 0.16688 0.13905 0.76668 0.0
H690 H 0.08418 0.16623 0.6804 0.0
H691 H 0.13787 0.09783 0.73112 0.0
H692 H 1.02426 0.07531 0.64302 0.0
H693 H 0.04722 0.11684 0.6845 0.0
H694 H 0.13852 0.08499 0.6642 0.0
H695 H 0.1158 0.04405 0.62277 0.0
C696 C 0.11858 0.18387 0.71996 0.0
C697 C 0.14275 0.17681 0.74384 0.0
C698 C 0.10181 0.16008 0.69965 0.0
C699 C 0.10908 0.12886 0.70265 0.0
C700 C 0.13212 0.12174 0.72784 0.0
C701 C 0.14866 0.1454 0.74829 0.0
C702 C 0.04922 0.07724 0.64758 0.0
C703 C 0.06828 0.0564 0.62984 0.0
C704 C 0.06232 0.10101 0.67116 0.0
C705 C 0.09462 0.10393 0.67781 0.0
C706 C 0.11352 0.08302 0.66003 0.0
C707 C 0.10053 0.05967 0.63615 0.0
H708 H 0.69179 0.36601 0.44055 0.0
H709 H 0.69606 0.42761 0.35265 0.0
H710 H 0.68102 0.40993 0.48118 0.0
H711 H 0.6854 0.4713 0.39335 0.0
H712 H 0.60875 0.51556 0.46214 0.0
H713 H 0.63438 0.47889 0.4234 0.0
H714 H 0.70102 0.46442 0.50872 0.0
H715 H 0.67507 0.50179 0.54794 0.0
C716 C 0.69107 0.38897 0.43002 0.0
C717 C 0.69436 0.39323 0.39325 0.0
C718 C 0.68516 0.41413 0.45337 0.0
C719 C 0.68227 0.4439 0.44029 0.0
C720 C 0.68736 0.44849 0.40401 0.0
C721 C 0.69346 0.42345 0.38074 0.0
C722 C 0.62926 0.50503 0.47245 0.0
C723 C 0.64002 0.51134 0.50793 0.0
C724 C 0.64403 0.48419 0.4502 0.0
C725 C 0.66972 0.46892 0.46306 0.0
C726 C 0.68123 0.47597 0.49826 0.0
C727 C 0.66663 0.4974 0.52051 0.0
loop_
_geom_bond_atom_site_label_1
_geom_bond_atom_site_label_2
_geom_bond_distance
_geom_bond_site_symmetry_2
_ccdc_geom_bond_type
O0 Cd1 2.300 . S
O0 C7 1.275 . S
Cd1 O0 2.300 . S
Cd1 O9 2.381 . S
Cd1 O10 2.378 . S
O2 Cd3 2.385 . S
O2 C7 1.255 . S
Cd3 O2 2.385 . S
Cd3 O4 2.317 . S
O4 Cd3 2.317 . S
O4 C5 1.232 . S
C5 O4 1.232 . S
C5 O6 1.218 . S
O6 C5 1.218 . S
C7 O0 1.275 . S
C7 O2 1.255 . S
C8 O9 1.258 . S
C8 O10 1.256 . S
O9 Cd1 2.381 . S
O9 C8 1.258 . S
O10 Cd1 2.378 . S
O10 C8 1.256 . S
O11 Cd12 2.300 . S
O11 C18 1.275 . S
Cd12 O11 2.300 . S
Cd12 O20 2.381 . S
Cd12 O21 2.378 . S
O13 Cd14 2.385 . S
O13 C18 1.255 . S
Cd14 O13 2.385 . S
Cd14 O15 2.317 . S
O15 Cd14 2.317 . S
O15 C16 1.232 . S
C16 O15 1.232 . S
C16 O17 1.218 . S
O17 C16 1.218 . S
C18 O11 1.275 . S
C18 O13 1.255 . S
C19 O20 1.258 . S
C19 O21 1.256 . S
O20 Cd12 2.381 . S
O20 C19 1.258 . S
O21 Cd12 2.378 . S
O21 C19 1.256 . S
O22 Cd23 2.300 . S
O22 C29 1.275 . S
Cd23 O22 2.300 . S
Cd23 O31 2.381 . S
Cd23 O32 2.378 . S
O24 Cd25 2.385 . S
O24 C29 1.255 . S
Cd25 O24 2.385 . S
Cd25 O26 2.317 . S
O26 Cd25 2.317 . S
O26 C27 1.232 . S
C27 O26 1.232 . S
C27 O28 1.218 . S
O28 C27 1.218 . S
C29 O22 1.275 . S
C29 O24 1.255 . S
C30 O31 1.258 . S
C30 O32 1.256 . S
O31 Cd23 2.381 . S
O31 C30 1.258 . S
O32 Cd23 2.378 . S
O32 C30 1.256 . S
O33 Cd34 2.300 . S
O33 C40 1.275 . S
Cd34 O33 2.300 . S
Cd34 O42 2.381 . S
Cd34 O43 2.378 . S
O35 Cd36 2.385 . S
O35 C40 1.255 . S
Cd36 O35 2.385 . S
Cd36 O37 2.317 . S
O37 Cd36 2.317 . S
O37 C38 1.232 . S
C38 O37 1.232 . S
C38 O39 1.218 . S
O39 C38 1.218 . S
C40 O33 1.275 . S
C40 O35 1.255 . S
C41 O42 1.258 . S
C41 O43 1.256 . S
O42 Cd34 2.381 . S
O42 C41 1.258 . S
O43 Cd34 2.378 . S
O43 C41 1.256 . S
O44 Cd45 2.300 . S
O44 C51 1.275 . S
Cd45 O44 2.300 . S
Cd45 O53 2.381 . S
Cd45 O54 2.378 . S
O46 Cd47 2.385 . S
O46 C51 1.255 . S
Cd47 O46 2.385 . S
Cd47 O48 2.317 . S
O48 Cd47 2.317 . S
O48 C49 1.232 . S
C49 O48 1.232 . S
C49 O50 1.218 . S
O50 C49 1.218 . S
C51 O44 1.275 . S
C51 O46 1.255 . S
C52 O53 1.258 . S
C52 O54 1.256 . S
O53 Cd45 2.381 . S
O53 C52 1.258 . S
O54 Cd45 2.378 . S
O54 C52 1.256 . S
O55 Cd56 2.300 . S
O55 C62 1.275 . S
Cd56 O55 2.300 . S
Cd56 O64 2.381 . S
Cd56 O65 2.378 . S
O57 Cd58 2.385 . S
O57 C62 1.255 . S
Cd58 O57 2.385 . S
Cd58 O59 2.317 . S
O59 Cd58 2.317 . S
O59 C60 1.232 . S
C60 O59 1.232 . S
C60 O61 1.218 . S
O61 C60 1.218 . S
C62 O55 1.275 . S
C62 O57 1.255 . S
C63 O64 1.258 . S
C63 O65 1.256 . S
O64 Cd56 2.381 . S
O64 C63 1.258 . S
O65 Cd56 2.378 . S
O65 C63 1.256 . S
O66 Cd67 2.300 . S
O66 C73 1.275 . S
Cd67 O66 2.300 . S
Cd67 O75 2.381 . S
Cd67 O76 2.378 . S
O68 Cd69 2.385 . S
O68 C73 1.255 . S
Cd69 O68 2.385 . S
Cd69 O70 2.317 . S
O70 Cd69 2.317 . S
O70 C71 1.232 . S
C71 O70 1.232 . S
C71 O72 1.218 . S
O72 C71 1.218 . S
C73 O66 1.275 . S
C73 O68 1.255 . S
C74 O75 1.258 . S
C74 O76 1.256 . S
O75 Cd67 2.381 . S
O75 C74 1.258 . S
O76 Cd67 2.378 . S
O76 C74 1.256 . S
O77 Cd78 2.300 . S
O77 C84 1.275 . S
Cd78 O77 2.300 . S
Cd78 O86 2.381 . S
Cd78 O87 2.378 . S
O79 Cd80 2.385 . S
O79 C84 1.255 . S
Cd80 O79 2.385 . S
Cd80 O81 2.317 . S
O81 Cd80 2.317 . S
O81 C82 1.232 . S
C82 O81 1.232 . S
C82 O83 1.218 . S
O83 C82 1.218 . S
C84 O77 1.275 . S
C84 O79 1.255 . S
C85 O86 1.258 . S
C85 O87 1.256 . S
O86 Cd78 2.381 . S
O86 C85 1.258 . S
O87 Cd78 2.378 . S
O87 C85 1.256 . S
Nd88 C90 2.836 . S
Nd88 O108 2.500 . S
Nd88 O109 2.492 . S
Nd88 O110 2.487 1_565 S
Nd88 O111 2.682 1_565 S
Nd88 O112 2.410 . S
Nd88 O117 2.431 . S
Nd88 O119 2.424 1_565 S
Nd89 C99 2.836 . S
Nd89 O111 2.414 1_655 S
Nd89 O113 2.424 1_545 S
Nd89 O114 2.500 . S
Nd89 O115 2.492 . S
Nd89 O116 2.487 1_545 S
Nd89 O117 2.671 1_645 S
Nd89 O118 2.410 1_655 S
C90 Nd88 2.836 . S
C90 C91 1.498 . S
C90 O108 1.258 . S
C90 O109 1.239 . S
C91 C90 1.498 . S
C91 C92 1.366 . S
C91 C96 1.407 . S
C92 C91 1.366 . S
C92 C93 1.392 . S
C92 H120 0.930 . S
C93 C92 1.392 . S
C93 C94 1.398 . S
C93 H121 0.929 . S
C94 C93 1.398 . S
C94 C95 1.352 . S
C95 C94 1.352 . S
C95 C96 1.384 . S
C95 H122 0.930 . S
C96 C91 1.407 . S
C96 C95 1.384 . S
C96 H123 0.929 . S
C97 O110 1.241 . S
C97 O111 1.273 . S
C98 O112 1.251 1_655 S
C98 O113 1.268 . S
C99 Nd89 2.836 . S
C99 C100 1.498 . S
C99 O114 1.258 . S
C99 O115 1.239 . S
C100 C99 1.498 . S
C100 C101 1.366 . S
C100 C105 1.407 . S
C101 C100 1.366 . S
C101 C102 1.392 . S
C101 H124 0.930 . S
C102 C101 1.392 . S
C102 C103 1.398 . S
C102 H125 0.929 . S
C103 C102 1.398 . S
C103 C104 1.352 . S
C104 C103 1.352 . S
C104 C105 1.384 . S
C104 H126 0.930 . S
C105 C100 1.407 . S
C105 C104 1.384 . S
C105 H127 0.929 . S
C106 O116 1.241 . S
C106 O117 1.259 1_655 S
C107 O118 1.251 . S
C107 O119 1.268 . S
O108 Nd88 2.500 . S
O108 C90 1.258 . S
O109 Nd88 2.492 . S
O109 C90 1.239 . S
O110 Nd88 2.487 1_545 S
O110 C97 1.241 . S
O111 Nd88 2.682 1_545 S
O111 Nd89 2.414 1_455 S
O111 C97 1.273 . S
O112 Nd88 2.410 . S
O112 C98 1.251 1_455 S
O113 Nd89 2.424 1_565 S
O113 C98 1.268 . S
O114 Nd89 2.500 . S
O114 C99 1.258 . S
O115 Nd89 2.492 . S
O115 C99 1.239 . S
O116 Nd89 2.487 1_565 S
O116 C106 1.241 . S
O117 Nd88 2.431 . S
O117 Nd89 2.671 1_465 S
O117 C106 1.259 1_455 S
O118 Nd89 2.410 1_455 S
O118 C107 1.251 . S
O119 Nd88 2.424 1_545 S
O119 C107 1.268 . S
H120 C92 0.930 . S
H121 C93 0.929 . S
H122 C95 0.930 . S
H123 C96 0.929 . S
H124 C101 0.930 . S
H125 C102 0.929 . S
H126 C104 0.930 . S
H127 C105 0.929 . S
Nd128 C130 2.855 . S
Nd128 O148 2.520 . S
Nd128 O149 2.505 . S
Nd128 O150 2.476 1_565 S
Nd128 O151 2.665 1_565 S
Nd128 O152 2.415 . S
Nd128 O157 2.414 . S
Nd128 O159 2.408 1_565 S
Nd129 C139 2.834 1_554 S
Nd129 O151 2.414 . S
Nd129 O153 2.424 1_544 S
Nd129 O154 2.500 . S
Nd129 O155 2.492 1_554 S
Nd129 O156 2.487 . S
Nd129 O157 2.683 1_545 S
Nd129 O158 2.410 . S
C130 Nd128 2.855 . S
C130 C131 1.498 . S
C130 O148 1.258 . S
C130 O149 1.239 . S
C131 C130 1.498 . S
C131 C132 1.366 . S
C131 C136 1.407 . S
C132 C131 1.366 . S
C132 C133 1.392 . S
C132 H160 0.930 . S
C133 C132 1.392 . S
C133 C134 1.398 . S
C133 H161 0.929 . S
C134 C133 1.398 . S
C134 C135 1.352 . S
C135 C134 1.352 . S
C135 C136 1.384 . S
C135 H162 0.930 . S
C136 C131 1.407 . S
C136 C135 1.384 . S
C136 H163 0.929 . S
C137 O150 1.241 . S
C137 O151 1.273 . S
C138 O152 1.251 . S
C138 O153 1.268 1_554 S
C139 Nd129 2.834 1_556 S
C139 C140 1.500 . S
C139 O154 1.255 1_556 S
C139 O155 1.241 . S
C140 C139 1.500 . S
C140 C141 1.366 1_556 S
C140 C145 1.407 . S
C141 C140 1.366 1_554 S
C141 C142 1.392 . S
C141 H164 0.930 . S
C142 C141 1.392 . S
C142 C143 1.398 1_554 S
C142 H165 0.929 . S
C143 C142 1.398 1_556 S
C143 C144 1.352 . S
C144 C143 1.352 . S
C144 C145 1.384 . S
C144 H166 0.930 . S
C145 C140 1.407 . S
C145 C144 1.384 . S
C145 H167 0.929 . S
C146 O156 1.213 1_565 S
C146 O157 1.271 . S
C147 O158 1.251 . S
C147 O159 1.268 . S
O148 Nd128 2.520 . S
O148 C130 1.258 . S
O149 Nd128 2.505 . S
O149 C130 1.239 . S
O150 Nd128 2.476 1_545 S
O150 C137 1.241 . S
O151 Nd128 2.665 1_545 S
O151 Nd129 2.414 . S
O151 C137 1.273 . S
O152 Nd128 2.415 . S
O152 C138 1.251 . S
O153 Nd129 2.424 1_566 S
O153 C138 1.268 1_556 S
O154 Nd129 2.500 . S
O154 C139 1.255 1_554 S
O155 Nd129 2.492 1_556 S
O155 C139 1.241 . S
O156 Nd129 2.487 . S
O156 C146 1.213 1_545 S
O157 Nd128 2.414 . S
O157 Nd129 2.683 1_565 S
O157 C146 1.271 . S
O158 Nd129 2.410 . S
O158 C147 1.251 . S
O159 Nd128 2.408 1_545 S
O159 C147 1.268 . S
H160 C132 0.930 . S
H161 C133 0.929 . S
H162 C135 0.930 . S
H163 C136 0.929 . S
H164 C141 0.930 . S
H165 C142 0.929 . S
H166 C144 0.930 . S
H167 C145 0.929 . S
Nd168 C170 2.836 . S
Nd168 O188 2.500 . S
Nd168 O189 2.492 . S
Nd168 O190 2.487 . S
Nd168 O191 2.682 . S
Nd168 O192 2.410 . S
Nd168 O197 2.414 . S
Nd168 O199 2.424 . S
Nd169 C179 2.836 . S
Nd169 O191 2.414 . S
Nd169 O193 2.424 . S
Nd169 O194 2.500 . S
Nd169 O195 2.492 . S
Nd169 O196 2.487 . S
Nd169 O197 2.682 . S
Nd169 O198 2.410 . S
C170 Nd168 2.836 . S
C170 C171 1.498 . S
C170 O188 1.258 . S
C170 O189 1.239 . S
C171 C170 1.498 . S
C171 C172 1.366 . S
C171 C176 1.407 . S
C172 C171 1.366 . S
C172 C173 1.392 . S
C172 H200 0.930 . S
C173 C172 1.392 . S
C173 C174 1.398 . S
C173 H201 0.929 . S
C174 C173 1.398 . S
C174 C175 1.352 . S
C175 C174 1.352 . S
C175 C176 1.384 . S
C175 H202 0.930 . S
C176 C171 1.407 . S
C176 C175 1.384 . S
C176 H203 0.929 . S
C177 O190 1.241 . S
C177 O191 1.273 . S
C178 O192 1.251 . S
C178 O193 1.268 . S
C179 Nd169 2.836 . S
C179 C180 1.498 . S
C179 O194 1.258 . S
C179 O195 1.239 . S
C180 C179 1.498 . S
C180 C181 1.366 . S
C180 C185 1.407 . S
C181 C180 1.366 . S
C181 C182 1.392 . S
C181 H204 0.930 . S
C182 C181 1.392 . S
C182 C183 1.398 . S
C182 H205 0.929 . S
C183 C182 1.398 . S
C183 C184 1.352 . S
C184 C183 1.352 . S
C184 C185 1.384 . S
C184 H206 0.930 . S
C185 C180 1.407 . S
C185 C184 1.384 . S
C185 H207 0.929 . S
C186 O196 1.241 . S
C186 O197 1.273 . S
C187 O198 1.251 . S
C187 O199 1.268 . S
O188 Nd168 2.500 . S
O188 C170 1.258 . S
O189 Nd168 2.492 . S
O189 C170 1.239 . S
O190 Nd168 2.487 . S
O190 C177 1.241 . S
O191 Nd168 2.682 . S
O191 Nd169 2.414 . S
O191 C177 1.273 . S
O192 Nd168 2.410 . S
O192 C178 1.251 . S
O193 Nd169 2.424 . S
O193 C178 1.268 . S
O194 Nd169 2.500 . S
O194 C179 1.258 . S
O195 Nd169 2.492 . S
O195 C179 1.239 . S
O196 Nd169 2.487 . S
O196 C186 1.241 . S
O197 Nd168 2.414 . S
O197 Nd169 2.682 . S
O197 C186 1.273 . S
O198 Nd169 2.410 . S
O198 C187 1.251 . S
O199 Nd168 2.424 . S
O199 C187 1.268 . S
H200 C172 0.930 . S
H201 C173 0.929 . S
H202 C175 0.930 . S
H203 C176 0.929 . S
H204 C181 0.930 . S
H205 C182 0.929 . S
H206 C184 0.930 . S
H207 C185 0.929 . S
Nd208 C210 2.836 1_455 S
Nd208 O228 2.500 1_455 S
Nd208 O229 2.492 . S
Nd208 O230 2.487 . S
Nd208 O231 2.682 . S
Nd208 O232 2.410 . S
Nd208 O237 2.414 1_454 S
Nd208 O239 2.424 . S
Nd209 C219 2.836 . S
Nd209 O231 2.414 1_556 S
Nd209 O233 2.424 . S
Nd209 O234 2.500 . S
Nd209 O235 2.492 . S
Nd209 O236 2.487 1_455 S
Nd209 O237 2.682 1_455 S
Nd209 O238 2.410 . S
C210 Nd208 2.836 1_655 S
C210 C211 1.498 . S
C210 O228 1.258 . S
C210 O229 1.239 1_655 S
C211 C210 1.498 . S
C211 C212 1.366 . S
C211 C216 1.407 . S
C212 C211 1.366 . S
C212 C213 1.392 . S
C212 H240 0.930 . S
C213 C212 1.392 . S
C213 C214 1.398 . S
C213 H241 0.929 . S
C214 C213 1.398 . S
C214 C215 1.352 . S
C215 C214 1.352 . S
C215 C216 1.384 . S
C215 H242 0.930 . S
C216 C211 1.407 . S
C216 C215 1.384 . S
C216 H243 0.929 1_655 S
C217 O230 1.241 . S
C217 O231 1.273 . S
C218 O232 1.251 1_556 S
C218 O233 1.268 . S
C219 Nd209 2.836 . S
C219 C220 1.498 . S
C219 O234 1.258 . S
C219 O235 1.239 . S
C220 C219 1.498 . S
C220 C221 1.366 . S
C220 C225 1.407 . S
C221 C220 1.366 . S
C221 C222 1.392 . S
C221 H244 0.930 . S
C222 C221 1.392 . S
C222 C223 1.398 . S
C222 H245 0.929 . S
C223 C222 1.398 . S
C223 C224 1.352 . S
C224 C223 1.352 . S
C224 C225 1.384 . S
C224 H246 0.930 . S
C225 C220 1.407 . S
C225 C224 1.384 . S
C225 H247 0.929 . S
C226 O236 1.241 . S
C226 O237 1.273 . S
C227 O238 1.251 1_554 S
C227 O239 1.268 . S
O228 Nd208 2.500 1_655 S
O228 C210 1.258 . S
O229 Nd208 2.492 . S
O229 C210 1.239 1_455 S
O230 Nd208 2.487 . S
O230 C217 1.241 . S
O231 Nd208 2.682 . S
O231 Nd209 2.414 1_554 S
O231 C217 1.273 . S
O232 Nd208 2.410 . S
O232 C218 1.251 1_554 S
O233 Nd209 2.424 . S
O233 C218 1.268 . S
O234 Nd209 2.500 . S
O234 C219 1.258 . S
O235 Nd209 2.492 . S
O235 C219 1.239 . S
O236 Nd209 2.487 1_655 S
O236 C226 1.241 . S
O237 Nd208 2.414 1_656 S
O237 Nd209 2.682 1_655 S
O237 C226 1.273 . S
O238 Nd209 2.410 . S
O238 C227 1.251 1_556 S
O239 Nd208 2.424 . S
O239 C227 1.268 . S
H240 C212 0.930 . S
H241 C213 0.929 . S
H242 C215 0.930 . S
H243 C216 0.929 1_455 S
H244 C221 0.930 . S
H245 C222 0.929 . S
H246 C224 0.930 . S
H247 C225 0.929 . S
H248 C256 0.950 . S
H249 C261 0.950 . S
H250 C258 0.950 . S
H251 C260 0.950 . S
H252 C262 0.950 . S
H253 C264 0.950 . S
H254 C266 0.950 . S
H255 C267 0.950 . S
C256 H248 0.950 . S
C256 C257 1.386 . S
C256 C258 1.391 . S
C257 C256 1.386 . S
C257 C261 1.393 . S
C258 H250 0.950 . S
C258 C256 1.391 . S
C258 C259 1.400 . S
C259 C258 1.400 . S
C259 C260 1.398 . S
C259 C265 1.491 . S
C260 H251 0.950 . S
C260 C259 1.398 . S
C260 C261 1.391 . S
C261 H249 0.950 . S
C261 C257 1.393 . S
C261 C260 1.391 . S
C262 H252 0.950 . S
C262 C263 1.386 . S
C262 C264 1.391 . S
C263 C262 1.386 . S
C263 C267 1.393 . S
C264 H253 0.950 . S
C264 C262 1.391 . S
C264 C265 1.400 . S
C265 C259 1.491 . S
C265 C264 1.400 . S
C265 C266 1.398 . S
C266 H254 0.950 . S
C266 C265 1.398 . S
C266 C267 1.391 . S
C267 H255 0.950 . S
C267 C263 1.393 . S
C267 C266 1.391 . S
H268 C276 0.950 . S
H269 C281 0.950 . S
H270 C278 0.950 . S
H271 C280 0.950 . S
H272 C282 0.950 . S
H273 C284 0.950 . S
H274 C286 0.950 . S
H275 C287 0.950 . S
C276 H268 0.950 . S
C276 C277 1.386 . S
C276 C278 1.391 . S
C277 C276 1.386 . S
C277 C281 1.393 . S
C278 H270 0.950 . S
C278 C276 1.391 . S
C278 C279 1.400 . S
C279 C278 1.400 . S
C279 C280 1.398 . S
C279 C285 1.491 . S
C280 H271 0.950 . S
C280 C279 1.398 . S
C280 C281 1.391 . S
C281 H269 0.950 . S
C281 C277 1.393 . S
C281 C280 1.391 . S
C282 H272 0.950 . S
C282 C283 1.386 . S
C282 C284 1.391 . S
C283 C282 1.386 . S
C283 C287 1.393 . S
C284 H273 0.950 . S
C284 C282 1.391 . S
C284 C285 1.400 . S
C285 C279 1.491 . S
C285 C284 1.400 . S
C285 C286 1.398 . S
C286 H274 0.950 . S
C286 C285 1.398 . S
C286 C287 1.391 . S
C287 H275 0.950 . S
C287 C283 1.393 . S
C287 C286 1.391 . S
H288 C296 0.950 . S
H289 C301 0.950 . S
H290 C298 0.950 . S
H291 C300 0.950 . S
H292 C302 0.950 . S
H293 C304 0.950 . S
H294 C306 0.950 . S
H295 C307 0.950 . S
C296 H288 0.950 . S
C296 C297 1.386 . S
C296 C298 1.391 . S
C297 C296 1.386 . S
C297 C301 1.393 . S
C298 H290 0.950 . S
C298 C296 1.391 . S
C298 C299 1.400 . S
C299 C298 1.400 . S
C299 C300 1.398 . S
C299 C305 1.491 . S
C300 H291 0.950 . S
C300 C299 1.398 . S
C300 C301 1.391 . S
C301 H289 0.950 . S
C301 C297 1.393 . S
C301 C300 1.391 . S
C302 H292 0.950 . S
C302 C303 1.386 . S
C302 C304 1.391 . S
C303 C302 1.386 . S
C303 C307 1.393 . S
C304 H293 0.950 . S
C304 C302 1.391 . S
C304 C305 1.400 . S
C305 C299 1.491 . S
C305 C304 1.400 . S
C305 C306 1.398 . S
C306 H294 0.950 . S
C306 C305 1.398 . S
C306 C307 1.391 . S
C307 H295 0.950 . S
C307 C303 1.393 . S
C307 C306 1.391 . S
H308 C316 0.950 . S
H309 C321 0.950 . S
H310 C318 0.950 . S
H311 C320 0.950 . S
H312 C322 0.950 . S
H313 C324 0.950 . S
H314 C326 0.950 . S
H315 C327 0.950 . S
C316 H308 0.950 . S
C316 C317 1.386 . S
C316 C318 1.391 . S
C317 C316 1.386 . S
C317 C321 1.393 . S
C318 H310 0.950 . S
C318 C316 1.391 . S
C318 C319 1.400 . S
C319 C318 1.400 . S
C319 C320 1.398 . S
C319 C325 1.491 . S
C320 H311 0.950 . S
C320 C319 1.398 . S
C320 C321 1.391 . S
C321 H309 0.950 . S
C321 C317 1.393 . S
C321 C320 1.391 . S
C322 H312 0.950 . S
C322 C323 1.386 . S
C322 C324 1.391 . S
C323 C322 1.386 . S
C323 C327 1.393 . S
C324 H313 0.950 . S
C324 C322 1.391 . S
C324 C325 1.400 . S
C325 C319 1.491 . S
C325 C324 1.400 . S
C325 C326 1.398 . S
C326 H314 0.950 . S
C326 C325 1.398 . S
C326 C327 1.391 . S
C327 H315 0.950 . S
C327 C323 1.393 . S
C327 C326 1.391 . S
H328 C336 0.950 . S
H329 C341 0.950 . S
H330 C338 0.950 . S
H331 C340 0.950 . S
H332 C342 0.950 . S
H333 C344 0.950 . S
H334 C346 0.950 . S
H335 C347 0.950 . S
C336 H328 0.950 . S
C336 C337 1.386 . S
C336 C338 1.391 . S
C337 C336 1.386 . S
C337 C341 1.393 . S
C338 H330 0.950 . S
C338 C336 1.391 . S
C338 C339 1.400 . S
C339 C338 1.400 . S
C339 C340 1.398 . S
C339 C345 1.491 . S
C340 H331 0.950 . S
C340 C339 1.398 . S
C340 C341 1.391 . S
C341 H329 0.950 . S
C341 C337 1.393 . S
C341 C340 1.391 . S
C342 H332 0.950 . S
C342 C343 1.386 . S
C342 C344 1.391 . S
C343 C342 1.386 . S
C343 C347 1.393 . S
C344 H333 0.950 . S
C344 C342 1.391 . S
C344 C345 1.400 . S
C345 C339 1.491 . S
C345 C344 1.400 . S
C345 C346 1.398 . S
C346 H334 0.950 . S
C346 C345 1.398 . S
C346 C347 1.391 . S
C347 H335 0.950 . S
C347 C343 1.393 . S
C347 C346 1.391 . S
H348 C356 0.950 . S
H349 C361 0.950 . S
H350 C358 0.950 . S
H351 C360 0.950 . S
H352 C362 0.950 . S
H353 C364 0.950 . S
H354 C366 0.950 . S
H355 C367 0.950 . S
C356 H348 0.950 . S
C356 C357 1.386 . S
C356 C358 1.391 . S
C357 C356 1.386 . S
C357 C361 1.393 . S
C358 H350 0.950 . S
C358 C356 1.391 . S
C358 C359 1.400 . S
C359 C358 1.400 . S
C359 C360 1.398 . S
C359 C365 1.491 . S
C360 H351 0.950 . S
C360 C359 1.398 . S
C360 C361 1.391 . S
C361 H349 0.950 . S
C361 C357 1.393 . S
C361 C360 1.391 . S
C362 H352 0.950 . S
C362 C363 1.386 . S
C362 C364 1.391 . S
C363 C362 1.386 . S
C363 C367 1.393 . S
C364 H353 0.950 . S
C364 C362 1.391 . S
C364 C365 1.400 . S
C365 C359 1.491 . S
C365 C364 1.400 . S
C365 C366 1.398 . S
C366 H354 0.950 . S
C366 C365 1.398 . S
C366 C367 1.391 . S
C367 H355 0.950 . S
C367 C363 1.393 . S
C367 C366 1.391 . S
H368 C376 0.950 . S
H369 C381 0.950 . S
H370 C378 0.950 . S
H371 C380 0.950 . S
H372 C382 0.950 . S
H373 C384 0.950 . S
H374 C386 0.950 . S
H375 C387 0.950 . S
C376 H368 0.950 . S
C376 C377 1.386 . S
C376 C378 1.391 . S
C377 C376 1.386 . S
C377 C381 1.393 . S
C378 H370 0.950 . S
C378 C376 1.391 . S
C378 C379 1.400 . S
C379 C378 1.400 . S
C379 C380 1.398 . S
C379 C385 1.491 . S
C380 H371 0.950 . S
C380 C379 1.398 . S
C380 C381 1.391 . S
C381 H369 0.950 . S
C381 C377 1.393 . S
C381 C380 1.391 . S
C382 H372 0.950 . S
C382 C383 1.386 . S
C382 C384 1.391 . S
C383 C382 1.386 . S
C383 C387 1.393 . S
C384 H373 0.950 . S
C384 C382 1.391 . S
C384 C385 1.400 . S
C385 C379 1.491 . S
C385 C384 1.400 . S
C385 C386 1.398 . S
C386 H374 0.950 . S
C386 C385 1.398 . S
C386 C387 1.391 . S
C387 H375 0.950 . S
C387 C383 1.393 . S
C387 C386 1.391 . S
H388 C396 0.950 . S
H389 C401 0.950 . S
H390 C398 0.950 . S
H391 C400 0.950 . S
H392 C402 0.950 . S
H393 C404 0.950 . S
H394 C406 0.950 . S
H395 C407 0.950 . S
C396 H388 0.950 . S
C396 C397 1.386 . S
C396 C398 1.391 . S
C397 C396 1.386 . S
C397 C401 1.393 . S
C398 H390 0.950 . S
C398 C396 1.391 . S
C398 C399 1.400 . S
C399 C398 1.400 . S
C399 C400 1.398 . S
C399 C405 1.491 . S
C400 H391 0.950 . S
C400 C399 1.398 . S
C400 C401 1.391 . S
C401 H389 0.950 . S
C401 C397 1.393 . S
C401 C400 1.391 . S
C402 H392 0.950 . S
C402 C403 1.386 . S
C402 C404 1.391 . S
C403 C402 1.386 . S
C403 C407 1.393 . S
C404 H393 0.950 . S
C404 C402 1.391 . S
C404 C405 1.400 . S
C405 C399 1.491 . S
C405 C404 1.400 . S
C405 C406 1.398 . S
C406 H394 0.950 . S
C406 C405 1.398 . S
C406 C407 1.391 . S
C407 H395 0.950 . S
C407 C403 1.393 . S
C407 C406 1.391 . S
H408 C416 0.950 . S
H409 C421 0.950 . S
H410 C418 0.950 . S
H411 C420 0.950 . S
H412 C422 0.950 . S
H413 C424 0.950 . S
H414 C426 0.950 . S
H415 C427 0.950 . S
C416 H408 0.950 . S
C416 C417 1.386 . S
C416 C418 1.391 . S
C417 C416 1.386 . S
C417 C421 1.393 . S
C418 H410 0.950 . S
C418 C416 1.391 . S
C418 C419 1.400 . S
C419 C418 1.400 . S
C419 C420 1.398 . S
C419 C425 1.491 . S
C420 H411 0.950 . S
C420 C419 1.398 . S
C420 C421 1.391 . S
C421 H409 0.950 . S
C421 C417 1.393 . S
C421 C420 1.391 . S
C422 H412 0.950 . S
C422 C423 1.386 . S
C422 C424 1.391 . S
C423 C422 1.386 . S
C423 C427 1.393 . S
C424 H413 0.950 . S
C424 C422 1.391 . S
C424 C425 1.400 . S
C425 C419 1.491 . S
C425 C424 1.400 . S
C425 C426 1.398 . S
C426 H414 0.950 . S
C426 C425 1.398 . S
C426 C427 1.391 . S
C427 H415 0.950 . S
C427 C423 1.393 . S
C427 C426 1.391 . S
H428 C436 0.950 . S
H429 C441 0.950 . S
H430 C438 0.950 . S
H431 C440 0.950 . S
H432 C442 0.950 . S
H433 C444 0.950 . S
H434 C446 0.950 1_554 S
H435 C447 0.950 1_554 S
C436 H428 0.950 . S
C436 C437 1.386 . S
C436 C438 1.391 . S
C437 C436 1.386 . S
C437 C441 1.393 . S
C438 H430 0.950 . S
C438 C436 1.391 . S
C438 C439 1.400 . S
C439 C438 1.400 . S
C439 C440 1.398 . S
C439 C445 1.491 . S
C440 H431 0.950 . S
C440 C439 1.398 . S
C440 C441 1.391 . S
C441 H429 0.950 . S
C441 C437 1.393 . S
C441 C440 1.391 . S
C442 H432 0.950 . S
C442 C443 1.386 . S
C442 C444 1.391 . S
C443 C442 1.386 . S
C443 C447 1.393 . S
C444 H433 0.950 . S
C444 C442 1.391 . S
C444 C445 1.400 . S
C445 C439 1.491 . S
C445 C444 1.400 . S
C445 C446 1.398 . S
C446 H434 0.950 1_556 S
C446 C445 1.398 . S
C446 C447 1.391 . S
C447 H435 0.950 1_556 S
C447 C443 1.393 . S
C447 C446 1.391 . S
H448 C456 0.950 . S
H449 C461 0.950 . S
H450 C458 0.950 . S
H451 C460 0.950 . S
H452 C462 0.950 1_455 S
H453 C464 0.950 . S
H454 C466 0.950 . S
H455 C467 0.950 . S
C456 H448 0.950 . S
C456 C457 1.386 . S
C456 C458 1.391 . S
C457 C456 1.386 . S
C457 C461 1.393 . S
C458 H450 0.950 . S
C458 C456 1.391 . S
C458 C459 1.400 . S
C459 C458 1.400 . S
C459 C460 1.398 . S
C459 C465 1.491 . S
C460 H451 0.950 . S
C460 C459 1.398 . S
C460 C461 1.391 . S
C461 H449 0.950 . S
C461 C457 1.393 . S
C461 C460 1.391 . S
C462 H452 0.950 1_655 S
C462 C463 1.386 . S
C462 C464 1.391 . S
C463 C462 1.386 . S
C463 C467 1.393 . S
C464 H453 0.950 . S
C464 C462 1.391 . S
C464 C465 1.400 . S
C465 C459 1.491 . S
C465 C464 1.400 . S
C465 C466 1.398 . S
C466 H454 0.950 . S
C466 C465 1.398 . S
C466 C467 1.391 . S
C467 H455 0.950 . S
C467 C463 1.393 . S
C467 C466 1.391 . S
H468 C476 0.950 . S
H469 C481 0.950 . S
H470 C478 0.950 . S
H471 C480 0.950 . S
H472 C482 0.950 . S
H473 C484 0.950 . S
H474 C486 0.950 . S
H475 C487 0.950 . S
C476 H468 0.950 . S
C476 C477 1.386 . S
C476 C478 1.391 . S
C477 C476 1.386 . S
C477 C481 1.393 . S
C478 H470 0.950 . S
C478 C476 1.391 . S
C478 C479 1.400 . S
C479 C478 1.400 . S
C479 C480 1.398 . S
C479 C485 1.491 . S
C480 H471 0.950 . S
C480 C479 1.398 . S
C480 C481 1.391 . S
C481 H469 0.950 . S
C481 C477 1.393 . S
C481 C480 1.391 . S
C482 H472 0.950 . S
C482 C483 1.386 . S
C482 C484 1.391 . S
C483 C482 1.386 . S
C483 C487 1.393 . S
C484 H473 0.950 . S
C484 C482 1.391 . S
C484 C485 1.400 . S
C485 C479 1.491 . S
C485 C484 1.400 . S
C485 C486 1.398 . S
C486 H474 0.950 . S
C486 C485 1.398 . S
C486 C487 1.391 . S
C487 H475 0.950 . S
C487 C483 1.393 . S
C487 C486 1.391 . S
H488 C496 0.950 . S
H489 C501 0.950 . S
H490 C498 0.950 . S
H491 C500 0.950 . S
H492 C502 0.950 . S
H493 C504 0.950 . S
H494 C506 0.950 . S
H495 C507 0.950 . S
C496 H488 0.950 . S
C496 C497 1.386 . S
C496 C498 1.391 . S
C497 C496 1.386 . S
C497 C501 1.393 . S
C498 H490 0.950 . S
C498 C496 1.391 . S
C498 C499 1.400 . S
C499 C498 1.400 . S
C499 C500 1.398 . S
C499 C505 1.491 . S
C500 H491 0.950 . S
C500 C499 1.398 . S
C500 C501 1.391 . S
C501 H489 0.950 . S
C501 C497 1.393 . S
C501 C500 1.391 . S
C502 H492 0.950 . S
C502 C503 1.386 . S
C502 C504 1.391 . S
C503 C502 1.386 . S
C503 C507 1.393 . S
C504 H493 0.950 . S
C504 C502 1.391 . S
C504 C505 1.400 . S
C505 C499 1.491 . S
C505 C504 1.400 . S
C505 C506 1.398 . S
C506 H494 0.950 . S
C506 C505 1.398 . S
C506 C507 1.391 . S
C507 H495 0.950 . S
C507 C503 1.393 . S
C507 C506 1.391 . S
H508 C516 0.950 . S
H509 C521 0.950 . S
H510 C518 0.950 . S
H511 C520 0.950 . S
H512 C522 0.950 . S
H513 C524 0.950 . S
H514 C526 0.950 . S
H515 C527 0.950 . S
C516 H508 0.950 . S
C516 C517 1.386 . S
C516 C518 1.391 . S
C517 C516 1.386 . S
C517 C521 1.393 . S
C518 H510 0.950 . S
C518 C516 1.391 . S
C518 C519 1.400 . S
C519 C518 1.400 . S
C519 C520 1.398 . S
C519 C525 1.491 . S
C520 H511 0.950 . S
C520 C519 1.398 . S
C520 C521 1.391 . S
C521 H509 0.950 . S
C521 C517 1.393 . S
C521 C520 1.391 . S
C522 H512 0.950 . S
C522 C523 1.386 . S
C522 C524 1.391 . S
C523 C522 1.386 . S
C523 C527 1.393 . S
C524 H513 0.950 . S
C524 C522 1.391 . S
C524 C525 1.400 . S
C525 C519 1.491 . S
C525 C524 1.400 . S
C525 C526 1.398 . S
C526 H514 0.950 . S
C526 C525 1.398 . S
C526 C527 1.391 . S
C527 H515 0.950 . S
C527 C523 1.393 . S
C527 C526 1.391 . S
H528 C536 0.950 . S
H529 C541 0.950 . S
H530 C538 0.950 . S
H531 C540 0.950 . S
H532 C542 0.950 . S
H533 C544 0.950 . S
H534 C546 0.950 . S
H535 C547 0.950 . S
C536 H528 0.950 . S
C536 C537 1.386 . S
C536 C538 1.391 . S
C537 C536 1.386 . S
C537 C541 1.393 . S
C538 H530 0.950 . S
C538 C536 1.391 . S
C538 C539 1.400 . S
C539 C538 1.400 . S
C539 C540 1.398 . S
C539 C545 1.491 . S
C540 H531 0.950 . S
C540 C539 1.398 . S
C540 C541 1.391 . S
C541 H529 0.950 . S
C541 C537 1.393 . S
C541 C540 1.391 . S
C542 H532 0.950 . S
C542 C543 1.386 . S
C542 C544 1.391 . S
C543 C542 1.386 . S
C543 C547 1.393 . S
C544 H533 0.950 . S
C544 C542 1.391 . S
C544 C545 1.400 . S
C545 C539 1.491 . S
C545 C544 1.400 . S
C545 C546 1.398 . S
C546 H534 0.950 . S
C546 C545 1.398 . S
C546 C547 1.391 . S
C547 H535 0.950 . S
C547 C543 1.393 . S
C547 C546 1.391 . S
H548 C556 0.950 . S
H549 C561 0.950 . S
H550 C558 0.950 . S
H551 C560 0.950 . S
H552 C562 0.950 . S
H553 C564 0.950 . S
H554 C566 0.950 . S
H555 C567 0.950 . S
C556 H548 0.950 . S
C556 C557 1.386 . S
C556 C558 1.391 . S
C557 C556 1.386 . S
C557 C561 1.393 . S
C558 H550 0.950 . S
C558 C556 1.391 . S
C558 C559 1.400 . S
C559 C558 1.400 . S
C559 C560 1.398 . S
C559 C565 1.491 . S
C560 H551 0.950 . S
C560 C559 1.398 . S
C560 C561 1.391 . S
C561 H549 0.950 . S
C561 C557 1.393 . S
C561 C560 1.391 . S
C562 H552 0.950 . S
C562 C563 1.386 . S
C562 C564 1.391 . S
C563 C562 1.386 . S
C563 C567 1.393 . S
C564 H553 0.950 . S
C564 C562 1.391 . S
C564 C565 1.400 . S
C565 C559 1.491 . S
C565 C564 1.400 . S
C565 C566 1.398 . S
C566 H554 0.950 . S
C566 C565 1.398 . S
C566 C567 1.391 . S
C567 H555 0.950 . S
C567 C563 1.393 . S
C567 C566 1.391 . S
H568 C576 0.950 . S
H569 C581 0.950 1_554 S
H570 C578 0.950 . S
H571 C580 0.950 . S
H572 C582 0.950 . S
H573 C584 0.950 . S
H574 C586 0.950 . S
H575 C587 0.950 . S
C576 H568 0.950 . S
C576 C577 1.386 . S
C576 C578 1.391 . S
C577 C576 1.386 . S
C577 C581 1.393 . S
C578 H570 0.950 . S
C578 C576 1.391 . S
C578 C579 1.400 . S
C579 C578 1.400 . S
C579 C580 1.398 1_556 S
C579 C585 1.491 . S
C580 H571 0.950 . S
C580 C579 1.398 1_554 S
C580 C581 1.391 1_554 S
C581 H569 0.950 1_556 S
C581 C577 1.393 . S
C581 C580 1.391 1_556 S
C582 H572 0.950 . S
C582 C583 1.386 . S
C582 C584 1.391 . S
C583 C582 1.386 . S
C583 C587 1.393 1_554 S
C584 H573 0.950 . S
C584 C582 1.391 . S
C584 C585 1.400 1_554 S
C585 C579 1.491 . S
C585 C584 1.400 1_556 S
C585 C586 1.398 . S
C586 H574 0.950 . S
C586 C585 1.398 . S
C586 C587 1.391 . S
C587 H575 0.950 . S
C587 C583 1.393 1_556 S
C587 C586 1.391 . S
H588 C596 0.950 . S
H589 C601 0.950 . S
H590 C598 0.950 . S
H591 C600 0.950 . S
H592 C602 0.950 . S
H593 C604 0.950 . S
H594 C606 0.950 . S
H595 C607 0.950 . S
C596 H588 0.950 . S
C596 C597 1.386 . S
C596 C598 1.391 . S
C597 C596 1.386 . S
C597 C601 1.393 . S
C598 H590 0.950 . S
C598 C596 1.391 . S
C598 C599 1.400 . S
C599 C598 1.400 . S
C599 C600 1.398 . S
C599 C605 1.491 . S
C600 H591 0.950 . S
C600 C599 1.398 . S
C600 C601 1.391 . S
C601 H589 0.950 . S
C601 C597 1.393 . S
C601 C600 1.391 . S
C602 H592 0.950 . S
C602 C603 1.386 . S
C602 C604 1.391 . S
C603 C602 1.386 . S
C603 C607 1.393 . S
C604 H593 0.950 . S
C604 C602 1.391 . S
C604 C605 1.400 . S
C605 C599 1.491 . S
C605 C604 1.400 . S
C605 C606 1.398 . S
C606 H594 0.950 . S
C606 C605 1.398 . S
C606 C607 1.391 . S
C607 H595 0.950 . S
C607 C603 1.393 . S
C607 C606 1.391 . S
H608 C616 0.950 . S
H609 C621 0.950 . S
H610 C618 0.950 . S
H611 C620 0.950 . S
H612 C622 0.950 . S
H613 C624 0.950 . S
H614 C626 0.950 . S
H615 C627 0.950 . S
C616 H608 0.950 . S
C616 C617 1.386 . S
C616 C618 1.391 . S
C617 C616 1.386 . S
C617 C621 1.393 . S
C618 H610 0.950 . S
C618 C616 1.391 . S
C618 C619 1.400 . S
C619 C618 1.400 . S
C619 C620 1.398 . S
C619 C625 1.491 . S
C620 H611 0.950 . S
C620 C619 1.398 . S
C620 C621 1.391 . S
C621 H609 0.950 . S
C621 C617 1.393 . S
C621 C620 1.391 . S
C622 H612 0.950 . S
C622 C623 1.386 . S
C622 C624 1.391 . S
C623 C622 1.386 . S
C623 C627 1.393 . S
C624 H613 0.950 . S
C624 C622 1.391 . S
C624 C625 1.400 . S
C625 C619 1.491 . S
C625 C624 1.400 . S
C625 C626 1.398 . S
C626 H614 0.950 . S
C626 C625 1.398 . S
C626 C627 1.391 . S
C627 H615 0.950 . S
C627 C623 1.393 . S
C627 C626 1.391 . S
H628 C636 0.950 . S
H629 C641 0.950 . S
H630 C638 0.950 . S
H631 C640 0.950 . S
H632 C642 0.950 . S
H633 C644 0.950 . S
H634 C646 0.950 . S
H635 C647 0.950 . S
C636 H628 0.950 . S
C636 C637 1.386 . S
C636 C638 1.391 . S
C637 C636 1.386 . S
C637 C641 1.393 . S
C638 H630 0.950 . S
C638 C636 1.391 . S
C638 C639 1.400 . S
C639 C638 1.400 . S
C639 C640 1.398 . S
C639 C645 1.491 . S
C640 H631 0.950 . S
C640 C639 1.398 . S
C640 C641 1.391 . S
C641 H629 0.950 . S
C641 C637 1.393 . S
C641 C640 1.391 . S
C642 H632 0.950 . S
C642 C643 1.386 . S
C642 C644 1.391 . S
C643 C642 1.386 . S
C643 C647 1.393 . S
C644 H633 0.950 . S
C644 C642 1.391 . S
C644 C645 1.400 . S
C645 C639 1.491 . S
C645 C644 1.400 . S
C645 C646 1.398 . S
C646 H634 0.950 . S
C646 C645 1.398 . S
C646 C647 1.391 . S
C647 H635 0.950 . S
C647 C643 1.393 . S
C647 C646 1.391 . S
H648 C656 0.950 . S
H649 C661 0.950 . S
H650 C658 0.950 . S
H651 C660 0.950 . S
H652 C662 0.950 . S
H653 C664 0.950 . S
H654 C666 0.950 1_455 S
H655 C667 0.950 . S
C656 H648 0.950 . S
C656 C657 1.386 . S
C656 C658 1.391 . S
C657 C656 1.386 . S
C657 C661 1.393 . S
C658 H650 0.950 . S
C658 C656 1.391 . S
C658 C659 1.400 . S
C659 C658 1.400 . S
C659 C660 1.398 . S
C659 C665 1.491 . S
C660 H651 0.950 . S
C660 C659 1.398 . S
C660 C661 1.391 . S
C661 H649 0.950 . S
C661 C657 1.393 . S
C661 C660 1.391 . S
C662 H652 0.950 . S
C662 C663 1.386 . S
C662 C664 1.391 . S
C663 C662 1.386 . S
C663 C667 1.393 1_655 S
C664 H653 0.950 . S
C664 C662 1.391 . S
C664 C665 1.400 . S
C665 C659 1.491 . S
C665 C664 1.400 . S
C665 C666 1.398 . S
C666 H654 0.950 1_655 S
C666 C665 1.398 . S
C666 C667 1.391 1_655 S
C667 H655 0.950 . S
C667 C663 1.393 1_455 S
C667 C666 1.391 1_455 S
H668 C676 0.950 . S
H669 C681 0.950 . S
H670 C678 0.950 . S
H671 C680 0.950 . S
H672 C682 0.950 . S
H673 C684 0.950 . S
H674 C686 0.950 . S
H675 C687 0.950 . S
C676 H668 0.950 . S
C676 C677 1.386 . S
C676 C678 1.391 . S
C677 C676 1.386 . S
C677 C681 1.393 . S
C678 H670 0.950 . S
C678 C676 1.391 . S
C678 C679 1.400 . S
C679 C678 1.400 . S
C679 C680 1.398 . S
C679 C685 1.491 . S
C680 H671 0.950 . S
C680 C679 1.398 . S
C680 C681 1.391 . S
C681 H669 0.950 . S
C681 C677 1.393 . S
C681 C680 1.391 . S
C682 H672 0.950 . S
C682 C683 1.386 . S
C682 C684 1.391 . S
C683 C682 1.386 . S
C683 C687 1.393 . S
C684 H673 0.950 . S
C684 C682 1.391 . S
C684 C685 1.400 . S
C685 C679 1.491 . S
C685 C684 1.400 . S
C685 C686 1.398 . S
C686 H674 0.950 . S
C686 C685 1.398 . S
C686 C687 1.391 . S
C687 H675 0.950 . S
C687 C683 1.393 . S
C687 C686 1.391 . S
H688 C696 0.950 . S
H689 C701 0.950 . S
H690 C698 0.950 . S
H691 C700 0.950 . S
H692 C702 0.950 . S
H693 C704 0.950 . S
H694 C706 0.950 . S
H695 C707 0.950 . S
C696 H688 0.950 . S
C696 C697 1.386 . S
C696 C698 1.391 . S
C697 C696 1.386 . S
C697 C701 1.393 . S
C698 H690 0.950 . S
C698 C696 1.391 . S
C698 C699 1.400 . S
C699 C698 1.400 . S
C699 C700 1.398 . S
C699 C705 1.491 . S
C700 H691 0.950 . S
C700 C699 1.398 . S
C700 C701 1.391 . S
C701 H689 0.950 . S
C701 C697 1.393 . S
C701 C700 1.391 . S
C702 H692 0.950 . S
C702 C703 1.386 . S
C702 C704 1.391 . S
C703 C702 1.386 . S
C703 C707 1.393 . S
C704 H693 0.950 . S
C704 C702 1.391 . S
C704 C705 1.400 . S
C705 C699 1.491 . S
C705 C704 1.400 . S
C705 C706 1.398 . S
C706 H694 0.950 . S
C706 C705 1.398 . S
C706 C707 1.391 . S
C707 H695 0.950 . S
C707 C703 1.393 . S
C707 C706 1.391 . S
H708 C716 0.950 . S
H709 C721 0.950 . S
H710 C718 0.950 . S
H711 C720 0.950 . S
H712 C722 0.950 . S
H713 C724 0.950 . S
H714 C726 0.950 . S
H715 C727 0.950 . S
C716 H708 0.950 . S
C716 C717 1.386 . S
C716 C718 1.391 . S
C717 C716 1.386 . S
C717 C721 1.393 . S
C718 H710 0.950 . S
C718 C716 1.391 . S
C718 C719 1.400 . S
C719 C718 1.400 . S
C719 C720 1.398 . S
C719 C725 1.491 . S
C720 H711 0.950 . S
C720 C719 1.398 . S
C720 C721 1.391 . S
C721 H709 0.950 . S
C721 C717 1.393 . S
C721 C720 1.391 . S
C722 H712 0.950 . S
C722 C723 1.386 . S
C722 C724 1.391 . S
C723 C722 1.386 . S
C723 C727 1.393 . S
C724 H713 0.950 . S
C724 C722 1.391 . S
C724 C725 1.400 . S
C725 C719 1.491 . S
C725 C724 1.400 . S
C725 C726 1.398 . S
C726 H714 0.950 . S
C726 C725 1.398 . S
C726 C727 1.391 . S
C727 H715 0.950 . S
C727 C723 1.393 . S
C727 C726 1.391 . S
C257 C5 3.028 . S
C263 C107 3.207 . S
C277 C18 2.287 . S
C283 C138 2.301 1_556 S
C303 C177 1.031 . S
C297 C30 1.039 . S
C317 C41 0.442 . S
C323 C214 0.474 . S
C343 C137 3.174 . S
C337 C7 3.215 . S
C363 C94 1.615 . S
C357 C16 1.523 . S
C383 C226 1.454 . S
C377 C29 1.405 . S
C403 C183 0.838 . S
C397 C38 0.822 . S
C417 C8 2.486 . S
C423 C227 2.482 . S
C443 C143 1.487 . S
C437 C27 1.361 . S
C457 C40 0.494 . S
C463 C106 0.454 . S
C477 C19 2.066 . S
C483 C178 2.072 . S
C503 C98 3.004 . S
C497 C51 2.923 . S
C517 C62 2.369 . S
C523 C147 2.464 . S
C537 C74 1.209 . S
C543 C186 1.212 . S
C557 C84 0.505 . S
C563 C223 0.393 . S
C577 C49 3.020 . S
C583 C146 3.148 . S
C603 C103 1.362 . S
C597 C63 1.357 . S
C623 C217 1.252 . S
C617 C71 1.134 . S
C643 C174 0.860 . S
C637 C85 0.884 . S
C657 C52 2.336 . S
C663 C218 2.349 1_655 S
C683 C134 1.448 . S
C677 C73 1.374 . S
C703 C97 0.488 . S
C697 C82 0.612 . S
C717 C60 2.378 . S
C723 C187 2.413 . S
