# Generated by pormake.
# Topology ocu, (6,8)-cn, num edge types: 1
# Building blocks:
#     Node 0, Type 0, BuildingBlock: BETDEL_clean_sbu_0, # of connection points: 6
#     Node 1, Type 0, BuildingBlock: BETDEL_clean_sbu_0, # of connection points: 6
#     Node 2, Type 0, BuildingBlock: BETDEL_clean_sbu_0, # of connection points: 6
#     Node 3, Type 0, BuildingBlock: BETDEL_clean_sbu_0, # of connection points: 6
#     Node 4, Type 0, BuildingBlock: BETDEL_clean_sbu_0, # of connection points: 6
#     Node 5, Type 0, BuildingBlock: BETDEL_clean_sbu_0, # of connection points: 6
#     Node 6, Type 0, BuildingBlock: BETDEL_clean_sbu_0, # of connection points: 6
#     Node 7, Type 0, BuildingBlock: BETDEL_clean_sbu_0, # of connection points: 6
#     Node 8, Type 1, BuildingBlock: AJUNOK_clean_sbu_0, # of connection points: 8
#     Node 9, Type 1, BuildingBlock: AJUNOK_clean_sbu_0, # of connection points: 8
#     Node 10, Type 1, BuildingBlock: AJUNOK_clean_sbu_0, # of connection points: 8
#     Node 11, Type 1, BuildingBlock: AJUNOK_clean_sbu_0, # of connection points: 8
#     Node 12, Type 1, BuildingBlock: AJUNOK_clean_sbu_0, # of connection points: 8
#     Node 13, Type 1, BuildingBlock: AJUNOK_clean_sbu_0, # of connection points: 8
#     Edge 14, Type (0, 1), None
#     Edge 15, Type (0, 1), None
#     Edge 16, Type (0, 1), None
#     Edge 17, Type (0, 1), None
#     Edge 18, Type (0, 1), None
#     Edge 19, Type (0, 1), None
#     Edge 20, Type (0, 1), None
#     Edge 21, Type (0, 1), None
#     Edge 22, Type (0, 1), None
#     Edge 23, Type (0, 1), None
#     Edge 24, Type (0, 1), None
#     Edge 25, Type (0, 1), None
#     Edge 26, Type (0, 1), None
#     Edge 27, Type (0, 1), None
#     Edge 28, Type (0, 1), None
#     Edge 29, Type (0, 1), None
#     Edge 30, Type (0, 1), None
#     Edge 31, Type (0, 1), None
#     Edge 32, Type (0, 1), None
#     Edge 33, Type (0, 1), None
#     Edge 34, Type (0, 1), None
#     Edge 35, Type (0, 1), None
#     Edge 36, Type (0, 1), None
#     Edge 37, Type (0, 1), None
#     Edge 38, Type (0, 1), None
#     Edge 39, Type (0, 1), None
#     Edge 40, Type (0, 1), None
#     Edge 41, Type (0, 1), None
#     Edge 42, Type (0, 1), None
#     Edge 43, Type (0, 1), None
#     Edge 44, Type (0, 1), None
#     Edge 45, Type (0, 1), None
#     Edge 46, Type (0, 1), None
#     Edge 47, Type (0, 1), None
#     Edge 48, Type (0, 1), None
#     Edge 49, Type (0, 1), None
#     Edge 50, Type (0, 1), None
#     Edge 51, Type (0, 1), None
#     Edge 52, Type (0, 1), None
#     Edge 53, Type (0, 1), None
#     Edge 54, Type (0, 1), None
#     Edge 55, Type (0, 1), None
#     Edge 56, Type (0, 1), None
#     Edge 57, Type (0, 1), None
#     Edge 58, Type (0, 1), None
#     Edge 59, Type (0, 1), None
#     Edge 60, Type (0, 1), None
#     Edge 61, Type (0, 1), None
# Relax obj value: 0.132
# Max RMSD: 0.284
# Mean RMSD: 0.169
data_MOF--net-ocu--node1-BETDEL_clean_sbu_0--node2-AJUNOK_clean_sbu_0--edge1-none
_symmetry_space_group_name_H-M    P1
_symmetry_Int_Tables_number       1
_symmetry_cell_setting            triclinic
loop_
_symmetry_equiv_pos_as_xyz
'x, y, z'
_cell_length_a     21.872445
_cell_length_b     22.501547
_cell_length_c     18.662184
_cell_angle_alpha  103.0909
_cell_angle_beta   102.86959
_cell_angle_gamma 112.93763
loop_
_atom_site_label
_atom_site_type_symbol
_atom_site_fract_x
_atom_site_fract_y
_atom_site_fract_z
_atom_type_partial_charge
Dy0 Dy 0.31643 0.25584 0.31111 0.0
C1 C 0.12164 0.2394 0.04743 0.0
C2 C 0.39049 0.21794 0.4152 0.0
Dy3 Dy 0.19596 0.20179 0.15163 0.0
O4 O 0.41725 0.27592 0.40242 0.0
O5 O 0.32257 0.18652 0.3783 0.0
O6 O 0.37917 0.35307 0.29073 0.0
O7 O 0.31026 0.26143 0.19529 0.0
C8 C 0.34939 0.32526 0.21436 0.0
C9 C 0.16332 0.13246 0.24863 0.0
O10 O 0.25093 0.1407 0.10693 0.0
O11 O 0.32964 0.1722 0.23175 0.0
O12 O 0.09497 0.18155 0.06048 0.0
O13 O 0.1896 0.27082 0.0841 0.0
O14 O 0.13348 0.10451 0.17228 0.0
O15 O 0.20218 0.19627 0.26731 0.0
O16 O 0.26143 0.31689 0.35582 0.0
O17 O 0.18282 0.2855 0.23099 0.0
C18 C 0.30314 0.13628 0.15529 0.0
C19 C 0.20928 0.32137 0.30746 0.0
Dy20 Dy 0.80504 0.20694 0.25202 0.0
C21 C 0.59292 0.26708 0.16384 0.0
C22 C 0.91936 0.19075 0.29924 0.0
Dy23 Dy 0.70716 0.25071 0.21093 0.0
O24 O 0.87509 0.16278 0.22794 0.0
O25 O 0.90283 0.23062 0.34343 0.0
O26 O 0.72032 0.0973 0.21096 0.0
O27 O 0.71034 0.15982 0.14614 0.0
C28 C 0.68075 0.10113 0.15113 0.0
C29 C 0.83151 0.35628 0.31173 0.0
O30 O 0.66098 0.18709 0.27844 0.0
O31 O 0.7631 0.18977 0.3471 0.0
O32 O 0.63726 0.29505 0.23511 0.0
O33 O 0.60933 0.2271 0.11963 0.0
O34 O 0.79209 0.36024 0.2519 0.0
O35 O 0.80168 0.29765 0.31681 0.0
O36 O 0.8512 0.27047 0.18442 0.0
O37 O 0.74908 0.26782 0.1158 0.0
C38 C 0.69693 0.17576 0.33552 0.0
C39 C 0.81524 0.28179 0.12734 0.0
Dy40 Dy 0.72748 0.73453 0.30638 0.0
C41 C 0.81842 0.64852 0.04791 0.0
C42 C 0.6944 0.80942 0.41536 0.0
Dy43 Dy 0.78522 0.72335 0.15681 0.0
O44 O 0.65567 0.7441 0.3731 0.0
O45 O 0.75506 0.82958 0.40554 0.0
O46 O 0.62673 0.63405 0.23465 0.0
O47 O 0.71744 0.65933 0.20535 0.0
C48 C 0.6528 0.61726 0.18152 0.0
C49 C 0.85978 0.84074 0.28166 0.0
O50 O 0.70083 0.75602 0.11063 0.0
O51 O 0.67125 0.77338 0.22471 0.0
O52 O 0.85725 0.71376 0.09044 0.0
O53 O 0.75761 0.62845 0.0574 0.0
O54 O 0.88584 0.82415 0.22843 0.0
O55 O 0.79529 0.79831 0.25781 0.0
O56 O 0.81179 0.70178 0.35255 0.0
O57 O 0.84145 0.68451 0.23851 0.0
C58 C 0.66452 0.77542 0.15248 0.0
C59 C 0.84812 0.6824 0.31072 0.0
Dy60 Dy 0.29242 0.70068 0.20981 0.0
C61 C 0.14934 0.81616 0.30906 0.0
C62 C 0.36271 0.64122 0.15444 0.0
Dy63 Dy 0.21988 0.75692 0.25384 0.0
O64 O 0.37029 0.66161 0.22803 0.0
O65 O 0.31184 0.64637 0.11079 0.0
O66 O 0.3866 0.7997 0.2373 0.0
O67 O 0.33104 0.79253 0.31596 0.0
C68 C 0.38149 0.83147 0.30015 0.0
C69 C 0.13119 0.62604 0.16347 0.0
O70 O 0.26726 0.82408 0.18765 0.0
O71 O 0.26881 0.73391 0.1083 0.0
O72 O 0.14186 0.79582 0.2355 0.0
O73 O 0.20024 0.81108 0.35276 0.0
O74 O 0.12596 0.65761 0.22635 0.0
O75 O 0.1814 0.66535 0.1477 0.0
O76 O 0.24527 0.63362 0.27616 0.0
O77 O 0.24364 0.72378 0.3554 0.0
C78 C 0.27824 0.79703 0.12444 0.0
C79 C 0.2343 0.66069 0.33936 0.0
Dy80 Dy 0.30504 0.70694 0.75202 0.0
C81 C 0.09292 0.76708 0.66384 0.0
C82 C 0.41936 0.69075 0.79924 0.0
Dy83 Dy 0.20716 0.75071 0.71093 0.0
O84 O 0.37509 0.66278 0.72794 0.0
O85 O 0.40283 0.73062 0.84343 0.0
O86 O 0.22032 0.5973 0.71096 0.0
O87 O 0.21034 0.65982 0.64614 0.0
C88 C 0.18075 0.60113 0.65113 0.0
C89 C 0.33151 0.85628 0.81173 0.0
O90 O 0.16098 0.68709 0.77844 0.0
O91 O 0.2631 0.68977 0.8471 0.0
O92 O 0.13726 0.79505 0.73511 0.0
O93 O 0.10933 0.7271 0.61963 0.0
O94 O 0.29209 0.86024 0.7519 0.0
O95 O 0.30168 0.79765 0.81681 0.0
O96 O 0.3512 0.77047 0.68442 0.0
O97 O 0.24908 0.76782 0.6158 0.0
C98 C 0.19693 0.67576 0.83552 0.0
C99 C 0.31524 0.78179 0.62734 0.0
Dy100 Dy 0.22748 0.23453 0.80638 0.0
C101 C 0.31842 0.14852 0.54791 0.0
C102 C 0.1944 0.30942 0.91536 0.0
Dy103 Dy 0.28522 0.22335 0.65681 0.0
O104 O 0.15567 0.2441 0.8731 0.0
O105 O 0.25506 0.32958 0.90554 0.0
O106 O 0.12673 0.13405 0.73465 0.0
O107 O 0.21744 0.15933 0.70535 0.0
C108 C 0.1528 0.11726 0.68152 0.0
C109 C 0.35978 0.34074 0.78166 0.0
O110 O 0.20083 0.25602 0.61063 0.0
O111 O 0.17125 0.27338 0.72471 0.0
O112 O 0.35725 0.21376 0.59044 0.0
O113 O 0.25761 0.12845 0.5574 0.0
O114 O 0.38584 0.32415 0.72843 0.0
O115 O 0.29529 0.29831 0.75781 0.0
O116 O 0.31179 0.20178 0.85255 0.0
O117 O 0.34145 0.18451 0.73851 0.0
C118 C 0.16452 0.27542 0.65248 0.0
C119 C 0.34812 0.1824 0.81072 0.0
Dy120 Dy 0.79242 0.20068 0.70981 0.0
C121 C 0.64934 0.31616 0.80906 0.0
C122 C 0.86271 0.14122 0.65444 0.0
Dy123 Dy 0.71988 0.25692 0.75384 0.0
O124 O 0.87029 0.16161 0.72803 0.0
O125 O 0.81184 0.14637 0.61079 0.0
O126 O 0.8866 0.2997 0.7373 0.0
O127 O 0.83104 0.29253 0.81596 0.0
C128 C 0.88149 0.33147 0.80015 0.0
C129 C 0.63119 0.12604 0.66347 0.0
O130 O 0.76726 0.32408 0.68765 0.0
O131 O 0.76881 0.23391 0.6083 0.0
O132 O 0.64186 0.29582 0.7355 0.0
O133 O 0.70024 0.31108 0.85276 0.0
O134 O 0.62596 0.15761 0.72635 0.0
O135 O 0.6814 0.16535 0.6477 0.0
O136 O 0.74527 0.13362 0.77616 0.0
O137 O 0.74364 0.22378 0.8554 0.0
C138 C 0.77824 0.29703 0.62444 0.0
C139 C 0.7343 0.16069 0.83936 0.0
Dy140 Dy 0.81643 0.75584 0.81111 0.0
C141 C 0.62164 0.7394 0.54743 0.0
C142 C 0.89049 0.71794 0.9152 0.0
Dy143 Dy 0.69596 0.70179 0.65163 0.0
O144 O 0.91725 0.77592 0.90242 0.0
O145 O 0.82257 0.68652 0.8783 0.0
O146 O 0.87917 0.85307 0.79073 0.0
O147 O 0.81026 0.76143 0.69529 0.0
C148 C 0.84939 0.82526 0.71436 0.0
C149 C 0.66332 0.63246 0.74863 0.0
O150 O 0.75093 0.6407 0.60693 0.0
O151 O 0.82964 0.6722 0.73175 0.0
O152 O 0.59497 0.68155 0.56048 0.0
O153 O 0.6896 0.77082 0.5841 0.0
O154 O 0.63348 0.60451 0.67228 0.0
O155 O 0.70218 0.69627 0.76731 0.0
O156 O 0.76143 0.81689 0.85582 0.0
O157 O 0.68282 0.7855 0.73099 0.0
C158 C 0.80314 0.63628 0.65529 0.0
C159 C 0.70928 0.82137 0.80746 0.0
Cd160 Cd 0.94216 0.91544 0.55333 0.0
Cd161 Cd 0.0706 0.0426 0.40986 0.0
C162 C 0.06195 0.91109 0.64081 0.0
N163 N 0.02139 0.88303 0.56413 0.0
C164 C 0.02115 0.77665 0.55091 0.0
C165 C 0.05985 0.80309 0.63131 0.0
C166 C 0.08095 0.871 0.67659 0.0
C167 C 1.00127 0.81821 0.51792 0.0
H168 H 0.07139 0.96122 0.67601 0.0
H169 H 0.96477 0.79742 0.45843 0.0
C170 C 0.90179 0.88145 0.36475 0.0
C171 C 0.95089 0.04699 0.32215 0.0
C172 C 0.93171 0.08702 0.28642 0.0
C173 C 0.9526 0.15486 0.33177 0.0
C174 C 0.99127 0.18128 0.41218 0.0
C175 C 0.01135 0.13979 0.44511 0.0
N176 N 0.9914 0.07504 0.39885 0.0
H177 H 0.94157 -0.00308 0.28692 0.0
H178 H 0.04782 0.1606 0.50461 0.0
C179 C 0.04966 0.91088 0.31273 0.0
N180 N 0.08095 0.95097 0.38943 0.0
C181 C 0.13666 0.88517 0.42019 0.0
C182 C 0.11239 0.84929 0.33944 0.0
C183 C 0.06333 0.85736 0.28613 0.0
C184 C 0.12022 0.9378 0.4445 0.0
H185 H 0.0175 0.92339 0.27196 0.0
H186 H 0.1434 0.97161 0.50511 0.0
C187 C 0.11082 0.07663 0.59842 0.0
C188 C 0.87765 0.857 0.65971 0.0
N189 N 0.93174 0.00702 0.57384 0.0
C190 C 0.96293 0.04701 0.65057 0.0
C191 C 0.94897 0.1003 0.67728 0.0
C192 C 0.89976 0.10825 0.62401 0.0
C193 C 0.87561 0.07253 0.54323 0.0
C194 C 0.89232 0.02011 0.51883 0.0
C195 C 0.13513 0.10089 0.30342 0.0
O196 O 0.88042 0.85853 0.41523 0.0
O197 O 0.95974 0.93674 0.38767 0.0
O198 O 0.13227 0.09957 0.54798 0.0
O199 O 0.05289 0.02131 0.57542 0.0
O200 O 0.8479 0.82922 0.58567 0.0
O201 O 0.93574 0.91163 0.68467 0.0
O202 O 0.16484 0.12883 0.37746 0.0
O203 O 0.07711 0.0462 0.27854 0.0
H204 H 0.99518 0.03454 0.69129 0.0
H205 H 0.8692 -0.01363 0.4582 0.0
H206 H 0.00631 0.72482 0.51492 0.0
H207 H 0.11211 0.89312 0.7386 0.0
H208 H 0.90058 0.0649 0.22441 0.0
H209 H 0.00594 0.23305 0.4482 0.0
H210 H 0.17388 0.87815 0.46221 0.0
H211 H 0.04257 0.82843 0.22375 0.0
H212 H 0.96964 0.12912 0.73967 0.0
H213 H 0.83829 0.07947 0.50126 0.0
Cd214 Cd 0.44896 0.9255 0.06286 0.0
Cd215 Cd 0.56337 0.03203 0.90044 0.0
C216 C 0.51182 0.82331 0.1279 0.0
N217 N 0.52535 0.86584 0.08535 0.0
C218 C 0.62535 0.84489 0.07571 0.0
C219 C 0.61368 0.80254 0.12177 0.0
C220 C 0.55484 0.79167 0.14656 0.0
C221 C 0.5808 0.87596 0.05842 0.0
H222 H 0.46795 0.81453 0.14886 0.0
H223 H 0.59164 0.90927 0.02437 0.0
C224 C 0.4066 0.90653 0.85405 0.0
C225 C 0.50066 0.13428 0.8353 0.0
C226 C 0.45771 0.16599 0.81663 0.0
C227 C 0.39888 0.1552 0.84141 0.0
C228 C 0.38714 0.11283 0.88745 0.0
C229 C 0.43161 0.08169 0.90474 0.0
N230 N 0.48706 0.09175 0.87784 0.0
H231 H 0.54455 0.14302 0.81437 0.0
H232 H 0.42071 0.04837 0.93878 0.0
C233 C 0.57748 0.89482 0.80677 0.0
N234 N 0.6085 0.94686 0.87743 0.0
C235 C 0.70373 0.91629 0.90957 0.0
C236 C 0.67402 0.86375 0.83573 0.0
C237 C 0.60902 0.85304 0.78503 0.0
C238 C 0.67052 0.95766 0.92884 0.0
H239 H 0.52948 0.88735 0.76539 0.0
H240 H 0.6959 9e-05 -0.01584 0.0
C241 C 0.60564 0.05084 0.10905 0.0
C242 C 0.33075 0.84208 0.09821 0.0
N243 N 0.40387 0.01069 0.08557 0.0
C244 C 0.43499 0.06291 0.15609 0.0
C245 C 0.40347 0.10474 0.17772 0.0
C246 C 0.33839 0.09389 0.12705 0.0
C247 C 0.30858 0.04117 0.05334 0.0
C248 C 0.34177 -0.00024 0.03418 0.0
C249 C 0.68173 0.11559 0.86547 0.0
O250 O 0.43549 0.92284 0.92747 0.0
O251 O 0.44313 0.93832 0.81782 0.0
O252 O 0.57654 0.03443 0.03566 0.0
O253 O 0.56926 0.01917 0.14546 0.0
O254 O 0.33886 0.81973 0.03372 0.0
O255 O 0.37941 0.90014 0.14672 0.0
O256 O 0.67356 0.13784 0.92996 0.0
O257 O 0.63307 0.05759 0.81683 0.0
H258 H 0.48305 0.07049 0.19746 0.0
H259 H 0.31632 0.9572 0.97897 0.0
H260 H 0.66978 0.85585 0.05526 0.0
H261 H 0.54227 0.7591 0.18132 0.0
H262 H 0.47034 0.19855 0.78187 0.0
H263 H 0.34269 0.10192 0.90788 0.0
H264 H 0.75346 0.92714 0.95093 0.0
H265 H 0.58288 0.8133 0.72749 0.0
H266 H 0.42969 0.14462 0.23517 0.0
H267 H 0.25878 0.03021 0.01202 0.0
Cd268 Cd 0.94505 0.42113 0.0439 0.0
Cd269 Cd 0.06728 0.53641 0.91905 0.0
C270 C 0.07785 0.38749 0.07325 0.0
N271 N 0.0091 0.35696 0.02562 0.0
C272 C 0.01155 0.24856 -0.01668 0.0
C273 C 0.08247 0.27924 0.03276 0.0
C274 C 0.11539 0.34978 0.07743 0.0
C275 C 0.97571 0.28876 0.98034 0.0
H276 H 0.10331 0.44069 0.11082 0.0
H277 H 0.92029 0.26469 0.94472 0.0
C278 C 0.93107 0.40276 0.84617 0.0
C279 C 0.93434 0.56989 0.88951 0.0
C280 C 0.89678 0.60757 0.88527 0.0
C281 C 0.92965 0.67811 0.92995 0.0
C282 C 1.00055 0.70881 0.97946 0.0
C283 C 0.03641 0.66863 -0.01749 0.0
N284 N 1.00307 0.60043 0.93721 0.0
H285 H 0.90893 0.5167 0.85191 0.0
H286 H 0.09181 0.69272 0.01819 0.0
C287 C 0.07748 0.39041 0.86525 0.0
N288 N 0.11342 0.45451 0.92136 0.0
C289 C 0.2018 0.42464 0.98066 0.0
C290 C 0.16342 0.35747 0.92518 0.0
C291 C 0.10007 0.34067 0.86776 0.0
C292 C 0.17476 0.47202 0.97887 0.0
H293 H 0.03199 0.3772 0.81649 0.0
H294 H 0.20316 0.52302 0.02286 0.0
C295 C 0.08153 0.55486 0.11708 0.0
C296 C 0.85587 0.32779 0.09389 0.0
N297 N 0.89899 0.50309 0.0417 0.0
C298 C 0.93504 0.56719 0.09782 0.0
C299 C 0.91256 0.61702 0.09538 0.0
C300 C 0.84922 0.60032 0.03803 0.0
C301 C 0.81071 0.53315 -0.01745 0.0
C302 C 0.83763 0.48567 -0.01574 0.0
C303 C 0.15634 0.62976 0.86899 0.0
O304 O 0.94867 0.4261 0.91966 0.0
O305 O 0.96601 0.44062 0.81396 0.0
O306 O 0.06405 0.53185 0.04358 0.0
O307 O 0.04641 0.5168 0.14901 0.0
O308 O 0.83073 0.32782 0.02551 0.0
O309 O 0.91861 0.37242 0.13637 0.0
O310 O 0.18154 0.62972 0.93735 0.0
O311 O 0.09359 0.58513 0.82654 0.0
H312 H 0.98053 0.58033 0.14652 0.0
H313 H 0.80913 0.43468 0.94027 0.0
H314 H 0.98372 0.19405 0.94916 0.0
H315 H 0.1694 0.37554 0.11802 0.0
H316 H 0.84279 0.5818 0.84463 0.0
H317 H 0.02835 0.76331 0.01364 0.0
H318 H 0.25175 0.44005 0.02505 0.0
H319 H 0.07013 0.29048 0.82193 0.0
H320 H 0.94261 0.6672 0.14122 0.0
H321 H 0.76075 0.51781 0.93822 0.0
Cd322 Cd 0.44216 0.41544 0.05333 0.0
Cd323 Cd 0.5706 0.5426 0.90986 0.0
C324 C 0.56195 0.41109 0.14081 0.0
N325 N 0.52139 0.38303 0.06413 0.0
C326 C 0.52115 0.27665 0.05091 0.0
C327 C 0.55985 0.30309 0.13131 0.0
C328 C 0.58095 0.371 0.17659 0.0
C329 C 0.50127 0.31821 0.01792 0.0
H330 H 0.57139 0.46122 0.17601 0.0
H331 H 0.46477 0.29742 0.95843 0.0
C332 C 0.40179 0.38145 0.86475 0.0
C333 C 0.45089 0.54699 0.82215 0.0
C334 C 0.43171 0.58702 0.78642 0.0
C335 C 0.4526 0.65486 0.83177 0.0
C336 C 0.49127 0.68128 0.91218 0.0
C337 C 0.51135 0.63979 0.94511 0.0
N338 N 0.4914 0.57504 0.89885 0.0
H339 H 0.44157 0.49692 0.78692 0.0
H340 H 0.54782 0.6606 0.00461 0.0
C341 C 0.54966 0.41088 0.81273 0.0
N342 N 0.58095 0.45097 0.88943 0.0
C343 C 0.63666 0.38517 0.92019 0.0
C344 C 0.61239 0.34929 0.83944 0.0
C345 C 0.56333 0.35736 0.78613 0.0
C346 C 0.62022 0.4378 0.9445 0.0
H347 H 0.5175 0.42339 0.77196 0.0
H348 H 0.6434 0.47161 0.00511 0.0
C349 C 0.61082 0.57663 0.09842 0.0
C350 C 0.37765 0.357 0.15971 0.0
N351 N 0.43174 0.50702 0.07384 0.0
C352 C 0.46293 0.54701 0.15057 0.0
C353 C 0.44897 0.6003 0.17728 0.0
C354 C 0.39976 0.60825 0.12401 0.0
C355 C 0.37561 0.57253 0.04323 0.0
C356 C 0.39232 0.52011 0.01883 0.0
C357 C 0.63513 0.60089 0.80342 0.0
O358 O 0.38042 0.35853 0.91523 0.0
O359 O 0.45974 0.43674 0.88767 0.0
O360 O 0.63227 0.59957 0.04798 0.0
O361 O 0.55289 0.52131 0.07542 0.0
O362 O 0.3479 0.32922 0.08567 0.0
O363 O 0.43574 0.41163 0.18467 0.0
O364 O 0.66484 0.62883 0.87746 0.0
O365 O 0.57711 0.5462 0.77854 0.0
H366 H 0.49518 0.53454 0.19129 0.0
H367 H 0.3692 0.48637 0.9582 0.0
H368 H 0.50631 0.22482 0.01492 0.0
H369 H 0.61211 0.39312 0.2386 0.0
H370 H 0.40058 0.5649 0.72441 0.0
H371 H 0.50594 0.73305 0.9482 0.0
H372 H 0.67388 0.37815 0.96221 0.0
H373 H 0.54257 0.32843 0.72375 0.0
H374 H 0.46964 0.62912 0.23967 0.0
H375 H 0.33829 0.57947 0.00126 0.0
Cd376 Cd 0.94896 0.4255 0.56286 0.0
Cd377 Cd 0.06337 0.53203 0.40044 0.0
C378 C 0.01182 0.32331 0.6279 0.0
N379 N 0.02535 0.36584 0.58535 0.0
C380 C 0.12535 0.34489 0.57571 0.0
C381 C 0.11368 0.30254 0.62177 0.0
C382 C 0.05484 0.29167 0.64656 0.0
C383 C 0.0808 0.37596 0.55842 0.0
H384 H 0.96795 0.31453 0.64886 0.0
H385 H 0.09164 0.40927 0.52437 0.0
C386 C 0.9066 0.40653 0.35405 0.0
C387 C 1.00066 0.63428 0.3353 0.0
C388 C 0.95771 0.66599 0.31663 0.0
C389 C 0.89888 0.6552 0.34141 0.0
C390 C 0.88714 0.61283 0.38745 0.0
C391 C 0.93161 0.58169 0.40474 0.0
N392 N 0.98706 0.59175 0.37784 0.0
H393 H 0.04455 0.64302 0.31437 0.0
H394 H 0.92071 0.54837 0.43878 0.0
C395 C 0.07748 0.39482 0.30677 0.0
N396 N 0.1085 0.44686 0.37743 0.0
C397 C 0.20373 0.41629 0.40957 0.0
C398 C 0.17402 0.36375 0.33573 0.0
C399 C 0.10902 0.35304 0.28503 0.0
C400 C 0.17052 0.45766 0.42884 0.0
H401 H 0.02948 0.38735 0.26539 0.0
H402 H 0.1959 0.50009 0.48416 0.0
C403 C 0.10564 0.55084 0.60905 0.0
C404 C 0.83075 0.34208 0.59821 0.0
N405 N 0.90387 0.51069 0.58557 0.0
C406 C 0.93499 0.56291 0.65609 0.0
C407 C 0.90347 0.60474 0.67772 0.0
C408 C 0.83839 0.59389 0.62705 0.0
C409 C 0.80858 0.54117 0.55334 0.0
C410 C 0.84177 0.49976 0.53418 0.0
C411 C 0.18173 0.61559 0.36547 0.0
O412 O 0.93549 0.42284 0.42747 0.0
O413 O 0.94313 0.43832 0.31782 0.0
O414 O 0.07654 0.53443 0.53566 0.0
O415 O 0.06926 0.51917 0.64546 0.0
O416 O 0.83886 0.31973 0.53372 0.0
O417 O 0.87941 0.40014 0.64672 0.0
O418 O 0.17356 0.63784 0.42996 0.0
O419 O 0.13307 0.55759 0.31683 0.0
H420 H 0.98305 0.57049 0.69746 0.0
H421 H 0.81632 0.4572 0.47897 0.0
H422 H 0.16978 0.35585 0.55526 0.0
H423 H 0.04227 0.2591 0.68132 0.0
H424 H 0.97034 0.69855 0.28187 0.0
H425 H 0.84269 0.60192 0.40788 0.0
H426 H 0.25346 0.42714 0.45093 0.0
H427 H 0.08288 0.3133 0.22749 0.0
H428 H 0.92969 0.64462 0.73517 0.0
H429 H 0.75878 0.53021 0.51202 0.0
Cd430 Cd 0.44505 0.92113 0.5439 0.0
Cd431 Cd 0.56728 0.03641 0.41905 0.0
C432 C 0.57785 0.88749 0.57325 0.0
N433 N 0.5091 0.85696 0.52562 0.0
C434 C 0.51155 0.74856 0.48332 0.0
C435 C 0.58247 0.77924 0.53276 0.0
C436 C 0.61539 0.84978 0.57743 0.0
C437 C 0.47571 0.78876 0.48034 0.0
H438 H 0.60331 0.94069 0.61082 0.0
H439 H 0.42029 0.76469 0.44472 0.0
C440 C 0.43107 0.90276 0.34617 0.0
C441 C 0.43434 0.06989 0.38951 0.0
C442 C 0.39678 0.10757 0.38527 0.0
C443 C 0.42965 0.17811 0.42995 0.0
C444 C 0.50055 0.20881 0.47946 0.0
C445 C 0.53641 0.16863 0.48251 0.0
N446 N 0.50307 0.10043 0.43721 0.0
H447 H 0.40893 0.0167 0.35191 0.0
H448 H 0.59181 0.19272 0.51819 0.0
C449 C 0.57748 0.89041 0.36525 0.0
N450 N 0.61342 0.95451 0.42136 0.0
C451 C 0.7018 0.92464 0.48066 0.0
C452 C 0.66342 0.85747 0.42518 0.0
C453 C 0.60008 0.84067 0.36776 0.0
C454 C 0.67476 0.97202 0.47887 0.0
H455 H 0.53199 0.8772 0.31649 0.0
H456 H 0.70316 0.02302 0.52286 0.0
C457 C 0.58153 0.05486 0.61708 0.0
C458 C 0.35587 0.82779 0.59389 0.0
N459 N 0.39898 0.00309 0.5417 0.0
C460 C 0.43504 0.06719 0.59782 0.0
C461 C 0.41256 0.11702 0.59538 0.0
C462 C 0.34922 0.10032 0.53803 0.0
C463 C 0.31071 0.03315 0.48255 0.0
C464 C 0.33763 -0.01433 0.48426 0.0
C465 C 0.65634 0.12976 0.36899 0.0
O466 O 0.44867 0.9261 0.41966 0.0
O467 O 0.46601 0.94062 0.31396 0.0
O468 O 0.56405 0.03185 0.54358 0.0
O469 O 0.54641 0.0168 0.64901 0.0
O470 O 0.33073 0.82782 0.52551 0.0
O471 O 0.41861 0.87242 0.63637 0.0
O472 O 0.68154 0.12972 0.43735 0.0
O473 O 0.59359 0.08513 0.32654 0.0
H474 H 0.48053 0.08033 0.64652 0.0
H475 H 0.30913 0.93468 0.44027 0.0
H476 H 0.48372 0.69405 0.44916 0.0
H477 H 0.6694 0.87554 0.61802 0.0
H478 H 0.34279 0.0818 0.34463 0.0
H479 H 0.52835 0.26331 0.51364 0.0
H480 H 0.75175 0.94005 0.52505 0.0
H481 H 0.57013 0.79048 0.32193 0.0
H482 H 0.44261 0.1672 0.64122 0.0
H483 H 0.26075 0.01781 0.43822 0.0
loop_
_geom_bond_atom_site_label_1
_geom_bond_atom_site_label_2
_geom_bond_distance
_geom_bond_site_symmetry_2
_ccdc_geom_bond_type
Dy0 O4 2.398 . S
Dy0 O5 2.491 . S
Dy0 O6 2.403 . S
Dy0 O7 2.664 . S
Dy0 O11 2.326 . S
Dy0 O15 2.310 . S
Dy0 O16 2.351 . S
C1 O12 1.185 . S
C1 O13 1.355 . S
C2 O4 1.185 . S
C2 O5 1.355 . S
Dy3 O7 2.310 . S
Dy3 O10 2.351 . S
Dy3 O12 2.398 . S
Dy3 O13 2.491 . S
Dy3 O14 2.403 . S
Dy3 O15 2.664 . S
Dy3 O17 2.326 . S
O4 Dy0 2.398 . S
O4 C2 1.185 . S
O5 Dy0 2.491 . S
O5 C2 1.355 . S
O6 Dy0 2.403 . S
O6 C8 1.254 . S
O7 Dy0 2.664 . S
O7 Dy3 2.310 . S
O7 C8 1.268 . S
C8 O6 1.254 . S
C8 O7 1.268 . S
C9 O14 1.254 . S
C9 O15 1.268 . S
O10 Dy3 2.351 . S
O10 C18 1.249 . S
O11 Dy0 2.326 . S
O11 C18 1.267 . S
O12 C1 1.185 . S
O12 Dy3 2.398 . S
O13 C1 1.355 . S
O13 Dy3 2.491 . S
O14 Dy3 2.403 . S
O14 C9 1.254 . S
O15 Dy0 2.310 . S
O15 Dy3 2.664 . S
O15 C9 1.268 . S
O16 Dy0 2.351 . S
O16 C19 1.249 . S
O17 Dy3 2.326 . S
O17 C19 1.267 . S
C18 O10 1.249 . S
C18 O11 1.267 . S
C19 O16 1.249 . S
C19 O17 1.267 . S
Dy20 O24 2.398 . S
Dy20 O25 2.491 . S
Dy20 O26 2.403 . S
Dy20 O27 2.664 . S
Dy20 O31 2.326 . S
Dy20 O35 2.310 . S
Dy20 O36 2.351 . S
C21 O32 1.185 . S
C21 O33 1.355 . S
C22 O24 1.185 . S
C22 O25 1.355 . S
Dy23 O27 2.310 . S
Dy23 O30 2.351 . S
Dy23 O32 2.398 . S
Dy23 O33 2.491 . S
Dy23 O34 2.403 . S
Dy23 O35 2.664 . S
Dy23 O37 2.326 . S
O24 Dy20 2.398 . S
O24 C22 1.185 . S
O25 Dy20 2.491 . S
O25 C22 1.355 . S
O26 Dy20 2.403 . S
O26 C28 1.254 . S
O27 Dy20 2.664 . S
O27 Dy23 2.310 . S
O27 C28 1.268 . S
C28 O26 1.254 . S
C28 O27 1.268 . S
C29 O34 1.254 . S
C29 O35 1.268 . S
O30 Dy23 2.351 . S
O30 C38 1.249 . S
O31 Dy20 2.326 . S
O31 C38 1.267 . S
O32 C21 1.185 . S
O32 Dy23 2.398 . S
O33 C21 1.355 . S
O33 Dy23 2.491 . S
O34 Dy23 2.403 . S
O34 C29 1.254 . S
O35 Dy20 2.310 . S
O35 Dy23 2.664 . S
O35 C29 1.268 . S
O36 Dy20 2.351 . S
O36 C39 1.249 . S
O37 Dy23 2.326 . S
O37 C39 1.267 . S
C38 O30 1.249 . S
C38 O31 1.267 . S
C39 O36 1.249 . S
C39 O37 1.267 . S
Dy40 O44 2.398 . S
Dy40 O45 2.491 . S
Dy40 O46 2.403 . S
Dy40 O47 2.664 . S
Dy40 O51 2.326 . S
Dy40 O55 2.310 . S
Dy40 O56 2.351 . S
C41 O52 1.185 . S
C41 O53 1.355 . S
C42 O44 1.185 . S
C42 O45 1.355 . S
Dy43 O47 2.310 . S
Dy43 O50 2.351 . S
Dy43 O52 2.398 . S
Dy43 O53 2.491 . S
Dy43 O54 2.403 . S
Dy43 O55 2.664 . S
Dy43 O57 2.326 . S
O44 Dy40 2.398 . S
O44 C42 1.185 . S
O45 Dy40 2.491 . S
O45 C42 1.355 . S
O46 Dy40 2.403 . S
O46 C48 1.254 . S
O47 Dy40 2.664 . S
O47 Dy43 2.310 . S
O47 C48 1.268 . S
C48 O46 1.254 . S
C48 O47 1.268 . S
C49 O54 1.254 . S
C49 O55 1.268 . S
O50 Dy43 2.351 . S
O50 C58 1.249 . S
O51 Dy40 2.326 . S
O51 C58 1.267 . S
O52 C41 1.185 . S
O52 Dy43 2.398 . S
O53 C41 1.355 . S
O53 Dy43 2.491 . S
O54 Dy43 2.403 . S
O54 C49 1.254 . S
O55 Dy40 2.310 . S
O55 Dy43 2.664 . S
O55 C49 1.268 . S
O56 Dy40 2.351 . S
O56 C59 1.249 . S
O57 Dy43 2.326 . S
O57 C59 1.267 . S
C58 O50 1.249 . S
C58 O51 1.267 . S
C59 O56 1.249 . S
C59 O57 1.267 . S
Dy60 O64 2.398 . S
Dy60 O65 2.491 . S
Dy60 O66 2.403 . S
Dy60 O67 2.664 . S
Dy60 O71 2.326 . S
Dy60 O75 2.310 . S
Dy60 O76 2.351 . S
C61 O72 1.185 . S
C61 O73 1.355 . S
C62 O64 1.185 . S
C62 O65 1.355 . S
Dy63 O67 2.310 . S
Dy63 O70 2.351 . S
Dy63 O72 2.398 . S
Dy63 O73 2.491 . S
Dy63 O74 2.403 . S
Dy63 O75 2.664 . S
Dy63 O77 2.326 . S
O64 Dy60 2.398 . S
O64 C62 1.185 . S
O65 Dy60 2.491 . S
O65 C62 1.355 . S
O66 Dy60 2.403 . S
O66 C68 1.254 . S
O67 Dy60 2.664 . S
O67 Dy63 2.310 . S
O67 C68 1.268 . S
C68 O66 1.254 . S
C68 O67 1.268 . S
C69 O74 1.254 . S
C69 O75 1.268 . S
O70 Dy63 2.351 . S
O70 C78 1.249 . S
O71 Dy60 2.326 . S
O71 C78 1.267 . S
O72 C61 1.185 . S
O72 Dy63 2.398 . S
O73 C61 1.355 . S
O73 Dy63 2.491 . S
O74 Dy63 2.403 . S
O74 C69 1.254 . S
O75 Dy60 2.310 . S
O75 Dy63 2.664 . S
O75 C69 1.268 . S
O76 Dy60 2.351 . S
O76 C79 1.249 . S
O77 Dy63 2.326 . S
O77 C79 1.267 . S
C78 O70 1.249 . S
C78 O71 1.267 . S
C79 O76 1.249 . S
C79 O77 1.267 . S
Dy80 O84 2.398 . S
Dy80 O85 2.491 . S
Dy80 O86 2.403 . S
Dy80 O87 2.664 . S
Dy80 O91 2.326 . S
Dy80 O95 2.310 . S
Dy80 O96 2.351 . S
C81 O92 1.185 . S
C81 O93 1.355 . S
C82 O84 1.185 . S
C82 O85 1.355 . S
Dy83 O87 2.310 . S
Dy83 O90 2.351 . S
Dy83 O92 2.398 . S
Dy83 O93 2.491 . S
Dy83 O94 2.403 . S
Dy83 O95 2.664 . S
Dy83 O97 2.326 . S
O84 Dy80 2.398 . S
O84 C82 1.185 . S
O85 Dy80 2.491 . S
O85 C82 1.355 . S
O86 Dy80 2.403 . S
O86 C88 1.254 . S
O87 Dy80 2.664 . S
O87 Dy83 2.310 . S
O87 C88 1.268 . S
C88 O86 1.254 . S
C88 O87 1.268 . S
C89 O94 1.254 . S
C89 O95 1.268 . S
O90 Dy83 2.351 . S
O90 C98 1.249 . S
O91 Dy80 2.326 . S
O91 C98 1.267 . S
O92 C81 1.185 . S
O92 Dy83 2.398 . S
O93 C81 1.355 . S
O93 Dy83 2.491 . S
O94 Dy83 2.403 . S
O94 C89 1.254 . S
O95 Dy80 2.310 . S
O95 Dy83 2.664 . S
O95 C89 1.268 . S
O96 Dy80 2.351 . S
O96 C99 1.249 . S
O97 Dy83 2.326 . S
O97 C99 1.267 . S
C98 O90 1.249 . S
C98 O91 1.267 . S
C99 O96 1.249 . S
C99 O97 1.267 . S
Dy100 O104 2.398 . S
Dy100 O105 2.491 . S
Dy100 O106 2.403 . S
Dy100 O107 2.664 . S
Dy100 O111 2.326 . S
Dy100 O115 2.310 . S
Dy100 O116 2.351 . S
C101 O112 1.185 . S
C101 O113 1.355 . S
C102 O104 1.185 . S
C102 O105 1.355 . S
Dy103 O107 2.310 . S
Dy103 O110 2.351 . S
Dy103 O112 2.398 . S
Dy103 O113 2.491 . S
Dy103 O114 2.403 . S
Dy103 O115 2.664 . S
Dy103 O117 2.326 . S
O104 Dy100 2.398 . S
O104 C102 1.185 . S
O105 Dy100 2.491 . S
O105 C102 1.355 . S
O106 Dy100 2.403 . S
O106 C108 1.254 . S
O107 Dy100 2.664 . S
O107 Dy103 2.310 . S
O107 C108 1.268 . S
C108 O106 1.254 . S
C108 O107 1.268 . S
C109 O114 1.254 . S
C109 O115 1.268 . S
O110 Dy103 2.351 . S
O110 C118 1.249 . S
O111 Dy100 2.326 . S
O111 C118 1.267 . S
O112 C101 1.185 . S
O112 Dy103 2.398 . S
O113 C101 1.355 . S
O113 Dy103 2.491 . S
O114 Dy103 2.403 . S
O114 C109 1.254 . S
O115 Dy100 2.310 . S
O115 Dy103 2.664 . S
O115 C109 1.268 . S
O116 Dy100 2.351 . S
O116 C119 1.249 . S
O117 Dy103 2.326 . S
O117 C119 1.267 . S
C118 O110 1.249 . S
C118 O111 1.267 . S
C119 O116 1.249 . S
C119 O117 1.267 . S
Dy120 O124 2.398 . S
Dy120 O125 2.491 . S
Dy120 O126 2.403 . S
Dy120 O127 2.664 . S
Dy120 O131 2.326 . S
Dy120 O135 2.310 . S
Dy120 O136 2.351 . S
C121 O132 1.185 . S
C121 O133 1.355 . S
C122 O124 1.185 . S
C122 O125 1.355 . S
Dy123 O127 2.310 . S
Dy123 O130 2.351 . S
Dy123 O132 2.398 . S
Dy123 O133 2.491 . S
Dy123 O134 2.403 . S
Dy123 O135 2.664 . S
Dy123 O137 2.326 . S
O124 Dy120 2.398 . S
O124 C122 1.185 . S
O125 Dy120 2.491 . S
O125 C122 1.355 . S
O126 Dy120 2.403 . S
O126 C128 1.254 . S
O127 Dy120 2.664 . S
O127 Dy123 2.310 . S
O127 C128 1.268 . S
C128 O126 1.254 . S
C128 O127 1.268 . S
C129 O134 1.254 . S
C129 O135 1.268 . S
O130 Dy123 2.351 . S
O130 C138 1.249 . S
O131 Dy120 2.326 . S
O131 C138 1.267 . S
O132 C121 1.185 . S
O132 Dy123 2.398 . S
O133 C121 1.355 . S
O133 Dy123 2.491 . S
O134 Dy123 2.403 . S
O134 C129 1.254 . S
O135 Dy120 2.310 . S
O135 Dy123 2.664 . S
O135 C129 1.268 . S
O136 Dy120 2.351 . S
O136 C139 1.249 . S
O137 Dy123 2.326 . S
O137 C139 1.267 . S
C138 O130 1.249 . S
C138 O131 1.267 . S
C139 O136 1.249 . S
C139 O137 1.267 . S
Dy140 O144 2.398 . S
Dy140 O145 2.491 . S
Dy140 O146 2.403 . S
Dy140 O147 2.664 . S
Dy140 O151 2.326 . S
Dy140 O155 2.310 . S
Dy140 O156 2.351 . S
C141 O152 1.185 . S
C141 O153 1.355 . S
C142 O144 1.185 . S
C142 O145 1.355 . S
Dy143 O147 2.310 . S
Dy143 O150 2.351 . S
Dy143 O152 2.398 . S
Dy143 O153 2.491 . S
Dy143 O154 2.403 . S
Dy143 O155 2.664 . S
Dy143 O157 2.326 . S
O144 Dy140 2.398 . S
O144 C142 1.185 . S
O145 Dy140 2.491 . S
O145 C142 1.355 . S
O146 Dy140 2.403 . S
O146 C148 1.254 . S
O147 Dy140 2.664 . S
O147 Dy143 2.310 . S
O147 C148 1.268 . S
C148 O146 1.254 . S
C148 O147 1.268 . S
C149 O154 1.254 . S
C149 O155 1.268 . S
O150 Dy143 2.351 . S
O150 C158 1.249 . S
O151 Dy140 2.326 . S
O151 C158 1.267 . S
O152 C141 1.185 . S
O152 Dy143 2.398 . S
O153 C141 1.355 . S
O153 Dy143 2.491 . S
O154 Dy143 2.403 . S
O154 C149 1.254 . S
O155 Dy140 2.310 . S
O155 Dy143 2.664 . S
O155 C149 1.268 . S
O156 Dy140 2.351 . S
O156 C159 1.249 . S
O157 Dy143 2.326 . S
O157 C159 1.267 . S
C158 O150 1.249 . S
C158 O151 1.267 . S
C159 O156 1.249 . S
C159 O157 1.267 . S
Cd160 N163 2.334 1_655 S
Cd160 N189 2.304 1_565 S
Cd160 O196 2.268 . S
Cd160 O199 2.273 1_665 S
Cd160 O200 2.417 . S
Cd160 O201 2.330 . S
Cd161 N176 2.304 1_455 S
Cd161 N180 2.334 1_545 S
Cd161 O197 2.273 1_445 S
Cd161 O198 2.268 . S
Cd161 O202 2.417 . S
Cd161 O203 2.330 . S
C162 N163 1.332 . S
C162 C166 1.381 . S
C162 H168 0.931 . S
N163 Cd160 2.334 1_455 S
N163 C162 1.332 . S
N163 C167 1.328 . S
C164 C165 1.396 . S
C164 C167 1.378 . S
C164 H206 0.931 . S
C165 C164 1.396 . S
C165 C166 1.382 . S
C166 C162 1.381 . S
C166 C165 1.382 . S
C166 H207 0.930 . S
C167 N163 1.328 . S
C167 C164 1.378 . S
C167 H169 0.930 1_455 S
H168 C162 0.931 . S
H169 C167 0.930 1_655 S
C170 O196 1.238 . S
C170 O197 1.253 . S
C171 C172 1.379 . S
C171 N176 1.337 . S
C171 H177 0.929 . S
C172 C171 1.379 . S
C172 C173 1.380 . S
C172 H208 0.929 . S
C173 C172 1.380 . S
C173 C174 1.399 . S
C174 C173 1.399 . S
C174 C175 1.374 1_655 S
C174 H209 0.931 . S
C175 C174 1.374 1_455 S
C175 N176 1.339 1_455 S
C175 H178 0.931 . S
N176 Cd161 2.304 1_655 S
N176 C171 1.337 . S
N176 C175 1.339 1_655 S
H177 C171 0.929 . S
H178 C175 0.931 . S
C179 N180 1.332 . S
C179 C183 1.381 . S
C179 H185 0.931 . S
N180 Cd161 2.334 1_565 S
N180 C179 1.332 . S
N180 C184 1.328 . S
C181 C182 1.396 . S
C181 C184 1.378 . S
C181 H210 0.931 . S
C182 C181 1.396 . S
C182 C183 1.382 . S
C183 C179 1.381 . S
C183 C182 1.382 . S
C183 H211 0.930 . S
C184 N180 1.328 . S
C184 C181 1.378 . S
C184 H186 0.930 1_565 S
H185 C179 0.931 . S
H186 C184 0.930 1_545 S
C187 O198 1.238 . S
C187 O199 1.253 . S
C188 O200 1.239 . S
C188 O201 1.230 . S
N189 Cd160 2.304 1_545 S
N189 C190 1.337 . S
N189 C194 1.338 . S
C190 N189 1.337 . S
C190 C191 1.379 . S
C190 H204 0.929 . S
C191 C190 1.379 . S
C191 C192 1.380 . S
C191 H212 0.929 . S
C192 C191 1.380 . S
C192 C193 1.399 . S
C193 C192 1.399 . S
C193 C194 1.376 . S
C193 H213 0.931 . S
C194 N189 1.338 . S
C194 C193 1.376 . S
C194 H205 0.930 1_545 S
C195 O202 1.239 . S
C195 O203 1.230 . S
O196 Cd160 2.268 . S
O196 C170 1.238 . S
O197 Cd161 2.273 1_665 S
O197 C170 1.253 . S
O198 Cd161 2.268 . S
O198 C187 1.238 . S
O199 Cd160 2.273 1_445 S
O199 C187 1.253 . S
O200 Cd160 2.417 . S
O200 C188 1.239 . S
O201 Cd160 2.330 . S
O201 C188 1.230 . S
O202 Cd161 2.417 . S
O202 C195 1.239 . S
O203 Cd161 2.330 . S
O203 C195 1.230 . S
H204 C190 0.929 . S
H205 C194 0.930 1_565 S
H206 C164 0.931 . S
H207 C166 0.930 . S
H208 C172 0.929 . S
H209 C174 0.931 . S
H210 C181 0.931 . S
H211 C183 0.930 . S
H212 C191 0.929 . S
H213 C193 0.931 . S
Cd214 N217 2.334 . S
Cd214 N243 2.304 1_565 S
Cd214 O250 2.268 1_554 S
Cd214 O253 2.273 1_565 S
Cd214 O254 2.417 . S
Cd214 O255 2.330 . S
Cd215 N230 2.304 . S
Cd215 N234 2.334 1_545 S
Cd215 O251 2.273 1_545 S
Cd215 O252 2.268 1_556 S
Cd215 O256 2.417 . S
Cd215 O257 2.330 . S
C216 N217 1.332 . S
C216 C220 1.381 . S
C216 H222 0.931 . S
N217 Cd214 2.334 . S
N217 C216 1.332 . S
N217 C221 1.328 . S
C218 C219 1.396 . S
C218 C221 1.378 . S
C218 H260 0.931 1_554 S
C219 C218 1.396 . S
C219 C220 1.382 . S
C220 C216 1.381 . S
C220 C219 1.382 . S
C220 H261 0.930 . S
C221 N217 1.328 . S
C221 C218 1.378 . S
C221 H223 0.930 1_554 S
H222 C216 0.931 . S
H223 C221 0.930 1_556 S
C224 O250 1.238 . S
C224 O251 1.253 . S
C225 C226 1.379 . S
C225 N230 1.337 . S
C225 H231 0.929 . S
C226 C225 1.379 . S
C226 C227 1.380 . S
C226 H262 0.929 . S
C227 C226 1.380 . S
C227 C228 1.399 . S
C228 C227 1.399 . S
C228 C229 1.376 . S
C228 H263 0.931 1_556 S
C229 C228 1.376 . S
C229 N230 1.338 . S
C229 H232 0.930 1_556 S
N230 Cd215 2.304 . S
N230 C225 1.337 . S
N230 C229 1.338 . S
H231 C225 0.929 . S
H232 C229 0.930 1_554 S
C233 N234 1.332 . S
C233 C237 1.381 . S
C233 H239 0.931 . S
N234 Cd215 2.334 1_565 S
N234 C233 1.332 . S
N234 C238 1.328 . S
C235 C236 1.396 . S
C235 C238 1.378 . S
C235 H264 0.931 1_556 S
C236 C235 1.396 . S
C236 C237 1.382 . S
C237 C233 1.381 . S
C237 C236 1.382 . S
C237 H265 0.930 . S
C238 N234 1.328 . S
C238 C235 1.378 . S
C238 H240 0.930 1_566 S
H239 C233 0.931 . S
H240 C238 0.930 1_544 S
C241 O252 1.238 . S
C241 O253 1.253 . S
C242 O254 1.239 . S
C242 O255 1.230 . S
N243 Cd214 2.304 1_545 S
N243 C244 1.337 . S
N243 C248 1.338 . S
C244 N243 1.337 . S
C244 C245 1.379 . S
C244 H258 0.929 . S
C245 C244 1.379 . S
C245 C246 1.380 . S
C245 H266 0.929 . S
C246 C245 1.380 . S
C246 C247 1.399 . S
C247 C246 1.399 . S
C247 C248 1.376 . S
C247 H267 0.931 1_554 S
C248 N243 1.338 . S
C248 C247 1.376 . S
C248 H259 0.930 1_544 S
C249 O256 1.239 . S
C249 O257 1.230 . S
O250 Cd214 2.268 1_556 S
O250 C224 1.238 . S
O251 Cd215 2.273 1_565 S
O251 C224 1.253 . S
O252 Cd215 2.268 1_554 S
O252 C241 1.238 . S
O253 Cd214 2.273 1_545 S
O253 C241 1.253 . S
O254 Cd214 2.417 . S
O254 C242 1.239 . S
O255 Cd214 2.330 . S
O255 C242 1.230 . S
O256 Cd215 2.417 . S
O256 C249 1.239 . S
O257 Cd215 2.330 . S
O257 C249 1.230 . S
H258 C244 0.929 . S
H259 C248 0.930 1_566 S
H260 C218 0.931 1_556 S
H261 C220 0.930 . S
H262 C226 0.929 . S
H263 C228 0.931 1_554 S
H264 C235 0.931 1_554 S
H265 C237 0.930 . S
H266 C245 0.929 . S
H267 C247 0.931 1_556 S
Cd268 N271 2.334 1_655 S
Cd268 N297 2.304 . S
Cd268 O304 2.268 1_554 S
Cd268 O307 2.273 1_655 S
Cd268 O308 2.417 . S
Cd268 O309 2.330 . S
Cd269 N284 2.304 1_455 S
Cd269 N288 2.334 . S
Cd269 O305 2.273 1_455 S
Cd269 O306 2.268 1_556 S
Cd269 O310 2.417 . S
Cd269 O311 2.330 . S
C270 N271 1.332 . S
C270 C274 1.381 . S
C270 H276 0.931 . S
N271 Cd268 2.334 1_455 S
N271 C270 1.332 . S
N271 C275 1.328 . S
C272 C273 1.396 . S
C272 C275 1.378 . S
C272 H314 0.931 1_554 S
C273 C272 1.396 . S
C273 C274 1.382 . S
C274 C270 1.381 . S
C274 C273 1.382 . S
C274 H315 0.930 . S
C275 N271 1.328 . S
C275 C272 1.378 . S
C275 H277 0.930 1_454 S
H276 C270 0.931 . S
H277 C275 0.930 1_656 S
C278 O304 1.238 . S
C278 O305 1.253 . S
C279 C280 1.379 . S
C279 N284 1.337 . S
C279 H285 0.929 . S
C280 C279 1.379 . S
C280 C281 1.380 . S
C280 H316 0.929 . S
C281 C280 1.380 . S
C281 C282 1.399 . S
C282 C281 1.399 . S
C282 C283 1.374 1_655 S
C282 H317 0.931 1_556 S
C283 C282 1.374 1_455 S
C283 N284 1.339 1_455 S
C283 H286 0.931 1_556 S
N284 Cd269 2.304 1_655 S
N284 C279 1.337 . S
N284 C283 1.339 1_655 S
H285 C279 0.929 . S
H286 C283 0.931 1_554 S
C287 N288 1.332 . S
C287 C291 1.381 . S
C287 H293 0.931 . S
N288 Cd269 2.334 . S
N288 C287 1.332 . S
N288 C292 1.328 . S
C289 C290 1.396 . S
C289 C292 1.378 . S
C289 H318 0.931 1_556 S
C290 C289 1.396 . S
C290 C291 1.382 . S
C291 C287 1.381 . S
C291 C290 1.382 . S
C291 H319 0.930 . S
C292 N288 1.328 . S
C292 C289 1.378 . S
C292 H294 0.930 1_556 S
H293 C287 0.931 . S
H294 C292 0.930 1_554 S
C295 O306 1.238 . S
C295 O307 1.253 . S
C296 O308 1.239 . S
C296 O309 1.230 . S
N297 Cd268 2.304 . S
N297 C298 1.337 . S
N297 C302 1.338 . S
C298 N297 1.337 . S
C298 C299 1.379 . S
C298 H312 0.929 . S
C299 C298 1.379 . S
C299 C300 1.380 . S
C299 H320 0.929 . S
C300 C299 1.380 . S
C300 C301 1.399 . S
C301 C300 1.399 . S
C301 C302 1.376 . S
C301 H321 0.931 1_554 S
C302 N297 1.338 . S
C302 C301 1.376 . S
C302 H313 0.930 1_554 S
C303 O310 1.239 . S
C303 O311 1.230 . S
O304 Cd268 2.268 1_556 S
O304 C278 1.238 . S
O305 Cd269 2.273 1_655 S
O305 C278 1.253 . S
O306 Cd269 2.268 1_554 S
O306 C295 1.238 . S
O307 Cd268 2.273 1_455 S
O307 C295 1.253 . S
O308 Cd268 2.417 . S
O308 C296 1.239 . S
O309 Cd268 2.330 . S
O309 C296 1.230 . S
O310 Cd269 2.417 . S
O310 C303 1.239 . S
O311 Cd269 2.330 . S
O311 C303 1.230 . S
H312 C298 0.929 . S
H313 C302 0.930 1_556 S
H314 C272 0.931 1_556 S
H315 C274 0.930 . S
H316 C280 0.929 . S
H317 C282 0.931 1_554 S
H318 C289 0.931 1_554 S
H319 C291 0.930 . S
H320 C299 0.929 . S
H321 C301 0.931 1_556 S
Cd322 N325 2.334 . S
Cd322 N351 2.304 . S
Cd322 O358 2.268 1_554 S
Cd322 O361 2.273 . S
Cd322 O362 2.417 . S
Cd322 O363 2.330 . S
Cd323 N338 2.304 . S
Cd323 N342 2.334 . S
Cd323 O359 2.273 . S
Cd323 O360 2.268 1_556 S
Cd323 O364 2.417 . S
Cd323 O365 2.330 . S
C324 N325 1.332 . S
C324 C328 1.381 . S
C324 H330 0.931 . S
N325 Cd322 2.334 . S
N325 C324 1.332 . S
N325 C329 1.328 . S
C326 C327 1.396 . S
C326 C329 1.378 . S
C326 H368 0.931 1_554 S
C327 C326 1.396 . S
C327 C328 1.382 . S
C328 C324 1.381 . S
C328 C327 1.382 . S
C328 H369 0.930 . S
C329 N325 1.328 . S
C329 C326 1.378 . S
C329 H331 0.930 1_554 S
H330 C324 0.931 . S
H331 C329 0.930 1_556 S
C332 O358 1.238 . S
C332 O359 1.253 . S
C333 C334 1.379 . S
C333 N338 1.337 . S
C333 H339 0.929 . S
C334 C333 1.379 . S
C334 C335 1.380 . S
C334 H370 0.929 . S
C335 C334 1.380 . S
C335 C336 1.399 . S
C336 C335 1.399 . S
C336 C337 1.376 . S
C336 H371 0.931 1_556 S
C337 C336 1.376 . S
C337 N338 1.338 . S
C337 H340 0.930 1_556 S
N338 Cd323 2.304 . S
N338 C333 1.337 . S
N338 C337 1.338 . S
H339 C333 0.929 . S
H340 C337 0.930 1_554 S
C341 N342 1.332 . S
C341 C345 1.381 . S
C341 H347 0.931 . S
N342 Cd323 2.334 . S
N342 C341 1.332 . S
N342 C346 1.328 . S
C343 C344 1.396 . S
C343 C346 1.378 . S
C343 H372 0.931 1_556 S
C344 C343 1.396 . S
C344 C345 1.382 . S
C345 C341 1.381 . S
C345 C344 1.382 . S
C345 H373 0.930 . S
C346 N342 1.328 . S
C346 C343 1.378 . S
C346 H348 0.930 1_556 S
H347 C341 0.931 . S
H348 C346 0.930 1_554 S
C349 O360 1.238 . S
C349 O361 1.253 . S
C350 O362 1.239 . S
C350 O363 1.230 . S
N351 Cd322 2.304 . S
N351 C352 1.337 . S
N351 C356 1.338 . S
C352 N351 1.337 . S
C352 C353 1.379 . S
C352 H366 0.929 . S
C353 C352 1.379 . S
C353 C354 1.380 . S
C353 H374 0.929 . S
C354 C353 1.380 . S
C354 C355 1.399 . S
C355 C354 1.399 . S
C355 C356 1.376 . S
C355 H375 0.931 1_554 S
C356 N351 1.338 . S
C356 C355 1.376 . S
C356 H367 0.930 1_554 S
C357 O364 1.239 . S
C357 O365 1.230 . S
O358 Cd322 2.268 1_556 S
O358 C332 1.238 . S
O359 Cd323 2.273 . S
O359 C332 1.253 . S
O360 Cd323 2.268 1_554 S
O360 C349 1.238 . S
O361 Cd322 2.273 . S
O361 C349 1.253 . S
O362 Cd322 2.417 . S
O362 C350 1.239 . S
O363 Cd322 2.330 . S
O363 C350 1.230 . S
O364 Cd323 2.417 . S
O364 C357 1.239 . S
O365 Cd323 2.330 . S
O365 C357 1.230 . S
H366 C352 0.929 . S
H367 C356 0.930 1_556 S
H368 C326 0.931 1_556 S
H369 C328 0.930 . S
H370 C334 0.929 . S
H371 C336 0.931 1_554 S
H372 C343 0.931 1_554 S
H373 C345 0.930 . S
H374 C353 0.929 . S
H375 C355 0.931 1_556 S
Cd376 N379 2.334 1_655 S
Cd376 N405 2.304 . S
Cd376 O412 2.268 . S
Cd376 O415 2.273 1_655 S
Cd376 O416 2.417 . S
Cd376 O417 2.330 . S
Cd377 N392 2.304 1_455 S
Cd377 N396 2.334 . S
Cd377 O413 2.273 1_455 S
Cd377 O414 2.268 . S
Cd377 O418 2.417 . S
Cd377 O419 2.330 . S
C378 N379 1.332 . S
C378 C382 1.381 . S
C378 H384 0.931 . S
N379 Cd376 2.334 1_455 S
N379 C378 1.332 . S
N379 C383 1.328 . S
C380 C381 1.396 . S
C380 C383 1.378 . S
C380 H422 0.931 . S
C381 C380 1.396 . S
C381 C382 1.382 . S
C382 C378 1.381 . S
C382 C381 1.382 . S
C382 H423 0.930 . S
C383 N379 1.328 . S
C383 C380 1.378 . S
C383 H385 0.930 1_455 S
H384 C378 0.931 . S
H385 C383 0.930 1_655 S
C386 O412 1.238 . S
C386 O413 1.253 . S
C387 C388 1.379 . S
C387 N392 1.337 . S
C387 H393 0.929 . S
C388 C387 1.379 . S
C388 C389 1.380 . S
C388 H424 0.929 . S
C389 C388 1.380 . S
C389 C390 1.399 . S
C390 C389 1.399 . S
C390 C391 1.375 1_655 S
C390 H425 0.931 . S
C391 C390 1.375 1_455 S
C391 N392 1.339 1_455 S
C391 H394 0.930 . S
N392 Cd377 2.304 1_655 S
N392 C387 1.337 . S
N392 C391 1.339 1_655 S
H393 C387 0.929 . S
H394 C391 0.930 . S
C395 N396 1.332 . S
C395 C399 1.381 . S
C395 H401 0.931 . S
N396 Cd377 2.334 . S
N396 C395 1.332 . S
N396 C400 1.328 . S
C397 C398 1.396 . S
C397 C400 1.378 . S
C397 H426 0.931 . S
C398 C397 1.396 . S
C398 C399 1.382 . S
C399 C395 1.381 . S
C399 C398 1.382 . S
C399 H427 0.930 . S
C400 N396 1.328 . S
C400 C397 1.378 . S
C400 H402 0.930 . S
H401 C395 0.931 . S
H402 C400 0.930 . S
C403 O414 1.238 . S
C403 O415 1.253 . S
C404 O416 1.239 . S
C404 O417 1.230 . S
N405 Cd376 2.304 . S
N405 C406 1.337 . S
N405 C410 1.338 . S
C406 N405 1.337 . S
C406 C407 1.379 . S
C406 H420 0.929 . S
C407 C406 1.379 . S
C407 C408 1.380 . S
C407 H428 0.929 . S
C408 C407 1.380 . S
C408 C409 1.399 . S
C409 C408 1.399 . S
C409 C410 1.376 . S
C409 H429 0.931 . S
C410 N405 1.338 . S
C410 C409 1.376 . S
C410 H421 0.930 . S
C411 O418 1.239 . S
C411 O419 1.230 . S
O412 Cd376 2.268 . S
O412 C386 1.238 . S
O413 Cd377 2.273 1_655 S
O413 C386 1.253 . S
O414 Cd377 2.268 . S
O414 C403 1.238 . S
O415 Cd376 2.273 1_455 S
O415 C403 1.253 . S
O416 Cd376 2.417 . S
O416 C404 1.239 . S
O417 Cd376 2.330 . S
O417 C404 1.230 . S
O418 Cd377 2.417 . S
O418 C411 1.239 . S
O419 Cd377 2.330 . S
O419 C411 1.230 . S
H420 C406 0.929 . S
H421 C410 0.930 . S
H422 C380 0.931 . S
H423 C382 0.930 . S
H424 C388 0.929 . S
H425 C390 0.931 . S
H426 C397 0.931 . S
H427 C399 0.930 . S
H428 C407 0.929 . S
H429 C409 0.931 . S
Cd430 N433 2.334 . S
Cd430 N459 2.304 1_565 S
Cd430 O466 2.268 . S
Cd430 O469 2.273 1_565 S
Cd430 O470 2.417 . S
Cd430 O471 2.330 . S
Cd431 N446 2.304 . S
Cd431 N450 2.334 1_545 S
Cd431 O467 2.273 1_545 S
Cd431 O468 2.268 . S
Cd431 O472 2.417 . S
Cd431 O473 2.330 . S
C432 N433 1.332 . S
C432 C436 1.381 . S
C432 H438 0.931 . S
N433 Cd430 2.334 . S
N433 C432 1.332 . S
N433 C437 1.328 . S
C434 C435 1.396 . S
C434 C437 1.378 . S
C434 H476 0.931 . S
C435 C434 1.396 . S
C435 C436 1.382 . S
C436 C432 1.381 . S
C436 C435 1.382 . S
C436 H477 0.930 . S
C437 N433 1.328 . S
C437 C434 1.378 . S
C437 H439 0.930 . S
H438 C432 0.931 . S
H439 C437 0.930 . S
C440 O466 1.238 . S
C440 O467 1.253 . S
C441 C442 1.379 . S
C441 N446 1.337 . S
C441 H447 0.929 . S
C442 C441 1.379 . S
C442 C443 1.380 . S
C442 H478 0.929 . S
C443 C442 1.380 . S
C443 C444 1.399 . S
C444 C443 1.399 . S
C444 C445 1.376 . S
C444 H479 0.931 . S
C445 C444 1.376 . S
C445 N446 1.338 . S
C445 H448 0.930 . S
N446 Cd431 2.304 . S
N446 C441 1.337 . S
N446 C445 1.338 . S
H447 C441 0.929 . S
H448 C445 0.930 . S
C449 N450 1.332 . S
C449 C453 1.381 . S
C449 H455 0.931 . S
N450 Cd431 2.334 1_565 S
N450 C449 1.332 . S
N450 C454 1.328 . S
C451 C452 1.396 . S
C451 C454 1.378 . S
C451 H480 0.931 . S
C452 C451 1.396 . S
C452 C453 1.382 . S
C453 C449 1.381 . S
C453 C452 1.382 . S
C453 H481 0.930 . S
C454 N450 1.328 . S
C454 C451 1.378 . S
C454 H456 0.930 1_565 S
H455 C449 0.931 . S
H456 C454 0.930 1_545 S
C457 O468 1.238 . S
C457 O469 1.253 . S
C458 O470 1.239 . S
C458 O471 1.230 . S
N459 Cd430 2.304 1_545 S
N459 C460 1.337 . S
N459 C464 1.338 . S
C460 N459 1.337 . S
C460 C461 1.379 . S
C460 H474 0.929 . S
C461 C460 1.379 . S
C461 C462 1.380 . S
C461 H482 0.929 . S
C462 C461 1.380 . S
C462 C463 1.399 . S
C463 C462 1.399 . S
C463 C464 1.376 . S
C463 H483 0.931 . S
C464 N459 1.338 . S
C464 C463 1.376 . S
C464 H475 0.930 1_545 S
C465 O472 1.239 . S
C465 O473 1.230 . S
O466 Cd430 2.268 . S
O466 C440 1.238 . S
O467 Cd431 2.273 1_565 S
O467 C440 1.253 . S
O468 Cd431 2.268 . S
O468 C457 1.238 . S
O469 Cd430 2.273 1_545 S
O469 C457 1.253 . S
O470 Cd430 2.417 . S
O470 C458 1.239 . S
O471 Cd430 2.330 . S
O471 C458 1.230 . S
O472 Cd431 2.417 . S
O472 C465 1.239 . S
O473 Cd431 2.330 . S
O473 C465 1.230 . S
H474 C460 0.929 . S
H475 C464 0.930 1_565 S
H476 C434 0.931 . S
H477 C436 0.930 . S
H478 C442 0.929 . S
H479 C444 0.931 . S
H480 C451 0.931 . S
H481 C453 0.930 . S
H482 C461 0.929 . S
H483 C463 0.931 . S
C195 C9 1.522 . S
C173 C22 1.563 . S
C170 C49 0.742 . S
C61 C182 1.615 . S
C81 C165 1.512 . S
C187 C108 0.739 . S
C122 C192 1.667 . S
C148 C188 1.517 . S
C246 C18 2.907 . S
C39 C296 1.616 . S
C219 C58 2.924 . S
C295 C69 1.185 . S
C89 C224 1.151 . S
C290 C102 1.631 . S
C139 C249 1.636 . S
C142 C281 1.482 . S
C1 C273 1.519 . S
C98 C303 1.625 . S
C227 C119 2.958 . S
C278 C128 1.203 . S
C159 C236 2.905 . S
C41 C300 1.694 . S
C242 C78 1.640 . S
C28 C241 1.170 . S
C149 C357 1.522 . S
C82 C335 1.562 . S
C332 C109 0.741 . S
C344 C121 1.614 . S
C21 C327 1.513 . S
C349 C48 0.740 . S
C62 C354 1.667 . S
C8 C350 1.517 . S
C158 C408 2.907 . S
C458 C99 1.616 . S
C118 C381 2.924 . S
C129 C457 1.185 . S
C386 C29 1.151 . S
C42 C452 1.631 . S
C411 C79 1.635 . S
C443 C2 1.482 . S
C435 C141 1.519 . S
C38 C465 1.625 . S
C59 C389 2.957 . S
C440 C68 1.202 . S
C19 C398 2.905 . S
C101 C462 1.694 . S
C404 C138 1.640 . S
C403 C88 1.170 . S
