# Generated by pormake.
# Topology zzz, (3,6)-cn, num edge types: 1
# Building blocks:
#     Node 0, Type 0, BuildingBlock: WUSLED_clean_sbu_0, # of connection points: 3
#     Node 1, Type 0, BuildingBlock: WUSLED_clean_sbu_0, # of connection points: 3
#     Node 2, Type 0, BuildingBlock: WUSLED_clean_sbu_0, # of connection points: 3
#     Node 3, Type 0, BuildingBlock: WUSLED_clean_sbu_0, # of connection points: 3
#     Node 4, Type 0, BuildingBlock: WUSLED_clean_sbu_0, # of connection points: 3
#     Node 5, Type 0, BuildingBlock: WUSLED_clean_sbu_0, # of connection points: 3
#     Node 6, Type 0, BuildingBlock: WUSLED_clean_sbu_0, # of connection points: 3
#     Node 7, Type 0, BuildingBlock: WUSLED_clean_sbu_0, # of connection points: 3
#     Node 8, Type 1, BuildingBlock: CUKXOW_clean_sbu_0, # of connection points: 6
#     Node 9, Type 1, BuildingBlock: CUKXOW_clean_sbu_0, # of connection points: 6
#     Node 10, Type 1, BuildingBlock: CUKXOW_clean_sbu_0, # of connection points: 6
#     Node 11, Type 1, BuildingBlock: CUKXOW_clean_sbu_0, # of connection points: 6
#     Edge 12, Type (0, 1), BuildingBlock: KIFKEQ_clean_linker_1, # of connection points: 2
#     Edge 13, Type (0, 1), BuildingBlock: KIFKEQ_clean_linker_1, # of connection points: 2
#     Edge 14, Type (0, 1), BuildingBlock: KIFKEQ_clean_linker_1, # of connection points: 2
#     Edge 15, Type (0, 1), BuildingBlock: KIFKEQ_clean_linker_1, # of connection points: 2
#     Edge 16, Type (0, 1), BuildingBlock: KIFKEQ_clean_linker_1, # of connection points: 2
#     Edge 17, Type (0, 1), BuildingBlock: KIFKEQ_clean_linker_1, # of connection points: 2
#     Edge 18, Type (0, 1), BuildingBlock: KIFKEQ_clean_linker_1, # of connection points: 2
#     Edge 19, Type (0, 1), BuildingBlock: KIFKEQ_clean_linker_1, # of connection points: 2
#     Edge 20, Type (0, 1), BuildingBlock: KIFKEQ_clean_linker_1, # of connection points: 2
#     Edge 21, Type (0, 1), BuildingBlock: KIFKEQ_clean_linker_1, # of connection points: 2
#     Edge 22, Type (0, 1), BuildingBlock: KIFKEQ_clean_linker_1, # of connection points: 2
#     Edge 23, Type (0, 1), BuildingBlock: KIFKEQ_clean_linker_1, # of connection points: 2
#     Edge 24, Type (0, 1), BuildingBlock: KIFKEQ_clean_linker_1, # of connection points: 2
#     Edge 25, Type (0, 1), BuildingBlock: KIFKEQ_clean_linker_1, # of connection points: 2
#     Edge 26, Type (0, 1), BuildingBlock: KIFKEQ_clean_linker_1, # of connection points: 2
#     Edge 27, Type (0, 1), BuildingBlock: KIFKEQ_clean_linker_1, # of connection points: 2
#     Edge 28, Type (0, 1), BuildingBlock: KIFKEQ_clean_linker_1, # of connection points: 2
#     Edge 29, Type (0, 1), BuildingBlock: KIFKEQ_clean_linker_1, # of connection points: 2
#     Edge 30, Type (0, 1), BuildingBlock: KIFKEQ_clean_linker_1, # of connection points: 2
#     Edge 31, Type (0, 1), BuildingBlock: KIFKEQ_clean_linker_1, # of connection points: 2
#     Edge 32, Type (0, 1), BuildingBlock: KIFKEQ_clean_linker_1, # of connection points: 2
#     Edge 33, Type (0, 1), BuildingBlock: KIFKEQ_clean_linker_1, # of connection points: 2
#     Edge 34, Type (0, 1), BuildingBlock: KIFKEQ_clean_linker_1, # of connection points: 2
#     Edge 35, Type (0, 1), BuildingBlock: KIFKEQ_clean_linker_1, # of connection points: 2
# Relax obj value: 0.204
# Max RMSD: 0.223
# Mean RMSD: 0.182
data_MOF--net-zzz--node1-WUSLED_clean_sbu_0--node2-CUKXOW_clean_sbu_0--edge1-KIFKEQ_clean_linker_1
_symmetry_space_group_name_H-M    P1
_symmetry_Int_Tables_number       1
_symmetry_cell_setting            triclinic
loop_
_symmetry_equiv_pos_as_xyz
'x, y, z'
_cell_length_a     63.542186
_cell_length_b     61.351421
_cell_length_c     22.105175
_cell_angle_alpha  92.249598
_cell_angle_beta   88.51685
_cell_angle_gamma 95.595488
loop_
_atom_site_label
_atom_site_type_symbol
_atom_site_fract_x
_atom_site_fract_y
_atom_site_fract_z
_atom_type_partial_charge
C0 C 0.78799 0.46562 0.27311 0.0
C1 C 0.80632 0.45544 0.257 0.0
C2 C 0.82396 0.47118 0.34802 0.0
C3 C 0.82399 0.45803 0.29421 0.0
C4 C 0.80536 0.48099 0.36441 0.0
C5 C 0.78762 0.4782 0.3274 0.0
U6 U 0.76864 0.4624 0.113 0.0
O7 O 0.74116 0.44468 0.06708 0.0
O8 O 0.74627 0.48091 0.06655 0.0
C9 C 0.73503 0.46296 0.04743 0.0
C10 C 0.76992 0.46462 0.23161 0.0
C11 C 0.71296 0.46407 0.03036 0.0
C12 C 0.67623 0.47067 0.05106 0.0
C13 C 0.69663 0.46837 0.07195 0.0
C14 C 0.68851 0.46396 0.94791 0.0
C15 C 0.67211 0.46846 0.9887 0.0
C16 C 0.70868 0.46184 0.96853 0.0
C17 C 0.81654 0.46018 0.99819 0.0
C18 C 0.82114 0.46874 0.89173 0.0
C19 C 0.84994 0.45602 0.94637 0.0
C20 C 0.83727 0.45445 0.99839 0.0
C21 C 0.84216 0.46343 0.89284 0.0
C22 C 0.80825 0.46695 0.94435 0.0
C23 C 0.80531 0.4608 0.0569 0.0
O24 O 0.76939 0.48195 0.1988 0.0
O25 O 0.76573 0.44607 0.2003 0.0
O26 O 0.79324 0.44316 0.07203 0.0
O27 O 0.79749 0.47922 0.0734 0.0
H28 H 0.80714 0.44577 0.21509 0.0
H29 H 0.83774 0.4498 0.28037 0.0
H30 H 0.80468 0.49145 0.40484 0.0
H31 H 0.77375 0.48637 0.34047 0.0
H32 H 0.66374 0.47412 0.08328 0.0
H33 H 0.69968 0.47019 0.11995 0.0
H34 H 0.68582 0.46255 0.89963 0.0
H35 H 0.72114 0.45881 0.93573 0.0
H36 H 0.81494 0.47466 0.85091 0.0
H37 H 0.86625 0.45243 0.94883 0.0
H38 H 0.84401 0.44953 0.03971 0.0
H39 H 0.79221 0.4715 0.9436 0.0
C40 C 0.91133 0.80426 0.23114 0.0
C41 C 0.91176 0.82601 0.21286 0.0
C42 C 0.91994 0.83989 0.31609 0.0
C43 C 0.91599 0.84364 0.25493 0.0
C44 C 0.91859 0.818 0.33413 0.0
C45 C 0.91445 0.8005 0.2922 0.0
U46 U 0.9067 0.77814 0.06943 0.0
O47 O 0.92456 0.75215 0.02906 0.0
O48 O 0.88946 0.74706 0.03374 0.0
C49 C 0.90733 0.73942 0.01582 0.0
C50 C 0.90931 0.78523 0.18745 0.0
C51 C 0.90895 0.71637 0.9958 0.0
C52 C 0.92396 0.68166 0.00531 0.0
C53 C 0.91932 0.7021 0.03021 0.0
C54 C 0.90726 0.68927 0.91226 0.0
C55 C 0.91865 0.67533 0.94519 0.0
C56 C 0.9024 0.70951 0.93745 0.0
C57 C 0.90598 0.82676 0.953 0.0
C58 C 0.91851 0.83664 0.8521 0.0
C59 C 0.90559 0.86407 0.92166 0.0
C60 C 0.90092 0.84821 0.96445 0.0
C61 C 0.91525 0.85875 0.86577 0.0
C62 C 0.91414 0.82073 0.89583 0.0
C63 C 0.90588 0.81294 0.00559 0.0
O64 O 0.89121 0.78108 0.1597 0.0
O65 O 0.92576 0.78323 0.15125 0.0
O66 O 0.9235 0.80493 0.01941 0.0
O67 O 0.88847 0.80144 0.0236 0.0
H68 H 0.90943 0.82935 0.16586 0.0
H69 H 0.91697 0.86016 0.23888 0.0
H70 H 0.92099 0.81427 0.38075 0.0
H71 H 0.91416 0.78389 0.30736 0.0
H72 H 0.93276 0.67137 0.03194 0.0
H73 H 0.92457 0.7071 0.07534 0.0
H74 H 0.90265 0.68481 0.86625 0.0
H75 H 0.89444 0.72031 0.91006 0.0
H76 H 0.92556 0.83189 0.80905 0.0
H77 H 0.90319 0.88084 0.93485 0.0
H78 H 0.89484 0.85316 0.00864 0.0
H79 H 0.91813 0.80417 0.88619 0.0
C80 C 0.7201 0.02014 0.30601 0.0
C81 C 0.7 0.01949 0.28065 0.0
C82 C 0.68331 0.01803 0.38101 0.0
C83 C 0.6818 0.01837 0.31774 0.0
C84 C 0.70348 0.01908 0.40646 0.0
C85 C 0.72174 0.01999 0.36915 0.0
U86 U 0.74152 0.01658 0.14756 0.0
O87 O 0.76892 0.03291 0.09847 0.0
O88 O 0.76498 0.99667 0.10283 0.0
C89 C 0.77581 0.01407 0.08098 0.0
C90 C 0.73906 0.01996 0.26602 0.0
C91 C 0.79792 0.01319 0.06082 0.0
C92 C 0.83591 0.02089 0.07227 0.0
C93 C 0.81524 0.02098 0.09648 0.0
C94 C 0.82192 1.00477 0.97797 0.0
C95 C 0.83934 0.01284 0.01263 0.0
C96 C 0.80146 1.005 1.00181 0.0
C97 C 0.69562 0.0108 0.03212 0.0
C98 C 0.68693 0.02589 0.9369 0.0
C99 C 0.66488 0.99512 0.97726 0.0
C100 C 0.67831 0.99493 0.02595 0.0
C101 C 0.66858 0.01123 0.93411 0.0
C102 C 0.70052 0.02563 0.98568 0.0
C103 C 0.70544 0.0137 0.09179 0.0
O104 O 0.74078 1.00127 0.23602 0.0
O105 O 0.74285 0.03705 0.23184 0.0
O106 O 0.71652 0.03247 0.10467 0.0
O107 O 0.71354 0.99663 0.11246 0.0
H108 H 0.69836 0.0196 0.232 0.0
H109 H 0.6665 0.01787 0.29693 0.0
H110 H 0.70508 0.01873 0.45507 0.0
H111 H 0.73709 0.02033 0.3895 0.0
H112 H 0.84918 0.02718 0.09977 0.0
H113 H 0.81277 0.02734 0.14224 0.0
H114 H 0.8241 0.99887 0.9316 0.0
H115 H 0.78826 0.99916 0.97346 0.0
H116 H 0.68979 0.03863 0.90425 0.0
H117 H 0.65052 0.98402 0.97641 0.0
H118 H 0.67415 0.98348 0.06143 0.0
H119 H 0.71384 0.038 0.98926 0.0
C120 C 0.62257 0.72317 0.27282 0.0
C121 C 0.62211 0.70136 0.25069 0.0
C122 C 0.61313 0.68813 0.35227 0.0
C123 C 0.61757 0.68398 0.2902 0.0
C124 C 0.61434 0.71004 0.37416 0.0
C125 C 0.61903 0.7273 0.33493 0.0
U126 U 0.62719 0.75354 0.11871 0.0
O127 O 0.60873 0.78113 0.10277 0.0
O128 O 0.6435 0.78625 0.0983 0.0
C129 C 0.62551 0.79511 0.0955 0.0
C130 C 0.62474 0.74207 0.23272 0.0
C131 C 0.62356 0.81385 0.05636 0.0
C132 C 0.6164 0.85209 0.05383 0.0
C133 C 0.62192 0.83432 0.0856 0.0
C134 C 0.61532 0.82975 0.96116 0.0
C135 C 0.61238 0.84997 0.99152 0.0
C136 C 0.62067 0.81172 0.99346 0.0
C137 C 0.6269 0.70613 0.98489 0.0
C138 C 0.61333 0.69256 0.88769 0.0
C139 C 0.62488 0.66725 0.9585 0.0
C140 C 0.63082 0.68481 0.99869 0.0
C141 C 0.61499 0.67088 0.90405 0.0
C142 C 0.61903 0.71005 0.92819 0.0
C143 C 0.627 0.7232 0.03311 0.0
O144 O 0.64281 0.7465 0.20325 0.0
O145 O 0.60825 0.74453 0.20009 0.0
O146 O 0.60944 0.7302 0.05564 0.0
O147 O 0.64472 0.73264 0.05569 0.0
H148 H 0.62466 0.69778 0.20283 0.0
H149 H 0.61666 0.66731 0.27171 0.0
H150 H 0.61134 0.71389 0.42165 0.0
H151 H 0.61928 0.744 0.35298 0.0
H152 H 0.61468 0.86741 0.07866 0.0
H153 H 0.62399 0.83635 0.13409 0.0
H154 H 0.61239 0.82753 0.91317 0.0
H155 H 0.62176 0.79605 0.96987 0.0
H156 H 0.60615 0.69588 0.84552 0.0
H157 H 0.62628 0.65075 0.97263 0.0
H158 H 0.63677 0.68152 0.04258 0.0
H159 H 0.61597 0.72646 0.91687 0.0
C160 C 0.23201 0.55364 0.12126 0.0
C161 C 0.21141 0.55466 0.14496 0.0
C162 C 0.19731 0.55064 0.04317 0.0
C163 C 0.19421 0.55322 0.10624 0.0
C164 C 0.21802 0.54966 0.01976 0.0
C165 C 0.23521 0.5512 0.05853 0.0
U166 U 0.25335 0.55662 0.27987 0.0
O167 O 0.2794 0.54055 0.31684 0.0
O168 O 0.28044 0.57707 0.32043 0.0
C169 C 0.28965 0.5595 0.3326 0.0
C170 C 0.25016 0.55493 0.16166 0.0
C171 C 0.31057 0.56057 0.35936 0.0
C172 C 0.3466 0.55049 0.35694 0.0
C173 C 0.32732 0.55139 0.32837 0.0
C174 C 0.33247 0.56818 0.44714 0.0
C175 C 0.34903 0.55834 0.4171 0.0
C176 C 0.31342 0.56949 0.41817 0.0
C177 C 0.20567 0.55704 0.39932 0.0
C178 C 0.20049 0.55427 0.50841 0.0
C179 C 0.172 0.56357 0.44623 0.0
C180 C 0.18486 0.56221 0.39495 0.0
C181 C 0.1796 0.55972 0.50342 0.0
C182 C 0.21363 0.55312 0.45629 0.0
C183 C 0.21771 0.5558 0.3421 0.0
O184 O 0.25351 0.57338 0.19372 0.0
O185 O 0.25153 0.53751 0.19351 0.0
O186 O 0.22703 0.53801 0.328 0.0
O187 O 0.22808 0.57398 0.3236 0.0
H188 H 0.20862 0.55644 0.1934 0.0
H189 H 0.17845 0.55371 0.12578 0.0
H190 H 0.22094 0.54787 0.97143 0.0
H191 H 0.25103 0.55043 0.03955 0.0
H192 H 0.35921 0.54278 0.33321 0.0
H193 H 0.32533 0.54448 0.28278 0.0
H194 H 0.33412 0.57432 0.49357 0.0
H195 H 0.3006 0.57661 0.44261 0.0
H196 H 0.20653 0.55096 0.55216 0.0
H197 H 0.15579 0.56714 0.4409 0.0
H198 H 0.17841 0.56503 0.35132 0.0
H199 H 0.22974 0.54905 0.4603 0.0
C200 C 0.11859 0.22863 0.16663 0.0
C201 C 0.126 0.20823 0.17684 0.0
C202 C 0.109 0.19218 0.08458 0.0
C203 C 0.12135 0.19024 0.13609 0.0
C204 C 0.10206 0.21284 0.07452 0.0
C205 C 0.10685 0.23072 0.11477 0.0
U206 U 0.12436 0.25404 0.32869 0.0
O207 O 0.14052 0.28536 0.36618 0.0
O208 O 0.10555 0.27882 0.37202 0.0
C209 C 0.12239 0.29206 0.38572 0.0
C210 C 0.12129 0.24764 0.21057 0.0
C211 C 0.12013 0.31485 0.40746 0.0
C212 C 0.10699 0.35048 0.39555 0.0
C213 C 0.1129 0.33048 0.37023 0.0
C214 C 0.11621 0.33966 0.49481 0.0
C215 C 0.10778 0.35487 0.45858 0.0
C216 C 0.12238 0.31995 0.46946 0.0
C217 C 0.12521 0.20517 0.44338 0.0
C218 C 0.11044 0.1957 0.54241 0.0
C219 C 0.12433 0.16787 0.47619 0.0
C220 C 0.13027 0.18362 0.43378 0.0
C221 C 0.11338 0.17344 0.52983 0.0
C222 C 0.11606 0.21146 0.49902 0.0
C223 C 0.12561 0.21852 0.38967 0.0
O224 O 0.10503 0.24986 0.24729 0.0
O225 O 0.13954 0.2516 0.23774 0.0
O226 O 0.14288 0.23069 0.37362 0.0
O227 O 0.10794 0.22624 0.37515 0.0
H228 H 0.13504 0.20609 0.2167 0.0
H229 H 0.12732 0.1748 0.14528 0.0
H230 H 0.0922 0.21516 0.03657 0.0
H231 H 0.10079 0.24619 0.10614 0.0
H232 H 0.1006 0.36187 0.3664 0.0
H233 H 0.11096 0.32686 0.32224 0.0
H234 H 0.11729 0.34263 0.54331 0.0
H235 H 0.12783 0.3081 0.49907 0.0
H236 H 0.10254 0.20068 0.58395 0.0
H237 H 0.12667 0.15101 0.46398 0.0
H238 H 0.13714 0.17845 0.3908 0.0
H239 H 0.11206 0.2281 0.5073 0.0
C240 C 0.30419 0.02838 0.09459 0.0
C241 C 0.32405 0.02864 0.12123 0.0
C242 C 0.34133 0.02676 0.02166 0.0
C243 C 0.3424 0.02785 0.08522 0.0
C244 C 0.32137 0.02661 0.99514 0.0
C245 C 0.30297 0.02741 0.03134 0.0
U246 U 0.28165 0.0277 0.25147 0.0
O247 O 0.25693 0.04458 0.30086 0.0
O248 O 0.2548 1.00816 0.2946 0.0
C249 C 0.2469 0.02587 0.31705 0.0
C250 C 0.2849 0.02839 0.13327 0.0
C251 C 0.22502 0.02482 0.34015 0.0
C252 C 0.18695 0.02257 0.32789 0.0
C253 C 0.20749 0.02363 0.30232 0.0
C254 C 0.2016 0.02412 0.42838 0.0
C255 C 0.18398 0.02298 0.3912 0.0
C256 C 0.2219 0.02494 0.40304 0.0
C257 C 0.32931 0.02631 0.3611 0.0
C258 C 0.33425 0.03085 0.46978 0.0
C259 C 0.36198 0.018 0.40383 0.0
C260 C 0.34944 0.01918 0.35409 0.0
C261 C 0.35461 0.02393 0.46177 0.0
C262 C 0.32153 0.03211 0.41914 0.0
C263 C 0.31776 0.02768 0.30536 0.0
O264 O 0.28012 1.01027 0.16257 0.0
O265 O 0.28353 0.04619 0.16775 0.0
O266 O 0.30899 0.04575 0.29608 0.0
O267 O 0.30677 1.0097 0.28566 0.0
H268 H 0.32534 0.0292 0.17004 0.0
H269 H 0.3574 0.02764 0.10729 0.0
H270 H 0.31997 0.02599 0.94638 0.0
H271 H 0.2878 0.02715 0.00997 0.0
H272 H 0.17347 0.0217 0.29857 0.0
H273 H 0.20968 0.02353 0.25356 0.0
H274 H 0.19961 0.02418 0.47723 0.0
H275 H 0.23527 0.02569 0.43278 0.0
H276 H 0.32843 0.03546 0.5145 0.0
H277 H 0.37763 0.01257 0.39703 0.0
H278 H 0.35563 0.01467 0.30965 0.0
H279 H 0.30592 0.03766 0.42508 0.0
C280 C 0.39186 0.31025 0.13663 0.0
C281 C 0.38991 0.33219 0.15427 0.0
C282 C 0.40238 0.34399 0.05354 0.0
C283 C 0.39503 0.34891 0.11296 0.0
C284 C 0.40324 0.32182 0.03571 0.0
C285 C 0.3981 0.30523 0.07673 0.0
U286 U 0.38673 0.27673 0.28923 0.0
O287 O 0.3707 0.24323 0.30027 0.0
O288 O 0.40526 0.24855 0.29225 0.0
C289 C 0.38874 0.23434 0.30012 0.0
C290 C 0.38944 0.29212 0.1793 0.0
C291 C 0.39158 0.21698 0.34307 0.0
C292 C 0.39967 0.17936 0.35371 0.0
C293 C 0.39263 0.19566 0.319 0.0
C294 C 0.40334 0.20498 0.43953 0.0
C295 C 0.40567 0.18376 0.41429 0.0
C296 C 0.3966 0.2215 0.4041 0.0
C297 C 0.38909 0.32295 0.42071 0.0
C298 C 0.40392 0.34418 0.507 0.0
C299 C 0.38944 0.36258 0.42488 0.0
C300 C 0.38398 0.34225 0.39506 0.0
C301 C 0.40043 0.36383 0.47994 0.0
C302 C 0.39823 0.32406 0.4778 0.0
C303 C 0.38702 0.30136 0.38907 0.0
O304 O 0.4059 0.28932 0.21174 0.0
O305 O 0.37124 0.28743 0.20803 0.0
O306 O 0.3695 0.29466 0.36057 0.0
O307 O 0.4042 0.29528 0.36174 0.0
H308 H 0.3851 0.33643 0.20025 0.0
H309 H 0.39416 0.36576 0.12851 0.0
H310 H 0.40831 0.31722 0.99023 0.0
H311 H 0.39964 0.28839 0.06201 0.0
H312 H 0.40143 0.16362 0.33138 0.0
H313 H 0.38912 0.19187 0.27181 0.0
H314 H 0.4072 0.20909 0.48625 0.0
H315 H 0.39605 0.2379 0.42369 0.0
H316 H 0.41244 0.3442 0.54875 0.0
H317 H 0.3859 0.37733 0.40348 0.0
H318 H 0.37661 0.34169 0.35132 0.0
H319 H 0.4021 0.30926 0.49851 0.0
Tb320 Tb 1.00042 1.00299 0.64687 0.0
C321 C 0.04987 0.01164 0.64489 0.0
Tb322 Tb 0.02263 0.03225 0.75287 0.0
O323 O 0.01061 0.02799 0.58111 0.0
O324 O 0.00651 0.03651 0.67222 0.0
O325 O 0.03326 0.9984 0.62672 0.0
C326 C 0.04343 0.06476 0.81974 0.0
O327 O 0.04894 0.02673 0.6897 0.0
C328 C 0.00957 0.9914 0.77631 0.0
C329 C 0.97328 0.02285 0.75618 0.0
O330 O 0.04594 0.044 0.82218 0.0
O331 O 0.02918 0.06703 0.78006 0.0
O332 O 0.01171 1.0071 0.81772 0.0
O333 O 0.01671 0.99883 0.72696 0.0
O334 O 0.98967 0.03673 0.77304 0.0
O335 O 0.9745 1.0075 0.71217 0.0
C336 C 0.98065 0.96944 0.5816 0.0
O337 O 0.97428 0.98896 0.58862 0.0
O338 O 0.99809 0.96913 0.61059 0.0
C339 C 0.01346 0.04369 0.6223 0.0
Tb340 Tb 0.50468 0.03703 0.66262 0.0
C341 C 0.54472 0.01539 0.61548 0.0
Tb342 Tb 0.5163 0.99423 0.725 0.0
O343 O 0.53349 0.05491 0.69816 0.0
O344 O 0.51855 0.02839 0.74302 0.0
O345 O 0.52993 0.0281 0.60066 0.0
C346 C 0.53758 0.96524 0.78186 0.0
O347 O 0.5433 1.00316 0.66413 0.0
C348 C 0.48632 0.98847 0.6453 0.0
C349 C 0.47596 0.0163 0.77175 0.0
O350 O 0.53319 0.96448 0.7247 0.0
O351 O 0.52946 0.98206 0.80735 0.0
O352 O 0.48843 0.97503 0.68844 0.0
O353 O 0.50217 1.00258 0.64476 0.0
O354 O 0.4905 1.00315 0.7858 0.0
O355 O 0.47775 0.02911 0.7243 0.0
C356 C 0.48575 0.06852 0.60904 0.0
O357 O 0.49813 0.07151 0.65505 0.0
O358 O 0.48423 0.04784 0.59293 0.0
C359 C 0.53481 0.04178 0.74231 0.0
Tb360 Tb 0.52589 0.52618 0.64876 0.0
C361 C 0.47616 0.52765 0.65119 0.0
Tb362 Tb 0.49707 0.50141 0.75268 0.0
O363 O 0.51348 0.50272 0.57734 0.0
O364 O 0.51154 0.49472 0.66794 0.0
O365 O 0.49493 0.53619 0.63096 0.0
C366 C 0.47367 0.46933 0.81054 0.0
O367 O 0.47328 0.51349 0.69564 0.0
C368 C 0.5175 0.53947 0.78316 0.0
C369 C 0.54672 0.49931 0.74912 0.0
O370 O 0.47144 0.49022 0.81719 0.0
O371 O 0.48897 0.46673 0.77167 0.0
O372 O 0.50976 0.52555 0.82299 0.0
O373 O 0.51091 0.53275 0.73216 0.0
O374 O 0.52793 0.49061 0.76883 0.0
O375 O 0.54956 0.51381 0.70562 0.0
C376 C 0.54859 0.55941 0.59392 0.0
O377 O 0.55084 0.53864 0.58386 0.0
O378 O 0.5337 0.56123 0.63458 0.0
C379 C 0.50513 0.48862 0.61596 0.0
Tb380 Tb 0.99497 0.51213 0.64417 0.0
C381 C 0.02906 0.47831 0.6482 0.0
Tb382 Tb 0.0257 0.51583 0.75414 0.0
O383 O 0.02095 0.52393 0.58182 0.0
O384 O 0.02164 0.53205 0.674 0.0
O385 O 0.01223 0.48392 0.62028 0.0
C386 C 0.06213 0.52461 0.81162 0.0
O387 O 0.03677 0.48848 0.69848 0.0
C388 C 0.98806 0.4962 0.77349 0.0
C389 C 0.99034 0.54823 0.75318 0.0
O390 O 0.0492 0.50698 0.81756 0.0
O391 O 0.0543 0.53742 0.77456 0.0
O392 O 0.99957 0.50581 0.81685 0.0
O393 O 0.99886 0.49607 0.72502 0.0
O394 O 0.00839 0.54405 0.77763 0.0
O395 O 0.98192 0.53697 0.70535 0.0
C396 C 0.95916 0.5036 0.58277 0.0
O397 O 0.9696 0.52282 0.58961 0.0
O398 O 0.96917 0.48924 0.60882 0.0
C399 C 0.03242 0.53308 0.6257 0.0
H400 H 0.16842 0.05384 0.46568 0.0
H401 H 0.15242 0.98971 0.38347 0.0
H402 H 0.13565 0.05057 0.5255 0.0
H403 H 0.12017 0.98551 0.44609 0.0
H404 H 0.05549 0.99148 0.53427 0.0
H405 H 0.08666 0.99491 0.46871 0.0
H406 H 0.12078 0.03356 0.60918 0.0
H407 H 0.08908 0.03122 0.67326 0.0
C408 C 0.15768 0.03909 0.4603 0.0
C409 C 0.16275 0.02207 0.42002 0.0
C410 C 0.13907 0.03699 0.49527 0.0
C411 C 0.12533 0.01756 0.49192 0.0
C412 C 0.13016 1.00081 0.44979 0.0
C413 C 0.14863 1.00314 0.41381 0.0
C414 C 0.0697 1.00056 0.55144 0.0
C415 C 0.06977 0.01115 0.60901 0.0
C416 C 0.08769 1.00249 0.51371 0.0
C417 C 0.10633 0.01475 0.53298 0.0
C418 C 0.1066 0.02453 0.59177 0.0
C419 C 0.08848 0.02294 0.62906 0.0
H420 H 0.43522 0.18986 0.50495 0.0
H421 H 0.39898 0.13844 0.40264 0.0
H422 H 0.45263 0.16281 0.55536 0.0
H423 H 0.41832 0.11156 0.44651 0.0
H424 H 0.44895 0.06221 0.55098 0.0
H425 H 0.42766 0.08906 0.51179 0.0
H426 H 0.47681 0.14023 0.56196 0.0
H427 H 0.49615 0.11302 0.60731 0.0
C428 C 0.43086 0.17279 0.49288 0.0
C429 C 0.4156 0.16672 0.44868 0.0
C430 C 0.44142 0.15699 0.5211 0.0
C431 C 0.43766 0.13443 0.5051 0.0
C432 C 0.422 0.12841 0.46166 0.0
C433 C 0.41099 0.14415 0.43492 0.0
C434 C 0.45476 0.07928 0.55392 0.0
C435 C 0.47392 0.08545 0.5824 0.0
C436 C 0.44277 0.09494 0.53062 0.0
C437 C 0.45013 0.11748 0.53254 0.0
C438 C 0.46982 0.12346 0.56033 0.0
C439 C 0.48127 0.10775 0.58594 0.0
H440 H 0.35011 0.53383 0.51518 0.0
H441 H 0.3901 0.57372 0.39398 0.0
H442 H 0.38078 0.52632 0.57138 0.0
H443 H 0.42093 0.5678 0.45271 0.0
H444 H 0.4747 0.53653 0.53273 0.0
H445 H 0.44428 0.54369 0.47569 0.0
H446 H 0.40548 0.53949 0.63964 0.0
H447 H 0.4359 0.5306 0.69551 0.0
C448 C 0.36557 0.54124 0.50134 0.0
C449 C 0.36789 0.55438 0.45075 0.0
C450 C 0.38318 0.53716 0.53385 0.0
C451 C 0.40349 0.5466 0.51738 0.0
C452 C 0.40568 0.5599 0.46647 0.0
C453 C 0.38805 0.56349 0.43297 0.0
C454 C 0.45965 0.53723 0.55656 0.0
C455 C 0.45762 0.53312 0.61856 0.0
C456 C 0.44216 0.5415 0.52387 0.0
C457 C 0.42224 0.5423 0.55269 0.0
C458 C 0.42038 0.53855 0.61527 0.0
C459 C 0.43782 0.53366 0.64765 0.0
H460 H 0.08043 0.3542 0.55509 0.0
H461 H 0.11205 0.39828 0.42733 0.0
H462 H 0.06182 0.38351 0.59942 0.0
H463 H 0.09464 0.42854 0.47458 0.0
H464 H 0.04637 0.47582 0.53456 0.0
H465 H 0.06627 0.44708 0.4895 0.0
H466 H 0.05924 0.41297 0.65802 0.0
H467 H 0.03865 0.44137 0.70073 0.0
C468 C 0.08376 0.37041 0.5373 0.0
C469 C 0.09775 0.37383 0.48761 0.0
C470 C 0.07313 0.3875 0.56323 0.0
C471 C 0.07647 0.40892 0.5415 0.0
C472 C 0.09099 0.41241 0.49238 0.0
C473 C 0.10124 0.39505 0.46533 0.0
C474 C 0.04885 0.46187 0.56117 0.0
C475 C 0.04068 0.46053 0.62062 0.0
C476 C 0.06062 0.44544 0.5358 0.0
C477 C 0.06452 0.42713 0.56923 0.0
C478 C 0.05639 0.42621 0.62939 0.0
C479 C 0.04468 0.44266 0.65458 0.0
H480 H 0.86766 0.04877 1.00182 0.0
H481 H 0.85858 0.97953 0.95688 0.0
H482 H 0.89982 0.05195 0.93909 0.0
H483 H 0.8914 0.98218 0.89696 0.0
H484 H 0.93631 0.99664 0.73969 0.0
H485 H 0.90495 0.99429 0.80497 0.0
H486 H 0.93462 0.04531 0.92387 0.0
H487 H 0.96545 0.04845 0.85679 0.0
C488 C 0.87296 0.03412 0.97984 0.0
C489 C 0.86071 0.01393 0.98402 0.0
C490 C 0.89142 0.03588 0.94379 0.0
C491 C 0.89823 0.01737 0.91198 0.0
C492 C 0.88643 0.99694 0.91907 0.0
C493 C 0.86777 0.99531 0.95412 0.0
C494 C 0.93601 1.00762 0.77923 0.0
C495 C 0.95341 0.02283 0.79269 0.0
C496 C 0.91809 1.00604 0.81738 0.0
C497 C 0.91718 0.01944 0.87045 0.0
C498 C 0.9345 0.03489 0.88322 0.0
C499 C 0.9523 0.03665 0.84468 0.0
H500 H 0.5815 0.87477 0.03434 0.0
H501 H 0.62257 0.86654 0.87855 0.0
H502 H 0.56518 0.90294 0.98507 0.0
H503 H 0.6071 0.89595 0.82943 0.0
H504 H 0.56108 0.93418 0.7295 0.0
H505 H 0.5805 0.9079 0.77896 0.0
H506 H 0.56348 0.93652 0.95347 0.0
H507 H 0.54323 0.96182 0.90324 0.0
C508 C 0.58737 0.87932 0.9897 0.0
C509 C 0.60337 0.86822 0.96055 0.0
C510 C 0.57803 0.8958 0.96113 0.0
C511 C 0.58454 0.90224 0.90242 0.0
C512 C 0.60103 0.89142 0.8738 0.0
C513 C 0.61011 0.87452 0.90214 0.0
C514 C 0.56137 0.93464 0.77851 0.0
C515 C 0.55024 0.94982 0.81242 0.0
C516 C 0.57281 0.91966 0.80727 0.0
C517 C 0.57359 0.91942 0.87108 0.0
C518 C 0.56296 0.93532 0.9046 0.0
C519 C 0.55142 0.95017 0.87575 0.0
H520 H 0.65017 0.50459 1.00027 0.0
H521 H 0.64764 0.43935 0.91916 0.0
H522 H 0.61917 0.51171 0.94313 0.0
H523 H 0.61718 0.44642 0.86098 0.0
H524 H 0.5526 0.46033 0.79714 0.0
H525 H 0.58113 0.45235 0.86189 0.0
H526 H 0.61104 0.51808 0.8405 0.0
H527 H 0.58219 0.52606 0.77655 0.0
C528 C 0.64265 0.49164 0.97123 0.0
C529 C 0.65117 0.47142 0.96412 0.0
C530 C 0.62513 0.49579 0.93772 0.0
C531 C 0.6158 0.47974 0.89669 0.0
C532 C 0.62379 0.45913 0.89226 0.0
C533 C 0.64127 0.45505 0.9255 0.0
C534 C 0.56539 0.47298 0.80601 0.0
C535 C 0.56531 0.49372 0.78156 0.0
C536 C 0.58178 0.46842 0.84303 0.0
C537 C 0.59837 0.48461 0.85697 0.0
C538 C 0.59839 0.50531 0.83158 0.0
C539 C 0.58207 0.50979 0.79405 0.0
H540 H 0.93611 0.67129 0.83152 0.0
H541 H 0.91965 0.63434 0.99095 0.0
H542 H 0.95222 0.64024 0.78516 0.0
H543 H 0.93545 0.60288 0.94399 0.0
H544 H 0.98826 0.56159 0.87248 0.0
H545 H 0.96925 0.59113 0.91778 0.0
H546 H 0.94685 0.6045 0.74128 0.0
H547 H 0.96607 0.57512 0.69634 0.0
C548 C 0.93554 0.65635 0.85628 0.0
C549 C 0.92663 0.65539 0.91517 0.0
C550 C 0.94481 0.63845 0.82958 0.0
C551 C 0.94535 0.61895 0.86077 0.0
C552 C 0.93581 0.61774 0.91899 0.0
C553 C 0.92665 0.63575 0.94591 0.0
C554 C 0.97935 0.57095 0.84344 0.0
C555 C 0.97876 0.56612 0.78083 0.0
C556 C 0.96822 0.58774 0.86946 0.0
C557 C 0.95642 0.60033 0.83339 0.0
C558 C 0.95587 0.59538 0.77062 0.0
C559 C 0.96678 0.57842 0.74479 0.0
H560 H 0.07422 0.17321 0.5843 0.0
H561 H 0.126 0.13294 0.55461 0.0
H562 H 0.05173 0.14172 0.61684 0.0
H563 H 0.10317 0.10109 0.58694 0.0
H564 H 0.04795 0.04796 0.54643 0.0
H565 H 0.0746 0.07922 0.5401 0.0
H566 H 0.04138 0.11338 0.68224 0.0
H567 H 0.01414 0.08247 0.68552 0.0
C568 C 0.08113 0.15782 0.58668 0.0
C569 C 0.1019 0.15566 0.56544 0.0
C570 C 0.06808 0.13959 0.60526 0.0
C571 C 0.07543 0.11869 0.60312 0.0
C572 C 0.09679 0.11684 0.58741 0.0
C573 C 0.10991 0.13515 0.56904 0.0
C574 C 0.0463 0.06227 0.5758 0.0
C575 C 0.02905 0.06291 0.61655 0.0
C576 C 0.06178 0.08004 0.5731 0.0
C577 C 0.06026 0.09887 0.61091 0.0
C578 C 0.04301 0.09928 0.65206 0.0
C579 C 0.02749 0.08155 0.65438 0.0
H580 H 0.38848 0.05214 0.48595 0.0
H581 H 0.35458 0.99194 0.54308 0.0
H582 H 0.42002 0.04235 0.5323 0.0
H583 H 0.38644 0.98179 0.58978 0.0
H584 H 0.44739 0.97497 0.6908 0.0
H585 H 0.41358 0.98535 0.65855 0.0
H586 H 0.4452 0.01846 0.50725 0.0
H587 H 0.47906 1.00847 0.54127 0.0
C588 C 0.3876 0.03731 0.51139 0.0
C589 C 0.3692 0.02282 0.51153 0.0
C590 C 0.40588 0.03141 0.53694 0.0
C591 C 0.40617 0.01101 0.56356 0.0
C592 C 0.38698 0.99761 0.56951 0.0
C593 C 0.3686 1.00349 0.54352 0.0
C594 C 0.44701 0.98425 0.65022 0.0
C595 C 0.4658 0.99155 0.61938 0.0
C596 C 0.4276 0.99022 0.63166 0.0
C597 C 0.4266 1.00337 0.58135 0.0
C598 C 0.44538 1.00919 0.54789 0.0
C599 C 0.46478 1.00334 0.56685 0.0
H600 H 0.4177 0.39877 0.41608 0.0
H601 H 0.40815 0.37694 0.59935 0.0
H602 H 0.44103 0.42967 0.45233 0.0
H603 H 0.43315 0.407 0.63493 0.0
H604 H 0.46971 0.47358 0.68232 0.0
H605 H 0.44225 0.4451 0.6533 0.0
H606 H 0.47601 0.4344 0.48403 0.0
H607 H 0.50315 0.4634 0.51325 0.0
C608 C 0.42023 0.40066 0.46429 0.0
C609 C 0.41116 0.38498 0.50439 0.0
C610 C 0.4341 0.41822 0.485 0.0
C611 C 0.43964 0.42047 0.54624 0.0
C612 C 0.42945 0.40574 0.5873 0.0
C613 C 0.41523 0.38831 0.56668 0.0
C614 C 0.47156 0.46484 0.63976 0.0
C615 C 0.48887 0.47046 0.60072 0.0
C616 C 0.45564 0.44855 0.62269 0.0
C617 C 0.4567 0.43749 0.56594 0.0
C618 C 0.47429 0.44292 0.52743 0.0
C619 C 0.49001 0.45939 0.54432 0.0
H620 H 0.16689 0.52643 0.57829 0.0
H621 H 0.15764 0.59328 0.54353 0.0
H622 H 0.13312 0.522 0.63026 0.0
H623 H 0.12348 0.58924 0.59196 0.0
H624 H 0.05351 0.5733 0.61438 0.0
H625 H 0.09116 0.58287 0.61193 0.0
H626 H 0.10042 0.51412 0.63097 0.0
H627 H 0.06339 0.50551 0.63021 0.0
C628 C 0.15769 0.54039 0.58332 0.0
C629 C 0.16442 0.55992 0.55509 0.0
C630 C 0.1377 0.53777 0.61163 0.0
C631 C 0.12371 0.55444 0.61049 0.0
C632 C 0.13238 0.57517 0.59111 0.0
C633 C 0.15244 0.57782 0.56379 0.0
C634 C 0.06391 0.56044 0.61798 0.0
C635 C 0.05547 0.53869 0.62273 0.0
C636 C 0.08585 0.56581 0.61682 0.0
C637 C 0.10009 0.54948 0.62088 0.0
C638 C 0.09105 0.52772 0.62774 0.0
C639 C 0.06924 0.52247 0.62763 0.0
H640 H 0.95299 0.8604 0.80297 0.0
H641 H 0.90026 0.89841 0.84446 0.0
H642 H 0.97375 0.89285 0.76927 0.0
H643 H 0.92135 0.93122 0.8111 0.0
H644 H 0.97591 0.9849 0.85459 0.0
H645 H 0.94997 0.95295 0.85822 0.0
H646 H 0.98234 0.92262 0.70728 0.0
H647 H 0.00912 0.95395 0.70742 0.0
C648 C 0.94548 0.87549 0.8029 0.0
C649 C 0.92509 0.8768 0.82817 0.0
C650 C 0.95751 0.89427 0.78364 0.0
C651 C 0.94947 0.91483 0.7892 0.0
C652 C 0.92827 0.91576 0.80809 0.0
C653 C 0.91617 0.89691 0.82707 0.0
C654 C 0.97755 0.97125 0.82277 0.0
C655 C 0.99443 0.97178 0.78057 0.0
C656 C 0.96244 0.95313 0.82386 0.0
C657 C 0.96395 0.93518 0.78273 0.0
C658 C 0.98075 0.93602 0.73993 0.0
C659 C 0.99596 0.95402 0.73947 0.0
H660 H 0.6397 0.03785 0.96995 0.0
H661 H 0.65693 0.99523 0.82071 0.0
H662 H 0.60701 0.0437 0.91996 0.0
H663 H 0.62407 1.00152 0.76933 0.0
H664 H 0.57419 0.05 0.69256 0.0
H665 H 0.60754 0.04038 0.7327 0.0
H666 H 0.57377 0.0136 0.88912 0.0
H667 H 0.54038 0.02297 0.84861 0.0
C668 C 0.63654 0.03007 0.92582 0.0
C669 C 0.65068 0.01633 0.89853 0.0
C670 C 0.61787 0.03324 0.89764 0.0
C671 C 0.61314 0.0229 0.84138 0.0
C672 C 0.62755 1.00961 0.81286 0.0
C673 C 0.64624 1.00612 0.84179 0.0
C674 C 0.57396 0.04209 0.73554 0.0
C675 C 0.55488 0.0373 0.76798 0.0
C676 C 0.59291 0.03634 0.75789 0.0
C677 C 0.59302 0.02624 0.81361 0.0
C678 C 0.57393 0.02137 0.84589 0.0
C679 C 0.55496 0.02677 0.82302 0.0
H680 H 0.57516 0.67008 0.86204 0.0
H681 H 0.62684 0.62967 0.87451 0.0
H682 H 0.55226 0.63833 0.82674 0.0
H683 H 0.60357 0.59767 0.83899 0.0
H684 H 0.55484 0.55193 0.7227 0.0
H685 H 0.57957 0.5838 0.7434 0.0
H686 H 0.53917 0.60358 0.89131 0.0
H687 H 0.51447 0.57091 0.87149 0.0
C688 C 0.58184 0.65456 0.85562 0.0
C689 C 0.60284 0.65239 0.8713 0.0
C690 C 0.56861 0.63635 0.83613 0.0
C691 C 0.5761 0.61562 0.83137 0.0
C692 C 0.59746 0.61356 0.84276 0.0
C693 C 0.61071 0.6318 0.8631 0.0
C694 C 0.55109 0.56288 0.75961 0.0
C695 C 0.5326 0.55887 0.79537 0.0
C696 C 0.56539 0.58117 0.77154 0.0
C697 C 0.5612 0.5961 0.81872 0.0
C698 C 0.54265 0.59226 0.85437 0.0
C699 C 0.52862 0.57361 0.84331 0.0
H700 H 0.86534 0.43432 0.83309 0.0
H701 H 0.85428 0.5026 0.84289 0.0
H702 H 0.89994 0.44359 0.78649 0.0
H703 H 0.88886 0.51205 0.79454 0.0
H704 H 0.96054 0.5182 0.84245 0.0
H705 H 0.92208 0.51148 0.84641 0.0
H706 H 0.92507 0.45862 0.71206 0.0
H707 H 0.9637 0.46527 0.70929 0.0
C708 C 0.86992 0.45121 0.82214 0.0
C709 C 0.85739 0.46778 0.84225 0.0
C710 C 0.88979 0.45658 0.79553 0.0
C711 C 0.89741 0.47865 0.78851 0.0
C712 C 0.8836 0.49495 0.8009 0.0
C713 C 0.86368 0.48954 0.82765 0.0
C714 C 0.95291 0.50515 0.81394 0.0
C715 C 0.96492 0.49206 0.77607 0.0
C716 C 0.93087 0.50154 0.81522 0.0
C717 C 0.92045 0.4846 0.77913 0.0
C718 C 0.93259 0.47179 0.74035 0.0
C719 C 0.95464 0.47556 0.73875 0.0
H720 H 0.10263 0.19122 0.96112 0.0
H721 H 0.10005 0.1487 0.11287 0.0
H722 H 0.08853 0.16076 0.89631 0.0
H723 H 0.08584 0.11823 0.04818 0.0
H724 H 0.07129 0.06219 0.91133 0.0
H725 H 0.08935 0.09221 0.97162 0.0
H726 H 0.05841 0.1387 0.87146 0.0
H727 H 0.0412 0.10865 0.81006 0.0
C728 C 0.09898 0.17542 0.98105 0.0
C729 C 0.10233 0.17276 0.04306 0.0
C730 C 0.09078 0.15779 0.94354 0.0
C731 C 0.08561 0.13678 0.96652 0.0
C732 C 0.08971 0.13394 0.028 0.0
C733 C 0.09795 0.15158 0.06552 0.0
C734 C 0.0685 0.07886 0.90209 0.0
C735 C 0.05474 0.08301 0.85611 0.0
C736 C 0.07873 0.09618 0.93708 0.0
C737 C 0.07542 0.11819 0.92729 0.0
C738 C 0.06177 0.12219 0.88043 0.0
C739 C 0.05165 0.10488 0.84537 0.0
H740 H 0.38043 0.04909 0.03844 0.0
H741 H 0.34673 1.00128 0.91858 0.0
H742 H 0.4129 0.04559 0.97887 0.0
H743 H 0.37919 0.99805 0.85862 0.0
H744 H 0.43648 0.01953 0.73194 0.0
H745 H 0.40379 0.0211 0.79135 0.0
H746 H 0.43844 0.01724 0.95551 0.0
H747 H 0.47116 0.01456 0.89518 0.0
C748 C 0.37995 0.03773 0.99963 0.0
C749 C 0.36094 0.02538 0.98358 0.0
C750 C 0.39858 0.03572 0.96555 0.0
C751 C 0.39867 0.02141 0.91437 0.0
C752 C 0.37961 1.00933 0.89762 0.0
C753 C 0.36099 0.01126 0.93187 0.0
C754 C 0.43705 0.01858 0.78061 0.0
C755 C 0.45629 0.01657 0.80891 0.0
C756 C 0.41832 0.01954 0.81468 0.0
C757 C 0.4185 0.01931 0.87817 0.0
C758 C 0.43781 0.01748 0.90663 0.0
C759 C 0.45649 0.0158 0.87223 0.0
H760 H 0.38697 0.38389 0.03682 0.0
H761 H 0.43663 0.3446 0.97517 0.0
H762 H 0.40191 0.41343 0.97369 0.0
H763 H 0.45199 0.37407 0.91414 0.0
H764 H 0.47273 0.42571 0.78258 0.0
H765 H 0.45334 0.39539 0.83359 0.0
H766 H 0.42781 0.44136 0.9626 0.0
H767 H 0.44626 0.47166 0.90831 0.0
C768 C 0.40115 0.38156 0.01008 0.0
C769 C 0.41059 0.36178 0.01179 0.0
C770 C 0.40987 0.39864 0.97381 0.0
C771 C 0.42851 0.39663 0.93862 0.0
C772 C 0.43753 0.37652 0.93929 0.0
C773 C 0.42868 0.35942 0.97487 0.0
C774 C 0.46281 0.4293 0.82162 0.0
C775 C 0.46113 0.4511 0.8416 0.0
C776 C 0.45176 0.41182 0.85155 0.0
C777 C 0.43899 0.41552 0.90345 0.0
C778 C 0.43711 0.43751 0.92263 0.0
C779 C 0.44788 0.45503 0.89181 0.0
H780 H 0.16318 0.57465 0.04702 0.0
H781 H 0.18985 0.52169 0.94689 0.0
H782 H 0.13167 0.56912 0.98544 0.0
H783 H 0.15853 0.51649 0.88421 0.0
H784 H 0.08723 0.49496 0.85171 0.0
H785 H 0.12143 0.50238 0.90044 0.0
H786 H 0.11818 0.57189 0.88342 0.0
H787 H 0.08404 0.56433 0.83414 0.0
C788 C 0.16235 0.5619 0.01161 0.0
C789 C 0.17892 0.54845 1.00231 0.0
C790 C 0.14439 0.55889 0.97584 0.0
C791 C 0.1425 0.54226 0.93013 0.0
C792 C 0.15936 0.52925 0.91956 0.0
C793 C 0.1774 0.53236 0.95512 0.0
C794 C 0.09386 0.5118 0.85856 0.0
C795 C 0.08292 0.52909 0.84016 0.0
C796 C 0.11354 0.51607 0.88582 0.0
C797 C 0.1225 0.53775 0.8962 0.0
C798 C 0.11162 0.55503 0.87671 0.0
C799 C 0.09212 0.55072 0.84842 0.0
H800 H 0.9071 0.88179 0.32445 0.0
H801 H 0.94811 0.84034 0.40865 0.0
H802 H 0.92047 0.91242 0.38992 0.0
H803 H 0.95977 0.86997 0.47814 0.0
H804 H 0.9966 0.9309 0.5528 0.0
H805 H 0.98109 0.90007 0.49263 0.0
H806 H 0.92437 0.93304 0.4754 0.0
H807 H 0.94107 0.96476 0.53204 0.0
C808 C 0.91888 0.87911 0.35717 0.0
C809 C 0.92663 0.85846 0.36012 0.0
C810 C 0.92638 0.89673 0.39591 0.0
C811 C 0.94172 0.89426 0.43966 0.0
C812 C 0.94863 0.87322 0.44427 0.0
C813 C 0.94148 0.85581 0.4048 0.0
C814 C 0.98084 0.93159 0.5358 0.0
C815 C 0.97019 0.9504 0.54657 0.0
C816 C 0.97165 0.91362 0.50165 0.0
C817 C 0.95116 0.91352 0.47823 0.0
C818 C 0.94029 0.93231 0.49075 0.0
C819 C 0.94978 0.95057 0.52387 0.0
H820 H 0.67414 0.04357 0.48089 0.0
H821 H 0.64837 0.98891 0.36814 0.0
H822 H 0.64065 0.04265 0.53901 0.0
H823 H 0.61503 0.98795 0.42597 0.0
H824 H 0.56585 0.98037 0.58261 0.0
H825 H 0.60014 0.98032 0.52974 0.0
H826 H 0.60313 0.05062 0.51697 0.0
H827 H 0.56852 0.05053 0.56897 0.0
C828 C 0.66139 0.03124 0.46898 0.0
C829 C 0.66376 0.01645 0.41967 0.0
C830 C 0.64219 0.03083 0.50185 0.0
C831 C 0.62513 0.01537 0.48664 0.0
C832 C 0.62786 1.00005 0.43883 0.0
C833 C 0.64689 1.00067 0.40549 0.0
C834 C 0.57376 0.99576 0.5678 0.0
C835 C 0.56445 0.01541 0.57884 0.0
C836 C 0.59338 0.99575 0.53768 0.0
C837 C 0.60436 0.01547 0.51927 0.0
C838 C 0.59509 0.03518 0.53085 0.0
C839 C 0.57519 0.03512 0.55977 0.0
H840 H 0.62915 0.64828 0.36132 0.0
H841 H 0.5808 0.68663 0.43665 0.0
H842 H 0.61627 0.61813 0.42503 0.0
H843 H 0.56699 0.65637 0.49751 0.0
H844 H 0.5487 0.60278 0.62524 0.0
H845 H 0.5666 0.63397 0.57451 0.0
H846 H 0.59194 0.58975 0.44004 0.0
H847 H 0.57511 0.55868 0.49407 0.0
C848 C 0.61563 0.65019 0.39119 0.0
C849 C 0.60596 0.66987 0.39334 0.0
C850 C 0.60803 0.63277 0.42772 0.0
C851 C 0.59018 0.63423 0.46662 0.0
C852 C 0.5809 0.65426 0.46948 0.0
C853 C 0.58877 0.67179 0.43394 0.0
C854 C 0.5583 0.59978 0.5851 0.0
C855 C 0.56039 0.57824 0.56347 0.0
C856 C 0.56848 0.61778 0.55527 0.0
C857 C 0.58072 0.61485 0.50183 0.0
C858 C 0.58305 0.59309 0.48115 0.0
C859 C 0.57319 0.57509 0.51184 0.0
H860 H 0.86546 0.47537 0.30832 0.0
H861 H 0.82706 0.47698 0.47252 0.0
H862 H 0.89719 0.48241 0.36758 0.0
H863 H 0.85909 0.48477 0.53168 0.0
H864 H 0.9227 0.52338 0.60029 0.0
H865 H 0.88916 0.51463 0.54744 0.0
H866 H 0.91704 0.46366 0.44183 0.0
H867 H 0.95016 0.4721 0.49581 0.0
C868 C 0.86368 0.47693 0.35708 0.0
C869 C 0.84348 0.47537 0.38525 0.0
C870 C 0.88198 0.48109 0.39113 0.0
C871 C 0.88073 0.48407 0.45443 0.0
C872 C 0.86062 0.48274 0.48292 0.0
C873 C 0.84223 0.47832 0.44883 0.0
C874 C 0.92155 0.51039 0.56553 0.0
C875 C 0.939 0.49863 0.5511 0.0
C876 C 0.90235 0.50523 0.53572 0.0
C877 C 0.90048 0.4886 0.48986 0.0
C878 C 0.918 0.47673 0.47631 0.0
C879 C 0.93694 0.4815 0.50719 0.0
loop_
_geom_bond_atom_site_label_1
_geom_bond_atom_site_label_2
_geom_bond_distance
_geom_bond_site_symmetry_2
_ccdc_geom_bond_type
C0 C1 1.264 . S
C0 C5 1.479 . S
C0 C10 1.465 . S
C1 C0 1.264 . S
C1 C3 1.339 . S
C1 H28 0.931 . S
C2 C3 1.395 . S
C2 C4 1.320 . S
C3 C1 1.339 . S
C3 C2 1.395 . S
C3 H29 0.929 . S
C4 C2 1.320 . S
C4 C5 1.405 . S
C4 H30 0.930 . S
C5 C0 1.479 . S
C5 C4 1.405 . S
C5 H31 0.931 . S
U6 O7 2.454 . S
U6 O8 2.458 . S
U6 C9 2.984 . S
U6 C10 2.847 . S
U6 C23 2.882 1_554 S
U6 O24 2.441 . S
U6 O25 2.420 . S
U6 O26 2.455 1_554 S
U6 O27 2.449 . S
O7 U6 2.454 . S
O7 C9 1.353 . S
O8 U6 2.458 . S
O8 C9 1.286 . S
C9 U6 2.984 . S
C9 O7 1.353 . S
C9 O8 1.286 . S
C9 C11 1.363 . S
C10 C0 1.465 . S
C10 U6 2.847 . S
C10 O24 1.249 . S
C10 O25 1.202 . S
C11 C9 1.363 . S
C11 C13 1.408 . S
C11 C16 1.342 1_554 S
C12 C13 1.310 . S
C12 C15 1.461 1_554 S
C12 H32 0.932 . S
C13 C11 1.408 . S
C13 C12 1.310 . S
C13 H33 0.930 . S
C14 C15 1.474 . S
C14 C16 1.285 . S
C14 H34 0.929 . S
C15 C12 1.461 1_556 S
C15 C14 1.474 . S
C16 C11 1.342 1_556 S
C16 C14 1.285 . S
C16 H35 0.930 . S
C17 C20 1.424 . S
C17 C22 1.245 . S
C17 C23 1.428 . S
C18 C21 1.260 . S
C18 C22 1.477 . S
C18 H36 0.932 . S
C19 C20 1.384 . S
C19 C21 1.479 . S
C19 H37 0.929 . S
C20 C17 1.424 . S
C20 C19 1.384 . S
C20 H38 0.928 . S
C21 C18 1.260 . S
C21 C19 1.479 . S
C22 C17 1.245 . S
C22 C18 1.477 . S
C22 H39 0.932 . S
C23 U6 2.882 1_556 S
C23 C17 1.428 . S
C23 O26 1.301 . S
C23 O27 1.282 1_556 S
O24 U6 2.441 . S
O24 C10 1.249 . S
O25 U6 2.420 . S
O25 C10 1.202 . S
O26 U6 2.455 1_556 S
O26 C23 1.301 . S
O27 U6 2.449 . S
O27 C23 1.282 1_554 S
H28 C1 0.931 . S
H29 C3 0.929 . S
H30 C4 0.930 . S
H31 C5 0.931 . S
H32 C12 0.932 . S
H33 C13 0.930 . S
H34 C14 0.929 . S
H35 C16 0.930 . S
H36 C18 0.932 . S
H37 C19 0.929 . S
H38 C20 0.928 . S
H39 C22 0.932 . S
C40 C41 1.264 . S
C40 C45 1.479 . S
C40 C50 1.465 . S
C41 C40 1.264 . S
C41 C43 1.339 . S
C41 H68 0.931 . S
C42 C43 1.395 . S
C42 C44 1.320 . S
C43 C41 1.339 . S
C43 C42 1.395 . S
C43 H69 0.929 . S
C44 C42 1.320 . S
C44 C45 1.405 . S
C44 H70 0.930 . S
C45 C40 1.479 . S
C45 C44 1.405 . S
C45 H71 0.931 . S
U46 O47 2.454 . S
U46 O48 2.458 1_554 S
U46 C49 2.984 . S
U46 C50 2.847 . S
U46 C63 2.882 1_554 S
U46 O64 2.441 . S
U46 O65 2.420 . S
U46 O66 2.455 1_554 S
U46 O67 2.449 . S
O47 U46 2.454 . S
O47 C49 1.353 . S
O48 U46 2.458 1_556 S
O48 C49 1.286 1_556 S
C49 U46 2.984 . S
C49 O47 1.353 . S
C49 O48 1.286 1_554 S
C49 C51 1.363 1_554 S
C50 C40 1.465 . S
C50 U46 2.847 . S
C50 O64 1.249 . S
C50 O65 1.202 . S
C51 C49 1.363 1_556 S
C51 C53 1.408 1_556 S
C51 C56 1.342 . S
C52 C53 1.310 . S
C52 C55 1.461 1_554 S
C52 H72 0.932 . S
C53 C51 1.408 1_554 S
C53 C52 1.310 . S
C53 H73 0.930 . S
C54 C55 1.474 . S
C54 C56 1.285 . S
C54 H74 0.929 . S
C55 C52 1.461 1_556 S
C55 C54 1.474 . S
C56 C51 1.342 . S
C56 C54 1.285 . S
C56 H75 0.930 . S
C57 C60 1.424 . S
C57 C62 1.245 . S
C57 C63 1.428 . S
C58 C61 1.260 . S
C58 C62 1.477 . S
C58 H76 0.932 . S
C59 C60 1.384 . S
C59 C61 1.479 . S
C59 H77 0.929 . S
C60 C57 1.424 . S
C60 C59 1.384 . S
C60 H78 0.928 . S
C61 C58 1.260 . S
C61 C59 1.479 . S
C62 C57 1.245 . S
C62 C58 1.477 . S
C62 H79 0.932 . S
C63 U46 2.882 1_556 S
C63 C57 1.428 . S
C63 O66 1.301 . S
C63 O67 1.282 1_556 S
O64 U46 2.441 . S
O64 C50 1.249 . S
O65 U46 2.420 . S
O65 C50 1.202 . S
O66 U46 2.455 1_556 S
O66 C63 1.301 . S
O67 U46 2.449 . S
O67 C63 1.282 1_554 S
H68 C41 0.931 . S
H69 C43 0.929 . S
H70 C44 0.930 . S
H71 C45 0.931 . S
H72 C52 0.932 . S
H73 C53 0.930 . S
H74 C54 0.929 . S
H75 C56 0.930 . S
H76 C58 0.932 . S
H77 C59 0.929 . S
H78 C60 0.928 . S
H79 C62 0.932 . S
C80 C81 1.264 . S
C80 C85 1.479 . S
C80 C90 1.465 . S
C81 C80 1.264 . S
C81 C83 1.339 . S
C81 H108 0.931 . S
C82 C83 1.395 . S
C82 C84 1.320 . S
C83 C81 1.339 . S
C83 C82 1.395 . S
C83 H109 0.929 . S
C84 C82 1.320 . S
C84 C85 1.405 . S
C84 H110 0.917 1_545 S
C85 C80 1.479 . S
C85 C84 1.405 . S
C85 H111 0.931 . S
U86 O87 2.454 . S
U86 O88 2.458 . S
U86 C89 2.984 . S
U86 C90 2.847 . S
U86 C103 2.882 . S
U86 O104 2.441 . S
U86 O105 2.420 . S
U86 O106 2.455 . S
U86 O107 2.449 . S
O87 U86 2.454 . S
O87 C89 1.353 . S
O88 U86 2.458 . S
O88 C89 1.286 . S
C89 U86 2.984 . S
C89 O87 1.353 . S
C89 O88 1.286 . S
C89 C91 1.363 . S
C90 C80 1.465 . S
C90 U86 2.847 . S
C90 O104 1.249 . S
C90 O105 1.202 . S
C91 C89 1.363 . S
C91 C93 1.408 . S
C91 C96 1.329 1_554 S
C92 C93 1.310 . S
C92 C95 1.461 . S
C92 H112 0.932 . S
C93 C91 1.408 . S
C93 C92 1.310 . S
C93 H113 0.930 . S
C94 C95 1.475 1_566 S
C94 C96 1.288 1_565 S
C94 H114 0.930 . S
C95 C92 1.461 . S
C95 C94 1.475 1_544 S
C96 C91 1.329 1_556 S
C96 C94 1.288 1_545 S
C96 H115 0.938 . S
C97 C100 1.424 . S
C97 C102 1.245 . S
C97 C103 1.428 1_556 S
C98 C101 1.260 . S
C98 C102 1.477 . S
C98 H116 0.932 . S
C99 C100 1.384 . S
C99 C101 1.479 . S
C99 H117 0.929 . S
C100 C97 1.424 . S
C100 C99 1.384 . S
C100 H118 0.928 1_556 S
C101 C98 1.260 . S
C101 C99 1.479 . S
C102 C97 1.245 . S
C102 C98 1.477 . S
C102 H119 0.932 . S
C103 U86 2.882 . S
C103 C97 1.428 1_554 S
C103 O106 1.301 . S
C103 O107 1.282 . S
O104 U86 2.441 . S
O104 C90 1.249 . S
O105 U86 2.420 . S
O105 C90 1.202 . S
O106 U86 2.455 . S
O106 C103 1.301 . S
O107 U86 2.449 . S
O107 C103 1.282 . S
H108 C81 0.931 . S
H109 C83 0.929 . S
H110 C84 0.917 1_565 S
H111 C85 0.931 . S
H112 C92 0.932 . S
H113 C93 0.930 . S
H114 C94 0.930 . S
H115 C96 0.938 . S
H116 C98 0.932 . S
H117 C99 0.929 . S
H118 C100 0.928 1_554 S
H119 C102 0.932 . S
C120 C121 1.264 . S
C120 C125 1.479 . S
C120 C130 1.465 . S
C121 C120 1.264 . S
C121 C123 1.339 . S
C121 H148 0.931 . S
C122 C123 1.395 . S
C122 C124 1.320 . S
C123 C121 1.339 . S
C123 C122 1.395 . S
C123 H149 0.929 . S
C124 C122 1.320 . S
C124 C125 1.405 . S
C124 H150 0.930 . S
C125 C120 1.479 . S
C125 C124 1.405 . S
C125 H151 0.931 . S
U126 O127 2.454 . S
U126 O128 2.458 . S
U126 C129 2.984 . S
U126 C130 2.847 . S
U126 C143 2.894 . S
U126 O144 2.441 . S
U126 O145 2.420 . S
U126 O146 2.455 1_554 S
U126 O147 2.449 . S
O127 U126 2.454 . S
O127 C129 1.353 . S
O128 U126 2.458 . S
O128 C129 1.286 . S
C129 U126 2.984 . S
C129 O127 1.353 . S
C129 O128 1.286 . S
C129 C131 1.363 . S
C130 C120 1.465 . S
C130 U126 2.847 . S
C130 O144 1.249 . S
C130 O145 1.202 . S
C131 C129 1.363 . S
C131 C133 1.408 . S
C131 C136 1.342 1_554 S
C132 C133 1.310 . S
C132 C135 1.461 . S
C132 H152 0.932 . S
C133 C131 1.408 . S
C133 C132 1.310 . S
C133 H153 0.930 . S
C134 C135 1.474 1_556 S
C134 C136 1.285 . S
C134 H154 0.929 . S
C135 C132 1.461 . S
C135 C134 1.474 1_554 S
C136 C131 1.342 1_556 S
C136 C134 1.285 . S
C136 H155 0.930 . S
C137 C140 1.424 . S
C137 C142 1.245 . S
C137 C143 1.416 1_556 S
C138 C141 1.260 . S
C138 C142 1.477 . S
C138 H156 0.932 . S
C139 C140 1.384 . S
C139 C141 1.479 . S
C139 H157 0.929 . S
C140 C137 1.424 . S
C140 C139 1.384 . S
C140 H158 0.928 1_556 S
C141 C138 1.260 . S
C141 C139 1.479 . S
C142 C137 1.245 . S
C142 C138 1.477 . S
C142 H159 0.932 . S
C143 U126 2.894 . S
C143 C137 1.416 1_554 S
C143 O146 1.298 1_554 S
C143 O147 1.298 . S
O144 U126 2.441 . S
O144 C130 1.249 . S
O145 U126 2.420 . S
O145 C130 1.202 . S
O146 U126 2.455 1_556 S
O146 C143 1.298 1_556 S
O147 U126 2.449 . S
O147 C143 1.298 . S
H148 C121 0.931 . S
H149 C123 0.929 . S
H150 C124 0.930 . S
H151 C125 0.931 . S
H152 C132 0.932 . S
H153 C133 0.930 . S
H154 C134 0.929 . S
H155 C136 0.930 . S
H156 C138 0.932 . S
H157 C139 0.929 . S
H158 C140 0.928 1_554 S
H159 C142 0.932 . S
C160 C161 1.264 . S
C160 C165 1.479 . S
C160 C170 1.465 . S
C161 C160 1.264 . S
C161 C163 1.339 . S
C161 H188 0.931 . S
C162 C163 1.395 . S
C162 C164 1.320 . S
C163 C161 1.339 . S
C163 C162 1.395 . S
C163 H189 0.929 . S
C164 C162 1.320 . S
C164 C165 1.405 . S
C164 H190 0.930 1_554 S
C165 C160 1.479 . S
C165 C164 1.405 . S
C165 H191 0.931 . S
U166 O167 2.454 . S
U166 O168 2.458 . S
U166 C169 2.984 . S
U166 C170 2.847 . S
U166 C183 2.882 . S
U166 O184 2.441 . S
U166 O185 2.420 . S
U166 O186 2.455 . S
U166 O187 2.449 . S
O167 U166 2.454 . S
O167 C169 1.353 . S
O168 U166 2.458 . S
O168 C169 1.286 . S
C169 U166 2.984 . S
C169 O167 1.353 . S
C169 O168 1.286 . S
C169 C171 1.363 . S
C170 C160 1.465 . S
C170 U166 2.847 . S
C170 O184 1.249 . S
C170 O185 1.202 . S
C171 C169 1.363 . S
C171 C173 1.408 . S
C171 C176 1.342 . S
C172 C173 1.310 . S
C172 C175 1.461 . S
C172 H192 0.932 . S
C173 C171 1.408 . S
C173 C172 1.310 . S
C173 H193 0.930 . S
C174 C175 1.474 . S
C174 C176 1.285 . S
C174 H194 0.929 . S
C175 C172 1.461 . S
C175 C174 1.474 . S
C176 C171 1.342 . S
C176 C174 1.285 . S
C176 H195 0.930 . S
C177 C180 1.424 . S
C177 C182 1.245 . S
C177 C183 1.428 . S
C178 C181 1.260 . S
C178 C182 1.477 . S
C178 H196 0.932 . S
C179 C180 1.384 . S
C179 C181 1.479 . S
C179 H197 0.929 . S
C180 C177 1.424 . S
C180 C179 1.384 . S
C180 H198 0.928 . S
C181 C178 1.260 . S
C181 C179 1.479 . S
C182 C177 1.245 . S
C182 C178 1.477 . S
C182 H199 0.932 . S
C183 U166 2.882 . S
C183 C177 1.428 . S
C183 O186 1.301 . S
C183 O187 1.282 . S
O184 U166 2.441 . S
O184 C170 1.249 . S
O185 U166 2.420 . S
O185 C170 1.202 . S
O186 U166 2.455 . S
O186 C183 1.301 . S
O187 U166 2.449 . S
O187 C183 1.282 . S
H188 C161 0.931 . S
H189 C163 0.929 . S
H190 C164 0.930 1_556 S
H191 C165 0.931 . S
H192 C172 0.932 . S
H193 C173 0.930 . S
H194 C174 0.929 . S
H195 C176 0.930 . S
H196 C178 0.932 . S
H197 C179 0.929 . S
H198 C180 0.928 . S
H199 C182 0.932 . S
C200 C201 1.264 . S
C200 C205 1.479 . S
C200 C210 1.465 . S
C201 C200 1.264 . S
C201 C203 1.339 . S
C201 H228 0.931 . S
C202 C203 1.395 . S
C202 C204 1.320 . S
C203 C201 1.339 . S
C203 C202 1.395 . S
C203 H229 0.929 . S
C204 C202 1.320 . S
C204 C205 1.405 . S
C204 H230 0.930 . S
C205 C200 1.479 . S
C205 C204 1.405 . S
C205 H231 0.931 . S
U206 O207 2.454 . S
U206 O208 2.458 . S
U206 C209 2.984 . S
U206 C210 2.847 . S
U206 C223 2.882 . S
U206 O224 2.441 . S
U206 O225 2.420 . S
U206 O226 2.455 . S
U206 O227 2.449 . S
O207 U206 2.454 . S
O207 C209 1.353 . S
O208 U206 2.458 . S
O208 C209 1.286 . S
C209 U206 2.984 . S
C209 O207 1.353 . S
C209 O208 1.286 . S
C209 C211 1.363 . S
C210 C200 1.465 . S
C210 U206 2.847 . S
C210 O224 1.249 . S
C210 O225 1.202 . S
C211 C209 1.363 . S
C211 C213 1.408 . S
C211 C216 1.342 . S
C212 C213 1.310 . S
C212 C215 1.461 . S
C212 H232 0.932 . S
C213 C211 1.408 . S
C213 C212 1.310 . S
C213 H233 0.930 . S
C214 C215 1.474 . S
C214 C216 1.285 . S
C214 H234 0.929 . S
C215 C212 1.461 . S
C215 C214 1.474 . S
C216 C211 1.342 . S
C216 C214 1.285 . S
C216 H235 0.930 . S
C217 C220 1.424 . S
C217 C222 1.245 . S
C217 C223 1.428 . S
C218 C221 1.260 . S
C218 C222 1.477 . S
C218 H236 0.932 . S
C219 C220 1.384 . S
C219 C221 1.479 . S
C219 H237 0.929 . S
C220 C217 1.424 . S
C220 C219 1.384 . S
C220 H238 0.928 . S
C221 C218 1.260 . S
C221 C219 1.479 . S
C222 C217 1.245 . S
C222 C218 1.477 . S
C222 H239 0.932 . S
C223 U206 2.882 . S
C223 C217 1.428 . S
C223 O226 1.301 . S
C223 O227 1.282 . S
O224 U206 2.441 . S
O224 C210 1.249 . S
O225 U206 2.420 . S
O225 C210 1.202 . S
O226 U206 2.455 . S
O226 C223 1.301 . S
O227 U206 2.449 . S
O227 C223 1.282 . S
H228 C201 0.931 . S
H229 C203 0.929 . S
H230 C204 0.930 . S
H231 C205 0.931 . S
H232 C212 0.932 . S
H233 C213 0.930 . S
H234 C214 0.929 . S
H235 C216 0.930 . S
H236 C218 0.932 . S
H237 C219 0.929 . S
H238 C220 0.928 . S
H239 C222 0.932 . S
C240 C241 1.264 . S
C240 C245 1.479 . S
C240 C250 1.465 . S
C241 C240 1.264 . S
C241 C243 1.339 . S
C241 H268 0.931 . S
C242 C243 1.395 1_556 S
C242 C244 1.320 . S
C243 C241 1.339 . S
C243 C242 1.395 1_554 S
C243 H269 0.929 . S
C244 C242 1.320 . S
C244 C245 1.405 1_556 S
C244 H270 0.930 . S
C245 C240 1.479 . S
C245 C244 1.405 1_554 S
C245 H271 0.931 . S
U246 O247 2.454 . S
U246 O248 2.458 . S
U246 C249 2.984 . S
U246 C250 2.847 . S
U246 C263 2.882 . S
U246 O264 2.441 . S
U246 O265 2.420 . S
U246 O266 2.455 . S
U246 O267 2.449 . S
O247 U246 2.454 . S
O247 C249 1.353 . S
O248 U246 2.458 . S
O248 C249 1.286 . S
C249 U246 2.984 . S
C249 O247 1.353 . S
C249 O248 1.286 . S
C249 C251 1.363 . S
C250 C240 1.465 . S
C250 U246 2.847 . S
C250 O264 1.249 . S
C250 O265 1.202 . S
C251 C249 1.363 . S
C251 C253 1.408 . S
C251 C256 1.342 . S
C252 C253 1.310 . S
C252 C255 1.461 . S
C252 H272 0.932 . S
C253 C251 1.408 . S
C253 C252 1.310 . S
C253 H273 0.930 . S
C254 C255 1.474 . S
C254 C256 1.285 . S
C254 H274 0.929 . S
C255 C252 1.461 . S
C255 C254 1.474 . S
C256 C251 1.342 . S
C256 C254 1.285 . S
C256 H275 0.930 . S
C257 C260 1.424 . S
C257 C262 1.245 . S
C257 C263 1.428 . S
C258 C261 1.260 . S
C258 C262 1.477 . S
C258 H276 0.932 . S
C259 C260 1.384 . S
C259 C261 1.479 . S
C259 H277 0.929 . S
C260 C257 1.424 . S
C260 C259 1.384 . S
C260 H278 0.928 . S
C261 C258 1.260 . S
C261 C259 1.479 . S
C262 C257 1.245 . S
C262 C258 1.477 . S
C262 H279 0.932 . S
C263 U246 2.882 . S
C263 C257 1.428 . S
C263 O266 1.301 . S
C263 O267 1.282 . S
O264 U246 2.441 . S
O264 C250 1.249 . S
O265 U246 2.420 . S
O265 C250 1.202 . S
O266 U246 2.455 . S
O266 C263 1.301 . S
O267 U246 2.449 . S
O267 C263 1.282 . S
H268 C241 0.931 . S
H269 C243 0.929 . S
H270 C244 0.930 . S
H271 C245 0.931 . S
H272 C252 0.932 . S
H273 C253 0.930 . S
H274 C254 0.929 . S
H275 C256 0.930 . S
H276 C258 0.932 . S
H277 C259 0.929 . S
H278 C260 0.928 . S
H279 C262 0.932 . S
C280 C281 1.264 . S
C280 C285 1.479 . S
C280 C290 1.465 . S
C281 C280 1.264 . S
C281 C283 1.339 . S
C281 H308 0.931 . S
C282 C283 1.394 1_556 S
C282 C284 1.320 1_556 S
C283 C281 1.339 . S
C283 C282 1.394 1_554 S
C283 H309 0.929 . S
C284 C282 1.320 1_554 S
C284 C285 1.405 . S
C284 H310 0.930 1_554 S
C285 C280 1.479 . S
C285 C284 1.405 . S
C285 H311 0.931 . S
U286 O287 2.454 . S
U286 O288 2.458 . S
U286 C289 2.984 . S
U286 C290 2.847 . S
U286 C303 2.882 . S
U286 O304 2.441 . S
U286 O305 2.420 . S
U286 O306 2.455 . S
U286 O307 2.449 . S
O287 U286 2.454 . S
O287 C289 1.353 . S
O288 U286 2.458 . S
O288 C289 1.286 . S
C289 U286 2.984 . S
C289 O287 1.353 . S
C289 O288 1.286 . S
C289 C291 1.363 . S
C290 C280 1.465 . S
C290 U286 2.847 . S
C290 O304 1.249 . S
C290 O305 1.202 . S
C291 C289 1.363 . S
C291 C293 1.408 . S
C291 C296 1.342 . S
C292 C293 1.310 . S
C292 C295 1.461 . S
C292 H312 0.932 . S
C293 C291 1.408 . S
C293 C292 1.310 . S
C293 H313 0.930 . S
C294 C295 1.474 . S
C294 C296 1.285 . S
C294 H314 0.929 . S
C295 C292 1.461 . S
C295 C294 1.474 . S
C296 C291 1.342 . S
C296 C294 1.285 . S
C296 H315 0.930 . S
C297 C300 1.424 . S
C297 C302 1.245 . S
C297 C303 1.428 . S
C298 C301 1.260 . S
C298 C302 1.477 . S
C298 H316 0.932 . S
C299 C300 1.384 . S
C299 C301 1.479 . S
C299 H317 0.929 . S
C300 C297 1.424 . S
C300 C299 1.384 . S
C300 H318 0.928 . S
C301 C298 1.260 . S
C301 C299 1.479 . S
C302 C297 1.245 . S
C302 C298 1.477 . S
C302 H319 0.932 . S
C303 U286 2.882 . S
C303 C297 1.428 . S
C303 O306 1.301 . S
C303 O307 1.282 . S
O304 U286 2.441 . S
O304 C290 1.249 . S
O305 U286 2.420 . S
O305 C290 1.202 . S
O306 U286 2.455 . S
O306 C303 1.301 . S
O307 U286 2.449 . S
O307 C303 1.282 . S
H308 C281 0.931 . S
H309 C283 0.929 . S
H310 C284 0.930 1_556 S
H311 C285 0.931 . S
H312 C292 0.932 . S
H313 C293 0.930 . S
H314 C294 0.929 . S
H315 C296 0.930 . S
H316 C298 0.932 . S
H317 C299 0.929 . S
H318 C300 0.928 . S
H319 C302 0.932 . S
Tb320 O323 2.479 1_655 S
Tb320 O324 2.612 1_655 S
Tb320 O325 2.368 1_645 S
Tb320 O333 2.328 1_545 S
Tb320 O335 2.362 . S
Tb320 O337 2.409 1_545 S
Tb320 O338 2.487 1_545 S
C321 O325 1.253 . S
C321 O327 1.263 . S
Tb322 O324 2.343 . S
Tb322 O327 2.346 1_545 S
Tb322 O330 2.427 . S
Tb322 O331 2.513 . S
Tb322 O332 2.453 1_545 S
Tb322 O333 2.596 1_445 S
Tb322 O334 2.374 1_455 S
O323 Tb320 2.479 1_455 S
O323 C339 1.245 . S
O324 Tb320 2.612 1_455 S
O324 Tb322 2.343 . S
O324 C339 1.259 . S
O325 Tb320 2.368 1_465 S
O325 C321 1.253 . S
C326 O330 1.275 . S
C326 O331 1.246 . S
O327 C321 1.263 . S
O327 Tb322 2.346 1_565 S
C328 O332 1.245 1_655 S
C328 O333 1.259 . S
C329 O334 1.250 . S
C329 O335 1.263 . S
O330 Tb322 2.427 . S
O330 C326 1.275 . S
O331 Tb322 2.513 . S
O331 C326 1.246 . S
O332 Tb322 2.453 1_565 S
O332 C328 1.245 1_455 S
O333 Tb320 2.328 1_565 S
O333 Tb322 2.596 1_665 S
O333 C328 1.259 . S
O334 Tb322 2.374 1_655 S
O334 C329 1.250 . S
O335 Tb320 2.362 . S
O335 C329 1.263 . S
C336 O337 1.275 . S
C336 O338 1.246 . S
O337 Tb320 2.409 1_565 S
O337 C336 1.275 . S
O338 Tb320 2.487 1_565 S
O338 C336 1.246 . S
C339 O323 1.245 . S
C339 O324 1.259 . S
Tb340 O343 2.453 . S
Tb340 O344 2.596 . S
Tb340 O345 2.374 . S
Tb340 O353 2.343 . S
Tb340 O355 2.353 . S
Tb340 O357 2.427 . S
Tb340 O358 2.513 . S
C341 O345 1.251 . S
C341 O347 1.263 1_545 S
Tb342 O344 2.343 1_565 S
Tb342 O347 2.353 . S
Tb342 O350 2.427 . S
Tb342 O351 2.513 . S
Tb342 O352 2.453 . S
Tb342 O353 2.596 1_565 S
Tb342 O354 2.374 . S
O343 Tb340 2.453 . S
O343 C359 1.245 . S
O344 Tb340 2.596 . S
O344 Tb342 2.343 1_545 S
O344 C359 1.259 . S
O345 Tb340 2.374 . S
O345 C341 1.251 . S
C346 O350 1.275 . S
C346 O351 1.246 . S
O347 C341 1.263 1_565 S
O347 Tb342 2.353 . S
C348 O352 1.245 . S
C348 O353 1.259 1_565 S
C349 O354 1.250 1_545 S
C349 O355 1.263 . S
O350 Tb342 2.427 . S
O350 C346 1.275 . S
O351 Tb342 2.513 . S
O351 C346 1.246 . S
O352 Tb342 2.453 . S
O352 C348 1.245 . S
O353 Tb340 2.343 . S
O353 Tb342 2.596 1_545 S
O353 C348 1.259 1_545 S
O354 Tb342 2.374 . S
O354 C349 1.250 1_565 S
O355 Tb340 2.353 . S
O355 C349 1.263 . S
C356 O357 1.275 . S
C356 O358 1.246 . S
O357 Tb340 2.427 . S
O357 C356 1.275 . S
O358 Tb340 2.513 . S
O358 C356 1.246 . S
C359 O343 1.245 . S
C359 O344 1.259 . S
Tb360 O363 2.453 . S
Tb360 O364 2.596 . S
Tb360 O365 2.374 . S
Tb360 O373 2.343 . S
Tb360 O375 2.353 . S
Tb360 O377 2.427 . S
Tb360 O378 2.513 . S
C361 O365 1.251 . S
C361 O367 1.263 . S
Tb362 O364 2.343 . S
Tb362 O367 2.353 . S
Tb362 O370 2.427 . S
Tb362 O371 2.513 . S
Tb362 O372 2.453 . S
Tb362 O373 2.596 . S
Tb362 O374 2.374 . S
O363 Tb360 2.453 . S
O363 C379 1.245 . S
O364 Tb360 2.596 . S
O364 Tb362 2.343 . S
O364 C379 1.259 . S
O365 Tb360 2.374 . S
O365 C361 1.251 . S
C366 O370 1.275 . S
C366 O371 1.246 . S
O367 C361 1.263 . S
O367 Tb362 2.353 . S
C368 O372 1.245 . S
C368 O373 1.259 . S
C369 O374 1.250 . S
C369 O375 1.263 . S
O370 Tb362 2.427 . S
O370 C366 1.275 . S
O371 Tb362 2.513 . S
O371 C366 1.246 . S
O372 Tb362 2.453 . S
O372 C368 1.245 . S
O373 Tb360 2.343 . S
O373 Tb362 2.596 . S
O373 C368 1.259 . S
O374 Tb362 2.374 . S
O374 C369 1.250 . S
O375 Tb360 2.353 . S
O375 C369 1.263 . S
C376 O377 1.275 . S
C376 O378 1.246 . S
O377 Tb360 2.427 . S
O377 C376 1.275 . S
O378 Tb360 2.513 . S
O378 C376 1.246 . S
C379 O363 1.245 . S
C379 O364 1.259 . S
Tb380 O383 2.453 1_655 S
Tb380 O384 2.596 1_655 S
Tb380 O385 2.374 1_655 S
Tb380 O393 2.343 . S
Tb380 O395 2.353 . S
Tb380 O397 2.427 . S
Tb380 O398 2.513 . S
C381 O385 1.251 . S
C381 O387 1.263 . S
Tb382 O384 2.343 . S
Tb382 O387 2.353 . S
Tb382 O390 2.427 . S
Tb382 O391 2.513 . S
Tb382 O392 2.453 1_455 S
Tb382 O393 2.596 1_455 S
Tb382 O394 2.374 . S
O383 Tb380 2.453 1_455 S
O383 C399 1.245 . S
O384 Tb380 2.596 1_455 S
O384 Tb382 2.343 . S
O384 C399 1.259 . S
O385 Tb380 2.374 1_455 S
O385 C381 1.251 . S
C386 O390 1.275 . S
C386 O391 1.246 . S
O387 C381 1.263 . S
O387 Tb382 2.353 . S
C388 O392 1.245 . S
C388 O393 1.259 . S
C389 O394 1.250 1_655 S
C389 O395 1.263 . S
O390 Tb382 2.427 . S
O390 C386 1.275 . S
O391 Tb382 2.513 . S
O391 C386 1.246 . S
O392 Tb382 2.453 1_655 S
O392 C388 1.245 . S
O393 Tb380 2.343 . S
O393 Tb382 2.596 1_655 S
O393 C388 1.259 . S
O394 Tb382 2.374 . S
O394 C389 1.250 1_455 S
O395 Tb380 2.353 . S
O395 C389 1.263 . S
C396 O397 1.275 . S
C396 O398 1.246 . S
O397 Tb380 2.427 . S
O397 C396 1.275 . S
O398 Tb380 2.513 . S
O398 C396 1.246 . S
C399 O383 1.245 . S
C399 O384 1.259 . S
H400 C408 0.950 . S
H401 C413 0.950 . S
H402 C410 0.950 . S
H403 C412 0.950 . S
H404 C414 0.950 . S
H405 C416 0.950 . S
H406 C418 0.950 . S
H407 C419 0.950 . S
C408 H400 0.950 . S
C408 C409 1.386 . S
C408 C410 1.391 . S
C409 C408 1.386 . S
C409 C413 1.393 1_545 S
C410 H402 0.950 . S
C410 C408 1.391 . S
C410 C411 1.400 . S
C411 C410 1.400 . S
C411 C412 1.398 1_545 S
C411 C417 1.491 . S
C412 H403 0.950 . S
C412 C411 1.398 1_565 S
C412 C413 1.391 . S
C413 H401 0.950 . S
C413 C409 1.393 1_565 S
C413 C412 1.391 . S
C414 H404 0.950 . S
C414 C415 1.386 1_565 S
C414 C416 1.391 . S
C415 C414 1.386 1_545 S
C415 C419 1.393 . S
C416 H405 0.950 . S
C416 C414 1.391 . S
C416 C417 1.400 1_565 S
C417 C411 1.491 . S
C417 C416 1.400 1_545 S
C417 C418 1.398 . S
C418 H406 0.950 . S
C418 C417 1.398 . S
C418 C419 1.391 . S
C419 H407 0.950 . S
C419 C415 1.393 . S
C419 C418 1.391 . S
H420 C428 0.950 . S
H421 C433 0.950 . S
H422 C430 0.950 . S
H423 C432 0.950 . S
H424 C434 0.950 . S
H425 C436 0.950 . S
H426 C438 0.950 . S
H427 C439 0.950 . S
C428 H420 0.950 . S
C428 C429 1.386 . S
C428 C430 1.391 . S
C429 C428 1.386 . S
C429 C433 1.393 . S
C430 H422 0.950 . S
C430 C428 1.391 . S
C430 C431 1.400 . S
C431 C430 1.400 . S
C431 C432 1.398 . S
C431 C437 1.491 . S
C432 H423 0.950 . S
C432 C431 1.398 . S
C432 C433 1.391 . S
C433 H421 0.950 . S
C433 C429 1.393 . S
C433 C432 1.391 . S
C434 H424 0.950 . S
C434 C435 1.386 . S
C434 C436 1.391 . S
C435 C434 1.386 . S
C435 C439 1.393 . S
C436 H425 0.950 . S
C436 C434 1.391 . S
C436 C437 1.400 . S
C437 C431 1.491 . S
C437 C436 1.400 . S
C437 C438 1.398 . S
C438 H426 0.950 . S
C438 C437 1.398 . S
C438 C439 1.391 . S
C439 H427 0.950 . S
C439 C435 1.393 . S
C439 C438 1.391 . S
H440 C448 0.950 . S
H441 C453 0.950 . S
H442 C450 0.950 . S
H443 C452 0.950 . S
H444 C454 0.950 . S
H445 C456 0.950 . S
H446 C458 0.950 . S
H447 C459 0.950 . S
C448 H440 0.950 . S
C448 C449 1.386 . S
C448 C450 1.391 . S
C449 C448 1.386 . S
C449 C453 1.393 . S
C450 H442 0.950 . S
C450 C448 1.391 . S
C450 C451 1.400 . S
C451 C450 1.400 . S
C451 C452 1.398 . S
C451 C457 1.491 . S
C452 H443 0.950 . S
C452 C451 1.398 . S
C452 C453 1.391 . S
C453 H441 0.950 . S
C453 C449 1.393 . S
C453 C452 1.391 . S
C454 H444 0.950 . S
C454 C455 1.386 . S
C454 C456 1.391 . S
C455 C454 1.386 . S
C455 C459 1.393 . S
C456 H445 0.950 . S
C456 C454 1.391 . S
C456 C457 1.400 . S
C457 C451 1.491 . S
C457 C456 1.400 . S
C457 C458 1.398 . S
C458 H446 0.950 . S
C458 C457 1.398 . S
C458 C459 1.391 . S
C459 H447 0.950 . S
C459 C455 1.393 . S
C459 C458 1.391 . S
H460 C468 0.950 . S
H461 C473 0.950 . S
H462 C470 0.950 . S
H463 C472 0.950 . S
H464 C474 0.950 . S
H465 C476 0.950 . S
H466 C478 0.950 . S
H467 C479 0.950 . S
C468 H460 0.950 . S
C468 C469 1.386 . S
C468 C470 1.391 . S
C469 C468 1.386 . S
C469 C473 1.393 . S
C470 H462 0.950 . S
C470 C468 1.391 . S
C470 C471 1.400 . S
C471 C470 1.400 . S
C471 C472 1.398 . S
C471 C477 1.491 . S
C472 H463 0.950 . S
C472 C471 1.398 . S
C472 C473 1.391 . S
C473 H461 0.950 . S
C473 C469 1.393 . S
C473 C472 1.391 . S
C474 H464 0.950 . S
C474 C475 1.386 . S
C474 C476 1.391 . S
C475 C474 1.386 . S
C475 C479 1.393 . S
C476 H465 0.950 . S
C476 C474 1.391 . S
C476 C477 1.400 . S
C477 C471 1.491 . S
C477 C476 1.400 . S
C477 C478 1.398 . S
C478 H466 0.950 . S
C478 C477 1.398 . S
C478 C479 1.391 . S
C479 H467 0.950 . S
C479 C475 1.393 . S
C479 C478 1.391 . S
H480 C488 0.950 1_554 S
H481 C493 0.950 . S
H482 C490 0.950 . S
H483 C492 0.950 . S
H484 C494 0.950 . S
H485 C496 0.950 . S
H486 C498 0.950 . S
H487 C499 0.950 . S
C488 H480 0.950 1_556 S
C488 C489 1.408 . S
C488 C490 1.391 . S
C489 C488 1.408 . S
C489 C493 1.371 1_545 S
C490 H482 0.950 . S
C490 C488 1.391 . S
C490 C491 1.400 . S
C491 C490 1.400 . S
C491 C492 1.398 1_545 S
C491 C497 1.491 . S
C492 H483 0.950 . S
C492 C491 1.398 1_565 S
C492 C493 1.391 . S
C493 H481 0.950 . S
C493 C489 1.371 1_565 S
C493 C492 1.391 . S
C494 H484 0.950 . S
C494 C495 1.386 1_565 S
C494 C496 1.391 . S
C495 C494 1.386 1_545 S
C495 C499 1.393 . S
C496 H485 0.950 . S
C496 C494 1.391 . S
C496 C497 1.400 1_565 S
C497 C491 1.491 . S
C497 C496 1.400 1_545 S
C497 C498 1.398 . S
C498 H486 0.950 . S
C498 C497 1.398 . S
C498 C499 1.391 . S
C499 H487 0.950 . S
C499 C495 1.393 . S
C499 C498 1.391 . S
H500 C508 0.950 . S
H501 C513 0.950 . S
H502 C510 0.950 . S
H503 C512 0.950 . S
H504 C514 0.950 . S
H505 C516 0.950 . S
H506 C518 0.950 . S
H507 C519 0.950 . S
C508 H500 0.950 . S
C508 C509 1.386 1_554 S
C508 C510 1.391 1_554 S
C509 C508 1.386 1_556 S
C509 C513 1.393 . S
C510 H502 0.950 . S
C510 C508 1.391 1_556 S
C510 C511 1.400 . S
C511 C510 1.400 . S
C511 C512 1.398 . S
C511 C517 1.491 . S
C512 H503 0.950 . S
C512 C511 1.398 . S
C512 C513 1.391 . S
C513 H501 0.950 . S
C513 C509 1.393 . S
C513 C512 1.391 . S
C514 H504 0.950 . S
C514 C515 1.386 . S
C514 C516 1.391 . S
C515 C514 1.386 . S
C515 C519 1.393 . S
C516 H505 0.950 . S
C516 C514 1.391 . S
C516 C517 1.400 . S
C517 C511 1.491 . S
C517 C516 1.400 . S
C517 C518 1.398 . S
C518 H506 0.950 . S
C518 C517 1.398 . S
C518 C519 1.391 . S
C519 H507 0.950 . S
C519 C515 1.393 . S
C519 C518 1.391 . S
H520 C528 0.950 . S
H521 C533 0.950 . S
H522 C530 0.950 . S
H523 C532 0.950 . S
H524 C534 0.950 . S
H525 C536 0.950 . S
H526 C538 0.950 . S
H527 C539 0.950 . S
C528 H520 0.950 . S
C528 C529 1.386 . S
C528 C530 1.391 . S
C529 C528 1.386 . S
C529 C533 1.393 . S
C530 H522 0.950 . S
C530 C528 1.391 . S
C530 C531 1.400 . S
C531 C530 1.400 . S
C531 C532 1.398 . S
C531 C537 1.491 . S
C532 H523 0.950 . S
C532 C531 1.398 . S
C532 C533 1.391 . S
C533 H521 0.950 . S
C533 C529 1.393 . S
C533 C532 1.391 . S
C534 H524 0.950 . S
C534 C535 1.386 . S
C534 C536 1.391 . S
C535 C534 1.386 . S
C535 C539 1.393 . S
C536 H525 0.950 . S
C536 C534 1.391 . S
C536 C537 1.400 . S
C537 C531 1.491 . S
C537 C536 1.400 . S
C537 C538 1.398 . S
C538 H526 0.950 . S
C538 C537 1.398 . S
C538 C539 1.391 . S
C539 H527 0.950 . S
C539 C535 1.393 . S
C539 C538 1.391 . S
H540 C548 0.950 . S
H541 C553 0.950 . S
H542 C550 0.950 . S
H543 C552 0.950 . S
H544 C554 0.950 . S
H545 C556 0.950 . S
H546 C558 0.950 . S
H547 C559 0.950 . S
C548 H540 0.950 . S
C548 C549 1.386 . S
C548 C550 1.391 . S
C549 C548 1.386 . S
C549 C553 1.393 . S
C550 H542 0.950 . S
C550 C548 1.391 . S
C550 C551 1.400 . S
C551 C550 1.400 . S
C551 C552 1.398 . S
C551 C557 1.491 . S
C552 H543 0.950 . S
C552 C551 1.398 . S
C552 C553 1.391 . S
C553 H541 0.950 . S
C553 C549 1.393 . S
C553 C552 1.391 . S
C554 H544 0.950 . S
C554 C555 1.386 . S
C554 C556 1.391 . S
C555 C554 1.386 . S
C555 C559 1.393 . S
C556 H545 0.950 . S
C556 C554 1.391 . S
C556 C557 1.400 . S
C557 C551 1.491 . S
C557 C556 1.400 . S
C557 C558 1.398 . S
C558 H546 0.950 . S
C558 C557 1.398 . S
C558 C559 1.391 . S
C559 H547 0.950 . S
C559 C555 1.393 . S
C559 C558 1.391 . S
H560 C568 0.950 . S
H561 C573 0.950 . S
H562 C570 0.950 . S
H563 C572 0.950 . S
H564 C574 0.950 . S
H565 C576 0.950 . S
H566 C578 0.950 . S
H567 C579 0.950 . S
C568 H560 0.950 . S
C568 C569 1.386 . S
C568 C570 1.391 . S
C569 C568 1.386 . S
C569 C573 1.393 . S
C570 H562 0.950 . S
C570 C568 1.391 . S
C570 C571 1.400 . S
C571 C570 1.400 . S
C571 C572 1.398 . S
C571 C577 1.491 . S
C572 H563 0.950 . S
C572 C571 1.398 . S
C572 C573 1.391 . S
C573 H561 0.950 . S
C573 C569 1.393 . S
C573 C572 1.391 . S
C574 H564 0.950 . S
C574 C575 1.386 . S
C574 C576 1.391 . S
C575 C574 1.386 . S
C575 C579 1.393 . S
C576 H565 0.950 . S
C576 C574 1.391 . S
C576 C577 1.400 . S
C577 C571 1.491 . S
C577 C576 1.400 . S
C577 C578 1.398 . S
C578 H566 0.950 . S
C578 C577 1.398 . S
C578 C579 1.391 . S
C579 H567 0.950 . S
C579 C575 1.393 . S
C579 C578 1.391 . S
H580 C588 0.950 . S
H581 C593 0.968 . S
H582 C590 0.950 . S
H583 C592 0.950 . S
H584 C594 0.950 . S
H585 C596 0.950 . S
H586 C598 0.950 . S
H587 C599 0.950 . S
C588 H580 0.950 . S
C588 C589 1.386 . S
C588 C590 1.391 . S
C589 C588 1.386 . S
C589 C593 1.369 1_545 S
C590 H582 0.950 . S
C590 C588 1.391 . S
C590 C591 1.400 . S
C591 C590 1.400 . S
C591 C592 1.398 1_545 S
C591 C597 1.491 . S
C592 H583 0.950 . S
C592 C591 1.398 1_565 S
C592 C593 1.397 . S
C593 H581 0.968 . S
C593 C589 1.369 1_565 S
C593 C592 1.397 . S
C594 H584 0.950 . S
C594 C595 1.386 1_565 S
C594 C596 1.391 . S
C595 C594 1.386 1_545 S
C595 C599 1.393 . S
C596 H585 0.950 . S
C596 C594 1.391 . S
C596 C597 1.400 1_565 S
C597 C591 1.491 . S
C597 C596 1.400 1_545 S
C597 C598 1.398 . S
C598 H586 0.950 . S
C598 C597 1.398 . S
C598 C599 1.391 . S
C599 H587 0.950 . S
C599 C595 1.393 . S
C599 C598 1.391 . S
H600 C608 0.950 . S
H601 C613 0.950 . S
H602 C610 0.950 . S
H603 C612 0.950 . S
H604 C614 0.950 . S
H605 C616 0.950 . S
H606 C618 0.950 . S
H607 C619 0.950 . S
C608 H600 0.950 . S
C608 C609 1.386 . S
C608 C610 1.391 . S
C609 C608 1.386 . S
C609 C613 1.393 . S
C610 H602 0.950 . S
C610 C608 1.391 . S
C610 C611 1.400 . S
C611 C610 1.400 . S
C611 C612 1.398 . S
C611 C617 1.491 . S
C612 H603 0.950 . S
C612 C611 1.398 . S
C612 C613 1.391 . S
C613 H601 0.950 . S
C613 C609 1.393 . S
C613 C612 1.391 . S
C614 H604 0.950 . S
C614 C615 1.386 . S
C614 C616 1.391 . S
C615 C614 1.386 . S
C615 C619 1.393 . S
C616 H605 0.950 . S
C616 C614 1.391 . S
C616 C617 1.400 . S
C617 C611 1.491 . S
C617 C616 1.400 . S
C617 C618 1.398 . S
C618 H606 0.950 . S
C618 C617 1.398 . S
C618 C619 1.391 . S
C619 H607 0.950 . S
C619 C615 1.393 . S
C619 C618 1.391 . S
H620 C628 0.950 . S
H621 C633 0.950 . S
H622 C630 0.950 . S
H623 C632 0.950 . S
H624 C634 0.950 . S
H625 C636 0.950 . S
H626 C638 0.950 . S
H627 C639 0.950 . S
C628 H620 0.950 . S
C628 C629 1.386 . S
C628 C630 1.391 . S
C629 C628 1.386 . S
C629 C633 1.393 . S
C630 H622 0.950 . S
C630 C628 1.391 . S
C630 C631 1.400 . S
C631 C630 1.400 . S
C631 C632 1.398 . S
C631 C637 1.491 . S
C632 H623 0.950 . S
C632 C631 1.398 . S
C632 C633 1.391 . S
C633 H621 0.950 . S
C633 C629 1.393 . S
C633 C632 1.391 . S
C634 H624 0.950 . S
C634 C635 1.386 . S
C634 C636 1.391 . S
C635 C634 1.386 . S
C635 C639 1.393 . S
C636 H625 0.950 . S
C636 C634 1.391 . S
C636 C637 1.400 . S
C637 C631 1.491 . S
C637 C636 1.400 . S
C637 C638 1.398 . S
C638 H626 0.950 . S
C638 C637 1.398 . S
C638 C639 1.391 . S
C639 H627 0.950 . S
C639 C635 1.393 . S
C639 C638 1.391 . S
H640 C648 0.950 . S
H641 C653 0.950 . S
H642 C650 0.950 . S
H643 C652 0.950 . S
H644 C654 0.950 . S
H645 C656 0.950 . S
H646 C658 0.950 . S
H647 C659 0.950 . S
C648 H640 0.950 . S
C648 C649 1.386 . S
C648 C650 1.391 . S
C649 C648 1.386 . S
C649 C653 1.393 . S
C650 H642 0.950 . S
C650 C648 1.391 . S
C650 C651 1.400 . S
C651 C650 1.400 . S
C651 C652 1.398 . S
C651 C657 1.491 . S
C652 H643 0.950 . S
C652 C651 1.398 . S
C652 C653 1.391 . S
C653 H641 0.950 . S
C653 C649 1.393 . S
C653 C652 1.391 . S
C654 H644 0.950 . S
C654 C655 1.386 . S
C654 C656 1.391 . S
C655 C654 1.386 . S
C655 C659 1.393 . S
C656 H645 0.950 . S
C656 C654 1.391 . S
C656 C657 1.400 . S
C657 C651 1.491 . S
C657 C656 1.400 . S
C657 C658 1.398 . S
C658 H646 0.950 . S
C658 C657 1.398 . S
C658 C659 1.391 . S
C659 H647 0.950 . S
C659 C655 1.393 . S
C659 C658 1.391 . S
H660 C668 0.950 . S
H661 C673 0.950 . S
H662 C670 0.950 . S
H663 C672 0.952 . S
H664 C674 0.946 1_565 S
H665 C676 0.944 1_565 S
H666 C678 0.950 . S
H667 C679 0.950 . S
C668 H660 0.950 . S
C668 C669 1.395 . S
C668 C670 1.391 . S
C669 C668 1.395 . S
C669 C673 1.391 1_545 S
C670 H662 0.950 . S
C670 C668 1.391 . S
C670 C671 1.400 . S
C671 C670 1.400 . S
C671 C672 1.390 1_545 S
C671 C677 1.491 . S
C672 H663 0.952 . S
C672 C671 1.390 1_565 S
C672 C673 1.398 . S
C673 H661 0.950 . S
C673 C669 1.391 1_565 S
C673 C672 1.398 . S
C674 H664 0.946 1_545 S
C674 C675 1.386 . S
C674 C676 1.395 . S
C675 C674 1.386 . S
C675 C679 1.393 . S
C676 H665 0.944 1_545 S
C676 C674 1.395 . S
C676 C677 1.402 . S
C677 C671 1.491 . S
C677 C676 1.402 . S
C677 C678 1.398 . S
C678 H666 0.950 . S
C678 C677 1.398 . S
C678 C679 1.391 . S
C679 H667 0.950 . S
C679 C675 1.393 . S
C679 C678 1.391 . S
H680 C688 0.950 . S
H681 C693 0.950 . S
H682 C690 0.950 . S
H683 C692 0.950 . S
H684 C694 0.950 . S
H685 C696 0.950 . S
H686 C698 0.950 . S
H687 C699 0.950 . S
C688 H680 0.950 . S
C688 C689 1.386 . S
C688 C690 1.391 . S
C689 C688 1.386 . S
C689 C693 1.393 . S
C690 H682 0.950 . S
C690 C688 1.391 . S
C690 C691 1.400 . S
C691 C690 1.400 . S
C691 C692 1.398 . S
C691 C697 1.491 . S
C692 H683 0.950 . S
C692 C691 1.398 . S
C692 C693 1.391 . S
C693 H681 0.950 . S
C693 C689 1.393 . S
C693 C692 1.391 . S
C694 H684 0.950 . S
C694 C695 1.386 . S
C694 C696 1.391 . S
C695 C694 1.386 . S
C695 C699 1.393 . S
C696 H685 0.950 . S
C696 C694 1.391 . S
C696 C697 1.400 . S
C697 C691 1.491 . S
C697 C696 1.400 . S
C697 C698 1.398 . S
C698 H686 0.950 . S
C698 C697 1.398 . S
C698 C699 1.391 . S
C699 H687 0.950 . S
C699 C695 1.393 . S
C699 C698 1.391 . S
H700 C708 0.950 . S
H701 C713 0.950 . S
H702 C710 0.950 . S
H703 C712 0.950 . S
H704 C714 0.950 . S
H705 C716 0.950 . S
H706 C718 0.950 . S
H707 C719 0.950 . S
C708 H700 0.950 . S
C708 C709 1.386 . S
C708 C710 1.391 . S
C709 C708 1.386 . S
C709 C713 1.393 . S
C710 H702 0.950 . S
C710 C708 1.391 . S
C710 C711 1.400 . S
C711 C710 1.400 . S
C711 C712 1.398 . S
C711 C717 1.491 . S
C712 H703 0.950 . S
C712 C711 1.398 . S
C712 C713 1.391 . S
C713 H701 0.950 . S
C713 C709 1.393 . S
C713 C712 1.391 . S
C714 H704 0.950 . S
C714 C715 1.386 . S
C714 C716 1.391 . S
C715 C714 1.386 . S
C715 C719 1.393 . S
C716 H705 0.950 . S
C716 C714 1.391 . S
C716 C717 1.400 . S
C717 C711 1.491 . S
C717 C716 1.400 . S
C717 C718 1.398 . S
C718 H706 0.950 . S
C718 C717 1.398 . S
C718 C719 1.391 . S
C719 H707 0.950 . S
C719 C715 1.393 . S
C719 C718 1.391 . S
H720 C728 0.950 . S
H721 C733 0.950 . S
H722 C730 0.950 . S
H723 C732 0.950 1_554 S
H724 C734 0.950 . S
H725 C736 0.950 . S
H726 C738 0.950 . S
H727 C739 0.950 . S
C728 H720 0.950 . S
C728 C729 1.386 . S
C728 C730 1.391 . S
C729 C728 1.386 . S
C729 C733 1.393 1_556 S
C730 H722 0.950 . S
C730 C728 1.391 . S
C730 C731 1.400 . S
C731 C730 1.400 . S
C731 C732 1.398 . S
C731 C737 1.491 . S
C732 H723 0.950 1_556 S
C732 C731 1.398 . S
C732 C733 1.391 1_556 S
C733 H721 0.950 . S
C733 C729 1.393 1_554 S
C733 C732 1.391 1_554 S
C734 H724 0.950 . S
C734 C735 1.386 . S
C734 C736 1.391 . S
C735 C734 1.386 . S
C735 C739 1.393 . S
C736 H725 0.950 . S
C736 C734 1.391 . S
C736 C737 1.400 . S
C737 C731 1.491 . S
C737 C736 1.400 . S
C737 C738 1.398 . S
C738 H726 0.950 . S
C738 C737 1.398 . S
C738 C739 1.391 . S
C739 H727 0.950 . S
C739 C735 1.393 . S
C739 C738 1.391 . S
H740 C748 0.950 1_554 S
H741 C753 0.950 1_565 S
H742 C750 0.950 . S
H743 C752 0.950 1_565 S
H744 C754 0.950 1_565 S
H745 C756 0.950 1_565 S
H746 C758 0.950 . S
H747 C759 0.950 . S
C748 H740 0.950 1_556 S
C748 C749 1.386 . S
C748 C750 1.391 . S
C749 C748 1.386 . S
C749 C753 1.393 . S
C750 H742 0.950 . S
C750 C748 1.391 . S
C750 C751 1.400 . S
C751 C750 1.400 . S
C751 C752 1.398 . S
C751 C757 1.491 . S
C752 H743 0.950 1_545 S
C752 C751 1.398 . S
C752 C753 1.391 . S
C753 H741 0.950 1_545 S
C753 C749 1.393 . S
C753 C752 1.391 . S
C754 H744 0.950 1_545 S
C754 C755 1.386 . S
C754 C756 1.391 . S
C755 C754 1.386 . S
C755 C759 1.393 . S
C756 H745 0.950 1_545 S
C756 C754 1.391 . S
C756 C757 1.400 . S
C757 C751 1.491 . S
C757 C756 1.400 . S
C757 C758 1.398 . S
C758 H746 0.950 . S
C758 C757 1.398 . S
C758 C759 1.391 . S
C759 H747 0.950 . S
C759 C755 1.393 . S
C759 C758 1.391 . S
H760 C768 0.950 1_554 S
H761 C773 0.950 . S
H762 C770 0.950 . S
H763 C772 0.950 . S
H764 C774 0.950 . S
H765 C776 0.950 . S
H766 C778 0.950 . S
H767 C779 0.950 . S
C768 H760 0.950 1_556 S
C768 C769 1.386 . S
C768 C770 1.391 . S
C769 C768 1.386 . S
C769 C773 1.393 . S
C770 H762 0.950 . S
C770 C768 1.391 . S
C770 C771 1.400 . S
C771 C770 1.400 . S
C771 C772 1.398 . S
C771 C777 1.491 . S
C772 H763 0.950 . S
C772 C771 1.398 . S
C772 C773 1.391 . S
C773 H761 0.950 . S
C773 C769 1.393 . S
C773 C772 1.391 . S
C774 H764 0.950 . S
C774 C775 1.386 . S
C774 C776 1.391 . S
C775 C774 1.386 . S
C775 C779 1.393 . S
C776 H765 0.950 . S
C776 C774 1.391 . S
C776 C777 1.400 . S
C777 C771 1.491 . S
C777 C776 1.400 . S
C777 C778 1.398 . S
C778 H766 0.950 . S
C778 C777 1.398 . S
C778 C779 1.391 . S
C779 H767 0.950 . S
C779 C775 1.393 . S
C779 C778 1.391 . S
H780 C788 0.950 . S
H781 C793 0.950 . S
H782 C790 0.950 . S
H783 C792 0.950 . S
H784 C794 0.950 . S
H785 C796 0.950 . S
H786 C798 0.950 . S
H787 C799 0.950 . S
C788 H780 0.950 . S
C788 C789 1.386 . S
C788 C790 1.391 . S
C789 C788 1.386 . S
C789 C793 1.393 . S
C790 H782 0.950 . S
C790 C788 1.391 . S
C790 C791 1.400 . S
C791 C790 1.400 . S
C791 C792 1.398 . S
C791 C797 1.491 . S
C792 H783 0.950 . S
C792 C791 1.398 . S
C792 C793 1.391 . S
C793 H781 0.950 . S
C793 C789 1.393 . S
C793 C792 1.391 . S
C794 H784 0.950 . S
C794 C795 1.386 . S
C794 C796 1.391 . S
C795 C794 1.386 . S
C795 C799 1.393 . S
C796 H785 0.950 . S
C796 C794 1.391 . S
C796 C797 1.400 . S
C797 C791 1.491 . S
C797 C796 1.400 . S
C797 C798 1.398 . S
C798 H786 0.950 . S
C798 C797 1.398 . S
C798 C799 1.391 . S
C799 H787 0.950 . S
C799 C795 1.393 . S
C799 C798 1.391 . S
H800 C808 0.950 . S
H801 C813 0.950 . S
H802 C810 0.950 . S
H803 C812 0.950 . S
H804 C814 0.950 . S
H805 C816 0.950 . S
H806 C818 0.950 . S
H807 C819 0.950 . S
C808 H800 0.950 . S
C808 C809 1.386 . S
C808 C810 1.391 . S
C809 C808 1.386 . S
C809 C813 1.393 . S
C810 H802 0.950 . S
C810 C808 1.391 . S
C810 C811 1.400 . S
C811 C810 1.400 . S
C811 C812 1.398 . S
C811 C817 1.491 . S
C812 H803 0.950 . S
C812 C811 1.398 . S
C812 C813 1.391 . S
C813 H801 0.950 . S
C813 C809 1.393 . S
C813 C812 1.391 . S
C814 H804 0.950 . S
C814 C815 1.386 . S
C814 C816 1.391 . S
C815 C814 1.386 . S
C815 C819 1.393 . S
C816 H805 0.950 . S
C816 C814 1.391 . S
C816 C817 1.400 . S
C817 C811 1.491 . S
C817 C816 1.400 . S
C817 C818 1.398 . S
C818 H806 0.950 . S
C818 C817 1.398 . S
C818 C819 1.391 . S
C819 H807 0.950 . S
C819 C815 1.393 . S
C819 C818 1.391 . S
H820 C828 0.950 . S
H821 C833 0.950 . S
H822 C830 0.950 . S
H823 C832 0.950 . S
H824 C834 0.950 . S
H825 C836 0.950 . S
H826 C838 0.950 . S
H827 C839 0.950 . S
C828 H820 0.950 . S
C828 C829 1.415 . S
C828 C830 1.391 . S
C829 C828 1.415 . S
C829 C833 1.368 1_545 S
C830 H822 0.950 . S
C830 C828 1.391 . S
C830 C831 1.400 . S
C831 C830 1.400 . S
C831 C832 1.398 1_545 S
C831 C837 1.491 . S
C832 H823 0.950 . S
C832 C831 1.398 1_565 S
C832 C833 1.391 . S
C833 H821 0.950 . S
C833 C829 1.368 1_565 S
C833 C832 1.391 . S
C834 H824 0.950 . S
C834 C835 1.386 1_565 S
C834 C836 1.391 . S
C835 C834 1.386 1_545 S
C835 C839 1.393 . S
C836 H825 0.950 . S
C836 C834 1.391 . S
C836 C837 1.400 1_565 S
C837 C831 1.491 . S
C837 C836 1.400 1_545 S
C837 C838 1.398 . S
C838 H826 0.950 . S
C838 C837 1.398 . S
C838 C839 1.391 . S
C839 H827 0.950 . S
C839 C835 1.393 . S
C839 C838 1.391 . S
H840 C848 0.950 . S
H841 C853 0.950 . S
H842 C850 0.950 . S
H843 C852 0.950 . S
H844 C854 0.950 . S
H845 C856 0.950 . S
H846 C858 0.950 . S
H847 C859 0.950 . S
C848 H840 0.950 . S
C848 C849 1.386 . S
C848 C850 1.391 . S
C849 C848 1.386 . S
C849 C853 1.393 . S
C850 H842 0.950 . S
C850 C848 1.391 . S
C850 C851 1.400 . S
C851 C850 1.400 . S
C851 C852 1.398 . S
C851 C857 1.491 . S
C852 H843 0.950 . S
C852 C851 1.398 . S
C852 C853 1.391 . S
C853 H841 0.950 . S
C853 C849 1.393 . S
C853 C852 1.391 . S
C854 H844 0.950 . S
C854 C855 1.386 . S
C854 C856 1.391 . S
C855 C854 1.386 . S
C855 C859 1.393 . S
C856 H845 0.950 . S
C856 C854 1.391 . S
C856 C857 1.400 . S
C857 C851 1.491 . S
C857 C856 1.400 . S
C857 C858 1.398 . S
C858 H846 0.950 . S
C858 C857 1.398 . S
C858 C859 1.391 . S
C859 H847 0.950 . S
C859 C855 1.393 . S
C859 C858 1.391 . S
H860 C868 0.950 . S
H861 C873 0.950 . S
H862 C870 0.950 . S
H863 C872 0.950 . S
H864 C874 0.950 . S
H865 C876 0.950 . S
H866 C878 0.950 . S
H867 C879 0.950 . S
C868 H860 0.950 . S
C868 C869 1.386 . S
C868 C870 1.391 . S
C869 C868 1.386 . S
C869 C873 1.393 . S
C870 H862 0.950 . S
C870 C868 1.391 . S
C870 C871 1.400 . S
C871 C870 1.400 . S
C871 C872 1.398 . S
C871 C877 1.491 . S
C872 H863 0.950 . S
C872 C871 1.398 . S
C872 C873 1.391 . S
C873 H861 0.950 . S
C873 C869 1.393 . S
C873 C872 1.391 . S
C874 H864 0.950 . S
C874 C875 1.386 . S
C874 C876 1.391 . S
C875 C874 1.386 . S
C875 C879 1.393 . S
C876 H865 0.950 . S
C876 C874 1.391 . S
C876 C877 1.400 . S
C877 C871 1.491 . S
C877 C876 1.400 . S
C877 C878 1.398 . S
C878 H866 0.950 . S
C878 C877 1.398 . S
C878 C879 1.391 . S
C879 H867 0.950 . S
C879 C875 1.393 . S
C879 C878 1.391 . S
C409 C255 1.560 . S
C415 C321 1.575 1_545 S
C435 C356 2.407 . S
C429 C295 2.248 . S
C455 C361 1.434 . S
C449 C175 1.424 . S
C475 C381 2.049 . S
C469 C215 1.937 . S
C495 C329 1.577 . S
C489 C95 1.561 1_556 S
C509 C135 2.243 1_556 S
C515 C346 2.408 . S
C529 C15 1.419 . S
C535 C369 1.430 . S
C549 C55 1.906 . S
C555 C389 2.048 . S
C575 C339 1.640 . S
C569 C221 1.513 . S
C595 C348 0.647 1_545 S
C589 C261 0.680 . S
C615 C379 1.809 . S
C609 C301 1.714 . S
C629 C181 0.914 . S
C635 C399 0.912 . S
C649 C61 1.393 . S
C655 C328 1.633 . S
C675 C359 0.683 . S
C669 C101 0.670 . S
C695 C368 1.801 . S
C689 C141 1.534 . S
C709 C21 0.928 . S
C715 C388 0.902 . S
C729 C202 2.314 1_556 S
C735 C326 2.404 . S
C749 C242 1.889 . S
C755 C349 2.027 . S
C775 C366 2.607 . S
C769 C282 2.462 . S
C795 C386 2.250 . S
C789 C162 2.098 1_556 S
C809 C42 2.196 . S
C815 C336 2.401 . S
C835 C341 2.026 . S
C829 C82 1.871 . S
C855 C376 2.605 . S
C849 C122 2.342 . S
C869 C2 2.140 . S
C875 C396 2.251 . S
