# Generated by pormake.
# Topology gar, (4,6)-cn, num edge types: 1
# Building blocks:
#     Node 0, Type 0, BuildingBlock: TATPOV_clean_sbu_0, # of connection points: 4
#     Node 1, Type 0, BuildingBlock: TATPOV_clean_sbu_0, # of connection points: 4
#     Node 2, Type 0, BuildingBlock: TATPOV_clean_sbu_0, # of connection points: 4
#     Node 3, Type 0, BuildingBlock: TATPOV_clean_sbu_0, # of connection points: 4
#     Node 4, Type 0, BuildingBlock: TATPOV_clean_sbu_0, # of connection points: 4
#     Node 5, Type 0, BuildingBlock: TATPOV_clean_sbu_0, # of connection points: 4
#     Node 6, Type 0, BuildingBlock: TATPOV_clean_sbu_0, # of connection points: 4
#     Node 7, Type 0, BuildingBlock: TATPOV_clean_sbu_0, # of connection points: 4
#     Node 8, Type 0, BuildingBlock: TATPOV_clean_sbu_0, # of connection points: 4
#     Node 9, Type 0, BuildingBlock: TATPOV_clean_sbu_0, # of connection points: 4
#     Node 10, Type 0, BuildingBlock: TATPOV_clean_sbu_0, # of connection points: 4
#     Node 11, Type 0, BuildingBlock: TATPOV_clean_sbu_0, # of connection points: 4
#     Node 12, Type 0, BuildingBlock: TATPOV_clean_sbu_0, # of connection points: 4
#     Node 13, Type 0, BuildingBlock: TATPOV_clean_sbu_0, # of connection points: 4
#     Node 14, Type 0, BuildingBlock: TATPOV_clean_sbu_0, # of connection points: 4
#     Node 15, Type 0, BuildingBlock: TATPOV_clean_sbu_0, # of connection points: 4
#     Node 16, Type 0, BuildingBlock: TATPOV_clean_sbu_0, # of connection points: 4
#     Node 17, Type 0, BuildingBlock: TATPOV_clean_sbu_0, # of connection points: 4
#     Node 18, Type 0, BuildingBlock: TATPOV_clean_sbu_0, # of connection points: 4
#     Node 19, Type 0, BuildingBlock: TATPOV_clean_sbu_0, # of connection points: 4
#     Node 20, Type 0, BuildingBlock: TATPOV_clean_sbu_0, # of connection points: 4
#     Node 21, Type 0, BuildingBlock: TATPOV_clean_sbu_0, # of connection points: 4
#     Node 22, Type 0, BuildingBlock: TATPOV_clean_sbu_0, # of connection points: 4
#     Node 23, Type 0, BuildingBlock: TATPOV_clean_sbu_0, # of connection points: 4
#     Node 24, Type 1, BuildingBlock: GEDQOX_clean_sbu_0, # of connection points: 6
#     Node 25, Type 1, BuildingBlock: GEDQOX_clean_sbu_0, # of connection points: 6
#     Node 26, Type 1, BuildingBlock: GEDQOX_clean_sbu_0, # of connection points: 6
#     Node 27, Type 1, BuildingBlock: GEDQOX_clean_sbu_0, # of connection points: 6
#     Node 28, Type 1, BuildingBlock: GEDQOX_clean_sbu_0, # of connection points: 6
#     Node 29, Type 1, BuildingBlock: GEDQOX_clean_sbu_0, # of connection points: 6
#     Node 30, Type 1, BuildingBlock: GEDQOX_clean_sbu_0, # of connection points: 6
#     Node 31, Type 1, BuildingBlock: GEDQOX_clean_sbu_0, # of connection points: 6
#     Node 32, Type 1, BuildingBlock: GEDQOX_clean_sbu_0, # of connection points: 6
#     Node 33, Type 1, BuildingBlock: GEDQOX_clean_sbu_0, # of connection points: 6
#     Node 34, Type 1, BuildingBlock: GEDQOX_clean_sbu_0, # of connection points: 6
#     Node 35, Type 1, BuildingBlock: GEDQOX_clean_sbu_0, # of connection points: 6
#     Node 36, Type 1, BuildingBlock: GEDQOX_clean_sbu_0, # of connection points: 6
#     Node 37, Type 1, BuildingBlock: GEDQOX_clean_sbu_0, # of connection points: 6
#     Node 38, Type 1, BuildingBlock: GEDQOX_clean_sbu_0, # of connection points: 6
#     Node 39, Type 1, BuildingBlock: GEDQOX_clean_sbu_0, # of connection points: 6
#     Edge 40, Type (0, 1), BuildingBlock: CIFDUS_clean_linker_0, # of connection points: 2
#     Edge 41, Type (0, 1), BuildingBlock: CIFDUS_clean_linker_0, # of connection points: 2
#     Edge 42, Type (0, 1), BuildingBlock: CIFDUS_clean_linker_0, # of connection points: 2
#     Edge 43, Type (0, 1), BuildingBlock: CIFDUS_clean_linker_0, # of connection points: 2
#     Edge 44, Type (0, 1), BuildingBlock: CIFDUS_clean_linker_0, # of connection points: 2
#     Edge 45, Type (0, 1), BuildingBlock: CIFDUS_clean_linker_0, # of connection points: 2
#     Edge 46, Type (0, 1), BuildingBlock: CIFDUS_clean_linker_0, # of connection points: 2
#     Edge 47, Type (0, 1), BuildingBlock: CIFDUS_clean_linker_0, # of connection points: 2
#     Edge 48, Type (0, 1), BuildingBlock: CIFDUS_clean_linker_0, # of connection points: 2
#     Edge 49, Type (0, 1), BuildingBlock: CIFDUS_clean_linker_0, # of connection points: 2
#     Edge 50, Type (0, 1), BuildingBlock: CIFDUS_clean_linker_0, # of connection points: 2
#     Edge 51, Type (0, 1), BuildingBlock: CIFDUS_clean_linker_0, # of connection points: 2
#     Edge 52, Type (0, 1), BuildingBlock: CIFDUS_clean_linker_0, # of connection points: 2
#     Edge 53, Type (0, 1), BuildingBlock: CIFDUS_clean_linker_0, # of connection points: 2
#     Edge 54, Type (0, 1), BuildingBlock: CIFDUS_clean_linker_0, # of connection points: 2
#     Edge 55, Type (0, 1), BuildingBlock: CIFDUS_clean_linker_0, # of connection points: 2
#     Edge 56, Type (0, 1), BuildingBlock: CIFDUS_clean_linker_0, # of connection points: 2
#     Edge 57, Type (0, 1), BuildingBlock: CIFDUS_clean_linker_0, # of connection points: 2
#     Edge 58, Type (0, 1), BuildingBlock: CIFDUS_clean_linker_0, # of connection points: 2
#     Edge 59, Type (0, 1), BuildingBlock: CIFDUS_clean_linker_0, # of connection points: 2
#     Edge 60, Type (0, 1), BuildingBlock: CIFDUS_clean_linker_0, # of connection points: 2
#     Edge 61, Type (0, 1), BuildingBlock: CIFDUS_clean_linker_0, # of connection points: 2
#     Edge 62, Type (0, 1), BuildingBlock: CIFDUS_clean_linker_0, # of connection points: 2
#     Edge 63, Type (0, 1), BuildingBlock: CIFDUS_clean_linker_0, # of connection points: 2
#     Edge 64, Type (0, 1), BuildingBlock: CIFDUS_clean_linker_0, # of connection points: 2
#     Edge 65, Type (0, 1), BuildingBlock: CIFDUS_clean_linker_0, # of connection points: 2
#     Edge 66, Type (0, 1), BuildingBlock: CIFDUS_clean_linker_0, # of connection points: 2
#     Edge 67, Type (0, 1), BuildingBlock: CIFDUS_clean_linker_0, # of connection points: 2
#     Edge 68, Type (0, 1), BuildingBlock: CIFDUS_clean_linker_0, # of connection points: 2
#     Edge 69, Type (0, 1), BuildingBlock: CIFDUS_clean_linker_0, # of connection points: 2
#     Edge 70, Type (0, 1), BuildingBlock: CIFDUS_clean_linker_0, # of connection points: 2
#     Edge 71, Type (0, 1), BuildingBlock: CIFDUS_clean_linker_0, # of connection points: 2
#     Edge 72, Type (0, 1), BuildingBlock: CIFDUS_clean_linker_0, # of connection points: 2
#     Edge 73, Type (0, 1), BuildingBlock: CIFDUS_clean_linker_0, # of connection points: 2
#     Edge 74, Type (0, 1), BuildingBlock: CIFDUS_clean_linker_0, # of connection points: 2
#     Edge 75, Type (0, 1), BuildingBlock: CIFDUS_clean_linker_0, # of connection points: 2
#     Edge 76, Type (0, 1), BuildingBlock: CIFDUS_clean_linker_0, # of connection points: 2
#     Edge 77, Type (0, 1), BuildingBlock: CIFDUS_clean_linker_0, # of connection points: 2
#     Edge 78, Type (0, 1), BuildingBlock: CIFDUS_clean_linker_0, # of connection points: 2
#     Edge 79, Type (0, 1), BuildingBlock: CIFDUS_clean_linker_0, # of connection points: 2
#     Edge 80, Type (0, 1), BuildingBlock: CIFDUS_clean_linker_0, # of connection points: 2
#     Edge 81, Type (0, 1), BuildingBlock: CIFDUS_clean_linker_0, # of connection points: 2
#     Edge 82, Type (0, 1), BuildingBlock: CIFDUS_clean_linker_0, # of connection points: 2
#     Edge 83, Type (0, 1), BuildingBlock: CIFDUS_clean_linker_0, # of connection points: 2
#     Edge 84, Type (0, 1), BuildingBlock: CIFDUS_clean_linker_0, # of connection points: 2
#     Edge 85, Type (0, 1), BuildingBlock: CIFDUS_clean_linker_0, # of connection points: 2
#     Edge 86, Type (0, 1), BuildingBlock: CIFDUS_clean_linker_0, # of connection points: 2
#     Edge 87, Type (0, 1), BuildingBlock: CIFDUS_clean_linker_0, # of connection points: 2
#     Edge 88, Type (0, 1), BuildingBlock: CIFDUS_clean_linker_0, # of connection points: 2
#     Edge 89, Type (0, 1), BuildingBlock: CIFDUS_clean_linker_0, # of connection points: 2
#     Edge 90, Type (0, 1), BuildingBlock: CIFDUS_clean_linker_0, # of connection points: 2
#     Edge 91, Type (0, 1), BuildingBlock: CIFDUS_clean_linker_0, # of connection points: 2
#     Edge 92, Type (0, 1), BuildingBlock: CIFDUS_clean_linker_0, # of connection points: 2
#     Edge 93, Type (0, 1), BuildingBlock: CIFDUS_clean_linker_0, # of connection points: 2
#     Edge 94, Type (0, 1), BuildingBlock: CIFDUS_clean_linker_0, # of connection points: 2
#     Edge 95, Type (0, 1), BuildingBlock: CIFDUS_clean_linker_0, # of connection points: 2
#     Edge 96, Type (0, 1), BuildingBlock: CIFDUS_clean_linker_0, # of connection points: 2
#     Edge 97, Type (0, 1), BuildingBlock: CIFDUS_clean_linker_0, # of connection points: 2
#     Edge 98, Type (0, 1), BuildingBlock: CIFDUS_clean_linker_0, # of connection points: 2
#     Edge 99, Type (0, 1), BuildingBlock: CIFDUS_clean_linker_0, # of connection points: 2
#     Edge 100, Type (0, 1), BuildingBlock: CIFDUS_clean_linker_0, # of connection points: 2
#     Edge 101, Type (0, 1), BuildingBlock: CIFDUS_clean_linker_0, # of connection points: 2
#     Edge 102, Type (0, 1), BuildingBlock: CIFDUS_clean_linker_0, # of connection points: 2
#     Edge 103, Type (0, 1), BuildingBlock: CIFDUS_clean_linker_0, # of connection points: 2
#     Edge 104, Type (0, 1), BuildingBlock: CIFDUS_clean_linker_0, # of connection points: 2
#     Edge 105, Type (0, 1), BuildingBlock: CIFDUS_clean_linker_0, # of connection points: 2
#     Edge 106, Type (0, 1), BuildingBlock: CIFDUS_clean_linker_0, # of connection points: 2
#     Edge 107, Type (0, 1), BuildingBlock: CIFDUS_clean_linker_0, # of connection points: 2
#     Edge 108, Type (0, 1), BuildingBlock: CIFDUS_clean_linker_0, # of connection points: 2
#     Edge 109, Type (0, 1), BuildingBlock: CIFDUS_clean_linker_0, # of connection points: 2
#     Edge 110, Type (0, 1), BuildingBlock: CIFDUS_clean_linker_0, # of connection points: 2
#     Edge 111, Type (0, 1), BuildingBlock: CIFDUS_clean_linker_0, # of connection points: 2
#     Edge 112, Type (0, 1), BuildingBlock: CIFDUS_clean_linker_0, # of connection points: 2
#     Edge 113, Type (0, 1), BuildingBlock: CIFDUS_clean_linker_0, # of connection points: 2
#     Edge 114, Type (0, 1), BuildingBlock: CIFDUS_clean_linker_0, # of connection points: 2
#     Edge 115, Type (0, 1), BuildingBlock: CIFDUS_clean_linker_0, # of connection points: 2
#     Edge 116, Type (0, 1), BuildingBlock: CIFDUS_clean_linker_0, # of connection points: 2
#     Edge 117, Type (0, 1), BuildingBlock: CIFDUS_clean_linker_0, # of connection points: 2
#     Edge 118, Type (0, 1), BuildingBlock: CIFDUS_clean_linker_0, # of connection points: 2
#     Edge 119, Type (0, 1), BuildingBlock: CIFDUS_clean_linker_0, # of connection points: 2
#     Edge 120, Type (0, 1), BuildingBlock: CIFDUS_clean_linker_0, # of connection points: 2
#     Edge 121, Type (0, 1), BuildingBlock: CIFDUS_clean_linker_0, # of connection points: 2
#     Edge 122, Type (0, 1), BuildingBlock: CIFDUS_clean_linker_0, # of connection points: 2
#     Edge 123, Type (0, 1), BuildingBlock: CIFDUS_clean_linker_0, # of connection points: 2
#     Edge 124, Type (0, 1), BuildingBlock: CIFDUS_clean_linker_0, # of connection points: 2
#     Edge 125, Type (0, 1), BuildingBlock: CIFDUS_clean_linker_0, # of connection points: 2
#     Edge 126, Type (0, 1), BuildingBlock: CIFDUS_clean_linker_0, # of connection points: 2
#     Edge 127, Type (0, 1), BuildingBlock: CIFDUS_clean_linker_0, # of connection points: 2
#     Edge 128, Type (0, 1), BuildingBlock: CIFDUS_clean_linker_0, # of connection points: 2
#     Edge 129, Type (0, 1), BuildingBlock: CIFDUS_clean_linker_0, # of connection points: 2
#     Edge 130, Type (0, 1), BuildingBlock: CIFDUS_clean_linker_0, # of connection points: 2
#     Edge 131, Type (0, 1), BuildingBlock: CIFDUS_clean_linker_0, # of connection points: 2
#     Edge 132, Type (0, 1), BuildingBlock: CIFDUS_clean_linker_0, # of connection points: 2
#     Edge 133, Type (0, 1), BuildingBlock: CIFDUS_clean_linker_0, # of connection points: 2
#     Edge 134, Type (0, 1), BuildingBlock: CIFDUS_clean_linker_0, # of connection points: 2
#     Edge 135, Type (0, 1), BuildingBlock: CIFDUS_clean_linker_0, # of connection points: 2
# Relax obj value: 0.307
# Max RMSD: 0.493
# Mean RMSD: 0.196
data_MOF--net-gar--node1-TATPOV_clean_sbu_0--node2-GEDQOX_clean_sbu_0--edge1-CIFDUS_clean_linker_0
_symmetry_space_group_name_H-M    P1
_symmetry_Int_Tables_number       1
_symmetry_cell_setting            triclinic
loop_
_symmetry_equiv_pos_as_xyz
'x, y, z'
_cell_length_a     53.982349
_cell_length_b     52.247614
_cell_length_c     47.21494
_cell_angle_alpha  99.869886
_cell_angle_beta   98.934757
_cell_angle_gamma 101.28897
loop_
_atom_site_label
_atom_site_type_symbol
_atom_site_fract_x
_atom_site_fract_y
_atom_site_fract_z
_atom_type_partial_charge
Zn0 Zn 0.139 0.40051 0.55271 0.0
Zn1 Zn 0.15808 0.40318 0.50572 0.0
O2 O 0.1669 0.44299 0.52763 0.0
O3 O 0.15155 0.43915 0.56762 0.0
O4 O 0.17521 0.40088 0.47057 0.0
O5 O 0.15916 0.37627 0.56743 0.0
O6 O 0.17097 0.37406 0.52474 0.0
C7 C 0.16256 0.45364 0.55229 0.0
C8 C 0.10049 0.38492 0.4997 0.0
O9 O 0.1199 0.39123 0.48803 0.0
O10 O 0.10349 0.38634 0.52712 0.0
C11 C 0.16459 0.40101 0.44458 0.0
O12 O 0.14166 0.40626 0.43986 0.0
C13 C 0.17083 0.36617 0.54882 0.0
Zn14 Zn 0.97667 0.72048 0.70501 0.0
Zn15 Zn 0.98395 0.76819 0.68787 0.0
O16 O 0.95566 0.77072 0.71055 0.0
O17 O 0.9527 0.73485 0.72966 0.0
O18 O 0.98912 0.80171 0.67282 0.0
O19 O 1.01459 0.73128 0.72428 0.0
O20 O 1.0176 0.77152 0.7148 0.0
C21 C 0.94683 0.75695 0.72796 0.0
C22 C 0.97261 0.71524 0.64316 0.0
O23 O 0.97919 0.74047 0.65095 0.0
O24 O 0.96733 0.70131 0.66188 0.0
C25 C 1.01001 0.80918 0.66428 0.0
O26 O 0.0275 0.79491 0.66613 0.0
C27 C 0.02745 0.7549 0.72676 0.0
Zn28 Zn 0.64193 0.90468 0.05396 0.0
Zn29 Zn 0.66046 0.9061 0.00587 0.0
O30 O 0.6669 0.94584 0.02702 0.0
O31 O 0.65482 0.94353 0.06913 0.0
O32 O 0.67772 0.90398 0.97058 0.0
O33 O 0.66197 0.88018 0.06838 0.0
O34 O 0.67359 0.87755 0.02556 0.0
C35 C 0.6636 0.95735 0.05189 0.0
C36 C 0.60324 0.88758 1.00009 0.0
O37 O 0.62261 0.8931 0.98816 0.0
O38 O 0.60624 0.89026 0.02771 0.0
C39 C 0.66697 0.9042 0.94465 0.0
O40 O 0.64404 0.90949 0.94019 0.0
C41 C 0.67349 0.86986 0.04974 0.0
Zn42 Zn 0.47883 0.22525 0.20526 0.0
Zn43 Zn 0.49773 0.26993 0.18615 0.0
O44 O 0.47235 0.28033 0.21011 0.0
O45 O 0.45425 0.24417 0.22398 0.0
O46 O 0.50796 0.30135 0.16877 0.0
O47 O 0.51588 0.23152 0.22822 0.0
O48 O 0.52932 0.26859 0.21306 0.0
C49 C 0.45672 0.26875 0.22388 0.0
C50 C 0.47825 0.21464 0.14451 0.0
O51 O 0.48889 0.23936 0.15102 0.0
O52 O 0.4698 0.20325 0.16384 0.0
C53 C 0.49348 0.30328 0.14573 0.0
O54 O 0.47231 0.28475 0.13453 0.0
C55 C 0.53352 0.25162 0.22841 0.0
Zn56 Zn 0.09536 0.82207 0.22685 0.0
Zn57 Zn 0.06185 0.81513 0.257 0.0
O58 O 0.0565 0.8443 0.23157 0.0
O59 O 0.08984 0.85266 0.21053 0.0
O60 O 0.02663 0.81507 0.27398 0.0
O61 O 0.08207 0.78662 0.2013 0.0
O62 O 0.05475 0.77665 0.22984 0.0
C63 C 0.06871 0.85732 0.2154 0.0
C64 C 0.12371 0.82645 0.28147 0.0
O65 O 0.1006 0.82293 0.28731 0.0
O66 O 0.12658 0.82688 0.2556 0.0
C67 C 1.01534 0.81226 0.29573 0.0
O68 O 0.02838 0.80738 0.31932 0.0
C69 C 0.06487 0.76974 0.20777 0.0
Zn70 Zn 0.54121 0.83743 0.42306 0.0
Zn71 Zn 0.57739 0.85118 0.4003 0.0
O72 O 0.58197 0.88676 0.43116 0.0
O73 O 0.5472 0.87337 0.44842 0.0
O74 O 0.61274 0.85743 0.38304 0.0
O75 O 0.54986 0.81089 0.44378 0.0
O76 O 0.58392 0.82063 0.42417 0.0
C77 C 0.56671 0.89132 0.44863 0.0
C78 C 0.51564 0.837 0.3706 0.0
O79 O 0.53941 0.84779 0.37008 0.0
O80 O 0.51106 0.82624 0.3917 0.0
C81 C 0.62351 0.83958 0.37097 0.0
O82 O 0.61056 0.8146 0.36429 0.0
C83 C 0.57188 0.80778 0.44068 0.0
Zn84 Zn 0.59369 0.32215 0.72266 0.0
Zn85 Zn 0.56161 0.31807 0.75466 0.0
O86 O 0.55467 0.34691 0.72896 0.0
O87 O 0.5855 0.35034 0.70352 0.0
O88 O 0.53021 0.31834 0.77806 0.0
O89 O 0.58041 0.28605 0.69916 0.0
O90 O 0.55232 0.27905 0.72767 0.0
C91 C 0.56553 0.35704 0.70987 0.0
C92 C 0.62392 0.32939 0.77639 0.0
O93 O 0.6011 0.32608 0.78288 0.0
O94 O 0.62618 0.32903 0.7502 0.0
C95 C 0.50741 0.31583 0.76309 0.0
O96 O 0.50479 0.31243 0.73446 0.0
C97 C 0.56212 0.27068 0.70581 0.0
Zn98 Zn 0.04393 0.33534 0.92891 0.0
Zn99 Zn 0.07956 0.34823 0.90383 0.0
O100 O 0.08531 0.38461 0.93391 0.0
O101 O 0.05283 0.3712 0.95496 0.0
O102 O 0.11475 0.34908 0.88644 0.0
O103 O 0.05122 0.30689 0.94753 0.0
O104 O 0.08484 0.3175 0.92757 0.0
C105 C 0.07152 0.38924 0.95313 0.0
C106 C 1.01797 0.336 0.87589 0.0
O107 O 0.04174 0.34511 0.87392 0.0
O108 O 1.01351 0.32691 0.89807 0.0
C109 C 0.12774 0.3587 0.86844 0.0
O110 O 0.11784 0.37367 0.85223 0.0
C111 C 0.07304 0.30378 0.94353 0.0
Zn112 Zn 0.48329 0.11132 0.3102 0.0
Zn113 Zn 0.46669 0.15391 0.31691 0.0
O114 O 0.49048 0.15584 0.35822 0.0
O115 O 0.50619 0.12001 0.34933 0.0
O116 O 0.45178 0.18803 0.32204 0.0
O117 O 0.49747 0.11509 0.27532 0.0
O118 O 0.48435 0.15275 0.27867 0.0
C119 C 0.50481 0.14064 0.36681 0.0
C120 C 0.42989 0.0987 0.30595 0.0
O121 O 0.43348 0.12405 0.31142 0.0
O122 O 0.44859 0.08776 0.30391 0.0
C123 C 0.43189 0.18996 0.3046 0.0
O124 O 0.42162 0.17044 0.28175 0.0
C125 C 0.49506 0.13556 0.26539 0.0
Zn126 Zn 0.21087 0.14458 0.43741 0.0
Zn127 Zn 0.25486 0.13595 0.45312 0.0
O128 O 0.25748 0.15662 0.41926 0.0
O129 O 0.21807 0.16066 0.40413 0.0
O130 O 0.28768 0.12331 0.46139 0.0
O131 O 0.21746 0.16881 0.47819 0.0
O132 O 0.25685 0.16307 0.4893 0.0
C133 C 0.24152 0.16503 0.40232 0.0
C134 C 0.20202 0.09455 0.44465 0.0
O135 O 0.22611 0.10357 0.45461 0.0
O136 O 0.1898 0.1077 0.42992 0.0
C137 C 0.30927 0.1348 0.45677 0.0
O138 O 0.31068 0.15564 0.44449 0.0
C139 C 0.23885 0.17391 0.49598 0.0
Zn140 Zn 0.18682 0.10164 0.84628 0.0
Zn141 Zn 0.21294 0.06757 0.84339 0.0
O142 O 0.18986 0.06579 0.88091 0.0
O143 O 0.16907 0.09775 0.87908 0.0
O144 O 0.23073 0.03086 0.84074 0.0
O145 O 0.16532 0.0886 0.80649 0.0
O146 O 0.18804 0.05835 0.80015 0.0
C147 C 0.17378 0.07897 0.89101 0.0
C148 C 0.23518 0.13232 0.84604 0.0
O149 O 0.2398 0.10842 0.84366 0.0
O150 O 0.21306 0.13476 0.84985 0.0
C151 C 0.25325 0.02497 0.84236 0.0
O152 O 0.27353 0.04488 0.84744 0.0
C153 C 0.1704 0.06954 0.78982 0.0
Zn154 Zn 0.29197 0.91435 0.08104 0.0
Zn155 Zn 0.25128 0.92978 0.07514 0.0
O156 O 0.25016 0.90619 0.03187 0.0
O157 O 0.28767 0.8954 0.04036 0.0
O158 O 0.21917 0.94703 0.07546 0.0
O159 O 0.28725 0.89337 0.11071 0.0
O160 O 0.25417 0.91181 0.11345 0.0
C161 C 0.26732 0.89464 0.02268 0.0
C162 C 0.30387 0.9692 0.08985 0.0
O163 O 0.27957 0.96408 0.08147 0.0
O164 O 0.31495 0.95057 0.09371 0.0
C165 C 0.21953 0.968 0.06479 0.0
O166 O 0.23791 0.97511 0.05053 0.0
C167 C 0.26923 0.89777 0.12351 0.0
Zn168 Zn 0.40772 0.48818 0.18248 0.0
Zn169 Zn 0.36696 0.50483 0.16808 0.0
O170 O 0.35806 0.4712 0.13691 0.0
O171 O 0.3943 0.45823 0.14666 0.0
O172 O 0.33799 0.52252 0.15829 0.0
O173 O 0.39888 0.48004 0.21927 0.0
O174 O 0.36327 0.4936 0.20728 0.0
C175 C 0.37192 0.45463 0.13141 0.0
C176 C 0.42264 0.53566 0.16734 0.0
O177 O 0.39818 0.53112 0.16099 0.0
O178 O 0.43329 0.52073 0.18111 0.0
C179 C 0.33673 0.53101 0.13455 0.0
O180 O 0.35394 0.52754 0.11828 0.0
C181 C 0.37713 0.48297 0.22404 0.0
Zn182 Zn 0.85075 0.24427 0.0675 0.0
Zn183 Zn 0.89138 0.22905 0.07161 0.0
O184 O 0.88687 0.24605 0.03264 0.0
O185 O 0.85428 0.26486 0.03717 0.0
O186 O 0.92472 0.21444 0.07207 0.0
O187 O 0.85636 0.26385 0.10839 0.0
O188 O 0.89434 0.25385 0.11432 0.0
C189 C 0.8716 0.26019 0.0233 0.0
C190 C 0.83982 0.18903 0.06004 0.0
O191 O 0.86417 0.1942 0.06829 0.0
O192 O 0.82864 0.20747 0.05567 0.0
C193 C 0.92447 0.19223 0.05541 0.0
O194 O 0.90299 0.17933 0.03718 0.0
C195 C 0.87767 0.26532 0.12471 0.0
Zn196 Zn 0.12836 0.54395 0.32458 0.0
Zn197 Zn 0.15326 0.50799 0.32325 0.0
O198 O 0.13424 0.50898 0.36003 0.0
O199 O 0.10785 0.53567 0.3541 0.0
O200 O 0.17055 0.47579 0.32218 0.0
O201 O 0.1115 0.53659 0.28276 0.0
O202 O 0.13478 0.50645 0.27894 0.0
C203 C 0.11665 0.52006 0.36841 0.0
C204 C 0.18367 0.56425 0.33835 0.0
O205 O 0.18411 0.53968 0.3323 0.0
O206 O 0.16241 0.57116 0.33792 0.0
C207 C 0.18432 0.47097 0.34442 0.0
O208 O 0.18697 0.48652 0.37022 0.0
C209 C 0.11939 0.51916 0.26684 0.0
Zn210 Zn 0.90274 0.9866 0.68779 0.0
Zn211 Zn 0.86326 1.00608 0.67717 0.0
O212 O 0.85019 0.972 0.64689 0.0
O213 O 0.88162 0.95251 0.65952 0.0
O214 O 0.83382 0.02431 0.67282 0.0
O215 O 0.90411 0.98927 0.73025 0.0
O216 O 0.86513 0.99527 0.71757 0.0
C217 C 0.8599 0.95166 0.64411 0.0
C218 C 0.91631 0.03114 0.66444 0.0
O219 O 0.89267 0.03092 0.66448 0.0
O220 O 0.92631 0.01369 0.67416 0.0
C221 C 0.82651 0.02856 0.64748 0.0
O222 O 0.83885 0.02155 0.62658 0.0
C223 C 0.88213 0.98971 0.73601 0.0
Zn224 Zn 0.95727 0.05995 0.29676 0.0
Zn225 Zn 0.93022 0.09398 0.30115 0.0
O226 O 0.95515 0.10328 0.34459 0.0
O227 O 0.97708 0.07232 0.33741 0.0
O228 O 0.90739 0.12654 0.30176 0.0
O229 O 0.97625 0.06681 0.26515 0.0
O230 O 0.95231 0.0963 0.2633 0.0
C231 C 0.97232 0.0913 0.35456 0.0
C232 C 0.90839 0.02921 0.29587 0.0
O233 O 0.90427 0.05324 0.29984 0.0
O234 O 0.93023 0.0265 0.29109 0.0
C235 C 0.91494 0.15184 0.31402 0.0
O236 O 0.93888 0.16031 0.32835 0.0
C237 C 0.96955 0.08487 0.25323 0.0
Zn238 Zn 0.36602 0.76605 0.57078 0.0
Zn239 Zn 0.39906 0.74216 0.57577 0.0
O240 O 0.39761 0.76037 0.53727 0.0
O241 O 0.37613 0.79148 0.54658 0.0
O242 O 0.43075 0.72418 0.57691 0.0
O243 O 0.36619 0.78088 0.6115 0.0
O244 O 0.40054 0.76456 0.61982 0.0
C245 C 0.38893 0.78021 0.53033 0.0
C246 C 0.34525 0.71049 0.5559 0.0
O247 O 0.36792 0.71033 0.56814 0.0
O248 O 0.34007 0.7322 0.55138 0.0
C249 C 0.42904 0.7006 0.56233 0.0
O250 O 0.40671 0.68742 0.54603 0.0
C251 C 0.38468 0.77779 0.62943 0.0
Zn252 Zn 0.45766 0.56096 0.79695 0.0
Zn253 Zn 0.43373 0.59703 0.80189 0.0
O254 O 0.45891 0.60415 0.84485 0.0
O255 O 0.47897 0.57174 0.83701 0.0
O256 O 0.41736 0.63462 0.80634 0.0
O257 O 0.47593 0.56553 0.76457 0.0
O258 O 0.45657 0.59871 0.76414 0.0
C259 C 0.47532 0.59123 0.85442 0.0
C260 C 0.40817 0.53256 0.79632 0.0
O261 O 0.40516 0.5571 0.80029 0.0
O262 O 0.42972 0.52881 0.79169 0.0
C263 C 0.39503 0.64089 0.80483 0.0
O264 O 0.37446 0.62122 0.79865 0.0
C265 C 0.47206 0.58502 0.75345 0.0
Zn266 Zn 0.65007 0.06068 0.82082 0.0
Zn267 Zn 0.65947 0.0145 0.81576 0.0
O268 O 0.64092 0.01937 0.85235 0.0
O269 O 0.63033 0.05802 0.85197 0.0
O270 O 0.67116 0.9792 0.81458 0.0
O271 O 0.63262 0.05398 0.77907 0.0
O272 O 0.63738 0.01255 0.77367 0.0
C273 C 0.63033 0.03774 0.86309 0.0
C274 C 0.70287 0.06545 0.82896 0.0
O275 O 0.69517 0.04019 0.82107 0.0
O276 O 0.68682 0.07975 0.83259 0.0
C277 C 0.68606 0.97532 0.83648 0.0
O278 O 0.69199 0.99331 0.86107 0.0
C279 C 0.62914 0.03105 0.76313 0.0
Zn280 Zn 0.71537 0.6444 0.94347 0.0
Zn281 Zn 0.75921 0.6356 0.95649 0.0
O282 O 0.76305 0.6587 0.92524 0.0
O283 O 0.72504 0.66818 0.91712 0.0
O284 O 0.79215 0.62341 0.96343 0.0
O285 O 0.71948 0.66154 0.98662 0.0
O286 O 0.76039 0.66013 0.99465 0.0
C287 C 0.74797 0.67144 0.91324 0.0
C288 C 0.70669 0.59316 0.94263 0.0
O289 O 0.73042 0.60227 0.95442 0.0
O290 O 0.69534 0.60695 0.92787 0.0
C291 C 0.79585 0.61218 0.98504 0.0
O292 O 0.77782 0.60844 1.00067 0.0
C293 C 0.74133 0.66739 1.00361 0.0
Zn294 Zn 0.99854 0.6272 0.82207 0.0
Zn295 Zn 0.97146 0.66079 0.8262 0.0
O296 O 0.99227 0.66223 0.86964 0.0
O297 O 1.01635 0.6331 0.86319 0.0
O298 O 0.95141 0.69114 0.83006 0.0
O299 O 1.0182 0.63875 0.79326 0.0
O300 O 0.98897 0.6625 0.7882 0.0
C301 C 1.00864 0.64977 0.88032 0.0
C302 C 0.94433 0.60326 0.80957 0.0
O303 O 0.9426 0.62728 0.81744 0.0
O304 O 0.96605 0.59797 0.80802 0.0
C305 C 0.93521 0.69498 0.80924 0.0
O306 O 0.93174 0.67989 0.783 0.0
C307 C 1.00746 0.65338 0.7792 0.0
Zn308 Zn 0.7933 0.41524 0.58147 0.0
Zn309 Zn 0.75165 0.42697 0.57222 0.0
O310 O 0.75197 0.40091 0.53123 0.0
O311 O 0.79174 0.39575 0.54152 0.0
O312 O 0.71792 0.44148 0.5697 0.0
O313 O 0.78966 0.39499 0.61179 0.0
O314 O 0.75423 0.40998 0.61119 0.0
C315 C 0.7708 0.39145 0.52346 0.0
C316 C 0.80226 0.46945 0.5876 0.0
O317 O 0.77835 0.46266 0.57629 0.0
O318 O 0.81391 0.45213 0.59472 0.0
C319 C 0.71812 0.46344 0.58689 0.0
O320 O 0.73924 0.47539 0.60622 0.0
C321 C 0.77034 0.39776 0.62285 0.0
Zn322 Zn 0.68853 0.60112 0.34818 0.0
Zn323 Zn 0.71468 0.56542 0.3434 0.0
O324 O 0.69284 0.56395 0.38134 0.0
O325 O 0.66937 0.59388 0.37979 0.0
O326 O 0.73183 0.52863 0.34007 0.0
O327 O 0.66891 0.58924 0.30708 0.0
O328 O 0.6897 0.55722 0.30063 0.0
C329 C 0.67583 0.57561 0.39155 0.0
C330 C 0.73862 0.62989 0.34904 0.0
O331 O 0.74176 0.60544 0.34425 0.0
O332 O 0.71728 0.63356 0.3547 0.0
C333 C 0.75379 0.52262 0.33745 0.0
O334 O 0.77312 0.54217 0.33715 0.0
C335 C 0.67319 0.56967 0.29031 0.0
Nd336 Nd 0.08875 0.10083 0.07871 0.0
Nd337 Nd 0.05398 0.05689 0.06325 0.0
C338 C 0.12166 0.14762 0.09691 0.0
C339 C 0.12389 0.1704 0.08194 0.0
C340 C 0.12181 0.1953 0.09676 0.0
C341 C 0.11789 0.21519 0.08131 0.0
C342 C 0.11589 0.21054 0.05068 0.0
C343 C 0.11981 0.1863 0.03615 0.0
C344 C 0.12373 0.1664 0.05161 0.0
C345 C 0.08603 0.08356 0.01854 0.0
C346 C 0.03284 0.106 0.05026 0.0
C347 C 0.02665 1.00706 0.05085 0.0
C348 C 0.02752 0.98926 0.07185 0.0
C349 C 0.02015 0.9614 0.06274 0.0
C350 C 0.02471 0.94512 0.08286 0.0
C351 C 0.03702 0.95666 0.11205 0.0
C352 C 0.04349 0.98447 0.12125 0.0
C353 C 0.03859 1.0006 0.10142 0.0
C354 C 0.04613 0.08323 0.117 0.0
C355 C 0.11024 0.04989 0.09082 0.0
O356 O 0.10035 0.14173 0.10663 0.0
O357 O 0.12796 0.12638 0.08403 0.0
O358 O 0.08256 0.10635 0.03076 0.0
O359 O 0.0861 0.0688 0.03729 0.0
O360 O 0.05224 0.11716 0.07206 0.0
O361 O 0.0319 0.08152 0.03652 0.0
O362 O 0.04807 0.01408 0.04184 0.0
O363 O 1.01692 0.02747 0.05846 0.0
O364 O 0.02893 0.07413 0.09338 0.0
O365 O 0.06812 0.08037 0.11143 0.0
O366 O 0.08559 0.03869 0.08512 0.0
O367 O 0.11749 0.07525 0.09035 0.0
H368 H 0.12174 0.19884 0.12004 0.0
H369 H 0.11523 0.23382 0.09314 0.0
H370 H 0.11816 0.18202 0.01257 0.0
H371 H 0.12515 0.14737 0.03944 0.0
H372 H 1.01177 0.95231 0.04 0.0
H373 H 1.01986 0.92365 0.07535 0.0
H374 H 0.05313 0.99374 0.1436 0.0
H375 H 0.04445 0.02206 0.10899 0.0
Nd376 Nd 0.32298 0.85841 0.34123 0.0
Nd377 Nd 0.31342 0.7982 0.30684 0.0
C378 C 0.31695 0.90526 0.36673 0.0
C379 C 0.32414 0.93284 0.36224 0.0
C380 C 0.31329 0.94 0.33651 0.0
C381 C 0.32138 0.96572 0.33179 0.0
C382 C 0.34061 0.98481 0.35256 0.0
C383 C 0.35099 0.97777 0.37859 0.0
C384 C 0.34275 0.9521 0.38341 0.0
C385 C 0.36958 0.84806 0.32804 0.0
C386 C 0.30929 0.84498 0.26912 0.0
C387 C 0.31826 0.75087 0.28175 0.0
C388 C 0.30509 0.72413 0.28403 0.0
C389 C 0.31851 0.70372 0.28432 0.0
C390 C 0.30721 0.67955 0.29101 0.0
C391 C 0.28251 0.67576 0.29788 0.0
C392 C 0.26886 0.69595 0.29658 0.0
C393 C 0.28003 0.71987 0.28973 0.0
C394 C 0.26619 0.8068 0.31932 0.0
C395 C 0.33062 0.81147 0.37857 0.0
O396 O 0.29926 0.88829 0.34637 0.0
O397 O 0.33589 0.89485 0.37658 0.0
O398 O 0.36704 0.87137 0.34031 0.0
O399 O 0.34731 0.83275 0.32146 0.0
O400 O 0.3102 0.86235 0.29344 0.0
O401 O 0.31387 0.82104 0.26948 0.0
O402 O 0.33342 0.76503 0.30602 0.0
O403 O 0.30404 0.76459 0.26839 0.0
O404 O 0.27023 0.78442 0.30671 0.0
O405 O 0.28771 0.82386 0.32637 0.0
O406 O 0.32689 0.79408 0.35367 0.0
O407 O 0.32774 0.83628 0.37979 0.0
H408 H 0.29884 0.92567 0.31973 0.0
H409 H 0.31278 0.97055 0.31166 0.0
H410 H 0.36616 0.99179 0.39482 0.0
H411 H 0.35141 0.94709 0.40341 0.0
H412 H 0.33799 0.7068 0.28031 0.0
H413 H 0.31809 0.66425 0.29182 0.0
H414 H 0.24957 0.69334 0.30115 0.0
H415 H 0.26927 0.73527 0.28969 0.0
Nd416 Nd 0.59104 0.09953 0.56687 0.0
Nd417 Nd 0.54245 0.0757 0.56511 0.0
C418 C 0.63951 0.1161 0.56232 0.0
C419 C 0.66298 0.10602 0.56996 0.0
C420 C 0.66849 0.08534 0.55044 0.0
C421 C 0.69013 0.07524 0.55808 0.0
C422 C 0.70687 0.08565 0.58535 0.0
C423 C 0.70134 0.10626 0.60495 0.0
C424 C 0.67967 0.11639 0.5973 0.0
C425 C 0.58817 0.07867 0.61717 0.0
C426 C 0.57303 0.03843 0.53414 0.0
C427 C 0.49409 0.05846 0.56986 0.0
C428 C 0.46977 0.06449 0.55684 0.0
C429 C 0.45235 0.07065 0.57462 0.0
C430 C 0.42982 0.07761 0.56278 0.0
C431 C 0.42432 0.07862 0.53291 0.0
C432 C 0.44182 0.07242 0.51514 0.0
C433 C 0.46429 0.0654 0.52696 0.0
C434 C 0.5455 0.09731 0.51509 0.0
C435 C 0.56085 0.13736 0.59641 0.0
O436 O 0.62173 0.10135 0.54052 0.0
O437 O 0.62982 0.1261 0.58417 0.0
O438 O 0.59897 0.10278 0.6165 0.0
O439 O 0.57722 0.06632 0.59149 0.0
O440 O 0.58576 0.06166 0.53148 0.0
O441 O 0.55705 0.0379 0.55244 0.0
O442 O 0.51023 0.07787 0.58904 0.0
O443 O 0.50554 0.04543 0.55184 0.0
O444 O 0.5333 0.0736 0.51542 0.0
O445 O 0.55639 0.10902 0.5409 0.0
O446 O 0.54851 0.11439 0.60051 0.0
O447 O 0.57616 0.13704 0.57743 0.0
H448 H 0.65601 0.07676 0.52927 0.0
H449 H 0.69362 0.05907 0.54267 0.0
H450 H 0.71399 0.1149 0.62601 0.0
H451 H 0.67597 0.13233 0.61286 0.0
H452 H 0.45632 0.07034 0.59775 0.0
H453 H 0.4169 0.08264 0.57715 0.0
H454 H 0.43804 0.07274 0.492 0.0
H455 H 0.47743 0.06083 0.5127 0.0
Nd456 Nd 0.32837 0.33831 0.84422 0.0
Nd457 Nd 0.30547 0.32772 0.79243 0.0
C458 C 0.34182 0.34373 0.90145 0.0
C459 C 0.32897 0.34601 0.9266 0.0
C460 C 0.33183 0.32911 0.94631 0.0
C461 C 0.32399 0.3342 0.97307 0.0
C462 C 0.31388 0.3567 0.9807 0.0
C463 C 0.30818 0.37159 0.9594 0.0
C464 C 0.31561 0.36622 0.93247 0.0
C465 C 0.34323 0.38431 0.82146 0.0
C466 C 0.26961 0.3475 0.83275 0.0
C467 C 0.28858 0.32189 0.73548 0.0
C468 C 0.28679 0.30343 0.70806 0.0
C469 C 0.27645 0.3098 0.68188 0.0
C470 C 0.27382 0.29219 0.65536 0.0
C471 C 0.28144 0.26791 0.65475 0.0
C472 C 0.29228 0.2618 0.68111 0.0
C473 C 0.29492 0.27951 0.70771 0.0
C474 C 0.2922 0.28105 0.81517 0.0
C475 C 0.36614 0.32253 0.80216 0.0
O476 O 0.33572 0.32065 0.88339 0.0
O477 O 0.34417 0.36373 0.88819 0.0
O478 O 0.35869 0.37199 0.83448 0.0
O479 O 0.32008 0.37098 0.81829 0.0
O480 O 0.28546 0.33833 0.85053 0.0
O481 O 0.2767 0.35109 0.80822 0.0
O482 O 0.31169 0.33491 0.74895 0.0
O483 O 0.27426 0.31327 0.75321 0.0
O484 O 0.27626 0.29281 0.80214 0.0
O485 O 0.31493 0.29511 0.81797 0.0
O486 O 0.34599 0.32381 0.78317 0.0
O487 O 0.36416 0.32545 0.82984 0.0
H488 H 0.34157 0.31303 0.94181 0.0
H489 H 0.32805 0.32202 0.98885 0.0
H490 H 0.30041 0.38905 0.96449 0.0
H491 H 0.31251 0.37909 0.91719 0.0
H492 H 0.27026 0.32833 0.68197 0.0
H493 H 0.26581 0.29757 0.63531 0.0
H494 H 0.29813 0.24313 0.6812 0.0
H495 H 0.30299 0.27448 0.72796 0.0
Nd496 Nd 0.08035 0.10644 0.58046 0.0
Nd497 Nd 0.06547 0.04971 0.56138 0.0
C498 C 0.08809 0.15882 0.59466 0.0
C499 C 0.10154 0.18054 0.5831 0.0
C500 C 0.10639 0.2067 0.59902 0.0
C501 C 0.12087 0.22741 0.58935 0.0
C502 C 0.13083 0.22219 0.56364 0.0
C503 C 0.12578 0.19585 0.54762 0.0
C504 C 0.1113 0.1751 0.55738 0.0
C505 C 0.11752 0.08501 0.55739 0.0
C506 C 0.04835 0.0825 0.51301 0.0
C507 C 0.06127 0.99779 0.54721 0.0
C508 C 0.05897 0.97542 0.56231 0.0
C509 C 0.07621 0.97645 0.58828 0.0
C510 C 0.07326 0.9551 0.60253 0.0
C511 C 0.05288 0.93264 0.59123 0.0
C512 C 0.0356 0.93174 0.56538 0.0
C513 C 0.0387 0.95295 0.55097 0.0
C514 C 0.02838 0.07076 0.58547 0.0
C515 C 0.09499 0.0737 0.62973 0.0
O516 O 0.06699 0.14364 0.57775 0.0
O517 O 0.10303 0.14531 0.60685 0.0
O518 O 0.12237 0.10346 0.58079 0.0
O519 O 0.09392 0.07905 0.54651 0.0
O520 O 0.05208 0.1024 0.53586 0.0
O521 O 0.05623 0.06073 0.51665 0.0
O522 O 0.08338 0.01521 0.55381 0.0
O523 O 0.04149 1.00875 0.54467 0.0
O524 O 0.02338 0.05259 0.56166 0.0
O525 O 0.05214 0.07708 0.59556 0.0
O526 O 0.09229 0.05388 0.60707 0.0
O527 O 0.08641 0.09497 0.6254 0.0
H528 H 0.09914 0.21109 0.61904 0.0
H529 H 0.12395 0.24759 0.6018 0.0
H530 H 0.13323 0.19132 0.52778 0.0
H531 H 0.10795 0.1548 0.54512 0.0
H532 H 0.09183 0.99376 0.59769 0.0
H533 H 0.08662 0.9563 0.62263 0.0
H534 H 1.01983 0.91452 0.55618 0.0
H535 H 0.02518 0.95189 0.53104 0.0
Nd536 Nd 0.34824 0.84628 0.84265 0.0
Nd537 Nd 0.30255 0.82114 0.81013 0.0
C538 C 0.39373 0.87823 0.86628 0.0
C539 C 0.42039 0.87569 0.87257 0.0
C540 C 0.44041 0.89768 0.87398 0.0
C541 C 0.46591 0.89649 0.88325 0.0
C542 C 0.47155 0.87334 0.89143 0.0
C543 C 0.4515 0.85089 0.88863 0.0
C544 C 0.42606 0.85199 0.87906 0.0
C545 C 0.31387 0.83455 0.87906 0.0
C546 C 0.3442 0.78253 0.82589 0.0
C547 C 0.25807 0.78711 0.78751 0.0
C548 C 0.23031 0.78345 0.78659 0.0
C549 C 0.21819 0.76572 0.80216 0.0
C550 C 0.19155 0.76034 0.79967 0.0
C551 C 0.17662 0.77244 0.78136 0.0
C552 C 0.18882 0.79048 0.76613 0.0
C553 C 0.21544 0.79597 0.76874 0.0
C554 C 0.3369 0.83264 0.77379 0.0
C555 C 0.30636 0.88458 0.82667 0.0
O556 O 0.38317 0.87501 0.8387 0.0
O557 O 0.3784 0.8665 0.88136 0.0
O558 O 0.33605 0.8282 0.88094 0.0
O559 O 0.30939 0.84442 0.85673 0.0
O560 O 0.3614 0.8055 0.83473 0.0
O561 O 0.31976 0.78395 0.81874 0.0
O562 O 0.27232 0.7868 0.81244 0.0
O563 O 0.26894 0.80472 0.77392 0.0
O564 O 0.31449 0.83841 0.77131 0.0
O565 O 0.34129 0.82285 0.79615 0.0
O566 O 0.28914 0.86157 0.81937 0.0
O567 O 0.33097 0.88325 0.83266 0.0
H568 H 0.43627 0.91605 0.86894 0.0
H569 H 0.48108 0.91411 0.88548 0.0
H570 H 0.45548 0.83279 0.89466 0.0
H571 H 0.41078 0.83469 0.87777 0.0
H572 H 0.22927 0.75562 0.81585 0.0
H573 H 0.18261 0.7465 0.81178 0.0
H574 H 0.17774 0.7997 0.75138 0.0
H575 H 0.22422 0.80949 0.75621 0.0
Nd576 Nd 0.53722 0.0811 0.0449 0.0
Nd577 Nd 0.59311 0.10568 0.08249 0.0
C578 C 0.48776 0.07108 0.02145 0.0
C579 C 0.46486 0.07103 0.03445 0.0
C580 C 0.44042 0.05822 0.01784 0.0
C581 C 0.41933 0.05387 0.03168 0.0
C582 C 0.42255 0.06237 0.06228 0.0
C583 C 0.44678 0.07672 0.07837 0.0
C584 C 0.46774 0.08059 0.06461 0.0
C585 C 0.56668 0.04519 0.05211 0.0
C586 C 0.54681 0.09937 0.11829 0.0
C587 C 0.64253 0.11379 0.10425 0.0
C588 C 0.66475 0.1108 0.09059 0.0
C589 C 0.68282 0.09765 0.10247 0.0
C590 C 0.70467 0.09606 0.09034 0.0
C591 C 0.70887 0.10787 0.0663 0.0
C592 C 0.68988 0.11979 0.05364 0.0
C593 C 0.66802 0.12104 0.06549 0.0
C594 C 0.56545 0.14228 0.07033 0.0
C595 C 0.58401 0.08704 0.00974 0.0
O596 O 0.50341 0.09435 0.02427 0.0
O597 O 0.49981 0.05259 0.02714 0.0
O598 O 0.54802 0.04191 0.02991 0.0
O599 O 0.56662 0.06517 0.07164 0.0
O600 O 0.53109 0.09011 0.09257 0.0
O601 O 0.57214 0.10522 0.12115 0.0
O602 O 0.62607 0.09169 0.1039 0.0
O603 O 0.63144 0.13288 0.09812 0.0
O604 O 0.58253 0.14593 0.09413 0.0
O605 O 0.56484 0.12074 0.05303 0.0
O606 O 0.59994 0.09418 0.0355 0.0
O607 O 0.55872 0.08353 0.00691 0.0
H608 H 0.43792 0.05029 0.99456 0.0
H609 H 0.40097 0.04229 0.01871 0.0
H610 H 0.44985 0.08371 0.1019 0.0
H611 H 0.48637 0.09007 0.07792 0.0
H612 H 0.68031 0.0891 0.12146 0.0
H613 H 0.71858 0.08626 0.10031 0.0
H614 H 0.69241 0.12952 0.03547 0.0
H615 H 0.65409 0.13083 0.05549 0.0
Nd616 Nd 0.29094 0.31932 0.30625 0.0
Nd617 Nd 0.32974 0.34912 0.35788 0.0
C618 C 0.25408 0.30081 0.26049 0.0
C619 C 0.22769 0.30345 0.26375 0.0
C620 C 0.21942 0.32611 0.25722 0.0
C621 C 0.2034 0.33759 0.27367 0.0
C622 C 0.19543 0.32647 0.29671 0.0
C623 C 0.19994 0.3014 0.29964 0.0
C624 C 0.21558 0.28974 0.28296 0.0
C625 C 0.28275 0.30281 0.3574 0.0
C626 C 0.27696 0.36774 0.34833 0.0
C627 C 0.37022 0.36862 0.4009 0.0
C628 C 0.39685 0.36601 0.39955 0.0
C629 C 0.40309 0.3411 0.39925 0.0
C630 C 0.42192 0.33434 0.38417 0.0
C631 C 0.43446 0.35227 0.36917 0.0
C632 C 0.43164 0.37862 0.37393 0.0
C633 C 0.41316 0.38563 0.38954 0.0
C634 C 0.32806 0.37378 0.3112 0.0
C635 C 0.34262 0.29721 0.31509 0.0
O636 O 0.2706 0.32358 0.26329 0.0
O637 O 0.26377 0.28474 0.27524 0.0
O638 O 0.26502 0.3073 0.33837 0.0
O639 O 0.30395 0.30862 0.34973 0.0
O640 O 0.27622 0.35659 0.32094 0.0
O641 O 0.29366 0.36321 0.36958 0.0
O642 O 0.3531 0.34691 0.40042 0.0
O643 O 0.36136 0.38262 0.38308 0.0
O644 O 0.3285 0.38551 0.33768 0.0
O645 O 0.32784 0.34937 0.30944 0.0
O646 O 0.35075 0.31685 0.3387 0.0
O647 O 0.32039 0.29463 0.29745 0.0
H648 H 0.22803 0.33697 0.24225 0.0
H649 H 0.19973 0.35665 0.27054 0.0
H650 H 0.19333 0.292 0.31671 0.0
H651 H 0.22084 0.27185 0.2881 0.0
H652 H 0.39138 0.32572 0.40734 0.0
H653 H 0.42442 0.31406 0.38118 0.0
H654 H 0.44131 0.39279 0.36265 0.0
H655 H 0.40924 0.40525 0.39007 0.0
Nd656 Nd 0.58559 0.60763 0.07938 0.0
Nd657 Nd 0.57039 0.5507 0.06129 0.0
C658 C 0.59307 0.66 0.09341 0.0
C659 C 0.60568 0.68214 0.08187 0.0
C660 C 0.60959 0.70815 0.09788 0.0
C661 C 0.6234 0.72938 0.0884 0.0
C662 C 0.63363 0.72485 0.06281 0.0
C663 C 0.62944 0.69868 0.04661 0.0
C664 C 0.61561 0.67739 0.05618 0.0
C665 C 0.62211 0.58553 0.05563 0.0
C666 C 0.55291 0.58293 0.01243 0.0
C667 C 0.56607 0.49874 0.04734 0.0
C668 C 0.56141 0.47667 0.06236 0.0
C669 C 0.55542 0.45047 0.04619 0.0
C670 C 0.54968 0.42922 0.06011 0.0
C671 C 0.54984 0.43398 0.09036 0.0
C672 C 0.55618 0.46036 0.10656 0.0
C673 C 0.56186 0.48161 0.09259 0.0
C674 C 0.53402 0.57229 0.08635 0.0
C675 C 0.60061 0.57546 0.12931 0.0
O676 O 0.57183 0.64465 0.07697 0.0
O677 O 0.60861 0.64666 0.10487 0.0
O678 O 0.62747 0.6044 0.07872 0.0
O679 O 0.59841 0.57959 0.04537 0.0
O680 O 0.55682 0.60311 0.03503 0.0
O681 O 0.56099 0.56133 0.01637 0.0
O682 O 0.58819 0.51591 0.05702 0.0
O683 O 0.54674 0.51003 0.0423 0.0
O684 O 0.52846 0.5535 0.06304 0.0
O685 O 0.55788 0.57869 0.09557 0.0
O686 O 0.59748 0.55524 0.10694 0.0
O687 O 0.59232 0.59679 0.1246 0.0
H688 H 0.60217 0.712 0.11786 0.0
H689 H 0.62583 0.74941 0.10096 0.0
H690 H 0.63712 0.69469 0.02684 0.0
H691 H 0.61296 0.65722 0.04384 0.0
H692 H 0.55493 0.44649 0.0228 0.0
H693 H 0.5451 0.40905 0.04721 0.0
H694 H 0.55612 0.46455 0.12983 0.0
H695 H 0.56624 0.50187 0.10524 0.0
Nd696 Nd 0.85091 0.34893 0.34045 0.0
Nd697 Nd 0.80649 0.31914 0.30683 0.0
C698 C 0.89455 0.38406 0.36444 0.0
C699 C 0.92184 0.38421 0.37108 0.0
C700 C 0.93153 0.3634 0.35717 0.0
C701 C 0.95677 0.36166 0.36722 0.0
C702 C 0.97216 0.38048 0.39145 0.0
C703 C 0.9627 0.40185 0.40445 0.0
C704 C 0.93768 0.40373 0.39425 0.0
C705 C 0.81409 0.33927 0.37512 0.0
C706 C 0.85213 0.28589 0.32673 0.0
C707 C 0.76195 0.28504 0.28624 0.0
C708 C 0.73492 0.28615 0.28539 0.0
C709 C 0.72051 0.27179 0.30222 0.0
C710 C 0.69491 0.27294 0.30191 0.0
C711 C 0.68327 0.28825 0.28448 0.0
C712 C 0.69783 0.30282 0.2679 0.0
C713 C 0.72343 0.30186 0.26841 0.0
C714 C 0.84031 0.33192 0.2708 0.0
C715 C 0.80813 0.38336 0.31944 0.0
O716 O 0.88382 0.38022 0.33681 0.0
O717 O 0.88042 0.37055 0.37933 0.0
O718 O 0.83709 0.33514 0.38094 0.0
O719 O 0.81091 0.34588 0.3507 0.0
O720 O 0.86654 0.31029 0.33682 0.0
O721 O 0.82729 0.28374 0.31607 0.0
O722 O 0.77565 0.28665 0.31219 0.0
O723 O 0.77435 0.29891 0.2701 0.0
O724 O 0.81695 0.33533 0.26728 0.0
O725 O 0.84595 0.32396 0.29437 0.0
O726 O 0.79184 0.35961 0.31322 0.0
O727 O 0.83294 0.38353 0.3262 0.0
H728 H 0.91928 0.34797 0.33946 0.0
H729 H 0.96378 0.34495 0.35716 0.0
H730 H 0.97441 0.41653 0.42319 0.0
H731 H 0.9303 0.41973 0.40531 0.0
H732 H 0.72904 0.25963 0.31556 0.0
H733 H 0.68416 0.26164 0.31504 0.0
H734 H 0.68922 0.31433 0.25376 0.0
H735 H 0.73407 0.31323 0.25523 0.0
Nd736 Nd 0.05077 0.57342 0.57216 0.0
Nd737 Nd 0.09386 0.62287 0.58307 0.0
C738 C 1.00618 0.53911 0.55373 0.0
C739 C 0.98123 0.53987 0.56186 0.0
C740 C 0.9801 0.5566 0.58803 0.0
C741 C 0.95649 0.5579 0.59584 0.0
C742 C 0.93356 0.54222 0.57773 0.0
C743 C 0.93472 0.52599 0.55107 0.0
C744 C 0.95843 0.52493 0.54315 0.0
C745 C 0.09789 0.56633 0.59644 0.0
C746 C 0.06132 0.61454 0.63514 0.0
C747 C 0.13756 0.65858 0.60063 0.0
C748 C 0.16253 0.65929 0.59191 0.0
C749 C 0.17201 0.63599 0.58686 0.0
C750 C 0.19421 0.63619 0.57507 0.0
C751 C 0.20677 0.65949 0.56761 0.0
C752 C 0.1975 0.68281 0.57314 0.0
C753 C 0.17558 0.68273 0.5853 0.0
C754 C 0.04557 0.62953 0.56066 0.0
C755 C 0.08613 0.58105 0.52116 0.0
O756 O 1.01448 0.55747 0.53951 0.0
O757 O 0.02405 0.53628 0.57444 0.0
O758 O 0.07636 0.55573 0.60339 0.0
O759 O 0.0936 0.57926 0.57679 0.0
O760 O 0.04335 0.59711 0.61493 0.0
O761 O 0.08398 0.62429 0.62921 0.0
O762 O 0.13012 0.64031 0.61533 0.0
O763 O 0.11918 0.66067 0.58011 0.0
O764 O 0.06661 0.64239 0.55466 0.0
O765 O 0.05145 0.6164 0.57936 0.0
O766 O 0.10206 0.60086 0.54072 0.0
O767 O 0.06406 0.56887 0.52694 0.0
H768 H 0.99751 0.56857 0.60259 0.0
H769 H 0.95621 0.57074 0.61635 0.0
H770 H 0.9174 0.5133 0.53689 0.0
H771 H 0.95899 0.51214 0.52271 0.0
H772 H 0.16194 0.61748 0.59131 0.0
H773 H 0.20115 0.61805 0.57103 0.0
H774 H 0.2072 0.70113 0.56795 0.0
H775 H 0.1684 0.70076 0.58878 0.0
Nd776 Nd 0.82854 0.84171 0.35451 0.0
Nd777 Nd 0.81069 0.82322 0.2993 0.0
C778 C 0.84314 0.85532 0.41191 0.0
C779 C 0.83301 0.85375 0.43855 0.0
C780 C 0.80701 0.85311 0.43924 0.0
C781 C 0.79896 0.85644 0.46609 0.0
C782 C 0.81689 0.86048 0.49237 0.0
C783 C 0.84243 0.85878 0.49103 0.0
C784 C 0.85037 0.85543 0.46432 0.0
C785 C 0.84544 0.88221 0.32486 0.0
C786 C 0.7672 0.83925 0.33582 0.0
C787 C 0.79078 0.81449 0.24276 0.0
C788 C 0.78939 0.79595 0.21557 0.0
C789 C 0.77661 0.80051 0.1895 0.0
C790 C 0.77396 0.78248 0.1633 0.0
C791 C 0.78402 0.75959 0.16292 0.0
C792 C 0.79734 0.75535 0.1891 0.0
C793 C 0.79997 0.77348 0.2154 0.0
C794 C 0.80603 0.77874 0.32665 0.0
C795 C 0.86969 0.82075 0.31944 0.0
O796 O 0.84551 0.83296 0.39658 0.0
O797 O 0.83459 0.871 0.39592 0.0
O798 O 0.86011 0.87288 0.34274 0.0
O799 O 0.82251 0.86821 0.32045 0.0
O800 O 0.7863 0.84438 0.35857 0.0
O801 O 0.77215 0.83206 0.30957 0.0
O802 O 0.81328 0.83006 0.25474 0.0
O803 O 0.77864 0.80481 0.26172 0.0
O804 O 0.81566 0.78016 0.30325 0.0
O805 O 0.80081 0.80106 0.33576 0.0
O806 O 0.85415 0.82525 0.29741 0.0
O807 O 0.86116 0.82059 0.34408 0.0
H808 H 0.7933 0.85147 0.4193 0.0
H809 H 0.77915 0.85743 0.46642 0.0
H810 H 0.85697 0.86228 0.51072 0.0
H811 H 0.87048 0.85583 0.46399 0.0
H812 H 0.76845 0.81789 0.18946 0.0
H813 H 0.76398 0.78639 0.14331 0.0
H814 H 0.80512 0.73778 0.18933 0.0
H815 H 0.80988 0.76983 0.23558 0.0
Nd816 Nd 0.82503 0.36025 0.84194 0.0
Nd817 Nd 0.81121 0.30489 0.80978 0.0
C818 C 0.82242 0.40825 0.86806 0.0
C819 C 0.83478 0.43487 0.86485 0.0
C820 C 0.82241 0.45596 0.86963 0.0
C821 C 0.83256 0.4805 0.86306 0.0
C822 C 0.8552 0.48417 0.8515 0.0
C823 C 0.8678 0.46307 0.8474 0.0
C824 C 0.8576 0.43861 0.85382 0.0
C825 C 0.87221 0.34817 0.8346 0.0
C826 C 0.81216 0.35243 0.7719 0.0
C827 C 0.80649 0.25688 0.77768 0.0
C828 C 0.80776 0.23141 0.78613 0.0
C829 C 0.82135 0.23109 0.8139 0.0
C830 C 0.81772 0.20775 0.82485 0.0
C831 C 0.80035 0.18446 0.80823 0.0
C832 C 0.78829 0.18441 0.77954 0.0
C833 C 0.79192 0.20777 0.76862 0.0
C834 C 0.76934 0.31969 0.82977 0.0
C835 C 0.82908 0.31471 0.87938 0.0
O836 O 0.80584 0.39406 0.8449 0.0
O837 O 0.83753 0.39454 0.87983 0.0
O838 O 0.86952 0.37151 0.84622 0.0
O839 O 0.85017 0.33248 0.82561 0.0
O840 O 0.82288 0.36959 0.79654 0.0
O841 O 0.80514 0.3266 0.77113 0.0
O842 O 0.82794 0.2752 0.78423 0.0
O843 O 0.78691 0.26623 0.78412 0.0
O844 O 0.7772 0.29827 0.83345 0.0
O845 O 0.78541 0.33392 0.81834 0.0
O846 O 0.83027 0.29924 0.85473 0.0
O847 O 0.82123 0.337 0.87875 0.0
H848 H 0.80454 0.45321 0.87768 0.0
H849 H 0.82235 0.49633 0.86629 0.0
H850 H 0.88556 0.46541 0.83911 0.0
H851 H 0.86727 0.42246 0.8496 0.0
H852 H 0.83355 0.24923 0.82785 0.0
H853 H 0.82733 0.20834 0.84695 0.0
H854 H 0.77444 0.16692 0.76638 0.0
H855 H 0.78105 0.20779 0.7473 0.0
Nd856 Nd 0.78932 0.81986 0.8017 0.0
Nd857 Nd 0.82801 0.84791 0.85416 0.0
C858 C 0.75142 0.79961 0.75732 0.0
C859 C 0.72565 0.80394 0.76143 0.0
C860 C 0.71848 0.82723 0.75526 0.0
C861 C 0.70328 0.83967 0.77214 0.0
C862 C 0.69531 0.82911 0.7955 0.0
C863 C 0.69874 0.80366 0.79829 0.0
C864 C 0.71329 0.79089 0.78096 0.0
C865 C 0.78007 0.80351 0.85218 0.0
C866 C 0.77628 0.87034 0.84139 0.0
C867 C 0.8628 0.86791 0.90205 0.0
C868 C 0.88934 0.86383 0.90297 0.0
C869 C 0.89454 0.83963 0.90871 0.0
C870 C 0.91134 0.8277 0.89414 0.0
C871 C 0.9233 0.84005 0.87406 0.0
C872 C 0.92205 0.86643 0.87293 0.0
C873 C 0.9055 0.87847 0.88775 0.0
C874 C 0.83652 0.8662 0.80431 0.0
C875 C 0.84173 0.79813 0.81305 0.0
O876 O 0.76863 0.8212 0.7575 0.0
O877 O 0.76094 0.7845 0.77351 0.0
O878 O 0.7632 0.81022 0.83411 0.0
O879 O 0.80145 0.80748 0.8444 0.0
O880 O 0.77375 0.85686 0.81448 0.0
O881 O 0.79375 0.86719 0.86272 0.0
O882 O 0.84492 0.84629 0.89969 0.0
O883 O 0.8557 0.88273 0.88402 0.0
O884 O 0.8544 0.86159 0.82314 0.0
O885 O 0.81521 0.86045 0.81184 0.0
O886 O 0.84538 0.81218 0.83997 0.0
O887 O 0.82343 0.8008 0.79226 0.0
H888 H 0.72724 0.83763 0.74004 0.0
H889 H 0.70026 0.85894 0.769 0.0
H890 H 0.69208 0.79468 0.8156 0.0
H891 H 0.71767 0.77257 0.78586 0.0
H892 H 0.88293 0.8281 0.92096 0.0
H893 H 0.91238 0.8075 0.89579 0.0
H894 H 0.93171 0.87663 0.85815 0.0
H895 H 0.90268 0.89757 0.88361 0.0
Nd896 Nd 0.59147 0.60351 0.58065 0.0
Nd897 Nd 0.55617 0.55862 0.5655 0.0
C898 C 0.62121 0.65262 0.59272 0.0
C899 C 0.61757 0.67794 0.58495 0.0
C900 C 0.59346 0.68438 0.58297 0.0
C901 C 0.5881 0.70434 0.56831 0.0
C902 C 0.60691 0.71851 0.55557 0.0
C903 C 0.63151 0.71293 0.55898 0.0
C904 C 0.63675 0.69278 0.57345 0.0
C905 C 0.59883 0.57569 0.52743 0.0
C906 C 0.53307 0.60868 0.55449 0.0
C907 C 0.52426 0.51129 0.55007 0.0
C908 C 0.52618 0.48824 0.56409 0.0
C909 C 0.54906 0.47905 0.56671 0.0
C910 C 0.55249 0.45981 0.58313 0.0
C911 C 0.53313 0.44904 0.59736 0.0
C912 C 0.51021 0.45819 0.59488 0.0
C913 C 0.50676 0.4776 0.57834 0.0
C914 C 0.55919 0.57859 0.62533 0.0
C915 C 0.61235 0.55321 0.59286 0.0
O916 O 0.60851 0.64299 0.61144 0.0
O917 O 0.62055 0.63442 0.57004 0.0
O918 O 0.61601 0.58438 0.55116 0.0
O919 O 0.57697 0.57905 0.53296 0.0
O920 O 0.55682 0.62182 0.56643 0.0
O921 O 0.52766 0.58248 0.54874 0.0
O922 O 0.54235 0.51876 0.53575 0.0
O923 O 0.51901 0.53156 0.56635 0.0
O924 O 0.56344 0.55577 0.6144 0.0
O925 O 0.55836 0.59207 0.60537 0.0
O926 O 0.5924 0.5419 0.57178 0.0
O927 O 0.61412 0.57813 0.60607 0.0
H928 H 0.57838 0.6731 0.5915 0.0
H929 H 0.56882 0.70779 0.56588 0.0
H930 H 0.64658 0.72371 0.54992 0.0
H931 H 0.6554 0.68785 0.57435 0.0
H932 H 0.56473 0.48716 0.55669 0.0
H933 H 0.57063 0.4537 0.58509 0.0
H934 H 0.49493 0.45024 0.60554 0.0
H935 H 0.48915 0.48471 0.57718 0.0
Nd936 Nd 0.09887 0.59383 0.07055 0.0
Nd937 Nd 0.03904 0.57169 0.07252 0.0
C938 C 0.14494 0.61402 0.06242 0.0
C939 C 0.16986 0.60875 0.07462 0.0
C940 C 0.1839 0.5969 0.05566 0.0
C941 C 0.20521 0.58767 0.06682 0.0
C942 C 0.21305 0.59034 0.09724 0.0
C943 C 0.1995 0.60308 0.11626 0.0
C944 C 0.17806 0.61209 0.10508 0.0
C945 C 0.09436 0.5655 0.11566 0.0
C946 C 0.06988 0.53564 0.03317 0.0
C947 C 0.99405 0.54987 0.08258 0.0
C948 C 0.96807 0.55358 0.07212 0.0
C949 C 0.95288 0.56062 0.09237 0.0
C950 C 0.92911 0.56634 0.08293 0.0
C951 C 0.91999 0.56497 0.05298 0.0
C952 C 0.93518 0.55765 0.0327 0.0
C953 C 0.95901 0.55216 0.04217 0.0
C954 C 0.0424 0.59985 0.02761 0.0
C955 C 0.06754 0.63251 0.10519 0.0
O956 O 0.12902 0.5938 0.04374 0.0
O957 O 0.13358 0.62688 0.08101 0.0
O958 O 0.11605 0.57599 0.10943 0.0
O959 O 0.07682 0.57007 0.09779 0.0
O960 O 0.08657 0.55763 0.03298 0.0
O961 O 0.05271 0.53521 0.05049 0.0
O962 O 1.00987 0.57042 0.10084 0.0
O963 O 1.00499 0.53805 0.06277 0.0
O964 O 0.02096 0.58878 0.03406 0.0
O965 O 0.06073 0.59568 0.04498 0.0
O966 O 0.04995 0.61139 0.10641 0.0
O967 O 0.08555 0.63089 0.08932 0.0
H968 H 0.17774 0.59376 0.03212 0.0
H969 H 0.21493 0.57757 0.05151 0.0
H970 H 0.20524 0.6058 0.1398 0.0
H971 H 0.16749 0.62089 0.12034 0.0
H972 H 0.95966 0.56222 0.11558 0.0
H973 H 0.91813 0.57237 0.0992 0.0
H974 H 0.92864 0.55606 0.00946 0.0
H975 H 0.97044 0.54712 0.02601 0.0
H976 H 0.05813 0.28571 0.98945 0.0
H977 H 0.11536 0.28282 0.93526 0.0
H978 H 0.13419 0.25372 0.96393 0.0
H979 H 0.13371 0.22878 1.00454 0.0
H980 H 0.07613 0.23376 0.0581 0.0
H981 H 0.05823 0.26266 0.02953 0.0
C982 C 0.07465 0.27866 0.98361 0.0
C983 C 0.08509 0.28612 0.95993 0.0
C984 C 0.08542 0.26249 1.00029 0.0
C985 C 0.10683 0.27719 0.95324 0.0
C986 C 0.11758 0.2606 0.96966 0.0
C987 C 0.1173 0.23631 0.00992 0.0
C988 C 0.10646 0.22934 0.03368 0.0
C989 C 0.10696 0.25306 0.99325 0.0
C990 C 0.08521 0.23924 0.04042 0.0
C991 C 0.07479 0.25559 0.02392 0.0
H992 H 0.14457 0.7873 0.30026 0.0
H993 H 0.16039 0.87196 0.30525 0.0
H994 H 0.20664 0.87496 0.31966 0.0
H995 H 0.24377 0.85207 0.32376 0.0
H996 H 0.22624 0.76694 0.31821 0.0
H997 H 0.18059 0.76579 0.31152 0.0
C998 C 0.15795 0.80665 0.30615 0.0
C999 C 0.14845 0.82952 0.30277 0.0
C1000 C 0.18486 0.80808 0.31356 0.0
C1001 C 0.16669 0.85412 0.30885 0.0
C1002 C 0.19341 0.85576 0.31652 0.0
C1003 C 0.23005 0.83342 0.32195 0.0
C1004 C 0.23901 0.80957 0.32147 0.0
C1005 C 0.20298 0.8327 0.31795 0.0
C1006 C 0.22041 0.78568 0.31859 0.0
C1007 C 0.19399 0.7849 0.31469 0.0
H1008 H 0.58963 0.94185 0.44347 0.0
H1009 H 0.55207 0.89828 0.50081 0.0
H1010 H 0.55128 0.93975 0.53262 0.0
H1011 H 0.55813 0.98819 0.54253 0.0
H1012 H 0.59586 0.03288 0.48631 0.0
H1013 H 0.59965 0.99146 0.45587 0.0
C1014 C 0.58175 0.94155 0.46322 0.0
C1015 C 0.57069 0.91701 0.46956 0.0
C1016 C 0.58101 0.96569 0.48147 0.0
C1017 C 0.56043 0.9169 0.49519 0.0
C1018 C 0.5599 0.94062 0.51344 0.0
C1019 C 0.56726 0.98889 0.52368 0.0
C1020 C 0.57644 0.01351 0.51655 0.0
C1021 C 0.56953 0.96509 0.50644 0.0
C1022 C 0.58853 0.01411 0.49224 0.0
C1023 C 0.59072 0.99043 0.4748 0.0
H1024 H 0.45792 0.31003 0.73436 0.0
H1025 H 0.5025 0.32467 0.82194 0.0
H1026 H 0.46339 0.32747 0.84199 0.0
H1027 H 0.41575 0.32641 0.83448 0.0
H1028 H 0.37292 0.31182 0.74584 0.0
H1029 H 0.41173 0.3084 0.72687 0.0
C1030 C 0.45934 0.31379 0.75793 0.0
C1031 C 0.48363 0.3171 0.77644 0.0
C1032 C 0.43672 0.31541 0.76929 0.0
C1033 C 0.48442 0.32197 0.80691 0.0
C1034 C 0.46189 0.32359 0.81843 0.0
C1035 C 0.41485 0.3223 0.81101 0.0
C1036 C 0.39088 0.31934 0.79178 0.0
C1037 C 0.43779 0.32041 0.79985 0.0
C1038 C 0.39062 0.31422 0.76143 0.0
C1039 C 0.41301 0.31226 0.75041 0.0
H1040 H 0.05469 0.83499 0.65248 0.0
H1041 H 0.97453 0.83693 0.64741 0.0
H1042 H 0.98091 0.87562 0.62465 0.0
H1043 H 1.00903 0.90836 0.60543 0.0
H1044 H 0.08923 0.90699 0.61098 0.0
H1045 H 0.08316 0.86867 0.63465 0.0
C1046 C 0.03864 0.8439 0.64642 0.0
C1047 C 1.01418 0.83308 0.65148 0.0
C1048 C 0.04246 0.86621 0.63351 0.0
C1049 C 0.99358 0.84494 0.64376 0.0
C1050 C 0.99718 0.86702 0.6307 0.0
C1051 C 0.02511 0.89955 0.61176 0.0
C1052 C 0.04946 0.91019 0.6064 0.0
C1053 C 0.02148 0.87769 0.62534 0.0
C1054 C 0.07033 0.89906 0.61509 0.0
C1055 C 0.06684 0.87715 0.62846 0.0
H1056 H 0.58943 0.89241 0.94394 0.0
H1057 H 0.55837 0.86577 0.01558 0.0
H1058 H 0.51475 0.85673 0.98681 0.0
H1059 H 0.48548 0.85964 0.94293 0.0
H1060 H 0.5163 0.88874 0.87252 0.0
H1061 H 0.56022 0.89358 0.89924 0.0
C1062 C 0.57316 0.88431 0.95315 0.0
C1063 C 0.5771 0.87983 0.98187 0.0
C1064 C 0.54817 0.87976 0.93679 0.0
C1065 C 0.55581 0.86951 0.99356 0.0
C1066 C 0.53088 0.86435 0.97715 0.0
C1067 C 0.50186 0.86654 0.93324 0.0
C1068 C 0.49787 0.87369 0.90584 0.0
C1069 C 0.52686 0.86984 0.94898 0.0
C1070 C 0.51909 0.88316 0.89366 0.0
C1071 C 0.5441 0.88593 0.9089 0.0
H1072 H 0.5105 0.23036 0.10897 0.0
H1073 H 0.45694 0.1619 0.12107 0.0
H1074 H 0.47677 0.13251 0.09109 0.0
H1075 H 0.51577 0.1263 0.07285 0.0
H1076 H 0.57279 0.19428 0.06759 0.0
H1077 H 0.54527 0.22394 0.08303 0.0
C1078 C 0.50247 0.20901 0.1041 0.0
C1079 C 0.48265 0.19827 0.11785 0.0
C1080 C 0.51503 0.19209 0.08831 0.0
C1081 C 0.47238 0.17064 0.11107 0.0
C1082 C 0.48391 0.15374 0.09404 0.0
C1083 C 0.52144 0.14734 0.07356 0.0
C1084 C 0.54587 0.15807 0.06865 0.0
C1085 C 0.5062 0.16417 0.08418 0.0
C1086 C 0.55375 0.18566 0.07085 0.0
C1087 C 0.53814 0.20257 0.07995 0.0
H1088 H 0.1475 0.39759 0.38602 0.0
H1089 H 0.20679 0.37955 0.447 0.0
H1090 H 0.22113 0.35492 0.40653 0.0
H1091 H 0.21527 0.336 0.35432 0.0
H1092 H 0.15761 0.35485 0.2924 0.0
H1093 H 0.1443 0.38186 0.33274 0.0
C1094 C 0.16374 0.38854 0.39043 0.0
C1095 C 0.17574 0.39011 0.41961 0.0
C1096 C 0.17195 0.37424 0.36694 0.0
C1097 C 0.197 0.37854 0.42486 0.0
C1098 C 0.20515 0.36425 0.40172 0.0
C1099 C 0.19951 0.34572 0.34968 0.0
C1100 C 0.18681 0.34276 0.32057 0.0
C1101 C 0.19236 0.36143 0.37279 0.0
C1102 C 0.16728 0.35645 0.31472 0.0
C1103 C 0.15977 0.37191 0.33775 0.0
H1104 H 1.0171 0.07874 0.24305 0.0
H1105 H 0.95051 0.10362 0.20413 0.0
H1106 H 0.96885 0.10638 0.15985 0.0
H1107 H 1.0026 0.09857 0.13042 0.0
H1108 H 0.06981 0.0754 0.17043 0.0
H1109 H 0.05262 0.07527 0.21567 0.0
C1110 C 1.00658 0.08514 0.22509 0.0
C1111 C 0.98208 0.09091 0.22744 0.0
C1112 C 1.01746 0.08683 0.19958 0.0
C1113 C 0.96925 0.09924 0.20358 0.0
C1114 C 0.97977 0.10062 0.17801 0.0
C1115 C 1.01376 0.09387 0.14918 0.0
C1116 C 0.03778 0.08703 0.14658 0.0
C1117 C 1.00368 0.09404 0.17548 0.0
C1118 C 0.05164 0.08101 0.17142 0.0
C1119 C 0.0416 0.08077 0.19738 0.0
H1120 H 0.35909 0.75078 0.47979 0.0
H1121 H 0.41269 0.82604 0.51673 0.0
H1122 H 0.39855 0.84334 0.47335 0.0
H1123 H 0.36798 0.83823 0.42648 0.0
H1124 H 0.31379 0.76293 0.3905 0.0
H1125 H 0.33043 0.74477 0.43196 0.0
C1126 C 0.36842 0.77056 0.47771 0.0
C1127 C 0.38762 0.78678 0.50096 0.0
C1128 C 0.35924 0.78076 0.45332 0.0
C1129 C 0.39859 0.81286 0.49865 0.0
C1130 C 0.39009 0.82292 0.4741 0.0
C1131 C 0.35965 0.81798 0.42799 0.0
C1132 C 0.3393 0.80214 0.40569 0.0
C1133 C 0.36983 0.80736 0.45169 0.0
C1134 C 0.32921 0.77567 0.40754 0.0
C1135 C 0.33889 0.76516 0.43113 0.0
H1136 H 0.65409 0.05135 0.72484 0.0
H1137 H 0.58019 1.00717 0.73234 0.0
H1138 H 0.56055 0.0156 0.68517 0.0
H1139 H 0.56381 0.04135 0.64508 0.0
H1140 H 0.63831 0.08757 0.64116 0.0
H1141 H 0.65825 0.07255 0.68314 0.0
C1142 C 0.63386 0.04273 0.71554 0.0
C1143 C 0.6187 0.02818 0.7316 0.0
C1144 C 0.62269 0.04861 0.68921 0.0
C1145 C 0.59235 0.01781 0.71992 0.0
C1146 C 0.58109 0.02302 0.69316 0.0
C1147 C 0.58444 0.04765 0.65319 0.0
C1148 C 0.5995 0.06582 0.64019 0.0
C1149 C 0.59592 0.03925 0.67807 0.0
C1150 C 0.62621 0.07392 0.65098 0.0
C1151 C 0.6377 0.06528 0.67499 0.0
H1152 H 0.32441 0.43942 0.09603 0.0
H1153 H 0.39745 0.41703 0.11266 0.0
H1154 H 0.38312 0.38059 0.07002 0.0
H1155 H 0.35294 0.35973 0.02483 0.0
H1156 H 0.28027 0.38223 0.00615 0.0
H1157 H 0.29125 0.41379 0.05341 0.0
C1158 C 0.33709 0.4264 0.09047 0.0
C1159 C 0.36216 0.43127 0.1071 0.0
C1160 C 0.32882 0.40555 0.06572 0.0
C1161 C 0.37821 0.41399 0.09995 0.0
C1162 C 0.37002 0.39307 0.07563 0.0
C1163 C 0.33893 0.37065 0.03145 0.0
C1164 C 0.31591 0.36881 0.01189 0.0
C1165 C 0.34571 0.38922 0.05795 0.0
C1166 C 0.29826 0.38354 0.02076 0.0
C1167 C 0.30461 0.4017 0.04764 0.0
H1168 H 1.00968 0.06863 0.37694 0.0
H1169 H 0.96566 0.12571 0.40413 0.0
H1170 H 0.98604 0.12944 0.4557 0.0
H1171 H 1.01526 0.11409 0.49358 0.0
H1172 H 0.05616 0.05487 0.46287 0.0
H1173 H 0.03789 0.05434 0.41256 0.0
C1174 C 1.0044 0.08213 0.3939 0.0
C1175 C 0.98593 0.09684 0.38619 0.0
C1176 C 1.01561 0.08359 0.42326 0.0
C1177 C 0.97979 0.11416 0.40904 0.0
C1178 C 0.9914 0.11616 0.43864 0.0
C1179 C 0.02028 0.10125 0.47583 0.0
C1180 C 0.03717 0.08443 0.48242 0.0
C1181 C 1.00917 0.10064 0.44615 0.0
C1182 C 0.04319 0.06785 0.45891 0.0
C1183 C 0.03277 0.06756 0.4299 0.0
H1184 H 0.36984 0.82189 0.65112 0.0
H1185 H 0.39969 0.75748 0.67846 0.0
H1186 H 0.38972 0.77041 0.72739 0.0
H1187 H 0.3673 0.79706 0.76026 0.0
H1188 H 0.33495 0.85885 0.7294 0.0
H1189 H 0.35093 0.84985 0.68405 0.0
C1190 C 0.37471 0.81093 0.66794 0.0
C1191 C 0.38556 0.78874 0.66104 0.0
C1192 C 0.368 0.81783 0.69535 0.0
C1193 C 0.39171 0.77485 0.68319 0.0
C1194 C 0.38564 0.78206 0.71106 0.0
C1195 C 0.36421 0.80884 0.74379 0.0
C1196 C 0.34988 0.82869 0.74825 0.0
C1197 C 0.37302 0.80306 0.71712 0.0
C1198 C 0.3458 0.84352 0.72655 0.0
C1199 C 0.35494 0.83836 0.70057 0.0
H1200 H 0.65106 0.07266 0.91299 0.0
H1201 H 0.58743 1.00588 0.87373 0.0
H1202 H 0.56625 0.01626 0.91548 0.0
H1203 H 0.56464 0.04699 0.96132 0.0
H1204 H 0.62971 0.1126 1.0006 0.0
H1205 H 0.65129 0.10063 0.96021 0.0
C1206 C 0.63288 0.05995 0.91406 0.0
C1207 C 0.6209 0.03836 0.89073 0.0
C1208 C 0.62076 0.06644 0.93759 0.0
C1209 C 0.59719 0.02224 0.89186 0.0
C1210 C 0.58494 0.02849 0.91545 0.0
C1211 C 0.58345 0.05872 0.96082 0.0
C1212 C 0.59543 0.08092 0.98363 0.0
C1213 C 0.59623 0.05105 0.93802 0.0
C1214 C 0.62003 0.09563 0.98313 0.0
C1215 C 0.63245 0.08867 0.96019 0.0
H1216 H 0.37815 0.43232 0.22254 0.0
H1217 H 0.3476 0.49593 0.26446 0.0
H1218 H 0.32734 0.46615 0.29372 0.0
H1219 H 0.32086 0.42279 0.30885 0.0
H1220 H 0.35006 0.35902 0.26471 0.0
H1221 H 0.36801 0.38811 0.23387 0.0
C1222 C 0.36727 0.43974 0.23836 0.0
C1223 C 0.36504 0.4664 0.2424 0.0
C1224 C 0.35528 0.42245 0.25414 0.0
C1225 C 0.34998 0.4756 0.26176 0.0
C1226 C 0.33837 0.45858 0.27822 0.0
C1227 C 0.33089 0.41524 0.29218 0.0
C1228 C 0.33455 0.38908 0.28912 0.0
C1229 C 0.3412 0.43208 0.27479 0.0
C1230 C 0.34712 0.37916 0.26731 0.0
C1231 C 0.35753 0.39581 0.24994 0.0
H1232 H 0.17358 0.95885 0.08554 0.0
H1233 H 0.22539 0.01888 0.05702 0.0
H1234 H 0.19798 0.04993 0.06549 0.0
H1235 H 0.15847 0.06016 0.07888 0.0
H1236 H 0.10447 1.0002 0.10438 0.0
H1237 H 0.13341 0.96958 0.09968 0.0
C1238 C 0.17887 0.97872 0.08123 0.0
C1239 C 0.20164 0.98619 0.0704 0.0
C1240 C 0.16262 0.99679 0.08583 0.0
C1241 C 0.208 1.01218 0.06502 0.0
C1242 C 0.19234 0.03018 0.07001 0.0
C1243 C 0.15322 0.04061 0.08403 0.0
C1244 C 0.12942 0.03278 0.09245 0.0
C1245 C 0.16954 0.02273 0.08023 0.0
C1246 C 0.12276 1.00698 0.0982 0.0
C1247 C 0.13928 0.98934 0.0953 0.0
H1248 H 0.71798 0.58653 0.99809 0.0
H1249 H 0.6584 0.56173 0.92021 0.0
H1250 H 0.62594 0.55211 0.95006 0.0
H1251 H 0.61397 0.56183 0.99825 0.0
H1252 H 0.6735 0.59365 0.07559 0.0
H1253 H 0.70654 0.58978 0.04615 0.0
C1254 C 0.69805 0.57786 0.98745 0.0
C1255 C 0.69053 0.57524 0.95698 0.0
C1256 C 0.67937 0.57472 1.00489 0.0
C1257 C 0.66463 0.56398 0.94363 0.0
C1258 C 0.64602 0.55899 0.96076 0.0
C1259 C 0.63418 0.5673 0.00869 0.0
C1260 C 0.64145 0.57849 0.03886 0.0
C1261 C 0.65303 0.56608 0.99144 0.0
C1262 C 0.66759 0.5854 0.05227 0.0
C1263 C 0.68644 0.58313 0.03546 0.0
H1264 H 0.79939 0.50625 0.33458 0.0
H1265 H 0.71937 0.473 0.33234 0.0
H1266 H 0.72795 0.42791 0.32586 0.0
H1267 H 0.75894 0.3968 0.3208 0.0
H1268 H 0.83877 0.43248 0.3239 0.0
H1269 H 0.8294 0.47645 0.3299 0.0
C1270 C 0.78357 0.48931 0.33272 0.0
C1271 C 0.75851 0.49394 0.33407 0.0
C1272 C 0.78871 0.46314 0.32897 0.0
C1273 C 0.73882 0.47091 0.33155 0.0
C1274 C 0.74381 0.4448 0.32774 0.0
C1275 C 0.77431 0.4141 0.3225 0.0
C1276 C 0.79984 0.41034 0.32151 0.0
C1277 C 0.76876 0.44041 0.32631 0.0
C1278 C 0.81905 0.43378 0.32432 0.0
C1279 C 0.81368 0.45937 0.32786 0.0
H1280 H 0.84029 0.49931 0.63057 0.0
H1281 H 0.80058 0.49647 0.54326 0.0
H1282 H 0.8387 0.52532 0.53405 0.0
H1283 H 0.88603 0.54035 0.54659 0.0
H1284 H 0.92598 0.53858 0.63263 0.0
H1285 H 0.88521 0.52321 0.64688 0.0
C1286 C 0.83968 0.50615 0.61007 0.0
C1287 C 0.81812 0.49555 0.58741 0.0
C1288 C 0.86203 0.52133 0.60447 0.0
C1289 C 0.81712 0.50448 0.56098 0.0
C1290 C 0.83908 0.52055 0.55555 0.0
C1291 C 0.88569 0.53716 0.56865 0.0
C1292 C 0.90896 0.53996 0.58825 0.0
C1293 C 0.86215 0.52734 0.5764 0.0
C1294 C 0.90836 0.53649 0.61704 0.0
C1295 C 0.88502 0.5275 0.62518 0.0
H1296 H 0.39204 0.20112 0.26924 0.0
H1297 H 0.44254 0.23029 0.3538 0.0
H1298 H 0.4196 0.26572 0.36467 0.0
H1299 H 0.38399 0.28779 0.35067 0.0
H1300 H 0.33459 0.25868 0.26544 0.0
H1301 H 0.35782 0.22378 0.25475 0.0
C1302 C 0.39821 0.21527 0.29004 0.0
C1303 C 0.4191 0.21282 0.31066 0.0
C1304 C 0.3849 0.23567 0.29616 0.0
C1305 C 0.42667 0.23158 0.33741 0.0
C1306 C 0.41345 0.25188 0.34369 0.0
C1307 C 0.37864 0.27414 0.32958 0.0
C1308 C 0.35782 0.27649 0.30876 0.0
C1309 C 0.39241 0.25408 0.32331 0.0
C1310 C 0.3506 0.25779 0.28191 0.0
C1311 C 0.36394 0.23772 0.27569 0.0
H1312 H 0.31443 0.1 0.49271 0.0
H1313 H 0.35716 0.14974 0.44427 0.0
H1314 H 0.39642 0.13633 0.46305 0.0
H1315 H 0.41886 0.11155 0.49448 0.0
H1316 H 0.37593 0.06225 0.54315 0.0
H1317 H 0.33657 0.07476 0.52332 0.0
C1318 C 0.33228 0.1078 0.48607 0.0
C1319 C 0.33283 0.12583 0.46707 0.0
C1320 C 0.35481 0.10029 0.49723 0.0
C1321 C 0.3562 0.13587 0.45891 0.0
C1322 C 0.37866 0.12823 0.46965 0.0
C1323 C 0.40083 0.10333 0.5005 0.0
C1324 C 0.40037 0.08603 0.52035 0.0
C1325 C 0.37823 0.11059 0.48899 0.0
C1326 C 0.37691 0.07588 0.52826 0.0
C1327 C 0.35436 0.08289 0.51678 0.0
H1328 H 0.74126 0.68254 0.37231 0.0
H1329 H 0.7778 0.63452 0.31593 0.0
H1330 H 0.80178 0.67531 0.30409 0.0
H1331 H 0.81072 0.72556 0.30752 0.0
H1332 H 0.77376 0.77201 0.36526 0.0
H1333 H 0.75195 0.73148 0.37825 0.0
C1334 C 0.75475 0.68073 0.35771 0.0
C1335 C 0.7575 0.65476 0.34536 0.0
C1336 C 0.76839 0.70445 0.35079 0.0
C1337 C 0.77523 0.65369 0.32637 0.0
C1338 C 0.78885 0.67727 0.31931 0.0
C1339 C 0.79804 0.72691 0.32311 0.0
C1340 C 0.79412 0.75257 0.33516 0.0
C1341 C 0.78537 0.70291 0.331 0.0
C1342 C 0.77748 0.75318 0.3554 0.0
C1343 C 0.76484 0.72975 0.36293 0.0
H1344 H 0.91008 0.60027 0.84527 0.0
H1345 H 0.93079 0.55619 0.77014 0.0
H1346 H 0.90168 0.5154 0.77437 0.0
H1347 H 0.87541 0.49143 0.80355 0.0
H1348 H 0.85895 0.53462 0.88227 0.0
H1349 H 0.88094 0.57669 0.87237 0.0
C1350 C 0.90751 0.58187 0.82931 0.0
C1351 C 0.92232 0.58105 0.80736 0.0
C1352 C 0.8919 0.5583 0.83291 0.0
C1353 C 0.91941 0.55712 0.78712 0.0
C1354 C 0.90297 0.53383 0.7897 0.0
C1355 C 0.8766 0.51006 0.81852 0.0
C1356 C 0.86591 0.50987 0.84384 0.0
C1357 C 0.89001 0.534 0.81324 0.0
C1358 C 0.86697 0.53422 0.86259 0.0
C1359 C 0.87967 0.55827 0.85703 0.0
H1360 H 0.0954 0.89739 0.19593 0.0
H1361 H 1.01792 0.85936 0.19988 0.0
H1362 H 1.00082 0.88665 0.16757 0.0
H1363 H 1.00831 0.91983 0.13581 0.0
H1364 H 0.08631 0.9575 0.13345 0.0
H1365 H 0.1029 0.9315 0.1672 0.0
C1366 C 0.07474 0.89521 0.18997 0.0
C1367 C 0.05794 0.87633 0.20014 0.0
C1368 C 0.0652 0.91063 0.17131 0.0
C1369 C 0.03125 0.87392 0.19249 0.0
C1370 C 0.02149 0.88932 0.17379 0.0
C1371 C 0.02888 0.92216 0.14276 0.0
C1372 C 0.04616 0.94026 0.13214 0.0
C1373 C 0.0383 0.90741 0.16262 0.0
C1374 C 0.07278 0.94356 0.1414 0.0
C1375 C 0.08224 0.92879 0.1607 0.0
H1376 H 0.97185 0.30057 0.85479 0.0
H1377 H 1.01018 0.38179 0.85828 0.0
H1378 H 0.9683 0.39281 0.84498 0.0
H1379 H 0.92022 0.38054 0.83848 0.0
H1380 H 0.88236 0.29875 0.83351 0.0
H1381 H 0.92424 0.28689 0.84135 0.0
C1382 C 0.97115 0.32046 0.85141 0.0
C1383 C 0.99453 0.34015 0.85698 0.0
C1384 C 0.94682 0.32673 0.84425 0.0
C1385 C 0.99289 0.36596 0.85327 0.0
C1386 C 0.96876 0.37239 0.84623 0.0
C1387 C 0.92111 0.36001 0.8386 0.0
C1388 C 0.89787 0.34059 0.83547 0.0
C1389 C 0.94552 0.35316 0.84262 0.0
C1390 C 0.89964 0.31412 0.83567 0.0
C1391 C 0.92371 0.30733 0.84026 0.0
H1392 H 0.56513 0.25665 0.64971 0.0
H1393 H 0.54057 0.22328 0.72089 0.0
H1394 H 0.53565 0.17797 0.69189 0.0
H1395 H 0.54348 0.1484 0.64805 0.0
H1396 H 0.57136 0.18445 0.57982 0.0
H1397 H 0.57024 0.22822 0.60617 0.0
C1398 C 0.55843 0.23949 0.65892 0.0
C1399 C 0.55355 0.2433 0.68756 0.0
C1400 C 0.5567 0.21398 0.64275 0.0
C1401 C 0.54442 0.22086 0.69887 0.0
C1402 C 0.5419 0.19501 0.68239 0.0
C1403 C 0.54898 0.16585 0.6389 0.0
C1404 C 0.55771 0.16319 0.6121 0.0
C1405 C 0.54878 0.19136 0.6546 0.0
C1406 C 0.56485 0.18594 0.6005 0.0
C1407 C 0.56414 0.21101 0.6155 0.0
H1408 H 0.64533 0.81337 0.32943 0.0
H1409 H 0.66525 0.87875 0.40418 0.0
H1410 H 0.71105 0.88426 0.40127 0.0
H1411 H 0.74641 0.86927 0.378 0.0
H1412 H 0.72451 0.80611 0.30069 0.0
H1413 H 0.67937 0.8011 0.30421 0.0
C1414 C 0.65958 0.8291 0.34495 0.0
C1415 C 0.65137 0.84564 0.36699 0.0
C1416 C 0.686 0.83246 0.3428 0.0
C1417 C 0.67055 0.86585 0.38674 0.0
C1418 C 0.69695 0.86887 0.38519 0.0
C1419 C 0.73176 0.85449 0.36186 0.0
C1420 C 0.73938 0.83803 0.33905 0.0
C1421 C 0.7051 0.85212 0.36345 0.0
C1422 C 0.71971 0.81921 0.31838 0.0
C1423 C 0.69365 0.81624 0.32039 0.0
H1424 H 0.15866 0.32087 0.50811 0.0
H1425 H 0.1962 0.3551 0.59783 0.0
H1426 H 0.19169 0.31059 0.60886 0.0
H1427 H 0.16826 0.26387 0.59573 0.0
H1428 H 0.12502 0.23086 0.50784 0.0
H1429 H 0.14089 0.27262 0.49303 0.0
C1430 C 0.16693 0.31841 0.52968 0.0
C1431 C 0.17776 0.34099 0.55218 0.0
C1432 C 0.16254 0.29297 0.5363 0.0
C1433 C 0.18794 0.33782 0.58023 0.0
C1434 C 0.18502 0.31244 0.58659 0.0
C1435 C 0.1627 0.26573 0.57321 0.0
C1436 C 0.14507 0.24466 0.55308 0.0
C1437 C 0.17091 0.29013 0.56527 0.0
C1438 C 0.1385 0.24691 0.52378 0.0
C1439 C 0.14743 0.27085 0.51535 0.0
H1440 H 0.56954 0.2976 0.24843 0.0
H1441 H 0.55588 0.21304 0.24539 0.0
H1442 H 0.60117 0.21749 0.26637 0.0
H1443 H 0.6452 0.24457 0.27904 0.0
H1444 H 0.65905 0.32933 0.28205 0.0
H1445 H 0.61288 0.32571 0.26737 0.0
C1446 C 0.57645 0.28022 0.25274 0.0
C1447 C 0.55962 0.2549 0.24511 0.0
C1448 C 0.60247 0.28299 0.26443 0.0
C1449 C 0.56858 0.23262 0.25118 0.0
C1450 C 0.59446 0.23519 0.26298 0.0
C1451 C 0.6381 0.2624 0.27737 0.0
C1452 C 0.65545 0.28711 0.28121 0.0
C1453 C 0.61168 0.26015 0.26883 0.0
C1454 C 0.64599 0.30999 0.27862 0.0
C1455 C 0.61966 0.30795 0.2703 0.0
H1456 H 0.64585 0.98208 0.01063 0.0
H1457 H 0.67184 0.99329 0.10381 0.0
H1458 H 0.64515 0.02555 0.11265 0.0
H1459 H 0.60625 0.04094 0.09398 0.0
H1460 H 0.57722 0.02362 1.0007 0.0
H1461 H 0.61234 1.00287 0.99184 0.0
C1462 C 0.64667 0.99255 0.03282 0.0
C1463 C 0.66039 0.98502 0.05651 0.0
C1464 C 0.62957 1.00905 0.03776 0.0
C1465 C 0.66125 0.99873 0.08518 0.0
C1466 C 0.64553 0.0167 0.09026 0.0
C1467 C 0.60815 0.03327 0.07178 0.0
C1468 C 0.58928 0.03405 0.0481 0.0
C1469 C 0.62819 0.02045 0.06678 0.0
C1470 C 0.5915 0.02338 0.0194 0.0
C1471 C 0.61169 1.01153 0.01421 0.0
H1472 H 0.95988 0.75773 0.78527 0.0
H1473 H 0.91237 0.78838 0.7233 0.0
H1474 H 0.90204 0.81808 0.76367 0.0
H1475 H 0.90764 0.83597 0.81629 0.0
H1476 H 0.95607 0.8063 0.87838 0.0
H1477 H 0.96565 0.77585 0.83802 0.0
C1478 C 0.94678 0.77049 0.78068 0.0
C1479 C 0.93625 0.77047 0.75152 0.0
C1480 C 0.9419 0.7882 0.80387 0.0
C1481 C 0.9201 0.78771 0.74568 0.0
C1482 C 0.91454 0.80489 0.76869 0.0
C1483 C 0.92074 0.82323 0.82095 0.0
C1484 C 0.93163 0.82369 0.85016 0.0
C1485 C 0.92566 0.80556 0.7978 0.0
C1486 C 0.94783 0.80648 0.85601 0.0
C1487 C 0.95315 0.78904 0.833 0.0
H1488 H 0.13554 0.10171 0.90761 0.0
H1489 H 0.17839 0.04452 0.93131 0.0
H1490 H 0.15458 0.03932 0.9715 0.0
H1491 H 0.12177 0.05277 1.00165 0.0
H1492 H 0.08082 0.11067 0.9753 0.0
H1493 H 0.1035 0.11356 0.93496 0.0
C1494 C 0.13998 0.08793 0.92133 0.0
C1495 C 0.15931 0.07368 0.91584 0.0
C1496 C 0.12621 0.08511 0.94435 0.0
C1497 C 0.16395 0.05592 0.93443 0.0
C1498 C 0.15018 0.05298 0.95762 0.0
C1499 C 0.11749 0.06568 0.98679 0.0
C1500 C 0.099 0.08138 0.99189 0.0
C1501 C 0.13122 0.06761 0.96304 0.0
C1502 C 0.09448 0.09823 0.97232 0.0
C1503 C 0.10764 0.1 0.94908 0.0
H1504 H 0.80758 0.41574 0.66991 0.0
H1505 H 0.73368 0.36103 0.63885 0.0
H1506 H 0.74047 0.3409 0.68219 0.0
H1507 H 0.76948 0.33712 0.72744 0.0
H1508 H 0.84319 0.39291 0.75708 0.0
H1509 H 0.83481 0.41396 0.71543 0.0
C1510 C 0.79266 0.39982 0.67303 0.0
C1511 C 0.77002 0.39009 0.65153 0.0
C1512 C 0.7971 0.38805 0.69731 0.0
C1513 C 0.75099 0.36923 0.65548 0.0
C1514 C 0.75512 0.35747 0.67999 0.0
C1515 C 0.78374 0.3537 0.72448 0.0
C1516 C 0.80717 0.36318 0.74503 0.0
C1517 C 0.77846 0.36627 0.70069 0.0
C1518 C 0.82519 0.38511 0.74143 0.0
C1519 C 0.82033 0.39727 0.71774 0.0
H1520 H 0.48215 0.13556 0.41336 0.0
H1521 H 0.55602 0.15005 0.38806 0.0
H1522 H 0.57634 0.14072 0.4341 0.0
H1523 H 0.57182 0.12166 0.47823 0.0
H1524 H 0.49717 0.10416 0.50134 0.0
H1525 H 0.47845 0.12127 0.45999 0.0
C1526 C 0.50286 0.13779 0.41859 0.0
C1527 C 0.5177 0.14414 0.39771 0.0
C1528 C 0.51416 0.13106 0.4445 0.0
C1529 C 0.54435 0.14585 0.40415 0.0
C1530 C 0.5559 0.14012 0.4303 0.0
C1531 C 0.5516 0.12215 0.47445 0.0
C1532 C 0.5358 0.11145 0.49259 0.0
C1533 C 0.54084 0.13165 0.45015 0.0
C1534 C 0.50959 0.112 0.48742 0.0
C1535 C 0.4989 0.12186 0.4638 0.0
H1536 H 0.7849 0.68228 0.04556 0.0
H1537 H 0.70534 0.68795 0.02873 0.0
H1538 H 0.71144 0.71594 0.0773 0.0
H1539 H 0.73959 0.73998 0.12365 0.0
H1540 H 0.81932 0.73548 0.14044 0.0
H1541 H 0.8128 0.70528 0.09279 0.0
C1542 C 0.76886 0.68955 0.05254 0.0
C1543 C 0.74477 0.68321 0.0335 0.0
C1544 C 0.77251 0.70571 0.08043 0.0
C1545 C 0.72413 0.69263 0.04293 0.0
C1546 C 0.72757 0.70863 0.07069 0.0
C1547 C 0.75555 0.73244 0.11678 0.0
C1548 C 0.77994 0.74005 0.1352 0.0
C1549 C 0.75173 0.7155 0.08942 0.0
C1550 C 0.80035 0.72974 0.12652 0.0
C1551 C 0.79667 0.71265 0.09929 0.0
H1552 H 0.13143 0.08964 0.7664 0.0
H1553 H 0.17873 0.03532 0.74136 0.0
H1554 H 0.1586 0.03012 0.68947 0.0
H1555 H 0.12895 0.04376 0.65064 0.0
H1556 H 0.0847 0.10045 0.67895 0.0
H1557 H 0.10238 0.10196 0.72973 0.0
C1558 C 0.13744 0.07643 0.74981 0.0
C1559 C 0.1568 0.06296 0.75818 0.0
C1560 C 0.12635 0.07414 0.72024 0.0
C1561 C 0.1639 0.04592 0.73589 0.0
C1562 C 0.15244 0.04308 0.70611 0.0
C1563 C 0.12305 0.05622 0.66797 0.0
C1564 C 0.10542 0.07207 0.66061 0.0
C1565 C 0.13385 0.05748 0.69788 0.0
C1566 C 0.09823 0.08819 0.68356 0.0
C1567 C 0.10834 0.08907 0.71282 0.0
H1568 H 0.76603 0.40521 0.46958 0.0
H1569 H 0.77631 0.34097 0.51308 0.0
H1570 H 0.79033 0.31833 0.47085 0.0
H1571 H 0.80502 0.31943 0.42381 0.0
H1572 H 0.79308 0.38271 0.37923 0.0
H1573 H 0.77471 0.40289 0.41911 0.0
C1574 C 0.77021 0.3857 0.46921 0.0
C1575 C 0.7696 0.37457 0.49431 0.0
C1576 C 0.77881 0.3729 0.44483 0.0
C1577 C 0.77606 0.34969 0.49383 0.0
C1578 C 0.7845 0.3369 0.46981 0.0
C1579 C 0.79809 0.33743 0.4227 0.0
C1580 C 0.80072 0.34957 0.3986 0.0
C1581 C 0.78688 0.34875 0.44559 0.0
C1582 C 0.79138 0.37283 0.39745 0.0
C1583 C 0.78082 0.38448 0.42034 0.0
H1584 H 0.47928 0.09872 0.21583 0.0
H1585 H 0.53162 0.17444 0.25348 0.0
H1586 H 0.55348 0.16989 0.21122 0.0
H1587 H 0.55944 0.14195 0.16519 0.0
H1588 H 0.5058 0.06632 0.12866 0.0
H1589 H 0.48295 0.07285 0.16903 0.0
C1590 C 0.49503 0.1146 0.21434 0.0
C1591 C 0.5036 0.13721 0.23732 0.0
C1592 C 0.5077 0.11135 0.1906 0.0
C1593 C 0.52429 0.15737 0.23551 0.0
C1594 C 0.53701 0.15444 0.21167 0.0
C1595 C 0.54293 0.12685 0.16638 0.0
C1596 C 0.53469 0.10333 0.14434 0.0
C1597 C 0.52932 0.13111 0.18945 0.0
C1598 C 0.51276 0.08433 0.14557 0.0
C1599 C 0.49956 0.08814 0.16854 0.0
H1600 H 0.72293 0.70818 0.89801 0.0
H1601 H 0.79591 0.68566 0.89964 0.0
H1602 H 0.81337 0.72644 0.88338 0.0
H1603 H 0.80747 0.76837 0.86879 0.0
H1604 H 0.73435 0.79029 0.86864 0.0
H1605 H 0.71757 0.74996 0.88553 0.0
C1606 C 0.7426 0.71188 0.89453 0.0
C1607 C 0.758 0.69371 0.89966 0.0
C1608 C 0.75262 0.73552 0.88621 0.0
C1609 C 0.78356 0.69917 0.89545 0.0
C1610 C 0.7936 0.72259 0.88648 0.0
C1611 C 0.78802 0.7645 0.87298 0.0
C1612 C 0.77206 0.78214 0.86754 0.0
C1613 C 0.77832 0.74099 0.88205 0.0
C1614 C 0.7469 0.77694 0.8728 0.0
C1615 C 0.73725 0.75382 0.88214 0.0
H1616 H 0.92888 0.14493 0.02336 0.0
H1617 H 0.9723 0.21227 0.09085 0.0
H1618 H 1.00964 0.19212 0.09393 0.0
H1619 H 0.02972 0.15503 0.07842 0.0
H1620 H 0.98631 0.08718 0.01164 0.0
H1621 H 0.94934 0.10803 0.00718 0.0
C1622 C 0.94652 0.15534 0.0387 0.0
C1623 C 0.94761 0.18027 0.05685 0.0
C1624 C 0.96799 0.14354 0.04042 0.0
C1625 C 0.97075 0.19321 0.07658 0.0
C1626 C 0.99216 0.18164 0.07835 0.0
C1627 C 1.01228 0.1448 0.06263 0.0
C1628 C 1.01099 0.11949 0.04524 0.0
C1629 C 0.99099 0.15679 0.06047 0.0
C1630 C 0.98805 0.10667 0.02512 0.0
C1631 C 0.96683 0.11857 0.02269 0.0
H1632 H 0.47216 0.56277 0.18617 0.0
H1633 H 0.40836 0.54518 0.11312 0.0
H1634 H 0.43771 0.55824 0.08101 0.0
H1635 H 0.48222 0.56605 0.07209 0.0
H1636 H 0.5457 0.58469 0.14574 0.0
H1637 H 0.51588 0.58002 0.17918 0.0
C1638 C 0.46465 0.56281 0.16348 0.0
C1639 C 0.43831 0.55272 0.15191 0.0
C1640 C 0.48165 0.56992 0.14507 0.0
C1641 C 0.42863 0.55296 0.12255 0.0
C1642 C 0.44545 0.56005 0.10405 0.0
C1643 C 0.48939 0.5697 0.09553 0.0
C1644 C 0.51598 0.5751 0.10639 0.0
C1645 C 0.4721 0.56719 0.11477 0.0
C1646 C 0.52525 0.58025 0.13681 0.0
C1647 C 0.50822 0.57752 0.156 0.0
H1648 H 0.34928 0.65815 0.80111 0.0
H1649 H 0.43123 0.69053 0.82084 0.0
H1650 H 0.42368 0.73601 0.82951 0.0
H1651 H 0.39315 0.76778 0.83151 0.0
H1652 H 0.31139 0.73323 0.81108 0.0
H1653 H 0.31965 0.68871 0.80298 0.0
C1654 C 0.36575 0.67498 0.80731 0.0
C1655 C 0.39105 0.66993 0.81014 0.0
C1656 C 0.3612 0.70143 0.81232 0.0
C1657 C 0.41158 0.69288 0.81826 0.0
C1658 C 0.40717 0.71924 0.82331 0.0
C1659 C 0.37705 0.75059 0.82543 0.0
C1660 C 0.35134 0.75487 0.8222 0.0
C1661 C 0.38198 0.72401 0.82047 0.0
C1662 C 0.33127 0.73156 0.81401 0.0
C1663 C 0.33601 0.70566 0.80925 0.0
H1664 H 0.30191 0.69774 0.51519 0.0
H1665 H 0.3395 0.67317 0.58992 0.0
H1666 H 0.29781 0.64931 0.59678 0.0
H1667 H 0.25082 0.6459 0.58899 0.0
H1668 H 0.2141 0.67491 0.51714 0.0
H1669 H 0.25514 0.68655 0.5015 0.0
C1670 C 0.30099 0.68627 0.53227 0.0
C1671 C 0.32346 0.68763 0.55242 0.0
C1672 C 0.277 0.67407 0.53705 0.0
C1673 C 0.32232 0.67246 0.57422 0.0
C1674 C 0.29845 0.65919 0.57842 0.0
C1675 C 0.2518 0.65396 0.56938 0.0
C1676 C 0.22983 0.66011 0.55448 0.0
C1677 C 0.27564 0.66146 0.56118 0.0
C1678 C 0.23104 0.67052 0.52912 0.0
C1679 C 0.25443 0.67714 0.5202 0.0
H1680 H 0.71509 0.95857 0.87969 0.0
H1681 H 0.68731 0.94145 0.78607 0.0
H1682 H 0.71278 0.90795 0.7798 0.0
H1683 H 0.74428 0.88499 0.80025 0.0
H1684 H 0.77171 0.90033 0.89372 0.0
H1685 H 0.74514 0.93318 0.90066 0.0
C1686 C 0.71439 0.94731 0.85793 0.0
C1687 C 0.6993 0.95275 0.83334 0.0
C1688 C 0.72914 0.92786 0.85443 0.0
C1689 C 0.69859 0.93777 0.80538 0.0
C1690 C 0.71326 0.91861 0.80176 0.0
C1691 C 0.74427 0.89517 0.82226 0.0
C1692 C 0.75997 0.89 0.84645 0.0
C1693 C 0.7288 0.91372 0.82604 0.0
C1694 C 0.75993 0.9039 0.87469 0.0
C1695 C 0.74468 0.92266 0.87865 0.0
H1696 H 0.80739 0.04064 0.59615 0.0
H1697 H 0.79482 0.04264 0.68452 0.0
H1698 H 0.75677 0.06064 0.67323 0.0
H1699 H 0.72652 0.07492 0.6378 0.0
H1700 H 0.73998 0.07344 0.54981 0.0
H1701 H 0.77804 0.05579 0.56138 0.0
C1702 C 0.7964 0.04506 0.61301 0.0
C1703 C 0.80394 0.04025 0.64112 0.0
C1704 C 0.77457 0.05533 0.60638 0.0
C1705 C 0.78946 0.04615 0.66268 0.0
C1706 C 0.76766 0.05642 0.65624 0.0
C1707 C 0.73793 0.07098 0.62126 0.0
C1708 C 0.73029 0.07536 0.59292 0.0
C1709 C 0.75999 0.061 0.62811 0.0
C1710 C 0.74514 0.06983 0.57164 0.0
C1711 C 0.76703 0.0599 0.57827 0.0
H1712 H 0.41104 0.48052 0.78077 0.0
H1713 H 0.36209 0.52654 0.81937 0.0
H1714 H 0.33625 0.48527 0.8286 0.0
H1715 H 0.32931 0.43516 0.82875 0.0
H1716 H 0.38162 0.39247 0.79204 0.0
H1717 H 0.40391 0.43285 0.77942 0.0
C1718 C 0.39459 0.48194 0.79102 0.0
C1719 C 0.38891 0.50745 0.7991 0.0
C1720 C 0.38021 0.45815 0.79687 0.0
C1721 C 0.36723 0.50777 0.81241 0.0
C1722 C 0.35245 0.4839 0.81793 0.0
C1723 C 0.34523 0.43456 0.81744 0.0
C1724 C 0.35327 0.40995 0.81101 0.0
C1725 C 0.35889 0.45879 0.81064 0.0
C1726 C 0.37456 0.41044 0.79709 0.0
C1727 C 0.38752 0.43379 0.7899 0.0
H1728 H 0.22111 0.56321 0.3066 0.0
H1729 H 0.19745 0.61233 0.37575 0.0
H1730 H 0.22947 0.65112 0.37202 0.0
H1731 H 0.25891 0.67215 0.34388 0.0
H1732 H 0.27969 0.62416 0.27146 0.0
H1733 H 0.25438 0.58371 0.28178 0.0
C1734 C 0.22362 0.58224 0.32145 0.0
C1735 C 0.20707 0.5851 0.3414 0.0
C1736 C 0.24116 0.60469 0.31813 0.0
C1737 C 0.21007 0.60984 0.36024 0.0
C1738 C 0.2282 0.632 0.35795 0.0
C1739 C 0.25807 0.65278 0.33054 0.0
C1740 C 0.2707 0.65107 0.30666 0.0
C1741 C 0.24297 0.62987 0.33609 0.0
C1742 C 0.27003 0.62589 0.28993 0.0
C1743 C 0.25547 0.60282 0.29574 0.0
H1744 H 0.56245 0.80156 0.49317 0.0
H1745 H 0.60821 0.7782 0.43039 0.0
H1746 H 0.62405 0.74891 0.4612 0.0
H1747 H 0.62225 0.72805 0.50465 0.0
H1748 H 0.57711 0.75401 0.56734 0.0
H1749 H 0.56323 0.78396 0.53737 0.0
C1750 C 0.57589 0.79004 0.48607 0.0
C1751 C 0.58378 0.79158 0.45925 0.0
C1752 C 0.58478 0.77359 0.50375 0.0
C1753 C 0.60174 0.77716 0.45084 0.0
C1754 C 0.61067 0.7604 0.46842 0.0
C1755 C 0.60973 0.74058 0.51203 0.0
C1756 C 0.60048 0.73841 0.53816 0.0
C1757 C 0.602 0.75818 0.49476 0.0
C1758 C 0.58407 0.7547 0.54711 0.0
C1759 C 0.57625 0.77201 0.53007 0.0
H1760 H 0.64644 0.29203 0.79752 0.0
H1761 H 0.65928 0.37598 0.79809 0.0
H1762 H 0.70561 0.38124 0.81478 0.0
H1763 H 0.7437 0.36085 0.82401 0.0
H1764 H 0.72986 0.2768 0.82472 0.0
H1765 H 0.68363 0.27288 0.81287 0.0
C1766 C 0.65918 0.31173 0.80278 0.0
C1767 C 0.64888 0.33377 0.79763 0.0
C1768 C 0.68616 0.31451 0.81182 0.0
C1769 C 0.66624 0.35883 0.80301 0.0
C1770 C 0.69298 0.36175 0.81201 0.0
C1771 C 0.73058 0.34176 0.82199 0.0
C1772 C 0.74078 0.31916 0.82521 0.0
C1773 C 0.70339 0.33958 0.81566 0.0
C1774 C 0.72307 0.29468 0.82249 0.0
C1775 C 0.69635 0.29232 0.81564 0.0
H1776 H 0.08625 0.43936 0.94207 0.0
H1777 H 0.06446 0.39747 0.00879 0.0
H1778 H 0.06105 0.43879 0.03906 0.0
H1779 H 0.06132 0.48632 0.04543 0.0
H1780 H 0.08434 0.52931 0.98014 0.0
H1781 H 0.08984 0.4883 0.95041 0.0
C1782 C 0.08142 0.4395 0.96354 0.0
C1783 C 0.07557 0.41541 0.97313 0.0
C1784 C 0.07906 0.46345 0.98082 0.0
C1785 C 0.06899 0.41579 1.00088 0.0
C1786 C 0.06683 0.43937 0.01815 0.0
C1787 C 0.06735 0.48662 0.02459 0.0
C1788 C 0.07199 0.51061 0.01473 0.0
C1789 C 0.07113 0.46318 0.00803 0.0
C1790 C 0.08043 0.51093 0.98804 0.0
C1791 C 0.0837 0.48753 0.9711 0.0
H1792 H 0.98623 0.80756 0.33854 0.0
H1793 H 0.98069 0.82164 0.25071 0.0
H1794 H 0.93581 0.82498 0.24953 0.0
H1795 H 0.89742 0.82437 0.27391 0.0
H1796 H 0.90433 0.81022 0.3619 0.0
H1797 H 0.94861 0.80655 0.36231 0.0
C1798 C 0.97535 0.81136 0.31901 0.0
C1799 C 0.98742 0.81434 0.29475 0.0
C1800 C 0.94932 0.81326 0.31846 0.0
C1801 C 0.97242 0.81924 0.26983 0.0
C1802 C 0.94653 0.82115 0.26914 0.0
C1803 C 0.90852 0.82031 0.29313 0.0
C1804 C 0.89691 0.81749 0.31786 0.0
C1805 C 0.93463 0.81823 0.29336 0.0
C1806 C 0.91216 0.81244 0.34246 0.0
C1807 C 0.93776 0.81035 0.34277 0.0
H1808 H 0.5335 0.34619 0.16593 0.0
H1809 H 0.46921 0.31125 0.09393 0.0
H1810 H 0.48111 0.34881 0.07051 0.0
H1811 H 0.50958 0.3915 0.07066 0.0
H1812 H 0.57396 0.42633 0.14241 0.0
H1813 H 0.56197 0.38886 0.16608 0.0
C1814 C 0.52208 0.34676 0.14511 0.0
C1815 C 0.50052 0.326 0.13167 0.0
C1816 C 0.52897 0.36837 0.13183 0.0
C1817 C 0.48588 0.32705 0.10474 0.0
C1818 C 0.49267 0.34847 0.09133 0.0
C1819 C 0.52111 0.39072 0.09134 0.0
C1820 C 0.54266 0.41146 0.10475 0.0
C1821 C 0.51417 0.36919 0.10468 0.0
C1822 C 0.55717 0.4106 0.13182 0.0
C1823 C 0.5504 0.38918 0.14526 0.0
H1824 H 0.08696 0.381 0.44084 0.0
H1825 H 0.05505 0.37424 0.51844 0.0
H1826 H 1.01201 0.36994 0.49061 0.0
H1827 H 0.98415 0.37273 0.44578 0.0
H1828 H 1.01527 0.37986 0.36811 0.0
H1829 H 0.05811 0.37919 0.39436 0.0
C1830 C 0.07056 0.37825 0.45158 0.0
C1831 C 0.07427 0.37837 0.48178 0.0
C1832 C 0.04585 0.37607 0.43552 0.0
C1833 C 0.05278 0.37446 0.49529 0.0
C1834 C 0.02816 0.37207 0.47944 0.0
C1835 C 1.00035 0.37385 0.43464 0.0
C1836 C 0.99702 0.37671 0.40543 0.0
C1837 C 0.02462 0.3736 0.44983 0.0
C1838 C 1.01773 0.37776 0.39075 0.0
C1839 C 0.0421 0.37747 0.40575 0.0
H1840 H 0.95989 0.66242 0.61715 0.0
H1841 H 0.99878 0.73961 0.60642 0.0
H1842 H 0.0218 0.71853 0.5723 0.0
H1843 H 0.03872 0.67916 0.55616 0.0
H1844 H 0.99985 0.60222 0.5668 0.0
H1845 H 0.96862 0.62201 0.58952 0.0
C1846 C 0.97264 0.67459 0.60649 0.0
C1847 C 0.97817 0.70251 0.61508 0.0
C1848 C 0.98618 0.66237 0.58711 0.0
C1849 C 0.99441 0.71801 0.60063 0.0
C1850 C 1.0078 0.70599 0.58119 0.0
C1851 C 0.02264 0.6666 0.56208 0.0
C1852 C 0.02188 0.63943 0.56065 0.0
C1853 C 1.00504 0.6783 0.57574 0.0
C1854 C 1.00092 0.62329 0.56822 0.0
C1855 C 0.98321 0.63465 0.58147 0.0
H1856 H 0.64948 0.9012 0.88623 0.0
H1857 H 0.70917 0.8827 0.94622 0.0
H1858 H 0.72312 0.85827 0.90523 0.0
H1859 H 0.7164 0.83914 0.85286 0.0
H1860 H 0.65822 0.85841 0.792 0.0
H1861 H 0.64574 0.88574 0.83281 0.0
C1862 C 0.66574 0.89211 0.89033 0.0
C1863 C 0.67794 0.89346 0.91939 0.0
C1864 C 0.67368 0.87789 0.86655 0.0
C1865 C 0.69923 0.88185 0.9242 0.0
C1866 C 0.70715 0.86769 0.90075 0.0
C1867 C 0.70077 0.8491 0.84857 0.0
C1868 C 0.68761 0.84609 0.81963 0.0
C1869 C 0.69407 0.86496 0.87196 0.0
C1870 C 0.66823 0.86004 0.8142 0.0
C1871 C 0.66118 0.87567 0.83749 0.0
H1872 H 0.51171 0.56389 0.73849 0.0
H1873 H 0.4663 0.618 0.71176 0.0
H1874 H 0.48963 0.62243 0.67105 0.0
H1875 H 0.5225 0.60878 0.64103 0.0
H1876 H 0.56616 0.55411 0.67057 0.0
H1877 H 0.54412 0.55227 0.71152 0.0
C1878 C 0.50663 0.57684 0.72399 0.0
C1879 C 0.4867 0.59042 0.72877 0.0
C1880 C 0.52011 0.57919 0.70063 0.0
C1881 C 0.48126 0.60717 0.70925 0.0
C1882 C 0.49472 0.60964 0.68572 0.0
C1883 C 0.52751 0.59681 0.65669 0.0
C1884 C 0.54653 0.58164 0.65224 0.0
C1885 C 0.51418 0.59553 0.68088 0.0
C1886 C 0.55202 0.56607 0.67294 0.0
C1887 C 0.53924 0.56491 0.69656 0.0
H1888 H 0.85549 0.30305 0.01076 0.0
H1889 H 0.88556 0.2377 0.9722 0.0
H1890 H 0.87507 0.24867 0.92367 0.0
H1891 H 0.85397 0.27516 0.89177 0.0
H1892 H 0.82309 0.33932 0.93249 0.0
H1893 H 0.83681 0.33008 0.98037 0.0
C1894 C 0.86015 0.29135 0.99184 0.0
C1895 C 0.87131 0.26956 0.99519 0.0
C1896 C 0.85335 0.29725 0.96419 0.0
C1897 C 0.87729 0.25478 0.97039 0.0
C1898 C 0.87093 0.26085 0.94257 0.0
C1899 C 0.85019 0.28704 0.91113 0.0
C1900 C 0.83721 0.30782 0.90828 0.0
C1901 C 0.85833 0.28168 0.93908 0.0
C1902 C 0.83283 0.32317 0.93374 0.0
C1903 C 0.84077 0.31797 0.96129 0.0
H1904 H 0.0778 0.52919 0.23356 0.0
H1905 H 0.15082 0.50884 0.22817 0.0
H1906 H 0.14858 0.51987 0.17964 0.0
H1907 H 0.12858 0.5409 0.1417 0.0
H1908 H 0.05491 0.55988 0.14605 0.0
H1909 H 0.05458 0.54374 0.19192 0.0
C1910 C 0.09288 0.52643 0.2214 0.0
C1911 C 0.11451 0.51819 0.23464 0.0
C1912 C 0.09153 0.53305 0.19352 0.0
C1913 C 0.13386 0.51478 0.21852 0.0
C1914 C 0.13272 0.52146 0.19087 0.0
C1915 C 0.11223 0.54107 0.15244 0.0
C1916 C 0.09189 0.55185 0.14064 0.0
C1917 C 0.1121 0.53147 0.17862 0.0
C1918 C 0.07076 0.55171 0.15464 0.0
C1919 C 0.07066 0.54257 0.18094 0.0
H1920 H 0.82056 0.94736 0.599 0.0
H1921 H 0.8698 0.90206 0.63886 0.0
H1922 H 0.85369 0.86484 0.5969 0.0
H1923 H 0.83261 0.84936 0.54548 0.0
H1924 H 0.78883 0.89801 0.50335 0.0
H1925 H 0.79422 0.92864 0.55 0.0
C1926 C 0.82735 0.92912 0.59879 0.0
C1927 C 0.84681 0.92767 0.62156 0.0
C1928 C 0.81876 0.90823 0.57415 0.0
C1929 C 0.85524 0.90385 0.62121 0.0
C1930 C 0.84597 0.88253 0.59729 0.0
C1931 C 0.82375 0.86636 0.5467 0.0
C1932 C 0.81112 0.87186 0.52087 0.0
C1933 C 0.82876 0.88509 0.57305 0.0
C1934 C 0.79886 0.89333 0.52282 0.0
C1935 C 0.80233 0.9112 0.54946 0.0
H1936 H 0.51051 0.5659 0.87659 0.0
H1937 H 0.47164 0.62784 0.90376 0.0
H1938 H 0.49283 0.63199 0.9551 0.0
H1939 H 0.52151 0.61601 0.99286 0.0
H1940 H 0.55759 0.55239 0.96229 0.0
H1941 H 0.53825 0.55096 0.91213 0.0
C1942 C 0.50656 0.58054 0.8935 0.0
C1943 C 0.4893 0.59653 0.88587 0.0
C1944 C 0.51831 0.58237 0.92276 0.0
C1945 C 0.4848 0.61528 0.90863 0.0
C1946 C 0.4969 0.61754 0.9381 0.0
C1947 C 0.52524 0.60199 0.97517 0.0
C1948 C 0.5411 0.58423 0.9818 0.0
C1949 C 0.51356 0.60093 0.94558 0.0
C1950 C 0.54546 0.56616 0.95835 0.0
C1951 C 0.5344 0.56533 0.92941 0.0
H1952 H 0.86322 0.31044 0.14367 0.0
H1953 H 0.89818 0.25088 0.17552 0.0
H1954 H 0.89232 0.26817 0.22537 0.0
H1955 H 0.87161 0.2968 0.25841 0.0
H1956 H 0.83535 0.35463 0.22395 0.0
H1957 H 0.84742 0.34162 0.1769 0.0
C1958 C 0.87022 0.30166 0.16167 0.0
C1959 C 0.88123 0.27946 0.15584 0.0
C1960 C 0.86616 0.31125 0.18988 0.0
C1961 C 0.89004 0.26824 0.17941 0.0
C1962 C 0.88634 0.27794 0.20787 0.0
C1963 C 0.86698 0.30698 0.2408 0.0
C1964 C 0.85252 0.32675 0.24477 0.0
C1965 C 0.87364 0.29895 0.21322 0.0
C1966 C 0.84639 0.33943 0.22156 0.0
C1967 C 0.85324 0.33193 0.19456 0.0
H1968 H 0.14301 0.55515 0.41615 0.0
H1969 H 0.07611 0.49041 0.38576 0.0
H1970 H 0.06047 0.50308 0.43123 0.0
H1971 H 0.06397 0.53591 0.47763 0.0
H1972 H 0.13008 0.60258 0.50446 0.0
H1973 H 0.14751 0.58618 0.4625 0.0
C1974 C 0.12548 0.54324 0.42004 0.0
C1975 C 0.11113 0.52139 0.39819 0.0
C1976 C 0.11601 0.5516 0.4453 0.0
C1977 C 0.08788 0.50678 0.40277 0.0
C1978 C 0.07874 0.51436 0.42853 0.0
C1979 C 0.08213 0.54685 0.47423 0.0
C1980 C 0.09544 0.57066 0.49428 0.0
C1981 C 0.09225 0.53732 0.44958 0.0
C1982 C 0.11914 0.58435 0.48952 0.0
C1983 C 0.12933 0.57491 0.46551 0.0
H1984 H 0.83682 0.95518 0.73046 0.0
H1985 H 0.91069 0.98791 0.78812 0.0
H1986 H 0.90351 0.95111 0.81388 0.0
H1987 H 0.87828 0.90735 0.81644 0.0
H1988 H 0.80487 0.87413 0.75802 0.0
H1989 H 0.81023 0.91303 0.73519 0.0
C1990 C 0.85091 0.95482 0.74939 0.0
C1991 C 0.87415 0.97433 0.75765 0.0
C1992 C 0.84725 0.93292 0.76296 0.0
C1993 C 0.89252 0.97326 0.78171 0.0
C1994 C 0.88863 0.95198 0.79604 0.0
C1995 C 0.86367 0.9085 0.79841 0.0
C1996 C 0.84154 0.88775 0.78829 0.0
C1997 C 0.86656 0.93119 0.78606 0.0
C1998 C 0.82232 0.88974 0.76561 0.0
C1999 C 0.82522 0.91207 0.75287 0.0
H2000 H 0.71486 0.51128 0.61883 0.0
H2001 H 0.67018 0.44478 0.55107 0.0
H2002 H 0.6336 0.46616 0.54818 0.0
H2003 H 0.6145 0.50395 0.56412 0.0
H2004 H 0.65928 0.57102 0.63104 0.0
H2005 H 0.6955 0.54907 0.63512 0.0
C2006 C 0.69712 0.50131 0.60344 0.0
C2007 C 0.69545 0.47623 0.5852 0.0
C2008 C 0.6761 0.51384 0.60181 0.0
C2009 C 0.67219 0.46393 0.5654 0.0
C2010 C 0.65121 0.47619 0.56375 0.0
C2011 C 0.63206 0.51378 0.57986 0.0
C2012 C 0.63392 0.5392 0.59744 0.0
C2013 C 0.65295 0.50115 0.5818 0.0
C2014 C 0.65707 0.55149 0.61742 0.0
C2015 C 0.67787 0.53894 0.61964 0.0
H2016 H 0.21415 0.09034 0.50076 0.0
H2017 H 0.15505 0.06049 0.42283 0.0
H2018 H 0.1229 0.0499 0.45277 0.0
H2019 H 0.11042 0.05993 0.5006 0.0
H2020 H 0.16908 0.09589 0.57789 0.0
H2021 H 0.2026 0.09347 0.54888 0.0
C2022 C 0.19448 0.0803 0.49023 0.0
C2023 C 0.18688 0.07647 0.45966 0.0
C2024 C 0.17585 0.07639 0.50765 0.0
C2025 C 0.1613 0.06362 0.44636 0.0
C2026 C 0.14285 0.05804 0.46352 0.0
C2027 C 0.13058 0.06663 0.51115 0.0
C2028 C 0.13739 0.07861 0.54112 0.0
C2029 C 0.14965 0.06609 0.49413 0.0
C2030 C 0.16348 0.08703 0.55469 0.0
C2031 C 0.18262 0.0856 0.53813 0.0
H2032 H 0.29948 1.00852 0.8464 0.0
H2033 H 0.21778 0.97495 0.82905 0.0
H2034 H 0.2261 0.92977 0.82237 0.0
H2035 H 0.25718 0.89863 0.82136 0.0
H2036 H 0.33867 0.93421 0.83927 0.0
H2037 H 0.32971 0.97849 0.84558 0.0
C2038 C 0.28323 0.9915 0.84116 0.0
C2039 C 0.25776 0.99612 0.83836 0.0
C2040 C 0.28823 0.9652 0.83729 0.0
C2041 C 0.23754 0.97293 0.83152 0.0
C2042 C 0.24239 0.94674 0.82763 0.0
C2043 C 0.27308 0.91599 0.82653 0.0
C2044 C 0.29893 0.91209 0.82959 0.0
C2045 C 0.26773 0.94239 0.83039 0.0
C2046 C 0.31872 0.9356 0.83654 0.0
C2047 C 0.31356 0.96136 0.84025 0.0
H2048 H 0.35057 0.99185 0.12318 0.0
H2049 H 0.29308 1.00453 0.05605 0.0
H2050 H 0.32509 0.03936 0.04465 0.0
H2051 H 0.37097 0.05889 0.04705 0.0
H2052 H 0.42833 0.04293 0.11215 0.0
H2053 H 0.39484 0.01735 0.13153 0.0
C2054 C 0.34492 1.00287 0.10669 0.0
C2055 C 0.31984 0.99541 0.09004 0.0
C2056 C 0.36352 0.02205 0.09962 0.0
C2057 C 0.31243 1.00996 0.06907 0.0
C2058 C 0.33078 0.02963 0.06231 0.0
C2059 C 0.37603 0.0502 0.06581 0.0
C2060 C 0.40206 0.05245 0.07778 0.0
C2061 C 0.35666 0.03469 0.07632 0.0
C2062 C 0.40845 0.04163 0.10252 0.0
C2063 C 0.3893 0.02675 0.11351 0.0
H2064 H 0.90237 0.71094 0.76885 0.0
H2065 H 0.93182 0.72453 0.86185 0.0
H2066 H 0.90521 0.75672 0.87097 0.0
H2067 H 0.87409 0.78159 0.85276 0.0
H2068 H 0.84519 0.76915 0.75984 0.0
H2069 H 0.87111 0.73612 0.75056 0.0
C2070 C 0.90299 0.72089 0.79116 0.0
C2071 C 0.91931 0.7152 0.81462 0.0
C2072 C 0.88772 0.73969 0.79628 0.0
C2073 C 0.91971 0.72847 0.84331 0.0
C2074 C 0.90437 0.74688 0.84857 0.0
C2075 C 0.87348 0.7718 0.83041 0.0
C2076 C 0.85771 0.77814 0.80702 0.0
C2077 C 0.88846 0.75281 0.82525 0.0
C2078 C 0.85707 0.76482 0.7783 0.0
C2079 C 0.8719 0.74585 0.77298 0.0
H2080 H 0.8076 0.58415 0.02652 0.0
H2081 H 0.83949 0.62319 0.96243 0.0
H2082 H 0.88071 0.61205 0.9778 0.0
H2083 H 0.90796 0.59229 0.01037 0.0
H2084 H 0.87534 0.55182 0.0731 0.0
H2085 H 0.83425 0.56296 0.05765 0.0
C2086 C 0.82353 0.59018 0.01584 0.0
C2087 C 0.82048 0.60453 0.99342 0.0
C2088 C 0.84712 0.58367 0.02471 0.0
C2089 C 0.8413 0.61208 0.97973 0.0
C2090 C 0.86491 0.60578 0.98855 0.0
C2091 C 0.89179 0.58557 0.02041 0.0
C2092 C 0.89483 0.57132 0.04298 0.0
C2093 C 0.86805 0.59168 0.0111 0.0
C2094 C 0.87373 0.56321 0.05605 0.0
C2095 C 0.85014 0.5694 0.04708 0.0
H2096 H 0.2278 0.18311 0.85677 0.0
H2097 H 0.28278 0.14106 0.82583 0.0
H2098 H 0.3066 0.18289 0.8155 0.0
H2099 H 0.31024 0.23223 0.81232 0.0
H2100 H 0.25197 0.27045 0.84138 0.0
H2101 H 0.23152 0.22985 0.85496 0.0
C2102 C 0.24512 0.18265 0.84795 0.0
C2103 C 0.2531 0.15807 0.84238 0.0
C2104 C 0.25834 0.20668 0.84141 0.0
C2105 C 0.27583 0.15907 0.83084 0.0
C2106 C 0.28946 0.18326 0.82469 0.0
C2107 C 0.29334 0.23184 0.8221 0.0
C2108 C 0.28306 0.25529 0.826 0.0
C2109 C 0.28078 0.20737 0.8295 0.0
C2110 C 0.26068 0.25344 0.83812 0.0
C2111 C 0.24879 0.22994 0.84592 0.0
H2112 H 0.40442 0.09851 0.35048 0.0
H2113 H 0.40186 0.05873 0.26196 0.0
H2114 H 0.37027 0.02038 0.26756 0.0
H2115 H 0.35055 0.99524 0.30053 0.0
H2116 H 0.35514 0.03365 0.39035 0.0
H2117 H 0.37913 0.07537 0.38161 0.0
C2118 C 0.39599 0.0819 0.33211 0.0
C2119 C 0.40503 0.08135 0.30577 0.0
C2120 C 0.37898 0.05935 0.3361 0.0
C2121 C 0.39475 0.05953 0.28226 0.0
C2122 C 0.37701 0.03751 0.28562 0.0
C2123 C 0.35604 0.01291 0.318 0.0
C2124 C 0.35133 1.01118 0.34617 0.0
C2125 C 0.37004 0.03669 0.3129 0.0
C2126 C 0.35901 0.03426 0.36862 0.0
C2127 C 0.37259 0.05818 0.36359 0.0
H2128 H 0.56854 0.35884 0.65441 0.0
H2129 H 0.53686 0.39384 0.72593 0.0
H2130 H 0.52245 0.42492 0.69667 0.0
H2131 H 0.522 0.444 0.65152 0.0
H2132 H 0.55329 0.4066 0.58067 0.0
H2133 H 0.56489 0.37466 0.60909 0.0
C2134 C 0.55846 0.37326 0.66371 0.0
C2135 C 0.55422 0.37445 0.69249 0.0
C2136 C 0.55033 0.39072 0.6469 0.0
C2137 C 0.54051 0.39271 0.70388 0.0
C2138 C 0.53237 0.41048 0.68717 0.0
C2139 C 0.53099 0.42859 0.6422 0.0
C2140 C 0.53721 0.42806 0.61415 0.0
C2141 C 0.53759 0.40996 0.65876 0.0
C2142 C 0.54886 0.40793 0.6024 0.0
C2143 C 0.5554 0.38954 0.61859 0.0
H2144 H 0.46965 0.80132 0.3491 0.0
H2145 H 0.50748 0.8828 0.35299 0.0
H2146 H 0.46548 0.89327 0.33874 0.0
H2147 H 0.41736 0.88049 0.33141 0.0
H2148 H 0.38006 0.79864 0.32681 0.0
H2149 H 0.42209 0.78718 0.33506 0.0
C2150 C 0.46884 0.82117 0.34568 0.0
C2151 C 0.49212 0.84109 0.35167 0.0
C2152 C 0.44443 0.82714 0.33799 0.0
C2153 C 0.49031 0.86681 0.34777 0.0
C2154 C 0.46609 0.87292 0.34014 0.0
C2155 C 0.41839 0.86 0.33159 0.0
C2156 C 0.39521 0.84043 0.32835 0.0
C2157 C 0.44293 0.85346 0.33613 0.0
C2158 C 0.39721 0.81407 0.32883 0.0
C2159 C 0.42141 0.80754 0.33374 0.0
H2160 H 0.08146 0.75382 0.15854 0.0
H2161 H 0.03486 0.72325 0.2171 0.0
H2162 H 0.03024 0.6775 0.18949 0.0
H2163 H 0.04233 0.64623 0.15023 0.0
H2164 H 0.09139 0.67957 0.0951 0.0
H2165 H 0.09247 0.72421 0.12039 0.0
C2166 C 0.07016 0.7373 0.16548 0.0
C2167 C 0.05873 0.74205 0.19012 0.0
C2168 C 0.06832 0.71144 0.15026 0.0
C2169 C 0.04391 0.72021 0.19825 0.0
C2170 C 0.04142 0.69406 0.18256 0.0
C2171 C 0.05311 0.66331 0.14373 0.0
C2172 C 0.0669 0.65941 0.12086 0.0
C2173 C 0.05399 0.6894 0.15879 0.0
C2174 C 0.08081 0.68178 0.11274 0.0
C2175 C 0.08138 0.70744 0.12712 0.0
H2176 H 0.15871 0.37423 0.83032 0.0
H2177 H 0.15797 0.33275 0.90169 0.0
H2178 H 0.2014 0.3263 0.89837 0.0
H2179 H 0.24039 0.33212 0.87446 0.0
H2180 H 0.23915 0.37338 0.80266 0.0
H2181 H 0.19653 0.38003 0.80706 0.0
C2182 C 0.16788 0.36373 0.84526 0.0
C2183 C 0.1545 0.35404 0.86626 0.0
C2184 C 0.19302 0.36001 0.84319 0.0
C2185 C 0.16729 0.34047 0.88519 0.0
C2186 C 0.19237 0.33679 0.88333 0.0
C2187 C 0.23092 0.34277 0.85994 0.0
C2188 C 0.24363 0.3523 0.83822 0.0
C2189 C 0.2056 0.34647 0.86237 0.0
C2190 C 0.23042 0.36576 0.81959 0.0
C2191 C 0.20576 0.3696 0.82205 0.0
H2192 H 0.66134 0.82471 0.0088 0.0
H2193 H 0.69808 0.85831 0.09891 0.0
H2194 H 0.69327 0.81363 0.10952 0.0
H2195 H 0.6702 0.76681 0.09569 0.0
H2196 H 0.62785 0.73432 0.00733 0.0
H2197 H 0.64357 0.77649 0.99319 0.0
C2198 C 0.66936 0.82208 0.03038 0.0
C2199 C 0.6801 0.84453 0.05309 0.0
C2200 C 0.66483 0.79654 0.03673 0.0
C2201 C 0.68991 0.84114 0.08115 0.0
C2202 C 0.68684 0.81566 0.08727 0.0
C2203 C 0.66478 0.76889 0.07323 0.0
C2204 C 0.64751 0.74781 0.05272 0.0
C2205 C 0.67294 0.79346 0.06566 0.0
C2206 C 0.64109 0.75036 0.02351 0.0
C2207 C 0.64993 0.77452 0.01548 0.0
H2208 H 0.05805 0.72252 0.74314 0.0
H2209 H 0.0575 0.80528 0.74427 0.0
H2210 H 0.10352 0.81827 0.76474 0.0
H2211 H 0.14429 0.80578 0.77834 0.0
H2212 H 0.14553 0.72278 0.77331 0.0
H2213 H 0.09865 0.71027 0.75915 0.0
C2214 C 0.06794 0.74343 0.74825 0.0
C2215 C 0.0545 0.76288 0.74202 0.0
C2216 C 0.09446 0.75071 0.75934 0.0
C2217 C 0.06752 0.7899 0.74867 0.0
C2218 C 0.0938 0.79736 0.76037 0.0
C2219 C 0.13426 0.78497 0.7742 0.0
C2220 C 0.14827 0.76523 0.77658 0.0
C2221 C 0.10753 0.77787 0.76511 0.0
C2222 C 0.1351 0.73838 0.77184 0.0
C2223 C 0.10834 0.73118 0.76349 0.0
H2224 H 0.16206 0.48131 0.60568 0.0
H2225 H 0.16567 0.49061 0.51725 0.0
H2226 H 0.15083 0.53203 0.5266 0.0
H2227 H 0.1271 0.55849 0.55556 0.0
H2228 H 0.11597 0.54324 0.6402 0.0
H2229 H 0.14358 0.51131 0.63694 0.0
C2230 C 0.16037 0.49283 0.5887 0.0
C2231 C 0.16437 0.48261 0.56062 0.0
C2232 C 0.14986 0.51525 0.59347 0.0
C2233 C 0.16262 0.49797 0.53902 0.0
C2234 C 0.15374 0.52145 0.54424 0.0
C2235 C 0.13134 0.54876 0.57367 0.0
C2236 C 0.11939 0.55287 0.59801 0.0
C2237 C 0.14577 0.52923 0.57073 0.0
C2238 C 0.12491 0.54014 0.62125 0.0
C2239 C 0.14057 0.52186 0.61929 0.0
H2240 H 0.4861 0.30781 0.26653 0.0
H2241 H 0.40727 0.26573 0.23144 0.0
H2242 H 0.3935 0.29143 0.27226 0.0
H2243 H 0.40456 0.32186 0.32041 0.0
H2244 H 0.48367 0.36014 0.35846 0.0
H2245 H 0.49707 0.33961 0.3141 0.0
C2246 C 0.46586 0.30448 0.26786 0.0
C2247 C 0.44752 0.28532 0.24618 0.0
C2248 C 0.45842 0.31785 0.29227 0.0
C2249 C 0.42149 0.28056 0.248 0.0
C2250 C 0.41374 0.29491 0.27144 0.0
C2251 C 0.42475 0.32519 0.31906 0.0
C2252 C 0.4433 0.34147 0.34272 0.0
C2253 C 0.43212 0.31284 0.29412 0.0
C2254 C 0.46929 0.34713 0.34054 0.0
C2255 C 0.47683 0.33544 0.3153 0.0
H2256 H 0.62819 0.5815 0.40173 0.0
H2257 H 0.69489 0.5567 0.44047 0.0
H2258 H 0.67647 0.55346 0.48461 0.0
H2259 H 0.64258 0.56075 0.51399 0.0
H2260 H 0.57515 0.58361 0.47406 0.0
H2261 H 0.59248 0.58432 0.42899 0.0
C2262 C 0.63871 0.57502 0.41963 0.0
C2263 C 0.66327 0.56943 0.41727 0.0
C2264 C 0.62776 0.57299 0.44504 0.0
C2265 C 0.67611 0.56097 0.44103 0.0
C2266 C 0.66554 0.5593 0.46653 0.0
C2267 C 0.63139 0.5655 0.49528 0.0
C2268 C 0.60728 0.57213 0.49788 0.0
C2269 C 0.64155 0.56567 0.46906 0.0
C2270 C 0.59341 0.5782 0.47309 0.0
C2271 C 0.60352 0.57878 0.44722 0.0
H2272 H 0.28406 0.85458 0.13688 0.0
H2273 H 0.25516 0.9214 0.17389 0.0
H2274 H 0.26537 0.91136 0.2229 0.0
H2275 H 0.28587 0.88517 0.25564 0.0
H2276 H 0.31561 0.81945 0.21654 0.0
H2277 H 0.30226 0.82792 0.16818 0.0
C2278 C 0.27953 0.86674 0.15558 0.0
C2279 C 0.26876 0.88866 0.15165 0.0
C2280 C 0.28623 0.8614 0.18352 0.0
C2281 C 0.26303 0.90415 0.17615 0.0
C2282 C 0.26928 0.89863 0.20425 0.0
C2283 C 0.28954 0.87282 0.23654 0.0
C2284 C 0.302 0.85177 0.23998 0.0
C2285 C 0.28154 0.87768 0.20832 0.0
C2286 C 0.30622 0.83579 0.21482 0.0
C2287 C 0.29847 0.84054 0.18701 0.0
H2288 H 0.052 0.63987 0.91015 0.0
H2289 H 0.97949 0.65875 0.92195 0.0
H2290 H 0.98478 0.64671 0.97004 0.0
H2291 H 1.00713 0.62508 0.00554 0.0
H2292 H 0.08005 0.60701 0.99467 0.0
H2293 H 0.07761 0.62456 0.94947 0.0
C2294 C 0.03768 0.64208 0.92361 0.0
C2295 C 1.01529 0.65019 0.9123 0.0
C2296 C 0.04076 0.63481 0.95118 0.0
C2297 C 0.99699 0.65291 0.93009 0.0
C2298 C 0.99988 0.64567 0.95749 0.0
C2299 C 0.02273 0.62542 0.99354 0.0
C2300 C 0.04364 0.61448 1.00327 0.0
C2301 C 0.02122 0.6357 0.96775 0.0
C2302 C 0.0638 0.6153 0.98768 0.0
C2303 C 0.06231 0.62522 0.96176 0.0
H2304 H 0.28128 0.18719 0.53936 0.0
H2305 H 0.20518 0.20148 0.51693 0.0
H2306 H 0.21164 0.23144 0.56445 0.0
H2307 H 0.23878 0.2534 0.61216 0.0
H2308 H 0.31502 0.23976 0.63456 0.0
H2309 H 0.30843 0.20916 0.58721 0.0
C2310 C 0.2661 0.19686 0.54482 0.0
C2311 C 0.24281 0.19215 0.52462 0.0
C2312 C 0.2699 0.21398 0.57215 0.0
C2313 C 0.22331 0.20479 0.53208 0.0
C2314 C 0.22696 0.2219 0.55924 0.0
C2315 C 0.25403 0.24389 0.60655 0.0
C2316 C 0.27739 0.24888 0.62661 0.0
C2317 C 0.25018 0.22663 0.57936 0.0
C2318 C 0.2968 0.23602 0.61945 0.0
C2319 C 0.2931 0.2187 0.59238 0.0
H2320 H 0.63717 0.59312 0.26621 0.0
H2321 H 0.67945 0.53341 0.24234 0.0
H2322 H 0.65988 0.52845 0.19033 0.0
H2323 H 0.63201 0.54342 0.15102 0.0
H2324 H 0.59254 0.60507 0.17819 0.0
H2325 H 0.60985 0.60685 0.22908 0.0
C2326 C 0.64219 0.57879 0.24986 0.0
C2327 C 0.65996 0.5637 0.25859 0.0
C2328 C 0.63138 0.57654 0.2202 0.0
C2329 C 0.66585 0.54528 0.23659 0.0
C2330 C 0.6547 0.54256 0.20673 0.0
C2331 C 0.62708 0.55706 0.16813 0.0
C2332 C 0.61092 0.57419 0.16036 0.0
C2333 C 0.63763 0.5584 0.19813 0.0
C2334 C 0.60496 0.59178 0.18305 0.0
C2335 C 0.61485 0.59283 0.2124 0.0
H2336 H 0.28542 0.85169 1.00432 0.0
H2337 H 0.24784 0.90906 0.97119 0.0
H2338 H 0.25696 0.89386 0.92232 0.0
H2339 H 0.28067 0.86768 0.89071 0.0
H2340 H 0.31991 0.81251 0.92668 0.0
H2341 H 0.30524 0.82347 0.97257 0.0
C2342 C 0.27864 0.86052 0.98626 0.0
C2343 C 0.26585 0.88147 0.99153 0.0
C2344 C 0.28473 0.85231 0.95872 0.0
C2345 C 0.25732 0.89265 0.96779 0.0
C2346 C 0.26291 0.88417 0.93991 0.0
C2347 C 0.28559 0.85772 0.90843 0.0
C2348 C 0.30154 0.83926 0.90517 0.0
C2349 C 0.27734 0.86454 0.93532 0.0
C2350 C 0.30783 0.82677 0.9285 0.0
C2351 C 0.29943 0.83306 0.95483 0.0
H2352 H 0.05464 0.65957 0.76582 0.0
H2353 H 0.97456 0.64801 0.72699 0.0
H2354 H 0.9841 0.63481 0.67811 0.0
H2355 H 1.01468 0.62116 0.6473 0.0
H2356 H 0.09483 0.63364 0.68708 0.0
H2357 H 0.08578 0.6515 0.73469 0.0
C2358 C 0.0394 0.65497 0.74654 0.0
C2359 C 1.01395 0.65484 0.75003 0.0
C2360 C 0.04495 0.64673 0.71876 0.0
C2361 C 0.99437 0.64871 0.7249 0.0
C2362 C 0.99977 0.64066 0.69699 0.0
C2363 C 0.03012 0.62775 0.66645 0.0
C2364 C 0.05534 0.62551 0.66379 0.0
C2365 C 0.02485 0.63857 0.69381 0.0
C2366 C 0.07525 0.63483 0.68859 0.0
C2367 C 0.0701 0.64515 0.71582 0.0
H2368 H 0.28277 0.20646 0.42076 0.0
H2369 H 0.21856 0.17036 0.34926 0.0
H2370 H 0.22456 0.21127 0.33019 0.0
H2371 H 0.2456 0.25817 0.33617 0.0
H2372 H 0.31018 0.29481 0.40699 0.0
H2373 H 0.30597 0.25302 0.42486 0.0
C2374 C 0.27074 0.20731 0.40043 0.0
C2375 C 0.25046 0.18545 0.38613 0.0
C2376 C 0.27362 0.23127 0.39035 0.0
C2377 C 0.2345 0.18691 0.36029 0.0
C2378 C 0.23764 0.2104 0.3497 0.0
C2379 C 0.2584 0.25715 0.35588 0.0
C2380 C 0.27758 0.27962 0.37096 0.0
C2381 C 0.25651 0.23294 0.36515 0.0
C2382 C 0.29477 0.27783 0.39569 0.0
C2383 C 0.29262 0.2539 0.40557 0.0
H2384 H 0.42976 0.64997 0.53583 0.0
H2385 H 0.47942 0.72186 0.59102 0.0
H2386 H 0.51602 0.70045 0.59213 0.0
H2387 H 0.53378 0.66084 0.57827 0.0
H2388 H 0.48362 0.5889 0.52388 0.0
H2389 H 0.44754 0.6108 0.52164 0.0
C2390 C 0.44857 0.6611 0.5481 0.0
C2391 C 0.45164 0.68769 0.5633 0.0
C2392 C 0.46957 0.6486 0.54871 0.0
C2393 C 0.4763 0.70149 0.57911 0.0
C2394 C 0.49731 0.68921 0.57972 0.0
C2395 C 0.51513 0.65005 0.56546 0.0
C2396 C 0.51176 0.62321 0.55089 0.0
C2397 C 0.4942 0.66275 0.5646 0.0
C2398 C 0.48706 0.60954 0.5351 0.0
C2399 C 0.4663 0.62207 0.5339 0.0
H2400 H 0.96452 0.06072 0.68348 0.0
H2401 H 0.90178 0.03742 0.60899 0.0
H2402 H 0.93134 0.05097 0.57701 0.0
H2403 H 0.97627 0.06129 0.56942 0.0
H2404 H 0.03853 0.08553 0.64476 0.0
H2405 H 1.00798 0.08011 0.6773 0.0
C2406 C 0.95725 0.0597 0.66045 0.0
C2407 C 0.93124 0.04811 0.64844 0.0
C2408 C 0.97436 0.06713 0.64229 0.0
C2409 C 0.9218 0.04663 0.61864 0.0
C2410 C 0.93874 0.05398 0.60032 0.0
C2411 C 0.983 0.066 0.59299 0.0
C2412 C 1.00954 0.07318 0.60465 0.0
C2413 C 0.96526 0.06299 0.61171 0.0
C2414 C 1.01816 0.07967 0.63522 0.0
C2415 C 1.00072 0.07652 0.6539 0.0
H2416 H 0.92813 0.20562 0.3398 0.0
H2417 H 0.86318 0.14666 0.28609 0.0
H2418 H 0.83791 0.18122 0.28528 0.0
H2419 H 0.83409 0.22975 0.29981 0.0
H2420 H 0.90077 0.28682 0.35359 0.0
H2421 H 0.92457 0.25206 0.35418 0.0
C2422 C 0.90841 0.19993 0.3278 0.0
C2423 C 0.89807 0.17276 0.31301 0.0
C2424 C 0.89385 0.22013 0.32744 0.0
C2425 C 0.87221 0.16686 0.2978 0.0
C2426 C 0.8576 0.18692 0.29736 0.0
C2427 C 0.85377 0.23467 0.31185 0.0
C2428 C 0.86511 0.26183 0.32678 0.0
C2429 C 0.86811 0.21387 0.31211 0.0
C2430 C 0.89091 0.26684 0.34184 0.0
C2431 C 0.90483 0.24667 0.34222 0.0
H2432 H 0.80221 0.15756 0.01701 0.0
H2433 H 0.84038 0.16475 0.10608 0.0
H2434 H 0.803 0.13457 0.11494 0.0
H2435 H 0.75651 0.11629 0.10059 0.0
H2436 H 0.71851 0.10746 0.01073 0.0
H2437 H 0.75905 0.12803 0.99879 0.0
C2438 C 0.80271 0.15139 0.03787 0.0
C2439 C 0.82366 0.16334 0.06097 0.0
C2440 C 0.78102 0.13447 0.04287 0.0
C2441 C 0.82439 0.15551 0.08799 0.0
C2442 C 0.80288 0.1386 0.09315 0.0
C2443 C 0.75712 0.11769 0.07806 0.0
C2444 C 0.73417 0.11139 0.05692 0.0
C2445 C 0.78054 0.12936 0.07125 0.0
C2446 C 0.73566 0.11327 0.02781 0.0
C2447 C 0.75887 0.12491 0.02087 0.0
H2448 H 0.21394 0.45428 0.38744 0.0
H2449 H 0.18771 0.43893 0.29362 0.0
H2450 H 0.2137 0.40593 0.28717 0.0
H2451 H 0.2447 0.38249 0.30751 0.0
H2452 H 0.27139 0.3966 0.40104 0.0
H2453 H 0.24438 0.42905 0.4082 0.0
C2454 C 0.21376 0.44361 0.36556 0.0
C2455 C 0.19885 0.44936 0.34101 0.0
C2456 C 0.2289 0.42448 0.36194 0.0
C2457 C 0.19888 0.4351 0.31292 0.0
C2458 C 0.21382 0.41618 0.30919 0.0
C2459 C 0.24459 0.39241 0.3296 0.0
C2460 C 0.26015 0.38692 0.35374 0.0
C2461 C 0.22903 0.41088 0.33347 0.0
C2462 C 0.25972 0.40034 0.38205 0.0
C2463 C 0.24425 0.41893 0.38611 0.0
H2464 H 0.29376 0.53359 0.15725 0.0
H2465 H 0.33356 0.55833 0.09046 0.0
H2466 H 0.29931 0.57975 0.0739 0.0
H2467 H 0.25798 0.59101 0.07794 0.0
H2468 H 0.21682 0.56419 0.1428 0.0
H2469 H 0.25201 0.54456 0.16098 0.0
C2470 C 0.29498 0.54376 0.13915 0.0
C2471 C 0.31614 0.54435 0.12509 0.0
C2472 C 0.27507 0.55578 0.12949 0.0
C2473 C 0.31741 0.55749 0.10158 0.0
C2474 C 0.29786 0.56978 0.09211 0.0
C2475 C 0.25657 0.58067 0.09588 0.0
C2476 C 0.23478 0.57912 0.10894 0.0
C2477 C 0.27655 0.56891 0.10579 0.0
C2478 C 0.23354 0.56608 0.13259 0.0
C2479 C 0.25355 0.55464 0.14286 0.0
H2480 H 0.91458 0.9779 0.28502 0.0
H2481 H 0.86074 0.02206 0.31512 0.0
H2482 H 0.83513 0.98077 0.32443 0.0
H2483 H 0.82947 0.93144 0.327 0.0
H2484 H 0.88622 0.89041 0.29891 0.0
H2485 H 0.90873 0.93063 0.28605 0.0
C2486 C 0.89711 0.97885 0.29338 0.0
C2487 C 0.88994 1.00382 0.29909 0.0
C2488 C 0.88276 0.95507 0.29922 0.0
C2489 C 0.86705 1.00365 0.31009 0.0
C2490 C 0.85236 0.97981 0.31561 0.0
C2491 C 0.84641 0.93113 0.31743 0.0
C2492 C 0.85563 0.90711 0.31342 0.0
C2493 C 0.86012 0.95524 0.3106 0.0
C2494 C 0.87823 0.90795 0.30189 0.0
C2495 C 0.89131 0.9312 0.29462 0.0
H2496 H 0.73149 0.10923 0.86708 0.0
H2497 H 0.73253 0.05265 0.78957 0.0
H2498 H 0.76794 0.08415 0.77869 0.0
H2499 H 0.79118 0.13107 0.78559 0.0
H2500 H 0.78788 0.18792 0.86211 0.0
H2501 H 0.7615 0.15293 0.87952 0.0
C2502 C 0.74023 0.10348 0.84847 0.0
C2503 C 0.72936 0.07901 0.82889 0.0
C2504 C 0.75993 0.12194 0.84196 0.0
C2505 C 0.74074 0.07146 0.80494 0.0
C2506 C 0.76073 0.08961 0.79852 0.0
C2507 C 0.78521 0.13557 0.80644 0.0
C2508 C 0.79108 0.16209 0.82223 0.0
C2509 C 0.76936 0.11545 0.81596 0.0
C2510 C 0.78368 0.16767 0.8495 0.0
C2511 C 0.76835 0.1477 0.85938 0.0
loop_
_geom_bond_atom_site_label_1
_geom_bond_atom_site_label_2
_geom_bond_distance
_geom_bond_site_symmetry_2
_ccdc_geom_bond_type
Zn0 O3 2.031 . S
Zn0 O5 2.049 . S
Zn0 O10 2.067 . S
Zn1 O2 1.962 . S
Zn1 O4 1.986 . S
Zn1 O6 1.996 . S
Zn1 O9 1.943 . S
O2 Zn1 1.962 . S
O2 C7 1.254 . S
O3 Zn0 2.031 . S
O3 C7 1.269 . S
O4 Zn1 1.986 . S
O4 C11 1.262 . S
O5 Zn0 2.049 . S
O5 C13 1.260 . S
O6 Zn1 1.996 . S
O6 C13 1.257 . S
C7 O2 1.254 . S
C7 O3 1.269 . S
C8 O9 1.249 . S
C8 O10 1.270 . S
O9 Zn1 1.943 . S
O9 C8 1.249 . S
O10 Zn0 2.067 . S
O10 C8 1.270 . S
C11 O4 1.262 . S
C11 O12 1.232 . S
O12 C11 1.232 . S
C13 O5 1.260 . S
C13 O6 1.257 . S
Zn14 O17 2.031 1_455 S
Zn14 O19 2.049 . S
Zn14 O24 2.067 . S
Zn15 O16 1.956 1_455 S
Zn15 O18 1.988 . S
Zn15 O20 2.001 . S
Zn15 O23 1.944 1_455 S
O16 Zn15 1.956 1_655 S
O16 C21 1.254 . S
O17 Zn14 2.031 1_655 S
O17 C21 1.269 . S
O18 Zn15 1.988 . S
O18 C25 1.287 . S
O19 Zn14 2.049 . S
O19 C27 1.260 . S
O20 Zn15 2.001 . S
O20 C27 1.257 . S
C21 O16 1.254 . S
C21 O17 1.269 . S
C22 O23 1.249 . S
C22 O24 1.270 1_655 S
O23 Zn15 1.944 1_655 S
O23 C22 1.249 . S
O24 Zn14 2.067 . S
O24 C22 1.270 1_455 S
C25 O18 1.287 . S
C25 O26 1.204 1_455 S
O26 C25 1.204 1_655 S
C27 O19 1.260 . S
C27 O20 1.257 . S
Zn28 O31 2.031 . S
Zn28 O33 2.049 . S
Zn28 O38 2.067 1_554 S
Zn29 O30 1.968 . S
Zn29 O32 1.979 1_554 S
Zn29 O34 2.009 . S
Zn29 O37 1.936 1_554 S
O30 Zn29 1.968 . S
O30 C35 1.254 . S
O31 Zn28 2.031 . S
O31 C35 1.269 . S
O32 Zn29 1.979 1_556 S
O32 C39 1.262 . S
O33 Zn28 2.049 . S
O33 C41 1.260 . S
O34 Zn29 2.009 . S
O34 C41 1.257 . S
C35 O30 1.254 . S
C35 O31 1.269 . S
C36 O37 1.249 . S
C36 O38 1.270 . S
O37 Zn29 1.936 1_556 S
O37 C36 1.249 . S
O38 Zn28 2.067 1_556 S
O38 C36 1.270 . S
C39 O32 1.262 . S
C39 O40 1.232 . S
O40 C39 1.232 . S
C41 O33 1.260 . S
C41 O34 1.257 . S
Zn42 O45 2.031 . S
Zn42 O47 2.049 . S
Zn42 O52 2.067 . S
Zn43 O44 1.962 . S
Zn43 O46 1.986 . S
Zn43 O48 1.996 . S
Zn43 O51 1.943 . S
O44 Zn43 1.962 . S
O44 C49 1.254 . S
O45 Zn42 2.031 . S
O45 C49 1.269 . S
O46 Zn43 1.986 . S
O46 C53 1.262 . S
O47 Zn42 2.049 . S
O47 C55 1.260 . S
O48 Zn43 1.996 . S
O48 C55 1.257 . S
C49 O44 1.254 . S
C49 O45 1.269 . S
C50 O51 1.249 . S
C50 O52 1.270 . S
O51 Zn43 1.943 . S
O51 C50 1.249 . S
O52 Zn42 2.067 . S
O52 C50 1.270 . S
C53 O46 1.262 . S
C53 O54 1.232 . S
O54 C53 1.232 . S
C55 O47 1.260 . S
C55 O48 1.257 . S
Zn56 O59 2.031 . S
Zn56 O61 2.049 . S
Zn56 O66 2.067 . S
Zn57 O58 1.962 . S
Zn57 O60 1.986 . S
Zn57 O62 1.996 . S
Zn57 O65 1.943 . S
O58 Zn57 1.962 . S
O58 C63 1.254 . S
O59 Zn56 2.031 . S
O59 C63 1.269 . S
O60 Zn57 1.986 . S
O60 C67 1.262 . S
O61 Zn56 2.049 . S
O61 C69 1.260 . S
O62 Zn57 1.996 . S
O62 C69 1.257 . S
C63 O58 1.254 . S
C63 O59 1.269 . S
C64 O65 1.249 . S
C64 O66 1.270 . S
O65 Zn57 1.943 . S
O65 C64 1.249 . S
O66 Zn56 2.067 . S
O66 C64 1.270 . S
C67 O60 1.262 . S
C67 O68 1.232 . S
O68 C67 1.232 . S
C69 O61 1.260 . S
C69 O62 1.257 . S
Zn70 O73 2.031 . S
Zn70 O75 2.049 . S
Zn70 O80 2.067 . S
Zn71 O72 1.962 . S
Zn71 O74 1.986 . S
Zn71 O76 1.996 . S
Zn71 O79 1.943 . S
O72 Zn71 1.962 . S
O72 C77 1.254 . S
O73 Zn70 2.031 . S
O73 C77 1.269 . S
O74 Zn71 1.986 . S
O74 C81 1.262 . S
O75 Zn70 2.049 . S
O75 C83 1.260 . S
O76 Zn71 1.996 . S
O76 C83 1.257 . S
C77 O72 1.254 . S
C77 O73 1.269 . S
C78 O79 1.249 . S
C78 O80 1.270 . S
O79 Zn71 1.943 . S
O79 C78 1.249 . S
O80 Zn70 2.067 . S
O80 C78 1.270 . S
C81 O74 1.262 . S
C81 O82 1.232 . S
O82 C81 1.232 . S
C83 O75 1.260 . S
C83 O76 1.257 . S
Zn84 O87 2.031 . S
Zn84 O89 2.049 . S
Zn84 O94 2.067 . S
Zn85 O86 1.962 . S
Zn85 O88 1.986 . S
Zn85 O90 1.996 . S
Zn85 O93 1.943 . S
O86 Zn85 1.962 . S
O86 C91 1.254 . S
O87 Zn84 2.031 . S
O87 C91 1.269 . S
O88 Zn85 1.986 . S
O88 C95 1.262 . S
O89 Zn84 2.049 . S
O89 C97 1.260 . S
O90 Zn85 1.996 . S
O90 C97 1.257 . S
C91 O86 1.254 . S
C91 O87 1.269 . S
C92 O93 1.249 . S
C92 O94 1.270 . S
O93 Zn85 1.943 . S
O93 C92 1.249 . S
O94 Zn84 2.067 . S
O94 C92 1.270 . S
C95 O88 1.262 . S
C95 O96 1.232 . S
O96 C95 1.232 . S
C97 O89 1.260 . S
C97 O90 1.257 . S
Zn98 O101 2.031 . S
Zn98 O103 2.049 . S
Zn98 O108 2.067 . S
Zn99 O100 1.962 . S
Zn99 O102 1.986 . S
Zn99 O104 1.996 . S
Zn99 O107 1.943 . S
O100 Zn99 1.962 . S
O100 C105 1.254 . S
O101 Zn98 2.031 . S
O101 C105 1.269 . S
O102 Zn99 1.986 . S
O102 C109 1.262 . S
O103 Zn98 2.049 . S
O103 C111 1.260 . S
O104 Zn99 1.996 . S
O104 C111 1.257 . S
C105 O100 1.254 . S
C105 O101 1.269 . S
C106 O107 1.249 . S
C106 O108 1.270 . S
O107 Zn99 1.943 . S
O107 C106 1.249 . S
O108 Zn98 2.067 . S
O108 C106 1.270 . S
C109 O102 1.262 . S
C109 O110 1.232 . S
O110 C109 1.232 . S
C111 O103 1.260 . S
C111 O104 1.257 . S
Zn112 O115 2.031 . S
Zn112 O117 2.049 . S
Zn112 O122 2.067 . S
Zn113 O114 1.962 . S
Zn113 O116 1.986 . S
Zn113 O118 1.996 . S
Zn113 O121 1.943 . S
O114 Zn113 1.962 . S
O114 C119 1.254 . S
O115 Zn112 2.031 . S
O115 C119 1.269 . S
O116 Zn113 1.986 . S
O116 C123 1.262 . S
O117 Zn112 2.049 . S
O117 C125 1.260 . S
O118 Zn113 1.996 . S
O118 C125 1.257 . S
C119 O114 1.254 . S
C119 O115 1.269 . S
C120 O121 1.249 . S
C120 O122 1.270 . S
O121 Zn113 1.943 . S
O121 C120 1.249 . S
O122 Zn112 2.067 . S
O122 C120 1.270 . S
C123 O116 1.262 . S
C123 O124 1.232 . S
O124 C123 1.232 . S
C125 O117 1.260 . S
C125 O118 1.257 . S
Zn126 O129 2.031 . S
Zn126 O131 2.049 . S
Zn126 O136 2.067 . S
Zn127 O128 1.962 . S
Zn127 O130 1.986 . S
Zn127 O132 1.996 . S
Zn127 O135 1.943 . S
O128 Zn127 1.962 . S
O128 C133 1.254 . S
O129 Zn126 2.031 . S
O129 C133 1.269 . S
O130 Zn127 1.986 . S
O130 C137 1.262 . S
O131 Zn126 2.049 . S
O131 C139 1.260 . S
O132 Zn127 1.996 . S
O132 C139 1.257 . S
C133 O128 1.254 . S
C133 O129 1.269 . S
C134 O135 1.249 . S
C134 O136 1.270 . S
O135 Zn127 1.943 . S
O135 C134 1.249 . S
O136 Zn126 2.067 . S
O136 C134 1.270 . S
C137 O130 1.262 . S
C137 O138 1.232 . S
O138 C137 1.232 . S
C139 O131 1.260 . S
C139 O132 1.257 . S
Zn140 O143 2.031 . S
Zn140 O145 2.049 . S
Zn140 O150 2.067 . S
Zn141 O142 1.962 . S
Zn141 O144 1.986 . S
Zn141 O146 1.996 . S
Zn141 O149 1.943 . S
O142 Zn141 1.962 . S
O142 C147 1.254 . S
O143 Zn140 2.031 . S
O143 C147 1.269 . S
O144 Zn141 1.986 . S
O144 C151 1.271 . S
O145 Zn140 2.049 . S
O145 C153 1.260 . S
O146 Zn141 1.996 . S
O146 C153 1.257 . S
C147 O142 1.254 . S
C147 O143 1.269 . S
C148 O149 1.249 . S
C148 O150 1.270 . S
O149 Zn141 1.943 . S
O149 C148 1.249 . S
O150 Zn140 2.067 . S
O150 C148 1.270 . S
C151 O144 1.271 . S
C151 O152 1.242 . S
O152 C151 1.242 . S
C153 O145 1.260 . S
C153 O146 1.257 . S
Zn154 O157 2.031 . S
Zn154 O159 2.049 . S
Zn154 O164 2.067 . S
Zn155 O156 1.962 . S
Zn155 O158 1.986 . S
Zn155 O160 1.996 . S
Zn155 O163 1.943 . S
O156 Zn155 1.962 . S
O156 C161 1.254 . S
O157 Zn154 2.031 . S
O157 C161 1.269 . S
O158 Zn155 1.986 . S
O158 C165 1.262 . S
O159 Zn154 2.049 . S
O159 C167 1.260 . S
O160 Zn155 1.996 . S
O160 C167 1.257 . S
C161 O156 1.254 . S
C161 O157 1.269 . S
C162 O163 1.249 . S
C162 O164 1.270 . S
O163 Zn155 1.943 . S
O163 C162 1.249 . S
O164 Zn154 2.067 . S
O164 C162 1.270 . S
C165 O158 1.262 . S
C165 O166 1.232 . S
O166 C165 1.232 . S
C167 O159 1.260 . S
C167 O160 1.257 . S
Zn168 O171 2.031 . S
Zn168 O173 2.049 . S
Zn168 O178 2.067 . S
Zn169 O170 1.962 . S
Zn169 O172 1.986 . S
Zn169 O174 1.996 . S
Zn169 O177 1.943 . S
O170 Zn169 1.962 . S
O170 C175 1.254 . S
O171 Zn168 2.031 . S
O171 C175 1.269 . S
O172 Zn169 1.986 . S
O172 C179 1.262 . S
O173 Zn168 2.049 . S
O173 C181 1.260 . S
O174 Zn169 1.996 . S
O174 C181 1.257 . S
C175 O170 1.254 . S
C175 O171 1.269 . S
C176 O177 1.249 . S
C176 O178 1.270 . S
O177 Zn169 1.943 . S
O177 C176 1.249 . S
O178 Zn168 2.067 . S
O178 C176 1.270 . S
C179 O172 1.262 . S
C179 O180 1.232 . S
O180 C179 1.232 . S
C181 O173 1.260 . S
C181 O174 1.257 . S
Zn182 O185 2.031 . S
Zn182 O187 2.049 . S
Zn182 O192 2.067 . S
Zn183 O184 1.962 . S
Zn183 O186 1.986 . S
Zn183 O188 1.996 . S
Zn183 O191 1.943 . S
O184 Zn183 1.962 . S
O184 C189 1.254 . S
O185 Zn182 2.031 . S
O185 C189 1.269 . S
O186 Zn183 1.986 . S
O186 C193 1.262 . S
O187 Zn182 2.049 . S
O187 C195 1.260 . S
O188 Zn183 1.996 . S
O188 C195 1.257 . S
C189 O184 1.254 . S
C189 O185 1.269 . S
C190 O191 1.249 . S
C190 O192 1.270 . S
O191 Zn183 1.943 . S
O191 C190 1.249 . S
O192 Zn182 2.067 . S
O192 C190 1.270 . S
C193 O186 1.262 . S
C193 O194 1.232 . S
O194 C193 1.232 . S
C195 O187 1.260 . S
C195 O188 1.257 . S
Zn196 O199 2.031 . S
Zn196 O201 2.049 . S
Zn196 O206 2.067 . S
Zn197 O198 1.962 . S
Zn197 O200 1.986 . S
Zn197 O202 1.996 . S
Zn197 O205 1.943 . S
O198 Zn197 1.962 . S
O198 C203 1.254 . S
O199 Zn196 2.031 . S
O199 C203 1.269 . S
O200 Zn197 1.986 . S
O200 C207 1.262 . S
O201 Zn196 2.049 . S
O201 C209 1.260 . S
O202 Zn197 1.996 . S
O202 C209 1.257 . S
C203 O198 1.254 . S
C203 O199 1.269 . S
C204 O205 1.249 . S
C204 O206 1.270 . S
O205 Zn197 1.943 . S
O205 C204 1.249 . S
O206 Zn196 2.067 . S
O206 C204 1.270 . S
C207 O200 1.262 . S
C207 O208 1.232 . S
O208 C207 1.232 . S
C209 O201 1.260 . S
C209 O202 1.257 . S
Zn210 O213 2.031 . S
Zn210 O215 2.049 . S
Zn210 O220 2.067 1_565 S
Zn211 O212 1.962 . S
Zn211 O214 1.986 1_565 S
Zn211 O216 1.996 . S
Zn211 O219 1.943 1_565 S
O212 Zn211 1.962 . S
O212 C217 1.254 . S
O213 Zn210 2.031 . S
O213 C217 1.269 . S
O214 Zn211 1.986 1_545 S
O214 C221 1.262 . S
O215 Zn210 2.049 . S
O215 C223 1.260 . S
O216 Zn211 1.996 . S
O216 C223 1.257 . S
C217 O212 1.254 . S
C217 O213 1.269 . S
C218 O219 1.249 . S
C218 O220 1.270 . S
O219 Zn211 1.943 1_545 S
O219 C218 1.249 . S
O220 Zn210 2.067 1_545 S
O220 C218 1.270 . S
C221 O214 1.262 . S
C221 O222 1.232 . S
O222 C221 1.232 . S
C223 O215 1.260 . S
C223 O216 1.257 . S
Zn224 O227 2.031 . S
Zn224 O229 2.049 . S
Zn224 O234 2.067 . S
Zn225 O226 1.962 . S
Zn225 O228 1.986 . S
Zn225 O230 1.996 . S
Zn225 O233 1.943 . S
O226 Zn225 1.962 . S
O226 C231 1.254 . S
O227 Zn224 2.031 . S
O227 C231 1.269 . S
O228 Zn225 1.986 . S
O228 C235 1.262 . S
O229 Zn224 2.049 . S
O229 C237 1.260 . S
O230 Zn225 1.996 . S
O230 C237 1.257 . S
C231 O226 1.254 . S
C231 O227 1.269 . S
C232 O233 1.249 . S
C232 O234 1.270 . S
O233 Zn225 1.943 . S
O233 C232 1.249 . S
O234 Zn224 2.067 . S
O234 C232 1.270 . S
C235 O228 1.262 . S
C235 O236 1.232 . S
O236 C235 1.232 . S
C237 O229 1.260 . S
C237 O230 1.257 . S
Zn238 O241 2.031 . S
Zn238 O243 2.049 . S
Zn238 O248 2.067 . S
Zn239 O240 1.962 . S
Zn239 O242 1.986 . S
Zn239 O244 1.996 . S
Zn239 O247 1.943 . S
O240 Zn239 1.962 . S
O240 C245 1.254 . S
O241 Zn238 2.031 . S
O241 C245 1.269 . S
O242 Zn239 1.986 . S
O242 C249 1.262 . S
O243 Zn238 2.049 . S
O243 C251 1.260 . S
O244 Zn239 1.996 . S
O244 C251 1.257 . S
C245 O240 1.254 . S
C245 O241 1.269 . S
C246 O247 1.249 . S
C246 O248 1.270 . S
O247 Zn239 1.943 . S
O247 C246 1.249 . S
O248 Zn238 2.067 . S
O248 C246 1.270 . S
C249 O242 1.262 . S
C249 O250 1.232 . S
O250 C249 1.232 . S
C251 O243 1.260 . S
C251 O244 1.257 . S
Zn252 O255 2.031 . S
Zn252 O257 2.049 . S
Zn252 O262 2.067 . S
Zn253 O254 1.962 . S
Zn253 O256 1.986 . S
Zn253 O258 1.996 . S
Zn253 O261 1.943 . S
O254 Zn253 1.962 . S
O254 C259 1.254 . S
O255 Zn252 2.031 . S
O255 C259 1.269 . S
O256 Zn253 1.986 . S
O256 C263 1.262 . S
O257 Zn252 2.049 . S
O257 C265 1.260 . S
O258 Zn253 1.996 . S
O258 C265 1.257 . S
C259 O254 1.254 . S
C259 O255 1.269 . S
C260 O261 1.249 . S
C260 O262 1.270 . S
O261 Zn253 1.943 . S
O261 C260 1.249 . S
O262 Zn252 2.067 . S
O262 C260 1.270 . S
C263 O256 1.262 . S
C263 O264 1.232 . S
O264 C263 1.232 . S
C265 O257 1.260 . S
C265 O258 1.257 . S
Zn266 O269 2.031 . S
Zn266 O271 2.049 . S
Zn266 O276 2.067 . S
Zn267 O268 1.962 . S
Zn267 O270 1.986 . S
Zn267 O272 1.996 . S
Zn267 O275 1.943 1_565 S
O268 Zn267 1.962 . S
O268 C273 1.254 1_565 S
O269 Zn266 2.031 . S
O269 C273 1.269 . S
O270 Zn267 1.986 . S
O270 C277 1.262 . S
O271 Zn266 2.049 . S
O271 C279 1.224 1_545 S
O272 Zn267 1.996 . S
O272 C279 1.279 . S
C273 O268 1.254 1_545 S
C273 O269 1.269 . S
C274 O275 1.249 . S
C274 O276 1.270 . S
O275 Zn267 1.943 1_545 S
O275 C274 1.249 . S
O276 Zn266 2.067 . S
O276 C274 1.270 . S
C277 O270 1.262 . S
C277 O278 1.232 . S
O278 C277 1.232 . S
C279 O271 1.224 1_565 S
C279 O272 1.279 . S
Zn280 O283 2.031 1_554 S
Zn280 O285 2.049 . S
Zn280 O290 2.067 . S
Zn281 O282 1.969 . S
Zn281 O284 1.983 1_556 S
Zn281 O286 1.991 1_556 S
Zn281 O289 1.942 . S
O282 Zn281 1.969 . S
O282 C287 1.254 . S
O283 Zn280 2.031 1_556 S
O283 C287 1.269 . S
O284 Zn281 1.983 1_554 S
O284 C291 1.262 1_554 S
O285 Zn280 2.049 . S
O285 C293 1.260 . S
O286 Zn281 1.991 1_554 S
O286 C293 1.257 . S
C287 O282 1.254 . S
C287 O283 1.269 . S
C288 O289 1.249 . S
C288 O290 1.270 1_556 S
O289 Zn281 1.942 . S
O289 C288 1.249 . S
O290 Zn280 2.067 . S
O290 C288 1.270 1_554 S
C291 O284 1.262 1_556 S
C291 O292 1.232 . S
O292 C291 1.232 . S
C293 O285 1.260 . S
C293 O286 1.257 . S
Zn294 O297 2.031 1_455 S
Zn294 O299 2.049 . S
Zn294 O304 2.067 1_455 S
Zn295 O296 1.962 . S
Zn295 O298 1.986 . S
Zn295 O300 1.996 . S
Zn295 O303 1.943 . S
O296 Zn295 1.962 . S
O296 C301 1.254 . S
O297 Zn294 2.031 1_655 S
O297 C301 1.269 . S
O298 Zn295 1.986 . S
O298 C305 1.262 . S
O299 Zn294 2.049 . S
O299 C307 1.260 1_455 S
O300 Zn295 1.996 . S
O300 C307 1.257 . S
C301 O296 1.254 . S
C301 O297 1.269 . S
C302 O303 1.249 . S
C302 O304 1.270 . S
O303 Zn295 1.943 . S
O303 C302 1.249 . S
O304 Zn294 2.067 1_655 S
O304 C302 1.270 . S
C305 O298 1.262 . S
C305 O306 1.232 . S
O306 C305 1.232 . S
C307 O299 1.260 1_655 S
C307 O300 1.257 . S
Zn308 O311 2.031 . S
Zn308 O313 2.049 . S
Zn308 O318 2.067 . S
Zn309 O310 1.962 . S
Zn309 O312 1.986 . S
Zn309 O314 1.996 . S
Zn309 O317 1.943 . S
O310 Zn309 1.962 . S
O310 C315 1.254 . S
O311 Zn308 2.031 . S
O311 C315 1.269 . S
O312 Zn309 1.986 . S
O312 C319 1.262 . S
O313 Zn308 2.049 . S
O313 C321 1.260 . S
O314 Zn309 1.996 . S
O314 C321 1.257 . S
C315 O310 1.254 . S
C315 O311 1.269 . S
C316 O317 1.249 . S
C316 O318 1.270 . S
O317 Zn309 1.943 . S
O317 C316 1.249 . S
O318 Zn308 2.067 . S
O318 C316 1.270 . S
C319 O312 1.262 . S
C319 O320 1.232 . S
O320 C319 1.232 . S
C321 O313 1.260 . S
C321 O314 1.257 . S
Zn322 O325 2.031 . S
Zn322 O327 2.049 . S
Zn322 O332 2.067 . S
Zn323 O324 1.962 . S
Zn323 O326 1.986 . S
Zn323 O328 1.996 . S
Zn323 O331 1.943 . S
O324 Zn323 1.962 . S
O324 C329 1.254 . S
O325 Zn322 2.031 . S
O325 C329 1.269 . S
O326 Zn323 1.986 . S
O326 C333 1.262 . S
O327 Zn322 2.049 . S
O327 C335 1.260 . S
O328 Zn323 1.996 . S
O328 C335 1.257 . S
C329 O324 1.254 . S
C329 O325 1.269 . S
C330 O331 1.249 . S
C330 O332 1.270 . S
O331 Zn323 1.943 . S
O331 C330 1.249 . S
O332 Zn322 2.067 . S
O332 C330 1.270 . S
C333 O326 1.262 . S
C333 O334 1.232 . S
O334 C333 1.232 . S
C335 O327 1.260 . S
C335 O328 1.257 . S
Nd336 C338 2.836 . S
Nd336 O356 2.500 . S
Nd336 O357 2.492 . S
Nd336 O358 2.487 . S
Nd336 O359 2.682 . S
Nd336 O360 2.410 . S
Nd336 O365 2.414 . S
Nd336 O367 2.424 . S
Nd337 C347 2.836 1_545 S
Nd337 O359 2.414 . S
Nd337 O361 2.424 . S
Nd337 O362 2.500 1_545 S
Nd337 O363 2.497 . S
Nd337 O364 2.487 . S
Nd337 O365 2.682 . S
Nd337 O366 2.410 . S
C338 Nd336 2.836 . S
C338 C339 1.498 . S
C338 O356 1.258 . S
C338 O357 1.239 . S
C339 C338 1.498 . S
C339 C340 1.366 . S
C339 C344 1.407 . S
C340 C339 1.366 . S
C340 C341 1.392 . S
C340 H368 0.930 . S
C341 C340 1.392 . S
C341 C342 1.398 . S
C341 H369 0.929 . S
C342 C341 1.398 . S
C342 C343 1.352 . S
C343 C342 1.352 . S
C343 C344 1.384 . S
C343 H370 0.930 . S
C344 C339 1.407 . S
C344 C343 1.384 . S
C344 H371 0.929 . S
C345 O358 1.241 . S
C345 O359 1.273 . S
C346 O360 1.251 . S
C346 O361 1.268 . S
C347 Nd337 2.836 1_565 S
C347 C348 1.498 . S
C347 O362 1.258 . S
C347 O363 1.236 1_565 S
C348 C347 1.498 . S
C348 C349 1.366 . S
C348 C353 1.407 . S
C349 C348 1.366 . S
C349 C350 1.392 . S
C349 H372 0.930 . S
C350 C349 1.392 . S
C350 C351 1.398 . S
C350 H373 0.929 . S
C351 C350 1.398 . S
C351 C352 1.352 . S
C352 C351 1.352 . S
C352 C353 1.384 . S
C352 H374 0.930 . S
C353 C348 1.407 . S
C353 C352 1.384 . S
C353 H375 0.929 . S
C354 O364 1.241 . S
C354 O365 1.273 . S
C355 O366 1.251 . S
C355 O367 1.268 . S
O356 Nd336 2.500 . S
O356 C338 1.258 . S
O357 Nd336 2.492 . S
O357 C338 1.239 . S
O358 Nd336 2.487 . S
O358 C345 1.241 . S
O359 Nd336 2.682 . S
O359 Nd337 2.414 . S
O359 C345 1.273 . S
O360 Nd336 2.410 . S
O360 C346 1.251 . S
O361 Nd337 2.424 . S
O361 C346 1.268 . S
O362 Nd337 2.500 1_565 S
O362 C347 1.258 . S
O363 Nd337 2.497 . S
O363 C347 1.236 1_545 S
O364 Nd337 2.487 . S
O364 C354 1.241 . S
O365 Nd336 2.414 . S
O365 Nd337 2.682 . S
O365 C354 1.273 . S
O366 Nd337 2.410 . S
O366 C355 1.251 . S
O367 Nd336 2.424 . S
O367 C355 1.268 . S
H368 C340 0.930 . S
H369 C341 0.929 . S
H370 C343 0.930 . S
H371 C344 0.929 . S
H372 C349 0.930 . S
H373 C350 0.929 . S
H374 C352 0.930 . S
H375 C353 0.929 . S
Nd376 C378 2.836 . S
Nd376 O396 2.500 . S
Nd376 O397 2.492 . S
Nd376 O398 2.487 . S
Nd376 O399 2.682 . S
Nd376 O400 2.410 . S
Nd376 O405 2.414 . S
Nd376 O407 2.424 . S
Nd377 C387 2.836 . S
Nd377 O399 2.414 . S
Nd377 O401 2.424 . S
Nd377 O402 2.500 . S
Nd377 O403 2.492 . S
Nd377 O404 2.487 . S
Nd377 O405 2.682 . S
Nd377 O406 2.410 . S
C378 Nd376 2.836 . S
C378 C379 1.498 . S
C378 O396 1.258 . S
C378 O397 1.239 . S
C379 C378 1.498 . S
C379 C380 1.366 . S
C379 C384 1.407 . S
C380 C379 1.366 . S
C380 C381 1.392 . S
C380 H408 0.930 . S
C381 C380 1.392 . S
C381 C382 1.398 . S
C381 H409 0.929 . S
C382 C381 1.398 . S
C382 C383 1.352 . S
C383 C382 1.352 . S
C383 C384 1.384 . S
C383 H410 0.930 . S
C384 C379 1.407 . S
C384 C383 1.384 . S
C384 H411 0.929 . S
C385 O398 1.241 . S
C385 O399 1.273 . S
C386 O400 1.251 . S
C386 O401 1.268 . S
C387 Nd377 2.836 . S
C387 C388 1.498 . S
C387 O402 1.258 . S
C387 O403 1.239 . S
C388 C387 1.498 . S
C388 C389 1.366 . S
C388 C393 1.407 . S
C389 C388 1.366 . S
C389 C390 1.392 . S
C389 H412 0.930 . S
C390 C389 1.392 . S
C390 C391 1.398 . S
C390 H413 0.929 . S
C391 C390 1.398 . S
C391 C392 1.352 . S
C392 C391 1.352 . S
C392 C393 1.384 . S
C392 H414 0.930 . S
C393 C388 1.407 . S
C393 C392 1.384 . S
C393 H415 0.929 . S
C394 O404 1.241 . S
C394 O405 1.273 . S
C395 O406 1.251 . S
C395 O407 1.268 . S
O396 Nd376 2.500 . S
O396 C378 1.258 . S
O397 Nd376 2.492 . S
O397 C378 1.239 . S
O398 Nd376 2.487 . S
O398 C385 1.241 . S
O399 Nd376 2.682 . S
O399 Nd377 2.414 . S
O399 C385 1.273 . S
O400 Nd376 2.410 . S
O400 C386 1.251 . S
O401 Nd377 2.424 . S
O401 C386 1.268 . S
O402 Nd377 2.500 . S
O402 C387 1.258 . S
O403 Nd377 2.492 . S
O403 C387 1.239 . S
O404 Nd377 2.487 . S
O404 C394 1.241 . S
O405 Nd376 2.414 . S
O405 Nd377 2.682 . S
O405 C394 1.273 . S
O406 Nd377 2.410 . S
O406 C395 1.251 . S
O407 Nd376 2.424 . S
O407 C395 1.268 . S
H408 C380 0.930 . S
H409 C381 0.929 . S
H410 C383 0.930 . S
H411 C384 0.929 . S
H412 C389 0.930 . S
H413 C390 0.929 . S
H414 C392 0.930 . S
H415 C393 0.929 . S
Nd416 C418 2.836 . S
Nd416 O436 2.500 . S
Nd416 O437 2.492 . S
Nd416 O438 2.487 . S
Nd416 O439 2.682 . S
Nd416 O440 2.410 . S
Nd416 O445 2.414 . S
Nd416 O447 2.424 . S
Nd417 C427 2.836 . S
Nd417 O439 2.414 . S
Nd417 O441 2.424 . S
Nd417 O442 2.500 . S
Nd417 O443 2.492 . S
Nd417 O444 2.487 . S
Nd417 O445 2.682 . S
Nd417 O446 2.410 . S
C418 Nd416 2.836 . S
C418 C419 1.498 . S
C418 O436 1.258 . S
C418 O437 1.239 . S
C419 C418 1.498 . S
C419 C420 1.366 . S
C419 C424 1.407 . S
C420 C419 1.366 . S
C420 C421 1.392 . S
C420 H448 0.930 . S
C421 C420 1.392 . S
C421 C422 1.398 . S
C421 H449 0.929 . S
C422 C421 1.398 . S
C422 C423 1.352 . S
C423 C422 1.352 . S
C423 C424 1.384 . S
C423 H450 0.930 . S
C424 C419 1.407 . S
C424 C423 1.384 . S
C424 H451 0.929 . S
C425 O438 1.241 . S
C425 O439 1.273 . S
C426 O440 1.251 . S
C426 O441 1.268 . S
C427 Nd417 2.836 . S
C427 C428 1.498 . S
C427 O442 1.258 . S
C427 O443 1.239 . S
C428 C427 1.498 . S
C428 C429 1.366 . S
C428 C433 1.407 . S
C429 C428 1.366 . S
C429 C430 1.392 . S
C429 H452 0.930 . S
C430 C429 1.392 . S
C430 C431 1.398 . S
C430 H453 0.929 . S
C431 C430 1.398 . S
C431 C432 1.352 . S
C432 C431 1.352 . S
C432 C433 1.384 . S
C432 H454 0.930 . S
C433 C428 1.407 . S
C433 C432 1.384 . S
C433 H455 0.929 . S
C434 O444 1.241 . S
C434 O445 1.273 . S
C435 O446 1.251 . S
C435 O447 1.268 . S
O436 Nd416 2.500 . S
O436 C418 1.258 . S
O437 Nd416 2.492 . S
O437 C418 1.239 . S
O438 Nd416 2.487 . S
O438 C425 1.241 . S
O439 Nd416 2.682 . S
O439 Nd417 2.414 . S
O439 C425 1.273 . S
O440 Nd416 2.410 . S
O440 C426 1.251 . S
O441 Nd417 2.424 . S
O441 C426 1.268 . S
O442 Nd417 2.500 . S
O442 C427 1.258 . S
O443 Nd417 2.492 . S
O443 C427 1.239 . S
O444 Nd417 2.487 . S
O444 C434 1.241 . S
O445 Nd416 2.414 . S
O445 Nd417 2.682 . S
O445 C434 1.273 . S
O446 Nd417 2.410 . S
O446 C435 1.251 . S
O447 Nd416 2.424 . S
O447 C435 1.268 . S
H448 C420 0.930 . S
H449 C421 0.929 . S
H450 C423 0.930 . S
H451 C424 0.929 . S
H452 C429 0.930 . S
H453 C430 0.929 . S
H454 C432 0.930 . S
H455 C433 0.929 . S
Nd456 C458 2.836 . S
Nd456 O476 2.500 . S
Nd456 O477 2.492 . S
Nd456 O478 2.487 . S
Nd456 O479 2.682 . S
Nd456 O480 2.410 . S
Nd456 O485 2.414 . S
Nd456 O487 2.424 . S
Nd457 C467 2.836 . S
Nd457 O479 2.414 . S
Nd457 O481 2.424 . S
Nd457 O482 2.500 . S
Nd457 O483 2.492 . S
Nd457 O484 2.487 . S
Nd457 O485 2.682 . S
Nd457 O486 2.410 . S
C458 Nd456 2.836 . S
C458 C459 1.498 . S
C458 O476 1.258 . S
C458 O477 1.239 . S
C459 C458 1.498 . S
C459 C460 1.366 . S
C459 C464 1.407 . S
C460 C459 1.366 . S
C460 C461 1.392 . S
C460 H488 0.930 . S
C461 C460 1.392 . S
C461 C462 1.405 . S
C461 H489 0.929 . S
C462 C461 1.405 . S
C462 C463 1.367 . S
C463 C462 1.367 . S
C463 C464 1.384 . S
C463 H490 0.930 . S
C464 C459 1.407 . S
C464 C463 1.384 . S
C464 H491 0.929 . S
C465 O478 1.241 . S
C465 O479 1.273 . S
C466 O480 1.251 . S
C466 O481 1.268 . S
C467 Nd457 2.836 . S
C467 C468 1.498 . S
C467 O482 1.258 . S
C467 O483 1.239 . S
C468 C467 1.498 . S
C468 C469 1.366 . S
C468 C473 1.407 . S
C469 C468 1.366 . S
C469 C470 1.392 . S
C469 H492 0.930 . S
C470 C469 1.392 . S
C470 C471 1.398 . S
C470 H493 0.929 . S
C471 C470 1.398 . S
C471 C472 1.352 . S
C472 C471 1.352 . S
C472 C473 1.384 . S
C472 H494 0.930 . S
C473 C468 1.407 . S
C473 C472 1.384 . S
C473 H495 0.929 . S
C474 O484 1.241 . S
C474 O485 1.273 . S
C475 O486 1.251 . S
C475 O487 1.268 . S
O476 Nd456 2.500 . S
O476 C458 1.258 . S
O477 Nd456 2.492 . S
O477 C458 1.239 . S
O478 Nd456 2.487 . S
O478 C465 1.241 . S
O479 Nd456 2.682 . S
O479 Nd457 2.414 . S
O479 C465 1.273 . S
O480 Nd456 2.410 . S
O480 C466 1.251 . S
O481 Nd457 2.424 . S
O481 C466 1.268 . S
O482 Nd457 2.500 . S
O482 C467 1.258 . S
O483 Nd457 2.492 . S
O483 C467 1.239 . S
O484 Nd457 2.487 . S
O484 C474 1.241 . S
O485 Nd456 2.414 . S
O485 Nd457 2.682 . S
O485 C474 1.273 . S
O486 Nd457 2.410 . S
O486 C475 1.251 . S
O487 Nd456 2.424 . S
O487 C475 1.268 . S
H488 C460 0.930 . S
H489 C461 0.929 . S
H490 C463 0.930 . S
H491 C464 0.929 . S
H492 C469 0.930 . S
H493 C470 0.929 . S
H494 C472 0.930 . S
H495 C473 0.929 . S
Nd496 C498 2.836 . S
Nd496 O516 2.500 . S
Nd496 O517 2.492 . S
Nd496 O518 2.487 . S
Nd496 O519 2.682 . S
Nd496 O520 2.410 . S
Nd496 O525 2.414 . S
Nd496 O527 2.424 . S
Nd497 C507 2.836 1_545 S
Nd497 O519 2.414 . S
Nd497 O521 2.424 . S
Nd497 O522 2.488 1_545 S
Nd497 O523 2.492 1_545 S
Nd497 O524 2.487 1_455 S
Nd497 O525 2.682 . S
Nd497 O526 2.410 . S
C498 Nd496 2.836 . S
C498 C499 1.498 . S
C498 O516 1.258 . S
C498 O517 1.239 . S
C499 C498 1.498 . S
C499 C500 1.366 . S
C499 C504 1.407 . S
C500 C499 1.366 . S
C500 C501 1.392 . S
C500 H528 0.930 . S
C501 C500 1.392 . S
C501 C502 1.398 . S
C501 H529 0.898 1_455 S
C502 C501 1.398 . S
C502 C503 1.352 . S
C503 C502 1.352 . S
C503 C504 1.384 . S
C503 H530 0.930 . S
C504 C499 1.407 . S
C504 C503 1.384 . S
C504 H531 0.929 . S
C505 O518 1.241 . S
C505 O519 1.273 . S
C506 O520 1.251 . S
C506 O521 1.268 . S
C507 Nd497 2.836 1_565 S
C507 C508 1.498 . S
C507 O522 1.266 . S
C507 O523 1.239 . S
C508 C507 1.498 . S
C508 C509 1.366 . S
C508 C513 1.407 . S
C509 C508 1.366 . S
C509 C510 1.392 . S
C509 H532 0.930 . S
C510 C509 1.392 . S
C510 C511 1.398 . S
C510 H533 0.929 . S
C511 C510 1.398 . S
C511 C512 1.352 . S
C512 C511 1.352 . S
C512 C513 1.384 . S
C512 H534 0.930 . S
C513 C508 1.407 . S
C513 C512 1.384 . S
C513 H535 0.929 . S
C514 O524 1.241 1_455 S
C514 O525 1.273 . S
C515 O526 1.251 . S
C515 O527 1.268 . S
O516 Nd496 2.500 . S
O516 C498 1.258 . S
O517 Nd496 2.492 . S
O517 C498 1.239 . S
O518 Nd496 2.487 . S
O518 C505 1.241 . S
O519 Nd496 2.682 . S
O519 Nd497 2.414 . S
O519 C505 1.273 . S
O520 Nd496 2.410 . S
O520 C506 1.251 . S
O521 Nd497 2.424 . S
O521 C506 1.268 . S
O522 Nd497 2.488 1_565 S
O522 C507 1.266 . S
O523 Nd497 2.492 1_565 S
O523 C507 1.239 . S
O524 Nd497 2.487 1_655 S
O524 C514 1.241 1_655 S
O525 Nd496 2.414 . S
O525 Nd497 2.682 . S
O525 C514 1.273 . S
O526 Nd497 2.410 . S
O526 C515 1.251 . S
O527 Nd496 2.424 . S
O527 C515 1.268 . S
H528 C500 0.930 . S
H529 C501 0.898 1_655 S
H530 C503 0.930 . S
H531 C504 0.929 . S
H532 C509 0.930 . S
H533 C510 0.929 . S
H534 C512 0.930 . S
H535 C513 0.929 . S
Nd536 C538 2.836 . S
Nd536 O556 2.500 . S
Nd536 O557 2.492 . S
Nd536 O558 2.487 . S
Nd536 O559 2.682 . S
Nd536 O560 2.410 . S
Nd536 O565 2.414 . S
Nd536 O567 2.424 . S
Nd537 C547 2.836 . S
Nd537 O559 2.414 . S
Nd537 O561 2.424 . S
Nd537 O562 2.500 . S
Nd537 O563 2.492 . S
Nd537 O564 2.487 . S
Nd537 O565 2.682 . S
Nd537 O566 2.410 . S
C538 Nd536 2.836 . S
C538 C539 1.498 . S
C538 O556 1.258 . S
C538 O557 1.239 . S
C539 C538 1.498 . S
C539 C540 1.366 . S
C539 C544 1.407 . S
C540 C539 1.366 . S
C540 C541 1.392 . S
C540 H568 0.930 . S
C541 C540 1.392 . S
C541 C542 1.398 . S
C541 H569 0.929 . S
C542 C541 1.398 . S
C542 C543 1.352 . S
C543 C542 1.352 . S
C543 C544 1.384 . S
C543 H570 0.930 . S
C544 C539 1.407 . S
C544 C543 1.384 . S
C544 H571 0.929 . S
C545 O558 1.241 . S
C545 O559 1.273 . S
C546 O560 1.251 . S
C546 O561 1.268 . S
C547 Nd537 2.836 . S
C547 C548 1.498 . S
C547 O562 1.258 . S
C547 O563 1.239 . S
C548 C547 1.498 . S
C548 C549 1.366 . S
C548 C553 1.407 . S
C549 C548 1.366 . S
C549 C550 1.392 . S
C549 H572 0.930 . S
C550 C549 1.392 . S
C550 C551 1.398 . S
C550 H573 0.929 . S
C551 C550 1.398 . S
C551 C552 1.352 . S
C552 C551 1.352 . S
C552 C553 1.384 . S
C552 H574 0.930 . S
C553 C548 1.407 . S
C553 C552 1.384 . S
C553 H575 0.929 . S
C554 O564 1.241 . S
C554 O565 1.273 . S
C555 O566 1.251 . S
C555 O567 1.268 . S
O556 Nd536 2.500 . S
O556 C538 1.258 . S
O557 Nd536 2.492 . S
O557 C538 1.239 . S
O558 Nd536 2.487 . S
O558 C545 1.241 . S
O559 Nd536 2.682 . S
O559 Nd537 2.414 . S
O559 C545 1.273 . S
O560 Nd536 2.410 . S
O560 C546 1.251 . S
O561 Nd537 2.424 . S
O561 C546 1.268 . S
O562 Nd537 2.500 . S
O562 C547 1.258 . S
O563 Nd537 2.492 . S
O563 C547 1.239 . S
O564 Nd537 2.487 . S
O564 C554 1.241 . S
O565 Nd536 2.414 . S
O565 Nd537 2.682 . S
O565 C554 1.273 . S
O566 Nd537 2.410 . S
O566 C555 1.251 . S
O567 Nd536 2.424 . S
O567 C555 1.268 . S
H568 C540 0.930 . S
H569 C541 0.929 . S
H570 C543 0.930 . S
H571 C544 0.929 . S
H572 C549 0.930 . S
H573 C550 0.929 . S
H574 C552 0.930 . S
H575 C553 0.929 . S
Nd576 C578 2.836 . S
Nd576 O596 2.500 . S
Nd576 O597 2.492 . S
Nd576 O598 2.487 . S
Nd576 O599 2.682 . S
Nd576 O600 2.410 . S
Nd576 O605 2.414 . S
Nd576 O607 2.424 . S
Nd577 C587 2.836 . S
Nd577 O599 2.414 . S
Nd577 O601 2.424 . S
Nd577 O602 2.500 . S
Nd577 O603 2.492 . S
Nd577 O604 2.487 . S
Nd577 O605 2.682 . S
Nd577 O606 2.410 . S
C578 Nd576 2.836 . S
C578 C579 1.498 . S
C578 O596 1.258 . S
C578 O597 1.239 . S
C579 C578 1.498 . S
C579 C580 1.366 . S
C579 C584 1.407 . S
C580 C579 1.366 . S
C580 C581 1.392 . S
C580 H608 0.930 . S
C581 C580 1.392 . S
C581 C582 1.398 . S
C581 H609 0.929 . S
C582 C581 1.398 . S
C582 C583 1.352 1_545 S
C583 C582 1.352 1_565 S
C583 C584 1.384 1_565 S
C583 H610 0.930 . S
C584 C579 1.407 . S
C584 C583 1.384 1_545 S
C584 H611 0.929 1_545 S
C585 O598 1.241 . S
C585 O599 1.273 . S
C586 O600 1.251 . S
C586 O601 1.268 . S
C587 Nd577 2.836 . S
C587 C588 1.498 . S
C587 O602 1.258 . S
C587 O603 1.239 . S
C588 C587 1.498 . S
C588 C589 1.366 . S
C588 C593 1.407 . S
C589 C588 1.366 . S
C589 C590 1.392 . S
C589 H612 0.930 . S
C590 C589 1.392 . S
C590 C591 1.398 . S
C590 H613 0.929 . S
C591 C590 1.398 . S
C591 C592 1.352 . S
C592 C591 1.352 . S
C592 C593 1.384 . S
C592 H614 0.930 . S
C593 C588 1.407 . S
C593 C592 1.384 . S
C593 H615 0.929 . S
C594 O604 1.241 . S
C594 O605 1.273 . S
C595 O606 1.251 . S
C595 O607 1.268 . S
O596 Nd576 2.500 . S
O596 C578 1.258 . S
O597 Nd576 2.492 . S
O597 C578 1.239 . S
O598 Nd576 2.487 . S
O598 C585 1.241 . S
O599 Nd576 2.682 . S
O599 Nd577 2.414 . S
O599 C585 1.273 . S
O600 Nd576 2.410 . S
O600 C586 1.251 . S
O601 Nd577 2.424 . S
O601 C586 1.268 . S
O602 Nd577 2.500 . S
O602 C587 1.258 . S
O603 Nd577 2.492 . S
O603 C587 1.239 . S
O604 Nd577 2.487 . S
O604 C594 1.241 . S
O605 Nd576 2.414 . S
O605 Nd577 2.682 . S
O605 C594 1.273 . S
O606 Nd577 2.410 . S
O606 C595 1.251 . S
O607 Nd576 2.424 . S
O607 C595 1.268 . S
H608 C580 0.930 . S
H609 C581 0.929 . S
H610 C583 0.930 . S
H611 C584 0.929 1_565 S
H612 C589 0.930 . S
H613 C590 0.929 . S
H614 C592 0.930 . S
H615 C593 0.929 . S
Nd616 C618 2.836 . S
Nd616 O636 2.500 . S
Nd616 O637 2.492 . S
Nd616 O638 2.487 . S
Nd616 O639 2.682 . S
Nd616 O640 2.410 . S
Nd616 O645 2.414 . S
Nd616 O647 2.424 . S
Nd617 C627 2.836 . S
Nd617 O639 2.414 . S
Nd617 O641 2.424 . S
Nd617 O642 2.500 . S
Nd617 O643 2.492 . S
Nd617 O644 2.487 . S
Nd617 O645 2.682 . S
Nd617 O646 2.410 . S
C618 Nd616 2.836 . S
C618 C619 1.498 . S
C618 O636 1.258 . S
C618 O637 1.239 . S
C619 C618 1.498 . S
C619 C620 1.366 . S
C619 C624 1.407 . S
C620 C619 1.366 . S
C620 C621 1.392 . S
C620 H648 0.930 . S
C621 C620 1.392 . S
C621 C622 1.398 . S
C621 H649 0.929 . S
C622 C621 1.398 . S
C622 C623 1.352 . S
C623 C622 1.352 . S
C623 C624 1.384 . S
C623 H650 0.930 . S
C624 C619 1.407 . S
C624 C623 1.384 . S
C624 H651 0.929 . S
C625 O638 1.241 . S
C625 O639 1.273 . S
C626 O640 1.251 . S
C626 O641 1.268 . S
C627 Nd617 2.836 . S
C627 C628 1.498 . S
C627 O642 1.258 . S
C627 O643 1.239 . S
C628 C627 1.498 . S
C628 C629 1.366 . S
C628 C633 1.407 . S
C629 C628 1.366 . S
C629 C630 1.392 . S
C629 H652 0.930 . S
C630 C629 1.392 . S
C630 C631 1.398 . S
C630 H653 0.929 . S
C631 C630 1.398 . S
C631 C632 1.352 . S
C632 C631 1.352 . S
C632 C633 1.384 . S
C632 H654 0.930 . S
C633 C628 1.407 . S
C633 C632 1.384 . S
C633 H655 0.929 . S
C634 O644 1.241 . S
C634 O645 1.273 . S
C635 O646 1.251 . S
C635 O647 1.268 . S
O636 Nd616 2.500 . S
O636 C618 1.258 . S
O637 Nd616 2.492 . S
O637 C618 1.239 . S
O638 Nd616 2.487 . S
O638 C625 1.241 . S
O639 Nd616 2.682 . S
O639 Nd617 2.414 . S
O639 C625 1.273 . S
O640 Nd616 2.410 . S
O640 C626 1.251 . S
O641 Nd617 2.424 . S
O641 C626 1.268 . S
O642 Nd617 2.500 . S
O642 C627 1.258 . S
O643 Nd617 2.492 . S
O643 C627 1.239 . S
O644 Nd617 2.487 . S
O644 C634 1.241 . S
O645 Nd616 2.414 . S
O645 Nd617 2.682 . S
O645 C634 1.273 . S
O646 Nd617 2.410 . S
O646 C635 1.251 . S
O647 Nd616 2.424 . S
O647 C635 1.268 . S
H648 C620 0.930 . S
H649 C621 0.929 . S
H650 C623 0.930 . S
H651 C624 0.929 . S
H652 C629 0.930 . S
H653 C630 0.929 . S
H654 C632 0.930 . S
H655 C633 0.929 . S
Nd656 C658 2.836 . S
Nd656 O676 2.500 . S
Nd656 O677 2.492 . S
Nd656 O678 2.487 . S
Nd656 O679 2.682 . S
Nd656 O680 2.410 . S
Nd656 O685 2.414 . S
Nd656 O687 2.424 . S
Nd657 C667 2.836 . S
Nd657 O679 2.414 . S
Nd657 O681 2.424 . S
Nd657 O682 2.500 . S
Nd657 O683 2.492 . S
Nd657 O684 2.487 . S
Nd657 O685 2.682 . S
Nd657 O686 2.410 . S
C658 Nd656 2.836 . S
C658 C659 1.498 . S
C658 O676 1.258 . S
C658 O677 1.239 . S
C659 C658 1.498 . S
C659 C660 1.366 . S
C659 C664 1.407 . S
C660 C659 1.366 . S
C660 C661 1.392 . S
C660 H688 0.930 . S
C661 C660 1.392 . S
C661 C662 1.398 . S
C661 H689 0.929 . S
C662 C661 1.398 . S
C662 C663 1.352 . S
C663 C662 1.352 . S
C663 C664 1.384 . S
C663 H690 0.930 . S
C664 C659 1.407 . S
C664 C663 1.384 . S
C664 H691 0.929 . S
C665 O678 1.241 . S
C665 O679 1.273 . S
C666 O680 1.251 . S
C666 O681 1.268 . S
C667 Nd657 2.836 . S
C667 C668 1.498 . S
C667 O682 1.258 . S
C667 O683 1.239 . S
C668 C667 1.498 . S
C668 C669 1.366 . S
C668 C673 1.407 . S
C669 C668 1.366 . S
C669 C670 1.392 . S
C669 H692 0.930 . S
C670 C669 1.392 . S
C670 C671 1.398 . S
C670 H693 0.929 . S
C671 C670 1.398 . S
C671 C672 1.352 . S
C672 C671 1.352 . S
C672 C673 1.384 . S
C672 H694 0.930 . S
C673 C668 1.407 . S
C673 C672 1.384 . S
C673 H695 0.929 . S
C674 O684 1.241 . S
C674 O685 1.273 . S
C675 O686 1.251 . S
C675 O687 1.268 . S
O676 Nd656 2.500 . S
O676 C658 1.258 . S
O677 Nd656 2.492 . S
O677 C658 1.239 . S
O678 Nd656 2.487 . S
O678 C665 1.241 . S
O679 Nd656 2.682 . S
O679 Nd657 2.414 . S
O679 C665 1.273 . S
O680 Nd656 2.410 . S
O680 C666 1.251 . S
O681 Nd657 2.424 . S
O681 C666 1.268 . S
O682 Nd657 2.500 . S
O682 C667 1.258 . S
O683 Nd657 2.492 . S
O683 C667 1.239 . S
O684 Nd657 2.487 . S
O684 C674 1.241 . S
O685 Nd656 2.414 . S
O685 Nd657 2.682 . S
O685 C674 1.273 . S
O686 Nd657 2.410 . S
O686 C675 1.251 . S
O687 Nd656 2.424 . S
O687 C675 1.268 . S
H688 C660 0.930 . S
H689 C661 0.929 . S
H690 C663 0.930 . S
H691 C664 0.929 . S
H692 C669 0.930 . S
H693 C670 0.929 . S
H694 C672 0.930 . S
H695 C673 0.929 . S
Nd696 C698 2.836 . S
Nd696 O716 2.500 . S
Nd696 O717 2.492 . S
Nd696 O718 2.487 . S
Nd696 O719 2.682 . S
Nd696 O720 2.410 . S
Nd696 O725 2.414 . S
Nd696 O727 2.424 . S
Nd697 C707 2.836 . S
Nd697 O719 2.414 . S
Nd697 O721 2.424 . S
Nd697 O722 2.500 . S
Nd697 O723 2.492 . S
Nd697 O724 2.487 . S
Nd697 O725 2.682 . S
Nd697 O726 2.410 . S
C698 Nd696 2.836 . S
C698 C699 1.498 . S
C698 O716 1.258 . S
C698 O717 1.239 . S
C699 C698 1.498 . S
C699 C700 1.366 . S
C699 C704 1.407 . S
C700 C699 1.366 . S
C700 C701 1.392 . S
C700 H728 0.930 . S
C701 C700 1.392 . S
C701 C702 1.398 . S
C701 H729 0.929 . S
C702 C701 1.398 . S
C702 C703 1.352 . S
C703 C702 1.352 . S
C703 C704 1.384 . S
C703 H730 0.930 . S
C704 C699 1.407 . S
C704 C703 1.384 . S
C704 H731 0.929 . S
C705 O718 1.241 . S
C705 O719 1.273 . S
C706 O720 1.251 . S
C706 O721 1.268 . S
C707 Nd697 2.836 . S
C707 C708 1.498 . S
C707 O722 1.258 . S
C707 O723 1.239 . S
C708 C707 1.498 . S
C708 C709 1.366 . S
C708 C713 1.407 . S
C709 C708 1.366 . S
C709 C710 1.392 . S
C709 H732 0.930 . S
C710 C709 1.392 . S
C710 C711 1.398 . S
C710 H733 0.929 . S
C711 C710 1.398 . S
C711 C712 1.352 . S
C712 C711 1.352 . S
C712 C713 1.384 . S
C712 H734 0.930 . S
C713 C708 1.407 . S
C713 C712 1.384 . S
C713 H735 0.929 . S
C714 O724 1.241 . S
C714 O725 1.273 . S
C715 O726 1.251 . S
C715 O727 1.268 . S
O716 Nd696 2.500 . S
O716 C698 1.258 . S
O717 Nd696 2.492 . S
O717 C698 1.239 . S
O718 Nd696 2.487 . S
O718 C705 1.241 . S
O719 Nd696 2.682 . S
O719 Nd697 2.414 . S
O719 C705 1.273 . S
O720 Nd696 2.410 . S
O720 C706 1.251 . S
O721 Nd697 2.424 . S
O721 C706 1.268 . S
O722 Nd697 2.500 . S
O722 C707 1.258 . S
O723 Nd697 2.492 . S
O723 C707 1.239 . S
O724 Nd697 2.487 . S
O724 C714 1.241 . S
O725 Nd696 2.414 . S
O725 Nd697 2.682 . S
O725 C714 1.273 . S
O726 Nd697 2.410 . S
O726 C715 1.251 . S
O727 Nd696 2.424 . S
O727 C715 1.268 . S
H728 C700 0.930 . S
H729 C701 0.929 . S
H730 C703 0.930 . S
H731 C704 0.929 . S
H732 C709 0.930 . S
H733 C710 0.929 . S
H734 C712 0.930 . S
H735 C713 0.929 . S
Nd736 C738 2.836 1_455 S
Nd736 O756 2.500 1_455 S
Nd736 O757 2.492 1_455 S
Nd736 O758 2.487 . S
Nd736 O759 2.682 . S
Nd736 O760 2.410 . S
Nd736 O765 2.414 . S
Nd736 O767 2.424 . S
Nd737 C747 2.836 . S
Nd737 O759 2.414 . S
Nd737 O761 2.424 . S
Nd737 O762 2.500 . S
Nd737 O763 2.492 . S
Nd737 O764 2.487 . S
Nd737 O765 2.682 . S
Nd737 O766 2.410 . S
C738 Nd736 2.836 1_655 S
C738 C739 1.498 . S
C738 O756 1.258 . S
C738 O757 1.239 . S
C739 C738 1.498 . S
C739 C740 1.366 . S
C739 C744 1.407 . S
C740 C739 1.366 . S
C740 C741 1.392 . S
C740 H768 0.930 . S
C741 C740 1.392 . S
C741 C742 1.398 . S
C741 H769 0.929 . S
C742 C741 1.398 . S
C742 C743 1.352 . S
C743 C742 1.352 . S
C743 C744 1.384 . S
C743 H770 0.930 . S
C744 C739 1.407 . S
C744 C743 1.384 . S
C744 H771 0.929 . S
C745 O758 1.241 . S
C745 O759 1.273 . S
C746 O760 1.251 . S
C746 O761 1.268 . S
C747 Nd737 2.836 . S
C747 C748 1.498 . S
C747 O762 1.258 . S
C747 O763 1.239 . S
C748 C747 1.498 . S
C748 C749 1.366 . S
C748 C753 1.407 . S
C749 C748 1.366 . S
C749 C750 1.392 . S
C749 H772 0.930 . S
C750 C749 1.392 . S
C750 C751 1.398 . S
C750 H773 0.929 . S
C751 C750 1.398 . S
C751 C752 1.352 . S
C752 C751 1.352 . S
C752 C753 1.384 . S
C752 H774 0.930 . S
C753 C748 1.407 . S
C753 C752 1.384 . S
C753 H775 0.929 . S
C754 O764 1.241 . S
C754 O765 1.273 . S
C755 O766 1.251 . S
C755 O767 1.268 . S
O756 Nd736 2.500 1_655 S
O756 C738 1.258 . S
O757 Nd736 2.492 1_655 S
O757 C738 1.239 . S
O758 Nd736 2.487 . S
O758 C745 1.241 . S
O759 Nd736 2.682 . S
O759 Nd737 2.414 . S
O759 C745 1.273 . S
O760 Nd736 2.410 . S
O760 C746 1.251 . S
O761 Nd737 2.424 . S
O761 C746 1.268 . S
O762 Nd737 2.500 . S
O762 C747 1.258 . S
O763 Nd737 2.492 . S
O763 C747 1.239 . S
O764 Nd737 2.487 . S
O764 C754 1.241 . S
O765 Nd736 2.414 . S
O765 Nd737 2.682 . S
O765 C754 1.273 . S
O766 Nd737 2.410 . S
O766 C755 1.251 . S
O767 Nd736 2.424 . S
O767 C755 1.268 . S
H768 C740 0.930 . S
H769 C741 0.929 . S
H770 C743 0.930 . S
H771 C744 0.929 . S
H772 C749 0.930 . S
H773 C750 0.929 . S
H774 C752 0.930 . S
H775 C753 0.929 . S
Nd776 C778 2.836 . S
Nd776 O796 2.500 . S
Nd776 O797 2.492 . S
Nd776 O798 2.487 . S
Nd776 O799 2.682 . S
Nd776 O800 2.410 . S
Nd776 O805 2.414 . S
Nd776 O807 2.424 . S
Nd777 C787 2.836 . S
Nd777 O799 2.414 . S
Nd777 O801 2.424 . S
Nd777 O802 2.500 . S
Nd777 O803 2.492 . S
Nd777 O804 2.487 . S
Nd777 O805 2.682 . S
Nd777 O806 2.410 . S
C778 Nd776 2.836 . S
C778 C779 1.498 . S
C778 O796 1.258 . S
C778 O797 1.239 . S
C779 C778 1.498 . S
C779 C780 1.366 . S
C779 C784 1.407 . S
C780 C779 1.366 . S
C780 C781 1.392 . S
C780 H808 0.930 . S
C781 C780 1.392 . S
C781 C782 1.398 . S
C781 H809 0.929 . S
C782 C781 1.398 . S
C782 C783 1.352 . S
C783 C782 1.352 . S
C783 C784 1.384 . S
C783 H810 0.930 . S
C784 C779 1.407 . S
C784 C783 1.384 . S
C784 H811 0.929 . S
C785 O798 1.241 . S
C785 O799 1.273 . S
C786 O800 1.251 . S
C786 O801 1.268 . S
C787 Nd777 2.836 . S
C787 C788 1.498 . S
C787 O802 1.258 . S
C787 O803 1.239 . S
C788 C787 1.498 . S
C788 C789 1.366 . S
C788 C793 1.407 . S
C789 C788 1.366 . S
C789 C790 1.392 . S
C789 H812 0.930 . S
C790 C789 1.392 . S
C790 C791 1.398 . S
C790 H813 0.929 . S
C791 C790 1.398 . S
C791 C792 1.352 . S
C792 C791 1.352 . S
C792 C793 1.384 . S
C792 H814 0.930 . S
C793 C788 1.407 . S
C793 C792 1.384 . S
C793 H815 0.929 . S
C794 O804 1.241 . S
C794 O805 1.273 . S
C795 O806 1.251 . S
C795 O807 1.268 . S
O796 Nd776 2.500 . S
O796 C778 1.258 . S
O797 Nd776 2.492 . S
O797 C778 1.239 . S
O798 Nd776 2.487 . S
O798 C785 1.241 . S
O799 Nd776 2.682 . S
O799 Nd777 2.414 . S
O799 C785 1.273 . S
O800 Nd776 2.410 . S
O800 C786 1.251 . S
O801 Nd777 2.424 . S
O801 C786 1.268 . S
O802 Nd777 2.500 . S
O802 C787 1.258 . S
O803 Nd777 2.492 . S
O803 C787 1.239 . S
O804 Nd777 2.487 . S
O804 C794 1.241 . S
O805 Nd776 2.414 . S
O805 Nd777 2.682 . S
O805 C794 1.273 . S
O806 Nd777 2.410 . S
O806 C795 1.251 . S
O807 Nd776 2.424 . S
O807 C795 1.268 . S
H808 C780 0.930 . S
H809 C781 0.929 . S
H810 C783 0.930 . S
H811 C784 0.929 . S
H812 C789 0.930 . S
H813 C790 0.929 . S
H814 C792 0.930 . S
H815 C793 0.929 . S
Nd816 C818 2.836 . S
Nd816 O836 2.500 . S
Nd816 O837 2.492 . S
Nd816 O838 2.487 . S
Nd816 O839 2.682 . S
Nd816 O840 2.410 . S
Nd816 O845 2.414 . S
Nd816 O847 2.424 . S
Nd817 C827 2.836 . S
Nd817 O839 2.414 . S
Nd817 O841 2.424 . S
Nd817 O842 2.500 . S
Nd817 O843 2.492 . S
Nd817 O844 2.487 . S
Nd817 O845 2.682 . S
Nd817 O846 2.410 . S
C818 Nd816 2.836 . S
C818 C819 1.498 . S
C818 O836 1.258 . S
C818 O837 1.239 . S
C819 C818 1.498 . S
C819 C820 1.366 . S
C819 C824 1.407 . S
C820 C819 1.366 . S
C820 C821 1.392 . S
C820 H848 0.930 . S
C821 C820 1.392 . S
C821 C822 1.398 . S
C821 H849 0.929 . S
C822 C821 1.398 . S
C822 C823 1.352 . S
C823 C822 1.352 . S
C823 C824 1.384 . S
C823 H850 0.930 . S
C824 C819 1.407 . S
C824 C823 1.384 . S
C824 H851 0.929 . S
C825 O838 1.241 . S
C825 O839 1.273 . S
C826 O840 1.251 . S
C826 O841 1.268 . S
C827 Nd817 2.836 . S
C827 C828 1.498 . S
C827 O842 1.258 . S
C827 O843 1.239 . S
C828 C827 1.498 . S
C828 C829 1.366 . S
C828 C833 1.407 . S
C829 C828 1.366 . S
C829 C830 1.392 . S
C829 H852 0.930 . S
C830 C829 1.392 . S
C830 C831 1.398 . S
C830 H853 0.929 . S
C831 C830 1.398 . S
C831 C832 1.352 . S
C832 C831 1.352 . S
C832 C833 1.384 . S
C832 H854 0.930 . S
C833 C828 1.407 . S
C833 C832 1.384 . S
C833 H855 0.929 . S
C834 O844 1.241 . S
C834 O845 1.273 . S
C835 O846 1.251 . S
C835 O847 1.268 . S
O836 Nd816 2.500 . S
O836 C818 1.258 . S
O837 Nd816 2.492 . S
O837 C818 1.239 . S
O838 Nd816 2.487 . S
O838 C825 1.241 . S
O839 Nd816 2.682 . S
O839 Nd817 2.414 . S
O839 C825 1.273 . S
O840 Nd816 2.410 . S
O840 C826 1.251 . S
O841 Nd817 2.424 . S
O841 C826 1.268 . S
O842 Nd817 2.500 . S
O842 C827 1.258 . S
O843 Nd817 2.492 . S
O843 C827 1.239 . S
O844 Nd817 2.487 . S
O844 C834 1.241 . S
O845 Nd816 2.414 . S
O845 Nd817 2.682 . S
O845 C834 1.273 . S
O846 Nd817 2.410 . S
O846 C835 1.251 . S
O847 Nd816 2.424 . S
O847 C835 1.268 . S
H848 C820 0.930 . S
H849 C821 0.929 . S
H850 C823 0.930 . S
H851 C824 0.929 . S
H852 C829 0.930 . S
H853 C830 0.929 . S
H854 C832 0.930 . S
H855 C833 0.929 . S
Nd856 C858 2.836 . S
Nd856 O876 2.500 . S
Nd856 O877 2.492 . S
Nd856 O878 2.487 . S
Nd856 O879 2.682 . S
Nd856 O880 2.410 . S
Nd856 O885 2.414 . S
Nd856 O887 2.424 . S
Nd857 C867 2.836 . S
Nd857 O879 2.414 . S
Nd857 O881 2.424 . S
Nd857 O882 2.500 . S
Nd857 O883 2.492 . S
Nd857 O884 2.487 . S
Nd857 O885 2.682 . S
Nd857 O886 2.410 . S
C858 Nd856 2.836 . S
C858 C859 1.498 . S
C858 O876 1.258 . S
C858 O877 1.239 . S
C859 C858 1.498 . S
C859 C860 1.366 . S
C859 C864 1.407 . S
C860 C859 1.366 . S
C860 C861 1.392 . S
C860 H888 0.930 . S
C861 C860 1.392 . S
C861 C862 1.398 . S
C861 H889 0.929 . S
C862 C861 1.398 . S
C862 C863 1.352 . S
C863 C862 1.352 . S
C863 C864 1.384 . S
C863 H890 0.930 . S
C864 C859 1.407 . S
C864 C863 1.384 . S
C864 H891 0.929 . S
C865 O878 1.241 . S
C865 O879 1.273 . S
C866 O880 1.251 . S
C866 O881 1.268 . S
C867 Nd857 2.836 . S
C867 C868 1.498 . S
C867 O882 1.258 . S
C867 O883 1.239 . S
C868 C867 1.498 . S
C868 C869 1.366 . S
C868 C873 1.407 . S
C869 C868 1.366 . S
C869 C870 1.392 . S
C869 H892 0.930 . S
C870 C869 1.392 . S
C870 C871 1.398 . S
C870 H893 0.929 . S
C871 C870 1.398 . S
C871 C872 1.352 . S
C872 C871 1.352 . S
C872 C873 1.384 . S
C872 H894 0.930 . S
C873 C868 1.407 . S
C873 C872 1.384 . S
C873 H895 0.929 . S
C874 O884 1.241 . S
C874 O885 1.273 . S
C875 O886 1.251 . S
C875 O887 1.268 . S
O876 Nd856 2.500 . S
O876 C858 1.258 . S
O877 Nd856 2.492 . S
O877 C858 1.239 . S
O878 Nd856 2.487 . S
O878 C865 1.241 . S
O879 Nd856 2.682 . S
O879 Nd857 2.414 . S
O879 C865 1.273 . S
O880 Nd856 2.410 . S
O880 C866 1.251 . S
O881 Nd857 2.424 . S
O881 C866 1.268 . S
O882 Nd857 2.500 . S
O882 C867 1.258 . S
O883 Nd857 2.492 . S
O883 C867 1.239 . S
O884 Nd857 2.487 . S
O884 C874 1.241 . S
O885 Nd856 2.414 . S
O885 Nd857 2.682 . S
O885 C874 1.273 . S
O886 Nd857 2.410 . S
O886 C875 1.251 . S
O887 Nd856 2.424 . S
O887 C875 1.268 . S
H888 C860 0.930 . S
H889 C861 0.929 . S
H890 C863 0.930 . S
H891 C864 0.929 . S
H892 C869 0.930 . S
H893 C870 0.929 . S
H894 C872 0.930 . S
H895 C873 0.929 . S
Nd896 C898 2.836 . S
Nd896 O916 2.500 . S
Nd896 O917 2.492 . S
Nd896 O918 2.487 . S
Nd896 O919 2.682 . S
Nd896 O920 2.410 . S
Nd896 O925 2.414 . S
Nd896 O927 2.424 . S
Nd897 C907 2.836 . S
Nd897 O919 2.414 . S
Nd897 O921 2.424 . S
Nd897 O922 2.500 . S
Nd897 O923 2.492 . S
Nd897 O924 2.487 . S
Nd897 O925 2.682 . S
Nd897 O926 2.410 . S
C898 Nd896 2.836 . S
C898 C899 1.498 . S
C898 O916 1.258 . S
C898 O917 1.239 . S
C899 C898 1.498 . S
C899 C900 1.366 . S
C899 C904 1.407 . S
C900 C899 1.366 . S
C900 C901 1.392 . S
C900 H928 0.930 . S
C901 C900 1.392 . S
C901 C902 1.398 . S
C901 H929 0.929 . S
C902 C901 1.398 . S
C902 C903 1.352 . S
C903 C902 1.352 . S
C903 C904 1.384 . S
C903 H930 0.930 . S
C904 C899 1.407 . S
C904 C903 1.384 . S
C904 H931 0.929 . S
C905 O918 1.241 . S
C905 O919 1.273 . S
C906 O920 1.251 . S
C906 O921 1.268 . S
C907 Nd897 2.836 . S
C907 C908 1.498 . S
C907 O922 1.258 . S
C907 O923 1.239 . S
C908 C907 1.498 . S
C908 C909 1.366 . S
C908 C913 1.407 . S
C909 C908 1.366 . S
C909 C910 1.392 . S
C909 H932 0.930 . S
C910 C909 1.392 . S
C910 C911 1.398 . S
C910 H933 0.929 . S
C911 C910 1.398 . S
C911 C912 1.352 . S
C912 C911 1.352 . S
C912 C913 1.384 . S
C912 H934 0.930 . S
C913 C908 1.407 . S
C913 C912 1.384 . S
C913 H935 0.929 . S
C914 O924 1.241 . S
C914 O925 1.273 . S
C915 O926 1.251 . S
C915 O927 1.268 . S
O916 Nd896 2.500 . S
O916 C898 1.258 . S
O917 Nd896 2.492 . S
O917 C898 1.239 . S
O918 Nd896 2.487 . S
O918 C905 1.241 . S
O919 Nd896 2.682 . S
O919 Nd897 2.414 . S
O919 C905 1.273 . S
O920 Nd896 2.410 . S
O920 C906 1.251 . S
O921 Nd897 2.424 . S
O921 C906 1.268 . S
O922 Nd897 2.500 . S
O922 C907 1.258 . S
O923 Nd897 2.492 . S
O923 C907 1.239 . S
O924 Nd897 2.487 . S
O924 C914 1.241 . S
O925 Nd896 2.414 . S
O925 Nd897 2.682 . S
O925 C914 1.273 . S
O926 Nd897 2.410 . S
O926 C915 1.251 . S
O927 Nd896 2.424 . S
O927 C915 1.268 . S
H928 C900 0.930 . S
H929 C901 0.929 . S
H930 C903 0.930 . S
H931 C904 0.929 . S
H932 C909 0.930 . S
H933 C910 0.929 . S
H934 C912 0.930 . S
H935 C913 0.929 . S
Nd936 C938 2.836 . S
Nd936 O956 2.500 . S
Nd936 O957 2.492 . S
Nd936 O958 2.487 . S
Nd936 O959 2.682 . S
Nd936 O960 2.410 . S
Nd936 O965 2.414 . S
Nd936 O967 2.424 . S
Nd937 C947 2.836 1_455 S
Nd937 O959 2.414 . S
Nd937 O961 2.424 . S
Nd937 O962 2.500 1_455 S
Nd937 O963 2.492 1_455 S
Nd937 O964 2.487 . S
Nd937 O965 2.682 . S
Nd937 O966 2.410 . S
C938 Nd936 2.836 . S
C938 C939 1.498 . S
C938 O956 1.258 . S
C938 O957 1.239 . S
C939 C938 1.498 . S
C939 C940 1.366 . S
C939 C944 1.407 . S
C940 C939 1.366 . S
C940 C941 1.392 . S
C940 H968 0.930 . S
C941 C940 1.392 . S
C941 C942 1.398 . S
C941 H969 0.929 . S
C942 C941 1.398 . S
C942 C943 1.352 . S
C943 C942 1.352 . S
C943 C944 1.384 . S
C943 H970 0.930 . S
C944 C939 1.407 . S
C944 C943 1.384 . S
C944 H971 0.929 . S
C945 O958 1.241 . S
C945 O959 1.273 . S
C946 O960 1.251 . S
C946 O961 1.268 . S
C947 Nd937 2.836 1_655 S
C947 C948 1.498 . S
C947 O962 1.258 . S
C947 O963 1.239 . S
C948 C947 1.498 . S
C948 C949 1.366 . S
C948 C953 1.407 . S
C949 C948 1.366 . S
C949 C950 1.392 . S
C949 H972 0.930 . S
C950 C949 1.392 . S
C950 C951 1.398 . S
C950 H973 0.929 . S
C951 C950 1.398 . S
C951 C952 1.352 . S
C952 C951 1.352 . S
C952 C953 1.384 . S
C952 H974 0.930 . S
C953 C948 1.407 . S
C953 C952 1.384 . S
C953 H975 0.929 . S
C954 O964 1.241 . S
C954 O965 1.273 . S
C955 O966 1.251 . S
C955 O967 1.268 . S
O956 Nd936 2.500 . S
O956 C938 1.258 . S
O957 Nd936 2.492 . S
O957 C938 1.239 . S
O958 Nd936 2.487 . S
O958 C945 1.241 . S
O959 Nd936 2.682 . S
O959 Nd937 2.414 . S
O959 C945 1.273 . S
O960 Nd936 2.410 . S
O960 C946 1.251 . S
O961 Nd937 2.424 . S
O961 C946 1.268 . S
O962 Nd937 2.500 1_655 S
O962 C947 1.258 . S
O963 Nd937 2.492 1_655 S
O963 C947 1.239 . S
O964 Nd937 2.487 . S
O964 C954 1.241 . S
O965 Nd936 2.414 . S
O965 Nd937 2.682 . S
O965 C954 1.273 . S
O966 Nd937 2.410 . S
O966 C955 1.251 . S
O967 Nd936 2.424 . S
O967 C955 1.268 . S
H968 C940 0.930 . S
H969 C941 0.929 . S
H970 C943 0.930 . S
H971 C944 0.929 . S
H972 C949 0.930 . S
H973 C950 0.929 . S
H974 C952 0.930 . S
H975 C953 0.929 . S
H976 C982 0.930 . S
H977 C985 0.930 . S
H978 C986 0.930 . S
H979 C987 0.930 . S
H980 C990 0.930 . S
H981 C991 0.933 . S
C982 H976 0.930 . S
C982 C983 1.355 . S
C982 C984 1.415 . S
C983 C982 1.355 . S
C983 C985 1.419 . S
C984 C982 1.415 . S
C984 C989 1.425 1_556 S
C984 C991 1.412 . S
C985 H977 0.930 . S
C985 C983 1.419 . S
C985 C986 1.362 1_556 S
C986 H978 0.930 . S
C986 C985 1.362 1_554 S
C986 C989 1.409 . S
C987 H979 0.930 . S
C987 C988 1.355 . S
C987 C989 1.415 . S
C988 C987 1.355 . S
C988 C990 1.419 . S
C989 C984 1.425 1_554 S
C989 C986 1.409 . S
C989 C987 1.415 . S
C990 H980 0.930 . S
C990 C988 1.419 . S
C990 C991 1.357 1_554 S
C991 H981 0.933 . S
C991 C984 1.412 . S
C991 C990 1.357 1_556 S
H992 C998 0.930 . S
H993 C1001 0.930 . S
H994 C1002 0.930 . S
H995 C1003 0.930 . S
H996 C1006 0.930 . S
H997 C1007 0.930 . S
C998 H992 0.930 . S
C998 C999 1.355 . S
C998 C1000 1.415 . S
C999 C998 1.355 . S
C999 C1001 1.419 . S
C1000 C998 1.415 . S
C1000 C1005 1.425 . S
C1000 C1007 1.409 . S
C1001 H993 0.930 . S
C1001 C999 1.419 . S
C1001 C1002 1.362 . S
C1002 H994 0.930 . S
C1002 C1001 1.362 . S
C1002 C1005 1.409 . S
C1003 H995 0.930 . S
C1003 C1004 1.355 . S
C1003 C1005 1.415 . S
C1004 C1003 1.355 . S
C1004 C1006 1.419 . S
C1005 C1000 1.425 . S
C1005 C1002 1.409 . S
C1005 C1003 1.415 . S
C1006 H996 0.930 . S
C1006 C1004 1.419 . S
C1006 C1007 1.362 . S
C1007 H997 0.930 . S
C1007 C1000 1.409 . S
C1007 C1006 1.362 . S
H1008 C1014 0.930 . S
H1009 C1017 0.930 . S
H1010 C1018 0.930 . S
H1011 C1019 0.930 . S
H1012 C1022 0.930 . S
H1013 C1023 0.930 . S
C1014 H1008 0.930 . S
C1014 C1015 1.355 . S
C1014 C1016 1.415 . S
C1015 C1014 1.355 . S
C1015 C1017 1.419 . S
C1016 C1014 1.415 . S
C1016 C1021 1.425 . S
C1016 C1023 1.409 . S
C1017 H1009 0.930 . S
C1017 C1015 1.419 . S
C1017 C1018 1.362 . S
C1018 H1010 0.930 . S
C1018 C1017 1.362 . S
C1018 C1021 1.409 . S
C1019 H1011 0.930 . S
C1019 C1020 1.346 1_565 S
C1019 C1021 1.415 . S
C1020 C1019 1.346 1_545 S
C1020 C1022 1.421 . S
C1021 C1016 1.425 . S
C1021 C1018 1.409 . S
C1021 C1019 1.415 . S
C1022 H1012 0.930 . S
C1022 C1020 1.421 . S
C1022 C1023 1.362 1_545 S
C1023 H1013 0.930 . S
C1023 C1016 1.409 . S
C1023 C1022 1.362 1_565 S
H1024 C1030 0.930 . S
H1025 C1033 0.930 . S
H1026 C1034 0.930 . S
H1027 C1035 0.930 . S
H1028 C1038 0.930 . S
H1029 C1039 0.930 . S
C1030 H1024 0.930 . S
C1030 C1031 1.355 . S
C1030 C1032 1.415 . S
C1031 C1030 1.355 . S
C1031 C1033 1.419 . S
C1032 C1030 1.415 . S
C1032 C1037 1.425 . S
C1032 C1039 1.409 . S
C1033 H1025 0.930 . S
C1033 C1031 1.419 . S
C1033 C1034 1.362 . S
C1034 H1026 0.930 . S
C1034 C1033 1.362 . S
C1034 C1037 1.409 . S
C1035 H1027 0.930 . S
C1035 C1036 1.355 . S
C1035 C1037 1.415 . S
C1036 C1035 1.355 . S
C1036 C1038 1.419 . S
C1037 C1032 1.425 . S
C1037 C1034 1.409 . S
C1037 C1035 1.415 . S
C1038 H1028 0.930 . S
C1038 C1036 1.419 . S
C1038 C1039 1.362 . S
C1039 H1029 0.930 . S
C1039 C1032 1.409 . S
C1039 C1038 1.362 . S
H1040 C1046 0.930 . S
H1041 C1049 0.930 . S
H1042 C1050 0.930 . S
H1043 C1051 0.930 . S
H1044 C1054 0.930 . S
H1045 C1055 0.930 . S
C1046 H1040 0.930 . S
C1046 C1047 1.355 . S
C1046 C1048 1.415 . S
C1047 C1046 1.355 . S
C1047 C1049 1.419 1_455 S
C1048 C1046 1.415 . S
C1048 C1053 1.425 . S
C1048 C1055 1.409 . S
C1049 H1041 0.930 . S
C1049 C1047 1.419 1_655 S
C1049 C1050 1.362 . S
C1050 H1042 0.930 . S
C1050 C1049 1.362 . S
C1050 C1053 1.409 1_655 S
C1051 H1043 0.930 . S
C1051 C1052 1.355 . S
C1051 C1053 1.415 . S
C1052 C1051 1.355 . S
C1052 C1054 1.419 . S
C1053 C1048 1.425 . S
C1053 C1050 1.409 1_455 S
C1053 C1051 1.415 . S
C1054 H1044 0.930 . S
C1054 C1052 1.419 . S
C1054 C1055 1.362 . S
C1055 H1045 0.930 . S
C1055 C1048 1.409 . S
C1055 C1054 1.362 . S
H1056 C1062 0.930 . S
H1057 C1065 0.930 . S
H1058 C1066 0.930 . S
H1059 C1067 0.930 . S
H1060 C1070 0.930 . S
H1061 C1071 0.930 . S
C1062 H1056 0.930 . S
C1062 C1063 1.355 . S
C1062 C1064 1.415 . S
C1063 C1062 1.355 . S
C1063 C1065 1.419 . S
C1064 C1062 1.415 . S
C1064 C1069 1.425 . S
C1064 C1071 1.409 . S
C1065 H1057 0.930 . S
C1065 C1063 1.419 . S
C1065 C1066 1.362 . S
C1066 H1058 0.930 . S
C1066 C1065 1.362 . S
C1066 C1069 1.409 . S
C1067 H1059 0.930 . S
C1067 C1068 1.355 . S
C1067 C1069 1.415 . S
C1068 C1067 1.355 . S
C1068 C1070 1.419 . S
C1069 C1064 1.425 . S
C1069 C1066 1.409 . S
C1069 C1067 1.415 . S
C1070 H1060 0.930 . S
C1070 C1068 1.419 . S
C1070 C1071 1.362 . S
C1071 H1061 0.930 . S
C1071 C1064 1.409 . S
C1071 C1070 1.362 . S
H1072 C1078 0.930 . S
H1073 C1081 0.930 . S
H1074 C1082 0.930 . S
H1075 C1083 0.930 . S
H1076 C1086 0.930 . S
H1077 C1087 0.930 . S
C1078 H1072 0.930 . S
C1078 C1079 1.355 . S
C1078 C1080 1.415 . S
C1079 C1078 1.355 . S
C1079 C1081 1.419 . S
C1080 C1078 1.415 . S
C1080 C1085 1.425 . S
C1080 C1087 1.409 . S
C1081 H1073 0.930 . S
C1081 C1079 1.419 . S
C1081 C1082 1.362 . S
C1082 H1074 0.930 . S
C1082 C1081 1.362 . S
C1082 C1085 1.409 . S
C1083 H1075 0.930 . S
C1083 C1084 1.355 . S
C1083 C1085 1.415 . S
C1084 C1083 1.355 . S
C1084 C1086 1.419 . S
C1085 C1080 1.425 . S
C1085 C1082 1.409 . S
C1085 C1083 1.415 . S
C1086 H1076 0.930 . S
C1086 C1084 1.419 . S
C1086 C1087 1.362 . S
C1087 H1077 0.930 . S
C1087 C1080 1.409 . S
C1087 C1086 1.362 . S
H1088 C1094 0.930 . S
H1089 C1097 0.930 . S
H1090 C1098 0.930 . S
H1091 C1099 0.930 . S
H1092 C1102 0.930 . S
H1093 C1103 0.930 . S
C1094 H1088 0.930 . S
C1094 C1095 1.355 . S
C1094 C1096 1.415 . S
C1095 C1094 1.355 . S
C1095 C1097 1.419 . S
C1096 C1094 1.415 . S
C1096 C1101 1.425 . S
C1096 C1103 1.409 . S
C1097 H1089 0.930 . S
C1097 C1095 1.419 . S
C1097 C1098 1.362 . S
C1098 H1090 0.930 . S
C1098 C1097 1.362 . S
C1098 C1101 1.409 . S
C1099 H1091 0.930 . S
C1099 C1100 1.355 . S
C1099 C1101 1.415 . S
C1100 C1099 1.355 . S
C1100 C1102 1.419 . S
C1101 C1096 1.425 . S
C1101 C1098 1.409 . S
C1101 C1099 1.415 . S
C1102 H1092 0.930 . S
C1102 C1100 1.419 . S
C1102 C1103 1.362 . S
C1103 H1093 0.930 . S
C1103 C1096 1.409 . S
C1103 C1102 1.362 . S
H1104 C1110 0.930 1_455 S
H1105 C1113 0.930 . S
H1106 C1114 0.930 . S
H1107 C1115 0.930 1_655 S
H1108 C1118 0.930 . S
H1109 C1119 0.930 . S
C1110 H1104 0.930 1_655 S
C1110 C1111 1.355 . S
C1110 C1112 1.415 1_655 S
C1111 C1110 1.355 . S
C1111 C1113 1.419 . S
C1112 C1110 1.415 1_455 S
C1112 C1117 1.425 1_455 S
C1112 C1119 1.409 . S
C1113 H1105 0.930 . S
C1113 C1111 1.419 . S
C1113 C1114 1.362 . S
C1114 H1106 0.930 . S
C1114 C1113 1.362 . S
C1114 C1117 1.409 . S
C1115 H1107 0.930 1_455 S
C1115 C1116 1.355 . S
C1115 C1117 1.415 1_455 S
C1116 C1115 1.355 . S
C1116 C1118 1.419 . S
C1117 C1112 1.425 1_655 S
C1117 C1114 1.409 . S
C1117 C1115 1.415 1_655 S
C1118 H1108 0.930 . S
C1118 C1116 1.419 . S
C1118 C1119 1.362 . S
C1119 H1109 0.930 . S
C1119 C1112 1.409 . S
C1119 C1118 1.362 . S
H1120 C1126 0.930 . S
H1121 C1129 0.930 . S
H1122 C1130 0.930 . S
H1123 C1131 0.930 . S
H1124 C1134 0.930 . S
H1125 C1135 0.930 . S
C1126 H1120 0.930 . S
C1126 C1127 1.355 . S
C1126 C1128 1.415 . S
C1127 C1126 1.355 . S
C1127 C1129 1.419 . S
C1128 C1126 1.415 . S
C1128 C1133 1.425 . S
C1128 C1135 1.409 . S
C1129 H1121 0.930 . S
C1129 C1127 1.419 . S
C1129 C1130 1.362 . S
C1130 H1122 0.930 . S
C1130 C1129 1.362 . S
C1130 C1133 1.409 . S
C1131 H1123 0.930 . S
C1131 C1132 1.355 . S
C1131 C1133 1.415 . S
C1132 C1131 1.355 . S
C1132 C1134 1.419 . S
C1133 C1128 1.425 . S
C1133 C1130 1.409 . S
C1133 C1131 1.415 . S
C1134 H1124 0.930 . S
C1134 C1132 1.419 . S
C1134 C1135 1.362 . S
C1135 H1125 0.930 . S
C1135 C1128 1.409 . S
C1135 C1134 1.362 . S
H1136 C1142 0.930 . S
H1137 C1145 0.930 . S
H1138 C1146 0.930 . S
H1139 C1147 0.930 . S
H1140 C1150 0.930 . S
H1141 C1151 0.930 1_565 S
C1142 H1136 0.930 . S
C1142 C1143 1.355 1_565 S
C1142 C1144 1.415 1_565 S
C1143 C1142 1.355 1_545 S
C1143 C1145 1.419 . S
C1144 C1142 1.415 1_545 S
C1144 C1149 1.425 . S
C1144 C1151 1.409 . S
C1145 H1137 0.930 . S
C1145 C1143 1.419 . S
C1145 C1146 1.362 . S
C1146 H1138 0.930 . S
C1146 C1145 1.362 . S
C1146 C1149 1.409 . S
C1147 H1139 0.930 . S
C1147 C1148 1.355 . S
C1147 C1149 1.415 . S
C1148 C1147 1.355 . S
C1148 C1150 1.419 . S
C1149 C1144 1.425 . S
C1149 C1146 1.409 . S
C1149 C1147 1.415 . S
C1150 H1140 0.930 . S
C1150 C1148 1.419 . S
C1150 C1151 1.362 . S
C1151 H1141 0.930 1_545 S
C1151 C1144 1.409 . S
C1151 C1150 1.362 . S
H1152 C1158 0.930 . S
H1153 C1161 0.930 . S
H1154 C1162 0.930 . S
H1155 C1163 0.930 . S
H1156 C1166 0.930 1_556 S
H1157 C1167 0.930 . S
C1158 H1152 0.930 . S
C1158 C1159 1.355 . S
C1158 C1160 1.415 . S
C1159 C1158 1.355 . S
C1159 C1161 1.419 . S
C1160 C1158 1.415 . S
C1160 C1165 1.425 . S
C1160 C1167 1.409 . S
C1161 H1153 0.930 . S
C1161 C1159 1.419 . S
C1161 C1162 1.362 . S
C1162 H1154 0.930 . S
C1162 C1161 1.362 . S
C1162 C1165 1.409 . S
C1163 H1155 0.930 . S
C1163 C1164 1.355 . S
C1163 C1165 1.415 . S
C1164 C1163 1.355 . S
C1164 C1166 1.419 . S
C1165 C1160 1.425 . S
C1165 C1162 1.409 . S
C1165 C1163 1.415 . S
C1166 H1156 0.930 1_554 S
C1166 C1164 1.419 . S
C1166 C1167 1.362 . S
C1167 H1157 0.930 . S
C1167 C1160 1.409 . S
C1167 C1166 1.362 . S
H1168 C1174 0.930 . S
H1169 C1177 0.930 1_455 S
H1170 C1178 0.930 . S
H1171 C1179 0.930 . S
H1172 C1182 0.930 . S
H1173 C1183 0.930 . S
C1174 H1168 0.930 . S
C1174 C1175 1.355 . S
C1174 C1176 1.415 . S
C1175 C1174 1.355 . S
C1175 C1177 1.419 . S
C1176 C1174 1.415 . S
C1176 C1181 1.425 1_655 S
C1176 C1183 1.409 . S
C1177 H1169 0.930 1_655 S
C1177 C1175 1.419 . S
C1177 C1178 1.362 1_655 S
C1178 H1170 0.930 . S
C1178 C1177 1.362 1_455 S
C1178 C1181 1.409 . S
C1179 H1171 0.930 . S
C1179 C1180 1.355 . S
C1179 C1181 1.415 . S
C1180 C1179 1.355 . S
C1180 C1182 1.419 1_455 S
C1181 C1176 1.425 1_455 S
C1181 C1178 1.409 . S
C1181 C1179 1.415 . S
C1182 H1172 0.930 . S
C1182 C1180 1.419 1_655 S
C1182 C1183 1.362 . S
C1183 H1173 0.930 . S
C1183 C1176 1.409 . S
C1183 C1182 1.362 . S
H1184 C1190 0.930 . S
H1185 C1193 0.930 . S
H1186 C1194 0.930 . S
H1187 C1195 0.930 . S
H1188 C1198 0.930 . S
H1189 C1199 0.930 . S
C1190 H1184 0.930 . S
C1190 C1191 1.355 . S
C1190 C1192 1.415 . S
C1191 C1190 1.355 . S
C1191 C1193 1.419 . S
C1192 C1190 1.415 . S
C1192 C1197 1.425 . S
C1192 C1199 1.409 . S
C1193 H1185 0.930 . S
C1193 C1191 1.419 . S
C1193 C1194 1.362 . S
C1194 H1186 0.930 . S
C1194 C1193 1.362 . S
C1194 C1197 1.409 . S
C1195 H1187 0.930 . S
C1195 C1196 1.355 . S
C1195 C1197 1.415 . S
C1196 C1195 1.355 . S
C1196 C1198 1.419 . S
C1197 C1192 1.425 . S
C1197 C1194 1.409 . S
C1197 C1195 1.415 . S
C1198 H1188 0.930 . S
C1198 C1196 1.419 . S
C1198 C1199 1.362 . S
C1199 H1189 0.930 . S
C1199 C1192 1.409 . S
C1199 C1198 1.362 . S
H1200 C1206 0.930 1_565 S
H1201 C1209 0.930 . S
H1202 C1210 0.930 . S
H1203 C1211 0.930 . S
H1204 C1214 0.930 . S
H1205 C1215 0.928 1_565 S
C1206 H1200 0.930 1_545 S
C1206 C1207 1.355 . S
C1206 C1208 1.415 . S
C1207 C1206 1.355 . S
C1207 C1209 1.419 . S
C1208 C1206 1.415 . S
C1208 C1213 1.425 . S
C1208 C1215 1.409 . S
C1209 H1201 0.930 . S
C1209 C1207 1.419 . S
C1209 C1210 1.362 . S
C1210 H1202 0.930 . S
C1210 C1209 1.362 . S
C1210 C1213 1.409 . S
C1211 H1203 0.930 . S
C1211 C1212 1.355 . S
C1211 C1213 1.415 . S
C1212 C1211 1.355 . S
C1212 C1214 1.419 . S
C1213 C1208 1.425 . S
C1213 C1210 1.409 . S
C1213 C1211 1.415 . S
C1214 H1204 0.930 . S
C1214 C1212 1.419 . S
C1214 C1215 1.362 . S
C1215 H1205 0.928 1_545 S
C1215 C1208 1.409 . S
C1215 C1214 1.362 . S
H1216 C1222 0.930 . S
H1217 C1225 0.930 . S
H1218 C1226 0.930 . S
H1219 C1227 0.930 . S
H1220 C1230 0.930 . S
H1221 C1231 0.930 . S
C1222 H1216 0.930 . S
C1222 C1223 1.355 . S
C1222 C1224 1.415 . S
C1223 C1222 1.355 . S
C1223 C1225 1.419 . S
C1224 C1222 1.415 . S
C1224 C1229 1.425 . S
C1224 C1231 1.409 . S
C1225 H1217 0.930 . S
C1225 C1223 1.419 . S
C1225 C1226 1.362 . S
C1226 H1218 0.930 . S
C1226 C1225 1.362 . S
C1226 C1229 1.409 . S
C1227 H1219 0.930 . S
C1227 C1228 1.355 . S
C1227 C1229 1.415 . S
C1228 C1227 1.355 . S
C1228 C1230 1.419 . S
C1229 C1224 1.425 . S
C1229 C1226 1.409 . S
C1229 C1227 1.415 . S
C1230 H1220 0.930 . S
C1230 C1228 1.419 . S
C1230 C1231 1.362 . S
C1231 H1221 0.930 . S
C1231 C1224 1.409 . S
C1231 C1230 1.362 . S
H1232 C1238 0.930 . S
H1233 C1241 0.930 . S
H1234 C1242 0.930 . S
H1235 C1243 0.930 . S
H1236 C1246 0.933 1_565 S
H1237 C1247 0.930 . S
C1238 H1232 0.930 . S
C1238 C1239 1.355 . S
C1238 C1240 1.415 . S
C1239 C1238 1.355 . S
C1239 C1241 1.419 . S
C1240 C1238 1.415 . S
C1240 C1245 1.425 1_565 S
C1240 C1247 1.409 . S
C1241 H1233 0.930 . S
C1241 C1239 1.419 . S
C1241 C1242 1.362 1_565 S
C1242 H1234 0.930 . S
C1242 C1241 1.362 1_545 S
C1242 C1245 1.409 . S
C1243 H1235 0.930 . S
C1243 C1244 1.355 . S
C1243 C1245 1.415 . S
C1244 C1243 1.355 . S
C1244 C1246 1.432 . S
C1245 C1240 1.425 1_545 S
C1245 C1242 1.409 . S
C1245 C1243 1.415 . S
C1246 H1236 0.933 1_545 S
C1246 C1244 1.432 . S
C1246 C1247 1.346 1_545 S
C1247 H1237 0.930 . S
C1247 C1240 1.409 . S
C1247 C1246 1.346 1_565 S
H1248 C1254 0.930 . S
H1249 C1257 0.930 . S
H1250 C1258 0.930 . S
H1251 C1259 0.930 . S
H1252 C1262 0.930 . S
H1253 C1263 0.930 . S
C1254 H1248 0.930 . S
C1254 C1255 1.355 1_554 S
C1254 C1256 1.415 . S
C1255 C1254 1.355 1_556 S
C1255 C1257 1.419 . S
C1256 C1254 1.415 . S
C1256 C1261 1.425 . S
C1256 C1263 1.409 . S
C1257 H1249 0.930 . S
C1257 C1255 1.419 . S
C1257 C1258 1.362 . S
C1258 H1250 0.930 . S
C1258 C1257 1.362 . S
C1258 C1261 1.409 1_556 S
C1259 H1251 0.930 . S
C1259 C1260 1.355 . S
C1259 C1261 1.415 . S
C1260 C1259 1.355 . S
C1260 C1262 1.419 . S
C1261 C1256 1.425 . S
C1261 C1258 1.409 1_554 S
C1261 C1259 1.415 . S
C1262 H1252 0.930 . S
C1262 C1260 1.419 . S
C1262 C1263 1.362 . S
C1263 H1253 0.930 . S
C1263 C1256 1.409 . S
C1263 C1262 1.362 . S
H1264 C1270 0.930 . S
H1265 C1273 0.930 . S
H1266 C1274 0.930 . S
H1267 C1275 0.930 . S
H1268 C1278 0.930 . S
H1269 C1279 0.930 . S
C1270 H1264 0.930 . S
C1270 C1271 1.355 . S
C1270 C1272 1.415 . S
C1271 C1270 1.355 . S
C1271 C1273 1.419 . S
C1272 C1270 1.415 . S
C1272 C1277 1.425 . S
C1272 C1279 1.409 . S
C1273 H1265 0.930 . S
C1273 C1271 1.419 . S
C1273 C1274 1.362 . S
C1274 H1266 0.930 . S
C1274 C1273 1.362 . S
C1274 C1277 1.409 . S
C1275 H1267 0.930 . S
C1275 C1276 1.355 . S
C1275 C1277 1.415 . S
C1276 C1275 1.355 . S
C1276 C1278 1.419 . S
C1277 C1272 1.425 . S
C1277 C1274 1.409 . S
C1277 C1275 1.415 . S
C1278 H1268 0.930 . S
C1278 C1276 1.419 . S
C1278 C1279 1.362 . S
C1279 H1269 0.930 . S
C1279 C1272 1.409 . S
C1279 C1278 1.362 . S
H1280 C1286 0.930 . S
H1281 C1289 0.930 . S
H1282 C1290 0.930 . S
H1283 C1291 0.930 . S
H1284 C1294 0.930 . S
H1285 C1295 0.930 . S
C1286 H1280 0.930 . S
C1286 C1287 1.355 . S
C1286 C1288 1.415 . S
C1287 C1286 1.355 . S
C1287 C1289 1.419 . S
C1288 C1286 1.415 . S
C1288 C1293 1.425 . S
C1288 C1295 1.409 . S
C1289 H1281 0.930 . S
C1289 C1287 1.419 . S
C1289 C1290 1.362 . S
C1290 H1282 0.930 . S
C1290 C1289 1.362 . S
C1290 C1293 1.409 . S
C1291 H1283 0.930 . S
C1291 C1292 1.355 . S
C1291 C1293 1.415 . S
C1292 C1291 1.355 . S
C1292 C1294 1.419 . S
C1293 C1288 1.425 . S
C1293 C1290 1.409 . S
C1293 C1291 1.415 . S
C1294 H1284 0.930 . S
C1294 C1292 1.419 . S
C1294 C1295 1.362 . S
C1295 H1285 0.930 . S
C1295 C1288 1.409 . S
C1295 C1294 1.362 . S
H1296 C1302 0.930 . S
H1297 C1305 0.930 . S
H1298 C1306 0.930 . S
H1299 C1307 0.930 . S
H1300 C1310 0.930 . S
H1301 C1311 0.930 . S
C1302 H1296 0.930 . S
C1302 C1303 1.355 . S
C1302 C1304 1.415 . S
C1303 C1302 1.355 . S
C1303 C1305 1.419 . S
C1304 C1302 1.415 . S
C1304 C1309 1.425 . S
C1304 C1311 1.409 . S
C1305 H1297 0.930 . S
C1305 C1303 1.419 . S
C1305 C1306 1.362 . S
C1306 H1298 0.930 . S
C1306 C1305 1.362 . S
C1306 C1309 1.409 . S
C1307 H1299 0.930 . S
C1307 C1308 1.355 . S
C1307 C1309 1.415 . S
C1308 C1307 1.355 . S
C1308 C1310 1.419 . S
C1309 C1304 1.425 . S
C1309 C1306 1.409 . S
C1309 C1307 1.415 . S
C1310 H1300 0.930 . S
C1310 C1308 1.419 . S
C1310 C1311 1.362 . S
C1311 H1301 0.930 . S
C1311 C1304 1.409 . S
C1311 C1310 1.362 . S
H1312 C1318 0.930 . S
H1313 C1321 0.930 . S
H1314 C1322 0.930 . S
H1315 C1323 0.930 . S
H1316 C1326 0.930 . S
H1317 C1327 0.930 . S
C1318 H1312 0.930 . S
C1318 C1319 1.355 . S
C1318 C1320 1.415 . S
C1319 C1318 1.355 . S
C1319 C1321 1.419 . S
C1320 C1318 1.415 . S
C1320 C1325 1.425 . S
C1320 C1327 1.409 . S
C1321 H1313 0.930 . S
C1321 C1319 1.419 . S
C1321 C1322 1.362 . S
C1322 H1314 0.930 . S
C1322 C1321 1.362 . S
C1322 C1325 1.409 . S
C1323 H1315 0.930 . S
C1323 C1324 1.355 . S
C1323 C1325 1.415 . S
C1324 C1323 1.355 . S
C1324 C1326 1.419 . S
C1325 C1320 1.425 . S
C1325 C1322 1.409 . S
C1325 C1323 1.415 . S
C1326 H1316 0.930 . S
C1326 C1324 1.419 . S
C1326 C1327 1.362 . S
C1327 H1317 0.930 . S
C1327 C1320 1.409 . S
C1327 C1326 1.362 . S
H1328 C1334 0.930 . S
H1329 C1337 0.930 . S
H1330 C1338 0.930 . S
H1331 C1339 0.930 . S
H1332 C1342 0.930 . S
H1333 C1343 0.930 . S
C1334 H1328 0.930 . S
C1334 C1335 1.355 . S
C1334 C1336 1.415 . S
C1335 C1334 1.355 . S
C1335 C1337 1.419 . S
C1336 C1334 1.415 . S
C1336 C1341 1.425 . S
C1336 C1343 1.409 . S
C1337 H1329 0.930 . S
C1337 C1335 1.419 . S
C1337 C1338 1.362 . S
C1338 H1330 0.930 . S
C1338 C1337 1.362 . S
C1338 C1341 1.409 . S
C1339 H1331 0.930 . S
C1339 C1340 1.355 . S
C1339 C1341 1.415 . S
C1340 C1339 1.355 . S
C1340 C1342 1.419 . S
C1341 C1336 1.425 . S
C1341 C1338 1.409 . S
C1341 C1339 1.415 . S
C1342 H1332 0.930 . S
C1342 C1340 1.419 . S
C1342 C1343 1.362 . S
C1343 H1333 0.930 . S
C1343 C1336 1.409 . S
C1343 C1342 1.362 . S
H1344 C1350 0.930 . S
H1345 C1353 0.930 . S
H1346 C1354 0.930 . S
H1347 C1355 0.930 . S
H1348 C1358 0.930 . S
H1349 C1359 0.930 . S
C1350 H1344 0.930 . S
C1350 C1351 1.355 . S
C1350 C1352 1.415 . S
C1351 C1350 1.355 . S
C1351 C1353 1.419 . S
C1352 C1350 1.415 . S
C1352 C1357 1.425 . S
C1352 C1359 1.409 . S
C1353 H1345 0.930 . S
C1353 C1351 1.419 . S
C1353 C1354 1.362 . S
C1354 H1346 0.930 . S
C1354 C1353 1.362 . S
C1354 C1357 1.409 . S
C1355 H1347 0.930 . S
C1355 C1356 1.355 . S
C1355 C1357 1.415 . S
C1356 C1355 1.355 . S
C1356 C1358 1.419 . S
C1357 C1352 1.425 . S
C1357 C1354 1.409 . S
C1357 C1355 1.415 . S
C1358 H1348 0.930 . S
C1358 C1356 1.419 . S
C1358 C1359 1.362 . S
C1359 H1349 0.930 . S
C1359 C1352 1.409 . S
C1359 C1358 1.362 . S
H1360 C1366 0.930 . S
H1361 C1369 0.930 . S
H1362 C1370 0.930 . S
H1363 C1371 0.930 . S
H1364 C1374 0.930 . S
H1365 C1375 0.930 . S
C1366 H1360 0.930 . S
C1366 C1367 1.355 . S
C1366 C1368 1.415 . S
C1367 C1366 1.355 . S
C1367 C1369 1.419 . S
C1368 C1366 1.415 . S
C1368 C1373 1.425 . S
C1368 C1375 1.409 . S
C1369 H1361 0.930 . S
C1369 C1367 1.419 . S
C1369 C1370 1.362 . S
C1370 H1362 0.930 . S
C1370 C1369 1.362 . S
C1370 C1373 1.409 . S
C1371 H1363 0.930 . S
C1371 C1372 1.355 . S
C1371 C1373 1.415 . S
C1372 C1371 1.355 . S
C1372 C1374 1.419 . S
C1373 C1368 1.425 . S
C1373 C1370 1.409 . S
C1373 C1371 1.415 . S
C1374 H1364 0.930 . S
C1374 C1372 1.419 . S
C1374 C1375 1.362 . S
C1375 H1365 0.930 . S
C1375 C1368 1.409 . S
C1375 C1374 1.362 . S
H1376 C1382 0.930 . S
H1377 C1385 0.930 . S
H1378 C1386 0.930 . S
H1379 C1387 0.930 . S
H1380 C1390 0.930 . S
H1381 C1391 0.930 . S
C1382 H1376 0.930 . S
C1382 C1383 1.355 . S
C1382 C1384 1.415 . S
C1383 C1382 1.355 . S
C1383 C1385 1.419 . S
C1384 C1382 1.415 . S
C1384 C1389 1.425 . S
C1384 C1391 1.409 . S
C1385 H1377 0.930 . S
C1385 C1383 1.419 . S
C1385 C1386 1.362 . S
C1386 H1378 0.930 . S
C1386 C1385 1.362 . S
C1386 C1389 1.409 . S
C1387 H1379 0.930 . S
C1387 C1388 1.355 . S
C1387 C1389 1.415 . S
C1388 C1387 1.355 . S
C1388 C1390 1.419 . S
C1389 C1384 1.425 . S
C1389 C1386 1.409 . S
C1389 C1387 1.415 . S
C1390 H1380 0.930 . S
C1390 C1388 1.419 . S
C1390 C1391 1.362 . S
C1391 H1381 0.930 . S
C1391 C1384 1.409 . S
C1391 C1390 1.362 . S
H1392 C1398 0.930 . S
H1393 C1401 0.930 . S
H1394 C1402 0.930 . S
H1395 C1403 0.930 . S
H1396 C1406 0.930 . S
H1397 C1407 0.930 . S
C1398 H1392 0.930 . S
C1398 C1399 1.355 . S
C1398 C1400 1.415 . S
C1399 C1398 1.355 . S
C1399 C1401 1.419 . S
C1400 C1398 1.415 . S
C1400 C1405 1.425 . S
C1400 C1407 1.409 . S
C1401 H1393 0.930 . S
C1401 C1399 1.419 . S
C1401 C1402 1.362 . S
C1402 H1394 0.930 . S
C1402 C1401 1.362 . S
C1402 C1405 1.409 . S
C1403 H1395 0.930 . S
C1403 C1404 1.355 . S
C1403 C1405 1.415 . S
C1404 C1403 1.355 . S
C1404 C1406 1.419 . S
C1405 C1400 1.425 . S
C1405 C1402 1.409 . S
C1405 C1403 1.415 . S
C1406 H1396 0.930 . S
C1406 C1404 1.419 . S
C1406 C1407 1.362 . S
C1407 H1397 0.930 . S
C1407 C1400 1.409 . S
C1407 C1406 1.362 . S
H1408 C1414 0.930 . S
H1409 C1417 0.930 . S
H1410 C1418 0.930 . S
H1411 C1419 0.930 . S
H1412 C1422 0.930 . S
H1413 C1423 0.930 . S
C1414 H1408 0.930 . S
C1414 C1415 1.355 . S
C1414 C1416 1.415 . S
C1415 C1414 1.355 . S
C1415 C1417 1.419 . S
C1416 C1414 1.415 . S
C1416 C1421 1.425 . S
C1416 C1423 1.409 . S
C1417 H1409 0.930 . S
C1417 C1415 1.419 . S
C1417 C1418 1.362 . S
C1418 H1410 0.930 . S
C1418 C1417 1.362 . S
C1418 C1421 1.409 . S
C1419 H1411 0.930 . S
C1419 C1420 1.355 . S
C1419 C1421 1.415 . S
C1420 C1419 1.355 . S
C1420 C1422 1.419 . S
C1421 C1416 1.425 . S
C1421 C1418 1.409 . S
C1421 C1419 1.415 . S
C1422 H1412 0.930 . S
C1422 C1420 1.419 . S
C1422 C1423 1.362 . S
C1423 H1413 0.930 . S
C1423 C1416 1.409 . S
C1423 C1422 1.362 . S
H1424 C1430 0.930 . S
H1425 C1433 0.930 . S
H1426 C1434 0.930 . S
H1427 C1435 0.930 . S
H1428 C1438 0.930 . S
H1429 C1439 0.930 . S
C1430 H1424 0.930 . S
C1430 C1431 1.355 . S
C1430 C1432 1.415 . S
C1431 C1430 1.355 . S
C1431 C1433 1.419 . S
C1432 C1430 1.415 . S
C1432 C1437 1.425 . S
C1432 C1439 1.409 . S
C1433 H1425 0.930 . S
C1433 C1431 1.419 . S
C1433 C1434 1.362 . S
C1434 H1426 0.930 . S
C1434 C1433 1.362 . S
C1434 C1437 1.409 . S
C1435 H1427 0.930 . S
C1435 C1436 1.355 . S
C1435 C1437 1.415 . S
C1436 C1435 1.355 . S
C1436 C1438 1.419 . S
C1437 C1432 1.425 . S
C1437 C1434 1.409 . S
C1437 C1435 1.415 . S
C1438 H1428 0.930 . S
C1438 C1436 1.419 . S
C1438 C1439 1.362 . S
C1439 H1429 0.930 . S
C1439 C1432 1.409 . S
C1439 C1438 1.362 . S
H1440 C1446 0.930 . S
H1441 C1449 0.930 . S
H1442 C1450 0.930 . S
H1443 C1451 0.930 . S
H1444 C1454 0.930 . S
H1445 C1455 0.930 . S
C1446 H1440 0.930 . S
C1446 C1447 1.355 . S
C1446 C1448 1.415 . S
C1447 C1446 1.355 . S
C1447 C1449 1.419 . S
C1448 C1446 1.415 . S
C1448 C1453 1.425 . S
C1448 C1455 1.409 . S
C1449 H1441 0.930 . S
C1449 C1447 1.419 . S
C1449 C1450 1.362 . S
C1450 H1442 0.930 . S
C1450 C1449 1.362 . S
C1450 C1453 1.409 . S
C1451 H1443 0.930 . S
C1451 C1452 1.355 . S
C1451 C1453 1.415 . S
C1452 C1451 1.355 . S
C1452 C1454 1.419 . S
C1453 C1448 1.425 . S
C1453 C1450 1.409 . S
C1453 C1451 1.415 . S
C1454 H1444 0.930 . S
C1454 C1452 1.419 . S
C1454 C1455 1.362 . S
C1455 H1445 0.930 . S
C1455 C1448 1.409 . S
C1455 C1454 1.362 . S
H1456 C1462 0.930 . S
H1457 C1465 0.930 . S
H1458 C1466 0.930 1_545 S
H1459 C1467 0.930 . S
H1460 C1470 0.930 . S
H1461 C1471 0.930 . S
C1462 H1456 0.930 . S
C1462 C1463 1.355 . S
C1462 C1464 1.415 . S
C1463 C1462 1.355 . S
C1463 C1465 1.419 . S
C1464 C1462 1.415 . S
C1464 C1469 1.425 . S
C1464 C1471 1.409 . S
C1465 H1457 0.930 . S
C1465 C1463 1.419 . S
C1465 C1466 1.362 . S
C1466 H1458 0.930 1_565 S
C1466 C1465 1.362 . S
C1466 C1469 1.409 . S
C1467 H1459 0.930 . S
C1467 C1468 1.355 . S
C1467 C1469 1.415 1_545 S
C1468 C1467 1.355 . S
C1468 C1470 1.419 1_545 S
C1469 C1464 1.425 . S
C1469 C1466 1.409 . S
C1469 C1467 1.415 1_565 S
C1470 H1460 0.930 . S
C1470 C1468 1.419 1_565 S
C1470 C1471 1.362 . S
C1471 H1461 0.930 . S
C1471 C1464 1.409 . S
C1471 C1470 1.362 . S
H1472 C1478 0.930 . S
H1473 C1481 0.930 . S
H1474 C1482 0.930 . S
H1475 C1483 0.930 . S
H1476 C1486 0.930 . S
H1477 C1487 0.930 . S
C1478 H1472 0.930 . S
C1478 C1479 1.355 . S
C1478 C1480 1.415 . S
C1479 C1478 1.355 . S
C1479 C1481 1.419 . S
C1480 C1478 1.415 . S
C1480 C1485 1.425 . S
C1480 C1487 1.409 . S
C1481 H1473 0.930 . S
C1481 C1479 1.419 . S
C1481 C1482 1.362 . S
C1482 H1474 0.930 . S
C1482 C1481 1.362 . S
C1482 C1485 1.409 . S
C1483 H1475 0.930 . S
C1483 C1484 1.355 . S
C1483 C1485 1.415 . S
C1484 C1483 1.355 . S
C1484 C1486 1.419 . S
C1485 C1480 1.425 . S
C1485 C1482 1.409 . S
C1485 C1483 1.415 . S
C1486 H1476 0.930 . S
C1486 C1484 1.419 . S
C1486 C1487 1.362 . S
C1487 H1477 0.930 . S
C1487 C1480 1.409 . S
C1487 C1486 1.362 . S
H1488 C1494 0.930 . S
H1489 C1497 0.930 . S
H1490 C1498 0.930 . S
H1491 C1499 0.930 . S
H1492 C1502 0.930 . S
H1493 C1503 0.923 1_554 S
C1494 H1488 0.930 . S
C1494 C1495 1.355 . S
C1494 C1496 1.415 . S
C1495 C1494 1.355 . S
C1495 C1497 1.419 . S
C1496 C1494 1.415 . S
C1496 C1501 1.425 . S
C1496 C1503 1.409 . S
C1497 H1489 0.930 . S
C1497 C1495 1.419 . S
C1497 C1498 1.362 . S
C1498 H1490 0.930 . S
C1498 C1497 1.362 . S
C1498 C1501 1.409 . S
C1499 H1491 0.930 . S
C1499 C1500 1.355 . S
C1499 C1501 1.415 . S
C1500 C1499 1.355 . S
C1500 C1502 1.419 1_556 S
C1501 C1496 1.425 . S
C1501 C1498 1.409 . S
C1501 C1499 1.415 . S
C1502 H1492 0.930 . S
C1502 C1500 1.419 1_554 S
C1502 C1503 1.362 1_554 S
C1503 H1493 0.923 1_556 S
C1503 C1496 1.409 . S
C1503 C1502 1.362 1_556 S
H1504 C1510 0.930 . S
H1505 C1513 0.930 . S
H1506 C1514 0.930 . S
H1507 C1515 0.930 . S
H1508 C1518 0.930 . S
H1509 C1519 0.930 . S
C1510 H1504 0.930 . S
C1510 C1511 1.355 . S
C1510 C1512 1.415 . S
C1511 C1510 1.355 . S
C1511 C1513 1.419 . S
C1512 C1510 1.415 . S
C1512 C1517 1.425 . S
C1512 C1519 1.409 . S
C1513 H1505 0.930 . S
C1513 C1511 1.419 . S
C1513 C1514 1.362 . S
C1514 H1506 0.930 . S
C1514 C1513 1.362 . S
C1514 C1517 1.409 . S
C1515 H1507 0.930 . S
C1515 C1516 1.355 . S
C1515 C1517 1.415 . S
C1516 C1515 1.355 . S
C1516 C1518 1.419 . S
C1517 C1512 1.425 . S
C1517 C1514 1.409 . S
C1517 C1515 1.415 . S
C1518 H1508 0.930 . S
C1518 C1516 1.419 . S
C1518 C1519 1.362 . S
C1519 H1509 0.930 . S
C1519 C1512 1.409 . S
C1519 C1518 1.362 . S
H1520 C1526 0.930 . S
H1521 C1529 0.930 . S
H1522 C1530 0.930 . S
H1523 C1531 0.930 . S
H1524 C1534 0.930 . S
H1525 C1535 0.930 . S
C1526 H1520 0.930 . S
C1526 C1527 1.355 . S
C1526 C1528 1.415 . S
C1527 C1526 1.355 . S
C1527 C1529 1.419 . S
C1528 C1526 1.415 . S
C1528 C1533 1.425 . S
C1528 C1535 1.409 . S
C1529 H1521 0.930 . S
C1529 C1527 1.419 . S
C1529 C1530 1.362 . S
C1530 H1522 0.930 . S
C1530 C1529 1.362 . S
C1530 C1533 1.409 . S
C1531 H1523 0.930 . S
C1531 C1532 1.355 . S
C1531 C1533 1.415 . S
C1532 C1531 1.355 . S
C1532 C1534 1.419 . S
C1533 C1528 1.425 . S
C1533 C1530 1.409 . S
C1533 C1531 1.415 . S
C1534 H1524 0.930 . S
C1534 C1532 1.419 . S
C1534 C1535 1.362 . S
C1535 H1525 0.930 . S
C1535 C1528 1.409 . S
C1535 C1534 1.362 . S
H1536 C1542 0.930 . S
H1537 C1545 0.930 . S
H1538 C1546 0.930 . S
H1539 C1547 0.930 . S
H1540 C1550 0.930 . S
H1541 C1551 0.930 . S
C1542 H1536 0.930 . S
C1542 C1543 1.355 . S
C1542 C1544 1.415 . S
C1543 C1542 1.355 . S
C1543 C1545 1.419 . S
C1544 C1542 1.415 . S
C1544 C1549 1.425 . S
C1544 C1551 1.409 . S
C1545 H1537 0.930 . S
C1545 C1543 1.419 . S
C1545 C1546 1.362 . S
C1546 H1538 0.930 . S
C1546 C1545 1.362 . S
C1546 C1549 1.409 . S
C1547 H1539 0.930 . S
C1547 C1548 1.355 . S
C1547 C1549 1.415 . S
C1548 C1547 1.355 . S
C1548 C1550 1.419 . S
C1549 C1544 1.425 . S
C1549 C1546 1.409 . S
C1549 C1547 1.415 . S
C1550 H1540 0.930 . S
C1550 C1548 1.419 . S
C1550 C1551 1.362 . S
C1551 H1541 0.930 . S
C1551 C1544 1.409 . S
C1551 C1550 1.362 . S
H1552 C1558 0.930 . S
H1553 C1561 0.930 . S
H1554 C1562 0.930 . S
H1555 C1563 0.930 . S
H1556 C1566 0.930 . S
H1557 C1567 0.930 1_565 S
C1558 H1552 0.930 . S
C1558 C1559 1.355 . S
C1558 C1560 1.415 . S
C1559 C1558 1.355 . S
C1559 C1561 1.419 . S
C1560 C1558 1.415 . S
C1560 C1565 1.425 . S
C1560 C1567 1.409 . S
C1561 H1553 0.930 . S
C1561 C1559 1.419 . S
C1561 C1562 1.362 . S
C1562 H1554 0.930 . S
C1562 C1561 1.362 . S
C1562 C1565 1.409 . S
C1563 H1555 0.930 . S
C1563 C1564 1.355 . S
C1563 C1565 1.415 . S
C1564 C1563 1.355 . S
C1564 C1566 1.419 . S
C1565 C1560 1.425 . S
C1565 C1562 1.409 . S
C1565 C1563 1.415 . S
C1566 H1556 0.930 . S
C1566 C1564 1.419 . S
C1566 C1567 1.362 . S
C1567 H1557 0.930 1_545 S
C1567 C1560 1.409 . S
C1567 C1566 1.362 . S
H1568 C1574 0.930 . S
H1569 C1577 0.930 . S
H1570 C1578 0.930 . S
H1571 C1579 0.930 . S
H1572 C1582 0.930 . S
H1573 C1583 0.930 . S
C1574 H1568 0.930 . S
C1574 C1575 1.355 . S
C1574 C1576 1.415 . S
C1575 C1574 1.355 . S
C1575 C1577 1.419 . S
C1576 C1574 1.415 . S
C1576 C1581 1.425 . S
C1576 C1583 1.409 . S
C1577 H1569 0.930 . S
C1577 C1575 1.419 . S
C1577 C1578 1.362 . S
C1578 H1570 0.930 . S
C1578 C1577 1.362 . S
C1578 C1581 1.409 . S
C1579 H1571 0.930 . S
C1579 C1580 1.355 . S
C1579 C1581 1.415 . S
C1580 C1579 1.355 . S
C1580 C1582 1.419 . S
C1581 C1576 1.425 . S
C1581 C1578 1.409 . S
C1581 C1579 1.415 . S
C1582 H1572 0.930 . S
C1582 C1580 1.419 . S
C1582 C1583 1.362 . S
C1583 H1573 0.930 . S
C1583 C1576 1.409 . S
C1583 C1582 1.362 . S
H1584 C1590 0.930 . S
H1585 C1593 0.930 . S
H1586 C1594 0.930 . S
H1587 C1595 0.930 . S
H1588 C1598 0.930 . S
H1589 C1599 0.930 . S
C1590 H1584 0.930 . S
C1590 C1591 1.355 . S
C1590 C1592 1.415 . S
C1591 C1590 1.355 . S
C1591 C1593 1.419 . S
C1592 C1590 1.415 . S
C1592 C1597 1.425 . S
C1592 C1599 1.409 . S
C1593 H1585 0.930 . S
C1593 C1591 1.419 . S
C1593 C1594 1.362 . S
C1594 H1586 0.930 . S
C1594 C1593 1.362 . S
C1594 C1597 1.409 . S
C1595 H1587 0.930 . S
C1595 C1596 1.355 . S
C1595 C1597 1.415 . S
C1596 C1595 1.355 . S
C1596 C1598 1.419 . S
C1597 C1592 1.425 . S
C1597 C1594 1.409 . S
C1597 C1595 1.415 . S
C1598 H1588 0.930 . S
C1598 C1596 1.419 . S
C1598 C1599 1.362 . S
C1599 H1589 0.930 . S
C1599 C1592 1.409 . S
C1599 C1598 1.362 . S
H1600 C1606 0.930 . S
H1601 C1609 0.930 . S
H1602 C1610 0.930 . S
H1603 C1611 0.930 . S
H1604 C1614 0.930 . S
H1605 C1615 0.930 . S
C1606 H1600 0.930 . S
C1606 C1607 1.355 . S
C1606 C1608 1.415 . S
C1607 C1606 1.355 . S
C1607 C1609 1.419 . S
C1608 C1606 1.415 . S
C1608 C1613 1.425 . S
C1608 C1615 1.409 . S
C1609 H1601 0.930 . S
C1609 C1607 1.419 . S
C1609 C1610 1.362 . S
C1610 H1602 0.930 . S
C1610 C1609 1.362 . S
C1610 C1613 1.409 . S
C1611 H1603 0.930 . S
C1611 C1612 1.355 . S
C1611 C1613 1.415 . S
C1612 C1611 1.355 . S
C1612 C1614 1.419 . S
C1613 C1608 1.425 . S
C1613 C1610 1.409 . S
C1613 C1611 1.415 . S
C1614 H1604 0.930 . S
C1614 C1612 1.419 . S
C1614 C1615 1.362 . S
C1615 H1605 0.930 . S
C1615 C1608 1.409 . S
C1615 C1614 1.362 . S
H1616 C1622 0.930 . S
H1617 C1625 0.930 . S
H1618 C1626 0.930 . S
H1619 C1627 0.930 1_455 S
H1620 C1630 0.930 . S
H1621 C1631 0.930 . S
C1622 H1616 0.930 . S
C1622 C1623 1.355 . S
C1622 C1624 1.415 . S
C1623 C1622 1.355 . S
C1623 C1625 1.419 . S
C1624 C1622 1.415 . S
C1624 C1629 1.425 . S
C1624 C1631 1.409 . S
C1625 H1617 0.930 . S
C1625 C1623 1.419 . S
C1625 C1626 1.362 . S
C1626 H1618 0.930 . S
C1626 C1625 1.362 . S
C1626 C1629 1.409 . S
C1627 H1619 0.930 1_655 S
C1627 C1628 1.355 . S
C1627 C1629 1.415 . S
C1628 C1627 1.355 . S
C1628 C1630 1.419 . S
C1629 C1624 1.425 . S
C1629 C1626 1.409 . S
C1629 C1627 1.415 . S
C1630 H1620 0.930 . S
C1630 C1628 1.419 . S
C1630 C1631 1.362 . S
C1631 H1621 0.930 . S
C1631 C1624 1.409 . S
C1631 C1630 1.362 . S
H1632 C1638 0.930 . S
H1633 C1641 0.930 . S
H1634 C1642 0.930 . S
H1635 C1643 0.930 . S
H1636 C1646 0.930 . S
H1637 C1647 0.930 . S
C1638 H1632 0.930 . S
C1638 C1639 1.355 . S
C1638 C1640 1.415 . S
C1639 C1638 1.355 . S
C1639 C1641 1.419 . S
C1640 C1638 1.415 . S
C1640 C1645 1.425 . S
C1640 C1647 1.409 . S
C1641 H1633 0.930 . S
C1641 C1639 1.419 . S
C1641 C1642 1.362 . S
C1642 H1634 0.930 . S
C1642 C1641 1.362 . S
C1642 C1645 1.409 . S
C1643 H1635 0.930 . S
C1643 C1644 1.355 . S
C1643 C1645 1.415 . S
C1644 C1643 1.355 . S
C1644 C1646 1.419 . S
C1645 C1640 1.425 . S
C1645 C1642 1.409 . S
C1645 C1643 1.415 . S
C1646 H1636 0.930 . S
C1646 C1644 1.419 . S
C1646 C1647 1.362 . S
C1647 H1637 0.930 . S
C1647 C1640 1.409 . S
C1647 C1646 1.362 . S
H1648 C1654 0.930 . S
H1649 C1657 0.930 . S
H1650 C1658 0.930 . S
H1651 C1659 0.930 . S
H1652 C1662 0.930 . S
H1653 C1663 0.930 . S
C1654 H1648 0.930 . S
C1654 C1655 1.355 . S
C1654 C1656 1.415 . S
C1655 C1654 1.355 . S
C1655 C1657 1.419 . S
C1656 C1654 1.415 . S
C1656 C1661 1.425 . S
C1656 C1663 1.409 . S
C1657 H1649 0.930 . S
C1657 C1655 1.419 . S
C1657 C1658 1.362 . S
C1658 H1650 0.930 . S
C1658 C1657 1.362 . S
C1658 C1661 1.409 . S
C1659 H1651 0.930 . S
C1659 C1660 1.355 . S
C1659 C1661 1.415 . S
C1660 C1659 1.355 . S
C1660 C1662 1.419 . S
C1661 C1656 1.425 . S
C1661 C1658 1.409 . S
C1661 C1659 1.415 . S
C1662 H1652 0.930 . S
C1662 C1660 1.419 . S
C1662 C1663 1.362 . S
C1663 H1653 0.930 . S
C1663 C1656 1.409 . S
C1663 C1662 1.362 . S
H1664 C1670 0.930 . S
H1665 C1673 0.930 . S
H1666 C1674 0.930 . S
H1667 C1675 0.930 . S
H1668 C1678 0.930 . S
H1669 C1679 0.930 . S
C1670 H1664 0.930 . S
C1670 C1671 1.355 . S
C1670 C1672 1.415 . S
C1671 C1670 1.355 . S
C1671 C1673 1.419 . S
C1672 C1670 1.415 . S
C1672 C1677 1.425 . S
C1672 C1679 1.409 . S
C1673 H1665 0.930 . S
C1673 C1671 1.419 . S
C1673 C1674 1.362 . S
C1674 H1666 0.930 . S
C1674 C1673 1.362 . S
C1674 C1677 1.409 . S
C1675 H1667 0.930 . S
C1675 C1676 1.355 . S
C1675 C1677 1.415 . S
C1676 C1675 1.355 . S
C1676 C1678 1.419 . S
C1677 C1672 1.425 . S
C1677 C1674 1.409 . S
C1677 C1675 1.415 . S
C1678 H1668 0.930 . S
C1678 C1676 1.419 . S
C1678 C1679 1.362 . S
C1679 H1669 0.930 . S
C1679 C1672 1.409 . S
C1679 C1678 1.362 . S
H1680 C1686 0.930 . S
H1681 C1689 0.930 . S
H1682 C1690 0.930 . S
H1683 C1691 0.930 . S
H1684 C1694 0.930 . S
H1685 C1695 0.930 . S
C1686 H1680 0.930 . S
C1686 C1687 1.355 . S
C1686 C1688 1.415 . S
C1687 C1686 1.355 . S
C1687 C1689 1.419 . S
C1688 C1686 1.415 . S
C1688 C1693 1.425 . S
C1688 C1695 1.409 . S
C1689 H1681 0.930 . S
C1689 C1687 1.419 . S
C1689 C1690 1.362 . S
C1690 H1682 0.930 . S
C1690 C1689 1.362 . S
C1690 C1693 1.409 . S
C1691 H1683 0.930 . S
C1691 C1692 1.355 . S
C1691 C1693 1.415 . S
C1692 C1691 1.355 . S
C1692 C1694 1.419 . S
C1693 C1688 1.425 . S
C1693 C1690 1.409 . S
C1693 C1691 1.415 . S
C1694 H1684 0.930 . S
C1694 C1692 1.419 . S
C1694 C1695 1.362 . S
C1695 H1685 0.930 . S
C1695 C1688 1.409 . S
C1695 C1694 1.362 . S
H1696 C1702 0.930 . S
H1697 C1705 0.930 . S
H1698 C1706 0.930 . S
H1699 C1707 0.930 . S
H1700 C1710 0.930 . S
H1701 C1711 0.930 . S
C1702 H1696 0.930 . S
C1702 C1703 1.355 . S
C1702 C1704 1.415 . S
C1703 C1702 1.355 . S
C1703 C1705 1.419 . S
C1704 C1702 1.415 . S
C1704 C1709 1.425 . S
C1704 C1711 1.409 . S
C1705 H1697 0.930 . S
C1705 C1703 1.419 . S
C1705 C1706 1.362 . S
C1706 H1698 0.930 . S
C1706 C1705 1.362 . S
C1706 C1709 1.409 . S
C1707 H1699 0.930 . S
C1707 C1708 1.355 . S
C1707 C1709 1.415 . S
C1708 C1707 1.355 . S
C1708 C1710 1.419 . S
C1709 C1704 1.425 . S
C1709 C1706 1.409 . S
C1709 C1707 1.415 . S
C1710 H1700 0.930 . S
C1710 C1708 1.419 . S
C1710 C1711 1.362 . S
C1711 H1701 0.930 . S
C1711 C1704 1.409 . S
C1711 C1710 1.362 . S
H1712 C1718 0.930 . S
H1713 C1721 0.930 . S
H1714 C1722 0.930 . S
H1715 C1723 0.930 . S
H1716 C1726 0.930 . S
H1717 C1727 0.930 . S
C1718 H1712 0.930 . S
C1718 C1719 1.355 . S
C1718 C1720 1.415 . S
C1719 C1718 1.355 . S
C1719 C1721 1.419 . S
C1720 C1718 1.415 . S
C1720 C1725 1.425 . S
C1720 C1727 1.409 . S
C1721 H1713 0.930 . S
C1721 C1719 1.419 . S
C1721 C1722 1.362 . S
C1722 H1714 0.930 . S
C1722 C1721 1.362 . S
C1722 C1725 1.409 . S
C1723 H1715 0.930 . S
C1723 C1724 1.355 . S
C1723 C1725 1.415 . S
C1724 C1723 1.355 . S
C1724 C1726 1.419 . S
C1725 C1720 1.425 . S
C1725 C1722 1.409 . S
C1725 C1723 1.415 . S
C1726 H1716 0.930 . S
C1726 C1724 1.419 . S
C1726 C1727 1.362 . S
C1727 H1717 0.930 . S
C1727 C1720 1.409 . S
C1727 C1726 1.362 . S
H1728 C1734 0.930 . S
H1729 C1737 0.930 . S
H1730 C1738 0.930 . S
H1731 C1739 0.930 . S
H1732 C1742 0.930 . S
H1733 C1743 0.930 . S
C1734 H1728 0.930 . S
C1734 C1735 1.355 . S
C1734 C1736 1.415 . S
C1735 C1734 1.355 . S
C1735 C1737 1.419 . S
C1736 C1734 1.415 . S
C1736 C1741 1.425 . S
C1736 C1743 1.409 . S
C1737 H1729 0.930 . S
C1737 C1735 1.419 . S
C1737 C1738 1.362 . S
C1738 H1730 0.930 . S
C1738 C1737 1.362 . S
C1738 C1741 1.409 . S
C1739 H1731 0.930 . S
C1739 C1740 1.355 . S
C1739 C1741 1.415 . S
C1740 C1739 1.355 . S
C1740 C1742 1.419 . S
C1741 C1736 1.425 . S
C1741 C1738 1.409 . S
C1741 C1739 1.415 . S
C1742 H1732 0.930 . S
C1742 C1740 1.419 . S
C1742 C1743 1.362 . S
C1743 H1733 0.930 . S
C1743 C1736 1.409 . S
C1743 C1742 1.362 . S
H1744 C1750 0.930 . S
H1745 C1753 0.930 . S
H1746 C1754 0.930 . S
H1747 C1755 0.930 . S
H1748 C1758 0.930 . S
H1749 C1759 0.930 . S
C1750 H1744 0.930 . S
C1750 C1751 1.355 . S
C1750 C1752 1.415 . S
C1751 C1750 1.355 . S
C1751 C1753 1.419 . S
C1752 C1750 1.415 . S
C1752 C1757 1.425 . S
C1752 C1759 1.409 . S
C1753 H1745 0.930 . S
C1753 C1751 1.419 . S
C1753 C1754 1.362 . S
C1754 H1746 0.930 . S
C1754 C1753 1.362 . S
C1754 C1757 1.409 . S
C1755 H1747 0.930 . S
C1755 C1756 1.355 . S
C1755 C1757 1.415 . S
C1756 C1755 1.355 . S
C1756 C1758 1.419 . S
C1757 C1752 1.425 . S
C1757 C1754 1.409 . S
C1757 C1755 1.415 . S
C1758 H1748 0.930 . S
C1758 C1756 1.419 . S
C1758 C1759 1.362 . S
C1759 H1749 0.930 . S
C1759 C1752 1.409 . S
C1759 C1758 1.362 . S
H1760 C1766 0.930 . S
H1761 C1769 0.930 . S
H1762 C1770 0.930 . S
H1763 C1771 0.930 . S
H1764 C1774 0.930 . S
H1765 C1775 0.930 . S
C1766 H1760 0.930 . S
C1766 C1767 1.355 . S
C1766 C1768 1.415 . S
C1767 C1766 1.355 . S
C1767 C1769 1.419 . S
C1768 C1766 1.415 . S
C1768 C1773 1.425 . S
C1768 C1775 1.409 . S
C1769 H1761 0.930 . S
C1769 C1767 1.419 . S
C1769 C1770 1.362 . S
C1770 H1762 0.930 . S
C1770 C1769 1.362 . S
C1770 C1773 1.409 . S
C1771 H1763 0.930 . S
C1771 C1772 1.355 . S
C1771 C1773 1.415 . S
C1772 C1771 1.355 . S
C1772 C1774 1.419 . S
C1773 C1768 1.425 . S
C1773 C1770 1.409 . S
C1773 C1771 1.415 . S
C1774 H1764 0.930 . S
C1774 C1772 1.419 . S
C1774 C1775 1.362 . S
C1775 H1765 0.930 . S
C1775 C1768 1.409 . S
C1775 C1774 1.362 . S
H1776 C1782 0.930 . S
H1777 C1785 0.930 . S
H1778 C1786 0.930 . S
H1779 C1787 0.930 . S
H1780 C1790 0.934 . S
H1781 C1791 0.930 . S
C1782 H1776 0.930 . S
C1782 C1783 1.355 . S
C1782 C1784 1.415 . S
C1783 C1782 1.355 . S
C1783 C1785 1.419 . S
C1784 C1782 1.415 . S
C1784 C1789 1.425 1_556 S
C1784 C1791 1.409 . S
C1785 H1777 0.930 . S
C1785 C1783 1.419 . S
C1785 C1786 1.362 1_556 S
C1786 H1778 0.930 . S
C1786 C1785 1.362 1_554 S
C1786 C1789 1.409 . S
C1787 H1779 0.930 . S
C1787 C1788 1.355 . S
C1787 C1789 1.415 . S
C1788 C1787 1.355 . S
C1788 C1790 1.419 . S
C1789 C1784 1.425 1_554 S
C1789 C1786 1.409 . S
C1789 C1787 1.415 . S
C1790 H1780 0.934 . S
C1790 C1788 1.419 . S
C1790 C1791 1.362 1_554 S
C1791 H1781 0.930 . S
C1791 C1784 1.409 . S
C1791 C1790 1.362 1_556 S
H1792 C1798 0.930 . S
H1793 C1801 0.930 . S
H1794 C1802 0.930 . S
H1795 C1803 0.930 . S
H1796 C1806 0.930 . S
H1797 C1807 0.930 . S
C1798 H1792 0.930 . S
C1798 C1799 1.355 . S
C1798 C1800 1.415 . S
C1799 C1798 1.355 . S
C1799 C1801 1.419 . S
C1800 C1798 1.415 . S
C1800 C1805 1.425 . S
C1800 C1807 1.409 . S
C1801 H1793 0.930 . S
C1801 C1799 1.419 . S
C1801 C1802 1.362 . S
C1802 H1794 0.930 . S
C1802 C1801 1.362 . S
C1802 C1805 1.409 . S
C1803 H1795 0.930 . S
C1803 C1804 1.355 . S
C1803 C1805 1.415 . S
C1804 C1803 1.355 . S
C1804 C1806 1.419 . S
C1805 C1800 1.425 . S
C1805 C1802 1.409 . S
C1805 C1803 1.415 . S
C1806 H1796 0.930 . S
C1806 C1804 1.419 . S
C1806 C1807 1.362 . S
C1807 H1797 0.930 . S
C1807 C1800 1.409 . S
C1807 C1806 1.362 . S
H1808 C1814 0.930 . S
H1809 C1817 0.930 . S
H1810 C1818 0.930 . S
H1811 C1819 0.930 . S
H1812 C1822 0.930 . S
H1813 C1823 0.930 . S
C1814 H1808 0.930 . S
C1814 C1815 1.355 . S
C1814 C1816 1.415 . S
C1815 C1814 1.355 . S
C1815 C1817 1.419 . S
C1816 C1814 1.415 . S
C1816 C1821 1.425 . S
C1816 C1823 1.409 . S
C1817 H1809 0.930 . S
C1817 C1815 1.419 . S
C1817 C1818 1.362 . S
C1818 H1810 0.930 . S
C1818 C1817 1.362 . S
C1818 C1821 1.409 . S
C1819 H1811 0.930 . S
C1819 C1820 1.355 . S
C1819 C1821 1.415 . S
C1820 C1819 1.355 . S
C1820 C1822 1.419 . S
C1821 C1816 1.425 . S
C1821 C1818 1.409 . S
C1821 C1819 1.415 . S
C1822 H1812 0.930 . S
C1822 C1820 1.419 . S
C1822 C1823 1.362 . S
C1823 H1813 0.930 . S
C1823 C1816 1.409 . S
C1823 C1822 1.362 . S
H1824 C1830 0.930 . S
H1825 C1833 0.930 . S
H1826 C1834 0.930 1_655 S
H1827 C1835 0.930 . S
H1828 C1838 0.931 . S
H1829 C1839 0.930 . S
C1830 H1824 0.930 . S
C1830 C1831 1.355 . S
C1830 C1832 1.415 . S
C1831 C1830 1.355 . S
C1831 C1833 1.419 . S
C1832 C1830 1.415 . S
C1832 C1837 1.439 . S
C1832 C1839 1.409 . S
C1833 H1825 0.930 . S
C1833 C1831 1.419 . S
C1833 C1834 1.362 . S
C1834 H1826 0.930 1_455 S
C1834 C1833 1.362 . S
C1834 C1837 1.406 . S
C1835 H1827 0.930 . S
C1835 C1836 1.355 . S
C1835 C1837 1.405 1_655 S
C1836 C1835 1.355 . S
C1836 C1838 1.392 1_655 S
C1837 C1832 1.439 . S
C1837 C1834 1.406 . S
C1837 C1835 1.405 1_455 S
C1838 H1828 0.931 . S
C1838 C1836 1.392 1_455 S
C1838 C1839 1.382 . S
C1839 H1829 0.930 . S
C1839 C1832 1.409 . S
C1839 C1838 1.382 . S
H1840 C1846 0.930 . S
H1841 C1849 0.930 . S
H1842 C1850 0.930 . S
H1843 C1851 0.930 . S
H1844 C1854 0.930 1_655 S
H1845 C1855 0.930 . S
C1846 H1840 0.930 . S
C1846 C1847 1.355 . S
C1846 C1848 1.415 . S
C1847 C1846 1.355 . S
C1847 C1849 1.419 1_655 S
C1848 C1846 1.415 . S
C1848 C1853 1.425 1_655 S
C1848 C1855 1.409 . S
C1849 H1841 0.930 . S
C1849 C1847 1.419 1_455 S
C1849 C1850 1.362 . S
C1850 H1842 0.930 . S
C1850 C1849 1.362 . S
C1850 C1853 1.409 . S
C1851 H1843 0.930 . S
C1851 C1852 1.355 . S
C1851 C1853 1.415 . S
C1852 C1851 1.355 . S
C1852 C1854 1.419 . S
C1853 C1848 1.425 1_455 S
C1853 C1850 1.409 . S
C1853 C1851 1.415 . S
C1854 H1844 0.930 1_455 S
C1854 C1852 1.419 . S
C1854 C1855 1.362 1_455 S
C1855 H1845 0.930 . S
C1855 C1848 1.409 . S
C1855 C1854 1.362 1_655 S
H1856 C1862 0.930 . S
H1857 C1865 0.930 . S
H1858 C1866 0.930 . S
H1859 C1867 0.930 . S
H1860 C1870 0.930 . S
H1861 C1871 0.930 . S
C1862 H1856 0.930 . S
C1862 C1863 1.355 . S
C1862 C1864 1.415 . S
C1863 C1862 1.355 . S
C1863 C1865 1.419 . S
C1864 C1862 1.415 . S
C1864 C1869 1.425 . S
C1864 C1871 1.409 . S
C1865 H1857 0.930 . S
C1865 C1863 1.419 . S
C1865 C1866 1.362 . S
C1866 H1858 0.930 . S
C1866 C1865 1.362 . S
C1866 C1869 1.409 . S
C1867 H1859 0.930 . S
C1867 C1868 1.355 . S
C1867 C1869 1.415 . S
C1868 C1867 1.355 . S
C1868 C1870 1.419 . S
C1869 C1864 1.425 . S
C1869 C1866 1.409 . S
C1869 C1867 1.415 . S
C1870 H1860 0.930 . S
C1870 C1868 1.419 . S
C1870 C1871 1.362 . S
C1871 H1861 0.930 . S
C1871 C1864 1.409 . S
C1871 C1870 1.362 . S
H1872 C1878 0.930 . S
H1873 C1881 0.930 . S
H1874 C1882 0.930 . S
H1875 C1883 0.930 . S
H1876 C1886 0.930 . S
H1877 C1887 0.930 . S
C1878 H1872 0.930 . S
C1878 C1879 1.355 . S
C1878 C1880 1.415 . S
C1879 C1878 1.355 . S
C1879 C1881 1.419 . S
C1880 C1878 1.415 . S
C1880 C1885 1.425 . S
C1880 C1887 1.409 . S
C1881 H1873 0.930 . S
C1881 C1879 1.419 . S
C1881 C1882 1.362 . S
C1882 H1874 0.930 . S
C1882 C1881 1.362 . S
C1882 C1885 1.409 . S
C1883 H1875 0.930 . S
C1883 C1884 1.355 . S
C1883 C1885 1.415 . S
C1884 C1883 1.355 . S
C1884 C1886 1.419 . S
C1885 C1880 1.425 . S
C1885 C1882 1.409 . S
C1885 C1883 1.415 . S
C1886 H1876 0.930 . S
C1886 C1884 1.419 . S
C1886 C1887 1.362 . S
C1887 H1877 0.930 . S
C1887 C1880 1.409 . S
C1887 C1886 1.362 . S
H1888 C1894 0.930 . S
H1889 C1897 0.930 . S
H1890 C1898 0.930 . S
H1891 C1899 0.930 . S
H1892 C1902 0.930 . S
H1893 C1903 0.930 . S
C1894 H1888 0.930 . S
C1894 C1895 1.355 . S
C1894 C1896 1.415 . S
C1895 C1894 1.355 . S
C1895 C1897 1.419 . S
C1896 C1894 1.415 . S
C1896 C1901 1.425 . S
C1896 C1903 1.409 . S
C1897 H1889 0.930 . S
C1897 C1895 1.419 . S
C1897 C1898 1.362 . S
C1898 H1890 0.930 . S
C1898 C1897 1.362 . S
C1898 C1901 1.409 . S
C1899 H1891 0.930 . S
C1899 C1900 1.355 . S
C1899 C1901 1.415 . S
C1900 C1899 1.355 . S
C1900 C1902 1.419 . S
C1901 C1896 1.425 . S
C1901 C1898 1.409 . S
C1901 C1899 1.415 . S
C1902 H1892 0.930 . S
C1902 C1900 1.419 . S
C1902 C1903 1.362 . S
C1903 H1893 0.930 . S
C1903 C1896 1.409 . S
C1903 C1902 1.362 . S
H1904 C1910 0.930 . S
H1905 C1913 0.930 . S
H1906 C1914 0.930 . S
H1907 C1915 0.930 . S
H1908 C1918 0.930 . S
H1909 C1919 0.930 . S
C1910 H1904 0.930 . S
C1910 C1911 1.355 . S
C1910 C1912 1.415 . S
C1911 C1910 1.355 . S
C1911 C1913 1.419 . S
C1912 C1910 1.415 . S
C1912 C1917 1.425 . S
C1912 C1919 1.409 . S
C1913 H1905 0.930 . S
C1913 C1911 1.419 . S
C1913 C1914 1.362 . S
C1914 H1906 0.930 . S
C1914 C1913 1.362 . S
C1914 C1917 1.409 . S
C1915 H1907 0.930 . S
C1915 C1916 1.355 . S
C1915 C1917 1.415 . S
C1916 C1915 1.355 . S
C1916 C1918 1.419 . S
C1917 C1912 1.425 . S
C1917 C1914 1.409 . S
C1917 C1915 1.415 . S
C1918 H1908 0.930 . S
C1918 C1916 1.419 . S
C1918 C1919 1.362 . S
C1919 H1909 0.930 . S
C1919 C1912 1.409 . S
C1919 C1918 1.362 . S
H1920 C1926 0.930 . S
H1921 C1929 0.930 . S
H1922 C1930 0.930 . S
H1923 C1931 0.930 . S
H1924 C1934 0.930 . S
H1925 C1935 0.930 . S
C1926 H1920 0.930 . S
C1926 C1927 1.355 . S
C1926 C1928 1.415 . S
C1927 C1926 1.355 . S
C1927 C1929 1.419 . S
C1928 C1926 1.415 . S
C1928 C1933 1.425 . S
C1928 C1935 1.409 . S
C1929 H1921 0.930 . S
C1929 C1927 1.419 . S
C1929 C1930 1.362 . S
C1930 H1922 0.930 . S
C1930 C1929 1.362 . S
C1930 C1933 1.409 . S
C1931 H1923 0.930 . S
C1931 C1932 1.355 . S
C1931 C1933 1.415 . S
C1932 C1931 1.355 . S
C1932 C1934 1.419 . S
C1933 C1928 1.425 . S
C1933 C1930 1.409 . S
C1933 C1931 1.415 . S
C1934 H1924 0.930 . S
C1934 C1932 1.419 . S
C1934 C1935 1.362 . S
C1935 H1925 0.930 . S
C1935 C1928 1.409 . S
C1935 C1934 1.362 . S
H1936 C1942 0.930 . S
H1937 C1945 0.930 . S
H1938 C1946 0.930 . S
H1939 C1947 0.930 . S
H1940 C1950 0.930 . S
H1941 C1951 0.930 . S
C1942 H1936 0.930 . S
C1942 C1943 1.355 . S
C1942 C1944 1.415 . S
C1943 C1942 1.355 . S
C1943 C1945 1.419 . S
C1944 C1942 1.415 . S
C1944 C1949 1.425 . S
C1944 C1951 1.409 . S
C1945 H1937 0.930 . S
C1945 C1943 1.419 . S
C1945 C1946 1.362 . S
C1946 H1938 0.930 . S
C1946 C1945 1.362 . S
C1946 C1949 1.409 . S
C1947 H1939 0.930 . S
C1947 C1948 1.355 . S
C1947 C1949 1.415 . S
C1948 C1947 1.355 . S
C1948 C1950 1.419 . S
C1949 C1944 1.425 . S
C1949 C1946 1.409 . S
C1949 C1947 1.415 . S
C1950 H1940 0.930 . S
C1950 C1948 1.419 . S
C1950 C1951 1.362 . S
C1951 H1941 0.930 . S
C1951 C1944 1.409 . S
C1951 C1950 1.362 . S
H1952 C1958 0.930 . S
H1953 C1961 0.930 . S
H1954 C1962 0.930 . S
H1955 C1963 0.930 . S
H1956 C1966 0.930 . S
H1957 C1967 0.930 . S
C1958 H1952 0.930 . S
C1958 C1959 1.355 . S
C1958 C1960 1.415 . S
C1959 C1958 1.355 . S
C1959 C1961 1.419 . S
C1960 C1958 1.415 . S
C1960 C1965 1.425 . S
C1960 C1967 1.409 . S
C1961 H1953 0.930 . S
C1961 C1959 1.419 . S
C1961 C1962 1.362 . S
C1962 H1954 0.930 . S
C1962 C1961 1.362 . S
C1962 C1965 1.409 . S
C1963 H1955 0.930 . S
C1963 C1964 1.355 . S
C1963 C1965 1.415 . S
C1964 C1963 1.355 . S
C1964 C1966 1.419 . S
C1965 C1960 1.425 . S
C1965 C1962 1.409 . S
C1965 C1963 1.415 . S
C1966 H1956 0.930 . S
C1966 C1964 1.419 . S
C1966 C1967 1.362 . S
C1967 H1957 0.930 . S
C1967 C1960 1.409 . S
C1967 C1966 1.362 . S
H1968 C1974 0.930 . S
H1969 C1977 0.930 . S
H1970 C1978 0.930 . S
H1971 C1979 0.930 . S
H1972 C1982 0.930 . S
H1973 C1983 0.930 . S
C1974 H1968 0.930 . S
C1974 C1975 1.355 . S
C1974 C1976 1.415 . S
C1975 C1974 1.355 . S
C1975 C1977 1.419 . S
C1976 C1974 1.415 . S
C1976 C1981 1.425 . S
C1976 C1983 1.409 . S
C1977 H1969 0.930 . S
C1977 C1975 1.419 . S
C1977 C1978 1.362 . S
C1978 H1970 0.930 . S
C1978 C1977 1.362 . S
C1978 C1981 1.409 . S
C1979 H1971 0.930 . S
C1979 C1980 1.355 . S
C1979 C1981 1.415 . S
C1980 C1979 1.355 . S
C1980 C1982 1.419 . S
C1981 C1976 1.425 . S
C1981 C1978 1.409 . S
C1981 C1979 1.415 . S
C1982 H1972 0.930 . S
C1982 C1980 1.419 . S
C1982 C1983 1.362 . S
C1983 H1973 0.930 . S
C1983 C1976 1.409 . S
C1983 C1982 1.362 . S
H1984 C1990 0.930 . S
H1985 C1993 0.930 . S
H1986 C1994 0.930 . S
H1987 C1995 0.930 . S
H1988 C1998 0.930 . S
H1989 C1999 0.930 . S
C1990 H1984 0.930 . S
C1990 C1991 1.355 . S
C1990 C1992 1.415 . S
C1991 C1990 1.355 . S
C1991 C1993 1.419 . S
C1992 C1990 1.415 . S
C1992 C1997 1.425 . S
C1992 C1999 1.409 . S
C1993 H1985 0.930 . S
C1993 C1991 1.419 . S
C1993 C1994 1.362 . S
C1994 H1986 0.930 . S
C1994 C1993 1.362 . S
C1994 C1997 1.409 . S
C1995 H1987 0.930 . S
C1995 C1996 1.355 . S
C1995 C1997 1.415 . S
C1996 C1995 1.355 . S
C1996 C1998 1.419 . S
C1997 C1992 1.425 . S
C1997 C1994 1.409 . S
C1997 C1995 1.415 . S
C1998 H1988 0.930 . S
C1998 C1996 1.419 . S
C1998 C1999 1.362 . S
C1999 H1989 0.930 . S
C1999 C1992 1.409 . S
C1999 C1998 1.362 . S
H2000 C2006 0.930 . S
H2001 C2009 0.930 . S
H2002 C2010 0.930 . S
H2003 C2011 0.930 . S
H2004 C2014 0.930 . S
H2005 C2015 0.930 . S
C2006 H2000 0.930 . S
C2006 C2007 1.355 . S
C2006 C2008 1.415 . S
C2007 C2006 1.355 . S
C2007 C2009 1.419 . S
C2008 C2006 1.415 . S
C2008 C2013 1.425 . S
C2008 C2015 1.409 . S
C2009 H2001 0.930 . S
C2009 C2007 1.419 . S
C2009 C2010 1.362 . S
C2010 H2002 0.930 . S
C2010 C2009 1.362 . S
C2010 C2013 1.409 . S
C2011 H2003 0.930 . S
C2011 C2012 1.355 . S
C2011 C2013 1.415 . S
C2012 C2011 1.355 . S
C2012 C2014 1.419 . S
C2013 C2008 1.425 . S
C2013 C2010 1.409 . S
C2013 C2011 1.415 . S
C2014 H2004 0.930 . S
C2014 C2012 1.419 . S
C2014 C2015 1.362 . S
C2015 H2005 0.930 . S
C2015 C2008 1.409 . S
C2015 C2014 1.362 . S
H2016 C2022 0.930 . S
H2017 C2025 0.930 . S
H2018 C2026 0.930 . S
H2019 C2027 0.930 . S
H2020 C2030 0.930 . S
H2021 C2031 0.930 . S
C2022 H2016 0.930 . S
C2022 C2023 1.355 . S
C2022 C2024 1.415 . S
C2023 C2022 1.355 . S
C2023 C2025 1.419 . S
C2024 C2022 1.415 . S
C2024 C2029 1.425 . S
C2024 C2031 1.409 . S
C2025 H2017 0.930 . S
C2025 C2023 1.419 . S
C2025 C2026 1.362 . S
C2026 H2018 0.930 . S
C2026 C2025 1.362 . S
C2026 C2029 1.409 . S
C2027 H2019 0.930 . S
C2027 C2028 1.355 . S
C2027 C2029 1.415 . S
C2028 C2027 1.355 . S
C2028 C2030 1.419 . S
C2029 C2024 1.425 . S
C2029 C2026 1.409 . S
C2029 C2027 1.415 . S
C2030 H2020 0.930 . S
C2030 C2028 1.419 . S
C2030 C2031 1.362 . S
C2031 H2021 0.930 . S
C2031 C2024 1.409 . S
C2031 C2030 1.362 . S
H2032 C2038 0.930 . S
H2033 C2041 0.930 . S
H2034 C2042 0.930 . S
H2035 C2043 0.930 . S
H2036 C2046 0.930 . S
H2037 C2047 0.930 . S
C2038 H2032 0.930 . S
C2038 C2039 1.355 . S
C2038 C2040 1.415 . S
C2039 C2038 1.355 . S
C2039 C2041 1.419 . S
C2040 C2038 1.415 . S
C2040 C2045 1.425 . S
C2040 C2047 1.409 . S
C2041 H2033 0.930 . S
C2041 C2039 1.419 . S
C2041 C2042 1.362 . S
C2042 H2034 0.930 . S
C2042 C2041 1.362 . S
C2042 C2045 1.409 . S
C2043 H2035 0.930 . S
C2043 C2044 1.355 . S
C2043 C2045 1.415 . S
C2044 C2043 1.355 . S
C2044 C2046 1.419 . S
C2045 C2040 1.425 . S
C2045 C2042 1.409 . S
C2045 C2043 1.415 . S
C2046 H2036 0.930 . S
C2046 C2044 1.419 . S
C2046 C2047 1.362 . S
C2047 H2037 0.930 . S
C2047 C2040 1.409 . S
C2047 C2046 1.362 . S
H2048 C2054 0.930 . S
H2049 C2057 0.930 . S
H2050 C2058 0.930 1_545 S
H2051 C2059 0.930 . S
H2052 C2062 0.930 . S
H2053 C2063 0.930 . S
C2054 H2048 0.930 . S
C2054 C2055 1.355 . S
C2054 C2056 1.415 . S
C2055 C2054 1.355 . S
C2055 C2057 1.419 . S
C2056 C2054 1.415 . S
C2056 C2061 1.425 . S
C2056 C2063 1.409 . S
C2057 H2049 0.930 . S
C2057 C2055 1.419 . S
C2057 C2058 1.362 . S
C2058 H2050 0.930 1_565 S
C2058 C2057 1.362 . S
C2058 C2061 1.409 . S
C2059 H2051 0.930 . S
C2059 C2060 1.355 . S
C2059 C2061 1.415 1_545 S
C2060 C2059 1.355 . S
C2060 C2062 1.419 1_545 S
C2061 C2056 1.425 . S
C2061 C2058 1.409 . S
C2061 C2059 1.415 1_565 S
C2062 H2052 0.930 . S
C2062 C2060 1.419 1_565 S
C2062 C2063 1.362 . S
C2063 H2053 0.930 . S
C2063 C2056 1.409 . S
C2063 C2062 1.362 . S
H2064 C2070 0.930 . S
H2065 C2073 0.930 . S
H2066 C2074 0.930 . S
H2067 C2075 0.930 . S
H2068 C2078 0.930 . S
H2069 C2079 0.930 . S
C2070 H2064 0.930 . S
C2070 C2071 1.355 . S
C2070 C2072 1.415 . S
C2071 C2070 1.355 . S
C2071 C2073 1.419 . S
C2072 C2070 1.415 . S
C2072 C2077 1.425 . S
C2072 C2079 1.409 . S
C2073 H2065 0.930 . S
C2073 C2071 1.419 . S
C2073 C2074 1.362 . S
C2074 H2066 0.930 . S
C2074 C2073 1.362 . S
C2074 C2077 1.409 . S
C2075 H2067 0.930 . S
C2075 C2076 1.355 . S
C2075 C2077 1.415 . S
C2076 C2075 1.355 . S
C2076 C2078 1.419 . S
C2077 C2072 1.425 . S
C2077 C2074 1.409 . S
C2077 C2075 1.415 . S
C2078 H2068 0.930 . S
C2078 C2076 1.419 . S
C2078 C2079 1.362 . S
C2079 H2069 0.930 . S
C2079 C2072 1.409 . S
C2079 C2078 1.362 . S
H2080 C2086 0.930 . S
H2081 C2089 0.930 . S
H2082 C2090 0.930 . S
H2083 C2091 0.930 . S
H2084 C2094 0.930 . S
H2085 C2095 0.930 . S
C2086 H2080 0.930 . S
C2086 C2087 1.355 . S
C2086 C2088 1.415 . S
C2087 C2086 1.355 . S
C2087 C2089 1.419 . S
C2088 C2086 1.415 . S
C2088 C2093 1.425 . S
C2088 C2095 1.409 . S
C2089 H2081 0.930 . S
C2089 C2087 1.419 . S
C2089 C2090 1.362 . S
C2090 H2082 0.930 . S
C2090 C2089 1.362 . S
C2090 C2093 1.409 . S
C2091 H2083 0.930 . S
C2091 C2092 1.355 . S
C2091 C2093 1.415 . S
C2092 C2091 1.355 . S
C2092 C2094 1.419 . S
C2093 C2088 1.425 . S
C2093 C2090 1.409 . S
C2093 C2091 1.415 . S
C2094 H2084 0.930 . S
C2094 C2092 1.419 . S
C2094 C2095 1.362 . S
C2095 H2085 0.930 . S
C2095 C2088 1.409 . S
C2095 C2094 1.362 . S
H2096 C2102 0.930 . S
H2097 C2105 0.930 . S
H2098 C2106 0.930 . S
H2099 C2107 0.930 . S
H2100 C2110 0.930 . S
H2101 C2111 0.930 . S
C2102 H2096 0.930 . S
C2102 C2103 1.355 . S
C2102 C2104 1.415 . S
C2103 C2102 1.355 . S
C2103 C2105 1.419 . S
C2104 C2102 1.415 . S
C2104 C2109 1.425 . S
C2104 C2111 1.409 . S
C2105 H2097 0.930 . S
C2105 C2103 1.419 . S
C2105 C2106 1.362 . S
C2106 H2098 0.930 . S
C2106 C2105 1.362 . S
C2106 C2109 1.409 . S
C2107 H2099 0.930 . S
C2107 C2108 1.355 . S
C2107 C2109 1.415 . S
C2108 C2107 1.355 . S
C2108 C2110 1.419 . S
C2109 C2104 1.425 . S
C2109 C2106 1.409 . S
C2109 C2107 1.415 . S
C2110 H2100 0.930 . S
C2110 C2108 1.419 . S
C2110 C2111 1.362 . S
C2111 H2101 0.930 . S
C2111 C2104 1.409 . S
C2111 C2110 1.362 . S
H2112 C2118 0.930 . S
H2113 C2121 0.930 . S
H2114 C2122 0.930 . S
H2115 C2123 0.930 . S
H2116 C2126 0.930 1_565 S
H2117 C2127 0.930 . S
C2118 H2112 0.930 . S
C2118 C2119 1.355 . S
C2118 C2120 1.415 . S
C2119 C2118 1.355 . S
C2119 C2121 1.419 . S
C2120 C2118 1.415 . S
C2120 C2125 1.425 . S
C2120 C2127 1.409 . S
C2121 H2113 0.930 . S
C2121 C2119 1.419 . S
C2121 C2122 1.362 . S
C2122 H2114 0.930 . S
C2122 C2121 1.362 . S
C2122 C2125 1.409 . S
C2123 H2115 0.930 . S
C2123 C2124 1.355 . S
C2123 C2125 1.415 . S
C2124 C2123 1.355 . S
C2124 C2126 1.419 . S
C2125 C2120 1.425 . S
C2125 C2122 1.409 . S
C2125 C2123 1.415 . S
C2126 H2116 0.930 1_545 S
C2126 C2124 1.419 . S
C2126 C2127 1.362 . S
C2127 H2117 0.930 . S
C2127 C2120 1.409 . S
C2127 C2126 1.362 . S
H2128 C2134 0.930 . S
H2129 C2137 0.930 . S
H2130 C2138 0.930 . S
H2131 C2139 0.930 . S
H2132 C2142 0.930 . S
H2133 C2143 0.930 . S
C2134 H2128 0.930 . S
C2134 C2135 1.355 . S
C2134 C2136 1.415 . S
C2135 C2134 1.355 . S
C2135 C2137 1.419 . S
C2136 C2134 1.415 . S
C2136 C2141 1.425 . S
C2136 C2143 1.409 . S
C2137 H2129 0.930 . S
C2137 C2135 1.419 . S
C2137 C2138 1.362 . S
C2138 H2130 0.930 . S
C2138 C2137 1.362 . S
C2138 C2141 1.409 . S
C2139 H2131 0.930 . S
C2139 C2140 1.355 . S
C2139 C2141 1.415 . S
C2140 C2139 1.355 . S
C2140 C2142 1.419 . S
C2141 C2136 1.425 . S
C2141 C2138 1.409 . S
C2141 C2139 1.415 . S
C2142 H2132 0.930 . S
C2142 C2140 1.419 . S
C2142 C2143 1.362 . S
C2143 H2133 0.930 . S
C2143 C2136 1.409 . S
C2143 C2142 1.362 . S
H2144 C2150 0.930 . S
H2145 C2153 0.930 . S
H2146 C2154 0.930 . S
H2147 C2155 0.930 . S
H2148 C2158 0.930 . S
H2149 C2159 0.930 . S
C2150 H2144 0.930 . S
C2150 C2151 1.355 . S
C2150 C2152 1.415 . S
C2151 C2150 1.355 . S
C2151 C2153 1.419 . S
C2152 C2150 1.415 . S
C2152 C2157 1.425 . S
C2152 C2159 1.409 . S
C2153 H2145 0.930 . S
C2153 C2151 1.419 . S
C2153 C2154 1.362 . S
C2154 H2146 0.930 . S
C2154 C2153 1.362 . S
C2154 C2157 1.409 . S
C2155 H2147 0.930 . S
C2155 C2156 1.355 . S
C2155 C2157 1.415 . S
C2156 C2155 1.355 . S
C2156 C2158 1.419 . S
C2157 C2152 1.425 . S
C2157 C2154 1.409 . S
C2157 C2155 1.415 . S
C2158 H2148 0.930 . S
C2158 C2156 1.419 . S
C2158 C2159 1.362 . S
C2159 H2149 0.930 . S
C2159 C2152 1.409 . S
C2159 C2158 1.362 . S
H2160 C2166 0.930 . S
H2161 C2169 0.930 1_655 S
H2162 C2170 0.930 1_655 S
H2163 C2171 0.930 . S
H2164 C2174 0.930 . S
H2165 C2175 0.930 . S
C2166 H2160 0.930 . S
C2166 C2167 1.355 . S
C2166 C2168 1.415 . S
C2167 C2166 1.355 . S
C2167 C2169 1.419 . S
C2168 C2166 1.415 . S
C2168 C2173 1.425 . S
C2168 C2175 1.409 . S
C2169 H2161 0.930 1_455 S
C2169 C2167 1.419 . S
C2169 C2170 1.362 . S
C2170 H2162 0.930 1_455 S
C2170 C2169 1.362 . S
C2170 C2173 1.409 . S
C2171 H2163 0.930 . S
C2171 C2172 1.355 . S
C2171 C2173 1.415 . S
C2172 C2171 1.355 . S
C2172 C2174 1.419 . S
C2173 C2168 1.425 . S
C2173 C2170 1.409 . S
C2173 C2171 1.415 . S
C2174 H2164 0.930 . S
C2174 C2172 1.419 . S
C2174 C2175 1.362 . S
C2175 H2165 0.930 . S
C2175 C2168 1.409 . S
C2175 C2174 1.362 . S
H2176 C2182 0.930 . S
H2177 C2185 0.930 . S
H2178 C2186 0.930 . S
H2179 C2187 0.930 . S
H2180 C2190 0.930 . S
H2181 C2191 0.930 . S
C2182 H2176 0.930 . S
C2182 C2183 1.355 . S
C2182 C2184 1.415 . S
C2183 C2182 1.355 . S
C2183 C2185 1.419 . S
C2184 C2182 1.415 . S
C2184 C2189 1.425 . S
C2184 C2191 1.409 . S
C2185 H2177 0.930 . S
C2185 C2183 1.419 . S
C2185 C2186 1.362 . S
C2186 H2178 0.930 . S
C2186 C2185 1.362 . S
C2186 C2189 1.409 . S
C2187 H2179 0.930 . S
C2187 C2188 1.355 . S
C2187 C2189 1.415 . S
C2188 C2187 1.355 . S
C2188 C2190 1.419 . S
C2189 C2184 1.425 . S
C2189 C2186 1.409 . S
C2189 C2187 1.415 . S
C2190 H2180 0.930 . S
C2190 C2188 1.419 . S
C2190 C2191 1.362 . S
C2191 H2181 0.930 . S
C2191 C2184 1.409 . S
C2191 C2190 1.362 . S
H2192 C2198 0.930 . S
H2193 C2201 0.930 . S
H2194 C2202 0.930 . S
H2195 C2203 0.930 . S
H2196 C2206 0.930 . S
H2197 C2207 0.958 . S
C2198 H2192 0.930 . S
C2198 C2199 1.355 . S
C2198 C2200 1.415 . S
C2199 C2198 1.355 . S
C2199 C2201 1.419 . S
C2200 C2198 1.415 . S
C2200 C2205 1.425 . S
C2200 C2207 1.409 . S
C2201 H2193 0.930 . S
C2201 C2199 1.419 . S
C2201 C2202 1.362 . S
C2202 H2194 0.930 . S
C2202 C2201 1.362 . S
C2202 C2205 1.409 . S
C2203 H2195 0.930 . S
C2203 C2204 1.355 . S
C2203 C2205 1.415 . S
C2204 C2203 1.355 . S
C2204 C2206 1.419 . S
C2205 C2200 1.425 . S
C2205 C2202 1.409 . S
C2205 C2203 1.415 . S
C2206 H2196 0.930 . S
C2206 C2204 1.419 . S
C2206 C2207 1.362 . S
C2207 H2197 0.958 . S
C2207 C2200 1.409 . S
C2207 C2206 1.362 . S
H2208 C2214 0.930 . S
H2209 C2217 0.930 . S
H2210 C2218 0.930 . S
H2211 C2219 0.930 . S
H2212 C2222 0.930 . S
H2213 C2223 0.930 . S
C2214 H2208 0.930 . S
C2214 C2215 1.355 . S
C2214 C2216 1.415 . S
C2215 C2214 1.355 . S
C2215 C2217 1.419 . S
C2216 C2214 1.415 . S
C2216 C2221 1.425 . S
C2216 C2223 1.409 . S
C2217 H2209 0.930 . S
C2217 C2215 1.419 . S
C2217 C2218 1.362 . S
C2218 H2210 0.930 . S
C2218 C2217 1.362 . S
C2218 C2221 1.409 . S
C2219 H2211 0.930 . S
C2219 C2220 1.355 . S
C2219 C2221 1.415 . S
C2220 C2219 1.355 . S
C2220 C2222 1.419 . S
C2221 C2216 1.425 . S
C2221 C2218 1.409 . S
C2221 C2219 1.415 . S
C2222 H2212 0.930 . S
C2222 C2220 1.419 . S
C2222 C2223 1.362 . S
C2223 H2213 0.930 . S
C2223 C2216 1.409 . S
C2223 C2222 1.362 . S
H2224 C2230 0.930 . S
H2225 C2233 0.930 . S
H2226 C2234 0.930 . S
H2227 C2235 0.930 . S
H2228 C2238 0.930 . S
H2229 C2239 0.930 . S
C2230 H2224 0.930 . S
C2230 C2231 1.355 . S
C2230 C2232 1.415 . S
C2231 C2230 1.355 . S
C2231 C2233 1.419 . S
C2232 C2230 1.415 . S
C2232 C2237 1.425 . S
C2232 C2239 1.409 . S
C2233 H2225 0.930 . S
C2233 C2231 1.419 . S
C2233 C2234 1.362 . S
C2234 H2226 0.930 . S
C2234 C2233 1.362 . S
C2234 C2237 1.409 . S
C2235 H2227 0.930 . S
C2235 C2236 1.355 . S
C2235 C2237 1.415 . S
C2236 C2235 1.355 . S
C2236 C2238 1.419 . S
C2237 C2232 1.425 . S
C2237 C2234 1.409 . S
C2237 C2235 1.415 . S
C2238 H2228 0.930 . S
C2238 C2236 1.419 . S
C2238 C2239 1.362 . S
C2239 H2229 0.930 . S
C2239 C2232 1.409 . S
C2239 C2238 1.362 . S
H2240 C2246 0.930 . S
H2241 C2249 0.930 . S
H2242 C2250 0.930 . S
H2243 C2251 0.930 . S
H2244 C2254 0.930 . S
H2245 C2255 0.930 . S
C2246 H2240 0.930 . S
C2246 C2247 1.355 . S
C2246 C2248 1.415 . S
C2247 C2246 1.355 . S
C2247 C2249 1.419 . S
C2248 C2246 1.415 . S
C2248 C2253 1.425 . S
C2248 C2255 1.409 . S
C2249 H2241 0.930 . S
C2249 C2247 1.419 . S
C2249 C2250 1.362 . S
C2250 H2242 0.930 . S
C2250 C2249 1.362 . S
C2250 C2253 1.409 . S
C2251 H2243 0.930 . S
C2251 C2252 1.355 . S
C2251 C2253 1.415 . S
C2252 C2251 1.355 . S
C2252 C2254 1.419 . S
C2253 C2248 1.425 . S
C2253 C2250 1.409 . S
C2253 C2251 1.415 . S
C2254 H2244 0.930 . S
C2254 C2252 1.419 . S
C2254 C2255 1.362 . S
C2255 H2245 0.930 . S
C2255 C2248 1.409 . S
C2255 C2254 1.362 . S
H2256 C2262 0.930 . S
H2257 C2265 0.930 . S
H2258 C2266 0.930 . S
H2259 C2267 0.930 . S
H2260 C2270 0.930 . S
H2261 C2271 0.930 . S
C2262 H2256 0.930 . S
C2262 C2263 1.355 . S
C2262 C2264 1.415 . S
C2263 C2262 1.355 . S
C2263 C2265 1.419 . S
C2264 C2262 1.415 . S
C2264 C2269 1.425 . S
C2264 C2271 1.409 . S
C2265 H2257 0.930 . S
C2265 C2263 1.419 . S
C2265 C2266 1.362 . S
C2266 H2258 0.930 . S
C2266 C2265 1.362 . S
C2266 C2269 1.409 . S
C2267 H2259 0.930 . S
C2267 C2268 1.355 . S
C2267 C2269 1.415 . S
C2268 C2267 1.355 . S
C2268 C2270 1.419 . S
C2269 C2264 1.425 . S
C2269 C2266 1.409 . S
C2269 C2267 1.415 . S
C2270 H2260 0.930 . S
C2270 C2268 1.419 . S
C2270 C2271 1.362 . S
C2271 H2261 0.930 . S
C2271 C2264 1.409 . S
C2271 C2270 1.362 . S
H2272 C2278 0.930 . S
H2273 C2281 0.930 . S
H2274 C2282 0.930 . S
H2275 C2283 0.930 . S
H2276 C2286 0.930 . S
H2277 C2287 0.930 . S
C2278 H2272 0.930 . S
C2278 C2279 1.355 . S
C2278 C2280 1.415 . S
C2279 C2278 1.355 . S
C2279 C2281 1.419 . S
C2280 C2278 1.415 . S
C2280 C2285 1.425 . S
C2280 C2287 1.409 . S
C2281 H2273 0.930 . S
C2281 C2279 1.419 . S
C2281 C2282 1.362 . S
C2282 H2274 0.930 . S
C2282 C2281 1.362 . S
C2282 C2285 1.409 . S
C2283 H2275 0.930 . S
C2283 C2284 1.355 . S
C2283 C2285 1.415 . S
C2284 C2283 1.355 . S
C2284 C2286 1.419 . S
C2285 C2280 1.425 . S
C2285 C2282 1.409 . S
C2285 C2283 1.415 . S
C2286 H2276 0.930 . S
C2286 C2284 1.419 . S
C2286 C2287 1.362 . S
C2287 H2277 0.930 . S
C2287 C2280 1.409 . S
C2287 C2286 1.362 . S
H2288 C2294 0.930 . S
H2289 C2297 0.930 1_655 S
H2290 C2298 0.930 . S
H2291 C2299 0.930 . S
H2292 C2302 0.930 1_554 S
H2293 C2303 0.930 . S
C2294 H2288 0.930 . S
C2294 C2295 1.355 . S
C2294 C2296 1.415 . S
C2295 C2294 1.355 . S
C2295 C2297 1.419 . S
C2296 C2294 1.415 . S
C2296 C2301 1.425 . S
C2296 C2303 1.409 . S
C2297 H2289 0.930 1_455 S
C2297 C2295 1.419 . S
C2297 C2298 1.362 . S
C2298 H2290 0.930 . S
C2298 C2297 1.362 . S
C2298 C2301 1.409 . S
C2299 H2291 0.930 . S
C2299 C2300 1.355 . S
C2299 C2301 1.415 . S
C2300 C2299 1.355 . S
C2300 C2302 1.419 . S
C2301 C2296 1.425 . S
C2301 C2298 1.409 . S
C2301 C2299 1.415 . S
C2302 H2292 0.930 1_556 S
C2302 C2300 1.419 . S
C2302 C2303 1.362 . S
C2303 H2293 0.930 . S
C2303 C2296 1.409 . S
C2303 C2302 1.362 . S
H2304 C2310 0.930 . S
H2305 C2313 0.930 . S
H2306 C2314 0.930 . S
H2307 C2315 0.930 . S
H2308 C2318 0.930 . S
H2309 C2319 0.930 . S
C2310 H2304 0.930 . S
C2310 C2311 1.355 . S
C2310 C2312 1.415 . S
C2311 C2310 1.355 . S
C2311 C2313 1.419 . S
C2312 C2310 1.415 . S
C2312 C2317 1.425 . S
C2312 C2319 1.409 . S
C2313 H2305 0.930 . S
C2313 C2311 1.419 . S
C2313 C2314 1.362 . S
C2314 H2306 0.930 . S
C2314 C2313 1.362 . S
C2314 C2317 1.409 . S
C2315 H2307 0.930 . S
C2315 C2316 1.355 . S
C2315 C2317 1.415 . S
C2316 C2315 1.355 . S
C2316 C2318 1.419 . S
C2317 C2312 1.425 . S
C2317 C2314 1.409 . S
C2317 C2315 1.415 . S
C2318 H2308 0.930 . S
C2318 C2316 1.419 . S
C2318 C2319 1.362 . S
C2319 H2309 0.930 . S
C2319 C2312 1.409 . S
C2319 C2318 1.362 . S
H2320 C2326 0.930 . S
H2321 C2329 0.930 . S
H2322 C2330 0.930 . S
H2323 C2331 0.930 . S
H2324 C2334 0.930 . S
H2325 C2335 0.930 . S
C2326 H2320 0.930 . S
C2326 C2327 1.355 . S
C2326 C2328 1.415 . S
C2327 C2326 1.355 . S
C2327 C2329 1.419 . S
C2328 C2326 1.415 . S
C2328 C2333 1.425 . S
C2328 C2335 1.409 . S
C2329 H2321 0.930 . S
C2329 C2327 1.419 . S
C2329 C2330 1.362 . S
C2330 H2322 0.930 . S
C2330 C2329 1.362 . S
C2330 C2333 1.409 . S
C2331 H2323 0.930 . S
C2331 C2332 1.355 . S
C2331 C2333 1.415 . S
C2332 C2331 1.355 . S
C2332 C2334 1.419 . S
C2333 C2328 1.425 . S
C2333 C2330 1.409 . S
C2333 C2331 1.415 . S
C2334 H2324 0.930 . S
C2334 C2332 1.419 . S
C2334 C2335 1.362 . S
C2335 H2325 0.930 . S
C2335 C2328 1.409 . S
C2335 C2334 1.362 . S
H2336 C2342 0.949 . S
H2337 C2345 0.930 . S
H2338 C2346 0.930 . S
H2339 C2347 0.930 . S
H2340 C2350 0.930 . S
H2341 C2351 0.930 . S
C2342 H2336 0.949 . S
C2342 C2343 1.355 . S
C2342 C2344 1.415 . S
C2343 C2342 1.355 . S
C2343 C2345 1.419 . S
C2344 C2342 1.415 . S
C2344 C2349 1.425 . S
C2344 C2351 1.409 . S
C2345 H2337 0.930 . S
C2345 C2343 1.419 . S
C2345 C2346 1.362 . S
C2346 H2338 0.930 . S
C2346 C2345 1.362 . S
C2346 C2349 1.409 . S
C2347 H2339 0.930 . S
C2347 C2348 1.355 . S
C2347 C2349 1.415 . S
C2348 C2347 1.355 . S
C2348 C2350 1.419 . S
C2349 C2344 1.425 . S
C2349 C2346 1.409 . S
C2349 C2347 1.415 . S
C2350 H2340 0.930 . S
C2350 C2348 1.419 . S
C2350 C2351 1.362 . S
C2351 H2341 0.930 . S
C2351 C2344 1.409 . S
C2351 C2350 1.362 . S
H2352 C2358 0.930 . S
H2353 C2361 0.930 . S
H2354 C2362 0.930 . S
H2355 C2363 0.924 1_655 S
H2356 C2366 0.930 . S
H2357 C2367 0.930 . S
C2358 H2352 0.930 . S
C2358 C2359 1.355 1_455 S
C2358 C2360 1.415 . S
C2359 C2358 1.355 1_655 S
C2359 C2361 1.419 . S
C2360 C2358 1.415 . S
C2360 C2365 1.425 1_455 S
C2360 C2367 1.409 . S
C2361 H2353 0.930 . S
C2361 C2359 1.419 . S
C2361 C2362 1.362 . S
C2362 H2354 0.930 . S
C2362 C2361 1.362 . S
C2362 C2365 1.409 . S
C2363 H2355 0.924 1_455 S
C2363 C2364 1.364 . S
C2363 C2365 1.411 1_455 S
C2364 C2363 1.364 . S
C2364 C2366 1.419 . S
C2365 C2360 1.425 1_655 S
C2365 C2362 1.409 . S
C2365 C2363 1.411 1_655 S
C2366 H2356 0.930 . S
C2366 C2364 1.419 . S
C2366 C2367 1.362 . S
C2367 H2357 0.930 . S
C2367 C2360 1.409 . S
C2367 C2366 1.362 . S
H2368 C2374 0.930 . S
H2369 C2377 0.930 . S
H2370 C2378 0.930 . S
H2371 C2379 0.930 . S
H2372 C2382 0.930 . S
H2373 C2383 0.930 . S
C2374 H2368 0.930 . S
C2374 C2375 1.355 . S
C2374 C2376 1.415 . S
C2375 C2374 1.355 . S
C2375 C2377 1.419 . S
C2376 C2374 1.415 . S
C2376 C2381 1.425 . S
C2376 C2383 1.409 . S
C2377 H2369 0.930 . S
C2377 C2375 1.419 . S
C2377 C2378 1.362 . S
C2378 H2370 0.930 . S
C2378 C2377 1.362 . S
C2378 C2381 1.409 . S
C2379 H2371 0.930 . S
C2379 C2380 1.355 . S
C2379 C2381 1.415 . S
C2380 C2379 1.355 . S
C2380 C2382 1.419 . S
C2381 C2376 1.425 . S
C2381 C2378 1.409 . S
C2381 C2379 1.415 . S
C2382 H2372 0.930 . S
C2382 C2380 1.419 . S
C2382 C2383 1.362 . S
C2383 H2373 0.930 . S
C2383 C2376 1.409 . S
C2383 C2382 1.362 . S
H2384 C2390 0.930 . S
H2385 C2393 0.930 . S
H2386 C2394 0.930 . S
H2387 C2395 0.930 . S
H2388 C2398 0.930 . S
H2389 C2399 0.930 . S
C2390 H2384 0.930 . S
C2390 C2391 1.355 . S
C2390 C2392 1.415 . S
C2391 C2390 1.355 . S
C2391 C2393 1.419 . S
C2392 C2390 1.415 . S
C2392 C2397 1.425 . S
C2392 C2399 1.409 . S
C2393 H2385 0.930 . S
C2393 C2391 1.419 . S
C2393 C2394 1.362 . S
C2394 H2386 0.930 . S
C2394 C2393 1.362 . S
C2394 C2397 1.409 . S
C2395 H2387 0.930 . S
C2395 C2396 1.355 . S
C2395 C2397 1.415 . S
C2396 C2395 1.355 . S
C2396 C2398 1.419 . S
C2397 C2392 1.425 . S
C2397 C2394 1.409 . S
C2397 C2395 1.415 . S
C2398 H2388 0.930 . S
C2398 C2396 1.419 . S
C2398 C2399 1.362 . S
C2399 H2389 0.930 . S
C2399 C2392 1.409 . S
C2399 C2398 1.362 . S
H2400 C2406 0.930 . S
H2401 C2409 0.930 . S
H2402 C2410 0.930 . S
H2403 C2411 0.930 . S
H2404 C2414 0.930 1_455 S
H2405 C2415 0.930 . S
C2406 H2400 0.930 . S
C2406 C2407 1.355 . S
C2406 C2408 1.415 . S
C2407 C2406 1.355 . S
C2407 C2409 1.419 . S
C2408 C2406 1.415 . S
C2408 C2413 1.425 . S
C2408 C2415 1.409 . S
C2409 H2401 0.930 . S
C2409 C2407 1.419 . S
C2409 C2410 1.362 . S
C2410 H2402 0.930 . S
C2410 C2409 1.362 . S
C2410 C2413 1.409 . S
C2411 H2403 0.930 . S
C2411 C2412 1.355 . S
C2411 C2413 1.415 . S
C2412 C2411 1.355 . S
C2412 C2414 1.419 . S
C2413 C2408 1.425 . S
C2413 C2410 1.409 . S
C2413 C2411 1.415 . S
C2414 H2404 0.930 1_655 S
C2414 C2412 1.419 . S
C2414 C2415 1.362 . S
C2415 H2405 0.930 . S
C2415 C2408 1.409 . S
C2415 C2414 1.362 . S
H2416 C2422 0.930 . S
H2417 C2425 0.930 . S
H2418 C2426 0.930 . S
H2419 C2427 0.930 . S
H2420 C2430 0.930 . S
H2421 C2431 0.930 . S
C2422 H2416 0.930 . S
C2422 C2423 1.355 . S
C2422 C2424 1.415 . S
C2423 C2422 1.355 . S
C2423 C2425 1.419 . S
C2424 C2422 1.415 . S
C2424 C2429 1.425 . S
C2424 C2431 1.409 . S
C2425 H2417 0.930 . S
C2425 C2423 1.419 . S
C2425 C2426 1.362 . S
C2426 H2418 0.930 . S
C2426 C2425 1.362 . S
C2426 C2429 1.409 . S
C2427 H2419 0.930 . S
C2427 C2428 1.355 . S
C2427 C2429 1.415 . S
C2428 C2427 1.355 . S
C2428 C2430 1.419 . S
C2429 C2424 1.425 . S
C2429 C2426 1.409 . S
C2429 C2427 1.415 . S
C2430 H2420 0.930 . S
C2430 C2428 1.419 . S
C2430 C2431 1.362 . S
C2431 H2421 0.930 . S
C2431 C2424 1.409 . S
C2431 C2430 1.362 . S
H2432 C2438 0.930 . S
H2433 C2441 0.930 . S
H2434 C2442 0.930 . S
H2435 C2443 0.930 . S
H2436 C2446 0.930 . S
H2437 C2447 0.930 . S
C2438 H2432 0.930 . S
C2438 C2439 1.355 . S
C2438 C2440 1.415 . S
C2439 C2438 1.355 . S
C2439 C2441 1.419 . S
C2440 C2438 1.415 . S
C2440 C2445 1.425 . S
C2440 C2447 1.409 . S
C2441 H2433 0.930 . S
C2441 C2439 1.419 . S
C2441 C2442 1.362 . S
C2442 H2434 0.930 . S
C2442 C2441 1.362 . S
C2442 C2445 1.409 . S
C2443 H2435 0.930 . S
C2443 C2444 1.355 . S
C2443 C2445 1.415 . S
C2444 C2443 1.355 . S
C2444 C2446 1.419 . S
C2445 C2440 1.425 . S
C2445 C2442 1.409 . S
C2445 C2443 1.415 . S
C2446 H2436 0.930 . S
C2446 C2444 1.419 . S
C2446 C2447 1.362 . S
C2447 H2437 0.930 . S
C2447 C2440 1.409 . S
C2447 C2446 1.362 . S
H2448 C2454 0.930 . S
H2449 C2457 0.930 . S
H2450 C2458 0.930 . S
H2451 C2459 0.930 . S
H2452 C2462 0.930 . S
H2453 C2463 0.930 . S
C2454 H2448 0.930 . S
C2454 C2455 1.355 . S
C2454 C2456 1.415 . S
C2455 C2454 1.355 . S
C2455 C2457 1.419 . S
C2456 C2454 1.415 . S
C2456 C2461 1.425 . S
C2456 C2463 1.409 . S
C2457 H2449 0.930 . S
C2457 C2455 1.419 . S
C2457 C2458 1.362 . S
C2458 H2450 0.930 . S
C2458 C2457 1.362 . S
C2458 C2461 1.409 . S
C2459 H2451 0.930 . S
C2459 C2460 1.355 . S
C2459 C2461 1.415 . S
C2460 C2459 1.355 . S
C2460 C2462 1.419 . S
C2461 C2456 1.425 . S
C2461 C2458 1.409 . S
C2461 C2459 1.415 . S
C2462 H2452 0.930 . S
C2462 C2460 1.419 . S
C2462 C2463 1.362 . S
C2463 H2453 0.930 . S
C2463 C2456 1.409 . S
C2463 C2462 1.362 . S
H2464 C2470 0.930 . S
H2465 C2473 0.930 . S
H2466 C2474 0.930 . S
H2467 C2475 0.930 . S
H2468 C2478 0.930 . S
H2469 C2479 0.930 . S
C2470 H2464 0.930 . S
C2470 C2471 1.355 . S
C2470 C2472 1.415 . S
C2471 C2470 1.355 . S
C2471 C2473 1.419 . S
C2472 C2470 1.415 . S
C2472 C2477 1.425 . S
C2472 C2479 1.409 . S
C2473 H2465 0.930 . S
C2473 C2471 1.419 . S
C2473 C2474 1.362 . S
C2474 H2466 0.930 . S
C2474 C2473 1.362 . S
C2474 C2477 1.409 . S
C2475 H2467 0.930 . S
C2475 C2476 1.355 . S
C2475 C2477 1.415 . S
C2476 C2475 1.355 . S
C2476 C2478 1.419 . S
C2477 C2472 1.425 . S
C2477 C2474 1.409 . S
C2477 C2475 1.415 . S
C2478 H2468 0.930 . S
C2478 C2476 1.419 . S
C2478 C2479 1.362 . S
C2479 H2469 0.930 . S
C2479 C2472 1.409 . S
C2479 C2478 1.362 . S
H2480 C2486 0.930 . S
H2481 C2489 0.930 . S
H2482 C2490 0.930 . S
H2483 C2491 0.930 . S
H2484 C2494 0.930 . S
H2485 C2495 0.930 . S
C2486 H2480 0.930 . S
C2486 C2487 1.355 1_565 S
C2486 C2488 1.415 . S
C2487 C2486 1.355 1_545 S
C2487 C2489 1.419 . S
C2488 C2486 1.415 . S
C2488 C2493 1.425 . S
C2488 C2495 1.409 . S
C2489 H2481 0.930 . S
C2489 C2487 1.419 . S
C2489 C2490 1.362 1_545 S
C2490 H2482 0.930 . S
C2490 C2489 1.362 1_565 S
C2490 C2493 1.409 . S
C2491 H2483 0.930 . S
C2491 C2492 1.355 . S
C2491 C2493 1.415 . S
C2492 C2491 1.355 . S
C2492 C2494 1.419 . S
C2493 C2488 1.425 . S
C2493 C2490 1.409 . S
C2493 C2491 1.415 . S
C2494 H2484 0.930 . S
C2494 C2492 1.419 . S
C2494 C2495 1.362 . S
C2495 H2485 0.930 . S
C2495 C2488 1.409 . S
C2495 C2494 1.362 . S
H2496 C2502 0.930 . S
H2497 C2505 0.930 . S
H2498 C2506 0.930 . S
H2499 C2507 0.930 . S
H2500 C2510 0.930 . S
H2501 C2511 0.930 . S
C2502 H2496 0.930 . S
C2502 C2503 1.355 . S
C2502 C2504 1.415 . S
C2503 C2502 1.355 . S
C2503 C2505 1.419 . S
C2504 C2502 1.415 . S
C2504 C2509 1.425 . S
C2504 C2511 1.409 . S
C2505 H2497 0.930 . S
C2505 C2503 1.419 . S
C2505 C2506 1.362 . S
C2506 H2498 0.930 . S
C2506 C2505 1.362 . S
C2506 C2509 1.409 . S
C2507 H2499 0.930 . S
C2507 C2508 1.355 . S
C2507 C2509 1.415 . S
C2508 C2507 1.355 . S
C2508 C2510 1.419 . S
C2509 C2504 1.425 . S
C2509 C2506 1.409 . S
C2509 C2507 1.415 . S
C2510 H2500 0.930 . S
C2510 C2508 1.419 . S
C2510 C2511 1.362 . S
C2511 H2501 0.930 . S
C2511 C2504 1.409 . S
C2511 C2510 1.362 . S
C983 C111 1.258 . S
C988 C342 1.293 . S
C999 C64 1.930 . S
C1004 C394 1.944 . S
C1015 C77 1.185 . S
C1020 C426 1.244 . S
C1036 C475 2.346 . S
C1031 C95 2.308 . S
C1047 C25 1.071 . S
C1052 C511 1.119 . S
C1068 C542 0.426 . S
C1063 C36 0.562 . S
C1084 C594 0.455 . S
C1079 C50 0.617 . S
C1095 C11 2.297 . S
C1100 C622 2.074 . S
C1116 C354 1.956 . S
C1111 C237 1.982 . S
C1127 C245 1.626 . S
C1132 C395 1.678 . S
C1148 C425 1.744 . S
C1143 C279 1.576 1_545 S
C1164 C462 0.535 1_554 S
C1159 C175 0.577 . S
C1175 C231 1.673 . S
C1180 C506 1.673 . S
C1196 C554 1.883 . S
C1191 C251 1.710 . S
C1212 C595 1.691 1_556 S
C1207 C273 1.645 . S
C1228 C634 1.793 . S
C1223 C181 1.800 . S
C1244 C355 2.183 . S
C1239 C165 2.197 . S
C1255 C288 1.538 . S
C1260 C665 1.643 . S
C1276 C715 2.362 . S
C1271 C333 2.379 . S
C1292 C742 0.983 . S
C1287 C316 0.956 . S
C1303 C123 2.593 . S
C1308 C635 2.483 . S
C1319 C137 1.454 . S
C1324 C431 1.379 . S
C1335 C330 2.441 . S
C1340 C794 2.496 . S
C1356 C822 1.269 . S
C1351 C302 1.314 . S
C1372 C351 1.319 . S
C1367 C63 1.391 . S
C1388 C825 2.033 . S
C1383 C106 1.979 1_655 S
C1399 C97 1.207 . S
C1404 C435 1.378 . S
C1415 C81 2.433 . S
C1420 C786 2.451 . S
C1436 C502 1.244 . S
C1431 C13 1.194 . S
C1447 C55 0.609 . S
C1452 C711 0.626 . S
C1468 C585 0.456 . S
C1463 C35 0.643 . S
C1484 C871 1.936 . S
C1479 C21 2.006 . S
C1500 C345 1.972 1_556 S
C1495 C147 2.148 . S
C1516 C826 1.795 . S
C1511 C321 1.599 . S
C1527 C119 1.944 . S
C1532 C434 1.851 . S
C1543 C293 0.444 . S
C1548 C791 0.502 . S
C1559 C153 1.730 . S
C1564 C515 1.888 . S
C1580 C705 1.958 . S
C1575 C315 1.937 . S
C1591 C125 1.602 . S
C1596 C586 1.806 . S
C1607 C287 1.946 . S
C1612 C865 1.777 . S
C1623 C193 2.241 . S
C1628 C346 2.242 1_655 S
C1639 C176 1.851 . S
C1644 C674 1.801 . S
C1655 C263 2.314 . S
C1660 C546 2.332 . S
C1671 C246 1.054 . S
C1676 C751 1.044 . S
C1692 C866 2.497 . S
C1687 C277 2.542 . S
C1703 C221 1.507 . S
C1708 C422 1.515 . S
C1724 C465 2.539 . S
C1719 C260 2.550 . S
C1740 C391 1.332 . S
C1735 C204 1.325 . S
C1751 C83 1.343 . S
C1756 C902 1.368 . S
C1772 C834 1.973 . S
C1767 C92 2.025 . S
C1783 C105 1.291 . S
C1788 C946 1.342 . S
C1799 C67 2.269 1_655 S
C1804 C795 2.335 . S
C1815 C53 1.138 . S
C1820 C671 1.144 . S
C1836 C702 0.781 . S
C1831 C8 0.722 . S
C1852 C754 0.474 . S
C1847 C22 0.629 . S
C1868 C862 1.546 . S
C1863 C39 1.710 . S
C1884 C914 1.865 . S
C1879 C265 1.845 . S
C1895 C189 1.758 1_556 S
C1900 C835 1.780 . S
C1916 C945 1.797 . S
C1911 C209 1.622 . S
C1932 C782 0.451 . S
C1927 C217 0.430 . S
C1948 C666 1.748 1_556 S
C1943 C259 1.773 . S
C1959 C195 1.813 . S
C1964 C714 1.948 . S
C1980 C755 1.752 . S
C1975 C203 1.724 . S
C1991 C223 1.761 . S
C1996 C874 1.739 . S
C2012 C915 2.169 . S
C2007 C319 2.200 . S
C2023 C134 1.591 . S
C2028 C505 1.828 . S
C2044 C555 2.332 . S
C2039 C151 2.335 1_565 S
C2060 C582 0.994 . S
C2055 C162 1.022 . S
C2076 C875 2.490 . S
C2071 C305 2.563 . S
C2087 C291 1.186 1_554 S
C2092 C951 1.114 . S
C2108 C474 2.490 . S
C2103 C148 2.475 . S
C2124 C382 1.183 1_545 S
C2119 C120 1.305 . S
C2135 C91 1.462 . S
C2140 C911 1.416 . S
C2156 C385 2.018 . S
C2151 C78 2.063 . S
C2167 C69 1.298 . S
C2172 C955 1.418 . S
C2183 C109 2.444 . S
C2188 C466 2.462 . S
C2199 C41 1.030 . S
C2204 C662 1.091 . S
C2220 C551 0.602 . S
C2215 C27 0.607 . S
C2231 C7 0.552 . S
C2236 C745 0.612 . S
C2247 C49 1.887 . S
C2252 C631 1.806 . S
C2268 C905 2.003 . S
C2263 C329 2.139 . S
C2279 C167 1.604 . S
C2284 C386 1.797 . S
C2300 C954 1.944 1_556 S
C2295 C301 1.976 1_455 S
C2311 C139 0.605 . S
C2316 C471 0.715 . S
C2327 C335 1.792 . S
C2332 C675 1.987 . S
C2348 C545 2.033 . S
C2343 C161 2.061 1_556 S
C2359 C307 1.622 . S
C2364 C746 1.761 . S
C2380 C625 1.761 . S
C2375 C133 1.882 . S
C2396 C906 2.254 . S
C2391 C249 2.253 . S
C2412 C514 1.852 1_655 S
C2407 C218 1.882 . S
C2423 C235 2.306 . S
C2428 C706 2.323 . S
C2444 C591 1.117 . S
C2439 C190 1.047 . S
C2455 C207 2.541 . S
C2460 C626 2.501 . S
C2471 C179 1.328 . S
C2476 C942 1.319 . S
C2492 C785 2.556 . S
C2487 C232 2.547 . S
C2508 C831 1.183 . S
C2503 C274 1.293 . S
