# Generated by pormake.
# Topology pto, (3,4)-cn, num edge types: 1
# Building blocks:
#     Node 0, Type 0, BuildingBlock: OLANEW_clean_sbu_2, # of connection points: 3
#     Node 1, Type 0, BuildingBlock: OLANEW_clean_sbu_2, # of connection points: 3
#     Node 2, Type 0, BuildingBlock: OLANEW_clean_sbu_2, # of connection points: 3
#     Node 3, Type 0, BuildingBlock: OLANEW_clean_sbu_2, # of connection points: 3
#     Node 4, Type 0, BuildingBlock: OLANEW_clean_sbu_2, # of connection points: 3
#     Node 5, Type 0, BuildingBlock: OLANEW_clean_sbu_2, # of connection points: 3
#     Node 6, Type 0, BuildingBlock: OLANEW_clean_sbu_2, # of connection points: 3
#     Node 7, Type 0, BuildingBlock: OLANEW_clean_sbu_2, # of connection points: 3
#     Node 8, Type 1, BuildingBlock: KOZSID_clean_sbu_0, # of connection points: 4
#     Node 9, Type 1, BuildingBlock: KOZSID_clean_sbu_0, # of connection points: 4
#     Node 10, Type 1, BuildingBlock: KOZSID_clean_sbu_0, # of connection points: 4
#     Node 11, Type 1, BuildingBlock: KOZSID_clean_sbu_0, # of connection points: 4
#     Node 12, Type 1, BuildingBlock: KOZSID_clean_sbu_0, # of connection points: 4
#     Node 13, Type 1, BuildingBlock: KOZSID_clean_sbu_0, # of connection points: 4
#     Edge 14, Type (0, 1), BuildingBlock: KIFKEQ_clean_linker_1, # of connection points: 2
#     Edge 15, Type (0, 1), BuildingBlock: KIFKEQ_clean_linker_1, # of connection points: 2
#     Edge 16, Type (0, 1), BuildingBlock: KIFKEQ_clean_linker_1, # of connection points: 2
#     Edge 17, Type (0, 1), BuildingBlock: KIFKEQ_clean_linker_1, # of connection points: 2
#     Edge 18, Type (0, 1), BuildingBlock: KIFKEQ_clean_linker_1, # of connection points: 2
#     Edge 19, Type (0, 1), BuildingBlock: KIFKEQ_clean_linker_1, # of connection points: 2
#     Edge 20, Type (0, 1), BuildingBlock: KIFKEQ_clean_linker_1, # of connection points: 2
#     Edge 21, Type (0, 1), BuildingBlock: KIFKEQ_clean_linker_1, # of connection points: 2
#     Edge 22, Type (0, 1), BuildingBlock: KIFKEQ_clean_linker_1, # of connection points: 2
#     Edge 23, Type (0, 1), BuildingBlock: KIFKEQ_clean_linker_1, # of connection points: 2
#     Edge 24, Type (0, 1), BuildingBlock: KIFKEQ_clean_linker_1, # of connection points: 2
#     Edge 25, Type (0, 1), BuildingBlock: KIFKEQ_clean_linker_1, # of connection points: 2
#     Edge 26, Type (0, 1), BuildingBlock: KIFKEQ_clean_linker_1, # of connection points: 2
#     Edge 27, Type (0, 1), BuildingBlock: KIFKEQ_clean_linker_1, # of connection points: 2
#     Edge 28, Type (0, 1), BuildingBlock: KIFKEQ_clean_linker_1, # of connection points: 2
#     Edge 29, Type (0, 1), BuildingBlock: KIFKEQ_clean_linker_1, # of connection points: 2
#     Edge 30, Type (0, 1), BuildingBlock: KIFKEQ_clean_linker_1, # of connection points: 2
#     Edge 31, Type (0, 1), BuildingBlock: KIFKEQ_clean_linker_1, # of connection points: 2
#     Edge 32, Type (0, 1), BuildingBlock: KIFKEQ_clean_linker_1, # of connection points: 2
#     Edge 33, Type (0, 1), BuildingBlock: KIFKEQ_clean_linker_1, # of connection points: 2
#     Edge 34, Type (0, 1), BuildingBlock: KIFKEQ_clean_linker_1, # of connection points: 2
#     Edge 35, Type (0, 1), BuildingBlock: KIFKEQ_clean_linker_1, # of connection points: 2
#     Edge 36, Type (0, 1), BuildingBlock: KIFKEQ_clean_linker_1, # of connection points: 2
#     Edge 37, Type (0, 1), BuildingBlock: KIFKEQ_clean_linker_1, # of connection points: 2
# Relax obj value: 0.008
# Max RMSD: 0.121
# Mean RMSD: 0.052
data_MOF--net-pto--node1-OLANEW_clean_sbu_2--node2-KOZSID_clean_sbu_0--edge1-KIFKEQ_clean_linker_1
_symmetry_space_group_name_H-M    P1
_symmetry_Int_Tables_number       1
_symmetry_cell_setting            triclinic
loop_
_symmetry_equiv_pos_as_xyz
'x, y, z'
_cell_length_a     40.283238
_cell_length_b     56.611787
_cell_length_c     47.864195
_cell_angle_alpha  90.691475
_cell_angle_beta   87.099517
_cell_angle_gamma 108.46483
loop_
_atom_site_label
_atom_site_type_symbol
_atom_site_fract_x
_atom_site_fract_y
_atom_site_fract_z
_atom_type_partial_charge
O0 O 0.33332 0.34857 0.28881 0.0
Cd1 Cd 0.30119 0.34644 0.3338 0.0
O2 O 0.38105 0.37684 0.30242 0.0
Cd3 Cd 0.35132 0.38556 0.33814 0.0
O4 O 0.30927 0.40169 0.34617 0.0
C5 C 0.29373 0.40336 0.32417 0.0
O6 O 0.30375 0.395 0.30054 0.0
C7 C 0.36521 0.36152 0.28407 0.0
C8 C 0.31255 0.30885 0.3652 0.0
O9 O 0.28695 0.30419 0.34894 0.0
O10 O 0.33231 0.33149 0.3672 0.0
O11 O 0.2963 0.91492 0.80408 0.0
Cd12 Cd 0.25696 0.92291 0.77094 0.0
O13 O 0.27409 0.87602 0.7919 0.0
Cd14 Cd 0.26491 0.83583 0.78894 0.0
O15 O 0.24159 0.79626 0.77973 0.0
C16 C 0.23041 0.79033 0.75543 0.0
O17 O 0.23442 0.80805 0.73687 0.0
C18 C 0.29486 0.89232 0.80687 0.0
C19 C 0.28942 0.96054 0.73225 0.0
O20 O 0.27519 0.9653 0.75528 0.0
O21 O 0.28883 0.93805 0.72776 0.0
O22 O 0.84339 0.79885 0.31731 0.0
Cd23 Cd 0.83859 0.77456 0.27418 0.0
O24 O 0.78658 0.79257 0.32083 0.0
Cd25 Cd 0.77504 0.77515 0.28003 0.0
O26 O 0.7488 0.77324 0.24085 0.0
C27 C 0.71759 0.774 0.24326 0.0
O28 O 0.70334 0.77453 0.26848 0.0
C29 C 0.81675 0.80159 0.33065 0.0
C30 C 0.86349 0.73409 0.27896 0.0
O31 O 0.8839 0.75549 0.27081 0.0
O32 O 0.83125 0.73183 0.28496 0.0
O33 O 0.78687 0.3098 0.67215 0.0
Cd34 Cd 0.74418 0.26818 0.67733 0.0
O35 O 0.77271 0.31174 0.71653 0.0
Cd36 Cd 0.76948 0.32917 0.7571 0.0
O37 O 0.75175 0.33909 0.79804 0.0
C38 C 0.732 0.3527 0.79943 0.0
O39 O 0.72407 0.36128 0.77615 0.0
C40 C 0.79049 0.32213 0.69476 0.0
C41 C 0.76396 0.22988 0.65188 0.0
O42 O 0.7453 0.24063 0.63928 0.0
O43 O 0.77395 0.23764 0.67629 0.0
O44 O 0.72632 0.76236 0.63392 0.0
Cd45 Cd 0.70554 0.71824 0.64684 0.0
O46 O 0.71415 0.77172 0.67681 0.0
Cd47 Cd 0.7048 0.79309 0.71309 0.0
O48 O 0.68869 0.80119 0.75547 0.0
C49 C 0.66932 0.81483 0.76016 0.0
O50 O 0.6596 0.82516 0.73894 0.0
C51 C 0.72515 0.77879 0.65194 0.0
C52 C 0.75859 0.69839 0.65818 0.0
O53 O 0.74898 0.69912 0.63316 0.0
O54 O 0.74346 0.70742 0.67781 0.0
O55 O 0.84224 0.28621 0.37029 0.0
Cd56 Cd 0.79973 0.24467 0.37837 0.0
O57 O 0.80019 0.29091 0.34601 0.0
Cd58 Cd 0.77752 0.31066 0.31727 0.0
O59 O 0.75287 0.32323 0.28334 0.0
C60 C 0.73252 0.30658 0.26855 0.0
O61 O 0.72723 0.28304 0.27459 0.0
C62 C 0.83049 0.30003 0.35555 0.0
C63 C 0.82283 0.20718 0.39955 0.0
O64 O 0.82212 0.21022 0.3731 0.0
O65 O 0.81396 0.2225 0.4159 0.0
O66 O 0.30749 0.37591 0.79133 0.0
Cd67 Cd 0.27379 0.36782 0.74921 0.0
O68 O 0.35753 0.38912 0.76669 0.0
Cd69 Cd 0.33385 0.3768 0.7269 0.0
O70 O 0.32284 0.34781 0.69506 0.0
C71 C 0.31611 0.3258 0.70446 0.0
O72 O 0.31447 0.32245 0.73169 0.0
C73 C 0.34073 0.38517 0.7903 0.0
C74 C 0.23207 0.39855 0.74566 0.0
O75 O 0.21946 0.37652 0.75593 0.0
O76 O 0.26439 0.40602 0.7371 0.0
O77 O 0.44851 0.86645 0.29822 0.0
Cd78 Cd 0.44163 0.86994 0.34901 0.0
O79 O 0.39953 0.83541 0.30006 0.0
Cd80 Cd 0.35762 0.80295 0.28614 0.0
O81 O 0.31182 0.76967 0.28403 0.0
C82 C 0.31527 0.7485 0.27873 0.0
O83 O 0.34684 0.74693 0.27353 0.0
C84 C 0.42561 0.84946 0.2857 0.0
C85 C 0.42561 0.91231 0.36695 0.0
O86 O 0.45749 0.91263 0.36323 0.0
O87 O 0.40131 0.89205 0.36173 0.0
C88 C 0.09021 0.58556 0.32665 0.0
C89 C 0.10244 0.59913 0.35047 0.0
C90 C 0.08157 0.58687 0.37251 0.0
C91 C 0.05782 0.56665 0.36097 0.0
N92 N 0.06214 0.56524 0.33283 0.0
Co93 Co 0.0333 0.53886 0.30766 0.0
N94 N 0.00383 0.52018 0.34028 0.0
C95 C 0.00544 0.52721 0.36743 0.0
C96 C 0.98232 0.51024 0.3851 0.0
C97 C 0.96538 0.491 0.36833 0.0
C98 C 0.97939 0.49732 0.34132 0.0
N99 N 0.00472 0.51222 0.28258 0.0
C100 C 0.98071 0.48984 0.28917 0.0
C101 C 0.96915 0.47598 0.26538 0.0
C102 C 0.98648 0.49001 0.24302 0.0
C103 C 0.00778 0.51146 0.25432 0.0
N104 N 0.06275 0.55753 0.27498 0.0
C105 C 0.05909 0.55149 0.24761 0.0
C106 C 0.08338 0.56766 0.22998 0.0
C107 C 0.10383 0.58514 0.24705 0.0
C108 C 0.09063 0.57865 0.27425 0.0
N109 N 0.06628 0.51969 0.31151 0.0
C110 C 0.11475 0.49364 0.31669 0.0
C111 C 0.10285 0.49706 0.29059 0.0
C112 C 0.07884 0.51002 0.28849 0.0
C113 C 0.10145 0.50313 0.34024 0.0
C114 C 0.07739 0.51598 0.3372 0.0
N115 N 0.00039 0.55842 0.30377 0.0
C116 C 0.97018 0.57862 0.27433 0.0
C117 C 0.96165 0.59159 0.29712 0.0
C118 C 0.97109 0.58657 0.32353 0.0
C119 C 0.99006 0.56998 0.32636 0.0
C120 C 0.98919 0.56219 0.27811 0.0
H121 H 0.99671 0.56738 0.34699 0.0
H122 H 0.99501 0.55319 0.25982 0.0
H123 H 0.07086 0.51206 0.26802 0.0
H124 H 0.0683 0.5229 0.35588 0.0
C125 C 0.03115 0.54868 0.37598 0.0
C126 C 0.10578 0.59299 0.29863 0.0
C127 C 0.96979 0.4805 0.31761 0.0
C128 C 0.03335 0.53003 0.23917 0.0
H129 H 0.12411 0.61622 0.35179 0.0
H130 H 0.08345 0.59211 0.39434 0.0
H131 H 0.97911 0.51132 0.40762 0.0
H132 H 0.94563 0.47393 0.37529 0.0
H133 H 0.951 0.45731 0.26417 0.0
H134 H 0.98494 0.48471 0.2212 0.0
H135 H 0.08617 0.56668 0.20742 0.0
H136 H 0.1261 0.6008 0.24023 0.0
H137 H 0.11182 0.48963 0.27176 0.0
H138 H 0.11003 0.50112 0.3609 0.0
H139 H 0.9626 0.58131 0.25351 0.0
H140 H 0.96509 0.59607 0.34193 0.0
C141 C 0.05433 0.60293 0.74364 0.0
C142 C 0.05866 0.61261 0.77052 0.0
C143 C 0.03382 0.59644 0.78752 0.0
C144 C 0.01569 0.57796 0.77016 0.0
N145 N 0.02756 0.58121 0.74305 0.0
Co146 Co 0.00777 0.55927 0.71064 0.0
N147 N 0.9712 0.53555 0.73576 0.0
C148 C 0.96598 0.53753 0.76372 0.0
C149 C 0.93942 0.51805 0.77535 0.0
C150 C 0.92726 0.50246 0.7536 0.0
C151 C 0.9473 0.51336 0.7299 0.0
N152 N 0.98767 0.53745 0.67819 0.0
C153 C 0.96196 0.51516 0.67781 0.0
C154 C 0.95688 0.50584 0.65083 0.0
C155 C 0.98032 0.52277 0.63357 0.0
C156 C 0.99838 0.54133 0.65088 0.0
N157 N 0.04471 0.58277 0.68556 0.0
C158 C 0.04991 0.58071 0.6576 0.0
C159 C 0.07747 0.59959 0.64613 0.0
C160 C 0.09062 0.61472 0.66802 0.0
C161 C 0.0701 0.6042 0.69166 0.0
N162 N 0.03974 0.53952 0.71642 0.0
C163 C 0.08239 0.50947 0.72436 0.0
C164 C 0.07667 0.51623 0.69754 0.0
C165 C 0.05573 0.53135 0.69408 0.0
C166 C 0.06697 0.51832 0.7472 0.0
C167 C 0.04568 0.53306 0.74278 0.0
N168 N 0.97565 0.579 0.70481 0.0
C169 C 0.94997 0.60128 0.67403 0.0
C170 C 0.9305 0.60733 0.69636 0.0
C171 C 0.93407 0.59892 0.72303 0.0
C172 C 0.95649 0.58488 0.72673 0.0
C173 C 0.97221 0.58734 0.67869 0.0
H174 H 0.95793 0.57911 0.74755 0.0
H175 H 0.9863 0.58354 0.66076 0.0
H176 H 0.05268 0.53602 0.67312 0.0
H177 H 0.03399 0.53877 0.76099 0.0
C178 C 0.98726 0.55744 0.77865 0.0
C179 C 0.07552 0.6155 0.71929 0.0
C180 C 0.94327 0.50151 0.70253 0.0
C181 C 0.02757 0.5614 0.64251 0.0
H182 H 0.0775 0.62976 0.77716 0.0
H183 H 0.02926 0.59809 0.80983 0.0
H184 H 0.93045 0.51529 0.79712 0.0
H185 H 0.90636 0.48485 0.75507 0.0
H186 H 0.93884 0.4883 0.64432 0.0
H187 H 0.98459 0.52126 0.6112 0.0
H188 H 0.08662 0.60221 0.62439 0.0
H189 H 0.11264 0.63171 0.66672 0.0
H190 H 0.08854 0.51002 0.67927 0.0
H191 H 0.07064 0.51341 0.76837 0.0
H192 H 0.9478 0.60697 0.65285 0.0
H193 H 0.91996 0.60336 0.74114 0.0
C194 C 0.38284 0.1021 0.56501 0.0
C195 C 0.41442 0.10354 0.57643 0.0
C196 C 0.43998 0.12098 0.56125 0.0
C197 C 0.42269 0.12906 0.5414 0.0
N198 N 0.38754 0.11795 0.54306 0.0
Co199 Co 0.35265 0.12322 0.51731 0.0
N200 N 0.39007 0.14983 0.49598 0.0
C201 C 0.42474 0.15802 0.50048 0.0
C202 C 0.44346 0.17767 0.4837 0.0
C203 C 0.41919 0.18271 0.46795 0.0
C204 C 0.387 0.16575 0.47609 0.0
N205 N 0.31796 0.128 0.49112 0.0
C206 C 0.32214 0.14536 0.47088 0.0
C207 C 0.29105 0.14254 0.45791 0.0
C208 C 0.26625 0.12289 0.47068 0.0
C209 C 0.28349 0.1149 0.49064 0.0
N210 N 0.31496 0.09732 0.53925 0.0
C211 C 0.28026 0.08945 0.53477 0.0
C212 C 0.26055 0.07235 0.55399 0.0
C213 C 0.28402 0.06903 0.57183 0.0
C214 C 0.31693 0.08419 0.56224 0.0
N215 N 0.34478 0.14927 0.54235 0.0
C216 C 0.33415 0.18688 0.57723 0.0
C217 C 0.30615 0.16994 0.56423 0.0
C218 C 0.31197 0.15134 0.5471 0.0
C219 C 0.36753 0.18471 0.57242 0.0
C220 C 0.37224 0.16598 0.55499 0.0
N221 N 0.36059 0.09701 0.49218 0.0
C222 C 0.33831 0.05764 0.4682 0.0
C223 C 0.37218 0.05821 0.45952 0.0
C224 C 0.40006 0.07886 0.46684 0.0
C225 C 0.39373 0.09786 0.48295 0.0
C226 C 0.33316 0.07706 0.48428 0.0
H227 H 0.41623 0.11282 0.48793 0.0
H228 H 0.30672 0.07531 0.49026 0.0
H229 H 0.28957 0.13884 0.53791 0.0
H230 H 0.39838 0.16547 0.55193 0.0
C231 C 0.43856 0.14766 0.52158 0.0
C232 C 0.34921 0.08505 0.57539 0.0
C233 C 0.35413 0.16602 0.46503 0.0
C234 C 0.26714 0.09772 0.51169 0.0
H235 H 0.41862 0.09299 0.59385 0.0
H236 H 0.46785 0.12707 0.56434 0.0
H237 H 0.47128 0.18761 0.48353 0.0
H238 H 0.42437 0.1975 0.45261 0.0
H239 H 0.28632 0.15407 0.44171 0.0
H240 H 0.23855 0.11615 0.46692 0.0
H241 H 0.23249 0.06323 0.5548 0.0
H242 H 0.27759 0.05668 0.58978 0.0
H243 H 0.27974 0.17078 0.56758 0.0
H244 H 0.39011 0.19762 0.58177 0.0
H245 H 0.31574 0.04226 0.46264 0.0
H246 H 0.42686 0.08013 0.46084 0.0
C247 C 0.4946 0.85668 0.06541 0.0
C248 C 0.50186 0.88 0.07765 0.0
C249 C 0.52783 0.89593 0.06124 0.0
C250 C 0.53489 0.88149 0.04002 0.0
N251 N 0.51456 0.85736 0.04161 0.0
Co252 Co 0.51664 0.82967 0.01574 0.0
N253 N 0.55852 0.85218 0.99416 0.0
C254 C 0.57555 0.87644 0.99945 0.0
C255 C 0.60298 0.88714 0.98077 0.0
C256 C 0.60337 0.86871 0.96227 0.0
C257 C 0.57605 0.84771 0.97081 0.0
N258 N 0.51814 0.80212 0.98946 0.0
C259 C 0.53899 0.80258 0.9662 0.0
C260 C 0.53059 0.77947 0.9533 0.0
C261 C 0.50296 0.76397 0.96863 0.0
C262 C 0.49615 0.7784 0.98995 0.0
N263 N 0.47539 0.80703 0.03787 0.0
C264 C 0.45857 0.78267 0.03303 0.0
C265 C 0.43278 0.77169 0.05295 0.0
C266 C 0.43367 0.78997 0.07202 0.0
C267 C 0.46004 0.81108 0.06252 0.0
N268 N 0.48493 0.83881 0.99042 0.0
C269 C 0.44246 0.85097 0.95157 0.0
C270 C 0.43413 0.82681 0.96214 0.0
C271 C 0.45553 0.8212 0.98133 0.0
C272 C 0.47192 0.86908 0.96126 0.0
C273 C 0.49247 0.8627 0.98063 0.0
N274 N 0.54821 0.8205 0.04099 0.0
C275 C 0.56331 0.78919 0.06674 0.0
C276 C 0.58884 0.80746 0.08065 0.0
C277 C 0.59454 0.83237 0.07361 0.0
C278 C 0.57415 0.83842 0.05384 0.0
C279 C 0.54355 0.79605 0.04711 0.0
H280 H 0.57935 0.85774 0.04972 0.0
H281 H 0.52428 0.78124 0.03751 0.0
H282 H 0.44795 0.80236 0.98813 0.0
H283 H 0.5145 0.87739 0.98713 0.0
C284 C 0.56319 0.88925 0.02053 0.0
C285 C 0.4708 0.83412 0.07836 0.0
C286 C 0.56637 0.82449 0.95509 0.0
C287 C 0.46912 0.7703 0.01055 0.0
H288 H 0.4905 0.88479 0.09702 0.0
H289 H 0.5412 0.91543 0.06511 0.0
H290 H 0.61987 0.9063 0.98009 0.0
H291 H 0.62114 0.87079 0.94409 0.0
H292 H 0.54289 0.77445 0.93454 0.0
H293 H 0.48919 0.74458 0.96451 0.0
H294 H 0.41614 0.75247 0.05398 0.0
H295 H 0.41746 0.78789 0.09115 0.0
H296 H 0.41165 0.81209 0.95513 0.0
H297 H 0.47909 0.88818 0.95401 0.0
H298 H 0.55839 0.7696 0.07104 0.0
H299 H 0.61391 0.84724 0.08392 0.0
C300 C 0.82357 0.9725 0.57973 0.0
C301 C 0.85 0.97034 0.59598 0.0
C302 C 0.88038 0.98723 0.58568 0.0
C303 C 0.87073 0.99863 0.5638 0.0
N304 N 0.83588 0.99054 0.56001 0.0
Co305 Co 0.81096 0.99993 0.52892 0.0
N306 N 0.85587 0.02325 0.51213 0.0
C307 C 0.8883 0.02818 0.52187 0.0
C308 C 0.91331 0.04706 0.50778 0.0
C309 C 0.89561 0.05524 0.48845 0.0
C310 C 0.86076 0.04069 0.49181 0.0
N311 N 0.78623 0.00843 0.49719 0.0
C312 C 0.79837 0.02639 0.47744 0.0
C313 C 0.77258 0.02674 0.45948 0.0
C314 C 0.74267 0.00877 0.46883 0.0
C315 C 0.75197 0.99848 0.49179 0.0
N316 N 0.76579 0.97762 0.54635 0.0
C317 C 0.73317 0.97398 0.5375 0.0
C318 C 0.70744 0.9571 0.55344 0.0
C319 C 0.72472 0.94916 0.5733 0.0
C320 C 0.76014 0.9617 0.56828 0.0
N321 N 0.80456 0.02833 0.55072 0.0
C322 C 0.79942 0.07264 0.57478 0.0
C323 C 0.77238 0.05736 0.55946 0.0
C324 C 0.77522 0.03528 0.54806 0.0
C325 C 0.82828 0.06481 0.5792 0.0
C326 C 0.83039 0.04275 0.56694 0.0
N327 N 0.81741 0.97156 0.50689 0.0
C328 C 0.79259 0.93297 0.48219 0.0
C329 C 0.82572 0.93063 0.47657 0.0
C330 C 0.85472 0.94914 0.48633 0.0
C331 C 0.84999 0.96921 0.50151 0.0
C332 C 0.78908 0.95341 0.49708 0.0
H333 H 0.87308 0.98251 0.50872 0.0
H334 H 0.76309 0.95405 0.50031 0.0
H335 H 0.7537 0.02448 0.53655 0.0
H336 H 0.85355 0.03811 0.57026 0.0
C337 C 0.89378 0.01616 0.54571 0.0
C338 C 0.78766 0.95583 0.58255 0.0
C339 C 0.83262 0.04536 0.47715 0.0
C340 C 0.72826 0.98331 0.51161 0.0
H341 H 0.8476 0.95733 0.61294 0.0
H342 H 0.90653 0.99025 0.59269 0.0
H343 H 0.9408 0.05479 0.51198 0.0
H344 H 0.90689 0.07079 0.47431 0.0
H345 H 0.77479 0.03965 0.44246 0.0
H346 H 0.71671 0.00498 0.46109 0.0
H347 H 0.67969 0.95017 0.54994 0.0
H348 H 0.71272 0.93485 0.58879 0.0
H349 H 0.74918 0.06253 0.5561 0.0
H350 H 0.8497 0.0761 0.5912 0.0
H351 H 0.76936 0.9193 0.47461 0.0
H352 H 0.88093 0.94802 0.48254 0.0
C353 C 0.50297 0.38438 0.08207 0.0
C354 C 0.50461 0.40684 0.09485 0.0
C355 C 0.53085 0.42479 0.0809 0.0
C356 C 0.54359 0.4123 0.06051 0.0
N357 N 0.5266 0.38751 0.06018 0.0
Co358 Co 0.53775 0.36199 0.03529 0.0
N359 N 0.57896 0.38792 0.01685 0.0
C360 C 0.5898 0.41268 0.02203 0.0
C361 C 0.61796 0.42593 0.00526 0.0
C362 C 0.62535 0.40867 0.98808 0.0
C363 C 0.60123 0.38578 0.99549 0.0
N364 N 0.54933 0.33634 0.01083 0.0
C365 C 0.57482 0.33908 0.99042 0.0
C366 C 0.57393 0.31639 0.97859 0.0
C367 C 0.54649 0.2987 0.99165 0.0
C368 C 0.53236 0.31152 0.01072 0.0
N369 N 0.49621 0.33613 0.05341 0.0
C370 C 0.48385 0.31165 0.04699 0.0
C371 C 0.45561 0.29847 0.06374 0.0
C372 C 0.4499 0.31544 0.08227 0.0
C373 C 0.4751 0.33809 0.07567 0.0
N374 N 0.50745 0.36776 0.00627 0.0
C375 C 0.46877 0.37591 0.96204 0.0
C376 C 0.46793 0.35191 0.9691 0.0
C377 C 0.487 0.34827 0.99124 0.0
C378 C 0.48817 0.39574 0.97808 0.0
C379 C 0.50733 0.39129 -0.00014 0.0
N380 N 0.56797 0.35623 0.06418 0.0
C381 C 0.58465 0.32801 0.09376 0.0
C382 C 0.60874 0.34788 0.1068 0.0
C383 C 0.61233 0.37203 0.09796 0.0
C384 C 0.59195 0.37575 0.07669 0.0
C385 C 0.56472 0.33257 0.07272 0.0
H386 H 0.59585 0.39457 0.07083 0.0
H387 H 0.54653 0.31663 0.06394 0.0
H388 H 0.48512 0.32951 0.99545 0.0
H389 H 0.5223 0.40725 0.0108 0.0
C390 C 0.57264 0.42304 0.04242 0.0
C391 C 0.47971 0.36048 0.09234 0.0
C392 C 0.59949 0.36277 0.98077 0.0
C393 C 0.50186 0.30106 0.02746 0.0
H394 H 0.48901 0.4098 0.11282 0.0
H395 H 0.54024 0.44448 0.0856 0.0
H396 H 0.63115 0.44582 0.00521 0.0
H397 H 0.64579 0.41259 0.97162 0.0
H398 H 0.59098 0.31304 0.96186 0.0
H399 H 0.53739 0.27894 0.98729 0.0
H400 H 0.44189 0.27866 0.0634 0.0
H401 H 0.43024 0.3114 0.09933 0.0
H402 H 0.4527 0.33594 0.95748 0.0
H403 H 0.48954 0.41469 0.97327 0.0
H404 H 0.58057 0.30896 0.10013 0.0
H405 H 0.63095 0.38801 0.10726 0.0
H406 H 0.25824 0.41071 0.27995 0.0
H407 H 0.2669 0.42358 0.36888 0.0
H408 H 0.2148 0.43222 0.27934 0.0
H409 H 0.22339 0.44548 0.36813 0.0
H410 H 0.11716 0.46016 0.35697 0.0
H411 H 0.16004 0.43802 0.36002 0.0
H412 H 0.21474 0.47542 0.28503 0.0
H413 H 0.1723 0.49766 0.28209 0.0
C414 C 0.25086 0.4181 0.29941 0.0
C415 C 0.26618 0.41553 0.32445 0.0
C416 C 0.22608 0.43057 0.29901 0.0
C417 C 0.21592 0.44075 0.32363 0.0
C418 C 0.2306 0.43772 0.34885 0.0
C419 C 0.25558 0.42527 0.34925 0.0
C420 C 0.13856 0.46385 0.34131 0.0
C421 C 0.14114 0.48053 0.31914 0.0
C422 C 0.16308 0.45115 0.34307 0.0
C423 C 0.19057 0.45483 0.32264 0.0
C424 C 0.19345 0.47182 0.30078 0.0
C425 C 0.16907 0.48453 0.29907 0.0
H426 H 0.21539 0.74931 0.7894 0.0
H427 H 0.20157 0.77204 0.70607 0.0
H428 H 0.18003 0.70674 0.77908 0.0
H429 H 0.16672 0.72942 0.69565 0.0
H430 H 0.0689 0.65927 0.70244 0.0
H431 H 0.10878 0.70132 0.70991 0.0
H432 H 0.17906 0.67026 0.75059 0.0
H433 H 0.13865 0.62823 0.74328 0.0
C434 C 0.20513 0.74519 0.76879 0.0
C435 C 0.21112 0.76412 0.74863 0.0
C436 C 0.18502 0.72075 0.76283 0.0
C437 C 0.17042 0.71472 0.73658 0.0
C438 C 0.17716 0.73354 0.7162 0.0
C439 C 0.1973 0.75795 0.72215 0.0
C440 C 0.09307 0.66159 0.71274 0.0
C441 C 0.10091 0.64079 0.72239 0.0
C442 C 0.11595 0.68556 0.71693 0.0
C443 C 0.14709 0.68913 0.73088 0.0
C444 C 0.15511 0.66814 0.74008 0.0
C445 C 0.13221 0.64415 0.7358 0.0
H446 H 0.93051 0.73346 0.26859 0.0
H447 H 0.82662 0.68619 0.2945 0.0
H448 H 0.95261 0.69834 0.27247 0.0
H449 H 0.84865 0.65087 0.29782 0.0
H450 H 0.91044 0.60161 0.33071 0.0
H451 H 0.88623 0.63571 0.32612 0.0
H452 H 0.94952 0.65935 0.24975 0.0
H453 H 0.97478 0.62596 0.25495 0.0
C454 C 0.91233 0.71554 0.27499 0.0
C455 C 0.8768 0.71264 0.28125 0.0
C456 C 0.92497 0.69534 0.27703 0.0
C457 C 0.90238 0.67174 0.28534 0.0
C458 C 0.86682 0.66885 0.29164 0.0
C459 C 0.85417 0.68907 0.2896 0.0
C460 C 0.91927 0.61413 0.31299 0.0
C461 C 0.94466 0.61107 0.29326 0.0
C462 C 0.90511 0.63353 0.3102 0.0
C463 C 0.91606 0.65035 0.28763 0.0
C464 C 0.94087 0.64695 0.2676 0.0
C465 C 0.955 0.62757 0.27038 0.0
H466 H 0.82847 0.34662 0.73802 0.0
H467 H 0.80602 0.35619 0.65243 0.0
H468 H 0.86517 0.39009 0.73944 0.0
H469 H 0.84367 0.39959 0.65352 0.0
H470 H 0.87997 0.48288 0.6791 0.0
H471 H 0.8434 0.43914 0.67661 0.0
H472 H 0.92145 0.41726 0.71888 0.0
H473 H 0.95769 0.46103 0.72134 0.0
C474 C 0.83103 0.35811 0.71963 0.0
C475 C 0.81373 0.3482 0.69534 0.0
C476 C 0.85252 0.3829 0.72028 0.0
C477 C 0.85717 0.39831 0.69663 0.0
C478 C 0.84021 0.38828 0.67219 0.0
C479 C 0.81888 0.36342 0.6715 0.0
C480 C 0.88919 0.46858 0.68763 0.0
C481 C 0.92151 0.47504 0.70024 0.0
C482 C 0.86845 0.44363 0.68616 0.0
C483 C 0.87957 0.42476 0.69754 0.0
C484 C 0.91201 0.43138 0.71018 0.0
C485 C 0.9328 0.45631 0.71148 0.0
H486 H 0.27927 0.2589 0.36116 0.0
H487 H 0.36224 0.31284 0.40353 0.0
H488 H 0.29217 0.22527 0.38498 0.0
H489 H 0.37529 0.27904 0.42724 0.0
H490 H 0.35594 0.21068 0.48713 0.0
H491 H 0.34745 0.24618 0.46305 0.0
H492 H 0.33985 0.20625 0.38486 0.0
H493 H 0.34821 0.17084 0.40918 0.0
C494 C 0.30023 0.26359 0.37559 0.0
C495 C 0.31972 0.28855 0.38046 0.0
C496 C 0.3078 0.2443 0.38906 0.0
C497 C 0.33491 0.24952 0.40782 0.0
C498 C 0.35413 0.27447 0.413 0.0
C499 C 0.3467 0.2938 0.39936 0.0
C500 C 0.35288 0.20979 0.46474 0.0
C501 C 0.35242 0.18822 0.44987 0.0
C502 C 0.3481 0.23001 0.45096 0.0
C503 C 0.34266 0.22888 0.42212 0.0
C504 C 0.34341 0.20749 0.40717 0.0
C505 C 0.3484 0.18735 0.42094 0.0
H506 H 0.35594 0.92228 0.82676 0.0
H507 H 0.28292 0.84778 0.83417 0.0
H508 H 0.39142 0.9124 0.86174 0.0
H509 H 0.31936 0.83739 0.86792 0.0
H510 H 0.37098 0.83649 0.95063 0.0
H511 H 0.33563 0.84619 0.91533 0.0
H512 H 0.43003 0.88851 0.86869 0.0
H513 H 0.46528 0.8791 0.90425 0.0
C514 C 0.34773 0.90365 0.83554 0.0
C515 C 0.31698 0.88564 0.82716 0.0
C516 C 0.36822 0.89792 0.85545 0.0
C517 C 0.35842 0.87404 0.86754 0.0
C518 C 0.32762 0.85602 0.85915 0.0
C519 C 0.30706 0.8618 0.8393 0.0
C520 C 0.38414 0.84777 0.93276 0.0
C521 C 0.4209 0.85708 0.93025 0.0
C522 C 0.3639 0.85327 0.91247 0.0
C523 C 0.37996 0.8681 0.8891 0.0
C524 C 0.41676 0.87737 0.88661 0.0
C525 C 0.43699 0.87198 0.90699 0.0
H526 H 0.8776 0.82923 0.35433 0.0
H527 H 0.76484 0.80892 0.36496 0.0
H528 H 0.88349 0.85815 0.39351 0.0
H529 H 0.77073 0.838 0.40342 0.0
H530 H 0.78726 0.88152 0.48204 0.0
H531 H 0.78832 0.84752 0.45058 0.0
H532 H 0.87349 0.89804 0.40113 0.0
H533 H 0.87272 0.93191 0.43292 0.0
C534 C 0.85409 0.83069 0.36521 0.0
C535 C 0.82075 0.81688 0.35636 0.0
C536 C 0.85748 0.84738 0.38753 0.0
C537 C 0.8276 0.8505 0.40154 0.0
C538 C 0.79432 0.83588 0.3934 0.0
C539 C 0.79094 0.81929 0.37114 0.0
C540 C 0.80643 0.88526 0.46459 0.0
C541 C 0.82961 0.90942 0.45971 0.0
C542 C 0.80702 0.86581 0.44655 0.0
C543 C 0.83067 0.87011 0.42311 0.0
C544 C 0.85515 0.894 0.41912 0.0
C545 C 0.85467 0.91345 0.43729 0.0
H546 H 0.68716 0.3797 0.80941 0.0
H547 H 0.73993 0.33543 0.85099 0.0
H548 H 0.65711 0.38433 0.85362 0.0
H549 H 0.70935 0.33968 0.89505 0.0
H550 H 0.66938 0.36922 0.97473 0.0
H551 H 0.70406 0.36933 0.93106 0.0
H552 H 0.61101 0.35736 0.88439 0.0
H553 H 0.5769 0.35781 0.92806 0.0
C554 C 0.69249 0.37105 0.82799 0.0
C555 C 0.7158 0.35707 0.82663 0.0
C556 C 0.6751 0.37359 0.85329 0.0
C557 C 0.68064 0.36222 0.87781 0.0
C558 C 0.70474 0.34886 0.87661 0.0
C559 C 0.72213 0.34632 0.8513 0.0
C560 C 0.65667 0.36682 0.955 0.0
C561 C 0.62077 0.3636 0.95443 0.0
C562 C 0.67632 0.36673 0.9301 0.0
C563 C 0.66029 0.36339 0.90425 0.0
C564 C 0.62427 0.36037 0.90387 0.0
C565 C 0.60469 0.36046 0.92877 0.0
H566 H 0.32801 0.95781 0.68438 0.0
H567 H 0.28474 0.0076 0.73165 0.0
H568 H 0.34881 0.98898 0.64738 0.0
H569 H 0.30433 0.03838 0.69431 0.0
H570 H 0.3607 0.09642 0.63025 0.0
H571 H 0.35243 0.06735 0.66944 0.0
H572 H 0.32363 0.00558 0.61175 0.0
H573 H 0.33341 0.03484 0.57282 0.0
C574 C 0.32304 0.97545 0.68691 0.0
C575 C 0.30452 0.98017 0.71086 0.0
C576 C 0.3348 0.99328 0.66563 0.0
C577 C 0.32803 0.01616 0.66769 0.0
C578 C 0.31047 0.02114 0.69211 0.0
C579 C 0.29899 0.0034 0.71348 0.0
C580 C 0.35323 0.07661 0.62613 0.0
C581 C 0.34759 0.06769 0.59877 0.0
C582 C 0.34818 0.05995 0.64848 0.0
C583 C 0.3371 0.03407 0.64383 0.0
C584 C 0.33263 0.02534 0.61616 0.0
C585 C 0.33796 0.04201 0.59386 0.0
H586 H 0.74136 0.77837 0.18823 0.0
H587 H 0.65048 0.775 0.242 0.0
H588 H 0.71047 0.78469 0.14774 0.0
H589 H 0.62 0.78169 0.20177 0.0
H590 H 0.56311 0.77212 0.12143 0.0
H591 H 0.59436 0.76169 0.15921 0.0
H592 H 0.68966 0.81757 0.12922 0.0
H593 H 0.65863 0.82741 0.09075 0.0
C594 C 0.71476 0.77883 0.1914 0.0
C595 C 0.69841 0.77622 0.21835 0.0
C596 C 0.69717 0.78262 0.16824 0.0
C597 C 0.66281 0.78375 0.17154 0.0
C598 C 0.64627 0.78061 0.19843 0.0
C599 C 0.66385 0.77691 0.22154 0.0
C600 C 0.59086 0.78191 0.1226 0.0
C601 C 0.60838 0.80061 0.10306 0.0
C602 C 0.60869 0.77612 0.14444 0.0
C603 C 0.64446 0.78887 0.1473 0.0
C604 C 0.66217 0.80724 0.12746 0.0
C605 C 0.64431 0.81308 0.10561 0.0
H606 H 0.73362 0.20189 0.60773 0.0
H607 H 0.81306 0.20923 0.66749 0.0
H608 H 0.74414 0.16471 0.58893 0.0
H609 H 0.82497 0.17265 0.6478 0.0
H610 H 0.80745 0.0902 0.62817 0.0
H611 H 0.80089 0.12913 0.64607 0.0
H612 H 0.78263 0.14897 0.56252 0.0
H613 H 0.78755 0.10951 0.54517 0.0
C614 C 0.75379 0.19578 0.61654 0.0
C615 C 0.77242 0.20843 0.63914 0.0
C616 C 0.76002 0.17449 0.60564 0.0
C617 C 0.78545 0.16554 0.6168 0.0
C618 C 0.80472 0.17865 0.63899 0.0
C619 C 0.7981 0.19975 0.65017 0.0
C620 C 0.80218 0.10302 0.61374 0.0
C621 C 0.79764 0.09685 0.58542 0.0
C622 C 0.79862 0.12541 0.62389 0.0
C623 C 0.79101 0.14226 0.6058 0.0
C624 C 0.78762 0.13627 0.57724 0.0
C625 C 0.79061 0.11373 0.56722 0.0
H626 H 0.33914 0.33021 0.24092 0.0
H627 H 0.43168 0.38841 0.26537 0.0
H628 H 0.36718 0.3285 0.19501 0.0
H629 H 0.45943 0.38701 0.21919 0.0
H630 H 0.51038 0.36216 0.14166 0.0
H631 H 0.48333 0.36083 0.18888 0.0
H632 H 0.38436 0.35472 0.15338 0.0
H633 H 0.4116 0.35563 0.1063 0.0
C634 C 0.3655 0.34261 0.23654 0.0
C635 C 0.38313 0.35952 0.2568 0.0
C636 C 0.38148 0.34172 0.21015 0.0
C637 C 0.41543 0.35772 0.20339 0.0
C638 C 0.43337 0.37425 0.22384 0.0
C639 C 0.4174 0.37513 0.25027 0.0
C640 C 0.4828 0.36037 0.14419 0.0
C641 C 0.46281 0.35881 0.12072 0.0
C642 C 0.46738 0.35976 0.17108 0.0
C643 C 0.43169 0.35765 0.17487 0.0
C644 C 0.41175 0.35597 0.15117 0.0
C645 C 0.42723 0.35659 0.1243 0.0
H646 H 0.77839 0.68843 0.7094 0.0
H647 H 0.79979 0.68196 0.62074 0.0
H648 H 0.82115 0.66761 0.71935 0.0
H649 H 0.84237 0.66107 0.63075 0.0
H650 H 0.94077 0.64674 0.66052 0.0
H651 H 0.90048 0.66982 0.65174 0.0
H652 H 0.82586 0.62484 0.7133 0.0
H653 H 0.86573 0.60136 0.72175 0.0
C654 C 0.79232 0.68269 0.69204 0.0
C655 C 0.78564 0.68681 0.66428 0.0
C656 C 0.81665 0.67064 0.69776 0.0
C657 C 0.83504 0.66267 0.67583 0.0
C658 C 0.82884 0.66721 0.64809 0.0
C659 C 0.80431 0.67907 0.64237 0.0
C660 C 0.91566 0.64159 0.67203 0.0
C661 C 0.90649 0.62207 0.69176 0.0
C662 C 0.89263 0.65489 0.66704 0.0
C663 C 0.86001 0.64912 0.68181 0.0
C664 C 0.85102 0.62992 0.70186 0.0
C665 C 0.87394 0.6165 0.70672 0.0
H666 H 0.80682 0.33983 0.3543 0.0
H667 H 0.90119 0.31937 0.34498 0.0
H668 H 0.84053 0.38319 0.34542 0.0
H669 H 0.9352 0.36276 0.33486 0.0
H670 H 0.99083 0.44606 0.34438 0.0
H671 H 0.9575 0.4025 0.35419 0.0
H672 H 0.87049 0.4115 0.31089 0.0
H673 H 0.90328 0.45538 0.30293 0.0
C674 C 0.83478 0.34461 0.34972 0.0
C675 C 0.85135 0.32624 0.34982 0.0
C676 C 0.85419 0.36951 0.34459 0.0
C677 C 0.89069 0.37665 0.33909 0.0
C678 C 0.90726 0.35813 0.33935 0.0
C679 C 0.88781 0.33323 0.34496 0.0
C680 C 0.96451 0.43856 0.33711 0.0
C681 C 0.94962 0.45382 0.32269 0.0
C682 C 0.94548 0.41358 0.34246 0.0
C683 C 0.91122 0.40327 0.33327 0.0
C684 C 0.89652 0.41874 0.31873 0.0
C685 C 0.91537 0.44381 0.31381 0.0
H686 H 0.25353 0.44882 0.73696 0.0
H687 H 0.16062 0.38503 0.74952 0.0
H688 H 0.21687 0.47564 0.73285 0.0
H689 H 0.12406 0.41188 0.74502 0.0
H690 H 0.07701 0.46536 0.69859 0.0
H691 H 0.11304 0.43834 0.70469 0.0
H692 H 0.17258 0.48964 0.76512 0.0
H693 H 0.13632 0.5166 0.75916 0.0
C694 C 0.22531 0.44054 0.73883 0.0
C695 C 0.20993 0.41482 0.74354 0.0
C696 C 0.20438 0.4559 0.73663 0.0
C697 C 0.16769 0.44579 0.73861 0.0
C698 C 0.1523 0.42009 0.74326 0.0
C699 C 0.17322 0.40478 0.74594 0.0
C700 C 0.09782 0.47083 0.71314 0.0
C701 C 0.10398 0.49305 0.72838 0.0
C702 C 0.11823 0.45533 0.71677 0.0
C703 C 0.14554 0.46195 0.73536 0.0
C704 C 0.15178 0.4842 0.75055 0.0
C705 C 0.13097 0.49951 0.74728 0.0
H706 H 0.3132 0.70057 0.26752 0.0
H707 H 0.2472 0.74493 0.29285 0.0
H708 H 0.26254 0.663 0.27118 0.0
H709 H 0.19677 0.70735 0.29717 0.0
H710 H 0.10747 0.63737 0.27651 0.0
H711 H 0.15815 0.67498 0.27 0.0
H712 H 0.22343 0.6372 0.30674 0.0
H713 H 0.17273 0.5995 0.31236 0.0
C714 C 0.2879 0.70232 0.27387 0.0
C715 C 0.28428 0.72576 0.27992 0.0
C716 C 0.25888 0.68075 0.27615 0.0
C717 C 0.22559 0.68212 0.28458 0.0
C718 C 0.22193 0.70562 0.29028 0.0
C719 C 0.25091 0.72718 0.28794 0.0
C720 C 0.13279 0.63726 0.28303 0.0
C721 C 0.13653 0.61577 0.29484 0.0
C722 C 0.16172 0.65875 0.27951 0.0
C723 C 0.19489 0.65913 0.28785 0.0
C724 C 0.19842 0.63745 0.2997 0.0
C725 C 0.16948 0.61596 0.30313 0.0
H726 H 0.74916 0.82102 0.68404 0.0
H727 H 0.72446 0.7964 0.59963 0.0
H728 H 0.76536 0.86432 0.66851 0.0
H729 H 0.74068 0.83946 0.58413 0.0
H730 H 0.75407 0.93757 0.63253 0.0
H731 H 0.7397 0.89489 0.65051 0.0
H732 H 0.79239 0.87532 0.57718 0.0
H733 H 0.80579 0.91773 0.55919 0.0
C734 C 0.74653 0.82479 0.66233 0.0
C735 C 0.73497 0.80523 0.64319 0.0
C736 C 0.75604 0.84963 0.65337 0.0
C737 C 0.7544 0.85537 0.62505 0.0
C738 C 0.74284 0.83574 0.60599 0.0
C739 C 0.73337 0.81103 0.61493 0.0
C740 C 0.76256 0.92402 0.62048 0.0
C741 C 0.78068 0.9306 0.5945 0.0
C742 C 0.75458 0.89971 0.63076 0.0
C743 C 0.76466 0.88163 0.61517 0.0
C744 C 0.78369 0.88863 0.58948 0.0
C745 C 0.7916 0.91288 0.57925 0.0
H746 H 0.73939 0.35331 0.24907 0.0
H747 H 0.6866 0.27527 0.23412 0.0
H748 H 0.71137 0.36424 0.20933 0.0
H749 H 0.65814 0.2862 0.19491 0.0
H750 H 0.64108 0.31226 0.10931 0.0
H751 H 0.67215 0.3031 0.14801 0.0
H752 H 0.65386 0.36377 0.19512 0.0
H753 H 0.62292 0.37302 0.15625 0.0
C754 C 0.72172 0.3385 0.23739 0.0
C755 C 0.71528 0.31342 0.24474 0.0
C756 C 0.70554 0.34477 0.2147 0.0
C757 C 0.68261 0.3261 0.19887 0.0
C758 C 0.67611 0.30104 0.20635 0.0
C759 C 0.69227 0.29478 0.22897 0.0
C760 C 0.64363 0.32361 0.12795 0.0
C761 C 0.62938 0.34327 0.12978 0.0
C762 C 0.66139 0.31834 0.15015 0.0
C763 C 0.66526 0.33258 0.17475 0.0
C764 C 0.65168 0.35261 0.17635 0.0
C765 C 0.63395 0.35792 0.15409 0.0
H766 H 0.30635 0.2775 0.71867 0.0
H767 H 0.32078 0.32617 0.64707 0.0
H768 H 0.3078 0.24334 0.68777 0.0
H769 H 0.32252 0.29187 0.61613 0.0
H770 H 0.29442 0.2172 0.56856 0.0
H771 H 0.28637 0.2501 0.59919 0.0
H772 H 0.35423 0.2342 0.65819 0.0
H773 H 0.36166 0.20111 0.62796 0.0
C774 C 0.30958 0.28089 0.69632 0.0
C775 C 0.31373 0.30463 0.68535 0.0
C776 C 0.31059 0.26132 0.67864 0.0
C777 C 0.31563 0.26498 0.64956 0.0
C778 C 0.31842 0.28845 0.63845 0.0
C779 C 0.31757 0.30812 0.65618 0.0
C780 C 0.30731 0.22061 0.58821 0.0
C781 C 0.3287 0.20661 0.59587 0.0
C782 C 0.30294 0.23957 0.60561 0.0
C783 C 0.3196 0.24469 0.63111 0.0
C784 C 0.34072 0.23051 0.63883 0.0
C785 C 0.34528 0.21174 0.62138 0.0
H786 H 0.48725 0.86051 0.25521 0.0
H787 H 0.37535 0.83102 0.24731 0.0
H788 H 0.49647 0.85527 0.20513 0.0
H789 H 0.38458 0.82493 0.19724 0.0
H790 H 0.418 0.84795 0.10411 0.0
H791 H 0.40552 0.85038 0.1546 0.0
H792 H 0.49065 0.8221 0.1707 0.0
H793 H 0.50314 0.82012 0.12026 0.0
C794 C 0.4646 0.85268 0.2428 0.0
C795 C 0.43058 0.84573 0.25532 0.0
C796 C 0.4699 0.84948 0.21414 0.0
C797 C 0.44127 0.83943 0.19724 0.0
C798 C 0.40717 0.8327 0.2097 0.0
C799 C 0.40189 0.83582 0.23847 0.0
C800 C 0.43367 0.8421 0.11862 0.0
C801 C 0.46148 0.83393 0.10869 0.0
C802 C 0.42653 0.84336 0.14741 0.0
C803 C 0.44721 0.83654 0.16666 0.0
C804 C 0.47456 0.82781 0.15645 0.0
C805 C 0.4816 0.82651 0.1277 0.0
H806 H 0.83199 0.19783 0.45405 0.0
H807 H 0.8318 0.16744 0.37082 0.0
H808 H 0.83933 0.16025 0.47332 0.0
H809 H 0.83791 0.12952 0.39011 0.0
H810 H 0.8707 0.06916 0.43093 0.0
H811 H 0.87403 0.11017 0.41271 0.0
H812 H 0.80385 0.11822 0.48096 0.0
H813 H 0.80191 0.07781 0.49943 0.0
C814 C 0.83373 0.18319 0.43984 0.0
C815 C 0.8311 0.18558 0.41092 0.0
C816 C 0.83768 0.16154 0.45091 0.0
C817 C 0.83881 0.14167 0.43334 0.0
C818 C 0.83752 0.14449 0.40428 0.0
C819 C 0.83383 0.16623 0.3932 0.0
C820 C 0.85655 0.08003 0.44212 0.0
C821 C 0.83634 0.07065 0.46662 0.0
C822 C 0.85814 0.10336 0.43163 0.0
C823 C 0.83923 0.11759 0.44534 0.0
C824 C 0.81928 0.10809 0.47008 0.0
C825 C 0.81788 0.08488 0.48059 0.0
H826 H 0.41154 0.39863 0.79484 0.0
H827 H 0.31408 0.38026 0.84462 0.0
H828 H 0.44323 0.39937 0.837 0.0
H829 H 0.34613 0.38111 0.8869 0.0
H830 H 0.4247 0.40391 0.95858 0.0
H831 H 0.39414 0.40989 0.9174 0.0
H832 H 0.44207 0.36343 0.86892 0.0
H833 H 0.47232 0.35746 0.90981 0.0
C834 C 0.39689 0.39513 0.81479 0.0
C835 C 0.36019 0.38911 0.8163 0.0
C836 C 0.41508 0.39546 0.83891 0.0
C837 C 0.39706 0.39004 0.86512 0.0
C838 C 0.36064 0.38543 0.86693 0.0
C839 C 0.34233 0.38486 0.84272 0.0
C840 C 0.42874 0.39514 0.93903 0.0
C841 C 0.45069 0.38014 0.93733 0.0
C842 C 0.4112 0.39846 0.91559 0.0
C843 C 0.41592 0.38722 0.89 0.0
C844 C 0.43826 0.37254 0.8883 0.0
C845 C 0.45531 0.36893 0.91174 0.0
H846 H 0.47125 0.95764 0.38047 0.0
H847 H 0.36075 0.91696 0.37832 0.0
H848 H 0.45732 0.99312 0.40115 0.0
H849 H 0.34684 0.95264 0.39857 0.0
H850 H 0.33957 0.00835 0.46799 0.0
H851 H 0.35164 0.97372 0.44366 0.0
H852 H 0.43151 0.02559 0.39118 0.0
H853 H 0.41935 0.06031 0.4155 0.0
C854 C 0.44398 0.95635 0.38415 0.0
C855 C 0.41711 0.93442 0.37786 0.0
C856 C 0.43599 0.97675 0.39587 0.0
C857 C 0.40097 0.97569 0.40159 0.0
C858 C 0.3741 0.95393 0.39478 0.0
C859 C 0.38208 0.93353 0.38302 0.0
C860 C 0.35933 0.0124 0.45098 0.0
C861 C 0.37851 0.03713 0.44373 0.0
C862 C 0.36627 0.99252 0.43703 0.0
C863 C 0.39258 0.99688 0.41549 0.0
C864 C 0.41143 0.0216 0.40795 0.0
C865 C 0.40446 0.04149 0.4219 0.0
H866 H 0.62842 0.84312 0.77781 0.0
H867 H 0.68033 0.79297 0.80795 0.0
H868 H 0.60481 0.84642 0.82509 0.0
H869 H 0.65603 0.79577 0.85501 0.0
H870 H 0.6327 0.82436 0.94108 0.0
H871 H 0.6593 0.82355 0.89404 0.0
H872 H 0.56168 0.82114 0.85852 0.0
H873 H 0.5358 0.8227 0.9056 0.0
C874 C 0.63482 0.83281 0.79451 0.0
C875 C 0.65621 0.81774 0.78906 0.0
C876 C 0.62109 0.83457 0.82159 0.0
C877 C 0.62836 0.82126 0.84385 0.0
C878 C 0.65022 0.80651 0.83845 0.0
C879 C 0.66402 0.8048 0.8114 0.0
C880 C 0.61719 0.82374 0.92308 0.0
C881 C 0.58243 0.82369 0.92666 0.0
C882 C 0.63223 0.82313 0.89621 0.0
C883 C 0.61265 0.82233 0.87247 0.0
C884 C 0.5777 0.82217 0.87628 0.0
C885 C 0.56275 0.82285 0.90314 0.0
loop_
_geom_bond_atom_site_label_1
_geom_bond_atom_site_label_2
_geom_bond_distance
_geom_bond_site_symmetry_2
_ccdc_geom_bond_type
O0 Cd1 2.300 . S
O0 C7 1.275 . S
Cd1 O0 2.300 . S
Cd1 O9 2.381 . S
Cd1 O10 2.378 . S
O2 Cd3 2.385 . S
O2 C7 1.255 . S
Cd3 O2 2.385 . S
Cd3 O4 2.317 . S
O4 Cd3 2.317 . S
O4 C5 1.232 . S
C5 O4 1.232 . S
C5 O6 1.218 . S
O6 C5 1.218 . S
C7 O0 1.275 . S
C7 O2 1.255 . S
C8 O9 1.258 . S
C8 O10 1.256 . S
O9 Cd1 2.381 . S
O9 C8 1.258 . S
O10 Cd1 2.378 . S
O10 C8 1.256 . S
O11 Cd12 2.300 . S
O11 C18 1.275 . S
Cd12 O11 2.300 . S
Cd12 O20 2.381 . S
Cd12 O21 2.378 . S
O13 Cd14 2.385 . S
O13 C18 1.255 . S
Cd14 O13 2.385 . S
Cd14 O15 2.317 . S
O15 Cd14 2.317 . S
O15 C16 1.232 . S
C16 O15 1.232 . S
C16 O17 1.218 . S
O17 C16 1.218 . S
C18 O11 1.275 . S
C18 O13 1.255 . S
C19 O20 1.258 . S
C19 O21 1.256 . S
O20 Cd12 2.381 . S
O20 C19 1.258 . S
O21 Cd12 2.378 . S
O21 C19 1.256 . S
O22 Cd23 2.300 . S
O22 C29 1.275 . S
Cd23 O22 2.300 . S
Cd23 O31 2.381 . S
Cd23 O32 2.378 . S
O24 Cd25 2.385 . S
O24 C29 1.255 . S
Cd25 O24 2.385 . S
Cd25 O26 2.317 . S
O26 Cd25 2.317 . S
O26 C27 1.232 . S
C27 O26 1.232 . S
C27 O28 1.218 . S
O28 C27 1.218 . S
C29 O22 1.275 . S
C29 O24 1.255 . S
C30 O31 1.258 . S
C30 O32 1.256 . S
O31 Cd23 2.381 . S
O31 C30 1.258 . S
O32 Cd23 2.378 . S
O32 C30 1.256 . S
O33 Cd34 2.300 . S
O33 C40 1.275 . S
Cd34 O33 2.300 . S
Cd34 O42 2.381 . S
Cd34 O43 2.378 . S
O35 Cd36 2.385 . S
O35 C40 1.255 . S
Cd36 O35 2.385 . S
Cd36 O37 2.317 . S
O37 Cd36 2.317 . S
O37 C38 1.232 . S
C38 O37 1.232 . S
C38 O39 1.218 . S
O39 C38 1.218 . S
C40 O33 1.275 . S
C40 O35 1.255 . S
C41 O42 1.258 . S
C41 O43 1.256 . S
O42 Cd34 2.381 . S
O42 C41 1.258 . S
O43 Cd34 2.378 . S
O43 C41 1.256 . S
O44 Cd45 2.300 . S
O44 C51 1.275 . S
Cd45 O44 2.300 . S
Cd45 O53 2.381 . S
Cd45 O54 2.378 . S
O46 Cd47 2.385 . S
O46 C51 1.255 . S
Cd47 O46 2.385 . S
Cd47 O48 2.317 . S
O48 Cd47 2.317 . S
O48 C49 1.232 . S
C49 O48 1.232 . S
C49 O50 1.218 . S
O50 C49 1.218 . S
C51 O44 1.275 . S
C51 O46 1.255 . S
C52 O53 1.258 . S
C52 O54 1.256 . S
O53 Cd45 2.381 . S
O53 C52 1.258 . S
O54 Cd45 2.378 . S
O54 C52 1.256 . S
O55 Cd56 2.300 . S
O55 C62 1.275 . S
Cd56 O55 2.300 . S
Cd56 O64 2.381 . S
Cd56 O65 2.378 . S
O57 Cd58 2.385 . S
O57 C62 1.255 . S
Cd58 O57 2.385 . S
Cd58 O59 2.317 . S
O59 Cd58 2.317 . S
O59 C60 1.232 . S
C60 O59 1.232 . S
C60 O61 1.218 . S
O61 C60 1.218 . S
C62 O55 1.275 . S
C62 O57 1.255 . S
C63 O64 1.258 . S
C63 O65 1.256 . S
O64 Cd56 2.381 . S
O64 C63 1.258 . S
O65 Cd56 2.378 . S
O65 C63 1.256 . S
O66 Cd67 2.300 . S
O66 C73 1.275 . S
Cd67 O66 2.300 . S
Cd67 O75 2.381 . S
Cd67 O76 2.378 . S
O68 Cd69 2.385 . S
O68 C73 1.255 . S
Cd69 O68 2.385 . S
Cd69 O70 2.317 . S
O70 Cd69 2.317 . S
O70 C71 1.232 . S
C71 O70 1.232 . S
C71 O72 1.218 . S
O72 C71 1.218 . S
C73 O66 1.275 . S
C73 O68 1.255 . S
C74 O75 1.258 . S
C74 O76 1.256 . S
O75 Cd67 2.381 . S
O75 C74 1.258 . S
O76 Cd67 2.378 . S
O76 C74 1.256 . S
O77 Cd78 2.300 . S
O77 C84 1.275 . S
Cd78 O77 2.300 . S
Cd78 O86 2.381 . S
Cd78 O87 2.378 . S
O79 Cd80 2.385 . S
O79 C84 1.255 . S
Cd80 O79 2.385 . S
Cd80 O81 2.317 . S
O81 Cd80 2.317 . S
O81 C82 1.232 . S
C82 O81 1.232 . S
C82 O83 1.218 . S
O83 C82 1.218 . S
C84 O77 1.275 . S
C84 O79 1.255 . S
C85 O86 1.258 . S
C85 O87 1.256 . S
O86 Cd78 2.381 . S
O86 C85 1.258 . S
O87 Cd78 2.378 . S
O87 C85 1.256 . S
C88 C89 1.443 . S
C88 N92 1.376 . S
C88 C126 1.389 . S
C89 C88 1.443 . S
C89 C90 1.340 . S
C89 H129 0.951 . S
C90 C89 1.340 . S
C90 C91 1.439 . S
C90 H130 0.950 . S
C91 C90 1.439 . S
C91 N92 1.374 . S
C91 C125 1.395 . S
N92 C88 1.376 . S
N92 C91 1.374 . S
N92 Co93 2.008 . S
Co93 N92 2.008 . S
Co93 N94 1.995 . S
Co93 N99 2.008 . S
Co93 N104 1.995 . S
Co93 N109 2.282 . S
Co93 N115 2.282 . S
N94 Co93 1.995 . S
N94 C95 1.376 . S
N94 C98 1.383 . S
C95 N94 1.376 . S
C95 C96 1.446 . S
C95 C125 1.391 . S
C96 C95 1.446 . S
C96 C97 1.339 1_455 S
C96 H131 0.949 1_455 S
C97 C96 1.339 1_655 S
C97 C98 1.439 1_655 S
C97 H132 0.950 . S
C98 N94 1.383 . S
C98 C97 1.439 1_455 S
C98 C127 1.392 . S
N99 Co93 2.008 . S
N99 C100 1.376 . S
N99 C103 1.374 . S
C100 N99 1.376 . S
C100 C101 1.443 . S
C100 C127 1.389 . S
C101 C100 1.443 . S
C101 C102 1.340 . S
C101 H133 0.948 1_455 S
C102 C101 1.340 . S
C102 C103 1.439 . S
C102 H134 0.950 . S
C103 N99 1.374 . S
C103 C102 1.439 . S
C103 C128 1.395 . S
N104 Co93 1.995 . S
N104 C105 1.376 . S
N104 C108 1.383 . S
C105 N104 1.376 . S
C105 C106 1.446 . S
C105 C128 1.391 . S
C106 C105 1.446 . S
C106 C107 1.339 . S
C106 H135 0.949 . S
C107 C106 1.339 . S
C107 C108 1.439 . S
C107 H136 0.950 . S
C108 N104 1.383 . S
C108 C107 1.439 . S
C108 C126 1.392 . S
N109 Co93 2.282 . S
N109 C112 1.332 . S
N109 C114 1.332 . S
C110 C111 1.386 . S
C110 C113 1.388 . S
C111 C110 1.386 . S
C111 C112 1.382 . S
C111 H137 0.950 . S
C112 N109 1.332 . S
C112 C111 1.382 . S
C112 H123 0.952 . S
C113 C110 1.388 . S
C113 C114 1.382 . S
C113 H138 0.950 . S
C114 N109 1.332 . S
C114 C113 1.382 . S
C114 H124 0.948 . S
N115 Co93 2.282 . S
N115 C119 1.349 . S
N115 C120 1.332 . S
C116 C117 1.382 1_455 S
C116 C120 1.391 . S
C116 H139 0.954 . S
C117 C116 1.382 1_655 S
C117 C118 1.386 . S
C118 C117 1.386 . S
C118 C119 1.358 1_655 S
C118 H140 0.950 . S
C119 N115 1.349 . S
C119 C118 1.358 1_455 S
C119 H121 0.952 . S
C120 N115 1.332 . S
C120 C116 1.391 . S
C120 H122 0.948 . S
H121 C119 0.952 . S
H122 C120 0.948 . S
H123 C112 0.952 . S
H124 C114 0.948 . S
C125 C91 1.395 . S
C125 C95 1.391 . S
C126 C88 1.389 . S
C126 C108 1.392 . S
C127 C98 1.392 . S
C127 C100 1.389 . S
C128 C103 1.395 . S
C128 C105 1.391 . S
H129 C89 0.951 . S
H130 C90 0.950 . S
H131 C96 0.949 1_655 S
H132 C97 0.950 . S
H133 C101 0.948 1_655 S
H134 C102 0.950 . S
H135 C106 0.949 . S
H136 C107 0.950 . S
H137 C111 0.950 . S
H138 C113 0.950 . S
H139 C116 0.954 . S
H140 C118 0.950 . S
C141 C142 1.443 . S
C141 N145 1.376 . S
C141 C179 1.389 . S
C142 C141 1.443 . S
C142 C143 1.340 . S
C142 H182 0.951 . S
C143 C142 1.340 . S
C143 C144 1.439 . S
C143 H183 0.950 . S
C144 C143 1.439 . S
C144 N145 1.374 . S
C144 C178 1.395 1_455 S
N145 C141 1.376 . S
N145 C144 1.374 . S
N145 Co146 2.008 . S
Co146 N145 2.008 . S
Co146 N147 1.995 1_455 S
Co146 N152 2.008 1_455 S
Co146 N157 1.995 . S
Co146 N162 2.282 . S
Co146 N168 2.282 1_455 S
N147 Co146 1.995 1_655 S
N147 C148 1.376 . S
N147 C151 1.383 . S
C148 N147 1.376 . S
C148 C149 1.446 . S
C148 C178 1.391 . S
C149 C148 1.446 . S
C149 C150 1.339 . S
C149 H184 0.949 . S
C150 C149 1.339 . S
C150 C151 1.439 . S
C150 H185 0.950 . S
C151 N147 1.383 . S
C151 C150 1.439 . S
C151 C180 1.392 . S
N152 Co146 2.008 1_655 S
N152 C153 1.376 . S
N152 C156 1.374 . S
C153 N152 1.376 . S
C153 C154 1.443 . S
C153 C180 1.389 . S
C154 C153 1.443 . S
C154 C155 1.340 . S
C154 H186 0.951 . S
C155 C154 1.340 . S
C155 C156 1.439 . S
C155 H187 0.950 . S
C156 N152 1.374 . S
C156 C155 1.439 . S
C156 C181 1.395 1_655 S
N157 Co146 1.995 . S
N157 C158 1.376 . S
N157 C161 1.383 . S
C158 N157 1.376 . S
C158 C159 1.446 . S
C158 C181 1.391 . S
C159 C158 1.446 . S
C159 C160 1.339 . S
C159 H188 0.949 . S
C160 C159 1.339 . S
C160 C161 1.439 . S
C160 H189 0.950 . S
C161 N157 1.383 . S
C161 C160 1.439 . S
C161 C179 1.392 . S
N162 Co146 2.282 . S
N162 C165 1.332 . S
N162 C167 1.332 . S
C163 C164 1.386 . S
C163 C166 1.388 . S
C164 C163 1.386 . S
C164 C165 1.382 . S
C164 H190 0.950 . S
C165 N162 1.332 . S
C165 C164 1.382 . S
C165 H176 0.952 . S
C166 C163 1.388 . S
C166 C167 1.382 . S
C166 H191 0.950 . S
C167 N162 1.332 . S
C167 C166 1.382 . S
C167 H177 0.948 . S
N168 Co146 2.282 1_655 S
N168 C172 1.332 . S
N168 C173 1.332 . S
C169 C170 1.388 . S
C169 C173 1.382 . S
C169 H192 0.950 . S
C170 C169 1.388 . S
C170 C171 1.386 . S
C171 C170 1.386 . S
C171 C172 1.382 . S
C171 H193 0.950 . S
C172 N168 1.332 . S
C172 C171 1.382 . S
C172 H174 0.952 . S
C173 N168 1.332 . S
C173 C169 1.382 . S
C173 H175 0.948 . S
H174 C172 0.952 . S
H175 C173 0.948 . S
H176 C165 0.952 . S
H177 C167 0.948 . S
C178 C144 1.395 1_655 S
C178 C148 1.391 . S
C179 C141 1.389 . S
C179 C161 1.392 . S
C180 C151 1.392 . S
C180 C153 1.389 . S
C181 C156 1.395 1_455 S
C181 C158 1.391 . S
H182 C142 0.951 . S
H183 C143 0.950 . S
H184 C149 0.949 . S
H185 C150 0.950 . S
H186 C154 0.951 . S
H187 C155 0.950 . S
H188 C159 0.949 . S
H189 C160 0.950 . S
H190 C164 0.950 . S
H191 C166 0.950 . S
H192 C169 0.950 . S
H193 C171 0.950 . S
C194 C195 1.443 . S
C194 N198 1.376 . S
C194 C232 1.389 . S
C195 C194 1.443 . S
C195 C196 1.340 . S
C195 H235 0.951 . S
C196 C195 1.340 . S
C196 C197 1.439 . S
C196 H236 0.950 . S
C197 C196 1.439 . S
C197 N198 1.374 . S
C197 C231 1.395 . S
N198 C194 1.376 . S
N198 C197 1.374 . S
N198 Co199 2.008 . S
Co199 N198 2.008 . S
Co199 N200 1.995 . S
Co199 N205 2.008 . S
Co199 N210 1.995 . S
Co199 N215 2.282 . S
Co199 N221 2.282 . S
N200 Co199 1.995 . S
N200 C201 1.376 . S
N200 C204 1.383 . S
C201 N200 1.376 . S
C201 C202 1.446 . S
C201 C231 1.391 . S
C202 C201 1.446 . S
C202 C203 1.339 . S
C202 H237 0.949 . S
C203 C202 1.339 . S
C203 C204 1.439 . S
C203 H238 0.950 . S
C204 N200 1.383 . S
C204 C203 1.439 . S
C204 C233 1.392 . S
N205 Co199 2.008 . S
N205 C206 1.376 . S
N205 C209 1.374 . S
C206 N205 1.376 . S
C206 C207 1.443 . S
C206 C233 1.389 . S
C207 C206 1.443 . S
C207 C208 1.340 . S
C207 H239 0.951 . S
C208 C207 1.340 . S
C208 C209 1.439 . S
C208 H240 0.950 . S
C209 N205 1.374 . S
C209 C208 1.439 . S
C209 C234 1.395 . S
N210 Co199 1.995 . S
N210 C211 1.376 . S
N210 C214 1.383 . S
C211 N210 1.376 . S
C211 C212 1.446 . S
C211 C234 1.391 . S
C212 C211 1.446 . S
C212 C213 1.339 . S
C212 H241 0.949 . S
C213 C212 1.339 . S
C213 C214 1.439 . S
C213 H242 0.950 . S
C214 N210 1.383 . S
C214 C213 1.439 . S
C214 C232 1.392 . S
N215 Co199 2.282 . S
N215 C218 1.332 . S
N215 C220 1.332 . S
C216 C217 1.386 . S
C216 C219 1.388 . S
C217 C216 1.386 . S
C217 C218 1.382 . S
C217 H243 0.950 . S
C218 N215 1.332 . S
C218 C217 1.382 . S
C218 H229 0.952 . S
C219 C216 1.388 . S
C219 C220 1.382 . S
C219 H244 0.950 . S
C220 N215 1.332 . S
C220 C219 1.382 . S
C220 H230 0.948 . S
N221 Co199 2.282 . S
N221 C225 1.332 . S
N221 C226 1.332 . S
C222 C223 1.388 . S
C222 C226 1.382 . S
C222 H245 0.950 . S
C223 C222 1.388 . S
C223 C224 1.386 . S
C224 C223 1.386 . S
C224 C225 1.382 . S
C224 H246 0.950 . S
C225 N221 1.332 . S
C225 C224 1.382 . S
C225 H227 0.952 . S
C226 N221 1.332 . S
C226 C222 1.382 . S
C226 H228 0.948 . S
H227 C225 0.952 . S
H228 C226 0.948 . S
H229 C218 0.952 . S
H230 C220 0.948 . S
C231 C197 1.395 . S
C231 C201 1.391 . S
C232 C194 1.389 . S
C232 C214 1.392 . S
C233 C204 1.392 . S
C233 C206 1.389 . S
C234 C209 1.395 . S
C234 C211 1.391 . S
H235 C195 0.951 . S
H236 C196 0.950 . S
H237 C202 0.949 . S
H238 C203 0.950 . S
H239 C207 0.951 . S
H240 C208 0.950 . S
H241 C212 0.949 . S
H242 C213 0.950 . S
H243 C217 0.950 . S
H244 C219 0.950 . S
H245 C222 0.950 . S
H246 C224 0.950 . S
C247 C248 1.443 . S
C247 N251 1.376 . S
C247 C285 1.389 . S
C248 C247 1.443 . S
C248 C249 1.340 . S
C248 H288 0.951 . S
C249 C248 1.340 . S
C249 C250 1.439 . S
C249 H289 0.950 . S
C250 C249 1.439 . S
C250 N251 1.374 . S
C250 C284 1.395 . S
N251 C247 1.376 . S
N251 C250 1.374 . S
N251 Co252 2.008 . S
Co252 N251 2.008 . S
Co252 N253 1.995 1_554 S
Co252 N258 2.008 1_554 S
Co252 N263 1.995 . S
Co252 N268 2.282 1_554 S
Co252 N274 2.282 . S
N253 Co252 1.995 1_556 S
N253 C254 1.372 1_556 S
N253 C257 1.383 . S
C254 N253 1.372 1_554 S
C254 C255 1.427 1_554 S
C254 C284 1.411 . S
C255 C254 1.427 1_556 S
C255 C256 1.339 . S
C255 H290 0.949 . S
C256 C255 1.339 . S
C256 C257 1.439 . S
C256 H291 0.950 . S
C257 N253 1.383 . S
C257 C256 1.439 . S
C257 C286 1.392 . S
N258 Co252 2.008 1_556 S
N258 C259 1.376 . S
N258 C262 1.374 . S
C259 N258 1.376 . S
C259 C260 1.443 . S
C259 C286 1.389 . S
C260 C259 1.443 . S
C260 C261 1.340 . S
C260 H292 0.951 . S
C261 C260 1.340 . S
C261 C262 1.439 . S
C261 H293 0.950 . S
C262 N258 1.374 . S
C262 C261 1.439 . S
C262 C287 1.395 1_556 S
N263 Co252 1.995 . S
N263 C264 1.376 . S
N263 C267 1.383 . S
C264 N263 1.376 . S
C264 C265 1.446 . S
C264 C287 1.391 . S
C265 C264 1.446 . S
C265 C266 1.339 . S
C265 H294 0.949 . S
C266 C265 1.339 . S
C266 C267 1.439 . S
C266 H295 0.950 . S
C267 N263 1.383 . S
C267 C266 1.439 . S
C267 C285 1.392 . S
N268 Co252 2.282 1_556 S
N268 C271 1.332 . S
N268 C273 1.332 . S
C269 C270 1.386 . S
C269 C272 1.388 . S
C270 C269 1.386 . S
C270 C271 1.382 . S
C270 H296 0.950 . S
C271 N268 1.332 . S
C271 C270 1.382 . S
C271 H282 0.952 . S
C272 C269 1.388 . S
C272 C273 1.382 . S
C272 H297 0.950 . S
C273 N268 1.332 . S
C273 C272 1.382 . S
C273 H283 0.948 . S
N274 Co252 2.282 . S
N274 C278 1.332 . S
N274 C279 1.332 . S
C275 C276 1.388 . S
C275 C279 1.382 . S
C275 H298 0.950 . S
C276 C275 1.388 . S
C276 C277 1.386 . S
C277 C276 1.386 . S
C277 C278 1.382 . S
C277 H299 0.950 . S
C278 N274 1.332 . S
C278 C277 1.382 . S
C278 H280 0.952 . S
C279 N274 1.332 . S
C279 C275 1.382 . S
C279 H281 0.948 . S
H280 C278 0.952 . S
H281 C279 0.948 . S
H282 C271 0.952 . S
H283 C273 0.948 . S
C284 C250 1.395 . S
C284 C254 1.411 . S
C285 C247 1.389 . S
C285 C267 1.392 . S
C286 C257 1.392 . S
C286 C259 1.389 . S
C287 C262 1.395 1_554 S
C287 C264 1.391 . S
H288 C248 0.951 . S
H289 C249 0.950 . S
H290 C255 0.949 . S
H291 C256 0.950 . S
H292 C260 0.951 . S
H293 C261 0.950 . S
H294 C265 0.949 . S
H295 C266 0.950 . S
H296 C270 0.950 . S
H297 C272 0.950 . S
H298 C275 0.950 . S
H299 C277 0.950 . S
C300 C301 1.443 . S
C300 N304 1.376 1_565 S
C300 C338 1.389 . S
C301 C300 1.443 . S
C301 C302 1.340 . S
C301 H341 0.951 . S
C302 C301 1.340 . S
C302 C303 1.439 1_565 S
C302 H342 0.956 1_565 S
C303 C302 1.439 1_545 S
C303 N304 1.374 . S
C303 C337 1.395 . S
N304 C300 1.376 1_545 S
N304 C303 1.374 . S
N304 Co305 2.008 . S
Co305 N304 2.008 . S
Co305 N306 1.995 . S
Co305 N311 2.008 . S
Co305 N316 1.995 1_545 S
Co305 N321 2.282 . S
Co305 N327 2.282 1_545 S
N306 Co305 1.995 . S
N306 C307 1.376 . S
N306 C310 1.383 . S
C307 N306 1.376 . S
C307 C308 1.446 . S
C307 C337 1.391 . S
C308 C307 1.446 . S
C308 C309 1.339 . S
C308 H343 0.949 . S
C309 C308 1.339 . S
C309 C310 1.439 . S
C309 H344 0.950 . S
C310 N306 1.383 . S
C310 C309 1.439 . S
C310 C339 1.392 . S
N311 Co305 2.008 . S
N311 C312 1.376 . S
N311 C315 1.374 . S
C312 N311 1.376 . S
C312 C313 1.443 . S
C312 C339 1.389 . S
C313 C312 1.443 . S
C313 C314 1.340 . S
C313 H345 0.951 . S
C314 C313 1.340 . S
C314 C315 1.439 . S
C314 H346 0.950 . S
C315 N311 1.374 . S
C315 C314 1.439 . S
C315 C340 1.395 . S
N316 Co305 1.995 1_565 S
N316 C317 1.376 . S
N316 C320 1.383 . S
C317 N316 1.376 . S
C317 C318 1.446 . S
C317 C340 1.391 1_565 S
C318 C317 1.446 . S
C318 C319 1.339 . S
C318 H347 0.949 . S
C319 C318 1.339 . S
C319 C320 1.439 . S
C319 H348 0.950 . S
C320 N316 1.383 . S
C320 C319 1.439 . S
C320 C338 1.392 . S
N321 Co305 2.282 . S
N321 C324 1.332 . S
N321 C326 1.332 . S
C322 C323 1.386 . S
C322 C325 1.388 . S
C323 C322 1.386 . S
C323 C324 1.382 . S
C323 H349 0.950 . S
C324 N321 1.332 . S
C324 C323 1.382 . S
C324 H335 0.952 . S
C325 C322 1.388 . S
C325 C326 1.382 . S
C325 H350 0.950 . S
C326 N321 1.332 . S
C326 C325 1.382 . S
C326 H336 0.948 . S
N327 Co305 2.282 1_565 S
N327 C331 1.332 . S
N327 C332 1.332 . S
C328 C329 1.388 . S
C328 C332 1.382 . S
C328 H351 0.950 . S
C329 C328 1.388 . S
C329 C330 1.386 . S
C330 C329 1.386 . S
C330 C331 1.382 . S
C330 H352 0.950 . S
C331 N327 1.332 . S
C331 C330 1.382 . S
C331 H333 0.952 1_565 S
C332 N327 1.332 . S
C332 C328 1.382 . S
C332 H334 0.948 . S
H333 C331 0.952 1_545 S
H334 C332 0.948 . S
H335 C324 0.952 . S
H336 C326 0.948 . S
C337 C303 1.395 . S
C337 C307 1.391 . S
C338 C300 1.389 . S
C338 C320 1.392 . S
C339 C310 1.392 . S
C339 C312 1.389 . S
C340 C315 1.395 . S
C340 C317 1.391 1_545 S
H341 C301 0.951 . S
H342 C302 0.956 1_545 S
H343 C308 0.949 . S
H344 C309 0.950 . S
H345 C313 0.951 . S
H346 C314 0.950 . S
H347 C318 0.949 . S
H348 C319 0.950 . S
H349 C323 0.950 . S
H350 C325 0.950 . S
H351 C328 0.950 . S
H352 C330 0.950 . S
C353 C354 1.443 . S
C353 N357 1.376 . S
C353 C391 1.389 . S
C354 C353 1.443 . S
C354 C355 1.340 . S
C354 H394 0.951 . S
C355 C354 1.340 . S
C355 C356 1.439 . S
C355 H395 0.950 . S
C356 C355 1.439 . S
C356 N357 1.374 . S
C356 C390 1.395 . S
N357 C353 1.376 . S
N357 C356 1.374 . S
N357 Co358 2.008 . S
Co358 N357 2.008 . S
Co358 N359 1.995 . S
Co358 N364 2.008 . S
Co358 N369 1.995 . S
Co358 N374 2.282 1_554 S
Co358 N380 2.282 . S
N359 Co358 1.995 . S
N359 C360 1.376 . S
N359 C363 1.383 1_554 S
C360 N359 1.376 . S
C360 C361 1.446 1_554 S
C360 C390 1.391 . S
C361 C360 1.446 1_556 S
C361 C362 1.339 . S
C361 H396 0.949 . S
C362 C361 1.339 . S
C362 C363 1.439 . S
C362 H397 0.950 . S
C363 N359 1.383 1_556 S
C363 C362 1.439 . S
C363 C392 1.392 . S
N364 Co358 2.008 . S
N364 C365 1.376 1_554 S
N364 C368 1.374 . S
C365 N364 1.376 1_556 S
C365 C366 1.443 . S
C365 C392 1.389 . S
C366 C365 1.443 . S
C366 C367 1.340 . S
C366 H398 0.951 . S
C367 C366 1.340 . S
C367 C368 1.439 1_556 S
C367 H399 0.950 . S
C368 N364 1.374 . S
C368 C367 1.439 1_554 S
C368 C393 1.395 . S
N369 Co358 1.995 . S
N369 C370 1.376 . S
N369 C373 1.383 . S
C370 N369 1.376 . S
C370 C371 1.446 . S
C370 C393 1.391 . S
C371 C370 1.446 . S
C371 C372 1.339 . S
C371 H400 0.949 . S
C372 C371 1.339 . S
C372 C373 1.439 . S
C372 H401 0.950 . S
C373 N369 1.383 . S
C373 C372 1.439 . S
C373 C391 1.392 . S
N374 Co358 2.282 1_556 S
N374 C377 1.332 . S
N374 C379 1.332 . S
C375 C376 1.386 . S
C375 C378 1.388 . S
C376 C375 1.386 . S
C376 C377 1.382 . S
C376 H402 0.950 . S
C377 N374 1.332 . S
C377 C376 1.382 . S
C377 H388 0.952 1_556 S
C378 C375 1.388 . S
C378 C379 1.382 . S
C378 H403 0.950 . S
C379 N374 1.332 . S
C379 C378 1.382 . S
C379 H389 0.948 . S
N380 Co358 2.282 . S
N380 C384 1.332 . S
N380 C385 1.332 . S
C381 C382 1.388 . S
C381 C385 1.382 . S
C381 H404 0.950 . S
C382 C381 1.388 . S
C382 C383 1.386 . S
C383 C382 1.386 . S
C383 C384 1.382 . S
C383 H405 0.950 . S
C384 N380 1.332 . S
C384 C383 1.382 . S
C384 H386 0.952 . S
C385 N380 1.332 . S
C385 C381 1.382 . S
C385 H387 0.948 . S
H386 C384 0.952 . S
H387 C385 0.948 . S
H388 C377 0.952 1_554 S
H389 C379 0.948 . S
C390 C356 1.395 . S
C390 C360 1.391 . S
C391 C353 1.389 . S
C391 C373 1.392 . S
C392 C363 1.392 . S
C392 C365 1.389 . S
C393 C368 1.395 . S
C393 C370 1.391 . S
H394 C354 0.951 . S
H395 C355 0.950 . S
H396 C361 0.949 . S
H397 C362 0.950 . S
H398 C366 0.951 . S
H399 C367 0.950 . S
H400 C371 0.949 . S
H401 C372 0.950 . S
H402 C376 0.950 . S
H403 C378 0.950 . S
H404 C381 0.950 . S
H405 C383 0.950 . S
H406 C414 0.950 . S
H407 C419 0.950 . S
H408 C416 0.950 . S
H409 C418 0.950 . S
H410 C420 0.950 . S
H411 C422 0.950 . S
H412 C424 0.950 . S
H413 C425 0.950 . S
C414 H406 0.950 . S
C414 C415 1.386 . S
C414 C416 1.391 . S
C415 C414 1.386 . S
C415 C419 1.393 . S
C416 H408 0.950 . S
C416 C414 1.391 . S
C416 C417 1.400 . S
C417 C416 1.400 . S
C417 C418 1.398 . S
C417 C423 1.491 . S
C418 H409 0.950 . S
C418 C417 1.398 . S
C418 C419 1.391 . S
C419 H407 0.950 . S
C419 C415 1.393 . S
C419 C418 1.391 . S
C420 H410 0.950 . S
C420 C421 1.386 . S
C420 C422 1.391 . S
C421 C420 1.386 . S
C421 C425 1.393 . S
C422 H411 0.950 . S
C422 C420 1.391 . S
C422 C423 1.400 . S
C423 C417 1.491 . S
C423 C422 1.400 . S
C423 C424 1.398 . S
C424 H412 0.950 . S
C424 C423 1.398 . S
C424 C425 1.391 . S
C425 H413 0.950 . S
C425 C421 1.393 . S
C425 C424 1.391 . S
H426 C434 0.950 . S
H427 C439 0.950 . S
H428 C436 0.950 . S
H429 C438 0.950 . S
H430 C440 0.950 . S
H431 C442 0.950 . S
H432 C444 0.950 . S
H433 C445 0.950 . S
C434 H426 0.950 . S
C434 C435 1.386 . S
C434 C436 1.391 . S
C435 C434 1.386 . S
C435 C439 1.393 . S
C436 H428 0.950 . S
C436 C434 1.391 . S
C436 C437 1.400 . S
C437 C436 1.400 . S
C437 C438 1.398 . S
C437 C443 1.491 . S
C438 H429 0.950 . S
C438 C437 1.398 . S
C438 C439 1.391 . S
C439 H427 0.950 . S
C439 C435 1.393 . S
C439 C438 1.391 . S
C440 H430 0.950 . S
C440 C441 1.386 . S
C440 C442 1.391 . S
C441 C440 1.386 . S
C441 C445 1.393 . S
C442 H431 0.950 . S
C442 C440 1.391 . S
C442 C443 1.400 . S
C443 C437 1.491 . S
C443 C442 1.400 . S
C443 C444 1.398 . S
C444 H432 0.950 . S
C444 C443 1.398 . S
C444 C445 1.391 . S
C445 H433 0.950 . S
C445 C441 1.393 . S
C445 C444 1.391 . S
H446 C454 0.950 . S
H447 C459 0.950 . S
H448 C456 0.950 . S
H449 C458 0.950 . S
H450 C460 0.950 . S
H451 C462 0.950 . S
H452 C464 0.950 . S
H453 C465 0.950 . S
C454 H446 0.950 . S
C454 C455 1.386 . S
C454 C456 1.391 . S
C455 C454 1.386 . S
C455 C459 1.393 . S
C456 H448 0.950 . S
C456 C454 1.391 . S
C456 C457 1.400 . S
C457 C456 1.400 . S
C457 C458 1.398 . S
C457 C463 1.491 . S
C458 H449 0.950 . S
C458 C457 1.398 . S
C458 C459 1.391 . S
C459 H447 0.950 . S
C459 C455 1.393 . S
C459 C458 1.391 . S
C460 H450 0.950 . S
C460 C461 1.386 . S
C460 C462 1.391 . S
C461 C460 1.386 . S
C461 C465 1.393 . S
C462 H451 0.950 . S
C462 C460 1.391 . S
C462 C463 1.400 . S
C463 C457 1.491 . S
C463 C462 1.400 . S
C463 C464 1.398 . S
C464 H452 0.950 . S
C464 C463 1.398 . S
C464 C465 1.391 . S
C465 H453 0.950 . S
C465 C461 1.393 . S
C465 C464 1.391 . S
H466 C474 0.950 . S
H467 C479 0.950 . S
H468 C476 0.950 . S
H469 C478 0.950 . S
H470 C480 0.950 . S
H471 C482 0.950 . S
H472 C484 0.950 . S
H473 C485 0.950 . S
C474 H466 0.950 . S
C474 C475 1.386 . S
C474 C476 1.391 . S
C475 C474 1.386 . S
C475 C479 1.393 . S
C476 H468 0.950 . S
C476 C474 1.391 . S
C476 C477 1.400 . S
C477 C476 1.400 . S
C477 C478 1.398 . S
C477 C483 1.491 . S
C478 H469 0.950 . S
C478 C477 1.398 . S
C478 C479 1.391 . S
C479 H467 0.950 . S
C479 C475 1.393 . S
C479 C478 1.391 . S
C480 H470 0.950 . S
C480 C481 1.386 . S
C480 C482 1.391 . S
C481 C480 1.386 . S
C481 C485 1.393 . S
C482 H471 0.950 . S
C482 C480 1.391 . S
C482 C483 1.400 . S
C483 C477 1.491 . S
C483 C482 1.400 . S
C483 C484 1.398 . S
C484 H472 0.950 . S
C484 C483 1.398 . S
C484 C485 1.391 . S
C485 H473 0.950 . S
C485 C481 1.393 . S
C485 C484 1.391 . S
H486 C494 0.950 . S
H487 C499 0.950 . S
H488 C496 0.950 . S
H489 C498 0.950 . S
H490 C500 0.950 . S
H491 C502 0.950 . S
H492 C504 0.950 . S
H493 C505 0.950 . S
C494 H486 0.950 . S
C494 C495 1.386 . S
C494 C496 1.391 . S
C495 C494 1.386 . S
C495 C499 1.393 . S
C496 H488 0.950 . S
C496 C494 1.391 . S
C496 C497 1.400 . S
C497 C496 1.400 . S
C497 C498 1.398 . S
C497 C503 1.491 . S
C498 H489 0.950 . S
C498 C497 1.398 . S
C498 C499 1.391 . S
C499 H487 0.950 . S
C499 C495 1.393 . S
C499 C498 1.391 . S
C500 H490 0.950 . S
C500 C501 1.386 . S
C500 C502 1.391 . S
C501 C500 1.386 . S
C501 C505 1.393 . S
C502 H491 0.950 . S
C502 C500 1.391 . S
C502 C503 1.400 . S
C503 C497 1.491 . S
C503 C502 1.400 . S
C503 C504 1.398 . S
C504 H492 0.950 . S
C504 C503 1.398 . S
C504 C505 1.391 . S
C505 H493 0.950 . S
C505 C501 1.393 . S
C505 C504 1.391 . S
H506 C514 0.950 . S
H507 C519 0.950 . S
H508 C516 0.950 . S
H509 C518 0.950 . S
H510 C520 0.950 . S
H511 C522 0.950 . S
H512 C524 0.950 . S
H513 C525 0.950 . S
C514 H506 0.950 . S
C514 C515 1.386 . S
C514 C516 1.391 . S
C515 C514 1.386 . S
C515 C519 1.393 . S
C516 H508 0.950 . S
C516 C514 1.391 . S
C516 C517 1.400 . S
C517 C516 1.400 . S
C517 C518 1.398 . S
C517 C523 1.491 . S
C518 H509 0.950 . S
C518 C517 1.398 . S
C518 C519 1.391 . S
C519 H507 0.950 . S
C519 C515 1.393 . S
C519 C518 1.391 . S
C520 H510 0.950 . S
C520 C521 1.386 . S
C520 C522 1.391 . S
C521 C520 1.386 . S
C521 C525 1.393 . S
C522 H511 0.950 . S
C522 C520 1.391 . S
C522 C523 1.400 . S
C523 C517 1.491 . S
C523 C522 1.400 . S
C523 C524 1.398 . S
C524 H512 0.950 . S
C524 C523 1.398 . S
C524 C525 1.391 . S
C525 H513 0.950 . S
C525 C521 1.393 . S
C525 C524 1.391 . S
H526 C534 0.950 . S
H527 C539 0.950 . S
H528 C536 0.950 . S
H529 C538 0.950 . S
H530 C540 0.950 . S
H531 C542 0.950 . S
H532 C544 0.950 . S
H533 C545 0.950 . S
C534 H526 0.950 . S
C534 C535 1.386 . S
C534 C536 1.391 . S
C535 C534 1.386 . S
C535 C539 1.393 . S
C536 H528 0.950 . S
C536 C534 1.391 . S
C536 C537 1.400 . S
C537 C536 1.400 . S
C537 C538 1.398 . S
C537 C543 1.491 . S
C538 H529 0.950 . S
C538 C537 1.398 . S
C538 C539 1.391 . S
C539 H527 0.950 . S
C539 C535 1.393 . S
C539 C538 1.391 . S
C540 H530 0.950 . S
C540 C541 1.386 . S
C540 C542 1.391 . S
C541 C540 1.386 . S
C541 C545 1.393 . S
C542 H531 0.950 . S
C542 C540 1.391 . S
C542 C543 1.400 . S
C543 C537 1.491 . S
C543 C542 1.400 . S
C543 C544 1.398 . S
C544 H532 0.950 . S
C544 C543 1.398 . S
C544 C545 1.391 . S
C545 H533 0.950 . S
C545 C541 1.393 . S
C545 C544 1.391 . S
H546 C554 0.950 . S
H547 C559 0.950 . S
H548 C556 0.950 . S
H549 C558 0.950 . S
H550 C560 0.950 . S
H551 C562 0.950 . S
H552 C564 0.950 . S
H553 C565 0.950 . S
C554 H546 0.950 . S
C554 C555 1.386 . S
C554 C556 1.391 . S
C555 C554 1.386 . S
C555 C559 1.393 . S
C556 H548 0.950 . S
C556 C554 1.391 . S
C556 C557 1.400 . S
C557 C556 1.400 . S
C557 C558 1.398 . S
C557 C563 1.491 . S
C558 H549 0.950 . S
C558 C557 1.398 . S
C558 C559 1.391 . S
C559 H547 0.950 . S
C559 C555 1.393 . S
C559 C558 1.391 . S
C560 H550 0.950 . S
C560 C561 1.386 . S
C560 C562 1.391 . S
C561 C560 1.386 . S
C561 C565 1.393 . S
C562 H551 0.950 . S
C562 C560 1.391 . S
C562 C563 1.400 . S
C563 C557 1.491 . S
C563 C562 1.400 . S
C563 C564 1.398 . S
C564 H552 0.950 . S
C564 C563 1.398 . S
C564 C565 1.391 . S
C565 H553 0.950 . S
C565 C561 1.393 . S
C565 C564 1.391 . S
H566 C574 0.950 . S
H567 C579 0.950 . S
H568 C576 0.950 . S
H569 C578 0.950 . S
H570 C580 0.950 . S
H571 C582 0.950 . S
H572 C584 0.950 . S
H573 C585 0.950 . S
C574 H566 0.950 . S
C574 C575 1.386 . S
C574 C576 1.391 . S
C575 C574 1.386 . S
C575 C579 1.393 . S
C576 H568 0.950 . S
C576 C574 1.391 . S
C576 C577 1.400 . S
C577 C576 1.400 . S
C577 C578 1.398 . S
C577 C583 1.491 1_565 S
C578 H569 0.950 . S
C578 C577 1.398 . S
C578 C579 1.391 . S
C579 H567 0.950 . S
C579 C575 1.393 . S
C579 C578 1.391 . S
C580 H570 0.950 . S
C580 C581 1.386 . S
C580 C582 1.391 . S
C581 C580 1.386 . S
C581 C585 1.393 . S
C582 H571 0.950 . S
C582 C580 1.391 . S
C582 C583 1.400 . S
C583 C577 1.491 1_545 S
C583 C582 1.400 . S
C583 C584 1.398 . S
C584 H572 0.950 . S
C584 C583 1.398 . S
C584 C585 1.391 . S
C585 H573 0.950 . S
C585 C581 1.393 . S
C585 C584 1.391 . S
H586 C594 0.950 . S
H587 C599 0.950 . S
H588 C596 0.950 . S
H589 C598 0.950 . S
H590 C600 0.950 . S
H591 C602 0.950 . S
H592 C604 0.950 . S
H593 C605 0.950 . S
C594 H586 0.950 . S
C594 C595 1.386 . S
C594 C596 1.391 . S
C595 C594 1.386 . S
C595 C599 1.393 . S
C596 H588 0.950 . S
C596 C594 1.391 . S
C596 C597 1.400 . S
C597 C596 1.400 . S
C597 C598 1.398 . S
C597 C603 1.491 . S
C598 H589 0.950 . S
C598 C597 1.398 . S
C598 C599 1.391 . S
C599 H587 0.950 . S
C599 C595 1.393 . S
C599 C598 1.391 . S
C600 H590 0.950 . S
C600 C601 1.386 . S
C600 C602 1.391 . S
C601 C600 1.386 . S
C601 C605 1.393 . S
C602 H591 0.950 . S
C602 C600 1.391 . S
C602 C603 1.400 . S
C603 C597 1.491 . S
C603 C602 1.400 . S
C603 C604 1.398 . S
C604 H592 0.950 . S
C604 C603 1.398 . S
C604 C605 1.391 . S
C605 H593 0.950 . S
C605 C601 1.393 . S
C605 C604 1.391 . S
H606 C614 0.950 . S
H607 C619 0.950 . S
H608 C616 0.950 . S
H609 C618 0.950 . S
H610 C620 0.950 . S
H611 C622 0.950 . S
H612 C624 0.950 . S
H613 C625 0.950 . S
C614 H606 0.950 . S
C614 C615 1.386 . S
C614 C616 1.391 . S
C615 C614 1.386 . S
C615 C619 1.393 . S
C616 H608 0.950 . S
C616 C614 1.391 . S
C616 C617 1.400 . S
C617 C616 1.400 . S
C617 C618 1.398 . S
C617 C623 1.491 . S
C618 H609 0.950 . S
C618 C617 1.398 . S
C618 C619 1.391 . S
C619 H607 0.950 . S
C619 C615 1.393 . S
C619 C618 1.391 . S
C620 H610 0.950 . S
C620 C621 1.386 . S
C620 C622 1.391 . S
C621 C620 1.386 . S
C621 C625 1.393 . S
C622 H611 0.950 . S
C622 C620 1.391 . S
C622 C623 1.400 . S
C623 C617 1.491 . S
C623 C622 1.400 . S
C623 C624 1.398 . S
C624 H612 0.950 . S
C624 C623 1.398 . S
C624 C625 1.391 . S
C625 H613 0.950 . S
C625 C621 1.393 . S
C625 C624 1.391 . S
H626 C634 0.950 . S
H627 C639 0.950 . S
H628 C636 0.950 . S
H629 C638 0.950 . S
H630 C640 0.950 . S
H631 C642 0.950 . S
H632 C644 0.950 . S
H633 C645 0.950 . S
C634 H626 0.950 . S
C634 C635 1.386 . S
C634 C636 1.391 . S
C635 C634 1.386 . S
C635 C639 1.393 . S
C636 H628 0.950 . S
C636 C634 1.391 . S
C636 C637 1.400 . S
C637 C636 1.400 . S
C637 C638 1.398 . S
C637 C643 1.491 . S
C638 H629 0.950 . S
C638 C637 1.398 . S
C638 C639 1.391 . S
C639 H627 0.950 . S
C639 C635 1.393 . S
C639 C638 1.391 . S
C640 H630 0.950 . S
C640 C641 1.386 . S
C640 C642 1.391 . S
C641 C640 1.386 . S
C641 C645 1.393 . S
C642 H631 0.950 . S
C642 C640 1.391 . S
C642 C643 1.400 . S
C643 C637 1.491 . S
C643 C642 1.400 . S
C643 C644 1.398 . S
C644 H632 0.950 . S
C644 C643 1.398 . S
C644 C645 1.391 . S
C645 H633 0.950 . S
C645 C641 1.393 . S
C645 C644 1.391 . S
H646 C654 0.950 . S
H647 C659 0.950 . S
H648 C656 0.950 . S
H649 C658 0.950 . S
H650 C660 0.950 . S
H651 C662 0.950 . S
H652 C664 0.950 . S
H653 C665 0.950 . S
C654 H646 0.950 . S
C654 C655 1.386 . S
C654 C656 1.391 . S
C655 C654 1.386 . S
C655 C659 1.393 . S
C656 H648 0.950 . S
C656 C654 1.391 . S
C656 C657 1.400 . S
C657 C656 1.400 . S
C657 C658 1.398 . S
C657 C663 1.491 . S
C658 H649 0.950 . S
C658 C657 1.398 . S
C658 C659 1.391 . S
C659 H647 0.950 . S
C659 C655 1.393 . S
C659 C658 1.391 . S
C660 H650 0.950 . S
C660 C661 1.386 . S
C660 C662 1.391 . S
C661 C660 1.386 . S
C661 C665 1.393 . S
C662 H651 0.950 . S
C662 C660 1.391 . S
C662 C663 1.400 . S
C663 C657 1.491 . S
C663 C662 1.400 . S
C663 C664 1.398 . S
C664 H652 0.950 . S
C664 C663 1.398 . S
C664 C665 1.391 . S
C665 H653 0.950 . S
C665 C661 1.393 . S
C665 C664 1.391 . S
H666 C674 0.950 . S
H667 C679 0.950 . S
H668 C676 0.950 . S
H669 C678 0.950 . S
H670 C680 0.950 1_455 S
H671 C682 0.950 . S
H672 C684 0.950 . S
H673 C685 0.950 . S
C674 H666 0.950 . S
C674 C675 1.386 . S
C674 C676 1.391 . S
C675 C674 1.386 . S
C675 C679 1.393 . S
C676 H668 0.950 . S
C676 C674 1.391 . S
C676 C677 1.400 . S
C677 C676 1.400 . S
C677 C678 1.398 . S
C677 C683 1.491 . S
C678 H669 0.950 . S
C678 C677 1.398 . S
C678 C679 1.391 . S
C679 H667 0.950 . S
C679 C675 1.393 . S
C679 C678 1.391 . S
C680 H670 0.950 1_655 S
C680 C681 1.386 . S
C680 C682 1.391 . S
C681 C680 1.386 . S
C681 C685 1.393 . S
C682 H671 0.950 . S
C682 C680 1.391 . S
C682 C683 1.400 . S
C683 C677 1.491 . S
C683 C682 1.400 . S
C683 C684 1.398 . S
C684 H672 0.950 . S
C684 C683 1.398 . S
C684 C685 1.391 . S
C685 H673 0.950 . S
C685 C681 1.393 . S
C685 C684 1.391 . S
H686 C694 0.950 . S
H687 C699 0.950 . S
H688 C696 0.950 . S
H689 C698 0.950 . S
H690 C700 0.950 . S
H691 C702 0.950 . S
H692 C704 0.950 . S
H693 C705 0.950 . S
C694 H686 0.950 . S
C694 C695 1.386 . S
C694 C696 1.391 . S
C695 C694 1.386 . S
C695 C699 1.393 . S
C696 H688 0.950 . S
C696 C694 1.391 . S
C696 C697 1.400 . S
C697 C696 1.400 . S
C697 C698 1.398 . S
C697 C703 1.491 . S
C698 H689 0.950 . S
C698 C697 1.398 . S
C698 C699 1.391 . S
C699 H687 0.950 . S
C699 C695 1.393 . S
C699 C698 1.391 . S
C700 H690 0.950 . S
C700 C701 1.386 . S
C700 C702 1.391 . S
C701 C700 1.386 . S
C701 C705 1.393 . S
C702 H691 0.950 . S
C702 C700 1.391 . S
C702 C703 1.400 . S
C703 C697 1.491 . S
C703 C702 1.400 . S
C703 C704 1.398 . S
C704 H692 0.950 . S
C704 C703 1.398 . S
C704 C705 1.391 . S
C705 H693 0.950 . S
C705 C701 1.393 . S
C705 C704 1.391 . S
H706 C714 0.950 . S
H707 C719 0.950 . S
H708 C716 0.950 . S
H709 C718 0.950 . S
H710 C720 0.950 . S
H711 C722 0.950 . S
H712 C724 0.950 . S
H713 C725 0.950 . S
C714 H706 0.950 . S
C714 C715 1.386 . S
C714 C716 1.391 . S
C715 C714 1.386 . S
C715 C719 1.393 . S
C716 H708 0.950 . S
C716 C714 1.391 . S
C716 C717 1.400 . S
C717 C716 1.400 . S
C717 C718 1.398 . S
C717 C723 1.491 . S
C718 H709 0.950 . S
C718 C717 1.398 . S
C718 C719 1.391 . S
C719 H707 0.950 . S
C719 C715 1.393 . S
C719 C718 1.391 . S
C720 H710 0.950 . S
C720 C721 1.386 . S
C720 C722 1.391 . S
C721 C720 1.386 . S
C721 C725 1.393 . S
C722 H711 0.950 . S
C722 C720 1.391 . S
C722 C723 1.400 . S
C723 C717 1.491 . S
C723 C722 1.400 . S
C723 C724 1.398 . S
C724 H712 0.950 . S
C724 C723 1.398 . S
C724 C725 1.391 . S
C725 H713 0.950 . S
C725 C721 1.393 . S
C725 C724 1.391 . S
H726 C734 0.950 . S
H727 C739 0.950 . S
H728 C736 0.950 . S
H729 C738 0.950 . S
H730 C740 0.950 . S
H731 C742 0.950 . S
H732 C744 0.950 . S
H733 C745 0.950 . S
C734 H726 0.950 . S
C734 C735 1.386 . S
C734 C736 1.391 . S
C735 C734 1.386 . S
C735 C739 1.393 . S
C736 H728 0.950 . S
C736 C734 1.391 . S
C736 C737 1.400 . S
C737 C736 1.400 . S
C737 C738 1.398 . S
C737 C743 1.491 . S
C738 H729 0.950 . S
C738 C737 1.398 . S
C738 C739 1.391 . S
C739 H727 0.950 . S
C739 C735 1.393 . S
C739 C738 1.391 . S
C740 H730 0.950 . S
C740 C741 1.386 . S
C740 C742 1.391 . S
C741 C740 1.386 . S
C741 C745 1.393 . S
C742 H731 0.950 . S
C742 C740 1.391 . S
C742 C743 1.400 . S
C743 C737 1.491 . S
C743 C742 1.400 . S
C743 C744 1.398 . S
C744 H732 0.950 . S
C744 C743 1.398 . S
C744 C745 1.391 . S
C745 H733 0.950 . S
C745 C741 1.393 . S
C745 C744 1.391 . S
H746 C754 0.950 . S
H747 C759 0.950 . S
H748 C756 0.950 . S
H749 C758 0.950 . S
H750 C760 0.950 . S
H751 C762 0.950 . S
H752 C764 0.950 . S
H753 C765 0.950 . S
C754 H746 0.950 . S
C754 C755 1.386 . S
C754 C756 1.391 . S
C755 C754 1.386 . S
C755 C759 1.393 . S
C756 H748 0.950 . S
C756 C754 1.391 . S
C756 C757 1.400 . S
C757 C756 1.400 . S
C757 C758 1.398 . S
C757 C763 1.491 . S
C758 H749 0.950 . S
C758 C757 1.398 . S
C758 C759 1.391 . S
C759 H747 0.950 . S
C759 C755 1.393 . S
C759 C758 1.391 . S
C760 H750 0.950 . S
C760 C761 1.386 . S
C760 C762 1.391 . S
C761 C760 1.386 . S
C761 C765 1.393 . S
C762 H751 0.950 . S
C762 C760 1.391 . S
C762 C763 1.400 . S
C763 C757 1.491 . S
C763 C762 1.400 . S
C763 C764 1.398 . S
C764 H752 0.950 . S
C764 C763 1.398 . S
C764 C765 1.391 . S
C765 H753 0.950 . S
C765 C761 1.393 . S
C765 C764 1.391 . S
H766 C774 0.950 . S
H767 C779 0.950 . S
H768 C776 0.950 . S
H769 C778 0.950 . S
H770 C780 0.950 . S
H771 C782 0.950 . S
H772 C784 0.950 . S
H773 C785 0.950 . S
C774 H766 0.950 . S
C774 C775 1.386 . S
C774 C776 1.391 . S
C775 C774 1.386 . S
C775 C779 1.393 . S
C776 H768 0.950 . S
C776 C774 1.391 . S
C776 C777 1.400 . S
C777 C776 1.400 . S
C777 C778 1.398 . S
C777 C783 1.491 . S
C778 H769 0.950 . S
C778 C777 1.398 . S
C778 C779 1.391 . S
C779 H767 0.950 . S
C779 C775 1.393 . S
C779 C778 1.391 . S
C780 H770 0.950 . S
C780 C781 1.386 . S
C780 C782 1.391 . S
C781 C780 1.386 . S
C781 C785 1.393 . S
C782 H771 0.950 . S
C782 C780 1.391 . S
C782 C783 1.400 . S
C783 C777 1.491 . S
C783 C782 1.400 . S
C783 C784 1.398 . S
C784 H772 0.950 . S
C784 C783 1.398 . S
C784 C785 1.391 . S
C785 H773 0.950 . S
C785 C781 1.393 . S
C785 C784 1.391 . S
H786 C794 0.950 . S
H787 C799 0.950 . S
H788 C796 0.950 . S
H789 C798 0.950 . S
H790 C800 0.950 . S
H791 C802 0.950 . S
H792 C804 0.950 . S
H793 C805 0.950 . S
C794 H786 0.950 . S
C794 C795 1.386 . S
C794 C796 1.391 . S
C795 C794 1.386 . S
C795 C799 1.393 . S
C796 H788 0.950 . S
C796 C794 1.391 . S
C796 C797 1.400 . S
C797 C796 1.400 . S
C797 C798 1.398 . S
C797 C803 1.491 . S
C798 H789 0.950 . S
C798 C797 1.398 . S
C798 C799 1.391 . S
C799 H787 0.950 . S
C799 C795 1.393 . S
C799 C798 1.391 . S
C800 H790 0.950 . S
C800 C801 1.386 . S
C800 C802 1.391 . S
C801 C800 1.386 . S
C801 C805 1.393 . S
C802 H791 0.950 . S
C802 C800 1.391 . S
C802 C803 1.400 . S
C803 C797 1.491 . S
C803 C802 1.400 . S
C803 C804 1.398 . S
C804 H792 0.950 . S
C804 C803 1.398 . S
C804 C805 1.391 . S
C805 H793 0.950 . S
C805 C801 1.393 . S
C805 C804 1.391 . S
H806 C814 0.950 . S
H807 C819 0.950 . S
H808 C816 0.950 . S
H809 C818 0.950 . S
H810 C820 0.950 . S
H811 C822 0.950 . S
H812 C824 0.950 . S
H813 C825 0.950 . S
C814 H806 0.950 . S
C814 C815 1.386 . S
C814 C816 1.391 . S
C815 C814 1.386 . S
C815 C819 1.393 . S
C816 H808 0.950 . S
C816 C814 1.391 . S
C816 C817 1.400 . S
C817 C816 1.400 . S
C817 C818 1.398 . S
C817 C823 1.491 . S
C818 H809 0.950 . S
C818 C817 1.398 . S
C818 C819 1.391 . S
C819 H807 0.950 . S
C819 C815 1.393 . S
C819 C818 1.391 . S
C820 H810 0.950 . S
C820 C821 1.386 . S
C820 C822 1.391 . S
C821 C820 1.386 . S
C821 C825 1.393 . S
C822 H811 0.950 . S
C822 C820 1.391 . S
C822 C823 1.400 . S
C823 C817 1.491 . S
C823 C822 1.400 . S
C823 C824 1.398 . S
C824 H812 0.950 . S
C824 C823 1.398 . S
C824 C825 1.391 . S
C825 H813 0.950 . S
C825 C821 1.393 . S
C825 C824 1.391 . S
H826 C834 0.950 . S
H827 C839 0.950 . S
H828 C836 0.950 . S
H829 C838 0.950 . S
H830 C840 0.950 . S
H831 C842 0.950 . S
H832 C844 0.950 . S
H833 C845 0.950 . S
C834 H826 0.950 . S
C834 C835 1.386 . S
C834 C836 1.391 . S
C835 C834 1.386 . S
C835 C839 1.393 . S
C836 H828 0.950 . S
C836 C834 1.391 . S
C836 C837 1.400 . S
C837 C836 1.400 . S
C837 C838 1.398 . S
C837 C843 1.491 . S
C838 H829 0.950 . S
C838 C837 1.398 . S
C838 C839 1.391 . S
C839 H827 0.950 . S
C839 C835 1.393 . S
C839 C838 1.391 . S
C840 H830 0.950 . S
C840 C841 1.386 . S
C840 C842 1.391 . S
C841 C840 1.386 . S
C841 C845 1.393 . S
C842 H831 0.950 . S
C842 C840 1.391 . S
C842 C843 1.400 . S
C843 C837 1.491 . S
C843 C842 1.400 . S
C843 C844 1.398 . S
C844 H832 0.950 . S
C844 C843 1.398 . S
C844 C845 1.391 . S
C845 H833 0.950 . S
C845 C841 1.393 . S
C845 C844 1.391 . S
H846 C854 0.950 . S
H847 C859 0.950 . S
H848 C856 0.950 . S
H849 C858 0.950 . S
H850 C860 0.950 . S
H851 C862 0.950 . S
H852 C864 0.943 . S
H853 C865 0.950 . S
C854 H846 0.950 . S
C854 C855 1.386 . S
C854 C856 1.391 . S
C855 C854 1.386 . S
C855 C859 1.393 . S
C856 H848 0.950 . S
C856 C854 1.391 . S
C856 C857 1.400 . S
C857 C856 1.400 . S
C857 C858 1.398 . S
C857 C863 1.491 . S
C858 H849 0.950 . S
C858 C857 1.398 . S
C858 C859 1.391 . S
C859 H847 0.950 . S
C859 C855 1.393 . S
C859 C858 1.391 . S
C860 H850 0.950 . S
C860 C861 1.386 . S
C860 C862 1.391 1_545 S
C861 C860 1.386 . S
C861 C865 1.393 . S
C862 H851 0.950 . S
C862 C860 1.391 1_565 S
C862 C863 1.400 . S
C863 C857 1.491 . S
C863 C862 1.400 . S
C863 C864 1.378 1_565 S
C864 H852 0.943 . S
C864 C863 1.378 1_545 S
C864 C865 1.419 . S
C865 H853 0.950 . S
C865 C861 1.393 . S
C865 C864 1.419 . S
H866 C874 0.950 . S
H867 C879 0.950 . S
H868 C876 0.950 . S
H869 C878 0.950 . S
H870 C880 0.950 . S
H871 C882 0.950 . S
H872 C884 0.950 . S
H873 C885 0.950 . S
C874 H866 0.950 . S
C874 C875 1.386 . S
C874 C876 1.391 . S
C875 C874 1.386 . S
C875 C879 1.393 . S
C876 H868 0.950 . S
C876 C874 1.391 . S
C876 C877 1.400 . S
C877 C876 1.400 . S
C877 C878 1.398 . S
C877 C883 1.491 . S
C878 H869 0.950 . S
C878 C877 1.398 . S
C878 C879 1.391 . S
C879 H867 0.950 . S
C879 C875 1.393 . S
C879 C878 1.391 . S
C880 H870 0.950 . S
C880 C881 1.386 . S
C880 C882 1.391 . S
C881 C880 1.386 . S
C881 C885 1.393 . S
C882 H871 0.950 . S
C882 C880 1.391 . S
C882 C883 1.400 . S
C883 C877 1.491 . S
C883 C882 1.400 . S
C883 C884 1.398 . S
C884 H872 0.950 . S
C884 C883 1.398 . S
C884 C885 1.391 . S
C885 H873 0.950 . S
C885 C881 1.393 . S
C885 C884 1.391 . S
C421 C110 1.540 . S
C415 C5 1.392 . S
C441 C179 1.487 . S
C435 C16 1.260 . S
C461 C117 1.699 . S
C455 C30 1.699 . S
C481 C180 1.614 . S
C475 C40 1.558 . S
C501 C233 1.455 . S
C495 C8 1.455 . S
C521 C269 1.488 . S
C515 C18 1.426 . S
C535 C29 1.733 . S
C541 C329 1.751 . S
C561 C392 1.552 . S
C555 C38 1.292 . S
C581 C232 1.417 . S
C575 C19 1.401 . S
C595 C27 1.473 . S
C601 C276 1.636 . S
C621 C322 1.597 . S
C615 C41 1.574 . S
C641 C391 1.537 . S
C635 C7 1.491 . S
C655 C52 1.549 . S
C661 C170 1.570 . S
C681 C127 1.601 1_655 S
C675 C62 1.560 . S
C695 C74 1.378 . S
C701 C163 1.386 . S
C715 C82 1.235 . S
C721 C126 1.403 . S
C741 C338 1.807 . S
C735 C51 1.708 . S
C761 C382 1.595 . S
C755 C60 1.361 . S
C781 C216 1.515 . S
C775 C71 1.288 . S
C795 C84 1.441 . S
C801 C285 1.490 . S
C821 C339 1.678 . S
C815 C63 1.667 . S
C841 C375 1.492 . S
C835 C73 1.436 . S
C861 C223 1.537 . S
C855 C85 1.540 . S
C875 C49 1.387 . S
C881 C286 1.666 . S
