# Generated by pormake.
# Topology pyr, (3,6)-cn, num edge types: 1
# Building blocks:
#     Node 0, Type 0, BuildingBlock: OLANEW_clean_sbu_2, # of connection points: 3
#     Node 1, Type 0, BuildingBlock: OLANEW_clean_sbu_2, # of connection points: 3
#     Node 2, Type 0, BuildingBlock: OLANEW_clean_sbu_2, # of connection points: 3
#     Node 3, Type 0, BuildingBlock: OLANEW_clean_sbu_2, # of connection points: 3
#     Node 4, Type 0, BuildingBlock: OLANEW_clean_sbu_2, # of connection points: 3
#     Node 5, Type 0, BuildingBlock: OLANEW_clean_sbu_2, # of connection points: 3
#     Node 6, Type 0, BuildingBlock: OLANEW_clean_sbu_2, # of connection points: 3
#     Node 7, Type 0, BuildingBlock: OLANEW_clean_sbu_2, # of connection points: 3
#     Node 8, Type 1, BuildingBlock: FUNLAD_clean_sbu_0, # of connection points: 6
#     Node 9, Type 1, BuildingBlock: FUNLAD_clean_sbu_0, # of connection points: 6
#     Node 10, Type 1, BuildingBlock: FUNLAD_clean_sbu_0, # of connection points: 6
#     Node 11, Type 1, BuildingBlock: FUNLAD_clean_sbu_0, # of connection points: 6
#     Edge 12, Type (0, 1), BuildingBlock: AJUNOK_clean_linker_0, # of connection points: 2
#     Edge 13, Type (0, 1), BuildingBlock: AJUNOK_clean_linker_0, # of connection points: 2
#     Edge 14, Type (0, 1), BuildingBlock: AJUNOK_clean_linker_0, # of connection points: 2
#     Edge 15, Type (0, 1), BuildingBlock: AJUNOK_clean_linker_0, # of connection points: 2
#     Edge 16, Type (0, 1), BuildingBlock: AJUNOK_clean_linker_0, # of connection points: 2
#     Edge 17, Type (0, 1), BuildingBlock: AJUNOK_clean_linker_0, # of connection points: 2
#     Edge 18, Type (0, 1), BuildingBlock: AJUNOK_clean_linker_0, # of connection points: 2
#     Edge 19, Type (0, 1), BuildingBlock: AJUNOK_clean_linker_0, # of connection points: 2
#     Edge 20, Type (0, 1), BuildingBlock: AJUNOK_clean_linker_0, # of connection points: 2
#     Edge 21, Type (0, 1), BuildingBlock: AJUNOK_clean_linker_0, # of connection points: 2
#     Edge 22, Type (0, 1), BuildingBlock: AJUNOK_clean_linker_0, # of connection points: 2
#     Edge 23, Type (0, 1), BuildingBlock: AJUNOK_clean_linker_0, # of connection points: 2
#     Edge 24, Type (0, 1), BuildingBlock: AJUNOK_clean_linker_0, # of connection points: 2
#     Edge 25, Type (0, 1), BuildingBlock: AJUNOK_clean_linker_0, # of connection points: 2
#     Edge 26, Type (0, 1), BuildingBlock: AJUNOK_clean_linker_0, # of connection points: 2
#     Edge 27, Type (0, 1), BuildingBlock: AJUNOK_clean_linker_0, # of connection points: 2
#     Edge 28, Type (0, 1), BuildingBlock: AJUNOK_clean_linker_0, # of connection points: 2
#     Edge 29, Type (0, 1), BuildingBlock: AJUNOK_clean_linker_0, # of connection points: 2
#     Edge 30, Type (0, 1), BuildingBlock: AJUNOK_clean_linker_0, # of connection points: 2
#     Edge 31, Type (0, 1), BuildingBlock: AJUNOK_clean_linker_0, # of connection points: 2
#     Edge 32, Type (0, 1), BuildingBlock: AJUNOK_clean_linker_0, # of connection points: 2
#     Edge 33, Type (0, 1), BuildingBlock: AJUNOK_clean_linker_0, # of connection points: 2
#     Edge 34, Type (0, 1), BuildingBlock: AJUNOK_clean_linker_0, # of connection points: 2
#     Edge 35, Type (0, 1), BuildingBlock: AJUNOK_clean_linker_0, # of connection points: 2
# Relax obj value: 0.202
# Max RMSD: 0.176
# Mean RMSD: 0.120
data_MOF--net-pry--node1-OLANEW_clean_sbu_2--node2-FUNLAD_clean_sbu_0--edge1-AJUNOK_clean_linker_0
_symmetry_space_group_name_H-M    P1
_symmetry_Int_Tables_number       1
_symmetry_cell_setting            triclinic
loop_
_symmetry_equiv_pos_as_xyz
'x, y, z'
_cell_length_a     28.362013
_cell_length_b     31.062075
_cell_length_c     30.917511
_cell_angle_alpha  94.194022
_cell_angle_beta   89.656997
_cell_angle_gamma 88.634126
loop_
_atom_site_label
_atom_site_type_symbol
_atom_site_fract_x
_atom_site_fract_y
_atom_site_fract_z
_atom_type_partial_charge
O0 O 0.2331 0.17953 0.18057 0.0
Cd1 Cd 0.17047 0.2346 0.20374 0.0
O2 O 0.23565 0.12902 0.22838 0.0
Cd3 Cd 0.18054 0.13875 0.28007 0.0
O4 O 0.1433 0.12165 0.34033 0.0
C5 C 0.14297 0.08207 0.34885 0.0
O6 O 0.16413 0.05347 0.32144 0.0
C7 C 0.25134 0.14494 0.19424 0.0
C8 C 0.13966 0.29843 0.14747 0.0
O9 O 0.18008 0.30048 0.16571 0.0
O10 O 0.11465 0.26565 0.15396 0.0
O11 O 0.44949 0.90205 0.82246 0.0
Cd12 Cd 0.43208 0.88094 0.7451 0.0
O13 O 0.39623 0.95477 0.82151 0.0
Cd14 Cd 0.36087 0.93242 0.76132 0.0
O15 O 0.30139 0.92943 0.71612 0.0
C16 C 0.28274 0.96584 0.7091 0.0
O17 O 0.30166 1.00075 0.72747 0.0
C18 C 0.42963 0.93602 0.84069 0.0
C19 C 0.46771 0.80393 0.70173 0.0
O20 O 0.49454 0.83596 0.71063 0.0
O21 O 0.42472 0.8074 0.71481 0.0
O22 O 0.72254 0.48914 0.0218 0.0
Cd23 Cd 0.72611 0.56417 1.00623 0.0
O24 O 0.74837 0.42257 0.01579 0.0
Cd25 Cd 0.79547 0.36713 1.00177 0.0
O26 O 0.75828 0.30816 0.98508 0.0
C27 C 0.71679 0.31383 0.97078 0.0
O28 O 0.70228 0.35315 0.96366 0.0
C29 C 0.75718 0.46246 0.018 0.0
C30 C 0.69295 0.55971 0.92167 0.0
O31 O 0.66462 0.56731 0.95392 0.0
O32 O 0.7372 0.55715 0.92955 0.0
O33 O 0.09277 0.62179 0.51285 0.0
Cd34 Cd 0.10034 0.54498 0.49374 0.0
O35 O 0.01821 0.6089 0.5233 0.0
Cd36 Cd 0.94382 0.62667 0.53245 0.0
O37 O 0.86881 0.62268 0.54673 0.0
C38 C 0.83827 0.61928 0.51686 0.0
O39 O 0.85215 0.62036 0.47633 0.0
C40 C 0.05089 0.63577 0.52028 0.0
C41 C 0.07381 0.54083 0.40727 0.0
O42 O 0.11718 0.54403 0.41823 0.0
O43 O 0.04327 0.53662 0.43727 0.0
O44 O 0.93403 0.87862 0.84054 0.0
Cd45 Cd 0.91878 0.85311 0.91434 0.0
O46 O 0.88382 0.93385 0.85148 0.0
Cd47 Cd 0.84807 0.91677 0.91124 0.0
O48 O 0.79025 0.92366 0.95977 0.0
C49 C 0.7835 0.96096 0.97899 0.0
O50 O 0.81248 0.99157 0.97018 0.0
C51 C 0.91554 0.91359 0.82816 0.0
C52 C 0.95179 0.77311 0.94324 0.0
O53 O 0.98007 0.80405 0.9385 0.0
O54 O 0.90874 0.77879 0.93212 0.0
O55 O 0.64127 0.10764 0.37277 0.0
Cd56 Cd 0.66937 0.1276 0.4469 0.0
O57 O 0.60541 0.16955 0.36005 0.0
Cd58 Cd 0.61796 0.21199 0.41973 0.0
O59 O 0.61249 0.27225 0.46351 0.0
C60 C 0.59723 0.30609 0.44668 0.0
O61 O 0.58652 0.30292 0.40529 0.0
C62 C 0.61703 0.1305 0.34795 0.0
C63 C 0.75564 0.0907 0.47338 0.0
O64 O 0.71695 0.07065 0.47681 0.0
O65 O 0.75366 0.12691 0.45598 0.0
O66 O 0.56777 0.65403 0.10365 0.0
Cd67 Cd 0.57804 0.57758 0.11348 0.0
O68 O 0.49335 0.64141 0.11362 0.0
Cd69 Cd 0.41732 0.65328 0.11838 0.0
O70 O 0.34237 0.64044 0.11293 0.0
C71 C 0.32954 0.61709 0.07984 0.0
O72 O 0.36156 0.60363 0.05072 0.0
C73 C 0.52561 0.66833 0.1084 0.0
C74 C 0.56288 0.57228 0.20184 0.0
O75 O 0.6043 0.57692 0.18637 0.0
O76 O 0.52874 0.56789 0.17502 0.0
O77 O 0.12952 0.58986 0.67864 0.0
Cd78 Cd 0.16618 0.61392 0.61392 0.0
O79 O 0.11878 0.52692 0.64387 0.0
Cd80 Cd 0.09359 0.46133 0.64013 0.0
O81 O 0.0747 0.39407 0.63328 0.0
C82 C 0.05735 0.37465 0.66418 0.0
O83 O 0.0502 0.39602 0.70201 0.0
C84 C 0.11636 0.55112 0.67876 0.0
C85 C 0.25902 0.5825 0.6113 0.0
O86 O 0.22698 0.56256 0.58934 0.0
O87 O 0.24729 0.6176 0.63348 0.0
C88 C 0.05688 0.02901 0.50968 0.0
N89 N 0.02279 0.10168 0.62562 0.0
C90 C 0.06462 0.12068 0.61873 0.0
C91 C 0.06936 0.16476 0.62822 0.0
C92 C 0.03061 0.18966 0.64464 0.0
C93 C 0.98853 0.16917 0.65379 0.0
C94 C 0.98529 0.12466 0.64379 0.0
Zn95 Zn 0.01767 0.03924 0.60152 0.0
C96 C 0.92819 0.02635 0.55222 0.0
N97 N 0.01094 0.90971 0.54791 0.0
C98 C 0.05171 0.89118 0.53136 0.0
C99 C 0.97204 0.88588 0.55355 0.0
C100 C 0.97395 0.84117 0.54404 0.0
C101 C 0.0164 0.82093 0.52898 0.0
C102 C 0.05539 0.84669 0.52214 0.0
Zn103 Zn 0.01318 0.97232 0.57225 0.0
O104 O 0.04972 0.05663 0.54164 0.0
C105 C 0.10364 0.98846 0.62078 0.0
O106 O 0.04489 0.99028 0.51354 0.0
H107 H 0.94015 0.90129 0.56717 0.0
H108 H 0.09395 0.10199 0.60408 0.0
H109 H 0.08232 0.91065 0.52741 0.0
O110 O 0.08406 0.02549 0.62682 0.0
O111 O 0.08209 0.95899 0.59874 0.0
H112 H 0.95236 0.10884 0.64886 0.0
O113 O 0.98252 0.95434 0.63132 0.0
O114 O 0.98577 0.02042 0.66109 0.0
O115 O 0.94406 0.98757 0.54591 0.0
O116 O 0.95154 0.05337 0.57562 0.0
C117 C 0.97568 0.98091 0.66414 0.0
H118 H 0.10252 0.17957 0.62129 0.0
H119 H 0.958 0.18764 0.66652 0.0
H120 H 0.94302 0.82249 0.54963 0.0
H121 H 0.08925 0.83253 0.51186 0.0
C122 C 0.60697 1.00525 0.0707 0.0
N123 N 0.54282 0.12372 0.06136 0.0
C124 C 0.58459 0.13832 0.07728 0.0
C125 C 0.6085 0.16976 0.05711 0.0
C126 C 0.58964 0.18628 0.01989 0.0
C127 C 0.54495 0.17332 1.00564 0.0
C128 C 0.52195 0.1414 0.02699 0.0
Zn129 Zn 0.52308 0.06656 0.08355 0.0
C130 C 0.48571 1.00615 1.01312 0.0
N131 N 0.49678 0.94272 0.12725 0.0
C132 C 0.53239 0.92228 0.14753 0.0
C133 C 0.45857 0.92092 0.11181 0.0
C134 C 0.45737 0.87602 0.11286 0.0
C135 C 0.49598 0.85395 0.12971 0.0
C136 C 0.53273 0.87758 0.14902 0.0
Zn137 Zn 0.51033 1.00241 0.10753 0.0
O138 O 0.59169 0.04337 0.06694 0.0
C139 C 0.54908 0.06194 0.17812 0.0
O140 O 0.57988 0.97858 0.08683 0.0
H141 H 0.43088 0.93781 0.09548 0.0
H142 H 0.60149 0.1234 0.10378 0.0
H143 H 0.56258 0.94012 0.15922 0.0
O144 O 0.54564 0.08737 0.14782 0.0
O145 O 0.53691 0.02297 0.17053 0.0
H146 H 0.48898 0.12904 0.01457 0.0
O147 O 0.44031 0.02815 0.1273 0.0
O148 O 0.45463 0.08992 0.09987 0.0
O149 O 0.48517 0.98187 0.04442 0.0
O150 O 0.49997 0.04454 0.01998 0.0
C151 C 0.42659 0.06634 0.11934 0.0
H152 H 0.64255 0.17972 0.0694 0.0
H153 H 0.52931 0.18599 0.97717 0.0
H154 H 0.42854 0.85854 0.09766 0.0
H155 H 0.56292 0.86134 0.16247 0.0
C156 C 0.56828 0.47656 0.53962 0.0
N157 N 0.58238 0.54176 0.66445 0.0
C158 C 0.56807 0.50985 0.68914 0.0
C159 C 0.58543 0.50755 0.7314 0.0
C160 C 0.61803 0.53802 0.74749 0.0
C161 C 0.63162 0.57049 0.72143 0.0
C162 C 0.61324 0.57188 0.68015 0.0
Zn163 Zn 0.56012 0.55132 0.60287 0.0
C164 C 0.64215 0.58152 0.5525 0.0
N165 N 0.52261 0.58452 0.47668 0.0
C166 C 0.50058 0.55338 0.45157 0.0
C167 C 0.54157 0.61915 0.45914 0.0
C168 C 0.54276 0.62129 0.41426 0.0
C169 C 0.52448 0.58737 0.38744 0.0
C170 C 0.50106 0.55423 0.4065 0.0
Zn171 Zn 0.53977 0.57257 0.53861 0.0
O172 O 0.57158 0.48451 0.58051 0.0
C173 C 0.45758 0.54492 0.58902 0.0
O174 O 0.55712 0.50738 0.51645 0.0
H175 H 0.55891 0.64348 0.47973 0.0
H176 H 0.54317 0.48649 0.67623 0.0
H177 H 0.48584 0.52608 0.46621 0.0
O178 O 0.48836 0.54028 0.61829 0.0
O179 O 0.47031 0.55556 0.55187 0.0
H180 H 0.62363 0.59765 0.66078 0.0
O181 O 0.52157 0.63751 0.56224 0.0
O182 O 0.54797 0.61752 0.62432 0.0
O183 O 0.61019 0.59025 0.52577 0.0
O184 O 0.63082 0.56346 0.58635 0.0
C185 C 0.5305 0.64661 0.60208 0.0
H186 H 0.57393 0.48227 0.75107 0.0
H187 H 0.65585 0.59509 0.73316 0.0
H188 H 0.56029 0.64782 0.40056 0.0
H189 H 0.48645 0.52761 0.38675 0.0
C190 C 0.0178 0.61501 0.01765 0.0
N191 N 0.02107 0.55858 0.13802 0.0
C192 C 0.04149 0.59268 0.16004 0.0
C193 C 0.04348 0.59484 0.20525 0.0
C194 C 0.02393 0.56177 0.22773 0.0
C195 C 0.99961 0.52901 0.20438 0.0
C196 C 0.9986 0.52801 0.15926 0.0
Zn197 Zn 0.03593 0.54478 0.07388 0.0
C198 C 0.95383 0.50833 0.02656 0.0
N199 N 0.07141 0.50827 0.94214 0.0
C200 C 0.09721 0.53918 0.92471 0.0
C201 C 0.05222 0.47572 0.91657 0.0
C202 C 0.05701 0.47478 0.87129 0.0
C203 C 0.08132 0.50787 0.85293 0.0
C204 C 0.10263 0.53953 0.88013 0.0
Zn205 Zn 0.05533 0.52088 1.00649 0.0
O206 O 0.01398 0.6081 0.05759 0.0
C207 C 0.13662 0.56004 0.0548 0.0
O208 O 0.03421 0.5851 0.99116 0.0
H209 H 0.03132 0.45181 0.93105 0.0
H210 H 0.05926 0.61652 0.1425 0.0
H211 H 0.11139 0.56534 0.94517 0.0
O212 O 0.10545 0.56559 0.08435 0.0
O213 O 0.12545 0.54143 0.0185 0.0
H214 H 0.98314 0.50085 0.14116 0.0
O215 O 0.07701 0.45698 0.0228 0.0
O216 O 0.05725 0.4807 0.08922 0.0
O217 O 0.98377 0.50078 0.9959 0.0
O218 O 0.96733 0.52511 0.06286 0.0
C219 C 0.07321 0.45041 0.06286 0.0
H220 H 0.0624 0.62071 0.22231 0.0
H221 H 0.98476 0.50257 0.22048 0.0
H222 H 0.04011 0.44992 0.85092 0.0
H223 H 0.12176 0.56541 0.86687 0.0
C224 C 0.10535 0.09858 0.4229 0.0
C225 C 0.12025 0.06806 0.3893 0.0
C226 C 0.0852 0.08578 0.46161 0.0
C227 C 0.07863 0.04187 0.46839 0.0
H228 H 0.10967 0.13273 0.41954 0.0
H229 H 0.07455 0.11064 0.48637 0.0
S230 S 0.11084 0.94886 0.39047 0.0
N231 N 0.12637 0.99161 0.36559 0.0
N232 N 0.08863 0.96784 0.43768 0.0
C233 C 0.09305 1.01104 0.43492 0.0
C234 C 0.11378 0.02403 0.39567 0.0
C235 C 0.46257 0.9275 0.91521 0.0
C236 C 0.44495 0.95445 0.88409 0.0
C237 C 0.475 0.94442 0.95697 0.0
C238 C 0.47141 0.9891 0.96896 0.0
H239 H 0.46592 0.89297 0.90756 0.0
H240 H 0.48805 0.9223 0.9799 0.0
S241 S 0.4289 0.07373 0.89895 0.0
N242 N 0.4252 0.02827 0.8681 0.0
N243 N 0.44966 0.05993 0.94587 0.0
C244 C 0.45464 0.01644 0.93789 0.0
C245 C 0.44112 0.99917 0.89572 0.0
C246 C 0.62569 0.5509 0.86981 0.0
C247 C 0.67474 0.55225 0.87691 0.0
C248 C 0.60739 0.54373 0.82792 0.0
C249 C 0.63749 0.53786 0.79168 0.0
H250 H 0.60108 0.55586 0.89674 0.0
H251 H 0.56949 0.54443 0.8237 0.0
S252 S 0.76819 0.53545 0.79218 0.0
N253 N 0.75295 0.54476 0.8437 0.0
N254 N 0.71826 0.53153 0.76519 0.0
C255 C 0.68643 0.53782 0.79825 0.0
C256 C 0.70514 0.54497 0.84079 0.0
C257 C 0.09403 0.55312 0.33056 0.0
C258 C 0.05955 0.54485 0.36163 0.0
C259 C 0.08184 0.55962 0.28774 0.0
C260 C 0.0347 0.55797 0.27411 0.0
H261 H 0.1309 0.55484 0.33931 0.0
H262 H 0.10976 0.56519 0.26487 0.0
S263 S 0.93061 0.53843 0.34236 0.0
N264 N 0.97579 0.53602 0.37562 0.0
N265 N 0.95315 0.54822 0.2948 0.0
C266 C 0.99975 0.54979 0.3046 0.0
C267 C 0.01209 0.54328 0.34842 0.0
C268 C 0.31284 0.08463 0.18572 0.0
C269 C 0.29372 0.12362 0.17163 0.0
C270 C 0.35466 0.06551 0.16764 0.0
C271 C 0.37963 0.08455 0.13483 0.0
H272 H 0.29589 0.06898 0.2116 0.0
H273 H 0.36825 0.0362 0.18053 0.0
S274 S 0.34325 0.18461 0.0835 0.0
N275 N 0.30214 0.179 0.12053 0.0
N276 N 0.38039 0.1433 0.0869 0.0
C277 C 0.36016 0.12269 0.1193 0.0
C278 C 0.31742 0.14206 0.13755 0.0
C279 C 0.21883 1.01089 0.6787 0.0
C280 C 0.23872 0.96961 0.68352 0.0
C281 C 0.17586 0.01629 0.65765 0.0
C282 C 0.15064 0.9807 0.64017 0.0
H283 H 0.23612 0.0396 0.69196 0.0
H284 H 0.16213 0.04892 0.65555 0.0
S285 S 0.18809 0.86552 0.64183 0.0
N286 N 0.23057 0.89221 0.66745 0.0
N287 N 0.14958 0.90251 0.62757 0.0
C288 C 0.17059 0.93915 0.64348 0.0
C289 C 0.21459 0.93357 0.66522 0.0
C290 C 0.84052 0.45425 0.9898 0.0
C291 C 0.80614 0.47747 0.01568 0.0
C292 C 0.88831 0.46524 0.99201 0.0
C293 C 0.90318 0.49944 0.0206 0.0
H294 H 0.83058 0.42718 0.96803 0.0
H295 H 0.91387 0.44594 0.9724 0.0
S296 S 0.82637 0.57272 0.09224 0.0
N297 N 0.78997 0.53777 0.06866 0.0
N298 N 0.87915 0.5588 0.07244 0.0
C299 C 0.86875 0.52411 0.04505 0.0
C300 C 0.82035 0.51309 0.04261 0.0
C301 C 0.75396 0.6112 0.49445 0.0
C302 C 0.78814 0.61148 0.52732 0.0
C303 C 0.70676 0.60203 0.50294 0.0
C304 C 0.69194 0.59232 0.54455 0.0
H305 H 0.76367 0.61787 0.46171 0.0
H306 H 0.68189 0.60191 0.47646 0.0
S307 S 0.76688 0.59043 0.64259 0.0
N308 N 0.80326 0.60255 0.60369 0.0
N309 N 0.71491 0.58502 0.61944 0.0
C310 C 0.72556 0.59307 0.5779 0.0
C311 C 0.77351 0.60276 0.56937 0.0
C312 C 0.15073 0.35582 0.09464 0.0
C313 C 0.12107 0.33443 0.12244 0.0
C314 C 0.13428 0.39183 0.0732 0.0
C315 C 0.08805 0.40864 0.07995 0.0
H316 H 0.18703 0.34485 0.08969 0.0
H317 H 0.15852 0.40778 0.05278 0.0
S318 S 0.99658 0.3651 0.14976 0.0
N319 N 0.04285 0.33252 0.15461 0.0
N320 N 0.01296 0.4011 0.11627 0.0
C321 C 0.05811 0.38746 0.10743 0.0
C322 C 0.07431 0.35013 0.12812 0.0
C323 C 0.63436 0.28986 0.98074 0.0
C324 C 0.6823 0.27913 0.97234 0.0
C325 C 0.60285 0.25865 0.99272 0.0
C326 C 0.61838 0.21586 0.99622 0.0
H327 H 0.62178 0.3231 0.98129 0.0
H328 H 0.56722 0.26867 1.00233 0.0
S329 S 0.73715 0.16939 0.96803 0.0
N330 N 0.74158 0.22145 0.96153 0.0
N331 N 0.68211 0.1627 0.98342 0.0
C332 C 0.66479 0.2039 0.9835 0.0
C333 C 0.69688 0.2356 0.9717 0.0
C334 C 0.01255 0.70314 0.5546 0.0
C335 C 0.04005 0.68234 0.52108 0.0
C336 C 1.0038 0.74788 0.55625 0.0
C337 C 0.02152 0.77308 0.52394 0.0
H338 H 0.99901 0.68496 0.58037 0.0
H339 H 0.98434 0.76298 0.58379 0.0
S340 S 0.08899 0.73193 0.42561 0.0
N341 N 0.08129 0.68889 0.45294 0.0
N342 N 0.06306 0.77254 0.45477 0.0
C343 C 0.04686 0.75193 0.48899 0.0
C344 C 0.05657 0.70666 0.48788 0.0
C345 C 0.45584 0.74386 0.64443 0.0
C346 C 0.48524 0.76477 0.67554 0.0
C347 C 0.4717 0.70697 0.61884 0.0
C348 C 0.51706 0.68902 0.6243 0.0
H349 H 0.42036 0.75622 0.63968 0.0
H350 H 0.44765 0.69144 0.59586 0.0
S351 S 0.60752 0.73102 0.70145 0.0
N352 N 0.56219 0.76511 0.70965 0.0
N353 N 0.59112 0.69476 0.66307 0.0
C354 C 0.54675 0.70958 0.65523 0.0
C355 C 0.5311 0.74774 0.68041 0.0
C356 C 0.95087 0.90432 0.75268 0.0
C357 C 0.93073 0.93147 0.78666 0.0
C358 C 0.96431 0.92051 0.71314 0.0
C359 C 0.95912 0.96478 0.70599 0.0
H360 H 0.95581 0.8701 0.7564 0.0
H361 H 0.9796 0.89807 0.68816 0.0
S362 S 0.90929 0.04997 0.78476 0.0
N363 N 0.90658 1.00526 0.81036 0.0
N364 N 0.93268 0.03548 0.73671 0.0
C365 C 0.93945 0.99237 0.73981 0.0
C366 C 0.92505 0.9758 0.77984 0.0
C367 C 0.58483 0.13921 0.2733 0.0
C368 C 0.6011 0.11171 0.30462 0.0
C369 C 0.56852 0.1228 0.23269 0.0
C370 C 0.567 0.07805 0.22157 0.0
H371 H 0.58478 0.17392 0.28007 0.0
H372 H 0.5565 0.14557 0.20997 0.0
S373 S 0.60582 0.99177 0.29143 0.0
N374 N 0.61509 0.03708 0.32117 0.0
N375 N 0.58391 1.00638 0.24521 0.0
C376 C 0.5832 0.05007 0.25245 0.0
C377 C 0.6004 0.06681 0.29373 0.0
C378 C 0.50777 0.5722 0.26553 0.0
C379 C 0.55416 0.57443 0.24933 0.0
C380 C 0.49821 0.57661 0.31023 0.0
C381 C 0.53462 0.58386 0.34029 0.0
H382 H 0.47844 0.56739 0.24358 0.0
H383 H 0.46206 0.5748 0.32134 0.0
S384 S 0.66235 0.58941 0.31543 0.0
N385 N 0.63712 0.58245 0.26754 0.0
N386 N 0.61894 0.59057 0.3513 0.0
C387 C 0.58115 0.58542 0.32472 0.0
C388 C 0.59098 0.58072 0.27933 0.0
C389 C 0.0711 0.56092 0.74782 0.0
C390 C 0.10052 0.53463 0.71977 0.0
C391 C 0.06203 0.54997 0.79009 0.0
C392 C 0.0823 0.5125 0.80582 0.0
H393 H 0.05653 0.59107 0.73757 0.0
H394 H 0.04098 0.57213 0.81143 0.0
S395 S 0.16154 0.43272 0.74544 0.0
N396 N 0.14959 0.46922 0.71053 0.0
N397 N 0.13175 0.44843 0.79014 0.0
C398 C 0.10996 0.48486 0.77762 0.0
C399 C 0.11934 0.49603 0.73447 0.0
C400 C 0.70685 0.93978 1.01266 0.0
C401 C 0.74125 0.97112 1.00734 0.0
C402 C 0.66442 0.95019 0.03539 0.0
C403 C 0.65464 0.99242 0.05335 0.0
H404 H 0.71197 0.90725 0.99799 0.0
H405 H 0.63823 0.92553 0.0371 0.0
S406 S 0.73505 0.08502 0.0538 0.0
N407 N 0.76403 0.04527 0.02607 0.0
N408 N 0.6846 0.06461 0.06806 0.0
C409 C 0.68967 0.02339 0.05028 0.0
C410 C 0.73285 0.01282 0.0275 0.0
C411 C 0.80515 0.03057 0.50238 0.0
C412 C 0.80076 0.07372 0.49105 0.0
C413 C 0.84673 0.01479 0.52119 0.0
C414 C 0.88505 0.04185 0.53028 0.0
H415 H 0.77616 1.00882 0.49687 0.0
H416 H 0.84839 0.98156 0.52965 0.0
S417 S 0.89271 0.15673 0.5053 0.0
N418 N 0.83965 0.14253 0.48896 0.0
N419 N 0.91677 0.11333 0.52464 0.0
C420 C 0.88137 0.08477 0.51846 0.0
C421 C 0.83957 0.10057 0.49879 0.0
C422 C 0.26609 0.58129 0.03562 0.0
C423 C 0.27982 0.60391 0.07444 0.0
C424 C 0.21983 0.56738 0.02963 0.0
C425 C 0.18529 0.57533 0.06228 0.0
H426 H 0.29125 0.57412 1.00944 0.0
H427 H 0.21125 0.55011 0.99909 0.0
S428 S 0.20282 0.63337 0.17022 0.0
N429 N 0.25489 0.63382 0.14617 0.0
N430 N 0.16803 0.60758 0.13502 0.0
C431 C 0.19843 0.59805 0.10131 0.0
C432 C 0.2456 0.61238 0.10735 0.0
C433 C 0.32611 0.54354 0.57164 0.0
C434 C 0.30866 0.56676 0.60935 0.0
C435 C 0.3744 0.53372 0.56646 0.0
C436 C 0.40669 0.54571 0.59927 0.0
H437 H 0.30277 0.53508 0.5449 0.0
H438 H 0.38683 0.5183 0.53579 0.0
S439 S 0.37807 0.6023 0.70631 0.0
N440 N 0.32679 0.59827 0.6815 0.0
N441 N 0.4174 0.57887 0.67211 0.0
C442 C 0.38924 0.5661 0.63837 0.0
C443 C 0.34023 0.57695 0.64329 0.0
C444 C 0.01377 0.71553 0.95395 0.0
C445 C 0.96803 0.7328 0.96263 0.0
C446 C 0.02974 0.67755 0.97208 0.0
C447 C 1.00132 0.65639 1.00099 0.0
H448 H 0.03709 0.731 0.93229 0.0
H449 H 0.06473 0.66476 0.96361 0.0
S450 S 0.87928 0.68861 0.03515 0.0
N451 N 0.89451 0.72539 1.002 0.0
N452 N 0.92541 0.65539 0.03744 0.0
C453 C 0.95595 0.6737 1.01059 0.0
C454 C 0.93909 0.71151 0.99106 0.0
C455 C 0.47786 0.73391 0.13566 0.0
C456 C 0.51536 0.71539 0.10994 0.0
C457 C 0.47076 0.77888 0.1412 0.0
C458 C 0.50147 0.80667 0.12184 0.0
H459 H 0.45508 0.71382 0.15328 0.0
H460 H 0.44214 0.792 0.16188 0.0
S461 S 0.60287 0.77502 0.04931 0.0
N462 N 0.58187 0.72878 0.06309 0.0
N463 N 0.5689 0.81312 0.07423 0.0
C464 C 0.53832 0.78873 0.09533 0.0
C465 C 0.54527 0.74313 0.08931 0.0
C466 C 0.03304 0.3052 0.69346 0.0
C467 C 0.04743 0.32794 0.65801 0.0
C468 C 0.02613 0.2605 0.68885 0.0
C469 C 0.03369 0.23713 0.64872 0.0
H470 H 0.02791 0.3218 0.72524 0.0
H471 H 0.0162 0.24394 0.71705 0.0
S472 S 0.06688 0.28126 0.54492 0.0
N473 N 0.06567 0.3235 0.58058 0.0
N474 N 0.05272 0.23977 0.57235 0.0
C475 C 0.04639 0.2595 0.61277 0.0
C476 C 0.05327 0.30484 0.61729 0.0
C477 C 0.57568 0.38493 0.45086 0.0
C478 C 0.59095 0.34869 0.47229 0.0
C479 C 0.56872 0.42556 0.47303 0.0
C480 C 0.57654 0.4323 0.51797 0.0
H481 H 0.56889 0.38213 0.41634 0.0
H482 H 0.55686 0.45195 0.45444 0.0
S483 S 0.61704 0.3484 0.58991 0.0
N484 N 0.61398 0.32235 0.5415 0.0
N485 N 0.60076 0.39889 0.58329 0.0
C486 C 0.5919 0.39645 0.54007 0.0
C487 C 0.59915 0.35475 0.51727 0.0
loop_
_geom_bond_atom_site_label_1
_geom_bond_atom_site_label_2
_geom_bond_distance
_geom_bond_site_symmetry_2
_ccdc_geom_bond_type
O0 Cd1 2.300 . S
O0 C7 1.275 . S
Cd1 O0 2.300 . S
Cd1 O9 2.381 . S
Cd1 O10 2.378 . S
O2 Cd3 2.385 . S
O2 C7 1.255 . S
Cd3 O2 2.385 . S
Cd3 O4 2.317 . S
O4 Cd3 2.317 . S
O4 C5 1.232 . S
C5 O4 1.232 . S
C5 O6 1.218 . S
O6 C5 1.218 . S
C7 O0 1.275 . S
C7 O2 1.255 . S
C8 O9 1.258 . S
C8 O10 1.256 . S
O9 Cd1 2.381 . S
O9 C8 1.258 . S
O10 Cd1 2.378 . S
O10 C8 1.256 . S
O11 Cd12 2.300 . S
O11 C18 1.275 . S
Cd12 O11 2.300 . S
Cd12 O20 2.381 . S
Cd12 O21 2.378 . S
O13 Cd14 2.385 . S
O13 C18 1.255 . S
Cd14 O13 2.385 . S
Cd14 O15 2.317 . S
O15 Cd14 2.317 . S
O15 C16 1.232 . S
C16 O15 1.232 . S
C16 O17 1.218 . S
O17 C16 1.218 . S
C18 O11 1.275 . S
C18 O13 1.255 . S
C19 O20 1.258 . S
C19 O21 1.256 . S
O20 Cd12 2.381 . S
O20 C19 1.258 . S
O21 Cd12 2.378 . S
O21 C19 1.256 . S
O22 Cd23 2.300 . S
O22 C29 1.275 . S
Cd23 O22 2.300 . S
Cd23 O31 2.381 . S
Cd23 O32 2.378 . S
O24 Cd25 2.385 . S
O24 C29 1.255 . S
Cd25 O24 2.385 . S
Cd25 O26 2.317 . S
O26 Cd25 2.317 . S
O26 C27 1.232 1_556 S
C27 O26 1.232 1_554 S
C27 O28 1.218 . S
O28 C27 1.218 . S
C29 O22 1.275 . S
C29 O24 1.255 . S
C30 O31 1.258 . S
C30 O32 1.256 . S
O31 Cd23 2.381 . S
O31 C30 1.258 . S
O32 Cd23 2.378 . S
O32 C30 1.256 . S
O33 Cd34 2.300 . S
O33 C40 1.275 . S
Cd34 O33 2.300 . S
Cd34 O42 2.381 . S
Cd34 O43 2.378 . S
O35 Cd36 2.385 . S
O35 C40 1.255 . S
Cd36 O35 2.385 . S
Cd36 O37 2.317 . S
O37 Cd36 2.317 . S
O37 C38 1.232 . S
C38 O37 1.232 . S
C38 O39 1.218 . S
O39 C38 1.218 . S
C40 O33 1.275 . S
C40 O35 1.255 . S
C41 O42 1.258 . S
C41 O43 1.256 . S
O42 Cd34 2.381 . S
O42 C41 1.258 . S
O43 Cd34 2.378 . S
O43 C41 1.256 . S
O44 Cd45 2.300 . S
O44 C51 1.275 . S
Cd45 O44 2.300 . S
Cd45 O53 2.381 . S
Cd45 O54 2.378 . S
O46 Cd47 2.385 . S
O46 C51 1.255 . S
Cd47 O46 2.385 . S
Cd47 O48 2.317 . S
O48 Cd47 2.317 . S
O48 C49 1.232 . S
C49 O48 1.232 . S
C49 O50 1.218 1_565 S
O50 C49 1.218 1_545 S
C51 O44 1.275 . S
C51 O46 1.255 . S
C52 O53 1.258 . S
C52 O54 1.256 . S
O53 Cd45 2.381 . S
O53 C52 1.258 . S
O54 Cd45 2.378 . S
O54 C52 1.256 . S
O55 Cd56 2.300 . S
O55 C62 1.275 . S
Cd56 O55 2.300 . S
Cd56 O64 2.381 . S
Cd56 O65 2.378 . S
O57 Cd58 2.385 . S
O57 C62 1.255 . S
Cd58 O57 2.385 . S
Cd58 O59 2.317 . S
O59 Cd58 2.317 . S
O59 C60 1.232 . S
C60 O59 1.232 . S
C60 O61 1.218 . S
O61 C60 1.218 . S
C62 O55 1.275 . S
C62 O57 1.255 . S
C63 O64 1.258 . S
C63 O65 1.256 . S
O64 Cd56 2.381 . S
O64 C63 1.258 . S
O65 Cd56 2.378 . S
O65 C63 1.256 . S
O66 Cd67 2.300 . S
O66 C73 1.275 . S
Cd67 O66 2.300 . S
Cd67 O75 2.381 . S
Cd67 O76 2.378 . S
O68 Cd69 2.385 . S
O68 C73 1.255 . S
Cd69 O68 2.385 . S
Cd69 O70 2.317 . S
O70 Cd69 2.317 . S
O70 C71 1.232 . S
C71 O70 1.232 . S
C71 O72 1.218 . S
O72 C71 1.218 . S
C73 O66 1.275 . S
C73 O68 1.255 . S
C74 O75 1.258 . S
C74 O76 1.256 . S
O75 Cd67 2.381 . S
O75 C74 1.258 . S
O76 Cd67 2.378 . S
O76 C74 1.256 . S
O77 Cd78 2.300 . S
O77 C84 1.275 . S
Cd78 O77 2.300 . S
Cd78 O86 2.381 . S
Cd78 O87 2.378 . S
O79 Cd80 2.385 . S
O79 C84 1.255 . S
Cd80 O79 2.385 . S
Cd80 O81 2.317 . S
O81 Cd80 2.317 . S
O81 C82 1.232 . S
C82 O81 1.232 . S
C82 O83 1.218 . S
O83 C82 1.218 . S
C84 O77 1.275 . S
C84 O79 1.255 . S
C85 O86 1.258 . S
C85 O87 1.256 . S
O86 Cd78 2.381 . S
O86 C85 1.258 . S
O87 Cd78 2.378 . S
O87 C85 1.256 . S
C88 O104 1.251 . S
C88 O106 1.254 1_545 S
N89 C90 1.333 . S
N89 C94 1.307 . S
N89 Zn95 2.020 . S
C90 N89 1.333 . S
C90 C91 1.379 . S
C90 H108 0.952 . S
C91 C90 1.379 . S
C91 C92 1.390 . S
C91 H118 0.949 . S
C92 C91 1.390 . S
C92 C93 1.357 . S
C93 C92 1.357 . S
C93 C94 1.370 . S
C93 H119 0.950 . S
C94 N89 1.307 . S
C94 C93 1.370 . S
C94 H112 0.948 . S
Zn95 N89 2.020 . S
Zn95 O104 2.039 . S
Zn95 O110 2.034 . S
Zn95 O114 2.025 . S
Zn95 O116 2.024 1_455 S
C96 O115 1.246 . S
C96 O116 1.249 . S
N97 C98 1.307 1_655 S
N97 C99 1.333 . S
N97 Zn103 2.020 1_655 S
C98 N97 1.307 1_455 S
C98 C102 1.370 1_455 S
C98 H109 0.948 . S
C99 N97 1.333 . S
C99 C100 1.379 . S
C99 H107 0.952 . S
C100 C99 1.379 . S
C100 C101 1.390 . S
C100 H120 0.949 . S
C101 C100 1.390 . S
C101 C102 1.357 . S
C102 C98 1.370 1_655 S
C102 C101 1.357 . S
C102 H121 0.950 1_655 S
Zn103 N97 2.020 1_455 S
Zn103 O106 2.025 . S
Zn103 O111 2.024 . S
Zn103 O113 2.039 1_455 S
Zn103 O115 2.034 1_465 S
O104 C88 1.251 . S
O104 Zn95 2.039 . S
C105 O110 1.246 1_565 S
C105 O111 1.249 . S
O106 C88 1.254 1_565 S
O106 Zn103 2.025 . S
H107 C99 0.952 . S
H108 C90 0.952 . S
H109 C98 0.948 . S
O110 Zn95 2.034 . S
O110 C105 1.246 1_545 S
O111 Zn103 2.024 . S
O111 C105 1.249 . S
H112 C94 0.948 . S
O113 Zn103 2.039 1_655 S
O113 C117 1.252 1_565 S
O114 Zn95 2.025 . S
O114 C117 1.252 1_455 S
O115 C96 1.246 . S
O115 Zn103 2.034 1_645 S
O116 Zn95 2.024 1_655 S
O116 C96 1.249 . S
C117 O113 1.252 1_545 S
C117 O114 1.252 1_655 S
H118 C91 0.949 . S
H119 C93 0.950 . S
H120 C100 0.949 . S
H121 C102 0.950 1_455 S
C122 O138 1.251 . S
C122 O140 1.254 1_545 S
N123 C124 1.333 . S
N123 C128 1.307 . S
N123 Zn129 2.020 . S
C124 N123 1.333 . S
C124 C125 1.379 . S
C124 H142 0.952 . S
C125 C124 1.379 . S
C125 C126 1.390 . S
C125 H152 0.949 . S
C126 C125 1.390 . S
C126 C127 1.357 . S
C127 C126 1.357 . S
C127 C128 1.370 . S
C127 H153 0.950 . S
C128 N123 1.307 . S
C128 C127 1.370 . S
C128 H146 0.948 . S
Zn129 N123 2.020 . S
Zn129 O138 2.039 . S
Zn129 O144 2.034 . S
Zn129 O148 2.025 . S
Zn129 O150 2.024 . S
C130 O149 1.246 1_546 S
C130 O150 1.249 1_556 S
N131 C132 1.307 . S
N131 C133 1.333 . S
N131 Zn137 2.020 . S
C132 N131 1.307 . S
C132 C136 1.370 . S
C132 H143 0.948 . S
C133 N131 1.333 . S
C133 C134 1.379 . S
C133 H141 0.952 . S
C134 C133 1.379 . S
C134 C135 1.390 . S
C134 H154 0.949 . S
C135 C134 1.390 . S
C135 C136 1.357 . S
C136 C132 1.370 . S
C136 C135 1.357 . S
C136 H155 0.950 . S
Zn137 N131 2.020 . S
Zn137 O140 2.025 . S
Zn137 O145 2.024 1_565 S
Zn137 O147 2.039 1_565 S
Zn137 O149 2.034 . S
O138 C122 1.251 . S
O138 Zn129 2.039 . S
C139 O144 1.246 . S
C139 O145 1.249 . S
O140 C122 1.254 1_565 S
O140 Zn137 2.025 . S
H141 C133 0.952 . S
H142 C124 0.952 . S
H143 C132 0.948 . S
O144 Zn129 2.034 . S
O144 C139 1.246 . S
O145 Zn137 2.024 1_545 S
O145 C139 1.249 . S
H146 C128 0.948 . S
O147 Zn137 2.039 1_545 S
O147 C151 1.251 . S
O148 Zn129 2.025 . S
O148 C151 1.254 . S
O149 C130 1.246 1_564 S
O149 Zn137 2.034 . S
O150 Zn129 2.024 . S
O150 C130 1.249 1_554 S
C151 O147 1.251 . S
C151 O148 1.254 . S
H152 C125 0.949 . S
H153 C127 0.950 . S
H154 C134 0.949 . S
H155 C136 0.950 . S
C156 O172 1.251 . S
C156 O174 1.254 . S
N157 C158 1.333 . S
N157 C162 1.307 . S
N157 Zn163 2.020 . S
C158 N157 1.333 . S
C158 C159 1.379 . S
C158 H176 0.952 . S
C159 C158 1.379 . S
C159 C160 1.390 . S
C159 H186 0.949 . S
C160 C159 1.390 . S
C160 C161 1.357 . S
C161 C160 1.357 . S
C161 C162 1.370 . S
C161 H187 0.950 . S
C162 N157 1.307 . S
C162 C161 1.370 . S
C162 H180 0.948 . S
Zn163 N157 2.020 . S
Zn163 O172 2.039 . S
Zn163 O178 2.034 . S
Zn163 O182 2.025 . S
Zn163 O184 2.024 . S
C164 O183 1.246 . S
C164 O184 1.249 . S
N165 C166 1.307 . S
N165 C167 1.333 . S
N165 Zn171 2.020 . S
C166 N165 1.307 . S
C166 C170 1.370 . S
C166 H177 0.948 . S
C167 N165 1.333 . S
C167 C168 1.379 . S
C167 H175 0.952 . S
C168 C167 1.379 . S
C168 C169 1.390 . S
C168 H188 0.949 . S
C169 C168 1.390 . S
C169 C170 1.357 . S
C170 C166 1.370 . S
C170 C169 1.357 . S
C170 H189 0.950 . S
Zn171 N165 2.020 . S
Zn171 O174 2.025 . S
Zn171 O179 2.024 . S
Zn171 O181 2.039 . S
Zn171 O183 2.034 . S
O172 C156 1.251 . S
O172 Zn163 2.039 . S
C173 O178 1.246 . S
C173 O179 1.249 . S
O174 C156 1.254 . S
O174 Zn171 2.025 . S
H175 C167 0.952 . S
H176 C158 0.952 . S
H177 C166 0.948 . S
O178 Zn163 2.034 . S
O178 C173 1.246 . S
O179 Zn171 2.024 . S
O179 C173 1.249 . S
H180 C162 0.948 . S
O181 Zn171 2.039 . S
O181 C185 1.251 . S
O182 Zn163 2.025 . S
O182 C185 1.254 . S
O183 C164 1.246 . S
O183 Zn171 2.034 . S
O184 Zn163 2.024 . S
O184 C164 1.249 . S
C185 O181 1.251 . S
C185 O182 1.254 . S
H186 C159 0.949 . S
H187 C161 0.950 . S
H188 C168 0.949 . S
H189 C170 0.950 . S
C190 O206 1.251 . S
C190 O208 1.254 1_554 S
N191 C192 1.333 . S
N191 C196 1.307 1_455 S
N191 Zn197 2.020 . S
C192 N191 1.333 . S
C192 C193 1.379 1_455 S
C192 H210 0.952 . S
C193 C192 1.379 1_655 S
C193 C194 1.390 . S
C193 H220 0.949 . S
C194 C193 1.390 . S
C194 C195 1.357 . S
C195 C194 1.357 . S
C195 C196 1.370 . S
C195 H221 0.950 . S
C196 N191 1.307 1_655 S
C196 C195 1.370 . S
C196 H214 0.948 . S
Zn197 N191 2.020 . S
Zn197 O206 2.039 . S
Zn197 O212 2.034 . S
Zn197 O216 2.025 . S
Zn197 O218 2.024 1_455 S
C198 O217 1.246 1_554 S
C198 O218 1.249 . S
N199 C200 1.307 . S
N199 C201 1.333 . S
N199 Zn205 2.020 . S
C200 N199 1.307 . S
C200 C204 1.370 . S
C200 H211 0.948 . S
C201 N199 1.333 . S
C201 C202 1.379 . S
C201 H209 0.952 . S
C202 C201 1.379 . S
C202 C203 1.390 . S
C202 H222 0.949 . S
C203 C202 1.390 . S
C203 C204 1.357 . S
C204 C200 1.370 . S
C204 C203 1.357 . S
C204 H223 0.950 . S
Zn205 N199 2.020 . S
Zn205 O208 2.025 . S
Zn205 O213 2.024 1_556 S
Zn205 O215 2.039 1_556 S
Zn205 O217 2.034 1_455 S
O206 C190 1.251 . S
O206 Zn197 2.039 . S
C207 O212 1.246 . S
C207 O213 1.249 . S
O208 C190 1.254 1_556 S
O208 Zn205 2.025 . S
H209 C201 0.952 . S
H210 C192 0.952 . S
H211 C200 0.948 . S
O212 Zn197 2.034 . S
O212 C207 1.246 . S
O213 Zn205 2.024 1_554 S
O213 C207 1.249 . S
H214 C196 0.948 . S
O215 Zn205 2.039 1_554 S
O215 C219 1.251 . S
O216 Zn197 2.025 . S
O216 C219 1.254 . S
O217 C198 1.246 1_556 S
O217 Zn205 2.034 1_655 S
O218 Zn197 2.024 1_655 S
O218 C198 1.249 . S
C219 O215 1.251 . S
C219 O216 1.254 . S
H220 C193 0.949 . S
H221 C195 0.950 . S
H222 C202 0.949 . S
H223 C204 0.950 . S
C224 C225 1.369 . S
C224 C226 1.419 . S
C224 H228 0.930 . S
C225 C224 1.369 . S
C225 C234 1.429 . S
C226 C224 1.419 . S
C226 C227 1.363 . S
C226 H229 0.929 . S
C227 C226 1.363 . S
C227 C233 1.428 . S
H228 C224 0.930 . S
H229 C226 0.929 . S
S230 N231 1.613 . S
S230 N232 1.610 . S
N231 S230 1.613 . S
N231 C234 1.350 1_565 S
N232 S230 1.610 . S
N232 C233 1.351 1_565 S
C233 C227 1.428 . S
C233 N232 1.351 1_545 S
C233 C234 1.434 . S
C234 C225 1.429 . S
C234 N231 1.350 1_545 S
C234 C233 1.434 . S
C235 C236 1.369 . S
C235 C237 1.419 . S
C235 H239 0.930 . S
C236 C235 1.369 . S
C236 C245 1.429 . S
C237 C235 1.419 . S
C237 C238 1.363 . S
C237 H240 0.929 . S
C238 C237 1.363 . S
C238 C244 1.428 . S
H239 C235 0.930 . S
H240 C237 0.929 . S
S241 N242 1.613 1_545 S
S241 N243 1.610 . S
N242 S241 1.613 1_565 S
N242 C245 1.350 . S
N243 S241 1.610 . S
N243 C244 1.351 1_545 S
C244 C238 1.428 . S
C244 N243 1.351 1_565 S
C244 C245 1.434 . S
C245 C236 1.429 . S
C245 N242 1.350 . S
C245 C244 1.434 . S
C246 C247 1.369 . S
C246 C248 1.419 . S
C246 H250 0.930 . S
C247 C246 1.369 . S
C247 C256 1.429 . S
C248 C246 1.419 . S
C248 C249 1.363 . S
C248 H251 0.929 . S
C249 C248 1.363 . S
C249 C255 1.428 . S
H250 C246 0.930 . S
H251 C248 0.929 . S
S252 N253 1.613 . S
S252 N254 1.610 . S
N253 S252 1.613 . S
N253 C256 1.350 . S
N254 S252 1.610 . S
N254 C255 1.351 . S
C255 C249 1.428 . S
C255 N254 1.351 . S
C255 C256 1.434 . S
C256 C247 1.429 . S
C256 N253 1.350 . S
C256 C255 1.434 . S
C257 C258 1.369 1_455 S
C257 C259 1.419 . S
C257 H261 0.930 . S
C258 C257 1.369 1_655 S
C258 C267 1.429 . S
C259 C257 1.419 . S
C259 C260 1.363 1_455 S
C259 H262 0.929 . S
C260 C259 1.363 1_655 S
C260 C266 1.428 . S
H261 C257 0.930 . S
H262 C259 0.929 . S
S263 N264 1.613 . S
S263 N265 1.610 . S
N264 S263 1.613 . S
N264 C267 1.350 . S
N265 S263 1.610 . S
N265 C266 1.351 . S
C266 C260 1.428 . S
C266 N265 1.351 . S
C266 C267 1.434 . S
C267 C258 1.429 . S
C267 N264 1.350 . S
C267 C266 1.434 . S
C268 C269 1.369 . S
C268 C270 1.419 . S
C268 H272 0.930 . S
C269 C268 1.369 . S
C269 C278 1.429 . S
C270 C268 1.419 . S
C270 C271 1.363 . S
C270 H273 0.929 . S
C271 C270 1.363 . S
C271 C277 1.428 . S
H272 C268 0.930 . S
H273 C270 0.929 . S
S274 N275 1.613 . S
S274 N276 1.610 . S
N275 S274 1.613 . S
N275 C278 1.350 . S
N276 S274 1.610 . S
N276 C277 1.351 . S
C277 C271 1.428 . S
C277 N276 1.351 . S
C277 C278 1.434 . S
C278 C269 1.429 . S
C278 N275 1.350 . S
C278 C277 1.434 . S
C279 C280 1.369 1_545 S
C279 C281 1.419 . S
C279 H283 0.930 . S
C280 C279 1.369 1_565 S
C280 C289 1.429 . S
C281 C279 1.419 . S
C281 C282 1.363 1_545 S
C281 H284 0.929 . S
C282 C281 1.363 1_565 S
C282 C288 1.428 . S
H283 C279 0.930 . S
H284 C281 0.929 . S
S285 N286 1.613 . S
S285 N287 1.610 . S
N286 S285 1.613 . S
N286 C289 1.350 . S
N287 S285 1.610 . S
N287 C288 1.351 . S
C288 C282 1.428 . S
C288 N287 1.351 . S
C288 C289 1.434 . S
C289 C280 1.429 . S
C289 N286 1.350 . S
C289 C288 1.434 . S
C290 C291 1.369 1_556 S
C290 C292 1.419 . S
C290 H294 0.930 . S
C291 C290 1.369 1_554 S
C291 C300 1.429 . S
C292 C290 1.419 . S
C292 C293 1.363 . S
C292 H295 0.929 . S
C293 C292 1.363 . S
C293 C299 1.428 1_556 S
H294 C290 0.930 . S
H295 C292 0.929 . S
S296 N297 1.613 . S
S296 N298 1.610 . S
N297 S296 1.613 . S
N297 C300 1.350 . S
N298 S296 1.610 . S
N298 C299 1.351 . S
C299 C293 1.428 1_554 S
C299 N298 1.351 . S
C299 C300 1.434 . S
C300 C291 1.429 . S
C300 N297 1.350 . S
C300 C299 1.434 . S
C301 C302 1.369 . S
C301 C303 1.419 . S
C301 H305 0.930 . S
C302 C301 1.369 . S
C302 C311 1.429 . S
C303 C301 1.419 . S
C303 C304 1.363 . S
C303 H306 0.929 . S
C304 C303 1.363 . S
C304 C310 1.428 . S
H305 C301 0.930 . S
H306 C303 0.929 . S
S307 N308 1.613 . S
S307 N309 1.610 . S
N308 S307 1.613 . S
N308 C311 1.350 . S
N309 S307 1.610 . S
N309 C310 1.351 . S
C310 C304 1.428 . S
C310 N309 1.351 . S
C310 C311 1.434 . S
C311 C302 1.429 . S
C311 N308 1.350 . S
C311 C310 1.434 . S
C312 C313 1.369 . S
C312 C314 1.419 . S
C312 H316 0.930 . S
C313 C312 1.369 . S
C313 C322 1.429 . S
C314 C312 1.419 . S
C314 C315 1.363 . S
C314 H317 0.929 . S
C315 C314 1.363 . S
C315 C321 1.428 . S
H316 C312 0.930 . S
H317 C314 0.929 . S
S318 N319 1.613 1_655 S
S318 N320 1.610 1_655 S
N319 S318 1.613 1_455 S
N319 C322 1.350 . S
N320 S318 1.610 1_455 S
N320 C321 1.351 . S
C321 C315 1.428 . S
C321 N320 1.351 . S
C321 C322 1.434 . S
C322 C313 1.429 . S
C322 N319 1.350 . S
C322 C321 1.434 . S
C323 C324 1.369 . S
C323 C325 1.419 . S
C323 H327 0.930 . S
C324 C323 1.369 . S
C324 C333 1.429 . S
C325 C323 1.419 . S
C325 C326 1.363 . S
C325 H328 0.929 . S
C326 C325 1.363 . S
C326 C332 1.428 . S
H327 C323 0.930 . S
H328 C325 0.929 . S
S329 N330 1.613 . S
S329 N331 1.610 . S
N330 S329 1.613 . S
N330 C333 1.350 1_556 S
N331 S329 1.610 . S
N331 C332 1.351 1_556 S
C332 C326 1.428 . S
C332 N331 1.351 1_554 S
C332 C333 1.434 . S
C333 C324 1.429 . S
C333 N330 1.350 1_554 S
C333 C332 1.434 . S
C334 C335 1.369 . S
C334 C336 1.419 . S
C334 H338 0.930 . S
C335 C334 1.369 . S
C335 C344 1.429 . S
C336 C334 1.419 . S
C336 C337 1.363 . S
C336 H339 0.929 . S
C337 C336 1.363 . S
C337 C343 1.428 . S
H338 C334 0.930 . S
H339 C336 0.929 . S
S340 N341 1.613 1_455 S
S340 N342 1.610 1_455 S
N341 S340 1.613 1_655 S
N341 C344 1.350 . S
N342 S340 1.610 1_655 S
N342 C343 1.351 . S
C343 C337 1.428 . S
C343 N342 1.351 . S
C343 C344 1.434 . S
C344 C335 1.429 . S
C344 N341 1.350 . S
C344 C343 1.434 . S
C345 C346 1.369 . S
C345 C347 1.419 . S
C345 H349 0.930 . S
C346 C345 1.369 . S
C346 C355 1.429 . S
C347 C345 1.419 . S
C347 C348 1.363 . S
C347 H350 0.929 . S
C348 C347 1.363 . S
C348 C354 1.428 . S
H349 C345 0.930 . S
H350 C347 0.929 . S
S351 N352 1.613 . S
S351 N353 1.610 . S
N352 S351 1.613 . S
N352 C355 1.350 . S
N353 S351 1.610 . S
N353 C354 1.351 . S
C354 C348 1.428 . S
C354 N353 1.351 . S
C354 C355 1.434 . S
C355 C346 1.429 . S
C355 N352 1.350 . S
C355 C354 1.434 . S
C356 C357 1.369 . S
C356 C358 1.419 . S
C356 H360 0.930 . S
C357 C356 1.369 . S
C357 C366 1.429 . S
C358 C356 1.419 . S
C358 C359 1.363 . S
C358 H361 0.929 . S
C359 C358 1.363 . S
C359 C365 1.417 1_655 S
H360 C356 0.930 . S
H361 C358 0.929 . S
S362 N363 1.613 1_545 S
S362 N364 1.610 . S
N363 S362 1.613 1_565 S
N363 C366 1.350 1_455 S
N364 S362 1.610 . S
N364 C365 1.367 1_545 S
C365 C359 1.417 1_455 S
C365 N364 1.367 1_565 S
C365 C366 1.430 1_455 S
C366 C357 1.429 . S
C366 N363 1.350 1_655 S
C366 C365 1.430 1_655 S
C367 C368 1.369 . S
C367 C369 1.419 . S
C367 H371 0.930 . S
C368 C367 1.369 . S
C368 C377 1.429 . S
C369 C367 1.419 . S
C369 C370 1.363 . S
C369 H372 0.929 . S
C370 C369 1.363 . S
C370 C376 1.428 . S
H371 C367 0.930 . S
H372 C369 0.929 . S
S373 N374 1.613 1_565 S
S373 N375 1.610 1_565 S
N374 S373 1.613 1_545 S
N374 C377 1.350 . S
N375 S373 1.610 1_545 S
N375 C376 1.351 . S
C376 C370 1.428 . S
C376 N375 1.351 . S
C376 C377 1.434 . S
C377 C368 1.429 . S
C377 N374 1.350 . S
C377 C376 1.434 . S
C378 C379 1.369 . S
C378 C380 1.419 . S
C378 H382 0.930 . S
C379 C378 1.369 . S
C379 C388 1.429 . S
C380 C378 1.419 . S
C380 C381 1.363 . S
C380 H383 0.929 . S
C381 C380 1.363 . S
C381 C387 1.428 . S
H382 C378 0.930 . S
H383 C380 0.929 . S
S384 N385 1.613 . S
S384 N386 1.610 . S
N385 S384 1.613 . S
N385 C388 1.350 . S
N386 S384 1.610 . S
N386 C387 1.351 . S
C387 C381 1.428 . S
C387 N386 1.351 . S
C387 C388 1.434 . S
C388 C379 1.429 . S
C388 N385 1.350 . S
C388 C387 1.434 . S
C389 C390 1.369 . S
C389 C391 1.419 . S
C389 H393 0.930 . S
C390 C389 1.369 . S
C390 C399 1.429 . S
C391 C389 1.419 . S
C391 C392 1.363 . S
C391 H394 0.929 . S
C392 C391 1.363 . S
C392 C398 1.428 . S
H393 C389 0.930 . S
H394 C391 0.929 . S
S395 N396 1.613 . S
S395 N397 1.610 . S
N396 S395 1.613 . S
N396 C399 1.350 . S
N397 S395 1.610 . S
N397 C398 1.351 . S
C398 C392 1.428 . S
C398 N397 1.351 . S
C398 C399 1.434 . S
C399 C390 1.429 . S
C399 N396 1.350 . S
C399 C398 1.434 . S
C400 C401 1.369 1_554 S
C400 C402 1.419 . S
C400 H404 0.930 . S
C401 C400 1.369 1_556 S
C401 C410 1.429 1_565 S
C402 C400 1.419 . S
C402 C403 1.363 . S
C402 H405 0.929 . S
C403 C402 1.363 . S
C403 C409 1.428 1_564 S
H404 C400 0.930 . S
H405 C402 0.929 . S
S406 N407 1.613 . S
S406 N408 1.610 . S
N407 S406 1.613 . S
N407 C410 1.350 . S
N408 S406 1.610 . S
N408 C409 1.351 . S
C409 C403 1.428 1_546 S
C409 N408 1.351 . S
C409 C410 1.434 . S
C410 C401 1.429 1_545 S
C410 N407 1.350 . S
C410 C409 1.434 . S
C411 C412 1.369 . S
C411 C413 1.419 . S
C411 H415 0.930 . S
C412 C411 1.369 . S
C412 C421 1.429 . S
C413 C411 1.419 . S
C413 C414 1.363 . S
C413 H416 0.929 . S
C414 C413 1.363 . S
C414 C420 1.428 . S
H415 C411 0.930 . S
H416 C413 0.929 . S
S417 N418 1.613 . S
S417 N419 1.610 . S
N418 S417 1.613 . S
N418 C421 1.350 . S
N419 S417 1.610 . S
N419 C420 1.351 . S
C420 C414 1.428 . S
C420 N419 1.351 . S
C420 C421 1.434 . S
C421 C412 1.429 . S
C421 N418 1.350 . S
C421 C420 1.434 . S
C422 C423 1.369 . S
C422 C424 1.419 . S
C422 H426 0.930 1_554 S
C423 C422 1.369 . S
C423 C432 1.429 . S
C424 C422 1.419 . S
C424 C425 1.363 . S
C424 H427 0.929 1_554 S
C425 C424 1.363 . S
C425 C431 1.428 . S
H426 C422 0.930 1_556 S
H427 C424 0.929 1_556 S
S428 N429 1.613 . S
S428 N430 1.610 . S
N429 S428 1.613 . S
N429 C432 1.350 . S
N430 S428 1.610 . S
N430 C431 1.351 . S
C431 C425 1.428 . S
C431 N430 1.351 . S
C431 C432 1.434 . S
C432 C423 1.429 . S
C432 N429 1.350 . S
C432 C431 1.434 . S
C433 C434 1.369 . S
C433 C435 1.419 . S
C433 H437 0.930 . S
C434 C433 1.369 . S
C434 C443 1.429 . S
C435 C433 1.419 . S
C435 C436 1.363 . S
C435 H438 0.929 . S
C436 C435 1.363 . S
C436 C442 1.428 . S
H437 C433 0.930 . S
H438 C435 0.929 . S
S439 N440 1.613 . S
S439 N441 1.610 . S
N440 S439 1.613 . S
N440 C443 1.350 . S
N441 S439 1.610 . S
N441 C442 1.351 . S
C442 C436 1.428 . S
C442 N441 1.351 . S
C442 C443 1.434 . S
C443 C434 1.429 . S
C443 N440 1.350 . S
C443 C442 1.434 . S
C444 C445 1.369 1_455 S
C444 C446 1.419 . S
C444 H448 0.930 . S
C445 C444 1.369 1_655 S
C445 C454 1.429 . S
C446 C444 1.419 . S
C446 C447 1.374 . S
C446 H449 0.929 . S
C447 C446 1.374 . S
C447 C453 1.411 1_456 S
H448 C444 0.930 . S
H449 C446 0.929 . S
S450 N451 1.613 . S
S450 N452 1.610 . S
N451 S450 1.613 . S
N451 C454 1.350 1_554 S
N452 S450 1.610 . S
N452 C453 1.358 . S
C453 C447 1.411 1_654 S
C453 N452 1.358 . S
C453 C454 1.431 1_554 S
C454 C445 1.429 . S
C454 N451 1.350 1_556 S
C454 C453 1.431 1_556 S
C455 C456 1.369 . S
C455 C457 1.419 . S
C455 H459 0.930 . S
C456 C455 1.369 . S
C456 C465 1.429 . S
C457 C455 1.419 . S
C457 C458 1.363 . S
C457 H460 0.929 . S
C458 C457 1.363 . S
C458 C464 1.428 . S
H459 C455 0.930 . S
H460 C457 0.929 . S
S461 N462 1.613 . S
S461 N463 1.610 . S
N462 S461 1.613 . S
N462 C465 1.350 . S
N463 S461 1.610 . S
N463 C464 1.351 . S
C464 C458 1.428 . S
C464 N463 1.351 . S
C464 C465 1.434 . S
C465 C456 1.429 . S
C465 N462 1.350 . S
C465 C464 1.434 . S
C466 C467 1.369 . S
C466 C468 1.419 . S
C466 H470 0.930 . S
C467 C466 1.369 . S
C467 C476 1.429 . S
C468 C466 1.419 . S
C468 C469 1.363 . S
C468 H471 0.929 . S
C469 C468 1.363 . S
C469 C475 1.428 . S
H470 C466 0.930 . S
H471 C468 0.929 . S
S472 N473 1.613 . S
S472 N474 1.610 . S
N473 S472 1.613 . S
N473 C476 1.350 . S
N474 S472 1.610 . S
N474 C475 1.351 . S
C475 C469 1.428 . S
C475 N474 1.351 . S
C475 C476 1.434 . S
C476 C467 1.429 . S
C476 N473 1.350 . S
C476 C475 1.434 . S
C477 C478 1.369 . S
C477 C479 1.419 . S
C477 H481 0.930 . S
C478 C477 1.369 . S
C478 C487 1.429 . S
C479 C477 1.419 . S
C479 C480 1.363 . S
C479 H482 0.929 . S
C480 C479 1.363 . S
C480 C486 1.428 . S
H481 C477 0.930 . S
H482 C479 0.929 . S
S483 N484 1.613 . S
S483 N485 1.610 . S
N484 S483 1.613 . S
N484 C487 1.350 . S
N485 S483 1.610 . S
N485 C486 1.351 . S
C486 C480 1.428 . S
C486 N485 1.351 . S
C486 C487 1.434 . S
C487 C478 1.429 . S
C487 N484 1.350 . S
C487 C486 1.434 . S
C225 C5 2.446 . S
C227 C88 2.596 . S
C236 C18 2.256 . S
C238 C130 2.403 1_565 S
C249 C160 0.929 . S
C247 C30 0.887 . S
C258 C41 0.966 . S
C260 C194 0.961 . S
C271 C151 2.085 . S
C269 C7 2.010 . S
C282 C105 2.121 . S
C280 C16 1.774 . S
C293 C198 1.423 1_556 S
C291 C29 1.237 1_554 S
C304 C164 1.041 . S
C302 C38 1.053 . S
C313 C8 2.256 . S
C315 C219 2.247 . S
C326 C126 1.367 . S
C324 C27 1.128 . S
C335 C40 1.088 . S
C337 C101 1.130 . S
C346 C19 1.815 . S
C348 C185 1.860 . S
C359 C117 2.445 1_565 S
C357 C51 2.392 . S
C368 C62 2.327 . S
C370 C139 2.476 . S
C379 C74 0.969 . S
C381 C169 0.990 . S
C390 C84 0.999 . S
C392 C203 1.044 . S
C401 C49 2.047 . S
C403 C122 2.163 1_565 S
C414 C96 1.854 . S
C412 C63 1.791 . S
C425 C207 1.373 . S
C423 C71 1.067 . S
C436 C173 1.119 . S
C434 C85 1.061 . S
C445 C52 2.236 . S
C447 C190 2.239 1_556 S
C458 C135 1.375 . S
C456 C73 1.192 . S
C469 C92 1.121 . S
C467 C82 0.854 . S
C478 C60 2.001 . S
C480 C156 2.372 . S
