# Generated by pormake.
# Topology gar, (4,6)-cn, num edge types: 1
# Building blocks:
#     Node 0, Type 0, BuildingBlock: NAHDIM_clean_sbu_0, # of connection points: 4
#     Node 1, Type 0, BuildingBlock: NAHDIM_clean_sbu_0, # of connection points: 4
#     Node 2, Type 0, BuildingBlock: NAHDIM_clean_sbu_0, # of connection points: 4
#     Node 3, Type 0, BuildingBlock: NAHDIM_clean_sbu_0, # of connection points: 4
#     Node 4, Type 0, BuildingBlock: NAHDIM_clean_sbu_0, # of connection points: 4
#     Node 5, Type 0, BuildingBlock: NAHDIM_clean_sbu_0, # of connection points: 4
#     Node 6, Type 0, BuildingBlock: NAHDIM_clean_sbu_0, # of connection points: 4
#     Node 7, Type 0, BuildingBlock: NAHDIM_clean_sbu_0, # of connection points: 4
#     Node 8, Type 0, BuildingBlock: NAHDIM_clean_sbu_0, # of connection points: 4
#     Node 9, Type 0, BuildingBlock: NAHDIM_clean_sbu_0, # of connection points: 4
#     Node 10, Type 0, BuildingBlock: NAHDIM_clean_sbu_0, # of connection points: 4
#     Node 11, Type 0, BuildingBlock: NAHDIM_clean_sbu_0, # of connection points: 4
#     Node 12, Type 0, BuildingBlock: NAHDIM_clean_sbu_0, # of connection points: 4
#     Node 13, Type 0, BuildingBlock: NAHDIM_clean_sbu_0, # of connection points: 4
#     Node 14, Type 0, BuildingBlock: NAHDIM_clean_sbu_0, # of connection points: 4
#     Node 15, Type 0, BuildingBlock: NAHDIM_clean_sbu_0, # of connection points: 4
#     Node 16, Type 0, BuildingBlock: NAHDIM_clean_sbu_0, # of connection points: 4
#     Node 17, Type 0, BuildingBlock: NAHDIM_clean_sbu_0, # of connection points: 4
#     Node 18, Type 0, BuildingBlock: NAHDIM_clean_sbu_0, # of connection points: 4
#     Node 19, Type 0, BuildingBlock: NAHDIM_clean_sbu_0, # of connection points: 4
#     Node 20, Type 0, BuildingBlock: NAHDIM_clean_sbu_0, # of connection points: 4
#     Node 21, Type 0, BuildingBlock: NAHDIM_clean_sbu_0, # of connection points: 4
#     Node 22, Type 0, BuildingBlock: NAHDIM_clean_sbu_0, # of connection points: 4
#     Node 23, Type 0, BuildingBlock: NAHDIM_clean_sbu_0, # of connection points: 4
#     Node 24, Type 1, BuildingBlock: INOVEN_clean_sbu_0, # of connection points: 6
#     Node 25, Type 1, BuildingBlock: INOVEN_clean_sbu_0, # of connection points: 6
#     Node 26, Type 1, BuildingBlock: INOVEN_clean_sbu_0, # of connection points: 6
#     Node 27, Type 1, BuildingBlock: INOVEN_clean_sbu_0, # of connection points: 6
#     Node 28, Type 1, BuildingBlock: INOVEN_clean_sbu_0, # of connection points: 6
#     Node 29, Type 1, BuildingBlock: INOVEN_clean_sbu_0, # of connection points: 6
#     Node 30, Type 1, BuildingBlock: INOVEN_clean_sbu_0, # of connection points: 6
#     Node 31, Type 1, BuildingBlock: INOVEN_clean_sbu_0, # of connection points: 6
#     Node 32, Type 1, BuildingBlock: INOVEN_clean_sbu_0, # of connection points: 6
#     Node 33, Type 1, BuildingBlock: INOVEN_clean_sbu_0, # of connection points: 6
#     Node 34, Type 1, BuildingBlock: INOVEN_clean_sbu_0, # of connection points: 6
#     Node 35, Type 1, BuildingBlock: INOVEN_clean_sbu_0, # of connection points: 6
#     Node 36, Type 1, BuildingBlock: INOVEN_clean_sbu_0, # of connection points: 6
#     Node 37, Type 1, BuildingBlock: INOVEN_clean_sbu_0, # of connection points: 6
#     Node 38, Type 1, BuildingBlock: INOVEN_clean_sbu_0, # of connection points: 6
#     Node 39, Type 1, BuildingBlock: INOVEN_clean_sbu_0, # of connection points: 6
#     Edge 40, Type (0, 1), BuildingBlock: UVAHIK_clean_linker_0, # of connection points: 2
#     Edge 41, Type (0, 1), BuildingBlock: UVAHIK_clean_linker_0, # of connection points: 2
#     Edge 42, Type (0, 1), BuildingBlock: UVAHIK_clean_linker_0, # of connection points: 2
#     Edge 43, Type (0, 1), BuildingBlock: UVAHIK_clean_linker_0, # of connection points: 2
#     Edge 44, Type (0, 1), BuildingBlock: UVAHIK_clean_linker_0, # of connection points: 2
#     Edge 45, Type (0, 1), BuildingBlock: UVAHIK_clean_linker_0, # of connection points: 2
#     Edge 46, Type (0, 1), BuildingBlock: UVAHIK_clean_linker_0, # of connection points: 2
#     Edge 47, Type (0, 1), BuildingBlock: UVAHIK_clean_linker_0, # of connection points: 2
#     Edge 48, Type (0, 1), BuildingBlock: UVAHIK_clean_linker_0, # of connection points: 2
#     Edge 49, Type (0, 1), BuildingBlock: UVAHIK_clean_linker_0, # of connection points: 2
#     Edge 50, Type (0, 1), BuildingBlock: UVAHIK_clean_linker_0, # of connection points: 2
#     Edge 51, Type (0, 1), BuildingBlock: UVAHIK_clean_linker_0, # of connection points: 2
#     Edge 52, Type (0, 1), BuildingBlock: UVAHIK_clean_linker_0, # of connection points: 2
#     Edge 53, Type (0, 1), BuildingBlock: UVAHIK_clean_linker_0, # of connection points: 2
#     Edge 54, Type (0, 1), BuildingBlock: UVAHIK_clean_linker_0, # of connection points: 2
#     Edge 55, Type (0, 1), BuildingBlock: UVAHIK_clean_linker_0, # of connection points: 2
#     Edge 56, Type (0, 1), BuildingBlock: UVAHIK_clean_linker_0, # of connection points: 2
#     Edge 57, Type (0, 1), BuildingBlock: UVAHIK_clean_linker_0, # of connection points: 2
#     Edge 58, Type (0, 1), BuildingBlock: UVAHIK_clean_linker_0, # of connection points: 2
#     Edge 59, Type (0, 1), BuildingBlock: UVAHIK_clean_linker_0, # of connection points: 2
#     Edge 60, Type (0, 1), BuildingBlock: UVAHIK_clean_linker_0, # of connection points: 2
#     Edge 61, Type (0, 1), BuildingBlock: UVAHIK_clean_linker_0, # of connection points: 2
#     Edge 62, Type (0, 1), BuildingBlock: UVAHIK_clean_linker_0, # of connection points: 2
#     Edge 63, Type (0, 1), BuildingBlock: UVAHIK_clean_linker_0, # of connection points: 2
#     Edge 64, Type (0, 1), BuildingBlock: UVAHIK_clean_linker_0, # of connection points: 2
#     Edge 65, Type (0, 1), BuildingBlock: UVAHIK_clean_linker_0, # of connection points: 2
#     Edge 66, Type (0, 1), BuildingBlock: UVAHIK_clean_linker_0, # of connection points: 2
#     Edge 67, Type (0, 1), BuildingBlock: UVAHIK_clean_linker_0, # of connection points: 2
#     Edge 68, Type (0, 1), BuildingBlock: UVAHIK_clean_linker_0, # of connection points: 2
#     Edge 69, Type (0, 1), BuildingBlock: UVAHIK_clean_linker_0, # of connection points: 2
#     Edge 70, Type (0, 1), BuildingBlock: UVAHIK_clean_linker_0, # of connection points: 2
#     Edge 71, Type (0, 1), BuildingBlock: UVAHIK_clean_linker_0, # of connection points: 2
#     Edge 72, Type (0, 1), BuildingBlock: UVAHIK_clean_linker_0, # of connection points: 2
#     Edge 73, Type (0, 1), BuildingBlock: UVAHIK_clean_linker_0, # of connection points: 2
#     Edge 74, Type (0, 1), BuildingBlock: UVAHIK_clean_linker_0, # of connection points: 2
#     Edge 75, Type (0, 1), BuildingBlock: UVAHIK_clean_linker_0, # of connection points: 2
#     Edge 76, Type (0, 1), BuildingBlock: UVAHIK_clean_linker_0, # of connection points: 2
#     Edge 77, Type (0, 1), BuildingBlock: UVAHIK_clean_linker_0, # of connection points: 2
#     Edge 78, Type (0, 1), BuildingBlock: UVAHIK_clean_linker_0, # of connection points: 2
#     Edge 79, Type (0, 1), BuildingBlock: UVAHIK_clean_linker_0, # of connection points: 2
#     Edge 80, Type (0, 1), BuildingBlock: UVAHIK_clean_linker_0, # of connection points: 2
#     Edge 81, Type (0, 1), BuildingBlock: UVAHIK_clean_linker_0, # of connection points: 2
#     Edge 82, Type (0, 1), BuildingBlock: UVAHIK_clean_linker_0, # of connection points: 2
#     Edge 83, Type (0, 1), BuildingBlock: UVAHIK_clean_linker_0, # of connection points: 2
#     Edge 84, Type (0, 1), BuildingBlock: UVAHIK_clean_linker_0, # of connection points: 2
#     Edge 85, Type (0, 1), BuildingBlock: UVAHIK_clean_linker_0, # of connection points: 2
#     Edge 86, Type (0, 1), BuildingBlock: UVAHIK_clean_linker_0, # of connection points: 2
#     Edge 87, Type (0, 1), BuildingBlock: UVAHIK_clean_linker_0, # of connection points: 2
#     Edge 88, Type (0, 1), BuildingBlock: UVAHIK_clean_linker_0, # of connection points: 2
#     Edge 89, Type (0, 1), BuildingBlock: UVAHIK_clean_linker_0, # of connection points: 2
#     Edge 90, Type (0, 1), BuildingBlock: UVAHIK_clean_linker_0, # of connection points: 2
#     Edge 91, Type (0, 1), BuildingBlock: UVAHIK_clean_linker_0, # of connection points: 2
#     Edge 92, Type (0, 1), BuildingBlock: UVAHIK_clean_linker_0, # of connection points: 2
#     Edge 93, Type (0, 1), BuildingBlock: UVAHIK_clean_linker_0, # of connection points: 2
#     Edge 94, Type (0, 1), BuildingBlock: UVAHIK_clean_linker_0, # of connection points: 2
#     Edge 95, Type (0, 1), BuildingBlock: UVAHIK_clean_linker_0, # of connection points: 2
#     Edge 96, Type (0, 1), BuildingBlock: UVAHIK_clean_linker_0, # of connection points: 2
#     Edge 97, Type (0, 1), BuildingBlock: UVAHIK_clean_linker_0, # of connection points: 2
#     Edge 98, Type (0, 1), BuildingBlock: UVAHIK_clean_linker_0, # of connection points: 2
#     Edge 99, Type (0, 1), BuildingBlock: UVAHIK_clean_linker_0, # of connection points: 2
#     Edge 100, Type (0, 1), BuildingBlock: UVAHIK_clean_linker_0, # of connection points: 2
#     Edge 101, Type (0, 1), BuildingBlock: UVAHIK_clean_linker_0, # of connection points: 2
#     Edge 102, Type (0, 1), BuildingBlock: UVAHIK_clean_linker_0, # of connection points: 2
#     Edge 103, Type (0, 1), BuildingBlock: UVAHIK_clean_linker_0, # of connection points: 2
#     Edge 104, Type (0, 1), BuildingBlock: UVAHIK_clean_linker_0, # of connection points: 2
#     Edge 105, Type (0, 1), BuildingBlock: UVAHIK_clean_linker_0, # of connection points: 2
#     Edge 106, Type (0, 1), BuildingBlock: UVAHIK_clean_linker_0, # of connection points: 2
#     Edge 107, Type (0, 1), BuildingBlock: UVAHIK_clean_linker_0, # of connection points: 2
#     Edge 108, Type (0, 1), BuildingBlock: UVAHIK_clean_linker_0, # of connection points: 2
#     Edge 109, Type (0, 1), BuildingBlock: UVAHIK_clean_linker_0, # of connection points: 2
#     Edge 110, Type (0, 1), BuildingBlock: UVAHIK_clean_linker_0, # of connection points: 2
#     Edge 111, Type (0, 1), BuildingBlock: UVAHIK_clean_linker_0, # of connection points: 2
#     Edge 112, Type (0, 1), BuildingBlock: UVAHIK_clean_linker_0, # of connection points: 2
#     Edge 113, Type (0, 1), BuildingBlock: UVAHIK_clean_linker_0, # of connection points: 2
#     Edge 114, Type (0, 1), BuildingBlock: UVAHIK_clean_linker_0, # of connection points: 2
#     Edge 115, Type (0, 1), BuildingBlock: UVAHIK_clean_linker_0, # of connection points: 2
#     Edge 116, Type (0, 1), BuildingBlock: UVAHIK_clean_linker_0, # of connection points: 2
#     Edge 117, Type (0, 1), BuildingBlock: UVAHIK_clean_linker_0, # of connection points: 2
#     Edge 118, Type (0, 1), BuildingBlock: UVAHIK_clean_linker_0, # of connection points: 2
#     Edge 119, Type (0, 1), BuildingBlock: UVAHIK_clean_linker_0, # of connection points: 2
#     Edge 120, Type (0, 1), BuildingBlock: UVAHIK_clean_linker_0, # of connection points: 2
#     Edge 121, Type (0, 1), BuildingBlock: UVAHIK_clean_linker_0, # of connection points: 2
#     Edge 122, Type (0, 1), BuildingBlock: UVAHIK_clean_linker_0, # of connection points: 2
#     Edge 123, Type (0, 1), BuildingBlock: UVAHIK_clean_linker_0, # of connection points: 2
#     Edge 124, Type (0, 1), BuildingBlock: UVAHIK_clean_linker_0, # of connection points: 2
#     Edge 125, Type (0, 1), BuildingBlock: UVAHIK_clean_linker_0, # of connection points: 2
#     Edge 126, Type (0, 1), BuildingBlock: UVAHIK_clean_linker_0, # of connection points: 2
#     Edge 127, Type (0, 1), BuildingBlock: UVAHIK_clean_linker_0, # of connection points: 2
#     Edge 128, Type (0, 1), BuildingBlock: UVAHIK_clean_linker_0, # of connection points: 2
#     Edge 129, Type (0, 1), BuildingBlock: UVAHIK_clean_linker_0, # of connection points: 2
#     Edge 130, Type (0, 1), BuildingBlock: UVAHIK_clean_linker_0, # of connection points: 2
#     Edge 131, Type (0, 1), BuildingBlock: UVAHIK_clean_linker_0, # of connection points: 2
#     Edge 132, Type (0, 1), BuildingBlock: UVAHIK_clean_linker_0, # of connection points: 2
#     Edge 133, Type (0, 1), BuildingBlock: UVAHIK_clean_linker_0, # of connection points: 2
#     Edge 134, Type (0, 1), BuildingBlock: UVAHIK_clean_linker_0, # of connection points: 2
#     Edge 135, Type (0, 1), BuildingBlock: UVAHIK_clean_linker_0, # of connection points: 2
# Relax obj value: 0.167
# Max RMSD: 0.281
# Mean RMSD: 0.175
data_MOF--net-gar--node1-NAHDIM_clean_sbu_0--node2-INOVEN_clean_sbu_0--edge1-UVAHIK_clean_linker_0
_symmetry_space_group_name_H-M    P1
_symmetry_Int_Tables_number       1
_symmetry_cell_setting            triclinic
loop_
_symmetry_equiv_pos_as_xyz
'x, y, z'
_cell_length_a     78.935109
_cell_length_b     72.122848
_cell_length_c     70.90632
_cell_angle_alpha  98.727423
_cell_angle_beta   95.01397
_cell_angle_gamma 103.05651
loop_
_atom_site_label
_atom_site_type_symbol
_atom_site_fract_x
_atom_site_fract_y
_atom_site_fract_z
_atom_type_partial_charge
C0 C 0.11281 0.32622 0.34182 0.0
O1 O 0.11092 0.33759 0.3574 0.0
O2 O 0.07655 0.27963 0.35662 0.0
Zn3 Zn 0.07787 0.30376 0.34541 0.0
O4 O 0.07546 0.32443 0.36657 0.0
C5 C 0.05068 0.28415 0.31348 0.0
O6 O 0.05603 0.26853 0.31565 0.0
O7 O 0.10065 0.3113 0.33473 0.0
C8 C 0.07218 0.34008 0.363 0.0
O9 O 0.07081 0.34295 0.34513 0.0
C10 C 0.06267 0.27289 0.36365 0.0
O11 O 0.04963 0.28138 0.36241 0.0
O12 O 0.05809 0.30011 0.32441 0.0
C13 C 0.97189 0.73293 0.67711 0.0
O14 O 0.97704 0.71673 0.67448 0.0
O15 O 0.00897 0.72571 0.65269 0.0
Zn16 Zn 0.00607 0.75108 0.66652 0.0
O17 O 0.0096 0.77087 0.64908 0.0
C18 C 0.02388 0.74871 0.70246 0.0
O19 O 0.01145 0.73271 0.70023 0.0
O20 O 0.98202 0.74848 0.67451 0.0
C21 C 0.02382 0.78367 0.65 0.0
O22 O 0.03704 0.78426 0.66287 0.0
C23 C 0.02151 0.72597 0.64257 0.0
O24 O 0.03169 0.74267 0.64108 0.0
O25 O 0.02405 0.75952 0.68987 0.0
C26 C 0.62385 0.84946 0.86507 0.0
O27 O 0.62102 0.8666 0.87056 0.0
O28 O 0.58777 0.81242 0.89714 0.0
Zn29 Zn 0.59393 0.83597 0.88485 0.0
O30 O 0.59932 0.85922 0.90598 0.0
C31 C 0.56659 0.82178 0.85349 0.0
O32 O 0.5736 0.80681 0.85211 0.0
O33 O 0.61423 0.83473 0.86992 0.0
C34 C 0.59573 0.87511 0.90372 0.0
O35 O 0.58901 0.87693 0.88668 0.0
C36 C 0.5984 0.81018 0.91064 0.0
O37 O 0.61344 0.82305 0.91577 0.0
O38 O 0.5732 0.83635 0.86662 0.0
C39 C 0.45766 0.23216 0.15477 0.0
O40 O 0.4548 0.23485 0.13697 0.0
O41 O 0.49068 0.21328 0.12488 0.0
Zn42 Zn 0.49291 0.23629 0.14574 0.0
O43 O 0.49322 0.25986 0.13371 0.0
C44 C 0.51801 0.22738 0.17233 0.0
O45 O 0.50582 0.2112 0.17039 0.0
O46 O 0.47305 0.23211 0.16163 0.0
C47 C 0.49973 0.2767 0.1434 0.0
O48 O 0.5061 0.27857 0.16153 0.0
C49 C 0.48048 0.19686 0.12471 0.0
O50 O 0.47071 0.19452 0.13865 0.0
O51 O 0.51543 0.2404 0.163 0.0
C52 C 0.04278 0.80013 0.14179 0.0
O53 O 0.03949 0.79358 0.12318 0.0
O54 O 0.07028 0.78291 0.11251 0.0
Zn55 Zn 0.07686 0.80874 0.1306 0.0
O56 O 0.07523 0.83024 0.11551 0.0
C57 C 0.10735 0.79807 0.14746 0.0
O58 O 0.09717 0.78064 0.14167 0.0
O59 O 0.05858 0.80786 0.14913 0.0
C60 C 0.08774 0.84481 0.11529 0.0
O61 O 0.10307 0.84624 0.12501 0.0
C62 C 0.07993 0.77685 0.10076 0.0
O63 O 0.09525 0.78805 0.09943 0.0
O64 O 0.10145 0.81266 0.14486 0.0
C65 C 0.54225 0.77636 0.38724 0.0
O66 O 0.54412 0.78674 0.40451 0.0
O67 O 0.50486 0.74012 0.41028 0.0
Zn68 Zn 0.50645 0.76272 0.39562 0.0
O69 O 0.50919 0.78824 0.41377 0.0
C70 C 0.47271 0.76798 0.3809 0.0
O71 O 0.47463 0.77866 0.39804 0.0
O72 O 0.52742 0.765 0.38043 0.0
C73 C 0.51682 0.79342 0.43096 0.0
O74 O 0.52409 0.78141 0.43902 0.0
C75 C 0.51883 0.73674 0.4179 0.0
O76 O 0.53401 0.74799 0.41618 0.0
O77 O 0.48436 0.75891 0.37663 0.0
C78 C 0.54204 0.30029 0.6376 0.0
O79 O 0.53921 0.29212 0.61939 0.0
O80 O 0.57385 0.28601 0.61055 0.0
Zn81 Zn 0.57689 0.31213 0.62756 0.0
O82 O 0.5751 0.33306 0.61174 0.0
C83 C 0.60469 0.30317 0.64977 0.0
O84 O 0.59337 0.28627 0.64536 0.0
O85 O 0.55743 0.30998 0.6447 0.0
C86 C 0.58727 0.34818 0.61232 0.0
O87 O 0.60219 0.35034 0.62318 0.0
C88 C 0.5656 0.27953 0.59376 0.0
O89 O 0.55785 0.2907 0.58489 0.0
O90 O 0.60058 0.31767 0.64407 0.0
C91 C 0.04158 0.26735 0.89225 0.0
O92 O 0.04378 0.27347 0.91092 0.0
O93 O 0.00559 0.23579 0.91462 0.0
Zn94 Zn 0.00649 0.2585 0.90056 0.0
O95 O 0.01214 0.28414 0.9188 0.0
C96 C 0.97854 0.27056 0.88076 0.0
O97 O 0.98945 0.28755 0.88678 0.0
O98 O 0.02612 0.25968 0.8838 0.0
C99 C 1.00339 0.28917 0.93205 0.0
O100 O 0.98951 0.27672 0.93537 0.0
C101 C 0.01197 0.23758 0.9321 0.0
O102 O 0.0193 0.25493 0.94194 0.0
O103 O 0.98307 0.25551 0.88449 0.0
C104 C 0.40891 0.07504 0.29121 0.0
O105 O 0.41016 0.06353 0.30368 0.0
O106 O 0.45912 0.07696 0.26626 0.0
Zn107 Zn 0.44061 0.06551 0.2815 0.0
O108 O 0.45186 0.06798 0.30844 0.0
C109 C 0.4201 0.03212 0.25524 0.0
O110 O 0.41595 0.0453 0.24606 0.0
O111 O 0.4209 0.07863 0.28052 0.0
C112 C 0.46589 0.0622 0.30997 0.0
O113 O 0.47167 0.05518 0.29426 0.0
C114 C 0.46512 0.09513 0.2682 0.0
O115 O 0.45841 0.10679 0.27975 0.0
O116 O 0.43079 0.03744 0.27063 0.0
C117 C 0.31012 0.16455 0.50223 0.0
O118 O 0.31391 0.18331 0.50842 0.0
O119 O 0.28084 0.18949 0.52176 0.0
Zn120 Zn 0.27615 0.17145 0.49595 0.0
O121 O 0.27903 0.1854 0.47324 0.0
C122 C 0.23896 0.15946 0.49877 0.0
O123 O 0.24124 0.17785 0.50594 0.0
O124 O 0.2943 0.15576 0.496 0.0
C125 C 0.26846 0.19419 0.46609 0.0
O126 O 0.25413 0.19518 0.47388 0.0
C127 C 0.277 0.20571 0.52587 0.0
O128 O 0.2694 0.21275 0.51234 0.0
O129 O 0.25196 0.15336 0.4933 0.0
C130 C 0.17821 0.97783 0.77875 0.0
O131 O 0.16109 0.97129 0.77549 0.0
O132 O 0.15404 0.01594 0.7542 0.0
Zn133 Zn 0.16951 0.01911 0.78191 0.0
O134 O 0.15553 0.0216 0.80742 0.0
C135 C 0.18216 0.06128 0.77921 0.0
O136 O 0.16524 0.05885 0.7745 0.0
O137 O 0.18436 0.99638 0.78173 0.0
C138 C 0.14206 0.01 0.81183 0.0
O139 O 0.13482 0.99409 0.79943 0.0
C140 C 0.13889 0.01919 0.75008 0.0
O141 O 0.13018 0.02376 0.76433 0.0
O142 O 0.18756 0.0467 0.78349 0.0
C143 C 0.27573 0.98168 0.97425 0.0
O144 O 0.27458 0.96541 0.96245 0.0
O145 O 0.28512 0.95205 0.01698 0.0
Zn146 Zn 0.29846 0.96646 0.99871 0.0
O147 O 0.3013 0.94712 0.97635 0.0
C148 C 0.3277 0.9816 0.0294 0.0
O149 O 0.31626 0.97533 0.04079 0.0
O150 O 0.28547 0.98529 0.99026 0.0
C151 C 0.30603 0.93215 0.97989 0.0
O152 O 0.3087 0.92982 0.99784 0.0
C153 C 0.27175 0.93811 0.01108 0.0
O154 O 0.26606 0.93351 0.9926 0.0
O155 O 0.32269 0.97998 0.01156 0.0
C156 C 0.2755 0.4137 0.04154 0.0
O157 O 0.27272 0.39477 0.03894 0.0
O158 O 0.31062 0.39591 0.06519 0.0
Zn159 Zn 0.31058 0.40978 0.0424 0.0
O160 O 0.30617 0.3921 0.01648 0.0
C161 C 0.348 0.42347 0.0479 0.0
O162 O 0.34681 0.40602 0.0518 0.0
O163 O 0.2912 0.42385 0.04355 0.0
C164 C 0.3138 0.37876 0.01126 0.0
O165 O 0.32516 0.37473 0.02371 0.0
C166 C 0.30411 0.37804 0.06491 0.0
O167 O 0.29683 0.36677 0.04854 0.0
O168 O 0.33401 0.42879 0.04387 0.0
C169 C 0.80018 0.11309 0.03775 0.0
O170 O 0.80324 0.13201 0.04234 0.0
O171 O 0.76391 0.13432 0.05123 0.0
Zn172 Zn 0.76775 0.11969 0.02605 0.0
O173 O 0.77831 0.13868 0.00982 0.0
C174 C 0.73555 0.11204 1.00179 0.0
O175 O 0.74192 0.13026 1.00071 0.0
O176 O 0.78481 0.10353 0.03057 0.0
C177 C 0.78129 0.13271 0.99294 0.0
O178 O 0.77798 0.11401 0.98659 0.0
C179 C 0.76079 0.15093 0.0519 0.0
O180 O 0.76004 0.15823 0.03605 0.0
O181 O 0.74448 0.10372 0.01203 0.0
C182 C 0.17932 0.50563 0.26809 0.0
O183 O 0.16244 0.49744 0.26487 0.0
O184 O 0.15824 0.52395 0.22598 0.0
Zn185 Zn 0.16934 0.53707 0.25267 0.0
O186 O 0.15068 0.54012 0.26959 0.0
C187 C 0.17767 0.57655 0.24667 0.0
O188 O 0.1606 0.57332 0.24247 0.0
O189 O 0.18493 0.52221 0.26385 0.0
C190 C 0.15245 0.55463 0.28287 0.0
O191 O 0.16722 0.56807 0.28624 0.0
C192 C 0.14234 0.51441 0.22295 0.0
O193 O 0.13341 0.51236 0.2376 0.0
O194 O 0.18423 0.56307 0.25123 0.0
C195 C 0.77192 0.91283 0.5331 0.0
O196 O 0.76952 0.89611 0.52164 0.0
O197 O 0.80495 0.88976 0.56447 0.0
Zn198 Zn 0.80596 0.90561 0.54321 0.0
O199 O 0.80435 0.88922 0.51689 0.0
C200 C 0.84233 0.91855 0.54139 0.0
O201 O 0.83951 0.90036 0.53315 0.0
O202 O 0.78652 0.9199 0.54369 0.0
C203 C 0.79567 0.87188 0.51086 0.0
O204 O 0.78606 0.86254 0.52226 0.0
C205 C 0.79066 0.88011 0.56873 0.0
O206 O 0.7758 0.87986 0.55868 0.0
O207 O 0.82962 0.92474 0.54758 0.0
C208 C 0.90762 0.10022 0.25828 0.0
O209 O 0.92379 0.10566 0.25442 0.0
O210 O 0.93016 0.05703 0.23375 0.0
Zn211 Zn 0.91704 0.05969 0.25987 0.0
O212 O 0.9343 0.06383 0.28674 0.0
C213 C 0.90156 0.01588 0.25193 0.0
O214 O 0.91546 0.01603 0.24296 0.0
O215 O 0.90226 0.08258 0.26088 0.0
C216 C 0.93807 0.0495 0.29366 0.0
O217 O 0.93221 0.03219 0.28319 0.0
C218 C 0.94474 0.06732 0.23012 0.0
O219 O 0.95351 0.08164 0.24364 0.0
O220 O 0.899 0.03225 0.25943 0.0
C221 C 0.32113 0.65 0.53071 0.0
O222 O 0.32533 0.66888 0.5361 0.0
O223 O 0.28407 0.66964 0.54695 0.0
Zn224 Zn 0.28756 0.65682 0.52089 0.0
O225 O 0.29482 0.6768 0.50446 0.0
C226 C 0.25199 0.64656 0.50439 0.0
O227 O 0.25424 0.66541 0.50845 0.0
O228 O 0.30549 0.64152 0.52358 0.0
C229 C 0.29037 0.6725 0.4864 0.0
O230 O 0.28241 0.65458 0.47863 0.0
C231 C 0.28196 0.68675 0.54977 0.0
O232 O 0.28244 0.69641 0.53546 0.0
O233 O 0.26469 0.63918 0.50855 0.0
C234 C 0.40995 0.60424 0.76326 0.0
O235 O 0.4271 0.61061 0.76611 0.0
O236 O 0.43144 0.55976 0.73309 0.0
Zn237 Zn 0.41827 0.56266 0.75918 0.0
O238 O 0.43554 0.56661 0.78597 0.0
C239 C 0.40273 0.51886 0.75156 0.0
O240 O 0.41672 0.5189 0.74278 0.0
O241 O 0.40366 0.58571 0.76014 0.0
C242 C 0.4398 0.55226 0.79235 0.0
O243 O 0.43448 0.53516 0.78136 0.0
C244 C 0.44419 0.5718 0.72795 0.0
O245 O 0.45077 0.58834 0.73965 0.0
O246 O 0.4001 0.53528 0.75878 0.0
C247 C 0.66593 1.00003 0.74723 0.0
O248 O 0.64926 0.99098 0.74332 0.0
O249 O 0.63368 0.02431 0.73432 0.0
Zn250 Zn 0.65007 0.03016 0.75875 0.0
O251 O 0.6376 0.0176 0.77873 0.0
C252 C 0.66677 0.06777 0.78296 0.0
O253 O 0.66844 0.05786 0.7968 0.0
O254 O 0.67002 0.01803 0.75393 0.0
C255 C 0.64619 0.01258 0.79226 0.0
O256 O 0.66339 0.0168 0.79385 0.0
C257 C 0.61826 0.02685 0.734 0.0
O258 O 0.61297 0.0337 0.7501 0.0
O259 O 0.65918 0.05897 0.76643 0.0
C260 C 0.81412 0.6617 0.99098 0.0
O261 O 0.81767 0.6786 0.98547 0.0
O262 O 0.7838 0.68878 0.02125 0.0
Zn263 Zn 0.78102 0.67126 0.99542 0.0
O264 O 0.78459 0.68695 0.97408 0.0
C265 C 0.7445 0.6593 0.99945 0.0
O266 O 0.74826 0.67659 0.01016 0.0
O267 O 0.79906 0.65532 0.99586 0.0
C268 C 0.77244 0.68647 0.96087 0.0
O269 O 0.75662 0.67588 0.96125 0.0
C270 C 0.79796 0.6953 0.03269 0.0
O271 O 0.81251 0.69135 0.02753 0.0
O272 O 0.75652 0.65354 0.99117 0.0
C273 C 0.89196 0.55924 0.77943 0.0
O274 O 0.88957 0.54527 0.78957 0.0
O275 O 0.94616 0.55752 0.7678 0.0
Zn276 Zn 0.92571 0.55226 0.78255 0.0
O277 O 0.93463 0.56006 0.81076 0.0
C278 C 0.90778 0.51545 0.75987 0.0
O279 O 0.90686 0.52592 0.74635 0.0
O280 O 0.9071 0.5655 0.77471 0.0
C281 C 0.92773 0.55036 0.82287 0.0
O282 O 0.91398 0.53585 0.81689 0.0
C283 C 0.95806 0.57316 0.77081 0.0
O284 O 0.95671 0.58779 0.78361 0.0
O285 O 0.91538 0.52366 0.77657 0.0
C286 C 0.77663 0.45757 0.48966 0.0
O287 O 0.77248 0.43858 0.48675 0.0
O288 O 0.80164 0.43397 0.51992 0.0
Zn289 Zn 0.80986 0.45137 0.50129 0.0
O290 O 0.81316 0.43468 0.47729 0.0
C291 C 0.83871 0.4708 0.53053 0.0
O292 O 0.82852 0.46217 0.54191 0.0
O293 O 0.79237 0.46661 0.49578 0.0
C294 C 0.82231 0.44071 0.4646 0.0
O295 O 0.82977 0.45924 0.46649 0.0
C296 C 0.79517 0.4159 0.51488 0.0
O297 O 0.79263 0.40815 0.49655 0.0
O298 O 0.83315 0.46888 0.51279 0.0
C299 C 0.6772 0.47487 0.27724 0.0
O300 O 0.66071 0.46913 0.27994 0.0
O301 O 0.65133 0.51531 0.25389 0.0
Zn302 Zn 0.66852 0.51609 0.27971 0.0
O303 O 0.65435 0.51509 0.30515 0.0
C304 C 0.68162 0.55822 0.2769 0.0
O305 O 0.66513 0.5553 0.26972 0.0
O306 O 0.68304 0.49297 0.2765 0.0
C307 C 0.64946 0.52924 0.31477 0.0
O308 O 0.65299 0.54591 0.30881 0.0
C309 C 0.65066 0.50563 0.23692 0.0
O310 O 0.66053 0.49324 0.23457 0.0
O311 O 0.68654 0.54399 0.28273 0.0
Gd312 Gd 0.02492 0.02482 0.01103 0.0
Gd313 Gd 0.0617 0.05005 0.03109 0.0
C314 C 0.03522 0.07029 0.00989 0.0
C315 C 0.99183 0.00847 1.0049 0.0
C316 C 0.97639 0.01425 0.01146 0.0
C317 C 0.95963 1.00481 1.00205 0.0
C318 C 0.97842 0.03014 0.02627 0.0
C319 C 0.94701 0.0276 0.0218 0.0
C320 C 0.96385 0.03662 0.03155 0.0
C321 C 0.94504 0.01144 0.00714 0.0
C322 C 0.04906 0.02452 0.98463 0.0
C323 C 0.05201 1.00379 0.03034 0.0
C324 C 0.0945 0.06755 0.03646 0.0
C325 C 0.10912 0.06574 0.02547 0.0
C326 C 0.12368 0.08139 0.02713 0.0
C327 C 0.10837 0.04852 0.01285 0.0
C328 C 0.13705 0.06235 1.00414 0.0
C329 C 0.1222 0.04684 1.00227 0.0
C330 C 0.13758 0.07972 0.01656 0.0
C331 C 0.03762 0.05059 0.05753 0.0
O332 O 0.0223 0.05525 0.01062 0.0
O333 O 0.05176 0.07035 0.01462 0.0
O334 O 0.99991 0.01906 0.99341 0.0
O335 O 1.00259 1.00473 0.01816 0.0
O336 O 0.03275 0.01504 0.98152 0.0
O337 O 0.05166 0.03309 1.00207 0.0
O338 O 0.06456 0.01972 0.03147 0.0
O339 O 0.03543 1.00283 0.02445 0.0
O340 O 0.08802 0.05271 0.04446 0.0
O341 O 0.08242 0.07443 0.02807 0.0
O342 O 0.05399 0.05984 0.06066 0.0
O343 O 0.035 0.04195 0.04011 0.0
H344 H 0.9579 0.99265 0.99042 0.0
H345 H 0.99134 0.03781 0.03343 0.0
H346 H 0.96586 0.04889 0.0431 0.0
H347 H 0.93234 1.00434 0.99909 0.0
H348 H 0.12434 0.09486 0.03665 0.0
H349 H 0.09711 0.03633 0.01125 0.0
H350 H 0.12146 0.03318 0.99305 0.0
H351 H 0.14874 0.09199 0.01815 0.0
Gd352 Gd 0.30813 0.79264 0.2193 0.0
Gd353 Gd 0.30894 0.80766 0.26452 0.0
C354 C 0.32431 0.83771 0.23787 0.0
C355 C 0.30261 0.78727 0.18233 0.0
C356 C 0.29452 0.79748 0.16915 0.0
C357 C 0.2938 0.792 0.14925 0.0
C358 C 0.28706 0.81254 0.17648 0.0
C359 C 0.27849 0.81691 0.144 0.0
C360 C 0.2791 0.82217 0.16401 0.0
C361 C 0.28584 0.80165 0.13673 0.0
C362 C 0.33412 0.7863 0.24312 0.0
C363 C 0.28824 0.76383 0.24504 0.0
C364 C 0.31789 0.81511 0.30112 0.0
C365 C 0.31018 0.81 0.31829 0.0
C366 C 0.31406 0.82346 0.33547 0.0
C367 C 0.2999 0.79133 0.31803 0.0
C368 C 0.29914 0.79896 0.35253 0.0
C369 C 0.29454 0.78583 0.33499 0.0
C370 C 0.3085 0.81803 0.35245 0.0
C371 C 0.27883 0.80993 0.24384 0.0
O372 O 0.31557 0.82525 0.22254 0.0
O373 O 0.32562 0.83314 0.25521 0.0
O374 O 0.31766 0.79699 0.19218 0.0
O375 O 0.29186 0.7781 0.1928 0.0
O376 O 0.32746 0.77504 0.22682 0.0
O377 O 0.32779 0.80088 0.24495 0.0
O378 O 0.29645 0.77574 0.26097 0.0
O379 O 0.2891 0.76831 0.22768 0.0
O380 O 0.31094 0.8266 0.29191 0.0
O381 O 0.32165 0.80086 0.28972 0.0
O382 O 0.28223 0.81536 0.26238 0.0
O383 O 0.29156 0.80403 0.23818 0.0
H384 H 0.29946 0.78034 0.1434 0.0
H385 H 0.28739 0.81682 0.19186 0.0
H386 H 0.27337 0.83369 0.17004 0.0
H387 H 0.28578 0.79744 0.12139 0.0
H388 H 0.32185 0.83799 0.33587 0.0
H389 H 0.29662 0.78074 0.30487 0.0
H390 H 0.28758 0.77095 0.33444 0.0
H391 H 0.31198 0.82862 0.3656 0.0
Gd392 Gd 0.55816 0.03789 0.52698 0.0
Gd393 Gd 0.51844 0.03073 0.51432 0.0
C394 C 0.53482 0.99405 0.50911 0.0
C395 C 0.58866 0.03817 0.5438 0.0
C396 C 0.60202 0.02692 0.54271 0.0
C397 C 0.60383 0.01567 0.52537 0.0
C398 C 0.61349 0.02791 0.55925 0.0
C399 C 0.6291 1.00724 0.54105 0.0
C400 C 0.62688 0.01816 0.55846 0.0
C401 C 0.61728 1.00593 0.52454 0.0
C402 C 0.54914 0.04109 0.49036 0.0
C403 C 0.54186 0.07465 0.53108 0.0
C404 C 0.48749 0.03043 0.49873 0.0
C405 C 0.47429 0.04197 0.50017 0.0
C406 C 0.45694 0.03268 0.50159 0.0
C407 C 0.47851 0.06187 0.49961 0.0
C408 C 0.44798 0.06282 0.50134 0.0
C409 C 0.46546 0.07218 0.50016 0.0
C410 C 0.44394 0.04297 0.50224 0.0
C411 C 0.5279 0.02818 0.55115 0.0
O412 O 0.54911 1.005 0.52013 0.0
O413 O 0.52214 1.00153 0.50253 0.0
O414 O 0.58638 0.04732 0.52954 0.0
O415 O 0.57396 0.03009 0.54969 0.0
O416 O 0.56346 0.05149 0.50069 0.0
O417 O 0.54123 0.02876 0.49933 0.0
O418 O 0.52763 0.06358 0.5201 0.0
O419 O 0.55439 0.06724 0.53819 0.0
O420 O 0.49019 0.02167 0.51317 0.0
O421 O 0.50191 0.03772 0.49183 0.0
O422 O 0.51376 0.01722 0.54093 0.0
O423 O 0.53544 0.04032 0.54182 0.0
H424 H 0.59503 0.01467 0.51245 0.0
H425 H 0.61219 0.03642 0.57279 0.0
H426 H 0.6355 0.01917 0.57152 0.0
H427 H 0.61868 0.99778 0.51087 0.0
H428 H 0.45341 0.01736 0.50209 0.0
H429 H 0.49181 0.06942 0.49854 0.0
H430 H 0.46902 0.0874 0.49925 0.0
H431 H 0.43071 0.03536 0.50353 0.0
Gd432 Gd 0.2741 0.29087 0.76689 0.0
Gd433 Gd 0.31536 0.28914 0.7707 0.0
C434 C 0.29749 0.30202 0.80873 0.0
C435 C 0.24049 0.2805 0.76627 0.0
C436 C 0.22584 0.28509 0.77614 0.0
C437 C 0.21027 0.28532 0.76513 0.0
C438 C 0.22647 0.28721 0.79624 0.0
C439 C 0.19565 0.28805 0.79397 0.0
C440 C 0.21152 0.28863 0.80505 0.0
C441 C 0.19535 0.28686 0.77394 0.0
C442 C 0.29623 0.32689 0.768 0.0
C443 C 0.29203 0.27826 0.72869 0.0
C444 C 0.34895 0.29861 0.77087 0.0
C445 C 0.36333 0.29281 0.76138 0.0
C446 C 0.37943 0.29462 0.77242 0.0
C447 C 0.36187 0.28754 0.74129 0.0
C448 C 0.39293 0.28776 0.74333 0.0
C449 C 0.37653 0.28509 0.73236 0.0
C450 C 0.39407 0.29205 0.76351 0.0
C451 C 0.29303 0.2534 0.77043 0.0
O452 O 0.2816 0.29649 0.79887 0.0
O453 O 0.31212 0.30237 0.80069 0.0
O454 O 0.24802 0.29256 0.75563 0.0
O455 O 0.25155 0.27324 0.77596 0.0
O456 O 0.27923 0.32352 0.76698 0.0
O457 O 0.3 0.31081 0.76873 0.0
O458 O 0.3078 0.28241 0.73873 0.0
O459 O 0.27747 0.2792 0.73647 0.0
O460 O 0.34139 0.28785 0.78259 0.0
O461 O 0.33794 0.30511 0.76027 0.0
O462 O 0.31006 0.25677 0.77235 0.0
O463 O 0.2895 0.26936 0.76871 0.0
H464 H 0.20948 0.28368 0.74961 0.0
H465 H 0.23832 0.28708 0.80512 0.0
H466 H 0.21225 0.28934 0.82047 0.0
H467 H 0.18348 0.28676 0.76498 0.0
H468 H 0.38085 0.29868 0.78793 0.0
H469 H 0.34958 0.28605 0.73242 0.0
H470 H 0.37514 0.28197 0.7168 0.0
H471 H 0.40637 0.29382 0.77244 0.0
Gd472 Gd 0.04349 0.06135 0.52998 0.0
Gd473 Gd 0.03812 0.01606 0.51477 0.0
C474 C 0.02629 0.04233 0.48455 0.0
C475 C 0.05119 0.09851 0.53401 0.0
C476 C 0.05212 0.11204 0.52031 0.0
C477 C 0.03881 0.10903 0.50487 0.0
C478 C 0.06672 0.12775 0.52222 0.0
C479 C 0.05467 0.13731 0.49343 0.0
C480 C 0.06801 0.14028 0.50888 0.0
C481 C 0.04007 0.12155 0.49158 0.0
C482 C 0.01431 0.03752 0.53743 0.0
C483 C 0.05778 0.0357 0.55908 0.0
C484 C 0.02463 0.97937 0.50953 0.0
C485 C 0.0289 0.96246 0.51616 0.0
C486 C 0.02063 0.94389 0.50615 0.0
C487 C 0.03995 0.96463 0.53337 0.0
C488 C 0.03297 0.9297 0.53152 0.0
C489 C 0.04193 0.9484 0.54102 0.0
C490 C 0.0227 0.92763 0.51371 0.0
C491 C 0.07059 0.03632 0.51033 0.0
O492 O 0.03373 0.0581 0.49771 0.0
O493 O 0.02543 0.02462 0.48834 0.0
O494 O 0.03553 0.08821 0.53538 0.0
O495 O 0.06314 0.08851 0.53383 0.0
O496 O 0.02264 0.05319 0.54924 0.0
O497 O 0.02139 0.03591 0.52223 0.0
O498 O 0.04918 0.01985 0.54662 0.0
O499 O 0.0588 0.05336 0.55506 0.0
O500 O 0.03463 0.98748 0.49771 0.0
O501 O 0.02074 0.99186 0.5229 0.0
O502 O 0.06548 0.01761 0.50557 0.0
O503 O 0.0583 0.04224 0.5172 0.0
H504 H 0.02746 0.09692 0.50295 0.0
H505 H 0.07716 0.13027 0.53398 0.0
H506 H 0.07935 0.1524 0.51076 0.0
H507 H 0.02971 0.1187 0.47968 0.0
H508 H 0.01211 0.94199 0.49281 0.0
H509 H 0.04646 0.9789 0.54129 0.0
H510 H 0.04979 0.95058 0.55484 0.0
H511 H 0.01589 0.91344 0.50585 0.0
Gd512 Gd 0.31144 0.80641 0.77264 0.0
Gd513 Gd 0.27882 0.77799 0.77712 0.0
C514 C 0.31313 0.76066 0.77438 0.0
C515 C 0.34276 0.82847 0.77731 0.0
C516 C 0.36071 0.82616 0.77661 0.0
C517 C 0.37329 0.84058 0.77092 0.0
C518 C 0.36554 0.80993 0.78193 0.0
C519 C 0.39566 0.82309 0.77684 0.0
C520 C 0.38287 0.8084 0.78203 0.0
C521 C 0.39063 0.83908 0.77103 0.0
C522 C 0.29194 0.78797 0.7393 0.0
C523 C 0.27683 0.82338 0.77434 0.0
C524 C 0.24731 0.75665 0.77339 0.0
C525 C 0.22963 0.75964 0.77547 0.0
C526 C 0.22054 0.75248 0.79003 0.0
C527 C 0.22149 0.76918 0.76283 0.0
C528 C 0.1952 0.76368 0.77884 0.0
C529 C 0.20446 0.77111 0.76446 0.0
C530 C 0.20354 0.75456 0.79177 0.0
C531 C 0.29815 0.79742 0.81047 0.0
O532 O 0.32186 0.77914 0.776 0.0
O533 O 0.29574 0.75625 0.77281 0.0
O534 O 0.33258 0.82406 0.76089 0.0
O535 O 0.33483 0.82236 0.79149 0.0
O536 O 0.30033 0.80604 0.74224 0.0
O537 O 0.29502 0.78042 0.75371 0.0
O538 O 0.2682 0.80492 0.77298 0.0
O539 O 0.29424 0.82795 0.77618 0.0
O540 O 0.25818 0.76005 0.78924 0.0
O541 O 0.25481 0.76276 0.75895 0.0
O542 O 0.29002 0.77929 0.80793 0.0
O543 O 0.29493 0.80427 0.79568 0.0
H544 H 0.36974 0.85315 0.76665 0.0
H545 H 0.35603 0.79866 0.78642 0.0
H546 H 0.38635 0.79603 0.78681 0.0
H547 H 0.40014 0.85052 0.76673 0.0
H548 H 0.22653 0.7451 0.79997 0.0
H549 H 0.22813 0.77489 0.75145 0.0
H550 H 0.19838 0.7779 0.75402 0.0
H551 H 0.1969 0.7489 0.80317 0.0
Gd552 Gd 0.54108 0.04632 0.03063 0.0
Gd553 Gd 0.52451 1.00734 1.00393 0.0
C554 C 0.50775 0.01576 0.04225 0.0
C555 C 0.548 0.08023 0.05196 0.0
C556 C 0.54886 0.08768 0.07249 0.0
C557 C 0.55703 0.10709 0.07992 0.0
C558 C 0.54154 0.07545 0.08477 0.0
C559 C 0.55021 0.10215 0.11187 0.0
C560 C 0.54215 0.08263 0.10427 0.0
C561 C 0.5577 0.1143 0.09949 0.0
C562 C 0.55744 0.01785 0.03546 0.0
C563 C 0.55766 0.03696 0.99319 0.0
C564 C 0.51823 0.97531 0.97973 0.0
C565 C 0.52917 0.96732 0.96656 0.0
C566 C 0.52167 0.95684 0.94833 0.0
C567 C 0.54743 0.97233 0.97113 0.0
C568 C 0.55079 0.95776 0.93884 0.0
C569 C 0.55808 0.96732 0.95756 0.0
C570 C 0.53237 0.95216 0.93453 0.0
C571 C 0.50834 0.0363 1.0009 0.0
O572 O 0.51752 0.03373 0.04479 0.0
O573 O 0.50969 1.0019 0.02869 0.0
O574 O 0.56006 0.07125 0.04722 0.0
O575 O 0.53239 0.07124 0.04315 0.0
O576 O 0.56529 0.03604 0.0384 0.0
O577 O 0.54115 0.01592 0.03187 0.0
O578 O 0.5506 0.01867 0.99382 0.0
O579 O 0.55249 0.05101 1.00348 0.0
O580 O 0.51402 0.99088 0.97557 0.0
O581 O 0.52306 0.97662 0.99814 0.0
O582 O 0.50009 0.01833 0.99955 0.0
O583 O 0.5246 0.0377 1.00284 0.0
H584 H 0.56282 0.11666 0.07057 0.0
H585 H 0.53519 0.0604 0.07923 0.0
H586 H 0.53592 0.07297 0.1133 0.0
H587 H 0.5641 0.12935 0.10493 0.0
H588 H 0.50758 0.95316 0.94444 0.0
H589 H 0.55353 0.98095 0.98487 0.0
H590 H 0.57207 0.97177 0.96158 0.0
H591 H 0.52615 0.94514 0.92023 0.0
Gd592 Gd 0.309 0.30623 0.27478 0.0
Gd593 Gd 0.28297 0.26796 0.25979 0.0
C594 C 0.26701 0.30311 0.2738 0.0
C595 C 0.32476 0.34237 0.28161 0.0
C596 C 0.31709 0.3592 0.28243 0.0
C597 C 0.32288 0.3749 0.29767 0.0
C598 C 0.30227 0.3584 0.26956 0.0
C599 C 0.29822 0.3879 0.2881 0.0
C600 C 0.29295 0.37262 0.27236 0.0
C601 C 0.31355 0.38923 0.30045 0.0
C602 C 0.30441 0.28215 0.3005 0.0
C603 C 0.32485 0.27124 0.26064 0.0
C604 C 0.26592 0.23213 0.25283 0.0
C605 C 0.27043 0.21419 0.25644 0.0
C606 C 0.26607 0.19778 0.24191 0.0
C607 C 0.28013 0.21368 0.27386 0.0
C608 C 0.28174 0.18085 0.2618 0.0
C609 C 0.28562 0.1971 0.27656 0.0
C610 C 0.27174 0.18123 0.24452 0.0
C611 C 0.28752 0.29235 0.23435 0.0
O612 O 0.28287 0.31423 0.27425 0.0
O613 O 0.26384 0.2841 0.2704 0.0
O614 O 0.32127 0.33233 0.29528 0.0
O615 O 0.32305 0.33149 0.26466 0.0
O616 O 0.31935 0.29368 0.29928 0.0
O617 O 0.29249 0.28467 0.28881 0.0
O618 O 0.30928 0.26017 0.2619 0.0
O619 O 0.32771 0.29021 0.26291 0.0
O620 O 0.27427 0.24058 0.24009 0.0
O621 O 0.26472 0.24432 0.26804 0.0
O622 O 0.27258 0.28085 0.2355 0.0
O623 O 0.29939 0.28948 0.24578 0.0
H624 H 0.33416 0.37562 0.30787 0.0
H625 H 0.29742 0.34638 0.25774 0.0
H626 H 0.28137 0.37142 0.26241 0.0
H627 H 0.31785 0.40085 0.31272 0.0
H628 H 0.25867 0.19795 0.22835 0.0
H629 H 0.2839 0.22625 0.2852 0.0
H630 H 0.29357 0.19732 0.28988 0.0
H631 H 0.26858 0.16886 0.23295 0.0
Gd632 Gd 0.54998 0.56128 0.02546 0.0
Gd633 Gd 0.54382 0.51576 0.00973 0.0
C634 C 0.53006 0.54241 0.98115 0.0
C635 C 0.56454 0.59776 0.03128 0.0
C636 C 0.56157 0.61542 0.02507 0.0
C637 C 0.56929 0.63339 0.03666 0.0
C638 C 0.55267 0.61467 0.00684 0.0
C639 C 0.56094 0.64981 0.01104 0.0
C640 C 0.55239 0.63172 0.99986 0.0
C641 C 0.56893 0.65046 0.02975 0.0
C642 C 0.51735 0.54127 0.02963 0.0
C643 C 0.56092 0.53406 0.05522 0.0
C644 C 0.53445 0.4785 1.00432 0.0
C645 C 0.53036 0.46373 0.01644 0.0
C646 C 0.5289 0.44433 0.00866 0.0
C647 C 0.52814 0.46883 0.0358 0.0
C648 C 0.52293 0.43506 0.0395 0.0
C649 C 0.52441 0.4546 0.04723 0.0
C650 C 0.52523 0.4301 0.02007 0.0
C651 C 0.5731 0.53924 1.00202 0.0
O652 O 0.53847 0.55815 0.99386 0.0
O653 O 0.52921 0.52464 0.98478 0.0
O654 O 0.55399 0.58988 0.04276 0.0
O655 O 0.56813 0.58513 0.01782 0.0
O656 O 0.52256 0.55999 0.03446 0.0
O657 O 0.52966 0.53527 0.02296 0.0
O658 O 0.5533 0.51852 0.04188 0.0
O659 O 0.56212 0.55196 0.05179 0.0
O660 O 0.55086 0.48825 0.00647 0.0
O661 O 0.52329 0.48937 1.00297 0.0
O662 O 0.5647 0.52349 0.99034 0.0
O663 O 0.56612 0.54092 0.01727 0.0
H664 H 0.57618 0.63422 0.05079 0.0
H665 H 0.5466 0.6009 0.99766 0.0
H666 H 0.54625 0.63064 0.98534 0.0
H667 H 0.57532 0.66415 0.03888 0.0
H668 H 0.5307 0.44019 0.99376 0.0
H669 H 0.52928 0.48378 0.04206 0.0
H670 H 0.52254 0.4589 0.06206 0.0
H671 H 0.52448 0.41525 0.01374 0.0
Gd672 Gd 0.80692 0.29968 0.25855 0.0
Gd673 Gd 0.77655 0.27432 0.27207 0.0
C674 C 0.80988 0.25571 0.26665 0.0
C675 C 0.83794 0.31908 0.25514 0.0
C676 C 0.8546 0.31378 0.25234 0.0
C677 C 0.86586 0.32314 0.24061 0.0
C678 C 0.85926 0.29916 0.26112 0.0
C679 C 0.88634 0.30339 0.24664 0.0
C680 C 0.87492 0.29396 0.25824 0.0
C681 C 0.88167 0.31805 0.23784 0.0
C682 C 0.78271 0.27764 0.23008 0.0
C683 C 0.7736 0.31811 0.26424 0.0
C684 C 0.74599 0.25354 0.27524 0.0
C685 C 0.7277 0.25502 0.27292 0.0
C686 C 0.71565 0.24499 0.28343 0.0
C687 C 0.72193 0.26547 0.25957 0.0
C688 C 0.69186 0.25443 0.2661 0.0
C689 C 0.70416 0.26512 0.25613 0.0
C690 C 0.69789 0.24474 0.28011 0.0
C691 C 0.80091 0.29659 0.30038 0.0
O692 O 0.81784 0.27311 0.2633 0.0
O693 O 0.79318 0.25218 0.26965 0.0
O694 O 0.82547 0.31281 0.24064 0.0
O695 O 0.83233 0.31718 0.27176 0.0
O696 O 0.79093 0.29531 0.22964 0.0
O697 O 0.78822 0.27246 0.24517 0.0
O698 O 0.76521 0.30014 0.26558 0.0
O699 O 0.79073 0.32213 0.2631 0.0
O700 O 0.75631 0.26501 0.28986 0.0
O701 O 0.75343 0.25215 0.25947 0.0
O702 O 0.79264 0.279 0.30112 0.0
O703 O 0.79522 0.30153 0.28528 0.0
H704 H 0.86245 0.33442 0.23366 0.0
H705 H 0.8509 0.29186 0.27041 0.0
H706 H 0.87831 0.28287 0.26552 0.0
H707 H 0.89023 0.32553 0.22881 0.0
H708 H 0.71993 0.23696 0.2939 0.0
H709 H 0.73106 0.27339 0.25135 0.0
H710 H 0.7 0.27259 0.2451 0.0
H711 H 0.68884 0.23667 0.2883 0.0
Gd712 Gd 0.06201 0.52041 0.54344 0.0
Gd713 Gd 0.04258 0.52231 0.50538 0.0
C714 C 0.0215 0.50355 0.53742 0.0
C715 C 0.08027 0.5288 0.57694 0.0
C716 C 0.07634 0.53398 0.5966 0.0
C717 C 0.08933 0.54634 0.61054 0.0
C718 C 0.05939 0.52742 0.6013 0.0
C719 C 0.06847 0.54536 0.63386 0.0
C720 C 0.05551 0.53297 0.6198 0.0
C721 C 0.08541 0.55206 0.62907 0.0
C722 C 0.05811 0.48892 0.51598 0.0
C723 C 0.08342 0.53966 0.51064 0.0
C724 C 0.02397 0.51737 0.47238 0.0
C725 C 0.02767 0.52532 0.45496 0.0
C726 C 0.01689 0.51746 0.43751 0.0
C727 C 0.04271 0.54019 0.45553 0.0
C728 C 0.03676 0.53862 0.42103 0.0
C729 C 0.04721 0.54678 0.43873 0.0
C730 C 0.02139 0.52408 0.42063 0.0
C731 C 0.04823 0.55437 0.53241 0.0
O732 O 0.0345 0.5137 0.55049 0.0
O733 O 0.0232 0.50182 0.51891 0.0
O734 O 0.07307 0.51103 0.56824 0.0
O735 O 0.07935 0.54162 0.56591 0.0
O736 O 0.05794 0.48802 0.5341 0.0
O737 O 0.06153 0.50621 0.51369 0.0
O738 O 0.06942 0.53296 0.49775 0.0
O739 O 0.08308 0.53764 0.52888 0.0
O740 O 0.02263 0.52989 0.48723 0.0
O741 O 0.03351 0.50561 0.47679 0.0
O742 O 0.04936 0.55471 0.51432 0.0
O743 O 0.04354 0.53724 0.53518 0.0
H744 H 0.10244 0.55168 0.60705 0.0
H745 H 0.0491 0.51815 0.59062 0.0
H746 H 0.04226 0.52789 0.62301 0.0
H747 H 0.0956 0.56162 0.63967 0.0
H748 H 1.00524 0.50594 0.43688 0.0
H749 H 0.05123 0.54633 0.46889 0.0
H750 H 0.05932 0.5577 0.43952 0.0
H751 H 0.01302 0.5176 0.40724 0.0
Gd752 Gd 0.77423 0.78734 0.26686 0.0
Gd753 Gd 0.81594 0.78706 0.27413 0.0
C754 C 0.79525 0.79925 0.31006 0.0
C755 C 0.7405 0.77534 0.26318 0.0
C756 C 0.72471 0.77948 0.27062 0.0
C757 C 0.72547 0.79594 0.28433 0.0
C758 C 0.70873 0.76577 0.26486 0.0
C759 C 0.69431 0.7845 0.28693 0.0
C760 C 0.6937 0.76821 0.27292 0.0
C761 C 0.71036 0.79847 0.29239 0.0
C762 C 0.79608 0.82352 0.26823 0.0
C763 C 0.79514 0.7749 0.23093 0.0
C764 C 0.84976 0.79744 0.27695 0.0
C765 C 0.86433 0.79308 0.26682 0.0
C766 C 0.88033 0.79375 0.2775 0.0
C767 C 0.86299 0.78986 0.24665 0.0
C768 C 0.89389 0.78944 0.24803 0.0
C769 C 0.87762 0.78812 0.23736 0.0
C770 C 0.89495 0.79189 0.26822 0.0
C771 C 0.79371 0.75104 0.27314 0.0
O772 O 0.77987 0.79346 0.29909 0.0
O773 O 0.81053 0.79982 0.30336 0.0
O774 O 0.74867 0.78702 0.25257 0.0
O775 O 0.75113 0.76987 0.27525 0.0
O776 O 0.77902 0.81992 0.2663 0.0
O777 O 0.79993 0.80765 0.26975 0.0
O778 O 0.81047 0.7803 0.24198 0.0
O779 O 0.7799 0.77487 0.23756 0.0
O780 O 0.84147 0.78435 0.2861 0.0
O781 O 0.83929 0.80587 0.26792 0.0
O782 O 0.81074 0.75477 0.27634 0.0
O783 O 0.79018 0.76679 0.27061 0.0
H784 H 0.73777 0.80661 0.28903 0.0
H785 H 0.70798 0.75285 0.25445 0.0
H786 H 0.68174 0.75695 0.26861 0.0
H787 H 0.71129 0.81129 0.30297 0.0
H788 H 0.88165 0.79621 0.29308 0.0
H789 H 0.85078 0.78929 0.23806 0.0
H790 H 0.87629 0.78646 0.22182 0.0
H791 H 0.90714 0.79261 0.2769 0.0
Gd792 Gd 0.79234 0.27856 0.74627 0.0
Gd793 Gd 0.79132 0.29833 0.78671 0.0
C794 C 0.81138 0.32411 0.75993 0.0
C795 C 0.79073 0.26872 0.70949 0.0
C796 C 0.79092 0.27953 0.69358 0.0
C797 C 0.79582 0.27218 0.67601 0.0
C798 C 0.78656 0.29747 0.69603 0.0
C799 C 0.7919 0.30065 0.66329 0.0
C800 C 0.78701 0.30792 0.68101 0.0
C801 C 0.79629 0.28265 0.66094 0.0
C802 C 0.81607 0.27248 0.77306 0.0
C803 C 0.77231 0.25287 0.77311 0.0
C804 C 0.79336 0.30679 0.82359 0.0
C805 C 0.79539 0.29479 0.83818 0.0
C806 C 0.78824 0.29766 0.85547 0.0
C807 C 0.80349 0.27944 0.83424 0.0
C808 C 0.79683 0.2695 0.86454 0.0
C809 C 0.8043 0.267 0.84733 0.0
C810 C 0.78896 0.2851 0.86859 0.0
C811 C 0.76735 0.30418 0.75997 0.0
O812 O 0.80294 0.31038 0.74547 0.0
O813 O 0.81068 0.32186 0.77795 0.0
O814 O 0.80537 0.27283 0.72113 0.0
O815 O 0.77686 0.26737 0.71853 0.0
O816 O 0.80808 0.25947 0.75838 0.0
O817 O 0.81183 0.28816 0.77222 0.0
O818 O 0.78118 0.26645 0.78745 0.0
O819 O 0.77273 0.25519 0.75508 0.0
O820 O 0.77841 0.30137 0.81238 0.0
O821 O 0.80683 0.31115 0.81417 0.0
O822 O 0.77509 0.31714 0.77481 0.0
O823 O 0.77181 0.28862 0.76086 0.0
H824 H 0.79934 0.2584 0.67398 0.0
H825 H 0.78276 0.30338 0.70955 0.0
H826 H 0.78331 0.32159 0.6832 0.0
H827 H 0.80031 0.27678 0.64754 0.0
H828 H 0.78178 0.30931 0.85862 0.0
H829 H 0.80895 0.27685 0.82087 0.0
H830 H 0.81069 0.25533 0.84389 0.0
H831 H 0.78291 0.28728 0.88161 0.0
Gd832 Gd 0.80459 0.80661 0.77263 0.0
Gd833 Gd 0.77959 0.76357 0.76196 0.0
C834 C 0.76221 0.7991 0.77234 0.0
C835 C 0.81786 0.84307 0.77559 0.0
C836 C 0.81023 0.85817 0.7692 0.0
C837 C 0.81329 0.87635 0.78096 0.0
C838 C 0.79815 0.85372 0.75246 0.0
C839 C 0.7911 0.88485 0.76016 0.0
C840 C 0.7888 0.86699 0.7479 0.0
C841 C 0.80379 0.88963 0.77648 0.0
C842 C 0.80303 0.7845 0.80016 0.0
C843 C 0.82073 0.77191 0.75483 0.0
C844 C 0.76466 0.72859 0.76456 0.0
C845 C 0.76684 0.7096 0.756 0.0
C846 C 0.75461 0.69274 0.75769 0.0
C847 C 0.78205 0.70821 0.74766 0.0
C848 C 0.774 0.67323 0.74513 0.0
C849 C 0.78567 0.69024 0.74241 0.0
C850 C 0.75808 0.67465 0.75214 0.0
C851 C 0.78287 0.78093 0.73054 0.0
O852 O 0.77705 0.81103 0.77003 0.0
O853 O 0.76069 0.78043 0.77224 0.0
O854 O 0.8106 0.83546 0.78947 0.0
O855 O 0.82077 0.83016 0.76192 0.0
O856 O 0.81712 0.79714 0.79831 0.0
O857 O 0.79052 0.78509 0.78819 0.0
O858 O 0.80667 0.75924 0.758 0.0
O859 O 0.82218 0.7908 0.75765 0.0
O860 O 0.75799 0.73824 0.75281 0.0
O861 O 0.77817 0.73928 0.77653 0.0
O862 O 0.77311 0.76366 0.72985 0.0
O863 O 0.7898 0.78717 0.74755 0.0
H864 H 0.82242 0.87992 0.79405 0.0
H865 H 0.79538 0.83967 0.7433 0.0
H866 H 0.77933 0.863 0.73507 0.0
H867 H 0.80574 0.90319 0.78631 0.0
H868 H 0.74272 0.69359 0.76397 0.0
H869 H 0.79158 0.72111 0.74613 0.0
H870 H 0.79817 0.68992 0.73736 0.0
H871 H 0.74861 0.66186 0.75404 0.0
Gd872 Gd 0.52468 0.52886 0.50867 0.0
Gd873 Gd 0.56134 0.5541 0.52937 0.0
C874 C 0.53516 0.57505 0.50847 0.0
C875 C 0.4915 0.51341 0.50271 0.0
C876 C 0.47698 0.52073 0.50985 0.0
C877 C 0.46007 0.51426 0.4998 0.0
C878 C 0.48043 0.53584 0.52569 0.0
C879 C 0.45039 0.53882 0.52077 0.0
C880 C 0.46722 0.54461 0.53128 0.0
C881 C 0.44684 0.52326 0.50519 0.0
C882 C 0.54923 0.52834 0.48287 0.0
C883 C 0.55128 0.50765 0.52838 0.0
C884 C 0.59447 0.56997 0.53571 0.0
C885 C 0.60924 0.56379 0.52787 0.0
C886 C 0.6265 0.57389 0.53484 0.0
C887 C 0.60602 0.54709 0.51381 0.0
C888 C 0.63734 0.55026 0.51397 0.0
C889 C 0.61992 0.54051 0.50674 0.0
C890 C 0.64049 0.56716 0.52798 0.0
C891 C 0.53681 0.55466 0.55519 0.0
O892 O 0.52239 0.55932 0.50735 0.0
O893 O 0.55155 0.57586 0.51494 0.0
O894 O 0.49979 0.52335 0.49087 0.0
O895 O 0.50211 0.5091 0.51574 0.0
O896 O 0.53291 0.51884 0.47945 0.0
O897 O 0.55158 0.53697 0.50029 0.0
O898 O 0.56384 0.52363 0.52984 0.0
O899 O 0.53478 0.50665 0.52211 0.0
O900 O 0.58635 0.55877 0.5467 0.0
O901 O 0.58372 0.57488 0.52331 0.0
O902 O 0.55309 0.5642 0.55855 0.0
O903 O 0.53445 0.54598 0.53778 0.0
H904 H 0.45728 0.5028 0.48734 0.0
H905 H 0.49354 0.54134 0.53331 0.0
H906 H 0.47036 0.55631 0.54353 0.0
H907 H 0.43411 0.5186 0.49661 0.0
H908 H 0.62916 0.58673 0.54584 0.0
H909 H 0.59271 0.53899 0.50848 0.0
H910 H 0.61699 0.52766 0.49574 0.0
H911 H 0.65373 0.57485 0.53406 0.0
Gd912 Gd 0.06003 0.53605 0.01829 0.0
Gd913 Gd 0.02091 0.52817 0.02394 0.0
C914 C 0.03553 0.49209 0.0085 0.0
C915 C 0.09317 0.53781 0.01914 0.0
C916 C 0.106 0.5262 0.02181 0.0
C917 C 0.12177 0.53084 0.01399 0.0
C918 C 0.10311 0.51118 0.03252 0.0
C919 C 0.13212 0.50606 0.02811 0.0
C920 C 0.11609 0.50115 0.03563 0.0
C921 C 0.1347 0.52087 0.01708 0.0
C922 C 0.03849 0.54241 0.98959 0.0
C923 C 0.04514 0.57235 0.03221 0.0
C924 C 0.98796 0.52686 0.02452 0.0
C925 C 0.97552 0.53894 0.02178 0.0
C926 C 0.96199 0.53833 0.03337 0.0
C927 C 0.97651 0.55047 0.00744 0.0
C928 C 0.94998 0.55995 0.01581 0.0
C929 C 0.96382 0.56087 1.00446 0.0
C930 C 0.94938 0.54876 0.03047 0.0
C931 C 0.04239 0.52078 0.05192 0.0
O932 O 0.05147 0.50331 0.0144 0.0
O933 O 0.02143 0.49908 0.00824 0.0
O934 O 0.0822 0.53258 1.00325 0.0
O935 O 0.0859 0.54321 0.03427 0.0
O936 O 0.0545 0.55255 0.99461 0.0
O937 O 0.03525 0.52884 0.99893 0.0
O938 O 0.02923 0.56085 0.0271 0.0
O939 O 0.05936 0.56562 0.03241 0.0
O940 O 0.99948 0.53247 0.03996 0.0
O941 O 0.99449 0.52032 0.00925 0.0
O942 O 0.02649 0.51056 0.04641 0.0
O943 O 0.04567 0.53495 0.04333 0.0
H944 H 0.12418 0.54235 1.00563 0.0
H945 H 0.09097 0.50741 0.03869 0.0
H946 H 0.11374 0.48988 0.04427 0.0
H947 H 0.14674 0.52477 0.01077 0.0
H948 H 0.96106 0.52959 0.04457 0.0
H949 H 0.98691 0.55122 0.99836 0.0
H950 H 0.96462 0.56922 0.99296 0.0
H951 H 0.93913 0.54803 0.03974 0.0
C952 C 0.00749 0.20164 0.9298 0.0
C953 C 0.0119 0.22026 0.94106 0.0
C954 C 0.00841 0.18545 0.93816 0.0
C955 C 0.02959 0.17219 0.98126 0.0
H956 H 0.99782 0.122 0.96235 0.0
C957 C 0.04503 0.10255 1.0001 0.0
C958 C 0.03127 0.08756 1.00316 0.0
C959 C 0.04158 0.1187 0.99335 0.0
C960 C 0.00668 0.13594 0.96798 0.0
H961 H 0.02007 0.23636 0.97007 0.0
H962 H 0.02125 0.20818 0.9847 0.0
H963 H 0.99313 0.15015 0.94941 0.0
H964 H 1.00301 0.07793 1.00161 0.0
H965 H 0.99698 0.10638 0.99013 0.0
H966 H 0.04293 0.15815 1.00012 0.0
C967 C 0.01753 0.20606 0.96932 0.0
C968 C 1.00414 0.15207 0.96036 0.0
C969 C 0.01676 0.22225 0.96094 0.0
C970 C 0.01393 0.08919 0.99938 0.0
C971 C 0.01046 0.10546 0.99269 0.0
C972 C 0.03207 0.15612 0.98894 0.0
C973 C 0.01363 0.18746 0.95801 0.0
C974 C 0.01568 0.17039 0.96676 0.0
C975 C 0.02427 0.12043 0.98959 0.0
C976 C 0.02081 0.13772 0.98223 0.0
H977 H 1.00374 0.19959 0.91442 0.0
H978 H 0.00553 0.17143 0.92892 0.0
H979 H 0.0389 0.18595 0.98643 0.0
H980 H 0.05856 0.10177 1.00268 0.0
H981 H 0.05254 0.12969 0.99077 0.0
C982 C 0.13489 0.81742 0.16854 0.0
C983 C 0.12566 0.8004 0.15609 0.0
C984 C 0.15202 0.8191 0.17704 0.0
C985 C 0.18377 0.78881 0.18641 0.0
H986 H 0.21705 0.83873 0.2002 0.0
C987 C 0.25728 0.79835 0.21388 0.0
C988 C 0.2626 0.81028 0.23198 0.0
C989 C 0.2412 0.79778 0.20343 0.0
C990 C 0.20787 0.8247 0.19637 0.0
H991 H 0.12738 0.77213 0.14214 0.0
H992 H 0.15734 0.77535 0.15597 0.0
H993 H 0.18787 0.83648 0.18401 0.0
H994 H 0.25567 0.83139 0.25311 0.0
H995 H 0.22782 0.83082 0.2346 0.0
H996 H 0.20411 0.77708 0.19834 0.0
C997 C 0.15127 0.78715 0.16002 0.0
C998 C 0.19105 0.82339 0.18724 0.0
C999 C 0.13406 0.78533 0.15192 0.0
C1000 C 0.25186 0.82206 0.23918 0.0
C1001 C 0.23598 0.8218 0.22858 0.0
C1002 C 0.20069 0.7901 0.19514 0.0
C1003 C 0.16048 0.80395 0.17294 0.0
C1004 C 0.17866 0.80542 0.18226 0.0
C1005 C 0.23036 0.80944 0.21075 0.0
C1006 C 0.21284 0.80806 0.20036 0.0
H1007 H 0.12872 0.82926 0.17208 0.0
H1008 H 0.15844 0.83216 0.18711 0.0
H1009 H 0.17462 0.77476 0.18332 0.0
H1010 H 0.26527 0.78904 0.20808 0.0
H1011 H 0.23717 0.78816 0.18969 0.0
C1012 C 0.53028 0.82112 0.45799 0.0
C1013 C 0.51831 0.81331 0.44126 0.0
C1014 C 0.5322 0.84025 0.46711 0.0
C1015 C 0.50941 0.87964 0.47212 0.0
H1016 H 0.55596 0.91375 0.48499 0.0
C1017 C 0.51963 0.96207 0.48889 0.0
C1018 C 0.53331 0.97308 0.50296 0.0
C1019 C 0.51803 0.94234 0.4829 0.0
C1020 C 0.54288 0.90438 0.48181 0.0
H1021 H 0.49872 0.81936 0.42123 0.0
H1022 H 0.50192 0.85256 0.43725 0.0
H1023 H 0.55256 0.87954 0.47211 0.0
H1024 H 0.55604 0.97187 0.52183 0.0
H1025 H 0.55304 0.93723 0.51162 0.0
H1026 H 0.49964 0.90427 0.48184 0.0
C1027 C 0.50984 0.84392 0.44331 0.0
C1028 C 0.54094 0.88478 0.47438 0.0
C1029 C 0.50808 0.82492 0.43407 0.0
C1030 C 0.54537 0.96383 0.51092 0.0
C1031 C 0.54369 0.94398 0.50499 0.0
C1032 C 0.51133 0.89915 0.47969 0.0
C1033 C 0.522 0.85185 0.45984 0.0
C1034 C 0.52417 0.87228 0.46915 0.0
C1035 C 0.52996 0.93297 0.49091 0.0
C1036 C 0.52808 0.91188 0.4843 0.0
H1037 H 0.53839 0.81257 0.46386 0.0
H1038 H 0.5416 0.84594 0.4799 0.0
H1039 H 0.49633 0.87028 0.46852 0.0
H1040 H 0.51017 0.96871 0.4823 0.0
H1041 H 0.50752 0.9345 0.47172 0.0
C1042 C 0.51113 0.28536 0.64196 0.0
C1043 C 0.52735 0.29822 0.64942 0.0
C1044 C 0.49704 0.28351 0.65272 0.0
C1045 C 0.48559 0.29371 0.70236 0.0
H1046 H 0.43914 0.28741 0.67549 0.0
C1047 C 0.42497 0.30061 0.74106 0.0
C1048 C 0.40893 0.28727 0.7337 0.0
C1049 C 0.43973 0.30109 0.73141 0.0
C1050 C 0.45199 0.28893 0.68318 0.0
H1051 H 0.54152 0.31914 0.67417 0.0
H1052 H 0.51677 0.31624 0.69287 0.0
H1053 H 0.46425 0.29041 0.65757 0.0
H1054 H 0.39614 0.26349 0.71066 0.0
H1055 H 0.42184 0.26454 0.69369 0.0
H1056 H 0.47322 0.29261 0.72805 0.0
C1057 C 0.51503 0.30732 0.67878 0.0
C1058 C 0.46642 0.29063 0.6729 0.0
C1059 C 0.5292 0.30907 0.66802 0.0
C1060 C 0.40816 0.27418 0.7166 0.0
C1061 C 0.42289 0.27475 0.70687 0.0
C1062 C 0.47114 0.29215 0.71267 0.0
C1063 C 0.49872 0.29459 0.67121 0.0
C1064 C 0.48342 0.29298 0.68232 0.0
C1065 C 0.4388 0.28834 0.71407 0.0
C1066 C 0.45417 0.28968 0.70318 0.0
H1067 H 0.50928 0.27663 0.62774 0.0
H1068 H 0.48484 0.27326 0.64655 0.0
H1069 H 0.49842 0.29523 0.71007 0.0
H1070 H 0.42602 0.31117 0.75399 0.0
H1071 H 0.45172 0.31188 0.7372 0.0
C1072 C 0.04129 0.81136 0.63694 0.0
C1073 C 0.02541 0.79768 0.63663 0.0
C1074 C 0.04265 0.82475 0.62445 0.0
C1075 C 0.0156 0.84867 0.59628 0.0
H1076 H 0.05638 0.86146 0.5696 0.0
C1077 C 0.0176 0.89832 0.54019 0.0
C1078 C 0.03314 0.91268 0.54097 0.0
C1079 C 0.01717 0.88332 0.5506 0.0
C1080 C 0.04498 0.85817 0.57708 0.0
H1081 H 0.99857 0.78714 0.62279 0.0
H1082 H 1.00097 0.81044 0.60105 0.0
H1083 H 0.0547 0.83728 0.59053 0.0
H1084 H 0.06064 0.92198 0.55267 0.0
H1085 H 0.05976 0.89604 0.57127 0.0
H1086 H 0.00596 0.86966 0.58316 0.0
C1087 C 0.01232 0.81095 0.61106 0.0
C1088 C 0.04402 0.84433 0.58906 0.0
C1089 C 0.01098 0.79754 0.62347 0.0
C1090 C 0.0484 0.91129 0.55194 0.0
C1091 C 0.04794 0.8963 0.56244 0.0
C1092 C 0.01659 0.86252 0.58439 0.0
C1093 C 0.02814 0.82477 0.61149 0.0
C1094 C 0.02929 0.83941 0.59874 0.0
C1095 C 0.03223 0.88236 0.56217 0.0
C1096 C 0.03125 0.8674 0.5746 0.0
H1097 H 0.05266 0.81184 0.64689 0.0
H1098 H 0.05496 0.83534 0.62523 0.0
H1099 H 1.00423 0.84547 0.60382 0.0
H1100 H 0.00554 0.89901 0.5321 0.0
H1101 H 1.00492 0.87263 0.54981 0.0
C1102 C 0.54175 0.80425 0.828 0.0
C1103 C 0.55072 0.82134 0.84056 0.0
C1104 C 0.5261 0.80354 0.81673 0.0
C1105 C 0.49902 0.8341 0.7981 0.0
H1106 H 0.45991 0.79154 0.80113 0.0
C1107 C 0.42744 0.83894 0.78704 0.0
C1108 C 0.41434 0.82232 0.77871 0.0
C1109 C 0.44486 0.83797 0.79052 0.0
C1110 C 0.47073 0.80332 0.79975 0.0
H1111 H 0.55066 0.85128 0.85063 0.0
H1112 H 0.52337 0.85 0.83105 0.0
H1113 H 0.4893 0.79137 0.81458 0.0
H1114 H 0.40936 0.79184 0.76661 0.0
H1115 H 0.43988 0.79013 0.77267 0.0
H1116 H 0.48037 0.84629 0.78369 0.0
C1117 C 0.52847 0.83718 0.82981 0.0
C1118 C 0.48758 0.80323 0.80749 0.0
C1119 C 0.54404 0.83787 0.84115 0.0
C1120 C 0.41914 0.80483 0.77331 0.0
C1121 C 0.4366 0.80386 0.77677 0.0
C1122 C 0.48217 0.83417 0.79029 0.0
C1123 C 0.5192 0.81994 0.8177 0.0
C1124 C 0.50183 0.81886 0.80719 0.0
C1125 C 0.4496 0.82035 0.78573 0.0
C1126 C 0.46777 0.81902 0.79148 0.0
H1127 H 0.5466 0.79128 0.82716 0.0
H1128 H 0.5193 0.7901 0.8074 0.0
H1129 H 0.50981 0.84619 0.79738 0.0
H1130 H 0.42415 0.85257 0.79164 0.0
H1131 H 0.45447 0.85087 0.79776 0.0
C1132 C 0.46831 0.1624 0.10853 0.0
C1133 C 0.48008 0.1804 0.10931 0.0
C1134 C 0.46841 0.14667 0.09439 0.0
C1135 C 0.48426 0.13354 0.04753 0.0
H1136 H 0.48169 0.08421 0.06397 0.0
C1137 C 0.50969 0.07154 0.00743 0.0
C1138 C 0.5006 0.05247 0.00761 0.0
C1139 C 0.50421 0.08705 0.01717 0.0
C1140 C 0.4821 0.09778 0.05903 0.0
H1141 H 0.50101 0.19606 0.09567 0.0
H1142 H 0.50141 0.16858 0.07128 0.0
H1143 H 0.47798 0.11152 0.08656 0.0
H1144 H 0.47795 0.03454 0.01675 0.0
H1145 H 0.46836 0.06162 0.03377 0.0
H1146 H 0.48897 0.11984 0.02015 0.0
C1147 C 0.49189 0.16667 0.08136 0.0
C1148 C 0.47998 0.11346 0.07199 0.0
C1149 C 0.49175 0.18241 0.09545 0.0
C1150 C 0.48523 0.04913 0.01645 0.0
C1151 C 0.47983 0.06461 0.02632 0.0
C1152 C 0.48645 0.11786 0.03457 0.0
C1153 C 0.48032 0.14858 0.08075 0.0
C1154 C 0.48126 0.13159 0.06648 0.0
C1155 C 0.48958 0.0837 0.0273 0.0
C1156 C 0.48559 0.09988 0.04027 0.0
H1157 H 0.45908 0.16041 0.11892 0.0
H1158 H 0.45917 0.133 0.09416 0.0
H1159 H 0.48504 0.14724 0.04274 0.0
H1160 H 0.52158 0.07442 1.00068 0.0
H1161 H 0.51206 0.10158 0.01776 0.0
C1162 C 0.14306 0.34628 0.34079 0.0
C1163 C 0.12908 0.3304 0.33273 0.0
C1164 C 0.15871 0.34953 0.33257 0.0
C1165 C 0.17823 0.33474 0.28844 0.0
H1166 H 0.22048 0.34212 0.32385 0.0
C1167 C 0.23506 0.30155 0.27115 0.0
C1168 C 0.25237 0.31215 0.27747 0.0
C1169 C 0.22105 0.30937 0.27575 0.0
C1170 C 0.20889 0.34053 0.31377 0.0
H1171 H 0.12035 0.30583 0.30939 0.0
H1172 H 0.14757 0.31125 0.29535 0.0
H1173 H 0.19338 0.34575 0.33636 0.0
H1174 H 0.26866 0.33953 0.293 0.0
H1175 H 0.24392 0.35299 0.30166 0.0
H1176 H 0.19354 0.32822 0.26598 0.0
C1177 C 0.14645 0.32142 0.30781 0.0
C1178 C 0.19335 0.34261 0.32092 0.0
C1179 C 0.13087 0.31818 0.316 0.0
C1180 C 0.25542 0.33102 0.28798 0.0
C1181 C 0.24133 0.33873 0.29292 0.0
C1182 C 0.19371 0.33251 0.28133 0.0
C1183 C 0.16063 0.33699 0.3161 0.0
C1184 C 0.17769 0.33892 0.30838 0.0
C1185 C 0.22402 0.32786 0.28701 0.0
C1186 C 0.20898 0.33462 0.29399 0.0
H1187 H 0.14204 0.35603 0.35362 0.0
H1188 H 0.16936 0.36172 0.33921 0.0
H1189 H 0.16647 0.33227 0.27838 0.0
H1190 H 0.23232 0.28705 0.26289 0.0
H1191 H 0.20783 0.30058 0.27122 0.0
C1192 C 0.94437 0.0486 0.1956 0.0
C1193 C 0.95226 0.06386 0.21104 0.0
C1194 C 0.95199 0.04611 0.17813 0.0
C1195 C 0.98572 0.07332 0.15011 0.0
H1196 H 0.98316 0.02299 0.1201 0.0
C1197 C 0.03065 0.0653 0.0897 0.0
C1198 C 0.02531 0.05102 0.07296 0.0
C1199 C 0.02057 0.06606 0.10517 0.0
C1200 C 0.98392 0.03725 0.12809 0.0
H1201 H 0.97485 0.08824 0.21948 0.0
H1202 H 0.98783 0.08392 0.18993 0.0
H1203 H 0.96818 0.02559 0.14896 0.0
H1204 H 1.00474 0.0258 0.06012 0.0
H1205 H 0.98686 0.02721 0.08699 0.0
H1206 H 1.00131 0.08509 0.12945 0.0
C1207 C 0.97558 0.07393 0.19088 0.0
C1208 C 0.97523 0.03876 0.14485 0.0
C1209 C 0.96807 0.07634 0.20819 0.0
C1210 C 0.00926 0.03732 0.07243 0.0
C1211 C 0.99907 0.03802 0.08811 0.0
C1212 C 0.99434 0.07182 0.13347 0.0
C1213 C 0.96776 0.05886 0.17529 0.0
C1214 C 0.97615 0.05686 0.15649 0.0
C1215 C 1.0045 0.0525 0.10489 0.0
C1216 C 0.99396 0.05376 0.12214 0.0
H1217 H 0.93226 0.03856 0.19696 0.0
H1218 H 0.9453 0.03432 0.16672 0.0
H1219 H 0.98653 0.08766 0.15795 0.0
H1220 H 0.04294 0.07606 0.09103 0.0
H1221 H 0.02575 0.07723 0.11765 0.0
C1222 C 0.30296 0.70636 0.48187 0.0
C1223 C 0.29187 0.68796 0.4748 0.0
C1224 C 0.30337 0.72136 0.47142 0.0
C1225 C 0.27698 0.73825 0.4362 0.0
H1226 H 0.32102 0.76418 0.42124 0.0
C1227 C 0.28078 0.77749 0.37168 0.0
C1228 C 0.29577 0.79205 0.37088 0.0
C1229 C 0.27936 0.76821 0.38756 0.0
C1230 C 0.30864 0.75753 0.42567 0.0
H1231 H 0.27254 0.67079 0.45132 0.0
H1232 H 0.27314 0.6971 0.43323 0.0
H1233 H 0.32083 0.74097 0.44282 0.0
H1234 H 0.32032 0.80945 0.38705 0.0
H1235 H 0.31734 0.79408 0.41513 0.0
H1236 H 0.2647 0.75475 0.41915 0.0
C1237 C 0.28149 0.69985 0.44681 0.0
C1238 C 0.30857 0.74412 0.43794 0.0
C1239 C 0.2813 0.68478 0.45706 0.0
C1240 C 0.30855 0.79832 0.3871 0.0
C1241 C 0.30699 0.78926 0.40313 0.0
C1242 C 0.27706 0.75191 0.42419 0.0
C1243 C 0.29246 0.71826 0.45395 0.0
C1244 C 0.2927 0.73401 0.44286 0.0
C1245 C 0.29278 0.77351 0.40319 0.0
C1246 C 0.29284 0.76133 0.41832 0.0
H1247 H 0.31122 0.7092 0.49552 0.0
H1248 H 0.31196 0.73546 0.47714 0.0
H1249 H 0.26461 0.73077 0.44006 0.0
H1250 H 0.27046 0.77263 0.35965 0.0
H1251 H 0.26822 0.75612 0.38699 0.0
C1252 C 0.59102 0.02885 0.71426 0.0
C1253 C 0.6068 0.02294 0.71552 0.0
C1254 C 0.58095 0.02647 0.69644 0.0
C1255 C 0.58645 0.02255 0.64533 0.0
H1256 H 0.53563 0.01082 0.63761 0.0
C1257 C 0.54952 0.04036 0.58042 0.0
C1258 C 0.53497 0.02625 0.57044 0.0
C1259 C 0.55719 0.03823 0.59814 0.0
C1260 C 0.54981 0.01392 0.63953 0.0
H1261 H 0.62389 0.00887 0.69927 0.0
H1262 H 0.60624 1.00449 0.66831 0.0
H1263 H 0.55086 0.00896 0.66862 0.0
H1264 H 0.51659 0.99918 0.57129 0.0
H1265 H 0.53011 0.9954 0.60256 0.0
H1266 H 0.58549 0.02752 0.61636 0.0
C1267 C 0.60183 0.01136 0.681 0.0
C1268 C 0.55853 0.01303 0.6573 0.0
C1269 C 0.61192 0.01383 0.69875 0.0
C1270 C 0.52784 0.01023 0.57875 0.0
C1271 C 0.53553 1.0081 0.5966 0.0
C1272 C 0.57777 0.02347 0.62766 0.0
C1273 C 0.58645 0.01805 0.67957 0.0
C1274 C 0.57696 0.01756 0.66043 0.0
C1275 C 0.55047 0.02195 0.60629 0.0
C1276 C 0.55939 0.01948 0.62466 0.0
H1277 H 0.58671 0.03587 0.72694 0.0
H1278 H 0.56924 0.03192 0.6958 0.0
H1279 H 0.60065 0.02635 0.64731 0.0
H1280 H 0.55515 0.05298 0.57443 0.0
H1281 H 0.56846 0.04934 0.60545 0.0
C1282 C 0.30151 0.37586 0.97687 0.0
C1283 C 0.31077 0.36886 0.99093 0.0
C1284 C 0.29954 0.36736 0.9575 0.0
C1285 C 0.28975 0.34169 0.91845 0.0
H1286 H 0.32855 0.3241 0.8982 0.0
C1287 C 0.28413 0.30412 0.83954 0.0
C1288 C 0.29892 0.30838 0.82981 0.0
C1289 C 0.28536 0.31028 0.85938 0.0
C1290 C 0.31763 0.32909 0.90355 0.0
H1291 H 0.32479 0.34703 0.9957 0.0
H1292 H 0.32091 0.33179 0.96195 0.0
H1293 H 0.33093 0.3373 0.93225 0.0
H1294 H 0.32662 0.32253 0.83335 0.0
H1295 H 0.32866 0.33379 0.86782 0.0
H1296 H 0.27678 0.33436 0.88964 0.0
C1297 C 0.31555 0.3442 0.96582 0.0
C1298 C 0.31889 0.3364 0.92319 0.0
C1299 C 0.31767 0.35285 0.98521 0.0
C1300 C 0.31499 0.31889 0.84041 0.0
C1301 C 0.31618 0.32525 0.86023 0.0
C1302 C 0.28856 0.33456 0.89879 0.0
C1303 C 0.30661 0.35147 0.95168 0.0
C1304 C 0.305 0.34291 0.93089 0.0
C1305 C 0.30136 0.32107 0.86999 0.0
C1306 C 0.30251 0.32823 0.89105 0.0
H1307 H 0.29612 0.38826 0.98075 0.0
H1308 H 0.29284 0.3736 0.94705 0.0
H1309 H 0.27867 0.34627 0.92386 0.0
H1310 H 0.27157 0.29588 0.83186 0.0
H1311 H 0.27374 0.30644 0.8664 0.0
C1312 C 0.95441 0.06871 0.3267 0.0
C1313 C 0.94813 0.0512 0.31347 0.0
C1314 C 0.96312 0.06911 0.34529 0.0
C1315 C 0.96889 0.03593 0.38094 0.0
H1316 H 0.00824 0.0774 0.40603 0.0
C1317 C 0.00998 0.02809 0.45086 0.0
C1318 C 0.018 0.04446 0.465 0.0
C1319 C 1.00179 0.02981 0.43287 0.0
C1320 C 0.99714 0.06571 0.39947 0.0
H1321 H 0.94672 0.02042 0.31005 0.0
H1322 H 0.96155 0.02117 0.34156 0.0
H1323 H 0.99354 0.07917 0.37471 0.0
H1324 H 0.02357 0.07576 0.47049 0.0
H1325 H 0.00918 0.07879 0.43953 0.0
H1326 H 0.97218 0.02251 0.40554 0.0
C1327 C 0.95962 0.03467 0.33796 0.0
C1328 C 0.98863 0.06675 0.3813 0.0
C1329 C 0.95111 0.03429 0.31956 0.0
C1330 C 0.01761 0.0627 0.46022 0.0
C1331 C 0.00935 0.06445 0.4422 0.0
C1332 C 0.9773 0.03492 0.39904 0.0
C1333 C 0.9657 0.05199 0.3514 0.0
C1334 C 0.97444 0.05174 0.37148 0.0
C1335 C 1.00111 0.04801 0.4281 0.0
C1336 C 0.99178 0.04964 0.40872 0.0
H1337 H 0.95247 0.08209 0.32278 0.0
H1338 H 0.96747 0.08283 0.35503 0.0
H1339 H 0.9578 0.0242 0.3744 0.0
H1340 H 0.00996 0.01374 0.45365 0.0
H1341 H 0.99611 0.01668 0.4226 0.0
C1342 C 0.27916 0.71543 0.57288 0.0
C1343 C 0.27906 0.69572 0.56898 0.0
C1344 C 0.27698 0.72406 0.59121 0.0
C1345 C 0.28225 0.7176 0.64169 0.0
H1346 H 0.25802 0.75879 0.64966 0.0
C1347 C 0.27937 0.75634 0.71757 0.0
C1348 C 0.28485 0.77658 0.72008 0.0
C1349 C 0.27499 0.74528 0.69912 0.0
C1350 C 0.26481 0.74729 0.64763 0.0
H1351 H 0.27597 0.66942 0.58104 0.0
H1352 H 0.27186 0.6844 0.61293 0.0
H1353 H 0.25738 0.74134 0.61714 0.0
H1354 H 0.28894 0.80124 0.70549 0.0
H1355 H 0.28138 0.78191 0.67319 0.0
H1356 H 0.28992 0.72373 0.67206 0.0
C1357 C 0.274 0.69329 0.60194 0.0
C1358 C 0.26451 0.73735 0.62903 0.0
C1359 C 0.2763 0.6847 0.58365 0.0
C1360 C 0.28484 0.78564 0.70392 0.0
C1361 C 0.28041 0.77458 0.68545 0.0
C1362 C 0.28247 0.72745 0.66025 0.0
C1363 C 0.27453 0.71313 0.60601 0.0
C1364 C 0.27348 0.72261 0.62583 0.0
C1365 C 0.27595 0.75428 0.68287 0.0
C1366 C 0.27399 0.7426 0.66338 0.0
H1367 H 0.28127 0.72432 0.56188 0.0
H1368 H 0.27772 0.73943 0.59392 0.0
H1369 H 0.28955 0.70657 0.63973 0.0
H1370 H 0.27911 0.74901 0.72983 0.0
H1371 H 0.27134 0.72967 0.69755 0.0
C1372 C 0.62006 0.98937 0.79961 0.0
C1373 C 0.63691 1.00137 0.80558 0.0
C1374 C 0.61131 0.97861 0.81218 0.0
C1375 C 0.61778 0.96409 0.86052 0.0
H1376 H 0.56799 0.96116 0.85872 0.0
C1377 C 0.57801 0.96975 0.92396 0.0
C1378 C 0.56231 0.95561 0.92347 0.0
C1379 C 0.58793 0.96914 0.90869 0.0
C1380 C 0.58181 0.96145 0.85911 0.0
H1381 H 0.65792 0.01156 0.82919 0.0
H1382 H 0.64232 0.99387 0.85157 0.0
H1383 H 0.58361 0.97291 0.8332 0.0
H1384 H 0.54547 0.92905 0.90673 0.0
H1385 H 0.56232 0.92898 0.87934 0.0
H1386 H 0.61599 0.95437 0.8876 0.0
C1387 C 0.63602 0.99199 0.83699 0.0
C1388 C 0.59083 0.96818 0.84447 0.0
C1389 C 0.64493 1.00236 0.82425 0.0
C1390 C 0.55721 0.94045 0.90749 0.0
C1391 C 0.56694 0.9402 0.89191 0.0
C1392 C 0.6088 0.9578 0.8754 0.0
C1393 C 0.61904 0.98001 0.83118 0.0
C1394 C 0.60905 0.97015 0.84525 0.0
C1395 C 0.58219 0.95474 0.89234 0.0
C1396 C 0.59085 0.9569 0.87498 0.0
H1397 H 0.61371 0.98811 0.78514 0.0
H1398 H 0.59844 0.96925 0.80698 0.0
H1399 H 0.63169 0.96485 0.86138 0.0
H1400 H 0.58232 0.98196 0.93563 0.0
H1401 H 0.59952 0.98069 0.90913 0.0
C1402 C 0.30009 0.35021 0.0828 0.0
C1403 C 0.30411 0.37026 0.08307 0.0
C1404 C 0.29969 0.34292 0.09999 0.0
C1405 C 0.29229 0.35493 0.14999 0.0
H1406 H 0.31477 0.31377 0.15842 0.0
C1407 C 0.27642 0.30748 0.20801 0.0
C1408 C 0.29064 0.30382 0.2189 0.0
C1409 C 0.2791 0.3172 0.19251 0.0
C1410 C 0.30854 0.32537 0.15631 0.0
H1411 H 0.31092 0.39839 0.10164 0.0
H1412 H 0.30992 0.38561 0.13162 0.0
H1413 H 0.31763 0.32731 0.12887 0.0
H1414 H 0.31885 0.3078 0.2225 0.0
H1415 H 0.32352 0.32452 0.19506 0.0
H1416 H 0.28289 0.3527 0.17723 0.0
C1417 C 0.30715 0.37557 0.11809 0.0
C1418 C 0.31006 0.33299 0.13936 0.0
C1419 C 0.3078 0.38286 0.10092 0.0
C1420 C 0.30765 0.31042 0.21429 0.0
C1421 C 0.31031 0.31988 0.19858 0.0
C1422 C 0.29056 0.34712 0.1668 0.0
C1423 C 0.30306 0.35553 0.1178 0.0
C1424 C 0.30189 0.3478 0.136 0.0
C1425 C 0.29603 0.32321 0.18743 0.0
C1426 C 0.29861 0.33221 0.1701 0.0
H1427 H 0.29722 0.34013 0.06929 0.0
H1428 H 0.29637 0.3274 0.09936 0.0
H1429 H 0.28577 0.36626 0.14771 0.0
H1430 H 0.26317 0.3026 0.21133 0.0
H1431 H 0.26785 0.31947 0.1841 0.0
C1432 C 0.25166 0.98942 0.95371 0.0
C1433 C 0.26424 0.99455 0.9701 0.0
C1434 C 0.23926 1.00024 0.95122 0.0
C1435 C 0.2272 0.04595 0.97051 0.0
H1436 H 0.17987 0.01344 0.96077 0.0
C1437 C 0.16941 0.06666 1.00407 0.0
C1438 C 0.15237 0.05983 0.99419 0.0
C1439 C 0.18367 0.06202 0.99584 0.0
C1440 C 0.19296 0.02283 0.96305 0.0
H1441 H 0.27443 0.0158 0.99605 0.0
H1442 H 0.25273 0.0344 0.99189 0.0
H1443 H 0.20442 0.99903 0.95554 0.0
H1444 H 0.13711 0.04403 0.96729 0.0
H1445 H 0.16207 0.03575 0.95294 0.0
H1446 H 0.21566 0.0696 0.97903 0.0
C1447 C 0.25248 0.02217 0.98083 0.0
C1448 C 0.20707 0.01455 0.96004 0.0
C1449 C 0.26485 0.01138 0.98332 0.0
C1450 C 0.15005 0.04919 0.97541 0.0
C1451 C 0.16433 0.0445 0.96718 0.0
C1452 C 0.21307 0.05424 0.97356 0.0
C1453 C 0.23923 0.01641 0.96505 0.0
C1454 C 0.22438 0.02589 0.96443 0.0
C1455 C 0.18122 0.05041 0.97754 0.0
C1456 C 0.19584 0.04263 0.97054 0.0
H1457 H 0.25095 0.97663 0.94316 0.0
H1458 H 0.22936 0.99559 0.93877 0.0
H1459 H 0.24037 0.05513 0.97367 0.0
H1460 H 0.17165 0.07468 0.01864 0.0
H1461 H 0.19645 0.06656 1.00433 0.0
C1462 C 0.72096 0.63021 0.98307 0.0
C1463 C 0.72656 0.64678 0.99745 0.0
C1464 C 0.70388 0.6186 0.98133 0.0
C1465 C 0.65999 0.6191 0.99706 0.0
H1466 H 0.65171 0.56331 0.98439 0.0
C1467 C 0.5992 0.5666 0.01425 0.0
C1468 C 0.59004 0.55165 0.99934 0.0
C1469 C 0.6153 0.57831 0.01198 0.0
C1470 C 0.65383 0.57888 0.98773 0.0
H1471 H 0.71875 0.66396 0.02146 0.0
H1472 H 0.6894 0.64351 0.01892 0.0
H1473 H 0.68107 0.58354 0.98441 0.0
H1474 H 0.59074 0.53683 0.97056 0.0
H1475 H 0.61934 0.55707 0.9668 0.0
H1476 H 0.63288 0.6143 1.00122 0.0
C1477 C 0.69787 0.63971 0.00853 0.0
C1478 C 0.67062 0.59051 0.98768 0.0
C1479 C 0.7148 0.6514 0.0101 0.0
C1480 C 0.59748 0.54836 0.98222 0.0
C1481 C 0.61381 0.55987 0.98009 0.0
C1482 C 0.64331 0.60748 0.99738 0.0
C1483 C 0.69211 0.6232 0.99407 0.0
C1484 C 0.67399 0.61078 0.99265 0.0
C1485 C 0.6228 0.57502 0.99492 0.0
C1486 C 0.64012 0.58727 0.99297 0.0
H1487 H 0.7297 0.62633 0.97304 0.0
H1488 H 0.69988 0.60615 0.96988 0.0
H1489 H 0.66191 0.63464 1.00045 0.0
H1490 H 0.59399 0.56919 0.02778 0.0
H1491 H 0.6221 0.5897 0.02376 0.0
C1492 C 0.6803 0.44019 0.27582 0.0
C1493 C 0.68824 0.45977 0.27536 0.0
C1494 C 0.68979 0.42567 0.27448 0.0
C1495 C 0.73272 0.41402 0.26137 0.0
H1496 H 0.717 0.37013 0.28632 0.0
C1497 C 0.77263 0.35357 0.26409 0.0
C1498 C 0.76385 0.33434 0.26486 0.0
C1499 C 0.76383 0.3688 0.26518 0.0
C1500 C 0.7216 0.38202 0.27893 0.0
H1501 H 0.71313 0.47875 0.27289 0.0
H1502 H 0.72975 0.45357 0.27071 0.0
H1503 H 0.70191 0.39608 0.28872 0.0
H1504 H 0.73831 0.31667 0.26734 0.0
H1505 H 0.72307 0.34277 0.26902 0.0
H1506 H 0.75252 0.39991 0.25168 0.0
C1507 C 0.7159 0.44936 0.27196 0.0
C1508 C 0.71278 0.39721 0.28033 0.0
C1509 C 0.70631 0.46403 0.27332 0.0
C1510 C 0.74576 0.33109 0.26671 0.0
C1511 C 0.73696 0.34633 0.26783 0.0
C1512 C 0.74158 0.3988 0.25999 0.0
C1513 C 0.70789 0.42975 0.27264 0.0
C1514 C 0.71798 0.41362 0.27149 0.0
C1515 C 0.74574 0.36566 0.26716 0.0
C1516 C 0.73623 0.3823 0.26866 0.0
H1517 H 0.66648 0.43588 0.27721 0.0
H1518 H 0.68265 0.41101 0.27463 0.0
H1519 H 0.73731 0.42598 0.25406 0.0
H1520 H 0.78651 0.35702 0.26278 0.0
H1521 H 0.77146 0.38321 0.26483 0.0
C1522 C 0.86759 0.49144 0.52652 0.0
C1523 C 0.85744 0.47935 0.53721 0.0
C1524 C 0.88582 0.49639 0.53045 0.0
C1525 C 0.92383 0.49304 0.56385 0.0
H1526 H 0.94436 0.48699 0.51628 0.0
C1527 C 0.99858 0.50791 0.55856 0.0
C1528 C 1.00387 0.49718 0.54289 0.0
C1529 C 0.98082 0.50499 0.56084 0.0
C1530 C 0.93884 0.48844 0.52972 0.0
H1531 H 0.85823 0.46425 0.56137 0.0
H1532 H 0.89009 0.47232 0.56781 0.0
H1533 H 0.91349 0.48594 0.51511 0.0
H1534 H 0.99523 0.47363 0.51866 0.0
H1535 H 0.96436 0.4679 0.52312 0.0
H1536 H 0.94932 0.49485 0.57835 0.0
C1537 C 0.88403 0.47826 0.5566 0.0
C1538 C 0.92116 0.48828 0.52907 0.0
C1539 C 0.86575 0.47356 0.55286 0.0
C1540 C 0.99142 0.48226 0.53069 0.0
C1541 C 0.97375 0.47911 0.53316 0.0
C1542 C 0.94162 0.4931 0.5645 0.0
C1543 C 0.89426 0.48904 0.54489 0.0
C1544 C 0.9134 0.49057 0.54609 0.0
C1545 C 0.96816 0.49113 0.54762 0.0
C1546 C 0.94926 0.49063 0.5474 0.0
H1547 H 0.86149 0.49637 0.51457 0.0
H1548 H 0.89333 0.50524 0.52155 0.0
H1549 H 0.91825 0.49491 0.57723 0.0
H1550 H 0.00797 0.51957 0.56813 0.0
H1551 H 0.97695 0.51448 0.57212 0.0
C1552 C 0.38995 0.09098 0.27243 0.0
C1553 C 0.39324 0.08279 0.28872 0.0
C1554 C 0.37496 0.09789 0.2697 0.0
C1555 C 0.344 0.11824 0.29561 0.0
H1556 H 0.31635 0.10738 0.24545 0.0
C1557 C 0.2894 0.15688 0.28111 0.0
C1558 C 0.28952 0.16434 0.26393 0.0
C1559 C 0.29886 0.14317 0.28409 0.0
C1560 C 0.32397 0.11061 0.25953 0.0
H1561 H 0.38342 0.07545 0.31495 0.0
H1562 H 0.35728 0.08799 0.31032 0.0
H1563 H 0.33963 0.09085 0.25102 0.0
H1564 H 0.2991 0.16291 0.23616 0.0
H1565 H 0.31588 0.13935 0.24143 0.0
H1566 H 0.32909 0.13872 0.30391 0.0
C1567 C 0.36631 0.08887 0.29965 0.0
C1568 C 0.33724 0.10111 0.2627 0.0
C1569 C 0.38123 0.08171 0.30227 0.0
C1570 C 0.2986 0.15722 0.24945 0.0
C1571 C 0.30819 0.14366 0.25248 0.0
C1572 C 0.33085 0.1279 0.29238 0.0
C1573 C 0.36303 0.09695 0.28329 0.0
C1574 C 0.34762 0.10517 0.28064 0.0
C1575 C 0.30878 0.13681 0.27002 0.0
C1576 C 0.32095 0.12454 0.27416 0.0
H1577 H 0.39891 0.09194 0.26168 0.0
H1578 H 0.37285 0.1043 0.2571 0.0
H1579 H 0.35192 0.12173 0.30952 0.0
H1580 H 0.28232 0.16201 0.29242 0.0
H1581 H 0.29876 0.13791 0.29761 0.0
C1582 C 0.34126 0.16347 0.511 0.0
C1583 C 0.32417 0.15397 0.50237 0.0
C1584 C 0.35462 0.15364 0.51102 0.0
C1585 C 0.3623 0.10434 0.50481 0.0
H1586 H 0.40898 0.13096 0.49705 0.0
C1587 C 0.41716 0.06472 0.49134 0.0
C1588 C 0.43393 0.07355 0.50137 0.0
C1589 C 0.40385 0.0746 0.49156 0.0
C1590 C 0.39606 0.12339 0.49942 0.0
H1591 H 0.30771 0.12667 0.48694 0.0
H1592 H 0.33108 0.10961 0.48664 0.0
H1593 H 0.38553 0.14791 0.49707 0.0
H1594 H 0.44976 0.09977 0.51954 0.0
H1595 H 0.42653 0.11711 0.51967 0.0
H1596 H 0.37284 0.07974 0.50691 0.0
C1597 C 0.33411 0.12458 0.49371 0.0
C1598 C 0.3826 0.13311 0.49947 0.0
C1599 C 0.32072 0.13439 0.49378 0.0
C1600 C 0.43709 0.09262 0.51145 0.0
C1601 C 0.42377 0.10255 0.51156 0.0
C1602 C 0.37573 0.0946 0.50465 0.0
C1603 C 0.35125 0.13409 0.50231 0.0
C1604 C 0.36555 0.12371 0.50219 0.0
C1605 C 0.40699 0.09361 0.50169 0.0
C1606 C 0.39276 0.10402 0.50196 0.0
H1607 H 0.34435 0.17852 0.51784 0.0
H1608 H 0.36757 0.16135 0.51806 0.0
H1609 H 0.34942 0.09674 0.50728 0.0
H1610 H 0.41435 0.05022 0.4831 0.0
H1611 H 0.39113 0.06744 0.48356 0.0
C1612 C 0.7119 0.58248 0.28406 0.0
C1613 C 0.6938 0.57794 0.2775 0.0
C1614 C 0.72276 0.60105 0.28389 0.0
C1615 C 0.7238 0.64617 0.2619 0.0
H1616 H 0.76272 0.66989 0.3017 0.0
C1617 C 0.7635 0.72695 0.2673 0.0
C1618 C 0.78157 0.73174 0.27386 0.0
C1619 C 0.75277 0.70846 0.26792 0.0
C1620 C 0.75205 0.66352 0.29026 0.0
H1621 H 0.67324 0.59008 0.26581 0.0
H1622 H 0.69174 0.62179 0.26574 0.0
H1623 H 0.74499 0.63762 0.30232 0.0
H1624 H 0.80238 0.7203 0.28595 0.0
H1625 H 0.78407 0.68851 0.28682 0.0
H1626 H 0.73086 0.67201 0.2498 0.0
C1627 C 0.69781 0.61108 0.27072 0.0
C1628 C 0.74179 0.6448 0.29063 0.0
C1629 C 0.68705 0.59269 0.27092 0.0
C1630 C 0.78852 0.71737 0.28091 0.0
C1631 C 0.77788 0.699 0.28155 0.0
C1632 C 0.73406 0.66487 0.26152 0.0
C1633 C 0.71594 0.61572 0.27706 0.0
C1634 C 0.72738 0.6357 0.27648 0.0
C1635 C 0.75975 0.69406 0.2751 0.0
C1636 C 0.74843 0.67401 0.27569 0.0
H1637 H 0.71772 0.57166 0.28921 0.0
H1638 H 0.73661 0.60376 0.2888 0.0
H1639 H 0.71315 0.63981 0.25044 0.0
H1640 H 0.75767 0.73736 0.26139 0.0
H1641 H 0.73893 0.70554 0.26286 0.0
C1642 C 0.88999 0.48537 0.73806 0.0
C1643 C 0.89958 0.49448 0.75601 0.0
C1644 C 0.88172 0.46565 0.7348 0.0
C1645 C 0.88148 0.42066 0.75407 0.0
H1646 H 0.83264 0.40478 0.73188 0.0
C1647 C 0.83408 0.35495 0.77095 0.0
C1648 C 0.82218 0.34237 0.75604 0.0
C1649 C 0.84451 0.37216 0.76761 0.0
C1650 C 0.84636 0.40892 0.73776 0.0
H1651 H 0.9082 0.48999 0.78452 0.0
H1652 H 0.8937 0.45581 0.77892 0.0
H1653 H 0.84947 0.43775 0.73208 0.0
H1654 H 0.81187 0.33798 0.72588 0.0
H1655 H 0.83008 0.36851 0.72013 0.0
H1656 H 0.87818 0.39211 0.76047 0.0
C1657 C 0.89275 0.46377 0.76725 0.0
C1658 C 0.856 0.42777 0.73788 0.0
C1659 C 0.90095 0.48343 0.77051 0.0
C1660 C 0.82093 0.3474 0.73765 0.0
C1661 C 0.8313 0.36484 0.73436 0.0
C1662 C 0.87185 0.40189 0.75402 0.0
C1663 C 0.88296 0.45467 0.74941 0.0
C1664 C 0.87351 0.434 0.74659 0.0
C1665 C 0.84324 0.3773 0.74932 0.0
C1666 C 0.85406 0.39603 0.74641 0.0
H1667 H 0.88871 0.49349 0.72658 0.0
H1668 H 0.87435 0.45899 0.72088 0.0
H1669 H 0.89506 0.4249 0.7605 0.0
H1670 H 0.83543 0.35151 0.78527 0.0
H1671 H 0.8534 0.38164 0.77949 0.0
C1672 C 0.06823 0.85947 0.09523 0.0
C1673 C 0.08485 0.86041 0.10482 0.0
C1674 C 0.06536 0.8745 0.08595 0.0
C1675 C 0.08349 0.92647 0.08547 0.0
H1676 H 0.05298 0.91576 0.03719 0.0
C1677 C 0.07388 0.98736 0.04419 0.0
C1678 C 0.0566 0.98659 0.03663 0.0
C1679 C 0.07794 0.97161 0.05134 0.0
C1680 C 0.06143 0.91901 0.05075 0.0
H1681 H 0.11158 0.87782 0.11184 0.0
H1682 H 0.10664 0.90389 0.0955 0.0
H1683 H 0.05892 0.889 0.05183 0.0
H1684 H 0.03013 0.96835 0.0303 0.0
H1685 H 0.03721 0.94103 0.04283 0.0
H1686 H 0.0859 0.95646 0.08446 0.0
C1687 C 0.09573 0.89166 0.09539 0.0
C1688 C 0.06483 0.90366 0.05916 0.0
C1689 C 0.09859 0.87663 0.10468 0.0
C1690 C 0.04359 0.9695 0.03598 0.0
C1691 C 0.04766 0.95375 0.0431 0.0
C1692 C 0.08011 0.94181 0.07704 0.0
C1693 C 0.07904 0.89086 0.08602 0.0
C1694 C 0.07583 0.90718 0.0767 0.0
C1695 C 0.06485 0.95468 0.05108 0.0
C1696 C 0.06896 0.93829 0.05963 0.0
H1697 H 0.05733 0.84722 0.09508 0.0
H1698 H 0.0523 0.87347 0.0791 0.0
H1699 H 0.09179 0.92977 0.09913 0.0
H1700 H 0.08427 1.00023 0.04488 0.0
H1701 H 0.09137 0.97273 0.05713 0.0
C1702 C 0.94988 0.25125 0.86176 0.0
C1703 C 0.961 0.26922 0.87044 0.0
C1704 C 0.9333 0.25023 0.85219 0.0
C1705 C 0.89909 0.2775 0.84927 0.0
H1706 H 0.88436 0.24641 0.79841 0.0
C1707 C 0.84131 0.28683 0.79887 0.0
C1708 C 0.83094 0.27058 0.78619 0.0
C1709 C 0.85616 0.28541 0.81031 0.0
C1710 C 0.88808 0.2549 0.81274 0.0
H1711 H 0.96334 0.30018 0.87592 0.0
H1712 H 0.9345 0.29836 0.85936 0.0
H1713 H 0.91218 0.24606 0.81608 0.0
H1714 H 0.82749 0.23993 0.77608 0.0
H1715 H 0.85322 0.23728 0.79634 0.0
H1716 H 0.87505 0.28634 0.84605 0.0
C1717 C 0.93854 0.28506 0.86001 0.0
C1718 C 0.90408 0.25473 0.82284 0.0
C1719 C 0.95514 0.2861 0.86939 0.0
C1720 C 0.83536 0.25273 0.78562 0.0
C1721 C 0.85017 0.25126 0.79714 0.0
C1722 C 0.88304 0.27756 0.83926 0.0
C1723 C 0.92743 0.26713 0.85129 0.0
C1724 C 0.90989 0.26625 0.8411 0.0
C1725 C 0.86093 0.26766 0.80944 0.0
C1726 C 0.87742 0.26649 0.82072 0.0
H1727 H 0.95399 0.23797 0.86232 0.0
H1728 H 0.92499 0.23619 0.84569 0.0
H1729 H 0.90308 0.28629 0.86345 0.0
H1730 H 0.83822 0.30079 0.79961 0.0
H1731 H 0.8642 0.29841 0.81938 0.0
C1732 C 0.55098 0.24986 0.56927 0.0
C1733 C 0.56349 0.25893 0.58527 0.0
C1734 C 0.5481 0.22998 0.56242 0.0
C1735 C 0.55461 0.18524 0.57861 0.0
H1736 H 0.54523 0.16311 0.52429 0.0
C1737 C 0.557 0.10702 0.55058 0.0
C1738 C 0.54349 0.09573 0.53646 0.0
C1739 C 0.55862 0.12684 0.5559 0.0
C1740 C 0.54765 0.16908 0.53951 0.0
H1741 H 0.58332 0.25438 0.60608 0.0
H1742 H 0.57862 0.22004 0.59392 0.0
H1743 H 0.55004 0.19807 0.53444 0.0
H1744 H 0.52121 0.09654 0.51666 0.0
H1745 H 0.52415 0.13134 0.52596 0.0
H1746 H 0.55252 0.15636 0.58369 0.0
C1747 C 0.57065 0.22807 0.58695 0.0
C1748 C 0.55039 0.1891 0.54534 0.0
C1749 C 0.57344 0.24784 0.59385 0.0
C1750 C 0.53173 0.1048 0.52764 0.0
C1751 C 0.53346 0.12474 0.53287 0.0
C1752 C 0.55199 0.16532 0.57279 0.0
C1753 C 0.55772 0.21878 0.57139 0.0
C1754 C 0.55412 0.19745 0.56498 0.0
C1755 C 0.54687 0.13594 0.54716 0.0
C1756 C 0.54867 0.15702 0.55318 0.0
H1757 H 0.54306 0.25799 0.56237 0.0
H1758 H 0.53796 0.2233 0.55048 0.0
H1759 H 0.55698 0.19105 0.59387 0.0
H1760 H 0.56633 0.10056 0.55767 0.0
H1761 H 0.56923 0.13511 0.56678 0.0
C1762 C 0.57428 0.78779 0.38504 0.0
C1763 C 0.55741 0.7778 0.3761 0.0
C1764 C 0.58868 0.78931 0.37473 0.0
C1765 C 0.60348 0.76721 0.33026 0.0
H1766 H 0.64084 0.81414 0.34158 0.0
C1767 C 0.6616 0.7799 0.28569 0.0
C1768 C 0.67841 0.78627 0.2963 0.0
C1769 C 0.64658 0.77988 0.29479 0.0
C1770 C 0.63055 0.80091 0.33834 0.0
H1771 H 0.54241 0.76167 0.34922 0.0
H1772 H 0.56748 0.7647 0.33104 0.0
H1773 H 0.61496 0.81201 0.35834 0.0
H1774 H 0.69246 0.79807 0.32486 0.0
H1775 H 0.66625 0.79844 0.3406 0.0
H1776 H 0.61908 0.75625 0.31009 0.0
C1777 C 0.56966 0.77105 0.34617 0.0
C1778 C 0.61573 0.79964 0.34798 0.0
C1779 C 0.55525 0.76938 0.35656 0.0
C1780 C 0.67979 0.7933 0.31615 0.0
C1781 C 0.66475 0.79345 0.32521 0.0
C1782 C 0.61824 0.76857 0.32048 0.0
C1783 C 0.58659 0.78104 0.35512 0.0
C1784 C 0.60205 0.78269 0.34422 0.0
C1785 C 0.64798 0.78644 0.31468 0.0
C1786 C 0.632 0.78537 0.32453 0.0
H1787 H 0.57644 0.79433 0.40012 0.0
H1788 H 0.60151 0.79676 0.38226 0.0
H1789 H 0.5934 0.75382 0.32717 0.0
H1790 H 0.66001 0.77476 0.27033 0.0
H1791 H 0.63384 0.7747 0.28624 0.0
C1792 C 0.07648 0.2494 0.37812 0.0
C1793 C 0.06172 0.25675 0.37444 0.0
C1794 C 0.07596 0.2352 0.3896 0.0
C1795 C 0.04576 0.19817 0.4094 0.0
H1796 H 0.0846 0.2063 0.44967 0.0
C1797 C 0.04115 0.15671 0.47273 0.0
C1798 C 0.05593 0.15053 0.47923 0.0
C1799 C 0.04219 0.16889 0.45912 0.0
C1800 C 0.07376 0.20365 0.43834 0.0
H1801 H 0.03465 0.25454 0.37941 0.0
H1802 H 0.03376 0.22981 0.39945 0.0
H1803 H 0.08574 0.22844 0.42677 0.0
H1804 H 0.08333 0.15212 0.47643 0.0
H1805 H 0.08513 0.17337 0.45258 0.0
H1806 H 0.03373 0.17345 0.42101 0.0
C1807 C 0.04572 0.23495 0.39339 0.0
C1808 C 0.07442 0.21633 0.42521 0.0
C1809 C 0.04626 0.2492 0.38199 0.0
C1810 C 0.07178 0.15685 0.47188 0.0
C1811 C 0.07281 0.16901 0.45822 0.0
C1812 C 0.04512 0.18545 0.42248 0.0
C1813 C 0.06063 0.22799 0.39754 0.0
C1814 C 0.06035 0.21384 0.41073 0.0
C1815 C 0.058 0.17514 0.45165 0.0
C1816 C 0.05904 0.18816 0.43723 0.0
H1817 H 0.08858 0.25488 0.37247 0.0
H1818 H 0.08759 0.22994 0.39236 0.0
H1819 H 0.03483 0.19573 0.39822 0.0
H1820 H 0.02882 0.15232 0.47834 0.0
H1821 H 0.03063 0.17364 0.45467 0.0
C1822 C 0.53849 0.21517 0.19357 0.0
C1823 C 0.53467 0.2303 0.18494 0.0
C1824 C 0.55451 0.21778 0.20493 0.0
C1825 C 0.59219 0.2551 0.2323 0.0
H1826 H 0.61766 0.21537 0.22183 0.0
C1827 C 0.66641 0.26782 0.25582 0.0
C1828 C 0.67278 0.25231 0.26089 0.0
C1829 C 0.64872 0.26517 0.24902 0.0
C1830 C 0.61062 0.22646 0.22523 0.0
H1831 H 0.5445 0.26018 0.18184 0.0
H1832 H 0.57246 0.26467 0.2016 0.0
H1833 H 0.58821 0.21054 0.20547 0.0
H1834 H 0.66532 0.22198 0.26334 0.0
H1835 H 0.63444 0.21758 0.25218 0.0
H1836 H 0.6147 0.27111 0.25195 0.0
C1837 C 0.56302 0.25084 0.19968 0.0
C1838 C 0.59374 0.22369 0.21581 0.0
C1839 C 0.54705 0.24821 0.18824 0.0
C1840 C 0.66088 0.23431 0.25975 0.0
C1841 C 0.64319 0.2317 0.25308 0.0
C1842 C 0.60907 0.25784 0.24182 0.0
C1843 C 0.56699 0.2356 0.20799 0.0
C1844 C 0.58442 0.23807 0.21906 0.0
C1845 C 0.63697 0.24698 0.24723 0.0
C1846 C 0.61857 0.24364 0.23823 0.0
H1847 H 0.5292 0.20122 0.19136 0.0
H1848 H 0.55716 0.20582 0.2113 0.0
H1849 H 0.58521 0.26634 0.23527 0.0
H1850 H 0.67516 0.28195 0.25678 0.0
H1851 H 0.64441 0.27723 0.24452 0.0
C1852 C 0.59389 0.9084 0.91816 0.0
C1853 C 0.59756 0.89066 0.92051 0.0
C1854 C 0.59411 0.9224 0.93417 0.0
C1855 C 0.58759 0.92666 0.98498 0.0
H1856 H 0.60263 0.98144 0.98406 0.0
C1857 C 0.55741 0.98296 0.02656 0.0
C1858 C 0.56657 1.00244 0.03029 0.0
C1859 C 0.56513 0.96881 0.01778 0.0
C1860 C 0.59872 0.96625 0.98495 0.0
H1861 H 0.60501 0.87401 0.94152 0.0
H1862 H 0.60533 0.89848 0.96945 0.0
H1863 H 0.60921 0.95834 0.95892 0.0
H1864 H 0.59169 0.02223 0.03013 0.0
H1865 H 0.60535 0.99761 0.01539 0.0
H1866 H 0.57676 0.9345 0.01078 0.0
C1867 C 0.60214 0.90147 0.95522 0.0
C1868 C 0.60228 0.95297 0.97028 0.0
C1869 C 0.60204 0.8875 0.9392 0.0
C1870 C 0.58419 1.00732 0.02705 0.0
C1871 C 0.59197 0.9932 0.01842 0.0
C1872 C 0.58396 0.93994 0.99964 0.0
C1873 C 0.59791 0.91895 0.95289 0.0
C1874 C 0.5963 0.93303 0.96982 0.0
C1875 C 0.58224 0.97392 0.01271 0.0
C1876 C 0.58892 0.95991 0.99944 0.0
H1877 H 0.59044 0.91133 0.90397 0.0
H1878 H 0.59068 0.93566 0.9319 0.0
H1879 H 0.5828 0.91137 0.98505 0.0
H1880 H 0.54396 0.97881 0.02948 0.0
H1881 H 0.55714 0.95417 0.01366 0.0
C1882 C 0.94375 0.71696 0.68831 0.0
C1883 C 0.95454 0.73335 0.68325 0.0
C1884 C 0.92754 0.71778 0.69453 0.0
C1885 C 0.89419 0.74639 0.69356 0.0
H1886 H 0.88248 0.72839 0.74075 0.0
C1887 C 0.84838 0.77742 0.73972 0.0
C1888 C 0.83513 0.76468 0.74667 0.0
C1889 C 0.86142 0.77069 0.73086 0.0
C1890 C 0.88544 0.73318 0.72739 0.0
H1891 H 0.95671 0.76337 0.6806 0.0
H1892 H 0.92867 0.76479 0.69145 0.0
H1893 H 0.90815 0.72156 0.72664 0.0
H1894 H 0.82549 0.73489 0.7502 0.0
H1895 H 0.84863 0.72317 0.73479 0.0
H1896 H 0.87194 0.75861 0.69464 0.0
C1897 C 0.93257 0.75124 0.69044 0.0
C1898 C 0.90009 0.72926 0.7193 0.0
C1899 C 0.94873 0.75046 0.68435 0.0
C1900 C 0.83548 0.74507 0.74494 0.0
C1901 C 0.84871 0.73835 0.73618 0.0
C1902 C 0.87965 0.75034 0.70165 0.0
C1903 C 0.92179 0.73495 0.69561 0.0
C1904 C 0.9049 0.73637 0.70263 0.0
C1905 C 0.86163 0.75109 0.7288 0.0
C1906 C 0.87546 0.74431 0.71894 0.0
H1907 H 0.94788 0.70356 0.68763 0.0
H1908 H 0.91946 0.70499 0.69838 0.0
H1909 H 0.89734 0.75166 0.68047 0.0
H1910 H 0.84857 0.79261 0.74078 0.0
H1911 H 0.87141 0.78089 0.72561 0.0
C1912 C 0.14171 0.02923 0.84594 0.0
C1913 C 0.13416 0.01368 0.83066 0.0
C1914 C 0.13391 0.03176 0.86329 0.0
C1915 C 0.09065 0.01606 0.88339 0.0
H1916 H 0.11771 0.03527 0.93361 0.0
C1917 C 0.05594 0.01037 0.95221 0.0
C1918 C 0.06133 0.02441 0.96913 0.0
C1919 C 0.06576 0.01016 0.93651 0.0
C1920 C 0.10982 0.03004 0.91975 0.0
H1921 H 0.11217 0.98862 0.8225 0.0
H1922 H 0.09897 0.9929 0.85193 0.0
H1923 H 0.13268 0.03318 0.90467 0.0
H1924 H 0.08195 0.04946 0.98226 0.0
H1925 H 0.09933 0.0491 0.9549 0.0
H1926 H 0.06786 0.01308 0.89808 0.0
C1927 C 0.11078 1.00345 0.85069 0.0
C1928 C 0.1185 0.02883 0.90295 0.0
C1929 C 0.11856 1.00089 0.83357 0.0
C1930 C 0.07737 0.03818 0.96976 0.0
C1931 C 0.08733 0.03798 0.95386 0.0
C1932 C 0.08204 0.01731 0.90004 0.0
C1933 C 0.11814 0.01896 0.86602 0.0
C1934 C 0.10912 0.0215 0.88433 0.0
C1935 C 0.08156 0.02411 0.93665 0.0
C1936 C 0.09133 0.024 0.91874 0.0
H1937 H 0.1537 0.03946 0.84456 0.0
H1938 H 0.14016 0.04398 0.87446 0.0
H1939 H 0.08263 0.01089 0.86959 0.0
H1940 H 0.04381 0.99938 0.95093 0.0
H1941 H 0.0608 0.99879 0.92415 0.0
C1942 C 0.78593 0.38341 0.52439 0.0
C1943 C 0.79229 0.40354 0.52967 0.0
C1944 C 0.78461 0.37163 0.5384 0.0
C1945 C 0.7838 0.37292 0.5907 0.0
H1946 H 0.80023 0.32597 0.5811 0.0
C1947 C 0.79864 0.332 0.6511 0.0
C1948 C 0.79223 0.31179 0.64735 0.0
C1949 C 0.79816 0.34265 0.63629 0.0
C1950 C 0.79543 0.33894 0.58389 0.0
H1951 H 0.80187 0.42717 0.55382 0.0
H1952 H 0.79977 0.40667 0.57814 0.0
H1953 H 0.79945 0.34556 0.55597 0.0
H1954 H 0.78052 0.2869 0.62507 0.0
H1955 H 0.77988 0.30556 0.59912 0.0
H1956 H 0.78006 0.36646 0.61873 0.0
C1957 C 0.79558 0.39996 0.56323 0.0
C1958 C 0.79493 0.35012 0.5695 0.0
C1959 C 0.79687 0.41171 0.54926 0.0
C1960 C 0.78573 0.30243 0.62838 0.0
C1961 C 0.78533 0.3131 0.61354 0.0
C1962 C 0.78437 0.36179 0.60509 0.0
C1963 C 0.78962 0.37978 0.55795 0.0
C1964 C 0.78923 0.36732 0.57281 0.0
C1965 C 0.79135 0.33333 0.61741 0.0
C1966 C 0.79033 0.34478 0.60189 0.0
H1967 H 0.78225 0.37668 0.50941 0.0
H1968 H 0.77974 0.35615 0.53391 0.0
H1969 H 0.77906 0.38591 0.59358 0.0
H1970 H 0.80406 0.33959 0.66549 0.0
H1971 H 0.80321 0.3582 0.63962 0.0
C1972 C 0.49071 0.05608 0.33046 0.0
C1973 C 0.4754 0.06288 0.32903 0.0
C1974 C 0.49942 0.05601 0.34842 0.0
C1975 C 0.4916 0.05487 0.39844 0.0
H1976 H 0.54236 0.06628 0.40791 0.0
C1977 C 0.54927 0.0614 0.4648 0.0
C1978 C 0.54194 0.04456 0.47176 0.0
C1979 C 0.54162 0.06515 0.44769 0.0
C1980 C 0.52819 0.06325 0.40555 0.0
H1981 H 0.45745 0.07542 0.34532 0.0
H1982 H 0.47277 0.07543 0.37675 0.0
H1983 H 0.52821 0.07121 0.37768 0.0
H1984 H 0.52135 0.01811 0.46617 0.0
H1985 H 0.50809 0.02451 0.43626 0.0
H1986 H 0.49155 0.04698 0.42631 0.0
C1987 C 0.4779 0.06992 0.36394 0.0
C1988 C 0.52008 0.06589 0.38819 0.0
C1989 C 0.46916 0.06998 0.34595 0.0
C1990 C 0.52714 0.0313 0.46118 0.0
C1991 C 0.51949 0.03504 0.44414 0.0
C1992 C 0.4997 0.05223 0.41578 0.0
C1993 C 0.49303 0.06277 0.36535 0.0
C1994 C 0.5017 0.06147 0.38435 0.0
C1995 C 0.52653 0.05209 0.43731 0.0
C1996 C 0.51806 0.0561 0.4194 0.0
H1997 H 0.49586 0.05051 0.3177 0.0
H1998 H 0.51091 0.05016 0.34902 0.0
H1999 H 0.47742 0.05119 0.39586 0.0
H2000 H 0.56068 0.07186 0.47276 0.0
H2001 H 0.54727 0.07845 0.44282 0.0
C2002 C 0.78184 0.70889 0.05823 0.0
C2003 C 0.7977 0.70596 0.0522 0.0
C2004 C 0.78135 0.71777 0.07704 0.0
C2005 C 0.80914 0.74841 0.12033 0.0
H2006 H 0.77151 0.72472 0.14715 0.0
C2007 C 0.81086 0.76701 0.20263 0.0
C2008 C 0.79511 0.76821 0.21007 0.0
C2009 C 0.81089 0.76046 0.18306 0.0
C2010 C 0.78197 0.7317 0.13981 0.0
H2011 H 0.82554 0.71055 0.06113 0.0
H2012 H 0.82465 0.72598 0.09398 0.0
H2013 H 0.77214 0.71176 0.1135 0.0
H2014 H 0.76704 0.76363 0.20257 0.0
H2015 H 0.76714 0.7524 0.16839 0.0
H2016 H 0.81902 0.76829 0.14667 0.0
C2017 C 0.81262 0.72151 0.0841 0.0
C2018 C 0.78233 0.72426 0.12051 0.0
C2019 C 0.81311 0.71258 0.06529 0.0
C2020 C 0.77941 0.76282 0.19739 0.0
C2021 C 0.77945 0.75629 0.17779 0.0
C2022 C 0.80876 0.75589 0.13963 0.0
C2023 C 0.79669 0.72399 0.09026 0.0
C2024 C 0.79599 0.73244 0.11057 0.0
C2025 C 0.79518 0.75497 0.1704 0.0
C2026 C 0.79523 0.74753 0.14965 0.0
H2027 H 0.76972 0.70404 0.0485 0.0
H2028 H 0.76891 0.71972 0.08126 0.0
H2029 H 0.8197 0.75521 0.11301 0.0
H2030 H 0.82322 0.77096 0.21193 0.0
H2031 H 0.82321 0.75936 0.17793 0.0
C2032 C 0.1133 0.01902 0.72551 0.0
C2033 C 0.13116 0.01908 0.7296 0.0
C2034 C 0.1059 0.02007 0.70694 0.0
C2035 C 0.11709 0.03525 0.66008 0.0
H2036 H 0.06937 1.00666 0.64106 0.0
C2037 C 0.07809 0.04935 0.5908 0.0
C2038 C 0.06657 0.0335 0.57834 0.0
C2039 C 0.08631 0.04726 0.60868 0.0
C2040 C 0.08275 0.01474 0.64596 0.0
H2041 H 0.15512 0.02043 0.71657 0.0
H2042 H 0.14231 0.02244 0.68426 0.0
H2043 H 0.0829 1.00326 0.67224 0.0
H2044 H 0.05491 1.00282 0.57564 0.0
H2045 H 0.06894 0.99925 0.60657 0.0
H2046 H 0.11686 0.0468 0.63378 0.0
C2047 C 0.13394 0.02153 0.69557 0.0
C2048 C 0.09054 0.01291 0.66412 0.0
C2049 C 0.14133 0.02019 0.71418 0.0
C2050 C 0.0636 0.01548 0.5846 0.0
C2051 C 0.07165 0.01344 0.60258 0.0
C2052 C 0.1092 0.03728 0.642 0.0
C2053 C 0.11604 0.0215 0.69154 0.0
C2054 C 0.10789 0.02313 0.67165 0.0
C2055 C 0.08323 0.02927 0.61504 0.0
C2056 C 0.09183 0.02706 0.63451 0.0
H2057 H 0.1049 0.01827 0.73679 0.0
H2058 H 0.09219 0.02022 0.70482 0.0
H2059 H 0.13037 0.04355 0.66517 0.0
H2060 H 0.08086 0.0635 0.58673 0.0
H2061 H 0.0949 0.05994 0.61769 0.0
C2062 C 0.8192 0.40679 0.44798 0.0
C2063 C 0.82468 0.42676 0.44808 0.0
C2064 C 0.82103 0.39347 0.43232 0.0
C2065 C 0.82244 0.38822 0.38083 0.0
H2066 H 0.83669 0.34112 0.3867 0.0
C2067 C 0.81768 0.32989 0.31514 0.0
C2068 C 0.81004 0.31092 0.31734 0.0
C2069 C 0.82381 0.34445 0.33119 0.0
C2070 C 0.83261 0.35415 0.38482 0.0
H2071 H 0.8367 0.44843 0.43199 0.0
H2072 H 0.83966 0.42502 0.40439 0.0
H2073 H 0.83908 0.36619 0.41484 0.0
H2074 H 0.80367 0.29198 0.338 0.0
H2075 H 0.8138 0.31752 0.36613 0.0
H2076 H 0.81513 0.376 0.35111 0.0
C2077 C 0.83397 0.41976 0.41651 0.0
C2078 C 0.83404 0.36851 0.40092 0.0
C2079 C 0.8323 0.43313 0.4323 0.0
C2080 C 0.80953 0.3065 0.33591 0.0
C2081 C 0.81543 0.32115 0.35202 0.0
C2082 C 0.82087 0.37382 0.36479 0.0
C2083 C 0.82825 0.3998 0.41634 0.0
C2084 C 0.82868 0.38554 0.39911 0.0
C2085 C 0.82213 0.34043 0.34982 0.0
C2086 C 0.82567 0.35646 0.36661 0.0
H2087 H 0.81335 0.4014 0.45996 0.0
H2088 H 0.81629 0.37818 0.43248 0.0
H2089 H 0.81798 0.40106 0.37904 0.0
H2090 H 0.81827 0.3337 0.30097 0.0
H2091 H 0.82928 0.35901 0.32895 0.0
C2092 C 0.48317 0.12222 0.25484 0.0
C2093 C 0.47961 0.10289 0.25759 0.0
C2094 C 0.49615 0.12899 0.2436 0.0
C2095 C 0.53418 0.11776 0.22138 0.0
H2096 H 0.51514 0.13576 0.17728 0.0
C2097 C 0.55209 0.09843 0.14647 0.0
C2098 C 0.54991 0.1098 0.13245 0.0
C2099 C 0.54891 0.10404 0.16525 0.0
C2100 C 0.52101 0.13135 0.1897 0.0
H2101 H 0.48745 0.07584 0.25176 0.0
H2102 H 0.51007 0.08765 0.23231 0.0
H2103 H 0.49923 0.13394 0.20498 0.0
H2104 H 0.54415 0.13684 0.12756 0.0
H2105 H 0.53911 0.14695 0.16057 0.0
H2106 H 0.55562 0.11443 0.2058 0.0
C2107 C 0.50289 0.09758 0.23878 0.0
C2108 C 0.51182 0.13026 0.20559 0.0
C2109 C 0.48979 0.09075 0.24972 0.0
C2110 C 0.54591 0.12772 0.13801 0.0
C2111 C 0.54286 0.13343 0.15689 0.0
C2112 C 0.54348 0.11905 0.20557 0.0
C2113 C 0.50597 0.11664 0.23529 0.0
C2114 C 0.51788 0.12254 0.22114 0.0
C2115 C 0.54362 0.12127 0.17053 0.0
C2116 C 0.53652 0.12487 0.18912 0.0
H2117 H 0.47556 0.13191 0.26081 0.0
H2118 H 0.49828 0.14373 0.24108 0.0
H2119 H 0.53925 0.11204 0.23336 0.0
H2120 H 0.55555 0.08475 0.14273 0.0
H2121 H 0.54951 0.09419 0.17525 0.0
C2122 C 0.76281 0.6965 0.93018 0.0
C2123 C 0.77627 0.69693 0.9447 0.0
C2124 C 0.76647 0.70571 0.91452 0.0
C2125 C 0.79937 0.74323 0.89829 0.0
H2126 H 0.77588 0.7176 0.84761 0.0
C2127 C 0.81551 0.77368 0.8291 0.0
C2128 C 0.801 0.77343 0.81603 0.0
C2129 C 0.81332 0.7638 0.8446 0.0
C2130 C 0.78245 0.725 0.86168 0.0
H2131 H 0.80416 0.70755 0.95422 0.0
H2132 H 0.81056 0.72349 0.92678 0.0
H2133 H 0.7704 0.70172 0.87522 0.0
H2134 H 0.77284 0.76282 0.80893 0.0
H2135 H 0.76901 0.74556 0.83582 0.0
H2136 H 0.81136 0.76656 0.88469 0.0
C2137 C 0.79713 0.7162 0.92762 0.0
C2138 C 0.77929 0.71592 0.87752 0.0
C2139 C 0.79346 0.70699 0.94331 0.0
C2140 C 0.78431 0.76304 0.81863 0.0
C2141 C 0.78212 0.75312 0.83403 0.0
C2142 C 0.80256 0.7523 0.88242 0.0
C2143 C 0.78369 0.71556 0.91297 0.0
C2144 C 0.78756 0.725 0.89605 0.0
C2145 C 0.79657 0.75345 0.84726 0.0
C2146 C 0.794 0.74337 0.86396 0.0
H2147 H 0.7494 0.68896 0.93084 0.0
H2148 H 0.75575 0.70522 0.90367 0.0
H2149 H 0.80582 0.75072 0.91238 0.0
H2150 H 0.82853 0.78161 0.82743 0.0
H2151 H 0.82473 0.76419 0.85446 0.0
C2152 C 0.81178 0.08325 0.03444 0.0
C2153 C 0.81478 0.10347 0.03924 0.0
C2154 C 0.82586 0.07444 0.03436 0.0
C2155 C 0.87207 0.08493 0.02755 0.0
H2156 H 0.87351 0.0392 0.04958 0.0
C2157 C 0.93384 0.05589 0.03019 0.0
C2158 C 0.93176 0.03575 0.02606 0.0
C2159 C 0.91947 0.0637 0.03315 0.0
C2160 C 0.87321 0.05184 0.04316 0.0
H2161 H 0.83486 0.13022 0.04839 0.0
H2162 H 0.85932 0.11485 0.04814 0.0
H2163 H 0.84832 0.05349 0.05237 0.0
H2164 H 0.91288 1.00804 0.0224 0.0
H2165 H 0.88765 0.02173 0.02682 0.0
H2166 H 0.8966 0.08318 0.01789 0.0
C2167 C 0.84611 0.10585 0.04431 0.0
C2168 C 0.85882 0.06003 0.04482 0.0
C2169 C 0.83208 0.11462 0.04453 0.0
C2170 C 0.91494 0.02362 0.02529 0.0
C2171 C 0.9005 0.03147 0.02808 0.0
C2172 C 0.88633 0.07668 0.02574 0.0
C2173 C 0.84317 0.08572 0.03892 0.0
C2174 C 0.85821 0.07675 0.03715 0.0
C2175 C 0.90257 0.05162 0.03181 0.0
C2176 C 0.88717 0.06013 0.03365 0.0
H2177 H 0.7986 0.07426 0.03034 0.0
H2178 H 0.82324 0.05889 0.03008 0.0
H2179 H 0.87177 0.0976 0.02116 0.0
H2180 H 0.94652 0.06572 0.03065 0.0
H2181 H 0.92162 0.07928 0.03634 0.0
C2182 C 0.3671 0.45559 0.04492 0.0
C2183 C 0.36541 0.43627 0.04721 0.0
C2184 C 0.38352 0.46739 0.04365 0.0
C2185 C 0.43139 0.47083 0.05331 0.0
H2186 H 0.43482 0.50678 0.01751 0.0
C2187 C 0.49751 0.5096 0.0319 0.0
C2188 C 0.49997 0.52941 0.03155 0.0
C2189 C 0.48108 0.49846 0.03411 0.0
C2190 C 0.43404 0.49692 0.02768 0.0
H2191 H 0.37967 0.41418 0.04994 0.0
H2192 H 0.40814 0.43452 0.04727 0.0
H2193 H 0.40619 0.48704 0.021 0.0
H2194 H 0.4874 0.55326 0.0334 0.0
H2195 H 0.45857 0.53378 0.03708 0.0
H2196 H 0.45933 0.4805 0.05966 0.0
C2197 C 0.39689 0.44077 0.04689 0.0
C2198 C 0.41763 0.48564 0.02975 0.0
C2199 C 0.38051 0.42904 0.04831 0.0
C2200 C 0.48578 0.53796 0.03351 0.0
C2201 C 0.46929 0.5268 0.03552 0.0
C2202 C 0.44782 0.48198 0.0511 0.0
C2203 C 0.39863 0.46009 0.04449 0.0
C2204 C 0.41608 0.47242 0.04258 0.0
C2205 C 0.46677 0.50694 0.03589 0.0
C2206 C 0.44932 0.49513 0.03826 0.0
H2207 H 0.35573 0.46162 0.04411 0.0
H2208 H 0.38438 0.48227 0.04213 0.0
H2209 H 0.43071 0.46109 0.06358 0.0
H2210 H 0.50835 0.50281 0.03087 0.0
H2211 H 0.47953 0.48317 0.03428 0.0
C2212 C 0.40707 0.63915 0.76667 0.0
C2213 C 0.39876 0.61919 0.76396 0.0
C2214 C 0.39754 0.65363 0.76775 0.0
C2215 C 0.35175 0.66253 0.75837 0.0
H2216 H 0.37432 0.71306 0.78823 0.0
C2217 C 0.31369 0.72473 0.77103 0.0
C2218 C 0.32285 0.74439 0.77345 0.0
C2219 C 0.32249 0.70951 0.7699 0.0
C2220 C 0.36771 0.69921 0.77954 0.0
H2221 H 0.37311 0.59948 0.76019 0.0
H2222 H 0.35646 0.62461 0.76223 0.0
H2223 H 0.38953 0.68722 0.78647 0.0
H2224 H 0.34908 0.76275 0.77639 0.0
H2225 H 0.3643 0.73664 0.77437 0.0
H2226 H 0.32984 0.67462 0.75159 0.0
C2227 C 0.3706 0.62911 0.76336 0.0
C2228 C 0.3766 0.68409 0.77849 0.0
C2229 C 0.38023 0.61449 0.76225 0.0
C2230 C 0.34132 0.74803 0.77467 0.0
C2231 C 0.35015 0.73281 0.77359 0.0
C2232 C 0.34282 0.67769 0.75946 0.0
C2233 C 0.37903 0.64915 0.76627 0.0
C2234 C 0.36896 0.66532 0.76777 0.0
C2235 C 0.34099 0.71308 0.77115 0.0
C2236 C 0.35058 0.69652 0.77001 0.0
H2237 H 0.42122 0.64378 0.76795 0.0
H2238 H 0.40491 0.66851 0.7695 0.0
H2239 H 0.34517 0.64866 0.74973 0.0
H2240 H 0.29952 0.72097 0.77001 0.0
H2241 H 0.31464 0.69485 0.7683 0.0
C2242 C 0.21968 0.64146 0.49633 0.0
C2243 C 0.23464 0.63401 0.49628 0.0
C2244 C 0.20302 0.62912 0.49099 0.0
C2245 C 0.1815 0.57898 0.49182 0.0
H2246 H 0.14032 0.59471 0.47277 0.0
C2247 C 0.11562 0.55375 0.51759 0.0
C2248 C 0.10024 0.54868 0.50448 0.0
C2249 C 0.13166 0.56182 0.51188 0.0
C2250 C 0.1517 0.58993 0.47778 0.0
H2251 H 0.24407 0.60815 0.48893 0.0
H2252 H 0.21499 0.58664 0.47922 0.0
H2253 H 0.16946 0.6133 0.46906 0.0
H2254 H 0.08959 0.54826 0.47507 0.0
H2255 H 0.11785 0.5626 0.46513 0.0
H2256 H 0.16383 0.55591 0.50091 0.0
C2257 C 0.21608 0.60192 0.48391 0.0
C2258 C 0.16837 0.60066 0.47582 0.0
C2259 C 0.23273 0.61423 0.48946 0.0
C2260 C 0.10124 0.552 0.48551 0.0
C2261 C 0.11736 0.56021 0.47981 0.0
C2262 C 0.1649 0.56827 0.4937 0.0
C2263 C 0.20102 0.60912 0.48531 0.0
C2264 C 0.18346 0.59572 0.48352 0.0
C2265 C 0.13273 0.56504 0.49294 0.0
C2266 C 0.14989 0.57411 0.48744 0.0
H2267 H 0.22075 0.65667 0.50143 0.0
H2268 H 0.19172 0.63515 0.49245 0.0
H2269 H 0.19279 0.5748 0.49805 0.0
H2270 H 0.11534 0.55146 0.53232 0.0
H2271 H 0.14323 0.5658 0.52243 0.0
C2272 C 0.69742 0.99853 0.75074 0.0
C2273 C 0.67959 0.98909 0.74567 0.0
C2274 C 0.71016 0.98789 0.75087 0.0
C2275 C 0.71482 0.93979 0.75672 0.0
H2276 H 0.75925 0.95428 0.7368 0.0
C2277 C 0.7612 0.88939 0.75125 0.0
C2278 C 0.77919 0.89756 0.75685 0.0
C2279 C 0.74965 0.90113 0.74905 0.0
C2280 C 0.74698 0.9502 0.74261 0.0
H2281 H 0.66122 0.9612 0.73598 0.0
H2282 H 0.68346 0.94268 0.73618 0.0
H2283 H 0.73784 0.97386 0.734 0.0
H2284 H 0.79923 0.92447 0.76423 0.0
H2285 H 0.77887 0.94513 0.76078 0.0
H2286 H 0.72386 0.91633 0.76555 0.0
C2287 C 0.68754 0.95827 0.74028 0.0
C2288 C 0.73474 0.96136 0.74097 0.0
C2289 C 0.67482 0.96889 0.74008 0.0
C2290 C 0.78541 0.91778 0.76001 0.0
C2291 C 0.7738 0.92958 0.75785 0.0
C2292 C 0.72703 0.92872 0.75843 0.0
C2293 C 0.70529 0.96763 0.74602 0.0
C2294 C 0.71847 0.95612 0.74784 0.0
C2295 C 0.75576 0.92135 0.75257 0.0
C2296 C 0.74316 0.93366 0.75122 0.0
H2297 H 0.7015 0.0141 0.75508 0.0
H2298 H 0.72375 0.99545 0.75544 0.0
H2299 H 0.70255 0.93567 0.76255 0.0
H2300 H 0.75592 0.87389 0.74901 0.0
H2301 H 0.73587 0.89434 0.7447 0.0
C2302 C 0.76003 0.94125 0.54546 0.0
C2303 C 0.75758 0.92301 0.53384 0.0
C2304 C 0.74635 0.95067 0.54614 0.0
C2305 C 0.70396 0.95108 0.51929 0.0
H2306 H 0.6963 0.97833 0.56807 0.0
C2307 C 0.64161 0.9791 0.52906 0.0
C2308 C 0.6439 0.99762 0.54009 0.0
C2309 C 0.65558 0.97016 0.52821 0.0
C2310 C 0.69837 0.97095 0.5543 0.0
H2311 H 0.7388 0.90032 0.5139 0.0
H2312 H 0.71497 0.91656 0.51531 0.0
H2313 H 0.72058 0.96262 0.56676 0.0
H2314 H 0.66286 0.02141 0.55854 0.0
H2315 H 0.68713 1.00575 0.55717 0.0
H2316 H 0.68164 0.95929 0.50687 0.0
C2317 C 0.72752 0.92378 0.52365 0.0
C2318 C 0.71232 0.96197 0.55354 0.0
C2319 C 0.74118 0.91441 0.52294 0.0
C2320 C 0.66052 1.00699 0.5502 0.0
C2321 C 0.67446 0.99803 0.5494 0.0
C2322 C 0.68999 0.96 0.52006 0.0
C2323 C 0.72991 0.94203 0.53525 0.0
C2324 C 0.71527 0.95189 0.53603 0.0
C2325 C 0.67216 0.97951 0.5384 0.0
C2326 C 0.68702 0.97002 0.53758 0.0
H2327 H 0.77252 0.94831 0.554 0.0
H2328 H 0.74872 0.96482 0.55505 0.0
H2329 H 0.70601 0.94373 0.5055 0.0
H2330 H 0.62893 0.97136 0.52131 0.0
H2331 H 0.65332 0.95578 0.5198 0.0
C2332 C 0.397 0.48251 0.74909 0.0
C2333 C 0.39127 0.49961 0.75392 0.0
C2334 C 0.38693 0.46433 0.7512 0.0
C2335 C 0.34782 0.43984 0.7738 0.0
H2336 H 0.35299 0.39419 0.74039 0.0
C2337 C 0.30112 0.36305 0.77015 0.0
C2338 C 0.30809 0.34657 0.7679 0.0
C2339 C 0.31134 0.38156 0.76916 0.0
C2340 C 0.35146 0.40669 0.75005 0.0
H2341 H 0.36995 0.51041 0.7649 0.0
H2342 H 0.35206 0.4787 0.76802 0.0
H2343 H 0.3695 0.426 0.73681 0.0
H2344 H 0.33168 0.33725 0.76282 0.0
H2345 H 0.34952 0.36934 0.7609 0.0
H2346 H 0.32932 0.42033 0.78662 0.0
C2347 C 0.36467 0.47937 0.76292 0.0
C2348 C 0.36108 0.42519 0.74804 0.0
C2349 C 0.37492 0.49772 0.761 0.0
C2350 C 0.32578 0.34938 0.76472 0.0
C2351 C 0.336 0.36792 0.76346 0.0
C2352 C 0.33803 0.42132 0.77564 0.0
C2353 C 0.37044 0.4622 0.75801 0.0
C2354 C 0.3596 0.44225 0.75994 0.0
C2355 C 0.32897 0.38441 0.76562 0.0
C2356 C 0.33969 0.40434 0.76386 0.0
H2357 H 0.40954 0.48312 0.74382 0.0
H2358 H 0.39238 0.45194 0.74769 0.0
H2359 H 0.34629 0.45225 0.78356 0.0
H2360 H 0.28756 0.36164 0.77255 0.0
H2361 H 0.30521 0.39361 0.77071 0.0
C2362 C 0.20749 0.59867 0.25 0.0
C2363 C 0.18918 0.59587 0.24709 0.0
C2364 C 0.21846 0.61693 0.25075 0.0
C2365 C 0.21988 0.66874 0.25982 0.0
H2366 H 0.25956 0.67301 0.23072 0.0
C2367 C 0.27106 0.73069 0.22975 0.0
C2368 C 0.27743 0.74462 0.24648 0.0
C2369 C 0.2607 0.71258 0.23079 0.0
C2370 C 0.24853 0.67203 0.23891 0.0
H2371 H 0.16801 0.61003 0.24277 0.0
H2372 H 0.18727 0.64203 0.24404 0.0
H2373 H 0.24031 0.64131 0.23039 0.0
H2374 H 0.27783 0.75045 0.27748 0.0
H2375 H 0.25954 0.71862 0.27926 0.0
H2376 H 0.22803 0.69957 0.26811 0.0
C2377 C 0.19307 0.63006 0.24586 0.0
C2378 C 0.23759 0.65389 0.23883 0.0
C2379 C 0.18206 0.61173 0.24499 0.0
C2380 C 0.27317 0.74002 0.26433 0.0
C2381 C 0.26263 0.72187 0.26535 0.0
C2382 C 0.23092 0.68691 0.26002 0.0
C2383 C 0.21137 0.63281 0.2487 0.0
C2384 C 0.2231 0.65207 0.24917 0.0
C2385 C 0.25636 0.70798 0.24858 0.0
C2386 C 0.24524 0.68872 0.2494 0.0
H2387 H 0.21339 0.58675 0.25172 0.0
H2388 H 0.23252 0.61868 0.25313 0.0
H2389 H 0.20888 0.6677 0.26806 0.0
H2390 H 0.27408 0.73371 0.21575 0.0
H2391 H 0.25586 0.70223 0.21761 0.0
C2392 C 0.5026 0.70655 0.42869 0.0
C2393 C 0.51828 0.72046 0.4286 0.0
C2394 C 0.50249 0.69105 0.43855 0.0
C2395 C 0.52816 0.67579 0.47717 0.0
H2396 H 0.50446 0.6236 0.45215 0.0
C2397 C 0.51425 0.59188 0.49312 0.0
C2398 C 0.53118 0.59227 0.50155 0.0
C2399 C 0.51096 0.60776 0.48549 0.0
C2400 C 0.51091 0.6381 0.45951 0.0
H2401 H 0.54609 0.729 0.43902 0.0
H2402 H 0.54586 0.7022 0.45609 0.0
H2403 H 0.50169 0.65086 0.43644 0.0
H2404 H 0.55782 0.60995 0.50881 0.0
H2405 H 0.55214 0.63733 0.49547 0.0
H2406 H 0.53755 0.66314 0.50012 0.0
C2407 C 0.53362 0.70327 0.44868 0.0
C2408 C 0.50933 0.65374 0.45047 0.0
C2409 C 0.53376 0.7186 0.43875 0.0
C2410 C 0.54461 0.60908 0.5025 0.0
C2411 C 0.54131 0.6249 0.49492 0.0
C2412 C 0.52969 0.66021 0.48621 0.0
C2413 C 0.51801 0.68926 0.4487 0.0
C2414 C 0.51823 0.67275 0.45903 0.0
C2415 C 0.52449 0.62443 0.48618 0.0
C2416 C 0.5214 0.64111 0.47734 0.0
H2417 H 0.49045 0.70754 0.42101 0.0
H2418 H 0.49023 0.68057 0.43836 0.0
H2419 H 0.53489 0.69027 0.48435 0.0
H2420 H 0.50357 0.57921 0.49214 0.0
H2421 H 0.4978 0.60697 0.47905 0.0
C2422 C 0.62743 0.28794 0.66312 0.0
C2423 C 0.62205 0.3048 0.66068 0.0
C2424 C 0.64362 0.28902 0.67342 0.0
C2425 C 0.68708 0.3223 0.69281 0.0
H2426 H 0.68958 0.28263 0.72354 0.0
C2427 C 0.74732 0.32331 0.74752 0.0
C2428 C 0.75213 0.30566 0.74707 0.0
C2429 C 0.7321 0.32426 0.73633 0.0
C2430 C 0.68914 0.29372 0.7149 0.0
H2431 H 0.62958 0.33612 0.66709 0.0
H2432 H 0.65778 0.33805 0.68566 0.0
H2433 H 0.66168 0.28266 0.7061 0.0
H2434 H 0.74518 0.27531 0.73406 0.0
H2435 H 0.71857 0.27691 0.71472 0.0
H2436 H 0.71464 0.33354 0.70218 0.0
C2437 C 0.64956 0.32394 0.67926 0.0
C2438 C 0.67313 0.29373 0.70482 0.0
C2439 C 0.63335 0.32285 0.66871 0.0
C2440 C 0.74175 0.2891 0.73479 0.0
C2441 C 0.72647 0.29 0.72379 0.0
C2442 C 0.70311 0.32241 0.70313 0.0
C2443 C 0.65486 0.307 0.68186 0.0
C2444 C 0.67189 0.30782 0.69338 0.0
C2445 C 0.72132 0.30751 0.72466 0.0
C2446 C 0.70434 0.30795 0.71407 0.0
H2447 H 0.61918 0.27378 0.65692 0.0
H2448 H 0.64736 0.27566 0.67462 0.0
H2449 H 0.68671 0.33328 0.68404 0.0
H2450 H 0.75514 0.33631 0.7568 0.0
H2451 H 0.72843 0.33793 0.73732 0.0
C2452 C 1.00011 0.31484 0.95872 0.0
C2453 C 0.00823 0.30934 0.94265 0.0
C2454 C 1.00415 0.33415 0.96803 0.0
C2455 C 0.00604 0.37708 0.97675 0.0
H2456 H 0.05231 0.41065 0.97879 0.0
C2457 C 0.01744 0.45978 0.99171 0.0
C2458 C 0.03324 0.47105 1.0023 0.0
C2459 C 0.01504 0.43988 0.98596 0.0
C2460 C 0.03936 0.40148 0.9786 0.0
H2461 H 0.02714 0.31979 0.92388 0.0
H2462 H 0.03374 0.35336 0.93962 0.0
H2463 H 0.04744 0.37614 0.96714 0.0
H2464 H 0.05888 0.47021 0.01536 0.0
H2465 H 0.05453 0.43533 1.00574 0.0
H2466 H 0.99807 0.40228 0.98872 0.0
C2467 C 0.02458 0.34279 0.94544 0.0
C2468 C 0.0365 0.38167 0.97164 0.0
C2469 C 0.02069 0.3235 0.93629 0.0
C2470 C 0.0466 0.46195 0.00707 0.0
C2471 C 0.04412 0.44194 1.00149 0.0
C2472 C 0.00895 0.39683 0.98389 0.0
C2473 C 0.01627 0.34844 0.96135 0.0
C2474 C 0.01972 0.36925 0.9703 0.0
C2475 C 0.02828 0.43064 0.99086 0.0
C2476 C 0.02557 0.40937 0.98458 0.0
H2477 H 0.99055 0.30426 0.96407 0.0
H2478 H 0.9977 0.33787 0.98043 0.0
H2479 H 0.9929 0.36807 0.97579 0.0
H2480 H 0.00694 0.46636 0.98764 0.0
H2481 H 1.00283 0.4318 0.97741 0.0
C2482 C 0.01137 0.78727 0.14574 0.0
C2483 C 0.02816 0.79848 0.15371 0.0
C2484 C 0.99733 0.78587 0.15656 0.0
C2485 C 0.98623 0.79383 0.20657 0.0
H2486 H 0.94063 0.79274 0.1805 0.0
C2487 C 0.92619 0.80143 0.24632 0.0
C2488 C 0.90981 0.78919 0.23818 0.0
C2489 C 0.94094 0.80201 0.23662 0.0
C2490 C 0.95324 0.79282 0.18795 0.0
H2491 H 0.04338 0.8169 0.17944 0.0
H2492 H 0.01872 0.81483 0.19828 0.0
H2493 H 0.96576 0.79536 0.16263 0.0
H2494 H 0.89639 0.76744 0.21363 0.0
H2495 H 0.92206 0.76871 0.19661 0.0
H2496 H 0.9736 0.79166 0.23201 0.0
C2497 C 0.01648 0.80683 0.18371 0.0
C2498 C 0.96768 0.79429 0.1777 0.0
C2499 C 0.03061 0.80812 0.17289 0.0
C2500 C 0.90868 0.77731 0.2202 0.0
C2501 C 0.9234 0.778 0.21045 0.0
C2502 C 0.97178 0.79251 0.21687 0.0
C2503 C 0.99961 0.79578 0.17563 0.0
C2504 C 0.98436 0.79468 0.18682 0.0
C2505 C 0.93967 0.79048 0.21846 0.0
C2506 C 0.9551 0.79188 0.20764 0.0
H2507 H 0.00903 0.77948 0.13107 0.0
H2508 H 0.98467 0.77686 0.14995 0.0
H2509 H 0.9988 0.79384 0.21403 0.0
H2510 H 0.92755 0.81104 0.25996 0.0
H2511 H 0.95324 0.81193 0.24308 0.0
C2512 C 0.50979 0.31236 0.14409 0.0
C2513 C 0.50067 0.29392 0.13418 0.0
C2514 C 0.51127 0.3285 0.13508 0.0
C2515 C 0.49153 0.34642 0.09454 0.0
H2516 H 0.53746 0.38136 0.09868 0.0
C2517 C 0.50787 0.40172 0.04404 0.0
C2518 C 0.51919 0.41988 0.05163 0.0
C2519 C 0.50485 0.38719 0.05517 0.0
C2520 C 0.52448 0.37195 0.09762 0.0
H2521 H 0.48564 0.27803 0.10717 0.0
H2522 H 0.48826 0.30619 0.09149 0.0
H2523 H 0.53343 0.35455 0.11635 0.0
H2524 H 0.53607 0.43703 0.07702 0.0
H2525 H 0.53044 0.41183 0.09662 0.0
H2526 H 0.48257 0.36376 0.07576 0.0
C2527 C 0.49418 0.30818 0.10625 0.0
C2528 C 0.52218 0.35656 0.10773 0.0
C2529 C 0.49278 0.29203 0.1152 0.0
C2530 C 0.52716 0.42327 0.07077 0.0
C2531 C 0.5241 0.40874 0.08193 0.0
C2532 C 0.4938 0.36187 0.0845 0.0
C2533 C 0.50357 0.32656 0.11602 0.0
C2534 C 0.50573 0.34351 0.10614 0.0
C2535 C 0.51301 0.39047 0.07422 0.0
C2536 C 0.51035 0.37469 0.08574 0.0
H2537 H 0.51598 0.31432 0.15873 0.0
H2538 H 0.51844 0.34252 0.14304 0.0
H2539 H 0.47864 0.33677 0.09326 0.0
H2540 H 0.50133 0.3987 0.02944 0.0
H2541 H 0.49639 0.37323 0.04869 0.0
C2542 C 0.03131 0.30026 0.29551 0.0
C2543 C 0.03542 0.28314 0.2994 0.0
C2544 C 0.01605 0.29955 0.28364 0.0
C2545 C 0.9719 0.26955 0.26997 0.0
H2546 H 0.96822 0.3066 0.23641 0.0
C2547 C 0.90468 0.27924 0.24223 0.0
C2548 C 0.90347 0.29858 0.24481 0.0
C2549 C 0.92103 0.27482 0.24325 0.0
C2550 C 0.96903 0.29615 0.24571 0.0
H2551 H 0.02718 0.25182 0.29318 0.0
H2552 H 1.00032 0.25061 0.27251 0.0
H2553 H 0.9971 0.30326 0.24859 0.0
H2554 H 0.91838 0.32842 0.24958 0.0
H2555 H 0.94689 0.32079 0.25164 0.0
H2556 H 0.94399 0.26312 0.26801 0.0
C2557 C 0.00894 0.26456 0.27873 0.0
C2558 C 0.98555 0.29421 0.25264 0.0
C2559 C 0.02432 0.26526 0.29051 0.0
C2560 C 0.9189 0.31338 0.24736 0.0
C2561 C 0.93526 0.30897 0.24849 0.0
C2562 C 0.9554 0.27154 0.26312 0.0
C2563 C 1.0045 0.28172 0.27547 0.0
C2564 C 0.98716 0.28132 0.26531 0.0
C2565 C 0.93652 0.28966 0.24698 0.0
C2566 C 0.9538 0.28529 0.2514 0.0
H2567 H 0.03965 0.31427 0.30204 0.0
H2568 H 0.0129 0.31304 0.28162 0.0
H2569 H 0.97271 0.25966 0.27989 0.0
H2570 H 0.89296 0.26753 0.23992 0.0
H2571 H 0.92155 0.25979 0.24167 0.0
C2572 C 0.01727 0.69001 0.6381 0.0
C2573 C 0.02498 0.70779 0.63299 0.0
C2574 C 0.02104 0.67294 0.62935 0.0
C2575 C 0.05299 0.6551 0.60011 0.0
H2576 H 0.01572 0.6082 0.5869 0.0
C2577 C 0.05423 0.59007 0.5424 0.0
C2578 C 0.04838 0.5715 0.54669 0.0
C2579 C 0.05302 0.60632 0.55517 0.0
C2580 C 0.02631 0.62112 0.59075 0.0
H2581 H 0.04244 0.72162 0.61452 0.0
H2582 H 0.04851 0.69189 0.59879 0.0
H2583 H 0.0099 0.63737 0.60454 0.0
H2584 H 0.03728 0.55526 0.5679 0.0
H2585 H 0.03484 0.58378 0.59013 0.0
H2586 H 0.06914 0.63893 0.5855 0.0
C2587 C 0.03999 0.69109 0.60996 0.0
C2588 C 0.02301 0.63785 0.60089 0.0
C2589 C 0.03639 0.70815 0.61886 0.0
C2590 C 0.04181 0.56945 0.56423 0.0
C2591 C 0.04036 0.58571 0.5769 0.0
C2592 C 0.05622 0.63844 0.58976 0.0
C2593 C 0.03244 0.67327 0.61515 0.0
C2594 C 0.03624 0.65513 0.60547 0.0
C2595 C 0.04575 0.60426 0.57235 0.0
C2596 C 0.04285 0.62138 0.5848 0.0
H2597 H 0.00852 0.6893 0.64907 0.0
H2598 H 0.01516 0.65953 0.6339 0.0
H2599 H 0.06362 0.66799 0.60377 0.0
H2600 H 0.05942 0.59201 0.52899 0.0
H2601 H 0.05715 0.62046 0.55127 0.0
C2602 C 0.63863 0.82847 0.84433 0.0
C2603 C 0.63762 0.84707 0.85269 0.0
C2604 C 0.65141 0.82605 0.83243 0.0
C2605 C 0.69506 0.84911 0.82287 0.0
H2606 H 0.68339 0.80952 0.77701 0.0
C2607 C 0.74857 0.82719 0.78005 0.0
C2608 C 0.74696 0.80709 0.77638 0.0
C2609 C 0.73459 0.8346 0.78597 0.0
C2610 C 0.68686 0.82065 0.78975 0.0
H2611 H 0.64924 0.87776 0.85512 0.0
H2612 H 0.67181 0.87345 0.83442 0.0
H2613 H 0.66004 0.81786 0.79438 0.0
H2614 H 0.72909 0.77907 0.77505 0.0
H2615 H 0.70496 0.79193 0.78546 0.0
H2616 H 0.72193 0.85131 0.81873 0.0
C2617 C 0.66263 0.86079 0.8371 0.0
C2618 C 0.6735 0.82541 0.79969 0.0
C2619 C 0.6497 0.86323 0.8489 0.0
C2620 C 0.73084 0.79461 0.77785 0.0
C2621 C 0.71691 0.802 0.78367 0.0
C2622 C 0.70846 0.84429 0.81296 0.0
C2623 C 0.66356 0.84216 0.8287 0.0
C2624 C 0.6775 0.83925 0.81667 0.0
C2625 C 0.71872 0.82206 0.78818 0.0
C2626 C 0.70451 0.82957 0.79664 0.0
H2627 H 0.62952 0.81571 0.84692 0.0
H2628 H 0.65199 0.8115 0.82643 0.0
H2629 H 0.69853 0.85977 0.83597 0.0
H2630 H 0.76078 0.83722 0.77895 0.0
H2631 H 0.7363 0.85013 0.78916 0.0
C2632 C 0.44582 0.55096 0.69507 0.0
C2633 C 0.45194 0.56799 0.70905 0.0
C2634 C 0.45344 0.54833 0.67761 0.0
C2635 C 0.48299 0.57682 0.64636 0.0
H2636 H 0.48644 0.52667 0.62074 0.0
C2637 C 0.52838 0.57064 0.58601 0.0
C2638 C 0.52424 0.55506 0.57036 0.0
C2639 C 0.51836 0.5713 0.60154 0.0
C2640 C 0.48549 0.54084 0.62748 0.0
H2641 H 0.47142 0.59537 0.71493 0.0
H2642 H 0.48447 0.5908 0.68547 0.0
H2643 H 0.47174 0.52927 0.64979 0.0
H2644 H 0.50596 0.52744 0.55959 0.0
H2645 H 0.48823 0.52859 0.5866 0.0
H2646 H 0.49666 0.58846 0.62427 0.0
C2647 C 0.47355 0.57947 0.6875 0.0
C2648 C 0.47696 0.54236 0.64436 0.0
C2649 C 0.46603 0.58206 0.70478 0.0
C2650 C 0.50947 0.53996 0.57099 0.0
C2651 C 0.49939 0.54053 0.58677 0.0
C2652 C 0.49149 0.57531 0.62962 0.0
C2653 C 0.46744 0.56264 0.67331 0.0
C2654 C 0.47572 0.56046 0.65443 0.0
C2655 C 0.50363 0.55628 0.60247 0.0
C2656 C 0.49323 0.55735 0.61985 0.0
H2657 H 0.43507 0.53966 0.69754 0.0
H2658 H 0.44808 0.53513 0.66732 0.0
H2659 H 0.48205 0.59105 0.6529 0.0
H2660 H 0.53971 0.5825 0.58643 0.0
H2661 H 0.52258 0.58355 0.61318 0.0
C2662 C 0.79012 0.16663 0.98692 0.0
C2663 C 0.78637 0.14664 0.97996 0.0
C2664 C 0.79322 0.1798 0.97434 0.0
C2665 C 0.78219 0.18312 0.92412 0.0
H2666 H 0.8179 0.2314 0.93621 0.0
C2667 C 0.79351 0.23558 0.87045 0.0
C2668 C 0.79676 0.25545 0.87781 0.0
C2669 C 0.79338 0.22225 0.88281 0.0
C2670 C 0.80775 0.21806 0.93274 0.0
H2671 H 0.7836 0.1248 0.95446 0.0
H2672 H 0.78901 0.14785 0.93249 0.0
H2673 H 0.81631 0.20804 0.95801 0.0
H2674 H 0.80252 0.27692 0.90395 0.0
H2675 H 0.80177 0.25356 0.9256 0.0
H2676 H 0.77333 0.19319 0.89913 0.0
C2677 C 0.78939 0.15329 0.94766 0.0
C2678 C 0.80689 0.20468 0.94517 0.0
C2679 C 0.7864 0.14011 0.96026 0.0
C2680 C 0.79983 0.2617 0.89784 0.0
C2681 C 0.79963 0.24833 0.91023 0.0
C2682 C 0.78298 0.19651 0.91176 0.0
C2683 C 0.79253 0.17324 0.95453 0.0
C2684 C 0.79407 0.1871 0.941 0.0
C2685 C 0.79636 0.22845 0.90284 0.0
C2686 C 0.79574 0.21416 0.91593 0.0
H2687 H 0.79023 0.17212 1.00203 0.0
H2688 H 0.79548 0.19509 0.98002 0.0
H2689 H 0.77196 0.16984 0.92071 0.0
H2690 H 0.79084 0.23025 0.8551 0.0
H2691 H 0.79101 0.20708 0.87663 0.0
C2692 C 0.14304 0.50753 0.18737 0.0
C2693 C 0.13337 0.50811 0.20307 0.0
C2694 C 0.13456 0.5039 0.16856 0.0
C2695 C 0.09001 0.48927 0.13976 0.0
H2696 H 0.11295 0.52234 0.10653 0.0
C2697 C 0.05224 0.49715 0.06973 0.0
C2698 C 0.055 0.51596 0.0657 0.0
C2699 C 0.06364 0.49275 0.08362 0.0
C2700 C 0.10629 0.51308 0.11565 0.0
H2701 H 0.10721 0.50456 0.21141 0.0
H2702 H 0.09251 0.49909 0.1789 0.0
H2703 H 0.12883 0.52042 0.13673 0.0
H2704 H 0.07201 0.5448 0.07232 0.0
H2705 H 0.09142 0.53754 0.09728 0.0
H2706 H 0.06701 0.48325 0.11955 0.0
C2707 C 0.10658 0.50086 0.18086 0.0
C2708 C 0.11553 0.51169 0.13288 0.0
C2709 C 0.11503 0.50415 0.1996 0.0
C2710 C 0.06963 0.53018 0.07526 0.0
C2711 C 0.08084 0.52591 0.08943 0.0
C2712 C 0.08067 0.49096 0.12273 0.0
C2713 C 0.11625 0.5011 0.16509 0.0
C2714 C 0.10735 0.50019 0.14544 0.0
C2715 C 0.07782 0.50721 0.09405 0.0
C2716 C 0.08853 0.50331 0.11069 0.0
H2717 H 0.1572 0.51031 0.18962 0.0
H2718 H 0.14241 0.50376 0.15679 0.0
H2719 H 0.0834 0.47987 0.14879 0.0
H2720 H 0.04119 0.48585 0.06223 0.0
H2721 H 0.06114 0.47808 0.08637 0.0
C2722 C 0.80937 0.87032 0.48034 0.0
C2723 C 0.79591 0.86271 0.49079 0.0
C2724 C 0.80939 0.86213 0.46118 0.0
C2725 C 0.78029 0.83552 0.41841 0.0
H2726 H 0.82217 0.82355 0.40023 0.0
C2727 C 0.78016 0.79996 0.33973 0.0
C2728 C 0.79534 0.80557 0.33095 0.0
C2729 C 0.78021 0.80591 0.35944 0.0
C2730 C 0.81042 0.82707 0.40496 0.0
H2731 H 0.77195 0.8405 0.48937 0.0
H2732 H 0.77182 0.82642 0.45565 0.0
H2733 H 0.82238 0.83585 0.43426 0.0
H2734 H 0.82242 0.82205 0.33594 0.0
H2735 H 0.82236 0.83303 0.37011 0.0
H2736 H 0.76845 0.82753 0.38915 0.0
C2737 C 0.78238 0.83866 0.46241 0.0
C2738 C 0.81054 0.83399 0.4245 0.0
C2739 C 0.78252 0.84665 0.4817 0.0
C2740 C 0.81055 0.81733 0.3423 0.0
C2741 C 0.81053 0.82352 0.36196 0.0
C2742 C 0.78023 0.82888 0.39882 0.0
C2743 C 0.79581 0.84635 0.45198 0.0
C2744 C 0.79549 0.83832 0.43139 0.0
C2745 C 0.79537 0.81787 0.37083 0.0
C2746 C 0.79532 0.8246 0.3918 0.0
H2747 H 0.81991 0.88265 0.48696 0.0
H2748 H 0.81983 0.86842 0.45342 0.0
H2749 H 0.76857 0.83898 0.42333 0.0
H2750 H 0.76826 0.79075 0.33142 0.0
H2751 H 0.76838 0.80092 0.36575 0.0
C2752 C 0.45309 0.53665 0.81771 0.0
C2753 C 0.44985 0.55364 0.81208 0.0
C2754 C 0.46167 0.53674 0.836 0.0
C2755 C 0.49059 0.56827 0.87958 0.0
H2756 H 0.47467 0.52332 0.903 0.0
C2757 C 0.52042 0.56305 0.95768 0.0
C2758 C 0.5211 0.54472 0.96202 0.0
C2759 C 0.51186 0.56501 0.93992 0.0
C2760 C 0.47963 0.53593 0.89673 0.0
H2761 H 0.45375 0.58437 0.82208 0.0
H2762 H 0.4689 0.58461 0.85412 0.0
H2763 H 0.46003 0.52548 0.87215 0.0
H2764 H 0.51318 0.51408 0.95024 0.0
H2765 H 0.49879 0.51742 0.91961 0.0
H2766 H 0.51032 0.57863 0.9042 0.0
C2767 C 0.46469 0.57106 0.84411 0.0
C2768 C 0.47107 0.53721 0.8788 0.0
C2769 C 0.45591 0.57094 0.82564 0.0
C2770 C 0.51297 0.52848 0.94777 0.0
C2771 C 0.50449 0.53044 0.93003 0.0
C2772 C 0.49925 0.56695 0.89756 0.0
C2773 C 0.46756 0.55385 0.84975 0.0
C2774 C 0.47643 0.55329 0.86966 0.0
C2775 C 0.5036 0.54873 0.92566 0.0
C2776 C 0.49408 0.55063 0.9065 0.0
H2777 H 0.44887 0.52293 0.80794 0.0
H2778 H 0.46382 0.5232 0.83925 0.0
H2779 H 0.49534 0.58088 0.87321 0.0
H2780 H 0.5264 0.576 0.96811 0.0
H2781 H 0.51149 0.5794 0.93757 0.0
C2782 C 0.75785 0.18165 0.07155 0.0
C2783 C 0.75869 0.16226 0.07038 0.0
C2784 C 0.75678 0.19272 0.08916 0.0
C2785 C 0.76712 0.19478 0.14122 0.0
H2786 H 0.74165 0.23506 0.14517 0.0
C2787 C 0.76932 0.24383 0.21332 0.0
C2788 C 0.77396 0.26369 0.21268 0.0
C2789 C 0.76378 0.23029 0.19637 0.0
C2790 C 0.74881 0.22386 0.14426 0.0
H2791 H 0.75837 0.13905 0.08664 0.0
H2792 H 0.75616 0.15826 0.11732 0.0
H2793 H 0.7389 0.21313 0.11458 0.0
H2794 H 0.77527 0.28505 0.19407 0.0
H2795 H 0.76564 0.26137 0.1644 0.0
H2796 H 0.77724 0.20565 0.17075 0.0
C2797 C 0.75672 0.16505 0.1047 0.0
C2798 C 0.74729 0.21134 0.12675 0.0
C2799 C 0.75792 0.15401 0.0871 0.0
C2800 C 0.77184 0.26982 0.19495 0.0
C2801 C 0.76625 0.25626 0.17798 0.0
C2802 C 0.76854 0.2072 0.15871 0.0
C2803 C 0.75639 0.18462 0.10599 0.0
C2804 C 0.75666 0.19685 0.12495 0.0
C2805 C 0.76271 0.23635 0.17847 0.0
C2806 C 0.75962 0.22206 0.16036 0.0
H2807 H 0.75844 0.18847 0.05894 0.0
H2808 H 0.75682 0.20781 0.08965 0.0
H2809 H 0.77477 0.18404 0.1403 0.0
H2810 H 0.77072 0.23871 0.22683 0.0
H2811 H 0.76086 0.21505 0.19722 0.0
C2812 C 0.13866 0.57355 0.307 0.0
C2813 C 0.13798 0.55633 0.29436 0.0
C2814 C 0.12515 0.57493 0.3182 0.0
C2815 C 0.07954 0.55029 0.32422 0.0
H2816 H 0.09443 0.57374 0.37776 0.0
C2817 C 0.04221 0.52971 0.38696 0.0
C2818 C 0.04292 0.54408 0.403 0.0
C2819 C 0.05087 0.53426 0.37131 0.0
C2820 C 0.08996 0.56751 0.36278 0.0
H2821 H 0.12245 0.52717 0.28325 0.0
H2822 H 0.09922 0.52936 0.3032 0.0
H2823 H 0.11574 0.57594 0.35502 0.0
H2824 H 0.05184 0.57478 0.41442 0.0
H2825 H 0.06718 0.58265 0.38713 0.0
H2826 H 0.05388 0.54099 0.33239 0.0
C2827 C 0.10994 0.54198 0.30418 0.0
C2828 C 0.1022 0.56876 0.3497 0.0
C2829 C 0.12337 0.54065 0.29286 0.0
C2830 C 0.05138 0.56333 0.40244 0.0
C2831 C 0.06011 0.56785 0.38683 0.0
C2832 C 0.06731 0.5489 0.33737 0.0
C2833 C 0.11075 0.55907 0.31713 0.0
C2834 C 0.09724 0.55978 0.33036 0.0
C2835 C 0.06045 0.55324 0.37143 0.0
C2836 C 0.0725 0.55714 0.35685 0.0
H2837 H 0.14966 0.58596 0.3083 0.0
H2838 H 0.12606 0.58841 0.32781 0.0
H2839 H 0.07521 0.54354 0.30934 0.0
H2840 H 0.03595 0.51472 0.387 0.0
H2841 H 0.05103 0.52265 0.35973 0.0
C2842 C 0.80565 0.87367 0.59888 0.0
C2843 C 0.79072 0.86968 0.58517 0.0
C2844 C 0.80549 0.86422 0.61471 0.0
C2845 C 0.78396 0.82016 0.63116 0.0
H2846 H 0.7992 0.84991 0.68259 0.0
C2847 C 0.77178 0.78538 0.69806 0.0
C2848 C 0.78446 0.79145 0.71428 0.0
C2849 C 0.77309 0.79513 0.68247 0.0
C2850 C 0.79517 0.84132 0.66832 0.0
H2851 H 0.764 0.85246 0.57721 0.0
H2852 H 0.76386 0.83572 0.60468 0.0
H2853 H 0.80078 0.86638 0.6549 0.0
H2854 H 0.8087 0.81201 0.72684 0.0
H2855 H 0.81129 0.82895 0.69947 0.0
H2856 H 0.77866 0.79508 0.64433 0.0
C2857 C 0.77564 0.84622 0.60319 0.0
C2858 C 0.79602 0.85079 0.65248 0.0
C2859 C 0.77571 0.85587 0.58752 0.0
C2860 C 0.79859 0.80732 0.71462 0.0
C2861 C 0.80003 0.817 0.69893 0.0
C2862 C 0.78332 0.81067 0.64694 0.0
C2863 C 0.79049 0.85038 0.617 0.0
C2864 C 0.79025 0.84032 0.63376 0.0
C2865 C 0.78729 0.811 0.68261 0.0
C2866 C 0.78871 0.82113 0.66577 0.0
H2867 H 0.81741 0.88428 0.59751 0.0
H2868 H 0.81715 0.86759 0.62508 0.0
H2869 H 0.77968 0.81171 0.61686 0.0
H2870 H 0.76071 0.77321 0.69749 0.0
H2871 H 0.76282 0.79031 0.6704 0.0
C2872 C 0.74515 0.45848 0.48426 0.0
C2873 C 0.76294 0.4683 0.48731 0.0
C2874 C 0.73215 0.46874 0.48367 0.0
C2875 C 0.72536 0.51694 0.50085 0.0
H2876 H 0.6804 0.49587 0.46934 0.0
C2877 C 0.668 0.55449 0.5051 0.0
C2878 C 0.65206 0.54225 0.50758 0.0
C2879 C 0.682 0.5468 0.49984 0.0
C2880 C 0.69292 0.50192 0.47819 0.0
H2881 H 0.78109 0.49649 0.49121 0.0
H2882 H 0.75838 0.51438 0.48978 0.0
H2883 H 0.70431 0.47999 0.46458 0.0
H2884 H 0.63843 0.51229 0.50658 0.0
H2885 H 0.66267 0.49896 0.49707 0.0
H2886 H 0.71383 0.53872 0.5146 0.0
C2887 C 0.75447 0.49878 0.48829 0.0
C2888 C 0.70658 0.49282 0.47552 0.0
C2889 C 0.76748 0.48853 0.48902 0.0
C2890 C 0.65036 0.52215 0.50439 0.0
C2891 C 0.66426 0.51448 0.49897 0.0
C2892 C 0.71173 0.52612 0.5034 0.0
C2893 C 0.73666 0.48903 0.48596 0.0
C2894 C 0.72283 0.49995 0.48714 0.0
C2895 C 0.68025 0.52672 0.4968 0.0
C2896 C 0.69527 0.51844 0.4924 0.0
H2897 H 0.74123 0.4429 0.48294 0.0
H2898 H 0.71858 0.46077 0.48214 0.0
H2899 H 0.73761 0.52268 0.51023 0.0
H2900 H 0.66967 0.57002 0.50718 0.0
H2901 H 0.69419 0.55653 0.49815 0.0
C2902 C 0.20684 0.15325 0.5014 0.0
C2903 C 0.22155 0.14599 0.49775 0.0
C2904 C 0.19049 0.14068 0.50115 0.0
C2905 C 0.17002 0.09165 0.50783 0.0
H2906 H 0.1278 0.10161 0.48355 0.0
C2907 C 0.10186 0.0398 0.50483 0.0
C2908 C 0.08775 0.04828 0.50778 0.0
C2909 C 0.11818 0.05109 0.50246 0.0
C2910 C 0.13943 0.09873 0.4906 0.0
H2911 H 0.2306 0.11981 0.49079 0.0
H2912 H 0.20197 0.09782 0.49051 0.0
H2913 H 0.15629 0.12244 0.48138 0.0
H2914 H 0.07926 0.07485 0.50933 0.0
H2915 H 0.10784 0.09485 0.50618 0.0
H2916 H 0.15321 0.06826 0.51749 0.0
C2917 C 0.20316 0.11327 0.4936 0.0
C2918 C 0.15576 0.11064 0.48928 0.0
C2919 C 0.21951 0.12586 0.49366 0.0
C2920 C 0.0901 0.06814 0.50788 0.0
C2921 C 0.10641 0.07949 0.50562 0.0
C2922 C 0.15367 0.07982 0.50928 0.0
C2923 C 0.18849 0.12055 0.49741 0.0
C2924 C 0.17122 0.10731 0.49799 0.0
C2925 C 0.1207 0.07113 0.50294 0.0
C2926 C 0.13815 0.08329 0.50081 0.0
H2927 H 0.20794 0.16867 0.50458 0.0
H2928 H 0.17947 0.14673 0.50433 0.0
H2929 H 0.18169 0.08887 0.51489 0.0
H2930 H 0.10031 0.02443 0.50446 0.0
H2931 H 0.12876 0.04408 0.50007 0.0
C2932 C 0.2081 0.96804 0.78134 0.0
C2933 C 0.18955 0.96307 0.77874 0.0
C2934 C 0.21791 0.95361 0.78105 0.0
C2935 C 0.21298 0.89986 0.78401 0.0
H2936 H 0.25815 0.90699 0.76525 0.0
C2937 C 0.24843 0.83554 0.77289 0.0
C2938 C 0.26693 0.83945 0.77465 0.0
C2939 C 0.2394 0.85058 0.77345 0.0
C2940 C 0.24565 0.90461 0.7708 0.0
H2941 H 0.16724 0.93823 0.77366 0.0
H2942 H 0.18386 0.91379 0.773 0.0
H2943 H 0.24256 0.9327 0.76647 0.0
H2944 H 0.29012 0.8631 0.77849 0.0
H2945 H 0.2747 0.88892 0.77969 0.0
H2946 H 0.21601 0.87189 0.78845 0.0
C2947 C 0.1911 0.92878 0.77562 0.0
C2948 C 0.23657 0.91962 0.7715 0.0
C2949 C 0.1814 0.94307 0.77585 0.0
C2950 C 0.27593 0.85915 0.77697 0.0
C2951 C 0.26693 0.87418 0.77754 0.0
C2952 C 0.22204 0.8849 0.78334 0.0
C2953 C 0.20963 0.93355 0.77826 0.0
C2954 C 0.21991 0.91763 0.77802 0.0
C2955 C 0.24839 0.87037 0.77584 0.0
C2956 C 0.23862 0.88676 0.77663 0.0
H2957 H 0.2151 0.9831 0.7836 0.0
H2958 H 0.23207 0.9583 0.7833 0.0
H2959 H 0.20049 0.89746 0.7896 0.0
H2960 H 0.24079 0.82074 0.77103 0.0
H2961 H 0.22523 0.84652 0.77175 0.0
C2962 C 0.35882 0.99246 0.02363 0.0
C2963 C 0.34663 0.98785 0.03653 0.0
C2964 C 0.37671 0.99569 0.02944 0.0
C2965 C 0.41156 0.00837 0.06952 0.0
H2966 H 0.43395 0.97784 0.03438 0.0
C2967 C 0.48292 0.99262 0.05204 0.0
C2968 C 0.49222 0.01177 0.05254 0.0
C2969 C 0.46577 0.98868 0.05656 0.0
C2970 C 0.42793 0.9862 0.04462 0.0
H2971 H 0.34376 0.98426 0.06602 0.0
H2972 H 0.3753 0.99015 0.07622 0.0
H2973 H 0.40251 0.97402 0.02886 0.0
H2974 H 0.49164 0.04189 0.06034 0.0
H2975 H 0.46157 0.035 0.06767 0.0
H2976 H 0.43726 0.02101 0.08494 0.0
C2977 C 0.37083 0.99108 0.06158 0.0
C2978 C 0.40993 0.98418 0.04127 0.0
C2979 C 0.35282 0.98769 0.05572 0.0
C2980 C 0.48478 0.02695 0.05973 0.0
C2981 C 0.46752 0.023 0.064 0.0
C2982 C 0.42973 0.01053 0.07282 0.0
C2983 C 0.38285 0.99451 0.04829 0.0
C2984 C 0.40164 0.99556 0.05338 0.0
C2985 C 0.45753 1.00381 0.06139 0.0
C2986 C 0.43814 0.99969 0.06016 0.0
H2987 H 0.35454 0.99288 0.00879 0.0
H2988 H 0.38576 0.99863 0.01901 0.0
H2989 H 0.4054 0.01725 0.07908 0.0
H2990 H 0.48843 0.98062 0.04687 0.0
H2991 H 0.45853 0.97374 0.0549 0.0
C2992 C 0.86133 0.56253 0.78132 0.0
C2993 C 0.87711 0.56719 0.77337 0.0
C2994 C 0.8473 0.57017 0.77588 0.0
C2995 C 0.82841 0.59212 0.73839 0.0
H2996 H 0.80968 0.61872 0.78029 0.0
C2997 C 0.79091 0.65067 0.72959 0.0
C2998 C 0.7796 0.65472 0.74308 0.0
C2999 C 0.79955 0.63592 0.73077 0.0
C3000 C 0.81433 0.61094 0.76833 0.0
H3001 H 0.89043 0.58307 0.75308 0.0
H3002 H 0.86578 0.5964 0.7435 0.0
H3003 H 0.8314 0.60094 0.78733 0.0
H3004 H 0.76707 0.64483 0.76708 0.0
H3005 H 0.78116 0.61844 0.76825 0.0
H3006 H 0.81136 0.60217 0.71934 0.0
C3007 C 0.86433 0.5868 0.75393 0.0
C3008 C 0.82691 0.60086 0.77243 0.0
C3009 C 0.87846 0.57932 0.75954 0.0
C3010 C 0.77568 0.64227 0.75642 0.0
C3011 C 0.78404 0.62728 0.75733 0.0
C3012 C 0.81559 0.60201 0.73424 0.0
C3013 C 0.8487 0.58245 0.76221 0.0
C3014 C 0.8343 0.59166 0.75754 0.0
C3015 C 0.7968 0.6246 0.74523 0.0
C3016 C 0.80863 0.61187 0.7492 0.0
H3017 H 0.85986 0.55317 0.79197 0.0
H3018 H 0.83535 0.56655 0.78241 0.0
H3019 H 0.83381 0.58494 0.72664 0.0
H3020 H 0.79385 0.65956 0.71873 0.0
H3021 H 0.80922 0.6343 0.72112 0.0
C3022 C 0.84496 0.65879 0.9889 0.0
C3023 C 0.82781 0.65072 0.99235 0.0
C3024 C 0.85807 0.64877 0.99078 0.0
C3025 C 0.86919 0.60953 0.01372 0.0
H3026 H 0.90416 0.6113 0.97843 0.0
C3027 C 0.91841 0.56148 0.01354 0.0
C3028 C 0.93599 0.57026 0.01223 0.0
C3029 C 0.90525 0.5712 0.01064 0.0
C3030 C 0.89458 0.61082 0.98849 0.0
H3031 H 0.8109 0.62563 1.00014 0.0
H3032 H 0.83368 0.60799 1.00309 0.0
H3033 H 0.88092 0.62813 0.97399 0.0
H3034 H 0.95345 0.5962 0.00669 0.0
H3035 H 0.93038 0.61313 1.00144 0.0
H3036 H 0.88279 0.59212 0.02813 0.0
C3037 C 0.8371 0.62223 0.99928 0.0
C3038 C 0.88126 0.62047 0.98598 0.0
C3039 C 0.824 0.63229 0.99748 0.0
C3040 C 0.94003 0.58892 0.00761 0.0
C3041 C 0.92682 0.59864 1.00462 0.0
C3042 C 0.88244 0.59982 0.01617 0.0
C3043 C 0.85433 0.6304 0.99608 0.0
C3044 C 0.8684 0.61995 0.99857 0.0
C3045 C 0.90931 0.58993 0.00625 0.0
C3046 C 0.89529 0.60035 1.0036 0.0
H3047 H 0.84837 0.67299 0.98499 0.0
H3048 H 0.87123 0.65561 0.98846 0.0
H3049 H 0.85972 0.60911 0.02391 0.0
H3050 H 0.91475 0.54695 0.01664 0.0
H3051 H 0.89184 0.56396 0.01165 0.0
C3052 C 0.18708 0.09587 0.77362 0.0
C3053 C 0.19424 0.08085 0.77893 0.0
C3054 C 0.19772 0.11418 0.77284 0.0
C3055 C 0.24268 0.14712 0.78928 0.0
H3056 H 0.22885 0.17523 0.75051 0.0
C3057 C 0.28826 0.21951 0.77753 0.0
C3058 C 0.28099 0.23417 0.77161 0.0
C3059 C 0.27774 0.2012 0.77856 0.0
C3060 C 0.23289 0.16784 0.76166 0.0
H3061 H 0.21873 0.07399 0.78769 0.0
H3062 H 0.23738 0.10594 0.78629 0.0
H3063 H 0.21131 0.14312 0.75185 0.0
H3064 H 0.25657 0.24034 0.76153 0.0
H3065 H 0.23805 0.20863 0.76373 0.0
H3066 H 0.26423 0.17187 0.79913 0.0
C3067 C 0.22333 0.10351 0.78283 0.0
C3068 C 0.22274 0.14919 0.76243 0.0
C3069 C 0.21261 0.08502 0.78357 0.0
C3070 C 0.26268 0.22972 0.76657 0.0
C3071 C 0.25206 0.21128 0.76759 0.0
C3072 C 0.25282 0.1658 0.78853 0.0
C3073 C 0.21609 0.11847 0.77733 0.0
C3074 C 0.22737 0.1384 0.77628 0.0
C3075 C 0.25938 0.1966 0.77366 0.0
C3076 C 0.24818 0.1766 0.77469 0.0
H3077 H 0.17306 0.09353 0.76998 0.0
H3078 H 0.19137 0.12512 0.76892 0.0
H3079 H 0.24672 0.13968 0.80039 0.0
H3080 H 0.30229 0.22217 0.78138 0.0
H3081 H 0.28417 0.19049 0.7829 0.0
C3082 C 0.39891 1.00532 0.23224 0.0
C3083 C 0.41156 0.0114 0.24858 0.0
C3084 C 0.39007 0.98583 0.22679 0.0
C3085 C 0.39198 0.93661 0.23499 0.0
H3086 H 0.34135 0.9247 0.22329 0.0
C3087 C 0.34735 0.86805 0.24996 0.0
C3088 C 0.33395 0.85715 0.23554 0.0
C3089 C 0.35705 0.88612 0.24782 0.0
C3090 C 0.3555 0.9278 0.22618 0.0
H3091 H 0.42512 1.00173 0.27176 0.0
H3092 H 0.40961 0.96798 0.26248 0.0
H3093 H 0.35844 0.95805 0.2262 0.0
H3094 H 0.32003 0.85676 0.20765 0.0
H3095 H 0.3369 0.88888 0.20416 0.0
H3096 H 0.38893 0.90654 0.23596 0.0
C3097 C 0.40667 0.97813 0.25365 0.0
C3098 C 0.3653 0.94687 0.22783 0.0
C3099 C 0.41548 0.99755 0.25907 0.0
C3100 C 0.33031 0.86484 0.21898 0.0
C3101 C 0.3399 0.88316 0.21699 0.0
C3102 C 0.38219 0.91765 0.23351 0.0
C3103 C 0.39375 0.97205 0.23755 0.0
C3104 C 0.38361 0.95156 0.23284 0.0
C3105 C 0.35348 0.89383 0.23133 0.0
C3106 C 0.36384 0.91319 0.22966 0.0
H3107 H 0.39563 0.01565 0.22383 0.0
H3108 H 0.3803 0.98157 0.21422 0.0
H3109 H 0.40609 0.93967 0.2384 0.0
H3110 H 0.35057 0.86255 0.26286 0.0
H3111 H 0.36728 0.89418 0.25922 0.0
C3112 C 0.59783 0.38033 0.60229 0.0
C3113 C 0.58435 0.36367 0.60172 0.0
C3114 C 0.59488 0.39536 0.59308 0.0
C3115 C 0.56441 0.40719 0.55619 0.0
H3116 H 0.58413 0.45984 0.58273 0.0
C3117 C 0.54285 0.47314 0.53345 0.0
C3118 C 0.55581 0.49039 0.53461 0.0
C3119 C 0.54688 0.45731 0.54045 0.0
C3120 C 0.57871 0.44525 0.57498 0.0
H3121 H 0.55721 0.3497 0.59073 0.0
H3122 H 0.552 0.37599 0.5749 0.0
H3123 H 0.59007 0.43302 0.59712 0.0
H3124 H 0.58334 0.50424 0.54366 0.0
H3125 H 0.59034 0.47662 0.55575 0.0
H3126 H 0.55284 0.4195 0.53417 0.0
C3127 C 0.56495 0.37735 0.58226 0.0
C3128 C 0.58213 0.42983 0.58324 0.0
C3129 C 0.56791 0.36229 0.59144 0.0
C3130 C 0.57299 0.49124 0.54258 0.0
C3131 C 0.577 0.47543 0.54964 0.0
C3132 C 0.56095 0.42263 0.54795 0.0
C3133 C 0.57835 0.39417 0.58309 0.0
C3134 C 0.57499 0.41058 0.57399 0.0
C3135 C 0.56396 0.45833 0.54885 0.0
C3136 C 0.56802 0.44186 0.55727 0.0
H3137 H 0.61068 0.38186 0.60998 0.0
H3138 H 0.6056 0.40793 0.59377 0.0
H3139 H 0.5589 0.39259 0.5485 0.0
H3140 H 0.52948 0.47193 0.52743 0.0
H3141 H 0.53648 0.44445 0.53977 0.0
C3142 C 0.45408 0.75503 0.34876 0.0
C3143 C 0.45795 0.768 0.36639 0.0
C3144 C 0.44058 0.7559 0.3349 0.0
C3145 C 0.41687 0.78999 0.31882 0.0
H3146 H 0.38051 0.74493 0.29429 0.0
C3147 C 0.35602 0.79785 0.27267 0.0
C3148 C 0.34832 0.78348 0.25667 0.0
C3149 C 0.36938 0.79528 0.28557 0.0
C3150 C 0.3907 0.75764 0.30073 0.0
H3151 H 0.4505 0.79191 0.38329 0.0
H3152 H 0.42729 0.79358 0.3591 0.0
H3153 H 0.40395 0.74138 0.31735 0.0
H3154 H 0.34883 0.7553 0.24134 0.0
H3155 H 0.37264 0.75104 0.26344 0.0
H3156 H 0.4041 0.80628 0.30206 0.0
C3157 C 0.43465 0.78274 0.35599 0.0
C3158 C 0.4041 0.75557 0.31401 0.0
C3159 C 0.44791 0.78168 0.3699 0.0
C3160 C 0.35445 0.76658 0.25365 0.0
C3161 C 0.36801 0.76409 0.26643 0.0
C3162 C 0.40367 0.79203 0.30538 0.0
C3163 C 0.43091 0.76997 0.33829 0.0
C3164 C 0.41718 0.77178 0.32338 0.0
C3165 C 0.37568 0.77842 0.28262 0.0
C3166 C 0.39021 0.77595 0.29632 0.0
H3167 H 0.46155 0.7443 0.34561 0.0
H3168 H 0.438 0.74591 0.32135 0.0
H3169 H 0.42695 0.8027 0.32558 0.0
H3170 H 0.35173 0.81116 0.27524 0.0
H3171 H 0.37464 0.80652 0.29799 0.0
C3172 C 0.05762 0.74531 0.09011 0.0
C3173 C 0.07474 0.75655 0.09047 0.0
C3174 C 0.05306 0.72571 0.0818 0.0
C3175 C 0.06828 0.68806 0.05019 0.0
H3176 H 0.03856 0.65301 0.07695 0.0
C3177 C 0.06393 0.60618 0.03905 0.0
C3178 C 0.04725 0.59352 0.0374 0.0
C3179 C 0.0661 0.62615 0.04397 0.0
C3180 C 0.04669 0.66263 0.06917 0.0
H3181 H 0.10041 0.75609 0.08205 0.0
H3182 H 0.09264 0.72186 0.06801 0.0
H3183 H 0.0446 0.68777 0.0882 0.0
H3184 H 0.01974 0.59198 0.03959 0.0
H3185 H 0.02362 0.62696 0.04849 0.0
H3186 H 0.0708 0.66275 0.03158 0.0
C3187 C 0.08258 0.72822 0.07377 0.0
C3188 C 0.05013 0.68259 0.07558 0.0
C3189 C 0.08708 0.74787 0.08191 0.0
C3190 C 0.03277 0.60132 0.04076 0.0
C3191 C 0.03499 0.62134 0.04592 0.0
C3192 C 0.06496 0.66809 0.04392 0.0
C3193 C 0.06556 0.7168 0.07381 0.0
C3194 C 0.06111 0.69559 0.06628 0.0
C3195 C 0.05169 0.63395 0.04756 0.0
C3196 C 0.05427 0.65516 0.05345 0.0
H3197 H 0.04775 0.7516 0.09645 0.0
H3198 H 0.03975 0.71752 0.08176 0.0
H3199 H 0.0765 0.69759 0.04243 0.0
H3200 H 0.07538 0.60071 0.0365 0.0
H3201 H 0.07916 0.63548 0.04534 0.0
C3202 C 0.07343 0.28072 0.89065 0.0
C3203 C 0.05694 0.26977 0.88142 0.0
C3204 C 0.08805 0.28313 0.88071 0.0
C3205 C 0.10132 0.27923 0.83154 0.0
H3206 H 0.14621 0.27937 0.85867 0.0
C3207 C 0.16315 0.27557 0.79389 0.0
C3208 C 0.17929 0.28754 0.80315 0.0
C3209 C 0.14798 0.2741 0.80295 0.0
C3210 C 0.13381 0.27958 0.85095 0.0
H3211 H 0.0429 0.25275 0.85443 0.0
H3212 H 0.06858 0.25657 0.83712 0.0
H3213 H 0.12024 0.2748 0.87523 0.0
H3214 H 0.19184 0.30788 0.82903 0.0
H3215 H 0.1654 0.30505 0.84492 0.0
H3216 H 0.11499 0.28366 0.80714 0.0
C3217 C 0.07012 0.26361 0.852 0.0
C3218 C 0.11889 0.27698 0.86045 0.0
C3219 C 0.05541 0.26131 0.86194 0.0
C3220 C 0.17974 0.29826 0.82158 0.0
C3221 C 0.16459 0.29667 0.83069 0.0
C3222 C 0.11625 0.28169 0.82199 0.0
C3223 C 0.08666 0.27451 0.86128 0.0
C3224 C 0.10245 0.27687 0.85092 0.0
C3225 C 0.14857 0.28443 0.82155 0.0
C3226 C 0.13268 0.28198 0.83163 0.0
H3227 H 0.07506 0.2876 0.90559 0.0
H3228 H 0.10045 0.29195 0.88825 0.0
H3229 H 0.08895 0.27951 0.82381 0.0
H3230 H 0.16231 0.26681 0.77986 0.0
H3231 H 0.13589 0.26437 0.79562 0.0
C3232 C 0.5769 0.78096 0.91666 0.0
C3233 C 0.59357 0.79382 0.92102 0.0
C3234 C 0.57216 0.7659 0.92693 0.0
C3235 C 0.58406 0.75045 0.97273 0.0
H3236 H 0.55841 0.69955 0.94594 0.0
C3237 C 0.57882 0.68179 0.00616 0.0
C3238 C 0.5628 0.66773 1.00261 0.0
C3239 C 0.58122 0.69788 0.99708 0.0
C3240 C 0.56534 0.71376 0.95367 0.0
H3241 H 0.61841 0.80077 0.9394 0.0
H3242 H 0.61027 0.77433 0.95705 0.0
H3243 H 0.56548 0.72601 0.92801 0.0
H3244 H 0.53651 0.66 0.98719 0.0
H3245 H 0.5408 0.6881 0.97115 0.0
H3246 H 0.58421 0.73808 0.99832 0.0
C3247 C 0.60072 0.77609 0.94595 0.0
C3248 C 0.56941 0.72892 0.9434 0.0
C3249 C 0.60544 0.79117 0.93573 0.0
C3250 C 0.54909 0.67041 0.99005 0.0
C3251 C 0.55154 0.68649 0.98087 0.0
C3252 C 0.58005 0.73528 0.98298 0.0
C3253 C 0.584 0.76334 0.94175 0.0
C3254 C 0.57899 0.7474 0.95277 0.0
C3255 C 0.5677 0.70029 0.98414 0.0
C3256 C 0.57081 0.71672 0.97353 0.0
H3257 H 0.56741 0.78264 0.90545 0.0
H3258 H 0.55912 0.75645 0.92345 0.0
H3259 H 0.59114 0.7646 0.98046 0.0
H3260 H 0.5898 0.68003 0.01541 0.0
H3261 H 0.59391 0.70809 0.99967 0.0
C3262 C 0.05237 0.76951 0.71987 0.0
C3263 C 0.0387 0.75278 0.71795 0.0
C3264 C 0.06753 0.77203 0.73267 0.0
C3265 C 0.0935 0.74242 0.75245 0.0
H3266 H 0.12188 0.79145 0.78078 0.0
C3267 C 0.16423 0.74845 0.78328 0.0
C3268 C 0.17657 0.76438 0.77945 0.0
C3269 C 0.14638 0.74802 0.78137 0.0
C3270 C 0.11412 0.77765 0.77291 0.0
H3271 H 0.02965 0.72626 0.72894 0.0
H3272 H 0.05617 0.73066 0.75124 0.0
H3273 H 0.09177 0.78913 0.76716 0.0
H3274 H 0.17988 0.79301 0.77212 0.0
H3275 H 0.14877 0.79188 0.76788 0.0
H3276 H 0.11592 0.7311 0.7571 0.0
C3277 C 0.05521 0.7417 0.74269 0.0
C3278 C 0.09688 0.77633 0.76519 0.0
C3279 C 0.04002 0.73922 0.72995 0.0
C3280 C 0.17071 0.78032 0.77475 0.0
C3281 C 0.15284 0.7798 0.77263 0.0
C3282 C 0.11072 0.74377 0.76001 0.0
C3283 C 0.06932 0.75784 0.74375 0.0
C3284 C 0.08654 0.75879 0.75451 0.0
C3285 C 0.14042 0.76339 0.77536 0.0
C3286 C 0.1214 0.7615 0.76994 0.0
H3287 H 0.05171 0.78029 0.71091 0.0
H3288 H 0.07823 0.78454 0.73306 0.0
H3289 H 0.08596 0.72878 0.74403 0.0
H3290 H 0.16821 0.73586 0.78685 0.0
H3291 H 0.13721 0.73531 0.78397 0.0
C3292 C 0.06898 0.3733 0.37555 0.0
C3293 C 0.07005 0.35486 0.37887 0.0
C3294 C 0.06721 0.38733 0.39064 0.0
C3295 C 0.05282 0.39385 0.43851 0.0
H3296 H 0.0827 0.44552 0.4441 0.0
C3297 C 0.05655 0.45391 0.50439 0.0
C3298 C 0.05813 0.47272 0.50062 0.0
C3299 C 0.05753 0.43894 0.48974 0.0
C3300 C 0.07409 0.43124 0.44262 0.0
H3301 H 0.06984 0.33657 0.40055 0.0
H3302 H 0.06667 0.36109 0.42686 0.0
H3303 H 0.08509 0.4206 0.41789 0.0
H3304 H 0.06169 0.49067 0.47866 0.0
H3305 H 0.06277 0.46464 0.45311 0.0
H3306 H 0.04164 0.40457 0.46311 0.0
C3307 C 0.06718 0.36464 0.41258 0.0
C3308 C 0.07549 0.41697 0.42762 0.0
C3309 C 0.0691 0.35066 0.39753 0.0
C3310 C 0.06035 0.47628 0.48197 0.0
C3311 C 0.06119 0.46138 0.46736 0.0
C3312 C 0.05131 0.40819 0.45348 0.0
C3313 C 0.06633 0.38314 0.4093 0.0
C3314 C 0.06483 0.39816 0.42536 0.0
C3315 C 0.06005 0.44259 0.47111 0.0
C3316 C 0.06186 0.42709 0.45562 0.0
H3317 H 0.06964 0.37696 0.36133 0.0
H3318 H 0.06641 0.40143 0.38769 0.0
H3319 H 0.04435 0.37947 0.437 0.0
H3320 H 0.05486 0.45083 0.51869 0.0
H3321 H 0.05674 0.42465 0.49313 0.0
C3322 C 0.44631 0.22642 0.1858 0.0
C3323 C 0.44337 0.23007 0.16702 0.0
C3324 C 0.43319 0.2258 0.19787 0.0
C3325 C 0.38564 0.22325 0.19845 0.0
H3326 H 0.40084 0.25362 0.24961 0.0
C3327 C 0.33571 0.24225 0.24789 0.0
C3328 C 0.33914 0.26217 0.25516 0.0
C3329 C 0.34871 0.23435 0.24003 0.0
C3330 C 0.39639 0.24498 0.23542 0.0
H3331 H 0.42415 0.23524 0.14594 0.0
H3332 H 0.40142 0.23457 0.16706 0.0
H3333 H 0.42261 0.24684 0.22902 0.0
H3334 H 0.35921 0.28913 0.26112 0.0
H3335 H 0.3817 0.27545 0.24738 0.0
H3336 H 0.35942 0.22245 0.20444 0.0
C3337 C 0.41375 0.23187 0.17241 0.0
C3338 C 0.40886 0.24092 0.22367 0.0
C3339 C 0.42684 0.23242 0.16033 0.0
C3340 C 0.35609 0.27376 0.25552 0.0
C3341 C 0.36906 0.26586 0.24777 0.0
C3342 C 0.37316 0.22734 0.21019 0.0
C3343 C 0.41687 0.22887 0.19142 0.0
C3344 C 0.40363 0.23053 0.20483 0.0
C3345 C 0.3654 0.2462 0.23946 0.0
C3346 C 0.37842 0.23879 0.22857 0.0
H3347 H 0.45886 0.22435 0.19134 0.0
H3348 H 0.43593 0.2232 0.21234 0.0
H3349 H 0.3812 0.21492 0.18412 0.0
H3350 H 0.32278 0.23292 0.24749 0.0
H3351 H 0.34557 0.2191 0.23392 0.0
C3352 C 0.63433 0.54395 0.34153 0.0
C3353 C 0.63995 0.52783 0.33266 0.0
C3354 C 0.62574 0.54362 0.3582 0.0
C3355 C 0.60227 0.51008 0.38962 0.0
H3356 H 0.60608 0.55831 0.42422 0.0
C3357 C 0.55662 0.51452 0.45048 0.0
C3358 C 0.56179 0.52827 0.46765 0.0
C3359 C 0.56696 0.51428 0.4352 0.0
C3360 C 0.60486 0.54457 0.41496 0.0
H3361 H 0.64049 0.49846 0.33524 0.0
H3362 H 0.62573 0.49785 0.36437 0.0
H3363 H 0.62223 0.55792 0.39651 0.0
H3364 H 0.58237 0.55305 0.48149 0.0
H3365 H 0.60077 0.55241 0.45518 0.0
H3366 H 0.58529 0.49664 0.40835 0.0
C3367 C 0.62781 0.51089 0.3582 0.0
C3368 C 0.61407 0.54436 0.39861 0.0
C3369 C 0.63645 0.51122 0.34136 0.0
C3370 C 0.57797 0.54191 0.46885 0.0
C3371 C 0.58845 0.54167 0.45344 0.0
C3372 C 0.59309 0.51028 0.40597 0.0
C3373 C 0.62228 0.52716 0.36713 0.0
C3374 C 0.61289 0.52715 0.38534 0.0
C3375 C 0.58316 0.52783 0.43614 0.0
C3376 C 0.59395 0.52757 0.41901 0.0
H3377 H 0.63651 0.5571 0.33552 0.0
H3378 H 0.62156 0.55641 0.36388 0.0
H3379 H 0.60068 0.49642 0.38009 0.0
H3380 H 0.54423 0.50384 0.44866 0.0
H3381 H 0.56185 0.50358 0.42235 0.0
C3382 C 0.2697 0.93144 0.04444 0.0
C3383 C 0.26439 0.92567 0.02457 0.0
C3384 C 0.26484 0.91868 0.05705 0.0
C3385 C 0.25567 0.86721 0.05725 0.0
H3386 H 0.24768 0.88271 0.10988 0.0
C3387 C 0.26051 0.81828 0.11344 0.0
C3388 C 0.27092 0.82786 0.13079 0.0
C3389 C 0.2545 0.82882 0.10041 0.0
C3390 C 0.24988 0.87815 0.09521 0.0
H3391 H 0.2489 0.9024 1.00246 0.0
H3392 H 0.24049 0.88 0.02457 0.0
H3393 H 0.24592 0.90429 0.08674 0.0
H3394 H 0.28292 0.85596 0.14825 0.0
H3395 H 0.27265 0.8743 0.12556 0.0
H3396 H 0.26055 0.84158 0.06586 0.0
C3397 C 0.2485 0.8944 0.03032 0.0
C3398 C 0.24882 0.89047 0.08198 0.0
C3399 C 0.25327 0.90725 0.01769 0.0
C3400 C 0.27473 0.84814 0.13513 0.0
C3401 C 0.26877 0.85866 0.12212 0.0
C3402 C 0.25679 0.85493 0.07049 0.0
C3403 C 0.25463 0.89982 0.05005 0.0
C3404 C 0.25228 0.8854 0.06303 0.0
C3405 C 0.25883 0.84915 0.10447 0.0
C3406 C 0.2545 0.86056 0.08978 0.0
H3407 H 0.27819 0.94559 0.0502 0.0
H3408 H 0.26992 0.92323 0.07214 0.0
H3409 H 0.2586 0.86298 0.04281 0.0
H3410 H 0.25713 0.80265 0.10985 0.0
H3411 H 0.24669 0.82107 0.08704 0.0
C3412 C 0.92999 0.54128 0.85545 0.0
C3413 C 0.93655 0.55352 0.84276 0.0
C3414 C 0.9396 0.54228 0.87321 0.0
C3415 C 0.97657 0.57138 0.90881 0.0
H3416 H 0.98239 0.52115 0.91713 0.0
C3417 C 0.03032 0.56134 0.96494 0.0
C3418 C 0.026 0.54552 0.97442 0.0
C3419 C 0.01851 0.56376 0.95015 0.0
C3420 C 0.98069 0.53528 0.91528 0.0
H3421 H 0.95776 0.57734 0.8393 0.0
H3422 H 0.97456 0.57902 0.87037 0.0
H3423 H 0.96276 0.52335 0.88972 0.0
H3424 H 0.006 0.51995 0.97611 0.0
H3425 H 0.98514 0.52456 0.95105 0.0
H3426 H 0.99462 0.5833 0.93446 0.0
C3427 C 0.96198 0.56866 0.86654 0.0
C3428 C 0.96943 0.53653 0.89953 0.0
C3429 C 0.95239 0.56762 0.84872 0.0
C3430 C 0.0096 0.53239 0.96918 0.0
C3431 C 0.99774 0.53491 0.95462 0.0
C3432 C 0.98778 0.57013 0.92474 0.0
C3433 C 0.95593 0.55559 0.87868 0.0
C3434 C 0.96727 0.55457 0.89608 0.0
C3435 C 1.00214 0.55044 0.94469 0.0
C3436 C 0.99 0.55204 0.92812 0.0
H3437 H 0.91775 0.53038 0.8514 0.0
H3438 H 0.93449 0.53224 0.88245 0.0
H3439 H 0.97509 0.58547 0.90651 0.0
H3440 H 0.04292 0.57167 0.96875 0.0
H3441 H 0.02239 0.57576 0.94266 0.0
C3442 C 0.29175 0.21135 0.55965 0.0
C3443 C 0.27978 0.21567 0.54612 0.0
C3444 C 0.29363 0.21983 0.57903 0.0
C3445 C 0.26936 0.23876 0.61524 0.0
H3446 H 0.31489 0.26286 0.64452 0.0
C3447 C 0.27616 0.27347 0.69542 0.0
C3448 C 0.29065 0.27204 0.70762 0.0
C3449 C 0.27504 0.26782 0.6755 0.0
C3450 C 0.30207 0.25592 0.63668 0.0
H3451 H 0.2605 0.2324 0.54226 0.0
H3452 H 0.26352 0.24689 0.5763 0.0
H3453 H 0.3128 0.25078 0.61015 0.0
H3454 H 0.31518 0.26323 0.70849 0.0
H3455 H 0.31289 0.25262 0.67398 0.0
H3456 H 0.25859 0.24303 0.64171 0.0
C3457 C 0.27153 0.23705 0.5718 0.0
C3458 C 0.30091 0.24914 0.61695 0.0
C3459 C 0.26988 0.22885 0.55233 0.0
C3460 C 0.30391 0.26469 0.69948 0.0
C3461 C 0.30265 0.25873 0.67961 0.0
C3462 C 0.27053 0.24524 0.63503 0.0
C3463 C 0.28335 0.23253 0.58532 0.0
C3464 C 0.28455 0.24046 0.60607 0.0
C3465 C 0.28824 0.26028 0.6673 0.0
C3466 C 0.28692 0.25385 0.64607 0.0
H3467 H 0.29958 0.20128 0.55528 0.0
H3468 H 0.30276 0.21603 0.5892 0.0
H3469 H 0.2566 0.2319 0.60719 0.0
H3470 H 0.26581 0.27926 0.70124 0.0
H3471 H 0.2639 0.26959 0.66653 0.0
C3472 C 0.63376 0.52558 0.21876 0.0
C3473 C 0.63971 0.50863 0.21942 0.0
C3474 C 0.62488 0.5286 0.2016 0.0
C3475 C 0.61505 0.50855 0.1474 0.0
H3476 H 0.58332 0.54242 0.14836 0.0
C3477 C 0.5712 0.51296 0.07759 0.0
C3478 C 0.56905 0.53124 0.07452 0.0
C3479 C 0.57943 0.51046 0.09525 0.0
C3480 C 0.59223 0.53298 0.14771 0.0
H3481 H 0.64016 0.4813 0.20216 0.0
H3482 H 0.62431 0.48596 0.17311 0.0
H3483 H 0.59771 0.53761 0.17852 0.0
H3484 H 0.57393 0.56117 0.08848 0.0
H3485 H 0.5879 0.55677 0.11916 0.0
H3486 H 0.60924 0.50365 0.11659 0.0
C3487 C 0.62697 0.4975 0.18544 0.0
C3488 C 0.60064 0.53023 0.16521 0.0
C3489 C 0.63601 0.49465 0.20242 0.0
C3490 C 0.57523 0.54684 0.09004 0.0
C3491 C 0.58325 0.54428 0.10782 0.0
C3492 C 0.60646 0.5111 0.12998 0.0
C3493 C 0.6214 0.51467 0.1844 0.0
C3494 C 0.61228 0.51789 0.16554 0.0
C3495 C 0.58568 0.52606 0.11077 0.0
C3496 C 0.59485 0.52336 0.1297 0.0
H3497 H 0.63641 0.53684 0.23138 0.0
H3498 H 0.62117 0.54216 0.2018 0.0
H3499 H 0.62415 0.49937 0.14646 0.0
H3500 H 0.5667 0.50049 0.06619 0.0
H3501 H 0.58076 0.49612 0.09678 0.0
C3502 C 0.3094 0.92169 0.94542 0.0
C3503 C 0.30845 0.9175 0.96406 0.0
C3504 C 0.31164 0.90781 0.93046 0.0
C3505 C 0.30286 0.85593 0.91452 0.0
H3506 H 0.33563 0.86953 0.87828 0.0
C3507 C 0.30423 0.80182 0.84635 0.0
C3508 C 0.30464 0.80972 0.82944 0.0
C3509 C 0.30816 0.81397 0.86434 0.0
C3510 C 0.32636 0.8655 0.88822 0.0
H3511 H 0.30911 0.89548 0.98166 0.0
H3512 H 0.31269 0.87108 0.95534 0.0
H3513 H 0.3353 0.89306 0.90679 0.0
H3514 H 0.31037 0.83635 0.81796 0.0
H3515 H 0.3168 0.85744 0.84907 0.0
H3516 H 0.29323 0.82879 0.89557 0.0
C3517 C 0.31182 0.88517 0.95241 0.0
C3518 C 0.32621 0.87897 0.90454 0.0
C3519 C 0.30982 0.89915 0.96745 0.0
C3520 C 0.30991 0.82985 0.83078 0.0
C3521 C 0.31374 0.84196 0.84867 0.0
C3522 C 0.30285 0.84253 0.89807 0.0
C3523 C 0.31276 0.88939 0.93379 0.0
C3524 C 0.31421 0.87445 0.91762 0.0
C3525 C 0.31253 0.83421 0.86569 0.0
C3526 C 0.31432 0.84732 0.88448 0.0
H3527 H 0.30842 0.93571 0.94237 0.0
H3528 H 0.31212 0.91135 0.91617 0.0
H3529 H 0.29339 0.85214 0.92433 0.0
H3530 H 0.3003 0.78632 0.84569 0.0
H3531 H 0.30739 0.80752 0.87717 0.0
C3532 C 0.98603 0.59175 0.7613 0.0
C3533 C 0.97386 0.57409 0.76093 0.0
C3534 C 1.00096 0.59223 0.75189 0.0
C3535 C 0.02901 0.56126 0.73271 0.0
H3536 H 0.03526 0.59293 0.69311 0.0
C3537 C 0.05422 0.53774 0.6627 0.0
C3538 C 0.06399 0.55146 0.65327 0.0
C3539 C 0.04813 0.54356 0.67993 0.0
C3540 C 0.03406 0.58436 0.70443 0.0
H3541 H 0.96797 0.54309 0.75074 0.0
H3542 H 0.9939 0.54396 0.73455 0.0
H3543 H 0.01497 0.598 0.71635 0.0
H3544 H 0.07577 0.58195 0.65483 0.0
H3545 H 0.06504 0.59222 0.68515 0.0
H3546 H 0.04746 0.54701 0.72032 0.0
C3547 C 0.99199 0.55741 0.74214 0.0
C3548 C 0.02242 0.58725 0.71771 0.0
C3549 C 0.97703 0.55695 0.75125 0.0
C3550 C 0.06829 0.57108 0.66187 0.0
C3551 C 0.06207 0.57696 0.67912 0.0
C3552 C 0.04069 0.55843 0.71953 0.0
C3553 C 1.00408 0.57501 0.74232 0.0
C3554 C 0.01921 0.57512 0.73139 0.0
C3555 C 0.05162 0.56327 0.68811 0.0
C3556 C 0.04271 0.56933 0.7047 0.0
H3557 H 0.98392 0.60517 0.76868 0.0
H3558 H 0.01009 0.60598 0.75214 0.0
H3559 H 0.02698 0.55194 0.74337 0.0
H3560 H 0.05089 0.5225 0.65646 0.0
H3561 H 0.03991 0.53266 0.68633 0.0
C3562 C 0.26442 0.21771 0.44446 0.0
C3563 C 0.27217 0.2029 0.44884 0.0
C3564 C 0.26803 0.22597 0.42818 0.0
C3565 C 0.28018 0.21621 0.38024 0.0
H3566 H 0.29821 0.2717 0.38565 0.0
C3567 C 0.28454 0.25943 0.31704 0.0
C3568 C 0.30107 0.2716 0.31661 0.0
C3569 C 0.28118 0.25016 0.33276 0.0
C3570 C 0.29319 0.25619 0.38397 0.0
H3571 H 0.28952 0.18489 0.43945 0.0
H3572 H 0.29538 0.19898 0.41068 0.0
H3573 H 0.29159 0.25731 0.41416 0.0
H3574 H 0.32709 0.28361 0.33223 0.0
H3575 H 0.32101 0.26792 0.36002 0.0
H3576 H 0.28141 0.21517 0.34998 0.0
C3577 C 0.2867 0.20431 0.42 0.0
C3578 C 0.28933 0.248 0.40021 0.0
C3579 C 0.28342 0.19635 0.4365 0.0
C3580 C 0.31422 0.27428 0.33215 0.0
C3581 C 0.31075 0.26537 0.34805 0.0
C3582 C 0.28368 0.22445 0.36393 0.0
C3583 C 0.27912 0.21926 0.41577 0.0
C3584 C 0.28289 0.22793 0.3985 0.0
C3585 C 0.29419 0.2533 0.34852 0.0
C3586 C 0.29033 0.2445 0.36569 0.0
H3587 H 0.25574 0.22308 0.45373 0.0
H3588 H 0.26198 0.23745 0.42515 0.0
H3589 H 0.27516 0.2007 0.37858 0.0
H3590 H 0.27413 0.25723 0.30534 0.0
H3591 H 0.26828 0.24099 0.33286 0.0
C3592 C 0.32958 0.6184 0.52813 0.0
C3593 C 0.33446 0.63871 0.53247 0.0
C3594 C 0.34223 0.60771 0.52912 0.0
C3595 C 0.38867 0.61179 0.52542 0.0
H3596 H 0.38157 0.56485 0.54723 0.0
C3597 C 0.44231 0.5703 0.53004 0.0
C3598 C 0.43712 0.55002 0.52504 0.0
C3599 C 0.4299 0.58111 0.53288 0.0
C3600 C 0.38366 0.57782 0.54093 0.0
H3601 H 0.35638 0.66373 0.54167 0.0
H3602 H 0.37848 0.645 0.5433 0.0
H3603 H 0.35961 0.58393 0.54878 0.0
H3604 H 0.41479 0.52521 0.51969 0.0
H3605 H 0.39301 0.5442 0.52402 0.0
H3606 H 0.41241 0.60557 0.51712 0.0
C3607 C 0.36487 0.6374 0.53902 0.0
C3608 C 0.37112 0.58876 0.54187 0.0
C3609 C 0.35221 0.6481 0.53816 0.0
C3610 C 0.41921 0.54081 0.52332 0.0
C3611 C 0.40675 0.55168 0.52603 0.0
C3612 C 0.40112 0.60083 0.52438 0.0
C3613 C 0.36001 0.61711 0.53435 0.0
C3614 C 0.37351 0.60583 0.53409 0.0
C3615 C 0.41196 0.57198 0.53058 0.0
C3616 C 0.39877 0.58371 0.53211 0.0
H3617 H 0.316 0.61073 0.52376 0.0
H3618 H 0.33813 0.5921 0.52526 0.0
H3619 H 0.39069 0.62469 0.51899 0.0
H3620 H 0.45595 0.57794 0.53121 0.0
H3621 H 0.43439 0.5967 0.53668 0.0
C3622 C 0.87194 0.92639 0.53055 0.0
C3623 C 0.85989 0.93167 0.54251 0.0
C3624 C 0.88839 0.93878 0.53102 0.0
C3625 C 0.92222 0.97689 0.56076 0.0
H3626 H 0.93635 0.98938 0.51228 0.0
C3627 C 0.98864 0.02965 0.55579 0.0
C3628 C 0.997 0.02551 0.53953 0.0
C3629 C 0.97174 0.01891 0.55702 0.0
C3630 C 0.93279 0.98583 0.52593 0.0
H3631 H 0.85577 0.95391 0.56463 0.0
H3632 H 0.88491 0.97549 0.56576 0.0
H3633 H 0.90727 0.96926 0.51299 0.0
H3634 H 0.99435 1.00683 0.5119 0.0
H3635 H 0.96548 0.98749 0.51445 0.0
H3636 H 0.94796 0.9928 0.57366 0.0
C3637 C 0.88142 0.96179 0.55592 0.0
C3638 C 0.91605 0.97442 0.52631 0.0
C3639 C 0.86477 0.9495 0.55521 0.0
C3640 C 0.98831 0.01025 0.52471 0.0
C3641 C 0.9716 0.99935 0.52605 0.0
C3642 C 0.93913 0.98809 0.56035 0.0
C3643 C 0.89328 0.95659 0.54367 0.0
C3644 C 0.91066 0.9697 0.54368 0.0
C3645 C 0.96293 1.0037 0.54207 0.0
C3646 C 0.94471 0.99252 0.54287 0.0
H3647 H 0.86857 0.91277 0.52058 0.0
H3648 H 0.89736 0.9344 0.52153 0.0
H3649 H 0.91837 0.97333 0.57432 0.0
H3650 H 0.99502 0.04145 0.56737 0.0
H3651 H 0.96544 0.02285 0.56947 0.0
C3652 C 0.90355 0.13404 0.25615 0.0
C3653 C 0.8964 0.11515 0.2595 0.0
C3654 C 0.89396 0.14847 0.25722 0.0
C3655 C 0.848 0.15718 0.25876 0.0
H3656 H 0.87385 0.21071 0.27342 0.0
C3657 C 0.81161 0.22102 0.26988 0.0
C3658 C 0.8197 0.23956 0.26633 0.0
C3659 C 0.82052 0.2059 0.26928 0.0
C3660 C 0.86623 0.19594 0.269 0.0
H3661 H 0.87274 0.09726 0.26664 0.0
H3662 H 0.85603 0.12235 0.26868 0.0
H3663 H 0.88933 0.18511 0.27227 0.0
H3664 H 0.84404 0.25594 0.25906 0.0
H3665 H 0.85939 0.23003 0.25795 0.0
H3666 H 0.82485 0.16813 0.25559 0.0
C3667 C 0.86925 0.126 0.26499 0.0
C3668 C 0.87527 0.18096 0.26832 0.0
C3669 C 0.87894 0.11143 0.26392 0.0
C3670 C 0.83718 0.24217 0.26212 0.0
C3671 C 0.84612 0.22707 0.26156 0.0
C3672 C 0.83893 0.17221 0.25945 0.0
C3673 C 0.87656 0.145 0.26177 0.0
C3674 C 0.86646 0.16113 0.26305 0.0
C3675 C 0.83805 0.20847 0.26511 0.0
C3676 C 0.84779 0.19205 0.2645 0.0
H3677 H 0.9168 0.13785 0.25257 0.0
H3678 H 0.90031 0.16243 0.25413 0.0
H3679 H 0.84042 0.14239 0.2544 0.0
H3680 H 0.79823 0.21808 0.27318 0.0
H3681 H 0.81359 0.19218 0.2724 0.0
C3682 C 0.70745 0.11217 0.98279 0.0
C3683 C 0.7176 0.10208 0.99261 0.0
C3684 C 0.68982 0.10377 0.97611 0.0
C3685 C 0.65505 0.05854 0.96597 0.0
H3686 H 0.62626 0.09144 0.98725 0.0
C3687 C 0.58465 0.02929 0.98171 0.0
C3688 C 0.57343 0.04188 0.98355 0.0
C3689 C 0.60145 0.03564 0.97674 0.0
C3690 C 0.63391 0.08214 0.98063 0.0
H3691 H 0.71757 0.07477 1.00192 0.0
H3692 H 0.68664 0.06011 0.99025 0.0
H3693 H 0.65756 0.10416 0.98946 0.0
H3694 H 0.57001 0.06999 0.97937 0.0
H3695 H 0.59888 0.0807 0.96951 0.0
H3696 H 0.63132 0.03639 0.95729 0.0
C3697 C 0.69239 0.07451 0.98773 0.0
C3698 C 0.65195 0.08947 0.98203 0.0
C3699 C 0.71005 0.08296 0.99453 0.0
C3700 C 0.57857 0.06015 0.97841 0.0
C3701 C 0.59518 0.06632 0.97293 0.0
C3702 C 0.63687 0.05123 0.96428 0.0
C3703 C 0.682 0.08508 0.97899 0.0
C3704 C 0.66274 0.07765 0.97511 0.0
C3705 C 0.6072 0.05456 0.97308 0.0
C3706 C 0.6261 0.06282 0.97202 0.0
H3707 H 0.7129 0.12685 0.98087 0.0
H3708 H 0.68213 0.11215 0.96924 0.0
H3709 H 0.66311 0.04919 0.9604 0.0
H3710 H 0.58097 0.01505 0.9855 0.0
H3711 H 0.61026 0.02614 0.9771 0.0
C3712 C 0.18661 0.47581 0.2771 0.0
C3713 C 0.19191 0.49545 0.27577 0.0
C3714 C 0.19892 0.46594 0.28295 0.0
C3715 C 0.24592 0.46835 0.2838 0.0
H3716 H 0.23557 0.42688 0.31316 0.0
C3717 C 0.29471 0.42179 0.2965 0.0
C3718 C 0.2872 0.40181 0.2919 0.0
C3719 C 0.28401 0.43481 0.29863 0.0
C3720 C 0.23863 0.43845 0.30497 0.0
H3721 H 0.21409 0.52046 0.28056 0.0
H3722 H 0.23544 0.50334 0.29102 0.0
H3723 H 0.21476 0.44692 0.30937 0.0
H3724 H 0.26279 0.37972 0.28707 0.0
H3725 H 0.24416 0.40236 0.29052 0.0
H3726 H 0.26952 0.45961 0.27893 0.0
C3727 C 0.22187 0.49543 0.28713 0.0
C3728 C 0.22672 0.44987 0.30276 0.0
C3729 C 0.20961 0.50524 0.28118 0.0
C3730 C 0.26891 0.39507 0.29033 0.0
C3731 C 0.25825 0.40803 0.29255 0.0
C3732 C 0.25782 0.45698 0.28604 0.0
C3733 C 0.21674 0.47558 0.28768 0.0
C3734 C 0.23008 0.4647 0.29182 0.0
C3735 C 0.26566 0.42804 0.29636 0.0
C3736 C 0.25414 0.44165 0.2963 0.0
H3737 H 0.17306 0.46789 0.27305 0.0
H3738 H 0.19456 0.4506 0.28303 0.0
H3739 H 0.24879 0.47946 0.27503 0.0
H3740 H 0.30878 0.42736 0.2978 0.0
H3741 H 0.29008 0.45017 0.30173 0.0
C3742 C 0.24323 0.41149 0.03927 0.0
C3743 C 0.26052 0.42292 0.04178 0.0
C3744 C 0.22902 0.42005 0.03911 0.0
C3745 C 0.21695 0.46636 0.05365 0.0
H3746 H 0.17661 0.44353 0.01518 0.0
C3747 C 0.16386 0.50664 0.03604 0.0
C3748 C 0.14629 0.49604 0.03182 0.0
C3749 C 0.17735 0.49729 0.03861 0.0
C3750 C 0.18764 0.44993 0.02621 0.0
H3751 H 0.2764 0.45236 0.04625 0.0
H3752 H 0.25158 0.46729 0.04582 0.0
H3753 H 0.20107 0.42816 0.01695 0.0
H3754 H 0.1291 0.46727 0.02735 0.0
H3755 H 0.15268 0.45091 0.03212 0.0
H3756 H 0.20359 0.48823 0.06279 0.0
C3757 C 0.24903 0.4517 0.04418 0.0
C3758 C 0.20169 0.44113 0.02721 0.0
C3759 C 0.26326 0.44313 0.04431 0.0
C3760 C 0.14249 0.47587 0.03067 0.0
C3761 C 0.15601 0.46648 0.03321 0.0
C3762 C 0.2029 0.47516 0.05266 0.0
C3763 C 0.23173 0.44025 0.04149 0.0
C3764 C 0.21657 0.44932 0.04084 0.0
C3765 C 0.17362 0.47708 0.03704 0.0
C3766 C 0.18814 0.46714 0.03882 0.0
H3767 H 0.24064 0.39587 0.03736 0.0
H3768 H 0.21588 0.41082 0.03726 0.0
H3769 H 0.22808 0.47286 0.06453 0.0
H3770 H 0.16723 0.52223 0.0373 0.0
H3771 H 0.19075 0.50589 0.04136 0.0
C3772 C 0.89487 0.97929 0.24722 0.0
C3773 C 0.89006 0.99656 0.25407 0.0
C3774 C 0.88484 0.96107 0.24925 0.0
C3775 C 0.84888 0.93634 0.27566 0.0
H3776 H 0.84876 0.89172 0.23749 0.0
C3777 C 0.80201 0.85998 0.27394 0.0
C3778 C 0.80798 0.84319 0.26841 0.0
C3779 C 0.81212 0.87854 0.27289 0.0
C3780 C 0.84875 0.90389 0.24849 0.0
H3781 H 0.87042 1.00761 0.26858 0.0
H3782 H 0.85265 0.97583 0.27176 0.0
H3783 H 0.86505 0.92365 0.23399 0.0
H3784 H 0.82928 0.83316 0.2566 0.0
H3785 H 0.84711 0.86535 0.25506 0.0
H3786 H 0.83225 0.91645 0.28993 0.0
C3787 C 0.86449 0.97641 0.26501 0.0
C3788 C 0.85823 0.92246 0.2465 0.0
C3789 C 0.87466 0.99479 0.26306 0.0
C3790 C 0.82446 0.84564 0.26167 0.0
C3791 C 0.83456 0.86423 0.26043 0.0
C3792 C 0.83928 0.91776 0.27757 0.0
C3793 C 0.86936 0.95909 0.25811 0.0
C3794 C 0.85863 0.93915 0.26009 0.0
C3795 C 0.82857 0.8811 0.26595 0.0
C3796 C 0.83906 0.90111 0.26406 0.0
H3797 H 0.90665 0.97978 0.24036 0.0
H3798 H 0.88955 0.94849 0.24408 0.0
H3799 H 0.84888 0.94848 0.2867 0.0
H3800 H 0.7893 0.85877 0.27896 0.0
H3801 H 0.80674 0.89087 0.27705 0.0
C3802 C 0.67383 0.09897 0.77071 0.0
C3803 C 0.67511 0.08871 0.78589 0.0
C3804 C 0.68296 0.11826 0.77271 0.0
C3805 C 0.72206 0.15286 0.79971 0.0
H3806 H 0.70338 0.18902 0.7739 0.0
C3807 C 0.76195 0.23053 0.79595 0.0
C3808 C 0.76116 0.23493 0.77728 0.0
C3809 C 0.7508 0.21382 0.79977 0.0
C3810 C 0.70875 0.17908 0.7812 0.0
H3811 H 0.68645 0.09089 0.81538 0.0
H3812 H 0.70231 0.12476 0.81894 0.0
H3813 H 0.68425 0.15799 0.77619 0.0
H3814 H 0.74811 0.22526 0.74802 0.0
H3815 H 0.72875 0.19633 0.75472 0.0
H3816 H 0.74668 0.17396 0.8044 0.0
C3817 C 0.69441 0.11774 0.80539 0.0
C3818 C 0.69782 0.16131 0.78248 0.0
C3819 C 0.68525 0.09838 0.80338 0.0
C3820 C 0.74909 0.2223 0.76255 0.0
C3821 C 0.73788 0.2058 0.76641 0.0
C3822 C 0.73299 0.17074 0.79853 0.0
C3823 C 0.69357 0.1278 0.78997 0.0
C3824 C 0.70447 0.14774 0.79123 0.0
C3825 C 0.73853 0.20144 0.78505 0.0
C3826 C 0.72654 0.18375 0.78875 0.0
H3827 H 0.66614 0.09198 0.75704 0.0
H3828 H 0.68221 0.12546 0.76044 0.0
H3829 H 0.72764 0.14269 0.80641 0.0
H3830 H 0.77113 0.23998 0.80761 0.0
H3831 H 0.75157 0.21076 0.81427 0.0
loop_
_geom_bond_atom_site_label_1
_geom_bond_atom_site_label_2
_geom_bond_distance
_geom_bond_site_symmetry_2
_ccdc_geom_bond_type
C0 O1 1.160 . S
C0 O7 1.185 . S
O1 C0 1.160 . S
O2 Zn3 1.899 . S
O2 C10 1.284 . S
Zn3 O2 1.899 . S
Zn3 O4 2.032 . S
Zn3 O7 2.086 . S
Zn3 O12 1.977 . S
O4 Zn3 2.032 . S
O4 C8 1.278 . S
C5 O6 1.203 . S
C5 O12 1.267 . S
O6 C5 1.203 . S
O7 C0 1.185 . S
O7 Zn3 2.086 . S
C8 O4 1.278 . S
C8 O9 1.211 . S
O9 C8 1.211 . S
C10 O2 1.284 . S
C10 O11 1.273 . S
O11 C10 1.273 . S
O12 Zn3 1.977 . S
O12 C5 1.267 . S
C13 O14 1.160 . S
C13 O20 1.185 . S
O14 C13 1.160 . S
O15 Zn16 1.899 . S
O15 C23 1.284 . S
Zn16 O15 1.899 . S
Zn16 O17 2.032 . S
Zn16 O20 2.086 . S
Zn16 O25 1.977 1_655 S
O17 Zn16 2.032 . S
O17 C21 1.278 1_655 S
C18 O19 1.203 . S
C18 O25 1.267 . S
O19 C18 1.203 . S
O20 C13 1.185 . S
O20 Zn16 2.086 . S
C21 O17 1.278 1_455 S
C21 O22 1.211 . S
O22 C21 1.211 . S
C23 O15 1.284 . S
C23 O24 1.273 1_655 S
O24 C23 1.273 1_455 S
O25 Zn16 1.977 1_455 S
O25 C18 1.267 . S
C26 O27 1.160 . S
C26 O33 1.185 . S
O27 C26 1.160 . S
O28 Zn29 1.899 . S
O28 C36 1.284 . S
Zn29 O28 1.899 . S
Zn29 O30 2.032 . S
Zn29 O33 2.086 . S
Zn29 O38 1.977 . S
O30 Zn29 2.032 . S
O30 C34 1.278 . S
C31 O32 1.203 . S
C31 O38 1.267 . S
O32 C31 1.203 . S
O33 C26 1.185 . S
O33 Zn29 2.086 . S
C34 O30 1.278 . S
C34 O35 1.211 . S
O35 C34 1.211 . S
C36 O28 1.284 . S
C36 O37 1.273 . S
O37 C36 1.273 . S
O38 Zn29 1.977 . S
O38 C31 1.267 . S
C39 O40 1.160 . S
C39 O46 1.185 . S
O40 C39 1.160 . S
O41 Zn42 1.899 . S
O41 C49 1.284 . S
Zn42 O41 1.899 . S
Zn42 O43 2.032 . S
Zn42 O46 2.086 . S
Zn42 O51 1.977 . S
O43 Zn42 2.032 . S
O43 C47 1.278 . S
C44 O45 1.203 . S
C44 O51 1.267 . S
O45 C44 1.203 . S
O46 C39 1.185 . S
O46 Zn42 2.086 . S
C47 O43 1.278 . S
C47 O48 1.211 . S
O48 C47 1.211 . S
C49 O41 1.284 . S
C49 O50 1.273 . S
O50 C49 1.273 . S
O51 Zn42 1.977 . S
O51 C44 1.267 . S
C52 O53 1.160 . S
C52 O59 1.185 . S
O53 C52 1.160 . S
O54 Zn55 1.899 . S
O54 C62 1.284 . S
Zn55 O54 1.899 . S
Zn55 O56 2.032 . S
Zn55 O59 2.086 . S
Zn55 O64 1.977 . S
O56 Zn55 2.032 . S
O56 C60 1.278 . S
C57 O58 1.203 . S
C57 O64 1.267 . S
O58 C57 1.203 . S
O59 C52 1.185 . S
O59 Zn55 2.086 . S
C60 O56 1.278 . S
C60 O61 1.211 . S
O61 C60 1.211 . S
C62 O54 1.284 . S
C62 O63 1.273 . S
O63 C62 1.273 . S
O64 Zn55 1.977 . S
O64 C57 1.267 . S
C65 O66 1.160 . S
C65 O72 1.185 . S
O66 C65 1.160 . S
O67 Zn68 1.899 . S
O67 C75 1.284 . S
Zn68 O67 1.899 . S
Zn68 O69 2.032 . S
Zn68 O72 2.086 . S
Zn68 O77 1.977 . S
O69 Zn68 2.032 . S
O69 C73 1.278 . S
C70 O71 1.203 . S
C70 O77 1.267 . S
O71 C70 1.203 . S
O72 C65 1.185 . S
O72 Zn68 2.086 . S
C73 O69 1.278 . S
C73 O74 1.211 . S
O74 C73 1.211 . S
C75 O67 1.284 . S
C75 O76 1.273 . S
O76 C75 1.273 . S
O77 Zn68 1.977 . S
O77 C70 1.267 . S
C78 O79 1.160 . S
C78 O85 1.185 . S
O79 C78 1.160 . S
O80 Zn81 1.899 . S
O80 C88 1.284 . S
Zn81 O80 1.899 . S
Zn81 O82 2.032 . S
Zn81 O85 2.086 . S
Zn81 O90 1.977 . S
O82 Zn81 2.032 . S
O82 C86 1.278 . S
C83 O84 1.203 . S
C83 O90 1.267 . S
O84 C83 1.203 . S
O85 C78 1.185 . S
O85 Zn81 2.086 . S
C86 O82 1.278 . S
C86 O87 1.211 . S
O87 C86 1.211 . S
C88 O80 1.284 . S
C88 O89 1.273 . S
O89 C88 1.273 . S
O90 Zn81 1.977 . S
O90 C83 1.267 . S
C91 O92 1.160 . S
C91 O98 1.185 . S
O92 C91 1.160 . S
O93 Zn94 1.899 . S
O93 C101 1.284 . S
Zn94 O93 1.899 . S
Zn94 O95 2.032 . S
Zn94 O98 2.086 . S
Zn94 O103 1.977 1_455 S
O95 Zn94 2.032 . S
O95 C99 1.278 . S
C96 O97 1.203 . S
C96 O103 1.267 . S
O97 C96 1.203 . S
O98 C91 1.185 . S
O98 Zn94 2.086 . S
C99 O95 1.278 . S
C99 O100 1.216 1_455 S
O100 C99 1.216 1_655 S
C101 O93 1.284 . S
C101 O102 1.273 . S
O102 C101 1.273 . S
O103 Zn94 1.977 1_655 S
O103 C96 1.267 . S
C104 O105 1.160 . S
C104 O111 1.185 . S
O105 C104 1.160 . S
O106 Zn107 1.899 . S
O106 C114 1.284 . S
Zn107 O106 1.899 . S
Zn107 O108 2.032 . S
Zn107 O111 2.086 . S
Zn107 O116 1.977 1_545 S
O108 Zn107 2.032 . S
O108 C112 1.278 . S
C109 O110 1.203 . S
C109 O116 1.267 . S
O110 C109 1.203 . S
O111 C104 1.185 . S
O111 Zn107 2.086 . S
C112 O108 1.278 . S
C112 O113 1.211 1_545 S
O113 C112 1.211 1_565 S
C114 O106 1.284 . S
C114 O115 1.273 . S
O115 C114 1.273 . S
O116 Zn107 1.977 1_565 S
O116 C109 1.267 . S
C117 O118 1.160 . S
C117 O124 1.185 . S
O118 C117 1.160 . S
O119 Zn120 1.899 . S
O119 C127 1.284 . S
Zn120 O119 1.899 . S
Zn120 O121 2.032 . S
Zn120 O124 2.086 . S
Zn120 O129 1.977 . S
O121 Zn120 2.032 . S
O121 C125 1.278 . S
C122 O123 1.203 . S
C122 O129 1.267 . S
O123 C122 1.203 . S
O124 C117 1.185 . S
O124 Zn120 2.086 . S
C125 O121 1.278 . S
C125 O126 1.211 . S
O126 C125 1.211 . S
C127 O119 1.284 . S
C127 O128 1.273 . S
O128 C127 1.273 . S
O129 Zn120 1.977 . S
O129 C122 1.267 . S
C130 O131 1.160 . S
C130 O137 1.185 . S
O131 C130 1.160 . S
O132 Zn133 1.899 . S
O132 C140 1.284 . S
Zn133 O132 1.899 . S
Zn133 O134 2.032 . S
Zn133 O137 2.086 . S
Zn133 O142 1.977 1_565 S
O134 Zn133 2.032 . S
O134 C138 1.278 1_565 S
C135 O136 1.203 . S
C135 O142 1.267 . S
O136 C135 1.203 . S
O137 C130 1.185 . S
O137 Zn133 2.086 . S
C138 O134 1.278 1_545 S
C138 O139 1.211 . S
O139 C138 1.211 . S
C140 O132 1.284 . S
C140 O141 1.273 1_565 S
O141 C140 1.273 1_545 S
O142 Zn133 1.977 1_545 S
O142 C135 1.267 . S
C143 O144 1.160 . S
C143 O150 1.185 . S
O144 C143 1.160 . S
O145 Zn146 1.899 . S
O145 C153 1.284 . S
Zn146 O145 1.899 . S
Zn146 O147 2.032 1_554 S
Zn146 O150 2.086 . S
Zn146 O155 1.977 . S
O147 Zn146 2.032 1_556 S
O147 C151 1.278 . S
C148 O149 1.203 . S
C148 O155 1.267 . S
O149 C148 1.203 . S
O150 C143 1.185 . S
O150 Zn146 2.086 . S
C151 O147 1.278 . S
C151 O152 1.211 . S
O152 C151 1.211 . S
C153 O145 1.284 . S
C153 O154 1.273 . S
O154 C153 1.273 . S
O155 Zn146 1.977 . S
O155 C148 1.267 . S
C156 O157 1.160 . S
C156 O163 1.185 . S
O157 C156 1.160 . S
O158 Zn159 1.899 . S
O158 C166 1.284 . S
Zn159 O158 1.899 . S
Zn159 O160 2.032 1_554 S
Zn159 O163 2.086 . S
Zn159 O168 1.977 . S
O160 Zn159 2.032 1_556 S
O160 C164 1.278 . S
C161 O162 1.203 . S
C161 O168 1.267 . S
O162 C161 1.203 . S
O163 C156 1.185 . S
O163 Zn159 2.086 . S
C164 O160 1.278 . S
C164 O165 1.211 . S
O165 C164 1.211 . S
C166 O158 1.284 . S
C166 O167 1.273 . S
O167 C166 1.273 . S
O168 Zn159 1.977 . S
O168 C161 1.267 . S
C169 O170 1.160 . S
C169 O176 1.185 . S
O170 C169 1.160 . S
O171 Zn172 1.899 . S
O171 C179 1.284 . S
Zn172 O171 1.899 . S
Zn172 O173 2.032 1_554 S
Zn172 O176 2.086 . S
Zn172 O181 1.977 . S
O173 Zn172 2.032 1_556 S
O173 C177 1.278 . S
C174 O175 1.203 . S
C174 O181 1.267 . S
O175 C174 1.203 . S
O176 C169 1.185 . S
O176 Zn172 2.086 . S
C177 O173 1.278 . S
C177 O178 1.211 . S
O178 C177 1.211 . S
C179 O171 1.284 . S
C179 O180 1.273 . S
O180 C179 1.273 . S
O181 Zn172 1.977 . S
O181 C174 1.267 . S
C182 O183 1.160 . S
C182 O189 1.185 . S
O183 C182 1.160 . S
O184 Zn185 1.899 . S
O184 C192 1.284 . S
Zn185 O184 1.899 . S
Zn185 O186 2.032 . S
Zn185 O189 2.086 . S
Zn185 O194 1.977 . S
O186 Zn185 2.032 . S
O186 C190 1.278 . S
C187 O188 1.203 . S
C187 O194 1.267 . S
O188 C187 1.203 . S
O189 C182 1.185 . S
O189 Zn185 2.086 . S
C190 O186 1.278 . S
C190 O191 1.211 . S
O191 C190 1.211 . S
C192 O184 1.284 . S
C192 O193 1.273 . S
O193 C192 1.273 . S
O194 Zn185 1.977 . S
O194 C187 1.267 . S
C195 O196 1.160 . S
C195 O202 1.185 . S
O196 C195 1.160 . S
O197 Zn198 1.899 . S
O197 C205 1.284 . S
Zn198 O197 1.899 . S
Zn198 O199 2.032 . S
Zn198 O202 2.086 . S
Zn198 O207 1.977 . S
O199 Zn198 2.032 . S
O199 C203 1.278 . S
C200 O201 1.203 . S
C200 O207 1.267 . S
O201 C200 1.203 . S
O202 C195 1.185 . S
O202 Zn198 2.086 . S
C203 O199 1.278 . S
C203 O204 1.211 . S
O204 C203 1.211 . S
C205 O197 1.284 . S
C205 O206 1.273 . S
O206 C205 1.273 . S
O207 Zn198 1.977 . S
O207 C200 1.267 . S
C208 O209 1.160 . S
C208 O215 1.185 . S
O209 C208 1.160 . S
O210 Zn211 1.899 . S
O210 C218 1.284 . S
Zn211 O210 1.899 . S
Zn211 O212 2.032 . S
Zn211 O215 2.086 . S
Zn211 O220 1.977 . S
O212 Zn211 2.032 . S
O212 C216 1.278 . S
C213 O214 1.203 . S
C213 O220 1.267 . S
O214 C213 1.203 . S
O215 C208 1.185 . S
O215 Zn211 2.086 . S
C216 O212 1.278 . S
C216 O217 1.211 . S
O217 C216 1.211 . S
C218 O210 1.284 . S
C218 O219 1.273 . S
O219 C218 1.273 . S
O220 Zn211 1.977 . S
O220 C213 1.267 . S
C221 O222 1.160 . S
C221 O228 1.185 . S
O222 C221 1.160 . S
O223 Zn224 1.899 . S
O223 C231 1.284 . S
Zn224 O223 1.899 . S
Zn224 O225 2.032 . S
Zn224 O228 2.086 . S
Zn224 O233 1.977 . S
O225 Zn224 2.032 . S
O225 C229 1.278 . S
C226 O227 1.203 . S
C226 O233 1.267 . S
O227 C226 1.203 . S
O228 C221 1.185 . S
O228 Zn224 2.086 . S
C229 O225 1.278 . S
C229 O230 1.211 . S
O230 C229 1.211 . S
C231 O223 1.284 . S
C231 O232 1.273 . S
O232 C231 1.273 . S
O233 Zn224 1.977 . S
O233 C226 1.267 . S
C234 O235 1.160 . S
C234 O241 1.185 . S
O235 C234 1.160 . S
O236 Zn237 1.899 . S
O236 C244 1.284 . S
Zn237 O236 1.899 . S
Zn237 O238 2.032 . S
Zn237 O241 2.086 . S
Zn237 O246 1.977 . S
O238 Zn237 2.032 . S
O238 C242 1.278 . S
C239 O240 1.203 . S
C239 O246 1.267 . S
O240 C239 1.203 . S
O241 C234 1.185 . S
O241 Zn237 2.086 . S
C242 O238 1.278 . S
C242 O243 1.211 . S
O243 C242 1.211 . S
C244 O236 1.284 . S
C244 O245 1.273 . S
O245 C244 1.273 . S
O246 Zn237 1.977 . S
O246 C239 1.267 . S
C247 O248 1.160 . S
C247 O254 1.185 . S
O248 C247 1.160 . S
O249 Zn250 1.899 . S
O249 C257 1.284 . S
Zn250 O249 1.899 . S
Zn250 O251 2.032 . S
Zn250 O254 2.086 . S
Zn250 O259 1.977 . S
O251 Zn250 2.032 . S
O251 C255 1.278 . S
C252 O253 1.203 . S
C252 O259 1.267 . S
O253 C252 1.203 . S
O254 C247 1.185 . S
O254 Zn250 2.086 . S
C255 O251 1.278 . S
C255 O256 1.211 . S
O256 C255 1.211 . S
C257 O249 1.284 . S
C257 O258 1.273 . S
O258 C257 1.273 . S
O259 Zn250 1.977 . S
O259 C252 1.267 . S
C260 O261 1.160 . S
C260 O267 1.190 . S
O261 C260 1.160 . S
O262 Zn263 1.899 . S
O262 C270 1.284 . S
Zn263 O262 1.899 . S
Zn263 O264 2.032 1_554 S
Zn263 O267 2.089 . S
Zn263 O272 1.977 1_554 S
O264 Zn263 2.032 1_556 S
O264 C268 1.278 . S
C265 O266 1.203 . S
C265 O272 1.267 1_554 S
O266 C265 1.203 . S
O267 C260 1.190 . S
O267 Zn263 2.089 . S
C268 O264 1.278 . S
C268 O269 1.211 . S
O269 C268 1.211 . S
C270 O262 1.284 . S
C270 O271 1.273 . S
O271 C270 1.273 . S
O272 Zn263 1.977 1_556 S
O272 C265 1.267 1_556 S
C273 O274 1.160 . S
C273 O280 1.185 . S
O274 C273 1.160 . S
O275 Zn276 1.899 . S
O275 C283 1.284 . S
Zn276 O275 1.899 . S
Zn276 O277 2.032 . S
Zn276 O280 2.086 . S
Zn276 O285 1.977 . S
O277 Zn276 2.032 . S
O277 C281 1.278 . S
C278 O279 1.203 . S
C278 O285 1.267 . S
O279 C278 1.203 . S
O280 C273 1.185 . S
O280 Zn276 2.086 . S
C281 O277 1.278 . S
C281 O282 1.211 . S
O282 C281 1.211 . S
C283 O275 1.284 . S
C283 O284 1.273 . S
O284 C283 1.273 . S
O285 Zn276 1.977 . S
O285 C278 1.267 . S
C286 O287 1.160 . S
C286 O293 1.185 . S
O287 C286 1.160 . S
O288 Zn289 1.899 . S
O288 C296 1.284 . S
Zn289 O288 1.899 . S
Zn289 O290 2.032 . S
Zn289 O293 2.086 . S
Zn289 O298 1.977 . S
O290 Zn289 2.032 . S
O290 C294 1.278 . S
C291 O292 1.203 . S
C291 O298 1.267 . S
O292 C291 1.203 . S
O293 C286 1.185 . S
O293 Zn289 2.086 . S
C294 O290 1.278 . S
C294 O295 1.211 . S
O295 C294 1.211 . S
C296 O288 1.284 . S
C296 O297 1.273 . S
O297 C296 1.273 . S
O298 Zn289 1.977 . S
O298 C291 1.267 . S
C299 O300 1.160 . S
C299 O306 1.185 . S
O300 C299 1.160 . S
O301 Zn302 1.899 . S
O301 C309 1.284 . S
Zn302 O301 1.899 . S
Zn302 O303 2.032 . S
Zn302 O306 2.086 . S
Zn302 O311 1.977 . S
O303 Zn302 2.032 . S
O303 C307 1.278 . S
C304 O305 1.203 . S
C304 O311 1.267 . S
O305 C304 1.203 . S
O306 C299 1.185 . S
O306 Zn302 2.086 . S
C307 O303 1.278 . S
C307 O308 1.211 . S
O308 C307 1.211 . S
C309 O301 1.284 . S
C309 O310 1.273 . S
O310 C309 1.273 . S
O311 Zn302 1.977 . S
O311 C304 1.267 . S
Gd312 C315 2.818 1_455 S
Gd312 O332 2.377 . S
Gd312 O334 2.448 1_455 S
Gd312 O335 2.506 1_456 S
Gd312 O336 2.435 . S
Gd312 O337 2.717 . S
Gd312 O339 2.395 1_546 S
Gd312 O343 2.327 1_556 S
Gd313 C324 2.818 . S
Gd313 O333 2.395 . S
Gd313 O337 2.327 1_554 S
Gd313 O338 2.377 . S
Gd313 O340 2.448 . S
Gd313 O341 2.506 . S
Gd313 O342 2.435 . S
Gd313 O343 2.717 . S
C314 O332 1.240 1_554 S
C314 O333 1.240 . S
C315 Gd312 2.818 1_655 S
C315 C316 1.510 . S
C315 O334 1.249 . S
C315 O335 1.252 1_556 S
C316 C315 1.510 . S
C316 C317 1.404 . S
C316 C318 1.352 . S
C317 C316 1.404 . S
C317 C321 1.389 . S
C317 H344 0.930 . S
C318 C316 1.352 . S
C318 C320 1.374 . S
C318 H345 0.931 1_556 S
C319 C320 1.359 . S
C319 C321 1.364 . S
C320 C318 1.374 . S
C320 C319 1.359 . S
C320 H346 0.931 1_556 S
C321 C317 1.389 . S
C321 C319 1.364 . S
C321 H347 0.931 . S
C322 O336 1.256 . S
C322 O337 1.257 . S
C323 O338 1.240 1_565 S
C323 O339 1.240 . S
C324 Gd313 2.818 . S
C324 C325 1.510 . S
C324 O340 1.249 . S
C324 O341 1.252 . S
C325 C324 1.510 . S
C325 C326 1.404 . S
C325 C327 1.352 . S
C326 C325 1.404 . S
C326 C330 1.389 . S
C326 H348 0.930 . S
C327 C325 1.352 . S
C327 C329 1.374 1_545 S
C327 H349 0.931 1_545 S
C328 C329 1.359 1_545 S
C328 C330 1.371 . S
C329 C327 1.374 1_565 S
C329 C328 1.359 1_565 S
C329 H350 0.931 . S
C330 C326 1.389 . S
C330 C328 1.371 . S
C330 H351 0.931 . S
C331 O342 1.256 . S
C331 O343 1.257 . S
O332 Gd312 2.377 . S
O332 C314 1.240 1_556 S
O333 Gd313 2.395 . S
O333 C314 1.240 . S
O334 Gd312 2.448 1_655 S
O334 C315 1.249 . S
O335 Gd312 2.506 1_654 S
O335 C315 1.252 1_554 S
O336 Gd312 2.435 . S
O336 C322 1.256 . S
O337 Gd312 2.717 . S
O337 Gd313 2.327 1_556 S
O337 C322 1.257 . S
O338 Gd313 2.377 . S
O338 C323 1.240 1_545 S
O339 Gd312 2.395 1_564 S
O339 C323 1.240 . S
O340 Gd313 2.448 . S
O340 C324 1.249 . S
O341 Gd313 2.506 . S
O341 C324 1.252 . S
O342 Gd313 2.435 . S
O342 C331 1.256 . S
O343 Gd312 2.327 1_554 S
O343 Gd313 2.717 . S
O343 C331 1.257 . S
H344 C317 0.930 . S
H345 C318 0.931 1_554 S
H346 C320 0.931 1_554 S
H347 C321 0.931 . S
H348 C326 0.930 . S
H349 C327 0.931 1_565 S
H350 C329 0.931 . S
H351 C330 0.931 . S
Gd352 C355 2.818 . S
Gd352 O372 2.377 . S
Gd352 O374 2.448 . S
Gd352 O375 2.506 . S
Gd352 O376 2.435 . S
Gd352 O377 2.717 . S
Gd352 O379 2.395 . S
Gd352 O383 2.327 . S
Gd353 C364 2.818 . S
Gd353 O373 2.395 . S
Gd353 O377 2.327 . S
Gd353 O378 2.377 . S
Gd353 O380 2.448 . S
Gd353 O381 2.506 . S
Gd353 O382 2.435 . S
Gd353 O383 2.717 . S
C354 O372 1.240 . S
C354 O373 1.240 . S
C355 Gd352 2.818 . S
C355 C356 1.510 . S
C355 O374 1.249 . S
C355 O375 1.252 . S
C356 C355 1.510 . S
C356 C357 1.404 . S
C356 C358 1.352 . S
C357 C356 1.404 . S
C357 C361 1.389 . S
C357 H384 0.930 . S
C358 C356 1.352 . S
C358 C360 1.374 . S
C358 H385 0.931 . S
C359 C360 1.359 . S
C359 C361 1.364 . S
C360 C358 1.374 . S
C360 C359 1.359 . S
C360 H386 0.931 . S
C361 C357 1.389 . S
C361 C359 1.364 . S
C361 H387 0.931 . S
C362 O376 1.256 . S
C362 O377 1.257 . S
C363 O378 1.240 . S
C363 O379 1.240 . S
C364 Gd353 2.818 . S
C364 C365 1.510 . S
C364 O380 1.249 . S
C364 O381 1.252 . S
C365 C364 1.510 . S
C365 C366 1.404 . S
C365 C367 1.352 . S
C366 C365 1.404 . S
C366 C370 1.389 . S
C366 H388 0.930 . S
C367 C365 1.352 . S
C367 C369 1.374 . S
C367 H389 0.931 . S
C368 C369 1.359 . S
C368 C370 1.364 . S
C369 C367 1.374 . S
C369 C368 1.359 . S
C369 H390 0.931 . S
C370 C366 1.389 . S
C370 C368 1.364 . S
C370 H391 0.931 . S
C371 O382 1.256 . S
C371 O383 1.257 . S
O372 Gd352 2.377 . S
O372 C354 1.240 . S
O373 Gd353 2.395 . S
O373 C354 1.240 . S
O374 Gd352 2.448 . S
O374 C355 1.249 . S
O375 Gd352 2.506 . S
O375 C355 1.252 . S
O376 Gd352 2.435 . S
O376 C362 1.256 . S
O377 Gd352 2.717 . S
O377 Gd353 2.327 . S
O377 C362 1.257 . S
O378 Gd353 2.377 . S
O378 C363 1.240 . S
O379 Gd352 2.395 . S
O379 C363 1.240 . S
O380 Gd353 2.448 . S
O380 C364 1.249 . S
O381 Gd353 2.506 . S
O381 C364 1.252 . S
O382 Gd353 2.435 . S
O382 C371 1.256 . S
O383 Gd352 2.327 . S
O383 Gd353 2.717 . S
O383 C371 1.257 . S
H384 C357 0.930 . S
H385 C358 0.931 . S
H386 C360 0.931 . S
H387 C361 0.931 . S
H388 C366 0.930 . S
H389 C367 0.931 . S
H390 C369 0.931 . S
H391 C370 0.931 . S
Gd392 C395 2.818 . S
Gd392 O412 2.377 . S
Gd392 O414 2.448 . S
Gd392 O415 2.506 . S
Gd392 O416 2.435 . S
Gd392 O417 2.717 . S
Gd392 O419 2.395 . S
Gd392 O423 2.327 . S
Gd393 C404 2.818 . S
Gd393 O413 2.395 1_545 S
Gd393 O417 2.327 . S
Gd393 O418 2.377 . S
Gd393 O420 2.448 . S
Gd393 O421 2.506 . S
Gd393 O422 2.435 . S
Gd393 O423 2.717 . S
C394 O412 1.240 1_565 S
C394 O413 1.240 . S
C395 Gd392 2.818 . S
C395 C396 1.510 . S
C395 O414 1.249 . S
C395 O415 1.252 . S
C396 C395 1.510 . S
C396 C397 1.404 . S
C396 C398 1.352 1_545 S
C397 C396 1.404 . S
C397 C401 1.389 1_545 S
C397 H424 0.930 . S
C398 C396 1.352 1_565 S
C398 C400 1.374 . S
C398 H425 0.931 . S
C399 C400 1.359 . S
C399 C401 1.364 . S
C400 C398 1.374 . S
C400 C399 1.359 . S
C400 H426 0.931 . S
C401 C397 1.389 1_565 S
C401 C399 1.364 . S
C401 H427 0.931 . S
C402 O416 1.256 . S
C402 O417 1.257 . S
C403 O418 1.240 . S
C403 O419 1.240 . S
C404 Gd393 2.818 . S
C404 C405 1.510 . S
C404 O420 1.249 . S
C404 O421 1.252 . S
C405 C404 1.510 . S
C405 C406 1.404 . S
C405 C407 1.352 . S
C406 C405 1.404 . S
C406 C410 1.389 . S
C406 H428 0.930 . S
C407 C405 1.352 . S
C407 C409 1.374 . S
C407 H429 0.931 . S
C408 C409 1.359 . S
C408 C410 1.364 . S
C409 C407 1.374 . S
C409 C408 1.359 . S
C409 H430 0.931 . S
C410 C406 1.389 . S
C410 C408 1.364 . S
C410 H431 0.931 . S
C411 O422 1.256 . S
C411 O423 1.257 . S
O412 Gd392 2.377 . S
O412 C394 1.240 1_545 S
O413 Gd393 2.395 1_565 S
O413 C394 1.240 . S
O414 Gd392 2.448 . S
O414 C395 1.249 . S
O415 Gd392 2.506 . S
O415 C395 1.252 . S
O416 Gd392 2.435 . S
O416 C402 1.256 . S
O417 Gd392 2.717 . S
O417 Gd393 2.327 . S
O417 C402 1.257 . S
O418 Gd393 2.377 . S
O418 C403 1.240 . S
O419 Gd392 2.395 . S
O419 C403 1.240 . S
O420 Gd393 2.448 . S
O420 C404 1.249 . S
O421 Gd393 2.506 . S
O421 C404 1.252 . S
O422 Gd393 2.435 . S
O422 C411 1.256 . S
O423 Gd392 2.327 . S
O423 Gd393 2.717 . S
O423 C411 1.257 . S
H424 C397 0.930 . S
H425 C398 0.931 . S
H426 C400 0.931 . S
H427 C401 0.931 . S
H428 C406 0.930 . S
H429 C407 0.931 . S
H430 C409 0.931 . S
H431 C410 0.931 . S
Gd432 C435 2.818 . S
Gd432 O452 2.377 . S
Gd432 O454 2.448 . S
Gd432 O455 2.506 . S
Gd432 O456 2.435 . S
Gd432 O457 2.717 . S
Gd432 O459 2.395 . S
Gd432 O463 2.327 . S
Gd433 C444 2.818 . S
Gd433 O453 2.395 . S
Gd433 O457 2.327 . S
Gd433 O458 2.377 . S
Gd433 O460 2.448 . S
Gd433 O461 2.506 . S
Gd433 O462 2.435 . S
Gd433 O463 2.717 . S
C434 O452 1.240 . S
C434 O453 1.240 . S
C435 Gd432 2.818 . S
C435 C436 1.510 . S
C435 O454 1.249 . S
C435 O455 1.252 . S
C436 C435 1.510 . S
C436 C437 1.404 . S
C436 C438 1.352 . S
C437 C436 1.404 . S
C437 C441 1.389 . S
C437 H464 0.930 . S
C438 C436 1.352 . S
C438 C440 1.374 . S
C438 H465 0.931 . S
C439 C440 1.359 . S
C439 C441 1.364 . S
C440 C438 1.374 . S
C440 C439 1.359 . S
C440 H466 0.931 . S
C441 C437 1.389 . S
C441 C439 1.364 . S
C441 H467 0.931 . S
C442 O456 1.256 . S
C442 O457 1.257 . S
C443 O458 1.240 . S
C443 O459 1.240 . S
C444 Gd433 2.818 . S
C444 C445 1.510 . S
C444 O460 1.249 . S
C444 O461 1.252 . S
C445 C444 1.510 . S
C445 C446 1.404 . S
C445 C447 1.352 . S
C446 C445 1.404 . S
C446 C450 1.389 . S
C446 H468 0.930 . S
C447 C445 1.352 . S
C447 C449 1.374 . S
C447 H469 0.931 . S
C448 C449 1.359 . S
C448 C450 1.364 . S
C449 C447 1.374 . S
C449 C448 1.359 . S
C449 H470 0.931 . S
C450 C446 1.389 . S
C450 C448 1.364 . S
C450 H471 0.931 . S
C451 O462 1.256 . S
C451 O463 1.257 . S
O452 Gd432 2.377 . S
O452 C434 1.240 . S
O453 Gd433 2.395 . S
O453 C434 1.240 . S
O454 Gd432 2.448 . S
O454 C435 1.249 . S
O455 Gd432 2.506 . S
O455 C435 1.252 . S
O456 Gd432 2.435 . S
O456 C442 1.256 . S
O457 Gd432 2.717 . S
O457 Gd433 2.327 . S
O457 C442 1.257 . S
O458 Gd433 2.377 . S
O458 C443 1.240 . S
O459 Gd432 2.395 . S
O459 C443 1.240 . S
O460 Gd433 2.448 . S
O460 C444 1.249 . S
O461 Gd433 2.506 . S
O461 C444 1.252 . S
O462 Gd433 2.435 . S
O462 C451 1.256 . S
O463 Gd432 2.327 . S
O463 Gd433 2.717 . S
O463 C451 1.257 . S
H464 C437 0.930 . S
H465 C438 0.931 . S
H466 C440 0.931 . S
H467 C441 0.931 . S
H468 C446 0.930 . S
H469 C447 0.931 . S
H470 C449 0.931 . S
H471 C450 0.931 . S
Gd472 C475 2.818 . S
Gd472 O492 2.377 . S
Gd472 O494 2.448 . S
Gd472 O495 2.506 . S
Gd472 O496 2.435 . S
Gd472 O497 2.717 . S
Gd472 O499 2.395 . S
Gd472 O503 2.327 . S
Gd473 C484 2.818 1_545 S
Gd473 O493 2.395 . S
Gd473 O497 2.327 . S
Gd473 O498 2.377 . S
Gd473 O500 2.448 1_545 S
Gd473 O501 2.506 1_545 S
Gd473 O502 2.435 . S
Gd473 O503 2.717 . S
C474 O492 1.240 . S
C474 O493 1.240 . S
C475 Gd472 2.818 . S
C475 C476 1.510 . S
C475 O494 1.249 . S
C475 O495 1.252 . S
C476 C475 1.510 . S
C476 C477 1.404 . S
C476 C478 1.352 . S
C477 C476 1.404 . S
C477 C481 1.389 . S
C477 H504 0.930 . S
C478 C476 1.352 . S
C478 C480 1.374 . S
C478 H505 0.931 . S
C479 C480 1.359 . S
C479 C481 1.364 . S
C480 C478 1.374 . S
C480 C479 1.359 . S
C480 H506 0.931 . S
C481 C477 1.389 . S
C481 C479 1.364 . S
C481 H507 0.931 . S
C482 O496 1.256 . S
C482 O497 1.257 . S
C483 O498 1.240 . S
C483 O499 1.240 . S
C484 Gd473 2.818 1_565 S
C484 C485 1.510 . S
C484 O500 1.249 . S
C484 O501 1.252 . S
C485 C484 1.510 . S
C485 C486 1.404 . S
C485 C487 1.352 . S
C486 C485 1.404 . S
C486 C490 1.389 . S
C486 H508 0.930 . S
C487 C485 1.352 . S
C487 C489 1.374 . S
C487 H509 0.931 . S
C488 C489 1.359 . S
C488 C490 1.364 . S
C489 C487 1.374 . S
C489 C488 1.359 . S
C489 H510 0.931 . S
C490 C486 1.389 . S
C490 C488 1.364 . S
C490 H511 0.931 . S
C491 O502 1.256 . S
C491 O503 1.257 . S
O492 Gd472 2.377 . S
O492 C474 1.240 . S
O493 Gd473 2.395 . S
O493 C474 1.240 . S
O494 Gd472 2.448 . S
O494 C475 1.249 . S
O495 Gd472 2.506 . S
O495 C475 1.252 . S
O496 Gd472 2.435 . S
O496 C482 1.256 . S
O497 Gd472 2.717 . S
O497 Gd473 2.327 . S
O497 C482 1.257 . S
O498 Gd473 2.377 . S
O498 C483 1.240 . S
O499 Gd472 2.395 . S
O499 C483 1.240 . S
O500 Gd473 2.448 1_565 S
O500 C484 1.249 . S
O501 Gd473 2.506 1_565 S
O501 C484 1.252 . S
O502 Gd473 2.435 . S
O502 C491 1.256 . S
O503 Gd472 2.327 . S
O503 Gd473 2.717 . S
O503 C491 1.257 . S
H504 C477 0.930 . S
H505 C478 0.931 . S
H506 C480 0.931 . S
H507 C481 0.931 . S
H508 C486 0.930 . S
H509 C487 0.931 . S
H510 C489 0.931 . S
H511 C490 0.931 . S
Gd512 C515 2.818 . S
Gd512 O532 2.377 . S
Gd512 O534 2.448 . S
Gd512 O535 2.506 . S
Gd512 O536 2.435 . S
Gd512 O537 2.717 . S
Gd512 O539 2.395 . S
Gd512 O543 2.327 . S
Gd513 C524 2.818 . S
Gd513 O533 2.395 . S
Gd513 O537 2.327 . S
Gd513 O538 2.377 . S
Gd513 O540 2.448 . S
Gd513 O541 2.506 . S
Gd513 O542 2.435 . S
Gd513 O543 2.717 . S
C514 O532 1.240 . S
C514 O533 1.240 . S
C515 Gd512 2.818 . S
C515 C516 1.510 . S
C515 O534 1.249 . S
C515 O535 1.252 . S
C516 C515 1.510 . S
C516 C517 1.404 . S
C516 C518 1.352 . S
C517 C516 1.404 . S
C517 C521 1.389 . S
C517 H544 0.930 . S
C518 C516 1.352 . S
C518 C520 1.374 . S
C518 H545 0.931 . S
C519 C520 1.359 . S
C519 C521 1.364 . S
C520 C518 1.374 . S
C520 C519 1.359 . S
C520 H546 0.931 . S
C521 C517 1.389 . S
C521 C519 1.364 . S
C521 H547 0.931 . S
C522 O536 1.256 . S
C522 O537 1.257 . S
C523 O538 1.240 . S
C523 O539 1.240 . S
C524 Gd513 2.818 . S
C524 C525 1.510 . S
C524 O540 1.249 . S
C524 O541 1.252 . S
C525 C524 1.510 . S
C525 C526 1.404 . S
C525 C527 1.352 . S
C526 C525 1.404 . S
C526 C530 1.389 . S
C526 H548 0.930 . S
C527 C525 1.352 . S
C527 C529 1.374 . S
C527 H549 0.931 . S
C528 C529 1.359 . S
C528 C530 1.364 . S
C529 C527 1.374 . S
C529 C528 1.359 . S
C529 H550 0.931 . S
C530 C526 1.389 . S
C530 C528 1.364 . S
C530 H551 0.931 . S
C531 O542 1.256 . S
C531 O543 1.257 . S
O532 Gd512 2.377 . S
O532 C514 1.240 . S
O533 Gd513 2.395 . S
O533 C514 1.240 . S
O534 Gd512 2.448 . S
O534 C515 1.249 . S
O535 Gd512 2.506 . S
O535 C515 1.252 . S
O536 Gd512 2.435 . S
O536 C522 1.256 . S
O537 Gd512 2.717 . S
O537 Gd513 2.327 . S
O537 C522 1.257 . S
O538 Gd513 2.377 . S
O538 C523 1.240 . S
O539 Gd512 2.395 . S
O539 C523 1.240 . S
O540 Gd513 2.448 . S
O540 C524 1.249 . S
O541 Gd513 2.506 . S
O541 C524 1.252 . S
O542 Gd513 2.435 . S
O542 C531 1.256 . S
O543 Gd512 2.327 . S
O543 Gd513 2.717 . S
O543 C531 1.257 . S
H544 C517 0.930 . S
H545 C518 0.931 . S
H546 C520 0.931 . S
H547 C521 0.931 . S
H548 C526 0.930 . S
H549 C527 0.931 . S
H550 C529 0.931 . S
H551 C530 0.931 . S
Gd552 C555 2.818 . S
Gd552 O572 2.377 . S
Gd552 O574 2.443 1_545 S
Gd552 O575 2.506 . S
Gd552 O576 2.435 1_545 S
Gd552 O577 2.766 . S
Gd552 O579 2.395 . S
Gd552 O583 2.327 . S
Gd553 C564 2.818 . S
Gd553 O573 2.401 . S
Gd553 O577 2.302 1_556 S
Gd553 O578 2.377 1_556 S
Gd553 O580 2.448 . S
Gd553 O581 2.506 . S
Gd553 O582 2.435 1_556 S
Gd553 O583 2.717 1_556 S
C554 O572 1.240 . S
C554 O573 1.230 1_554 S
C555 Gd552 2.818 . S
C555 C556 1.510 . S
C555 O574 1.242 1_545 S
C555 O575 1.252 . S
C556 C555 1.510 . S
C556 C557 1.404 1_545 S
C556 C558 1.352 . S
C557 C556 1.404 1_565 S
C557 C561 1.389 . S
C557 H584 0.930 . S
C558 C556 1.352 . S
C558 C560 1.374 . S
C558 H585 0.931 . S
C559 C560 1.359 1_565 S
C559 C561 1.364 . S
C560 C558 1.374 . S
C560 C559 1.359 1_545 S
C560 H586 0.931 . S
C561 C557 1.389 . S
C561 C559 1.364 . S
C561 H587 0.931 . S
C562 O576 1.256 . S
C562 O577 1.275 1_565 S
C563 O578 1.240 . S
C563 O579 1.240 . S
C564 Gd553 2.818 . S
C564 C565 1.510 . S
C564 O580 1.249 . S
C564 O581 1.252 . S
C565 C564 1.510 . S
C565 C566 1.404 . S
C565 C567 1.352 . S
C566 C565 1.404 . S
C566 C570 1.389 . S
C566 H588 0.930 . S
C567 C565 1.352 . S
C567 C569 1.374 . S
C567 H589 0.931 . S
C568 C569 1.359 . S
C568 C570 1.364 . S
C569 C567 1.374 . S
C569 C568 1.359 . S
C569 H590 0.931 . S
C570 C566 1.389 . S
C570 C568 1.364 . S
C570 H591 0.931 . S
C571 O582 1.256 . S
C571 O583 1.257 . S
O572 Gd552 2.377 . S
O572 C554 1.240 . S
O573 Gd553 2.401 . S
O573 C554 1.230 1_556 S
O574 Gd552 2.443 1_565 S
O574 C555 1.242 1_565 S
O575 Gd552 2.506 . S
O575 C555 1.252 . S
O576 Gd552 2.435 1_565 S
O576 C562 1.256 . S
O577 Gd552 2.766 . S
O577 Gd553 2.302 1_554 S
O577 C562 1.275 1_545 S
O578 Gd553 2.377 1_554 S
O578 C563 1.240 . S
O579 Gd552 2.395 . S
O579 C563 1.240 . S
O580 Gd553 2.448 . S
O580 C564 1.249 . S
O581 Gd553 2.506 . S
O581 C564 1.252 . S
O582 Gd553 2.435 1_554 S
O582 C571 1.256 . S
O583 Gd552 2.327 . S
O583 Gd553 2.717 1_554 S
O583 C571 1.257 . S
H584 C557 0.930 . S
H585 C558 0.931 . S
H586 C560 0.931 . S
H587 C561 0.931 . S
H588 C566 0.930 . S
H589 C567 0.931 . S
H590 C569 0.931 . S
H591 C570 0.931 . S
Gd592 C595 2.818 . S
Gd592 O612 2.377 . S
Gd592 O614 2.448 . S
Gd592 O615 2.506 . S
Gd592 O616 2.435 . S
Gd592 O617 2.717 . S
Gd592 O619 2.395 . S
Gd592 O623 2.327 . S
Gd593 C604 2.818 . S
Gd593 O613 2.395 . S
Gd593 O617 2.327 . S
Gd593 O618 2.377 . S
Gd593 O620 2.448 . S
Gd593 O621 2.506 . S
Gd593 O622 2.435 . S
Gd593 O623 2.717 . S
C594 O612 1.240 . S
C594 O613 1.240 . S
C595 Gd592 2.818 . S
C595 C596 1.510 . S
C595 O614 1.249 . S
C595 O615 1.252 . S
C596 C595 1.510 . S
C596 C597 1.404 . S
C596 C598 1.352 . S
C597 C596 1.404 . S
C597 C601 1.389 . S
C597 H624 0.930 . S
C598 C596 1.352 . S
C598 C600 1.374 . S
C598 H625 0.931 . S
C599 C600 1.359 . S
C599 C601 1.364 . S
C600 C598 1.374 . S
C600 C599 1.359 . S
C600 H626 0.931 . S
C601 C597 1.389 . S
C601 C599 1.364 . S
C601 H627 0.931 . S
C602 O616 1.256 . S
C602 O617 1.257 . S
C603 O618 1.240 . S
C603 O619 1.240 . S
C604 Gd593 2.818 . S
C604 C605 1.510 . S
C604 O620 1.249 . S
C604 O621 1.252 . S
C605 C604 1.510 . S
C605 C606 1.404 . S
C605 C607 1.352 . S
C606 C605 1.404 . S
C606 C610 1.389 . S
C606 H628 0.930 . S
C607 C605 1.352 . S
C607 C609 1.374 . S
C607 H629 0.931 . S
C608 C609 1.359 . S
C608 C610 1.364 . S
C609 C607 1.374 . S
C609 C608 1.359 . S
C609 H630 0.931 . S
C610 C606 1.389 . S
C610 C608 1.364 . S
C610 H631 0.931 . S
C611 O622 1.256 . S
C611 O623 1.257 . S
O612 Gd592 2.377 . S
O612 C594 1.240 . S
O613 Gd593 2.395 . S
O613 C594 1.240 . S
O614 Gd592 2.448 . S
O614 C595 1.249 . S
O615 Gd592 2.506 . S
O615 C595 1.252 . S
O616 Gd592 2.435 . S
O616 C602 1.256 . S
O617 Gd592 2.717 . S
O617 Gd593 2.327 . S
O617 C602 1.257 . S
O618 Gd593 2.377 . S
O618 C603 1.240 . S
O619 Gd592 2.395 . S
O619 C603 1.240 . S
O620 Gd593 2.448 . S
O620 C604 1.249 . S
O621 Gd593 2.506 . S
O621 C604 1.252 . S
O622 Gd593 2.435 . S
O622 C611 1.256 . S
O623 Gd592 2.327 . S
O623 Gd593 2.717 . S
O623 C611 1.257 . S
H624 C597 0.930 . S
H625 C598 0.931 . S
H626 C600 0.931 . S
H627 C601 0.931 . S
H628 C606 0.930 . S
H629 C607 0.931 . S
H630 C609 0.931 . S
H631 C610 0.931 . S
Gd632 C635 2.818 . S
Gd632 O652 2.377 1_554 S
Gd632 O654 2.448 . S
Gd632 O655 2.506 . S
Gd632 O656 2.435 . S
Gd632 O657 2.717 . S
Gd632 O659 2.395 . S
Gd632 O663 2.327 . S
Gd633 C644 2.818 . S
Gd633 O653 2.395 1_554 S
Gd633 O657 2.327 . S
Gd633 O658 2.377 . S
Gd633 O660 2.448 . S
Gd633 O661 2.506 . S
Gd633 O662 2.435 . S
Gd633 O663 2.717 . S
C634 O652 1.240 . S
C634 O653 1.240 . S
C635 Gd632 2.818 . S
C635 C636 1.510 1_554 S
C635 O654 1.249 . S
C635 O655 1.252 . S
C636 C635 1.510 1_556 S
C636 C637 1.404 . S
C636 C638 1.352 . S
C637 C636 1.404 . S
C637 C641 1.389 . S
C637 H664 0.930 1_556 S
C638 C636 1.352 . S
C638 C640 1.374 . S
C638 H665 0.931 . S
C639 C640 1.359 . S
C639 C641 1.364 . S
C640 C638 1.374 . S
C640 C639 1.359 . S
C640 H666 0.931 . S
C641 C637 1.389 . S
C641 C639 1.364 . S
C641 H667 0.931 . S
C642 O656 1.256 . S
C642 O657 1.257 . S
C643 O658 1.240 . S
C643 O659 1.240 . S
C644 Gd633 2.818 . S
C644 C645 1.510 . S
C644 O660 1.249 . S
C644 O661 1.252 . S
C645 C644 1.510 . S
C645 C646 1.404 . S
C645 C647 1.352 . S
C646 C645 1.404 . S
C646 C650 1.389 . S
C646 H668 0.930 . S
C647 C645 1.352 . S
C647 C649 1.374 . S
C647 H669 0.931 . S
C648 C649 1.359 . S
C648 C650 1.364 . S
C649 C647 1.374 . S
C649 C648 1.359 . S
C649 H670 0.931 . S
C650 C646 1.389 . S
C650 C648 1.364 . S
C650 H671 0.931 . S
C651 O662 1.256 . S
C651 O663 1.257 . S
O652 Gd632 2.377 1_556 S
O652 C634 1.240 . S
O653 Gd633 2.395 1_556 S
O653 C634 1.240 . S
O654 Gd632 2.448 . S
O654 C635 1.249 . S
O655 Gd632 2.506 . S
O655 C635 1.252 . S
O656 Gd632 2.435 . S
O656 C642 1.256 . S
O657 Gd632 2.717 . S
O657 Gd633 2.327 . S
O657 C642 1.257 . S
O658 Gd633 2.377 . S
O658 C643 1.240 . S
O659 Gd632 2.395 . S
O659 C643 1.240 . S
O660 Gd633 2.448 . S
O660 C644 1.249 . S
O661 Gd633 2.506 . S
O661 C644 1.252 . S
O662 Gd633 2.435 . S
O662 C651 1.256 . S
O663 Gd632 2.327 . S
O663 Gd633 2.717 . S
O663 C651 1.257 . S
H664 C637 0.930 1_554 S
H665 C638 0.931 . S
H666 C640 0.931 . S
H667 C641 0.931 . S
H668 C646 0.930 . S
H669 C647 0.931 . S
H670 C649 0.931 . S
H671 C650 0.931 . S
Gd672 C675 2.818 . S
Gd672 O692 2.377 . S
Gd672 O694 2.448 . S
Gd672 O695 2.506 . S
Gd672 O696 2.435 . S
Gd672 O697 2.717 . S
Gd672 O699 2.395 . S
Gd672 O703 2.327 . S
Gd673 C684 2.818 . S
Gd673 O693 2.395 . S
Gd673 O697 2.327 . S
Gd673 O698 2.377 . S
Gd673 O700 2.448 . S
Gd673 O701 2.506 . S
Gd673 O702 2.435 . S
Gd673 O703 2.717 . S
C674 O692 1.240 . S
C674 O693 1.240 . S
C675 Gd672 2.818 . S
C675 C676 1.510 . S
C675 O694 1.249 . S
C675 O695 1.252 . S
C676 C675 1.510 . S
C676 C677 1.404 . S
C676 C678 1.352 . S
C677 C676 1.404 . S
C677 C681 1.389 . S
C677 H704 0.930 . S
C678 C676 1.352 . S
C678 C680 1.374 . S
C678 H705 0.931 . S
C679 C680 1.359 . S
C679 C681 1.364 . S
C680 C678 1.374 . S
C680 C679 1.359 . S
C680 H706 0.931 . S
C681 C677 1.389 . S
C681 C679 1.364 . S
C681 H707 0.931 . S
C682 O696 1.256 . S
C682 O697 1.257 . S
C683 O698 1.240 . S
C683 O699 1.240 . S
C684 Gd673 2.818 . S
C684 C685 1.510 . S
C684 O700 1.249 . S
C684 O701 1.252 . S
C685 C684 1.510 . S
C685 C686 1.404 . S
C685 C687 1.352 . S
C686 C685 1.404 . S
C686 C690 1.389 . S
C686 H708 0.930 . S
C687 C685 1.352 . S
C687 C689 1.374 . S
C687 H709 0.931 . S
C688 C689 1.359 . S
C688 C690 1.364 . S
C689 C687 1.374 . S
C689 C688 1.359 . S
C689 H710 0.931 . S
C690 C686 1.389 . S
C690 C688 1.364 . S
C690 H711 0.931 . S
C691 O702 1.256 . S
C691 O703 1.257 . S
O692 Gd672 2.377 . S
O692 C674 1.240 . S
O693 Gd673 2.395 . S
O693 C674 1.240 . S
O694 Gd672 2.448 . S
O694 C675 1.249 . S
O695 Gd672 2.506 . S
O695 C675 1.252 . S
O696 Gd672 2.435 . S
O696 C682 1.256 . S
O697 Gd672 2.717 . S
O697 Gd673 2.327 . S
O697 C682 1.257 . S
O698 Gd673 2.377 . S
O698 C683 1.240 . S
O699 Gd672 2.395 . S
O699 C683 1.240 . S
O700 Gd673 2.448 . S
O700 C684 1.249 . S
O701 Gd673 2.506 . S
O701 C684 1.252 . S
O702 Gd673 2.435 . S
O702 C691 1.256 . S
O703 Gd672 2.327 . S
O703 Gd673 2.717 . S
O703 C691 1.257 . S
H704 C677 0.930 . S
H705 C678 0.931 . S
H706 C680 0.931 . S
H707 C681 0.931 . S
H708 C686 0.930 . S
H709 C687 0.931 . S
H710 C689 0.931 . S
H711 C690 0.931 . S
Gd712 C715 2.818 . S
Gd712 O732 2.377 . S
Gd712 O734 2.448 . S
Gd712 O735 2.506 . S
Gd712 O736 2.435 . S
Gd712 O737 2.717 . S
Gd712 O739 2.395 . S
Gd712 O743 2.327 . S
Gd713 C724 2.818 . S
Gd713 O733 2.395 . S
Gd713 O737 2.327 . S
Gd713 O738 2.377 . S
Gd713 O740 2.448 . S
Gd713 O741 2.506 . S
Gd713 O742 2.435 . S
Gd713 O743 2.717 . S
C714 O732 1.240 . S
C714 O733 1.240 . S
C715 Gd712 2.818 . S
C715 C716 1.510 . S
C715 O734 1.249 . S
C715 O735 1.252 . S
C716 C715 1.510 . S
C716 C717 1.404 . S
C716 C718 1.352 . S
C717 C716 1.404 . S
C717 C721 1.389 . S
C717 H744 0.930 . S
C718 C716 1.352 . S
C718 C720 1.374 1_455 S
C718 H745 0.931 . S
C719 C720 1.359 . S
C719 C721 1.364 1_655 S
C720 C718 1.374 1_655 S
C720 C719 1.359 . S
C720 H746 0.931 . S
C721 C717 1.389 . S
C721 C719 1.364 1_455 S
C721 H747 0.931 . S
C722 O736 1.256 . S
C722 O737 1.257 . S
C723 O738 1.240 . S
C723 O739 1.240 . S
C724 Gd713 2.818 . S
C724 C725 1.510 . S
C724 O740 1.249 . S
C724 O741 1.252 . S
C725 C724 1.510 . S
C725 C726 1.404 . S
C725 C727 1.352 . S
C726 C725 1.404 . S
C726 C730 1.389 . S
C726 H748 0.930 . S
C727 C725 1.352 . S
C727 C729 1.374 . S
C727 H749 0.931 . S
C728 C729 1.359 . S
C728 C730 1.364 . S
C729 C727 1.374 . S
C729 C728 1.359 . S
C729 H750 0.931 . S
C730 C726 1.389 . S
C730 C728 1.364 . S
C730 H751 0.931 . S
C731 O742 1.256 . S
C731 O743 1.257 . S
O732 Gd712 2.377 . S
O732 C714 1.240 . S
O733 Gd713 2.395 . S
O733 C714 1.240 . S
O734 Gd712 2.448 . S
O734 C715 1.249 . S
O735 Gd712 2.506 . S
O735 C715 1.252 . S
O736 Gd712 2.435 . S
O736 C722 1.256 . S
O737 Gd712 2.717 . S
O737 Gd713 2.327 . S
O737 C722 1.257 . S
O738 Gd713 2.377 . S
O738 C723 1.240 . S
O739 Gd712 2.395 . S
O739 C723 1.240 . S
O740 Gd713 2.448 . S
O740 C724 1.249 . S
O741 Gd713 2.506 . S
O741 C724 1.252 . S
O742 Gd713 2.435 . S
O742 C731 1.256 . S
O743 Gd712 2.327 . S
O743 Gd713 2.717 . S
O743 C731 1.257 . S
H744 C717 0.930 . S
H745 C718 0.931 . S
H746 C720 0.931 . S
H747 C721 0.931 . S
H748 C726 0.930 . S
H749 C727 0.931 . S
H750 C729 0.931 . S
H751 C730 0.931 . S
Gd752 C755 2.818 . S
Gd752 O772 2.377 . S
Gd752 O774 2.448 . S
Gd752 O775 2.506 . S
Gd752 O776 2.435 . S
Gd752 O777 2.717 . S
Gd752 O779 2.395 . S
Gd752 O783 2.327 . S
Gd753 C764 2.818 . S
Gd753 O773 2.395 . S
Gd753 O777 2.327 . S
Gd753 O778 2.377 . S
Gd753 O780 2.448 . S
Gd753 O781 2.506 . S
Gd753 O782 2.435 . S
Gd753 O783 2.717 . S
C754 O772 1.240 . S
C754 O773 1.240 . S
C755 Gd752 2.818 . S
C755 C756 1.510 . S
C755 O774 1.249 . S
C755 O775 1.252 . S
C756 C755 1.510 . S
C756 C757 1.404 . S
C756 C758 1.352 . S
C757 C756 1.404 . S
C757 C761 1.389 . S
C757 H784 0.930 . S
C758 C756 1.352 . S
C758 C760 1.374 . S
C758 H785 0.931 . S
C759 C760 1.359 . S
C759 C761 1.364 . S
C760 C758 1.374 . S
C760 C759 1.359 . S
C760 H786 0.931 . S
C761 C757 1.389 . S
C761 C759 1.364 . S
C761 H787 0.931 . S
C762 O776 1.256 . S
C762 O777 1.257 . S
C763 O778 1.240 . S
C763 O779 1.240 . S
C764 Gd753 2.818 . S
C764 C765 1.510 . S
C764 O780 1.249 . S
C764 O781 1.252 . S
C765 C764 1.510 . S
C765 C766 1.404 . S
C765 C767 1.352 . S
C766 C765 1.404 . S
C766 C770 1.389 . S
C766 H788 0.930 . S
C767 C765 1.352 . S
C767 C769 1.374 . S
C767 H789 0.931 . S
C768 C769 1.359 . S
C768 C770 1.364 . S
C769 C767 1.374 . S
C769 C768 1.359 . S
C769 H790 0.931 . S
C770 C766 1.389 . S
C770 C768 1.364 . S
C770 H791 0.931 . S
C771 O782 1.256 . S
C771 O783 1.257 . S
O772 Gd752 2.377 . S
O772 C754 1.240 . S
O773 Gd753 2.395 . S
O773 C754 1.240 . S
O774 Gd752 2.448 . S
O774 C755 1.249 . S
O775 Gd752 2.506 . S
O775 C755 1.252 . S
O776 Gd752 2.435 . S
O776 C762 1.256 . S
O777 Gd752 2.717 . S
O777 Gd753 2.327 . S
O777 C762 1.257 . S
O778 Gd753 2.377 . S
O778 C763 1.240 . S
O779 Gd752 2.395 . S
O779 C763 1.240 . S
O780 Gd753 2.448 . S
O780 C764 1.249 . S
O781 Gd753 2.506 . S
O781 C764 1.252 . S
O782 Gd753 2.435 . S
O782 C771 1.256 . S
O783 Gd752 2.327 . S
O783 Gd753 2.717 . S
O783 C771 1.257 . S
H784 C757 0.930 . S
H785 C758 0.931 . S
H786 C760 0.931 . S
H787 C761 0.931 . S
H788 C766 0.930 . S
H789 C767 0.931 . S
H790 C769 0.931 . S
H791 C770 0.931 . S
Gd792 C795 2.818 . S
Gd792 O812 2.377 . S
Gd792 O814 2.448 . S
Gd792 O815 2.506 . S
Gd792 O816 2.435 . S
Gd792 O817 2.717 . S
Gd792 O819 2.395 . S
Gd792 O823 2.327 . S
Gd793 C804 2.818 . S
Gd793 O813 2.395 . S
Gd793 O817 2.327 . S
Gd793 O818 2.377 . S
Gd793 O820 2.448 . S
Gd793 O821 2.506 . S
Gd793 O822 2.435 . S
Gd793 O823 2.717 . S
C794 O812 1.240 . S
C794 O813 1.240 . S
C795 Gd792 2.818 . S
C795 C796 1.510 . S
C795 O814 1.249 . S
C795 O815 1.252 . S
C796 C795 1.510 . S
C796 C797 1.404 . S
C796 C798 1.352 . S
C797 C796 1.404 . S
C797 C801 1.389 . S
C797 H824 0.930 . S
C798 C796 1.352 . S
C798 C800 1.374 . S
C798 H825 0.931 . S
C799 C800 1.359 . S
C799 C801 1.364 . S
C800 C798 1.374 . S
C800 C799 1.359 . S
C800 H826 0.931 . S
C801 C797 1.389 . S
C801 C799 1.364 . S
C801 H827 0.931 . S
C802 O816 1.256 . S
C802 O817 1.257 . S
C803 O818 1.240 . S
C803 O819 1.240 . S
C804 Gd793 2.818 . S
C804 C805 1.510 . S
C804 O820 1.249 . S
C804 O821 1.252 . S
C805 C804 1.510 . S
C805 C806 1.404 . S
C805 C807 1.352 . S
C806 C805 1.404 . S
C806 C810 1.389 . S
C806 H828 0.930 . S
C807 C805 1.352 . S
C807 C809 1.374 . S
C807 H829 0.931 . S
C808 C809 1.359 . S
C808 C810 1.364 . S
C809 C807 1.374 . S
C809 C808 1.359 . S
C809 H830 0.931 . S
C810 C806 1.389 . S
C810 C808 1.364 . S
C810 H831 0.931 . S
C811 O822 1.256 . S
C811 O823 1.257 . S
O812 Gd792 2.377 . S
O812 C794 1.240 . S
O813 Gd793 2.395 . S
O813 C794 1.240 . S
O814 Gd792 2.448 . S
O814 C795 1.249 . S
O815 Gd792 2.506 . S
O815 C795 1.252 . S
O816 Gd792 2.435 . S
O816 C802 1.256 . S
O817 Gd792 2.717 . S
O817 Gd793 2.327 . S
O817 C802 1.257 . S
O818 Gd793 2.377 . S
O818 C803 1.240 . S
O819 Gd792 2.395 . S
O819 C803 1.240 . S
O820 Gd793 2.448 . S
O820 C804 1.249 . S
O821 Gd793 2.506 . S
O821 C804 1.252 . S
O822 Gd793 2.435 . S
O822 C811 1.256 . S
O823 Gd792 2.327 . S
O823 Gd793 2.717 . S
O823 C811 1.257 . S
H824 C797 0.930 . S
H825 C798 0.931 . S
H826 C800 0.931 . S
H827 C801 0.931 . S
H828 C806 0.930 . S
H829 C807 0.931 . S
H830 C809 0.931 . S
H831 C810 0.931 . S
Gd832 C835 2.818 . S
Gd832 O852 2.377 . S
Gd832 O854 2.448 . S
Gd832 O855 2.506 . S
Gd832 O856 2.435 . S
Gd832 O857 2.717 . S
Gd832 O859 2.395 . S
Gd832 O863 2.327 . S
Gd833 C844 2.818 . S
Gd833 O853 2.395 . S
Gd833 O857 2.327 . S
Gd833 O858 2.377 . S
Gd833 O860 2.448 . S
Gd833 O861 2.506 . S
Gd833 O862 2.435 . S
Gd833 O863 2.717 . S
C834 O852 1.240 . S
C834 O853 1.240 . S
C835 Gd832 2.818 . S
C835 C836 1.510 . S
C835 O854 1.249 . S
C835 O855 1.252 . S
C836 C835 1.510 . S
C836 C837 1.404 . S
C836 C838 1.352 . S
C837 C836 1.404 . S
C837 C841 1.389 . S
C837 H864 0.930 . S
C838 C836 1.352 . S
C838 C840 1.374 . S
C838 H865 0.931 . S
C839 C840 1.359 . S
C839 C841 1.364 . S
C840 C838 1.374 . S
C840 C839 1.359 . S
C840 H866 0.931 . S
C841 C837 1.389 . S
C841 C839 1.364 . S
C841 H867 0.931 . S
C842 O856 1.256 . S
C842 O857 1.257 . S
C843 O858 1.240 . S
C843 O859 1.240 . S
C844 Gd833 2.818 . S
C844 C845 1.510 . S
C844 O860 1.249 . S
C844 O861 1.252 . S
C845 C844 1.510 . S
C845 C846 1.404 . S
C845 C847 1.352 . S
C846 C845 1.404 . S
C846 C850 1.389 . S
C846 H868 0.930 . S
C847 C845 1.352 . S
C847 C849 1.374 . S
C847 H869 0.931 . S
C848 C849 1.359 . S
C848 C850 1.364 . S
C849 C847 1.374 . S
C849 C848 1.359 . S
C849 H870 0.931 . S
C850 C846 1.389 . S
C850 C848 1.364 . S
C850 H871 0.931 . S
C851 O862 1.256 . S
C851 O863 1.257 . S
O852 Gd832 2.377 . S
O852 C834 1.240 . S
O853 Gd833 2.395 . S
O853 C834 1.240 . S
O854 Gd832 2.448 . S
O854 C835 1.249 . S
O855 Gd832 2.506 . S
O855 C835 1.252 . S
O856 Gd832 2.435 . S
O856 C842 1.256 . S
O857 Gd832 2.717 . S
O857 Gd833 2.327 . S
O857 C842 1.257 . S
O858 Gd833 2.377 . S
O858 C843 1.240 . S
O859 Gd832 2.395 . S
O859 C843 1.240 . S
O860 Gd833 2.448 . S
O860 C844 1.249 . S
O861 Gd833 2.506 . S
O861 C844 1.252 . S
O862 Gd833 2.435 . S
O862 C851 1.256 . S
O863 Gd832 2.327 . S
O863 Gd833 2.717 . S
O863 C851 1.257 . S
H864 C837 0.930 . S
H865 C838 0.931 . S
H866 C840 0.931 . S
H867 C841 0.931 . S
H868 C846 0.930 . S
H869 C847 0.931 . S
H870 C849 0.931 . S
H871 C850 0.931 . S
Gd872 C875 2.818 . S
Gd872 O892 2.377 . S
Gd872 O894 2.448 . S
Gd872 O895 2.506 . S
Gd872 O896 2.435 . S
Gd872 O897 2.717 . S
Gd872 O899 2.395 . S
Gd872 O903 2.327 . S
Gd873 C884 2.818 . S
Gd873 O893 2.395 . S
Gd873 O897 2.327 . S
Gd873 O898 2.377 . S
Gd873 O900 2.448 . S
Gd873 O901 2.506 . S
Gd873 O902 2.435 . S
Gd873 O903 2.717 . S
C874 O892 1.240 . S
C874 O893 1.240 . S
C875 Gd872 2.818 . S
C875 C876 1.510 . S
C875 O894 1.249 . S
C875 O895 1.252 . S
C876 C875 1.510 . S
C876 C877 1.404 . S
C876 C878 1.352 . S
C877 C876 1.404 . S
C877 C881 1.389 . S
C877 H904 0.930 . S
C878 C876 1.352 . S
C878 C880 1.374 . S
C878 H905 0.931 . S
C879 C880 1.359 . S
C879 C881 1.364 . S
C880 C878 1.374 . S
C880 C879 1.359 . S
C880 H906 0.931 . S
C881 C877 1.389 . S
C881 C879 1.364 . S
C881 H907 0.931 . S
C882 O896 1.256 . S
C882 O897 1.257 . S
C883 O898 1.240 . S
C883 O899 1.240 . S
C884 Gd873 2.818 . S
C884 C885 1.510 . S
C884 O900 1.249 . S
C884 O901 1.252 . S
C885 C884 1.510 . S
C885 C886 1.404 . S
C885 C887 1.352 . S
C886 C885 1.404 . S
C886 C890 1.389 . S
C886 H908 0.930 . S
C887 C885 1.352 . S
C887 C889 1.374 . S
C887 H909 0.931 . S
C888 C889 1.359 . S
C888 C890 1.364 . S
C889 C887 1.374 . S
C889 C888 1.359 . S
C889 H910 0.931 . S
C890 C886 1.389 . S
C890 C888 1.364 . S
C890 H911 0.931 . S
C891 O902 1.256 . S
C891 O903 1.257 . S
O892 Gd872 2.377 . S
O892 C874 1.240 . S
O893 Gd873 2.395 . S
O893 C874 1.240 . S
O894 Gd872 2.448 . S
O894 C875 1.249 . S
O895 Gd872 2.506 . S
O895 C875 1.252 . S
O896 Gd872 2.435 . S
O896 C882 1.256 . S
O897 Gd872 2.717 . S
O897 Gd873 2.327 . S
O897 C882 1.257 . S
O898 Gd873 2.377 . S
O898 C883 1.240 . S
O899 Gd872 2.395 . S
O899 C883 1.240 . S
O900 Gd873 2.448 . S
O900 C884 1.249 . S
O901 Gd873 2.506 . S
O901 C884 1.252 . S
O902 Gd873 2.435 . S
O902 C891 1.256 . S
O903 Gd872 2.327 . S
O903 Gd873 2.717 . S
O903 C891 1.257 . S
H904 C877 0.930 . S
H905 C878 0.931 . S
H906 C880 0.931 . S
H907 C881 0.931 . S
H908 C886 0.930 . S
H909 C887 0.931 . S
H910 C889 0.931 . S
H911 C890 0.931 . S
Gd912 C915 2.818 . S
Gd912 O932 2.377 . S
Gd912 O934 2.448 . S
Gd912 O935 2.506 1_556 S
Gd912 O936 2.435 . S
Gd912 O937 2.717 . S
Gd912 O939 2.395 1_556 S
Gd912 O943 2.327 1_556 S
Gd913 C924 2.818 1_455 S
Gd913 O933 2.395 . S
Gd913 O937 2.327 1_554 S
Gd913 O938 2.377 . S
Gd913 O940 2.448 1_455 S
Gd913 O941 2.506 1_455 S
Gd913 O942 2.435 . S
Gd913 O943 2.717 . S
C914 O932 1.274 . S
C914 O933 1.215 1_556 S
C915 Gd912 2.818 . S
C915 C916 1.510 . S
C915 O934 1.249 . S
C915 O935 1.252 1_556 S
C916 C915 1.510 . S
C916 C917 1.404 . S
C916 C918 1.352 1_556 S
C917 C916 1.404 . S
C917 C921 1.389 . S
C917 H944 0.930 . S
C918 C916 1.352 1_554 S
C918 C920 1.368 1_554 S
C918 H945 0.931 . S
C919 C920 1.407 . S
C919 C921 1.364 . S
C920 C918 1.368 1_556 S
C920 C919 1.407 . S
C920 H946 0.891 1_556 S
C921 C917 1.389 . S
C921 C919 1.364 . S
C921 H947 0.931 . S
C922 O936 1.256 . S
C922 O937 1.257 . S
C923 O938 1.240 . S
C923 O939 1.240 . S
C924 Gd913 2.818 1_655 S
C924 C925 1.510 . S
C924 O940 1.249 . S
C924 O941 1.252 . S
C925 C924 1.510 . S
C925 C926 1.404 . S
C925 C927 1.352 . S
C926 C925 1.404 . S
C926 C930 1.389 . S
C926 H948 0.930 . S
C927 C925 1.352 . S
C927 C929 1.374 . S
C927 H949 0.925 . S
C928 C929 1.359 . S
C928 C930 1.364 . S
C929 C927 1.374 . S
C929 C928 1.359 . S
C929 H950 0.931 . S
C930 C926 1.389 . S
C930 C928 1.364 . S
C930 H951 0.931 . S
C931 O942 1.256 . S
C931 O943 1.257 . S
O932 Gd912 2.377 . S
O932 C914 1.274 . S
O933 Gd913 2.395 . S
O933 C914 1.215 1_554 S
O934 Gd912 2.448 . S
O934 C915 1.249 . S
O935 Gd912 2.506 1_554 S
O935 C915 1.252 1_554 S
O936 Gd912 2.435 . S
O936 C922 1.256 . S
O937 Gd912 2.717 . S
O937 Gd913 2.327 1_556 S
O937 C922 1.257 . S
O938 Gd913 2.377 . S
O938 C923 1.240 . S
O939 Gd912 2.395 1_554 S
O939 C923 1.240 . S
O940 Gd913 2.448 1_655 S
O940 C924 1.249 . S
O941 Gd913 2.506 1_655 S
O941 C924 1.252 . S
O942 Gd913 2.435 . S
O942 C931 1.256 . S
O943 Gd912 2.327 1_554 S
O943 Gd913 2.717 . S
O943 C931 1.257 . S
H944 C917 0.930 . S
H945 C918 0.931 . S
H946 C920 0.891 1_554 S
H947 C921 0.931 . S
H948 C926 0.930 . S
H949 C927 0.925 . S
H950 C929 0.931 . S
H951 C930 0.931 . S
C952 C953 1.349 . S
C952 C954 1.327 . S
C952 H977 0.950 1_455 S
C953 C952 1.349 . S
C953 C969 1.349 . S
C954 C952 1.327 . S
C954 C973 1.429 . S
C954 H978 0.950 . S
C955 C972 1.574 . S
C955 C974 1.368 . S
C955 H979 0.949 . S
H956 C960 0.949 . S
C957 C958 1.349 1_554 S
C957 C959 1.327 . S
C957 H980 0.950 . S
C958 C957 1.349 1_556 S
C958 C970 1.349 . S
C959 C957 1.327 . S
C959 C975 1.429 1_554 S
C959 H981 0.950 . S
C960 H956 0.949 . S
C960 C968 1.574 . S
C960 C976 1.368 . S
H961 C969 0.950 . S
H962 C967 0.950 . S
H963 C968 0.949 . S
H964 C970 0.950 . S
H965 C971 0.950 . S
H966 C972 0.949 1_554 S
C967 H962 0.950 . S
C967 C969 1.327 . S
C967 C973 1.429 . S
C968 C960 1.574 . S
C968 H963 0.949 . S
C968 C974 1.368 . S
C969 C953 1.349 . S
C969 H961 0.950 . S
C969 C967 1.327 . S
C970 C958 1.349 . S
C970 H964 0.950 . S
C970 C971 1.327 . S
C971 H965 0.950 . S
C971 C970 1.327 . S
C971 C975 1.429 . S
C972 C955 1.574 . S
C972 H966 0.949 1_556 S
C972 C976 1.368 . S
C973 C954 1.429 . S
C973 C967 1.429 . S
C973 C974 1.523 . S
C974 C955 1.368 . S
C974 C968 1.368 . S
C974 C973 1.523 . S
C975 C959 1.429 1_556 S
C975 C971 1.429 . S
C975 C976 1.523 . S
C976 C960 1.368 . S
C976 C972 1.368 . S
C976 C975 1.523 . S
H977 C952 0.950 1_655 S
H978 C954 0.950 . S
H979 C955 0.949 . S
H980 C957 0.950 . S
H981 C959 0.950 . S
C982 C983 1.349 . S
C982 C984 1.327 . S
C982 H1007 0.950 . S
C983 C982 1.349 . S
C983 C999 1.349 . S
C984 C982 1.327 . S
C984 C1003 1.429 . S
C984 H1008 0.950 . S
C985 C1002 1.574 . S
C985 C1004 1.368 . S
C985 H1009 0.949 . S
H986 C990 0.949 . S
C987 C988 1.349 . S
C987 C989 1.327 . S
C987 H1010 0.950 . S
C988 C987 1.349 . S
C988 C1000 1.349 . S
C989 C987 1.327 . S
C989 C1005 1.429 . S
C989 H1011 0.950 . S
C990 H986 0.949 . S
C990 C998 1.574 . S
C990 C1006 1.368 . S
H991 C999 0.950 . S
H992 C997 0.950 . S
H993 C998 0.949 . S
H994 C1000 0.950 . S
H995 C1001 0.950 . S
H996 C1002 0.949 . S
C997 H992 0.950 . S
C997 C999 1.327 . S
C997 C1003 1.429 . S
C998 C990 1.574 . S
C998 H993 0.949 . S
C998 C1004 1.368 . S
C999 C983 1.349 . S
C999 H991 0.950 . S
C999 C997 1.327 . S
C1000 C988 1.349 . S
C1000 H994 0.950 . S
C1000 C1001 1.327 . S
C1001 H995 0.950 . S
C1001 C1000 1.327 . S
C1001 C1005 1.429 . S
C1002 C985 1.574 . S
C1002 H996 0.949 . S
C1002 C1006 1.368 . S
C1003 C984 1.429 . S
C1003 C997 1.429 . S
C1003 C1004 1.523 . S
C1004 C985 1.368 . S
C1004 C998 1.368 . S
C1004 C1003 1.523 . S
C1005 C989 1.429 . S
C1005 C1001 1.429 . S
C1005 C1006 1.523 . S
C1006 C990 1.368 . S
C1006 C1002 1.368 . S
C1006 C1005 1.523 . S
H1007 C982 0.950 . S
H1008 C984 0.950 . S
H1009 C985 0.949 . S
H1010 C987 0.950 . S
H1011 C989 0.950 . S
C1012 C1013 1.349 . S
C1012 C1014 1.327 . S
C1012 H1037 0.950 . S
C1013 C1012 1.349 . S
C1013 C1029 1.349 . S
C1014 C1012 1.327 . S
C1014 C1033 1.429 . S
C1014 H1038 0.950 . S
C1015 C1032 1.574 . S
C1015 C1034 1.368 . S
C1015 H1039 0.949 . S
H1016 C1020 0.949 . S
C1017 C1018 1.349 . S
C1017 C1019 1.327 . S
C1017 H1040 0.950 . S
C1018 C1017 1.349 . S
C1018 C1030 1.349 . S
C1019 C1017 1.327 . S
C1019 C1035 1.429 . S
C1019 H1041 0.950 . S
C1020 H1016 0.949 . S
C1020 C1028 1.574 . S
C1020 C1036 1.368 . S
H1021 C1029 0.950 . S
H1022 C1027 0.950 . S
H1023 C1028 0.949 . S
H1024 C1030 0.950 . S
H1025 C1031 0.950 . S
H1026 C1032 0.949 . S
C1027 H1022 0.950 . S
C1027 C1029 1.327 . S
C1027 C1033 1.429 . S
C1028 C1020 1.574 . S
C1028 H1023 0.949 . S
C1028 C1034 1.368 . S
C1029 C1013 1.349 . S
C1029 H1021 0.950 . S
C1029 C1027 1.327 . S
C1030 C1018 1.349 . S
C1030 H1024 0.950 . S
C1030 C1031 1.327 . S
C1031 H1025 0.950 . S
C1031 C1030 1.327 . S
C1031 C1035 1.429 . S
C1032 C1015 1.574 . S
C1032 H1026 0.949 . S
C1032 C1036 1.368 . S
C1033 C1014 1.429 . S
C1033 C1027 1.429 . S
C1033 C1034 1.523 . S
C1034 C1015 1.368 . S
C1034 C1028 1.368 . S
C1034 C1033 1.523 . S
C1035 C1019 1.429 . S
C1035 C1031 1.429 . S
C1035 C1036 1.523 . S
C1036 C1020 1.368 . S
C1036 C1032 1.368 . S
C1036 C1035 1.523 . S
H1037 C1012 0.950 . S
H1038 C1014 0.950 . S
H1039 C1015 0.949 . S
H1040 C1017 0.950 . S
H1041 C1019 0.950 . S
C1042 C1043 1.349 . S
C1042 C1044 1.327 . S
C1042 H1067 0.950 . S
C1043 C1042 1.349 . S
C1043 C1059 1.349 . S
C1044 C1042 1.327 . S
C1044 C1063 1.429 . S
C1044 H1068 0.950 . S
C1045 C1062 1.574 . S
C1045 C1064 1.368 . S
C1045 H1069 0.949 . S
H1046 C1050 0.949 . S
C1047 C1048 1.349 . S
C1047 C1049 1.327 . S
C1047 H1070 0.950 . S
C1048 C1047 1.349 . S
C1048 C1060 1.349 . S
C1049 C1047 1.327 . S
C1049 C1065 1.429 . S
C1049 H1071 0.950 . S
C1050 H1046 0.949 . S
C1050 C1058 1.574 . S
C1050 C1066 1.368 . S
H1051 C1059 0.950 . S
H1052 C1057 0.950 . S
H1053 C1058 0.949 . S
H1054 C1060 0.950 . S
H1055 C1061 0.950 . S
H1056 C1062 0.949 . S
C1057 H1052 0.950 . S
C1057 C1059 1.327 . S
C1057 C1063 1.429 . S
C1058 C1050 1.574 . S
C1058 H1053 0.949 . S
C1058 C1064 1.368 . S
C1059 C1043 1.349 . S
C1059 H1051 0.950 . S
C1059 C1057 1.327 . S
C1060 C1048 1.349 . S
C1060 H1054 0.950 . S
C1060 C1061 1.327 . S
C1061 H1055 0.950 . S
C1061 C1060 1.327 . S
C1061 C1065 1.429 . S
C1062 C1045 1.574 . S
C1062 H1056 0.949 . S
C1062 C1066 1.368 . S
C1063 C1044 1.429 . S
C1063 C1057 1.429 . S
C1063 C1064 1.523 . S
C1064 C1045 1.368 . S
C1064 C1058 1.368 . S
C1064 C1063 1.523 . S
C1065 C1049 1.429 . S
C1065 C1061 1.429 . S
C1065 C1066 1.523 . S
C1066 C1050 1.368 . S
C1066 C1062 1.368 . S
C1066 C1065 1.523 . S
H1067 C1042 0.950 . S
H1068 C1044 0.950 . S
H1069 C1045 0.949 . S
H1070 C1047 0.950 . S
H1071 C1049 0.950 . S
C1072 C1073 1.349 . S
C1072 C1074 1.327 . S
C1072 H1097 0.950 . S
C1073 C1072 1.349 . S
C1073 C1089 1.340 1_455 S
C1074 C1072 1.327 . S
C1074 C1093 1.429 . S
C1074 H1098 0.950 . S
C1075 C1092 1.574 . S
C1075 C1094 1.368 . S
C1075 H1099 0.949 . S
H1076 C1080 0.949 . S
C1077 C1078 1.349 . S
C1077 C1079 1.327 . S
C1077 H1100 0.950 . S
C1078 C1077 1.349 . S
C1078 C1090 1.349 . S
C1079 C1077 1.327 . S
C1079 C1095 1.429 . S
C1079 H1101 0.950 . S
C1080 H1076 0.949 . S
C1080 C1088 1.574 . S
C1080 C1096 1.368 . S
H1081 C1089 0.968 . S
H1082 C1087 0.952 . S
H1083 C1088 0.949 . S
H1084 C1090 0.950 . S
H1085 C1091 0.950 . S
H1086 C1092 0.949 . S
C1087 H1082 0.952 . S
C1087 C1089 1.321 1_455 S
C1087 C1093 1.429 . S
C1088 C1080 1.574 . S
C1088 H1083 0.949 . S
C1088 C1094 1.368 . S
C1089 C1073 1.340 1_655 S
C1089 H1081 0.968 . S
C1089 C1087 1.321 1_655 S
C1090 C1078 1.349 . S
C1090 H1084 0.950 . S
C1090 C1091 1.327 . S
C1091 H1085 0.950 . S
C1091 C1090 1.327 . S
C1091 C1095 1.429 . S
C1092 C1075 1.574 . S
C1092 H1086 0.949 . S
C1092 C1096 1.368 . S
C1093 C1074 1.429 . S
C1093 C1087 1.429 . S
C1093 C1094 1.523 . S
C1094 C1075 1.368 . S
C1094 C1088 1.368 . S
C1094 C1093 1.523 . S
C1095 C1079 1.429 . S
C1095 C1091 1.429 . S
C1095 C1096 1.523 . S
C1096 C1080 1.368 . S
C1096 C1092 1.368 . S
C1096 C1095 1.523 . S
H1097 C1072 0.950 . S
H1098 C1074 0.950 . S
H1099 C1075 0.949 . S
H1100 C1077 0.950 . S
H1101 C1079 0.950 . S
C1102 C1103 1.349 . S
C1102 C1104 1.327 . S
C1102 H1127 0.950 . S
C1103 C1102 1.349 . S
C1103 C1119 1.349 . S
C1104 C1102 1.327 . S
C1104 C1123 1.429 . S
C1104 H1128 0.950 . S
C1105 C1122 1.574 . S
C1105 C1124 1.368 . S
C1105 H1129 0.949 . S
H1106 C1110 0.949 . S
C1107 C1108 1.349 . S
C1107 C1109 1.327 . S
C1107 H1130 0.950 . S
C1108 C1107 1.349 . S
C1108 C1120 1.349 . S
C1109 C1107 1.327 . S
C1109 C1125 1.429 . S
C1109 H1131 0.950 . S
C1110 H1106 0.949 . S
C1110 C1118 1.574 . S
C1110 C1126 1.368 . S
H1111 C1119 0.950 . S
H1112 C1117 0.950 . S
H1113 C1118 0.949 . S
H1114 C1120 0.950 . S
H1115 C1121 0.950 . S
H1116 C1122 0.949 . S
C1117 H1112 0.950 . S
C1117 C1119 1.327 . S
C1117 C1123 1.429 . S
C1118 C1110 1.574 . S
C1118 H1113 0.949 . S
C1118 C1124 1.368 . S
C1119 C1103 1.349 . S
C1119 H1111 0.950 . S
C1119 C1117 1.327 . S
C1120 C1108 1.349 . S
C1120 H1114 0.950 . S
C1120 C1121 1.327 . S
C1121 H1115 0.950 . S
C1121 C1120 1.327 . S
C1121 C1125 1.429 . S
C1122 C1105 1.574 . S
C1122 H1116 0.949 . S
C1122 C1126 1.368 . S
C1123 C1104 1.429 . S
C1123 C1117 1.429 . S
C1123 C1124 1.523 . S
C1124 C1105 1.368 . S
C1124 C1118 1.368 . S
C1124 C1123 1.523 . S
C1125 C1109 1.429 . S
C1125 C1121 1.429 . S
C1125 C1126 1.523 . S
C1126 C1110 1.368 . S
C1126 C1122 1.368 . S
C1126 C1125 1.523 . S
H1127 C1102 0.950 . S
H1128 C1104 0.950 . S
H1129 C1105 0.949 . S
H1130 C1107 0.950 . S
H1131 C1109 0.950 . S
C1132 C1133 1.349 . S
C1132 C1134 1.327 . S
C1132 H1157 0.950 . S
C1133 C1132 1.349 . S
C1133 C1149 1.349 . S
C1134 C1132 1.327 . S
C1134 C1153 1.429 . S
C1134 H1158 0.950 . S
C1135 C1152 1.574 . S
C1135 C1154 1.368 . S
C1135 H1159 0.949 . S
H1136 C1140 0.949 . S
C1137 C1138 1.349 . S
C1137 C1139 1.327 . S
C1137 H1160 0.950 . S
C1138 C1137 1.349 . S
C1138 C1150 1.349 . S
C1139 C1137 1.327 . S
C1139 C1155 1.429 . S
C1139 H1161 0.950 . S
C1140 H1136 0.949 . S
C1140 C1148 1.574 . S
C1140 C1156 1.368 . S
H1141 C1149 0.950 . S
H1142 C1147 0.950 . S
H1143 C1148 0.949 . S
H1144 C1150 0.950 . S
H1145 C1151 0.950 . S
H1146 C1152 0.949 . S
C1147 H1142 0.950 . S
C1147 C1149 1.327 . S
C1147 C1153 1.429 . S
C1148 C1140 1.574 . S
C1148 H1143 0.949 . S
C1148 C1154 1.368 . S
C1149 C1133 1.349 . S
C1149 H1141 0.950 . S
C1149 C1147 1.327 . S
C1150 C1138 1.349 . S
C1150 H1144 0.950 . S
C1150 C1151 1.327 . S
C1151 H1145 0.950 . S
C1151 C1150 1.327 . S
C1151 C1155 1.429 . S
C1152 C1135 1.574 . S
C1152 H1146 0.949 . S
C1152 C1156 1.368 . S
C1153 C1134 1.429 . S
C1153 C1147 1.429 . S
C1153 C1154 1.523 . S
C1154 C1135 1.368 . S
C1154 C1148 1.368 . S
C1154 C1153 1.523 . S
C1155 C1139 1.429 . S
C1155 C1151 1.429 . S
C1155 C1156 1.523 . S
C1156 C1140 1.368 . S
C1156 C1152 1.368 . S
C1156 C1155 1.523 . S
H1157 C1132 0.950 . S
H1158 C1134 0.950 . S
H1159 C1135 0.949 . S
H1160 C1137 0.950 . S
H1161 C1139 0.950 . S
C1162 C1163 1.349 . S
C1162 C1164 1.327 . S
C1162 H1187 0.950 . S
C1163 C1162 1.349 . S
C1163 C1179 1.349 . S
C1164 C1162 1.327 . S
C1164 C1183 1.429 . S
C1164 H1188 0.950 . S
C1165 C1182 1.574 . S
C1165 C1184 1.368 . S
C1165 H1189 0.949 . S
H1166 C1170 0.949 . S
C1167 C1168 1.349 . S
C1167 C1169 1.327 . S
C1167 H1190 0.950 . S
C1168 C1167 1.349 . S
C1168 C1180 1.349 . S
C1169 C1167 1.327 . S
C1169 C1185 1.429 . S
C1169 H1191 0.950 . S
C1170 H1166 0.949 . S
C1170 C1178 1.574 . S
C1170 C1186 1.368 . S
H1171 C1179 0.950 . S
H1172 C1177 0.950 . S
H1173 C1178 0.949 . S
H1174 C1180 0.950 . S
H1175 C1181 0.950 . S
H1176 C1182 0.949 . S
C1177 H1172 0.950 . S
C1177 C1179 1.327 . S
C1177 C1183 1.429 . S
C1178 C1170 1.574 . S
C1178 H1173 0.949 . S
C1178 C1184 1.368 . S
C1179 C1163 1.349 . S
C1179 H1171 0.950 . S
C1179 C1177 1.327 . S
C1180 C1168 1.349 . S
C1180 H1174 0.950 . S
C1180 C1181 1.327 . S
C1181 H1175 0.950 . S
C1181 C1180 1.327 . S
C1181 C1185 1.429 . S
C1182 C1165 1.574 . S
C1182 H1176 0.949 . S
C1182 C1186 1.368 . S
C1183 C1164 1.429 . S
C1183 C1177 1.429 . S
C1183 C1184 1.523 . S
C1184 C1165 1.368 . S
C1184 C1178 1.368 . S
C1184 C1183 1.523 . S
C1185 C1169 1.429 . S
C1185 C1181 1.429 . S
C1185 C1186 1.523 . S
C1186 C1170 1.368 . S
C1186 C1182 1.368 . S
C1186 C1185 1.523 . S
H1187 C1162 0.950 . S
H1188 C1164 0.950 . S
H1189 C1165 0.949 . S
H1190 C1167 0.950 . S
H1191 C1169 0.950 . S
C1192 C1193 1.349 . S
C1192 C1194 1.327 . S
C1192 H1217 0.950 . S
C1193 C1192 1.349 . S
C1193 C1209 1.349 . S
C1194 C1192 1.327 . S
C1194 C1213 1.429 . S
C1194 H1218 0.950 . S
C1195 C1212 1.574 1_655 S
C1195 C1214 1.368 . S
C1195 H1219 0.949 1_655 S
H1196 C1200 0.949 . S
C1197 C1198 1.349 . S
C1197 C1199 1.327 . S
C1197 H1220 0.950 . S
C1198 C1197 1.349 . S
C1198 C1210 1.349 . S
C1199 C1197 1.327 . S
C1199 C1215 1.429 . S
C1199 H1221 0.950 . S
C1200 H1196 0.949 . S
C1200 C1208 1.574 . S
C1200 C1216 1.368 . S
H1201 C1209 0.950 . S
H1202 C1207 0.950 . S
H1203 C1208 0.949 . S
H1204 C1210 0.950 1_655 S
H1205 C1211 0.950 . S
H1206 C1212 0.949 . S
C1207 H1202 0.950 . S
C1207 C1209 1.327 . S
C1207 C1213 1.429 . S
C1208 C1200 1.574 . S
C1208 H1203 0.949 . S
C1208 C1214 1.368 . S
C1209 C1193 1.349 . S
C1209 H1201 0.950 . S
C1209 C1207 1.327 . S
C1210 C1198 1.349 . S
C1210 H1204 0.950 1_455 S
C1210 C1211 1.327 1_455 S
C1211 H1205 0.950 . S
C1211 C1210 1.327 1_655 S
C1211 C1215 1.429 1_655 S
C1212 C1195 1.574 1_455 S
C1212 H1206 0.949 . S
C1212 C1216 1.368 1_455 S
C1213 C1194 1.429 . S
C1213 C1207 1.429 . S
C1213 C1214 1.523 . S
C1214 C1195 1.368 . S
C1214 C1208 1.368 . S
C1214 C1213 1.523 . S
C1215 C1199 1.429 . S
C1215 C1211 1.429 1_455 S
C1215 C1216 1.523 1_455 S
C1216 C1200 1.368 . S
C1216 C1212 1.368 1_655 S
C1216 C1215 1.523 1_655 S
H1217 C1192 0.950 . S
H1218 C1194 0.950 . S
H1219 C1195 0.949 1_455 S
H1220 C1197 0.950 . S
H1221 C1199 0.950 . S
C1222 C1223 1.349 . S
C1222 C1224 1.327 . S
C1222 H1247 0.950 . S
C1223 C1222 1.349 . S
C1223 C1239 1.349 . S
C1224 C1222 1.327 . S
C1224 C1243 1.429 . S
C1224 H1248 0.950 . S
C1225 C1242 1.574 . S
C1225 C1244 1.368 . S
C1225 H1249 0.949 . S
H1226 C1230 0.949 . S
C1227 C1228 1.349 . S
C1227 C1229 1.327 . S
C1227 H1250 0.950 . S
C1228 C1227 1.349 . S
C1228 C1240 1.349 . S
C1229 C1227 1.327 . S
C1229 C1245 1.429 . S
C1229 H1251 0.950 . S
C1230 H1226 0.949 . S
C1230 C1238 1.574 . S
C1230 C1246 1.368 . S
H1231 C1239 0.950 . S
H1232 C1237 0.950 . S
H1233 C1238 0.949 . S
H1234 C1240 0.950 . S
H1235 C1241 0.950 . S
H1236 C1242 0.949 . S
C1237 H1232 0.950 . S
C1237 C1239 1.327 . S
C1237 C1243 1.429 . S
C1238 C1230 1.574 . S
C1238 H1233 0.949 . S
C1238 C1244 1.368 . S
C1239 C1223 1.349 . S
C1239 H1231 0.950 . S
C1239 C1237 1.327 . S
C1240 C1228 1.349 . S
C1240 H1234 0.950 . S
C1240 C1241 1.327 . S
C1241 H1235 0.950 . S
C1241 C1240 1.327 . S
C1241 C1245 1.429 . S
C1242 C1225 1.574 . S
C1242 H1236 0.949 . S
C1242 C1246 1.368 . S
C1243 C1224 1.429 . S
C1243 C1237 1.429 . S
C1243 C1244 1.523 . S
C1244 C1225 1.368 . S
C1244 C1238 1.368 . S
C1244 C1243 1.523 . S
C1245 C1229 1.429 . S
C1245 C1241 1.429 . S
C1245 C1246 1.523 . S
C1246 C1230 1.368 . S
C1246 C1242 1.368 . S
C1246 C1245 1.523 . S
H1247 C1222 0.950 . S
H1248 C1224 0.950 . S
H1249 C1225 0.949 . S
H1250 C1227 0.950 . S
H1251 C1229 0.950 . S
C1252 C1253 1.349 . S
C1252 C1254 1.327 . S
C1252 H1277 0.950 . S
C1253 C1252 1.349 . S
C1253 C1269 1.349 . S
C1254 C1252 1.327 . S
C1254 C1273 1.429 . S
C1254 H1278 0.950 . S
C1255 C1272 1.574 . S
C1255 C1274 1.368 . S
C1255 H1279 0.949 . S
H1256 C1260 0.949 . S
C1257 C1258 1.349 . S
C1257 C1259 1.327 . S
C1257 H1280 0.950 . S
C1258 C1257 1.349 . S
C1258 C1270 1.349 . S
C1259 C1257 1.327 . S
C1259 C1275 1.429 . S
C1259 H1281 0.950 . S
C1260 H1256 0.949 . S
C1260 C1268 1.574 . S
C1260 C1276 1.368 . S
H1261 C1269 0.950 . S
H1262 C1267 0.950 . S
H1263 C1268 0.949 . S
H1264 C1270 0.950 . S
H1265 C1271 0.950 . S
H1266 C1272 0.949 . S
C1267 H1262 0.950 . S
C1267 C1269 1.327 . S
C1267 C1273 1.429 . S
C1268 C1260 1.574 . S
C1268 H1263 0.949 . S
C1268 C1274 1.368 . S
C1269 C1253 1.349 . S
C1269 H1261 0.950 . S
C1269 C1267 1.327 . S
C1270 C1258 1.349 . S
C1270 H1264 0.950 . S
C1270 C1271 1.327 . S
C1271 H1265 0.950 . S
C1271 C1270 1.327 . S
C1271 C1275 1.429 . S
C1272 C1255 1.574 . S
C1272 H1266 0.949 . S
C1272 C1276 1.368 . S
C1273 C1254 1.429 . S
C1273 C1267 1.429 . S
C1273 C1274 1.523 . S
C1274 C1255 1.368 . S
C1274 C1268 1.368 . S
C1274 C1273 1.523 . S
C1275 C1259 1.429 . S
C1275 C1271 1.429 . S
C1275 C1276 1.523 . S
C1276 C1260 1.368 . S
C1276 C1272 1.368 . S
C1276 C1275 1.523 . S
H1277 C1252 0.950 . S
H1278 C1254 0.950 . S
H1279 C1255 0.949 . S
H1280 C1257 0.950 . S
H1281 C1259 0.950 . S
C1282 C1283 1.349 . S
C1282 C1284 1.327 . S
C1282 H1307 0.950 . S
C1283 C1282 1.349 . S
C1283 C1299 1.349 . S
C1284 C1282 1.327 . S
C1284 C1303 1.429 . S
C1284 H1308 0.950 . S
C1285 C1302 1.574 . S
C1285 C1304 1.368 . S
C1285 H1309 0.949 . S
H1286 C1290 0.949 . S
C1287 C1288 1.349 . S
C1287 C1289 1.327 . S
C1287 H1310 0.950 . S
C1288 C1287 1.349 . S
C1288 C1300 1.349 . S
C1289 C1287 1.327 . S
C1289 C1305 1.429 . S
C1289 H1311 0.950 . S
C1290 H1286 0.949 . S
C1290 C1298 1.574 . S
C1290 C1306 1.368 . S
H1291 C1299 0.950 . S
H1292 C1297 0.950 . S
H1293 C1298 0.949 . S
H1294 C1300 0.950 . S
H1295 C1301 0.950 . S
H1296 C1302 0.949 . S
C1297 H1292 0.950 . S
C1297 C1299 1.327 . S
C1297 C1303 1.429 . S
C1298 C1290 1.574 . S
C1298 H1293 0.949 . S
C1298 C1304 1.368 . S
C1299 C1283 1.349 . S
C1299 H1291 0.950 . S
C1299 C1297 1.327 . S
C1300 C1288 1.349 . S
C1300 H1294 0.950 . S
C1300 C1301 1.327 . S
C1301 H1295 0.950 . S
C1301 C1300 1.327 . S
C1301 C1305 1.429 . S
C1302 C1285 1.574 . S
C1302 H1296 0.949 . S
C1302 C1306 1.368 . S
C1303 C1284 1.429 . S
C1303 C1297 1.429 . S
C1303 C1304 1.523 . S
C1304 C1285 1.368 . S
C1304 C1298 1.368 . S
C1304 C1303 1.523 . S
C1305 C1289 1.429 . S
C1305 C1301 1.429 . S
C1305 C1306 1.523 . S
C1306 C1290 1.368 . S
C1306 C1302 1.368 . S
C1306 C1305 1.523 . S
H1307 C1282 0.950 . S
H1308 C1284 0.950 . S
H1309 C1285 0.949 . S
H1310 C1287 0.950 . S
H1311 C1289 0.950 . S
C1312 C1313 1.349 . S
C1312 C1314 1.327 . S
C1312 H1337 0.950 . S
C1313 C1312 1.349 . S
C1313 C1329 1.349 . S
C1314 C1312 1.327 . S
C1314 C1333 1.429 . S
C1314 H1338 0.950 . S
C1315 C1332 1.584 . S
C1315 C1334 1.368 . S
C1315 H1339 0.949 . S
H1316 C1320 0.949 . S
C1317 C1318 1.349 . S
C1317 C1319 1.327 . S
C1317 H1340 0.950 . S
C1318 C1317 1.349 . S
C1318 C1330 1.349 . S
C1319 C1317 1.327 . S
C1319 C1335 1.429 . S
C1319 H1341 0.950 . S
C1320 H1316 0.949 . S
C1320 C1328 1.574 . S
C1320 C1336 1.368 . S
H1321 C1329 0.950 . S
H1322 C1327 0.950 . S
H1323 C1328 0.949 . S
H1324 C1330 0.950 . S
H1325 C1331 0.950 1_655 S
H1326 C1332 0.930 1_455 S
C1327 H1322 0.950 . S
C1327 C1329 1.327 . S
C1327 C1333 1.429 . S
C1328 C1320 1.574 . S
C1328 H1323 0.949 . S
C1328 C1334 1.368 . S
C1329 C1313 1.349 . S
C1329 H1321 0.950 . S
C1329 C1327 1.327 . S
C1330 C1318 1.349 . S
C1330 H1324 0.950 . S
C1330 C1331 1.327 . S
C1331 H1325 0.950 1_455 S
C1331 C1330 1.327 . S
C1331 C1335 1.429 . S
C1332 C1315 1.584 . S
C1332 H1326 0.930 1_655 S
C1332 C1336 1.379 . S
C1333 C1314 1.429 . S
C1333 C1327 1.429 . S
C1333 C1334 1.523 . S
C1334 C1315 1.368 . S
C1334 C1328 1.368 . S
C1334 C1333 1.523 . S
C1335 C1319 1.429 . S
C1335 C1331 1.429 . S
C1335 C1336 1.523 1_455 S
C1336 C1320 1.368 . S
C1336 C1332 1.379 . S
C1336 C1335 1.523 1_655 S
H1337 C1312 0.950 . S
H1338 C1314 0.950 . S
H1339 C1315 0.949 . S
H1340 C1317 0.950 . S
H1341 C1319 0.950 . S
C1342 C1343 1.349 . S
C1342 C1344 1.327 . S
C1342 H1367 0.950 . S
C1343 C1342 1.349 . S
C1343 C1359 1.349 . S
C1344 C1342 1.327 . S
C1344 C1363 1.429 . S
C1344 H1368 0.950 . S
C1345 C1362 1.574 . S
C1345 C1364 1.368 . S
C1345 H1369 0.949 . S
H1346 C1350 0.949 . S
C1347 C1348 1.349 . S
C1347 C1349 1.327 . S
C1347 H1370 0.950 . S
C1348 C1347 1.349 . S
C1348 C1360 1.349 . S
C1349 C1347 1.327 . S
C1349 C1365 1.429 . S
C1349 H1371 0.950 . S
C1350 H1346 0.949 . S
C1350 C1358 1.574 . S
C1350 C1366 1.368 . S
H1351 C1359 0.950 . S
H1352 C1357 0.950 . S
H1353 C1358 0.949 . S
H1354 C1360 0.950 . S
H1355 C1361 0.950 . S
H1356 C1362 0.949 . S
C1357 H1352 0.950 . S
C1357 C1359 1.327 . S
C1357 C1363 1.429 . S
C1358 C1350 1.574 . S
C1358 H1353 0.949 . S
C1358 C1364 1.368 . S
C1359 C1343 1.349 . S
C1359 H1351 0.950 . S
C1359 C1357 1.327 . S
C1360 C1348 1.349 . S
C1360 H1354 0.950 . S
C1360 C1361 1.327 . S
C1361 H1355 0.950 . S
C1361 C1360 1.327 . S
C1361 C1365 1.429 . S
C1362 C1345 1.574 . S
C1362 H1356 0.949 . S
C1362 C1366 1.368 . S
C1363 C1344 1.429 . S
C1363 C1357 1.429 . S
C1363 C1364 1.523 . S
C1364 C1345 1.368 . S
C1364 C1358 1.368 . S
C1364 C1363 1.523 . S
C1365 C1349 1.429 . S
C1365 C1361 1.429 . S
C1365 C1366 1.523 . S
C1366 C1350 1.368 . S
C1366 C1362 1.368 . S
C1366 C1365 1.523 . S
H1367 C1342 0.950 . S
H1368 C1344 0.950 . S
H1369 C1345 0.949 . S
H1370 C1347 0.950 . S
H1371 C1349 0.950 . S
C1372 C1373 1.349 . S
C1372 C1374 1.327 . S
C1372 H1397 0.950 . S
C1373 C1372 1.349 . S
C1373 C1389 1.349 . S
C1374 C1372 1.327 . S
C1374 C1393 1.429 . S
C1374 H1398 0.950 . S
C1375 C1392 1.574 . S
C1375 C1394 1.368 . S
C1375 H1399 0.949 . S
H1376 C1380 0.949 . S
C1377 C1378 1.349 . S
C1377 C1379 1.327 . S
C1377 H1400 0.950 . S
C1378 C1377 1.349 . S
C1378 C1390 1.349 . S
C1379 C1377 1.327 . S
C1379 C1395 1.429 . S
C1379 H1401 0.950 . S
C1380 H1376 0.949 . S
C1380 C1388 1.574 . S
C1380 C1396 1.368 . S
H1381 C1389 0.950 . S
H1382 C1387 0.950 . S
H1383 C1388 0.949 . S
H1384 C1390 0.950 . S
H1385 C1391 0.950 . S
H1386 C1392 0.949 . S
C1387 H1382 0.950 . S
C1387 C1389 1.327 . S
C1387 C1393 1.429 . S
C1388 C1380 1.574 . S
C1388 H1383 0.949 . S
C1388 C1394 1.368 . S
C1389 C1373 1.349 . S
C1389 H1381 0.950 . S
C1389 C1387 1.327 . S
C1390 C1378 1.349 . S
C1390 H1384 0.950 . S
C1390 C1391 1.327 . S
C1391 H1385 0.950 . S
C1391 C1390 1.327 . S
C1391 C1395 1.429 . S
C1392 C1375 1.574 . S
C1392 H1386 0.949 . S
C1392 C1396 1.368 . S
C1393 C1374 1.429 . S
C1393 C1387 1.429 . S
C1393 C1394 1.523 . S
C1394 C1375 1.368 . S
C1394 C1388 1.368 . S
C1394 C1393 1.523 . S
C1395 C1379 1.429 . S
C1395 C1391 1.429 . S
C1395 C1396 1.523 . S
C1396 C1380 1.368 . S
C1396 C1392 1.368 . S
C1396 C1395 1.523 . S
H1397 C1372 0.950 . S
H1398 C1374 0.950 . S
H1399 C1375 0.949 . S
H1400 C1377 0.950 . S
H1401 C1379 0.950 . S
C1402 C1403 1.349 . S
C1402 C1404 1.327 . S
C1402 H1427 0.950 . S
C1403 C1402 1.349 . S
C1403 C1419 1.349 . S
C1404 C1402 1.327 . S
C1404 C1423 1.429 . S
C1404 H1428 0.950 . S
C1405 C1422 1.574 . S
C1405 C1424 1.368 . S
C1405 H1429 0.949 . S
H1406 C1410 0.949 . S
C1407 C1408 1.349 . S
C1407 C1409 1.327 . S
C1407 H1430 0.950 . S
C1408 C1407 1.349 . S
C1408 C1420 1.349 . S
C1409 C1407 1.327 . S
C1409 C1425 1.429 . S
C1409 H1431 0.950 . S
C1410 H1406 0.949 . S
C1410 C1418 1.574 . S
C1410 C1426 1.368 . S
H1411 C1419 0.950 . S
H1412 C1417 0.950 . S
H1413 C1418 0.949 . S
H1414 C1420 0.950 . S
H1415 C1421 0.950 . S
H1416 C1422 0.949 . S
C1417 H1412 0.950 . S
C1417 C1419 1.327 . S
C1417 C1423 1.429 . S
C1418 C1410 1.574 . S
C1418 H1413 0.949 . S
C1418 C1424 1.368 . S
C1419 C1403 1.349 . S
C1419 H1411 0.950 . S
C1419 C1417 1.327 . S
C1420 C1408 1.349 . S
C1420 H1414 0.950 . S
C1420 C1421 1.327 . S
C1421 H1415 0.950 . S
C1421 C1420 1.327 . S
C1421 C1425 1.429 . S
C1422 C1405 1.574 . S
C1422 H1416 0.949 . S
C1422 C1426 1.368 . S
C1423 C1404 1.429 . S
C1423 C1417 1.429 . S
C1423 C1424 1.523 . S
C1424 C1405 1.368 . S
C1424 C1418 1.368 . S
C1424 C1423 1.523 . S
C1425 C1409 1.429 . S
C1425 C1421 1.429 . S
C1425 C1426 1.523 . S
C1426 C1410 1.368 . S
C1426 C1422 1.368 . S
C1426 C1425 1.523 . S
H1427 C1402 0.950 . S
H1428 C1404 0.950 . S
H1429 C1405 0.949 . S
H1430 C1407 0.950 . S
H1431 C1409 0.950 . S
C1432 C1433 1.349 1_556 S
C1432 C1434 1.327 1_556 S
C1432 H1457 0.950 . S
C1433 C1432 1.349 1_554 S
C1433 C1449 1.349 . S
C1434 C1432 1.327 1_554 S
C1434 C1453 1.429 . S
C1434 H1458 0.950 1_554 S
C1435 C1452 1.574 . S
C1435 C1454 1.368 . S
C1435 H1459 0.949 . S
H1436 C1440 0.949 . S
C1437 C1438 1.349 . S
C1437 C1439 1.327 . S
C1437 H1460 0.950 1_565 S
C1438 C1437 1.349 . S
C1438 C1450 1.349 . S
C1439 C1437 1.327 . S
C1439 C1455 1.429 . S
C1439 H1461 0.950 . S
C1440 H1436 0.949 . S
C1440 C1448 1.574 . S
C1440 C1456 1.368 . S
H1441 C1449 0.950 . S
H1442 C1447 0.950 . S
H1443 C1448 0.949 1_556 S
H1444 C1450 0.950 . S
H1445 C1451 0.950 . S
H1446 C1452 0.949 . S
C1447 H1442 0.950 . S
C1447 C1449 1.327 . S
C1447 C1453 1.429 . S
C1448 C1440 1.574 . S
C1448 H1443 0.949 1_554 S
C1448 C1454 1.368 . S
C1449 C1433 1.349 . S
C1449 H1441 0.950 . S
C1449 C1447 1.327 . S
C1450 C1438 1.349 . S
C1450 H1444 0.950 . S
C1450 C1451 1.327 . S
C1451 H1445 0.950 . S
C1451 C1450 1.327 . S
C1451 C1455 1.429 . S
C1452 C1435 1.574 . S
C1452 H1446 0.949 . S
C1452 C1456 1.368 . S
C1453 C1434 1.429 . S
C1453 C1447 1.429 . S
C1453 C1454 1.523 . S
C1454 C1435 1.368 . S
C1454 C1448 1.368 . S
C1454 C1453 1.523 . S
C1455 C1439 1.429 . S
C1455 C1451 1.429 . S
C1455 C1456 1.523 . S
C1456 C1440 1.368 . S
C1456 C1452 1.368 . S
C1456 C1455 1.523 . S
H1457 C1432 0.950 . S
H1458 C1434 0.950 1_556 S
H1459 C1435 0.949 . S
H1460 C1437 0.950 1_545 S
H1461 C1439 0.950 . S
C1462 C1463 1.333 1_556 S
C1462 C1464 1.327 . S
C1462 H1487 0.950 . S
C1463 C1462 1.333 1_554 S
C1463 C1479 1.375 . S
C1464 C1462 1.327 . S
C1464 C1483 1.429 1_556 S
C1464 H1488 0.950 . S
C1465 C1482 1.574 . S
C1465 C1484 1.368 . S
C1465 H1489 0.949 . S
H1466 C1470 0.949 . S
C1467 C1468 1.349 . S
C1467 C1469 1.327 . S
C1467 H1490 0.950 . S
C1468 C1467 1.349 . S
C1468 C1480 1.349 1_554 S
C1469 C1467 1.327 . S
C1469 C1485 1.429 . S
C1469 H1491 0.950 . S
C1470 H1466 0.949 . S
C1470 C1478 1.574 . S
C1470 C1486 1.368 1_556 S
H1471 C1479 0.950 . S
H1472 C1477 0.950 . S
H1473 C1478 0.949 . S
H1474 C1480 0.950 . S
H1475 C1481 0.950 . S
H1476 C1482 0.949 . S
C1477 H1472 0.950 . S
C1477 C1479 1.327 . S
C1477 C1483 1.429 . S
C1478 C1470 1.574 . S
C1478 H1473 0.949 . S
C1478 C1484 1.368 1_556 S
C1479 C1463 1.375 . S
C1479 H1471 0.950 . S
C1479 C1477 1.327 . S
C1480 C1468 1.349 1_556 S
C1480 H1474 0.950 . S
C1480 C1481 1.327 . S
C1481 H1475 0.950 . S
C1481 C1480 1.327 . S
C1481 C1485 1.429 1_556 S
C1482 C1465 1.574 . S
C1482 H1476 0.949 . S
C1482 C1486 1.368 . S
C1483 C1464 1.429 1_554 S
C1483 C1477 1.429 . S
C1483 C1484 1.523 . S
C1484 C1465 1.368 . S
C1484 C1478 1.368 1_554 S
C1484 C1483 1.523 . S
C1485 C1469 1.429 . S
C1485 C1481 1.429 1_554 S
C1485 C1486 1.523 . S
C1486 C1470 1.368 1_554 S
C1486 C1482 1.368 . S
C1486 C1485 1.523 . S
H1487 C1462 0.950 . S
H1488 C1464 0.950 . S
H1489 C1465 0.949 . S
H1490 C1467 0.950 . S
H1491 C1469 0.950 . S
C1492 C1493 1.349 . S
C1492 C1494 1.327 . S
C1492 H1517 0.950 . S
C1493 C1492 1.349 . S
C1493 C1509 1.349 . S
C1494 C1492 1.327 . S
C1494 C1513 1.429 . S
C1494 H1518 0.950 . S
C1495 C1512 1.574 . S
C1495 C1514 1.368 . S
C1495 H1519 0.949 . S
H1496 C1500 0.949 . S
C1497 C1498 1.349 . S
C1497 C1499 1.327 . S
C1497 H1520 0.950 . S
C1498 C1497 1.349 . S
C1498 C1510 1.349 . S
C1499 C1497 1.327 . S
C1499 C1515 1.429 . S
C1499 H1521 0.950 . S
C1500 H1496 0.949 . S
C1500 C1508 1.574 . S
C1500 C1516 1.368 . S
H1501 C1509 0.950 . S
H1502 C1507 0.950 . S
H1503 C1508 0.949 . S
H1504 C1510 0.950 . S
H1505 C1511 0.950 . S
H1506 C1512 0.949 . S
C1507 H1502 0.950 . S
C1507 C1509 1.327 . S
C1507 C1513 1.429 . S
C1508 C1500 1.574 . S
C1508 H1503 0.949 . S
C1508 C1514 1.368 . S
C1509 C1493 1.349 . S
C1509 H1501 0.950 . S
C1509 C1507 1.327 . S
C1510 C1498 1.349 . S
C1510 H1504 0.950 . S
C1510 C1511 1.327 . S
C1511 H1505 0.950 . S
C1511 C1510 1.327 . S
C1511 C1515 1.429 . S
C1512 C1495 1.574 . S
C1512 H1506 0.949 . S
C1512 C1516 1.368 . S
C1513 C1494 1.429 . S
C1513 C1507 1.429 . S
C1513 C1514 1.523 . S
C1514 C1495 1.368 . S
C1514 C1508 1.368 . S
C1514 C1513 1.523 . S
C1515 C1499 1.429 . S
C1515 C1511 1.429 . S
C1515 C1516 1.523 . S
C1516 C1500 1.368 . S
C1516 C1512 1.368 . S
C1516 C1515 1.523 . S
H1517 C1492 0.950 . S
H1518 C1494 0.950 . S
H1519 C1495 0.949 . S
H1520 C1497 0.950 . S
H1521 C1499 0.950 . S
C1522 C1523 1.349 . S
C1522 C1524 1.327 . S
C1522 H1547 0.950 . S
C1523 C1522 1.349 . S
C1523 C1539 1.349 . S
C1524 C1522 1.327 . S
C1524 C1543 1.429 . S
C1524 H1548 0.950 . S
C1525 C1542 1.574 . S
C1525 C1544 1.368 . S
C1525 H1549 0.949 . S
H1526 C1530 0.949 . S
C1527 C1528 1.349 . S
C1527 C1529 1.327 . S
C1527 H1550 0.950 1_655 S
C1528 C1527 1.349 . S
C1528 C1540 1.349 . S
C1529 C1527 1.327 . S
C1529 C1545 1.429 . S
C1529 H1551 0.950 . S
C1530 H1526 0.949 . S
C1530 C1538 1.574 . S
C1530 C1546 1.368 . S
H1531 C1539 0.950 . S
H1532 C1537 0.950 . S
H1533 C1538 0.949 . S
H1534 C1540 0.950 . S
H1535 C1541 0.950 . S
H1536 C1542 0.949 . S
C1537 H1532 0.950 . S
C1537 C1539 1.327 . S
C1537 C1543 1.429 . S
C1538 C1530 1.574 . S
C1538 H1533 0.949 . S
C1538 C1544 1.368 . S
C1539 C1523 1.349 . S
C1539 H1531 0.950 . S
C1539 C1537 1.327 . S
C1540 C1528 1.349 . S
C1540 H1534 0.950 . S
C1540 C1541 1.327 . S
C1541 H1535 0.950 . S
C1541 C1540 1.327 . S
C1541 C1545 1.429 . S
C1542 C1525 1.574 . S
C1542 H1536 0.949 . S
C1542 C1546 1.368 . S
C1543 C1524 1.429 . S
C1543 C1537 1.429 . S
C1543 C1544 1.523 . S
C1544 C1525 1.368 . S
C1544 C1538 1.368 . S
C1544 C1543 1.523 . S
C1545 C1529 1.429 . S
C1545 C1541 1.429 . S
C1545 C1546 1.523 . S
C1546 C1530 1.368 . S
C1546 C1542 1.368 . S
C1546 C1545 1.523 . S
H1547 C1522 0.950 . S
H1548 C1524 0.950 . S
H1549 C1525 0.949 . S
H1550 C1527 0.950 1_455 S
H1551 C1529 0.950 . S
C1552 C1553 1.349 . S
C1552 C1554 1.327 . S
C1552 H1577 0.950 . S
C1553 C1552 1.349 . S
C1553 C1569 1.349 . S
C1554 C1552 1.327 . S
C1554 C1573 1.429 . S
C1554 H1578 0.950 . S
C1555 C1572 1.574 . S
C1555 C1574 1.368 . S
C1555 H1579 0.949 . S
H1556 C1560 0.949 . S
C1557 C1558 1.349 . S
C1557 C1559 1.327 . S
C1557 H1580 0.950 . S
C1558 C1557 1.349 . S
C1558 C1570 1.349 . S
C1559 C1557 1.327 . S
C1559 C1575 1.429 . S
C1559 H1581 0.950 . S
C1560 H1556 0.949 . S
C1560 C1568 1.574 . S
C1560 C1576 1.368 . S
H1561 C1569 0.950 . S
H1562 C1567 0.950 . S
H1563 C1568 0.949 . S
H1564 C1570 0.950 . S
H1565 C1571 0.950 . S
H1566 C1572 0.949 . S
C1567 H1562 0.950 . S
C1567 C1569 1.327 . S
C1567 C1573 1.429 . S
C1568 C1560 1.574 . S
C1568 H1563 0.949 . S
C1568 C1574 1.368 . S
C1569 C1553 1.349 . S
C1569 H1561 0.950 . S
C1569 C1567 1.327 . S
C1570 C1558 1.349 . S
C1570 H1564 0.950 . S
C1570 C1571 1.327 . S
C1571 H1565 0.950 . S
C1571 C1570 1.327 . S
C1571 C1575 1.429 . S
C1572 C1555 1.574 . S
C1572 H1566 0.949 . S
C1572 C1576 1.368 . S
C1573 C1554 1.429 . S
C1573 C1567 1.429 . S
C1573 C1574 1.523 . S
C1574 C1555 1.368 . S
C1574 C1568 1.368 . S
C1574 C1573 1.523 . S
C1575 C1559 1.429 . S
C1575 C1571 1.429 . S
C1575 C1576 1.523 . S
C1576 C1560 1.368 . S
C1576 C1572 1.368 . S
C1576 C1575 1.523 . S
H1577 C1552 0.950 . S
H1578 C1554 0.950 . S
H1579 C1555 0.949 . S
H1580 C1557 0.950 . S
H1581 C1559 0.950 . S
C1582 C1583 1.349 . S
C1582 C1584 1.327 . S
C1582 H1607 0.950 . S
C1583 C1582 1.349 . S
C1583 C1599 1.349 . S
C1584 C1582 1.327 . S
C1584 C1603 1.429 . S
C1584 H1608 0.950 . S
C1585 C1602 1.574 . S
C1585 C1604 1.368 . S
C1585 H1609 0.949 . S
H1586 C1590 0.949 . S
C1587 C1588 1.349 . S
C1587 C1589 1.327 . S
C1587 H1610 0.950 . S
C1588 C1587 1.349 . S
C1588 C1600 1.349 . S
C1589 C1587 1.327 . S
C1589 C1605 1.429 . S
C1589 H1611 0.950 . S
C1590 H1586 0.949 . S
C1590 C1598 1.574 . S
C1590 C1606 1.368 . S
H1591 C1599 0.950 . S
H1592 C1597 0.950 . S
H1593 C1598 0.949 . S
H1594 C1600 0.950 . S
H1595 C1601 0.950 . S
H1596 C1602 0.949 . S
C1597 H1592 0.950 . S
C1597 C1599 1.327 . S
C1597 C1603 1.429 . S
C1598 C1590 1.574 . S
C1598 H1593 0.949 . S
C1598 C1604 1.368 . S
C1599 C1583 1.349 . S
C1599 H1591 0.950 . S
C1599 C1597 1.327 . S
C1600 C1588 1.349 . S
C1600 H1594 0.950 . S
C1600 C1601 1.327 . S
C1601 H1595 0.950 . S
C1601 C1600 1.327 . S
C1601 C1605 1.429 . S
C1602 C1585 1.574 . S
C1602 H1596 0.949 . S
C1602 C1606 1.368 . S
C1603 C1584 1.429 . S
C1603 C1597 1.429 . S
C1603 C1604 1.523 . S
C1604 C1585 1.368 . S
C1604 C1598 1.368 . S
C1604 C1603 1.523 . S
C1605 C1589 1.429 . S
C1605 C1601 1.429 . S
C1605 C1606 1.523 . S
C1606 C1590 1.368 . S
C1606 C1602 1.368 . S
C1606 C1605 1.523 . S
H1607 C1582 0.950 . S
H1608 C1584 0.950 . S
H1609 C1585 0.949 . S
H1610 C1587 0.950 . S
H1611 C1589 0.950 . S
C1612 C1613 1.349 . S
C1612 C1614 1.327 . S
C1612 H1637 0.950 . S
C1613 C1612 1.349 . S
C1613 C1629 1.349 . S
C1614 C1612 1.327 . S
C1614 C1633 1.429 . S
C1614 H1638 0.950 . S
C1615 C1632 1.574 . S
C1615 C1634 1.368 . S
C1615 H1639 0.949 . S
H1616 C1620 0.949 . S
C1617 C1618 1.349 . S
C1617 C1619 1.327 . S
C1617 H1640 0.950 . S
C1618 C1617 1.349 . S
C1618 C1630 1.349 . S
C1619 C1617 1.327 . S
C1619 C1635 1.429 . S
C1619 H1641 0.950 . S
C1620 H1616 0.949 . S
C1620 C1628 1.574 . S
C1620 C1636 1.368 . S
H1621 C1629 0.950 . S
H1622 C1627 0.950 . S
H1623 C1628 0.949 . S
H1624 C1630 0.950 . S
H1625 C1631 0.950 . S
H1626 C1632 0.949 . S
C1627 H1622 0.950 . S
C1627 C1629 1.327 . S
C1627 C1633 1.429 . S
C1628 C1620 1.574 . S
C1628 H1623 0.949 . S
C1628 C1634 1.368 . S
C1629 C1613 1.349 . S
C1629 H1621 0.950 . S
C1629 C1627 1.327 . S
C1630 C1618 1.349 . S
C1630 H1624 0.950 . S
C1630 C1631 1.327 . S
C1631 H1625 0.950 . S
C1631 C1630 1.327 . S
C1631 C1635 1.429 . S
C1632 C1615 1.574 . S
C1632 H1626 0.949 . S
C1632 C1636 1.368 . S
C1633 C1614 1.429 . S
C1633 C1627 1.429 . S
C1633 C1634 1.523 . S
C1634 C1615 1.368 . S
C1634 C1628 1.368 . S
C1634 C1633 1.523 . S
C1635 C1619 1.429 . S
C1635 C1631 1.429 . S
C1635 C1636 1.523 . S
C1636 C1620 1.368 . S
C1636 C1632 1.368 . S
C1636 C1635 1.523 . S
H1637 C1612 0.950 . S
H1638 C1614 0.950 . S
H1639 C1615 0.949 . S
H1640 C1617 0.950 . S
H1641 C1619 0.950 . S
C1642 C1643 1.349 . S
C1642 C1644 1.327 . S
C1642 H1667 0.950 . S
C1643 C1642 1.349 . S
C1643 C1659 1.349 . S
C1644 C1642 1.327 . S
C1644 C1663 1.429 . S
C1644 H1668 0.950 . S
C1645 C1662 1.574 . S
C1645 C1664 1.368 . S
C1645 H1669 0.949 . S
H1646 C1650 0.949 . S
C1647 C1648 1.349 . S
C1647 C1649 1.327 . S
C1647 H1670 0.950 . S
C1648 C1647 1.349 . S
C1648 C1660 1.349 . S
C1649 C1647 1.327 . S
C1649 C1665 1.429 . S
C1649 H1671 0.950 . S
C1650 H1646 0.949 . S
C1650 C1658 1.574 . S
C1650 C1666 1.368 . S
H1651 C1659 0.950 . S
H1652 C1657 0.950 . S
H1653 C1658 0.949 . S
H1654 C1660 0.950 . S
H1655 C1661 0.950 . S
H1656 C1662 0.949 . S
C1657 H1652 0.950 . S
C1657 C1659 1.327 . S
C1657 C1663 1.429 . S
C1658 C1650 1.574 . S
C1658 H1653 0.949 . S
C1658 C1664 1.368 . S
C1659 C1643 1.349 . S
C1659 H1651 0.950 . S
C1659 C1657 1.327 . S
C1660 C1648 1.349 . S
C1660 H1654 0.950 . S
C1660 C1661 1.327 . S
C1661 H1655 0.950 . S
C1661 C1660 1.327 . S
C1661 C1665 1.429 . S
C1662 C1645 1.574 . S
C1662 H1656 0.949 . S
C1662 C1666 1.368 . S
C1663 C1644 1.429 . S
C1663 C1657 1.429 . S
C1663 C1664 1.523 . S
C1664 C1645 1.368 . S
C1664 C1658 1.368 . S
C1664 C1663 1.523 . S
C1665 C1649 1.429 . S
C1665 C1661 1.429 . S
C1665 C1666 1.523 . S
C1666 C1650 1.368 . S
C1666 C1662 1.368 . S
C1666 C1665 1.523 . S
H1667 C1642 0.950 . S
H1668 C1644 0.950 . S
H1669 C1645 0.949 . S
H1670 C1647 0.950 . S
H1671 C1649 0.950 . S
C1672 C1673 1.349 . S
C1672 C1674 1.327 . S
C1672 H1697 0.950 . S
C1673 C1672 1.349 . S
C1673 C1689 1.349 . S
C1674 C1672 1.327 . S
C1674 C1693 1.429 . S
C1674 H1698 0.950 . S
C1675 C1692 1.574 . S
C1675 C1694 1.368 . S
C1675 H1699 0.949 . S
H1676 C1680 0.949 . S
C1677 C1678 1.349 . S
C1677 C1679 1.327 . S
C1677 H1700 0.950 . S
C1678 C1677 1.349 . S
C1678 C1690 1.349 . S
C1679 C1677 1.327 . S
C1679 C1695 1.429 . S
C1679 H1701 0.950 . S
C1680 H1676 0.949 . S
C1680 C1688 1.574 . S
C1680 C1696 1.368 . S
H1681 C1689 0.950 . S
H1682 C1687 0.950 . S
H1683 C1688 0.949 . S
H1684 C1690 0.950 . S
H1685 C1691 0.950 . S
H1686 C1692 0.949 . S
C1687 H1682 0.950 . S
C1687 C1689 1.327 . S
C1687 C1693 1.429 . S
C1688 C1680 1.574 . S
C1688 H1683 0.949 . S
C1688 C1694 1.368 . S
C1689 C1673 1.349 . S
C1689 H1681 0.950 . S
C1689 C1687 1.327 . S
C1690 C1678 1.349 . S
C1690 H1684 0.950 . S
C1690 C1691 1.327 . S
C1691 H1685 0.950 . S
C1691 C1690 1.327 . S
C1691 C1695 1.429 . S
C1692 C1675 1.574 . S
C1692 H1686 0.949 . S
C1692 C1696 1.368 . S
C1693 C1674 1.429 . S
C1693 C1687 1.429 . S
C1693 C1694 1.523 . S
C1694 C1675 1.368 . S
C1694 C1688 1.368 . S
C1694 C1693 1.523 . S
C1695 C1679 1.429 . S
C1695 C1691 1.429 . S
C1695 C1696 1.523 . S
C1696 C1680 1.368 . S
C1696 C1692 1.368 . S
C1696 C1695 1.523 . S
H1697 C1672 0.950 . S
H1698 C1674 0.950 . S
H1699 C1675 0.949 . S
H1700 C1677 0.950 . S
H1701 C1679 0.950 . S
C1702 C1703 1.349 . S
C1702 C1704 1.327 . S
C1702 H1727 0.950 . S
C1703 C1702 1.349 . S
C1703 C1719 1.349 . S
C1704 C1702 1.327 . S
C1704 C1723 1.429 . S
C1704 H1728 0.950 . S
C1705 C1722 1.574 . S
C1705 C1724 1.368 . S
C1705 H1729 0.949 . S
H1706 C1710 0.949 . S
C1707 C1708 1.349 . S
C1707 C1709 1.327 . S
C1707 H1730 0.950 . S
C1708 C1707 1.349 . S
C1708 C1720 1.349 . S
C1709 C1707 1.327 . S
C1709 C1725 1.429 . S
C1709 H1731 0.950 . S
C1710 H1706 0.949 . S
C1710 C1718 1.574 . S
C1710 C1726 1.368 . S
H1711 C1719 0.950 . S
H1712 C1717 0.950 . S
H1713 C1718 0.949 . S
H1714 C1720 0.950 . S
H1715 C1721 0.950 . S
H1716 C1722 0.949 . S
C1717 H1712 0.950 . S
C1717 C1719 1.327 . S
C1717 C1723 1.429 . S
C1718 C1710 1.574 . S
C1718 H1713 0.949 . S
C1718 C1724 1.368 . S
C1719 C1703 1.349 . S
C1719 H1711 0.950 . S
C1719 C1717 1.327 . S
C1720 C1708 1.349 . S
C1720 H1714 0.950 . S
C1720 C1721 1.327 . S
C1721 H1715 0.950 . S
C1721 C1720 1.327 . S
C1721 C1725 1.429 . S
C1722 C1705 1.574 . S
C1722 H1716 0.949 . S
C1722 C1726 1.368 . S
C1723 C1704 1.429 . S
C1723 C1717 1.429 . S
C1723 C1724 1.523 . S
C1724 C1705 1.368 . S
C1724 C1718 1.368 . S
C1724 C1723 1.523 . S
C1725 C1709 1.429 . S
C1725 C1721 1.429 . S
C1725 C1726 1.523 . S
C1726 C1710 1.368 . S
C1726 C1722 1.368 . S
C1726 C1725 1.523 . S
H1727 C1702 0.950 . S
H1728 C1704 0.950 . S
H1729 C1705 0.949 . S
H1730 C1707 0.950 . S
H1731 C1709 0.950 . S
C1732 C1733 1.349 . S
C1732 C1734 1.327 . S
C1732 H1757 0.950 . S
C1733 C1732 1.349 . S
C1733 C1749 1.349 . S
C1734 C1732 1.327 . S
C1734 C1753 1.429 . S
C1734 H1758 0.950 . S
C1735 C1752 1.574 . S
C1735 C1754 1.368 . S
C1735 H1759 0.949 . S
H1736 C1740 0.949 . S
C1737 C1738 1.349 . S
C1737 C1739 1.327 . S
C1737 H1760 0.950 . S
C1738 C1737 1.349 . S
C1738 C1750 1.349 . S
C1739 C1737 1.327 . S
C1739 C1755 1.429 . S
C1739 H1761 0.950 . S
C1740 H1736 0.949 . S
C1740 C1748 1.574 . S
C1740 C1756 1.368 . S
H1741 C1749 0.950 . S
H1742 C1747 0.950 . S
H1743 C1748 0.949 . S
H1744 C1750 0.950 . S
H1745 C1751 0.950 . S
H1746 C1752 0.949 . S
C1747 H1742 0.950 . S
C1747 C1749 1.327 . S
C1747 C1753 1.429 . S
C1748 C1740 1.574 . S
C1748 H1743 0.949 . S
C1748 C1754 1.368 . S
C1749 C1733 1.349 . S
C1749 H1741 0.950 . S
C1749 C1747 1.327 . S
C1750 C1738 1.349 . S
C1750 H1744 0.950 . S
C1750 C1751 1.327 . S
C1751 H1745 0.950 . S
C1751 C1750 1.327 . S
C1751 C1755 1.429 . S
C1752 C1735 1.574 . S
C1752 H1746 0.949 . S
C1752 C1756 1.368 . S
C1753 C1734 1.429 . S
C1753 C1747 1.429 . S
C1753 C1754 1.523 . S
C1754 C1735 1.368 . S
C1754 C1748 1.368 . S
C1754 C1753 1.523 . S
C1755 C1739 1.429 . S
C1755 C1751 1.429 . S
C1755 C1756 1.523 . S
C1756 C1740 1.368 . S
C1756 C1752 1.368 . S
C1756 C1755 1.523 . S
H1757 C1732 0.950 . S
H1758 C1734 0.950 . S
H1759 C1735 0.949 . S
H1760 C1737 0.950 . S
H1761 C1739 0.950 . S
C1762 C1763 1.349 . S
C1762 C1764 1.327 . S
C1762 H1787 0.950 . S
C1763 C1762 1.349 . S
C1763 C1779 1.349 . S
C1764 C1762 1.327 . S
C1764 C1783 1.429 . S
C1764 H1788 0.950 . S
C1765 C1782 1.574 . S
C1765 C1784 1.368 . S
C1765 H1789 0.949 . S
H1766 C1770 0.949 . S
C1767 C1768 1.349 . S
C1767 C1769 1.327 . S
C1767 H1790 0.950 . S
C1768 C1767 1.349 . S
C1768 C1780 1.349 . S
C1769 C1767 1.327 . S
C1769 C1785 1.429 . S
C1769 H1791 0.950 . S
C1770 H1766 0.949 . S
C1770 C1778 1.574 . S
C1770 C1786 1.368 . S
H1771 C1779 0.950 . S
H1772 C1777 0.950 . S
H1773 C1778 0.949 . S
H1774 C1780 0.950 . S
H1775 C1781 0.950 . S
H1776 C1782 0.949 . S
C1777 H1772 0.950 . S
C1777 C1779 1.327 . S
C1777 C1783 1.429 . S
C1778 C1770 1.574 . S
C1778 H1773 0.949 . S
C1778 C1784 1.368 . S
C1779 C1763 1.349 . S
C1779 H1771 0.950 . S
C1779 C1777 1.327 . S
C1780 C1768 1.349 . S
C1780 H1774 0.950 . S
C1780 C1781 1.327 . S
C1781 H1775 0.950 . S
C1781 C1780 1.327 . S
C1781 C1785 1.429 . S
C1782 C1765 1.574 . S
C1782 H1776 0.949 . S
C1782 C1786 1.368 . S
C1783 C1764 1.429 . S
C1783 C1777 1.429 . S
C1783 C1784 1.523 . S
C1784 C1765 1.368 . S
C1784 C1778 1.368 . S
C1784 C1783 1.523 . S
C1785 C1769 1.429 . S
C1785 C1781 1.429 . S
C1785 C1786 1.523 . S
C1786 C1770 1.368 . S
C1786 C1782 1.368 . S
C1786 C1785 1.523 . S
H1787 C1762 0.950 . S
H1788 C1764 0.950 . S
H1789 C1765 0.949 . S
H1790 C1767 0.950 . S
H1791 C1769 0.950 . S
C1792 C1793 1.349 . S
C1792 C1794 1.327 . S
C1792 H1817 0.950 . S
C1793 C1792 1.349 . S
C1793 C1809 1.349 . S
C1794 C1792 1.327 . S
C1794 C1813 1.429 . S
C1794 H1818 0.950 . S
C1795 C1812 1.574 . S
C1795 C1814 1.368 . S
C1795 H1819 0.949 . S
H1796 C1800 0.949 . S
C1797 C1798 1.349 . S
C1797 C1799 1.327 . S
C1797 H1820 0.950 . S
C1798 C1797 1.349 . S
C1798 C1810 1.349 . S
C1799 C1797 1.327 . S
C1799 C1815 1.429 . S
C1799 H1821 0.950 . S
C1800 H1796 0.949 . S
C1800 C1808 1.574 . S
C1800 C1816 1.368 . S
H1801 C1809 0.950 . S
H1802 C1807 0.950 . S
H1803 C1808 0.949 . S
H1804 C1810 0.950 . S
H1805 C1811 0.950 . S
H1806 C1812 0.949 . S
C1807 H1802 0.950 . S
C1807 C1809 1.327 . S
C1807 C1813 1.429 . S
C1808 C1800 1.574 . S
C1808 H1803 0.949 . S
C1808 C1814 1.368 . S
C1809 C1793 1.349 . S
C1809 H1801 0.950 . S
C1809 C1807 1.327 . S
C1810 C1798 1.349 . S
C1810 H1804 0.950 . S
C1810 C1811 1.327 . S
C1811 H1805 0.950 . S
C1811 C1810 1.327 . S
C1811 C1815 1.429 . S
C1812 C1795 1.574 . S
C1812 H1806 0.949 . S
C1812 C1816 1.368 . S
C1813 C1794 1.429 . S
C1813 C1807 1.429 . S
C1813 C1814 1.523 . S
C1814 C1795 1.368 . S
C1814 C1808 1.368 . S
C1814 C1813 1.523 . S
C1815 C1799 1.429 . S
C1815 C1811 1.429 . S
C1815 C1816 1.523 . S
C1816 C1800 1.368 . S
C1816 C1812 1.368 . S
C1816 C1815 1.523 . S
H1817 C1792 0.950 . S
H1818 C1794 0.950 . S
H1819 C1795 0.949 . S
H1820 C1797 0.950 . S
H1821 C1799 0.950 . S
C1822 C1823 1.349 . S
C1822 C1824 1.327 . S
C1822 H1847 0.950 . S
C1823 C1822 1.349 . S
C1823 C1839 1.349 . S
C1824 C1822 1.327 . S
C1824 C1843 1.429 . S
C1824 H1848 0.950 . S
C1825 C1842 1.574 . S
C1825 C1844 1.368 . S
C1825 H1849 0.949 . S
H1826 C1830 0.949 . S
C1827 C1828 1.349 . S
C1827 C1829 1.327 . S
C1827 H1850 0.950 . S
C1828 C1827 1.349 . S
C1828 C1840 1.349 . S
C1829 C1827 1.327 . S
C1829 C1845 1.429 . S
C1829 H1851 0.950 . S
C1830 H1826 0.949 . S
C1830 C1838 1.574 . S
C1830 C1846 1.368 . S
H1831 C1839 0.950 . S
H1832 C1837 0.950 . S
H1833 C1838 0.949 . S
H1834 C1840 0.950 . S
H1835 C1841 0.950 . S
H1836 C1842 0.949 . S
C1837 H1832 0.950 . S
C1837 C1839 1.327 . S
C1837 C1843 1.429 . S
C1838 C1830 1.574 . S
C1838 H1833 0.949 . S
C1838 C1844 1.368 . S
C1839 C1823 1.349 . S
C1839 H1831 0.950 . S
C1839 C1837 1.327 . S
C1840 C1828 1.349 . S
C1840 H1834 0.950 . S
C1840 C1841 1.327 . S
C1841 H1835 0.950 . S
C1841 C1840 1.327 . S
C1841 C1845 1.429 . S
C1842 C1825 1.574 . S
C1842 H1836 0.949 . S
C1842 C1846 1.368 . S
C1843 C1824 1.429 . S
C1843 C1837 1.429 . S
C1843 C1844 1.523 . S
C1844 C1825 1.368 . S
C1844 C1838 1.368 . S
C1844 C1843 1.523 . S
C1845 C1829 1.429 . S
C1845 C1841 1.429 . S
C1845 C1846 1.523 . S
C1846 C1830 1.368 . S
C1846 C1842 1.368 . S
C1846 C1845 1.523 . S
H1847 C1822 0.950 . S
H1848 C1824 0.950 . S
H1849 C1825 0.949 . S
H1850 C1827 0.950 . S
H1851 C1829 0.950 . S
C1852 C1853 1.349 . S
C1852 C1854 1.327 . S
C1852 H1877 0.950 . S
C1853 C1852 1.349 . S
C1853 C1869 1.349 . S
C1854 C1852 1.327 . S
C1854 C1873 1.429 . S
C1854 H1878 0.950 . S
C1855 C1872 1.574 . S
C1855 C1874 1.368 . S
C1855 H1879 0.949 . S
H1856 C1860 0.949 . S
C1857 C1858 1.349 . S
C1857 C1859 1.327 . S
C1857 H1880 0.950 . S
C1858 C1857 1.349 . S
C1858 C1870 1.349 . S
C1859 C1857 1.327 . S
C1859 C1875 1.429 . S
C1859 H1881 0.950 . S
C1860 H1856 0.949 . S
C1860 C1868 1.574 . S
C1860 C1876 1.368 . S
H1861 C1869 0.950 . S
H1862 C1867 0.950 . S
H1863 C1868 0.949 . S
H1864 C1870 0.950 . S
H1865 C1871 0.950 . S
H1866 C1872 0.949 . S
C1867 H1862 0.950 . S
C1867 C1869 1.327 . S
C1867 C1873 1.429 . S
C1868 C1860 1.574 . S
C1868 H1863 0.949 . S
C1868 C1874 1.368 . S
C1869 C1853 1.349 . S
C1869 H1861 0.950 . S
C1869 C1867 1.327 . S
C1870 C1858 1.349 . S
C1870 H1864 0.950 . S
C1870 C1871 1.327 . S
C1871 H1865 0.950 . S
C1871 C1870 1.327 . S
C1871 C1875 1.429 . S
C1872 C1855 1.574 . S
C1872 H1866 0.949 . S
C1872 C1876 1.368 . S
C1873 C1854 1.429 . S
C1873 C1867 1.429 . S
C1873 C1874 1.523 . S
C1874 C1855 1.368 . S
C1874 C1868 1.368 . S
C1874 C1873 1.523 . S
C1875 C1859 1.429 . S
C1875 C1871 1.429 . S
C1875 C1876 1.523 . S
C1876 C1860 1.368 . S
C1876 C1872 1.368 . S
C1876 C1875 1.523 . S
H1877 C1852 0.950 . S
H1878 C1854 0.950 . S
H1879 C1855 0.949 . S
H1880 C1857 0.950 . S
H1881 C1859 0.950 . S
C1882 C1883 1.349 . S
C1882 C1884 1.327 . S
C1882 H1907 0.950 . S
C1883 C1882 1.349 . S
C1883 C1899 1.349 . S
C1884 C1882 1.327 . S
C1884 C1903 1.429 . S
C1884 H1908 0.950 . S
C1885 C1902 1.574 . S
C1885 C1904 1.368 . S
C1885 H1909 0.949 . S
H1886 C1890 0.949 . S
C1887 C1888 1.349 . S
C1887 C1889 1.327 . S
C1887 H1910 0.950 . S
C1888 C1887 1.349 . S
C1888 C1900 1.349 . S
C1889 C1887 1.327 . S
C1889 C1905 1.429 . S
C1889 H1911 0.950 . S
C1890 H1886 0.949 . S
C1890 C1898 1.574 . S
C1890 C1906 1.368 . S
H1891 C1899 0.950 . S
H1892 C1897 0.950 . S
H1893 C1898 0.949 . S
H1894 C1900 0.950 . S
H1895 C1901 0.950 . S
H1896 C1902 0.949 . S
C1897 H1892 0.950 . S
C1897 C1899 1.327 . S
C1897 C1903 1.429 . S
C1898 C1890 1.574 . S
C1898 H1893 0.949 . S
C1898 C1904 1.368 . S
C1899 C1883 1.349 . S
C1899 H1891 0.950 . S
C1899 C1897 1.327 . S
C1900 C1888 1.349 . S
C1900 H1894 0.950 . S
C1900 C1901 1.327 . S
C1901 H1895 0.950 . S
C1901 C1900 1.327 . S
C1901 C1905 1.429 . S
C1902 C1885 1.574 . S
C1902 H1896 0.949 . S
C1902 C1906 1.368 . S
C1903 C1884 1.429 . S
C1903 C1897 1.429 . S
C1903 C1904 1.523 . S
C1904 C1885 1.368 . S
C1904 C1898 1.368 . S
C1904 C1903 1.523 . S
C1905 C1889 1.429 . S
C1905 C1901 1.429 . S
C1905 C1906 1.523 . S
C1906 C1890 1.368 . S
C1906 C1902 1.368 . S
C1906 C1905 1.523 . S
H1907 C1882 0.950 . S
H1908 C1884 0.950 . S
H1909 C1885 0.949 . S
H1910 C1887 0.950 . S
H1911 C1889 0.950 . S
C1912 C1913 1.349 1_565 S
C1912 C1914 1.327 . S
C1912 H1937 0.950 . S
C1913 C1912 1.349 1_545 S
C1913 C1929 1.349 . S
C1914 C1912 1.327 . S
C1914 C1933 1.429 1_565 S
C1914 H1938 0.950 . S
C1915 C1932 1.574 . S
C1915 C1934 1.368 . S
C1915 H1939 0.949 . S
H1916 C1920 0.949 . S
C1917 C1918 1.349 . S
C1917 C1919 1.327 . S
C1917 H1940 0.950 . S
C1918 C1917 1.349 . S
C1918 C1930 1.400 . S
C1919 C1917 1.327 . S
C1919 C1935 1.429 . S
C1919 H1941 0.950 . S
C1920 H1916 0.949 . S
C1920 C1928 1.574 . S
C1920 C1936 1.368 1_565 S
H1921 C1929 0.950 . S
H1922 C1927 0.950 . S
H1923 C1928 0.949 . S
H1924 C1930 0.903 1_565 S
H1925 C1931 0.998 . S
H1926 C1932 0.949 . S
C1927 H1922 0.950 . S
C1927 C1929 1.327 . S
C1927 C1933 1.429 . S
C1928 C1920 1.574 . S
C1928 H1923 0.949 . S
C1928 C1934 1.368 1_565 S
C1929 C1913 1.349 . S
C1929 H1921 0.950 . S
C1929 C1927 1.327 . S
C1930 C1918 1.400 . S
C1930 H1924 0.903 1_545 S
C1930 C1931 1.324 1_545 S
C1931 H1925 0.998 . S
C1931 C1930 1.324 1_565 S
C1931 C1935 1.386 1_565 S
C1932 C1915 1.574 . S
C1932 H1926 0.949 . S
C1932 C1936 1.368 . S
C1933 C1914 1.429 1_545 S
C1933 C1927 1.429 . S
C1933 C1934 1.523 . S
C1934 C1915 1.368 . S
C1934 C1928 1.368 1_545 S
C1934 C1933 1.523 . S
C1935 C1919 1.429 . S
C1935 C1931 1.386 1_545 S
C1935 C1936 1.523 . S
C1936 C1920 1.368 1_545 S
C1936 C1932 1.368 . S
C1936 C1935 1.523 . S
H1937 C1912 0.950 . S
H1938 C1914 0.950 . S
H1939 C1915 0.949 . S
H1940 C1917 0.950 . S
H1941 C1919 0.950 . S
C1942 C1943 1.349 . S
C1942 C1944 1.327 . S
C1942 H1967 0.950 . S
C1943 C1942 1.349 . S
C1943 C1959 1.349 . S
C1944 C1942 1.327 . S
C1944 C1963 1.429 . S
C1944 H1968 0.950 . S
C1945 C1962 1.574 . S
C1945 C1964 1.368 . S
C1945 H1969 0.949 . S
H1946 C1950 0.949 . S
C1947 C1948 1.349 . S
C1947 C1949 1.327 . S
C1947 H1970 0.950 . S
C1948 C1947 1.349 . S
C1948 C1960 1.349 . S
C1949 C1947 1.327 . S
C1949 C1965 1.429 . S
C1949 H1971 0.950 . S
C1950 H1946 0.949 . S
C1950 C1958 1.574 . S
C1950 C1966 1.368 . S
H1951 C1959 0.950 . S
H1952 C1957 0.950 . S
H1953 C1958 0.949 . S
H1954 C1960 0.950 . S
H1955 C1961 0.950 . S
H1956 C1962 0.949 . S
C1957 H1952 0.950 . S
C1957 C1959 1.327 . S
C1957 C1963 1.429 . S
C1958 C1950 1.574 . S
C1958 H1953 0.949 . S
C1958 C1964 1.368 . S
C1959 C1943 1.349 . S
C1959 H1951 0.950 . S
C1959 C1957 1.327 . S
C1960 C1948 1.349 . S
C1960 H1954 0.950 . S
C1960 C1961 1.327 . S
C1961 H1955 0.950 . S
C1961 C1960 1.327 . S
C1961 C1965 1.429 . S
C1962 C1945 1.574 . S
C1962 H1956 0.949 . S
C1962 C1966 1.368 . S
C1963 C1944 1.429 . S
C1963 C1957 1.429 . S
C1963 C1964 1.523 . S
C1964 C1945 1.368 . S
C1964 C1958 1.368 . S
C1964 C1963 1.523 . S
C1965 C1949 1.429 . S
C1965 C1961 1.429 . S
C1965 C1966 1.523 . S
C1966 C1950 1.368 . S
C1966 C1962 1.368 . S
C1966 C1965 1.523 . S
H1967 C1942 0.950 . S
H1968 C1944 0.950 . S
H1969 C1945 0.949 . S
H1970 C1947 0.950 . S
H1971 C1949 0.950 . S
C1972 C1973 1.349 . S
C1972 C1974 1.327 . S
C1972 H1997 0.950 1_545 S
C1973 C1972 1.349 . S
C1973 C1989 1.349 . S
C1974 C1972 1.327 . S
C1974 C1993 1.429 . S
C1974 H1998 0.950 1_545 S
C1975 C1992 1.574 . S
C1975 C1994 1.368 . S
C1975 H1999 0.949 . S
H1976 C1980 0.949 . S
C1977 C1978 1.349 . S
C1977 C1979 1.327 . S
C1977 H2000 0.950 . S
C1978 C1977 1.349 . S
C1978 C1990 1.349 . S
C1979 C1977 1.327 . S
C1979 C1995 1.429 . S
C1979 H2001 0.950 . S
C1980 H1976 0.949 . S
C1980 C1988 1.574 . S
C1980 C1996 1.368 . S
H1981 C1989 0.950 . S
H1982 C1987 0.950 . S
H1983 C1988 0.964 . S
H1984 C1990 0.950 . S
H1985 C1991 0.950 . S
H1986 C1992 0.949 . S
C1987 H1982 0.950 . S
C1987 C1989 1.327 . S
C1987 C1993 1.429 . S
C1988 C1980 1.574 . S
C1988 H1983 0.964 . S
C1988 C1994 1.368 . S
C1989 C1973 1.349 . S
C1989 H1981 0.950 . S
C1989 C1987 1.327 . S
C1990 C1978 1.349 . S
C1990 H1984 0.950 . S
C1990 C1991 1.327 . S
C1991 H1985 0.950 . S
C1991 C1990 1.327 . S
C1991 C1995 1.429 . S
C1992 C1975 1.574 . S
C1992 H1986 0.949 . S
C1992 C1996 1.368 . S
C1993 C1974 1.429 . S
C1993 C1987 1.429 . S
C1993 C1994 1.523 . S
C1994 C1975 1.368 . S
C1994 C1988 1.368 . S
C1994 C1993 1.523 . S
C1995 C1979 1.429 . S
C1995 C1991 1.429 . S
C1995 C1996 1.523 . S
C1996 C1980 1.368 . S
C1996 C1992 1.368 . S
C1996 C1995 1.523 . S
H1997 C1972 0.950 1_565 S
H1998 C1974 0.950 1_565 S
H1999 C1975 0.949 . S
H2000 C1977 0.950 . S
H2001 C1979 0.950 . S
C2002 C2003 1.349 . S
C2002 C2004 1.327 . S
C2002 H2027 0.950 . S
C2003 C2002 1.349 . S
C2003 C2019 1.349 . S
C2004 C2002 1.327 . S
C2004 C2023 1.429 . S
C2004 H2028 0.950 . S
C2005 C2022 1.574 . S
C2005 C2024 1.368 . S
C2005 H2029 0.949 . S
H2006 C2010 0.949 . S
C2007 C2008 1.349 . S
C2007 C2009 1.327 . S
C2007 H2030 0.950 . S
C2008 C2007 1.349 . S
C2008 C2020 1.349 . S
C2009 C2007 1.327 . S
C2009 C2025 1.429 . S
C2009 H2031 0.950 . S
C2010 H2006 0.949 . S
C2010 C2018 1.574 . S
C2010 C2026 1.368 . S
H2011 C2019 0.950 . S
H2012 C2017 0.950 . S
H2013 C2018 0.949 . S
H2014 C2020 0.950 . S
H2015 C2021 0.950 . S
H2016 C2022 0.949 . S
C2017 H2012 0.950 . S
C2017 C2019 1.327 . S
C2017 C2023 1.429 . S
C2018 C2010 1.574 . S
C2018 H2013 0.949 . S
C2018 C2024 1.368 . S
C2019 C2003 1.349 . S
C2019 H2011 0.950 . S
C2019 C2017 1.327 . S
C2020 C2008 1.349 . S
C2020 H2014 0.950 . S
C2020 C2021 1.327 . S
C2021 H2015 0.950 . S
C2021 C2020 1.327 . S
C2021 C2025 1.429 . S
C2022 C2005 1.574 . S
C2022 H2016 0.949 . S
C2022 C2026 1.368 . S
C2023 C2004 1.429 . S
C2023 C2017 1.429 . S
C2023 C2024 1.523 . S
C2024 C2005 1.368 . S
C2024 C2018 1.368 . S
C2024 C2023 1.523 . S
C2025 C2009 1.429 . S
C2025 C2021 1.429 . S
C2025 C2026 1.523 . S
C2026 C2010 1.368 . S
C2026 C2022 1.368 . S
C2026 C2025 1.523 . S
H2027 C2002 0.950 . S
H2028 C2004 0.950 . S
H2029 C2005 0.949 . S
H2030 C2007 0.950 . S
H2031 C2009 0.950 . S
C2032 C2033 1.349 . S
C2032 C2034 1.327 . S
C2032 H2057 0.950 . S
C2033 C2032 1.349 . S
C2033 C2049 1.349 1_565 S
C2034 C2032 1.327 . S
C2034 C2053 1.429 1_565 S
C2034 H2058 0.950 . S
C2035 C2052 1.574 . S
C2035 C2054 1.368 . S
C2035 H2059 0.949 . S
H2036 C2040 0.949 . S
C2037 C2038 1.349 . S
C2037 C2039 1.327 . S
C2037 H2060 0.950 . S
C2038 C2037 1.349 . S
C2038 C2050 1.349 . S
C2039 C2037 1.327 . S
C2039 C2055 1.429 . S
C2039 H2061 0.950 . S
C2040 H2036 0.949 . S
C2040 C2048 1.574 . S
C2040 C2056 1.368 . S
H2041 C2049 0.950 . S
H2042 C2047 0.950 . S
H2043 C2048 0.949 1_565 S
H2044 C2050 0.950 . S
H2045 C2051 0.950 . S
H2046 C2052 0.949 . S
C2047 H2042 0.950 . S
C2047 C2049 1.327 . S
C2047 C2053 1.429 . S
C2048 C2040 1.574 . S
C2048 H2043 0.949 1_545 S
C2048 C2054 1.368 . S
C2049 C2033 1.349 1_545 S
C2049 H2041 0.950 . S
C2049 C2047 1.327 . S
C2050 C2038 1.349 . S
C2050 H2044 0.950 . S
C2050 C2051 1.327 . S
C2051 H2045 0.950 . S
C2051 C2050 1.327 . S
C2051 C2055 1.429 . S
C2052 C2035 1.574 . S
C2052 H2046 0.949 . S
C2052 C2056 1.368 . S
C2053 C2034 1.429 1_545 S
C2053 C2047 1.429 . S
C2053 C2054 1.523 . S
C2054 C2035 1.368 . S
C2054 C2048 1.368 . S
C2054 C2053 1.523 . S
C2055 C2039 1.429 . S
C2055 C2051 1.429 . S
C2055 C2056 1.523 . S
C2056 C2040 1.368 . S
C2056 C2052 1.368 . S
C2056 C2055 1.523 . S
H2057 C2032 0.950 . S
H2058 C2034 0.950 . S
H2059 C2035 0.949 . S
H2060 C2037 0.950 . S
H2061 C2039 0.950 . S
C2062 C2063 1.349 . S
C2062 C2064 1.327 . S
C2062 H2087 0.950 . S
C2063 C2062 1.349 . S
C2063 C2079 1.349 . S
C2064 C2062 1.327 . S
C2064 C2083 1.429 . S
C2064 H2088 0.950 . S
C2065 C2082 1.574 . S
C2065 C2084 1.368 . S
C2065 H2089 0.949 . S
H2066 C2070 0.949 . S
C2067 C2068 1.349 . S
C2067 C2069 1.327 . S
C2067 H2090 0.950 . S
C2068 C2067 1.349 . S
C2068 C2080 1.349 . S
C2069 C2067 1.327 . S
C2069 C2085 1.429 . S
C2069 H2091 0.950 . S
C2070 H2066 0.949 . S
C2070 C2078 1.574 . S
C2070 C2086 1.368 . S
H2071 C2079 0.950 . S
H2072 C2077 0.950 . S
H2073 C2078 0.949 . S
H2074 C2080 0.950 . S
H2075 C2081 0.950 . S
H2076 C2082 0.949 . S
C2077 H2072 0.950 . S
C2077 C2079 1.327 . S
C2077 C2083 1.429 . S
C2078 C2070 1.574 . S
C2078 H2073 0.949 . S
C2078 C2084 1.368 . S
C2079 C2063 1.349 . S
C2079 H2071 0.950 . S
C2079 C2077 1.327 . S
C2080 C2068 1.349 . S
C2080 H2074 0.950 . S
C2080 C2081 1.327 . S
C2081 H2075 0.950 . S
C2081 C2080 1.327 . S
C2081 C2085 1.429 . S
C2082 C2065 1.574 . S
C2082 H2076 0.949 . S
C2082 C2086 1.368 . S
C2083 C2064 1.429 . S
C2083 C2077 1.429 . S
C2083 C2084 1.523 . S
C2084 C2065 1.368 . S
C2084 C2078 1.368 . S
C2084 C2083 1.523 . S
C2085 C2069 1.429 . S
C2085 C2081 1.429 . S
C2085 C2086 1.523 . S
C2086 C2070 1.368 . S
C2086 C2082 1.368 . S
C2086 C2085 1.523 . S
H2087 C2062 0.950 . S
H2088 C2064 0.950 . S
H2089 C2065 0.949 . S
H2090 C2067 0.950 . S
H2091 C2069 0.950 . S
C2092 C2093 1.349 . S
C2092 C2094 1.327 . S
C2092 H2117 0.950 . S
C2093 C2092 1.349 . S
C2093 C2109 1.349 1_545 S
C2094 C2092 1.327 . S
C2094 C2113 1.429 . S
C2094 H2118 0.950 . S
C2095 C2112 1.574 . S
C2095 C2114 1.348 1_565 S
C2095 H2119 0.949 . S
H2096 C2100 0.949 . S
C2097 C2098 1.349 . S
C2097 C2099 1.327 . S
C2097 H2120 0.950 . S
C2098 C2097 1.349 . S
C2098 C2110 1.349 1_565 S
C2099 C2097 1.327 . S
C2099 C2115 1.429 . S
C2099 H2121 0.950 . S
C2100 H2096 0.949 . S
C2100 C2108 1.574 . S
C2100 C2116 1.368 1_545 S
H2101 C2109 0.950 . S
H2102 C2107 0.950 . S
H2103 C2108 0.949 . S
H2104 C2110 0.950 . S
H2105 C2111 0.950 . S
H2106 C2112 0.949 . S
C2107 H2102 0.950 . S
C2107 C2109 1.327 . S
C2107 C2113 1.429 1_565 S
C2108 C2100 1.574 . S
C2108 H2103 0.949 . S
C2108 C2114 1.387 . S
C2109 C2093 1.349 1_565 S
C2109 H2101 0.950 . S
C2109 C2107 1.327 . S
C2110 C2098 1.349 1_545 S
C2110 H2104 0.950 . S
C2110 C2111 1.327 . S
C2111 H2105 0.950 . S
C2111 C2110 1.327 . S
C2111 C2115 1.429 1_545 S
C2112 C2095 1.574 . S
C2112 H2106 0.949 . S
C2112 C2116 1.368 . S
C2113 C2094 1.429 . S
C2113 C2107 1.429 1_545 S
C2113 C2114 1.526 . S
C2114 C2095 1.348 1_545 S
C2114 C2108 1.387 . S
C2114 C2113 1.526 . S
C2115 C2099 1.429 . S
C2115 C2111 1.429 1_565 S
C2115 C2116 1.523 . S
C2116 C2100 1.368 1_565 S
C2116 C2112 1.368 . S
C2116 C2115 1.523 . S
H2117 C2092 0.950 . S
H2118 C2094 0.950 . S
H2119 C2095 0.949 . S
H2120 C2097 0.950 . S
H2121 C2099 0.950 . S
C2122 C2123 1.349 . S
C2122 C2124 1.327 . S
C2122 H2147 0.950 . S
C2123 C2122 1.349 . S
C2123 C2139 1.349 . S
C2124 C2122 1.327 . S
C2124 C2143 1.429 . S
C2124 H2148 0.950 . S
C2125 C2142 1.574 . S
C2125 C2144 1.368 . S
C2125 H2149 0.949 . S
H2126 C2130 0.949 . S
C2127 C2128 1.349 . S
C2127 C2129 1.327 . S
C2127 H2150 0.950 . S
C2128 C2127 1.349 . S
C2128 C2140 1.349 . S
C2129 C2127 1.327 . S
C2129 C2145 1.429 . S
C2129 H2151 0.950 . S
C2130 H2126 0.949 . S
C2130 C2138 1.574 . S
C2130 C2146 1.368 . S
H2131 C2139 0.950 . S
H2132 C2137 0.950 . S
H2133 C2138 0.949 . S
H2134 C2140 0.950 . S
H2135 C2141 0.950 . S
H2136 C2142 0.949 . S
C2137 H2132 0.950 . S
C2137 C2139 1.327 . S
C2137 C2143 1.429 . S
C2138 C2130 1.574 . S
C2138 H2133 0.949 . S
C2138 C2144 1.368 . S
C2139 C2123 1.349 . S
C2139 H2131 0.950 . S
C2139 C2137 1.327 . S
C2140 C2128 1.349 . S
C2140 H2134 0.950 . S
C2140 C2141 1.327 . S
C2141 H2135 0.950 . S
C2141 C2140 1.327 . S
C2141 C2145 1.429 . S
C2142 C2125 1.574 . S
C2142 H2136 0.949 . S
C2142 C2146 1.368 . S
C2143 C2124 1.429 . S
C2143 C2137 1.429 . S
C2143 C2144 1.523 . S
C2144 C2125 1.368 . S
C2144 C2138 1.368 . S
C2144 C2143 1.523 . S
C2145 C2129 1.429 . S
C2145 C2141 1.429 . S
C2145 C2146 1.523 . S
C2146 C2130 1.368 . S
C2146 C2142 1.368 . S
C2146 C2145 1.523 . S
H2147 C2122 0.950 . S
H2148 C2124 0.950 . S
H2149 C2125 0.949 . S
H2150 C2127 0.950 . S
H2151 C2129 0.950 . S
C2152 C2153 1.349 . S
C2152 C2154 1.327 . S
C2152 H2177 0.950 . S
C2153 C2152 1.349 . S
C2153 C2169 1.335 1_554 S
C2154 C2152 1.327 . S
C2154 C2173 1.429 1_554 S
C2154 H2178 0.950 . S
C2155 C2172 1.574 . S
C2155 C2174 1.368 . S
C2155 H2179 0.949 . S
H2156 C2160 0.949 . S
C2157 C2158 1.349 . S
C2157 C2159 1.327 . S
C2157 H2180 0.950 . S
C2158 C2157 1.349 . S
C2158 C2170 1.349 . S
C2159 C2157 1.327 . S
C2159 C2175 1.429 . S
C2159 H2181 0.950 . S
C2160 H2156 0.949 . S
C2160 C2168 1.574 . S
C2160 C2176 1.368 . S
H2161 C2169 0.958 . S
H2162 C2167 0.950 . S
H2163 C2168 0.949 1_554 S
H2164 C2170 0.950 . S
H2165 C2171 0.950 . S
H2166 C2172 0.949 . S
C2167 H2162 0.950 . S
C2167 C2169 1.333 . S
C2167 C2173 1.429 . S
C2168 C2160 1.574 . S
C2168 H2163 0.949 1_556 S
C2168 C2174 1.368 . S
C2169 C2153 1.335 1_556 S
C2169 H2161 0.958 . S
C2169 C2167 1.333 . S
C2170 C2158 1.349 . S
C2170 H2164 0.950 . S
C2170 C2171 1.327 . S
C2171 H2165 0.950 . S
C2171 C2170 1.327 . S
C2171 C2175 1.429 . S
C2172 C2155 1.574 . S
C2172 H2166 0.949 . S
C2172 C2176 1.368 . S
C2173 C2154 1.429 1_556 S
C2173 C2167 1.429 . S
C2173 C2174 1.523 . S
C2174 C2155 1.368 . S
C2174 C2168 1.368 . S
C2174 C2173 1.523 . S
C2175 C2159 1.429 . S
C2175 C2171 1.429 . S
C2175 C2176 1.523 . S
C2176 C2160 1.368 . S
C2176 C2172 1.368 . S
C2176 C2175 1.523 . S
H2177 C2152 0.950 . S
H2178 C2154 0.950 . S
H2179 C2155 0.949 . S
H2180 C2157 0.950 . S
H2181 C2159 0.950 . S
C2182 C2183 1.349 . S
C2182 C2184 1.327 . S
C2182 H2207 0.950 . S
C2183 C2182 1.349 . S
C2183 C2199 1.349 . S
C2184 C2182 1.327 . S
C2184 C2203 1.429 . S
C2184 H2208 0.950 . S
C2185 C2202 1.574 . S
C2185 C2204 1.368 . S
C2185 H2209 0.949 . S
H2186 C2190 0.946 1_556 S
C2187 C2188 1.349 . S
C2187 C2189 1.327 . S
C2187 H2210 0.950 . S
C2188 C2187 1.349 . S
C2188 C2200 1.349 . S
C2189 C2187 1.327 . S
C2189 C2205 1.429 . S
C2189 H2211 0.950 . S
C2190 H2186 0.946 1_554 S
C2190 C2198 1.574 . S
C2190 C2206 1.368 . S
H2191 C2199 0.950 . S
H2192 C2197 0.950 . S
H2193 C2198 0.975 . S
H2194 C2200 0.906 1_556 S
H2195 C2201 0.926 1_556 S
H2196 C2202 0.949 . S
C2197 H2192 0.950 . S
C2197 C2199 1.327 . S
C2197 C2203 1.429 . S
C2198 C2190 1.574 . S
C2198 H2193 0.975 . S
C2198 C2204 1.368 . S
C2199 C2183 1.349 . S
C2199 H2191 0.950 . S
C2199 C2197 1.327 . S
C2200 C2188 1.349 . S
C2200 H2194 0.906 1_554 S
C2200 C2201 1.327 . S
C2201 H2195 0.926 1_554 S
C2201 C2200 1.327 . S
C2201 C2205 1.429 . S
C2202 C2185 1.574 . S
C2202 H2196 0.949 . S
C2202 C2206 1.368 . S
C2203 C2184 1.429 . S
C2203 C2197 1.429 . S
C2203 C2204 1.523 . S
C2204 C2185 1.368 . S
C2204 C2198 1.368 . S
C2204 C2203 1.523 . S
C2205 C2189 1.429 . S
C2205 C2201 1.429 . S
C2205 C2206 1.523 . S
C2206 C2190 1.368 . S
C2206 C2202 1.368 . S
C2206 C2205 1.523 . S
H2207 C2182 0.950 . S
H2208 C2184 0.950 . S
H2209 C2185 0.949 . S
H2210 C2187 0.950 . S
H2211 C2189 0.950 . S
C2212 C2213 1.349 . S
C2212 C2214 1.327 . S
C2212 H2237 0.950 . S
C2213 C2212 1.349 . S
C2213 C2229 1.349 . S
C2214 C2212 1.327 . S
C2214 C2233 1.429 . S
C2214 H2238 0.950 . S
C2215 C2232 1.574 . S
C2215 C2234 1.368 . S
C2215 H2239 0.949 . S
H2216 C2220 0.949 . S
C2217 C2218 1.349 . S
C2217 C2219 1.327 . S
C2217 H2240 0.950 . S
C2218 C2217 1.349 . S
C2218 C2230 1.349 . S
C2219 C2217 1.327 . S
C2219 C2235 1.429 . S
C2219 H2241 0.950 . S
C2220 H2216 0.949 . S
C2220 C2228 1.574 . S
C2220 C2236 1.368 . S
H2221 C2229 0.950 . S
H2222 C2227 0.950 . S
H2223 C2228 0.949 . S
H2224 C2230 0.950 . S
H2225 C2231 0.950 . S
H2226 C2232 0.949 . S
C2227 H2222 0.950 . S
C2227 C2229 1.327 . S
C2227 C2233 1.429 . S
C2228 C2220 1.574 . S
C2228 H2223 0.949 . S
C2228 C2234 1.368 . S
C2229 C2213 1.349 . S
C2229 H2221 0.950 . S
C2229 C2227 1.327 . S
C2230 C2218 1.349 . S
C2230 H2224 0.950 . S
C2230 C2231 1.327 . S
C2231 H2225 0.950 . S
C2231 C2230 1.327 . S
C2231 C2235 1.429 . S
C2232 C2215 1.574 . S
C2232 H2226 0.949 . S
C2232 C2236 1.368 . S
C2233 C2214 1.429 . S
C2233 C2227 1.429 . S
C2233 C2234 1.523 . S
C2234 C2215 1.368 . S
C2234 C2228 1.368 . S
C2234 C2233 1.523 . S
C2235 C2219 1.429 . S
C2235 C2231 1.429 . S
C2235 C2236 1.523 . S
C2236 C2220 1.368 . S
C2236 C2232 1.368 . S
C2236 C2235 1.523 . S
H2237 C2212 0.950 . S
H2238 C2214 0.950 . S
H2239 C2215 0.949 . S
H2240 C2217 0.950 . S
H2241 C2219 0.950 . S
C2242 C2243 1.349 . S
C2242 C2244 1.327 . S
C2242 H2267 0.950 . S
C2243 C2242 1.349 . S
C2243 C2259 1.349 . S
C2244 C2242 1.327 . S
C2244 C2263 1.429 . S
C2244 H2268 0.950 . S
C2245 C2262 1.574 . S
C2245 C2264 1.368 . S
C2245 H2269 0.949 . S
H2246 C2250 0.949 . S
C2247 C2248 1.349 . S
C2247 C2249 1.327 . S
C2247 H2270 0.950 . S
C2248 C2247 1.349 . S
C2248 C2260 1.349 . S
C2249 C2247 1.327 . S
C2249 C2265 1.429 . S
C2249 H2271 0.950 . S
C2250 H2246 0.949 . S
C2250 C2258 1.574 . S
C2250 C2266 1.368 . S
H2251 C2259 0.950 . S
H2252 C2257 0.950 . S
H2253 C2258 0.949 . S
H2254 C2260 0.950 . S
H2255 C2261 0.950 . S
H2256 C2262 0.949 . S
C2257 H2252 0.950 . S
C2257 C2259 1.327 . S
C2257 C2263 1.429 . S
C2258 C2250 1.574 . S
C2258 H2253 0.949 . S
C2258 C2264 1.368 . S
C2259 C2243 1.349 . S
C2259 H2251 0.950 . S
C2259 C2257 1.327 . S
C2260 C2248 1.349 . S
C2260 H2254 0.950 . S
C2260 C2261 1.327 . S
C2261 H2255 0.950 . S
C2261 C2260 1.327 . S
C2261 C2265 1.429 . S
C2262 C2245 1.574 . S
C2262 H2256 0.949 . S
C2262 C2266 1.368 . S
C2263 C2244 1.429 . S
C2263 C2257 1.429 . S
C2263 C2264 1.523 . S
C2264 C2245 1.368 . S
C2264 C2258 1.368 . S
C2264 C2263 1.523 . S
C2265 C2249 1.429 . S
C2265 C2261 1.429 . S
C2265 C2266 1.523 . S
C2266 C2250 1.368 . S
C2266 C2262 1.368 . S
C2266 C2265 1.523 . S
H2267 C2242 0.950 . S
H2268 C2244 0.950 . S
H2269 C2245 0.949 . S
H2270 C2247 0.950 . S
H2271 C2249 0.950 . S
C2272 C2273 1.349 . S
C2272 C2274 1.327 1_545 S
C2272 H2297 0.950 . S
C2273 C2272 1.349 . S
C2273 C2289 1.349 . S
C2274 C2272 1.327 1_565 S
C2274 C2293 1.429 . S
C2274 H2298 0.950 . S
C2275 C2292 1.574 . S
C2275 C2294 1.368 . S
C2275 H2299 0.949 . S
H2276 C2280 0.949 . S
C2277 C2278 1.349 . S
C2277 C2279 1.327 . S
C2277 H2300 0.950 . S
C2278 C2277 1.349 . S
C2278 C2290 1.349 . S
C2279 C2277 1.327 . S
C2279 C2295 1.429 . S
C2279 H2301 0.950 . S
C2280 H2276 0.949 . S
C2280 C2288 1.574 . S
C2280 C2296 1.368 . S
H2281 C2289 0.950 . S
H2282 C2287 0.950 . S
H2283 C2288 0.949 . S
H2284 C2290 0.950 . S
H2285 C2291 0.950 . S
H2286 C2292 0.949 . S
C2287 H2282 0.950 . S
C2287 C2289 1.327 1_565 S
C2287 C2293 1.429 . S
C2288 C2280 1.574 . S
C2288 H2283 0.949 . S
C2288 C2294 1.368 . S
C2289 C2273 1.349 . S
C2289 H2281 0.950 . S
C2289 C2287 1.327 1_545 S
C2290 C2278 1.349 . S
C2290 H2284 0.950 . S
C2290 C2291 1.327 . S
C2291 H2285 0.950 . S
C2291 C2290 1.327 . S
C2291 C2295 1.429 . S
C2292 C2275 1.574 . S
C2292 H2286 0.949 . S
C2292 C2296 1.368 . S
C2293 C2274 1.429 . S
C2293 C2287 1.429 . S
C2293 C2294 1.523 . S
C2294 C2275 1.368 . S
C2294 C2288 1.368 . S
C2294 C2293 1.523 . S
C2295 C2279 1.429 . S
C2295 C2291 1.429 . S
C2295 C2296 1.523 . S
C2296 C2280 1.368 . S
C2296 C2292 1.368 . S
C2296 C2295 1.523 . S
H2297 C2272 0.950 . S
H2298 C2274 0.950 . S
H2299 C2275 0.949 . S
H2300 C2277 0.950 . S
H2301 C2279 0.950 . S
C2302 C2303 1.349 . S
C2302 C2304 1.327 . S
C2302 H2327 0.950 . S
C2303 C2302 1.349 . S
C2303 C2319 1.349 . S
C2304 C2302 1.327 . S
C2304 C2323 1.429 . S
C2304 H2328 0.950 . S
C2305 C2322 1.574 . S
C2305 C2324 1.368 . S
C2305 H2329 0.949 . S
H2306 C2310 0.949 . S
C2307 C2308 1.349 . S
C2307 C2309 1.327 . S
C2307 H2330 0.950 . S
C2308 C2307 1.349 . S
C2308 C2320 1.349 . S
C2309 C2307 1.327 . S
C2309 C2325 1.429 . S
C2309 H2331 0.950 . S
C2310 H2306 0.949 . S
C2310 C2318 1.574 . S
C2310 C2326 1.368 . S
H2311 C2319 0.950 . S
H2312 C2317 0.950 . S
H2313 C2318 0.949 . S
H2314 C2320 0.950 . S
H2315 C2321 0.950 . S
H2316 C2322 0.949 . S
C2317 H2312 0.950 . S
C2317 C2319 1.327 . S
C2317 C2323 1.429 . S
C2318 C2310 1.574 . S
C2318 H2313 0.949 . S
C2318 C2324 1.368 . S
C2319 C2303 1.349 . S
C2319 H2311 0.950 . S
C2319 C2317 1.327 . S
C2320 C2308 1.349 . S
C2320 H2314 0.950 . S
C2320 C2321 1.327 . S
C2321 H2315 0.950 . S
C2321 C2320 1.327 . S
C2321 C2325 1.429 . S
C2322 C2305 1.574 . S
C2322 H2316 0.949 . S
C2322 C2326 1.368 . S
C2323 C2304 1.429 . S
C2323 C2317 1.429 . S
C2323 C2324 1.523 . S
C2324 C2305 1.368 . S
C2324 C2318 1.368 . S
C2324 C2323 1.523 . S
C2325 C2309 1.429 . S
C2325 C2321 1.429 . S
C2325 C2326 1.523 . S
C2326 C2310 1.368 . S
C2326 C2322 1.368 . S
C2326 C2325 1.523 . S
H2327 C2302 0.950 . S
H2328 C2304 0.950 . S
H2329 C2305 0.949 . S
H2330 C2307 0.950 . S
H2331 C2309 0.950 . S
C2332 C2333 1.349 . S
C2332 C2334 1.327 . S
C2332 H2357 0.950 . S
C2333 C2332 1.349 . S
C2333 C2349 1.349 . S
C2334 C2332 1.327 . S
C2334 C2353 1.429 . S
C2334 H2358 0.950 . S
C2335 C2352 1.574 . S
C2335 C2354 1.368 . S
C2335 H2359 0.949 . S
H2336 C2340 0.949 . S
C2337 C2338 1.349 . S
C2337 C2339 1.327 . S
C2337 H2360 0.950 . S
C2338 C2337 1.349 . S
C2338 C2350 1.349 . S
C2339 C2337 1.327 . S
C2339 C2355 1.429 . S
C2339 H2361 0.950 . S
C2340 H2336 0.949 . S
C2340 C2348 1.574 . S
C2340 C2356 1.368 . S
H2341 C2349 0.950 . S
H2342 C2347 0.950 . S
H2343 C2348 0.949 . S
H2344 C2350 0.950 . S
H2345 C2351 0.950 . S
H2346 C2352 0.949 . S
C2347 H2342 0.950 . S
C2347 C2349 1.327 . S
C2347 C2353 1.429 . S
C2348 C2340 1.574 . S
C2348 H2343 0.949 . S
C2348 C2354 1.368 . S
C2349 C2333 1.349 . S
C2349 H2341 0.950 . S
C2349 C2347 1.327 . S
C2350 C2338 1.349 . S
C2350 H2344 0.950 . S
C2350 C2351 1.327 . S
C2351 H2345 0.950 . S
C2351 C2350 1.327 . S
C2351 C2355 1.429 . S
C2352 C2335 1.574 . S
C2352 H2346 0.949 . S
C2352 C2356 1.368 . S
C2353 C2334 1.429 . S
C2353 C2347 1.429 . S
C2353 C2354 1.523 . S
C2354 C2335 1.368 . S
C2354 C2348 1.368 . S
C2354 C2353 1.523 . S
C2355 C2339 1.429 . S
C2355 C2351 1.429 . S
C2355 C2356 1.523 . S
C2356 C2340 1.368 . S
C2356 C2352 1.368 . S
C2356 C2355 1.523 . S
H2357 C2332 0.950 . S
H2358 C2334 0.950 . S
H2359 C2335 0.949 . S
H2360 C2337 0.950 . S
H2361 C2339 0.950 . S
C2362 C2363 1.349 . S
C2362 C2364 1.327 . S
C2362 H2387 0.950 . S
C2363 C2362 1.349 . S
C2363 C2379 1.349 . S
C2364 C2362 1.327 . S
C2364 C2383 1.429 . S
C2364 H2388 0.950 . S
C2365 C2382 1.574 . S
C2365 C2384 1.368 . S
C2365 H2389 0.949 . S
H2366 C2370 0.949 . S
C2367 C2368 1.349 . S
C2367 C2369 1.327 . S
C2367 H2390 0.950 . S
C2368 C2367 1.349 . S
C2368 C2380 1.349 . S
C2369 C2367 1.327 . S
C2369 C2385 1.429 . S
C2369 H2391 0.950 . S
C2370 H2366 0.949 . S
C2370 C2378 1.574 . S
C2370 C2386 1.368 . S
H2371 C2379 0.950 . S
H2372 C2377 0.950 . S
H2373 C2378 0.949 . S
H2374 C2380 0.950 . S
H2375 C2381 0.950 . S
H2376 C2382 0.949 . S
C2377 H2372 0.950 . S
C2377 C2379 1.327 . S
C2377 C2383 1.429 . S
C2378 C2370 1.574 . S
C2378 H2373 0.949 . S
C2378 C2384 1.368 . S
C2379 C2363 1.349 . S
C2379 H2371 0.950 . S
C2379 C2377 1.327 . S
C2380 C2368 1.349 . S
C2380 H2374 0.950 . S
C2380 C2381 1.327 . S
C2381 H2375 0.950 . S
C2381 C2380 1.327 . S
C2381 C2385 1.429 . S
C2382 C2365 1.574 . S
C2382 H2376 0.949 . S
C2382 C2386 1.368 . S
C2383 C2364 1.429 . S
C2383 C2377 1.429 . S
C2383 C2384 1.523 . S
C2384 C2365 1.368 . S
C2384 C2378 1.368 . S
C2384 C2383 1.523 . S
C2385 C2369 1.429 . S
C2385 C2381 1.429 . S
C2385 C2386 1.523 . S
C2386 C2370 1.368 . S
C2386 C2382 1.368 . S
C2386 C2385 1.523 . S
H2387 C2362 0.950 . S
H2388 C2364 0.950 . S
H2389 C2365 0.949 . S
H2390 C2367 0.950 . S
H2391 C2369 0.950 . S
C2392 C2393 1.349 . S
C2392 C2394 1.327 . S
C2392 H2417 0.950 . S
C2393 C2392 1.349 . S
C2393 C2409 1.349 . S
C2394 C2392 1.327 . S
C2394 C2413 1.429 . S
C2394 H2418 0.950 . S
C2395 C2412 1.574 . S
C2395 C2414 1.368 . S
C2395 H2419 0.949 . S
H2396 C2400 0.949 . S
C2397 C2398 1.349 . S
C2397 C2399 1.327 . S
C2397 H2420 0.950 . S
C2398 C2397 1.349 . S
C2398 C2410 1.349 . S
C2399 C2397 1.327 . S
C2399 C2415 1.429 . S
C2399 H2421 0.950 . S
C2400 H2396 0.949 . S
C2400 C2408 1.574 . S
C2400 C2416 1.368 . S
H2401 C2409 0.950 . S
H2402 C2407 0.950 . S
H2403 C2408 0.949 . S
H2404 C2410 0.950 . S
H2405 C2411 0.950 . S
H2406 C2412 0.949 . S
C2407 H2402 0.950 . S
C2407 C2409 1.327 . S
C2407 C2413 1.429 . S
C2408 C2400 1.574 . S
C2408 H2403 0.949 . S
C2408 C2414 1.368 . S
C2409 C2393 1.349 . S
C2409 H2401 0.950 . S
C2409 C2407 1.327 . S
C2410 C2398 1.349 . S
C2410 H2404 0.950 . S
C2410 C2411 1.327 . S
C2411 H2405 0.950 . S
C2411 C2410 1.327 . S
C2411 C2415 1.429 . S
C2412 C2395 1.574 . S
C2412 H2406 0.949 . S
C2412 C2416 1.368 . S
C2413 C2394 1.429 . S
C2413 C2407 1.429 . S
C2413 C2414 1.523 . S
C2414 C2395 1.368 . S
C2414 C2408 1.368 . S
C2414 C2413 1.523 . S
C2415 C2399 1.429 . S
C2415 C2411 1.429 . S
C2415 C2416 1.523 . S
C2416 C2400 1.368 . S
C2416 C2412 1.368 . S
C2416 C2415 1.523 . S
H2417 C2392 0.950 . S
H2418 C2394 0.950 . S
H2419 C2395 0.949 . S
H2420 C2397 0.950 . S
H2421 C2399 0.950 . S
C2422 C2423 1.349 . S
C2422 C2424 1.327 . S
C2422 H2447 0.950 . S
C2423 C2422 1.349 . S
C2423 C2439 1.349 . S
C2424 C2422 1.327 . S
C2424 C2443 1.429 . S
C2424 H2448 0.950 . S
C2425 C2442 1.574 . S
C2425 C2444 1.368 . S
C2425 H2449 0.949 . S
H2426 C2430 0.949 . S
C2427 C2428 1.349 . S
C2427 C2429 1.327 . S
C2427 H2450 0.950 . S
C2428 C2427 1.349 . S
C2428 C2440 1.349 . S
C2429 C2427 1.327 . S
C2429 C2445 1.429 . S
C2429 H2451 0.950 . S
C2430 H2426 0.949 . S
C2430 C2438 1.574 . S
C2430 C2446 1.368 . S
H2431 C2439 0.950 . S
H2432 C2437 0.950 . S
H2433 C2438 0.949 . S
H2434 C2440 0.950 . S
H2435 C2441 0.950 . S
H2436 C2442 0.949 . S
C2437 H2432 0.950 . S
C2437 C2439 1.327 . S
C2437 C2443 1.429 . S
C2438 C2430 1.574 . S
C2438 H2433 0.949 . S
C2438 C2444 1.368 . S
C2439 C2423 1.349 . S
C2439 H2431 0.950 . S
C2439 C2437 1.327 . S
C2440 C2428 1.349 . S
C2440 H2434 0.950 . S
C2440 C2441 1.327 . S
C2441 H2435 0.950 . S
C2441 C2440 1.327 . S
C2441 C2445 1.429 . S
C2442 C2425 1.574 . S
C2442 H2436 0.949 . S
C2442 C2446 1.368 . S
C2443 C2424 1.429 . S
C2443 C2437 1.429 . S
C2443 C2444 1.523 . S
C2444 C2425 1.368 . S
C2444 C2438 1.368 . S
C2444 C2443 1.523 . S
C2445 C2429 1.429 . S
C2445 C2441 1.429 . S
C2445 C2446 1.523 . S
C2446 C2430 1.368 . S
C2446 C2442 1.368 . S
C2446 C2445 1.523 . S
H2447 C2422 0.950 . S
H2448 C2424 0.950 . S
H2449 C2425 0.949 . S
H2450 C2427 0.950 . S
H2451 C2429 0.950 . S
C2452 C2453 1.349 . S
C2452 C2454 1.327 . S
C2452 H2477 0.950 . S
C2453 C2452 1.349 . S
C2453 C2469 1.349 . S
C2454 C2452 1.327 . S
C2454 C2473 1.429 . S
C2454 H2478 0.950 . S
C2455 C2472 1.574 . S
C2455 C2474 1.368 . S
C2455 H2479 0.949 . S
H2456 C2460 0.949 1_554 S
C2457 C2458 1.349 . S
C2457 C2459 1.327 . S
C2457 H2480 0.950 . S
C2458 C2457 1.349 . S
C2458 C2470 1.349 1_556 S
C2459 C2457 1.327 . S
C2459 C2475 1.429 . S
C2459 H2481 0.950 . S
C2460 H2456 0.949 1_556 S
C2460 C2468 1.574 . S
C2460 C2476 1.368 . S
H2461 C2469 0.950 . S
H2462 C2467 0.950 . S
H2463 C2468 0.949 . S
H2464 C2470 0.950 . S
H2465 C2471 0.950 . S
H2466 C2472 0.949 . S
C2467 H2462 0.950 . S
C2467 C2469 1.327 . S
C2467 C2473 1.429 . S
C2468 C2460 1.574 . S
C2468 H2463 0.949 . S
C2468 C2474 1.368 . S
C2469 C2453 1.349 . S
C2469 H2461 0.950 . S
C2469 C2467 1.327 . S
C2470 C2458 1.349 1_554 S
C2470 H2464 0.950 . S
C2470 C2471 1.327 . S
C2471 H2465 0.950 . S
C2471 C2470 1.327 . S
C2471 C2475 1.429 1_554 S
C2472 C2455 1.574 . S
C2472 H2466 0.949 . S
C2472 C2476 1.368 . S
C2473 C2454 1.429 . S
C2473 C2467 1.429 . S
C2473 C2474 1.523 . S
C2474 C2455 1.368 . S
C2474 C2468 1.368 . S
C2474 C2473 1.523 . S
C2475 C2459 1.429 . S
C2475 C2471 1.429 1_556 S
C2475 C2476 1.523 . S
C2476 C2460 1.368 . S
C2476 C2472 1.368 . S
C2476 C2475 1.523 . S
H2477 C2452 0.950 . S
H2478 C2454 0.950 . S
H2479 C2455 0.949 . S
H2480 C2457 0.950 . S
H2481 C2459 0.950 . S
C2482 C2483 1.349 . S
C2482 C2484 1.327 1_455 S
C2482 H2507 0.950 . S
C2483 C2482 1.349 . S
C2483 C2499 1.349 . S
C2484 C2482 1.327 1_655 S
C2484 C2503 1.429 . S
C2484 H2508 0.950 . S
C2485 C2502 1.574 . S
C2485 C2504 1.368 . S
C2485 H2509 0.949 . S
H2486 C2490 0.949 . S
C2487 C2488 1.349 . S
C2487 C2489 1.327 . S
C2487 H2510 0.950 . S
C2488 C2487 1.349 . S
C2488 C2500 1.349 . S
C2489 C2487 1.327 . S
C2489 C2505 1.429 . S
C2489 H2511 0.950 . S
C2490 H2486 0.949 . S
C2490 C2498 1.574 . S
C2490 C2506 1.368 . S
H2491 C2499 0.950 . S
H2492 C2497 0.950 . S
H2493 C2498 0.949 . S
H2494 C2500 0.950 . S
H2495 C2501 0.950 . S
H2496 C2502 0.949 . S
C2497 H2492 0.950 . S
C2497 C2499 1.327 1_655 S
C2497 C2503 1.429 . S
C2498 C2490 1.574 . S
C2498 H2493 0.949 . S
C2498 C2504 1.368 . S
C2499 C2483 1.349 . S
C2499 H2491 0.950 . S
C2499 C2497 1.327 1_455 S
C2500 C2488 1.349 . S
C2500 H2494 0.950 . S
C2500 C2501 1.327 . S
C2501 H2495 0.950 . S
C2501 C2500 1.327 . S
C2501 C2505 1.429 . S
C2502 C2485 1.574 . S
C2502 H2496 0.949 . S
C2502 C2506 1.368 . S
C2503 C2484 1.429 . S
C2503 C2497 1.429 . S
C2503 C2504 1.523 . S
C2504 C2485 1.368 . S
C2504 C2498 1.368 . S
C2504 C2503 1.523 . S
C2505 C2489 1.429 . S
C2505 C2501 1.429 . S
C2505 C2506 1.523 . S
C2506 C2490 1.368 . S
C2506 C2502 1.368 . S
C2506 C2505 1.523 . S
H2507 C2482 0.950 . S
H2508 C2484 0.950 . S
H2509 C2485 0.949 . S
H2510 C2487 0.950 . S
H2511 C2489 0.950 . S
C2512 C2513 1.349 . S
C2512 C2514 1.327 . S
C2512 H2537 0.950 . S
C2513 C2512 1.349 . S
C2513 C2529 1.349 . S
C2514 C2512 1.327 . S
C2514 C2533 1.429 . S
C2514 H2538 0.950 . S
C2515 C2532 1.574 . S
C2515 C2534 1.368 . S
C2515 H2539 0.949 . S
H2516 C2520 0.949 . S
C2517 C2518 1.349 . S
C2517 C2519 1.327 . S
C2517 H2540 0.950 . S
C2518 C2517 1.349 . S
C2518 C2530 1.349 . S
C2519 C2517 1.327 . S
C2519 C2535 1.429 . S
C2519 H2541 0.950 . S
C2520 H2516 0.949 . S
C2520 C2528 1.574 . S
C2520 C2536 1.368 . S
H2521 C2529 0.950 . S
H2522 C2527 0.950 . S
H2523 C2528 0.949 . S
H2524 C2530 0.950 . S
H2525 C2531 0.950 . S
H2526 C2532 0.949 . S
C2527 H2522 0.950 . S
C2527 C2529 1.327 . S
C2527 C2533 1.429 . S
C2528 C2520 1.574 . S
C2528 H2523 0.949 . S
C2528 C2534 1.368 . S
C2529 C2513 1.349 . S
C2529 H2521 0.950 . S
C2529 C2527 1.327 . S
C2530 C2518 1.349 . S
C2530 H2524 0.950 . S
C2530 C2531 1.327 . S
C2531 H2525 0.950 . S
C2531 C2530 1.327 . S
C2531 C2535 1.429 . S
C2532 C2515 1.574 . S
C2532 H2526 0.949 . S
C2532 C2536 1.368 . S
C2533 C2514 1.429 . S
C2533 C2527 1.429 . S
C2533 C2534 1.523 . S
C2534 C2515 1.368 . S
C2534 C2528 1.368 . S
C2534 C2533 1.523 . S
C2535 C2519 1.429 . S
C2535 C2531 1.429 . S
C2535 C2536 1.523 . S
C2536 C2520 1.368 . S
C2536 C2532 1.368 . S
C2536 C2535 1.523 . S
H2537 C2512 0.950 . S
H2538 C2514 0.950 . S
H2539 C2515 0.949 . S
H2540 C2517 0.950 . S
H2541 C2519 0.950 . S
C2542 C2543 1.349 . S
C2542 C2544 1.327 . S
C2542 H2567 0.950 . S
C2543 C2542 1.349 . S
C2543 C2559 1.349 . S
C2544 C2542 1.327 . S
C2544 C2563 1.429 . S
C2544 H2568 0.950 . S
C2545 C2562 1.574 . S
C2545 C2564 1.368 . S
C2545 H2569 0.949 . S
H2546 C2550 0.949 . S
C2547 C2548 1.349 . S
C2547 C2549 1.327 . S
C2547 H2570 0.950 . S
C2548 C2547 1.349 . S
C2548 C2560 1.349 . S
C2549 C2547 1.327 . S
C2549 C2565 1.429 . S
C2549 H2571 0.950 . S
C2550 H2546 0.949 . S
C2550 C2558 1.574 . S
C2550 C2566 1.368 . S
H2551 C2559 0.950 . S
H2552 C2557 0.987 . S
H2553 C2558 0.949 . S
H2554 C2560 0.950 . S
H2555 C2561 0.950 . S
H2556 C2562 0.949 . S
C2557 H2552 0.987 . S
C2557 C2559 1.327 . S
C2557 C2563 1.429 . S
C2558 C2550 1.574 . S
C2558 H2553 0.949 . S
C2558 C2564 1.368 . S
C2559 C2543 1.349 . S
C2559 H2551 0.950 . S
C2559 C2557 1.327 . S
C2560 C2548 1.349 . S
C2560 H2554 0.950 . S
C2560 C2561 1.327 . S
C2561 H2555 0.950 . S
C2561 C2560 1.327 . S
C2561 C2565 1.429 . S
C2562 C2545 1.574 . S
C2562 H2556 0.949 . S
C2562 C2566 1.368 . S
C2563 C2544 1.429 . S
C2563 C2557 1.429 . S
C2563 C2564 1.523 1_455 S
C2564 C2545 1.368 . S
C2564 C2558 1.368 . S
C2564 C2563 1.523 1_655 S
C2565 C2549 1.429 . S
C2565 C2561 1.429 . S
C2565 C2566 1.523 . S
C2566 C2550 1.368 . S
C2566 C2562 1.368 . S
C2566 C2565 1.523 . S
H2567 C2542 0.950 . S
H2568 C2544 0.950 . S
H2569 C2545 0.949 . S
H2570 C2547 0.950 . S
H2571 C2549 0.950 . S
C2572 C2573 1.349 . S
C2572 C2574 1.327 . S
C2572 H2597 0.950 . S
C2573 C2572 1.349 . S
C2573 C2589 1.349 1_655 S
C2574 C2572 1.327 . S
C2574 C2593 1.429 1_655 S
C2574 H2598 0.950 . S
C2575 C2592 1.574 . S
C2575 C2594 1.368 . S
C2575 H2599 0.949 . S
H2576 C2580 0.949 . S
C2577 C2578 1.349 . S
C2577 C2579 1.327 . S
C2577 H2600 0.950 . S
C2578 C2577 1.349 . S
C2578 C2590 1.349 . S
C2579 C2577 1.327 . S
C2579 C2595 1.429 . S
C2579 H2601 0.950 . S
C2580 H2576 0.949 . S
C2580 C2588 1.574 . S
C2580 C2596 1.368 . S
H2581 C2589 0.950 . S
H2582 C2587 0.950 . S
H2583 C2588 0.949 1_655 S
H2584 C2590 0.950 . S
H2585 C2591 0.950 . S
H2586 C2592 0.949 . S
C2587 H2582 0.950 . S
C2587 C2589 1.327 . S
C2587 C2593 1.429 . S
C2588 C2580 1.574 . S
C2588 H2583 0.949 1_455 S
C2588 C2594 1.368 . S
C2589 C2573 1.349 1_455 S
C2589 H2581 0.950 . S
C2589 C2587 1.327 . S
C2590 C2578 1.349 . S
C2590 H2584 0.950 . S
C2590 C2591 1.327 . S
C2591 H2585 0.950 . S
C2591 C2590 1.327 . S
C2591 C2595 1.429 . S
C2592 C2575 1.574 . S
C2592 H2586 0.949 . S
C2592 C2596 1.368 . S
C2593 C2574 1.429 1_455 S
C2593 C2587 1.429 . S
C2593 C2594 1.523 . S
C2594 C2575 1.368 . S
C2594 C2588 1.368 . S
C2594 C2593 1.523 . S
C2595 C2579 1.429 . S
C2595 C2591 1.429 . S
C2595 C2596 1.523 . S
C2596 C2580 1.368 . S
C2596 C2592 1.368 . S
C2596 C2595 1.523 . S
H2597 C2572 0.950 . S
H2598 C2574 0.950 . S
H2599 C2575 0.949 . S
H2600 C2577 0.950 . S
H2601 C2579 0.950 . S
C2602 C2603 1.349 . S
C2602 C2604 1.327 . S
C2602 H2627 0.950 . S
C2603 C2602 1.349 . S
C2603 C2619 1.349 . S
C2604 C2602 1.327 . S
C2604 C2623 1.429 . S
C2604 H2628 0.950 . S
C2605 C2622 1.574 . S
C2605 C2624 1.368 . S
C2605 H2629 0.949 . S
H2606 C2610 0.949 . S
C2607 C2608 1.349 . S
C2607 C2609 1.327 . S
C2607 H2630 0.950 . S
C2608 C2607 1.349 . S
C2608 C2620 1.349 . S
C2609 C2607 1.327 . S
C2609 C2625 1.429 . S
C2609 H2631 0.950 . S
C2610 H2606 0.949 . S
C2610 C2618 1.574 . S
C2610 C2626 1.368 . S
H2611 C2619 0.950 . S
H2612 C2617 0.950 . S
H2613 C2618 0.949 . S
H2614 C2620 0.950 . S
H2615 C2621 0.950 . S
H2616 C2622 0.949 . S
C2617 H2612 0.950 . S
C2617 C2619 1.327 . S
C2617 C2623 1.429 . S
C2618 C2610 1.574 . S
C2618 H2613 0.949 . S
C2618 C2624 1.368 . S
C2619 C2603 1.349 . S
C2619 H2611 0.950 . S
C2619 C2617 1.327 . S
C2620 C2608 1.349 . S
C2620 H2614 0.950 . S
C2620 C2621 1.327 . S
C2621 H2615 0.950 . S
C2621 C2620 1.327 . S
C2621 C2625 1.429 . S
C2622 C2605 1.574 . S
C2622 H2616 0.949 . S
C2622 C2626 1.368 . S
C2623 C2604 1.429 . S
C2623 C2617 1.429 . S
C2623 C2624 1.523 . S
C2624 C2605 1.368 . S
C2624 C2618 1.368 . S
C2624 C2623 1.523 . S
C2625 C2609 1.429 . S
C2625 C2621 1.429 . S
C2625 C2626 1.523 . S
C2626 C2610 1.368 . S
C2626 C2622 1.368 . S
C2626 C2625 1.523 . S
H2627 C2602 0.950 . S
H2628 C2604 0.950 . S
H2629 C2605 0.949 . S
H2630 C2607 0.950 . S
H2631 C2609 0.950 . S
C2632 C2633 1.349 . S
C2632 C2634 1.327 . S
C2632 H2657 0.950 . S
C2633 C2632 1.349 . S
C2633 C2649 1.349 . S
C2634 C2632 1.327 . S
C2634 C2653 1.429 . S
C2634 H2658 0.950 . S
C2635 C2652 1.574 . S
C2635 C2654 1.368 . S
C2635 H2659 0.949 . S
H2636 C2640 0.949 . S
C2637 C2638 1.349 . S
C2637 C2639 1.327 . S
C2637 H2660 0.950 . S
C2638 C2637 1.349 . S
C2638 C2650 1.349 . S
C2639 C2637 1.327 . S
C2639 C2655 1.429 . S
C2639 H2661 0.950 . S
C2640 H2636 0.949 . S
C2640 C2648 1.574 . S
C2640 C2656 1.368 . S
H2641 C2649 0.950 . S
H2642 C2647 0.950 . S
H2643 C2648 0.949 . S
H2644 C2650 0.950 . S
H2645 C2651 0.950 . S
H2646 C2652 0.949 . S
C2647 H2642 0.950 . S
C2647 C2649 1.327 . S
C2647 C2653 1.429 . S
C2648 C2640 1.574 . S
C2648 H2643 0.949 . S
C2648 C2654 1.368 . S
C2649 C2633 1.349 . S
C2649 H2641 0.950 . S
C2649 C2647 1.327 . S
C2650 C2638 1.349 . S
C2650 H2644 0.950 . S
C2650 C2651 1.327 . S
C2651 H2645 0.950 . S
C2651 C2650 1.327 . S
C2651 C2655 1.429 . S
C2652 C2635 1.574 . S
C2652 H2646 0.949 . S
C2652 C2656 1.368 . S
C2653 C2634 1.429 . S
C2653 C2647 1.429 . S
C2653 C2654 1.523 . S
C2654 C2635 1.368 . S
C2654 C2648 1.368 . S
C2654 C2653 1.523 . S
C2655 C2639 1.429 . S
C2655 C2651 1.429 . S
C2655 C2656 1.523 . S
C2656 C2640 1.368 . S
C2656 C2652 1.368 . S
C2656 C2655 1.523 . S
H2657 C2632 0.950 . S
H2658 C2634 0.950 . S
H2659 C2635 0.949 . S
H2660 C2637 0.950 . S
H2661 C2639 0.950 . S
C2662 C2663 1.349 . S
C2662 C2664 1.327 . S
C2662 H2687 0.950 . S
C2663 C2662 1.349 . S
C2663 C2679 1.349 . S
C2664 C2662 1.327 . S
C2664 C2683 1.429 . S
C2664 H2688 0.950 . S
C2665 C2682 1.574 . S
C2665 C2684 1.368 . S
C2665 H2689 0.949 . S
H2666 C2670 0.949 . S
C2667 C2668 1.349 . S
C2667 C2669 1.327 . S
C2667 H2690 0.950 . S
C2668 C2667 1.349 . S
C2668 C2680 1.349 . S
C2669 C2667 1.327 . S
C2669 C2685 1.429 . S
C2669 H2691 0.950 . S
C2670 H2666 0.949 . S
C2670 C2678 1.574 . S
C2670 C2686 1.368 . S
H2671 C2679 0.950 . S
H2672 C2677 0.950 . S
H2673 C2678 0.949 . S
H2674 C2680 0.950 . S
H2675 C2681 0.950 . S
H2676 C2682 0.949 . S
C2677 H2672 0.950 . S
C2677 C2679 1.327 . S
C2677 C2683 1.429 . S
C2678 C2670 1.574 . S
C2678 H2673 0.949 . S
C2678 C2684 1.368 . S
C2679 C2663 1.349 . S
C2679 H2671 0.950 . S
C2679 C2677 1.327 . S
C2680 C2668 1.349 . S
C2680 H2674 0.950 . S
C2680 C2681 1.327 . S
C2681 H2675 0.950 . S
C2681 C2680 1.327 . S
C2681 C2685 1.429 . S
C2682 C2665 1.574 . S
C2682 H2676 0.949 . S
C2682 C2686 1.368 . S
C2683 C2664 1.429 . S
C2683 C2677 1.429 . S
C2683 C2684 1.523 . S
C2684 C2665 1.368 . S
C2684 C2678 1.368 . S
C2684 C2683 1.523 . S
C2685 C2669 1.429 . S
C2685 C2681 1.429 . S
C2685 C2686 1.523 . S
C2686 C2670 1.368 . S
C2686 C2682 1.368 . S
C2686 C2685 1.523 . S
H2687 C2662 0.950 . S
H2688 C2664 0.950 . S
H2689 C2665 0.949 . S
H2690 C2667 0.950 . S
H2691 C2669 0.950 . S
C2692 C2693 1.349 . S
C2692 C2694 1.327 . S
C2692 H2717 0.950 . S
C2693 C2692 1.349 . S
C2693 C2709 1.349 . S
C2694 C2692 1.327 . S
C2694 C2713 1.429 . S
C2694 H2718 0.950 . S
C2695 C2712 1.574 . S
C2695 C2714 1.368 . S
C2695 H2719 0.949 . S
H2696 C2700 0.949 . S
C2697 C2698 1.349 . S
C2697 C2699 1.327 . S
C2697 H2720 0.950 . S
C2698 C2697 1.349 . S
C2698 C2710 1.349 . S
C2699 C2697 1.327 . S
C2699 C2715 1.429 . S
C2699 H2721 0.950 . S
C2700 H2696 0.949 . S
C2700 C2708 1.574 . S
C2700 C2716 1.368 . S
H2701 C2709 0.950 . S
H2702 C2707 0.950 . S
H2703 C2708 0.949 . S
H2704 C2710 0.950 . S
H2705 C2711 0.950 . S
H2706 C2712 0.949 . S
C2707 H2702 0.950 . S
C2707 C2709 1.327 . S
C2707 C2713 1.429 . S
C2708 C2700 1.574 . S
C2708 H2703 0.949 . S
C2708 C2714 1.368 . S
C2709 C2693 1.349 . S
C2709 H2701 0.950 . S
C2709 C2707 1.327 . S
C2710 C2698 1.349 . S
C2710 H2704 0.950 . S
C2710 C2711 1.327 . S
C2711 H2705 0.950 . S
C2711 C2710 1.327 . S
C2711 C2715 1.429 . S
C2712 C2695 1.574 . S
C2712 H2706 0.949 . S
C2712 C2716 1.368 . S
C2713 C2694 1.429 . S
C2713 C2707 1.429 . S
C2713 C2714 1.523 . S
C2714 C2695 1.368 . S
C2714 C2708 1.368 . S
C2714 C2713 1.523 . S
C2715 C2699 1.429 . S
C2715 C2711 1.429 . S
C2715 C2716 1.523 . S
C2716 C2700 1.368 . S
C2716 C2712 1.368 . S
C2716 C2715 1.523 . S
H2717 C2692 0.950 . S
H2718 C2694 0.950 . S
H2719 C2695 0.949 . S
H2720 C2697 0.950 . S
H2721 C2699 0.950 . S
C2722 C2723 1.349 . S
C2722 C2724 1.327 . S
C2722 H2747 0.950 . S
C2723 C2722 1.349 . S
C2723 C2739 1.349 . S
C2724 C2722 1.327 . S
C2724 C2743 1.429 . S
C2724 H2748 0.950 . S
C2725 C2742 1.574 . S
C2725 C2744 1.368 . S
C2725 H2749 0.949 . S
H2726 C2730 0.949 . S
C2727 C2728 1.349 . S
C2727 C2729 1.327 . S
C2727 H2750 0.950 . S
C2728 C2727 1.349 . S
C2728 C2740 1.349 . S
C2729 C2727 1.327 . S
C2729 C2745 1.429 . S
C2729 H2751 0.950 . S
C2730 H2726 0.949 . S
C2730 C2738 1.574 . S
C2730 C2746 1.368 . S
H2731 C2739 0.950 . S
H2732 C2737 0.950 . S
H2733 C2738 0.949 . S
H2734 C2740 0.950 . S
H2735 C2741 0.950 . S
H2736 C2742 0.949 . S
C2737 H2732 0.950 . S
C2737 C2739 1.327 . S
C2737 C2743 1.429 . S
C2738 C2730 1.574 . S
C2738 H2733 0.949 . S
C2738 C2744 1.368 . S
C2739 C2723 1.349 . S
C2739 H2731 0.950 . S
C2739 C2737 1.327 . S
C2740 C2728 1.349 . S
C2740 H2734 0.950 . S
C2740 C2741 1.327 . S
C2741 H2735 0.950 . S
C2741 C2740 1.327 . S
C2741 C2745 1.429 . S
C2742 C2725 1.574 . S
C2742 H2736 0.949 . S
C2742 C2746 1.368 . S
C2743 C2724 1.429 . S
C2743 C2737 1.429 . S
C2743 C2744 1.523 . S
C2744 C2725 1.368 . S
C2744 C2738 1.368 . S
C2744 C2743 1.523 . S
C2745 C2729 1.429 . S
C2745 C2741 1.429 . S
C2745 C2746 1.523 . S
C2746 C2730 1.368 . S
C2746 C2742 1.368 . S
C2746 C2745 1.523 . S
H2747 C2722 0.950 . S
H2748 C2724 0.950 . S
H2749 C2725 0.949 . S
H2750 C2727 0.950 . S
H2751 C2729 0.950 . S
C2752 C2753 1.349 . S
C2752 C2754 1.327 . S
C2752 H2777 0.950 . S
C2753 C2752 1.349 . S
C2753 C2769 1.349 . S
C2754 C2752 1.327 . S
C2754 C2773 1.429 . S
C2754 H2778 0.950 . S
C2755 C2772 1.574 . S
C2755 C2774 1.368 . S
C2755 H2779 0.949 . S
H2756 C2760 0.949 . S
C2757 C2758 1.349 . S
C2757 C2759 1.327 . S
C2757 H2780 0.950 . S
C2758 C2757 1.349 . S
C2758 C2770 1.349 . S
C2759 C2757 1.327 . S
C2759 C2775 1.429 . S
C2759 H2781 0.950 . S
C2760 H2756 0.949 . S
C2760 C2768 1.574 . S
C2760 C2776 1.368 . S
H2761 C2769 0.950 . S
H2762 C2767 0.950 . S
H2763 C2768 0.949 . S
H2764 C2770 0.950 . S
H2765 C2771 0.950 . S
H2766 C2772 0.949 . S
C2767 H2762 0.950 . S
C2767 C2769 1.327 . S
C2767 C2773 1.429 . S
C2768 C2760 1.574 . S
C2768 H2763 0.949 . S
C2768 C2774 1.368 . S
C2769 C2753 1.349 . S
C2769 H2761 0.950 . S
C2769 C2767 1.327 . S
C2770 C2758 1.349 . S
C2770 H2764 0.950 . S
C2770 C2771 1.327 . S
C2771 H2765 0.950 . S
C2771 C2770 1.327 . S
C2771 C2775 1.429 . S
C2772 C2755 1.574 . S
C2772 H2766 0.949 . S
C2772 C2776 1.368 . S
C2773 C2754 1.429 . S
C2773 C2767 1.429 . S
C2773 C2774 1.523 . S
C2774 C2755 1.368 . S
C2774 C2768 1.368 . S
C2774 C2773 1.523 . S
C2775 C2759 1.429 . S
C2775 C2771 1.429 . S
C2775 C2776 1.523 . S
C2776 C2760 1.368 . S
C2776 C2772 1.368 . S
C2776 C2775 1.523 . S
H2777 C2752 0.950 . S
H2778 C2754 0.950 . S
H2779 C2755 0.949 . S
H2780 C2757 0.950 . S
H2781 C2759 0.950 . S
C2782 C2783 1.349 . S
C2782 C2784 1.327 . S
C2782 H2807 0.950 . S
C2783 C2782 1.349 . S
C2783 C2799 1.349 . S
C2784 C2782 1.327 . S
C2784 C2803 1.429 . S
C2784 H2808 0.950 . S
C2785 C2802 1.574 . S
C2785 C2804 1.368 . S
C2785 H2809 0.949 . S
H2786 C2790 0.949 . S
C2787 C2788 1.349 . S
C2787 C2789 1.327 . S
C2787 H2810 0.950 . S
C2788 C2787 1.349 . S
C2788 C2800 1.349 . S
C2789 C2787 1.327 . S
C2789 C2805 1.429 . S
C2789 H2811 0.950 . S
C2790 H2786 0.949 . S
C2790 C2798 1.574 . S
C2790 C2806 1.368 . S
H2791 C2799 0.950 . S
H2792 C2797 0.950 . S
H2793 C2798 0.949 . S
H2794 C2800 0.950 . S
H2795 C2801 0.950 . S
H2796 C2802 0.949 . S
C2797 H2792 0.950 . S
C2797 C2799 1.327 . S
C2797 C2803 1.429 . S
C2798 C2790 1.574 . S
C2798 H2793 0.949 . S
C2798 C2804 1.368 . S
C2799 C2783 1.349 . S
C2799 H2791 0.950 . S
C2799 C2797 1.327 . S
C2800 C2788 1.349 . S
C2800 H2794 0.950 . S
C2800 C2801 1.327 . S
C2801 H2795 0.950 . S
C2801 C2800 1.327 . S
C2801 C2805 1.429 . S
C2802 C2785 1.574 . S
C2802 H2796 0.949 . S
C2802 C2806 1.368 . S
C2803 C2784 1.429 . S
C2803 C2797 1.429 . S
C2803 C2804 1.523 . S
C2804 C2785 1.368 . S
C2804 C2798 1.368 . S
C2804 C2803 1.523 . S
C2805 C2789 1.429 . S
C2805 C2801 1.429 . S
C2805 C2806 1.523 . S
C2806 C2790 1.368 . S
C2806 C2802 1.368 . S
C2806 C2805 1.523 . S
H2807 C2782 0.950 . S
H2808 C2784 0.950 . S
H2809 C2785 0.949 . S
H2810 C2787 0.950 . S
H2811 C2789 0.950 . S
C2812 C2813 1.349 . S
C2812 C2814 1.327 . S
C2812 H2837 0.950 . S
C2813 C2812 1.349 . S
C2813 C2829 1.349 . S
C2814 C2812 1.327 . S
C2814 C2833 1.429 . S
C2814 H2838 0.950 . S
C2815 C2832 1.574 . S
C2815 C2834 1.368 . S
C2815 H2839 0.949 . S
H2816 C2820 0.949 . S
C2817 C2818 1.349 . S
C2817 C2819 1.327 . S
C2817 H2840 0.950 . S
C2818 C2817 1.349 . S
C2818 C2830 1.349 . S
C2819 C2817 1.327 . S
C2819 C2835 1.429 . S
C2819 H2841 0.950 . S
C2820 H2816 0.949 . S
C2820 C2828 1.574 . S
C2820 C2836 1.368 . S
H2821 C2829 0.950 . S
H2822 C2827 0.950 . S
H2823 C2828 0.949 . S
H2824 C2830 0.950 . S
H2825 C2831 0.950 . S
H2826 C2832 0.949 . S
C2827 H2822 0.950 . S
C2827 C2829 1.327 . S
C2827 C2833 1.429 . S
C2828 C2820 1.574 . S
C2828 H2823 0.949 . S
C2828 C2834 1.368 . S
C2829 C2813 1.349 . S
C2829 H2821 0.950 . S
C2829 C2827 1.327 . S
C2830 C2818 1.349 . S
C2830 H2824 0.950 . S
C2830 C2831 1.327 . S
C2831 H2825 0.950 . S
C2831 C2830 1.327 . S
C2831 C2835 1.429 . S
C2832 C2815 1.574 . S
C2832 H2826 0.949 . S
C2832 C2836 1.368 . S
C2833 C2814 1.429 . S
C2833 C2827 1.429 . S
C2833 C2834 1.523 . S
C2834 C2815 1.368 . S
C2834 C2828 1.368 . S
C2834 C2833 1.523 . S
C2835 C2819 1.429 . S
C2835 C2831 1.429 . S
C2835 C2836 1.523 . S
C2836 C2820 1.368 . S
C2836 C2832 1.368 . S
C2836 C2835 1.523 . S
H2837 C2812 0.950 . S
H2838 C2814 0.950 . S
H2839 C2815 0.949 . S
H2840 C2817 0.950 . S
H2841 C2819 0.950 . S
C2842 C2843 1.349 . S
C2842 C2844 1.327 . S
C2842 H2867 0.950 . S
C2843 C2842 1.349 . S
C2843 C2859 1.349 . S
C2844 C2842 1.327 . S
C2844 C2863 1.429 . S
C2844 H2868 0.950 . S
C2845 C2862 1.574 . S
C2845 C2864 1.368 . S
C2845 H2869 0.949 . S
H2846 C2850 0.949 . S
C2847 C2848 1.349 . S
C2847 C2849 1.327 . S
C2847 H2870 0.950 . S
C2848 C2847 1.349 . S
C2848 C2860 1.349 . S
C2849 C2847 1.327 . S
C2849 C2865 1.429 . S
C2849 H2871 0.950 . S
C2850 H2846 0.949 . S
C2850 C2858 1.574 . S
C2850 C2866 1.368 . S
H2851 C2859 0.950 . S
H2852 C2857 0.950 . S
H2853 C2858 0.949 . S
H2854 C2860 0.950 . S
H2855 C2861 0.950 . S
H2856 C2862 0.949 . S
C2857 H2852 0.950 . S
C2857 C2859 1.327 . S
C2857 C2863 1.429 . S
C2858 C2850 1.574 . S
C2858 H2853 0.949 . S
C2858 C2864 1.368 . S
C2859 C2843 1.349 . S
C2859 H2851 0.950 . S
C2859 C2857 1.327 . S
C2860 C2848 1.349 . S
C2860 H2854 0.950 . S
C2860 C2861 1.327 . S
C2861 H2855 0.950 . S
C2861 C2860 1.327 . S
C2861 C2865 1.429 . S
C2862 C2845 1.574 . S
C2862 H2856 0.949 . S
C2862 C2866 1.368 . S
C2863 C2844 1.429 . S
C2863 C2857 1.429 . S
C2863 C2864 1.523 . S
C2864 C2845 1.368 . S
C2864 C2858 1.368 . S
C2864 C2863 1.523 . S
C2865 C2849 1.429 . S
C2865 C2861 1.429 . S
C2865 C2866 1.523 . S
C2866 C2850 1.368 . S
C2866 C2862 1.368 . S
C2866 C2865 1.523 . S
H2867 C2842 0.950 . S
H2868 C2844 0.950 . S
H2869 C2845 0.949 . S
H2870 C2847 0.950 . S
H2871 C2849 0.950 . S
C2872 C2873 1.349 . S
C2872 C2874 1.327 . S
C2872 H2897 0.950 . S
C2873 C2872 1.349 . S
C2873 C2889 1.349 . S
C2874 C2872 1.327 . S
C2874 C2893 1.429 . S
C2874 H2898 0.950 . S
C2875 C2892 1.574 . S
C2875 C2894 1.368 . S
C2875 H2899 0.949 . S
H2876 C2880 0.949 . S
C2877 C2878 1.349 . S
C2877 C2879 1.327 . S
C2877 H2900 0.950 . S
C2878 C2877 1.349 . S
C2878 C2890 1.349 . S
C2879 C2877 1.327 . S
C2879 C2895 1.429 . S
C2879 H2901 0.950 . S
C2880 H2876 0.949 . S
C2880 C2888 1.574 . S
C2880 C2896 1.368 . S
H2881 C2889 0.950 . S
H2882 C2887 0.950 . S
H2883 C2888 0.949 . S
H2884 C2890 0.950 . S
H2885 C2891 0.950 . S
H2886 C2892 0.949 . S
C2887 H2882 0.950 . S
C2887 C2889 1.327 . S
C2887 C2893 1.429 . S
C2888 C2880 1.574 . S
C2888 H2883 0.949 . S
C2888 C2894 1.368 . S
C2889 C2873 1.349 . S
C2889 H2881 0.950 . S
C2889 C2887 1.327 . S
C2890 C2878 1.349 . S
C2890 H2884 0.950 . S
C2890 C2891 1.327 . S
C2891 H2885 0.950 . S
C2891 C2890 1.327 . S
C2891 C2895 1.429 . S
C2892 C2875 1.574 . S
C2892 H2886 0.949 . S
C2892 C2896 1.368 . S
C2893 C2874 1.429 . S
C2893 C2887 1.429 . S
C2893 C2894 1.523 . S
C2894 C2875 1.368 . S
C2894 C2888 1.368 . S
C2894 C2893 1.523 . S
C2895 C2879 1.429 . S
C2895 C2891 1.429 . S
C2895 C2896 1.523 . S
C2896 C2880 1.368 . S
C2896 C2892 1.368 . S
C2896 C2895 1.523 . S
H2897 C2872 0.950 . S
H2898 C2874 0.950 . S
H2899 C2875 0.949 . S
H2900 C2877 0.950 . S
H2901 C2879 0.950 . S
C2902 C2903 1.349 . S
C2902 C2904 1.327 . S
C2902 H2927 0.950 . S
C2903 C2902 1.349 . S
C2903 C2919 1.349 . S
C2904 C2902 1.327 . S
C2904 C2923 1.429 . S
C2904 H2928 0.950 . S
C2905 C2922 1.574 . S
C2905 C2924 1.368 . S
C2905 H2929 0.949 . S
H2906 C2910 0.949 . S
C2907 C2908 1.349 . S
C2907 C2909 1.327 . S
C2907 H2930 0.950 . S
C2908 C2907 1.349 . S
C2908 C2920 1.349 . S
C2909 C2907 1.327 . S
C2909 C2925 1.429 . S
C2909 H2931 0.950 . S
C2910 H2906 0.949 . S
C2910 C2918 1.574 . S
C2910 C2926 1.368 . S
H2911 C2919 0.950 . S
H2912 C2917 0.950 . S
H2913 C2918 0.949 . S
H2914 C2920 0.950 . S
H2915 C2921 0.950 . S
H2916 C2922 0.949 . S
C2917 H2912 0.950 . S
C2917 C2919 1.327 . S
C2917 C2923 1.429 . S
C2918 C2910 1.574 . S
C2918 H2913 0.949 . S
C2918 C2924 1.368 . S
C2919 C2903 1.349 . S
C2919 H2911 0.950 . S
C2919 C2917 1.327 . S
C2920 C2908 1.349 . S
C2920 H2914 0.950 . S
C2920 C2921 1.327 . S
C2921 H2915 0.950 . S
C2921 C2920 1.327 . S
C2921 C2925 1.429 . S
C2922 C2905 1.574 . S
C2922 H2916 0.949 . S
C2922 C2926 1.368 . S
C2923 C2904 1.429 . S
C2923 C2917 1.429 . S
C2923 C2924 1.523 . S
C2924 C2905 1.368 . S
C2924 C2918 1.368 . S
C2924 C2923 1.523 . S
C2925 C2909 1.429 . S
C2925 C2921 1.429 . S
C2925 C2926 1.523 . S
C2926 C2910 1.368 . S
C2926 C2922 1.368 . S
C2926 C2925 1.523 . S
H2927 C2902 0.950 . S
H2928 C2904 0.950 . S
H2929 C2905 0.949 . S
H2930 C2907 0.950 . S
H2931 C2909 0.950 . S
C2932 C2933 1.349 . S
C2932 C2934 1.327 . S
C2932 H2957 0.950 . S
C2933 C2932 1.349 . S
C2933 C2949 1.349 . S
C2934 C2932 1.327 . S
C2934 C2953 1.429 . S
C2934 H2958 0.950 . S
C2935 C2952 1.574 . S
C2935 C2954 1.368 . S
C2935 H2959 0.949 . S
H2936 C2940 0.949 . S
C2937 C2938 1.349 . S
C2937 C2939 1.327 . S
C2937 H2960 0.950 . S
C2938 C2937 1.349 . S
C2938 C2950 1.349 . S
C2939 C2937 1.327 . S
C2939 C2955 1.429 . S
C2939 H2961 0.950 . S
C2940 H2936 0.949 . S
C2940 C2948 1.574 . S
C2940 C2956 1.368 . S
H2941 C2949 0.950 . S
H2942 C2947 0.950 . S
H2943 C2948 0.949 . S
H2944 C2950 0.950 . S
H2945 C2951 0.950 . S
H2946 C2952 0.949 . S
C2947 H2942 0.950 . S
C2947 C2949 1.327 . S
C2947 C2953 1.429 . S
C2948 C2940 1.574 . S
C2948 H2943 0.949 . S
C2948 C2954 1.368 . S
C2949 C2933 1.349 . S
C2949 H2941 0.950 . S
C2949 C2947 1.327 . S
C2950 C2938 1.349 . S
C2950 H2944 0.950 . S
C2950 C2951 1.327 . S
C2951 H2945 0.950 . S
C2951 C2950 1.327 . S
C2951 C2955 1.429 . S
C2952 C2935 1.574 . S
C2952 H2946 0.949 . S
C2952 C2956 1.368 . S
C2953 C2934 1.429 . S
C2953 C2947 1.429 . S
C2953 C2954 1.523 . S
C2954 C2935 1.368 . S
C2954 C2948 1.368 . S
C2954 C2953 1.523 . S
C2955 C2939 1.429 . S
C2955 C2951 1.429 . S
C2955 C2956 1.523 . S
C2956 C2940 1.368 . S
C2956 C2952 1.368 . S
C2956 C2955 1.523 . S
H2957 C2932 0.950 . S
H2958 C2934 0.950 . S
H2959 C2935 0.949 . S
H2960 C2937 0.950 . S
H2961 C2939 0.950 . S
C2962 C2963 1.349 . S
C2962 C2964 1.327 . S
C2962 H2987 0.950 . S
C2963 C2962 1.349 . S
C2963 C2979 1.349 . S
C2964 C2962 1.327 . S
C2964 C2983 1.429 . S
C2964 H2988 0.950 . S
C2965 C2982 1.574 . S
C2965 C2984 1.368 . S
C2965 H2989 0.949 . S
H2966 C2970 0.949 . S
C2967 C2968 1.349 1_565 S
C2967 C2969 1.327 . S
C2967 H2990 0.950 . S
C2968 C2967 1.349 1_545 S
C2968 C2980 1.349 . S
C2969 C2967 1.327 . S
C2969 C2985 1.429 . S
C2969 H2991 0.950 . S
C2970 H2966 0.949 . S
C2970 C2978 1.574 1_545 S
C2970 C2986 1.368 1_545 S
H2971 C2979 0.950 . S
H2972 C2977 0.950 . S
H2973 C2978 0.949 1_545 S
H2974 C2980 0.950 . S
H2975 C2981 0.950 . S
H2976 C2982 0.949 . S
C2977 H2972 0.950 . S
C2977 C2979 1.327 . S
C2977 C2983 1.429 . S
C2978 C2970 1.574 1_565 S
C2978 H2973 0.949 1_565 S
C2978 C2984 1.368 . S
C2979 C2963 1.349 . S
C2979 H2971 0.950 . S
C2979 C2977 1.327 . S
C2980 C2968 1.349 . S
C2980 H2974 0.950 . S
C2980 C2981 1.327 . S
C2981 H2975 0.950 . S
C2981 C2980 1.327 . S
C2981 C2985 1.429 1_545 S
C2982 C2965 1.574 . S
C2982 H2976 0.949 . S
C2982 C2986 1.368 . S
C2983 C2964 1.429 . S
C2983 C2977 1.429 . S
C2983 C2984 1.523 . S
C2984 C2965 1.368 . S
C2984 C2978 1.368 . S
C2984 C2983 1.523 . S
C2985 C2969 1.429 . S
C2985 C2981 1.429 1_565 S
C2985 C2986 1.523 . S
C2986 C2970 1.368 1_565 S
C2986 C2982 1.368 . S
C2986 C2985 1.523 . S
H2987 C2962 0.950 . S
H2988 C2964 0.950 . S
H2989 C2965 0.949 . S
H2990 C2967 0.950 . S
H2991 C2969 0.950 . S
C2992 C2993 1.349 . S
C2992 C2994 1.327 . S
C2992 H3017 0.950 . S
C2993 C2992 1.349 . S
C2993 C3009 1.349 . S
C2994 C2992 1.327 . S
C2994 C3013 1.429 . S
C2994 H3018 0.950 . S
C2995 C3012 1.574 . S
C2995 C3014 1.368 . S
C2995 H3019 0.949 . S
H2996 C3000 0.949 . S
C2997 C2998 1.349 . S
C2997 C2999 1.327 . S
C2997 H3020 0.950 . S
C2998 C2997 1.349 . S
C2998 C3010 1.349 . S
C2999 C2997 1.327 . S
C2999 C3015 1.429 . S
C2999 H3021 0.950 . S
C3000 H2996 0.949 . S
C3000 C3008 1.574 . S
C3000 C3016 1.368 . S
H3001 C3009 0.950 . S
H3002 C3007 0.950 . S
H3003 C3008 0.949 . S
H3004 C3010 0.950 . S
H3005 C3011 0.950 . S
H3006 C3012 0.949 . S
C3007 H3002 0.950 . S
C3007 C3009 1.327 . S
C3007 C3013 1.429 . S
C3008 C3000 1.574 . S
C3008 H3003 0.949 . S
C3008 C3014 1.368 . S
C3009 C2993 1.349 . S
C3009 H3001 0.950 . S
C3009 C3007 1.327 . S
C3010 C2998 1.349 . S
C3010 H3004 0.950 . S
C3010 C3011 1.327 . S
C3011 H3005 0.950 . S
C3011 C3010 1.327 . S
C3011 C3015 1.429 . S
C3012 C2995 1.574 . S
C3012 H3006 0.949 . S
C3012 C3016 1.368 . S
C3013 C2994 1.429 . S
C3013 C3007 1.429 . S
C3013 C3014 1.523 . S
C3014 C2995 1.368 . S
C3014 C3008 1.368 . S
C3014 C3013 1.523 . S
C3015 C2999 1.429 . S
C3015 C3011 1.429 . S
C3015 C3016 1.523 . S
C3016 C3000 1.368 . S
C3016 C3012 1.368 . S
C3016 C3015 1.523 . S
H3017 C2992 0.950 . S
H3018 C2994 0.950 . S
H3019 C2995 0.949 . S
H3020 C2997 0.950 . S
H3021 C2999 0.950 . S
C3022 C3023 1.349 1_556 S
C3022 C3024 1.327 . S
C3022 H3047 0.950 . S
C3023 C3022 1.349 1_554 S
C3023 C3039 1.349 . S
C3024 C3022 1.327 . S
C3024 C3043 1.429 1_556 S
C3024 H3048 0.950 . S
C3025 C3042 1.574 . S
C3025 C3044 1.368 . S
C3025 H3049 0.949 . S
H3026 C3030 0.949 1_556 S
C3027 C3028 1.349 . S
C3027 C3029 1.327 . S
C3027 H3050 0.950 . S
C3028 C3027 1.349 . S
C3028 C3040 1.349 . S
C3029 C3027 1.327 . S
C3029 C3045 1.429 . S
C3029 H3051 0.950 . S
C3030 H3026 0.949 1_554 S
C3030 C3038 1.581 . S
C3030 C3046 1.368 . S
H3031 C3039 0.950 . S
H3032 C3037 0.950 . S
H3033 C3038 0.915 1_556 S
H3034 C3040 0.950 . S
H3035 C3041 1.008 . S
H3036 C3042 0.949 . S
C3037 H3032 0.950 . S
C3037 C3039 1.327 . S
C3037 C3043 1.429 . S
C3038 C3030 1.581 . S
C3038 H3033 0.915 1_554 S
C3038 C3044 1.400 . S
C3039 C3023 1.349 . S
C3039 H3031 0.950 . S
C3039 C3037 1.327 . S
C3040 C3028 1.349 . S
C3040 H3034 0.950 . S
C3040 C3041 1.327 . S
C3041 H3035 1.008 . S
C3041 C3040 1.327 . S
C3041 C3045 1.429 . S
C3042 C3025 1.574 . S
C3042 H3036 0.949 . S
C3042 C3046 1.368 . S
C3043 C3024 1.429 1_554 S
C3043 C3037 1.429 . S
C3043 C3044 1.523 . S
C3044 C3025 1.368 . S
C3044 C3038 1.400 . S
C3044 C3043 1.523 . S
C3045 C3029 1.429 . S
C3045 C3041 1.429 . S
C3045 C3046 1.523 . S
C3046 C3030 1.368 . S
C3046 C3042 1.368 . S
C3046 C3045 1.523 . S
H3047 C3022 0.950 . S
H3048 C3024 0.950 . S
H3049 C3025 0.949 . S
H3050 C3027 0.950 . S
H3051 C3029 0.950 . S
C3052 C3053 1.349 . S
C3052 C3054 1.327 . S
C3052 H3077 0.950 . S
C3053 C3052 1.349 . S
C3053 C3069 1.349 . S
C3054 C3052 1.327 . S
C3054 C3073 1.429 . S
C3054 H3078 0.950 . S
C3055 C3072 1.574 . S
C3055 C3074 1.368 . S
C3055 H3079 0.949 . S
H3056 C3060 0.949 . S
C3057 C3058 1.349 . S
C3057 C3059 1.327 . S
C3057 H3080 0.950 . S
C3058 C3057 1.349 . S
C3058 C3070 1.349 . S
C3059 C3057 1.327 . S
C3059 C3075 1.429 . S
C3059 H3081 0.950 . S
C3060 H3056 0.949 . S
C3060 C3068 1.574 . S
C3060 C3076 1.368 . S
H3061 C3069 0.950 . S
H3062 C3067 0.950 . S
H3063 C3068 0.949 . S
H3064 C3070 0.950 . S
H3065 C3071 0.950 . S
H3066 C3072 0.949 . S
C3067 H3062 0.950 . S
C3067 C3069 1.327 . S
C3067 C3073 1.429 . S
C3068 C3060 1.574 . S
C3068 H3063 0.949 . S
C3068 C3074 1.368 . S
C3069 C3053 1.349 . S
C3069 H3061 0.950 . S
C3069 C3067 1.327 . S
C3070 C3058 1.349 . S
C3070 H3064 0.950 . S
C3070 C3071 1.327 . S
C3071 H3065 0.950 . S
C3071 C3070 1.327 . S
C3071 C3075 1.429 . S
C3072 C3055 1.574 . S
C3072 H3066 0.949 . S
C3072 C3076 1.368 . S
C3073 C3054 1.429 . S
C3073 C3067 1.429 . S
C3073 C3074 1.523 . S
C3074 C3055 1.368 . S
C3074 C3068 1.368 . S
C3074 C3073 1.523 . S
C3075 C3059 1.429 . S
C3075 C3071 1.429 . S
C3075 C3076 1.523 . S
C3076 C3060 1.368 . S
C3076 C3072 1.368 . S
C3076 C3075 1.523 . S
H3077 C3052 0.950 . S
H3078 C3054 0.950 . S
H3079 C3055 0.949 . S
H3080 C3057 0.950 . S
H3081 C3059 0.950 . S
C3082 C3083 1.349 . S
C3082 C3084 1.327 . S
C3082 H3107 0.950 . S
C3083 C3082 1.349 . S
C3083 C3099 1.349 . S
C3084 C3082 1.327 . S
C3084 C3103 1.429 . S
C3084 H3108 0.950 . S
C3085 C3102 1.574 . S
C3085 C3104 1.368 . S
C3085 H3109 0.949 . S
H3086 C3090 0.949 . S
C3087 C3088 1.349 . S
C3087 C3089 1.327 . S
C3087 H3110 0.950 . S
C3088 C3087 1.349 . S
C3088 C3100 1.349 . S
C3089 C3087 1.327 . S
C3089 C3105 1.429 . S
C3089 H3111 0.950 . S
C3090 H3086 0.949 . S
C3090 C3098 1.574 . S
C3090 C3106 1.368 . S
H3091 C3099 0.950 . S
H3092 C3097 0.950 . S
H3093 C3098 0.949 . S
H3094 C3100 0.950 . S
H3095 C3101 0.950 . S
H3096 C3102 0.949 . S
C3097 H3092 0.950 . S
C3097 C3099 1.327 . S
C3097 C3103 1.429 . S
C3098 C3090 1.574 . S
C3098 H3093 0.949 . S
C3098 C3104 1.368 . S
C3099 C3083 1.349 . S
C3099 H3091 0.950 . S
C3099 C3097 1.327 . S
C3100 C3088 1.349 . S
C3100 H3094 0.950 . S
C3100 C3101 1.327 . S
C3101 H3095 0.950 . S
C3101 C3100 1.327 . S
C3101 C3105 1.429 . S
C3102 C3085 1.574 . S
C3102 H3096 0.949 . S
C3102 C3106 1.368 . S
C3103 C3084 1.429 . S
C3103 C3097 1.429 . S
C3103 C3104 1.523 . S
C3104 C3085 1.368 . S
C3104 C3098 1.368 . S
C3104 C3103 1.523 . S
C3105 C3089 1.429 . S
C3105 C3101 1.429 . S
C3105 C3106 1.523 . S
C3106 C3090 1.368 . S
C3106 C3102 1.368 . S
C3106 C3105 1.523 . S
H3107 C3082 0.950 . S
H3108 C3084 0.950 . S
H3109 C3085 0.949 . S
H3110 C3087 0.950 . S
H3111 C3089 0.950 . S
C3112 C3113 1.349 . S
C3112 C3114 1.327 . S
C3112 H3137 0.950 . S
C3113 C3112 1.349 . S
C3113 C3129 1.349 . S
C3114 C3112 1.327 . S
C3114 C3133 1.429 . S
C3114 H3138 0.950 . S
C3115 C3132 1.574 . S
C3115 C3134 1.368 . S
C3115 H3139 0.949 . S
H3116 C3120 0.949 . S
C3117 C3118 1.349 . S
C3117 C3119 1.327 . S
C3117 H3140 0.950 . S
C3118 C3117 1.349 . S
C3118 C3130 1.349 . S
C3119 C3117 1.327 . S
C3119 C3135 1.429 . S
C3119 H3141 0.950 . S
C3120 H3116 0.949 . S
C3120 C3128 1.574 . S
C3120 C3136 1.368 . S
H3121 C3129 0.950 . S
H3122 C3127 0.950 . S
H3123 C3128 0.949 . S
H3124 C3130 0.950 . S
H3125 C3131 0.950 . S
H3126 C3132 0.949 . S
C3127 H3122 0.950 . S
C3127 C3129 1.327 . S
C3127 C3133 1.429 . S
C3128 C3120 1.574 . S
C3128 H3123 0.949 . S
C3128 C3134 1.368 . S
C3129 C3113 1.349 . S
C3129 H3121 0.950 . S
C3129 C3127 1.327 . S
C3130 C3118 1.349 . S
C3130 H3124 0.950 . S
C3130 C3131 1.327 . S
C3131 H3125 0.950 . S
C3131 C3130 1.327 . S
C3131 C3135 1.429 . S
C3132 C3115 1.574 . S
C3132 H3126 0.949 . S
C3132 C3136 1.368 . S
C3133 C3114 1.429 . S
C3133 C3127 1.429 . S
C3133 C3134 1.523 . S
C3134 C3115 1.368 . S
C3134 C3128 1.368 . S
C3134 C3133 1.523 . S
C3135 C3119 1.429 . S
C3135 C3131 1.429 . S
C3135 C3136 1.523 . S
C3136 C3120 1.368 . S
C3136 C3132 1.368 . S
C3136 C3135 1.523 . S
H3137 C3112 0.950 . S
H3138 C3114 0.950 . S
H3139 C3115 0.949 . S
H3140 C3117 0.950 . S
H3141 C3119 0.950 . S
C3142 C3143 1.349 . S
C3142 C3144 1.327 . S
C3142 H3167 0.950 . S
C3143 C3142 1.349 . S
C3143 C3159 1.349 . S
C3144 C3142 1.327 . S
C3144 C3163 1.429 . S
C3144 H3168 0.950 . S
C3145 C3162 1.574 . S
C3145 C3164 1.368 . S
C3145 H3169 0.949 . S
H3146 C3150 0.949 . S
C3147 C3148 1.349 . S
C3147 C3149 1.327 . S
C3147 H3170 0.950 . S
C3148 C3147 1.349 . S
C3148 C3160 1.349 . S
C3149 C3147 1.327 . S
C3149 C3165 1.429 . S
C3149 H3171 0.950 . S
C3150 H3146 0.949 . S
C3150 C3158 1.574 . S
C3150 C3166 1.368 . S
H3151 C3159 0.950 . S
H3152 C3157 0.950 . S
H3153 C3158 0.949 . S
H3154 C3160 0.950 . S
H3155 C3161 0.950 . S
H3156 C3162 0.949 . S
C3157 H3152 0.950 . S
C3157 C3159 1.327 . S
C3157 C3163 1.429 . S
C3158 C3150 1.574 . S
C3158 H3153 0.949 . S
C3158 C3164 1.368 . S
C3159 C3143 1.349 . S
C3159 H3151 0.950 . S
C3159 C3157 1.327 . S
C3160 C3148 1.349 . S
C3160 H3154 0.950 . S
C3160 C3161 1.327 . S
C3161 H3155 0.950 . S
C3161 C3160 1.327 . S
C3161 C3165 1.429 . S
C3162 C3145 1.574 . S
C3162 H3156 0.949 . S
C3162 C3166 1.368 . S
C3163 C3144 1.429 . S
C3163 C3157 1.429 . S
C3163 C3164 1.523 . S
C3164 C3145 1.368 . S
C3164 C3158 1.368 . S
C3164 C3163 1.523 . S
C3165 C3149 1.429 . S
C3165 C3161 1.429 . S
C3165 C3166 1.523 . S
C3166 C3150 1.368 . S
C3166 C3162 1.368 . S
C3166 C3165 1.523 . S
H3167 C3142 0.950 . S
H3168 C3144 0.950 . S
H3169 C3145 0.949 . S
H3170 C3147 0.950 . S
H3171 C3149 0.950 . S
C3172 C3173 1.349 . S
C3172 C3174 1.327 . S
C3172 H3197 0.950 . S
C3173 C3172 1.349 . S
C3173 C3189 1.349 . S
C3174 C3172 1.327 . S
C3174 C3193 1.429 . S
C3174 H3198 0.950 . S
C3175 C3192 1.574 . S
C3175 C3194 1.368 . S
C3175 H3199 0.949 . S
H3176 C3180 0.949 . S
C3177 C3178 1.349 . S
C3177 C3179 1.327 . S
C3177 H3200 0.950 1_554 S
C3178 C3177 1.349 . S
C3178 C3190 1.349 . S
C3179 C3177 1.327 . S
C3179 C3195 1.429 . S
C3179 H3201 0.950 . S
C3180 H3176 0.949 . S
C3180 C3188 1.574 . S
C3180 C3196 1.368 . S
H3181 C3189 0.950 . S
H3182 C3187 0.950 . S
H3183 C3188 0.949 . S
H3184 C3190 0.950 . S
H3185 C3191 0.950 . S
H3186 C3192 0.949 . S
C3187 H3182 0.950 . S
C3187 C3189 1.327 . S
C3187 C3193 1.429 . S
C3188 C3180 1.574 . S
C3188 H3183 0.949 . S
C3188 C3194 1.368 . S
C3189 C3173 1.349 . S
C3189 H3181 0.950 . S
C3189 C3187 1.327 . S
C3190 C3178 1.349 . S
C3190 H3184 0.950 . S
C3190 C3191 1.327 . S
C3191 H3185 0.950 . S
C3191 C3190 1.327 . S
C3191 C3195 1.429 . S
C3192 C3175 1.574 . S
C3192 H3186 0.949 . S
C3192 C3196 1.368 . S
C3193 C3174 1.429 . S
C3193 C3187 1.429 . S
C3193 C3194 1.523 . S
C3194 C3175 1.368 . S
C3194 C3188 1.368 . S
C3194 C3193 1.523 . S
C3195 C3179 1.429 . S
C3195 C3191 1.429 . S
C3195 C3196 1.523 . S
C3196 C3180 1.368 . S
C3196 C3192 1.368 . S
C3196 C3195 1.523 . S
H3197 C3172 0.950 . S
H3198 C3174 0.950 . S
H3199 C3175 0.949 . S
H3200 C3177 0.950 1_556 S
H3201 C3179 0.950 . S
C3202 C3203 1.349 . S
C3202 C3204 1.327 . S
C3202 H3227 0.950 . S
C3203 C3202 1.349 . S
C3203 C3219 1.349 . S
C3204 C3202 1.327 . S
C3204 C3223 1.429 . S
C3204 H3228 0.950 . S
C3205 C3222 1.574 . S
C3205 C3224 1.368 . S
C3205 H3229 0.949 . S
H3206 C3210 0.949 . S
C3207 C3208 1.349 . S
C3207 C3209 1.327 . S
C3207 H3230 0.950 . S
C3208 C3207 1.349 . S
C3208 C3220 1.349 . S
C3209 C3207 1.327 . S
C3209 C3225 1.429 . S
C3209 H3231 0.950 . S
C3210 H3206 0.949 . S
C3210 C3218 1.574 . S
C3210 C3226 1.368 . S
H3211 C3219 0.950 . S
H3212 C3217 0.950 . S
H3213 C3218 0.949 . S
H3214 C3220 0.950 . S
H3215 C3221 0.950 . S
H3216 C3222 0.949 . S
C3217 H3212 0.950 . S
C3217 C3219 1.327 . S
C3217 C3223 1.429 . S
C3218 C3210 1.574 . S
C3218 H3213 0.949 . S
C3218 C3224 1.368 . S
C3219 C3203 1.349 . S
C3219 H3211 0.950 . S
C3219 C3217 1.327 . S
C3220 C3208 1.349 . S
C3220 H3214 0.950 . S
C3220 C3221 1.327 . S
C3221 H3215 0.950 . S
C3221 C3220 1.327 . S
C3221 C3225 1.429 . S
C3222 C3205 1.574 . S
C3222 H3216 0.949 . S
C3222 C3226 1.368 . S
C3223 C3204 1.429 . S
C3223 C3217 1.429 . S
C3223 C3224 1.523 . S
C3224 C3205 1.368 . S
C3224 C3218 1.368 . S
C3224 C3223 1.523 . S
C3225 C3209 1.429 . S
C3225 C3221 1.429 . S
C3225 C3226 1.523 . S
C3226 C3210 1.368 . S
C3226 C3222 1.368 . S
C3226 C3225 1.523 . S
H3227 C3202 0.950 . S
H3228 C3204 0.950 . S
H3229 C3205 0.949 . S
H3230 C3207 0.950 . S
H3231 C3209 0.950 . S
C3232 C3233 1.349 . S
C3232 C3234 1.327 . S
C3232 H3257 0.950 . S
C3233 C3232 1.349 . S
C3233 C3249 1.349 . S
C3234 C3232 1.327 . S
C3234 C3253 1.429 . S
C3234 H3258 0.950 . S
C3235 C3252 1.574 . S
C3235 C3254 1.368 . S
C3235 H3259 0.949 . S
H3236 C3240 0.949 . S
C3237 C3238 1.349 . S
C3237 C3239 1.327 . S
C3237 H3260 0.950 . S
C3238 C3237 1.349 . S
C3238 C3250 1.349 . S
C3239 C3237 1.327 . S
C3239 C3255 1.429 . S
C3239 H3261 0.950 . S
C3240 H3236 0.949 . S
C3240 C3248 1.574 . S
C3240 C3256 1.368 . S
H3241 C3249 0.950 . S
H3242 C3247 0.950 . S
H3243 C3248 0.949 . S
H3244 C3250 0.950 . S
H3245 C3251 0.950 . S
H3246 C3252 0.949 . S
C3247 H3242 0.950 . S
C3247 C3249 1.327 . S
C3247 C3253 1.429 . S
C3248 C3240 1.574 . S
C3248 H3243 0.949 . S
C3248 C3254 1.368 . S
C3249 C3233 1.349 . S
C3249 H3241 0.950 . S
C3249 C3247 1.327 . S
C3250 C3238 1.349 . S
C3250 H3244 0.950 . S
C3250 C3251 1.327 . S
C3251 H3245 0.950 . S
C3251 C3250 1.327 . S
C3251 C3255 1.429 . S
C3252 C3235 1.574 . S
C3252 H3246 0.949 . S
C3252 C3256 1.368 . S
C3253 C3234 1.429 . S
C3253 C3247 1.429 . S
C3253 C3254 1.523 . S
C3254 C3235 1.368 . S
C3254 C3248 1.368 . S
C3254 C3253 1.523 . S
C3255 C3239 1.429 . S
C3255 C3251 1.429 . S
C3255 C3256 1.523 . S
C3256 C3240 1.368 . S
C3256 C3252 1.368 . S
C3256 C3255 1.523 . S
H3257 C3232 0.950 . S
H3258 C3234 0.950 . S
H3259 C3235 0.949 . S
H3260 C3237 0.950 . S
H3261 C3239 0.950 . S
C3262 C3263 1.349 . S
C3262 C3264 1.327 . S
C3262 H3287 0.950 . S
C3263 C3262 1.349 . S
C3263 C3279 1.349 . S
C3264 C3262 1.327 . S
C3264 C3283 1.429 . S
C3264 H3288 0.950 . S
C3265 C3282 1.574 . S
C3265 C3284 1.368 . S
C3265 H3289 0.949 . S
H3266 C3270 0.949 . S
C3267 C3268 1.349 . S
C3267 C3269 1.327 . S
C3267 H3290 0.950 . S
C3268 C3267 1.349 . S
C3268 C3280 1.349 . S
C3269 C3267 1.327 . S
C3269 C3285 1.429 . S
C3269 H3291 0.950 . S
C3270 H3266 0.949 . S
C3270 C3278 1.574 . S
C3270 C3286 1.368 . S
H3271 C3279 0.950 . S
H3272 C3277 0.950 . S
H3273 C3278 0.949 . S
H3274 C3280 0.950 . S
H3275 C3281 0.950 . S
H3276 C3282 0.949 . S
C3277 H3272 0.950 . S
C3277 C3279 1.327 . S
C3277 C3283 1.429 . S
C3278 C3270 1.574 . S
C3278 H3273 0.949 . S
C3278 C3284 1.368 . S
C3279 C3263 1.349 . S
C3279 H3271 0.950 . S
C3279 C3277 1.327 . S
C3280 C3268 1.349 . S
C3280 H3274 0.950 . S
C3280 C3281 1.327 . S
C3281 H3275 0.950 . S
C3281 C3280 1.327 . S
C3281 C3285 1.429 . S
C3282 C3265 1.574 . S
C3282 H3276 0.949 . S
C3282 C3286 1.368 . S
C3283 C3264 1.429 . S
C3283 C3277 1.429 . S
C3283 C3284 1.523 . S
C3284 C3265 1.368 . S
C3284 C3278 1.368 . S
C3284 C3283 1.523 . S
C3285 C3269 1.429 . S
C3285 C3281 1.429 . S
C3285 C3286 1.523 . S
C3286 C3270 1.368 . S
C3286 C3282 1.368 . S
C3286 C3285 1.523 . S
H3287 C3262 0.950 . S
H3288 C3264 0.950 . S
H3289 C3265 0.949 . S
H3290 C3267 0.950 . S
H3291 C3269 0.950 . S
C3292 C3293 1.349 . S
C3292 C3294 1.327 . S
C3292 H3317 0.950 . S
C3293 C3292 1.349 . S
C3293 C3309 1.349 . S
C3294 C3292 1.327 . S
C3294 C3313 1.429 . S
C3294 H3318 0.950 . S
C3295 C3312 1.574 . S
C3295 C3314 1.368 . S
C3295 H3319 0.949 . S
H3296 C3300 0.949 . S
C3297 C3298 1.349 . S
C3297 C3299 1.327 . S
C3297 H3320 0.950 . S
C3298 C3297 1.349 . S
C3298 C3310 1.349 . S
C3299 C3297 1.327 . S
C3299 C3315 1.429 . S
C3299 H3321 0.950 . S
C3300 H3296 0.949 . S
C3300 C3308 1.574 . S
C3300 C3316 1.368 . S
H3301 C3309 0.950 . S
H3302 C3307 0.950 . S
H3303 C3308 0.949 . S
H3304 C3310 0.950 . S
H3305 C3311 0.950 . S
H3306 C3312 0.949 . S
C3307 H3302 0.950 . S
C3307 C3309 1.327 . S
C3307 C3313 1.429 . S
C3308 C3300 1.574 . S
C3308 H3303 0.949 . S
C3308 C3314 1.368 . S
C3309 C3293 1.349 . S
C3309 H3301 0.950 . S
C3309 C3307 1.327 . S
C3310 C3298 1.349 . S
C3310 H3304 0.950 . S
C3310 C3311 1.327 . S
C3311 H3305 0.950 . S
C3311 C3310 1.327 . S
C3311 C3315 1.429 . S
C3312 C3295 1.574 . S
C3312 H3306 0.949 . S
C3312 C3316 1.368 . S
C3313 C3294 1.429 . S
C3313 C3307 1.429 . S
C3313 C3314 1.523 . S
C3314 C3295 1.368 . S
C3314 C3308 1.368 . S
C3314 C3313 1.523 . S
C3315 C3299 1.429 . S
C3315 C3311 1.429 . S
C3315 C3316 1.523 . S
C3316 C3300 1.368 . S
C3316 C3312 1.368 . S
C3316 C3315 1.523 . S
H3317 C3292 0.950 . S
H3318 C3294 0.950 . S
H3319 C3295 0.949 . S
H3320 C3297 0.950 . S
H3321 C3299 0.950 . S
C3322 C3323 1.349 . S
C3322 C3324 1.327 . S
C3322 H3347 0.950 . S
C3323 C3322 1.349 . S
C3323 C3339 1.349 . S
C3324 C3322 1.327 . S
C3324 C3343 1.429 . S
C3324 H3348 0.950 . S
C3325 C3342 1.574 . S
C3325 C3344 1.368 . S
C3325 H3349 0.949 . S
H3326 C3330 0.949 . S
C3327 C3328 1.349 . S
C3327 C3329 1.327 . S
C3327 H3350 0.950 . S
C3328 C3327 1.349 . S
C3328 C3340 1.349 . S
C3329 C3327 1.327 . S
C3329 C3345 1.429 . S
C3329 H3351 0.950 . S
C3330 H3326 0.949 . S
C3330 C3338 1.574 . S
C3330 C3346 1.368 . S
H3331 C3339 0.950 . S
H3332 C3337 0.950 . S
H3333 C3338 0.949 . S
H3334 C3340 0.950 . S
H3335 C3341 0.950 . S
H3336 C3342 0.949 . S
C3337 H3332 0.950 . S
C3337 C3339 1.327 . S
C3337 C3343 1.429 . S
C3338 C3330 1.574 . S
C3338 H3333 0.949 . S
C3338 C3344 1.368 . S
C3339 C3323 1.349 . S
C3339 H3331 0.950 . S
C3339 C3337 1.327 . S
C3340 C3328 1.349 . S
C3340 H3334 0.950 . S
C3340 C3341 1.327 . S
C3341 H3335 0.950 . S
C3341 C3340 1.327 . S
C3341 C3345 1.429 . S
C3342 C3325 1.574 . S
C3342 H3336 0.949 . S
C3342 C3346 1.368 . S
C3343 C3324 1.429 . S
C3343 C3337 1.429 . S
C3343 C3344 1.523 . S
C3344 C3325 1.368 . S
C3344 C3338 1.368 . S
C3344 C3343 1.523 . S
C3345 C3329 1.429 . S
C3345 C3341 1.429 . S
C3345 C3346 1.523 . S
C3346 C3330 1.368 . S
C3346 C3342 1.368 . S
C3346 C3345 1.523 . S
H3347 C3322 0.950 . S
H3348 C3324 0.950 . S
H3349 C3325 0.949 . S
H3350 C3327 0.950 . S
H3351 C3329 0.950 . S
C3352 C3353 1.349 . S
C3352 C3354 1.327 . S
C3352 H3377 0.950 . S
C3353 C3352 1.349 . S
C3353 C3369 1.349 . S
C3354 C3352 1.327 . S
C3354 C3373 1.429 . S
C3354 H3378 0.950 . S
C3355 C3372 1.574 . S
C3355 C3374 1.368 . S
C3355 H3379 0.949 . S
H3356 C3360 0.949 . S
C3357 C3358 1.349 . S
C3357 C3359 1.327 . S
C3357 H3380 0.950 . S
C3358 C3357 1.349 . S
C3358 C3370 1.349 . S
C3359 C3357 1.327 . S
C3359 C3375 1.429 . S
C3359 H3381 0.950 . S
C3360 H3356 0.949 . S
C3360 C3368 1.574 . S
C3360 C3376 1.368 . S
H3361 C3369 0.950 . S
H3362 C3367 0.950 . S
H3363 C3368 0.949 . S
H3364 C3370 0.950 . S
H3365 C3371 0.950 . S
H3366 C3372 0.949 . S
C3367 H3362 0.950 . S
C3367 C3369 1.327 . S
C3367 C3373 1.429 . S
C3368 C3360 1.574 . S
C3368 H3363 0.949 . S
C3368 C3374 1.368 . S
C3369 C3353 1.349 . S
C3369 H3361 0.950 . S
C3369 C3367 1.327 . S
C3370 C3358 1.349 . S
C3370 H3364 0.950 . S
C3370 C3371 1.327 . S
C3371 H3365 0.950 . S
C3371 C3370 1.327 . S
C3371 C3375 1.429 . S
C3372 C3355 1.574 . S
C3372 H3366 0.949 . S
C3372 C3376 1.368 . S
C3373 C3354 1.429 . S
C3373 C3367 1.429 . S
C3373 C3374 1.523 . S
C3374 C3355 1.368 . S
C3374 C3368 1.368 . S
C3374 C3373 1.523 . S
C3375 C3359 1.429 . S
C3375 C3371 1.429 . S
C3375 C3376 1.523 . S
C3376 C3360 1.368 . S
C3376 C3372 1.368 . S
C3376 C3375 1.523 . S
H3377 C3352 0.950 . S
H3378 C3354 0.950 . S
H3379 C3355 0.949 . S
H3380 C3357 0.950 . S
H3381 C3359 0.950 . S
C3382 C3383 1.349 . S
C3382 C3384 1.327 . S
C3382 H3407 0.950 . S
C3383 C3382 1.349 . S
C3383 C3399 1.349 . S
C3384 C3382 1.327 . S
C3384 C3403 1.429 . S
C3384 H3408 0.950 . S
C3385 C3402 1.574 . S
C3385 C3404 1.368 . S
C3385 H3409 0.949 . S
H3386 C3390 0.949 . S
C3387 C3388 1.349 . S
C3387 C3389 1.327 . S
C3387 H3410 0.950 . S
C3388 C3387 1.349 . S
C3388 C3400 1.349 . S
C3389 C3387 1.327 . S
C3389 C3405 1.429 . S
C3389 H3411 0.950 . S
C3390 H3386 0.949 . S
C3390 C3398 1.574 . S
C3390 C3406 1.368 . S
H3391 C3399 0.950 . S
H3392 C3397 0.950 . S
H3393 C3398 0.949 . S
H3394 C3400 0.950 . S
H3395 C3401 0.950 . S
H3396 C3402 0.949 . S
C3397 H3392 0.950 . S
C3397 C3399 1.327 . S
C3397 C3403 1.429 . S
C3398 C3390 1.574 . S
C3398 H3393 0.949 . S
C3398 C3404 1.368 . S
C3399 C3383 1.349 . S
C3399 H3391 0.950 . S
C3399 C3397 1.327 . S
C3400 C3388 1.349 . S
C3400 H3394 0.950 . S
C3400 C3401 1.327 . S
C3401 H3395 0.950 . S
C3401 C3400 1.327 . S
C3401 C3405 1.429 . S
C3402 C3385 1.574 . S
C3402 H3396 0.949 . S
C3402 C3406 1.368 . S
C3403 C3384 1.429 . S
C3403 C3397 1.429 . S
C3403 C3404 1.523 . S
C3404 C3385 1.368 . S
C3404 C3398 1.368 . S
C3404 C3403 1.523 . S
C3405 C3389 1.429 . S
C3405 C3401 1.429 . S
C3405 C3406 1.523 . S
C3406 C3390 1.368 . S
C3406 C3402 1.368 . S
C3406 C3405 1.523 . S
H3407 C3382 0.950 . S
H3408 C3384 0.950 . S
H3409 C3385 0.949 . S
H3410 C3387 0.950 . S
H3411 C3389 0.950 . S
C3412 C3413 1.349 . S
C3412 C3414 1.327 . S
C3412 H3437 0.950 . S
C3413 C3412 1.349 . S
C3413 C3429 1.349 . S
C3414 C3412 1.327 . S
C3414 C3433 1.429 . S
C3414 H3438 0.950 . S
C3415 C3432 1.574 . S
C3415 C3434 1.368 . S
C3415 H3439 0.949 . S
H3416 C3420 0.957 . S
C3417 C3418 1.349 . S
C3417 C3419 1.327 . S
C3417 H3440 0.950 . S
C3418 C3417 1.349 . S
C3418 C3430 1.349 . S
C3419 C3417 1.327 . S
C3419 C3435 1.429 . S
C3419 H3441 0.950 1_455 S
C3420 H3416 0.957 . S
C3420 C3428 1.574 . S
C3420 C3436 1.368 . S
H3421 C3429 0.950 . S
H3422 C3427 0.950 . S
H3423 C3428 0.949 . S
H3424 C3430 0.950 . S
H3425 C3431 0.950 . S
H3426 C3432 0.949 . S
C3427 H3422 0.950 . S
C3427 C3429 1.327 . S
C3427 C3433 1.429 . S
C3428 C3420 1.574 . S
C3428 H3423 0.949 . S
C3428 C3434 1.368 . S
C3429 C3413 1.349 . S
C3429 H3421 0.950 . S
C3429 C3427 1.327 . S
C3430 C3418 1.349 . S
C3430 H3424 0.950 . S
C3430 C3431 1.327 . S
C3431 H3425 0.950 . S
C3431 C3430 1.327 . S
C3431 C3435 1.429 . S
C3432 C3415 1.574 . S
C3432 H3426 0.949 . S
C3432 C3436 1.368 . S
C3433 C3414 1.429 . S
C3433 C3427 1.429 . S
C3433 C3434 1.523 . S
C3434 C3415 1.368 . S
C3434 C3428 1.368 . S
C3434 C3433 1.523 . S
C3435 C3419 1.429 . S
C3435 C3431 1.429 . S
C3435 C3436 1.523 1_455 S
C3436 C3420 1.368 . S
C3436 C3432 1.368 . S
C3436 C3435 1.523 1_655 S
H3437 C3412 0.950 . S
H3438 C3414 0.950 . S
H3439 C3415 0.949 . S
H3440 C3417 0.950 . S
H3441 C3419 0.950 1_655 S
C3442 C3443 1.349 . S
C3442 C3444 1.327 . S
C3442 H3467 0.950 . S
C3443 C3442 1.349 . S
C3443 C3459 1.349 . S
C3444 C3442 1.327 . S
C3444 C3463 1.429 . S
C3444 H3468 0.950 . S
C3445 C3462 1.574 . S
C3445 C3464 1.368 . S
C3445 H3469 0.949 . S
H3446 C3450 0.949 . S
C3447 C3448 1.349 . S
C3447 C3449 1.327 . S
C3447 H3470 0.950 . S
C3448 C3447 1.349 . S
C3448 C3460 1.349 . S
C3449 C3447 1.327 . S
C3449 C3465 1.429 . S
C3449 H3471 0.950 . S
C3450 H3446 0.949 . S
C3450 C3458 1.574 . S
C3450 C3466 1.368 . S
H3451 C3459 0.950 . S
H3452 C3457 0.950 . S
H3453 C3458 0.949 . S
H3454 C3460 0.950 . S
H3455 C3461 0.950 . S
H3456 C3462 0.949 . S
C3457 H3452 0.950 . S
C3457 C3459 1.327 . S
C3457 C3463 1.429 . S
C3458 C3450 1.574 . S
C3458 H3453 0.949 . S
C3458 C3464 1.368 . S
C3459 C3443 1.349 . S
C3459 H3451 0.950 . S
C3459 C3457 1.327 . S
C3460 C3448 1.349 . S
C3460 H3454 0.950 . S
C3460 C3461 1.327 . S
C3461 H3455 0.950 . S
C3461 C3460 1.327 . S
C3461 C3465 1.429 . S
C3462 C3445 1.574 . S
C3462 H3456 0.949 . S
C3462 C3466 1.368 . S
C3463 C3444 1.429 . S
C3463 C3457 1.429 . S
C3463 C3464 1.523 . S
C3464 C3445 1.368 . S
C3464 C3458 1.368 . S
C3464 C3463 1.523 . S
C3465 C3449 1.429 . S
C3465 C3461 1.429 . S
C3465 C3466 1.523 . S
C3466 C3450 1.368 . S
C3466 C3462 1.368 . S
C3466 C3465 1.523 . S
H3467 C3442 0.950 . S
H3468 C3444 0.950 . S
H3469 C3445 0.949 . S
H3470 C3447 0.950 . S
H3471 C3449 0.950 . S
C3472 C3473 1.349 . S
C3472 C3474 1.327 . S
C3472 H3497 0.950 . S
C3473 C3472 1.349 . S
C3473 C3489 1.349 . S
C3474 C3472 1.327 . S
C3474 C3493 1.429 . S
C3474 H3498 0.950 . S
C3475 C3492 1.574 . S
C3475 C3494 1.368 . S
C3475 H3499 0.949 . S
H3476 C3480 0.949 . S
C3477 C3478 1.349 . S
C3477 C3479 1.327 . S
C3477 H3500 0.950 . S
C3478 C3477 1.349 . S
C3478 C3490 1.349 . S
C3479 C3477 1.327 . S
C3479 C3495 1.429 . S
C3479 H3501 0.950 . S
C3480 H3476 0.949 . S
C3480 C3488 1.574 . S
C3480 C3496 1.368 . S
H3481 C3489 0.950 . S
H3482 C3487 0.950 . S
H3483 C3488 0.949 . S
H3484 C3490 0.950 . S
H3485 C3491 0.950 . S
H3486 C3492 0.949 . S
C3487 H3482 0.950 . S
C3487 C3489 1.327 . S
C3487 C3493 1.429 . S
C3488 C3480 1.574 . S
C3488 H3483 0.949 . S
C3488 C3494 1.368 . S
C3489 C3473 1.349 . S
C3489 H3481 0.950 . S
C3489 C3487 1.327 . S
C3490 C3478 1.349 . S
C3490 H3484 0.950 . S
C3490 C3491 1.327 . S
C3491 H3485 0.950 . S
C3491 C3490 1.327 . S
C3491 C3495 1.429 . S
C3492 C3475 1.574 . S
C3492 H3486 0.949 . S
C3492 C3496 1.368 . S
C3493 C3474 1.429 . S
C3493 C3487 1.429 . S
C3493 C3494 1.523 . S
C3494 C3475 1.368 . S
C3494 C3488 1.368 . S
C3494 C3493 1.523 . S
C3495 C3479 1.429 . S
C3495 C3491 1.429 . S
C3495 C3496 1.523 . S
C3496 C3480 1.368 . S
C3496 C3492 1.368 . S
C3496 C3495 1.523 . S
H3497 C3472 0.950 . S
H3498 C3474 0.950 . S
H3499 C3475 0.949 . S
H3500 C3477 0.950 . S
H3501 C3479 0.950 . S
C3502 C3503 1.349 . S
C3502 C3504 1.327 . S
C3502 H3527 0.950 . S
C3503 C3502 1.349 . S
C3503 C3519 1.349 . S
C3504 C3502 1.327 . S
C3504 C3523 1.429 . S
C3504 H3528 0.950 . S
C3505 C3522 1.574 . S
C3505 C3524 1.368 . S
C3505 H3529 0.949 . S
H3506 C3510 0.949 . S
C3507 C3508 1.349 . S
C3507 C3509 1.327 . S
C3507 H3530 0.950 . S
C3508 C3507 1.349 . S
C3508 C3520 1.349 . S
C3509 C3507 1.327 . S
C3509 C3525 1.429 . S
C3509 H3531 0.950 . S
C3510 H3506 0.949 . S
C3510 C3518 1.574 . S
C3510 C3526 1.368 . S
H3511 C3519 0.950 . S
H3512 C3517 0.950 . S
H3513 C3518 0.949 . S
H3514 C3520 0.950 . S
H3515 C3521 0.950 . S
H3516 C3522 0.949 . S
C3517 H3512 0.950 . S
C3517 C3519 1.327 . S
C3517 C3523 1.429 . S
C3518 C3510 1.574 . S
C3518 H3513 0.949 . S
C3518 C3524 1.368 . S
C3519 C3503 1.349 . S
C3519 H3511 0.950 . S
C3519 C3517 1.327 . S
C3520 C3508 1.349 . S
C3520 H3514 0.950 . S
C3520 C3521 1.327 . S
C3521 H3515 0.950 . S
C3521 C3520 1.327 . S
C3521 C3525 1.429 . S
C3522 C3505 1.574 . S
C3522 H3516 0.949 . S
C3522 C3526 1.368 . S
C3523 C3504 1.429 . S
C3523 C3517 1.429 . S
C3523 C3524 1.523 . S
C3524 C3505 1.368 . S
C3524 C3518 1.368 . S
C3524 C3523 1.523 . S
C3525 C3509 1.429 . S
C3525 C3521 1.429 . S
C3525 C3526 1.523 . S
C3526 C3510 1.368 . S
C3526 C3522 1.368 . S
C3526 C3525 1.523 . S
H3527 C3502 0.950 . S
H3528 C3504 0.950 . S
H3529 C3505 0.949 . S
H3530 C3507 0.950 . S
H3531 C3509 0.950 . S
C3532 C3533 1.349 . S
C3532 C3534 1.327 . S
C3532 H3557 0.950 . S
C3533 C3532 1.349 . S
C3533 C3549 1.349 . S
C3534 C3532 1.327 . S
C3534 C3553 1.429 . S
C3534 H3558 0.950 . S
C3535 C3552 1.574 . S
C3535 C3554 1.368 . S
C3535 H3559 0.949 . S
H3536 C3540 0.949 . S
C3537 C3538 1.349 . S
C3537 C3539 1.327 . S
C3537 H3560 0.950 . S
C3538 C3537 1.349 . S
C3538 C3550 1.352 . S
C3539 C3537 1.327 . S
C3539 C3555 1.429 . S
C3539 H3561 0.950 . S
C3540 H3536 0.949 . S
C3540 C3548 1.574 . S
C3540 C3556 1.368 . S
H3541 C3549 0.950 . S
H3542 C3547 0.950 . S
H3543 C3548 0.949 . S
H3544 C3550 0.926 1_455 S
H3545 C3551 0.950 . S
H3546 C3552 0.949 . S
C3547 H3542 0.950 . S
C3547 C3549 1.327 . S
C3547 C3553 1.429 . S
C3548 C3540 1.574 . S
C3548 H3543 0.949 . S
C3548 C3554 1.368 . S
C3549 C3533 1.349 . S
C3549 H3541 0.950 . S
C3549 C3547 1.327 . S
C3550 C3538 1.352 . S
C3550 H3544 0.926 1_655 S
C3550 C3551 1.349 . S
C3551 H3545 0.950 . S
C3551 C3550 1.349 . S
C3551 C3555 1.429 . S
C3552 C3535 1.574 . S
C3552 H3546 0.949 . S
C3552 C3556 1.368 . S
C3553 C3534 1.429 . S
C3553 C3547 1.429 . S
C3553 C3554 1.523 . S
C3554 C3535 1.368 . S
C3554 C3548 1.368 . S
C3554 C3553 1.523 . S
C3555 C3539 1.429 . S
C3555 C3551 1.429 . S
C3555 C3556 1.523 . S
C3556 C3540 1.368 . S
C3556 C3552 1.368 . S
C3556 C3555 1.523 . S
H3557 C3532 0.950 . S
H3558 C3534 0.950 . S
H3559 C3535 0.949 . S
H3560 C3537 0.950 . S
H3561 C3539 0.950 . S
C3562 C3563 1.349 . S
C3562 C3564 1.327 . S
C3562 H3587 0.950 . S
C3563 C3562 1.349 . S
C3563 C3579 1.349 . S
C3564 C3562 1.327 . S
C3564 C3583 1.429 . S
C3564 H3588 0.950 . S
C3565 C3582 1.574 . S
C3565 C3584 1.368 . S
C3565 H3589 0.949 . S
H3566 C3570 0.949 . S
C3567 C3568 1.349 . S
C3567 C3569 1.327 . S
C3567 H3590 0.950 . S
C3568 C3567 1.349 . S
C3568 C3580 1.349 . S
C3569 C3567 1.327 . S
C3569 C3585 1.429 . S
C3569 H3591 0.950 . S
C3570 H3566 0.949 . S
C3570 C3578 1.574 . S
C3570 C3586 1.368 . S
H3571 C3579 0.950 . S
H3572 C3577 0.950 . S
H3573 C3578 0.949 . S
H3574 C3580 0.950 . S
H3575 C3581 0.950 . S
H3576 C3582 0.949 . S
C3577 H3572 0.950 . S
C3577 C3579 1.327 . S
C3577 C3583 1.429 . S
C3578 C3570 1.574 . S
C3578 H3573 0.949 . S
C3578 C3584 1.368 . S
C3579 C3563 1.349 . S
C3579 H3571 0.950 . S
C3579 C3577 1.327 . S
C3580 C3568 1.349 . S
C3580 H3574 0.950 . S
C3580 C3581 1.327 . S
C3581 H3575 0.950 . S
C3581 C3580 1.327 . S
C3581 C3585 1.429 . S
C3582 C3565 1.574 . S
C3582 H3576 0.949 . S
C3582 C3586 1.368 . S
C3583 C3564 1.429 . S
C3583 C3577 1.429 . S
C3583 C3584 1.523 . S
C3584 C3565 1.368 . S
C3584 C3578 1.368 . S
C3584 C3583 1.523 . S
C3585 C3569 1.429 . S
C3585 C3581 1.429 . S
C3585 C3586 1.523 . S
C3586 C3570 1.368 . S
C3586 C3582 1.368 . S
C3586 C3585 1.523 . S
H3587 C3562 0.950 . S
H3588 C3564 0.950 . S
H3589 C3565 0.949 . S
H3590 C3567 0.950 . S
H3591 C3569 0.950 . S
C3592 C3593 1.349 . S
C3592 C3594 1.327 . S
C3592 H3617 0.950 . S
C3593 C3592 1.349 . S
C3593 C3609 1.349 . S
C3594 C3592 1.327 . S
C3594 C3613 1.429 . S
C3594 H3618 0.950 . S
C3595 C3612 1.574 . S
C3595 C3614 1.368 . S
C3595 H3619 0.949 . S
H3596 C3600 0.949 . S
C3597 C3598 1.349 . S
C3597 C3599 1.327 . S
C3597 H3620 0.950 . S
C3598 C3597 1.349 . S
C3598 C3610 1.349 . S
C3599 C3597 1.327 . S
C3599 C3615 1.429 . S
C3599 H3621 0.950 . S
C3600 H3596 0.949 . S
C3600 C3608 1.574 . S
C3600 C3616 1.368 . S
H3601 C3609 0.950 . S
H3602 C3607 0.950 . S
H3603 C3608 0.949 . S
H3604 C3610 0.950 . S
H3605 C3611 0.950 . S
H3606 C3612 0.949 . S
C3607 H3602 0.950 . S
C3607 C3609 1.327 . S
C3607 C3613 1.429 . S
C3608 C3600 1.574 . S
C3608 H3603 0.949 . S
C3608 C3614 1.368 . S
C3609 C3593 1.349 . S
C3609 H3601 0.950 . S
C3609 C3607 1.327 . S
C3610 C3598 1.349 . S
C3610 H3604 0.950 . S
C3610 C3611 1.327 . S
C3611 H3605 0.950 . S
C3611 C3610 1.327 . S
C3611 C3615 1.429 . S
C3612 C3595 1.574 . S
C3612 H3606 0.949 . S
C3612 C3616 1.368 . S
C3613 C3594 1.429 . S
C3613 C3607 1.429 . S
C3613 C3614 1.523 . S
C3614 C3595 1.368 . S
C3614 C3608 1.368 . S
C3614 C3613 1.523 . S
C3615 C3599 1.429 . S
C3615 C3611 1.429 . S
C3615 C3616 1.523 . S
C3616 C3600 1.368 . S
C3616 C3612 1.368 . S
C3616 C3615 1.523 . S
H3617 C3592 0.950 . S
H3618 C3594 0.950 . S
H3619 C3595 0.949 . S
H3620 C3597 0.950 . S
H3621 C3599 0.950 . S
C3622 C3623 1.349 . S
C3622 C3624 1.327 . S
C3622 H3647 0.950 . S
C3623 C3622 1.349 . S
C3623 C3639 1.349 . S
C3624 C3622 1.327 . S
C3624 C3643 1.429 . S
C3624 H3648 0.950 . S
C3625 C3642 1.574 . S
C3625 C3644 1.368 . S
C3625 H3649 0.949 . S
H3626 C3630 0.949 . S
C3627 C3628 1.349 . S
C3627 C3629 1.329 1_545 S
C3627 H3650 0.950 . S
C3628 C3627 1.349 . S
C3628 C3640 1.349 1_545 S
C3629 C3627 1.329 1_565 S
C3629 C3645 1.426 . S
C3629 H3651 0.951 1_565 S
C3630 H3626 0.949 . S
C3630 C3638 1.574 . S
C3630 C3646 1.368 . S
H3631 C3639 0.950 . S
H3632 C3637 0.950 . S
H3633 C3638 0.949 . S
H3634 C3640 0.950 . S
H3635 C3641 0.950 . S
H3636 C3642 0.949 . S
C3637 H3632 0.950 . S
C3637 C3639 1.327 . S
C3637 C3643 1.429 . S
C3638 C3630 1.574 . S
C3638 H3633 0.949 . S
C3638 C3644 1.368 . S
C3639 C3623 1.349 . S
C3639 H3631 0.950 . S
C3639 C3637 1.327 . S
C3640 C3628 1.349 1_565 S
C3640 H3634 0.950 . S
C3640 C3641 1.327 . S
C3641 H3635 0.950 . S
C3641 C3640 1.327 . S
C3641 C3645 1.429 . S
C3642 C3625 1.574 . S
C3642 H3636 0.949 . S
C3642 C3646 1.368 . S
C3643 C3624 1.429 . S
C3643 C3637 1.429 . S
C3643 C3644 1.523 . S
C3644 C3625 1.368 . S
C3644 C3638 1.368 . S
C3644 C3643 1.523 . S
C3645 C3629 1.426 . S
C3645 C3641 1.429 . S
C3645 C3646 1.523 . S
C3646 C3630 1.368 . S
C3646 C3642 1.368 . S
C3646 C3645 1.523 . S
H3647 C3622 0.950 . S
H3648 C3624 0.950 . S
H3649 C3625 0.949 . S
H3650 C3627 0.950 . S
H3651 C3629 0.951 1_545 S
C3652 C3653 1.349 . S
C3652 C3654 1.327 . S
C3652 H3677 0.950 . S
C3653 C3652 1.349 . S
C3653 C3669 1.349 . S
C3654 C3652 1.327 . S
C3654 C3673 1.429 . S
C3654 H3678 0.950 . S
C3655 C3672 1.574 . S
C3655 C3674 1.368 . S
C3655 H3679 0.949 . S
H3656 C3660 0.949 . S
C3657 C3658 1.349 . S
C3657 C3659 1.327 . S
C3657 H3680 0.950 . S
C3658 C3657 1.349 . S
C3658 C3670 1.349 . S
C3659 C3657 1.327 . S
C3659 C3675 1.429 . S
C3659 H3681 0.950 . S
C3660 H3656 0.949 . S
C3660 C3668 1.574 . S
C3660 C3676 1.368 . S
H3661 C3669 0.950 . S
H3662 C3667 0.950 . S
H3663 C3668 0.949 . S
H3664 C3670 0.950 . S
H3665 C3671 0.950 . S
H3666 C3672 0.949 . S
C3667 H3662 0.950 . S
C3667 C3669 1.327 . S
C3667 C3673 1.429 . S
C3668 C3660 1.574 . S
C3668 H3663 0.949 . S
C3668 C3674 1.368 . S
C3669 C3653 1.349 . S
C3669 H3661 0.950 . S
C3669 C3667 1.327 . S
C3670 C3658 1.349 . S
C3670 H3664 0.950 . S
C3670 C3671 1.327 . S
C3671 H3665 0.950 . S
C3671 C3670 1.327 . S
C3671 C3675 1.429 . S
C3672 C3655 1.574 . S
C3672 H3666 0.949 . S
C3672 C3676 1.368 . S
C3673 C3654 1.429 . S
C3673 C3667 1.429 . S
C3673 C3674 1.523 . S
C3674 C3655 1.368 . S
C3674 C3668 1.368 . S
C3674 C3673 1.523 . S
C3675 C3659 1.429 . S
C3675 C3671 1.429 . S
C3675 C3676 1.523 . S
C3676 C3660 1.368 . S
C3676 C3672 1.368 . S
C3676 C3675 1.523 . S
H3677 C3652 0.950 . S
H3678 C3654 0.950 . S
H3679 C3655 0.949 . S
H3680 C3657 0.950 . S
H3681 C3659 0.950 . S
C3682 C3683 1.349 . S
C3682 C3684 1.327 . S
C3682 H3707 0.950 . S
C3683 C3682 1.349 . S
C3683 C3699 1.349 1_554 S
C3684 C3682 1.327 . S
C3684 C3703 1.429 . S
C3684 H3708 0.950 . S
C3685 C3702 1.574 . S
C3685 C3704 1.368 1_556 S
C3685 H3709 0.949 . S
H3686 C3690 0.949 . S
C3687 C3688 1.349 . S
C3687 C3689 1.330 . S
C3687 H3710 0.950 1_554 S
C3688 C3687 1.349 . S
C3688 C3700 1.349 . S
C3689 C3687 1.330 . S
C3689 C3705 1.433 . S
C3689 H3711 0.942 1_554 S
C3690 H3686 0.949 . S
C3690 C3698 1.574 . S
C3690 C3706 1.368 . S
H3691 C3699 0.950 . S
H3692 C3697 0.950 . S
H3693 C3698 0.949 . S
H3694 C3700 0.950 . S
H3695 C3701 0.950 . S
H3696 C3702 0.949 . S
C3697 H3692 0.950 . S
C3697 C3699 1.327 . S
C3697 C3703 1.429 1_556 S
C3698 C3690 1.574 . S
C3698 H3693 0.949 . S
C3698 C3704 1.368 . S
C3699 C3683 1.349 1_556 S
C3699 H3691 0.950 . S
C3699 C3697 1.327 . S
C3700 C3688 1.349 . S
C3700 H3694 0.950 . S
C3700 C3701 1.327 . S
C3701 H3695 0.950 . S
C3701 C3700 1.327 . S
C3701 C3705 1.429 . S
C3702 C3685 1.574 . S
C3702 H3696 0.949 . S
C3702 C3706 1.368 1_556 S
C3703 C3684 1.429 . S
C3703 C3697 1.429 1_554 S
C3703 C3704 1.523 . S
C3704 C3685 1.368 1_554 S
C3704 C3698 1.368 . S
C3704 C3703 1.523 . S
C3705 C3689 1.433 . S
C3705 C3701 1.429 . S
C3705 C3706 1.523 . S
C3706 C3690 1.368 . S
C3706 C3702 1.368 1_554 S
C3706 C3705 1.523 . S
H3707 C3682 0.950 . S
H3708 C3684 0.950 . S
H3709 C3685 0.949 . S
H3710 C3687 0.950 1_556 S
H3711 C3689 0.942 1_556 S
C3712 C3713 1.349 . S
C3712 C3714 1.327 . S
C3712 H3737 0.950 . S
C3713 C3712 1.349 . S
C3713 C3729 1.349 . S
C3714 C3712 1.327 . S
C3714 C3733 1.429 . S
C3714 H3738 0.950 . S
C3715 C3732 1.574 . S
C3715 C3734 1.368 . S
C3715 H3739 0.949 . S
H3716 C3720 0.949 . S
C3717 C3718 1.349 . S
C3717 C3719 1.327 . S
C3717 H3740 0.950 . S
C3718 C3717 1.349 . S
C3718 C3730 1.349 . S
C3719 C3717 1.327 . S
C3719 C3735 1.429 . S
C3719 H3741 0.950 . S
C3720 H3716 0.949 . S
C3720 C3728 1.574 . S
C3720 C3736 1.368 . S
H3721 C3729 0.950 . S
H3722 C3727 0.950 . S
H3723 C3728 0.949 . S
H3724 C3730 0.950 . S
H3725 C3731 0.950 . S
H3726 C3732 0.949 . S
C3727 H3722 0.950 . S
C3727 C3729 1.327 . S
C3727 C3733 1.429 . S
C3728 C3720 1.574 . S
C3728 H3723 0.949 . S
C3728 C3734 1.368 . S
C3729 C3713 1.349 . S
C3729 H3721 0.950 . S
C3729 C3727 1.327 . S
C3730 C3718 1.349 . S
C3730 H3724 0.950 . S
C3730 C3731 1.327 . S
C3731 H3725 0.950 . S
C3731 C3730 1.327 . S
C3731 C3735 1.429 . S
C3732 C3715 1.574 . S
C3732 H3726 0.949 . S
C3732 C3736 1.368 . S
C3733 C3714 1.429 . S
C3733 C3727 1.429 . S
C3733 C3734 1.523 . S
C3734 C3715 1.368 . S
C3734 C3728 1.368 . S
C3734 C3733 1.523 . S
C3735 C3719 1.429 . S
C3735 C3731 1.429 . S
C3735 C3736 1.523 . S
C3736 C3720 1.368 . S
C3736 C3732 1.368 . S
C3736 C3735 1.523 . S
H3737 C3712 0.950 . S
H3738 C3714 0.950 . S
H3739 C3715 0.949 . S
H3740 C3717 0.950 . S
H3741 C3719 0.950 . S
C3742 C3743 1.349 . S
C3742 C3744 1.327 . S
C3742 H3767 0.950 . S
C3743 C3742 1.349 . S
C3743 C3759 1.349 . S
C3744 C3742 1.327 . S
C3744 C3763 1.429 . S
C3744 H3768 0.950 1_554 S
C3745 C3762 1.574 . S
C3745 C3764 1.368 . S
C3745 H3769 0.949 . S
H3746 C3750 0.949 . S
C3747 C3748 1.349 . S
C3747 C3749 1.327 . S
C3747 H3770 0.950 . S
C3748 C3747 1.349 . S
C3748 C3760 1.349 . S
C3749 C3747 1.327 . S
C3749 C3765 1.429 . S
C3749 H3771 0.950 1_556 S
C3750 H3746 0.949 . S
C3750 C3758 1.574 . S
C3750 C3766 1.368 . S
H3751 C3759 0.950 . S
H3752 C3757 0.950 . S
H3753 C3758 0.949 . S
H3754 C3760 0.950 . S
H3755 C3761 0.950 . S
H3756 C3762 0.949 . S
C3757 H3752 0.950 . S
C3757 C3759 1.327 . S
C3757 C3763 1.429 . S
C3758 C3750 1.574 . S
C3758 H3753 0.949 . S
C3758 C3764 1.368 1_556 S
C3759 C3743 1.349 . S
C3759 H3751 0.950 . S
C3759 C3757 1.327 . S
C3760 C3748 1.349 . S
C3760 H3754 0.950 . S
C3760 C3761 1.327 . S
C3761 H3755 0.950 . S
C3761 C3760 1.327 . S
C3761 C3765 1.429 . S
C3762 C3745 1.574 . S
C3762 H3756 0.949 . S
C3762 C3766 1.368 1_554 S
C3763 C3744 1.429 . S
C3763 C3757 1.429 . S
C3763 C3764 1.523 . S
C3764 C3745 1.368 . S
C3764 C3758 1.368 1_554 S
C3764 C3763 1.523 . S
C3765 C3749 1.429 . S
C3765 C3761 1.429 . S
C3765 C3766 1.523 . S
C3766 C3750 1.368 . S
C3766 C3762 1.368 1_556 S
C3766 C3765 1.523 . S
H3767 C3742 0.950 . S
H3768 C3744 0.950 1_556 S
H3769 C3745 0.949 . S
H3770 C3747 0.950 . S
H3771 C3749 0.950 1_554 S
C3772 C3773 1.349 . S
C3772 C3774 1.327 . S
C3772 H3797 0.950 . S
C3773 C3772 1.349 . S
C3773 C3789 1.349 . S
C3774 C3772 1.327 . S
C3774 C3793 1.429 . S
C3774 H3798 0.950 . S
C3775 C3792 1.574 . S
C3775 C3794 1.368 . S
C3775 H3799 0.949 . S
H3776 C3780 0.949 . S
C3777 C3778 1.349 . S
C3777 C3779 1.327 . S
C3777 H3800 0.950 . S
C3778 C3777 1.349 . S
C3778 C3790 1.349 . S
C3779 C3777 1.327 . S
C3779 C3795 1.429 . S
C3779 H3801 0.950 . S
C3780 H3776 0.949 . S
C3780 C3788 1.574 . S
C3780 C3796 1.368 . S
H3781 C3789 0.950 1_545 S
H3782 C3787 0.950 . S
H3783 C3788 0.949 . S
H3784 C3790 0.950 . S
H3785 C3791 0.950 . S
H3786 C3792 0.949 . S
C3787 H3782 0.950 . S
C3787 C3789 1.327 . S
C3787 C3793 1.429 . S
C3788 C3780 1.574 . S
C3788 H3783 0.949 . S
C3788 C3794 1.368 . S
C3789 C3773 1.349 . S
C3789 H3781 0.950 1_565 S
C3789 C3787 1.327 . S
C3790 C3778 1.349 . S
C3790 H3784 0.950 . S
C3790 C3791 1.327 . S
C3791 H3785 0.950 . S
C3791 C3790 1.327 . S
C3791 C3795 1.429 . S
C3792 C3775 1.574 . S
C3792 H3786 0.949 . S
C3792 C3796 1.368 . S
C3793 C3774 1.429 . S
C3793 C3787 1.429 . S
C3793 C3794 1.523 . S
C3794 C3775 1.368 . S
C3794 C3788 1.368 . S
C3794 C3793 1.523 . S
C3795 C3779 1.429 . S
C3795 C3791 1.429 . S
C3795 C3796 1.523 . S
C3796 C3780 1.368 . S
C3796 C3792 1.368 . S
C3796 C3795 1.523 . S
H3797 C3772 0.950 . S
H3798 C3774 0.950 . S
H3799 C3775 0.949 . S
H3800 C3777 0.950 . S
H3801 C3779 0.950 . S
C3802 C3803 1.349 . S
C3802 C3804 1.327 . S
C3802 H3827 0.950 . S
C3803 C3802 1.349 . S
C3803 C3819 1.349 . S
C3804 C3802 1.327 . S
C3804 C3823 1.429 . S
C3804 H3828 0.950 . S
C3805 C3822 1.574 . S
C3805 C3824 1.368 . S
C3805 H3829 0.949 . S
H3806 C3810 0.949 . S
C3807 C3808 1.349 . S
C3807 C3809 1.327 . S
C3807 H3830 0.950 . S
C3808 C3807 1.349 . S
C3808 C3820 1.349 . S
C3809 C3807 1.327 . S
C3809 C3825 1.429 . S
C3809 H3831 0.950 . S
C3810 H3806 0.949 . S
C3810 C3818 1.574 . S
C3810 C3826 1.368 . S
H3811 C3819 0.950 . S
H3812 C3817 0.950 . S
H3813 C3818 0.949 . S
H3814 C3820 0.950 . S
H3815 C3821 0.950 . S
H3816 C3822 0.949 . S
C3817 H3812 0.950 . S
C3817 C3819 1.327 . S
C3817 C3823 1.429 . S
C3818 C3810 1.574 . S
C3818 H3813 0.949 . S
C3818 C3824 1.368 . S
C3819 C3803 1.349 . S
C3819 H3811 0.950 . S
C3819 C3817 1.327 . S
C3820 C3808 1.349 . S
C3820 H3814 0.950 . S
C3820 C3821 1.327 . S
C3821 H3815 0.950 . S
C3821 C3820 1.327 . S
C3821 C3825 1.429 . S
C3822 C3805 1.574 . S
C3822 H3816 0.949 . S
C3822 C3826 1.368 . S
C3823 C3804 1.429 . S
C3823 C3817 1.429 . S
C3823 C3824 1.523 . S
C3824 C3805 1.368 . S
C3824 C3818 1.368 . S
C3824 C3823 1.523 . S
C3825 C3809 1.429 . S
C3825 C3821 1.429 . S
C3825 C3826 1.523 . S
C3826 C3810 1.368 . S
C3826 C3822 1.368 . S
C3826 C3825 1.523 . S
H3827 C3802 0.950 . S
H3828 C3804 0.950 . S
H3829 C3805 0.949 . S
H3830 C3807 0.950 . S
H3831 C3809 0.950 . S
C953 C101 2.196 . S
C958 C314 2.182 1_556 S
C983 C57 2.071 . S
C988 C371 2.104 . S
C1013 C73 1.098 . S
C1018 C394 1.133 . S
C1048 C448 1.398 . S
C1043 C78 1.371 . S
C1073 C21 1.210 . S
C1078 C488 1.237 . S
C1108 C519 0.327 . S
C1103 C31 0.418 . S
C1138 C571 1.190 . S
C1133 C49 1.179 . S
C1163 C0 1.574 . S
C1168 C594 1.616 . S
C1198 C331 2.411 . S
C1193 C218 2.429 . S
C1223 C229 0.391 . S
C1228 C368 0.358 . S
C1258 C411 1.350 . S
C1253 C257 1.363 . S
C1288 C434 1.219 . S
C1283 C164 1.165 . S
C1313 C216 1.642 . S
C1318 C474 1.738 . S
C1348 C522 1.453 . S
C1343 C231 1.482 . S
C1378 C568 0.297 . S
C1373 C255 0.363 . S
C1408 C611 1.920 . S
C1403 C166 1.949 . S
C1438 C328 1.388 1_565 S
C1433 C143 1.357 . S
C1463 C265 2.007 . S
C1468 C651 2.043 . S
C1498 C683 2.502 . S
C1493 C299 2.512 . S
C1528 C714 0.552 1_655 S
C1523 C291 0.587 . S
C1553 C104 1.094 . S
C1558 C608 1.119 . S
C1583 C117 1.425 . S
C1588 C408 1.457 . S
C1613 C304 2.254 . S
C1618 C771 2.281 . S
C1648 C794 0.384 . S
C1643 C278 0.372 . S
C1678 C323 2.138 . S
C1673 C60 2.143 . S
C1708 C802 1.996 . S
C1703 C96 1.996 . S
C1733 C88 1.008 . S
C1738 C403 0.998 . S
C1763 C65 1.313 . S
C1768 C759 1.317 . S
C1798 C479 1.181 . S
C1793 C10 1.205 . S
C1823 C44 0.393 . S
C1828 C688 0.281 . S
C1858 C562 1.048 1_556 S
C1853 C34 0.994 . S
C1888 C843 1.567 . S
C1883 C13 1.613 . S
C1918 C322 2.339 . S
C1913 C138 2.296 . S
C1948 C799 0.360 . S
C1943 C296 0.234 . S
C1973 C112 1.239 . S
C1978 C402 1.260 . S
C2003 C270 1.106 . S
C2008 C763 1.098 . S
C2033 C140 1.640 . S
C2038 C483 1.633 . S
C2068 C691 1.397 . S
C2063 C294 1.394 . S
C2093 C114 0.142 . S
C2098 C559 0.322 . S
C2123 C268 1.833 . S
C2128 C842 1.847 . S
C2153 C169 1.372 . S
C2158 C319 1.355 . S
C2183 C161 1.940 . S
C2188 C642 1.949 . S
C2213 C234 2.454 . S
C2218 C514 2.437 . S
C2243 C226 0.478 . S
C2248 C723 0.386 . S
C2278 C839 1.115 . S
C2273 C247 1.153 . S
C2303 C195 1.447 . S
C2308 C399 1.418 . S
C2338 C442 2.180 . S
C2333 C239 2.172 . S
C2368 C363 0.342 . S
C2363 C187 0.302 . S
C2393 C75 2.196 . S
C2398 C874 2.182 . S
C2428 C811 2.104 . S
C2423 C83 2.070 . S
C2453 C99 1.097 . S
C2458 C914 1.133 . S
C2483 C52 1.371 . S
C2488 C768 1.398 . S
C2513 C47 1.210 . S
C2518 C648 1.236 . S
C2548 C679 0.327 . S
C2543 C5 0.418 . S
C2578 C731 1.191 . S
C2573 C23 1.178 . S
C2608 C834 1.616 . S
C2603 C26 1.574 . S
C2638 C891 2.411 . S
C2633 C244 2.429 . S
C2663 C177 0.391 . S
C2668 C808 0.358 . S
C2698 C931 1.350 . S
C2693 C192 1.363 . S
C2728 C754 1.219 . S
C2723 C203 1.166 . S
C2758 C634 1.739 . S
C2753 C242 1.642 . S
C2783 C179 1.482 . S
C2788 C682 1.453 . S
C2818 C728 0.297 . S
C2813 C190 0.362 . S
C2843 C205 1.949 . S
C2848 C851 1.920 . S
C2878 C888 1.394 . S
C2873 C286 1.357 . S
C2903 C122 2.011 . S
C2908 C491 2.043 . S
C2938 C523 2.503 . S
C2933 C130 2.519 . S
C2968 C554 0.551 . S
C2963 C148 0.587 . S
C2998 C848 1.119 . S
C2993 C273 1.095 . S
C3023 C260 1.425 . S
C3028 C928 1.457 . S
C3058 C451 2.279 . S
C3053 C135 2.247 . S
C3088 C354 0.384 . S
C3083 C109 0.372 . S
C3113 C86 2.143 . S
C3118 C883 2.138 . S
C3148 C362 1.996 . S
C3143 C70 1.996 . S
C3173 C62 1.007 . S
C3178 C923 0.997 . S
C3203 C91 1.313 . S
C3208 C439 1.317 . S
C3233 C36 1.205 . S
C3238 C639 1.181 . S
C3268 C528 0.281 . S
C3263 C18 0.393 . S
C3293 C8 0.995 . S
C3298 C722 1.049 . S
C3323 C39 1.608 . S
C3328 C603 1.567 . S
C3358 C882 2.339 . S
C3353 C307 2.296 . S
C3383 C153 0.234 . S
C3388 C359 0.360 . S
C3418 C922 1.260 . S
C3413 C281 1.239 . S
C3443 C127 1.106 . S
C3448 C443 1.098 . S
C3473 C309 1.640 . S
C3478 C643 1.636 . S
C3508 C531 1.396 . S
C3503 C151 1.394 . S
C3533 C283 0.142 . S
C3538 C719 0.322 . S
C3568 C602 1.847 . S
C3563 C125 1.833 . S
C3598 C879 1.355 . S
C3593 C221 1.372 . S
C3628 C482 1.950 1_655 S
C3623 C200 1.941 . S
C3653 C208 2.454 . S
C3658 C674 2.437 . S
C3688 C563 0.386 . S
C3683 C174 0.477 . S
C3713 C182 1.153 . S
C3718 C599 1.116 . S
C3743 C156 1.447 . S
C3748 C919 1.418 . S
C3778 C762 2.181 . S
C3773 C213 2.172 1_565 S
C3808 C803 0.342 . S
C3803 C252 0.303 . S
