# Generated by pormake.
# Topology pth, (4,4)-cn, num edge types: 1
# Building blocks:
#     Node 0, Type 0, BuildingBlock: AZAVOO_clean_sbu_0, # of connection points: 4
#     Node 1, Type 0, BuildingBlock: AZAVOO_clean_sbu_0, # of connection points: 4
#     Node 2, Type 0, BuildingBlock: AZAVOO_clean_sbu_0, # of connection points: 4
#     Node 3, Type 1, BuildingBlock: KOZSID_clean_sbu_0, # of connection points: 4
#     Node 4, Type 1, BuildingBlock: KOZSID_clean_sbu_0, # of connection points: 4
#     Node 5, Type 1, BuildingBlock: KOZSID_clean_sbu_0, # of connection points: 4
#     Edge 6, Type (0, 1), BuildingBlock: ZUJKAS_clean_linker_0, # of connection points: 2
#     Edge 7, Type (0, 1), BuildingBlock: ZUJKAS_clean_linker_0, # of connection points: 2
#     Edge 8, Type (0, 1), BuildingBlock: ZUJKAS_clean_linker_0, # of connection points: 2
#     Edge 9, Type (0, 1), BuildingBlock: ZUJKAS_clean_linker_0, # of connection points: 2
#     Edge 10, Type (0, 1), BuildingBlock: ZUJKAS_clean_linker_0, # of connection points: 2
#     Edge 11, Type (0, 1), BuildingBlock: ZUJKAS_clean_linker_0, # of connection points: 2
#     Edge 12, Type (0, 1), BuildingBlock: ZUJKAS_clean_linker_0, # of connection points: 2
#     Edge 13, Type (0, 1), BuildingBlock: ZUJKAS_clean_linker_0, # of connection points: 2
#     Edge 14, Type (0, 1), BuildingBlock: ZUJKAS_clean_linker_0, # of connection points: 2
#     Edge 15, Type (0, 1), BuildingBlock: ZUJKAS_clean_linker_0, # of connection points: 2
#     Edge 16, Type (0, 1), BuildingBlock: ZUJKAS_clean_linker_0, # of connection points: 2
#     Edge 17, Type (0, 1), BuildingBlock: ZUJKAS_clean_linker_0, # of connection points: 2
# Relax obj value: 0.065
# Max RMSD: 0.213
# Mean RMSD: 0.106
data_MOF--net-pth--node1-AZAVOO_clean_sbu_0--node2-KOZSID_clean_sbu_0--edge1-ZUJKAS_clean_linker_0
_symmetry_space_group_name_H-M    P1
_symmetry_Int_Tables_number       1
_symmetry_cell_setting            triclinic
loop_
_symmetry_equiv_pos_as_xyz
'x, y, z'
_cell_length_a     33.520297
_cell_length_b     34.146633
_cell_length_c     75.416313
_cell_angle_alpha  88.720731
_cell_angle_beta   90.442668
_cell_angle_gamma 121.86595
loop_
_atom_site_label
_atom_site_type_symbol
_atom_site_fract_x
_atom_site_fract_y
_atom_site_fract_z
_atom_type_partial_charge
Mg0 Mg 0.13689 0.07831 0.02887 0.0
O1 O 0.07129 0.03243 0.01239 0.0
O2 O 0.06067 0.07764 0.99359 0.0
Mg3 Mg 0.11992 0.15231 0.99772 0.0
C4 C 0.04832 0.03785 0.0 0.0
C5 C 0.14602 0.00702 0.05154 0.0
O6 O 0.18813 0.03136 0.04439 0.0
O7 O 0.09742 0.10301 0.04508 0.0
O8 O 0.09251 0.15069 0.02567 0.0
O9 O 0.18183 0.07319 0.00832 0.0
O10 O 0.16308 0.12639 0.00824 0.0
C11 C 0.08563 0.13212 0.04113 0.0
C12 C 0.18252 0.10757 0.00041 0.0
O13 O 0.11616 0.01821 0.04802 0.0
Mg14 Mg 0.98445 0.03837 0.35831 0.0
O15 O 0.05517 0.06325 0.37192 0.0
O16 O 0.07879 0.13081 0.38442 0.0
Mg17 Mg 0.02348 0.14908 0.37903 0.0
C18 C 0.08486 0.09792 0.3809 0.0
C19 C 0.97046 0.97005 0.32884 0.0
O20 O 0.94322 0.98427 0.32282 0.0
O21 O 0.0199 0.09133 0.33581 0.0
O22 O 0.04111 0.15721 0.34935 0.0
O23 O 0.94598 0.00265 0.38343 0.0
O24 O 0.97087 0.07518 0.37616 0.0
C25 C 0.03869 0.13499 0.33558 0.0
C26 C 0.95144 0.04176 0.38763 0.0
O27 O 0.99211 0.9857 0.34334 0.0
Mg28 Mg 0.04246 0.0232 0.68511 0.0
O29 O 0.09073 0.08203 0.70349 0.0
O30 O 0.04603 0.09487 0.72127 0.0
Mg31 Mg 0.96914 0.04338 0.71459 0.0
C32 C 0.08623 0.10405 0.71599 0.0
C33 C 0.11781 0.01331 0.66563 0.0
O34 O 0.09371 0.97279 0.67369 0.0
O35 O 0.02641 0.0703 0.66892 0.0
O36 O 0.97828 0.07731 0.68705 0.0
O37 O 0.03848 0.97159 0.70489 0.0
O38 O 0.9895 0.99641 0.70425 0.0
C39 C -0.0005 0.08525 0.67218 0.0
C40 C 0.00347 0.97171 0.71195 0.0
O41 O 0.10522 0.04213 0.66754 0.0
C42 C 0.08545 0.61574 0.16486 0.0
C43 C 0.13015 0.65017 0.1593 0.0
C44 C 0.16113 0.64768 0.17037 0.0
C45 C 0.13378 0.61211 0.18201 0.0
N46 N 0.08712 0.59132 0.17893 0.0
Co47 Co 0.03479 0.53852 0.19278 0.0
N48 N 0.08035 0.53698 0.20963 0.0
C49 C 0.12735 0.56681 0.21025 0.0
C50 C 0.14907 0.55623 0.22329 0.0
C51 C 0.11398 0.51658 0.23116 0.0
C52 C 0.07288 0.50516 0.2223 0.0
N53 N 0.98266 0.48468 0.20637 0.0
C54 C 0.98511 0.4563 0.21861 0.0
C55 C 0.94081 0.41951 0.22331 0.0
C56 C 0.90929 0.42451 0.21353 0.0
C57 C 0.93597 0.46363 0.20335 0.0
N58 N 0.98908 0.54077 0.17611 0.0
C59 C 0.94165 0.51358 0.17664 0.0
C60 C 0.91966 0.52476 0.16392 0.0
C61 C 0.95511 0.5618 0.15489 0.0
C62 C 0.99677 0.57107 0.16269 0.0
N63 N 0.03882 0.49445 0.17741 0.0
C64 C 0.04255 0.42632 0.15854 0.0
C65 C 8e-05 0.42386 0.161 0.0
C66 C -0.00094 0.45814 0.17029 0.0
C67 C 0.08346 0.46428 0.16517 0.0
C68 C 0.08081 0.49773 0.17452 0.0
N69 N 0.03058 0.58264 0.20828 0.0
C70 C 0.9838 0.60677 0.22331 0.0
C71 C 0.02406 0.64735 0.22865 0.0
C72 C 0.0677 0.65464 0.22394 0.0
C73 C 0.07013 0.62219 0.21381 0.0
C74 C 0.98783 0.57514 0.21331 0.0
H75 H 0.10444 0.63029 0.21045 0.0
H76 H 0.95573 0.54511 0.20971 0.0
H77 H 0.96556 0.45413 0.17176 0.0
H78 H 0.11299 0.52548 0.17958 0.0
C79 C 0.15062 0.60022 0.19687 0.0
C80 C 0.04258 0.60994 0.15725 0.0
C81 C 0.02878 0.4614 0.22499 0.0
C82 C 0.91878 0.47834 0.18946 0.0
H83 H 0.13949 0.67548 0.14871 0.0
H84 H 0.19899 0.67024 0.17035 0.0
H85 H 0.18629 0.57367 0.22605 0.0
H86 H 0.11841 0.49694 0.24161 0.0
H87 H 0.93202 0.39092 0.23228 0.0
H88 H 0.87159 0.40097 0.21315 0.0
H89 H 0.8823 0.50841 0.16167 0.0
H90 H 0.95084 0.5804 0.14398 0.0
H91 H 0.96763 0.3956 0.15573 0.0
H92 H 0.11721 0.46762 0.16354 0.0
H93 H 0.94916 0.59922 0.2269 0.0
H94 H 0.09994 0.68579 0.22769 0.0
C95 C 0.49757 0.06213 0.54789 0.0
C96 C 0.46476 0.01918 0.55516 0.0
C97 C 0.46768 0.98725 0.54569 0.0
C98 C 0.50181 0.01229 0.5332 0.0
N99 N 0.52123 0.05844 0.5342 0.0
Co100 Co 0.57137 0.10756 0.51839 0.0
N101 N 0.57455 0.06028 0.50422 0.0
C102 C 0.54726 0.01386 0.50602 0.0
C103 C 0.55946 0.99073 0.49483 0.0
C104 C 0.59752 0.02442 0.48562 0.0
C105 C 0.60622 0.06621 0.49178 0.0
N106 N 0.62209 0.1566 0.50275 0.0
C107 C 0.64978 0.15297 0.49077 0.0
C108 C 0.68338 0.19554 0.48357 0.0
C109 C 0.67743 0.22753 0.49164 0.0
C110 C 0.64071 0.20266 0.50324 0.0
N111 N 0.56796 0.15488 0.53248 0.0
C112 C 0.59333 0.20122 0.52983 0.0
C113 C 0.58243 0.2246 0.54141 0.0
C114 C 0.54768 0.19124 0.55198 0.0
C115 C 0.5393 0.14927 0.54616 0.0
N116 N 0.6204 0.11158 0.53443 0.0
C117 C 0.69558 0.11804 0.55387 0.0
C118 C 0.69538 0.15755 0.54888 0.0
C119 C 0.65765 0.15355 0.53933 0.0
C120 C 0.65668 0.07512 0.54951 0.0
C121 C 0.61968 0.0727 0.53991 0.0
N122 N 0.52243 0.10363 0.50211 0.0
C123 C 0.49165 0.14096 0.48395 0.0
C124 C 0.45304 0.09845 0.47912 0.0
C125 C 0.44972 0.05853 0.486 0.0
C126 C 0.48443 0.06188 0.49738 0.0
C127 C 0.52554 0.14273 0.49533 0.0
H128 H 0.47953 0.03016 0.50217 0.0
H129 H 0.55366 0.17622 0.4985 0.0
H130 H 0.65978 0.18495 0.53579 0.0
H131 H 0.59133 0.03907 0.53674 0.0
C132 C 0.51462 0.99331 0.51983 0.0
C133 C 0.50299 0.10507 0.55379 0.0
C134 C 0.64748 0.1104 0.4868 0.0
C135 C 0.62646 0.22169 0.51611 0.0
H136 H 0.44041 0.01152 0.56593 0.0
H137 H 0.44661 0.95012 0.54742 0.0
H138 H 0.54418 0.95386 0.49415 0.0
H139 H 0.61782 0.01886 0.47605 0.0
H140 H 0.7104 0.20271 0.47397 0.0
H141 H 0.69884 0.26464 0.4899 0.0
H142 H 0.59754 0.26146 0.54197 0.0
H143 H 0.53006 0.19704 0.56263 0.0
H144 H 0.72422 0.19153 0.55233 0.0
H145 H 0.65524 0.04348 0.55307 0.0
H146 H 0.49543 0.17297 0.47924 0.0
H147 H 0.42065 0.02469 0.48254 0.0
C148 C 0.66822 0.58664 0.83509 0.0
C149 C 0.70342 0.58 0.82929 0.0
C150 C 0.69749 0.54219 0.83828 0.0
C151 C 0.65924 0.52798 0.84902 0.0
N152 N 0.64005 0.55418 0.84732 0.0
Co153 Co 0.58445 0.54621 0.86055 0.0
N154 N 0.57784 0.49251 0.87456 0.0
C155 C 0.60654 0.47584 0.87421 0.0
C156 C 0.59211 0.43794 0.88508 0.0
C157 C 0.55128 0.42936 0.89258 0.0
C158 C 0.54318 0.46262 0.88574 0.0
N159 N 0.52794 0.53727 0.87345 0.0
C160 C 0.49747 0.50222 0.88438 0.0
C161 C 0.46065 0.507 0.88956 0.0
C162 C 0.46765 0.54616 0.88133 0.0
C163 C 0.50805 0.56282 0.87161 0.0
N164 N 0.59175 0.60066 0.84684 0.0
C165 C 0.56509 0.61948 0.84824 0.0
C166 C 0.57981 0.65773 0.83756 0.0
C167 C 0.61863 0.66422 0.82901 0.0
C168 C 0.62536 0.62941 0.83503 0.0
N169 N 0.54211 0.50376 0.84215 0.0
C170 C 0.47514 0.43832 0.81892 0.0
C171 C 0.47448 0.47747 0.82328 0.0
C172 C 0.50806 0.50951 0.83476 0.0
C173 C 0.51124 0.4335 0.82574 0.0
C174 C 0.54422 0.46648 0.83723 0.0
N175 N 0.62675 0.58882 0.87903 0.0
C176 C 0.65036 0.65409 0.89774 0.0
C177 C 0.69077 0.65481 0.90292 0.0
C178 C 0.69771 0.62077 0.89651 0.0
C179 C 0.66547 0.58833 0.88469 0.0
C180 C 0.6191 0.62107 0.88596 0.0
H181 H 0.67318 0.56382 0.88007 0.0
H182 H 0.58943 0.62297 0.88248 0.0
H183 H 0.50512 0.53819 0.83771 0.0
H184 H 0.57046 0.4606 0.84228 0.0
C185 C 0.6431 0.49275 0.86187 0.0
C186 C 0.66483 0.62585 0.82947 0.0
C187 C 0.50048 0.46239 0.88921 0.0
C188 C 0.52662 0.60062 0.85981 0.0
H189 H 0.73134 0.60105 0.81991 0.0
H190 H 0.71941 0.52774 0.83753 0.0
H191 H 0.60809 0.41761 0.88667 0.0
H192 H 0.52901 0.40086 0.90154 0.0
H193 H 0.43107 0.48385 0.89798 0.0
H194 H 0.44506 0.55991 0.88186 0.0
H195 H 0.56448 0.67872 0.8363 0.0
H196 H 0.63995 0.69178 0.81956 0.0
H197 H 0.44786 0.48329 0.81797 0.0
H198 H 0.51322 0.40371 0.8227 0.0
H199 H 0.64291 0.67915 0.90267 0.0
H200 H 0.72861 0.61998 0.90013 0.0
H201 H 0.05641 0.1928 0.03741 0.0
H202 H 0.04069 0.23074 0.06082 0.0
H203 H 0.05852 0.14784 0.10025 0.0
H204 H 0.07558 0.11013 0.07681 0.0
H205 H 0.97659 0.20217 0.08808 0.0
H206 H 0.15878 0.27932 0.11359 0.0
H207 H 0.14052 0.25001 0.09276 0.0
H208 H 0.12404 0.21742 0.11329 0.0
C209 C 0.05651 0.18208 0.05102 0.0
C210 C 0.06811 0.14893 0.05522 0.0
C211 C 0.04736 0.2038 0.06441 0.0
C212 C 0.04946 0.19282 0.08227 0.0
C213 C 0.05779 0.15752 0.08654 0.0
H214 H 0.98349 0.33317 0.16281 0.0
H215 H 0.98338 0.27239 0.14614 0.0
C216 C 0.0672 0.1358 0.07311 0.0
C217 C 0.04608 0.22089 0.09617 0.0
H218 H 0.11123 0.30173 0.12707 0.0
C219 C 0.00574 0.22354 0.09679 0.0
C220 C 0.08453 0.24917 0.10731 0.0
C221 C 0.12962 0.24931 0.10669 0.0
C222 C 0.00329 0.2547 0.10786 0.0
C223 C 0.04191 0.28326 0.11887 0.0
C224 C 0.08167 0.27961 0.11865 0.0
C225 C 0.04317 0.31949 0.12972 0.0
C226 C 0.96036 0.25838 0.107 0.0
C227 C 0.07786 0.36599 0.12644 0.0
C228 C 0.07824 0.40071 0.13603 0.0
C229 C 0.04385 0.3895 0.14903 0.0
C230 C 0.00989 0.34282 0.15262 0.0
C231 C 0.00974 0.3081 0.14311 0.0
H232 H 0.93879 0.24162 0.09508 0.0
H233 H 0.93815 0.24104 0.1189 0.0
H234 H 0.97045 0.29503 0.10686 0.0
H235 H 0.10406 0.37547 0.11618 0.0
H236 H 0.10466 0.43637 0.13292 0.0
H237 H 0.99266 0.11706 0.40856 0.0
H238 H 0.95504 0.13352 0.4324 0.0
H239 H 0.83144 0.99722 0.42778 0.0
H240 H 0.86975 0.9803 0.40434 0.0
H241 H 0.8826 0.13945 0.42595 0.0
H242 H 0.83299 0.01077 0.48016 0.0
H243 H 0.87526 0.02 0.4633 0.0
H244 H 0.81318 0.98236 0.45938 0.0
C245 C 0.95792 0.0903 0.41295 0.0
C246 C 0.9337 0.04771 0.40448 0.0
C247 C 0.93655 0.09961 0.42664 0.0
C248 C 0.89039 0.06666 0.43193 0.0
C249 C 0.86743 0.02289 0.42427 0.0
H250 H 0.66452 0.10173 0.45248 0.0
H251 H 0.72989 0.0968 0.44089 0.0
C252 C 0.88921 0.01329 0.41078 0.0
C253 C 0.86365 0.08047 0.44301 0.0
H254 H 0.78372 0.04345 0.47676 0.0
C255 C 0.86183 0.11896 0.43731 0.0
C256 C 0.83696 0.05431 0.45799 0.0
C257 C 0.84014 0.01489 0.46566 0.0
C258 C 0.83191 0.13024 0.44545 0.0
C259 C 0.80208 0.10156 0.45935 0.0
C260 C 0.80605 0.06491 0.46586 0.0
C261 C 0.76417 0.10694 0.46634 0.0
C262 C 0.8319 0.17227 0.43883 0.0
C263 C 0.76149 0.11356 0.48449 0.0
C264 C 0.72408 0.1161 0.49106 0.0
C265 C 0.68896 0.11179 0.47957 0.0
C266 C 0.69177 0.10564 0.46144 0.0
C267 C 0.72905 0.10301 0.45487 0.0
H268 H 0.86628 0.19825 0.43277 0.0
H269 H 0.80463 0.1619 0.42847 0.0
H270 H 0.82406 0.18865 0.4497 0.0
H271 H 0.78807 0.11634 0.49355 0.0
H272 H 0.72196 0.12046 0.50515 0.0
H273 H 0.95016 0.9838 0.73582 0.0
H274 H 0.90062 0.93041 0.75931 0.0
H275 H 0.94993 0.84015 0.74707 0.0
H276 H 0.00082 0.89438 0.72379 0.0
H277 H 0.82978 0.84568 0.75266 0.0
H278 H 0.94987 0.8349 0.80061 0.0
H279 H 0.97022 0.88056 0.78404 0.0
H280 H 0.9596 0.825 0.77823 0.0
C281 C 0.95117 0.95308 0.73829 0.0
C282 C 0.97903 0.94309 0.72782 0.0
C283 C 0.92291 0.92261 0.75179 0.0
C284 C 0.92167 0.88137 0.755 0.0
C285 C 0.95103 0.87221 0.74509 0.0
H286 H 0.68228 0.62659 0.79433 0.0
H287 H 0.74617 0.68977 0.77674 0.0
C288 C 0.97989 0.9031 0.73172 0.0
C289 C 0.88556 0.84575 0.76712 0.0
H290 H 0.86849 0.77484 0.80269 0.0
C291 C 0.83836 0.83054 0.7637 0.0
C292 C 0.89677 0.82625 0.78159 0.0
C293 C 0.94691 0.84282 0.78646 0.0
C294 C 0.80198 0.79574 0.77411 0.0
C295 C 0.81304 0.7748 0.78806 0.0
C296 C 0.86022 0.79067 0.79181 0.0
C297 C 0.77582 0.73617 0.79879 0.0
C298 C 0.75202 0.78188 0.77015 0.0
C299 C 0.77216 0.74117 0.81701 0.0
C300 C 0.73592 0.70516 0.827 0.0
C301 C 0.70326 0.66378 0.81887 0.0
C302 C 0.70722 0.65849 0.80073 0.0
C303 C 0.74345 0.69444 0.79075 0.0
H304 H 0.75054 0.80907 0.76235 0.0
H305 H 0.73495 0.75003 0.76226 0.0
H306 H 0.73149 0.77468 0.78258 0.0
H307 H 0.7969 0.77312 0.82342 0.0
H308 H 0.73324 0.70955 0.84104 0.0
H309 H 0.20111 0.97312 0.061 0.0
H310 H 0.17876 0.90386 0.07887 0.0
H311 H 0.03971 0.8793 0.08585 0.0
H312 H 0.06151 0.94826 0.0678 0.0
H313 H 0.14611 0.88264 0.11391 0.0
H314 H 0.01506 0.75631 0.06696 0.0
H315 H 0.05721 0.81545 0.06059 0.0
H316 H 0.00572 0.80144 0.07308 0.0
C317 C 0.16575 0.95302 0.06631 0.0
C318 C 0.133 0.96606 0.06289 0.0
C319 C 0.15307 0.91347 0.07653 0.0
C320 C 0.10741 0.88614 0.08343 0.0
C321 C 0.07486 0.89947 0.08033 0.0
H322 H 0.02489 0.67548 0.16656 0.0
H323 H 0.0374 0.74191 0.14852 0.0
C324 C 0.08748 0.93903 0.07011 0.0
C325 C 0.09422 0.84402 0.09405 0.0
H326 H 0.02105 0.72682 0.09493 0.0
C327 C 0.11874 0.84856 0.10979 0.0
C328 C 0.05886 0.79963 0.0885 0.0
C329 C 0.0329 0.79264 0.07128 0.0
C330 C 0.10869 0.80985 0.12022 0.0
C331 C 0.07262 0.76554 0.11487 0.0
C332 C 0.04831 0.76093 0.09906 0.0
C333 C 0.06089 0.72349 0.12525 0.0
C334 C 0.1375 0.81659 0.13664 0.0
C335 C 0.06812 0.69032 0.11787 0.0
C336 C 0.0606 0.65235 0.12809 0.0
C337 C 0.04568 0.64715 0.14576 0.0
C338 C 0.03656 0.6792 0.15293 0.0
C339 C 0.04397 0.7171 0.14271 0.0
H340 H 0.1706 0.85099 0.13658 0.0
H341 H 0.11681 0.81393 0.14852 0.0
H342 H 0.14642 0.78961 0.13789 0.0
H343 H 0.08097 0.69459 0.10439 0.0
H344 H 0.06771 0.62777 0.1224 0.0
H345 H 0.16033 0.16953 0.39733 0.0
H346 H 0.22585 0.16952 0.41162 0.0
H347 H 0.16887 0.02891 0.39611 0.0
H348 H 0.10351 0.02878 0.38145 0.0
H349 H 0.21816 0.11355 0.43932 0.0
H350 H 0.30671 0.08964 0.38246 0.0
H351 H 0.26405 0.10626 0.37963 0.0
H352 H 0.24508 0.04696 0.38413 0.0
C353 C 0.16194 0.13873 0.39674 0.0
C354 C 0.12655 0.0991 0.38827 0.0
C355 C 0.19947 0.13883 0.40492 0.0
C356 C 0.20245 0.09939 0.40479 0.0
C357 C 0.16776 0.06004 0.39606 0.0
H358 H 0.35775 0.0395 0.4819 0.0
H359 H 0.29703 0.03795 0.46323 0.0
C360 C 0.13027 0.05997 0.38777 0.0
C361 C 0.23996 0.0985 0.41494 0.0
H362 H 0.33131 0.08166 0.41134 0.0
C363 C 0.24302 0.10675 0.43319 0.0
C364 C 0.27256 0.09002 0.40686 0.0
C365 C 0.27236 0.08314 0.38716 0.0
C366 C 0.27752 0.10633 0.44365 0.0
C367 C 0.30916 0.09638 0.43571 0.0
C368 C 0.30657 0.08871 0.41741 0.0
C369 C 0.34591 0.09494 0.44617 0.0
C370 C 0.28031 0.11742 0.46306 0.0
C371 C 0.39349 0.12636 0.44232 0.0
C372 C 0.42831 0.12695 0.45282 0.0
C373 C 0.41613 0.09601 0.46733 0.0
C374 C 0.36837 0.06361 0.47078 0.0
C375 C 0.33359 0.06298 0.46024 0.0
H376 H 0.26185 0.13567 0.46598 0.0
H377 H 0.26338 0.08485 0.47105 0.0
H378 H 0.3174 0.13915 0.46738 0.0
H379 H 0.40367 0.15107 0.43142 0.0
H380 H 0.46478 0.15177 0.4496 0.0
H381 H 0.09112 0.15774 0.74335 0.0
H382 H 0.16094 0.214 0.75947 0.0
H383 H 0.24747 0.18755 0.72598 0.0
H384 H 0.17794 0.13147 0.70959 0.0
H385 H 0.22288 0.19555 0.77801 0.0
H386 H 0.31512 0.32924 0.72486 0.0
H387 H 0.25364 0.2848 0.72355 0.0
H388 H 0.29777 0.27153 0.71915 0.0
C389 C 0.12499 0.16411 0.73926 0.0
C390 C 0.12885 0.14004 0.72514 0.0
C391 C 0.16484 0.19625 0.74852 0.0
C392 C 0.20933 0.2052 0.7438 0.0
C393 C 0.21351 0.18168 0.72963 0.0
H394 H 0.48367 0.39102 0.79175 0.0
H395 H 0.42047 0.33174 0.77351 0.0
C396 C 0.17365 0.14949 0.72033 0.0
C397 C 0.25092 0.23767 0.75429 0.0
H398 H 0.35514 0.34106 0.75204 0.0
C399 C 0.25185 0.22734 0.77234 0.0
C400 C 0.28875 0.27887 0.74678 0.0
C401 C 0.28887 0.29215 0.72756 0.0
C402 C 0.28949 0.25735 0.78316 0.0
C403 C 0.32676 0.2991 0.77577 0.0
C404 C 0.32645 0.30896 0.75763 0.0
C405 C 0.36498 0.33414 0.7869 0.0
C406 C 0.28912 0.24408 0.80241 0.0
C407 C 0.35459 0.35523 0.80031 0.0
C408 C 0.39039 0.38883 0.81071 0.0
C409 C 0.43739 0.40224 0.80784 0.0
C410 C 0.44776 0.38108 0.79437 0.0
C411 C 0.4118 0.34746 0.7839 0.0
H412 H 0.2657 0.20629 0.80473 0.0
H413 H 0.32503 0.25493 0.80698 0.0
H414 H 0.27595 0.26153 0.81062 0.0
H415 H 0.31874 0.34591 0.80265 0.0
H416 H 0.38119 0.40407 0.82112 0.0
H417 H 0.02403 0.09503 0.63697 0.0
H418 H 0.99055 0.11675 0.61256 0.0
H419 H 0.91277 0.14478 0.65011 0.0
H420 H 0.94653 0.12417 0.67448 0.0
H421 H 0.89809 0.0677 0.60612 0.0
H422 H 0.95221 0.2492 0.6148 0.0
H423 H 0.98232 0.22425 0.62554 0.0
H424 H 0.92977 0.21702 0.63521 0.0
C425 C 0.00092 0.10718 0.64007 0.0
C426 C 0.98755 0.10732 0.6577 0.0
C427 C 0.98178 0.11953 0.62608 0.0
C428 C 0.94939 0.13268 0.6295 0.0
C429 C 0.93843 0.13572 0.64713 0.0
H430 H 0.69373 0.06464 0.58179 0.0
H431 H 0.76054 0.0706 0.59759 0.0
C432 C 0.9575 0.12344 0.66109 0.0
C433 C 0.92143 0.13617 0.61493 0.0
H434 H 0.87739 0.20085 0.59989 0.0
C435 C 0.89439 0.09727 0.60448 0.0
C436 C 0.91693 0.17489 0.61261 0.0
C437 C 0.9473 0.21885 0.62253 0.0
C438 C 0.86068 0.09481 0.59268 0.0
C439 C 0.85326 0.13187 0.59156 0.0
C440 C 0.88256 0.1721 0.60103 0.0
C441 C 0.81318 0.12813 0.58164 0.0
C442 C 0.83248 0.05205 0.58185 0.0
C443 C 0.82066 0.15918 0.56771 0.0
C444 C 0.78248 0.15586 0.55864 0.0
C445 C 0.73617 0.12162 0.56347 0.0
C446 C 0.72892 0.09085 0.57755 0.0
C447 C 0.76706 0.0942 0.58658 0.0
H448 H 0.8517 0.03407 0.57999 0.0
H449 H 0.7991 0.02782 0.58891 0.0
H450 H 0.82384 0.06048 0.56862 0.0
H451 H 0.85602 0.18573 0.56377 0.0
H452 H 0.78923 0.17976 0.54773 0.0
H453 H 0.01477 0.9469 0.00813 0.0
H454 H 0.95262 0.87924 0.99296 0.0
H455 H 0.92792 0.96729 0.95887 0.0
H456 H 0.99019 0.03514 0.97373 0.0
H457 H 0.85601 0.84708 0.98746 0.0
H458 H 0.9561 0.89327 0.92422 0.0
H459 H 0.98308 0.91989 0.94494 0.0
H460 H 0.94939 0.93825 0.93265 0.0
C461 C 0.99595 0.95194 0.99748 0.0
C462 C 0.00787 0.99656 0.99203 0.0
C463 C 0.96045 0.9132 0.98885 0.0
C464 C 0.93641 0.91843 0.9746 0.0
C465 C 0.94681 0.96267 0.96961 0.0
H466 H 0.7227 0.74653 0.90052 0.0
H467 H 0.78137 0.80824 0.919 0.0
C468 C 0.98229 0.0014 0.97819 0.0
C469 C 0.90117 0.8778 0.96465 0.0
H470 H 0.87618 0.832 0.92335 0.0
C471 C 0.86046 0.84349 0.97348 0.0
C472 C 0.90739 0.87325 0.94645 0.0
C473 C 0.95153 0.90787 0.93651 0.0
C474 C 0.82492 0.8054 0.96438 0.0
C475 C 0.83075 0.80145 0.9461 0.0
C476 C 0.87184 0.83533 0.93737 0.0
C477 C 0.79399 0.76333 0.93554 0.0
C478 C 0.78084 0.77042 0.97423 0.0
C479 C 0.78192 0.71768 0.93869 0.0
C480 C 0.74822 0.68222 0.92817 0.0
C481 C 0.72611 0.69194 0.91434 0.0
C482 C 0.73848 0.73779 0.91125 0.0
C483 C 0.77218 0.77313 0.92172 0.0
H484 H 0.77792 0.78312 0.9873 0.0
H485 H 0.7492 0.76146 0.96628 0.0
H486 H 0.7812 0.73841 0.97655 0.0
H487 H 0.79895 0.7096 0.94914 0.0
H488 H 0.73928 0.64721 0.93091 0.0
H489 H 0.92672 0.9273 0.29814 0.0
H490 H 0.93695 0.8725 0.28149 0.0
H491 H 0.03859 0.88369 0.31974 0.0
H492 H 0.02808 0.93786 0.33663 0.0
H493 H 0.01819 0.88542 0.2661 0.0
H494 H 0.94772 0.74457 0.31711 0.0
H495 H 0.93905 0.79232 0.31825 0.0
H496 H 0.99408 0.79937 0.32487 0.0
C497 C 0.95107 0.91793 0.30307 0.0
C498 C 0.97637 0.93674 0.31877 0.0
C499 C 0.9569 0.88666 0.29353 0.0
C500 C 0.98798 0.87353 0.29953 0.0
C501 C 0.01366 0.89259 0.31509 0.0
H502 H 0.07526 0.69478 0.25758 0.0
H503 H 0.06834 0.75145 0.27449 0.0
C504 C 0.00777 0.92375 0.32467 0.0
C505 C 0.99433 0.84071 0.28927 0.0
H506 H 0.98405 0.73578 0.29191 0.0
C507 C 0.01057 0.85262 0.27171 0.0
C508 C 0.98443 0.79801 0.29666 0.0
C509 C 0.96494 0.78249 0.3152 0.0
C510 C 0.01767 0.82314 0.26137 0.0
C511 C 0.00775 0.78049 0.26876 0.0
C512 C 0.99177 0.76865 0.28634 0.0
C513 C 0.01264 0.74714 0.25831 0.0
C514 C 0.03634 0.83806 0.24271 0.0
C515 C 0.98335 0.72585 0.24374 0.0
C516 C 0.98719 0.69355 0.23409 0.0
C517 C 0.02039 0.68195 0.23886 0.0
C518 C 0.04973 0.70341 0.25348 0.0
C519 C 0.04567 0.73555 0.26319 0.0
H520 H 0.05237 0.87574 0.24047 0.0
H521 H 0.06298 0.82914 0.23976 0.0
H522 H 0.00701 0.81976 0.2332 0.0
H523 H 0.95724 0.73394 0.23992 0.0
H524 H 0.96439 0.67791 0.2228 0.0
H525 H 0.15412 0.95977 0.65912 0.0
H526 H 0.22275 0.97969 0.64101 0.0
H527 H 0.24349 0.11328 0.62892 0.0
H528 H 0.17522 0.09394 0.64718 0.0
H529 H 0.23655 0.00346 0.60509 0.0
H530 H 0.37365 0.14443 0.64587 0.0
H531 H 0.31516 0.104 0.65414 0.0
H532 H 0.32572 0.15128 0.63978 0.0
C533 C 0.17336 0.99348 0.65268 0.0
C534 C 0.15928 0.02533 0.65464 0.0
C535 C 0.21256 0.00479 0.64234 0.0
C536 C 0.23854 0.04817 0.63385 0.0
C537 C 0.22446 0.07996 0.63567 0.0
H538 H 0.43109 0.11678 0.54558 0.0
H539 H 0.36778 0.10574 0.5653 0.0
C540 C 0.18525 0.06871 0.64602 0.0
C541 C 0.27933 0.05941 0.62257 0.0
H542 H 0.39762 0.13407 0.61768 0.0
C543 C 0.27179 0.03197 0.60784 0.0
C544 C 0.32529 0.09629 0.62635 0.0
C545 C 0.33571 0.1255 0.64248 0.0
C546 C 0.30893 0.04075 0.59663 0.0
C547 C 0.35465 0.07848 0.6001 0.0
C548 C 0.36238 0.10554 0.61497 0.0
C549 C 0.39498 0.08952 0.58859 0.0
C550 C 0.29906 0.00906 0.58136 0.0
C551 C 0.43207 0.08591 0.59537 0.0
C552 C 0.46827 0.09258 0.58417 0.0
C553 C 0.46776 0.10304 0.56611 0.0
C554 C 0.43181 0.10859 0.55949 0.0
C555 C 0.39569 0.10202 0.57069 0.0
H556 H 0.26507 0.97579 0.58307 0.0
H557 H 0.2973 0.02594 0.56889 0.0
H558 H 0.32747 0.00177 0.57989 0.0
H559 H 0.43219 0.07648 0.60917 0.0
H560 H 0.49589 0.08824 0.58944 0.0
H561 H 0.14522 0.12517 0.97159 0.0
H562 H 0.1879 0.17084 0.94524 0.0
H563 H 0.31347 0.17852 0.96451 0.0
H564 H 0.27001 0.13099 0.99042 0.0
H565 H 0.25317 0.25524 0.94815 0.0
H566 H 0.33064 0.1713 0.91295 0.0
H567 H 0.28396 0.14045 0.92904 0.0
H568 H 0.34438 0.17401 0.93606 0.0
C569 C 0.18157 0.13553 0.96987 0.0
C570 C 0.20471 0.12524 0.98299 0.0
C571 C 0.20588 0.16143 0.95481 0.0
C572 C 0.25395 0.17817 0.95283 0.0
C573 C 0.2762 0.16516 0.96545 0.0
H574 H 0.47185 0.44618 0.92353 0.0
H575 H 0.40655 0.37456 0.93661 0.0
C576 C 0.2515 0.13829 0.98033 0.0
C577 C 0.28237 0.2155 0.93963 0.0
H578 H 0.3745 0.25573 0.9108 0.0
C579 C 0.2789 0.25476 0.93968 0.0
C580 C 0.31556 0.21494 0.92834 0.0
C581 C 0.31842 0.17261 0.92646 0.0
C582 C 0.30968 0.29442 0.9297 0.0
C583 C 0.34582 0.29539 0.91982 0.0
C584 C 0.34733 0.2552 0.91872 0.0
C585 C 0.38428 0.33873 0.9117 0.0
C586 C 0.30378 0.33526 0.93015 0.0
C587 C 0.39393 0.34184 0.89348 0.0
C588 C 0.43134 0.38257 0.88609 0.0
C589 C 0.45939 0.42042 0.89686 0.0
C590 C 0.44994 0.41737 0.91505 0.0
C591 C 0.41271 0.37669 0.92244 0.0
H592 H 0.26674 0.32419 0.93299 0.0
H593 H 0.32585 0.35845 0.94089 0.0
H594 H 0.31465 0.35512 0.9174 0.0
H595 H 0.37263 0.3128 0.88502 0.0
H596 H 0.43873 0.38448 0.87202 0.0
H597 H 0.98379 0.11391 0.30662 0.0
H598 H 0.99344 0.1674 0.2827 0.0
H599 H 0.13177 0.26692 0.30209 0.0
H600 H 0.12008 0.21459 0.32696 0.0
H601 H 0.08713 0.30542 0.30031 0.0
H602 H 0.05277 0.21818 0.23666 0.0
H603 H 0.00473 0.18214 0.2513 0.0
H604 H 0.06294 0.19473 0.25665 0.0
C605 C 0.01693 0.14653 0.30533 0.0
C606 C 0.05124 0.16035 0.31853 0.0
C607 C 0.02263 0.17712 0.29155 0.0
C608 C 0.06351 0.22138 0.29041 0.0
C609 C 0.09978 0.23316 0.30269 0.0
H610 H 0.07229 0.42013 0.21189 0.0
H611 H 0.08439 0.36269 0.22685 0.0
C612 C 0.09333 0.20322 0.31682 0.0
C613 C 0.06459 0.2577 0.27876 0.0
H614 H 0.03199 0.27705 0.23807 0.0
C615 C 0.07608 0.29938 0.28657 0.0
C616 C 0.05083 0.25067 0.26073 0.0
C617 C 0.0427 0.20916 0.25085 0.0
C618 C 0.07217 0.33304 0.27722 0.0
C619 C 0.05378 0.3239 0.25982 0.0
C620 C 0.04468 0.28346 0.25161 0.0
C621 C 0.04352 0.35586 0.25012 0.0
C622 C 0.08807 0.37812 0.28615 0.0
C623 C 0.01537 0.37003 0.25796 0.0
C624 C 0.00944 0.40353 0.24963 0.0
C625 C 0.02998 0.42199 0.23301 0.0
C626 C 0.05598 0.40604 0.22471 0.0
C627 C 0.06281 0.37329 0.23322 0.0
H628 H 0.1157 0.38594 0.29615 0.0
H629 H 0.10215 0.40732 0.27641 0.0
H630 H 0.05785 0.37558 0.29322 0.0
H631 H -0.00103 0.35607 0.27076 0.0
H632 H 0.98987 0.41588 0.25637 0.0
loop_
_geom_bond_atom_site_label_1
_geom_bond_atom_site_label_2
_geom_bond_distance
_geom_bond_site_symmetry_2
_ccdc_geom_bond_type
Mg0 O1 2.028 . S
Mg0 O7 1.986 . S
Mg0 O9 2.114 . S
Mg0 O10 2.251 . S
Mg0 O13 2.010 . S
O1 Mg0 2.028 . S
O1 C4 1.250 . S
O2 Mg3 2.032 . S
O2 C4 1.259 . S
Mg3 O2 2.032 . S
Mg3 O8 2.032 . S
Mg3 O10 2.079 . S
C4 O1 1.250 . S
C4 O2 1.259 . S
C5 O6 1.264 . S
C5 O13 1.249 . S
O6 C5 1.264 . S
O7 Mg0 1.986 . S
O7 C11 1.246 . S
O8 Mg3 2.032 . S
O8 C11 1.259 . S
O9 Mg0 2.114 . S
O9 C12 1.252 . S
O10 Mg0 2.251 . S
O10 Mg3 2.079 . S
O10 C12 1.273 . S
C11 O7 1.246 . S
C11 O8 1.259 . S
C12 O9 1.252 . S
C12 O10 1.273 . S
O13 Mg0 2.010 . S
O13 C5 1.249 . S
Mg14 O15 2.028 . S
Mg14 O21 1.986 . S
Mg14 O23 2.114 1_455 S
Mg14 O24 2.251 1_455 S
Mg14 O27 2.010 1_455 S
O15 Mg14 2.028 . S
O15 C18 1.250 . S
O16 Mg17 2.028 . S
O16 C18 1.248 . S
Mg17 O16 2.028 . S
Mg17 O22 2.032 . S
Mg17 O24 2.079 1_455 S
C18 O15 1.250 . S
C18 O16 1.248 . S
C19 O20 1.264 . S
C19 O27 1.249 1_565 S
O20 C19 1.264 . S
O21 Mg14 1.986 . S
O21 C25 1.246 . S
O22 Mg17 2.032 . S
O22 C25 1.259 . S
O23 Mg14 2.114 1_655 S
O23 C26 1.252 . S
O24 Mg14 2.251 1_655 S
O24 Mg17 2.079 1_655 S
O24 C26 1.273 . S
C25 O21 1.246 . S
C25 O22 1.259 . S
C26 O23 1.252 . S
C26 O24 1.273 . S
O27 Mg14 2.010 1_655 S
O27 C19 1.249 1_545 S
Mg28 O29 2.028 . S
Mg28 O35 1.986 . S
Mg28 O37 2.114 1_545 S
Mg28 O38 2.251 1_545 S
Mg28 O41 2.010 . S
O29 Mg28 2.028 . S
O29 C32 1.250 . S
O30 Mg31 2.028 1_455 S
O30 C32 1.248 . S
Mg31 O30 2.028 1_655 S
Mg31 O36 2.032 . S
Mg31 O38 2.079 1_645 S
C32 O29 1.250 . S
C32 O30 1.248 . S
C33 O34 1.264 1_545 S
C33 O41 1.249 . S
O34 C33 1.264 1_565 S
O35 Mg28 1.986 . S
O35 C39 1.246 . S
O36 Mg31 2.032 . S
O36 C39 1.259 1_655 S
O37 Mg28 2.114 1_565 S
O37 C40 1.252 . S
O38 Mg28 2.251 1_565 S
O38 Mg31 2.079 1_465 S
O38 C40 1.273 . S
C39 O35 1.246 . S
C39 O36 1.259 1_455 S
C40 O37 1.252 . S
C40 O38 1.273 . S
O41 Mg28 2.010 . S
O41 C33 1.249 . S
C42 C43 1.443 . S
C42 N46 1.376 . S
C42 C80 1.389 . S
C43 C42 1.443 . S
C43 C44 1.340 . S
C43 H83 0.951 . S
C44 C43 1.340 . S
C44 C45 1.439 . S
C44 H84 0.950 . S
C45 C44 1.439 . S
C45 N46 1.374 . S
C45 C79 1.395 . S
N46 C42 1.376 . S
N46 C45 1.374 . S
N46 Co47 2.008 . S
Co47 N46 2.008 . S
Co47 N48 1.995 . S
Co47 N53 2.008 1_455 S
Co47 N58 1.995 . S
Co47 N63 2.282 . S
Co47 N69 2.282 . S
N48 Co47 1.995 . S
N48 C49 1.376 . S
N48 C52 1.383 . S
C49 N48 1.376 . S
C49 C50 1.446 . S
C49 C79 1.391 . S
C50 C49 1.446 . S
C50 C51 1.339 . S
C50 H85 0.949 . S
C51 C50 1.339 . S
C51 C52 1.439 . S
C51 H86 0.950 . S
C52 N48 1.383 . S
C52 C51 1.439 . S
C52 C81 1.392 . S
N53 Co47 2.008 1_655 S
N53 C54 1.377 1_655 S
N53 C57 1.374 . S
C54 N53 1.377 1_455 S
C54 C55 1.444 1_455 S
C54 C81 1.388 . S
C55 C54 1.444 1_655 S
C55 C56 1.340 . S
C55 H87 0.951 . S
C56 C55 1.340 . S
C56 C57 1.439 . S
C56 H88 0.950 . S
C57 N53 1.374 . S
C57 C56 1.439 . S
C57 C82 1.395 . S
N58 Co47 1.995 . S
N58 C59 1.376 1_455 S
N58 C62 1.383 . S
C59 N58 1.376 1_655 S
C59 C60 1.446 . S
C59 C82 1.391 . S
C60 C59 1.446 . S
C60 C61 1.339 . S
C60 H89 0.949 . S
C61 C60 1.339 . S
C61 C62 1.439 1_655 S
C61 H90 0.950 . S
C62 N58 1.383 . S
C62 C61 1.439 1_455 S
C62 C80 1.392 . S
N63 Co47 2.282 . S
N63 C66 1.332 . S
N63 C68 1.332 . S
C64 C65 1.386 . S
C64 C67 1.388 . S
C65 C64 1.386 . S
C65 C66 1.382 . S
C65 H91 0.950 1_455 S
C66 N63 1.332 . S
C66 C65 1.382 . S
C66 H77 0.952 1_455 S
C67 C64 1.388 . S
C67 C68 1.382 . S
C67 H92 0.950 . S
C68 N63 1.332 . S
C68 C67 1.382 . S
C68 H78 0.948 . S
N69 Co47 2.282 . S
N69 C73 1.332 . S
N69 C74 1.332 . S
C70 C71 1.392 . S
C70 C74 1.386 . S
C70 H93 0.942 1_455 S
C71 C70 1.392 . S
C71 C72 1.386 . S
C72 C71 1.386 . S
C72 C73 1.382 . S
C72 H94 0.950 . S
C73 N69 1.332 . S
C73 C72 1.382 . S
C73 H75 0.952 . S
C74 N69 1.332 . S
C74 C70 1.386 . S
C74 H76 0.948 1_455 S
H75 C73 0.952 . S
H76 C74 0.948 1_655 S
H77 C66 0.952 1_655 S
H78 C68 0.948 . S
C79 C45 1.395 . S
C79 C49 1.391 . S
C80 C42 1.389 . S
C80 C62 1.392 . S
C81 C52 1.392 . S
C81 C54 1.388 . S
C82 C57 1.395 . S
C82 C59 1.391 . S
H83 C43 0.951 . S
H84 C44 0.950 . S
H85 C50 0.949 . S
H86 C51 0.950 . S
H87 C55 0.951 . S
H88 C56 0.950 . S
H89 C60 0.949 . S
H90 C61 0.950 . S
H91 C65 0.950 1_655 S
H92 C67 0.950 . S
H93 C70 0.942 1_655 S
H94 C72 0.950 . S
C95 C96 1.443 . S
C95 N99 1.376 . S
C95 C133 1.389 . S
C96 C95 1.443 . S
C96 C97 1.340 1_545 S
C96 H136 0.951 . S
C97 C96 1.340 1_565 S
C97 C98 1.439 . S
C97 H137 0.950 . S
C98 C97 1.439 . S
C98 N99 1.374 1_565 S
C98 C132 1.395 . S
N99 C95 1.376 . S
N99 C98 1.374 1_545 S
N99 Co100 2.008 . S
Co100 N99 2.008 . S
Co100 N101 1.995 . S
Co100 N106 2.008 . S
Co100 N111 1.995 . S
Co100 N116 2.282 . S
Co100 N122 2.282 . S
N101 Co100 1.995 . S
N101 C102 1.376 . S
N101 C105 1.383 . S
C102 N101 1.376 . S
C102 C103 1.446 1_545 S
C102 C132 1.391 1_545 S
C103 C102 1.446 1_565 S
C103 C104 1.339 1_565 S
C103 H138 0.949 . S
C104 C103 1.339 1_545 S
C104 C105 1.439 . S
C104 H139 0.950 . S
C105 N101 1.383 . S
C105 C104 1.439 . S
C105 C134 1.392 . S
N106 Co100 2.008 . S
N106 C107 1.376 . S
N106 C110 1.374 . S
C107 N106 1.376 . S
C107 C108 1.443 . S
C107 C134 1.389 . S
C108 C107 1.443 . S
C108 C109 1.340 . S
C108 H140 0.951 . S
C109 C108 1.340 . S
C109 C110 1.439 . S
C109 H141 0.950 . S
C110 N106 1.374 . S
C110 C109 1.439 . S
C110 C135 1.395 . S
N111 Co100 1.995 . S
N111 C112 1.376 . S
N111 C115 1.383 . S
C112 N111 1.376 . S
C112 C113 1.446 . S
C112 C135 1.391 . S
C113 C112 1.446 . S
C113 C114 1.339 . S
C113 H142 0.949 . S
C114 C113 1.339 . S
C114 C115 1.439 . S
C114 H143 0.950 . S
C115 N111 1.383 . S
C115 C114 1.439 . S
C115 C133 1.392 . S
N116 Co100 2.282 . S
N116 C119 1.332 . S
N116 C121 1.332 . S
C117 C118 1.386 . S
C117 C120 1.388 . S
C118 C117 1.386 . S
C118 C119 1.382 . S
C118 H144 0.950 . S
C119 N116 1.332 . S
C119 C118 1.382 . S
C119 H130 0.952 . S
C120 C117 1.388 . S
C120 C121 1.382 . S
C120 H145 0.950 . S
C121 N116 1.332 . S
C121 C120 1.382 . S
C121 H131 0.948 . S
N122 Co100 2.282 . S
N122 C126 1.332 . S
N122 C127 1.332 . S
C123 C124 1.388 . S
C123 C127 1.382 . S
C123 H146 0.950 . S
C124 C123 1.388 . S
C124 C125 1.386 . S
C125 C124 1.386 . S
C125 C126 1.382 . S
C125 H147 0.950 . S
C126 N122 1.332 . S
C126 C125 1.382 . S
C126 H128 0.952 . S
C127 N122 1.332 . S
C127 C123 1.382 . S
C127 H129 0.948 . S
H128 C126 0.952 . S
H129 C127 0.948 . S
H130 C119 0.952 . S
H131 C121 0.948 . S
C132 C98 1.395 . S
C132 C102 1.391 1_565 S
C133 C95 1.389 . S
C133 C115 1.392 . S
C134 C105 1.392 . S
C134 C107 1.389 . S
C135 C110 1.395 . S
C135 C112 1.391 . S
H136 C96 0.951 . S
H137 C97 0.950 . S
H138 C103 0.949 . S
H139 C104 0.950 . S
H140 C108 0.951 . S
H141 C109 0.950 . S
H142 C113 0.949 . S
H143 C114 0.950 . S
H144 C118 0.950 . S
H145 C120 0.950 . S
H146 C123 0.950 . S
H147 C125 0.950 . S
C148 C149 1.443 . S
C148 N152 1.376 . S
C148 C186 1.389 . S
C149 C148 1.443 . S
C149 C150 1.340 . S
C149 H189 0.951 . S
C150 C149 1.340 . S
C150 C151 1.439 . S
C150 H190 0.950 . S
C151 C150 1.439 . S
C151 N152 1.374 . S
C151 C185 1.395 . S
N152 C148 1.376 . S
N152 C151 1.374 . S
N152 Co153 2.008 . S
Co153 N152 2.008 . S
Co153 N154 1.995 . S
Co153 N159 2.008 . S
Co153 N164 1.995 . S
Co153 N169 2.282 . S
Co153 N175 2.282 . S
N154 Co153 1.995 . S
N154 C155 1.376 . S
N154 C158 1.383 . S
C155 N154 1.376 . S
C155 C156 1.446 . S
C155 C185 1.391 . S
C156 C155 1.446 . S
C156 C157 1.339 . S
C156 H191 0.949 . S
C157 C156 1.339 . S
C157 C158 1.439 . S
C157 H192 0.950 . S
C158 N154 1.383 . S
C158 C157 1.439 . S
C158 C187 1.392 . S
N159 Co153 2.008 . S
N159 C160 1.376 . S
N159 C163 1.374 . S
C160 N159 1.376 . S
C160 C161 1.443 . S
C160 C187 1.389 . S
C161 C160 1.443 . S
C161 C162 1.340 . S
C161 H193 0.951 . S
C162 C161 1.340 . S
C162 C163 1.439 . S
C162 H194 0.950 . S
C163 N159 1.374 . S
C163 C162 1.439 . S
C163 C188 1.395 . S
N164 Co153 1.995 . S
N164 C165 1.376 . S
N164 C168 1.383 . S
C165 N164 1.376 . S
C165 C166 1.446 . S
C165 C188 1.391 . S
C166 C165 1.446 . S
C166 C167 1.339 . S
C166 H195 0.949 . S
C167 C166 1.339 . S
C167 C168 1.439 . S
C167 H196 0.950 . S
C168 N164 1.383 . S
C168 C167 1.439 . S
C168 C186 1.392 . S
N169 Co153 2.282 . S
N169 C172 1.332 . S
N169 C174 1.332 . S
C170 C171 1.386 . S
C170 C173 1.388 . S
C171 C170 1.386 . S
C171 C172 1.382 . S
C171 H197 0.950 . S
C172 N169 1.332 . S
C172 C171 1.382 . S
C172 H183 0.952 . S
C173 C170 1.388 . S
C173 C174 1.382 . S
C173 H198 0.950 . S
C174 N169 1.332 . S
C174 C173 1.382 . S
C174 H184 0.948 . S
N175 Co153 2.282 . S
N175 C179 1.332 . S
N175 C180 1.332 . S
C176 C177 1.388 . S
C176 C180 1.382 . S
C176 H199 0.950 . S
C177 C176 1.388 . S
C177 C178 1.386 . S
C178 C177 1.386 . S
C178 C179 1.382 . S
C178 H200 0.950 . S
C179 N175 1.332 . S
C179 C178 1.382 . S
C179 H181 0.952 . S
C180 N175 1.332 . S
C180 C176 1.382 . S
C180 H182 0.948 . S
H181 C179 0.952 . S
H182 C180 0.948 . S
H183 C172 0.952 . S
H184 C174 0.948 . S
C185 C151 1.395 . S
C185 C155 1.391 . S
C186 C148 1.389 . S
C186 C168 1.392 . S
C187 C158 1.392 . S
C187 C160 1.389 . S
C188 C163 1.395 . S
C188 C165 1.391 . S
H189 C149 0.951 . S
H190 C150 0.950 . S
H191 C156 0.949 . S
H192 C157 0.950 . S
H193 C161 0.951 . S
H194 C162 0.950 . S
H195 C166 0.949 . S
H196 C167 0.950 . S
H197 C171 0.950 . S
H198 C173 0.950 . S
H199 C176 0.950 . S
H200 C178 0.950 . S
H201 C209 0.929 . S
H202 C211 0.930 . S
H203 C213 0.930 . S
H204 C216 0.929 . S
H205 C219 0.930 . S
H206 C221 0.960 . S
H207 C221 0.960 . S
H208 C221 0.960 . S
C209 H201 0.929 . S
C209 C210 1.377 . S
C209 C211 1.384 . S
C210 C209 1.377 . S
C210 C216 1.390 . S
C211 H202 0.930 . S
C211 C209 1.384 . S
C211 C212 1.372 . S
C212 C211 1.372 . S
C212 C213 1.400 . S
C212 C217 1.490 . S
C213 H203 0.930 . S
C213 C212 1.400 . S
C213 C216 1.386 . S
H214 C230 0.930 1_655 S
H215 C231 0.931 1_655 S
C216 H204 0.929 . S
C216 C210 1.390 . S
C216 C213 1.386 . S
C217 C212 1.490 . S
C217 C219 1.395 . S
C217 C220 1.403 . S
H218 C224 0.930 . S
C219 H205 0.930 . S
C219 C217 1.395 . S
C219 C222 1.403 . S
C220 C217 1.403 . S
C220 C221 1.524 . S
C220 C224 1.400 . S
C221 H206 0.960 . S
C221 H207 0.960 . S
C221 H208 0.960 . S
C221 C220 1.524 . S
C222 C219 1.403 . S
C222 C223 1.392 . S
C222 C226 1.495 . S
C223 C222 1.392 . S
C223 C224 1.385 . S
C223 C225 1.478 . S
C224 H218 0.930 . S
C224 C220 1.400 . S
C224 C223 1.385 . S
C225 C223 1.478 . S
C225 C227 1.381 . S
C225 C231 1.383 . S
C226 C222 1.495 . S
C226 H232 0.959 . S
C226 H233 0.961 . S
C226 H234 0.960 . S
C227 C225 1.381 . S
C227 C228 1.394 . S
C227 H235 0.930 . S
C228 C227 1.394 . S
C228 C229 1.383 . S
C228 H236 0.929 . S
C229 C228 1.383 . S
C229 C230 1.377 . S
C230 H214 0.930 1_455 S
C230 C229 1.377 . S
C230 C231 1.379 . S
C231 H215 0.931 1_455 S
C231 C225 1.383 . S
C231 C230 1.379 . S
H232 C226 0.959 . S
H233 C226 0.961 . S
H234 C226 0.960 . S
H235 C227 0.930 . S
H236 C228 0.929 . S
H237 C245 0.929 . S
H238 C247 0.930 . S
H239 C249 0.930 . S
H240 C252 0.929 1_565 S
H241 C255 0.930 . S
H242 C257 0.960 . S
H243 C257 0.960 . S
H244 C257 0.960 . S
C245 H237 0.929 . S
C245 C246 1.377 . S
C245 C247 1.384 . S
C246 C245 1.377 . S
C246 C252 1.390 . S
C247 H238 0.930 . S
C247 C245 1.384 . S
C247 C248 1.372 . S
C248 C247 1.372 . S
C248 C249 1.400 . S
C248 C253 1.490 . S
C249 H239 0.930 . S
C249 C248 1.400 . S
C249 C252 1.386 . S
H250 C266 0.930 . S
H251 C267 0.931 . S
C252 H240 0.929 1_545 S
C252 C246 1.390 . S
C252 C249 1.386 . S
C253 C248 1.490 . S
C253 C255 1.395 . S
C253 C256 1.403 . S
H254 C260 0.930 . S
C255 H241 0.930 . S
C255 C253 1.395 . S
C255 C258 1.403 . S
C256 C253 1.403 . S
C256 C257 1.524 1_545 S
C256 C260 1.400 . S
C257 H242 0.960 . S
C257 H243 0.960 . S
C257 H244 0.960 . S
C257 C256 1.524 1_565 S
C258 C255 1.403 . S
C258 C259 1.392 . S
C258 C262 1.495 . S
C259 C258 1.392 . S
C259 C260 1.385 . S
C259 C261 1.478 . S
C260 H254 0.930 . S
C260 C256 1.400 . S
C260 C259 1.385 . S
C261 C259 1.478 . S
C261 C263 1.381 . S
C261 C267 1.383 . S
C262 C258 1.495 . S
C262 H268 0.959 . S
C262 H269 0.961 . S
C262 H270 0.960 . S
C263 C261 1.381 . S
C263 C264 1.394 . S
C263 H271 0.930 . S
C264 C263 1.394 . S
C264 C265 1.383 . S
C264 H272 0.929 . S
C265 C264 1.383 . S
C265 C266 1.377 . S
C266 H250 0.930 . S
C266 C265 1.377 . S
C266 C267 1.379 . S
C267 H251 0.931 . S
C267 C261 1.383 . S
C267 C266 1.379 . S
H268 C262 0.959 . S
H269 C262 0.961 . S
H270 C262 0.960 . S
H271 C263 0.930 . S
H272 C264 0.929 . S
H273 C281 0.929 . S
H274 C283 0.930 . S
H275 C285 0.930 . S
H276 C288 0.929 . S
H277 C291 0.930 . S
H278 C293 0.960 . S
H279 C293 0.960 . S
H280 C293 0.960 . S
C281 H273 0.929 . S
C281 C282 1.377 . S
C281 C283 1.384 . S
C282 C281 1.377 . S
C282 C288 1.390 . S
C283 H274 0.930 . S
C283 C281 1.384 . S
C283 C284 1.372 . S
C284 C283 1.372 . S
C284 C285 1.400 . S
C284 C289 1.490 . S
C285 H275 0.930 . S
C285 C284 1.400 . S
C285 C288 1.386 . S
H286 C302 0.930 . S
H287 C303 0.931 . S
C288 H276 0.929 . S
C288 C282 1.390 . S
C288 C285 1.386 . S
C289 C284 1.490 . S
C289 C291 1.395 . S
C289 C292 1.403 . S
H290 C296 0.930 . S
C291 H277 0.930 . S
C291 C289 1.395 . S
C291 C294 1.403 . S
C292 C289 1.403 . S
C292 C293 1.524 . S
C292 C296 1.400 . S
C293 H278 0.960 . S
C293 H279 0.960 . S
C293 H280 0.960 . S
C293 C292 1.524 . S
C294 C291 1.403 . S
C294 C295 1.392 . S
C294 C298 1.495 . S
C295 C294 1.392 . S
C295 C296 1.385 . S
C295 C297 1.478 . S
C296 H290 0.930 . S
C296 C292 1.400 . S
C296 C295 1.385 . S
C297 C295 1.478 . S
C297 C299 1.381 . S
C297 C303 1.383 . S
C298 C294 1.495 . S
C298 H304 0.959 . S
C298 H305 0.961 . S
C298 H306 0.960 . S
C299 C297 1.381 . S
C299 C300 1.394 . S
C299 H307 0.930 . S
C300 C299 1.394 . S
C300 C301 1.383 . S
C300 H308 0.929 . S
C301 C300 1.383 . S
C301 C302 1.377 . S
C302 H286 0.930 . S
C302 C301 1.377 . S
C302 C303 1.379 . S
C303 H287 0.931 . S
C303 C297 1.383 . S
C303 C302 1.379 . S
H304 C298 0.959 . S
H305 C298 0.961 . S
H306 C298 0.960 . S
H307 C299 0.930 . S
H308 C300 0.929 . S
H309 C317 0.929 . S
H310 C319 0.930 . S
H311 C321 0.930 . S
H312 C324 0.929 . S
H313 C327 0.930 . S
H314 C329 0.960 . S
H315 C329 0.960 . S
H316 C329 0.960 . S
C317 H309 0.929 . S
C317 C318 1.377 . S
C317 C319 1.384 . S
C318 C317 1.377 . S
C318 C324 1.390 . S
C319 H310 0.930 . S
C319 C317 1.384 . S
C319 C320 1.372 . S
C320 C319 1.372 . S
C320 C321 1.400 . S
C320 C325 1.490 . S
C321 H311 0.930 . S
C321 C320 1.400 . S
C321 C324 1.386 . S
H322 C338 0.930 1_655 S
H323 C339 0.931 . S
C324 H312 0.929 . S
C324 C318 1.390 . S
C324 C321 1.386 . S
C325 C320 1.490 . S
C325 C327 1.395 . S
C325 C328 1.403 . S
H326 C332 0.930 . S
C327 H313 0.930 . S
C327 C325 1.395 . S
C327 C330 1.403 . S
C328 C325 1.403 . S
C328 C329 1.524 . S
C328 C332 1.400 . S
C329 H314 0.960 . S
C329 H315 0.960 . S
C329 H316 0.960 . S
C329 C328 1.524 . S
C330 C327 1.403 . S
C330 C331 1.392 . S
C330 C334 1.495 . S
C331 C330 1.392 . S
C331 C332 1.385 . S
C331 C333 1.478 . S
C332 H326 0.930 . S
C332 C328 1.400 . S
C332 C331 1.385 . S
C333 C331 1.478 . S
C333 C335 1.381 . S
C333 C339 1.383 . S
C334 C330 1.495 . S
C334 H340 0.959 . S
C334 H341 0.961 . S
C334 H342 0.960 . S
C335 C333 1.381 . S
C335 C336 1.394 . S
C335 H343 0.930 . S
C336 C335 1.394 . S
C336 C337 1.383 . S
C336 H344 0.929 . S
C337 C336 1.383 . S
C337 C338 1.377 . S
C338 H322 0.930 1_455 S
C338 C337 1.377 . S
C338 C339 1.379 . S
C339 H323 0.931 . S
C339 C333 1.383 . S
C339 C338 1.379 . S
H340 C334 0.959 . S
H341 C334 0.961 . S
H342 C334 0.960 . S
H343 C335 0.930 . S
H344 C336 0.929 . S
H345 C353 0.929 . S
H346 C355 0.930 . S
H347 C357 0.930 . S
H348 C360 0.929 . S
H349 C363 0.930 . S
H350 C365 0.960 . S
H351 C365 0.960 . S
H352 C365 0.960 . S
C353 H345 0.929 . S
C353 C354 1.377 . S
C353 C355 1.384 . S
C354 C353 1.377 . S
C354 C360 1.390 . S
C355 H346 0.930 . S
C355 C353 1.384 . S
C355 C356 1.372 . S
C356 C355 1.372 . S
C356 C357 1.400 . S
C356 C361 1.490 . S
C357 H347 0.930 . S
C357 C356 1.400 . S
C357 C360 1.386 . S
H358 C374 0.930 . S
H359 C375 0.931 . S
C360 H348 0.929 . S
C360 C354 1.390 . S
C360 C357 1.386 . S
C361 C356 1.490 . S
C361 C363 1.395 . S
C361 C364 1.403 . S
H362 C368 0.930 . S
C363 H349 0.930 . S
C363 C361 1.395 . S
C363 C366 1.403 . S
C364 C361 1.403 . S
C364 C365 1.524 . S
C364 C368 1.400 . S
C365 H350 0.960 . S
C365 H351 0.960 . S
C365 H352 0.960 . S
C365 C364 1.524 . S
C366 C363 1.403 . S
C366 C367 1.392 . S
C366 C370 1.495 . S
C367 C366 1.392 . S
C367 C368 1.385 . S
C367 C369 1.478 . S
C368 H362 0.930 . S
C368 C364 1.400 . S
C368 C367 1.385 . S
C369 C367 1.478 . S
C369 C371 1.381 . S
C369 C375 1.383 . S
C370 C366 1.495 . S
C370 H376 0.959 . S
C370 H377 0.961 . S
C370 H378 0.960 . S
C371 C369 1.381 . S
C371 C372 1.394 . S
C371 H379 0.930 . S
C372 C371 1.394 . S
C372 C373 1.383 . S
C372 H380 0.929 . S
C373 C372 1.383 . S
C373 C374 1.377 . S
C374 H358 0.930 . S
C374 C373 1.377 . S
C374 C375 1.379 . S
C375 H359 0.931 . S
C375 C369 1.383 . S
C375 C374 1.379 . S
H376 C370 0.959 . S
H377 C370 0.961 . S
H378 C370 0.960 . S
H379 C371 0.930 . S
H380 C372 0.929 . S
H381 C389 0.929 . S
H382 C391 0.930 . S
H383 C393 0.930 . S
H384 C396 0.929 . S
H385 C399 0.930 . S
H386 C401 0.960 . S
H387 C401 0.960 . S
H388 C401 0.960 . S
C389 H381 0.929 . S
C389 C390 1.377 . S
C389 C391 1.384 . S
C390 C389 1.377 . S
C390 C396 1.390 . S
C391 H382 0.930 . S
C391 C389 1.384 . S
C391 C392 1.372 . S
C392 C391 1.372 . S
C392 C393 1.400 . S
C392 C397 1.490 . S
C393 H383 0.930 . S
C393 C392 1.400 . S
C393 C396 1.386 . S
H394 C410 0.930 . S
H395 C411 0.931 . S
C396 H384 0.929 . S
C396 C390 1.390 . S
C396 C393 1.386 . S
C397 C392 1.490 . S
C397 C399 1.395 . S
C397 C400 1.403 . S
H398 C404 0.930 . S
C399 H385 0.930 . S
C399 C397 1.395 . S
C399 C402 1.403 . S
C400 C397 1.403 . S
C400 C401 1.524 . S
C400 C404 1.400 . S
C401 H386 0.960 . S
C401 H387 0.960 . S
C401 H388 0.960 . S
C401 C400 1.524 . S
C402 C399 1.403 . S
C402 C403 1.392 . S
C402 C406 1.495 . S
C403 C402 1.392 . S
C403 C404 1.385 . S
C403 C405 1.478 . S
C404 H398 0.930 . S
C404 C400 1.400 . S
C404 C403 1.385 . S
C405 C403 1.478 . S
C405 C407 1.381 . S
C405 C411 1.383 . S
C406 C402 1.495 . S
C406 H412 0.959 . S
C406 H413 0.961 . S
C406 H414 0.960 . S
C407 C405 1.381 . S
C407 C408 1.394 . S
C407 H415 0.930 . S
C408 C407 1.394 . S
C408 C409 1.383 . S
C408 H416 0.929 . S
C409 C408 1.383 . S
C409 C410 1.377 . S
C410 H394 0.930 . S
C410 C409 1.377 . S
C410 C411 1.379 . S
C411 H395 0.931 . S
C411 C405 1.383 . S
C411 C410 1.379 . S
H412 C406 0.959 . S
H413 C406 0.961 . S
H414 C406 0.960 . S
H415 C407 0.930 . S
H416 C408 0.929 . S
H417 C425 0.908 1_455 S
H418 C427 0.930 . S
H419 C429 0.930 . S
H420 C432 0.929 . S
H421 C435 0.930 . S
H422 C437 0.960 . S
H423 C437 0.960 . S
H424 C437 0.960 . S
C425 H417 0.908 1_655 S
C425 C426 1.379 . S
C425 C427 1.404 . S
C426 C425 1.379 . S
C426 C432 1.390 . S
C427 H418 0.930 . S
C427 C425 1.404 . S
C427 C428 1.372 . S
C428 C427 1.372 . S
C428 C429 1.400 . S
C428 C433 1.490 . S
C429 H419 0.930 . S
C429 C428 1.400 . S
C429 C432 1.386 . S
H430 C446 0.930 . S
H431 C447 0.931 . S
C432 H420 0.929 . S
C432 C426 1.390 . S
C432 C429 1.386 . S
C433 C428 1.490 . S
C433 C435 1.395 . S
C433 C436 1.403 . S
H434 C440 0.930 . S
C435 H421 0.930 . S
C435 C433 1.395 . S
C435 C438 1.403 . S
C436 C433 1.403 . S
C436 C437 1.524 . S
C436 C440 1.400 . S
C437 H422 0.960 . S
C437 H423 0.960 . S
C437 H424 0.960 . S
C437 C436 1.524 . S
C438 C435 1.403 . S
C438 C439 1.392 . S
C438 C442 1.495 . S
C439 C438 1.392 . S
C439 C440 1.385 . S
C439 C441 1.478 . S
C440 H434 0.930 . S
C440 C436 1.400 . S
C440 C439 1.385 . S
C441 C439 1.478 . S
C441 C443 1.381 . S
C441 C447 1.383 . S
C442 C438 1.495 . S
C442 H448 0.959 . S
C442 H449 0.961 . S
C442 H450 0.960 . S
C443 C441 1.381 . S
C443 C444 1.394 . S
C443 H451 0.930 . S
C444 C443 1.394 . S
C444 C445 1.383 . S
C444 H452 0.929 . S
C445 C444 1.383 . S
C445 C446 1.377 . S
C446 H430 0.930 . S
C446 C445 1.377 . S
C446 C447 1.379 . S
C447 H431 0.931 . S
C447 C441 1.383 . S
C447 C446 1.379 . S
H448 C442 0.959 . S
H449 C442 0.961 . S
H450 C442 0.960 . S
H451 C443 0.930 . S
H452 C444 0.929 . S
H453 C461 0.929 . S
H454 C463 0.952 . S
H455 C465 0.930 . S
H456 C468 0.929 1_545 S
H457 C471 0.930 . S
H458 C473 0.960 . S
H459 C473 0.960 . S
H460 C473 0.960 . S
C461 H453 0.929 . S
C461 C462 1.358 1_654 S
C461 C463 1.384 1_554 S
C462 C461 1.358 1_456 S
C462 C468 1.453 . S
C463 H454 0.952 . S
C463 C461 1.384 1_556 S
C463 C464 1.372 . S
C464 C463 1.372 . S
C464 C465 1.400 . S
C464 C469 1.490 . S
C465 H455 0.930 . S
C465 C464 1.400 . S
C465 C468 1.386 1_655 S
H466 C482 0.930 . S
H467 C483 0.931 . S
C468 H456 0.929 1_565 S
C468 C462 1.453 . S
C468 C465 1.386 1_455 S
C469 C464 1.490 . S
C469 C471 1.395 . S
C469 C472 1.403 . S
H470 C476 0.930 . S
C471 H457 0.930 . S
C471 C469 1.395 . S
C471 C474 1.403 . S
C472 C469 1.403 . S
C472 C473 1.524 . S
C472 C476 1.400 . S
C473 H458 0.960 . S
C473 H459 0.960 . S
C473 H460 0.960 . S
C473 C472 1.524 . S
C474 C471 1.403 . S
C474 C475 1.392 . S
C474 C478 1.495 . S
C475 C474 1.392 . S
C475 C476 1.385 . S
C475 C477 1.478 . S
C476 H470 0.930 . S
C476 C472 1.400 . S
C476 C475 1.385 . S
C477 C475 1.478 . S
C477 C479 1.381 . S
C477 C483 1.383 . S
C478 C474 1.495 . S
C478 H484 0.959 . S
C478 H485 0.961 . S
C478 H486 0.960 . S
C479 C477 1.381 . S
C479 C480 1.394 . S
C479 H487 0.930 . S
C480 C479 1.394 . S
C480 C481 1.383 . S
C480 H488 0.929 . S
C481 C480 1.383 . S
C481 C482 1.377 . S
C482 H466 0.930 . S
C482 C481 1.377 . S
C482 C483 1.379 . S
C483 H467 0.931 . S
C483 C477 1.383 . S
C483 C482 1.379 . S
H484 C478 0.959 . S
H485 C478 0.961 . S
H486 C478 0.960 . S
H487 C479 0.930 . S
H488 C480 0.929 . S
H489 C497 0.929 . S
H490 C499 0.933 . S
H491 C501 0.930 . S
H492 C504 0.929 . S
H493 C507 0.930 . S
H494 C509 0.960 . S
H495 C509 0.960 . S
H496 C509 0.960 . S
C497 H489 0.929 . S
C497 C498 1.377 1_655 S
C497 C499 1.391 . S
C498 C497 1.377 1_455 S
C498 C504 1.390 . S
C499 H490 0.933 . S
C499 C497 1.391 . S
C499 C500 1.362 1_655 S
C500 C499 1.362 1_455 S
C500 C501 1.400 . S
C500 C505 1.490 . S
C501 H491 0.930 . S
C501 C500 1.400 . S
C501 C504 1.386 . S
H502 C518 0.930 . S
H503 C519 0.931 . S
C504 H492 0.929 . S
C504 C498 1.390 . S
C504 C501 1.386 . S
C505 C500 1.490 . S
C505 C507 1.395 . S
C505 C508 1.403 1_455 S
H506 C512 0.930 . S
C507 H493 0.930 . S
C507 C505 1.395 . S
C507 C510 1.403 . S
C508 C505 1.403 1_655 S
C508 C509 1.524 . S
C508 C512 1.412 . S
C509 H494 0.960 . S
C509 H495 0.960 . S
C509 H496 0.960 . S
C509 C508 1.524 . S
C510 C507 1.403 . S
C510 C511 1.392 . S
C510 C514 1.495 . S
C511 C510 1.392 . S
C511 C512 1.373 1_455 S
C511 C513 1.478 . S
C512 H506 0.930 . S
C512 C508 1.412 . S
C512 C511 1.373 1_655 S
C513 C511 1.478 . S
C513 C515 1.381 . S
C513 C519 1.383 . S
C514 C510 1.495 . S
C514 H520 0.959 . S
C514 H521 0.961 . S
C514 H522 0.960 . S
C515 C513 1.381 . S
C515 C516 1.394 . S
C515 H523 0.930 . S
C516 C515 1.394 . S
C516 C517 1.383 . S
C516 H524 0.929 . S
C517 C516 1.383 . S
C517 C518 1.377 . S
C518 H502 0.930 . S
C518 C517 1.377 . S
C518 C519 1.379 . S
C519 H503 0.931 . S
C519 C513 1.383 . S
C519 C518 1.379 . S
H520 C514 0.959 . S
H521 C514 0.961 . S
H522 C514 0.960 . S
H523 C515 0.930 . S
H524 C516 0.929 . S
H525 C533 0.929 . S
H526 C535 0.930 . S
H527 C537 0.930 . S
H528 C540 0.929 . S
H529 C543 0.930 . S
H530 C545 0.960 . S
H531 C545 0.960 . S
H532 C545 0.960 . S
C533 H525 0.929 . S
C533 C534 1.377 1_565 S
C533 C535 1.384 . S
C534 C533 1.377 1_545 S
C534 C540 1.390 . S
C535 H526 0.930 . S
C535 C533 1.384 . S
C535 C536 1.372 1_565 S
C536 C535 1.372 1_545 S
C536 C537 1.400 . S
C536 C541 1.490 . S
C537 H527 0.930 . S
C537 C536 1.400 . S
C537 C540 1.386 . S
H538 C554 0.930 . S
H539 C555 0.931 . S
C540 H528 0.929 . S
C540 C534 1.390 . S
C540 C537 1.386 . S
C541 C536 1.490 . S
C541 C543 1.395 . S
C541 C544 1.403 . S
H542 C548 0.930 . S
C543 H529 0.930 . S
C543 C541 1.395 . S
C543 C546 1.403 . S
C544 C541 1.403 . S
C544 C545 1.524 . S
C544 C548 1.400 . S
C545 H530 0.960 . S
C545 H531 0.960 . S
C545 H532 0.960 . S
C545 C544 1.524 . S
C546 C543 1.403 . S
C546 C547 1.392 . S
C546 C550 1.495 . S
C547 C546 1.392 . S
C547 C548 1.385 . S
C547 C549 1.478 . S
C548 H542 0.930 . S
C548 C544 1.400 . S
C548 C547 1.385 . S
C549 C547 1.478 . S
C549 C551 1.381 . S
C549 C555 1.383 . S
C550 C546 1.495 . S
C550 H556 0.959 . S
C550 H557 0.961 . S
C550 H558 0.960 . S
C551 C549 1.381 . S
C551 C552 1.394 . S
C551 H559 0.930 . S
C552 C551 1.394 . S
C552 C553 1.383 . S
C552 H560 0.929 . S
C553 C552 1.383 . S
C553 C554 1.377 . S
C554 H538 0.930 . S
C554 C553 1.377 . S
C554 C555 1.379 . S
C555 H539 0.931 . S
C555 C549 1.383 . S
C555 C554 1.379 . S
H556 C550 0.959 . S
H557 C550 0.961 . S
H558 C550 0.960 . S
H559 C551 0.930 . S
H560 C552 0.929 . S
H561 C569 0.929 . S
H562 C571 0.930 . S
H563 C573 0.930 . S
H564 C576 0.929 1_554 S
H565 C579 0.930 . S
H566 C581 0.960 . S
H567 C581 0.960 . S
H568 C581 0.960 . S
C569 H561 0.929 . S
C569 C570 1.377 . S
C569 C571 1.384 . S
C570 C569 1.377 . S
C570 C576 1.390 . S
C571 H562 0.930 . S
C571 C569 1.384 . S
C571 C572 1.372 . S
C572 C571 1.372 . S
C572 C573 1.400 . S
C572 C577 1.490 . S
C573 H563 0.930 . S
C573 C572 1.400 . S
C573 C576 1.386 . S
H574 C590 0.930 . S
H575 C591 0.931 . S
C576 H564 0.929 1_556 S
C576 C570 1.390 . S
C576 C573 1.386 . S
C577 C572 1.490 . S
C577 C579 1.395 . S
C577 C580 1.403 . S
H578 C584 0.930 . S
C579 H565 0.930 . S
C579 C577 1.395 . S
C579 C582 1.403 . S
C580 C577 1.403 . S
C580 C581 1.524 . S
C580 C584 1.400 . S
C581 H566 0.960 . S
C581 H567 0.960 . S
C581 H568 0.960 . S
C581 C580 1.524 . S
C582 C579 1.403 . S
C582 C583 1.392 . S
C582 C586 1.495 . S
C583 C582 1.392 . S
C583 C584 1.385 . S
C583 C585 1.478 . S
C584 H578 0.930 . S
C584 C580 1.400 . S
C584 C583 1.385 . S
C585 C583 1.478 . S
C585 C587 1.381 . S
C585 C591 1.383 . S
C586 C582 1.495 . S
C586 H592 0.959 . S
C586 H593 0.961 . S
C586 H594 0.960 . S
C587 C585 1.381 . S
C587 C588 1.394 . S
C587 H595 0.930 . S
C588 C587 1.394 . S
C588 C589 1.383 . S
C588 H596 0.929 . S
C589 C588 1.383 . S
C589 C590 1.377 . S
C590 H574 0.930 . S
C590 C589 1.377 . S
C590 C591 1.379 . S
C591 H575 0.931 . S
C591 C585 1.383 . S
C591 C590 1.379 . S
H592 C586 0.959 . S
H593 C586 0.961 . S
H594 C586 0.960 . S
H595 C587 0.930 . S
H596 C588 0.929 . S
H597 C605 0.929 1_655 S
H598 C607 0.930 1_655 S
H599 C609 0.930 . S
H600 C612 0.929 . S
H601 C615 0.930 . S
H602 C617 0.960 . S
H603 C617 0.960 . S
H604 C617 0.960 . S
C605 H597 0.929 1_455 S
C605 C606 1.377 . S
C605 C607 1.384 . S
C606 C605 1.377 . S
C606 C612 1.390 . S
C607 H598 0.930 1_455 S
C607 C605 1.384 . S
C607 C608 1.372 . S
C608 C607 1.372 . S
C608 C609 1.400 . S
C608 C613 1.490 . S
C609 H599 0.930 . S
C609 C608 1.400 . S
C609 C612 1.386 . S
H610 C626 0.930 . S
H611 C627 0.931 . S
C612 H600 0.929 . S
C612 C606 1.390 . S
C612 C609 1.386 . S
C613 C608 1.490 . S
C613 C615 1.395 . S
C613 C616 1.403 . S
H614 C620 0.930 . S
C615 H601 0.930 . S
C615 C613 1.395 . S
C615 C618 1.403 . S
C616 C613 1.403 . S
C616 C617 1.524 . S
C616 C620 1.400 . S
C617 H602 0.960 . S
C617 H603 0.960 . S
C617 H604 0.960 . S
C617 C616 1.524 . S
C618 C615 1.403 . S
C618 C619 1.392 . S
C618 C622 1.495 . S
C619 C618 1.392 . S
C619 C620 1.385 . S
C619 C621 1.478 . S
C620 H614 0.930 . S
C620 C616 1.400 . S
C620 C619 1.385 . S
C621 C619 1.478 . S
C621 C623 1.364 1_455 S
C621 C627 1.383 . S
C622 C618 1.495 . S
C622 H628 0.956 1_455 S
C622 H629 0.961 . S
C622 H630 0.960 1_455 S
C623 C621 1.364 1_655 S
C623 C624 1.402 . S
C623 H631 0.940 . S
C624 C623 1.402 . S
C624 C625 1.383 1_655 S
C624 H632 0.929 . S
C625 C624 1.383 1_455 S
C625 C626 1.377 . S
C626 H610 0.930 . S
C626 C625 1.377 . S
C626 C627 1.379 . S
C627 H611 0.931 . S
C627 C621 1.383 . S
C627 C626 1.379 . S
H628 C622 0.956 1_655 S
H629 C622 0.961 . S
H630 C622 0.960 1_655 S
H631 C623 0.940 . S
H632 C624 0.929 . S
C229 C64 1.357 . S
C210 C11 1.343 . S
C246 C26 1.518 . S
C265 C134 1.531 . S
C282 C40 1.382 1_655 S
C301 C186 1.389 . S
C318 C5 1.211 1_565 S
C337 C80 1.358 . S
C373 C124 1.519 . S
C354 C18 1.505 . S
C390 C32 1.371 . S
C409 C170 1.389 . S
C445 C117 1.247 . S
C426 C39 1.238 1_655 S
C462 C4 1.350 1_566 S
C481 C177 1.389 . S
C517 C71 1.359 . S
C498 C19 1.186 1_455 S
C553 C133 1.270 . S
C534 C33 1.132 . S
C589 C187 1.405 . S
C570 C12 1.395 1_556 S
C606 C25 1.342 . S
C625 C81 1.358 . S
