# Generated by pormake.
# Topology ocu, (6,8)-cn, num edge types: 1
# Building blocks:
#     Node 0, Type 0, BuildingBlock: MIFKUJ_clean_sbu_0, # of connection points: 6
#     Node 1, Type 0, BuildingBlock: MIFKUJ_clean_sbu_0, # of connection points: 6
#     Node 2, Type 0, BuildingBlock: MIFKUJ_clean_sbu_0, # of connection points: 6
#     Node 3, Type 0, BuildingBlock: MIFKUJ_clean_sbu_0, # of connection points: 6
#     Node 4, Type 0, BuildingBlock: MIFKUJ_clean_sbu_0, # of connection points: 6
#     Node 5, Type 0, BuildingBlock: MIFKUJ_clean_sbu_0, # of connection points: 6
#     Node 6, Type 0, BuildingBlock: MIFKUJ_clean_sbu_0, # of connection points: 6
#     Node 7, Type 0, BuildingBlock: MIFKUJ_clean_sbu_0, # of connection points: 6
#     Node 8, Type 1, BuildingBlock: VETTIZ_charged_sbu_0, # of connection points: 8
#     Node 9, Type 1, BuildingBlock: VETTIZ_charged_sbu_0, # of connection points: 8
#     Node 10, Type 1, BuildingBlock: VETTIZ_charged_sbu_0, # of connection points: 8
#     Node 11, Type 1, BuildingBlock: VETTIZ_charged_sbu_0, # of connection points: 8
#     Node 12, Type 1, BuildingBlock: VETTIZ_charged_sbu_0, # of connection points: 8
#     Node 13, Type 1, BuildingBlock: VETTIZ_charged_sbu_0, # of connection points: 8
#     Edge 14, Type (0, 1), BuildingBlock: TEMPAE_clean_linker_10, # of connection points: 2
#     Edge 15, Type (0, 1), BuildingBlock: TEMPAE_clean_linker_10, # of connection points: 2
#     Edge 16, Type (0, 1), BuildingBlock: TEMPAE_clean_linker_10, # of connection points: 2
#     Edge 17, Type (0, 1), BuildingBlock: TEMPAE_clean_linker_10, # of connection points: 2
#     Edge 18, Type (0, 1), BuildingBlock: TEMPAE_clean_linker_10, # of connection points: 2
#     Edge 19, Type (0, 1), BuildingBlock: TEMPAE_clean_linker_10, # of connection points: 2
#     Edge 20, Type (0, 1), BuildingBlock: TEMPAE_clean_linker_10, # of connection points: 2
#     Edge 21, Type (0, 1), BuildingBlock: TEMPAE_clean_linker_10, # of connection points: 2
#     Edge 22, Type (0, 1), BuildingBlock: TEMPAE_clean_linker_10, # of connection points: 2
#     Edge 23, Type (0, 1), BuildingBlock: TEMPAE_clean_linker_10, # of connection points: 2
#     Edge 24, Type (0, 1), BuildingBlock: TEMPAE_clean_linker_10, # of connection points: 2
#     Edge 25, Type (0, 1), BuildingBlock: TEMPAE_clean_linker_10, # of connection points: 2
#     Edge 26, Type (0, 1), BuildingBlock: TEMPAE_clean_linker_10, # of connection points: 2
#     Edge 27, Type (0, 1), BuildingBlock: TEMPAE_clean_linker_10, # of connection points: 2
#     Edge 28, Type (0, 1), BuildingBlock: TEMPAE_clean_linker_10, # of connection points: 2
#     Edge 29, Type (0, 1), BuildingBlock: TEMPAE_clean_linker_10, # of connection points: 2
#     Edge 30, Type (0, 1), BuildingBlock: TEMPAE_clean_linker_10, # of connection points: 2
#     Edge 31, Type (0, 1), BuildingBlock: TEMPAE_clean_linker_10, # of connection points: 2
#     Edge 32, Type (0, 1), BuildingBlock: TEMPAE_clean_linker_10, # of connection points: 2
#     Edge 33, Type (0, 1), BuildingBlock: TEMPAE_clean_linker_10, # of connection points: 2
#     Edge 34, Type (0, 1), BuildingBlock: TEMPAE_clean_linker_10, # of connection points: 2
#     Edge 35, Type (0, 1), BuildingBlock: TEMPAE_clean_linker_10, # of connection points: 2
#     Edge 36, Type (0, 1), BuildingBlock: TEMPAE_clean_linker_10, # of connection points: 2
#     Edge 37, Type (0, 1), BuildingBlock: TEMPAE_clean_linker_10, # of connection points: 2
#     Edge 38, Type (0, 1), BuildingBlock: TEMPAE_clean_linker_10, # of connection points: 2
#     Edge 39, Type (0, 1), BuildingBlock: TEMPAE_clean_linker_10, # of connection points: 2
#     Edge 40, Type (0, 1), BuildingBlock: TEMPAE_clean_linker_10, # of connection points: 2
#     Edge 41, Type (0, 1), BuildingBlock: TEMPAE_clean_linker_10, # of connection points: 2
#     Edge 42, Type (0, 1), BuildingBlock: TEMPAE_clean_linker_10, # of connection points: 2
#     Edge 43, Type (0, 1), BuildingBlock: TEMPAE_clean_linker_10, # of connection points: 2
#     Edge 44, Type (0, 1), BuildingBlock: TEMPAE_clean_linker_10, # of connection points: 2
#     Edge 45, Type (0, 1), BuildingBlock: TEMPAE_clean_linker_10, # of connection points: 2
#     Edge 46, Type (0, 1), BuildingBlock: TEMPAE_clean_linker_10, # of connection points: 2
#     Edge 47, Type (0, 1), BuildingBlock: TEMPAE_clean_linker_10, # of connection points: 2
#     Edge 48, Type (0, 1), BuildingBlock: TEMPAE_clean_linker_10, # of connection points: 2
#     Edge 49, Type (0, 1), BuildingBlock: TEMPAE_clean_linker_10, # of connection points: 2
#     Edge 50, Type (0, 1), BuildingBlock: TEMPAE_clean_linker_10, # of connection points: 2
#     Edge 51, Type (0, 1), BuildingBlock: TEMPAE_clean_linker_10, # of connection points: 2
#     Edge 52, Type (0, 1), BuildingBlock: TEMPAE_clean_linker_10, # of connection points: 2
#     Edge 53, Type (0, 1), BuildingBlock: TEMPAE_clean_linker_10, # of connection points: 2
#     Edge 54, Type (0, 1), BuildingBlock: TEMPAE_clean_linker_10, # of connection points: 2
#     Edge 55, Type (0, 1), BuildingBlock: TEMPAE_clean_linker_10, # of connection points: 2
#     Edge 56, Type (0, 1), BuildingBlock: TEMPAE_clean_linker_10, # of connection points: 2
#     Edge 57, Type (0, 1), BuildingBlock: TEMPAE_clean_linker_10, # of connection points: 2
#     Edge 58, Type (0, 1), BuildingBlock: TEMPAE_clean_linker_10, # of connection points: 2
#     Edge 59, Type (0, 1), BuildingBlock: TEMPAE_clean_linker_10, # of connection points: 2
#     Edge 60, Type (0, 1), BuildingBlock: TEMPAE_clean_linker_10, # of connection points: 2
#     Edge 61, Type (0, 1), BuildingBlock: TEMPAE_clean_linker_10, # of connection points: 2
# Relax obj value: 0.053
# Max RMSD: 0.188
# Mean RMSD: 0.107
data_MOF--net-ocu--node1-MIFKUJ_clean_sbu_0--node2-VETTIZ_charged_sbu_0--edge1-TEMPAE_clean_linker_10
_symmetry_space_group_name_H-M    P1
_symmetry_Int_Tables_number       1
_symmetry_cell_setting            triclinic
loop_
_symmetry_equiv_pos_as_xyz
'x, y, z'
_cell_length_a     38.820393
_cell_length_b     40.29056
_cell_length_c     38.363856
_cell_angle_alpha  92.389942
_cell_angle_beta   93.561008
_cell_angle_gamma 97.364151
loop_
_atom_site_label
_atom_site_type_symbol
_atom_site_fract_x
_atom_site_fract_y
_atom_site_fract_z
_atom_type_partial_charge
Zn0 Zn 0.22081 0.26909 0.23352 0.0
Zn1 Zn 0.29178 0.2402 0.26621 0.0
C2 C 0.18385 0.29713 0.2864 0.0
O3 O 0.16311 0.26931 0.27742 0.0
C4 C 0.31658 0.20523 0.20934 0.0
O5 O 0.34011 0.23176 0.21456 0.0
O6 O 0.18075 0.27698 0.20019 0.0
O7 O 0.26443 0.28815 0.20803 0.0
O8 O 0.30967 0.28453 0.24481 0.0
C9 C 0.18066 0.3083 0.19726 0.0
O10 O 0.20682 0.32923 0.21183 0.0
O11 O 0.21353 0.30184 0.27366 0.0
C12 C 0.31953 0.20425 0.31819 0.0
O13 O 0.28905 0.18677 0.30957 0.0
O14 O 0.32897 0.23018 0.30162 0.0
O15 O 0.24844 0.2347 0.29503 0.0
O16 O 0.21 0.22099 0.2512 0.0
O17 O 0.29064 0.20257 0.2283 0.0
C18 C 0.29661 0.29647 0.21751 0.0
C19 C 0.22057 0.21697 0.28266 0.0
Zn20 Zn 0.75201 0.28478 0.21191 0.0
Zn21 Zn 0.74447 0.22465 0.28408 0.0
C22 C 0.69972 0.30239 0.1627 0.0
O23 O 0.71685 0.28417 0.14244 0.0
C24 C 0.80018 0.196 0.31562 0.0
O25 O 0.79779 0.2209 0.33816 0.0
O26 O 0.78706 0.30514 0.18202 0.0
O27 O 0.771 0.30296 0.26044 0.0
O28 O 0.76384 0.27018 0.305 0.0
C29 C 0.81914 0.31101 0.1917 0.0
O30 O 0.83035 0.30265 0.22272 0.0
O31 O 0.7084 0.30494 0.19542 0.0
C32 C 0.70613 0.17104 0.30645 0.0
O33 O 0.71897 0.16028 0.27784 0.0
O34 O 0.7125 0.20189 0.31613 0.0
O35 O 0.71489 0.21977 0.23864 0.0
O36 O 0.74885 0.23568 0.19768 0.0
O37 O 0.78249 0.19428 0.28638 0.0
C38 C 0.77471 0.29817 0.29293 0.0
C39 C 0.72816 0.21319 0.21028 0.0
Zn40 Zn 0.78673 0.72637 0.24002 0.0
Zn41 Zn 0.7135 0.79302 0.25691 0.0
C42 C 0.83753 0.69591 0.27788 0.0
O43 O 0.85628 0.72375 0.27 0.0
C44 C 0.69335 0.82014 0.18851 0.0
O45 O 0.70605 0.79492 0.1734 0.0
O46 O 0.81329 0.72071 0.19751 0.0
O47 O 0.73535 0.71193 0.23127 0.0
O48 O 0.69545 0.74556 0.24115 0.0
C49 C 0.8017 0.70379 0.16966 0.0
O50 O 0.76815 0.69389 0.16434 0.0
O51 O 0.80504 0.69153 0.26938 0.0
C52 C 0.69479 0.83502 0.30976 0.0
O53 O 0.71764 0.8551 0.29407 0.0
O54 O 0.68846 0.80445 0.29896 0.0
O55 O 0.76416 0.80537 0.27222 0.0
O56 O 0.80361 0.77092 0.26434 0.0
O57 O 0.69589 0.82397 0.22166 0.0
C58 C 0.70378 0.71718 0.23186 0.0
C59 C 0.79531 0.79876 0.27536 0.0
Zn60 Zn 0.23712 0.77232 0.27651 0.0
Zn61 Zn 0.29286 0.73391 0.24046 0.0
C62 C 0.1905 0.71584 0.29445 0.0
O63 O 0.16955 0.72947 0.27271 0.0
C64 C 0.3363 0.79086 0.22218 0.0
O65 O 0.35806 0.77567 0.24145 0.0
O66 O 0.20688 0.80605 0.29455 0.0
O67 O 0.28655 0.78834 0.29437 0.0
O68 O 0.30674 0.73942 0.29209 0.0
C69 C 0.20161 0.80733 0.32698 0.0
O70 O 0.21673 0.78749 0.34763 0.0
O71 O 0.22187 0.72944 0.29996 0.0
C72 C 0.32046 0.67267 0.21477 0.0
O73 O 0.29857 0.65629 0.23477 0.0
O74 O 0.32284 0.70444 0.21493 0.0
O75 O 0.24351 0.7149 0.22674 0.0
O76 O 0.22523 0.76422 0.22466 0.0
O77 O 0.30441 0.77838 0.21881 0.0
C78 C 0.30626 0.76819 0.30679 0.0
C79 C 0.22249 0.73366 0.21408 0.0
Zn80 Zn 0.26065 0.78641 0.71875 0.0
Zn81 Zn 0.23635 0.71305 0.78165 0.0
C82 C 0.24205 0.83359 0.6697 0.0
O83 O 0.27288 0.8293 0.65939 0.0
C84 C 0.29157 0.69392 0.82292 0.0
O85 O 0.27241 0.70723 0.84535 0.0
O86 O 0.30879 0.80913 0.71739 0.0
O87 O 0.25237 0.78428 0.77073 0.0
O88 O 0.23767 0.75349 0.81452 0.0
C89 C 0.31187 0.83855 0.73144 0.0
O90 O 0.28567 0.84796 0.7476 0.0
O91 O 0.22995 0.81698 0.69479 0.0
C92 C 0.19804 0.64862 0.77878 0.0
O93 O 0.22298 0.64125 0.75934 0.0
O94 O 0.19891 0.67819 0.79193 0.0
O95 O 0.22296 0.72737 0.73391 0.0
O96 O 0.25344 0.74146 0.69075 0.0
O97 O 0.28221 0.69357 0.7904 0.0
C98 C 0.24691 0.78214 0.80301 0.0
C99 C 0.23432 0.71886 0.70514 0.0
Zn100 Zn 0.28321 0.22322 0.73835 0.0
Zn101 Zn 0.21651 0.27637 0.77187 0.0
C102 C 0.33142 0.19963 0.78583 0.0
O103 O 0.35193 0.21645 0.76486 0.0
C104 C 0.17745 0.31777 0.73629 0.0
O105 O 0.15467 0.29678 0.75102 0.0
O106 O 0.31025 0.20446 0.70103 0.0
O107 O 0.23313 0.20857 0.72428 0.0
O108 O 0.19137 0.23373 0.7468 0.0
C109 C 0.30687 0.17273 0.69677 0.0
O110 O 0.28392 0.15466 0.71434 0.0
O111 O 0.29872 0.20029 0.78153 0.0
C112 C 0.19955 0.3217 0.82246 0.0
O113 O 0.22597 0.33813 0.80799 0.0
O114 O 0.19075 0.29084 0.81336 0.0
O115 O 0.26743 0.27854 0.78874 0.0
O116 O 0.29848 0.27257 0.74358 0.0
O117 O 0.20937 0.31326 0.73886 0.0
C118 C 0.20112 0.21087 0.72721 0.0
C119 C 0.2918 0.28987 0.77007 0.0
Zn120 Zn 0.71581 0.26244 0.78036 0.0
Zn121 Zn 0.78972 0.23966 0.72529 0.0
C122 C 0.65994 0.21177 0.79219 0.0
O123 O 0.64273 0.23107 0.77276 0.0
C124 C 0.82995 0.29698 0.70122 0.0
O125 O 0.84986 0.29031 0.7283 0.0
O126 O 0.69091 0.29837 0.80158 0.0
O127 O 0.76491 0.271 0.80213 0.0
O128 O 0.80829 0.25406 0.77403 0.0
C129 C 0.68749 0.29811 0.83434 0.0
O130 O 0.70054 0.27503 0.85229 0.0
O131 O 0.69269 0.2193 0.79789 0.0
C132 C 0.80632 0.1858 0.68097 0.0
O133 O 0.77668 0.1904 0.66461 0.0
O134 O 0.81708 0.20376 0.70845 0.0
O135 O 0.7392 0.22146 0.71931 0.0
O136 O 0.70731 0.26169 0.72788 0.0
O137 O 0.80086 0.27873 0.69433 0.0
C138 C 0.79685 0.26724 0.80085 0.0
C139 C 0.71772 0.24006 0.70747 0.0
Zn140 Zn 0.73056 0.78968 0.7604 0.0
Zn141 Zn 0.77663 0.7232 0.73651 0.0
C142 C 0.7097 0.85262 0.7864 0.0
O143 O 0.7079 0.85863 0.75298 0.0
C144 C 0.82843 0.68276 0.71646 0.0
O145 O 0.84795 0.70716 0.73483 0.0
O146 O 0.69156 0.79007 0.72366 0.0
O147 O 0.7749 0.80778 0.73555 0.0
O148 O 0.78986 0.76395 0.7062 0.0
C149 C 0.69248 0.78207 0.69139 0.0
O150 O 0.71935 0.76895 0.68041 0.0
O151 O 0.72092 0.8258 0.79589 0.0
C152 C 0.80139 0.7044 0.80217 0.0
O153 O 0.77504 0.68094 0.79415 0.0
O154 O 0.8064 0.72877 0.78225 0.0
O155 O 0.72621 0.70521 0.74837 0.0
O156 O 0.71903 0.74609 0.78626 0.0
O157 O 0.79584 0.68414 0.71168 0.0
C158 C 0.79143 0.79568 0.71125 0.0
C159 C 0.71164 0.71564 0.77494 0.0
Fe160 Fe 0.99933 0.07818 0.47182 0.0
O161 O 0.99967 0.02958 0.47321 0.0
Fe162 Fe 0.04568 0.01236 0.49222 0.0
Fe163 Fe 0.96447 0.99915 0.49738 0.0
O164 O 0.00342 0.03003 0.47212 0.0
O165 O 0.01054 0.98203 0.51665 0.0
O166 O 0.00673 0.98174 0.51801 0.0
Fe167 Fe 0.01009 0.93338 0.51846 0.0
C168 C 0.95939 0.06303 0.5374 0.0
O169 O 0.95633 0.06243 0.43866 0.0
O170 O 0.92507 0.02203 0.46987 0.0
O171 O 0.04211 0.93078 0.47777 0.0
O172 O 0.04445 0.97877 0.45011 0.0
O173 O 0.07712 0.04802 0.46288 0.0
O174 O 0.0369 0.07774 0.43609 0.0
O175 O 0.9617 0.96578 0.45539 0.0
O176 O 0.96765 0.91942 0.48318 0.0
C177 C 0.06809 0.06955 0.44028 0.0
O178 O 0.05522 0.94827 0.54962 0.0
O179 O 0.08503 0.98894 0.51767 0.0
O180 O 0.96496 0.07961 0.51035 0.0
O181 O 0.96558 0.03289 0.53928 0.0
C182 C 0.92816 0.04295 0.4446 0.0
C183 C 0.95759 0.93413 0.4564 0.0
C184 C 0.94284 0.94379 0.5518 0.0
O185 O 0.93322 0.96355 0.52747 0.0
O186 O 0.97409 0.93552 0.55583 0.0
C187 C 0.04887 0.94805 0.4514 0.0
O188 O 0.04912 0.04545 0.53477 0.0
O189 O 0.03988 0.09244 0.50925 0.0
C190 C 0.08323 0.96701 0.54181 0.0
C191 C 0.05085 0.07715 0.53526 0.0
Fe192 Fe 0.48029 0.92761 0.97342 0.0
O193 O 0.48539 0.97657 0.97762 0.0
Fe194 Fe 0.4469 0.99972 0.00204 0.0
Fe195 Fe 0.52777 0.00496 0.99957 0.0
O196 O 0.48179 0.97661 0.97731 0.0
O197 O 0.48927 0.02708 0.0254 0.0
O198 O 0.49306 0.02716 0.02553 0.0
Fe199 Fe 0.49399 0.07605 0.02987 0.0
C200 C 0.53465 0.94185 0.03644 0.0
O201 O 0.51844 0.93705 0.93859 0.0
O202 O 0.55834 0.97741 0.96835 0.0
O203 O 0.45244 0.07986 0.99501 0.0
O204 O 0.44461 0.03245 0.96218 0.0
O205 O 0.4071 0.9671 0.97275 0.0
O206 O 0.43751 0.93233 0.94046 0.0
O207 O 0.5252 0.03698 0.95955 0.0
O208 O 0.52698 0.08544 0.99016 0.0
C209 C 0.40951 0.94544 0.94688 0.0
O210 O 0.4572 0.06549 0.06561 0.0
O211 O 0.41624 0.02809 0.03294 0.0
O212 O 0.52053 0.9235 0.01024 0.0
O213 O 0.53281 0.97312 0.03944 0.0
C214 C 0.54932 0.95402 0.94363 0.0
C215 C 0.53153 0.06876 0.96224 0.0
C216 C 0.56626 0.06081 0.05209 0.0
O217 O 0.56783 0.03843 0.02681 0.0
O218 O 0.53809 0.07221 0.061 0.0
C219 C 0.44169 0.06344 0.96656 0.0
O220 O 0.44715 0.9674 0.04196 0.0
O221 O 0.44561 0.91881 0.01173 0.0
C222 C 0.42594 0.04963 0.05935 0.0
C223 C 0.4407 0.93565 0.03941 0.0
Fe224 Fe 0.00802 0.55413 0.99358 0.0
O225 O 0.9772 0.51353 0.97384 0.0
Fe226 Fe 0.08161 0.52164 0.02748 0.0
Fe227 Fe 0.9266 0.50953 0.96882 0.0
O228 O 0.03078 0.52202 0.02285 0.0
O229 O 0.03101 0.51884 0.02235 0.0
O230 O 0.97764 0.51041 0.97296 0.0
Fe231 Fe 1.00082 0.47829 0.00163 0.0
C232 C 0.9431 0.56372 0.02901 0.0
O233 O 0.98013 0.58279 0.96044 0.0
O234 O 0.93663 0.54501 0.93191 0.0
O235 O 0.03413 0.47111 0.963 0.0
O236 O 0.08372 0.47917 0.99632 0.0
O237 O 0.09092 0.55002 0.98499 0.0
O238 O 0.03982 0.54656 0.95447 0.0
O239 O 0.93073 0.46694 0.93876 0.0
O240 O 0.96571 0.43951 0.97571 0.0
C241 C 0.07271 0.54796 0.95608 0.0
O242 O 0.02842 0.44985 0.0357 0.0
O243 O 0.0703 0.48847 0.06578 0.0
O244 O 0.97572 0.5626 0.03238 0.0
O245 O 0.92352 0.54928 0.00349 0.0
C246 C 0.95512 0.57436 0.93625 0.0
C247 C 0.94372 0.44037 0.94869 0.0
C248 C 0.93594 0.4747 0.037 0.0
O249 O 0.91772 0.47743 0.00881 0.0
O250 O 0.96832 0.48407 0.0402 0.0
C251 C 0.06548 0.46593 0.96941 0.0
O252 O 0.07936 0.56628 0.05487 0.0
O253 O 0.04374 0.59296 0.01778 0.0
C254 C 0.05229 0.45889 0.06097 0.0
C255 C 0.06656 0.59255 0.04401 0.0
Fe256 Fe 0.50436 0.50917 0.95511 0.0
O257 O 0.52941 0.53099 0.99881 0.0
Fe258 Fe 0.42396 0.47655 0.98547 0.0
Fe259 Fe 0.58046 0.53597 0.00694 0.0
O260 O 0.47502 0.48336 0.98898 0.0
O261 O 0.47496 0.48225 0.99273 0.0
O262 O 0.52935 0.52986 0.00264 0.0
Fe263 Fe 0.50017 0.50382 0.03639 0.0
C264 C 0.56881 0.47528 0.95492 0.0
O265 O 0.5402 0.54018 0.92537 0.0
O266 O 0.57804 0.56975 0.96772 0.0
O267 O 0.46843 0.54067 0.03741 0.0
O268 O 0.4167 0.51019 0.02604 0.0
O269 O 0.4204 0.51394 0.95076 0.0
O270 O 0.47193 0.54601 0.95252 0.0
O271 O 0.57135 0.56621 0.04886 0.0
O272 O 0.53075 0.53197 0.07743 0.0
C273 C 0.4392 0.54114 0.94461 0.0
O274 O 0.46499 0.47255 0.0661 0.0
O275 O 0.42757 0.44201 0.02399 0.0
O276 O 0.53584 0.47196 0.95508 0.0
O277 O 0.58784 0.50163 0.96756 0.0
C278 C 0.56564 0.56409 0.93542 0.0
C279 C 0.55356 0.55858 0.07572 0.0
C280 C 0.56483 0.47118 0.04641 0.0
O281 O 0.58351 0.49902 0.04253 0.0
O282 O 0.53229 0.46676 0.03784 0.0
C283 C 0.43574 0.53603 0.04006 0.0
O284 O 0.43262 0.44696 0.94248 0.0
O285 O 0.47365 0.48119 0.91417 0.0
C286 C 0.44066 0.44768 0.05607 0.0
C287 C 0.44998 0.45523 0.9155 0.0
Fe288 Fe 0.02994 0.42814 0.49316 0.0
O289 O 0.03346 0.47725 0.49769 0.0
Fe290 Fe 0.0123 0.50096 0.45497 0.0
Fe291 Fe 0.01407 0.50196 0.5368 0.0
O292 O 0.03346 0.47719 0.49386 0.0
O293 O 0.99341 0.52594 0.49414 0.0
O294 O 0.99345 0.52604 0.49786 0.0
Fe295 Fe 0.99637 0.57491 0.49765 0.0
C296 C 0.96794 0.43657 0.53776 0.0
O297 O 0.06452 0.43639 0.53624 0.0
O298 O 0.03941 0.47273 0.57216 0.0
O299 O 0.0328 0.58229 0.46113 0.0
O300 O 0.05659 0.53505 0.45601 0.0
O301 O 0.03686 0.47113 0.41922 0.0
O302 O 0.0645 0.43678 0.45535 0.0
O303 O 0.0588 0.53604 0.54175 0.0
O304 O 0.03595 0.58372 0.53676 0.0
C305 C 0.06021 0.45108 0.42599 0.0
O306 O 0.96032 0.56521 0.45587 0.0
O307 O 0.98584 0.52953 0.4196 0.0
O308 O 0.99203 0.42026 0.52823 0.0
O309 O 0.96943 0.46803 0.5347 0.0
C310 C 0.06064 0.45072 0.56643 0.0
C311 C 0.06062 0.56765 0.547 0.0
C312 C 0.96817 0.5535 0.56656 0.0
O313 O 0.98964 0.53155 0.57249 0.0
O314 O 0.96328 0.56732 0.53702 0.0
C315 C 0.05731 0.56631 0.45212 0.0
O316 O 0.96769 0.46707 0.45154 0.0
O317 O 0.99175 0.42005 0.45246 0.0
C318 C 0.96307 0.54992 0.42587 0.0
C319 C 0.96632 0.43588 0.44424 0.0
Fe320 Fe 0.50183 0.96276 0.5206 0.0
O321 O 0.53372 1.00337 0.5387 0.0
Fe322 Fe 0.46914 0.98561 0.44025 0.0
Fe323 Fe 0.54527 0.0147 0.58848 0.0
O324 O 0.47928 0.99424 0.49076 0.0
O325 O 0.47977 0.99724 0.49027 0.0
O326 O 0.53409 0.00623 0.53831 0.0
Fe327 Fe 0.51204 0.03772 0.50821 0.0
C328 C 0.4749 0.97279 0.59096 0.0
O329 O 0.53024 0.93485 0.55385 0.0
O330 O 0.57199 0.97363 0.58355 0.0
O331 O 0.5462 0.02962 0.47176 0.0
O332 O 0.50972 0.0183 0.42449 0.0
O333 O 0.4999 0.94759 0.43616 0.0
O334 O 0.53614 0.95467 0.48385 0.0
O335 O 0.5818 0.05075 0.57119 0.0
O336 O 0.5491 0.07671 0.53093 0.0
C337 C 0.52861 0.94382 0.45244 0.0
O338 O 0.4844 0.06582 0.47404 0.0
O339 O 0.44307 0.02685 0.44391 0.0
O340 O 0.46773 0.96975 0.55809 0.0
O341 O 0.50568 0.98155 0.60431 0.0
C342 C 0.55948 0.94316 0.5726 0.0
C343 C 0.57651 0.07576 0.55216 0.0
C344 C 0.48509 0.05667 0.57638 0.0
O345 O 0.51339 0.05221 0.59332 0.0
O346 O 0.47808 0.04642 0.54471 0.0
C347 C 0.54005 0.02751 0.43887 0.0
O348 O 0.43216 0.94986 0.45739 0.0
O349 O 0.46521 0.92373 0.49729 0.0
C350 C 0.45616 0.05738 0.45374 0.0
C351 C 0.43793 0.92452 0.47582 0.0
C352 C 0.17049 0.17145 0.2923 0.0
C353 C 0.20041 0.1928 0.30549 0.0
C354 C 0.15137 0.14916 0.31392 0.0
C355 C 0.16198 0.148 0.34997 0.0
C356 C 0.19251 0.16908 0.36324 0.0
C357 C 0.2112 0.19095 0.34104 0.0
C358 C 0.11927 0.12723 0.29826 0.0
C359 C 0.20495 0.16935 0.40132 0.0
C360 C 0.09034 0.12241 0.4119 0.0
C361 C 0.09459 0.08912 0.41921 0.0
C362 C 0.11222 0.14159 0.39017 0.0
C363 C 0.13936 0.12744 0.37437 0.0
C364 C 0.14437 0.09398 0.382 0.0
C365 C 0.12221 0.07535 0.40451 0.0
C366 C 0.10593 0.17715 0.38384 0.0
C367 C 0.17267 0.07758 0.36569 0.0
H368 H 0.16179 0.17228 0.265 0.0
H369 H 0.2342 0.20709 0.35185 0.0
H370 H 0.12053 0.10074 0.30446 0.0
H371 H 0.09586 0.13491 0.30985 0.0
H372 H 0.11601 0.12875 0.26942 0.0
H373 H 0.23054 0.18499 0.40711 0.0
H374 H 0.18562 0.17927 0.41768 0.0
H375 H 0.20723 0.14349 0.40917 0.0
H376 H 0.06949 0.13371 0.42331 0.0
H377 H 0.12579 0.04972 0.40964 0.0
H378 H 0.09923 0.17971 0.35563 0.0
H379 H 0.12997 0.19468 0.39121 0.0
H380 H 0.08453 0.18495 0.39891 0.0
H381 H 0.16813 0.07635 0.3368 0.0
H382 H 0.17383 0.05182 0.37455 0.0
H383 H 0.19832 0.09281 0.37224 0.0
C384 C 0.79921 0.13429 0.32158 0.0
C385 C 0.81639 0.16701 0.32798 0.0
C386 C 0.81111 0.10716 0.33856 0.0
C387 C 0.84139 0.11288 0.36171 0.0
C388 C 0.85944 0.14579 0.36717 0.0
C389 C 0.84639 0.17246 0.35069 0.0
C390 C 0.79048 0.07277 0.33287 0.0
C391 C 0.89231 0.15301 0.39095 0.0
C392 C 0.86944 0.06114 0.43596 0.0
C393 C 0.8976 0.04823 0.42175 0.0
C394 C 0.84791 0.07936 0.41536 0.0
C395 C 0.85515 0.08487 0.38009 0.0
C396 C 0.88085 0.06824 0.36475 0.0
C397 C 0.90169 0.05004 0.3858 0.0
C398 C 0.82 0.09575 0.43244 0.0
C399 C 0.88945 0.07311 0.32732 0.0
H400 H 0.77545 0.13014 0.30473 0.0
H401 H 0.85942 0.1978 0.35591 0.0
H402 H 0.80772 0.0539 0.32605 0.0
H403 H 0.7787 0.06534 0.35747 0.0
H404 H 0.76927 0.07195 0.31189 0.0
H405 H 0.90394 0.17971 0.39123 0.0
H406 H 0.88661 0.14676 0.41806 0.0
H407 H 0.91192 0.13716 0.38245 0.0
H408 H 0.86643 0.06002 0.46382 0.0
H409 H 0.92356 0.04003 0.37485 0.0
H410 H 0.79637 0.09469 0.4144 0.0
H411 H 0.82969 0.12254 0.439 0.0
H412 H 0.81275 0.08369 0.45694 0.0
H413 H 0.86542 0.07174 0.30982 0.0
H414 H 0.9055 0.05415 0.31773 0.0
H415 H 0.90429 0.09836 0.32546 0.0
C416 C 0.85716 0.81814 0.29672 0.0
C417 C 0.82178 0.82225 0.29645 0.0
C418 C 0.8819 0.83741 0.32003 0.0
C419 C 0.87086 0.86098 0.34387 0.0
C420 C 0.83546 0.86621 0.34274 0.0
C421 C 0.81139 0.84694 0.31888 0.0
C422 C 0.91957 0.83163 0.32007 0.0
C423 C 0.82264 0.89096 0.36794 0.0
C424 C 0.92163 0.8818 0.43127 0.0
C425 C 0.93788 0.91428 0.42673 0.0
C426 C 0.90033 0.86386 0.40416 0.0
C427 C 0.89571 0.87859 0.37161 0.0
C428 C 0.91324 0.9108 0.36638 0.0
C429 C 0.93393 0.9284 0.39412 0.0
C430 C 0.88171 0.82967 0.41082 0.0
C431 C 0.90943 0.92703 0.33182 0.0
H432 H 0.86545 0.79929 0.27929 0.0
H433 H 0.78414 0.8502 0.31901 0.0
H434 H 0.93667 0.85583 0.31927 0.0
H435 H 0.92716 0.81995 0.34459 0.0
H436 H 0.92446 0.81501 0.29757 0.0
H437 H 0.79463 0.89328 0.36243 0.0
H438 H 0.82641 0.88288 0.39507 0.0
H439 H 0.83791 0.91606 0.36676 0.0
H440 H 0.92452 0.87081 0.45643 0.0
H441 H 0.94677 0.95339 0.39035 0.0
H442 H 0.88768 0.81085 0.39092 0.0
H443 H 0.85315 0.83019 0.40848 0.0
H444 H 0.88903 0.82132 0.43718 0.0
H445 H 0.91502 0.90981 0.31016 0.0
H446 H 0.92706 0.95097 0.33113 0.0
H447 H 0.88221 0.9322 0.32686 0.0
C448 C 0.17142 0.82976 0.37692 0.0
C449 C 0.1782 0.83015 0.34142 0.0
C450 C 0.14919 0.8508 0.39121 0.0
C451 C 0.1332 0.87286 0.36952 0.0
C452 C 0.13987 0.87342 0.33366 0.0
C453 C 0.16229 0.85206 0.32002 0.0
C454 C 0.14282 0.84938 0.42962 0.0
C455 C 0.12322 0.8965 0.30972 0.0
C456 C 0.05358 0.90173 0.40788 0.0
C457 C 0.06759 0.93269 0.4241 0.0
C458 C 0.07398 0.88309 0.38764 0.0
C459 C 0.10957 0.8952 0.38477 0.0
C460 C 0.12334 0.92724 0.39992 0.0
C461 C 0.10199 0.9458 0.41909 0.0
C462 C 0.05797 0.84953 0.3712 0.0
C463 C 0.16126 0.94079 0.39824 0.0
H464 H 0.18343 0.81289 0.3937 0.0
H465 H 0.16732 0.85253 0.29256 0.0
H466 H 0.15003 0.87456 0.44281 0.0
H467 H 0.11474 0.84182 0.43281 0.0
H468 H 0.15787 0.83141 0.4431 0.0
H469 H 0.13082 0.89377 0.2824 0.0
H470 H 0.09445 0.89126 0.30972 0.0
H471 H 0.1308 0.92292 0.31938 0.0
H472 H 0.02699 0.89157 0.41208 0.0
H473 H 0.11294 0.96947 0.43232 0.0
H474 H 0.06799 0.82923 0.38589 0.0
H475 H 0.06528 0.84669 0.34383 0.0
H476 H 0.02911 0.84612 0.37129 0.0
H477 H 0.17744 0.92588 0.41468 0.0
H478 H 0.16692 0.96749 0.40773 0.0
H479 H 0.16929 0.93845 0.3711 0.0
C480 C 0.23989 0.88563 0.63717 0.0
C481 C 0.22222 0.85788 0.65238 0.0
C482 C 0.22156 0.90846 0.61953 0.0
C483 C 0.18475 0.90281 0.61621 0.0
C484 C 0.16682 0.87493 0.63183 0.0
C485 C 0.18581 0.85306 0.65018 0.0
C486 C 0.24157 0.93837 0.60416 0.0
C487 C 0.12757 0.86765 0.62832 0.0
C488 C 0.12507 0.96726 0.59339 0.0
C489 C 0.11564 0.95816 0.5582 0.0
C490 C 0.15003 0.95135 0.61204 0.0
C491 C 0.16468 0.92499 0.59525 0.0
C492 C 0.15661 0.91721 0.55906 0.0
C493 C 0.13232 0.93417 0.54088 0.0
C494 C 0.15878 0.96111 0.65027 0.0
C495 C 0.17109 0.88895 0.54023 0.0
H496 H 0.26812 0.88962 0.63927 0.0
H497 H 0.17217 0.83154 0.66183 0.0
H498 H 0.2376 0.93629 0.57523 0.0
H499 H 0.23174 0.96174 0.61312 0.0
H500 H 0.26996 0.94061 0.61148 0.0
H501 H 0.11767 0.84483 0.6418 0.0
H502 H 0.11595 0.88917 0.63942 0.0
H503 H 0.11841 0.86419 0.60027 0.0
H504 H 0.11164 0.98554 0.60673 0.0
H505 H 0.12429 0.9268 0.51376 0.0
H506 H 0.18723 0.96265 0.65673 0.0
H507 H 0.14567 0.9417 0.6664 0.0
H508 H 0.15019 0.98555 0.65768 0.0
H509 H 0.19968 0.89093 0.5457 0.0
H510 H 0.1653 0.88856 0.51148 0.0
H511 H 0.15951 0.86468 0.54984 0.0
C512 C 0.13953 0.19115 0.70353 0.0
C513 C 0.17518 0.18807 0.70443 0.0
C514 C 0.1158 0.17231 0.67872 0.0
C515 C 0.12815 0.15029 0.65405 0.0
C516 C 0.16383 0.14615 0.65575 0.0
C517 C 0.18677 0.16484 0.68101 0.0
C518 C 0.07777 0.1768 0.67814 0.0
C519 C 0.17818 0.1231 0.62983 0.0
C520 C 0.07093 0.08185 0.59874 0.0
C521 C 0.06789 0.09685 0.56652 0.0
C522 C 0.08876 0.0996 0.62813 0.0
C523 C 0.10453 0.13292 0.62502 0.0
C524 C 0.10064 0.14852 0.59284 0.0
C525 C 0.08207 0.1304 0.56407 0.0
C526 C 0.09176 0.0823 0.66213 0.0
C527 C 0.11754 0.18383 0.58828 0.0
H528 H 0.13026 0.20892 0.72153 0.0
H529 H 0.21419 0.16203 0.68145 0.0
H530 H 0.0704 0.18953 0.65424 0.0
H531 H 0.06137 0.15206 0.67723 0.0
H532 H 0.07174 0.19194 0.70131 0.0
H533 H 0.2064 0.1219 0.63547 0.0
H534 H 0.16404 0.09739 0.63002 0.0
H535 H 0.17425 0.13192 0.60303 0.0
H536 H 0.0596 0.05605 0.60095 0.0
H537 H 0.07983 0.14214 0.53926 0.0
H538 H 0.08523 0.09861 0.68413 0.0
H539 H 0.119 0.07739 0.66761 0.0
H540 H 0.07444 0.05806 0.66149 0.0
H541 H 0.11005 0.20117 0.60885 0.0
H542 H 0.11029 0.19304 0.56228 0.0
H543 H 0.14628 0.18477 0.59117 0.0
C544 C 0.8175 0.14442 0.63402 0.0
C545 C 0.82842 0.16236 0.66573 0.0
C546 C 0.83969 0.12509 0.61716 0.0
C547 C 0.87359 0.12358 0.63243 0.0
C548 C 0.88406 0.14007 0.66538 0.0
C549 C 0.86135 0.15934 0.68164 0.0
C550 C 0.82755 0.10788 0.58199 0.0
C551 C 0.9199 0.13888 0.68258 0.0
C552 C 0.92339 0.05922 0.5897 0.0
C553 C 0.9415 0.07867 0.56552 0.0
C554 C 0.90223 0.0737 0.61292 0.0
C555 C 0.89924 0.10833 0.6118 0.0
C556 C 0.91901 0.12833 0.58881 0.0
C557 C 0.93992 0.11328 0.56608 0.0
C558 C 0.88183 0.0517 0.6374 0.0
C559 C 0.91676 0.16539 0.58689 0.0
H560 H 0.792 0.14637 0.62168 0.0
H561 H 0.86991 0.17292 0.70628 0.0
H562 H 0.84269 0.12016 0.56137 0.0
H563 H 0.83221 0.08128 0.58158 0.0
H564 H 0.79945 0.10884 0.5753 0.0
H565 H 0.92232 0.14908 0.71011 0.0
H566 H 0.92619 0.11278 0.68211 0.0
H567 H 0.93959 0.15383 0.66784 0.0
H568 H 0.92452 0.03246 0.58949 0.0
H569 H 0.95424 0.12861 0.54786 0.0
H570 H 0.85375 0.04888 0.62879 0.0
H571 H 0.88475 0.06341 0.66429 0.0
H572 H 0.8902 0.02637 0.63813 0.0
H573 H 0.89005 0.16919 0.57729 0.0
H574 H 0.93547 0.17773 0.56916 0.0
H575 H 0.92194 0.17807 0.61326 0.0
C576 C 0.81218 0.85407 0.69092 0.0
C577 C 0.81176 0.81904 0.68748 0.0
C578 C 0.83089 0.87612 0.66871 0.0
C579 C 0.85003 0.8633 0.64195 0.0
C580 C 0.84939 0.82796 0.63809 0.0
C581 C 0.83046 0.80649 0.66064 0.0
C582 C 0.83056 0.91337 0.67425 0.0
C583 C 0.8692 0.81272 0.61027 0.0
C584 C 0.88167 0.91762 0.5658 0.0
C585 C 0.91711 0.92727 0.57604 0.0
C586 C 0.85941 0.89745 0.58702 0.0
C587 C 0.87251 0.8867 0.61963 0.0
C588 C 0.90788 0.89758 0.63055 0.0
C589 C 0.92946 0.91734 0.60884 0.0
C590 C 0.82207 0.88664 0.57394 0.0
C591 C 0.92341 0.88752 0.66497 0.0
H592 H 0.79785 0.86444 0.71118 0.0
H593 H 0.8305 0.77966 0.65726 0.0
H594 H 0.85733 0.92582 0.68168 0.0
H595 H 0.82171 0.92404 0.64956 0.0
H596 H 0.81332 0.91951 0.69498 0.0
H597 H 0.86494 0.78489 0.60933 0.0
H598 H 0.86123 0.82132 0.58424 0.0
H599 H 0.89748 0.8212 0.61529 0.0
H600 H 0.87164 0.92458 0.54053 0.0
H601 H 0.95661 0.92456 0.61745 0.0
H602 H 0.80431 0.89306 0.59402 0.0
H603 H 0.81765 0.85902 0.56919 0.0
H604 H 0.81506 0.8985 0.54932 0.0
H605 H 0.90777 0.89469 0.68663 0.0
H606 H 0.95076 0.89929 0.67068 0.0
H607 H 0.9228 0.85989 0.66457 0.0
C608 C 0.34664 0.18533 0.15843 0.0
C609 C 0.32265 0.17813 0.18383 0.0
C610 C 0.35693 0.15985 0.13697 0.0
C611 C 0.34312 0.12604 0.141 0.0
C612 C 0.31741 0.11869 0.16525 0.0
C613 C 0.30737 0.14487 0.18636 0.0
C614 C 0.38415 0.16906 0.11129 0.0
C615 C 0.30191 0.08307 0.17027 0.0
C616 C 0.36761 0.06815 0.06811 0.0
C617 C 0.39966 0.06049 0.08226 0.0
C618 C 0.34709 0.0873 0.08793 0.0
C619 C 0.35892 0.09879 0.12262 0.0
C620 C 0.38959 0.08823 0.13791 0.0
C621 C 0.40958 0.06937 0.11753 0.0
C622 C 0.31442 0.09763 0.0707 0.0
C623 C 0.40312 0.09942 0.17485 0.0
H624 H 0.35827 0.21099 0.15597 0.0
H625 H 0.28883 0.13908 0.20593 0.0
H626 H 0.4086 0.15923 0.11972 0.0
H627 H 0.37538 0.1575 0.08497 0.0
H628 H 0.39001 0.1966 0.10918 0.0
H629 H 0.27851 0.0819 0.18566 0.0
H630 H 0.29471 0.06935 0.14465 0.0
H631 H 0.32154 0.06988 0.18434 0.0
H632 H 0.35993 0.06156 0.04079 0.0
H633 H 0.43423 0.06327 0.12864 0.0
H634 H 0.31979 0.12396 0.06306 0.0
H635 H 0.29334 0.09642 0.08904 0.0
H636 H 0.30511 0.08162 0.04684 0.0
H637 H 0.41316 0.12654 0.17587 0.0
H638 H 0.42451 0.08553 0.18435 0.0
H639 H 0.38191 0.09594 0.19295 0.0
C640 C 0.87043 0.35331 0.18499 0.0
C641 C 0.84205 0.33143 0.16983 0.0
C642 C 0.88848 0.37711 0.16492 0.0
C643 C 0.87786 0.37844 0.12911 0.0
C644 C 0.8505 0.35508 0.11335 0.0
C645 C 0.8328 0.33187 0.13402 0.0
C646 C 0.91779 0.40169 0.18224 0.0
C647 C 0.83899 0.35544 0.075 0.0
C648 C 0.89343 0.45789 0.08056 0.0
C649 C 0.92201 0.45163 0.06224 0.0
C650 C 0.87975 0.43483 0.10403 0.0
C651 C 0.89459 0.40473 0.10799 0.0
C652 C 0.92359 0.39851 0.08943 0.0
C653 C 0.93728 0.42238 0.067 0.0
C654 C 0.84892 0.44218 0.12379 0.0
C655 C 0.93894 0.36601 0.0919 0.0
H656 H 0.87734 0.35301 0.21279 0.0
H657 H 0.81095 0.31465 0.12236 0.0
H658 H 0.94177 0.40091 0.1681 0.0
H659 H 0.91086 0.42752 0.181 0.0
H660 H 0.92355 0.3965 0.21007 0.0
H661 H 0.81892 0.33398 0.06644 0.0
H662 H 0.82804 0.37901 0.06983 0.0
H663 H 0.86155 0.3547 0.05872 0.0
H664 H 0.88193 0.48069 0.07654 0.0
H665 H 0.95919 0.41767 0.05213 0.0
H666 H 0.85419 0.43911 0.15215 0.0
H667 H 0.82578 0.42406 0.1148 0.0
H668 H 0.84252 0.46795 0.12003 0.0
H669 H 0.94486 0.36082 0.11963 0.0
H670 H 0.96301 0.36617 0.07768 0.0
H671 H 0.91968 0.345 0.0806 0.0
C672 C 0.64878 0.85978 0.18405 0.0
C673 C 0.6723 0.84152 0.1677 0.0
C674 C 0.6263 0.87775 0.16452 0.0
C675 C 0.62782 0.87811 0.12777 0.0
C676 C 0.65238 0.86074 0.11124 0.0
C677 C 0.67405 0.84234 0.13135 0.0
C678 C 0.60007 0.89537 0.18311 0.0
C679 C 0.65533 0.86108 0.0722 0.0
C680 C 0.54872 0.89277 0.06972 0.0
C681 C 0.5567 0.9266 0.06251 0.0
C682 C 0.57108 0.87703 0.09188 0.0
C683 C 0.60269 0.89532 0.1064 0.0
C684 C 0.61057 0.92969 0.0997 0.0
C685 C 0.58725 0.94503 0.07816 0.0
C686 C 0.56114 0.84065 0.09922 0.0
C687 C 0.64421 0.94995 0.11417 0.0
H688 H 0.64705 0.85913 0.21211 0.0
H689 H 0.69224 0.82844 0.11856 0.0
H690 H 0.60274 0.92219 0.17698 0.0
H691 H 0.57332 0.88412 0.17377 0.0
H692 H 0.60302 0.89365 0.21194 0.0
H693 H 0.67736 0.84836 0.06369 0.0
H694 H 0.6309 0.84833 0.05848 0.0
H695 H 0.65893 0.88727 0.06385 0.0
H696 H 0.52499 0.87853 0.05784 0.0
H697 H 0.59367 0.9711 0.07233 0.0
H698 H 0.56231 0.83745 0.12784 0.0
H699 H 0.57994 0.82534 0.08801 0.0
H700 H 0.53456 0.83072 0.08801 0.0
H701 H 0.64722 0.94842 0.14296 0.0
H702 H 0.64565 0.97674 0.10789 0.0
H703 H 0.66652 0.93946 0.10315 0.0
C704 C 0.18381 0.68437 0.18698 0.0
C705 C 0.1937 0.71909 0.18897 0.0
C706 C 0.15811 0.66938 0.16208 0.0
C707 C 0.14213 0.68961 0.13826 0.0
C708 C 0.15084 0.72486 0.14107 0.0
C709 C 0.17655 0.73928 0.16661 0.0
C710 C 0.14921 0.63168 0.16036 0.0
C711 C 0.13426 0.74715 0.11618 0.0
C712 C 0.11579 0.63705 0.05564 0.0
C713 C 0.08161 0.62436 0.06166 0.0
C714 C 0.13484 0.66151 0.07863 0.0
C715 C 0.11926 0.67295 0.10851 0.0
C716 C 0.08355 0.66251 0.11271 0.0
C717 C 0.06504 0.63805 0.08911 0.0
C718 C 0.17274 0.67217 0.073 0.0
C719 C 0.06592 0.67442 0.14397 0.0
H720 H 0.19651 0.66873 0.20469 0.0
H721 H 0.18403 0.76619 0.16826 0.0
H722 H 0.12066 0.62461 0.16071 0.0
H723 H 0.15742 0.62106 0.13552 0.0
H724 H 0.16213 0.61993 0.18244 0.0
H725 H 0.13948 0.77396 0.12531 0.0
H726 H 0.14479 0.74444 0.09013 0.0
H727 H 0.1057 0.73966 0.11276 0.0
H728 H 0.1284 0.62609 0.03434 0.0
H729 H 0.03855 0.62783 0.09365 0.0
H730 H 0.18921 0.65967 0.09169 0.0
H731 H 0.17957 0.69961 0.07797 0.0
H732 H 0.17921 0.66535 0.04604 0.0
H733 H 0.07326 0.66036 0.16696 0.0
H734 H 0.03711 0.67024 0.13942 0.0
H735 H 0.07438 0.70143 0.15053 0.0
C736 C 0.25596 0.84396 0.81861 0.0
C737 C 0.25857 0.81106 0.82791 0.0
C738 C 0.27374 0.8715 0.83898 0.0
C739 C 0.29487 0.86583 0.86907 0.0
C740 C 0.29494 0.8327 0.88014 0.0
C741 C 0.27654 0.80578 0.85958 0.0
C742 C 0.27184 0.90636 0.82675 0.0
C743 C 0.31713 0.82528 0.9119 0.0
C744 C 0.38253 0.917 0.89113 0.0
C745 C 0.37808 0.93203 0.92396 0.0
C746 C 0.35491 0.89734 0.87184 0.0
C747 C 0.32162 0.8929 0.88533 0.0
C748 C 0.31602 0.91083 0.91665 0.0
C749 C 0.34445 0.93008 0.93583 0.0
C750 C 0.3622 0.87912 0.83836 0.0
C751 C 0.28055 0.90806 0.93104 0.0
H752 H 0.24103 0.84813 0.79474 0.0
H753 H 0.2785 0.78038 0.867 0.0
H754 H 0.27355 0.92496 0.84916 0.0
H755 H 0.29395 0.91362 0.81046 0.0
H756 H 0.24735 0.90754 0.81052 0.0
H757 H 0.31184 0.79868 0.91879 0.0
H758 H 0.34505 0.8308 0.90673 0.0
H759 H 0.31256 0.84149 0.93477 0.0
H760 H 0.40824 0.91908 0.88123 0.0
H761 H 0.34064 0.94189 0.96095 0.0
H762 H 0.34353 0.88397 0.8167 0.0
H763 H 0.3588 0.8517 0.8418 0.0
H764 H 0.38903 0.88672 0.8305 0.0
H765 H 0.25984 0.90772 0.90969 0.0
H766 H 0.27854 0.92907 0.95018 0.0
H767 H 0.2757 0.88425 0.94452 0.0
C768 C 0.14721 0.32473 0.8575 0.0
C769 C 0.17777 0.3405 0.84445 0.0
C770 C 0.12571 0.34324 0.87663 0.0
C771 C 0.13496 0.37828 0.88267 0.0
C772 C 0.16559 0.39431 0.8693 0.0
C773 C 0.18664 0.37524 0.85055 0.0
C774 C 0.0933 0.32532 0.89066 0.0
C775 C 0.1764 0.43163 0.87509 0.0
C776 C 0.07063 0.43622 0.9114 0.0
C777 C 0.08097 0.44184 0.94702 0.0
C778 C 0.08719 0.41467 0.89012 0.0
C779 C 0.11425 0.39812 0.90506 0.0
C780 C 0.12368 0.40275 0.94131 0.0
C781 C 0.10711 0.42466 0.96174 0.0
C782 C 0.07667 0.41062 0.85149 0.0
C783 C 0.15216 0.38544 0.95839 0.0
H784 H 0.14001 0.29797 0.85265 0.0
H785 H 0.21005 0.38777 0.84042 0.0
H786 H 0.09529 0.32787 0.91965 0.0
H787 H 0.07019 0.33693 0.88143 0.0
H788 H 0.08898 0.29824 0.88253 0.0
H789 H 0.20007 0.44048 0.86152 0.0
H790 H 0.155 0.44547 0.86564 0.0
H791 H 0.18169 0.43815 0.90347 0.0
H792 H 0.05045 0.44948 0.89997 0.0
H793 H 0.11481 0.42846 0.98942 0.0
H794 H 0.07142 0.38367 0.84306 0.0
H795 H 0.09836 0.42202 0.83654 0.0
H796 H 0.05319 0.42271 0.84452 0.0
H797 H 0.14729 0.35809 0.95188 0.0
H798 H 0.15436 0.38957 0.98731 0.0
H799 H 0.17751 0.39498 0.94824 0.0
C800 C 0.60492 0.17569 0.80414 0.0
C801 C 0.64083 0.18492 0.81142 0.0
C802 C 0.58559 0.15367 0.82526 0.0
C803 C 0.60256 0.14083 0.8545 0.0
C804 C 0.63907 0.1487 0.86091 0.0
C805 C 0.6578 0.17051 0.83919 0.0
C806 C 0.54676 0.14549 0.81732 0.0
C807 C 0.65811 0.13564 0.89194 0.0
C808 C 0.55254 0.12209 0.93468 0.0
C809 C 0.54717 0.08693 0.93303 0.0
C810 C 0.56976 0.13983 0.9088 0.0
C811 C 0.58188 0.12206 0.88042 0.0
C812 C 0.5756 0.08662 0.87792 0.0
C813 C 0.55831 0.06945 0.90427 0.0
C814 C 0.5759 0.17766 0.91241 0.0
C815 C 0.58796 0.06683 0.84793 0.0
H816 H 0.59167 0.18648 0.78253 0.0
H817 H 0.68553 0.17745 0.84499 0.0
H818 H 0.53868 0.11809 0.8178 0.0
H819 H 0.53292 0.15773 0.83771 0.0
H820 H 0.53822 0.15414 0.79145 0.0
H821 H 0.68681 0.14173 0.89158 0.0
H822 H 0.6498 0.14682 0.91647 0.0
H823 H 0.6515 0.10807 0.89257 0.0
H824 H 0.54383 0.13587 0.9566 0.0
H825 H 0.55427 0.04228 0.90271 0.0
H826 H 0.56516 0.18845 0.88859 0.0
H827 H 0.60428 0.18638 0.91511 0.0
H828 H 0.56381 0.18771 0.93543 0.0
H829 H 0.57848 0.07587 0.82262 0.0
H830 H 0.579 0.03955 0.84857 0.0
H831 H 0.61683 0.07062 0.84893 0.0
C832 C 0.82007 0.67552 0.85453 0.0
C833 C 0.82889 0.69733 0.82808 0.0
C834 C 0.84571 0.66125 0.87386 0.0
C835 C 0.88099 0.66856 0.86608 0.0
C836 C 0.89035 0.69264 0.84132 0.0
C837 C 0.86411 0.70707 0.8228 0.0
C838 C 0.83464 0.63629 0.90064 0.0
C839 C 0.9276 0.70105 0.83217 0.0
C840 C 0.94333 0.63333 0.93026 0.0
C841 C 0.94337 0.60106 0.91504 0.0
C842 C 0.92499 0.65673 0.91355 0.0
C843 C 0.90681 0.64769 0.88071 0.0
C844 C 0.90952 0.61624 0.86388 0.0
C845 C 0.92745 0.59314 0.88145 0.0
C846 C 0.92277 0.68997 0.93232 0.0
C847 C 0.8913 0.60597 0.8284 0.0
H848 H 0.79286 0.66817 0.85884 0.0
H849 H 0.87109 0.72396 0.80238 0.0
H850 H 0.83792 0.6107 0.89067 0.0
H851 H 0.85122 0.64169 0.92533 0.0
H852 H 0.80699 0.63644 0.90652 0.0
H853 H 0.93154 0.72475 0.81828 0.0
H854 H 0.94572 0.70328 0.85592 0.0
H855 H 0.93456 0.68056 0.8148 0.0
H856 H 0.95544 0.63948 0.95636 0.0
H857 H 0.92775 0.56832 0.86951 0.0
H858 H 0.89671 0.68955 0.94281 0.0
H859 H 0.92585 0.71064 0.91409 0.0
H860 H 0.94281 0.69546 0.95448 0.0
H861 H 0.86274 0.60176 0.83075 0.0
H862 H 0.89948 0.58259 0.81713 0.0
H863 H 0.89667 0.62614 0.80989 0.0
C864 C 0.14001 0.35049 0.19657 0.0
C865 C 0.15085 0.32203 0.18072 0.0
C866 C 0.11638 0.36833 0.17887 0.0
C867 C 0.10427 0.35795 0.14413 0.0
C868 C 0.11244 0.32734 0.12933 0.0
C869 C 0.13568 0.30946 0.14802 0.0
C870 C 0.1067 0.39983 0.19625 0.0
C871 C 0.09895 0.31508 0.09275 0.0
C872 C 0.04098 0.40867 0.09703 0.0
C873 C 0.06431 0.43255 0.08214 0.0
C874 C 0.05328 0.38383 0.11736 0.0
C875 C 0.0896 0.38238 0.12152 0.0
C876 C 0.11302 0.40598 0.10548 0.0
C877 C 0.10008 0.43097 0.08639 0.0
C878 C 0.02716 0.35956 0.13408 0.0
C879 C 0.15193 0.40519 0.10884 0.0
H880 H 0.15116 0.35963 0.22235 0.0
H881 H 0.14386 0.28715 0.13607 0.0
H882 H 0.12023 0.42207 0.18431 0.0
H883 H 0.07826 0.40062 0.19215 0.0
H884 H 0.11407 0.4017 0.22479 0.0
H885 H 0.10384 0.28894 0.08676 0.0
H886 H 0.07056 0.31636 0.08919 0.0
H887 H 0.11195 0.33156 0.07366 0.0
H888 H 0.01329 0.40997 0.09357 0.0
H889 H 0.11804 0.44911 0.07421 0.0
H890 H 0.03885 0.34682 0.15607 0.0
H891 H 0.01515 0.34018 0.114 0.0
H892 H 0.006 0.37275 0.14393 0.0
H893 H 0.16176 0.41011 0.1366 0.0
H894 H 0.16627 0.42412 0.09296 0.0
H895 H 0.15802 0.38004 0.10042 0.0
C896 C 0.14216 0.63211 0.80431 0.0
C897 C 0.17144 0.62247 0.78923 0.0
C898 C 0.12195 0.61006 0.82419 0.0
C899 C 0.13123 0.57755 0.82844 0.0
C900 C 0.15707 0.56597 0.80844 0.0
C901 C 0.17734 0.58887 0.78907 0.0
C902 C 0.09389 0.62322 0.84438 0.0
C903 C 0.16592 0.5307 0.81046 0.0
C904 C 0.12498 0.56338 0.92328 0.0
C905 C 0.09019 0.54925 0.9233 0.0
C906 C 0.14034 0.56923 0.8918 0.0
C907 C 0.12033 0.56027 0.85982 0.0
C908 C 0.0868 0.542 0.85983 0.0
C909 C 0.07182 0.53707 0.89174 0.0
C910 C 0.17662 0.58824 0.89293 0.0
C911 C 0.06553 0.53017 0.82635 0.0
H912 H 0.13681 0.65783 0.80316 0.0
H913 H 0.19942 0.58111 0.77644 0.0
H914 H 0.0696 0.60532 0.84157 0.0
H915 H 0.1025 0.6262 0.87261 0.0
H916 H 0.08789 0.64788 0.83553 0.0
H917 H 0.17603 0.52224 0.78559 0.0
H918 H 0.18656 0.52996 0.83164 0.0
H919 H 0.14296 0.51288 0.81622 0.0
H920 H 0.1395 0.57193 0.94776 0.0
H921 H 0.0453 0.52472 0.89185 0.0
H922 H 0.17532 0.61384 0.88372 0.0
H923 H 0.19301 0.57558 0.87534 0.0
H924 H 0.18962 0.59054 0.91971 0.0
H925 H 0.04914 0.54957 0.81847 0.0
H926 H 0.04784 0.50682 0.83009 0.0
H927 H 0.0823 0.52553 0.80474 0.0
C928 C 0.32504 0.15973 0.83438 0.0
C929 C 0.34625 0.17801 0.81167 0.0
C930 C 0.33908 0.13877 0.85838 0.0
C931 C 0.37515 0.13598 0.8596 0.0
C932 C 0.39656 0.15391 0.83632 0.0
C933 C 0.38188 0.17474 0.81275 0.0
C934 C 0.31548 0.12015 0.88293 0.0
C935 C 0.43514 0.15163 0.83677 0.0
C936 C 0.42015 0.11514 0.94487 0.0
C937 C 0.42408 0.08122 0.93887 0.0
C938 C 0.40387 0.13293 0.91948 0.0
C939 C 0.39114 0.11657 0.88706 0.0
C940 C 0.39475 0.08231 0.88073 0.0
C941 C 0.41119 0.06499 0.90675 0.0
C942 C 0.40064 0.16944 0.92731 0.0
C943 C 0.38157 0.06408 0.84637 0.0
H944 H 0.29747 0.16192 0.83357 0.0
H945 H 0.39849 0.1885 0.79511 0.0
H946 H 0.31793 0.09301 0.88105 0.0
H947 H 0.32342 0.12926 0.9103 0.0
H948 H 0.28773 0.12341 0.87731 0.0
H949 H 0.44777 0.16552 0.81553 0.0
H950 H 0.44805 0.16203 0.86222 0.0
H951 H 0.43971 0.12506 0.83402 0.0
H952 H 0.42993 0.12806 0.96954 0.0
H953 H 0.41406 0.03883 0.90184 0.0
H954 H 0.37294 0.17362 0.92416 0.0
H955 H 0.415 0.18514 0.90848 0.0
H956 H 0.41101 0.1782 0.95422 0.0
H957 H 0.35348 0.06594 0.8411 0.0
H958 H 0.38526 0.03718 0.84598 0.0
H959 H 0.39544 0.076 0.82475 0.0
C960 C 0.8104 0.29999 0.85786 0.0
C961 C 0.82193 0.28198 0.82976 0.0
C962 C 0.83413 0.32007 0.88137 0.0
C963 C 0.87021 0.32201 0.87673 0.0
C964 C 0.88214 0.30105 0.85086 0.0
C965 C 0.85782 0.28133 0.82753 0.0
C966 C 0.82034 0.34176 0.90892 0.0
C967 C 0.92045 0.30174 0.84574 0.0
C968 C 0.91581 0.40994 0.8946 0.0
C969 C 0.93017 0.40872 0.92886 0.0
C970 C 0.89778 0.38136 0.87682 0.0
C971 C 0.89412 0.35062 0.89365 0.0
C972 C 0.91059 0.3486 0.92734 0.0
C973 C 0.92848 0.37782 0.94468 0.0
C974 C 0.88095 0.3846 0.84071 0.0
C975 C 0.90773 0.31617 0.94589 0.0
H976 H 0.78274 0.30018 0.86026 0.0
H977 H 0.86706 0.26696 0.80633 0.0
H978 H 0.83526 0.34105 0.93442 0.0
H979 H 0.82345 0.36815 0.90114 0.0
H980 H 0.79233 0.33385 0.91242 0.0
H981 H 0.92574 0.27933 0.83012 0.0
H982 H 0.92972 0.32436 0.83168 0.0
H983 H 0.93579 0.30313 0.87127 0.0
H984 H 0.91763 0.43363 0.88199 0.0
H985 H 0.93959 0.37673 0.97117 0.0
H986 H 0.8522 0.37971 0.84135 0.0
H987 H 0.88893 0.36578 0.82198 0.0
H988 H 0.88786 0.40989 0.83068 0.0
H989 H 0.88185 0.31166 0.95683 0.0
H990 H 0.92801 0.31691 0.96776 0.0
H991 H 0.90999 0.29468 0.92752 0.0
C992 C 0.69133 0.86529 0.84669 0.0
C993 C 0.69364 0.87395 0.81177 0.0
C994 C 0.67161 0.88215 0.86949 0.0
C995 C 0.65374 0.90835 0.85714 0.0
C996 C 0.65779 0.91861 0.8226 0.0
C997 C 0.67765 0.90131 0.80036 0.0
C998 C 0.66807 0.8704 0.9061 0.0
C999 C 0.63933 0.94646 0.80837 0.0
C1000 C 0.56757 0.91685 0.89605 0.0
C1001 C 0.57618 0.94418 0.92042 0.0
C1002 C 0.59248 0.90536 0.8753 0.0
C1003 C 0.62714 0.92161 0.87852 0.0
C1004 C 0.63605 0.94969 0.90236 0.0
C1005 C 0.61051 0.9606 0.92313 0.0
C1006 C 0.58172 0.8753 0.85028 0.0
C1007 C 0.67265 0.96788 0.90626 0.0
H1008 H 0.7037 0.84435 0.85589 0.0
H1009 H 0.67939 0.9084 0.77352 0.0
H1010 H 0.67215 0.89204 0.92542 0.0
H1011 H 0.64131 0.85753 0.90828 0.0
H1012 H 0.68684 0.85274 0.91312 0.0
H1013 H 0.64889 0.95454 0.78296 0.0
H1014 H 0.611 0.93773 0.80444 0.0
H1015 H 0.64273 0.96845 0.82722 0.0
H1016 H 0.54127 0.9038 0.89347 0.0
H1017 H 0.61756 0.98176 0.9417 0.0
H1018 H 0.597 0.85477 0.85719 0.0
H1019 H 0.58732 0.88189 0.82323 0.0
H1020 H 0.5536 0.86574 0.85058 0.0
H1021 H 0.69087 0.95066 0.91582 0.0
H1022 H 0.67509 0.99015 0.92476 0.0
H1023 H 0.68095 0.9761 0.88048 0.0
C1024 C 0.81902 0.68003 0.11307 0.0
C1025 C 0.82643 0.68799 0.14882 0.0
C1026 C 0.84088 0.66186 0.09413 0.0
C1027 C 0.86989 0.65028 0.11179 0.0
C1028 C 0.87766 0.65864 0.14784 0.0
C1029 C 0.85616 0.67788 0.16578 0.0
C1030 C 0.83241 0.65431 0.05545 0.0
C1031 C 0.90754 0.64578 0.1679 0.0
C1032 C 0.89732 0.57192 0.06955 0.0
C1033 C 0.92727 0.58498 0.05372 0.0
C1034 C 0.87928 0.59275 0.08984 0.0
C1035 C 0.89073 0.62765 0.09302 0.0
C1036 C 0.92138 0.64084 0.07744 0.0
C1037 C 0.93966 0.61915 0.05837 0.0
C1038 C 0.84753 0.57749 0.10718 0.0
C1039 C 0.93389 0.67796 0.07946 0.0
H1040 H 0.79602 0.68781 0.10002 0.0
H1041 H 0.86161 0.68349 0.19362 0.0
H1042 H 0.85589 0.66104 0.04083 0.0
H1043 H 0.82409 0.62707 0.0504 0.0
H1044 H 0.81129 0.66807 0.045 0.0
H1045 H 0.91087 0.65564 0.19555 0.0
H1046 H 0.90289 0.618 0.16758 0.0
H1047 H 0.93221 0.65275 0.15531 0.0
H1048 H 0.88787 0.54542 0.06574 0.0
H1049 H 0.96259 0.62916 0.04553 0.0
H1050 H 0.82388 0.5862 0.09492 0.0
H1051 H 0.84941 0.5857 0.13528 0.0
H1052 H 0.84419 0.54965 0.10498 0.0
H1053 H 0.91413 0.69136 0.06587 0.0
H1054 H 0.95904 0.68396 0.06731 0.0
H1055 H 0.93708 0.68776 0.10707 0.0
C1056 C 0.38528 0.8317 0.20442 0.0
C1057 C 0.34989 0.81863 0.20062 0.0
C1058 C 0.39996 0.85414 0.18074 0.0
C1059 C 0.37873 0.86375 0.15258 0.0
C1060 C 0.34256 0.85233 0.14989 0.0
C1061 C 0.32853 0.82992 0.17399 0.0
C1062 C 0.43859 0.86595 0.18468 0.0
C1063 C 0.31903 0.86216 0.12031 0.0
C1064 C 0.41434 0.93516 0.0976 0.0
C1065 C 0.42554 0.91759 0.06893 0.0
C1066 C 0.39902 0.91807 0.12511 0.0
C1067 C 0.39495 0.88261 0.12396 0.0
C1068 C 0.40653 0.86479 0.0953 0.0
C1069 C 0.42163 0.88246 0.06818 0.0
C1070 C 0.38702 0.9379 0.15526 0.0
C1071 C 0.40286 0.82695 0.09319 0.0
H1072 H 0.40192 0.82339 0.22514 0.0
H1073 H 0.30113 0.82009 0.17096 0.0
H1074 H 0.45158 0.85429 0.16325 0.0
H1075 H 0.44369 0.8935 0.18261 0.0
H1076 H 0.45067 0.85934 0.21005 0.0
H1077 H 0.29108 0.85427 0.12409 0.0
H1078 H 0.32317 0.88967 0.11772 0.0
H1079 H 0.32546 0.85028 0.09533 0.0
H1080 H 0.41718 0.96231 0.09842 0.0
H1081 H 0.43036 0.86862 0.04631 0.0
H1082 H 0.40032 0.93181 0.18017 0.0
H1083 H 0.35866 0.93091 0.15736 0.0
H1084 H 0.39225 0.96537 0.15232 0.0
H1085 H 0.41689 0.8179 0.11626 0.0
H1086 H 0.41326 0.81689 0.06915 0.0
H1087 H 0.37503 0.81648 0.0936 0.0
C1088 C 0.6839 0.16253 0.19788 0.0
C1089 C 0.71302 0.18334 0.18782 0.0
C1090 C 0.66629 0.13703 0.17499 0.0
C1091 C 0.67787 0.13234 0.14107 0.0
C1092 C 0.70907 0.15113 0.13196 0.0
C1093 C 0.72625 0.17654 0.1554 0.0
C1094 C 0.6335 0.11708 0.18606 0.0
C1095 C 0.72288 0.14607 0.09649 0.0
C1096 C 0.62437 0.06105 0.08523 0.0
C1097 C 0.59867 0.07825 0.06986 0.0
C1098 C 0.65194 0.07846 0.10712 0.0
C1099 C 0.65347 0.11362 0.11346 0.0
C1100 C 0.62884 0.1311 0.09579 0.0
C1101 C 0.60183 0.1132 0.07432 0.0
C1102 C 0.67791 0.05885 0.12496 0.0
C1103 C 0.62958 0.1686 0.10123 0.0
H1104 H 0.67365 0.16722 0.22299 0.0
H1105 H 0.74921 0.19197 0.14767 0.0
H1106 H 0.61052 0.12534 0.17191 0.0
H1107 H 0.6333 0.09003 0.17921 0.0
H1108 H 0.63072 0.12034 0.21461 0.0
H1109 H 0.75037 0.15767 0.09585 0.0
H1110 H 0.72108 0.11897 0.08897 0.0
H1111 H 0.70688 0.15765 0.07659 0.0
H1112 H 0.62193 0.034 0.08169 0.0
H1113 H 0.58221 0.12652 0.06187 0.0
H1114 H 0.66839 0.05093 0.15039 0.0
H1115 H 0.7038 0.07404 0.1301 0.0
H1116 H 0.68095 0.0359 0.10898 0.0
H1117 H 0.6245 0.17485 0.12873 0.0
H1118 H 0.60981 0.17853 0.08378 0.0
H1119 H 0.65562 0.1817 0.0964 0.0
C1120 C 0.66326 0.70453 0.81621 0.0
C1121 C 0.68706 0.692 0.79447 0.0
C1122 C 0.64112 0.68325 0.83616 0.0
C1123 C 0.64299 0.64825 0.83548 0.0
C1124 C 0.66665 0.63535 0.81323 0.0
C1125 C 0.68789 0.65714 0.79278 0.0
C1126 C 0.61614 0.69849 0.85871 0.0
C1127 C 0.67053 0.59855 0.812 0.0
C1128 C 0.61769 0.60299 0.91832 0.0
C1129 C 0.58437 0.58536 0.90885 0.0
C1130 C 0.63683 0.62274 0.89475 0.0
C1131 C 0.62263 0.62592 0.8603 0.0
C1132 C 0.58899 0.60834 0.85034 0.0
C1133 C 0.57049 0.58812 0.87446 0.0
C1134 C 0.67257 0.64027 0.90691 0.0
C1135 C 0.57235 0.61117 0.81422 0.0
H1136 H 0.66194 0.73126 0.81772 0.0
H1137 H 0.70606 0.64692 0.77632 0.0
H1138 H 0.58953 0.6847 0.85378 0.0
H1139 H 0.62411 0.69632 0.8867 0.0
H1140 H 0.6152 0.72537 0.85389 0.0
H1141 H 0.68857 0.59196 0.79222 0.0
H1142 H 0.68062 0.5916 0.83802 0.0
H1143 H 0.64482 0.58329 0.80595 0.0
H1144 H 0.62937 0.60108 0.94443 0.0
H1145 H 0.54498 0.57483 0.86648 0.0
H1146 H 0.67295 0.66779 0.90599 0.0
H1147 H 0.69213 0.63294 0.88917 0.0
H1148 H 0.68065 0.63433 0.93398 0.0
H1149 H 0.56991 0.63781 0.80963 0.0
H1150 H 0.54613 0.59631 0.81032 0.0
H1151 H 0.5891 0.60243 0.79427 0.0
C1152 C 0.33375 0.65167 0.81678 0.0
C1153 C 0.321 0.67689 0.8366 0.0
C1154 C 0.35738 0.63183 0.83219 0.0
C1155 C 0.36854 0.63748 0.86813 0.0
C1156 C 0.35758 0.66445 0.88745 0.0
C1157 C 0.334 0.68372 0.8715 0.0
C1158 C 0.36858 0.60344 0.8106 0.0
C1159 C 0.36879 0.67154 0.92573 0.0
C1160 C 0.38537 0.56298 0.92112 0.0
C1161 C 0.42189 0.56672 0.92567 0.0
C1162 C 0.36799 0.58548 0.90201 0.0
C1163 C 0.38743 0.61268 0.88686 0.0
C1164 C 0.4243 0.61677 0.89127 0.0
C1165 C 0.44112 0.59379 0.9107 0.0
C1166 C 0.32865 0.5802 0.89831 0.0
C1167 C 0.44593 0.64543 0.87551 0.0
H1168 H 0.32388 0.64624 0.78982 0.0
H1169 H 0.32466 0.70347 0.88692 0.0
H1170 H 0.39704 0.603 0.81485 0.0
H1171 H 0.35541 0.57924 0.8189 0.0
H1172 H 0.36194 0.60531 0.78223 0.0
H1173 H 0.36149 0.69574 0.93587 0.0
H1174 H 0.35626 0.65121 0.94115 0.0
H1175 H 0.39736 0.67209 0.9302 0.0
H1176 H 0.37011 0.54229 0.93257 0.0
H1177 H 0.46931 0.59682 0.91379 0.0
H1178 H 0.31944 0.57812 0.87025 0.0
H1179 H 0.31834 0.6021 0.91036 0.0
H1180 H 0.31742 0.5573 0.91088 0.0
H1181 H 0.43925 0.6452 0.84696 0.0
H1182 H 0.4743 0.64433 0.87997 0.0
H1183 H 0.44 0.66961 0.887 0.0
C1184 C 0.34855 0.3271 0.76723 0.0
C1185 C 0.31783 0.31816 0.78409 0.0
C1186 C 0.37473 0.35182 0.78218 0.0
C1187 C 0.36986 0.3681 0.81453 0.0
C1188 C 0.33821 0.36036 0.83075 0.0
C1189 C 0.31278 0.33533 0.81549 0.0
C1190 C 0.40813 0.35936 0.76419 0.0
C1191 C 0.33174 0.37748 0.86509 0.0
C1192 C 0.43991 0.3998 0.88436 0.0
C1193 C 0.43926 0.43437 0.88356 0.0
C1194 C 0.42012 0.37784 0.85932 0.0
C1195 C 0.39863 0.39093 0.83354 0.0
C1196 C 0.40059 0.42606 0.83069 0.0
C1197 C 0.42115 0.44752 0.85584 0.0
C1198 C 0.4194 0.34058 0.86285 0.0
C1199 C 0.3782 0.44099 0.80354 0.0
H1200 H 0.35269 0.31407 0.74285 0.0
H1201 H 0.2893 0.32859 0.82882 0.0
H1202 H 0.41585 0.3868 0.76358 0.0
H1203 H 0.42936 0.34896 0.77907 0.0
H1204 H 0.40588 0.3483 0.737 0.0
H1205 H 0.30466 0.37068 0.87263 0.0
H1206 H 0.3499 0.37033 0.88612 0.0
H1207 H 0.33675 0.4051 0.86354 0.0
H1208 H 0.45398 0.38985 0.90601 0.0
H1209 H 0.42045 0.47434 0.85565 0.0
H1210 H 0.42006 0.32755 0.83691 0.0
H1211 H 0.39486 0.3304 0.87421 0.0
H1212 H 0.44163 0.33467 0.88012 0.0
H1213 H 0.37728 0.42699 0.77791 0.0
H1214 H 0.38777 0.46778 0.80017 0.0
H1215 H 0.35118 0.4393 0.81184 0.0
C1216 C 0.65668 0.34905 0.83353 0.0
C1217 C 0.66906 0.32327 0.85214 0.0
C1218 C 0.63959 0.37325 0.85028 0.0
C1219 C 0.63465 0.37154 0.88645 0.0
C1220 C 0.64675 0.3454 0.90532 0.0
C1221 C 0.66387 0.32161 0.88795 0.0
C1222 C 0.62716 0.40088 0.82934 0.0
C1223 C 0.64187 0.34273 0.94392 0.0
C1224 C 0.62191 0.45178 0.93651 0.0
C1225 C 0.58561 0.44822 0.93824 0.0
C1226 C 0.63816 0.42693 0.9199 0.0
C1227 C 0.61769 0.39769 0.90474 0.0
C1228 C 0.58111 0.39368 0.90674 0.0
C1229 C 0.5655 0.419 0.92344 0.0
C1230 C 0.67726 0.43212 0.91825 0.0
C1231 C 0.55845 0.36275 0.89103 0.0
H1232 H 0.66056 0.35051 0.80588 0.0
H1233 H 0.67325 0.30172 0.90252 0.0
H1234 H 0.59876 0.40087 0.83124 0.0
H1235 H 0.64023 0.42557 0.84023 0.0
H1236 H 0.63245 0.3983 0.8013 0.0
H1237 H 0.65198 0.32037 0.9546 0.0
H1238 H 0.65549 0.36543 0.95864 0.0
H1239 H 0.61385 0.34137 0.94872 0.0
H1240 H 0.63773 0.47419 0.94788 0.0
H1241 H 0.53745 0.41593 0.92467 0.0
H1242 H 0.68404 0.43183 0.89057 0.0
H1243 H 0.68875 0.41134 0.93068 0.0
H1244 H 0.68944 0.45619 0.9315 0.0
H1245 H 0.56167 0.36019 0.86255 0.0
H1246 H 0.53042 0.36339 0.895 0.0
H1247 H 0.56661 0.34009 0.90285 0.0
C1248 C 0.66636 0.32063 0.11032 0.0
C1249 C 0.67419 0.32298 0.14668 0.0
C1250 C 0.64578 0.34254 0.09391 0.0
C1251 C 0.6325 0.3675 0.11427 0.0
C1252 C 0.63895 0.36906 0.15114 0.0
C1253 C 0.6597 0.34682 0.16689 0.0
C1254 C 0.63961 0.33991 0.05456 0.0
C1255 C 0.62524 0.39522 0.17384 0.0
C1256 C 0.61796 0.44808 0.0704 0.0
C1257 C 0.58169 0.44402 0.06314 0.0
C1258 C 0.6346 0.42345 0.08698 0.0
C1259 C 0.61465 0.39378 0.09673 0.0
C1260 C 0.57806 0.3893 0.08933 0.0
C1261 C 0.56202 0.41441 0.07259 0.0
C1262 C 0.67368 0.42928 0.09412 0.0
C1263 C 0.55585 0.35801 0.0992 0.0
H1264 H 0.67723 0.30226 0.09437 0.0
H1265 H 0.66549 0.34887 0.19496 0.0
H1266 H 0.61147 0.339 0.04687 0.0
H1267 H 0.65329 0.36246 0.04329 0.0
H1268 H 0.64905 0.31739 0.04277 0.0
H1269 H 0.62975 0.39125 0.20215 0.0
H1270 H 0.63828 0.42045 0.16842 0.0
H1271 H 0.59692 0.39507 0.16764 0.0
H1272 H 0.63358 0.47068 0.06315 0.0
H1273 H 0.53402 0.41094 0.06719 0.0
H1274 H 0.68562 0.40905 0.08082 0.0
H1275 H 0.68047 0.42851 0.12257 0.0
H1276 H 0.68543 0.45375 0.08504 0.0
H1277 H 0.5643 0.33565 0.0861 0.0
H1278 H 0.52776 0.35838 0.09189 0.0
H1279 H 0.55926 0.35516 0.1278 0.0
C1280 C 0.68424 0.66197 0.20038 0.0
C1281 C 0.67594 0.68995 0.21943 0.0
C1282 C 0.65806 0.63845 0.18381 0.0
C1283 C 0.6227 0.64267 0.18696 0.0
C1284 C 0.61412 0.66899 0.20898 0.0
C1285 C 0.64089 0.69265 0.22463 0.0
C1286 C 0.66841 0.61077 0.16045 0.0
C1287 C 0.57676 0.67355 0.21411 0.0
C1288 C 0.57297 0.61546 0.10159 0.0
C1289 C 0.56205 0.58163 0.10671 0.0
C1290 C 0.59005 0.63662 0.12873 0.0
C1291 C 0.59592 0.62365 0.16197 0.0
C1292 C 0.58111 0.59066 0.16842 0.0
C1293 C 0.56434 0.56978 0.14047 0.0
C1294 C 0.60501 0.67177 0.12066 0.0
C1295 C 0.58552 0.57649 0.20394 0.0
H1296 H 0.71123 0.65938 0.19667 0.0
H1297 H 0.63425 0.71381 0.24002 0.0
H1298 H 0.65431 0.58621 0.16649 0.0
H1299 H 0.6612 0.61521 0.13273 0.0
H1300 H 0.69683 0.60929 0.16321 0.0
H1301 H 0.5745 0.6885 0.23867 0.0
H1302 H 0.56643 0.68708 0.19199 0.0
H1303 H 0.56019 0.64903 0.21477 0.0
H1304 H 0.57029 0.62485 0.0756 0.0
H1305 H 0.55546 0.54369 0.14455 0.0
H1306 H 0.63384 0.67368 0.12148 0.0
H1307 H 0.59828 0.69022 0.14051 0.0
H1308 H 0.59547 0.67882 0.09444 0.0
H1309 H 0.61138 0.56759 0.20698 0.0
H1310 H 0.56529 0.5549 0.20719 0.0
H1311 H 0.58431 0.59585 0.22511 0.0
C1312 C 0.3426 0.62018 0.19325 0.0
C1313 C 0.33982 0.65426 0.18975 0.0
C1314 C 0.35935 0.60212 0.16871 0.0
C1315 C 0.37311 0.61835 0.13956 0.0
C1316 C 0.3706 0.65281 0.136 0.0
C1317 C 0.35428 0.6704 0.16127 0.0
C1318 C 0.36207 0.56557 0.17383 0.0
C1319 C 0.38443 0.67093 0.10507 0.0
C1320 C 0.44074 0.57789 0.0908 0.0
C1321 C 0.42011 0.55932 0.06353 0.0
C1322 C 0.42589 0.59744 0.11552 0.0
C1323 C 0.3896 0.59905 0.11255 0.0
C1324 C 0.36885 0.58136 0.08432 0.0
C1325 C 0.38428 0.56141 0.0604 0.0
C1326 C 0.4489 0.61544 0.14547 0.0
C1327 C 0.33022 0.58306 0.07971 0.0
H1328 H 0.33163 0.60754 0.21521 0.0
H1329 H 0.35207 0.69668 0.15817 0.0
H1330 H 0.34766 0.54997 0.15177 0.0
H1331 H 0.38969 0.56108 0.17392 0.0
H1332 H 0.35145 0.55702 0.19864 0.0
H1333 H 0.38074 0.69784 0.10628 0.0
H1334 H 0.41258 0.6691 0.10373 0.0
H1335 H 0.37101 0.65892 0.08048 0.0
H1336 H 0.46841 0.57619 0.09364 0.0
H1337 H 0.36824 0.54727 0.0393 0.0
H1338 H 0.44042 0.60566 0.17061 0.0
H1339 H 0.44642 0.64258 0.1463 0.0
H1340 H 0.47677 0.61238 0.1435 0.0
H1341 H 0.31712 0.57187 0.10214 0.0
H1342 H 0.31818 0.5696 0.0552 0.0
H1343 H 0.32526 0.60956 0.07933 0.0
C1344 C 0.35582 0.32126 0.1988 0.0
C1345 C 0.31931 0.31978 0.19595 0.0
C1346 C 0.37734 0.34203 0.17775 0.0
C1347 C 0.3624 0.36271 0.15348 0.0
C1348 C 0.3256 0.36185 0.15105 0.0
C1349 C 0.30465 0.3403 0.17185 0.0
C1350 C 0.41615 0.34124 0.18097 0.0
C1351 C 0.3082 0.38363 0.1262 0.0
C1352 C 0.4196 0.43731 0.11677 0.0
C1353 C 0.42434 0.42518 0.08273 0.0
C1354 C 0.39987 0.41739 0.14007 0.0
C1355 C 0.38493 0.38406 0.12964 0.0
C1356 C 0.39085 0.37136 0.09577 0.0
C1357 C 0.40993 0.39202 0.07282 0.0
C1358 C 0.39394 0.43247 0.17549 0.0
C1359 C 0.37642 0.33597 0.08339 0.0
H1360 H 0.36768 0.30553 0.21702 0.0
H1361 H 0.27661 0.3397 0.16934 0.0
H1362 H 0.42501 0.33278 0.15552 0.0
H1363 H 0.42993 0.36679 0.18758 0.0
H1364 H 0.42396 0.32426 0.20125 0.0
H1365 H 0.27968 0.38176 0.12881 0.0
H1366 H 0.31974 0.4102 0.13101 0.0
H1367 H 0.3127 0.3762 0.09886 0.0
H1368 H 0.43003 0.46295 0.12471 0.0
H1369 H 0.41332 0.38217 0.0467 0.0
H1370 H 0.40274 0.41665 0.19638 0.0
H1371 H 0.36567 0.43324 0.17768 0.0
H1372 H 0.40783 0.45829 0.18019 0.0
H1373 H 0.38454 0.31803 0.10246 0.0
H1374 H 0.38517 0.329 0.05737 0.0
H1375 H 0.34755 0.33317 0.08165 0.0
C1376 C 0.83049 0.63692 0.67044 0.0
C1377 C 0.84512 0.65507 0.7009 0.0
C1378 C 0.8492 0.61449 0.65275 0.0
C1379 C 0.88308 0.60989 0.66612 0.0
C1380 C 0.89644 0.62582 0.69862 0.0
C1381 C 0.87745 0.64841 0.71544 0.0
C1382 C 0.8339 0.59791 0.61827 0.0
C1383 C 0.93202 0.62115 0.71431 0.0
C1384 C 0.93153 0.5463 0.61859 0.0
C1385 C 0.9497 0.56696 0.59549 0.0
C1386 C 0.91004 0.55978 0.64243 0.0
C1387 C 0.90698 0.59457 0.64303 0.0
C1388 C 0.92659 0.61549 0.62068 0.0
C1389 C 0.94758 0.60145 0.59734 0.0
C1390 C 0.88966 0.53664 0.66588 0.0
C1391 C 0.92469 0.65275 0.62058 0.0
H1392 H 0.80538 0.64173 0.65926 0.0
H1393 H 0.88857 0.66178 0.73948 0.0
H1394 H 0.84749 0.61017 0.59665 0.0
H1395 H 0.83773 0.57109 0.61678 0.0
H1396 H 0.80565 0.5998 0.6141 0.0
H1397 H 0.93578 0.62989 0.74231 0.0
H1398 H 0.93618 0.59444 0.712 0.0
H1399 H 0.95224 0.63571 0.69983 0.0
H1400 H 0.93294 0.51958 0.617 0.0
H1401 H 0.96195 0.61755 0.57976 0.0
H1402 H 0.86188 0.53266 0.65607 0.0
H1403 H 0.89097 0.54787 0.69291 0.0
H1404 H 0.89926 0.51184 0.66662 0.0
H1405 H 0.89761 0.65724 0.61335 0.0
H1406 H 0.94209 0.66552 0.60194 0.0
H1407 H 0.93203 0.66451 0.6471 0.0
C1408 C 0.36841 0.85424 0.70609 0.0
C1409 C 0.33878 0.86402 0.72033 0.0
C1410 C 0.39026 0.87682 0.68813 0.0
C1411 C 0.38185 0.90969 0.68418 0.0
C1412 C 0.35328 0.92037 0.7005 0.0
C1413 C 0.33214 0.89736 0.71875 0.0
C1414 C 0.42107 0.86486 0.67154 0.0
C1415 C 0.34345 0.95516 0.69652 0.0
C1416 C 0.45515 0.96702 0.65097 0.0
C1417 C 0.44783 0.96194 0.61471 0.0
C1418 C 0.43248 0.952 0.67429 0.0
C1419 C 0.40179 0.93175 0.66087 0.0
C1420 C 0.39261 0.9291 0.62448 0.0
C1421 C 0.4159 0.94427 0.60169 0.0
C1422 C 0.4427 0.95569 0.71303 0.0
C1423 C 0.35947 0.90826 0.60948 0.0
H1424 H 0.37358 0.8285 0.70757 0.0
H1425 H 0.30908 0.90495 0.72964 0.0
H1426 H 0.41666 0.86409 0.64264 0.0
H1427 H 0.44504 0.88251 0.67878 0.0
H1428 H 0.42552 0.83947 0.6795 0.0
H1429 H 0.32492 0.96142 0.71595 0.0
H1430 H 0.3668 0.97433 0.69933 0.0
H1431 H 0.33088 0.95672 0.66996 0.0
H1432 H 0.47942 0.98145 0.66124 0.0
H1433 H 0.40984 0.94076 0.5737 0.0
H1434 H 0.45064 0.93178 0.72201 0.0
H1435 H 0.42031 0.96109 0.72794 0.0
H1436 H 0.46471 0.97593 0.71944 0.0
H1437 H 0.36158 0.88131 0.61258 0.0
H1438 H 0.35416 0.91216 0.58125 0.0
H1439 H 0.33693 0.91434 0.62379 0.0
C1440 C 0.13259 0.35541 0.7246 0.0
C1441 C 0.1655 0.34642 0.71841 0.0
C1442 C 0.11829 0.3794 0.70495 0.0
C1443 C 0.13727 0.39461 0.67824 0.0
C1444 C 0.17183 0.388 0.67412 0.0
C1445 C 0.18563 0.3639 0.69436 0.0
C1446 C 0.08148 0.38582 0.71049 0.0
C1447 C 0.19306 0.40407 0.6462 0.0
C1448 C 0.08277 0.40341 0.59518 0.0
C1449 C 0.07953 0.43766 0.59627 0.0
C1450 C 0.10169 0.38948 0.6216 0.0
C1451 C 0.11822 0.41036 0.64995 0.0
C1452 C 0.11508 0.44509 0.65143 0.0
C1453 C 0.09533 0.45838 0.62458 0.0
C1454 C 0.10373 0.35221 0.61913 0.0
C1455 C 0.13262 0.46808 0.68116 0.0
H1456 H 0.11726 0.34269 0.74394 0.0
H1457 H 0.21134 0.35748 0.68994 0.0
H1458 H 0.07894 0.41282 0.70899 0.0
H1459 H 0.06357 0.37203 0.68954 0.0
H1460 H 0.07296 0.3773 0.73613 0.0
H1461 H 0.22118 0.40188 0.65093 0.0
H1462 H 0.18386 0.3915 0.6204 0.0
H1463 H 0.18978 0.43094 0.64476 0.0
H1464 H 0.07015 0.38726 0.57351 0.0
H1465 H 0.09296 0.48492 0.62526 0.0
H1466 H 0.09254 0.34026 0.64217 0.0
H1467 H 0.1313 0.34761 0.61917 0.0
H1468 H 0.08952 0.33966 0.59513 0.0
H1469 H 0.12089 0.46122 0.70593 0.0
H1470 H 0.13015 0.49481 0.67691 0.0
H1471 H 0.16065 0.46517 0.68451 0.0
C1472 C 0.70636 0.2294 0.64328 0.0
C1473 C 0.69474 0.22687 0.67698 0.0
C1474 C 0.68737 0.21126 0.6147 0.0
C1475 C 0.65703 0.18923 0.62054 0.0
C1476 C 0.64433 0.18822 0.65442 0.0
C1477 C 0.66327 0.20734 0.68219 0.0
C1478 C 0.70118 0.21409 0.5789 0.0
C1479 C 0.61243 0.16472 0.6621 0.0
C1480 C 0.59073 0.13835 0.55673 0.0
C1481 C 0.60147 0.10657 0.55957 0.0
C1482 C 0.61076 0.16684 0.57339 0.0
C1483 C 0.64173 0.1631 0.59353 0.0
C1484 C 0.65461 0.13179 0.59282 0.0
C1485 C 0.63444 0.10398 0.57556 0.0
C1486 C 0.59723 0.20024 0.57202 0.0
C1487 C 0.68779 0.12669 0.6135 0.0
H1488 H 0.73091 0.24453 0.6395 0.0
H1489 H 0.65476 0.20519 0.70847 0.0
H1490 H 0.71862 0.19473 0.57477 0.0
H1491 H 0.67981 0.21021 0.55796 0.0
H1492 H 0.71661 0.23898 0.57639 0.0
H1493 H 0.60489 0.16855 0.6893 0.0
H1494 H 0.59007 0.16821 0.64383 0.0
H1495 H 0.61759 0.13839 0.65824 0.0
H1496 H 0.5655 0.14067 0.54397 0.0
H1497 H 0.64333 0.0796 0.57698 0.0
H1498 H 0.61891 0.22084 0.57046 0.0
H1499 H 0.58405 0.205 0.59623 0.0
H1500 H 0.57814 0.20084 0.54931 0.0
H1501 H 0.70941 0.146 0.60777 0.0
H1502 H 0.69567 0.10158 0.60774 0.0
H1503 H 0.68404 0.12927 0.64189 0.0
C1504 C 0.79851 0.3208 0.35278 0.0
C1505 C 0.7967 0.32386 0.31641 0.0
C1506 C 0.82337 0.34153 0.37481 0.0
C1507 C 0.84742 0.36557 0.36012 0.0
C1508 C 0.84462 0.36992 0.32364 0.0
C1509 C 0.81909 0.34928 0.30231 0.0
C1510 C 0.82503 0.33648 0.41362 0.0
C1511 C 0.86997 0.39494 0.3068 0.0
C1512 C 0.90458 0.43241 0.41865 0.0
C1513 C 0.9354 0.41782 0.42353 0.0
C1514 C 0.87554 0.41562 0.39842 0.0
C1515 C 0.87751 0.38371 0.38229 0.0
C1516 C 0.90855 0.36892 0.38712 0.0
C1517 C 0.93693 0.386 0.40781 0.0
C1518 C 0.84277 0.43201 0.39431 0.0
C1519 C 0.91195 0.33511 0.37006 0.0
H1520 H 0.78122 0.30142 0.364 0.0
H1521 H 0.818 0.35191 0.27427 0.0
H1522 H 0.84877 0.32509 0.42123 0.0
H1523 H 0.82681 0.3609 0.42855 0.0
H1524 H 0.802 0.31985 0.42142 0.0
H1525 H 0.86266 0.39711 0.2786 0.0
H1526 H 0.87154 0.42002 0.3203 0.0
H1527 H 0.89637 0.38713 0.30933 0.0
H1528 H 0.90306 0.45692 0.43076 0.0
H1529 H 0.96063 0.37456 0.41117 0.0
H1530 H 0.82054 0.4154 0.40364 0.0
H1531 H 0.83646 0.4358 0.36628 0.0
H1532 H 0.8452 0.45663 0.40903 0.0
H1533 H 0.89193 0.31579 0.37909 0.0
H1534 H 0.93801 0.32729 0.37599 0.0
H1535 H 0.90739 0.33578 0.34127 0.0
C1536 C 0.68005 0.88311 0.34643 0.0
C1537 C 0.6739 0.84887 0.33639 0.0
C1538 C 0.65788 0.89768 0.36823 0.0
C1539 C 0.62898 0.87747 0.38037 0.0
C1540 C 0.62368 0.84259 0.37188 0.0
C1541 C 0.64623 0.82867 0.34993 0.0
C1542 C 0.6644 0.935 0.37678 0.0
C1543 C 0.59323 0.82026 0.38459 0.0
C1544 C 0.58169 0.9145 0.45323 0.0
C1545 C 0.55383 0.92598 0.4343 0.0
C1546 C 0.60609 0.89806 0.43614 0.0
C1547 C 0.60269 0.89338 0.39927 0.0
C1548 C 0.57452 0.90473 0.38006 0.0
C1549 C 0.55035 0.92077 0.39783 0.0
C1550 C 0.63566 0.88604 0.45746 0.0
C1551 C 0.57018 0.90038 0.34065 0.0
H1552 H 0.70156 0.89885 0.33632 0.0
H1553 H 0.64143 0.80216 0.34243 0.0
H1554 H 0.64317 0.9472 0.3641 0.0
H1555 H 0.66433 0.94029 0.40538 0.0
H1556 H 0.68959 0.94665 0.36775 0.0
H1557 H 0.59477 0.79328 0.37866 0.0
H1558 H 0.59192 0.82441 0.41322 0.0
H1559 H 0.56861 0.8266 0.37188 0.0
H1560 H 0.58441 0.91826 0.48147 0.0
H1561 H 0.52901 0.92974 0.38301 0.0
H1562 H 0.66083 0.89955 0.45051 0.0
H1563 H 0.63632 0.85897 0.4514 0.0
H1564 H 0.63349 0.88999 0.48604 0.0
H1565 H 0.5932 0.91373 0.32907 0.0
H1566 H 0.54648 0.9101 0.32971 0.0
H1567 H 0.56858 0.87347 0.3324 0.0
C1568 C 0.14219 0.67225 0.30808 0.0
C1569 C 0.17661 0.68748 0.31506 0.0
C1570 C 0.12692 0.64858 0.33019 0.0
C1571 C 0.14655 0.63994 0.36004 0.0
C1572 C 0.18201 0.65353 0.36593 0.0
C1573 C 0.19666 0.67718 0.34334 0.0
C1574 C 0.08908 0.63447 0.32281 0.0
C1575 C 0.20385 0.64473 0.39729 0.0
C1576 C 0.09072 0.61946 0.43549 0.0
C1577 C 0.085 0.58436 0.43265 0.0
C1578 C 0.11224 0.63772 0.41315 0.0
C1579 C 0.12851 0.62048 0.38723 0.0
C1580 C 0.12468 0.58499 0.38564 0.0
C1581 C 0.10296 0.56727 0.40849 0.0
C1582 C 0.11587 0.67555 0.416 0.0
C1583 C 0.14178 0.56572 0.35851 0.0
H1584 H 0.12666 0.67971 0.28601 0.0
H1585 H 0.22338 0.68864 0.34877 0.0
H1586 H 0.08562 0.60681 0.32424 0.0
H1587 H 0.07338 0.64463 0.34294 0.0
H1588 H 0.0786 0.64084 0.29668 0.0
H1589 H 0.23198 0.65335 0.39534 0.0
H1590 H 0.19538 0.65672 0.42131 0.0
H1591 H 0.20025 0.61727 0.40034 0.0
H1592 H 0.07728 0.6328 0.45445 0.0
H1593 H 0.09862 0.54012 0.40614 0.0
H1594 H 0.1031 0.68489 0.39234 0.0
H1595 H 0.14373 0.68628 0.41741 0.0
H1596 H 0.10387 0.68507 0.43934 0.0
H1597 H 0.12835 0.56764 0.33243 0.0
H1598 H 0.14067 0.53878 0.36409 0.0
H1599 H 0.1694 0.5765 0.35706 0.0
C1600 C 0.37877 0.19832 0.34462 0.0
C1601 C 0.34252 0.19235 0.34555 0.0
C1602 C 0.40028 0.18174 0.36683 0.0
C1603 C 0.38496 0.15918 0.39059 0.0
C1604 C 0.34859 0.15574 0.39385 0.0
C1605 C 0.32777 0.17217 0.37104 0.0
C1606 C 0.43895 0.186 0.36259 0.0
C1607 C 0.33126 0.13235 0.41919 0.0
C1608 C 0.42246 0.07854 0.40445 0.0
C1609 C 0.43902 0.08428 0.43803 0.0
C1610 C 0.40589 0.10326 0.38844 0.0
C1611 C 0.40538 0.13443 0.40669 0.0
C1612 C 0.42242 0.14066 0.44049 0.0
C1613 C 0.4394 0.11549 0.45573 0.0
C1614 C 0.38838 0.09569 0.35214 0.0
C1615 C 0.42192 0.17346 0.46081 0.0
H1616 H 0.39017 0.21411 0.32501 0.0
H1617 H 0.2997 0.1681 0.37223 0.0
H1618 H 0.4538 0.18792 0.3884 0.0
H1619 H 0.44571 0.16368 0.34788 0.0
H1620 H 0.44742 0.20856 0.34803 0.0
H1621 H 0.30403 0.13691 0.42276 0.0
H1622 H 0.33077 0.10606 0.40913 0.0
H1623 H 0.34604 0.13508 0.44506 0.0
H1624 H 0.42268 0.05465 0.39042 0.0
H1625 H 0.45222 0.11992 0.48174 0.0
H1626 H 0.39813 0.11523 0.33432 0.0
H1627 H 0.3599 0.09595 0.35298 0.0
H1628 H 0.3929 0.07089 0.34087 0.0
H1629 H 0.43079 0.19479 0.44476 0.0
H1630 H 0.43865 0.17534 0.48557 0.0
H1631 H 0.39488 0.17603 0.4672 0.0
C1632 C 0.67815 0.80397 0.63313 0.0
C1633 C 0.66794 0.79526 0.66633 0.0
C1634 C 0.65909 0.82421 0.61259 0.0
C1635 C 0.62906 0.83552 0.62556 0.0
C1636 C 0.61686 0.82405 0.6575 0.0
C1637 C 0.63659 0.80417 0.67762 0.0
C1638 C 0.67286 0.83589 0.57862 0.0
C1639 C 0.58462 0.83513 0.67195 0.0
C1640 C 0.60829 0.92253 0.60744 0.0
C1641 C 0.5791 0.91573 0.5836 0.0
C1642 C 0.62555 0.89662 0.6202 0.0
C1643 C 0.61339 0.86306 0.6088 0.0
C1644 C 0.58495 0.85604 0.58361 0.0
C1645 C 0.56808 0.88247 0.57131 0.0
C1646 C 0.65602 0.90513 0.64694 0.0
C1647 C 0.57151 0.82056 0.57068 0.0
H1648 H 0.70241 0.79717 0.62429 0.0
H1649 H 0.62845 0.79714 0.70312 0.0
H1650 H 0.65142 0.83536 0.55803 0.0
H1651 H 0.68552 0.8622 0.58255 0.0
H1652 H 0.69237 0.82033 0.5692 0.0
H1653 H 0.57605 0.82042 0.69445 0.0
H1654 H 0.59006 0.86196 0.68085 0.0
H1655 H 0.56291 0.83265 0.65141 0.0
H1656 H 0.61724 0.94807 0.61695 0.0
H1657 H 0.54582 0.87692 0.55254 0.0
H1658 H 0.67889 0.89381 0.63842 0.0
H1659 H 0.64926 0.89454 0.67225 0.0
H1660 H 0.66361 0.9326 0.65133 0.0
H1661 H 0.59325 0.80719 0.56271 0.0
H1662 H 0.5519 0.81965 0.54818 0.0
H1663 H 0.5593 0.80678 0.59215 0.0
C1664 C 0.68728 0.11286 0.32201 0.0
C1665 C 0.6853 0.14722 0.3269 0.0
C1666 C 0.66656 0.08948 0.34013 0.0
C1667 C 0.64313 0.10095 0.36313 0.0
C1668 C 0.64165 0.13566 0.36884 0.0
C1669 C 0.66305 0.15851 0.35072 0.0
C1670 C 0.66911 0.05261 0.33407 0.0
C1671 C 0.61679 0.1486 0.39329 0.0
C1672 C 0.56033 0.04805 0.38252 0.0
C1673 C 0.56805 0.04079 0.4173 0.0
C1674 C 0.58541 0.06613 0.3637 0.0
C1675 C 0.61883 0.07678 0.38014 0.0
C1676 C 0.62764 0.0672 0.41419 0.0
C1677 C 0.60203 0.04925 0.43246 0.0
C1678 C 0.57536 0.0759 0.32722 0.0
C1679 C 0.66331 0.07784 0.4322 0.0
H1680 H 0.70496 0.10419 0.30391 0.0
H1681 H 0.66167 0.18512 0.35447 0.0
H1682 H 0.67257 0.04067 0.35937 0.0
H1683 H 0.64456 0.03993 0.32052 0.0
H1684 H 0.69106 0.04817 0.31797 0.0
H1685 H 0.61969 0.17642 0.39549 0.0
H1686 H 0.58956 0.13918 0.38379 0.0
H1687 H 0.62115 0.1392 0.41976 0.0
H1688 H 0.53419 0.04127 0.37057 0.0
H1689 H 0.60829 0.04313 0.45918 0.0
H1690 H 0.5951 0.07013 0.30896 0.0
H1691 H 0.57443 0.10332 0.32738 0.0
H1692 H 0.54953 0.06284 0.31703 0.0
H1693 H 0.68395 0.07328 0.41452 0.0
H1694 H 0.66737 0.06444 0.45654 0.0
H1695 H 0.66647 0.10513 0.43909 0.0
C1696 C 0.8415 0.63561 0.2882 0.0
C1697 C 0.85454 0.66953 0.29484 0.0
C1698 C 0.8581 0.61039 0.30376 0.0
C1699 C 0.88764 0.61949 0.32734 0.0
C1700 C 0.90111 0.65375 0.33369 0.0
C1701 C 0.88466 0.67831 0.31694 0.0
C1702 C 0.84372 0.57412 0.29547 0.0
C1703 C 0.93212 0.66462 0.35922 0.0
C1704 C 0.90788 0.56942 0.40491 0.0
C1705 C 0.93984 0.55925 0.39696 0.0
C1706 C 0.88916 0.58692 0.38124 0.0
C1707 C 0.90245 0.59395 0.34847 0.0
C1708 C 0.93271 0.58054 0.33876 0.0
C1709 C 0.95128 0.56336 0.3633 0.0
C1710 C 0.85707 0.60073 0.39282 0.0
C1711 C 0.94705 0.58662 0.3036 0.0
H1712 H 0.81857 0.62879 0.2705 0.0
H1713 H 0.89482 0.70454 0.32196 0.0
H1714 H 0.86496 0.55943 0.28893 0.0
H1715 H 0.83192 0.56324 0.31872 0.0
H1716 H 0.82356 0.57112 0.27331 0.0
H1717 H 0.93984 0.69219 0.36052 0.0
H1718 H 0.92594 0.65677 0.38577 0.0
H1719 H 0.95471 0.65229 0.35173 0.0
H1720 H 0.89859 0.56565 0.43073 0.0
H1721 H 0.97588 0.55539 0.35698 0.0
H1722 H 0.83539 0.59553 0.37234 0.0
H1723 H 0.86287 0.62835 0.39713 0.0
H1724 H 0.8482 0.59006 0.41747 0.0
H1725 H 0.92575 0.58447 0.28263 0.0
H1726 H 0.96552 0.56874 0.29711 0.0
H1727 H 0.96114 0.6124 0.30393 0.0
C1728 C 0.31993 0.77106 0.37089 0.0
C1729 C 0.32961 0.77951 0.33753 0.0
C1730 C 0.33774 0.7878 0.40088 0.0
C1731 C 0.36551 0.81353 0.397 0.0
C1732 C 0.37695 0.82007 0.36326 0.0
C1733 C 0.35855 0.80314 0.33385 0.0
C1734 C 0.32501 0.77977 0.43631 0.0
C1735 C 0.40674 0.84699 0.3579 0.0
C1736 C 0.38138 0.8946 0.45087 0.0
C1737 C 0.41475 0.89301 0.46633 0.0
C1738 C 0.36324 0.86729 0.43092 0.0
C1739 C 0.37882 0.83761 0.42663 0.0
C1740 C 0.41036 0.83436 0.44598 0.0
C1741 C 0.42812 0.86227 0.46567 0.0
C1742 C 0.32934 0.87171 0.4112 0.0
C1743 C 0.42717 0.80271 0.44306 0.0
H1744 H 0.29717 0.7529 0.37343 0.0
H1745 H 0.36566 0.80966 0.30786 0.0
H1746 H 0.34702 0.7814 0.45646 0.0
H1747 H 0.3077 0.79821 0.44424 0.0
H1748 H 0.30996 0.75435 0.43586 0.0
H1749 H 0.41462 0.84645 0.33054 0.0
H1750 H 0.39891 0.87198 0.36421 0.0
H1751 H 0.42969 0.84405 0.37566 0.0
H1752 H 0.37064 0.91816 0.45193 0.0
H1753 H 0.45382 0.86077 0.4778 0.0
H1754 H 0.30958 0.84963 0.41358 0.0
H1755 H 0.33363 0.87395 0.38301 0.0
H1756 H 0.3187 0.89449 0.42072 0.0
H1757 H 0.40734 0.78018 0.4414 0.0
H1758 H 0.44608 0.80097 0.46565 0.0
H1759 H 0.44139 0.80262 0.41885 0.0
C1760 C 0.17933 0.35813 0.29804 0.0
C1761 C 0.16983 0.32454 0.30561 0.0
C1762 C 0.16267 0.38386 0.31289 0.0
C1763 C 0.13667 0.37588 0.33664 0.0
C1764 C 0.1275 0.342 0.34475 0.0
C1765 C 0.14384 0.31678 0.3288 0.0
C1766 C 0.17245 0.41945 0.30275 0.0
C1767 C 0.10048 0.33233 0.37048 0.0
C1768 C 0.11673 0.43565 0.40896 0.0
C1769 C 0.08264 0.441 0.39863 0.0
C1770 C 0.13572 0.41661 0.38774 0.0
C1771 C 0.12043 0.40274 0.35506 0.0
C1772 C 0.08742 0.41099 0.34287 0.0
C1773 C 0.06876 0.43001 0.36493 0.0
C1774 C 0.17073 0.40861 0.40195 0.0
C1775 C 0.07057 0.39744 0.30779 0.0
H1776 H 0.19885 0.36418 0.27948 0.0
H1777 H 0.13627 0.29083 0.33451 0.0
H1778 H 0.14906 0.42936 0.29141 0.0
H1779 H 0.1823 0.43568 0.32623 0.0
H1780 H 0.19265 0.42143 0.28339 0.0
H1781 H 0.0964 0.30491 0.37399 0.0
H1782 H 0.10857 0.34537 0.3963 0.0
H1783 H 0.07525 0.34031 0.36144 0.0
H1784 H 0.12766 0.44438 0.43493 0.0
H1785 H 0.04237 0.43392 0.35689 0.0
H1786 H 0.19014 0.41207 0.38196 0.0
H1787 H 0.16832 0.38196 0.40882 0.0
H1788 H 0.18076 0.42448 0.42571 0.0
H1789 H 0.0899 0.39874 0.28762 0.0
H1790 H 0.04887 0.41133 0.29914 0.0
H1791 H 0.05995 0.37071 0.30962 0.0
C1792 C 0.32767 0.12124 0.67168 0.0
C1793 C 0.33153 0.15627 0.67628 0.0
C1794 C 0.35251 0.10507 0.65499 0.0
C1795 C 0.38192 0.12442 0.64272 0.0
C1796 C 0.38564 0.1598 0.64666 0.0
C1797 C 0.36033 0.17533 0.66332 0.0
C1798 C 0.34754 0.06726 0.65095 0.0
C1799 C 0.4167 0.18123 0.63387 0.0
C1800 C 0.46234 0.08185 0.62982 0.0
C1801 C 0.45937 0.07475 0.59359 0.0
C1802 C 0.43736 0.09817 0.64618 0.0
C1803 C 0.40886 0.10762 0.62579 0.0
C1804 C 0.4059 0.10082 0.5892 0.0
C1805 C 0.43115 0.08446 0.57356 0.0
C1806 C 0.44131 0.10508 0.68532 0.0
C1807 C 0.37592 0.11057 0.56656 0.0
H1808 H 0.30546 0.10634 0.68158 0.0
H1809 H 0.36358 0.2024 0.66689 0.0
H1810 H 0.34753 0.05913 0.62296 0.0
H1811 H 0.36952 0.05723 0.66499 0.0
H1812 H 0.32283 0.05592 0.66125 0.0
H1813 H 0.4154 0.20844 0.6384 0.0
H1814 H 0.44099 0.17508 0.64744 0.0
H1815 H 0.41848 0.17586 0.60549 0.0
H1816 H 0.48396 0.07433 0.64548 0.0
H1817 H 0.42867 0.07928 0.5455 0.0
H1818 H 0.41851 0.09205 0.69752 0.0
H1819 H 0.44203 0.1323 0.69161 0.0
H1820 H 0.46532 0.09671 0.69731 0.0
H1821 H 0.35096 0.0976 0.57471 0.0
H1822 H 0.37793 0.10419 0.53836 0.0
H1823 H 0.37491 0.1379 0.56997 0.0
C1824 C 0.8756 0.34239 0.6858 0.0
C1825 C 0.84325 0.32301 0.67738 0.0
C1826 C 0.89113 0.36402 0.66189 0.0
C1827 C 0.87384 0.36657 0.6287 0.0
C1828 C 0.84015 0.34879 0.62087 0.0
C1829 C 0.82525 0.32709 0.64528 0.0
C1830 C 0.9271 0.38248 0.67138 0.0
C1831 C 0.82067 0.35126 0.58599 0.0
C1832 C 0.91719 0.43601 0.57568 0.0
C1833 C 0.93951 0.41855 0.55662 0.0
C1834 C 0.89394 0.41919 0.59782 0.0
C1835 C 0.8932 0.38419 0.60104 0.0
C1836 C 0.91415 0.36624 0.58025 0.0
C1837 C 0.93685 0.38358 0.55824 0.0
C1838 C 0.87167 0.43917 0.61916 0.0
C1839 C 0.9143 0.32894 0.58286 0.0
H1840 H 0.88955 0.33976 0.71068 0.0
H1841 H 0.80011 0.31243 0.63865 0.0
H1842 H 0.94611 0.37223 0.65484 0.0
H1843 H 0.92785 0.40944 0.66627 0.0
H1844 H 0.93564 0.3802 0.69926 0.0
H1845 H 0.79296 0.3401 0.58592 0.0
H1846 H 0.82178 0.37781 0.579 0.0
H1847 H 0.83311 0.33786 0.56534 0.0
H1848 H 0.91888 0.463 0.5745 0.0
H1849 H 0.95361 0.36973 0.54332 0.0
H1850 H 0.88223 0.44156 0.64682 0.0
H1851 H 0.84464 0.42618 0.61862 0.0
H1852 H 0.87102 0.46476 0.60962 0.0
H1853 H 0.92512 0.32374 0.60924 0.0
H1854 H 0.93012 0.31834 0.56307 0.0
H1855 H 0.88738 0.31565 0.57943 0.0
C1856 C 0.22514 0.68159 0.65001 0.0
C1857 C 0.21496 0.69011 0.68336 0.0
C1858 C 0.2038 0.65811 0.6272 0.0
C1859 C 0.17152 0.64275 0.63797 0.0
C1860 C 0.16222 0.6497 0.67237 0.0
C1861 C 0.18382 0.67342 0.69441 0.0
C1862 C 0.21486 0.65123 0.59087 0.0
C1863 C 0.12822 0.63389 0.68521 0.0
C1864 C 0.09456 0.62165 0.57116 0.0
C1865 C 0.09116 0.58651 0.56784 0.0
C1866 C 0.1212 0.64009 0.59303 0.0
C1867 C 0.14538 0.62317 0.61218 0.0
C1868 C 0.14292 0.58778 0.60813 0.0
C1869 C 0.11585 0.56986 0.58601 0.0
C1870 C 0.12266 0.67776 0.59655 0.0
C1871 C 0.16819 0.56878 0.62799 0.0
H1872 H 0.24913 0.69427 0.64118 0.0
H1873 H 0.17521 0.68015 0.71975 0.0
H1874 H 0.21117 0.6239 0.58412 0.0
H1875 H 0.19836 0.66304 0.57162 0.0
H1876 H 0.24252 0.6613 0.58813 0.0
H1877 H 0.12705 0.6383 0.71388 0.0
H1878 H 0.10635 0.6446 0.67175 0.0
H1879 H 0.12423 0.60649 0.67896 0.0
H1880 H 0.07589 0.6349 0.55712 0.0
H1881 H 0.11353 0.54275 0.58372 0.0
H1882 H 0.14882 0.69 0.59085 0.0
H1883 H 0.1182 0.68548 0.62383 0.0
H1884 H 0.1029 0.68723 0.57871 0.0
H1885 H 0.19536 0.57935 0.62381 0.0
H1886 H 0.16441 0.54165 0.62004 0.0
H1887 H 0.16483 0.5715 0.65643 0.0
loop_
_geom_bond_atom_site_label_1
_geom_bond_atom_site_label_2
_geom_bond_distance
_geom_bond_site_symmetry_2
_ccdc_geom_bond_type
Zn0 O6 1.969 . S
Zn0 O7 1.965 . S
Zn0 O11 2.024 . S
Zn0 O16 1.969 . S
Zn1 O8 1.969 . S
Zn1 O14 1.969 . S
Zn1 O15 1.965 . S
Zn1 O17 2.024 . S
C2 O3 1.229 . S
C2 O11 1.058 . S
O3 C2 1.229 . S
C4 O5 1.229 . S
C4 O17 1.058 . S
O5 C4 1.229 . S
O6 Zn0 1.969 . S
O6 C9 1.267 . S
O7 Zn0 1.965 . S
O7 C18 1.260 . S
O8 Zn1 1.969 . S
O8 C18 1.258 . S
C9 O6 1.267 . S
C9 O10 1.228 . S
O10 C9 1.228 . S
O11 Zn0 2.024 . S
O11 C2 1.058 . S
C12 O13 1.228 . S
C12 O14 1.267 . S
O13 C12 1.228 . S
O14 Zn1 1.969 . S
O14 C12 1.267 . S
O15 Zn1 1.965 . S
O15 C19 1.260 . S
O16 Zn0 1.969 . S
O16 C19 1.258 . S
O17 Zn1 2.024 . S
O17 C4 1.058 . S
C18 O7 1.260 . S
C18 O8 1.258 . S
C19 O15 1.260 . S
C19 O16 1.258 . S
Zn20 O26 1.969 . S
Zn20 O27 1.965 . S
Zn20 O31 2.024 . S
Zn20 O36 1.969 . S
Zn21 O28 1.969 . S
Zn21 O34 1.969 . S
Zn21 O35 1.965 . S
Zn21 O37 2.024 . S
C22 O23 1.229 . S
C22 O31 1.058 . S
O23 C22 1.229 . S
C24 O25 1.229 . S
C24 O37 1.058 . S
O25 C24 1.229 . S
O26 Zn20 1.969 . S
O26 C29 1.267 . S
O27 Zn20 1.965 . S
O27 C38 1.260 . S
O28 Zn21 1.969 . S
O28 C38 1.258 . S
C29 O26 1.267 . S
C29 O30 1.228 . S
O30 C29 1.228 . S
O31 Zn20 2.024 . S
O31 C22 1.058 . S
C32 O33 1.228 . S
C32 O34 1.267 . S
O33 C32 1.228 . S
O34 Zn21 1.969 . S
O34 C32 1.267 . S
O35 Zn21 1.965 . S
O35 C39 1.260 . S
O36 Zn20 1.969 . S
O36 C39 1.258 . S
O37 Zn21 2.024 . S
O37 C24 1.058 . S
C38 O27 1.260 . S
C38 O28 1.258 . S
C39 O35 1.260 . S
C39 O36 1.258 . S
Zn40 O46 1.969 . S
Zn40 O47 1.965 . S
Zn40 O51 2.024 . S
Zn40 O56 1.969 . S
Zn41 O48 1.969 . S
Zn41 O54 1.969 . S
Zn41 O55 1.965 . S
Zn41 O57 2.024 . S
C42 O43 1.229 . S
C42 O51 1.058 . S
O43 C42 1.229 . S
C44 O45 1.229 . S
C44 O57 1.058 . S
O45 C44 1.229 . S
O46 Zn40 1.969 . S
O46 C49 1.267 . S
O47 Zn40 1.965 . S
O47 C58 1.260 . S
O48 Zn41 1.969 . S
O48 C58 1.258 . S
C49 O46 1.267 . S
C49 O50 1.228 . S
O50 C49 1.228 . S
O51 Zn40 2.024 . S
O51 C42 1.058 . S
C52 O53 1.228 . S
C52 O54 1.267 . S
O53 C52 1.228 . S
O54 Zn41 1.969 . S
O54 C52 1.267 . S
O55 Zn41 1.965 . S
O55 C59 1.260 . S
O56 Zn40 1.969 . S
O56 C59 1.258 . S
O57 Zn41 2.024 . S
O57 C44 1.058 . S
C58 O47 1.260 . S
C58 O48 1.258 . S
C59 O55 1.260 . S
C59 O56 1.258 . S
Zn60 O66 1.969 . S
Zn60 O67 1.965 . S
Zn60 O71 2.024 . S
Zn60 O76 1.969 . S
Zn61 O68 1.969 . S
Zn61 O74 1.969 . S
Zn61 O75 1.965 . S
Zn61 O77 2.024 . S
C62 O63 1.229 . S
C62 O71 1.058 . S
O63 C62 1.229 . S
C64 O65 1.229 . S
C64 O77 1.058 . S
O65 C64 1.229 . S
O66 Zn60 1.969 . S
O66 C69 1.267 . S
O67 Zn60 1.965 . S
O67 C78 1.260 . S
O68 Zn61 1.969 . S
O68 C78 1.258 . S
C69 O66 1.267 . S
C69 O70 1.228 . S
O70 C69 1.228 . S
O71 Zn60 2.024 . S
O71 C62 1.058 . S
C72 O73 1.228 . S
C72 O74 1.267 . S
O73 C72 1.228 . S
O74 Zn61 1.969 . S
O74 C72 1.267 . S
O75 Zn61 1.965 . S
O75 C79 1.260 . S
O76 Zn60 1.969 . S
O76 C79 1.258 . S
O77 Zn61 2.024 . S
O77 C64 1.058 . S
C78 O67 1.260 . S
C78 O68 1.258 . S
C79 O75 1.260 . S
C79 O76 1.258 . S
Zn80 O86 1.969 . S
Zn80 O87 1.965 . S
Zn80 O91 2.024 . S
Zn80 O96 1.969 . S
Zn81 O88 1.969 . S
Zn81 O94 1.969 . S
Zn81 O95 1.965 . S
Zn81 O97 2.024 . S
C82 O83 1.229 . S
C82 O91 1.058 . S
O83 C82 1.229 . S
C84 O85 1.229 . S
C84 O97 1.058 . S
O85 C84 1.229 . S
O86 Zn80 1.969 . S
O86 C89 1.267 . S
O87 Zn80 1.965 . S
O87 C98 1.260 . S
O88 Zn81 1.969 . S
O88 C98 1.258 . S
C89 O86 1.267 . S
C89 O90 1.228 . S
O90 C89 1.228 . S
O91 Zn80 2.024 . S
O91 C82 1.058 . S
C92 O93 1.228 . S
C92 O94 1.267 . S
O93 C92 1.228 . S
O94 Zn81 1.969 . S
O94 C92 1.267 . S
O95 Zn81 1.965 . S
O95 C99 1.260 . S
O96 Zn80 1.969 . S
O96 C99 1.258 . S
O97 Zn81 2.024 . S
O97 C84 1.058 . S
C98 O87 1.260 . S
C98 O88 1.258 . S
C99 O95 1.260 . S
C99 O96 1.258 . S
Zn100 O106 1.969 . S
Zn100 O107 1.965 . S
Zn100 O111 2.024 . S
Zn100 O116 1.969 . S
Zn101 O108 1.969 . S
Zn101 O114 1.969 . S
Zn101 O115 1.965 . S
Zn101 O117 2.024 . S
C102 O103 1.229 . S
C102 O111 1.058 . S
O103 C102 1.229 . S
C104 O105 1.229 . S
C104 O117 1.058 . S
O105 C104 1.229 . S
O106 Zn100 1.969 . S
O106 C109 1.267 . S
O107 Zn100 1.965 . S
O107 C118 1.260 . S
O108 Zn101 1.969 . S
O108 C118 1.258 . S
C109 O106 1.267 . S
C109 O110 1.228 . S
O110 C109 1.228 . S
O111 Zn100 2.024 . S
O111 C102 1.058 . S
C112 O113 1.228 . S
C112 O114 1.267 . S
O113 C112 1.228 . S
O114 Zn101 1.969 . S
O114 C112 1.267 . S
O115 Zn101 1.965 . S
O115 C119 1.260 . S
O116 Zn100 1.969 . S
O116 C119 1.258 . S
O117 Zn101 2.024 . S
O117 C104 1.058 . S
C118 O107 1.260 . S
C118 O108 1.258 . S
C119 O115 1.260 . S
C119 O116 1.258 . S
Zn120 O126 1.969 . S
Zn120 O127 1.965 . S
Zn120 O131 2.024 . S
Zn120 O136 1.969 . S
Zn121 O128 1.969 . S
Zn121 O134 1.969 . S
Zn121 O135 1.965 . S
Zn121 O137 2.024 . S
C122 O123 1.229 . S
C122 O131 1.058 . S
O123 C122 1.229 . S
C124 O125 1.229 . S
C124 O137 1.058 . S
O125 C124 1.229 . S
O126 Zn120 1.969 . S
O126 C129 1.267 . S
O127 Zn120 1.965 . S
O127 C138 1.260 . S
O128 Zn121 1.969 . S
O128 C138 1.258 . S
C129 O126 1.267 . S
C129 O130 1.228 . S
O130 C129 1.228 . S
O131 Zn120 2.024 . S
O131 C122 1.058 . S
C132 O133 1.228 . S
C132 O134 1.267 . S
O133 C132 1.228 . S
O134 Zn121 1.969 . S
O134 C132 1.267 . S
O135 Zn121 1.965 . S
O135 C139 1.260 . S
O136 Zn120 1.969 . S
O136 C139 1.258 . S
O137 Zn121 2.024 . S
O137 C124 1.058 . S
C138 O127 1.260 . S
C138 O128 1.258 . S
C139 O135 1.260 . S
C139 O136 1.258 . S
Zn140 O146 1.969 . S
Zn140 O147 1.965 . S
Zn140 O151 2.024 . S
Zn140 O156 1.969 . S
Zn141 O148 1.969 . S
Zn141 O154 1.969 . S
Zn141 O155 1.965 . S
Zn141 O157 2.024 . S
C142 O143 1.229 . S
C142 O151 1.058 . S
O143 C142 1.229 . S
C144 O145 1.229 . S
C144 O157 1.058 . S
O145 C144 1.229 . S
O146 Zn140 1.969 . S
O146 C149 1.267 . S
O147 Zn140 1.965 . S
O147 C158 1.260 . S
O148 Zn141 1.969 . S
O148 C158 1.258 . S
C149 O146 1.267 . S
C149 O150 1.228 . S
O150 C149 1.228 . S
O151 Zn140 2.024 . S
O151 C142 1.058 . S
C152 O153 1.228 . S
C152 O154 1.267 . S
O153 C152 1.228 . S
O154 Zn141 1.969 . S
O154 C152 1.267 . S
O155 Zn141 1.965 . S
O155 C159 1.260 . S
O156 Zn140 1.969 . S
O156 C159 1.258 . S
O157 Zn141 2.024 . S
O157 C144 1.058 . S
C158 O147 1.260 . S
C158 O148 1.258 . S
C159 O155 1.260 . S
C159 O156 1.258 . S
Fe160 O161 1.886 1_455 S
Fe160 O164 1.715 . S
Fe160 O169 2.077 1_455 S
Fe160 O174 1.935 . S
Fe160 O180 2.077 1_455 S
Fe160 O189 1.935 . S
O161 Fe160 1.886 1_655 S
O161 Fe163 1.715 1_545 S
Fe162 O164 1.886 . S
Fe162 O165 1.715 1_545 S
Fe162 O172 1.935 1_545 S
Fe162 O173 2.077 . S
Fe162 O179 1.935 1_545 S
Fe162 O188 2.077 . S
Fe163 O161 1.715 1_565 S
Fe163 O166 1.886 . S
Fe163 O170 1.935 1_565 S
Fe163 O175 2.077 . S
Fe163 O181 1.935 1_565 S
Fe163 O185 2.077 . S
O164 Fe160 1.715 . S
O164 Fe162 1.886 . S
O165 Fe162 1.715 1_565 S
O165 Fe167 1.886 1_455 S
O166 Fe163 1.886 . S
O166 Fe167 1.715 . S
Fe167 O165 1.886 1_655 S
Fe167 O166 1.715 . S
Fe167 O171 2.077 1_655 S
Fe167 O176 1.935 . S
Fe167 O178 2.077 1_655 S
Fe167 O186 1.935 . S
C168 O180 1.381 . S
C168 O181 1.421 . S
O169 Fe160 2.077 1_655 S
O169 C182 1.381 . S
O170 Fe163 1.935 1_545 S
O170 C182 1.421 . S
O171 Fe167 2.077 1_455 S
O171 C187 1.381 . S
O172 Fe162 1.935 1_565 S
O172 C187 1.421 . S
O173 Fe162 2.077 . S
O173 C177 1.381 . S
O174 Fe160 1.935 . S
O174 C177 1.421 . S
O175 Fe163 2.077 . S
O175 C183 1.381 . S
O176 Fe167 1.935 . S
O176 C183 1.421 . S
C177 O173 1.381 . S
C177 O174 1.421 . S
O178 Fe167 2.077 1_455 S
O178 C190 1.381 . S
O179 Fe162 1.935 1_565 S
O179 C190 1.421 . S
O180 Fe160 2.077 1_655 S
O180 C168 1.381 . S
O181 Fe163 1.935 1_545 S
O181 C168 1.421 . S
C182 O169 1.381 . S
C182 O170 1.421 . S
C183 O175 1.381 . S
C183 O176 1.421 . S
C184 O185 1.381 . S
C184 O186 1.421 . S
O185 Fe163 2.077 . S
O185 C184 1.381 . S
O186 Fe167 1.935 . S
O186 C184 1.421 . S
C187 O171 1.381 . S
C187 O172 1.421 . S
O188 Fe162 2.077 . S
O188 C191 1.381 . S
O189 Fe160 1.935 . S
O189 C191 1.421 . S
C190 O178 1.381 . S
C190 O179 1.421 . S
C191 O188 1.381 . S
C191 O189 1.421 . S
Fe192 O193 1.887 1_556 S
Fe192 O196 1.715 . S
Fe192 O201 2.077 . S
Fe192 O206 1.935 . S
Fe192 O212 2.077 1_556 S
Fe192 O221 1.935 1_556 S
O193 Fe192 1.887 1_554 S
O193 Fe195 1.714 1_565 S
Fe194 O196 1.886 . S
Fe194 O197 1.715 1_565 S
Fe194 O204 1.935 1_565 S
Fe194 O205 2.077 . S
Fe194 O211 1.935 1_566 S
Fe194 O220 2.077 1_556 S
Fe195 O193 1.714 1_545 S
Fe195 O198 1.886 . S
Fe195 O202 1.935 1_544 S
Fe195 O207 2.077 1_554 S
Fe195 O213 1.935 1_545 S
Fe195 O217 2.077 . S
O196 Fe192 1.715 . S
O196 Fe194 1.886 . S
O197 Fe194 1.715 1_545 S
O197 Fe199 1.886 1_556 S
O198 Fe195 1.886 . S
O198 Fe199 1.715 . S
Fe199 O197 1.886 1_554 S
Fe199 O198 1.715 . S
Fe199 O203 2.077 1_554 S
Fe199 O208 1.935 1_554 S
Fe199 O210 2.077 . S
Fe199 O218 1.935 . S
C200 O212 1.381 . S
C200 O213 1.421 . S
O201 Fe192 2.077 . S
O201 C214 1.381 . S
O202 Fe195 1.935 1_566 S
O202 C214 1.421 . S
O203 Fe199 2.077 1_556 S
O203 C219 1.381 . S
O204 Fe194 1.935 1_545 S
O204 C219 1.421 . S
O205 Fe194 2.077 . S
O205 C209 1.381 . S
O206 Fe192 1.935 . S
O206 C209 1.421 . S
O207 Fe195 2.077 1_556 S
O207 C215 1.381 . S
O208 Fe199 1.935 1_556 S
O208 C215 1.421 . S
C209 O205 1.381 . S
C209 O206 1.421 . S
O210 Fe199 2.077 . S
O210 C222 1.381 . S
O211 Fe194 1.935 1_544 S
O211 C222 1.421 . S
O212 Fe192 2.077 1_554 S
O212 C200 1.381 . S
O213 Fe195 1.935 1_565 S
O213 C200 1.421 . S
C214 O201 1.381 . S
C214 O202 1.421 . S
C215 O207 1.381 . S
C215 O208 1.421 . S
C216 O217 1.381 . S
C216 O218 1.421 . S
O217 Fe195 2.077 . S
O217 C216 1.381 . S
O218 Fe199 1.935 . S
O218 C216 1.421 . S
C219 O203 1.381 . S
C219 O204 1.421 . S
O220 Fe194 2.077 1_554 S
O220 C223 1.381 . S
O221 Fe192 1.935 1_554 S
O221 C223 1.421 . S
C222 O210 1.381 . S
C222 O211 1.421 . S
C223 O220 1.381 . S
C223 O221 1.421 . S
Fe224 O225 1.886 1_454 S
Fe224 O228 1.715 . S
Fe224 O233 2.077 1_454 S
Fe224 O238 1.935 1_554 S
Fe224 O244 2.077 1_455 S
Fe224 O253 1.935 . S
O225 Fe224 1.886 1_656 S
O225 Fe227 1.715 . S
Fe226 O228 1.886 . S
Fe226 O229 1.714 . S
Fe226 O236 1.935 1_554 S
Fe226 O237 2.077 1_554 S
Fe226 O243 1.935 . S
Fe226 O252 2.077 . S
Fe227 O225 1.715 . S
Fe227 O230 1.886 . S
Fe227 O234 1.935 . S
Fe227 O239 2.077 . S
Fe227 O245 1.935 1_556 S
Fe227 O249 2.077 1_556 S
O228 Fe224 1.715 . S
O228 Fe226 1.886 . S
O229 Fe226 1.714 . S
O229 Fe231 1.887 1_454 S
O230 Fe227 1.886 . S
O230 Fe231 1.715 . S
Fe231 O229 1.887 1_656 S
Fe231 O230 1.715 . S
Fe231 O235 2.077 1_655 S
Fe231 O240 1.935 . S
Fe231 O242 2.077 1_656 S
Fe231 O250 1.935 1_556 S
C232 O244 1.381 . S
C232 O245 1.421 . S
O233 Fe224 2.077 1_656 S
O233 C246 1.381 . S
O234 Fe227 1.935 . S
O234 C246 1.421 . S
O235 Fe231 2.077 1_455 S
O235 C251 1.381 . S
O236 Fe226 1.935 1_556 S
O236 C251 1.421 . S
O237 Fe226 2.077 1_556 S
O237 C241 1.381 . S
O238 Fe224 1.935 1_556 S
O238 C241 1.421 . S
O239 Fe227 2.077 . S
O239 C247 1.381 . S
O240 Fe231 1.935 . S
O240 C247 1.421 . S
C241 O237 1.381 . S
C241 O238 1.421 . S
O242 Fe231 2.077 1_454 S
O242 C254 1.381 . S
O243 Fe226 1.935 . S
O243 C254 1.421 . S
O244 Fe224 2.077 1_655 S
O244 C232 1.381 . S
O245 Fe227 1.935 1_554 S
O245 C232 1.421 . S
C246 O233 1.381 . S
C246 O234 1.421 . S
C247 O239 1.381 . S
C247 O240 1.421 . S
C248 O249 1.381 . S
C248 O250 1.421 . S
O249 Fe227 2.077 1_554 S
O249 C248 1.381 . S
O250 Fe231 1.935 1_554 S
O250 C248 1.421 . S
C251 O235 1.381 . S
C251 O236 1.421 . S
O252 Fe226 2.077 . S
O252 C255 1.381 . S
O253 Fe224 1.935 . S
O253 C255 1.421 . S
C254 O242 1.381 . S
C254 O243 1.421 . S
C255 O252 1.381 . S
C255 O253 1.421 . S
Fe256 O257 1.886 . S
Fe256 O260 1.715 . S
Fe256 O265 2.077 . S
Fe256 O270 1.935 . S
Fe256 O276 2.077 . S
Fe256 O285 1.935 . S
O257 Fe256 1.886 . S
O257 Fe259 1.715 1_556 S
Fe258 O260 1.886 . S
Fe258 O261 1.715 1_556 S
Fe258 O268 1.935 1_556 S
Fe258 O269 2.077 . S
Fe258 O275 1.935 1_556 S
Fe258 O284 2.077 . S
Fe259 O257 1.715 1_554 S
Fe259 O262 1.886 . S
Fe259 O266 1.935 1_554 S
Fe259 O271 2.077 . S
Fe259 O277 1.935 1_554 S
Fe259 O281 2.077 . S
O260 Fe256 1.715 . S
O260 Fe258 1.886 . S
O261 Fe258 1.715 1_554 S
O261 Fe263 1.886 . S
O262 Fe259 1.886 . S
O262 Fe263 1.715 . S
Fe263 O261 1.886 . S
Fe263 O262 1.715 . S
Fe263 O267 2.077 . S
Fe263 O272 1.935 . S
Fe263 O274 2.077 . S
Fe263 O282 1.935 . S
C264 O276 1.381 . S
C264 O277 1.421 . S
O265 Fe256 2.077 . S
O265 C278 1.381 . S
O266 Fe259 1.935 1_556 S
O266 C278 1.421 . S
O267 Fe263 2.077 . S
O267 C283 1.381 . S
O268 Fe258 1.935 1_554 S
O268 C283 1.421 . S
O269 Fe258 2.077 . S
O269 C273 1.381 . S
O270 Fe256 1.935 . S
O270 C273 1.421 . S
O271 Fe259 2.077 . S
O271 C279 1.381 . S
O272 Fe263 1.935 . S
O272 C279 1.421 . S
C273 O269 1.381 . S
C273 O270 1.421 . S
O274 Fe263 2.077 . S
O274 C286 1.381 . S
O275 Fe258 1.935 1_554 S
O275 C286 1.421 . S
O276 Fe256 2.077 . S
O276 C264 1.381 . S
O277 Fe259 1.935 1_556 S
O277 C264 1.421 . S
C278 O265 1.381 . S
C278 O266 1.421 . S
C279 O271 1.381 . S
C279 O272 1.421 . S
C280 O281 1.381 . S
C280 O282 1.421 . S
O281 Fe259 2.077 . S
O281 C280 1.381 . S
O282 Fe263 1.935 . S
O282 C280 1.421 . S
C283 O267 1.381 . S
C283 O268 1.421 . S
O284 Fe258 2.077 . S
O284 C287 1.381 . S
O285 Fe256 1.935 . S
O285 C287 1.421 . S
C286 O274 1.381 . S
C286 O275 1.421 . S
C287 O284 1.381 . S
C287 O285 1.421 . S
Fe288 O289 1.885 . S
Fe288 O292 1.715 . S
Fe288 O297 2.077 1_655 S
Fe288 O302 1.935 1_655 S
Fe288 O308 2.077 . S
Fe288 O317 1.935 . S
O289 Fe288 1.885 . S
O289 Fe291 1.716 1_655 S
Fe290 O292 1.886 . S
Fe290 O293 1.717 1_655 S
Fe290 O300 1.935 1_655 S
Fe290 O301 2.077 1_655 S
Fe290 O307 1.935 . S
Fe290 O316 2.077 . S
Fe291 O289 1.716 1_455 S
Fe291 O294 1.886 . S
Fe291 O298 1.935 . S
Fe291 O303 2.077 . S
Fe291 O309 1.935 1_455 S
Fe291 O313 2.077 1_455 S
O292 Fe288 1.715 . S
O292 Fe290 1.886 . S
O293 Fe290 1.717 1_455 S
O293 Fe295 1.884 . S
O294 Fe291 1.886 . S
O294 Fe295 1.715 . S
Fe295 O293 1.884 . S
Fe295 O294 1.715 . S
Fe295 O299 2.077 . S
Fe295 O304 1.935 . S
Fe295 O306 2.077 1_455 S
Fe295 O314 1.935 1_455 S
C296 O308 1.381 . S
C296 O309 1.421 . S
O297 Fe288 2.077 1_455 S
O297 C310 1.381 . S
O298 Fe291 1.935 . S
O298 C310 1.421 . S
O299 Fe295 2.077 . S
O299 C315 1.381 . S
O300 Fe290 1.935 1_455 S
O300 C315 1.421 . S
O301 Fe290 2.077 1_455 S
O301 C305 1.381 . S
O302 Fe288 1.935 1_455 S
O302 C305 1.421 . S
O303 Fe291 2.077 . S
O303 C311 1.381 . S
O304 Fe295 1.935 . S
O304 C311 1.421 . S
C305 O301 1.381 . S
C305 O302 1.421 . S
O306 Fe295 2.077 1_655 S
O306 C318 1.381 . S
O307 Fe290 1.935 . S
O307 C318 1.421 . S
O308 Fe288 2.077 . S
O308 C296 1.381 . S
O309 Fe291 1.935 1_655 S
O309 C296 1.421 . S
C310 O297 1.381 . S
C310 O298 1.421 . S
C311 O303 1.381 . S
C311 O304 1.421 . S
C312 O313 1.381 . S
C312 O314 1.421 . S
O313 Fe291 2.077 1_655 S
O313 C312 1.381 . S
O314 Fe295 1.935 1_655 S
O314 C312 1.421 . S
C315 O299 1.381 . S
C315 O300 1.421 . S
O316 Fe290 2.077 . S
O316 C319 1.381 . S
O317 Fe288 1.935 . S
O317 C319 1.421 . S
C318 O306 1.381 . S
C318 O307 1.421 . S
C319 O316 1.381 . S
C319 O317 1.421 . S
Fe320 O321 1.886 . S
Fe320 O324 1.715 . S
Fe320 O329 2.077 . S
Fe320 O334 1.935 . S
Fe320 O340 2.077 . S
Fe320 O349 1.935 . S
O321 Fe320 1.886 . S
O321 Fe323 1.715 1_565 S
Fe322 O324 1.886 . S
Fe322 O325 1.715 1_565 S
Fe322 O332 1.935 1_565 S
Fe322 O333 2.077 . S
Fe322 O339 1.935 1_565 S
Fe322 O348 2.077 . S
Fe323 O321 1.715 1_545 S
Fe323 O326 1.886 . S
Fe323 O330 1.935 1_545 S
Fe323 O335 2.077 . S
Fe323 O341 1.935 1_545 S
Fe323 O345 2.077 . S
O324 Fe320 1.715 . S
O324 Fe322 1.886 . S
O325 Fe322 1.715 1_545 S
O325 Fe327 1.886 . S
O326 Fe323 1.886 . S
O326 Fe327 1.715 . S
Fe327 O325 1.886 . S
Fe327 O326 1.715 . S
Fe327 O331 2.077 . S
Fe327 O336 1.935 . S
Fe327 O338 2.077 . S
Fe327 O346 1.935 . S
C328 O340 1.381 . S
C328 O341 1.421 . S
O329 Fe320 2.077 . S
O329 C342 1.381 . S
O330 Fe323 1.935 1_565 S
O330 C342 1.421 . S
O331 Fe327 2.077 . S
O331 C347 1.381 . S
O332 Fe322 1.935 1_545 S
O332 C347 1.421 . S
O333 Fe322 2.077 . S
O333 C337 1.381 . S
O334 Fe320 1.935 . S
O334 C337 1.421 . S
O335 Fe323 2.077 . S
O335 C343 1.381 . S
O336 Fe327 1.935 . S
O336 C343 1.421 . S
C337 O333 1.381 . S
C337 O334 1.421 . S
O338 Fe327 2.077 . S
O338 C350 1.381 . S
O339 Fe322 1.935 1_545 S
O339 C350 1.421 . S
O340 Fe320 2.077 . S
O340 C328 1.381 . S
O341 Fe323 1.935 1_565 S
O341 C328 1.421 . S
C342 O329 1.381 . S
C342 O330 1.421 . S
C343 O335 1.381 . S
C343 O336 1.421 . S
C344 O345 1.381 . S
C344 O346 1.421 . S
O345 Fe323 2.077 . S
O345 C344 1.381 . S
O346 Fe327 1.935 . S
O346 C344 1.421 . S
C347 O331 1.381 . S
C347 O332 1.421 . S
O348 Fe322 2.077 . S
O348 C351 1.381 . S
O349 Fe320 1.935 . S
O349 C351 1.421 . S
C350 O338 1.381 . S
C350 O339 1.421 . S
C351 O348 1.381 . S
C351 O349 1.421 . S
C352 C353 1.391 . S
C352 C354 1.394 . S
C352 H368 0.931 . S
C353 C352 1.391 . S
C353 C357 1.376 . S
C354 C352 1.394 . S
C354 C355 1.369 . S
C354 C358 1.531 . S
C355 C354 1.369 . S
C355 C356 1.410 . S
C355 C363 1.503 . S
C356 C355 1.410 . S
C356 C357 1.392 . S
C356 C359 1.511 . S
C357 C353 1.376 . S
C357 C356 1.392 . S
C357 H369 0.929 . S
C358 C354 1.531 . S
C358 H370 0.960 . S
C358 H371 0.962 . S
C358 H372 0.960 . S
C359 C356 1.511 . S
C359 H373 0.961 . S
C359 H374 0.961 . S
C359 H375 0.961 . S
C360 C361 1.370 . S
C360 C362 1.363 . S
C360 H376 0.931 . S
C361 C360 1.370 . S
C361 C365 1.408 . S
C362 C360 1.363 . S
C362 C363 1.370 . S
C362 C366 1.524 . S
C363 C355 1.503 . S
C363 C362 1.370 . S
C363 C364 1.403 . S
C364 C363 1.403 . S
C364 C365 1.404 . S
C364 C367 1.539 . S
C365 C361 1.408 . S
C365 C364 1.404 . S
C365 H377 0.930 . S
C366 C362 1.524 . S
C366 H378 0.956 . S
C366 H379 0.961 . S
C366 H380 0.961 . S
C367 C364 1.539 . S
C367 H381 0.958 . S
C367 H382 0.961 . S
C367 H383 0.960 . S
H368 C352 0.931 . S
H369 C357 0.929 . S
H370 C358 0.960 . S
H371 C358 0.962 . S
H372 C358 0.960 . S
H373 C359 0.961 . S
H374 C359 0.961 . S
H375 C359 0.961 . S
H376 C360 0.931 . S
H377 C365 0.930 . S
H378 C366 0.956 . S
H379 C366 0.961 . S
H380 C366 0.961 . S
H381 C367 0.958 . S
H382 C367 0.961 . S
H383 C367 0.960 . S
C384 C385 1.391 . S
C384 C386 1.394 . S
C384 H400 0.931 . S
C385 C384 1.391 . S
C385 C389 1.376 . S
C386 C384 1.394 . S
C386 C387 1.369 . S
C386 C390 1.531 . S
C387 C386 1.369 . S
C387 C388 1.410 . S
C387 C395 1.503 . S
C388 C387 1.410 . S
C388 C389 1.392 . S
C388 C391 1.511 . S
C389 C385 1.376 . S
C389 C388 1.392 . S
C389 H401 0.929 . S
C390 C386 1.531 . S
C390 H402 0.960 . S
C390 H403 0.962 . S
C390 H404 0.960 . S
C391 C388 1.511 . S
C391 H405 0.961 . S
C391 H406 0.961 . S
C391 H407 0.961 . S
C392 C393 1.370 . S
C392 C394 1.363 . S
C392 H408 0.931 . S
C393 C392 1.370 . S
C393 C397 1.408 . S
C394 C392 1.363 . S
C394 C395 1.370 . S
C394 C398 1.524 . S
C395 C387 1.503 . S
C395 C394 1.370 . S
C395 C396 1.403 . S
C396 C395 1.403 . S
C396 C397 1.404 . S
C396 C399 1.539 . S
C397 C393 1.408 . S
C397 C396 1.404 . S
C397 H409 0.930 . S
C398 C394 1.524 . S
C398 H410 0.956 . S
C398 H411 0.961 . S
C398 H412 0.961 . S
C399 C396 1.539 . S
C399 H413 0.958 . S
C399 H414 0.961 . S
C399 H415 0.960 . S
H400 C384 0.931 . S
H401 C389 0.929 . S
H402 C390 0.960 . S
H403 C390 0.962 . S
H404 C390 0.960 . S
H405 C391 0.961 . S
H406 C391 0.961 . S
H407 C391 0.961 . S
H408 C392 0.931 . S
H409 C397 0.930 . S
H410 C398 0.956 . S
H411 C398 0.961 . S
H412 C398 0.961 . S
H413 C399 0.958 . S
H414 C399 0.961 . S
H415 C399 0.960 . S
C416 C417 1.391 . S
C416 C418 1.394 . S
C416 H432 0.931 . S
C417 C416 1.391 . S
C417 C421 1.376 . S
C418 C416 1.394 . S
C418 C419 1.369 . S
C418 C422 1.531 . S
C419 C418 1.369 . S
C419 C420 1.410 . S
C419 C427 1.503 . S
C420 C419 1.410 . S
C420 C421 1.392 . S
C420 C423 1.511 . S
C421 C417 1.376 . S
C421 C420 1.392 . S
C421 H433 0.929 . S
C422 C418 1.531 . S
C422 H434 0.960 . S
C422 H435 0.962 . S
C422 H436 0.960 . S
C423 C420 1.511 . S
C423 H437 0.961 . S
C423 H438 0.961 . S
C423 H439 0.961 . S
C424 C425 1.370 . S
C424 C426 1.363 . S
C424 H440 0.931 . S
C425 C424 1.370 . S
C425 C429 1.408 . S
C426 C424 1.363 . S
C426 C427 1.370 . S
C426 C430 1.524 . S
C427 C419 1.503 . S
C427 C426 1.370 . S
C427 C428 1.403 . S
C428 C427 1.403 . S
C428 C429 1.404 . S
C428 C431 1.539 . S
C429 C425 1.408 . S
C429 C428 1.404 . S
C429 H441 0.930 . S
C430 C426 1.524 . S
C430 H442 0.956 . S
C430 H443 0.961 . S
C430 H444 0.961 . S
C431 C428 1.539 . S
C431 H445 0.958 . S
C431 H446 0.961 . S
C431 H447 0.960 . S
H432 C416 0.931 . S
H433 C421 0.929 . S
H434 C422 0.960 . S
H435 C422 0.962 . S
H436 C422 0.960 . S
H437 C423 0.961 . S
H438 C423 0.961 . S
H439 C423 0.961 . S
H440 C424 0.931 . S
H441 C429 0.930 . S
H442 C430 0.956 . S
H443 C430 0.961 . S
H444 C430 0.961 . S
H445 C431 0.958 . S
H446 C431 0.961 . S
H447 C431 0.960 . S
C448 C449 1.391 . S
C448 C450 1.394 . S
C448 H464 0.931 . S
C449 C448 1.391 . S
C449 C453 1.376 . S
C450 C448 1.394 . S
C450 C451 1.369 . S
C450 C454 1.531 . S
C451 C450 1.369 . S
C451 C452 1.410 . S
C451 C459 1.503 . S
C452 C451 1.410 . S
C452 C453 1.392 . S
C452 C455 1.511 . S
C453 C449 1.376 . S
C453 C452 1.392 . S
C453 H465 0.929 . S
C454 C450 1.531 . S
C454 H466 0.960 . S
C454 H467 0.962 . S
C454 H468 0.960 . S
C455 C452 1.511 . S
C455 H469 0.961 . S
C455 H470 0.961 . S
C455 H471 0.961 . S
C456 C457 1.370 . S
C456 C458 1.363 . S
C456 H472 0.931 . S
C457 C456 1.370 . S
C457 C461 1.408 . S
C458 C456 1.363 . S
C458 C459 1.370 . S
C458 C462 1.524 . S
C459 C451 1.503 . S
C459 C458 1.370 . S
C459 C460 1.403 . S
C460 C459 1.403 . S
C460 C461 1.404 . S
C460 C463 1.539 . S
C461 C457 1.408 . S
C461 C460 1.404 . S
C461 H473 0.930 . S
C462 C458 1.524 . S
C462 H474 0.956 . S
C462 H475 0.961 . S
C462 H476 0.961 . S
C463 C460 1.539 . S
C463 H477 0.958 . S
C463 H478 0.961 . S
C463 H479 0.960 . S
H464 C448 0.931 . S
H465 C453 0.929 . S
H466 C454 0.960 . S
H467 C454 0.962 . S
H468 C454 0.960 . S
H469 C455 0.961 . S
H470 C455 0.961 . S
H471 C455 0.961 . S
H472 C456 0.931 . S
H473 C461 0.930 . S
H474 C462 0.956 . S
H475 C462 0.961 . S
H476 C462 0.961 . S
H477 C463 0.958 . S
H478 C463 0.961 . S
H479 C463 0.960 . S
C480 C481 1.391 . S
C480 C482 1.394 . S
C480 H496 0.931 . S
C481 C480 1.391 . S
C481 C485 1.376 . S
C482 C480 1.394 . S
C482 C483 1.369 . S
C482 C486 1.531 . S
C483 C482 1.369 . S
C483 C484 1.410 . S
C483 C491 1.503 . S
C484 C483 1.410 . S
C484 C485 1.392 . S
C484 C487 1.511 . S
C485 C481 1.376 . S
C485 C484 1.392 . S
C485 H497 0.929 . S
C486 C482 1.531 . S
C486 H498 0.960 . S
C486 H499 0.962 . S
C486 H500 0.960 . S
C487 C484 1.511 . S
C487 H501 0.961 . S
C487 H502 0.961 . S
C487 H503 0.961 . S
C488 C489 1.370 . S
C488 C490 1.363 . S
C488 H504 0.931 . S
C489 C488 1.370 . S
C489 C493 1.408 . S
C490 C488 1.363 . S
C490 C491 1.370 . S
C490 C494 1.524 . S
C491 C483 1.503 . S
C491 C490 1.370 . S
C491 C492 1.403 . S
C492 C491 1.403 . S
C492 C493 1.404 . S
C492 C495 1.539 . S
C493 C489 1.408 . S
C493 C492 1.404 . S
C493 H505 0.930 . S
C494 C490 1.524 . S
C494 H506 0.956 . S
C494 H507 0.961 . S
C494 H508 0.961 . S
C495 C492 1.539 . S
C495 H509 0.958 . S
C495 H510 0.961 . S
C495 H511 0.960 . S
H496 C480 0.931 . S
H497 C485 0.929 . S
H498 C486 0.960 . S
H499 C486 0.962 . S
H500 C486 0.960 . S
H501 C487 0.961 . S
H502 C487 0.961 . S
H503 C487 0.961 . S
H504 C488 0.931 . S
H505 C493 0.930 . S
H506 C494 0.956 . S
H507 C494 0.961 . S
H508 C494 0.961 . S
H509 C495 0.958 . S
H510 C495 0.961 . S
H511 C495 0.960 . S
C512 C513 1.391 . S
C512 C514 1.394 . S
C512 H528 0.931 . S
C513 C512 1.391 . S
C513 C517 1.376 . S
C514 C512 1.394 . S
C514 C515 1.369 . S
C514 C518 1.531 . S
C515 C514 1.369 . S
C515 C516 1.410 . S
C515 C523 1.503 . S
C516 C515 1.410 . S
C516 C517 1.392 . S
C516 C519 1.511 . S
C517 C513 1.376 . S
C517 C516 1.392 . S
C517 H529 0.929 . S
C518 C514 1.531 . S
C518 H530 0.960 . S
C518 H531 0.962 . S
C518 H532 0.960 . S
C519 C516 1.511 . S
C519 H533 0.961 . S
C519 H534 0.961 . S
C519 H535 0.961 . S
C520 C521 1.370 . S
C520 C522 1.363 . S
C520 H536 0.931 . S
C521 C520 1.370 . S
C521 C525 1.408 . S
C522 C520 1.363 . S
C522 C523 1.370 . S
C522 C526 1.524 . S
C523 C515 1.503 . S
C523 C522 1.370 . S
C523 C524 1.403 . S
C524 C523 1.403 . S
C524 C525 1.404 . S
C524 C527 1.539 . S
C525 C521 1.408 . S
C525 C524 1.404 . S
C525 H537 0.930 . S
C526 C522 1.524 . S
C526 H538 0.956 . S
C526 H539 0.961 . S
C526 H540 0.961 . S
C527 C524 1.539 . S
C527 H541 0.958 . S
C527 H542 0.961 . S
C527 H543 0.960 . S
H528 C512 0.931 . S
H529 C517 0.929 . S
H530 C518 0.960 . S
H531 C518 0.962 . S
H532 C518 0.960 . S
H533 C519 0.961 . S
H534 C519 0.961 . S
H535 C519 0.961 . S
H536 C520 0.931 . S
H537 C525 0.930 . S
H538 C526 0.956 . S
H539 C526 0.961 . S
H540 C526 0.961 . S
H541 C527 0.958 . S
H542 C527 0.961 . S
H543 C527 0.960 . S
C544 C545 1.391 . S
C544 C546 1.394 . S
C544 H560 0.931 . S
C545 C544 1.391 . S
C545 C549 1.376 . S
C546 C544 1.394 . S
C546 C547 1.369 . S
C546 C550 1.531 . S
C547 C546 1.369 . S
C547 C548 1.410 . S
C547 C555 1.503 . S
C548 C547 1.410 . S
C548 C549 1.392 . S
C548 C551 1.511 . S
C549 C545 1.376 . S
C549 C548 1.392 . S
C549 H561 0.929 . S
C550 C546 1.531 . S
C550 H562 0.960 . S
C550 H563 0.962 . S
C550 H564 0.960 . S
C551 C548 1.511 . S
C551 H565 0.961 . S
C551 H566 0.961 . S
C551 H567 0.961 . S
C552 C553 1.370 . S
C552 C554 1.363 . S
C552 H568 0.931 . S
C553 C552 1.370 . S
C553 C557 1.408 . S
C554 C552 1.363 . S
C554 C555 1.370 . S
C554 C558 1.524 . S
C555 C547 1.503 . S
C555 C554 1.370 . S
C555 C556 1.403 . S
C556 C555 1.403 . S
C556 C557 1.404 . S
C556 C559 1.539 . S
C557 C553 1.408 . S
C557 C556 1.404 . S
C557 H569 0.930 . S
C558 C554 1.524 . S
C558 H570 0.956 . S
C558 H571 0.961 . S
C558 H572 0.961 . S
C559 C556 1.539 . S
C559 H573 0.958 . S
C559 H574 0.961 . S
C559 H575 0.960 . S
H560 C544 0.931 . S
H561 C549 0.929 . S
H562 C550 0.960 . S
H563 C550 0.962 . S
H564 C550 0.960 . S
H565 C551 0.961 . S
H566 C551 0.961 . S
H567 C551 0.961 . S
H568 C552 0.931 . S
H569 C557 0.930 . S
H570 C558 0.956 . S
H571 C558 0.961 . S
H572 C558 0.961 . S
H573 C559 0.958 . S
H574 C559 0.961 . S
H575 C559 0.960 . S
C576 C577 1.391 . S
C576 C578 1.394 . S
C576 H592 0.931 . S
C577 C576 1.391 . S
C577 C581 1.376 . S
C578 C576 1.394 . S
C578 C579 1.369 . S
C578 C582 1.531 . S
C579 C578 1.369 . S
C579 C580 1.410 . S
C579 C587 1.503 . S
C580 C579 1.410 . S
C580 C581 1.392 . S
C580 C583 1.511 . S
C581 C577 1.376 . S
C581 C580 1.392 . S
C581 H593 0.929 . S
C582 C578 1.531 . S
C582 H594 0.960 . S
C582 H595 0.962 . S
C582 H596 0.960 . S
C583 C580 1.511 . S
C583 H597 0.961 . S
C583 H598 0.961 . S
C583 H599 0.961 . S
C584 C585 1.370 . S
C584 C586 1.363 . S
C584 H600 0.931 . S
C585 C584 1.370 . S
C585 C589 1.408 . S
C586 C584 1.363 . S
C586 C587 1.370 . S
C586 C590 1.524 . S
C587 C579 1.503 . S
C587 C586 1.370 . S
C587 C588 1.403 . S
C588 C587 1.403 . S
C588 C589 1.404 . S
C588 C591 1.539 . S
C589 C585 1.408 . S
C589 C588 1.404 . S
C589 H601 0.930 . S
C590 C586 1.524 . S
C590 H602 0.956 . S
C590 H603 0.961 . S
C590 H604 0.961 . S
C591 C588 1.539 . S
C591 H605 0.958 . S
C591 H606 0.961 . S
C591 H607 0.960 . S
H592 C576 0.931 . S
H593 C581 0.929 . S
H594 C582 0.960 . S
H595 C582 0.962 . S
H596 C582 0.960 . S
H597 C583 0.961 . S
H598 C583 0.961 . S
H599 C583 0.961 . S
H600 C584 0.931 . S
H601 C589 0.930 . S
H602 C590 0.956 . S
H603 C590 0.961 . S
H604 C590 0.961 . S
H605 C591 0.958 . S
H606 C591 0.961 . S
H607 C591 0.960 . S
C608 C609 1.391 . S
C608 C610 1.394 . S
C608 H624 0.931 . S
C609 C608 1.391 . S
C609 C613 1.376 . S
C610 C608 1.394 . S
C610 C611 1.369 . S
C610 C614 1.531 . S
C611 C610 1.369 . S
C611 C612 1.410 . S
C611 C619 1.503 . S
C612 C611 1.410 . S
C612 C613 1.392 . S
C612 C615 1.511 . S
C613 C609 1.376 . S
C613 C612 1.392 . S
C613 H625 0.929 . S
C614 C610 1.531 . S
C614 H626 0.960 . S
C614 H627 0.962 . S
C614 H628 0.960 . S
C615 C612 1.511 . S
C615 H629 0.961 . S
C615 H630 0.961 . S
C615 H631 0.961 . S
C616 C617 1.370 . S
C616 C618 1.363 . S
C616 H632 0.931 . S
C617 C616 1.370 . S
C617 C621 1.408 . S
C618 C616 1.363 . S
C618 C619 1.370 . S
C618 C622 1.524 . S
C619 C611 1.503 . S
C619 C618 1.370 . S
C619 C620 1.403 . S
C620 C619 1.403 . S
C620 C621 1.404 . S
C620 C623 1.539 . S
C621 C617 1.408 . S
C621 C620 1.404 . S
C621 H633 0.930 . S
C622 C618 1.524 . S
C622 H634 0.956 . S
C622 H635 0.961 . S
C622 H636 0.961 . S
C623 C620 1.539 . S
C623 H637 0.958 . S
C623 H638 0.961 . S
C623 H639 0.960 . S
H624 C608 0.931 . S
H625 C613 0.929 . S
H626 C614 0.960 . S
H627 C614 0.962 . S
H628 C614 0.960 . S
H629 C615 0.961 . S
H630 C615 0.961 . S
H631 C615 0.961 . S
H632 C616 0.931 . S
H633 C621 0.930 . S
H634 C622 0.956 . S
H635 C622 0.961 . S
H636 C622 0.961 . S
H637 C623 0.958 . S
H638 C623 0.961 . S
H639 C623 0.960 . S
C640 C641 1.391 . S
C640 C642 1.394 . S
C640 H656 0.931 . S
C641 C640 1.391 . S
C641 C645 1.376 . S
C642 C640 1.394 . S
C642 C643 1.369 . S
C642 C646 1.531 . S
C643 C642 1.369 . S
C643 C644 1.410 . S
C643 C651 1.503 . S
C644 C643 1.410 . S
C644 C645 1.392 . S
C644 C647 1.511 . S
C645 C641 1.376 . S
C645 C644 1.392 . S
C645 H657 0.929 . S
C646 C642 1.531 . S
C646 H658 0.960 . S
C646 H659 0.962 . S
C646 H660 0.960 . S
C647 C644 1.511 . S
C647 H661 0.961 . S
C647 H662 0.961 . S
C647 H663 0.961 . S
C648 C649 1.370 . S
C648 C650 1.363 . S
C648 H664 0.931 . S
C649 C648 1.370 . S
C649 C653 1.408 . S
C650 C648 1.363 . S
C650 C651 1.370 . S
C650 C654 1.524 . S
C651 C643 1.503 . S
C651 C650 1.370 . S
C651 C652 1.403 . S
C652 C651 1.403 . S
C652 C653 1.404 . S
C652 C655 1.539 . S
C653 C649 1.408 . S
C653 C652 1.404 . S
C653 H665 0.930 . S
C654 C650 1.524 . S
C654 H666 0.956 . S
C654 H667 0.961 . S
C654 H668 0.961 . S
C655 C652 1.539 . S
C655 H669 0.958 . S
C655 H670 0.961 . S
C655 H671 0.960 . S
H656 C640 0.931 . S
H657 C645 0.929 . S
H658 C646 0.960 . S
H659 C646 0.962 . S
H660 C646 0.960 . S
H661 C647 0.961 . S
H662 C647 0.961 . S
H663 C647 0.961 . S
H664 C648 0.931 . S
H665 C653 0.930 . S
H666 C654 0.956 . S
H667 C654 0.961 . S
H668 C654 0.961 . S
H669 C655 0.958 . S
H670 C655 0.961 . S
H671 C655 0.960 . S
C672 C673 1.391 . S
C672 C674 1.394 . S
C672 H688 0.931 . S
C673 C672 1.391 . S
C673 C677 1.376 . S
C674 C672 1.394 . S
C674 C675 1.369 . S
C674 C678 1.531 . S
C675 C674 1.369 . S
C675 C676 1.410 . S
C675 C683 1.503 . S
C676 C675 1.410 . S
C676 C677 1.392 . S
C676 C679 1.511 . S
C677 C673 1.376 . S
C677 C676 1.392 . S
C677 H689 0.929 . S
C678 C674 1.531 . S
C678 H690 0.960 . S
C678 H691 0.962 . S
C678 H692 0.960 . S
C679 C676 1.511 . S
C679 H693 0.961 . S
C679 H694 0.961 . S
C679 H695 0.961 . S
C680 C681 1.370 . S
C680 C682 1.363 . S
C680 H696 0.931 . S
C681 C680 1.370 . S
C681 C685 1.408 . S
C682 C680 1.363 . S
C682 C683 1.370 . S
C682 C686 1.524 . S
C683 C675 1.503 . S
C683 C682 1.370 . S
C683 C684 1.403 . S
C684 C683 1.403 . S
C684 C685 1.404 . S
C684 C687 1.539 . S
C685 C681 1.408 . S
C685 C684 1.404 . S
C685 H697 0.930 . S
C686 C682 1.524 . S
C686 H698 0.956 . S
C686 H699 0.961 . S
C686 H700 0.961 . S
C687 C684 1.539 . S
C687 H701 0.958 . S
C687 H702 0.961 . S
C687 H703 0.960 . S
H688 C672 0.931 . S
H689 C677 0.929 . S
H690 C678 0.960 . S
H691 C678 0.962 . S
H692 C678 0.960 . S
H693 C679 0.961 . S
H694 C679 0.961 . S
H695 C679 0.961 . S
H696 C680 0.931 . S
H697 C685 0.930 . S
H698 C686 0.956 . S
H699 C686 0.961 . S
H700 C686 0.961 . S
H701 C687 0.958 . S
H702 C687 0.961 . S
H703 C687 0.960 . S
C704 C705 1.391 . S
C704 C706 1.394 . S
C704 H720 0.931 . S
C705 C704 1.391 . S
C705 C709 1.376 . S
C706 C704 1.394 . S
C706 C707 1.369 . S
C706 C710 1.531 . S
C707 C706 1.369 . S
C707 C708 1.410 . S
C707 C715 1.503 . S
C708 C707 1.410 . S
C708 C709 1.392 . S
C708 C711 1.511 . S
C709 C705 1.376 . S
C709 C708 1.392 . S
C709 H721 0.929 . S
C710 C706 1.531 . S
C710 H722 0.960 . S
C710 H723 0.962 . S
C710 H724 0.960 . S
C711 C708 1.511 . S
C711 H725 0.961 . S
C711 H726 0.961 . S
C711 H727 0.961 . S
C712 C713 1.370 . S
C712 C714 1.363 . S
C712 H728 0.931 . S
C713 C712 1.370 . S
C713 C717 1.408 . S
C714 C712 1.363 . S
C714 C715 1.370 . S
C714 C718 1.524 . S
C715 C707 1.503 . S
C715 C714 1.370 . S
C715 C716 1.403 . S
C716 C715 1.403 . S
C716 C717 1.404 . S
C716 C719 1.539 . S
C717 C713 1.408 . S
C717 C716 1.404 . S
C717 H729 0.930 . S
C718 C714 1.524 . S
C718 H730 0.956 . S
C718 H731 0.961 . S
C718 H732 0.961 . S
C719 C716 1.539 . S
C719 H733 0.958 . S
C719 H734 0.961 . S
C719 H735 0.960 . S
H720 C704 0.931 . S
H721 C709 0.929 . S
H722 C710 0.960 . S
H723 C710 0.962 . S
H724 C710 0.960 . S
H725 C711 0.961 . S
H726 C711 0.961 . S
H727 C711 0.961 . S
H728 C712 0.931 . S
H729 C717 0.930 . S
H730 C718 0.956 . S
H731 C718 0.961 . S
H732 C718 0.961 . S
H733 C719 0.958 . S
H734 C719 0.961 . S
H735 C719 0.960 . S
C736 C737 1.391 . S
C736 C738 1.394 . S
C736 H752 0.931 . S
C737 C736 1.391 . S
C737 C741 1.376 . S
C738 C736 1.394 . S
C738 C739 1.369 . S
C738 C742 1.531 . S
C739 C738 1.369 . S
C739 C740 1.410 . S
C739 C747 1.503 . S
C740 C739 1.410 . S
C740 C741 1.392 . S
C740 C743 1.511 . S
C741 C737 1.376 . S
C741 C740 1.392 . S
C741 H753 0.929 . S
C742 C738 1.531 . S
C742 H754 0.960 . S
C742 H755 0.962 . S
C742 H756 0.960 . S
C743 C740 1.511 . S
C743 H757 0.961 . S
C743 H758 0.961 . S
C743 H759 0.961 . S
C744 C745 1.370 . S
C744 C746 1.363 . S
C744 H760 0.931 . S
C745 C744 1.370 . S
C745 C749 1.408 . S
C746 C744 1.363 . S
C746 C747 1.370 . S
C746 C750 1.524 . S
C747 C739 1.503 . S
C747 C746 1.370 . S
C747 C748 1.403 . S
C748 C747 1.403 . S
C748 C749 1.404 . S
C748 C751 1.539 . S
C749 C745 1.408 . S
C749 C748 1.404 . S
C749 H761 0.930 . S
C750 C746 1.524 . S
C750 H762 0.956 . S
C750 H763 0.961 . S
C750 H764 0.961 . S
C751 C748 1.539 . S
C751 H765 0.958 . S
C751 H766 0.961 . S
C751 H767 0.960 . S
H752 C736 0.931 . S
H753 C741 0.929 . S
H754 C742 0.960 . S
H755 C742 0.962 . S
H756 C742 0.960 . S
H757 C743 0.961 . S
H758 C743 0.961 . S
H759 C743 0.961 . S
H760 C744 0.931 . S
H761 C749 0.930 . S
H762 C750 0.956 . S
H763 C750 0.961 . S
H764 C750 0.961 . S
H765 C751 0.958 . S
H766 C751 0.961 . S
H767 C751 0.960 . S
C768 C769 1.391 . S
C768 C770 1.394 . S
C768 H784 0.931 . S
C769 C768 1.391 . S
C769 C773 1.376 . S
C770 C768 1.394 . S
C770 C771 1.369 . S
C770 C774 1.531 . S
C771 C770 1.369 . S
C771 C772 1.410 . S
C771 C779 1.503 . S
C772 C771 1.410 . S
C772 C773 1.392 . S
C772 C775 1.511 . S
C773 C769 1.376 . S
C773 C772 1.392 . S
C773 H785 0.929 . S
C774 C770 1.531 . S
C774 H786 0.960 . S
C774 H787 0.962 . S
C774 H788 0.960 . S
C775 C772 1.511 . S
C775 H789 0.961 . S
C775 H790 0.961 . S
C775 H791 0.961 . S
C776 C777 1.370 . S
C776 C778 1.363 . S
C776 H792 0.931 . S
C777 C776 1.370 . S
C777 C781 1.408 . S
C778 C776 1.363 . S
C778 C779 1.370 . S
C778 C782 1.524 . S
C779 C771 1.503 . S
C779 C778 1.370 . S
C779 C780 1.403 . S
C780 C779 1.403 . S
C780 C781 1.404 . S
C780 C783 1.539 . S
C781 C777 1.408 . S
C781 C780 1.404 . S
C781 H793 0.930 . S
C782 C778 1.524 . S
C782 H794 0.956 . S
C782 H795 0.961 . S
C782 H796 0.961 . S
C783 C780 1.539 . S
C783 H797 0.958 . S
C783 H798 0.961 . S
C783 H799 0.960 . S
H784 C768 0.931 . S
H785 C773 0.929 . S
H786 C774 0.960 . S
H787 C774 0.962 . S
H788 C774 0.960 . S
H789 C775 0.961 . S
H790 C775 0.961 . S
H791 C775 0.961 . S
H792 C776 0.931 . S
H793 C781 0.930 . S
H794 C782 0.956 . S
H795 C782 0.961 . S
H796 C782 0.961 . S
H797 C783 0.958 . S
H798 C783 0.961 . S
H799 C783 0.960 . S
C800 C801 1.391 . S
C800 C802 1.394 . S
C800 H816 0.931 . S
C801 C800 1.391 . S
C801 C805 1.376 . S
C802 C800 1.394 . S
C802 C803 1.369 . S
C802 C806 1.531 . S
C803 C802 1.369 . S
C803 C804 1.410 . S
C803 C811 1.503 . S
C804 C803 1.410 . S
C804 C805 1.392 . S
C804 C807 1.511 . S
C805 C801 1.376 . S
C805 C804 1.392 . S
C805 H817 0.929 . S
C806 C802 1.531 . S
C806 H818 0.960 . S
C806 H819 0.962 . S
C806 H820 0.960 . S
C807 C804 1.511 . S
C807 H821 0.961 . S
C807 H822 0.961 . S
C807 H823 0.961 . S
C808 C809 1.370 . S
C808 C810 1.363 . S
C808 H824 0.931 . S
C809 C808 1.370 . S
C809 C813 1.408 . S
C810 C808 1.363 . S
C810 C811 1.370 . S
C810 C814 1.524 . S
C811 C803 1.503 . S
C811 C810 1.370 . S
C811 C812 1.403 . S
C812 C811 1.403 . S
C812 C813 1.404 . S
C812 C815 1.539 . S
C813 C809 1.408 . S
C813 C812 1.404 . S
C813 H825 0.930 . S
C814 C810 1.524 . S
C814 H826 0.956 . S
C814 H827 0.961 . S
C814 H828 0.961 . S
C815 C812 1.539 . S
C815 H829 0.958 . S
C815 H830 0.961 . S
C815 H831 0.960 . S
H816 C800 0.931 . S
H817 C805 0.929 . S
H818 C806 0.960 . S
H819 C806 0.962 . S
H820 C806 0.960 . S
H821 C807 0.961 . S
H822 C807 0.961 . S
H823 C807 0.961 . S
H824 C808 0.931 . S
H825 C813 0.930 . S
H826 C814 0.956 . S
H827 C814 0.961 . S
H828 C814 0.961 . S
H829 C815 0.958 . S
H830 C815 0.961 . S
H831 C815 0.960 . S
C832 C833 1.391 . S
C832 C834 1.394 . S
C832 H848 0.931 . S
C833 C832 1.391 . S
C833 C837 1.376 . S
C834 C832 1.394 . S
C834 C835 1.369 . S
C834 C838 1.531 . S
C835 C834 1.369 . S
C835 C836 1.410 . S
C835 C843 1.503 . S
C836 C835 1.410 . S
C836 C837 1.392 . S
C836 C839 1.511 . S
C837 C833 1.376 . S
C837 C836 1.392 . S
C837 H849 0.929 . S
C838 C834 1.531 . S
C838 H850 0.960 . S
C838 H851 0.962 . S
C838 H852 0.960 . S
C839 C836 1.511 . S
C839 H853 0.961 . S
C839 H854 0.961 . S
C839 H855 0.961 . S
C840 C841 1.370 . S
C840 C842 1.363 . S
C840 H856 0.931 . S
C841 C840 1.370 . S
C841 C845 1.408 . S
C842 C840 1.363 . S
C842 C843 1.370 . S
C842 C846 1.524 . S
C843 C835 1.503 . S
C843 C842 1.370 . S
C843 C844 1.403 . S
C844 C843 1.403 . S
C844 C845 1.404 . S
C844 C847 1.539 . S
C845 C841 1.408 . S
C845 C844 1.404 . S
C845 H857 0.930 . S
C846 C842 1.524 . S
C846 H858 0.956 . S
C846 H859 0.961 . S
C846 H860 0.961 . S
C847 C844 1.539 . S
C847 H861 0.958 . S
C847 H862 0.961 . S
C847 H863 0.960 . S
H848 C832 0.931 . S
H849 C837 0.929 . S
H850 C838 0.960 . S
H851 C838 0.962 . S
H852 C838 0.960 . S
H853 C839 0.961 . S
H854 C839 0.961 . S
H855 C839 0.961 . S
H856 C840 0.931 . S
H857 C845 0.930 . S
H858 C846 0.956 . S
H859 C846 0.961 . S
H860 C846 0.961 . S
H861 C847 0.958 . S
H862 C847 0.961 . S
H863 C847 0.960 . S
C864 C865 1.391 . S
C864 C866 1.394 . S
C864 H880 0.931 . S
C865 C864 1.391 . S
C865 C869 1.376 . S
C866 C864 1.394 . S
C866 C867 1.369 . S
C866 C870 1.531 . S
C867 C866 1.369 . S
C867 C868 1.410 . S
C867 C875 1.503 . S
C868 C867 1.410 . S
C868 C869 1.392 . S
C868 C871 1.511 . S
C869 C865 1.376 . S
C869 C868 1.392 . S
C869 H881 0.929 . S
C870 C866 1.531 . S
C870 H882 0.960 . S
C870 H883 0.962 . S
C870 H884 0.960 . S
C871 C868 1.511 . S
C871 H885 0.961 . S
C871 H886 0.961 . S
C871 H887 0.961 . S
C872 C873 1.370 . S
C872 C874 1.363 . S
C872 H888 0.931 . S
C873 C872 1.370 . S
C873 C877 1.408 . S
C874 C872 1.363 . S
C874 C875 1.370 . S
C874 C878 1.524 . S
C875 C867 1.503 . S
C875 C874 1.370 . S
C875 C876 1.403 . S
C876 C875 1.403 . S
C876 C877 1.404 . S
C876 C879 1.539 . S
C877 C873 1.408 . S
C877 C876 1.404 . S
C877 H889 0.930 . S
C878 C874 1.524 . S
C878 H890 0.956 . S
C878 H891 0.961 . S
C878 H892 0.961 . S
C879 C876 1.539 . S
C879 H893 0.958 . S
C879 H894 0.961 . S
C879 H895 0.960 . S
H880 C864 0.931 . S
H881 C869 0.929 . S
H882 C870 0.960 . S
H883 C870 0.962 . S
H884 C870 0.960 . S
H885 C871 0.961 . S
H886 C871 0.961 . S
H887 C871 0.961 . S
H888 C872 0.931 . S
H889 C877 0.930 . S
H890 C878 0.956 . S
H891 C878 0.961 . S
H892 C878 0.961 . S
H893 C879 0.958 . S
H894 C879 0.961 . S
H895 C879 0.960 . S
C896 C897 1.391 . S
C896 C898 1.394 . S
C896 H912 0.931 . S
C897 C896 1.391 . S
C897 C901 1.376 . S
C898 C896 1.394 . S
C898 C899 1.369 . S
C898 C902 1.531 . S
C899 C898 1.369 . S
C899 C900 1.410 . S
C899 C907 1.503 . S
C900 C899 1.410 . S
C900 C901 1.392 . S
C900 C903 1.511 . S
C901 C897 1.376 . S
C901 C900 1.392 . S
C901 H913 0.929 . S
C902 C898 1.531 . S
C902 H914 0.960 . S
C902 H915 0.962 . S
C902 H916 0.960 . S
C903 C900 1.511 . S
C903 H917 0.961 . S
C903 H918 0.961 . S
C903 H919 0.961 . S
C904 C905 1.370 . S
C904 C906 1.363 . S
C904 H920 0.931 . S
C905 C904 1.370 . S
C905 C909 1.408 . S
C906 C904 1.363 . S
C906 C907 1.370 . S
C906 C910 1.524 . S
C907 C899 1.503 . S
C907 C906 1.370 . S
C907 C908 1.403 . S
C908 C907 1.403 . S
C908 C909 1.404 . S
C908 C911 1.539 . S
C909 C905 1.408 . S
C909 C908 1.404 . S
C909 H921 0.930 . S
C910 C906 1.524 . S
C910 H922 0.956 . S
C910 H923 0.961 . S
C910 H924 0.961 . S
C911 C908 1.539 . S
C911 H925 0.958 . S
C911 H926 0.961 . S
C911 H927 0.960 . S
H912 C896 0.931 . S
H913 C901 0.929 . S
H914 C902 0.960 . S
H915 C902 0.962 . S
H916 C902 0.960 . S
H917 C903 0.961 . S
H918 C903 0.961 . S
H919 C903 0.961 . S
H920 C904 0.931 . S
H921 C909 0.930 . S
H922 C910 0.956 . S
H923 C910 0.961 . S
H924 C910 0.961 . S
H925 C911 0.958 . S
H926 C911 0.961 . S
H927 C911 0.960 . S
C928 C929 1.391 . S
C928 C930 1.394 . S
C928 H944 0.931 . S
C929 C928 1.391 . S
C929 C933 1.376 . S
C930 C928 1.394 . S
C930 C931 1.369 . S
C930 C934 1.531 . S
C931 C930 1.369 . S
C931 C932 1.410 . S
C931 C939 1.503 . S
C932 C931 1.410 . S
C932 C933 1.392 . S
C932 C935 1.511 . S
C933 C929 1.376 . S
C933 C932 1.392 . S
C933 H945 0.929 . S
C934 C930 1.531 . S
C934 H946 0.960 . S
C934 H947 0.962 . S
C934 H948 0.960 . S
C935 C932 1.511 . S
C935 H949 0.961 . S
C935 H950 0.961 . S
C935 H951 0.961 . S
C936 C937 1.370 . S
C936 C938 1.363 . S
C936 H952 0.931 . S
C937 C936 1.370 . S
C937 C941 1.408 . S
C938 C936 1.363 . S
C938 C939 1.370 . S
C938 C942 1.524 . S
C939 C931 1.503 . S
C939 C938 1.370 . S
C939 C940 1.403 . S
C940 C939 1.403 . S
C940 C941 1.404 . S
C940 C943 1.539 . S
C941 C937 1.408 . S
C941 C940 1.404 . S
C941 H953 0.930 . S
C942 C938 1.524 . S
C942 H954 0.956 . S
C942 H955 0.961 . S
C942 H956 0.961 . S
C943 C940 1.539 . S
C943 H957 0.958 . S
C943 H958 0.961 . S
C943 H959 0.960 . S
H944 C928 0.931 . S
H945 C933 0.929 . S
H946 C934 0.960 . S
H947 C934 0.962 . S
H948 C934 0.960 . S
H949 C935 0.961 . S
H950 C935 0.961 . S
H951 C935 0.961 . S
H952 C936 0.931 . S
H953 C941 0.930 . S
H954 C942 0.956 . S
H955 C942 0.961 . S
H956 C942 0.961 . S
H957 C943 0.958 . S
H958 C943 0.961 . S
H959 C943 0.960 . S
C960 C961 1.391 . S
C960 C962 1.394 . S
C960 H976 0.931 . S
C961 C960 1.391 . S
C961 C965 1.376 . S
C962 C960 1.394 . S
C962 C963 1.369 . S
C962 C966 1.531 . S
C963 C962 1.369 . S
C963 C964 1.410 . S
C963 C971 1.503 . S
C964 C963 1.410 . S
C964 C965 1.392 . S
C964 C967 1.511 . S
C965 C961 1.376 . S
C965 C964 1.392 . S
C965 H977 0.929 . S
C966 C962 1.531 . S
C966 H978 0.960 . S
C966 H979 0.962 . S
C966 H980 0.960 . S
C967 C964 1.511 . S
C967 H981 0.961 . S
C967 H982 0.961 . S
C967 H983 0.961 . S
C968 C969 1.370 . S
C968 C970 1.363 . S
C968 H984 0.931 . S
C969 C968 1.370 . S
C969 C973 1.408 . S
C970 C968 1.363 . S
C970 C971 1.370 . S
C970 C974 1.524 . S
C971 C963 1.503 . S
C971 C970 1.370 . S
C971 C972 1.403 . S
C972 C971 1.403 . S
C972 C973 1.404 . S
C972 C975 1.539 . S
C973 C969 1.408 . S
C973 C972 1.404 . S
C973 H985 0.930 . S
C974 C970 1.524 . S
C974 H986 0.956 . S
C974 H987 0.961 . S
C974 H988 0.961 . S
C975 C972 1.539 . S
C975 H989 0.958 . S
C975 H990 0.961 . S
C975 H991 0.960 . S
H976 C960 0.931 . S
H977 C965 0.929 . S
H978 C966 0.960 . S
H979 C966 0.962 . S
H980 C966 0.960 . S
H981 C967 0.961 . S
H982 C967 0.961 . S
H983 C967 0.961 . S
H984 C968 0.931 . S
H985 C973 0.930 . S
H986 C974 0.956 . S
H987 C974 0.961 . S
H988 C974 0.961 . S
H989 C975 0.958 . S
H990 C975 0.961 . S
H991 C975 0.960 . S
C992 C993 1.391 . S
C992 C994 1.394 . S
C992 H1008 0.931 . S
C993 C992 1.391 . S
C993 C997 1.376 . S
C994 C992 1.394 . S
C994 C995 1.369 . S
C994 C998 1.531 . S
C995 C994 1.369 . S
C995 C996 1.410 . S
C995 C1003 1.503 . S
C996 C995 1.410 . S
C996 C997 1.392 . S
C996 C999 1.511 . S
C997 C993 1.376 . S
C997 C996 1.392 . S
C997 H1009 0.929 . S
C998 C994 1.531 . S
C998 H1010 0.960 . S
C998 H1011 0.962 . S
C998 H1012 0.960 . S
C999 C996 1.511 . S
C999 H1013 0.961 . S
C999 H1014 0.961 . S
C999 H1015 0.961 . S
C1000 C1001 1.370 . S
C1000 C1002 1.363 . S
C1000 H1016 0.931 . S
C1001 C1000 1.370 . S
C1001 C1005 1.408 . S
C1002 C1000 1.363 . S
C1002 C1003 1.370 . S
C1002 C1006 1.524 . S
C1003 C995 1.503 . S
C1003 C1002 1.370 . S
C1003 C1004 1.403 . S
C1004 C1003 1.403 . S
C1004 C1005 1.404 . S
C1004 C1007 1.539 . S
C1005 C1001 1.408 . S
C1005 C1004 1.404 . S
C1005 H1017 0.930 . S
C1006 C1002 1.524 . S
C1006 H1018 0.956 . S
C1006 H1019 0.961 . S
C1006 H1020 0.961 . S
C1007 C1004 1.539 . S
C1007 H1021 0.958 . S
C1007 H1022 0.961 . S
C1007 H1023 0.960 . S
H1008 C992 0.931 . S
H1009 C997 0.929 . S
H1010 C998 0.960 . S
H1011 C998 0.962 . S
H1012 C998 0.960 . S
H1013 C999 0.961 . S
H1014 C999 0.961 . S
H1015 C999 0.961 . S
H1016 C1000 0.931 . S
H1017 C1005 0.930 . S
H1018 C1006 0.956 . S
H1019 C1006 0.961 . S
H1020 C1006 0.961 . S
H1021 C1007 0.958 . S
H1022 C1007 0.961 . S
H1023 C1007 0.960 . S
C1024 C1025 1.391 . S
C1024 C1026 1.394 . S
C1024 H1040 0.931 . S
C1025 C1024 1.391 . S
C1025 C1029 1.376 . S
C1026 C1024 1.394 . S
C1026 C1027 1.369 . S
C1026 C1030 1.531 . S
C1027 C1026 1.369 . S
C1027 C1028 1.410 . S
C1027 C1035 1.503 . S
C1028 C1027 1.410 . S
C1028 C1029 1.392 . S
C1028 C1031 1.511 . S
C1029 C1025 1.376 . S
C1029 C1028 1.392 . S
C1029 H1041 0.929 . S
C1030 C1026 1.531 . S
C1030 H1042 0.960 . S
C1030 H1043 0.962 . S
C1030 H1044 0.960 . S
C1031 C1028 1.511 . S
C1031 H1045 0.961 . S
C1031 H1046 0.961 . S
C1031 H1047 0.961 . S
C1032 C1033 1.370 . S
C1032 C1034 1.363 . S
C1032 H1048 0.931 . S
C1033 C1032 1.370 . S
C1033 C1037 1.408 . S
C1034 C1032 1.363 . S
C1034 C1035 1.370 . S
C1034 C1038 1.524 . S
C1035 C1027 1.503 . S
C1035 C1034 1.370 . S
C1035 C1036 1.403 . S
C1036 C1035 1.403 . S
C1036 C1037 1.404 . S
C1036 C1039 1.539 . S
C1037 C1033 1.408 . S
C1037 C1036 1.404 . S
C1037 H1049 0.930 . S
C1038 C1034 1.524 . S
C1038 H1050 0.956 . S
C1038 H1051 0.961 . S
C1038 H1052 0.961 . S
C1039 C1036 1.539 . S
C1039 H1053 0.958 . S
C1039 H1054 0.961 . S
C1039 H1055 0.960 . S
H1040 C1024 0.931 . S
H1041 C1029 0.929 . S
H1042 C1030 0.960 . S
H1043 C1030 0.962 . S
H1044 C1030 0.960 . S
H1045 C1031 0.961 . S
H1046 C1031 0.961 . S
H1047 C1031 0.961 . S
H1048 C1032 0.931 . S
H1049 C1037 0.930 . S
H1050 C1038 0.956 . S
H1051 C1038 0.961 . S
H1052 C1038 0.961 . S
H1053 C1039 0.958 . S
H1054 C1039 0.961 . S
H1055 C1039 0.960 . S
C1056 C1057 1.391 . S
C1056 C1058 1.394 . S
C1056 H1072 0.931 . S
C1057 C1056 1.391 . S
C1057 C1061 1.376 . S
C1058 C1056 1.394 . S
C1058 C1059 1.369 . S
C1058 C1062 1.531 . S
C1059 C1058 1.369 . S
C1059 C1060 1.410 . S
C1059 C1067 1.503 . S
C1060 C1059 1.410 . S
C1060 C1061 1.392 . S
C1060 C1063 1.511 . S
C1061 C1057 1.376 . S
C1061 C1060 1.392 . S
C1061 H1073 0.929 . S
C1062 C1058 1.531 . S
C1062 H1074 0.960 . S
C1062 H1075 0.962 . S
C1062 H1076 0.960 . S
C1063 C1060 1.511 . S
C1063 H1077 0.961 . S
C1063 H1078 0.961 . S
C1063 H1079 0.961 . S
C1064 C1065 1.370 . S
C1064 C1066 1.363 . S
C1064 H1080 0.931 . S
C1065 C1064 1.370 . S
C1065 C1069 1.408 . S
C1066 C1064 1.363 . S
C1066 C1067 1.370 . S
C1066 C1070 1.524 . S
C1067 C1059 1.503 . S
C1067 C1066 1.370 . S
C1067 C1068 1.403 . S
C1068 C1067 1.403 . S
C1068 C1069 1.404 . S
C1068 C1071 1.539 . S
C1069 C1065 1.408 . S
C1069 C1068 1.404 . S
C1069 H1081 0.930 . S
C1070 C1066 1.524 . S
C1070 H1082 0.956 . S
C1070 H1083 0.961 . S
C1070 H1084 0.961 . S
C1071 C1068 1.539 . S
C1071 H1085 0.958 . S
C1071 H1086 0.961 . S
C1071 H1087 0.960 . S
H1072 C1056 0.931 . S
H1073 C1061 0.929 . S
H1074 C1062 0.960 . S
H1075 C1062 0.962 . S
H1076 C1062 0.960 . S
H1077 C1063 0.961 . S
H1078 C1063 0.961 . S
H1079 C1063 0.961 . S
H1080 C1064 0.931 . S
H1081 C1069 0.930 . S
H1082 C1070 0.956 . S
H1083 C1070 0.961 . S
H1084 C1070 0.961 . S
H1085 C1071 0.958 . S
H1086 C1071 0.961 . S
H1087 C1071 0.960 . S
C1088 C1089 1.391 . S
C1088 C1090 1.394 . S
C1088 H1104 0.931 . S
C1089 C1088 1.391 . S
C1089 C1093 1.376 . S
C1090 C1088 1.394 . S
C1090 C1091 1.369 . S
C1090 C1094 1.531 . S
C1091 C1090 1.369 . S
C1091 C1092 1.410 . S
C1091 C1099 1.503 . S
C1092 C1091 1.410 . S
C1092 C1093 1.392 . S
C1092 C1095 1.511 . S
C1093 C1089 1.376 . S
C1093 C1092 1.392 . S
C1093 H1105 0.929 . S
C1094 C1090 1.531 . S
C1094 H1106 0.960 . S
C1094 H1107 0.962 . S
C1094 H1108 0.960 . S
C1095 C1092 1.511 . S
C1095 H1109 0.961 . S
C1095 H1110 0.961 . S
C1095 H1111 0.961 . S
C1096 C1097 1.370 . S
C1096 C1098 1.363 . S
C1096 H1112 0.931 . S
C1097 C1096 1.370 . S
C1097 C1101 1.408 . S
C1098 C1096 1.363 . S
C1098 C1099 1.370 . S
C1098 C1102 1.524 . S
C1099 C1091 1.503 . S
C1099 C1098 1.370 . S
C1099 C1100 1.403 . S
C1100 C1099 1.403 . S
C1100 C1101 1.404 . S
C1100 C1103 1.539 . S
C1101 C1097 1.408 . S
C1101 C1100 1.404 . S
C1101 H1113 0.930 . S
C1102 C1098 1.524 . S
C1102 H1114 0.956 . S
C1102 H1115 0.961 . S
C1102 H1116 0.961 . S
C1103 C1100 1.539 . S
C1103 H1117 0.958 . S
C1103 H1118 0.961 . S
C1103 H1119 0.960 . S
H1104 C1088 0.931 . S
H1105 C1093 0.929 . S
H1106 C1094 0.960 . S
H1107 C1094 0.962 . S
H1108 C1094 0.960 . S
H1109 C1095 0.961 . S
H1110 C1095 0.961 . S
H1111 C1095 0.961 . S
H1112 C1096 0.931 . S
H1113 C1101 0.930 . S
H1114 C1102 0.956 . S
H1115 C1102 0.961 . S
H1116 C1102 0.961 . S
H1117 C1103 0.958 . S
H1118 C1103 0.961 . S
H1119 C1103 0.960 . S
C1120 C1121 1.391 . S
C1120 C1122 1.394 . S
C1120 H1136 0.931 . S
C1121 C1120 1.391 . S
C1121 C1125 1.376 . S
C1122 C1120 1.394 . S
C1122 C1123 1.369 . S
C1122 C1126 1.531 . S
C1123 C1122 1.369 . S
C1123 C1124 1.410 . S
C1123 C1131 1.503 . S
C1124 C1123 1.410 . S
C1124 C1125 1.392 . S
C1124 C1127 1.511 . S
C1125 C1121 1.376 . S
C1125 C1124 1.392 . S
C1125 H1137 0.929 . S
C1126 C1122 1.531 . S
C1126 H1138 0.960 . S
C1126 H1139 0.962 . S
C1126 H1140 0.960 . S
C1127 C1124 1.511 . S
C1127 H1141 0.961 . S
C1127 H1142 0.961 . S
C1127 H1143 0.961 . S
C1128 C1129 1.370 . S
C1128 C1130 1.363 . S
C1128 H1144 0.931 . S
C1129 C1128 1.370 . S
C1129 C1133 1.408 . S
C1130 C1128 1.363 . S
C1130 C1131 1.370 . S
C1130 C1134 1.524 . S
C1131 C1123 1.503 . S
C1131 C1130 1.370 . S
C1131 C1132 1.403 . S
C1132 C1131 1.403 . S
C1132 C1133 1.404 . S
C1132 C1135 1.539 . S
C1133 C1129 1.408 . S
C1133 C1132 1.404 . S
C1133 H1145 0.930 . S
C1134 C1130 1.524 . S
C1134 H1146 0.956 . S
C1134 H1147 0.961 . S
C1134 H1148 0.961 . S
C1135 C1132 1.539 . S
C1135 H1149 0.958 . S
C1135 H1150 0.961 . S
C1135 H1151 0.960 . S
H1136 C1120 0.931 . S
H1137 C1125 0.929 . S
H1138 C1126 0.960 . S
H1139 C1126 0.962 . S
H1140 C1126 0.960 . S
H1141 C1127 0.961 . S
H1142 C1127 0.961 . S
H1143 C1127 0.961 . S
H1144 C1128 0.931 . S
H1145 C1133 0.930 . S
H1146 C1134 0.956 . S
H1147 C1134 0.961 . S
H1148 C1134 0.961 . S
H1149 C1135 0.958 . S
H1150 C1135 0.961 . S
H1151 C1135 0.960 . S
C1152 C1153 1.391 . S
C1152 C1154 1.394 . S
C1152 H1168 0.931 . S
C1153 C1152 1.391 . S
C1153 C1157 1.376 . S
C1154 C1152 1.394 . S
C1154 C1155 1.369 . S
C1154 C1158 1.531 . S
C1155 C1154 1.369 . S
C1155 C1156 1.410 . S
C1155 C1163 1.503 . S
C1156 C1155 1.410 . S
C1156 C1157 1.392 . S
C1156 C1159 1.511 . S
C1157 C1153 1.376 . S
C1157 C1156 1.392 . S
C1157 H1169 0.929 . S
C1158 C1154 1.531 . S
C1158 H1170 0.960 . S
C1158 H1171 0.962 . S
C1158 H1172 0.960 . S
C1159 C1156 1.511 . S
C1159 H1173 0.961 . S
C1159 H1174 0.961 . S
C1159 H1175 0.961 . S
C1160 C1161 1.370 . S
C1160 C1162 1.363 . S
C1160 H1176 0.931 . S
C1161 C1160 1.370 . S
C1161 C1165 1.408 . S
C1162 C1160 1.363 . S
C1162 C1163 1.370 . S
C1162 C1166 1.524 . S
C1163 C1155 1.503 . S
C1163 C1162 1.370 . S
C1163 C1164 1.403 . S
C1164 C1163 1.403 . S
C1164 C1165 1.404 . S
C1164 C1167 1.539 . S
C1165 C1161 1.408 . S
C1165 C1164 1.404 . S
C1165 H1177 0.930 . S
C1166 C1162 1.524 . S
C1166 H1178 0.956 . S
C1166 H1179 0.961 . S
C1166 H1180 0.961 . S
C1167 C1164 1.539 . S
C1167 H1181 0.958 . S
C1167 H1182 0.961 . S
C1167 H1183 0.960 . S
H1168 C1152 0.931 . S
H1169 C1157 0.929 . S
H1170 C1158 0.960 . S
H1171 C1158 0.962 . S
H1172 C1158 0.960 . S
H1173 C1159 0.961 . S
H1174 C1159 0.961 . S
H1175 C1159 0.961 . S
H1176 C1160 0.931 . S
H1177 C1165 0.930 . S
H1178 C1166 0.956 . S
H1179 C1166 0.961 . S
H1180 C1166 0.961 . S
H1181 C1167 0.958 . S
H1182 C1167 0.961 . S
H1183 C1167 0.960 . S
C1184 C1185 1.391 . S
C1184 C1186 1.394 . S
C1184 H1200 0.931 . S
C1185 C1184 1.391 . S
C1185 C1189 1.376 . S
C1186 C1184 1.394 . S
C1186 C1187 1.369 . S
C1186 C1190 1.531 . S
C1187 C1186 1.369 . S
C1187 C1188 1.410 . S
C1187 C1195 1.503 . S
C1188 C1187 1.410 . S
C1188 C1189 1.392 . S
C1188 C1191 1.511 . S
C1189 C1185 1.376 . S
C1189 C1188 1.392 . S
C1189 H1201 0.929 . S
C1190 C1186 1.531 . S
C1190 H1202 0.960 . S
C1190 H1203 0.962 . S
C1190 H1204 0.960 . S
C1191 C1188 1.511 . S
C1191 H1205 0.961 . S
C1191 H1206 0.961 . S
C1191 H1207 0.961 . S
C1192 C1193 1.370 . S
C1192 C1194 1.363 . S
C1192 H1208 0.931 . S
C1193 C1192 1.370 . S
C1193 C1197 1.408 . S
C1194 C1192 1.363 . S
C1194 C1195 1.370 . S
C1194 C1198 1.524 . S
C1195 C1187 1.503 . S
C1195 C1194 1.370 . S
C1195 C1196 1.403 . S
C1196 C1195 1.403 . S
C1196 C1197 1.404 . S
C1196 C1199 1.539 . S
C1197 C1193 1.408 . S
C1197 C1196 1.404 . S
C1197 H1209 0.930 . S
C1198 C1194 1.524 . S
C1198 H1210 0.956 . S
C1198 H1211 0.961 . S
C1198 H1212 0.961 . S
C1199 C1196 1.539 . S
C1199 H1213 0.958 . S
C1199 H1214 0.961 . S
C1199 H1215 0.960 . S
H1200 C1184 0.931 . S
H1201 C1189 0.929 . S
H1202 C1190 0.960 . S
H1203 C1190 0.962 . S
H1204 C1190 0.960 . S
H1205 C1191 0.961 . S
H1206 C1191 0.961 . S
H1207 C1191 0.961 . S
H1208 C1192 0.931 . S
H1209 C1197 0.930 . S
H1210 C1198 0.956 . S
H1211 C1198 0.961 . S
H1212 C1198 0.961 . S
H1213 C1199 0.958 . S
H1214 C1199 0.961 . S
H1215 C1199 0.960 . S
C1216 C1217 1.391 . S
C1216 C1218 1.394 . S
C1216 H1232 0.931 . S
C1217 C1216 1.391 . S
C1217 C1221 1.376 . S
C1218 C1216 1.394 . S
C1218 C1219 1.369 . S
C1218 C1222 1.531 . S
C1219 C1218 1.369 . S
C1219 C1220 1.410 . S
C1219 C1227 1.503 . S
C1220 C1219 1.410 . S
C1220 C1221 1.392 . S
C1220 C1223 1.511 . S
C1221 C1217 1.376 . S
C1221 C1220 1.392 . S
C1221 H1233 0.929 . S
C1222 C1218 1.531 . S
C1222 H1234 0.960 . S
C1222 H1235 0.962 . S
C1222 H1236 0.960 . S
C1223 C1220 1.511 . S
C1223 H1237 0.961 . S
C1223 H1238 0.961 . S
C1223 H1239 0.961 . S
C1224 C1225 1.370 . S
C1224 C1226 1.363 . S
C1224 H1240 0.931 . S
C1225 C1224 1.370 . S
C1225 C1229 1.408 . S
C1226 C1224 1.363 . S
C1226 C1227 1.370 . S
C1226 C1230 1.524 . S
C1227 C1219 1.503 . S
C1227 C1226 1.370 . S
C1227 C1228 1.403 . S
C1228 C1227 1.403 . S
C1228 C1229 1.404 . S
C1228 C1231 1.539 . S
C1229 C1225 1.408 . S
C1229 C1228 1.404 . S
C1229 H1241 0.930 . S
C1230 C1226 1.524 . S
C1230 H1242 0.956 . S
C1230 H1243 0.961 . S
C1230 H1244 0.961 . S
C1231 C1228 1.539 . S
C1231 H1245 0.958 . S
C1231 H1246 0.961 . S
C1231 H1247 0.960 . S
H1232 C1216 0.931 . S
H1233 C1221 0.929 . S
H1234 C1222 0.960 . S
H1235 C1222 0.962 . S
H1236 C1222 0.960 . S
H1237 C1223 0.961 . S
H1238 C1223 0.961 . S
H1239 C1223 0.961 . S
H1240 C1224 0.931 . S
H1241 C1229 0.930 . S
H1242 C1230 0.956 . S
H1243 C1230 0.961 . S
H1244 C1230 0.961 . S
H1245 C1231 0.958 . S
H1246 C1231 0.961 . S
H1247 C1231 0.960 . S
C1248 C1249 1.391 . S
C1248 C1250 1.394 . S
C1248 H1264 0.931 . S
C1249 C1248 1.391 . S
C1249 C1253 1.376 . S
C1250 C1248 1.394 . S
C1250 C1251 1.369 . S
C1250 C1254 1.531 . S
C1251 C1250 1.369 . S
C1251 C1252 1.410 . S
C1251 C1259 1.503 . S
C1252 C1251 1.410 . S
C1252 C1253 1.392 . S
C1252 C1255 1.511 . S
C1253 C1249 1.376 . S
C1253 C1252 1.392 . S
C1253 H1265 0.929 . S
C1254 C1250 1.531 . S
C1254 H1266 0.960 . S
C1254 H1267 0.962 . S
C1254 H1268 0.960 . S
C1255 C1252 1.511 . S
C1255 H1269 0.961 . S
C1255 H1270 0.961 . S
C1255 H1271 0.961 . S
C1256 C1257 1.370 . S
C1256 C1258 1.363 . S
C1256 H1272 0.931 . S
C1257 C1256 1.370 . S
C1257 C1261 1.408 . S
C1258 C1256 1.363 . S
C1258 C1259 1.370 . S
C1258 C1262 1.524 . S
C1259 C1251 1.503 . S
C1259 C1258 1.370 . S
C1259 C1260 1.403 . S
C1260 C1259 1.403 . S
C1260 C1261 1.404 . S
C1260 C1263 1.539 . S
C1261 C1257 1.408 . S
C1261 C1260 1.404 . S
C1261 H1273 0.930 . S
C1262 C1258 1.524 . S
C1262 H1274 0.956 . S
C1262 H1275 0.961 . S
C1262 H1276 0.961 . S
C1263 C1260 1.539 . S
C1263 H1277 0.958 . S
C1263 H1278 0.961 . S
C1263 H1279 0.960 . S
H1264 C1248 0.931 . S
H1265 C1253 0.929 . S
H1266 C1254 0.960 . S
H1267 C1254 0.962 . S
H1268 C1254 0.960 . S
H1269 C1255 0.961 . S
H1270 C1255 0.961 . S
H1271 C1255 0.961 . S
H1272 C1256 0.931 . S
H1273 C1261 0.930 . S
H1274 C1262 0.956 . S
H1275 C1262 0.961 . S
H1276 C1262 0.961 . S
H1277 C1263 0.958 . S
H1278 C1263 0.961 . S
H1279 C1263 0.960 . S
C1280 C1281 1.391 . S
C1280 C1282 1.394 . S
C1280 H1296 0.931 . S
C1281 C1280 1.391 . S
C1281 C1285 1.376 . S
C1282 C1280 1.394 . S
C1282 C1283 1.369 . S
C1282 C1286 1.531 . S
C1283 C1282 1.369 . S
C1283 C1284 1.410 . S
C1283 C1291 1.503 . S
C1284 C1283 1.410 . S
C1284 C1285 1.392 . S
C1284 C1287 1.511 . S
C1285 C1281 1.376 . S
C1285 C1284 1.392 . S
C1285 H1297 0.929 . S
C1286 C1282 1.531 . S
C1286 H1298 0.960 . S
C1286 H1299 0.962 . S
C1286 H1300 0.960 . S
C1287 C1284 1.511 . S
C1287 H1301 0.961 . S
C1287 H1302 0.961 . S
C1287 H1303 0.961 . S
C1288 C1289 1.370 . S
C1288 C1290 1.363 . S
C1288 H1304 0.931 . S
C1289 C1288 1.370 . S
C1289 C1293 1.408 . S
C1290 C1288 1.363 . S
C1290 C1291 1.370 . S
C1290 C1294 1.524 . S
C1291 C1283 1.503 . S
C1291 C1290 1.370 . S
C1291 C1292 1.403 . S
C1292 C1291 1.403 . S
C1292 C1293 1.404 . S
C1292 C1295 1.539 . S
C1293 C1289 1.408 . S
C1293 C1292 1.404 . S
C1293 H1305 0.930 . S
C1294 C1290 1.524 . S
C1294 H1306 0.956 . S
C1294 H1307 0.961 . S
C1294 H1308 0.961 . S
C1295 C1292 1.539 . S
C1295 H1309 0.958 . S
C1295 H1310 0.961 . S
C1295 H1311 0.960 . S
H1296 C1280 0.931 . S
H1297 C1285 0.929 . S
H1298 C1286 0.960 . S
H1299 C1286 0.962 . S
H1300 C1286 0.960 . S
H1301 C1287 0.961 . S
H1302 C1287 0.961 . S
H1303 C1287 0.961 . S
H1304 C1288 0.931 . S
H1305 C1293 0.930 . S
H1306 C1294 0.956 . S
H1307 C1294 0.961 . S
H1308 C1294 0.961 . S
H1309 C1295 0.958 . S
H1310 C1295 0.961 . S
H1311 C1295 0.960 . S
C1312 C1313 1.391 . S
C1312 C1314 1.394 . S
C1312 H1328 0.931 . S
C1313 C1312 1.391 . S
C1313 C1317 1.376 . S
C1314 C1312 1.394 . S
C1314 C1315 1.369 . S
C1314 C1318 1.531 . S
C1315 C1314 1.369 . S
C1315 C1316 1.410 . S
C1315 C1323 1.503 . S
C1316 C1315 1.410 . S
C1316 C1317 1.392 . S
C1316 C1319 1.511 . S
C1317 C1313 1.376 . S
C1317 C1316 1.392 . S
C1317 H1329 0.929 . S
C1318 C1314 1.531 . S
C1318 H1330 0.960 . S
C1318 H1331 0.962 . S
C1318 H1332 0.960 . S
C1319 C1316 1.511 . S
C1319 H1333 0.961 . S
C1319 H1334 0.961 . S
C1319 H1335 0.961 . S
C1320 C1321 1.370 . S
C1320 C1322 1.363 . S
C1320 H1336 0.931 . S
C1321 C1320 1.370 . S
C1321 C1325 1.408 . S
C1322 C1320 1.363 . S
C1322 C1323 1.370 . S
C1322 C1326 1.524 . S
C1323 C1315 1.503 . S
C1323 C1322 1.370 . S
C1323 C1324 1.403 . S
C1324 C1323 1.403 . S
C1324 C1325 1.404 . S
C1324 C1327 1.539 . S
C1325 C1321 1.408 . S
C1325 C1324 1.404 . S
C1325 H1337 0.930 . S
C1326 C1322 1.524 . S
C1326 H1338 0.956 . S
C1326 H1339 0.961 . S
C1326 H1340 0.961 . S
C1327 C1324 1.539 . S
C1327 H1341 0.958 . S
C1327 H1342 0.961 . S
C1327 H1343 0.960 . S
H1328 C1312 0.931 . S
H1329 C1317 0.929 . S
H1330 C1318 0.960 . S
H1331 C1318 0.962 . S
H1332 C1318 0.960 . S
H1333 C1319 0.961 . S
H1334 C1319 0.961 . S
H1335 C1319 0.961 . S
H1336 C1320 0.931 . S
H1337 C1325 0.930 . S
H1338 C1326 0.956 . S
H1339 C1326 0.961 . S
H1340 C1326 0.961 . S
H1341 C1327 0.958 . S
H1342 C1327 0.961 . S
H1343 C1327 0.960 . S
C1344 C1345 1.391 . S
C1344 C1346 1.394 . S
C1344 H1360 0.931 . S
C1345 C1344 1.391 . S
C1345 C1349 1.376 . S
C1346 C1344 1.394 . S
C1346 C1347 1.369 . S
C1346 C1350 1.531 . S
C1347 C1346 1.369 . S
C1347 C1348 1.410 . S
C1347 C1355 1.503 . S
C1348 C1347 1.410 . S
C1348 C1349 1.392 . S
C1348 C1351 1.511 . S
C1349 C1345 1.376 . S
C1349 C1348 1.392 . S
C1349 H1361 0.929 . S
C1350 C1346 1.531 . S
C1350 H1362 0.960 . S
C1350 H1363 0.962 . S
C1350 H1364 0.960 . S
C1351 C1348 1.511 . S
C1351 H1365 0.961 . S
C1351 H1366 0.961 . S
C1351 H1367 0.961 . S
C1352 C1353 1.370 . S
C1352 C1354 1.363 . S
C1352 H1368 0.931 . S
C1353 C1352 1.370 . S
C1353 C1357 1.408 . S
C1354 C1352 1.363 . S
C1354 C1355 1.370 . S
C1354 C1358 1.524 . S
C1355 C1347 1.503 . S
C1355 C1354 1.370 . S
C1355 C1356 1.403 . S
C1356 C1355 1.403 . S
C1356 C1357 1.404 . S
C1356 C1359 1.539 . S
C1357 C1353 1.408 . S
C1357 C1356 1.404 . S
C1357 H1369 0.930 . S
C1358 C1354 1.524 . S
C1358 H1370 0.956 . S
C1358 H1371 0.961 . S
C1358 H1372 0.961 . S
C1359 C1356 1.539 . S
C1359 H1373 0.958 . S
C1359 H1374 0.961 . S
C1359 H1375 0.960 . S
H1360 C1344 0.931 . S
H1361 C1349 0.929 . S
H1362 C1350 0.960 . S
H1363 C1350 0.962 . S
H1364 C1350 0.960 . S
H1365 C1351 0.961 . S
H1366 C1351 0.961 . S
H1367 C1351 0.961 . S
H1368 C1352 0.931 . S
H1369 C1357 0.930 . S
H1370 C1358 0.956 . S
H1371 C1358 0.961 . S
H1372 C1358 0.961 . S
H1373 C1359 0.958 . S
H1374 C1359 0.961 . S
H1375 C1359 0.960 . S
C1376 C1377 1.391 . S
C1376 C1378 1.394 . S
C1376 H1392 0.931 . S
C1377 C1376 1.391 . S
C1377 C1381 1.376 . S
C1378 C1376 1.394 . S
C1378 C1379 1.369 . S
C1378 C1382 1.531 . S
C1379 C1378 1.369 . S
C1379 C1380 1.410 . S
C1379 C1387 1.503 . S
C1380 C1379 1.410 . S
C1380 C1381 1.392 . S
C1380 C1383 1.511 . S
C1381 C1377 1.376 . S
C1381 C1380 1.392 . S
C1381 H1393 0.929 . S
C1382 C1378 1.531 . S
C1382 H1394 0.960 . S
C1382 H1395 0.962 . S
C1382 H1396 0.960 . S
C1383 C1380 1.511 . S
C1383 H1397 0.961 . S
C1383 H1398 0.961 . S
C1383 H1399 0.961 . S
C1384 C1385 1.370 . S
C1384 C1386 1.363 . S
C1384 H1400 0.931 . S
C1385 C1384 1.370 . S
C1385 C1389 1.408 . S
C1386 C1384 1.363 . S
C1386 C1387 1.370 . S
C1386 C1390 1.524 . S
C1387 C1379 1.503 . S
C1387 C1386 1.370 . S
C1387 C1388 1.403 . S
C1388 C1387 1.403 . S
C1388 C1389 1.404 . S
C1388 C1391 1.539 . S
C1389 C1385 1.408 . S
C1389 C1388 1.404 . S
C1389 H1401 0.930 . S
C1390 C1386 1.524 . S
C1390 H1402 0.956 . S
C1390 H1403 0.961 . S
C1390 H1404 0.961 . S
C1391 C1388 1.539 . S
C1391 H1405 0.958 . S
C1391 H1406 0.961 . S
C1391 H1407 0.960 . S
H1392 C1376 0.931 . S
H1393 C1381 0.929 . S
H1394 C1382 0.960 . S
H1395 C1382 0.962 . S
H1396 C1382 0.960 . S
H1397 C1383 0.961 . S
H1398 C1383 0.961 . S
H1399 C1383 0.961 . S
H1400 C1384 0.931 . S
H1401 C1389 0.930 . S
H1402 C1390 0.956 . S
H1403 C1390 0.961 . S
H1404 C1390 0.961 . S
H1405 C1391 0.958 . S
H1406 C1391 0.961 . S
H1407 C1391 0.960 . S
C1408 C1409 1.391 . S
C1408 C1410 1.394 . S
C1408 H1424 0.931 . S
C1409 C1408 1.391 . S
C1409 C1413 1.376 . S
C1410 C1408 1.394 . S
C1410 C1411 1.369 . S
C1410 C1414 1.531 . S
C1411 C1410 1.369 . S
C1411 C1412 1.410 . S
C1411 C1419 1.503 . S
C1412 C1411 1.410 . S
C1412 C1413 1.392 . S
C1412 C1415 1.511 . S
C1413 C1409 1.376 . S
C1413 C1412 1.392 . S
C1413 H1425 0.929 . S
C1414 C1410 1.531 . S
C1414 H1426 0.960 . S
C1414 H1427 0.962 . S
C1414 H1428 0.960 . S
C1415 C1412 1.511 . S
C1415 H1429 0.961 . S
C1415 H1430 0.961 . S
C1415 H1431 0.961 . S
C1416 C1417 1.370 . S
C1416 C1418 1.363 . S
C1416 H1432 0.931 . S
C1417 C1416 1.370 . S
C1417 C1421 1.408 . S
C1418 C1416 1.363 . S
C1418 C1419 1.370 . S
C1418 C1422 1.524 . S
C1419 C1411 1.503 . S
C1419 C1418 1.370 . S
C1419 C1420 1.403 . S
C1420 C1419 1.403 . S
C1420 C1421 1.404 . S
C1420 C1423 1.539 . S
C1421 C1417 1.408 . S
C1421 C1420 1.404 . S
C1421 H1433 0.930 . S
C1422 C1418 1.524 . S
C1422 H1434 0.956 . S
C1422 H1435 0.961 . S
C1422 H1436 0.961 . S
C1423 C1420 1.539 . S
C1423 H1437 0.958 . S
C1423 H1438 0.961 . S
C1423 H1439 0.960 . S
H1424 C1408 0.931 . S
H1425 C1413 0.929 . S
H1426 C1414 0.960 . S
H1427 C1414 0.962 . S
H1428 C1414 0.960 . S
H1429 C1415 0.961 . S
H1430 C1415 0.961 . S
H1431 C1415 0.961 . S
H1432 C1416 0.931 . S
H1433 C1421 0.930 . S
H1434 C1422 0.956 . S
H1435 C1422 0.961 . S
H1436 C1422 0.961 . S
H1437 C1423 0.958 . S
H1438 C1423 0.961 . S
H1439 C1423 0.960 . S
C1440 C1441 1.391 . S
C1440 C1442 1.394 . S
C1440 H1456 0.931 . S
C1441 C1440 1.391 . S
C1441 C1445 1.376 . S
C1442 C1440 1.394 . S
C1442 C1443 1.369 . S
C1442 C1446 1.531 . S
C1443 C1442 1.369 . S
C1443 C1444 1.410 . S
C1443 C1451 1.503 . S
C1444 C1443 1.410 . S
C1444 C1445 1.392 . S
C1444 C1447 1.511 . S
C1445 C1441 1.376 . S
C1445 C1444 1.392 . S
C1445 H1457 0.929 . S
C1446 C1442 1.531 . S
C1446 H1458 0.960 . S
C1446 H1459 0.962 . S
C1446 H1460 0.960 . S
C1447 C1444 1.511 . S
C1447 H1461 0.961 . S
C1447 H1462 0.961 . S
C1447 H1463 0.961 . S
C1448 C1449 1.370 . S
C1448 C1450 1.363 . S
C1448 H1464 0.931 . S
C1449 C1448 1.370 . S
C1449 C1453 1.408 . S
C1450 C1448 1.363 . S
C1450 C1451 1.370 . S
C1450 C1454 1.524 . S
C1451 C1443 1.503 . S
C1451 C1450 1.370 . S
C1451 C1452 1.403 . S
C1452 C1451 1.403 . S
C1452 C1453 1.404 . S
C1452 C1455 1.539 . S
C1453 C1449 1.408 . S
C1453 C1452 1.404 . S
C1453 H1465 0.930 . S
C1454 C1450 1.524 . S
C1454 H1466 0.956 . S
C1454 H1467 0.961 . S
C1454 H1468 0.961 . S
C1455 C1452 1.539 . S
C1455 H1469 0.958 . S
C1455 H1470 0.961 . S
C1455 H1471 0.960 . S
H1456 C1440 0.931 . S
H1457 C1445 0.929 . S
H1458 C1446 0.960 . S
H1459 C1446 0.962 . S
H1460 C1446 0.960 . S
H1461 C1447 0.961 . S
H1462 C1447 0.961 . S
H1463 C1447 0.961 . S
H1464 C1448 0.931 . S
H1465 C1453 0.930 . S
H1466 C1454 0.956 . S
H1467 C1454 0.961 . S
H1468 C1454 0.961 . S
H1469 C1455 0.958 . S
H1470 C1455 0.961 . S
H1471 C1455 0.960 . S
C1472 C1473 1.391 . S
C1472 C1474 1.394 . S
C1472 H1488 0.931 . S
C1473 C1472 1.391 . S
C1473 C1477 1.376 . S
C1474 C1472 1.394 . S
C1474 C1475 1.369 . S
C1474 C1478 1.531 . S
C1475 C1474 1.369 . S
C1475 C1476 1.410 . S
C1475 C1483 1.503 . S
C1476 C1475 1.410 . S
C1476 C1477 1.392 . S
C1476 C1479 1.511 . S
C1477 C1473 1.376 . S
C1477 C1476 1.392 . S
C1477 H1489 0.929 . S
C1478 C1474 1.531 . S
C1478 H1490 0.960 . S
C1478 H1491 0.962 . S
C1478 H1492 0.960 . S
C1479 C1476 1.511 . S
C1479 H1493 0.961 . S
C1479 H1494 0.961 . S
C1479 H1495 0.961 . S
C1480 C1481 1.370 . S
C1480 C1482 1.363 . S
C1480 H1496 0.931 . S
C1481 C1480 1.370 . S
C1481 C1485 1.408 . S
C1482 C1480 1.363 . S
C1482 C1483 1.370 . S
C1482 C1486 1.524 . S
C1483 C1475 1.503 . S
C1483 C1482 1.370 . S
C1483 C1484 1.403 . S
C1484 C1483 1.403 . S
C1484 C1485 1.404 . S
C1484 C1487 1.539 . S
C1485 C1481 1.408 . S
C1485 C1484 1.404 . S
C1485 H1497 0.930 . S
C1486 C1482 1.524 . S
C1486 H1498 0.956 . S
C1486 H1499 0.961 . S
C1486 H1500 0.961 . S
C1487 C1484 1.539 . S
C1487 H1501 0.958 . S
C1487 H1502 0.961 . S
C1487 H1503 0.960 . S
H1488 C1472 0.931 . S
H1489 C1477 0.929 . S
H1490 C1478 0.960 . S
H1491 C1478 0.962 . S
H1492 C1478 0.960 . S
H1493 C1479 0.961 . S
H1494 C1479 0.961 . S
H1495 C1479 0.961 . S
H1496 C1480 0.931 . S
H1497 C1485 0.930 . S
H1498 C1486 0.956 . S
H1499 C1486 0.961 . S
H1500 C1486 0.961 . S
H1501 C1487 0.958 . S
H1502 C1487 0.961 . S
H1503 C1487 0.960 . S
C1504 C1505 1.391 . S
C1504 C1506 1.394 . S
C1504 H1520 0.931 . S
C1505 C1504 1.391 . S
C1505 C1509 1.376 . S
C1506 C1504 1.394 . S
C1506 C1507 1.369 . S
C1506 C1510 1.531 . S
C1507 C1506 1.369 . S
C1507 C1508 1.410 . S
C1507 C1515 1.503 . S
C1508 C1507 1.410 . S
C1508 C1509 1.392 . S
C1508 C1511 1.511 . S
C1509 C1505 1.376 . S
C1509 C1508 1.392 . S
C1509 H1521 0.929 . S
C1510 C1506 1.531 . S
C1510 H1522 0.960 . S
C1510 H1523 0.962 . S
C1510 H1524 0.960 . S
C1511 C1508 1.511 . S
C1511 H1525 0.961 . S
C1511 H1526 0.961 . S
C1511 H1527 0.961 . S
C1512 C1513 1.370 . S
C1512 C1514 1.363 . S
C1512 H1528 0.931 . S
C1513 C1512 1.370 . S
C1513 C1517 1.408 . S
C1514 C1512 1.363 . S
C1514 C1515 1.370 . S
C1514 C1518 1.524 . S
C1515 C1507 1.503 . S
C1515 C1514 1.370 . S
C1515 C1516 1.403 . S
C1516 C1515 1.403 . S
C1516 C1517 1.404 . S
C1516 C1519 1.539 . S
C1517 C1513 1.408 . S
C1517 C1516 1.404 . S
C1517 H1529 0.930 . S
C1518 C1514 1.524 . S
C1518 H1530 0.956 . S
C1518 H1531 0.961 . S
C1518 H1532 0.961 . S
C1519 C1516 1.539 . S
C1519 H1533 0.958 . S
C1519 H1534 0.961 . S
C1519 H1535 0.960 . S
H1520 C1504 0.931 . S
H1521 C1509 0.929 . S
H1522 C1510 0.960 . S
H1523 C1510 0.962 . S
H1524 C1510 0.960 . S
H1525 C1511 0.961 . S
H1526 C1511 0.961 . S
H1527 C1511 0.961 . S
H1528 C1512 0.931 . S
H1529 C1517 0.930 . S
H1530 C1518 0.956 . S
H1531 C1518 0.961 . S
H1532 C1518 0.961 . S
H1533 C1519 0.958 . S
H1534 C1519 0.961 . S
H1535 C1519 0.960 . S
C1536 C1537 1.391 . S
C1536 C1538 1.394 . S
C1536 H1552 0.931 . S
C1537 C1536 1.391 . S
C1537 C1541 1.376 . S
C1538 C1536 1.394 . S
C1538 C1539 1.369 . S
C1538 C1542 1.531 . S
C1539 C1538 1.369 . S
C1539 C1540 1.410 . S
C1539 C1547 1.503 . S
C1540 C1539 1.410 . S
C1540 C1541 1.392 . S
C1540 C1543 1.511 . S
C1541 C1537 1.376 . S
C1541 C1540 1.392 . S
C1541 H1553 0.929 . S
C1542 C1538 1.531 . S
C1542 H1554 0.960 . S
C1542 H1555 0.962 . S
C1542 H1556 0.960 . S
C1543 C1540 1.511 . S
C1543 H1557 0.961 . S
C1543 H1558 0.961 . S
C1543 H1559 0.961 . S
C1544 C1545 1.370 . S
C1544 C1546 1.363 . S
C1544 H1560 0.931 . S
C1545 C1544 1.370 . S
C1545 C1549 1.408 . S
C1546 C1544 1.363 . S
C1546 C1547 1.370 . S
C1546 C1550 1.524 . S
C1547 C1539 1.503 . S
C1547 C1546 1.370 . S
C1547 C1548 1.403 . S
C1548 C1547 1.403 . S
C1548 C1549 1.404 . S
C1548 C1551 1.539 . S
C1549 C1545 1.408 . S
C1549 C1548 1.404 . S
C1549 H1561 0.930 . S
C1550 C1546 1.524 . S
C1550 H1562 0.956 . S
C1550 H1563 0.961 . S
C1550 H1564 0.961 . S
C1551 C1548 1.539 . S
C1551 H1565 0.958 . S
C1551 H1566 0.961 . S
C1551 H1567 0.960 . S
H1552 C1536 0.931 . S
H1553 C1541 0.929 . S
H1554 C1542 0.960 . S
H1555 C1542 0.962 . S
H1556 C1542 0.960 . S
H1557 C1543 0.961 . S
H1558 C1543 0.961 . S
H1559 C1543 0.961 . S
H1560 C1544 0.931 . S
H1561 C1549 0.930 . S
H1562 C1550 0.956 . S
H1563 C1550 0.961 . S
H1564 C1550 0.961 . S
H1565 C1551 0.958 . S
H1566 C1551 0.961 . S
H1567 C1551 0.960 . S
C1568 C1569 1.391 . S
C1568 C1570 1.394 . S
C1568 H1584 0.931 . S
C1569 C1568 1.391 . S
C1569 C1573 1.376 . S
C1570 C1568 1.394 . S
C1570 C1571 1.369 . S
C1570 C1574 1.531 . S
C1571 C1570 1.369 . S
C1571 C1572 1.410 . S
C1571 C1579 1.503 . S
C1572 C1571 1.410 . S
C1572 C1573 1.392 . S
C1572 C1575 1.511 . S
C1573 C1569 1.376 . S
C1573 C1572 1.392 . S
C1573 H1585 0.929 . S
C1574 C1570 1.531 . S
C1574 H1586 0.960 . S
C1574 H1587 0.962 . S
C1574 H1588 0.960 . S
C1575 C1572 1.511 . S
C1575 H1589 0.961 . S
C1575 H1590 0.961 . S
C1575 H1591 0.961 . S
C1576 C1577 1.370 . S
C1576 C1578 1.363 . S
C1576 H1592 0.931 . S
C1577 C1576 1.370 . S
C1577 C1581 1.408 . S
C1578 C1576 1.363 . S
C1578 C1579 1.370 . S
C1578 C1582 1.524 . S
C1579 C1571 1.503 . S
C1579 C1578 1.370 . S
C1579 C1580 1.403 . S
C1580 C1579 1.403 . S
C1580 C1581 1.404 . S
C1580 C1583 1.539 . S
C1581 C1577 1.408 . S
C1581 C1580 1.404 . S
C1581 H1593 0.930 . S
C1582 C1578 1.524 . S
C1582 H1594 0.956 . S
C1582 H1595 0.961 . S
C1582 H1596 0.961 . S
C1583 C1580 1.539 . S
C1583 H1597 0.958 . S
C1583 H1598 0.961 . S
C1583 H1599 0.960 . S
H1584 C1568 0.931 . S
H1585 C1573 0.929 . S
H1586 C1574 0.960 . S
H1587 C1574 0.962 . S
H1588 C1574 0.960 . S
H1589 C1575 0.961 . S
H1590 C1575 0.961 . S
H1591 C1575 0.961 . S
H1592 C1576 0.931 . S
H1593 C1581 0.930 . S
H1594 C1582 0.956 . S
H1595 C1582 0.961 . S
H1596 C1582 0.961 . S
H1597 C1583 0.958 . S
H1598 C1583 0.961 . S
H1599 C1583 0.960 . S
C1600 C1601 1.391 . S
C1600 C1602 1.394 . S
C1600 H1616 0.931 . S
C1601 C1600 1.391 . S
C1601 C1605 1.376 . S
C1602 C1600 1.394 . S
C1602 C1603 1.369 . S
C1602 C1606 1.531 . S
C1603 C1602 1.369 . S
C1603 C1604 1.410 . S
C1603 C1611 1.503 . S
C1604 C1603 1.410 . S
C1604 C1605 1.392 . S
C1604 C1607 1.511 . S
C1605 C1601 1.376 . S
C1605 C1604 1.392 . S
C1605 H1617 0.929 . S
C1606 C1602 1.531 . S
C1606 H1618 0.960 . S
C1606 H1619 0.962 . S
C1606 H1620 0.960 . S
C1607 C1604 1.511 . S
C1607 H1621 0.961 . S
C1607 H1622 0.961 . S
C1607 H1623 0.961 . S
C1608 C1609 1.370 . S
C1608 C1610 1.363 . S
C1608 H1624 0.931 . S
C1609 C1608 1.370 . S
C1609 C1613 1.408 . S
C1610 C1608 1.363 . S
C1610 C1611 1.370 . S
C1610 C1614 1.524 . S
C1611 C1603 1.503 . S
C1611 C1610 1.370 . S
C1611 C1612 1.403 . S
C1612 C1611 1.403 . S
C1612 C1613 1.404 . S
C1612 C1615 1.539 . S
C1613 C1609 1.408 . S
C1613 C1612 1.404 . S
C1613 H1625 0.930 . S
C1614 C1610 1.524 . S
C1614 H1626 0.956 . S
C1614 H1627 0.961 . S
C1614 H1628 0.961 . S
C1615 C1612 1.539 . S
C1615 H1629 0.958 . S
C1615 H1630 0.961 . S
C1615 H1631 0.960 . S
H1616 C1600 0.931 . S
H1617 C1605 0.929 . S
H1618 C1606 0.960 . S
H1619 C1606 0.962 . S
H1620 C1606 0.960 . S
H1621 C1607 0.961 . S
H1622 C1607 0.961 . S
H1623 C1607 0.961 . S
H1624 C1608 0.931 . S
H1625 C1613 0.930 . S
H1626 C1614 0.956 . S
H1627 C1614 0.961 . S
H1628 C1614 0.961 . S
H1629 C1615 0.958 . S
H1630 C1615 0.961 . S
H1631 C1615 0.960 . S
C1632 C1633 1.391 . S
C1632 C1634 1.394 . S
C1632 H1648 0.931 . S
C1633 C1632 1.391 . S
C1633 C1637 1.376 . S
C1634 C1632 1.394 . S
C1634 C1635 1.369 . S
C1634 C1638 1.531 . S
C1635 C1634 1.369 . S
C1635 C1636 1.410 . S
C1635 C1643 1.503 . S
C1636 C1635 1.410 . S
C1636 C1637 1.392 . S
C1636 C1639 1.511 . S
C1637 C1633 1.376 . S
C1637 C1636 1.392 . S
C1637 H1649 0.929 . S
C1638 C1634 1.531 . S
C1638 H1650 0.960 . S
C1638 H1651 0.962 . S
C1638 H1652 0.960 . S
C1639 C1636 1.511 . S
C1639 H1653 0.961 . S
C1639 H1654 0.961 . S
C1639 H1655 0.961 . S
C1640 C1641 1.370 . S
C1640 C1642 1.363 . S
C1640 H1656 0.931 . S
C1641 C1640 1.370 . S
C1641 C1645 1.408 . S
C1642 C1640 1.363 . S
C1642 C1643 1.370 . S
C1642 C1646 1.524 . S
C1643 C1635 1.503 . S
C1643 C1642 1.370 . S
C1643 C1644 1.403 . S
C1644 C1643 1.403 . S
C1644 C1645 1.404 . S
C1644 C1647 1.539 . S
C1645 C1641 1.408 . S
C1645 C1644 1.404 . S
C1645 H1657 0.930 . S
C1646 C1642 1.524 . S
C1646 H1658 0.956 . S
C1646 H1659 0.961 . S
C1646 H1660 0.961 . S
C1647 C1644 1.539 . S
C1647 H1661 0.958 . S
C1647 H1662 0.961 . S
C1647 H1663 0.960 . S
H1648 C1632 0.931 . S
H1649 C1637 0.929 . S
H1650 C1638 0.960 . S
H1651 C1638 0.962 . S
H1652 C1638 0.960 . S
H1653 C1639 0.961 . S
H1654 C1639 0.961 . S
H1655 C1639 0.961 . S
H1656 C1640 0.931 . S
H1657 C1645 0.930 . S
H1658 C1646 0.956 . S
H1659 C1646 0.961 . S
H1660 C1646 0.961 . S
H1661 C1647 0.958 . S
H1662 C1647 0.961 . S
H1663 C1647 0.960 . S
C1664 C1665 1.391 . S
C1664 C1666 1.394 . S
C1664 H1680 0.931 . S
C1665 C1664 1.391 . S
C1665 C1669 1.376 . S
C1666 C1664 1.394 . S
C1666 C1667 1.369 . S
C1666 C1670 1.531 . S
C1667 C1666 1.369 . S
C1667 C1668 1.410 . S
C1667 C1675 1.503 . S
C1668 C1667 1.410 . S
C1668 C1669 1.392 . S
C1668 C1671 1.511 . S
C1669 C1665 1.376 . S
C1669 C1668 1.392 . S
C1669 H1681 0.929 . S
C1670 C1666 1.531 . S
C1670 H1682 0.960 . S
C1670 H1683 0.962 . S
C1670 H1684 0.960 . S
C1671 C1668 1.511 . S
C1671 H1685 0.961 . S
C1671 H1686 0.961 . S
C1671 H1687 0.961 . S
C1672 C1673 1.370 . S
C1672 C1674 1.363 . S
C1672 H1688 0.931 . S
C1673 C1672 1.370 . S
C1673 C1677 1.408 . S
C1674 C1672 1.363 . S
C1674 C1675 1.370 . S
C1674 C1678 1.524 . S
C1675 C1667 1.503 . S
C1675 C1674 1.370 . S
C1675 C1676 1.403 . S
C1676 C1675 1.403 . S
C1676 C1677 1.404 . S
C1676 C1679 1.539 . S
C1677 C1673 1.408 . S
C1677 C1676 1.404 . S
C1677 H1689 0.930 . S
C1678 C1674 1.524 . S
C1678 H1690 0.956 . S
C1678 H1691 0.961 . S
C1678 H1692 0.961 . S
C1679 C1676 1.539 . S
C1679 H1693 0.958 . S
C1679 H1694 0.961 . S
C1679 H1695 0.960 . S
H1680 C1664 0.931 . S
H1681 C1669 0.929 . S
H1682 C1670 0.960 . S
H1683 C1670 0.962 . S
H1684 C1670 0.960 . S
H1685 C1671 0.961 . S
H1686 C1671 0.961 . S
H1687 C1671 0.961 . S
H1688 C1672 0.931 . S
H1689 C1677 0.930 . S
H1690 C1678 0.956 . S
H1691 C1678 0.961 . S
H1692 C1678 0.961 . S
H1693 C1679 0.958 . S
H1694 C1679 0.961 . S
H1695 C1679 0.960 . S
C1696 C1697 1.391 . S
C1696 C1698 1.394 . S
C1696 H1712 0.931 . S
C1697 C1696 1.391 . S
C1697 C1701 1.376 . S
C1698 C1696 1.394 . S
C1698 C1699 1.369 . S
C1698 C1702 1.531 . S
C1699 C1698 1.369 . S
C1699 C1700 1.410 . S
C1699 C1707 1.503 . S
C1700 C1699 1.410 . S
C1700 C1701 1.392 . S
C1700 C1703 1.511 . S
C1701 C1697 1.376 . S
C1701 C1700 1.392 . S
C1701 H1713 0.929 . S
C1702 C1698 1.531 . S
C1702 H1714 0.960 . S
C1702 H1715 0.962 . S
C1702 H1716 0.960 . S
C1703 C1700 1.511 . S
C1703 H1717 0.961 . S
C1703 H1718 0.961 . S
C1703 H1719 0.961 . S
C1704 C1705 1.370 . S
C1704 C1706 1.363 . S
C1704 H1720 0.931 . S
C1705 C1704 1.370 . S
C1705 C1709 1.408 . S
C1706 C1704 1.363 . S
C1706 C1707 1.370 . S
C1706 C1710 1.524 . S
C1707 C1699 1.503 . S
C1707 C1706 1.370 . S
C1707 C1708 1.403 . S
C1708 C1707 1.403 . S
C1708 C1709 1.404 . S
C1708 C1711 1.539 . S
C1709 C1705 1.408 . S
C1709 C1708 1.404 . S
C1709 H1721 0.930 . S
C1710 C1706 1.524 . S
C1710 H1722 0.956 . S
C1710 H1723 0.961 . S
C1710 H1724 0.961 . S
C1711 C1708 1.539 . S
C1711 H1725 0.958 . S
C1711 H1726 0.961 . S
C1711 H1727 0.960 . S
H1712 C1696 0.931 . S
H1713 C1701 0.929 . S
H1714 C1702 0.960 . S
H1715 C1702 0.962 . S
H1716 C1702 0.960 . S
H1717 C1703 0.961 . S
H1718 C1703 0.961 . S
H1719 C1703 0.961 . S
H1720 C1704 0.931 . S
H1721 C1709 0.930 . S
H1722 C1710 0.956 . S
H1723 C1710 0.961 . S
H1724 C1710 0.961 . S
H1725 C1711 0.958 . S
H1726 C1711 0.961 . S
H1727 C1711 0.960 . S
C1728 C1729 1.391 . S
C1728 C1730 1.394 . S
C1728 H1744 0.931 . S
C1729 C1728 1.391 . S
C1729 C1733 1.376 . S
C1730 C1728 1.394 . S
C1730 C1731 1.369 . S
C1730 C1734 1.531 . S
C1731 C1730 1.369 . S
C1731 C1732 1.410 . S
C1731 C1739 1.503 . S
C1732 C1731 1.410 . S
C1732 C1733 1.392 . S
C1732 C1735 1.511 . S
C1733 C1729 1.376 . S
C1733 C1732 1.392 . S
C1733 H1745 0.929 . S
C1734 C1730 1.531 . S
C1734 H1746 0.960 . S
C1734 H1747 0.962 . S
C1734 H1748 0.960 . S
C1735 C1732 1.511 . S
C1735 H1749 0.961 . S
C1735 H1750 0.961 . S
C1735 H1751 0.961 . S
C1736 C1737 1.370 . S
C1736 C1738 1.363 . S
C1736 H1752 0.931 . S
C1737 C1736 1.370 . S
C1737 C1741 1.408 . S
C1738 C1736 1.363 . S
C1738 C1739 1.370 . S
C1738 C1742 1.524 . S
C1739 C1731 1.503 . S
C1739 C1738 1.370 . S
C1739 C1740 1.403 . S
C1740 C1739 1.403 . S
C1740 C1741 1.404 . S
C1740 C1743 1.539 . S
C1741 C1737 1.408 . S
C1741 C1740 1.404 . S
C1741 H1753 0.930 . S
C1742 C1738 1.524 . S
C1742 H1754 0.956 . S
C1742 H1755 0.961 . S
C1742 H1756 0.961 . S
C1743 C1740 1.539 . S
C1743 H1757 0.958 . S
C1743 H1758 0.961 . S
C1743 H1759 0.960 . S
H1744 C1728 0.931 . S
H1745 C1733 0.929 . S
H1746 C1734 0.960 . S
H1747 C1734 0.962 . S
H1748 C1734 0.960 . S
H1749 C1735 0.961 . S
H1750 C1735 0.961 . S
H1751 C1735 0.961 . S
H1752 C1736 0.931 . S
H1753 C1741 0.930 . S
H1754 C1742 0.956 . S
H1755 C1742 0.961 . S
H1756 C1742 0.961 . S
H1757 C1743 0.958 . S
H1758 C1743 0.961 . S
H1759 C1743 0.960 . S
C1760 C1761 1.391 . S
C1760 C1762 1.394 . S
C1760 H1776 0.931 . S
C1761 C1760 1.391 . S
C1761 C1765 1.376 . S
C1762 C1760 1.394 . S
C1762 C1763 1.369 . S
C1762 C1766 1.531 . S
C1763 C1762 1.369 . S
C1763 C1764 1.410 . S
C1763 C1771 1.503 . S
C1764 C1763 1.410 . S
C1764 C1765 1.392 . S
C1764 C1767 1.511 . S
C1765 C1761 1.376 . S
C1765 C1764 1.392 . S
C1765 H1777 0.929 . S
C1766 C1762 1.531 . S
C1766 H1778 0.960 . S
C1766 H1779 0.962 . S
C1766 H1780 0.960 . S
C1767 C1764 1.511 . S
C1767 H1781 0.961 . S
C1767 H1782 0.961 . S
C1767 H1783 0.961 . S
C1768 C1769 1.370 . S
C1768 C1770 1.363 . S
C1768 H1784 0.931 . S
C1769 C1768 1.370 . S
C1769 C1773 1.408 . S
C1770 C1768 1.363 . S
C1770 C1771 1.370 . S
C1770 C1774 1.524 . S
C1771 C1763 1.503 . S
C1771 C1770 1.370 . S
C1771 C1772 1.403 . S
C1772 C1771 1.403 . S
C1772 C1773 1.404 . S
C1772 C1775 1.539 . S
C1773 C1769 1.408 . S
C1773 C1772 1.404 . S
C1773 H1785 0.930 . S
C1774 C1770 1.524 . S
C1774 H1786 0.956 . S
C1774 H1787 0.961 . S
C1774 H1788 0.961 . S
C1775 C1772 1.539 . S
C1775 H1789 0.958 . S
C1775 H1790 0.961 . S
C1775 H1791 0.960 . S
H1776 C1760 0.931 . S
H1777 C1765 0.929 . S
H1778 C1766 0.960 . S
H1779 C1766 0.962 . S
H1780 C1766 0.960 . S
H1781 C1767 0.961 . S
H1782 C1767 0.961 . S
H1783 C1767 0.961 . S
H1784 C1768 0.931 . S
H1785 C1773 0.930 . S
H1786 C1774 0.956 . S
H1787 C1774 0.961 . S
H1788 C1774 0.961 . S
H1789 C1775 0.958 . S
H1790 C1775 0.961 . S
H1791 C1775 0.960 . S
C1792 C1793 1.391 . S
C1792 C1794 1.394 . S
C1792 H1808 0.931 . S
C1793 C1792 1.391 . S
C1793 C1797 1.376 . S
C1794 C1792 1.394 . S
C1794 C1795 1.369 . S
C1794 C1798 1.531 . S
C1795 C1794 1.369 . S
C1795 C1796 1.410 . S
C1795 C1803 1.503 . S
C1796 C1795 1.410 . S
C1796 C1797 1.392 . S
C1796 C1799 1.511 . S
C1797 C1793 1.376 . S
C1797 C1796 1.392 . S
C1797 H1809 0.929 . S
C1798 C1794 1.531 . S
C1798 H1810 0.960 . S
C1798 H1811 0.962 . S
C1798 H1812 0.960 . S
C1799 C1796 1.511 . S
C1799 H1813 0.961 . S
C1799 H1814 0.961 . S
C1799 H1815 0.961 . S
C1800 C1801 1.370 . S
C1800 C1802 1.363 . S
C1800 H1816 0.931 . S
C1801 C1800 1.370 . S
C1801 C1805 1.408 . S
C1802 C1800 1.363 . S
C1802 C1803 1.370 . S
C1802 C1806 1.524 . S
C1803 C1795 1.503 . S
C1803 C1802 1.370 . S
C1803 C1804 1.403 . S
C1804 C1803 1.403 . S
C1804 C1805 1.404 . S
C1804 C1807 1.539 . S
C1805 C1801 1.408 . S
C1805 C1804 1.404 . S
C1805 H1817 0.930 . S
C1806 C1802 1.524 . S
C1806 H1818 0.956 . S
C1806 H1819 0.961 . S
C1806 H1820 0.961 . S
C1807 C1804 1.539 . S
C1807 H1821 0.958 . S
C1807 H1822 0.961 . S
C1807 H1823 0.960 . S
H1808 C1792 0.931 . S
H1809 C1797 0.929 . S
H1810 C1798 0.960 . S
H1811 C1798 0.962 . S
H1812 C1798 0.960 . S
H1813 C1799 0.961 . S
H1814 C1799 0.961 . S
H1815 C1799 0.961 . S
H1816 C1800 0.931 . S
H1817 C1805 0.930 . S
H1818 C1806 0.956 . S
H1819 C1806 0.961 . S
H1820 C1806 0.961 . S
H1821 C1807 0.958 . S
H1822 C1807 0.961 . S
H1823 C1807 0.960 . S
C1824 C1825 1.391 . S
C1824 C1826 1.394 . S
C1824 H1840 0.931 . S
C1825 C1824 1.391 . S
C1825 C1829 1.376 . S
C1826 C1824 1.394 . S
C1826 C1827 1.369 . S
C1826 C1830 1.531 . S
C1827 C1826 1.369 . S
C1827 C1828 1.410 . S
C1827 C1835 1.503 . S
C1828 C1827 1.410 . S
C1828 C1829 1.392 . S
C1828 C1831 1.511 . S
C1829 C1825 1.376 . S
C1829 C1828 1.392 . S
C1829 H1841 0.929 . S
C1830 C1826 1.531 . S
C1830 H1842 0.960 . S
C1830 H1843 0.962 . S
C1830 H1844 0.960 . S
C1831 C1828 1.511 . S
C1831 H1845 0.961 . S
C1831 H1846 0.961 . S
C1831 H1847 0.961 . S
C1832 C1833 1.370 . S
C1832 C1834 1.363 . S
C1832 H1848 0.931 . S
C1833 C1832 1.370 . S
C1833 C1837 1.408 . S
C1834 C1832 1.363 . S
C1834 C1835 1.370 . S
C1834 C1838 1.524 . S
C1835 C1827 1.503 . S
C1835 C1834 1.370 . S
C1835 C1836 1.403 . S
C1836 C1835 1.403 . S
C1836 C1837 1.404 . S
C1836 C1839 1.539 . S
C1837 C1833 1.408 . S
C1837 C1836 1.404 . S
C1837 H1849 0.930 . S
C1838 C1834 1.524 . S
C1838 H1850 0.956 . S
C1838 H1851 0.961 . S
C1838 H1852 0.961 . S
C1839 C1836 1.539 . S
C1839 H1853 0.958 . S
C1839 H1854 0.961 . S
C1839 H1855 0.960 . S
H1840 C1824 0.931 . S
H1841 C1829 0.929 . S
H1842 C1830 0.960 . S
H1843 C1830 0.962 . S
H1844 C1830 0.960 . S
H1845 C1831 0.961 . S
H1846 C1831 0.961 . S
H1847 C1831 0.961 . S
H1848 C1832 0.931 . S
H1849 C1837 0.930 . S
H1850 C1838 0.956 . S
H1851 C1838 0.961 . S
H1852 C1838 0.961 . S
H1853 C1839 0.958 . S
H1854 C1839 0.961 . S
H1855 C1839 0.960 . S
C1856 C1857 1.391 . S
C1856 C1858 1.394 . S
C1856 H1872 0.931 . S
C1857 C1856 1.391 . S
C1857 C1861 1.376 . S
C1858 C1856 1.394 . S
C1858 C1859 1.369 . S
C1858 C1862 1.531 . S
C1859 C1858 1.369 . S
C1859 C1860 1.410 . S
C1859 C1867 1.503 . S
C1860 C1859 1.410 . S
C1860 C1861 1.392 . S
C1860 C1863 1.511 . S
C1861 C1857 1.376 . S
C1861 C1860 1.392 . S
C1861 H1873 0.929 . S
C1862 C1858 1.531 . S
C1862 H1874 0.960 . S
C1862 H1875 0.962 . S
C1862 H1876 0.960 . S
C1863 C1860 1.511 . S
C1863 H1877 0.961 . S
C1863 H1878 0.961 . S
C1863 H1879 0.961 . S
C1864 C1865 1.370 . S
C1864 C1866 1.363 . S
C1864 H1880 0.931 . S
C1865 C1864 1.370 . S
C1865 C1869 1.408 . S
C1866 C1864 1.363 . S
C1866 C1867 1.370 . S
C1866 C1870 1.524 . S
C1867 C1859 1.503 . S
C1867 C1866 1.370 . S
C1867 C1868 1.403 . S
C1868 C1867 1.403 . S
C1868 C1869 1.404 . S
C1868 C1871 1.539 . S
C1869 C1865 1.408 . S
C1869 C1868 1.404 . S
C1869 H1881 0.930 . S
C1870 C1866 1.524 . S
C1870 H1882 0.956 . S
C1870 H1883 0.961 . S
C1870 H1884 0.961 . S
C1871 C1868 1.539 . S
C1871 H1885 0.958 . S
C1871 H1886 0.961 . S
C1871 H1887 0.960 . S
H1872 C1856 0.931 . S
H1873 C1861 0.929 . S
H1874 C1862 0.960 . S
H1875 C1862 0.962 . S
H1876 C1862 0.960 . S
H1877 C1863 0.961 . S
H1878 C1863 0.961 . S
H1879 C1863 0.961 . S
H1880 C1864 0.931 . S
H1881 C1869 0.930 . S
H1882 C1870 0.956 . S
H1883 C1870 0.961 . S
H1884 C1870 0.961 . S
H1885 C1871 0.958 . S
H1886 C1871 0.961 . S
H1887 C1871 0.960 . S
C361 C177 2.124 . S
C353 C19 2.088 . S
C393 C182 1.502 . S
C385 C24 1.469 . S
C425 C183 1.353 . S
C417 C59 1.339 . S
C449 C69 1.298 . S
C457 C187 1.321 . S
C481 C82 1.426 . S
C489 C190 1.488 . S
C521 C191 1.341 . S
C513 C118 1.325 . S
C545 C132 1.296 . S
C553 C168 1.322 . S
C577 C158 2.108 . S
C585 C184 2.136 . S
C617 C222 1.620 . S
C609 C4 1.489 . S
C641 C29 0.964 . S
C649 C248 0.902 . S
C681 C200 1.460 . S
C673 C44 1.455 . S
C713 C255 1.316 . S
C705 C79 1.297 . S
C737 C98 1.352 . S
C745 C209 1.323 . S
C777 C251 1.292 . S
C769 C112 1.320 . S
C801 C122 1.205 . S
C809 C215 1.212 . S
C833 C152 1.196 . S
C841 C246 1.252 . S
C865 C9 1.188 . S
C873 C254 1.222 . S
C897 C92 0.909 . S
C905 C241 0.938 . S
C937 C219 1.482 . S
C929 C102 1.402 . S
C969 C247 1.298 . S
C961 C138 1.353 . S
C993 C142 1.563 . S
C1001 C214 1.612 . S
C1025 C49 1.329 . S
C1033 C232 1.305 . S
C1065 C223 1.185 . S
C1057 C64 1.164 . S
C1089 C39 1.298 . S
C1097 C216 1.306 . S
C1121 C159 2.075 . S
C1129 C278 2.064 . S
C1153 C84 1.403 . S
C1161 C273 1.486 . S
C1193 C287 1.300 . S
C1185 C119 1.349 . S
C1225 C264 1.332 . S
C1217 C129 1.283 . S
C1249 C22 1.397 . S
C1257 C280 1.483 . S
C1289 C279 1.306 . S
C1281 C58 1.340 . S
C1313 C72 1.276 . S
C1321 C283 1.329 . S
C1345 C18 2.046 . S
C1353 C286 2.068 . S
C1377 C144 1.524 . S
C1385 C312 1.655 . S
C1417 C328 0.932 . S
C1409 C89 0.981 . S
C1441 C104 1.429 . S
C1449 C310 1.502 . S
C1473 C139 1.344 . S
C1481 C343 1.347 . S
C1513 C319 1.319 . S
C1505 C38 1.298 . S
C1537 C52 1.285 . S
C1545 C337 1.333 . S
C1577 C315 1.226 . S
C1569 C62 1.216 . S
C1609 C350 1.264 . S
C1601 C12 1.236 . S
C1641 C342 1.240 . S
C1633 C149 1.275 . S
C1665 C32 0.910 . S
C1673 C347 0.954 . S
C1697 C42 1.382 . S
C1705 C318 1.491 . S
C1737 C351 1.319 . S
C1729 C78 1.339 . S
C1761 C2 1.515 . S
C1769 C305 1.653 . S
C1793 C109 1.355 . S
C1801 C344 1.319 . S
C1833 C296 1.200 . S
C1825 C124 1.117 . S
C1865 C311 1.326 . S
C1857 C99 1.342 . S
