# Generated by pormake.
# Topology gar, (4,6)-cn, num edge types: 1
# Building blocks:
#     Node 0, Type 0, BuildingBlock: NAHDIM_clean_sbu_0, # of connection points: 4
#     Node 1, Type 0, BuildingBlock: NAHDIM_clean_sbu_0, # of connection points: 4
#     Node 2, Type 0, BuildingBlock: NAHDIM_clean_sbu_0, # of connection points: 4
#     Node 3, Type 0, BuildingBlock: NAHDIM_clean_sbu_0, # of connection points: 4
#     Node 4, Type 0, BuildingBlock: NAHDIM_clean_sbu_0, # of connection points: 4
#     Node 5, Type 0, BuildingBlock: NAHDIM_clean_sbu_0, # of connection points: 4
#     Node 6, Type 0, BuildingBlock: NAHDIM_clean_sbu_0, # of connection points: 4
#     Node 7, Type 0, BuildingBlock: NAHDIM_clean_sbu_0, # of connection points: 4
#     Node 8, Type 0, BuildingBlock: NAHDIM_clean_sbu_0, # of connection points: 4
#     Node 9, Type 0, BuildingBlock: NAHDIM_clean_sbu_0, # of connection points: 4
#     Node 10, Type 0, BuildingBlock: NAHDIM_clean_sbu_0, # of connection points: 4
#     Node 11, Type 0, BuildingBlock: NAHDIM_clean_sbu_0, # of connection points: 4
#     Node 12, Type 0, BuildingBlock: NAHDIM_clean_sbu_0, # of connection points: 4
#     Node 13, Type 0, BuildingBlock: NAHDIM_clean_sbu_0, # of connection points: 4
#     Node 14, Type 0, BuildingBlock: NAHDIM_clean_sbu_0, # of connection points: 4
#     Node 15, Type 0, BuildingBlock: NAHDIM_clean_sbu_0, # of connection points: 4
#     Node 16, Type 0, BuildingBlock: NAHDIM_clean_sbu_0, # of connection points: 4
#     Node 17, Type 0, BuildingBlock: NAHDIM_clean_sbu_0, # of connection points: 4
#     Node 18, Type 0, BuildingBlock: NAHDIM_clean_sbu_0, # of connection points: 4
#     Node 19, Type 0, BuildingBlock: NAHDIM_clean_sbu_0, # of connection points: 4
#     Node 20, Type 0, BuildingBlock: NAHDIM_clean_sbu_0, # of connection points: 4
#     Node 21, Type 0, BuildingBlock: NAHDIM_clean_sbu_0, # of connection points: 4
#     Node 22, Type 0, BuildingBlock: NAHDIM_clean_sbu_0, # of connection points: 4
#     Node 23, Type 0, BuildingBlock: NAHDIM_clean_sbu_0, # of connection points: 4
#     Node 24, Type 1, BuildingBlock: BETDEL_clean_sbu_0, # of connection points: 6
#     Node 25, Type 1, BuildingBlock: BETDEL_clean_sbu_0, # of connection points: 6
#     Node 26, Type 1, BuildingBlock: BETDEL_clean_sbu_0, # of connection points: 6
#     Node 27, Type 1, BuildingBlock: BETDEL_clean_sbu_0, # of connection points: 6
#     Node 28, Type 1, BuildingBlock: BETDEL_clean_sbu_0, # of connection points: 6
#     Node 29, Type 1, BuildingBlock: BETDEL_clean_sbu_0, # of connection points: 6
#     Node 30, Type 1, BuildingBlock: BETDEL_clean_sbu_0, # of connection points: 6
#     Node 31, Type 1, BuildingBlock: BETDEL_clean_sbu_0, # of connection points: 6
#     Node 32, Type 1, BuildingBlock: BETDEL_clean_sbu_0, # of connection points: 6
#     Node 33, Type 1, BuildingBlock: BETDEL_clean_sbu_0, # of connection points: 6
#     Node 34, Type 1, BuildingBlock: BETDEL_clean_sbu_0, # of connection points: 6
#     Node 35, Type 1, BuildingBlock: BETDEL_clean_sbu_0, # of connection points: 6
#     Node 36, Type 1, BuildingBlock: BETDEL_clean_sbu_0, # of connection points: 6
#     Node 37, Type 1, BuildingBlock: BETDEL_clean_sbu_0, # of connection points: 6
#     Node 38, Type 1, BuildingBlock: BETDEL_clean_sbu_0, # of connection points: 6
#     Node 39, Type 1, BuildingBlock: BETDEL_clean_sbu_0, # of connection points: 6
#     Edge 40, Type (0, 1), None
#     Edge 41, Type (0, 1), None
#     Edge 42, Type (0, 1), None
#     Edge 43, Type (0, 1), None
#     Edge 44, Type (0, 1), None
#     Edge 45, Type (0, 1), None
#     Edge 46, Type (0, 1), None
#     Edge 47, Type (0, 1), None
#     Edge 48, Type (0, 1), None
#     Edge 49, Type (0, 1), None
#     Edge 50, Type (0, 1), None
#     Edge 51, Type (0, 1), None
#     Edge 52, Type (0, 1), None
#     Edge 53, Type (0, 1), None
#     Edge 54, Type (0, 1), None
#     Edge 55, Type (0, 1), None
#     Edge 56, Type (0, 1), None
#     Edge 57, Type (0, 1), None
#     Edge 58, Type (0, 1), None
#     Edge 59, Type (0, 1), None
#     Edge 60, Type (0, 1), None
#     Edge 61, Type (0, 1), None
#     Edge 62, Type (0, 1), None
#     Edge 63, Type (0, 1), None
#     Edge 64, Type (0, 1), None
#     Edge 65, Type (0, 1), None
#     Edge 66, Type (0, 1), None
#     Edge 67, Type (0, 1), None
#     Edge 68, Type (0, 1), None
#     Edge 69, Type (0, 1), None
#     Edge 70, Type (0, 1), None
#     Edge 71, Type (0, 1), None
#     Edge 72, Type (0, 1), None
#     Edge 73, Type (0, 1), None
#     Edge 74, Type (0, 1), None
#     Edge 75, Type (0, 1), None
#     Edge 76, Type (0, 1), None
#     Edge 77, Type (0, 1), None
#     Edge 78, Type (0, 1), None
#     Edge 79, Type (0, 1), None
#     Edge 80, Type (0, 1), None
#     Edge 81, Type (0, 1), None
#     Edge 82, Type (0, 1), None
#     Edge 83, Type (0, 1), None
#     Edge 84, Type (0, 1), None
#     Edge 85, Type (0, 1), None
#     Edge 86, Type (0, 1), None
#     Edge 87, Type (0, 1), None
#     Edge 88, Type (0, 1), None
#     Edge 89, Type (0, 1), None
#     Edge 90, Type (0, 1), None
#     Edge 91, Type (0, 1), None
#     Edge 92, Type (0, 1), None
#     Edge 93, Type (0, 1), None
#     Edge 94, Type (0, 1), None
#     Edge 95, Type (0, 1), None
#     Edge 96, Type (0, 1), None
#     Edge 97, Type (0, 1), None
#     Edge 98, Type (0, 1), None
#     Edge 99, Type (0, 1), None
#     Edge 100, Type (0, 1), None
#     Edge 101, Type (0, 1), None
#     Edge 102, Type (0, 1), None
#     Edge 103, Type (0, 1), None
#     Edge 104, Type (0, 1), None
#     Edge 105, Type (0, 1), None
#     Edge 106, Type (0, 1), None
#     Edge 107, Type (0, 1), None
#     Edge 108, Type (0, 1), None
#     Edge 109, Type (0, 1), None
#     Edge 110, Type (0, 1), None
#     Edge 111, Type (0, 1), None
#     Edge 112, Type (0, 1), None
#     Edge 113, Type (0, 1), None
#     Edge 114, Type (0, 1), None
#     Edge 115, Type (0, 1), None
#     Edge 116, Type (0, 1), None
#     Edge 117, Type (0, 1), None
#     Edge 118, Type (0, 1), None
#     Edge 119, Type (0, 1), None
#     Edge 120, Type (0, 1), None
#     Edge 121, Type (0, 1), None
#     Edge 122, Type (0, 1), None
#     Edge 123, Type (0, 1), None
#     Edge 124, Type (0, 1), None
#     Edge 125, Type (0, 1), None
#     Edge 126, Type (0, 1), None
#     Edge 127, Type (0, 1), None
#     Edge 128, Type (0, 1), None
#     Edge 129, Type (0, 1), None
#     Edge 130, Type (0, 1), None
#     Edge 131, Type (0, 1), None
#     Edge 132, Type (0, 1), None
#     Edge 133, Type (0, 1), None
#     Edge 134, Type (0, 1), None
#     Edge 135, Type (0, 1), None
# Relax obj value: 0.193
# Max RMSD: 0.310
# Mean RMSD: 0.183
data_MOF--net-gar--node1-NAHDIM_clean_sbu_0--node2-BETDEL_clean_sbu_0--edge1-none
_symmetry_space_group_name_H-M    P1
_symmetry_Int_Tables_number       1
_symmetry_cell_setting            triclinic
loop_
_symmetry_equiv_pos_as_xyz
'x, y, z'
_cell_length_a     26.771091
_cell_length_b     24.21082
_cell_length_c     24.634304
_cell_angle_alpha  95.322292
_cell_angle_beta   90.839023
_cell_angle_gamma 102.10941
loop_
_atom_site_label
_atom_site_type_symbol
_atom_site_fract_x
_atom_site_fract_y
_atom_site_fract_z
_atom_type_partial_charge
C0 C 0.15453 0.25876 0.35824 0.0
O1 O 0.12553 0.20784 0.35868 0.0
O2 O 0.05309 0.20915 0.44619 0.0
Zn3 Zn 0.07242 0.29013 0.42352 0.0
O4 O 0.06703 0.34952 0.48776 0.0
C5 C 0.97588 0.30086 0.38417 0.0
O6 O 0.9664 0.2955 0.43577 0.0
O7 O 0.14128 0.30095 0.38487 0.0
C8 C 0.07541 0.40147 0.47859 0.0
O9 O 0.09348 0.41549 0.43141 0.0
C10 C 0.05571 0.19449 0.49433 0.0
O11 O 0.07177 0.23342 0.53511 0.0
O12 O 0.02005 0.29893 0.36728 0.0
C13 C 0.94233 0.80506 0.70046 0.0
O14 O 0.97052 0.85532 0.69439 0.0
O15 O 0.99733 0.68312 0.5793 0.0
Zn16 Zn 1.00972 0.75854 0.62227 0.0
O17 O 0.02406 0.82849 0.57854 0.0
C18 C 0.1072 0.73707 0.63556 0.0
O19 O 0.10354 0.73279 0.58208 0.0
O20 O 0.95224 0.761 0.67427 0.0
C21 C 0.03812 0.84225 0.5313 0.0
O22 O 0.04786 0.8043 0.49368 0.0
C23 C 0.98606 0.67275 0.52906 0.0
O24 O 0.972 0.71142 0.50197 0.0
O25 O 0.07251 0.75326 0.66366 0.0
C26 C 0.65453 0.75876 0.85824 0.0
O27 O 0.62553 0.70784 0.85868 0.0
O28 O 0.55309 0.70915 0.94619 0.0
Zn29 Zn 0.57242 0.79013 0.92352 0.0
O30 O 0.56703 0.84952 0.98776 0.0
C31 C 0.47588 0.80086 0.88417 0.0
O32 O 0.4664 0.7955 0.93577 0.0
O33 O 0.64128 0.80095 0.88487 0.0
C34 C 0.57541 0.90147 0.97859 0.0
O35 O 0.59348 0.91549 0.93141 0.0
C36 C 0.55571 0.69449 0.99433 0.0
O37 O 0.57177 0.73342 0.03511 0.0
O38 O 0.52005 0.79893 0.86728 0.0
C39 C 0.44232 0.30506 0.20046 0.0
O40 O 0.47052 0.35532 0.19439 0.0
O41 O 0.49733 0.18312 0.0793 0.0
Zn42 Zn 0.50972 0.25854 0.12227 0.0
O43 O 0.52406 0.32849 0.07854 0.0
C44 C 0.6072 0.23707 0.13556 0.0
O45 O 0.60354 0.23279 0.08208 0.0
O46 O 0.45224 0.261 0.17427 0.0
C47 C 0.53812 0.34225 0.0313 0.0
O48 O 0.54786 0.3043 0.99368 0.0
C49 C 0.48606 0.17275 0.02906 0.0
O50 O 0.472 0.21142 0.00197 0.0
O51 O 0.57251 0.25326 0.16366 0.0
C52 C 0.99515 0.74898 0.21691 0.0
O53 O 1.01319 0.70241 0.21258 0.0
O54 O 0.06972 0.71791 0.10702 0.0
Zn55 Zn 0.08177 0.79359 0.15345 0.0
O56 O 0.08531 0.85768 0.10519 0.0
C57 C 0.18783 0.80402 0.18924 0.0
O58 O 0.1943 0.79903 0.13646 0.0
O59 O 0.01884 0.79293 0.19657 0.0
C60 C 0.04676 0.86045 0.07528 0.0
O61 O 1.00549 0.81984 0.07364 0.0
C62 C 0.09592 0.67992 0.10895 0.0
O63 O 0.13595 0.68846 0.1424 0.0
O64 O 0.14338 0.80442 0.20645 0.0
C65 C 0.5848 0.73563 0.32015 0.0
O66 O 0.56247 0.68213 0.32196 0.0
O67 O 0.5042 0.68458 0.42464 0.0
Zn68 Zn 0.50031 0.75351 0.38353 0.0
O69 O 0.50714 0.81958 0.43933 0.0
C70 C 0.43237 0.72516 0.28294 0.0
O71 O 0.46688 0.69801 0.26364 0.0
O72 O 0.56413 0.77418 0.34195 0.0
C73 C 0.47439 0.84913 0.45171 0.0
O74 O 0.42842 0.83543 0.42849 0.0
C75 C 0.54316 0.68336 0.45494 0.0
O76 O 0.58215 0.72683 0.45949 0.0
O77 O 0.43744 0.74839 0.33197 0.0
C78 C 0.49515 0.24898 0.71691 0.0
O79 O 0.51319 0.20241 0.71258 0.0
O80 O 0.56972 0.21791 0.60702 0.0
Zn81 Zn 0.58177 0.29359 0.65345 0.0
O82 O 0.58531 0.35768 0.60519 0.0
C83 C 0.68783 0.30402 0.68924 0.0
O84 O 0.6943 0.29903 0.63646 0.0
O85 O 0.51884 0.29293 0.69657 0.0
C86 C 0.54676 0.36045 0.57528 0.0
O87 O 0.50549 0.31984 0.57364 0.0
C88 C 0.59592 0.17992 0.60895 0.0
O89 O 0.63595 0.18846 0.6424 0.0
O90 O 0.64338 0.30442 0.70645 0.0
C91 C 0.0848 0.23563 0.82015 0.0
O92 O 0.06247 0.18213 0.82196 0.0
O93 O 1.0042 0.18458 0.92464 0.0
Zn94 Zn 1.00031 0.25351 0.88353 0.0
O95 O 1.00714 0.31958 0.93933 0.0
C96 C 0.93237 0.22517 0.78294 0.0
O97 O 0.96688 0.19801 0.76364 0.0
O98 O 0.06413 0.27418 0.84195 0.0
C99 C 0.97439 0.34913 0.95171 0.0
O100 O 0.92842 0.33543 0.92849 0.0
C101 C 0.04316 0.18336 0.95494 0.0
O102 O 0.08215 0.22683 0.95949 0.0
O103 O 0.93744 0.24839 0.83197 0.0
C104 C 0.35059 0.07735 0.31525 0.0
O105 O 0.32398 0.02502 0.30968 0.0
O106 O 0.48612 0.02908 0.2666 0.0
Zn107 Zn 0.44129 0.0314 0.32926 0.0
O108 O 0.48331 0.04372 0.39618 0.0
C109 C 0.38032 0.9373 0.27606 0.0
O110 O 0.39116 0.97012 0.23642 0.0
O111 O 0.39863 0.08824 0.32467 0.0
C112 C 0.53156 0.05977 0.39902 0.0
O113 O 0.55712 0.07584 0.35614 0.0
C114 C 0.50399 0.07094 0.2406 0.0
O115 O 0.49596 0.12147 0.25675 0.0
O116 O 0.39675 0.95532 0.32431 0.0
C117 C 0.3466 0.09032 0.52388 0.0
O118 O 0.31427 0.08691 0.5636 0.0
O119 O 0.29573 0.20669 0.56745 0.0
Zn120 Zn 0.28767 0.16753 0.48829 0.0
O121 O 0.30413 0.21999 0.42561 0.0
C122 C 0.18529 0.08848 0.50378 0.0
O123 O 0.19581 0.09423 0.55645 0.0
O124 O 0.34165 0.12045 0.48539 0.0
C125 C 0.3069 0.27334 0.42869 0.0
O126 O 0.29842 0.30004 0.47537 0.0
C127 C 0.26136 0.22073 0.59781 0.0
O128 O 0.21499 0.21611 0.57719 0.0
O129 O 0.21701 0.11437 0.47162 0.0
C130 C 0.26881 0.92761 0.78459 0.0
O131 O 0.30161 0.97089 0.80944 0.0
O132 O 0.14743 0.00232 0.73131 0.0
Zn133 Zn 0.18429 0.99281 0.80025 0.0
O134 O 0.12679 0.96895 0.85419 0.0
C135 C 0.23086 0.11147 0.79893 0.0
O136 O 0.18726 0.10969 0.77355 0.0
O137 O 0.2216 0.92924 0.77984 0.0
C138 C 0.11152 0.00798 0.88306 0.0
O139 O 0.1368 0.06059 0.88217 0.0
C140 C 0.10677 0.02146 0.72877 0.0
O141 O 0.08419 0.03548 0.77326 0.0
O142 O 0.23815 0.06726 0.81944 0.0
C143 C 0.24554 0.00115 0.00742 0.0
O144 O 0.28801 0.02611 0.03455 0.0
O145 O 0.29513 0.85418 0.01579 0.0
Zn146 Zn 0.29162 0.90152 0.9547 0.0
O147 O 0.26293 0.84598 0.88943 0.0
C148 C 0.38515 0.96314 0.99075 0.0
O149 O 0.35779 0.9591 0.03453 0.0
O150 O 0.24312 0.95547 0.97584 0.0
C151 C 0.27046 0.79555 0.88189 0.0
O152 O 0.29886 0.77696 0.91671 0.0
C153 C 0.33185 0.83056 0.02632 0.0
O154 O 0.37188 0.83526 0.99559 0.0
O155 O 0.36398 0.94285 0.94471 0.0
C156 C 0.20785 0.41251 0.06052 0.0
O157 O 0.19364 0.36311 0.0799 0.0
O158 O 0.29379 0.33253 0.12181 0.0
Zn159 Zn 0.30488 0.377 0.05033 0.0
O160 O 0.29307 0.32769 0.97491 0.0
C161 C 0.39946 0.45962 0.0189 0.0
O162 O 0.38007 0.4516 0.96885 0.0
O163 O 0.2538 0.42852 0.04693 0.0
C164 C 0.3272 0.31411 0.94373 0.0
O165 O 0.37514 0.3264 0.96139 0.0
C166 C 0.27429 0.27997 0.12546 0.0
O167 O 0.25916 0.24669 0.08054 0.0
O168 O 0.37592 0.43211 0.05615 0.0
C169 C 0.84835 0.03322 0.98571 0.0
O170 O 0.82082 0.02738 0.9402 0.0
O171 O 0.83186 0.1882 0.096 0.0
Zn172 Zn 0.80681 0.13569 0.0266 0.0
O173 O 0.82076 0.17867 0.96206 0.0
C174 C 0.69943 0.11421 0.05331 0.0
O175 O 0.71566 0.14044 0.10126 0.0
O176 O 0.84586 0.07277 0.02278 0.0
C177 C 0.7881 0.20665 0.94868 0.0
O178 O 0.74904 0.21006 0.97936 0.0
C179 C 0.82283 0.23702 0.11002 0.0
O180 O 0.79185 0.25778 0.07989 0.0
O181 O 0.73136 0.10408 0.01845 0.0
C182 C 0.24428 0.47638 0.23676 0.0
O183 O 0.25006 0.52351 0.26932 0.0
O184 O 0.09735 0.4848 0.15893 0.0
Zn185 Zn 0.15053 0.50127 0.21619 0.0
O186 O 0.11603 0.48998 0.28398 0.0
C187 C 0.22337 0.59753 0.18821 0.0
O188 O 0.23106 0.5643 0.14533 0.0
O189 O 0.20311 0.45758 0.20852 0.0
C190 C 0.09195 0.52891 0.29554 0.0
O191 O 0.09339 0.56954 0.26345 0.0
C192 C 0.04951 0.46564 0.1614 0.0
O193 O 0.02919 0.44652 0.20596 0.0
O194 O 0.1881 0.58089 0.22037 0.0
C195 C 0.70785 0.91251 0.56052 0.0
O196 O 0.69364 0.86311 0.5799 0.0
O197 O 0.79379 0.83253 0.62181 0.0
Zn198 Zn 0.80488 0.877 0.55033 0.0
O199 O 0.79307 0.82769 0.47491 0.0
C200 C 0.89946 0.95962 0.5189 0.0
O201 O 0.88007 0.95161 0.46885 0.0
O202 O 0.7538 0.92852 0.54693 0.0
C203 C 0.8272 0.81411 0.44373 0.0
O204 O 0.87514 0.8264 0.46139 0.0
C205 C 0.77429 0.77997 0.62546 0.0
O206 O 0.75916 0.74669 0.58054 0.0
O207 O 0.87592 0.93211 0.55615 0.0
C208 C 0.82321 0.093 0.21205 0.0
O209 O 0.78769 0.05 0.19117 0.0
O210 O 0.95127 0.01783 0.1468 0.0
Zn211 Zn 0.90008 0.01576 0.21011 0.0
O212 O 0.93974 0.0175 0.28089 0.0
C213 C 0.8507 0.9018 0.23234 0.0
O214 O 0.89705 0.90181 0.24995 0.0
O215 O 0.86896 0.08674 0.21956 0.0
C216 C 0.978 0.99512 0.28785 0.0
O217 O 0.99756 0.97039 0.2461 0.0
C218 C 0.99227 0.05636 0.14836 0.0
O219 O 1.00096 0.09592 0.18961 0.0
O220 O 0.84246 0.94399 0.20883 0.0
C221 C 0.34835 0.53322 0.48571 0.0
O222 O 0.32082 0.52738 0.4402 0.0
O223 O 0.33186 0.6882 0.596 0.0
Zn224 Zn 0.30681 0.63569 0.5266 0.0
O225 O 0.32076 0.67867 0.46206 0.0
C226 C 0.19943 0.61421 0.55331 0.0
O227 O 0.21566 0.64044 0.60126 0.0
O228 O 0.34586 0.57277 0.52278 0.0
C229 C 0.2881 0.70665 0.44868 0.0
O230 O 0.24903 0.71006 0.47936 0.0
C231 C 0.32283 0.73702 0.61002 0.0
O232 O 0.29185 0.75778 0.57989 0.0
O233 O 0.23136 0.60408 0.51845 0.0
C234 C 0.32321 0.593 0.71205 0.0
O235 O 0.28769 0.55 0.69117 0.0
O236 O 0.45127 0.51783 0.6468 0.0
Zn237 Zn 0.40008 0.51576 0.71011 0.0
O238 O 0.43974 0.5175 0.78089 0.0
C239 C 0.3507 0.4018 0.73234 0.0
O240 O 0.39705 0.40181 0.74995 0.0
O241 O 0.36896 0.58674 0.71956 0.0
C242 C 0.478 0.49512 0.78785 0.0
O243 O 0.49756 0.47039 0.7461 0.0
C244 C 0.49226 0.55636 0.64836 0.0
O245 O 0.50096 0.59592 0.68961 0.0
O246 O 0.34246 0.44399 0.70883 0.0
C247 C 0.74428 0.97638 0.73676 0.0
O248 O 0.75006 0.02351 0.76932 0.0
O249 O 0.59736 0.9848 0.65893 0.0
Zn250 Zn 0.65053 0.00127 0.71619 0.0
O251 O 0.61603 0.98998 0.78398 0.0
C252 C 0.72337 0.09753 0.68821 0.0
O253 O 0.73106 0.0643 0.64533 0.0
O254 O 0.70311 0.95758 0.70852 0.0
C255 C 0.59195 0.02891 0.79554 0.0
O256 O 0.59339 0.06954 0.76345 0.0
C257 C 0.54951 0.96564 0.6614 0.0
O258 O 0.52919 0.94652 0.70596 0.0
O259 O 0.6881 0.08089 0.72037 0.0
C260 C 0.8466 0.59032 0.02388 0.0
O261 O 0.81427 0.58691 0.0636 0.0
O262 O 0.79573 0.70669 0.06745 0.0
Zn263 Zn 0.78767 0.66753 0.98829 0.0
O264 O 0.80413 0.71999 0.92561 0.0
C265 C 0.68529 0.58848 0.00378 0.0
O266 O 0.69581 0.59423 0.05645 0.0
O267 O 0.84165 0.62045 0.98539 0.0
C268 C 0.8069 0.77334 0.92869 0.0
O269 O 0.79841 0.80004 0.97537 0.0
C270 C 0.76136 0.72073 0.09781 0.0
O271 O 0.71499 0.71611 0.07719 0.0
O272 O 0.71701 0.61437 0.97162 0.0
C273 C 0.85059 0.57735 0.81526 0.0
O274 O 0.82398 0.52502 0.80968 0.0
O275 O 0.98612 0.52908 0.7666 0.0
Zn276 Zn 0.94129 0.5314 0.82926 0.0
O277 O 0.98331 0.54372 0.89618 0.0
C278 C 0.88032 0.4373 0.77606 0.0
O279 O 0.89116 0.47013 0.73642 0.0
O280 O 0.89863 0.58824 0.82467 0.0
C281 C 0.03157 0.55977 0.89902 0.0
O282 O 0.05712 0.57584 0.85614 0.0
C283 C 1.00399 0.57094 0.7406 0.0
O284 O 0.99597 0.62147 0.75675 0.0
O285 O 0.89675 0.45532 0.82432 0.0
C286 C 0.74554 0.50115 0.50742 0.0
O287 O 0.78801 0.52612 0.53455 0.0
O288 O 0.79513 0.35418 0.51579 0.0
Zn289 Zn 0.79162 0.40152 0.4547 0.0
O290 O 0.76293 0.34598 0.38943 0.0
C291 C 0.88515 0.46314 0.49075 0.0
O292 O 0.85779 0.4591 0.53453 0.0
O293 O 0.74312 0.45547 0.47584 0.0
C294 C 0.77046 0.29555 0.38189 0.0
O295 O 0.79887 0.27696 0.41671 0.0
C296 C 0.83185 0.33056 0.52632 0.0
O297 O 0.87188 0.33526 0.49559 0.0
O298 O 0.86398 0.44286 0.44471 0.0
C299 C 0.76881 0.42761 0.28459 0.0
O300 O 0.80161 0.47089 0.30944 0.0
O301 O 0.64743 0.50232 0.23131 0.0
Zn302 Zn 0.68429 0.49281 0.30025 0.0
O303 O 0.62679 0.46895 0.35419 0.0
C304 C 0.73086 0.61147 0.29893 0.0
O305 O 0.68726 0.60969 0.27355 0.0
O306 O 0.7216 0.42924 0.27984 0.0
C307 C 0.61152 0.50798 0.38306 0.0
O308 O 0.6368 0.56059 0.38217 0.0
C309 C 0.60677 0.52146 0.22877 0.0
O310 O 0.58419 0.53548 0.27326 0.0
O311 O 0.73815 0.56726 0.31944 0.0
Dy312 Dy 0.99163 0.99704 0.98909 0.0
C313 C 0.19808 0.02149 0.01689 0.0
C314 C 0.89231 0.00639 0.98926 0.0
Dy315 Dy 0.10459 0.04528 0.03574 0.0
O316 O 0.91311 0.98288 0.94799 0.0
O317 O 0.92474 0.0205 0.03025 0.0
O318 O 0.02528 0.95893 0.91259 0.0
O319 O 0.06435 0.03194 0.95901 0.0
C320 C 0.06833 0.99666 0.92003 0.0
C321 C 0.03198 0.05534 0.10698 0.0
O322 O 0.09165 0.12322 0.99764 0.0
O323 O 1.0042 0.09054 0.9773 0.0
O324 O 0.19065 0.0628 0.05239 0.0
O325 O 0.15538 0.99516 0.99284 0.0
O326 O 0.07829 0.08735 0.11243 0.0
O327 O 0.0306 0.0161 0.06894 0.0
O328 O 1.00282 0.91828 0.02484 0.0
O329 O 0.0872 0.95437 0.05722 0.0
C330 C 0.04634 0.13123 0.98022 0.0
C331 C 0.04601 0.91246 0.04906 0.0
Dy332 Dy 0.32797 0.76768 0.17668 0.0
C333 C 0.29025 0.72811 0.39572 0.0
C334 C 0.33078 0.80428 0.07671 0.0
Dy335 Dy 0.29162 0.76108 0.29433 0.0
O336 O 0.36625 0.78165 0.0966 0.0
O337 O 0.29485 0.80607 0.1107 0.0
O338 O 0.38797 0.718 0.19367 0.0
O339 O 0.36512 0.7711 0.25646 0.0
C340 C 0.39154 0.73428 0.24584 0.0
C341 C 0.22849 0.79631 0.22685 0.0
O342 O 0.33943 0.84814 0.30441 0.0
O343 O 0.34908 0.8583 0.21183 0.0
O344 O 0.2599 0.75851 0.37798 0.0
O345 O 0.3203 0.71503 0.35818 0.0
O346 O 0.22988 0.80947 0.27953 0.0
O347 O 0.25539 0.76013 0.21574 0.0
O348 O 0.2789 0.6812 0.1632 0.0
O349 O 0.2603 0.67268 0.25481 0.0
C350 C 0.35353 0.87909 0.26365 0.0
C351 C 0.25741 0.65207 0.20262 0.0
Dy352 Dy 0.59391 0.00199 0.52845 0.0
C353 C 0.39126 0.06459 0.52713 0.0
C354 C 0.66944 0.94627 0.55091 0.0
Dy355 Dy 0.47785 0.02394 0.53809 0.0
O356 O 0.67635 0.99242 0.52592 0.0
O357 O 0.62194 0.9312 0.56331 0.0
O358 O 0.60625 0.04851 0.45257 0.0
O359 O 0.53274 0.01165 0.47687 0.0
C360 C 0.55707 0.04459 0.44564 0.0
C361 C 0.51912 0.98235 0.61955 0.0
O362 O 0.46038 0.93929 0.48962 0.0
O363 O 0.54161 0.91791 0.4987 0.0
O364 O 0.40083 0.03539 0.56628 0.0
O365 O 0.4289 0.07173 0.49397 0.0
O366 O 0.46962 0.97326 0.61271 0.0
O367 O 0.54023 0.01651 0.58825 0.0
O368 O 0.60783 0.0865 0.5786 0.0
O369 O 0.52892 0.11062 0.56076 0.0
C370 C 0.49206 0.90382 0.48377 0.0
C371 C 0.57749 0.12379 0.5794 0.0
Dy372 Dy 0.23721 0.27229 0.77729 0.0
C373 C 0.4446 0.24856 0.73845 0.0
C374 C 0.13676 0.25005 0.80107 0.0
Dy375 Dy 0.3464 0.24579 0.76698 0.0
O376 O 0.16505 0.30103 0.80186 0.0
O377 O 0.16313 0.21233 0.78728 0.0
O378 O 0.26039 0.35149 0.73398 0.0
O379 O 0.31462 0.3211 0.77969 0.0
C380 C 0.30881 0.35614 0.74638 0.0
C381 C 0.2724 0.1611 0.79418 0.0
O382 O 0.35316 0.28439 0.85404 0.0
O383 O 0.26679 0.28479 0.86595 0.0
O384 O 0.41403 0.20459 0.7547 0.0
O385 O 0.4218 0.29078 0.73816 0.0
O386 O 0.32 0.16591 0.80943 0.0
O387 O 0.26902 0.19759 0.76189 0.0
O388 O 0.23297 0.24429 0.68776 0.0
O389 O 0.3182 0.23702 0.67825 0.0
C390 C 0.3147 0.2918 0.88558 0.0
C391 C 0.27172 0.23591 0.65728 0.0
Dy392 Dy 0.03946 0.00494 0.44541 0.0
C393 C 0.0866 0.0292 0.6757 0.0
C394 C 0.99826 0.99506 0.3432 0.0
Dy395 Dy 0.04627 0.03092 0.57517 0.0
O396 O 0.03748 0.97425 0.35618 0.0
O397 O 0.9803 0.01846 0.38615 0.0
O398 O 0.12396 0.039 0.43034 0.0
O399 O 0.09589 0.04 0.50776 0.0
C400 C 0.13571 0.05436 0.48175 0.0
C401 C 0.95046 0.99664 0.53107 0.0
O402 O 0.06058 0.11957 0.55106 0.0
O403 O 0.03002 0.09575 0.46073 0.0
O404 O 0.04443 0.04608 0.66652 0.0
O405 O 0.10742 0.01604 0.63056 0.0
O406 O 0.96156 0.02737 0.57775 0.0
O407 O 0.99058 0.98238 0.51396 0.0
O408 O 0.03855 0.91633 0.46993 0.0
O409 O 0.0481 0.93871 0.56477 0.0
C410 C 0.0471 0.13373 0.503 0.0
C411 C 0.04364 0.90206 0.52063 0.0
Dy412 Dy 0.35368 0.78015 0.77227 0.0
C413 C 0.15357 0.72986 0.66264 0.0
C414 C 0.43361 0.79956 0.84561 0.0
Dy415 Dy 0.24092 0.74352 0.72296 0.0
O416 O 0.43767 0.81079 0.79493 0.0
O417 O 0.38636 0.77976 0.85613 0.0
O418 O 0.38215 0.75847 0.68898 0.0
O419 O 0.31388 0.78718 0.69661 0.0
C420 C 0.34201 0.76688 0.66323 0.0
C421 C 0.2515 0.76031 0.83154 0.0
O422 O 0.26843 0.66123 0.70681 0.0
O423 O 0.34529 0.68611 0.7587 0.0
O424 O 0.1559 0.71657 0.71236 0.0
O425 O 0.19894 0.74665 0.64446 0.0
O426 O 0.21171 0.76741 0.8047 0.0
O427 O 0.27996 0.73875 0.79933 0.0
O428 O 0.32643 0.86244 0.78772 0.0
O429 O 0.25149 0.83762 0.73309 0.0
C430 C 0.31107 0.64917 0.72685 0.0
C431 C 0.28432 0.87428 0.76644 0.0
Dy432 Dy 0.53587 0.03231 0.07998 0.0
C433 C 0.57146 0.03428 0.84854 0.0
C434 C 0.52219 0.05899 0.18659 0.0
Dy435 Dy 0.54804 0.04541 0.95286 0.0
O436 O 0.53144 0.09567 0.15097 0.0
O437 O 0.5211 0.00784 0.16431 0.0
O438 O 0.53861 0.93856 0.06334 0.0
O439 O 0.57509 0.99798 0.01279 0.0
C440 C 0.5633 0.94595 0.01843 0.0
C441 C 0.50332 0.12556 0.99993 0.0
O442 O 0.47002 0.98854 0.95519 0.0
O443 O 0.45581 0.0093 0.04766 0.0
O444 O 0.57706 0.08264 0.87779 0.0
O445 O 0.55312 0.99155 0.87589 0.0
O446 O 0.51326 0.12261 0.94854 0.0
O447 O 0.51852 0.08636 0.0209 0.0
O448 O 0.61548 0.08241 0.08331 0.0
O449 O 0.62836 0.07971 0.98923 0.0
C450 C 0.43963 0.98807 0.99749 0.0
C451 C 0.64486 0.09284 0.04125 0.0
Dy452 Dy 0.30366 0.34934 0.28589 0.0
C453 C 0.32726 0.12401 0.30451 0.0
C454 C 0.27497 0.4362 0.24622 0.0
Dy455 Dy 0.29469 0.21414 0.27397 0.0
O456 O 0.30916 0.44261 0.28613 0.0
O457 O 0.25882 0.38354 0.22773 0.0
O458 O 0.30707 0.35627 0.37814 0.0
O459 O 0.32513 0.2864 0.33221 0.0
C460 C 0.31546 0.30518 0.37979 0.0
C461 C 0.27303 0.25388 0.17848 0.0
O462 O 0.22359 0.22049 0.31937 0.0
O463 O 0.22397 0.3169 0.31454 0.0
O464 O 0.28338 0.12008 0.27894 0.0
O465 O 0.3522 0.17607 0.31304 0.0
O466 O 0.27126 0.20004 0.18279 0.0
O467 O 0.28157 0.27839 0.22612 0.0
O468 O 0.37888 0.34606 0.24845 0.0
O469 O 0.37127 0.2469 0.23921 0.0
C470 C 0.20294 0.26574 0.32888 0.0
C471 C 0.3958 0.29946 0.23225 0.0
Dy472 Dy 0.53946 0.50494 0.94541 0.0
C473 C 0.5866 0.5292 0.1757 0.0
C474 C 0.49826 0.49506 0.8432 0.0
Dy475 Dy 0.54627 0.53092 0.07517 0.0
O476 O 0.53748 0.47425 0.85618 0.0
O477 O 0.4803 0.51846 0.88615 0.0
O478 O 0.62396 0.539 0.93034 0.0
O479 O 0.59589 0.54 0.00776 0.0
C480 C 0.63571 0.55436 0.98175 0.0
C481 C 0.45046 0.49664 0.03107 0.0
O482 O 0.56058 0.61957 0.05106 0.0
O483 O 0.53002 0.59575 0.96073 0.0
O484 O 0.54443 0.54608 0.16652 0.0
O485 O 0.60742 0.51604 0.13056 0.0
O486 O 0.46156 0.52737 0.07775 0.0
O487 O 0.49058 0.48238 0.01396 0.0
O488 O 0.53855 0.41633 0.96993 0.0
O489 O 0.5481 0.43871 0.06477 0.0
C490 C 0.5471 0.63373 0.003 0.0
C491 C 0.54364 0.40206 0.02063 0.0
Dy492 Dy 0.85368 0.28015 0.27227 0.0
C493 C 0.65357 0.22986 0.16264 0.0
C494 C 0.93361 0.29956 0.34561 0.0
Dy495 Dy 0.74092 0.24352 0.22296 0.0
O496 O 0.93767 0.31079 0.29493 0.0
O497 O 0.88636 0.27976 0.35613 0.0
O498 O 0.88215 0.25847 0.18898 0.0
O499 O 0.81388 0.28718 0.19661 0.0
C500 C 0.84201 0.26688 0.16324 0.0
C501 C 0.7515 0.26032 0.33154 0.0
O502 O 0.76843 0.16123 0.20681 0.0
O503 O 0.84529 0.18611 0.2587 0.0
O504 O 0.6559 0.21657 0.21236 0.0
O505 O 0.69894 0.24665 0.14446 0.0
O506 O 0.71171 0.26741 0.3047 0.0
O507 O 0.77996 0.23875 0.29933 0.0
O508 O 0.82643 0.36244 0.28772 0.0
O509 O 0.75149 0.33762 0.23309 0.0
C510 C 0.81107 0.14917 0.22685 0.0
C511 C 0.78432 0.37428 0.26644 0.0
Dy512 Dy 0.03587 0.53231 0.57998 0.0
C513 C 0.07146 0.53428 0.34854 0.0
C514 C 0.02219 0.55899 0.68659 0.0
Dy515 Dy 0.04804 0.54541 0.45286 0.0
O516 O 0.03144 0.59567 0.65097 0.0
O517 O 0.0211 0.50784 0.66431 0.0
O518 O 0.03861 0.43856 0.56334 0.0
O519 O 0.07509 0.49799 0.51279 0.0
C520 C 0.0633 0.44595 0.51843 0.0
C521 C 1.00332 0.62556 0.49993 0.0
O522 O 0.97002 0.48854 0.45519 0.0
O523 O 0.95581 0.5093 0.54766 0.0
O524 O 0.07706 0.58264 0.37779 0.0
O525 O 0.05311 0.49155 0.37589 0.0
O526 O 1.01326 0.62262 0.44854 0.0
O527 O 0.01852 0.58636 0.5209 0.0
O528 O 0.11548 0.58241 0.58331 0.0
O529 O 0.12836 0.57971 0.48923 0.0
C530 C 0.93963 0.48807 0.49749 0.0
C531 C 0.14486 0.59284 0.54125 0.0
Dy532 Dy 0.73721 0.77229 0.27729 0.0
C533 C 0.9446 0.74856 0.23845 0.0
C534 C 0.63676 0.75005 0.30107 0.0
Dy535 Dy 0.8464 0.74579 0.26698 0.0
O536 O 0.66505 0.80103 0.30186 0.0
O537 O 0.66313 0.71233 0.28729 0.0
O538 O 0.76039 0.85149 0.23398 0.0
O539 O 0.81462 0.8211 0.27969 0.0
C540 C 0.80881 0.85614 0.24638 0.0
C541 C 0.7724 0.6611 0.29418 0.0
O542 O 0.85316 0.78439 0.35404 0.0
O543 O 0.76679 0.7848 0.36595 0.0
O544 O 0.91403 0.70459 0.25471 0.0
O545 O 0.9218 0.79078 0.23816 0.0
O546 O 0.82 0.66591 0.30943 0.0
O547 O 0.76902 0.69759 0.26189 0.0
O548 O 0.73297 0.74429 0.18776 0.0
O549 O 0.8182 0.73702 0.17825 0.0
C550 C 0.8147 0.7918 0.38558 0.0
C551 C 0.77172 0.73591 0.15728 0.0
Dy552 Dy 0.82797 0.26768 0.67668 0.0
C553 C 0.79025 0.22811 0.89572 0.0
C554 C 0.83078 0.30428 0.57671 0.0
Dy555 Dy 0.79162 0.26108 0.79433 0.0
O556 O 0.86625 0.28165 0.5966 0.0
O557 O 0.79485 0.30608 0.6107 0.0
O558 O 0.88797 0.218 0.69367 0.0
O559 O 0.86512 0.27111 0.75646 0.0
C560 C 0.89154 0.23428 0.74584 0.0
C561 C 0.72849 0.29631 0.72685 0.0
O562 O 0.83943 0.34814 0.80441 0.0
O563 O 0.84908 0.35831 0.71183 0.0
O564 O 0.7599 0.25851 0.87798 0.0
O565 O 0.8203 0.21503 0.85818 0.0
O566 O 0.72988 0.30947 0.77953 0.0
O567 O 0.75539 0.26014 0.71574 0.0
O568 O 0.7789 0.1812 0.6632 0.0
O569 O 0.7603 0.17268 0.75481 0.0
C570 C 0.85353 0.37909 0.76365 0.0
C571 C 0.75741 0.15207 0.70262 0.0
Dy572 Dy 0.80366 0.84935 0.78589 0.0
C573 C 0.82726 0.62401 0.80452 0.0
C574 C 0.77497 0.9362 0.74622 0.0
Dy575 Dy 0.79469 0.71414 0.77397 0.0
O576 O 0.80916 0.94261 0.78613 0.0
O577 O 0.75882 0.88354 0.72773 0.0
O578 O 0.80707 0.85627 0.87814 0.0
O579 O 0.82513 0.7864 0.83221 0.0
C580 C 0.81546 0.80518 0.87979 0.0
C581 C 0.77303 0.75388 0.67848 0.0
O582 O 0.72359 0.72049 0.81937 0.0
O583 O 0.72397 0.8169 0.81454 0.0
O584 O 0.78338 0.62008 0.77894 0.0
O585 O 0.8522 0.67607 0.81304 0.0
O586 O 0.77126 0.70004 0.68279 0.0
O587 O 0.78157 0.77839 0.72612 0.0
O588 O 0.87888 0.84606 0.74846 0.0
O589 O 0.87127 0.7469 0.73921 0.0
C590 C 0.70294 0.76574 0.82888 0.0
C591 C 0.8958 0.79946 0.73225 0.0
Dy592 Dy 0.49163 0.49704 0.48909 0.0
C593 C 0.69808 0.52149 0.51689 0.0
C594 C 0.39231 0.50639 0.48926 0.0
Dy595 Dy 0.60459 0.54528 0.53574 0.0
O596 O 0.41311 0.48288 0.44799 0.0
O597 O 0.42474 0.5205 0.53025 0.0
O598 O 0.52528 0.45893 0.41259 0.0
O599 O 0.56435 0.53194 0.459 0.0
C600 C 0.56833 0.49666 0.42003 0.0
C601 C 0.53198 0.55534 0.60698 0.0
O602 O 0.59165 0.62322 0.49764 0.0
O603 O 0.5042 0.59054 0.4773 0.0
O604 O 0.69065 0.5628 0.55238 0.0
O605 O 0.65538 0.49516 0.49284 0.0
O606 O 0.57829 0.58735 0.61243 0.0
O607 O 0.5306 0.5161 0.56894 0.0
O608 O 0.50282 0.41828 0.52484 0.0
O609 O 0.5872 0.45437 0.55722 0.0
C610 C 0.54634 0.63123 0.48022 0.0
C611 C 0.54601 0.41246 0.54906 0.0
Dy612 Dy 0.09391 0.50199 0.02845 0.0
C613 C 0.89126 0.56459 0.02713 0.0
C614 C 0.16944 0.44627 0.05091 0.0
Dy615 Dy 0.97785 0.52394 0.03809 0.0
O616 O 0.17635 0.49242 0.02592 0.0
O617 O 0.12194 0.43119 0.06331 0.0
O618 O 0.10625 0.54851 0.95257 0.0
O619 O 0.03274 0.51165 0.97687 0.0
C620 C 0.05707 0.54459 0.94564 0.0
C621 C 0.01912 0.48235 0.11955 0.0
O622 O 0.96038 0.43929 0.98962 0.0
O623 O 0.04161 0.41791 0.9987 0.0
O624 O 0.90083 0.53539 0.06628 0.0
O625 O 0.9289 0.57173 0.99397 0.0
O626 O 0.96962 0.47326 0.11271 0.0
O627 O 0.04023 0.51651 0.08825 0.0
O628 O 0.10783 0.58649 0.0786 0.0
O629 O 0.02892 0.61062 0.06076 0.0
C630 C 0.99206 0.40382 0.98377 0.0
C631 C 0.07748 0.62379 0.0794 0.0
loop_
_geom_bond_atom_site_label_1
_geom_bond_atom_site_label_2
_geom_bond_distance
_geom_bond_site_symmetry_2
_ccdc_geom_bond_type
C0 O1 1.160 . S
C0 O7 1.185 . S
O1 C0 1.160 . S
O2 Zn3 1.899 . S
O2 C10 1.284 . S
Zn3 O2 1.899 . S
Zn3 O4 2.032 . S
Zn3 O7 2.086 . S
Zn3 O12 1.977 1_455 S
O4 Zn3 2.032 . S
O4 C8 1.278 . S
C5 O6 1.203 . S
C5 O12 1.267 . S
O6 C5 1.203 . S
O7 C0 1.185 . S
O7 Zn3 2.086 . S
C8 O4 1.278 . S
C8 O9 1.211 . S
O9 C8 1.211 . S
C10 O2 1.284 . S
C10 O11 1.273 . S
O11 C10 1.273 . S
O12 Zn3 1.977 1_655 S
O12 C5 1.267 . S
C13 O14 1.160 . S
C13 O20 1.185 . S
O14 C13 1.160 . S
O15 Zn16 1.899 1_655 S
O15 C23 1.279 1_655 S
Zn16 O15 1.899 1_455 S
Zn16 O17 2.032 1_455 S
Zn16 O20 2.086 1_455 S
Zn16 O25 1.977 . S
O17 Zn16 2.032 1_655 S
O17 C21 1.278 1_655 S
C18 O19 1.203 . S
C18 O25 1.267 . S
O19 C18 1.203 . S
O20 C13 1.185 . S
O20 Zn16 2.086 1_655 S
C21 O17 1.278 1_455 S
C21 O22 1.211 . S
O22 C21 1.211 . S
C23 O15 1.279 1_455 S
C23 O24 1.279 . S
O24 C23 1.279 . S
O25 Zn16 1.977 . S
O25 C18 1.267 . S
C26 O27 1.160 . S
C26 O33 1.185 . S
O27 C26 1.160 . S
O28 Zn29 1.899 . S
O28 C36 1.284 . S
Zn29 O28 1.899 . S
Zn29 O30 2.032 . S
Zn29 O33 2.086 . S
Zn29 O38 1.977 . S
O30 Zn29 2.032 . S
O30 C34 1.278 . S
C31 O32 1.203 . S
C31 O38 1.267 . S
O32 C31 1.203 . S
O33 C26 1.185 . S
O33 Zn29 2.086 . S
C34 O30 1.278 . S
C34 O35 1.211 . S
O35 C34 1.211 . S
C36 O28 1.284 . S
C36 O37 1.273 . S
O37 C36 1.273 . S
O38 Zn29 1.977 . S
O38 C31 1.267 . S
C39 O40 1.160 . S
C39 O46 1.185 . S
O40 C39 1.160 . S
O41 Zn42 1.899 . S
O41 C49 1.284 . S
Zn42 O41 1.899 . S
Zn42 O43 2.032 . S
Zn42 O46 2.086 . S
Zn42 O51 1.977 . S
O43 Zn42 2.032 . S
O43 C47 1.278 . S
C44 O45 1.203 . S
C44 O51 1.267 . S
O45 C44 1.203 . S
O46 C39 1.185 . S
O46 Zn42 2.086 . S
C47 O43 1.278 . S
C47 O48 1.211 . S
O48 C47 1.211 . S
C49 O41 1.284 . S
C49 O50 1.273 . S
O50 C49 1.273 . S
O51 Zn42 1.977 . S
O51 C44 1.267 . S
C52 O53 1.160 . S
C52 O59 1.185 1_655 S
O53 C52 1.160 . S
O54 Zn55 1.899 . S
O54 C62 1.284 . S
Zn55 O54 1.899 . S
Zn55 O56 2.032 . S
Zn55 O59 2.086 . S
Zn55 O64 1.977 . S
O56 Zn55 2.032 . S
O56 C60 1.278 . S
C57 O58 1.203 . S
C57 O64 1.267 . S
O58 C57 1.203 . S
O59 C52 1.185 1_455 S
O59 Zn55 2.086 . S
C60 O56 1.278 . S
C60 O61 1.211 . S
O61 C60 1.211 . S
C62 O54 1.284 . S
C62 O63 1.273 . S
O63 C62 1.273 . S
O64 Zn55 1.977 . S
O64 C57 1.267 . S
C65 O66 1.160 . S
C65 O72 1.185 . S
O66 C65 1.160 . S
O67 Zn68 1.899 . S
O67 C75 1.284 . S
Zn68 O67 1.899 . S
Zn68 O69 2.032 . S
Zn68 O72 2.086 . S
Zn68 O77 1.977 . S
O69 Zn68 2.032 . S
O69 C73 1.278 . S
C70 O71 1.203 . S
C70 O77 1.267 . S
O71 C70 1.203 . S
O72 C65 1.185 . S
O72 Zn68 2.086 . S
C73 O69 1.278 . S
C73 O74 1.211 . S
O74 C73 1.211 . S
C75 O67 1.284 . S
C75 O76 1.273 . S
O76 C75 1.273 . S
O77 Zn68 1.977 . S
O77 C70 1.267 . S
C78 O79 1.160 . S
C78 O85 1.185 . S
O79 C78 1.160 . S
O80 Zn81 1.899 . S
O80 C88 1.284 . S
Zn81 O80 1.899 . S
Zn81 O82 2.032 . S
Zn81 O85 2.086 . S
Zn81 O90 1.977 . S
O82 Zn81 2.032 . S
O82 C86 1.278 . S
C83 O84 1.203 . S
C83 O90 1.267 . S
O84 C83 1.203 . S
O85 C78 1.185 . S
O85 Zn81 2.086 . S
C86 O82 1.278 . S
C86 O87 1.211 . S
O87 C86 1.211 . S
C88 O80 1.284 . S
C88 O89 1.273 . S
O89 C88 1.273 . S
O90 Zn81 1.977 . S
O90 C83 1.267 . S
C91 O92 1.160 . S
C91 O98 1.185 . S
O92 C91 1.160 . S
O93 Zn94 1.899 1_655 S
O93 C101 1.284 . S
Zn94 O93 1.899 1_455 S
Zn94 O95 2.032 . S
Zn94 O98 2.086 . S
Zn94 O103 1.977 1_455 S
O95 Zn94 2.032 . S
O95 C99 1.278 . S
C96 O97 1.203 . S
C96 O103 1.267 . S
O97 C96 1.203 . S
O98 C91 1.185 . S
O98 Zn94 2.086 . S
C99 O95 1.278 . S
C99 O100 1.211 1_455 S
O100 C99 1.211 1_655 S
C101 O93 1.284 . S
C101 O102 1.273 . S
O102 C101 1.273 . S
O103 Zn94 1.977 1_655 S
O103 C96 1.267 . S
C104 O105 1.160 . S
C104 O111 1.185 . S
O105 C104 1.160 . S
O106 Zn107 1.899 . S
O106 C114 1.284 . S
Zn107 O106 1.899 . S
Zn107 O108 2.032 . S
Zn107 O111 2.086 . S
Zn107 O116 1.977 1_545 S
O108 Zn107 2.032 . S
O108 C112 1.278 . S
C109 O110 1.203 . S
C109 O116 1.267 . S
O110 C109 1.203 . S
O111 C104 1.185 . S
O111 Zn107 2.086 . S
C112 O108 1.278 . S
C112 O113 1.211 1_545 S
O113 C112 1.211 1_565 S
C114 O106 1.284 . S
C114 O115 1.273 1_545 S
O115 C114 1.273 1_565 S
O116 Zn107 1.977 1_565 S
O116 C109 1.267 . S
C117 O118 1.160 . S
C117 O124 1.185 . S
O118 C117 1.160 . S
O119 Zn120 1.899 . S
O119 C127 1.284 . S
Zn120 O119 1.899 . S
Zn120 O121 2.032 . S
Zn120 O124 2.086 . S
Zn120 O129 1.977 . S
O121 Zn120 2.032 . S
O121 C125 1.278 . S
C122 O123 1.203 . S
C122 O129 1.267 . S
O123 C122 1.203 . S
O124 C117 1.185 . S
O124 Zn120 2.086 . S
C125 O121 1.278 . S
C125 O126 1.211 . S
O126 C125 1.211 . S
C127 O119 1.284 . S
C127 O128 1.273 . S
O128 C127 1.273 . S
O129 Zn120 1.977 . S
O129 C122 1.267 . S
C130 O131 1.160 . S
C130 O137 1.185 . S
O131 C130 1.160 . S
O132 Zn133 1.900 1_565 S
O132 C140 1.284 . S
Zn133 O132 1.900 1_545 S
Zn133 O134 2.030 1_545 S
Zn133 O137 2.082 1_545 S
Zn133 O142 1.981 . S
O134 Zn133 2.030 1_565 S
O134 C138 1.278 1_565 S
C135 O136 1.203 . S
C135 O142 1.267 . S
O136 C135 1.203 . S
O137 C130 1.185 . S
O137 Zn133 2.082 1_565 S
C138 O134 1.278 1_545 S
C138 O139 1.211 . S
O139 C138 1.211 . S
C140 O132 1.284 . S
C140 O141 1.273 1_565 S
O141 C140 1.273 1_545 S
O142 Zn133 1.981 . S
O142 C135 1.267 . S
C143 O144 1.160 . S
C143 O150 1.185 . S
O144 C143 1.160 . S
O145 Zn146 1.899 . S
O145 C153 1.284 . S
Zn146 O145 1.899 . S
Zn146 O147 2.032 1_554 S
Zn146 O150 2.086 . S
Zn146 O155 1.977 . S
O147 Zn146 2.032 1_556 S
O147 C151 1.278 . S
C148 O149 1.203 . S
C148 O155 1.267 . S
O149 C148 1.203 . S
O150 C143 1.185 . S
O150 Zn146 2.086 . S
C151 O147 1.278 . S
C151 O152 1.211 . S
O152 C151 1.211 . S
C153 O145 1.284 . S
C153 O154 1.273 . S
O154 C153 1.273 . S
O155 Zn146 1.977 . S
O155 C148 1.267 . S
C156 O157 1.160 . S
C156 O163 1.185 . S
O157 C156 1.160 . S
O158 Zn159 1.899 . S
O158 C166 1.284 . S
Zn159 O158 1.899 . S
Zn159 O160 2.032 1_554 S
Zn159 O163 2.086 . S
Zn159 O168 1.977 . S
O160 Zn159 2.032 1_556 S
O160 C164 1.278 . S
C161 O162 1.203 . S
C161 O168 1.267 . S
O162 C161 1.203 . S
O163 C156 1.185 . S
O163 Zn159 2.086 . S
C164 O160 1.278 . S
C164 O165 1.211 . S
O165 C164 1.211 . S
C166 O158 1.284 . S
C166 O167 1.273 . S
O167 C166 1.273 . S
O168 Zn159 1.977 . S
O168 C161 1.267 . S
C169 O170 1.160 . S
C169 O176 1.185 . S
O170 C169 1.160 . S
O171 Zn172 1.899 . S
O171 C179 1.284 . S
Zn172 O171 1.899 . S
Zn172 O173 2.032 1_554 S
Zn172 O176 2.086 . S
Zn172 O181 1.977 . S
O173 Zn172 2.032 1_556 S
O173 C177 1.278 . S
C174 O175 1.203 . S
C174 O181 1.267 . S
O175 C174 1.203 . S
O176 C169 1.185 . S
O176 Zn172 2.086 . S
C177 O173 1.278 . S
C177 O178 1.211 . S
O178 C177 1.211 . S
C179 O171 1.284 . S
C179 O180 1.273 . S
O180 C179 1.273 . S
O181 Zn172 1.977 . S
O181 C174 1.267 . S
C182 O183 1.160 . S
C182 O189 1.185 . S
O183 C182 1.160 . S
O184 Zn185 1.899 . S
O184 C192 1.284 . S
Zn185 O184 1.899 . S
Zn185 O186 2.032 . S
Zn185 O189 2.086 . S
Zn185 O194 1.977 . S
O186 Zn185 2.032 . S
O186 C190 1.278 . S
C187 O188 1.203 . S
C187 O194 1.267 . S
O188 C187 1.203 . S
O189 C182 1.185 . S
O189 Zn185 2.086 . S
C190 O186 1.278 . S
C190 O191 1.211 . S
O191 C190 1.211 . S
C192 O184 1.284 . S
C192 O193 1.273 . S
O193 C192 1.273 . S
O194 Zn185 1.977 . S
O194 C187 1.267 . S
C195 O196 1.160 . S
C195 O202 1.185 . S
O196 C195 1.160 . S
O197 Zn198 1.899 . S
O197 C205 1.284 . S
Zn198 O197 1.899 . S
Zn198 O199 2.032 . S
Zn198 O202 2.086 . S
Zn198 O207 1.977 . S
O199 Zn198 2.032 . S
O199 C203 1.278 . S
C200 O201 1.203 . S
C200 O207 1.267 . S
O201 C200 1.203 . S
O202 C195 1.185 . S
O202 Zn198 2.086 . S
C203 O199 1.278 . S
C203 O204 1.211 . S
O204 C203 1.211 . S
C205 O197 1.284 . S
C205 O206 1.273 . S
O206 C205 1.273 . S
O207 Zn198 1.977 . S
O207 C200 1.267 . S
C208 O209 1.160 . S
C208 O215 1.185 . S
O209 C208 1.160 . S
O210 Zn211 1.899 . S
O210 C218 1.284 . S
Zn211 O210 1.899 . S
Zn211 O212 2.032 . S
Zn211 O215 2.086 . S
Zn211 O220 1.977 1_545 S
O212 Zn211 2.032 . S
O212 C216 1.278 . S
C213 O214 1.203 . S
C213 O220 1.267 . S
O214 C213 1.203 . S
O215 C208 1.185 . S
O215 Zn211 2.086 . S
C216 O212 1.278 . S
C216 O217 1.211 1_545 S
O217 C216 1.211 1_565 S
C218 O210 1.284 . S
C218 O219 1.273 . S
O219 C218 1.273 . S
O220 Zn211 1.977 1_565 S
O220 C213 1.267 . S
C221 O222 1.160 . S
C221 O228 1.185 . S
O222 C221 1.160 . S
O223 Zn224 1.899 . S
O223 C231 1.284 . S
Zn224 O223 1.899 . S
Zn224 O225 2.032 . S
Zn224 O228 2.086 . S
Zn224 O233 1.977 . S
O225 Zn224 2.032 . S
O225 C229 1.278 . S
C226 O227 1.203 . S
C226 O233 1.267 . S
O227 C226 1.203 . S
O228 C221 1.185 . S
O228 Zn224 2.086 . S
C229 O225 1.278 . S
C229 O230 1.211 . S
O230 C229 1.211 . S
C231 O223 1.284 . S
C231 O232 1.273 . S
O232 C231 1.273 . S
O233 Zn224 1.977 . S
O233 C226 1.267 . S
C234 O235 1.160 . S
C234 O241 1.185 . S
O235 C234 1.160 . S
O236 Zn237 1.899 . S
O236 C244 1.284 . S
Zn237 O236 1.899 . S
Zn237 O238 2.032 . S
Zn237 O241 2.086 . S
Zn237 O246 1.977 . S
O238 Zn237 2.032 . S
O238 C242 1.278 . S
C239 O240 1.203 . S
C239 O246 1.267 . S
O240 C239 1.203 . S
O241 C234 1.185 . S
O241 Zn237 2.086 . S
C242 O238 1.278 . S
C242 O243 1.211 . S
O243 C242 1.211 . S
C244 O236 1.284 . S
C244 O245 1.273 . S
O245 C244 1.273 . S
O246 Zn237 1.977 . S
O246 C239 1.267 . S
C247 O248 1.160 . S
C247 O254 1.185 . S
O248 C247 1.160 . S
O249 Zn250 1.899 . S
O249 C257 1.284 . S
Zn250 O249 1.899 . S
Zn250 O251 2.032 . S
Zn250 O254 2.086 1_545 S
Zn250 O259 1.977 . S
O251 Zn250 2.032 . S
O251 C255 1.278 . S
C252 O253 1.203 . S
C252 O259 1.267 . S
O253 C252 1.203 . S
O254 C247 1.185 . S
O254 Zn250 2.086 1_565 S
C255 O251 1.278 . S
C255 O256 1.211 . S
O256 C255 1.211 . S
C257 O249 1.284 . S
C257 O258 1.273 . S
O258 C257 1.273 . S
O259 Zn250 1.977 . S
O259 C252 1.267 . S
C260 O261 1.160 . S
C260 O267 1.185 1_554 S
O261 C260 1.160 . S
O262 Zn263 1.899 . S
O262 C270 1.284 . S
Zn263 O262 1.899 . S
Zn263 O264 2.032 1_554 S
Zn263 O267 2.086 1_554 S
Zn263 O272 1.977 1_554 S
O264 Zn263 2.032 1_556 S
O264 C268 1.278 . S
C265 O266 1.203 . S
C265 O272 1.267 1_554 S
O266 C265 1.203 . S
O267 C260 1.185 1_556 S
O267 Zn263 2.086 1_556 S
C268 O264 1.278 . S
C268 O269 1.211 . S
O269 C268 1.211 . S
C270 O262 1.284 . S
C270 O271 1.273 . S
O271 C270 1.273 . S
O272 Zn263 1.977 1_556 S
O272 C265 1.267 1_556 S
C273 O274 1.160 . S
C273 O280 1.185 . S
O274 C273 1.160 . S
O275 Zn276 1.899 . S
O275 C283 1.284 . S
Zn276 O275 1.899 . S
Zn276 O277 2.032 . S
Zn276 O280 2.086 . S
Zn276 O285 1.977 . S
O277 Zn276 2.032 . S
O277 C281 1.278 . S
C278 O279 1.203 . S
C278 O285 1.267 . S
O279 C278 1.203 . S
O280 C273 1.185 . S
O280 Zn276 2.086 . S
C281 O277 1.278 . S
C281 O282 1.211 . S
O282 C281 1.211 . S
C283 O275 1.284 . S
C283 O284 1.273 1_655 S
O284 C283 1.273 1_455 S
O285 Zn276 1.977 . S
O285 C278 1.267 . S
C286 O287 1.160 . S
C286 O293 1.185 . S
O287 C286 1.160 . S
O288 Zn289 1.899 . S
O288 C296 1.284 . S
Zn289 O288 1.899 . S
Zn289 O290 2.032 . S
Zn289 O293 2.086 . S
Zn289 O298 1.977 . S
O290 Zn289 2.032 . S
O290 C294 1.278 . S
C291 O292 1.203 . S
C291 O298 1.267 . S
O292 C291 1.203 . S
O293 C286 1.185 . S
O293 Zn289 2.086 . S
C294 O290 1.278 . S
C294 O295 1.211 . S
O295 C294 1.211 . S
C296 O288 1.284 . S
C296 O297 1.273 . S
O297 C296 1.273 . S
O298 Zn289 1.977 . S
O298 C291 1.267 . S
C299 O300 1.160 . S
C299 O306 1.185 . S
O300 C299 1.160 . S
O301 Zn302 1.899 . S
O301 C309 1.284 . S
Zn302 O301 1.899 . S
Zn302 O303 2.032 . S
Zn302 O306 2.086 . S
Zn302 O311 1.977 . S
O303 Zn302 2.032 . S
O303 C307 1.278 . S
C304 O305 1.203 . S
C304 O311 1.267 . S
O305 C304 1.203 . S
O306 C299 1.185 . S
O306 Zn302 2.086 . S
C307 O303 1.278 . S
C307 O308 1.211 . S
O308 C307 1.211 . S
C309 O301 1.284 . S
C309 O310 1.273 . S
O310 C309 1.273 . S
O311 Zn302 1.977 . S
O311 C304 1.267 . S
Dy312 O316 2.398 1_565 S
Dy312 O317 2.488 1_566 S
Dy312 O318 2.403 . S
Dy312 O319 2.665 1_665 S
Dy312 O323 2.326 1_565 S
Dy312 O327 2.311 1_566 S
Dy312 O328 2.351 1_556 S
C313 O324 1.185 1_565 S
C313 O325 1.355 . S
C314 O316 1.185 . S
C314 O317 1.340 1_556 S
Dy315 O319 2.313 1_554 S
Dy315 O322 2.351 . S
Dy315 O324 2.398 . S
Dy315 O325 2.491 1_545 S
Dy315 O326 2.403 . S
Dy315 O327 2.662 1_455 S
Dy315 O329 2.326 1_545 S
O316 Dy312 2.398 1_545 S
O316 C314 1.185 . S
O317 Dy312 2.488 1_544 S
O317 C314 1.340 1_554 S
O318 Dy312 2.403 . S
O318 C320 1.254 1_655 S
O319 Dy312 2.665 1_445 S
O319 Dy315 2.313 1_556 S
O319 C320 1.267 1_545 S
C320 O318 1.254 1_455 S
C320 O319 1.267 1_565 S
C321 O326 1.254 . S
C321 O327 1.267 1_455 S
O322 Dy315 2.351 . S
O322 C330 1.249 1_554 S
O323 Dy312 2.326 1_545 S
O323 C330 1.267 1_655 S
O324 C313 1.185 1_545 S
O324 Dy315 2.398 . S
O325 C313 1.355 . S
O325 Dy315 2.491 1_565 S
O326 Dy315 2.403 . S
O326 C321 1.254 . S
O327 Dy312 2.311 1_544 S
O327 Dy315 2.662 1_655 S
O327 C321 1.267 1_655 S
O328 Dy312 2.351 1_554 S
O328 C331 1.249 1_655 S
O329 Dy315 2.326 1_565 S
O329 C331 1.267 . S
C330 O322 1.249 1_556 S
C330 O323 1.267 1_455 S
C331 O328 1.249 1_455 S
C331 O329 1.267 . S
Dy332 O336 2.398 . S
Dy332 O337 2.491 . S
Dy332 O338 2.403 . S
Dy332 O339 2.664 . S
Dy332 O343 2.326 . S
Dy332 O347 2.310 . S
Dy332 O348 2.351 . S
C333 O344 1.185 . S
C333 O345 1.355 . S
C334 O336 1.185 . S
C334 O337 1.355 . S
Dy335 O339 2.310 . S
Dy335 O342 2.351 . S
Dy335 O344 2.398 . S
Dy335 O345 2.491 . S
Dy335 O346 2.403 . S
Dy335 O347 2.664 . S
Dy335 O349 2.326 . S
O336 Dy332 2.398 . S
O336 C334 1.185 . S
O337 Dy332 2.491 . S
O337 C334 1.355 . S
O338 Dy332 2.403 . S
O338 C340 1.254 . S
O339 Dy332 2.664 . S
O339 Dy335 2.310 . S
O339 C340 1.268 . S
C340 O338 1.254 . S
C340 O339 1.268 . S
C341 O346 1.254 . S
C341 O347 1.268 . S
O342 Dy335 2.351 . S
O342 C350 1.249 . S
O343 Dy332 2.326 . S
O343 C350 1.267 . S
O344 C333 1.185 . S
O344 Dy335 2.398 . S
O345 C333 1.355 . S
O345 Dy335 2.491 . S
O346 Dy335 2.403 . S
O346 C341 1.254 . S
O347 Dy332 2.310 . S
O347 Dy335 2.664 . S
O347 C341 1.268 . S
O348 Dy332 2.351 . S
O348 C351 1.249 . S
O349 Dy335 2.326 . S
O349 C351 1.267 . S
C350 O342 1.249 . S
C350 O343 1.267 . S
C351 O348 1.249 . S
C351 O349 1.267 . S
Dy352 O356 2.398 1_545 S
Dy352 O357 2.491 1_545 S
Dy352 O358 2.403 . S
Dy352 O359 2.664 . S
Dy352 O363 2.326 1_545 S
Dy352 O367 2.310 . S
Dy352 O368 2.351 . S
C353 O364 1.185 . S
C353 O365 1.355 . S
C354 O356 1.185 . S
C354 O357 1.355 . S
Dy355 O359 2.310 . S
Dy355 O362 2.351 1_545 S
Dy355 O364 2.398 . S
Dy355 O365 2.491 . S
Dy355 O366 2.403 . S
Dy355 O367 2.664 . S
Dy355 O369 2.326 . S
O356 Dy352 2.398 1_565 S
O356 C354 1.185 . S
O357 Dy352 2.491 1_565 S
O357 C354 1.355 . S
O358 Dy352 2.403 . S
O358 C360 1.254 . S
O359 Dy352 2.664 . S
O359 Dy355 2.310 . S
O359 C360 1.268 . S
C360 O358 1.254 . S
C360 O359 1.268 . S
C361 O366 1.254 . S
C361 O367 1.268 . S
O362 Dy355 2.351 1_565 S
O362 C370 1.249 . S
O363 Dy352 2.326 1_565 S
O363 C370 1.267 . S
O364 C353 1.185 . S
O364 Dy355 2.398 . S
O365 C353 1.355 . S
O365 Dy355 2.491 . S
O366 Dy355 2.403 . S
O366 C361 1.254 . S
O367 Dy352 2.310 . S
O367 Dy355 2.664 . S
O367 C361 1.268 . S
O368 Dy352 2.351 . S
O368 C371 1.249 . S
O369 Dy355 2.326 . S
O369 C371 1.267 . S
C370 O362 1.249 . S
C370 O363 1.267 . S
C371 O368 1.249 . S
C371 O369 1.267 . S
Dy372 O376 2.398 . S
Dy372 O377 2.491 . S
Dy372 O378 2.403 . S
Dy372 O379 2.664 . S
Dy372 O383 2.326 . S
Dy372 O387 2.310 . S
Dy372 O388 2.351 . S
C373 O384 1.185 . S
C373 O385 1.355 . S
C374 O376 1.185 . S
C374 O377 1.355 . S
Dy375 O379 2.310 . S
Dy375 O382 2.351 . S
Dy375 O384 2.398 . S
Dy375 O385 2.491 . S
Dy375 O386 2.403 . S
Dy375 O387 2.664 . S
Dy375 O389 2.326 . S
O376 Dy372 2.398 . S
O376 C374 1.185 . S
O377 Dy372 2.491 . S
O377 C374 1.355 . S
O378 Dy372 2.403 . S
O378 C380 1.254 . S
O379 Dy372 2.664 . S
O379 Dy375 2.310 . S
O379 C380 1.268 . S
C380 O378 1.254 . S
C380 O379 1.268 . S
C381 O386 1.254 . S
C381 O387 1.268 . S
O382 Dy375 2.351 . S
O382 C390 1.249 . S
O383 Dy372 2.326 . S
O383 C390 1.267 . S
O384 C373 1.185 . S
O384 Dy375 2.398 . S
O385 C373 1.355 . S
O385 Dy375 2.491 . S
O386 Dy375 2.403 . S
O386 C381 1.254 . S
O387 Dy372 2.310 . S
O387 Dy375 2.664 . S
O387 C381 1.268 . S
O388 Dy372 2.351 . S
O388 C391 1.249 . S
O389 Dy375 2.326 . S
O389 C391 1.267 . S
C390 O382 1.249 . S
C390 O383 1.267 . S
C391 O388 1.249 . S
C391 O389 1.267 . S
Dy392 O396 2.398 1_565 S
Dy392 O397 2.491 1_465 S
Dy392 O398 2.403 1_565 S
Dy392 O399 2.664 1_565 S
Dy392 O403 2.326 1_565 S
Dy392 O407 2.310 1_465 S
Dy392 O408 2.351 . S
C393 O404 1.185 . S
C393 O405 1.355 . S
C394 O396 1.185 1_655 S
C394 O397 1.355 . S
Dy395 O399 2.310 . S
Dy395 O402 2.351 . S
Dy395 O404 2.398 . S
Dy395 O405 2.491 . S
Dy395 O406 2.403 1_455 S
Dy395 O407 2.664 1_455 S
Dy395 O409 2.326 1_545 S
O396 Dy392 2.398 1_545 S
O396 C394 1.185 1_455 S
O397 Dy392 2.491 1_645 S
O397 C394 1.355 . S
O398 Dy392 2.403 1_545 S
O398 C400 1.254 . S
O399 Dy392 2.664 1_545 S
O399 Dy395 2.310 . S
O399 C400 1.268 . S
C400 O398 1.254 . S
C400 O399 1.268 . S
C401 O406 1.253 1_565 S
C401 O407 1.268 1_565 S
O402 Dy395 2.351 . S
O402 C410 1.249 . S
O403 Dy392 2.326 1_545 S
O403 C410 1.267 . S
O404 C393 1.185 . S
O404 Dy395 2.398 . S
O405 C393 1.355 . S
O405 Dy395 2.491 . S
O406 Dy395 2.403 1_655 S
O406 C401 1.253 1_545 S
O407 Dy392 2.310 1_645 S
O407 Dy395 2.664 1_655 S
O407 C401 1.268 1_545 S
O408 Dy392 2.351 . S
O408 C411 1.249 . S
O409 Dy395 2.326 1_565 S
O409 C411 1.267 . S
C410 O402 1.249 . S
C410 O403 1.267 . S
C411 O408 1.249 . S
C411 O409 1.267 . S
Dy412 O416 2.398 . S
Dy412 O417 2.491 . S
Dy412 O418 2.403 . S
Dy412 O419 2.664 . S
Dy412 O423 2.326 . S
Dy412 O427 2.310 . S
Dy412 O428 2.351 . S
C413 O424 1.185 . S
C413 O425 1.355 . S
C414 O416 1.185 . S
C414 O417 1.355 . S
Dy415 O419 2.310 . S
Dy415 O422 2.351 . S
Dy415 O424 2.398 . S
Dy415 O425 2.491 . S
Dy415 O426 2.403 . S
Dy415 O427 2.664 . S
Dy415 O429 2.326 . S
O416 Dy412 2.398 . S
O416 C414 1.185 . S
O417 Dy412 2.491 . S
O417 C414 1.355 . S
O418 Dy412 2.403 . S
O418 C420 1.254 . S
O419 Dy412 2.664 . S
O419 Dy415 2.310 . S
O419 C420 1.268 . S
C420 O418 1.254 . S
C420 O419 1.268 . S
C421 O426 1.254 . S
C421 O427 1.268 . S
O422 Dy415 2.351 . S
O422 C430 1.249 . S
O423 Dy412 2.326 . S
O423 C430 1.267 . S
O424 C413 1.185 . S
O424 Dy415 2.398 . S
O425 C413 1.355 . S
O425 Dy415 2.491 . S
O426 Dy415 2.403 . S
O426 C421 1.254 . S
O427 Dy412 2.310 . S
O427 Dy415 2.664 . S
O427 C421 1.268 . S
O428 Dy412 2.351 . S
O428 C431 1.249 . S
O429 Dy415 2.326 . S
O429 C431 1.267 . S
C430 O422 1.249 . S
C430 O423 1.267 . S
C431 O428 1.249 . S
C431 O429 1.267 . S
Dy432 O436 2.398 1_545 S
Dy432 O437 2.491 . S
Dy432 O438 2.403 1_545 S
Dy432 O439 2.664 1_544 S
Dy432 O443 2.326 1_545 S
Dy432 O447 2.310 . S
Dy432 O448 2.351 . S
C433 O444 1.185 . S
C433 O445 1.355 . S
C434 O436 1.185 . S
C434 O437 1.355 1_565 S
Dy435 O439 2.310 1_545 S
Dy435 O442 2.351 1_545 S
Dy435 O444 2.398 . S
Dy435 O445 2.491 . S
Dy435 O446 2.403 . S
Dy435 O447 2.664 1_556 S
Dy435 O449 2.326 . S
O436 Dy432 2.398 1_565 S
O436 C434 1.185 . S
O437 Dy432 2.491 . S
O437 C434 1.355 1_545 S
O438 Dy432 2.403 1_565 S
O438 C440 1.254 1_554 S
O439 Dy432 2.664 1_566 S
O439 Dy435 2.310 1_565 S
O439 C440 1.268 . S
C440 O438 1.254 1_556 S
C440 O439 1.268 . S
C441 O446 1.254 1_554 S
C441 O447 1.268 . S
O442 Dy435 2.351 1_565 S
O442 C450 1.249 1_556 S
O443 Dy432 2.326 1_565 S
O443 C450 1.267 . S
O444 C433 1.185 . S
O444 Dy435 2.398 . S
O445 C433 1.355 . S
O445 Dy435 2.491 . S
O446 Dy435 2.403 . S
O446 C441 1.254 1_556 S
O447 Dy432 2.310 . S
O447 Dy435 2.664 1_554 S
O447 C441 1.268 . S
O448 Dy432 2.351 . S
O448 C451 1.249 . S
O449 Dy435 2.326 . S
O449 C451 1.267 1_556 S
C450 O442 1.249 1_554 S
C450 O443 1.267 . S
C451 O448 1.249 . S
C451 O449 1.267 1_554 S
Dy452 O456 2.398 . S
Dy452 O457 2.491 . S
Dy452 O458 2.403 . S
Dy452 O459 2.664 . S
Dy452 O463 2.326 . S
Dy452 O467 2.310 . S
Dy452 O468 2.351 . S
C453 O464 1.185 . S
C453 O465 1.355 . S
C454 O456 1.185 . S
C454 O457 1.355 . S
Dy455 O459 2.310 . S
Dy455 O462 2.351 . S
Dy455 O464 2.398 . S
Dy455 O465 2.491 . S
Dy455 O466 2.403 . S
Dy455 O467 2.664 . S
Dy455 O469 2.326 . S
O456 Dy452 2.398 . S
O456 C454 1.185 . S
O457 Dy452 2.491 . S
O457 C454 1.355 . S
O458 Dy452 2.403 . S
O458 C460 1.254 . S
O459 Dy452 2.664 . S
O459 Dy455 2.310 . S
O459 C460 1.268 . S
C460 O458 1.254 . S
C460 O459 1.268 . S
C461 O466 1.254 . S
C461 O467 1.268 . S
O462 Dy455 2.351 . S
O462 C470 1.249 . S
O463 Dy452 2.326 . S
O463 C470 1.267 . S
O464 C453 1.185 . S
O464 Dy455 2.398 . S
O465 C453 1.355 . S
O465 Dy455 2.491 . S
O466 Dy455 2.403 . S
O466 C461 1.254 . S
O467 Dy452 2.310 . S
O467 Dy455 2.664 . S
O467 C461 1.268 . S
O468 Dy452 2.351 . S
O468 C471 1.249 . S
O469 Dy455 2.326 . S
O469 C471 1.267 . S
C470 O462 1.249 . S
C470 O463 1.267 . S
C471 O468 1.249 . S
C471 O469 1.267 . S
Dy472 O476 2.398 . S
Dy472 O477 2.491 . S
Dy472 O478 2.403 . S
Dy472 O479 2.664 1_556 S
Dy472 O483 2.326 . S
Dy472 O487 2.310 1_556 S
Dy472 O488 2.351 . S
C473 O484 1.185 . S
C473 O485 1.355 . S
C474 O476 1.185 . S
C474 O477 1.355 . S
Dy475 O479 2.310 . S
Dy475 O482 2.351 . S
Dy475 O484 2.398 . S
Dy475 O485 2.491 . S
Dy475 O486 2.403 . S
Dy475 O487 2.664 . S
Dy475 O489 2.326 . S
O476 Dy472 2.398 . S
O476 C474 1.185 . S
O477 Dy472 2.491 . S
O477 C474 1.355 . S
O478 Dy472 2.403 . S
O478 C480 1.254 . S
O479 Dy472 2.664 1_554 S
O479 Dy475 2.310 . S
O479 C480 1.268 1_554 S
C480 O478 1.254 . S
C480 O479 1.268 1_556 S
C481 O486 1.254 . S
C481 O487 1.268 . S
O482 Dy475 2.351 . S
O482 C490 1.249 1_554 S
O483 Dy472 2.326 . S
O483 C490 1.267 . S
O484 C473 1.185 . S
O484 Dy475 2.398 . S
O485 C473 1.355 . S
O485 Dy475 2.491 . S
O486 Dy475 2.403 . S
O486 C481 1.254 . S
O487 Dy472 2.310 1_554 S
O487 Dy475 2.664 . S
O487 C481 1.268 . S
O488 Dy472 2.351 . S
O488 C491 1.249 1_556 S
O489 Dy475 2.326 . S
O489 C491 1.267 . S
C490 O482 1.249 1_556 S
C490 O483 1.267 . S
C491 O488 1.249 1_554 S
C491 O489 1.267 . S
Dy492 O496 2.398 . S
Dy492 O497 2.491 . S
Dy492 O498 2.403 . S
Dy492 O499 2.664 . S
Dy492 O503 2.326 . S
Dy492 O507 2.310 . S
Dy492 O508 2.351 . S
C493 O504 1.185 . S
C493 O505 1.355 . S
C494 O496 1.185 . S
C494 O497 1.355 . S
Dy495 O499 2.310 . S
Dy495 O502 2.351 . S
Dy495 O504 2.398 . S
Dy495 O505 2.491 . S
Dy495 O506 2.403 . S
Dy495 O507 2.664 . S
Dy495 O509 2.326 . S
O496 Dy492 2.398 . S
O496 C494 1.185 . S
O497 Dy492 2.491 . S
O497 C494 1.355 . S
O498 Dy492 2.403 . S
O498 C500 1.254 . S
O499 Dy492 2.664 . S
O499 Dy495 2.310 . S
O499 C500 1.268 . S
C500 O498 1.254 . S
C500 O499 1.268 . S
C501 O506 1.254 . S
C501 O507 1.268 . S
O502 Dy495 2.351 . S
O502 C510 1.249 . S
O503 Dy492 2.326 . S
O503 C510 1.267 . S
O504 C493 1.185 . S
O504 Dy495 2.398 . S
O505 C493 1.355 . S
O505 Dy495 2.491 . S
O506 Dy495 2.403 . S
O506 C501 1.254 . S
O507 Dy492 2.310 . S
O507 Dy495 2.664 . S
O507 C501 1.268 . S
O508 Dy492 2.351 . S
O508 C511 1.249 . S
O509 Dy495 2.326 . S
O509 C511 1.267 . S
C510 O502 1.249 . S
C510 O503 1.267 . S
C511 O508 1.249 . S
C511 O509 1.267 . S
Dy512 O516 2.391 1_455 S
Dy512 O517 2.491 1_455 S
Dy512 O518 2.403 . S
Dy512 O519 2.664 . S
Dy512 O523 2.326 1_455 S
Dy512 O527 2.310 . S
Dy512 O528 2.351 . S
C513 O524 1.185 . S
C513 O525 1.355 . S
C514 O516 1.199 . S
C514 O517 1.355 . S
Dy515 O519 2.310 . S
Dy515 O522 2.351 1_455 S
Dy515 O524 2.398 . S
Dy515 O525 2.491 . S
Dy515 O526 2.403 . S
Dy515 O527 2.664 . S
Dy515 O529 2.326 . S
O516 Dy512 2.391 1_655 S
O516 C514 1.199 . S
O517 Dy512 2.491 1_655 S
O517 C514 1.355 . S
O518 Dy512 2.403 . S
O518 C520 1.254 . S
O519 Dy512 2.664 . S
O519 Dy515 2.310 . S
O519 C520 1.268 . S
C520 O518 1.254 . S
C520 O519 1.268 . S
C521 O526 1.254 . S
C521 O527 1.268 . S
O522 Dy515 2.351 1_655 S
O522 C530 1.249 . S
O523 Dy512 2.326 1_655 S
O523 C530 1.267 . S
O524 C513 1.185 . S
O524 Dy515 2.398 . S
O525 C513 1.355 . S
O525 Dy515 2.491 . S
O526 Dy515 2.403 . S
O526 C521 1.254 . S
O527 Dy512 2.310 . S
O527 Dy515 2.664 . S
O527 C521 1.268 . S
O528 Dy512 2.351 . S
O528 C531 1.249 . S
O529 Dy515 2.326 . S
O529 C531 1.267 . S
C530 O522 1.249 . S
C530 O523 1.267 . S
C531 O528 1.249 . S
C531 O529 1.267 . S
Dy532 O536 2.398 . S
Dy532 O537 2.491 . S
Dy532 O538 2.403 . S
Dy532 O539 2.664 . S
Dy532 O543 2.326 . S
Dy532 O547 2.310 . S
Dy532 O548 2.351 . S
C533 O544 1.185 . S
C533 O545 1.355 . S
C534 O536 1.185 . S
C534 O537 1.355 . S
Dy535 O539 2.310 . S
Dy535 O542 2.351 . S
Dy535 O544 2.398 . S
Dy535 O545 2.491 . S
Dy535 O546 2.403 . S
Dy535 O547 2.664 . S
Dy535 O549 2.326 . S
O536 Dy532 2.398 . S
O536 C534 1.185 . S
O537 Dy532 2.491 . S
O537 C534 1.355 . S
O538 Dy532 2.403 . S
O538 C540 1.254 . S
O539 Dy532 2.664 . S
O539 Dy535 2.310 . S
O539 C540 1.268 . S
C540 O538 1.254 . S
C540 O539 1.268 . S
C541 O546 1.254 . S
C541 O547 1.268 . S
O542 Dy535 2.351 . S
O542 C550 1.249 . S
O543 Dy532 2.326 . S
O543 C550 1.267 . S
O544 C533 1.185 . S
O544 Dy535 2.398 . S
O545 C533 1.355 . S
O545 Dy535 2.491 . S
O546 Dy535 2.403 . S
O546 C541 1.254 . S
O547 Dy532 2.310 . S
O547 Dy535 2.664 . S
O547 C541 1.268 . S
O548 Dy532 2.351 . S
O548 C551 1.249 . S
O549 Dy535 2.326 . S
O549 C551 1.267 . S
C550 O542 1.249 . S
C550 O543 1.267 . S
C551 O548 1.249 . S
C551 O549 1.267 . S
Dy552 O556 2.398 . S
Dy552 O557 2.491 . S
Dy552 O558 2.403 . S
Dy552 O559 2.664 . S
Dy552 O563 2.326 . S
Dy552 O567 2.310 . S
Dy552 O568 2.351 . S
C553 O564 1.185 . S
C553 O565 1.355 . S
C554 O556 1.185 . S
C554 O557 1.355 . S
Dy555 O559 2.310 . S
Dy555 O562 2.351 . S
Dy555 O564 2.398 . S
Dy555 O565 2.491 . S
Dy555 O566 2.403 . S
Dy555 O567 2.664 . S
Dy555 O569 2.326 . S
O556 Dy552 2.398 . S
O556 C554 1.185 . S
O557 Dy552 2.491 . S
O557 C554 1.355 . S
O558 Dy552 2.403 . S
O558 C560 1.254 . S
O559 Dy552 2.664 . S
O559 Dy555 2.310 . S
O559 C560 1.268 . S
C560 O558 1.254 . S
C560 O559 1.268 . S
C561 O566 1.254 . S
C561 O567 1.268 . S
O562 Dy555 2.351 . S
O562 C570 1.249 . S
O563 Dy552 2.326 . S
O563 C570 1.267 . S
O564 C553 1.185 . S
O564 Dy555 2.398 . S
O565 C553 1.355 . S
O565 Dy555 2.491 . S
O566 Dy555 2.403 . S
O566 C561 1.254 . S
O567 Dy552 2.310 . S
O567 Dy555 2.664 . S
O567 C561 1.268 . S
O568 Dy552 2.351 . S
O568 C571 1.249 . S
O569 Dy555 2.326 . S
O569 C571 1.267 . S
C570 O562 1.249 . S
C570 O563 1.267 . S
C571 O568 1.249 . S
C571 O569 1.267 . S
Dy572 O576 2.398 . S
Dy572 O577 2.491 . S
Dy572 O578 2.403 . S
Dy572 O579 2.664 . S
Dy572 O583 2.326 . S
Dy572 O587 2.310 . S
Dy572 O588 2.351 . S
C573 O584 1.185 . S
C573 O585 1.355 . S
C574 O576 1.185 . S
C574 O577 1.355 . S
Dy575 O579 2.310 . S
Dy575 O582 2.351 . S
Dy575 O584 2.398 . S
Dy575 O585 2.491 . S
Dy575 O586 2.403 . S
Dy575 O587 2.664 . S
Dy575 O589 2.326 . S
O576 Dy572 2.398 . S
O576 C574 1.185 . S
O577 Dy572 2.491 . S
O577 C574 1.355 . S
O578 Dy572 2.403 . S
O578 C580 1.254 . S
O579 Dy572 2.664 . S
O579 Dy575 2.310 . S
O579 C580 1.268 . S
C580 O578 1.254 . S
C580 O579 1.268 . S
C581 O586 1.254 . S
C581 O587 1.268 . S
O582 Dy575 2.351 . S
O582 C590 1.249 . S
O583 Dy572 2.326 . S
O583 C590 1.267 . S
O584 C573 1.185 . S
O584 Dy575 2.398 . S
O585 C573 1.355 . S
O585 Dy575 2.491 . S
O586 Dy575 2.403 . S
O586 C581 1.254 . S
O587 Dy572 2.310 . S
O587 Dy575 2.664 . S
O587 C581 1.268 . S
O588 Dy572 2.351 . S
O588 C591 1.249 . S
O589 Dy575 2.326 . S
O589 C591 1.267 . S
C590 O582 1.249 . S
C590 O583 1.267 . S
C591 O588 1.249 . S
C591 O589 1.267 . S
Dy592 O596 2.398 . S
Dy592 O597 2.491 . S
Dy592 O598 2.403 . S
Dy592 O599 2.664 . S
Dy592 O603 2.326 . S
Dy592 O607 2.310 . S
Dy592 O608 2.351 . S
C593 O604 1.185 . S
C593 O605 1.355 . S
C594 O596 1.185 . S
C594 O597 1.355 . S
Dy595 O599 2.310 . S
Dy595 O602 2.351 . S
Dy595 O604 2.398 . S
Dy595 O605 2.491 . S
Dy595 O606 2.403 . S
Dy595 O607 2.664 . S
Dy595 O609 2.326 . S
O596 Dy592 2.398 . S
O596 C594 1.185 . S
O597 Dy592 2.491 . S
O597 C594 1.355 . S
O598 Dy592 2.403 . S
O598 C600 1.254 . S
O599 Dy592 2.664 . S
O599 Dy595 2.310 . S
O599 C600 1.268 . S
C600 O598 1.254 . S
C600 O599 1.268 . S
C601 O606 1.254 . S
C601 O607 1.268 . S
O602 Dy595 2.351 . S
O602 C610 1.249 . S
O603 Dy592 2.326 . S
O603 C610 1.267 . S
O604 C593 1.185 . S
O604 Dy595 2.398 . S
O605 C593 1.355 . S
O605 Dy595 2.491 . S
O606 Dy595 2.403 . S
O606 C601 1.254 . S
O607 Dy592 2.310 . S
O607 Dy595 2.664 . S
O607 C601 1.268 . S
O608 Dy592 2.351 . S
O608 C611 1.249 . S
O609 Dy595 2.326 . S
O609 C611 1.267 . S
C610 O602 1.249 . S
C610 O603 1.267 . S
C611 O608 1.249 . S
C611 O609 1.267 . S
Dy612 O616 2.398 . S
Dy612 O617 2.491 1_556 S
Dy612 O618 2.403 . S
Dy612 O619 2.664 . S
Dy612 O623 2.326 . S
Dy612 O627 2.310 1_556 S
Dy612 O628 2.351 1_556 S
C613 O624 1.185 . S
C613 O625 1.355 1_554 S
C614 O616 1.185 . S
C614 O617 1.355 1_556 S
Dy615 O619 2.310 1_654 S
Dy615 O622 2.352 1_554 S
Dy615 O624 2.398 . S
Dy615 O625 2.491 1_554 S
Dy615 O626 2.403 . S
Dy615 O627 2.664 1_655 S
Dy615 O629 2.326 1_655 S
O616 Dy612 2.398 . S
O616 C614 1.185 . S
O617 Dy612 2.491 1_554 S
O617 C614 1.355 1_554 S
O618 Dy612 2.403 . S
O618 C620 1.254 . S
O619 Dy612 2.664 . S
O619 Dy615 2.310 1_456 S
O619 C620 1.268 . S
C620 O618 1.254 . S
C620 O619 1.268 . S
C621 O626 1.254 1_455 S
C621 O627 1.268 . S
O622 Dy615 2.352 1_556 S
O622 C630 1.248 1_655 S
O623 Dy612 2.326 . S
O623 C630 1.267 . S
O624 C613 1.185 . S
O624 Dy615 2.398 . S
O625 C613 1.355 1_556 S
O625 Dy615 2.491 1_556 S
O626 Dy615 2.403 . S
O626 C621 1.254 1_655 S
O627 Dy612 2.310 1_554 S
O627 Dy615 2.664 1_455 S
O627 C621 1.268 . S
O628 Dy612 2.351 1_554 S
O628 C631 1.249 . S
O629 Dy615 2.326 1_455 S
O629 C631 1.267 . S
C630 O622 1.248 1_455 S
C630 O623 1.267 . S
C631 O628 1.249 . S
C631 O629 1.267 . S
C101 C330 2.083 1_655 S
C57 C341 2.068 . S
C73 C370 1.252 . S
C373 C78 1.298 . S
C21 C411 1.790 . S
C414 C31 1.847 . S
C441 C49 1.801 . S
C0 C470 1.828 . S
C321 C218 1.932 1_455 S
C229 C333 1.111 . S
C361 C257 1.527 . S
C390 C164 1.515 . S
C216 C394 1.232 . S
C420 C231 1.706 . S
C433 C255 0.634 . S
C461 C166 2.016 . S
C313 C143 1.894 . S
C265 C480 1.971 1_554 S
C511 C299 1.869 . S
C530 C291 0.901 . S
C104 C453 1.826 . S
C117 C353 1.766 . S
C304 C541 1.646 . S
C570 C278 1.077 . S
C331 C60 2.145 . S
C560 C96 2.131 . S
C88 C371 1.250 . S
C65 C534 1.453 . S
C410 C10 1.803 . S
C44 C493 1.784 . S
C440 C34 1.609 . S
C591 C13 2.000 . S
C320 C138 2.110 1_565 S
C554 C296 1.305 . S
C112 C360 1.562 . S
C270 C551 1.618 . S
C140 C393 1.315 1_565 S
C501 C294 1.803 . S
C114 C434 0.852 1_545 S
C268 C580 2.036 . S
C169 C314 2.268 1_554 S
C161 C481 1.975 . S
C234 C430 2.128 . S
C226 C531 0.731 . S
C574 C247 2.288 . S
C195 C354 2.120 . S
C380 C239 1.745 . S
C351 C187 1.215 . S
C75 C610 2.085 . S
C561 C83 2.068 . S
C99 C630 1.252 . S
C52 C533 1.298 . S
C47 C491 1.790 . S
C494 C5 1.847 . S
C521 C23 1.811 . S
C590 C26 1.828 . S
C601 C244 1.932 . S
C177 C553 1.111 . S
C621 C192 1.527 . S
C550 C203 1.515 . S
C474 C242 1.232 . S
C179 C500 1.706 . S
C513 C190 0.634 . S
C205 C581 2.016 . S
C593 C286 1.894 . S
C122 C400 1.971 . S
C431 C130 1.869 . S
C450 C148 0.901 . S
C573 C273 1.826 . S
C260 C613 1.766 . S
C381 C135 1.647 . S
C350 C109 1.077 . S
C86 C611 2.145 . S
C340 C70 2.130 . S
C62 C631 1.250 . S
C91 C374 1.451 . S
C36 C490 1.803 . S
C413 C18 1.785 . S
C8 C520 1.609 . S
C39 C471 2.000 . S
C600 C307 2.110 . S
C153 C334 1.305 . S
C620 C281 1.562 1_455 S
C127 C391 1.618 . S
C309 C473 1.315 . S
C421 C151 1.804 . S
C283 C514 0.852 . S
C460 C125 2.036 . S
C594 C221 2.268 . S
C401 C200 1.981 . S
C208 C510 2.128 . S
C451 C174 0.730 . S
C182 C454 2.288 . S
C156 C614 2.120 1_554 S
C540 C213 1.745 . S
C571 C252 1.215 . S
