# Generated by pormake.
# Topology zzz, (3,6)-cn, num edge types: 1
# Building blocks:
#     Node 0, Type 0, BuildingBlock: OLANEW_clean_sbu_2, # of connection points: 3
#     Node 1, Type 0, BuildingBlock: OLANEW_clean_sbu_2, # of connection points: 3
#     Node 2, Type 0, BuildingBlock: OLANEW_clean_sbu_2, # of connection points: 3
#     Node 3, Type 0, BuildingBlock: OLANEW_clean_sbu_2, # of connection points: 3
#     Node 4, Type 0, BuildingBlock: OLANEW_clean_sbu_2, # of connection points: 3
#     Node 5, Type 0, BuildingBlock: OLANEW_clean_sbu_2, # of connection points: 3
#     Node 6, Type 0, BuildingBlock: OLANEW_clean_sbu_2, # of connection points: 3
#     Node 7, Type 0, BuildingBlock: OLANEW_clean_sbu_2, # of connection points: 3
#     Node 8, Type 1, BuildingBlock: INOVEN_clean_sbu_0, # of connection points: 6
#     Node 9, Type 1, BuildingBlock: INOVEN_clean_sbu_0, # of connection points: 6
#     Node 10, Type 1, BuildingBlock: INOVEN_clean_sbu_0, # of connection points: 6
#     Node 11, Type 1, BuildingBlock: INOVEN_clean_sbu_0, # of connection points: 6
#     Edge 12, Type (0, 1), BuildingBlock: UVAHIK_clean_linker_0, # of connection points: 2
#     Edge 13, Type (0, 1), BuildingBlock: UVAHIK_clean_linker_0, # of connection points: 2
#     Edge 14, Type (0, 1), BuildingBlock: UVAHIK_clean_linker_0, # of connection points: 2
#     Edge 15, Type (0, 1), BuildingBlock: UVAHIK_clean_linker_0, # of connection points: 2
#     Edge 16, Type (0, 1), BuildingBlock: UVAHIK_clean_linker_0, # of connection points: 2
#     Edge 17, Type (0, 1), BuildingBlock: UVAHIK_clean_linker_0, # of connection points: 2
#     Edge 18, Type (0, 1), BuildingBlock: UVAHIK_clean_linker_0, # of connection points: 2
#     Edge 19, Type (0, 1), BuildingBlock: UVAHIK_clean_linker_0, # of connection points: 2
#     Edge 20, Type (0, 1), BuildingBlock: UVAHIK_clean_linker_0, # of connection points: 2
#     Edge 21, Type (0, 1), BuildingBlock: UVAHIK_clean_linker_0, # of connection points: 2
#     Edge 22, Type (0, 1), BuildingBlock: UVAHIK_clean_linker_0, # of connection points: 2
#     Edge 23, Type (0, 1), BuildingBlock: UVAHIK_clean_linker_0, # of connection points: 2
#     Edge 24, Type (0, 1), BuildingBlock: UVAHIK_clean_linker_0, # of connection points: 2
#     Edge 25, Type (0, 1), BuildingBlock: UVAHIK_clean_linker_0, # of connection points: 2
#     Edge 26, Type (0, 1), BuildingBlock: UVAHIK_clean_linker_0, # of connection points: 2
#     Edge 27, Type (0, 1), BuildingBlock: UVAHIK_clean_linker_0, # of connection points: 2
#     Edge 28, Type (0, 1), BuildingBlock: UVAHIK_clean_linker_0, # of connection points: 2
#     Edge 29, Type (0, 1), BuildingBlock: UVAHIK_clean_linker_0, # of connection points: 2
#     Edge 30, Type (0, 1), BuildingBlock: UVAHIK_clean_linker_0, # of connection points: 2
#     Edge 31, Type (0, 1), BuildingBlock: UVAHIK_clean_linker_0, # of connection points: 2
#     Edge 32, Type (0, 1), BuildingBlock: UVAHIK_clean_linker_0, # of connection points: 2
#     Edge 33, Type (0, 1), BuildingBlock: UVAHIK_clean_linker_0, # of connection points: 2
#     Edge 34, Type (0, 1), BuildingBlock: UVAHIK_clean_linker_0, # of connection points: 2
#     Edge 35, Type (0, 1), BuildingBlock: UVAHIK_clean_linker_0, # of connection points: 2
# Relax obj value: 0.211
# Max RMSD: 0.175
# Mean RMSD: 0.166
data_MOF--net-zzz--node1-OLANEW_clean_sbu_2--node2-INOVEN_clean_sbu_0--edge1-UVAHIK_clean_linker_0
_symmetry_space_group_name_H-M    P1
_symmetry_Int_Tables_number       1
_symmetry_cell_setting            triclinic
loop_
_symmetry_equiv_pos_as_xyz
'x, y, z'
_cell_length_a     71.513961
_cell_length_b     71.830732
_cell_length_c     19.339632
_cell_angle_alpha  90.025725
_cell_angle_beta   89.993981
_cell_angle_gamma 90.047419
loop_
_atom_site_label
_atom_site_type_symbol
_atom_site_fract_x
_atom_site_fract_y
_atom_site_fract_z
_atom_type_partial_charge
O0 O 0.74544 0.53488 0.23528 0.0
Cd1 Cd 0.71468 0.54387 0.27979 0.0
O2 O 0.75074 0.51665 0.324 0.0
Cd3 Cd 0.76515 0.49487 0.38277 0.0
O4 O 0.76704 0.46791 0.44515 0.0
C5 C 0.77915 0.46343 0.49106 0.0
O6 O 0.76656 0.46744 0.44474 0.0
C7 C 0.75617 0.52366 0.26706 0.0
C8 C 0.68562 0.53624 0.18724 0.0
O9 O 0.69515 0.55131 0.18279 0.0
O10 O 0.68989 0.52469 0.23522 0.0
O11 O 0.9496 0.73294 0.21812 0.0
Cd12 Cd 0.93968 0.70451 0.27654 0.0
O13 O 0.97476 0.73307 0.28273 0.0
Cd14 Cd 0.00088 0.74507 0.32011 0.0
O15 O 0.01494 0.7683 0.3695 0.0
C16 C 0.02253 0.78087 0.33287 0.0
O17 O 0.02373 0.77842 0.26568 0.0
C18 C 0.96477 0.74072 0.23631 0.0
C19 C 0.94835 0.67356 0.19661 0.0
O20 O 0.93284 0.68224 0.18878 0.0
O21 O 0.95971 0.67942 0.24306 0.0
O22 O 0.7602 0.96928 0.22451 0.0
Cd23 Cd 0.79066 0.95839 0.26586 0.0
O24 O 0.75603 0.98627 0.31742 0.0
Cd25 Cd 0.74278 0.00772 0.38159 0.0
O26 O 0.74222 0.03387 0.44901 0.0
C27 C 0.73033 0.03855 0.49549 0.0
O28 O 0.74271 0.0343 0.4487 0.0
C29 C 0.75009 0.98042 0.25937 0.0
C30 C 0.81972 0.96501 0.17224 0.0
O31 O 0.80946 0.95043 0.16737 0.0
O32 O 0.81617 0.97655 0.22107 0.0
O33 O 0.55251 0.77301 0.19522 0.0
Cd34 Cd 0.56125 0.80063 0.26111 0.0
O35 O 0.5265 0.77166 0.25478 0.0
Cd36 Cd 0.50324 0.75569 0.29711 0.0
O37 O 0.49588 0.72891 0.34185 0.0
C38 C 0.50842 0.71671 0.33158 0.0
O39 O 0.52361 0.72144 0.29776 0.0
C40 C 0.53716 0.76487 0.20853 0.0
C41 C 0.55397 0.83235 0.18409 0.0
O42 O 0.56961 0.82376 0.17867 0.0
O43 O 0.54185 0.82607 0.227 0.0
O44 O 0.26585 0.46304 0.09796 0.0
Cd45 Cd 0.29682 0.4519 0.06349 0.0
O46 O 0.26136 0.47705 -0.00118 0.0
Cd47 Cd 0.24873 0.49596 0.92315 0.0
O48 O 0.25217 0.51941 0.84393 0.0
C49 C 0.24073 0.52781 0.80342 0.0
O50 O 0.25264 0.51955 0.84389 0.0
C51 C 0.25549 0.47286 0.05893 0.0
C52 C 0.32429 0.46006 0.16196 0.0
O53 O 0.32146 0.47089 0.11036 0.0
O54 O 0.31411 0.44543 0.16709 0.0
O55 O 0.98803 0.27139 0.0839 0.0
Cd56 Cd 0.98755 0.30105 0.02313 0.0
O57 O 0.0182 0.26985 0.06545 0.0
Cd58 Cd 0.04385 0.2538 0.05362 0.0
O59 O 0.04927 0.22644 0.01067 0.0
C60 C 0.03529 0.22057 0.97654 0.0
O61 O 0.02059 0.23142 0.97054 0.0
C62 C 0.00334 0.2626 0.08983 0.0
C63 C 0.99311 0.33008 0.1155 0.0
O64 O 0.97669 0.3237 0.10338 0.0
O65 O 0.00695 0.32282 0.08315 0.0
O66 O 0.24006 0.99367 0.06324 0.0
Cd67 Cd 0.20811 0.98875 0.02205 0.0
O68 O 0.2458 0.01241 0.97648 0.0
Cd69 Cd 0.26106 0.03356 0.91753 0.0
O70 O 0.26312 0.06025 0.85374 0.0
C71 C 0.27516 0.06432 0.80701 0.0
O72 O 0.26265 0.06074 0.85415 0.0
C73 C 0.25133 0.0043 0.03121 0.0
C74 C 0.18177 0.99399 0.1269 0.0
O75 O 0.18949 0.9781 0.11717 0.0
O76 O 0.18652 0.00744 0.08703 0.0
O77 O 0.54005 0.23133 0.08343 0.0
Cd78 Cd 0.54444 0.20086 0.03088 0.0
O79 O 0.51221 0.2324 0.0364 0.0
Cd80 Cd 0.48528 0.24527 0.01443 0.0
O81 O 0.47005 0.26897 0.97393 0.0
C82 C 0.46449 0.28162 0.01488 0.0
O83 O 0.46612 0.27899 0.08185 0.0
C84 C 0.5248 0.23997 0.07353 0.0
C85 C 0.53165 0.17394 0.12246 0.0
O86 O 0.54853 0.17991 0.12498 0.0
O87 O 0.52086 0.18045 0.07543 0.0
Gd88 Gd 0.01042 0.99193 0.73284 0.0
Gd89 Gd 0.99589 0.00744 0.59553 0.0
C90 C 0.99868 0.96364 0.60816 0.0
C91 C 0.01426 0.97436 0.84872 0.0
C92 C 0.01134 0.95538 0.87537 0.0
C93 C 0.02283 0.94874 0.92851 0.0
C94 C 0.99712 0.94389 0.84909 0.0
C95 C 0.00564 0.91943 0.93065 0.0
C96 C 0.99427 0.9261 0.87659 0.0
C97 C 0.02005 0.93093 0.95584 0.0
C98 C 0.03708 0.00086 0.63998 0.0
C99 C 0.01112 0.03544 0.71597 0.0
C100 C 0.98974 0.02484 0.4803 0.0
C101 C 0.99231 0.04356 0.45113 0.0
C102 C 0.98837 0.04665 0.38114 0.0
C103 C 0.99854 0.05839 0.49229 0.0
C104 C 0.99676 0.07938 0.39349 0.0
C105 C 0.00078 0.07614 0.46375 0.0
C106 C 0.99056 0.06439 0.35252 0.0
C107 C 0.9696 -0.00232 0.68869 0.0
O108 O 0.00041 0.9662 0.67572 0.0
O109 O 0.99861 0.97772 0.56433 0.0
O110 O 0.0279 0.97648 0.80435 0.0
O111 O 0.99922 0.98372 0.83208 0.0
O112 O 0.03919 0.00291 0.7063 0.0
O113 O 0.02162 0.99326 0.62694 0.0
O114 O 0.0085 0.03252 0.64906 0.0
O115 O 0.00994 0.0219 0.76177 0.0
O116 O 0.97732 0.0233 0.52961 0.0
O117 O 0.005 0.01541 0.49282 0.0
O118 O 0.96789 0.9948 0.62275 0.0
O119 O 0.98465 0.00608 0.70144 0.0
H120 H 0.03395 0.95737 0.94912 0.0
H121 H 0.98811 0.94874 0.80784 0.0
H122 H 0.98291 0.91774 0.85637 0.0
H123 H 0.02929 0.92616 -0.00352 0.0
H124 H 0.98347 0.03536 0.34868 0.0
H125 H 0.00159 0.05624 0.54644 0.0
H126 H 0.00578 0.0873 0.49661 0.0
H127 H 0.98706 0.06643 0.29857 0.0
Gd128 Gd 0.50467 0.00833 0.72185 0.0
Gd129 Gd 0.49612 0.99294 0.57652 0.0
C130 C 0.53889 -0.00281 0.61635 0.0
C131 C 0.51719 0.01365 0.84571 0.0
C132 C 0.5354 0.01222 0.88047 0.0
C133 C 0.53927 0.02364 0.93741 0.0
C134 C 0.54909 -0.00025 0.85682 0.0
C135 C 0.5704 0.01017 0.94716 0.0
C136 C 0.56643 -0.00127 0.88988 0.0
C137 C 0.55661 0.02263 0.97055 0.0
C138 C 0.49761 0.03404 0.62413 0.0
C139 C 0.4622 0.00487 0.68139 0.0
C140 C 0.48357 0.98699 0.45306 0.0
C141 C 0.46621 0.99115 0.41567 0.0
C142 C 0.46197 0.98148 0.35476 0.0
C143 C 0.45366 0.00452 0.4409 0.0
C144 C 0.43251 -0.00175 0.34512 0.0
C145 C 0.43691 0.008 0.40608 0.0
C146 C 0.44527 0.98503 0.31957 0.0
C147 C 0.50375 0.9675 0.67421 0.0
O148 O 0.5332 -0.0001 0.68086 0.0
O149 O 0.52702 0.99592 0.56419 0.0
O150 O 0.5156 0.02702 0.80018 0.0
O151 O 0.50968 -0.00203 0.82512 0.0
O152 O 0.49258 0.03596 0.6883 0.0
O153 O 0.50693 0.01936 0.61624 0.0
O154 O 0.46804 0.00324 0.61656 0.0
O155 O 0.47393 0.00468 0.73402 0.0
O156 O 0.48214 0.97483 0.50317 0.0
O157 O 0.49388 0.00138 0.46957 0.0
O158 O 0.50905 0.96573 0.61033 0.0
O159 O 0.49402 0.98191 0.68179 0.0
H160 H 0.52889 0.03341 0.95607 0.0
H161 H 0.54637 0.99078 0.81292 0.0
H162 H 0.57665 0.98882 0.87107 0.0
H163 H 0.5593 0.03181 0.01388 0.0
H164 H 0.47151 0.97109 0.33469 0.0
H165 H 0.4568 0.01226 0.48753 0.0
H166 H 0.42746 0.01841 0.42659 0.0
H167 H 0.44217 0.97716 0.27318 0.0
Gd168 Gd 0.49563 0.5065 0.75488 0.0
Gd169 Gd 0.50872 0.49005 0.61669 0.0
C170 C 0.50837 0.53406 0.62942 0.0
C171 C 0.49339 0.52473 0.86986 0.0
C172 C 0.49588 0.54411 0.89337 0.0
C173 C 0.48827 0.55919 0.85664 0.0
C174 C 0.50633 0.54758 0.95334 0.0
C175 C 0.50151 0.58094 0.94009 0.0
C176 C 0.50917 0.5658 0.97641 0.0
C177 C 0.49098 0.57744 0.88002 0.0
C178 C 0.4683 0.49833 0.66411 0.0
C179 C 0.49402 0.46285 0.74112 0.0
C180 C 0.51281 0.473 0.49952 0.0
C181 C 0.51077 0.45449 0.46809 0.0
C182 C 0.51319 0.45256 0.3966 0.0
C183 C 0.50689 0.43871 0.50827 0.0
C184 C 0.50836 0.41907 0.40539 0.0
C185 C 0.50567 0.42114 0.47719 0.0
C186 C 0.51202 0.43504 0.36549 0.0
C187 C 0.53594 0.4987 0.70764 0.0
O188 O 0.50586 0.53179 0.69666 0.0
O189 O 0.50806 0.51996 0.58564 0.0
O190 O 0.4789 0.52117 0.83057 0.0
O191 O 0.50858 0.51615 0.84967 0.0
O192 O 0.46648 0.49625 0.73053 0.0
O193 O 0.48389 0.50549 0.64974 0.0
O194 O 0.49656 0.46515 0.67369 0.0
O195 O 0.49567 0.47674 0.78535 0.0
O196 O 0.52625 0.47493 0.54483 0.0
O197 O 0.49737 0.48145 0.51774 0.0
O198 O 0.53753 0.50115 0.64143 0.0
O199 O 0.52053 0.49112 0.72178 0.0
H200 H 0.4803 0.5569 0.80977 0.0
H201 H 0.51234 0.53616 0.98236 0.0
H202 H 0.51719 0.56804 0.0232 0.0
H203 H 0.48509 0.58884 0.85054 0.0
H204 H 0.51627 0.46461 0.36487 0.0
H205 H 0.505 0.43998 0.56359 0.0
H206 H 0.50263 0.40918 0.50937 0.0
H207 H 0.51447 0.43397 0.31037 0.0
Gd208 Gd 0.00218 0.49959 0.72495 0.0
Gd209 Gd 0.01071 0.51654 0.582 0.0
C210 C 0.968 0.5117 0.62078 0.0
C211 C 0.98957 0.49315 0.84796 0.0
C212 C 0.97155 0.49537 0.88354 0.0
C213 C 0.96717 0.48383 0.93961 0.0
C214 C 0.95855 0.50872 0.86146 0.0
C215 C 0.93689 0.49898 0.95168 0.0
C216 C 0.94137 0.51052 0.89526 0.0
C217 C 0.94999 0.4856 0.97345 0.0
C218 C 0.00918 0.47489 0.62351 0.0
C219 C 0.04465 0.50317 0.68423 0.0
C220 C 0.02366 0.52404 0.46032 0.0
C221 C 0.04127 0.52019 0.42394 0.0
C222 C 0.04673 0.53137 0.36813 0.0
C223 C 0.05299 0.5057 0.44586 0.0
C224 C 0.07573 0.51386 0.35725 0.0
C225 C 0.07008 0.50258 0.41293 0.0
C226 C 0.0638 0.52821 0.33483 0.0
C227 C 0.00274 0.54092 0.68312 0.0
O228 O 0.97371 0.50863 0.68505 0.0
O229 O 0.97987 0.51333 0.56875 0.0
O230 O 0.9901 0.48048 0.7994 0.0
O231 O 0.99818 0.50855 0.83064 0.0
O232 O 0.01412 0.47225 0.68742 0.0
O233 O -5e-05 0.4897 0.61781 0.0
O234 O 0.03871 0.50566 0.61997 0.0
O235 O 0.03301 0.50268 0.73716 0.0
O236 O 0.02487 0.53558 0.51253 0.0
O237 O 0.01313 0.50956 0.47359 0.0
O238 O 0.99753 0.54326 0.61942 0.0
O239 O 0.01261 0.52653 0.68893 0.0
H240 H 0.97706 0.47344 0.95727 0.0
H241 H 0.96164 0.51773 0.81801 0.0
H242 H 0.9315 0.52078 0.87658 0.0
H243 H 0.94705 0.47664 0.01716 0.0
H244 H 0.03787 0.54267 0.35074 0.0
H245 H 0.04895 0.49682 0.48858 0.0
H246 H 0.07883 0.49126 0.43081 0.0
H247 H 0.06784 0.53723 0.29252 0.0
C248 C 0.1639 0.98231 0.22955 0.0
C249 C 0.16768 0.99665 0.18216 0.0
C250 C 0.15042 0.98468 0.28112 0.0
C251 C 0.10812 0.01132 0.32234 0.0
H252 H 0.11697 0.99341 0.50867 0.0
C253 C 0.04895 -0.00168 0.51907 0.0
C254 C 0.05206 0.00332 0.58832 0.0
C255 C 0.06333 -0.00039 0.4705 0.0
C256 C 0.11435 -0.00133 0.45708 0.0
H257 H 0.16034 0.02481 0.15205 0.0
H258 H 0.13671 0.0289 0.24202 0.0
H259 H 0.14194 0.99164 0.42277 0.0
H260 H 0.07252 0.01389 0.66102 0.0
H261 H 0.09782 0.01605 0.57598 0.0
H262 H 0.08047 0.01817 0.35649 0.0
C263 C 0.14415 0.01579 0.23902 0.0
C264 C 0.12858 -0.00253 0.40772 0.0
C265 C 0.15774 0.01347 0.1877 0.0
C266 C 0.06976 0.00991 0.60795 0.0
C267 C 0.08424 0.01108 0.5594 0.0
C268 C 0.09384 0.01239 0.37157 0.0
C269 C 0.14033 0.00141 0.28622 0.0
C270 C 0.12556 0.00361 0.33963 0.0
C271 C 0.0812 0.00579 0.49024 0.0
C272 C 0.09674 0.0059 0.4393 0.0
H273 H 0.1713 0.96918 0.22672 0.0
H274 H 0.14763 0.97326 0.31619 0.0
H275 H 0.10532 0.01606 0.27019 0.0
H276 H 0.03549 0.993 0.5026 0.0
H277 H 0.06061 0.9952 0.41788 0.0
C278 C 0.50715 0.1518 0.16552 0.0
C279 C 0.52478 0.16023 0.17339 0.0
C280 C 0.50071 0.13894 0.21431 0.0
C281 C 0.50731 0.12394 0.39451 0.0
H282 H 0.4892 0.07597 0.33114 0.0
C283 C 0.48692 0.06546 0.58485 0.0
C284 C 0.49589 0.04852 0.57064 0.0
C285 C 0.4867 0.07966 0.53531 0.0
C286 C 0.49409 0.08936 0.34952 0.0
H287 H 0.54938 0.16192 0.23878 0.0
H288 H 0.5381 0.13957 0.32378 0.0
H289 H 0.49644 0.1003 0.24685 0.0
H290 H 0.51138 0.03295 0.49357 0.0
H291 H 0.51072 0.05748 0.407 0.0
H292 H 0.50561 0.11282 0.49696 0.0
C293 C 0.52924 0.14297 0.28017 0.0
C294 C 0.49811 0.1033 0.3014 0.0
C295 C 0.53576 0.15565 0.23116 0.0
C296 C 0.5041 0.04576 0.50554 0.0
C297 C 0.50371 0.05981 0.4559 0.0
C298 C 0.50314 0.11007 0.44265 0.0
C299 C 0.51167 0.13447 0.27222 0.0
C300 C 0.50523 0.12054 0.32337 0.0
C301 C 0.49529 0.07701 0.47064 0.0
C302 C 0.49695 0.09249 0.42049 0.0
H303 H 0.49837 0.15507 0.12156 0.0
H304 H 0.48709 0.13261 0.20709 0.0
H305 H 0.51258 0.1372 0.41284 0.0
H306 H 0.48046 0.06791 0.6347 0.0
H307 H 0.48006 0.09278 0.54783 0.0
C308 C 0.3395 0.45447 0.27683 0.0
C309 C 0.33895 0.46421 0.21384 0.0
C310 C 0.35339 0.45829 0.32571 0.0
C311 C 0.4009 0.47654 0.34325 0.0
H312 H 0.38759 0.48417 0.53552 0.0
C313 C 0.4552 0.50095 0.54487 0.0
C314 C 0.45369 0.49411 0.61261 0.0
C315 C 0.44123 0.49726 0.49622 0.0
C316 C 0.39164 0.48178 0.48231 0.0
H317 H 0.3526 0.48556 0.15262 0.0
H318 H 0.37706 0.49201 0.23772 0.0
H319 H 0.36318 0.47773 0.45084 0.0
H320 H 0.43668 0.47777 0.68251 0.0
H321 H 0.41253 0.47077 0.59719 0.0
H322 H 0.42936 0.48009 0.37445 0.0
C323 C 0.36668 0.48146 0.2492 0.0
C324 C 0.3776 0.47818 0.43376 0.0
C325 C 0.35263 0.47782 0.2007 0.0
C326 C 0.43808 0.48333 0.63071 0.0
C327 C 0.4242 0.47944 0.58183 0.0
C328 C 0.41497 0.4799 0.3919 0.0
C329 C 0.36718 0.47175 0.31224 0.0
C330 C 0.38209 0.47558 0.36373 0.0
C331 C 0.42552 0.48645 0.51397 0.0
C332 C 0.41054 0.48263 0.46213 0.0
H333 H 0.32915 0.44391 0.28856 0.0
H334 H 0.35352 0.4505 0.37366 0.0
H335 H 0.40478 0.47435 0.2897 0.0
H336 H 0.46706 0.50941 0.5297 0.0
H337 H 0.44263 0.50319 0.44501 0.0
C338 C 0.01351 0.35389 0.17284 0.0
C339 C 0.99597 0.34525 0.16595 0.0
C340 C 0.01611 0.36823 0.22075 0.0
C341 C 0.98956 0.40262 0.32399 0.0
H342 H 0.03547 0.40622 0.42983 0.0
C343 C 0.0026 0.46459 0.50326 0.0
C344 C 0.01046 0.46086 0.56824 0.0
C345 C 0.0025 0.45101 0.45183 0.0
C346 C 0.02252 0.40532 0.40101 0.0
H347 H 0.9675 0.34464 0.20457 0.0
H348 H 0.97212 0.36929 0.28901 0.0
H349 H 0.03161 0.38108 0.34613 0.0
H350 H 0.02472 0.4402 0.63033 0.0
H351 H 0.02402 0.41609 0.54101 0.0
H352 H 0.9801 0.4263 0.38048 0.0
C353 C 0.98378 0.36534 0.25639 0.0
C354 C 0.0204 0.39105 0.35242 0.0
C355 C 0.98114 0.35113 0.20821 0.0
C356 C 0.0186 0.44341 0.58052 0.0
C357 C 0.0183 0.42968 0.52919 0.0
C358 C 0.99162 0.41675 0.37276 0.0
C359 C 0.00126 0.37414 0.26302 0.0
C360 C 0.00384 0.3895 0.31358 0.0
C361 C 0.00996 0.43324 0.46461 0.0
C362 C 0.00811 0.4183 0.4119 0.0
H363 H 0.0252 0.34968 0.14083 0.0
H364 H 0.02969 0.37487 0.22392 0.0
H365 H 0.97673 0.40201 0.2943 0.0
H366 H 0.99609 0.47786 0.49252 0.0
H367 H 0.99631 0.45437 0.4023 0.0
C368 C 0.84881 0.98205 0.13696 0.0
C369 C 0.83533 0.9683 0.12335 0.0
C370 C 0.86375 0.98491 0.09145 0.0
C371 C 0.88952 0.96227 0.94633 0.0
H372 H 0.90814 0.0123 0.91557 0.0
C373 C 0.9399 0.98191 0.72333 0.0
C374 C 0.95507 0.99344 0.74051 0.0
C375 C 0.92582 0.97833 0.77171 0.0
C376 C 0.90319 -0.00177 0.92414 0.0
H377 H 0.82678 0.94694 0.05069 0.0
H378 H 0.85239 0.9523 0.97021 0.0
H379 H 0.88225 0.00732 -0.00455 0.0
H380 H 0.96754 0.01017 0.82159 0.0
H381 H 0.94276 0.00411 0.90596 0.0
H382 H 0.9102 0.95336 0.87324 0.0
C383 C 0.85181 0.96057 0.01697 0.0
C384 C 0.88838 0.99534 0.97013 0.0
C385 C 0.83701 0.95757 0.06291 0.0
C386 C 0.95599 0.00122 0.80706 0.0
C387 C 0.94178 -0.00216 0.85515 0.0
C388 C 0.90417 0.96521 0.8997 0.0
C389 C 0.86545 0.97422 0.03072 0.0
C390 C 0.88132 0.97731 0.98191 0.0
C391 C 0.92652 0.98641 0.83788 0.0
C392 C 0.91116 0.98322 0.88816 0.0
H393 H 0.848 0.99047 0.18335 0.0
H394 H 0.87411 0.99533 0.10454 0.0
H395 H 0.88476 0.94815 0.95496 0.0
H396 H 0.93889 0.97572 0.67239 0.0
H397 H 0.91415 0.96957 0.75684 0.0
C398 C 0.56147 0.85302 0.08408 0.0
C399 C 0.54978 0.8486 0.14005 0.0
C400 C 0.5569 0.86756 0.03939 0.0
C401 C 0.51633 0.89513 0.98081 0.0
H402 H 0.55465 0.92501 0.89219 0.0
C403 C 0.49953 0.95558 0.79405 0.0
C404 C 0.50922 0.95507 0.73098 0.0
C405 C 0.50472 0.94383 0.84819 0.0
C406 C 0.54384 0.91671 0.9165 0.0
H407 H 0.52449 0.85638 0.19477 0.0
H408 H 0.51676 0.88213 0.11784 0.0
H409 H 0.56344 0.90279 0.9819 0.0
H410 H 0.532 0.94221 0.67475 0.0
H411 H 0.54122 0.92169 0.76981 0.0
H412 H 0.49675 0.90922 0.91549 0.0
C413 C 0.52922 0.87406 0.10737 0.0
C414 C 0.54884 0.90395 0.96768 0.0
C415 C 0.53371 0.85937 0.15171 0.0
C416 C 0.52428 0.94278 0.72291 0.0
C417 C 0.52963 0.93118 0.77735 0.0
C418 C 0.51132 0.90804 0.9302 0.0
C419 C 0.54062 0.87815 0.05006 0.0
C420 C 0.53518 0.89279 -0.0003 0.0
C421 C 0.51983 0.93154 0.84031 0.0
C422 C 0.52506 0.91874 0.8969 0.0
H423 H 0.57392 0.84491 0.07354 0.0
H424 H 0.56585 0.87009 -0.00478 0.0
H425 H 0.50547 0.88657 0.00347 0.0
H426 H 0.48783 0.96496 0.80134 0.0
H427 H 0.49701 0.94443 0.89636 0.0
C428 C 0.66801 0.5429 0.07804 0.0
C429 C 0.67006 0.53238 0.13876 0.0
C430 C 0.65328 0.53933 0.03236 0.0
C431 C 0.61761 0.50337 0.98752 0.0
H432 H 0.59481 0.54437 0.88809 0.0
C433 C 0.5498 0.49572 0.82585 0.0
C434 C 0.55064 0.50307 0.75864 0.0
C435 C 0.56406 0.49945 0.87342 0.0
C436 C 0.60112 0.53279 0.9153 0.0
H437 H 0.65815 0.50999 0.19963 0.0
H438 H 0.63211 0.50415 0.12139 0.0
H439 H 0.6201 0.55056 0.96947 0.0
H440 H 0.56676 0.5203 0.68864 0.0
H441 H 0.59154 0.5271 0.77223 0.0
H442 H 0.5982 0.48571 0.93415 0.0
C443 C 0.64214 0.51484 0.10778 0.0
C444 C 0.61569 0.53629 0.96172 0.0
C445 C 0.65702 0.51825 0.15298 0.0
C446 C 0.5658 0.51444 0.74013 0.0
C447 C 0.57991 0.5184 0.78799 0.0
C448 C 0.60285 0.49992 0.94181 0.0
C449 C 0.64007 0.52531 0.04671 0.0
C450 C 0.62425 0.52161 -0.00182 0.0
C451 C 0.57926 0.51082 0.85494 0.0
C452 C 0.59455 0.51457 0.90492 0.0
H453 H 0.6779 0.5538 0.06536 0.0
H454 H 0.65242 0.54745 0.98532 0.0
H455 H 0.62401 0.49165 0.0135 0.0
H456 H 0.53825 0.48689 0.84138 0.0
H457 H 0.56314 0.49355 0.92485 0.0
C458 C 0.96922 0.64687 0.16512 0.0
C459 C 0.9532 0.65761 0.15187 0.0
C460 C 0.97419 0.63231 0.12083 0.0
C461 C 0.95574 0.60245 0.97888 0.0
H462 H 0.00817 0.5973 0.93135 0.0
C463 C 0.9817 0.56489 0.73382 0.0
C464 C 0.99687 0.55271 0.74131 0.0
C465 C 0.97601 0.57603 0.78911 0.0
C466 C 0.99351 0.59842 0.94482 0.0
H467 H 0.92973 0.66139 0.08227 0.0
H468 H 0.93863 0.63641 0.0042 0.0
H469 H 0.99883 0.6198 0.01916 0.0
H470 H 0.0181 0.54253 0.8117 0.0
H471 H 0.0083 0.56227 0.90844 0.0
H472 H 0.95045 0.58151 0.9024 0.0
C473 C 0.94715 0.63889 0.04955 0.0
C474 C 0.98814 0.61126 -0.00472 0.0
C475 C 0.94211 0.65332 0.0941 0.0
C476 C 0.00631 0.55182 0.80485 0.0
C477 C 0.00077 0.56312 0.85995 0.0
C478 C 0.96111 0.58975 0.92794 0.0
C479 C 0.96332 0.62828 0.06206 0.0
C480 C 0.96916 0.61361 0.01229 0.0
C481 C 0.98557 0.57533 0.85254 0.0
C482 C 0.98001 0.58779 0.90987 0.0
H483 H 0.97799 0.64977 0.20952 0.0
H484 H 0.98657 0.62424 0.13262 0.0
H485 H 0.94105 0.60361 0.9917 0.0
H486 H 0.97417 0.56576 0.68532 0.0
H487 H 0.96437 0.58547 0.78185 0.0
C488 C 0.9874 0.23239 0.11515 0.0
C489 C 0.0034 0.24368 0.12013 0.0
C490 C 0.98721 0.21456 0.14404 0.0
C491 C 0.01781 0.1766 0.20326 0.0
H492 H 0.97425 0.16132 0.3085 0.0
C493 C 0.00596 0.1008 0.2963 0.0
C494 C 0.99867 0.09834 0.36325 0.0
C495 C 0.00719 0.11857 0.26709 0.0
C496 C 0.98658 0.16541 0.27968 0.0
H497 H 0.03136 0.24547 0.16278 0.0
H498 H 0.03126 0.21411 0.2114 0.0
H499 H 0.97515 0.19222 0.25641 0.0
H500 H 0.98702 0.11272 0.45198 0.0
H501 H 0.98941 0.14371 0.40141 0.0
H502 H 0.02929 0.14979 0.22699 0.0
C503 C 0.019 0.21893 0.18383 0.0
C504 C 0.987 0.18304 0.24921 0.0
C505 C 0.01913 0.23684 0.15543 0.0
C506 C 0.99285 0.11411 0.40056 0.0
C507 C 0.99403 0.13186 0.37128 0.0
C508 C 0.01734 0.15889 0.23339 0.0
C509 C 0.00301 0.20763 0.17867 0.0
C510 C 0.00262 0.18884 0.2107 0.0
C511 C 0.00109 0.13429 0.30403 0.0
C512 C 0.00172 0.15311 0.27209 0.0
H513 H 0.97504 0.23729 0.08839 0.0
H514 H 0.97473 0.20613 0.13877 0.0
H515 H 0.02998 0.18063 0.17344 0.0
H516 H 0.01077 0.08898 0.26642 0.0
H517 H 0.01257 0.11995 0.21498 0.0
C518 C 0.2734 0.00617 0.13056 0.0
C519 C 0.27032 0.00731 0.05899 0.0
C520 C 0.29143 0.00787 0.15748 0.0
C521 C 0.34034 0.00036 0.11205 0.0
H522 H 0.34998 0.02815 0.28029 0.0
C523 C 0.41379 0.00303 0.23668 0.0
C524 C 0.41449 0.00157 0.30909 0.0
C525 C 0.39673 0.00573 0.20284 0.0
C526 C 0.3475 0.02019 0.23361 0.0
H527 H 0.28372 0.0107 0.95928 0.0
H528 H 0.31532 0.01383 0.00648 0.0
H529 H 0.31915 0.02959 0.22671 0.0
H530 H 0.39785 0.00163 0.40277 0.0
H531 H 0.36809 0.00605 0.34394 0.0
H532 H 0.36846 0.99046 0.11996 0.0
C533 C 0.30372 0.0118 0.04169 0.0
C534 C 0.32986 0.02108 0.20281 0.0
C535 C 0.28562 0.01027 0.01476 0.0
C536 C 0.39779 0.00298 0.34698 0.0
C537 C 0.38074 0.00557 0.31319 0.0
C538 C 0.35797 -0.00064 0.1431 0.0
C539 C 0.3068 0.01051 0.11335 0.0
C540 C 0.32601 0.01096 0.14229 0.0
C541 C 0.37997 0.00693 0.24067 0.0
C542 C 0.36168 0.00905 0.20486 0.0
H543 H 0.26187 0.00381 0.16582 0.0
H544 H 0.29338 0.00654 0.21281 0.0
H545 H 0.33773 0.99223 0.06585 0.0
H546 H 0.42647 0.00223 0.20617 0.0
H547 H 0.3967 0.00699 0.14705 0.0
C548 C 0.52897 0.26168 0.17274 0.0
C549 C 0.52189 0.25833 0.10623 0.0
C550 C 0.52668 0.27904 0.20412 0.0
C551 C 0.4988 0.3224 0.19707 0.0
H552 H 0.54032 0.34235 0.30277 0.0
C553 C 0.50015 0.39773 0.30647 0.0
C554 C 0.5081 0.40033 0.37236 0.0
C555 C 0.50101 0.38039 0.27364 0.0
C556 C 0.52849 0.33689 0.27422 0.0
H557 H 0.5077 0.27079 0.01889 0.0
H558 H 0.50354 0.3012 0.07378 0.0
H559 H 0.54355 0.31242 0.24526 0.0
H560 H 0.52293 0.38654 0.45568 0.0
H561 H 0.52401 0.35626 0.39928 0.0
H562 H 0.48377 0.347 0.22607 0.0
C563 C 0.51042 0.29022 0.10251 0.0
C564 C 0.53035 0.31971 0.24114 0.0
C565 C 0.51267 0.27278 0.07121 0.0
C566 C 0.51652 0.38503 0.40526 0.0
C567 C 0.51736 0.36771 0.37248 0.0
C568 C 0.49693 0.33964 0.23023 0.0
C569 C 0.51744 0.29357 0.16935 0.0
C570 C 0.5155 0.31216 0.20262 0.0
C571 C 0.50984 0.36522 0.30589 0.0
C572 C 0.51172 0.34702 0.26969 0.0
H573 H 0.53616 0.25078 0.20087 0.0
H574 H 0.53205 0.28103 0.25597 0.0
H575 H 0.48703 0.31691 0.16835 0.0
H576 H 0.49335 0.40915 0.27998 0.0
H577 H 0.49516 0.379 0.22224 0.0
C578 C 0.22216 0.48297 0.04017 0.0
C579 C 0.23718 0.47939 0.08508 0.0
C580 C 0.20455 0.48771 0.06662 0.0
C581 C 0.17634 0.48214 0.22446 0.0
H582 H 0.14519 0.52108 0.14725 0.0
C583 C 0.11006 0.5071 0.36364 0.0
C584 C 0.09412 0.51077 0.32346 0.0
C585 C 0.12732 0.50382 0.33223 0.0
C586 C 0.15364 0.51002 0.16888 0.0
H587 H 0.24565 0.47837 0.19268 0.0
H588 H 0.21511 0.48669 0.23858 0.0
H589 H 0.17575 0.51457 0.0958 0.0
H590 H 0.08382 0.51395 0.2187 0.0
H591 H 0.114 0.50807 0.16365 0.0
H592 H 0.15435 0.47743 0.29713 0.0
C593 C 0.21681 0.48564 0.18305 0.0
C594 C 0.17114 0.50631 0.13945 0.0
C595 C 0.23433 0.48095 0.15671 0.0
C596 C 0.09589 0.51133 0.25107 0.0
C597 C 0.11319 0.50798 0.21956 0.0
C598 C 0.15889 0.48579 0.25366 0.0
C599 C 0.20163 0.48879 0.13845 0.0
C600 C 0.18276 0.49246 0.16749 0.0
C601 C 0.12908 0.50405 0.2598 0.0
C602 C 0.14739 0.4999 0.22678 0.0
H603 H 0.22372 0.48135 0.98489 0.0
H604 H 0.19307 0.48985 0.03097 0.0
H605 H 0.18477 0.47109 0.24631 0.0
H606 H 0.10924 0.50692 0.41957 0.0
H607 H 0.13935 0.50123 0.36487 0.0
C608 C 0.96737 0.76154 0.13355 0.0
C609 C 0.97032 0.75857 0.20442 0.0
C610 C 0.97194 0.77862 0.10329 0.0
C611 C -0.00069 0.82197 0.13247 0.0
H612 H 0.96636 0.84184 0.99146 0.0
C613 C 0.00416 0.89784 0.03304 0.0
C614 C 0.00232 0.90068 0.96135 0.0
C615 C 0.00085 0.88032 0.06208 0.0
C616 C 0.97581 0.83639 0.03024 0.0
H617 H 0.97946 0.77137 0.29995 0.0
H618 H 0.98734 0.80128 0.24756 0.0
H619 H 0.95942 0.81175 0.04356 0.0
H620 H 0.99588 0.88709 0.86399 0.0
H621 H 0.98984 0.8566 0.91487 0.0
H622 H 0.01552 0.84684 0.11978 0.0
C623 C 0.9821 0.79024 0.21466 0.0
C624 C 0.97186 0.81911 0.06008 0.0
C625 C 0.97769 0.77307 0.24474 0.0
C626 C 0.99712 0.88551 0.91948 0.0
C627 C 0.9937 0.86802 0.94861 0.0
C628 C 0.0032 0.83932 0.10293 0.0
C629 C 0.97927 0.79325 0.1435 0.0
C630 C 0.98357 0.81165 0.11156 0.0
C631 C 0.99549 0.86523 0.02026 0.0
C632 C 0.9915 0.84672 0.0514 0.0
H633 H 0.96164 0.75058 0.10138 0.0
H634 H 0.9698 0.78031 0.04822 0.0
H635 H 0.00879 0.81653 0.17104 0.0
H636 H 0.00781 0.90924 0.06709 0.0
H637 H 0.00209 0.87869 0.11757 0.0
C638 C 0.72918 0.98746 0.15955 0.0
C639 C 0.73187 0.9865 0.23137 0.0
C640 C 0.71173 0.99213 0.13228 0.0
C641 C 0.66171 0.99122 0.17487 0.0
H642 H 0.65728 0.02246 0.01219 0.0
C643 C 0.59006 0.00983 0.05491 0.0
C644 C 0.58885 0.00909 0.98238 0.0
C645 C 0.6074 0.00859 0.088 0.0
C646 C 0.6583 0.01359 0.0573 0.0
H647 H 0.71823 0.98907 0.33094 0.0
H648 H 0.68782 -0.00224 0.28344 0.0
H649 H 0.68782 0.01798 0.06578 0.0
H650 H 0.60498 0.00682 0.88776 0.0
H651 H 0.63514 0.00424 0.94546 0.0
H652 H 0.63225 0.98656 0.16575 0.0
C653 C 0.69925 0.99498 0.2482 0.0
C654 C 0.67579 0.01105 0.08806 0.0
C655 C 0.71675 0.99033 0.27548 0.0
C656 C 0.60539 0.00722 0.94372 0.0
C657 C 0.62271 0.00599 0.9768 0.0
C658 C 0.64421 0.99374 0.14405 0.0
C659 C 0.69652 0.99581 0.17624 0.0
C660 C 0.67773 -0.00035 0.14668 0.0
C661 C 0.62392 0.0066 0.04934 0.0
C662 C 0.64234 0.00477 0.08438 0.0
H663 H 0.74056 0.98443 0.12431 0.0
H664 H 0.71004 0.99235 0.07663 0.0
H665 H 0.66276 0.98215 0.21943 0.0
H666 H 0.57758 0.01108 0.08627 0.0
H667 H 0.60785 0.00928 0.14392 0.0
C668 C 0.54733 0.73422 0.16083 0.0
C669 C 0.53284 0.7468 0.17562 0.0
C670 C 0.54332 0.71659 0.13414 0.0
C671 C 0.50787 0.68935 0.04045 0.0
H672 H 0.53296 0.64715 0.12396 0.0
C673 C 0.48976 0.61307 0.96778 0.0
C674 C 0.5046 0.60028 0.96491 0.0
C675 C 0.49264 0.6311 0.9932 0.0
C676 C 0.52601 0.65877 0.0993 0.0
H677 H 0.50294 0.75131 0.16962 0.0
H678 H 0.49589 0.72038 0.12296 0.0
H679 H 0.53918 0.67838 0.16686 0.0
H680 H 0.53419 0.59652 0.98429 0.0
H681 H 0.53934 0.62798 0.02715 0.0
H682 H 0.49501 0.66979 0.97172 0.0
C683 C 0.51032 0.7241 0.13288 0.0
C684 C 0.52953 0.67668 0.12418 0.0
C685 C 0.51433 0.74172 0.16021 0.0
C686 C 0.52242 0.60598 0.98693 0.0
C687 C 0.52534 0.62401 0.01176 0.0
C688 C 0.50448 0.67141 0.01501 0.0
C689 C 0.52476 0.71124 0.12062 0.0
C690 C 0.52059 0.69219 0.09484 0.0
C691 C 0.51046 0.63679 0.01582 0.0
C692 C 0.51361 0.65589 0.04383 0.0
H693 H 0.56174 0.73782 0.17177 0.0
H694 H 0.55478 0.70711 0.12413 0.0
H695 H 0.50089 0.70105 0.0164 0.0
H696 H 0.47582 0.60901 0.95181 0.0
H697 H 0.4808 0.64045 -0.00365 0.0
C698 C 0.79002 0.51506 0.27905 0.0
C699 C 0.77451 0.51886 0.23679 0.0
C700 C 0.80762 0.51186 0.24976 0.0
C701 C 0.84157 0.49696 0.17115 0.0
H702 H 0.85577 0.52888 0.01814 0.0
C703 C 0.90845 0.48502 0.00789 0.0
C704 C 0.9186 0.50087 0.98753 0.0
C705 C 0.89108 0.48684 0.04046 0.0
C706 C 0.8521 0.51994 0.06117 0.0
H707 H 0.76516 0.52207 0.1309 0.0
H708 H 0.79574 0.51627 0.07969 0.0
H709 H 0.82516 0.53249 0.0712 0.0
H710 H 0.91872 0.53106 0.98729 0.0
H711 H 0.88847 0.53424 0.04407 0.0
H712 H 0.86875 0.48468 0.16176 0.0
C713 C 0.79442 0.51597 0.13547 0.0
C714 C 0.83444 0.52185 0.09103 0.0
C715 C 0.77688 0.5192 0.16475 0.0
C716 C 0.9111 0.51857 0.0012 0.0
C717 C 0.89376 0.52039 0.03378 0.0
C718 C 0.85927 0.49504 0.14115 0.0
C719 C 0.81006 0.51252 0.17761 0.0
C720 C 0.82892 0.51036 0.14624 0.0
C721 C 0.88349 0.50455 0.0534 0.0
C722 C 0.86474 0.50653 0.08581 0.0
H723 H 0.78875 0.51536 0.33478 0.0
H724 H 0.81942 0.50953 0.28373 0.0
H725 H 0.83771 0.48782 0.21334 0.0
H726 H 0.91373 0.47118 -0.00267 0.0
H727 H 0.88342 0.47436 0.05406 0.0
C728 C 0.05061 0.18991 0.95109 0.0
C729 C 0.03509 0.20179 0.94555 0.0
C730 C 0.05002 0.17201 0.92263 0.0
C731 C 0.02414 0.14333 0.79554 0.0
H732 H 0.04259 0.10178 0.90364 0.0
C733 C 0.01447 0.05895 0.81049 0.0
C734 C 0.01577 0.05439 0.74002 0.0
C735 C 0.01867 0.07692 0.83321 0.0
C736 C 0.03732 0.11324 0.87295 0.0
H737 H 0.00679 0.20426 0.90596 0.0
H738 H 0.0057 0.17312 0.85742 0.0
H739 H 0.04633 0.13342 0.94726 0.0
H740 H 0.02312 0.06491 0.63844 0.0
H741 H 0.03055 0.09623 0.67814 0.0
H742 H 0.01444 0.12317 0.72261 0.0
C743 C 0.01845 0.17767 0.88252 0.0
C744 C 0.03967 0.13137 0.89753 0.0
C745 C 0.01904 0.19549 0.91081 0.0
C746 C 0.02165 0.06807 0.69288 0.0
C747 C 0.02592 0.08602 0.71565 0.0
C748 C 0.02175 0.12521 0.77107 0.0
C749 C 0.0339 0.16571 0.88813 0.0
C750 C 0.03285 0.14659 0.85956 0.0
C751 C 0.02437 0.09068 0.78602 0.0
C752 C 0.02808 0.10995 0.80994 0.0
H753 H 0.06319 0.19439 0.97753 0.0
H754 H 0.0622 0.16315 0.9273 0.0
H755 H 0.01896 0.15479 0.76463 0.0
H756 H 0.00993 0.04873 0.84809 0.0
H757 H 0.01705 0.08012 0.88761 0.0
C758 C 0.30062 0.04298 0.85085 0.0
C759 C 0.29219 0.0531 0.79702 0.0
C760 C 0.31798 0.03438 0.84048 0.0
C761 C 0.35096 0.01854 0.70537 0.0
H762 H 0.38938 0.03071 0.83934 0.0
C763 C 0.42954 0.01212 0.64227 0.0
C764 C 0.442 0.00734 0.69554 0.0
C765 C 0.41062 0.01521 0.65654 0.0
C766 C 0.3788 0.02682 0.80195 0.0
H767 H 0.29499 0.06205 0.69081 0.0
H768 H 0.32508 0.04683 0.67227 0.0
H769 H 0.3571 0.03957 0.86177 0.0
H770 H 0.44419 0.00137 0.80521 0.0
H771 H 0.4112 0.00626 0.82973 0.0
H772 H 0.3726 0.00585 0.6453 0.0
C773 C 0.3183 0.04535 0.72207 0.0
C774 C 0.36027 0.03193 0.81491 0.0
C775 C 0.30113 0.05412 0.73271 0.0
C776 C 0.43502 0.00526 0.76305 0.0
C777 C 0.41608 0.00815 0.7772 0.0
C778 C 0.36945 0.01325 0.69268 0.0
C779 C 0.32707 0.03565 0.77611 0.0
C780 C 0.34622 0.02817 0.76615 0.0
C781 C 0.40365 0.0134 0.72433 0.0
C782 C 0.3837 0.01765 0.74019 0.0
H783 H 0.29429 0.0424 0.90162 0.0
H784 H 0.32445 0.02701 0.88307 0.0
H785 H 0.34036 0.01528 0.66721 0.0
H786 H 0.43446 0.01392 0.58975 0.0
H787 H 0.40158 0.01951 0.61459 0.0
C788 C 0.46041 0.30348 0.91553 0.0
C789 C 0.46036 0.30035 0.98729 0.0
C790 C 0.46035 0.32159 0.88941 0.0
C791 C 0.47654 0.36762 0.94115 0.0
H792 H 0.45297 0.3839 0.77101 0.0
C793 C 0.48564 0.44205 0.83974 0.0
C794 C 0.48869 0.44437 0.76845 0.0
C795 C 0.48028 0.42484 0.86631 0.0
C796 C 0.45976 0.37947 0.81827 0.0
H797 H 0.45853 0.31369 0.08773 0.0
H798 H 0.45831 0.34531 0.04203 0.0
H799 H 0.44521 0.35337 0.81913 0.0
H800 H 0.48829 0.43037 0.66904 0.0
H801 H 0.47929 0.40009 0.71584 0.0
H802 H 0.49141 0.39339 0.93982 0.0
C803 C 0.45876 0.33375 0.00607 0.0
C804 C 0.45525 0.36205 0.84595 0.0
C805 C 0.45877 0.31564 0.03221 0.0
C806 C 0.48616 0.42904 0.72422 0.0
C807 C 0.48083 0.41174 0.75095 0.0
C808 C 0.48106 0.38495 0.9135 0.0
C809 C 0.46025 0.33691 0.93454 0.0
C810 C 0.46367 0.35592 0.90756 0.0
C811 C 0.4779 0.40946 0.82237 0.0
C812 C 0.47279 0.39106 0.85164 0.0
H813 H 0.4615 0.29199 0.87949 0.0
H814 H 0.46156 0.32356 0.83407 0.0
H815 H 0.48361 0.36313 0.98778 0.0
H816 H 0.4873 0.45357 0.8754 0.0
H817 H 0.47784 0.42363 0.9214 0.0
C818 C 0.2092 0.53439 0.76049 0.0
C819 C 0.22098 0.52218 0.79621 0.0
C820 C 0.19053 0.52983 0.74852 0.0
C821 C 0.15203 0.49919 0.80633 0.0
H822 H 0.13032 0.51515 0.63249 0.0
C823 C 0.07225 0.50412 0.76392 0.0
C824 C 0.06498 0.50142 0.69716 0.0
C825 C 0.09155 0.50385 0.77537 0.0
C826 C 0.13613 0.51027 0.68089 0.0
H827 H 0.22254 0.49522 0.8465 0.0
H828 H 0.1898 0.48714 0.8255 0.0
H829 H 0.16347 0.51953 0.65278 0.0
H830 H 0.07225 0.49535 0.59066 0.0
H831 H 0.10582 0.49432 0.61081 0.0
H832 H 0.12467 0.48957 0.83375 0.0
C833 C 0.19495 0.50049 0.80781 0.0
C834 C 0.15516 0.51308 0.69301 0.0
C835 C 0.21373 0.50514 0.82009 0.0
C836 C 0.0774 0.49773 0.64256 0.0
C837 C 0.09669 0.49723 0.65414 0.0
C838 C 0.13296 0.49623 0.79396 0.0
C839 C 0.18317 0.51275 0.77128 0.0
C840 C 0.16329 0.50799 0.75648 0.0
C841 C 0.10407 0.50065 0.72047 0.0
C842 C 0.12467 0.50208 0.73156 0.0
H843 H 0.21447 0.54759 0.74151 0.0
H844 H 0.18184 0.53982 0.72164 0.0
H845 H 0.1578 0.49512 0.85583 0.0
H846 H 0.06307 0.50706 0.80711 0.0
H847 H 0.09665 0.50683 0.82692 0.0
C848 C 0.02886 0.81495 0.32052 0.0
C849 C 0.02582 0.79945 0.36337 0.0
C850 C 0.02793 0.83294 0.3476 0.0
C851 C 0.02774 0.86059 0.50845 0.0
H852 H 0.99336 0.89231 0.40768 0.0
C853 C 7e-05 0.92907 0.62494 0.0
C854 C -0.00063 0.94449 0.58032 0.0
C855 C 0.00325 0.91123 0.59865 0.0
C856 C 0.00317 0.88375 0.43606 0.0
H857 H 0.0212 0.79059 0.46931 0.0
H858 H 0.01983 0.82198 0.51658 0.0
H859 H 0.00172 0.86199 0.36075 0.0
H860 H 0.00078 0.95316 0.47287 0.0
H861 H 0.00658 0.92224 0.42746 0.0
H862 H 0.0293 0.88239 0.58361 0.0
C863 C 0.02271 0.82023 0.46197 0.0
C864 C 0.008 0.8664 0.40904 0.0
C865 C 0.02345 0.80225 0.43479 0.0
C866 C 0.00117 0.9416 0.50876 0.0
C867 C 0.00445 0.92381 0.4826 0.0
C868 C 0.02303 0.87803 0.53527 0.0
C869 C 0.02423 0.83575 0.4182 0.0
C870 C 0.02027 0.85463 0.44506 0.0
C871 C 0.00585 0.90846 0.52729 0.0
C872 C 0.01062 0.88978 0.4995 0.0
H873 H 0.03099 0.81324 0.26547 0.0
H874 H 0.02948 0.84469 0.31294 0.0
H875 H 0.0373 0.85181 0.53709 0.0
H876 H 0.99865 0.93081 0.68033 0.0
H877 H 0.00387 0.89963 0.63435 0.0
C878 C 0.70331 0.03009 0.56765 0.0
C879 C 0.71243 0.0286 0.50382 0.0
C880 C 0.6855 0.02256 0.57697 0.0
C881 C 0.64298 0.01195 0.4814 0.0
H882 H 0.6282 0.98768 0.65201 0.0
C883 C 0.56589 0.99261 0.53506 0.0
C884 C 0.55925 0.99649 0.60197 0.0
C885 C 0.58505 0.99319 0.52054 0.0
C886 C 0.63205 0.99455 0.60424 0.0
H887 H 0.70995 0.01844 0.39861 0.0
H888 H 0.67867 0.00514 0.41484 0.0
H889 H 0.66114 0.99442 0.6307 0.0
H890 H 0.56768 0.00361 0.70652 0.0
H891 H 0.60091 0.00499 0.68101 0.0
H892 H 0.61389 0.01282 0.45599 0.0
C893 C 0.68548 0.01192 0.4581 0.0
C894 C 0.65094 -0.00168 0.59193 0.0
C895 C 0.70347 0.0193 0.44904 0.0
C896 C 0.57226 0.00049 0.65442 0.0
C897 C 0.5914 0.00116 0.63983 0.0
C898 C 0.62406 0.00829 0.4939 0.0
C899 C 0.67625 0.01362 0.52209 0.0
C900 C 0.65657 0.00741 0.53101 0.0
C901 C 0.59804 -0.00225 0.5725 0.0
C902 C 0.61831 -0.00011 0.55614 0.0
H903 H 0.70985 0.03743 0.61026 0.0
H904 H 0.67866 0.0244 0.62648 0.0
H905 H 0.64685 0.01915 0.43433 0.0
H906 H 0.55629 0.98933 0.4935 0.0
H907 H 0.58967 0.99017 0.46839 0.0
C908 C 0.51711 0.68326 0.32963 0.0
C909 C 0.50666 0.69773 0.35929 0.0
C910 C 0.5168 0.6655 0.35844 0.0
C911 C 0.49135 0.63547 0.48357 0.0
H912 H 0.5382 0.60823 0.48316 0.0
C913 C 0.50362 0.56834 0.64132 0.0
C914 C 0.50994 0.55313 0.60197 0.0
C915 C 0.50351 0.58621 0.61311 0.0
C916 C 0.52504 0.61569 0.48336 0.0
H917 H 0.48735 0.705 0.44125 0.0
H918 H 0.48732 0.67408 0.49357 0.0
H919 H 0.53677 0.63902 0.43067 0.0
H920 H 0.52177 0.54477 0.50346 0.0
H921 H 0.52199 0.57618 0.45482 0.0
H922 H 0.47988 0.61217 0.53832 0.0
C923 C 0.49543 0.67629 0.44701 0.0
C924 C 0.52414 0.63326 0.4529 0.0
C925 C 0.49548 0.69403 0.41729 0.0
C926 C 0.51676 0.55622 0.53484 0.0
C927 C 0.51694 0.57416 0.50711 0.0
C928 C 0.49235 0.61801 0.51502 0.0
C929 C 0.50632 0.66188 0.41847 0.0
C930 C 0.50724 0.6433 0.45201 0.0
C931 C 0.51003 0.58922 0.54563 0.0
C932 C 0.50917 0.60795 0.51466 0.0
H933 H 0.52566 0.68572 0.28431 0.0
H934 H 0.52492 0.65464 0.33381 0.0
H935 H 0.47806 0.64266 0.48304 0.0
H936 H 0.49823 0.56638 0.69315 0.0
H937 H 0.49825 0.59768 0.64388 0.0
C938 C 0.80549 0.47286 0.56499 0.0
C939 C 0.79641 0.47432 0.50109 0.0
C940 C 0.82284 0.4813 0.57559 0.0
C941 C 0.86486 0.49466 0.48219 0.0
H942 H 0.87821 0.51846 0.65536 0.0
C943 C 0.94099 0.51642 0.5397 0.0
C944 C 0.94764 0.51224 0.60634 0.0
C945 C 0.92188 0.51543 0.52473 0.0
C946 C 0.87476 0.51175 0.60686 0.0
H947 H 0.79848 0.4854 0.39708 0.0
H948 H 0.82894 0.50026 0.41552 0.0
H949 H 0.84564 0.51036 0.63255 0.0
H950 H 0.93926 0.5043 0.7101 0.0
H951 H 0.90612 0.50217 0.68373 0.0
H952 H 0.89399 0.49523 0.45755 0.0
C953 C 0.82245 0.49282 0.45789 0.0
C954 C 0.85608 0.50719 0.5937 0.0
C955 C 0.80492 0.48453 0.44758 0.0
C956 C 0.93466 0.50764 0.6582 0.0
C957 C 0.91558 0.50654 0.64313 0.0
C958 C 0.88357 0.49908 0.49554 0.0
C959 C 0.83166 0.49113 0.5219 0.0
C960 C 0.85099 0.49825 0.53184 0.0
C961 C 0.90895 0.51014 0.57593 0.0
C962 C 0.88882 0.50732 0.5587 0.0
H963 H 0.79931 0.46484 0.6066 0.0
H964 H 0.8297 0.47946 0.62505 0.0
H965 H 0.86141 0.48758 0.43439 0.0
H966 H 0.95057 0.52018 0.49863 0.0
H967 H 0.91727 0.51863 0.47275 0.0
loop_
_geom_bond_atom_site_label_1
_geom_bond_atom_site_label_2
_geom_bond_distance
_geom_bond_site_symmetry_2
_ccdc_geom_bond_type
O0 Cd1 2.300 . S
O0 C7 1.275 . S
Cd1 O0 2.300 . S
Cd1 O9 2.381 . S
Cd1 O10 2.378 . S
O2 Cd3 2.385 . S
O2 C7 1.255 . S
Cd3 O2 2.385 . S
Cd3 O4 2.317 . S
O4 Cd3 2.317 . S
O4 C5 1.232 . S
C5 O4 1.232 . S
C5 O6 1.218 . S
O6 C5 1.218 . S
C7 O0 1.275 . S
C7 O2 1.255 . S
C8 O9 1.258 . S
C8 O10 1.256 . S
O9 Cd1 2.381 . S
O9 C8 1.258 . S
O10 Cd1 2.378 . S
O10 C8 1.256 . S
O11 Cd12 2.300 1_655 S
O11 C18 1.277 1_655 S
Cd12 O11 2.300 1_455 S
Cd12 O20 2.381 1_455 S
Cd12 O21 2.378 . S
O13 Cd14 2.385 . S
O13 C18 1.253 . S
Cd14 O13 2.385 . S
Cd14 O15 2.317 . S
O15 Cd14 2.317 . S
O15 C16 1.232 . S
C16 O15 1.232 . S
C16 O17 1.218 . S
O17 C16 1.218 . S
C18 O11 1.277 1_455 S
C18 O13 1.253 . S
C19 O20 1.258 . S
C19 O21 1.256 1_655 S
O20 Cd12 2.381 1_655 S
O20 C19 1.258 . S
O21 Cd12 2.378 . S
O21 C19 1.256 1_455 S
O22 Cd23 2.300 1_565 S
O22 C29 1.280 . S
Cd23 O22 2.300 1_545 S
Cd23 O31 2.381 1_545 S
Cd23 O32 2.378 . S
O24 Cd25 2.385 . S
O24 C29 1.247 1_545 S
Cd25 O24 2.385 . S
Cd25 O26 2.317 . S
O26 Cd25 2.317 . S
O26 C27 1.232 . S
C27 O26 1.232 . S
C27 O28 1.218 . S
O28 C27 1.218 . S
C29 O22 1.280 . S
C29 O24 1.247 1_565 S
C30 O31 1.258 . S
C30 O32 1.256 1_565 S
O31 Cd23 2.381 1_565 S
O31 C30 1.258 . S
O32 Cd23 2.378 . S
O32 C30 1.256 1_545 S
O33 Cd34 2.300 . S
O33 C40 1.275 . S
Cd34 O33 2.300 . S
Cd34 O42 2.381 . S
Cd34 O43 2.378 . S
O35 Cd36 2.385 . S
O35 C40 1.255 . S
Cd36 O35 2.385 . S
Cd36 O37 2.317 . S
O37 Cd36 2.317 . S
O37 C38 1.232 . S
C38 O37 1.232 . S
C38 O39 1.218 . S
O39 C38 1.218 . S
C40 O33 1.275 . S
C40 O35 1.255 . S
C41 O42 1.258 . S
C41 O43 1.256 . S
O42 Cd34 2.381 . S
O42 C41 1.258 . S
O43 Cd34 2.378 . S
O43 C41 1.256 . S
O44 Cd45 2.300 . S
O44 C51 1.275 . S
Cd45 O44 2.300 . S
Cd45 O53 2.381 . S
Cd45 O54 2.378 . S
O46 Cd47 2.385 1_554 S
O46 C51 1.255 . S
Cd47 O46 2.385 1_556 S
Cd47 O48 2.317 . S
O48 Cd47 2.317 . S
O48 C49 1.232 . S
C49 O48 1.232 . S
C49 O50 1.218 . S
O50 C49 1.218 . S
C51 O44 1.275 . S
C51 O46 1.255 . S
C52 O53 1.258 . S
C52 O54 1.256 . S
O53 Cd45 2.381 . S
O53 C52 1.258 . S
O54 Cd45 2.378 . S
O54 C52 1.256 . S
O55 Cd56 2.300 . S
O55 C62 1.275 . S
Cd56 O55 2.300 . S
Cd56 O64 2.381 . S
Cd56 O65 2.378 . S
O57 Cd58 2.385 1_554 S
O57 C62 1.255 . S
Cd58 O57 2.385 1_556 S
Cd58 O59 2.317 . S
O59 Cd58 2.317 . S
O59 C60 1.232 . S
C60 O59 1.232 . S
C60 O61 1.218 . S
O61 C60 1.218 . S
C62 O55 1.275 . S
C62 O57 1.255 . S
C63 O64 1.258 . S
C63 O65 1.256 . S
O64 Cd56 2.381 . S
O64 C63 1.258 . S
O65 Cd56 2.378 . S
O65 C63 1.256 . S
O66 Cd67 2.300 . S
O66 C73 1.275 . S
Cd67 O66 2.300 . S
Cd67 O75 2.381 . S
Cd67 O76 2.378 . S
O68 Cd69 2.385 1_554 S
O68 C73 1.255 . S
Cd69 O68 2.385 1_556 S
Cd69 O70 2.317 . S
O70 Cd69 2.317 . S
O70 C71 1.232 . S
C71 O70 1.232 . S
C71 O72 1.218 . S
O72 C71 1.218 . S
C73 O66 1.275 . S
C73 O68 1.255 . S
C74 O75 1.258 . S
C74 O76 1.256 . S
O75 Cd67 2.381 . S
O75 C74 1.258 . S
O76 Cd67 2.378 . S
O76 C74 1.256 . S
O77 Cd78 2.300 . S
O77 C84 1.275 . S
Cd78 O77 2.300 . S
Cd78 O86 2.381 . S
Cd78 O87 2.378 . S
O79 Cd80 2.385 1_554 S
O79 C84 1.255 . S
Cd80 O79 2.385 1_556 S
Cd80 O81 2.317 . S
O81 Cd80 2.317 . S
O81 C82 1.232 . S
C82 O81 1.232 . S
C82 O83 1.218 . S
O83 C82 1.218 . S
C84 O77 1.275 . S
C84 O79 1.255 . S
C85 O86 1.258 . S
C85 O87 1.256 . S
O86 Cd78 2.381 . S
O86 C85 1.258 . S
O87 Cd78 2.378 . S
O87 C85 1.256 . S
Gd88 C91 2.818 . S
Gd88 O108 2.377 . S
Gd88 O110 2.448 . S
Gd88 O111 2.506 . S
Gd88 O112 2.435 . S
Gd88 O113 2.717 1_565 S
Gd88 O115 2.395 1_565 S
Gd88 O119 2.324 1_465 S
Gd89 C100 2.818 . S
Gd89 O109 2.395 1_545 S
Gd89 O113 2.327 1_655 S
Gd89 O114 2.391 . S
Gd89 O116 2.448 . S
Gd89 O117 2.506 1_655 S
Gd89 O118 2.435 . S
Gd89 O119 2.724 . S
C90 O108 1.240 1_655 S
C90 O109 1.240 . S
C91 Gd88 2.818 . S
C91 C92 1.510 . S
C91 O110 1.249 . S
C91 O111 1.252 . S
C92 C91 1.510 . S
C92 C93 1.404 . S
C92 C94 1.352 . S
C93 C92 1.404 . S
C93 C97 1.389 . S
C93 H120 0.930 . S
C94 C92 1.352 . S
C94 C96 1.374 . S
C94 H121 0.931 1_455 S
C95 C96 1.359 . S
C95 C97 1.364 . S
C96 C94 1.374 . S
C96 C95 1.359 . S
C96 H122 0.931 1_455 S
C97 C93 1.389 . S
C97 C95 1.364 . S
C97 H123 0.931 . S
C98 O112 1.256 1_545 S
C98 O113 1.257 . S
C99 O114 1.198 1_455 S
C99 O115 1.240 . S
C100 Gd89 2.818 . S
C100 C101 1.510 . S
C100 O116 1.249 . S
C100 O117 1.252 1_655 S
C101 C100 1.510 . S
C101 C102 1.404 . S
C101 C103 1.352 1_655 S
C102 C101 1.404 . S
C102 C106 1.389 . S
C102 H124 0.930 . S
C103 C101 1.352 1_455 S
C103 C105 1.374 . S
C103 H125 0.931 . S
C104 C105 1.359 1_655 S
C104 C106 1.364 . S
C105 C103 1.374 . S
C105 C104 1.359 1_455 S
C105 H126 0.931 . S
C106 C102 1.389 . S
C106 C104 1.364 . S
C106 H127 0.931 . S
C107 O118 1.256 . S
C107 O119 1.263 . S
O108 Gd88 2.377 . S
O108 C90 1.240 1_455 S
O109 Gd89 2.395 1_565 S
O109 C90 1.240 . S
O110 Gd88 2.448 . S
O110 C91 1.249 . S
O111 Gd88 2.506 . S
O111 C91 1.252 . S
O112 Gd88 2.435 . S
O112 C98 1.256 1_565 S
O113 Gd88 2.717 1_545 S
O113 Gd89 2.327 1_455 S
O113 C98 1.257 . S
O114 Gd89 2.391 . S
O114 C99 1.198 1_655 S
O115 Gd88 2.395 1_545 S
O115 C99 1.240 . S
O116 Gd89 2.448 . S
O116 C100 1.249 . S
O117 Gd89 2.506 1_455 S
O117 C100 1.252 1_455 S
O118 Gd89 2.435 . S
O118 C107 1.256 . S
O119 Gd88 2.324 1_645 S
O119 Gd89 2.724 . S
O119 C107 1.263 . S
H120 C93 0.930 . S
H121 C94 0.931 1_655 S
H122 C96 0.931 1_655 S
H123 C97 0.931 . S
H124 C102 0.930 . S
H125 C103 0.931 . S
H126 C105 0.931 . S
H127 C106 0.931 . S
Gd128 C131 2.818 . S
Gd128 O148 2.377 . S
Gd128 O150 2.448 . S
Gd128 O151 2.506 . S
Gd128 O152 2.435 . S
Gd128 O153 2.717 . S
Gd128 O155 2.395 . S
Gd128 O159 2.327 1_545 S
Gd129 C140 2.818 . S
Gd129 O149 2.395 . S
Gd129 O153 2.327 1_565 S
Gd129 O154 2.392 . S
Gd129 O156 2.448 . S
Gd129 O157 2.506 1_565 S
Gd129 O158 2.435 . S
Gd129 O159 2.717 . S
C130 O148 1.240 1_565 S
C130 O149 1.240 . S
C131 Gd128 2.818 . S
C131 C132 1.510 . S
C131 O150 1.249 . S
C131 O151 1.252 . S
C132 C131 1.510 . S
C132 C133 1.404 . S
C132 C134 1.352 . S
C133 C132 1.404 . S
C133 C137 1.389 . S
C133 H160 0.930 . S
C134 C132 1.352 . S
C134 C136 1.374 . S
C134 H161 0.931 1_545 S
C135 C136 1.359 . S
C135 C137 1.364 . S
C136 C134 1.374 . S
C136 C135 1.359 . S
C136 H162 0.931 1_545 S
C137 C133 1.389 . S
C137 C135 1.364 . S
C137 H163 0.931 . S
C138 O152 1.256 . S
C138 O153 1.257 . S
C139 O154 1.196 1_545 S
C139 O155 1.240 . S
C140 Gd129 2.818 . S
C140 C141 1.510 . S
C140 O156 1.249 . S
C140 O157 1.252 1_565 S
C141 C140 1.510 . S
C141 C142 1.404 . S
C141 C143 1.352 1_565 S
C142 C141 1.404 . S
C142 C146 1.389 . S
C142 H164 0.930 . S
C143 C141 1.352 1_545 S
C143 C145 1.374 . S
C143 H165 0.931 . S
C144 C145 1.359 1_565 S
C144 C146 1.364 . S
C145 C143 1.374 . S
C145 C144 1.359 1_545 S
C145 H166 0.931 . S
C146 C142 1.389 . S
C146 C144 1.364 . S
C146 H167 0.931 . S
C147 O158 1.256 . S
C147 O159 1.257 . S
O148 Gd128 2.377 . S
O148 C130 1.240 1_545 S
O149 Gd129 2.395 . S
O149 C130 1.240 . S
O150 Gd128 2.448 . S
O150 C131 1.249 . S
O151 Gd128 2.506 . S
O151 C131 1.252 . S
O152 Gd128 2.435 . S
O152 C138 1.256 . S
O153 Gd128 2.717 . S
O153 Gd129 2.327 1_545 S
O153 C138 1.257 . S
O154 Gd129 2.392 . S
O154 C139 1.196 1_565 S
O155 Gd128 2.395 . S
O155 C139 1.240 . S
O156 Gd129 2.448 . S
O156 C140 1.249 . S
O157 Gd129 2.506 1_545 S
O157 C140 1.252 1_545 S
O158 Gd129 2.435 . S
O158 C147 1.256 . S
O159 Gd128 2.327 1_565 S
O159 Gd129 2.717 . S
O159 C147 1.257 . S
H160 C133 0.930 . S
H161 C134 0.931 1_565 S
H162 C136 0.931 1_565 S
H163 C137 0.931 . S
H164 C142 0.930 . S
H165 C143 0.931 . S
H166 C145 0.931 . S
H167 C146 0.931 . S
Gd168 C171 2.818 . S
Gd168 O188 2.377 . S
Gd168 O190 2.448 . S
Gd168 O191 2.506 . S
Gd168 O192 2.435 . S
Gd168 O193 2.717 . S
Gd168 O195 2.395 . S
Gd168 O199 2.327 . S
Gd169 C180 2.818 . S
Gd169 O189 2.395 . S
Gd169 O193 2.327 . S
Gd169 O194 2.377 . S
Gd169 O196 2.448 . S
Gd169 O197 2.506 . S
Gd169 O198 2.435 . S
Gd169 O199 2.717 . S
C170 O188 1.240 . S
C170 O189 1.240 . S
C171 Gd168 2.818 . S
C171 C172 1.510 . S
C171 O190 1.249 . S
C171 O191 1.252 . S
C172 C171 1.510 . S
C172 C173 1.404 . S
C172 C174 1.352 . S
C173 C172 1.404 . S
C173 C177 1.389 . S
C173 H200 0.930 . S
C174 C172 1.352 . S
C174 C176 1.374 . S
C174 H201 0.931 . S
C175 C176 1.359 . S
C175 C177 1.364 . S
C176 C174 1.374 . S
C176 C175 1.359 . S
C176 H202 0.931 . S
C177 C173 1.389 . S
C177 C175 1.364 . S
C177 H203 0.931 . S
C178 O192 1.256 . S
C178 O193 1.257 . S
C179 O194 1.240 . S
C179 O195 1.240 . S
C180 Gd169 2.818 . S
C180 C181 1.510 . S
C180 O196 1.249 . S
C180 O197 1.252 . S
C181 C180 1.510 . S
C181 C182 1.404 . S
C181 C183 1.352 . S
C182 C181 1.404 . S
C182 C186 1.389 . S
C182 H204 0.930 . S
C183 C181 1.352 . S
C183 C185 1.374 . S
C183 H205 0.931 . S
C184 C185 1.359 . S
C184 C186 1.364 . S
C185 C183 1.374 . S
C185 C184 1.359 . S
C185 H206 0.931 . S
C186 C182 1.389 . S
C186 C184 1.364 . S
C186 H207 0.931 . S
C187 O198 1.256 . S
C187 O199 1.257 . S
O188 Gd168 2.377 . S
O188 C170 1.240 . S
O189 Gd169 2.395 . S
O189 C170 1.240 . S
O190 Gd168 2.448 . S
O190 C171 1.249 . S
O191 Gd168 2.506 . S
O191 C171 1.252 . S
O192 Gd168 2.435 . S
O192 C178 1.256 . S
O193 Gd168 2.717 . S
O193 Gd169 2.327 . S
O193 C178 1.257 . S
O194 Gd169 2.377 . S
O194 C179 1.240 . S
O195 Gd168 2.395 . S
O195 C179 1.240 . S
O196 Gd169 2.448 . S
O196 C180 1.249 . S
O197 Gd169 2.506 . S
O197 C180 1.252 . S
O198 Gd169 2.435 . S
O198 C187 1.256 . S
O199 Gd168 2.327 . S
O199 Gd169 2.717 . S
O199 C187 1.257 . S
H200 C173 0.930 . S
H201 C174 0.931 . S
H202 C176 0.931 . S
H203 C177 0.931 . S
H204 C182 0.930 . S
H205 C183 0.931 . S
H206 C185 0.931 . S
H207 C186 0.931 . S
Gd208 C211 2.818 . S
Gd208 O228 2.377 . S
Gd208 O230 2.448 . S
Gd208 O231 2.506 . S
Gd208 O232 2.435 . S
Gd208 O233 2.717 1_655 S
Gd208 O235 2.395 1_655 S
Gd208 O239 2.323 1_655 S
Gd209 C220 2.818 . S
Gd209 O229 2.395 1_455 S
Gd209 O233 2.327 . S
Gd209 O234 2.377 . S
Gd209 O236 2.448 . S
Gd209 O237 2.506 . S
Gd209 O238 2.435 . S
Gd209 O239 2.727 . S
C210 O228 1.240 . S
C210 O229 1.240 . S
C211 Gd208 2.818 . S
C211 C212 1.510 . S
C211 O230 1.249 . S
C211 O231 1.252 . S
C212 C211 1.510 . S
C212 C213 1.404 . S
C212 C214 1.352 . S
C213 C212 1.404 . S
C213 C217 1.389 . S
C213 H240 0.930 . S
C214 C212 1.352 . S
C214 C216 1.374 . S
C214 H241 0.931 . S
C215 C216 1.359 . S
C215 C217 1.364 . S
C216 C214 1.374 . S
C216 C215 1.359 . S
C216 H242 0.931 . S
C217 C213 1.389 . S
C217 C215 1.364 . S
C217 H243 0.931 . S
C218 O232 1.256 1_455 S
C218 O233 1.257 . S
C219 O234 1.240 . S
C219 O235 1.240 . S
C220 Gd209 2.818 . S
C220 C221 1.510 . S
C220 O236 1.249 . S
C220 O237 1.252 . S
C221 C220 1.510 . S
C221 C222 1.404 . S
C221 C223 1.352 . S
C222 C221 1.404 . S
C222 C226 1.389 . S
C222 H244 0.930 . S
C223 C221 1.352 . S
C223 C225 1.374 . S
C223 H245 0.931 . S
C224 C225 1.359 . S
C224 C226 1.364 . S
C225 C223 1.374 . S
C225 C224 1.359 . S
C225 H246 0.931 . S
C226 C222 1.389 . S
C226 C224 1.364 . S
C226 H247 0.931 . S
C227 O238 1.256 . S
C227 O239 1.265 . S
O228 Gd208 2.377 . S
O228 C210 1.240 . S
O229 Gd209 2.395 1_655 S
O229 C210 1.240 . S
O230 Gd208 2.448 . S
O230 C211 1.249 . S
O231 Gd208 2.506 . S
O231 C211 1.252 . S
O232 Gd208 2.435 . S
O232 C218 1.256 1_655 S
O233 Gd208 2.717 1_455 S
O233 Gd209 2.327 . S
O233 C218 1.257 . S
O234 Gd209 2.377 . S
O234 C219 1.240 . S
O235 Gd208 2.395 1_455 S
O235 C219 1.240 . S
O236 Gd209 2.448 . S
O236 C220 1.249 . S
O237 Gd209 2.506 . S
O237 C220 1.252 . S
O238 Gd209 2.435 . S
O238 C227 1.256 . S
O239 Gd208 2.323 1_455 S
O239 Gd209 2.727 . S
O239 C227 1.265 . S
H240 C213 0.930 . S
H241 C214 0.931 . S
H242 C216 0.931 . S
H243 C217 0.931 . S
H244 C222 0.930 . S
H245 C223 0.931 . S
H246 C225 0.931 . S
H247 C226 0.931 . S
C248 C249 1.349 1_565 S
C248 C250 1.327 . S
C248 H273 0.950 . S
C249 C248 1.349 1_545 S
C249 C265 1.349 . S
C250 C248 1.327 . S
C250 C269 1.429 1_565 S
C250 H274 0.950 . S
C251 C268 1.574 . S
C251 C270 1.368 . S
C251 H275 0.949 . S
H252 C256 0.949 . S
C253 C254 1.349 . S
C253 C255 1.327 . S
C253 H276 0.950 . S
C254 C253 1.349 . S
C254 C266 1.349 1_545 S
C255 C253 1.327 . S
C255 C271 1.429 . S
C255 H277 0.950 . S
C256 H252 0.949 . S
C256 C264 1.574 . S
C256 C272 1.368 1_565 S
H257 C265 0.950 . S
H258 C263 0.950 . S
H259 C264 0.949 . S
H260 C266 0.950 . S
H261 C267 0.950 . S
H262 C268 0.949 . S
C263 H258 0.950 . S
C263 C265 1.327 . S
C263 C269 1.429 . S
C264 C256 1.574 . S
C264 H259 0.949 . S
C264 C270 1.368 1_565 S
C265 C249 1.349 . S
C265 H257 0.950 . S
C265 C263 1.327 . S
C266 C254 1.349 1_565 S
C266 H260 0.950 . S
C266 C267 1.327 . S
C267 H261 0.950 . S
C267 C266 1.327 . S
C267 C271 1.429 1_565 S
C268 C251 1.574 . S
C268 H262 0.949 . S
C268 C272 1.368 . S
C269 C250 1.429 1_545 S
C269 C263 1.429 . S
C269 C270 1.523 . S
C270 C251 1.368 . S
C270 C264 1.368 1_545 S
C270 C269 1.523 . S
C271 C255 1.429 . S
C271 C267 1.429 1_545 S
C271 C272 1.523 . S
C272 C256 1.368 1_545 S
C272 C268 1.368 . S
C272 C271 1.523 . S
H273 C248 0.950 . S
H274 C250 0.950 . S
H275 C251 0.949 . S
H276 C253 0.950 . S
H277 C255 0.950 . S
C278 C279 1.349 . S
C278 C280 1.327 . S
C278 H303 0.950 . S
C279 C278 1.349 . S
C279 C295 1.349 . S
C280 C278 1.327 . S
C280 C299 1.429 . S
C280 H304 0.950 . S
C281 C298 1.574 . S
C281 C300 1.368 . S
C281 H305 0.949 . S
H282 C286 0.949 . S
C283 C284 1.349 . S
C283 C285 1.327 . S
C283 H306 0.950 . S
C284 C283 1.349 . S
C284 C296 1.349 . S
C285 C283 1.327 . S
C285 C301 1.429 . S
C285 H307 0.950 . S
C286 H282 0.949 . S
C286 C294 1.574 . S
C286 C302 1.368 . S
H287 C295 0.950 . S
H288 C293 0.950 . S
H289 C294 0.949 . S
H290 C296 0.950 . S
H291 C297 0.950 . S
H292 C298 0.949 . S
C293 H288 0.950 . S
C293 C295 1.327 . S
C293 C299 1.429 . S
C294 C286 1.574 . S
C294 H289 0.949 . S
C294 C300 1.368 . S
C295 C279 1.349 . S
C295 H287 0.950 . S
C295 C293 1.327 . S
C296 C284 1.349 . S
C296 H290 0.950 . S
C296 C297 1.327 . S
C297 H291 0.950 . S
C297 C296 1.327 . S
C297 C301 1.429 . S
C298 C281 1.574 . S
C298 H292 0.949 . S
C298 C302 1.368 . S
C299 C280 1.429 . S
C299 C293 1.429 . S
C299 C300 1.523 . S
C300 C281 1.368 . S
C300 C294 1.368 . S
C300 C299 1.523 . S
C301 C285 1.429 . S
C301 C297 1.429 . S
C301 C302 1.523 . S
C302 C286 1.368 . S
C302 C298 1.368 . S
C302 C301 1.523 . S
H303 C278 0.950 . S
H304 C280 0.950 . S
H305 C281 0.949 . S
H306 C283 0.950 . S
H307 C285 0.950 . S
C308 C309 1.349 . S
C308 C310 1.327 . S
C308 H333 0.950 . S
C309 C308 1.349 . S
C309 C325 1.349 . S
C310 C308 1.327 . S
C310 C329 1.429 . S
C310 H334 0.950 . S
C311 C328 1.574 . S
C311 C330 1.368 . S
C311 H335 0.949 . S
H312 C316 0.949 . S
C313 C314 1.349 . S
C313 C315 1.327 . S
C313 H336 0.950 . S
C314 C313 1.349 . S
C314 C326 1.349 . S
C315 C313 1.327 . S
C315 C331 1.429 . S
C315 H337 0.950 . S
C316 H312 0.949 . S
C316 C324 1.574 . S
C316 C332 1.368 . S
H317 C325 0.950 . S
H318 C323 0.950 . S
H319 C324 0.949 . S
H320 C326 0.950 . S
H321 C327 0.950 . S
H322 C328 0.949 . S
C323 H318 0.950 . S
C323 C325 1.327 . S
C323 C329 1.429 . S
C324 C316 1.574 . S
C324 H319 0.949 . S
C324 C330 1.368 . S
C325 C309 1.349 . S
C325 H317 0.950 . S
C325 C323 1.327 . S
C326 C314 1.349 . S
C326 H320 0.950 . S
C326 C327 1.327 . S
C327 H321 0.950 . S
C327 C326 1.327 . S
C327 C331 1.429 . S
C328 C311 1.574 . S
C328 H322 0.949 . S
C328 C332 1.368 . S
C329 C310 1.429 . S
C329 C323 1.429 . S
C329 C330 1.523 . S
C330 C311 1.368 . S
C330 C324 1.368 . S
C330 C329 1.523 . S
C331 C315 1.429 . S
C331 C327 1.429 . S
C331 C332 1.523 . S
C332 C316 1.368 . S
C332 C328 1.368 . S
C332 C331 1.523 . S
H333 C308 0.950 . S
H334 C310 0.950 . S
H335 C311 0.949 . S
H336 C313 0.950 . S
H337 C315 0.950 . S
C338 C339 1.349 . S
C338 C340 1.327 . S
C338 H363 0.950 . S
C339 C338 1.349 . S
C339 C355 1.349 . S
C340 C338 1.327 . S
C340 C359 1.429 . S
C340 H364 0.950 . S
C341 C358 1.574 . S
C341 C360 1.368 1_655 S
C341 H365 0.949 . S
H342 C346 0.949 . S
C343 C344 1.349 1_655 S
C343 C345 1.327 . S
C343 H366 0.950 . S
C344 C343 1.349 1_455 S
C344 C356 1.349 . S
C345 C343 1.327 . S
C345 C361 1.429 1_655 S
C345 H367 0.950 . S
C346 H342 0.949 . S
C346 C354 1.574 . S
C346 C362 1.368 . S
H347 C355 0.950 1_655 S
H348 C353 0.924 1_655 S
H349 C354 0.949 . S
H350 C356 0.950 . S
H351 C357 0.950 . S
H352 C358 0.949 . S
C353 H348 0.924 1_455 S
C353 C355 1.330 . S
C353 C359 1.452 . S
C354 C346 1.574 . S
C354 H349 0.949 . S
C354 C360 1.368 . S
C355 C339 1.349 . S
C355 H347 0.950 1_455 S
C355 C353 1.330 . S
C356 C344 1.349 . S
C356 H350 0.950 . S
C356 C357 1.327 . S
C357 H351 0.950 . S
C357 C356 1.327 . S
C357 C361 1.429 . S
C358 C341 1.574 . S
C358 H352 0.949 . S
C358 C362 1.368 1_655 S
C359 C340 1.429 . S
C359 C353 1.452 . S
C359 C360 1.523 . S
C360 C341 1.368 1_455 S
C360 C354 1.368 . S
C360 C359 1.523 . S
C361 C345 1.429 1_455 S
C361 C357 1.429 . S
C361 C362 1.523 . S
C362 C346 1.368 . S
C362 C358 1.368 1_455 S
C362 C361 1.523 . S
H363 C338 0.950 . S
H364 C340 0.950 . S
H365 C341 0.949 . S
H366 C343 0.950 . S
H367 C345 0.950 . S
C368 C369 1.349 1_545 S
C368 C370 1.327 . S
C368 H393 0.950 . S
C369 C368 1.349 1_565 S
C369 C385 1.349 . S
C370 C368 1.327 . S
C370 C389 1.429 1_545 S
C370 H394 0.950 . S
C371 C388 1.574 . S
C371 C390 1.368 1_556 S
C371 H395 0.949 . S
H372 C376 0.949 . S
C373 C374 1.349 1_565 S
C373 C375 1.327 . S
C373 H396 0.950 . S
C374 C373 1.349 1_545 S
C374 C386 1.349 . S
C375 C373 1.327 . S
C375 C391 1.389 1_565 S
C375 H397 0.950 . S
C376 H372 0.949 . S
C376 C384 1.574 1_556 S
C376 C392 1.373 . S
H377 C385 0.950 . S
H378 C383 0.950 . S
H379 C384 0.949 . S
H380 C386 0.950 . S
H381 C387 0.950 . S
H382 C388 0.949 . S
C383 H378 0.950 . S
C383 C385 1.327 . S
C383 C389 1.429 . S
C384 C376 1.574 1_554 S
C384 H379 0.949 . S
C384 C390 1.368 1_545 S
C385 C369 1.349 . S
C385 H377 0.950 . S
C385 C383 1.327 . S
C386 C374 1.349 . S
C386 H380 0.950 . S
C386 C387 1.327 . S
C387 H381 0.950 . S
C387 C386 1.327 . S
C387 C391 1.472 . S
C388 C371 1.574 . S
C388 H382 0.949 . S
C388 C392 1.364 1_565 S
C389 C370 1.429 1_565 S
C389 C383 1.429 . S
C389 C390 1.523 . S
C390 C371 1.368 1_554 S
C390 C384 1.368 1_565 S
C390 C389 1.523 . S
C391 C375 1.389 1_545 S
C391 C387 1.472 . S
C391 C392 1.522 . S
C392 C376 1.373 . S
C392 C388 1.364 1_545 S
C392 C391 1.522 . S
H393 C368 0.950 . S
H394 C370 0.950 . S
H395 C371 0.949 . S
H396 C373 0.950 . S
H397 C375 0.950 . S
C398 C399 1.349 . S
C398 C400 1.327 . S
C398 H423 0.950 . S
C399 C398 1.349 . S
C399 C415 1.349 . S
C400 C398 1.327 . S
C400 C419 1.429 . S
C400 H424 0.950 . S
C401 C418 1.574 . S
C401 C420 1.368 1_556 S
C401 H425 0.949 . S
H402 C406 0.949 . S
C403 C404 1.349 . S
C403 C405 1.327 . S
C403 H426 0.950 . S
C404 C403 1.349 . S
C404 C416 1.349 . S
C405 C403 1.327 . S
C405 C421 1.429 . S
C405 H427 0.950 . S
C406 H402 0.949 . S
C406 C414 1.574 1_556 S
C406 C422 1.368 . S
H407 C415 0.950 . S
H408 C413 0.950 . S
H409 C414 0.949 . S
H410 C416 0.950 . S
H411 C417 0.950 . S
H412 C418 0.949 . S
C413 H408 0.950 . S
C413 C415 1.327 . S
C413 C419 1.429 . S
C414 C406 1.574 1_554 S
C414 H409 0.949 . S
C414 C420 1.368 . S
C415 C399 1.349 . S
C415 H407 0.950 . S
C415 C413 1.327 . S
C416 C404 1.349 . S
C416 H410 0.950 . S
C416 C417 1.327 . S
C417 H411 0.950 . S
C417 C416 1.327 . S
C417 C421 1.429 . S
C418 C401 1.574 . S
C418 H412 0.949 . S
C418 C422 1.368 . S
C419 C400 1.429 . S
C419 C413 1.429 . S
C419 C420 1.523 . S
C420 C401 1.368 1_554 S
C420 C414 1.368 . S
C420 C419 1.523 . S
C421 C405 1.429 . S
C421 C417 1.429 . S
C421 C422 1.523 . S
C422 C406 1.368 . S
C422 C418 1.368 . S
C422 C421 1.523 . S
H423 C398 0.950 . S
H424 C400 0.950 . S
H425 C401 0.949 . S
H426 C403 0.950 . S
H427 C405 0.950 . S
C428 C429 1.349 . S
C428 C430 1.327 . S
C428 H453 0.950 . S
C429 C428 1.349 . S
C429 C445 1.349 . S
C430 C428 1.327 . S
C430 C449 1.429 . S
C430 H454 0.950 . S
C431 C448 1.574 1_554 S
C431 C450 1.368 . S
C431 H455 0.949 . S
H432 C436 0.949 . S
C433 C434 1.349 . S
C433 C435 1.327 . S
C433 H456 0.950 . S
C434 C433 1.349 . S
C434 C446 1.349 . S
C435 C433 1.327 . S
C435 C451 1.429 . S
C435 H457 0.950 . S
C436 H432 0.949 . S
C436 C444 1.574 . S
C436 C452 1.368 . S
H437 C445 0.950 . S
H438 C443 0.950 . S
H439 C444 0.949 . S
H440 C446 0.950 . S
H441 C447 0.950 . S
H442 C448 0.949 . S
C443 H438 0.950 . S
C443 C445 1.327 . S
C443 C449 1.429 . S
C444 C436 1.574 . S
C444 H439 0.949 . S
C444 C450 1.368 1_556 S
C445 C429 1.349 . S
C445 H437 0.950 . S
C445 C443 1.327 . S
C446 C434 1.349 . S
C446 H440 0.950 . S
C446 C447 1.327 . S
C447 H441 0.950 . S
C447 C446 1.327 . S
C447 C451 1.429 . S
C448 C431 1.574 1_556 S
C448 H442 0.949 . S
C448 C452 1.368 . S
C449 C430 1.429 . S
C449 C443 1.429 . S
C449 C450 1.523 . S
C450 C431 1.368 . S
C450 C444 1.368 1_554 S
C450 C449 1.523 . S
C451 C435 1.429 . S
C451 C447 1.429 . S
C451 C452 1.523 . S
C452 C436 1.368 . S
C452 C448 1.368 . S
C452 C451 1.523 . S
H453 C428 0.950 . S
H454 C430 0.950 . S
H455 C431 0.949 . S
H456 C433 0.950 . S
H457 C435 0.950 . S
C458 C459 1.349 1_455 S
C458 C460 1.327 . S
C458 H483 0.950 . S
C459 C458 1.349 1_655 S
C459 C475 1.349 . S
C460 C458 1.327 . S
C460 C479 1.429 1_455 S
C460 H484 0.950 . S
C461 C478 1.574 1_554 S
C461 C480 1.407 . S
C461 H485 0.949 . S
H462 C466 0.949 . S
C463 C464 1.349 1_655 S
C463 C465 1.327 . S
C463 H486 0.950 . S
C464 C463 1.349 1_455 S
C464 C476 1.349 . S
C465 C463 1.327 . S
C465 C481 1.429 1_655 S
C465 H487 0.950 . S
C466 H462 0.949 . S
C466 C474 1.574 . S
C466 C482 1.382 . S
H467 C475 0.950 . S
H468 C473 0.950 . S
H469 C474 0.949 . S
H470 C476 0.950 . S
H471 C477 0.950 . S
H472 C478 0.949 . S
C473 H468 0.950 . S
C473 C475 1.327 . S
C473 C479 1.429 . S
C474 C466 1.574 . S
C474 H469 0.949 . S
C474 C480 1.329 1_456 S
C475 C459 1.349 . S
C475 H467 0.950 . S
C475 C473 1.327 . S
C476 C464 1.349 . S
C476 H470 0.950 . S
C476 C477 1.327 . S
C477 H471 0.950 . S
C477 C476 1.327 . S
C477 C481 1.429 . S
C478 C461 1.574 1_556 S
C478 H472 0.949 . S
C478 C482 1.354 1_655 S
C479 C460 1.429 1_655 S
C479 C473 1.429 . S
C479 C480 1.526 . S
C480 C461 1.407 . S
C480 C474 1.329 1_654 S
C480 C479 1.526 . S
C481 C465 1.429 1_455 S
C481 C477 1.429 . S
C481 C482 1.524 . S
C482 C466 1.382 . S
C482 C478 1.354 1_455 S
C482 C481 1.524 . S
H483 C458 0.950 . S
H484 C460 0.950 . S
H485 C461 0.949 . S
H486 C463 0.950 . S
H487 C465 0.950 . S
C488 C489 1.349 . S
C488 C490 1.337 . S
C488 H513 0.956 . S
C489 C488 1.349 . S
C489 C505 1.349 . S
C490 C488 1.337 . S
C490 C509 1.443 . S
C490 H514 0.927 1_455 S
C491 C508 1.574 . S
C491 C510 1.368 . S
C491 H515 0.949 . S
H492 C496 0.949 . S
C493 C494 1.349 . S
C493 C495 1.327 . S
C493 H516 0.950 . S
C494 C493 1.349 . S
C494 C506 1.349 . S
C495 C493 1.327 . S
C495 C511 1.429 . S
C495 H517 0.950 1_655 S
C496 H492 0.949 . S
C496 C504 1.574 . S
C496 C512 1.368 . S
H497 C505 0.950 . S
H498 C503 0.950 . S
H499 C504 0.949 . S
H500 C506 0.950 . S
H501 C507 0.950 . S
H502 C508 0.949 . S
C503 H498 0.950 . S
C503 C505 1.327 . S
C503 C509 1.429 . S
C504 C496 1.574 . S
C504 H499 0.949 . S
C504 C510 1.368 1_655 S
C505 C489 1.349 . S
C505 H497 0.950 . S
C505 C503 1.327 . S
C506 C494 1.349 . S
C506 H500 0.950 . S
C506 C507 1.327 . S
C507 H501 0.950 . S
C507 C506 1.327 . S
C507 C511 1.429 . S
C508 C491 1.574 . S
C508 H502 0.949 . S
C508 C512 1.368 1_455 S
C509 C490 1.443 . S
C509 C503 1.429 . S
C509 C510 1.523 . S
C510 C491 1.368 . S
C510 C504 1.368 1_455 S
C510 C509 1.523 . S
C511 C495 1.429 . S
C511 C507 1.429 . S
C511 C512 1.523 . S
C512 C496 1.368 . S
C512 C508 1.368 1_655 S
C512 C511 1.523 . S
H513 C488 0.956 . S
H514 C490 0.927 1_655 S
H515 C491 0.949 . S
H516 C493 0.950 . S
H517 C495 0.950 1_455 S
C518 C519 1.349 . S
C518 C520 1.327 . S
C518 H543 0.950 . S
C519 C518 1.349 . S
C519 C535 1.349 1_545 S
C520 C518 1.327 . S
C520 C539 1.429 . S
C520 H544 0.950 . S
C521 C538 1.574 . S
C521 C540 1.368 1_565 S
C521 H545 0.949 . S
H522 C526 0.949 . S
C523 C524 1.349 . S
C523 C525 1.327 . S
C523 H546 0.950 . S
C524 C523 1.349 . S
C524 C536 1.378 . S
C525 C523 1.327 . S
C525 C541 1.429 . S
C525 H547 0.950 . S
C526 H522 0.949 . S
C526 C534 1.574 . S
C526 C542 1.368 1_545 S
H527 C535 0.950 . S
H528 C533 0.950 . S
H529 C534 0.949 . S
H530 C536 0.928 1_545 S
H531 C537 0.950 . S
H532 C538 0.949 . S
C533 H528 0.950 . S
C533 C535 1.327 . S
C533 C539 1.429 1_565 S
C534 C526 1.574 . S
C534 H529 0.949 . S
C534 C540 1.368 . S
C535 C519 1.349 1_565 S
C535 H527 0.950 . S
C535 C533 1.327 . S
C536 C524 1.378 . S
C536 H530 0.928 1_565 S
C536 C537 1.320 1_565 S
C537 H531 0.950 . S
C537 C536 1.320 1_545 S
C537 C541 1.429 1_545 S
C538 C521 1.574 . S
C538 H532 0.949 . S
C538 C542 1.368 . S
C539 C520 1.429 . S
C539 C533 1.429 1_545 S
C539 C540 1.523 . S
C540 C521 1.368 1_545 S
C540 C534 1.368 . S
C540 C539 1.523 . S
C541 C525 1.429 . S
C541 C537 1.429 1_565 S
C541 C542 1.523 . S
C542 C526 1.368 1_565 S
C542 C538 1.368 . S
C542 C541 1.523 . S
H543 C518 0.950 . S
H544 C520 0.950 . S
H545 C521 0.949 . S
H546 C523 0.950 . S
H547 C525 0.950 . S
C548 C549 1.349 . S
C548 C550 1.327 . S
C548 H573 0.950 . S
C549 C548 1.349 . S
C549 C565 1.349 . S
C550 C548 1.327 . S
C550 C569 1.429 . S
C550 H574 0.950 . S
C551 C568 1.574 . S
C551 C570 1.368 . S
C551 H575 0.949 . S
H552 C556 0.949 . S
C553 C554 1.349 . S
C553 C555 1.327 . S
C553 H576 0.950 . S
C554 C553 1.349 . S
C554 C566 1.349 . S
C555 C553 1.327 . S
C555 C571 1.429 . S
C555 H577 0.950 . S
C556 H552 0.949 . S
C556 C564 1.574 . S
C556 C572 1.368 . S
H557 C565 0.950 . S
H558 C563 0.950 . S
H559 C564 0.949 . S
H560 C566 0.950 . S
H561 C567 0.950 . S
H562 C568 0.949 . S
C563 H558 0.950 . S
C563 C565 1.327 . S
C563 C569 1.429 . S
C564 C556 1.574 . S
C564 H559 0.949 . S
C564 C570 1.368 . S
C565 C549 1.349 . S
C565 H557 0.950 . S
C565 C563 1.327 . S
C566 C554 1.349 . S
C566 H560 0.950 . S
C566 C567 1.327 . S
C567 H561 0.950 . S
C567 C566 1.327 . S
C567 C571 1.429 . S
C568 C551 1.574 . S
C568 H562 0.949 . S
C568 C572 1.368 . S
C569 C550 1.429 . S
C569 C563 1.429 . S
C569 C570 1.523 . S
C570 C551 1.368 . S
C570 C564 1.368 . S
C570 C569 1.523 . S
C571 C555 1.429 . S
C571 C567 1.429 . S
C571 C572 1.523 . S
C572 C556 1.368 . S
C572 C568 1.368 . S
C572 C571 1.523 . S
H573 C548 0.950 . S
H574 C550 0.950 . S
H575 C551 0.949 . S
H576 C553 0.950 . S
H577 C555 0.950 . S
C578 C579 1.349 . S
C578 C580 1.327 . S
C578 H603 0.950 . S
C579 C578 1.349 . S
C579 C595 1.349 . S
C580 C578 1.327 . S
C580 C599 1.429 . S
C580 H604 0.950 . S
C581 C598 1.574 . S
C581 C600 1.368 . S
C581 H605 0.949 . S
H582 C586 0.949 . S
C583 C584 1.349 . S
C583 C585 1.327 . S
C583 H606 0.950 . S
C584 C583 1.349 . S
C584 C596 1.349 . S
C585 C583 1.327 . S
C585 C601 1.429 . S
C585 H607 0.950 . S
C586 H582 0.949 . S
C586 C594 1.574 . S
C586 C602 1.368 . S
H587 C595 0.950 . S
H588 C593 0.950 . S
H589 C594 0.949 . S
H590 C596 0.950 . S
H591 C597 0.950 . S
H592 C598 0.949 . S
C593 H588 0.950 . S
C593 C595 1.327 . S
C593 C599 1.429 . S
C594 C586 1.574 . S
C594 H589 0.949 . S
C594 C600 1.368 . S
C595 C579 1.349 . S
C595 H587 0.950 . S
C595 C593 1.327 . S
C596 C584 1.349 . S
C596 H590 0.950 . S
C596 C597 1.327 . S
C597 H591 0.950 . S
C597 C596 1.327 . S
C597 C601 1.429 . S
C598 C581 1.574 . S
C598 H592 0.949 . S
C598 C602 1.368 . S
C599 C580 1.429 . S
C599 C593 1.429 . S
C599 C600 1.523 . S
C600 C581 1.368 . S
C600 C594 1.368 . S
C600 C599 1.523 . S
C601 C585 1.429 . S
C601 C597 1.429 . S
C601 C602 1.523 . S
C602 C586 1.368 . S
C602 C598 1.368 . S
C602 C601 1.523 . S
H603 C578 0.950 . S
H604 C580 0.950 . S
H605 C581 0.949 . S
H606 C583 0.950 . S
H607 C585 0.950 . S
C608 C609 1.349 . S
C608 C610 1.327 . S
C608 H633 0.950 . S
C609 C608 1.349 . S
C609 C625 1.349 1_655 S
C610 C608 1.327 . S
C610 C629 1.429 1_655 S
C610 H634 0.950 . S
C611 C628 1.574 . S
C611 C630 1.368 . S
C611 H635 0.949 . S
H612 C616 0.949 1_655 S
C613 C614 1.349 . S
C613 C615 1.327 1_556 S
C613 H636 0.950 . S
C614 C613 1.349 . S
C614 C626 1.349 . S
C615 C613 1.327 1_554 S
C615 C631 1.429 1_554 S
C615 H637 0.950 . S
C616 H612 0.949 1_455 S
C616 C624 1.574 1_456 S
C616 C632 1.368 1_556 S
H617 C625 0.950 . S
H618 C623 0.950 . S
H619 C624 0.949 . S
H620 C626 0.950 . S
H621 C627 0.957 . S
H622 C628 0.949 . S
C623 H618 0.950 . S
C623 C625 1.327 . S
C623 C629 1.429 . S
C624 C616 1.574 1_654 S
C624 H619 0.949 . S
C624 C630 1.368 1_655 S
C625 C609 1.349 1_455 S
C625 H617 0.950 . S
C625 C623 1.327 . S
C626 C614 1.349 . S
C626 H620 0.950 . S
C626 C627 1.327 . S
C627 H621 0.957 . S
C627 C626 1.327 . S
C627 C631 1.429 . S
C628 C611 1.574 . S
C628 H622 0.949 . S
C628 C632 1.368 . S
C629 C610 1.429 1_455 S
C629 C623 1.429 . S
C629 C630 1.523 . S
C630 C611 1.368 . S
C630 C624 1.368 1_455 S
C630 C629 1.523 . S
C631 C615 1.429 1_556 S
C631 C627 1.429 . S
C631 C632 1.523 1_556 S
C632 C616 1.368 1_554 S
C632 C628 1.368 . S
C632 C631 1.523 1_554 S
H633 C608 0.950 . S
H634 C610 0.950 . S
H635 C611 0.949 . S
H636 C613 0.950 . S
H637 C615 0.950 . S
C638 C639 1.337 1_545 S
C638 C640 1.337 . S
C638 H663 0.955 . S
C639 C638 1.337 1_565 S
C639 C655 1.349 . S
C640 C638 1.337 . S
C640 C659 1.429 . S
C640 H664 0.950 . S
C641 C658 1.574 . S
C641 C660 1.368 . S
C641 H665 0.969 . S
H642 C646 0.949 . S
C643 C644 1.349 . S
C643 C645 1.327 1_556 S
C643 H666 0.950 . S
C644 C643 1.349 . S
C644 C656 1.349 . S
C645 C643 1.327 1_554 S
C645 C661 1.429 1_554 S
C645 H667 0.950 . S
C646 H642 0.949 . S
C646 C654 1.574 1_556 S
C646 C662 1.368 1_556 S
H647 C655 0.950 . S
H648 C653 0.950 . S
H649 C654 0.949 . S
H650 C656 0.950 . S
H651 C657 0.950 . S
H652 C658 0.949 . S
C653 H648 0.950 . S
C653 C655 1.327 . S
C653 C659 1.429 1_565 S
C654 C646 1.574 1_554 S
C654 H649 0.949 . S
C654 C660 1.368 . S
C655 C639 1.349 . S
C655 H647 0.950 . S
C655 C653 1.327 . S
C656 C644 1.349 . S
C656 H650 0.950 . S
C656 C657 1.327 . S
C657 H651 0.950 . S
C657 C656 1.327 . S
C657 C661 1.429 . S
C658 C641 1.574 . S
C658 H652 0.949 . S
C658 C662 1.368 . S
C659 C640 1.429 . S
C659 C653 1.429 1_545 S
C659 C660 1.523 . S
C660 C641 1.368 . S
C660 C654 1.368 . S
C660 C659 1.523 . S
C661 C645 1.429 1_556 S
C661 C657 1.429 . S
C661 C662 1.523 1_556 S
C662 C646 1.368 1_554 S
C662 C658 1.368 . S
C662 C661 1.523 1_554 S
H663 C638 0.955 . S
H664 C640 0.950 . S
H665 C641 0.969 . S
H666 C643 0.950 . S
H667 C645 0.950 . S
C668 C669 1.349 . S
C668 C670 1.327 . S
C668 H693 0.950 . S
C669 C668 1.349 . S
C669 C685 1.349 . S
C670 C668 1.327 . S
C670 C689 1.429 . S
C670 H694 0.950 . S
C671 C688 1.574 . S
C671 C690 1.368 . S
C671 H695 0.949 . S
H672 C676 0.949 . S
C673 C674 1.349 . S
C673 C675 1.327 . S
C673 H696 0.950 . S
C674 C673 1.349 . S
C674 C686 1.349 . S
C675 C673 1.327 . S
C675 C691 1.429 . S
C675 H697 0.950 1_556 S
C676 H672 0.949 . S
C676 C684 1.574 1_556 S
C676 C692 1.368 1_556 S
H677 C685 0.950 . S
H678 C683 0.950 . S
H679 C684 0.949 . S
H680 C686 0.950 . S
H681 C687 0.950 . S
H682 C688 0.949 . S
C683 H678 0.950 . S
C683 C685 1.327 . S
C683 C689 1.429 . S
C684 C676 1.574 1_554 S
C684 H679 0.949 . S
C684 C690 1.368 . S
C685 C669 1.349 . S
C685 H677 0.950 . S
C685 C683 1.327 . S
C686 C674 1.349 . S
C686 H680 0.950 . S
C686 C687 1.327 . S
C687 H681 0.950 . S
C687 C686 1.327 . S
C687 C691 1.429 . S
C688 C671 1.574 . S
C688 H682 0.949 . S
C688 C692 1.368 . S
C689 C670 1.429 . S
C689 C683 1.429 . S
C689 C690 1.523 . S
C690 C671 1.368 . S
C690 C684 1.368 . S
C690 C689 1.523 . S
C691 C675 1.429 . S
C691 C687 1.429 . S
C691 C692 1.523 1_556 S
C692 C676 1.368 1_554 S
C692 C688 1.368 . S
C692 C691 1.523 1_554 S
H693 C668 0.950 . S
H694 C670 0.950 . S
H695 C671 0.949 . S
H696 C673 0.950 . S
H697 C675 0.950 1_554 S
C698 C699 1.349 . S
C698 C700 1.327 . S
C698 H723 0.950 . S
C699 C698 1.349 . S
C699 C715 1.349 . S
C700 C698 1.327 . S
C700 C719 1.429 . S
C700 H724 0.950 . S
C701 C718 1.574 . S
C701 C720 1.368 . S
C701 H725 0.949 . S
H702 C706 0.949 . S
C703 C704 1.349 . S
C703 C705 1.327 . S
C703 H726 0.950 . S
C704 C703 1.349 . S
C704 C716 1.349 . S
C705 C703 1.327 . S
C705 C721 1.429 . S
C705 H727 0.950 . S
C706 H702 0.949 . S
C706 C714 1.574 . S
C706 C722 1.368 . S
H707 C715 0.950 . S
H708 C713 0.950 . S
H709 C714 0.949 . S
H710 C716 0.950 . S
H711 C717 0.950 1_554 S
H712 C718 0.949 1_556 S
C713 H708 0.950 . S
C713 C715 1.327 . S
C713 C719 1.429 . S
C714 C706 1.574 . S
C714 H709 0.949 . S
C714 C720 1.368 . S
C715 C699 1.349 . S
C715 H707 0.950 . S
C715 C713 1.327 . S
C716 C704 1.349 . S
C716 H710 0.950 . S
C716 C717 1.327 . S
C717 H711 0.950 1_556 S
C717 C716 1.327 . S
C717 C721 1.429 . S
C718 C701 1.574 . S
C718 H712 0.949 1_554 S
C718 C722 1.368 . S
C719 C700 1.429 . S
C719 C713 1.429 . S
C719 C720 1.523 . S
C720 C701 1.368 . S
C720 C714 1.368 . S
C720 C719 1.523 . S
C721 C705 1.429 . S
C721 C717 1.429 . S
C721 C722 1.523 1_556 S
C722 C706 1.368 . S
C722 C718 1.368 . S
C722 C721 1.523 1_554 S
H723 C698 0.950 . S
H724 C700 0.950 . S
H725 C701 0.949 . S
H726 C703 0.950 . S
H727 C705 0.950 . S
C728 C729 1.349 . S
C728 C730 1.327 . S
C728 H753 0.950 . S
C729 C728 1.349 . S
C729 C745 1.349 . S
C730 C728 1.327 . S
C730 C749 1.429 . S
C730 H754 0.950 . S
C731 C748 1.574 . S
C731 C750 1.368 . S
C731 H755 0.949 1_455 S
H732 C736 0.949 . S
C733 C734 1.349 . S
C733 C735 1.327 . S
C733 H756 0.950 1_455 S
C734 C733 1.349 . S
C734 C746 1.349 . S
C735 C733 1.327 . S
C735 C751 1.429 . S
C735 H757 0.950 1_455 S
C736 H732 0.949 . S
C736 C744 1.574 . S
C736 C752 1.368 . S
H737 C745 0.950 1_655 S
H738 C743 0.950 1_655 S
H739 C744 0.949 . S
H740 C746 0.950 . S
H741 C747 0.950 . S
H742 C748 0.949 1_655 S
C743 H738 0.950 1_455 S
C743 C745 1.327 . S
C743 C749 1.429 . S
C744 C736 1.574 . S
C744 H739 0.949 . S
C744 C750 1.368 . S
C745 C729 1.349 . S
C745 H737 0.950 1_455 S
C745 C743 1.327 . S
C746 C734 1.349 . S
C746 H740 0.950 . S
C746 C747 1.327 . S
C747 H741 0.950 . S
C747 C746 1.327 . S
C747 C751 1.429 . S
C748 C731 1.574 . S
C748 H742 0.949 1_455 S
C748 C752 1.368 . S
C749 C730 1.429 . S
C749 C743 1.429 . S
C749 C750 1.523 . S
C750 C731 1.368 . S
C750 C744 1.368 . S
C750 C749 1.523 . S
C751 C735 1.429 . S
C751 C747 1.429 . S
C751 C752 1.523 . S
C752 C736 1.368 . S
C752 C748 1.368 . S
C752 C751 1.523 . S
H753 C728 0.950 . S
H754 C730 0.950 . S
H755 C731 0.949 1_655 S
H756 C733 0.950 1_655 S
H757 C735 0.950 1_655 S
C758 C759 1.349 . S
C758 C760 1.327 . S
C758 H783 0.950 . S
C759 C758 1.349 . S
C759 C775 1.384 . S
C760 C758 1.327 . S
C760 C779 1.429 . S
C760 H784 0.950 . S
C761 C778 1.574 . S
C761 C780 1.376 . S
C761 H785 0.943 1_545 S
H762 C766 0.949 . S
C763 C764 1.349 . S
C763 C765 1.327 . S
C763 H786 0.950 1_545 S
C764 C763 1.349 . S
C764 C776 1.349 . S
C765 C763 1.327 . S
C765 C781 1.429 . S
C765 H787 0.950 1_545 S
C766 H762 0.949 . S
C766 C774 1.574 . S
C766 C782 1.368 . S
H767 C775 0.916 1_565 S
H768 C773 0.924 1_565 S
H769 C774 0.949 . S
H770 C776 0.950 . S
H771 C777 0.950 . S
H772 C778 0.935 1_565 S
C773 H768 0.924 1_545 S
C773 C775 1.327 . S
C773 C779 1.454 . S
C774 C766 1.574 . S
C774 H769 0.949 . S
C774 C780 1.368 . S
C775 C759 1.384 . S
C775 H767 0.916 1_545 S
C775 C773 1.327 . S
C776 C764 1.349 . S
C776 H770 0.950 . S
C776 C777 1.327 . S
C777 H771 0.950 . S
C777 C776 1.327 . S
C777 C781 1.429 . S
C778 C761 1.574 . S
C778 H772 0.935 1_545 S
C778 C782 1.384 . S
C779 C760 1.429 . S
C779 C773 1.454 . S
C779 C780 1.523 . S
C780 C761 1.376 . S
C780 C774 1.368 . S
C780 C779 1.523 . S
C781 C765 1.429 . S
C781 C777 1.429 . S
C781 C782 1.523 . S
C782 C766 1.368 . S
C782 C778 1.384 . S
C782 C781 1.523 . S
H783 C758 0.950 . S
H784 C760 0.950 . S
H785 C761 0.943 1_565 S
H786 C763 0.950 1_565 S
H787 C765 0.950 1_565 S
C788 C789 1.349 . S
C788 C790 1.327 . S
C788 H813 0.950 . S
C789 C788 1.349 . S
C789 C805 1.349 . S
C790 C788 1.327 . S
C790 C809 1.429 . S
C790 H814 0.950 . S
C791 C808 1.574 . S
C791 C810 1.368 . S
C791 H815 0.949 . S
H792 C796 0.949 . S
C793 C794 1.349 . S
C793 C795 1.327 . S
C793 H816 0.950 . S
C794 C793 1.349 . S
C794 C806 1.349 . S
C795 C793 1.327 . S
C795 C811 1.429 . S
C795 H817 0.950 . S
C796 H792 0.949 . S
C796 C804 1.574 . S
C796 C812 1.368 . S
H797 C805 0.950 . S
H798 C803 0.950 . S
H799 C804 0.949 . S
H800 C806 0.950 . S
H801 C807 0.950 . S
H802 C808 0.949 . S
C803 H798 0.950 . S
C803 C805 1.327 . S
C803 C809 1.429 . S
C804 C796 1.574 . S
C804 H799 0.949 . S
C804 C810 1.368 . S
C805 C789 1.349 . S
C805 H797 0.950 . S
C805 C803 1.327 . S
C806 C794 1.349 . S
C806 H800 0.950 . S
C806 C807 1.327 . S
C807 H801 0.950 . S
C807 C806 1.327 . S
C807 C811 1.429 . S
C808 C791 1.574 . S
C808 H802 0.949 . S
C808 C812 1.368 . S
C809 C790 1.429 . S
C809 C803 1.429 . S
C809 C810 1.523 . S
C810 C791 1.368 . S
C810 C804 1.368 . S
C810 C809 1.523 . S
C811 C795 1.429 . S
C811 C807 1.429 . S
C811 C812 1.523 . S
C812 C796 1.368 . S
C812 C808 1.368 . S
C812 C811 1.523 . S
H813 C788 0.950 . S
H814 C790 0.950 . S
H815 C791 0.949 . S
H816 C793 0.950 . S
H817 C795 0.950 . S
C818 C819 1.349 . S
C818 C820 1.327 . S
C818 H843 0.950 . S
C819 C818 1.349 . S
C819 C835 1.349 . S
C820 C818 1.327 . S
C820 C839 1.429 . S
C820 H844 0.950 . S
C821 C838 1.574 . S
C821 C840 1.368 . S
C821 H845 0.949 . S
H822 C826 0.949 . S
C823 C824 1.349 . S
C823 C825 1.327 . S
C823 H846 0.950 . S
C824 C823 1.349 . S
C824 C836 1.349 . S
C825 C823 1.327 . S
C825 C841 1.429 . S
C825 H847 0.950 . S
C826 H822 0.949 . S
C826 C834 1.574 . S
C826 C842 1.368 . S
H827 C835 0.950 . S
H828 C833 0.950 . S
H829 C834 0.949 . S
H830 C836 0.950 . S
H831 C837 0.950 . S
H832 C838 0.949 . S
C833 H828 0.950 . S
C833 C835 1.327 . S
C833 C839 1.429 . S
C834 C826 1.574 . S
C834 H829 0.949 . S
C834 C840 1.368 . S
C835 C819 1.349 . S
C835 H827 0.950 . S
C835 C833 1.327 . S
C836 C824 1.349 . S
C836 H830 0.950 . S
C836 C837 1.327 . S
C837 H831 0.950 . S
C837 C836 1.327 . S
C837 C841 1.429 . S
C838 C821 1.574 . S
C838 H832 0.949 . S
C838 C842 1.368 . S
C839 C820 1.429 . S
C839 C833 1.429 . S
C839 C840 1.523 . S
C840 C821 1.368 . S
C840 C834 1.368 . S
C840 C839 1.523 . S
C841 C825 1.429 . S
C841 C837 1.429 . S
C841 C842 1.523 . S
C842 C826 1.368 . S
C842 C838 1.368 . S
C842 C841 1.523 . S
H843 C818 0.950 . S
H844 C820 0.950 . S
H845 C821 0.949 . S
H846 C823 0.950 . S
H847 C825 0.950 . S
C848 C849 1.349 . S
C848 C850 1.327 . S
C848 H873 0.950 . S
C849 C848 1.349 . S
C849 C865 1.349 1_655 S
C850 C848 1.327 . S
C850 C869 1.429 . S
C850 H874 0.950 . S
C851 C868 1.574 . S
C851 C870 1.368 1_455 S
C851 H875 0.949 . S
H852 C856 0.949 . S
C853 C854 1.349 1_455 S
C853 C855 1.327 . S
C853 H876 0.950 . S
C854 C853 1.349 1_655 S
C854 C866 1.349 . S
C855 C853 1.327 . S
C855 C871 1.429 1_455 S
C855 H877 0.950 . S
C856 H852 0.949 . S
C856 C864 1.574 . S
C856 C872 1.368 . S
H857 C865 0.950 . S
H858 C863 0.950 . S
H859 C864 0.949 . S
H860 C866 0.950 . S
H861 C867 0.950 . S
H862 C868 0.949 . S
C863 H858 0.950 . S
C863 C865 1.327 . S
C863 C869 1.429 1_455 S
C864 C856 1.574 . S
C864 H859 0.949 . S
C864 C870 1.368 . S
C865 C849 1.349 1_455 S
C865 H857 0.950 . S
C865 C863 1.327 . S
C866 C854 1.349 . S
C866 H860 0.950 . S
C866 C867 1.327 . S
C867 H861 0.950 . S
C867 C866 1.327 . S
C867 C871 1.429 . S
C868 C851 1.574 . S
C868 H862 0.949 . S
C868 C872 1.368 1_455 S
C869 C850 1.429 . S
C869 C863 1.429 1_655 S
C869 C870 1.523 . S
C870 C851 1.368 1_655 S
C870 C864 1.368 . S
C870 C869 1.523 . S
C871 C855 1.429 1_655 S
C871 C867 1.429 . S
C871 C872 1.523 . S
C872 C856 1.368 . S
C872 C868 1.368 1_655 S
C872 C871 1.523 . S
H873 C848 0.950 . S
H874 C850 0.950 . S
H875 C851 0.949 . S
H876 C853 0.950 . S
H877 C855 0.950 . S
C878 C879 1.349 . S
C878 C880 1.327 . S
C878 H903 0.950 . S
C879 C878 1.349 . S
C879 C895 1.349 1_565 S
C880 C878 1.327 . S
C880 C899 1.429 . S
C880 H904 0.950 . S
C881 C898 1.574 . S
C881 C900 1.368 1_545 S
C881 H905 0.949 . S
H882 C886 0.949 . S
C883 C884 1.349 1_545 S
C883 C885 1.327 . S
C883 H906 0.950 . S
C884 C883 1.349 1_565 S
C884 C896 1.349 . S
C885 C883 1.327 . S
C885 C901 1.429 1_545 S
C885 H907 0.950 . S
C886 H882 0.949 . S
C886 C894 1.574 . S
C886 C902 1.368 . S
H887 C895 0.950 . S
H888 C893 0.950 . S
H889 C894 0.949 . S
H890 C896 0.950 . S
H891 C897 0.950 . S
H892 C898 0.949 . S
C893 H888 0.950 . S
C893 C895 1.327 . S
C893 C899 1.429 1_545 S
C894 C886 1.574 . S
C894 H889 0.949 . S
C894 C900 1.368 . S
C895 C879 1.349 1_545 S
C895 H887 0.950 . S
C895 C893 1.327 . S
C896 C884 1.349 . S
C896 H890 0.950 . S
C896 C897 1.327 . S
C897 H891 0.950 . S
C897 C896 1.327 . S
C897 C901 1.429 . S
C898 C881 1.574 . S
C898 H892 0.949 . S
C898 C902 1.368 1_545 S
C899 C880 1.429 . S
C899 C893 1.429 1_565 S
C899 C900 1.523 . S
C900 C881 1.368 1_565 S
C900 C894 1.368 . S
C900 C899 1.523 . S
C901 C885 1.429 1_565 S
C901 C897 1.429 . S
C901 C902 1.523 . S
C902 C886 1.368 . S
C902 C898 1.368 1_565 S
C902 C901 1.523 . S
H903 C878 0.950 . S
H904 C880 0.950 . S
H905 C881 0.949 . S
H906 C883 0.950 . S
H907 C885 0.950 . S
C908 C909 1.349 . S
C908 C910 1.327 . S
C908 H933 0.950 . S
C909 C908 1.349 . S
C909 C925 1.349 . S
C910 C908 1.327 . S
C910 C929 1.429 . S
C910 H934 0.950 . S
C911 C928 1.574 . S
C911 C930 1.368 . S
C911 H935 0.949 . S
H912 C916 0.949 . S
C913 C914 1.349 . S
C913 C915 1.327 . S
C913 H936 0.950 . S
C914 C913 1.349 . S
C914 C926 1.349 . S
C915 C913 1.327 . S
C915 C931 1.429 . S
C915 H937 0.950 . S
C916 H912 0.949 . S
C916 C924 1.574 . S
C916 C932 1.368 . S
H917 C925 0.950 . S
H918 C923 0.950 . S
H919 C924 0.949 . S
H920 C926 0.950 . S
H921 C927 0.950 . S
H922 C928 0.949 . S
C923 H918 0.950 . S
C923 C925 1.327 . S
C923 C929 1.429 . S
C924 C916 1.574 . S
C924 H919 0.949 . S
C924 C930 1.368 . S
C925 C909 1.349 . S
C925 H917 0.950 . S
C925 C923 1.327 . S
C926 C914 1.349 . S
C926 H920 0.950 . S
C926 C927 1.327 . S
C927 H921 0.950 . S
C927 C926 1.327 . S
C927 C931 1.429 . S
C928 C911 1.574 . S
C928 H922 0.949 . S
C928 C932 1.368 . S
C929 C910 1.429 . S
C929 C923 1.429 . S
C929 C930 1.523 . S
C930 C911 1.368 . S
C930 C924 1.368 . S
C930 C929 1.523 . S
C931 C915 1.429 . S
C931 C927 1.429 . S
C931 C932 1.523 . S
C932 C916 1.368 . S
C932 C928 1.368 . S
C932 C931 1.523 . S
H933 C908 0.950 . S
H934 C910 0.950 . S
H935 C911 0.949 . S
H936 C913 0.950 . S
H937 C915 0.950 . S
C938 C939 1.349 . S
C938 C940 1.327 . S
C938 H963 0.950 . S
C939 C938 1.349 . S
C939 C955 1.349 . S
C940 C938 1.327 . S
C940 C959 1.429 . S
C940 H964 0.950 . S
C941 C958 1.574 . S
C941 C960 1.368 . S
C941 H965 0.949 . S
H942 C946 0.949 . S
C943 C944 1.349 . S
C943 C945 1.327 . S
C943 H966 0.950 . S
C944 C943 1.349 . S
C944 C956 1.349 . S
C945 C943 1.327 . S
C945 C961 1.429 . S
C945 H967 0.950 . S
C946 H942 0.949 . S
C946 C954 1.574 . S
C946 C962 1.368 . S
H947 C955 0.950 . S
H948 C953 0.950 . S
H949 C954 0.949 . S
H950 C956 0.950 . S
H951 C957 0.950 . S
H952 C958 0.949 . S
C953 H948 0.950 . S
C953 C955 1.327 . S
C953 C959 1.429 . S
C954 C946 1.574 . S
C954 H949 0.949 . S
C954 C960 1.368 . S
C955 C939 1.349 . S
C955 H947 0.950 . S
C955 C953 1.327 . S
C956 C944 1.349 . S
C956 H950 0.950 . S
C956 C957 1.327 . S
C957 H951 0.950 . S
C957 C956 1.327 . S
C957 C961 1.429 . S
C958 C941 1.574 . S
C958 H952 0.949 . S
C958 C962 1.368 . S
C959 C940 1.429 . S
C959 C953 1.429 . S
C959 C960 1.523 . S
C960 C941 1.368 . S
C960 C954 1.368 . S
C960 C959 1.523 . S
C961 C945 1.429 . S
C961 C957 1.429 . S
C961 C962 1.523 . S
C962 C946 1.368 . S
C962 C958 1.368 . S
C962 C961 1.523 . S
H963 C938 0.950 . S
H964 C940 0.950 . S
H965 C941 0.949 . S
H966 C943 0.950 . S
H967 C945 0.950 . S
C249 C74 1.672 . S
C254 C98 1.726 . S
C284 C138 1.726 . S
C279 C85 1.672 . S
C314 C178 1.726 . S
C309 C52 1.672 . S
C344 C218 1.725 . S
C339 C63 1.672 . S
C374 C107 1.726 . S
C369 C30 1.666 . S
C399 C41 1.666 . S
C404 C147 1.726 . S
C429 C8 1.666 . S
C434 C187 1.726 . S
C459 C19 1.666 . S
C464 C227 1.726 . S
C494 C104 0.455 . S
C489 C62 0.430 . S
C524 C144 0.455 . S
C519 C73 0.430 . S
C554 C184 0.455 . S
C549 C84 0.430 . S
C579 C51 0.430 . S
C584 C224 0.455 . S
C609 C18 0.500 1_655 S
C614 C95 0.455 . S
C644 C135 0.455 . S
C639 C29 0.506 . S
C674 C175 0.455 . S
C669 C40 0.498 . S
C699 C7 0.498 . S
C704 C215 0.455 . S
C729 C60 1.585 . S
C734 C99 2.033 . S
C759 C71 1.586 . S
C764 C139 2.033 . S
C794 C179 2.033 . S
C789 C82 1.585 . S
C824 C219 2.033 . S
C819 C49 1.586 . S
C849 C16 1.594 1_655 S
C854 C90 2.033 . S
C884 C130 2.033 . S
C879 C27 1.593 1_565 S
C914 C170 2.033 . S
C909 C38 1.593 . S
C939 C5 1.593 . S
C944 C210 2.033 . S
