# Generated by pormake.
# Topology ssb, (4,4)-cn, num edge types: 1
# Building blocks:
#     Node 0, Type 0, BuildingBlock: ESEHIV_clean_sbu_0, # of connection points: 4
#     Node 1, Type 0, BuildingBlock: ESEHIV_clean_sbu_0, # of connection points: 4
#     Node 2, Type 0, BuildingBlock: ESEHIV_clean_sbu_0, # of connection points: 4
#     Node 3, Type 0, BuildingBlock: ESEHIV_clean_sbu_0, # of connection points: 4
#     Node 4, Type 0, BuildingBlock: ESEHIV_clean_sbu_0, # of connection points: 4
#     Node 5, Type 0, BuildingBlock: ESEHIV_clean_sbu_0, # of connection points: 4
#     Node 6, Type 0, BuildingBlock: ESEHIV_clean_sbu_0, # of connection points: 4
#     Node 7, Type 0, BuildingBlock: ESEHIV_clean_sbu_0, # of connection points: 4
#     Node 8, Type 1, BuildingBlock: NAWXER_clean_sbu_0, # of connection points: 4
#     Node 9, Type 1, BuildingBlock: NAWXER_clean_sbu_0, # of connection points: 4
#     Node 10, Type 1, BuildingBlock: NAWXER_clean_sbu_0, # of connection points: 4
#     Node 11, Type 1, BuildingBlock: NAWXER_clean_sbu_0, # of connection points: 4
#     Node 12, Type 1, BuildingBlock: NAWXER_clean_sbu_0, # of connection points: 4
#     Node 13, Type 1, BuildingBlock: NAWXER_clean_sbu_0, # of connection points: 4
#     Node 14, Type 1, BuildingBlock: NAWXER_clean_sbu_0, # of connection points: 4
#     Node 15, Type 1, BuildingBlock: NAWXER_clean_sbu_0, # of connection points: 4
#     Edge 16, Type (0, 1), BuildingBlock: EZIPEK_clean_linker_0, # of connection points: 2
#     Edge 17, Type (0, 1), BuildingBlock: EZIPEK_clean_linker_0, # of connection points: 2
#     Edge 18, Type (0, 1), BuildingBlock: EZIPEK_clean_linker_0, # of connection points: 2
#     Edge 19, Type (0, 1), BuildingBlock: EZIPEK_clean_linker_0, # of connection points: 2
#     Edge 20, Type (0, 1), BuildingBlock: EZIPEK_clean_linker_0, # of connection points: 2
#     Edge 21, Type (0, 1), BuildingBlock: EZIPEK_clean_linker_0, # of connection points: 2
#     Edge 22, Type (0, 1), BuildingBlock: EZIPEK_clean_linker_0, # of connection points: 2
#     Edge 23, Type (0, 1), BuildingBlock: EZIPEK_clean_linker_0, # of connection points: 2
#     Edge 24, Type (0, 1), BuildingBlock: EZIPEK_clean_linker_0, # of connection points: 2
#     Edge 25, Type (0, 1), BuildingBlock: EZIPEK_clean_linker_0, # of connection points: 2
#     Edge 26, Type (0, 1), BuildingBlock: EZIPEK_clean_linker_0, # of connection points: 2
#     Edge 27, Type (0, 1), BuildingBlock: EZIPEK_clean_linker_0, # of connection points: 2
#     Edge 28, Type (0, 1), BuildingBlock: EZIPEK_clean_linker_0, # of connection points: 2
#     Edge 29, Type (0, 1), BuildingBlock: EZIPEK_clean_linker_0, # of connection points: 2
#     Edge 30, Type (0, 1), BuildingBlock: EZIPEK_clean_linker_0, # of connection points: 2
#     Edge 31, Type (0, 1), BuildingBlock: EZIPEK_clean_linker_0, # of connection points: 2
#     Edge 32, Type (0, 1), BuildingBlock: EZIPEK_clean_linker_0, # of connection points: 2
#     Edge 33, Type (0, 1), BuildingBlock: EZIPEK_clean_linker_0, # of connection points: 2
#     Edge 34, Type (0, 1), BuildingBlock: EZIPEK_clean_linker_0, # of connection points: 2
#     Edge 35, Type (0, 1), BuildingBlock: EZIPEK_clean_linker_0, # of connection points: 2
#     Edge 36, Type (0, 1), BuildingBlock: EZIPEK_clean_linker_0, # of connection points: 2
#     Edge 37, Type (0, 1), BuildingBlock: EZIPEK_clean_linker_0, # of connection points: 2
#     Edge 38, Type (0, 1), BuildingBlock: EZIPEK_clean_linker_0, # of connection points: 2
#     Edge 39, Type (0, 1), BuildingBlock: EZIPEK_clean_linker_0, # of connection points: 2
#     Edge 40, Type (0, 1), BuildingBlock: EZIPEK_clean_linker_0, # of connection points: 2
#     Edge 41, Type (0, 1), BuildingBlock: EZIPEK_clean_linker_0, # of connection points: 2
#     Edge 42, Type (0, 1), BuildingBlock: EZIPEK_clean_linker_0, # of connection points: 2
#     Edge 43, Type (0, 1), BuildingBlock: EZIPEK_clean_linker_0, # of connection points: 2
#     Edge 44, Type (0, 1), BuildingBlock: EZIPEK_clean_linker_0, # of connection points: 2
#     Edge 45, Type (0, 1), BuildingBlock: EZIPEK_clean_linker_0, # of connection points: 2
#     Edge 46, Type (0, 1), BuildingBlock: EZIPEK_clean_linker_0, # of connection points: 2
#     Edge 47, Type (0, 1), BuildingBlock: EZIPEK_clean_linker_0, # of connection points: 2
# Relax obj value: 0.004
# Max RMSD: 0.103
# Mean RMSD: 0.052
data_MOF--net-ssb--node1-ESEHIV_clean_sbu_0--node2-NAWXER_clean_sbu_0--edge1-EZIPEK_clean_linker_0
_symmetry_space_group_name_H-M    P1
_symmetry_Int_Tables_number       1
_symmetry_cell_setting            triclinic
loop_
_symmetry_equiv_pos_as_xyz
'x, y, z'
_cell_length_a     34.018574
_cell_length_b     34.120001
_cell_length_c     29.206389
_cell_angle_alpha  90.786914
_cell_angle_beta   90.489094
_cell_angle_gamma 89.365166
loop_
_atom_site_label
_atom_site_type_symbol
_atom_site_fract_x
_atom_site_fract_y
_atom_site_fract_z
_atom_type_partial_charge
Cu0 Cu 0.3191 0.31665 0.27713 0.0
N1 N 0.32267 0.26073 0.27429 0.0
N2 N 0.32734 0.20214 0.30904 0.0
C3 C 0.3074 0.23669 0.30601 0.0
C4 C 0.35578 0.204 0.27761 0.0
C5 C 0.35307 0.23962 0.25666 0.0
O6 O 0.29507 0.329 0.33763 0.0
C7 C 0.38004 0.32667 0.21934 0.0
O8 O 0.35455 0.30627 0.19515 0.0
H9 H 0.28581 0.24623 0.33074 0.0
H10 H 0.37573 0.25038 0.23487 0.0
N11 N 0.28996 0.34439 0.2327 0.0
N12 N 0.27958 0.39799 0.19042 0.0
C13 C 0.29358 0.38372 0.23017 0.0
C14 C 0.272 0.33339 0.1934 0.0
C15 C 0.26548 0.36653 0.16727 0.0
C16 C 0.26019 0.34353 0.34062 0.0
O17 O 0.24248 0.35642 0.30367 0.0
H18 H 0.30863 0.4012 0.25594 0.0
H19 H 0.26688 0.30333 0.18293 0.0
O20 O 0.3719 0.33488 0.26127 0.0
H21 H 0.37928 0.18263 0.27329 0.0
H22 H 0.25323 0.36723 0.13296 0.0
Cu23 Cu 0.82078 0.27302 0.25736 0.0
N24 N 0.79385 0.241 0.21485 0.0
N25 N 0.74502 0.22508 0.16644 0.0
C26 C 0.75672 0.24886 0.20104 0.0
C27 C 0.77547 0.2002 0.159 0.0
C28 C 0.80564 0.21008 0.18903 0.0
O29 O 0.80663 0.32682 0.24104 0.0
C30 C 0.81936 0.22235 0.3275 0.0
O31 O 0.83848 0.20249 0.29578 0.0
H32 H 0.73918 0.27287 0.21474 0.0
H33 H 0.83443 0.19648 0.19071 0.0
N34 N 0.87581 0.26757 0.25844 0.0
N35 N 0.9339 0.26236 0.2944 0.0
C36 C 0.89695 0.27674 0.29625 0.0
C37 C 0.90074 0.24728 0.23113 0.0
C38 C 0.93677 0.24401 0.25338 0.0
C39 C 0.81294 0.33539 0.19933 0.0
O40 O 0.82929 0.30887 0.17236 0.0
H41 H 0.88473 0.29166 0.32583 0.0
H42 H 0.89278 0.23379 0.19872 0.0
O43 O 0.80549 0.25623 0.31807 0.0
H44 H 0.77644 0.1778 0.13241 0.0
H45 H 0.96233 0.2278 0.24149 0.0
Cu46 Cu 0.80528 0.76887 0.31128 0.0
N47 N 0.84388 0.74601 0.27264 0.0
N48 N 0.86113 0.70102 0.21912 0.0
C49 C 0.83712 0.7318 0.22981 0.0
C50 C 0.88478 0.69674 0.25592 0.0
C51 C 0.87429 0.72419 0.28844 0.0
O52 O 0.7555 0.74801 0.28534 0.0
C53 C 0.8553 0.77211 0.38501 0.0
O54 O 0.87106 0.79533 0.35481 0.0
H55 H 0.81193 0.74034 0.2093 0.0
H56 H 0.88491 0.72408 0.3233 0.0
N57 N 0.80201 0.82412 0.31157 0.0
N58 N 0.78855 0.88458 0.33866 0.0
C59 C 0.79135 0.84609 0.34839 0.0
C60 C 0.80625 0.84972 0.27734 0.0
C61 C 0.7979 0.88706 0.29396 0.0
C62 C 0.72614 0.76961 0.27384 0.0
O63 O 0.72439 0.80603 0.2887 0.0
H64 H 0.78567 0.83407 0.38177 0.0
H65 H 0.81459 0.84183 0.24275 0.0
O66 O 0.82275 0.75563 0.37416 0.0
H67 H 0.9056 0.67288 0.26076 0.0
H68 H 0.79917 0.91404 0.27497 0.0
Cu69 Cu 0.27102 0.81712 0.28436 0.0
N70 N 0.32552 0.81145 0.27432 0.0
N71 N 0.38412 0.81078 0.23956 0.0
C72 C 0.34468 0.81427 0.23409 0.0
C73 C 0.39003 0.80586 0.28482 0.0
C74 C 0.35399 0.80665 0.30615 0.0
O75 O 0.24266 0.79642 0.23037 0.0
C76 C 0.22827 0.88842 0.31198 0.0
O77 O 0.19659 0.87474 0.29169 0.0
H78 H 0.33013 0.81924 0.20156 0.0
H79 H 0.34906 0.80491 0.34256 0.0
N80 N 0.25376 0.78862 0.33449 0.0
N81 N 0.21387 0.7781 0.39325 0.0
C82 C 0.21784 0.79471 0.35215 0.0
C83 C 0.27301 0.76598 0.365 0.0
C84 C 0.24829 0.75937 0.40147 0.0
C85 C 0.24598 0.75933 0.22418 0.0
O86 O 0.26684 0.73898 0.25372 0.0
H87 H 0.19536 0.8123 0.33597 0.0
H88 H 0.30333 0.75658 0.36226 0.0
O89 O 0.2614 0.87136 0.30552 0.0
H90 H 0.4185 0.80269 0.30129 0.0
H91 H 0.25568 0.74403 0.43264 0.0
Cu92 Cu 0.33838 0.78732 0.75297 0.0
N93 N 0.39187 0.77412 0.76471 0.0
N94 N 0.44482 0.76558 0.81044 0.0
C95 C 0.40579 0.76035 0.80505 0.0
C96 C 0.45646 0.78268 0.77157 0.0
C97 C 0.42383 0.7879 0.74348 0.0
O98 O 0.31276 0.7821 0.81243 0.0
C99 C 0.34312 0.8425 0.68273 0.0
O100 O 0.35463 0.8109 0.66019 0.0
H101 H 0.38746 0.75044 0.83229 0.0
H102 H 0.42299 0.80421 0.71201 0.0
N103 N 0.31117 0.75303 0.71287 0.0
N104 N 0.2598 0.72629 0.67592 0.0
C105 C 0.27203 0.755 0.70475 0.0
C106 C 0.3241 0.72184 0.68829 0.0
C107 C 0.29239 0.70527 0.66542 0.0
C108 C 0.31066 0.74646 0.8249 0.0
O109 O 0.32321 0.71868 0.79692 0.0
H110 H 0.25283 0.77709 0.71977 0.0
H111 H 0.35434 0.71175 0.68734 0.0
O112 O 0.33467 0.83972 0.72519 0.0
H113 H 0.48565 0.7938 0.76574 0.0
H114 H 0.29315 0.67989 0.64277 0.0
Cu115 Cu 0.28262 0.30253 0.79908 0.0
N116 N 0.28119 0.35782 0.80087 0.0
N117 N 0.26907 0.41787 0.8301 0.0
C118 C 0.27112 0.37906 0.83845 0.0
C119 C 0.27838 0.42128 0.78548 0.0
C120 C 0.28603 0.38422 0.76759 0.0
O121 O 0.31089 0.28783 0.85576 0.0
C122 C 0.21587 0.29831 0.74846 0.0
O123 O 0.23945 0.31956 0.72388 0.0
H124 H 0.26504 0.36625 0.87131 0.0
H125 H 0.29397 0.37705 0.73266 0.0
N126 N 0.30951 0.27812 0.74983 0.0
N127 N 0.32126 0.22987 0.69849 0.0
C128 C 0.2959 0.2453 0.72916 0.0
C129 C 0.34502 0.28392 0.73111 0.0
C130 C 0.35249 0.25397 0.69983 0.0
C131 C 0.34554 0.30213 0.85747 0.0
O132 O 0.35694 0.32322 0.82288 0.0
H133 H 0.2683 0.23212 0.73747 0.0
H134 H 0.36448 0.30775 0.73973 0.0
O135 O 0.22786 0.28659 0.78772 0.0
H136 H 0.27975 0.44865 0.76729 0.0
H137 H 0.37875 0.25027 0.67946 0.0
Cu138 Cu 0.78674 0.32925 0.7418 0.0
N139 N 0.81258 0.35655 0.69546 0.0
N140 N 0.86232 0.37002 0.64851 0.0
C141 C 0.84417 0.34222 0.67287 0.0
C142 C 0.84104 0.40313 0.65552 0.0
C143 C 0.8102 0.3947 0.68428 0.0
O144 O 0.78135 0.27491 0.7192 0.0
C145 C 0.83841 0.36524 0.8072 0.0
O146 O 0.85375 0.382 0.77158 0.0
H147 H 0.85544 0.31267 0.67704 0.0
H148 H 0.78948 0.41558 0.69874 0.0
N149 N 0.73677 0.34872 0.7564 0.0
N150 N 0.68484 0.35847 0.80153 0.0
C151 C 0.71865 0.33841 0.79514 0.0
C152 C 0.71351 0.37642 0.73743 0.0
C153 C 0.68122 0.38249 0.7654 0.0
C154 C 0.75151 0.26564 0.69447 0.0
O155 O 0.7231 0.29152 0.68871 0.0
H156 H 0.73065 0.31733 0.81901 0.0
H157 H 0.71997 0.39174 0.70628 0.0
O158 O 0.81434 0.33715 0.80084 0.0
H159 H 0.84854 0.43172 0.64282 0.0
H160 H 0.65743 0.40333 0.76019 0.0
Cu161 Cu 0.80101 0.80328 0.80829 0.0
N162 N 0.78608 0.75072 0.80606 0.0
N163 N 0.77408 0.69171 0.83461 0.0
C164 C 0.77842 0.73022 0.84388 0.0
C165 C 0.77833 0.68778 0.7889 0.0
C166 C 0.78535 0.72443 0.77121 0.0
O167 O 0.77684 0.82365 0.86484 0.0
C168 C 0.88108 0.78039 0.79145 0.0
O169 O 0.86907 0.74424 0.79567 0.0
H170 H 0.77918 0.74276 0.87813 0.0
H171 H 0.79185 0.7309 0.73598 0.0
N172 N 0.7831 0.83013 0.75703 0.0
N173 N 0.78443 0.87464 0.70207 0.0
C174 C 0.79798 0.86448 0.74367 0.0
C175 C 0.75924 0.8182 0.72266 0.0
C176 C 0.75986 0.84591 0.68859 0.0
C177 C 0.74323 0.84062 0.86361 0.0
O178 O 0.72914 0.85236 0.82406 0.0
H179 H 0.81906 0.88126 0.76356 0.0
H180 H 0.74342 0.79088 0.72188 0.0
O181 O 0.85821 0.80862 0.80309 0.0
H182 H 0.77873 0.66017 0.7702 0.0
H183 H 0.74376 0.84507 0.65647 0.0
C184 C 1.0121 0.3448 0.56003 0.0
C185 C 0.13784 0.32895 0.47628 0.0
O186 O 0.03408 0.37233 0.54667 0.0
Zn187 Zn 0.07595 0.33938 0.52002 0.0
O188 O 0.02312 0.30915 0.55379 0.0
Zn189 Zn 0.07271 0.27744 0.52685 0.0
O190 O 0.09352 0.25399 0.58321 0.0
O191 O 0.10478 0.31717 0.58031 0.0
O192 O 0.1243 0.29687 0.49179 0.0
O193 O 0.11952 0.36091 0.48503 0.0
O194 O 0.04354 0.31022 0.46641 0.0
O195 O 0.04743 0.24666 0.47766 0.0
C196 C 0.10843 0.2846 0.6014 0.0
C197 C 0.03529 0.27523 0.45345 0.0
C198 C 0.74953 0.11874 0.58978 0.0
C199 C 0.76228 1.01121 0.47049 0.0
O200 O 0.78435 0.10753 0.57969 0.0
Zn201 Zn 0.81372 0.06538 0.53843 0.0
O202 O 0.72027 0.10107 0.57147 0.0
Zn203 Zn 0.74936 0.06352 0.53098 0.0
O204 O 0.77297 0.02304 0.57768 0.0
O205 O 0.83718 0.03032 0.5846 0.0
O206 O 0.72947 0.02705 0.48194 0.0
O207 O 0.79358 0.02302 0.49052 0.0
O208 O 0.84095 0.10079 0.49604 0.0
O209 O 0.77642 0.10382 0.48886 0.0
C210 C 0.8058 1.01264 0.59558 0.0
C211 C 0.81026 0.1154 0.47698 0.0
C212 C 1.00056 0.78914 0.65229 0.0
C213 C 0.08565 0.797 0.51764 0.0
O214 O 0.01828 0.81932 0.63842 0.0
Zn215 Zn 0.04262 0.79545 0.58466 0.0
O216 O 1.00461 0.75635 0.63069 0.0
Zn217 Zn 0.0361 0.73359 0.57221 0.0
O218 O 0.07681 0.69804 0.59793 0.0
O219 O 0.08913 0.76033 0.61247 0.0
O220 O 0.07256 0.76281 0.52534 0.0
O221 O 0.07415 0.82603 0.5422 0.0
O222 O 0.99251 0.77989 0.5432 0.0
O223 O 0.99381 0.71654 0.52972 0.0
C224 C 0.09943 0.72425 0.61462 0.0
C225 C 0.97742 0.74983 0.52333 0.0
C226 C 0.29384 0.09471 0.58043 0.0
C227 C 0.25196 0.9984 0.46081 0.0
O228 O 0.32207 0.07635 0.56071 0.0
Zn229 Zn 0.33035 0.03296 0.50863 0.0
O230 O 0.25857 0.08507 0.5709 0.0
Zn231 Zn 0.2695 0.04402 0.52429 0.0
O232 O 0.29545 0.99677 0.56234 0.0
O233 O 0.35749 0.99062 0.54179 0.0
O234 O 0.22882 0.01691 0.48785 0.0
O235 O 0.2892 1.00197 0.46588 0.0
O236 O 0.35514 0.06537 0.46187 0.0
O237 O 0.29233 0.07947 0.47145 0.0
C238 C 0.32892 0.9794 0.56608 0.0
C239 C 0.32473 0.08555 0.45105 0.0
C240 C 0.51233 0.81143 0.10983 0.0
C241 C 0.62624 0.82258 1.00594 0.0
O242 O 0.5275 0.84262 0.09478 0.0
Zn243 Zn 0.57007 0.81904 0.05825 0.0
O244 O 0.52709 0.77829 0.09737 0.0
Zn245 Zn 0.57275 0.75654 0.05322 0.0
O246 O 0.60614 0.72745 0.09678 0.0
O247 O 0.60776 0.79148 0.10842 0.0
O248 O 0.61595 0.78723 1.01373 0.0
O249 O 0.60802 0.85093 0.02551 0.0
O250 O 0.53838 0.79487 1.00087 0.0
O251 O 0.54249 0.73056 1.00341 0.0
C252 C 0.61884 0.75683 0.11961 0.0
C253 C 0.52996 0.76131 0.98344 0.0
C254 C 0.21897 0.64541 0.08515 0.0
C255 C 0.23946 0.54149 0.96465 0.0
O256 O 0.2546 0.63608 0.07639 0.0
Zn257 Zn 0.28755 0.59639 0.03547 0.0
O258 O 0.19117 0.62694 0.06505 0.0
Zn259 Zn 0.22438 0.59201 0.02574 0.0
O260 O 0.24901 0.55098 0.07274 0.0
O261 O 0.3119 0.56335 0.0824 0.0
O262 O 0.20614 0.55621 0.97583 0.0
O263 O 0.2703 0.5538 0.98542 0.0
O264 O 0.31562 0.63338 0.99641 0.0
O265 O 0.25148 0.63493 0.98567 0.0
C266 C 0.28204 0.54284 0.09196 0.0
C267 C 0.2855 0.64778 0.9761 0.0
C268 C 0.58939 0.33656 0.96095 0.0
C269 C 0.51225 0.33445 0.10089 0.0
O270 O 0.58065 0.36468 0.98803 0.0
Zn271 Zn 0.55197 0.3349 0.03251 0.0
O272 O 0.57759 0.30191 0.96972 0.0
Zn273 Zn 0.54265 0.27458 1.02149 0.0
O274 O 0.49801 0.25662 0.98437 0.0
O275 O 0.49767 0.32025 0.99629 0.0
O276 O 0.51355 0.30073 0.08079 0.0
O277 O 0.53216 0.36259 0.0855 0.0
O278 O 0.59655 0.2976 0.06217 0.0
O279 O 0.57907 0.23648 0.04838 0.0
C280 C 0.48105 0.28972 0.97915 0.0
C281 C 0.60308 0.26073 0.06606 0.0
C282 C 0.84628 0.57638 0.08251 0.0
C283 C 0.83898 0.47032 0.96523 0.0
O284 O 0.87457 0.56184 0.0594 0.0
Zn285 Zn 0.84532 0.52195 0.02462 0.0
O286 O 0.812 0.56219 0.07607 0.0
Zn287 Zn 0.7826 0.52198 0.03139 0.0
O288 O 0.75838 0.48761 0.07468 0.0
O289 O 0.82333 0.48264 0.07488 0.0
O290 O 0.80554 0.48135 0.98109 0.0
O291 O 0.87031 0.48581 0.98092 0.0
O292 O 0.81458 0.55973 0.97966 0.0
O293 O 0.75113 0.55822 0.99392 0.0
C294 C 0.7899 0.47215 0.09023 0.0
C295 C 0.77963 0.57196 0.9714 0.0
C296 C 0.20629 0.30492 0.37528 0.0
C297 C 0.23452 0.33503 0.38041 0.0
C298 C 0.20461 0.35471 0.45385 0.0
C299 C 0.17317 0.32823 0.44559 0.0
N300 N 0.14376 0.27825 0.39662 0.0
N301 N 0.26025 0.38981 0.42309 0.0
C302 C 0.17435 0.30279 0.40635 0.0
C303 C 0.23385 0.36002 0.41957 0.0
N304 N 0.20989 0.27823 0.34011 0.0
N305 N 0.20729 0.3737 0.49525 0.0
H306 H 0.28278 0.39337 0.39953 0.0
H307 H 0.25861 0.4121 0.44772 0.0
H308 H 0.18725 0.36945 0.52152 0.0
H309 H 0.23123 0.3906 0.50527 0.0
H310 H 0.19439 0.25211 0.33821 0.0
H311 H 0.23048 0.28069 0.31414 0.0
H312 H 0.13979 0.26419 0.36509 0.0
H313 H 0.12047 0.27332 0.41841 0.0
C314 C 0.83355 0.20835 0.41038 0.0
C315 C 0.81043 0.20196 0.37042 0.0
C316 C 0.78839 0.13933 0.3996 0.0
C317 C 0.81175 0.14508 0.44002 0.0
N318 N 0.84846 0.1896 0.48864 0.0
N319 N 0.75739 0.16842 0.33292 0.0
C320 C 0.83214 0.18093 0.44683 0.0
C321 C 0.78508 0.16969 0.36715 0.0
N322 N 0.85721 0.24036 0.41305 0.0
N323 N 0.77071 0.10418 0.39077 0.0
H324 H 0.75428 0.19062 0.30885 0.0
H325 H 0.73502 0.14785 0.33125 0.0
H326 H 0.77114 0.08085 0.41317 0.0
H327 H 0.75807 0.09681 0.35926 0.0
H328 H 0.87826 0.24479 0.43859 0.0
H329 H 0.85641 0.26216 0.38842 0.0
H330 H 0.86048 0.21668 0.49715 0.0
H331 H 0.84709 0.17085 0.51644 0.0
C332 C 0.88649 0.72797 0.44684 0.0
C333 C 0.87799 0.76567 0.42873 0.0
C334 C 0.93507 0.79173 0.46998 0.0
C335 C 0.94218 0.75506 0.49177 0.0
N336 N 0.9138 0.6926 0.51128 0.0
N337 N 0.88514 0.83534 0.43983 0.0
C338 C 0.91462 0.72437 0.48343 0.0
C339 C 0.89903 0.79813 0.44649 0.0
N340 N 0.86938 0.69532 0.42846 0.0
N341 N 0.96351 0.8196 0.4677 0.0
H342 H 0.85811 0.84094 0.42387 0.0
H343 H 0.89828 0.85987 0.45491 0.0
H344 H 0.99258 0.81496 0.47766 0.0
H345 H 0.95963 0.84534 0.44926 0.0
H346 H 0.87817 0.66704 0.43736 0.0
H347 H 0.84861 0.69622 0.40215 0.0
H348 H 0.8923 0.67115 0.50839 0.0
H349 H 0.931 0.69032 0.54081 0.0
C350 C 0.24751 0.95579 0.34029 0.0
C351 C 0.2257 0.92113 0.3467 0.0
C352 C 0.21493 0.94033 0.4275 0.0
C353 C 0.23726 0.97459 0.42101 0.0
N354 N 0.26281 0.02118 0.36814 0.0
N355 N 0.17825 0.88712 0.39262 0.0
C356 C 0.24987 0.98421 0.37636 0.0
C357 C 0.20584 0.91565 0.389 0.0
N358 N 0.26643 0.96141 0.29986 0.0
N359 N 0.20411 0.93019 0.47068 0.0
H360 H 0.16991 0.86905 0.36545 0.0
H361 H 0.16031 0.88424 0.42105 0.0
H362 H 0.21024 0.94738 0.49958 0.0
H363 H 0.19128 0.90357 0.47842 0.0
H364 H 0.28684 0.9835 0.29519 0.0
H365 H 0.26302 0.94276 0.27152 0.0
H366 H 0.26872 0.03137 0.33549 0.0
H367 H 0.26338 0.04302 0.39347 0.0
C368 C 0.19076 0.70674 0.68914 0.0
C369 C 0.22009 0.72026 0.65915 0.0
C370 C 0.17119 0.72277 0.59699 0.0
C371 C 0.1408 0.71539 0.62872 0.0
N372 N 0.12102 0.70194 0.70572 0.0
N373 N 0.23777 0.74538 0.58577 0.0
C374 C 0.15044 0.70748 0.67503 0.0
C375 C 0.21025 0.72907 0.6132 0.0
N376 N 0.20182 0.69236 0.7307 0.0
N377 N 0.16267 0.72338 0.55122 0.0
H378 H 0.26639 0.75093 0.59696 0.0
H379 H 0.2314 0.75639 0.55342 0.0
H380 H 0.13459 0.71773 0.53833 0.0
H381 H 0.18397 0.72538 0.52598 0.0
H382 H 0.18254 0.67883 0.75285 0.0
H383 H 0.23125 0.69081 0.74098 0.0
H384 H 0.12573 0.70041 0.74093 0.0
H385 H 0.09147 0.70084 0.6959 0.0
C386 C 0.32254 0.19696 0.62217 0.0
C387 C 0.31533 0.19535 0.6697 0.0
C388 C 0.29135 0.12789 0.65882 0.0
C389 C 0.30281 0.12843 0.61214 0.0
N390 N 0.34331 0.16037 0.55574 0.0
N391 N 0.30267 0.155 0.73497 0.0
C392 C 0.32287 0.16183 0.59573 0.0
C393 C 0.30224 0.15961 0.68862 0.0
N394 N 0.32701 0.23222 0.60143 0.0
N395 N 0.27116 0.09675 0.67517 0.0
H396 H 0.3136 0.17627 0.75749 0.0
H397 H 0.29664 0.12851 0.75063 0.0
H398 H 0.26532 0.07169 0.65554 0.0
H399 H 0.25834 0.09687 0.70746 0.0
H400 H 0.32899 0.23484 0.56598 0.0
H401 H 0.32365 0.25891 0.61881 0.0
H402 H 0.3609 0.18336 0.54521 0.0
H403 H 0.34635 0.13527 0.5355 0.0
C404 C 0.90408 0.37366 0.57901 0.0
C405 C 0.90023 0.36635 0.62645 0.0
C406 C 0.96814 0.34178 0.62905 0.0
C407 C 0.97371 0.35306 0.58287 0.0
N408 N 0.94749 0.3831 0.51454 0.0
N409 N 0.93213 0.35416 0.69872 0.0
C410 C 0.9419 0.37047 0.55818 0.0
C411 C 0.93334 0.35356 0.65205 0.0
N412 N 0.87121 0.38151 0.55344 0.0
N413 N 0.99531 0.3188 0.65094 0.0
H414 H 0.90786 0.3648 0.71661 0.0
H415 H 0.95668 0.34873 0.71937 0.0
H416 H 0.02061 0.30796 0.63537 0.0
H417 H 0.99053 0.30683 0.68303 0.0
H418 H 0.8712 0.3832 0.51787 0.0
H419 H 0.84318 0.38295 0.56755 0.0
H420 H 0.92682 0.39982 0.49671 0.0
H421 H 0.97378 0.37885 0.49698 0.0
C422 C 0.82457 0.91166 0.64778 0.0
C423 C 0.79262 0.91023 0.67834 0.0
C424 C 0.7764 0.9787 0.66272 0.0
C425 C 0.80544 0.97902 0.62775 0.0
N426 N 0.85346 0.9431 0.58251 0.0
N427 N 0.73628 0.9403 0.71337 0.0
C428 C 0.82904 0.94495 0.61944 0.0
C429 C 0.76819 0.9433 0.68555 0.0
N430 N 0.85057 0.88095 0.64598 0.0
N431 N 0.75701 1.01252 0.67468 0.0
H432 H 0.7304 0.9151 0.73177 0.0
H433 H 0.71422 0.96161 0.71591 0.0
H434 H 0.76117 0.03874 0.65803 0.0
H435 H 0.73908 0.0154 0.70328 0.0
H436 H 0.87698 0.88165 0.6282 0.0
H437 H 0.84706 0.85592 0.66549 0.0
H438 H 0.86784 0.9175 0.57186 0.0
H439 H 0.85701 0.96611 0.55997 0.0
C440 C 0.95197 0.79131 0.77021 0.0
C441 C 0.91195 0.78774 0.75686 0.0
C442 C 0.93035 0.79358 0.67602 0.0
C443 C 0.97061 0.79249 0.68895 0.0
N444 N 0.02067 0.78842 0.74743 0.0
N445 N 0.86289 0.78175 0.69699 0.0
C446 C 0.98173 0.79121 0.73589 0.0
C447 C 0.9011 0.7881 0.70972 0.0
N448 N 0.96132 0.79506 0.81563 0.0
N449 N 0.9201 0.80065 0.63146 0.0
H450 H 0.84015 0.77952 0.72039 0.0
H451 H 0.85389 0.77635 0.66336 0.0
H452 H 0.94073 0.80538 0.60599 0.0
H453 H 0.89133 0.80532 0.62028 0.0
H454 H 0.98941 0.80132 0.82784 0.0
H455 H 0.94011 0.79468 0.84123 0.0
H456 H 0.03091 0.78316 0.78048 0.0
H457 H 0.04298 0.78927 0.72317 0.0
C458 C 0.36098 0.9128 0.66519 0.0
C459 C 0.33701 0.87958 0.65665 0.0
C460 C 0.31086 0.91058 0.5869 0.0
C461 C 0.33287 0.94483 0.59688 0.0
N462 N 0.37384 0.9813 0.6495 0.0
N463 N 0.28322 0.85027 0.61483 0.0
C464 C 0.35655 0.94672 0.63719 0.0
C465 C 0.31022 0.87954 0.61906 0.0
N466 N 0.38914 0.91137 0.69879 0.0
N467 N 0.29183 0.90693 0.54566 0.0
H468 H 0.2813 0.82751 0.63818 0.0
H469 H 0.2603 0.85056 0.59096 0.0
H470 H 0.29173 0.92874 0.52098 0.0
H471 H 0.27937 0.88088 0.53405 0.0
H472 H 0.41059 0.93264 0.70333 0.0
H473 H 0.39282 0.88743 0.7203 0.0
H474 H 0.38787 0.98597 0.68089 0.0
H475 H 0.37152 1.00647 0.62972 0.0
C476 C 0.15155 0.31967 0.71642 0.0
C477 C 0.1773 0.28835 0.7273 0.0
C478 C 0.15508 0.252 0.65919 0.0
C479 C 0.12942 0.28372 0.64709 0.0
N480 N 0.09509 0.34258 0.67351 0.0
N481 N 0.19113 0.21968 0.72048 0.0
C482 C 0.12494 0.31587 0.67873 0.0
C483 C 0.17448 0.25268 0.70265 0.0
N484 N 0.15401 0.35393 0.74101 0.0
N485 N 0.16399 0.22294 0.62822 0.0
H486 H 0.2037 0.21985 0.75322 0.0
H487 H 0.18803 0.19194 0.70558 0.0
H488 H 0.15369 0.22249 0.59458 0.0
H489 H 0.18539 0.20151 0.63435 0.0
H490 H 0.14028 0.37996 0.73118 0.0
H491 H 0.17151 0.35644 0.77046 0.0
H492 H 0.08811 0.3638 0.69819 0.0
H493 H 0.07482 0.34161 0.64678 0.0
C494 C 0.74054 0.22718 0.62093 0.0
C495 C 0.74978 0.22749 0.6686 0.0
C496 C 0.75936 0.15616 0.66471 0.0
C497 C 0.74514 0.15518 0.61863 0.0
N498 N 0.71738 0.1904 0.55463 0.0
N499 N 0.75938 0.19067 0.73776 0.0
C500 C 0.73366 0.19086 0.59758 0.0
C501 C 0.75662 0.1915 0.69108 0.0
N502 N 0.7413 0.26132 0.59695 0.0
N503 N 0.7771 0.12387 0.68302 0.0
H504 H 0.75662 0.21571 0.7584 0.0
H505 H 0.76036 0.16468 0.7561 0.0
H506 H 0.78109 0.09796 0.66459 0.0
H507 H 0.79151 0.12423 0.71465 0.0
H508 H 0.73887 0.26236 0.56141 0.0
H509 H 0.74904 0.28816 0.61169 0.0
H510 H 0.70451 0.21506 0.53983 0.0
H511 H 0.71384 0.16489 0.5351 0.0
C512 C 0.99194 0.29069 0.33316 0.0
C513 C 0.96204 0.26241 0.33168 0.0
C514 C 0.97896 0.24265 0.41002 0.0
C515 C 1.01111 0.26915 0.41068 0.0
N516 N 0.05235 0.31315 0.36803 0.0
N517 N 0.93185 0.20605 0.36383 0.0
C518 C 0.0188 0.29167 0.37082 0.0
C519 C 0.95728 0.23653 0.36859 0.0
N520 N 0.99374 0.3176 0.29907 0.0
N521 N 0.96708 0.22551 0.44955 0.0
H522 H 0.91542 0.20136 0.33397 0.0
H523 H 0.92963 0.18374 0.38762 0.0
H524 H 0.97979 0.23134 0.48144 0.0
H525 H 0.94183 0.20869 0.45174 0.0
H526 H 1.01163 0.34216 0.30063 0.0
H527 H 0.97501 0.31686 0.27059 0.0
H528 H 0.06158 0.32614 0.33796 0.0
H529 H 0.073 0.3154 0.39429 0.0
C530 C 0.80999 0.94476 0.3794 0.0
C531 C 0.78072 0.91666 0.37049 0.0
C532 C 0.73893 0.94861 0.4289 0.0
C533 C 0.76636 0.97981 0.43374 0.0
N534 N 0.82423 1.01098 0.40244 0.0
N535 N 0.71415 0.89585 0.38026 0.0
C536 C 0.80073 0.97892 0.40568 0.0
C537 C 0.74415 0.91988 0.39325 0.0
N538 N 0.84742 0.93805 0.36444 0.0
N539 N 0.70942 0.94455 0.45984 0.0
H540 H 0.71709 0.87499 0.35403 0.0
H541 H 0.68558 0.89925 0.39239 0.0
H542 H 0.7057 0.96299 0.48817 0.0
H543 H 0.6912 0.92022 0.46022 0.0
H544 H 0.87105 0.95559 0.37415 0.0
H545 H 0.85566 0.91257 0.3467 0.0
H546 H 0.84686 1.0127 0.37874 0.0
H547 H 0.81895 0.03746 0.41932 0.0
C548 C 0.18736 0.80669 0.46528 0.0
C549 C 0.18153 0.78502 0.42408 0.0
C550 C 0.11081 0.78341 0.43899 0.0
C551 C 0.11739 0.79995 0.48324 0.0
N552 N 0.16364 0.82188 0.54137 0.0
N553 N 0.13883 0.74852 0.37388 0.0
C554 C 0.15609 0.81053 0.49713 0.0
C555 C 0.14345 0.77245 0.41137 0.0
N556 N 0.2224 0.82475 0.47326 0.0
N557 N 0.07322 0.77847 0.42333 0.0
H558 H 0.16245 0.73919 0.35379 0.0
H559 H 0.11243 0.73508 0.36517 0.0
H560 H 0.04877 0.78665 0.44266 0.0
H561 H 0.06633 0.76992 0.38988 0.0
H562 H 0.22726 0.84363 0.50096 0.0
H563 H 0.24527 0.82413 0.44973 0.0
H564 H 0.19197 0.8251 0.55458 0.0
H565 H 0.14196 0.825 0.56614 0.0
C566 C 0.32411 0.18427 0.39136 0.0
C567 C 0.32551 0.17293 0.34457 0.0
C568 C 0.33231 0.10416 0.36799 0.0
C569 C 0.32541 0.1155 0.41427 0.0
N570 N 0.30056 0.16661 0.46545 0.0
N571 N 0.32144 0.12076 0.28839 0.0
C572 C 0.31673 0.15554 0.42464 0.0
C573 C 0.32705 0.1324 0.33284 0.0
N574 N 0.3323 0.22179 0.40478 0.0
N575 N 0.34299 0.06647 0.35725 0.0
H576 H 0.31507 0.14056 0.2624 0.0
H577 H 0.3187 0.09149 0.27834 0.0
H578 H 0.34492 0.0443 0.38139 0.0
H579 H 0.35222 0.05784 0.32466 0.0
H580 H 0.33437 0.23027 0.43916 0.0
H581 H 0.34235 0.24279 0.38227 0.0
H582 H 0.2913 0.19532 0.47232 0.0
H583 H 0.29207 0.1468 0.49011 0.0
C584 C 0.72024 0.85468 0.94495 0.0
C585 C 0.71509 0.83542 0.90193 0.0
C586 C 0.65006 0.81344 0.92552 0.0
C587 C 0.65636 0.82948 0.97006 0.0
N588 N 0.70021 0.86022 0.0246 0.0
N589 N 0.6798 0.78738 0.85662 0.0
C590 C 0.69223 0.84883 0.98051 0.0
C591 C 0.68138 0.81212 0.89383 0.0
N592 N 0.75126 0.87925 0.95145 0.0
N593 N 0.61353 0.80094 0.9126 0.0
H594 H 0.70272 0.78424 0.83332 0.0
H595 H 0.65769 0.76679 0.85177 0.0
H596 H 0.5892 0.80334 0.93389 0.0
H597 H 0.60642 0.7925 0.87914 0.0
H598 H 0.75447 0.89738 0.98019 0.0
H599 H 0.77249 0.88347 0.92646 0.0
H600 H 0.72744 0.8707 0.03538 0.0
H601 H 0.68049 0.85633 0.05127 0.0
C602 C 0.31915 0.73776 0.90999 0.0
C603 C 0.29565 0.73412 0.86989 0.0
C604 C 0.2645 0.67607 0.9 0.0
C605 C 0.28847 0.67856 0.94035 0.0
N606 N 0.32885 0.71955 0.98941 0.0
N607 N 0.23617 0.71084 0.83565 0.0
C608 C 0.31295 0.71181 0.94717 0.0
C609 C 0.26478 0.70712 0.86838 0.0
N610 N 0.3479 0.7653 0.91206 0.0
N611 N 0.24367 0.64303 0.88957 0.0
H612 H 0.23618 0.73384 0.81238 0.0
H613 H 0.21069 0.69415 0.83515 0.0
H614 H 0.24381 0.61802 0.90944 0.0
H615 H 0.22938 0.63873 0.85823 0.0
H616 H 0.36951 0.76612 0.93752 0.0
H617 H 0.35054 0.78671 0.88717 0.0
H618 H 0.34416 0.74506 0.9973 0.0
H619 H 0.32329 0.70247 1.01792 0.0
C620 C 0.38359 0.26309 0.91835 0.0
C621 C 0.37308 0.29918 0.89769 0.0
C622 C 0.43302 0.32862 0.92907 0.0
C623 C 0.44275 0.29347 0.95281 0.0
N624 N 0.41735 0.23264 0.98213 0.0
N625 N 0.37993 0.3694 0.9007 0.0
C626 C 0.41506 0.26222 0.95118 0.0
C627 C 0.39508 0.33296 0.90923 0.0
N628 N 0.36497 0.22936 0.90577 0.0
N629 N 0.46034 0.35689 0.92181 0.0
H630 H 0.35151 0.3736 0.88775 0.0
H631 H 0.39375 0.39505 0.91166 0.0
H632 H 0.48997 0.35393 0.93005 0.0
H633 H 0.45453 0.38121 0.9015 0.0
H634 H 0.37463 0.20181 0.91635 0.0
H635 H 0.34184 0.22859 0.88221 0.0
H636 H 0.3961 0.21097 0.9842 0.0
H637 H 0.4372 0.23267 1.00949 0.0
C638 C 0.85897 0.3795 0.88937 0.0
C639 C 0.83629 0.38924 0.85009 0.0
C640 C 0.81949 0.45315 0.88467 0.0
C641 C 0.83985 0.44257 0.92537 0.0
N642 N 0.87382 0.39338 0.96956 0.0
N643 N 0.78792 0.43145 0.81444 0.0
C644 C 0.85827 0.40507 0.92862 0.0
C645 C 0.81434 0.42487 0.84912 0.0
N646 N 0.88185 0.34636 0.8887 0.0
N647 N 0.80672 0.49095 0.87889 0.0
H648 H 0.78313 0.41147 0.78773 0.0
H649 H 0.7679 0.45477 0.81457 0.0
H650 H 0.81119 0.51307 0.90326 0.0
H651 H 0.79541 0.50142 0.8481 0.0
H652 H 0.90243 0.33965 0.91408 0.0
H653 H 0.88183 0.32659 0.8611 0.0
H654 H 0.88404 0.36503 0.97556 0.0
H655 H 0.87383 0.41132 0.99877 0.0
C656 C 0.67273 0.22102 0.15844 0.0
C657 C 0.70961 0.22989 0.13921 0.0
C658 C 0.67644 0.25214 0.06892 0.0
C659 C 0.63943 0.24707 0.09004 0.0
N660 N 0.60176 0.23 0.15623 0.0
N661 N 0.74707 0.25807 0.07867 0.0
C662 C 0.63737 0.23208 0.13509 0.0
C663 C 0.71163 0.24624 0.09489 0.0
N664 N 0.67184 0.20139 0.19885 0.0
N665 N 0.67787 0.26204 0.02375 0.0
H666 H 0.77324 0.25489 0.09711 0.0
H667 H 0.75025 0.27416 0.04894 0.0
H668 H 0.6527 0.26679 1.00384 0.0
H669 H 0.7037 0.26238 1.00492 0.0
H670 H 0.64626 0.19065 0.21313 0.0
H671 H 0.69742 0.19309 0.21634 0.0
H672 H 0.59849 0.2236 0.19071 0.0
H673 H 0.5753 0.23717 0.1399 0.0
C674 C 0.82024 0.65787 0.16827 0.0
C675 C 0.85739 0.67244 0.18205 0.0
C676 C 0.88846 0.62091 0.13481 0.0
C677 C 0.85127 0.61072 0.11522 0.0
N678 N 0.78396 0.63453 0.10299 0.0
N679 N 0.92681 0.67431 0.16642 0.0
C680 C 0.81775 0.63376 0.12856 0.0
C681 C 0.89152 0.65613 0.16128 0.0
N682 N 0.78752 0.66455 0.19403 0.0
N683 N 0.92036 0.59646 0.13135 0.0
H684 H 0.92956 0.70122 0.18349 0.0
H685 H 0.95197 0.66491 0.14912 0.0
H686 H 0.91912 0.56815 0.11784 0.0
H687 H 0.94692 0.60232 0.14805 0.0
H688 H 0.76045 0.65212 0.1857 0.0
H689 H 0.78854 0.67732 0.22659 0.0
H690 H 0.76028 0.65289 0.11138 0.0
H691 H 0.78154 0.62204 0.07041 0.0
C692 C 0.44317 0.84222 0.2078 0.0
C693 C 0.41432 0.81266 0.20495 0.0
C694 C 0.44599 0.78631 0.13563 0.0
C695 C 0.47795 0.81273 0.14195 0.0
N696 N 0.51015 0.86013 0.19159 0.0
N697 N 0.39211 0.75225 0.17092 0.0
C698 C 0.47734 0.83936 0.17996 0.0
C699 C 0.41671 0.78358 0.17005 0.0
N700 N 0.43749 0.87356 0.23661 0.0
N701 N 0.44259 0.76464 0.09614 0.0
H702 H 0.37093 0.74889 0.19611 0.0
H703 H 0.3952 0.72785 0.14936 0.0
H704 H 0.46275 0.7656 0.06966 0.0
H705 H 0.41767 0.74849 0.08773 0.0
H706 H 0.4556 0.898 0.2371 0.0
H707 H 0.4123 0.87686 0.25649 0.0
H708 H 0.51233 0.87696 0.22152 0.0
H709 H 0.53675 0.85715 0.17442 0.0
C710 C 0.24799 0.46129 0.16991 0.0
C711 C 0.28223 0.43774 0.17387 0.0
C712 C 0.31802 0.48379 0.12658 0.0
C713 C 0.28427 0.50877 0.12403 0.0
N714 N 0.2223 0.52697 0.15911 0.0
N715 N 0.35319 0.43762 0.17384 0.0
C716 C 0.25066 0.49925 0.15047 0.0
C717 C 0.3184 0.45248 0.15811 0.0
N718 N 0.21302 0.44762 0.18523 0.0
N719 N 0.3487 0.48752 0.09715 0.0
H720 H 0.35484 0.41644 0.19908 0.0
H721 H 0.38022 0.44973 0.16564 0.0
H722 H 0.34888 0.5072 0.0703 0.0
H723 H 0.37201 0.46741 0.09601 0.0
H724 H 0.18624 0.46173 0.17887 0.0
H725 H 0.21082 0.421 0.20216 0.0
H726 H 0.19873 0.52229 0.18085 0.0
H727 H 0.22509 0.55613 0.1495 0.0
C728 C 0.4543 0.32677 0.21175 0.0
C729 C 0.41652 0.33882 0.19546 0.0
C730 C 0.44646 0.36 0.12351 0.0
C731 C 0.48224 0.34173 0.13657 0.0
N732 N 0.52134 0.30741 0.19228 0.0
N733 N 0.37638 0.36302 0.13237 0.0
C734 C 0.48664 0.32544 0.18075 0.0
C735 C 0.41268 0.35492 0.15068 0.0
N736 N 0.45918 0.31554 0.25617 0.0
N737 N 0.44431 0.38168 0.08447 0.0
H738 H 0.35045 0.36265 0.15093 0.0
H739 H 0.37157 0.36843 0.09774 0.0
H740 H 0.46768 0.38474 0.06204 0.0
H741 H 0.42033 0.39964 0.07643 0.0
H742 H 0.48652 0.31005 0.27116 0.0
H743 H 0.43627 0.31453 0.27946 0.0
H744 H 0.52532 0.29057 0.22144 0.0
H745 H 0.54595 0.3078 0.17119 0.0
C746 C 0.81687 0.40911 0.19221 0.0
C747 C 0.79951 0.37303 0.17888 0.0
C748 C 0.77178 0.40343 0.10994 0.0
C749 C 0.78873 0.43961 0.1233 0.0
N750 N 0.81926 0.47963 0.18179 0.0
N751 N 0.75069 0.33951 0.1333 0.0
C752 C 0.80861 0.44332 0.16609 0.0
C753 C 0.77377 0.37148 0.1404 0.0
N754 N 0.84287 0.41028 0.22809 0.0
N755 N 0.75612 0.39852 0.06695 0.0
H756 H 0.75104 0.31596 0.15545 0.0
H757 H 0.72834 0.33836 0.10872 0.0
H758 H 0.75435 0.42082 0.04298 0.0
H759 H 0.74789 0.37132 0.05359 0.0
H760 H 0.86003 0.43454 0.2361 0.0
H761 H 0.84912 0.38604 0.24837 0.0
H762 H 0.83057 0.4849 0.21451 0.0
H763 H 0.81335 0.50512 0.16347 0.0
C764 C 0.6646 0.74031 0.23868 0.0
C765 C 0.70136 0.75883 0.23304 0.0
C766 C 0.6872 0.76562 0.15056 0.0
C767 C 0.64839 0.75229 0.15746 0.0
N768 N 0.59901 0.72801 0.20801 0.0
N769 N 0.74715 0.79139 0.18412 0.0
C770 C 0.63692 0.73935 0.20141 0.0
C771 C 0.71268 0.7717 0.18896 0.0
N772 N 0.65626 0.72373 0.27972 0.0
N773 N 0.69986 0.77194 0.10698 0.0
H774 H 0.76726 0.79524 0.21084 0.0
H775 H 0.75483 0.80599 0.1545 0.0
H776 H 0.68197 0.76767 0.07817 0.0
H777 H 0.72892 0.77787 0.09888 0.0
H778 H 0.63163 0.70668 0.28531 0.0
H779 H 0.67586 0.72447 0.30741 0.0
H780 H 0.58725 0.72246 0.24002 0.0
H781 H 0.57843 0.72621 0.18139 0.0
C782 C 0.23982 0.74373 0.13933 0.0
C783 C 0.2273 0.73768 0.18492 0.0
C784 C 0.19794 0.67471 0.16132 0.0
C785 C 0.21232 0.67983 0.11642 0.0
N786 N 0.23555 0.72373 0.05922 0.0
N787 N 0.18461 0.70401 0.23609 0.0
C788 C 0.22928 0.71608 0.10436 0.0
C789 C 0.20291 0.70531 0.19468 0.0
N790 N 0.26406 0.77419 0.12994 0.0
N791 N 0.18184 0.63975 0.17286 0.0
H792 H 0.18744 0.72634 0.26067 0.0
H793 H 0.1639 0.68306 0.24431 0.0
H794 H 0.17668 0.6174 0.14892 0.0
H795 H 0.17531 0.63219 0.20634 0.0
H796 H 0.2784 0.77718 0.09886 0.0
H797 H 0.27166 0.79554 0.15416 0.0
H798 H 0.2449 0.7507 0.04741 0.0
H799 H 0.22753 0.7041 0.03313 0.0
C800 C 0.45615 0.78992 0.88977 0.0
C801 C 0.46637 0.76396 0.85346 0.0
C802 C 0.51991 0.73681 0.90107 0.0
C803 C 0.50673 0.75971 0.93935 0.0
N804 N 0.45648 0.80254 0.9713 0.0
N805 N 0.50404 0.70878 0.82619 0.0
C806 C 0.47314 0.78465 0.93398 0.0
C807 C 0.49708 0.73617 0.8597 0.0
N808 N 0.43141 0.82086 0.88151 0.0
N809 N 0.55539 0.7177 0.90289 0.0
H810 H 0.48806 0.70815 0.79552 0.0
H811 H 0.52323 0.68507 0.83035 0.0
H812 H 0.57402 0.71874 0.93135 0.0
H813 H 0.56821 0.70406 0.87452 0.0
H814 H 0.42596 0.84318 0.9054 0.0
H815 H 0.41957 0.82649 0.84919 0.0
H816 H 0.42954 0.81733 0.96999 0.0
H817 H 0.46741 0.79942 1.00441 0.0
C818 C 0.28843 0.47877 0.87126 0.0
C819 C 0.26041 0.44927 0.86262 0.0
C820 C 0.21832 0.47851 0.92253 0.0
C821 C 0.24434 0.51085 0.92731 0.0
N822 N 0.29935 0.54563 0.8951 0.0
N823 N 0.19471 0.42591 0.87298 0.0
C824 C 0.27796 0.51214 0.89835 0.0
C825 C 0.22409 0.45064 0.88613 0.0
N826 N 0.32583 0.47417 0.8553 0.0
N827 N 0.18961 0.47272 0.95405 0.0
H828 H 0.19774 0.40602 0.84576 0.0
H829 H 0.1663 0.42801 0.88591 0.0
H830 H 0.18556 0.49067 0.98276 0.0
H831 H 0.17254 0.44755 0.95437 0.0
H832 H 0.3486 0.49298 0.8645 0.0
H833 H 0.33509 0.44922 0.83723 0.0
H834 H 0.32164 0.54887 0.87123 0.0
H835 H 0.29214 0.57165 0.91214 0.0
C836 C 0.67232 0.3702 0.88375 0.0
C837 C 0.65946 0.35563 0.84062 0.0
C838 C 0.5988 0.33228 0.87537 0.0
C839 C 0.61337 0.34351 0.91942 0.0
N840 N 0.66745 0.36658 0.96631 0.0
N841 N 0.61379 0.31794 0.79567 0.0
C842 C 0.65103 0.36093 0.92386 0.0
C843 C 0.6235 0.33544 0.83649 0.0
N844 N 0.70471 0.39345 0.88603 0.0
N845 N 0.56094 0.31979 0.87036 0.0
H846 H 0.63127 0.32 0.76666 0.0
H847 H 0.59022 0.29897 0.79149 0.0
H848 H 0.54188 0.31688 0.89777 0.0
H849 H 0.54734 0.31537 0.83866 0.0
H850 H 0.71369 0.40825 0.91568 0.0
H851 H 0.72057 0.40073 0.85702 0.0
H852 H 0.69638 0.37539 0.97151 0.0
H853 H 0.65352 0.3589 0.9965 0.0
C854 C 0.74343 0.63382 0.87017 0.0
C855 C 0.77459 0.66093 0.86799 0.0
C856 C 0.80231 0.63497 0.93871 0.0
C857 C 0.77452 0.60413 0.93781 0.0
N858 N 0.72249 0.57045 0.89682 0.0
N859 N 0.83955 0.67929 0.89294 0.0
C860 C 0.74587 0.60251 0.90204 0.0
C861 C 0.80575 0.65916 0.90018 0.0
N862 N 0.7112 0.63852 0.8426 0.0
N863 N 0.82474 0.64214 0.97688 0.0
H864 H 0.84424 0.69516 0.86329 0.0
H865 H 0.86453 0.67619 0.91356 0.0
H866 H 0.8219 0.62657 1.00703 0.0
H867 H 0.84279 0.66653 0.98027 0.0
H868 H 0.68587 0.62191 0.84569 0.0
H869 H 0.70864 0.66137 0.81936 0.0
H870 H 0.70396 0.56625 0.86863 0.0
H871 H 0.72418 0.54636 0.9183 0.0
loop_
_geom_bond_atom_site_label_1
_geom_bond_atom_site_label_2
_geom_bond_distance
_geom_bond_site_symmetry_2
_ccdc_geom_bond_type
Cu0 N1 1.999 . S
Cu0 O6 1.974 . S
Cu0 N11 1.985 . S
Cu0 O20 1.959 . S
N1 Cu0 1.999 . S
N1 C3 1.263 . S
N1 C5 1.389 . S
N2 C3 1.358 . S
N2 C4 1.400 . S
C3 N1 1.263 . S
C3 N2 1.358 . S
C3 H9 0.930 . S
C4 N2 1.400 . S
C4 C5 1.351 . S
C4 H21 0.930 . S
C5 N1 1.389 . S
C5 C4 1.351 . S
C5 H10 0.930 . S
O6 Cu0 1.974 . S
O6 C16 1.282 . S
C7 O8 1.261 . S
C7 O20 1.251 . S
O8 C7 1.261 . S
H9 C3 0.930 . S
H10 C5 0.930 . S
N11 Cu0 1.985 . S
N11 C13 1.335 . S
N11 C14 1.390 . S
N12 C13 1.345 . S
N12 C15 1.336 . S
C13 N11 1.335 . S
C13 N12 1.345 . S
C13 H18 0.930 . S
C14 N11 1.390 . S
C14 C15 1.346 . S
C14 H19 0.930 . S
C15 N12 1.336 . S
C15 C14 1.346 . S
C15 H22 0.929 . S
C16 O6 1.282 . S
C16 O17 1.216 . S
O17 C16 1.216 . S
H18 C13 0.930 . S
H19 C14 0.930 . S
O20 Cu0 1.959 . S
O20 C7 1.251 . S
H21 C4 0.930 . S
H22 C15 0.929 . S
Cu23 N24 1.999 . S
Cu23 O29 1.974 . S
Cu23 N34 1.985 . S
Cu23 O43 1.959 . S
N24 Cu23 1.999 . S
N24 C26 1.263 . S
N24 C28 1.389 . S
N25 C26 1.358 . S
N25 C27 1.400 . S
C26 N24 1.263 . S
C26 N25 1.358 . S
C26 H32 0.930 . S
C27 N25 1.400 . S
C27 C28 1.351 . S
C27 H44 0.930 . S
C28 N24 1.389 . S
C28 C27 1.351 . S
C28 H33 0.930 . S
O29 Cu23 1.974 . S
O29 C39 1.282 . S
C30 O31 1.261 . S
C30 O43 1.251 . S
O31 C30 1.261 . S
H32 C26 0.930 . S
H33 C28 0.930 . S
N34 Cu23 1.985 . S
N34 C36 1.335 . S
N34 C37 1.390 . S
N35 C36 1.345 . S
N35 C38 1.336 . S
C36 N34 1.335 . S
C36 N35 1.345 . S
C36 H41 0.930 . S
C37 N34 1.390 . S
C37 C38 1.346 . S
C37 H42 0.930 . S
C38 N35 1.336 . S
C38 C37 1.346 . S
C38 H45 0.929 . S
C39 O29 1.282 . S
C39 O40 1.216 . S
O40 C39 1.216 . S
H41 C36 0.930 . S
H42 C37 0.930 . S
O43 Cu23 1.959 . S
O43 C30 1.251 . S
H44 C27 0.930 . S
H45 C38 0.929 . S
Cu46 N47 1.999 . S
Cu46 O52 1.974 . S
Cu46 N57 1.985 . S
Cu46 O66 1.959 . S
N47 Cu46 1.999 . S
N47 C49 1.263 . S
N47 C51 1.389 . S
N48 C49 1.358 . S
N48 C50 1.400 . S
C49 N47 1.263 . S
C49 N48 1.358 . S
C49 H55 0.930 . S
C50 N48 1.400 . S
C50 C51 1.351 . S
C50 H67 0.930 . S
C51 N47 1.389 . S
C51 C50 1.351 . S
C51 H56 0.930 . S
O52 Cu46 1.974 . S
O52 C62 1.282 . S
C53 O54 1.261 . S
C53 O66 1.251 . S
O54 C53 1.261 . S
H55 C49 0.930 . S
H56 C51 0.930 . S
N57 Cu46 1.985 . S
N57 C59 1.335 . S
N57 C60 1.390 . S
N58 C59 1.345 . S
N58 C61 1.336 . S
C59 N57 1.335 . S
C59 N58 1.345 . S
C59 H64 0.930 . S
C60 N57 1.390 . S
C60 C61 1.346 . S
C60 H65 0.930 . S
C61 N58 1.336 . S
C61 C60 1.346 . S
C61 H68 0.929 . S
C62 O52 1.282 . S
C62 O63 1.216 . S
O63 C62 1.216 . S
H64 C59 0.930 . S
H65 C60 0.930 . S
O66 Cu46 1.959 . S
O66 C53 1.251 . S
H67 C50 0.930 . S
H68 C61 0.929 . S
Cu69 N70 1.999 . S
Cu69 O75 1.974 . S
Cu69 N80 1.985 . S
Cu69 O89 1.959 . S
N70 Cu69 1.999 . S
N70 C72 1.263 . S
N70 C74 1.389 . S
N71 C72 1.358 . S
N71 C73 1.400 . S
C72 N70 1.263 . S
C72 N71 1.358 . S
C72 H78 0.930 . S
C73 N71 1.400 . S
C73 C74 1.351 . S
C73 H90 0.930 . S
C74 N70 1.389 . S
C74 C73 1.351 . S
C74 H79 0.930 . S
O75 Cu69 1.974 . S
O75 C85 1.282 . S
C76 O77 1.261 . S
C76 O89 1.251 . S
O77 C76 1.261 . S
H78 C72 0.930 . S
H79 C74 0.930 . S
N80 Cu69 1.985 . S
N80 C82 1.335 . S
N80 C83 1.390 . S
N81 C82 1.345 . S
N81 C84 1.336 . S
C82 N80 1.335 . S
C82 N81 1.345 . S
C82 H87 0.930 . S
C83 N80 1.390 . S
C83 C84 1.346 . S
C83 H88 0.930 . S
C84 N81 1.336 . S
C84 C83 1.346 . S
C84 H91 0.929 . S
C85 O75 1.282 . S
C85 O86 1.216 . S
O86 C85 1.216 . S
H87 C82 0.930 . S
H88 C83 0.930 . S
O89 Cu69 1.959 . S
O89 C76 1.251 . S
H90 C73 0.930 . S
H91 C84 0.929 . S
Cu92 N93 1.999 . S
Cu92 O98 1.974 . S
Cu92 N103 1.985 . S
Cu92 O112 1.959 . S
N93 Cu92 1.999 . S
N93 C95 1.263 . S
N93 C97 1.389 . S
N94 C95 1.358 . S
N94 C96 1.400 . S
C95 N93 1.263 . S
C95 N94 1.358 . S
C95 H101 0.930 . S
C96 N94 1.400 . S
C96 C97 1.351 . S
C96 H113 0.930 . S
C97 N93 1.389 . S
C97 C96 1.351 . S
C97 H102 0.930 . S
O98 Cu92 1.974 . S
O98 C108 1.282 . S
C99 O100 1.261 . S
C99 O112 1.251 . S
O100 C99 1.261 . S
H101 C95 0.930 . S
H102 C97 0.930 . S
N103 Cu92 1.985 . S
N103 C105 1.335 . S
N103 C106 1.390 . S
N104 C105 1.345 . S
N104 C107 1.336 . S
C105 N103 1.335 . S
C105 N104 1.345 . S
C105 H110 0.930 . S
C106 N103 1.390 . S
C106 C107 1.346 . S
C106 H111 0.930 . S
C107 N104 1.336 . S
C107 C106 1.346 . S
C107 H114 0.929 . S
C108 O98 1.282 . S
C108 O109 1.216 . S
O109 C108 1.216 . S
H110 C105 0.930 . S
H111 C106 0.930 . S
O112 Cu92 1.959 . S
O112 C99 1.251 . S
H113 C96 0.930 . S
H114 C107 0.929 . S
Cu115 N116 1.999 . S
Cu115 O121 1.974 . S
Cu115 N126 1.985 . S
Cu115 O135 1.959 . S
N116 Cu115 1.999 . S
N116 C118 1.263 . S
N116 C120 1.389 . S
N117 C118 1.358 . S
N117 C119 1.400 . S
C118 N116 1.263 . S
C118 N117 1.358 . S
C118 H124 0.930 . S
C119 N117 1.400 . S
C119 C120 1.351 . S
C119 H136 0.930 . S
C120 N116 1.389 . S
C120 C119 1.351 . S
C120 H125 0.930 . S
O121 Cu115 1.974 . S
O121 C131 1.282 . S
C122 O123 1.261 . S
C122 O135 1.251 . S
O123 C122 1.261 . S
H124 C118 0.930 . S
H125 C120 0.930 . S
N126 Cu115 1.985 . S
N126 C128 1.335 . S
N126 C129 1.390 . S
N127 C128 1.345 . S
N127 C130 1.336 . S
C128 N126 1.335 . S
C128 N127 1.345 . S
C128 H133 0.930 . S
C129 N126 1.390 . S
C129 C130 1.346 . S
C129 H134 0.930 . S
C130 N127 1.336 . S
C130 C129 1.346 . S
C130 H137 0.929 . S
C131 O121 1.282 . S
C131 O132 1.216 . S
O132 C131 1.216 . S
H133 C128 0.930 . S
H134 C129 0.930 . S
O135 Cu115 1.959 . S
O135 C122 1.251 . S
H136 C119 0.930 . S
H137 C130 0.929 . S
Cu138 N139 1.999 . S
Cu138 O144 1.974 . S
Cu138 N149 1.985 . S
Cu138 O158 1.959 . S
N139 Cu138 1.999 . S
N139 C141 1.263 . S
N139 C143 1.389 . S
N140 C141 1.358 . S
N140 C142 1.400 . S
C141 N139 1.263 . S
C141 N140 1.358 . S
C141 H147 0.930 . S
C142 N140 1.400 . S
C142 C143 1.351 . S
C142 H159 0.930 . S
C143 N139 1.389 . S
C143 C142 1.351 . S
C143 H148 0.930 . S
O144 Cu138 1.974 . S
O144 C154 1.282 . S
C145 O146 1.261 . S
C145 O158 1.251 . S
O146 C145 1.261 . S
H147 C141 0.930 . S
H148 C143 0.930 . S
N149 Cu138 1.985 . S
N149 C151 1.335 . S
N149 C152 1.390 . S
N150 C151 1.345 . S
N150 C153 1.336 . S
C151 N149 1.335 . S
C151 N150 1.345 . S
C151 H156 0.930 . S
C152 N149 1.390 . S
C152 C153 1.346 . S
C152 H157 0.930 . S
C153 N150 1.336 . S
C153 C152 1.346 . S
C153 H160 0.929 . S
C154 O144 1.282 . S
C154 O155 1.216 . S
O155 C154 1.216 . S
H156 C151 0.930 . S
H157 C152 0.930 . S
O158 Cu138 1.959 . S
O158 C145 1.251 . S
H159 C142 0.930 . S
H160 C153 0.929 . S
Cu161 N162 1.999 . S
Cu161 O167 1.974 . S
Cu161 N172 1.985 . S
Cu161 O181 1.959 . S
N162 Cu161 1.999 . S
N162 C164 1.263 . S
N162 C166 1.389 . S
N163 C164 1.358 . S
N163 C165 1.400 . S
C164 N162 1.263 . S
C164 N163 1.358 . S
C164 H170 0.930 . S
C165 N163 1.400 . S
C165 C166 1.351 . S
C165 H182 0.930 . S
C166 N162 1.389 . S
C166 C165 1.351 . S
C166 H171 0.930 . S
O167 Cu161 1.974 . S
O167 C177 1.282 . S
C168 O169 1.261 . S
C168 O181 1.251 . S
O169 C168 1.261 . S
H170 C164 0.930 . S
H171 C166 0.930 . S
N172 Cu161 1.985 . S
N172 C174 1.335 . S
N172 C175 1.390 . S
N173 C174 1.345 . S
N173 C176 1.336 . S
C174 N172 1.335 . S
C174 N173 1.345 . S
C174 H179 0.930 . S
C175 N172 1.390 . S
C175 C176 1.346 . S
C175 H180 0.930 . S
C176 N173 1.336 . S
C176 C175 1.346 . S
C176 H183 0.929 . S
C177 O167 1.282 . S
C177 O178 1.216 . S
O178 C177 1.216 . S
H179 C174 0.930 . S
H180 C175 0.930 . S
O181 Cu161 1.959 . S
O181 C168 1.251 . S
H182 C165 0.930 . S
H183 C176 0.929 . S
C184 O186 1.247 . S
C184 O188 1.258 . S
C185 O192 1.247 . S
C185 O193 1.258 . S
O186 C184 1.247 . S
O186 Zn187 2.028 . S
Zn187 O186 2.028 . S
Zn187 O191 2.035 . S
Zn187 O193 2.035 . S
Zn187 O194 2.028 . S
O188 C184 1.258 . S
O188 Zn189 2.035 . S
Zn189 O188 2.035 . S
Zn189 O190 2.028 . S
Zn189 O192 2.028 . S
Zn189 O195 2.035 . S
O190 Zn189 2.028 . S
O190 C196 1.247 . S
O191 Zn187 2.035 . S
O191 C196 1.258 . S
O192 C185 1.247 . S
O192 Zn189 2.028 . S
O193 C185 1.258 . S
O193 Zn187 2.035 . S
O194 Zn187 2.028 . S
O194 C197 1.247 . S
O195 Zn189 2.035 . S
O195 C197 1.258 . S
C196 O190 1.247 . S
C196 O191 1.258 . S
C197 O194 1.247 . S
C197 O195 1.258 . S
C198 O200 1.247 . S
C198 O202 1.258 . S
C199 O206 1.247 . S
C199 O207 1.258 . S
O200 C198 1.247 . S
O200 Zn201 2.028 . S
Zn201 O200 2.028 . S
Zn201 O205 2.035 . S
Zn201 O207 2.035 . S
Zn201 O208 2.028 . S
O202 C198 1.258 . S
O202 Zn203 2.035 . S
Zn203 O202 2.035 . S
Zn203 O204 2.028 . S
Zn203 O206 2.028 . S
Zn203 O209 2.035 . S
O204 Zn203 2.028 . S
O204 C210 1.247 . S
O205 Zn201 2.035 . S
O205 C210 1.258 . S
O206 C199 1.247 . S
O206 Zn203 2.028 . S
O207 C199 1.258 . S
O207 Zn201 2.035 . S
O208 Zn201 2.028 . S
O208 C211 1.247 . S
O209 Zn203 2.035 . S
O209 C211 1.258 . S
C210 O204 1.247 . S
C210 O205 1.258 . S
C211 O208 1.247 . S
C211 O209 1.258 . S
C212 O214 1.247 . S
C212 O216 1.258 . S
C213 O220 1.247 . S
C213 O221 1.258 . S
O214 C212 1.247 . S
O214 Zn215 2.028 1_655 S
Zn215 O214 2.028 1_455 S
Zn215 O219 2.035 . S
Zn215 O221 2.035 . S
Zn215 O222 2.028 1_455 S
O216 C212 1.258 . S
O216 Zn217 2.035 1_655 S
Zn217 O216 2.035 1_455 S
Zn217 O218 2.028 . S
Zn217 O220 2.028 . S
Zn217 O223 2.035 1_455 S
O218 Zn217 2.028 . S
O218 C224 1.247 . S
O219 Zn215 2.035 . S
O219 C224 1.258 . S
O220 C213 1.247 . S
O220 Zn217 2.028 . S
O221 C213 1.258 . S
O221 Zn215 2.035 . S
O222 Zn215 2.028 1_655 S
O222 C225 1.247 . S
O223 Zn217 2.035 1_655 S
O223 C225 1.258 . S
C224 O218 1.247 . S
C224 O219 1.258 . S
C225 O222 1.247 . S
C225 O223 1.258 . S
C226 O228 1.247 . S
C226 O230 1.258 . S
C227 O234 1.247 . S
C227 O235 1.258 . S
O228 C226 1.247 . S
O228 Zn229 2.028 . S
Zn229 O228 2.028 . S
Zn229 O233 2.035 1_545 S
Zn229 O235 2.035 1_545 S
Zn229 O236 2.028 . S
O230 C226 1.258 . S
O230 Zn231 2.035 . S
Zn231 O230 2.035 . S
Zn231 O232 2.028 1_545 S
Zn231 O234 2.028 1_545 S
Zn231 O237 2.035 . S
O232 Zn231 2.028 1_565 S
O232 C238 1.247 . S
O233 Zn229 2.035 1_565 S
O233 C238 1.258 . S
O234 C227 1.247 . S
O234 Zn231 2.028 1_565 S
O235 C227 1.258 . S
O235 Zn229 2.035 1_565 S
O236 Zn229 2.028 . S
O236 C239 1.247 . S
O237 Zn231 2.035 . S
O237 C239 1.258 . S
C238 O232 1.247 . S
C238 O233 1.258 . S
C239 O236 1.247 . S
C239 O237 1.258 . S
C240 O242 1.247 . S
C240 O244 1.258 . S
C241 O248 1.247 . S
C241 O249 1.258 . S
O242 C240 1.247 . S
O242 Zn243 2.028 . S
Zn243 O242 2.028 . S
Zn243 O247 2.036 . S
Zn243 O249 2.035 1_554 S
Zn243 O250 2.027 1_554 S
O244 C240 1.258 . S
O244 Zn245 2.051 . S
Zn245 O244 2.051 . S
Zn245 O246 2.045 . S
Zn245 O248 2.012 1_554 S
Zn245 O251 2.019 1_554 S
O246 Zn245 2.045 . S
O246 C252 1.247 . S
O247 Zn243 2.036 . S
O247 C252 1.258 . S
O248 C241 1.247 . S
O248 Zn245 2.012 1_556 S
O249 C241 1.258 . S
O249 Zn243 2.035 1_556 S
O250 Zn243 2.027 1_556 S
O250 C253 1.247 . S
O251 Zn245 2.019 1_556 S
O251 C253 1.258 . S
C252 O246 1.247 . S
C252 O247 1.258 . S
C253 O250 1.247 . S
C253 O251 1.258 . S
C254 O256 1.247 . S
C254 O258 1.258 . S
C255 O262 1.247 . S
C255 O263 1.258 . S
O256 C254 1.247 . S
O256 Zn257 2.028 . S
Zn257 O256 2.028 . S
Zn257 O261 2.035 . S
Zn257 O263 2.035 1_554 S
Zn257 O264 2.028 1_554 S
O258 C254 1.258 . S
O258 Zn259 2.035 . S
Zn259 O258 2.035 . S
Zn259 O260 2.028 . S
Zn259 O262 2.028 1_554 S
Zn259 O265 2.035 1_554 S
O260 Zn259 2.028 . S
O260 C266 1.247 . S
O261 Zn257 2.035 . S
O261 C266 1.258 . S
O262 C255 1.247 . S
O262 Zn259 2.028 1_556 S
O263 C255 1.258 . S
O263 Zn257 2.035 1_556 S
O264 Zn257 2.028 1_556 S
O264 C267 1.247 . S
O265 Zn259 2.035 1_556 S
O265 C267 1.258 . S
C266 O260 1.247 . S
C266 O261 1.258 . S
C267 O264 1.247 . S
C267 O265 1.258 . S
C268 O270 1.247 . S
C268 O272 1.258 . S
C269 O276 1.247 . S
C269 O277 1.258 . S
O270 C268 1.247 . S
O270 Zn271 2.028 1_556 S
Zn271 O270 2.028 1_554 S
Zn271 O275 2.035 1_554 S
Zn271 O277 2.035 . S
Zn271 O278 2.028 . S
O272 C268 1.258 . S
O272 Zn273 2.035 1_556 S
Zn273 O272 2.035 1_554 S
Zn273 O274 2.028 1_554 S
Zn273 O276 2.028 . S
Zn273 O279 2.035 . S
O274 Zn273 2.028 1_556 S
O274 C280 1.247 . S
O275 Zn271 2.035 1_556 S
O275 C280 1.258 . S
O276 C269 1.247 . S
O276 Zn273 2.028 . S
O277 C269 1.258 . S
O277 Zn271 2.035 . S
O278 Zn271 2.028 . S
O278 C281 1.247 . S
O279 Zn273 2.035 . S
O279 C281 1.258 . S
C280 O274 1.247 . S
C280 O275 1.258 . S
C281 O278 1.247 . S
C281 O279 1.258 . S
C282 O284 1.247 . S
C282 O286 1.258 . S
C283 O290 1.247 . S
C283 O291 1.258 . S
O284 C282 1.247 . S
O284 Zn285 2.028 . S
Zn285 O284 2.028 . S
Zn285 O289 2.035 . S
Zn285 O291 2.035 1_554 S
Zn285 O292 2.028 1_554 S
O286 C282 1.258 . S
O286 Zn287 2.035 . S
Zn287 O286 2.035 . S
Zn287 O288 2.028 . S
Zn287 O290 2.028 1_554 S
Zn287 O293 2.035 1_554 S
O288 Zn287 2.028 . S
O288 C294 1.247 . S
O289 Zn285 2.035 . S
O289 C294 1.258 . S
O290 C283 1.247 . S
O290 Zn287 2.028 1_556 S
O291 C283 1.258 . S
O291 Zn285 2.035 1_556 S
O292 Zn285 2.028 1_556 S
O292 C295 1.247 . S
O293 Zn287 2.035 1_556 S
O293 C295 1.258 . S
C294 O288 1.247 . S
C294 O289 1.258 . S
C295 O292 1.247 . S
C295 O293 1.258 . S
C296 C297 1.363 . S
C296 C302 1.379 . S
C296 N304 1.356 . S
C297 C296 1.363 . S
C297 C303 1.363 . S
C298 C299 1.363 . S
C298 C303 1.379 . S
C298 N305 1.356 . S
C299 C298 1.363 . S
C299 C302 1.363 . S
N300 C302 1.356 . S
N300 H312 0.984 . S
N300 H313 0.985 . S
N301 C303 1.356 . S
N301 H306 0.984 . S
N301 H307 0.985 . S
C302 C296 1.379 . S
C302 C299 1.363 . S
C302 N300 1.356 . S
C303 C297 1.363 . S
C303 C298 1.379 . S
C303 N301 1.356 . S
N304 C296 1.356 . S
N304 H310 0.984 . S
N304 H311 0.984 . S
N305 C298 1.356 . S
N305 H308 0.984 . S
N305 H309 0.985 . S
H306 N301 0.984 . S
H307 N301 0.985 . S
H308 N305 0.984 . S
H309 N305 0.985 . S
H310 N304 0.984 . S
H311 N304 0.984 . S
H312 N300 0.984 . S
H313 N300 0.985 . S
C314 C315 1.363 . S
C314 C320 1.379 . S
C314 N322 1.356 . S
C315 C314 1.363 . S
C315 C321 1.363 . S
C316 C317 1.363 . S
C316 C321 1.379 . S
C316 N323 1.356 . S
C317 C316 1.363 . S
C317 C320 1.363 . S
N318 C320 1.356 . S
N318 H330 0.984 . S
N318 H331 0.985 . S
N319 C321 1.356 . S
N319 H324 0.984 . S
N319 H325 0.985 . S
C320 C314 1.379 . S
C320 C317 1.363 . S
C320 N318 1.356 . S
C321 C315 1.363 . S
C321 C316 1.379 . S
C321 N319 1.356 . S
N322 C314 1.356 . S
N322 H328 0.984 . S
N322 H329 0.984 . S
N323 C316 1.356 . S
N323 H326 0.984 . S
N323 H327 0.985 . S
H324 N319 0.984 . S
H325 N319 0.985 . S
H326 N323 0.984 . S
H327 N323 0.985 . S
H328 N322 0.984 . S
H329 N322 0.984 . S
H330 N318 0.984 . S
H331 N318 0.985 . S
C332 C333 1.363 . S
C332 C338 1.379 . S
C332 N340 1.356 . S
C333 C332 1.363 . S
C333 C339 1.363 . S
C334 C335 1.363 . S
C334 C339 1.379 . S
C334 N341 1.356 . S
C335 C334 1.363 . S
C335 C338 1.363 . S
N336 C338 1.356 . S
N336 H348 0.984 . S
N336 H349 0.985 . S
N337 C339 1.356 . S
N337 H342 0.984 . S
N337 H343 0.985 . S
C338 C332 1.379 . S
C338 C335 1.363 . S
C338 N336 1.356 . S
C339 C333 1.363 . S
C339 C334 1.379 . S
C339 N337 1.356 . S
N340 C332 1.356 . S
N340 H346 0.984 . S
N340 H347 0.984 . S
N341 C334 1.356 . S
N341 H344 0.984 . S
N341 H345 0.985 . S
H342 N337 0.984 . S
H343 N337 0.985 . S
H344 N341 0.984 . S
H345 N341 0.985 . S
H346 N340 0.984 . S
H347 N340 0.984 . S
H348 N336 0.984 . S
H349 N336 0.985 . S
C350 C351 1.363 . S
C350 C356 1.379 . S
C350 N358 1.356 . S
C351 C350 1.363 . S
C351 C357 1.363 . S
C352 C353 1.363 . S
C352 C357 1.379 . S
C352 N359 1.356 . S
C353 C352 1.363 . S
C353 C356 1.363 . S
N354 C356 1.356 . S
N354 H366 0.984 . S
N354 H367 0.985 . S
N355 C357 1.356 . S
N355 H360 0.984 . S
N355 H361 0.985 . S
C356 C350 1.379 . S
C356 C353 1.363 . S
C356 N354 1.356 . S
C357 C351 1.363 . S
C357 C352 1.379 . S
C357 N355 1.356 . S
N358 C350 1.356 . S
N358 H364 0.984 . S
N358 H365 0.984 . S
N359 C352 1.356 . S
N359 H362 0.984 . S
N359 H363 0.985 . S
H360 N355 0.984 . S
H361 N355 0.985 . S
H362 N359 0.984 . S
H363 N359 0.985 . S
H364 N358 0.984 . S
H365 N358 0.984 . S
H366 N354 0.984 . S
H367 N354 0.985 . S
C368 C369 1.363 . S
C368 C374 1.379 . S
C368 N376 1.356 . S
C369 C368 1.363 . S
C369 C375 1.363 . S
C370 C371 1.363 . S
C370 C375 1.379 . S
C370 N377 1.356 . S
C371 C370 1.363 . S
C371 C374 1.363 . S
N372 C374 1.356 . S
N372 H384 0.984 . S
N372 H385 0.985 . S
N373 C375 1.356 . S
N373 H378 0.984 . S
N373 H379 0.985 . S
C374 C368 1.379 . S
C374 C371 1.363 . S
C374 N372 1.356 . S
C375 C369 1.363 . S
C375 C370 1.379 . S
C375 N373 1.356 . S
N376 C368 1.356 . S
N376 H382 0.984 . S
N376 H383 0.984 . S
N377 C370 1.356 . S
N377 H380 0.984 . S
N377 H381 0.985 . S
H378 N373 0.984 . S
H379 N373 0.985 . S
H380 N377 0.984 . S
H381 N377 0.985 . S
H382 N376 0.984 . S
H383 N376 0.984 . S
H384 N372 0.984 . S
H385 N372 0.985 . S
C386 C387 1.363 . S
C386 C392 1.379 . S
C386 N394 1.356 . S
C387 C386 1.363 . S
C387 C393 1.363 . S
C388 C389 1.363 . S
C388 C393 1.379 . S
C388 N395 1.356 . S
C389 C388 1.363 . S
C389 C392 1.363 . S
N390 C392 1.356 . S
N390 H402 0.984 . S
N390 H403 0.985 . S
N391 C393 1.356 . S
N391 H396 0.984 . S
N391 H397 0.985 . S
C392 C386 1.379 . S
C392 C389 1.363 . S
C392 N390 1.356 . S
C393 C387 1.363 . S
C393 C388 1.379 . S
C393 N391 1.356 . S
N394 C386 1.356 . S
N394 H400 0.984 . S
N394 H401 0.984 . S
N395 C388 1.356 . S
N395 H398 0.984 . S
N395 H399 0.985 . S
H396 N391 0.984 . S
H397 N391 0.985 . S
H398 N395 0.984 . S
H399 N395 0.985 . S
H400 N394 0.984 . S
H401 N394 0.984 . S
H402 N390 0.984 . S
H403 N390 0.985 . S
C404 C405 1.363 . S
C404 C410 1.379 . S
C404 N412 1.356 . S
C405 C404 1.363 . S
C405 C411 1.363 . S
C406 C407 1.363 . S
C406 C411 1.379 . S
C406 N413 1.356 1_655 S
C407 C406 1.363 . S
C407 C410 1.363 . S
N408 C410 1.356 . S
N408 H420 0.984 . S
N408 H421 0.985 . S
N409 C411 1.356 . S
N409 H414 0.984 . S
N409 H415 0.985 . S
C410 C404 1.379 . S
C410 C407 1.363 . S
C410 N408 1.356 . S
C411 C405 1.363 . S
C411 C406 1.379 . S
C411 N409 1.356 . S
N412 C404 1.356 . S
N412 H418 0.984 . S
N412 H419 0.984 . S
N413 C406 1.356 1_455 S
N413 H416 0.984 . S
N413 H417 0.985 . S
H414 N409 0.984 . S
H415 N409 0.985 . S
H416 N413 0.984 . S
H417 N413 0.985 . S
H418 N412 0.984 . S
H419 N412 0.984 . S
H420 N408 0.984 . S
H421 N408 0.985 . S
C422 C423 1.363 . S
C422 C428 1.379 . S
C422 N430 1.356 . S
C423 C422 1.363 . S
C423 C429 1.363 . S
C424 C425 1.363 . S
C424 C429 1.379 . S
C424 N431 1.356 . S
C425 C424 1.363 . S
C425 C428 1.363 . S
N426 C428 1.356 . S
N426 H438 0.984 . S
N426 H439 0.985 . S
N427 C429 1.356 . S
N427 H432 0.984 . S
N427 H433 0.985 . S
C428 C422 1.379 . S
C428 C425 1.363 . S
C428 N426 1.356 . S
C429 C423 1.363 . S
C429 C424 1.379 . S
C429 N427 1.356 . S
N430 C422 1.356 . S
N430 H436 0.984 . S
N430 H437 0.984 . S
N431 C424 1.356 . S
N431 H434 0.984 1_565 S
N431 H435 0.985 . S
H432 N427 0.984 . S
H433 N427 0.985 . S
H434 N431 0.984 1_545 S
H435 N431 0.985 . S
H436 N430 0.984 . S
H437 N430 0.984 . S
H438 N426 0.984 . S
H439 N426 0.985 . S
C440 C441 1.363 . S
C440 C446 1.379 . S
C440 N448 1.356 . S
C441 C440 1.363 . S
C441 C447 1.363 . S
C442 C443 1.363 . S
C442 C447 1.379 . S
C442 N449 1.356 . S
C443 C442 1.363 . S
C443 C446 1.363 . S
N444 C446 1.356 . S
N444 H456 0.984 . S
N444 H457 0.985 . S
N445 C447 1.356 . S
N445 H450 0.984 . S
N445 H451 0.985 . S
C446 C440 1.379 . S
C446 C443 1.363 . S
C446 N444 1.356 . S
C447 C441 1.363 . S
C447 C442 1.379 . S
C447 N445 1.356 . S
N448 C440 1.356 . S
N448 H454 0.984 . S
N448 H455 0.984 . S
N449 C442 1.356 . S
N449 H452 0.984 . S
N449 H453 0.985 . S
H450 N445 0.984 . S
H451 N445 0.985 . S
H452 N449 0.984 . S
H453 N449 0.985 . S
H454 N448 0.984 . S
H455 N448 0.984 . S
H456 N444 0.984 . S
H457 N444 0.985 . S
C458 C459 1.363 . S
C458 C464 1.379 . S
C458 N466 1.356 . S
C459 C458 1.363 . S
C459 C465 1.363 . S
C460 C461 1.363 . S
C460 C465 1.379 . S
C460 N467 1.356 . S
C461 C460 1.363 . S
C461 C464 1.363 . S
N462 C464 1.356 . S
N462 H474 0.984 . S
N462 H475 0.985 . S
N463 C465 1.356 . S
N463 H468 0.984 . S
N463 H469 0.985 . S
C464 C458 1.379 . S
C464 C461 1.363 . S
C464 N462 1.356 . S
C465 C459 1.363 . S
C465 C460 1.379 . S
C465 N463 1.356 . S
N466 C458 1.356 . S
N466 H472 0.984 . S
N466 H473 0.984 . S
N467 C460 1.356 . S
N467 H470 0.984 . S
N467 H471 0.985 . S
H468 N463 0.984 . S
H469 N463 0.985 . S
H470 N467 0.984 . S
H471 N467 0.985 . S
H472 N466 0.984 . S
H473 N466 0.984 . S
H474 N462 0.984 . S
H475 N462 0.985 . S
C476 C477 1.363 . S
C476 C482 1.379 . S
C476 N484 1.356 . S
C477 C476 1.363 . S
C477 C483 1.363 . S
C478 C479 1.363 . S
C478 C483 1.379 . S
C478 N485 1.356 . S
C479 C478 1.363 . S
C479 C482 1.363 . S
N480 C482 1.356 . S
N480 H492 0.984 . S
N480 H493 0.985 . S
N481 C483 1.356 . S
N481 H486 0.984 . S
N481 H487 0.985 . S
C482 C476 1.379 . S
C482 C479 1.363 . S
C482 N480 1.356 . S
C483 C477 1.363 . S
C483 C478 1.379 . S
C483 N481 1.356 . S
N484 C476 1.356 . S
N484 H490 0.984 . S
N484 H491 0.984 . S
N485 C478 1.356 . S
N485 H488 0.984 . S
N485 H489 0.985 . S
H486 N481 0.984 . S
H487 N481 0.985 . S
H488 N485 0.984 . S
H489 N485 0.985 . S
H490 N484 0.984 . S
H491 N484 0.984 . S
H492 N480 0.984 . S
H493 N480 0.985 . S
C494 C495 1.363 . S
C494 C500 1.379 . S
C494 N502 1.356 . S
C495 C494 1.363 . S
C495 C501 1.363 . S
C496 C497 1.363 . S
C496 C501 1.379 . S
C496 N503 1.356 . S
C497 C496 1.363 . S
C497 C500 1.363 . S
N498 C500 1.356 . S
N498 H510 0.984 . S
N498 H511 0.985 . S
N499 C501 1.356 . S
N499 H504 0.984 . S
N499 H505 0.985 . S
C500 C494 1.379 . S
C500 C497 1.363 . S
C500 N498 1.356 . S
C501 C495 1.363 . S
C501 C496 1.379 . S
C501 N499 1.356 . S
N502 C494 1.356 . S
N502 H508 0.984 . S
N502 H509 0.984 . S
N503 C496 1.356 . S
N503 H506 0.984 . S
N503 H507 0.985 . S
H504 N499 0.984 . S
H505 N499 0.985 . S
H506 N503 0.984 . S
H507 N503 0.985 . S
H508 N502 0.984 . S
H509 N502 0.984 . S
H510 N498 0.984 . S
H511 N498 0.985 . S
C512 C513 1.363 . S
C512 C518 1.379 . S
C512 N520 1.356 . S
C513 C512 1.363 . S
C513 C519 1.363 . S
C514 C515 1.363 . S
C514 C519 1.379 . S
C514 N521 1.356 . S
C515 C514 1.363 . S
C515 C518 1.363 . S
N516 C518 1.356 . S
N516 H528 0.984 . S
N516 H529 0.985 1_655 S
N517 C519 1.356 . S
N517 H522 0.984 . S
N517 H523 0.985 . S
C518 C512 1.379 . S
C518 C515 1.363 . S
C518 N516 1.356 . S
C519 C513 1.363 . S
C519 C514 1.379 . S
C519 N517 1.356 . S
N520 C512 1.356 . S
N520 H526 0.984 . S
N520 H527 0.984 . S
N521 C514 1.356 . S
N521 H524 0.984 . S
N521 H525 0.985 . S
H522 N517 0.984 . S
H523 N517 0.985 . S
H524 N521 0.984 . S
H525 N521 0.985 . S
H526 N520 0.984 . S
H527 N520 0.984 . S
H528 N516 0.984 . S
H529 N516 0.985 1_455 S
C530 C531 1.363 . S
C530 C536 1.379 . S
C530 N538 1.356 . S
C531 C530 1.363 . S
C531 C537 1.363 . S
C532 C533 1.363 . S
C532 C537 1.379 . S
C532 N539 1.356 . S
C533 C532 1.363 . S
C533 C536 1.363 . S
N534 C536 1.356 . S
N534 H546 0.984 . S
N534 H547 0.985 1_565 S
N535 C537 1.356 . S
N535 H540 0.984 . S
N535 H541 0.985 . S
C536 C530 1.379 . S
C536 C533 1.363 . S
C536 N534 1.356 . S
C537 C531 1.363 . S
C537 C532 1.379 . S
C537 N535 1.356 . S
N538 C530 1.356 . S
N538 H544 0.984 . S
N538 H545 0.984 . S
N539 C532 1.356 . S
N539 H542 0.984 . S
N539 H543 0.985 . S
H540 N535 0.984 . S
H541 N535 0.985 . S
H542 N539 0.984 . S
H543 N539 0.985 . S
H544 N538 0.984 . S
H545 N538 0.984 . S
H546 N534 0.984 . S
H547 N534 0.985 1_545 S
C548 C549 1.363 . S
C548 C554 1.379 . S
C548 N556 1.356 . S
C549 C548 1.363 . S
C549 C555 1.363 . S
C550 C551 1.363 . S
C550 C555 1.379 . S
C550 N557 1.356 . S
C551 C550 1.363 . S
C551 C554 1.363 . S
N552 C554 1.356 . S
N552 H564 0.984 . S
N552 H565 0.985 . S
N553 C555 1.356 . S
N553 H558 0.984 . S
N553 H559 0.985 . S
C554 C548 1.379 . S
C554 C551 1.363 . S
C554 N552 1.356 . S
C555 C549 1.363 . S
C555 C550 1.379 . S
C555 N553 1.356 . S
N556 C548 1.356 . S
N556 H562 0.984 . S
N556 H563 0.984 . S
N557 C550 1.356 . S
N557 H560 0.984 . S
N557 H561 0.985 . S
H558 N553 0.984 . S
H559 N553 0.985 . S
H560 N557 0.984 . S
H561 N557 0.985 . S
H562 N556 0.984 . S
H563 N556 0.984 . S
H564 N552 0.984 . S
H565 N552 0.985 . S
C566 C567 1.363 . S
C566 C572 1.379 . S
C566 N574 1.356 . S
C567 C566 1.363 . S
C567 C573 1.363 . S
C568 C569 1.363 . S
C568 C573 1.379 . S
C568 N575 1.356 . S
C569 C568 1.363 . S
C569 C572 1.363 . S
N570 C572 1.356 . S
N570 H582 0.984 . S
N570 H583 0.985 . S
N571 C573 1.356 . S
N571 H576 0.984 . S
N571 H577 0.985 . S
C572 C566 1.379 . S
C572 C569 1.363 . S
C572 N570 1.356 . S
C573 C567 1.363 . S
C573 C568 1.379 . S
C573 N571 1.356 . S
N574 C566 1.356 . S
N574 H580 0.984 . S
N574 H581 0.984 . S
N575 C568 1.356 . S
N575 H578 0.984 . S
N575 H579 0.985 . S
H576 N571 0.984 . S
H577 N571 0.985 . S
H578 N575 0.984 . S
H579 N575 0.985 . S
H580 N574 0.984 . S
H581 N574 0.984 . S
H582 N570 0.984 . S
H583 N570 0.985 . S
C584 C585 1.363 . S
C584 C590 1.379 . S
C584 N592 1.356 . S
C585 C584 1.363 . S
C585 C591 1.363 . S
C586 C587 1.363 . S
C586 C591 1.379 . S
C586 N593 1.356 . S
C587 C586 1.363 . S
C587 C590 1.363 . S
N588 C590 1.356 . S
N588 H600 0.984 . S
N588 H601 0.985 . S
N589 C591 1.356 . S
N589 H594 0.984 . S
N589 H595 0.985 . S
C590 C584 1.379 . S
C590 C587 1.363 . S
C590 N588 1.356 . S
C591 C585 1.363 . S
C591 C586 1.379 . S
C591 N589 1.356 . S
N592 C584 1.356 . S
N592 H598 0.984 . S
N592 H599 0.984 . S
N593 C586 1.356 . S
N593 H596 0.984 . S
N593 H597 0.985 . S
H594 N589 0.984 . S
H595 N589 0.985 . S
H596 N593 0.984 . S
H597 N593 0.985 . S
H598 N592 0.984 . S
H599 N592 0.984 . S
H600 N588 0.984 . S
H601 N588 0.985 . S
C602 C603 1.363 . S
C602 C608 1.379 . S
C602 N610 1.356 . S
C603 C602 1.363 . S
C603 C609 1.363 . S
C604 C605 1.363 . S
C604 C609 1.379 . S
C604 N611 1.356 . S
C605 C604 1.363 . S
C605 C608 1.363 . S
N606 C608 1.356 . S
N606 H618 0.984 . S
N606 H619 0.985 . S
N607 C609 1.356 . S
N607 H612 0.984 . S
N607 H613 0.985 . S
C608 C602 1.379 . S
C608 C605 1.363 . S
C608 N606 1.356 . S
C609 C603 1.363 . S
C609 C604 1.379 . S
C609 N607 1.356 . S
N610 C602 1.356 . S
N610 H616 0.984 . S
N610 H617 0.984 . S
N611 C604 1.356 . S
N611 H614 0.984 . S
N611 H615 0.985 . S
H612 N607 0.984 . S
H613 N607 0.985 . S
H614 N611 0.984 . S
H615 N611 0.985 . S
H616 N610 0.984 . S
H617 N610 0.984 . S
H618 N606 0.984 . S
H619 N606 0.985 . S
C620 C621 1.363 . S
C620 C626 1.379 . S
C620 N628 1.356 . S
C621 C620 1.363 . S
C621 C627 1.363 . S
C622 C623 1.363 . S
C622 C627 1.379 . S
C622 N629 1.356 . S
C623 C622 1.363 . S
C623 C626 1.363 . S
N624 C626 1.356 . S
N624 H636 0.984 . S
N624 H637 0.985 . S
N625 C627 1.356 . S
N625 H630 0.984 . S
N625 H631 0.985 . S
C626 C620 1.379 . S
C626 C623 1.363 . S
C626 N624 1.356 . S
C627 C621 1.363 . S
C627 C622 1.379 . S
C627 N625 1.356 . S
N628 C620 1.356 . S
N628 H634 0.984 . S
N628 H635 0.984 . S
N629 C622 1.356 . S
N629 H632 0.984 . S
N629 H633 0.985 . S
H630 N625 0.984 . S
H631 N625 0.985 . S
H632 N629 0.984 . S
H633 N629 0.985 . S
H634 N628 0.984 . S
H635 N628 0.984 . S
H636 N624 0.984 . S
H637 N624 0.985 . S
C638 C639 1.363 . S
C638 C644 1.379 . S
C638 N646 1.356 . S
C639 C638 1.363 . S
C639 C645 1.363 . S
C640 C641 1.363 . S
C640 C645 1.379 . S
C640 N647 1.356 . S
C641 C640 1.363 . S
C641 C644 1.363 . S
N642 C644 1.356 . S
N642 H654 0.984 . S
N642 H655 0.985 . S
N643 C645 1.356 . S
N643 H648 0.984 . S
N643 H649 0.985 . S
C644 C638 1.379 . S
C644 C641 1.363 . S
C644 N642 1.356 . S
C645 C639 1.363 . S
C645 C640 1.379 . S
C645 N643 1.356 . S
N646 C638 1.356 . S
N646 H652 0.984 . S
N646 H653 0.984 . S
N647 C640 1.356 . S
N647 H650 0.984 . S
N647 H651 0.985 . S
H648 N643 0.984 . S
H649 N643 0.985 . S
H650 N647 0.984 . S
H651 N647 0.985 . S
H652 N646 0.984 . S
H653 N646 0.984 . S
H654 N642 0.984 . S
H655 N642 0.985 . S
C656 C657 1.363 . S
C656 C662 1.379 . S
C656 N664 1.356 . S
C657 C656 1.363 . S
C657 C663 1.363 . S
C658 C659 1.363 . S
C658 C663 1.379 . S
C658 N665 1.356 . S
C659 C658 1.363 . S
C659 C662 1.363 . S
N660 C662 1.356 . S
N660 H672 0.984 . S
N660 H673 0.985 . S
N661 C663 1.356 . S
N661 H666 0.984 . S
N661 H667 0.985 . S
C662 C656 1.379 . S
C662 C659 1.363 . S
C662 N660 1.356 . S
C663 C657 1.363 . S
C663 C658 1.379 . S
C663 N661 1.356 . S
N664 C656 1.356 . S
N664 H670 0.984 . S
N664 H671 0.984 . S
N665 C658 1.356 . S
N665 H668 0.984 . S
N665 H669 0.985 . S
H666 N661 0.984 . S
H667 N661 0.985 . S
H668 N665 0.984 . S
H669 N665 0.985 . S
H670 N664 0.984 . S
H671 N664 0.984 . S
H672 N660 0.984 . S
H673 N660 0.985 . S
C674 C675 1.363 . S
C674 C680 1.379 . S
C674 N682 1.356 . S
C675 C674 1.363 . S
C675 C681 1.363 . S
C676 C677 1.363 . S
C676 C681 1.379 . S
C676 N683 1.356 . S
C677 C676 1.363 . S
C677 C680 1.363 . S
N678 C680 1.356 . S
N678 H690 0.984 . S
N678 H691 0.985 . S
N679 C681 1.356 . S
N679 H684 0.984 . S
N679 H685 0.985 . S
C680 C674 1.379 . S
C680 C677 1.363 . S
C680 N678 1.356 . S
C681 C675 1.363 . S
C681 C676 1.379 . S
C681 N679 1.356 . S
N682 C674 1.356 . S
N682 H688 0.984 . S
N682 H689 0.984 . S
N683 C676 1.356 . S
N683 H686 0.984 . S
N683 H687 0.985 . S
H684 N679 0.984 . S
H685 N679 0.985 . S
H686 N683 0.984 . S
H687 N683 0.985 . S
H688 N682 0.984 . S
H689 N682 0.984 . S
H690 N678 0.984 . S
H691 N678 0.985 . S
C692 C693 1.363 . S
C692 C698 1.379 . S
C692 N700 1.356 . S
C693 C692 1.363 . S
C693 C699 1.363 . S
C694 C695 1.363 . S
C694 C699 1.379 . S
C694 N701 1.356 . S
C695 C694 1.363 . S
C695 C698 1.363 . S
N696 C698 1.356 . S
N696 H708 0.984 . S
N696 H709 0.985 . S
N697 C699 1.356 . S
N697 H702 0.984 . S
N697 H703 0.985 . S
C698 C692 1.379 . S
C698 C695 1.363 . S
C698 N696 1.356 . S
C699 C693 1.363 . S
C699 C694 1.379 . S
C699 N697 1.356 . S
N700 C692 1.356 . S
N700 H706 0.984 . S
N700 H707 0.984 . S
N701 C694 1.356 . S
N701 H704 0.984 . S
N701 H705 0.985 . S
H702 N697 0.984 . S
H703 N697 0.985 . S
H704 N701 0.984 . S
H705 N701 0.985 . S
H706 N700 0.984 . S
H707 N700 0.984 . S
H708 N696 0.984 . S
H709 N696 0.985 . S
C710 C711 1.363 . S
C710 C716 1.379 . S
C710 N718 1.356 . S
C711 C710 1.363 . S
C711 C717 1.363 . S
C712 C713 1.363 . S
C712 C717 1.379 . S
C712 N719 1.356 . S
C713 C712 1.363 . S
C713 C716 1.363 . S
N714 C716 1.356 . S
N714 H726 0.984 . S
N714 H727 0.985 . S
N715 C717 1.356 . S
N715 H720 0.984 . S
N715 H721 0.985 . S
C716 C710 1.379 . S
C716 C713 1.363 . S
C716 N714 1.356 . S
C717 C711 1.363 . S
C717 C712 1.379 . S
C717 N715 1.356 . S
N718 C710 1.356 . S
N718 H724 0.984 . S
N718 H725 0.984 . S
N719 C712 1.356 . S
N719 H722 0.984 . S
N719 H723 0.985 . S
H720 N715 0.984 . S
H721 N715 0.985 . S
H722 N719 0.984 . S
H723 N719 0.985 . S
H724 N718 0.984 . S
H725 N718 0.984 . S
H726 N714 0.984 . S
H727 N714 0.985 . S
C728 C729 1.363 . S
C728 C734 1.379 . S
C728 N736 1.356 . S
C729 C728 1.363 . S
C729 C735 1.363 . S
C730 C731 1.363 . S
C730 C735 1.379 . S
C730 N737 1.356 . S
C731 C730 1.363 . S
C731 C734 1.363 . S
N732 C734 1.356 . S
N732 H744 0.984 . S
N732 H745 0.985 . S
N733 C735 1.356 . S
N733 H738 0.984 . S
N733 H739 0.985 . S
C734 C728 1.379 . S
C734 C731 1.363 . S
C734 N732 1.356 . S
C735 C729 1.363 . S
C735 C730 1.379 . S
C735 N733 1.356 . S
N736 C728 1.356 . S
N736 H742 0.984 . S
N736 H743 0.984 . S
N737 C730 1.356 . S
N737 H740 0.984 . S
N737 H741 0.985 . S
H738 N733 0.984 . S
H739 N733 0.985 . S
H740 N737 0.984 . S
H741 N737 0.985 . S
H742 N736 0.984 . S
H743 N736 0.984 . S
H744 N732 0.984 . S
H745 N732 0.985 . S
C746 C747 1.363 . S
C746 C752 1.379 . S
C746 N754 1.356 . S
C747 C746 1.363 . S
C747 C753 1.363 . S
C748 C749 1.363 . S
C748 C753 1.379 . S
C748 N755 1.356 . S
C749 C748 1.363 . S
C749 C752 1.363 . S
N750 C752 1.356 . S
N750 H762 0.984 . S
N750 H763 0.985 . S
N751 C753 1.356 . S
N751 H756 0.984 . S
N751 H757 0.985 . S
C752 C746 1.379 . S
C752 C749 1.363 . S
C752 N750 1.356 . S
C753 C747 1.363 . S
C753 C748 1.379 . S
C753 N751 1.356 . S
N754 C746 1.356 . S
N754 H760 0.984 . S
N754 H761 0.984 . S
N755 C748 1.356 . S
N755 H758 0.984 . S
N755 H759 0.985 . S
H756 N751 0.984 . S
H757 N751 0.985 . S
H758 N755 0.984 . S
H759 N755 0.985 . S
H760 N754 0.984 . S
H761 N754 0.984 . S
H762 N750 0.984 . S
H763 N750 0.985 . S
C764 C765 1.363 . S
C764 C770 1.379 . S
C764 N772 1.356 . S
C765 C764 1.363 . S
C765 C771 1.363 . S
C766 C767 1.363 . S
C766 C771 1.379 . S
C766 N773 1.356 . S
C767 C766 1.363 . S
C767 C770 1.363 . S
N768 C770 1.356 . S
N768 H780 0.984 . S
N768 H781 0.985 . S
N769 C771 1.356 . S
N769 H774 0.984 . S
N769 H775 0.985 . S
C770 C764 1.379 . S
C770 C767 1.363 . S
C770 N768 1.356 . S
C771 C765 1.363 . S
C771 C766 1.379 . S
C771 N769 1.356 . S
N772 C764 1.356 . S
N772 H778 0.984 . S
N772 H779 0.984 . S
N773 C766 1.356 . S
N773 H776 0.984 . S
N773 H777 0.985 . S
H774 N769 0.984 . S
H775 N769 0.985 . S
H776 N773 0.984 . S
H777 N773 0.985 . S
H778 N772 0.984 . S
H779 N772 0.984 . S
H780 N768 0.984 . S
H781 N768 0.985 . S
C782 C783 1.363 . S
C782 C788 1.379 . S
C782 N790 1.356 . S
C783 C782 1.363 . S
C783 C789 1.363 . S
C784 C785 1.363 . S
C784 C789 1.379 . S
C784 N791 1.356 . S
C785 C784 1.363 . S
C785 C788 1.363 . S
N786 C788 1.356 . S
N786 H798 0.984 . S
N786 H799 0.985 . S
N787 C789 1.356 . S
N787 H792 0.984 . S
N787 H793 0.985 . S
C788 C782 1.379 . S
C788 C785 1.363 . S
C788 N786 1.356 . S
C789 C783 1.363 . S
C789 C784 1.379 . S
C789 N787 1.356 . S
N790 C782 1.356 . S
N790 H796 0.984 . S
N790 H797 0.984 . S
N791 C784 1.356 . S
N791 H794 0.984 . S
N791 H795 0.985 . S
H792 N787 0.984 . S
H793 N787 0.985 . S
H794 N791 0.984 . S
H795 N791 0.985 . S
H796 N790 0.984 . S
H797 N790 0.984 . S
H798 N786 0.984 . S
H799 N786 0.985 . S
C800 C801 1.363 . S
C800 C806 1.379 . S
C800 N808 1.356 . S
C801 C800 1.363 . S
C801 C807 1.363 . S
C802 C803 1.363 . S
C802 C807 1.379 . S
C802 N809 1.356 . S
C803 C802 1.363 . S
C803 C806 1.363 . S
N804 C806 1.356 . S
N804 H816 0.984 . S
N804 H817 0.985 . S
N805 C807 1.356 . S
N805 H810 0.984 . S
N805 H811 0.985 . S
C806 C800 1.379 . S
C806 C803 1.363 . S
C806 N804 1.356 . S
C807 C801 1.363 . S
C807 C802 1.379 . S
C807 N805 1.356 . S
N808 C800 1.356 . S
N808 H814 0.984 . S
N808 H815 0.984 . S
N809 C802 1.356 . S
N809 H812 0.984 . S
N809 H813 0.985 . S
H810 N805 0.984 . S
H811 N805 0.985 . S
H812 N809 0.984 . S
H813 N809 0.985 . S
H814 N808 0.984 . S
H815 N808 0.984 . S
H816 N804 0.984 . S
H817 N804 0.985 . S
C818 C819 1.363 . S
C818 C824 1.379 . S
C818 N826 1.356 . S
C819 C818 1.363 . S
C819 C825 1.363 . S
C820 C821 1.363 . S
C820 C825 1.379 . S
C820 N827 1.356 . S
C821 C820 1.363 . S
C821 C824 1.363 . S
N822 C824 1.356 . S
N822 H834 0.984 . S
N822 H835 0.985 . S
N823 C825 1.356 . S
N823 H828 0.984 . S
N823 H829 0.985 . S
C824 C818 1.379 . S
C824 C821 1.363 . S
C824 N822 1.356 . S
C825 C819 1.363 . S
C825 C820 1.379 . S
C825 N823 1.356 . S
N826 C818 1.356 . S
N826 H832 0.984 . S
N826 H833 0.984 . S
N827 C820 1.356 . S
N827 H830 0.984 . S
N827 H831 0.985 . S
H828 N823 0.984 . S
H829 N823 0.985 . S
H830 N827 0.984 . S
H831 N827 0.985 . S
H832 N826 0.984 . S
H833 N826 0.984 . S
H834 N822 0.984 . S
H835 N822 0.985 . S
C836 C837 1.363 . S
C836 C842 1.379 . S
C836 N844 1.356 . S
C837 C836 1.363 . S
C837 C843 1.363 . S
C838 C839 1.363 . S
C838 C843 1.379 . S
C838 N845 1.356 . S
C839 C838 1.363 . S
C839 C842 1.363 . S
N840 C842 1.356 . S
N840 H852 0.984 . S
N840 H853 0.985 . S
N841 C843 1.356 . S
N841 H846 0.984 . S
N841 H847 0.985 . S
C842 C836 1.379 . S
C842 C839 1.363 . S
C842 N840 1.356 . S
C843 C837 1.363 . S
C843 C838 1.379 . S
C843 N841 1.356 . S
N844 C836 1.356 . S
N844 H850 0.984 . S
N844 H851 0.984 . S
N845 C838 1.356 . S
N845 H848 0.984 . S
N845 H849 0.985 . S
H846 N841 0.984 . S
H847 N841 0.985 . S
H848 N845 0.984 . S
H849 N845 0.985 . S
H850 N844 0.984 . S
H851 N844 0.984 . S
H852 N840 0.984 . S
H853 N840 0.985 . S
C854 C855 1.363 . S
C854 C860 1.379 . S
C854 N862 1.356 . S
C855 C854 1.363 . S
C855 C861 1.363 . S
C856 C857 1.363 . S
C856 C861 1.379 . S
C856 N863 1.356 . S
C857 C856 1.363 . S
C857 C860 1.363 . S
N858 C860 1.356 . S
N858 H870 0.984 . S
N858 H871 0.985 . S
N859 C861 1.356 . S
N859 H864 0.984 . S
N859 H865 0.985 . S
C860 C854 1.379 . S
C860 C857 1.363 . S
C860 N858 1.356 . S
C861 C855 1.363 . S
C861 C856 1.379 . S
C861 N859 1.356 . S
N862 C854 1.356 . S
N862 H868 0.984 . S
N862 H869 0.984 . S
N863 C856 1.356 . S
N863 H866 0.984 . S
N863 H867 0.985 . S
H864 N859 0.984 . S
H865 N859 0.985 . S
H866 N863 0.984 . S
H867 N863 0.985 . S
H868 N862 0.984 . S
H869 N862 0.984 . S
H870 N858 0.984 . S
H871 N858 0.985 . S
C299 C185 1.577 . S
C297 C16 1.593 . S
C317 C211 1.587 . S
C315 C30 1.602 . S
C335 C225 1.588 . S
C333 C53 1.603 . S
C353 C227 1.623 . S
C351 C76 1.640 . S
C369 N104 1.425 . S
C371 C224 1.467 . S
C389 C226 1.503 . S
C387 N127 1.456 . S
C407 C184 1.470 1_655 S
C405 N140 1.438 . S
C425 C210 1.472 1_565 S
C423 N173 1.427 . S
C443 C212 1.585 . S
C441 C168 1.591 . S
C461 C238 1.590 . S
C459 C99 1.593 . S
C479 C196 1.578 . S
C477 C122 1.583 . S
C497 C198 1.565 . S
C495 C154 1.562 . S
C515 C197 1.478 1_655 S
C513 N35 1.435 . S
C533 C199 1.476 1_565 S
C531 N58 1.425 . S
C551 C213 1.475 . S
C549 N81 1.427 . S
C569 C239 1.496 . S
C567 N2 1.463 . S
C587 C241 1.571 . S
C585 C177 1.586 . S
C603 C108 1.608 . S
C605 C267 1.587 . S
C621 C131 1.594 . S
C623 C280 1.580 . S
C639 C145 1.620 . S
C641 C283 1.604 . S
C657 N25 1.442 . S
C659 C281 1.472 . S
C675 N48 1.481 . S
C677 C282 1.502 . S
C693 N71 1.447 . S
C695 C240 1.476 . S
C713 C266 1.492 . S
C711 N12 1.444 . S
C731 C269 1.583 . S
C729 C7 1.588 . S
C747 C39 1.582 . S
C749 C294 1.584 . S
C765 C62 1.571 . S
C767 C252 1.575 . S
C783 C85 1.570 . S
C785 C254 1.572 . S
C803 C253 1.478 . S
C801 N94 1.434 . S
C821 C255 1.479 . S
C819 N117 1.446 . S
C837 N150 1.431 . S
C839 C268 1.476 . S
C857 C295 1.487 . S
C855 N163 1.448 . S
