# Generated by pormake.
# Topology ocu, (6,8)-cn, num edge types: 1
# Building blocks:
#     Node 0, Type 0, BuildingBlock: PAMTUU_clean_sbu_0, # of connection points: 6
#     Node 1, Type 0, BuildingBlock: PAMTUU_clean_sbu_0, # of connection points: 6
#     Node 2, Type 0, BuildingBlock: PAMTUU_clean_sbu_0, # of connection points: 6
#     Node 3, Type 0, BuildingBlock: PAMTUU_clean_sbu_0, # of connection points: 6
#     Node 4, Type 0, BuildingBlock: PAMTUU_clean_sbu_0, # of connection points: 6
#     Node 5, Type 0, BuildingBlock: PAMTUU_clean_sbu_0, # of connection points: 6
#     Node 6, Type 0, BuildingBlock: PAMTUU_clean_sbu_0, # of connection points: 6
#     Node 7, Type 0, BuildingBlock: PAMTUU_clean_sbu_0, # of connection points: 6
#     Node 8, Type 1, BuildingBlock: GIZVER_clean_sbu_0, # of connection points: 8
#     Node 9, Type 1, BuildingBlock: GIZVER_clean_sbu_0, # of connection points: 8
#     Node 10, Type 1, BuildingBlock: GIZVER_clean_sbu_0, # of connection points: 8
#     Node 11, Type 1, BuildingBlock: GIZVER_clean_sbu_0, # of connection points: 8
#     Node 12, Type 1, BuildingBlock: GIZVER_clean_sbu_0, # of connection points: 8
#     Node 13, Type 1, BuildingBlock: GIZVER_clean_sbu_0, # of connection points: 8
#     Edge 14, Type (0, 1), BuildingBlock: XUDNAN_clean_linker_2, # of connection points: 2
#     Edge 15, Type (0, 1), BuildingBlock: XUDNAN_clean_linker_2, # of connection points: 2
#     Edge 16, Type (0, 1), BuildingBlock: XUDNAN_clean_linker_2, # of connection points: 2
#     Edge 17, Type (0, 1), BuildingBlock: XUDNAN_clean_linker_2, # of connection points: 2
#     Edge 18, Type (0, 1), BuildingBlock: XUDNAN_clean_linker_2, # of connection points: 2
#     Edge 19, Type (0, 1), BuildingBlock: XUDNAN_clean_linker_2, # of connection points: 2
#     Edge 20, Type (0, 1), BuildingBlock: XUDNAN_clean_linker_2, # of connection points: 2
#     Edge 21, Type (0, 1), BuildingBlock: XUDNAN_clean_linker_2, # of connection points: 2
#     Edge 22, Type (0, 1), BuildingBlock: XUDNAN_clean_linker_2, # of connection points: 2
#     Edge 23, Type (0, 1), BuildingBlock: XUDNAN_clean_linker_2, # of connection points: 2
#     Edge 24, Type (0, 1), BuildingBlock: XUDNAN_clean_linker_2, # of connection points: 2
#     Edge 25, Type (0, 1), BuildingBlock: XUDNAN_clean_linker_2, # of connection points: 2
#     Edge 26, Type (0, 1), BuildingBlock: XUDNAN_clean_linker_2, # of connection points: 2
#     Edge 27, Type (0, 1), BuildingBlock: XUDNAN_clean_linker_2, # of connection points: 2
#     Edge 28, Type (0, 1), BuildingBlock: XUDNAN_clean_linker_2, # of connection points: 2
#     Edge 29, Type (0, 1), BuildingBlock: XUDNAN_clean_linker_2, # of connection points: 2
#     Edge 30, Type (0, 1), BuildingBlock: XUDNAN_clean_linker_2, # of connection points: 2
#     Edge 31, Type (0, 1), BuildingBlock: XUDNAN_clean_linker_2, # of connection points: 2
#     Edge 32, Type (0, 1), BuildingBlock: XUDNAN_clean_linker_2, # of connection points: 2
#     Edge 33, Type (0, 1), BuildingBlock: XUDNAN_clean_linker_2, # of connection points: 2
#     Edge 34, Type (0, 1), BuildingBlock: XUDNAN_clean_linker_2, # of connection points: 2
#     Edge 35, Type (0, 1), BuildingBlock: XUDNAN_clean_linker_2, # of connection points: 2
#     Edge 36, Type (0, 1), BuildingBlock: XUDNAN_clean_linker_2, # of connection points: 2
#     Edge 37, Type (0, 1), BuildingBlock: XUDNAN_clean_linker_2, # of connection points: 2
#     Edge 38, Type (0, 1), BuildingBlock: XUDNAN_clean_linker_2, # of connection points: 2
#     Edge 39, Type (0, 1), BuildingBlock: XUDNAN_clean_linker_2, # of connection points: 2
#     Edge 40, Type (0, 1), BuildingBlock: XUDNAN_clean_linker_2, # of connection points: 2
#     Edge 41, Type (0, 1), BuildingBlock: XUDNAN_clean_linker_2, # of connection points: 2
#     Edge 42, Type (0, 1), BuildingBlock: XUDNAN_clean_linker_2, # of connection points: 2
#     Edge 43, Type (0, 1), BuildingBlock: XUDNAN_clean_linker_2, # of connection points: 2
#     Edge 44, Type (0, 1), BuildingBlock: XUDNAN_clean_linker_2, # of connection points: 2
#     Edge 45, Type (0, 1), BuildingBlock: XUDNAN_clean_linker_2, # of connection points: 2
#     Edge 46, Type (0, 1), BuildingBlock: XUDNAN_clean_linker_2, # of connection points: 2
#     Edge 47, Type (0, 1), BuildingBlock: XUDNAN_clean_linker_2, # of connection points: 2
#     Edge 48, Type (0, 1), BuildingBlock: XUDNAN_clean_linker_2, # of connection points: 2
#     Edge 49, Type (0, 1), BuildingBlock: XUDNAN_clean_linker_2, # of connection points: 2
#     Edge 50, Type (0, 1), BuildingBlock: XUDNAN_clean_linker_2, # of connection points: 2
#     Edge 51, Type (0, 1), BuildingBlock: XUDNAN_clean_linker_2, # of connection points: 2
#     Edge 52, Type (0, 1), BuildingBlock: XUDNAN_clean_linker_2, # of connection points: 2
#     Edge 53, Type (0, 1), BuildingBlock: XUDNAN_clean_linker_2, # of connection points: 2
#     Edge 54, Type (0, 1), BuildingBlock: XUDNAN_clean_linker_2, # of connection points: 2
#     Edge 55, Type (0, 1), BuildingBlock: XUDNAN_clean_linker_2, # of connection points: 2
#     Edge 56, Type (0, 1), BuildingBlock: XUDNAN_clean_linker_2, # of connection points: 2
#     Edge 57, Type (0, 1), BuildingBlock: XUDNAN_clean_linker_2, # of connection points: 2
#     Edge 58, Type (0, 1), BuildingBlock: XUDNAN_clean_linker_2, # of connection points: 2
#     Edge 59, Type (0, 1), BuildingBlock: XUDNAN_clean_linker_2, # of connection points: 2
#     Edge 60, Type (0, 1), BuildingBlock: XUDNAN_clean_linker_2, # of connection points: 2
#     Edge 61, Type (0, 1), BuildingBlock: XUDNAN_clean_linker_2, # of connection points: 2
# Relax obj value: 0.179
# Max RMSD: 0.253
# Mean RMSD: 0.185
data_MOF--net-ocu--node1-PAMTUU_clean_sbu_0--node2-GIZVER_clean_sbu_0--edge1-XUDNAN_clean_linker_2
_symmetry_space_group_name_H-M    P1
_symmetry_Int_Tables_number       1
_symmetry_cell_setting            triclinic
loop_
_symmetry_equiv_pos_as_xyz
'x, y, z'
_cell_length_a     43.079656
_cell_length_b     47.632661
_cell_length_c     33.100064
_cell_angle_alpha  84.335583
_cell_angle_beta   96.580899
_cell_angle_gamma 112.99437
loop_
_atom_site_label
_atom_site_type_symbol
_atom_site_fract_x
_atom_site_fract_y
_atom_site_fract_z
_atom_type_partial_charge
Tb0 Tb 0.27735 0.28441 0.25654 0.0
Tb1 Tb 0.32274 0.28764 0.33755 0.0
C2 C 0.25294 0.23628 0.32718 0.0
C3 C 0.22022 0.29919 0.17105 0.0
C4 C 0.18924 0.33676 0.12888 0.0
C5 C 0.20766 0.32495 0.10812 0.0
C6 C 0.22288 0.3061 0.12907 0.0
C7 C 0.20141 0.31069 0.19168 0.0
C8 C 0.18591 0.32919 0.1707 0.0
C9 C 0.23791 0.2807 0.19289 0.0
O10 O 0.25775 0.31108 0.2964 0.0
O11 O 0.29879 0.3211 0.34919 0.0
O12 O 0.35763 0.31673 0.29491 0.0
O13 O 0.32055 0.32801 0.24818 0.0
O14 O 0.33165 0.26265 0.38987 0.0
O15 O 0.3614 0.3111 0.38123 0.0
O16 O 0.33699 0.25592 0.30139 0.0
O17 O 0.30921 0.2587 0.23905 0.0
O18 O 0.2568 0.23936 0.28828 0.0
O19 O 0.27182 0.25814 0.35027 0.0
C20 C 0.2709 0.32498 0.33169 0.0
O21 O 0.27076 0.29242 0.19314 0.0
O22 O 0.22799 0.26839 0.2285 0.0
C23 C 0.35172 0.33316 0.26327 0.0
C24 C 0.3884 0.27899 0.41433 0.0
C25 C 0.44113 0.25783 0.42935 0.0
C26 C 0.44353 0.28158 0.39976 0.0
C27 C 0.41718 0.2921 0.39213 0.0
C28 C 0.38691 0.25613 0.44507 0.0
C29 C 0.41303 0.24551 0.4524 0.0
C30 C 0.358 0.28581 0.40307 0.0
C31 C 0.33095 0.24861 0.2621 0.0
H32 H 0.21058 0.33058 0.07589 0.0
H33 H 0.23726 0.29737 0.11268 0.0
H34 H 0.19917 0.3059 0.22414 0.0
H35 H 0.17237 0.33852 0.18752 0.0
H36 H 0.46506 0.29108 0.38157 0.0
H37 H 0.41873 0.30953 0.36793 0.0
H38 H 0.3648 0.24555 0.4622 0.0
H39 H 0.4108 0.22695 0.47511 0.0
Tb40 Tb 0.76021 0.30673 0.29588 0.0
Tb41 Tb 0.80853 0.27042 0.28671 0.0
C42 C 0.82223 0.31442 0.35478 0.0
C43 C 0.72268 0.36062 0.26953 0.0
C44 C 0.71129 0.37864 0.18805 0.0
C45 C 0.68386 0.3628 0.21174 0.0
C46 C 0.68953 0.35394 0.25233 0.0
C47 C 0.74994 0.38016 0.24752 0.0
C48 C 0.74423 0.38913 0.207 0.0
C49 C 0.72855 0.33998 0.30257 0.0
O50 O 0.79978 0.33723 0.25812 0.0
O51 O 0.82427 0.30602 0.23814 0.0
O52 O 0.76968 0.2551 0.23759 0.0
O53 O 0.74275 0.28883 0.23588 0.0
O54 O 0.85674 0.26875 0.28985 0.0
O55 O 0.81152 0.22788 0.28251 0.0
O56 O 0.7758 0.24686 0.33593 0.0
O57 O 0.73085 0.26011 0.31513 0.0
O58 O 0.78948 0.30607 0.35345 0.0
O59 O 0.83551 0.30775 0.3255 0.0
C60 C 0.82004 0.33207 0.23552 0.0
O61 O 0.71361 0.31115 0.29506 0.0
O62 O 0.75997 0.34683 0.31693 0.0
C63 C 0.74771 0.2665 0.22082 0.0
C64 C 0.8519 0.22626 0.33404 0.0
C65 C 0.86073 0.19987 0.41167 0.0
C66 C 0.86108 0.18557 0.37649 0.0
C67 C 0.85657 0.19869 0.33781 0.0
C68 C 0.85066 0.24007 0.36916 0.0
C69 C 0.85522 0.22708 0.40767 0.0
C70 C 0.84367 0.239 0.2943 0.0
C71 C 0.74337 0.24138 0.33527 0.0
H72 H 0.65802 0.35588 0.19837 0.0
H73 H 0.66816 0.33917 0.26884 0.0
H74 H 0.7759 0.3861 0.26011 0.0
H75 H 0.76572 0.40239 0.18982 0.0
H76 H 0.86599 0.1648 0.37889 0.0
H77 H 0.8567 0.18738 0.31102 0.0
H78 H 0.84601 0.26093 0.36686 0.0
H79 H 0.85496 0.23849 0.4343 0.0
Tb80 Tb 0.81395 0.79803 0.24641 0.0
Tb81 Tb 0.77116 0.76918 0.31839 0.0
C82 C 0.83166 0.83213 0.32694 0.0
C83 C 0.84823 0.79984 0.14999 0.0
C84 C 0.85685 0.76004 0.09935 0.0
C85 C 0.88305 0.7885 0.10692 0.0
C86 C 0.87878 0.80824 0.13225 0.0
C87 C 0.82101 0.77274 0.1394 0.0
C88 C 0.82526 0.75301 0.11409 0.0
C89 C 0.84641 0.81679 0.18367 0.0
O90 O 0.83421 0.76026 0.27395 0.0
O91 O 0.81381 0.75086 0.33614 0.0
O92 O 0.76077 0.73189 0.27979 0.0
O93 O 0.76918 0.76166 0.22184 0.0
O94 O 0.76708 0.75813 0.38078 0.0
O95 O 0.72289 0.74315 0.33784 0.0
O96 O 0.74094 0.79586 0.27966 0.0
O97 O 0.78194 0.82807 0.24089 0.0
O98 O 0.84322 0.82692 0.29489 0.0
O99 O 0.80126 0.81511 0.33732 0.0
C100 C 0.83445 0.74662 0.31202 0.0
O101 O 0.81715 0.81789 0.1867 0.0
O102 O 0.85943 0.81008 0.21884 0.0
C103 C 0.756 0.73487 0.2404 0.0
C104 C 0.71749 0.75807 0.4019 0.0
C105 C 0.69991 0.79407 0.44962 0.0
C106 C 0.71768 0.7763 0.46783 0.0
C107 C 0.72622 0.7582 0.44408 0.0
C108 C 0.69753 0.77405 0.38431 0.0
C109 C 0.68869 0.79181 0.40806 0.0
C110 C 0.73415 0.74583 0.37621 0.0
C111 C 0.75073 0.82065 0.25287 0.0
H112 H 0.90759 0.79448 0.09558 0.0
H113 H 0.89999 0.82907 0.14006 0.0
H114 H 0.79714 0.76579 0.15274 0.0
H115 H 0.80477 0.73115 0.10904 0.0
H116 H 0.72635 0.77758 0.49989 0.0
H117 H 0.74166 0.74599 0.45813 0.0
H118 H 0.69061 0.77451 0.3518 0.0
H119 H 0.67527 0.80557 0.39317 0.0
Tb120 Tb 0.30455 0.76802 0.30137 0.0
Tb121 Tb 0.2556 0.80572 0.27523 0.0
C122 C 0.24036 0.75459 0.34117 0.0
C123 C 0.3459 0.71244 0.30758 0.0
C124 C 0.37344 0.67778 0.27145 0.0
C125 C 0.37693 0.67924 0.31389 0.0
C126 C 0.36314 0.69651 0.33192 0.0
C127 C 0.3403 0.70922 0.26539 0.0
C128 C 0.35419 0.69203 0.24734 0.0
C129 C 0.33662 0.7344 0.32593 0.0
O130 O 0.26359 0.73862 0.26023 0.0
O131 O 0.24042 0.77218 0.22926 0.0
O132 O 0.30363 0.83065 0.2516 0.0
O133 O 0.32175 0.79238 0.2439 0.0
O134 O 0.21975 0.82222 0.28859 0.0
O135 O 0.23888 0.83101 0.22881 0.0
O136 O 0.28913 0.82889 0.32783 0.0
O137 O 0.3323 0.81148 0.32943 0.0
O138 O 0.27313 0.76639 0.34874 0.0
O139 O 0.22695 0.76326 0.30747 0.0
C140 C 0.24274 0.74536 0.2323 0.0
O141 O 0.35085 0.76271 0.31203 0.0
O142 O 0.30444 0.7265 0.32936 0.0
C143 C 0.32168 0.81971 0.23385 0.0
C144 C 0.22988 0.87028 0.25604 0.0
C145 C 0.23603 0.92624 0.28167 0.0
C146 C 0.20952 0.91097 0.2529 0.0
C147 C 0.2062 0.88274 0.24055 0.0
C148 C 0.25932 0.88791 0.27914 0.0
C149 C 0.2624 0.91594 0.292 0.0
C150 C 0.22161 0.83774 0.25344 0.0
C151 C 0.32027 0.83087 0.3403 0.0
H152 H 0.39235 0.66887 0.33272 0.0
H153 H 0.36756 0.69881 0.36455 0.0
H154 H 0.32691 0.72141 0.24629 0.0
H155 H 0.35195 0.6916 0.21444 0.0
H156 H 0.18888 0.91863 0.24479 0.0
H157 H 0.18363 0.8695 0.22217 0.0
H158 H 0.27817 0.87867 0.29062 0.0
H159 H 0.28287 0.92728 0.31437 0.0
Tb160 Tb 0.29492 0.78191 0.76899 0.0
Tb161 Tb 0.3375 0.74303 0.80657 0.0
C162 C 0.34936 0.80562 0.8456 0.0
C163 C 0.25812 0.82748 0.69594 0.0
C164 C 0.24663 0.854 0.61896 0.0
C165 C 0.25182 0.86985 0.65446 0.0
C166 C 0.2575 0.8567 0.69246 0.0
C167 C 0.25423 0.8118 0.6607 0.0
C168 C 0.24825 0.82494 0.62236 0.0
C169 C 0.26373 0.8146 0.73676 0.0
O170 O 0.33114 0.78808 0.72527 0.0
O171 O 0.37152 0.77766 0.76771 0.0
O172 O 0.31453 0.722 0.74805 0.0
O173 O 0.26976 0.73696 0.73925 0.0
O174 O 0.38166 0.74016 0.83754 0.0
O175 O 0.33829 0.69947 0.82211 0.0
O176 O 0.28843 0.72152 0.82942 0.0
O177 O 0.27202 0.76173 0.82545 0.0
O178 O 0.33553 0.81348 0.81089 0.0
O179 O 0.34546 0.77667 0.85262 0.0
C180 C 0.36252 0.79067 0.73436 0.0
O181 O 0.24935 0.7851 0.74346 0.0
O182 O 0.29485 0.82543 0.75248 0.0
C183 C 0.28394 0.71817 0.73081 0.0
C184 C 0.36149 0.70148 0.88928 0.0
C185 C 0.34681 0.68242 0.9705 0.0
C186 C 0.34404 0.66108 0.94228 0.0
C187 C 0.35129 0.67055 0.902 0.0
C188 C 0.36279 0.72261 0.91699 0.0
C189 C 0.3555 0.71317 0.95721 0.0
C190 C 0.36576 0.711 0.84603 0.0
C191 C 0.2695 0.73457 0.84053 0.0
H192 H 0.24978 0.89188 0.65327 0.0
H193 H 0.26074 0.86917 0.71935 0.0
H194 H 0.25523 0.78932 0.66289 0.0
H195 H 0.24411 0.81217 0.59558 0.0
H196 H 0.33827 0.63729 0.95187 0.0
H197 H 0.3492 0.65379 0.88088 0.0
H198 H 0.36989 0.74656 0.90784 0.0
H199 H 0.35834 0.73008 0.97846 0.0
Tb200 Tb 0.32 0.27566 0.7492 0.0
Tb201 Tb 0.28019 0.27817 0.82728 0.0
C202 C 0.34886 0.3293 0.80393 0.0
C203 C 0.36133 0.24482 0.68002 0.0
C204 C 0.38468 0.20035 0.65829 0.0
C205 C 0.40594 0.23158 0.6577 0.0
C206 C 0.39437 0.25349 0.6684 0.0
C207 C 0.3399 0.21374 0.68007 0.0
C208 C 0.35133 0.19192 0.66917 0.0
C209 C 0.34952 0.26838 0.69128 0.0
O210 O 0.34587 0.26019 0.80455 0.0
O211 O 0.30553 0.24528 0.851 0.0
O212 O 0.24519 0.24211 0.78997 0.0
O213 O 0.28507 0.22996 0.76481 0.0
O214 O 0.28381 0.29732 0.8832 0.0
O215 O 0.23574 0.26732 0.85736 0.0
O216 O 0.26791 0.30979 0.77957 0.0
O217 O 0.28223 0.29592 0.72177 0.0
O218 O 0.34276 0.32266 0.76578 0.0
O219 O 0.33203 0.31046 0.83251 0.0
C220 C 0.33437 0.24527 0.83951 0.0
O221 O 0.31687 0.26089 0.69053 0.0
O222 O 0.36543 0.28372 0.72303 0.0
C223 C 0.25384 0.22311 0.77248 0.0
C224 C 0.23647 0.30868 0.8948 0.0
C225 C 0.20962 0.35135 0.91483 0.0
C226 C 0.19233 0.32979 0.88541 0.0
C227 C 0.20559 0.30879 0.87545 0.0
C228 C 0.25331 0.3298 0.92468 0.0
C229 C 0.24021 0.3508 0.93444 0.0
C230 C 0.25126 0.28651 0.88549 0.0
C231 C 0.26705 0.31076 0.73918 0.0
H232 H 0.43181 0.23909 0.64994 0.0
H233 H 0.41143 0.27729 0.66789 0.0
H234 H 0.31422 0.20617 0.68861 0.0
H235 H 0.33381 0.16829 0.66925 0.0
H236 H 0.16884 0.32953 0.86945 0.0
H237 H 0.1917 0.29277 0.85248 0.0
H238 H 0.27683 0.33011 0.94069 0.0
H239 H 0.25404 0.36651 0.9578 0.0
Tb240 Tb 0.82094 0.25765 0.80373 0.0
Tb241 Tb 0.76719 0.28619 0.76032 0.0
C242 C 0.7458 0.2317 0.8284 0.0
C243 C 0.86454 0.2055 0.82722 0.0
C244 C 0.88332 0.16956 0.78105 0.0
C245 C 0.90564 0.18573 0.81287 0.0
C246 C 0.89633 0.20381 0.83573 0.0
C247 C 0.84049 0.18576 0.79974 0.0
C248 C 0.84992 0.16787 0.77655 0.0
C249 C 0.86033 0.23297 0.83724 0.0
O250 O 0.80008 0.23092 0.75034 0.0
O251 O 0.75863 0.24852 0.72285 0.0
O252 O 0.80967 0.30619 0.72052 0.0
O253 O 0.85082 0.29605 0.76287 0.0
O254 O 0.71659 0.28071 0.74393 0.0
O255 O 0.7571 0.32442 0.73558 0.0
O256 O 0.80271 0.32059 0.79818 0.0
O257 O 0.82491 0.2928 0.8439 0.0
O258 O 0.77061 0.22507 0.81821 0.0
O259 O 0.74503 0.25869 0.81618 0.0
C260 C 0.77448 0.22976 0.72384 0.0
O261 O 0.86842 0.2547 0.80859 0.0
O262 O 0.83184 0.22918 0.85127 0.0
C263 C 0.8419 0.31062 0.73035 0.0
C264 C 0.70962 0.32397 0.76326 0.0
C265 C 0.68399 0.35205 0.81444 0.0
C266 C 0.68588 0.36126 0.77282 0.0
C267 C 0.6986 0.34721 0.7473 0.0
C268 C 0.70873 0.31559 0.80512 0.0
C269 C 0.69582 0.32933 0.83039 0.0
C270 C 0.72472 0.31008 0.73756 0.0
C271 C 0.8215 0.31848 0.8312 0.0
H272 H 0.93155 0.18723 0.81675 0.0
H273 H 0.91519 0.21896 0.85671 0.0
H274 H 0.81574 0.18673 0.79298 0.0
H275 H 0.83247 0.15574 0.75199 0.0
H276 H 0.67661 0.37859 0.75989 0.0
H277 H 0.69976 0.35439 0.71523 0.0
H278 H 0.71793 0.29833 0.81836 0.0
H279 H 0.69474 0.32199 0.86243 0.0
Tb280 Tb 0.79946 0.79953 0.81605 0.0
Tb281 Tb 0.78412 0.74652 0.74724 0.0
C282 C 0.84516 0.81089 0.7447 0.0
C283 C 0.7823 0.85146 0.8814 0.0
C284 C 0.74002 0.8747 0.91569 0.0
C285 C 0.77483 0.89222 0.91379 0.0
C286 C 0.79573 0.88065 0.89702 0.0
C287 C 0.74732 0.83452 0.88161 0.0
C288 C 0.72651 0.84591 0.89865 0.0
C289 C 0.8051 0.83851 0.86667 0.0
O290 O 0.77247 0.8123 0.76229 0.0
O291 O 0.74524 0.76672 0.73073 0.0
O292 O 0.74896 0.72397 0.79389 0.0
O293 O 0.74808 0.76655 0.82051 0.0
O294 O 0.78244 0.73584 0.68622 0.0
O295 O 0.77624 0.70149 0.73492 0.0
O296 O 0.82745 0.74575 0.78848 0.0
O297 O 0.8217 0.76733 0.84507 0.0
O298 O 0.845 0.81489 0.78343 0.0
O299 O 0.82008 0.78981 0.72504 0.0
C300 C 0.74847 0.79498 0.73682 0.0
O301 O 0.79862 0.80966 0.87626 0.0
O302 O 0.81263 0.84558 0.82899 0.0
C303 C 0.73571 0.7369 0.81658 0.0
C304 C 0.80446 0.69767 0.67887 0.0
C305 C 0.84976 0.67693 0.64523 0.0
C306 C 0.81536 0.6673 0.63051 0.0
C307 C 0.79313 0.67756 0.64703 0.0
C308 C 0.83859 0.70707 0.69407 0.0
C309 C 0.86084 0.69687 0.67757 0.0
C310 C 0.78032 0.70804 0.69626 0.0
C311 C 0.83372 0.75027 0.82775 0.0
H312 H 0.78617 0.91437 0.92671 0.0
H313 H 0.8226 0.89427 0.89711 0.0
H314 H 0.73615 0.81215 0.86933 0.0
H315 H 0.69977 0.83192 0.89895 0.0
H316 H 0.80568 0.65228 0.60557 0.0
H317 H 0.76695 0.6698 0.63474 0.0
H318 H 0.84809 0.72231 0.71881 0.0
H319 H 0.88682 0.70451 0.69054 0.0
Co320 Co 0.08765 0.99061 0.50112 0.0
Co321 Co 0.09346 0.98873 0.58106 0.0
Co322 Co 0.05018 0.02875 0.54387 0.0
O323 O 0.08786 0.01618 0.54061 0.0
H324 H 0.10893 0.03384 0.54183 0.0
O325 O 1.01324 0.04267 0.54744 0.0
Co326 Co 1.02152 0.07818 0.57618 0.0
Co327 Co 1.01038 0.06525 0.49835 0.0
H328 H 0.99187 0.02615 0.5521 0.0
O329 O 0.13446 0.98267 0.59205 0.0
O330 O 0.09217 0.96109 0.54486 0.0
O331 O 0.05618 0.97004 0.61411 0.0
O332 O 1.02268 0.99091 0.57732 0.0
O333 O 0.07472 0.04903 0.59399 0.0
O334 O 1.02556 0.1096 0.60239 0.0
O335 O 0.97781 0.06922 0.586 0.0
O336 O 0.06853 0.09187 0.5725 0.0
O337 O 0.07856 0.06589 0.51014 0.0
O338 O 0.04522 0.07641 0.46035 0.0
O339 O 1.01529 0.09963 0.52332 0.0
O340 O 0.97095 0.07057 0.48238 0.0
C341 C 0.12426 0.98781 0.47082 0.0
C342 C 1.0186 0.98086 0.4873 0.0
C343 C 1.02764 0.97205 0.60516 0.0
C344 C 0.12106 0.96357 0.56356 0.0
C345 C 0.99304 0.09536 0.6029 0.0
C346 C 0.08354 0.07761 0.59619 0.0
C347 C 0.07439 0.07836 0.4751 0.0
C348 C 0.98549 0.09413 0.50436 0.0
O349 O 0.09294 0.96893 0.46435 0.0
O350 O 0.13242 1.00832 0.49751 0.0
O351 O 1.02451 0.00842 0.49369 0.0
O352 O 0.04026 0.96922 0.49908 0.0
Co353 Co 0.56741 0.98263 0.05232 0.0
Co354 Co 0.57911 0.99721 0.12402 0.0
Co355 Co 0.52828 0.04043 0.06701 0.0
O356 O 0.56939 0.02215 0.07468 0.0
H357 H 0.5904 0.03854 0.06822 0.0
O358 O 0.48701 0.05998 0.06422 0.0
Co359 Co 0.48242 0.0992 0.09422 0.0
Co360 Co 0.48987 0.09124 0.02017 0.0
H361 H 0.46504 0.04352 0.06155 0.0
O362 O 0.62149 0.98826 0.14779 0.0
O363 O 0.58024 0.95813 0.10816 0.0
O364 O 0.53783 0.9873 0.15154 0.0
O365 O 0.5082 0.01425 0.11678 0.0
O366 O 0.55707 0.07681 0.09984 0.0
O367 O 0.48086 0.1336 0.12423 0.0
O368 O 0.43424 0.09851 0.10413 0.0
O369 O 0.53084 0.11088 0.09706 0.0
O370 O 0.55182 0.06727 0.01653 0.0
O371 O 0.53355 0.10517 0.99528 0.0
O372 O 0.48086 0.12443 0.03912 0.0
O373 O 0.45072 0.09502 0.98852 0.0
C374 C 0.59958 0.96679 0.0277 0.0
C375 C 0.49749 0.97424 0.03349 0.0
C376 C 0.51193 0.99478 0.14514 0.0
C377 C 0.60897 0.96175 0.1322 0.0
C378 C 0.44826 0.12406 0.12343 0.0
C379 C 0.55724 0.10405 0.10067 0.0
C380 C 0.55501 0.09268 0.99528 0.0
C381 C 0.45725 0.11933 0.00802 0.0
O382 O 0.56726 0.95089 0.02805 0.0
O383 O 0.61201 0.99431 0.04124 0.0
O384 O 0.49863 1.0024 0.03149 0.0
O385 O 0.519 0.96648 0.05752 0.0
Co386 Co 0.053 0.49424 0.00223 0.0
Co387 Co 0.05765 0.51345 0.07533 0.0
Co388 Co 1.02023 0.54835 0.0148 0.0
O389 O 0.05659 0.53163 0.02375 0.0
H390 H 0.07855 0.54734 0.02057 0.0
O391 O 0.98515 0.56689 0.00332 0.0
Co392 Co 0.98558 0.59978 0.03319 0.0
Co393 Co 0.99043 0.59546 0.95886 0.0
H394 H 0.9626 0.55088 1.00062 0.0
O395 O 0.09745 0.51109 0.0995 0.0
O396 O 0.05709 0.47749 0.0588 0.0
O397 O 1.01845 0.50243 0.10395 0.0
O398 O 0.98775 0.51667 0.05329 0.0
O399 O 0.04367 0.57515 0.06088 0.0
O400 O 0.98144 0.62719 0.06132 0.0
O401 O 0.9402 0.58744 0.03104 0.0
O402 O 0.03465 0.61727 0.04056 0.0
O403 O 0.05254 0.5791 0.97737 0.0
O404 O 0.03356 0.61045 0.93719 0.0
O405 O 0.98536 0.62729 0.9819 0.0
O406 O 0.95381 0.6008 0.92875 0.0
C407 C 0.08651 0.47651 0.98417 0.0
C408 C 0.98862 0.49114 0.97569 0.0
C409 C 0.99018 0.50181 0.08739 0.0
C410 C 0.08546 0.48545 0.0817 0.0
C411 C 0.94948 0.61173 0.05175 0.0
C412 C 0.05296 0.60408 0.06024 0.0
C413 C 0.05681 0.601 0.9502 0.0
C414 C 0.9617 0.62361 0.95171 0.0
O415 O 0.05405 0.46049 0.98236 0.0
O416 O 0.09787 0.50392 0.9978 0.0
O417 O 0.99734 0.52012 0.97 0.0
O418 O 1.00515 0.47962 1.00185 0.0
Co419 Co 0.55683 0.4801 0.98774 0.0
Co420 Co 0.58545 0.50124 0.05896 0.0
Co421 Co 0.53722 0.53263 0.02916 0.0
O422 O 0.57135 0.51874 0.01178 0.0
H423 H 0.5902 0.53479 0.99966 0.0
O424 O 0.50337 0.54622 0.04662 0.0
Co425 Co 0.51822 0.58034 0.07993 0.0
Co426 Co 0.49077 0.56964 0.0056 0.0
H427 H 0.48352 0.52952 0.05568 0.0
O428 O 0.62671 0.49944 0.06187 0.0
O429 O 0.57654 0.46453 0.03768 0.0
O430 O 0.5611 0.4924 0.10722 0.0
O431 O 0.517 0.49725 0.07099 0.0
O432 O 0.57154 0.55611 0.07136 0.0
O433 O 0.5291 0.61049 0.11135 0.0
O434 O 0.48104 0.56837 0.10879 0.0
O435 O 0.56008 0.59717 0.05626 0.0
O436 O 0.55735 0.56834 0.9879 0.0
O437 O 0.51868 0.58679 0.96176 0.0
O438 O 0.49628 0.60064 0.03775 0.0
O439 O 0.44835 0.56875 0.00437 0.0
C440 C 0.57618 0.45815 0.95371 0.0
C441 C 0.49652 0.48065 0.98596 0.0
C442 C 0.52972 0.48695 0.10289 0.0
C443 C 0.60921 0.47333 0.04616 0.0
C444 C 0.49938 0.59479 0.12383 0.0
C445 C 0.58038 0.58484 0.07208 0.0
C446 C 0.54776 0.58598 0.96243 0.0
C447 C 0.46348 0.59032 0.02945 0.0
O448 O 0.54579 0.44545 0.96537 0.0
O449 O 0.59487 0.48632 0.96256 0.0
O450 O 0.50344 0.5091 0.98663 0.0
O451 O 0.51501 0.46914 0.00854 0.0
Co452 Co 0.12958 0.47502 0.5391 0.0
Co453 Co 0.11541 0.48097 0.46255 0.0
Co454 Co 0.06589 0.51675 0.50557 0.0
O455 O 0.08623 0.47992 0.50589 0.0
H456 H 0.06755 0.46026 0.50646 0.0
O457 O 0.0457 0.55462 0.50106 0.0
Co458 Co 1.00357 0.56701 0.4639 0.0
Co459 Co 1.0117 0.54546 0.53788 0.0
H460 H 0.06415 0.5734 0.50827 0.0
O461 O 0.1188 0.44732 0.43396 0.0
O462 O 0.15392 0.46999 0.48626 0.0
O463 O 0.13088 0.52307 0.43915 0.0
O464 O 0.09551 0.54221 0.46164 0.0
O465 O 1.02617 0.49639 0.46503 0.0
O466 O 0.96454 0.5763 0.42904 0.0
O467 O 1.0034 0.61261 0.45876 0.0
O468 O 0.99093 0.52315 0.45808 0.0
O469 O 0.03522 0.48867 0.55118 0.0
O470 O 0.99348 0.5038 0.56067 0.0
O471 O 0.97807 0.55894 0.51274 0.0
O472 O 1.01293 0.57662 0.56867 0.0
C473 C 0.14682 0.43882 0.5715 0.0
C474 C 0.13806 0.54089 0.5538 0.0
C475 C 0.11988 0.54429 0.44083 0.0
C476 C 0.14662 0.45034 0.45632 0.0
C477 C 0.97467 0.60508 0.4356 0.0
C478 C 0.9969 0.49858 0.45716 0.0
C479 C 1.00658 0.48386 0.56588 0.0
C480 C 0.98739 0.57658 0.54357 0.0
O481 O 0.16532 0.46793 0.57194 0.0
O482 O 0.11707 0.43166 0.55047 0.0
O483 O 0.10658 0.53863 0.54743 0.0
O484 O 0.14868 0.52147 0.5403 0.0
Co485 Co 0.62517 0.97189 0.59157 0.0
Co486 Co 0.62601 0.99371 0.52036 0.0
Co487 Co 0.57032 0.01177 0.5504 0.0
O488 O 0.58965 0.97917 0.55108 0.0
H489 H 0.57278 0.96017 0.54118 0.0
O490 O 0.55452 0.04571 0.55309 0.0
Co491 Co 0.52848 0.05918 0.51211 0.0
Co492 Co 0.51902 0.03727 0.58134 0.0
H493 H 0.57251 0.06328 0.56417 0.0
O494 O 0.62645 0.96701 0.48601 0.0
O495 O 0.65563 0.97887 0.54801 0.0
O496 O 0.64322 0.03618 0.50299 0.0
O497 O 0.59112 0.03536 0.49885 0.0
O498 O 0.52778 0.98557 0.51623 0.0
O499 O 0.50766 0.0764 0.47387 0.0
O500 O 0.55065 0.09869 0.52054 0.0
O501 O 0.50226 0.01843 0.49838 0.0
O502 O 0.54832 0.98868 0.60096 0.0
O503 O 0.4993 0.99505 0.59754 0.0
O504 O 0.49353 0.05626 0.55078 0.0
O505 O 0.51889 0.06529 0.61493 0.0
C506 C 0.63609 0.93336 0.61632 0.0
C507 C 0.63957 0.03852 0.598 0.0
C508 C 0.62219 0.04839 0.49077 0.0
C509 C 0.64812 0.96378 0.51503 0.0
C510 C 0.52943 0.101 0.49038 0.0
C511 C 0.50251 0.99167 0.49923 0.0
C512 C 0.51701 0.9791 0.60799 0.0
C513 C 0.49818 0.0694 0.58529 0.0
O514 O 0.65434 0.96087 0.62743 0.0
O515 O 0.61047 0.92969 0.58895 0.0
O516 O 0.61101 0.03823 0.58291 0.0
O517 O 0.64694 0.01494 0.60095 0.0
H518 H 0.18378 0.20581 0.31341 0.0
H519 H 0.27236 0.20314 0.38757 0.0
H520 H 0.23613 0.15911 0.42905 0.0
H521 H 0.13332 0.19212 0.394 0.0
H522 H 0.09408 0.16847 0.36777 0.0
H523 H 0.12678 0.19649 0.33934 0.0
H524 H 0.12661 0.15448 0.29517 0.0
H525 H 0.09364 0.12631 0.3233 0.0
H526 H 0.13248 0.12115 0.31957 0.0
H527 H 0.19119 0.1192 0.46626 0.0
H528 H 0.13981 0.08584 0.49853 0.0
H529 H 0.07846 0.11446 0.40297 0.0
C530 C 0.19541 0.19517 0.33755 0.0
C531 C 0.23085 0.20731 0.34694 0.0
C532 C 0.24529 0.19377 0.37969 0.0
C533 C 0.22492 0.16877 0.40335 0.0
C534 C 0.19002 0.15769 0.39415 0.0
C535 C 0.17522 0.17031 0.36205 0.0
C536 C 0.13684 0.15568 0.36145 0.0
C537 C 0.12189 0.17962 0.36592 0.0
C538 C 0.12149 0.13838 0.32255 0.0
C539 C 0.13257 0.13369 0.39891 0.0
C540 C 0.16365 0.13496 0.41675 0.0
C541 C 0.16666 0.11778 0.45239 0.0
C542 C 0.13719 0.09893 0.4706 0.0
C543 C 0.10489 0.09744 0.45348 0.0
C544 C 0.10266 0.11491 0.41679 0.0
H545 H 0.83748 0.14174 0.4444 0.0
H546 H 0.90925 0.23318 0.46689 0.0
H547 H 0.94273 0.21255 0.51642 0.0
H548 H 0.86054 0.10428 0.55512 0.0
H549 H 0.85433 0.07056 0.52961 0.0
H550 H 0.82694 0.09109 0.51523 0.0
H551 H 0.84118 0.09502 0.44063 0.0
H552 H 0.86923 0.07566 0.45451 0.0
H553 H 0.88475 0.11307 0.42868 0.0
H554 H 0.9798 0.18572 0.53156 0.0
H555 H 1.01154 0.15329 0.52556 0.0
H556 H 0.91755 0.07742 0.49642 0.0
C557 C 0.85911 0.15715 0.462 0.0
C558 C 0.87125 0.18873 0.45177 0.0
C559 C 0.89954 0.20881 0.47458 0.0
C560 C 0.91875 0.19722 0.50288 0.0
C561 C 0.90888 0.16562 0.50832 0.0
C562 C 0.87864 0.14566 0.49008 0.0
C563 C 0.87742 0.11331 0.49333 0.0
C564 C 0.85339 0.09366 0.52523 0.0
C565 C 0.86765 0.09849 0.45182 0.0
C566 C 0.91373 0.11939 0.50852 0.0
C567 C 0.93103 0.14933 0.51895 0.0
C568 C 0.96625 0.16187 0.52559 0.0
C569 C 0.98416 0.14348 0.52151 0.0
C570 C 0.96678 0.113 0.5107 0.0
C571 C 0.93123 0.10067 0.50518 0.0
H572 H 0.89971 0.84996 0.34259 0.0
H573 H 0.81438 0.86921 0.37056 0.0
H574 H 0.85309 0.91066 0.41378 0.0
H575 H 0.94149 0.86028 0.44367 0.0
H576 H 0.98335 0.87641 0.42615 0.0
H577 H 0.94906 0.8496 0.3961 0.0
H578 H 0.96117 0.88896 0.33408 0.0
H579 H 0.99546 0.91589 0.36398 0.0
H580 H 0.96178 0.9265 0.33924 0.0
H581 H 0.90244 0.95165 0.45175 0.0
H582 H 0.95669 0.98464 0.4869 0.0
H583 H 1.00796 0.93469 0.4383 0.0
C584 C 0.88922 0.8631 0.35753 0.0
C585 C 0.85422 0.85683 0.35285 0.0
C586 C 0.84122 0.87388 0.37367 0.0
C587 C 0.86301 0.89745 0.39813 0.0
C588 C 0.89752 0.90312 0.40204 0.0
C589 C 0.9104 0.88605 0.38279 0.0
C590 C 0.94804 0.89539 0.39358 0.0
C591 C 0.95593 0.86884 0.41623 0.0
C592 C 0.96776 0.9074 0.35545 0.0
C593 C 0.95454 0.92073 0.4215 0.0
C594 C 0.92524 0.92517 0.42569 0.0
C595 C 0.92543 0.94814 0.44895 0.0
C596 C 0.95631 0.96683 0.46865 0.0
C597 C 0.98635 0.96201 0.46549 0.0
C598 C 0.98529 0.93863 0.44162 0.0
H599 H 0.18697 0.90161 0.331 0.0
H600 H 0.26926 0.98673 0.30137 0.0
H601 H 0.25399 0.01159 0.35469 0.0
H602 H 0.12787 0.93109 0.34268 0.0
H603 H 0.10913 0.90442 0.38405 0.0
H604 H 0.1297 0.89371 0.34758 0.0
H605 H 0.16953 0.88159 0.40598 0.0
H606 H 0.14798 0.89164 0.44212 0.0
H607 H 0.19332 0.91025 0.44158 0.0
H608 H 0.22517 0.02704 0.40752 0.0
H609 H 0.18469 0.03242 0.45089 0.0
H610 H 0.1225 0.93607 0.44285 0.0
C611 C 0.2018 0.92554 0.33577 0.0
C612 C 0.22863 0.94269 0.31192 0.0
C613 C 0.2482 0.97361 0.31929 0.0
C614 C 0.23989 0.98765 0.34959 0.0
C615 C 0.21263 0.96999 0.37229 0.0
C616 C 0.1941 0.93953 0.36563 0.0
C617 C 0.16461 0.92562 0.3914 0.0
C618 C 0.13086 0.913 0.36483 0.0
C619 C 0.16918 0.90083 0.42212 0.0
C620 C 0.1681 0.9534 0.41232 0.0
C621 C 0.19633 0.97869 0.40196 0.0
C622 C 0.20326 1.00731 0.41613 0.0
C623 C 0.1802 0.01017 0.44057 0.0
C624 C 0.15049 0.98466 0.44948 0.0
C625 C 0.14494 0.95594 0.43608 0.0
H626 H 0.27021 0.9126 0.58733 0.0
H627 H 0.19327 0.82302 0.56629 0.0
H628 H 0.15744 0.84635 0.5257 0.0
H629 H 0.226 0.93915 0.62016 0.0
H630 H 0.24023 0.978 0.59882 0.0
H631 H 0.26799 0.95797 0.60313 0.0
H632 H 0.2753 0.96708 0.52577 0.0
H633 H 0.24826 0.98835 0.52129 0.0
H634 H 0.2385 0.95678 0.48973 0.0
H635 H 0.12197 0.87558 0.51583 0.0
H636 H 0.09274 0.90804 0.5313 0.0
H637 H 0.18913 0.97913 0.56637 0.0
C638 C 0.24664 0.89811 0.57188 0.0
C639 C 0.23416 0.86622 0.58045 0.0
C640 C 0.20343 0.84755 0.56002 0.0
C641 C 0.18277 0.86074 0.53692 0.0
C642 C 0.19335 0.8925 0.53453 0.0
C643 C 0.22527 0.91118 0.55031 0.0
C644 C 0.2274 0.94346 0.55357 0.0
C645 C 0.24115 0.95524 0.59647 0.0
C646 C 0.24862 0.96519 0.52062 0.0
C647 C 0.19056 0.93853 0.54437 0.0
C648 C 0.1718 0.9097 0.53068 0.0
C649 C 0.13657 0.89851 0.52523 0.0
C650 C 0.12014 0.91691 0.53463 0.0
C651 C 0.13889 0.94572 0.55064 0.0
C652 C 0.17445 0.957 0.55443 0.0
H653 H 0.19171 0.21567 0.73542 0.0
H654 H 0.25937 0.16838 0.77117 0.0
H655 H 0.22019 0.12373 0.73413 0.0
H656 H 0.11018 0.1475 0.73456 0.0
H657 H 0.09271 0.16251 0.68956 0.0
H658 H 0.12277 0.18821 0.72501 0.0
H659 H 0.1606 0.21582 0.66626 0.0
H660 H 0.13099 0.18998 0.6308 0.0
H661 H 0.17465 0.19409 0.63629 0.0
H662 H 0.17658 0.08643 0.68867 0.0
H663 H 0.13195 0.0592 0.63642 0.0
H664 H 0.09519 0.1327 0.62604 0.0
C665 C 0.1975 0.19541 0.73668 0.0
C666 C 0.22799 0.19495 0.75673 0.0
C667 C 0.23575 0.16876 0.75637 0.0
C668 C 0.2137 0.14337 0.73548 0.0
C669 C 0.18429 0.14484 0.71479 0.0
C670 C 0.17612 0.17016 0.71518 0.0
C671 C 0.14511 0.16739 0.68665 0.0
C672 C 0.11597 0.16633 0.71037 0.0
C673 C 0.15336 0.19336 0.65302 0.0
C674 C 0.13761 0.1369 0.66955 0.0
C675 C 0.16011 0.12402 0.68671 0.0
C676 C 0.15863 0.09614 0.67521 0.0
C677 C 0.1333 0.08092 0.64548 0.0
C678 C 0.11026 0.09392 0.62717 0.0
C679 C 0.11256 0.12228 0.6394 0.0
H680 H 0.86812 0.11397 0.74783 0.0
H681 H 0.93019 0.21082 0.7365 0.0
H682 H 0.95773 0.20226 0.68068 0.0
H683 H 0.93003 0.08788 0.73604 0.0
H684 H 0.90491 0.05617 0.70546 0.0
H685 H 0.8849 0.06992 0.73927 0.0
H686 H 0.84469 0.07776 0.6789 0.0
H687 H 0.86473 0.06423 0.64455 0.0
H688 H 0.86214 0.10117 0.63446 0.0
H689 H 0.98577 0.18384 0.63807 0.0
H690 H 1.01272 0.15605 0.60641 0.0
H691 H 0.93222 0.06996 0.63877 0.0
C692 C 0.88707 0.13323 0.73285 0.0
C693 C 0.89758 0.16296 0.74657 0.0
C694 C 0.9224 0.18783 0.72669 0.0
C695 C 0.93783 0.18326 0.69467 0.0
C696 C 0.92792 0.1537 0.68254 0.0
C697 C 0.90298 0.12901 0.70051 0.0
C698 C 0.90001 0.09936 0.68383 0.0
C699 C 0.9053 0.07703 0.71821 0.0
C700 C 0.86586 0.08476 0.65895 0.0
C701 C 0.92898 0.11126 0.65639 0.0
C702 C 0.944 0.14279 0.65564 0.0
C703 C 0.97371 0.15925 0.63724 0.0
C704 C 0.98898 0.14315 0.61963 0.0
C705 C 0.97421 0.1109 0.61954 0.0
C706 C 0.94341 0.09469 0.63743 0.0
H707 H 0.89564 0.86704 0.76374 0.0
H708 H 0.85764 0.80105 0.67006 0.0
H709 H 0.8991 0.83597 0.62498 0.0
H710 H 0.91157 0.93382 0.69621 0.0
H711 H 0.95033 0.95694 0.72382 0.0
H712 H 0.91807 0.9267 0.7504 0.0
H713 H 0.96128 0.90255 0.7783 0.0
H714 H 0.99376 0.93294 0.75223 0.0
H715 H 0.98481 0.89371 0.74323 0.0
H716 H 0.94077 0.87814 0.58773 0.0
H717 H 0.98734 0.92426 0.56301 0.0
H718 H 1.00242 0.96296 0.68034 0.0
C719 C 0.8964 0.85986 0.73396 0.0
C720 C 0.87303 0.83139 0.72039 0.0
C721 C 0.87484 0.82285 0.68112 0.0
C722 C 0.89834 0.84253 0.65512 0.0
C723 C 0.92024 0.87067 0.66879 0.0
C724 C 0.92006 0.87929 0.7074 0.0
C725 C 0.94692 0.911 0.71401 0.0
C726 C 0.93074 0.93344 0.72155 0.0
C727 C 0.97326 0.90997 0.74902 0.0
C728 C 0.96206 0.91854 0.67313 0.0
C729 C 0.94575 0.895 0.64743 0.0
C730 C 0.95402 0.89666 0.60759 0.0
C731 C 0.98026 0.92289 0.59376 0.0
C732 C 0.99807 0.94678 0.61988 0.0
C733 C 0.98892 0.94479 0.65999 0.0
H734 H 0.32271 0.21611 0.18453 0.0
H735 H 0.38588 0.23506 0.29813 0.0
H736 H 0.4186 0.20755 0.27655 0.0
H737 H 0.32247 0.13761 0.17796 0.0
H738 H 0.32397 0.14026 0.12347 0.0
H739 H 0.30517 0.16198 0.14644 0.0
H740 H 0.34534 0.21144 0.11158 0.0
H741 H 0.36422 0.18981 0.08854 0.0
H742 H 0.39038 0.22122 0.11905 0.0
H743 H 0.44917 0.17757 0.24019 0.0
H744 H 0.46909 0.14877 0.19869 0.0
H745 H 0.38703 0.14252 0.10669 0.0
C746 C 0.34342 0.2147 0.2053 0.0
C747 C 0.35043 0.22933 0.24449 0.0
C748 C 0.3784 0.22529 0.26867 0.0
C749 C 0.39778 0.20922 0.25622 0.0
C750 C 0.3903 0.19551 0.21835 0.0
C751 C 0.36332 0.19783 0.19319 0.0
C752 C 0.36053 0.18003 0.15425 0.0
C753 C 0.32596 0.15339 0.15026 0.0
C754 C 0.36537 0.20191 0.11607 0.0
C755 C 0.38979 0.16753 0.16112 0.0
C756 C 0.40673 0.17727 0.1985 0.0
C757 C 0.43526 0.16994 0.21132 0.0
C758 C 0.44672 0.15298 0.18681 0.0
C759 C 0.43051 0.14133 0.14822 0.0
C760 C 0.40084 0.1494 0.13583 0.0
H761 H 0.88699 0.35131 0.22091 0.0
H762 H 0.79687 0.37042 0.18715 0.0
H763 H 0.82966 0.41602 0.14465 0.0
H764 H 0.9432 0.42841 0.23121 0.0
H765 H 0.97817 0.4241 0.21119 0.0
H766 H 0.94698 0.39183 0.23614 0.0
H767 H 0.93562 0.36087 0.17207 0.0
H768 H 0.96705 0.39298 0.1471 0.0
H769 H 0.92462 0.37654 0.1233 0.0
H770 H 0.87359 0.46031 0.10551 0.0
H771 H 0.92446 0.49955 0.07606 0.0
H772 H 0.98574 0.4524 0.13934 0.0
C773 C 0.87411 0.36481 0.20393 0.0
C774 C 0.83935 0.35739 0.20711 0.0
C775 C 0.82353 0.37598 0.18525 0.0
C776 C 0.84195 0.4018 0.16092 0.0
C777 C 0.8764 0.40894 0.159 0.0
C778 C 0.8923 0.39096 0.18004 0.0
C779 C 0.92986 0.40437 0.1746 0.0
C780 C 0.95077 0.41267 0.21573 0.0
C781 C 0.93987 0.38238 0.15298 0.0
C782 C 0.93267 0.43272 0.14751 0.0
C783 C 0.90158 0.43488 0.13831 0.0
C784 C 0.89809 0.45889 0.11278 0.0
C785 C 0.9271 0.48113 0.09622 0.0
C786 C 0.95928 0.47951 0.10582 0.0
C787 C 0.96175 0.45486 0.13192 0.0
H788 H 0.76069 0.88539 0.21693 0.0
H789 H 0.679 0.79979 0.24553 0.0
H790 H 0.63779 0.82272 0.21823 0.0
H791 H 0.71765 0.93506 0.24511 0.0
H792 H 0.73367 0.96444 0.20545 0.0
H793 H 0.7572 0.94126 0.22522 0.0
H794 H 0.75705 0.92606 0.15276 0.0
H795 H 0.73343 0.94915 0.13288 0.0
H796 H 0.71737 0.90927 0.12271 0.0
H797 H 0.60035 0.85786 0.18014 0.0
H798 H 0.57787 0.89685 0.15096 0.0
H799 H 0.68025 0.96428 0.15234 0.0
C800 C 0.73416 0.87094 0.21772 0.0
C801 C 0.72521 0.83891 0.23472 0.0
C802 C 0.68897 0.82338 0.23384 0.0
C803 C 0.66447 0.83676 0.21767 0.0
C804 C 0.67409 0.86756 0.2015 0.0
C805 C 0.70863 0.88467 0.20226 0.0
C806 C 0.71226 0.9179 0.1848 0.0
C807 C 0.73137 0.94106 0.21705 0.0
C808 C 0.73119 0.92611 0.146 0.0
C809 C 0.67515 0.9172 0.17424 0.0
C810 C 0.65344 0.88744 0.18332 0.0
C811 C 0.61816 0.88094 0.17402 0.0
C812 C 0.60503 0.90399 0.15659 0.0
C813 C 0.62555 0.93565 0.1478 0.0
C814 C 0.66199 0.94129 0.1577 0.0
H815 H 0.1893 0.7474 0.17847 0.0
H816 H 0.24151 0.68783 0.22573 0.0
H817 H 0.2002 0.64655 0.18497 0.0
H818 H 0.10585 0.69051 0.18034 0.0
H819 H 0.08939 0.70492 0.13401 0.0
H820 H 0.12418 0.73057 0.16482 0.0
H821 H 0.16015 0.74789 0.10273 0.0
H822 H 0.12542 0.72236 0.07165 0.0
H823 H 0.16626 0.71969 0.07557 0.0
H824 H 0.15207 0.61096 0.14089 0.0
H825 H 0.10056 0.58338 0.09778 0.0
H826 H 0.07823 0.66533 0.07885 0.0
C827 C 0.19243 0.72584 0.17986 0.0
C828 C 0.21911 0.72115 0.20527 0.0
C829 C 0.22165 0.69227 0.20648 0.0
C830 C 0.19821 0.6686 0.18336 0.0
C831 C 0.17216 0.67394 0.15902 0.0
C832 C 0.16911 0.70185 0.15704 0.0
C833 C 0.13796 0.70117 0.12958 0.0
C834 C 0.11286 0.70714 0.15363 0.0
C835 C 0.14806 0.72415 0.09269 0.0
C836 C 0.12381 0.66845 0.11664 0.0
C837 C 0.14409 0.65325 0.13388 0.0
C838 C 0.1361 0.6227 0.12719 0.0
C839 C 0.10659 0.60718 0.10259 0.0
C840 C 0.08499 0.62199 0.08472 0.0
C841 C 0.09409 0.65325 0.09174 0.0
H842 H 0.38107 0.87163 0.84087 0.0
H843 H 0.36301 0.79308 0.92676 0.0
H844 H 0.39465 0.82718 0.98134 0.0
H845 H 0.46735 0.91506 0.88338 0.0
H846 H 0.46417 0.95187 0.87591 0.0
H847 H 0.43886 0.9218 0.84289 0.0
H848 H 0.3848 0.92734 0.86055 0.0
H849 H 0.40994 0.95735 0.89377 0.0
H850 H 0.37602 0.92423 0.91313 0.0
H851 H 0.42911 0.86958 0.0286 0.0
H852 H 0.46606 0.9158 0.06321 0.0
H853 H 0.46626 0.97055 0.95037 0.0
C854 C 0.38348 0.86154 0.87122 0.0
C855 C 0.36873 0.82879 0.87856 0.0
C856 C 0.37353 0.81743 0.91919 0.0
C857 C 0.39162 0.8369 0.95091 0.0
C858 C 0.40575 0.86859 0.94275 0.0
C859 C 0.40217 0.88101 0.90382 0.0
C860 C 0.42126 0.91611 0.90382 0.0
C861 C 0.44959 0.92685 0.87476 0.0
C862 C 0.39653 0.93222 0.8921 0.0
C863 C 0.43611 0.92135 0.94854 0.0
C864 C 0.42635 0.89334 0.97021 0.0
C865 C 0.43672 0.89149 0.01165 0.0
C866 C 0.45791 0.91829 0.03133 0.0
C867 C 0.46949 0.94775 0.01062 0.0
C868 C 0.45774 0.949 0.96814 0.0
H869 H 0.14333 0.3445 0.92328 0.0
H870 H 0.24638 0.41183 0.92856 0.0
H871 H 0.22628 0.45056 0.94632 0.0
H872 H 0.10335 0.39624 0.87878 0.0
H873 H 0.06688 0.3789 0.90779 0.0
H874 H 0.08919 0.3563 0.89516 0.0
H875 H 0.09811 0.34077 0.97171 0.0
H876 H 0.07484 0.36268 0.98356 0.0
H877 H 0.11694 0.37019 0.00755 0.0
H878 H 0.19491 0.48275 0.96252 0.0
H879 H 0.15503 0.50508 0.97835 0.0
H880 H 0.07209 0.41715 0.96438 0.0
C881 C 0.16167 0.36744 0.92782 0.0
C882 C 0.19663 0.37484 0.92462 0.0
C883 C 0.21961 0.40521 0.93136 0.0
C884 C 0.20839 0.42753 0.94126 0.0
C885 C 0.17393 0.41943 0.94444 0.0
C886 C 0.15088 0.39011 0.93797 0.0
C887 C 0.11526 0.38738 0.94379 0.0
C888 C 0.09232 0.37922 0.90401 0.0
C889 C 0.10044 0.36387 0.97879 0.0
C890 C 0.12189 0.41968 0.95468 0.0
C891 C 0.15592 0.43785 0.95454 0.0
C892 C 0.16822 0.46866 0.96284 0.0
C893 C 0.14529 0.4812 0.97176 0.0
C894 C 0.1103 0.46304 0.97283 0.0
C895 C 0.09861 0.4318 0.96391 0.0
H896 H 0.68788 0.23338 0.86103 0.0
H897 H 0.74205 0.17416 0.85404 0.0
H898 H 0.70057 0.13368 0.89421 0.0
H899 H 0.6644 0.20767 0.96568 0.0
H900 H 0.6231 0.20933 0.95636 0.0
H901 H 0.65715 0.23436 0.927 0.0
H902 H 0.62073 0.21426 0.86045 0.0
H903 H 0.58661 0.18914 0.88963 0.0
H904 H 0.6031 0.17379 0.85342 0.0
H905 H 0.65279 0.09819 0.93683 0.0
H906 H 0.60298 0.07165 0.97645 0.0
H907 H 0.57731 0.15171 0.95677 0.0
C908 C 0.69108 0.21193 0.86793 0.0
C909 C 0.71898 0.2076 0.85374 0.0
C910 C 0.72152 0.17878 0.864 0.0
C911 C 0.69782 0.1553 0.88708 0.0
C912 C 0.6709 0.16022 0.90049 0.0
C913 C 0.66732 0.18785 0.89133 0.0
C914 C 0.6358 0.18684 0.90983 0.0
C915 C 0.64571 0.21099 0.9416 0.0
C916 C 0.61003 0.19128 0.87633 0.0
C917 C 0.62222 0.15443 0.9302 0.0
C918 C 0.64309 0.13958 0.92462 0.0
C919 C 0.63627 0.10971 0.94113 0.0
C920 C 0.60766 0.09465 0.96376 0.0
C921 C 0.58536 0.10897 0.96994 0.0
C922 C 0.59319 0.13953 0.95259 0.0
H923 H 0.85112 0.70328 0.80842 0.0
H924 H 0.86447 0.76282 0.90556 0.0
H925 H 0.89883 0.73781 0.94777 0.0
H926 H 0.8421 0.63586 0.87399 0.0
H927 H 0.86401 0.62207 0.84256 0.0
H928 H 0.84147 0.64534 0.81988 0.0
H929 H 0.89597 0.68348 0.78914 0.0
H930 H 0.91871 0.66035 0.81172 0.0
H931 H 0.93395 0.70014 0.82221 0.0
H932 H 0.93426 0.70636 0.97911 0.0
H933 H 0.9632 0.67035 0.99688 0.0
H934 H 0.92306 0.62922 0.88119 0.0
C935 C 0.86143 0.7113 0.83846 0.0
C936 C 0.85513 0.73543 0.85326 0.0
C937 C 0.86885 0.7446 0.89316 0.0
C938 C 0.88852 0.73049 0.91746 0.0
C939 C 0.89421 0.70682 0.90188 0.0
C940 C 0.88074 0.69717 0.86334 0.0
C941 C 0.88956 0.67065 0.85403 0.0
C942 C 0.85737 0.64178 0.84722 0.0
C943 C 0.91081 0.67917 0.81709 0.0
C944 C 0.91032 0.66696 0.8931 0.0
C945 C 0.91303 0.68816 0.92032 0.0
C946 C 0.93196 0.68959 0.95795 0.0
C947 C 0.94834 0.66891 0.96792 0.0
C948 C 0.94519 0.64638 0.94095 0.0
C949 C 0.92583 0.64573 0.90299 0.0
H950 H 0.12617 0.33681 0.13115 0.0
H951 H 0.22315 0.38769 0.08226 0.0
H952 H 0.20531 0.43064 0.0606 0.0
H953 H 0.07288 0.36675 0.05383 0.0
H954 H 0.0474 0.3667 0.09313 0.0
H955 H 0.06661 0.33895 0.09636 0.0
H956 H 0.09316 0.35767 0.1686 0.0
H957 H 0.07579 0.38673 0.16297 0.0
H958 H 0.12074 0.39718 0.17363 0.0
H959 H 0.18291 0.47155 0.06046 0.0
H960 H 0.15044 0.50411 0.06362 0.0
H961 H 0.06575 0.42529 0.10557 0.0
C962 C 0.14317 0.35665 0.11475 0.0
C963 C 0.17598 0.35915 0.10836 0.0
C964 C 0.19778 0.38537 0.08705 0.0
C965 C 0.18797 0.40989 0.07492 0.0
C966 C 0.15616 0.40743 0.08383 0.0
C967 C 0.13359 0.38111 0.10202 0.0
C968 C 0.10185 0.3851 0.11063 0.0
C969 C 0.07034 0.36305 0.08707 0.0
C970 C 0.09767 0.38146 0.15668 0.0
C971 C 0.11023 0.41782 0.09464 0.0
C972 C 0.14207 0.43053 0.08041 0.0
C973 C 0.15742 0.46163 0.06991 0.0
C974 C 0.13907 0.47995 0.07227 0.0
C975 C 0.10559 0.46677 0.08387 0.0
C976 C 0.09104 0.43547 0.09543 0.0
H977 H 0.20696 0.73681 0.8443 0.0
H978 H 0.27216 0.68993 0.89612 0.0
H979 H 0.2249 0.6516 0.93114 0.0
H980 H 0.1558 0.71988 0.93526 0.0
H981 H 0.1174 0.71501 0.90344 0.0
H982 H 0.15757 0.74125 0.88691 0.0
H983 H 0.14486 0.71313 0.82013 0.0
H984 H 0.10508 0.68637 0.83683 0.0
H985 H 0.13572 0.67271 0.82283 0.0
H986 H 0.17019 0.61505 0.95279 0.0
H987 H 0.11141 0.58496 0.96785 0.0
H988 H 0.08055 0.65516 0.90344 0.0
C989 C 0.21146 0.71906 0.86416 0.0
C990 C 0.24307 0.71622 0.86752 0.0
C991 C 0.248 0.69237 0.89305 0.0
C992 C 0.22135 0.67049 0.91307 0.0
C993 C 0.19004 0.67296 0.90756 0.0
C994 C 0.18498 0.69689 0.8845 0.0
C995 C 0.14819 0.69303 0.88219 0.0
C996 C 0.14453 0.71882 0.90321 0.0
C997 C 0.13256 0.69119 0.83786 0.0
C998 C 0.13334 0.66265 0.90614 0.0
C999 C 0.15805 0.65167 0.92062 0.0
C1000 C 0.15062 0.6236 0.94229 0.0
C1001 C 0.11705 0.6066 0.95047 0.0
C1002 C 0.09128 0.6177 0.93703 0.0
C1003 C 0.09959 0.64598 0.91411 0.0
H1004 H 0.31801 0.19145 0.89671 0.0
H1005 H 0.4034 0.26382 0.84438 0.0
H1006 H 0.44206 0.24226 0.8832 0.0
H1007 H 0.36287 0.18447 0.99849 0.0
H1008 H 0.34277 0.14343 0.00381 0.0
H1009 H 0.32108 0.16522 0.97426 0.0
H1010 H 0.31355 0.1337 0.91213 0.0
H1011 H 0.33505 0.11175 0.94157 0.0
H1012 H 0.35017 0.13116 0.89386 0.0
H1013 H 0.47403 0.21291 0.93064 0.0
H1014 H 0.49365 0.17633 0.97331 0.0
H1015 H 0.3896 0.11821 0.99203 0.0
C1016 C 0.34486 0.20305 0.89361 0.0
C1017 C 0.35686 0.23028 0.86671 0.0
C1018 C 0.39258 0.24347 0.86405 0.0
C1019 C 0.41518 0.23122 0.88645 0.0
C1020 C 0.40274 0.20473 0.91217 0.0
C1021 C 0.36823 0.19049 0.91553 0.0
C1022 C 0.36176 0.16127 0.94407 0.0
C1023 C 0.34617 0.16373 0.98242 0.0
C1024 C 0.33875 0.13277 0.92156 0.0
C1025 C 0.3976 0.16101 0.95538 0.0
C1026 C 0.42091 0.18691 0.93739 0.0
C1027 C 0.45563 0.19259 0.94447 0.0
C1028 C 0.4668 0.17154 0.9694 0.0
C1029 C 0.4439 0.14392 0.98738 0.0
C1030 C 0.40844 0.13893 0.97965 0.0
H1031 H 0.84937 0.3296 0.91119 0.0
H1032 H 0.84531 0.37334 0.7902 0.0
H1033 H 0.88421 0.42249 0.81543 0.0
H1034 H 0.85409 0.39674 0.96492 0.0
H1035 H 0.88219 0.39083 0.0065 0.0
H1036 H 0.85193 0.35867 0.9801 0.0
H1037 H 0.90035 0.34284 0.96488 0.0
H1038 H 0.93062 0.37481 0.99138 0.0
H1039 H 0.9357 0.3702 0.93943 0.0
H1040 H 0.92487 0.46657 0.85157 0.0
H1041 H 0.9677 0.503 0.89745 0.0
H1042 H 0.94691 0.43223 0.99547 0.0
C1043 C 0.85647 0.34963 0.89029 0.0
C1044 C 0.84386 0.34764 0.84889 0.0
C1045 C 0.85395 0.37432 0.82229 0.0
C1046 C 0.87616 0.40246 0.83623 0.0
C1047 C 0.88791 0.40384 0.87708 0.0
C1048 C 0.87844 0.37832 0.90393 0.0
C1049 C 0.89562 0.38652 0.9462 0.0
C1050 C 0.8694 0.38297 0.97621 0.0
C1051 C 0.91685 0.36746 0.96133 0.0
C1052 C 0.91769 0.41997 0.93797 0.0
C1053 C 0.91207 0.42961 0.89812 0.0
C1054 C 0.92941 0.45944 0.88299 0.0
C1055 C 0.95357 0.47998 0.90924 0.0
C1056 C 0.96056 0.47037 0.94981 0.0
C1057 C 0.94209 0.44008 0.96444 0.0
H1058 H 0.73617 0.93223 0.91265 0.0
H1059 H 0.69443 0.84066 0.96966 0.0
H1060 H 0.65744 0.85583 0.00636 0.0
H1061 H 0.73431 0.97288 1.00064 0.0
H1062 H 0.72188 1.00091 0.97029 0.0
H1063 H 0.74657 0.98369 0.94932 0.0
H1064 H 0.70121 0.96644 0.88866 0.0
H1065 H 0.67643 0.98365 0.9094 0.0
H1066 H 0.65787 0.94385 0.89847 0.0
H1067 H 0.62349 0.87934 0.03517 0.0
H1068 H 0.59276 0.90964 0.0533 0.0
H1069 H 0.65511 0.98744 0.97969 0.0
C1070 C 0.71943 0.91549 0.93314 0.0
C1071 C 0.71819 0.88505 0.93793 0.0
C1072 C 0.69563 0.86387 0.96483 0.0
C1073 C 0.67463 0.87236 0.98613 0.0
C1074 C 0.6762 0.90225 0.98048 0.0
C1075 C 0.69789 0.92358 0.95464 0.0
C1076 C 0.69324 0.95388 0.95325 0.0
C1077 C 0.72595 0.97935 0.96934 0.0
C1078 C 0.68149 0.96246 0.90986 0.0
C1079 C 0.66542 0.94606 0.98208 0.0
C1080 C 0.65627 0.9161 0.99743 0.0
C1081 C 0.6305 0.90283 0.02344 0.0
C1082 C 0.61311 0.92027 0.03349 0.0
C1083 C 0.62141 0.95092 0.018 0.0
C1084 C 0.64842 0.96421 0.99241 0.0
H1085 H 0.91009 0.74474 0.12499 0.0
H1086 H 0.81969 0.71915 0.04137 0.0
H1087 H 0.83053 0.67456 0.0232 0.0
H1088 H 0.96131 0.72416 0.06468 0.0
H1089 H 0.98155 0.711 0.10891 0.0
H1090 H 0.96628 0.7407 0.1129 0.0
H1091 H 0.93062 0.70819 0.17155 0.0
H1092 H 0.94502 0.678 0.16677 0.0
H1093 H 0.90034 0.67009 0.16267 0.0
H1094 H 0.85286 0.63285 0.01455 0.0
H1095 H 0.88622 0.60081 0.01281 0.0
H1096 H 0.95919 0.65403 0.10546 0.0
C1097 C 0.89293 0.7302 0.10213 0.0
C1098 C 0.86444 0.73558 0.08396 0.0
C1099 C 0.84189 0.71543 0.05527 0.0
C1100 C 0.84775 0.69006 0.045 0.0
C1101 C 0.8759 0.68513 0.06428 0.0
C1102 C 0.89811 0.70484 0.09208 0.0
C1103 C 0.92638 0.69486 0.10898 0.0
C1104 C 0.96091 0.71911 0.0982 0.0
C1105 C 0.92551 0.68734 0.15523 0.0
C1106 C 0.91695 0.66648 0.08615 0.0
C1107 C 0.88777 0.661 0.06052 0.0
C1108 C 0.8755 0.63676 0.03487 0.0
C1109 C 0.89437 0.61848 0.0344 0.0
C1110 C 0.92511 0.62488 0.05924 0.0
C1111 C 0.93566 0.64845 0.08636 0.0
H1112 H 0.38989 0.83389 0.23652 0.0
H1113 H 0.30767 0.85695 0.17539 0.0
H1114 H 0.34847 0.90681 0.15129 0.0
H1115 H 0.43867 0.90409 0.27214 0.0
H1116 H 0.47948 0.90495 0.26295 0.0
H1117 H 0.44496 0.86891 0.27131 0.0
H1118 H 0.45093 0.85072 0.20229 0.0
H1119 H 0.48664 0.88607 0.19476 0.0
H1120 H 0.45146 0.87472 0.15649 0.0
H1121 H 0.39566 0.95646 0.14478 0.0
H1122 H 0.44988 0.99894 0.13499 0.0
H1123 H 0.503 0.94359 0.19677 0.0
C1124 C 0.38079 0.8488 0.21619 0.0
C1125 C 0.34587 0.84175 0.20737 0.0
C1126 C 0.33451 0.86207 0.1819 0.0
C1127 C 0.35738 0.89055 0.16863 0.0
C1128 C 0.39147 0.89798 0.1806 0.0
C1129 C 0.40345 0.87738 0.2022 0.0
C1130 C 0.44153 0.89163 0.21097 0.0
C1131 C 0.45173 0.89243 0.25708 0.0
C1132 C 0.45865 0.87479 0.18985 0.0
C1133 C 0.44872 0.9235 0.1916 0.0
C1134 C 0.41931 0.92671 0.1751 0.0
C1135 C 0.41907 0.95411 0.15659 0.0
C1136 C 0.45009 0.97825 0.15163 0.0
C1137 C 0.4809 0.97448 0.16421 0.0
C1138 C 0.48003 0.94727 0.18651 0.0
H1139 H 0.68042 0.25436 0.20628 0.0
H1140 H 0.76328 0.23956 0.16185 0.0
H1141 H 0.72264 0.19946 0.11895 0.0
H1142 H 0.6315 0.18067 0.221 0.0
H1143 H 0.591 0.183 0.20573 0.0
H1144 H 0.62577 0.21585 0.22454 0.0
H1145 H 0.62008 0.24816 0.15855 0.0
H1146 H 0.58449 0.21562 0.13986 0.0
H1147 H 0.6201 0.23438 0.10974 0.0
H1148 H 0.67384 0.15422 0.09332 0.0
H1149 H 0.6195 0.11064 0.07999 0.0
H1150 H 0.56841 0.15468 0.14128 0.0
C1151 C 0.68997 0.24383 0.18578 0.0
C1152 C 0.72486 0.25018 0.18684 0.0
C1153 C 0.73656 0.2351 0.16103 0.0
C1154 C 0.71368 0.21228 0.13664 0.0
C1155 C 0.67924 0.20499 0.13834 0.0
C1156 C 0.66738 0.22073 0.16158 0.0
C1157 C 0.62929 0.20588 0.16221 0.0
C1158 C 0.61881 0.19576 0.20595 0.0
C1159 C 0.6125 0.22729 0.14133 0.0
C1160 C 0.62187 0.17868 0.13728 0.0
C1161 C 0.65092 0.17867 0.12349 0.0
C1162 C 0.65076 0.15432 0.1031 0.0
C1163 C 0.61996 0.12952 0.09615 0.0
C1164 C 0.58988 0.1294 0.10955 0.0
C1165 C 0.59096 0.1544 0.13016 0.0
H1166 H 0.70246 0.67361 0.82234 0.0
H1167 H 0.70047 0.75736 0.86146 0.0
H1168 H 0.65226 0.72743 0.90089 0.0
H1169 H 0.61005 0.63235 0.81372 0.0
H1170 H 0.61202 0.59616 0.83219 0.0
H1171 H 0.64605 0.62397 0.80522 0.0
H1172 H 0.68885 0.62211 0.86605 0.0
H1173 H 0.65498 0.59436 0.89322 0.0
H1174 H 0.68222 0.62935 0.91617 0.0
H1175 H 0.6049 0.68982 0.93605 0.0
H1176 H 0.56093 0.6453 0.96773 0.0
H1177 H 0.59298 0.58439 0.9099 0.0
C1178 C 0.69171 0.68562 0.83896 0.0
C1179 C 0.70547 0.71799 0.83859 0.0
C1180 C 0.69065 0.73272 0.86102 0.0
C1181 C 0.6631 0.71589 0.8836 0.0
C1182 C 0.65034 0.68422 0.88353 0.0
C1183 C 0.66397 0.66907 0.86191 0.0
C1184 C 0.64525 0.63465 0.86788 0.0
C1185 C 0.62728 0.62098 0.82734 0.0
C1186 C 0.66927 0.61922 0.88698 0.0
C1187 C 0.61977 0.63302 0.89719 0.0
C1188 C 0.62295 0.66204 0.905 0.0
C1189 C 0.60205 0.66696 0.93014 0.0
C1190 C 0.57708 0.64156 0.94783 0.0
C1191 C 0.57349 0.61157 0.94094 0.0
C1192 C 0.59527 0.60715 0.91553 0.0
H1193 H 0.39861 0.71049 0.02361 0.0
H1194 H 0.30323 0.63366 0.0141 0.0
H1195 H 0.3257 0.60398 0.06475 0.0
H1196 H 0.44073 0.68267 1.00136 0.0
H1197 H 0.4794 0.69565 0.03431 0.0
H1198 H 0.45382 0.71762 0.02737 0.0
H1199 H 0.44922 0.71487 0.10448 0.0
H1200 H 0.47579 0.69314 0.11247 0.0
H1201 H 0.43495 0.67852 0.13282 0.0
H1202 H 0.36089 0.57618 0.07452 0.0
H1203 H 0.401 0.55681 0.05323 0.0
H1204 H 0.47887 0.64777 0.05238 0.0
C1205 C 0.382 0.68818 0.0349 0.0
C1206 C 0.34992 0.67377 0.01434 0.0
C1207 C 0.32818 0.64484 0.02929 0.0
C1208 C 0.34105 0.62779 0.05803 0.0
C1209 C 0.3756 0.63999 0.07067 0.0
C1210 C 0.3957 0.67036 0.06119 0.0
C1211 C 0.43303 0.6756 0.06684 0.0
C1212 C 0.45277 0.69385 0.03023 0.0
C1213 C 0.44922 0.69144 0.10654 0.0
C1214 C 0.43032 0.64286 0.07075 0.0
C1215 C 0.3973 0.62286 0.07604 0.0
C1216 C 0.38688 0.5916 0.07168 0.0
C1217 C 0.40968 0.58081 0.0589 0.0
C1218 C 0.44257 0.60118 0.05057 0.0
C1219 C 0.45373 0.63207 0.05906 0.0
H1220 H 0.39451 0.33221 0.86696 0.0
H1221 H 0.36464 0.38799 0.77169 0.0
H1222 H 0.40349 0.43475 0.80567 0.0
H1223 H 0.39319 0.37059 0.94584 0.0
H1224 H 0.42925 0.3672 0.97608 0.0
H1225 H 0.40522 0.339 0.94031 0.0
H1226 H 0.45912 0.34867 0.90398 0.0
H1227 H 0.48349 0.37611 0.94082 0.0
H1228 H 0.48505 0.3871 0.88718 0.0
H1229 H 0.43805 0.47405 0.85683 0.0
H1230 H 0.47023 0.50306 0.91637 0.0
H1231 H 0.4753 0.41983 0.97742 0.0
C1232 C 0.39715 0.35438 0.85254 0.0
C1233 C 0.37704 0.3569 0.8169 0.0
C1234 C 0.38047 0.38595 0.79879 0.0
C1235 C 0.40225 0.41247 0.81798 0.0
C1236 C 0.42052 0.40913 0.85456 0.0
C1237 C 0.41872 0.38075 0.87106 0.0
C1238 C 0.43821 0.38269 0.91226 0.0
C1239 C 0.41507 0.36376 0.94555 0.0
C1240 C 0.46826 0.37309 0.91094 0.0
C1241 C 0.45003 0.41643 0.9174 0.0
C1242 C 0.44002 0.43148 0.88378 0.0
C1243 C 0.44659 0.46259 0.88295 0.0
C1244 C 0.46452 0.47878 0.91703 0.0
C1245 C 0.47542 0.46366 0.95133 0.0
C1246 C 0.46768 0.43209 0.95144 0.0
H1247 H 0.69728 0.41188 0.8295 0.0
H1248 H 0.63142 0.3179 0.85794 0.0
H1249 H 0.5992 0.33556 0.89907 0.0
H1250 H 0.69677 0.43854 0.93253 0.0
H1251 H 0.69786 0.47531 0.9118 0.0
H1252 H 0.71772 0.45548 0.88688 0.0
H1253 H 0.68185 0.45925 0.81961 0.0
H1254 H 0.66165 0.47872 0.8445 0.0
H1255 H 0.63637 0.44425 0.81917 0.0
H1256 H 0.57023 0.3621 0.92877 0.0
H1257 H 0.54841 0.39656 0.95424 0.0
H1258 H 0.63458 0.47496 0.91299 0.0
C1259 C 0.67624 0.39519 0.84479 0.0
C1260 C 0.66658 0.36355 0.84058 0.0
C1261 C 0.63916 0.34218 0.86104 0.0
C1262 C 0.62076 0.35199 0.8844 0.0
C1263 C 0.6305 0.38323 0.88757 0.0
C1264 C 0.65793 0.40462 0.86917 0.0
C1265 C 0.66238 0.43684 0.87768 0.0
C1266 C 0.69566 0.45246 0.90377 0.0
C1267 C 0.66044 0.45588 0.83786 0.0
C1268 C 0.63201 0.43006 0.9017 0.0
C1269 C 0.61427 0.3989 0.90698 0.0
C1270 C 0.58415 0.38654 0.92553 0.0
C1271 C 0.5718 0.40648 0.9395 0.0
C1272 C 0.58976 0.43859 0.93563 0.0
C1273 C 0.62044 0.45056 0.91659 0.0
H1274 H 0.7417 0.43035 0.14149 0.0
H1275 H 0.66685 0.33824 0.13534 0.0
H1276 H 0.64355 0.35179 0.06891 0.0
H1277 H 0.70373 0.46784 0.12403 0.0
H1278 H 0.72526 0.49825 0.08777 0.0
H1279 H 0.74817 0.47862 0.118 0.0
H1280 H 0.76603 0.46497 0.05335 0.0
H1281 H 0.74298 0.48501 0.02248 0.0
H1282 H 0.73455 0.44586 0.01377 0.0
H1283 H 0.61153 0.37835 0.03381 0.0
H1284 H 0.58135 0.41283 0.02993 0.0
H1285 H 0.67659 0.48967 0.0468 0.0
C1286 C 0.72184 0.41276 0.12461 0.0
C1287 C 0.70515 0.38381 0.14373 0.0
C1288 C 0.67915 0.36101 0.12158 0.0
C1289 C 0.66619 0.3684 0.08335 0.0
C1290 C 0.67993 0.39852 0.06743 0.0
C1291 C 0.70874 0.42009 0.0862 0.0
C1292 C 0.71392 0.452 0.06851 0.0
C1293 C 0.72316 0.47544 0.10159 0.0
C1294 C 0.74095 0.46256 0.03769 0.0
C1295 C 0.67924 0.44564 0.04664 0.0
C1296 C 0.66101 0.41452 0.04335 0.0
C1297 C 0.62589 0.40271 0.03451 0.0
C1298 C 0.60876 0.42242 0.03276 0.0
C1299 C 0.62685 0.45372 0.03861 0.0
C1300 C 0.66244 0.46566 0.04233 0.0
H1301 H 0.71811 0.73486 0.16842 0.0
H1302 H 0.74466 0.67503 0.26087 0.0
H1303 H 0.70616 0.63011 0.22379 0.0
H1304 H 0.63138 0.68899 0.15808 0.0
H1305 H 0.62585 0.69714 0.104 0.0
H1306 H 0.65863 0.72467 0.13476 0.0
H1307 H 0.70346 0.72483 0.08862 0.0
H1308 H 0.67075 0.69726 0.05765 0.0
H1309 H 0.70677 0.68931 0.08029 0.0
H1310 H 0.66339 0.59193 0.17848 0.0
H1311 H 0.61553 0.56254 0.13144 0.0
H1312 H 0.61378 0.64713 0.07097 0.0
C1313 C 0.71627 0.71231 0.18037 0.0
C1314 C 0.73451 0.70827 0.21719 0.0
C1315 C 0.7309 0.67848 0.23259 0.0
C1316 C 0.70927 0.65291 0.21165 0.0
C1317 C 0.69125 0.65761 0.17568 0.0
C1318 C 0.69427 0.68653 0.16031 0.0
C1319 C 0.66976 0.68515 0.12317 0.0
C1320 C 0.64494 0.69985 0.13047 0.0
C1321 C 0.68883 0.70002 0.08518 0.0
C1322 C 0.65201 0.65091 0.12055 0.0
C1323 C 0.66531 0.63549 0.1506 0.0
C1324 C 0.65282 0.60373 0.15474 0.0
C1325 C 0.62566 0.58725 0.12783 0.0
C1326 C 0.61088 0.60258 0.09768 0.0
C1327 C 0.62453 0.63483 0.0938 0.0
H1328 H 0.36333 0.62085 0.24705 0.0
H1329 H 0.43529 0.7146 0.25246 0.0
H1330 H 0.47627 0.70162 0.21996 0.0
H1331 H 0.42814 0.58546 0.2647 0.0
H1332 H 0.40508 0.55594 0.22999 0.0
H1333 H 0.38263 0.57162 0.25789 0.0
H1334 H 0.35355 0.58268 0.19081 0.0
H1335 H 0.37753 0.57093 0.15981 0.0
H1336 H 0.37772 0.60913 0.15289 0.0
H1337 H 0.50867 0.68001 0.18802 0.0
H1338 H 0.53084 0.65204 0.14943 0.0
H1339 H 0.43768 0.57145 0.15881 0.0
C1340 C 0.38793 0.63833 0.24168 0.0
C1341 C 0.39668 0.66862 0.25225 0.0
C1342 C 0.42863 0.69128 0.24458 0.0
C1343 C 0.45201 0.68408 0.22649 0.0
C1344 C 0.44295 0.65407 0.21651 0.0
C1345 C 0.41179 0.63146 0.22355 0.0
C1346 C 0.40822 0.60158 0.20711 0.0
C1347 C 0.40588 0.57721 0.24201 0.0
C1348 C 0.37749 0.59039 0.17569 0.0
C1349 C 0.4416 0.61158 0.18791 0.0
C1350 C 0.46142 0.64168 0.19524 0.0
C1351 C 0.49357 0.65638 0.18206 0.0
C1352 C 0.50591 0.64011 0.16016 0.0
C1353 C 0.48604 0.60942 0.15102 0.0
C1354 C 0.45346 0.59483 0.16542 0.0
H1355 H 0.35492 0.37801 0.19993 0.0
H1356 H 0.41734 0.34086 0.28259 0.0
H1357 H 0.46798 0.37692 0.25218 0.0
H1358 H 0.402 0.39088 0.1124 0.0
H1359 H 0.39877 0.42682 0.09521 0.0
H1360 H 0.36636 0.39868 0.12401 0.0
H1361 H 0.37523 0.43846 0.17662 0.0
H1362 H 0.40775 0.46671 0.148 0.0
H1363 H 0.4169 0.45782 0.20109 0.0
H1364 H 0.51225 0.41548 0.21369 0.0
H1365 H 0.54835 0.45455 0.16679 0.0
H1366 H 0.46008 0.46882 0.10665 0.0
C1367 C 0.37927 0.37764 0.21171 0.0
C1368 C 0.38177 0.35645 0.24404 0.0
C1369 C 0.41429 0.35678 0.25828 0.0
C1370 C 0.44349 0.37727 0.24114 0.0
C1371 C 0.44027 0.39775 0.20968 0.0
C1372 C 0.40917 0.39834 0.19495 0.0
C1373 C 0.41357 0.42293 0.16039 0.0
C1374 C 0.39401 0.40899 0.12065 0.0
C1375 C 0.40271 0.44796 0.17223 0.0
C1376 C 0.45174 0.43517 0.15749 0.0
C1377 C 0.46644 0.42043 0.18675 0.0
C1378 C 0.50111 0.42731 0.19067 0.0
C1379 C 0.52148 0.4497 0.16379 0.0
C1380 C 0.50731 0.46501 0.13283 0.0
C1381 C 0.47183 0.45767 0.12995 0.0
H1382 H 0.83928 0.62059 0.61468 0.0
H1383 H 0.91634 0.71125 0.63223 0.0
H1384 H 0.95753 0.69619 0.60389 0.0
H1385 H 0.8933 0.5796 0.64139 0.0
H1386 H 0.87377 0.55172 0.60362 0.0
H1387 H 0.84941 0.56974 0.62347 0.0
H1388 H 0.83404 0.58764 0.55022 0.0
H1389 H 0.8583 0.56948 0.53031 0.0
H1390 H 0.86739 0.60944 0.51798 0.0
H1391 H 0.99199 0.67088 0.57773 0.0
H1392 H 1.01712 0.6369 0.55585 0.0
H1393 H 0.91873 0.56249 0.55118 0.0
C1394 C 0.86468 0.63746 0.6121 0.0
C1395 C 0.87427 0.66725 0.62638 0.0
C1396 C 0.90811 0.6882 0.62261 0.0
C1397 C 0.93179 0.67992 0.60605 0.0
C1398 C 0.92164 0.65049 0.59281 0.0
C1399 C 0.88887 0.62953 0.59546 0.0
C1400 C 0.88514 0.59902 0.58017 0.0
C1401 C 0.87479 0.57351 0.61419 0.0
C1402 C 0.8597 0.59092 0.54243 0.0
C1403 C 0.92101 0.60601 0.56914 0.0
C1404 C 0.94151 0.63596 0.57663 0.0
C1405 C 0.97602 0.64754 0.57125 0.0
C1406 C 0.99012 0.62803 0.55872 0.0
C1407 C 0.96996 0.59718 0.55096 0.0
C1408 C 0.9347 0.58618 0.55571 0.0
H1409 H 0.35977 0.84059 0.69006 0.0
H1410 H 0.42568 0.79161 0.72678 0.0
H1411 H 0.473 0.83397 0.69567 0.0
H1412 H 0.39557 0.87796 0.59447 0.0
H1413 H 0.39103 0.91282 0.60346 0.0
H1414 H 0.36186 0.87669 0.62318 0.0
H1415 H 0.37608 0.89699 0.69564 0.0
H1416 H 0.40582 0.93293 0.67641 0.0
H1417 H 0.41942 0.91116 0.71708 0.0
H1418 H 0.51404 0.88396 0.66447 0.0
H1419 H 0.54449 0.93639 0.63533 0.0
H1420 H 0.45103 0.95215 0.62449 0.0
C1421 C 0.38381 0.83824 0.69032 0.0
C1422 C 0.38903 0.81268 0.71004 0.0
C1423 C 0.4212 0.81096 0.71126 0.0
C1424 C 0.44817 0.83488 0.69379 0.0
C1425 C 0.44245 0.86035 0.67582 0.0
C1426 C 0.41098 0.86206 0.67397 0.0
C1427 C 0.41191 0.89287 0.65676 0.0
C1428 C 0.38873 0.88989 0.61711 0.0
C1429 C 0.40278 0.90945 0.68836 0.0
C1430 C 0.44877 0.90824 0.64888 0.0
C1431 C 0.4661 0.88925 0.65983 0.0
C1432 C 0.50067 0.89899 0.65567 0.0
C1433 C 0.5178 0.92882 0.63934 0.0
C1434 C 0.50023 0.94846 0.62783 0.0
C1435 C 0.46536 0.93787 0.63306 0.0
H1436 H 0.28355 0.36527 0.68496 0.0
H1437 H 0.19805 0.29198 0.73528 0.0
H1438 H 0.15942 0.31451 0.69769 0.0
H1439 H 0.2516 0.42534 0.69115 0.0
H1440 H 0.26739 0.44591 0.6443 0.0
H1441 H 0.28847 0.42328 0.6729 0.0
H1442 H 0.28171 0.39338 0.60937 0.0
H1443 H 0.26051 0.41588 0.5806 0.0
H1444 H 0.24019 0.37481 0.58406 0.0
H1445 H 0.12797 0.34525 0.65098 0.0
H1446 H 0.1092 0.38238 0.60825 0.0
H1447 H 0.21381 0.43991 0.59145 0.0
C1448 C 0.25666 0.35369 0.68781 0.0
C1449 C 0.24437 0.32589 0.71337 0.0
C1450 C 0.20875 0.31267 0.71616 0.0
C1451 C 0.18633 0.32551 0.6946 0.0
C1452 C 0.19905 0.35259 0.6699 0.0
C1453 C 0.23359 0.36679 0.66678 0.0
C1454 C 0.24061 0.39658 0.63951 0.0
C1455 C 0.26338 0.42443 0.66339 0.0
C1456 C 0.25673 0.39508 0.60111 0.0
C1457 C 0.20498 0.39712 0.62816 0.0
C1458 C 0.1813 0.37107 0.64541 0.0
C1459 C 0.14668 0.36573 0.6379 0.0
C1460 C 0.13603 0.38717 0.6131 0.0
C1461 C 0.1594 0.41485 0.59582 0.0
C1462 C 0.19468 0.41946 0.60396 0.0
H1463 H 0.76781 0.16987 0.73832 0.0
H1464 H 0.74923 0.23357 0.64539 0.0
H1465 H 0.7198 0.19137 0.59989 0.0
H1466 H 0.77658 0.11649 0.66764 0.0
H1467 H 0.75391 0.08289 0.6986 0.0
H1468 H 0.77886 0.11821 0.72212 0.0
H1469 H 0.72701 0.11629 0.75601 0.0
H1470 H 0.70169 0.08077 0.73335 0.0
H1471 H 0.68858 0.11263 0.72491 0.0
H1472 H 0.68639 0.14308 0.56851 0.0
H1473 H 0.64916 0.09081 0.55269 0.0
H1474 H 0.68743 0.05574 0.66489 0.0
C1475 C 0.75861 0.17499 0.70781 0.0
C1476 C 0.7613 0.20509 0.69498 0.0
C1477 C 0.74771 0.21078 0.65557 0.0
C1478 C 0.73108 0.18696 0.6295 0.0
C1479 C 0.72802 0.15746 0.64334 0.0
C1480 C 0.74139 0.15125 0.68151 0.0
C1481 C 0.73092 0.11692 0.6904 0.0
C1482 C 0.76192 0.10812 0.69494 0.0
C1483 C 0.71086 0.10602 0.72841 0.0
C1484 C 0.70853 0.10486 0.6519 0.0
C1485 C 0.70788 0.12885 0.62505 0.0
C1486 C 0.68718 0.12412 0.58891 0.0
C1487 C 0.66604 0.09421 0.58021 0.0
C1488 C 0.66564 0.06907 0.60723 0.0
C1489 C 0.68776 0.07442 0.64325 0.0
H1490 H 0.89123 0.33889 0.36214 0.0
H1491 H 0.8033 0.34134 0.4117 0.0
H1492 H 0.84017 0.38651 0.44898 0.0
H1493 H 0.95302 0.36838 0.45339 0.0
H1494 H 0.98638 0.39 0.42106 0.0
H1495 H 0.95406 0.35448 0.40503 0.0
H1496 H 0.94098 0.38249 0.33817 0.0
H1497 H 0.97255 0.41818 0.35427 0.0
H1498 H 0.92955 0.41482 0.34081 0.0
H1499 H 0.88408 0.43597 0.46993 0.0
H1500 H 0.93373 0.48396 0.47991 0.0
H1501 H 0.99361 0.44927 0.41772 0.0
C1502 C 0.87982 0.34828 0.38191 0.0
C1503 C 0.8444 0.33668 0.38397 0.0
C1504 C 0.83039 0.34979 0.4098 0.0
C1505 C 0.85113 0.37547 0.43105 0.0
C1506 C 0.88574 0.38738 0.4265 0.0
C1507 C 0.90013 0.37387 0.40326 0.0
C1508 C 0.93747 0.39274 0.40035 0.0
C1509 C 0.959 0.37536 0.42122 0.0
C1510 C 0.94558 0.40263 0.35577 0.0
C1511 C 0.94147 0.41968 0.42403 0.0
C1512 C 0.91137 0.41599 0.43908 0.0
C1513 C 0.90795 0.43888 0.459 0.0
C1514 C 0.93613 0.46618 0.46401 0.0
C1515 C 0.96732 0.47026 0.44931 0.0
C1516 C 0.97008 0.44659 0.42944 0.0
H1517 H 0.64413 0.80734 0.45075 0.0
H1518 H 0.74976 0.83582 0.49611 0.0
H1519 H 0.7482 0.88279 0.51991 0.0
H1520 H 0.64901 0.87894 0.41036 0.0
H1521 H 0.60776 0.87459 0.42317 0.0
H1522 H 0.61586 0.84146 0.41452 0.0
H1523 H 0.59723 0.81724 0.48616 0.0
H1524 H 0.58793 0.84995 0.49388 0.0
H1525 H 0.61617 0.83906 0.53034 0.0
H1526 H 0.73634 0.92916 0.53196 0.0
H1527 H 0.71266 0.96812 0.53912 0.0
H1528 H 0.61617 0.90931 0.48246 0.0
C1529 C 0.66669 0.82316 0.46652 0.0
C1530 C 0.69699 0.8181 0.47174 0.0
C1531 C 0.72613 0.8392 0.49241 0.0
C1532 C 0.72562 0.86607 0.5055 0.0
C1533 C 0.69577 0.87121 0.49773 0.0
C1534 C 0.66665 0.85002 0.47949 0.0
C1535 C 0.63817 0.86129 0.4732 0.0
C1536 C 0.62707 0.86425 0.42761 0.0
C1537 C 0.60814 0.84066 0.49736 0.0
C1538 C 0.65578 0.89214 0.49072 0.0
C1539 C 0.68899 0.89759 0.50471 0.0
C1540 C 0.71024 0.92496 0.52164 0.0
C1541 C 0.69674 0.94691 0.52548 0.0
C1542 C 0.66282 0.94144 0.51115 0.0
C1543 C 0.6423 0.91394 0.49335 0.0
H1544 H 0.19058 0.70359 0.31051 0.0
H1545 H 0.24933 0.74123 0.42187 0.0
H1546 H 0.2249 0.69063 0.45819 0.0
H1547 H 0.11475 0.64907 0.35609 0.0
H1548 H 0.10873 0.61993 0.32172 0.0
H1549 H 0.12859 0.65966 0.30539 0.0
H1550 H 0.18023 0.65003 0.28699 0.0
H1551 H 0.16094 0.61038 0.30401 0.0
H1552 H 0.20247 0.63369 0.32541 0.0
H1553 H 0.19875 0.6367 0.48072 0.0
H1554 H 0.16641 0.58162 0.4915 0.0
H1555 H 0.12304 0.57738 0.3664 0.0
C1556 C 0.19736 0.70129 0.34285 0.0
C1557 C 0.22127 0.72621 0.36387 0.0
C1558 C 0.2307 0.72233 0.40567 0.0
C1559 C 0.21714 0.69374 0.42636 0.0
C1560 C 0.19455 0.66937 0.40453 0.0
C1561 C 0.18438 0.67275 0.36387 0.0
C1562 C 0.161 0.6423 0.34737 0.0
C1563 C 0.12619 0.64278 0.33174 0.0
C1564 C 0.17713 0.6336 0.31397 0.0
C1565 C 0.159 0.62143 0.3855 0.0
C1566 C 0.17914 0.63767 0.41775 0.0
C1567 C 0.18264 0.62376 0.4559 0.0
C1568 C 0.16427 0.5925 0.46171 0.0
C1569 C 0.14237 0.57558 0.42989 0.0
C1570 C 0.13988 0.58999 0.39105 0.0
H1571 H 0.43578 0.20754 0.39373 0.0
H1572 H 0.50013 0.2747 0.47779 0.0
H1573 H 0.5362 0.24467 0.49471 0.0
H1574 H 0.43225 0.14482 0.4523 0.0
H1575 H 0.43358 0.12193 0.41288 0.0
H1576 H 0.41751 0.15156 0.40055 0.0
H1577 H 0.4607 0.17644 0.34661 0.0
H1578 H 0.47679 0.1466 0.35824 0.0
H1579 H 0.50514 0.18607 0.36088 0.0
H1580 H 0.55936 0.20408 0.50976 0.0
H1581 H 0.56761 0.15559 0.52344 0.0
H1582 H 0.48725 0.11419 0.43001 0.0
C1583 C 0.4583 0.21635 0.41446 0.0
C1584 C 0.46596 0.24349 0.43398 0.0
C1585 C 0.49464 0.25418 0.46207 0.0
C1586 C 0.51514 0.23732 0.47172 0.0
C1587 C 0.50653 0.21011 0.45266 0.0
C1588 C 0.47893 0.19981 0.4243 0.0
C1589 C 0.47281 0.16828 0.41167 0.0
C1590 C 0.43695 0.14532 0.4199 0.0
C1591 C 0.47926 0.16943 0.36668 0.0
C1592 C 0.49976 0.16152 0.4395 0.0
C1593 C 0.51957 0.18628 0.46196 0.0
C1594 C 0.54452 0.18476 0.49177 0.0
C1595 C 0.54894 0.15706 0.49937 0.0
C1596 C 0.52808 0.13112 0.47772 0.0
C1597 C 0.50378 0.1337 0.44677 0.0
H1598 H 0.73465 0.81753 0.65799 0.0
H1599 H 0.7049 0.80377 0.78133 0.0
H1600 H 0.66953 0.83396 0.76245 0.0
H1601 H 0.74268 0.89332 0.6421 0.0
H1602 H 0.72536 0.89159 0.58992 0.0
H1603 H 0.74495 0.86557 0.6104 0.0
H1604 H 0.69133 0.82042 0.58896 0.0
H1605 H 0.66916 0.8448 0.56972 0.0
H1606 H 0.65159 0.81492 0.60788 0.0
H1607 H 0.64243 0.87083 0.73259 0.0
H1608 H 0.62388 0.90932 0.69332 0.0
H1609 H 0.66827 0.8991 0.58768 0.0
C1610 C 0.7196 0.81987 0.68051 0.0
C1611 C 0.72183 0.80729 0.72102 0.0
C1612 C 0.70294 0.8123 0.74994 0.0
C1613 C 0.68288 0.82968 0.73951 0.0
C1614 C 0.68163 0.84224 0.69973 0.0
C1615 C 0.69912 0.83726 0.67046 0.0
C1616 C 0.69456 0.85474 0.63049 0.0
C1617 C 0.72894 0.87765 0.61748 0.0
C1618 C 0.67558 0.83236 0.59729 0.0
C1619 C 0.67284 0.8711 0.64215 0.0
C1620 C 0.66554 0.8633 0.68229 0.0
C1621 C 0.64751 0.87659 0.70092 0.0
C1622 C 0.63693 0.89845 0.6783 0.0
C1623 C 0.64385 0.90694 0.63707 0.0
C1624 C 0.66188 0.89273 0.61876 0.0
H1625 H 0.7585 0.19641 0.38302 0.0
H1626 H 0.67525 0.2241 0.3384 0.0
H1627 H 0.63568 0.17844 0.3735 0.0
H1628 H 0.71313 0.11636 0.37285 0.0
H1629 H 0.73288 0.10488 0.41892 0.0
H1630 H 0.75532 0.14041 0.3915 0.0
H1631 H 0.76395 0.16954 0.4565 0.0
H1632 H 0.74165 0.13409 0.48424 0.0
H1633 H 0.72771 0.16529 0.48262 0.0
H1634 H 0.60445 0.12933 0.41288 0.0
H1635 H 0.58424 0.08006 0.45335 0.0
H1636 H 0.6872 0.08373 0.47208 0.0
C1637 C 0.73199 0.19297 0.38083 0.0
C1638 C 0.72016 0.21407 0.35794 0.0
C1639 C 0.68516 0.2085 0.35578 0.0
C1640 C 0.66234 0.18254 0.37564 0.0
C1641 C 0.67474 0.16218 0.39775 0.0
C1642 C 0.70874 0.16708 0.40059 0.0
C1643 C 0.71526 0.14133 0.42601 0.0
C1644 C 0.73001 0.12476 0.4008 0.0
C1645 C 0.73852 0.15329 0.46463 0.0
C1646 C 0.67959 0.12108 0.43639 0.0
C1647 C 0.65662 0.13363 0.42004 0.0
C1648 C 0.6222 0.11922 0.42575 0.0
C1649 C 0.61093 0.09118 0.44875 0.0
C1650 C 0.63396 0.07773 0.46563 0.0
C1651 C 0.66877 0.09311 0.45929 0.0
H1652 H 0.86178 0.72503 0.3938 0.0
H1653 H 0.86112 0.71606 0.26487 0.0
H1654 H 0.8931 0.68259 0.28101 0.0
H1655 H 0.95021 0.72635 0.42022 0.0
H1656 H 0.94149 0.70537 0.46876 0.0
H1657 H 0.91745 0.72794 0.44817 0.0
H1658 H 0.86207 0.68064 0.45394 0.0
H1659 H 0.88635 0.65843 0.47505 0.0
H1660 H 0.85705 0.64626 0.43075 0.0
H1661 H 0.92639 0.64413 0.31324 0.0
H1662 H 0.95649 0.61423 0.35262 0.0
H1663 H 0.94406 0.64797 0.46383 0.0
C1664 C 0.86807 0.7162 0.36838 0.0
C1665 C 0.85677 0.72488 0.32653 0.0
C1666 C 0.86769 0.71147 0.29668 0.0
C1667 C 0.88651 0.69165 0.30599 0.0
C1668 C 0.89681 0.68385 0.34652 0.0
C1669 C 0.88818 0.69632 0.37747 0.0
C1670 C 0.90389 0.68511 0.41857 0.0
C1671 C 0.92978 0.71284 0.44026 0.0
C1672 C 0.87565 0.66652 0.44624 0.0
C1673 C 0.9221 0.66429 0.4065 0.0
C1674 C 0.91715 0.66382 0.36437 0.0
C1675 C 0.93019 0.64542 0.346 0.0
C1676 C 0.94799 0.6279 0.36942 0.0
C1677 C 0.95531 0.62752 0.41295 0.0
C1678 C 0.94114 0.64688 0.43104 0.0
H1679 H 0.3877 0.84487 0.3691 0.0
H1680 H 0.3046 0.87446 0.37214 0.0
H1681 H 0.34154 0.91638 0.41492 0.0
H1682 H 0.42397 0.86228 0.47342 0.0
H1683 H 0.46715 0.87564 0.46056 0.0
H1684 H 0.43409 0.84717 0.43114 0.0
H1685 H 0.45143 0.88142 0.36521 0.0
H1686 H 0.48457 0.90996 0.39438 0.0
H1687 H 0.45323 0.91999 0.36238 0.0
H1688 H 0.38734 0.9558 0.45611 0.0
H1689 H 0.439 0.99119 0.4914 0.0
H1690 H 0.4945 0.93758 0.46327 0.0
C1691 C 0.37711 0.85999 0.37899 0.0
C1692 C 0.34281 0.85594 0.36718 0.0
C1693 C 0.33045 0.87667 0.38066 0.0
C1694 C 0.35134 0.90066 0.40511 0.0
C1695 C 0.38482 0.90393 0.41612 0.0
C1696 C 0.39774 0.88423 0.4035 0.0
C1697 C 0.43501 0.89352 0.41895 0.0
C1698 C 0.44037 0.86813 0.44772 0.0
C1699 C 0.45738 0.90171 0.3831 0.0
C1700 C 0.4411 0.92165 0.44203 0.0
C1701 C 0.41159 0.92699 0.43994 0.0
C1702 C 0.41051 0.95176 0.45791 0.0
C1703 C 0.44023 0.97186 0.47794 0.0
C1704 C 0.47123 0.9675 0.48033 0.0
C1705 C 0.47137 0.94158 0.46247 0.0
H1706 H 0.2081 0.34077 0.31576 0.0
H1707 H 0.29637 0.35825 0.40159 0.0
H1708 H 0.27694 0.3893 0.43979 0.0
H1709 H 0.20351 0.41751 0.31772 0.0
H1710 H 0.15799 0.40339 0.31525 0.0
H1711 H 0.17841 0.38236 0.2938 0.0
H1712 H 0.146 0.33449 0.33802 0.0
H1713 H 0.1255 0.35541 0.3596 0.0
H1714 H 0.14872 0.33658 0.39247 0.0
H1715 H 0.24549 0.42197 0.47331 0.0
H1716 H 0.2096 0.44774 0.49265 0.0
H1717 H 0.13941 0.41161 0.38842 0.0
C1718 C 0.2238 0.35104 0.3425 0.0
C1719 C 0.25521 0.34557 0.35386 0.0
C1720 C 0.27292 0.36063 0.39012 0.0
C1721 C 0.26168 0.37894 0.41283 0.0
C1722 C 0.23134 0.38367 0.40102 0.0
C1723 C 0.21254 0.3699 0.36629 0.0
C1724 C 0.18057 0.37862 0.36047 0.0
C1725 C 0.18007 0.39651 0.31934 0.0
C1726 C 0.14826 0.34954 0.36274 0.0
C1727 C 0.18417 0.39924 0.39654 0.0
C1728 C 0.21387 0.40181 0.41971 0.0
C1729 C 0.22244 0.4196 0.45451 0.0
C1730 C 0.20133 0.43468 0.46572 0.0
C1731 C 0.17025 0.43317 0.44328 0.0
C1732 C 0.16237 0.41443 0.40764 0.0
H1733 H 0.42984 0.20295 0.60197 0.0
H1734 H 0.36927 0.1433 0.69602 0.0
H1735 H 0.38863 0.10322 0.68302 0.0
H1736 H 0.41866 0.14387 0.53264 0.0
H1737 H 0.46178 0.16043 0.51907 0.0
H1738 H 0.44197 0.1846 0.53336 0.0
H1739 H 0.49075 0.20622 0.58909 0.0
H1740 H 0.51053 0.18214 0.57451 0.0
H1741 H 0.50106 0.18038 0.62659 0.0
H1742 H 0.41552 0.06998 0.66307 0.0
H1743 H 0.45041 0.04581 0.63814 0.0
H1744 H 0.49502 0.12535 0.5568 0.0
C1745 C 0.42063 0.18147 0.61985 0.0
C1746 C 0.39733 0.17637 0.64967 0.0
C1747 C 0.38618 0.14779 0.67225 0.0
C1748 C 0.39725 0.12479 0.66528 0.0
C1749 C 0.41977 0.13043 0.63564 0.0
C1750 C 0.43158 0.15805 0.61331 0.0
C1751 C 0.45683 0.15818 0.58436 0.0
C1752 C 0.44399 0.16199 0.53971 0.0
C1753 C 0.49187 0.18321 0.59426 0.0
C1754 C 0.45732 0.12638 0.59423 0.0
C1755 C 0.43558 0.11089 0.62388 0.0
C1756 C 0.43236 0.08174 0.63957 0.0
C1757 C 0.45219 0.06813 0.62516 0.0
C1758 C 0.47485 0.0834 0.59509 0.0
C1759 C 0.47725 0.11286 0.57908 0.0
H1760 H 0.84361 0.36229 0.67877 0.0
H1761 H 0.90516 0.3108 0.72477 0.0
H1762 H 0.95255 0.34728 0.68742 0.0
H1763 H 0.87645 0.38502 0.57783 0.0
H1764 H 0.87613 0.42282 0.57649 0.0
H1765 H 0.8463 0.39176 0.60503 0.0
H1766 H 0.86705 0.42243 0.66984 0.0
H1767 H 0.89693 0.45355 0.64149 0.0
H1768 H 0.9114 0.43665 0.68706 0.0
H1769 H 0.9952 0.39106 0.64331 0.0
H1770 H 1.02752 0.43758 0.60162 0.0
H1771 H 0.93998 0.4624 0.58657 0.0
C1772 C 0.86687 0.35839 0.6806 0.0
C1773 C 0.86991 0.33292 0.70489 0.0
C1774 C 0.90151 0.32964 0.70665 0.0
C1775 C 0.92885 0.35044 0.6853 0.0
C1776 C 0.92515 0.37527 0.66203 0.0
C1777 C 0.89489 0.37941 0.65978 0.0
C1778 C 0.89805 0.40878 0.63404 0.0
C1779 C 0.87272 0.40166 0.5961 0.0
C1780 C 0.89306 0.43171 0.65963 0.0
C1781 C 0.93453 0.42043 0.62218 0.0
C1782 C 0.94975 0.40066 0.63828 0.0
C1783 C 0.9833 0.40663 0.63084 0.0
C1784 C 1.00167 0.43328 0.60689 0.0
C1785 C 0.987 0.45441 0.59055 0.0
C1786 C 0.95264 0.44731 0.59856 0.0
H1787 H 0.21443 0.69083 0.69752 0.0
H1788 H 0.31201 0.68419 0.6971 0.0
H1789 H 0.28621 0.64096 0.65296 0.0
H1790 H 0.16472 0.60838 0.69988 0.0
H1791 H 0.12956 0.61082 0.66665 0.0
H1792 H 0.15527 0.64222 0.69745 0.0
H1793 H 0.1669 0.67878 0.63297 0.0
H1794 H 0.14117 0.64747 0.60203 0.0
H1795 H 0.18426 0.66999 0.5911 0.0
H1796 H 0.24993 0.59674 0.60841 0.0
H1797 H 0.20688 0.55599 0.56888 0.0
H1798 H 0.13002 0.58764 0.59548 0.0
C1799 C 0.23052 0.6805 0.68792 0.0
C1800 C 0.266 0.69192 0.70157 0.0
C1801 C 0.28521 0.67675 0.68792 0.0
C1802 C 0.2706 0.65182 0.66245 0.0
C1803 C 0.23601 0.64114 0.64996 0.0
C1804 C 0.21604 0.65495 0.66223 0.0
C1805 C 0.1792 0.63808 0.64463 0.0
C1806 C 0.15579 0.62405 0.67922 0.0
C1807 C 0.16717 0.65989 0.61599 0.0
C1808 C 0.18168 0.61287 0.62074 0.0
C1809 C 0.21489 0.61531 0.62438 0.0
C1810 C 0.22391 0.59483 0.60555 0.0
C1811 C 0.19888 0.57141 0.58283 0.0
C1812 C 0.16423 0.56764 0.57815 0.0
C1813 C 0.15591 0.58924 0.59772 0.0
loop_
_geom_bond_atom_site_label_1
_geom_bond_atom_site_label_2
_geom_bond_distance
_geom_bond_site_symmetry_2
_ccdc_geom_bond_type
Tb0 C9 2.764 . S
Tb0 O10 2.325 . S
Tb0 O13 2.303 . S
Tb0 O17 2.322 . S
Tb0 O18 2.349 . S
Tb0 O21 2.415 . S
Tb0 O22 2.399 . S
Tb1 O11 2.322 . S
Tb1 O12 2.349 . S
Tb1 O14 2.415 . S
Tb1 O15 2.399 . S
Tb1 O16 2.325 . S
Tb1 O19 2.303 . S
Tb1 C30 2.764 . S
C2 O18 1.261 . S
C2 O19 1.257 . S
C3 C6 1.358 . S
C3 C7 1.332 . S
C3 C9 1.504 . S
C4 C5 1.373 . S
C4 C8 1.308 . S
C5 C4 1.373 . S
C5 C6 1.429 . S
C5 H32 0.932 . S
C6 C3 1.358 . S
C6 C5 1.429 . S
C6 H33 0.930 . S
C7 C3 1.332 . S
C7 C8 1.394 . S
C7 H34 0.932 . S
C8 C4 1.308 . S
C8 C7 1.394 . S
C8 H35 0.929 . S
C9 Tb0 2.764 . S
C9 C3 1.504 . S
C9 O21 1.239 . S
C9 O22 1.263 . S
O10 Tb0 2.325 . S
O10 C20 1.236 . S
O11 Tb1 2.322 . S
O11 C20 1.257 . S
O12 Tb1 2.349 . S
O12 C23 1.261 . S
O13 Tb0 2.303 . S
O13 C23 1.257 . S
O14 Tb1 2.415 . S
O14 C30 1.239 . S
O15 Tb1 2.399 . S
O15 C30 1.263 . S
O16 Tb1 2.325 . S
O16 C31 1.236 . S
O17 Tb0 2.322 . S
O17 C31 1.257 . S
O18 Tb0 2.349 . S
O18 C2 1.261 . S
O19 Tb1 2.303 . S
O19 C2 1.257 . S
C20 O10 1.236 . S
C20 O11 1.257 . S
O21 Tb0 2.415 . S
O21 C9 1.239 . S
O22 Tb0 2.399 . S
O22 C9 1.263 . S
C23 O12 1.261 . S
C23 O13 1.257 . S
C24 C27 1.358 . S
C24 C28 1.332 . S
C24 C30 1.504 . S
C25 C26 1.373 . S
C25 C29 1.308 . S
C26 C25 1.373 . S
C26 C27 1.429 . S
C26 H36 0.932 . S
C27 C24 1.358 . S
C27 C26 1.429 . S
C27 H37 0.930 . S
C28 C24 1.332 . S
C28 C29 1.394 . S
C28 H38 0.932 . S
C29 C25 1.308 . S
C29 C28 1.394 . S
C29 H39 0.929 . S
C30 Tb1 2.764 . S
C30 O14 1.239 . S
C30 O15 1.263 . S
C30 C24 1.504 . S
C31 O16 1.236 . S
C31 O17 1.257 . S
H32 C5 0.932 . S
H33 C6 0.930 . S
H34 C7 0.932 . S
H35 C8 0.929 . S
H36 C26 0.932 . S
H37 C27 0.930 . S
H38 C28 0.932 . S
H39 C29 0.929 . S
Tb40 C49 2.764 . S
Tb40 O50 2.325 . S
Tb40 O53 2.303 . S
Tb40 O57 2.322 . S
Tb40 O58 2.349 . S
Tb40 O61 2.415 . S
Tb40 O62 2.399 . S
Tb41 O51 2.322 . S
Tb41 O52 2.349 . S
Tb41 O54 2.415 . S
Tb41 O55 2.399 . S
Tb41 O56 2.325 . S
Tb41 O59 2.303 . S
Tb41 C70 2.764 . S
C42 O58 1.261 . S
C42 O59 1.257 . S
C43 C46 1.358 . S
C43 C47 1.332 . S
C43 C49 1.504 . S
C44 C45 1.373 . S
C44 C48 1.308 . S
C45 C44 1.373 . S
C45 C46 1.429 . S
C45 H72 0.932 . S
C46 C43 1.358 . S
C46 C45 1.429 . S
C46 H73 0.930 . S
C47 C43 1.332 . S
C47 C48 1.394 . S
C47 H74 0.932 . S
C48 C44 1.308 . S
C48 C47 1.394 . S
C48 H75 0.929 . S
C49 Tb40 2.764 . S
C49 C43 1.504 . S
C49 O61 1.239 . S
C49 O62 1.263 . S
O50 Tb40 2.325 . S
O50 C60 1.236 . S
O51 Tb41 2.322 . S
O51 C60 1.257 . S
O52 Tb41 2.349 . S
O52 C63 1.261 . S
O53 Tb40 2.303 . S
O53 C63 1.257 . S
O54 Tb41 2.415 . S
O54 C70 1.239 . S
O55 Tb41 2.399 . S
O55 C70 1.263 . S
O56 Tb41 2.325 . S
O56 C71 1.236 . S
O57 Tb40 2.322 . S
O57 C71 1.257 . S
O58 Tb40 2.349 . S
O58 C42 1.261 . S
O59 Tb41 2.303 . S
O59 C42 1.257 . S
C60 O50 1.236 . S
C60 O51 1.257 . S
O61 Tb40 2.415 . S
O61 C49 1.239 . S
O62 Tb40 2.399 . S
O62 C49 1.263 . S
C63 O52 1.261 . S
C63 O53 1.257 . S
C64 C67 1.358 . S
C64 C68 1.332 . S
C64 C70 1.504 . S
C65 C66 1.373 . S
C65 C69 1.308 . S
C66 C65 1.373 . S
C66 C67 1.429 . S
C66 H76 0.932 . S
C67 C64 1.358 . S
C67 C66 1.429 . S
C67 H77 0.930 . S
C68 C64 1.332 . S
C68 C69 1.394 . S
C68 H78 0.932 . S
C69 C65 1.308 . S
C69 C68 1.394 . S
C69 H79 0.929 . S
C70 Tb41 2.764 . S
C70 O54 1.239 . S
C70 O55 1.263 . S
C70 C64 1.504 . S
C71 O56 1.236 . S
C71 O57 1.257 . S
H72 C45 0.932 . S
H73 C46 0.930 . S
H74 C47 0.932 . S
H75 C48 0.929 . S
H76 C66 0.932 . S
H77 C67 0.930 . S
H78 C68 0.932 . S
H79 C69 0.929 . S
Tb80 C89 2.764 . S
Tb80 O90 2.325 . S
Tb80 O93 2.303 . S
Tb80 O97 2.322 . S
Tb80 O98 2.349 . S
Tb80 O101 2.415 . S
Tb80 O102 2.399 . S
Tb81 O91 2.322 . S
Tb81 O92 2.349 . S
Tb81 O94 2.415 . S
Tb81 O95 2.399 . S
Tb81 O96 2.325 . S
Tb81 O99 2.303 . S
Tb81 C110 2.764 . S
C82 O98 1.261 . S
C82 O99 1.257 . S
C83 C86 1.358 . S
C83 C87 1.332 . S
C83 C89 1.504 . S
C84 C85 1.373 . S
C84 C88 1.308 . S
C85 C84 1.373 . S
C85 C86 1.429 . S
C85 H112 0.932 . S
C86 C83 1.358 . S
C86 C85 1.429 . S
C86 H113 0.930 . S
C87 C83 1.332 . S
C87 C88 1.394 . S
C87 H114 0.932 . S
C88 C84 1.308 . S
C88 C87 1.394 . S
C88 H115 0.929 . S
C89 Tb80 2.764 . S
C89 C83 1.504 . S
C89 O101 1.239 . S
C89 O102 1.263 . S
O90 Tb80 2.325 . S
O90 C100 1.236 . S
O91 Tb81 2.322 . S
O91 C100 1.257 . S
O92 Tb81 2.349 . S
O92 C103 1.261 . S
O93 Tb80 2.303 . S
O93 C103 1.257 . S
O94 Tb81 2.415 . S
O94 C110 1.239 . S
O95 Tb81 2.399 . S
O95 C110 1.263 . S
O96 Tb81 2.325 . S
O96 C111 1.236 . S
O97 Tb80 2.322 . S
O97 C111 1.257 . S
O98 Tb80 2.349 . S
O98 C82 1.261 . S
O99 Tb81 2.303 . S
O99 C82 1.257 . S
C100 O90 1.236 . S
C100 O91 1.257 . S
O101 Tb80 2.415 . S
O101 C89 1.239 . S
O102 Tb80 2.399 . S
O102 C89 1.263 . S
C103 O92 1.261 . S
C103 O93 1.257 . S
C104 C107 1.358 . S
C104 C108 1.332 . S
C104 C110 1.504 . S
C105 C106 1.373 . S
C105 C109 1.308 . S
C106 C105 1.373 . S
C106 C107 1.429 . S
C106 H116 0.932 . S
C107 C104 1.358 . S
C107 C106 1.429 . S
C107 H117 0.930 . S
C108 C104 1.332 . S
C108 C109 1.394 . S
C108 H118 0.932 . S
C109 C105 1.308 . S
C109 C108 1.394 . S
C109 H119 0.929 . S
C110 Tb81 2.764 . S
C110 O94 1.239 . S
C110 O95 1.263 . S
C110 C104 1.504 . S
C111 O96 1.236 . S
C111 O97 1.257 . S
H112 C85 0.932 . S
H113 C86 0.930 . S
H114 C87 0.932 . S
H115 C88 0.929 . S
H116 C106 0.932 . S
H117 C107 0.930 . S
H118 C108 0.932 . S
H119 C109 0.929 . S
Tb120 C129 2.764 . S
Tb120 O130 2.325 . S
Tb120 O133 2.303 . S
Tb120 O137 2.322 . S
Tb120 O138 2.349 . S
Tb120 O141 2.415 . S
Tb120 O142 2.399 . S
Tb121 O131 2.322 . S
Tb121 O132 2.349 . S
Tb121 O134 2.415 . S
Tb121 O135 2.399 . S
Tb121 O136 2.325 . S
Tb121 O139 2.303 . S
Tb121 C150 2.764 . S
C122 O138 1.261 . S
C122 O139 1.257 . S
C123 C126 1.358 . S
C123 C127 1.332 . S
C123 C129 1.504 . S
C124 C125 1.373 . S
C124 C128 1.308 . S
C125 C124 1.373 . S
C125 C126 1.429 . S
C125 H152 0.932 . S
C126 C123 1.358 . S
C126 C125 1.429 . S
C126 H153 0.930 . S
C127 C123 1.332 . S
C127 C128 1.394 . S
C127 H154 0.932 . S
C128 C124 1.308 . S
C128 C127 1.394 . S
C128 H155 0.929 . S
C129 Tb120 2.764 . S
C129 C123 1.504 . S
C129 O141 1.239 . S
C129 O142 1.263 . S
O130 Tb120 2.325 . S
O130 C140 1.236 . S
O131 Tb121 2.322 . S
O131 C140 1.257 . S
O132 Tb121 2.349 . S
O132 C143 1.261 . S
O133 Tb120 2.303 . S
O133 C143 1.257 . S
O134 Tb121 2.415 . S
O134 C150 1.239 . S
O135 Tb121 2.399 . S
O135 C150 1.263 . S
O136 Tb121 2.325 . S
O136 C151 1.236 . S
O137 Tb120 2.322 . S
O137 C151 1.257 . S
O138 Tb120 2.349 . S
O138 C122 1.261 . S
O139 Tb121 2.303 . S
O139 C122 1.257 . S
C140 O130 1.236 . S
C140 O131 1.257 . S
O141 Tb120 2.415 . S
O141 C129 1.239 . S
O142 Tb120 2.399 . S
O142 C129 1.263 . S
C143 O132 1.261 . S
C143 O133 1.257 . S
C144 C147 1.358 . S
C144 C148 1.332 . S
C144 C150 1.504 . S
C145 C146 1.373 . S
C145 C149 1.308 . S
C146 C145 1.373 . S
C146 C147 1.429 . S
C146 H156 0.932 . S
C147 C144 1.358 . S
C147 C146 1.429 . S
C147 H157 0.930 . S
C148 C144 1.332 . S
C148 C149 1.394 . S
C148 H158 0.932 . S
C149 C145 1.308 . S
C149 C148 1.394 . S
C149 H159 0.929 . S
C150 Tb121 2.764 . S
C150 O134 1.239 . S
C150 O135 1.263 . S
C150 C144 1.504 . S
C151 O136 1.236 . S
C151 O137 1.257 . S
H152 C125 0.932 . S
H153 C126 0.930 . S
H154 C127 0.932 . S
H155 C128 0.929 . S
H156 C146 0.932 . S
H157 C147 0.930 . S
H158 C148 0.932 . S
H159 C149 0.929 . S
Tb160 C169 2.764 . S
Tb160 O170 2.325 . S
Tb160 O173 2.303 . S
Tb160 O177 2.322 . S
Tb160 O178 2.349 . S
Tb160 O181 2.415 . S
Tb160 O182 2.399 . S
Tb161 O171 2.322 . S
Tb161 O172 2.349 . S
Tb161 O174 2.415 . S
Tb161 O175 2.399 . S
Tb161 O176 2.325 . S
Tb161 O179 2.303 . S
Tb161 C190 2.764 . S
C162 O178 1.261 . S
C162 O179 1.257 . S
C163 C166 1.358 . S
C163 C167 1.332 . S
C163 C169 1.504 . S
C164 C165 1.373 . S
C164 C168 1.308 . S
C165 C164 1.373 . S
C165 C166 1.429 . S
C165 H192 0.932 . S
C166 C163 1.358 . S
C166 C165 1.429 . S
C166 H193 0.930 . S
C167 C163 1.332 . S
C167 C168 1.394 . S
C167 H194 0.932 . S
C168 C164 1.308 . S
C168 C167 1.394 . S
C168 H195 0.929 . S
C169 Tb160 2.764 . S
C169 C163 1.504 . S
C169 O181 1.239 . S
C169 O182 1.263 . S
O170 Tb160 2.325 . S
O170 C180 1.236 . S
O171 Tb161 2.322 . S
O171 C180 1.257 . S
O172 Tb161 2.349 . S
O172 C183 1.261 . S
O173 Tb160 2.303 . S
O173 C183 1.257 . S
O174 Tb161 2.415 . S
O174 C190 1.239 . S
O175 Tb161 2.399 . S
O175 C190 1.263 . S
O176 Tb161 2.325 . S
O176 C191 1.236 . S
O177 Tb160 2.322 . S
O177 C191 1.257 . S
O178 Tb160 2.349 . S
O178 C162 1.261 . S
O179 Tb161 2.303 . S
O179 C162 1.257 . S
C180 O170 1.236 . S
C180 O171 1.257 . S
O181 Tb160 2.415 . S
O181 C169 1.239 . S
O182 Tb160 2.399 . S
O182 C169 1.263 . S
C183 O172 1.261 . S
C183 O173 1.257 . S
C184 C187 1.358 . S
C184 C188 1.332 . S
C184 C190 1.504 . S
C185 C186 1.373 . S
C185 C189 1.308 . S
C186 C185 1.373 . S
C186 C187 1.429 . S
C186 H196 0.932 . S
C187 C184 1.358 . S
C187 C186 1.429 . S
C187 H197 0.930 . S
C188 C184 1.332 . S
C188 C189 1.394 . S
C188 H198 0.932 . S
C189 C185 1.308 . S
C189 C188 1.394 . S
C189 H199 0.929 . S
C190 Tb161 2.764 . S
C190 O174 1.239 . S
C190 O175 1.263 . S
C190 C184 1.504 . S
C191 O176 1.236 . S
C191 O177 1.257 . S
H192 C165 0.932 . S
H193 C166 0.930 . S
H194 C167 0.932 . S
H195 C168 0.929 . S
H196 C186 0.932 . S
H197 C187 0.930 . S
H198 C188 0.932 . S
H199 C189 0.929 . S
Tb200 C209 2.764 . S
Tb200 O210 2.325 . S
Tb200 O213 2.303 . S
Tb200 O217 2.322 . S
Tb200 O218 2.349 . S
Tb200 O221 2.415 . S
Tb200 O222 2.399 . S
Tb201 O211 2.322 . S
Tb201 O212 2.349 . S
Tb201 O214 2.415 . S
Tb201 O215 2.399 . S
Tb201 O216 2.325 . S
Tb201 O219 2.303 . S
Tb201 C230 2.764 . S
C202 O218 1.261 . S
C202 O219 1.257 . S
C203 C206 1.358 . S
C203 C207 1.332 . S
C203 C209 1.504 . S
C204 C205 1.373 . S
C204 C208 1.308 . S
C205 C204 1.373 . S
C205 C206 1.429 . S
C205 H232 0.932 . S
C206 C203 1.358 . S
C206 C205 1.429 . S
C206 H233 0.930 . S
C207 C203 1.332 . S
C207 C208 1.394 . S
C207 H234 0.932 . S
C208 C204 1.308 . S
C208 C207 1.394 . S
C208 H235 0.929 . S
C209 Tb200 2.764 . S
C209 C203 1.504 . S
C209 O221 1.239 . S
C209 O222 1.263 . S
O210 Tb200 2.325 . S
O210 C220 1.236 . S
O211 Tb201 2.322 . S
O211 C220 1.257 . S
O212 Tb201 2.349 . S
O212 C223 1.261 . S
O213 Tb200 2.303 . S
O213 C223 1.257 . S
O214 Tb201 2.415 . S
O214 C230 1.239 . S
O215 Tb201 2.399 . S
O215 C230 1.263 . S
O216 Tb201 2.325 . S
O216 C231 1.236 . S
O217 Tb200 2.322 . S
O217 C231 1.257 . S
O218 Tb200 2.349 . S
O218 C202 1.261 . S
O219 Tb201 2.303 . S
O219 C202 1.257 . S
C220 O210 1.236 . S
C220 O211 1.257 . S
O221 Tb200 2.415 . S
O221 C209 1.239 . S
O222 Tb200 2.399 . S
O222 C209 1.263 . S
C223 O212 1.261 . S
C223 O213 1.257 . S
C224 C227 1.358 . S
C224 C228 1.332 . S
C224 C230 1.504 . S
C225 C226 1.373 . S
C225 C229 1.308 . S
C226 C225 1.373 . S
C226 C227 1.429 . S
C226 H236 0.932 . S
C227 C224 1.358 . S
C227 C226 1.429 . S
C227 H237 0.930 . S
C228 C224 1.332 . S
C228 C229 1.394 . S
C228 H238 0.932 . S
C229 C225 1.308 . S
C229 C228 1.394 . S
C229 H239 0.929 . S
C230 Tb201 2.764 . S
C230 O214 1.239 . S
C230 O215 1.263 . S
C230 C224 1.504 . S
C231 O216 1.236 . S
C231 O217 1.257 . S
H232 C205 0.932 . S
H233 C206 0.930 . S
H234 C207 0.932 . S
H235 C208 0.929 . S
H236 C226 0.932 . S
H237 C227 0.930 . S
H238 C228 0.932 . S
H239 C229 0.929 . S
Tb240 C249 2.764 . S
Tb240 O250 2.325 . S
Tb240 O253 2.303 . S
Tb240 O257 2.322 . S
Tb240 O258 2.349 . S
Tb240 O261 2.415 . S
Tb240 O262 2.399 . S
Tb241 O251 2.322 . S
Tb241 O252 2.349 . S
Tb241 O254 2.415 . S
Tb241 O255 2.399 . S
Tb241 O256 2.325 . S
Tb241 O259 2.303 . S
Tb241 C270 2.764 . S
C242 O258 1.261 . S
C242 O259 1.257 . S
C243 C246 1.358 . S
C243 C247 1.332 . S
C243 C249 1.504 . S
C244 C245 1.373 . S
C244 C248 1.308 . S
C245 C244 1.373 . S
C245 C246 1.429 . S
C245 H272 0.932 . S
C246 C243 1.358 . S
C246 C245 1.429 . S
C246 H273 0.930 . S
C247 C243 1.332 . S
C247 C248 1.394 . S
C247 H274 0.932 . S
C248 C244 1.308 . S
C248 C247 1.394 . S
C248 H275 0.929 . S
C249 Tb240 2.764 . S
C249 C243 1.504 . S
C249 O261 1.239 . S
C249 O262 1.263 . S
O250 Tb240 2.325 . S
O250 C260 1.236 . S
O251 Tb241 2.322 . S
O251 C260 1.257 . S
O252 Tb241 2.349 . S
O252 C263 1.261 . S
O253 Tb240 2.303 . S
O253 C263 1.257 . S
O254 Tb241 2.415 . S
O254 C270 1.239 . S
O255 Tb241 2.399 . S
O255 C270 1.263 . S
O256 Tb241 2.325 . S
O256 C271 1.236 . S
O257 Tb240 2.322 . S
O257 C271 1.257 . S
O258 Tb240 2.349 . S
O258 C242 1.261 . S
O259 Tb241 2.303 . S
O259 C242 1.257 . S
C260 O250 1.236 . S
C260 O251 1.257 . S
O261 Tb240 2.415 . S
O261 C249 1.239 . S
O262 Tb240 2.399 . S
O262 C249 1.263 . S
C263 O252 1.261 . S
C263 O253 1.257 . S
C264 C267 1.358 . S
C264 C268 1.332 . S
C264 C270 1.504 . S
C265 C266 1.373 . S
C265 C269 1.308 . S
C266 C265 1.373 . S
C266 C267 1.429 . S
C266 H276 0.932 . S
C267 C264 1.358 . S
C267 C266 1.429 . S
C267 H277 0.930 . S
C268 C264 1.332 . S
C268 C269 1.394 . S
C268 H278 0.932 . S
C269 C265 1.308 . S
C269 C268 1.394 . S
C269 H279 0.929 . S
C270 Tb241 2.764 . S
C270 O254 1.239 . S
C270 O255 1.263 . S
C270 C264 1.504 . S
C271 O256 1.236 . S
C271 O257 1.257 . S
H272 C245 0.932 . S
H273 C246 0.930 . S
H274 C247 0.932 . S
H275 C248 0.929 . S
H276 C266 0.932 . S
H277 C267 0.930 . S
H278 C268 0.932 . S
H279 C269 0.929 . S
Tb280 C289 2.764 . S
Tb280 O290 2.325 . S
Tb280 O293 2.303 . S
Tb280 O297 2.322 . S
Tb280 O298 2.349 . S
Tb280 O301 2.415 . S
Tb280 O302 2.399 . S
Tb281 O291 2.322 . S
Tb281 O292 2.349 . S
Tb281 O294 2.415 . S
Tb281 O295 2.399 . S
Tb281 O296 2.325 . S
Tb281 O299 2.303 . S
Tb281 C310 2.764 . S
C282 O298 1.261 . S
C282 O299 1.257 . S
C283 C286 1.358 . S
C283 C287 1.332 . S
C283 C289 1.504 . S
C284 C285 1.373 . S
C284 C288 1.308 . S
C285 C284 1.373 . S
C285 C286 1.429 . S
C285 H312 0.932 . S
C286 C283 1.358 . S
C286 C285 1.429 . S
C286 H313 0.930 . S
C287 C283 1.332 . S
C287 C288 1.394 . S
C287 H314 0.932 . S
C288 C284 1.308 . S
C288 C287 1.394 . S
C288 H315 0.929 . S
C289 Tb280 2.764 . S
C289 C283 1.504 . S
C289 O301 1.239 . S
C289 O302 1.263 . S
O290 Tb280 2.325 . S
O290 C300 1.236 . S
O291 Tb281 2.322 . S
O291 C300 1.257 . S
O292 Tb281 2.349 . S
O292 C303 1.261 . S
O293 Tb280 2.303 . S
O293 C303 1.257 . S
O294 Tb281 2.415 . S
O294 C310 1.239 . S
O295 Tb281 2.399 . S
O295 C310 1.263 . S
O296 Tb281 2.325 . S
O296 C311 1.236 . S
O297 Tb280 2.322 . S
O297 C311 1.257 . S
O298 Tb280 2.349 . S
O298 C282 1.261 . S
O299 Tb281 2.303 . S
O299 C282 1.257 . S
C300 O290 1.236 . S
C300 O291 1.257 . S
O301 Tb280 2.415 . S
O301 C289 1.239 . S
O302 Tb280 2.399 . S
O302 C289 1.263 . S
C303 O292 1.261 . S
C303 O293 1.257 . S
C304 C307 1.358 . S
C304 C308 1.332 . S
C304 C310 1.504 . S
C305 C306 1.373 . S
C305 C309 1.308 . S
C306 C305 1.373 . S
C306 C307 1.429 . S
C306 H316 0.932 . S
C307 C304 1.358 . S
C307 C306 1.429 . S
C307 H317 0.930 . S
C308 C304 1.332 . S
C308 C309 1.394 . S
C308 H318 0.932 . S
C309 C305 1.308 . S
C309 C308 1.394 . S
C309 H319 0.929 . S
C310 Tb281 2.764 . S
C310 O294 1.239 . S
C310 O295 1.263 . S
C310 C304 1.504 . S
C311 O296 1.236 . S
C311 O297 1.257 . S
H312 C285 0.932 . S
H313 C286 0.930 . S
H314 C287 0.932 . S
H315 C288 0.929 . S
H316 C306 0.932 . S
H317 C307 0.930 . S
H318 C308 0.932 . S
H319 C309 0.929 . S
Co320 O323 2.042 . S
Co320 O330 2.264 . S
Co320 O349 2.286 . S
Co320 O350 2.069 . S
Co320 O352 2.015 1_455 S
Co321 O323 2.122 . S
Co321 O329 2.073 . S
Co321 O330 2.327 . S
Co321 O331 1.976 1_455 S
Co322 O323 2.087 1_545 S
Co322 O325 2.087 1_455 S
Co322 O332 2.111 1_445 S
Co322 O333 2.143 . S
Co322 O337 2.111 . S
Co322 O351 2.143 1_445 S
O323 Co320 2.042 . S
O323 Co321 2.122 . S
O323 Co322 2.087 1_565 S
O323 H324 0.980 1_565 S
H324 O323 0.980 1_545 S
O325 Co322 2.087 1_655 S
O325 Co326 2.042 . S
O325 Co327 2.122 . S
O325 H328 0.980 . S
Co326 O325 2.042 . S
Co326 O334 2.286 . S
Co326 O335 2.069 . S
Co326 O336 2.015 1_655 S
Co326 O339 2.264 . S
Co327 O325 2.122 . S
Co327 O338 1.976 1_655 S
Co327 O339 2.327 . S
Co327 O340 2.073 . S
H328 O325 0.980 . S
O329 Co321 2.073 . S
O329 C344 1.245 . S
O330 Co320 2.264 . S
O330 Co321 2.327 . S
O330 C344 1.257 . S
O331 Co321 1.976 1_655 S
O331 C343 1.251 . S
O332 Co322 2.111 1_665 S
O332 C343 1.274 . S
O333 Co322 2.143 . S
O333 C346 1.246 . S
O334 Co326 2.286 . S
O334 C345 1.259 . S
O335 Co326 2.069 . S
O335 C345 1.289 . S
O336 Co326 2.015 1_455 S
O336 C346 1.257 . S
O337 Co322 2.111 . S
O337 C347 1.274 . S
O338 Co327 1.976 1_455 S
O338 C347 1.251 . S
O339 Co326 2.264 . S
O339 Co327 2.327 . S
O339 C348 1.257 . S
O340 Co327 2.073 . S
O340 C348 1.245 . S
C341 O349 1.259 . S
C341 O350 1.289 . S
C342 O351 1.246 . S
C342 O352 1.257 . S
C343 O331 1.251 . S
C343 O332 1.274 . S
C344 O329 1.245 . S
C344 O330 1.257 . S
C345 O334 1.259 . S
C345 O335 1.289 . S
C346 O333 1.246 . S
C346 O336 1.257 . S
C347 O337 1.274 . S
C347 O338 1.251 . S
C348 O339 1.257 . S
C348 O340 1.245 . S
O349 Co320 2.286 . S
O349 C341 1.259 . S
O350 Co320 2.069 . S
O350 C341 1.289 . S
O351 Co322 2.143 1_665 S
O351 C342 1.246 . S
O352 Co320 2.015 1_655 S
O352 C342 1.257 . S
Co353 O356 2.042 1_565 S
Co353 O363 2.264 . S
Co353 O382 2.273 1_554 S
Co353 O383 2.069 . S
Co353 O385 2.015 . S
Co354 O356 2.122 1_565 S
Co354 O362 2.073 . S
Co354 O363 2.327 . S
Co354 O364 1.976 . S
Co355 O356 2.087 . S
Co355 O358 2.087 . S
Co355 O365 2.111 . S
Co355 O366 2.143 . S
Co355 O370 2.111 . S
Co355 O384 2.143 1_545 S
O356 Co353 2.042 1_545 S
O356 Co354 2.122 1_545 S
O356 Co355 2.087 . S
O356 H357 0.980 . S
H357 O356 0.980 . S
O358 Co355 2.087 . S
O358 Co359 2.042 . S
O358 Co360 2.122 1_554 S
O358 H361 0.980 . S
Co359 O358 2.042 . S
Co359 O367 2.286 . S
Co359 O368 2.069 . S
Co359 O369 2.015 . S
Co359 O372 2.264 . S
Co360 O358 2.122 1_556 S
Co360 O371 1.976 . S
Co360 O372 2.327 1_556 S
Co360 O373 2.073 . S
H361 O358 0.980 . S
O362 Co354 2.073 . S
O362 C377 1.245 . S
O363 Co353 2.264 . S
O363 Co354 2.327 . S
O363 C377 1.257 . S
O364 Co354 1.976 . S
O364 C376 1.251 . S
O365 Co355 2.111 . S
O365 C376 1.274 1_545 S
O366 Co355 2.143 . S
O366 C379 1.246 . S
O367 Co359 2.286 . S
O367 C378 1.259 . S
O368 Co359 2.069 . S
O368 C378 1.289 . S
O369 Co359 2.015 . S
O369 C379 1.257 . S
O370 Co355 2.111 . S
O370 C380 1.274 . S
O371 Co360 1.976 . S
O371 C380 1.251 1_556 S
O372 Co359 2.264 . S
O372 Co360 2.327 1_554 S
O372 C381 1.250 1_554 S
O373 Co360 2.073 . S
O373 C381 1.256 . S
C374 O382 1.256 1_554 S
C374 O383 1.289 . S
C375 O384 1.246 . S
C375 O385 1.257 . S
C376 O364 1.251 . S
C376 O365 1.274 1_565 S
C377 O362 1.245 . S
C377 O363 1.257 . S
C378 O367 1.259 . S
C378 O368 1.289 . S
C379 O366 1.246 . S
C379 O369 1.257 . S
C380 O370 1.274 . S
C380 O371 1.251 1_554 S
C381 O372 1.250 1_556 S
C381 O373 1.256 . S
O382 Co353 2.273 1_556 S
O382 C374 1.256 1_556 S
O383 Co353 2.069 . S
O383 C374 1.289 . S
O384 Co355 2.143 1_565 S
O384 C375 1.246 . S
O385 Co353 2.015 . S
O385 C375 1.257 . S
Co386 O389 2.042 1_556 S
Co386 O396 2.264 1_556 S
Co386 O415 2.286 . S
Co386 O416 2.069 . S
Co386 O418 2.015 1_455 S
Co387 O389 2.122 . S
Co387 O395 2.073 . S
Co387 O396 2.327 . S
Co387 O397 1.976 1_455 S
Co388 O389 2.087 . S
Co388 O391 2.087 1_454 S
Co388 O398 2.111 1_455 S
Co388 O399 2.143 . S
Co388 O403 2.111 1_554 S
Co388 O417 2.143 1_454 S
O389 Co386 2.042 1_554 S
O389 Co387 2.122 . S
O389 Co388 2.087 . S
O389 H390 0.980 . S
H390 O389 0.980 . S
O391 Co388 2.087 1_656 S
O391 Co392 2.042 1_556 S
O391 Co393 2.122 . S
O391 H394 0.980 . S
Co392 O391 2.042 1_554 S
Co392 O400 2.286 . S
Co392 O401 2.069 . S
Co392 O402 2.015 1_655 S
Co392 O405 2.264 1_554 S
Co393 O391 2.122 . S
Co393 O404 1.976 1_655 S
Co393 O405 2.327 . S
Co393 O406 2.073 . S
H394 O391 0.980 . S
O395 Co387 2.073 . S
O395 C410 1.245 . S
O396 Co386 2.264 1_554 S
O396 Co387 2.327 . S
O396 C410 1.257 . S
O397 Co387 1.976 1_655 S
O397 C409 1.251 . S
O398 Co388 2.111 1_655 S
O398 C409 1.274 . S
O399 Co388 2.143 . S
O399 C412 1.246 . S
O400 Co392 2.286 . S
O400 C411 1.259 . S
O401 Co392 2.069 . S
O401 C411 1.289 . S
O402 Co392 2.015 1_455 S
O402 C412 1.257 . S
O403 Co388 2.111 1_556 S
O403 C413 1.274 . S
O404 Co393 1.976 1_455 S
O404 C413 1.251 . S
O405 Co392 2.264 1_556 S
O405 Co393 2.327 . S
O405 C414 1.257 . S
O406 Co393 2.073 . S
O406 C414 1.245 . S
C407 O415 1.259 . S
C407 O416 1.289 . S
C408 O417 1.246 . S
C408 O418 1.257 . S
C409 O397 1.251 . S
C409 O398 1.274 . S
C410 O395 1.245 . S
C410 O396 1.257 . S
C411 O400 1.259 . S
C411 O401 1.289 . S
C412 O399 1.246 . S
C412 O402 1.257 . S
C413 O403 1.274 . S
C413 O404 1.251 . S
C414 O405 1.257 . S
C414 O406 1.245 . S
O415 Co386 2.286 . S
O415 C407 1.259 . S
O416 Co386 2.069 . S
O416 C407 1.289 . S
O417 Co388 2.143 1_656 S
O417 C408 1.246 . S
O418 Co386 2.015 1_655 S
O418 C408 1.257 . S
Co419 O422 2.042 . S
Co419 O429 2.264 . S
Co419 O448 2.286 1_554 S
Co419 O449 2.069 . S
Co419 O451 2.014 1_554 S
Co420 O422 2.122 . S
Co420 O428 2.073 . S
Co420 O429 2.327 . S
Co420 O430 1.976 . S
Co421 O422 2.087 . S
Co421 O424 2.087 . S
Co421 O431 2.111 . S
Co421 O432 2.143 . S
Co421 O436 2.111 1_554 S
Co421 O450 2.143 1_554 S
O422 Co419 2.042 . S
O422 Co420 2.122 . S
O422 Co421 2.087 . S
O422 H423 0.980 . S
H423 O422 0.980 . S
O424 Co421 2.087 . S
O424 Co425 2.042 . S
O424 Co426 2.122 1_554 S
O424 H427 0.980 . S
Co425 O424 2.042 . S
Co425 O433 2.286 . S
Co425 O434 2.069 . S
Co425 O435 2.015 . S
Co425 O438 2.264 1_554 S
Co426 O424 2.122 1_556 S
Co426 O437 1.976 . S
Co426 O438 2.327 . S
Co426 O439 2.073 . S
H427 O424 0.980 . S
O428 Co420 2.073 . S
O428 C443 1.245 . S
O429 Co419 2.264 . S
O429 Co420 2.327 . S
O429 C443 1.257 . S
O430 Co420 1.976 . S
O430 C442 1.251 . S
O431 Co421 2.111 . S
O431 C442 1.274 . S
O432 Co421 2.143 . S
O432 C445 1.246 . S
O433 Co425 2.286 . S
O433 C444 1.259 . S
O434 Co425 2.069 . S
O434 C444 1.289 . S
O435 Co425 2.015 . S
O435 C445 1.257 . S
O436 Co421 2.111 1_556 S
O436 C446 1.274 . S
O437 Co426 1.976 . S
O437 C446 1.251 . S
O438 Co425 2.264 1_556 S
O438 Co426 2.327 . S
O438 C447 1.257 . S
O439 Co426 2.073 . S
O439 C447 1.245 . S
C440 O448 1.259 . S
C440 O449 1.289 1_556 S
C441 O450 1.246 . S
C441 O451 1.258 . S
C442 O430 1.251 . S
C442 O431 1.274 . S
C443 O428 1.245 . S
C443 O429 1.257 . S
C444 O433 1.259 . S
C444 O434 1.289 . S
C445 O432 1.246 . S
C445 O435 1.257 . S
C446 O436 1.274 . S
C446 O437 1.251 . S
C447 O438 1.257 . S
C447 O439 1.245 . S
O448 Co419 2.286 1_556 S
O448 C440 1.259 . S
O449 Co419 2.069 . S
O449 C440 1.289 1_554 S
O450 Co421 2.143 1_556 S
O450 C441 1.246 . S
O451 Co419 2.014 1_556 S
O451 C441 1.258 . S
Co452 O455 2.042 . S
Co452 O462 2.264 . S
Co452 O481 2.286 . S
Co452 O482 2.069 . S
Co452 O484 2.015 . S
Co453 O455 2.122 . S
Co453 O461 2.073 . S
Co453 O462 2.327 . S
Co453 O463 1.976 . S
Co454 O455 2.087 . S
Co454 O457 2.087 . S
Co454 O464 2.111 . S
Co454 O465 2.143 1_455 S
Co454 O469 2.111 . S
Co454 O483 2.143 . S
O455 Co452 2.042 . S
O455 Co453 2.122 . S
O455 Co454 2.087 . S
O455 H456 0.980 . S
H456 O455 0.980 . S
O457 Co454 2.087 . S
O457 Co458 2.042 1_455 S
O457 Co459 2.122 1_455 S
O457 H460 0.980 . S
Co458 O457 2.042 1_655 S
Co458 O466 2.286 . S
Co458 O467 2.069 . S
Co458 O468 2.015 . S
Co458 O471 2.264 . S
Co459 O457 2.122 1_655 S
Co459 O470 1.976 . S
Co459 O471 2.327 . S
Co459 O472 2.073 . S
H460 O457 0.980 . S
O461 Co453 2.073 . S
O461 C476 1.245 . S
O462 Co452 2.264 . S
O462 Co453 2.327 . S
O462 C476 1.257 . S
O463 Co453 1.976 . S
O463 C475 1.251 . S
O464 Co454 2.111 . S
O464 C475 1.274 . S
O465 Co454 2.143 1_655 S
O465 C478 1.246 . S
O466 Co458 2.286 . S
O466 C477 1.259 . S
O467 Co458 2.069 . S
O467 C477 1.289 . S
O468 Co458 2.015 . S
O468 C478 1.257 . S
O469 Co454 2.111 . S
O469 C479 1.274 1_455 S
O470 Co459 1.976 . S
O470 C479 1.251 . S
O471 Co458 2.264 . S
O471 Co459 2.327 . S
O471 C480 1.257 . S
O472 Co459 2.073 . S
O472 C480 1.245 . S
C473 O481 1.259 . S
C473 O482 1.289 . S
C474 O483 1.246 . S
C474 O484 1.257 . S
C475 O463 1.251 . S
C475 O464 1.274 . S
C476 O461 1.245 . S
C476 O462 1.257 . S
C477 O466 1.259 . S
C477 O467 1.289 . S
C478 O465 1.246 . S
C478 O468 1.257 . S
C479 O469 1.274 1_655 S
C479 O470 1.251 . S
C480 O471 1.257 . S
C480 O472 1.245 . S
O481 Co452 2.286 . S
O481 C473 1.259 . S
O482 Co452 2.069 . S
O482 C473 1.289 . S
O483 Co454 2.143 . S
O483 C474 1.246 . S
O484 Co452 2.015 . S
O484 C474 1.257 . S
Co485 O488 2.042 . S
Co485 O495 2.264 . S
Co485 O514 2.286 . S
Co485 O515 2.069 . S
Co485 O517 2.015 1_565 S
Co486 O488 2.122 . S
Co486 O494 2.073 . S
Co486 O495 2.327 . S
Co486 O496 1.976 1_565 S
Co487 O488 2.087 1_545 S
Co487 O490 2.087 . S
Co487 O497 2.111 . S
Co487 O498 2.143 1_545 S
Co487 O502 2.111 1_545 S
Co487 O516 2.143 . S
O488 Co485 2.042 . S
O488 Co486 2.122 . S
O488 Co487 2.087 1_565 S
O488 H489 0.980 . S
H489 O488 0.980 . S
O490 Co487 2.087 . S
O490 Co491 2.042 . S
O490 Co492 2.122 . S
O490 H493 0.980 . S
Co491 O490 2.042 . S
Co491 O499 2.286 . S
Co491 O500 2.069 . S
Co491 O501 2.015 1_545 S
Co491 O504 2.264 . S
Co492 O490 2.122 . S
Co492 O503 1.976 1_545 S
Co492 O504 2.327 . S
Co492 O505 2.073 . S
H493 O490 0.980 . S
O494 Co486 2.073 . S
O494 C509 1.245 . S
O495 Co485 2.264 . S
O495 Co486 2.327 . S
O495 C509 1.257 . S
O496 Co486 1.976 1_545 S
O496 C508 1.251 . S
O497 Co487 2.111 . S
O497 C508 1.274 . S
O498 Co487 2.143 1_565 S
O498 C511 1.246 . S
O499 Co491 2.286 . S
O499 C510 1.259 . S
O500 Co491 2.069 . S
O500 C510 1.289 . S
O501 Co491 2.015 1_565 S
O501 C511 1.257 . S
O502 Co487 2.111 1_565 S
O502 C512 1.274 . S
O503 Co492 1.976 1_565 S
O503 C512 1.251 . S
O504 Co491 2.264 . S
O504 Co492 2.327 . S
O504 C513 1.257 . S
O505 Co492 2.073 . S
O505 C513 1.245 . S
C506 O514 1.259 . S
C506 O515 1.289 . S
C507 O516 1.246 . S
C507 O517 1.257 . S
C508 O496 1.251 . S
C508 O497 1.274 . S
C509 O494 1.245 . S
C509 O495 1.257 . S
C510 O499 1.259 . S
C510 O500 1.289 . S
C511 O498 1.246 . S
C511 O501 1.257 . S
C512 O502 1.274 . S
C512 O503 1.251 . S
C513 O504 1.257 . S
C513 O505 1.245 . S
O514 Co485 2.286 . S
O514 C506 1.259 . S
O515 Co485 2.069 . S
O515 C506 1.289 . S
O516 Co487 2.143 . S
O516 C507 1.246 . S
O517 Co485 2.015 1_545 S
O517 C507 1.257 . S
H518 C530 0.930 . S
H519 C532 0.930 . S
H520 C533 0.930 . S
H521 C537 0.959 . S
H522 C537 0.959 . S
H523 C537 0.961 . S
H524 C538 0.960 . S
H525 C538 0.961 . S
H526 C538 0.959 . S
H527 C541 0.929 . S
H528 C542 0.931 . S
H529 C544 0.930 . S
C530 H518 0.930 . S
C530 C531 1.399 . S
C530 C535 1.399 . S
C531 C530 1.399 . S
C531 C532 1.376 . S
C532 H519 0.930 . S
C532 C531 1.376 . S
C532 C533 1.388 . S
C533 H520 0.930 . S
C533 C532 1.388 . S
C533 C534 1.390 . S
C534 C533 1.390 . S
C534 C535 1.394 . S
C534 C540 1.465 . S
C535 C530 1.399 . S
C535 C534 1.394 . S
C535 C536 1.516 . S
C536 C535 1.516 . S
C536 C537 1.502 . S
C536 C538 1.561 . S
C536 C539 1.526 . S
C537 H521 0.959 . S
C537 H522 0.959 . S
C537 H523 0.961 . S
C537 C536 1.502 . S
C538 H524 0.960 . S
C538 H525 0.961 . S
C538 H526 0.959 . S
C538 C536 1.561 . S
C539 C536 1.526 . S
C539 C540 1.396 . S
C539 C544 1.390 . S
C540 C534 1.465 . S
C540 C539 1.396 . S
C540 C541 1.399 . S
C541 H527 0.929 . S
C541 C540 1.399 . S
C541 C542 1.385 . S
C542 H528 0.931 . S
C542 C541 1.385 . S
C542 C543 1.389 . S
C543 C542 1.389 . S
C543 C544 1.387 . S
C544 H529 0.930 . S
C544 C539 1.390 . S
C544 C543 1.387 . S
H545 C557 0.930 . S
H546 C559 0.930 . S
H547 C560 0.930 . S
H548 C564 0.959 . S
H549 C564 0.959 . S
H550 C564 0.961 . S
H551 C565 0.960 . S
H552 C565 0.961 . S
H553 C565 0.959 . S
H554 C568 0.929 . S
H555 C569 0.931 . S
H556 C571 0.930 . S
C557 H545 0.930 . S
C557 C558 1.399 . S
C557 C562 1.399 . S
C558 C557 1.399 . S
C558 C559 1.376 . S
C559 H546 0.930 . S
C559 C558 1.376 . S
C559 C560 1.388 . S
C560 H547 0.930 . S
C560 C559 1.388 . S
C560 C561 1.390 . S
C561 C560 1.390 . S
C561 C562 1.394 . S
C561 C567 1.465 . S
C562 C557 1.399 . S
C562 C561 1.394 . S
C562 C563 1.516 . S
C563 C562 1.516 . S
C563 C564 1.502 . S
C563 C565 1.561 . S
C563 C566 1.526 . S
C564 H548 0.959 . S
C564 H549 0.959 . S
C564 H550 0.961 . S
C564 C563 1.502 . S
C565 H551 0.960 . S
C565 H552 0.961 . S
C565 H553 0.959 . S
C565 C563 1.561 . S
C566 C563 1.526 . S
C566 C567 1.396 . S
C566 C571 1.390 . S
C567 C561 1.465 . S
C567 C566 1.396 . S
C567 C568 1.399 . S
C568 H554 0.929 . S
C568 C567 1.399 . S
C568 C569 1.385 . S
C569 H555 0.931 . S
C569 C568 1.385 . S
C569 C570 1.389 . S
C570 C569 1.389 . S
C570 C571 1.387 . S
C571 H556 0.930 . S
C571 C566 1.390 . S
C571 C570 1.387 . S
H572 C584 0.930 . S
H573 C586 0.930 . S
H574 C587 0.930 . S
H575 C591 0.959 . S
H576 C591 0.959 . S
H577 C591 0.961 . S
H578 C592 0.960 . S
H579 C592 0.961 . S
H580 C592 0.959 . S
H581 C595 0.929 . S
H582 C596 0.931 . S
H583 C598 0.930 . S
C584 H572 0.930 . S
C584 C585 1.399 . S
C584 C589 1.399 . S
C585 C584 1.399 . S
C585 C586 1.376 . S
C586 H573 0.930 . S
C586 C585 1.376 . S
C586 C587 1.388 . S
C587 H574 0.930 . S
C587 C586 1.388 . S
C587 C588 1.390 . S
C588 C587 1.390 . S
C588 C589 1.394 . S
C588 C594 1.465 . S
C589 C584 1.399 . S
C589 C588 1.394 . S
C589 C590 1.516 . S
C590 C589 1.516 . S
C590 C591 1.502 . S
C590 C592 1.561 . S
C590 C593 1.526 . S
C591 H575 0.959 . S
C591 H576 0.959 . S
C591 H577 0.961 . S
C591 C590 1.502 . S
C592 H578 0.960 . S
C592 H579 0.961 . S
C592 H580 0.959 . S
C592 C590 1.561 . S
C593 C590 1.526 . S
C593 C594 1.396 . S
C593 C598 1.390 . S
C594 C588 1.465 . S
C594 C593 1.396 . S
C594 C595 1.399 . S
C595 H581 0.929 . S
C595 C594 1.399 . S
C595 C596 1.385 . S
C596 H582 0.931 . S
C596 C595 1.385 . S
C596 C597 1.389 . S
C597 C596 1.389 . S
C597 C598 1.387 . S
C598 H583 0.930 . S
C598 C593 1.390 . S
C598 C597 1.387 . S
H599 C611 0.930 . S
H600 C613 0.930 . S
H601 C614 0.930 . S
H602 C618 0.959 . S
H603 C618 0.959 . S
H604 C618 0.961 . S
H605 C619 0.960 . S
H606 C619 0.961 . S
H607 C619 0.959 . S
H608 C622 0.929 . S
H609 C623 0.931 . S
H610 C625 0.930 . S
C611 H599 0.930 . S
C611 C612 1.399 . S
C611 C616 1.399 . S
C612 C611 1.399 . S
C612 C613 1.376 . S
C613 H600 0.930 . S
C613 C612 1.376 . S
C613 C614 1.388 . S
C614 H601 0.930 . S
C614 C613 1.388 . S
C614 C615 1.390 . S
C615 C614 1.390 . S
C615 C616 1.394 . S
C615 C621 1.465 . S
C616 C611 1.399 . S
C616 C615 1.394 . S
C616 C617 1.516 . S
C617 C616 1.516 . S
C617 C618 1.502 . S
C617 C619 1.561 . S
C617 C620 1.526 . S
C618 H602 0.959 . S
C618 H603 0.959 . S
C618 H604 0.961 . S
C618 C617 1.502 . S
C619 H605 0.960 . S
C619 H606 0.961 . S
C619 H607 0.959 . S
C619 C617 1.561 . S
C620 C617 1.526 . S
C620 C621 1.396 . S
C620 C625 1.390 . S
C621 C615 1.465 . S
C621 C620 1.396 . S
C621 C622 1.399 . S
C622 H608 0.929 . S
C622 C621 1.399 . S
C622 C623 1.385 . S
C623 H609 0.931 . S
C623 C622 1.385 . S
C623 C624 1.389 . S
C624 C623 1.389 . S
C624 C625 1.387 . S
C625 H610 0.930 . S
C625 C620 1.390 . S
C625 C624 1.387 . S
H626 C638 0.930 . S
H627 C640 0.930 . S
H628 C641 0.930 . S
H629 C645 0.959 . S
H630 C645 0.959 . S
H631 C645 0.961 . S
H632 C646 0.960 . S
H633 C646 0.961 . S
H634 C646 0.959 . S
H635 C649 0.929 . S
H636 C650 0.931 . S
H637 C652 0.930 . S
C638 H626 0.930 . S
C638 C639 1.399 . S
C638 C643 1.399 . S
C639 C638 1.399 . S
C639 C640 1.376 . S
C640 H627 0.930 . S
C640 C639 1.376 . S
C640 C641 1.388 . S
C641 H628 0.930 . S
C641 C640 1.388 . S
C641 C642 1.390 . S
C642 C641 1.390 . S
C642 C643 1.394 . S
C642 C648 1.465 . S
C643 C638 1.399 . S
C643 C642 1.394 . S
C643 C644 1.516 . S
C644 C643 1.516 . S
C644 C645 1.502 . S
C644 C646 1.561 . S
C644 C647 1.526 . S
C645 H629 0.959 . S
C645 H630 0.959 . S
C645 H631 0.961 . S
C645 C644 1.502 . S
C646 H632 0.960 . S
C646 H633 0.961 . S
C646 H634 0.959 . S
C646 C644 1.561 . S
C647 C644 1.526 . S
C647 C648 1.396 . S
C647 C652 1.390 . S
C648 C642 1.465 . S
C648 C647 1.396 . S
C648 C649 1.399 . S
C649 H635 0.929 . S
C649 C648 1.399 . S
C649 C650 1.385 . S
C650 H636 0.931 . S
C650 C649 1.385 . S
C650 C651 1.389 . S
C651 C650 1.389 . S
C651 C652 1.387 . S
C652 H637 0.930 . S
C652 C647 1.390 . S
C652 C651 1.387 . S
H653 C665 0.930 . S
H654 C667 0.930 . S
H655 C668 0.930 . S
H656 C672 0.959 . S
H657 C672 0.959 . S
H658 C672 0.961 . S
H659 C673 0.960 . S
H660 C673 0.961 . S
H661 C673 0.959 . S
H662 C676 0.929 . S
H663 C677 0.931 . S
H664 C679 0.930 . S
C665 H653 0.930 . S
C665 C666 1.399 . S
C665 C670 1.399 . S
C666 C665 1.399 . S
C666 C667 1.376 . S
C667 H654 0.930 . S
C667 C666 1.376 . S
C667 C668 1.388 . S
C668 H655 0.930 . S
C668 C667 1.388 . S
C668 C669 1.390 . S
C669 C668 1.390 . S
C669 C670 1.394 . S
C669 C675 1.465 . S
C670 C665 1.399 . S
C670 C669 1.394 . S
C670 C671 1.516 . S
C671 C670 1.516 . S
C671 C672 1.502 . S
C671 C673 1.561 . S
C671 C674 1.526 . S
C672 H656 0.959 . S
C672 H657 0.959 . S
C672 H658 0.961 . S
C672 C671 1.502 . S
C673 H659 0.960 . S
C673 H660 0.961 . S
C673 H661 0.959 . S
C673 C671 1.561 . S
C674 C671 1.526 . S
C674 C675 1.396 . S
C674 C679 1.390 . S
C675 C669 1.465 . S
C675 C674 1.396 . S
C675 C676 1.399 . S
C676 H662 0.929 . S
C676 C675 1.399 . S
C676 C677 1.385 . S
C677 H663 0.931 . S
C677 C676 1.385 . S
C677 C678 1.389 . S
C678 C677 1.389 . S
C678 C679 1.387 . S
C679 H664 0.930 . S
C679 C674 1.390 . S
C679 C678 1.387 . S
H680 C692 0.930 . S
H681 C694 0.930 . S
H682 C695 0.930 . S
H683 C699 0.959 . S
H684 C699 0.959 . S
H685 C699 0.961 . S
H686 C700 0.960 . S
H687 C700 0.961 . S
H688 C700 0.959 . S
H689 C703 0.929 . S
H690 C704 0.931 . S
H691 C706 0.930 . S
C692 H680 0.930 . S
C692 C693 1.399 . S
C692 C697 1.399 . S
C693 C692 1.399 . S
C693 C694 1.376 . S
C694 H681 0.930 . S
C694 C693 1.376 . S
C694 C695 1.388 . S
C695 H682 0.930 . S
C695 C694 1.388 . S
C695 C696 1.390 . S
C696 C695 1.390 . S
C696 C697 1.394 . S
C696 C702 1.465 . S
C697 C692 1.399 . S
C697 C696 1.394 . S
C697 C698 1.516 . S
C698 C697 1.516 . S
C698 C699 1.502 . S
C698 C700 1.561 . S
C698 C701 1.526 . S
C699 H683 0.959 . S
C699 H684 0.959 . S
C699 H685 0.961 . S
C699 C698 1.502 . S
C700 H686 0.960 . S
C700 H687 0.961 . S
C700 H688 0.959 . S
C700 C698 1.561 . S
C701 C698 1.526 . S
C701 C702 1.396 . S
C701 C706 1.390 . S
C702 C696 1.465 . S
C702 C701 1.396 . S
C702 C703 1.399 . S
C703 H689 0.929 . S
C703 C702 1.399 . S
C703 C704 1.385 . S
C704 H690 0.931 . S
C704 C703 1.385 . S
C704 C705 1.389 . S
C705 C704 1.389 . S
C705 C706 1.387 . S
C706 H691 0.930 . S
C706 C701 1.390 . S
C706 C705 1.387 . S
H707 C719 0.930 . S
H708 C721 0.930 . S
H709 C722 0.930 . S
H710 C726 0.959 . S
H711 C726 0.959 . S
H712 C726 0.961 . S
H713 C727 0.960 . S
H714 C727 0.961 . S
H715 C727 0.959 . S
H716 C730 0.929 . S
H717 C731 0.931 . S
H718 C733 0.930 . S
C719 H707 0.930 . S
C719 C720 1.399 . S
C719 C724 1.399 . S
C720 C719 1.399 . S
C720 C721 1.376 . S
C721 H708 0.930 . S
C721 C720 1.376 . S
C721 C722 1.388 . S
C722 H709 0.930 . S
C722 C721 1.388 . S
C722 C723 1.390 . S
C723 C722 1.390 . S
C723 C724 1.394 . S
C723 C729 1.465 . S
C724 C719 1.399 . S
C724 C723 1.394 . S
C724 C725 1.516 . S
C725 C724 1.516 . S
C725 C726 1.502 . S
C725 C727 1.561 . S
C725 C728 1.526 . S
C726 H710 0.959 . S
C726 H711 0.959 . S
C726 H712 0.961 . S
C726 C725 1.502 . S
C727 H713 0.960 . S
C727 H714 0.961 . S
C727 H715 0.959 . S
C727 C725 1.561 . S
C728 C725 1.526 . S
C728 C729 1.396 . S
C728 C733 1.390 . S
C729 C723 1.465 . S
C729 C728 1.396 . S
C729 C730 1.399 . S
C730 H716 0.929 . S
C730 C729 1.399 . S
C730 C731 1.385 . S
C731 H717 0.931 . S
C731 C730 1.385 . S
C731 C732 1.389 . S
C732 C731 1.389 . S
C732 C733 1.387 . S
C733 H718 0.930 . S
C733 C728 1.390 . S
C733 C732 1.387 . S
H734 C746 0.930 . S
H735 C748 0.930 . S
H736 C749 0.930 . S
H737 C753 0.959 . S
H738 C753 0.959 . S
H739 C753 0.961 . S
H740 C754 0.960 . S
H741 C754 0.961 . S
H742 C754 0.959 . S
H743 C757 0.929 . S
H744 C758 0.931 . S
H745 C760 0.930 . S
C746 H734 0.930 . S
C746 C747 1.399 . S
C746 C751 1.399 . S
C747 C746 1.399 . S
C747 C748 1.376 . S
C748 H735 0.930 . S
C748 C747 1.376 . S
C748 C749 1.388 . S
C749 H736 0.930 . S
C749 C748 1.388 . S
C749 C750 1.390 . S
C750 C749 1.390 . S
C750 C751 1.394 . S
C750 C756 1.465 . S
C751 C746 1.399 . S
C751 C750 1.394 . S
C751 C752 1.516 . S
C752 C751 1.516 . S
C752 C753 1.502 . S
C752 C754 1.561 . S
C752 C755 1.526 . S
C753 H737 0.959 . S
C753 H738 0.959 . S
C753 H739 0.961 . S
C753 C752 1.502 . S
C754 H740 0.960 . S
C754 H741 0.961 . S
C754 H742 0.959 . S
C754 C752 1.561 . S
C755 C752 1.526 . S
C755 C756 1.396 . S
C755 C760 1.390 . S
C756 C750 1.465 . S
C756 C755 1.396 . S
C756 C757 1.399 . S
C757 H743 0.929 . S
C757 C756 1.399 . S
C757 C758 1.385 . S
C758 H744 0.931 . S
C758 C757 1.385 . S
C758 C759 1.389 . S
C759 C758 1.389 . S
C759 C760 1.387 . S
C760 H745 0.930 . S
C760 C755 1.390 . S
C760 C759 1.387 . S
H761 C773 0.930 . S
H762 C775 0.930 . S
H763 C776 0.930 . S
H764 C780 0.959 . S
H765 C780 0.959 . S
H766 C780 0.961 . S
H767 C781 0.960 . S
H768 C781 0.961 . S
H769 C781 0.959 . S
H770 C784 0.929 . S
H771 C785 0.931 . S
H772 C787 0.930 . S
C773 H761 0.930 . S
C773 C774 1.399 . S
C773 C778 1.399 . S
C774 C773 1.399 . S
C774 C775 1.376 . S
C775 H762 0.930 . S
C775 C774 1.376 . S
C775 C776 1.388 . S
C776 H763 0.930 . S
C776 C775 1.388 . S
C776 C777 1.390 . S
C777 C776 1.390 . S
C777 C778 1.394 . S
C777 C783 1.465 . S
C778 C773 1.399 . S
C778 C777 1.394 . S
C778 C779 1.516 . S
C779 C778 1.516 . S
C779 C780 1.502 . S
C779 C781 1.561 . S
C779 C782 1.526 . S
C780 H764 0.959 . S
C780 H765 0.959 . S
C780 H766 0.961 . S
C780 C779 1.502 . S
C781 H767 0.960 . S
C781 H768 0.961 . S
C781 H769 0.959 . S
C781 C779 1.561 . S
C782 C779 1.526 . S
C782 C783 1.396 . S
C782 C787 1.390 . S
C783 C777 1.465 . S
C783 C782 1.396 . S
C783 C784 1.399 . S
C784 H770 0.929 . S
C784 C783 1.399 . S
C784 C785 1.385 . S
C785 H771 0.931 . S
C785 C784 1.385 . S
C785 C786 1.389 . S
C786 C785 1.389 . S
C786 C787 1.387 . S
C787 H772 0.930 . S
C787 C782 1.390 . S
C787 C786 1.387 . S
H788 C800 0.930 . S
H789 C802 0.930 . S
H790 C803 0.930 . S
H791 C807 0.959 . S
H792 C807 0.959 . S
H793 C807 0.961 . S
H794 C808 0.960 . S
H795 C808 0.961 . S
H796 C808 0.959 . S
H797 C811 0.929 . S
H798 C812 0.931 . S
H799 C814 0.930 . S
C800 H788 0.930 . S
C800 C801 1.399 . S
C800 C805 1.399 . S
C801 C800 1.399 . S
C801 C802 1.376 . S
C802 H789 0.930 . S
C802 C801 1.376 . S
C802 C803 1.388 . S
C803 H790 0.930 . S
C803 C802 1.388 . S
C803 C804 1.390 . S
C804 C803 1.390 . S
C804 C805 1.394 . S
C804 C810 1.465 . S
C805 C800 1.399 . S
C805 C804 1.394 . S
C805 C806 1.516 . S
C806 C805 1.516 . S
C806 C807 1.502 . S
C806 C808 1.561 . S
C806 C809 1.526 . S
C807 H791 0.959 . S
C807 H792 0.959 . S
C807 H793 0.961 . S
C807 C806 1.502 . S
C808 H794 0.960 . S
C808 H795 0.961 . S
C808 H796 0.959 . S
C808 C806 1.561 . S
C809 C806 1.526 . S
C809 C810 1.396 . S
C809 C814 1.390 . S
C810 C804 1.465 . S
C810 C809 1.396 . S
C810 C811 1.399 . S
C811 H797 0.929 . S
C811 C810 1.399 . S
C811 C812 1.385 . S
C812 H798 0.931 . S
C812 C811 1.385 . S
C812 C813 1.389 . S
C813 C812 1.389 . S
C813 C814 1.387 . S
C814 H799 0.930 . S
C814 C809 1.390 . S
C814 C813 1.387 . S
H815 C827 0.930 . S
H816 C829 0.930 . S
H817 C830 0.930 . S
H818 C834 0.959 . S
H819 C834 0.959 . S
H820 C834 0.961 . S
H821 C835 0.960 . S
H822 C835 0.961 . S
H823 C835 0.959 . S
H824 C838 0.929 . S
H825 C839 0.931 . S
H826 C841 0.930 . S
C827 H815 0.930 . S
C827 C828 1.399 . S
C827 C832 1.399 . S
C828 C827 1.399 . S
C828 C829 1.376 . S
C829 H816 0.930 . S
C829 C828 1.376 . S
C829 C830 1.388 . S
C830 H817 0.930 . S
C830 C829 1.388 . S
C830 C831 1.390 . S
C831 C830 1.390 . S
C831 C832 1.394 . S
C831 C837 1.465 . S
C832 C827 1.399 . S
C832 C831 1.394 . S
C832 C833 1.516 . S
C833 C832 1.516 . S
C833 C834 1.502 . S
C833 C835 1.561 . S
C833 C836 1.526 . S
C834 H818 0.959 . S
C834 H819 0.959 . S
C834 H820 0.961 . S
C834 C833 1.502 . S
C835 H821 0.960 . S
C835 H822 0.961 . S
C835 H823 0.959 . S
C835 C833 1.561 . S
C836 C833 1.526 . S
C836 C837 1.396 . S
C836 C841 1.390 . S
C837 C831 1.465 . S
C837 C836 1.396 . S
C837 C838 1.399 . S
C838 H824 0.929 . S
C838 C837 1.399 . S
C838 C839 1.385 . S
C839 H825 0.931 . S
C839 C838 1.385 . S
C839 C840 1.389 . S
C840 C839 1.389 . S
C840 C841 1.387 . S
C841 H826 0.930 . S
C841 C836 1.390 . S
C841 C840 1.387 . S
H842 C854 0.930 . S
H843 C856 0.930 . S
H844 C857 0.930 . S
H845 C861 0.959 . S
H846 C861 0.959 . S
H847 C861 0.961 . S
H848 C862 0.960 . S
H849 C862 0.961 . S
H850 C862 0.959 . S
H851 C865 0.929 1_554 S
H852 C866 0.931 . S
H853 C868 0.930 . S
C854 H842 0.930 . S
C854 C855 1.399 . S
C854 C859 1.399 . S
C855 C854 1.399 . S
C855 C856 1.376 . S
C856 H843 0.930 . S
C856 C855 1.376 . S
C856 C857 1.388 . S
C857 H844 0.930 . S
C857 C856 1.388 . S
C857 C858 1.390 . S
C858 C857 1.390 . S
C858 C859 1.394 . S
C858 C864 1.465 . S
C859 C854 1.399 . S
C859 C858 1.394 . S
C859 C860 1.516 . S
C860 C859 1.516 . S
C860 C861 1.502 . S
C860 C862 1.561 . S
C860 C863 1.526 . S
C861 H845 0.959 . S
C861 H846 0.959 . S
C861 H847 0.961 . S
C861 C860 1.502 . S
C862 H848 0.960 . S
C862 H849 0.961 . S
C862 H850 0.959 . S
C862 C860 1.561 . S
C863 C860 1.526 . S
C863 C864 1.396 . S
C863 C868 1.390 . S
C864 C858 1.465 . S
C864 C863 1.396 . S
C864 C865 1.399 . S
C865 H851 0.929 1_556 S
C865 C864 1.399 . S
C865 C866 1.385 1_556 S
C866 H852 0.931 . S
C866 C865 1.385 1_554 S
C866 C867 1.389 1_554 S
C867 C866 1.389 1_556 S
C867 C868 1.387 . S
C868 H853 0.930 . S
C868 C863 1.390 . S
C868 C867 1.387 . S
H869 C881 0.930 . S
H870 C883 0.930 . S
H871 C884 0.930 . S
H872 C888 0.959 . S
H873 C888 0.959 . S
H874 C888 0.961 . S
H875 C889 0.960 . S
H876 C889 0.961 . S
H877 C889 0.959 . S
H878 C892 0.929 . S
H879 C893 0.931 . S
H880 C895 0.930 . S
C881 H869 0.930 . S
C881 C882 1.399 . S
C881 C886 1.399 . S
C882 C881 1.399 . S
C882 C883 1.376 . S
C883 H870 0.930 . S
C883 C882 1.376 . S
C883 C884 1.388 . S
C884 H871 0.930 . S
C884 C883 1.388 . S
C884 C885 1.390 . S
C885 C884 1.390 . S
C885 C886 1.394 . S
C885 C891 1.465 . S
C886 C881 1.399 . S
C886 C885 1.394 . S
C886 C887 1.516 . S
C887 C886 1.516 . S
C887 C888 1.502 . S
C887 C889 1.561 1_556 S
C887 C890 1.526 . S
C888 H872 0.959 . S
C888 H873 0.959 . S
C888 H874 0.961 . S
C888 C887 1.502 . S
C889 H875 0.960 . S
C889 H876 0.961 . S
C889 H877 0.959 . S
C889 C887 1.561 1_554 S
C890 C887 1.526 . S
C890 C891 1.396 . S
C890 C895 1.390 . S
C891 C885 1.465 . S
C891 C890 1.396 . S
C891 C892 1.399 . S
C892 H878 0.929 . S
C892 C891 1.399 . S
C892 C893 1.385 . S
C893 H879 0.931 . S
C893 C892 1.385 . S
C893 C894 1.389 . S
C894 C893 1.389 . S
C894 C895 1.387 . S
C895 H880 0.930 . S
C895 C890 1.390 . S
C895 C894 1.387 . S
H896 C908 0.930 . S
H897 C910 0.930 . S
H898 C911 0.930 . S
H899 C915 0.959 1_556 S
H900 C915 0.959 . S
H901 C915 0.961 . S
H902 C916 0.960 . S
H903 C916 0.961 . S
H904 C916 0.959 . S
H905 C919 0.929 . S
H906 C920 0.931 . S
H907 C922 0.930 . S
C908 H896 0.930 . S
C908 C909 1.399 . S
C908 C913 1.399 . S
C909 C908 1.399 . S
C909 C910 1.376 . S
C910 H897 0.930 . S
C910 C909 1.376 . S
C910 C911 1.388 . S
C911 H898 0.930 . S
C911 C910 1.388 . S
C911 C912 1.390 . S
C912 C911 1.390 . S
C912 C913 1.394 . S
C912 C918 1.465 . S
C913 C908 1.399 . S
C913 C912 1.394 . S
C913 C914 1.516 . S
C914 C913 1.516 . S
C914 C915 1.502 1_556 S
C914 C916 1.561 1_556 S
C914 C917 1.526 . S
C915 H899 0.959 1_554 S
C915 H900 0.959 . S
C915 H901 0.961 . S
C915 C914 1.502 1_554 S
C916 H902 0.960 . S
C916 H903 0.961 . S
C916 H904 0.959 . S
C916 C914 1.561 1_554 S
C917 C914 1.526 . S
C917 C918 1.396 . S
C917 C922 1.390 1_556 S
C918 C912 1.465 . S
C918 C917 1.396 . S
C918 C919 1.399 . S
C919 H905 0.929 . S
C919 C918 1.399 . S
C919 C920 1.385 . S
C920 H906 0.931 . S
C920 C919 1.385 . S
C920 C921 1.389 . S
C921 C920 1.389 . S
C921 C922 1.387 1_556 S
C922 H907 0.930 . S
C922 C917 1.390 1_554 S
C922 C921 1.387 1_554 S
H923 C935 0.930 . S
H924 C937 0.930 . S
H925 C938 0.930 . S
H926 C942 0.959 . S
H927 C942 0.959 . S
H928 C942 0.961 . S
H929 C943 0.960 . S
H930 C943 0.961 . S
H931 C943 0.959 . S
H932 C946 0.929 . S
H933 C947 0.931 . S
H934 C949 0.930 . S
C935 H923 0.930 . S
C935 C936 1.399 . S
C935 C940 1.399 . S
C936 C935 1.399 . S
C936 C937 1.376 . S
C937 H924 0.930 . S
C937 C936 1.376 . S
C937 C938 1.388 . S
C938 H925 0.930 . S
C938 C937 1.388 . S
C938 C939 1.390 . S
C939 C938 1.390 . S
C939 C940 1.394 . S
C939 C945 1.465 . S
C940 C935 1.399 . S
C940 C939 1.394 . S
C940 C941 1.516 . S
C941 C940 1.516 . S
C941 C942 1.502 . S
C941 C943 1.561 . S
C941 C944 1.526 . S
C942 H926 0.959 . S
C942 H927 0.959 . S
C942 H928 0.961 . S
C942 C941 1.502 . S
C943 H929 0.960 . S
C943 H930 0.961 . S
C943 H931 0.959 . S
C943 C941 1.561 . S
C944 C941 1.526 . S
C944 C945 1.396 . S
C944 C949 1.390 . S
C945 C939 1.465 . S
C945 C944 1.396 . S
C945 C946 1.399 . S
C946 H932 0.929 . S
C946 C945 1.399 . S
C946 C947 1.385 . S
C947 H933 0.931 . S
C947 C946 1.385 . S
C947 C948 1.389 . S
C948 C947 1.389 . S
C948 C949 1.387 . S
C949 H934 0.930 . S
C949 C944 1.390 . S
C949 C948 1.387 . S
H950 C962 0.930 . S
H951 C964 0.930 . S
H952 C965 0.930 . S
H953 C969 0.959 . S
H954 C969 0.959 . S
H955 C969 0.961 . S
H956 C970 0.960 . S
H957 C970 0.961 . S
H958 C970 0.959 . S
H959 C973 0.929 . S
H960 C974 0.931 1_556 S
H961 C976 0.930 . S
C962 H950 0.930 . S
C962 C963 1.399 . S
C962 C967 1.399 . S
C963 C962 1.399 . S
C963 C964 1.376 . S
C964 H951 0.930 . S
C964 C963 1.376 . S
C964 C965 1.388 . S
C965 H952 0.930 . S
C965 C964 1.388 . S
C965 C966 1.390 . S
C966 C965 1.390 . S
C966 C967 1.394 . S
C966 C972 1.465 . S
C967 C962 1.399 . S
C967 C966 1.394 . S
C967 C968 1.516 . S
C968 C967 1.516 . S
C968 C969 1.502 . S
C968 C970 1.561 . S
C968 C971 1.526 . S
C969 H953 0.959 . S
C969 H954 0.959 . S
C969 H955 0.961 . S
C969 C968 1.502 . S
C970 H956 0.960 . S
C970 H957 0.961 . S
C970 H958 0.959 . S
C970 C968 1.561 . S
C971 C968 1.526 . S
C971 C972 1.396 . S
C971 C976 1.390 . S
C972 C966 1.465 . S
C972 C971 1.396 . S
C972 C973 1.399 . S
C973 H959 0.929 . S
C973 C972 1.399 . S
C973 C974 1.385 . S
C974 H960 0.931 1_554 S
C974 C973 1.385 . S
C974 C975 1.389 . S
C975 C974 1.389 . S
C975 C976 1.387 . S
C976 H961 0.930 . S
C976 C971 1.390 . S
C976 C975 1.387 . S
H977 C989 0.930 . S
H978 C991 0.930 . S
H979 C992 0.930 . S
H980 C996 0.959 . S
H981 C996 0.959 . S
H982 C996 0.961 . S
H983 C997 0.960 . S
H984 C997 0.961 . S
H985 C997 0.959 . S
H986 C1000 0.929 . S
H987 C1001 0.931 . S
H988 C1003 0.930 . S
C989 H977 0.930 . S
C989 C990 1.399 . S
C989 C994 1.399 . S
C990 C989 1.399 . S
C990 C991 1.376 . S
C991 H978 0.930 . S
C991 C990 1.376 . S
C991 C992 1.388 . S
C992 H979 0.930 . S
C992 C991 1.388 . S
C992 C993 1.390 . S
C993 C992 1.390 . S
C993 C994 1.394 . S
C993 C999 1.465 . S
C994 C989 1.399 . S
C994 C993 1.394 . S
C994 C995 1.516 . S
C995 C994 1.516 . S
C995 C996 1.502 . S
C995 C997 1.561 . S
C995 C998 1.526 . S
C996 H980 0.959 . S
C996 H981 0.959 . S
C996 H982 0.961 . S
C996 C995 1.502 . S
C997 H983 0.960 . S
C997 H984 0.961 . S
C997 H985 0.959 . S
C997 C995 1.561 . S
C998 C995 1.526 . S
C998 C999 1.396 . S
C998 C1003 1.390 . S
C999 C993 1.465 . S
C999 C998 1.396 . S
C999 C1000 1.399 . S
C1000 H986 0.929 . S
C1000 C999 1.399 . S
C1000 C1001 1.385 . S
C1001 H987 0.931 . S
C1001 C1000 1.385 . S
C1001 C1002 1.389 . S
C1002 C1001 1.389 . S
C1002 C1003 1.387 . S
C1003 H988 0.930 . S
C1003 C998 1.390 . S
C1003 C1002 1.387 . S
H1004 C1016 0.930 . S
H1005 C1018 0.930 . S
H1006 C1019 0.930 . S
H1007 C1023 0.959 . S
H1008 C1023 0.959 1_554 S
H1009 C1023 0.961 . S
H1010 C1024 0.960 . S
H1011 C1024 0.961 . S
H1012 C1024 0.959 . S
H1013 C1027 0.929 . S
H1014 C1028 0.931 . S
H1015 C1030 0.930 1_554 S
C1016 H1004 0.930 . S
C1016 C1017 1.399 . S
C1016 C1021 1.399 . S
C1017 C1016 1.399 . S
C1017 C1018 1.376 . S
C1018 H1005 0.930 . S
C1018 C1017 1.376 . S
C1018 C1019 1.388 . S
C1019 H1006 0.930 . S
C1019 C1018 1.388 . S
C1019 C1020 1.390 . S
C1020 C1019 1.390 . S
C1020 C1021 1.394 . S
C1020 C1026 1.465 . S
C1021 C1016 1.399 . S
C1021 C1020 1.394 . S
C1021 C1022 1.516 . S
C1022 C1021 1.516 . S
C1022 C1023 1.502 . S
C1022 C1024 1.561 . S
C1022 C1025 1.526 . S
C1023 H1007 0.959 . S
C1023 H1008 0.959 1_556 S
C1023 H1009 0.961 . S
C1023 C1022 1.502 . S
C1024 H1010 0.960 . S
C1024 H1011 0.961 . S
C1024 H1012 0.959 . S
C1024 C1022 1.561 . S
C1025 C1022 1.526 . S
C1025 C1026 1.396 . S
C1025 C1030 1.390 . S
C1026 C1020 1.465 . S
C1026 C1025 1.396 . S
C1026 C1027 1.399 . S
C1027 H1013 0.929 . S
C1027 C1026 1.399 . S
C1027 C1028 1.385 . S
C1028 H1014 0.931 . S
C1028 C1027 1.385 . S
C1028 C1029 1.389 . S
C1029 C1028 1.389 . S
C1029 C1030 1.387 . S
C1030 H1015 0.930 1_556 S
C1030 C1025 1.390 . S
C1030 C1029 1.387 . S
H1031 C1043 0.930 . S
H1032 C1045 0.930 . S
H1033 C1046 0.930 . S
H1034 C1050 0.959 . S
H1035 C1050 0.959 . S
H1036 C1050 0.961 . S
H1037 C1051 0.960 . S
H1038 C1051 0.961 1_554 S
H1039 C1051 0.960 . S
H1040 C1054 0.929 . S
H1041 C1055 0.931 . S
H1042 C1057 0.930 . S
C1043 H1031 0.930 . S
C1043 C1044 1.399 . S
C1043 C1048 1.399 . S
C1044 C1043 1.399 . S
C1044 C1045 1.376 . S
C1045 H1032 0.930 . S
C1045 C1044 1.376 . S
C1045 C1046 1.388 . S
C1046 H1033 0.930 . S
C1046 C1045 1.388 . S
C1046 C1047 1.390 . S
C1047 C1046 1.390 . S
C1047 C1048 1.394 . S
C1047 C1053 1.465 . S
C1048 C1043 1.399 . S
C1048 C1047 1.394 . S
C1048 C1049 1.516 . S
C1049 C1048 1.516 . S
C1049 C1050 1.502 . S
C1049 C1051 1.561 . S
C1049 C1052 1.526 . S
C1050 H1034 0.959 . S
C1050 H1035 0.959 . S
C1050 H1036 0.961 . S
C1050 C1049 1.502 . S
C1051 H1037 0.960 . S
C1051 H1038 0.961 1_556 S
C1051 H1039 0.960 . S
C1051 C1049 1.561 . S
C1052 C1049 1.526 . S
C1052 C1053 1.396 . S
C1052 C1057 1.390 . S
C1053 C1047 1.465 . S
C1053 C1052 1.396 . S
C1053 C1054 1.399 . S
C1054 H1040 0.929 . S
C1054 C1053 1.399 . S
C1054 C1055 1.385 . S
C1055 H1041 0.931 . S
C1055 C1054 1.385 . S
C1055 C1056 1.389 . S
C1056 C1055 1.389 . S
C1056 C1057 1.387 . S
C1057 H1042 0.930 . S
C1057 C1052 1.390 . S
C1057 C1056 1.387 . S
H1058 C1070 0.930 . S
H1059 C1072 0.930 . S
H1060 C1073 0.930 1_554 S
H1061 C1077 0.959 . S
H1062 C1077 0.959 . S
H1063 C1077 0.961 . S
H1064 C1078 0.960 . S
H1065 C1078 0.961 . S
H1066 C1078 0.959 . S
H1067 C1081 0.929 . S
H1068 C1082 0.931 . S
H1069 C1084 0.930 . S
C1070 H1058 0.930 . S
C1070 C1071 1.399 . S
C1070 C1075 1.399 . S
C1071 C1070 1.399 . S
C1071 C1072 1.376 . S
C1072 H1059 0.930 . S
C1072 C1071 1.376 . S
C1072 C1073 1.388 . S
C1073 H1060 0.930 1_556 S
C1073 C1072 1.388 . S
C1073 C1074 1.390 . S
C1074 C1073 1.390 . S
C1074 C1075 1.394 . S
C1074 C1080 1.465 . S
C1075 C1070 1.399 . S
C1075 C1074 1.394 . S
C1075 C1076 1.516 . S
C1076 C1075 1.516 . S
C1076 C1077 1.502 . S
C1076 C1078 1.561 . S
C1076 C1079 1.526 . S
C1077 H1061 0.959 . S
C1077 H1062 0.959 . S
C1077 H1063 0.961 . S
C1077 C1076 1.502 . S
C1078 H1064 0.960 . S
C1078 H1065 0.961 . S
C1078 H1066 0.959 . S
C1078 C1076 1.561 . S
C1079 C1076 1.526 . S
C1079 C1080 1.396 . S
C1079 C1084 1.390 . S
C1080 C1074 1.465 . S
C1080 C1079 1.396 . S
C1080 C1081 1.399 1_556 S
C1081 H1067 0.929 . S
C1081 C1080 1.399 1_554 S
C1081 C1082 1.385 . S
C1082 H1068 0.931 . S
C1082 C1081 1.385 . S
C1082 C1083 1.389 1_554 S
C1083 C1082 1.389 1_556 S
C1083 C1084 1.387 . S
C1084 H1069 0.930 . S
C1084 C1079 1.390 . S
C1084 C1083 1.387 . S
H1085 C1097 0.930 . S
H1086 C1099 0.930 . S
H1087 C1100 0.930 . S
H1088 C1104 0.959 . S
H1089 C1104 0.959 . S
H1090 C1104 0.961 . S
H1091 C1105 0.960 . S
H1092 C1105 0.961 . S
H1093 C1105 0.959 . S
H1094 C1108 0.929 . S
H1095 C1109 0.931 . S
H1096 C1111 0.930 . S
C1097 H1085 0.930 . S
C1097 C1098 1.399 . S
C1097 C1102 1.399 . S
C1098 C1097 1.399 . S
C1098 C1099 1.376 . S
C1099 H1086 0.930 . S
C1099 C1098 1.376 . S
C1099 C1100 1.388 . S
C1100 H1087 0.930 . S
C1100 C1099 1.388 . S
C1100 C1101 1.390 . S
C1101 C1100 1.390 . S
C1101 C1102 1.394 . S
C1101 C1107 1.465 . S
C1102 C1097 1.399 . S
C1102 C1101 1.394 . S
C1102 C1103 1.516 . S
C1103 C1102 1.516 . S
C1103 C1104 1.502 . S
C1103 C1105 1.561 . S
C1103 C1106 1.526 . S
C1104 H1088 0.959 . S
C1104 H1089 0.959 . S
C1104 H1090 0.961 . S
C1104 C1103 1.502 . S
C1105 H1091 0.960 . S
C1105 H1092 0.961 . S
C1105 H1093 0.959 . S
C1105 C1103 1.561 . S
C1106 C1103 1.526 . S
C1106 C1107 1.396 . S
C1106 C1111 1.390 . S
C1107 C1101 1.465 . S
C1107 C1106 1.396 . S
C1107 C1108 1.399 . S
C1108 H1094 0.929 . S
C1108 C1107 1.399 . S
C1108 C1109 1.385 . S
C1109 H1095 0.931 . S
C1109 C1108 1.385 . S
C1109 C1110 1.389 . S
C1110 C1109 1.389 . S
C1110 C1111 1.387 . S
C1111 H1096 0.930 . S
C1111 C1106 1.390 . S
C1111 C1110 1.387 . S
H1112 C1124 0.930 . S
H1113 C1126 0.930 . S
H1114 C1127 0.930 . S
H1115 C1131 0.959 . S
H1116 C1131 0.959 . S
H1117 C1131 0.961 . S
H1118 C1132 0.960 . S
H1119 C1132 0.961 . S
H1120 C1132 0.959 . S
H1121 C1135 0.929 . S
H1122 C1136 0.931 . S
H1123 C1138 0.930 . S
C1124 H1112 0.930 . S
C1124 C1125 1.399 . S
C1124 C1129 1.399 . S
C1125 C1124 1.399 . S
C1125 C1126 1.376 . S
C1126 H1113 0.930 . S
C1126 C1125 1.376 . S
C1126 C1127 1.388 . S
C1127 H1114 0.930 . S
C1127 C1126 1.388 . S
C1127 C1128 1.390 . S
C1128 C1127 1.390 . S
C1128 C1129 1.394 . S
C1128 C1134 1.465 . S
C1129 C1124 1.399 . S
C1129 C1128 1.394 . S
C1129 C1130 1.516 . S
C1130 C1129 1.516 . S
C1130 C1131 1.502 . S
C1130 C1132 1.561 . S
C1130 C1133 1.526 . S
C1131 H1115 0.959 . S
C1131 H1116 0.959 . S
C1131 H1117 0.961 . S
C1131 C1130 1.502 . S
C1132 H1118 0.960 . S
C1132 H1119 0.961 . S
C1132 H1120 0.959 . S
C1132 C1130 1.561 . S
C1133 C1130 1.526 . S
C1133 C1134 1.396 . S
C1133 C1138 1.390 . S
C1134 C1128 1.465 . S
C1134 C1133 1.396 . S
C1134 C1135 1.399 . S
C1135 H1121 0.929 . S
C1135 C1134 1.399 . S
C1135 C1136 1.385 . S
C1136 H1122 0.931 . S
C1136 C1135 1.385 . S
C1136 C1137 1.389 . S
C1137 C1136 1.389 . S
C1137 C1138 1.387 . S
C1138 H1123 0.930 . S
C1138 C1133 1.390 . S
C1138 C1137 1.387 . S
H1139 C1151 0.930 . S
H1140 C1153 0.930 . S
H1141 C1154 0.930 . S
H1142 C1158 0.959 . S
H1143 C1158 0.959 . S
H1144 C1158 0.961 . S
H1145 C1159 0.960 . S
H1146 C1159 0.961 . S
H1147 C1159 0.959 . S
H1148 C1162 0.929 . S
H1149 C1163 0.931 . S
H1150 C1165 0.930 . S
C1151 H1139 0.930 . S
C1151 C1152 1.399 . S
C1151 C1156 1.399 . S
C1152 C1151 1.399 . S
C1152 C1153 1.376 . S
C1153 H1140 0.930 . S
C1153 C1152 1.376 . S
C1153 C1154 1.388 . S
C1154 H1141 0.930 . S
C1154 C1153 1.388 . S
C1154 C1155 1.390 . S
C1155 C1154 1.390 . S
C1155 C1156 1.394 . S
C1155 C1161 1.465 . S
C1156 C1151 1.399 . S
C1156 C1155 1.394 . S
C1156 C1157 1.516 . S
C1157 C1156 1.516 . S
C1157 C1158 1.502 . S
C1157 C1159 1.561 . S
C1157 C1160 1.526 . S
C1158 H1142 0.959 . S
C1158 H1143 0.959 . S
C1158 H1144 0.961 . S
C1158 C1157 1.502 . S
C1159 H1145 0.960 . S
C1159 H1146 0.961 . S
C1159 H1147 0.959 . S
C1159 C1157 1.561 . S
C1160 C1157 1.526 . S
C1160 C1161 1.396 . S
C1160 C1165 1.390 . S
C1161 C1155 1.465 . S
C1161 C1160 1.396 . S
C1161 C1162 1.399 . S
C1162 H1148 0.929 . S
C1162 C1161 1.399 . S
C1162 C1163 1.385 . S
C1163 H1149 0.931 . S
C1163 C1162 1.385 . S
C1163 C1164 1.389 . S
C1164 C1163 1.389 . S
C1164 C1165 1.387 . S
C1165 H1150 0.930 . S
C1165 C1160 1.390 . S
C1165 C1164 1.387 . S
H1166 C1178 0.930 . S
H1167 C1180 0.930 . S
H1168 C1181 0.930 . S
H1169 C1185 0.959 . S
H1170 C1185 0.959 . S
H1171 C1185 0.961 . S
H1172 C1186 0.960 . S
H1173 C1186 0.961 . S
H1174 C1186 0.959 . S
H1175 C1189 0.929 . S
H1176 C1190 0.931 1_554 S
H1177 C1192 0.930 . S
C1178 H1166 0.930 . S
C1178 C1179 1.399 . S
C1178 C1183 1.399 . S
C1179 C1178 1.399 . S
C1179 C1180 1.376 . S
C1180 H1167 0.930 . S
C1180 C1179 1.376 . S
C1180 C1181 1.388 . S
C1181 H1168 0.930 . S
C1181 C1180 1.388 . S
C1181 C1182 1.390 . S
C1182 C1181 1.390 . S
C1182 C1183 1.394 . S
C1182 C1188 1.465 . S
C1183 C1178 1.399 . S
C1183 C1182 1.394 . S
C1183 C1184 1.516 . S
C1184 C1183 1.516 . S
C1184 C1185 1.502 . S
C1184 C1186 1.561 . S
C1184 C1187 1.526 . S
C1185 H1169 0.959 . S
C1185 H1170 0.959 . S
C1185 H1171 0.961 . S
C1185 C1184 1.502 . S
C1186 H1172 0.960 . S
C1186 H1173 0.961 . S
C1186 H1174 0.959 . S
C1186 C1184 1.561 . S
C1187 C1184 1.526 . S
C1187 C1188 1.396 . S
C1187 C1192 1.390 . S
C1188 C1182 1.465 . S
C1188 C1187 1.396 . S
C1188 C1189 1.399 . S
C1189 H1175 0.929 . S
C1189 C1188 1.399 . S
C1189 C1190 1.385 . S
C1190 H1176 0.931 1_556 S
C1190 C1189 1.385 . S
C1190 C1191 1.389 . S
C1191 C1190 1.389 . S
C1191 C1192 1.387 . S
C1192 H1177 0.930 . S
C1192 C1187 1.390 . S
C1192 C1191 1.387 . S
H1193 C1205 0.930 . S
H1194 C1207 0.930 . S
H1195 C1208 0.930 . S
H1196 C1212 0.959 . S
H1197 C1212 0.959 . S
H1198 C1212 0.961 . S
H1199 C1213 0.960 . S
H1200 C1213 0.961 . S
H1201 C1213 0.959 . S
H1202 C1216 0.929 . S
H1203 C1217 0.931 . S
H1204 C1219 0.930 1_554 S
C1205 H1193 0.930 . S
C1205 C1206 1.399 . S
C1205 C1210 1.399 . S
C1206 C1205 1.399 . S
C1206 C1207 1.376 . S
C1207 H1194 0.930 . S
C1207 C1206 1.376 . S
C1207 C1208 1.388 . S
C1208 H1195 0.930 . S
C1208 C1207 1.388 . S
C1208 C1209 1.390 . S
C1209 C1208 1.390 . S
C1209 C1210 1.394 . S
C1209 C1215 1.465 . S
C1210 C1205 1.399 . S
C1210 C1209 1.394 . S
C1210 C1211 1.516 . S
C1211 C1210 1.516 . S
C1211 C1212 1.502 . S
C1211 C1213 1.561 1_556 S
C1211 C1214 1.526 . S
C1212 H1196 0.959 . S
C1212 H1197 0.959 . S
C1212 H1198 0.961 . S
C1212 C1211 1.502 . S
C1213 H1199 0.960 . S
C1213 H1200 0.961 . S
C1213 H1201 0.959 . S
C1213 C1211 1.561 1_554 S
C1214 C1211 1.526 . S
C1214 C1215 1.396 . S
C1214 C1219 1.390 . S
C1215 C1209 1.465 . S
C1215 C1214 1.396 . S
C1215 C1216 1.399 . S
C1216 H1202 0.929 . S
C1216 C1215 1.399 . S
C1216 C1217 1.385 . S
C1217 H1203 0.931 . S
C1217 C1216 1.385 . S
C1217 C1218 1.389 . S
C1218 C1217 1.389 . S
C1218 C1219 1.387 . S
C1219 H1204 0.930 1_556 S
C1219 C1214 1.390 . S
C1219 C1218 1.387 . S
H1220 C1232 0.930 . S
H1221 C1234 0.930 . S
H1222 C1235 0.930 . S
H1223 C1239 0.959 . S
H1224 C1239 0.959 . S
H1225 C1239 0.961 . S
H1226 C1240 0.960 . S
H1227 C1240 0.961 . S
H1228 C1240 0.959 . S
H1229 C1243 0.929 . S
H1230 C1244 0.931 . S
H1231 C1246 0.930 . S
C1232 H1220 0.930 . S
C1232 C1233 1.399 . S
C1232 C1237 1.399 . S
C1233 C1232 1.399 . S
C1233 C1234 1.376 . S
C1234 H1221 0.930 . S
C1234 C1233 1.376 . S
C1234 C1235 1.388 . S
C1235 H1222 0.930 . S
C1235 C1234 1.388 . S
C1235 C1236 1.390 . S
C1236 C1235 1.390 . S
C1236 C1237 1.394 . S
C1236 C1242 1.465 . S
C1237 C1232 1.399 . S
C1237 C1236 1.394 . S
C1237 C1238 1.516 . S
C1238 C1237 1.516 . S
C1238 C1239 1.502 . S
C1238 C1240 1.561 . S
C1238 C1241 1.526 . S
C1239 H1223 0.959 . S
C1239 H1224 0.959 . S
C1239 H1225 0.961 . S
C1239 C1238 1.502 . S
C1240 H1226 0.960 . S
C1240 H1227 0.961 . S
C1240 H1228 0.959 . S
C1240 C1238 1.561 . S
C1241 C1238 1.526 . S
C1241 C1242 1.396 . S
C1241 C1246 1.390 . S
C1242 C1236 1.465 . S
C1242 C1241 1.396 . S
C1242 C1243 1.399 . S
C1243 H1229 0.929 . S
C1243 C1242 1.399 . S
C1243 C1244 1.385 . S
C1244 H1230 0.931 . S
C1244 C1243 1.385 . S
C1244 C1245 1.389 . S
C1245 C1244 1.389 . S
C1245 C1246 1.387 . S
C1246 H1231 0.930 . S
C1246 C1241 1.390 . S
C1246 C1245 1.387 . S
H1247 C1259 0.930 . S
H1248 C1261 0.930 . S
H1249 C1262 0.930 . S
H1250 C1266 0.959 . S
H1251 C1266 0.959 . S
H1252 C1266 0.961 . S
H1253 C1267 0.960 . S
H1254 C1267 0.961 . S
H1255 C1267 0.959 . S
H1256 C1270 0.929 1_554 S
H1257 C1271 0.931 . S
H1258 C1273 0.930 . S
C1259 H1247 0.930 . S
C1259 C1260 1.399 . S
C1259 C1264 1.399 . S
C1260 C1259 1.399 . S
C1260 C1261 1.376 . S
C1261 H1248 0.930 . S
C1261 C1260 1.376 . S
C1261 C1262 1.388 . S
C1262 H1249 0.930 . S
C1262 C1261 1.388 . S
C1262 C1263 1.390 . S
C1263 C1262 1.390 . S
C1263 C1264 1.394 . S
C1263 C1269 1.465 . S
C1264 C1259 1.399 . S
C1264 C1263 1.394 . S
C1264 C1265 1.516 . S
C1265 C1264 1.516 . S
C1265 C1266 1.502 . S
C1265 C1267 1.561 . S
C1265 C1268 1.526 . S
C1266 H1250 0.959 . S
C1266 H1251 0.959 . S
C1266 H1252 0.961 . S
C1266 C1265 1.502 . S
C1267 H1253 0.960 . S
C1267 H1254 0.961 . S
C1267 H1255 0.959 . S
C1267 C1265 1.561 . S
C1268 C1265 1.526 . S
C1268 C1269 1.396 . S
C1268 C1273 1.390 . S
C1269 C1263 1.465 . S
C1269 C1268 1.396 . S
C1269 C1270 1.399 . S
C1270 H1256 0.929 1_556 S
C1270 C1269 1.399 . S
C1270 C1271 1.385 1_556 S
C1271 H1257 0.931 . S
C1271 C1270 1.385 1_554 S
C1271 C1272 1.389 1_554 S
C1272 C1271 1.389 1_556 S
C1272 C1273 1.387 . S
C1273 H1258 0.930 . S
C1273 C1268 1.390 . S
C1273 C1272 1.387 . S
H1274 C1286 0.930 . S
H1275 C1288 0.930 . S
H1276 C1289 0.930 . S
H1277 C1293 0.959 . S
H1278 C1293 0.959 . S
H1279 C1293 0.961 . S
H1280 C1294 0.960 . S
H1281 C1294 0.961 . S
H1282 C1294 0.959 . S
H1283 C1297 0.929 . S
H1284 C1298 0.931 . S
H1285 C1300 0.930 . S
C1286 H1274 0.930 . S
C1286 C1287 1.399 . S
C1286 C1291 1.399 . S
C1287 C1286 1.399 . S
C1287 C1288 1.376 . S
C1288 H1275 0.930 . S
C1288 C1287 1.376 . S
C1288 C1289 1.388 . S
C1289 H1276 0.930 . S
C1289 C1288 1.388 . S
C1289 C1290 1.390 . S
C1290 C1289 1.390 . S
C1290 C1291 1.394 . S
C1290 C1296 1.465 . S
C1291 C1286 1.399 . S
C1291 C1290 1.394 . S
C1291 C1292 1.516 . S
C1292 C1291 1.516 . S
C1292 C1293 1.502 . S
C1292 C1294 1.561 . S
C1292 C1295 1.526 . S
C1293 H1277 0.959 . S
C1293 H1278 0.959 . S
C1293 H1279 0.961 . S
C1293 C1292 1.502 . S
C1294 H1280 0.960 . S
C1294 H1281 0.961 . S
C1294 H1282 0.959 . S
C1294 C1292 1.561 . S
C1295 C1292 1.526 . S
C1295 C1296 1.396 . S
C1295 C1300 1.390 . S
C1296 C1290 1.465 . S
C1296 C1295 1.396 . S
C1296 C1297 1.399 . S
C1297 H1283 0.929 . S
C1297 C1296 1.399 . S
C1297 C1298 1.385 . S
C1298 H1284 0.931 . S
C1298 C1297 1.385 . S
C1298 C1299 1.389 . S
C1299 C1298 1.389 . S
C1299 C1300 1.387 . S
C1300 H1285 0.930 . S
C1300 C1295 1.390 . S
C1300 C1299 1.387 . S
H1301 C1313 0.930 . S
H1302 C1315 0.930 . S
H1303 C1316 0.930 . S
H1304 C1320 0.959 . S
H1305 C1320 0.959 . S
H1306 C1320 0.961 . S
H1307 C1321 0.960 . S
H1308 C1321 0.961 . S
H1309 C1321 0.959 . S
H1310 C1324 0.929 . S
H1311 C1325 0.931 . S
H1312 C1327 0.930 . S
C1313 H1301 0.930 . S
C1313 C1314 1.399 . S
C1313 C1318 1.399 . S
C1314 C1313 1.399 . S
C1314 C1315 1.376 . S
C1315 H1302 0.930 . S
C1315 C1314 1.376 . S
C1315 C1316 1.388 . S
C1316 H1303 0.930 . S
C1316 C1315 1.388 . S
C1316 C1317 1.390 . S
C1317 C1316 1.390 . S
C1317 C1318 1.394 . S
C1317 C1323 1.465 . S
C1318 C1313 1.399 . S
C1318 C1317 1.394 . S
C1318 C1319 1.516 . S
C1319 C1318 1.516 . S
C1319 C1320 1.502 . S
C1319 C1321 1.561 . S
C1319 C1322 1.526 . S
C1320 H1304 0.959 . S
C1320 H1305 0.959 . S
C1320 H1306 0.961 . S
C1320 C1319 1.502 . S
C1321 H1307 0.960 . S
C1321 H1308 0.961 . S
C1321 H1309 0.959 . S
C1321 C1319 1.561 . S
C1322 C1319 1.526 . S
C1322 C1323 1.396 . S
C1322 C1327 1.390 . S
C1323 C1317 1.465 . S
C1323 C1322 1.396 . S
C1323 C1324 1.399 . S
C1324 H1310 0.929 . S
C1324 C1323 1.399 . S
C1324 C1325 1.385 . S
C1325 H1311 0.931 . S
C1325 C1324 1.385 . S
C1325 C1326 1.389 . S
C1326 C1325 1.389 . S
C1326 C1327 1.387 . S
C1327 H1312 0.930 . S
C1327 C1322 1.390 . S
C1327 C1326 1.387 . S
H1328 C1340 0.930 . S
H1329 C1342 0.930 . S
H1330 C1343 0.930 . S
H1331 C1347 0.959 . S
H1332 C1347 0.959 . S
H1333 C1347 0.961 . S
H1334 C1348 0.960 . S
H1335 C1348 0.961 . S
H1336 C1348 0.959 . S
H1337 C1351 0.929 . S
H1338 C1352 0.931 . S
H1339 C1354 0.930 . S
C1340 H1328 0.930 . S
C1340 C1341 1.399 . S
C1340 C1345 1.399 . S
C1341 C1340 1.399 . S
C1341 C1342 1.376 . S
C1342 H1329 0.930 . S
C1342 C1341 1.376 . S
C1342 C1343 1.388 . S
C1343 H1330 0.930 . S
C1343 C1342 1.388 . S
C1343 C1344 1.390 . S
C1344 C1343 1.390 . S
C1344 C1345 1.394 . S
C1344 C1350 1.465 . S
C1345 C1340 1.399 . S
C1345 C1344 1.394 . S
C1345 C1346 1.516 . S
C1346 C1345 1.516 . S
C1346 C1347 1.502 . S
C1346 C1348 1.561 . S
C1346 C1349 1.526 . S
C1347 H1331 0.959 . S
C1347 H1332 0.959 . S
C1347 H1333 0.961 . S
C1347 C1346 1.502 . S
C1348 H1334 0.960 . S
C1348 H1335 0.961 . S
C1348 H1336 0.959 . S
C1348 C1346 1.561 . S
C1349 C1346 1.526 . S
C1349 C1350 1.396 . S
C1349 C1354 1.390 . S
C1350 C1344 1.465 . S
C1350 C1349 1.396 . S
C1350 C1351 1.399 . S
C1351 H1337 0.929 . S
C1351 C1350 1.399 . S
C1351 C1352 1.385 . S
C1352 H1338 0.931 . S
C1352 C1351 1.385 . S
C1352 C1353 1.389 . S
C1353 C1352 1.389 . S
C1353 C1354 1.387 . S
C1354 H1339 0.930 . S
C1354 C1349 1.390 . S
C1354 C1353 1.387 . S
H1355 C1367 0.930 . S
H1356 C1369 0.930 . S
H1357 C1370 0.930 . S
H1358 C1374 0.959 . S
H1359 C1374 0.959 . S
H1360 C1374 0.961 . S
H1361 C1375 0.960 . S
H1362 C1375 0.961 . S
H1363 C1375 0.959 . S
H1364 C1378 0.929 . S
H1365 C1379 0.931 . S
H1366 C1381 0.930 . S
C1367 H1355 0.930 . S
C1367 C1368 1.399 . S
C1367 C1372 1.399 . S
C1368 C1367 1.399 . S
C1368 C1369 1.376 . S
C1369 H1356 0.930 . S
C1369 C1368 1.376 . S
C1369 C1370 1.388 . S
C1370 H1357 0.930 . S
C1370 C1369 1.388 . S
C1370 C1371 1.390 . S
C1371 C1370 1.390 . S
C1371 C1372 1.394 . S
C1371 C1377 1.465 . S
C1372 C1367 1.399 . S
C1372 C1371 1.394 . S
C1372 C1373 1.516 . S
C1373 C1372 1.516 . S
C1373 C1374 1.502 . S
C1373 C1375 1.561 . S
C1373 C1376 1.526 . S
C1374 H1358 0.959 . S
C1374 H1359 0.959 . S
C1374 H1360 0.961 . S
C1374 C1373 1.502 . S
C1375 H1361 0.960 . S
C1375 H1362 0.961 . S
C1375 H1363 0.959 . S
C1375 C1373 1.561 . S
C1376 C1373 1.526 . S
C1376 C1377 1.396 . S
C1376 C1381 1.390 . S
C1377 C1371 1.465 . S
C1377 C1376 1.396 . S
C1377 C1378 1.399 . S
C1378 H1364 0.929 . S
C1378 C1377 1.399 . S
C1378 C1379 1.385 . S
C1379 H1365 0.931 . S
C1379 C1378 1.385 . S
C1379 C1380 1.389 . S
C1380 C1379 1.389 . S
C1380 C1381 1.387 . S
C1381 H1366 0.930 . S
C1381 C1376 1.390 . S
C1381 C1380 1.387 . S
H1382 C1394 0.930 . S
H1383 C1396 0.930 . S
H1384 C1397 0.930 . S
H1385 C1401 0.959 . S
H1386 C1401 0.959 . S
H1387 C1401 0.961 . S
H1388 C1402 0.960 . S
H1389 C1402 0.961 . S
H1390 C1402 0.959 . S
H1391 C1405 0.929 . S
H1392 C1406 0.931 . S
H1393 C1408 0.930 . S
C1394 H1382 0.930 . S
C1394 C1395 1.399 . S
C1394 C1399 1.399 . S
C1395 C1394 1.399 . S
C1395 C1396 1.376 . S
C1396 H1383 0.930 . S
C1396 C1395 1.376 . S
C1396 C1397 1.388 . S
C1397 H1384 0.930 . S
C1397 C1396 1.388 . S
C1397 C1398 1.390 . S
C1398 C1397 1.390 . S
C1398 C1399 1.394 . S
C1398 C1404 1.465 . S
C1399 C1394 1.399 . S
C1399 C1398 1.394 . S
C1399 C1400 1.516 . S
C1400 C1399 1.516 . S
C1400 C1401 1.502 . S
C1400 C1402 1.561 . S
C1400 C1403 1.526 . S
C1401 H1385 0.959 . S
C1401 H1386 0.959 . S
C1401 H1387 0.961 . S
C1401 C1400 1.502 . S
C1402 H1388 0.960 . S
C1402 H1389 0.961 . S
C1402 H1390 0.959 . S
C1402 C1400 1.561 . S
C1403 C1400 1.526 . S
C1403 C1404 1.396 . S
C1403 C1408 1.390 . S
C1404 C1398 1.465 . S
C1404 C1403 1.396 . S
C1404 C1405 1.399 . S
C1405 H1391 0.929 . S
C1405 C1404 1.399 . S
C1405 C1406 1.385 . S
C1406 H1392 0.931 . S
C1406 C1405 1.385 . S
C1406 C1407 1.389 . S
C1407 C1406 1.389 . S
C1407 C1408 1.387 . S
C1408 H1393 0.930 . S
C1408 C1403 1.390 . S
C1408 C1407 1.387 . S
H1409 C1421 0.930 . S
H1410 C1423 0.930 . S
H1411 C1424 0.930 . S
H1412 C1428 0.959 . S
H1413 C1428 0.959 . S
H1414 C1428 0.961 . S
H1415 C1429 0.960 . S
H1416 C1429 0.961 . S
H1417 C1429 0.959 . S
H1418 C1432 0.929 . S
H1419 C1433 0.931 . S
H1420 C1435 0.930 . S
C1421 H1409 0.930 . S
C1421 C1422 1.399 . S
C1421 C1426 1.399 . S
C1422 C1421 1.399 . S
C1422 C1423 1.376 . S
C1423 H1410 0.930 . S
C1423 C1422 1.376 . S
C1423 C1424 1.388 . S
C1424 H1411 0.930 . S
C1424 C1423 1.388 . S
C1424 C1425 1.390 . S
C1425 C1424 1.390 . S
C1425 C1426 1.394 . S
C1425 C1431 1.465 . S
C1426 C1421 1.399 . S
C1426 C1425 1.394 . S
C1426 C1427 1.516 . S
C1427 C1426 1.516 . S
C1427 C1428 1.502 . S
C1427 C1429 1.561 . S
C1427 C1430 1.526 . S
C1428 H1412 0.959 . S
C1428 H1413 0.959 . S
C1428 H1414 0.961 . S
C1428 C1427 1.502 . S
C1429 H1415 0.960 . S
C1429 H1416 0.961 . S
C1429 H1417 0.959 . S
C1429 C1427 1.561 . S
C1430 C1427 1.526 . S
C1430 C1431 1.396 . S
C1430 C1435 1.390 . S
C1431 C1425 1.465 . S
C1431 C1430 1.396 . S
C1431 C1432 1.399 . S
C1432 H1418 0.929 . S
C1432 C1431 1.399 . S
C1432 C1433 1.385 . S
C1433 H1419 0.931 . S
C1433 C1432 1.385 . S
C1433 C1434 1.389 . S
C1434 C1433 1.389 . S
C1434 C1435 1.387 . S
C1435 H1420 0.930 . S
C1435 C1430 1.390 . S
C1435 C1434 1.387 . S
H1436 C1448 0.930 . S
H1437 C1450 0.930 . S
H1438 C1451 0.930 . S
H1439 C1455 0.959 . S
H1440 C1455 0.959 . S
H1441 C1455 0.961 . S
H1442 C1456 0.960 . S
H1443 C1456 0.961 . S
H1444 C1456 0.959 . S
H1445 C1459 0.929 . S
H1446 C1460 0.931 . S
H1447 C1462 0.930 . S
C1448 H1436 0.930 . S
C1448 C1449 1.399 . S
C1448 C1453 1.399 . S
C1449 C1448 1.399 . S
C1449 C1450 1.376 . S
C1450 H1437 0.930 . S
C1450 C1449 1.376 . S
C1450 C1451 1.388 . S
C1451 H1438 0.930 . S
C1451 C1450 1.388 . S
C1451 C1452 1.390 . S
C1452 C1451 1.390 . S
C1452 C1453 1.394 . S
C1452 C1458 1.465 . S
C1453 C1448 1.399 . S
C1453 C1452 1.394 . S
C1453 C1454 1.516 . S
C1454 C1453 1.516 . S
C1454 C1455 1.502 . S
C1454 C1456 1.561 . S
C1454 C1457 1.526 . S
C1455 H1439 0.959 . S
C1455 H1440 0.959 . S
C1455 H1441 0.961 . S
C1455 C1454 1.502 . S
C1456 H1442 0.960 . S
C1456 H1443 0.961 . S
C1456 H1444 0.959 . S
C1456 C1454 1.561 . S
C1457 C1454 1.526 . S
C1457 C1458 1.396 . S
C1457 C1462 1.390 . S
C1458 C1452 1.465 . S
C1458 C1457 1.396 . S
C1458 C1459 1.399 . S
C1459 H1445 0.929 . S
C1459 C1458 1.399 . S
C1459 C1460 1.385 . S
C1460 H1446 0.931 . S
C1460 C1459 1.385 . S
C1460 C1461 1.389 . S
C1461 C1460 1.389 . S
C1461 C1462 1.387 . S
C1462 H1447 0.930 . S
C1462 C1457 1.390 . S
C1462 C1461 1.387 . S
H1463 C1475 0.930 . S
H1464 C1477 0.930 . S
H1465 C1478 0.930 . S
H1466 C1482 0.959 . S
H1467 C1482 0.959 . S
H1468 C1482 0.961 . S
H1469 C1483 0.960 . S
H1470 C1483 0.961 . S
H1471 C1483 0.959 . S
H1472 C1486 0.929 . S
H1473 C1487 0.931 . S
H1474 C1489 0.930 . S
C1475 H1463 0.930 . S
C1475 C1476 1.399 . S
C1475 C1480 1.399 . S
C1476 C1475 1.399 . S
C1476 C1477 1.376 . S
C1477 H1464 0.930 . S
C1477 C1476 1.376 . S
C1477 C1478 1.388 . S
C1478 H1465 0.930 . S
C1478 C1477 1.388 . S
C1478 C1479 1.390 . S
C1479 C1478 1.390 . S
C1479 C1480 1.394 . S
C1479 C1485 1.465 . S
C1480 C1475 1.399 . S
C1480 C1479 1.394 . S
C1480 C1481 1.516 . S
C1481 C1480 1.516 . S
C1481 C1482 1.502 . S
C1481 C1483 1.561 . S
C1481 C1484 1.526 . S
C1482 H1466 0.959 . S
C1482 H1467 0.959 . S
C1482 H1468 0.961 . S
C1482 C1481 1.502 . S
C1483 H1469 0.960 . S
C1483 H1470 0.961 . S
C1483 H1471 0.959 . S
C1483 C1481 1.561 . S
C1484 C1481 1.526 . S
C1484 C1485 1.396 . S
C1484 C1489 1.390 . S
C1485 C1479 1.465 . S
C1485 C1484 1.396 . S
C1485 C1486 1.399 . S
C1486 H1472 0.929 . S
C1486 C1485 1.399 . S
C1486 C1487 1.385 . S
C1487 H1473 0.931 . S
C1487 C1486 1.385 . S
C1487 C1488 1.389 . S
C1488 C1487 1.389 . S
C1488 C1489 1.387 . S
C1489 H1474 0.930 . S
C1489 C1484 1.390 . S
C1489 C1488 1.387 . S
H1490 C1502 0.930 . S
H1491 C1504 0.930 . S
H1492 C1505 0.930 . S
H1493 C1509 0.959 . S
H1494 C1509 0.959 . S
H1495 C1509 0.961 . S
H1496 C1510 0.960 . S
H1497 C1510 0.961 . S
H1498 C1510 0.959 . S
H1499 C1513 0.929 . S
H1500 C1514 0.931 . S
H1501 C1516 0.930 . S
C1502 H1490 0.930 . S
C1502 C1503 1.399 . S
C1502 C1507 1.399 . S
C1503 C1502 1.399 . S
C1503 C1504 1.376 . S
C1504 H1491 0.930 . S
C1504 C1503 1.376 . S
C1504 C1505 1.388 . S
C1505 H1492 0.930 . S
C1505 C1504 1.388 . S
C1505 C1506 1.390 . S
C1506 C1505 1.390 . S
C1506 C1507 1.394 . S
C1506 C1512 1.465 . S
C1507 C1502 1.399 . S
C1507 C1506 1.394 . S
C1507 C1508 1.516 . S
C1508 C1507 1.516 . S
C1508 C1509 1.502 . S
C1508 C1510 1.561 . S
C1508 C1511 1.526 . S
C1509 H1493 0.959 . S
C1509 H1494 0.959 . S
C1509 H1495 0.961 . S
C1509 C1508 1.502 . S
C1510 H1496 0.960 . S
C1510 H1497 0.961 . S
C1510 H1498 0.959 . S
C1510 C1508 1.561 . S
C1511 C1508 1.526 . S
C1511 C1512 1.396 . S
C1511 C1516 1.390 . S
C1512 C1506 1.465 . S
C1512 C1511 1.396 . S
C1512 C1513 1.399 . S
C1513 H1499 0.929 . S
C1513 C1512 1.399 . S
C1513 C1514 1.385 . S
C1514 H1500 0.931 . S
C1514 C1513 1.385 . S
C1514 C1515 1.389 . S
C1515 C1514 1.389 . S
C1515 C1516 1.387 . S
C1516 H1501 0.930 . S
C1516 C1511 1.390 . S
C1516 C1515 1.387 . S
H1517 C1529 0.930 . S
H1518 C1531 0.930 . S
H1519 C1532 0.930 . S
H1520 C1536 0.959 . S
H1521 C1536 0.959 . S
H1522 C1536 0.961 . S
H1523 C1537 0.960 . S
H1524 C1537 0.961 . S
H1525 C1537 0.959 . S
H1526 C1540 0.929 . S
H1527 C1541 0.931 . S
H1528 C1543 0.930 . S
C1529 H1517 0.930 . S
C1529 C1530 1.399 . S
C1529 C1534 1.399 . S
C1530 C1529 1.399 . S
C1530 C1531 1.376 . S
C1531 H1518 0.930 . S
C1531 C1530 1.376 . S
C1531 C1532 1.388 . S
C1532 H1519 0.930 . S
C1532 C1531 1.388 . S
C1532 C1533 1.390 . S
C1533 C1532 1.390 . S
C1533 C1534 1.394 . S
C1533 C1539 1.465 . S
C1534 C1529 1.399 . S
C1534 C1533 1.394 . S
C1534 C1535 1.516 . S
C1535 C1534 1.516 . S
C1535 C1536 1.502 . S
C1535 C1537 1.561 . S
C1535 C1538 1.526 . S
C1536 H1520 0.959 . S
C1536 H1521 0.959 . S
C1536 H1522 0.961 . S
C1536 C1535 1.502 . S
C1537 H1523 0.960 . S
C1537 H1524 0.961 . S
C1537 H1525 0.959 . S
C1537 C1535 1.561 . S
C1538 C1535 1.526 . S
C1538 C1539 1.396 . S
C1538 C1543 1.390 . S
C1539 C1533 1.465 . S
C1539 C1538 1.396 . S
C1539 C1540 1.399 . S
C1540 H1526 0.929 . S
C1540 C1539 1.399 . S
C1540 C1541 1.385 . S
C1541 H1527 0.931 . S
C1541 C1540 1.385 . S
C1541 C1542 1.389 . S
C1542 C1541 1.389 . S
C1542 C1543 1.387 . S
C1543 H1528 0.930 . S
C1543 C1538 1.390 . S
C1543 C1542 1.387 . S
H1544 C1556 0.930 . S
H1545 C1558 0.930 . S
H1546 C1559 0.930 . S
H1547 C1563 0.959 . S
H1548 C1563 0.959 . S
H1549 C1563 0.961 . S
H1550 C1564 0.960 . S
H1551 C1564 0.961 . S
H1552 C1564 0.959 . S
H1553 C1567 0.929 . S
H1554 C1568 0.931 . S
H1555 C1570 0.930 . S
C1556 H1544 0.930 . S
C1556 C1557 1.399 . S
C1556 C1561 1.399 . S
C1557 C1556 1.399 . S
C1557 C1558 1.376 . S
C1558 H1545 0.930 . S
C1558 C1557 1.376 . S
C1558 C1559 1.388 . S
C1559 H1546 0.930 . S
C1559 C1558 1.388 . S
C1559 C1560 1.390 . S
C1560 C1559 1.390 . S
C1560 C1561 1.394 . S
C1560 C1566 1.465 . S
C1561 C1556 1.399 . S
C1561 C1560 1.394 . S
C1561 C1562 1.516 . S
C1562 C1561 1.516 . S
C1562 C1563 1.502 . S
C1562 C1564 1.561 . S
C1562 C1565 1.526 . S
C1563 H1547 0.959 . S
C1563 H1548 0.959 . S
C1563 H1549 0.961 . S
C1563 C1562 1.502 . S
C1564 H1550 0.960 . S
C1564 H1551 0.961 . S
C1564 H1552 0.959 . S
C1564 C1562 1.561 . S
C1565 C1562 1.526 . S
C1565 C1566 1.396 . S
C1565 C1570 1.390 . S
C1566 C1560 1.465 . S
C1566 C1565 1.396 . S
C1566 C1567 1.399 . S
C1567 H1553 0.929 . S
C1567 C1566 1.399 . S
C1567 C1568 1.385 . S
C1568 H1554 0.931 . S
C1568 C1567 1.385 . S
C1568 C1569 1.389 . S
C1569 C1568 1.389 . S
C1569 C1570 1.387 . S
C1570 H1555 0.930 . S
C1570 C1565 1.390 . S
C1570 C1569 1.387 . S
H1571 C1583 0.930 . S
H1572 C1585 0.930 . S
H1573 C1586 0.930 . S
H1574 C1590 0.959 . S
H1575 C1590 0.959 . S
H1576 C1590 0.961 . S
H1577 C1591 0.960 . S
H1578 C1591 0.961 . S
H1579 C1591 0.959 . S
H1580 C1594 0.929 . S
H1581 C1595 0.931 . S
H1582 C1597 0.930 . S
C1583 H1571 0.930 . S
C1583 C1584 1.399 . S
C1583 C1588 1.399 . S
C1584 C1583 1.399 . S
C1584 C1585 1.376 . S
C1585 H1572 0.930 . S
C1585 C1584 1.376 . S
C1585 C1586 1.388 . S
C1586 H1573 0.930 . S
C1586 C1585 1.388 . S
C1586 C1587 1.390 . S
C1587 C1586 1.390 . S
C1587 C1588 1.394 . S
C1587 C1593 1.465 . S
C1588 C1583 1.399 . S
C1588 C1587 1.394 . S
C1588 C1589 1.516 . S
C1589 C1588 1.516 . S
C1589 C1590 1.502 . S
C1589 C1591 1.561 . S
C1589 C1592 1.526 . S
C1590 H1574 0.959 . S
C1590 H1575 0.959 . S
C1590 H1576 0.961 . S
C1590 C1589 1.502 . S
C1591 H1577 0.960 . S
C1591 H1578 0.961 . S
C1591 H1579 0.959 . S
C1591 C1589 1.561 . S
C1592 C1589 1.526 . S
C1592 C1593 1.396 . S
C1592 C1597 1.390 . S
C1593 C1587 1.465 . S
C1593 C1592 1.396 . S
C1593 C1594 1.399 . S
C1594 H1580 0.929 . S
C1594 C1593 1.399 . S
C1594 C1595 1.385 . S
C1595 H1581 0.931 . S
C1595 C1594 1.385 . S
C1595 C1596 1.389 . S
C1596 C1595 1.389 . S
C1596 C1597 1.387 . S
C1597 H1582 0.930 . S
C1597 C1592 1.390 . S
C1597 C1596 1.387 . S
H1598 C1610 0.930 . S
H1599 C1612 0.930 . S
H1600 C1613 0.930 . S
H1601 C1617 0.959 . S
H1602 C1617 0.959 . S
H1603 C1617 0.961 . S
H1604 C1618 0.960 . S
H1605 C1618 0.961 . S
H1606 C1618 0.959 . S
H1607 C1621 0.929 . S
H1608 C1622 0.931 . S
H1609 C1624 0.930 . S
C1610 H1598 0.930 . S
C1610 C1611 1.399 . S
C1610 C1615 1.399 . S
C1611 C1610 1.399 . S
C1611 C1612 1.376 . S
C1612 H1599 0.930 . S
C1612 C1611 1.376 . S
C1612 C1613 1.388 . S
C1613 H1600 0.930 . S
C1613 C1612 1.388 . S
C1613 C1614 1.390 . S
C1614 C1613 1.390 . S
C1614 C1615 1.394 . S
C1614 C1620 1.465 . S
C1615 C1610 1.399 . S
C1615 C1614 1.394 . S
C1615 C1616 1.516 . S
C1616 C1615 1.516 . S
C1616 C1617 1.502 . S
C1616 C1618 1.561 . S
C1616 C1619 1.526 . S
C1617 H1601 0.959 . S
C1617 H1602 0.959 . S
C1617 H1603 0.961 . S
C1617 C1616 1.502 . S
C1618 H1604 0.960 . S
C1618 H1605 0.961 . S
C1618 H1606 0.959 . S
C1618 C1616 1.561 . S
C1619 C1616 1.526 . S
C1619 C1620 1.396 . S
C1619 C1624 1.390 . S
C1620 C1614 1.465 . S
C1620 C1619 1.396 . S
C1620 C1621 1.399 . S
C1621 H1607 0.929 . S
C1621 C1620 1.399 . S
C1621 C1622 1.385 . S
C1622 H1608 0.931 . S
C1622 C1621 1.385 . S
C1622 C1623 1.389 . S
C1623 C1622 1.389 . S
C1623 C1624 1.387 . S
C1624 H1609 0.930 . S
C1624 C1619 1.390 . S
C1624 C1623 1.387 . S
H1625 C1637 0.930 . S
H1626 C1639 0.930 . S
H1627 C1640 0.930 . S
H1628 C1644 0.959 . S
H1629 C1644 0.959 . S
H1630 C1644 0.961 . S
H1631 C1645 0.960 . S
H1632 C1645 0.961 . S
H1633 C1645 0.959 . S
H1634 C1648 0.929 . S
H1635 C1649 0.931 . S
H1636 C1651 0.930 . S
C1637 H1625 0.930 . S
C1637 C1638 1.399 . S
C1637 C1642 1.399 . S
C1638 C1637 1.399 . S
C1638 C1639 1.376 . S
C1639 H1626 0.930 . S
C1639 C1638 1.376 . S
C1639 C1640 1.388 . S
C1640 H1627 0.930 . S
C1640 C1639 1.388 . S
C1640 C1641 1.390 . S
C1641 C1640 1.390 . S
C1641 C1642 1.394 . S
C1641 C1647 1.465 . S
C1642 C1637 1.399 . S
C1642 C1641 1.394 . S
C1642 C1643 1.516 . S
C1643 C1642 1.516 . S
C1643 C1644 1.502 . S
C1643 C1645 1.561 . S
C1643 C1646 1.526 . S
C1644 H1628 0.959 . S
C1644 H1629 0.959 . S
C1644 H1630 0.961 . S
C1644 C1643 1.502 . S
C1645 H1631 0.960 . S
C1645 H1632 0.961 . S
C1645 H1633 0.959 . S
C1645 C1643 1.561 . S
C1646 C1643 1.526 . S
C1646 C1647 1.396 . S
C1646 C1651 1.390 . S
C1647 C1641 1.465 . S
C1647 C1646 1.396 . S
C1647 C1648 1.399 . S
C1648 H1634 0.929 . S
C1648 C1647 1.399 . S
C1648 C1649 1.385 . S
C1649 H1635 0.931 . S
C1649 C1648 1.385 . S
C1649 C1650 1.389 . S
C1650 C1649 1.389 . S
C1650 C1651 1.387 . S
C1651 H1636 0.930 . S
C1651 C1646 1.390 . S
C1651 C1650 1.387 . S
H1652 C1664 0.930 . S
H1653 C1666 0.930 . S
H1654 C1667 0.930 . S
H1655 C1671 0.959 . S
H1656 C1671 0.959 . S
H1657 C1671 0.961 . S
H1658 C1672 0.960 . S
H1659 C1672 0.961 . S
H1660 C1672 0.959 . S
H1661 C1675 0.929 . S
H1662 C1676 0.931 . S
H1663 C1678 0.930 . S
C1664 H1652 0.930 . S
C1664 C1665 1.399 . S
C1664 C1669 1.399 . S
C1665 C1664 1.399 . S
C1665 C1666 1.376 . S
C1666 H1653 0.930 . S
C1666 C1665 1.376 . S
C1666 C1667 1.388 . S
C1667 H1654 0.930 . S
C1667 C1666 1.388 . S
C1667 C1668 1.390 . S
C1668 C1667 1.390 . S
C1668 C1669 1.394 . S
C1668 C1674 1.465 . S
C1669 C1664 1.399 . S
C1669 C1668 1.394 . S
C1669 C1670 1.516 . S
C1670 C1669 1.516 . S
C1670 C1671 1.502 . S
C1670 C1672 1.561 . S
C1670 C1673 1.526 . S
C1671 H1655 0.959 . S
C1671 H1656 0.959 . S
C1671 H1657 0.961 . S
C1671 C1670 1.502 . S
C1672 H1658 0.960 . S
C1672 H1659 0.961 . S
C1672 H1660 0.959 . S
C1672 C1670 1.561 . S
C1673 C1670 1.526 . S
C1673 C1674 1.396 . S
C1673 C1678 1.390 . S
C1674 C1668 1.465 . S
C1674 C1673 1.396 . S
C1674 C1675 1.399 . S
C1675 H1661 0.929 . S
C1675 C1674 1.399 . S
C1675 C1676 1.385 . S
C1676 H1662 0.931 . S
C1676 C1675 1.385 . S
C1676 C1677 1.389 . S
C1677 C1676 1.389 . S
C1677 C1678 1.387 . S
C1678 H1663 0.930 . S
C1678 C1673 1.390 . S
C1678 C1677 1.387 . S
H1679 C1691 0.930 . S
H1680 C1693 0.930 . S
H1681 C1694 0.930 . S
H1682 C1698 0.959 . S
H1683 C1698 0.959 . S
H1684 C1698 0.961 . S
H1685 C1699 0.960 . S
H1686 C1699 0.961 . S
H1687 C1699 0.959 . S
H1688 C1702 0.929 . S
H1689 C1703 0.931 . S
H1690 C1705 0.930 . S
C1691 H1679 0.930 . S
C1691 C1692 1.399 . S
C1691 C1696 1.399 . S
C1692 C1691 1.399 . S
C1692 C1693 1.376 . S
C1693 H1680 0.930 . S
C1693 C1692 1.376 . S
C1693 C1694 1.388 . S
C1694 H1681 0.930 . S
C1694 C1693 1.388 . S
C1694 C1695 1.390 . S
C1695 C1694 1.390 . S
C1695 C1696 1.394 . S
C1695 C1701 1.465 . S
C1696 C1691 1.399 . S
C1696 C1695 1.394 . S
C1696 C1697 1.516 . S
C1697 C1696 1.516 . S
C1697 C1698 1.502 . S
C1697 C1699 1.561 . S
C1697 C1700 1.526 . S
C1698 H1682 0.959 . S
C1698 H1683 0.959 . S
C1698 H1684 0.961 . S
C1698 C1697 1.502 . S
C1699 H1685 0.960 . S
C1699 H1686 0.961 . S
C1699 H1687 0.959 . S
C1699 C1697 1.561 . S
C1700 C1697 1.526 . S
C1700 C1701 1.396 . S
C1700 C1705 1.390 . S
C1701 C1695 1.465 . S
C1701 C1700 1.396 . S
C1701 C1702 1.399 . S
C1702 H1688 0.929 . S
C1702 C1701 1.399 . S
C1702 C1703 1.385 . S
C1703 H1689 0.931 . S
C1703 C1702 1.385 . S
C1703 C1704 1.389 . S
C1704 C1703 1.389 . S
C1704 C1705 1.387 . S
C1705 H1690 0.930 . S
C1705 C1700 1.390 . S
C1705 C1704 1.387 . S
H1706 C1718 0.930 . S
H1707 C1720 0.930 . S
H1708 C1721 0.930 . S
H1709 C1725 0.959 . S
H1710 C1725 0.959 . S
H1711 C1725 0.961 . S
H1712 C1726 0.960 . S
H1713 C1726 0.961 . S
H1714 C1726 0.959 . S
H1715 C1729 0.929 . S
H1716 C1730 0.931 . S
H1717 C1732 0.930 . S
C1718 H1706 0.930 . S
C1718 C1719 1.399 . S
C1718 C1723 1.399 . S
C1719 C1718 1.399 . S
C1719 C1720 1.376 . S
C1720 H1707 0.930 . S
C1720 C1719 1.376 . S
C1720 C1721 1.388 . S
C1721 H1708 0.930 . S
C1721 C1720 1.388 . S
C1721 C1722 1.390 . S
C1722 C1721 1.390 . S
C1722 C1723 1.394 . S
C1722 C1728 1.465 . S
C1723 C1718 1.399 . S
C1723 C1722 1.394 . S
C1723 C1724 1.516 . S
C1724 C1723 1.516 . S
C1724 C1725 1.502 . S
C1724 C1726 1.561 . S
C1724 C1727 1.526 . S
C1725 H1709 0.959 . S
C1725 H1710 0.959 . S
C1725 H1711 0.961 . S
C1725 C1724 1.502 . S
C1726 H1712 0.960 . S
C1726 H1713 0.961 . S
C1726 H1714 0.959 . S
C1726 C1724 1.561 . S
C1727 C1724 1.526 . S
C1727 C1728 1.396 . S
C1727 C1732 1.390 . S
C1728 C1722 1.465 . S
C1728 C1727 1.396 . S
C1728 C1729 1.399 . S
C1729 H1715 0.929 . S
C1729 C1728 1.399 . S
C1729 C1730 1.385 . S
C1730 H1716 0.931 . S
C1730 C1729 1.385 . S
C1730 C1731 1.389 . S
C1731 C1730 1.389 . S
C1731 C1732 1.387 . S
C1732 H1717 0.930 . S
C1732 C1727 1.390 . S
C1732 C1731 1.387 . S
H1733 C1745 0.930 . S
H1734 C1747 0.930 . S
H1735 C1748 0.930 . S
H1736 C1752 0.959 . S
H1737 C1752 0.959 . S
H1738 C1752 0.961 . S
H1739 C1753 0.960 . S
H1740 C1753 0.961 . S
H1741 C1753 0.959 . S
H1742 C1756 0.929 . S
H1743 C1757 0.931 . S
H1744 C1759 0.930 . S
C1745 H1733 0.930 . S
C1745 C1746 1.399 . S
C1745 C1750 1.399 . S
C1746 C1745 1.399 . S
C1746 C1747 1.376 . S
C1747 H1734 0.930 . S
C1747 C1746 1.376 . S
C1747 C1748 1.388 . S
C1748 H1735 0.930 . S
C1748 C1747 1.388 . S
C1748 C1749 1.390 . S
C1749 C1748 1.390 . S
C1749 C1750 1.394 . S
C1749 C1755 1.465 . S
C1750 C1745 1.399 . S
C1750 C1749 1.394 . S
C1750 C1751 1.516 . S
C1751 C1750 1.516 . S
C1751 C1752 1.502 . S
C1751 C1753 1.561 . S
C1751 C1754 1.526 . S
C1752 H1736 0.959 . S
C1752 H1737 0.959 . S
C1752 H1738 0.961 . S
C1752 C1751 1.502 . S
C1753 H1739 0.960 . S
C1753 H1740 0.961 . S
C1753 H1741 0.959 . S
C1753 C1751 1.561 . S
C1754 C1751 1.526 . S
C1754 C1755 1.396 . S
C1754 C1759 1.390 . S
C1755 C1749 1.465 . S
C1755 C1754 1.396 . S
C1755 C1756 1.399 . S
C1756 H1742 0.929 . S
C1756 C1755 1.399 . S
C1756 C1757 1.385 . S
C1757 H1743 0.931 . S
C1757 C1756 1.385 . S
C1757 C1758 1.389 . S
C1758 C1757 1.389 . S
C1758 C1759 1.387 . S
C1759 H1744 0.930 . S
C1759 C1754 1.390 . S
C1759 C1758 1.387 . S
H1760 C1772 0.930 . S
H1761 C1774 0.930 . S
H1762 C1775 0.930 . S
H1763 C1779 0.959 . S
H1764 C1779 0.959 . S
H1765 C1779 0.961 . S
H1766 C1780 0.960 . S
H1767 C1780 0.961 . S
H1768 C1780 0.959 . S
H1769 C1783 0.929 . S
H1770 C1784 0.931 . S
H1771 C1786 0.930 . S
C1772 H1760 0.930 . S
C1772 C1773 1.399 . S
C1772 C1777 1.399 . S
C1773 C1772 1.399 . S
C1773 C1774 1.376 . S
C1774 H1761 0.930 . S
C1774 C1773 1.376 . S
C1774 C1775 1.388 . S
C1775 H1762 0.930 . S
C1775 C1774 1.388 . S
C1775 C1776 1.390 . S
C1776 C1775 1.390 . S
C1776 C1777 1.394 . S
C1776 C1782 1.465 . S
C1777 C1772 1.399 . S
C1777 C1776 1.394 . S
C1777 C1778 1.516 . S
C1778 C1777 1.516 . S
C1778 C1779 1.502 . S
C1778 C1780 1.561 . S
C1778 C1781 1.526 . S
C1779 H1763 0.959 . S
C1779 H1764 0.959 . S
C1779 H1765 0.961 . S
C1779 C1778 1.502 . S
C1780 H1766 0.960 . S
C1780 H1767 0.961 . S
C1780 H1768 0.959 . S
C1780 C1778 1.561 . S
C1781 C1778 1.526 . S
C1781 C1782 1.396 . S
C1781 C1786 1.390 . S
C1782 C1776 1.465 . S
C1782 C1781 1.396 . S
C1782 C1783 1.399 . S
C1783 H1769 0.929 . S
C1783 C1782 1.399 . S
C1783 C1784 1.385 . S
C1784 H1770 0.931 . S
C1784 C1783 1.385 . S
C1784 C1785 1.389 . S
C1785 C1784 1.389 . S
C1785 C1786 1.387 . S
C1786 H1771 0.930 . S
C1786 C1781 1.390 . S
C1786 C1785 1.387 . S
H1787 C1799 0.930 . S
H1788 C1801 0.930 . S
H1789 C1802 0.930 . S
H1790 C1806 0.959 . S
H1791 C1806 0.959 . S
H1792 C1806 0.961 . S
H1793 C1807 0.960 . S
H1794 C1807 0.961 . S
H1795 C1807 0.959 . S
H1796 C1810 0.929 . S
H1797 C1811 0.931 . S
H1798 C1813 0.930 . S
C1799 H1787 0.930 . S
C1799 C1800 1.399 . S
C1799 C1804 1.399 . S
C1800 C1799 1.399 . S
C1800 C1801 1.376 . S
C1801 H1788 0.930 . S
C1801 C1800 1.376 . S
C1801 C1802 1.388 . S
C1802 H1789 0.930 . S
C1802 C1801 1.388 . S
C1802 C1803 1.390 . S
C1803 C1802 1.390 . S
C1803 C1804 1.394 . S
C1803 C1809 1.465 . S
C1804 C1799 1.399 . S
C1804 C1803 1.394 . S
C1804 C1805 1.516 . S
C1805 C1804 1.516 . S
C1805 C1806 1.502 . S
C1805 C1807 1.561 . S
C1805 C1808 1.526 . S
C1806 H1790 0.959 . S
C1806 H1791 0.959 . S
C1806 H1792 0.961 . S
C1806 C1805 1.502 . S
C1807 H1793 0.960 . S
C1807 H1794 0.961 . S
C1807 H1795 0.959 . S
C1807 C1805 1.561 . S
C1808 C1805 1.526 . S
C1808 C1809 1.396 . S
C1808 C1813 1.390 . S
C1809 C1803 1.465 . S
C1809 C1808 1.396 . S
C1809 C1810 1.399 . S
C1810 H1796 0.929 . S
C1810 C1809 1.399 . S
C1810 C1811 1.385 . S
C1811 H1797 0.931 . S
C1811 C1810 1.385 . S
C1811 C1812 1.389 . S
C1812 C1811 1.389 . S
C1812 C1813 1.387 . S
C1813 H1798 0.930 . S
C1813 C1808 1.390 . S
C1813 C1812 1.387 . S
C543 C347 1.306 . S
C531 C2 1.372 . S
C570 C348 0.657 . S
C558 C65 0.534 . S
C597 C342 1.295 . S
C585 C82 1.315 . S
C612 C145 0.521 . S
C624 C341 0.561 . S
C639 C164 0.449 . S
C651 C344 0.498 . S
C678 C346 1.297 . S
C666 C223 1.305 . S
C693 C244 0.763 . S
C705 C345 0.856 . S
C720 C282 1.426 . S
C732 C343 1.274 . S
C759 C378 3.300 . S
C747 C31 3.263 . S
C774 C60 1.847 . S
C786 C409 1.760 . S
C813 C377 3.428 . S
C801 C111 3.455 . S
C840 C412 1.447 . S
C828 C140 1.430 . S
C855 C162 1.753 . S
C867 C375 1.688 1_556 S
C894 C407 1.445 . S
C882 C225 1.365 . S
C909 C242 1.561 . S
C921 C380 1.478 1_556 S
C936 C311 2.411 . S
C948 C414 2.384 . S
C963 C4 0.983 . S
C975 C410 1.006 . S
C990 C191 1.240 . S
C1002 C413 1.250 . S
C1029 C381 2.747 . S
C1017 C220 2.829 . S
C1056 C408 0.958 . S
C1044 C271 1.017 . S
C1071 C284 1.642 . S
C1083 C374 1.683 1_556 S
C1098 C84 0.795 . S
C1110 C411 0.914 . S
C1137 C376 0.943 . S
C1125 C143 0.909 . S
C1152 C63 1.340 . S
C1164 C379 1.391 . S
C1179 C303 1.335 . S
C1191 C446 1.248 . S
C1206 C185 0.354 . S
C1218 C447 0.331 . S
C1245 C441 1.403 . S
C1233 C202 1.447 . S
C1272 C440 1.153 . S
C1260 C265 1.109 . S
C1287 C44 0.287 . S
C1299 C443 0.376 . S
C1326 C445 1.489 . S
C1314 C103 1.535 . S
C1341 C124 0.936 . S
C1353 C444 0.936 . S
C1368 C23 1.339 . S
C1380 C442 1.235 . S
C1395 C305 1.712 . S
C1407 C480 1.713 . S
C1434 C512 0.951 . S
C1422 C180 0.932 . S
C1449 C231 2.698 . S
C1461 C473 2.708 . S
C1476 C260 1.420 . S
C1488 C507 1.446 . S
C1515 C478 1.104 . S
C1503 C42 1.052 . S
C1530 C105 1.052 . S
C1542 C509 1.119 . S
C1569 C475 1.327 . S
C1557 C122 1.287 . S
C1596 C510 1.005 . S
C1584 C25 1.044 . S
C1623 C506 2.398 . S
C1611 C300 2.323 . S
C1638 C71 1.473 . S
C1650 C508 1.419 . S
C1665 C100 3.350 . S
C1677 C477 3.360 . S
C1704 C511 1.740 . S
C1692 C151 1.765 . S
C1719 C20 3.517 . S
C1731 C476 3.425 . S
C1746 C204 1.599 . S
C1758 C513 1.601 . S
C1785 C479 1.761 . S
C1773 C263 1.834 . S
C1812 C474 1.565 . S
C1800 C183 1.513 . S
