# Generated by pormake.
# Topology gar, (4,6)-cn, num edge types: 1
# Building blocks:
#     Node 0, Type 0, BuildingBlock: NAHDIM_clean_sbu_0, # of connection points: 4
#     Node 1, Type 0, BuildingBlock: NAHDIM_clean_sbu_0, # of connection points: 4
#     Node 2, Type 0, BuildingBlock: NAHDIM_clean_sbu_0, # of connection points: 4
#     Node 3, Type 0, BuildingBlock: NAHDIM_clean_sbu_0, # of connection points: 4
#     Node 4, Type 0, BuildingBlock: NAHDIM_clean_sbu_0, # of connection points: 4
#     Node 5, Type 0, BuildingBlock: NAHDIM_clean_sbu_0, # of connection points: 4
#     Node 6, Type 0, BuildingBlock: NAHDIM_clean_sbu_0, # of connection points: 4
#     Node 7, Type 0, BuildingBlock: NAHDIM_clean_sbu_0, # of connection points: 4
#     Node 8, Type 0, BuildingBlock: NAHDIM_clean_sbu_0, # of connection points: 4
#     Node 9, Type 0, BuildingBlock: NAHDIM_clean_sbu_0, # of connection points: 4
#     Node 10, Type 0, BuildingBlock: NAHDIM_clean_sbu_0, # of connection points: 4
#     Node 11, Type 0, BuildingBlock: NAHDIM_clean_sbu_0, # of connection points: 4
#     Node 12, Type 0, BuildingBlock: NAHDIM_clean_sbu_0, # of connection points: 4
#     Node 13, Type 0, BuildingBlock: NAHDIM_clean_sbu_0, # of connection points: 4
#     Node 14, Type 0, BuildingBlock: NAHDIM_clean_sbu_0, # of connection points: 4
#     Node 15, Type 0, BuildingBlock: NAHDIM_clean_sbu_0, # of connection points: 4
#     Node 16, Type 0, BuildingBlock: NAHDIM_clean_sbu_0, # of connection points: 4
#     Node 17, Type 0, BuildingBlock: NAHDIM_clean_sbu_0, # of connection points: 4
#     Node 18, Type 0, BuildingBlock: NAHDIM_clean_sbu_0, # of connection points: 4
#     Node 19, Type 0, BuildingBlock: NAHDIM_clean_sbu_0, # of connection points: 4
#     Node 20, Type 0, BuildingBlock: NAHDIM_clean_sbu_0, # of connection points: 4
#     Node 21, Type 0, BuildingBlock: NAHDIM_clean_sbu_0, # of connection points: 4
#     Node 22, Type 0, BuildingBlock: NAHDIM_clean_sbu_0, # of connection points: 4
#     Node 23, Type 0, BuildingBlock: NAHDIM_clean_sbu_0, # of connection points: 4
#     Node 24, Type 1, BuildingBlock: BETDIP_clean_sbu_0, # of connection points: 6
#     Node 25, Type 1, BuildingBlock: BETDIP_clean_sbu_0, # of connection points: 6
#     Node 26, Type 1, BuildingBlock: BETDIP_clean_sbu_0, # of connection points: 6
#     Node 27, Type 1, BuildingBlock: BETDIP_clean_sbu_0, # of connection points: 6
#     Node 28, Type 1, BuildingBlock: BETDIP_clean_sbu_0, # of connection points: 6
#     Node 29, Type 1, BuildingBlock: BETDIP_clean_sbu_0, # of connection points: 6
#     Node 30, Type 1, BuildingBlock: BETDIP_clean_sbu_0, # of connection points: 6
#     Node 31, Type 1, BuildingBlock: BETDIP_clean_sbu_0, # of connection points: 6
#     Node 32, Type 1, BuildingBlock: BETDIP_clean_sbu_0, # of connection points: 6
#     Node 33, Type 1, BuildingBlock: BETDIP_clean_sbu_0, # of connection points: 6
#     Node 34, Type 1, BuildingBlock: BETDIP_clean_sbu_0, # of connection points: 6
#     Node 35, Type 1, BuildingBlock: BETDIP_clean_sbu_0, # of connection points: 6
#     Node 36, Type 1, BuildingBlock: BETDIP_clean_sbu_0, # of connection points: 6
#     Node 37, Type 1, BuildingBlock: BETDIP_clean_sbu_0, # of connection points: 6
#     Node 38, Type 1, BuildingBlock: BETDIP_clean_sbu_0, # of connection points: 6
#     Node 39, Type 1, BuildingBlock: BETDIP_clean_sbu_0, # of connection points: 6
#     Edge 40, Type (0, 1), BuildingBlock: MIFKUJ_clean_linker_0, # of connection points: 2
#     Edge 41, Type (0, 1), BuildingBlock: MIFKUJ_clean_linker_0, # of connection points: 2
#     Edge 42, Type (0, 1), BuildingBlock: MIFKUJ_clean_linker_0, # of connection points: 2
#     Edge 43, Type (0, 1), BuildingBlock: MIFKUJ_clean_linker_0, # of connection points: 2
#     Edge 44, Type (0, 1), BuildingBlock: MIFKUJ_clean_linker_0, # of connection points: 2
#     Edge 45, Type (0, 1), BuildingBlock: MIFKUJ_clean_linker_0, # of connection points: 2
#     Edge 46, Type (0, 1), BuildingBlock: MIFKUJ_clean_linker_0, # of connection points: 2
#     Edge 47, Type (0, 1), BuildingBlock: MIFKUJ_clean_linker_0, # of connection points: 2
#     Edge 48, Type (0, 1), BuildingBlock: MIFKUJ_clean_linker_0, # of connection points: 2
#     Edge 49, Type (0, 1), BuildingBlock: MIFKUJ_clean_linker_0, # of connection points: 2
#     Edge 50, Type (0, 1), BuildingBlock: MIFKUJ_clean_linker_0, # of connection points: 2
#     Edge 51, Type (0, 1), BuildingBlock: MIFKUJ_clean_linker_0, # of connection points: 2
#     Edge 52, Type (0, 1), BuildingBlock: MIFKUJ_clean_linker_0, # of connection points: 2
#     Edge 53, Type (0, 1), BuildingBlock: MIFKUJ_clean_linker_0, # of connection points: 2
#     Edge 54, Type (0, 1), BuildingBlock: MIFKUJ_clean_linker_0, # of connection points: 2
#     Edge 55, Type (0, 1), BuildingBlock: MIFKUJ_clean_linker_0, # of connection points: 2
#     Edge 56, Type (0, 1), BuildingBlock: MIFKUJ_clean_linker_0, # of connection points: 2
#     Edge 57, Type (0, 1), BuildingBlock: MIFKUJ_clean_linker_0, # of connection points: 2
#     Edge 58, Type (0, 1), BuildingBlock: MIFKUJ_clean_linker_0, # of connection points: 2
#     Edge 59, Type (0, 1), BuildingBlock: MIFKUJ_clean_linker_0, # of connection points: 2
#     Edge 60, Type (0, 1), BuildingBlock: MIFKUJ_clean_linker_0, # of connection points: 2
#     Edge 61, Type (0, 1), BuildingBlock: MIFKUJ_clean_linker_0, # of connection points: 2
#     Edge 62, Type (0, 1), BuildingBlock: MIFKUJ_clean_linker_0, # of connection points: 2
#     Edge 63, Type (0, 1), BuildingBlock: MIFKUJ_clean_linker_0, # of connection points: 2
#     Edge 64, Type (0, 1), BuildingBlock: MIFKUJ_clean_linker_0, # of connection points: 2
#     Edge 65, Type (0, 1), BuildingBlock: MIFKUJ_clean_linker_0, # of connection points: 2
#     Edge 66, Type (0, 1), BuildingBlock: MIFKUJ_clean_linker_0, # of connection points: 2
#     Edge 67, Type (0, 1), BuildingBlock: MIFKUJ_clean_linker_0, # of connection points: 2
#     Edge 68, Type (0, 1), BuildingBlock: MIFKUJ_clean_linker_0, # of connection points: 2
#     Edge 69, Type (0, 1), BuildingBlock: MIFKUJ_clean_linker_0, # of connection points: 2
#     Edge 70, Type (0, 1), BuildingBlock: MIFKUJ_clean_linker_0, # of connection points: 2
#     Edge 71, Type (0, 1), BuildingBlock: MIFKUJ_clean_linker_0, # of connection points: 2
#     Edge 72, Type (0, 1), BuildingBlock: MIFKUJ_clean_linker_0, # of connection points: 2
#     Edge 73, Type (0, 1), BuildingBlock: MIFKUJ_clean_linker_0, # of connection points: 2
#     Edge 74, Type (0, 1), BuildingBlock: MIFKUJ_clean_linker_0, # of connection points: 2
#     Edge 75, Type (0, 1), BuildingBlock: MIFKUJ_clean_linker_0, # of connection points: 2
#     Edge 76, Type (0, 1), BuildingBlock: MIFKUJ_clean_linker_0, # of connection points: 2
#     Edge 77, Type (0, 1), BuildingBlock: MIFKUJ_clean_linker_0, # of connection points: 2
#     Edge 78, Type (0, 1), BuildingBlock: MIFKUJ_clean_linker_0, # of connection points: 2
#     Edge 79, Type (0, 1), BuildingBlock: MIFKUJ_clean_linker_0, # of connection points: 2
#     Edge 80, Type (0, 1), BuildingBlock: MIFKUJ_clean_linker_0, # of connection points: 2
#     Edge 81, Type (0, 1), BuildingBlock: MIFKUJ_clean_linker_0, # of connection points: 2
#     Edge 82, Type (0, 1), BuildingBlock: MIFKUJ_clean_linker_0, # of connection points: 2
#     Edge 83, Type (0, 1), BuildingBlock: MIFKUJ_clean_linker_0, # of connection points: 2
#     Edge 84, Type (0, 1), BuildingBlock: MIFKUJ_clean_linker_0, # of connection points: 2
#     Edge 85, Type (0, 1), BuildingBlock: MIFKUJ_clean_linker_0, # of connection points: 2
#     Edge 86, Type (0, 1), BuildingBlock: MIFKUJ_clean_linker_0, # of connection points: 2
#     Edge 87, Type (0, 1), BuildingBlock: MIFKUJ_clean_linker_0, # of connection points: 2
#     Edge 88, Type (0, 1), BuildingBlock: MIFKUJ_clean_linker_0, # of connection points: 2
#     Edge 89, Type (0, 1), BuildingBlock: MIFKUJ_clean_linker_0, # of connection points: 2
#     Edge 90, Type (0, 1), BuildingBlock: MIFKUJ_clean_linker_0, # of connection points: 2
#     Edge 91, Type (0, 1), BuildingBlock: MIFKUJ_clean_linker_0, # of connection points: 2
#     Edge 92, Type (0, 1), BuildingBlock: MIFKUJ_clean_linker_0, # of connection points: 2
#     Edge 93, Type (0, 1), BuildingBlock: MIFKUJ_clean_linker_0, # of connection points: 2
#     Edge 94, Type (0, 1), BuildingBlock: MIFKUJ_clean_linker_0, # of connection points: 2
#     Edge 95, Type (0, 1), BuildingBlock: MIFKUJ_clean_linker_0, # of connection points: 2
#     Edge 96, Type (0, 1), BuildingBlock: MIFKUJ_clean_linker_0, # of connection points: 2
#     Edge 97, Type (0, 1), BuildingBlock: MIFKUJ_clean_linker_0, # of connection points: 2
#     Edge 98, Type (0, 1), BuildingBlock: MIFKUJ_clean_linker_0, # of connection points: 2
#     Edge 99, Type (0, 1), BuildingBlock: MIFKUJ_clean_linker_0, # of connection points: 2
#     Edge 100, Type (0, 1), BuildingBlock: MIFKUJ_clean_linker_0, # of connection points: 2
#     Edge 101, Type (0, 1), BuildingBlock: MIFKUJ_clean_linker_0, # of connection points: 2
#     Edge 102, Type (0, 1), BuildingBlock: MIFKUJ_clean_linker_0, # of connection points: 2
#     Edge 103, Type (0, 1), BuildingBlock: MIFKUJ_clean_linker_0, # of connection points: 2
#     Edge 104, Type (0, 1), BuildingBlock: MIFKUJ_clean_linker_0, # of connection points: 2
#     Edge 105, Type (0, 1), BuildingBlock: MIFKUJ_clean_linker_0, # of connection points: 2
#     Edge 106, Type (0, 1), BuildingBlock: MIFKUJ_clean_linker_0, # of connection points: 2
#     Edge 107, Type (0, 1), BuildingBlock: MIFKUJ_clean_linker_0, # of connection points: 2
#     Edge 108, Type (0, 1), BuildingBlock: MIFKUJ_clean_linker_0, # of connection points: 2
#     Edge 109, Type (0, 1), BuildingBlock: MIFKUJ_clean_linker_0, # of connection points: 2
#     Edge 110, Type (0, 1), BuildingBlock: MIFKUJ_clean_linker_0, # of connection points: 2
#     Edge 111, Type (0, 1), BuildingBlock: MIFKUJ_clean_linker_0, # of connection points: 2
#     Edge 112, Type (0, 1), BuildingBlock: MIFKUJ_clean_linker_0, # of connection points: 2
#     Edge 113, Type (0, 1), BuildingBlock: MIFKUJ_clean_linker_0, # of connection points: 2
#     Edge 114, Type (0, 1), BuildingBlock: MIFKUJ_clean_linker_0, # of connection points: 2
#     Edge 115, Type (0, 1), BuildingBlock: MIFKUJ_clean_linker_0, # of connection points: 2
#     Edge 116, Type (0, 1), BuildingBlock: MIFKUJ_clean_linker_0, # of connection points: 2
#     Edge 117, Type (0, 1), BuildingBlock: MIFKUJ_clean_linker_0, # of connection points: 2
#     Edge 118, Type (0, 1), BuildingBlock: MIFKUJ_clean_linker_0, # of connection points: 2
#     Edge 119, Type (0, 1), BuildingBlock: MIFKUJ_clean_linker_0, # of connection points: 2
#     Edge 120, Type (0, 1), BuildingBlock: MIFKUJ_clean_linker_0, # of connection points: 2
#     Edge 121, Type (0, 1), BuildingBlock: MIFKUJ_clean_linker_0, # of connection points: 2
#     Edge 122, Type (0, 1), BuildingBlock: MIFKUJ_clean_linker_0, # of connection points: 2
#     Edge 123, Type (0, 1), BuildingBlock: MIFKUJ_clean_linker_0, # of connection points: 2
#     Edge 124, Type (0, 1), BuildingBlock: MIFKUJ_clean_linker_0, # of connection points: 2
#     Edge 125, Type (0, 1), BuildingBlock: MIFKUJ_clean_linker_0, # of connection points: 2
#     Edge 126, Type (0, 1), BuildingBlock: MIFKUJ_clean_linker_0, # of connection points: 2
#     Edge 127, Type (0, 1), BuildingBlock: MIFKUJ_clean_linker_0, # of connection points: 2
#     Edge 128, Type (0, 1), BuildingBlock: MIFKUJ_clean_linker_0, # of connection points: 2
#     Edge 129, Type (0, 1), BuildingBlock: MIFKUJ_clean_linker_0, # of connection points: 2
#     Edge 130, Type (0, 1), BuildingBlock: MIFKUJ_clean_linker_0, # of connection points: 2
#     Edge 131, Type (0, 1), BuildingBlock: MIFKUJ_clean_linker_0, # of connection points: 2
#     Edge 132, Type (0, 1), BuildingBlock: MIFKUJ_clean_linker_0, # of connection points: 2
#     Edge 133, Type (0, 1), BuildingBlock: MIFKUJ_clean_linker_0, # of connection points: 2
#     Edge 134, Type (0, 1), BuildingBlock: MIFKUJ_clean_linker_0, # of connection points: 2
#     Edge 135, Type (0, 1), BuildingBlock: MIFKUJ_clean_linker_0, # of connection points: 2
# Relax obj value: 0.164
# Max RMSD: 0.269
# Mean RMSD: 0.163
data_MOF--net-gar--node1-NAHDIM_clean_sbu_0--node2-BETDIP_clean_sbu_0--edge1-MIFKUJ_clean_linker_0
_symmetry_space_group_name_H-M    P1
_symmetry_Int_Tables_number       1
_symmetry_cell_setting            triclinic
loop_
_symmetry_equiv_pos_as_xyz
'x, y, z'
_cell_length_a     80.988298
_cell_length_b     73.411983
_cell_length_c     69.784296
_cell_angle_alpha  96.894838
_cell_angle_beta   98.461319
_cell_angle_gamma 100.81273
loop_
_atom_site_label
_atom_site_type_symbol
_atom_site_fract_x
_atom_site_fract_y
_atom_site_fract_z
_atom_type_partial_charge
C0 C 0.05777 0.31255 0.35602 0.0
O1 O 0.05878 0.3274 0.36902 0.0
O2 O 0.02523 0.27439 0.38315 0.0
Zn3 Zn 0.02619 0.29682 0.36926 0.0
O4 O 0.02839 0.31967 0.3894 0.0
C5 C 0.99475 0.27735 0.344 0.0
O6 O 0.99983 0.26218 0.34851 0.0
O7 O 0.04538 0.29865 0.35419 0.0
C8 C 0.01564 0.32738 0.39022 0.0
O9 O 1.00155 0.32081 0.3774 0.0
C10 C 0.01477 0.27164 0.39493 0.0
O11 O 1.00512 0.28382 0.39811 0.0
O12 O 1.00438 0.29331 0.35038 0.0
C13 C 0.00799 0.7297 0.68385 0.0
O14 O 0.00693 0.73097 0.6651 0.0
O15 O 0.04255 0.72031 0.65851 0.0
Zn16 Zn 0.04262 0.74013 0.68123 0.0
O17 O 0.04022 0.76457 0.6718 0.0
C18 C 0.07776 0.74127 0.69324 0.0
O19 O 0.07637 0.73679 0.67419 0.0
O20 O 0.02266 0.73234 0.69439 0.0
C21 C 0.0527 0.77821 0.6727 0.0
O22 O 0.06817 0.77658 0.67994 0.0
C23 C 0.04459 0.72404 0.64157 0.0
O24 O 0.04589 0.7414 0.6381 0.0
O25 O 0.0646 0.74364 0.70032 0.0
C26 C 0.5617 0.8044 0.86114 0.0
O27 O 0.56544 0.80759 0.88038 0.0
O28 O 0.53098 0.77001 0.88266 0.0
Zn29 Zn 0.52799 0.79196 0.86884 0.0
O30 O 0.52858 0.81459 0.88855 0.0
C31 C 0.49697 0.7692 0.84483 0.0
O32 O 0.5035 0.75496 0.84963 0.0
O33 O 0.54635 0.79767 0.8529 0.0
C34 C 0.53445 0.81599 0.90672 0.0
O35 O 0.54096 0.80236 0.91328 0.0
C36 C 0.51992 0.76383 0.89276 0.0
O37 O 0.50694 0.77205 0.89395 0.0
O38 O 0.50526 0.78587 0.851 0.0
C39 C 0.51555 0.23217 0.20503 0.0
O40 O 0.52052 0.21618 0.20204 0.0
O41 O 0.54024 0.22361 0.16444 0.0
Zn42 Zn 0.54288 0.24691 0.18434 0.0
O43 O 0.54541 0.26966 0.17077 0.0
C44 C 0.57756 0.24694 0.19741 0.0
O45 O 0.57697 0.24378 0.17836 0.0
O46 O 0.52298 0.24634 0.19847 0.0
C47 C 0.55506 0.28547 0.17801 0.0
O48 O 0.56386 0.28777 0.19583 0.0
C49 C 0.54087 0.22483 0.1465 0.0
O50 O 0.54211 0.24132 0.14069 0.0
O51 O 0.56407 0.2489 0.20395 0.0
C52 C 0.02283 0.77637 0.15433 0.0
O53 O 0.02074 0.76408 0.1384 0.0
O54 O 0.05131 0.76379 0.12381 0.0
Zn55 Zn 0.05622 0.78866 0.14292 0.0
O56 O 0.05671 0.81219 0.12919 0.0
C57 C 0.08492 0.77655 0.16534 0.0
O58 O 0.07428 0.76018 0.16091 0.0
O59 O 0.03708 0.78806 0.15962 0.0
C60 C 0.04945 0.81272 0.11181 0.0
O61 O 0.04126 0.79694 0.10073 0.0
C62 C 0.06271 0.75773 0.11561 0.0
O63 O 0.07798 0.76853 0.11794 0.0
O64 O 0.07989 0.79094 0.16002 0.0
C65 C 0.54048 0.75043 0.40119 0.0
O66 O 0.54242 0.74657 0.41919 0.0
O67 O 0.50825 0.73156 0.42724 0.0
Zn68 Zn 0.50727 0.75323 0.41079 0.0
O69 O 0.51281 0.77879 0.42868 0.0
C70 C 0.47735 0.76464 0.38997 0.0
O71 O 0.48713 0.78138 0.3959 0.0
O72 O 0.52614 0.75366 0.39375 0.0
C73 C 0.50236 0.78464 0.43868 0.0
O74 O 0.48767 0.7734 0.43864 0.0
C75 C 0.49784 0.71568 0.42341 0.0
O76 O 0.48514 0.71288 0.40859 0.0
O77 O 0.48323 0.75027 0.39386 0.0
C78 C 0.53052 0.27392 0.66091 0.0
O79 O 0.5339 0.25752 0.65512 0.0
O80 O 0.55686 0.26335 0.62435 0.0
Zn81 Zn 0.55925 0.28911 0.64092 0.0
O82 O 0.55746 0.3101 0.62387 0.0
C83 C 0.58773 0.2817 0.66754 0.0
O84 O 0.57643 0.26631 0.66759 0.0
O85 O 0.53986 0.28869 0.65725 0.0
C86 C 0.56936 0.32452 0.62501 0.0
O87 O 0.58391 0.32569 0.63672 0.0
C88 C 0.54382 0.25359 0.61258 0.0
O89 O 0.52992 0.26039 0.60957 0.0
O90 O 0.58317 0.29419 0.65796 0.0
C91 C 0.03976 0.24429 0.89209 0.0
O92 O 0.03611 0.22915 0.90024 0.0
O93 O 0.01225 0.23186 0.9253 0.0
Zn94 Zn 0.01049 0.25382 0.90921 0.0
O95 O 0.01397 0.27912 0.92749 0.0
C96 C 0.97334 0.25091 0.89748 0.0
O97 O 0.9741 0.25376 0.91657 0.0
O98 O 0.0304 0.25643 0.89339 0.0
C99 C 0.0074 0.29231 0.92136 0.0
O100 O 0.99847 0.28936 0.90356 0.0
C101 C 1.00032 0.21825 0.92674 0.0
O102 O 0.98473 0.21766 0.91784 0.0
O103 O 0.98703 0.24978 0.89077 0.0
C104 C 0.39601 0.08197 0.26292 0.0
O105 O 0.41258 0.08776 0.26444 0.0
O106 O 0.41785 0.03976 0.23477 0.0
Zn107 Zn 0.40536 0.04108 0.26108 0.0
O108 O 0.42263 0.04473 0.28909 0.0
C109 C 0.3911 0.99801 0.25242 0.0
O110 O 0.40401 0.99826 0.24298 0.0
O111 O 0.3903 0.06401 0.26137 0.0
C112 C 0.42982 0.03183 0.29542 0.0
O113 O 0.42759 0.01589 0.28362 0.0
C114 C 0.43284 0.03686 0.23296 0.0
O115 O 0.44277 0.03465 0.2488 0.0
O116 O 0.38875 0.01387 0.26041 0.0
C117 C 0.29317 0.12607 0.5172 0.0
O118 O 0.28845 0.13103 0.53395 0.0
O119 O 0.26787 0.16091 0.52673 0.0
Zn120 Zn 0.26493 0.14341 0.50079 0.0
O121 O 0.26488 0.15782 0.47711 0.0
C122 C 0.22988 0.13143 0.50575 0.0
O123 O 0.23297 0.14916 0.51366 0.0
O124 O 0.28485 0.12938 0.50145 0.0
C125 C 0.2653 0.17535 0.47779 0.0
O126 O 0.26546 0.18544 0.49471 0.0
C127 C 0.28114 0.17253 0.53601 0.0
O128 O 0.29518 0.17467 0.52844 0.0
O129 O 0.24164 0.12518 0.49841 0.0
C130 C 0.15653 0.99938 0.79614 0.0
O131 O 0.14029 0.99427 0.78822 0.0
O132 O 0.13292 0.03043 0.77433 0.0
Zn133 Zn 0.14795 0.03573 0.80109 0.0
O134 O 0.13351 0.03323 0.82232 0.0
C135 C 0.17369 0.06414 0.7927 0.0
O136 O 0.17408 0.0501 0.7793 0.0
O137 O 0.16279 0.0166 0.80267 0.0
C138 C 0.13751 0.04375 0.83887 0.0
O139 O 0.15117 0.05732 0.84216 0.0
C140 C 0.12774 0.04355 0.76645 0.0
O141 O 0.13186 0.06069 0.77618 0.0
O142 O 0.1632 0.06154 0.80449 0.0
C143 C 0.21569 0.88873 0.02873 0.0
O144 O 0.21886 0.87234 0.03192 0.0
O145 O 0.25379 0.87346 0.0223 0.0
Zn146 Zn 0.24332 0.89069 0.00635 0.0
O147 O 0.23768 0.87904 0.97789 0.0
C148 C 0.26968 0.92065 0.0271 0.0
O149 O 0.26492 0.91313 0.0421 0.0
O150 O 0.22377 0.89792 0.01748 0.0
C151 C 0.25041 0.88038 0.96904 0.0
O152 O 0.26532 0.88997 0.97851 0.0
C153 C 0.25768 0.85831 0.01541 0.0
O154 O 0.25349 0.85205 0.99656 0.0
O155 O 0.26153 0.91391 0.00995 0.0
C156 C 0.2691 0.40447 0.0434 0.0
O157 O 0.26597 0.38608 0.03927 0.0
O158 O 0.30442 0.38437 0.07135 0.0
Zn159 Zn 0.30358 0.39819 0.04736 0.0
O160 O 0.29783 0.37998 0.02153 0.0
C161 C 0.34086 0.4124 0.05664 0.0
O162 O 0.34015 0.39862 0.0671 0.0
O163 O 0.28461 0.41334 0.0476 0.0
C164 C 0.30941 0.37384 0.01381 0.0
O165 O 0.3252 0.37838 0.02334 0.0
C166 C 0.29673 0.36743 0.07076 0.0
O167 O 0.28808 0.35804 0.05394 0.0
O168 O 0.32695 0.41533 0.04759 0.0
C169 C 0.86095 0.18081 0.06435 0.0
O170 O 0.86323 0.19832 0.06119 0.0
O171 O 0.83245 0.20616 0.09721 0.0
Zn172 Zn 0.82847 0.18652 0.07364 0.0
O173 O 0.82201 0.19716 0.04928 0.0
C174 C 0.79399 0.17301 0.07413 0.0
O175 O 0.79443 0.19099 0.07415 0.0
O176 O 0.84769 0.17366 0.07071 0.0
C177 C 0.81955 0.21373 0.04926 0.0
O178 O 0.82288 0.2254 0.06581 0.0
C179 C 0.84448 0.21025 0.11187 0.0
O180 O 0.857 0.20113 0.11263 0.0
O181 O 0.80784 0.16719 0.07484 0.0
C182 C 0.17324 0.45915 0.28524 0.0
O183 O 0.15675 0.4529 0.28391 0.0
O184 O 0.14755 0.49753 0.25738 0.0
Zn185 Zn 0.16297 0.49993 0.28648 0.0
O186 O 0.14759 0.49946 0.3106 0.0
C187 C 0.17398 0.54207 0.28489 0.0
O188 O 0.15745 0.53986 0.27912 0.0
O189 O 0.17849 0.47718 0.28652 0.0
C190 C 0.14758 0.51341 0.32388 0.0
O191 O 0.15746 0.52958 0.32309 0.0
C192 C 0.13312 0.50233 0.25283 0.0
O193 O 0.12573 0.50829 0.26721 0.0
O194 O 0.17965 0.52758 0.28942 0.0
C195 C 0.77053 0.9103 0.54127 0.0
O196 O 0.76778 0.89366 0.53061 0.0
O197 O 0.80487 0.88651 0.57374 0.0
Zn198 Zn 0.80432 0.90165 0.55061 0.0
O199 O 0.79936 0.88502 0.52374 0.0
C200 C 0.83952 0.91195 0.54497 0.0
O201 O 0.83575 0.89424 0.53689 0.0
O202 O 0.78536 0.91704 0.55142 0.0
C203 C 0.80013 0.86782 0.51991 0.0
O204 O 0.80411 0.85866 0.53439 0.0
C205 C 0.79285 0.87313 0.57541 0.0
O206 O 0.77935 0.86821 0.56147 0.0
O207 O 0.82812 0.91879 0.55247 0.0
C208 C 0.91547 0.03863 0.26001 0.0
O209 O 0.93127 0.04255 0.26952 0.0
O210 O 0.93409 1.00146 0.2253 0.0
Zn211 Zn 0.92278 1.00177 0.24944 0.0
O212 O 0.93991 0.00637 0.27478 0.0
C213 C 0.90704 0.96143 0.24023 0.0
O214 O 0.92018 0.95994 0.23157 0.0
O215 O 0.90937 0.02235 0.2503 0.0
C216 C 0.94432 0.99303 0.28294 0.0
O217 O 0.93852 0.97569 0.27407 0.0
C218 C 0.94389 0.01621 0.22243 0.0
O219 O 0.94707 0.03129 0.23569 0.0
O220 O 0.90579 0.97747 0.24831 0.0
C221 C 0.35429 0.66823 0.5368 0.0
O222 O 0.34555 0.67891 0.52757 0.0
O223 O 0.33515 0.69187 0.58011 0.0
Zn224 Zn 0.32859 0.66811 0.56078 0.0
O225 O 0.31204 0.67128 0.53805 0.0
C226 C 0.30389 0.65264 0.58125 0.0
O227 O 0.30393 0.67063 0.58483 0.0
O228 O 0.34931 0.6617 0.55155 0.0
C229 C 0.30294 0.65712 0.52645 0.0
O230 O 0.3051 0.6402 0.52885 0.0
C231 C 0.33047 0.70693 0.57671 0.0
O232 O 0.32182 0.70757 0.55943 0.0
O233 O 0.31521 0.64752 0.57228 0.0
C234 C 0.41828 0.5383 0.75241 0.0
O235 O 0.43466 0.54202 0.75971 0.0
O236 O 0.43657 0.49929 0.7249 0.0
Zn237 Zn 0.42427 0.50091 0.74808 0.0
O238 O 0.44064 0.50728 0.77387 0.0
C239 C 0.39642 0.46814 0.7344 0.0
O240 O 0.39368 0.47629 0.7188 0.0
O241 O 0.41073 0.52133 0.74624 0.0
C242 C 0.44745 0.49483 0.78113 0.0
O243 O 0.44445 0.47788 0.77106 0.0
C244 C 0.4512 0.50955 0.72549 0.0
O245 O 0.45866 0.52085 0.74175 0.0
O246 O 0.40855 0.47609 0.74829 0.0
C247 C 0.67497 0.96264 0.78132 0.0
O248 O 0.65975 0.95771 0.77033 0.0
O249 O 0.64959 0.99998 0.7593 0.0
Zn250 Zn 0.66483 1.00308 0.78852 0.0
O251 O 0.64869 1.00374 0.81176 0.0
C252 C 0.67687 0.04572 0.78906 0.0
O253 O 0.66035 0.04485 0.78674 0.0
O254 O 0.67961 0.97992 0.79 0.0
C255 C 0.65367 0.01088 0.83006 0.0
O256 O 0.66995 0.01854 0.83573 0.0
C257 C 0.63658 0.00735 0.75473 0.0
O258 O 0.63102 0.01637 0.76907 0.0
O259 O 0.68211 0.03037 0.79094 0.0
C260 C 0.79721 0.6388 0.00499 0.0
O261 O 0.79999 0.65586 1.00053 0.0
O262 O 0.76469 0.66356 0.03041 0.0
Zn263 Zn 0.76259 0.64578 0.00474 0.0
O264 O 0.76305 0.65939 0.98044 0.0
C265 C 0.72533 0.63205 0.99701 0.0
O266 O 0.72551 0.64845 0.9912 0.0
O267 O 0.7822 0.63132 0.0072 0.0
C268 C 0.7643 0.67701 0.98079 0.0
O269 O 0.76508 0.6876 0.9976 0.0
C270 C 0.77759 0.67588 0.03946 0.0
O271 O 0.79148 0.67885 0.03169 0.0
O272 O 0.73952 0.62748 1.00256 0.0
C273 C 0.89654 0.58504 0.76483 0.0
O274 O 0.91317 0.59098 0.76746 0.0
O275 O 0.91915 0.54411 0.73533 0.0
Zn276 Zn 0.90599 0.54414 0.76116 0.0
O277 O 0.92399 0.54722 0.78863 0.0
C278 C 0.88605 0.50215 0.74663 0.0
O279 O 0.89158 0.50398 0.73004 0.0
O280 O 0.89084 0.567 0.76211 0.0
C281 C 0.92037 0.53792 0.80258 0.0
O282 O 0.90519 0.52688 0.79993 0.0
C283 C 0.92768 0.53206 0.7291 0.0
O284 O 0.92926 0.51835 0.73928 0.0
O285 O 0.88976 0.51656 0.76017 0.0
C286 C 0.71046 0.38837 0.51922 0.0
O287 O 0.70415 0.37055 0.51242 0.0
O288 O 0.73106 0.35845 0.49372 0.0
Zn289 Zn 0.72982 0.38451 0.48825 0.0
O290 O 0.71283 0.38637 0.46456 0.0
C291 C 0.76468 0.40194 0.50212 0.0
O292 O 0.76044 0.39658 0.51835 0.0
O293 O 0.72202 0.39735 0.51136 0.0
C294 C 0.7102 0.37888 0.4467 0.0
O295 O 0.69916 0.38428 0.43403 0.0
C296 C 0.74325 0.3505 0.49045 0.0
O297 O 0.75468 0.35847 0.48081 0.0
O298 O 0.7534 0.39845 0.48668 0.0
C299 C 0.66158 0.50616 0.28803 0.0
O300 O 0.65678 0.50865 0.26989 0.0
O301 O 0.62845 0.53226 0.27296 0.0
Zn302 Zn 0.64385 0.53641 0.29949 0.0
O303 O 0.63059 0.53673 0.32189 0.0
C304 C 0.66969 0.56477 0.29007 0.0
O305 O 0.66912 0.55151 0.2754 0.0
O306 O 0.65762 0.51625 0.30205 0.0
C307 C 0.61605 0.52627 0.32129 0.0
O308 O 0.60852 0.51512 0.30499 0.0
C309 C 0.61991 0.51655 0.26363 0.0
O310 O 0.62045 0.50122 0.27146 0.0
O311 O 0.65998 0.56152 0.30255 0.0
Tb312 Tb 0.01676 0.01116 0.01334 0.0
Tb313 Tb 0.05132 0.0303 0.03554 0.0
C314 C 0.98527 1.00452 1.00139 0.0
C315 C 0.97393 0.01788 1.00268 0.0
C316 C 0.97775 0.03261 0.01852 0.0
C317 C 0.96858 0.04682 0.01879 0.0
C318 C 0.95535 0.04655 1.00329 0.0
C319 C 0.95111 0.03153 0.98771 0.0
C320 C 0.96048 0.01732 0.98733 0.0
C321 C 0.04188 0.00949 0.99364 0.0
C322 C 0.03012 0.05557 0.01512 0.0
C323 C 0.08271 0.0387 0.04907 0.0
C324 C 0.09432 0.02772 0.05806 0.0
C325 C 0.09245 0.00866 0.05074 0.0
C326 C 0.10236 0.99776 0.06019 0.0
C327 C 0.11459 1.00575 0.07691 0.0
C328 C 0.1169 0.02495 0.08399 0.0
C329 C 0.10664 0.03584 0.07472 0.0
C330 C 0.02593 0.03213 0.05489 0.0
C331 C 0.03755 0.98558 0.03444 0.0
O332 O 0.99211 1.00064 0.01822 0.0
O333 O 0.99647 0.00801 0.98987 0.0
O334 O 0.04033 0.0232 0.0054 0.0
O335 O 0.02832 0.99627 0.99155 0.0
O336 O 0.01693 0.04152 0.01435 0.0
O337 O 0.04588 0.0536 0.02098 0.0
O338 O 0.07644 0.0332 0.03043 0.0
O339 O 0.07107 0.04241 0.0592 0.0
O340 O 0.02775 0.01837 0.04344 0.0
O341 O 0.0393 0.04551 0.05672 0.0
O342 O 0.0506 1.00026 0.03805 0.0
O343 O 0.02224 0.98679 0.02571 0.0
H344 H 0.98814 0.03343 0.03052 0.0
H345 H 0.97185 0.05806 0.03115 0.0
H346 H 0.94085 0.03104 0.97568 0.0
H347 H 0.95748 1.00617 0.97491 0.0
H348 H 0.08327 1.00213 0.03773 0.0
H349 H 0.10072 0.98309 0.05418 0.0
H350 H 0.12648 0.03141 0.09671 0.0
H351 H 0.10825 0.05054 0.08059 0.0
Tb352 Tb 0.28506 0.763 0.2498 0.0
Tb353 Tb 0.28029 0.77788 0.29108 0.0
C354 C 0.28071 0.75643 0.21321 0.0
C355 C 0.29091 0.76234 0.19852 0.0
C356 C 0.28622 0.75317 0.17918 0.0
C357 C 0.29476 0.75983 0.16464 0.0
C358 C 0.30808 0.77585 0.16926 0.0
C359 C 0.31327 0.78448 0.18888 0.0
C360 C 0.30479 0.7777 0.20344 0.0
C361 C 0.31289 0.76287 0.27544 0.0
C362 C 0.30041 0.8069 0.2682 0.0
C363 C 0.27895 0.78295 0.32686 0.0
C364 C 0.27509 0.77013 0.34088 0.0
C365 C 0.27925 0.75237 0.33888 0.0
C366 C 0.27483 0.73998 0.35183 0.0
C367 C 0.26617 0.74516 0.36697 0.0
C368 C 0.26174 0.76284 0.36867 0.0
C369 C 0.26618 0.77523 0.35571 0.0
C370 C 0.25716 0.78201 0.26189 0.0
C371 C 0.2673 0.73334 0.27421 0.0
O372 O 0.27512 0.76982 0.22289 0.0
O373 O 0.28681 0.74538 0.22456 0.0
O374 O 0.2995 0.76825 0.27836 0.0
O375 O 0.31082 0.75699 0.25682 0.0
O376 O 0.29601 0.79365 0.2524 0.0
O377 O 0.29683 0.80334 0.28554 0.0
O378 O 0.29323 0.78288 0.32009 0.0
O379 O 0.26607 0.78288 0.31312 0.0
O380 O 0.26393 0.76795 0.26331 0.0
O381 O 0.26317 0.79426 0.27754 0.0
O382 O 0.27097 0.74702 0.28957 0.0
O383 O 0.27056 0.73682 0.25673 0.0
H384 H 0.27555 0.74127 0.17519 0.0
H385 H 0.29028 0.75308 0.1496 0.0
H386 H 0.3235 0.79682 0.19283 0.0
H387 H 0.30867 0.78481 0.2184 0.0
H388 H 0.28599 0.74809 0.32738 0.0
H389 H 0.27863 0.72656 0.35032 0.0
H390 H 0.25491 0.76713 0.38008 0.0
H391 H 0.26262 0.78878 0.35721 0.0
Tb392 Tb 0.55028 0.02286 0.52111 0.0
Tb393 Tb 0.51621 0.0191 0.53013 0.0
C394 C 0.58232 0.02829 0.5228 0.0
C395 C 0.59624 0.01752 0.5253 0.0
C396 C 0.60397 0.01514 0.54403 0.0
C397 C 0.61789 1.00623 0.54628 0.0
C398 C 0.62452 0.99951 0.52991 0.0
C399 C 0.61665 1.00169 0.51119 0.0
C400 C 0.60277 0.01063 0.50893 0.0
C401 C 0.52646 0.022 0.48951 0.0
C402 C 0.52907 0.98223 0.51521 0.0
C403 C 0.48435 0.01353 0.52985 0.0
C404 C 0.47045 0.02421 0.52838 0.0
C405 C 0.46877 0.03655 0.5146 0.0
C406 C 0.45503 0.04579 0.51309 0.0
C407 C 0.44272 0.04302 0.52539 0.0
C408 C 0.44463 0.03082 0.53929 0.0
C409 C 0.45828 0.02154 0.54072 0.0
C410 C 0.54034 0.01994 0.5615 0.0
C411 C 0.53684 0.05972 0.53517 0.0
O412 O 0.57493 0.03182 0.53787 0.0
O413 O 0.57131 0.02394 0.50643 0.0
O414 O 0.52723 0.03043 0.50672 0.0
O415 O 0.53977 0.0146 0.48967 0.0
O416 O 0.5447 0.99252 0.51905 0.0
O417 O 0.51583 0.99003 0.51721 0.0
O418 O 0.49121 0.01037 0.51427 0.0
O419 O 0.4958 0.01792 0.54583 0.0
O420 O 0.53923 0.01138 0.5443 0.0
O421 O 0.52724 0.02768 0.56146 0.0
O422 O 0.52133 0.04922 0.53101 0.0
O423 O 0.55029 0.05206 0.53383 0.0
H424 H 0.59942 0.02036 0.55703 0.0
H425 H 0.62344 1.00455 0.56088 0.0
H426 H 0.62151 0.99693 0.49825 0.0
H427 H 0.59734 0.01245 0.49432 0.0
H428 H 0.478 0.03897 0.50493 0.0
H429 H 0.45413 0.05524 0.50237 0.0
H430 H 0.43534 0.02811 0.54883 0.0
H431 H 0.45923 0.01204 0.5514 0.0
Tb432 Tb 0.26511 0.26992 0.76989 0.0
Tb433 Tb 0.30356 0.27056 0.77769 0.0
C434 C 0.23337 0.26334 0.77028 0.0
C435 C 0.22026 0.26526 0.78283 0.0
C436 C 0.22043 0.25803 0.80063 0.0
C437 C 0.20673 0.25808 0.81088 0.0
C438 C 0.19252 0.26535 0.80359 0.0
C439 C 0.19267 0.27301 0.78604 0.0
C440 C 0.20632 0.27293 0.77582 0.0
C441 C 0.28513 0.29983 0.7625 0.0
C442 C 0.28731 0.28431 0.81327 0.0
C443 C 0.33532 0.27625 0.77741 0.0
C444 C 0.34838 0.27489 0.76459 0.0
C445 C 0.35203 0.28788 0.75171 0.0
C446 C 0.36587 0.28781 0.74171 0.0
C447 C 0.37649 0.27481 0.74436 0.0
C448 C 0.37255 0.26159 0.75694 0.0
C449 C 0.35875 0.26168 0.76692 0.0
C450 C 0.28322 0.24054 0.78465 0.0
C451 C 0.28167 0.257 0.73427 0.0
O452 O 0.24322 0.25146 0.77396 0.0
O453 O 0.24164 0.27861 0.7652 0.0
O454 O 0.28809 0.29092 0.7765 0.0
O455 O 0.26986 0.29287 0.75274 0.0
O456 O 0.27207 0.27789 0.80203 0.0
O457 O 0.30169 0.28469 0.80623 0.0
O458 O 0.32613 0.28902 0.77536 0.0
O459 O 0.32639 0.26058 0.78095 0.0
O460 O 0.28059 0.24964 0.77077 0.0
O461 O 0.29836 0.24746 0.79472 0.0
O462 O 0.29679 0.26404 0.74553 0.0
O463 O 0.26724 0.25562 0.74139 0.0
H464 H 0.23096 0.25198 0.80644 0.0
H465 H 0.20723 0.25231 0.82446 0.0
H466 H 0.18193 0.27851 0.77977 0.0
H467 H 0.20573 0.27838 0.76203 0.0
H468 H 0.34444 0.2984 0.74966 0.0
H469 H 0.36832 0.29807 0.73199 0.0
H470 H 0.38051 0.25155 0.75968 0.0
H471 H 0.35652 0.25171 0.777 0.0
Tb472 Tb 0.03545 0.03973 0.52907 0.0
Tb473 Tb 0.03593 0.99932 0.52177 0.0
C474 C 0.0405 0.07442 0.52822 0.0
C475 C 0.03467 0.08721 0.51526 0.0
C476 C 0.04689 0.0998 0.50841 0.0
C477 C 0.04188 0.11247 0.49653 0.0
C478 C 0.02453 0.11287 0.4914 0.0
C479 C 0.01226 0.10016 0.49813 0.0
C480 C 0.01727 0.08734 0.50989 0.0
C481 C 0.00774 0.01752 0.53544 0.0
C482 C 0.02288 0.0167 0.48553 0.0
C483 C 0.03238 0.96473 0.52277 0.0
C484 C 0.03328 0.95281 0.53821 0.0
C485 C 0.02598 0.95612 0.55504 0.0
C486 C 0.02722 0.94463 0.56956 0.0
C487 C 0.03589 0.92983 0.56753 0.0
C488 C 0.04329 0.92669 0.55077 0.0
C489 C 0.04194 0.93806 0.53622 0.0
C490 C 0.06331 0.022 0.51521 0.0
C491 C 0.04752 0.02192 0.565 0.0
O492 O 0.05 0.06356 0.52124 0.0
O493 O 0.02935 0.06565 0.53758 0.0
O494 O 0.01595 0.01454 0.52177 0.0
O495 O 0.01433 0.03406 0.54524 0.0
O496 O 0.02759 0.03323 0.49697 0.0
O497 O 0.02356 1.00089 0.49256 0.0
O498 O 0.01963 0.97339 0.52106 0.0
O499 O 0.04681 0.97554 0.52139 0.0
O500 O 0.05533 0.02452 0.52919 0.0
O501 O 0.05641 1.0058 0.50479 0.0
O502 O 0.04051 1.00557 0.55396 0.0
O503 O 0.04942 0.03761 0.55735 0.0
H504 H 0.06037 0.09997 0.51243 0.0
H505 H 0.05162 0.12228 0.49177 0.0
H506 H 0.99879 0.10011 0.49426 0.0
H507 H 0.00756 0.07769 0.51488 0.0
H508 H 0.01936 0.96755 0.55699 0.0
H509 H 0.02156 0.9474 0.58245 0.0
H510 H 0.04988 0.91524 0.54878 0.0
H511 H 0.04768 0.93534 0.52337 0.0
Tb512 Tb 0.28134 0.74753 0.77562 0.0
Tb513 Tb 0.29065 0.78828 0.79434 0.0
C514 C 0.28045 0.71554 0.75746 0.0
C515 C 0.29266 0.70306 0.75645 0.0
C516 C 0.31007 0.71016 0.75685 0.0
C517 C 0.32149 0.69807 0.75637 0.0
C518 C 0.31573 0.67858 0.75541 0.0
C519 C 0.29828 0.67166 0.75544 0.0
C520 C 0.28689 0.68377 0.75588 0.0
C521 C 0.27619 0.75474 0.81198 0.0
C522 C 0.31962 0.76666 0.79561 0.0
C523 C 0.29161 0.81978 0.81369 0.0
C524 C 0.28138 0.83414 0.81159 0.0
C525 C 0.28218 0.84801 0.8275 0.0
C526 C 0.27233 0.86161 0.82571 0.0
C527 C 0.26152 0.86162 0.80798 0.0
C528 C 0.26075 0.84757 0.79205 0.0
C529 C 0.27055 0.83391 0.79387 0.0
C530 C 0.29563 0.78184 0.758 0.0
C531 C 0.25226 0.76923 0.77316 0.0
O532 O 0.2837 0.73102 0.74985 0.0
O533 O 0.27548 0.71831 0.77437 0.0
O534 O 0.28866 0.7622 0.80482 0.0
O535 O 0.26614 0.7421 0.79864 0.0
O536 O 0.30928 0.75401 0.78179 0.0
O537 O 0.31402 0.77991 0.80577 0.0
O538 O 0.28359 0.80395 0.81777 0.0
O539 O 0.30078 0.81722 0.80006 0.0
O540 O 0.28337 0.77368 0.76503 0.0
O541 O 0.30498 0.79522 0.77104 0.0
O542 O 0.26258 0.7827 0.78626 0.0
O543 O 0.25772 0.7551 0.76435 0.0
H544 H 0.31482 0.72502 0.75728 0.0
H545 H 0.33474 0.70399 0.75616 0.0
H546 H 0.29337 0.65687 0.75532 0.0
H547 H 0.27354 0.67805 0.75588 0.0
H548 H 0.29036 0.84826 0.84133 0.0
H549 H 0.273 0.87201 0.83827 0.0
H550 H 0.25272 0.84724 0.7781 0.0
H551 H 0.26973 0.8232 0.78145 0.0
Tb552 Tb 0.51846 0.01915 0.01012 0.0
Tb553 Tb 0.55037 0.02217 0.03904 0.0
C554 C 0.4888 0.00728 0.99132 0.0
C555 C 0.47193 1.00369 0.99727 0.0
C556 C 0.46909 0.99363 0.01281 0.0
C557 C 0.45301 0.99011 0.01817 0.0
C558 C 0.43945 0.99671 0.00824 0.0
C559 C 0.44247 0.00717 0.993 0.0
C560 C 0.45855 0.01056 0.98753 0.0
C561 C 0.53494 0.05347 0.02438 0.0
C562 C 0.51638 0.01977 0.05701 0.0
C563 C 0.57949 0.03448 0.05918 0.0
C564 C 0.5966 0.04174 0.05515 0.0
C565 C 0.60509 0.05987 0.06407 0.0
C566 C 0.62093 0.06768 0.05989 0.0
C567 C 0.62866 0.05741 0.04682 0.0
C568 C 0.62034 0.03915 0.03805 0.0
C569 C 0.6043 0.03139 0.04205 0.0
C570 C 0.53374 0.98781 0.02504 0.0
C571 C 0.55248 0.02156 0.99225 0.0
O572 O 0.49902 0.99629 0.99685 0.0
O573 O 0.49665 0.02491 0.99366 0.0
O574 O 0.53285 0.0396 0.03334 0.0
O575 O 0.52659 0.04859 0.00654 0.0
O576 O 0.50828 0.01698 0.03839 0.0
O577 O 0.53333 0.02296 0.06092 0.0
O578 O 0.56841 0.04498 0.05525 0.0
O579 O 0.57297 0.01654 0.05368 0.0
O580 O 0.53589 1.00159 0.01594 0.0
O581 O 0.54217 0.99285 0.04284 0.0
O582 O 0.56054 0.02562 0.01093 0.0
O583 O 0.53549 0.01713 0.98829 0.0
H584 H 0.47923 0.98829 0.02073 0.0
H585 H 0.45112 0.98181 0.02979 0.0
H586 H 0.43239 0.01274 0.98526 0.0
H587 H 0.46054 0.01851 0.97565 0.0
H588 H 0.59936 0.06808 0.07418 0.0
H589 H 0.62726 0.08169 0.06707 0.0
H590 H 0.62612 0.03103 0.02794 0.0
H591 H 0.59792 0.01743 0.03481 0.0
Tb592 Tb 0.27015 0.25911 0.26721 0.0
Tb593 Tb 0.30266 0.285 0.28342 0.0
C594 C 0.23969 0.24242 0.26365 0.0
C595 C 0.22457 0.2499 0.26717 0.0
C596 C 0.22473 0.26122 0.28498 0.0
C597 C 0.21089 0.26935 0.28778 0.0
C598 C 0.19661 0.26649 0.27282 0.0
C599 C 0.19643 0.25514 0.25501 0.0
C600 C 0.2103 0.24691 0.25223 0.0
C601 C 0.28605 0.27358 0.24045 0.0
C602 C 0.27039 0.30372 0.2805 0.0
C603 C 0.33315 0.30224 0.28767 0.0
C604 C 0.34911 0.29553 0.28692 0.0
C605 C 0.3495 0.28015 0.27304 0.0
C606 C 0.36431 0.2731 0.273 0.0
C607 C 0.3791 0.28146 0.28661 0.0
C608 C 0.37891 0.29712 0.30024 0.0
C609 C 0.36394 0.30402 0.30049 0.0
C610 C 0.28649 0.27035 0.31 0.0
C611 C 0.3022 0.24015 0.26981 0.0
O612 O 0.25119 0.24306 0.27916 0.0
O613 O 0.24653 0.24777 0.24886 0.0
O614 O 0.28501 0.28193 0.25698 0.0
O615 O 0.27735 0.25646 0.23819 0.0
O616 O 0.26165 0.28594 0.27661 0.0
O617 O 0.28732 0.30706 0.28247 0.0
O618 O 0.3224 0.29917 0.27109 0.0
O619 O 0.32553 0.29831 0.30239 0.0
O620 O 0.28787 0.26219 0.29356 0.0
O621 O 0.29504 0.28755 0.31239 0.0
O622 O 0.31105 0.25786 0.2748 0.0
O623 O 0.28524 0.23689 0.26699 0.0
H624 H 0.23562 0.26398 0.29676 0.0
H625 H 0.21131 0.2777 0.30181 0.0
H626 H 0.18564 0.25276 0.24316 0.0
H627 H 0.20999 0.23841 0.23832 0.0
H628 H 0.33835 0.27347 0.26221 0.0
H629 H 0.36428 0.26127 0.26208 0.0
H630 H 0.39026 0.30386 0.31077 0.0
H631 H 0.3639 0.3159 0.3113 0.0
Tb632 Tb 0.5344 0.53442 0.02731 0.0
Tb633 Tb 0.53566 0.49424 0.01913 0.0
C634 C 0.54216 0.56947 0.0366 0.0
C635 C 0.5431 0.58535 0.02565 0.0
C636 C 0.54548 0.58325 0.00605 0.0
C637 C 0.54494 0.59808 0.99533 0.0
C638 C 0.54185 0.61513 0.00401 0.0
C639 C 0.53996 0.6173 0.02382 0.0
C640 C 0.5406 0.60251 0.03455 0.0
C641 C 0.50503 0.51128 0.0263 0.0
C642 C 0.52229 0.51522 0.98441 0.0
C643 C 0.53077 0.45925 0.01105 0.0
C644 C 0.53618 0.44515 0.02251 0.0
C645 C 0.52404 0.42965 0.02488 0.0
C646 C 0.52855 0.41722 0.03739 0.0
C647 C 0.54535 0.41998 0.04768 0.0
C648 C 0.55759 0.4353 0.04487 0.0
C649 C 0.55303 0.44783 0.03252 0.0
C650 C 0.56473 0.51806 0.02007 0.0
C651 C 0.54648 0.51272 0.06249 0.0
O652 O 0.55337 0.55901 0.03438 0.0
O653 O 0.52682 0.55953 0.03581 0.0
O654 O 0.51961 0.50907 0.0336 0.0
O655 O 0.50654 0.52751 0.02042 0.0
O656 O 0.52909 0.5315 0.9956 0.0
O657 O 0.52178 0.49917 0.99142 0.0
O658 O 0.51971 0.46794 0.01802 0.0
O659 O 0.54286 0.47072 0.00533 0.0
O660 O 0.55005 0.51956 0.01254 0.0
O661 O 0.56361 0.50229 0.02687 0.0
O662 O 0.54141 0.49662 0.05062 0.0
O663 O 0.54586 0.52893 0.05615 0.0
H664 H 0.54734 0.57004 0.99892 0.0
H665 H 0.5463 0.59596 0.98006 0.0
H666 H 0.5378 0.63038 0.03094 0.0
H667 H 0.53876 0.60433 0.04968 0.0
H668 H 0.51093 0.42748 0.01749 0.0
H669 H 0.51871 0.40578 0.03944 0.0
H670 H 0.5707 0.43772 0.05232 0.0
H671 H 0.56265 0.4598 0.03114 0.0
Tb672 Tb 0.78047 0.2499 0.29447 0.0
Tb673 Tb 0.78388 0.28917 0.31646 0.0
C674 C 0.78271 0.22091 0.27247 0.0
C675 C 0.79312 0.20655 0.27252 0.0
C676 C 0.79139 0.19357 0.25554 0.0
C677 C 0.80096 0.17959 0.25529 0.0
C678 C 0.81245 0.17839 0.27204 0.0
C679 C 0.81419 0.19149 0.28905 0.0
C680 C 0.80462 0.20552 0.28928 0.0
C681 C 0.7775 0.25227 0.3321 0.0
C682 C 0.81692 0.27481 0.31384 0.0
C683 C 0.78045 0.3174 0.33852 0.0
C684 C 0.77013 0.33157 0.33536 0.0
C685 C 0.76614 0.34234 0.35131 0.0
C686 C 0.7564 0.35593 0.34821 0.0
C687 C 0.75055 0.35902 0.32906 0.0
C688 C 0.75459 0.34802 0.31314 0.0
C689 C 0.76414 0.33436 0.31626 0.0
C690 C 0.7875 0.28777 0.27938 0.0
C691 C 0.74745 0.26521 0.29427 0.0
O692 O 0.7906 0.23785 0.27123 0.0
O693 O 0.77257 0.22088 0.28542 0.0
O694 O 0.78749 0.26304 0.32437 0.0
O695 O 0.76926 0.23862 0.31863 0.0
O696 O 0.80791 0.26146 0.29975 0.0
O697 O 0.80958 0.28496 0.32567 0.0
O698 O 0.77185 0.30042 0.33842 0.0
O699 O 0.79271 0.31753 0.3282 0.0
O700 O 0.77753 0.27632 0.28654 0.0
O701 O 0.79454 0.30187 0.29286 0.0
O702 O 0.75599 0.27833 0.30895 0.0
O703 O 0.7554 0.25459 0.28377 0.0
H704 H 0.78261 0.19424 0.24246 0.0
H705 H 0.7995 0.16982 0.24192 0.0
H706 H 0.82282 0.19076 0.30222 0.0
H707 H 0.80612 0.21547 0.30251 0.0
H708 H 0.77047 0.34018 0.36615 0.0
H709 H 0.75326 0.36379 0.36083 0.0
H710 H 0.75067 0.35016 0.29821 0.0
H711 H 0.76703 0.32609 0.30372 0.0
Tb712 Tb 0.01817 0.52274 0.50933 0.0
Tb713 Tb 0.04995 0.52424 0.53818 0.0
C714 C 0.9888 0.51468 0.4888 0.0
C715 C 0.97145 0.50636 0.49138 0.0
C716 C 0.96863 0.49401 0.50499 0.0
C717 C 0.95197 0.48585 0.50676 0.0
C718 C 0.93786 0.49002 0.49505 0.0
C719 C 0.94085 0.50275 0.48176 0.0
C720 C 0.95748 0.51079 0.47992 0.0
C721 C 0.03759 0.55627 0.52143 0.0
C722 C 0.01599 0.52368 0.55587 0.0
C723 C 0.07874 0.53459 0.55982 0.0
C724 C 0.09658 0.54244 0.55884 0.0
C725 C 0.10671 0.55404 0.57541 0.0
C726 C 0.12372 0.5619 0.5752 0.0
C727 C 0.13093 0.55835 0.55836 0.0
C728 C 0.12069 0.54678 0.54165 0.0
C729 C 0.10358 0.53891 0.54187 0.0
C730 C 0.03046 0.49054 0.52714 0.0
C731 C 0.0521 0.5225 0.4915 0.0
O732 O 0.99964 0.50352 0.48884 0.0
O733 O 0.99556 0.53123 0.49898 0.0
O734 O 0.0343 0.54334 0.53138 0.0
O735 O 0.02895 0.55098 0.50383 0.0
O736 O 0.00781 0.51933 0.53727 0.0
O737 O 0.03295 0.52763 0.55969 0.0
O738 O 0.0681 0.54568 0.55656 0.0
O739 O 0.07239 0.51722 0.5515 0.0
O740 O 0.03339 0.50317 0.51661 0.0
O741 O 0.03999 0.49616 0.54426 0.0
O742 O 0.06029 0.52588 0.51009 0.0
O743 O 0.03515 0.51972 0.48759 0.0
H744 H 0.97928 0.49052 0.51409 0.0
H745 H 0.95017 0.47599 0.51702 0.0
H746 H 0.93032 0.50659 0.4728 0.0
H747 H 0.95944 0.52043 0.46947 0.0
H748 H 0.10148 0.55695 0.5886 0.0
H749 H 0.13131 0.57049 0.58841 0.0
H750 H 0.12585 0.54394 0.5284 0.0
H751 H 0.09585 0.53011 0.52887 0.0
Tb752 Tb 0.76349 0.77267 0.27426 0.0
Tb753 Tb 0.80167 0.77097 0.28198 0.0
C754 C 0.73176 0.76802 0.27448 0.0
C755 C 0.71867 0.76798 0.28746 0.0
C756 C 0.71373 0.75267 0.29723 0.0
C757 C 0.69977 0.75172 0.30716 0.0
C758 C 0.69029 0.76598 0.30748 0.0
C759 C 0.69557 0.78151 0.29814 0.0
C760 C 0.7095 0.78245 0.28824 0.0
C761 C 0.78466 0.80096 0.26566 0.0
C762 C 0.78587 0.78539 0.31759 0.0
C763 C 0.83329 0.77419 0.28188 0.0
C764 C 0.84619 0.77483 0.26864 0.0
C765 C 0.8538 0.79182 0.26311 0.0
C766 C 0.86743 0.79267 0.2527 0.0
C767 C 0.87396 0.77658 0.24766 0.0
C768 C 0.86611 0.75953 0.2529 0.0
C769 C 0.85248 0.75869 0.26326 0.0
C770 C 0.78002 0.7423 0.28956 0.0
C771 C 0.7796 0.7592 0.23853 0.0
O772 O 0.74015 0.7544 0.27409 0.0
O773 O 0.74148 0.78415 0.27339 0.0
O774 O 0.78736 0.79223 0.27986 0.0
O775 O 0.76891 0.79542 0.25693 0.0
O776 O 0.77057 0.77922 0.30643 0.0
O777 O 0.8002 0.78543 0.31054 0.0
O778 O 0.82585 0.7885 0.28432 0.0
O779 O 0.82271 0.75816 0.28115 0.0
O780 O 0.77789 0.75137 0.27557 0.0
O781 O 0.79534 0.74845 0.29945 0.0
O782 O 0.79482 0.76559 0.24978 0.0
O783 O 0.76519 0.75845 0.24559 0.0
H784 H 0.72031 0.74111 0.29674 0.0
H785 H 0.69604 0.73945 0.31397 0.0
H786 H 0.68882 0.79292 0.2983 0.0
H787 H 0.71281 0.79434 0.28071 0.0
H788 H 0.84951 0.80461 0.26725 0.0
H789 H 0.87296 0.80601 0.24875 0.0
H790 H 0.87088 0.74689 0.24963 0.0
H791 H 0.8472 0.74544 0.26759 0.0
Tb792 Tb 0.78942 0.26591 0.74948 0.0
Tb793 Tb 0.78449 0.27831 0.78819 0.0
C794 C 0.78545 0.25158 0.714 0.0
C795 C 0.78409 0.25765 0.69461 0.0
C796 C 0.77555 0.27201 0.69029 0.0
C797 C 0.77386 0.27695 0.67146 0.0
C798 C 0.78078 0.26771 0.65668 0.0
C799 C 0.78958 0.25356 0.66125 0.0
C800 C 0.79117 0.24857 0.68002 0.0
C801 C 0.81707 0.26901 0.77624 0.0
C802 C 0.80112 0.30905 0.76333 0.0
C803 C 0.78613 0.29225 0.82324 0.0
C804 C 0.77932 0.28538 0.83997 0.0
C805 C 0.77855 0.2667 0.84292 0.0
C806 C 0.77263 0.26053 0.85928 0.0
C807 C 0.76717 0.27287 0.87285 0.0
C808 C 0.76729 0.29137 0.86935 0.0
C809 C 0.77337 0.29757 0.85305 0.0
C810 C 0.75681 0.27388 0.76145 0.0
C811 C 0.77274 0.23497 0.77492 0.0
O812 O 0.77285 0.25292 0.7235 0.0
O813 O 0.80031 0.25699 0.72541 0.0
O814 O 0.80187 0.26251 0.77801 0.0
O815 O 0.8171 0.27313 0.75874 0.0
O816 O 0.79547 0.29614 0.74757 0.0
O817 O 0.79977 0.30426 0.78087 0.0
O818 O 0.79791 0.28427 0.817 0.0
O819 O 0.77474 0.29448 0.80891 0.0
O820 O 0.77179 0.28144 0.75968 0.0
O821 O 0.75711 0.26891 0.77863 0.0
O822 O 0.77639 0.24842 0.79027 0.0
O823 O 0.77628 0.23901 0.75767 0.0
H824 H 0.77001 0.27925 0.70136 0.0
H825 H 0.76683 0.28775 0.66841 0.0
H826 H 0.79533 0.24639 0.65035 0.0
H827 H 0.79788 0.23751 0.68314 0.0
H828 H 0.78289 0.25697 0.83285 0.0
H829 H 0.77305 0.24631 0.86169 0.0
H830 H 0.76301 0.30114 0.87943 0.0
H831 H 0.77366 0.31197 0.85079 0.0
Tb832 Tb 0.76888 0.76011 0.76857 0.0
Tb833 Tb 0.80102 0.78575 0.7862 0.0
C834 C 0.73845 0.74289 0.76398 0.0
C835 C 0.7225 0.74968 0.76426 0.0
C836 C 0.71179 0.74324 0.77716 0.0
C837 C 0.69847 0.75202 0.78074 0.0
C838 C 0.69555 0.76728 0.77134 0.0
C839 C 0.70555 0.77298 0.75747 0.0
C840 C 0.71906 0.76435 0.75407 0.0
C841 C 0.78568 0.77479 0.74251 0.0
C842 C 0.76888 0.8047 0.78242 0.0
C843 C 0.83155 0.80269 0.79124 0.0
C844 C 0.8459 0.79629 0.78384 0.0
C845 C 0.84325 0.78579 0.76503 0.0
C846 C 0.85643 0.77861 0.75831 0.0
C847 C 0.87252 0.78169 0.77026 0.0
C848 C 0.87517 0.79207 0.78915 0.0
C849 C 0.86193 0.79935 0.79588 0.0
C850 C 0.78399 0.7708 0.81193 0.0
C851 C 0.80106 0.74155 0.77149 0.0
O852 O 0.74881 0.7466 0.78086 0.0
O853 O 0.74646 0.74607 0.74934 0.0
O854 O 0.78431 0.783 0.75899 0.0
O855 O 0.77676 0.75775 0.7399 0.0
O856 O 0.76009 0.78715 0.77594 0.0
O857 O 0.7858 0.80786 0.7871 0.0
O858 O 0.81963 0.80561 0.77785 0.0
O859 O 0.8252 0.79334 0.80421 0.0
O860 O 0.78575 0.76275 0.79557 0.0
O861 O 0.79261 0.78798 0.81468 0.0
O862 O 0.80968 0.75937 0.77559 0.0
O863 O 0.78415 0.73809 0.76947 0.0
H864 H 0.71427 0.73202 0.78521 0.0
H865 H 0.69073 0.74722 0.79129 0.0
H866 H 0.70351 0.78474 0.75009 0.0
H867 H 0.72725 0.76975 0.74421 0.0
H868 H 0.83091 0.78288 0.75555 0.0
H869 H 0.85394 0.77039 0.74383 0.0
H870 H 0.8875 0.7947 0.7986 0.0
H871 H 0.86413 0.80721 0.81052 0.0
Tb872 Tb 0.51751 0.51085 0.51528 0.0
Tb873 Tb 0.55519 0.53165 0.53309 0.0
C874 C 0.48588 0.50466 0.50553 0.0
C875 C 0.4752 0.51878 0.5061 0.0
C876 C 0.47889 0.5335 0.52195 0.0
C877 C 0.47133 0.54895 0.52099 0.0
C878 C 0.45986 0.55005 0.50421 0.0
C879 C 0.45576 0.53507 0.48857 0.0
C880 C 0.46341 0.51955 0.48951 0.0
C881 C 0.54079 0.50777 0.49321 0.0
C882 C 0.5302 0.55527 0.51467 0.0
C883 C 0.58695 0.5399 0.53722 0.0
C884 C 0.60014 0.53419 0.55054 0.0
C885 C 0.61544 0.53225 0.54433 0.0
C886 C 0.62653 0.52302 0.55473 0.0
C887 C 0.62252 0.5156 0.5716 0.0
C888 C 0.60762 0.51864 0.57843 0.0
C889 C 0.59645 0.52774 0.5679 0.0
C890 C 0.53521 0.53134 0.56003 0.0
C891 C 0.5411 0.48841 0.53799 0.0
O892 O 0.49341 0.50184 0.52256 0.0
O893 O 0.49626 0.50634 0.49282 0.0
O894 O 0.54006 0.52202 0.50476 0.0
O895 O 0.52747 0.49467 0.49291 0.0
O896 O 0.51746 0.54078 0.51426 0.0
O897 O 0.54643 0.55442 0.51999 0.0
O898 O 0.57748 0.52601 0.52429 0.0
O899 O 0.57796 0.55089 0.54529 0.0
O900 O 0.53168 0.52471 0.54219 0.0
O901 O 0.55126 0.53937 0.56352 0.0
O902 O 0.55432 0.50235 0.53812 0.0
O903 O 0.52511 0.48922 0.53115 0.0
H904 H 0.48827 0.53354 0.53476 0.0
H905 H 0.47498 0.56038 0.53316 0.0
H906 H 0.4468 0.53545 0.47554 0.0
H907 H 0.46063 0.5085 0.477 0.0
H908 H 0.61833 0.53685 0.53078 0.0
H909 H 0.63767 0.52064 0.54873 0.0
H910 H 0.6042 0.5133 0.59143 0.0
H911 H 0.58454 0.52888 0.57277 0.0
Tb912 Tb 0.05289 0.5257 0.01963 0.0
Tb913 Tb 0.01556 0.52005 0.02719 0.0
C914 C 0.0839 0.52574 0.01846 0.0
C915 C 0.09754 0.51503 0.02175 0.0
C916 C 0.0953 0.49834 0.0299 0.0
C917 C 0.10886 0.48891 0.03304 0.0
C918 C 0.12489 0.49609 0.02817 0.0
C919 C 0.12687 0.51275 0.01986 0.0
C920 C 0.11338 0.52206 0.01671 0.0
C921 C 0.02969 0.53167 0.99059 0.0
C922 C 0.02987 0.48431 0.01433 0.0
C923 C 0.98409 0.52007 0.01995 0.0
C924 C 0.97089 0.53095 0.02411 0.0
C925 C 0.97158 0.54905 0.01905 0.0
C926 C 0.95767 0.55782 0.01971 0.0
C927 C 0.94265 0.54881 0.02549 0.0
C928 C 0.94229 0.53102 0.03133 0.0
C929 C 0.95619 0.52219 0.03054 0.0
C930 C 0.03723 0.51886 0.06046 0.0
C931 C 0.03983 0.56086 0.0374 0.0
O932 O 0.07842 0.53272 0.03393 0.0
O933 O 0.07153 0.51913 0.00352 0.0
O934 O 0.02774 0.51924 1.00172 0.0
O935 O 0.04544 0.54069 0.99524 0.0
O936 O 0.04545 0.49508 0.0178 0.0
O937 O 0.01601 0.49129 0.01541 0.0
O938 O 0.99539 0.52754 0.00997 0.0
O939 O 0.99073 0.51133 0.03354 0.0
O940 O 0.04035 0.52133 0.04359 0.0
O941 O 0.02077 0.5172 0.05886 0.0
O942 O 0.0241 0.55054 0.03372 0.0
O943 O 0.05333 0.55369 0.0347 0.0
H944 H 0.08317 0.49268 0.03393 0.0
H945 H 0.10688 0.47619 0.03956 0.0
H946 H 0.13884 0.51854 0.01556 0.0
H947 H 0.11536 0.53488 0.01034 0.0
H948 H 0.9826 0.5562 0.01381 0.0
H949 H 0.95848 0.57135 0.01482 0.0
H950 H 0.93116 0.52372 0.03625 0.0
H951 H 0.95519 0.5082 0.03435 0.0
H952 H 0.97738 0.19115 0.93836 0.0
H953 H 0.98298 0.16487 0.95498 0.0
H954 H 0.03694 0.18326 0.9561 0.0
H955 H 0.03142 0.20976 0.93959 0.0
H956 H 0.02661 0.14551 0.944 0.0
H957 H 0.02057 0.18954 0.99627 0.0
H958 H 0.00782 0.21178 0.01557 0.0
H959 H 0.96617 0.1673 0.01903 0.0
H960 H 0.9782 0.14484 0.99892 0.0
H961 H 0.05402 0.08514 0.009 0.0
H962 H 0.04922 0.11328 0.99542 0.0
H963 H 0.99492 0.09461 0.99142 0.0
H964 H 0.9996 0.06633 0.00495 0.0
H965 H 0.00607 0.13289 0.00564 0.0
H966 H 0.01221 0.08942 0.95117 0.0
H967 H 0.02667 0.06753 0.93387 0.0
H968 H 0.07031 0.11196 0.93729 0.0
H969 H 0.05619 0.13411 0.95488 0.0
C970 C 0.99047 0.18971 0.94222 0.0
C971 C 1.00395 0.20268 0.93763 0.0
C972 C 0.99366 0.17465 0.9518 0.0
C973 C 0.01041 0.17202 0.95693 0.0
C974 C 0.0239 0.18492 0.95233 0.0
C975 C 0.02073 0.20015 0.94296 0.0
C976 C 0.01375 0.15563 0.96669 0.0
C977 C 0.0223 0.14294 0.95762 0.0
C978 C 0.00791 0.15196 0.98434 0.0
C979 C 1.00017 0.16553 0.99574 0.0
C980 C 0.00849 0.18453 1.00074 0.0
C981 C 1.00138 0.19718 0.01184 0.0
C982 C 0.98609 0.19098 0.01833 0.0
C983 C 0.97787 0.1721 0.01373 0.0
C984 C 0.98481 0.15941 1.00243 0.0
C985 C 0.04104 0.08703 0.0054 0.0
C986 C 0.02721 0.07335 0.0081 0.0
C987 C 0.03831 0.10314 0.99752 0.0
C988 C 0.02169 0.10606 0.99217 0.0
C989 C 0.00787 0.09272 0.99539 0.0
C990 C 0.01058 0.0765 1.00312 0.0
C991 C 0.01875 0.1228 0.98284 0.0
C992 C 0.0103 0.13551 0.99199 0.0
C993 C 0.02478 0.12659 0.96536 0.0
C994 C 0.0332 0.11338 0.95452 0.0
C995 C 0.02494 0.0945 0.94836 0.0
C996 C 0.03307 0.08204 0.93848 0.0
C997 C 0.04942 0.08832 0.93453 0.0
C998 C 0.05765 0.1071 0.94038 0.0
C999 C 0.04958 0.11963 0.95029 0.0
H1000 H 0.0557 0.07863 0.92689 0.0
H1001 H 0.98066 0.20076 0.02704 0.0
H1002 H 0.10979 0.80808 0.18123 0.0
H1003 H 0.13932 0.80943 0.19657 0.0
H1004 H 0.13044 0.74898 0.18593 0.0
H1005 H 0.10088 0.74757 0.17136 0.0
H1006 H 0.14821 0.75968 0.21992 0.0
H1007 H 0.15366 0.7792 0.1577 0.0
H1008 H 0.14983 0.79824 0.1312 0.0
H1009 H 0.17705 0.84786 0.17042 0.0
H1010 H 0.18085 0.82915 0.19723 0.0
H1011 H 0.23555 0.75224 0.23736 0.0
H1012 H 0.20686 0.75158 0.21955 0.0
H1013 H 0.21296 0.81069 0.2398 0.0
H1014 H 0.24152 0.81138 0.25768 0.0
H1015 H 0.19708 0.80068 0.20066 0.0
H1016 H 0.1912 0.77984 0.26282 0.0
H1017 H 0.1956 0.75973 0.28821 0.0
H1018 H 0.16948 0.71096 0.24707 0.0
H1019 H 0.16513 0.73076 0.22135 0.0
C1020 C 0.11412 0.79508 0.18222 0.0
C1021 C 0.10288 0.77772 0.17504 0.0
C1022 C 0.1311 0.79586 0.19088 0.0
C1023 C 0.13737 0.77931 0.19221 0.0
C1024 C 0.12607 0.76199 0.18518 0.0
C1025 C 0.10909 0.76121 0.17678 0.0
C1026 C 0.15556 0.77986 0.20106 0.0
C1027 C 0.15884 0.76847 0.21543 0.0
C1028 C 0.16963 0.79151 0.1956 0.0
C1029 C 0.16738 0.8028 0.17952 0.0
C1030 C 0.15872 0.7942 0.16071 0.0
C1031 C 0.15657 0.80493 0.14563 0.0
C1032 C 0.16315 0.82426 0.14914 0.0
C1033 C 0.17193 0.83289 0.16773 0.0
C1034 C 0.1741 0.82223 0.18287 0.0
C1035 C 0.23086 0.76513 0.23778 0.0
C1036 C 0.24076 0.78184 0.24902 0.0
C1037 C 0.21442 0.76473 0.22767 0.0
C1038 C 0.20762 0.78105 0.22849 0.0
C1039 C 0.21786 0.79791 0.23894 0.0
C1040 C 0.23419 0.79828 0.24919 0.0
C1041 C 0.18959 0.78044 0.21931 0.0
C1042 C 0.18637 0.79185 0.20499 0.0
C1043 C 0.17558 0.76864 0.22461 0.0
C1044 C 0.17799 0.75676 0.24012 0.0
C1045 C 0.1865 0.76481 0.25916 0.0
C1046 C 0.18897 0.75347 0.27361 0.0
C1047 C 0.18286 0.73408 0.26924 0.0
C1048 C 0.17422 0.72598 0.25043 0.0
C1049 C 0.17174 0.73726 0.23591 0.0
H1050 H 0.18479 0.72532 0.28045 0.0
H1051 H 0.16148 0.83254 0.13745 0.0
H1052 H 0.53191 0.81155 0.44352 0.0
H1053 H 0.53668 0.8447 0.45774 0.0
H1054 H 0.48525 0.83608 0.46962 0.0
H1055 H 0.4804 0.803 0.4555 0.0
H1056 H 0.49314 0.86734 0.45212 0.0
H1057 H 0.51851 0.8414 0.50648 0.0
H1058 H 0.53787 0.82369 0.52307 0.0
H1059 H 0.58118 0.86132 0.511 0.0
H1060 H 0.56206 0.87912 0.49409 0.0
H1061 H 0.49944 0.95545 0.51017 0.0
H1062 H 0.49519 0.92183 0.49856 0.0
H1063 H 0.54832 0.9288 0.49319 0.0
H1064 H 0.55276 0.96227 0.50534 0.0
H1065 H 0.53956 0.89811 0.50747 0.0
H1066 H 0.51526 0.92371 0.45272 0.0
H1067 H 0.49664 0.94158 0.43516 0.0
H1068 H 0.45232 0.9049 0.44632 0.0
H1069 H 0.4707 0.88696 0.4642 0.0
C1070 C 0.52166 0.81666 0.4493 0.0
C1071 C 0.50578 0.80453 0.44839 0.0
C1072 C 0.52441 0.83563 0.45747 0.0
C1073 C 0.51135 0.84293 0.46485 0.0
C1074 C 0.49553 0.83083 0.46403 0.0
C1075 C 0.49281 0.81185 0.45602 0.0
C1076 C 0.51397 0.86324 0.47299 0.0
C1077 C 0.50314 0.87401 0.4644 0.0
C1078 C 0.52732 0.87213 0.48865 0.0
C1079 C 0.53884 0.86148 0.49885 0.0
C1080 C 0.53216 0.84581 0.50722 0.0
C1081 C 0.54309 0.83577 0.51671 0.0
C1082 C 0.56074 0.84135 0.51804 0.0
C1083 C 0.5675 0.85701 0.50993 0.0
C1084 C 0.55662 0.86708 0.50041 0.0
C1085 C 0.51024 0.94983 0.50658 0.0
C1086 C 0.52644 0.96165 0.50866 0.0
C1087 C 0.50777 0.93057 0.49982 0.0
C1088 C 0.52136 0.92269 0.49463 0.0
C1089 C 0.53759 0.93443 0.49703 0.0
C1090 C 0.54011 0.95364 0.50396 0.0
C1091 C 0.51869 0.90229 0.48662 0.0
C1092 C 0.52953 0.89148 0.4952 0.0
C1093 C 0.50546 0.8934 0.47078 0.0
C1094 C 0.49437 0.90411 0.45997 0.0
C1095 C 0.50155 0.91953 0.45155 0.0
C1096 C 0.49104 0.92966 0.44152 0.0
C1097 C 0.47331 0.92441 0.43967 0.0
C1098 C 0.46606 0.90897 0.4478 0.0
C1099 C 0.47651 0.89881 0.45787 0.0
H1100 H 0.4652 0.93226 0.4319 0.0
H1101 H 0.56918 0.83356 0.5254 0.0
H1102 H 0.50737 0.2448 0.66904 0.0
H1103 H 0.48154 0.24606 0.68284 0.0
H1104 H 0.49272 0.30638 0.68779 0.0
H1105 H 0.5188 0.30526 0.6741 0.0
H1106 H 0.48145 0.29545 0.72012 0.0
H1107 H 0.46228 0.27944 0.65083 0.0
H1108 H 0.45958 0.26137 0.61797 0.0
H1109 H 0.43597 0.21146 0.63806 0.0
H1110 H 0.43875 0.22919 0.67113 0.0
H1111 H 0.39902 0.30572 0.738 0.0
H1112 H 0.42476 0.30652 0.72343 0.0
H1113 H 0.41529 0.24607 0.71491 0.0
H1114 H 0.38918 0.24513 0.72875 0.0
H1115 H 0.42568 0.25832 0.68377 0.0
H1116 H 0.4457 0.2739 0.75323 0.0
H1117 H 0.44853 0.29177 0.78622 0.0
H1118 H 0.47054 0.34225 0.76594 0.0
H1119 H 0.46764 0.32471 0.73274 0.0
C1120 C 0.50444 0.25839 0.67312 0.0
C1121 C 0.51522 0.27493 0.67034 0.0
C1122 C 0.48955 0.25907 0.68094 0.0
C1123 C 0.48494 0.2763 0.68612 0.0
C1124 C 0.4959 0.29289 0.68386 0.0
C1125 C 0.51083 0.29223 0.67599 0.0
C1126 C 0.46864 0.27688 0.69371 0.0
C1127 C 0.46923 0.28755 0.71201 0.0
C1128 C 0.45265 0.2663 0.68341 0.0
C1129 C 0.45087 0.25562 0.66351 0.0
C1130 C 0.45663 0.26458 0.64828 0.0
C1131 C 0.45507 0.2544 0.62961 0.0
C1132 C 0.44765 0.23526 0.62594 0.0
C1133 C 0.44174 0.22628 0.64093 0.0
C1134 C 0.44329 0.23639 0.65963 0.0
C1135 C 0.40224 0.29256 0.73279 0.0
C1136 C 0.39194 0.27535 0.7347 0.0
C1137 C 0.41714 0.29305 0.72465 0.0
C1138 C 0.42224 0.27637 0.71831 0.0
C1139 C 0.41177 0.25917 0.71976 0.0
C1140 C 0.39687 0.25866 0.72786 0.0
C1141 C 0.43848 0.27676 0.71027 0.0
C1142 C 0.43788 0.26627 0.69186 0.0
C1143 C 0.45445 0.28748 0.7205 0.0
C1144 C 0.45629 0.29803 0.74046 0.0
C1145 C 0.45103 0.28884 0.75577 0.0
C1146 C 0.45266 0.2989 0.77451 0.0
C1147 C 0.45967 0.31814 0.77816 0.0
C1148 C 0.46509 0.32735 0.76308 0.0
C1149 C 0.46347 0.31735 0.7443 0.0
H1150 H 0.46092 0.32591 0.79268 0.0
H1151 H 0.44645 0.22741 0.61148 0.0
H1152 H 0.07679 0.80774 0.66746 0.0
H1153 H 0.0721 0.83564 0.6535 0.0
H1154 H 0.01762 0.81603 0.64723 0.0
H1155 H 0.02221 0.7878 0.66075 0.0
H1156 H 0.02524 0.82715 0.61484 0.0
H1157 H 0.03948 0.85363 0.68222 0.0
H1158 H 0.05617 0.86081 0.71572 0.0
H1159 H 0.09918 0.88999 0.69438 0.0
H1160 H 0.08284 0.88276 0.66068 0.0
H1161 H 0.00989 0.91216 0.58381 0.0
H1162 H 0.01116 0.88861 0.60583 0.0
H1163 H 0.0654 0.89568 0.60689 0.0
H1164 H 0.06419 0.91915 0.58484 0.0
H1165 H 0.05515 0.89206 0.64416 0.0
H1166 H 0.04119 0.86179 0.57635 0.0
H1167 H 0.02403 0.85481 0.54308 0.0
H1168 H 0.97945 0.83295 0.56639 0.0
H1169 H 0.99632 0.84008 0.59986 0.0
C1170 C 0.0638 0.80941 0.66325 0.0
C1171 C 0.04987 0.79553 0.66515 0.0
C1172 C 0.06114 0.82544 0.65539 0.0
C1173 C 0.0445 0.82805 0.64955 0.0
C1174 C 0.03056 0.81432 0.65167 0.0
C1175 C 0.03321 0.7982 0.6594 0.0
C1176 C 0.04171 0.84454 0.64013 0.0
C1177 C 0.0315 0.84137 0.62148 0.0
C1178 C 0.05007 0.8631 0.64863 0.0
C1179 C 0.05996 0.86752 0.66888 0.0
C1180 C 0.05254 0.86145 0.68464 0.0
C1181 C 0.06193 0.86556 0.70367 0.0
C1182 C 0.07873 0.87582 0.70717 0.0
C1183 C 0.08617 0.88203 0.69164 0.0
C1184 C 0.07684 0.87795 0.67258 0.0
C1185 C 0.02211 0.9089 0.58903 0.0
C1186 C 0.03692 0.91729 0.58253 0.0
C1187 C 0.02281 0.89546 0.60154 0.0
C1188 C 0.03836 0.89037 0.60783 0.0
C1189 C 0.0533 0.89945 0.60218 0.0
C1190 C 0.05257 0.91272 0.58951 0.0
C1191 C 0.03889 0.87452 0.61893 0.0
C1192 C 0.0487 0.87783 0.63779 0.0
C1193 C 0.03007 0.8561 0.61073 0.0
C1194 C 0.01996 0.85168 0.59061 0.0
C1195 C 0.0277 0.85565 0.57439 0.0
C1196 C 0.01803 0.85164 0.5555 0.0
C1197 C 1.00065 0.8435 0.55263 0.0
C1198 C 0.99291 0.83929 0.56864 0.0
C1199 C 1.00251 0.84331 0.58757 0.0
H1200 H 0.99318 0.8404 0.53799 0.0
H1201 H 0.08598 0.87898 0.72192 0.0
H1202 H 0.47049 0.74117 0.84716 0.0
H1203 H 0.44028 0.73914 0.83484 0.0
H1204 H 0.45336 0.78795 0.80677 0.0
H1205 H 0.48349 0.79066 0.8202 0.0
H1206 H 0.43042 0.79317 0.82528 0.0
H1207 H 0.43614 0.74102 0.78123 0.0
H1208 H 0.44343 0.71085 0.77001 0.0
H1209 H 0.40852 0.68265 0.80298 0.0
H1210 H 0.40123 0.71269 0.8147 0.0
H1211 H 0.33745 0.75246 0.76965 0.0
H1212 H 0.36773 0.75182 0.7748 0.0
H1213 H 0.37316 0.77843 0.83469 0.0
H1214 H 0.34282 0.77962 0.82935 0.0
H1215 H 0.38677 0.73572 0.79668 0.0
H1216 H 0.41177 0.80631 0.84954 0.0
H1217 H 0.4042 0.83726 0.85569 0.0
H1218 H 0.37824 0.83003 0.79616 0.0
H1219 H 0.38585 0.79917 0.78959 0.0
C1220 C 0.4669 0.75123 0.83804 0.0
C1221 C 0.47922 0.76612 0.83467 0.0
C1222 C 0.44963 0.75001 0.8309 0.0
C1223 C 0.44448 0.76333 0.81975 0.0
C1224 C 0.45697 0.77759 0.81546 0.0
C1225 C 0.47417 0.7791 0.82305 0.0
C1226 C 0.42612 0.76359 0.8143 0.0
C1227 C 0.42094 0.78058 0.81887 0.0
C1228 C 0.41367 0.74727 0.80572 0.0
C1229 C 0.41827 0.72919 0.79901 0.0
C1230 C 0.43015 0.72843 0.78627 0.0
C1231 C 0.43426 0.71134 0.77979 0.0
C1232 C 0.42647 0.69485 0.78582 0.0
C1233 C 0.41456 0.69543 0.79835 0.0
C1234 C 0.41043 0.71249 0.80491 0.0
C1235 C 0.34507 0.75804 0.78397 0.0
C1236 C 0.33783 0.76603 0.79916 0.0
C1237 C 0.36238 0.75769 0.78688 0.0
C1238 C 0.37275 0.76522 0.80506 0.0
C1239 C 0.36546 0.77287 0.8204 0.0
C1240 C 0.34815 0.7735 0.81739 0.0
C1241 C 0.39123 0.76519 0.80784 0.0
C1242 C 0.39636 0.74826 0.8029 0.0
C1243 C 0.40372 0.78169 0.81538 0.0
C1244 C 0.39924 0.80035 0.81914 0.0
C1245 C 0.40451 0.81136 0.83775 0.0
C1246 C 0.4002 0.82888 0.84131 0.0
C1247 C 0.3907 0.83558 0.82634 0.0
C1248 C 0.38554 0.8248 0.80776 0.0
C1249 C 0.38983 0.80729 0.80412 0.0
H1250 H 0.38736 0.84914 0.82914 0.0
H1251 H 0.42964 0.68163 0.78075 0.0
H1252 H 0.54029 0.22248 0.10705 0.0
H1253 H 0.54245 0.19542 0.08421 0.0
H1254 H 0.54534 0.16265 0.13145 0.0
H1255 H 0.54324 0.18969 0.15448 0.0
H1256 H 0.56941 0.1584 0.10734 0.0
H1257 H 0.50878 0.15688 0.10063 0.0
H1258 H 0.48299 0.17007 0.09442 0.0
H1259 H 0.49312 0.17871 0.03712 0.0
H1260 H 0.51911 0.16578 0.04311 0.0
H1261 H 0.54437 0.06451 0.06353 0.0
H1262 H 0.54905 0.09599 0.08151 0.0
H1263 H 0.54107 0.11804 0.02704 0.0
H1264 H 0.53604 0.08614 0.00879 0.0
H1265 H 0.52232 0.13058 0.05167 0.0
H1266 H 0.5807 0.12768 0.05634 0.0
H1267 H 0.60603 0.11365 0.06213 0.0
H1268 H 0.60074 0.11327 0.1224 0.0
H1269 H 0.57518 0.12696 0.11691 0.0
C1270 C 0.54133 0.20951 0.1126 0.0
C1271 C 0.5415 0.2082 0.13258 0.0
C1272 C 0.54258 0.19407 0.09951 0.0
C1273 C 0.54401 0.17704 0.10614 0.0
C1274 C 0.5443 0.17571 0.12607 0.0
C1275 C 0.54297 0.19112 0.13918 0.0
C1276 C 0.54482 0.16046 0.09221 0.0
C1277 C 0.5591 0.15221 0.09522 0.0
C1278 C 0.53162 0.15285 0.07602 0.0
C1279 C 0.51599 0.16058 0.0724 0.0
C1280 C 0.50558 0.16174 0.08677 0.0
C1281 C 0.49091 0.16914 0.08328 0.0
C1282 C 0.48645 0.17528 0.06541 0.0
C1283 C 0.49661 0.17398 0.05097 0.0
C1284 C 0.51131 0.16661 0.0544 0.0
C1285 C 0.54399 0.07607 0.0553 0.0
C1286 C 0.53992 0.0729 0.03474 0.0
C1287 C 0.54673 0.09411 0.06563 0.0
C1288 C 0.54565 0.10944 0.05563 0.0
C1289 C 0.54205 0.10641 0.03503 0.0
C1290 C 0.53923 0.08824 0.02464 0.0
C1291 C 0.54678 0.12819 0.06695 0.0
C1292 C 0.53284 0.1369 0.06352 0.0
C1293 C 0.56035 0.13625 0.08267 0.0
C1294 C 0.57594 0.1283 0.08617 0.0
C1295 C 0.58487 0.12451 0.07081 0.0
C1296 C 0.59928 0.11662 0.07404 0.0
C1297 C 0.60498 0.11257 0.09262 0.0
C1298 C 0.59631 0.11643 0.10802 0.0
C1299 C 0.58187 0.12429 0.10486 0.0
H1300 H 0.61613 0.10644 0.09508 0.0
H1301 H 0.47508 0.181 0.06273 0.0
H1302 H 0.05706 0.28594 0.32507 0.0
H1303 H 0.08025 0.28173 0.30753 0.0
H1304 H 0.11237 0.33177 0.34248 0.0
H1305 H 0.08901 0.33628 0.3601 0.0
H1306 H 0.11643 0.32746 0.30271 0.0
H1307 H 0.11644 0.29184 0.35611 0.0
H1308 H 0.10358 0.26959 0.37628 0.0
H1309 H 0.09065 0.22583 0.32658 0.0
H1310 H 0.10322 0.24791 0.30603 0.0
H1311 H 0.19655 0.30153 0.29154 0.0
H1312 H 0.17214 0.31273 0.30182 0.0
H1313 H 0.13856 0.26124 0.2719 0.0
H1314 H 0.16291 0.24965 0.26229 0.0
H1315 H 0.13541 0.26771 0.3092 0.0
H1316 H 0.13926 0.30373 0.25662 0.0
H1317 H 0.15248 0.32674 0.23748 0.0
H1318 H 0.15834 0.37079 0.28589 0.0
H1319 H 0.14584 0.34801 0.3056 0.0
C1320 C 0.06898 0.29619 0.32894 0.0
C1321 C 0.07131 0.31129 0.3442 0.0
C1322 C 0.0822 0.29377 0.31886 0.0
C1323 C 0.09805 0.30628 0.32394 0.0
C1324 C 0.10019 0.32196 0.33841 0.0
C1325 C 0.08688 0.32446 0.3485 0.0
C1326 C 0.11268 0.30195 0.31524 0.0
C1327 C 0.12081 0.31454 0.30425 0.0
C1328 C 0.11808 0.28493 0.31712 0.0
C1329 C 0.11063 0.27158 0.32949 0.0
C1330 C 0.11074 0.27751 0.34944 0.0
C1331 C 0.10352 0.26493 0.36095 0.0
C1332 C 0.09627 0.24632 0.35271 0.0
C1333 C 0.09626 0.24025 0.33294 0.0
C1334 C 0.10344 0.25279 0.32136 0.0
C1335 C 0.18393 0.29266 0.28703 0.0
C1336 C 0.18167 0.27458 0.27633 0.0
C1337 C 0.16999 0.29918 0.29272 0.0
C1338 C 0.15355 0.2878 0.28762 0.0
C1339 C 0.15116 0.27022 0.27599 0.0
C1340 C 0.16508 0.26366 0.27039 0.0
C1341 C 0.13919 0.29309 0.29627 0.0
C1342 C 0.13112 0.28066 0.30747 0.0
C1343 C 0.13405 0.31035 0.29465 0.0
C1344 C 0.14188 0.32402 0.28278 0.0
C1345 C 0.14368 0.31826 0.26336 0.0
C1346 C 0.15104 0.33129 0.25237 0.0
C1347 C 0.15642 0.35021 0.26052 0.0
C1348 C 0.15437 0.35613 0.27963 0.0
C1349 C 0.14719 0.34314 0.29075 0.0
H1350 H 0.16207 0.36029 0.25198 0.0
H1351 H 0.09068 0.2366 0.36164 0.0
H1352 H 0.93936 0.98797 0.19129 0.0
H1353 H 0.95069 0.98953 0.16072 0.0
H1354 H 0.97595 0.04718 0.18145 0.0
H1355 H 0.96457 0.04583 0.21186 0.0
H1356 H 0.96 0.04286 0.1439 0.0
H1357 H 0.99755 0.01112 0.182 0.0
H1358 H 1.0048 0.98616 0.20031 0.0
H1359 H 0.98335 0.94485 0.14943 0.0
H1360 H 0.97569 0.96953 0.13093 0.0
H1361 H 0.02335 0.05912 0.08412 0.0
H1362 H 0.00638 0.05527 0.11019 0.0
H1363 H 0.98527 0.99768 0.08419 0.0
H1364 H 1.00243 1.00139 0.0583 0.0
H1365 H 0.99641 0.9999 0.12216 0.0
H1366 H 0.9609 0.03059 0.08292 0.0
H1367 H 0.9537 0.05477 0.06343 0.0
H1368 H 0.97012 0.09678 0.11457 0.0
H1369 H 0.97775 0.07291 0.13432 0.0
C1370 C 0.94737 1.00097 0.18937 0.0
C1371 C 0.95108 0.01676 0.20407 0.0
C1372 C 0.95386 1.00183 0.17189 0.0
C1373 C 0.96427 0.01845 0.16882 0.0
C1374 C 0.96793 0.03422 0.18345 0.0
C1375 C 0.96146 0.03338 0.20089 0.0
C1376 C 0.97141 0.01956 0.15043 0.0
C1377 C 0.96809 0.03358 0.13923 0.0
C1378 C 0.98146 0.00701 0.14392 0.0
C1379 C 0.98584 0.99215 0.15517 0.0
C1380 C 0.9942 0.99669 0.17479 0.0
C1381 C 0.99841 0.98259 0.18519 0.0
C1382 C 0.99447 0.96392 0.17607 0.0
C1383 C 0.98633 0.95931 0.15651 0.0
C1384 C 0.98204 0.97334 0.14607 0.0
C1385 C 0.0149 0.04573 0.08383 0.0
C1386 C 0.01421 0.03056 0.06922 0.0
C1387 C 1.00516 0.04355 0.09869 0.0
C1388 C 0.99447 0.0262 0.09912 0.0
C1389 C 0.99342 0.01119 0.08418 0.0
C1390 C 1.00315 0.01336 0.06933 0.0
C1391 C 0.98527 0.02341 0.11581 0.0
C1392 C 0.98818 0.00908 0.12669 0.0
C1393 C 0.97471 0.03553 0.12188 0.0
C1394 C 0.97004 0.04996 0.11009 0.0
C1395 C 0.96312 0.04501 0.09 0.0
C1396 C 0.95894 0.05866 0.0789 0.0
C1397 C 0.96147 0.0773 0.08775 0.0
C1398 C 0.96817 0.08233 0.10773 0.0
C1399 C 0.97242 0.06874 0.11889 0.0
H1400 H 0.95821 0.08785 0.07914 0.0
H1401 H 0.99778 0.95303 0.18413 0.0
H1402 H 0.29069 0.6336 0.4917 0.0
H1403 H 0.27632 0.64201 0.46153 0.0
H1404 H 0.27426 0.69547 0.4932 0.0
H1405 H 0.28862 0.68733 0.52319 0.0
H1406 H 0.24509 0.66327 0.44917 0.0
H1407 H 0.30279 0.72353 0.47367 0.0
H1408 H 0.33166 0.72972 0.4936 0.0
H1409 H 0.33517 0.67255 0.47676 0.0
H1410 H 0.30649 0.66615 0.45647 0.0
H1411 H 0.27092 0.75555 0.40641 0.0
H1412 H 0.26995 0.73517 0.43145 0.0
H1413 H 0.25421 0.6865 0.3867 0.0
H1414 H 0.25488 0.7069 0.36129 0.0
H1415 H 0.29153 0.71081 0.4337 0.0
H1416 H 0.23325 0.65014 0.4096 0.0
H1417 H 0.20401 0.64382 0.39064 0.0
H1418 H 0.20136 0.70149 0.40598 0.0
H1419 H 0.23049 0.70809 0.42521 0.0
C1420 C 0.28665 0.64689 0.49231 0.0
C1421 C 0.29114 0.66006 0.50956 0.0
C1422 C 0.27831 0.65155 0.47516 0.0
C1423 C 0.27441 0.66937 0.47526 0.0
C1424 C 0.2772 0.68165 0.49295 0.0
C1425 C 0.2856 0.67708 0.50998 0.0
C1426 C 0.27156 0.67716 0.45691 0.0
C1427 C 0.25525 0.67338 0.44543 0.0
C1428 C 0.28488 0.69037 0.45228 0.0
C1429 C 0.30246 0.69434 0.46371 0.0
C1430 C 0.30979 0.71234 0.47411 0.0
C1431 C 0.32611 0.71587 0.48549 0.0
C1432 C 0.33522 0.70152 0.48649 0.0
C1433 C 0.32809 0.68364 0.47602 0.0
C1434 C 0.3118 0.68005 0.46459 0.0
C1435 C 0.26677 0.74054 0.40183 0.0
C1436 C 0.2631 0.73281 0.38189 0.0
C1437 C 0.26632 0.72892 0.41616 0.0
C1438 C 0.26216 0.70937 0.41084 0.0
C1439 C 0.25748 0.70157 0.391 0.0
C1440 C 0.25799 0.71322 0.37657 0.0
C1441 C 0.26486 0.69744 0.42607 0.0
C1442 C 0.28134 0.70044 0.43703 0.0
C1443 C 0.25171 0.68343 0.42992 0.0
C1444 C 0.23411 0.67963 0.41864 0.0
C1445 C 0.2264 0.66145 0.40896 0.0
C1446 C 0.20985 0.65782 0.39817 0.0
C1447 C 0.20086 0.67226 0.39705 0.0
C1448 C 0.20837 0.69034 0.40679 0.0
C1449 C 0.22491 0.69404 0.4176 0.0
H1450 H 0.18805 0.66942 0.38869 0.0
H1451 H 0.34783 0.70427 0.49535 0.0
H1452 H 0.6102 0.02405 0.74225 0.0
H1453 H 0.59581 0.02457 0.7093 0.0
H1454 H 0.62786 0.99031 0.68545 0.0
H1455 H 0.64284 0.99013 0.71892 0.0
H1456 H 0.62302 0.01535 0.66146 0.0
H1457 H 0.58396 0.97269 0.68801 0.0
H1458 H 0.5667 0.96139 0.71217 0.0
H1459 H 0.53958 1.00604 0.70717 0.0
H1460 H 0.55684 0.01776 0.68316 0.0
H1461 H 0.56695 1.00052 0.56629 0.0
H1462 H 0.5842 0.99657 0.59713 0.0
H1463 H 0.55658 0.03028 0.62988 0.0
H1464 H 0.53939 0.03402 0.59934 0.0
H1465 H 0.55976 1.00218 0.64806 0.0
H1466 H 0.60011 0.0453 0.62198 0.0
H1467 H 0.61711 0.05557 0.59718 0.0
H1468 H 0.64143 0.00858 0.60038 0.0
H1469 H 0.62437 0.99786 0.625 0.0
C1470 C 0.6143 0.01648 0.73014 0.0
C1471 C 0.62778 0.00687 0.73371 0.0
C1472 C 0.60586 0.01672 0.71103 0.0
C1473 C 0.61025 0.00717 0.69438 0.0
C1474 C 0.62394 0.99778 0.69776 0.0
C1475 C 0.63252 0.99759 0.71706 0.0
C1476 C 0.60042 0.00711 0.67383 0.0
C1477 C 0.60918 0.01215 0.65854 0.0
C1478 C 0.58225 1.00321 0.6695 0.0
C1479 C 0.5718 0.99619 0.6839 0.0
C1480 C 0.57439 0.98017 0.69216 0.0
C1481 C 0.5646 0.97368 0.70581 0.0
C1482 C 0.55208 0.98302 0.71123 0.0
C1483 C 0.5493 0.99884 0.70297 0.0
C1484 C 0.55907 1.00539 0.68932 0.0
C1485 C 0.56458 0.00713 0.58006 0.0
C1486 C 0.55161 0.01758 0.58009 0.0
C1487 C 0.57458 1.00495 0.59785 0.0
C1488 C 0.572 0.01319 0.61632 0.0
C1489 C 0.55904 0.02362 0.61618 0.0
C1490 C 0.54914 0.02583 0.59851 0.0
C1491 C 0.58231 0.01085 0.6358 0.0
C1492 C 0.57361 1.00532 0.65092 0.0
C1493 C 0.60048 0.01417 0.63984 0.0
C1494 C 0.61084 0.02068 0.62519 0.0
C1495 C 0.609 0.03709 0.61731 0.0
C1496 C 0.61866 0.043 0.6033 0.0
C1497 C 0.63034 0.03274 0.59722 0.0
C1498 C 0.63239 0.01653 0.60513 0.0
C1499 C 0.62272 0.01053 0.6191 0.0
H1500 H 0.63779 0.03732 0.58636 0.0
H1501 H 0.54451 0.97797 0.72181 0.0
H1502 H 0.33195 0.3618 0.99231 0.0
H1503 H 0.32621 0.346 0.9585 0.0
H1504 H 0.27259 0.34564 0.95547 0.0
H1505 H 0.27823 0.3615 0.98952 0.0
H1506 H 0.278 0.31214 0.93762 0.0
H1507 H 0.29579 0.3771 0.93466 0.0
H1508 H 0.31397 0.40885 0.94308 0.0
H1509 H 0.35584 0.38799 0.92388 0.0
H1510 H 0.33797 0.35602 0.9156 0.0
H1511 H 0.26098 0.28987 0.83255 0.0
H1512 H 0.26293 0.30429 0.8665 0.0
H1513 H 0.31771 0.311 0.87535 0.0
H1514 H 0.31592 0.29701 0.84139 0.0
H1515 H 0.30946 0.34223 0.88989 0.0
H1516 H 0.29087 0.2764 0.89394 0.0
H1517 H 0.27161 0.24527 0.88472 0.0
H1518 H 0.22996 0.26859 0.90106 0.0
H1519 H 0.24894 0.29992 0.91017 0.0
C1520 C 0.3189 0.35828 0.98457 0.0
C1521 C 0.30556 0.36304 0.99366 0.0
C1522 C 0.31565 0.34928 0.96516 0.0
C1523 C 0.299 0.34484 0.95432 0.0
C1524 C 0.28555 0.34898 0.96351 0.0
C1525 C 0.2888 0.35809 0.98297 0.0
C1526 C 0.29588 0.33632 0.93328 0.0
C1527 C 0.28469 0.31883 0.9271 0.0
C1528 C 0.3047 0.34495 0.91956 0.0
C1529 C 0.31557 0.36412 0.92467 0.0
C1530 C 0.30892 0.37924 0.9324 0.0
C1531 C 0.31916 0.39728 0.9371 0.0
C1532 C 0.33605 0.40043 0.93401 0.0
C1533 C 0.34275 0.38552 0.92624 0.0
C1534 C 0.33256 0.36744 0.92153 0.0
C1535 C 0.27345 0.29432 0.84173 0.0
C1536 C 0.2883 0.29227 0.83416 0.0
C1537 C 0.27454 0.30251 0.86121 0.0
C1538 C 0.29047 0.30862 0.87363 0.0
C1539 C 0.30527 0.30645 0.86611 0.0
C1540 C 0.30421 0.29838 0.84664 0.0
C1541 C 0.2919 0.31777 0.89427 0.0
C1542 C 0.30274 0.3355 0.90037 0.0
C1543 C 0.28265 0.30939 0.90783 0.0
C1544 C 0.27129 0.29053 0.90256 0.0
C1545 C 0.27758 0.27491 0.89545 0.0
C1546 C 0.26672 0.25723 0.89027 0.0
C1547 C 0.24956 0.25496 0.89226 0.0
C1548 C 0.24325 0.27037 0.89951 0.0
C1549 C 0.25405 0.28809 0.9047 0.0
H1550 H 0.24117 0.24127 0.88822 0.0
H1551 H 0.34393 0.41443 0.93761 0.0
H1552 H 0.95756 0.02707 0.30619 0.0
H1553 H 0.97208 0.03279 0.34036 0.0
H1554 H 0.96831 0.97329 0.33944 0.0
H1555 H 0.95373 0.96743 0.3054 0.0
H1556 H 0.95752 0.98903 0.37111 0.0
H1557 H 0.00622 1.00218 0.33898 0.0
H1558 H 0.02355 0.01796 0.31714 0.0
H1559 H 0.0261 0.0714 0.35137 0.0
H1560 H 0.00857 0.05594 0.37327 0.0
H1561 H 0.01183 0.98538 0.45791 0.0
H1562 H 0.99952 0.98347 0.42353 0.0
H1563 H 1.00556 0.04366 0.43077 0.0
H1564 H 0.01814 0.04578 0.46534 0.0
H1565 H 0.01463 0.02984 0.39643 0.0
H1566 H 0.96701 0.017 0.42923 0.0
H1567 H 0.94976 1.00154 0.45134 0.0
H1568 H 0.94479 0.94813 0.41591 0.0
H1569 H 0.96224 0.96323 0.39374 0.0
C1570 C 0.95998 0.01521 0.31319 0.0
C1571 C 0.95444 0.99678 0.30305 0.0
C1572 C 0.96832 0.01851 0.33272 0.0
C1573 C 0.97132 1.00347 0.34245 0.0
C1574 C 0.96609 0.98511 0.33224 0.0
C1575 C 0.95781 0.9818 0.31274 0.0
C1576 C 0.97923 0.00668 0.3635 0.0
C1577 C 0.97009 0.99777 0.37659 0.0
C1578 C 0.99539 0.01861 0.37078 0.0
C1579 C 1.00592 0.02792 0.35764 0.0
C1580 C 0.01034 0.01731 0.34175 0.0
C1581 C 0.02023 0.02619 0.32938 0.0
C1582 C 0.02588 0.04568 0.33283 0.0
C1583 C 0.02169 0.05631 0.34869 0.0
C1584 C 0.01179 0.0475 0.3611 0.0
C1585 C 0.0106 0.99827 0.45226 0.0
C1586 C 0.01587 0.01574 0.46448 0.0
C1587 C 1.0035 0.99712 0.43257 0.0
C1588 C 1.00139 0.01339 0.42464 0.0
C1589 C 0.00702 0.03092 0.43661 0.0
C1590 C 0.01415 0.03209 0.45638 0.0
C1591 C 0.99304 0.01189 0.40392 0.0
C1592 C 1.00203 0.02117 0.39093 0.0
C1593 C 0.97669 1.00036 0.3967 0.0
C1594 C 0.96606 0.99123 0.40991 0.0
C1595 C 0.96234 1.00194 0.42623 0.0
C1596 C 0.95252 0.99324 0.43876 0.0
C1597 C 0.94622 0.97386 0.43506 0.0
C1598 C 0.94969 0.96314 0.41877 0.0
C1599 C 0.95954 0.97176 0.40621 0.0
H1600 H 0.93861 0.96716 0.44478 0.0
H1601 H 0.03353 0.05253 0.32323 0.0
H1602 H 0.31136 0.73388 0.57913 0.0
H1603 H 0.30777 0.75228 0.60929 0.0
H1604 H 0.34804 0.73168 0.64198 0.0
H1605 H 0.35149 0.71304 0.61203 0.0
H1606 H 0.31782 0.72181 0.6537 0.0
H1607 H 0.35209 0.77786 0.63958 0.0
H1608 H 0.36047 0.80249 0.61968 0.0
H1609 H 0.3119 0.81808 0.61899 0.0
H1610 H 0.30313 0.79336 0.63867 0.0
H1611 H 0.32524 0.79295 0.74494 0.0
H1612 H 0.33188 0.78367 0.71253 0.0
H1613 H 0.2808 0.75044 0.69421 0.0
H1614 H 0.27427 0.7592 0.72684 0.0
H1615 H 0.31581 0.78819 0.67479 0.0
H1616 H 0.28084 0.71954 0.67606 0.0
H1617 H 0.27473 0.6925 0.69373 0.0
H1618 H 0.32802 0.7009 0.71779 0.0
H1619 H 0.33422 0.72854 0.70111 0.0
C1620 C 0.31983 0.73376 0.59263 0.0
C1621 C 0.33146 0.72173 0.59335 0.0
C1622 C 0.31779 0.74433 0.60984 0.0
C1623 C 0.32752 0.74315 0.62785 0.0
C1624 C 0.34032 0.73264 0.62821 0.0
C1625 C 0.34227 0.72199 0.6111 0.0
C1626 C 0.32241 0.74986 0.64647 0.0
C1627 C 0.31745 0.73638 0.65827 0.0
C1628 C 0.32163 0.76875 0.65227 0.0
C1629 C 0.32689 0.78362 0.64043 0.0
C1630 C 0.34313 0.78642 0.63503 0.0
C1631 C 0.34797 0.80043 0.62382 0.0
C1632 C 0.33671 0.81181 0.61803 0.0
C1633 C 0.3206 0.80924 0.62347 0.0
C1634 C 0.3157 0.79524 0.63467 0.0
C1635 C 0.31545 0.78364 0.73398 0.0
C1636 C 0.29931 0.77661 0.73834 0.0
C1637 C 0.31925 0.77838 0.71551 0.0
C1638 C 0.30693 0.76611 0.70112 0.0
C1639 C 0.29063 0.75949 0.7053 0.0
C1640 C 0.28688 0.76458 0.72386 0.0
C1641 C 0.31135 0.7601 0.6819 0.0
C1642 C 0.31611 0.77366 0.67001 0.0
C1643 C 0.31195 0.74125 0.67583 0.0
C1644 C 0.30789 0.72632 0.68783 0.0
C1645 C 0.29113 0.71592 0.68562 0.0
C1646 C 0.28766 0.70049 0.69544 0.0
C1647 C 0.30094 0.69508 0.70703 0.0
C1648 C 0.31768 0.70527 0.7091 0.0
C1649 C 0.32116 0.72094 0.69965 0.0
H1650 H 0.29828 0.68288 0.71426 0.0
H1651 H 0.34048 0.82265 0.60936 0.0
H1652 H 0.61787 0.9982 0.82658 0.0
H1653 H 0.60025 0.99919 0.85256 0.0
H1654 H 0.64518 0.02512 0.89509 0.0
H1655 H 0.66261 0.02392 0.86959 0.0
H1656 H 0.62747 1.00212 0.91255 0.0
H1657 H 0.61144 0.04883 0.87477 0.0
H1658 H 0.60027 0.0607 0.84495 0.0
H1659 H 0.55271 0.02129 0.83898 0.0
H1660 H 0.56368 0.00903 0.86865 0.0
H1661 H 0.58765 0.03181 0.99295 0.0
H1662 H 0.60361 0.02996 0.96577 0.0
H1663 H 0.55665 0.00688 0.9254 0.0
H1664 H 0.54065 0.00939 0.95243 0.0
H1665 H 0.57457 0.02718 0.90618 0.0
H1666 H 0.58998 0.98027 0.94335 0.0
H1667 H 0.60064 0.96785 0.97302 0.0
H1668 H 0.64875 0.00648 0.97972 0.0
H1669 H 0.63832 0.01923 0.95017 0.0
C1670 C 0.62404 1.00412 0.84144 0.0
C1671 C 0.64193 0.01098 0.84554 0.0
C1672 C 0.61384 1.00482 0.85649 0.0
C1673 C 0.62105 0.01246 0.87632 0.0
C1674 C 0.6389 0.01908 0.88029 0.0
C1675 C 0.649 0.01843 0.86538 0.0
C1676 C 0.61044 0.01359 0.89299 0.0
C1677 C 0.61602 0.00784 0.91105 0.0
C1678 C 0.59506 0.02053 0.89158 0.0
C1679 C 0.58845 0.02789 0.87379 0.0
C1680 C 0.59865 0.04261 0.86701 0.0
C1681 C 0.59234 0.04942 0.85015 0.0
C1682 C 0.57581 0.04172 0.84004 0.0
C1683 C 0.56553 0.02722 0.8468 0.0
C1684 C 0.57177 0.02035 0.86364 0.0
C1685 C 0.58063 0.02636 0.97831 0.0
C1686 C 0.56263 0.02077 0.9753 0.0
C1687 C 0.5899 0.0251 0.96254 0.0
C1688 C 0.5817 0.01784 0.94298 0.0
C1689 C 0.56368 0.01251 0.93999 0.0
C1690 C 0.55441 0.01393 0.9557 0.0
C1691 C 0.59169 0.01583 0.9258 0.0
C1692 C 0.586 0.02142 0.90767 0.0
C1693 C 0.60692 0.0086 0.92707 0.0
C1694 C 0.61332 1.00081 0.94466 0.0
C1695 C 0.60281 0.98616 0.95121 0.0
C1696 C 0.60881 0.97906 0.96799 0.0
C1697 C 0.62535 0.98641 0.97828 0.0
C1698 C 0.63594 1.00082 0.97175 0.0
C1699 C 0.63 0.00797 0.95496 0.0
H1700 H 0.62996 0.98092 0.99129 0.0
H1701 H 0.57096 0.04701 0.82699 0.0
H1702 H 0.3126 0.38273 0.10847 0.0
H1703 H 0.31231 0.36788 0.13808 0.0
H1704 H 0.28144 0.31689 0.10364 0.0
H1705 H 0.28146 0.33168 0.07412 0.0
H1706 H 0.26909 0.32477 0.13602 0.0
H1707 H 0.32483 0.32171 0.12119 0.0
H1708 H 0.35346 0.33448 0.11447 0.0
H1709 H 0.36599 0.36934 0.17074 0.0
H1710 H 0.33734 0.35695 0.17768 0.0
H1711 H 0.27903 0.25939 0.20141 0.0
H1712 H 0.28236 0.27659 0.17376 0.0
H1713 H 0.30488 0.32751 0.21392 0.0
H1714 H 0.30121 0.31045 0.24171 0.0
H1715 H 0.32193 0.32133 0.1803 0.0
H1716 H 0.2667 0.32448 0.19537 0.0
H1717 H 0.23826 0.31173 0.20257 0.0
H1718 H 0.22498 0.27704 0.14619 0.0
H1719 H 0.25347 0.2894 0.13877 0.0
C1720 C 0.30579 0.36833 0.10718 0.0
C1721 C 0.29707 0.35842 0.08884 0.0
C1722 C 0.30569 0.35981 0.12415 0.0
C1723 C 0.29697 0.34115 0.12317 0.0
C1724 C 0.28826 0.33128 0.10487 0.0
C1725 C 0.28834 0.33977 0.08794 0.0
C1726 C 0.29659 0.33192 0.14114 0.0
C1727 C 0.28069 0.32386 0.14553 0.0
C1728 C 0.31165 0.33112 0.15399 0.0
C1729 C 0.32888 0.33855 0.14986 0.0
C1730 C 0.33365 0.33221 0.13206 0.0
C1731 C 0.34988 0.33936 0.12823 0.0
C1732 C 0.36152 0.35275 0.14215 0.0
C1733 C 0.35696 0.35899 0.15996 0.0
C1734 C 0.34073 0.3519 0.16386 0.0
C1735 C 0.28486 0.2742 0.20438 0.0
C1736 C 0.28985 0.28355 0.22377 0.0
C1737 C 0.28672 0.28403 0.18855 0.0
C1738 C 0.29379 0.30337 0.19175 0.0
C1739 C 0.29943 0.3126 0.21109 0.0
C1740 C 0.29734 0.30282 0.22696 0.0
C1741 C 0.29448 0.314 0.17487 0.0
C1742 C 0.31039 0.32232 0.17076 0.0
C1743 C 0.27945 0.31511 0.16227 0.0
C1744 C 0.26227 0.30772 0.1666 0.0
C1745 C 0.25777 0.31401 0.18458 0.0
C1746 C 0.24163 0.30688 0.18869 0.0
C1747 C 0.22984 0.29355 0.17487 0.0
C1748 C 0.23414 0.28736 0.15689 0.0
C1749 C 0.25028 0.29443 0.15272 0.0
H1750 H 0.21735 0.28804 0.17807 0.0
H1751 H 0.37408 0.35827 0.13916 0.0
H1752 H 0.21491 0.92573 0.03452 0.0
H1753 H 0.19752 0.9412 0.05402 0.0
H1754 H 0.17387 0.88794 0.06813 0.0
H1755 H 0.19164 0.87216 0.04875 0.0
H1756 H 0.15127 0.91207 0.05239 0.0
H1757 H 0.19724 0.91416 0.10423 0.0
H1758 H 0.22747 0.919 0.11957 0.0
H1759 H 0.23528 0.97697 0.1119 0.0
H1760 H 0.20516 0.97243 0.09624 0.0
H1761 H 0.10494 0.97312 0.09095 0.0
H1762 H 0.12218 0.94938 0.09544 0.0
H1763 H 0.16608 0.9878 0.08489 0.0
H1764 H 0.14903 0.0117 0.08121 0.0
H1765 H 0.17631 0.964 0.10733 0.0
H1766 H 0.13607 0.96042 0.04736 0.0
H1767 H 0.10744 0.95753 0.02791 0.0
H1768 H 0.09077 0.90433 0.04608 0.0
H1769 H 0.11912 0.90712 0.06612 0.0
C1770 C 0.20602 0.91723 0.04173 0.0
C1771 C 0.20456 0.8977 0.04002 0.0
C1772 C 0.19623 0.92613 0.05303 0.0
C1773 C 0.18466 0.91571 0.06271 0.0
C1774 C 0.18292 0.89618 0.0609 0.0
C1775 C 0.19299 0.88723 0.0498 0.0
C1776 C 0.17369 0.9255 0.07344 0.0
C1777 C 0.15652 0.92299 0.06488 0.0
C1778 C 0.18081 0.94002 0.08935 0.0
C1779 C 0.19891 0.94293 0.09902 0.0
C1780 C 0.20542 0.92792 0.10572 0.0
C1781 C 0.22254 0.93061 0.11448 0.0
C1782 C 0.23329 0.94828 0.1167 0.0
C1783 C 0.22693 0.9633 0.11019 0.0
C1784 C 0.20982 0.96068 0.10141 0.0
C1785 C 0.11847 0.97668 0.09047 0.0
C1786 C 0.12571 0.99405 0.08552 0.0
C1787 C 0.12827 0.96314 0.09297 0.0
C1788 C 0.14526 0.96665 0.08993 0.0
C1789 C 0.15297 0.98475 0.08721 0.0
C1790 C 0.14324 0.99841 0.08508 0.0
C1791 C 0.15402 0.951 0.0858 0.0
C1792 C 0.17079 0.95251 0.09548 0.0
C1793 C 0.1467 0.93583 0.07049 0.0
C1794 C 0.12961 0.93414 0.05852 0.0
C1795 C 0.12622 0.9482 0.04739 0.0
C1796 C 0.11003 0.94659 0.03629 0.0
C1797 C 0.09721 0.93084 0.03594 0.0
C1798 C 0.10061 0.91662 0.04659 0.0
C1799 C 0.11673 0.91822 0.05785 0.0
H1800 H 0.08468 0.92959 0.02733 0.0
H1801 H 0.24654 0.95033 0.12348 0.0
H1802 H 0.71983 0.60183 0.01674 0.0
H1803 H 0.69248 0.58304 0.02042 0.0
H1804 H 0.66585 0.61536 0.98367 0.0
H1805 H 0.69315 0.63466 0.98062 0.0
H1806 H 0.64951 0.61 0.01181 0.0
H1807 H 0.67038 0.56872 0.96767 0.0
H1808 H 0.69089 0.55118 0.9556 0.0
H1809 H 0.69095 0.52152 0.00502 0.0
H1810 H 0.6706 0.53906 0.01753 0.0
H1811 H 0.56888 0.54618 0.99768 0.0
H1812 H 0.59569 0.5653 0.99276 0.0
H1813 H 0.62393 0.53692 0.03265 0.0
H1814 H 0.59712 0.51729 0.03697 0.0
H1815 H 0.63883 0.54048 1.00189 0.0
H1816 H 0.61668 0.58328 0.04519 0.0
H1817 H 0.59361 0.5989 0.05338 0.0
H1818 H 0.59397 0.62462 1.0013 0.0
H1819 H 0.61691 0.60898 0.99268 0.0
C1820 C 0.70816 0.60486 0.00932 0.0
C1821 C 0.70875 0.61972 0.99828 0.0
C1822 C 0.69246 0.59403 0.01138 0.0
C1823 C 0.67693 0.59749 1.0021 0.0
C1824 C 0.67754 0.61232 0.99103 0.0
C1825 C 0.69322 0.62332 0.9892 0.0
C1826 C 0.6601 0.58582 0.00407 0.0
C1827 C 0.64718 0.5948 0.00943 0.0
C1828 C 0.65685 0.56592 1.0011 0.0
C1829 C 0.6691 0.55534 0.99364 0.0
C1830 C 0.67486 0.55855 0.97604 0.0
C1831 C 0.68644 0.5486 0.96911 0.0
C1832 C 0.69225 0.53528 0.97956 0.0
C1833 C 0.68646 0.53186 0.99695 0.0
C1834 C 0.67489 0.54179 0.00397 0.0
C1835 C 0.58081 0.54409 0.00546 0.0
C1836 C 0.58091 0.53027 0.01777 0.0
C1837 C 0.59617 0.55509 1.0027 0.0
C1838 C 0.61195 0.55283 0.01256 0.0
C1839 C 0.61199 0.53901 0.02488 0.0
C1840 C 0.59666 0.52783 0.02742 0.0
C1841 C 0.62843 0.56465 0.00992 0.0
C1842 C 0.64125 0.55569 0.00437 0.0
C1843 C 0.63145 0.58452 0.01238 0.0
C1844 C 0.61846 0.59489 0.01824 0.0
C1845 C 0.61186 0.59231 0.03551 0.0
C1846 C 0.59879 0.60113 0.04021 0.0
C1847 C 0.59232 0.61272 0.02786 0.0
C1848 C 0.59901 0.61564 0.01086 0.0
C1849 C 0.61207 0.60684 0.00608 0.0
H1850 H 0.58212 0.61944 0.03145 0.0
H1851 H 0.70122 0.52758 0.97416 0.0
H1852 H 0.6634 0.47528 0.26297 0.0
H1853 H 0.67819 0.45006 0.27042 0.0
H1854 H 0.69602 0.47835 0.32974 0.0
H1855 H 0.681 0.50341 0.32257 0.0
H1856 H 0.72169 0.46483 0.30917 0.0
H1857 H 0.66561 0.4442 0.3248 0.0
H1858 H 0.63415 0.43647 0.31765 0.0
H1859 H 0.63531 0.39444 0.26973 0.0
H1860 H 0.66681 0.40212 0.27642 0.0
H1861 H 0.75387 0.3934 0.35155 0.0
H1862 H 0.73819 0.41793 0.34511 0.0
H1863 H 0.70968 0.38338 0.29181 0.0
H1864 H 0.72459 0.35838 0.29867 0.0
H1865 H 0.68924 0.40035 0.30904 0.0
H1866 H 0.74398 0.41988 0.29175 0.0
H1867 H 0.77541 0.42748 0.29634 0.0
H1868 H 0.77707 0.47118 0.3438 0.0
H1869 H 0.74563 0.46367 0.33966 0.0
C1870 C 0.67052 0.47616 0.27757 0.0
C1871 C 0.67102 0.4913 0.2922 0.0
C1872 C 0.67891 0.46174 0.28181 0.0
C1873 C 0.68811 0.46237 0.30064 0.0
C1874 C 0.68896 0.47765 0.31514 0.0
C1875 C 0.68033 0.4919 0.31102 0.0
C1876 C 0.69676 0.44698 0.30527 0.0
C1877 C 0.71464 0.45077 0.30941 0.0
C1878 C 0.6875 0.42857 0.30495 0.0
C1879 C 0.66857 0.42389 0.30097 0.0
C1880 C 0.65916 0.43343 0.31262 0.0
C1881 C 0.64132 0.42903 0.30868 0.0
C1882 C 0.63274 0.41501 0.29321 0.0
C1883 C 0.64198 0.40532 0.28168 0.0
C1884 C 0.65983 0.40968 0.28555 0.0
C1885 C 0.74405 0.39081 0.33863 0.0
C1886 C 0.74059 0.37382 0.32561 0.0
C1887 C 0.73524 0.405 0.33483 0.0
C1888 C 0.72298 0.40267 0.31777 0.0
C1889 C 0.71916 0.38558 0.30501 0.0
C1890 C 0.72785 0.37133 0.30888 0.0
C1891 C 0.71429 0.41812 0.31306 0.0
C1892 C 0.69638 0.41437 0.30885 0.0
C1893 C 0.72355 0.43652 0.31297 0.0
C1894 C 0.74246 0.44107 0.31553 0.0
C1895 C 0.75105 0.43101 0.30327 0.0
C1896 C 0.76887 0.43532 0.30577 0.0
C1897 C 0.77824 0.44977 0.32039 0.0
C1898 C 0.7698 0.45997 0.3325 0.0
C1899 C 0.75198 0.4557 0.33008 0.0
H1900 H 0.79203 0.45309 0.3223 0.0
H1901 H 0.61892 0.41162 0.29018 0.0
H1902 H 0.79134 0.4123 0.53283 0.0
H1903 H 0.82079 0.42736 0.53218 0.0
H1904 H 0.80777 0.42807 0.47012 0.0
H1905 H 0.77827 0.41283 0.47058 0.0
H1906 H 0.8372 0.41571 0.47934 0.0
H1907 H 0.81328 0.46779 0.50263 0.0
H1908 H 0.79822 0.48498 0.52454 0.0
H1909 H 0.83648 0.48404 0.57384 0.0
H1910 H 0.85165 0.46661 0.55225 0.0
H1911 H 0.91068 0.47725 0.46508 0.0
H1912 H 0.88152 0.46266 0.46716 0.0
H1913 H 0.89567 0.46657 0.52982 0.0
H1914 H 0.92476 0.48213 0.52799 0.0
H1915 H 0.8659 0.4761 0.52121 0.0
H1916 H 0.89012 0.42465 0.49881 0.0
H1917 H 0.90542 0.40698 0.47764 0.0
H1918 H 0.867 0.40585 0.42779 0.0
H1919 H 0.85159 0.42375 0.44861 0.0
C1920 C 0.79471 0.4157 0.51904 0.0
C1921 C 0.78244 0.41141 0.50176 0.0
C1922 C 0.81154 0.42437 0.51872 0.0
C1923 C 0.81643 0.429 0.50114 0.0
C1924 C 0.80425 0.42464 0.48385 0.0
C1925 C 0.78739 0.41599 0.48416 0.0
C1926 C 0.83432 0.43809 0.50071 0.0
C1927 C 0.84342 0.42904 0.4883 0.0
C1928 C 0.84258 0.45518 0.51287 0.0
C1929 C 0.8335 0.46573 0.52585 0.0
C1930 C 0.81841 0.47111 0.51817 0.0
C1931 C 0.80987 0.48093 0.53052 0.0
C1932 C 0.81636 0.48556 0.55057 0.0
C1933 C 0.83144 0.48042 0.5583 0.0
C1934 C 0.84003 0.47059 0.54601 0.0
C1935 C 0.90759 0.47525 0.47936 0.0
C1936 C 0.92011 0.4809 0.49637 0.0
C1937 C 0.89093 0.46666 0.48049 0.0
C1938 C 0.88645 0.46323 0.49861 0.0
C1939 C 0.89885 0.46899 0.51566 0.0
C1940 C 0.91552 0.47772 0.51456 0.0
C1941 C 0.86878 0.4538 0.49971 0.0
C1942 C 0.85972 0.46276 0.51227 0.0
C1943 C 0.86059 0.43654 0.4878 0.0
C1944 C 0.86978 0.42569 0.47524 0.0
C1945 C 0.885 0.42076 0.4833 0.0
C1946 C 0.89368 0.41068 0.47137 0.0
C1947 C 0.88721 0.40534 0.45137 0.0
C1948 C 0.87201 0.41002 0.44328 0.0
C1949 C 0.86329 0.42011 0.45514 0.0
H1950 H 0.89395 0.39753 0.44216 0.0
H1951 H 0.80973 0.49315 0.56011 0.0
H1952 H 0.36013 0.07876 0.2608 0.0
H1953 H 0.34382 0.104 0.26176 0.0
H1954 H 0.39034 0.14505 0.26629 0.0
H1955 H 0.40646 0.12026 0.26574 0.0
H1956 H 0.37382 0.16061 0.28851 0.0
H1957 H 0.35547 0.12934 0.22227 0.0
H1958 H 0.34292 0.10269 0.1959 0.0
H1959 H 0.29581 0.095 0.21819 0.0
H1960 H 0.30816 0.12148 0.24483 0.0
H1961 H 0.33699 0.2404 0.27164 0.0
H1962 H 0.35173 0.21422 0.26961 0.0
H1963 H 0.30367 0.17529 0.26362 0.0
H1964 H 0.28886 0.20155 0.2647 0.0
H1965 H 0.32036 0.15812 0.24264 0.0
H1966 H 0.33885 0.19019 0.30861 0.0
H1967 H 0.3517 0.21688 0.33483 0.0
H1968 H 0.3991 0.22287 0.31325 0.0
H1969 H 0.3864 0.19658 0.28652 0.0
C1970 C 0.36694 0.09313 0.26196 0.0
C1971 C 0.3849 0.09698 0.26315 0.0
C1972 C 0.35748 0.1078 0.26239 0.0
C1973 C 0.3655 0.12705 0.26391 0.0
C1974 C 0.38341 0.13074 0.26518 0.0
C1975 C 0.39277 0.11622 0.26477 0.0
C1976 C 0.35572 0.1434 0.26448 0.0
C1977 C 0.36225 0.15997 0.2782 0.0
C1978 C 0.34024 0.14317 0.25159 0.0
C1979 C 0.3328 0.12724 0.23566 0.0
C1980 C 0.34248 0.12187 0.22163 0.0
C1981 C 0.33539 0.10681 0.20662 0.0
C1982 C 0.3186 0.09712 0.20541 0.0
C1983 C 0.30883 0.10249 0.21917 0.0
C1984 C 0.31586 0.11753 0.23422 0.0
C1985 C 0.32944 0.22633 0.2698 0.0
C1986 C 0.31149 0.22359 0.26835 0.0
C1987 C 0.33803 0.21106 0.26886 0.0
C1988 C 0.3292 0.19212 0.26691 0.0
C1989 C 0.31121 0.18938 0.26519 0.0
C1990 C 0.30261 0.20466 0.26588 0.0
C1991 C 0.33851 0.17538 0.26664 0.0
C1992 C 0.33192 0.15876 0.25297 0.0
C1993 C 0.35399 0.17557 0.27956 0.0
C1994 C 0.36161 0.19152 0.29546 0.0
C1995 C 0.35196 0.19732 0.30934 0.0
C1996 C 0.35922 0.21239 0.32427 0.0
C1997 C 0.37618 0.22162 0.32564 0.0
C1998 C 0.38594 0.21576 0.3121 0.0
C1999 C 0.37871 0.2008 0.29703 0.0
H2000 H 0.38178 0.23327 0.33722 0.0
H2001 H 0.31313 0.08547 0.19378 0.0
H2002 H 0.30633 0.11266 0.48534 0.0
H2003 H 0.33184 0.09915 0.48548 0.0
H2004 H 0.34021 0.10647 0.54864 0.0
H2005 H 0.3149 0.12004 0.54863 0.0
H2006 H 0.36965 0.11759 0.53601 0.0
H2007 H 0.32382 0.06319 0.52091 0.0
H2008 H 0.297 0.04313 0.50234 0.0
H2009 H 0.31936 0.03959 0.45026 0.0
H2010 H 0.34626 0.05985 0.46848 0.0
H2011 H 0.42846 0.0587 0.555 0.0
H2012 H 0.40355 0.07315 0.55222 0.0
H2013 H 0.39835 0.06383 0.48924 0.0
H2014 H 0.42307 0.04889 0.49189 0.0
H2015 H 0.36773 0.05446 0.50013 0.0
H2016 H 0.41407 0.10767 0.51559 0.0
H2017 H 0.44095 0.12753 0.53422 0.0
H2018 H 0.41779 0.13341 0.58554 0.0
H2019 H 0.39082 0.11335 0.56728 0.0
C2020 C 0.31356 0.11134 0.49926 0.0
C2021 C 0.30845 0.11741 0.51697 0.0
C2022 C 0.32815 0.10355 0.49933 0.0
C2023 C 0.33798 0.10163 0.51709 0.0
C2024 C 0.33293 0.10779 0.53474 0.0
C2025 C 0.31835 0.11549 0.53469 0.0
C2026 C 0.35354 0.09332 0.5174 0.0
C2027 C 0.36916 0.1037 0.52833 0.0
C2028 C 0.35313 0.07538 0.50699 0.0
C2029 C 0.33698 0.06321 0.49601 0.0
C2030 C 0.32297 0.05827 0.50546 0.0
C2031 C 0.30776 0.04683 0.495 0.0
C2032 C 0.30646 0.04014 0.47512 0.0
C2033 C 0.32038 0.04482 0.46566 0.0
C2034 C 0.33561 0.05627 0.47604 0.0
C2035 C 0.42201 0.05962 0.54052 0.0
C2036 C 0.42786 0.05258 0.52367 0.0
C2037 C 0.40781 0.06807 0.53896 0.0
C2038 C 0.39908 0.0698 0.52052 0.0
C2039 C 0.40485 0.06275 0.50365 0.0
C2040 C 0.41911 0.05434 0.5052 0.0
C2041 C 0.38381 0.07866 0.51889 0.0
C2042 C 0.36825 0.0684 0.50773 0.0
C2043 C 0.38427 0.09672 0.52908 0.0
C2044 C 0.40046 0.10885 0.5401 0.0
C2045 C 0.41474 0.11307 0.53089 0.0
C2046 C 0.42999 0.12439 0.54138 0.0
C2047 C 0.4311 0.13169 0.56107 0.0
C2048 C 0.41693 0.12772 0.57029 0.0
C2049 C 0.40165 0.11639 0.55987 0.0
H2050 H 0.44292 0.14044 0.56916 0.0
H2051 H 0.29468 0.03128 0.46705 0.0
H2052 H 0.6729 0.5959 0.31743 0.0
H2053 H 0.69166 0.62665 0.31962 0.0
H2054 H 0.71124 0.60641 0.26874 0.0
H2055 H 0.69268 0.57564 0.26654 0.0
H2056 H 0.73665 0.6265 0.29678 0.0
H2057 H 0.68159 0.63335 0.26519 0.0
H2058 H 0.65071 0.6325 0.26195 0.0
H2059 H 0.65963 0.6728 0.31429 0.0
H2060 H 0.69056 0.67366 0.318 0.0
H2061 H 0.75147 0.72363 0.26417 0.0
H2062 H 0.73252 0.69436 0.26697 0.0
H2063 H 0.76329 0.69229 0.32234 0.0
H2064 H 0.78226 0.72185 0.31969 0.0
H2065 H 0.71278 0.6838 0.29372 0.0
H2066 H 0.76464 0.64559 0.32378 0.0
H2067 H 0.79525 0.64625 0.32396 0.0
H2068 H 0.79205 0.6681 0.26945 0.0
H2069 H 0.7614 0.66733 0.26883 0.0
C2070 C 0.68123 0.59797 0.30674 0.0
C2071 C 0.68125 0.58332 0.29176 0.0
C2072 C 0.69191 0.61558 0.30798 0.0
C2073 C 0.70276 0.61887 0.29425 0.0
C2074 C 0.70299 0.60418 0.2795 0.0
C2075 C 0.69231 0.58661 0.27822 0.0
C2076 C 0.71377 0.63764 0.29503 0.0
C2077 C 0.73143 0.63904 0.29624 0.0
C2078 C 0.70696 0.65399 0.29415 0.0
C2079 C 0.68836 0.65339 0.292 0.0
C2080 C 0.67695 0.64188 0.27612 0.0
C2081 C 0.65944 0.64143 0.27417 0.0
C2082 C 0.6532 0.65254 0.28794 0.0
C2083 C 0.66447 0.66416 0.30366 0.0
C2084 C 0.68199 0.66464 0.30569 0.0
C2085 C 0.75402 0.71714 0.27713 0.0
C2086 C 0.76823 0.72507 0.29181 0.0
C2087 C 0.7432 0.70039 0.27868 0.0
C2088 C 0.74652 0.69111 0.29481 0.0
C2089 C 0.76057 0.69916 0.30969 0.0
C2090 C 0.77138 0.71601 0.30818 0.0
C2091 C 0.73563 0.67263 0.2955 0.0
C2092 C 0.718 0.67129 0.29456 0.0
C2093 C 0.74242 0.65628 0.29631 0.0
C2094 C 0.76079 0.65661 0.2964 0.0
C2095 C 0.77048 0.65049 0.31182 0.0
C2096 C 0.78783 0.65088 0.312 0.0
C2097 C 0.79561 0.65728 0.29677 0.0
C2098 C 0.78603 0.66323 0.28128 0.0
C2099 C 0.76868 0.66283 0.28102 0.0
H2100 H 0.80904 0.65759 0.29694 0.0
H2101 H 0.63965 0.65219 0.2864 0.0
H2102 H 0.87568 0.47016 0.71939 0.0
H2103 H 0.86107 0.43889 0.72283 0.0
H2104 H 0.85921 0.45826 0.78308 0.0
H2105 H 0.87426 0.4899 0.77975 0.0
H2106 H 0.8666 0.42434 0.78087 0.0
H2107 H 0.82267 0.44797 0.74432 0.0
H2108 H 0.80944 0.46237 0.71748 0.0
H2109 H 0.8151 0.41729 0.67534 0.0
H2110 H 0.82857 0.40274 0.70192 0.0
H2111 H 0.81034 0.34014 0.79224 0.0
H2112 H 0.82327 0.37251 0.79001 0.0
H2113 H 0.82359 0.35669 0.7286 0.0
H2114 H 0.81003 0.32428 0.73066 0.0
H2115 H 0.81645 0.38943 0.73211 0.0
H2116 H 0.86025 0.36568 0.76827 0.0
H2117 H 0.87309 0.35081 0.79477 0.0
H2118 H 0.86861 0.39613 0.83742 0.0
H2119 H 0.85507 0.41094 0.81112 0.0
C2120 C 0.87213 0.46799 0.73344 0.0
C2121 C 0.87622 0.48299 0.74923 0.0
C2122 C 0.86358 0.44986 0.73536 0.0
C2123 C 0.85854 0.44579 0.75315 0.0
C2124 C 0.86273 0.4607 0.76908 0.0
C2125 C 0.87133 0.47897 0.76714 0.0
C2126 C 0.84927 0.42604 0.755 0.0
C2127 C 0.85545 0.41691 0.77035 0.0
C2128 C 0.8349 0.41568 0.74111 0.0
C2129 C 0.82676 0.42436 0.72511 0.0
C2130 C 0.8212 0.4412 0.72932 0.0
C2131 C 0.81364 0.44937 0.71416 0.0
C2132 C 0.81147 0.44077 0.69472 0.0
C2133 C 0.81681 0.42395 0.6904 0.0
C2134 C 0.82439 0.41572 0.70551 0.0
C2135 C 0.81313 0.34343 0.77819 0.0
C2136 C 0.80909 0.3292 0.76167 0.0
C2137 C 0.82072 0.36215 0.77694 0.0
C2138 C 0.82497 0.3675 0.75919 0.0
C2139 C 0.82067 0.35334 0.74258 0.0
C2140 C 0.81289 0.33461 0.74379 0.0
C2141 C 0.8338 0.38764 0.75797 0.0
C2142 C 0.82756 0.39685 0.7427 0.0
C2143 C 0.84816 0.39804 0.77189 0.0
C2144 C 0.85648 0.38932 0.78773 0.0
C2145 C 0.86187 0.37241 0.7833 0.0
C2146 C 0.86929 0.36399 0.79832 0.0
C2147 C 0.87175 0.37255 0.81781 0.0
C2148 C 0.8667 0.38951 0.82232 0.0
C2149 C 0.8591 0.3979 0.80736 0.0
H2150 H 0.87759 0.36607 0.82942 0.0
H2151 H 0.80562 0.44712 0.683 0.0
H2152 H 0.03805 0.81843 0.07446 0.0
H2153 H 0.03751 0.84819 0.06224 0.0
H2154 H 0.06043 0.87837 0.11973 0.0
H2155 H 0.06101 0.84856 0.13211 0.0
H2156 H 0.0344 0.89341 0.10384 0.0
H2157 H 0.0843 0.87725 0.08389 0.0
H2158 H 0.10178 0.85762 0.06848 0.0
H2159 H 0.0698 0.85329 0.0126 0.0
H2160 H 0.05201 0.87276 0.02773 0.0
H2161 H 0.06739 0.97427 0.04687 0.0
H2162 H 0.07079 0.94581 0.06071 0.0
H2163 H 0.01609 0.92787 0.05276 0.0
H2164 H 0.01263 0.95626 0.03892 0.0
H2165 H 0.06031 0.90829 0.04594 0.0
H2166 H 0.00648 0.90632 0.09256 0.0
H2167 H 0.99209 0.92853 0.10964 0.0
H2168 H 0.03665 0.9724 0.11582 0.0
H2169 H 0.05141 0.95041 0.09912 0.0
C2170 C 0.04305 0.83137 0.08454 0.0
C2171 C 0.04963 0.831 0.1043 0.0
C2172 C 0.04277 0.84844 0.07749 0.0
C2173 C 0.04902 0.86564 0.08999 0.0
C2174 C 0.05551 0.86534 0.10976 0.0
C2175 C 0.05591 0.84824 0.11681 0.0
C2176 C 0.04868 0.88384 0.08237 0.0
C2177 C 0.04008 0.89663 0.09119 0.0
C2178 C 0.05634 0.88837 0.06607 0.0
C2179 C 0.0667 0.87626 0.05699 0.0
C2180 C 0.08087 0.87193 0.06836 0.0
C2181 C 0.09087 0.86089 0.05967 0.0
C2182 C 0.08687 0.85416 0.03959 0.0
C2183 C 0.07286 0.85848 0.02816 0.0
C2184 C 0.06282 0.86952 0.03678 0.0
C2185 C 0.05609 0.9643 0.04801 0.0
C2186 C 0.03976 0.96772 0.04179 0.0
C2187 C 0.05805 0.94793 0.05588 0.0
C2188 C 0.0437 0.9347 0.05801 0.0
C2189 C 0.02738 0.93791 0.05151 0.0
C2190 C 0.02543 0.95416 0.04346 0.0
C2191 C 0.04575 0.91763 0.06714 0.0
C2192 C 0.05465 0.90505 0.0586 0.0
C2193 C 0.03863 0.91349 0.08391 0.0
C2194 C 0.02997 0.92674 0.09437 0.0
C2195 C 0.01324 0.92068 0.09764 0.0
C2196 C 1.00501 0.93324 0.10726 0.0
C2197 C 0.01342 0.95188 0.11373 0.0
C2198 C 0.03012 0.95798 0.11072 0.0
C2199 C 0.03841 0.94547 0.10117 0.0
H2200 H 0.00703 0.9616 0.1211 0.0
H2201 H 0.09464 0.84563 0.03288 0.0
H2202 H 0.94138 0.24706 0.90691 0.0
H2203 H 0.91474 0.24877 0.88628 0.0
H2204 H 0.94122 0.25604 0.83759 0.0
H2205 H 0.96802 0.25424 0.85821 0.0
H2206 H 0.92119 0.28209 0.84309 0.0
H2207 H 0.91396 0.21514 0.83819 0.0
H2208 H 0.91273 0.18509 0.8509 0.0
H2209 H 0.87163 0.19534 0.88032 0.0
H2210 H 0.87277 0.2256 0.86801 0.0
H2211 H 0.84969 0.27565 0.76926 0.0
H2212 H 0.87553 0.27177 0.7897 0.0
H2213 H 0.84625 0.25488 0.83385 0.0
H2214 H 0.82007 0.25801 0.81285 0.0
H2215 H 0.86772 0.23356 0.83139 0.0
H2216 H 0.87461 0.30003 0.83778 0.0
H2217 H 0.87696 0.3317 0.82869 0.0
H2218 H 0.91892 0.32407 0.79965 0.0
H2219 H 0.91663 0.2922 0.80827 0.0
C2220 C 0.94156 0.24884 0.89175 0.0
C2221 C 0.95693 0.2505 0.88426 0.0
C2222 C 0.92624 0.24974 0.87992 0.0
C2223 C 0.92585 0.25243 0.86027 0.0
C2224 C 0.94113 0.25391 0.85267 0.0
C2225 C 0.95646 0.2528 0.86447 0.0
C2226 C 0.9097 0.2546 0.84802 0.0
C2227 C 0.90957 0.27134 0.84023 0.0
C2228 C 0.89429 0.24094 0.84494 0.0
C2229 C 0.89357 0.22273 0.85233 0.0
C2230 C 0.90475 0.21107 0.84751 0.0
C2231 C 0.90405 0.19398 0.85462 0.0
C2232 C 0.89214 0.18833 0.86645 0.0
C2233 C 0.88087 0.19974 0.87117 0.0
C2234 C 0.88153 0.21686 0.86412 0.0
C2235 C 0.84871 0.27116 0.78335 0.0
C2236 C 0.83277 0.26721 0.78942 0.0
C2237 C 0.8636 0.26908 0.79517 0.0
C2238 C 0.86311 0.26336 0.81365 0.0
C2239 C 0.84714 0.25937 0.81975 0.0
C2240 C 0.83214 0.26125 0.80777 0.0
C2241 C 0.87917 0.26109 0.82622 0.0
C2242 C 0.8793 0.24435 0.83415 0.0
C2243 C 0.89457 0.2749 0.82968 0.0
C2244 C 0.89535 0.29365 0.82354 0.0
C2245 C 0.88418 0.305 0.82922 0.0
C2246 C 0.88555 0.32302 0.82421 0.0
C2247 C 0.89812 0.32992 0.81364 0.0
C2248 C 0.90921 0.31872 0.80785 0.0
C2249 C 0.90788 0.30067 0.81279 0.0
H2250 H 0.89937 0.34398 0.81003 0.0
H2251 H 0.89161 0.17509 0.87194 0.0
H2252 H 0.51792 0.22848 0.58765 0.0
H2253 H 0.5178 0.19627 0.57366 0.0
H2254 H 0.56978 0.20235 0.60268 0.0
H2255 H 0.57008 0.2347 0.61655 0.0
H2256 H 0.56512 0.18386 0.56567 0.0
H2257 H 0.53616 0.17897 0.62094 0.0
H2258 H 0.51446 0.18465 0.64101 0.0
H2259 H 0.47454 0.15717 0.59313 0.0
H2260 H 0.49601 0.15157 0.57267 0.0
H2261 H 0.5658 0.08549 0.55356 0.0
H2262 H 0.56805 0.11874 0.56591 0.0
H2263 H 0.51471 0.11367 0.54272 0.0
H2264 H 0.51229 0.08049 0.53097 0.0
H2265 H 0.5208 0.13192 0.57747 0.0
H2266 H 0.54871 0.13718 0.52176 0.0
H2267 H 0.56976 0.13179 0.50066 0.0
H2268 H 0.6107 0.15858 0.54771 0.0
H2269 H 0.58988 0.16391 0.56918 0.0
C2270 C 0.52937 0.22303 0.59101 0.0
C2271 C 0.54399 0.23423 0.60333 0.0
C2272 C 0.52926 0.20453 0.58305 0.0
C2273 C 0.5437 0.1967 0.5873 0.0
C2274 C 0.55845 0.208 0.59919 0.0
C2275 C 0.55859 0.22652 0.60716 0.0
C2276 C 0.54331 0.17667 0.57966 0.0
C2277 C 0.55556 0.17247 0.56846 0.0
C2278 C 0.53062 0.16177 0.58288 0.0
C2279 C 0.5177 0.16501 0.59522 0.0
C2280 C 0.52275 0.17426 0.61464 0.0
C2281 C 0.5105 0.17745 0.6261 0.0
C2282 C 0.49313 0.17132 0.61833 0.0
C2283 C 0.48799 0.16193 0.59912 0.0
C2284 C 0.5002 0.15874 0.58759 0.0
C2285 C 0.55461 0.09153 0.55093 0.0
C2286 C 0.53887 0.08028 0.54128 0.0
C2287 C 0.55591 0.1106 0.55796 0.0
C2288 C 0.54157 0.11891 0.55518 0.0
C2289 C 0.52596 0.1077 0.54519 0.0
C2290 C 0.52461 0.08867 0.5384 0.0
C2291 C 0.54251 0.13902 0.56323 0.0
C2292 C 0.53038 0.14325 0.57462 0.0
C2293 C 0.5552 0.15394 0.56001 0.0
C2294 C 0.56774 0.15077 0.54713 0.0
C2295 C 0.56221 0.14179 0.52765 0.0
C2296 C 0.57409 0.13877 0.51562 0.0
C2297 C 0.59156 0.14479 0.52286 0.0
C2298 C 0.59717 0.15389 0.54213 0.0
C2299 C 0.58533 0.15693 0.55424 0.0
H2300 H 0.60074 0.14244 0.51352 0.0
H2301 H 0.48367 0.1738 0.62722 0.0
H2302 H 0.57094 0.74053 0.41214 0.0
H2303 H 0.59553 0.74317 0.39554 0.0
H2304 H 0.56837 0.76569 0.34917 0.0
H2305 H 0.54338 0.76266 0.36562 0.0
H2306 H 0.58582 0.74174 0.33409 0.0
H2307 H 0.59989 0.7942 0.38567 0.0
H2308 H 0.6037 0.81034 0.41961 0.0
H2309 H 0.64122 0.77883 0.43802 0.0
H2310 H 0.63747 0.76231 0.40424 0.0
H2311 H 0.65993 0.7759 0.2945 0.0
H2312 H 0.63446 0.77343 0.30971 0.0
H2313 H 0.65921 0.7495 0.35661 0.0
H2314 H 0.68499 0.75247 0.34178 0.0
H2315 H 0.64275 0.77502 0.37095 0.0
H2316 H 0.6283 0.72224 0.3194 0.0
H2317 H 0.62453 0.7062 0.28544 0.0
H2318 H 0.58783 0.73862 0.26687 0.0
H2319 H 0.59155 0.75504 0.3007 0.0
C2320 C 0.5701 0.74603 0.39839 0.0
C2321 C 0.55514 0.7515 0.39033 0.0
C2322 C 0.58429 0.74763 0.38893 0.0
C2323 C 0.58406 0.755 0.37124 0.0
C2324 C 0.56898 0.76005 0.36285 0.0
C2325 C 0.55468 0.75834 0.37229 0.0
C2326 C 0.5996 0.75744 0.36169 0.0
C2327 C 0.59821 0.74928 0.34208 0.0
C2328 C 0.61593 0.76692 0.37213 0.0
C2329 C 0.61828 0.7769 0.39245 0.0
C2330 C 0.60887 0.79062 0.39699 0.0
C2331 C 0.61103 0.79985 0.41619 0.0
C2332 C 0.62266 0.79558 0.43097 0.0
C2333 C 0.6322 0.78211 0.42656 0.0
C2334 C 0.63007 0.77282 0.40739 0.0
C2335 C 0.66008 0.77028 0.30817 0.0
C2336 C 0.67465 0.76442 0.31688 0.0
C2337 C 0.64537 0.76867 0.31676 0.0
C2338 C 0.64473 0.76105 0.33425 0.0
C2339 C 0.65929 0.75536 0.34309 0.0
C2340 C 0.67402 0.75694 0.33449 0.0
C2341 C 0.62899 0.75922 0.3434 0.0
C2342 C 0.63035 0.76752 0.36294 0.0
C2343 C 0.61265 0.74991 0.33288 0.0
C2344 C 0.61034 0.74 0.31255 0.0
C2345 C 0.61953 0.72605 0.30805 0.0
C2346 C 0.61738 0.71688 0.28883 0.0
C2347 C 0.60598 0.72143 0.27399 0.0
C2348 C 0.59667 0.73513 0.27837 0.0
C2349 C 0.59878 0.74437 0.29757 0.0
H2350 H 0.60434 0.7143 0.25912 0.0
H2351 H 0.62432 0.80275 0.44583 0.0
H2352 H 0.02936 0.2415 0.38751 0.0
H2353 H 0.02654 0.2133 0.4031 0.0
H2354 H 0.99362 0.2349 0.43929 0.0
H2355 H 0.99638 0.26326 0.42375 0.0
H2356 H 0.01876 0.22127 0.46031 0.0
H2357 H 0.97641 0.20027 0.40304 0.0
H2358 H 0.96447 0.19516 0.36777 0.0
H2359 H 1.00029 0.16071 0.35602 0.0
H2360 H 0.01264 0.16586 0.39121 0.0
H2361 H 1.00219 0.13547 0.49835 0.0
H2362 H 0.99616 0.16116 0.48087 0.0
H2363 H 0.02966 0.14817 0.4409 0.0
H2364 H 0.03557 0.12236 0.45815 0.0
H2365 H 1.00016 0.15715 0.42224 0.0
H2366 H 0.04455 0.18161 0.47875 0.0
H2367 H 0.05686 0.18701 0.51395 0.0
H2368 H 0.01701 0.21522 0.52688 0.0
H2369 H 1.00431 0.20973 0.49176 0.0
C2370 C 0.0215 0.24027 0.39876 0.0
C2371 C 0.01309 0.25461 0.40441 0.0
C2372 C 0.01981 0.22409 0.40756 0.0
C2373 C 0.00971 0.22195 0.42217 0.0
C2374 C 1.0014 0.23628 0.42796 0.0
C2375 C 1.00299 0.25244 0.41907 0.0
C2376 C 0.00844 0.20501 0.43183 0.0
C2377 C 0.01434 0.20725 0.45206 0.0
C2378 C 1.00294 0.18675 0.42097 0.0
C2379 C 0.99554 0.18358 0.39977 0.0
C2380 C 0.98184 0.19174 0.39292 0.0
C2381 C 0.97498 0.18881 0.37294 0.0
C2382 C 0.98164 0.17765 0.35966 0.0
C2383 C 0.99515 0.16937 0.36633 0.0
C2384 C 1.00208 0.17227 0.3863 0.0
C2385 C 0.008 0.13788 0.48561 0.0
C2386 C 0.01945 0.12705 0.47967 0.0
C2387 C 1.00462 0.15259 0.47572 0.0
C2388 C 0.01261 0.15664 0.45975 0.0
C2389 C 0.02339 0.14527 0.45322 0.0
C2390 C 0.02686 0.13065 0.46315 0.0
C2391 C 0.01073 0.17346 0.45062 0.0
C2392 C 1.00428 0.17119 0.4305 0.0
C2393 C 0.01573 0.19171 0.46157 0.0
C2394 C 0.02336 0.19505 0.48267 0.0
C2395 C 0.03833 0.18881 0.48913 0.0
C2396 C 0.04539 0.19192 0.50905 0.0
C2397 C 0.03769 0.2014 0.52265 0.0
C2398 C 0.02293 0.20784 0.51634 0.0
C2399 C 0.0158 0.20474 0.49642 0.0
H2400 H 0.04318 0.2038 0.53808 0.0
H2401 H 0.9763 0.17539 0.3442 0.0
H2402 H 0.6075 0.23998 0.1881 0.0
H2403 H 0.63422 0.24211 0.21033 0.0
H2404 H 0.61105 0.25891 0.25958 0.0
H2405 H 0.58411 0.25687 0.23735 0.0
H2406 H 0.64305 0.28095 0.26038 0.0
H2407 H 0.6181 0.21617 0.25423 0.0
H2408 H 0.60337 0.18472 0.237 0.0
H2409 H 0.64518 0.18175 0.20622 0.0
H2410 H 0.66007 0.21331 0.22304 0.0
H2411 H 0.72455 0.27635 0.31612 0.0
H2412 H 0.69361 0.27235 0.30561 0.0
H2413 H 0.69812 0.24678 0.24808 0.0
H2414 H 0.7286 0.25003 0.25865 0.0
H2415 H 0.67229 0.22732 0.25928 0.0
H2416 H 0.69432 0.29475 0.26127 0.0
H2417 H 0.70807 0.32687 0.27754 0.0
H2418 H 0.67122 0.3249 0.31604 0.0
H2419 H 0.65744 0.29266 0.30022 0.0
C2420 C 0.60803 0.2441 0.20365 0.0
C2421 C 0.59368 0.2482 0.21097 0.0
C2422 C 0.6233 0.24522 0.21634 0.0
C2423 C 0.62451 0.25043 0.2366 0.0
C2424 C 0.6103 0.25477 0.24399 0.0
C2425 C 0.59495 0.25355 0.23128 0.0
C2426 C 0.64087 0.25168 0.24978 0.0
C2427 C 0.64936 0.26916 0.26051 0.0
C2428 C 0.649 0.23626 0.2499 0.0
C2429 C 0.64017 0.21717 0.23985 0.0
C2430 C 0.62411 0.20887 0.2437 0.0
C2431 C 0.61574 0.19101 0.23401 0.0
C2432 C 0.62332 0.18125 0.22051 0.0
C2433 C 0.63932 0.18932 0.21669 0.0
C2434 C 0.64775 0.20719 0.22632 0.0
C2435 C 0.71887 0.2699 0.30125 0.0
C2436 C 0.72894 0.26345 0.28821 0.0
C2437 C 0.70122 0.26766 0.29524 0.0
C2438 C 0.69354 0.25934 0.27601 0.0
C2439 C 0.7037 0.25309 0.26304 0.0
C2440 C 0.72116 0.255 0.26909 0.0
C2441 C 0.67496 0.25691 0.26893 0.0
C2442 C 0.66593 0.23908 0.25949 0.0
C2443 C 0.66638 0.27204 0.26998 0.0
C2444 C 0.67498 0.29123 0.27972 0.0
C2445 C 0.68928 0.3011 0.27335 0.0
C2446 C 0.69706 0.31934 0.28248 0.0
C2447 C 0.69053 0.3279 0.29784 0.0
C2448 C 0.67628 0.31823 0.30418 0.0
C2449 C 0.66849 0.29998 0.29515 0.0
H2450 H 0.69643 0.34207 0.30478 0.0
H2451 H 0.61681 0.16743 0.21302 0.0
H2452 H 0.52623 0.8486 0.89743 0.0
H2453 H 0.52499 0.87628 0.91992 0.0
H2454 H 0.53943 0.84896 0.96926 0.0
H2455 H 0.54075 0.82111 0.94682 0.0
H2456 H 0.51233 0.86745 0.97342 0.0
H2457 H 0.56845 0.88033 0.95812 0.0
H2458 H 0.59043 0.88322 0.93707 0.0
H2459 H 0.56898 0.92515 0.91023 0.0
H2460 H 0.54666 0.92226 0.93087 0.0
H2461 H 0.53585 0.95566 0.0407 0.0
H2462 H 0.5338 0.92435 0.02238 0.0
H2463 H 0.52044 0.94507 0.96812 0.0
H2464 H 0.52256 0.97618 0.98618 0.0
H2465 H 0.54842 0.92887 0.96907 0.0
H2466 H 0.49151 0.91491 0.98359 0.0
H2467 H 0.46987 0.91227 0.00509 0.0
H2468 H 0.49336 0.87285 0.03413 0.0
H2469 H 0.51532 0.87548 0.01297 0.0
C2470 C 0.52914 0.84844 0.91306 0.0
C2471 C 0.53368 0.83271 0.92036 0.0
C2472 C 0.52844 0.86428 0.92588 0.0
C2473 C 0.53223 0.86467 0.94621 0.0
C2474 C 0.53647 0.84889 0.95359 0.0
C2475 C 0.53731 0.83306 0.94076 0.0
C2476 C 0.53203 0.88179 0.95963 0.0
C2477 C 0.52039 0.88085 0.97272 0.0
C2478 C 0.54243 0.89925 0.95849 0.0
C2479 C 0.55576 0.90092 0.94591 0.0
C2480 C 0.5683 0.89002 0.94758 0.0
C2481 C 0.58084 0.89168 0.93574 0.0
C2482 C 0.58107 0.90432 0.92228 0.0
C2483 C 0.56876 0.91534 0.92064 0.0
C2484 C 0.55616 0.91369 0.93241 0.0
C2485 C 0.53209 0.95337 0.0249 0.0
C2486 C 0.52947 0.96834 0.01483 0.0
C2487 C 0.53091 0.93552 0.01448 0.0
C2488 C 0.52707 0.93248 0.99391 0.0
C2489 C 0.5235 0.94718 0.98399 0.0
C2490 C 0.52463 0.96492 0.99435 0.0
C2491 C 0.5284 0.91467 0.98249 0.0
C2492 C 0.54038 0.91547 0.96984 0.0
C2493 C 0.51836 0.89715 0.98412 0.0
C2494 C 0.50518 0.89557 0.99686 0.0
C2495 C 0.49217 0.90583 0.99469 0.0
C2496 C 0.47982 0.9043 0.00679 0.0
C2497 C 0.48027 0.89245 0.02101 0.0
C2498 C 0.49305 0.88206 0.02313 0.0
C2499 C 0.50544 0.88355 0.01108 0.0
H2500 H 0.47069 0.89127 0.03035 0.0
H2501 H 0.59081 0.9056 0.91314 0.0
H2502 H 0.9761 0.73217 0.66698 0.0
H2503 H 0.95237 0.73651 0.6837 0.0
H2504 H 0.98117 0.72909 0.73822 0.0
H2505 H 1.0052 0.72498 0.72168 0.0
H2506 H 0.94124 0.71252 0.72801 0.0
H2507 H 0.98598 0.76914 0.73655 0.0
H2508 H 0.00653 0.79175 0.72374 0.0
H2509 H 0.96552 0.80367 0.68403 0.0
H2510 H 0.94475 0.78085 0.69639 0.0
H2511 H 0.89483 0.763 0.78893 0.0
H2512 H 0.91752 0.75029 0.77573 0.0
H2513 H 0.90391 0.77063 0.72129 0.0
H2514 H 0.88156 0.78358 0.73447 0.0
H2515 H 0.93754 0.77966 0.73401 0.0
H2516 H 0.89262 0.72527 0.72485 0.0
H2517 H 0.87095 0.70102 0.73394 0.0
H2518 H 0.91009 0.68351 0.77141 0.0
H2519 H 0.93199 0.70797 0.7629 0.0
C2520 C 0.97728 0.73099 0.68243 0.0
C2521 C 0.99263 0.72854 0.69309 0.0
C2522 C 0.96368 0.73341 0.69192 0.0
C2523 C 0.96514 0.7332 0.71215 0.0
C2524 C 0.97986 0.72921 0.72257 0.0
C2525 C 0.99358 0.727 0.71312 0.0
C2526 C 0.95244 0.74001 0.72266 0.0
C2527 C 0.94054 0.72722 0.72972 0.0
C2528 C 0.95143 0.75911 0.72436 0.0
C2529 C 0.96385 0.77316 0.71726 0.0
C2530 C 0.98136 0.77647 0.72498 0.0
C2531 C 0.99305 0.78934 0.71782 0.0
C2532 C 0.98734 0.7991 0.70304 0.0
C2533 C 0.96993 0.79608 0.69546 0.0
C2534 C 0.95819 0.78319 0.70255 0.0
C2535 C 0.8968 0.76484 0.77421 0.0
C2536 C 0.88646 0.77424 0.7627 0.0
C2537 C 0.90962 0.75743 0.76664 0.0
C2538 C 0.91228 0.75941 0.74749 0.0
C2539 C 0.90203 0.76892 0.73608 0.0
C2540 C 0.88923 0.77622 0.74359 0.0
C2541 C 0.92607 0.75219 0.73937 0.0
C2542 C 0.93827 0.76496 0.73268 0.0
C2543 C 0.92714 0.73303 0.73786 0.0
C2544 C 0.91394 0.71864 0.74343 0.0
C2545 C 0.8966 0.71645 0.73526 0.0
C2546 C 0.88428 0.70263 0.74026 0.0
C2547 C 0.88915 0.69076 0.75325 0.0
C2548 C 0.90634 0.69275 0.76136 0.0
C2549 C 0.91871 0.7066 0.75647 0.0
H2550 H 0.87962 0.67996 0.75692 0.0
H2551 H 0.99641 0.80904 0.6975 0.0
H2552 H 0.14076 0.06523 0.87462 0.0
H2553 H 0.12496 0.05851 0.90108 0.0
H2554 H 0.09611 0.00701 0.86561 0.0
H2555 H 0.11155 0.01389 0.83888 0.0
H2556 H 0.07568 0.0238 0.88378 0.0
H2557 H 0.12956 0.0076 0.90334 0.0
H2558 H 0.16094 0.01253 0.91076 0.0
H2559 H 0.16263 0.05804 0.95631 0.0
H2560 H 0.13126 0.05354 0.94899 0.0
H2561 H 0.04217 0.98413 0.9617 0.0
H2562 H 0.05913 0.98891 0.93567 0.0
H2563 H 0.08425 0.04385 0.96659 0.0
H2564 H 0.0673 0.03922 0.99253 0.0
H2565 H 0.10661 0.02425 0.95078 0.0
H2566 H 0.05204 0.03986 0.93037 0.0
H2567 H 0.02057 0.03342 0.92309 0.0
H2568 H 0.0203 0.98743 0.87874 0.0
H2569 H 0.05175 0.99327 0.88607 0.0
C2570 C 0.13102 0.0525 0.87241 0.0
C2571 C 0.12748 0.04006 0.85465 0.0
C2572 C 0.12205 0.04862 0.88761 0.0
C2573 C 0.10954 0.03208 0.8855 0.0
C2574 C 0.10574 0.01983 0.86763 0.0
C2575 C 0.1146 0.02378 0.85236 0.0
C2576 C 0.10039 0.02756 0.90189 0.0
C2577 C 0.08247 0.02364 0.89835 0.0
C2578 C 0.10921 0.02762 0.92102 0.0
C2579 C 0.12807 0.03034 0.92549 0.0
C2580 C 0.13663 0.01875 0.91484 0.0
C2581 C 0.15442 0.02145 0.91904 0.0
C2582 C 0.16378 0.03562 0.93396 0.0
C2583 C 0.15537 0.04709 0.94474 0.0
C2584 C 0.13758 0.04446 0.94059 0.0
C2585 C 0.05146 0.99712 0.96305 0.0
C2586 C 0.0534 0.01131 0.97911 0.0
C2587 C 0.06109 0.99986 0.94815 0.0
C2588 C 0.07281 0.01682 0.94911 0.0
C2589 C 0.07528 0.03067 0.96557 0.0
C2590 C 0.0656 0.02798 0.98038 0.0
C2591 C 0.08198 0.02053 0.93261 0.0
C2592 C 0.09988 0.02434 0.93617 0.0
C2593 C 0.07315 0.02022 0.91346 0.0
C2594 C 0.05425 0.01687 0.90891 0.0
C2595 C 0.04527 0.02827 0.91918 0.0
C2596 C 0.02744 0.02476 0.91503 0.0
C2597 C 0.01845 0.01004 0.90048 0.0
C2598 C 0.02728 0.99882 0.89003 0.0
C2599 C 0.0451 1.00221 0.89418 0.0
H2600 H 1.00465 0.00736 0.89729 0.0
H2601 H 0.17754 0.03769 0.9372 0.0
H2602 H 0.76995 0.3324 0.49051 0.0
H2603 H 0.77775 0.31091 0.51283 0.0
H2604 H 0.73169 0.31216 0.53675 0.0
H2605 H 0.72366 0.33313 0.5143 0.0
H2606 H 0.78552 0.31967 0.55045 0.0
H2607 H 0.71915 0.27492 0.55725 0.0
H2608 H 0.69253 0.25817 0.53536 0.0
H2609 H 0.71953 0.25409 0.48701 0.0
H2610 H 0.74636 0.27056 0.50864 0.0
H2611 H 0.78236 0.30261 0.64597 0.0
H2612 H 0.77774 0.31054 0.61295 0.0
H2613 H 0.77053 0.25216 0.58861 0.0
H2614 H 0.77426 0.24398 0.62169 0.0
H2615 H 0.74733 0.26653 0.56988 0.0
H2616 H 0.80733 0.28384 0.58626 0.0
H2617 H 0.83543 0.29845 0.60633 0.0
H2618 H 0.82391 0.35304 0.60465 0.0
H2619 H 0.79563 0.33876 0.5848 0.0
C2620 C 0.76127 0.32769 0.50015 0.0
C2621 C 0.7463 0.33467 0.50079 0.0
C2622 C 0.76577 0.31544 0.51295 0.0
C2623 C 0.75533 0.3099 0.52651 0.0
C2624 C 0.73985 0.31594 0.52625 0.0
C2625 C 0.73533 0.32807 0.51344 0.0
C2626 C 0.76142 0.29991 0.54256 0.0
C2627 C 0.77725 0.3079 0.55455 0.0
C2628 C 0.75089 0.2842 0.54765 0.0
C2629 C 0.73478 0.27408 0.53459 0.0
C2630 C 0.71945 0.27035 0.54198 0.0
C2631 C 0.7043 0.26092 0.5296 0.0
C2632 C 0.70434 0.2551 0.5098 0.0
C2633 C 0.71951 0.25866 0.50234 0.0
C2634 C 0.73469 0.26806 0.51465 0.0
C2635 C 0.77967 0.29142 0.63362 0.0
C2636 C 0.77867 0.27265 0.63652 0.0
C2637 C 0.77727 0.29601 0.61471 0.0
C2638 C 0.77407 0.28198 0.59826 0.0
C2639 C 0.7731 0.26323 0.60107 0.0
C2640 C 0.77538 0.2586 0.62001 0.0
C2641 C 0.77098 0.28696 0.57822 0.0
C2642 C 0.75573 0.27804 0.56553 0.0
C2643 C 0.78227 0.30148 0.5722 0.0
C2644 C 0.7993 0.3102 0.5841 0.0
C2645 C 0.81074 0.29895 0.59027 0.0
C2646 C 0.82671 0.30718 0.6016 0.0
C2647 C 0.83144 0.32666 0.60678 0.0
C2648 C 0.82023 0.33796 0.60062 0.0
C2649 C 0.80423 0.3298 0.58929 0.0
H2650 H 0.84382 0.333 0.61556 0.0
H2651 H 0.69259 0.24782 0.50024 0.0
H2652 H 0.45215 0.01038 0.30837 0.0
H2653 H 0.46734 0.01062 0.34119 0.0
H2654 H 0.4461 0.0569 0.36309 0.0
H2655 H 0.43114 0.0571 0.32964 0.0
H2656 H 0.4769 0.0619 0.38328 0.0
H2657 H 0.43147 0.00841 0.36951 0.0
H2658 H 0.41309 0.97904 0.35129 0.0
H2659 H 0.45592 0.95211 0.35551 0.0
H2660 H 0.47467 0.98148 0.37342 0.0
H2661 H 0.50319 0.04546 0.48343 0.0
H2662 H 0.48623 0.04899 0.45219 0.0
H2663 H 0.5075 0.00691 0.42161 0.0
H2664 H 0.52431 1.00343 0.45255 0.0
H2665 H 0.4745 1.00081 0.40743 0.0
H2666 H 0.51996 0.05593 0.42043 0.0
H2667 H 0.53728 0.08537 0.43992 0.0
H2668 H 0.49256 0.10899 0.43889 0.0
H2669 H 0.47493 0.07959 0.41959 0.0
C2670 C 0.45066 0.02076 0.32004 0.0
C2671 C 0.44015 0.03366 0.31596 0.0
C2672 C 0.45936 0.02076 0.33911 0.0
C2673 C 0.45773 0.03339 0.35529 0.0
C2674 C 0.44768 0.04679 0.35122 0.0
C2675 C 0.43906 0.04694 0.33192 0.0
C2676 C 0.46634 0.03223 0.37612 0.0
C2677 C 0.47607 0.04851 0.38854 0.0
C2678 C 0.4657 0.01489 0.38356 0.0
C2679 C 0.45451 0.99722 0.37267 0.0
C2680 C 0.437 0.99628 0.36642 0.0
C2681 C 0.42651 0.97961 0.35616 0.0
C2682 C 0.43332 0.9637 0.35224 0.0
C2683 C 0.45066 0.96444 0.35854 0.0
C2684 C 0.46123 0.98111 0.36875 0.0
C2685 C 0.50423 0.03693 0.47006 0.0
C2686 C 0.51529 0.02417 0.47075 0.0
C2687 C 0.49455 0.03904 0.45203 0.0
C2688 C 0.4955 0.02838 0.43405 0.0
C2689 C 0.50633 0.01542 0.43493 0.0
C2690 C 0.51606 0.01345 0.45282 0.0
C2691 C 0.48531 0.03036 0.41436 0.0
C2692 C 0.47526 0.0142 0.40215 0.0
C2693 C 0.48551 0.0478 0.40729 0.0
C2694 C 0.4961 0.0655 0.41875 0.0
C2695 C 0.5138 0.06736 0.42448 0.0
C2696 C 0.52368 0.08404 0.43548 0.0
C2697 C 0.51602 0.09902 0.4407 0.0
C2698 C 0.49847 0.09736 0.43487 0.0
C2699 C 0.48853 0.0807 0.42389 0.0
H2700 H 0.52369 0.11192 0.44921 0.0
H2701 H 0.42517 0.95077 0.34437 0.0
H2702 H 0.80228 0.7041 0.0621 0.0
H2703 H 0.80232 0.71971 0.09508 0.0
H2704 H 0.75246 0.68612 0.09468 0.0
H2705 H 0.75217 0.67073 0.06151 0.0
H2706 H 0.75425 0.7215 0.11062 0.0
H2707 H 0.7898 0.67595 0.11889 0.0
H2708 H 0.81382 0.6609 0.11329 0.0
H2709 H 0.84929 0.71298 0.13575 0.0
H2710 H 0.82546 0.7284 0.14126 0.0
H2711 H 0.75289 0.73607 0.21288 0.0
H2712 H 0.75233 0.72328 0.17874 0.0
H2713 H 0.80393 0.75392 0.18222 0.0
H2714 H 0.80477 0.76616 0.21657 0.0
H2715 H 0.80154 0.72086 0.16432 0.0
H2716 H 0.76712 0.7667 0.1568 0.0
H2717 H 0.74369 0.78278 0.16219 0.0
H2718 H 0.70691 0.73205 0.13804 0.0
H2719 H 0.73014 0.71558 0.13274 0.0
C2720 C 0.79128 0.70007 0.06896 0.0
C2721 C 0.77726 0.68605 0.05914 0.0
C2722 C 0.79135 0.70897 0.0879 0.0
C2723 C 0.77752 0.7039 0.09758 0.0
C2724 C 0.76332 0.69026 0.0876 0.0
C2725 C 0.76319 0.68143 0.06861 0.0
C2726 C 0.77791 0.71257 0.11816 0.0
C2727 C 0.76449 0.72117 0.12241 0.0
C2728 C 0.7915 0.71267 0.13351 0.0
C2729 C 0.80583 0.70336 0.13031 0.0
C2730 C 0.80271 0.68422 0.12251 0.0
C2731 C 0.81629 0.67562 0.11937 0.0
C2732 C 0.83306 0.68599 0.12411 0.0
C2733 C 0.83629 0.70497 0.13206 0.0
C2734 C 0.82276 0.71364 0.13521 0.0
C2735 C 0.76408 0.7402 0.20633 0.0
C2736 C 0.77886 0.75217 0.21747 0.0
C2737 C 0.76372 0.73293 0.18673 0.0
C2738 C 0.77801 0.7378 0.17767 0.0
C2739 C 0.79273 0.74989 0.18878 0.0
C2740 C 0.79318 0.75693 0.20845 0.0
C2741 C 0.77785 0.72982 0.15687 0.0
C2742 C 0.79131 0.7213 0.15256 0.0
C2743 C 0.76438 0.72999 0.14144 0.0
C2744 C 0.75038 0.73987 0.14454 0.0
C2745 C 0.75404 0.75894 0.15276 0.0
C2746 C 0.74079 0.76813 0.15578 0.0
C2747 C 0.72382 0.75843 0.1505 0.0
C2748 C 0.72006 0.73953 0.14214 0.0
C2749 C 0.73326 0.73027 0.13911 0.0
H2750 H 0.71358 0.76557 0.15285 0.0
H2751 H 0.84356 0.67931 0.12167 0.0
H2752 H 0.11736 0.06896 0.74436 0.0
H2753 H 0.10183 0.06297 0.71077 0.0
H2754 H 0.09979 1.00365 0.70919 0.0
H2755 H 0.11572 0.00959 0.74276 0.0
H2756 H 0.10824 0.0142 0.67649 0.0
H2757 H 0.06412 0.02241 0.71282 0.0
H2758 H 0.05021 0.03783 0.73742 0.0
H2759 H 0.053 0.08603 0.70781 0.0
H2760 H 0.06715 0.071 0.68317 0.0
H2761 H 0.04985 0.99242 0.58525 0.0
H2762 H 0.06153 0.99394 0.61998 0.0
H2763 H 0.07144 0.05439 0.62721 0.0
H2764 H 0.05981 0.05305 0.59264 0.0
H2765 H 0.057 0.04023 0.65731 0.0
H2766 H 0.10326 0.03216 0.62249 0.0
H2767 H 0.11641 0.0159 0.59769 0.0
H2768 H 0.10849 0.96612 0.62466 0.0
H2769 H 0.09503 0.98201 0.64947 0.0
C2770 C 0.11354 0.05462 0.73694 0.0
C2771 C 0.11775 0.03975 0.74629 0.0
C2772 C 0.10457 0.05119 0.71773 0.0
C2773 C 0.09941 0.03282 0.70751 0.0
C2774 C 0.1036 0.01793 0.71679 0.0
C2775 C 0.11266 0.02136 0.736 0.0
C2776 C 0.09011 0.0293 0.68694 0.0
C2777 C 0.09685 0.0196 0.67238 0.0
C2778 C 0.07536 0.03653 0.68146 0.0
C2779 C 0.06682 0.04563 0.69623 0.0
C2780 C 0.06188 0.03635 0.71163 0.0
C2781 C 0.05393 0.04502 0.72557 0.0
C2782 C 0.05075 0.06292 0.7242 0.0
C2783 C 0.05548 0.07217 0.70886 0.0
C2784 C 0.06345 0.06358 0.69489 0.0
C2785 C 0.05445 1.00604 0.59425 0.0
C2786 C 0.05398 0.02263 0.58613 0.0
C2787 C 0.06115 0.00688 0.61407 0.0
C2788 C 0.06746 0.02429 0.62613 0.0
C2789 C 0.06663 0.04082 0.61817 0.0
C2790 C 0.06004 0.04001 0.59836 0.0
C2791 C 0.0753 0.02543 0.64696 0.0
C2792 C 0.06828 0.03468 0.66153 0.0
C2793 C 0.0897 0.01767 0.65246 0.0
C2794 C 0.09798 0.0082 0.63771 0.0
C2795 C 0.10421 0.0177 0.62305 0.0
C2796 C 0.11174 0.00857 0.60901 0.0
C2797 C 0.11326 0.98998 0.60958 0.0
C2798 C 0.10729 0.98051 0.62423 0.0
C2799 C 0.09971 0.98957 0.63829 0.0
H2800 H 0.11909 0.98294 0.59868 0.0
H2801 H 0.0446 0.0696 0.735 0.0
H2802 H 0.72862 0.37965 0.41743 0.0
H2803 H 0.7403 0.354 0.40257 0.0
H2804 H 0.72266 0.31978 0.44465 0.0
H2805 H 0.71103 0.34556 0.45953 0.0
H2806 H 0.75376 0.31467 0.43725 0.0
H2807 H 0.69936 0.31617 0.4 0.0
H2808 H 0.67839 0.33081 0.3815 0.0
H2809 H 0.71119 0.3408 0.33912 0.0
H2810 H 0.73224 0.32611 0.35729 0.0
H2811 H 0.74564 0.2417 0.34068 0.0
H2812 H 0.73362 0.25793 0.36629 0.0
H2813 H 0.78306 0.29385 0.38865 0.0
H2814 H 0.7951 0.27751 0.36323 0.0
H2815 H 0.73243 0.29348 0.36618 0.0
H2816 H 0.78511 0.31335 0.43612 0.0
H2817 H 0.80606 0.29881 0.45478 0.0
H2818 H 0.77541 0.24407 0.43165 0.0
H2819 H 0.75413 0.25828 0.4131 0.0
C2820 C 0.72759 0.36677 0.42371 0.0
C2821 C 0.71931 0.36458 0.43981 0.0
C2822 C 0.73417 0.35212 0.41519 0.0
C2823 C 0.73213 0.3349 0.42235 0.0
C2824 C 0.7244 0.33296 0.43894 0.0
C2825 C 0.71791 0.3477 0.44753 0.0
C2826 C 0.73713 0.31864 0.41173 0.0
C2827 C 0.74908 0.30995 0.42172 0.0
C2828 C 0.73065 0.31222 0.39157 0.0
C2829 C 0.71758 0.32039 0.38025 0.0
C2830 C 0.70215 0.32158 0.3868 0.0
C2831 C 0.69019 0.32982 0.37631 0.0
C2832 C 0.69347 0.3368 0.35917 0.0
C2833 C 0.70863 0.3354 0.35238 0.0
C2834 C 0.72058 0.32711 0.36276 0.0
C2835 C 0.75404 0.25258 0.35153 0.0
C2836 C 0.77123 0.25853 0.34996 0.0
C2837 C 0.74717 0.2619 0.36609 0.0
C2838 C 0.75743 0.27713 0.37936 0.0
C2839 C 0.77494 0.28199 0.37877 0.0
C2840 C 0.78179 0.27271 0.3642 0.0
C2841 C 0.74949 0.28982 0.39151 0.0
C2842 C 0.73696 0.29794 0.38177 0.0
C2843 C 0.75538 0.29559 0.41186 0.0
C2844 C 0.76807 0.2869 0.42308 0.0
C2845 C 0.78278 0.29822 0.43508 0.0
C2846 C 0.79473 0.29003 0.44563 0.0
C2847 C 0.79209 0.27053 0.44436 0.0
C2848 C 0.77747 0.25918 0.43257 0.0
C2849 C 0.76548 0.26729 0.422 0.0
H2850 H 0.80136 0.26422 0.45254 0.0
H2851 H 0.68424 0.34327 0.35114 0.0
H2852 H 0.41661 0.03714 0.19419 0.0
H2853 H 0.42868 0.03467 0.16372 0.0
H2854 H 0.47691 0.0312 0.19692 0.0
H2855 H 0.4651 0.03382 0.227 0.0
H2856 H 0.484 0.0525 0.17122 0.0
H2857 H 0.44553 0.99207 0.16509 0.0
H2858 H 0.41759 0.97078 0.1626 0.0
H2859 H 0.39792 0.99287 0.11176 0.0
H2860 H 0.42566 0.0145 0.11413 0.0
H2861 H 0.52821 0.02223 0.09677 0.0
H2862 H 0.51301 0.025 0.12435 0.0
H2863 H 0.46654 0.02315 0.08449 0.0
H2864 H 0.4817 0.01962 0.05664 0.0
H2865 H 0.45693 1.00633 0.11204 0.0
H2866 H 0.49339 0.06573 0.11625 0.0
H2867 H 0.52024 0.0885 0.11739 0.0
H2868 H 0.5421 0.07121 0.17034 0.0
H2869 H 0.51545 0.04813 0.16936 0.0
C2870 C 0.42979 0.03587 0.19505 0.0
C2871 C 0.43968 0.0357 0.21351 0.0
C2872 C 0.43676 0.03431 0.17741 0.0
C2873 C 0.45393 0.03249 0.17744 0.0
C2874 C 0.46374 0.03256 0.19593 0.0
C2875 C 0.45681 0.03403 0.21339 0.0
C2876 C 0.46197 0.03077 0.15873 0.0
C2877 C 0.47806 0.04217 0.15845 0.0
C2878 C 0.45431 0.01795 0.14128 0.0
C2879 C 0.43762 1.00505 0.13994 0.0
C2880 C 0.4352 0.9925 0.15349 0.0
C2881 C 0.4194 0.98036 0.15208 0.0
C2882 C 0.40597 0.98053 0.13707 0.0
C2883 C 0.40831 0.99281 0.12341 0.0
C2884 C 0.42407 1.00501 0.12478 0.0
C2885 C 0.51474 0.02235 0.09369 0.0
C2886 C 0.50643 0.02075 0.07408 0.0
C2887 C 0.50594 0.02415 0.10974 0.0
C2888 C 0.48842 0.02487 0.10712 0.0
C2889 C 0.47998 0.02282 0.08745 0.0
C2890 C 0.48877 0.02081 0.07132 0.0
C2891 C 0.47915 0.02776 0.12474 0.0
C2892 C 0.46287 0.01666 0.1248 0.0
C2893 C 0.48645 0.04114 0.14188 0.0
C2894 C 0.50247 0.05506 0.14262 0.0
C2895 C 0.50396 0.06669 0.12807 0.0
C2896 C 0.51914 0.07967 0.12869 0.0
C2897 C 0.53288 0.08127 0.1439 0.0
C2898 C 0.53145 0.06993 0.15855 0.0
C2899 C 0.51631 0.05691 0.15798 0.0
H2900 H 0.54462 0.09131 0.14436 0.0
H2901 H 0.39376 0.97111 0.136 0.0
H2902 H 0.76867 0.71429 0.97732 0.0
H2903 H 0.77038 0.72884 0.94785 0.0
H2904 H 0.76339 0.67433 0.91325 0.0
H2905 H 0.76203 0.65962 0.94291 0.0
H2906 H 0.78731 0.6981 0.90175 0.0
H2907 H 0.73078 0.69944 0.91262 0.0
H2908 H 0.70834 0.70578 0.93125 0.0
H2909 H 0.73039 0.76476 0.94057 0.0
H2910 H 0.75312 0.75874 0.92222 0.0
H2911 H 0.77361 0.73292 0.81085 0.0
H2912 H 0.76851 0.71599 0.83834 0.0
H2913 H 0.77895 0.76858 0.87732 0.0
H2914 H 0.78394 0.78557 0.84983 0.0
H2915 H 0.75193 0.74425 0.88526 0.0
H2916 H 0.80919 0.74198 0.87502 0.0
H2917 H 0.83078 0.73508 0.8553 0.0
H2918 H 0.80613 0.67679 0.84369 0.0
H2919 H 0.78424 0.6834 0.86313 0.0
C2920 C 0.76744 0.70532 0.96347 0.0
C2921 C 0.76512 0.68572 0.96257 0.0
C2922 C 0.76834 0.7137 0.94653 0.0
C2923 C 0.76674 0.70274 0.92813 0.0
C2924 C 0.7646 0.68315 0.92719 0.0
C2925 C 0.76377 0.67474 0.94419 0.0
C2926 C 0.76755 0.71179 0.91004 0.0
C2927 C 0.77935 0.70795 0.89801 0.0
C2928 C 0.7574 0.72492 0.90515 0.0
C2929 C 0.74375 0.72861 0.91619 0.0
C2930 C 0.73093 0.71375 0.91877 0.0
C2931 C 0.71814 0.71729 0.92926 0.0
C2932 C 0.71796 0.73566 0.93713 0.0
C2933 C 0.73056 0.75053 0.93449 0.0
C2934 C 0.74339 0.74707 0.92402 0.0
C2935 C 0.77465 0.74089 0.82525 0.0
C2936 C 0.77928 0.7606 0.82818 0.0
C2937 C 0.77182 0.73118 0.84099 0.0
C2938 C 0.77359 0.74095 0.86004 0.0
C2939 C 0.77756 0.76068 0.86282 0.0
C2940 C 0.78044 0.77039 0.84709 0.0
C2941 C 0.77177 0.73068 0.87716 0.0
C2942 C 0.7598 0.73431 0.88899 0.0
C2943 C 0.78166 0.71726 0.88177 0.0
C2944 C 0.79498 0.71322 0.87036 0.0
C2945 C 0.80831 0.72771 0.86816 0.0
C2946 C 0.82061 0.72385 0.85704 0.0
C2947 C 0.8198 0.70552 0.8482 0.0
C2948 C 0.80673 0.69099 0.85052 0.0
C2949 C 0.79438 0.69478 0.8616 0.0
H2950 H 0.82932 0.70256 0.83958 0.0
H2951 H 0.70805 0.73837 0.94524 0.0
H2952 H 0.85422 0.14276 0.05834 0.0
H2953 H 0.87171 0.12221 0.0459 0.0
H2954 H 0.91096 0.17028 0.04376 0.0
H2955 H 0.89299 0.19118 0.05551 0.0
H2956 H 0.9073 0.14579 0.01211 0.0
H2957 H 0.91524 0.14214 0.08015 0.0
H2958 H 0.90724 0.13844 0.11243 0.0
H2959 H 0.87936 0.08238 0.08974 0.0
H2960 H 0.88698 0.08583 0.05724 0.0
H2961 H 0.96842 0.08412 0.00935 0.0
H2962 H 0.95308 0.10927 0.01642 0.0
H2963 H 0.90575 0.06832 0.00674 0.0
H2964 H 0.921 0.04317 0.99948 0.0
H2965 H 0.91622 0.09131 0.04507 0.0
H2966 H 0.91121 0.09652 0.97612 0.0
H2967 H 0.92272 0.10166 0.94598 0.0
H2968 H 0.94927 0.15712 0.97299 0.0
H2969 H 0.93802 0.15222 1.00338 0.0
C2970 C 0.86664 0.14903 0.05542 0.0
C2971 C 0.87232 0.1686 0.0581 0.0
C2972 C 0.87665 0.13723 0.04833 0.0
C2973 C 0.8928 0.14468 0.04427 0.0
C2974 C 0.89856 0.16424 0.04689 0.0
C2975 C 0.88835 0.17614 0.05369 0.0
C2976 C 0.90338 0.13182 0.03706 0.0
C2977 C 0.90951 0.13404 0.01947 0.0
C2978 C 0.90621 0.11647 0.04665 0.0
C2979 C 0.90159 0.11431 0.0662 0.0
C2980 C 0.9073 0.12907 0.082 0.0
C2981 C 0.90285 0.12701 0.10035 0.0
C2982 C 0.89277 0.1102 0.10312 0.0
C2983 C 0.88716 0.0954 0.08757 0.0
C2984 C 0.89156 0.09739 0.06918 0.0
C2985 C 0.95468 0.0806 0.0083 0.0
C2986 C 0.94583 0.06179 0.00401 0.0
C2987 C 0.94596 0.09493 0.01225 0.0
C2988 C 0.92835 0.09056 0.0121 0.0
C2989 C 0.91937 0.07188 0.00682 0.0
C2990 C 0.92804 0.05758 1.00263 0.0
C2991 C 0.91965 0.10498 0.01991 0.0
C2992 C 0.91403 0.1031 0.03775 0.0
C2993 C 0.91775 0.12082 0.01078 0.0
C2994 C 0.9241 0.12384 0.99224 0.0
C2995 C 0.91968 0.10972 0.97576 0.0
C2996 C 0.92609 0.11262 0.95857 0.0
C2997 C 0.93682 0.12965 0.95762 0.0
C2998 C 0.94103 0.14389 0.97378 0.0
C2999 C 0.93464 0.14105 0.99098 0.0
H3000 H 0.94179 0.13186 0.94432 0.0
H3001 H 0.88934 0.10863 0.11734 0.0
H3002 H 0.34767 0.43919 0.0328 0.0
H3003 H 0.37565 0.4554 0.02769 0.0
H3004 H 0.40037 0.42605 0.06954 0.0
H3005 H 0.37253 0.41 0.07489 0.0
H3006 H 0.41684 0.4615 0.07485 0.0
H3007 H 0.39724 0.41279 0.02035 0.0
H3008 H 0.37747 0.39368 0.99167 0.0
H3009 H 0.37937 0.44198 0.9623 0.0
H3010 H 0.39898 0.46148 0.99096 0.0
H3011 H 0.49941 0.48219 0.04752 0.0
H3012 H 0.47177 0.46471 0.05254 0.0
H3013 H 0.44571 0.49684 0.01503 0.0
H3014 H 0.47322 0.5143 0.01002 0.0
H3015 H 0.43036 0.45922 0.00764 0.0
H3016 H 0.45058 0.50769 0.06401 0.0
H3017 H 0.4716 0.52502 0.09264 0.0
H3018 H 0.4696 0.47463 0.11853 0.0
H3019 H 0.44874 0.45694 0.08991 0.0
C3020 C 0.35905 0.43627 0.04102 0.0
C3021 C 0.35778 0.42321 0.05422 0.0
C3022 C 0.37508 0.44548 0.038 0.0
C3023 C 0.39022 0.44182 0.04803 0.0
C3024 C 0.38895 0.42915 0.06158 0.0
C3025 C 0.37296 0.41992 0.06458 0.0
C3026 C 0.40734 0.45096 0.04427 0.0
C3027 C 0.41982 0.46079 0.06016 0.0
C3028 C 0.41133 0.45023 0.02511 0.0
C3029 C 0.39944 0.43864 0.00789 0.0
C3030 C 0.39332 0.41938 0.00786 0.0
C3031 C 0.38217 0.40848 0.9916 0.0
C3032 C 0.37715 0.41663 0.9752 0.0
C3033 C 0.38326 0.43571 0.97503 0.0
C3034 C 0.3944 0.44669 0.99128 0.0
C3035 C 0.48777 0.48541 0.04025 0.0
C3036 C 0.48848 0.4997 0.02847 0.0
C3037 C 0.47198 0.47547 0.04319 0.0
C3038 C 0.4566 0.47958 0.03433 0.0
C3039 C 0.45734 0.49342 0.02206 0.0
C3040 C 0.47309 0.50344 0.01925 0.0
C3041 C 0.43975 0.46986 0.03819 0.0
C3042 C 0.42733 0.45992 0.02231 0.0
C3043 C 0.4359 0.47027 0.05738 0.0
C3044 C 0.44823 0.48095 0.07473 0.0
C3045 C 0.45471 0.50028 0.07575 0.0
C3046 C 0.46658 0.51017 0.09198 0.0
C3047 C 0.47197 0.50092 0.10737 0.0
C3048 C 0.46544 0.48177 0.10659 0.0
C3049 C 0.45358 0.47181 0.09037 0.0
H3050 H 0.48117 0.5086 0.11991 0.0
H3051 H 0.3686 0.40812 0.96261 0.0
H3052 H 0.38464 0.53586 0.73712 0.0
H3053 H 0.36903 0.56133 0.73662 0.0
H3054 H 0.41477 0.60094 0.76558 0.0
H3055 H 0.43044 0.57557 0.76628 0.0
H3056 H 0.38752 0.60598 0.78222 0.0
H3057 H 0.40067 0.59957 0.71748 0.0
H3058 H 0.40197 0.58271 0.68516 0.0
H3059 H 0.34728 0.56634 0.67277 0.0
H3060 H 0.34565 0.58288 0.70514 0.0
H3061 H 0.34975 0.68467 0.77215 0.0
H3062 H 0.36903 0.66301 0.76992 0.0
H3063 H 0.32803 0.62068 0.73469 0.0
H3064 H 0.30912 0.64275 0.73528 0.0
H3065 H 0.35525 0.61883 0.72095 0.0
H3066 H 0.3423 0.62259 0.78692 0.0
H3067 H 0.34095 0.63921 0.81937 0.0
H3068 H 0.39515 0.66032 0.82944 0.0
H3069 H 0.39679 0.64394 0.79697 0.0
C3070 C 0.3914 0.54999 0.74333 0.0
C3071 C 0.4088 0.55367 0.75172 0.0
C3072 C 0.38248 0.56455 0.74296 0.0
C3073 C 0.39078 0.58307 0.75091 0.0
C3074 C 0.40812 0.58676 0.75935 0.0
C3075 C 0.41706 0.57223 0.75968 0.0
C3076 C 0.38127 0.59849 0.75083 0.0
C3077 C 0.38065 0.60898 0.7688 0.0
C3078 C 0.37213 0.60222 0.73335 0.0
C3079 C 0.37305 0.59234 0.71382 0.0
C3080 C 0.38892 0.59226 0.70792 0.0
C3081 C 0.38972 0.58277 0.68958 0.0
C3082 C 0.37472 0.57342 0.67693 0.0
C3083 C 0.35889 0.57357 0.68259 0.0
C3084 C 0.35802 0.58302 0.70092 0.0
C3085 C 0.34485 0.67089 0.76361 0.0
C3086 C 0.32771 0.66548 0.7541 0.0
C3087 C 0.35588 0.65838 0.7626 0.0
C3088 C 0.34991 0.63999 0.75254 0.0
C3089 C 0.33295 0.63471 0.74269 0.0
C3090 C 0.32203 0.64732 0.74332 0.0
C3091 C 0.36114 0.62608 0.75242 0.0
C3092 C 0.36214 0.6159 0.73439 0.0
C3093 C 0.37059 0.62257 0.76986 0.0
C3094 C 0.36964 0.63217 0.78948 0.0
C3095 C 0.35391 0.63083 0.79603 0.0
C3096 C 0.3531 0.6402 0.81443 0.0
C3097 C 0.36795 0.65085 0.82644 0.0
C3098 C 0.38366 0.65208 0.82012 0.0
C3099 C 0.38454 0.64273 0.80174 0.0
H3100 H 0.36729 0.65811 0.84066 0.0
H3101 H 0.37536 0.56609 0.66274 0.0
H3102 H 0.29472 0.61524 0.5659 0.0
H3103 H 0.26659 0.59484 0.56315 0.0
H3104 H 0.25016 0.63889 0.59735 0.0
H3105 H 0.27823 0.65913 0.60051 0.0
H3106 H 0.23636 0.60576 0.60572 0.0
H3107 H 0.24323 0.63338 0.54716 0.0
H3108 H 0.25678 0.64013 0.51865 0.0
H3109 H 0.24702 0.5812 0.49685 0.0
H3110 H 0.23357 0.5741 0.52538 0.0
H3111 H 0.14853 0.5938 0.57381 0.0
H3112 H 0.17926 0.60588 0.5781 0.0
H3113 H 0.1855 0.55353 0.54776 0.0
H3114 H 0.15467 0.54114 0.54368 0.0
H3115 H 0.20529 0.58603 0.53732 0.0
H3116 H 0.19437 0.5599 0.59528 0.0
H3117 H 0.1795 0.55536 0.62328 0.0
H3118 H 0.19603 0.61405 0.64599 0.0
H3119 H 0.21079 0.61899 0.61795 0.0
C3120 C 0.28527 0.62038 0.57329 0.0
C3121 C 0.28861 0.63889 0.58321 0.0
C3122 C 0.26916 0.60876 0.57158 0.0
C3123 C 0.25617 0.61552 0.57966 0.0
C3124 C 0.25995 0.63343 0.59088 0.0
C3125 C 0.27601 0.645 0.59264 0.0
C3126 C 0.23829 0.60479 0.57517 0.0
C3127 C 0.22958 0.60146 0.59077 0.0
C3128 C 0.22948 0.59895 0.55564 0.0
C3129 C 0.23759 0.6032 0.53851 0.0
C3130 C 0.24411 0.62186 0.53637 0.0
C3131 C 0.25175 0.62575 0.5202 0.0
C3132 C 0.25282 0.6111 0.50599 0.0
C3133 C 0.24622 0.59253 0.5079 0.0
C3134 C 0.23858 0.58856 0.52406 0.0
C3135 C 0.15643 0.58483 0.56804 0.0
C3136 C 0.14922 0.5664 0.55868 0.0
C3137 C 0.17396 0.59178 0.57045 0.0
C3138 C 0.18464 0.58045 0.56357 0.0
C3139 C 0.17743 0.56242 0.55326 0.0
C3140 C 0.15984 0.55541 0.55088 0.0
C3141 C 0.20337 0.58735 0.56787 0.0
C3142 C 0.21219 0.58998 0.55225 0.0
C3143 C 0.21223 0.59282 0.58738 0.0
C3144 C 0.2036 0.58983 0.60444 0.0
C3145 C 0.19475 0.57186 0.60618 0.0
C3146 C 0.18635 0.56921 0.62207 0.0
C3147 C 0.1868 0.58442 0.63639 0.0
C3148 C 0.19569 0.60229 0.63488 0.0
C3149 C 0.2041 0.60501 0.61901 0.0
H3150 H 0.18027 0.58234 0.64867 0.0
H3151 H 0.25868 0.61412 0.49344 0.0
H3152 H 0.66624 0.92544 0.76464 0.0
H3153 H 0.68222 0.90059 0.76577 0.0
H3154 H 0.72496 0.93906 0.80252 0.0
H3155 H 0.70882 0.96451 0.80118 0.0
H3156 H 0.73718 0.91619 0.777 0.0
H3157 H 0.69603 0.90202 0.81947 0.0
H3158 H 0.66693 0.89648 0.82727 0.0
H3159 H 0.65113 0.84985 0.78057 0.0
H3160 H 0.68007 0.85522 0.77232 0.0
H3161 H 0.78168 0.84252 0.79782 0.0
H3162 H 0.76709 0.86888 0.79904 0.0
H3163 H 0.72013 0.83166 0.76991 0.0
H3164 H 0.73465 0.80518 0.76938 0.0
H3165 H 0.71047 0.85459 0.79274 0.0
H3166 H 0.74864 0.86799 0.74822 0.0
H3167 H 0.77616 0.87321 0.73646 0.0
H3168 H 0.79606 0.91997 0.78247 0.0
H3169 H 0.76871 0.91486 0.79467 0.0
C3170 C 0.67902 0.9289 0.77312 0.0
C3171 C 0.68588 0.94749 0.78291 0.0
C3172 C 0.68828 0.91432 0.77386 0.0
C3173 C 0.70501 0.91724 0.78457 0.0
C3174 C 0.71213 0.93588 0.79416 0.0
C3175 C 0.70277 0.95063 0.79346 0.0
C3176 C 0.71474 0.90093 0.78547 0.0
C3177 C 0.73135 0.90289 0.78083 0.0
C3178 C 0.70737 0.88289 0.78967 0.0
C3179 C 0.69017 0.87919 0.79512 0.0
C3180 C 0.68634 0.89063 0.81082 0.0
C3181 C 0.66988 0.88752 0.81532 0.0
C3182 C 0.65718 0.87294 0.80429 0.0
C3183 C 0.66097 0.86121 0.78899 0.0
C3184 C 0.67741 0.86426 0.78443 0.0
C3185 C 0.76823 0.8398 0.79165 0.0
C3186 C 0.75959 0.82126 0.78346 0.0
C3187 C 0.75977 0.85518 0.79217 0.0
C3188 C 0.74223 0.853 0.78418 0.0
C3189 C 0.73355 0.83438 0.77624 0.0
C3190 C 0.74199 0.81897 0.77589 0.0
C3191 C 0.73299 0.86979 0.78426 0.0
C3192 C 0.71642 0.86791 0.78904 0.0
C3193 C 0.74026 0.88776 0.77977 0.0
C3194 C 0.7567 0.89091 0.77249 0.0
C3195 C 0.75893 0.87931 0.75591 0.0
C3196 C 0.77448 0.88225 0.74916 0.0
C3197 C 0.78786 0.89688 0.75875 0.0
C3198 C 0.78569 0.90862 0.77508 0.0
C3199 C 0.77016 0.90571 0.78192 0.0
H3200 H 0.7999 0.89914 0.75349 0.0
H3201 H 0.64439 0.87078 0.80755 0.0
H3202 H 0.76952 0.94336 0.56434 0.0
H3203 H 0.74568 0.95979 0.56372 0.0
H3204 H 0.71566 0.91725 0.51723 0.0
H3205 H 0.73923 0.90089 0.51773 0.0
H3206 H 0.71316 0.95181 0.50938 0.0
H3207 H 0.70873 0.9183 0.5645 0.0
H3208 H 0.71915 0.9095 0.5964 0.0
H3209 H 0.72761 0.9669 0.62358 0.0
H3210 H 0.71744 0.97608 0.59176 0.0
H3211 H 0.62996 0.96841 0.50762 0.0
H3212 H 0.65526 0.95464 0.51076 0.0
H3213 H 0.67923 0.99674 0.56061 0.0
H3214 H 0.65377 0.0104 0.55773 0.0
H3215 H 0.68631 0.9647 0.56764 0.0
H3216 H 0.68997 0.99847 0.51352 0.0
H3217 H 0.68006 0.008 0.48185 0.0
H3218 H 0.67406 0.95152 0.45297 0.0
H3219 H 0.68372 0.94159 0.48453 0.0
C3220 C 0.75785 0.93752 0.55399 0.0
C3221 C 0.75635 0.92074 0.54113 0.0
C3222 C 0.74418 0.94689 0.55369 0.0
C3223 C 0.72875 0.93973 0.54049 0.0
C3224 C 0.72737 0.92312 0.52754 0.0
C3225 C 0.74091 0.91372 0.52791 0.0
C3226 C 0.71398 0.94939 0.53992 0.0
C3227 C 0.7072 0.95446 0.52209 0.0
C3228 C 0.70643 0.95342 0.55659 0.0
C3229 C 0.71251 0.94791 0.57571 0.0
C3230 C 0.71295 0.92907 0.57725 0.0
C3231 C 0.71878 0.92401 0.59532 0.0
C3232 C 0.72409 0.93764 0.61199 0.0
C3233 C 0.72353 0.95636 0.61064 0.0
C3234 C 0.71772 0.9615 0.5926 0.0
C3235 C 0.64063 0.97482 0.51921 0.0
C3236 C 0.6398 0.99065 0.53231 0.0
C3237 C 0.65517 0.96693 0.52099 0.0
C3238 C 0.66944 0.97482 0.53569 0.0
C3239 C 0.66849 0.99036 0.54908 0.0
C3240 C 0.65387 0.99816 0.54743 0.0
C3241 C 0.6853 0.96689 0.53699 0.0
C3242 C 0.69231 0.96218 0.55494 0.0
C3243 C 0.69317 0.96332 0.52045 0.0
C3244 C 0.68743 0.96925 0.50143 0.0
C3245 C 0.68643 0.98805 0.50044 0.0
C3246 C 0.68087 0.99353 0.4825 0.0
C3247 C 0.67639 0.98036 0.46541 0.0
C3248 C 0.67751 0.9617 0.46622 0.0
C3249 C 0.68304 0.95614 0.48413 0.0
H3250 H 0.67209 0.98463 0.45154 0.0
H3251 H 0.7286 0.93369 0.62597 0.0
H3252 H 0.39913 0.44738 0.76432 0.0
H3253 H 0.38057 0.41792 0.76731 0.0
H3254 H 0.3502 0.41825 0.71117 0.0
H3255 H 0.36862 0.44789 0.70815 0.0
H3256 H 0.33035 0.41025 0.73781 0.0
H3257 H 0.37757 0.38836 0.7164 0.0
H3258 H 0.4077 0.38657 0.71676 0.0
H3259 H 0.4109 0.37057 0.77417 0.0
H3260 H 0.38084 0.37255 0.77429 0.0
H3261 H 0.28225 0.31716 0.73016 0.0
H3262 H 0.30144 0.345 0.72389 0.0
H3263 H 0.33328 0.34791 0.77994 0.0
H3264 H 0.31413 0.3201 0.78624 0.0
H3265 H 0.35228 0.35359 0.75162 0.0
H3266 H 0.30561 0.3771 0.77366 0.0
H3267 H 0.2754 0.37861 0.77326 0.0
H3268 H 0.27127 0.39137 0.7145 0.0
H3269 H 0.30142 0.38968 0.71446 0.0
C3270 C 0.38855 0.44117 0.75255 0.0
C3271 C 0.38537 0.45002 0.73598 0.0
C3272 C 0.37799 0.42426 0.75424 0.0
C3273 C 0.36409 0.41575 0.73936 0.0
C3274 C 0.36088 0.42454 0.72281 0.0
C3275 C 0.37144 0.44147 0.72109 0.0
C3276 C 0.3526 0.39803 0.74143 0.0
C3277 C 0.33512 0.39777 0.7405 0.0
C3278 C 0.35885 0.38185 0.74539 0.0
C3279 C 0.37699 0.3808 0.74543 0.0
C3280 C 0.38474 0.38464 0.72918 0.0
C3281 C 0.4018 0.38356 0.72929 0.0
C3282 C 0.41122 0.37851 0.7455 0.0
C3283 C 0.40359 0.37451 0.76163 0.0
C3284 C 0.38654 0.3756 0.76162 0.0
C3285 C 0.29335 0.32376 0.74112 0.0
C3286 C 0.29677 0.31646 0.75864 0.0
C3287 C 0.30428 0.33967 0.73755 0.0
C3288 C 0.31873 0.34864 0.75152 0.0
C3289 C 0.32224 0.3412 0.76893 0.0
C3290 C 0.31131 0.32531 0.7725 0.0
C3291 C 0.3301 0.36589 0.74813 0.0
C3292 C 0.34754 0.36606 0.74882 0.0
C3293 C 0.32382 0.38199 0.74397 0.0
C3294 C 0.30572 0.38307 0.74399 0.0
C3295 C 0.29822 0.38008 0.7606 0.0
C3296 C 0.28112 0.381 0.76046 0.0
C3297 C 0.27141 0.38503 0.74384 0.0
C3298 C 0.2788 0.38821 0.72735 0.0
C3299 C 0.2959 0.3873 0.7274 0.0
H3300 H 0.25817 0.38574 0.74376 0.0
H3301 H 0.42442 0.37765 0.74554 0.0
H3302 H 0.16365 0.57463 0.27855 0.0
H3303 H 0.18036 0.6056 0.27782 0.0
H3304 H 0.22677 0.58555 0.29125 0.0
H3305 H 0.20984 0.55408 0.29236 0.0
H3306 H 0.23199 0.62039 0.31001 0.0
H3307 H 0.21017 0.5939 0.24332 0.0
H3308 H 0.18904 0.57895 0.21386 0.0
H3309 H 0.16308 0.62469 0.21979 0.0
H3310 H 0.18391 0.63978 0.24948 0.0
H3311 H 0.25961 0.70113 0.24681 0.0
H3312 H 0.2459 0.66925 0.24984 0.0
H3313 H 0.24118 0.68804 0.30933 0.0
H3314 H 0.2554 0.71997 0.3065 0.0
H3315 H 0.21696 0.65265 0.25349 0.0
H3316 H 0.23714 0.65017 0.33647 0.0
H3317 H 0.26116 0.66397 0.36341 0.0
H3318 H 0.29458 0.6748 0.32186 0.0
H3319 H 0.27094 0.66036 0.29466 0.0
C3320 C 0.17743 0.57658 0.2814 0.0
C3321 C 0.18519 0.56139 0.28541 0.0
C3322 C 0.18709 0.59455 0.28084 0.0
C3323 C 0.20507 0.59832 0.28404 0.0
C3324 C 0.21298 0.58334 0.28858 0.0
C3325 C 0.20323 0.56518 0.28919 0.0
C3326 C 0.21525 0.61774 0.28243 0.0
C3327 C 0.22862 0.62739 0.29763 0.0
C3328 C 0.21139 0.62722 0.26621 0.0
C3329 C 0.19853 0.61789 0.24872 0.0
C3330 C 0.19985 0.60067 0.23847 0.0
C3331 C 0.18794 0.59219 0.2217 0.0
C3332 C 0.17474 0.60088 0.21495 0.0
C3333 C 0.17333 0.61799 0.22503 0.0
C3334 C 0.18518 0.62651 0.24183 0.0
C3335 C 0.25578 0.69859 0.26064 0.0
C3336 C 0.25883 0.71349 0.27639 0.0
C3337 C 0.24778 0.68014 0.26236 0.0
C3338 C 0.24242 0.67565 0.2799 0.0
C3339 C 0.24535 0.69058 0.29567 0.0
C3340 C 0.25348 0.70907 0.29399 0.0
C3341 C 0.23349 0.6556 0.28129 0.0
C3342 C 0.22032 0.64578 0.26598 0.0
C3343 C 0.23778 0.64591 0.29725 0.0
C3344 C 0.25217 0.65444 0.31349 0.0
C3345 C 0.24962 0.65544 0.33306 0.0
C3346 C 0.26318 0.66338 0.34839 0.0
C3347 C 0.27933 0.67049 0.34436 0.0
C3348 C 0.28203 0.66942 0.32497 0.0
C3349 C 0.26856 0.6613 0.30959 0.0
H3350 H 0.28978 0.67671 0.35625 0.0
H3351 H 0.16564 0.59443 0.20185 0.0
H3352 H 0.47667 0.68123 0.42036 0.0
H3353 H 0.48134 0.65498 0.43741 0.0
H3354 H 0.52939 0.68808 0.46918 0.0
H3355 H 0.52486 0.71446 0.452 0.0
H3356 H 0.53248 0.65311 0.45401 0.0
H3357 H 0.49359 0.6772 0.49345 0.0
H3358 H 0.4667 0.68734 0.49734 0.0
H3359 H 0.43784 0.63419 0.46631 0.0
H3360 H 0.46454 0.62364 0.46257 0.0
H3361 H 0.5512 0.59003 0.51836 0.0
H3362 H 0.54486 0.61764 0.50484 0.0
H3363 H 0.49364 0.5872 0.48051 0.0
H3364 H 0.49972 0.55981 0.49468 0.0
H3365 H 0.49157 0.62076 0.49162 0.0
H3366 H 0.52708 0.59501 0.45234 0.0
H3367 H 0.55203 0.58258 0.44484 0.0
H3368 H 0.58504 0.63575 0.46925 0.0
H3369 H 0.5603 0.64846 0.47715 0.0
C3370 C 0.4882 0.68305 0.43109 0.0
C3371 C 0.50037 0.70008 0.43477 0.0
C3372 C 0.4908 0.66798 0.44095 0.0
C3373 C 0.50564 0.6695 0.45483 0.0
C3374 C 0.5178 0.68651 0.45862 0.0
C3375 C 0.51516 0.70164 0.44881 0.0
C3376 C 0.50885 0.65308 0.46464 0.0
C3377 C 0.52369 0.64628 0.46256 0.0
C3378 C 0.49703 0.64347 0.47501 0.0
C3379 C 0.48103 0.64969 0.47765 0.0
C3380 C 0.48149 0.66769 0.48748 0.0
C3381 C 0.46629 0.67348 0.48972 0.0
C3382 C 0.45057 0.66142 0.48205 0.0
C3383 C 0.45002 0.6435 0.47229 0.0
C3384 C 0.46517 0.63756 0.47023 0.0
C3385 C 0.53855 0.58922 0.51024 0.0
C3386 C 0.52605 0.57257 0.50755 0.0
C3387 C 0.53494 0.60504 0.50235 0.0
C3388 C 0.51887 0.60453 0.49112 0.0
C3389 C 0.50618 0.58809 0.48897 0.0
C3390 C 0.5097 0.57235 0.4971 0.0
C3391 C 0.51544 0.62096 0.48135 0.0
C3392 C 0.5005 0.62768 0.48328 0.0
C3393 C 0.52693 0.63017 0.47031 0.0
C3394 C 0.54185 0.62263 0.46552 0.0
C3395 C 0.53967 0.60402 0.45624 0.0
C3396 C 0.55377 0.59693 0.4519 0.0
C3397 C 0.57011 0.60835 0.45662 0.0
C3398 C 0.57238 0.62691 0.46564 0.0
C3399 C 0.55832 0.63408 0.47003 0.0
H3400 H 0.58101 0.60283 0.45325 0.0
H3401 H 0.43882 0.66595 0.4837 0.0
H3402 H 0.61648 0.30673 0.66328 0.0
H3403 H 0.64627 0.30784 0.6778 0.0
H3404 H 0.62959 0.26181 0.70816 0.0
H3405 H 0.59997 0.26055 0.69371 0.0
H3406 H 0.65365 0.2899 0.73207 0.0
H3407 H 0.64627 0.25463 0.66705 0.0
H3408 H 0.63942 0.24995 0.63095 0.0
H3409 H 0.67933 0.29719 0.62963 0.0
H3410 H 0.68626 0.3023 0.66576 0.0
H3411 H 0.72521 0.25455 0.76242 0.0
H3412 H 0.69792 0.25818 0.74504 0.0
H3413 H 0.72413 0.29984 0.71515 0.0
H3414 H 0.75178 0.29575 0.73228 0.0
H3415 H 0.69667 0.27852 0.69074 0.0
H3416 H 0.70578 0.31279 0.755 0.0
H3417 H 0.71296 0.31827 0.79108 0.0
H3418 H 0.67013 0.27492 0.79408 0.0
H3419 H 0.66283 0.26898 0.75798 0.0
C3420 C 0.61915 0.29694 0.67317 0.0
C3421 C 0.60578 0.28354 0.67729 0.0
C3422 C 0.63621 0.29752 0.68137 0.0
C3423 C 0.64025 0.2848 0.69398 0.0
C3424 C 0.62686 0.27176 0.69848 0.0
C3425 C 0.60989 0.27105 0.69015 0.0
C3426 C 0.65832 0.28483 0.70254 0.0
C3427 C 0.663 0.28728 0.72301 0.0
C3428 C 0.67079 0.28208 0.69081 0.0
C3429 C 0.66664 0.27898 0.66911 0.0
C3430 C 0.65348 0.26412 0.65907 0.0
C3431 C 0.64961 0.26137 0.6386 0.0
C3432 C 0.6589 0.2733 0.628 0.0
C3433 C 0.67212 0.28798 0.63785 0.0
C3434 C 0.67603 0.29081 0.65832 0.0
C3435 C 0.72521 0.26438 0.75202 0.0
C3436 C 0.74065 0.27503 0.74891 0.0
C3437 C 0.70955 0.26654 0.74215 0.0
C3438 C 0.70883 0.27969 0.72915 0.0
C3439 C 0.72428 0.28973 0.72524 0.0
C3440 C 0.74008 0.2874 0.73502 0.0
C3441 C 0.69187 0.28312 0.7203 0.0
C3442 C 0.68739 0.28136 0.69982 0.0
C3443 C 0.67959 0.28673 0.73203 0.0
C3444 C 0.68383 0.29036 0.75376 0.0
C3445 C 0.69795 0.30434 0.76334 0.0
C3446 C 0.70204 0.30754 0.7838 0.0
C3447 C 0.69202 0.29693 0.79486 0.0
C3448 C 0.67788 0.28313 0.78549 0.0
C3449 C 0.67375 0.27985 0.76503 0.0
H3450 H 0.69521 0.29942 0.8107 0.0
H3451 H 0.65588 0.27115 0.61216 0.0
H3452 H 0.03342 0.30952 0.95189 0.0
H3453 H 0.03818 0.34152 0.96966 0.0
H3454 H 0.99114 0.34896 0.93659 0.0
H3455 H 0.98689 0.31755 0.91825 0.0
H3456 H 0.0127 0.37833 0.9376 0.0
H3457 H 0.99776 0.34255 0.98807 0.0
H3458 H 0.99992 0.31889 0.01008 0.0
H3459 H 0.05123 0.34745 0.03517 0.0
H3460 H 0.04945 0.37116 0.01312 0.0
H3461 H 1.00074 0.45906 0.9963 0.0
H3462 H 0.99788 0.42605 0.98285 0.0
H3463 H 0.05137 0.42983 0.00377 0.0
H3464 H 0.05445 0.46302 0.01707 0.0
H3465 H 0.02834 0.39553 0.00983 0.0
H3466 H 0.0416 0.43202 0.95887 0.0
H3467 H 0.03749 0.45594 0.93766 0.0
H3468 H 0.98644 0.42543 0.91421 0.0
H3469 H 0.99016 0.40147 0.93551 0.0
C3470 C 0.02404 0.31796 0.94857 0.0
C3471 C 0.0098 0.31099 0.93362 0.0
C3472 C 0.02672 0.33628 0.95881 0.0
C3473 C 0.01496 0.34783 0.9547 0.0
C3474 C 1.00053 0.34057 0.94007 0.0
C3475 C 0.99805 0.3225 0.9296 0.0
C3476 C 0.01783 0.36767 0.96488 0.0
C3477 C 0.01589 0.38191 0.95343 0.0
C3478 C 0.02242 0.37275 0.98555 0.0
C3479 C 0.02353 0.35851 0.9988 0.0
C3480 C 0.00955 0.3437 0.99817 0.0
C3481 C 0.0107 0.3303 0.01068 0.0
C3482 C 0.02572 0.33163 0.02397 0.0
C3483 C 0.03961 0.34641 0.02483 0.0
C3484 C 0.03854 0.35984 0.01235 0.0
C3485 C 0.01189 0.45287 0.99827 0.0
C3486 C 0.02785 0.46379 0.00774 0.0
C3487 C 0.01023 0.43397 0.99051 0.0
C3488 C 0.02442 0.42546 0.99221 0.0
C3489 C 0.04024 0.43608 1.0023 0.0
C3490 C 0.04198 0.45509 0.00983 0.0
C3491 C 0.02285 0.4058 0.9825 0.0
C3492 C 0.02513 0.39175 0.99402 0.0
C3493 C 0.01829 0.40079 0.96192 0.0
C3494 C 0.01611 0.41505 0.94892 0.0
C3495 C 0.02945 0.43049 0.9493 0.0
C3496 C 0.0272 0.44404 0.93724 0.0
C3497 C 0.0117 0.44223 0.92463 0.0
C3498 C 0.99844 0.42683 0.924 0.0
C3499 C 1.00062 0.41325 0.93605 0.0
H3500 H 0.00998 0.45274 0.91532 0.0
H3501 H 0.02658 0.32125 0.03364 0.0
H3502 H 0.01956 0.8036 0.18364 0.0
H3503 H 0.99477 0.80488 0.19976 0.0
H3504 H 0.9686 0.7515 0.16593 0.0
H3505 H 0.99301 0.75043 0.14947 0.0
H3506 H 0.94733 0.77358 0.16595 0.0
H3507 H 0.98676 0.75761 0.21657 0.0
H3508 H 0.01398 0.76154 0.2393 0.0
H3509 H 0.00761 0.81502 0.26598 0.0
H3510 H 0.98044 0.81152 0.24324 0.0
H3511 H 0.88018 0.75046 0.21929 0.0
H3512 H 0.90567 0.75145 0.20431 0.0
H3513 H 0.92784 0.80611 0.23776 0.0
H3514 H 0.90266 0.80489 0.25347 0.0
H3515 H 0.95123 0.78506 0.23812 0.0
H3516 H 0.91092 0.8 0.18781 0.0
H3517 H 0.88336 0.79511 0.16548 0.0
H3518 H 0.89121 0.74245 0.13841 0.0
H3519 H 0.91874 0.74693 0.16074 0.0
C3520 C 0.00857 0.79208 0.17975 0.0
C3521 C 0.00834 0.77691 0.16523 0.0
C3522 C 0.99437 0.79278 0.18903 0.0
C3523 C 0.97972 0.7782 0.18425 0.0
C3524 C 0.97962 0.76299 0.16991 0.0
C3525 C 0.99369 0.76236 0.16052 0.0
C3526 C 0.96433 0.77881 0.19375 0.0
C3527 C 0.94822 0.77588 0.18175 0.0
C3528 C 0.96535 0.78226 0.21438 0.0
C3529 C 0.98167 0.78439 0.22806 0.0
C3530 C 0.99123 0.77028 0.22718 0.0
C3531 C 0.00664 0.77241 0.24009 0.0
C3532 C 0.01255 0.78854 0.25404 0.0
C3533 C 1.00304 0.80255 0.25515 0.0
C3534 C 0.98762 0.80049 0.24227 0.0
C3535 C 0.89049 0.76268 0.2236 0.0
C3536 C 0.88923 0.77761 0.23765 0.0
C3537 C 0.90505 0.76331 0.21483 0.0
C3538 C 0.9187 0.77897 0.21966 0.0
C3539 C 0.91751 0.79389 0.23367 0.0
C3540 C 0.90297 0.79325 0.24251 0.0
C3541 C 0.93427 0.77963 0.2103 0.0
C3542 C 0.95039 0.78284 0.22232 0.0
C3543 C 0.93327 0.77632 0.18969 0.0
C3544 C 0.91683 0.77374 0.17605 0.0
C3545 C 0.90673 0.78733 0.17716 0.0
C3546 C 0.89112 0.78464 0.16449 0.0
C3547 C 0.88552 0.76846 0.15056 0.0
C3548 C 0.89556 0.75497 0.14922 0.0
C3549 C 0.91118 0.75759 0.16185 0.0
H3550 H 0.87341 0.76638 0.14079 0.0
H3551 H 0.02448 0.79017 0.26401 0.0
H3552 H 0.53893 0.28468 0.1407 0.0
H3553 H 0.54191 0.30958 0.12058 0.0
H3554 H 0.5779 0.34594 0.16776 0.0
H3555 H 0.57484 0.32101 0.18825 0.0
H3556 H 0.55479 0.36415 0.1507 0.0
H3557 H 0.59239 0.32694 0.1292 0.0
H3558 H 0.60166 0.29795 0.118 0.0
H3559 H 0.56305 0.28717 0.06642 0.0
H3560 H 0.55337 0.31596 0.07744 0.0
H3561 H 0.56684 0.42923 0.08331 0.0
H3562 H 0.57345 0.40841 0.10678 0.0
H3563 H 0.54007 0.36146 0.06801 0.0
H3564 H 0.53428 0.38191 0.04394 0.0
H3565 H 0.56779 0.35137 0.08369 0.0
H3566 H 0.52806 0.38694 0.10863 0.0
H3567 H 0.51943 0.41622 0.12035 0.0
H3568 H 0.56338 0.43048 0.16618 0.0
H3569 H 0.57243 0.40146 0.1545 0.0
C3570 C 0.54749 0.29795 0.14686 0.0
C3571 C 0.5567 0.30083 0.16607 0.0
C3572 C 0.54925 0.31215 0.13528 0.0
C3573 C 0.56034 0.3295 0.14256 0.0
C3574 C 0.56935 0.3326 0.16184 0.0
C3575 C 0.56759 0.31834 0.1735 0.0
C3576 C 0.56215 0.34435 0.12995 0.0
C3577 C 0.55796 0.36153 0.13618 0.0
C3578 C 0.56626 0.34087 0.11101 0.0
C3579 C 0.57209 0.32358 0.10422 0.0
C3580 C 0.5858 0.31833 0.11553 0.0
C3581 C 0.59113 0.30193 0.1092 0.0
C3582 C 0.58293 0.29071 0.09152 0.0
C3583 C 0.56939 0.29588 0.08011 0.0
C3584 C 0.56399 0.31226 0.08638 0.0
C3585 C 0.56116 0.41441 0.07958 0.0
C3586 C 0.54992 0.40728 0.06173 0.0
C3587 C 0.5648 0.40256 0.09315 0.0
C3588 C 0.55702 0.38343 0.08932 0.0
C3589 C 0.54616 0.3762 0.07134 0.0
C3590 C 0.5427 0.38796 0.05767 0.0
C3591 C 0.5597 0.37085 0.10409 0.0
C3592 C 0.56485 0.35411 0.0983 0.0
C3593 C 0.55658 0.3748 0.12346 0.0
C3594 C 0.55101 0.39214 0.13056 0.0
C3595 C 0.53594 0.3964 0.12112 0.0
C3596 C 0.53098 0.41295 0.12775 0.0
C3597 C 0.5409 0.42526 0.14394 0.0
C3598 C 0.55576 0.421 0.15359 0.0
C3599 C 0.5608 0.4045 0.14697 0.0
H3600 H 0.53704 0.43807 0.14905 0.0
H3601 H 0.58708 0.27802 0.08665 0.0
H3602 H 0.98139 0.30471 0.32815 0.0
H3603 H 0.95118 0.30534 0.31956 0.0
H3604 H 0.93754 0.24899 0.33252 0.0
H3605 H 0.9677 0.24805 0.34054 0.0
H3606 H 0.9159 0.25363 0.30275 0.0
H3607 H 0.94052 0.28799 0.36684 0.0
H3608 H 0.96045 0.31233 0.39131 0.0
H3609 H 0.94369 0.35537 0.36174 0.0
H3610 H 0.92389 0.33129 0.33688 0.0
H3611 H 0.8404 0.28191 0.3476 0.0
H3612 H 0.87125 0.28371 0.35015 0.0
H3613 H 0.86594 0.27846 0.2871 0.0
H3614 H 0.83512 0.27545 0.28456 0.0
H3615 H 0.89724 0.30496 0.34136 0.0
H3616 H 0.8936 0.25297 0.27056 0.0
H3617 H 0.87284 0.22708 0.24902 0.0
H3618 H 0.8467 0.216 0.29698 0.0
H3619 H 0.86766 0.24124 0.31894 0.0
C3620 C 0.97194 0.29231 0.32876 0.0
C3621 C 0.97687 0.2764 0.33524 0.0
C3622 C 0.9547 0.29274 0.32396 0.0
C3623 C 0.94216 0.27741 0.32592 0.0
C3624 C 0.94704 0.26103 0.33104 0.0
C3625 C 0.96429 0.2605 0.3356 0.0
C3626 C 0.92403 0.2788 0.32393 0.0
C3627 C 0.91181 0.2649 0.3111 0.0
C3628 C 0.91871 0.29335 0.33513 0.0
C3629 C 0.93084 0.30783 0.34989 0.0
C3630 C 0.94121 0.30264 0.36544 0.0
C3631 C 0.95247 0.31639 0.3794 0.0
C3632 C 0.95332 0.33537 0.37808 0.0
C3633 C 0.94301 0.34065 0.36274 0.0
C3634 C 0.93178 0.32697 0.34871 0.0
C3635 C 0.84593 0.28126 0.33438 0.0
C3636 C 0.83554 0.2782 0.31591 0.0
C3637 C 0.8635 0.28234 0.3358 0.0
C3638 C 0.87083 0.28075 0.31877 0.0
C3639 C 0.86051 0.27912 0.30039 0.0
C3640 C 0.84295 0.27747 0.29896 0.0
C3641 C 0.88907 0.27979 0.32016 0.0
C3642 C 0.90132 0.29378 0.33287 0.0
C3643 C 0.89438 0.26503 0.30924 0.0
C3644 C 0.88207 0.24922 0.29633 0.0
C3645 C 0.88348 0.2449 0.27653 0.0
C3646 C 0.87166 0.2303 0.26423 0.0
C3647 C 0.85832 0.21995 0.27153 0.0
C3648 C 0.85695 0.22401 0.29125 0.0
C3649 C 0.86885 0.23842 0.30367 0.0
H3650 H 0.84909 0.20875 0.26195 0.0
H3651 H 0.9619 0.34601 0.389 0.0
H3652 H 0.04768 0.72647 0.60333 0.0
H3653 H 0.05221 0.70194 0.57877 0.0
H3654 H 0.05171 0.66388 0.62131 0.0
H3655 H 0.04724 0.6882 0.64587 0.0
H3656 H 0.07778 0.66259 0.59963 0.0
H3657 H 0.01662 0.66185 0.5886 0.0
H3658 H 0.99163 0.67614 0.58109 0.0
H3659 H 0.0068 0.68847 0.52683 0.0
H3660 H 0.03201 0.67445 0.53416 0.0
H3661 H 0.04741 0.56954 0.5601 0.0
H3662 H 0.05488 0.602 0.57572 0.0
H3663 H 0.05006 0.62031 0.51902 0.0
H3664 H 0.04229 0.58738 0.50313 0.0
H3665 H 0.03221 0.63691 0.54185 0.0
H3666 H 0.08925 0.62942 0.5495 0.0
H3667 H 0.11297 0.61322 0.55673 0.0
H3668 H 0.10595 0.61569 0.6167 0.0
H3669 H 0.08199 0.6316 0.60979 0.0
C3670 C 0.04854 0.71288 0.60744 0.0
C3671 C 0.04698 0.70924 0.62651 0.0
C3672 C 0.05117 0.69892 0.59342 0.0
C3673 C 0.05232 0.68113 0.59826 0.0
C3674 C 0.05099 0.67757 0.61733 0.0
C3675 C 0.04827 0.69144 0.6313 0.0
C3676 C 0.05401 0.66576 0.58337 0.0
C3677 C 0.06788 0.65696 0.58693 0.0
C3678 C 0.04143 0.65893 0.56642 0.0
C3679 C 0.0263 0.66735 0.56205 0.0
C3680 C 0.0147 0.66776 0.57515 0.0
C3681 C 1.00049 0.67578 0.57091 0.0
C3682 C 0.99767 0.68327 0.55353 0.0
C3683 C 0.00903 0.68271 0.54031 0.0
C3684 C 0.02327 0.67473 0.5445 0.0
C3685 C 0.04841 0.58042 0.55089 0.0
C3686 C 0.04437 0.57595 0.53039 0.0
C3687 C 0.05274 0.59903 0.55986 0.0
C3688 C 0.05332 0.61363 0.54855 0.0
C3689 C 0.04982 0.60925 0.528 0.0
C3690 C 0.04542 0.59049 0.51896 0.0
C3691 C 0.05562 0.63315 0.55853 0.0
C3692 C 0.04249 0.64282 0.55409 0.0
C3693 C 0.06894 0.64078 0.57463 0.0
C3694 C 0.08375 0.63172 0.57909 0.0
C3695 C 0.09271 0.62647 0.56423 0.0
C3696 C 0.10621 0.61732 0.56827 0.0
C3697 C 0.11096 0.61342 0.58716 0.0
C3698 C 0.10227 0.61874 0.60207 0.0
C3699 C 0.08875 0.62787 0.59811 0.0
H3700 H 0.12137 0.60628 0.59024 0.0
H3701 H 0.98665 0.68947 0.55027 0.0
H3702 H 0.59619 0.81271 0.87381 0.0
H3703 H 0.61848 0.8141 0.85371 0.0
H3704 H 0.58033 0.80446 0.80137 0.0
H3705 H 0.55791 0.80257 0.82138 0.0
H3706 H 0.60035 0.78105 0.79828 0.0
H3707 H 0.60893 0.84637 0.8166 0.0
H3708 H 0.61342 0.87685 0.83776 0.0
H3709 H 0.66156 0.86875 0.86649 0.0
H3710 H 0.65719 0.83798 0.84589 0.0
H3711 H 0.66964 0.77695 0.74747 0.0
H3712 H 0.6467 0.79142 0.7578 0.0
H3713 H 0.67013 0.79592 0.81832 0.0
H3714 H 0.69292 0.78154 0.8081 0.0
H3715 H 0.65563 0.82684 0.81048 0.0
H3716 H 0.64139 0.75816 0.79872 0.0
H3717 H 0.63706 0.72743 0.77793 0.0
H3718 H 0.59932 0.74309 0.73676 0.0
H3719 H 0.60362 0.77404 0.75722 0.0
C3720 C 0.59255 0.81116 0.85804 0.0
C3721 C 0.57529 0.80734 0.84917 0.0
C3722 C 0.60533 0.81211 0.84656 0.0
C3723 C 0.60109 0.80955 0.82602 0.0
C3724 C 0.58389 0.80649 0.81718 0.0
C3725 C 0.5711 0.80539 0.82864 0.0
C3726 C 0.61445 0.80794 0.81386 0.0
C3727 C 0.61223 0.79138 0.80057 0.0
C3728 C 0.63005 0.82129 0.81699 0.0
C3729 C 0.63265 0.83971 0.82973 0.0
C3730 C 0.62037 0.85092 0.82761 0.0
C3731 C 0.62291 0.8683 0.8395 0.0
C3732 C 0.63775 0.87472 0.85349 0.0
C3733 C 0.65006 0.86375 0.85565 0.0
C3734 C 0.64756 0.84633 0.84386 0.0
C3735 C 0.66999 0.78137 0.76293 0.0
C3736 C 0.68277 0.77784 0.77705 0.0
C3737 C 0.65696 0.78964 0.76879 0.0
C3738 C 0.65671 0.7946 0.78881 0.0
C3739 C 0.67013 0.79223 0.80281 0.0
C3740 C 0.683 0.78382 0.79698 0.0
C3741 C 0.64154 0.79984 0.79555 0.0
C3742 C 0.64347 0.81696 0.80782 0.0
C3743 C 0.62563 0.78707 0.79155 0.0
C3744 C 0.62299 0.76847 0.77933 0.0
C3745 C 0.63227 0.75509 0.78515 0.0
C3746 C 0.62981 0.73764 0.77345 0.0
C3747 C 0.61796 0.73333 0.756 0.0
C3748 C 0.60852 0.74646 0.75025 0.0
C3749 C 0.61097 0.76396 0.76189 0.0
H3750 H 0.61606 0.71981 0.74696 0.0
H3751 H 0.63972 0.8882 0.86262 0.0
H3752 H 0.48117 0.53168 0.72132 0.0
H3753 H 0.4934 0.53378 0.69151 0.0
H3754 H 0.45172 0.49035 0.65946 0.0
H3755 H 0.43936 0.48806 0.68933 0.0
H3756 H 0.48337 0.48636 0.64976 0.0
H3757 H 0.45046 0.53405 0.65479 0.0
H3758 H 0.44102 0.5609 0.67133 0.0
H3759 H 0.49179 0.59427 0.67933 0.0
H3760 H 0.50159 0.56752 0.66308 0.0
H3761 H 0.50518 0.5061 0.55795 0.0
H3762 H 0.48835 0.50155 0.58409 0.0
H3763 H 0.52459 0.54644 0.62262 0.0
H3764 H 0.54099 0.55138 0.59629 0.0
H3765 H 0.49267 0.54837 0.62691 0.0
H3766 H 0.52607 0.5004 0.6239 0.0
H3767 H 0.5358 0.47393 0.60698 0.0
H3768 H 0.48457 0.44125 0.59518 0.0
H3769 H 0.47448 0.46766 0.61173 0.0
C3770 C 0.47463 0.52245 0.70799 0.0
C3771 C 0.4592 0.5098 0.70769 0.0
C3772 C 0.48163 0.52371 0.69095 0.0
C3773 C 0.47335 0.51239 0.67322 0.0
C3774 C 0.45828 0.49924 0.67298 0.0
C3775 C 0.45122 0.49801 0.69005 0.0
C3776 C 0.48016 0.51492 0.65487 0.0
C3777 C 0.48516 0.49982 0.64457 0.0
C3778 C 0.48267 0.53255 0.64823 0.0
C3779 C 0.47679 0.54873 0.65786 0.0
C3780 C 0.45964 0.54707 0.6602 0.0
C3781 C 0.45422 0.56228 0.66951 0.0
C3782 C 0.46581 0.57927 0.67641 0.0
C3783 C 0.48283 0.5811 0.67398 0.0
C3784 C 0.48832 0.56592 0.66471 0.0
C3785 C 0.50921 0.51532 0.57177 0.0
C3786 C 0.52418 0.52926 0.57499 0.0
C3787 C 0.49976 0.51255 0.58682 0.0
C3788 C 0.5053 0.52355 0.60539 0.0
C3789 C 0.52005 0.5378 0.60842 0.0
C3790 C 0.52943 0.54058 0.59339 0.0
C3791 C 0.49622 0.51994 0.622 0.0
C3792 C 0.49075 0.53484 0.63198 0.0
C3793 C 0.49336 0.50216 0.62834 0.0
C3794 C 0.49949 0.48608 0.61888 0.0
C3795 C 0.51686 0.4876 0.61761 0.0
C3796 C 0.52244 0.47261 0.60808 0.0
C3797 C 0.5108 0.45594 0.59997 0.0
C3798 C 0.49357 0.45419 0.60144 0.0
C3799 C 0.48791 0.46916 0.6109 0.0
H3800 H 0.51514 0.44436 0.59257 0.0
H3801 H 0.46159 0.59102 0.68362 0.0
H3802 H 0.81528 0.24855 0.04229 0.0
H3803 H 0.79991 0.25655 0.01266 0.0
H3804 H 0.78826 0.19833 0.98629 0.0
H3805 H 0.80405 0.19034 0.01551 0.0
H3806 H 0.79816 0.21875 0.96112 0.0
H3807 H 0.75747 0.22006 1.00332 0.0
H3808 H 0.74638 0.22841 0.03352 0.0
H3809 H 0.75746 0.2866 0.02681 0.0
H3810 H 0.76885 0.27863 0.99671 0.0
H3811 H 0.74964 0.23879 0.87874 0.0
H3812 H 0.75084 0.2267 0.90997 0.0
H3813 H 0.77711 0.28139 0.94044 0.0
H3814 H 0.77647 0.29347 0.90943 0.0
H3815 H 0.75519 0.25884 0.96264 0.0
H3816 H 0.80051 0.25586 0.92324 0.0
H3817 H 0.80993 0.24644 0.89218 0.0
H3818 H 0.78792 0.18877 0.89363 0.0
H3819 H 0.77799 0.19793 0.92448 0.0
C3820 C 0.80949 0.23748 0.03014 0.0
C3821 C 0.81093 0.21885 0.03119 0.0
C3822 C 0.80055 0.24203 0.01331 0.0
C3823 C 0.79266 0.22797 0.9974 0.0
C3824 C 0.7942 0.20939 0.9984 0.0
C3825 C 0.80329 0.20487 0.0151 0.0
C3826 C 0.78356 0.23279 0.97933 0.0
C3827 C 0.78849 0.22715 0.96147 0.0
C3828 C 0.77099 0.24385 0.97972 0.0
C3829 C 0.76414 0.24875 0.99782 0.0
C3830 C 0.75766 0.23465 0.00836 0.0
C3831 C 0.7513 0.23932 0.02545 0.0
C3832 C 0.75125 0.25803 0.0321 0.0
C3833 C 0.75752 0.27211 0.02164 0.0
C3834 C 0.76391 0.26752 0.00455 0.0
C3835 C 0.7553 0.24835 0.89215 0.0
C3836 C 0.76337 0.26696 0.89157 0.0
C3837 C 0.7558 0.24147 0.90995 0.0
C3838 C 0.76429 0.25313 0.92736 0.0
C3839 C 0.77048 0.27223 0.92711 0.0
C3840 C 0.7701 0.2791 0.90931 0.0
C3841 C 0.76999 0.24493 0.94479 0.0
C3842 C 0.76455 0.25004 0.96243 0.0
C3843 C 0.78192 0.23315 0.94423 0.0
C3844 C 0.78834 0.2276 0.92602 0.0
C3845 C 0.79758 0.24119 0.91686 0.0
C3846 C 0.803 0.2359 0.89929 0.0
C3847 C 0.79946 0.21702 0.89089 0.0
C3848 C 0.79057 0.20339 0.9001 0.0
C3849 C 0.78504 0.20862 0.91762 0.0
H3850 H 0.80367 0.21296 0.87729 0.0
H3851 H 0.74631 0.26161 0.04533 0.0
H3852 H 0.14574 0.49743 0.21748 0.0
H3853 H 0.1316 0.49918 0.18412 0.0
H3854 H 0.08699 0.50932 0.20689 0.0
H3855 H 0.10086 0.50748 0.23984 0.0
H3856 H 0.07653 0.48617 0.17397 0.0
H3857 H 0.11818 0.54427 0.19263 0.0
H3858 H 0.14728 0.56336 0.20323 0.0
H3859 H 0.16231 0.53925 0.15103 0.0
H3860 H 0.13337 0.51958 0.14039 0.0
H3861 H 0.02992 0.51973 0.09735 0.0
H3862 H 0.04739 0.51642 0.12775 0.0
H3863 H 0.08902 0.51081 0.09704 0.0
H3864 H 0.07145 0.5148 0.06632 0.0
H3865 H 0.10263 0.52936 0.13213 0.0
H3866 H 0.06204 0.47188 0.11268 0.0
H3867 H 0.03368 0.45104 0.10182 0.0
H3868 H 0.01754 0.47203 0.15456 0.0
H3869 H 0.04574 0.49319 0.16563 0.0
C3870 C 0.13288 0.49992 0.2154 0.0
C3871 C 0.12462 0.50229 0.23175 0.0
C3872 C 0.12476 0.50108 0.19618 0.0
C3873 C 0.10805 0.50463 0.19253 0.0
C3874 C 0.09977 0.5066 0.20883 0.0
C3875 C 0.10786 0.50556 0.22793 0.0
C3876 C 0.09899 0.5063 0.17208 0.0
C3877 C 0.08228 0.49581 0.16502 0.0
C3878 C 0.10636 0.51831 0.15958 0.0
C3879 C 0.12366 0.5303 0.16583 0.0
C3880 C 0.12772 0.54293 0.18349 0.0
C3881 C 0.1442 0.55387 0.18949 0.0
C3882 C 0.15665 0.55253 0.1778 0.0
C3883 C 0.15265 0.54025 0.16008 0.0
C3884 C 0.13623 0.52918 0.15407 0.0
C3885 C 0.04281 0.51786 0.09692 0.0
C3886 C 0.04908 0.51751 0.07907 0.0
C3887 C 0.05288 0.51577 0.11451 0.0
C3888 C 0.06966 0.5128 0.11514 0.0
C3889 C 0.07618 0.51293 0.09736 0.0
C3890 C 0.06607 0.51522 0.07964 0.0
C3891 C 0.08 0.50949 0.13424 0.0
C3892 C 0.09691 0.51965 0.14104 0.0
C3893 C 0.07292 0.49698 0.14646 0.0
C3894 C 0.05596 0.48424 0.1399 0.0
C3895 C 0.0524 0.47214 0.1219 0.0
C3896 C 0.03637 0.46026 0.11572 0.0
C3897 C 0.02381 0.46024 0.12747 0.0
C3898 C 0.02728 0.47207 0.14546 0.0
C3899 C 0.04329 0.484 0.15171 0.0
H3900 H 0.0114 0.45102 0.12266 0.0
H3901 H 0.16939 0.56103 0.18244 0.0
H3902 H 0.79685 0.88401 0.48652 0.0
H3903 H 0.79367 0.86897 0.45264 0.0
H3904 H 0.79401 0.81552 0.47235 0.0
H3905 H 0.79771 0.83061 0.50636 0.0
H3906 H 0.81273 0.81854 0.44555 0.0
H3907 H 0.75655 0.82748 0.44997 0.0
H3908 H 0.73445 0.84495 0.45727 0.0
H3909 H 0.74749 0.88082 0.41511 0.0
H3910 H 0.76983 0.86371 0.40774 0.0
H3911 H 0.76011 0.78234 0.33926 0.0
H3912 H 0.76178 0.79482 0.37373 0.0
H3913 H 0.81532 0.81864 0.37784 0.0
H3914 H 0.81387 0.80571 0.34357 0.0
H3915 H 0.7681 0.82817 0.39319 0.0
H3916 H 0.83687 0.82075 0.42342 0.0
H3917 H 0.85669 0.79996 0.41679 0.0
H3918 H 0.81431 0.75499 0.39087 0.0
H3919 H 0.79424 0.77543 0.39758 0.0
C3920 C 0.79617 0.86904 0.48367 0.0
C3921 C 0.79749 0.85853 0.49921 0.0
C3922 C 0.79428 0.86041 0.46422 0.0
C3923 C 0.79337 0.84101 0.4598 0.0
C3924 C 0.79468 0.8305 0.47531 0.0
C3925 C 0.79673 0.83915 0.49478 0.0
C3926 C 0.79139 0.83177 0.43906 0.0
C3927 C 0.80295 0.82066 0.43413 0.0
C3928 C 0.77843 0.83413 0.4241 0.0
C3929 C 0.76497 0.84442 0.42843 0.0
C3930 C 0.75478 0.83918 0.44236 0.0
C3931 C 0.7422 0.849 0.44649 0.0
C3932 C 0.73959 0.86402 0.4367 0.0
C3933 C 0.74954 0.8692 0.4227 0.0
C3934 C 0.76215 0.85943 0.41852 0.0
C3935 C 0.77228 0.79015 0.34751 0.0
C3936 C 0.78689 0.79289 0.33862 0.0
C3937 C 0.7732 0.79736 0.36725 0.0
C3938 C 0.78872 0.80753 0.37858 0.0
C3939 C 0.80327 0.8105 0.36963 0.0
C3940 C 0.8024 0.80314 0.34995 0.0
C3941 C 0.78963 0.81521 0.39963 0.0
C3942 C 0.77787 0.82605 0.40462 0.0
C3943 C 0.80211 0.81216 0.41473 0.0
C3944 C 0.81407 0.79969 0.41084 0.0
C3945 C 0.83179 0.8064 0.41638 0.0
C3946 C 0.84306 0.79468 0.41259 0.0
C3947 C 0.83676 0.77619 0.40336 0.0
C3948 C 0.81917 0.76934 0.39795 0.0
C3949 C 0.80784 0.781 0.40172 0.0
H3950 H 0.84552 0.76714 0.40043 0.0
H3951 H 0.72985 0.87161 0.43992 0.0
H3952 H 0.45481 0.52791 0.80659 0.0
H3953 H 0.46857 0.53347 0.84102 0.0
H3954 H 0.47576 0.47646 0.83604 0.0
H3955 H 0.46191 0.47072 0.80172 0.0
H3956 H 0.46117 0.48563 0.86739 0.0
H3957 H 0.50898 0.51376 0.83893 0.0
H3958 H 0.52389 0.53575 0.81991 0.0
H3959 H 0.51647 0.58246 0.85861 0.0
H3960 H 0.50129 0.56075 0.87769 0.0
H3961 H 0.51444 0.485 0.95547 0.0
H3962 H 0.50263 0.48379 0.92106 0.0
H3963 H 0.5022 0.54284 0.93143 0.0
H3964 H 0.51466 0.5443 0.96593 0.0
H3965 H 0.51216 0.53484 0.89792 0.0
H3966 H 0.46522 0.50868 0.92668 0.0
H3967 H 0.44953 0.48803 0.94633 0.0
H3968 H 0.45359 0.43953 0.90773 0.0
H3969 H 0.46953 0.45988 0.88801 0.0
C3970 C 0.45949 0.51661 0.81276 0.0
C3971 C 0.4572 0.49883 0.80141 0.0
C3972 C 0.4674 0.51984 0.83243 0.0
C3973 C 0.47323 0.50539 0.84109 0.0
C3974 C 0.47132 0.48779 0.82966 0.0
C3975 C 0.46344 0.48456 0.81001 0.0
C3976 C 0.48046 0.50817 0.86231 0.0
C3977 C 0.47246 0.49624 0.87402 0.0
C3978 C 0.49472 0.52256 0.87112 0.0
C3979 C 0.50381 0.53561 0.8596 0.0
C3980 C 0.51038 0.52871 0.84327 0.0
C3981 C 0.51891 0.54114 0.8325 0.0
C3982 C 0.52108 0.56049 0.83801 0.0
C3983 C 0.51475 0.56747 0.85433 0.0
C3984 C 0.50619 0.55511 0.86513 0.0
C3985 C 0.51183 0.49775 0.95048 0.0
C3986 C 0.51534 0.51471 0.96348 0.0
C3987 C 0.50501 0.49702 0.93078 0.0
C3988 C 0.50116 0.51313 0.92371 0.0
C3989 C 0.50498 0.5302 0.93656 0.0
C3990 C 0.51205 0.531 0.95628 0.0
C3991 C 0.49311 0.51198 0.9029 0.0
C3992 C 0.50085 0.52427 0.89131 0.0
C3993 C 0.47841 0.49812 0.89421 0.0
C3994 C 0.46869 0.48582 0.90595 0.0
C3995 C 0.46286 0.49361 0.92245 0.0
C3996 C 0.45392 0.48196 0.9336 0.0
C3997 C 0.4506 0.46248 0.9283 0.0
C3998 C 0.45619 0.45462 0.91182 0.0
C3999 C 0.46516 0.46621 0.90064 0.0
H4000 H 0.44367 0.45349 0.93695 0.0
H4001 H 0.5277 0.57008 0.82966 0.0
H4002 H 0.86511 0.21954 0.14812 0.0
H4003 H 0.85943 0.23784 0.17731 0.0
H4004 H 0.81429 0.24853 0.14316 0.0
H4005 H 0.8201 0.23095 0.11407 0.0
H4006 H 0.82887 0.27817 0.16959 0.0
H4007 H 0.81392 0.21016 0.16842 0.0
H4008 H 0.82131 0.17901 0.1679 0.0
H4009 H 0.85635 0.1986 0.22212 0.0
H4010 H 0.84936 0.22998 0.22275 0.0
H4011 H 0.7733 0.25956 0.24923 0.0
H4012 H 0.78586 0.25014 0.2207 0.0
H4013 H 0.82837 0.29715 0.23963 0.0
H4014 H 0.81601 0.30642 0.26836 0.0
H4015 H 0.81811 0.24058 0.22273 0.0
H4016 H 0.84007 0.31076 0.19569 0.0
H4017 H 0.832 0.3415 0.19507 0.0
H4018 H 0.77995 0.31612 0.19626 0.0
H4019 H 0.78767 0.28521 0.19661 0.0
C4020 C 0.85419 0.22613 0.14678 0.0
C4021 C 0.84289 0.2235 0.12887 0.0
C4022 C 0.85094 0.23654 0.16346 0.0
C4023 C 0.83624 0.24422 0.16247 0.0
C4024 C 0.82567 0.24269 0.1443 0.0
C4025 C 0.82896 0.23248 0.12768 0.0
C4026 C 0.83068 0.25217 0.18038 0.0
C4027 C 0.82671 0.27004 0.18133 0.0
C4028 C 0.82767 0.24149 0.1956 0.0
C4029 C 0.83134 0.22246 0.19548 0.0
C4030 C 0.82326 0.20784 0.18018 0.0
C4031 C 0.82738 0.19016 0.17986 0.0
C4032 C 0.8394 0.1869 0.19489 0.0
C4033 C 0.84713 0.2012 0.21043 0.0
C4034 C 0.84311 0.21893 0.21077 0.0
C4035 C 0.78526 0.26792 0.24719 0.0
C4036 C 0.79382 0.28353 0.26103 0.0
C4037 C 0.79242 0.26254 0.23097 0.0
C4038 C 0.80805 0.27292 0.22818 0.0
C4039 C 0.81626 0.28901 0.24154 0.0
C4040 C 0.80918 0.2943 0.25787 0.0
C4041 C 0.81608 0.26639 0.21172 0.0
C4042 C 0.82053 0.24881 0.21113 0.0
C4043 C 0.81934 0.27725 0.19677 0.0
C4044 C 0.81451 0.29573 0.19644 0.0
C4045 C 0.8269 0.31175 0.19578 0.0
C4046 C 0.82239 0.32919 0.19547 0.0
C4047 C 0.80549 0.33077 0.19571 0.0
C4048 C 0.79305 0.31489 0.19618 0.0
C4049 C 0.7975 0.29741 0.19647 0.0
H4050 H 0.80202 0.34429 0.19547 0.0
H4051 H 0.84276 0.17331 0.19448 0.0
H4052 H 0.12628 0.48258 0.3352 0.0
H4053 H 0.11051 0.4826 0.36289 0.0
H4054 H 0.12877 0.54236 0.37819 0.0
H4055 H 0.14464 0.5423 0.35125 0.0
H4056 H 0.12947 0.53133 0.41045 0.0
H4057 H 0.08438 0.51712 0.35457 0.0
H4058 H 0.06742 0.49928 0.32343 0.0
H4059 H 0.05689 0.45014 0.35101 0.0
H4060 H 0.07395 0.46765 0.38226 0.0
H4061 H 0.0417 0.52436 0.45208 0.0
H4062 H 0.05735 0.52177 0.4247 0.0
H4063 H 0.10077 0.51392 0.46411 0.0
H4064 H 0.08538 0.51733 0.49158 0.0
H4065 H 0.06922 0.49858 0.40452 0.0
H4066 H 0.13788 0.52351 0.44734 0.0
H4067 H 0.15338 0.54431 0.4776 0.0
H4068 H 0.11496 0.57749 0.4741 0.0
H4069 H 0.09933 0.557 0.44372 0.0
C4070 C 0.12693 0.49575 0.34439 0.0
C4071 C 0.13698 0.51242 0.3405 0.0
C4072 C 0.11772 0.49582 0.3604 0.0
C4073 C 0.118 0.51257 0.37315 0.0
C4074 C 0.12807 0.52909 0.36914 0.0
C4075 C 0.13724 0.52902 0.35335 0.0
C4076 C 0.1082 0.51328 0.39062 0.0
C4077 C 0.1163 0.52401 0.40896 0.0
C4078 C 0.0908 0.50418 0.38941 0.0
C4079 C 0.08059 0.49363 0.37067 0.0
C4080 C 0.07854 0.50247 0.35394 0.0
C4081 C 0.0689 0.49243 0.33628 0.0
C4082 C 0.06113 0.47357 0.33522 0.0
C4083 C 0.06294 0.46473 0.35184 0.0
C4084 C 0.07259 0.47471 0.36953 0.0
C4085 C 0.05466 0.52227 0.45506 0.0
C4086 C 0.06212 0.52131 0.47448 0.0
C4087 C 0.06371 0.52065 0.43915 0.0
C4088 C 0.0807 0.51794 0.44175 0.0
C4089 C 0.08803 0.51661 0.46116 0.0
C4090 C 0.07906 0.51849 0.47713 0.0
C4091 C 0.09054 0.51654 0.42435 0.0
C4092 C 0.08243 0.50576 0.40604 0.0
C4093 C 0.10785 0.52591 0.42544 0.0
C4094 C 0.11737 0.53861 0.44338 0.0
C4095 C 0.1328 0.5353 0.45298 0.0
C4096 C 0.14159 0.54702 0.47016 0.0
C4097 C 0.13513 0.56217 0.47781 0.0
C4098 C 0.11992 0.56571 0.4682 0.0
C4099 C 0.11109 0.55405 0.45101 0.0
H4100 H 0.14193 0.57118 0.49114 0.0
H4101 H 0.05366 0.46582 0.32154 0.0
H4102 H 0.8154 0.88347 0.61038 0.0
H4103 H 0.81596 0.86777 0.63944 0.0
H4104 H 0.77325 0.8246 0.60909 0.0
H4105 H 0.77225 0.84058 0.58036 0.0
H4106 H 0.76802 0.83313 0.64394 0.0
H4107 H 0.81666 0.81867 0.61813 0.0
H4108 H 0.84413 0.8255 0.60641 0.0
H4109 H 0.86793 0.85764 0.66246 0.0
H4110 H 0.84054 0.85119 0.67444 0.0
H4111 H 0.77709 0.76154 0.70327 0.0
H4112 H 0.78027 0.7793 0.67598 0.0
H4113 H 0.80614 0.82874 0.71671 0.0
H4114 H 0.80242 0.81123 0.74419 0.0
H4115 H 0.8208 0.81817 0.67837 0.0
H4116 H 0.77134 0.83228 0.70358 0.0
H4117 H 0.74397 0.82354 0.71506 0.0
H4118 H 0.72188 0.79017 0.65912 0.0
H4119 H 0.74925 0.79848 0.64742 0.0
C4120 C 0.80617 0.87059 0.60987 0.0
C4121 C 0.79379 0.86331 0.59296 0.0
C4122 C 0.80655 0.86153 0.62651 0.0
C4123 C 0.79478 0.84476 0.62655 0.0
C4124 C 0.78247 0.83749 0.60961 0.0
C4125 C 0.78195 0.84665 0.59309 0.0
C4126 C 0.79496 0.83494 0.64423 0.0
C4127 C 0.77958 0.82975 0.65126 0.0
C4128 C 0.81004 0.83072 0.65426 0.0
C4129 C 0.82651 0.83461 0.6471 0.0
C4130 C 0.82773 0.82731 0.6279 0.0
C4131 C 0.84328 0.83109 0.62123 0.0
C4132 C 0.85775 0.84204 0.63367 0.0
C4133 C 0.8567 0.84919 0.65283 0.0
C4134 C 0.84117 0.84546 0.65958 0.0
C4135 C 0.78365 0.77613 0.70645 0.0
C4136 C 0.78953 0.78496 0.72595 0.0
C4137 C 0.78544 0.78626 0.69081 0.0
C4138 C 0.79344 0.80534 0.69429 0.0
C4139 C 0.8 0.81401 0.71368 0.0
C4140 C 0.79789 0.80397 0.72937 0.0
C4141 C 0.79392 0.81639 0.67772 0.0
C4142 C 0.80934 0.82172 0.67098 0.0
C4143 C 0.77891 0.82063 0.66783 0.0
C4144 C 0.76238 0.81583 0.67471 0.0
C4145 C 0.76069 0.82294 0.69379 0.0
C4146 C 0.74517 0.81809 0.70033 0.0
C4147 C 0.7312 0.80626 0.68785 0.0
C4148 C 0.73272 0.79931 0.66878 0.0
C4149 C 0.74823 0.80409 0.66219 0.0
H4150 H 0.7192 0.80251 0.69293 0.0
H4151 H 0.86979 0.84496 0.62847 0.0
H4152 H 0.72001 0.42523 0.53577 0.0
H4153 H 0.70526 0.44257 0.55722 0.0
H4154 H 0.66917 0.39158 0.55853 0.0
H4155 H 0.68377 0.3741 0.53673 0.0
H4156 H 0.65307 0.41772 0.54868 0.0
H4157 H 0.6959 0.415 0.60093 0.0
H4158 H 0.72487 0.41644 0.61872 0.0
H4159 H 0.73862 0.47509 0.61473 0.0
H4160 H 0.70982 0.47397 0.59665 0.0
H4161 H 0.6108 0.48331 0.58606 0.0
H4162 H 0.62616 0.45845 0.59188 0.0
H4163 H 0.67207 0.49282 0.58071 0.0
H4164 H 0.6572 0.51835 0.57644 0.0
H4165 H 0.67999 0.46825 0.60437 0.0
H4166 H 0.64079 0.46502 0.54142 0.0
H4167 H 0.61187 0.46465 0.52398 0.0
H4168 H 0.59146 0.41689 0.54968 0.0
H4169 H 0.6203 0.41704 0.56729 0.0
C4170 C 0.70913 0.41761 0.54088 0.0
C4171 C 0.70296 0.39832 0.53436 0.0
C4172 C 0.70078 0.42752 0.55332 0.0
C4173 C 0.68618 0.41835 0.55966 0.0
C4174 C 0.68044 0.39893 0.55389 0.0
C4175 C 0.6888 0.38898 0.54141 0.0
C4176 C 0.67582 0.42958 0.57005 0.0
C4177 C 0.65882 0.42835 0.56128 0.0
C4178 C 0.68328 0.44353 0.58645 0.0
C4179 C 0.70067 0.44437 0.59737 0.0
C4180 C 0.70513 0.42819 0.60373 0.0
C4181 C 0.72152 0.42895 0.61389 0.0
C4182 C 0.73358 0.44584 0.61785 0.0
C4183 C 0.72926 0.46202 0.61168 0.0
C4184 C 0.71288 0.46133 0.6015 0.0
C4185 C 0.62436 0.486 0.58576 0.0
C4186 C 0.63265 0.50269 0.58018 0.0
C4187 C 0.6331 0.47164 0.58894 0.0
C4188 C 0.65008 0.47352 0.586 0.0
C4189 C 0.6589 0.49094 0.58278 0.0
C4190 C 0.65029 0.50545 0.58004 0.0
C4191 C 0.65769 0.45683 0.58238 0.0
C4192 C 0.67412 0.45707 0.59233 0.0
C4193 C 0.64974 0.44188 0.5671 0.0
C4194 C 0.63263 0.44107 0.55566 0.0
C4195 C 0.63013 0.45438 0.54322 0.0
C4196 C 0.61377 0.45424 0.53336 0.0
C4197 C 0.59984 0.44075 0.53571 0.0
C4198 C 0.60227 0.42729 0.54783 0.0
C4199 C 0.61862 0.42737 0.55773 0.0
H4200 H 0.58719 0.44077 0.52815 0.0
H4201 H 0.74627 0.4464 0.62571 0.0
H4202 H 0.21581 0.09571 0.48574 0.0
H4203 H 0.18775 0.07629 0.4867 0.0
H4204 H 0.17797 0.12 0.52785 0.0
H4205 H 0.20569 0.13939 0.52687 0.0
H4206 H 0.16947 0.08503 0.53894 0.0
H4207 H 0.15952 0.11407 0.48093 0.0
H4208 H 0.16457 0.12186 0.44859 0.0
H4209 H 0.15301 0.06327 0.42489 0.0
H4210 H 0.14811 0.05512 0.45719 0.0
H4211 H 0.08085 0.05514 0.53771 0.0
H4212 H 0.109 0.07314 0.53539 0.0
H4213 H 0.11245 0.03187 0.48742 0.0
H4214 H 0.08401 0.01433 0.48918 0.0
H4215 H 0.12486 0.06436 0.47947 0.0
H4216 H 0.13433 0.03457 0.53616 0.0
H4217 H 0.12963 0.02567 0.56819 0.0
H4218 H 0.14281 0.08368 0.59422 0.0
H4219 H 0.14741 0.09295 0.56226 0.0
C4220 C 0.20768 0.10116 0.49499 0.0
C4221 C 0.21304 0.11917 0.50616 0.0
C4222 C 0.19161 0.09007 0.4955 0.0
C4223 C 0.18066 0.09669 0.50731 0.0
C4224 C 0.18613 0.11453 0.51865 0.0
C4225 C 0.20202 0.12566 0.51798 0.0
C4226 C 0.16344 0.08527 0.5079 0.0
C4227 C 0.15966 0.08065 0.52597 0.0
C4228 C 0.15073 0.07909 0.49093 0.0
C4229 C 0.15364 0.08398 0.47152 0.0
C4230 C 0.1582 0.10284 0.46886 0.0
C4231 C 0.16101 0.10732 0.45053 0.0
C4232 C 0.15917 0.09307 0.43471 0.0
C4233 C 0.15447 0.07429 0.43717 0.0
C4234 C 0.15166 0.06974 0.45548 0.0
C4235 C 0.08756 0.05 0.52658 0.0
C4236 C 0.0802 0.0333 0.51364 0.0
C4237 C 0.10377 0.06021 0.52536 0.0
C4238 C 0.11315 0.05375 0.51145 0.0
C4239 C 0.10561 0.03721 0.49832 0.0
C4240 C 0.08934 0.02714 0.49938 0.0
C4241 C 0.13077 0.06415 0.51058 0.0
C4242 C 0.13465 0.0686 0.49247 0.0
C4243 C 0.14366 0.06997 0.52749 0.0
C4244 C 0.14106 0.06446 0.54678 0.0
C4245 C 0.13613 0.04544 0.54869 0.0
C4246 C 0.13349 0.04033 0.56684 0.0
C4247 C 0.13587 0.0541 0.58323 0.0
C4248 C 0.14095 0.07302 0.58151 0.0
C4249 C 0.1436 0.07821 0.56338 0.0
H4250 H 0.13381 0.05013 0.59727 0.0
H4251 H 0.16134 0.09657 0.42053 0.0
H4252 H 0.18981 1.00476 0.81417 0.0
H4253 H 0.20765 0.98143 0.81624 0.0
H4254 H 0.1658 0.93884 0.78297 0.0
H4255 H 0.14776 0.96202 0.78119 0.0
H4256 H 0.18147 0.92566 0.813 0.0
H4257 H 0.19911 0.95894 0.76176 0.0
H4258 H 0.2094 0.98685 0.74695 0.0
H4259 H 0.25527 1.00062 0.79004 0.0
H4260 H 0.24514 0.97292 0.80528 0.0
H4261 H 0.2288 0.85716 0.78842 0.0
H4262 H 0.21137 0.88085 0.78603 0.0
H4263 H 0.25269 0.9224 0.82172 0.0
H4264 H 0.27046 0.89899 0.82353 0.0
H4265 H 0.23745 0.93607 0.79066 0.0
H4266 H 0.2199 0.90239 0.84159 0.0
H4267 H 0.20996 0.87384 0.85554 0.0
H4268 H 0.16405 0.86046 0.81252 0.0
H4269 H 0.17386 0.88877 0.79806 0.0
C4270 C 0.18439 0.99044 0.80728 0.0
C4271 C 0.16738 0.98527 0.79743 0.0
C4272 C 0.19463 0.97712 0.80842 0.0
C4273 C 0.18814 0.95843 0.79954 0.0
C4274 C 0.17109 0.95319 0.78992 0.0
C4275 C 0.16081 0.96647 0.78886 0.0
C4276 C 0.19912 0.94435 0.80025 0.0
C4277 C 0.19361 0.92784 0.80788 0.0
C4278 C 0.21513 0.94734 0.79396 0.0
C4279 C 0.22129 0.96396 0.78477 0.0
C4280 C 0.21133 0.968 0.76816 0.0
C4281 C 0.21715 0.98377 0.75968 0.0
C4282 C 0.23296 0.99553 0.76758 0.0
C4283 C 0.24301 0.99151 0.78395 0.0
C4284 C 0.23725 0.97577 0.79251 0.0
C4285 C 0.23427 0.87138 0.79555 0.0
C4286 C 0.25101 0.87611 0.80624 0.0
C4287 C 0.22423 0.88486 0.79433 0.0
C4288 C 0.23066 0.90332 0.80392 0.0
C4289 C 0.24746 0.90821 0.81428 0.0
C4290 C 0.25753 0.89475 0.81546 0.0
C4291 C 0.21978 0.91744 0.80337 0.0
C4292 C 0.22531 0.93393 0.79579 0.0
C4293 C 0.20379 0.91442 0.80968 0.0
C4294 C 0.19767 0.89764 0.81865 0.0
C4295 C 0.20772 0.89331 0.83503 0.0
C4296 C 0.20211 0.87717 0.84303 0.0
C4297 C 0.18639 0.86533 0.83491 0.0
C4298 C 0.17622 0.86965 0.8188 0.0
C4299 C 0.1818 0.88574 0.8107 0.0
H4300 H 0.18208 0.85282 0.8411 0.0
H4301 H 0.23744 0.00773 0.76099 0.0
H4302 H 0.28254 0.93946 0.99942 0.0
H4303 H 0.3119 0.95604 1.00125 0.0
H4304 H 0.32365 0.94854 0.06173 0.0
H4305 H 0.29415 0.93193 0.06012 0.0
H4306 H 0.34146 0.98417 0.05187 0.0
H4307 H 0.33245 0.91769 0.03339 0.0
H4308 H 0.3165 0.88707 0.01518 0.0
H4309 H 0.32399 0.90628 0.96073 0.0
H4310 H 0.33976 0.93717 0.97863 0.0
H4311 H 0.43055 0.99487 0.0446 0.0
H4312 H 0.40208 0.98422 0.05205 0.0
H4313 H 0.38059 0.97777 0.99065 0.0
H4314 H 0.409 0.98727 0.98295 0.0
H4315 H 0.36874 0.94773 0.0057 0.0
H4316 H 0.37702 0.01544 0.0258 0.0
H4317 H 0.39268 0.04567 0.04524 0.0
H4318 H 0.38749 0.02299 0.0985 0.0
H4319 H 0.37191 0.99258 0.07935 0.0
C4320 C 0.29122 0.94172 0.01327 0.0
C4321 C 0.28612 0.93409 0.02952 0.0
C4322 C 0.30797 0.95123 0.0143 0.0
C4323 C 0.31992 0.9532 0.03153 0.0
C4324 C 0.31456 0.9471 0.04831 0.0
C4325 C 0.29773 0.93757 0.04732 0.0
C4326 C 0.33824 0.95918 0.03092 0.0
C4327 C 0.34756 0.97614 0.04201 0.0
C4328 C 0.34612 0.94855 0.01816 0.0
C4329 C 0.33717 0.92979 0.00734 0.0
C4330 C 0.33062 0.91542 0.01753 0.0
C4331 C 0.32162 0.89802 0.00727 0.0
C4332 C 0.3192 0.89475 0.98681 0.0
C4333 C 0.32587 0.90885 0.97658 0.0
C4334 C 0.33486 0.9263 0.98678 0.0
C4335 C 0.41977 0.9911 0.03267 0.0
C4336 C 0.42209 0.9919 0.01315 0.0
C4337 C 0.40348 0.98523 0.03699 0.0
C4338 C 0.38919 0.98034 0.02192 0.0
C4339 C 0.39144 0.9815 1.00252 0.0
C4340 C 0.4077 0.98715 0.99816 0.0
C4341 C 0.37191 0.97323 0.02601 0.0
C4342 C 0.36277 0.95581 0.01568 0.0
C4343 C 0.36436 0.98335 0.03969 0.0
C4344 C 0.37342 1.00172 0.05116 0.0
C4345 C 0.37928 0.0169 0.04166 0.0
C4346 C 0.38813 0.03406 0.05262 0.0
C4347 C 0.39111 0.03624 0.07309 0.0
C4348 C 0.38518 0.02128 0.08264 0.0
C4349 C 0.37631 1.0041 0.07175 0.0
H4350 H 0.39799 0.04953 0.08155 0.0
H4351 H 0.31218 0.88128 0.97888 0.0
H4352 H 0.90703 0.62352 0.77098 0.0
H4353 H 0.89079 0.6482 0.77175 0.0
H4354 H 0.84394 0.60667 0.76049 0.0
H4355 H 0.86041 0.58148 0.7594 0.0
H4356 H 0.83867 0.63477 0.74053 0.0
H4357 H 0.86251 0.63569 0.8077 0.0
H4358 H 0.88524 0.6372 0.83591 0.0
H4359 H 0.91039 0.6912 0.82573 0.0
H4360 H 0.8879 0.68994 0.79736 0.0
H4361 H 0.78785 0.70298 0.7634 0.0
H4362 H 0.80272 0.67683 0.76217 0.0
H4363 H 0.85109 0.71597 0.77513 0.0
H4364 H 0.83619 0.74224 0.77659 0.0
H4365 H 0.8549 0.68845 0.79469 0.0
H4366 H 0.83266 0.68738 0.72722 0.0
H4367 H 0.81067 0.68643 0.69843 0.0
H4368 H 0.78323 0.63354 0.70875 0.0
H4369 H 0.80497 0.63429 0.73777 0.0
C4370 C 0.89326 0.61933 0.76869 0.0
C4371 C 0.88535 0.59998 0.76523 0.0
C4372 C 0.88382 0.63378 0.76929 0.0
C4373 C 0.86581 0.6299 0.76661 0.0
C4374 C 0.85774 0.61056 0.76278 0.0
C4375 C 0.86726 0.59595 0.76221 0.0
C4376 C 0.85578 0.64597 0.76773 0.0
C4377 C 0.84214 0.64626 0.75264 0.0
C4378 C 0.86016 0.66173 0.78307 0.0
C4379 C 0.87362 0.66259 0.80022 0.0
C4380 C 0.87295 0.64782 0.81138 0.0
C4381 C 0.88578 0.64865 0.82743 0.0
C4382 C 0.89928 0.66425 0.83256 0.0
C4383 C 0.89995 0.6791 0.82171 0.0
C4384 C 0.88715 0.67834 0.80565 0.0
C4385 C 0.80166 0.7062 0.76589 0.0
C4386 C 0.81055 0.72518 0.77 0.0
C4387 C 0.81031 0.69099 0.76508 0.0
C4388 C 0.82836 0.69384 0.76828 0.0
C4389 C 0.83727 0.71283 0.77253 0.0
C4390 C 0.82861 0.72807 0.77328 0.0
C4391 C 0.83781 0.67727 0.76749 0.0
C4392 C 0.85136 0.67691 0.78264 0.0
C4393 C 0.83341 0.66151 0.75219 0.0
C4394 C 0.82033 0.66099 0.73478 0.0
C4395 C 0.82187 0.67562 0.72344 0.0
C4396 C 0.80946 0.67511 0.70706 0.0
C4397 C 0.79553 0.65996 0.7018 0.0
C4398 C 0.79401 0.64528 0.71287 0.0
C4399 C 0.80637 0.64573 0.72927 0.0
H4400 H 0.78594 0.65959 0.68911 0.0
H4401 H 0.9092 0.66487 0.84499 0.0
H4402 H 0.83132 0.65393 0.01082 0.0
H4403 H 0.85512 0.63799 0.01493 0.0
H4404 H 0.81982 0.58488 0.00878 0.0
H4405 H 0.79582 0.60102 0.00552 0.0
H4406 H 0.84536 0.58483 0.03551 0.0
H4407 H 0.84188 0.59988 0.97064 0.0
H4408 H 0.84033 0.6199 0.94474 0.0
H4409 H 0.88912 0.65416 0.97178 0.0
H4410 H 0.89087 0.63449 0.998 0.0
H4411 H 0.9086 0.53137 0.01572 0.0
H4412 H 0.88366 0.54578 0.01323 0.0
H4413 H 0.9165 0.60059 0.02971 0.0
H4414 H 0.94152 0.58634 0.03297 0.0
H4415 H 0.89171 0.59842 0.99681 0.0
H4416 H 0.89431 0.58206 0.06191 0.0
H4417 H 0.89535 0.56056 0.08643 0.0
H4418 H 0.84728 0.52659 0.05659 0.0
H4419 H 0.84607 0.54776 0.03172 0.0
C4420 C 0.82856 0.63884 0.01031 0.0
C4421 C 0.81159 0.62876 0.00766 0.0
C4422 C 0.84225 0.62968 0.01256 0.0
C4423 C 0.83941 0.61008 0.01169 0.0
C4424 C 0.82246 0.59998 0.0094 0.0
C4425 C 0.80871 0.60922 0.00749 0.0
C4426 C 0.85414 0.60028 0.01328 0.0
C4427 C 0.85532 0.58762 0.02679 0.0
C4428 C 0.86741 0.60397 1.00215 0.0
C4429 C 0.86643 0.6158 0.98638 0.0
C4430 C 0.85223 0.61176 0.97114 0.0
C4431 C 0.85132 0.62303 0.95639 0.0
C4432 C 0.8646 0.63832 0.95665 0.0
C4433 C 0.87883 0.64233 0.97162 0.0
C4434 C 0.8798 0.63111 0.98642 0.0
C4435 C 0.9106 0.54647 0.01923 0.0
C4436 C 0.92725 0.5576 0.02462 0.0
C4437 C 0.89626 0.55471 0.01766 0.0
C4438 C 0.89814 0.5743 0.02133 0.0
C4439 C 0.91468 0.58546 0.02672 0.0
C4440 C 0.92903 0.57724 0.02848 0.0
C4441 C 0.88294 0.58319 0.01913 0.0
C4442 C 0.88168 0.59564 0.00546 0.0
C4443 C 0.86951 0.57908 0.02987 0.0
C4444 C 0.87019 0.56639 0.04485 0.0
C4445 C 0.88403 0.56992 0.06048 0.0
C4446 C 0.88464 0.55781 0.07446 0.0
C4447 C 0.87142 0.54219 0.07303 0.0
C4448 C 0.85753 0.53868 0.05766 0.0
C4449 C 0.85687 0.55074 0.04363 0.0
H4450 H 0.87191 0.53284 0.08387 0.0
H4451 H 0.86387 0.64703 0.94522 0.0
H4452 H 0.17621 0.09643 0.81831 0.0
H4453 H 0.19491 0.12705 0.81926 0.0
H4454 H 0.21542 0.10441 0.77015 0.0
H4455 H 0.19704 0.07383 0.76927 0.0
H4456 H 0.24039 0.12557 0.79708 0.0
H4457 H 0.18523 0.13131 0.76455 0.0
H4458 H 0.15434 0.13043 0.76127 0.0
H4459 H 0.16344 0.17276 0.81195 0.0
H4460 H 0.19438 0.17368 0.81569 0.0
H4461 H 0.25468 0.22098 0.75973 0.0
H4462 H 0.23597 0.19189 0.76359 0.0
H4463 H 0.26726 0.19163 0.81918 0.0
H4464 H 0.28603 0.22091 0.81539 0.0
H4465 H 0.21647 0.18246 0.7907 0.0
H4466 H 0.26853 0.14548 0.82309 0.0
H4467 H 0.29908 0.14579 0.82319 0.0
H4468 H 0.29542 0.16494 0.76725 0.0
H4469 H 0.26483 0.16449 0.7667 0.0
C4470 C 0.18474 0.09797 0.80774 0.0
C4471 C 0.18509 0.08268 0.79367 0.0
C4472 C 0.19538 0.11549 0.80828 0.0
C4473 C 0.20649 0.11807 0.79468 0.0
C4474 C 0.207 0.10276 0.78082 0.0
C4475 C 0.19641 0.08528 0.78029 0.0
C4476 C 0.21749 0.1367 0.79461 0.0
C4477 C 0.23515 0.13803 0.79583 0.0
C4478 C 0.21068 0.15295 0.79277 0.0
C4479 C 0.19209 0.1524 0.79053 0.0
C4480 C 0.18063 0.1403 0.77509 0.0
C4481 C 0.16312 0.13982 0.77313 0.0
C4482 C 0.15693 0.15148 0.78643 0.0
C4483 C 0.16825 0.1637 0.80169 0.0
C4484 C 0.18577 0.16421 0.80373 0.0
C4485 C 0.25745 0.21485 0.77289 0.0
C4486 C 0.27174 0.22323 0.78732 0.0
C4487 C 0.24675 0.19823 0.77508 0.0
C4488 C 0.25024 0.18954 0.79163 0.0
C4489 C 0.2644 0.19801 0.80621 0.0
C4490 C 0.2751 0.21471 0.80404 0.0
C4491 C 0.23933 0.17128 0.79317 0.0
C4492 C 0.22171 0.17005 0.79224 0.0
C4493 C 0.24612 0.15503 0.79492 0.0
C4494 C 0.26446 0.15517 0.79499 0.0
C4495 C 0.27425 0.14971 0.8108 0.0
C4496 C 0.29157 0.14991 0.81093 0.0
C4497 C 0.2992 0.15545 0.79527 0.0
C4498 C 0.28951 0.16073 0.77941 0.0
C4499 C 0.27219 0.16053 0.77919 0.0
H4500 H 0.31261 0.15561 0.79541 0.0
H4501 H 0.14337 0.1511 0.78488 0.0
H4502 H 0.3661 0.98892 0.27569 0.0
H4503 H 0.35001 0.95758 0.27841 0.0
H4504 H 0.37543 0.9325 0.2354 0.0
H4505 H 0.39127 0.96345 0.23257 0.0
H4506 H 0.34346 0.91474 0.22805 0.0
H4507 H 0.38561 0.9325 0.28706 0.0
H4508 H 0.40039 0.95231 0.31812 0.0
H4509 H 0.35358 0.94463 0.34101 0.0
H4510 H 0.33841 0.9251 0.30989 0.0
H4511 H 0.32024 0.81854 0.24091 0.0
H4512 H 0.33504 0.85025 0.23855 0.0
H4513 H 0.31505 0.87227 0.28835 0.0
H4514 H 0.30131 0.84039 0.29154 0.0
H4515 H 0.34345 0.89229 0.29221 0.0
H4516 H 0.30075 0.87542 0.23379 0.0
H4517 H 0.28528 0.85557 0.20297 0.0
H4518 H 0.3316 0.86182 0.17909 0.0
H4519 H 0.34737 0.88159 0.20985 0.0
C4520 C 0.36821 0.97677 0.26672 0.0
C4521 C 0.38017 0.97907 0.25391 0.0
C4522 C 0.35902 0.95866 0.26838 0.0
C4523 C 0.36143 0.94218 0.25728 0.0
C4524 C 0.3731 0.94463 0.24423 0.0
C4525 C 0.3823 0.96258 0.24266 0.0
C4526 C 0.35212 0.92246 0.25914 0.0
C4527 C 0.34362 0.90987 0.24213 0.0
C4528 C 0.35173 0.91573 0.2774 0.0
C4529 C 0.36084 0.92751 0.29607 0.0
C4530 C 0.37843 0.93517 0.29866 0.0
C4531 C 0.38689 0.94633 0.31629 0.0
C4532 C 0.37793 0.94973 0.33154 0.0
C4533 C 0.36049 0.942 0.32918 0.0
C4534 C 0.35196 0.9309 0.31154 0.0
C4535 C 0.31896 0.83011 0.25138 0.0
C4536 C 0.3094 0.82661 0.26639 0.0
C4537 C 0.32736 0.84852 0.2499 0.0
C4538 C 0.32604 0.86436 0.26289 0.0
C4539 C 0.31652 0.86074 0.27796 0.0
C4540 C 0.30851 0.8423 0.27976 0.0
C4541 C 0.33463 0.88447 0.26109 0.0
C4542 C 0.34308 0.89713 0.2781 0.0
C4543 C 0.33479 0.89135 0.24283 0.0
C4544 C 0.32526 0.87985 0.22418 0.0
C4545 C 0.30763 0.87252 0.22198 0.0
C4546 C 0.29882 0.86128 0.20453 0.0
C4547 C 0.30746 0.85739 0.18911 0.0
C4548 C 0.32493 0.86483 0.19106 0.0
C4549 C 0.33381 0.87608 0.20848 0.0
H4550 H 0.30063 0.84864 0.17563 0.0
H4551 H 0.38448 0.9583 0.34522 0.0
H4552 H 0.59305 0.35546 0.62195 0.0
H4553 H 0.5886 0.38255 0.6063 0.0
H4554 H 0.53506 0.35747 0.58873 0.0
H4555 H 0.53953 0.32999 0.60402 0.0
H4556 H 0.54616 0.37356 0.55998 0.0
H4557 H 0.55068 0.39362 0.62882 0.0
H4558 H 0.56379 0.39911 0.66377 0.0
H4559 H 0.60783 0.43527 0.65131 0.0
H4560 H 0.59508 0.4298 0.61622 0.0
H4561 H 0.51779 0.45681 0.54074 0.0
H4562 H 0.52309 0.42891 0.55438 0.0
H4563 H 0.57705 0.45292 0.56755 0.0
H4564 H 0.57188 0.481 0.55401 0.0
H4565 H 0.56609 0.43749 0.59814 0.0
H4566 H 0.56079 0.41786 0.52918 0.0
H4567 H 0.54712 0.41273 0.49445 0.0
H4568 H 0.5037 0.37598 0.50748 0.0
H4569 H 0.51704 0.38112 0.54236 0.0
C4570 C 0.58031 0.35561 0.6147 0.0
C4571 C 0.56663 0.3405 0.61439 0.0
C4572 C 0.57776 0.37124 0.60582 0.0
C4573 C 0.56141 0.37237 0.59661 0.0
C4574 C 0.54779 0.35706 0.59579 0.0
C4575 C 0.55037 0.34132 0.60457 0.0
C4576 C 0.55854 0.38952 0.58801 0.0
C4577 C 0.55032 0.3875 0.56845 0.0
C4578 C 0.56428 0.40787 0.5988 0.0
C4579 C 0.572 0.41114 0.61987 0.0
C4580 C 0.56322 0.40262 0.63351 0.0
C4581 C 0.57057 0.40575 0.65335 0.0
C4582 C 0.58665 0.41749 0.65975 0.0
C4583 C 0.59539 0.42616 0.64633 0.0
C4584 C 0.5881 0.42306 0.62646 0.0
C4585 C 0.53082 0.45619 0.54642 0.0
C4586 C 0.54439 0.47122 0.5461 0.0
C4587 C 0.53384 0.44013 0.55419 0.0
C4588 C 0.5505 0.43862 0.56181 0.0
C4589 C 0.56408 0.45367 0.56171 0.0
C4590 C 0.56108 0.46973 0.55389 0.0
C4591 C 0.55369 0.4215 0.57017 0.0
C4592 C 0.56196 0.42354 0.58968 0.0
C4593 C 0.54791 0.40319 0.55938 0.0
C4594 C 0.53986 0.40003 0.53841 0.0
C4595 C 0.54827 0.40881 0.52466 0.0
C4596 C 0.54059 0.40588 0.50495 0.0
C4597 C 0.52453 0.39407 0.49877 0.0
C4598 C 0.51613 0.38514 0.51229 0.0
C4599 C 0.52376 0.38805 0.53204 0.0
H4600 H 0.5186 0.39181 0.48349 0.0
H4601 H 0.59232 0.4199 0.67512 0.0
H4602 H 0.45797 0.79118 0.39165 0.0
H4603 H 0.42908 0.78945 0.37424 0.0
H4604 H 0.42741 0.73312 0.34698 0.0
H4605 H 0.45632 0.73455 0.36488 0.0
H4606 H 0.4179 0.76028 0.3207 0.0
H4607 H 0.40464 0.73609 0.3792 0.0
H4608 H 0.40682 0.73696 0.41492 0.0
H4609 H 0.38861 0.78833 0.41941 0.0
H4610 H 0.38656 0.78792 0.38373 0.0
H4611 H 0.33361 0.73841 0.27174 0.0
H4612 H 0.3601 0.73761 0.29294 0.0
H4613 H 0.35378 0.7848 0.33235 0.0
H4614 H 0.3265 0.78496 0.31137 0.0
H4615 H 0.36769 0.76285 0.35324 0.0
H4616 H 0.38142 0.78911 0.29715 0.0
H4617 H 0.38036 0.79138 0.26204 0.0
H4618 H 0.39928 0.74067 0.25354 0.0
H4619 H 0.40023 0.73795 0.28856 0.0
C4620 C 0.45147 0.77835 0.38202 0.0
C4621 C 0.45953 0.76301 0.37962 0.0
C4622 C 0.43489 0.77738 0.37213 0.0
C4623 C 0.42602 0.76116 0.35932 0.0
C4624 C 0.43399 0.74578 0.35683 0.0
C4625 C 0.4505 0.74659 0.36709 0.0
C4626 C 0.40871 0.76065 0.34806 0.0
C4627 C 0.40684 0.76049 0.32774 0.0
C4628 C 0.39445 0.76184 0.35737 0.0
C4629 C 0.39562 0.76207 0.37881 0.0
C4630 C 0.40126 0.74767 0.38782 0.0
C4631 C 0.40244 0.74806 0.40806 0.0
C4632 C 0.3979 0.76272 0.41944 0.0
C4633 C 0.39214 0.777 0.41059 0.0
C4634 C 0.39095 0.77668 0.39035 0.0
C4635 C 0.33774 0.74851 0.28505 0.0
C4636 C 0.32801 0.7618 0.28984 0.0
C4637 C 0.35302 0.74815 0.29712 0.0
C4638 C 0.35939 0.76151 0.31404 0.0
C4639 C 0.34931 0.7744 0.31933 0.0
C4640 C 0.3337 0.77449 0.30737 0.0
C4641 C 0.37672 0.76217 0.32567 0.0
C4642 C 0.37867 0.76252 0.34609 0.0
C4643 C 0.39123 0.76163 0.31652 0.0
C4644 C 0.39075 0.76324 0.29545 0.0
C4645 C 0.38525 0.77837 0.28777 0.0
C4646 C 0.38468 0.77975 0.26788 0.0
C4647 C 0.38971 0.76615 0.25556 0.0
C4648 C 0.39537 0.75118 0.2631 0.0
C4649 C 0.39594 0.74972 0.28297 0.0
H4650 H 0.38926 0.76724 0.24016 0.0
H4651 H 0.39882 0.76299 0.4351 0.0
H4652 H 0.08539 0.73962 0.09995 0.0
H4653 H 0.08107 0.70668 0.08585 0.0
H4654 H 0.02863 0.69779 0.09431 0.0
H4655 H 0.033 0.73078 0.10891 0.0
H4656 H 0.0422 0.67024 0.10571 0.0
H4657 H 0.04032 0.69933 0.04793 0.0
H4658 H 0.05034 0.72171 0.02635 0.0
H4659 H 0.09563 0.69943 0.0253 0.0
H4660 H 0.08599 0.67707 0.0471 0.0
H4661 H 0.01567 0.58005 0.04761 0.0
H4662 H 0.01941 0.61336 0.05994 0.0
H4663 H 0.07296 0.62161 0.05656 0.0
H4664 H 0.06935 0.58816 0.04411 0.0
H4665 H 0.05854 0.64934 0.04218 0.0
H4666 H 0.06009 0.62033 0.10031 0.0
H4667 H 0.04952 0.59774 0.12143 0.0
H4668 H 1.00404 0.61985 0.12119 0.0
H4669 H 0.01423 0.64241 0.09982 0.0
C4670 C 0.07287 0.73075 0.09866 0.0
C4671 C 0.05953 0.73796 0.10554 0.0
C4672 C 0.07039 0.71185 0.09049 0.0
C4673 C 0.05445 0.69965 0.08874 0.0
C4674 C 0.04105 0.70685 0.09544 0.0
C4675 C 0.04355 0.72577 0.10371 0.0
C4676 C 0.05197 0.6793 0.08056 0.0
C4677 C 0.04553 0.66572 0.09166 0.0
C4678 C 0.05667 0.67323 0.06244 0.0
C4679 C 0.0625 0.68664 0.0493 0.0
C4680 C 0.05248 0.6993 0.04322 0.0
C4681 C 0.05808 0.71197 0.03093 0.0
C4682 C 0.07363 0.71202 0.0245 0.0
C4683 C 0.0836 0.69938 0.03031 0.0
C4684 C 0.07806 0.68669 0.04262 0.0
C4685 C 0.02829 0.58887 0.04947 0.0
C4686 C 0.04223 0.58128 0.0449 0.0
C4687 C 0.03041 0.60798 0.05661 0.0
C4688 C 0.04651 0.62004 0.05939 0.0
C4689 C 0.06041 0.61261 0.05458 0.0
C4690 C 0.05833 0.59343 0.04752 0.0
C4691 C 0.04877 0.64037 0.06733 0.0
C4692 C 0.05519 0.65392 0.0562 0.0
C4693 C 0.04397 0.64642 0.08538 0.0
C4694 C 0.03785 0.63294 0.09831 0.0
C4695 C 0.04778 0.62028 0.10464 0.0
C4696 C 0.04186 0.60749 0.11667 0.0
C4697 C 0.0261 0.60733 0.1226 0.0
C4698 C 0.01624 0.61998 0.11656 0.0
C4699 C 0.02208 0.63278 0.1045 0.0
H4700 H 0.02155 0.59742 0.13192 0.0
H4701 H 0.07794 0.72184 0.01497 0.0
H4702 H 0.05295 0.27481 0.87525 0.0
H4703 H 0.07892 0.27977 0.86068 0.0
H4704 H 0.08739 0.22561 0.87244 0.0
H4705 H 0.06173 0.2207 0.88719 0.0
H4706 H 0.11646 0.25052 0.88235 0.0
H4707 H 0.07189 0.23387 0.82558 0.0
H4708 H 0.0457 0.23678 0.80423 0.0
H4709 H 0.06926 0.29279 0.79815 0.0
H4710 H 0.09553 0.29029 0.81968 0.0
H4711 H 0.17767 0.23674 0.82165 0.0
H4712 H 0.15226 0.23463 0.83697 0.0
H4713 H 0.14712 0.28935 0.82365 0.0
H4714 H 0.1726 0.29162 0.80836 0.0
H4715 H 0.11677 0.266 0.81514 0.0
H4716 H 0.16179 0.28225 0.87073 0.0
H4717 H 0.18813 0.27924 0.89171 0.0
H4718 H 0.16387 0.22423 0.90009 0.0
H4719 H 0.13745 0.22679 0.87891 0.0
C4720 C 0.06029 0.26392 0.87465 0.0
C4721 C 0.05514 0.24733 0.8824 0.0
C4722 C 0.07516 0.26675 0.86625 0.0
C4723 C 0.08517 0.25302 0.86528 0.0
C4724 C 0.08 0.23648 0.873 0.0
C4725 C 0.06521 0.23365 0.88139 0.0
C4726 C 0.10112 0.2558 0.85648 0.0
C4727 C 0.11644 0.2537 0.86756 0.0
C4728 C 0.10137 0.26045 0.83737 0.0
C4729 C 0.0856 0.26197 0.82441 0.0
C4730 C 0.07143 0.24686 0.81982 0.0
C4731 C 0.05658 0.24843 0.80766 0.0
C4732 C 0.05579 0.26498 0.79989 0.0
C4733 C 0.06988 0.27999 0.80421 0.0
C4734 C 0.08475 0.2785 0.81637 0.0
C4735 C 0.17132 0.24849 0.82222 0.0
C4736 C 0.17734 0.26439 0.81376 0.0
C4737 C 0.1567 0.24723 0.83097 0.0
C4738 C 0.14774 0.2619 0.83169 0.0
C4739 C 0.1537 0.2778 0.82328 0.0
C4740 C 0.16831 0.27905 0.81449 0.0
C4741 C 0.13205 0.26053 0.84094 0.0
C4742 C 0.1168 0.26291 0.82996 0.0
C4743 C 0.13187 0.25616 0.86016 0.0
C4744 C 0.14768 0.25465 0.87308 0.0
C4745 C 0.1621 0.26945 0.87694 0.0
C4746 C 0.17705 0.26784 0.88888 0.0
C4747 C 0.17769 0.25154 0.89719 0.0
C4748 C 0.16337 0.23684 0.89362 0.0
C4749 C 0.14839 0.23837 0.88166 0.0
H4750 H 0.18928 0.25031 0.90642 0.0
H4751 H 0.04429 0.26616 0.79047 0.0
H4752 H 0.49871 0.74751 0.91573 0.0
H4753 H 0.50211 0.72144 0.93362 0.0
H4754 H 0.54846 0.7177 0.91128 0.0
H4755 H 0.5451 0.74367 0.89316 0.0
H4756 H 0.52779 0.68293 0.91017 0.0
H4757 H 0.55074 0.73945 0.95677 0.0
H4758 H 0.54969 0.77012 0.97479 0.0
H4759 H 0.50708 0.74419 0.99909 0.0
H4760 H 0.50772 0.71339 0.98098 0.0
H4761 H 0.56146 0.62839 0.97788 0.0
H4762 H 0.55728 0.65297 0.95793 0.0
H4763 H 0.51305 0.66022 0.98338 0.0
H4764 H 0.51721 0.63579 1.00336 0.0
H4765 H 0.53255 0.69311 0.98254 0.0
H4766 H 0.50901 0.63698 0.93696 0.0
H4767 H 0.50849 0.60603 0.91842 0.0
H4768 H 0.55017 0.63039 0.89177 0.0
H4769 H 0.55111 0.66146 0.91037 0.0
C4770 C 0.50961 0.74112 0.91457 0.0
C4771 C 0.52171 0.74774 0.90315 0.0
C4772 C 0.51153 0.72625 0.92482 0.0
C4773 C 0.52563 0.71781 0.92392 0.0
C4774 C 0.53751 0.72406 0.91216 0.0
C4775 C 0.5356 0.73895 0.9019 0.0
C4776 C 0.52825 0.7028 0.93569 0.0
C4777 C 0.52906 0.68518 0.92602 0.0
C4778 C 0.52944 0.70567 0.9563 0.0
C4779 C 0.52919 0.72415 0.96739 0.0
C4780 C 0.54107 0.74031 0.96586 0.0
C4781 C 0.54056 0.75771 0.97609 0.0
C4782 C 0.5283 0.75911 0.98804 0.0
C4783 C 0.51656 0.74309 0.98981 0.0
C4784 C 0.517 0.72566 0.97958 0.0
C4785 C 0.55081 0.63519 0.97912 0.0
C4786 C 0.53968 0.63023 0.99219 0.0
C4787 C 0.54841 0.64918 0.96771 0.0
C4788 C 0.53474 0.65828 0.96904 0.0
C4789 C 0.5237 0.65341 0.98217 0.0
C4790 C 0.52613 0.63951 0.99362 0.0
C4791 C 0.5321 0.67315 0.95705 0.0
C4792 C 0.53129 0.69079 0.96669 0.0
C4793 C 0.53074 0.67021 0.9364 0.0
C4794 C 0.53025 0.65152 0.92523 0.0
C4795 C 0.51817 0.63571 0.92729 0.0
C4796 C 0.51778 0.61815 0.91674 0.0
C4797 C 0.52932 0.61623 0.90396 0.0
C4798 C 0.54126 0.63189 0.90169 0.0
C4799 C 0.54172 0.64948 0.91222 0.0
H4800 H 0.52898 0.60263 0.8958 0.0
H4801 H 0.52792 0.7726 0.99594 0.0
H4802 H 0.10744 0.73586 0.68215 0.0
H4803 H 0.13544 0.74114 0.70251 0.0
H4804 H 0.11454 0.75861 0.75341 0.0
H4805 H 0.0862 0.75349 0.73291 0.0
H4806 H 0.14494 0.78217 0.7512 0.0
H4807 H 0.12511 0.71734 0.75016 0.0
H4808 H 0.1113 0.68467 0.73603 0.0
H4809 H 0.1496 0.68247 0.69981 0.0
H4810 H 0.16351 0.71522 0.7135 0.0
H4811 H 0.23224 0.7828 0.79729 0.0
H4812 H 0.20106 0.77899 0.79032 0.0
H4813 H 0.20049 0.75306 0.73123 0.0
H4814 H 0.23131 0.75606 0.73842 0.0
H4815 H 0.1784 0.73217 0.74752 0.0
H4816 H 0.19436 0.80049 0.74572 0.0
H4817 H 0.20702 0.83322 0.76098 0.0
H4818 H 0.17539 0.82794 0.80513 0.0
H4819 H 0.16265 0.79521 0.79021 0.0
C4820 C 0.10871 0.74076 0.69767 0.0
C4821 C 0.09458 0.74419 0.70594 0.0
C4822 C 0.12473 0.7437 0.70932 0.0
C4823 C 0.12699 0.75 0.7295 0.0
C4824 C 0.11299 0.75364 0.73786 0.0
C4825 C 0.09685 0.75065 0.72616 0.0
C4826 C 0.1442 0.75301 0.74142 0.0
C4827 C 0.15222 0.77118 0.75078 0.0
C4828 C 0.15356 0.73859 0.74106 0.0
C4829 C 0.14533 0.71879 0.73284 0.0
C4830 C 0.13054 0.70993 0.7391 0.0
C4831 C 0.1227 0.69139 0.73117 0.0
C4832 C 0.12956 0.68151 0.71702 0.0
C4833 C 0.14431 0.69014 0.71079 0.0
C4834 C 0.1522 0.70869 0.71866 0.0
C4835 C 0.2254 0.77656 0.78275 0.0
C4836 C 0.23406 0.76961 0.76838 0.0
C4837 C 0.20763 0.77441 0.77878 0.0
C4838 C 0.19843 0.7657 0.76026 0.0
C4839 C 0.20729 0.75963 0.7457 0.0
C4840 C 0.2249 0.76141 0.74977 0.0
C4841 C 0.17953 0.76167 0.75592 0.0
C4842 C 0.17111 0.74314 0.74825 0.0
C4843 C 0.16984 0.77573 0.75806 0.0
C4844 C 0.17769 0.79537 0.76698 0.0
C4845 C 0.19021 0.80629 0.75877 0.0
C4846 C 0.19737 0.82486 0.76734 0.0
C4847 C 0.19203 0.83266 0.78404 0.0
C4848 C 0.17952 0.82191 0.79221 0.0
C4849 C 0.17232 0.80337 0.78369 0.0
H4850 H 0.1975 0.84703 0.79064 0.0
H4851 H 0.12347 0.66715 0.7109 0.0
H4852 H 0.03951 0.33963 0.42364 0.0
H4853 H 0.03972 0.36509 0.4499 0.0
H4854 H 0.9932 0.37545 0.41855 0.0
H4855 H 0.993 0.35025 0.39224 0.0
H4856 H 0.01783 0.40735 0.43101 0.0
H4857 H 0.99192 0.35404 0.45793 0.0
H4858 H 0.99005 0.32298 0.46855 0.0
H4859 H 0.0362 0.34395 0.51046 0.0
H4860 H 0.03849 0.37508 0.49989 0.0
H4861 H 1.00178 0.47367 0.5012 0.0
H4862 H 0.9968 0.44305 0.48075 0.0
H4863 H 0.04273 0.4321 0.5129 0.0
H4864 H 0.04765 0.46279 0.53344 0.0
H4865 H 0.01787 0.39973 0.50075 0.0
H4866 H 0.04591 0.45087 0.47225 0.0
H4867 H 0.04983 0.48178 0.46126 0.0
H4868 H 1.00151 0.46486 0.42245 0.0
H4869 H 0.99733 0.43373 0.43323 0.0
C4870 C 0.02935 0.34737 0.42236 0.0
C4871 C 0.0162 0.34295 0.40592 0.0
C4872 C 0.02941 0.36177 0.43742 0.0
C4873 C 0.01636 0.37196 0.43623 0.0
C4874 C 1.00332 0.36766 0.41977 0.0
C4875 C 1.00321 0.35324 0.40479 0.0
C4876 C 0.01669 0.38776 0.45164 0.0
C4877 C 0.01754 0.40561 0.44619 0.0
C4878 C 0.01686 0.38553 0.47153 0.0
C4879 C 0.01546 0.36684 0.47798 0.0
C4880 C 1.00175 0.35199 0.4693 0.0
C4881 C 1.0006 0.33438 0.47533 0.0
C4882 C 0.01302 0.33148 0.49014 0.0
C4883 C 0.0266 0.34621 0.49898 0.0
C4884 C 0.02782 0.36384 0.49298 0.0
C4885 C 0.01064 0.46462 0.50404 0.0
C4886 C 0.02526 0.47067 0.51849 0.0
C4887 C 0.00776 0.4471 0.49247 0.0
C4888 C 0.01964 0.43555 0.49503 0.0
C4889 C 0.03346 0.44087 0.51065 0.0
C4890 C 0.03625 0.45836 0.52236 0.0
C4891 C 0.01878 0.41921 0.48 0.0
C4892 C 0.01797 0.40136 0.48552 0.0
C4893 C 0.01884 0.42139 0.46014 0.0
C4894 C 0.02124 0.44008 0.45368 0.0
C4895 C 0.03607 0.4538 0.46148 0.0
C4896 C 0.03835 0.47135 0.45526 0.0
C4897 C 0.02588 0.47535 0.44124 0.0
C4898 C 0.01114 0.46175 0.43334 0.0
C4899 C 0.00883 0.44413 0.43945 0.0
H4900 H 0.02765 0.48894 0.43641 0.0
H4901 H 0.01211 0.31783 0.49479 0.0
H4902 H 0.50536 0.26425 0.2173 0.0
H4903 H 0.48341 0.26791 0.23696 0.0
H4904 H 0.47285 0.20843 0.23901 0.0
H4905 H 0.49496 0.20457 0.21916 0.0
H4906 H 0.4435 0.22236 0.23047 0.0
H4907 H 0.49311 0.2364 0.27932 0.0
H4908 H 0.5228 0.25093 0.29472 0.0
H4909 H 0.51101 0.30566 0.29607 0.0
H4910 H 0.4813 0.29148 0.2804 0.0
H4911 H 0.38307 0.24553 0.28723 0.0
H4912 H 0.40784 0.2327 0.28056 0.0
H4913 H 0.43463 0.28816 0.2756 0.0
H4914 H 0.41025 0.30106 0.28334 0.0
H4915 H 0.45648 0.2696 0.29073 0.0
H4916 H 0.40919 0.25471 0.23423 0.0
H4917 H 0.37923 0.24035 0.21956 0.0
H4918 H 0.38686 0.18686 0.23373 0.0
H4919 H 0.41685 0.20095 0.24855 0.0
C4920 C 0.49841 0.2519 0.2219 0.0
C4921 C 0.50194 0.23411 0.21669 0.0
C4922 C 0.48593 0.25405 0.23326 0.0
C4923 C 0.4767 0.23849 0.23969 0.0
C4924 C 0.47994 0.22063 0.23429 0.0
C4925 C 0.49256 0.21846 0.22298 0.0
C4926 C 0.46337 0.24114 0.25157 0.0
C4927 C 0.44637 0.23236 0.2439 0.0
C4928 C 0.46712 0.25421 0.26906 0.0
C4929 C 0.48497 0.26286 0.27859 0.0
C4930 C 0.49687 0.25154 0.28278 0.0
C4931 C 0.5137 0.25972 0.29157 0.0
C4932 C 0.51879 0.2792 0.29635 0.0
C4933 C 0.50705 0.29056 0.29237 0.0
C4934 C 0.4902 0.28246 0.28355 0.0
C4935 C 0.39445 0.25497 0.28519 0.0
C4936 C 0.39482 0.27422 0.28567 0.0
C4937 C 0.40853 0.24765 0.28126 0.0
C4938 C 0.42294 0.25938 0.27706 0.0
C4939 C 0.42366 0.2788 0.27873 0.0
C4940 C 0.40974 0.28618 0.28313 0.0
C4941 C 0.43658 0.25152 0.26911 0.0
C4942 C 0.45366 0.25929 0.27755 0.0
C4943 C 0.43291 0.2375 0.25233 0.0
C4944 C 0.41518 0.22888 0.24255 0.0
C4945 C 0.40447 0.23988 0.23414 0.0
C4946 C 0.38749 0.2318 0.22583 0.0
C4947 C 0.38114 0.21271 0.22573 0.0
C4948 C 0.3918 0.20163 0.23381 0.0
C4949 C 0.40879 0.20965 0.24212 0.0
H4950 H 0.36797 0.2065 0.21938 0.0
H4951 H 0.53183 0.28551 0.30316 0.0
H4952 H 0.62883 0.54639 0.35783 0.0
H4953 H 0.61694 0.54358 0.38783 0.0
H4954 H 0.57422 0.50154 0.35553 0.0
H4955 H 0.58587 0.50443 0.32541 0.0
H4956 H 0.56386 0.5257 0.3808 0.0
H4957 H 0.60719 0.48911 0.3833 0.0
H4958 H 0.63605 0.48313 0.38241 0.0
H4959 H 0.65642 0.52569 0.43247 0.0
H4960 H 0.6277 0.53212 0.43348 0.0
H4961 H 0.53701 0.48212 0.46038 0.0
H4962 H 0.55118 0.48586 0.43194 0.0
H4963 H 0.58169 0.53898 0.46181 0.0
H4964 H 0.56707 0.53579 0.48993 0.0
H4965 H 0.59865 0.50971 0.43868 0.0
H4966 H 0.55516 0.54708 0.4348 0.0
H4967 H 0.52602 0.55207 0.43595 0.0
H4968 H 0.5059 0.50674 0.38845 0.0
H4969 H 0.53493 0.50131 0.38724 0.0
C4970 C 0.61684 0.53663 0.35706 0.0
C4971 C 0.60835 0.52555 0.33923 0.0
C4972 C 0.61011 0.53498 0.37425 0.0
C4973 C 0.59483 0.52214 0.37397 0.0
C4974 C 0.58606 0.51149 0.35609 0.0
C4975 C 0.59276 0.51314 0.33889 0.0
C4976 C 0.58809 0.51961 0.39234 0.0
C4977 C 0.57144 0.52203 0.39335 0.0
C4978 C 0.59805 0.5151 0.40887 0.0
C4979 C 0.61533 0.51123 0.40833 0.0
C4980 C 0.61785 0.4973 0.39402 0.0
C4981 C 0.63418 0.49381 0.39351 0.0
C4982 C 0.64807 0.50406 0.40735 0.0
C4983 C 0.64565 0.51778 0.42175 0.0
C4984 C 0.62935 0.52135 0.4223 0.0
C4985 C 0.54692 0.49445 0.46101 0.0
C4986 C 0.55101 0.50862 0.47739 0.0
C4987 C 0.55497 0.49656 0.44478 0.0
C4988 C 0.56743 0.51268 0.44488 0.0
C4989 C 0.57217 0.5264 0.46159 0.0
C4990 C 0.56385 0.52451 0.47764 0.0
C4991 C 0.57455 0.51582 0.42698 0.0
C4992 C 0.59119 0.51345 0.42608 0.0
C4993 C 0.56461 0.52033 0.41053 0.0
C4994 C 0.54717 0.52364 0.4111 0.0
C4995 C 0.5445 0.53805 0.42474 0.0
C4996 C 0.52801 0.54099 0.42538 0.0
C4997 C 0.51411 0.52969 0.41232 0.0
C4998 C 0.51668 0.51546 0.39857 0.0
C4999 C 0.53314 0.51246 0.3979 0.0
H5000 H 0.50135 0.53198 0.41283 0.0
H5001 H 0.6607 0.50133 0.40693 0.0
H5002 H 0.27102 0.8698 0.05407 0.0
H5003 H 0.28849 0.85445 0.07564 0.0
H5004 H 0.28571 0.81005 0.02803 0.0
H5005 H 0.26799 0.82534 0.00619 0.0
H5006 H 0.27819 0.79697 0.06118 0.0
H5007 H 0.32313 0.83998 0.04463 0.0
H5008 H 0.33776 0.87072 0.03837 0.0
H5009 H 0.34096 0.89389 0.09861 0.0
H5010 H 0.3261 0.86337 0.10519 0.0
H5011 H 0.31778 0.75931 0.1366 0.0
H5012 H 0.3198 0.77261 0.10628 0.0
H5013 H 0.31423 0.82587 0.13528 0.0
H5014 H 0.31244 0.8128 0.16552 0.0
H5015 H 0.33207 0.83046 0.10493 0.0
H5016 H 0.27911 0.7923 0.11694 0.0
H5017 H 0.26228 0.76307 0.12424 0.0
H5018 H 0.27292 0.73228 0.07277 0.0
H5019 H 0.29003 0.76133 0.06535 0.0
C5020 C 0.27412 0.85679 0.04811 0.0
C5021 C 0.26806 0.84873 0.02844 0.0
C5022 C 0.28429 0.84814 0.06042 0.0
C5023 C 0.28867 0.83132 0.05331 0.0
C5024 C 0.28261 0.82315 0.0337 0.0
C5025 C 0.27244 0.83185 0.0213 0.0
C5026 C 0.29836 0.82167 0.06702 0.0
C5027 C 0.29028 0.804 0.0703 0.0
C5028 C 0.314 0.83103 0.07907 0.0
C5029 C 0.32344 0.84933 0.07539 0.0
C5030 C 0.3269 0.85163 0.05654 0.0
C5031 C 0.33523 0.86904 0.05293 0.0
C5032 C 0.34027 0.88426 0.06808 0.0
C5033 C 0.33706 0.88208 0.08689 0.0
C5034 C 0.32871 0.86471 0.09059 0.0
C5035 C 0.31762 0.77403 0.13665 0.0
C5036 C 0.31456 0.78491 0.15324 0.0
C5037 C 0.31885 0.78163 0.11938 0.0
C5038 C 0.31673 0.80007 0.11844 0.0
C5039 C 0.31585 0.81159 0.13567 0.0
C5040 C 0.31478 0.80407 0.15297 0.0
C5041 C 0.31159 0.80608 0.09937 0.0
C5042 C 0.32042 0.82309 0.09519 0.0
C5043 C 0.29651 0.79625 0.08652 0.0
C5044 C 0.28598 0.77889 0.09073 0.0
C5045 C 0.2779 0.77927 0.10724 0.0
C5046 C 0.26833 0.76275 0.1114 0.0
C5047 C 0.26657 0.74582 0.099 0.0
C5048 C 0.27433 0.74539 0.08238 0.0
C5049 C 0.28397 0.76187 0.0782 0.0
H5050 H 0.25917 0.73304 0.10225 0.0
H5051 H 0.34667 0.89773 0.06523 0.0
H5052 H 0.95327 0.56017 0.81729 0.0
H5053 H 0.97177 0.5604 0.84876 0.0
H5054 H 0.93369 0.51702 0.8628 0.0
H5055 H 0.91525 0.51712 0.83206 0.0
H5056 H 0.94534 0.53863 0.89469 0.0
H5057 H 0.97425 0.51074 0.84717 0.0
H5058 H 0.98845 0.50899 0.81826 0.0
H5059 H 0.02589 0.55849 0.84491 0.0
H5060 H 0.01178 0.56065 0.87389 0.0
H5061 H 0.9978 0.50934 0.97344 0.0
H5062 H 0.97984 0.51116 0.94233 0.0
H5063 H 0.0173 0.55796 0.93339 0.0
H5064 H 0.03514 0.55619 0.96436 0.0
H5065 H 0.0064 0.53575 0.8994 0.0
H5066 H 0.97788 0.56265 0.94759 0.0
H5067 H 0.96413 0.56342 0.97685 0.0
H5068 H 0.92605 0.51486 0.94907 0.0
H5069 H 0.93972 0.51365 0.9197 0.0
C5070 C 0.94882 0.55067 0.82705 0.0
C5071 C 0.93255 0.53863 0.82172 0.0
C5072 C 0.95953 0.5507 0.84519 0.0
C5073 C 0.95448 0.53854 0.85861 0.0
C5074 C 0.9382 0.52667 0.8532 0.0
C5075 C 0.92756 0.5267 0.83528 0.0
C5076 C 0.96577 0.53797 0.87816 0.0
C5077 C 0.95863 0.53777 0.89549 0.0
C5078 C 0.98337 0.53722 0.87997 0.0
C5079 C 0.99185 0.53598 0.86258 0.0
C5080 C 0.98544 0.52133 0.84679 0.0
C5081 C 0.99348 0.52025 0.83041 0.0
C5082 C 0.00803 0.53366 0.82972 0.0
C5083 C 0.0146 0.54814 0.84544 0.0
C5084 C 0.00659 0.54929 0.86185 0.0
C5085 C 1.00216 0.52015 0.96498 0.0
C5086 C 0.018 0.53271 0.97177 0.0
C5087 C 0.99181 0.52121 0.94703 0.0
C5088 C 0.99692 0.53485 0.93514 0.0
C5089 C 0.01281 0.54725 0.94192 0.0
C5090 C 0.02307 0.54627 0.95985 0.0
C5091 C 0.98591 0.53625 0.91576 0.0
C5092 C 0.9931 0.53662 0.89853 0.0
C5093 C 0.96835 0.53707 0.91403 0.0
C5094 C 0.95992 0.53795 0.93151 0.0
C5095 C 0.96663 0.55206 0.94776 0.0
C5096 C 0.95885 0.55259 0.96437 0.0
C5097 C 0.94425 0.53916 0.96485 0.0
C5098 C 0.93737 0.52523 0.94869 0.0
C5099 C 0.94512 0.52463 0.93204 0.0
H5100 H 0.93825 0.53958 0.97773 0.0
H5101 H 0.01424 0.5328 0.81703 0.0
H5102 H 0.30729 0.19771 0.56052 0.0
H5103 H 0.30714 0.21326 0.59352 0.0
H5104 H 0.25451 0.18573 0.58932 0.0
H5105 H 0.25446 0.17037 0.55624 0.0
H5106 H 0.25959 0.22163 0.606 0.0
H5107 H 0.28719 0.1699 0.61501 0.0
H5108 H 0.30858 0.15061 0.61046 0.0
H5109 H 0.34892 0.19782 0.63619 0.0
H5110 H 0.32777 0.21747 0.64064 0.0
H5111 H 0.25437 0.23597 0.70761 0.0
H5112 H 0.2541 0.2228 0.67364 0.0
H5113 H 0.30744 0.24835 0.6794 0.0
H5114 H 0.30792 0.26115 0.71346 0.0
H5115 H 0.30211 0.21389 0.66168 0.0
H5116 H 0.27475 0.26563 0.65324 0.0
H5117 H 0.25352 0.28515 0.65771 0.0
H5118 H 0.21299 0.23848 0.63094 0.0
H5119 H 0.23398 0.2186 0.62654 0.0
C5120 C 0.29565 0.19502 0.56656 0.0
C5121 C 0.28092 0.18269 0.55572 0.0
C5122 C 0.2956 0.20387 0.58549 0.0
C5123 C 0.28088 0.20049 0.59407 0.0
C5124 C 0.26604 0.18856 0.58308 0.0
C5125 C 0.26606 0.17973 0.56415 0.0
C5126 C 0.28098 0.20909 0.6146 0.0
C5127 C 0.26876 0.21976 0.61821 0.0
C5128 C 0.29318 0.20703 0.63053 0.0
C5129 C 0.3059 0.1952 0.62798 0.0
C5130 C 0.30063 0.1762 0.61956 0.0
C5131 C 0.31271 0.1652 0.61702 0.0
C5132 C 0.3301 0.173 0.62299 0.0
C5133 C 0.33545 0.19181 0.63155 0.0
C5134 C 0.32342 0.20288 0.6341 0.0
C5135 C 0.26602 0.23889 0.70163 0.0
C5136 C 0.28116 0.24964 0.71332 0.0
C5137 C 0.26584 0.2314 0.68213 0.0
C5138 C 0.28071 0.23472 0.67379 0.0
C5139 C 0.29579 0.24554 0.68543 0.0
C5140 C 0.29603 0.25291 0.70494 0.0
C5141 C 0.28072 0.22651 0.65314 0.0
C5142 C 0.29295 0.21585 0.64949 0.0
C5143 C 0.26857 0.22864 0.63718 0.0
C5144 C 0.25593 0.24058 0.63973 0.0
C5145 C 0.2613 0.25949 0.64843 0.0
C5146 C 0.24931 0.27062 0.65093 0.0
C5147 C 0.23191 0.26304 0.64466 0.0
C5148 C 0.22647 0.24432 0.63582 0.0
C5149 C 0.23841 0.23312 0.6333 0.0
H5150 H 0.22265 0.27168 0.6466 0.0
H5151 H 0.33944 0.16446 0.62101 0.0
H5152 H 0.5991 0.48574 0.24016 0.0
H5153 H 0.58416 0.48387 0.20664 0.0
H5154 H 0.60407 0.54292 0.20825 0.0
H5155 H 0.61873 0.545 0.24185 0.0
H5156 H 0.57105 0.5333 0.19107 0.0
H5157 H 0.62211 0.50813 0.1864 0.0
H5158 H 0.64111 0.48614 0.19289 0.0
H5159 H 0.60053 0.43962 0.1658 0.0
H5160 H 0.58124 0.46135 0.15935 0.0
H5161 H 0.56238 0.54254 0.09074 0.0
H5162 H 0.57254 0.54194 0.12535 0.0
H5163 H 0.5539 0.48197 0.11659 0.0
H5164 H 0.54416 0.48237 0.08187 0.0
H5165 H 0.58398 0.48999 0.13774 0.0
H5166 H 0.53322 0.51293 0.1406 0.0
H5167 H 0.5126 0.53316 0.13397 0.0
H5168 H 0.54984 0.58139 0.16437 0.0
H5169 H 0.57078 0.56148 0.17093 0.0
C5170 C 0.60023 0.49835 0.23342 0.0
C5171 C 0.6102 0.51549 0.24365 0.0
C5172 C 0.59173 0.49725 0.21423 0.0
C5173 C 0.5932 0.51321 0.20482 0.0
C5174 C 0.60277 0.53042 0.21519 0.0
C5175 C 0.61119 0.53156 0.2344 0.0
C5176 C 0.58516 0.51201 0.18403 0.0
C5177 C 0.574 0.52397 0.17937 0.0
C5178 C 0.58849 0.49932 0.16884 0.0
C5179 C 0.60018 0.48634 0.17263 0.0
C5180 C 0.61721 0.49321 0.18197 0.0
C5181 C 0.62804 0.48079 0.18561 0.0
C5182 C 0.62202 0.46149 0.17983 0.0
C5183 C 0.60518 0.45457 0.17032 0.0
C5184 C 0.59429 0.46692 0.16666 0.0
C5185 C 0.56038 0.52923 0.09619 0.0
C5186 C 0.55244 0.51252 0.08354 0.0
C5187 C 0.56612 0.52892 0.11602 0.0
C5188 C 0.56376 0.51194 0.12367 0.0
C5189 C 0.55584 0.49524 0.11105 0.0
C5190 C 0.55026 0.49551 0.09119 0.0
C5191 C 0.57009 0.51153 0.14469 0.0
C5192 C 0.58091 0.49926 0.14941 0.0
C5193 C 0.5662 0.52368 0.15995 0.0
C5194 C 0.55363 0.53573 0.15611 0.0
C5195 C 0.53706 0.52787 0.14575 0.0
C5196 C 0.5253 0.53928 0.14202 0.0
C5197 C 0.52992 0.55855 0.14871 0.0
C5198 C 0.54629 0.56646 0.15918 0.0
C5199 C 0.5581 0.55511 0.16293 0.0
H5200 H 0.5208 0.56736 0.14581 0.0
H5201 H 0.63043 0.45191 0.18266 0.0
H5202 H 0.2764 0.87725 0.94918 0.0
H5203 H 0.27585 0.85546 0.92001 0.0
H5204 H 0.2216 0.83562 0.91577 0.0
H5205 H 0.22216 0.85715 0.94573 0.0
H5206 H 0.23689 0.80697 0.91185 0.0
H5207 H 0.23642 0.85959 0.87721 0.0
H5208 H 0.24487 0.89285 0.8733 0.0
H5209 H 0.29734 0.88803 0.87875 0.0
H5210 H 0.28912 0.85462 0.88226 0.0
H5211 H 0.24364 0.7541 0.8183 0.0
H5212 H 0.2349 0.77469 0.84359 0.0
H5213 H 0.28777 0.79742 0.86878 0.0
H5214 H 0.29655 0.77675 0.84372 0.0
H5215 H 0.26739 0.82455 0.85793 0.0
H5216 H 0.26629 0.77096 0.89305 0.0
H5217 H 0.25657 0.73787 0.89676 0.0
H5218 H 0.20464 0.74479 0.88979 0.0
H5219 H 0.21405 0.77789 0.88577 0.0
C5220 C 0.26425 0.86852 0.94193 0.0
C5221 C 0.24931 0.86894 0.9498 0.0
C5222 C 0.26394 0.85612 0.92509 0.0
C5223 C 0.24863 0.84412 0.91545 0.0
C5224 C 0.23354 0.84484 0.92291 0.0
C5225 C 0.23387 0.85718 0.93997 0.0
C5226 C 0.24897 0.82987 0.89863 0.0
C5227 C 0.24314 0.81083 0.89976 0.0
C5228 C 0.25721 0.83484 0.88292 0.0
C5229 C 0.26217 0.85467 0.88004 0.0
C5230 C 0.24975 0.86564 0.87752 0.0
C5231 C 0.25449 0.88449 0.87534 0.0
C5232 C 0.27164 0.89258 0.87589 0.0
C5233 C 0.28407 0.88177 0.87841 0.0
C5234 C 0.27936 0.86282 0.88028 0.0
C5235 C 0.25334 0.76311 0.82959 0.0
C5236 C 0.27076 0.76403 0.82909 0.0
C5237 C 0.24835 0.77492 0.8439 0.0
C5238 C 0.26072 0.78767 0.85782 0.0
C5239 C 0.27807 0.78775 0.85801 0.0
C5240 C 0.28305 0.77589 0.84383 0.0
C5241 C 0.25578 0.80175 0.87156 0.0
C5242 C 0.26075 0.82073 0.86974 0.0
C5243 C 0.24647 0.79667 0.88639 0.0
C5244 C 0.24084 0.77681 0.88886 0.0
C5245 C 0.25278 0.76537 0.89211 0.0
C5246 C 0.24733 0.74663 0.89432 0.0
C5247 C 0.22999 0.73921 0.89344 0.0
C5248 C 0.21807 0.75055 0.89042 0.0
C5249 C 0.22345 0.7693 0.88819 0.0
H5250 H 0.2258 0.7247 0.89516 0.0
H5251 H 0.2753 0.90719 0.87426 0.0
H5252 H 0.93229 0.55984 0.70431 0.0
H5253 H 0.94638 0.55949 0.67529 0.0
H5254 H 0.95521 0.50435 0.68206 0.0
H5255 H 0.94186 0.50497 0.71103 0.0
H5256 H 0.98132 0.51951 0.67188 0.0
H5257 H 0.92333 0.51692 0.64325 0.0
H5258 H 0.89598 0.52732 0.63816 0.0
H5259 H 0.92123 0.57908 0.62296 0.0
H5260 H 0.94878 0.56907 0.62818 0.0
H5261 H 0.98087 0.51331 0.55625 0.0
H5262 H 0.96571 0.51522 0.58431 0.0
H5263 H 0.01344 0.53957 0.6228 0.0
H5264 H 0.02854 0.53705 0.59513 0.0
H5265 H 0.95842 0.53926 0.60967 0.0
H5266 H 0.0139 0.53296 0.66954 0.0
H5267 H 0.03872 0.51785 0.67296 0.0
H5268 H 0.01433 0.4762 0.62329 0.0
H5269 H 0.98928 0.49093 0.61972 0.0
C5270 C 0.93718 0.54761 0.69962 0.0
C5271 C 0.93574 0.53247 0.71048 0.0
C5272 C 0.94525 0.54732 0.68273 0.0
C5273 C 0.95203 0.53177 0.67575 0.0
C5274 C 0.95044 0.51671 0.68665 0.0
C5275 C 0.94259 0.51707 0.70347 0.0
C5276 C 0.961 0.53095 0.65764 0.0
C5277 C 0.97619 0.52398 0.6584 0.0
C5278 C 0.95462 0.53625 0.63941 0.0
C5279 C 0.93813 0.54233 0.63632 0.0
C5280 C 0.92306 0.53058 0.63896 0.0
C5281 C 0.90752 0.53639 0.63603 0.0
C5282 C 0.90688 0.55388 0.6303 0.0
C5283 C 0.92176 0.56556 0.62743 0.0
C5284 C 0.93734 0.55982 0.63037 0.0
C5285 C 0.98821 0.51896 0.5707 0.0
C5286 C 0.00617 0.52477 0.57306 0.0
C5287 C 0.97943 0.52015 0.58694 0.0
C5288 C 0.98817 0.52723 0.60631 0.0
C5289 C 0.00606 0.53346 0.60849 0.0
C5290 C 0.01482 0.5321 0.59237 0.0
C5291 C 0.97881 0.52806 0.62409 0.0
C5292 C 0.96357 0.53496 0.62324 0.0
C5293 C 0.98487 0.52221 0.64213 0.0
C5294 C 0.99981 0.51318 0.64425 0.0
C5295 C 0.01382 0.52054 0.65939 0.0
C5296 C 0.02793 0.51205 0.66135 0.0
C5297 C 0.02813 0.49611 0.64831 0.0
C5298 C 0.01419 0.48859 0.63334 0.0
C5299 C 1.00004 0.49701 0.63133 0.0
H5300 H 0.03907 0.48957 0.64985 0.0
H5301 H 0.89483 0.55835 0.62803 0.0
H5302 H 0.26484 0.15897 0.44002 0.0
H5303 H 0.26678 0.17435 0.41094 0.0
H5304 H 0.26981 0.2279 0.4458 0.0
H5305 H 0.26755 0.21259 0.4748 0.0
H5306 H 0.24969 0.22577 0.41189 0.0
H5307 H 0.30558 0.21396 0.43142 0.0
H5308 H 0.32677 0.19485 0.44011 0.0
H5309 H 0.31157 0.16112 0.38327 0.0
H5310 H 0.29012 0.17989 0.37434 0.0
H5311 H 0.28517 0.2854 0.34747 0.0
H5312 H 0.27984 0.26861 0.37504 0.0
H5313 H 0.27261 0.21577 0.33722 0.0
H5314 H 0.27785 0.23248 0.30963 0.0
H5315 H 0.29412 0.21687 0.3718 0.0
H5316 H 0.23905 0.23001 0.35189 0.0
H5317 H 0.21863 0.24998 0.34324 0.0
H5318 H 0.2329 0.28198 0.401 0.0
H5319 H 0.25364 0.26239 0.4099 0.0
C5320 C 0.26588 0.17401 0.44151 0.0
C5321 C 0.26611 0.18451 0.45985 0.0
C5322 C 0.26706 0.18284 0.42484 0.0
C5323 C 0.26868 0.2024 0.42611 0.0
C5324 C 0.26859 0.21282 0.44434 0.0
C5325 C 0.26736 0.20402 0.46098 0.0
C5326 C 0.27063 0.21206 0.40857 0.0
C5327 C 0.25954 0.22396 0.40329 0.0
C5328 C 0.28324 0.20951 0.39696 0.0
C5329 C 0.29612 0.1982 0.4023 0.0
C5330 C 0.30666 0.20237 0.42084 0.0
C5331 C 0.31874 0.19162 0.42579 0.0
C5332 C 0.32048 0.17675 0.41227 0.0
C5333 C 0.31019 0.17263 0.39375 0.0
C5334 C 0.29807 0.18332 0.38872 0.0
C5335 C 0.28227 0.27021 0.345 0.0
C5336 C 0.28192 0.26029 0.32636 0.0
C5337 C 0.2792 0.26061 0.36077 0.0
C5338 C 0.27578 0.24087 0.35826 0.0
C5339 C 0.27525 0.23096 0.33958 0.0
C5340 C 0.27816 0.24055 0.32378 0.0
C5341 C 0.27323 0.23059 0.37521 0.0
C5342 C 0.28423 0.2186 0.38038 0.0
C5343 C 0.2606 0.23314 0.38674 0.0
C5344 C 0.24803 0.24484 0.3815 0.0
C5345 C 0.23794 0.2414 0.3627 0.0
C5346 C 0.22629 0.25264 0.35776 0.0
C5347 C 0.2245 0.26726 0.37155 0.0
C5348 C 0.23432 0.27065 0.39033 0.0
C5349 C 0.24602 0.25948 0.39533 0.0
H5350 H 0.21547 0.27595 0.3677 0.0
H5351 H 0.32984 0.16844 0.41614 0.0
H5352 H 0.3789 0.65372 0.55674 0.0
H5353 H 0.40255 0.64294 0.54449 0.0
H5354 H 0.38773 0.66058 0.48884 0.0
H5355 H 0.36389 0.67161 0.50114 0.0
H5356 H 0.39088 0.6243 0.48476 0.0
H5357 H 0.42648 0.68135 0.51392 0.0
H5358 H 0.43888 0.7096 0.5383 0.0
H5359 H 0.45638 0.67548 0.57954 0.0
H5360 H 0.4439 0.64698 0.55553 0.0
H5361 H 0.45502 0.56907 0.47295 0.0
H5362 H 0.44247 0.59697 0.4717 0.0
H5363 H 0.43606 0.59721 0.53201 0.0
H5364 H 0.44801 0.56925 0.53321 0.0
H5365 H 0.44914 0.63311 0.52326 0.0
H5366 H 0.4034 0.57696 0.49563 0.0
H5367 H 0.39096 0.54912 0.47062 0.0
H5368 H 0.39358 0.58359 0.42514 0.0
H5369 H 0.4062 0.6116 0.44992 0.0
C5370 C 0.38078 0.65557 0.54199 0.0
C5371 C 0.36946 0.66333 0.52983 0.0
C5372 C 0.39444 0.6496 0.53506 0.0
C5373 C 0.39703 0.65118 0.51583 0.0
C5374 C 0.38603 0.65942 0.50378 0.0
C5375 C 0.37242 0.66564 0.51081 0.0
C5376 C 0.40979 0.64182 0.50795 0.0
C5377 C 0.40383 0.62663 0.49272 0.0
C5378 C 0.42672 0.64494 0.5182 0.0
C5379 C 0.43421 0.66199 0.53288 0.0
C5380 C 0.43288 0.67984 0.52823 0.0
C5381 C 0.43994 0.69591 0.54198 0.0
C5382 C 0.44841 0.69433 0.56046 0.0
C5383 C 0.44984 0.67668 0.56521 0.0
C5384 C 0.44281 0.66056 0.5515 0.0
C5385 C 0.45081 0.57504 0.48587 0.0
C5386 C 0.45242 0.56693 0.50317 0.0
C5387 C 0.44386 0.59106 0.48519 0.0
C5388 C 0.4385 0.59918 0.50181 0.0
C5389 C 0.44037 0.59129 0.51912 0.0
C5390 C 0.44716 0.57528 0.51977 0.0
C5391 C 0.42967 0.61499 0.50123 0.0
C5392 C 0.43644 0.63134 0.51481 0.0
C5393 C 0.41356 0.61306 0.48934 0.0
C5394 C 0.40589 0.59628 0.47455 0.0
C5395 C 0.40141 0.57855 0.48028 0.0
C5396 C 0.39432 0.56276 0.46616 0.0
C5397 C 0.39153 0.56458 0.4463 0.0
C5398 C 0.39578 0.5822 0.44052 0.0
C5399 C 0.4029 0.59803 0.45459 0.0
H5400 H 0.38604 0.55233 0.43538 0.0
H5401 H 0.45387 0.7068 0.57109 0.0
H5402 H 0.85478 0.94724 0.56527 0.0
H5403 H 0.88343 0.96534 0.56482 0.0
H5404 H 0.89163 0.92095 0.52317 0.0
H5405 H 0.86348 0.90267 0.52413 0.0
H5406 H 0.91924 0.93243 0.54786 0.0
H5407 H 0.8821 0.96425 0.51066 0.0
H5408 H 0.85848 0.98081 0.50432 0.0
H5409 H 0.88271 0.02402 0.55265 0.0
H5410 H 0.90638 0.00759 0.55943 0.0
H5411 H 0.98966 0.98466 0.51268 0.0
H5412 H 0.96138 0.96696 0.51525 0.0
H5413 H 0.95894 0.00794 0.56391 0.0
H5414 H 0.98726 0.02549 0.56158 0.0
H5415 H 0.92891 0.99874 0.53663 0.0
H5416 H 0.96667 0.96645 0.57261 0.0
H5417 H 0.99061 0.95014 0.57701 0.0
H5418 H 0.96518 0.90768 0.52846 0.0
H5419 H 0.94112 0.92386 0.52366 0.0
C5420 C 0.8627 0.94137 0.55602 0.0
C5421 C 0.85675 0.92347 0.54474 0.0
C5422 C 0.87909 0.95178 0.55568 0.0
C5423 C 0.88979 0.9447 0.54376 0.0
C5424 C 0.8838 0.92682 0.53255 0.0
C5425 C 0.86758 0.91635 0.53308 0.0
C5426 C 0.90721 0.9557 0.54289 0.0
C5427 C 0.92123 0.94686 0.54517 0.0
C5428 C 0.91011 0.97469 0.53971 0.0
C5429 C 0.89591 0.98459 0.53568 0.0
C5430 C 0.88232 0.97721 0.52002 0.0
C5431 C 0.86894 0.98659 0.51633 0.0
C5432 C 0.86907 1.00343 0.52811 0.0
C5433 C 0.88261 0.01096 0.54356 0.0
C5434 C 0.89602 1.00163 0.54733 0.0
C5435 C 0.98318 0.98977 0.52405 0.0
C5436 C 0.99078 0.0064 0.53703 0.0
C5437 C 0.96698 0.97967 0.52549 0.0
C5438 C 0.958 0.98605 0.53985 0.0
C5439 C 0.96555 1.00273 0.5527 0.0
C5440 C 0.98179 0.01272 0.55139 0.0
C5441 C 0.94075 0.9754 0.54147 0.0
C5442 C 0.92682 0.98431 0.53935 0.0
C5443 C 0.93789 0.95644 0.54456 0.0
C5444 C 0.95216 0.94646 0.54767 0.0
C5445 C 0.96622 0.95369 0.5628 0.0
C5446 C 0.97982 0.94446 0.56537 0.0
C5447 C 0.97946 0.92792 0.55296 0.0
C5448 C 0.96545 0.92051 0.53804 0.0
C5449 C 0.95181 0.92969 0.53541 0.0
H5450 H 0.99002 0.92082 0.55493 0.0
H5451 H 0.8587 0.01066 0.52523 0.0
H5452 H 0.92557 0.07595 0.27482 0.0
H5453 H 0.90772 0.09923 0.27712 0.0
H5454 H 0.86318 0.05666 0.25058 0.0
H5455 H 0.88104 0.03344 0.24767 0.0
H5456 H 0.86193 0.08714 0.23551 0.0
H5457 H 0.87246 0.07333 0.30093 0.0
H5458 H 0.8899 0.06953 0.33169 0.0
H5459 H 0.91476 0.12766 0.34016 0.0
H5460 H 0.89761 0.13176 0.3093 0.0
H5461 H 0.80124 0.141 0.25826 0.0
H5462 H 0.81816 0.1167 0.25682 0.0
H5463 H 0.86363 0.15814 0.28299 0.0
H5464 H 0.84662 0.18227 0.28513 0.0
H5465 H 0.86386 0.12758 0.29841 0.0
H5466 H 0.85207 0.14055 0.23183 0.0
H5467 H 0.83344 0.14305 0.20137 0.0
H5468 H 0.80966 0.08484 0.19544 0.0
H5469 H 0.82788 0.082 0.22606 0.0
C5470 C 0.91198 0.07154 0.26946 0.0
C5471 C 0.90472 0.05283 0.26112 0.0
C5472 C 0.90176 0.08486 0.27089 0.0
C5473 C 0.88404 0.07965 0.26434 0.0
C5474 C 0.87681 0.06101 0.25578 0.0
C5475 C 0.88704 0.04774 0.25415 0.0
C5476 C 0.87307 0.09367 0.26614 0.0
C5477 C 0.86219 0.09581 0.24933 0.0
C5478 C 0.87357 0.1052 0.2841 0.0
C5479 C 0.88386 0.1028 0.30271 0.0
C5480 C 0.88173 0.08527 0.30928 0.0
C5481 C 0.89155 0.08307 0.32674 0.0
C5482 C 0.90346 0.09833 0.33784 0.0
C5483 C 0.90554 0.11585 0.33153 0.0
C5484 C 0.89577 0.11812 0.31406 0.0
C5485 C 0.81486 0.1449 0.26367 0.0
C5486 C 0.82265 0.16357 0.27165 0.0
C5487 C 0.82453 0.13103 0.26279 0.0
C5488 C 0.84226 0.13563 0.26941 0.0
C5489 C 0.84999 0.15422 0.27772 0.0
C5490 C 0.84027 0.16803 0.27892 0.0
C5491 C 0.8528 0.12115 0.26774 0.0
C5492 C 0.8636 0.11891 0.28459 0.0
C5493 C 0.85209 0.10938 0.24985 0.0
C5494 C 0.84124 0.11111 0.23135 0.0
C5495 C 0.84279 0.12831 0.22411 0.0
C5496 C 0.83231 0.12979 0.20681 0.0
C5497 C 0.82038 0.11415 0.19649 0.0
C5498 C 0.8189 0.09696 0.20345 0.0
C5499 C 0.82929 0.0954 0.22078 0.0
H5500 H 0.8123 0.11535 0.1831 0.0
H5501 H 0.91105 0.0966 0.35136 0.0
H5502 H 0.78834 0.13502 0.07409 0.0
H5503 H 0.76079 0.11286 0.06738 0.0
H5504 H 0.7349 0.15858 0.06041 0.0
H5505 H 0.76225 0.18077 0.06753 0.0
H5506 H 0.71939 0.13561 0.08138 0.0
H5507 H 0.74103 0.12914 0.02075 0.0
H5508 H 0.76191 0.12306 0.99966 0.0
H5509 H 0.75826 0.06758 0.01469 0.0
H5510 H 0.73752 0.07344 0.03609 0.0
H5511 H 0.63833 0.09138 0.03568 0.0
H5512 H 0.66755 0.10827 0.03666 0.0
H5513 H 0.68657 0.05968 0.05125 0.0
H5514 H 0.65721 0.04257 0.05002 0.0
H5515 H 0.70613 0.08184 0.02719 0.0
H5516 H 0.68349 0.08886 0.08736 0.0
H5517 H 0.66102 0.09496 0.10607 0.0
H5518 H 0.66602 0.15027 0.09035 0.0
H5519 H 0.6883 0.14435 0.07121 0.0
C5520 C 0.77676 0.14034 0.07126 0.0
C5521 C 0.77746 0.15964 0.07131 0.0
C5522 C 0.76105 0.12766 0.0673 0.0
C5523 C 0.74583 0.13406 0.06312 0.0
C5524 C 0.7465 0.15334 0.06357 0.0
C5525 C 0.76216 0.16601 0.06765 0.0
C5526 C 0.72909 0.1208 0.05837 0.0
C5527 C 0.7165 0.12397 0.06943 0.0
C5528 C 0.72541 0.10534 0.04304 0.0
C5529 C 0.73788 0.10181 0.0302 0.0
C5530 C 0.74479 0.11571 0.01969 0.0
C5531 C 0.75658 0.11229 0.00766 0.0
C5532 C 0.76145 0.09497 0.00589 0.0
C5533 C 0.75451 0.08101 0.01611 0.0
C5534 C 0.74273 0.08436 0.02818 0.0
C5535 C 0.64873 0.08417 0.03858 0.0
C5536 C 0.64566 0.06586 0.0431 0.0
C5537 C 0.66536 0.09377 0.03907 0.0
C5538 C 0.67914 0.08529 0.0444 0.0
C5539 C 0.67605 0.06642 0.04716 0.0
C5540 C 0.65933 0.05671 0.04649 0.0
C5541 C 0.69652 0.09699 0.04995 0.0
C5542 C 0.70918 0.09345 0.03919 0.0
C5543 C 0.7003 0.11221 0.06549 0.0
C5544 C 0.68749 0.11612 0.07775 0.0
C5545 C 0.67976 0.1023 0.08785 0.0
C5546 C 0.66704 0.10572 0.09851 0.0
C5547 C 0.66207 0.12298 0.09937 0.0
C5548 C 0.66988 0.1369 0.08966 0.0
C5549 C 0.68256 0.13353 0.07892 0.0
H5550 H 0.65218 0.12558 0.10757 0.0
H5551 H 0.77057 0.09235 0.99656 0.0
H5552 H 0.16383 0.42094 0.28432 0.0
H5553 H 0.18053 0.39668 0.28374 0.0
H5554 H 0.22604 0.43819 0.2853 0.0
H5555 H 0.2091 0.46299 0.28564 0.0
H5556 H 0.22807 0.40714 0.26146 0.0
H5557 H 0.21516 0.41528 0.32581 0.0
H5558 H 0.19777 0.4171 0.35185 0.0
H5559 H 0.17178 0.35985 0.33213 0.0
H5560 H 0.18867 0.35781 0.3056 0.0
H5561 H 0.28317 0.34213 0.28262 0.0
H5562 H 0.26817 0.36824 0.28352 0.0
H5563 H 0.22074 0.32954 0.28171 0.0
H5564 H 0.23574 0.30335 0.28072 0.0
H5565 H 0.22072 0.35994 0.30637 0.0
H5566 H 0.23194 0.35222 0.24108 0.0
H5567 H 0.24957 0.34958 0.21534 0.0
H5568 H 0.27904 0.40508 0.23751 0.0
H5569 H 0.26172 0.40795 0.26359 0.0
C5570 C 0.17742 0.42525 0.28462 0.0
C5571 C 0.18479 0.4445 0.28517 0.0
C5572 C 0.18713 0.41103 0.28441 0.0
C5573 C 0.20494 0.41502 0.28485 0.0
C5574 C 0.21244 0.43421 0.28506 0.0
C5575 C 0.20264 0.44862 0.28533 0.0
C5576 C 0.21529 0.39916 0.28505 0.0
C5577 C 0.22656 0.3971 0.2716 0.0
C5578 C 0.21344 0.38522 0.29773 0.0
C5579 C 0.20301 0.3865 0.31346 0.0
C5580 C 0.20556 0.40315 0.32681 0.0
C5581 C 0.1958 0.40422 0.34169 0.0
C5582 C 0.18358 0.38864 0.34355 0.0
C5583 C 0.18115 0.37195 0.33057 0.0
C5584 C 0.1908 0.37084 0.31559 0.0
C5585 C 0.26954 0.33902 0.28243 0.0
C5586 C 0.26094 0.32017 0.28162 0.0
C5587 C 0.26081 0.35418 0.28281 0.0
C5588 C 0.24296 0.35141 0.28247 0.0
C5589 C 0.23439 0.33261 0.28198 0.0
C5590 C 0.2431 0.3174 0.28139 0.0
C5591 C 0.23337 0.36789 0.28277 0.0
C5592 C 0.22222 0.37003 0.29628 0.0
C5593 C 0.2353 0.38182 0.27015 0.0
C5594 C 0.24565 0.38023 0.25442 0.0
C5595 C 0.24226 0.36382 0.24056 0.0
C5596 C 0.25219 0.36228 0.22589 0.0
C5597 C 0.26545 0.37713 0.22483 0.0
C5598 C 0.26878 0.39357 0.23838 0.0
C5599 C 0.2589 0.39517 0.2531 0.0
H5600 H 0.27313 0.37591 0.21347 0.0
H5601 H 0.17608 0.38948 0.35511 0.0
H5602 H 0.235 0.38894 0.03418 0.0
H5603 H 0.21103 0.40474 0.03266 0.0
H5604 H 0.24593 0.45832 0.04963 0.0
H5605 H 0.27017 0.44249 0.05139 0.0
H5606 H 0.2189 0.45645 0.06894 0.0
H5607 H 0.22624 0.44383 1.00212 0.0
H5608 H 0.2294 0.4244 0.97205 0.0
H5609 H 0.18007 0.38962 0.97017 0.0
H5610 H 0.17671 0.4087 1.0004 0.0
H5611 H 0.15871 0.51209 0.04165 0.0
H5612 H 0.18296 0.49668 0.04513 0.0
H5613 H 0.14886 0.44277 0.0264 0.0
H5614 H 0.12449 0.4582 0.02227 0.0
H5615 H 0.17572 0.44507 0.00814 0.0
H5616 H 0.16824 0.45769 0.07485 0.0
H5617 H 0.16502 0.47707 0.10491 0.0
H5618 H 0.21444 0.51176 0.10709 0.0
H5619 H 0.21787 0.49274 0.07686 0.0
C5620 C 0.23767 0.40409 0.03761 0.0
C5621 C 0.2546 0.41441 0.04282 0.0
C5622 C 0.22388 0.41314 0.03666 0.0
C5623 C 0.2266 0.43278 0.04076 0.0
C5624 C 0.24347 0.44315 0.04633 0.0
C5625 C 0.25733 0.43408 0.04727 0.0
C5626 C 0.21179 0.44234 0.03915 0.0
C5627 C 0.2096 0.45418 0.05555 0.0
C5628 C 0.19935 0.43906 0.02185 0.0
C5629 C 0.2013 0.42759 0.00363 0.0
C5630 C 0.21612 0.43195 0.99538 0.0
C5631 C 0.21794 0.42102 0.97829 0.0
C5632 C 0.20496 0.40575 0.96923 0.0
C5633 C 0.19012 0.40143 0.97722 0.0
C5634 C 0.18825 0.41231 0.99432 0.0
C5635 C 0.15632 0.49695 0.03819 0.0
C5636 C 0.13957 0.48643 0.03158 0.0
C5637 C 0.17024 0.48812 0.04039 0.0
C5638 C 0.16782 0.4685 0.03621 0.0
C5639 C 0.15111 0.45792 0.02978 0.0
C5640 C 0.13714 0.46676 0.02758 0.0
C5641 C 0.18277 0.45914 0.03795 0.0
C5642 C 0.185 0.44735 0.02155 0.0
C5643 C 0.19522 0.46246 0.05525 0.0
C5644 C 0.19323 0.47389 0.07347 0.0
C5645 C 0.17837 0.46954 0.08164 0.0
C5646 C 0.17651 0.48045 0.09873 0.0
C5647 C 0.1895 0.49567 0.10788 0.0
C5648 C 0.20439 0.49998 0.09997 0.0
C5649 C 0.2063 0.48913 0.08287 0.0
H5650 H 0.18804 0.5041 0.12111 0.0
H5651 H 0.20639 0.3973 0.95601 0.0
H5652 H 0.90768 0.92455 0.2288 0.0
H5653 H 0.88682 0.89679 0.23198 0.0
H5654 H 0.85631 0.93231 0.25727 0.0
H5655 H 0.87726 0.96007 0.25456 0.0
H5656 H 0.85895 0.90487 0.27775 0.0
H5657 H 0.8451 0.90901 0.20924 0.0
H5658 H 0.8508 0.911 0.17572 0.0
H5659 H 0.86654 0.8582 0.17346 0.0
H5660 H 0.86114 0.85602 0.20708 0.0
H5661 H 0.78197 0.83737 0.26929 0.0
H5662 H 0.80291 0.86427 0.26377 0.0
H5663 H 0.83522 0.82698 0.24651 0.0
H5664 H 0.81429 0.80014 0.25203 0.0
H5665 H 0.83209 0.85447 0.22193 0.0
H5666 H 0.84542 0.85023 0.29025 0.0
H5667 H 0.83899 0.84793 0.32343 0.0
H5668 H 0.82378 0.90102 0.32576 0.0
H5669 H 0.82984 0.90347 0.29242 0.0
C5670 C 0.89649 0.92646 0.23495 0.0
C5671 C 0.89414 0.94454 0.2414 0.0
C5672 C 0.88453 0.91056 0.23669 0.0
C5673 C 0.86989 0.91244 0.24469 0.0
C5674 C 0.8675 0.93049 0.25107 0.0
C5675 C 0.87949 0.94636 0.24945 0.0
C5676 C 0.85721 0.89565 0.24687 0.0
C5677 C 0.85292 0.894 0.26546 0.0
C5678 C 0.84964 0.88117 0.23097 0.0
C5679 C 0.85289 0.88245 0.21076 0.0
C5680 C 0.84991 0.8979 0.20166 0.0
C5681 C 0.85306 0.89905 0.18263 0.0
C5682 C 0.85907 0.88477 0.17249 0.0
C5683 C 0.86191 0.86927 0.18134 0.0
C5684 C 0.85879 0.86807 0.20038 0.0
C5685 C 0.79354 0.835 0.26427 0.0
C5686 C 0.7968 0.81687 0.26145 0.0
C5687 C 0.80547 0.85031 0.26116 0.0
C5688 C 0.8207 0.84761 0.25497 0.0
C5689 C 0.82361 0.82936 0.25143 0.0
C5690 C 0.81178 0.81409 0.25478 0.0
C5691 C 0.83376 0.86392 0.2527 0.0
C5692 C 0.83814 0.8654 0.23416 0.0
C5693 C 0.8414 0.87828 0.26861 0.0
C5694 C 0.83792 0.87695 0.28875 0.0
C5695 C 0.84057 0.86134 0.29777 0.0
C5696 C 0.83701 0.86002 0.31662 0.0
C5697 C 0.83094 0.8743 0.32668 0.0
C5698 C 0.82846 0.88995 0.31793 0.0
C5699 C 0.83197 0.89132 0.29906 0.0
H5700 H 0.82819 0.87325 0.34127 0.0
H5701 H 0.8615 0.88568 0.15775 0.0
H5702 H 0.66758 0.07911 0.78413 0.0
H5703 H 0.68494 0.10946 0.78228 0.0
H5704 H 0.73033 0.08678 0.79095 0.0
H5705 H 0.71276 0.05588 0.79296 0.0
H5706 H 0.73689 0.12253 0.81119 0.0
H5707 H 0.7128 0.09547 0.74492 0.0
H5708 H 0.68986 0.0801 0.71727 0.0
H5709 H 0.66527 0.12683 0.72459 0.0
H5710 H 0.68795 0.14238 0.75245 0.0
H5711 H 0.7646 0.20279 0.74716 0.0
H5712 H 0.75053 0.17092 0.75014 0.0
H5713 H 0.74661 0.18971 0.8099 0.0
H5714 H 0.76114 0.22146 0.80713 0.0
H5715 H 0.72131 0.15439 0.75448 0.0
H5716 H 0.74237 0.15414 0.8371 0.0
H5717 H 0.76665 0.16862 0.86357 0.0
H5718 H 0.80011 0.17491 0.82135 0.0
H5719 H 0.77606 0.16027 0.79465 0.0
C5720 C 0.68126 0.08034 0.78569 0.0
C5721 C 0.68854 0.06458 0.78863 0.0
C5722 C 0.69129 0.09796 0.78452 0.0
C5723 C 0.70916 0.10082 0.78614 0.0
C5724 C 0.71663 0.08527 0.78954 0.0
C5725 C 0.70651 0.06744 0.79065 0.0
C5726 C 0.71965 0.1199 0.78396 0.0
C5727 C 0.73342 0.12942 0.79874 0.0
C5728 C 0.7156 0.12926 0.7677 0.0
C5729 C 0.70201 0.12002 0.75087 0.0
C5730 C 0.70244 0.10242 0.74071 0.0
C5731 C 0.6895 0.09368 0.72499 0.0
C5732 C 0.6761 0.10246 0.7192 0.0
C5733 C 0.67565 0.12003 0.7291 0.0
C5734 C 0.68856 0.12882 0.74484 0.0
C5735 C 0.76091 0.2002 0.76104 0.0
C5736 C 0.76429 0.21504 0.77691 0.0
C5737 C 0.75269 0.18178 0.76273 0.0
C5738 C 0.74748 0.17729 0.78037 0.0
C5739 C 0.75072 0.19219 0.79619 0.0
C5740 C 0.75903 0.2106 0.79454 0.0
C5741 C 0.73838 0.15732 0.78191 0.0
C5742 C 0.72482 0.14759 0.76697 0.0
C5743 C 0.74277 0.14774 0.79793 0.0
C5744 C 0.75738 0.15625 0.81387 0.0
C5745 C 0.75493 0.15853 0.83348 0.0
C5746 C 0.76864 0.1668 0.84852 0.0
C5747 C 0.78491 0.17273 0.84414 0.0
C5748 C 0.78749 0.17036 0.82472 0.0
C5749 C 0.77382 0.1621 0.80962 0.0
H5750 H 0.79551 0.17912 0.85581 0.0
H5751 H 0.66609 0.09568 0.70703 0.0
loop_
_geom_bond_atom_site_label_1
_geom_bond_atom_site_label_2
_geom_bond_distance
_geom_bond_site_symmetry_2
_ccdc_geom_bond_type
C0 O1 1.160 . S
C0 O7 1.185 . S
O1 C0 1.160 . S
O2 Zn3 1.899 . S
O2 C10 1.304 . S
Zn3 O2 1.899 . S
Zn3 O4 2.032 . S
Zn3 O7 2.086 . S
Zn3 O12 1.977 1_455 S
O4 Zn3 2.032 . S
O4 C8 1.278 . S
C5 O6 1.203 . S
C5 O12 1.267 . S
O6 C5 1.203 . S
O7 C0 1.185 . S
O7 Zn3 2.086 . S
C8 O4 1.278 . S
C8 O9 1.211 1_455 S
O9 C8 1.211 1_655 S
C10 O2 1.304 . S
C10 O11 1.244 1_455 S
O11 C10 1.244 1_655 S
O12 Zn3 1.977 1_655 S
O12 C5 1.267 . S
C13 O14 1.160 . S
C13 O20 1.185 . S
O14 C13 1.160 . S
O15 Zn16 1.899 . S
O15 C23 1.284 . S
Zn16 O15 1.899 . S
Zn16 O17 2.032 . S
Zn16 O20 2.086 . S
Zn16 O25 1.977 . S
O17 Zn16 2.032 . S
O17 C21 1.278 . S
C18 O19 1.203 . S
C18 O25 1.267 . S
O19 C18 1.203 . S
O20 C13 1.185 . S
O20 Zn16 2.086 . S
C21 O17 1.278 . S
C21 O22 1.211 . S
O22 C21 1.211 . S
C23 O15 1.284 . S
C23 O24 1.273 . S
O24 C23 1.273 . S
O25 Zn16 1.977 . S
O25 C18 1.267 . S
C26 O27 1.160 . S
C26 O33 1.185 . S
O27 C26 1.160 . S
O28 Zn29 1.899 . S
O28 C36 1.284 . S
Zn29 O28 1.899 . S
Zn29 O30 2.032 . S
Zn29 O33 2.086 . S
Zn29 O38 1.977 . S
O30 Zn29 2.032 . S
O30 C34 1.278 . S
C31 O32 1.203 . S
C31 O38 1.267 . S
O32 C31 1.203 . S
O33 C26 1.185 . S
O33 Zn29 2.086 . S
C34 O30 1.278 . S
C34 O35 1.211 . S
O35 C34 1.211 . S
C36 O28 1.284 . S
C36 O37 1.273 . S
O37 C36 1.273 . S
O38 Zn29 1.977 . S
O38 C31 1.267 . S
C39 O40 1.160 . S
C39 O46 1.185 . S
O40 C39 1.160 . S
O41 Zn42 1.899 . S
O41 C49 1.284 . S
Zn42 O41 1.899 . S
Zn42 O43 2.032 . S
Zn42 O46 2.086 . S
Zn42 O51 1.977 . S
O43 Zn42 2.032 . S
O43 C47 1.278 . S
C44 O45 1.203 . S
C44 O51 1.267 . S
O45 C44 1.203 . S
O46 C39 1.185 . S
O46 Zn42 2.086 . S
C47 O43 1.278 . S
C47 O48 1.211 . S
O48 C47 1.211 . S
C49 O41 1.284 . S
C49 O50 1.273 . S
O50 C49 1.273 . S
O51 Zn42 1.977 . S
O51 C44 1.267 . S
C52 O53 1.160 . S
C52 O59 1.185 . S
O53 C52 1.160 . S
O54 Zn55 1.899 . S
O54 C62 1.284 . S
Zn55 O54 1.899 . S
Zn55 O56 2.032 . S
Zn55 O59 2.086 . S
Zn55 O64 1.977 . S
O56 Zn55 2.032 . S
O56 C60 1.278 . S
C57 O58 1.203 . S
C57 O64 1.267 . S
O58 C57 1.203 . S
O59 C52 1.185 . S
O59 Zn55 2.086 . S
C60 O56 1.278 . S
C60 O61 1.211 . S
O61 C60 1.211 . S
C62 O54 1.284 . S
C62 O63 1.273 . S
O63 C62 1.273 . S
O64 Zn55 1.977 . S
O64 C57 1.267 . S
C65 O66 1.160 . S
C65 O72 1.185 . S
O66 C65 1.160 . S
O67 Zn68 1.899 . S
O67 C75 1.284 . S
Zn68 O67 1.899 . S
Zn68 O69 2.032 . S
Zn68 O72 2.086 . S
Zn68 O77 1.977 . S
O69 Zn68 2.032 . S
O69 C73 1.278 . S
C70 O71 1.203 . S
C70 O77 1.267 . S
O71 C70 1.203 . S
O72 C65 1.185 . S
O72 Zn68 2.086 . S
C73 O69 1.278 . S
C73 O74 1.211 . S
O74 C73 1.211 . S
C75 O67 1.284 . S
C75 O76 1.273 . S
O76 C75 1.273 . S
O77 Zn68 1.977 . S
O77 C70 1.267 . S
C78 O79 1.160 . S
C78 O85 1.185 . S
O79 C78 1.160 . S
O80 Zn81 1.899 . S
O80 C88 1.284 . S
Zn81 O80 1.899 . S
Zn81 O82 2.032 . S
Zn81 O85 2.086 . S
Zn81 O90 1.977 . S
O82 Zn81 2.032 . S
O82 C86 1.278 . S
C83 O84 1.203 . S
C83 O90 1.267 . S
O84 C83 1.203 . S
O85 C78 1.185 . S
O85 Zn81 2.086 . S
C86 O82 1.278 . S
C86 O87 1.211 . S
O87 C86 1.211 . S
C88 O80 1.284 . S
C88 O89 1.273 . S
O89 C88 1.273 . S
O90 Zn81 1.977 . S
O90 C83 1.267 . S
C91 O92 1.160 . S
C91 O98 1.185 . S
O92 C91 1.160 . S
O93 Zn94 1.899 . S
O93 C101 1.284 . S
Zn94 O93 1.899 . S
Zn94 O95 2.032 . S
Zn94 O98 2.086 . S
Zn94 O103 1.977 1_455 S
O95 Zn94 2.032 . S
O95 C99 1.278 . S
C96 O97 1.203 . S
C96 O103 1.267 . S
O97 C96 1.203 . S
O98 C91 1.185 . S
O98 Zn94 2.086 . S
C99 O95 1.278 . S
C99 O100 1.204 1_455 S
O100 C99 1.204 1_655 S
C101 O93 1.284 . S
C101 O102 1.273 . S
O102 C101 1.273 . S
O103 Zn94 1.977 1_655 S
O103 C96 1.267 . S
C104 O105 1.160 . S
C104 O111 1.185 . S
O105 C104 1.160 . S
O106 Zn107 1.899 . S
O106 C114 1.284 . S
Zn107 O106 1.899 . S
Zn107 O108 2.032 . S
Zn107 O111 2.086 . S
Zn107 O116 1.977 1_545 S
O108 Zn107 2.032 . S
O108 C112 1.278 . S
C109 O110 1.203 . S
C109 O116 1.267 . S
O110 C109 1.203 . S
O111 C104 1.185 . S
O111 Zn107 2.086 . S
C112 O108 1.278 . S
C112 O113 1.211 . S
O113 C112 1.211 . S
C114 O106 1.284 . S
C114 O115 1.273 . S
O115 C114 1.273 . S
O116 Zn107 1.977 1_565 S
O116 C109 1.267 . S
C117 O118 1.160 . S
C117 O124 1.185 . S
O118 C117 1.160 . S
O119 Zn120 1.899 . S
O119 C127 1.284 . S
Zn120 O119 1.899 . S
Zn120 O121 2.032 . S
Zn120 O124 2.086 . S
Zn120 O129 1.977 . S
O121 Zn120 2.032 . S
O121 C125 1.278 . S
C122 O123 1.203 . S
C122 O129 1.267 . S
O123 C122 1.203 . S
O124 C117 1.185 . S
O124 Zn120 2.086 . S
C125 O121 1.278 . S
C125 O126 1.211 . S
O126 C125 1.211 . S
C127 O119 1.284 . S
C127 O128 1.273 . S
O128 C127 1.273 . S
O129 Zn120 1.977 . S
O129 C122 1.267 . S
C130 O131 1.160 . S
C130 O137 1.185 1_565 S
O131 C130 1.160 . S
O132 Zn133 1.899 . S
O132 C140 1.284 . S
Zn133 O132 1.899 . S
Zn133 O134 2.032 . S
Zn133 O137 2.086 . S
Zn133 O142 1.977 . S
O134 Zn133 2.032 . S
O134 C138 1.278 . S
C135 O136 1.203 . S
C135 O142 1.267 . S
O136 C135 1.203 . S
O137 C130 1.185 1_545 S
O137 Zn133 2.086 . S
C138 O134 1.278 . S
C138 O139 1.211 . S
O139 C138 1.211 . S
C140 O132 1.284 . S
C140 O141 1.273 . S
O141 C140 1.273 . S
O142 Zn133 1.977 . S
O142 C135 1.267 . S
C143 O144 1.160 . S
C143 O150 1.185 1_554 S
O144 C143 1.160 . S
O145 Zn146 1.899 . S
O145 C153 1.284 . S
Zn146 O145 1.899 . S
Zn146 O147 2.032 1_554 S
Zn146 O150 2.086 1_554 S
Zn146 O155 1.977 . S
O147 Zn146 2.032 1_556 S
O147 C151 1.278 . S
C148 O149 1.203 . S
C148 O155 1.267 . S
O149 C148 1.203 . S
O150 C143 1.185 1_556 S
O150 Zn146 2.086 1_556 S
C151 O147 1.278 . S
C151 O152 1.211 . S
O152 C151 1.211 . S
C153 O145 1.284 . S
C153 O154 1.273 . S
O154 C153 1.273 . S
O155 Zn146 1.977 . S
O155 C148 1.267 . S
C156 O157 1.160 . S
C156 O163 1.185 . S
O157 C156 1.160 . S
O158 Zn159 1.899 . S
O158 C166 1.284 . S
Zn159 O158 1.899 . S
Zn159 O160 2.032 . S
Zn159 O163 2.086 . S
Zn159 O168 1.977 . S
O160 Zn159 2.032 . S
O160 C164 1.278 1_554 S
C161 O162 1.203 . S
C161 O168 1.267 . S
O162 C161 1.203 . S
O163 C156 1.185 . S
O163 Zn159 2.086 . S
C164 O160 1.278 1_556 S
C164 O165 1.211 . S
O165 C164 1.211 . S
C166 O158 1.284 . S
C166 O167 1.273 . S
O167 C166 1.273 . S
O168 Zn159 1.977 . S
O168 C161 1.267 . S
C169 O170 1.160 . S
C169 O176 1.185 . S
O170 C169 1.160 . S
O171 Zn172 1.899 . S
O171 C179 1.284 . S
Zn172 O171 1.899 . S
Zn172 O173 2.032 . S
Zn172 O176 2.086 . S
Zn172 O181 1.977 . S
O173 Zn172 2.032 . S
O173 C177 1.278 . S
C174 O175 1.203 . S
C174 O181 1.267 . S
O175 C174 1.203 . S
O176 C169 1.185 . S
O176 Zn172 2.086 . S
C177 O173 1.278 . S
C177 O178 1.211 . S
O178 C177 1.211 . S
C179 O171 1.284 . S
C179 O180 1.273 . S
O180 C179 1.273 . S
O181 Zn172 1.977 . S
O181 C174 1.267 . S
C182 O183 1.160 . S
C182 O189 1.185 . S
O183 C182 1.160 . S
O184 Zn185 1.899 . S
O184 C192 1.284 . S
Zn185 O184 1.899 . S
Zn185 O186 2.032 . S
Zn185 O189 2.086 . S
Zn185 O194 1.977 . S
O186 Zn185 2.032 . S
O186 C190 1.278 . S
C187 O188 1.203 . S
C187 O194 1.267 . S
O188 C187 1.203 . S
O189 C182 1.185 . S
O189 Zn185 2.086 . S
C190 O186 1.278 . S
C190 O191 1.211 . S
O191 C190 1.211 . S
C192 O184 1.284 . S
C192 O193 1.273 . S
O193 C192 1.273 . S
O194 Zn185 1.977 . S
O194 C187 1.267 . S
C195 O196 1.160 . S
C195 O202 1.185 . S
O196 C195 1.160 . S
O197 Zn198 1.899 . S
O197 C205 1.284 . S
Zn198 O197 1.899 . S
Zn198 O199 2.032 . S
Zn198 O202 2.086 . S
Zn198 O207 1.977 . S
O199 Zn198 2.032 . S
O199 C203 1.278 . S
C200 O201 1.203 . S
C200 O207 1.267 . S
O201 C200 1.203 . S
O202 C195 1.185 . S
O202 Zn198 2.086 . S
C203 O199 1.278 . S
C203 O204 1.211 . S
O204 C203 1.211 . S
C205 O197 1.284 . S
C205 O206 1.273 . S
O206 C205 1.273 . S
O207 Zn198 1.977 . S
O207 C200 1.267 . S
C208 O209 1.160 . S
C208 O215 1.185 . S
O209 C208 1.160 . S
O210 Zn211 1.899 . S
O210 C218 1.284 . S
Zn211 O210 1.899 . S
Zn211 O212 2.032 . S
Zn211 O215 2.086 . S
Zn211 O220 1.977 1_545 S
O212 Zn211 2.032 . S
O212 C216 1.278 . S
C213 O214 1.203 . S
C213 O220 1.267 . S
O214 C213 1.203 . S
O215 C208 1.185 . S
O215 Zn211 2.086 . S
C216 O212 1.278 . S
C216 O217 1.211 1_545 S
O217 C216 1.211 1_565 S
C218 O210 1.284 . S
C218 O219 1.273 . S
O219 C218 1.273 . S
O220 Zn211 1.977 1_565 S
O220 C213 1.267 . S
C221 O222 1.160 . S
C221 O228 1.185 . S
O222 C221 1.160 . S
O223 Zn224 1.899 . S
O223 C231 1.284 . S
Zn224 O223 1.899 . S
Zn224 O225 2.032 . S
Zn224 O228 2.086 . S
Zn224 O233 1.977 . S
O225 Zn224 2.032 . S
O225 C229 1.278 . S
C226 O227 1.203 . S
C226 O233 1.267 . S
O227 C226 1.203 . S
O228 C221 1.185 . S
O228 Zn224 2.086 . S
C229 O225 1.278 . S
C229 O230 1.211 . S
O230 C229 1.211 . S
C231 O223 1.284 . S
C231 O232 1.273 . S
O232 C231 1.273 . S
O233 Zn224 1.977 . S
O233 C226 1.267 . S
C234 O235 1.160 . S
C234 O241 1.185 . S
O235 C234 1.160 . S
O236 Zn237 1.899 . S
O236 C244 1.284 . S
Zn237 O236 1.899 . S
Zn237 O238 2.032 . S
Zn237 O241 2.086 . S
Zn237 O246 1.977 . S
O238 Zn237 2.032 . S
O238 C242 1.278 . S
C239 O240 1.203 . S
C239 O246 1.267 . S
O240 C239 1.203 . S
O241 C234 1.185 . S
O241 Zn237 2.086 . S
C242 O238 1.278 . S
C242 O243 1.211 . S
O243 C242 1.211 . S
C244 O236 1.284 . S
C244 O245 1.273 . S
O245 C244 1.273 . S
O246 Zn237 1.977 . S
O246 C239 1.267 . S
C247 O248 1.160 . S
C247 O254 1.185 . S
O248 C247 1.160 . S
O249 Zn250 1.899 . S
O249 C257 1.284 . S
Zn250 O249 1.899 . S
Zn250 O251 2.032 . S
Zn250 O254 2.086 1_545 S
Zn250 O259 1.977 . S
O251 Zn250 2.032 . S
O251 C255 1.278 . S
C252 O253 1.203 . S
C252 O259 1.267 . S
O253 C252 1.203 . S
O254 C247 1.185 . S
O254 Zn250 2.086 1_565 S
C255 O251 1.278 . S
C255 O256 1.211 . S
O256 C255 1.211 . S
C257 O249 1.284 . S
C257 O258 1.273 . S
O258 C257 1.273 . S
O259 Zn250 1.977 . S
O259 C252 1.267 . S
C260 O261 1.160 . S
C260 O267 1.185 . S
O261 C260 1.160 . S
O262 Zn263 1.899 . S
O262 C270 1.284 . S
Zn263 O262 1.899 . S
Zn263 O264 2.032 . S
Zn263 O267 2.086 . S
Zn263 O272 1.977 . S
O264 Zn263 2.032 . S
O264 C268 1.278 1_554 S
C265 O266 1.203 . S
C265 O272 1.267 . S
O266 C265 1.203 . S
O267 C260 1.185 . S
O267 Zn263 2.086 . S
C268 O264 1.278 1_556 S
C268 O269 1.211 . S
O269 C268 1.211 . S
C270 O262 1.284 . S
C270 O271 1.273 . S
O271 C270 1.273 . S
O272 Zn263 1.977 . S
O272 C265 1.267 . S
C273 O274 1.160 . S
C273 O280 1.185 . S
O274 C273 1.160 . S
O275 Zn276 1.899 . S
O275 C283 1.284 . S
Zn276 O275 1.899 . S
Zn276 O277 2.032 . S
Zn276 O280 2.086 . S
Zn276 O285 1.977 . S
O277 Zn276 2.032 . S
O277 C281 1.278 . S
C278 O279 1.203 . S
C278 O285 1.267 . S
O279 C278 1.203 . S
O280 C273 1.185 . S
O280 Zn276 2.086 . S
C281 O277 1.278 . S
C281 O282 1.211 . S
O282 C281 1.211 . S
C283 O275 1.284 . S
C283 O284 1.273 . S
O284 C283 1.273 . S
O285 Zn276 1.977 . S
O285 C278 1.267 . S
C286 O287 1.160 . S
C286 O293 1.185 . S
O287 C286 1.160 . S
O288 Zn289 1.899 . S
O288 C296 1.284 . S
Zn289 O288 1.899 . S
Zn289 O290 2.032 . S
Zn289 O293 2.086 . S
Zn289 O298 1.977 . S
O290 Zn289 2.032 . S
O290 C294 1.278 . S
C291 O292 1.203 . S
C291 O298 1.267 . S
O292 C291 1.203 . S
O293 C286 1.185 . S
O293 Zn289 2.086 . S
C294 O290 1.278 . S
C294 O295 1.211 . S
O295 C294 1.211 . S
C296 O288 1.284 . S
C296 O297 1.273 . S
O297 C296 1.273 . S
O298 Zn289 1.977 . S
O298 C291 1.267 . S
C299 O300 1.160 . S
C299 O306 1.185 . S
O300 C299 1.160 . S
O301 Zn302 1.899 . S
O301 C309 1.284 . S
Zn302 O301 1.899 . S
Zn302 O303 2.032 . S
Zn302 O306 2.086 . S
Zn302 O311 1.977 . S
O303 Zn302 2.032 . S
O303 C307 1.278 . S
C304 O305 1.203 . S
C304 O311 1.267 . S
O305 C304 1.203 . S
O306 C299 1.185 . S
O306 Zn302 2.086 . S
C307 O303 1.278 . S
C307 O308 1.211 . S
O308 C307 1.211 . S
C309 O301 1.284 . S
C309 O310 1.273 . S
O310 C309 1.273 . S
O311 Zn302 1.977 . S
O311 C304 1.267 . S
Tb312 C314 2.776 1_455 S
Tb312 O332 2.455 1_455 S
Tb312 O333 2.412 1_454 S
Tb312 O334 2.698 . S
Tb312 O335 2.429 1_554 S
Tb312 O336 2.389 . S
Tb312 O340 2.341 . S
Tb312 O343 2.361 1_545 S
Tb313 C323 2.809 1_545 S
Tb313 O334 2.325 . S
Tb313 O337 2.341 . S
Tb313 O338 2.484 1_545 S
Tb313 O339 2.440 . S
Tb313 O340 2.658 . S
Tb313 O341 2.409 . S
Tb313 O342 2.378 1_545 S
C314 Tb312 2.776 1_655 S
C314 C315 1.514 1_554 S
C314 O332 1.248 . S
C314 O333 1.266 1_554 S
C315 C314 1.514 1_556 S
C315 C316 1.359 1_556 S
C315 C320 1.348 . S
C316 C315 1.359 1_554 S
C316 C317 1.380 . S
C316 H344 0.929 . S
C317 C316 1.380 . S
C317 C318 1.347 1_554 S
C317 H345 0.931 . S
C318 C317 1.347 1_556 S
C318 C319 1.369 . S
C319 C318 1.369 . S
C319 C320 1.408 . S
C319 H346 0.930 . S
C320 C315 1.348 . S
C320 C319 1.408 . S
C320 H347 0.930 . S
C321 O334 1.281 1_556 S
C321 O335 1.254 . S
C322 O336 1.236 . S
C322 O337 1.266 . S
C323 Tb313 2.809 1_565 S
C323 C324 1.514 . S
C323 O338 1.248 . S
C323 O339 1.266 1_565 S
C324 C323 1.514 . S
C324 C325 1.359 . S
C324 C329 1.348 . S
C325 C324 1.359 . S
C325 C326 1.380 . S
C325 H348 0.929 . S
C326 C325 1.380 . S
C326 C327 1.347 . S
C326 H349 0.931 . S
C327 C326 1.347 . S
C327 C328 1.369 . S
C328 C327 1.369 . S
C328 C329 1.408 . S
C328 H350 0.930 . S
C329 C324 1.348 . S
C329 C328 1.408 . S
C329 H351 0.930 . S
C330 O340 1.281 . S
C330 O341 1.254 . S
C331 O342 1.236 . S
C331 O343 1.266 . S
O332 Tb312 2.455 1_655 S
O332 C314 1.248 . S
O333 Tb312 2.412 1_656 S
O333 C314 1.266 1_556 S
O334 Tb312 2.698 . S
O334 Tb313 2.325 . S
O334 C321 1.281 1_554 S
O335 Tb312 2.429 1_556 S
O335 C321 1.254 . S
O336 Tb312 2.389 . S
O336 C322 1.236 . S
O337 Tb313 2.341 . S
O337 C322 1.266 . S
O338 Tb313 2.484 1_565 S
O338 C323 1.248 . S
O339 Tb313 2.440 . S
O339 C323 1.266 1_545 S
O340 Tb312 2.341 . S
O340 Tb313 2.658 . S
O340 C330 1.281 . S
O341 Tb313 2.409 . S
O341 C330 1.254 . S
O342 Tb313 2.378 1_565 S
O342 C331 1.236 . S
O343 Tb312 2.361 1_565 S
O343 C331 1.266 . S
H344 C316 0.929 . S
H345 C317 0.931 . S
H346 C319 0.930 . S
H347 C320 0.930 . S
H348 C325 0.929 . S
H349 C326 0.931 . S
H350 C328 0.930 . S
H351 C329 0.930 . S
Tb352 C354 2.809 . S
Tb352 O372 2.484 . S
Tb352 O373 2.440 . S
Tb352 O374 2.658 . S
Tb352 O375 2.409 . S
Tb352 O376 2.378 . S
Tb352 O380 2.325 . S
Tb352 O383 2.341 . S
Tb353 C363 2.809 . S
Tb353 O374 2.325 . S
Tb353 O377 2.341 . S
Tb353 O378 2.484 . S
Tb353 O379 2.440 . S
Tb353 O380 2.658 . S
Tb353 O381 2.409 . S
Tb353 O382 2.378 . S
C354 Tb352 2.809 . S
C354 C355 1.514 . S
C354 O372 1.248 . S
C354 O373 1.266 . S
C355 C354 1.514 . S
C355 C356 1.359 . S
C355 C360 1.348 . S
C356 C355 1.359 . S
C356 C357 1.380 . S
C356 H384 0.929 . S
C357 C356 1.380 . S
C357 C358 1.347 . S
C357 H385 0.931 . S
C358 C357 1.347 . S
C358 C359 1.369 . S
C359 C358 1.369 . S
C359 C360 1.408 . S
C359 H386 0.930 . S
C360 C355 1.348 . S
C360 C359 1.408 . S
C360 H387 0.930 . S
C361 O374 1.281 . S
C361 O375 1.254 . S
C362 O376 1.236 . S
C362 O377 1.266 . S
C363 Tb353 2.809 . S
C363 C364 1.514 . S
C363 O378 1.248 . S
C363 O379 1.266 . S
C364 C363 1.514 . S
C364 C365 1.359 . S
C364 C369 1.348 . S
C365 C364 1.359 . S
C365 C366 1.380 . S
C365 H388 0.929 . S
C366 C365 1.380 . S
C366 C367 1.347 . S
C366 H389 0.931 . S
C367 C366 1.347 . S
C367 C368 1.369 . S
C368 C367 1.369 . S
C368 C369 1.408 . S
C368 H390 0.930 . S
C369 C364 1.348 . S
C369 C368 1.408 . S
C369 H391 0.930 . S
C370 O380 1.281 . S
C370 O381 1.254 . S
C371 O382 1.236 . S
C371 O383 1.266 . S
O372 Tb352 2.484 . S
O372 C354 1.248 . S
O373 Tb352 2.440 . S
O373 C354 1.266 . S
O374 Tb352 2.658 . S
O374 Tb353 2.325 . S
O374 C361 1.281 . S
O375 Tb352 2.409 . S
O375 C361 1.254 . S
O376 Tb352 2.378 . S
O376 C362 1.236 . S
O377 Tb353 2.341 . S
O377 C362 1.266 . S
O378 Tb353 2.484 . S
O378 C363 1.248 . S
O379 Tb353 2.440 . S
O379 C363 1.266 . S
O380 Tb352 2.325 . S
O380 Tb353 2.658 . S
O380 C370 1.281 . S
O381 Tb353 2.409 . S
O381 C370 1.254 . S
O382 Tb353 2.378 . S
O382 C371 1.236 . S
O383 Tb352 2.341 . S
O383 C371 1.266 . S
H384 C356 0.929 . S
H385 C357 0.931 . S
H386 C359 0.930 . S
H387 C360 0.930 . S
H388 C365 0.929 . S
H389 C366 0.931 . S
H390 C368 0.930 . S
H391 C369 0.930 . S
Tb392 C394 2.829 . S
Tb392 O412 2.484 . S
Tb392 O413 2.440 . S
Tb392 O414 2.658 . S
Tb392 O415 2.409 . S
Tb392 O416 2.378 1_545 S
Tb392 O420 2.325 . S
Tb392 O423 2.341 . S
Tb393 C403 2.809 . S
Tb393 O414 2.325 . S
Tb393 O417 2.341 1_545 S
Tb393 O418 2.484 . S
Tb393 O419 2.440 . S
Tb393 O420 2.658 . S
Tb393 O421 2.409 . S
Tb393 O422 2.378 . S
C394 Tb392 2.829 . S
C394 C395 1.494 1_545 S
C394 O412 1.248 . S
C394 O413 1.286 . S
C395 C394 1.494 1_565 S
C395 C396 1.359 . S
C395 C400 1.348 . S
C396 C395 1.359 . S
C396 C397 1.380 . S
C396 H424 0.929 . S
C397 C396 1.380 . S
C397 C398 1.347 . S
C397 H425 0.931 . S
C398 C397 1.347 . S
C398 C399 1.369 . S
C399 C398 1.369 . S
C399 C400 1.408 . S
C399 H426 0.930 . S
C400 C395 1.348 . S
C400 C399 1.408 . S
C400 H427 0.930 . S
C401 O414 1.281 . S
C401 O415 1.254 . S
C402 O416 1.236 . S
C402 O417 1.266 . S
C403 Tb393 2.809 . S
C403 C404 1.514 . S
C403 O418 1.248 . S
C403 O419 1.266 . S
C404 C403 1.514 . S
C404 C405 1.359 . S
C404 C409 1.348 . S
C405 C404 1.359 . S
C405 C406 1.380 . S
C405 H428 0.929 . S
C406 C405 1.380 . S
C406 C407 1.347 . S
C406 H429 0.931 . S
C407 C406 1.347 . S
C407 C408 1.369 . S
C408 C407 1.369 . S
C408 C409 1.408 . S
C408 H430 0.930 . S
C409 C404 1.348 . S
C409 C408 1.408 . S
C409 H431 0.930 . S
C410 O420 1.281 . S
C410 O421 1.254 . S
C411 O422 1.236 . S
C411 O423 1.266 . S
O412 Tb392 2.484 . S
O412 C394 1.248 . S
O413 Tb392 2.440 . S
O413 C394 1.286 . S
O414 Tb392 2.658 . S
O414 Tb393 2.325 . S
O414 C401 1.281 . S
O415 Tb392 2.409 . S
O415 C401 1.254 . S
O416 Tb392 2.378 1_565 S
O416 C402 1.236 . S
O417 Tb393 2.341 1_565 S
O417 C402 1.266 . S
O418 Tb393 2.484 . S
O418 C403 1.248 . S
O419 Tb393 2.440 . S
O419 C403 1.266 . S
O420 Tb392 2.325 . S
O420 Tb393 2.658 . S
O420 C410 1.281 . S
O421 Tb393 2.409 . S
O421 C410 1.254 . S
O422 Tb393 2.378 . S
O422 C411 1.236 . S
O423 Tb392 2.341 . S
O423 C411 1.266 . S
H424 C396 0.929 . S
H425 C397 0.931 . S
H426 C399 0.930 . S
H427 C400 0.930 . S
H428 C405 0.929 . S
H429 C406 0.931 . S
H430 C408 0.930 . S
H431 C409 0.930 . S
Tb432 C434 2.809 . S
Tb432 O452 2.484 . S
Tb432 O453 2.440 . S
Tb432 O454 2.658 . S
Tb432 O455 2.409 . S
Tb432 O456 2.378 . S
Tb432 O460 2.325 . S
Tb432 O463 2.341 . S
Tb433 C443 2.809 . S
Tb433 O454 2.325 . S
Tb433 O457 2.341 . S
Tb433 O458 2.484 . S
Tb433 O459 2.440 . S
Tb433 O460 2.658 . S
Tb433 O461 2.409 . S
Tb433 O462 2.378 . S
C434 Tb432 2.809 . S
C434 C435 1.514 . S
C434 O452 1.248 . S
C434 O453 1.266 . S
C435 C434 1.514 . S
C435 C436 1.359 . S
C435 C440 1.348 . S
C436 C435 1.359 . S
C436 C437 1.380 . S
C436 H464 0.929 . S
C437 C436 1.380 . S
C437 C438 1.347 . S
C437 H465 0.931 . S
C438 C437 1.347 . S
C438 C439 1.369 . S
C439 C438 1.369 . S
C439 C440 1.408 . S
C439 H466 0.930 . S
C440 C435 1.348 . S
C440 C439 1.408 . S
C440 H467 0.930 . S
C441 O454 1.281 . S
C441 O455 1.254 . S
C442 O456 1.236 . S
C442 O457 1.266 . S
C443 Tb433 2.809 . S
C443 C444 1.514 . S
C443 O458 1.248 . S
C443 O459 1.266 . S
C444 C443 1.514 . S
C444 C445 1.359 . S
C444 C449 1.348 . S
C445 C444 1.359 . S
C445 C446 1.380 . S
C445 H468 0.929 . S
C446 C445 1.380 . S
C446 C447 1.347 . S
C446 H469 0.931 . S
C447 C446 1.347 . S
C447 C448 1.369 . S
C448 C447 1.369 . S
C448 C449 1.408 . S
C448 H470 0.930 . S
C449 C444 1.348 . S
C449 C448 1.408 . S
C449 H471 0.930 . S
C450 O460 1.281 . S
C450 O461 1.254 . S
C451 O462 1.236 . S
C451 O463 1.266 . S
O452 Tb432 2.484 . S
O452 C434 1.248 . S
O453 Tb432 2.440 . S
O453 C434 1.266 . S
O454 Tb432 2.658 . S
O454 Tb433 2.325 . S
O454 C441 1.281 . S
O455 Tb432 2.409 . S
O455 C441 1.254 . S
O456 Tb432 2.378 . S
O456 C442 1.236 . S
O457 Tb433 2.341 . S
O457 C442 1.266 . S
O458 Tb433 2.484 . S
O458 C443 1.248 . S
O459 Tb433 2.440 . S
O459 C443 1.266 . S
O460 Tb432 2.325 . S
O460 Tb433 2.658 . S
O460 C450 1.281 . S
O461 Tb433 2.409 . S
O461 C450 1.254 . S
O462 Tb433 2.378 . S
O462 C451 1.236 . S
O463 Tb432 2.341 . S
O463 C451 1.266 . S
H464 C436 0.929 . S
H465 C437 0.931 . S
H466 C439 0.930 . S
H467 C440 0.930 . S
H468 C445 0.929 . S
H469 C446 0.931 . S
H470 C448 0.930 . S
H471 C449 0.930 . S
Tb472 C474 2.809 . S
Tb472 O492 2.484 . S
Tb472 O493 2.440 . S
Tb472 O494 2.658 . S
Tb472 O495 2.409 1_455 S
Tb472 O496 2.378 . S
Tb472 O500 2.325 . S
Tb472 O503 2.341 . S
Tb473 C483 2.809 . S
Tb473 O494 2.325 1_565 S
Tb473 O497 2.341 1_565 S
Tb473 O498 2.484 . S
Tb473 O499 2.440 . S
Tb473 O500 2.658 1_565 S
Tb473 O501 2.409 1_565 S
Tb473 O502 2.378 1_565 S
C474 Tb472 2.809 . S
C474 C475 1.514 . S
C474 O492 1.248 . S
C474 O493 1.266 . S
C475 C474 1.514 . S
C475 C476 1.359 . S
C475 C480 1.348 1_455 S
C476 C475 1.359 . S
C476 C477 1.380 . S
C476 H504 0.929 . S
C477 C476 1.380 . S
C477 C478 1.347 . S
C477 H505 0.931 . S
C478 C477 1.347 . S
C478 C479 1.369 1_455 S
C479 C478 1.369 1_655 S
C479 C480 1.408 . S
C479 H506 0.930 . S
C480 C475 1.348 1_655 S
C480 C479 1.408 . S
C480 H507 0.930 . S
C481 O494 1.281 1_655 S
C481 O495 1.254 . S
C482 O496 1.236 . S
C482 O497 1.266 . S
C483 Tb473 2.809 . S
C483 C484 1.514 . S
C483 O498 1.248 . S
C483 O499 1.266 . S
C484 C483 1.514 . S
C484 C485 1.359 . S
C484 C489 1.348 . S
C485 C484 1.359 . S
C485 C486 1.380 . S
C485 H508 0.929 . S
C486 C485 1.380 . S
C486 C487 1.347 . S
C486 H509 0.931 . S
C487 C486 1.347 . S
C487 C488 1.369 . S
C488 C487 1.369 . S
C488 C489 1.408 . S
C488 H510 0.930 . S
C489 C484 1.348 . S
C489 C488 1.408 . S
C489 H511 0.930 . S
C490 O500 1.281 . S
C490 O501 1.254 . S
C491 O502 1.236 . S
C491 O503 1.266 . S
O492 Tb472 2.484 . S
O492 C474 1.248 . S
O493 Tb472 2.440 . S
O493 C474 1.266 . S
O494 Tb472 2.658 . S
O494 Tb473 2.325 1_545 S
O494 C481 1.281 1_455 S
O495 Tb472 2.409 1_655 S
O495 C481 1.254 . S
O496 Tb472 2.378 . S
O496 C482 1.236 . S
O497 Tb473 2.341 1_545 S
O497 C482 1.266 . S
O498 Tb473 2.484 . S
O498 C483 1.248 . S
O499 Tb473 2.440 . S
O499 C483 1.266 . S
O500 Tb472 2.325 . S
O500 Tb473 2.658 1_545 S
O500 C490 1.281 . S
O501 Tb473 2.409 1_545 S
O501 C490 1.254 . S
O502 Tb473 2.378 1_545 S
O502 C491 1.236 . S
O503 Tb472 2.341 . S
O503 C491 1.266 . S
H504 C476 0.929 . S
H505 C477 0.931 . S
H506 C479 0.930 . S
H507 C480 0.930 . S
H508 C485 0.929 . S
H509 C486 0.931 . S
H510 C488 0.930 . S
H511 C489 0.930 . S
Tb512 C514 2.809 . S
Tb512 O532 2.484 . S
Tb512 O533 2.440 . S
Tb512 O534 2.658 . S
Tb512 O535 2.409 . S
Tb512 O536 2.378 . S
Tb512 O540 2.325 . S
Tb512 O543 2.341 . S
Tb513 C523 2.809 . S
Tb513 O534 2.325 . S
Tb513 O537 2.341 . S
Tb513 O538 2.484 . S
Tb513 O539 2.440 . S
Tb513 O540 2.658 . S
Tb513 O541 2.409 . S
Tb513 O542 2.378 . S
C514 Tb512 2.809 . S
C514 C515 1.514 . S
C514 O532 1.248 . S
C514 O533 1.266 . S
C515 C514 1.514 . S
C515 C516 1.359 . S
C515 C520 1.348 . S
C516 C515 1.359 . S
C516 C517 1.380 . S
C516 H544 0.929 . S
C517 C516 1.380 . S
C517 C518 1.347 . S
C517 H545 0.931 . S
C518 C517 1.347 . S
C518 C519 1.369 . S
C519 C518 1.369 . S
C519 C520 1.408 . S
C519 H546 0.930 . S
C520 C515 1.348 . S
C520 C519 1.408 . S
C520 H547 0.930 . S
C521 O534 1.281 . S
C521 O535 1.254 . S
C522 O536 1.236 . S
C522 O537 1.266 . S
C523 Tb513 2.809 . S
C523 C524 1.514 . S
C523 O538 1.248 . S
C523 O539 1.266 . S
C524 C523 1.514 . S
C524 C525 1.359 . S
C524 C529 1.348 . S
C525 C524 1.359 . S
C525 C526 1.380 . S
C525 H548 0.929 . S
C526 C525 1.380 . S
C526 C527 1.347 . S
C526 H549 0.931 . S
C527 C526 1.347 . S
C527 C528 1.369 . S
C528 C527 1.369 . S
C528 C529 1.408 . S
C528 H550 0.930 . S
C529 C524 1.348 . S
C529 C528 1.408 . S
C529 H551 0.930 . S
C530 O540 1.281 . S
C530 O541 1.254 . S
C531 O542 1.236 . S
C531 O543 1.266 . S
O532 Tb512 2.484 . S
O532 C514 1.248 . S
O533 Tb512 2.440 . S
O533 C514 1.266 . S
O534 Tb512 2.658 . S
O534 Tb513 2.325 . S
O534 C521 1.281 . S
O535 Tb512 2.409 . S
O535 C521 1.254 . S
O536 Tb512 2.378 . S
O536 C522 1.236 . S
O537 Tb513 2.341 . S
O537 C522 1.266 . S
O538 Tb513 2.484 . S
O538 C523 1.248 . S
O539 Tb513 2.440 . S
O539 C523 1.266 . S
O540 Tb512 2.325 . S
O540 Tb513 2.658 . S
O540 C530 1.281 . S
O541 Tb513 2.409 . S
O541 C530 1.254 . S
O542 Tb513 2.378 . S
O542 C531 1.236 . S
O543 Tb512 2.341 . S
O543 C531 1.266 . S
H544 C516 0.929 . S
H545 C517 0.931 . S
H546 C519 0.930 . S
H547 C520 0.930 . S
H548 C525 0.929 . S
H549 C526 0.931 . S
H550 C528 0.930 . S
H551 C529 0.930 . S
Tb552 C554 2.809 1_545 S
Tb552 O572 2.484 1_545 S
Tb552 O573 2.440 . S
Tb552 O574 2.658 . S
Tb552 O575 2.409 . S
Tb552 O576 2.378 . S
Tb552 O580 2.325 1_545 S
Tb552 O583 2.341 1_554 S
Tb553 C563 2.809 . S
Tb553 O574 2.325 . S
Tb553 O577 2.341 . S
Tb553 O578 2.484 . S
Tb553 O579 2.440 . S
Tb553 O580 2.658 1_545 S
Tb553 O581 2.409 1_545 S
Tb553 O582 2.378 . S
C554 Tb552 2.809 1_565 S
C554 C555 1.514 . S
C554 O572 1.248 . S
C554 O573 1.266 1_565 S
C555 C554 1.514 . S
C555 C556 1.359 . S
C555 C560 1.348 1_565 S
C556 C555 1.359 . S
C556 C557 1.380 . S
C556 H584 0.929 . S
C557 C556 1.380 . S
C557 C558 1.347 . S
C557 H585 0.931 . S
C558 C557 1.347 . S
C558 C559 1.369 . S
C559 C558 1.369 . S
C559 C560 1.408 1_565 S
C559 H586 0.930 1_565 S
C560 C555 1.348 1_545 S
C560 C559 1.408 1_545 S
C560 H587 0.930 . S
C561 O574 1.281 . S
C561 O575 1.254 . S
C562 O576 1.236 . S
C562 O577 1.266 . S
C563 Tb553 2.809 . S
C563 C564 1.514 . S
C563 O578 1.248 . S
C563 O579 1.266 . S
C564 C563 1.514 . S
C564 C565 1.359 . S
C564 C569 1.348 . S
C565 C564 1.359 . S
C565 C566 1.380 . S
C565 H588 0.929 . S
C566 C565 1.380 . S
C566 C567 1.347 . S
C566 H589 0.931 . S
C567 C566 1.347 . S
C567 C568 1.369 . S
C568 C567 1.369 . S
C568 C569 1.408 . S
C568 H590 0.930 . S
C569 C564 1.348 . S
C569 C568 1.408 . S
C569 H591 0.930 . S
C570 O580 1.281 . S
C570 O581 1.254 . S
C571 O582 1.236 1_556 S
C571 O583 1.266 . S
O572 Tb552 2.484 1_565 S
O572 C554 1.248 . S
O573 Tb552 2.440 . S
O573 C554 1.266 1_545 S
O574 Tb552 2.658 . S
O574 Tb553 2.325 . S
O574 C561 1.281 . S
O575 Tb552 2.409 . S
O575 C561 1.254 . S
O576 Tb552 2.378 . S
O576 C562 1.236 . S
O577 Tb553 2.341 . S
O577 C562 1.266 . S
O578 Tb553 2.484 . S
O578 C563 1.248 . S
O579 Tb553 2.440 . S
O579 C563 1.266 . S
O580 Tb552 2.325 1_565 S
O580 Tb553 2.658 1_565 S
O580 C570 1.281 . S
O581 Tb553 2.409 1_565 S
O581 C570 1.254 . S
O582 Tb553 2.378 . S
O582 C571 1.236 1_554 S
O583 Tb552 2.341 1_556 S
O583 C571 1.266 . S
H584 C556 0.929 . S
H585 C557 0.931 . S
H586 C559 0.930 1_545 S
H587 C560 0.930 . S
H588 C565 0.929 . S
H589 C566 0.931 . S
H590 C568 0.930 . S
H591 C569 0.930 . S
Tb592 C594 2.809 . S
Tb592 O612 2.484 . S
Tb592 O613 2.440 . S
Tb592 O614 2.658 . S
Tb592 O615 2.409 . S
Tb592 O616 2.378 . S
Tb592 O620 2.325 . S
Tb592 O623 2.341 . S
Tb593 C603 2.809 . S
Tb593 O614 2.325 . S
Tb593 O617 2.341 . S
Tb593 O618 2.484 . S
Tb593 O619 2.440 . S
Tb593 O620 2.658 . S
Tb593 O621 2.409 . S
Tb593 O622 2.378 . S
C594 Tb592 2.809 . S
C594 C595 1.514 . S
C594 O612 1.248 . S
C594 O613 1.266 . S
C595 C594 1.514 . S
C595 C596 1.359 . S
C595 C600 1.348 . S
C596 C595 1.359 . S
C596 C597 1.380 . S
C596 H624 0.929 . S
C597 C596 1.380 . S
C597 C598 1.347 . S
C597 H625 0.931 . S
C598 C597 1.347 . S
C598 C599 1.369 . S
C599 C598 1.369 . S
C599 C600 1.408 . S
C599 H626 0.930 . S
C600 C595 1.348 . S
C600 C599 1.408 . S
C600 H627 0.930 . S
C601 O614 1.281 . S
C601 O615 1.254 . S
C602 O616 1.236 . S
C602 O617 1.266 . S
C603 Tb593 2.809 . S
C603 C604 1.514 . S
C603 O618 1.248 . S
C603 O619 1.266 . S
C604 C603 1.514 . S
C604 C605 1.359 . S
C604 C609 1.348 . S
C605 C604 1.359 . S
C605 C606 1.380 . S
C605 H628 0.929 . S
C606 C605 1.380 . S
C606 C607 1.347 . S
C606 H629 0.931 . S
C607 C606 1.347 . S
C607 C608 1.369 . S
C608 C607 1.369 . S
C608 C609 1.408 . S
C608 H630 0.930 . S
C609 C604 1.348 . S
C609 C608 1.408 . S
C609 H631 0.930 . S
C610 O620 1.281 . S
C610 O621 1.254 . S
C611 O622 1.236 . S
C611 O623 1.266 . S
O612 Tb592 2.484 . S
O612 C594 1.248 . S
O613 Tb592 2.440 . S
O613 C594 1.266 . S
O614 Tb592 2.658 . S
O614 Tb593 2.325 . S
O614 C601 1.281 . S
O615 Tb592 2.409 . S
O615 C601 1.254 . S
O616 Tb592 2.378 . S
O616 C602 1.236 . S
O617 Tb593 2.341 . S
O617 C602 1.266 . S
O618 Tb593 2.484 . S
O618 C603 1.248 . S
O619 Tb593 2.440 . S
O619 C603 1.266 . S
O620 Tb592 2.325 . S
O620 Tb593 2.658 . S
O620 C610 1.281 . S
O621 Tb593 2.409 . S
O621 C610 1.254 . S
O622 Tb593 2.378 . S
O622 C611 1.236 . S
O623 Tb592 2.341 . S
O623 C611 1.266 . S
H624 C596 0.929 . S
H625 C597 0.931 . S
H626 C599 0.930 . S
H627 C600 0.930 . S
H628 C605 0.929 . S
H629 C606 0.931 . S
H630 C608 0.930 . S
H631 C609 0.930 . S
Tb632 C634 2.809 . S
Tb632 O652 2.484 . S
Tb632 O653 2.440 . S
Tb632 O654 2.658 . S
Tb632 O655 2.409 . S
Tb632 O656 2.331 1_554 S
Tb632 O660 2.325 . S
Tb632 O663 2.341 . S
Tb633 C643 2.809 . S
Tb633 O654 2.325 . S
Tb633 O657 2.341 1_554 S
Tb633 O658 2.484 . S
Tb633 O659 2.440 . S
Tb633 O660 2.658 . S
Tb633 O661 2.409 . S
Tb633 O662 2.378 . S
C634 Tb632 2.809 . S
C634 C635 1.514 1_554 S
C634 O652 1.248 . S
C634 O653 1.266 . S
C635 C634 1.514 1_556 S
C635 C636 1.359 . S
C635 C640 1.348 . S
C636 C635 1.359 . S
C636 C637 1.380 . S
C636 H664 0.929 . S
C637 C636 1.380 . S
C637 C638 1.347 . S
C637 H665 0.931 . S
C638 C637 1.347 . S
C638 C639 1.369 . S
C639 C638 1.369 . S
C639 C640 1.408 . S
C639 H666 0.930 . S
C640 C635 1.348 . S
C640 C639 1.408 . S
C640 H667 0.910 1_556 S
C641 O654 1.281 . S
C641 O655 1.254 . S
C642 O656 1.272 . S
C642 O657 1.266 . S
C643 Tb633 2.809 . S
C643 C644 1.514 . S
C643 O658 1.248 . S
C643 O659 1.266 . S
C644 C643 1.514 . S
C644 C645 1.359 . S
C644 C649 1.348 . S
C645 C644 1.359 . S
C645 C646 1.380 . S
C645 H668 0.929 . S
C646 C645 1.380 . S
C646 C647 1.347 . S
C646 H669 0.931 . S
C647 C646 1.347 . S
C647 C648 1.369 . S
C648 C647 1.369 . S
C648 C649 1.408 . S
C648 H670 0.930 . S
C649 C644 1.348 . S
C649 C648 1.408 . S
C649 H671 0.930 . S
C650 O660 1.281 . S
C650 O661 1.254 . S
C651 O662 1.236 . S
C651 O663 1.266 . S
O652 Tb632 2.484 . S
O652 C634 1.248 . S
O653 Tb632 2.440 . S
O653 C634 1.266 . S
O654 Tb632 2.658 . S
O654 Tb633 2.325 . S
O654 C641 1.281 . S
O655 Tb632 2.409 . S
O655 C641 1.254 . S
O656 Tb632 2.331 1_556 S
O656 C642 1.272 . S
O657 Tb633 2.341 1_556 S
O657 C642 1.266 . S
O658 Tb633 2.484 . S
O658 C643 1.248 . S
O659 Tb633 2.440 . S
O659 C643 1.266 . S
O660 Tb632 2.325 . S
O660 Tb633 2.658 . S
O660 C650 1.281 . S
O661 Tb633 2.409 . S
O661 C650 1.254 . S
O662 Tb633 2.378 . S
O662 C651 1.236 . S
O663 Tb632 2.341 . S
O663 C651 1.266 . S
H664 C636 0.929 . S
H665 C637 0.931 . S
H666 C639 0.930 . S
H667 C640 0.910 1_554 S
H668 C645 0.929 . S
H669 C646 0.931 . S
H670 C648 0.930 . S
H671 C649 0.930 . S
Tb672 C674 2.809 . S
Tb672 O692 2.484 . S
Tb672 O693 2.440 . S
Tb672 O694 2.658 . S
Tb672 O695 2.409 . S
Tb672 O696 2.378 . S
Tb672 O700 2.325 . S
Tb672 O703 2.341 . S
Tb673 C683 2.809 . S
Tb673 O694 2.325 . S
Tb673 O697 2.341 . S
Tb673 O698 2.484 . S
Tb673 O699 2.440 . S
Tb673 O700 2.658 . S
Tb673 O701 2.409 . S
Tb673 O702 2.378 . S
C674 Tb672 2.809 . S
C674 C675 1.514 . S
C674 O692 1.248 . S
C674 O693 1.266 . S
C675 C674 1.514 . S
C675 C676 1.359 . S
C675 C680 1.348 . S
C676 C675 1.359 . S
C676 C677 1.380 . S
C676 H704 0.929 . S
C677 C676 1.380 . S
C677 C678 1.347 . S
C677 H705 0.931 . S
C678 C677 1.347 . S
C678 C679 1.369 . S
C679 C678 1.369 . S
C679 C680 1.408 . S
C679 H706 0.930 . S
C680 C675 1.348 . S
C680 C679 1.408 . S
C680 H707 0.930 . S
C681 O694 1.281 . S
C681 O695 1.254 . S
C682 O696 1.236 . S
C682 O697 1.266 . S
C683 Tb673 2.809 . S
C683 C684 1.514 . S
C683 O698 1.248 . S
C683 O699 1.266 . S
C684 C683 1.514 . S
C684 C685 1.359 . S
C684 C689 1.348 . S
C685 C684 1.359 . S
C685 C686 1.380 . S
C685 H708 0.929 . S
C686 C685 1.380 . S
C686 C687 1.347 . S
C686 H709 0.931 . S
C687 C686 1.347 . S
C687 C688 1.369 . S
C688 C687 1.369 . S
C688 C689 1.408 . S
C688 H710 0.930 . S
C689 C684 1.348 . S
C689 C688 1.408 . S
C689 H711 0.930 . S
C690 O700 1.281 . S
C690 O701 1.254 . S
C691 O702 1.236 . S
C691 O703 1.266 . S
O692 Tb672 2.484 . S
O692 C674 1.248 . S
O693 Tb672 2.440 . S
O693 C674 1.266 . S
O694 Tb672 2.658 . S
O694 Tb673 2.325 . S
O694 C681 1.281 . S
O695 Tb672 2.409 . S
O695 C681 1.254 . S
O696 Tb672 2.378 . S
O696 C682 1.236 . S
O697 Tb673 2.341 . S
O697 C682 1.266 . S
O698 Tb673 2.484 . S
O698 C683 1.248 . S
O699 Tb673 2.440 . S
O699 C683 1.266 . S
O700 Tb672 2.325 . S
O700 Tb673 2.658 . S
O700 C690 1.281 . S
O701 Tb673 2.409 . S
O701 C690 1.254 . S
O702 Tb673 2.378 . S
O702 C691 1.236 . S
O703 Tb672 2.341 . S
O703 C691 1.266 . S
H704 C676 0.929 . S
H705 C677 0.931 . S
H706 C679 0.930 . S
H707 C680 0.930 . S
H708 C685 0.929 . S
H709 C686 0.931 . S
H710 C688 0.930 . S
H711 C689 0.930 . S
Tb712 C714 2.809 1_455 S
Tb712 O732 2.484 1_455 S
Tb712 O733 2.440 1_455 S
Tb712 O734 2.658 . S
Tb712 O735 2.409 . S
Tb712 O736 2.378 . S
Tb712 O740 2.325 . S
Tb712 O743 2.341 . S
Tb713 C723 2.809 . S
Tb713 O734 2.325 . S
Tb713 O737 2.341 . S
Tb713 O738 2.484 . S
Tb713 O739 2.440 . S
Tb713 O740 2.658 . S
Tb713 O741 2.409 . S
Tb713 O742 2.378 . S
C714 Tb712 2.809 1_655 S
C714 C715 1.514 . S
C714 O732 1.248 . S
C714 O733 1.266 . S
C715 C714 1.514 . S
C715 C716 1.359 . S
C715 C720 1.348 . S
C716 C715 1.359 . S
C716 C717 1.380 . S
C716 H744 0.929 . S
C717 C716 1.380 . S
C717 C718 1.347 . S
C717 H745 0.931 . S
C718 C717 1.347 . S
C718 C719 1.369 . S
C719 C718 1.369 . S
C719 C720 1.408 . S
C719 H746 0.930 . S
C720 C715 1.348 . S
C720 C719 1.408 . S
C720 H747 0.930 . S
C721 O734 1.281 . S
C721 O735 1.254 . S
C722 O736 1.236 . S
C722 O737 1.266 . S
C723 Tb713 2.809 . S
C723 C724 1.514 . S
C723 O738 1.248 . S
C723 O739 1.266 . S
C724 C723 1.514 . S
C724 C725 1.359 . S
C724 C729 1.348 . S
C725 C724 1.359 . S
C725 C726 1.380 . S
C725 H748 0.929 . S
C726 C725 1.380 . S
C726 C727 1.347 . S
C726 H749 0.931 . S
C727 C726 1.347 . S
C727 C728 1.369 . S
C728 C727 1.369 . S
C728 C729 1.408 . S
C728 H750 0.930 . S
C729 C724 1.348 . S
C729 C728 1.408 . S
C729 H751 0.930 . S
C730 O740 1.281 . S
C730 O741 1.254 . S
C731 O742 1.236 . S
C731 O743 1.266 . S
O732 Tb712 2.484 1_655 S
O732 C714 1.248 . S
O733 Tb712 2.440 1_655 S
O733 C714 1.266 . S
O734 Tb712 2.658 . S
O734 Tb713 2.325 . S
O734 C721 1.281 . S
O735 Tb712 2.409 . S
O735 C721 1.254 . S
O736 Tb712 2.378 . S
O736 C722 1.236 . S
O737 Tb713 2.341 . S
O737 C722 1.266 . S
O738 Tb713 2.484 . S
O738 C723 1.248 . S
O739 Tb713 2.440 . S
O739 C723 1.266 . S
O740 Tb712 2.325 . S
O740 Tb713 2.658 . S
O740 C730 1.281 . S
O741 Tb713 2.409 . S
O741 C730 1.254 . S
O742 Tb713 2.378 . S
O742 C731 1.236 . S
O743 Tb712 2.341 . S
O743 C731 1.266 . S
H744 C716 0.929 . S
H745 C717 0.931 . S
H746 C719 0.930 . S
H747 C720 0.930 . S
H748 C725 0.929 . S
H749 C726 0.931 . S
H750 C728 0.930 . S
H751 C729 0.930 . S
Tb752 C754 2.809 . S
Tb752 O772 2.484 . S
Tb752 O773 2.440 . S
Tb752 O774 2.658 . S
Tb752 O775 2.409 . S
Tb752 O776 2.378 . S
Tb752 O780 2.325 . S
Tb752 O783 2.341 . S
Tb753 C763 2.809 . S
Tb753 O774 2.325 . S
Tb753 O777 2.341 . S
Tb753 O778 2.484 . S
Tb753 O779 2.440 . S
Tb753 O780 2.658 . S
Tb753 O781 2.409 . S
Tb753 O782 2.378 . S
C754 Tb752 2.809 . S
C754 C755 1.514 . S
C754 O772 1.248 . S
C754 O773 1.266 . S
C755 C754 1.514 . S
C755 C756 1.359 . S
C755 C760 1.348 . S
C756 C755 1.359 . S
C756 C757 1.380 . S
C756 H784 0.929 . S
C757 C756 1.380 . S
C757 C758 1.347 . S
C757 H785 0.931 . S
C758 C757 1.347 . S
C758 C759 1.369 . S
C759 C758 1.369 . S
C759 C760 1.408 . S
C759 H786 0.930 . S
C760 C755 1.348 . S
C760 C759 1.408 . S
C760 H787 0.930 . S
C761 O774 1.281 . S
C761 O775 1.254 . S
C762 O776 1.236 . S
C762 O777 1.266 . S
C763 Tb753 2.809 . S
C763 C764 1.514 . S
C763 O778 1.248 . S
C763 O779 1.266 . S
C764 C763 1.514 . S
C764 C765 1.359 . S
C764 C769 1.348 . S
C765 C764 1.359 . S
C765 C766 1.380 . S
C765 H788 0.929 . S
C766 C765 1.380 . S
C766 C767 1.347 . S
C766 H789 0.931 . S
C767 C766 1.347 . S
C767 C768 1.369 . S
C768 C767 1.369 . S
C768 C769 1.408 . S
C768 H790 0.930 . S
C769 C764 1.348 . S
C769 C768 1.408 . S
C769 H791 0.930 . S
C770 O780 1.281 . S
C770 O781 1.254 . S
C771 O782 1.236 . S
C771 O783 1.266 . S
O772 Tb752 2.484 . S
O772 C754 1.248 . S
O773 Tb752 2.440 . S
O773 C754 1.266 . S
O774 Tb752 2.658 . S
O774 Tb753 2.325 . S
O774 C761 1.281 . S
O775 Tb752 2.409 . S
O775 C761 1.254 . S
O776 Tb752 2.378 . S
O776 C762 1.236 . S
O777 Tb753 2.341 . S
O777 C762 1.266 . S
O778 Tb753 2.484 . S
O778 C763 1.248 . S
O779 Tb753 2.440 . S
O779 C763 1.266 . S
O780 Tb752 2.325 . S
O780 Tb753 2.658 . S
O780 C770 1.281 . S
O781 Tb753 2.409 . S
O781 C770 1.254 . S
O782 Tb753 2.378 . S
O782 C771 1.236 . S
O783 Tb752 2.341 . S
O783 C771 1.266 . S
H784 C756 0.929 . S
H785 C757 0.931 . S
H786 C759 0.930 . S
H787 C760 0.930 . S
H788 C765 0.929 . S
H789 C766 0.931 . S
H790 C768 0.930 . S
H791 C769 0.930 . S
Tb792 C794 2.809 . S
Tb792 O812 2.484 . S
Tb792 O813 2.440 . S
Tb792 O814 2.658 . S
Tb792 O815 2.409 . S
Tb792 O816 2.378 . S
Tb792 O820 2.325 . S
Tb792 O823 2.341 . S
Tb793 C803 2.809 . S
Tb793 O814 2.325 . S
Tb793 O817 2.341 . S
Tb793 O818 2.484 . S
Tb793 O819 2.440 . S
Tb793 O820 2.658 . S
Tb793 O821 2.409 . S
Tb793 O822 2.378 . S
C794 Tb792 2.809 . S
C794 C795 1.514 . S
C794 O812 1.248 . S
C794 O813 1.266 . S
C795 C794 1.514 . S
C795 C796 1.359 . S
C795 C800 1.348 . S
C796 C795 1.359 . S
C796 C797 1.380 . S
C796 H824 0.929 . S
C797 C796 1.380 . S
C797 C798 1.347 . S
C797 H825 0.931 . S
C798 C797 1.347 . S
C798 C799 1.369 . S
C799 C798 1.369 . S
C799 C800 1.408 . S
C799 H826 0.930 . S
C800 C795 1.348 . S
C800 C799 1.408 . S
C800 H827 0.930 . S
C801 O814 1.281 . S
C801 O815 1.254 . S
C802 O816 1.236 . S
C802 O817 1.266 . S
C803 Tb793 2.809 . S
C803 C804 1.514 . S
C803 O818 1.248 . S
C803 O819 1.266 . S
C804 C803 1.514 . S
C804 C805 1.359 . S
C804 C809 1.348 . S
C805 C804 1.359 . S
C805 C806 1.380 . S
C805 H828 0.929 . S
C806 C805 1.380 . S
C806 C807 1.347 . S
C806 H829 0.931 . S
C807 C806 1.347 . S
C807 C808 1.369 . S
C808 C807 1.369 . S
C808 C809 1.408 . S
C808 H830 0.930 . S
C809 C804 1.348 . S
C809 C808 1.408 . S
C809 H831 0.930 . S
C810 O820 1.281 . S
C810 O821 1.254 . S
C811 O822 1.236 . S
C811 O823 1.266 . S
O812 Tb792 2.484 . S
O812 C794 1.248 . S
O813 Tb792 2.440 . S
O813 C794 1.266 . S
O814 Tb792 2.658 . S
O814 Tb793 2.325 . S
O814 C801 1.281 . S
O815 Tb792 2.409 . S
O815 C801 1.254 . S
O816 Tb792 2.378 . S
O816 C802 1.236 . S
O817 Tb793 2.341 . S
O817 C802 1.266 . S
O818 Tb793 2.484 . S
O818 C803 1.248 . S
O819 Tb793 2.440 . S
O819 C803 1.266 . S
O820 Tb792 2.325 . S
O820 Tb793 2.658 . S
O820 C810 1.281 . S
O821 Tb793 2.409 . S
O821 C810 1.254 . S
O822 Tb793 2.378 . S
O822 C811 1.236 . S
O823 Tb792 2.341 . S
O823 C811 1.266 . S
H824 C796 0.929 . S
H825 C797 0.931 . S
H826 C799 0.930 . S
H827 C800 0.930 . S
H828 C805 0.929 . S
H829 C806 0.931 . S
H830 C808 0.930 . S
H831 C809 0.930 . S
Tb832 C834 2.809 . S
Tb832 O852 2.484 . S
Tb832 O853 2.440 . S
Tb832 O854 2.658 . S
Tb832 O855 2.409 . S
Tb832 O856 2.378 . S
Tb832 O860 2.325 . S
Tb832 O863 2.341 . S
Tb833 C843 2.809 . S
Tb833 O854 2.325 . S
Tb833 O857 2.341 . S
Tb833 O858 2.484 . S
Tb833 O859 2.440 . S
Tb833 O860 2.658 . S
Tb833 O861 2.409 . S
Tb833 O862 2.378 . S
C834 Tb832 2.809 . S
C834 C835 1.514 . S
C834 O852 1.248 . S
C834 O853 1.266 . S
C835 C834 1.514 . S
C835 C836 1.359 . S
C835 C840 1.348 . S
C836 C835 1.359 . S
C836 C837 1.380 . S
C836 H864 0.929 . S
C837 C836 1.380 . S
C837 C838 1.347 . S
C837 H865 0.931 . S
C838 C837 1.347 . S
C838 C839 1.369 . S
C839 C838 1.369 . S
C839 C840 1.408 . S
C839 H866 0.930 . S
C840 C835 1.348 . S
C840 C839 1.408 . S
C840 H867 0.930 . S
C841 O854 1.281 . S
C841 O855 1.254 . S
C842 O856 1.236 . S
C842 O857 1.266 . S
C843 Tb833 2.809 . S
C843 C844 1.514 . S
C843 O858 1.248 . S
C843 O859 1.266 . S
C844 C843 1.514 . S
C844 C845 1.359 . S
C844 C849 1.348 . S
C845 C844 1.359 . S
C845 C846 1.380 . S
C845 H868 0.929 . S
C846 C845 1.380 . S
C846 C847 1.347 . S
C846 H869 0.931 . S
C847 C846 1.347 . S
C847 C848 1.369 . S
C848 C847 1.369 . S
C848 C849 1.408 . S
C848 H870 0.930 . S
C849 C844 1.348 . S
C849 C848 1.408 . S
C849 H871 0.930 . S
C850 O860 1.281 . S
C850 O861 1.254 . S
C851 O862 1.236 . S
C851 O863 1.266 . S
O852 Tb832 2.484 . S
O852 C834 1.248 . S
O853 Tb832 2.440 . S
O853 C834 1.266 . S
O854 Tb832 2.658 . S
O854 Tb833 2.325 . S
O854 C841 1.281 . S
O855 Tb832 2.409 . S
O855 C841 1.254 . S
O856 Tb832 2.378 . S
O856 C842 1.236 . S
O857 Tb833 2.341 . S
O857 C842 1.266 . S
O858 Tb833 2.484 . S
O858 C843 1.248 . S
O859 Tb833 2.440 . S
O859 C843 1.266 . S
O860 Tb832 2.325 . S
O860 Tb833 2.658 . S
O860 C850 1.281 . S
O861 Tb833 2.409 . S
O861 C850 1.254 . S
O862 Tb833 2.378 . S
O862 C851 1.236 . S
O863 Tb832 2.341 . S
O863 C851 1.266 . S
H864 C836 0.929 . S
H865 C837 0.931 . S
H866 C839 0.930 . S
H867 C840 0.930 . S
H868 C845 0.929 . S
H869 C846 0.931 . S
H870 C848 0.930 . S
H871 C849 0.930 . S
Tb872 C874 2.809 . S
Tb872 O892 2.484 . S
Tb872 O893 2.440 . S
Tb872 O894 2.658 . S
Tb872 O895 2.409 . S
Tb872 O896 2.378 . S
Tb872 O900 2.325 . S
Tb872 O903 2.341 . S
Tb873 C883 2.809 . S
Tb873 O894 2.325 . S
Tb873 O897 2.341 . S
Tb873 O898 2.484 . S
Tb873 O899 2.440 . S
Tb873 O900 2.658 . S
Tb873 O901 2.409 . S
Tb873 O902 2.378 . S
C874 Tb872 2.809 . S
C874 C875 1.514 . S
C874 O892 1.248 . S
C874 O893 1.266 . S
C875 C874 1.514 . S
C875 C876 1.359 . S
C875 C880 1.348 . S
C876 C875 1.359 . S
C876 C877 1.380 . S
C876 H904 0.929 . S
C877 C876 1.380 . S
C877 C878 1.347 . S
C877 H905 0.931 . S
C878 C877 1.347 . S
C878 C879 1.369 . S
C879 C878 1.369 . S
C879 C880 1.408 . S
C879 H906 0.930 . S
C880 C875 1.348 . S
C880 C879 1.408 . S
C880 H907 0.930 . S
C881 O894 1.281 . S
C881 O895 1.254 . S
C882 O896 1.236 . S
C882 O897 1.266 . S
C883 Tb873 2.809 . S
C883 C884 1.514 . S
C883 O898 1.248 . S
C883 O899 1.266 . S
C884 C883 1.514 . S
C884 C885 1.359 . S
C884 C889 1.348 . S
C885 C884 1.359 . S
C885 C886 1.380 . S
C885 H908 0.929 . S
C886 C885 1.380 . S
C886 C887 1.347 . S
C886 H909 0.931 . S
C887 C886 1.347 . S
C887 C888 1.369 . S
C888 C887 1.369 . S
C888 C889 1.408 . S
C888 H910 0.930 . S
C889 C884 1.348 . S
C889 C888 1.408 . S
C889 H911 0.930 . S
C890 O900 1.281 . S
C890 O901 1.254 . S
C891 O902 1.236 . S
C891 O903 1.266 . S
O892 Tb872 2.484 . S
O892 C874 1.248 . S
O893 Tb872 2.440 . S
O893 C874 1.266 . S
O894 Tb872 2.658 . S
O894 Tb873 2.325 . S
O894 C881 1.281 . S
O895 Tb872 2.409 . S
O895 C881 1.254 . S
O896 Tb872 2.378 . S
O896 C882 1.236 . S
O897 Tb873 2.341 . S
O897 C882 1.266 . S
O898 Tb873 2.484 . S
O898 C883 1.248 . S
O899 Tb873 2.440 . S
O899 C883 1.266 . S
O900 Tb872 2.325 . S
O900 Tb873 2.658 . S
O900 C890 1.281 . S
O901 Tb873 2.409 . S
O901 C890 1.254 . S
O902 Tb873 2.378 . S
O902 C891 1.236 . S
O903 Tb872 2.341 . S
O903 C891 1.266 . S
H904 C876 0.929 . S
H905 C877 0.931 . S
H906 C879 0.930 . S
H907 C880 0.930 . S
H908 C885 0.929 . S
H909 C886 0.931 . S
H910 C888 0.930 . S
H911 C889 0.930 . S
Tb912 C914 2.809 . S
Tb912 O932 2.484 . S
Tb912 O933 2.440 1_554 S
Tb912 O934 2.658 . S
Tb912 O935 2.409 1_554 S
Tb912 O936 2.378 . S
Tb912 O940 2.325 . S
Tb912 O943 2.341 . S
Tb913 C923 2.809 1_455 S
Tb913 O934 2.325 . S
Tb913 O937 2.341 . S
Tb913 O938 2.484 1_455 S
Tb913 O939 2.440 1_455 S
Tb913 O940 2.658 . S
Tb913 O941 2.409 . S
Tb913 O942 2.378 . S
C914 Tb912 2.809 . S
C914 C915 1.514 . S
C914 O932 1.248 . S
C914 O933 1.266 1_554 S
C915 C914 1.514 . S
C915 C916 1.359 . S
C915 C920 1.348 1_554 S
C916 C915 1.359 . S
C916 C917 1.380 . S
C916 H944 0.929 . S
C917 C916 1.380 . S
C917 C918 1.347 1_554 S
C917 H945 0.931 . S
C918 C917 1.347 1_556 S
C918 C919 1.369 . S
C919 C918 1.369 . S
C919 C920 1.408 . S
C919 H946 0.930 . S
C920 C915 1.348 1_556 S
C920 C919 1.408 . S
C920 H947 0.930 . S
C921 O934 1.281 1_556 S
C921 O935 1.254 . S
C922 O936 1.236 . S
C922 O937 1.266 . S
C923 Tb913 2.809 1_655 S
C923 C924 1.514 . S
C923 O938 1.248 . S
C923 O939 1.266 . S
C924 C923 1.514 . S
C924 C925 1.359 . S
C924 C929 1.348 . S
C925 C924 1.359 . S
C925 C926 1.380 . S
C925 H948 0.929 . S
C926 C925 1.380 . S
C926 C927 1.347 . S
C926 H949 0.931 . S
C927 C926 1.347 . S
C927 C928 1.369 . S
C928 C927 1.369 . S
C928 C929 1.408 . S
C928 H950 0.930 . S
C929 C924 1.348 . S
C929 C928 1.408 . S
C929 H951 0.930 . S
C930 O940 1.281 . S
C930 O941 1.254 . S
C931 O942 1.236 . S
C931 O943 1.266 . S
O932 Tb912 2.484 . S
O932 C914 1.248 . S
O933 Tb912 2.440 1_556 S
O933 C914 1.266 1_556 S
O934 Tb912 2.658 . S
O934 Tb913 2.325 . S
O934 C921 1.281 1_554 S
O935 Tb912 2.409 1_556 S
O935 C921 1.254 . S
O936 Tb912 2.378 . S
O936 C922 1.236 . S
O937 Tb913 2.341 . S
O937 C922 1.266 . S
O938 Tb913 2.484 1_655 S
O938 C923 1.248 . S
O939 Tb913 2.440 1_655 S
O939 C923 1.266 . S
O940 Tb912 2.325 . S
O940 Tb913 2.658 . S
O940 C930 1.281 . S
O941 Tb913 2.409 . S
O941 C930 1.254 . S
O942 Tb913 2.378 . S
O942 C931 1.236 . S
O943 Tb912 2.341 . S
O943 C931 1.266 . S
H944 C916 0.929 . S
H945 C917 0.931 . S
H946 C919 0.930 . S
H947 C920 0.930 . S
H948 C925 0.929 . S
H949 C926 0.931 . S
H950 C928 0.930 . S
H951 C929 0.930 . S
H952 C970 0.951 1_655 S
H953 C972 0.951 1_655 S
H954 C974 0.950 . S
H955 C975 0.950 . S
H956 C977 0.950 . S
H957 C980 0.950 . S
H958 C981 0.950 . S
H959 C983 0.950 . S
H960 C984 0.992 . S
H961 C985 0.951 . S
H962 C987 0.951 . S
H963 C989 0.950 . S
H964 C990 0.950 . S
H965 C992 0.950 . S
H966 C995 0.950 1_655 S
H967 C996 0.950 . S
H968 C998 0.950 . S
H969 C999 0.950 . S
C970 H952 0.951 1_455 S
C970 C971 1.366 . S
C970 C972 1.388 . S
C971 C970 1.366 . S
C971 C975 1.385 . S
C972 H953 0.951 1_455 S
C972 C970 1.388 . S
C972 C973 1.366 . S
C973 C972 1.366 . S
C973 C974 1.414 . S
C973 C976 1.499 . S
C974 H954 0.950 . S
C974 C973 1.414 . S
C974 C975 1.374 . S
C975 H955 0.950 . S
C975 C971 1.385 . S
C975 C974 1.374 . S
C976 C973 1.499 . S
C976 C977 1.373 . S
C976 C978 1.389 . S
C977 H956 0.950 . S
C977 C976 1.373 . S
C977 C993 1.377 . S
C978 C976 1.389 . S
C978 C979 1.524 1_556 S
C978 C992 1.377 1_556 S
C979 C978 1.524 1_554 S
C979 C980 1.397 . S
C979 C984 1.363 . S
C980 H957 0.950 . S
C980 C979 1.397 . S
C980 C981 1.334 . S
C981 H958 0.950 . S
C981 C980 1.334 . S
C981 C982 1.287 . S
C982 C981 1.287 . S
C982 C983 1.524 . S
C982 H1001 0.913 . S
C983 H959 0.950 . S
C983 C982 1.524 . S
C983 C984 1.415 . S
C984 H960 0.992 . S
C984 C979 1.363 . S
C984 C983 1.415 . S
C985 H961 0.951 . S
C985 C986 1.366 1_556 S
C985 C987 1.388 . S
C986 C985 1.366 1_554 S
C986 C990 1.385 . S
C987 H962 0.951 . S
C987 C985 1.388 . S
C987 C988 1.366 . S
C988 C987 1.366 . S
C988 C989 1.414 1_556 S
C988 C991 1.499 . S
C989 H963 0.950 . S
C989 C988 1.414 1_554 S
C989 C990 1.374 . S
C990 H964 0.950 . S
C990 C986 1.385 . S
C990 C989 1.374 . S
C991 C988 1.499 . S
C991 C992 1.373 1_556 S
C991 C993 1.389 . S
C992 H965 0.950 . S
C992 C978 1.377 1_554 S
C992 C991 1.373 1_554 S
C993 C977 1.377 . S
C993 C991 1.389 . S
C993 C994 1.524 . S
C994 C993 1.524 . S
C994 C995 1.397 . S
C994 C999 1.363 . S
C995 H966 0.950 1_455 S
C995 C994 1.397 . S
C995 C996 1.334 1_455 S
C996 H967 0.950 . S
C996 C995 1.334 1_655 S
C996 C997 1.287 1_655 S
C997 C996 1.287 1_455 S
C997 C998 1.524 . S
C997 H1000 0.999 . S
C998 H968 0.950 . S
C998 C997 1.524 . S
C998 C999 1.415 . S
C999 H969 0.950 . S
C999 C994 1.363 . S
C999 C998 1.415 . S
H1000 C997 0.999 . S
H1001 C982 0.913 . S
H1002 C1020 0.951 . S
H1003 C1022 0.951 . S
H1004 C1024 0.950 . S
H1005 C1025 0.950 . S
H1006 C1027 0.950 . S
H1007 C1030 0.950 . S
H1008 C1031 0.950 . S
H1009 C1033 0.950 . S
H1010 C1034 0.950 . S
H1011 C1035 0.951 . S
H1012 C1037 0.951 . S
H1013 C1039 0.950 . S
H1014 C1040 0.950 . S
H1015 C1042 0.950 . S
H1016 C1045 0.950 . S
H1017 C1046 0.950 . S
H1018 C1048 0.950 . S
H1019 C1049 0.950 . S
C1020 H1002 0.951 . S
C1020 C1021 1.366 . S
C1020 C1022 1.388 . S
C1021 C1020 1.366 . S
C1021 C1025 1.385 . S
C1022 H1003 0.951 . S
C1022 C1020 1.388 . S
C1022 C1023 1.366 . S
C1023 C1022 1.366 . S
C1023 C1024 1.414 . S
C1023 C1026 1.499 . S
C1024 H1004 0.950 . S
C1024 C1023 1.414 . S
C1024 C1025 1.374 . S
C1025 H1005 0.950 . S
C1025 C1021 1.385 . S
C1025 C1024 1.374 . S
C1026 C1023 1.499 . S
C1026 C1027 1.373 . S
C1026 C1028 1.389 . S
C1027 H1006 0.950 . S
C1027 C1026 1.373 . S
C1027 C1043 1.377 . S
C1028 C1026 1.389 . S
C1028 C1029 1.524 . S
C1028 C1042 1.377 . S
C1029 C1028 1.524 . S
C1029 C1030 1.397 . S
C1029 C1034 1.363 . S
C1030 H1007 0.950 . S
C1030 C1029 1.397 . S
C1030 C1031 1.334 . S
C1031 H1008 0.950 . S
C1031 C1030 1.334 . S
C1031 C1032 1.287 . S
C1032 C1031 1.287 . S
C1032 C1033 1.524 . S
C1032 H1051 0.913 . S
C1033 H1009 0.950 . S
C1033 C1032 1.524 . S
C1033 C1034 1.415 . S
C1034 H1010 0.950 . S
C1034 C1029 1.363 . S
C1034 C1033 1.415 . S
C1035 H1011 0.951 . S
C1035 C1036 1.366 . S
C1035 C1037 1.388 . S
C1036 C1035 1.366 . S
C1036 C1040 1.385 . S
C1037 H1012 0.951 . S
C1037 C1035 1.388 . S
C1037 C1038 1.366 . S
C1038 C1037 1.366 . S
C1038 C1039 1.414 . S
C1038 C1041 1.499 . S
C1039 H1013 0.950 . S
C1039 C1038 1.414 . S
C1039 C1040 1.374 . S
C1040 H1014 0.950 . S
C1040 C1036 1.385 . S
C1040 C1039 1.374 . S
C1041 C1038 1.499 . S
C1041 C1042 1.373 . S
C1041 C1043 1.389 . S
C1042 H1015 0.950 . S
C1042 C1028 1.377 . S
C1042 C1041 1.373 . S
C1043 C1027 1.377 . S
C1043 C1041 1.389 . S
C1043 C1044 1.524 . S
C1044 C1043 1.524 . S
C1044 C1045 1.397 . S
C1044 C1049 1.363 . S
C1045 H1016 0.950 . S
C1045 C1044 1.397 . S
C1045 C1046 1.334 . S
C1046 H1017 0.950 . S
C1046 C1045 1.334 . S
C1046 C1047 1.287 . S
C1047 C1046 1.287 . S
C1047 C1048 1.524 . S
C1047 H1050 0.999 . S
C1048 H1018 0.950 . S
C1048 C1047 1.524 . S
C1048 C1049 1.415 . S
C1049 H1019 0.950 . S
C1049 C1044 1.363 . S
C1049 C1048 1.415 . S
H1050 C1047 0.999 . S
H1051 C1032 0.913 . S
H1052 C1070 0.951 . S
H1053 C1072 0.951 . S
H1054 C1074 0.950 . S
H1055 C1075 0.950 . S
H1056 C1077 0.950 . S
H1057 C1080 0.950 . S
H1058 C1081 0.950 . S
H1059 C1083 0.950 . S
H1060 C1084 0.950 . S
H1061 C1085 0.951 . S
H1062 C1087 0.951 . S
H1063 C1089 0.950 . S
H1064 C1090 0.950 . S
H1065 C1092 0.950 . S
H1066 C1095 0.950 . S
H1067 C1096 0.950 . S
H1068 C1098 0.950 . S
H1069 C1099 0.950 . S
C1070 H1052 0.951 . S
C1070 C1071 1.366 . S
C1070 C1072 1.388 . S
C1071 C1070 1.366 . S
C1071 C1075 1.385 . S
C1072 H1053 0.951 . S
C1072 C1070 1.388 . S
C1072 C1073 1.366 . S
C1073 C1072 1.366 . S
C1073 C1074 1.414 . S
C1073 C1076 1.499 . S
C1074 H1054 0.950 . S
C1074 C1073 1.414 . S
C1074 C1075 1.374 . S
C1075 H1055 0.950 . S
C1075 C1071 1.385 . S
C1075 C1074 1.374 . S
C1076 C1073 1.499 . S
C1076 C1077 1.373 . S
C1076 C1078 1.389 . S
C1077 H1056 0.950 . S
C1077 C1076 1.373 . S
C1077 C1093 1.377 . S
C1078 C1076 1.389 . S
C1078 C1079 1.524 . S
C1078 C1092 1.377 . S
C1079 C1078 1.524 . S
C1079 C1080 1.397 . S
C1079 C1084 1.363 . S
C1080 H1057 0.950 . S
C1080 C1079 1.397 . S
C1080 C1081 1.334 . S
C1081 H1058 0.950 . S
C1081 C1080 1.334 . S
C1081 C1082 1.287 . S
C1082 C1081 1.287 . S
C1082 C1083 1.524 . S
C1082 H1101 0.913 . S
C1083 H1059 0.950 . S
C1083 C1082 1.524 . S
C1083 C1084 1.415 . S
C1084 H1060 0.950 . S
C1084 C1079 1.363 . S
C1084 C1083 1.415 . S
C1085 H1061 0.951 . S
C1085 C1086 1.366 . S
C1085 C1087 1.388 . S
C1086 C1085 1.366 . S
C1086 C1090 1.385 . S
C1087 H1062 0.951 . S
C1087 C1085 1.388 . S
C1087 C1088 1.366 . S
C1088 C1087 1.366 . S
C1088 C1089 1.414 . S
C1088 C1091 1.499 . S
C1089 H1063 0.950 . S
C1089 C1088 1.414 . S
C1089 C1090 1.374 . S
C1090 H1064 0.950 . S
C1090 C1086 1.385 . S
C1090 C1089 1.374 . S
C1091 C1088 1.499 . S
C1091 C1092 1.373 . S
C1091 C1093 1.389 . S
C1092 H1065 0.950 . S
C1092 C1078 1.377 . S
C1092 C1091 1.373 . S
C1093 C1077 1.377 . S
C1093 C1091 1.389 . S
C1093 C1094 1.524 . S
C1094 C1093 1.524 . S
C1094 C1095 1.397 . S
C1094 C1099 1.363 . S
C1095 H1066 0.950 . S
C1095 C1094 1.397 . S
C1095 C1096 1.334 . S
C1096 H1067 0.950 . S
C1096 C1095 1.334 . S
C1096 C1097 1.287 . S
C1097 C1096 1.287 . S
C1097 C1098 1.524 . S
C1097 H1100 0.999 . S
C1098 H1068 0.950 . S
C1098 C1097 1.524 . S
C1098 C1099 1.415 . S
C1099 H1069 0.950 . S
C1099 C1094 1.363 . S
C1099 C1098 1.415 . S
H1100 C1097 0.999 . S
H1101 C1082 0.913 . S
H1102 C1120 0.951 . S
H1103 C1122 0.951 . S
H1104 C1124 0.950 . S
H1105 C1125 0.950 . S
H1106 C1127 0.950 . S
H1107 C1130 0.950 . S
H1108 C1131 0.950 . S
H1109 C1133 0.950 . S
H1110 C1134 0.950 . S
H1111 C1135 0.951 . S
H1112 C1137 0.951 . S
H1113 C1139 0.950 . S
H1114 C1140 0.950 . S
H1115 C1142 0.950 . S
H1116 C1145 0.950 . S
H1117 C1146 0.950 . S
H1118 C1148 0.950 . S
H1119 C1149 0.950 . S
C1120 H1102 0.951 . S
C1120 C1121 1.366 . S
C1120 C1122 1.388 . S
C1121 C1120 1.366 . S
C1121 C1125 1.385 . S
C1122 H1103 0.951 . S
C1122 C1120 1.388 . S
C1122 C1123 1.366 . S
C1123 C1122 1.366 . S
C1123 C1124 1.414 . S
C1123 C1126 1.499 . S
C1124 H1104 0.950 . S
C1124 C1123 1.414 . S
C1124 C1125 1.374 . S
C1125 H1105 0.950 . S
C1125 C1121 1.385 . S
C1125 C1124 1.374 . S
C1126 C1123 1.499 . S
C1126 C1127 1.373 . S
C1126 C1128 1.389 . S
C1127 H1106 0.950 . S
C1127 C1126 1.373 . S
C1127 C1143 1.377 . S
C1128 C1126 1.389 . S
C1128 C1129 1.524 . S
C1128 C1142 1.377 . S
C1129 C1128 1.524 . S
C1129 C1130 1.397 . S
C1129 C1134 1.363 . S
C1130 H1107 0.950 . S
C1130 C1129 1.397 . S
C1130 C1131 1.334 . S
C1131 H1108 0.950 . S
C1131 C1130 1.334 . S
C1131 C1132 1.287 . S
C1132 C1131 1.287 . S
C1132 C1133 1.524 . S
C1132 H1151 0.913 . S
C1133 H1109 0.950 . S
C1133 C1132 1.524 . S
C1133 C1134 1.415 . S
C1134 H1110 0.950 . S
C1134 C1129 1.363 . S
C1134 C1133 1.415 . S
C1135 H1111 0.951 . S
C1135 C1136 1.366 . S
C1135 C1137 1.388 . S
C1136 C1135 1.366 . S
C1136 C1140 1.385 . S
C1137 H1112 0.951 . S
C1137 C1135 1.388 . S
C1137 C1138 1.366 . S
C1138 C1137 1.366 . S
C1138 C1139 1.414 . S
C1138 C1141 1.499 . S
C1139 H1113 0.950 . S
C1139 C1138 1.414 . S
C1139 C1140 1.374 . S
C1140 H1114 0.950 . S
C1140 C1136 1.385 . S
C1140 C1139 1.374 . S
C1141 C1138 1.499 . S
C1141 C1142 1.373 . S
C1141 C1143 1.389 . S
C1142 H1115 0.950 . S
C1142 C1128 1.377 . S
C1142 C1141 1.373 . S
C1143 C1127 1.377 . S
C1143 C1141 1.389 . S
C1143 C1144 1.524 . S
C1144 C1143 1.524 . S
C1144 C1145 1.397 . S
C1144 C1149 1.363 . S
C1145 H1116 0.950 . S
C1145 C1144 1.397 . S
C1145 C1146 1.334 . S
C1146 H1117 0.950 . S
C1146 C1145 1.334 . S
C1146 C1147 1.287 . S
C1147 C1146 1.287 . S
C1147 C1148 1.524 . S
C1147 H1150 0.999 . S
C1148 H1118 0.950 . S
C1148 C1147 1.524 . S
C1148 C1149 1.415 . S
C1149 H1119 0.950 . S
C1149 C1144 1.363 . S
C1149 C1148 1.415 . S
H1150 C1147 0.999 . S
H1151 C1132 0.913 . S
H1152 C1170 0.951 . S
H1153 C1172 0.951 . S
H1154 C1174 0.950 . S
H1155 C1175 0.950 . S
H1156 C1177 0.950 . S
H1157 C1180 0.950 . S
H1158 C1181 0.950 . S
H1159 C1183 0.950 . S
H1160 C1184 0.950 . S
H1161 C1185 0.951 . S
H1162 C1187 0.951 . S
H1163 C1189 0.950 . S
H1164 C1190 0.950 . S
H1165 C1192 0.950 . S
H1166 C1195 0.950 . S
H1167 C1196 0.950 . S
H1168 C1198 0.950 1_655 S
H1169 C1199 0.950 . S
C1170 H1152 0.951 . S
C1170 C1171 1.366 . S
C1170 C1172 1.388 . S
C1171 C1170 1.366 . S
C1171 C1175 1.385 . S
C1172 H1153 0.951 . S
C1172 C1170 1.388 . S
C1172 C1173 1.366 . S
C1173 C1172 1.366 . S
C1173 C1174 1.414 . S
C1173 C1176 1.499 . S
C1174 H1154 0.950 . S
C1174 C1173 1.414 . S
C1174 C1175 1.374 . S
C1175 H1155 0.950 . S
C1175 C1171 1.385 . S
C1175 C1174 1.374 . S
C1176 C1173 1.499 . S
C1176 C1177 1.373 . S
C1176 C1178 1.389 . S
C1177 H1156 0.950 . S
C1177 C1176 1.373 . S
C1177 C1193 1.377 . S
C1178 C1176 1.389 . S
C1178 C1179 1.524 . S
C1178 C1192 1.377 . S
C1179 C1178 1.524 . S
C1179 C1180 1.397 . S
C1179 C1184 1.363 . S
C1180 H1157 0.950 . S
C1180 C1179 1.397 . S
C1180 C1181 1.334 . S
C1181 H1158 0.950 . S
C1181 C1180 1.334 . S
C1181 C1182 1.287 . S
C1182 C1181 1.287 . S
C1182 C1183 1.524 . S
C1182 H1201 0.913 . S
C1183 H1159 0.950 . S
C1183 C1182 1.524 . S
C1183 C1184 1.415 . S
C1184 H1160 0.950 . S
C1184 C1179 1.363 . S
C1184 C1183 1.415 . S
C1185 H1161 0.951 . S
C1185 C1186 1.366 . S
C1185 C1187 1.388 . S
C1186 C1185 1.366 . S
C1186 C1190 1.385 . S
C1187 H1162 0.951 . S
C1187 C1185 1.388 . S
C1187 C1188 1.366 . S
C1188 C1187 1.366 . S
C1188 C1189 1.414 . S
C1188 C1191 1.499 . S
C1189 H1163 0.950 . S
C1189 C1188 1.414 . S
C1189 C1190 1.374 . S
C1190 H1164 0.950 . S
C1190 C1186 1.385 . S
C1190 C1189 1.374 . S
C1191 C1188 1.499 . S
C1191 C1192 1.373 . S
C1191 C1193 1.389 . S
C1192 H1165 0.950 . S
C1192 C1178 1.377 . S
C1192 C1191 1.373 . S
C1193 C1177 1.377 . S
C1193 C1191 1.389 . S
C1193 C1194 1.524 . S
C1194 C1193 1.524 . S
C1194 C1195 1.397 . S
C1194 C1199 1.363 . S
C1195 H1166 0.950 . S
C1195 C1194 1.397 . S
C1195 C1196 1.334 . S
C1196 H1167 0.950 . S
C1196 C1195 1.334 . S
C1196 C1197 1.287 . S
C1197 C1196 1.287 . S
C1197 C1198 1.524 . S
C1197 H1200 0.999 . S
C1198 H1168 0.950 1_455 S
C1198 C1197 1.524 . S
C1198 C1199 1.415 . S
C1199 H1169 0.950 . S
C1199 C1194 1.363 . S
C1199 C1198 1.415 . S
H1200 C1197 0.999 . S
H1201 C1182 0.913 . S
H1202 C1220 0.951 . S
H1203 C1222 0.951 . S
H1204 C1224 0.950 . S
H1205 C1225 0.950 . S
H1206 C1227 0.950 . S
H1207 C1230 0.950 . S
H1208 C1231 0.950 . S
H1209 C1233 0.950 . S
H1210 C1234 0.950 . S
H1211 C1235 0.951 . S
H1212 C1237 0.951 . S
H1213 C1239 0.950 . S
H1214 C1240 0.950 . S
H1215 C1242 0.950 . S
H1216 C1245 0.950 . S
H1217 C1246 0.950 . S
H1218 C1248 0.950 . S
H1219 C1249 0.950 . S
C1220 H1202 0.951 . S
C1220 C1221 1.366 . S
C1220 C1222 1.388 . S
C1221 C1220 1.366 . S
C1221 C1225 1.385 . S
C1222 H1203 0.951 . S
C1222 C1220 1.388 . S
C1222 C1223 1.366 . S
C1223 C1222 1.366 . S
C1223 C1224 1.414 . S
C1223 C1226 1.499 . S
C1224 H1204 0.950 . S
C1224 C1223 1.414 . S
C1224 C1225 1.374 . S
C1225 H1205 0.950 . S
C1225 C1221 1.385 . S
C1225 C1224 1.374 . S
C1226 C1223 1.499 . S
C1226 C1227 1.373 . S
C1226 C1228 1.389 . S
C1227 H1206 0.950 . S
C1227 C1226 1.373 . S
C1227 C1243 1.377 . S
C1228 C1226 1.389 . S
C1228 C1229 1.524 . S
C1228 C1242 1.377 . S
C1229 C1228 1.524 . S
C1229 C1230 1.397 . S
C1229 C1234 1.363 . S
C1230 H1207 0.950 . S
C1230 C1229 1.397 . S
C1230 C1231 1.334 . S
C1231 H1208 0.950 . S
C1231 C1230 1.334 . S
C1231 C1232 1.287 . S
C1232 C1231 1.287 . S
C1232 C1233 1.524 . S
C1232 H1251 0.913 . S
C1233 H1209 0.950 . S
C1233 C1232 1.524 . S
C1233 C1234 1.415 . S
C1234 H1210 0.950 . S
C1234 C1229 1.363 . S
C1234 C1233 1.415 . S
C1235 H1211 0.951 . S
C1235 C1236 1.366 . S
C1235 C1237 1.388 . S
C1236 C1235 1.366 . S
C1236 C1240 1.385 . S
C1237 H1212 0.951 . S
C1237 C1235 1.388 . S
C1237 C1238 1.366 . S
C1238 C1237 1.366 . S
C1238 C1239 1.414 . S
C1238 C1241 1.499 . S
C1239 H1213 0.950 . S
C1239 C1238 1.414 . S
C1239 C1240 1.374 . S
C1240 H1214 0.950 . S
C1240 C1236 1.385 . S
C1240 C1239 1.374 . S
C1241 C1238 1.499 . S
C1241 C1242 1.373 . S
C1241 C1243 1.389 . S
C1242 H1215 0.950 . S
C1242 C1228 1.377 . S
C1242 C1241 1.373 . S
C1243 C1227 1.377 . S
C1243 C1241 1.389 . S
C1243 C1244 1.524 . S
C1244 C1243 1.524 . S
C1244 C1245 1.397 . S
C1244 C1249 1.363 . S
C1245 H1216 0.950 . S
C1245 C1244 1.397 . S
C1245 C1246 1.334 . S
C1246 H1217 0.950 . S
C1246 C1245 1.334 . S
C1246 C1247 1.287 . S
C1247 C1246 1.287 . S
C1247 C1248 1.524 . S
C1247 H1250 0.999 . S
C1248 H1218 0.950 . S
C1248 C1247 1.524 . S
C1248 C1249 1.415 . S
C1249 H1219 0.950 . S
C1249 C1244 1.363 . S
C1249 C1248 1.415 . S
H1250 C1247 0.999 . S
H1251 C1232 0.913 . S
H1252 C1270 0.951 . S
H1253 C1272 0.951 . S
H1254 C1274 0.950 . S
H1255 C1275 0.950 . S
H1256 C1277 0.950 . S
H1257 C1280 0.950 . S
H1258 C1281 0.950 . S
H1259 C1283 0.950 . S
H1260 C1284 0.950 . S
H1261 C1285 0.951 . S
H1262 C1287 0.951 . S
H1263 C1289 0.950 . S
H1264 C1290 0.950 . S
H1265 C1292 0.950 . S
H1266 C1295 0.950 . S
H1267 C1296 0.950 . S
H1268 C1298 0.950 . S
H1269 C1299 0.950 . S
C1270 H1252 0.951 . S
C1270 C1271 1.366 . S
C1270 C1272 1.388 . S
C1271 C1270 1.366 . S
C1271 C1275 1.385 . S
C1272 H1253 0.951 . S
C1272 C1270 1.388 . S
C1272 C1273 1.366 . S
C1273 C1272 1.366 . S
C1273 C1274 1.414 . S
C1273 C1276 1.499 . S
C1274 H1254 0.950 . S
C1274 C1273 1.414 . S
C1274 C1275 1.374 . S
C1275 H1255 0.950 . S
C1275 C1271 1.385 . S
C1275 C1274 1.374 . S
C1276 C1273 1.499 . S
C1276 C1277 1.373 . S
C1276 C1278 1.389 . S
C1277 H1256 0.950 . S
C1277 C1276 1.373 . S
C1277 C1293 1.377 . S
C1278 C1276 1.389 . S
C1278 C1279 1.524 . S
C1278 C1292 1.377 . S
C1279 C1278 1.524 . S
C1279 C1280 1.397 . S
C1279 C1284 1.363 . S
C1280 H1257 0.950 . S
C1280 C1279 1.397 . S
C1280 C1281 1.334 . S
C1281 H1258 0.950 . S
C1281 C1280 1.334 . S
C1281 C1282 1.287 . S
C1282 C1281 1.287 . S
C1282 C1283 1.524 . S
C1282 H1301 0.913 . S
C1283 H1259 0.950 . S
C1283 C1282 1.524 . S
C1283 C1284 1.415 . S
C1284 H1260 0.950 . S
C1284 C1279 1.363 . S
C1284 C1283 1.415 . S
C1285 H1261 0.951 . S
C1285 C1286 1.366 . S
C1285 C1287 1.388 . S
C1286 C1285 1.366 . S
C1286 C1290 1.385 . S
C1287 H1262 0.951 . S
C1287 C1285 1.388 . S
C1287 C1288 1.366 . S
C1288 C1287 1.366 . S
C1288 C1289 1.414 . S
C1288 C1291 1.499 . S
C1289 H1263 0.950 . S
C1289 C1288 1.414 . S
C1289 C1290 1.374 . S
C1290 H1264 0.950 . S
C1290 C1286 1.385 . S
C1290 C1289 1.374 . S
C1291 C1288 1.499 . S
C1291 C1292 1.373 . S
C1291 C1293 1.389 . S
C1292 H1265 0.950 . S
C1292 C1278 1.377 . S
C1292 C1291 1.373 . S
C1293 C1277 1.377 . S
C1293 C1291 1.389 . S
C1293 C1294 1.524 . S
C1294 C1293 1.524 . S
C1294 C1295 1.397 . S
C1294 C1299 1.363 . S
C1295 H1266 0.950 . S
C1295 C1294 1.397 . S
C1295 C1296 1.334 . S
C1296 H1267 0.950 . S
C1296 C1295 1.334 . S
C1296 C1297 1.287 . S
C1297 C1296 1.287 . S
C1297 C1298 1.524 . S
C1297 H1300 0.999 . S
C1298 H1268 0.950 . S
C1298 C1297 1.524 . S
C1298 C1299 1.415 . S
C1299 H1269 0.950 . S
C1299 C1294 1.363 . S
C1299 C1298 1.415 . S
H1300 C1297 0.999 . S
H1301 C1282 0.913 . S
H1302 C1320 0.951 . S
H1303 C1322 0.951 . S
H1304 C1324 0.950 . S
H1305 C1325 0.950 . S
H1306 C1327 0.950 . S
H1307 C1330 0.950 . S
H1308 C1331 0.950 . S
H1309 C1333 0.950 . S
H1310 C1334 0.950 . S
H1311 C1335 0.951 . S
H1312 C1337 0.951 . S
H1313 C1339 0.950 . S
H1314 C1340 0.950 . S
H1315 C1342 0.950 . S
H1316 C1345 0.950 . S
H1317 C1346 0.950 . S
H1318 C1348 0.950 . S
H1319 C1349 0.950 . S
C1320 H1302 0.951 . S
C1320 C1321 1.366 . S
C1320 C1322 1.388 . S
C1321 C1320 1.366 . S
C1321 C1325 1.385 . S
C1322 H1303 0.951 . S
C1322 C1320 1.388 . S
C1322 C1323 1.366 . S
C1323 C1322 1.366 . S
C1323 C1324 1.414 . S
C1323 C1326 1.499 . S
C1324 H1304 0.950 . S
C1324 C1323 1.414 . S
C1324 C1325 1.374 . S
C1325 H1305 0.950 . S
C1325 C1321 1.385 . S
C1325 C1324 1.374 . S
C1326 C1323 1.499 . S
C1326 C1327 1.373 . S
C1326 C1328 1.389 . S
C1327 H1306 0.950 . S
C1327 C1326 1.373 . S
C1327 C1343 1.377 . S
C1328 C1326 1.389 . S
C1328 C1329 1.524 . S
C1328 C1342 1.377 . S
C1329 C1328 1.524 . S
C1329 C1330 1.397 . S
C1329 C1334 1.363 . S
C1330 H1307 0.950 . S
C1330 C1329 1.397 . S
C1330 C1331 1.334 . S
C1331 H1308 0.950 . S
C1331 C1330 1.334 . S
C1331 C1332 1.287 . S
C1332 C1331 1.287 . S
C1332 C1333 1.524 . S
C1332 H1351 0.913 . S
C1333 H1309 0.950 . S
C1333 C1332 1.524 . S
C1333 C1334 1.415 . S
C1334 H1310 0.950 . S
C1334 C1329 1.363 . S
C1334 C1333 1.415 . S
C1335 H1311 0.951 . S
C1335 C1336 1.366 . S
C1335 C1337 1.388 . S
C1336 C1335 1.366 . S
C1336 C1340 1.385 . S
C1337 H1312 0.951 . S
C1337 C1335 1.388 . S
C1337 C1338 1.366 . S
C1338 C1337 1.366 . S
C1338 C1339 1.414 . S
C1338 C1341 1.499 . S
C1339 H1313 0.950 . S
C1339 C1338 1.414 . S
C1339 C1340 1.374 . S
C1340 H1314 0.950 . S
C1340 C1336 1.385 . S
C1340 C1339 1.374 . S
C1341 C1338 1.499 . S
C1341 C1342 1.373 . S
C1341 C1343 1.389 . S
C1342 H1315 0.950 . S
C1342 C1328 1.377 . S
C1342 C1341 1.373 . S
C1343 C1327 1.377 . S
C1343 C1341 1.389 . S
C1343 C1344 1.524 . S
C1344 C1343 1.524 . S
C1344 C1345 1.397 . S
C1344 C1349 1.363 . S
C1345 H1316 0.950 . S
C1345 C1344 1.397 . S
C1345 C1346 1.334 . S
C1346 H1317 0.950 . S
C1346 C1345 1.334 . S
C1346 C1347 1.287 . S
C1347 C1346 1.287 . S
C1347 C1348 1.524 . S
C1347 H1350 0.999 . S
C1348 H1318 0.950 . S
C1348 C1347 1.524 . S
C1348 C1349 1.415 . S
C1349 H1319 0.950 . S
C1349 C1344 1.363 . S
C1349 C1348 1.415 . S
H1350 C1347 0.999 . S
H1351 C1332 0.913 . S
H1352 C1370 0.951 . S
H1353 C1372 0.951 . S
H1354 C1374 0.950 . S
H1355 C1375 0.950 . S
H1356 C1377 0.950 . S
H1357 C1380 0.950 . S
H1358 C1381 0.950 . S
H1359 C1383 0.950 . S
H1360 C1384 0.950 . S
H1361 C1385 0.951 . S
H1362 C1387 0.951 . S
H1363 C1389 0.950 . S
H1364 C1390 0.950 . S
H1365 C1392 0.956 . S
H1366 C1395 0.908 1_655 S
H1367 C1396 0.950 . S
H1368 C1398 0.950 . S
H1369 C1399 0.950 . S
C1370 H1352 0.951 . S
C1370 C1371 1.366 . S
C1370 C1372 1.388 . S
C1371 C1370 1.366 . S
C1371 C1375 1.385 . S
C1372 H1353 0.951 . S
C1372 C1370 1.388 . S
C1372 C1373 1.366 . S
C1373 C1372 1.366 . S
C1373 C1374 1.414 . S
C1373 C1376 1.499 . S
C1374 H1354 0.950 . S
C1374 C1373 1.414 . S
C1374 C1375 1.374 . S
C1375 H1355 0.950 . S
C1375 C1371 1.385 . S
C1375 C1374 1.374 . S
C1376 C1373 1.499 . S
C1376 C1377 1.373 . S
C1376 C1378 1.389 1_545 S
C1377 H1356 0.950 . S
C1377 C1376 1.373 . S
C1377 C1393 1.377 . S
C1378 C1376 1.389 1_565 S
C1378 C1379 1.524 . S
C1378 C1392 1.379 . S
C1379 C1378 1.524 . S
C1379 C1380 1.397 . S
C1379 C1384 1.363 . S
C1380 H1357 0.950 . S
C1380 C1379 1.397 . S
C1380 C1381 1.334 . S
C1381 H1358 0.950 . S
C1381 C1380 1.334 . S
C1381 C1382 1.287 . S
C1382 C1381 1.287 . S
C1382 C1383 1.524 . S
C1382 H1401 0.913 . S
C1383 H1359 0.950 . S
C1383 C1382 1.524 . S
C1383 C1384 1.415 . S
C1384 H1360 0.950 . S
C1384 C1379 1.363 . S
C1384 C1383 1.415 . S
C1385 H1361 0.951 . S
C1385 C1386 1.366 . S
C1385 C1387 1.388 . S
C1386 C1385 1.366 . S
C1386 C1390 1.385 1_455 S
C1387 H1362 0.951 . S
C1387 C1385 1.388 . S
C1387 C1388 1.366 1_455 S
C1388 C1387 1.366 1_655 S
C1388 C1389 1.414 . S
C1388 C1391 1.499 . S
C1389 H1363 0.950 . S
C1389 C1388 1.414 . S
C1389 C1390 1.374 . S
C1390 H1364 0.950 . S
C1390 C1386 1.385 1_655 S
C1390 C1389 1.374 . S
C1391 C1388 1.499 . S
C1391 C1392 1.365 1_545 S
C1391 C1393 1.389 . S
C1392 H1365 0.956 . S
C1392 C1378 1.379 . S
C1392 C1391 1.365 1_565 S
C1393 C1377 1.377 . S
C1393 C1391 1.389 . S
C1393 C1394 1.524 1_655 S
C1394 C1393 1.524 1_455 S
C1394 C1395 1.397 . S
C1394 C1399 1.363 . S
C1395 H1366 0.908 1_455 S
C1395 C1394 1.397 . S
C1395 C1396 1.334 . S
C1396 H1367 0.950 . S
C1396 C1395 1.334 . S
C1396 C1397 1.287 . S
C1397 C1396 1.287 . S
C1397 C1398 1.524 . S
C1397 H1400 0.999 . S
C1398 H1368 0.950 . S
C1398 C1397 1.524 . S
C1398 C1399 1.415 . S
C1399 H1369 0.950 . S
C1399 C1394 1.363 . S
C1399 C1398 1.415 . S
H1400 C1397 0.999 . S
H1401 C1382 0.913 . S
H1402 C1420 0.951 . S
H1403 C1422 0.951 . S
H1404 C1424 0.950 . S
H1405 C1425 0.950 . S
H1406 C1427 0.950 . S
H1407 C1430 0.950 . S
H1408 C1431 0.950 . S
H1409 C1433 0.950 . S
H1410 C1434 0.950 . S
H1411 C1435 0.951 . S
H1412 C1437 0.951 . S
H1413 C1439 0.950 . S
H1414 C1440 0.950 . S
H1415 C1442 0.950 . S
H1416 C1445 0.950 . S
H1417 C1446 0.950 . S
H1418 C1448 0.950 . S
H1419 C1449 0.950 . S
C1420 H1402 0.951 . S
C1420 C1421 1.366 . S
C1420 C1422 1.388 . S
C1421 C1420 1.366 . S
C1421 C1425 1.385 . S
C1422 H1403 0.951 . S
C1422 C1420 1.388 . S
C1422 C1423 1.366 . S
C1423 C1422 1.366 . S
C1423 C1424 1.414 . S
C1423 C1426 1.499 . S
C1424 H1404 0.950 . S
C1424 C1423 1.414 . S
C1424 C1425 1.374 . S
C1425 H1405 0.950 . S
C1425 C1421 1.385 . S
C1425 C1424 1.374 . S
C1426 C1423 1.499 . S
C1426 C1427 1.373 . S
C1426 C1428 1.389 . S
C1427 H1406 0.950 . S
C1427 C1426 1.373 . S
C1427 C1443 1.377 . S
C1428 C1426 1.389 . S
C1428 C1429 1.524 . S
C1428 C1442 1.377 . S
C1429 C1428 1.524 . S
C1429 C1430 1.397 . S
C1429 C1434 1.363 . S
C1430 H1407 0.950 . S
C1430 C1429 1.397 . S
C1430 C1431 1.334 . S
C1431 H1408 0.950 . S
C1431 C1430 1.334 . S
C1431 C1432 1.287 . S
C1432 C1431 1.287 . S
C1432 C1433 1.524 . S
C1432 H1451 0.913 . S
C1433 H1409 0.950 . S
C1433 C1432 1.524 . S
C1433 C1434 1.415 . S
C1434 H1410 0.950 . S
C1434 C1429 1.363 . S
C1434 C1433 1.415 . S
C1435 H1411 0.951 . S
C1435 C1436 1.366 . S
C1435 C1437 1.388 . S
C1436 C1435 1.366 . S
C1436 C1440 1.385 . S
C1437 H1412 0.951 . S
C1437 C1435 1.388 . S
C1437 C1438 1.366 . S
C1438 C1437 1.366 . S
C1438 C1439 1.414 . S
C1438 C1441 1.499 . S
C1439 H1413 0.950 . S
C1439 C1438 1.414 . S
C1439 C1440 1.374 . S
C1440 H1414 0.950 . S
C1440 C1436 1.385 . S
C1440 C1439 1.374 . S
C1441 C1438 1.499 . S
C1441 C1442 1.373 . S
C1441 C1443 1.389 . S
C1442 H1415 0.950 . S
C1442 C1428 1.377 . S
C1442 C1441 1.373 . S
C1443 C1427 1.377 . S
C1443 C1441 1.389 . S
C1443 C1444 1.524 . S
C1444 C1443 1.524 . S
C1444 C1445 1.397 . S
C1444 C1449 1.363 . S
C1445 H1416 0.950 . S
C1445 C1444 1.397 . S
C1445 C1446 1.334 . S
C1446 H1417 0.950 . S
C1446 C1445 1.334 . S
C1446 C1447 1.287 . S
C1447 C1446 1.287 . S
C1447 C1448 1.524 . S
C1447 H1450 0.999 . S
C1448 H1418 0.950 . S
C1448 C1447 1.524 . S
C1448 C1449 1.415 . S
C1449 H1419 0.950 . S
C1449 C1444 1.363 . S
C1449 C1448 1.415 . S
H1450 C1447 0.999 . S
H1451 C1432 0.913 . S
H1452 C1470 0.951 . S
H1453 C1472 0.951 . S
H1454 C1474 0.950 . S
H1455 C1475 0.950 . S
H1456 C1477 0.950 . S
H1457 C1480 0.950 . S
H1458 C1481 0.950 . S
H1459 C1483 0.950 . S
H1460 C1484 0.950 . S
H1461 C1485 0.951 . S
H1462 C1487 0.951 . S
H1463 C1489 0.950 . S
H1464 C1490 0.950 . S
H1465 C1492 0.950 1_565 S
H1466 C1495 0.950 . S
H1467 C1496 0.950 . S
H1468 C1498 0.950 . S
H1469 C1499 0.950 . S
C1470 H1452 0.951 . S
C1470 C1471 1.366 . S
C1470 C1472 1.388 . S
C1471 C1470 1.366 . S
C1471 C1475 1.385 . S
C1472 H1453 0.951 . S
C1472 C1470 1.388 . S
C1472 C1473 1.366 . S
C1473 C1472 1.366 . S
C1473 C1474 1.414 . S
C1473 C1476 1.499 . S
C1474 H1454 0.950 . S
C1474 C1473 1.414 . S
C1474 C1475 1.374 . S
C1475 H1455 0.950 . S
C1475 C1471 1.385 . S
C1475 C1474 1.374 . S
C1476 C1473 1.499 . S
C1476 C1477 1.373 . S
C1476 C1478 1.389 1_545 S
C1477 H1456 0.950 . S
C1477 C1476 1.373 . S
C1477 C1493 1.377 . S
C1478 C1476 1.389 1_565 S
C1478 C1479 1.525 . S
C1478 C1492 1.376 1_565 S
C1479 C1478 1.525 . S
C1479 C1480 1.397 . S
C1479 C1484 1.363 . S
C1480 H1457 0.950 . S
C1480 C1479 1.397 . S
C1480 C1481 1.334 . S
C1481 H1458 0.950 . S
C1481 C1480 1.334 . S
C1481 C1482 1.287 . S
C1482 C1481 1.287 . S
C1482 C1483 1.524 . S
C1482 H1501 0.913 . S
C1483 H1459 0.950 . S
C1483 C1482 1.524 . S
C1483 C1484 1.415 . S
C1484 H1460 0.950 . S
C1484 C1479 1.363 . S
C1484 C1483 1.415 . S
C1485 H1461 0.951 . S
C1485 C1486 1.366 . S
C1485 C1487 1.388 . S
C1486 C1485 1.366 . S
C1486 C1490 1.385 . S
C1487 H1462 0.951 . S
C1487 C1485 1.388 . S
C1487 C1488 1.366 . S
C1488 C1487 1.366 . S
C1488 C1489 1.414 . S
C1488 C1491 1.499 . S
C1489 H1463 0.950 . S
C1489 C1488 1.414 . S
C1489 C1490 1.374 . S
C1490 H1464 0.950 . S
C1490 C1486 1.385 . S
C1490 C1489 1.374 . S
C1491 C1488 1.499 . S
C1491 C1492 1.373 . S
C1491 C1493 1.389 . S
C1492 H1465 0.950 1_545 S
C1492 C1478 1.376 1_545 S
C1492 C1491 1.373 . S
C1493 C1477 1.377 . S
C1493 C1491 1.389 . S
C1493 C1494 1.524 . S
C1494 C1493 1.524 . S
C1494 C1495 1.397 . S
C1494 C1499 1.363 . S
C1495 H1466 0.950 . S
C1495 C1494 1.397 . S
C1495 C1496 1.334 . S
C1496 H1467 0.950 . S
C1496 C1495 1.334 . S
C1496 C1497 1.287 . S
C1497 C1496 1.287 . S
C1497 C1498 1.524 . S
C1497 H1500 0.999 . S
C1498 H1468 0.950 . S
C1498 C1497 1.524 . S
C1498 C1499 1.415 . S
C1499 H1469 0.950 . S
C1499 C1494 1.363 . S
C1499 C1498 1.415 . S
H1500 C1497 0.999 . S
H1501 C1482 0.913 . S
H1502 C1520 0.951 . S
H1503 C1522 0.951 . S
H1504 C1524 0.950 . S
H1505 C1525 0.950 . S
H1506 C1527 0.950 . S
H1507 C1530 0.950 . S
H1508 C1531 0.950 . S
H1509 C1533 0.950 . S
H1510 C1534 0.950 . S
H1511 C1535 0.951 . S
H1512 C1537 0.951 . S
H1513 C1539 0.950 . S
H1514 C1540 0.950 . S
H1515 C1542 0.950 . S
H1516 C1545 0.950 . S
H1517 C1546 0.950 . S
H1518 C1548 0.950 . S
H1519 C1549 0.950 . S
C1520 H1502 0.951 . S
C1520 C1521 1.366 . S
C1520 C1522 1.388 . S
C1521 C1520 1.366 . S
C1521 C1525 1.385 . S
C1522 H1503 0.951 . S
C1522 C1520 1.388 . S
C1522 C1523 1.366 . S
C1523 C1522 1.366 . S
C1523 C1524 1.414 . S
C1523 C1526 1.499 . S
C1524 H1504 0.950 . S
C1524 C1523 1.414 . S
C1524 C1525 1.374 . S
C1525 H1505 0.950 . S
C1525 C1521 1.385 . S
C1525 C1524 1.374 . S
C1526 C1523 1.499 . S
C1526 C1527 1.373 . S
C1526 C1528 1.389 . S
C1527 H1506 0.950 . S
C1527 C1526 1.373 . S
C1527 C1543 1.377 . S
C1528 C1526 1.389 . S
C1528 C1529 1.524 . S
C1528 C1542 1.377 . S
C1529 C1528 1.524 . S
C1529 C1530 1.397 . S
C1529 C1534 1.363 . S
C1530 H1507 0.950 . S
C1530 C1529 1.397 . S
C1530 C1531 1.334 . S
C1531 H1508 0.950 . S
C1531 C1530 1.334 . S
C1531 C1532 1.287 . S
C1532 C1531 1.287 . S
C1532 C1533 1.524 . S
C1532 H1551 0.913 . S
C1533 H1509 0.950 . S
C1533 C1532 1.524 . S
C1533 C1534 1.415 . S
C1534 H1510 0.950 . S
C1534 C1529 1.363 . S
C1534 C1533 1.415 . S
C1535 H1511 0.951 . S
C1535 C1536 1.366 . S
C1535 C1537 1.388 . S
C1536 C1535 1.366 . S
C1536 C1540 1.385 . S
C1537 H1512 0.951 . S
C1537 C1535 1.388 . S
C1537 C1538 1.366 . S
C1538 C1537 1.366 . S
C1538 C1539 1.414 . S
C1538 C1541 1.499 . S
C1539 H1513 0.950 . S
C1539 C1538 1.414 . S
C1539 C1540 1.374 . S
C1540 H1514 0.950 . S
C1540 C1536 1.385 . S
C1540 C1539 1.374 . S
C1541 C1538 1.499 . S
C1541 C1542 1.373 . S
C1541 C1543 1.389 . S
C1542 H1515 0.950 . S
C1542 C1528 1.377 . S
C1542 C1541 1.373 . S
C1543 C1527 1.377 . S
C1543 C1541 1.389 . S
C1543 C1544 1.524 . S
C1544 C1543 1.524 . S
C1544 C1545 1.397 . S
C1544 C1549 1.363 . S
C1545 H1516 0.950 . S
C1545 C1544 1.397 . S
C1545 C1546 1.334 . S
C1546 H1517 0.950 . S
C1546 C1545 1.334 . S
C1546 C1547 1.287 . S
C1547 C1546 1.287 . S
C1547 C1548 1.524 . S
C1547 H1550 0.999 . S
C1548 H1518 0.950 . S
C1548 C1547 1.524 . S
C1548 C1549 1.415 . S
C1549 H1519 0.950 . S
C1549 C1544 1.363 . S
C1549 C1548 1.415 . S
H1550 C1547 0.999 . S
H1551 C1532 0.913 . S
H1552 C1570 0.951 . S
H1553 C1572 0.951 . S
H1554 C1574 0.968 . S
H1555 C1575 0.969 . S
H1556 C1577 0.950 . S
H1557 C1580 0.950 1_665 S
H1558 C1581 0.935 1_565 S
H1559 C1583 0.950 . S
H1560 C1584 0.950 . S
H1561 C1585 0.951 1_565 S
H1562 C1587 0.951 1_565 S
H1563 C1589 0.950 . S
H1564 C1590 0.950 . S
H1565 C1592 0.950 . S
H1566 C1595 0.950 . S
H1567 C1596 0.950 . S
H1568 C1598 0.957 . S
H1569 C1599 0.965 . S
C1570 H1552 0.951 . S
C1570 C1571 1.366 . S
C1570 C1572 1.388 . S
C1571 C1570 1.366 . S
C1571 C1575 1.360 1_545 S
C1572 H1553 0.951 . S
C1572 C1570 1.388 . S
C1572 C1573 1.366 . S
C1573 C1572 1.366 . S
C1573 C1574 1.401 1_545 S
C1573 C1576 1.499 . S
C1574 H1554 0.968 . S
C1574 C1573 1.401 1_565 S
C1574 C1575 1.376 . S
C1575 H1555 0.969 . S
C1575 C1571 1.360 1_565 S
C1575 C1574 1.376 . S
C1576 C1573 1.499 . S
C1576 C1577 1.373 . S
C1576 C1578 1.389 . S
C1577 H1556 0.950 . S
C1577 C1576 1.373 . S
C1577 C1593 1.377 . S
C1578 C1576 1.389 . S
C1578 C1579 1.524 1_655 S
C1578 C1592 1.377 1_655 S
C1579 C1578 1.524 1_455 S
C1579 C1580 1.397 . S
C1579 C1584 1.363 . S
C1580 H1557 0.950 1_445 S
C1580 C1579 1.397 . S
C1580 C1581 1.337 . S
C1581 H1558 0.935 1_545 S
C1581 C1580 1.337 . S
C1581 C1582 1.300 . S
C1582 C1581 1.300 . S
C1582 C1583 1.524 . S
C1582 H1601 0.913 . S
C1583 H1559 0.950 . S
C1583 C1582 1.524 . S
C1583 C1584 1.415 . S
C1584 H1560 0.950 . S
C1584 C1579 1.363 . S
C1584 C1583 1.415 . S
C1585 H1561 0.951 1_545 S
C1585 C1586 1.366 1_655 S
C1585 C1587 1.388 . S
C1586 C1585 1.366 1_455 S
C1586 C1590 1.385 . S
C1587 H1562 0.951 1_545 S
C1587 C1585 1.388 . S
C1587 C1588 1.366 . S
C1588 C1587 1.366 . S
C1588 C1589 1.414 1_655 S
C1588 C1591 1.499 . S
C1589 H1563 0.950 . S
C1589 C1588 1.414 1_455 S
C1589 C1590 1.374 . S
C1590 H1564 0.950 . S
C1590 C1586 1.385 . S
C1590 C1589 1.374 . S
C1591 C1588 1.499 . S
C1591 C1592 1.373 1_655 S
C1591 C1593 1.389 . S
C1592 H1565 0.950 . S
C1592 C1578 1.377 1_455 S
C1592 C1591 1.373 1_455 S
C1593 C1577 1.377 . S
C1593 C1591 1.389 . S
C1593 C1594 1.524 . S
C1594 C1593 1.524 . S
C1594 C1595 1.397 . S
C1594 C1599 1.350 1_545 S
C1595 H1566 0.950 . S
C1595 C1594 1.397 . S
C1595 C1596 1.334 . S
C1596 H1567 0.950 . S
C1596 C1595 1.334 . S
C1596 C1597 1.287 . S
C1597 C1596 1.287 . S
C1597 C1598 1.515 1_545 S
C1597 H1600 0.999 . S
C1598 H1568 0.957 . S
C1598 C1597 1.515 1_565 S
C1598 C1599 1.414 . S
C1599 H1569 0.965 . S
C1599 C1594 1.350 1_565 S
C1599 C1598 1.414 . S
H1600 C1597 0.999 . S
H1601 C1582 0.913 . S
H1602 C1620 0.951 . S
H1603 C1622 0.951 . S
H1604 C1624 0.950 . S
H1605 C1625 0.950 . S
H1606 C1627 0.950 . S
H1607 C1630 0.950 . S
H1608 C1631 0.950 . S
H1609 C1633 0.950 . S
H1610 C1634 0.950 . S
H1611 C1635 0.951 . S
H1612 C1637 0.951 . S
H1613 C1639 0.950 . S
H1614 C1640 0.950 . S
H1615 C1642 0.950 . S
H1616 C1645 0.950 . S
H1617 C1646 0.950 . S
H1618 C1648 0.950 . S
H1619 C1649 0.950 . S
C1620 H1602 0.951 . S
C1620 C1621 1.366 . S
C1620 C1622 1.388 . S
C1621 C1620 1.366 . S
C1621 C1625 1.385 . S
C1622 H1603 0.951 . S
C1622 C1620 1.388 . S
C1622 C1623 1.366 . S
C1623 C1622 1.366 . S
C1623 C1624 1.414 . S
C1623 C1626 1.499 . S
C1624 H1604 0.950 . S
C1624 C1623 1.414 . S
C1624 C1625 1.374 . S
C1625 H1605 0.950 . S
C1625 C1621 1.385 . S
C1625 C1624 1.374 . S
C1626 C1623 1.499 . S
C1626 C1627 1.373 . S
C1626 C1628 1.389 . S
C1627 H1606 0.950 . S
C1627 C1626 1.373 . S
C1627 C1643 1.377 . S
C1628 C1626 1.389 . S
C1628 C1629 1.524 . S
C1628 C1642 1.377 . S
C1629 C1628 1.524 . S
C1629 C1630 1.397 . S
C1629 C1634 1.363 . S
C1630 H1607 0.950 . S
C1630 C1629 1.397 . S
C1630 C1631 1.334 . S
C1631 H1608 0.950 . S
C1631 C1630 1.334 . S
C1631 C1632 1.287 . S
C1632 C1631 1.287 . S
C1632 C1633 1.524 . S
C1632 H1651 0.913 . S
C1633 H1609 0.950 . S
C1633 C1632 1.524 . S
C1633 C1634 1.415 . S
C1634 H1610 0.950 . S
C1634 C1629 1.363 . S
C1634 C1633 1.415 . S
C1635 H1611 0.951 . S
C1635 C1636 1.366 . S
C1635 C1637 1.388 . S
C1636 C1635 1.366 . S
C1636 C1640 1.385 . S
C1637 H1612 0.951 . S
C1637 C1635 1.388 . S
C1637 C1638 1.366 . S
C1638 C1637 1.366 . S
C1638 C1639 1.414 . S
C1638 C1641 1.499 . S
C1639 H1613 0.950 . S
C1639 C1638 1.414 . S
C1639 C1640 1.374 . S
C1640 H1614 0.950 . S
C1640 C1636 1.385 . S
C1640 C1639 1.374 . S
C1641 C1638 1.499 . S
C1641 C1642 1.373 . S
C1641 C1643 1.389 . S
C1642 H1615 0.950 . S
C1642 C1628 1.377 . S
C1642 C1641 1.373 . S
C1643 C1627 1.377 . S
C1643 C1641 1.389 . S
C1643 C1644 1.524 . S
C1644 C1643 1.524 . S
C1644 C1645 1.397 . S
C1644 C1649 1.363 . S
C1645 H1616 0.950 . S
C1645 C1644 1.397 . S
C1645 C1646 1.334 . S
C1646 H1617 0.950 . S
C1646 C1645 1.334 . S
C1646 C1647 1.287 . S
C1647 C1646 1.287 . S
C1647 C1648 1.524 . S
C1647 H1650 0.999 . S
C1648 H1618 0.950 . S
C1648 C1647 1.524 . S
C1648 C1649 1.415 . S
C1649 H1619 0.950 . S
C1649 C1644 1.363 . S
C1649 C1648 1.415 . S
H1650 C1647 0.999 . S
H1651 C1632 0.913 . S
H1652 C1670 0.951 1_565 S
H1653 C1672 0.951 . S
H1654 C1674 0.950 . S
H1655 C1675 0.950 . S
H1656 C1677 0.950 . S
H1657 C1680 0.950 . S
H1658 C1681 0.950 . S
H1659 C1683 0.950 . S
H1660 C1684 0.950 . S
H1661 C1685 0.951 . S
H1662 C1687 0.951 . S
H1663 C1689 0.950 . S
H1664 C1690 0.950 . S
H1665 C1692 0.950 . S
H1666 C1695 0.950 . S
H1667 C1696 0.950 . S
H1668 C1698 0.950 . S
H1669 C1699 0.950 . S
C1670 H1652 0.951 1_545 S
C1670 C1671 1.366 . S
C1670 C1672 1.388 . S
C1671 C1670 1.366 . S
C1671 C1675 1.385 . S
C1672 H1653 0.951 . S
C1672 C1670 1.388 . S
C1672 C1673 1.366 . S
C1673 C1672 1.366 . S
C1673 C1674 1.414 . S
C1673 C1676 1.499 . S
C1674 H1654 0.950 . S
C1674 C1673 1.414 . S
C1674 C1675 1.374 . S
C1675 H1655 0.950 . S
C1675 C1671 1.385 . S
C1675 C1674 1.374 . S
C1676 C1673 1.499 . S
C1676 C1677 1.373 . S
C1676 C1678 1.389 . S
C1677 H1656 0.950 . S
C1677 C1676 1.373 . S
C1677 C1693 1.377 . S
C1678 C1676 1.389 . S
C1678 C1679 1.524 . S
C1678 C1692 1.377 . S
C1679 C1678 1.524 . S
C1679 C1680 1.397 . S
C1679 C1684 1.363 . S
C1680 H1657 0.950 . S
C1680 C1679 1.397 . S
C1680 C1681 1.334 . S
C1681 H1658 0.950 . S
C1681 C1680 1.334 . S
C1681 C1682 1.287 . S
C1682 C1681 1.287 . S
C1682 C1683 1.524 . S
C1682 H1701 0.913 . S
C1683 H1659 0.950 . S
C1683 C1682 1.524 . S
C1683 C1684 1.415 . S
C1684 H1660 0.950 . S
C1684 C1679 1.363 . S
C1684 C1683 1.415 . S
C1685 H1661 0.951 . S
C1685 C1686 1.366 . S
C1685 C1687 1.388 . S
C1686 C1685 1.366 . S
C1686 C1690 1.385 . S
C1687 H1662 0.951 . S
C1687 C1685 1.388 . S
C1687 C1688 1.366 . S
C1688 C1687 1.366 . S
C1688 C1689 1.414 . S
C1688 C1691 1.499 . S
C1689 H1663 0.950 . S
C1689 C1688 1.414 . S
C1689 C1690 1.374 . S
C1690 H1664 0.950 . S
C1690 C1686 1.385 . S
C1690 C1689 1.374 . S
C1691 C1688 1.499 . S
C1691 C1692 1.373 . S
C1691 C1693 1.389 . S
C1692 H1665 0.950 . S
C1692 C1678 1.377 . S
C1692 C1691 1.373 . S
C1693 C1677 1.377 . S
C1693 C1691 1.389 . S
C1693 C1694 1.524 . S
C1694 C1693 1.524 . S
C1694 C1695 1.397 1_545 S
C1694 C1699 1.363 . S
C1695 H1666 0.950 . S
C1695 C1694 1.397 1_565 S
C1695 C1696 1.334 . S
C1696 H1667 0.950 . S
C1696 C1695 1.334 . S
C1696 C1697 1.287 . S
C1697 C1696 1.287 . S
C1697 C1698 1.524 1_565 S
C1697 H1700 0.999 . S
C1698 H1668 0.950 . S
C1698 C1697 1.524 1_545 S
C1698 C1699 1.415 . S
C1699 H1669 0.950 . S
C1699 C1694 1.363 . S
C1699 C1698 1.415 . S
H1700 C1697 0.999 . S
H1701 C1682 0.913 . S
H1702 C1720 0.951 . S
H1703 C1722 0.951 . S
H1704 C1724 0.950 . S
H1705 C1725 0.950 . S
H1706 C1727 0.950 . S
H1707 C1730 0.950 . S
H1708 C1731 0.950 . S
H1709 C1733 0.950 . S
H1710 C1734 0.950 . S
H1711 C1735 0.951 . S
H1712 C1737 0.951 . S
H1713 C1739 0.950 . S
H1714 C1740 0.950 . S
H1715 C1742 0.950 . S
H1716 C1745 0.950 . S
H1717 C1746 0.950 . S
H1718 C1748 0.950 . S
H1719 C1749 0.950 . S
C1720 H1702 0.951 . S
C1720 C1721 1.366 . S
C1720 C1722 1.388 . S
C1721 C1720 1.366 . S
C1721 C1725 1.385 . S
C1722 H1703 0.951 . S
C1722 C1720 1.388 . S
C1722 C1723 1.366 . S
C1723 C1722 1.366 . S
C1723 C1724 1.414 . S
C1723 C1726 1.499 . S
C1724 H1704 0.950 . S
C1724 C1723 1.414 . S
C1724 C1725 1.374 . S
C1725 H1705 0.950 . S
C1725 C1721 1.385 . S
C1725 C1724 1.374 . S
C1726 C1723 1.499 . S
C1726 C1727 1.373 . S
C1726 C1728 1.389 . S
C1727 H1706 0.950 . S
C1727 C1726 1.373 . S
C1727 C1743 1.377 . S
C1728 C1726 1.389 . S
C1728 C1729 1.524 . S
C1728 C1742 1.377 . S
C1729 C1728 1.524 . S
C1729 C1730 1.397 . S
C1729 C1734 1.363 . S
C1730 H1707 0.950 . S
C1730 C1729 1.397 . S
C1730 C1731 1.334 . S
C1731 H1708 0.950 . S
C1731 C1730 1.334 . S
C1731 C1732 1.287 . S
C1732 C1731 1.287 . S
C1732 C1733 1.524 . S
C1732 H1751 0.913 . S
C1733 H1709 0.950 . S
C1733 C1732 1.524 . S
C1733 C1734 1.415 . S
C1734 H1710 0.950 . S
C1734 C1729 1.363 . S
C1734 C1733 1.415 . S
C1735 H1711 0.951 . S
C1735 C1736 1.366 . S
C1735 C1737 1.388 . S
C1736 C1735 1.366 . S
C1736 C1740 1.385 . S
C1737 H1712 0.951 . S
C1737 C1735 1.388 . S
C1737 C1738 1.366 . S
C1738 C1737 1.366 . S
C1738 C1739 1.414 . S
C1738 C1741 1.499 . S
C1739 H1713 0.950 . S
C1739 C1738 1.414 . S
C1739 C1740 1.374 . S
C1740 H1714 0.950 . S
C1740 C1736 1.385 . S
C1740 C1739 1.374 . S
C1741 C1738 1.499 . S
C1741 C1742 1.373 . S
C1741 C1743 1.389 . S
C1742 H1715 0.950 . S
C1742 C1728 1.377 . S
C1742 C1741 1.373 . S
C1743 C1727 1.377 . S
C1743 C1741 1.389 . S
C1743 C1744 1.524 . S
C1744 C1743 1.524 . S
C1744 C1745 1.397 . S
C1744 C1749 1.363 . S
C1745 H1716 0.950 . S
C1745 C1744 1.397 . S
C1745 C1746 1.334 . S
C1746 H1717 0.950 . S
C1746 C1745 1.334 . S
C1746 C1747 1.287 . S
C1747 C1746 1.287 . S
C1747 C1748 1.524 . S
C1747 H1750 0.999 . S
C1748 H1718 0.950 . S
C1748 C1747 1.524 . S
C1748 C1749 1.415 . S
C1749 H1719 0.950 . S
C1749 C1744 1.363 . S
C1749 C1748 1.415 . S
H1750 C1747 0.999 . S
H1751 C1732 0.913 . S
H1752 C1770 0.951 . S
H1753 C1772 0.951 . S
H1754 C1774 0.950 . S
H1755 C1775 0.950 . S
H1756 C1777 0.950 . S
H1757 C1780 0.950 . S
H1758 C1781 0.950 . S
H1759 C1783 0.950 . S
H1760 C1784 0.950 . S
H1761 C1785 0.951 . S
H1762 C1787 0.951 . S
H1763 C1789 0.950 . S
H1764 C1790 0.950 . S
H1765 C1792 0.950 . S
H1766 C1795 0.927 1_556 S
H1767 C1796 0.969 . S
H1768 C1798 0.950 . S
H1769 C1799 0.950 . S
C1770 H1752 0.951 . S
C1770 C1771 1.366 . S
C1770 C1772 1.388 . S
C1771 C1770 1.366 . S
C1771 C1775 1.385 1_556 S
C1772 H1753 0.951 . S
C1772 C1770 1.388 . S
C1772 C1773 1.366 1_556 S
C1773 C1772 1.366 1_554 S
C1773 C1774 1.414 . S
C1773 C1776 1.499 . S
C1774 H1754 0.950 . S
C1774 C1773 1.414 . S
C1774 C1775 1.374 . S
C1775 H1755 0.950 . S
C1775 C1771 1.385 1_554 S
C1775 C1774 1.374 . S
C1776 C1773 1.499 . S
C1776 C1777 1.373 . S
C1776 C1778 1.389 . S
C1777 H1756 0.950 . S
C1777 C1776 1.373 . S
C1777 C1793 1.377 . S
C1778 C1776 1.389 . S
C1778 C1779 1.524 . S
C1778 C1792 1.377 . S
C1779 C1778 1.524 . S
C1779 C1780 1.397 . S
C1779 C1784 1.363 . S
C1780 H1757 0.950 . S
C1780 C1779 1.397 . S
C1780 C1781 1.334 . S
C1781 H1758 0.950 . S
C1781 C1780 1.334 . S
C1781 C1782 1.287 . S
C1782 C1781 1.287 . S
C1782 C1783 1.524 . S
C1782 H1801 0.913 . S
C1783 H1759 0.950 . S
C1783 C1782 1.524 . S
C1783 C1784 1.415 . S
C1784 H1760 0.950 . S
C1784 C1779 1.363 . S
C1784 C1783 1.415 . S
C1785 H1761 0.951 . S
C1785 C1786 1.366 . S
C1785 C1787 1.388 . S
C1786 C1785 1.366 . S
C1786 C1790 1.385 . S
C1787 H1762 0.951 . S
C1787 C1785 1.388 . S
C1787 C1788 1.366 . S
C1788 C1787 1.366 . S
C1788 C1789 1.414 . S
C1788 C1791 1.499 . S
C1789 H1763 0.950 . S
C1789 C1788 1.414 . S
C1789 C1790 1.374 . S
C1790 H1764 0.950 . S
C1790 C1786 1.385 . S
C1790 C1789 1.374 . S
C1791 C1788 1.499 . S
C1791 C1792 1.373 . S
C1791 C1793 1.389 . S
C1792 H1765 0.950 . S
C1792 C1778 1.377 . S
C1792 C1791 1.373 . S
C1793 C1777 1.377 . S
C1793 C1791 1.389 . S
C1793 C1794 1.524 . S
C1794 C1793 1.524 . S
C1794 C1795 1.397 . S
C1794 C1799 1.363 . S
C1795 H1766 0.927 1_554 S
C1795 C1794 1.397 . S
C1795 C1796 1.333 1_554 S
C1796 H1767 0.969 . S
C1796 C1795 1.333 1_556 S
C1796 C1797 1.270 1_556 S
C1797 C1796 1.270 1_554 S
C1797 C1798 1.524 . S
C1797 H1800 0.999 . S
C1798 H1768 0.950 . S
C1798 C1797 1.524 . S
C1798 C1799 1.415 . S
C1799 H1769 0.950 . S
C1799 C1794 1.363 . S
C1799 C1798 1.415 . S
H1800 C1797 0.999 . S
H1801 C1782 0.913 . S
H1802 C1820 0.951 . S
H1803 C1822 0.951 . S
H1804 C1824 0.950 1_556 S
H1805 C1825 0.950 1_556 S
H1806 C1827 0.950 . S
H1807 C1830 0.950 . S
H1808 C1831 0.950 . S
H1809 C1833 0.950 . S
H1810 C1834 0.950 . S
H1811 C1835 0.950 1_556 S
H1812 C1837 0.933 1_556 S
H1813 C1839 0.950 . S
H1814 C1840 0.950 . S
H1815 C1842 0.950 . S
H1816 C1845 0.950 . S
H1817 C1846 0.950 . S
H1818 C1848 0.950 . S
H1819 C1849 0.992 . S
C1820 H1802 0.951 . S
C1820 C1821 1.366 . S
C1820 C1822 1.388 . S
C1821 C1820 1.366 . S
C1821 C1825 1.385 . S
C1822 H1803 0.951 . S
C1822 C1820 1.388 . S
C1822 C1823 1.366 . S
C1823 C1822 1.366 . S
C1823 C1824 1.414 . S
C1823 C1826 1.499 . S
C1824 H1804 0.950 1_554 S
C1824 C1823 1.414 . S
C1824 C1825 1.374 . S
C1825 H1805 0.950 1_554 S
C1825 C1821 1.385 . S
C1825 C1824 1.374 . S
C1826 C1823 1.499 . S
C1826 C1827 1.373 . S
C1826 C1828 1.389 . S
C1827 H1806 0.950 . S
C1827 C1826 1.373 . S
C1827 C1843 1.377 . S
C1828 C1826 1.389 . S
C1828 C1829 1.524 . S
C1828 C1842 1.377 . S
C1829 C1828 1.524 . S
C1829 C1830 1.397 1_554 S
C1829 C1834 1.363 . S
C1830 H1807 0.950 . S
C1830 C1829 1.397 1_556 S
C1830 C1831 1.334 . S
C1831 H1808 0.950 . S
C1831 C1830 1.334 . S
C1831 C1832 1.287 1_556 S
C1832 C1831 1.287 1_554 S
C1832 C1833 1.524 . S
C1832 H1851 0.913 . S
C1833 H1809 0.950 . S
C1833 C1832 1.524 . S
C1833 C1834 1.415 . S
C1834 H1810 0.950 . S
C1834 C1829 1.363 . S
C1834 C1833 1.415 . S
C1835 H1811 0.950 1_554 S
C1835 C1836 1.366 . S
C1835 C1837 1.388 . S
C1836 C1835 1.366 . S
C1836 C1840 1.385 . S
C1837 H1812 0.933 1_554 S
C1837 C1835 1.388 . S
C1837 C1838 1.366 . S
C1838 C1837 1.366 . S
C1838 C1839 1.414 . S
C1838 C1841 1.499 . S
C1839 H1813 0.950 . S
C1839 C1838 1.414 . S
C1839 C1840 1.374 . S
C1840 H1814 0.950 . S
C1840 C1836 1.385 . S
C1840 C1839 1.374 . S
C1841 C1838 1.499 . S
C1841 C1842 1.373 . S
C1841 C1843 1.389 . S
C1842 H1815 0.950 . S
C1842 C1828 1.377 . S
C1842 C1841 1.373 . S
C1843 C1827 1.377 . S
C1843 C1841 1.389 . S
C1843 C1844 1.524 . S
C1844 C1843 1.524 . S
C1844 C1845 1.397 . S
C1844 C1849 1.363 . S
C1845 H1816 0.950 . S
C1845 C1844 1.397 . S
C1845 C1846 1.334 . S
C1846 H1817 0.950 . S
C1846 C1845 1.334 . S
C1846 C1847 1.287 . S
C1847 C1846 1.287 . S
C1847 C1848 1.524 . S
C1847 H1850 0.999 . S
C1848 H1818 0.950 . S
C1848 C1847 1.524 . S
C1848 C1849 1.415 . S
C1849 H1819 0.992 . S
C1849 C1844 1.363 . S
C1849 C1848 1.415 . S
H1850 C1847 0.999 . S
H1851 C1832 0.913 . S
H1852 C1870 0.951 . S
H1853 C1872 0.951 . S
H1854 C1874 0.950 . S
H1855 C1875 0.950 . S
H1856 C1877 0.950 . S
H1857 C1880 0.950 . S
H1858 C1881 0.950 . S
H1859 C1883 0.950 . S
H1860 C1884 0.950 . S
H1861 C1885 0.951 . S
H1862 C1887 0.951 . S
H1863 C1889 0.950 . S
H1864 C1890 0.950 . S
H1865 C1892 0.950 . S
H1866 C1895 0.950 . S
H1867 C1896 0.950 . S
H1868 C1898 0.950 . S
H1869 C1899 0.950 . S
C1870 H1852 0.951 . S
C1870 C1871 1.366 . S
C1870 C1872 1.388 . S
C1871 C1870 1.366 . S
C1871 C1875 1.385 . S
C1872 H1853 0.951 . S
C1872 C1870 1.388 . S
C1872 C1873 1.366 . S
C1873 C1872 1.366 . S
C1873 C1874 1.414 . S
C1873 C1876 1.499 . S
C1874 H1854 0.950 . S
C1874 C1873 1.414 . S
C1874 C1875 1.374 . S
C1875 H1855 0.950 . S
C1875 C1871 1.385 . S
C1875 C1874 1.374 . S
C1876 C1873 1.499 . S
C1876 C1877 1.373 . S
C1876 C1878 1.389 . S
C1877 H1856 0.950 . S
C1877 C1876 1.373 . S
C1877 C1893 1.377 . S
C1878 C1876 1.389 . S
C1878 C1879 1.524 . S
C1878 C1892 1.377 . S
C1879 C1878 1.524 . S
C1879 C1880 1.397 . S
C1879 C1884 1.363 . S
C1880 H1857 0.950 . S
C1880 C1879 1.397 . S
C1880 C1881 1.334 . S
C1881 H1858 0.950 . S
C1881 C1880 1.334 . S
C1881 C1882 1.287 . S
C1882 C1881 1.287 . S
C1882 C1883 1.524 . S
C1882 H1901 0.913 . S
C1883 H1859 0.950 . S
C1883 C1882 1.524 . S
C1883 C1884 1.415 . S
C1884 H1860 0.950 . S
C1884 C1879 1.363 . S
C1884 C1883 1.415 . S
C1885 H1861 0.951 . S
C1885 C1886 1.366 . S
C1885 C1887 1.388 . S
C1886 C1885 1.366 . S
C1886 C1890 1.385 . S
C1887 H1862 0.951 . S
C1887 C1885 1.388 . S
C1887 C1888 1.366 . S
C1888 C1887 1.366 . S
C1888 C1889 1.414 . S
C1888 C1891 1.499 . S
C1889 H1863 0.950 . S
C1889 C1888 1.414 . S
C1889 C1890 1.374 . S
C1890 H1864 0.950 . S
C1890 C1886 1.385 . S
C1890 C1889 1.374 . S
C1891 C1888 1.499 . S
C1891 C1892 1.373 . S
C1891 C1893 1.389 . S
C1892 H1865 0.950 . S
C1892 C1878 1.377 . S
C1892 C1891 1.373 . S
C1893 C1877 1.377 . S
C1893 C1891 1.389 . S
C1893 C1894 1.524 . S
C1894 C1893 1.524 . S
C1894 C1895 1.397 . S
C1894 C1899 1.363 . S
C1895 H1866 0.950 . S
C1895 C1894 1.397 . S
C1895 C1896 1.334 . S
C1896 H1867 0.950 . S
C1896 C1895 1.334 . S
C1896 C1897 1.287 . S
C1897 C1896 1.287 . S
C1897 C1898 1.524 . S
C1897 H1900 0.999 . S
C1898 H1868 0.950 . S
C1898 C1897 1.524 . S
C1898 C1899 1.415 . S
C1899 H1869 0.950 . S
C1899 C1894 1.363 . S
C1899 C1898 1.415 . S
H1900 C1897 0.999 . S
H1901 C1882 0.913 . S
H1902 C1920 0.951 . S
H1903 C1922 0.951 . S
H1904 C1924 0.950 . S
H1905 C1925 0.950 . S
H1906 C1927 0.950 . S
H1907 C1930 0.950 . S
H1908 C1931 0.950 . S
H1909 C1933 0.950 . S
H1910 C1934 0.950 . S
H1911 C1935 0.951 . S
H1912 C1937 0.951 . S
H1913 C1939 0.950 . S
H1914 C1940 0.950 . S
H1915 C1942 0.950 . S
H1916 C1945 0.950 . S
H1917 C1946 0.950 . S
H1918 C1948 0.950 . S
H1919 C1949 0.950 . S
C1920 H1902 0.951 . S
C1920 C1921 1.366 . S
C1920 C1922 1.388 . S
C1921 C1920 1.366 . S
C1921 C1925 1.385 . S
C1922 H1903 0.951 . S
C1922 C1920 1.388 . S
C1922 C1923 1.366 . S
C1923 C1922 1.366 . S
C1923 C1924 1.414 . S
C1923 C1926 1.499 . S
C1924 H1904 0.950 . S
C1924 C1923 1.414 . S
C1924 C1925 1.374 . S
C1925 H1905 0.950 . S
C1925 C1921 1.385 . S
C1925 C1924 1.374 . S
C1926 C1923 1.499 . S
C1926 C1927 1.373 . S
C1926 C1928 1.389 . S
C1927 H1906 0.950 . S
C1927 C1926 1.373 . S
C1927 C1943 1.377 . S
C1928 C1926 1.389 . S
C1928 C1929 1.524 . S
C1928 C1942 1.377 . S
C1929 C1928 1.524 . S
C1929 C1930 1.397 . S
C1929 C1934 1.363 . S
C1930 H1907 0.950 . S
C1930 C1929 1.397 . S
C1930 C1931 1.334 . S
C1931 H1908 0.950 . S
C1931 C1930 1.334 . S
C1931 C1932 1.287 . S
C1932 C1931 1.287 . S
C1932 C1933 1.524 . S
C1932 H1951 0.913 . S
C1933 H1909 0.950 . S
C1933 C1932 1.524 . S
C1933 C1934 1.415 . S
C1934 H1910 0.950 . S
C1934 C1929 1.363 . S
C1934 C1933 1.415 . S
C1935 H1911 0.951 . S
C1935 C1936 1.366 . S
C1935 C1937 1.388 . S
C1936 C1935 1.366 . S
C1936 C1940 1.385 . S
C1937 H1912 0.951 . S
C1937 C1935 1.388 . S
C1937 C1938 1.366 . S
C1938 C1937 1.366 . S
C1938 C1939 1.414 . S
C1938 C1941 1.499 . S
C1939 H1913 0.950 . S
C1939 C1938 1.414 . S
C1939 C1940 1.374 . S
C1940 H1914 0.950 . S
C1940 C1936 1.385 . S
C1940 C1939 1.374 . S
C1941 C1938 1.499 . S
C1941 C1942 1.373 . S
C1941 C1943 1.389 . S
C1942 H1915 0.950 . S
C1942 C1928 1.377 . S
C1942 C1941 1.373 . S
C1943 C1927 1.377 . S
C1943 C1941 1.389 . S
C1943 C1944 1.524 . S
C1944 C1943 1.524 . S
C1944 C1945 1.397 . S
C1944 C1949 1.363 . S
C1945 H1916 0.950 . S
C1945 C1944 1.397 . S
C1945 C1946 1.334 . S
C1946 H1917 0.950 . S
C1946 C1945 1.334 . S
C1946 C1947 1.287 . S
C1947 C1946 1.287 . S
C1947 C1948 1.524 . S
C1947 H1950 0.999 . S
C1948 H1918 0.950 . S
C1948 C1947 1.524 . S
C1948 C1949 1.415 . S
C1949 H1919 0.950 . S
C1949 C1944 1.363 . S
C1949 C1948 1.415 . S
H1950 C1947 0.999 . S
H1951 C1932 0.913 . S
H1952 C1970 0.951 . S
H1953 C1972 0.951 . S
H1954 C1974 0.950 . S
H1955 C1975 0.950 . S
H1956 C1977 0.950 . S
H1957 C1980 0.950 . S
H1958 C1981 0.950 . S
H1959 C1983 0.950 . S
H1960 C1984 0.950 . S
H1961 C1985 0.951 . S
H1962 C1987 0.951 . S
H1963 C1989 0.950 . S
H1964 C1990 0.950 . S
H1965 C1992 0.950 . S
H1966 C1995 0.950 . S
H1967 C1996 0.950 . S
H1968 C1998 0.950 . S
H1969 C1999 0.950 . S
C1970 H1952 0.951 . S
C1970 C1971 1.366 . S
C1970 C1972 1.388 . S
C1971 C1970 1.366 . S
C1971 C1975 1.385 . S
C1972 H1953 0.951 . S
C1972 C1970 1.388 . S
C1972 C1973 1.366 . S
C1973 C1972 1.366 . S
C1973 C1974 1.414 . S
C1973 C1976 1.499 . S
C1974 H1954 0.950 . S
C1974 C1973 1.414 . S
C1974 C1975 1.374 . S
C1975 H1955 0.950 . S
C1975 C1971 1.385 . S
C1975 C1974 1.374 . S
C1976 C1973 1.499 . S
C1976 C1977 1.373 . S
C1976 C1978 1.389 . S
C1977 H1956 0.950 . S
C1977 C1976 1.373 . S
C1977 C1993 1.377 . S
C1978 C1976 1.389 . S
C1978 C1979 1.524 . S
C1978 C1992 1.377 . S
C1979 C1978 1.524 . S
C1979 C1980 1.397 . S
C1979 C1984 1.363 . S
C1980 H1957 0.950 . S
C1980 C1979 1.397 . S
C1980 C1981 1.334 . S
C1981 H1958 0.950 . S
C1981 C1980 1.334 . S
C1981 C1982 1.287 . S
C1982 C1981 1.287 . S
C1982 C1983 1.524 . S
C1982 H2001 0.913 . S
C1983 H1959 0.950 . S
C1983 C1982 1.524 . S
C1983 C1984 1.415 . S
C1984 H1960 0.950 . S
C1984 C1979 1.363 . S
C1984 C1983 1.415 . S
C1985 H1961 0.951 . S
C1985 C1986 1.366 . S
C1985 C1987 1.388 . S
C1986 C1985 1.366 . S
C1986 C1990 1.385 . S
C1987 H1962 0.951 . S
C1987 C1985 1.388 . S
C1987 C1988 1.366 . S
C1988 C1987 1.366 . S
C1988 C1989 1.414 . S
C1988 C1991 1.499 . S
C1989 H1963 0.950 . S
C1989 C1988 1.414 . S
C1989 C1990 1.374 . S
C1990 H1964 0.950 . S
C1990 C1986 1.385 . S
C1990 C1989 1.374 . S
C1991 C1988 1.499 . S
C1991 C1992 1.373 . S
C1991 C1993 1.389 . S
C1992 H1965 0.950 . S
C1992 C1978 1.377 . S
C1992 C1991 1.373 . S
C1993 C1977 1.377 . S
C1993 C1991 1.389 . S
C1993 C1994 1.524 . S
C1994 C1993 1.524 . S
C1994 C1995 1.397 . S
C1994 C1999 1.363 . S
C1995 H1966 0.950 . S
C1995 C1994 1.397 . S
C1995 C1996 1.334 . S
C1996 H1967 0.950 . S
C1996 C1995 1.334 . S
C1996 C1997 1.287 . S
C1997 C1996 1.287 . S
C1997 C1998 1.524 . S
C1997 H2000 0.999 . S
C1998 H1968 0.950 . S
C1998 C1997 1.524 . S
C1998 C1999 1.415 . S
C1999 H1969 0.950 . S
C1999 C1994 1.363 . S
C1999 C1998 1.415 . S
H2000 C1997 0.999 . S
H2001 C1982 0.913 . S
H2002 C2020 0.951 . S
H2003 C2022 0.951 . S
H2004 C2024 0.950 . S
H2005 C2025 0.950 . S
H2006 C2027 0.950 . S
H2007 C2030 0.950 . S
H2008 C2031 0.950 . S
H2009 C2033 0.950 . S
H2010 C2034 0.950 . S
H2011 C2035 0.951 . S
H2012 C2037 0.951 . S
H2013 C2039 0.950 . S
H2014 C2040 0.950 . S
H2015 C2042 0.950 . S
H2016 C2045 0.950 . S
H2017 C2046 0.950 . S
H2018 C2048 0.950 . S
H2019 C2049 0.950 . S
C2020 H2002 0.951 . S
C2020 C2021 1.366 . S
C2020 C2022 1.388 . S
C2021 C2020 1.366 . S
C2021 C2025 1.385 . S
C2022 H2003 0.951 . S
C2022 C2020 1.388 . S
C2022 C2023 1.366 . S
C2023 C2022 1.366 . S
C2023 C2024 1.414 . S
C2023 C2026 1.499 . S
C2024 H2004 0.950 . S
C2024 C2023 1.414 . S
C2024 C2025 1.374 . S
C2025 H2005 0.950 . S
C2025 C2021 1.385 . S
C2025 C2024 1.374 . S
C2026 C2023 1.499 . S
C2026 C2027 1.373 . S
C2026 C2028 1.389 . S
C2027 H2006 0.950 . S
C2027 C2026 1.373 . S
C2027 C2043 1.377 . S
C2028 C2026 1.389 . S
C2028 C2029 1.524 . S
C2028 C2042 1.377 . S
C2029 C2028 1.524 . S
C2029 C2030 1.397 . S
C2029 C2034 1.363 . S
C2030 H2007 0.950 . S
C2030 C2029 1.397 . S
C2030 C2031 1.334 . S
C2031 H2008 0.950 . S
C2031 C2030 1.334 . S
C2031 C2032 1.287 . S
C2032 C2031 1.287 . S
C2032 C2033 1.524 . S
C2032 H2051 0.913 . S
C2033 H2009 0.950 . S
C2033 C2032 1.524 . S
C2033 C2034 1.415 . S
C2034 H2010 0.950 . S
C2034 C2029 1.363 . S
C2034 C2033 1.415 . S
C2035 H2011 0.951 . S
C2035 C2036 1.366 . S
C2035 C2037 1.388 . S
C2036 C2035 1.366 . S
C2036 C2040 1.385 . S
C2037 H2012 0.951 . S
C2037 C2035 1.388 . S
C2037 C2038 1.366 . S
C2038 C2037 1.366 . S
C2038 C2039 1.414 . S
C2038 C2041 1.499 . S
C2039 H2013 0.950 . S
C2039 C2038 1.414 . S
C2039 C2040 1.374 . S
C2040 H2014 0.950 . S
C2040 C2036 1.385 . S
C2040 C2039 1.374 . S
C2041 C2038 1.499 . S
C2041 C2042 1.373 . S
C2041 C2043 1.389 . S
C2042 H2015 0.950 . S
C2042 C2028 1.377 . S
C2042 C2041 1.373 . S
C2043 C2027 1.377 . S
C2043 C2041 1.389 . S
C2043 C2044 1.524 . S
C2044 C2043 1.524 . S
C2044 C2045 1.397 . S
C2044 C2049 1.363 . S
C2045 H2016 0.950 . S
C2045 C2044 1.397 . S
C2045 C2046 1.334 . S
C2046 H2017 0.950 . S
C2046 C2045 1.334 . S
C2046 C2047 1.287 . S
C2047 C2046 1.287 . S
C2047 C2048 1.524 . S
C2047 H2050 0.999 . S
C2048 H2018 0.950 . S
C2048 C2047 1.524 . S
C2048 C2049 1.415 . S
C2049 H2019 0.950 . S
C2049 C2044 1.363 . S
C2049 C2048 1.415 . S
H2050 C2047 0.999 . S
H2051 C2032 0.913 . S
H2052 C2070 0.951 . S
H2053 C2072 0.951 . S
H2054 C2074 0.950 . S
H2055 C2075 0.950 . S
H2056 C2077 0.950 . S
H2057 C2080 0.950 . S
H2058 C2081 0.950 . S
H2059 C2083 0.950 . S
H2060 C2084 0.950 . S
H2061 C2085 0.951 . S
H2062 C2087 0.951 . S
H2063 C2089 0.950 . S
H2064 C2090 0.950 . S
H2065 C2092 0.950 . S
H2066 C2095 0.950 . S
H2067 C2096 0.950 . S
H2068 C2098 0.950 . S
H2069 C2099 0.950 . S
C2070 H2052 0.951 . S
C2070 C2071 1.366 . S
C2070 C2072 1.388 . S
C2071 C2070 1.366 . S
C2071 C2075 1.385 . S
C2072 H2053 0.951 . S
C2072 C2070 1.388 . S
C2072 C2073 1.366 . S
C2073 C2072 1.366 . S
C2073 C2074 1.414 . S
C2073 C2076 1.499 . S
C2074 H2054 0.950 . S
C2074 C2073 1.414 . S
C2074 C2075 1.374 . S
C2075 H2055 0.950 . S
C2075 C2071 1.385 . S
C2075 C2074 1.374 . S
C2076 C2073 1.499 . S
C2076 C2077 1.373 . S
C2076 C2078 1.389 . S
C2077 H2056 0.950 . S
C2077 C2076 1.373 . S
C2077 C2093 1.377 . S
C2078 C2076 1.389 . S
C2078 C2079 1.524 . S
C2078 C2092 1.377 . S
C2079 C2078 1.524 . S
C2079 C2080 1.397 . S
C2079 C2084 1.363 . S
C2080 H2057 0.950 . S
C2080 C2079 1.397 . S
C2080 C2081 1.334 . S
C2081 H2058 0.950 . S
C2081 C2080 1.334 . S
C2081 C2082 1.287 . S
C2082 C2081 1.287 . S
C2082 C2083 1.524 . S
C2082 H2101 0.913 . S
C2083 H2059 0.950 . S
C2083 C2082 1.524 . S
C2083 C2084 1.415 . S
C2084 H2060 0.950 . S
C2084 C2079 1.363 . S
C2084 C2083 1.415 . S
C2085 H2061 0.951 . S
C2085 C2086 1.366 . S
C2085 C2087 1.388 . S
C2086 C2085 1.366 . S
C2086 C2090 1.385 . S
C2087 H2062 0.951 . S
C2087 C2085 1.388 . S
C2087 C2088 1.366 . S
C2088 C2087 1.366 . S
C2088 C2089 1.414 . S
C2088 C2091 1.499 . S
C2089 H2063 0.950 . S
C2089 C2088 1.414 . S
C2089 C2090 1.374 . S
C2090 H2064 0.950 . S
C2090 C2086 1.385 . S
C2090 C2089 1.374 . S
C2091 C2088 1.499 . S
C2091 C2092 1.373 . S
C2091 C2093 1.389 . S
C2092 H2065 0.950 . S
C2092 C2078 1.377 . S
C2092 C2091 1.373 . S
C2093 C2077 1.377 . S
C2093 C2091 1.389 . S
C2093 C2094 1.524 . S
C2094 C2093 1.524 . S
C2094 C2095 1.397 . S
C2094 C2099 1.363 . S
C2095 H2066 0.950 . S
C2095 C2094 1.397 . S
C2095 C2096 1.334 . S
C2096 H2067 0.950 . S
C2096 C2095 1.334 . S
C2096 C2097 1.287 . S
C2097 C2096 1.287 . S
C2097 C2098 1.524 . S
C2097 H2100 0.999 . S
C2098 H2068 0.950 . S
C2098 C2097 1.524 . S
C2098 C2099 1.415 . S
C2099 H2069 0.950 . S
C2099 C2094 1.363 . S
C2099 C2098 1.415 . S
H2100 C2097 0.999 . S
H2101 C2082 0.913 . S
H2102 C2120 0.951 . S
H2103 C2122 0.951 . S
H2104 C2124 0.950 . S
H2105 C2125 0.950 . S
H2106 C2127 0.950 . S
H2107 C2130 0.950 . S
H2108 C2131 0.950 . S
H2109 C2133 0.950 . S
H2110 C2134 0.950 . S
H2111 C2135 0.951 . S
H2112 C2137 0.951 . S
H2113 C2139 0.950 . S
H2114 C2140 0.950 . S
H2115 C2142 0.950 . S
H2116 C2145 0.950 . S
H2117 C2146 0.950 . S
H2118 C2148 0.950 . S
H2119 C2149 0.950 . S
C2120 H2102 0.951 . S
C2120 C2121 1.366 . S
C2120 C2122 1.388 . S
C2121 C2120 1.366 . S
C2121 C2125 1.385 . S
C2122 H2103 0.951 . S
C2122 C2120 1.388 . S
C2122 C2123 1.366 . S
C2123 C2122 1.366 . S
C2123 C2124 1.414 . S
C2123 C2126 1.499 . S
C2124 H2104 0.950 . S
C2124 C2123 1.414 . S
C2124 C2125 1.374 . S
C2125 H2105 0.950 . S
C2125 C2121 1.385 . S
C2125 C2124 1.374 . S
C2126 C2123 1.499 . S
C2126 C2127 1.373 . S
C2126 C2128 1.389 . S
C2127 H2106 0.950 . S
C2127 C2126 1.373 . S
C2127 C2143 1.377 . S
C2128 C2126 1.389 . S
C2128 C2129 1.524 . S
C2128 C2142 1.377 . S
C2129 C2128 1.524 . S
C2129 C2130 1.397 . S
C2129 C2134 1.363 . S
C2130 H2107 0.950 . S
C2130 C2129 1.397 . S
C2130 C2131 1.334 . S
C2131 H2108 0.950 . S
C2131 C2130 1.334 . S
C2131 C2132 1.287 . S
C2132 C2131 1.287 . S
C2132 C2133 1.524 . S
C2132 H2151 0.913 . S
C2133 H2109 0.950 . S
C2133 C2132 1.524 . S
C2133 C2134 1.415 . S
C2134 H2110 0.950 . S
C2134 C2129 1.363 . S
C2134 C2133 1.415 . S
C2135 H2111 0.951 . S
C2135 C2136 1.366 . S
C2135 C2137 1.388 . S
C2136 C2135 1.366 . S
C2136 C2140 1.385 . S
C2137 H2112 0.951 . S
C2137 C2135 1.388 . S
C2137 C2138 1.366 . S
C2138 C2137 1.366 . S
C2138 C2139 1.414 . S
C2138 C2141 1.499 . S
C2139 H2113 0.950 . S
C2139 C2138 1.414 . S
C2139 C2140 1.374 . S
C2140 H2114 0.950 . S
C2140 C2136 1.385 . S
C2140 C2139 1.374 . S
C2141 C2138 1.499 . S
C2141 C2142 1.373 . S
C2141 C2143 1.389 . S
C2142 H2115 0.950 . S
C2142 C2128 1.377 . S
C2142 C2141 1.373 . S
C2143 C2127 1.377 . S
C2143 C2141 1.389 . S
C2143 C2144 1.524 . S
C2144 C2143 1.524 . S
C2144 C2145 1.397 . S
C2144 C2149 1.363 . S
C2145 H2116 0.950 . S
C2145 C2144 1.397 . S
C2145 C2146 1.334 . S
C2146 H2117 0.950 . S
C2146 C2145 1.334 . S
C2146 C2147 1.287 . S
C2147 C2146 1.287 . S
C2147 C2148 1.524 . S
C2147 H2150 0.999 . S
C2148 H2118 0.950 . S
C2148 C2147 1.524 . S
C2148 C2149 1.415 . S
C2149 H2119 0.950 . S
C2149 C2144 1.363 . S
C2149 C2148 1.415 . S
H2150 C2147 0.999 . S
H2151 C2132 0.913 . S
H2152 C2170 0.951 . S
H2153 C2172 0.951 . S
H2154 C2174 0.950 . S
H2155 C2175 0.950 . S
H2156 C2177 0.950 . S
H2157 C2180 0.950 . S
H2158 C2181 0.950 . S
H2159 C2183 0.950 . S
H2160 C2184 0.950 . S
H2161 C2185 0.951 . S
H2162 C2187 0.951 . S
H2163 C2189 0.950 . S
H2164 C2190 0.950 . S
H2165 C2192 0.950 . S
H2166 C2195 0.950 . S
H2167 C2196 0.950 . S
H2168 C2198 0.950 . S
H2169 C2199 0.950 . S
C2170 H2152 0.951 . S
C2170 C2171 1.366 . S
C2170 C2172 1.388 . S
C2171 C2170 1.366 . S
C2171 C2175 1.385 . S
C2172 H2153 0.951 . S
C2172 C2170 1.388 . S
C2172 C2173 1.366 . S
C2173 C2172 1.366 . S
C2173 C2174 1.414 . S
C2173 C2176 1.499 . S
C2174 H2154 0.950 . S
C2174 C2173 1.414 . S
C2174 C2175 1.374 . S
C2175 H2155 0.950 . S
C2175 C2171 1.385 . S
C2175 C2174 1.374 . S
C2176 C2173 1.499 . S
C2176 C2177 1.373 . S
C2176 C2178 1.389 . S
C2177 H2156 0.950 . S
C2177 C2176 1.373 . S
C2177 C2193 1.377 . S
C2178 C2176 1.389 . S
C2178 C2179 1.524 . S
C2178 C2192 1.377 . S
C2179 C2178 1.524 . S
C2179 C2180 1.397 . S
C2179 C2184 1.363 . S
C2180 H2157 0.950 . S
C2180 C2179 1.397 . S
C2180 C2181 1.334 . S
C2181 H2158 0.950 . S
C2181 C2180 1.334 . S
C2181 C2182 1.287 . S
C2182 C2181 1.287 . S
C2182 C2183 1.524 . S
C2182 H2201 0.913 . S
C2183 H2159 0.950 . S
C2183 C2182 1.524 . S
C2183 C2184 1.415 . S
C2184 H2160 0.950 . S
C2184 C2179 1.363 . S
C2184 C2183 1.415 . S
C2185 H2161 0.951 . S
C2185 C2186 1.366 . S
C2185 C2187 1.388 . S
C2186 C2185 1.366 . S
C2186 C2190 1.385 . S
C2187 H2162 0.951 . S
C2187 C2185 1.388 . S
C2187 C2188 1.366 . S
C2188 C2187 1.366 . S
C2188 C2189 1.414 . S
C2188 C2191 1.499 . S
C2189 H2163 0.950 . S
C2189 C2188 1.414 . S
C2189 C2190 1.374 . S
C2190 H2164 0.950 . S
C2190 C2186 1.385 . S
C2190 C2189 1.374 . S
C2191 C2188 1.499 . S
C2191 C2192 1.373 . S
C2191 C2193 1.389 . S
C2192 H2165 0.950 . S
C2192 C2178 1.377 . S
C2192 C2191 1.373 . S
C2193 C2177 1.377 . S
C2193 C2191 1.389 . S
C2193 C2194 1.524 . S
C2194 C2193 1.524 . S
C2194 C2195 1.397 1_455 S
C2194 C2199 1.363 . S
C2195 H2166 0.950 . S
C2195 C2194 1.397 1_655 S
C2195 C2196 1.334 . S
C2196 H2167 0.950 . S
C2196 C2195 1.334 . S
C2196 C2197 1.287 . S
C2197 C2196 1.287 . S
C2197 C2198 1.524 . S
C2197 H2200 0.999 . S
C2198 H2168 0.950 . S
C2198 C2197 1.524 . S
C2198 C2199 1.415 1_655 S
C2199 H2169 0.950 . S
C2199 C2194 1.363 . S
C2199 C2198 1.415 1_455 S
H2200 C2197 0.999 . S
H2201 C2182 0.913 . S
H2202 C2220 0.951 . S
H2203 C2222 0.951 . S
H2204 C2224 0.950 . S
H2205 C2225 0.950 . S
H2206 C2227 0.950 . S
H2207 C2230 0.950 . S
H2208 C2231 0.950 . S
H2209 C2233 0.950 . S
H2210 C2234 0.950 . S
H2211 C2235 0.951 . S
H2212 C2237 0.951 . S
H2213 C2239 0.950 . S
H2214 C2240 0.950 . S
H2215 C2242 0.950 . S
H2216 C2245 0.950 . S
H2217 C2246 0.950 . S
H2218 C2248 0.950 . S
H2219 C2249 0.950 . S
C2220 H2202 0.951 . S
C2220 C2221 1.366 . S
C2220 C2222 1.388 . S
C2221 C2220 1.366 . S
C2221 C2225 1.385 . S
C2222 H2203 0.951 . S
C2222 C2220 1.388 . S
C2222 C2223 1.366 . S
C2223 C2222 1.366 . S
C2223 C2224 1.414 . S
C2223 C2226 1.499 . S
C2224 H2204 0.950 . S
C2224 C2223 1.414 . S
C2224 C2225 1.374 . S
C2225 H2205 0.950 . S
C2225 C2221 1.385 . S
C2225 C2224 1.374 . S
C2226 C2223 1.499 . S
C2226 C2227 1.373 . S
C2226 C2228 1.389 . S
C2227 H2206 0.950 . S
C2227 C2226 1.373 . S
C2227 C2243 1.377 . S
C2228 C2226 1.389 . S
C2228 C2229 1.524 . S
C2228 C2242 1.377 . S
C2229 C2228 1.524 . S
C2229 C2230 1.397 . S
C2229 C2234 1.363 . S
C2230 H2207 0.950 . S
C2230 C2229 1.397 . S
C2230 C2231 1.334 . S
C2231 H2208 0.950 . S
C2231 C2230 1.334 . S
C2231 C2232 1.287 . S
C2232 C2231 1.287 . S
C2232 C2233 1.524 . S
C2232 H2251 0.913 . S
C2233 H2209 0.950 . S
C2233 C2232 1.524 . S
C2233 C2234 1.415 . S
C2234 H2210 0.950 . S
C2234 C2229 1.363 . S
C2234 C2233 1.415 . S
C2235 H2211 0.951 . S
C2235 C2236 1.366 . S
C2235 C2237 1.388 . S
C2236 C2235 1.366 . S
C2236 C2240 1.385 . S
C2237 H2212 0.951 . S
C2237 C2235 1.388 . S
C2237 C2238 1.366 . S
C2238 C2237 1.366 . S
C2238 C2239 1.414 . S
C2238 C2241 1.499 . S
C2239 H2213 0.950 . S
C2239 C2238 1.414 . S
C2239 C2240 1.374 . S
C2240 H2214 0.950 . S
C2240 C2236 1.385 . S
C2240 C2239 1.374 . S
C2241 C2238 1.499 . S
C2241 C2242 1.373 . S
C2241 C2243 1.389 . S
C2242 H2215 0.950 . S
C2242 C2228 1.377 . S
C2242 C2241 1.373 . S
C2243 C2227 1.377 . S
C2243 C2241 1.389 . S
C2243 C2244 1.524 . S
C2244 C2243 1.524 . S
C2244 C2245 1.397 . S
C2244 C2249 1.363 . S
C2245 H2216 0.950 . S
C2245 C2244 1.397 . S
C2245 C2246 1.334 . S
C2246 H2217 0.950 . S
C2246 C2245 1.334 . S
C2246 C2247 1.287 . S
C2247 C2246 1.287 . S
C2247 C2248 1.524 . S
C2247 H2250 0.999 . S
C2248 H2218 0.950 . S
C2248 C2247 1.524 . S
C2248 C2249 1.415 . S
C2249 H2219 0.950 . S
C2249 C2244 1.363 . S
C2249 C2248 1.415 . S
H2250 C2247 0.999 . S
H2251 C2232 0.913 . S
H2252 C2270 0.951 . S
H2253 C2272 0.951 . S
H2254 C2274 0.950 . S
H2255 C2275 0.950 . S
H2256 C2277 0.950 . S
H2257 C2280 0.950 . S
H2258 C2281 0.950 . S
H2259 C2283 0.950 . S
H2260 C2284 0.950 . S
H2261 C2285 0.951 . S
H2262 C2287 0.951 . S
H2263 C2289 0.950 . S
H2264 C2290 0.950 . S
H2265 C2292 0.950 . S
H2266 C2295 0.950 . S
H2267 C2296 0.950 . S
H2268 C2298 0.950 . S
H2269 C2299 0.950 . S
C2270 H2252 0.951 . S
C2270 C2271 1.366 . S
C2270 C2272 1.388 . S
C2271 C2270 1.366 . S
C2271 C2275 1.385 . S
C2272 H2253 0.951 . S
C2272 C2270 1.388 . S
C2272 C2273 1.366 . S
C2273 C2272 1.366 . S
C2273 C2274 1.414 . S
C2273 C2276 1.499 . S
C2274 H2254 0.950 . S
C2274 C2273 1.414 . S
C2274 C2275 1.374 . S
C2275 H2255 0.950 . S
C2275 C2271 1.385 . S
C2275 C2274 1.374 . S
C2276 C2273 1.499 . S
C2276 C2277 1.373 . S
C2276 C2278 1.389 . S
C2277 H2256 0.950 . S
C2277 C2276 1.373 . S
C2277 C2293 1.377 . S
C2278 C2276 1.389 . S
C2278 C2279 1.524 . S
C2278 C2292 1.377 . S
C2279 C2278 1.524 . S
C2279 C2280 1.397 . S
C2279 C2284 1.363 . S
C2280 H2257 0.950 . S
C2280 C2279 1.397 . S
C2280 C2281 1.334 . S
C2281 H2258 0.950 . S
C2281 C2280 1.334 . S
C2281 C2282 1.287 . S
C2282 C2281 1.287 . S
C2282 C2283 1.524 . S
C2282 H2301 0.913 . S
C2283 H2259 0.950 . S
C2283 C2282 1.524 . S
C2283 C2284 1.415 . S
C2284 H2260 0.950 . S
C2284 C2279 1.363 . S
C2284 C2283 1.415 . S
C2285 H2261 0.951 . S
C2285 C2286 1.366 . S
C2285 C2287 1.388 . S
C2286 C2285 1.366 . S
C2286 C2290 1.385 . S
C2287 H2262 0.951 . S
C2287 C2285 1.388 . S
C2287 C2288 1.366 . S
C2288 C2287 1.366 . S
C2288 C2289 1.414 . S
C2288 C2291 1.499 . S
C2289 H2263 0.950 . S
C2289 C2288 1.414 . S
C2289 C2290 1.374 . S
C2290 H2264 0.950 . S
C2290 C2286 1.385 . S
C2290 C2289 1.374 . S
C2291 C2288 1.499 . S
C2291 C2292 1.373 . S
C2291 C2293 1.389 . S
C2292 H2265 0.950 . S
C2292 C2278 1.377 . S
C2292 C2291 1.373 . S
C2293 C2277 1.377 . S
C2293 C2291 1.389 . S
C2293 C2294 1.524 . S
C2294 C2293 1.524 . S
C2294 C2295 1.397 . S
C2294 C2299 1.363 . S
C2295 H2266 0.950 . S
C2295 C2294 1.397 . S
C2295 C2296 1.334 . S
C2296 H2267 0.950 . S
C2296 C2295 1.334 . S
C2296 C2297 1.287 . S
C2297 C2296 1.287 . S
C2297 C2298 1.524 . S
C2297 H2300 0.999 . S
C2298 H2268 0.950 . S
C2298 C2297 1.524 . S
C2298 C2299 1.415 . S
C2299 H2269 0.950 . S
C2299 C2294 1.363 . S
C2299 C2298 1.415 . S
H2300 C2297 0.999 . S
H2301 C2282 0.913 . S
H2302 C2320 0.951 . S
H2303 C2322 0.951 . S
H2304 C2324 0.950 . S
H2305 C2325 0.950 . S
H2306 C2327 0.950 . S
H2307 C2330 0.950 . S
H2308 C2331 0.950 . S
H2309 C2333 0.950 . S
H2310 C2334 0.950 . S
H2311 C2335 0.951 . S
H2312 C2337 0.951 . S
H2313 C2339 0.950 . S
H2314 C2340 0.950 . S
H2315 C2342 0.950 . S
H2316 C2345 0.950 . S
H2317 C2346 0.950 . S
H2318 C2348 0.950 . S
H2319 C2349 0.950 . S
C2320 H2302 0.951 . S
C2320 C2321 1.366 . S
C2320 C2322 1.388 . S
C2321 C2320 1.366 . S
C2321 C2325 1.385 . S
C2322 H2303 0.951 . S
C2322 C2320 1.388 . S
C2322 C2323 1.366 . S
C2323 C2322 1.366 . S
C2323 C2324 1.414 . S
C2323 C2326 1.499 . S
C2324 H2304 0.950 . S
C2324 C2323 1.414 . S
C2324 C2325 1.374 . S
C2325 H2305 0.950 . S
C2325 C2321 1.385 . S
C2325 C2324 1.374 . S
C2326 C2323 1.499 . S
C2326 C2327 1.373 . S
C2326 C2328 1.389 . S
C2327 H2306 0.950 . S
C2327 C2326 1.373 . S
C2327 C2343 1.377 . S
C2328 C2326 1.389 . S
C2328 C2329 1.524 . S
C2328 C2342 1.377 . S
C2329 C2328 1.524 . S
C2329 C2330 1.397 . S
C2329 C2334 1.363 . S
C2330 H2307 0.950 . S
C2330 C2329 1.397 . S
C2330 C2331 1.334 . S
C2331 H2308 0.950 . S
C2331 C2330 1.334 . S
C2331 C2332 1.287 . S
C2332 C2331 1.287 . S
C2332 C2333 1.524 . S
C2332 H2351 0.913 . S
C2333 H2309 0.950 . S
C2333 C2332 1.524 . S
C2333 C2334 1.415 . S
C2334 H2310 0.950 . S
C2334 C2329 1.363 . S
C2334 C2333 1.415 . S
C2335 H2311 0.951 . S
C2335 C2336 1.366 . S
C2335 C2337 1.388 . S
C2336 C2335 1.366 . S
C2336 C2340 1.385 . S
C2337 H2312 0.951 . S
C2337 C2335 1.388 . S
C2337 C2338 1.366 . S
C2338 C2337 1.366 . S
C2338 C2339 1.414 . S
C2338 C2341 1.499 . S
C2339 H2313 0.950 . S
C2339 C2338 1.414 . S
C2339 C2340 1.374 . S
C2340 H2314 0.950 . S
C2340 C2336 1.385 . S
C2340 C2339 1.374 . S
C2341 C2338 1.499 . S
C2341 C2342 1.373 . S
C2341 C2343 1.389 . S
C2342 H2315 0.950 . S
C2342 C2328 1.377 . S
C2342 C2341 1.373 . S
C2343 C2327 1.377 . S
C2343 C2341 1.389 . S
C2343 C2344 1.524 . S
C2344 C2343 1.524 . S
C2344 C2345 1.397 . S
C2344 C2349 1.363 . S
C2345 H2316 0.950 . S
C2345 C2344 1.397 . S
C2345 C2346 1.334 . S
C2346 H2317 0.950 . S
C2346 C2345 1.334 . S
C2346 C2347 1.287 . S
C2347 C2346 1.287 . S
C2347 C2348 1.524 . S
C2347 H2350 0.999 . S
C2348 H2318 0.950 . S
C2348 C2347 1.524 . S
C2348 C2349 1.415 . S
C2349 H2319 0.950 . S
C2349 C2344 1.363 . S
C2349 C2348 1.415 . S
H2350 C2347 0.999 . S
H2351 C2332 0.913 . S
H2352 C2370 0.951 . S
H2353 C2372 0.951 . S
H2354 C2374 0.950 . S
H2355 C2375 0.950 . S
H2356 C2377 0.950 . S
H2357 C2380 0.950 . S
H2358 C2381 0.950 . S
H2359 C2383 0.950 . S
H2360 C2384 0.950 . S
H2361 C2385 0.972 . S
H2362 C2387 0.965 . S
H2363 C2389 0.950 . S
H2364 C2390 0.950 . S
H2365 C2392 0.950 . S
H2366 C2395 0.950 . S
H2367 C2396 0.950 . S
H2368 C2398 0.950 . S
H2369 C2399 0.950 . S
C2370 H2352 0.951 . S
C2370 C2371 1.367 . S
C2370 C2372 1.388 . S
C2371 C2370 1.367 . S
C2371 C2375 1.384 1_455 S
C2372 H2353 0.951 . S
C2372 C2370 1.388 . S
C2372 C2373 1.353 1_455 S
C2373 C2372 1.353 1_655 S
C2373 C2374 1.431 . S
C2373 C2376 1.499 . S
C2374 H2354 0.950 . S
C2374 C2373 1.431 . S
C2374 C2375 1.374 . S
C2375 H2355 0.950 . S
C2375 C2371 1.384 1_655 S
C2375 C2374 1.374 . S
C2376 C2373 1.499 . S
C2376 C2377 1.344 1_655 S
C2376 C2378 1.411 . S
C2377 H2356 0.950 . S
C2377 C2376 1.344 1_455 S
C2377 C2393 1.377 . S
C2378 C2376 1.411 . S
C2378 C2379 1.524 . S
C2378 C2392 1.377 . S
C2379 C2378 1.524 . S
C2379 C2380 1.397 . S
C2379 C2384 1.363 . S
C2380 H2357 0.950 . S
C2380 C2379 1.397 . S
C2380 C2381 1.334 . S
C2381 H2358 0.950 . S
C2381 C2380 1.334 . S
C2381 C2382 1.287 . S
C2382 C2381 1.287 . S
C2382 C2383 1.524 . S
C2382 H2401 0.913 . S
C2383 H2359 0.950 . S
C2383 C2382 1.524 . S
C2383 C2384 1.415 . S
C2384 H2360 0.950 . S
C2384 C2379 1.363 . S
C2384 C2383 1.415 . S
C2385 H2361 0.972 . S
C2385 C2386 1.339 1_655 S
C2385 C2387 1.391 . S
C2386 C2385 1.339 1_455 S
C2386 C2390 1.389 . S
C2387 H2362 0.965 . S
C2387 C2385 1.391 . S
C2387 C2388 1.356 1_655 S
C2388 C2387 1.356 1_455 S
C2388 C2389 1.414 . S
C2388 C2391 1.499 . S
C2389 H2363 0.950 . S
C2389 C2388 1.414 . S
C2389 C2390 1.374 . S
C2390 H2364 0.950 . S
C2390 C2386 1.389 . S
C2390 C2389 1.374 . S
C2391 C2388 1.499 . S
C2391 C2392 1.373 1_455 S
C2391 C2393 1.389 . S
C2392 H2365 0.950 . S
C2392 C2378 1.377 . S
C2392 C2391 1.373 1_655 S
C2393 C2377 1.377 . S
C2393 C2391 1.389 . S
C2393 C2394 1.524 . S
C2394 C2393 1.524 . S
C2394 C2395 1.397 . S
C2394 C2399 1.363 . S
C2395 H2366 0.950 . S
C2395 C2394 1.397 . S
C2395 C2396 1.334 . S
C2396 H2367 0.950 . S
C2396 C2395 1.334 . S
C2396 C2397 1.287 . S
C2397 C2396 1.287 . S
C2397 C2398 1.524 . S
C2397 H2400 0.999 . S
C2398 H2368 0.950 . S
C2398 C2397 1.524 . S
C2398 C2399 1.415 . S
C2399 H2369 0.950 . S
C2399 C2394 1.363 . S
C2399 C2398 1.415 . S
H2400 C2397 0.999 . S
H2401 C2382 0.913 . S
H2402 C2420 0.951 . S
H2403 C2422 0.951 . S
H2404 C2424 0.950 . S
H2405 C2425 0.950 . S
H2406 C2427 0.950 . S
H2407 C2430 0.950 . S
H2408 C2431 0.950 . S
H2409 C2433 0.950 . S
H2410 C2434 0.950 . S
H2411 C2435 0.951 . S
H2412 C2437 0.951 . S
H2413 C2439 0.950 . S
H2414 C2440 0.950 . S
H2415 C2442 0.950 . S
H2416 C2445 0.950 . S
H2417 C2446 0.950 . S
H2418 C2448 0.950 . S
H2419 C2449 0.950 . S
C2420 H2402 0.951 . S
C2420 C2421 1.366 . S
C2420 C2422 1.388 . S
C2421 C2420 1.366 . S
C2421 C2425 1.385 . S
C2422 H2403 0.951 . S
C2422 C2420 1.388 . S
C2422 C2423 1.366 . S
C2423 C2422 1.366 . S
C2423 C2424 1.414 . S
C2423 C2426 1.499 . S
C2424 H2404 0.950 . S
C2424 C2423 1.414 . S
C2424 C2425 1.374 . S
C2425 H2405 0.950 . S
C2425 C2421 1.385 . S
C2425 C2424 1.374 . S
C2426 C2423 1.499 . S
C2426 C2427 1.373 . S
C2426 C2428 1.389 . S
C2427 H2406 0.950 . S
C2427 C2426 1.373 . S
C2427 C2443 1.377 . S
C2428 C2426 1.389 . S
C2428 C2429 1.524 . S
C2428 C2442 1.377 . S
C2429 C2428 1.524 . S
C2429 C2430 1.397 . S
C2429 C2434 1.363 . S
C2430 H2407 0.950 . S
C2430 C2429 1.397 . S
C2430 C2431 1.334 . S
C2431 H2408 0.950 . S
C2431 C2430 1.334 . S
C2431 C2432 1.287 . S
C2432 C2431 1.287 . S
C2432 C2433 1.524 . S
C2432 H2451 0.913 . S
C2433 H2409 0.950 . S
C2433 C2432 1.524 . S
C2433 C2434 1.415 . S
C2434 H2410 0.950 . S
C2434 C2429 1.363 . S
C2434 C2433 1.415 . S
C2435 H2411 0.951 . S
C2435 C2436 1.366 . S
C2435 C2437 1.388 . S
C2436 C2435 1.366 . S
C2436 C2440 1.385 . S
C2437 H2412 0.951 . S
C2437 C2435 1.388 . S
C2437 C2438 1.366 . S
C2438 C2437 1.366 . S
C2438 C2439 1.414 . S
C2438 C2441 1.499 . S
C2439 H2413 0.950 . S
C2439 C2438 1.414 . S
C2439 C2440 1.374 . S
C2440 H2414 0.950 . S
C2440 C2436 1.385 . S
C2440 C2439 1.374 . S
C2441 C2438 1.499 . S
C2441 C2442 1.373 . S
C2441 C2443 1.389 . S
C2442 H2415 0.950 . S
C2442 C2428 1.377 . S
C2442 C2441 1.373 . S
C2443 C2427 1.377 . S
C2443 C2441 1.389 . S
C2443 C2444 1.524 . S
C2444 C2443 1.524 . S
C2444 C2445 1.397 . S
C2444 C2449 1.363 . S
C2445 H2416 0.950 . S
C2445 C2444 1.397 . S
C2445 C2446 1.334 . S
C2446 H2417 0.950 . S
C2446 C2445 1.334 . S
C2446 C2447 1.287 . S
C2447 C2446 1.287 . S
C2447 C2448 1.524 . S
C2447 H2450 0.999 . S
C2448 H2418 0.950 . S
C2448 C2447 1.524 . S
C2448 C2449 1.415 . S
C2449 H2419 0.950 . S
C2449 C2444 1.363 . S
C2449 C2448 1.415 . S
H2450 C2447 0.999 . S
H2451 C2432 0.913 . S
H2452 C2470 0.951 . S
H2453 C2472 0.951 . S
H2454 C2474 0.950 . S
H2455 C2475 0.950 . S
H2456 C2477 0.950 . S
H2457 C2480 0.950 . S
H2458 C2481 0.950 . S
H2459 C2483 0.950 . S
H2460 C2484 0.950 . S
H2461 C2485 0.951 . S
H2462 C2487 0.951 . S
H2463 C2489 0.950 . S
H2464 C2490 0.950 . S
H2465 C2492 0.950 . S
H2466 C2495 0.950 . S
H2467 C2496 0.950 . S
H2468 C2498 0.979 . S
H2469 C2499 0.950 . S
C2470 H2452 0.951 . S
C2470 C2471 1.366 . S
C2470 C2472 1.388 . S
C2471 C2470 1.366 . S
C2471 C2475 1.385 . S
C2472 H2453 0.951 . S
C2472 C2470 1.388 . S
C2472 C2473 1.366 . S
C2473 C2472 1.366 . S
C2473 C2474 1.414 . S
C2473 C2476 1.499 . S
C2474 H2454 0.950 . S
C2474 C2473 1.414 . S
C2474 C2475 1.374 . S
C2475 H2455 0.950 . S
C2475 C2471 1.385 . S
C2475 C2474 1.374 . S
C2476 C2473 1.499 . S
C2476 C2477 1.373 . S
C2476 C2478 1.389 . S
C2477 H2456 0.950 . S
C2477 C2476 1.373 . S
C2477 C2493 1.377 . S
C2478 C2476 1.389 . S
C2478 C2479 1.524 . S
C2478 C2492 1.377 . S
C2479 C2478 1.524 . S
C2479 C2480 1.397 . S
C2479 C2484 1.363 . S
C2480 H2457 0.950 . S
C2480 C2479 1.397 . S
C2480 C2481 1.334 . S
C2481 H2458 0.950 . S
C2481 C2480 1.334 . S
C2481 C2482 1.287 . S
C2482 C2481 1.287 . S
C2482 C2483 1.524 . S
C2482 H2501 0.913 . S
C2483 H2459 0.950 . S
C2483 C2482 1.524 . S
C2483 C2484 1.415 . S
C2484 H2460 0.950 . S
C2484 C2479 1.363 . S
C2484 C2483 1.415 . S
C2485 H2461 0.951 . S
C2485 C2486 1.366 . S
C2485 C2487 1.388 . S
C2486 C2485 1.366 . S
C2486 C2490 1.385 1_554 S
C2487 H2462 0.951 . S
C2487 C2485 1.388 . S
C2487 C2488 1.366 1_554 S
C2488 C2487 1.366 1_556 S
C2488 C2489 1.414 . S
C2488 C2491 1.499 . S
C2489 H2463 0.950 . S
C2489 C2488 1.414 . S
C2489 C2490 1.374 . S
C2490 H2464 0.950 . S
C2490 C2486 1.385 1_556 S
C2490 C2489 1.374 . S
C2491 C2488 1.499 . S
C2491 C2492 1.373 . S
C2491 C2493 1.389 . S
C2492 H2465 0.950 . S
C2492 C2478 1.377 . S
C2492 C2491 1.373 . S
C2493 C2477 1.377 . S
C2493 C2491 1.389 . S
C2493 C2494 1.524 . S
C2494 C2493 1.524 . S
C2494 C2495 1.397 . S
C2494 C2499 1.363 . S
C2495 H2466 0.950 . S
C2495 C2494 1.397 . S
C2495 C2496 1.334 . S
C2496 H2467 0.950 . S
C2496 C2495 1.334 . S
C2496 C2497 1.287 . S
C2497 C2496 1.287 . S
C2497 C2498 1.524 . S
C2497 H2500 0.999 . S
C2498 H2468 0.979 . S
C2498 C2497 1.524 . S
C2498 C2499 1.415 . S
C2499 H2469 0.950 . S
C2499 C2494 1.363 . S
C2499 C2498 1.415 . S
H2500 C2497 0.999 . S
H2501 C2482 0.913 . S
H2502 C2520 0.951 . S
H2503 C2522 0.951 . S
H2504 C2524 0.950 . S
H2505 C2525 0.950 . S
H2506 C2527 0.950 . S
H2507 C2530 0.950 . S
H2508 C2531 0.950 . S
H2509 C2533 0.950 . S
H2510 C2534 0.950 . S
H2511 C2535 0.951 . S
H2512 C2537 0.951 . S
H2513 C2539 0.950 . S
H2514 C2540 0.950 . S
H2515 C2542 0.950 . S
H2516 C2545 0.950 . S
H2517 C2546 0.950 . S
H2518 C2548 0.950 . S
H2519 C2549 0.950 . S
C2520 H2502 0.951 . S
C2520 C2521 1.366 . S
C2520 C2522 1.388 1_455 S
C2521 C2520 1.366 . S
C2521 C2525 1.385 . S
C2522 H2503 0.951 . S
C2522 C2520 1.388 1_655 S
C2522 C2523 1.366 . S
C2523 C2522 1.366 . S
C2523 C2524 1.414 . S
C2523 C2526 1.499 . S
C2524 H2504 0.950 . S
C2524 C2523 1.414 . S
C2524 C2525 1.374 1_655 S
C2525 H2505 0.950 . S
C2525 C2521 1.385 . S
C2525 C2524 1.374 1_455 S
C2526 C2523 1.499 . S
C2526 C2527 1.373 . S
C2526 C2528 1.389 . S
C2527 H2506 0.950 . S
C2527 C2526 1.373 . S
C2527 C2543 1.377 . S
C2528 C2526 1.389 . S
C2528 C2529 1.524 . S
C2528 C2542 1.377 . S
C2529 C2528 1.524 . S
C2529 C2530 1.397 . S
C2529 C2534 1.363 . S
C2530 H2507 0.950 . S
C2530 C2529 1.397 . S
C2530 C2531 1.334 1_655 S
C2531 H2508 0.950 . S
C2531 C2530 1.334 1_455 S
C2531 C2532 1.287 1_455 S
C2532 C2531 1.287 1_655 S
C2532 C2533 1.524 . S
C2532 H2551 0.913 1_655 S
C2533 H2509 0.950 . S
C2533 C2532 1.524 . S
C2533 C2534 1.415 . S
C2534 H2510 0.950 . S
C2534 C2529 1.363 . S
C2534 C2533 1.415 . S
C2535 H2511 0.951 . S
C2535 C2536 1.366 . S
C2535 C2537 1.388 . S
C2536 C2535 1.366 . S
C2536 C2540 1.385 . S
C2537 H2512 0.951 . S
C2537 C2535 1.388 . S
C2537 C2538 1.366 . S
C2538 C2537 1.366 . S
C2538 C2539 1.414 . S
C2538 C2541 1.499 . S
C2539 H2513 0.950 . S
C2539 C2538 1.414 . S
C2539 C2540 1.374 . S
C2540 H2514 0.950 . S
C2540 C2536 1.385 . S
C2540 C2539 1.374 . S
C2541 C2538 1.499 . S
C2541 C2542 1.373 . S
C2541 C2543 1.389 . S
C2542 H2515 0.950 . S
C2542 C2528 1.377 . S
C2542 C2541 1.373 . S
C2543 C2527 1.377 . S
C2543 C2541 1.389 . S
C2543 C2544 1.524 . S
C2544 C2543 1.524 . S
C2544 C2545 1.397 . S
C2544 C2549 1.363 . S
C2545 H2516 0.950 . S
C2545 C2544 1.397 . S
C2545 C2546 1.334 . S
C2546 H2517 0.950 . S
C2546 C2545 1.334 . S
C2546 C2547 1.287 . S
C2547 C2546 1.287 . S
C2547 C2548 1.524 . S
C2547 H2550 0.999 . S
C2548 H2518 0.950 . S
C2548 C2547 1.524 . S
C2548 C2549 1.415 . S
C2549 H2519 0.950 . S
C2549 C2544 1.363 . S
C2549 C2548 1.415 . S
H2550 C2547 0.999 . S
H2551 C2532 0.913 1_455 S
H2552 C2570 0.951 . S
H2553 C2572 0.951 . S
H2554 C2574 0.950 1_565 S
H2555 C2575 0.950 . S
H2556 C2577 0.950 . S
H2557 C2580 0.950 . S
H2558 C2581 0.950 . S
H2559 C2583 0.950 . S
H2560 C2584 0.950 . S
H2561 C2585 0.951 . S
H2562 C2587 0.951 . S
H2563 C2589 0.950 . S
H2564 C2590 0.950 . S
H2565 C2592 0.950 . S
H2566 C2595 0.950 . S
H2567 C2596 0.950 . S
H2568 C2598 0.972 1_655 S
H2569 C2599 0.950 1_565 S
C2570 H2552 0.951 . S
C2570 C2571 1.366 . S
C2570 C2572 1.388 . S
C2571 C2570 1.366 . S
C2571 C2575 1.385 . S
C2572 H2553 0.951 . S
C2572 C2570 1.388 . S
C2572 C2573 1.366 . S
C2573 C2572 1.366 . S
C2573 C2574 1.414 . S
C2573 C2576 1.499 . S
C2574 H2554 0.950 1_545 S
C2574 C2573 1.414 . S
C2574 C2575 1.374 . S
C2575 H2555 0.950 . S
C2575 C2571 1.385 . S
C2575 C2574 1.374 . S
C2576 C2573 1.499 . S
C2576 C2577 1.373 . S
C2576 C2578 1.389 . S
C2577 H2556 0.950 . S
C2577 C2576 1.373 . S
C2577 C2593 1.377 . S
C2578 C2576 1.389 . S
C2578 C2579 1.524 . S
C2578 C2592 1.377 . S
C2579 C2578 1.524 . S
C2579 C2580 1.397 1_545 S
C2579 C2584 1.363 . S
C2580 H2557 0.950 . S
C2580 C2579 1.397 1_565 S
C2580 C2581 1.334 . S
C2581 H2558 0.950 . S
C2581 C2580 1.334 . S
C2581 C2582 1.287 1_565 S
C2582 C2581 1.287 1_545 S
C2582 C2583 1.524 . S
C2582 H2601 0.913 . S
C2583 H2559 0.950 . S
C2583 C2582 1.524 . S
C2583 C2584 1.415 . S
C2584 H2560 0.950 . S
C2584 C2579 1.363 . S
C2584 C2583 1.415 . S
C2585 H2561 0.951 . S
C2585 C2586 1.366 1_565 S
C2585 C2587 1.388 . S
C2586 C2585 1.366 1_545 S
C2586 C2590 1.385 . S
C2587 H2562 0.951 . S
C2587 C2585 1.388 . S
C2587 C2588 1.366 1_565 S
C2588 C2587 1.366 1_545 S
C2588 C2589 1.414 . S
C2588 C2591 1.499 . S
C2589 H2563 0.950 . S
C2589 C2588 1.414 . S
C2589 C2590 1.374 . S
C2590 H2564 0.950 . S
C2590 C2586 1.385 . S
C2590 C2589 1.374 . S
C2591 C2588 1.499 . S
C2591 C2592 1.373 . S
C2591 C2593 1.389 . S
C2592 H2565 0.950 . S
C2592 C2578 1.377 . S
C2592 C2591 1.373 . S
C2593 C2577 1.377 . S
C2593 C2591 1.389 . S
C2593 C2594 1.524 . S
C2594 C2593 1.524 . S
C2594 C2595 1.397 . S
C2594 C2599 1.363 . S
C2595 H2566 0.950 . S
C2595 C2594 1.397 . S
C2595 C2596 1.334 . S
C2596 H2567 0.950 . S
C2596 C2595 1.334 . S
C2596 C2597 1.287 . S
C2597 C2596 1.287 . S
C2597 C2598 1.524 . S
C2597 H2600 0.999 1_455 S
C2598 H2568 0.972 1_455 S
C2598 C2597 1.524 . S
C2598 C2599 1.415 . S
C2599 H2569 0.950 1_545 S
C2599 C2594 1.363 . S
C2599 C2598 1.415 . S
H2600 C2597 0.999 1_655 S
H2601 C2582 0.913 . S
H2602 C2620 0.951 . S
H2603 C2622 0.951 . S
H2604 C2624 0.950 . S
H2605 C2625 0.950 . S
H2606 C2627 0.950 . S
H2607 C2630 0.950 . S
H2608 C2631 0.950 . S
H2609 C2633 0.950 . S
H2610 C2634 0.950 . S
H2611 C2635 0.951 . S
H2612 C2637 0.951 . S
H2613 C2639 0.950 . S
H2614 C2640 0.950 . S
H2615 C2642 0.950 . S
H2616 C2645 0.950 . S
H2617 C2646 0.950 . S
H2618 C2648 0.950 . S
H2619 C2649 0.950 . S
C2620 H2602 0.951 . S
C2620 C2621 1.366 . S
C2620 C2622 1.388 . S
C2621 C2620 1.366 . S
C2621 C2625 1.385 . S
C2622 H2603 0.951 . S
C2622 C2620 1.388 . S
C2622 C2623 1.366 . S
C2623 C2622 1.366 . S
C2623 C2624 1.414 . S
C2623 C2626 1.499 . S
C2624 H2604 0.950 . S
C2624 C2623 1.414 . S
C2624 C2625 1.374 . S
C2625 H2605 0.950 . S
C2625 C2621 1.385 . S
C2625 C2624 1.374 . S
C2626 C2623 1.499 . S
C2626 C2627 1.373 . S
C2626 C2628 1.389 . S
C2627 H2606 0.950 . S
C2627 C2626 1.373 . S
C2627 C2643 1.377 . S
C2628 C2626 1.389 . S
C2628 C2629 1.524 . S
C2628 C2642 1.377 . S
C2629 C2628 1.524 . S
C2629 C2630 1.397 . S
C2629 C2634 1.363 . S
C2630 H2607 0.950 . S
C2630 C2629 1.397 . S
C2630 C2631 1.334 . S
C2631 H2608 0.950 . S
C2631 C2630 1.334 . S
C2631 C2632 1.287 . S
C2632 C2631 1.287 . S
C2632 C2633 1.524 . S
C2632 H2651 0.913 . S
C2633 H2609 0.950 . S
C2633 C2632 1.524 . S
C2633 C2634 1.415 . S
C2634 H2610 0.950 . S
C2634 C2629 1.363 . S
C2634 C2633 1.415 . S
C2635 H2611 0.951 . S
C2635 C2636 1.366 . S
C2635 C2637 1.388 . S
C2636 C2635 1.366 . S
C2636 C2640 1.385 . S
C2637 H2612 0.951 . S
C2637 C2635 1.388 . S
C2637 C2638 1.366 . S
C2638 C2637 1.366 . S
C2638 C2639 1.414 . S
C2638 C2641 1.499 . S
C2639 H2613 0.950 . S
C2639 C2638 1.414 . S
C2639 C2640 1.374 . S
C2640 H2614 0.950 . S
C2640 C2636 1.385 . S
C2640 C2639 1.374 . S
C2641 C2638 1.499 . S
C2641 C2642 1.373 . S
C2641 C2643 1.389 . S
C2642 H2615 0.950 . S
C2642 C2628 1.377 . S
C2642 C2641 1.373 . S
C2643 C2627 1.377 . S
C2643 C2641 1.389 . S
C2643 C2644 1.524 . S
C2644 C2643 1.524 . S
C2644 C2645 1.397 . S
C2644 C2649 1.363 . S
C2645 H2616 0.950 . S
C2645 C2644 1.397 . S
C2645 C2646 1.334 . S
C2646 H2617 0.950 . S
C2646 C2645 1.334 . S
C2646 C2647 1.287 . S
C2647 C2646 1.287 . S
C2647 C2648 1.524 . S
C2647 H2650 0.999 . S
C2648 H2618 0.950 . S
C2648 C2647 1.524 . S
C2648 C2649 1.415 . S
C2649 H2619 0.950 . S
C2649 C2644 1.363 . S
C2649 C2648 1.415 . S
H2650 C2647 0.999 . S
H2651 C2632 0.913 . S
H2652 C2670 0.951 . S
H2653 C2672 0.964 . S
H2654 C2674 0.950 . S
H2655 C2675 0.950 . S
H2656 C2677 0.950 . S
H2657 C2680 0.950 1_545 S
H2658 C2681 0.950 . S
H2659 C2683 0.950 . S
H2660 C2684 0.950 . S
H2661 C2685 0.951 . S
H2662 C2687 0.951 . S
H2663 C2689 0.950 1_565 S
H2664 C2690 0.950 1_565 S
H2665 C2692 0.950 1_565 S
H2666 C2695 0.950 . S
H2667 C2696 0.950 . S
H2668 C2698 0.950 . S
H2669 C2699 0.950 . S
C2670 H2652 0.951 . S
C2670 C2671 1.366 . S
C2670 C2672 1.388 . S
C2671 C2670 1.366 . S
C2671 C2675 1.385 . S
C2672 H2653 0.964 . S
C2672 C2670 1.388 . S
C2672 C2673 1.366 . S
C2673 C2672 1.366 . S
C2673 C2674 1.414 . S
C2673 C2676 1.499 . S
C2674 H2654 0.950 . S
C2674 C2673 1.414 . S
C2674 C2675 1.374 . S
C2675 H2655 0.950 . S
C2675 C2671 1.385 . S
C2675 C2674 1.374 . S
C2676 C2673 1.499 . S
C2676 C2677 1.373 . S
C2676 C2678 1.389 . S
C2677 H2656 0.950 . S
C2677 C2676 1.373 . S
C2677 C2693 1.377 . S
C2678 C2676 1.389 . S
C2678 C2679 1.524 1_545 S
C2678 C2692 1.377 . S
C2679 C2678 1.524 1_565 S
C2679 C2680 1.397 . S
C2679 C2684 1.363 . S
C2680 H2657 0.950 1_565 S
C2680 C2679 1.397 . S
C2680 C2681 1.334 . S
C2681 H2658 0.950 . S
C2681 C2680 1.334 . S
C2681 C2682 1.287 . S
C2682 C2681 1.287 . S
C2682 C2683 1.524 . S
C2682 H2701 0.913 . S
C2683 H2659 0.950 . S
C2683 C2682 1.524 . S
C2683 C2684 1.415 . S
C2684 H2660 0.950 . S
C2684 C2679 1.363 . S
C2684 C2683 1.415 . S
C2685 H2661 0.951 . S
C2685 C2686 1.366 . S
C2685 C2687 1.388 . S
C2686 C2685 1.366 . S
C2686 C2690 1.385 . S
C2687 H2662 0.951 . S
C2687 C2685 1.388 . S
C2687 C2688 1.366 . S
C2688 C2687 1.366 . S
C2688 C2689 1.414 . S
C2688 C2691 1.499 . S
C2689 H2663 0.950 1_545 S
C2689 C2688 1.414 . S
C2689 C2690 1.374 . S
C2690 H2664 0.950 1_545 S
C2690 C2686 1.385 . S
C2690 C2689 1.374 . S
C2691 C2688 1.499 . S
C2691 C2692 1.373 . S
C2691 C2693 1.389 . S
C2692 H2665 0.950 1_545 S
C2692 C2678 1.377 . S
C2692 C2691 1.373 . S
C2693 C2677 1.377 . S
C2693 C2691 1.389 . S
C2693 C2694 1.524 . S
C2694 C2693 1.524 . S
C2694 C2695 1.397 . S
C2694 C2699 1.363 . S
C2695 H2666 0.950 . S
C2695 C2694 1.397 . S
C2695 C2696 1.334 . S
C2696 H2667 0.950 . S
C2696 C2695 1.334 . S
C2696 C2697 1.287 . S
C2697 C2696 1.287 . S
C2697 C2698 1.524 . S
C2697 H2700 0.999 . S
C2698 H2668 0.950 . S
C2698 C2697 1.524 . S
C2698 C2699 1.415 . S
C2699 H2669 0.950 . S
C2699 C2694 1.363 . S
C2699 C2698 1.415 . S
H2700 C2697 0.999 . S
H2701 C2682 0.913 . S
H2702 C2720 0.951 . S
H2703 C2722 0.951 . S
H2704 C2724 0.950 . S
H2705 C2725 0.950 . S
H2706 C2727 0.950 . S
H2707 C2730 0.950 . S
H2708 C2731 0.950 . S
H2709 C2733 0.950 . S
H2710 C2734 0.950 . S
H2711 C2735 0.951 . S
H2712 C2737 0.951 . S
H2713 C2739 0.950 . S
H2714 C2740 0.950 . S
H2715 C2742 0.950 . S
H2716 C2745 0.950 . S
H2717 C2746 0.950 . S
H2718 C2748 0.950 . S
H2719 C2749 0.950 . S
C2720 H2702 0.951 . S
C2720 C2721 1.366 . S
C2720 C2722 1.388 . S
C2721 C2720 1.366 . S
C2721 C2725 1.385 . S
C2722 H2703 0.951 . S
C2722 C2720 1.388 . S
C2722 C2723 1.366 . S
C2723 C2722 1.366 . S
C2723 C2724 1.414 . S
C2723 C2726 1.499 . S
C2724 H2704 0.950 . S
C2724 C2723 1.414 . S
C2724 C2725 1.374 . S
C2725 H2705 0.950 . S
C2725 C2721 1.385 . S
C2725 C2724 1.374 . S
C2726 C2723 1.499 . S
C2726 C2727 1.373 . S
C2726 C2728 1.389 . S
C2727 H2706 0.950 . S
C2727 C2726 1.373 . S
C2727 C2743 1.377 . S
C2728 C2726 1.389 . S
C2728 C2729 1.524 . S
C2728 C2742 1.377 . S
C2729 C2728 1.524 . S
C2729 C2730 1.397 . S
C2729 C2734 1.363 . S
C2730 H2707 0.950 . S
C2730 C2729 1.397 . S
C2730 C2731 1.334 . S
C2731 H2708 0.950 . S
C2731 C2730 1.334 . S
C2731 C2732 1.287 . S
C2732 C2731 1.287 . S
C2732 C2733 1.524 . S
C2732 H2751 0.913 . S
C2733 H2709 0.950 . S
C2733 C2732 1.524 . S
C2733 C2734 1.415 . S
C2734 H2710 0.950 . S
C2734 C2729 1.363 . S
C2734 C2733 1.415 . S
C2735 H2711 0.951 . S
C2735 C2736 1.366 . S
C2735 C2737 1.388 . S
C2736 C2735 1.366 . S
C2736 C2740 1.385 . S
C2737 H2712 0.951 . S
C2737 C2735 1.388 . S
C2737 C2738 1.366 . S
C2738 C2737 1.366 . S
C2738 C2739 1.414 . S
C2738 C2741 1.499 . S
C2739 H2713 0.950 . S
C2739 C2738 1.414 . S
C2739 C2740 1.374 . S
C2740 H2714 0.950 . S
C2740 C2736 1.385 . S
C2740 C2739 1.374 . S
C2741 C2738 1.499 . S
C2741 C2742 1.373 . S
C2741 C2743 1.389 . S
C2742 H2715 0.950 . S
C2742 C2728 1.377 . S
C2742 C2741 1.373 . S
C2743 C2727 1.377 . S
C2743 C2741 1.389 . S
C2743 C2744 1.524 . S
C2744 C2743 1.524 . S
C2744 C2745 1.397 . S
C2744 C2749 1.363 . S
C2745 H2716 0.950 . S
C2745 C2744 1.397 . S
C2745 C2746 1.334 . S
C2746 H2717 0.950 . S
C2746 C2745 1.334 . S
C2746 C2747 1.287 . S
C2747 C2746 1.287 . S
C2747 C2748 1.524 . S
C2747 H2750 0.999 . S
C2748 H2718 0.950 . S
C2748 C2747 1.524 . S
C2748 C2749 1.415 . S
C2749 H2719 0.950 . S
C2749 C2744 1.363 . S
C2749 C2748 1.415 . S
H2750 C2747 0.999 . S
H2751 C2732 0.913 . S
H2752 C2770 0.951 . S
H2753 C2772 0.951 . S
H2754 C2774 0.950 1_565 S
H2755 C2775 0.928 1_565 S
H2756 C2777 0.950 . S
H2757 C2780 0.950 . S
H2758 C2781 0.950 . S
H2759 C2783 0.950 . S
H2760 C2784 0.950 . S
H2761 C2785 0.951 1_565 S
H2762 C2787 0.951 1_565 S
H2763 C2789 0.950 . S
H2764 C2790 0.950 . S
H2765 C2792 0.950 . S
H2766 C2795 0.950 . S
H2767 C2796 0.950 . S
H2768 C2798 0.950 . S
H2769 C2799 0.950 . S
C2770 H2752 0.951 . S
C2770 C2771 1.366 . S
C2770 C2772 1.388 . S
C2771 C2770 1.366 . S
C2771 C2775 1.385 . S
C2772 H2753 0.951 . S
C2772 C2770 1.388 . S
C2772 C2773 1.366 . S
C2773 C2772 1.366 . S
C2773 C2774 1.414 . S
C2773 C2776 1.499 . S
C2774 H2754 0.950 1_545 S
C2774 C2773 1.414 . S
C2774 C2775 1.374 . S
C2775 H2755 0.928 1_545 S
C2775 C2771 1.385 . S
C2775 C2774 1.374 . S
C2776 C2773 1.499 . S
C2776 C2777 1.373 . S
C2776 C2778 1.389 . S
C2777 H2756 0.950 . S
C2777 C2776 1.373 . S
C2777 C2793 1.377 . S
C2778 C2776 1.389 . S
C2778 C2779 1.524 . S
C2778 C2792 1.377 . S
C2779 C2778 1.524 . S
C2779 C2780 1.397 1_545 S
C2779 C2784 1.363 . S
C2780 H2757 0.950 . S
C2780 C2779 1.397 1_565 S
C2780 C2781 1.334 . S
C2781 H2758 0.950 . S
C2781 C2780 1.334 . S
C2781 C2782 1.287 1_565 S
C2782 C2781 1.287 1_545 S
C2782 C2783 1.524 . S
C2782 H2801 0.913 . S
C2783 H2759 0.950 . S
C2783 C2782 1.524 . S
C2783 C2784 1.415 . S
C2784 H2760 0.950 . S
C2784 C2779 1.363 . S
C2784 C2783 1.415 . S
C2785 H2761 0.951 1_545 S
C2785 C2786 1.366 . S
C2785 C2787 1.388 . S
C2786 C2785 1.366 . S
C2786 C2790 1.385 . S
C2787 H2762 0.951 1_545 S
C2787 C2785 1.388 . S
C2787 C2788 1.366 . S
C2788 C2787 1.366 . S
C2788 C2789 1.414 . S
C2788 C2791 1.499 . S
C2789 H2763 0.950 . S
C2789 C2788 1.414 . S
C2789 C2790 1.374 . S
C2790 H2764 0.950 . S
C2790 C2786 1.385 . S
C2790 C2789 1.374 . S
C2791 C2788 1.499 . S
C2791 C2792 1.373 . S
C2791 C2793 1.389 . S
C2792 H2765 0.950 . S
C2792 C2778 1.377 . S
C2792 C2791 1.373 . S
C2793 C2777 1.377 . S
C2793 C2791 1.389 . S
C2793 C2794 1.524 . S
C2794 C2793 1.524 . S
C2794 C2795 1.397 . S
C2794 C2799 1.363 . S
C2795 H2766 0.950 . S
C2795 C2794 1.397 . S
C2795 C2796 1.334 . S
C2796 H2767 0.950 . S
C2796 C2795 1.334 . S
C2796 C2797 1.287 . S
C2797 C2796 1.287 . S
C2797 C2798 1.524 . S
C2797 H2800 0.999 . S
C2798 H2768 0.950 . S
C2798 C2797 1.524 . S
C2798 C2799 1.415 . S
C2799 H2769 0.950 . S
C2799 C2794 1.363 . S
C2799 C2798 1.415 . S
H2800 C2797 0.999 . S
H2801 C2782 0.913 . S
H2802 C2820 0.951 . S
H2803 C2822 0.951 . S
H2804 C2824 0.950 . S
H2805 C2825 0.950 . S
H2806 C2827 0.950 . S
H2807 C2830 0.950 . S
H2808 C2831 0.950 . S
H2809 C2833 0.950 . S
H2810 C2834 0.950 . S
H2811 C2835 0.951 . S
H2812 C2837 0.951 . S
H2813 C2839 0.950 . S
H2814 C2840 0.950 . S
H2815 C2842 0.950 . S
H2816 C2845 0.950 . S
H2817 C2846 0.950 . S
H2818 C2848 0.950 . S
H2819 C2849 0.950 . S
C2820 H2802 0.951 . S
C2820 C2821 1.366 . S
C2820 C2822 1.388 . S
C2821 C2820 1.366 . S
C2821 C2825 1.385 . S
C2822 H2803 0.951 . S
C2822 C2820 1.388 . S
C2822 C2823 1.366 . S
C2823 C2822 1.366 . S
C2823 C2824 1.414 . S
C2823 C2826 1.499 . S
C2824 H2804 0.950 . S
C2824 C2823 1.414 . S
C2824 C2825 1.374 . S
C2825 H2805 0.950 . S
C2825 C2821 1.385 . S
C2825 C2824 1.374 . S
C2826 C2823 1.499 . S
C2826 C2827 1.373 . S
C2826 C2828 1.389 . S
C2827 H2806 0.950 . S
C2827 C2826 1.373 . S
C2827 C2843 1.377 . S
C2828 C2826 1.389 . S
C2828 C2829 1.524 . S
C2828 C2842 1.377 . S
C2829 C2828 1.524 . S
C2829 C2830 1.397 . S
C2829 C2834 1.363 . S
C2830 H2807 0.950 . S
C2830 C2829 1.397 . S
C2830 C2831 1.334 . S
C2831 H2808 0.950 . S
C2831 C2830 1.334 . S
C2831 C2832 1.287 . S
C2832 C2831 1.287 . S
C2832 C2833 1.524 . S
C2832 H2851 0.913 . S
C2833 H2809 0.950 . S
C2833 C2832 1.524 . S
C2833 C2834 1.415 . S
C2834 H2810 0.950 . S
C2834 C2829 1.363 . S
C2834 C2833 1.415 . S
C2835 H2811 0.951 . S
C2835 C2836 1.366 . S
C2835 C2837 1.388 . S
C2836 C2835 1.366 . S
C2836 C2840 1.385 . S
C2837 H2812 0.951 . S
C2837 C2835 1.388 . S
C2837 C2838 1.366 . S
C2838 C2837 1.366 . S
C2838 C2839 1.414 . S
C2838 C2841 1.499 . S
C2839 H2813 0.950 . S
C2839 C2838 1.414 . S
C2839 C2840 1.374 . S
C2840 H2814 0.950 . S
C2840 C2836 1.385 . S
C2840 C2839 1.374 . S
C2841 C2838 1.499 . S
C2841 C2842 1.373 . S
C2841 C2843 1.389 . S
C2842 H2815 0.950 . S
C2842 C2828 1.377 . S
C2842 C2841 1.373 . S
C2843 C2827 1.377 . S
C2843 C2841 1.389 . S
C2843 C2844 1.524 . S
C2844 C2843 1.524 . S
C2844 C2845 1.397 . S
C2844 C2849 1.363 . S
C2845 H2816 0.950 . S
C2845 C2844 1.397 . S
C2845 C2846 1.334 . S
C2846 H2817 0.950 . S
C2846 C2845 1.334 . S
C2846 C2847 1.287 . S
C2847 C2846 1.287 . S
C2847 C2848 1.524 . S
C2847 H2850 0.999 . S
C2848 H2818 0.950 . S
C2848 C2847 1.524 . S
C2848 C2849 1.415 . S
C2849 H2819 0.950 . S
C2849 C2844 1.363 . S
C2849 C2848 1.415 . S
H2850 C2847 0.999 . S
H2851 C2832 0.913 . S
H2852 C2870 0.951 . S
H2853 C2872 0.951 . S
H2854 C2874 0.950 1_565 S
H2855 C2875 0.946 1_565 S
H2856 C2877 0.950 . S
H2857 C2880 0.950 . S
H2858 C2881 0.950 . S
H2859 C2883 0.950 1_545 S
H2860 C2884 0.950 . S
H2861 C2885 0.951 . S
H2862 C2887 0.951 . S
H2863 C2889 0.950 . S
H2864 C2890 0.950 . S
H2865 C2892 0.952 . S
H2866 C2895 0.950 . S
H2867 C2896 0.950 . S
H2868 C2898 0.950 . S
H2869 C2899 0.950 . S
C2870 H2852 0.951 . S
C2870 C2871 1.366 . S
C2870 C2872 1.388 . S
C2871 C2870 1.366 . S
C2871 C2875 1.385 . S
C2872 H2853 0.951 . S
C2872 C2870 1.388 . S
C2872 C2873 1.366 . S
C2873 C2872 1.366 . S
C2873 C2874 1.414 . S
C2873 C2876 1.499 . S
C2874 H2854 0.950 1_545 S
C2874 C2873 1.414 . S
C2874 C2875 1.374 . S
C2875 H2855 0.946 1_545 S
C2875 C2871 1.385 . S
C2875 C2874 1.374 . S
C2876 C2873 1.499 . S
C2876 C2877 1.373 . S
C2876 C2878 1.389 . S
C2877 H2856 0.950 . S
C2877 C2876 1.373 . S
C2877 C2893 1.377 . S
C2878 C2876 1.389 . S
C2878 C2879 1.524 1_545 S
C2878 C2892 1.377 . S
C2879 C2878 1.524 1_565 S
C2879 C2880 1.397 . S
C2879 C2884 1.363 1_565 S
C2880 H2857 0.950 . S
C2880 C2879 1.397 . S
C2880 C2881 1.334 . S
C2881 H2858 0.950 . S
C2881 C2880 1.334 . S
C2881 C2882 1.287 . S
C2882 C2881 1.287 . S
C2882 C2883 1.524 . S
C2882 H2901 0.913 . S
C2883 H2859 0.950 1_565 S
C2883 C2882 1.524 . S
C2883 C2884 1.415 1_565 S
C2884 H2860 0.950 . S
C2884 C2879 1.363 1_545 S
C2884 C2883 1.415 1_545 S
C2885 H2861 0.951 . S
C2885 C2886 1.334 1_565 S
C2885 C2887 1.388 . S
C2886 C2885 1.334 1_545 S
C2886 C2890 1.425 . S
C2887 H2862 0.951 . S
C2887 C2885 1.388 . S
C2887 C2888 1.366 1_565 S
C2888 C2887 1.366 1_545 S
C2888 C2889 1.414 . S
C2888 C2891 1.499 . S
C2889 H2863 0.950 . S
C2889 C2888 1.414 . S
C2889 C2890 1.374 . S
C2890 H2864 0.950 . S
C2890 C2886 1.425 . S
C2890 C2889 1.374 . S
C2891 C2888 1.499 . S
C2891 C2892 1.373 . S
C2891 C2893 1.389 . S
C2892 H2865 0.952 . S
C2892 C2878 1.377 . S
C2892 C2891 1.373 . S
C2893 C2877 1.377 . S
C2893 C2891 1.389 . S
C2893 C2894 1.524 . S
C2894 C2893 1.524 . S
C2894 C2895 1.397 . S
C2894 C2899 1.363 . S
C2895 H2866 0.950 . S
C2895 C2894 1.397 . S
C2895 C2896 1.334 . S
C2896 H2867 0.950 . S
C2896 C2895 1.334 . S
C2896 C2897 1.287 . S
C2897 C2896 1.287 . S
C2897 C2898 1.524 . S
C2897 H2900 0.999 . S
C2898 H2868 0.950 . S
C2898 C2897 1.524 . S
C2898 C2899 1.415 . S
C2899 H2869 0.950 . S
C2899 C2894 1.363 . S
C2899 C2898 1.415 . S
H2900 C2897 0.999 . S
H2901 C2882 0.913 . S
H2902 C2920 0.951 . S
H2903 C2922 0.951 . S
H2904 C2924 0.950 . S
H2905 C2925 0.950 . S
H2906 C2927 0.950 . S
H2907 C2930 0.950 . S
H2908 C2931 0.950 . S
H2909 C2933 0.950 . S
H2910 C2934 0.950 . S
H2911 C2935 0.951 . S
H2912 C2937 0.951 . S
H2913 C2939 0.950 . S
H2914 C2940 0.950 . S
H2915 C2942 0.950 . S
H2916 C2945 0.950 . S
H2917 C2946 0.950 . S
H2918 C2948 0.950 . S
H2919 C2949 0.950 . S
C2920 H2902 0.951 . S
C2920 C2921 1.366 . S
C2920 C2922 1.388 . S
C2921 C2920 1.366 . S
C2921 C2925 1.385 . S
C2922 H2903 0.951 . S
C2922 C2920 1.388 . S
C2922 C2923 1.366 . S
C2923 C2922 1.366 . S
C2923 C2924 1.414 . S
C2923 C2926 1.499 . S
C2924 H2904 0.950 . S
C2924 C2923 1.414 . S
C2924 C2925 1.374 . S
C2925 H2905 0.950 . S
C2925 C2921 1.385 . S
C2925 C2924 1.374 . S
C2926 C2923 1.499 . S
C2926 C2927 1.373 . S
C2926 C2928 1.389 . S
C2927 H2906 0.950 . S
C2927 C2926 1.373 . S
C2927 C2943 1.377 . S
C2928 C2926 1.389 . S
C2928 C2929 1.524 . S
C2928 C2942 1.377 . S
C2929 C2928 1.524 . S
C2929 C2930 1.397 . S
C2929 C2934 1.363 . S
C2930 H2907 0.950 . S
C2930 C2929 1.397 . S
C2930 C2931 1.334 . S
C2931 H2908 0.950 . S
C2931 C2930 1.334 . S
C2931 C2932 1.287 . S
C2932 C2931 1.287 . S
C2932 C2933 1.524 . S
C2932 H2951 0.913 . S
C2933 H2909 0.950 . S
C2933 C2932 1.524 . S
C2933 C2934 1.415 . S
C2934 H2910 0.950 . S
C2934 C2929 1.363 . S
C2934 C2933 1.415 . S
C2935 H2911 0.951 . S
C2935 C2936 1.366 . S
C2935 C2937 1.388 . S
C2936 C2935 1.366 . S
C2936 C2940 1.385 . S
C2937 H2912 0.951 . S
C2937 C2935 1.388 . S
C2937 C2938 1.366 . S
C2938 C2937 1.366 . S
C2938 C2939 1.414 . S
C2938 C2941 1.499 . S
C2939 H2913 0.950 . S
C2939 C2938 1.414 . S
C2939 C2940 1.374 . S
C2940 H2914 0.950 . S
C2940 C2936 1.385 . S
C2940 C2939 1.374 . S
C2941 C2938 1.499 . S
C2941 C2942 1.373 . S
C2941 C2943 1.389 . S
C2942 H2915 0.950 . S
C2942 C2928 1.377 . S
C2942 C2941 1.373 . S
C2943 C2927 1.377 . S
C2943 C2941 1.389 . S
C2943 C2944 1.524 . S
C2944 C2943 1.524 . S
C2944 C2945 1.397 . S
C2944 C2949 1.363 . S
C2945 H2916 0.950 . S
C2945 C2944 1.397 . S
C2945 C2946 1.334 . S
C2946 H2917 0.950 . S
C2946 C2945 1.334 . S
C2946 C2947 1.287 . S
C2947 C2946 1.287 . S
C2947 C2948 1.524 . S
C2947 H2950 0.999 . S
C2948 H2918 0.950 . S
C2948 C2947 1.524 . S
C2948 C2949 1.415 . S
C2949 H2919 0.950 . S
C2949 C2944 1.363 . S
C2949 C2948 1.415 . S
H2950 C2947 0.999 . S
H2951 C2932 0.913 . S
H2952 C2970 0.951 . S
H2953 C2972 0.951 . S
H2954 C2974 0.950 . S
H2955 C2975 0.950 . S
H2956 C2977 0.950 . S
H2957 C2980 0.950 . S
H2958 C2981 0.950 . S
H2959 C2983 0.950 . S
H2960 C2984 0.950 . S
H2961 C2985 0.951 . S
H2962 C2987 0.951 . S
H2963 C2989 0.950 . S
H2964 C2990 0.950 . S
H2965 C2992 0.950 . S
H2966 C2995 0.950 . S
H2967 C2996 0.950 . S
H2968 C2998 0.950 . S
H2969 C2999 0.950 . S
C2970 H2952 0.951 . S
C2970 C2971 1.366 . S
C2970 C2972 1.388 . S
C2971 C2970 1.366 . S
C2971 C2975 1.385 . S
C2972 H2953 0.951 . S
C2972 C2970 1.388 . S
C2972 C2973 1.366 . S
C2973 C2972 1.366 . S
C2973 C2974 1.414 . S
C2973 C2976 1.499 . S
C2974 H2954 0.950 . S
C2974 C2973 1.414 . S
C2974 C2975 1.374 . S
C2975 H2955 0.950 . S
C2975 C2971 1.385 . S
C2975 C2974 1.374 . S
C2976 C2973 1.499 . S
C2976 C2977 1.373 . S
C2976 C2978 1.389 . S
C2977 H2956 0.950 . S
C2977 C2976 1.373 . S
C2977 C2993 1.377 . S
C2978 C2976 1.389 . S
C2978 C2979 1.524 . S
C2978 C2992 1.377 . S
C2979 C2978 1.524 . S
C2979 C2980 1.397 . S
C2979 C2984 1.363 . S
C2980 H2957 0.950 . S
C2980 C2979 1.397 . S
C2980 C2981 1.334 . S
C2981 H2958 0.950 . S
C2981 C2980 1.334 . S
C2981 C2982 1.287 . S
C2982 C2981 1.287 . S
C2982 C2983 1.524 . S
C2982 H3001 0.913 . S
C2983 H2959 0.950 . S
C2983 C2982 1.524 . S
C2983 C2984 1.415 . S
C2984 H2960 0.950 . S
C2984 C2979 1.363 . S
C2984 C2983 1.415 . S
C2985 H2961 0.951 . S
C2985 C2986 1.366 1_554 S
C2985 C2987 1.388 . S
C2986 C2985 1.366 1_556 S
C2986 C2990 1.385 . S
C2987 H2962 0.951 . S
C2987 C2985 1.388 . S
C2987 C2988 1.366 . S
C2988 C2987 1.366 . S
C2988 C2989 1.414 1_554 S
C2988 C2991 1.499 . S
C2989 H2963 0.950 . S
C2989 C2988 1.414 1_556 S
C2989 C2990 1.374 . S
C2990 H2964 0.950 . S
C2990 C2986 1.385 . S
C2990 C2989 1.374 . S
C2991 C2988 1.499 . S
C2991 C2992 1.373 . S
C2991 C2993 1.389 . S
C2992 H2965 0.950 . S
C2992 C2978 1.377 . S
C2992 C2991 1.373 . S
C2993 C2977 1.377 . S
C2993 C2991 1.389 . S
C2993 C2994 1.524 1_554 S
C2994 C2993 1.524 1_556 S
C2994 C2995 1.397 . S
C2994 C2999 1.363 1_556 S
C2995 H2966 0.950 . S
C2995 C2994 1.397 . S
C2995 C2996 1.334 . S
C2996 H2967 0.950 . S
C2996 C2995 1.334 . S
C2996 C2997 1.287 . S
C2997 C2996 1.287 . S
C2997 C2998 1.524 . S
C2997 H3000 0.999 . S
C2998 H2968 0.950 . S
C2998 C2997 1.524 . S
C2998 C2999 1.415 1_556 S
C2999 H2969 0.950 . S
C2999 C2994 1.363 1_554 S
C2999 C2998 1.415 1_554 S
H3000 C2997 0.999 . S
H3001 C2982 0.913 . S
H3002 C3020 0.951 . S
H3003 C3022 0.951 . S
H3004 C3024 0.950 . S
H3005 C3025 0.950 . S
H3006 C3027 0.950 . S
H3007 C3030 0.950 1_554 S
H3008 C3031 0.950 . S
H3009 C3033 0.950 . S
H3010 C3034 0.950 . S
H3011 C3035 0.951 . S
H3012 C3037 0.951 . S
H3013 C3039 0.950 . S
H3014 C3040 0.950 . S
H3015 C3042 0.950 . S
H3016 C3045 0.950 . S
H3017 C3046 0.950 . S
H3018 C3048 0.950 . S
H3019 C3049 0.950 . S
C3020 H3002 0.951 . S
C3020 C3021 1.366 . S
C3020 C3022 1.388 . S
C3021 C3020 1.366 . S
C3021 C3025 1.385 . S
C3022 H3003 0.951 . S
C3022 C3020 1.388 . S
C3022 C3023 1.366 . S
C3023 C3022 1.366 . S
C3023 C3024 1.414 . S
C3023 C3026 1.499 . S
C3024 H3004 0.950 . S
C3024 C3023 1.414 . S
C3024 C3025 1.374 . S
C3025 H3005 0.950 . S
C3025 C3021 1.385 . S
C3025 C3024 1.374 . S
C3026 C3023 1.499 . S
C3026 C3027 1.373 . S
C3026 C3028 1.389 . S
C3027 H3006 0.950 . S
C3027 C3026 1.373 . S
C3027 C3043 1.377 . S
C3028 C3026 1.389 . S
C3028 C3029 1.524 1_554 S
C3028 C3042 1.377 . S
C3029 C3028 1.524 1_556 S
C3029 C3030 1.397 . S
C3029 C3034 1.363 . S
C3030 H3007 0.950 1_556 S
C3030 C3029 1.397 . S
C3030 C3031 1.334 . S
C3031 H3008 0.950 . S
C3031 C3030 1.334 . S
C3031 C3032 1.287 . S
C3032 C3031 1.287 . S
C3032 C3033 1.524 . S
C3032 H3051 0.913 . S
C3033 H3009 0.950 . S
C3033 C3032 1.524 . S
C3033 C3034 1.415 . S
C3034 H3010 0.950 . S
C3034 C3029 1.363 . S
C3034 C3033 1.415 . S
C3035 H3011 0.951 . S
C3035 C3036 1.366 . S
C3035 C3037 1.388 . S
C3036 C3035 1.366 . S
C3036 C3040 1.385 . S
C3037 H3012 0.951 . S
C3037 C3035 1.388 . S
C3037 C3038 1.366 . S
C3038 C3037 1.366 . S
C3038 C3039 1.414 . S
C3038 C3041 1.499 . S
C3039 H3013 0.950 . S
C3039 C3038 1.414 . S
C3039 C3040 1.374 . S
C3040 H3014 0.950 . S
C3040 C3036 1.385 . S
C3040 C3039 1.374 . S
C3041 C3038 1.499 . S
C3041 C3042 1.373 . S
C3041 C3043 1.389 . S
C3042 H3015 0.950 . S
C3042 C3028 1.377 . S
C3042 C3041 1.373 . S
C3043 C3027 1.377 . S
C3043 C3041 1.389 . S
C3043 C3044 1.524 . S
C3044 C3043 1.524 . S
C3044 C3045 1.397 . S
C3044 C3049 1.363 . S
C3045 H3016 0.950 . S
C3045 C3044 1.397 . S
C3045 C3046 1.334 . S
C3046 H3017 0.950 . S
C3046 C3045 1.334 . S
C3046 C3047 1.287 . S
C3047 C3046 1.287 . S
C3047 C3048 1.524 . S
C3047 H3050 0.999 . S
C3048 H3018 0.950 . S
C3048 C3047 1.524 . S
C3048 C3049 1.415 . S
C3049 H3019 0.950 . S
C3049 C3044 1.363 . S
C3049 C3048 1.415 . S
H3050 C3047 0.999 . S
H3051 C3032 0.913 . S
H3052 C3070 0.951 . S
H3053 C3072 0.951 . S
H3054 C3074 0.950 . S
H3055 C3075 0.950 . S
H3056 C3077 0.950 . S
H3057 C3080 0.950 . S
H3058 C3081 0.950 . S
H3059 C3083 0.950 . S
H3060 C3084 0.950 . S
H3061 C3085 0.951 . S
H3062 C3087 0.951 . S
H3063 C3089 0.950 . S
H3064 C3090 0.950 . S
H3065 C3092 0.950 . S
H3066 C3095 0.950 . S
H3067 C3096 0.950 . S
H3068 C3098 0.950 . S
H3069 C3099 0.950 . S
C3070 H3052 0.951 . S
C3070 C3071 1.366 . S
C3070 C3072 1.388 . S
C3071 C3070 1.366 . S
C3071 C3075 1.385 . S
C3072 H3053 0.951 . S
C3072 C3070 1.388 . S
C3072 C3073 1.366 . S
C3073 C3072 1.366 . S
C3073 C3074 1.414 . S
C3073 C3076 1.499 . S
C3074 H3054 0.950 . S
C3074 C3073 1.414 . S
C3074 C3075 1.374 . S
C3075 H3055 0.950 . S
C3075 C3071 1.385 . S
C3075 C3074 1.374 . S
C3076 C3073 1.499 . S
C3076 C3077 1.373 . S
C3076 C3078 1.389 . S
C3077 H3056 0.950 . S
C3077 C3076 1.373 . S
C3077 C3093 1.377 . S
C3078 C3076 1.389 . S
C3078 C3079 1.524 . S
C3078 C3092 1.377 . S
C3079 C3078 1.524 . S
C3079 C3080 1.397 . S
C3079 C3084 1.363 . S
C3080 H3057 0.950 . S
C3080 C3079 1.397 . S
C3080 C3081 1.334 . S
C3081 H3058 0.950 . S
C3081 C3080 1.334 . S
C3081 C3082 1.287 . S
C3082 C3081 1.287 . S
C3082 C3083 1.524 . S
C3082 H3101 0.913 . S
C3083 H3059 0.950 . S
C3083 C3082 1.524 . S
C3083 C3084 1.415 . S
C3084 H3060 0.950 . S
C3084 C3079 1.363 . S
C3084 C3083 1.415 . S
C3085 H3061 0.951 . S
C3085 C3086 1.366 . S
C3085 C3087 1.388 . S
C3086 C3085 1.366 . S
C3086 C3090 1.385 . S
C3087 H3062 0.951 . S
C3087 C3085 1.388 . S
C3087 C3088 1.366 . S
C3088 C3087 1.366 . S
C3088 C3089 1.414 . S
C3088 C3091 1.499 . S
C3089 H3063 0.950 . S
C3089 C3088 1.414 . S
C3089 C3090 1.374 . S
C3090 H3064 0.950 . S
C3090 C3086 1.385 . S
C3090 C3089 1.374 . S
C3091 C3088 1.499 . S
C3091 C3092 1.373 . S
C3091 C3093 1.389 . S
C3092 H3065 0.950 . S
C3092 C3078 1.377 . S
C3092 C3091 1.373 . S
C3093 C3077 1.377 . S
C3093 C3091 1.389 . S
C3093 C3094 1.524 . S
C3094 C3093 1.524 . S
C3094 C3095 1.397 . S
C3094 C3099 1.363 . S
C3095 H3066 0.950 . S
C3095 C3094 1.397 . S
C3095 C3096 1.334 . S
C3096 H3067 0.950 . S
C3096 C3095 1.334 . S
C3096 C3097 1.287 . S
C3097 C3096 1.287 . S
C3097 C3098 1.524 . S
C3097 H3100 0.999 . S
C3098 H3068 0.950 . S
C3098 C3097 1.524 . S
C3098 C3099 1.415 . S
C3099 H3069 0.950 . S
C3099 C3094 1.363 . S
C3099 C3098 1.415 . S
H3100 C3097 0.999 . S
H3101 C3082 0.913 . S
H3102 C3120 0.951 . S
H3103 C3122 0.951 . S
H3104 C3124 0.950 . S
H3105 C3125 0.950 . S
H3106 C3127 0.950 . S
H3107 C3130 0.950 . S
H3108 C3131 0.950 . S
H3109 C3133 0.950 . S
H3110 C3134 0.950 . S
H3111 C3135 0.951 . S
H3112 C3137 0.951 . S
H3113 C3139 0.950 . S
H3114 C3140 0.950 . S
H3115 C3142 0.950 . S
H3116 C3145 0.950 . S
H3117 C3146 0.950 . S
H3118 C3148 0.950 . S
H3119 C3149 0.950 . S
C3120 H3102 0.951 . S
C3120 C3121 1.366 . S
C3120 C3122 1.388 . S
C3121 C3120 1.366 . S
C3121 C3125 1.385 . S
C3122 H3103 0.951 . S
C3122 C3120 1.388 . S
C3122 C3123 1.366 . S
C3123 C3122 1.366 . S
C3123 C3124 1.414 . S
C3123 C3126 1.499 . S
C3124 H3104 0.950 . S
C3124 C3123 1.414 . S
C3124 C3125 1.374 . S
C3125 H3105 0.950 . S
C3125 C3121 1.385 . S
C3125 C3124 1.374 . S
C3126 C3123 1.499 . S
C3126 C3127 1.373 . S
C3126 C3128 1.389 . S
C3127 H3106 0.950 . S
C3127 C3126 1.373 . S
C3127 C3143 1.377 . S
C3128 C3126 1.389 . S
C3128 C3129 1.524 . S
C3128 C3142 1.377 . S
C3129 C3128 1.524 . S
C3129 C3130 1.397 . S
C3129 C3134 1.363 . S
C3130 H3107 0.950 . S
C3130 C3129 1.397 . S
C3130 C3131 1.334 . S
C3131 H3108 0.950 . S
C3131 C3130 1.334 . S
C3131 C3132 1.287 . S
C3132 C3131 1.287 . S
C3132 C3133 1.524 . S
C3132 H3151 0.913 . S
C3133 H3109 0.950 . S
C3133 C3132 1.524 . S
C3133 C3134 1.415 . S
C3134 H3110 0.950 . S
C3134 C3129 1.363 . S
C3134 C3133 1.415 . S
C3135 H3111 0.951 . S
C3135 C3136 1.366 . S
C3135 C3137 1.388 . S
C3136 C3135 1.366 . S
C3136 C3140 1.385 . S
C3137 H3112 0.951 . S
C3137 C3135 1.388 . S
C3137 C3138 1.366 . S
C3138 C3137 1.366 . S
C3138 C3139 1.414 . S
C3138 C3141 1.499 . S
C3139 H3113 0.950 . S
C3139 C3138 1.414 . S
C3139 C3140 1.374 . S
C3140 H3114 0.950 . S
C3140 C3136 1.385 . S
C3140 C3139 1.374 . S
C3141 C3138 1.499 . S
C3141 C3142 1.373 . S
C3141 C3143 1.389 . S
C3142 H3115 0.950 . S
C3142 C3128 1.377 . S
C3142 C3141 1.373 . S
C3143 C3127 1.377 . S
C3143 C3141 1.389 . S
C3143 C3144 1.524 . S
C3144 C3143 1.524 . S
C3144 C3145 1.397 . S
C3144 C3149 1.363 . S
C3145 H3116 0.950 . S
C3145 C3144 1.397 . S
C3145 C3146 1.334 . S
C3146 H3117 0.950 . S
C3146 C3145 1.334 . S
C3146 C3147 1.287 . S
C3147 C3146 1.287 . S
C3147 C3148 1.524 . S
C3147 H3150 0.999 . S
C3148 H3118 0.950 . S
C3148 C3147 1.524 . S
C3148 C3149 1.415 . S
C3149 H3119 0.950 . S
C3149 C3144 1.363 . S
C3149 C3148 1.415 . S
H3150 C3147 0.999 . S
H3151 C3132 0.913 . S
H3152 C3170 0.951 . S
H3153 C3172 0.951 . S
H3154 C3174 0.950 . S
H3155 C3175 0.950 . S
H3156 C3177 0.950 . S
H3157 C3180 0.950 . S
H3158 C3181 0.950 . S
H3159 C3183 0.950 . S
H3160 C3184 0.950 . S
H3161 C3185 0.951 . S
H3162 C3187 0.951 . S
H3163 C3189 0.950 . S
H3164 C3190 0.950 . S
H3165 C3192 0.950 . S
H3166 C3195 0.950 . S
H3167 C3196 0.950 . S
H3168 C3198 0.950 . S
H3169 C3199 0.950 . S
C3170 H3152 0.951 . S
C3170 C3171 1.366 . S
C3170 C3172 1.388 . S
C3171 C3170 1.366 . S
C3171 C3175 1.385 . S
C3172 H3153 0.951 . S
C3172 C3170 1.388 . S
C3172 C3173 1.366 . S
C3173 C3172 1.366 . S
C3173 C3174 1.414 . S
C3173 C3176 1.499 . S
C3174 H3154 0.950 . S
C3174 C3173 1.414 . S
C3174 C3175 1.374 . S
C3175 H3155 0.950 . S
C3175 C3171 1.385 . S
C3175 C3174 1.374 . S
C3176 C3173 1.499 . S
C3176 C3177 1.373 . S
C3176 C3178 1.389 . S
C3177 H3156 0.950 . S
C3177 C3176 1.373 . S
C3177 C3193 1.377 . S
C3178 C3176 1.389 . S
C3178 C3179 1.524 . S
C3178 C3192 1.377 . S
C3179 C3178 1.524 . S
C3179 C3180 1.397 . S
C3179 C3184 1.363 . S
C3180 H3157 0.950 . S
C3180 C3179 1.397 . S
C3180 C3181 1.334 . S
C3181 H3158 0.950 . S
C3181 C3180 1.334 . S
C3181 C3182 1.287 . S
C3182 C3181 1.287 . S
C3182 C3183 1.524 . S
C3182 H3201 0.913 . S
C3183 H3159 0.950 . S
C3183 C3182 1.524 . S
C3183 C3184 1.415 . S
C3184 H3160 0.950 . S
C3184 C3179 1.363 . S
C3184 C3183 1.415 . S
C3185 H3161 0.951 . S
C3185 C3186 1.366 . S
C3185 C3187 1.388 . S
C3186 C3185 1.366 . S
C3186 C3190 1.385 . S
C3187 H3162 0.951 . S
C3187 C3185 1.388 . S
C3187 C3188 1.366 . S
C3188 C3187 1.366 . S
C3188 C3189 1.414 . S
C3188 C3191 1.499 . S
C3189 H3163 0.950 . S
C3189 C3188 1.414 . S
C3189 C3190 1.374 . S
C3190 H3164 0.950 . S
C3190 C3186 1.385 . S
C3190 C3189 1.374 . S
C3191 C3188 1.499 . S
C3191 C3192 1.373 . S
C3191 C3193 1.389 . S
C3192 H3165 0.950 . S
C3192 C3178 1.377 . S
C3192 C3191 1.373 . S
C3193 C3177 1.377 . S
C3193 C3191 1.389 . S
C3193 C3194 1.524 . S
C3194 C3193 1.524 . S
C3194 C3195 1.397 . S
C3194 C3199 1.363 . S
C3195 H3166 0.950 . S
C3195 C3194 1.397 . S
C3195 C3196 1.334 . S
C3196 H3167 0.950 . S
C3196 C3195 1.334 . S
C3196 C3197 1.287 . S
C3197 C3196 1.287 . S
C3197 C3198 1.524 . S
C3197 H3200 0.999 . S
C3198 H3168 0.950 . S
C3198 C3197 1.524 . S
C3198 C3199 1.415 . S
C3199 H3169 0.950 . S
C3199 C3194 1.363 . S
C3199 C3198 1.415 . S
H3200 C3197 0.999 . S
H3201 C3182 0.913 . S
H3202 C3220 0.951 . S
H3203 C3222 0.951 . S
H3204 C3224 0.950 . S
H3205 C3225 0.950 . S
H3206 C3227 0.950 . S
H3207 C3230 0.950 . S
H3208 C3231 0.950 . S
H3209 C3233 0.950 . S
H3210 C3234 0.950 . S
H3211 C3235 0.951 . S
H3212 C3237 0.951 . S
H3213 C3239 0.950 . S
H3214 C3240 0.950 . S
H3215 C3242 0.950 . S
H3216 C3245 0.950 . S
H3217 C3246 0.950 . S
H3218 C3248 0.950 . S
H3219 C3249 0.950 . S
C3220 H3202 0.951 . S
C3220 C3221 1.366 . S
C3220 C3222 1.388 . S
C3221 C3220 1.366 . S
C3221 C3225 1.385 . S
C3222 H3203 0.951 . S
C3222 C3220 1.388 . S
C3222 C3223 1.366 . S
C3223 C3222 1.366 . S
C3223 C3224 1.414 . S
C3223 C3226 1.499 . S
C3224 H3204 0.950 . S
C3224 C3223 1.414 . S
C3224 C3225 1.374 . S
C3225 H3205 0.950 . S
C3225 C3221 1.385 . S
C3225 C3224 1.374 . S
C3226 C3223 1.499 . S
C3226 C3227 1.373 . S
C3226 C3228 1.389 . S
C3227 H3206 0.950 . S
C3227 C3226 1.373 . S
C3227 C3243 1.377 . S
C3228 C3226 1.389 . S
C3228 C3229 1.524 . S
C3228 C3242 1.377 . S
C3229 C3228 1.524 . S
C3229 C3230 1.397 . S
C3229 C3234 1.363 . S
C3230 H3207 0.950 . S
C3230 C3229 1.397 . S
C3230 C3231 1.334 . S
C3231 H3208 0.950 . S
C3231 C3230 1.334 . S
C3231 C3232 1.287 . S
C3232 C3231 1.287 . S
C3232 C3233 1.524 . S
C3232 H3251 0.913 . S
C3233 H3209 0.950 . S
C3233 C3232 1.524 . S
C3233 C3234 1.415 . S
C3234 H3210 0.950 . S
C3234 C3229 1.363 . S
C3234 C3233 1.415 . S
C3235 H3211 0.951 . S
C3235 C3236 1.366 . S
C3235 C3237 1.388 . S
C3236 C3235 1.366 . S
C3236 C3240 1.385 . S
C3237 H3212 0.951 . S
C3237 C3235 1.388 . S
C3237 C3238 1.366 . S
C3238 C3237 1.366 . S
C3238 C3239 1.414 . S
C3238 C3241 1.499 . S
C3239 H3213 0.950 . S
C3239 C3238 1.414 . S
C3239 C3240 1.374 . S
C3240 H3214 0.950 . S
C3240 C3236 1.385 . S
C3240 C3239 1.374 . S
C3241 C3238 1.499 . S
C3241 C3242 1.373 . S
C3241 C3243 1.389 . S
C3242 H3215 0.950 . S
C3242 C3228 1.377 . S
C3242 C3241 1.373 . S
C3243 C3227 1.377 . S
C3243 C3241 1.389 . S
C3243 C3244 1.524 . S
C3244 C3243 1.524 . S
C3244 C3245 1.397 . S
C3244 C3249 1.363 . S
C3245 H3216 0.950 . S
C3245 C3244 1.397 . S
C3245 C3246 1.334 . S
C3246 H3217 0.950 . S
C3246 C3245 1.334 . S
C3246 C3247 1.287 . S
C3247 C3246 1.287 . S
C3247 C3248 1.524 . S
C3247 H3250 0.999 . S
C3248 H3218 0.950 . S
C3248 C3247 1.524 . S
C3248 C3249 1.415 . S
C3249 H3219 0.950 . S
C3249 C3244 1.363 . S
C3249 C3248 1.415 . S
H3250 C3247 0.999 . S
H3251 C3232 0.913 . S
H3252 C3270 0.951 . S
H3253 C3272 0.951 . S
H3254 C3274 0.950 . S
H3255 C3275 0.950 . S
H3256 C3277 0.950 . S
H3257 C3280 0.950 . S
H3258 C3281 0.950 . S
H3259 C3283 0.950 . S
H3260 C3284 0.950 . S
H3261 C3285 0.951 . S
H3262 C3287 0.951 . S
H3263 C3289 0.950 . S
H3264 C3290 0.950 . S
H3265 C3292 0.950 . S
H3266 C3295 0.950 . S
H3267 C3296 0.950 . S
H3268 C3298 0.950 . S
H3269 C3299 0.950 . S
C3270 H3252 0.951 . S
C3270 C3271 1.366 . S
C3270 C3272 1.388 . S
C3271 C3270 1.366 . S
C3271 C3275 1.385 . S
C3272 H3253 0.951 . S
C3272 C3270 1.388 . S
C3272 C3273 1.366 . S
C3273 C3272 1.366 . S
C3273 C3274 1.414 . S
C3273 C3276 1.499 . S
C3274 H3254 0.950 . S
C3274 C3273 1.414 . S
C3274 C3275 1.374 . S
C3275 H3255 0.950 . S
C3275 C3271 1.385 . S
C3275 C3274 1.374 . S
C3276 C3273 1.499 . S
C3276 C3277 1.373 . S
C3276 C3278 1.389 . S
C3277 H3256 0.950 . S
C3277 C3276 1.373 . S
C3277 C3293 1.377 . S
C3278 C3276 1.389 . S
C3278 C3279 1.524 . S
C3278 C3292 1.377 . S
C3279 C3278 1.524 . S
C3279 C3280 1.397 . S
C3279 C3284 1.363 . S
C3280 H3257 0.950 . S
C3280 C3279 1.397 . S
C3280 C3281 1.334 . S
C3281 H3258 0.950 . S
C3281 C3280 1.334 . S
C3281 C3282 1.287 . S
C3282 C3281 1.287 . S
C3282 C3283 1.524 . S
C3282 H3301 0.913 . S
C3283 H3259 0.950 . S
C3283 C3282 1.524 . S
C3283 C3284 1.415 . S
C3284 H3260 0.950 . S
C3284 C3279 1.363 . S
C3284 C3283 1.415 . S
C3285 H3261 0.951 . S
C3285 C3286 1.366 . S
C3285 C3287 1.388 . S
C3286 C3285 1.366 . S
C3286 C3290 1.385 . S
C3287 H3262 0.951 . S
C3287 C3285 1.388 . S
C3287 C3288 1.366 . S
C3288 C3287 1.366 . S
C3288 C3289 1.414 . S
C3288 C3291 1.499 . S
C3289 H3263 0.950 . S
C3289 C3288 1.414 . S
C3289 C3290 1.374 . S
C3290 H3264 0.950 . S
C3290 C3286 1.385 . S
C3290 C3289 1.374 . S
C3291 C3288 1.499 . S
C3291 C3292 1.373 . S
C3291 C3293 1.389 . S
C3292 H3265 0.950 . S
C3292 C3278 1.377 . S
C3292 C3291 1.373 . S
C3293 C3277 1.377 . S
C3293 C3291 1.389 . S
C3293 C3294 1.524 . S
C3294 C3293 1.524 . S
C3294 C3295 1.397 . S
C3294 C3299 1.363 . S
C3295 H3266 0.950 . S
C3295 C3294 1.397 . S
C3295 C3296 1.334 . S
C3296 H3267 0.950 . S
C3296 C3295 1.334 . S
C3296 C3297 1.287 . S
C3297 C3296 1.287 . S
C3297 C3298 1.524 . S
C3297 H3300 0.999 . S
C3298 H3268 0.950 . S
C3298 C3297 1.524 . S
C3298 C3299 1.415 . S
C3299 H3269 0.950 . S
C3299 C3294 1.363 . S
C3299 C3298 1.415 . S
H3300 C3297 0.999 . S
H3301 C3282 0.913 . S
H3302 C3320 0.951 . S
H3303 C3322 0.951 . S
H3304 C3324 0.950 . S
H3305 C3325 0.950 . S
H3306 C3327 0.950 . S
H3307 C3330 0.950 . S
H3308 C3331 0.950 . S
H3309 C3333 0.950 . S
H3310 C3334 0.950 . S
H3311 C3335 0.951 . S
H3312 C3337 0.951 . S
H3313 C3339 0.950 . S
H3314 C3340 0.950 . S
H3315 C3342 0.950 . S
H3316 C3345 0.950 . S
H3317 C3346 0.950 . S
H3318 C3348 0.950 . S
H3319 C3349 0.950 . S
C3320 H3302 0.951 . S
C3320 C3321 1.366 . S
C3320 C3322 1.388 . S
C3321 C3320 1.366 . S
C3321 C3325 1.385 . S
C3322 H3303 0.951 . S
C3322 C3320 1.388 . S
C3322 C3323 1.366 . S
C3323 C3322 1.366 . S
C3323 C3324 1.414 . S
C3323 C3326 1.499 . S
C3324 H3304 0.950 . S
C3324 C3323 1.414 . S
C3324 C3325 1.374 . S
C3325 H3305 0.950 . S
C3325 C3321 1.385 . S
C3325 C3324 1.374 . S
C3326 C3323 1.499 . S
C3326 C3327 1.373 . S
C3326 C3328 1.389 . S
C3327 H3306 0.950 . S
C3327 C3326 1.373 . S
C3327 C3343 1.377 . S
C3328 C3326 1.389 . S
C3328 C3329 1.524 . S
C3328 C3342 1.377 . S
C3329 C3328 1.524 . S
C3329 C3330 1.397 . S
C3329 C3334 1.363 . S
C3330 H3307 0.950 . S
C3330 C3329 1.397 . S
C3330 C3331 1.334 . S
C3331 H3308 0.950 . S
C3331 C3330 1.334 . S
C3331 C3332 1.287 . S
C3332 C3331 1.287 . S
C3332 C3333 1.524 . S
C3332 H3351 0.913 . S
C3333 H3309 0.950 . S
C3333 C3332 1.524 . S
C3333 C3334 1.415 . S
C3334 H3310 0.950 . S
C3334 C3329 1.363 . S
C3334 C3333 1.415 . S
C3335 H3311 0.951 . S
C3335 C3336 1.366 . S
C3335 C3337 1.388 . S
C3336 C3335 1.366 . S
C3336 C3340 1.385 . S
C3337 H3312 0.951 . S
C3337 C3335 1.388 . S
C3337 C3338 1.366 . S
C3338 C3337 1.366 . S
C3338 C3339 1.414 . S
C3338 C3341 1.499 . S
C3339 H3313 0.950 . S
C3339 C3338 1.414 . S
C3339 C3340 1.374 . S
C3340 H3314 0.950 . S
C3340 C3336 1.385 . S
C3340 C3339 1.374 . S
C3341 C3338 1.499 . S
C3341 C3342 1.373 . S
C3341 C3343 1.389 . S
C3342 H3315 0.950 . S
C3342 C3328 1.377 . S
C3342 C3341 1.373 . S
C3343 C3327 1.377 . S
C3343 C3341 1.389 . S
C3343 C3344 1.524 . S
C3344 C3343 1.524 . S
C3344 C3345 1.397 . S
C3344 C3349 1.363 . S
C3345 H3316 0.950 . S
C3345 C3344 1.397 . S
C3345 C3346 1.334 . S
C3346 H3317 0.950 . S
C3346 C3345 1.334 . S
C3346 C3347 1.287 . S
C3347 C3346 1.287 . S
C3347 C3348 1.524 . S
C3347 H3350 0.999 . S
C3348 H3318 0.950 . S
C3348 C3347 1.524 . S
C3348 C3349 1.415 . S
C3349 H3319 0.950 . S
C3349 C3344 1.363 . S
C3349 C3348 1.415 . S
H3350 C3347 0.999 . S
H3351 C3332 0.913 . S
H3352 C3370 0.951 . S
H3353 C3372 0.951 . S
H3354 C3374 0.950 . S
H3355 C3375 0.950 . S
H3356 C3377 0.950 . S
H3357 C3380 0.950 . S
H3358 C3381 0.950 . S
H3359 C3383 0.950 . S
H3360 C3384 0.950 . S
H3361 C3385 0.951 . S
H3362 C3387 0.951 . S
H3363 C3389 0.950 . S
H3364 C3390 0.950 . S
H3365 C3392 0.950 . S
H3366 C3395 0.950 . S
H3367 C3396 0.950 . S
H3368 C3398 0.950 . S
H3369 C3399 0.950 . S
C3370 H3352 0.951 . S
C3370 C3371 1.366 . S
C3370 C3372 1.388 . S
C3371 C3370 1.366 . S
C3371 C3375 1.385 . S
C3372 H3353 0.951 . S
C3372 C3370 1.388 . S
C3372 C3373 1.366 . S
C3373 C3372 1.366 . S
C3373 C3374 1.414 . S
C3373 C3376 1.499 . S
C3374 H3354 0.950 . S
C3374 C3373 1.414 . S
C3374 C3375 1.374 . S
C3375 H3355 0.950 . S
C3375 C3371 1.385 . S
C3375 C3374 1.374 . S
C3376 C3373 1.499 . S
C3376 C3377 1.373 . S
C3376 C3378 1.389 . S
C3377 H3356 0.950 . S
C3377 C3376 1.373 . S
C3377 C3393 1.377 . S
C3378 C3376 1.389 . S
C3378 C3379 1.524 . S
C3378 C3392 1.377 . S
C3379 C3378 1.524 . S
C3379 C3380 1.397 . S
C3379 C3384 1.363 . S
C3380 H3357 0.950 . S
C3380 C3379 1.397 . S
C3380 C3381 1.334 . S
C3381 H3358 0.950 . S
C3381 C3380 1.334 . S
C3381 C3382 1.287 . S
C3382 C3381 1.287 . S
C3382 C3383 1.524 . S
C3382 H3401 0.913 . S
C3383 H3359 0.950 . S
C3383 C3382 1.524 . S
C3383 C3384 1.415 . S
C3384 H3360 0.950 . S
C3384 C3379 1.363 . S
C3384 C3383 1.415 . S
C3385 H3361 0.951 . S
C3385 C3386 1.366 . S
C3385 C3387 1.388 . S
C3386 C3385 1.366 . S
C3386 C3390 1.385 . S
C3387 H3362 0.951 . S
C3387 C3385 1.388 . S
C3387 C3388 1.366 . S
C3388 C3387 1.366 . S
C3388 C3389 1.414 . S
C3388 C3391 1.499 . S
C3389 H3363 0.950 . S
C3389 C3388 1.414 . S
C3389 C3390 1.374 . S
C3390 H3364 0.950 . S
C3390 C3386 1.385 . S
C3390 C3389 1.374 . S
C3391 C3388 1.499 . S
C3391 C3392 1.373 . S
C3391 C3393 1.389 . S
C3392 H3365 0.950 . S
C3392 C3378 1.377 . S
C3392 C3391 1.373 . S
C3393 C3377 1.377 . S
C3393 C3391 1.389 . S
C3393 C3394 1.524 . S
C3394 C3393 1.524 . S
C3394 C3395 1.397 . S
C3394 C3399 1.363 . S
C3395 H3366 0.950 . S
C3395 C3394 1.397 . S
C3395 C3396 1.334 . S
C3396 H3367 0.950 . S
C3396 C3395 1.334 . S
C3396 C3397 1.287 . S
C3397 C3396 1.287 . S
C3397 C3398 1.524 . S
C3397 H3400 0.999 . S
C3398 H3368 0.950 . S
C3398 C3397 1.524 . S
C3398 C3399 1.415 . S
C3399 H3369 0.950 . S
C3399 C3394 1.363 . S
C3399 C3398 1.415 . S
H3400 C3397 0.999 . S
H3401 C3382 0.913 . S
H3402 C3420 0.951 . S
H3403 C3422 0.951 . S
H3404 C3424 0.950 . S
H3405 C3425 0.950 . S
H3406 C3427 0.950 . S
H3407 C3430 0.950 . S
H3408 C3431 0.950 . S
H3409 C3433 0.950 . S
H3410 C3434 0.950 . S
H3411 C3435 0.951 . S
H3412 C3437 0.951 . S
H3413 C3439 0.950 . S
H3414 C3440 0.950 . S
H3415 C3442 0.950 . S
H3416 C3445 0.950 . S
H3417 C3446 0.950 . S
H3418 C3448 0.950 . S
H3419 C3449 0.950 . S
C3420 H3402 0.951 . S
C3420 C3421 1.366 . S
C3420 C3422 1.388 . S
C3421 C3420 1.366 . S
C3421 C3425 1.385 . S
C3422 H3403 0.951 . S
C3422 C3420 1.388 . S
C3422 C3423 1.366 . S
C3423 C3422 1.366 . S
C3423 C3424 1.414 . S
C3423 C3426 1.499 . S
C3424 H3404 0.950 . S
C3424 C3423 1.414 . S
C3424 C3425 1.374 . S
C3425 H3405 0.950 . S
C3425 C3421 1.385 . S
C3425 C3424 1.374 . S
C3426 C3423 1.499 . S
C3426 C3427 1.373 . S
C3426 C3428 1.389 . S
C3427 H3406 0.950 . S
C3427 C3426 1.373 . S
C3427 C3443 1.377 . S
C3428 C3426 1.389 . S
C3428 C3429 1.524 . S
C3428 C3442 1.377 . S
C3429 C3428 1.524 . S
C3429 C3430 1.397 . S
C3429 C3434 1.363 . S
C3430 H3407 0.950 . S
C3430 C3429 1.397 . S
C3430 C3431 1.334 . S
C3431 H3408 0.950 . S
C3431 C3430 1.334 . S
C3431 C3432 1.287 . S
C3432 C3431 1.287 . S
C3432 C3433 1.524 . S
C3432 H3451 0.913 . S
C3433 H3409 0.950 . S
C3433 C3432 1.524 . S
C3433 C3434 1.415 . S
C3434 H3410 0.950 . S
C3434 C3429 1.363 . S
C3434 C3433 1.415 . S
C3435 H3411 0.951 . S
C3435 C3436 1.366 . S
C3435 C3437 1.388 . S
C3436 C3435 1.366 . S
C3436 C3440 1.385 . S
C3437 H3412 0.951 . S
C3437 C3435 1.388 . S
C3437 C3438 1.366 . S
C3438 C3437 1.366 . S
C3438 C3439 1.414 . S
C3438 C3441 1.499 . S
C3439 H3413 0.950 . S
C3439 C3438 1.414 . S
C3439 C3440 1.374 . S
C3440 H3414 0.950 . S
C3440 C3436 1.385 . S
C3440 C3439 1.374 . S
C3441 C3438 1.499 . S
C3441 C3442 1.373 . S
C3441 C3443 1.389 . S
C3442 H3415 0.950 . S
C3442 C3428 1.377 . S
C3442 C3441 1.373 . S
C3443 C3427 1.377 . S
C3443 C3441 1.389 . S
C3443 C3444 1.524 . S
C3444 C3443 1.524 . S
C3444 C3445 1.397 . S
C3444 C3449 1.363 . S
C3445 H3416 0.950 . S
C3445 C3444 1.397 . S
C3445 C3446 1.334 . S
C3446 H3417 0.950 . S
C3446 C3445 1.334 . S
C3446 C3447 1.287 . S
C3447 C3446 1.287 . S
C3447 C3448 1.524 . S
C3447 H3450 0.999 . S
C3448 H3418 0.950 . S
C3448 C3447 1.524 . S
C3448 C3449 1.415 . S
C3449 H3419 0.950 . S
C3449 C3444 1.363 . S
C3449 C3448 1.415 . S
H3450 C3447 0.999 . S
H3451 C3432 0.913 . S
H3452 C3470 0.951 . S
H3453 C3472 0.951 . S
H3454 C3474 0.950 1_655 S
H3455 C3475 0.950 1_655 S
H3456 C3477 0.950 . S
H3457 C3480 0.950 . S
H3458 C3481 0.950 . S
H3459 C3483 0.950 . S
H3460 C3484 0.950 . S
H3461 C3485 0.951 . S
H3462 C3487 0.951 . S
H3463 C3489 0.950 . S
H3464 C3490 0.950 . S
H3465 C3492 0.938 1_554 S
H3466 C3495 0.950 . S
H3467 C3496 0.950 . S
H3468 C3498 0.950 . S
H3469 C3499 0.950 1_655 S
C3470 H3452 0.951 . S
C3470 C3471 1.366 . S
C3470 C3472 1.388 . S
C3471 C3470 1.366 . S
C3471 C3475 1.385 . S
C3472 H3453 0.951 . S
C3472 C3470 1.388 . S
C3472 C3473 1.366 . S
C3473 C3472 1.366 . S
C3473 C3474 1.414 . S
C3473 C3476 1.499 . S
C3474 H3454 0.950 1_455 S
C3474 C3473 1.414 . S
C3474 C3475 1.374 . S
C3475 H3455 0.950 1_455 S
C3475 C3471 1.385 . S
C3475 C3474 1.374 . S
C3476 C3473 1.499 . S
C3476 C3477 1.373 . S
C3476 C3478 1.389 . S
C3477 H3456 0.950 . S
C3477 C3476 1.373 . S
C3477 C3493 1.377 . S
C3478 C3476 1.389 . S
C3478 C3479 1.524 1_556 S
C3478 C3492 1.379 . S
C3479 C3478 1.524 1_554 S
C3479 C3480 1.397 . S
C3479 C3484 1.363 . S
C3480 H3457 0.950 . S
C3480 C3479 1.397 . S
C3480 C3481 1.334 . S
C3481 H3458 0.950 . S
C3481 C3480 1.334 . S
C3481 C3482 1.287 . S
C3482 C3481 1.287 . S
C3482 C3483 1.524 . S
C3482 H3501 0.913 . S
C3483 H3459 0.950 . S
C3483 C3482 1.524 . S
C3483 C3484 1.415 . S
C3484 H3460 0.950 . S
C3484 C3479 1.363 . S
C3484 C3483 1.415 . S
C3485 H3461 0.951 . S
C3485 C3486 1.366 1_556 S
C3485 C3487 1.388 . S
C3486 C3485 1.366 1_554 S
C3486 C3490 1.385 . S
C3487 H3462 0.951 . S
C3487 C3485 1.388 . S
C3487 C3488 1.366 . S
C3488 C3487 1.366 . S
C3488 C3489 1.414 1_556 S
C3488 C3491 1.499 . S
C3489 H3463 0.950 . S
C3489 C3488 1.414 1_554 S
C3489 C3490 1.374 . S
C3490 H3464 0.950 . S
C3490 C3486 1.385 . S
C3490 C3489 1.374 . S
C3491 C3488 1.499 . S
C3491 C3492 1.384 . S
C3491 C3493 1.389 . S
C3492 H3465 0.938 1_556 S
C3492 C3478 1.379 . S
C3492 C3491 1.384 . S
C3493 C3477 1.377 . S
C3493 C3491 1.389 . S
C3493 C3494 1.524 . S
C3494 C3493 1.524 . S
C3494 C3495 1.397 . S
C3494 C3499 1.363 . S
C3495 H3466 0.950 . S
C3495 C3494 1.397 . S
C3495 C3496 1.334 . S
C3496 H3467 0.950 . S
C3496 C3495 1.334 . S
C3496 C3497 1.287 . S
C3497 C3496 1.287 . S
C3497 C3498 1.524 1_455 S
C3497 H3500 0.999 . S
C3498 H3468 0.950 . S
C3498 C3497 1.524 1_655 S
C3498 C3499 1.415 1_655 S
C3499 H3469 0.950 1_455 S
C3499 C3494 1.363 . S
C3499 C3498 1.415 1_455 S
H3500 C3497 0.999 . S
H3501 C3482 0.913 . S
H3502 C3520 0.951 1_455 S
H3503 C3522 0.951 . S
H3504 C3524 0.950 . S
H3505 C3525 0.950 . S
H3506 C3527 0.950 . S
H3507 C3530 0.950 . S
H3508 C3531 0.950 1_455 S
H3509 C3533 0.950 . S
H3510 C3534 0.950 . S
H3511 C3535 0.951 . S
H3512 C3537 0.951 . S
H3513 C3539 0.950 . S
H3514 C3540 0.950 . S
H3515 C3542 0.950 . S
H3516 C3545 0.950 . S
H3517 C3546 0.950 . S
H3518 C3548 0.950 . S
H3519 C3549 0.950 . S
C3520 H3502 0.951 1_655 S
C3520 C3521 1.366 . S
C3520 C3522 1.388 . S
C3521 C3520 1.366 . S
C3521 C3525 1.385 . S
C3522 H3503 0.951 . S
C3522 C3520 1.388 . S
C3522 C3523 1.366 . S
C3523 C3522 1.366 . S
C3523 C3524 1.414 . S
C3523 C3526 1.499 . S
C3524 H3504 0.950 . S
C3524 C3523 1.414 . S
C3524 C3525 1.374 . S
C3525 H3505 0.950 . S
C3525 C3521 1.385 . S
C3525 C3524 1.374 . S
C3526 C3523 1.499 . S
C3526 C3527 1.373 . S
C3526 C3528 1.389 . S
C3527 H3506 0.950 . S
C3527 C3526 1.373 . S
C3527 C3543 1.377 . S
C3528 C3526 1.389 . S
C3528 C3529 1.524 . S
C3528 C3542 1.377 . S
C3529 C3528 1.524 . S
C3529 C3530 1.397 . S
C3529 C3534 1.363 . S
C3530 H3507 0.950 . S
C3530 C3529 1.397 . S
C3530 C3531 1.334 . S
C3531 H3508 0.950 1_655 S
C3531 C3530 1.334 . S
C3531 C3532 1.287 . S
C3532 C3531 1.287 . S
C3532 C3533 1.524 . S
C3532 H3551 0.913 1_655 S
C3533 H3509 0.950 . S
C3533 C3532 1.524 . S
C3533 C3534 1.415 . S
C3534 H3510 0.950 . S
C3534 C3529 1.363 . S
C3534 C3533 1.415 . S
C3535 H3511 0.951 . S
C3535 C3536 1.366 . S
C3535 C3537 1.388 . S
C3536 C3535 1.366 . S
C3536 C3540 1.385 . S
C3537 H3512 0.951 . S
C3537 C3535 1.388 . S
C3537 C3538 1.366 . S
C3538 C3537 1.366 . S
C3538 C3539 1.414 . S
C3538 C3541 1.499 . S
C3539 H3513 0.950 . S
C3539 C3538 1.414 . S
C3539 C3540 1.374 . S
C3540 H3514 0.950 . S
C3540 C3536 1.385 . S
C3540 C3539 1.374 . S
C3541 C3538 1.499 . S
C3541 C3542 1.373 . S
C3541 C3543 1.389 . S
C3542 H3515 0.950 . S
C3542 C3528 1.377 . S
C3542 C3541 1.373 . S
C3543 C3527 1.377 . S
C3543 C3541 1.389 . S
C3543 C3544 1.524 . S
C3544 C3543 1.524 . S
C3544 C3545 1.397 . S
C3544 C3549 1.363 . S
C3545 H3516 0.950 . S
C3545 C3544 1.397 . S
C3545 C3546 1.334 . S
C3546 H3517 0.950 . S
C3546 C3545 1.334 . S
C3546 C3547 1.287 . S
C3547 C3546 1.287 . S
C3547 C3548 1.524 . S
C3547 H3550 0.999 . S
C3548 H3518 0.950 . S
C3548 C3547 1.524 . S
C3548 C3549 1.415 . S
C3549 H3519 0.950 . S
C3549 C3544 1.363 . S
C3549 C3548 1.415 . S
H3550 C3547 0.999 . S
H3551 C3532 0.913 1_455 S
H3552 C3570 0.951 . S
H3553 C3572 0.951 . S
H3554 C3574 0.950 . S
H3555 C3575 0.950 . S
H3556 C3577 0.950 . S
H3557 C3580 0.950 . S
H3558 C3581 0.950 . S
H3559 C3583 0.950 . S
H3560 C3584 0.950 . S
H3561 C3585 0.951 . S
H3562 C3587 0.951 . S
H3563 C3589 0.950 . S
H3564 C3590 0.950 . S
H3565 C3592 0.950 . S
H3566 C3595 0.950 . S
H3567 C3596 0.950 . S
H3568 C3598 0.950 . S
H3569 C3599 0.950 . S
C3570 H3552 0.951 . S
C3570 C3571 1.366 . S
C3570 C3572 1.388 . S
C3571 C3570 1.366 . S
C3571 C3575 1.385 . S
C3572 H3553 0.951 . S
C3572 C3570 1.388 . S
C3572 C3573 1.366 . S
C3573 C3572 1.366 . S
C3573 C3574 1.414 . S
C3573 C3576 1.499 . S
C3574 H3554 0.950 . S
C3574 C3573 1.414 . S
C3574 C3575 1.374 . S
C3575 H3555 0.950 . S
C3575 C3571 1.385 . S
C3575 C3574 1.374 . S
C3576 C3573 1.499 . S
C3576 C3577 1.373 . S
C3576 C3578 1.389 . S
C3577 H3556 0.950 . S
C3577 C3576 1.373 . S
C3577 C3593 1.377 . S
C3578 C3576 1.389 . S
C3578 C3579 1.524 . S
C3578 C3592 1.377 . S
C3579 C3578 1.524 . S
C3579 C3580 1.397 . S
C3579 C3584 1.363 . S
C3580 H3557 0.950 . S
C3580 C3579 1.397 . S
C3580 C3581 1.334 . S
C3581 H3558 0.950 . S
C3581 C3580 1.334 . S
C3581 C3582 1.287 . S
C3582 C3581 1.287 . S
C3582 C3583 1.524 . S
C3582 H3601 0.913 . S
C3583 H3559 0.950 . S
C3583 C3582 1.524 . S
C3583 C3584 1.415 . S
C3584 H3560 0.950 . S
C3584 C3579 1.363 . S
C3584 C3583 1.415 . S
C3585 H3561 0.951 . S
C3585 C3586 1.366 . S
C3585 C3587 1.388 . S
C3586 C3585 1.366 . S
C3586 C3590 1.385 . S
C3587 H3562 0.951 . S
C3587 C3585 1.388 . S
C3587 C3588 1.366 . S
C3588 C3587 1.366 . S
C3588 C3589 1.414 . S
C3588 C3591 1.499 . S
C3589 H3563 0.950 . S
C3589 C3588 1.414 . S
C3589 C3590 1.374 . S
C3590 H3564 0.950 . S
C3590 C3586 1.385 . S
C3590 C3589 1.374 . S
C3591 C3588 1.499 . S
C3591 C3592 1.373 . S
C3591 C3593 1.389 . S
C3592 H3565 0.950 . S
C3592 C3578 1.377 . S
C3592 C3591 1.373 . S
C3593 C3577 1.377 . S
C3593 C3591 1.389 . S
C3593 C3594 1.524 . S
C3594 C3593 1.524 . S
C3594 C3595 1.397 . S
C3594 C3599 1.363 . S
C3595 H3566 0.950 . S
C3595 C3594 1.397 . S
C3595 C3596 1.334 . S
C3596 H3567 0.950 . S
C3596 C3595 1.334 . S
C3596 C3597 1.287 . S
C3597 C3596 1.287 . S
C3597 C3598 1.524 . S
C3597 H3600 0.999 . S
C3598 H3568 0.950 . S
C3598 C3597 1.524 . S
C3598 C3599 1.415 . S
C3599 H3569 0.950 . S
C3599 C3594 1.363 . S
C3599 C3598 1.415 . S
H3600 C3597 0.999 . S
H3601 C3582 0.913 . S
H3602 C3620 0.951 . S
H3603 C3622 0.951 . S
H3604 C3624 0.950 . S
H3605 C3625 0.950 . S
H3606 C3627 0.950 . S
H3607 C3630 0.950 . S
H3608 C3631 0.950 . S
H3609 C3633 0.950 . S
H3610 C3634 0.950 . S
H3611 C3635 0.951 . S
H3612 C3637 0.951 . S
H3613 C3639 0.950 . S
H3614 C3640 0.950 . S
H3615 C3642 0.950 . S
H3616 C3645 0.950 . S
H3617 C3646 0.950 . S
H3618 C3648 0.950 . S
H3619 C3649 0.950 . S
C3620 H3602 0.951 . S
C3620 C3621 1.366 . S
C3620 C3622 1.388 . S
C3621 C3620 1.366 . S
C3621 C3625 1.385 . S
C3622 H3603 0.951 . S
C3622 C3620 1.388 . S
C3622 C3623 1.366 . S
C3623 C3622 1.366 . S
C3623 C3624 1.414 . S
C3623 C3626 1.499 . S
C3624 H3604 0.950 . S
C3624 C3623 1.414 . S
C3624 C3625 1.374 . S
C3625 H3605 0.950 . S
C3625 C3621 1.385 . S
C3625 C3624 1.374 . S
C3626 C3623 1.499 . S
C3626 C3627 1.373 . S
C3626 C3628 1.389 . S
C3627 H3606 0.950 . S
C3627 C3626 1.373 . S
C3627 C3643 1.377 . S
C3628 C3626 1.389 . S
C3628 C3629 1.524 . S
C3628 C3642 1.377 . S
C3629 C3628 1.524 . S
C3629 C3630 1.397 . S
C3629 C3634 1.363 . S
C3630 H3607 0.950 . S
C3630 C3629 1.397 . S
C3630 C3631 1.334 . S
C3631 H3608 0.950 . S
C3631 C3630 1.334 . S
C3631 C3632 1.287 . S
C3632 C3631 1.287 . S
C3632 C3633 1.524 . S
C3632 H3651 0.913 . S
C3633 H3609 0.950 . S
C3633 C3632 1.524 . S
C3633 C3634 1.415 . S
C3634 H3610 0.950 . S
C3634 C3629 1.363 . S
C3634 C3633 1.415 . S
C3635 H3611 0.951 . S
C3635 C3636 1.366 . S
C3635 C3637 1.388 . S
C3636 C3635 1.366 . S
C3636 C3640 1.385 . S
C3637 H3612 0.951 . S
C3637 C3635 1.388 . S
C3637 C3638 1.366 . S
C3638 C3637 1.366 . S
C3638 C3639 1.414 . S
C3638 C3641 1.499 . S
C3639 H3613 0.950 . S
C3639 C3638 1.414 . S
C3639 C3640 1.374 . S
C3640 H3614 0.950 . S
C3640 C3636 1.385 . S
C3640 C3639 1.374 . S
C3641 C3638 1.499 . S
C3641 C3642 1.373 . S
C3641 C3643 1.389 . S
C3642 H3615 0.950 . S
C3642 C3628 1.377 . S
C3642 C3641 1.373 . S
C3643 C3627 1.377 . S
C3643 C3641 1.389 . S
C3643 C3644 1.524 . S
C3644 C3643 1.524 . S
C3644 C3645 1.397 . S
C3644 C3649 1.363 . S
C3645 H3616 0.950 . S
C3645 C3644 1.397 . S
C3645 C3646 1.334 . S
C3646 H3617 0.950 . S
C3646 C3645 1.334 . S
C3646 C3647 1.287 . S
C3647 C3646 1.287 . S
C3647 C3648 1.524 . S
C3647 H3650 0.999 . S
C3648 H3618 0.950 . S
C3648 C3647 1.524 . S
C3648 C3649 1.415 . S
C3649 H3619 0.950 . S
C3649 C3644 1.363 . S
C3649 C3648 1.415 . S
H3650 C3647 0.999 . S
H3651 C3632 0.913 . S
H3652 C3670 0.951 . S
H3653 C3672 0.951 . S
H3654 C3674 0.950 . S
H3655 C3675 0.950 . S
H3656 C3677 0.950 . S
H3657 C3680 0.950 . S
H3658 C3681 0.950 . S
H3659 C3683 0.950 . S
H3660 C3684 0.950 . S
H3661 C3685 0.951 . S
H3662 C3687 0.951 . S
H3663 C3689 0.950 . S
H3664 C3690 0.950 . S
H3665 C3692 0.950 . S
H3666 C3695 0.950 . S
H3667 C3696 0.950 . S
H3668 C3698 0.950 . S
H3669 C3699 0.950 . S
C3670 H3652 0.951 . S
C3670 C3671 1.366 . S
C3670 C3672 1.388 . S
C3671 C3670 1.366 . S
C3671 C3675 1.385 . S
C3672 H3653 0.951 . S
C3672 C3670 1.388 . S
C3672 C3673 1.366 . S
C3673 C3672 1.366 . S
C3673 C3674 1.414 . S
C3673 C3676 1.499 . S
C3674 H3654 0.950 . S
C3674 C3673 1.414 . S
C3674 C3675 1.374 . S
C3675 H3655 0.950 . S
C3675 C3671 1.385 . S
C3675 C3674 1.374 . S
C3676 C3673 1.499 . S
C3676 C3677 1.373 . S
C3676 C3678 1.389 . S
C3677 H3656 0.950 . S
C3677 C3676 1.373 . S
C3677 C3693 1.377 . S
C3678 C3676 1.389 . S
C3678 C3679 1.524 . S
C3678 C3692 1.377 . S
C3679 C3678 1.524 . S
C3679 C3680 1.397 . S
C3679 C3684 1.363 . S
C3680 H3657 0.950 . S
C3680 C3679 1.397 . S
C3680 C3681 1.334 1_455 S
C3681 H3658 0.950 . S
C3681 C3680 1.334 1_655 S
C3681 C3682 1.287 . S
C3682 C3681 1.287 . S
C3682 C3683 1.524 . S
C3682 H3701 0.913 . S
C3683 H3659 0.950 . S
C3683 C3682 1.524 . S
C3683 C3684 1.415 1_655 S
C3684 H3660 0.950 . S
C3684 C3679 1.363 . S
C3684 C3683 1.415 1_455 S
C3685 H3661 0.951 . S
C3685 C3686 1.366 . S
C3685 C3687 1.388 . S
C3686 C3685 1.366 . S
C3686 C3690 1.385 . S
C3687 H3662 0.951 . S
C3687 C3685 1.388 . S
C3687 C3688 1.366 . S
C3688 C3687 1.366 . S
C3688 C3689 1.414 . S
C3688 C3691 1.499 . S
C3689 H3663 0.950 . S
C3689 C3688 1.414 . S
C3689 C3690 1.374 . S
C3690 H3664 0.950 . S
C3690 C3686 1.385 . S
C3690 C3689 1.374 . S
C3691 C3688 1.499 . S
C3691 C3692 1.373 . S
C3691 C3693 1.389 . S
C3692 H3665 0.950 . S
C3692 C3678 1.377 . S
C3692 C3691 1.373 . S
C3693 C3677 1.377 . S
C3693 C3691 1.389 . S
C3693 C3694 1.524 . S
C3694 C3693 1.524 . S
C3694 C3695 1.397 . S
C3694 C3699 1.363 . S
C3695 H3666 0.950 . S
C3695 C3694 1.397 . S
C3695 C3696 1.334 . S
C3696 H3667 0.950 . S
C3696 C3695 1.334 . S
C3696 C3697 1.287 . S
C3697 C3696 1.287 . S
C3697 C3698 1.524 . S
C3697 H3700 0.999 . S
C3698 H3668 0.950 . S
C3698 C3697 1.524 . S
C3698 C3699 1.415 . S
C3699 H3669 0.950 . S
C3699 C3694 1.363 . S
C3699 C3698 1.415 . S
H3700 C3697 0.999 . S
H3701 C3682 0.913 . S
H3702 C3720 0.951 . S
H3703 C3722 0.951 . S
H3704 C3724 0.950 . S
H3705 C3725 0.950 . S
H3706 C3727 0.950 . S
H3707 C3730 0.950 . S
H3708 C3731 0.950 . S
H3709 C3733 0.950 . S
H3710 C3734 0.950 . S
H3711 C3735 0.951 . S
H3712 C3737 0.951 . S
H3713 C3739 0.950 . S
H3714 C3740 0.950 . S
H3715 C3742 0.950 . S
H3716 C3745 0.950 . S
H3717 C3746 0.950 . S
H3718 C3748 0.950 . S
H3719 C3749 0.950 . S
C3720 H3702 0.951 . S
C3720 C3721 1.366 . S
C3720 C3722 1.388 . S
C3721 C3720 1.366 . S
C3721 C3725 1.385 . S
C3722 H3703 0.951 . S
C3722 C3720 1.388 . S
C3722 C3723 1.366 . S
C3723 C3722 1.366 . S
C3723 C3724 1.414 . S
C3723 C3726 1.499 . S
C3724 H3704 0.950 . S
C3724 C3723 1.414 . S
C3724 C3725 1.374 . S
C3725 H3705 0.950 . S
C3725 C3721 1.385 . S
C3725 C3724 1.374 . S
C3726 C3723 1.499 . S
C3726 C3727 1.373 . S
C3726 C3728 1.389 . S
C3727 H3706 0.950 . S
C3727 C3726 1.373 . S
C3727 C3743 1.377 . S
C3728 C3726 1.389 . S
C3728 C3729 1.524 . S
C3728 C3742 1.377 . S
C3729 C3728 1.524 . S
C3729 C3730 1.397 . S
C3729 C3734 1.363 . S
C3730 H3707 0.950 . S
C3730 C3729 1.397 . S
C3730 C3731 1.334 . S
C3731 H3708 0.950 . S
C3731 C3730 1.334 . S
C3731 C3732 1.287 . S
C3732 C3731 1.287 . S
C3732 C3733 1.524 . S
C3732 H3751 0.913 . S
C3733 H3709 0.950 . S
C3733 C3732 1.524 . S
C3733 C3734 1.415 . S
C3734 H3710 0.950 . S
C3734 C3729 1.363 . S
C3734 C3733 1.415 . S
C3735 H3711 0.951 . S
C3735 C3736 1.366 . S
C3735 C3737 1.388 . S
C3736 C3735 1.366 . S
C3736 C3740 1.385 . S
C3737 H3712 0.951 . S
C3737 C3735 1.388 . S
C3737 C3738 1.366 . S
C3738 C3737 1.366 . S
C3738 C3739 1.414 . S
C3738 C3741 1.499 . S
C3739 H3713 0.950 . S
C3739 C3738 1.414 . S
C3739 C3740 1.374 . S
C3740 H3714 0.950 . S
C3740 C3736 1.385 . S
C3740 C3739 1.374 . S
C3741 C3738 1.499 . S
C3741 C3742 1.373 . S
C3741 C3743 1.389 . S
C3742 H3715 0.950 . S
C3742 C3728 1.377 . S
C3742 C3741 1.373 . S
C3743 C3727 1.377 . S
C3743 C3741 1.389 . S
C3743 C3744 1.524 . S
C3744 C3743 1.524 . S
C3744 C3745 1.397 . S
C3744 C3749 1.363 . S
C3745 H3716 0.950 . S
C3745 C3744 1.397 . S
C3745 C3746 1.334 . S
C3746 H3717 0.950 . S
C3746 C3745 1.334 . S
C3746 C3747 1.287 . S
C3747 C3746 1.287 . S
C3747 C3748 1.524 . S
C3747 H3750 0.999 . S
C3748 H3718 0.950 . S
C3748 C3747 1.524 . S
C3748 C3749 1.415 . S
C3749 H3719 0.950 . S
C3749 C3744 1.363 . S
C3749 C3748 1.415 . S
H3750 C3747 0.999 . S
H3751 C3732 0.913 . S
H3752 C3770 0.951 . S
H3753 C3772 0.951 . S
H3754 C3774 0.950 . S
H3755 C3775 0.950 . S
H3756 C3777 0.950 . S
H3757 C3780 0.950 . S
H3758 C3781 0.950 . S
H3759 C3783 0.950 . S
H3760 C3784 0.950 . S
H3761 C3785 0.951 . S
H3762 C3787 0.951 . S
H3763 C3789 0.950 . S
H3764 C3790 0.950 . S
H3765 C3792 0.950 . S
H3766 C3795 0.950 . S
H3767 C3796 0.950 . S
H3768 C3798 0.950 . S
H3769 C3799 0.950 . S
C3770 H3752 0.951 . S
C3770 C3771 1.366 . S
C3770 C3772 1.388 . S
C3771 C3770 1.366 . S
C3771 C3775 1.385 . S
C3772 H3753 0.951 . S
C3772 C3770 1.388 . S
C3772 C3773 1.366 . S
C3773 C3772 1.366 . S
C3773 C3774 1.414 . S
C3773 C3776 1.499 . S
C3774 H3754 0.950 . S
C3774 C3773 1.414 . S
C3774 C3775 1.374 . S
C3775 H3755 0.950 . S
C3775 C3771 1.385 . S
C3775 C3774 1.374 . S
C3776 C3773 1.499 . S
C3776 C3777 1.373 . S
C3776 C3778 1.389 . S
C3777 H3756 0.950 . S
C3777 C3776 1.373 . S
C3777 C3793 1.377 . S
C3778 C3776 1.389 . S
C3778 C3779 1.524 . S
C3778 C3792 1.377 . S
C3779 C3778 1.524 . S
C3779 C3780 1.397 . S
C3779 C3784 1.363 . S
C3780 H3757 0.950 . S
C3780 C3779 1.397 . S
C3780 C3781 1.334 . S
C3781 H3758 0.950 . S
C3781 C3780 1.334 . S
C3781 C3782 1.287 . S
C3782 C3781 1.287 . S
C3782 C3783 1.524 . S
C3782 H3801 0.913 . S
C3783 H3759 0.950 . S
C3783 C3782 1.524 . S
C3783 C3784 1.415 . S
C3784 H3760 0.950 . S
C3784 C3779 1.363 . S
C3784 C3783 1.415 . S
C3785 H3761 0.951 . S
C3785 C3786 1.366 . S
C3785 C3787 1.388 . S
C3786 C3785 1.366 . S
C3786 C3790 1.385 . S
C3787 H3762 0.951 . S
C3787 C3785 1.388 . S
C3787 C3788 1.366 . S
C3788 C3787 1.366 . S
C3788 C3789 1.414 . S
C3788 C3791 1.499 . S
C3789 H3763 0.950 . S
C3789 C3788 1.414 . S
C3789 C3790 1.374 . S
C3790 H3764 0.950 . S
C3790 C3786 1.385 . S
C3790 C3789 1.374 . S
C3791 C3788 1.499 . S
C3791 C3792 1.373 . S
C3791 C3793 1.389 . S
C3792 H3765 0.950 . S
C3792 C3778 1.377 . S
C3792 C3791 1.373 . S
C3793 C3777 1.377 . S
C3793 C3791 1.389 . S
C3793 C3794 1.524 . S
C3794 C3793 1.524 . S
C3794 C3795 1.397 . S
C3794 C3799 1.363 . S
C3795 H3766 0.950 . S
C3795 C3794 1.397 . S
C3795 C3796 1.334 . S
C3796 H3767 0.950 . S
C3796 C3795 1.334 . S
C3796 C3797 1.287 . S
C3797 C3796 1.287 . S
C3797 C3798 1.524 . S
C3797 H3800 0.999 . S
C3798 H3768 0.950 . S
C3798 C3797 1.524 . S
C3798 C3799 1.415 . S
C3799 H3769 0.950 . S
C3799 C3794 1.363 . S
C3799 C3798 1.415 . S
H3800 C3797 0.999 . S
H3801 C3782 0.913 . S
H3802 C3820 0.951 . S
H3803 C3822 0.951 . S
H3804 C3824 0.950 . S
H3805 C3825 0.950 . S
H3806 C3827 0.950 . S
H3807 C3830 0.950 . S
H3808 C3831 0.950 . S
H3809 C3833 0.949 1_554 S
H3810 C3834 0.950 . S
H3811 C3835 0.951 . S
H3812 C3837 0.951 . S
H3813 C3839 0.950 . S
H3814 C3840 0.950 . S
H3815 C3842 0.950 . S
H3816 C3845 0.950 . S
H3817 C3846 0.950 . S
H3818 C3848 0.950 . S
H3819 C3849 0.950 . S
C3820 H3802 0.951 . S
C3820 C3821 1.366 . S
C3820 C3822 1.388 . S
C3821 C3820 1.366 . S
C3821 C3825 1.385 . S
C3822 H3803 0.951 . S
C3822 C3820 1.388 . S
C3822 C3823 1.366 1_554 S
C3823 C3822 1.366 1_556 S
C3823 C3824 1.414 . S
C3823 C3826 1.499 . S
C3824 H3804 0.950 . S
C3824 C3823 1.414 . S
C3824 C3825 1.374 1_556 S
C3825 H3805 0.950 . S
C3825 C3821 1.385 . S
C3825 C3824 1.374 1_554 S
C3826 C3823 1.499 . S
C3826 C3827 1.373 . S
C3826 C3828 1.389 . S
C3827 H3806 0.950 . S
C3827 C3826 1.373 . S
C3827 C3843 1.377 . S
C3828 C3826 1.389 . S
C3828 C3829 1.524 . S
C3828 C3842 1.377 . S
C3829 C3828 1.524 . S
C3829 C3830 1.397 . S
C3829 C3834 1.363 . S
C3830 H3807 0.950 . S
C3830 C3829 1.397 . S
C3830 C3831 1.334 1_556 S
C3831 H3808 0.950 . S
C3831 C3830 1.334 1_554 S
C3831 C3832 1.287 . S
C3832 C3831 1.287 . S
C3832 C3833 1.521 1_554 S
C3832 H3851 0.913 . S
C3833 H3809 0.949 1_556 S
C3833 C3832 1.521 1_556 S
C3833 C3834 1.418 . S
C3834 H3810 0.950 . S
C3834 C3829 1.363 . S
C3834 C3833 1.418 . S
C3835 H3811 0.951 . S
C3835 C3836 1.366 . S
C3835 C3837 1.388 . S
C3836 C3835 1.366 . S
C3836 C3840 1.385 . S
C3837 H3812 0.951 . S
C3837 C3835 1.388 . S
C3837 C3838 1.366 . S
C3838 C3837 1.366 . S
C3838 C3839 1.414 . S
C3838 C3841 1.499 . S
C3839 H3813 0.950 . S
C3839 C3838 1.414 . S
C3839 C3840 1.374 . S
C3840 H3814 0.950 . S
C3840 C3836 1.385 . S
C3840 C3839 1.374 . S
C3841 C3838 1.499 . S
C3841 C3842 1.373 . S
C3841 C3843 1.389 . S
C3842 H3815 0.950 . S
C3842 C3828 1.377 . S
C3842 C3841 1.373 . S
C3843 C3827 1.377 . S
C3843 C3841 1.389 . S
C3843 C3844 1.524 . S
C3844 C3843 1.524 . S
C3844 C3845 1.397 . S
C3844 C3849 1.363 . S
C3845 H3816 0.950 . S
C3845 C3844 1.397 . S
C3845 C3846 1.334 . S
C3846 H3817 0.950 . S
C3846 C3845 1.334 . S
C3846 C3847 1.287 . S
C3847 C3846 1.287 . S
C3847 C3848 1.524 . S
C3847 H3850 0.999 . S
C3848 H3818 0.950 . S
C3848 C3847 1.524 . S
C3848 C3849 1.415 . S
C3849 H3819 0.950 . S
C3849 C3844 1.363 . S
C3849 C3848 1.415 . S
H3850 C3847 0.999 . S
H3851 C3832 0.913 . S
H3852 C3870 0.951 . S
H3853 C3872 0.951 . S
H3854 C3874 0.950 . S
H3855 C3875 0.950 . S
H3856 C3877 0.950 . S
H3857 C3880 0.950 . S
H3858 C3881 0.950 . S
H3859 C3883 0.950 . S
H3860 C3884 0.950 . S
H3861 C3885 0.951 . S
H3862 C3887 0.951 . S
H3863 C3889 0.950 . S
H3864 C3890 0.950 . S
H3865 C3892 0.950 . S
H3866 C3895 0.950 . S
H3867 C3896 0.950 . S
H3868 C3898 0.950 . S
H3869 C3899 0.950 . S
C3870 H3852 0.951 . S
C3870 C3871 1.366 . S
C3870 C3872 1.388 . S
C3871 C3870 1.366 . S
C3871 C3875 1.385 . S
C3872 H3853 0.951 . S
C3872 C3870 1.388 . S
C3872 C3873 1.366 . S
C3873 C3872 1.366 . S
C3873 C3874 1.414 . S
C3873 C3876 1.499 . S
C3874 H3854 0.950 . S
C3874 C3873 1.414 . S
C3874 C3875 1.374 . S
C3875 H3855 0.950 . S
C3875 C3871 1.385 . S
C3875 C3874 1.374 . S
C3876 C3873 1.499 . S
C3876 C3877 1.373 . S
C3876 C3878 1.389 . S
C3877 H3856 0.950 . S
C3877 C3876 1.373 . S
C3877 C3893 1.377 . S
C3878 C3876 1.389 . S
C3878 C3879 1.524 . S
C3878 C3892 1.377 . S
C3879 C3878 1.524 . S
C3879 C3880 1.397 . S
C3879 C3884 1.363 . S
C3880 H3857 0.950 . S
C3880 C3879 1.397 . S
C3880 C3881 1.334 . S
C3881 H3858 0.950 . S
C3881 C3880 1.334 . S
C3881 C3882 1.287 . S
C3882 C3881 1.287 . S
C3882 C3883 1.524 . S
C3882 H3901 0.913 . S
C3883 H3859 0.950 . S
C3883 C3882 1.524 . S
C3883 C3884 1.415 . S
C3884 H3860 0.950 . S
C3884 C3879 1.363 . S
C3884 C3883 1.415 . S
C3885 H3861 0.951 . S
C3885 C3886 1.366 . S
C3885 C3887 1.388 . S
C3886 C3885 1.366 . S
C3886 C3890 1.385 . S
C3887 H3862 0.951 . S
C3887 C3885 1.388 . S
C3887 C3888 1.366 . S
C3888 C3887 1.366 . S
C3888 C3889 1.414 . S
C3888 C3891 1.499 . S
C3889 H3863 0.950 . S
C3889 C3888 1.414 . S
C3889 C3890 1.374 . S
C3890 H3864 0.950 . S
C3890 C3886 1.385 . S
C3890 C3889 1.374 . S
C3891 C3888 1.499 . S
C3891 C3892 1.373 . S
C3891 C3893 1.389 . S
C3892 H3865 0.950 . S
C3892 C3878 1.377 . S
C3892 C3891 1.373 . S
C3893 C3877 1.377 . S
C3893 C3891 1.389 . S
C3893 C3894 1.524 . S
C3894 C3893 1.524 . S
C3894 C3895 1.397 . S
C3894 C3899 1.363 . S
C3895 H3866 0.950 . S
C3895 C3894 1.397 . S
C3895 C3896 1.334 . S
C3896 H3867 0.950 . S
C3896 C3895 1.334 . S
C3896 C3897 1.287 . S
C3897 C3896 1.287 . S
C3897 C3898 1.524 . S
C3897 H3900 0.999 . S
C3898 H3868 0.950 . S
C3898 C3897 1.524 . S
C3898 C3899 1.415 . S
C3899 H3869 0.950 . S
C3899 C3894 1.363 . S
C3899 C3898 1.415 . S
H3900 C3897 0.999 . S
H3901 C3882 0.913 . S
H3902 C3920 0.951 . S
H3903 C3922 0.951 . S
H3904 C3924 0.950 . S
H3905 C3925 0.950 . S
H3906 C3927 0.950 . S
H3907 C3930 0.950 . S
H3908 C3931 0.950 . S
H3909 C3933 0.950 . S
H3910 C3934 0.950 . S
H3911 C3935 0.951 . S
H3912 C3937 0.951 . S
H3913 C3939 0.950 . S
H3914 C3940 0.950 . S
H3915 C3942 0.950 . S
H3916 C3945 0.950 . S
H3917 C3946 0.950 . S
H3918 C3948 0.950 . S
H3919 C3949 0.950 . S
C3920 H3902 0.951 . S
C3920 C3921 1.366 . S
C3920 C3922 1.388 . S
C3921 C3920 1.366 . S
C3921 C3925 1.385 . S
C3922 H3903 0.951 . S
C3922 C3920 1.388 . S
C3922 C3923 1.366 . S
C3923 C3922 1.366 . S
C3923 C3924 1.414 . S
C3923 C3926 1.499 . S
C3924 H3904 0.950 . S
C3924 C3923 1.414 . S
C3924 C3925 1.374 . S
C3925 H3905 0.950 . S
C3925 C3921 1.385 . S
C3925 C3924 1.374 . S
C3926 C3923 1.499 . S
C3926 C3927 1.373 . S
C3926 C3928 1.389 . S
C3927 H3906 0.950 . S
C3927 C3926 1.373 . S
C3927 C3943 1.377 . S
C3928 C3926 1.389 . S
C3928 C3929 1.524 . S
C3928 C3942 1.377 . S
C3929 C3928 1.524 . S
C3929 C3930 1.397 . S
C3929 C3934 1.363 . S
C3930 H3907 0.950 . S
C3930 C3929 1.397 . S
C3930 C3931 1.334 . S
C3931 H3908 0.950 . S
C3931 C3930 1.334 . S
C3931 C3932 1.287 . S
C3932 C3931 1.287 . S
C3932 C3933 1.524 . S
C3932 H3951 0.913 . S
C3933 H3909 0.950 . S
C3933 C3932 1.524 . S
C3933 C3934 1.415 . S
C3934 H3910 0.950 . S
C3934 C3929 1.363 . S
C3934 C3933 1.415 . S
C3935 H3911 0.951 . S
C3935 C3936 1.366 . S
C3935 C3937 1.388 . S
C3936 C3935 1.366 . S
C3936 C3940 1.385 . S
C3937 H3912 0.951 . S
C3937 C3935 1.388 . S
C3937 C3938 1.366 . S
C3938 C3937 1.366 . S
C3938 C3939 1.414 . S
C3938 C3941 1.499 . S
C3939 H3913 0.950 . S
C3939 C3938 1.414 . S
C3939 C3940 1.374 . S
C3940 H3914 0.950 . S
C3940 C3936 1.385 . S
C3940 C3939 1.374 . S
C3941 C3938 1.499 . S
C3941 C3942 1.373 . S
C3941 C3943 1.389 . S
C3942 H3915 0.950 . S
C3942 C3928 1.377 . S
C3942 C3941 1.373 . S
C3943 C3927 1.377 . S
C3943 C3941 1.389 . S
C3943 C3944 1.524 . S
C3944 C3943 1.524 . S
C3944 C3945 1.397 . S
C3944 C3949 1.363 . S
C3945 H3916 0.950 . S
C3945 C3944 1.397 . S
C3945 C3946 1.334 . S
C3946 H3917 0.950 . S
C3946 C3945 1.334 . S
C3946 C3947 1.287 . S
C3947 C3946 1.287 . S
C3947 C3948 1.524 . S
C3947 H3950 0.999 . S
C3948 H3918 0.950 . S
C3948 C3947 1.524 . S
C3948 C3949 1.415 . S
C3949 H3919 0.950 . S
C3949 C3944 1.363 . S
C3949 C3948 1.415 . S
H3950 C3947 0.999 . S
H3951 C3932 0.913 . S
H3952 C3970 0.951 . S
H3953 C3972 0.951 . S
H3954 C3974 0.950 . S
H3955 C3975 0.950 . S
H3956 C3977 0.950 . S
H3957 C3980 0.950 . S
H3958 C3981 0.950 . S
H3959 C3983 0.950 . S
H3960 C3984 0.950 . S
H3961 C3985 0.951 . S
H3962 C3987 0.951 . S
H3963 C3989 0.950 . S
H3964 C3990 0.950 . S
H3965 C3992 0.950 . S
H3966 C3995 0.950 . S
H3967 C3996 0.950 . S
H3968 C3998 0.950 . S
H3969 C3999 0.950 . S
C3970 H3952 0.951 . S
C3970 C3971 1.366 . S
C3970 C3972 1.388 . S
C3971 C3970 1.366 . S
C3971 C3975 1.385 . S
C3972 H3953 0.951 . S
C3972 C3970 1.388 . S
C3972 C3973 1.366 . S
C3973 C3972 1.366 . S
C3973 C3974 1.414 . S
C3973 C3976 1.499 . S
C3974 H3954 0.950 . S
C3974 C3973 1.414 . S
C3974 C3975 1.374 . S
C3975 H3955 0.950 . S
C3975 C3971 1.385 . S
C3975 C3974 1.374 . S
C3976 C3973 1.499 . S
C3976 C3977 1.373 . S
C3976 C3978 1.389 . S
C3977 H3956 0.950 . S
C3977 C3976 1.373 . S
C3977 C3993 1.377 . S
C3978 C3976 1.389 . S
C3978 C3979 1.524 . S
C3978 C3992 1.377 . S
C3979 C3978 1.524 . S
C3979 C3980 1.397 . S
C3979 C3984 1.363 . S
C3980 H3957 0.950 . S
C3980 C3979 1.397 . S
C3980 C3981 1.334 . S
C3981 H3958 0.950 . S
C3981 C3980 1.334 . S
C3981 C3982 1.287 . S
C3982 C3981 1.287 . S
C3982 C3983 1.524 . S
C3982 H4001 0.913 . S
C3983 H3959 0.950 . S
C3983 C3982 1.524 . S
C3983 C3984 1.415 . S
C3984 H3960 0.950 . S
C3984 C3979 1.363 . S
C3984 C3983 1.415 . S
C3985 H3961 0.951 . S
C3985 C3986 1.366 . S
C3985 C3987 1.388 . S
C3986 C3985 1.366 . S
C3986 C3990 1.385 . S
C3987 H3962 0.951 . S
C3987 C3985 1.388 . S
C3987 C3988 1.366 . S
C3988 C3987 1.366 . S
C3988 C3989 1.414 . S
C3988 C3991 1.499 . S
C3989 H3963 0.950 . S
C3989 C3988 1.414 . S
C3989 C3990 1.374 . S
C3990 H3964 0.950 . S
C3990 C3986 1.385 . S
C3990 C3989 1.374 . S
C3991 C3988 1.499 . S
C3991 C3992 1.373 . S
C3991 C3993 1.389 . S
C3992 H3965 0.950 . S
C3992 C3978 1.377 . S
C3992 C3991 1.373 . S
C3993 C3977 1.377 . S
C3993 C3991 1.389 . S
C3993 C3994 1.524 . S
C3994 C3993 1.524 . S
C3994 C3995 1.397 . S
C3994 C3999 1.363 . S
C3995 H3966 0.950 . S
C3995 C3994 1.397 . S
C3995 C3996 1.334 . S
C3996 H3967 0.950 . S
C3996 C3995 1.334 . S
C3996 C3997 1.287 . S
C3997 C3996 1.287 . S
C3997 C3998 1.524 . S
C3997 H4000 0.999 . S
C3998 H3968 0.950 . S
C3998 C3997 1.524 . S
C3998 C3999 1.415 . S
C3999 H3969 0.950 . S
C3999 C3994 1.363 . S
C3999 C3998 1.415 . S
H4000 C3997 0.999 . S
H4001 C3982 0.913 . S
H4002 C4020 0.951 . S
H4003 C4022 0.951 . S
H4004 C4024 0.950 . S
H4005 C4025 0.950 . S
H4006 C4027 0.950 . S
H4007 C4030 0.950 . S
H4008 C4031 0.950 . S
H4009 C4033 0.950 . S
H4010 C4034 0.950 . S
H4011 C4035 0.951 . S
H4012 C4037 0.951 . S
H4013 C4039 0.950 . S
H4014 C4040 0.950 . S
H4015 C4042 0.950 . S
H4016 C4045 0.950 . S
H4017 C4046 0.950 . S
H4018 C4048 0.950 . S
H4019 C4049 0.950 . S
C4020 H4002 0.951 . S
C4020 C4021 1.366 . S
C4020 C4022 1.388 . S
C4021 C4020 1.366 . S
C4021 C4025 1.385 . S
C4022 H4003 0.951 . S
C4022 C4020 1.388 . S
C4022 C4023 1.366 . S
C4023 C4022 1.366 . S
C4023 C4024 1.414 . S
C4023 C4026 1.499 . S
C4024 H4004 0.950 . S
C4024 C4023 1.414 . S
C4024 C4025 1.374 . S
C4025 H4005 0.950 . S
C4025 C4021 1.385 . S
C4025 C4024 1.374 . S
C4026 C4023 1.499 . S
C4026 C4027 1.373 . S
C4026 C4028 1.389 . S
C4027 H4006 0.950 . S
C4027 C4026 1.373 . S
C4027 C4043 1.377 . S
C4028 C4026 1.389 . S
C4028 C4029 1.524 . S
C4028 C4042 1.377 . S
C4029 C4028 1.524 . S
C4029 C4030 1.397 . S
C4029 C4034 1.363 . S
C4030 H4007 0.950 . S
C4030 C4029 1.397 . S
C4030 C4031 1.334 . S
C4031 H4008 0.950 . S
C4031 C4030 1.334 . S
C4031 C4032 1.287 . S
C4032 C4031 1.287 . S
C4032 C4033 1.524 . S
C4032 H4051 0.913 . S
C4033 H4009 0.950 . S
C4033 C4032 1.524 . S
C4033 C4034 1.415 . S
C4034 H4010 0.950 . S
C4034 C4029 1.363 . S
C4034 C4033 1.415 . S
C4035 H4011 0.951 . S
C4035 C4036 1.366 . S
C4035 C4037 1.388 . S
C4036 C4035 1.366 . S
C4036 C4040 1.385 . S
C4037 H4012 0.951 . S
C4037 C4035 1.388 . S
C4037 C4038 1.366 . S
C4038 C4037 1.366 . S
C4038 C4039 1.414 . S
C4038 C4041 1.499 . S
C4039 H4013 0.950 . S
C4039 C4038 1.414 . S
C4039 C4040 1.374 . S
C4040 H4014 0.950 . S
C4040 C4036 1.385 . S
C4040 C4039 1.374 . S
C4041 C4038 1.499 . S
C4041 C4042 1.373 . S
C4041 C4043 1.389 . S
C4042 H4015 0.950 . S
C4042 C4028 1.377 . S
C4042 C4041 1.373 . S
C4043 C4027 1.377 . S
C4043 C4041 1.389 . S
C4043 C4044 1.524 . S
C4044 C4043 1.524 . S
C4044 C4045 1.397 . S
C4044 C4049 1.363 . S
C4045 H4016 0.950 . S
C4045 C4044 1.397 . S
C4045 C4046 1.334 . S
C4046 H4017 0.950 . S
C4046 C4045 1.334 . S
C4046 C4047 1.287 . S
C4047 C4046 1.287 . S
C4047 C4048 1.524 . S
C4047 H4050 0.999 . S
C4048 H4018 0.950 . S
C4048 C4047 1.524 . S
C4048 C4049 1.415 . S
C4049 H4019 0.950 . S
C4049 C4044 1.363 . S
C4049 C4048 1.415 . S
H4050 C4047 0.999 . S
H4051 C4032 0.913 . S
H4052 C4070 0.951 . S
H4053 C4072 0.951 . S
H4054 C4074 0.950 . S
H4055 C4075 0.950 . S
H4056 C4077 0.950 . S
H4057 C4080 0.950 . S
H4058 C4081 0.950 . S
H4059 C4083 0.950 . S
H4060 C4084 0.950 . S
H4061 C4085 0.951 . S
H4062 C4087 0.951 . S
H4063 C4089 0.950 . S
H4064 C4090 0.950 . S
H4065 C4092 0.950 . S
H4066 C4095 0.950 . S
H4067 C4096 0.950 . S
H4068 C4098 0.950 . S
H4069 C4099 0.950 . S
C4070 H4052 0.951 . S
C4070 C4071 1.366 . S
C4070 C4072 1.388 . S
C4071 C4070 1.366 . S
C4071 C4075 1.385 . S
C4072 H4053 0.951 . S
C4072 C4070 1.388 . S
C4072 C4073 1.366 . S
C4073 C4072 1.366 . S
C4073 C4074 1.414 . S
C4073 C4076 1.499 . S
C4074 H4054 0.950 . S
C4074 C4073 1.414 . S
C4074 C4075 1.374 . S
C4075 H4055 0.950 . S
C4075 C4071 1.385 . S
C4075 C4074 1.374 . S
C4076 C4073 1.499 . S
C4076 C4077 1.373 . S
C4076 C4078 1.389 . S
C4077 H4056 0.950 . S
C4077 C4076 1.373 . S
C4077 C4093 1.377 . S
C4078 C4076 1.389 . S
C4078 C4079 1.524 . S
C4078 C4092 1.377 . S
C4079 C4078 1.524 . S
C4079 C4080 1.397 . S
C4079 C4084 1.363 . S
C4080 H4057 0.950 . S
C4080 C4079 1.397 . S
C4080 C4081 1.334 . S
C4081 H4058 0.950 . S
C4081 C4080 1.334 . S
C4081 C4082 1.287 . S
C4082 C4081 1.287 . S
C4082 C4083 1.524 . S
C4082 H4101 0.913 . S
C4083 H4059 0.950 . S
C4083 C4082 1.524 . S
C4083 C4084 1.415 . S
C4084 H4060 0.950 . S
C4084 C4079 1.363 . S
C4084 C4083 1.415 . S
C4085 H4061 0.951 . S
C4085 C4086 1.366 . S
C4085 C4087 1.388 . S
C4086 C4085 1.366 . S
C4086 C4090 1.385 . S
C4087 H4062 0.951 . S
C4087 C4085 1.388 . S
C4087 C4088 1.366 . S
C4088 C4087 1.366 . S
C4088 C4089 1.414 . S
C4088 C4091 1.499 . S
C4089 H4063 0.950 . S
C4089 C4088 1.414 . S
C4089 C4090 1.374 . S
C4090 H4064 0.950 . S
C4090 C4086 1.385 . S
C4090 C4089 1.374 . S
C4091 C4088 1.499 . S
C4091 C4092 1.373 . S
C4091 C4093 1.389 . S
C4092 H4065 0.950 . S
C4092 C4078 1.377 . S
C4092 C4091 1.373 . S
C4093 C4077 1.377 . S
C4093 C4091 1.389 . S
C4093 C4094 1.524 . S
C4094 C4093 1.524 . S
C4094 C4095 1.397 . S
C4094 C4099 1.363 . S
C4095 H4066 0.950 . S
C4095 C4094 1.397 . S
C4095 C4096 1.334 . S
C4096 H4067 0.950 . S
C4096 C4095 1.334 . S
C4096 C4097 1.287 . S
C4097 C4096 1.287 . S
C4097 C4098 1.524 . S
C4097 H4100 0.999 . S
C4098 H4068 0.950 . S
C4098 C4097 1.524 . S
C4098 C4099 1.415 . S
C4099 H4069 0.950 . S
C4099 C4094 1.363 . S
C4099 C4098 1.415 . S
H4100 C4097 0.999 . S
H4101 C4082 0.913 . S
H4102 C4120 0.951 . S
H4103 C4122 0.951 . S
H4104 C4124 0.950 . S
H4105 C4125 0.950 . S
H4106 C4127 0.950 . S
H4107 C4130 0.950 . S
H4108 C4131 0.950 . S
H4109 C4133 0.950 . S
H4110 C4134 0.950 . S
H4111 C4135 0.951 . S
H4112 C4137 0.951 . S
H4113 C4139 0.950 . S
H4114 C4140 0.950 . S
H4115 C4142 0.950 . S
H4116 C4145 0.950 . S
H4117 C4146 0.950 . S
H4118 C4148 0.950 . S
H4119 C4149 0.950 . S
C4120 H4102 0.951 . S
C4120 C4121 1.366 . S
C4120 C4122 1.388 . S
C4121 C4120 1.366 . S
C4121 C4125 1.385 . S
C4122 H4103 0.951 . S
C4122 C4120 1.388 . S
C4122 C4123 1.366 . S
C4123 C4122 1.366 . S
C4123 C4124 1.414 . S
C4123 C4126 1.499 . S
C4124 H4104 0.950 . S
C4124 C4123 1.414 . S
C4124 C4125 1.374 . S
C4125 H4105 0.950 . S
C4125 C4121 1.385 . S
C4125 C4124 1.374 . S
C4126 C4123 1.499 . S
C4126 C4127 1.373 . S
C4126 C4128 1.389 . S
C4127 H4106 0.950 . S
C4127 C4126 1.373 . S
C4127 C4143 1.377 . S
C4128 C4126 1.389 . S
C4128 C4129 1.524 . S
C4128 C4142 1.377 . S
C4129 C4128 1.524 . S
C4129 C4130 1.397 . S
C4129 C4134 1.363 . S
C4130 H4107 0.950 . S
C4130 C4129 1.397 . S
C4130 C4131 1.334 . S
C4131 H4108 0.950 . S
C4131 C4130 1.334 . S
C4131 C4132 1.287 . S
C4132 C4131 1.287 . S
C4132 C4133 1.524 . S
C4132 H4151 0.913 . S
C4133 H4109 0.950 . S
C4133 C4132 1.524 . S
C4133 C4134 1.415 . S
C4134 H4110 0.950 . S
C4134 C4129 1.363 . S
C4134 C4133 1.415 . S
C4135 H4111 0.951 . S
C4135 C4136 1.366 . S
C4135 C4137 1.388 . S
C4136 C4135 1.366 . S
C4136 C4140 1.385 . S
C4137 H4112 0.951 . S
C4137 C4135 1.388 . S
C4137 C4138 1.366 . S
C4138 C4137 1.366 . S
C4138 C4139 1.414 . S
C4138 C4141 1.499 . S
C4139 H4113 0.950 . S
C4139 C4138 1.414 . S
C4139 C4140 1.374 . S
C4140 H4114 0.950 . S
C4140 C4136 1.385 . S
C4140 C4139 1.374 . S
C4141 C4138 1.499 . S
C4141 C4142 1.373 . S
C4141 C4143 1.389 . S
C4142 H4115 0.950 . S
C4142 C4128 1.377 . S
C4142 C4141 1.373 . S
C4143 C4127 1.377 . S
C4143 C4141 1.389 . S
C4143 C4144 1.524 . S
C4144 C4143 1.524 . S
C4144 C4145 1.397 . S
C4144 C4149 1.363 . S
C4145 H4116 0.950 . S
C4145 C4144 1.397 . S
C4145 C4146 1.334 . S
C4146 H4117 0.950 . S
C4146 C4145 1.334 . S
C4146 C4147 1.287 . S
C4147 C4146 1.287 . S
C4147 C4148 1.524 . S
C4147 H4150 0.999 . S
C4148 H4118 0.950 . S
C4148 C4147 1.524 . S
C4148 C4149 1.415 . S
C4149 H4119 0.950 . S
C4149 C4144 1.363 . S
C4149 C4148 1.415 . S
H4150 C4147 0.999 . S
H4151 C4132 0.913 . S
H4152 C4170 0.951 . S
H4153 C4172 0.951 . S
H4154 C4174 0.950 . S
H4155 C4175 0.950 . S
H4156 C4177 0.950 . S
H4157 C4180 0.950 . S
H4158 C4181 0.950 . S
H4159 C4183 0.950 . S
H4160 C4184 0.950 . S
H4161 C4185 0.951 . S
H4162 C4187 0.951 . S
H4163 C4189 0.950 . S
H4164 C4190 0.950 . S
H4165 C4192 0.950 . S
H4166 C4195 0.950 . S
H4167 C4196 0.950 . S
H4168 C4198 0.950 . S
H4169 C4199 0.950 . S
C4170 H4152 0.951 . S
C4170 C4171 1.366 . S
C4170 C4172 1.388 . S
C4171 C4170 1.366 . S
C4171 C4175 1.385 . S
C4172 H4153 0.951 . S
C4172 C4170 1.388 . S
C4172 C4173 1.366 . S
C4173 C4172 1.366 . S
C4173 C4174 1.414 . S
C4173 C4176 1.499 . S
C4174 H4154 0.950 . S
C4174 C4173 1.414 . S
C4174 C4175 1.374 . S
C4175 H4155 0.950 . S
C4175 C4171 1.385 . S
C4175 C4174 1.374 . S
C4176 C4173 1.499 . S
C4176 C4177 1.373 . S
C4176 C4178 1.389 . S
C4177 H4156 0.950 . S
C4177 C4176 1.373 . S
C4177 C4193 1.377 . S
C4178 C4176 1.389 . S
C4178 C4179 1.524 . S
C4178 C4192 1.377 . S
C4179 C4178 1.524 . S
C4179 C4180 1.397 . S
C4179 C4184 1.363 . S
C4180 H4157 0.950 . S
C4180 C4179 1.397 . S
C4180 C4181 1.334 . S
C4181 H4158 0.950 . S
C4181 C4180 1.334 . S
C4181 C4182 1.287 . S
C4182 C4181 1.287 . S
C4182 C4183 1.524 . S
C4182 H4201 0.913 . S
C4183 H4159 0.950 . S
C4183 C4182 1.524 . S
C4183 C4184 1.415 . S
C4184 H4160 0.950 . S
C4184 C4179 1.363 . S
C4184 C4183 1.415 . S
C4185 H4161 0.951 . S
C4185 C4186 1.366 . S
C4185 C4187 1.388 . S
C4186 C4185 1.366 . S
C4186 C4190 1.385 . S
C4187 H4162 0.951 . S
C4187 C4185 1.388 . S
C4187 C4188 1.366 . S
C4188 C4187 1.366 . S
C4188 C4189 1.414 . S
C4188 C4191 1.499 . S
C4189 H4163 0.950 . S
C4189 C4188 1.414 . S
C4189 C4190 1.374 . S
C4190 H4164 0.950 . S
C4190 C4186 1.385 . S
C4190 C4189 1.374 . S
C4191 C4188 1.499 . S
C4191 C4192 1.373 . S
C4191 C4193 1.389 . S
C4192 H4165 0.950 . S
C4192 C4178 1.377 . S
C4192 C4191 1.373 . S
C4193 C4177 1.377 . S
C4193 C4191 1.389 . S
C4193 C4194 1.524 . S
C4194 C4193 1.524 . S
C4194 C4195 1.397 . S
C4194 C4199 1.363 . S
C4195 H4166 0.950 . S
C4195 C4194 1.397 . S
C4195 C4196 1.334 . S
C4196 H4167 0.950 . S
C4196 C4195 1.334 . S
C4196 C4197 1.287 . S
C4197 C4196 1.287 . S
C4197 C4198 1.524 . S
C4197 H4200 0.999 . S
C4198 H4168 0.950 . S
C4198 C4197 1.524 . S
C4198 C4199 1.415 . S
C4199 H4169 0.950 . S
C4199 C4194 1.363 . S
C4199 C4198 1.415 . S
H4200 C4197 0.999 . S
H4201 C4182 0.913 . S
H4202 C4220 0.951 . S
H4203 C4222 0.951 . S
H4204 C4224 0.950 . S
H4205 C4225 0.950 . S
H4206 C4227 0.950 . S
H4207 C4230 0.950 . S
H4208 C4231 0.950 . S
H4209 C4233 0.950 . S
H4210 C4234 0.950 . S
H4211 C4235 0.951 . S
H4212 C4237 0.951 . S
H4213 C4239 0.950 . S
H4214 C4240 0.950 . S
H4215 C4242 0.950 . S
H4216 C4245 0.950 . S
H4217 C4246 0.950 . S
H4218 C4248 0.950 . S
H4219 C4249 0.950 . S
C4220 H4202 0.951 . S
C4220 C4221 1.366 . S
C4220 C4222 1.388 . S
C4221 C4220 1.366 . S
C4221 C4225 1.385 . S
C4222 H4203 0.951 . S
C4222 C4220 1.388 . S
C4222 C4223 1.366 . S
C4223 C4222 1.366 . S
C4223 C4224 1.414 . S
C4223 C4226 1.499 . S
C4224 H4204 0.950 . S
C4224 C4223 1.414 . S
C4224 C4225 1.374 . S
C4225 H4205 0.950 . S
C4225 C4221 1.385 . S
C4225 C4224 1.374 . S
C4226 C4223 1.499 . S
C4226 C4227 1.373 . S
C4226 C4228 1.389 . S
C4227 H4206 0.950 . S
C4227 C4226 1.373 . S
C4227 C4243 1.377 . S
C4228 C4226 1.389 . S
C4228 C4229 1.524 . S
C4228 C4242 1.377 . S
C4229 C4228 1.524 . S
C4229 C4230 1.397 . S
C4229 C4234 1.363 . S
C4230 H4207 0.950 . S
C4230 C4229 1.397 . S
C4230 C4231 1.334 . S
C4231 H4208 0.950 . S
C4231 C4230 1.334 . S
C4231 C4232 1.287 . S
C4232 C4231 1.287 . S
C4232 C4233 1.524 . S
C4232 H4251 0.913 . S
C4233 H4209 0.950 . S
C4233 C4232 1.524 . S
C4233 C4234 1.415 . S
C4234 H4210 0.950 . S
C4234 C4229 1.363 . S
C4234 C4233 1.415 . S
C4235 H4211 0.951 . S
C4235 C4236 1.366 . S
C4235 C4237 1.388 . S
C4236 C4235 1.366 . S
C4236 C4240 1.385 . S
C4237 H4212 0.951 . S
C4237 C4235 1.388 . S
C4237 C4238 1.366 . S
C4238 C4237 1.366 . S
C4238 C4239 1.414 . S
C4238 C4241 1.499 . S
C4239 H4213 0.950 . S
C4239 C4238 1.414 . S
C4239 C4240 1.374 . S
C4240 H4214 0.950 . S
C4240 C4236 1.385 . S
C4240 C4239 1.374 . S
C4241 C4238 1.499 . S
C4241 C4242 1.373 . S
C4241 C4243 1.389 . S
C4242 H4215 0.950 . S
C4242 C4228 1.377 . S
C4242 C4241 1.373 . S
C4243 C4227 1.377 . S
C4243 C4241 1.389 . S
C4243 C4244 1.524 . S
C4244 C4243 1.524 . S
C4244 C4245 1.397 . S
C4244 C4249 1.363 . S
C4245 H4216 0.950 . S
C4245 C4244 1.397 . S
C4245 C4246 1.334 . S
C4246 H4217 0.950 . S
C4246 C4245 1.334 . S
C4246 C4247 1.287 . S
C4247 C4246 1.287 . S
C4247 C4248 1.524 . S
C4247 H4250 0.999 . S
C4248 H4218 0.950 . S
C4248 C4247 1.524 . S
C4248 C4249 1.415 . S
C4249 H4219 0.950 . S
C4249 C4244 1.363 . S
C4249 C4248 1.415 . S
H4250 C4247 0.999 . S
H4251 C4232 0.913 . S
H4252 C4270 0.951 . S
H4253 C4272 0.951 . S
H4254 C4274 0.950 . S
H4255 C4275 0.950 . S
H4256 C4277 0.950 . S
H4257 C4280 0.950 . S
H4258 C4281 0.950 . S
H4259 C4283 0.950 . S
H4260 C4284 0.950 . S
H4261 C4285 0.951 . S
H4262 C4287 0.951 . S
H4263 C4289 0.950 . S
H4264 C4290 0.950 . S
H4265 C4292 0.950 . S
H4266 C4295 0.950 . S
H4267 C4296 0.950 . S
H4268 C4298 0.950 . S
H4269 C4299 0.950 . S
C4270 H4252 0.951 . S
C4270 C4271 1.366 . S
C4270 C4272 1.388 . S
C4271 C4270 1.366 . S
C4271 C4275 1.385 . S
C4272 H4253 0.951 . S
C4272 C4270 1.388 . S
C4272 C4273 1.366 . S
C4273 C4272 1.366 . S
C4273 C4274 1.414 . S
C4273 C4276 1.499 . S
C4274 H4254 0.950 . S
C4274 C4273 1.414 . S
C4274 C4275 1.374 . S
C4275 H4255 0.950 . S
C4275 C4271 1.385 . S
C4275 C4274 1.374 . S
C4276 C4273 1.499 . S
C4276 C4277 1.373 . S
C4276 C4278 1.389 . S
C4277 H4256 0.950 . S
C4277 C4276 1.373 . S
C4277 C4293 1.377 . S
C4278 C4276 1.389 . S
C4278 C4279 1.524 . S
C4278 C4292 1.377 . S
C4279 C4278 1.524 . S
C4279 C4280 1.397 . S
C4279 C4284 1.363 . S
C4280 H4257 0.950 . S
C4280 C4279 1.397 . S
C4280 C4281 1.334 . S
C4281 H4258 0.950 . S
C4281 C4280 1.334 . S
C4281 C4282 1.287 . S
C4282 C4281 1.287 . S
C4282 C4283 1.524 . S
C4282 H4301 0.913 . S
C4283 H4259 0.950 . S
C4283 C4282 1.524 . S
C4283 C4284 1.415 . S
C4284 H4260 0.950 . S
C4284 C4279 1.363 . S
C4284 C4283 1.415 . S
C4285 H4261 0.951 . S
C4285 C4286 1.366 . S
C4285 C4287 1.388 . S
C4286 C4285 1.366 . S
C4286 C4290 1.385 . S
C4287 H4262 0.951 . S
C4287 C4285 1.388 . S
C4287 C4288 1.366 . S
C4288 C4287 1.366 . S
C4288 C4289 1.414 . S
C4288 C4291 1.499 . S
C4289 H4263 0.950 . S
C4289 C4288 1.414 . S
C4289 C4290 1.374 . S
C4290 H4264 0.950 . S
C4290 C4286 1.385 . S
C4290 C4289 1.374 . S
C4291 C4288 1.499 . S
C4291 C4292 1.373 . S
C4291 C4293 1.389 . S
C4292 H4265 0.950 . S
C4292 C4278 1.377 . S
C4292 C4291 1.373 . S
C4293 C4277 1.377 . S
C4293 C4291 1.389 . S
C4293 C4294 1.524 . S
C4294 C4293 1.524 . S
C4294 C4295 1.397 . S
C4294 C4299 1.363 . S
C4295 H4266 0.950 . S
C4295 C4294 1.397 . S
C4295 C4296 1.334 . S
C4296 H4267 0.950 . S
C4296 C4295 1.334 . S
C4296 C4297 1.287 . S
C4297 C4296 1.287 . S
C4297 C4298 1.524 . S
C4297 H4300 0.999 . S
C4298 H4268 0.950 . S
C4298 C4297 1.524 . S
C4298 C4299 1.415 . S
C4299 H4269 0.950 . S
C4299 C4294 1.363 . S
C4299 C4298 1.415 . S
H4300 C4297 0.999 . S
H4301 C4282 0.913 . S
H4302 C4320 0.951 . S
H4303 C4322 0.951 . S
H4304 C4324 0.950 . S
H4305 C4325 0.950 . S
H4306 C4327 0.950 . S
H4307 C4330 0.950 . S
H4308 C4331 0.950 . S
H4309 C4333 0.950 . S
H4310 C4334 0.950 . S
H4311 C4335 0.951 . S
H4312 C4337 0.951 . S
H4313 C4339 0.984 . S
H4314 C4340 0.905 1_556 S
H4315 C4342 0.950 . S
H4316 C4345 0.950 1_556 S
H4317 C4346 0.950 1_545 S
H4318 C4348 0.950 . S
H4319 C4349 0.950 . S
C4320 H4302 0.951 . S
C4320 C4321 1.366 1_556 S
C4320 C4322 1.388 . S
C4321 C4320 1.366 1_554 S
C4321 C4325 1.385 . S
C4322 H4303 0.951 . S
C4322 C4320 1.388 . S
C4322 C4323 1.366 1_556 S
C4323 C4322 1.366 1_554 S
C4323 C4324 1.414 . S
C4323 C4326 1.499 . S
C4324 H4304 0.950 . S
C4324 C4323 1.414 . S
C4324 C4325 1.374 . S
C4325 H4305 0.950 . S
C4325 C4321 1.385 . S
C4325 C4324 1.374 . S
C4326 C4323 1.499 . S
C4326 C4327 1.373 . S
C4326 C4328 1.389 . S
C4327 H4306 0.950 . S
C4327 C4326 1.373 . S
C4327 C4343 1.377 . S
C4328 C4326 1.389 . S
C4328 C4329 1.524 . S
C4328 C4342 1.377 . S
C4329 C4328 1.524 . S
C4329 C4330 1.397 . S
C4329 C4334 1.363 1_554 S
C4330 H4307 0.950 . S
C4330 C4329 1.397 . S
C4330 C4331 1.334 . S
C4331 H4308 0.950 . S
C4331 C4330 1.334 . S
C4331 C4332 1.287 1_554 S
C4332 C4331 1.287 1_556 S
C4332 C4333 1.524 . S
C4332 H4351 0.913 . S
C4333 H4309 0.950 . S
C4333 C4332 1.524 . S
C4333 C4334 1.415 . S
C4334 H4310 0.950 . S
C4334 C4329 1.363 1_556 S
C4334 C4333 1.415 . S
C4335 H4311 0.951 . S
C4335 C4336 1.366 . S
C4335 C4337 1.388 . S
C4336 C4335 1.366 . S
C4336 C4340 1.423 . S
C4337 H4312 0.951 . S
C4337 C4335 1.388 . S
C4337 C4338 1.366 . S
C4338 C4337 1.366 . S
C4338 C4339 1.374 1_554 S
C4338 C4341 1.499 . S
C4339 H4313 0.984 . S
C4339 C4338 1.374 1_556 S
C4339 C4340 1.391 1_556 S
C4340 H4314 0.905 1_554 S
C4340 C4336 1.423 . S
C4340 C4339 1.391 1_554 S
C4341 C4338 1.499 . S
C4341 C4342 1.373 . S
C4341 C4343 1.389 . S
C4342 H4315 0.950 . S
C4342 C4328 1.377 . S
C4342 C4341 1.373 . S
C4343 C4327 1.377 . S
C4343 C4341 1.389 . S
C4343 C4344 1.524 . S
C4344 C4343 1.524 . S
C4344 C4345 1.397 . S
C4344 C4349 1.363 . S
C4345 H4316 0.950 1_554 S
C4345 C4344 1.397 . S
C4345 C4346 1.334 . S
C4346 H4317 0.950 1_565 S
C4346 C4345 1.334 . S
C4346 C4347 1.287 1_565 S
C4347 C4346 1.287 1_545 S
C4347 C4348 1.524 1_545 S
C4347 H4350 0.999 . S
C4348 H4318 0.950 . S
C4348 C4347 1.524 1_565 S
C4348 C4349 1.415 . S
C4349 H4319 0.950 . S
C4349 C4344 1.363 . S
C4349 C4348 1.415 . S
H4350 C4347 0.999 . S
H4351 C4332 0.913 . S
H4352 C4370 0.951 . S
H4353 C4372 0.951 . S
H4354 C4374 0.950 . S
H4355 C4375 0.950 . S
H4356 C4377 0.950 . S
H4357 C4380 0.950 . S
H4358 C4381 0.950 . S
H4359 C4383 0.950 . S
H4360 C4384 0.950 . S
H4361 C4385 0.951 . S
H4362 C4387 0.951 . S
H4363 C4389 0.950 . S
H4364 C4390 0.950 . S
H4365 C4392 0.950 . S
H4366 C4395 0.950 . S
H4367 C4396 0.950 . S
H4368 C4398 0.950 . S
H4369 C4399 0.950 . S
C4370 H4352 0.951 . S
C4370 C4371 1.366 . S
C4370 C4372 1.388 . S
C4371 C4370 1.366 . S
C4371 C4375 1.385 . S
C4372 H4353 0.951 . S
C4372 C4370 1.388 . S
C4372 C4373 1.366 . S
C4373 C4372 1.366 . S
C4373 C4374 1.414 . S
C4373 C4376 1.499 . S
C4374 H4354 0.950 . S
C4374 C4373 1.414 . S
C4374 C4375 1.374 . S
C4375 H4355 0.950 . S
C4375 C4371 1.385 . S
C4375 C4374 1.374 . S
C4376 C4373 1.499 . S
C4376 C4377 1.373 . S
C4376 C4378 1.389 . S
C4377 H4356 0.950 . S
C4377 C4376 1.373 . S
C4377 C4393 1.377 . S
C4378 C4376 1.389 . S
C4378 C4379 1.524 . S
C4378 C4392 1.377 . S
C4379 C4378 1.524 . S
C4379 C4380 1.397 . S
C4379 C4384 1.363 . S
C4380 H4357 0.950 . S
C4380 C4379 1.397 . S
C4380 C4381 1.334 . S
C4381 H4358 0.950 . S
C4381 C4380 1.334 . S
C4381 C4382 1.287 . S
C4382 C4381 1.287 . S
C4382 C4383 1.524 . S
C4382 H4401 0.913 . S
C4383 H4359 0.950 . S
C4383 C4382 1.524 . S
C4383 C4384 1.415 . S
C4384 H4360 0.950 . S
C4384 C4379 1.363 . S
C4384 C4383 1.415 . S
C4385 H4361 0.951 . S
C4385 C4386 1.366 . S
C4385 C4387 1.388 . S
C4386 C4385 1.366 . S
C4386 C4390 1.385 . S
C4387 H4362 0.951 . S
C4387 C4385 1.388 . S
C4387 C4388 1.366 . S
C4388 C4387 1.366 . S
C4388 C4389 1.414 . S
C4388 C4391 1.499 . S
C4389 H4363 0.950 . S
C4389 C4388 1.414 . S
C4389 C4390 1.374 . S
C4390 H4364 0.950 . S
C4390 C4386 1.385 . S
C4390 C4389 1.374 . S
C4391 C4388 1.499 . S
C4391 C4392 1.373 . S
C4391 C4393 1.389 . S
C4392 H4365 0.950 . S
C4392 C4378 1.377 . S
C4392 C4391 1.373 . S
C4393 C4377 1.377 . S
C4393 C4391 1.389 . S
C4393 C4394 1.524 . S
C4394 C4393 1.524 . S
C4394 C4395 1.397 . S
C4394 C4399 1.363 . S
C4395 H4366 0.950 . S
C4395 C4394 1.397 . S
C4395 C4396 1.334 . S
C4396 H4367 0.950 . S
C4396 C4395 1.334 . S
C4396 C4397 1.287 . S
C4397 C4396 1.287 . S
C4397 C4398 1.524 . S
C4397 H4400 0.999 . S
C4398 H4368 0.950 . S
C4398 C4397 1.524 . S
C4398 C4399 1.415 . S
C4399 H4369 0.950 . S
C4399 C4394 1.363 . S
C4399 C4398 1.415 . S
H4400 C4397 0.999 . S
H4401 C4382 0.913 . S
H4402 C4420 0.951 . S
H4403 C4422 0.951 . S
H4404 C4424 0.950 . S
H4405 C4425 0.950 . S
H4406 C4427 0.950 . S
H4407 C4430 0.950 . S
H4408 C4431 0.950 . S
H4409 C4433 0.947 . S
H4410 C4434 0.950 . S
H4411 C4435 0.951 . S
H4412 C4437 0.951 . S
H4413 C4439 0.950 . S
H4414 C4440 0.950 . S
H4415 C4442 0.950 . S
H4416 C4445 0.950 . S
H4417 C4446 0.950 . S
H4418 C4448 0.950 . S
H4419 C4449 0.950 . S
C4420 H4402 0.951 . S
C4420 C4421 1.366 . S
C4420 C4422 1.388 . S
C4421 C4420 1.366 . S
C4421 C4425 1.385 . S
C4422 H4403 0.951 . S
C4422 C4420 1.388 . S
C4422 C4423 1.366 . S
C4423 C4422 1.366 . S
C4423 C4424 1.414 . S
C4423 C4426 1.499 . S
C4424 H4404 0.950 . S
C4424 C4423 1.414 . S
C4424 C4425 1.374 . S
C4425 H4405 0.950 . S
C4425 C4421 1.385 . S
C4425 C4424 1.374 . S
C4426 C4423 1.499 . S
C4426 C4427 1.373 . S
C4426 C4428 1.389 . S
C4427 H4406 0.950 . S
C4427 C4426 1.373 . S
C4427 C4443 1.377 . S
C4428 C4426 1.389 . S
C4428 C4429 1.524 . S
C4428 C4442 1.377 . S
C4429 C4428 1.524 . S
C4429 C4430 1.397 1_554 S
C4429 C4434 1.363 . S
C4430 H4407 0.950 . S
C4430 C4429 1.397 1_556 S
C4430 C4431 1.334 . S
C4431 H4408 0.950 . S
C4431 C4430 1.334 . S
C4431 C4432 1.287 . S
C4432 C4431 1.287 . S
C4432 C4433 1.524 . S
C4432 H4451 0.913 . S
C4433 H4409 0.947 . S
C4433 C4432 1.524 . S
C4433 C4434 1.415 1_556 S
C4434 H4410 0.950 . S
C4434 C4429 1.363 . S
C4434 C4433 1.415 1_554 S
C4435 H4411 0.951 . S
C4435 C4436 1.366 . S
C4435 C4437 1.388 . S
C4436 C4435 1.366 . S
C4436 C4440 1.385 . S
C4437 H4412 0.951 . S
C4437 C4435 1.388 . S
C4437 C4438 1.366 . S
C4438 C4437 1.366 . S
C4438 C4439 1.414 . S
C4438 C4441 1.499 . S
C4439 H4413 0.950 . S
C4439 C4438 1.414 . S
C4439 C4440 1.374 . S
C4440 H4414 0.950 . S
C4440 C4436 1.385 . S
C4440 C4439 1.374 . S
C4441 C4438 1.499 . S
C4441 C4442 1.373 . S
C4441 C4443 1.389 . S
C4442 H4415 0.950 . S
C4442 C4428 1.377 . S
C4442 C4441 1.373 . S
C4443 C4427 1.377 . S
C4443 C4441 1.389 . S
C4443 C4444 1.524 . S
C4444 C4443 1.524 . S
C4444 C4445 1.397 . S
C4444 C4449 1.363 . S
C4445 H4416 0.950 . S
C4445 C4444 1.397 . S
C4445 C4446 1.334 . S
C4446 H4417 0.950 . S
C4446 C4445 1.334 . S
C4446 C4447 1.287 . S
C4447 C4446 1.287 . S
C4447 C4448 1.524 . S
C4447 H4450 0.999 . S
C4448 H4418 0.950 . S
C4448 C4447 1.524 . S
C4448 C4449 1.415 . S
C4449 H4419 0.950 . S
C4449 C4444 1.363 . S
C4449 C4448 1.415 . S
H4450 C4447 0.999 . S
H4451 C4432 0.913 . S
H4452 C4470 0.951 . S
H4453 C4472 0.951 . S
H4454 C4474 0.950 . S
H4455 C4475 0.950 . S
H4456 C4477 0.950 . S
H4457 C4480 0.950 . S
H4458 C4481 0.950 . S
H4459 C4483 0.950 . S
H4460 C4484 0.950 . S
H4461 C4485 0.951 . S
H4462 C4487 0.951 . S
H4463 C4489 0.950 . S
H4464 C4490 0.950 . S
H4465 C4492 0.950 . S
H4466 C4495 0.950 . S
H4467 C4496 0.950 . S
H4468 C4498 0.950 . S
H4469 C4499 0.950 . S
C4470 H4452 0.951 . S
C4470 C4471 1.366 . S
C4470 C4472 1.388 . S
C4471 C4470 1.366 . S
C4471 C4475 1.385 . S
C4472 H4453 0.951 . S
C4472 C4470 1.388 . S
C4472 C4473 1.366 . S
C4473 C4472 1.366 . S
C4473 C4474 1.414 . S
C4473 C4476 1.499 . S
C4474 H4454 0.950 . S
C4474 C4473 1.414 . S
C4474 C4475 1.374 . S
C4475 H4455 0.950 . S
C4475 C4471 1.385 . S
C4475 C4474 1.374 . S
C4476 C4473 1.499 . S
C4476 C4477 1.373 . S
C4476 C4478 1.389 . S
C4477 H4456 0.950 . S
C4477 C4476 1.373 . S
C4477 C4493 1.377 . S
C4478 C4476 1.389 . S
C4478 C4479 1.524 . S
C4478 C4492 1.377 . S
C4479 C4478 1.524 . S
C4479 C4480 1.397 . S
C4479 C4484 1.363 . S
C4480 H4457 0.950 . S
C4480 C4479 1.397 . S
C4480 C4481 1.334 . S
C4481 H4458 0.950 . S
C4481 C4480 1.334 . S
C4481 C4482 1.287 . S
C4482 C4481 1.287 . S
C4482 C4483 1.524 . S
C4482 H4501 0.913 . S
C4483 H4459 0.950 . S
C4483 C4482 1.524 . S
C4483 C4484 1.415 . S
C4484 H4460 0.950 . S
C4484 C4479 1.363 . S
C4484 C4483 1.415 . S
C4485 H4461 0.951 . S
C4485 C4486 1.366 . S
C4485 C4487 1.388 . S
C4486 C4485 1.366 . S
C4486 C4490 1.385 . S
C4487 H4462 0.951 . S
C4487 C4485 1.388 . S
C4487 C4488 1.366 . S
C4488 C4487 1.366 . S
C4488 C4489 1.414 . S
C4488 C4491 1.499 . S
C4489 H4463 0.950 . S
C4489 C4488 1.414 . S
C4489 C4490 1.374 . S
C4490 H4464 0.950 . S
C4490 C4486 1.385 . S
C4490 C4489 1.374 . S
C4491 C4488 1.499 . S
C4491 C4492 1.373 . S
C4491 C4493 1.389 . S
C4492 H4465 0.950 . S
C4492 C4478 1.377 . S
C4492 C4491 1.373 . S
C4493 C4477 1.377 . S
C4493 C4491 1.389 . S
C4493 C4494 1.524 . S
C4494 C4493 1.524 . S
C4494 C4495 1.397 . S
C4494 C4499 1.363 . S
C4495 H4466 0.950 . S
C4495 C4494 1.397 . S
C4495 C4496 1.334 . S
C4496 H4467 0.950 . S
C4496 C4495 1.334 . S
C4496 C4497 1.287 . S
C4497 C4496 1.287 . S
C4497 C4498 1.524 . S
C4497 H4500 0.999 . S
C4498 H4468 0.950 . S
C4498 C4497 1.524 . S
C4498 C4499 1.415 . S
C4499 H4469 0.950 . S
C4499 C4494 1.363 . S
C4499 C4498 1.415 . S
H4500 C4497 0.999 . S
H4501 C4482 0.913 . S
H4502 C4520 0.951 . S
H4503 C4522 0.951 . S
H4504 C4524 0.950 . S
H4505 C4525 0.950 . S
H4506 C4527 0.950 . S
H4507 C4530 0.950 . S
H4508 C4531 0.950 . S
H4509 C4533 0.950 . S
H4510 C4534 0.950 . S
H4511 C4535 0.951 . S
H4512 C4537 0.951 . S
H4513 C4539 0.950 . S
H4514 C4540 0.950 . S
H4515 C4542 0.950 . S
H4516 C4545 0.950 . S
H4517 C4546 0.950 . S
H4518 C4548 0.950 . S
H4519 C4549 0.950 . S
C4520 H4502 0.951 . S
C4520 C4521 1.366 . S
C4520 C4522 1.388 . S
C4521 C4520 1.366 . S
C4521 C4525 1.385 . S
C4522 H4503 0.951 . S
C4522 C4520 1.388 . S
C4522 C4523 1.366 . S
C4523 C4522 1.366 . S
C4523 C4524 1.414 . S
C4523 C4526 1.499 . S
C4524 H4504 0.950 . S
C4524 C4523 1.414 . S
C4524 C4525 1.374 . S
C4525 H4505 0.950 . S
C4525 C4521 1.385 . S
C4525 C4524 1.374 . S
C4526 C4523 1.499 . S
C4526 C4527 1.373 . S
C4526 C4528 1.389 . S
C4527 H4506 0.950 . S
C4527 C4526 1.373 . S
C4527 C4543 1.377 . S
C4528 C4526 1.389 . S
C4528 C4529 1.524 . S
C4528 C4542 1.377 . S
C4529 C4528 1.524 . S
C4529 C4530 1.397 . S
C4529 C4534 1.363 . S
C4530 H4507 0.950 . S
C4530 C4529 1.397 . S
C4530 C4531 1.334 . S
C4531 H4508 0.950 . S
C4531 C4530 1.334 . S
C4531 C4532 1.287 . S
C4532 C4531 1.287 . S
C4532 C4533 1.524 . S
C4532 H4551 0.913 . S
C4533 H4509 0.950 . S
C4533 C4532 1.524 . S
C4533 C4534 1.415 . S
C4534 H4510 0.950 . S
C4534 C4529 1.363 . S
C4534 C4533 1.415 . S
C4535 H4511 0.951 . S
C4535 C4536 1.366 . S
C4535 C4537 1.388 . S
C4536 C4535 1.366 . S
C4536 C4540 1.385 . S
C4537 H4512 0.951 . S
C4537 C4535 1.388 . S
C4537 C4538 1.366 . S
C4538 C4537 1.366 . S
C4538 C4539 1.414 . S
C4538 C4541 1.499 . S
C4539 H4513 0.950 . S
C4539 C4538 1.414 . S
C4539 C4540 1.374 . S
C4540 H4514 0.950 . S
C4540 C4536 1.385 . S
C4540 C4539 1.374 . S
C4541 C4538 1.499 . S
C4541 C4542 1.373 . S
C4541 C4543 1.389 . S
C4542 H4515 0.950 . S
C4542 C4528 1.377 . S
C4542 C4541 1.373 . S
C4543 C4527 1.377 . S
C4543 C4541 1.389 . S
C4543 C4544 1.524 . S
C4544 C4543 1.524 . S
C4544 C4545 1.397 . S
C4544 C4549 1.363 . S
C4545 H4516 0.950 . S
C4545 C4544 1.397 . S
C4545 C4546 1.334 . S
C4546 H4517 0.950 . S
C4546 C4545 1.334 . S
C4546 C4547 1.287 . S
C4547 C4546 1.287 . S
C4547 C4548 1.524 . S
C4547 H4550 0.999 . S
C4548 H4518 0.950 . S
C4548 C4547 1.524 . S
C4548 C4549 1.415 . S
C4549 H4519 0.950 . S
C4549 C4544 1.363 . S
C4549 C4548 1.415 . S
H4550 C4547 0.999 . S
H4551 C4532 0.913 . S
H4552 C4570 0.951 . S
H4553 C4572 0.951 . S
H4554 C4574 0.950 . S
H4555 C4575 0.950 . S
H4556 C4577 0.950 . S
H4557 C4580 0.950 . S
H4558 C4581 0.950 . S
H4559 C4583 0.950 . S
H4560 C4584 0.950 . S
H4561 C4585 0.951 . S
H4562 C4587 0.951 . S
H4563 C4589 0.950 . S
H4564 C4590 0.950 . S
H4565 C4592 0.950 . S
H4566 C4595 0.950 . S
H4567 C4596 0.950 . S
H4568 C4598 0.950 . S
H4569 C4599 0.950 . S
C4570 H4552 0.951 . S
C4570 C4571 1.366 . S
C4570 C4572 1.388 . S
C4571 C4570 1.366 . S
C4571 C4575 1.385 . S
C4572 H4553 0.951 . S
C4572 C4570 1.388 . S
C4572 C4573 1.366 . S
C4573 C4572 1.366 . S
C4573 C4574 1.414 . S
C4573 C4576 1.499 . S
C4574 H4554 0.950 . S
C4574 C4573 1.414 . S
C4574 C4575 1.374 . S
C4575 H4555 0.950 . S
C4575 C4571 1.385 . S
C4575 C4574 1.374 . S
C4576 C4573 1.499 . S
C4576 C4577 1.373 . S
C4576 C4578 1.389 . S
C4577 H4556 0.950 . S
C4577 C4576 1.373 . S
C4577 C4593 1.377 . S
C4578 C4576 1.389 . S
C4578 C4579 1.524 . S
C4578 C4592 1.377 . S
C4579 C4578 1.524 . S
C4579 C4580 1.397 . S
C4579 C4584 1.363 . S
C4580 H4557 0.950 . S
C4580 C4579 1.397 . S
C4580 C4581 1.334 . S
C4581 H4558 0.950 . S
C4581 C4580 1.334 . S
C4581 C4582 1.287 . S
C4582 C4581 1.287 . S
C4582 C4583 1.524 . S
C4582 H4601 0.913 . S
C4583 H4559 0.950 . S
C4583 C4582 1.524 . S
C4583 C4584 1.415 . S
C4584 H4560 0.950 . S
C4584 C4579 1.363 . S
C4584 C4583 1.415 . S
C4585 H4561 0.951 . S
C4585 C4586 1.366 . S
C4585 C4587 1.388 . S
C4586 C4585 1.366 . S
C4586 C4590 1.385 . S
C4587 H4562 0.951 . S
C4587 C4585 1.388 . S
C4587 C4588 1.366 . S
C4588 C4587 1.366 . S
C4588 C4589 1.414 . S
C4588 C4591 1.499 . S
C4589 H4563 0.950 . S
C4589 C4588 1.414 . S
C4589 C4590 1.374 . S
C4590 H4564 0.950 . S
C4590 C4586 1.385 . S
C4590 C4589 1.374 . S
C4591 C4588 1.499 . S
C4591 C4592 1.373 . S
C4591 C4593 1.389 . S
C4592 H4565 0.950 . S
C4592 C4578 1.377 . S
C4592 C4591 1.373 . S
C4593 C4577 1.377 . S
C4593 C4591 1.389 . S
C4593 C4594 1.524 . S
C4594 C4593 1.524 . S
C4594 C4595 1.397 . S
C4594 C4599 1.363 . S
C4595 H4566 0.950 . S
C4595 C4594 1.397 . S
C4595 C4596 1.334 . S
C4596 H4567 0.950 . S
C4596 C4595 1.334 . S
C4596 C4597 1.287 . S
C4597 C4596 1.287 . S
C4597 C4598 1.524 . S
C4597 H4600 0.999 . S
C4598 H4568 0.950 . S
C4598 C4597 1.524 . S
C4598 C4599 1.415 . S
C4599 H4569 0.950 . S
C4599 C4594 1.363 . S
C4599 C4598 1.415 . S
H4600 C4597 0.999 . S
H4601 C4582 0.913 . S
H4602 C4620 0.951 . S
H4603 C4622 0.951 . S
H4604 C4624 0.950 . S
H4605 C4625 0.950 . S
H4606 C4627 0.950 . S
H4607 C4630 0.950 . S
H4608 C4631 0.950 . S
H4609 C4633 0.950 . S
H4610 C4634 0.950 . S
H4611 C4635 0.951 . S
H4612 C4637 0.951 . S
H4613 C4639 0.950 . S
H4614 C4640 0.950 . S
H4615 C4642 0.950 . S
H4616 C4645 0.950 . S
H4617 C4646 0.950 . S
H4618 C4648 0.950 . S
H4619 C4649 0.950 . S
C4620 H4602 0.951 . S
C4620 C4621 1.366 . S
C4620 C4622 1.388 . S
C4621 C4620 1.366 . S
C4621 C4625 1.385 . S
C4622 H4603 0.951 . S
C4622 C4620 1.388 . S
C4622 C4623 1.366 . S
C4623 C4622 1.366 . S
C4623 C4624 1.414 . S
C4623 C4626 1.499 . S
C4624 H4604 0.950 . S
C4624 C4623 1.414 . S
C4624 C4625 1.374 . S
C4625 H4605 0.950 . S
C4625 C4621 1.385 . S
C4625 C4624 1.374 . S
C4626 C4623 1.499 . S
C4626 C4627 1.373 . S
C4626 C4628 1.389 . S
C4627 H4606 0.950 . S
C4627 C4626 1.373 . S
C4627 C4643 1.377 . S
C4628 C4626 1.389 . S
C4628 C4629 1.524 . S
C4628 C4642 1.377 . S
C4629 C4628 1.524 . S
C4629 C4630 1.397 . S
C4629 C4634 1.363 . S
C4630 H4607 0.950 . S
C4630 C4629 1.397 . S
C4630 C4631 1.334 . S
C4631 H4608 0.950 . S
C4631 C4630 1.334 . S
C4631 C4632 1.287 . S
C4632 C4631 1.287 . S
C4632 C4633 1.524 . S
C4632 H4651 0.913 . S
C4633 H4609 0.950 . S
C4633 C4632 1.524 . S
C4633 C4634 1.415 . S
C4634 H4610 0.950 . S
C4634 C4629 1.363 . S
C4634 C4633 1.415 . S
C4635 H4611 0.951 . S
C4635 C4636 1.366 . S
C4635 C4637 1.388 . S
C4636 C4635 1.366 . S
C4636 C4640 1.385 . S
C4637 H4612 0.951 . S
C4637 C4635 1.388 . S
C4637 C4638 1.366 . S
C4638 C4637 1.366 . S
C4638 C4639 1.414 . S
C4638 C4641 1.499 . S
C4639 H4613 0.950 . S
C4639 C4638 1.414 . S
C4639 C4640 1.374 . S
C4640 H4614 0.950 . S
C4640 C4636 1.385 . S
C4640 C4639 1.374 . S
C4641 C4638 1.499 . S
C4641 C4642 1.373 . S
C4641 C4643 1.389 . S
C4642 H4615 0.950 . S
C4642 C4628 1.377 . S
C4642 C4641 1.373 . S
C4643 C4627 1.377 . S
C4643 C4641 1.389 . S
C4643 C4644 1.524 . S
C4644 C4643 1.524 . S
C4644 C4645 1.397 . S
C4644 C4649 1.363 . S
C4645 H4616 0.950 . S
C4645 C4644 1.397 . S
C4645 C4646 1.334 . S
C4646 H4617 0.950 . S
C4646 C4645 1.334 . S
C4646 C4647 1.287 . S
C4647 C4646 1.287 . S
C4647 C4648 1.524 . S
C4647 H4650 0.999 . S
C4648 H4618 0.950 . S
C4648 C4647 1.524 . S
C4648 C4649 1.415 . S
C4649 H4619 0.950 . S
C4649 C4644 1.363 . S
C4649 C4648 1.415 . S
H4650 C4647 0.999 . S
H4651 C4632 0.913 . S
H4652 C4670 0.951 . S
H4653 C4672 0.951 . S
H4654 C4674 0.950 . S
H4655 C4675 0.950 . S
H4656 C4677 0.950 . S
H4657 C4680 0.950 . S
H4658 C4681 0.950 . S
H4659 C4683 0.979 . S
H4660 C4684 0.950 . S
H4661 C4685 0.951 . S
H4662 C4687 0.951 . S
H4663 C4689 0.950 . S
H4664 C4690 0.950 . S
H4665 C4692 0.950 . S
H4666 C4695 0.950 . S
H4667 C4696 0.950 . S
H4668 C4698 0.950 . S
H4669 C4699 0.950 . S
C4670 H4652 0.951 . S
C4670 C4671 1.366 . S
C4670 C4672 1.388 . S
C4671 C4670 1.366 . S
C4671 C4675 1.385 . S
C4672 H4653 0.951 . S
C4672 C4670 1.388 . S
C4672 C4673 1.366 . S
C4673 C4672 1.366 . S
C4673 C4674 1.414 . S
C4673 C4676 1.499 . S
C4674 H4654 0.950 . S
C4674 C4673 1.414 . S
C4674 C4675 1.374 . S
C4675 H4655 0.950 . S
C4675 C4671 1.385 . S
C4675 C4674 1.374 . S
C4676 C4673 1.499 . S
C4676 C4677 1.373 . S
C4676 C4678 1.389 . S
C4677 H4656 0.950 . S
C4677 C4676 1.373 . S
C4677 C4693 1.377 . S
C4678 C4676 1.389 . S
C4678 C4679 1.524 . S
C4678 C4692 1.377 . S
C4679 C4678 1.524 . S
C4679 C4680 1.397 . S
C4679 C4684 1.363 . S
C4680 H4657 0.950 . S
C4680 C4679 1.397 . S
C4680 C4681 1.334 . S
C4681 H4658 0.950 . S
C4681 C4680 1.334 . S
C4681 C4682 1.287 . S
C4682 C4681 1.287 . S
C4682 C4683 1.524 . S
C4682 H4701 0.913 1_554 S
C4683 H4659 0.979 . S
C4683 C4682 1.524 . S
C4683 C4684 1.415 . S
C4684 H4660 0.950 . S
C4684 C4679 1.363 . S
C4684 C4683 1.415 . S
C4685 H4661 0.951 . S
C4685 C4686 1.366 . S
C4685 C4687 1.388 . S
C4686 C4685 1.366 . S
C4686 C4690 1.385 . S
C4687 H4662 0.951 . S
C4687 C4685 1.388 . S
C4687 C4688 1.366 . S
C4688 C4687 1.366 . S
C4688 C4689 1.414 . S
C4688 C4691 1.499 . S
C4689 H4663 0.950 . S
C4689 C4688 1.414 . S
C4689 C4690 1.374 . S
C4690 H4664 0.950 . S
C4690 C4686 1.385 . S
C4690 C4689 1.374 . S
C4691 C4688 1.499 . S
C4691 C4692 1.373 . S
C4691 C4693 1.389 . S
C4692 H4665 0.950 . S
C4692 C4678 1.377 . S
C4692 C4691 1.373 . S
C4693 C4677 1.377 . S
C4693 C4691 1.389 . S
C4693 C4694 1.524 . S
C4694 C4693 1.524 . S
C4694 C4695 1.397 . S
C4694 C4699 1.363 . S
C4695 H4666 0.950 . S
C4695 C4694 1.397 . S
C4695 C4696 1.334 . S
C4696 H4667 0.950 . S
C4696 C4695 1.334 . S
C4696 C4697 1.287 . S
C4697 C4696 1.287 . S
C4697 C4698 1.524 . S
C4697 H4700 0.999 . S
C4698 H4668 0.950 . S
C4698 C4697 1.524 . S
C4698 C4699 1.415 . S
C4699 H4669 0.950 . S
C4699 C4694 1.363 . S
C4699 C4698 1.415 . S
H4700 C4697 0.999 . S
H4701 C4682 0.913 1_556 S
H4702 C4720 0.951 . S
H4703 C4722 0.951 . S
H4704 C4724 0.950 . S
H4705 C4725 0.950 . S
H4706 C4727 0.950 . S
H4707 C4730 0.950 . S
H4708 C4731 0.950 . S
H4709 C4733 0.950 . S
H4710 C4734 0.950 . S
H4711 C4735 0.951 . S
H4712 C4737 0.951 . S
H4713 C4739 0.950 . S
H4714 C4740 0.950 . S
H4715 C4742 0.950 . S
H4716 C4745 0.950 . S
H4717 C4746 0.950 . S
H4718 C4748 0.950 . S
H4719 C4749 0.950 . S
C4720 H4702 0.951 . S
C4720 C4721 1.366 . S
C4720 C4722 1.388 . S
C4721 C4720 1.366 . S
C4721 C4725 1.385 . S
C4722 H4703 0.951 . S
C4722 C4720 1.388 . S
C4722 C4723 1.366 . S
C4723 C4722 1.366 . S
C4723 C4724 1.414 . S
C4723 C4726 1.499 . S
C4724 H4704 0.950 . S
C4724 C4723 1.414 . S
C4724 C4725 1.374 . S
C4725 H4705 0.950 . S
C4725 C4721 1.385 . S
C4725 C4724 1.374 . S
C4726 C4723 1.499 . S
C4726 C4727 1.373 . S
C4726 C4728 1.389 . S
C4727 H4706 0.950 . S
C4727 C4726 1.373 . S
C4727 C4743 1.377 . S
C4728 C4726 1.389 . S
C4728 C4729 1.524 . S
C4728 C4742 1.377 . S
C4729 C4728 1.524 . S
C4729 C4730 1.397 . S
C4729 C4734 1.363 . S
C4730 H4707 0.950 . S
C4730 C4729 1.397 . S
C4730 C4731 1.334 . S
C4731 H4708 0.950 . S
C4731 C4730 1.334 . S
C4731 C4732 1.287 . S
C4732 C4731 1.287 . S
C4732 C4733 1.524 . S
C4732 H4751 0.913 . S
C4733 H4709 0.950 . S
C4733 C4732 1.524 . S
C4733 C4734 1.415 . S
C4734 H4710 0.950 . S
C4734 C4729 1.363 . S
C4734 C4733 1.415 . S
C4735 H4711 0.951 . S
C4735 C4736 1.366 . S
C4735 C4737 1.388 . S
C4736 C4735 1.366 . S
C4736 C4740 1.385 . S
C4737 H4712 0.951 . S
C4737 C4735 1.388 . S
C4737 C4738 1.366 . S
C4738 C4737 1.366 . S
C4738 C4739 1.414 . S
C4738 C4741 1.499 . S
C4739 H4713 0.950 . S
C4739 C4738 1.414 . S
C4739 C4740 1.374 . S
C4740 H4714 0.950 . S
C4740 C4736 1.385 . S
C4740 C4739 1.374 . S
C4741 C4738 1.499 . S
C4741 C4742 1.373 . S
C4741 C4743 1.389 . S
C4742 H4715 0.950 . S
C4742 C4728 1.377 . S
C4742 C4741 1.373 . S
C4743 C4727 1.377 . S
C4743 C4741 1.389 . S
C4743 C4744 1.524 . S
C4744 C4743 1.524 . S
C4744 C4745 1.397 . S
C4744 C4749 1.363 . S
C4745 H4716 0.950 . S
C4745 C4744 1.397 . S
C4745 C4746 1.334 . S
C4746 H4717 0.950 . S
C4746 C4745 1.334 . S
C4746 C4747 1.287 . S
C4747 C4746 1.287 . S
C4747 C4748 1.524 . S
C4747 H4750 0.999 . S
C4748 H4718 0.950 . S
C4748 C4747 1.524 . S
C4748 C4749 1.415 . S
C4749 H4719 0.950 . S
C4749 C4744 1.363 . S
C4749 C4748 1.415 . S
H4750 C4747 0.999 . S
H4751 C4732 0.913 . S
H4752 C4770 0.951 . S
H4753 C4772 0.951 . S
H4754 C4774 0.950 . S
H4755 C4775 0.950 . S
H4756 C4777 0.950 . S
H4757 C4780 0.950 . S
H4758 C4781 0.950 . S
H4759 C4783 0.950 . S
H4760 C4784 0.950 . S
H4761 C4785 0.951 . S
H4762 C4787 0.951 . S
H4763 C4789 0.950 . S
H4764 C4790 0.950 . S
H4765 C4792 0.950 . S
H4766 C4795 0.950 . S
H4767 C4796 0.950 . S
H4768 C4798 0.950 . S
H4769 C4799 0.950 . S
C4770 H4752 0.951 . S
C4770 C4771 1.366 . S
C4770 C4772 1.388 . S
C4771 C4770 1.366 . S
C4771 C4775 1.385 . S
C4772 H4753 0.951 . S
C4772 C4770 1.388 . S
C4772 C4773 1.366 . S
C4773 C4772 1.366 . S
C4773 C4774 1.414 . S
C4773 C4776 1.499 . S
C4774 H4754 0.950 . S
C4774 C4773 1.414 . S
C4774 C4775 1.374 . S
C4775 H4755 0.950 . S
C4775 C4771 1.385 . S
C4775 C4774 1.374 . S
C4776 C4773 1.499 . S
C4776 C4777 1.373 . S
C4776 C4778 1.389 . S
C4777 H4756 0.950 . S
C4777 C4776 1.373 . S
C4777 C4793 1.377 . S
C4778 C4776 1.389 . S
C4778 C4779 1.524 . S
C4778 C4792 1.377 . S
C4779 C4778 1.524 . S
C4779 C4780 1.397 . S
C4779 C4784 1.363 . S
C4780 H4757 0.950 . S
C4780 C4779 1.397 . S
C4780 C4781 1.334 . S
C4781 H4758 0.950 . S
C4781 C4780 1.334 . S
C4781 C4782 1.287 . S
C4782 C4781 1.287 . S
C4782 C4783 1.524 . S
C4782 H4801 0.913 . S
C4783 H4759 0.950 . S
C4783 C4782 1.524 . S
C4783 C4784 1.415 . S
C4784 H4760 0.950 . S
C4784 C4779 1.363 . S
C4784 C4783 1.415 . S
C4785 H4761 0.951 . S
C4785 C4786 1.366 . S
C4785 C4787 1.388 . S
C4786 C4785 1.366 . S
C4786 C4790 1.385 . S
C4787 H4762 0.951 . S
C4787 C4785 1.388 . S
C4787 C4788 1.366 . S
C4788 C4787 1.366 . S
C4788 C4789 1.414 . S
C4788 C4791 1.499 . S
C4789 H4763 0.950 . S
C4789 C4788 1.414 . S
C4789 C4790 1.374 . S
C4790 H4764 0.950 . S
C4790 C4786 1.385 . S
C4790 C4789 1.374 . S
C4791 C4788 1.499 . S
C4791 C4792 1.373 . S
C4791 C4793 1.389 . S
C4792 H4765 0.950 . S
C4792 C4778 1.377 . S
C4792 C4791 1.373 . S
C4793 C4777 1.377 . S
C4793 C4791 1.389 . S
C4793 C4794 1.524 . S
C4794 C4793 1.524 . S
C4794 C4795 1.397 . S
C4794 C4799 1.363 . S
C4795 H4766 0.950 . S
C4795 C4794 1.397 . S
C4795 C4796 1.334 . S
C4796 H4767 0.950 . S
C4796 C4795 1.334 . S
C4796 C4797 1.287 . S
C4797 C4796 1.287 . S
C4797 C4798 1.524 . S
C4797 H4800 0.999 . S
C4798 H4768 0.950 . S
C4798 C4797 1.524 . S
C4798 C4799 1.415 . S
C4799 H4769 0.950 . S
C4799 C4794 1.363 . S
C4799 C4798 1.415 . S
H4800 C4797 0.999 . S
H4801 C4782 0.913 . S
H4802 C4820 0.951 . S
H4803 C4822 0.951 . S
H4804 C4824 0.950 . S
H4805 C4825 0.950 . S
H4806 C4827 0.950 . S
H4807 C4830 0.950 . S
H4808 C4831 0.950 . S
H4809 C4833 0.950 . S
H4810 C4834 0.950 . S
H4811 C4835 0.951 . S
H4812 C4837 0.951 . S
H4813 C4839 0.950 . S
H4814 C4840 0.950 . S
H4815 C4842 0.950 . S
H4816 C4845 0.950 . S
H4817 C4846 0.950 . S
H4818 C4848 0.950 . S
H4819 C4849 0.950 . S
C4820 H4802 0.951 . S
C4820 C4821 1.366 . S
C4820 C4822 1.388 . S
C4821 C4820 1.366 . S
C4821 C4825 1.385 . S
C4822 H4803 0.951 . S
C4822 C4820 1.388 . S
C4822 C4823 1.366 . S
C4823 C4822 1.366 . S
C4823 C4824 1.414 . S
C4823 C4826 1.499 . S
C4824 H4804 0.950 . S
C4824 C4823 1.414 . S
C4824 C4825 1.374 . S
C4825 H4805 0.950 . S
C4825 C4821 1.385 . S
C4825 C4824 1.374 . S
C4826 C4823 1.499 . S
C4826 C4827 1.373 . S
C4826 C4828 1.389 . S
C4827 H4806 0.950 . S
C4827 C4826 1.373 . S
C4827 C4843 1.377 . S
C4828 C4826 1.389 . S
C4828 C4829 1.524 . S
C4828 C4842 1.377 . S
C4829 C4828 1.524 . S
C4829 C4830 1.397 . S
C4829 C4834 1.363 . S
C4830 H4807 0.950 . S
C4830 C4829 1.397 . S
C4830 C4831 1.334 . S
C4831 H4808 0.950 . S
C4831 C4830 1.334 . S
C4831 C4832 1.287 . S
C4832 C4831 1.287 . S
C4832 C4833 1.524 . S
C4832 H4851 0.913 . S
C4833 H4809 0.950 . S
C4833 C4832 1.524 . S
C4833 C4834 1.415 . S
C4834 H4810 0.950 . S
C4834 C4829 1.363 . S
C4834 C4833 1.415 . S
C4835 H4811 0.951 . S
C4835 C4836 1.366 . S
C4835 C4837 1.388 . S
C4836 C4835 1.366 . S
C4836 C4840 1.385 . S
C4837 H4812 0.951 . S
C4837 C4835 1.388 . S
C4837 C4838 1.366 . S
C4838 C4837 1.366 . S
C4838 C4839 1.414 . S
C4838 C4841 1.499 . S
C4839 H4813 0.950 . S
C4839 C4838 1.414 . S
C4839 C4840 1.374 . S
C4840 H4814 0.950 . S
C4840 C4836 1.385 . S
C4840 C4839 1.374 . S
C4841 C4838 1.499 . S
C4841 C4842 1.373 . S
C4841 C4843 1.389 . S
C4842 H4815 0.950 . S
C4842 C4828 1.377 . S
C4842 C4841 1.373 . S
C4843 C4827 1.377 . S
C4843 C4841 1.389 . S
C4843 C4844 1.524 . S
C4844 C4843 1.524 . S
C4844 C4845 1.397 . S
C4844 C4849 1.363 . S
C4845 H4816 0.950 . S
C4845 C4844 1.397 . S
C4845 C4846 1.334 . S
C4846 H4817 0.950 . S
C4846 C4845 1.334 . S
C4846 C4847 1.287 . S
C4847 C4846 1.287 . S
C4847 C4848 1.524 . S
C4847 H4850 0.999 . S
C4848 H4818 0.950 . S
C4848 C4847 1.524 . S
C4848 C4849 1.415 . S
C4849 H4819 0.950 . S
C4849 C4844 1.363 . S
C4849 C4848 1.415 . S
H4850 C4847 0.999 . S
H4851 C4832 0.913 . S
H4852 C4870 0.951 . S
H4853 C4872 0.951 . S
H4854 C4874 0.916 1_655 S
H4855 C4875 0.950 . S
H4856 C4877 0.950 . S
H4857 C4880 0.950 1_655 S
H4858 C4881 0.950 1_655 S
H4859 C4883 0.950 . S
H4860 C4884 0.950 . S
H4861 C4885 0.951 . S
H4862 C4887 0.951 . S
H4863 C4889 0.950 . S
H4864 C4890 0.950 . S
H4865 C4892 0.950 . S
H4866 C4895 0.950 . S
H4867 C4896 0.950 . S
H4868 C4898 0.950 1_655 S
H4869 C4899 0.950 1_655 S
C4870 H4852 0.951 . S
C4870 C4871 1.366 . S
C4870 C4872 1.388 . S
C4871 C4870 1.366 . S
C4871 C4875 1.385 1_455 S
C4872 H4853 0.951 . S
C4872 C4870 1.388 . S
C4872 C4873 1.366 . S
C4873 C4872 1.366 . S
C4873 C4874 1.442 . S
C4873 C4876 1.499 . S
C4874 H4854 0.916 1_455 S
C4874 C4873 1.442 . S
C4874 C4875 1.381 1_455 S
C4875 H4855 0.950 . S
C4875 C4871 1.385 1_655 S
C4875 C4874 1.381 1_655 S
C4876 C4873 1.499 . S
C4876 C4877 1.373 . S
C4876 C4878 1.389 . S
C4877 H4856 0.950 . S
C4877 C4876 1.373 . S
C4877 C4893 1.377 . S
C4878 C4876 1.389 . S
C4878 C4879 1.524 . S
C4878 C4892 1.377 . S
C4879 C4878 1.524 . S
C4879 C4880 1.397 . S
C4879 C4884 1.363 . S
C4880 H4857 0.950 1_455 S
C4880 C4879 1.397 . S
C4880 C4881 1.334 . S
C4881 H4858 0.950 1_455 S
C4881 C4880 1.334 . S
C4881 C4882 1.287 . S
C4882 C4881 1.287 . S
C4882 C4883 1.524 . S
C4882 H4901 0.913 . S
C4883 H4859 0.950 . S
C4883 C4882 1.524 . S
C4883 C4884 1.415 . S
C4884 H4860 0.950 . S
C4884 C4879 1.363 . S
C4884 C4883 1.415 . S
C4885 H4861 0.951 . S
C4885 C4886 1.366 . S
C4885 C4887 1.388 . S
C4886 C4885 1.366 . S
C4886 C4890 1.385 . S
C4887 H4862 0.951 . S
C4887 C4885 1.388 . S
C4887 C4888 1.366 . S
C4888 C4887 1.366 . S
C4888 C4889 1.414 . S
C4888 C4891 1.499 . S
C4889 H4863 0.950 . S
C4889 C4888 1.414 . S
C4889 C4890 1.374 . S
C4890 H4864 0.950 . S
C4890 C4886 1.385 . S
C4890 C4889 1.374 . S
C4891 C4888 1.499 . S
C4891 C4892 1.373 . S
C4891 C4893 1.389 . S
C4892 H4865 0.950 . S
C4892 C4878 1.377 . S
C4892 C4891 1.373 . S
C4893 C4877 1.377 . S
C4893 C4891 1.389 . S
C4893 C4894 1.524 . S
C4894 C4893 1.524 . S
C4894 C4895 1.397 . S
C4894 C4899 1.363 . S
C4895 H4866 0.950 . S
C4895 C4894 1.397 . S
C4895 C4896 1.334 . S
C4896 H4867 0.950 . S
C4896 C4895 1.334 . S
C4896 C4897 1.287 . S
C4897 C4896 1.287 . S
C4897 C4898 1.524 . S
C4897 H4900 0.999 . S
C4898 H4868 0.950 1_455 S
C4898 C4897 1.524 . S
C4898 C4899 1.415 . S
C4899 H4869 0.950 1_455 S
C4899 C4894 1.363 . S
C4899 C4898 1.415 . S
H4900 C4897 0.999 . S
H4901 C4882 0.913 . S
H4902 C4920 0.951 . S
H4903 C4922 0.951 . S
H4904 C4924 0.950 . S
H4905 C4925 0.950 . S
H4906 C4927 0.950 . S
H4907 C4930 0.950 . S
H4908 C4931 0.950 . S
H4909 C4933 0.950 . S
H4910 C4934 0.950 . S
H4911 C4935 0.951 . S
H4912 C4937 0.951 . S
H4913 C4939 0.950 . S
H4914 C4940 0.950 . S
H4915 C4942 0.950 . S
H4916 C4945 0.950 . S
H4917 C4946 0.950 . S
H4918 C4948 0.950 . S
H4919 C4949 0.950 . S
C4920 H4902 0.951 . S
C4920 C4921 1.366 . S
C4920 C4922 1.388 . S
C4921 C4920 1.366 . S
C4921 C4925 1.385 . S
C4922 H4903 0.951 . S
C4922 C4920 1.388 . S
C4922 C4923 1.366 . S
C4923 C4922 1.366 . S
C4923 C4924 1.414 . S
C4923 C4926 1.499 . S
C4924 H4904 0.950 . S
C4924 C4923 1.414 . S
C4924 C4925 1.374 . S
C4925 H4905 0.950 . S
C4925 C4921 1.385 . S
C4925 C4924 1.374 . S
C4926 C4923 1.499 . S
C4926 C4927 1.373 . S
C4926 C4928 1.389 . S
C4927 H4906 0.950 . S
C4927 C4926 1.373 . S
C4927 C4943 1.377 . S
C4928 C4926 1.389 . S
C4928 C4929 1.524 . S
C4928 C4942 1.377 . S
C4929 C4928 1.524 . S
C4929 C4930 1.397 . S
C4929 C4934 1.363 . S
C4930 H4907 0.950 . S
C4930 C4929 1.397 . S
C4930 C4931 1.334 . S
C4931 H4908 0.950 . S
C4931 C4930 1.334 . S
C4931 C4932 1.287 . S
C4932 C4931 1.287 . S
C4932 C4933 1.524 . S
C4932 H4951 0.913 . S
C4933 H4909 0.950 . S
C4933 C4932 1.524 . S
C4933 C4934 1.415 . S
C4934 H4910 0.950 . S
C4934 C4929 1.363 . S
C4934 C4933 1.415 . S
C4935 H4911 0.951 . S
C4935 C4936 1.366 . S
C4935 C4937 1.388 . S
C4936 C4935 1.366 . S
C4936 C4940 1.385 . S
C4937 H4912 0.951 . S
C4937 C4935 1.388 . S
C4937 C4938 1.366 . S
C4938 C4937 1.366 . S
C4938 C4939 1.414 . S
C4938 C4941 1.499 . S
C4939 H4913 0.950 . S
C4939 C4938 1.414 . S
C4939 C4940 1.374 . S
C4940 H4914 0.950 . S
C4940 C4936 1.385 . S
C4940 C4939 1.374 . S
C4941 C4938 1.499 . S
C4941 C4942 1.373 . S
C4941 C4943 1.389 . S
C4942 H4915 0.950 . S
C4942 C4928 1.377 . S
C4942 C4941 1.373 . S
C4943 C4927 1.377 . S
C4943 C4941 1.389 . S
C4943 C4944 1.524 . S
C4944 C4943 1.524 . S
C4944 C4945 1.397 . S
C4944 C4949 1.363 . S
C4945 H4916 0.950 . S
C4945 C4944 1.397 . S
C4945 C4946 1.334 . S
C4946 H4917 0.950 . S
C4946 C4945 1.334 . S
C4946 C4947 1.287 . S
C4947 C4946 1.287 . S
C4947 C4948 1.524 . S
C4947 H4950 0.999 . S
C4948 H4918 0.950 . S
C4948 C4947 1.524 . S
C4948 C4949 1.415 . S
C4949 H4919 0.950 . S
C4949 C4944 1.363 . S
C4949 C4948 1.415 . S
H4950 C4947 0.999 . S
H4951 C4932 0.913 . S
H4952 C4970 0.951 . S
H4953 C4972 0.951 . S
H4954 C4974 0.950 . S
H4955 C4975 0.950 . S
H4956 C4977 0.950 . S
H4957 C4980 0.950 . S
H4958 C4981 0.950 . S
H4959 C4983 0.950 . S
H4960 C4984 0.950 . S
H4961 C4985 0.951 . S
H4962 C4987 0.951 . S
H4963 C4989 0.950 . S
H4964 C4990 0.950 . S
H4965 C4992 0.950 . S
H4966 C4995 0.950 . S
H4967 C4996 0.950 . S
H4968 C4998 0.950 . S
H4969 C4999 0.950 . S
C4970 H4952 0.951 . S
C4970 C4971 1.366 . S
C4970 C4972 1.388 . S
C4971 C4970 1.366 . S
C4971 C4975 1.385 . S
C4972 H4953 0.951 . S
C4972 C4970 1.388 . S
C4972 C4973 1.366 . S
C4973 C4972 1.366 . S
C4973 C4974 1.414 . S
C4973 C4976 1.499 . S
C4974 H4954 0.950 . S
C4974 C4973 1.414 . S
C4974 C4975 1.374 . S
C4975 H4955 0.950 . S
C4975 C4971 1.385 . S
C4975 C4974 1.374 . S
C4976 C4973 1.499 . S
C4976 C4977 1.373 . S
C4976 C4978 1.389 . S
C4977 H4956 0.950 . S
C4977 C4976 1.373 . S
C4977 C4993 1.377 . S
C4978 C4976 1.389 . S
C4978 C4979 1.524 . S
C4978 C4992 1.377 . S
C4979 C4978 1.524 . S
C4979 C4980 1.397 . S
C4979 C4984 1.363 . S
C4980 H4957 0.950 . S
C4980 C4979 1.397 . S
C4980 C4981 1.334 . S
C4981 H4958 0.950 . S
C4981 C4980 1.334 . S
C4981 C4982 1.287 . S
C4982 C4981 1.287 . S
C4982 C4983 1.524 . S
C4982 H5001 0.913 . S
C4983 H4959 0.950 . S
C4983 C4982 1.524 . S
C4983 C4984 1.415 . S
C4984 H4960 0.950 . S
C4984 C4979 1.363 . S
C4984 C4983 1.415 . S
C4985 H4961 0.951 . S
C4985 C4986 1.366 . S
C4985 C4987 1.388 . S
C4986 C4985 1.366 . S
C4986 C4990 1.385 . S
C4987 H4962 0.951 . S
C4987 C4985 1.388 . S
C4987 C4988 1.366 . S
C4988 C4987 1.366 . S
C4988 C4989 1.414 . S
C4988 C4991 1.499 . S
C4989 H4963 0.950 . S
C4989 C4988 1.414 . S
C4989 C4990 1.374 . S
C4990 H4964 0.950 . S
C4990 C4986 1.385 . S
C4990 C4989 1.374 . S
C4991 C4988 1.499 . S
C4991 C4992 1.373 . S
C4991 C4993 1.389 . S
C4992 H4965 0.950 . S
C4992 C4978 1.377 . S
C4992 C4991 1.373 . S
C4993 C4977 1.377 . S
C4993 C4991 1.389 . S
C4993 C4994 1.524 . S
C4994 C4993 1.524 . S
C4994 C4995 1.397 . S
C4994 C4999 1.363 . S
C4995 H4966 0.950 . S
C4995 C4994 1.397 . S
C4995 C4996 1.334 . S
C4996 H4967 0.950 . S
C4996 C4995 1.334 . S
C4996 C4997 1.287 . S
C4997 C4996 1.287 . S
C4997 C4998 1.524 . S
C4997 H5000 0.999 . S
C4998 H4968 0.950 . S
C4998 C4997 1.524 . S
C4998 C4999 1.415 . S
C4999 H4969 0.950 . S
C4999 C4994 1.363 . S
C4999 C4998 1.415 . S
H5000 C4997 0.999 . S
H5001 C4982 0.913 . S
H5002 C5020 0.951 . S
H5003 C5022 0.951 . S
H5004 C5024 0.950 . S
H5005 C5025 0.950 . S
H5006 C5027 0.950 . S
H5007 C5030 0.950 . S
H5008 C5031 0.950 . S
H5009 C5033 0.950 . S
H5010 C5034 0.950 . S
H5011 C5035 0.951 . S
H5012 C5037 0.951 . S
H5013 C5039 0.950 . S
H5014 C5040 0.950 . S
H5015 C5042 0.950 . S
H5016 C5045 0.950 . S
H5017 C5046 0.950 . S
H5018 C5048 0.950 . S
H5019 C5049 0.950 . S
C5020 H5002 0.951 . S
C5020 C5021 1.366 . S
C5020 C5022 1.388 . S
C5021 C5020 1.366 . S
C5021 C5025 1.385 . S
C5022 H5003 0.951 . S
C5022 C5020 1.388 . S
C5022 C5023 1.366 . S
C5023 C5022 1.366 . S
C5023 C5024 1.414 . S
C5023 C5026 1.499 . S
C5024 H5004 0.950 . S
C5024 C5023 1.414 . S
C5024 C5025 1.374 . S
C5025 H5005 0.950 . S
C5025 C5021 1.385 . S
C5025 C5024 1.374 . S
C5026 C5023 1.499 . S
C5026 C5027 1.373 . S
C5026 C5028 1.389 . S
C5027 H5006 0.950 . S
C5027 C5026 1.373 . S
C5027 C5043 1.377 . S
C5028 C5026 1.389 . S
C5028 C5029 1.524 . S
C5028 C5042 1.377 . S
C5029 C5028 1.524 . S
C5029 C5030 1.397 . S
C5029 C5034 1.363 . S
C5030 H5007 0.950 . S
C5030 C5029 1.397 . S
C5030 C5031 1.334 . S
C5031 H5008 0.950 . S
C5031 C5030 1.334 . S
C5031 C5032 1.287 . S
C5032 C5031 1.287 . S
C5032 C5033 1.524 . S
C5032 H5051 0.913 . S
C5033 H5009 0.950 . S
C5033 C5032 1.524 . S
C5033 C5034 1.415 . S
C5034 H5010 0.950 . S
C5034 C5029 1.363 . S
C5034 C5033 1.415 . S
C5035 H5011 0.951 . S
C5035 C5036 1.366 . S
C5035 C5037 1.388 . S
C5036 C5035 1.366 . S
C5036 C5040 1.385 . S
C5037 H5012 0.951 . S
C5037 C5035 1.388 . S
C5037 C5038 1.366 . S
C5038 C5037 1.366 . S
C5038 C5039 1.414 . S
C5038 C5041 1.499 . S
C5039 H5013 0.950 . S
C5039 C5038 1.414 . S
C5039 C5040 1.374 . S
C5040 H5014 0.950 . S
C5040 C5036 1.385 . S
C5040 C5039 1.374 . S
C5041 C5038 1.499 . S
C5041 C5042 1.373 . S
C5041 C5043 1.389 . S
C5042 H5015 0.950 . S
C5042 C5028 1.377 . S
C5042 C5041 1.373 . S
C5043 C5027 1.377 . S
C5043 C5041 1.389 . S
C5043 C5044 1.524 . S
C5044 C5043 1.524 . S
C5044 C5045 1.397 . S
C5044 C5049 1.363 . S
C5045 H5016 0.950 . S
C5045 C5044 1.397 . S
C5045 C5046 1.334 . S
C5046 H5017 0.950 . S
C5046 C5045 1.334 . S
C5046 C5047 1.287 . S
C5047 C5046 1.287 . S
C5047 C5048 1.524 . S
C5047 H5050 0.999 . S
C5048 H5018 0.950 . S
C5048 C5047 1.524 . S
C5048 C5049 1.415 . S
C5049 H5019 0.950 . S
C5049 C5044 1.363 . S
C5049 C5048 1.415 . S
H5050 C5047 0.999 . S
H5051 C5032 0.913 . S
H5052 C5070 0.951 . S
H5053 C5072 0.951 . S
H5054 C5074 0.950 . S
H5055 C5075 0.950 . S
H5056 C5077 0.950 . S
H5057 C5080 0.950 . S
H5058 C5081 0.950 . S
H5059 C5083 0.950 . S
H5060 C5084 0.950 . S
H5061 C5085 0.951 . S
H5062 C5087 0.951 . S
H5063 C5089 0.950 . S
H5064 C5090 0.950 . S
H5065 C5092 1.021 . S
H5066 C5095 0.950 . S
H5067 C5096 0.950 . S
H5068 C5098 0.950 . S
H5069 C5099 0.950 . S
C5070 H5052 0.951 . S
C5070 C5071 1.366 . S
C5070 C5072 1.388 . S
C5071 C5070 1.366 . S
C5071 C5075 1.385 . S
C5072 H5053 0.951 . S
C5072 C5070 1.388 . S
C5072 C5073 1.366 . S
C5073 C5072 1.366 . S
C5073 C5074 1.414 . S
C5073 C5076 1.499 . S
C5074 H5054 0.950 . S
C5074 C5073 1.414 . S
C5074 C5075 1.374 . S
C5075 H5055 0.950 . S
C5075 C5071 1.385 . S
C5075 C5074 1.374 . S
C5076 C5073 1.499 . S
C5076 C5077 1.373 . S
C5076 C5078 1.389 . S
C5077 H5056 0.950 . S
C5077 C5076 1.373 . S
C5077 C5093 1.377 . S
C5078 C5076 1.389 . S
C5078 C5079 1.524 . S
C5078 C5092 1.377 . S
C5079 C5078 1.524 . S
C5079 C5080 1.397 . S
C5079 C5084 1.363 1_655 S
C5080 H5057 0.950 . S
C5080 C5079 1.397 . S
C5080 C5081 1.334 . S
C5081 H5058 0.950 . S
C5081 C5080 1.334 . S
C5081 C5082 1.287 1_655 S
C5082 C5081 1.287 1_455 S
C5082 C5083 1.524 . S
C5082 H5101 0.913 . S
C5083 H5059 0.950 . S
C5083 C5082 1.524 . S
C5083 C5084 1.415 . S
C5084 H5060 0.950 . S
C5084 C5079 1.363 1_455 S
C5084 C5083 1.415 . S
C5085 H5061 0.951 . S
C5085 C5086 1.366 1_655 S
C5085 C5087 1.388 . S
C5086 C5085 1.366 1_455 S
C5086 C5090 1.385 . S
C5087 H5062 0.951 . S
C5087 C5085 1.388 . S
C5087 C5088 1.366 . S
C5088 C5087 1.366 . S
C5088 C5089 1.414 1_655 S
C5088 C5091 1.499 . S
C5089 H5063 0.950 . S
C5089 C5088 1.414 1_455 S
C5089 C5090 1.374 . S
C5090 H5064 0.950 . S
C5090 C5086 1.385 . S
C5090 C5089 1.374 . S
C5091 C5088 1.499 . S
C5091 C5092 1.373 . S
C5091 C5093 1.389 . S
C5092 H5065 1.021 . S
C5092 C5078 1.377 . S
C5092 C5091 1.373 . S
C5093 C5077 1.377 . S
C5093 C5091 1.389 . S
C5093 C5094 1.524 . S
C5094 C5093 1.524 . S
C5094 C5095 1.397 . S
C5094 C5099 1.363 . S
C5095 H5066 0.950 . S
C5095 C5094 1.397 . S
C5095 C5096 1.334 . S
C5096 H5067 0.950 . S
C5096 C5095 1.334 . S
C5096 C5097 1.287 . S
C5097 C5096 1.287 . S
C5097 C5098 1.524 . S
C5097 H5100 0.999 . S
C5098 H5068 0.950 . S
C5098 C5097 1.524 . S
C5098 C5099 1.415 . S
C5099 H5069 0.950 . S
C5099 C5094 1.363 . S
C5099 C5098 1.415 . S
H5100 C5097 0.999 . S
H5101 C5082 0.913 . S
H5102 C5120 0.951 . S
H5103 C5122 0.951 . S
H5104 C5124 0.950 . S
H5105 C5125 0.950 . S
H5106 C5127 0.950 . S
H5107 C5130 0.950 . S
H5108 C5131 0.950 . S
H5109 C5133 0.950 . S
H5110 C5134 0.950 . S
H5111 C5135 0.951 . S
H5112 C5137 0.951 . S
H5113 C5139 0.950 . S
H5114 C5140 0.950 . S
H5115 C5142 0.950 . S
H5116 C5145 0.950 . S
H5117 C5146 0.950 . S
H5118 C5148 0.950 . S
H5119 C5149 0.950 . S
C5120 H5102 0.951 . S
C5120 C5121 1.366 . S
C5120 C5122 1.388 . S
C5121 C5120 1.366 . S
C5121 C5125 1.385 . S
C5122 H5103 0.951 . S
C5122 C5120 1.388 . S
C5122 C5123 1.366 . S
C5123 C5122 1.366 . S
C5123 C5124 1.414 . S
C5123 C5126 1.499 . S
C5124 H5104 0.950 . S
C5124 C5123 1.414 . S
C5124 C5125 1.374 . S
C5125 H5105 0.950 . S
C5125 C5121 1.385 . S
C5125 C5124 1.374 . S
C5126 C5123 1.499 . S
C5126 C5127 1.373 . S
C5126 C5128 1.389 . S
C5127 H5106 0.950 . S
C5127 C5126 1.373 . S
C5127 C5143 1.377 . S
C5128 C5126 1.389 . S
C5128 C5129 1.524 . S
C5128 C5142 1.377 . S
C5129 C5128 1.524 . S
C5129 C5130 1.397 . S
C5129 C5134 1.363 . S
C5130 H5107 0.950 . S
C5130 C5129 1.397 . S
C5130 C5131 1.334 . S
C5131 H5108 0.950 . S
C5131 C5130 1.334 . S
C5131 C5132 1.287 . S
C5132 C5131 1.287 . S
C5132 C5133 1.524 . S
C5132 H5151 0.913 . S
C5133 H5109 0.950 . S
C5133 C5132 1.524 . S
C5133 C5134 1.415 . S
C5134 H5110 0.950 . S
C5134 C5129 1.363 . S
C5134 C5133 1.415 . S
C5135 H5111 0.951 . S
C5135 C5136 1.366 . S
C5135 C5137 1.388 . S
C5136 C5135 1.366 . S
C5136 C5140 1.385 . S
C5137 H5112 0.951 . S
C5137 C5135 1.388 . S
C5137 C5138 1.366 . S
C5138 C5137 1.366 . S
C5138 C5139 1.414 . S
C5138 C5141 1.499 . S
C5139 H5113 0.950 . S
C5139 C5138 1.414 . S
C5139 C5140 1.374 . S
C5140 H5114 0.950 . S
C5140 C5136 1.385 . S
C5140 C5139 1.374 . S
C5141 C5138 1.499 . S
C5141 C5142 1.373 . S
C5141 C5143 1.389 . S
C5142 H5115 0.950 . S
C5142 C5128 1.377 . S
C5142 C5141 1.373 . S
C5143 C5127 1.377 . S
C5143 C5141 1.389 . S
C5143 C5144 1.524 . S
C5144 C5143 1.524 . S
C5144 C5145 1.397 . S
C5144 C5149 1.363 . S
C5145 H5116 0.950 . S
C5145 C5144 1.397 . S
C5145 C5146 1.334 . S
C5146 H5117 0.950 . S
C5146 C5145 1.334 . S
C5146 C5147 1.287 . S
C5147 C5146 1.287 . S
C5147 C5148 1.524 . S
C5147 H5150 0.999 . S
C5148 H5118 0.950 . S
C5148 C5147 1.524 . S
C5148 C5149 1.415 . S
C5149 H5119 0.950 . S
C5149 C5144 1.363 . S
C5149 C5148 1.415 . S
H5150 C5147 0.999 . S
H5151 C5132 0.913 . S
H5152 C5170 0.951 . S
H5153 C5172 0.951 . S
H5154 C5174 0.950 . S
H5155 C5175 0.950 . S
H5156 C5177 0.950 . S
H5157 C5180 0.950 . S
H5158 C5181 0.950 . S
H5159 C5183 0.950 . S
H5160 C5184 0.950 . S
H5161 C5185 0.951 . S
H5162 C5187 0.951 . S
H5163 C5189 0.950 . S
H5164 C5190 0.950 . S
H5165 C5192 0.950 . S
H5166 C5195 0.950 . S
H5167 C5196 0.950 . S
H5168 C5198 0.950 . S
H5169 C5199 0.950 . S
C5170 H5152 0.951 . S
C5170 C5171 1.366 . S
C5170 C5172 1.388 . S
C5171 C5170 1.366 . S
C5171 C5175 1.385 . S
C5172 H5153 0.951 . S
C5172 C5170 1.388 . S
C5172 C5173 1.366 . S
C5173 C5172 1.366 . S
C5173 C5174 1.414 . S
C5173 C5176 1.499 . S
C5174 H5154 0.950 . S
C5174 C5173 1.414 . S
C5174 C5175 1.374 . S
C5175 H5155 0.950 . S
C5175 C5171 1.385 . S
C5175 C5174 1.374 . S
C5176 C5173 1.499 . S
C5176 C5177 1.373 . S
C5176 C5178 1.389 . S
C5177 H5156 0.950 . S
C5177 C5176 1.373 . S
C5177 C5193 1.377 . S
C5178 C5176 1.389 . S
C5178 C5179 1.524 . S
C5178 C5192 1.377 . S
C5179 C5178 1.524 . S
C5179 C5180 1.397 . S
C5179 C5184 1.363 . S
C5180 H5157 0.950 . S
C5180 C5179 1.397 . S
C5180 C5181 1.334 . S
C5181 H5158 0.950 . S
C5181 C5180 1.334 . S
C5181 C5182 1.287 . S
C5182 C5181 1.287 . S
C5182 C5183 1.524 . S
C5182 H5201 0.913 . S
C5183 H5159 0.950 . S
C5183 C5182 1.524 . S
C5183 C5184 1.415 . S
C5184 H5160 0.950 . S
C5184 C5179 1.363 . S
C5184 C5183 1.415 . S
C5185 H5161 0.951 . S
C5185 C5186 1.366 . S
C5185 C5187 1.388 . S
C5186 C5185 1.366 . S
C5186 C5190 1.385 . S
C5187 H5162 0.951 . S
C5187 C5185 1.388 . S
C5187 C5188 1.366 . S
C5188 C5187 1.366 . S
C5188 C5189 1.414 . S
C5188 C5191 1.499 . S
C5189 H5163 0.950 . S
C5189 C5188 1.414 . S
C5189 C5190 1.374 . S
C5190 H5164 0.950 . S
C5190 C5186 1.385 . S
C5190 C5189 1.374 . S
C5191 C5188 1.499 . S
C5191 C5192 1.373 . S
C5191 C5193 1.389 . S
C5192 H5165 0.950 . S
C5192 C5178 1.377 . S
C5192 C5191 1.373 . S
C5193 C5177 1.377 . S
C5193 C5191 1.389 . S
C5193 C5194 1.524 . S
C5194 C5193 1.524 . S
C5194 C5195 1.397 . S
C5194 C5199 1.363 . S
C5195 H5166 0.950 . S
C5195 C5194 1.397 . S
C5195 C5196 1.334 . S
C5196 H5167 0.950 . S
C5196 C5195 1.334 . S
C5196 C5197 1.287 . S
C5197 C5196 1.287 . S
C5197 C5198 1.524 . S
C5197 H5200 0.999 . S
C5198 H5168 0.950 . S
C5198 C5197 1.524 . S
C5198 C5199 1.415 . S
C5199 H5169 0.950 . S
C5199 C5194 1.363 . S
C5199 C5198 1.415 . S
H5200 C5197 0.999 . S
H5201 C5182 0.913 . S
H5202 C5220 0.951 . S
H5203 C5222 0.951 . S
H5204 C5224 0.950 . S
H5205 C5225 0.950 . S
H5206 C5227 0.950 . S
H5207 C5230 0.950 . S
H5208 C5231 0.950 . S
H5209 C5233 0.950 . S
H5210 C5234 0.950 . S
H5211 C5235 0.951 . S
H5212 C5237 0.951 . S
H5213 C5239 0.950 . S
H5214 C5240 0.950 . S
H5215 C5242 0.950 . S
H5216 C5245 0.950 . S
H5217 C5246 0.950 . S
H5218 C5248 0.950 . S
H5219 C5249 0.950 . S
C5220 H5202 0.951 . S
C5220 C5221 1.366 . S
C5220 C5222 1.388 . S
C5221 C5220 1.366 . S
C5221 C5225 1.385 . S
C5222 H5203 0.951 . S
C5222 C5220 1.388 . S
C5222 C5223 1.366 . S
C5223 C5222 1.366 . S
C5223 C5224 1.414 . S
C5223 C5226 1.499 . S
C5224 H5204 0.950 . S
C5224 C5223 1.414 . S
C5224 C5225 1.374 . S
C5225 H5205 0.950 . S
C5225 C5221 1.385 . S
C5225 C5224 1.374 . S
C5226 C5223 1.499 . S
C5226 C5227 1.373 . S
C5226 C5228 1.389 . S
C5227 H5206 0.950 . S
C5227 C5226 1.373 . S
C5227 C5243 1.377 . S
C5228 C5226 1.389 . S
C5228 C5229 1.524 . S
C5228 C5242 1.377 . S
C5229 C5228 1.524 . S
C5229 C5230 1.397 . S
C5229 C5234 1.363 . S
C5230 H5207 0.950 . S
C5230 C5229 1.397 . S
C5230 C5231 1.334 . S
C5231 H5208 0.950 . S
C5231 C5230 1.334 . S
C5231 C5232 1.287 . S
C5232 C5231 1.287 . S
C5232 C5233 1.524 . S
C5232 H5251 0.913 . S
C5233 H5209 0.950 . S
C5233 C5232 1.524 . S
C5233 C5234 1.415 . S
C5234 H5210 0.950 . S
C5234 C5229 1.363 . S
C5234 C5233 1.415 . S
C5235 H5211 0.951 . S
C5235 C5236 1.366 . S
C5235 C5237 1.388 . S
C5236 C5235 1.366 . S
C5236 C5240 1.385 . S
C5237 H5212 0.951 . S
C5237 C5235 1.388 . S
C5237 C5238 1.366 . S
C5238 C5237 1.366 . S
C5238 C5239 1.414 . S
C5238 C5241 1.499 . S
C5239 H5213 0.950 . S
C5239 C5238 1.414 . S
C5239 C5240 1.374 . S
C5240 H5214 0.950 . S
C5240 C5236 1.385 . S
C5240 C5239 1.374 . S
C5241 C5238 1.499 . S
C5241 C5242 1.373 . S
C5241 C5243 1.389 . S
C5242 H5215 0.950 . S
C5242 C5228 1.377 . S
C5242 C5241 1.373 . S
C5243 C5227 1.377 . S
C5243 C5241 1.389 . S
C5243 C5244 1.524 . S
C5244 C5243 1.524 . S
C5244 C5245 1.397 . S
C5244 C5249 1.363 . S
C5245 H5216 0.950 . S
C5245 C5244 1.397 . S
C5245 C5246 1.334 . S
C5246 H5217 0.950 . S
C5246 C5245 1.334 . S
C5246 C5247 1.287 . S
C5247 C5246 1.287 . S
C5247 C5248 1.524 . S
C5247 H5250 0.999 . S
C5248 H5218 0.950 . S
C5248 C5247 1.524 . S
C5248 C5249 1.415 . S
C5249 H5219 0.950 . S
C5249 C5244 1.363 . S
C5249 C5248 1.415 . S
H5250 C5247 0.999 . S
H5251 C5232 0.913 . S
H5252 C5270 0.951 . S
H5253 C5272 0.951 . S
H5254 C5274 0.950 . S
H5255 C5275 0.950 . S
H5256 C5277 0.950 . S
H5257 C5280 0.950 . S
H5258 C5281 0.950 . S
H5259 C5283 0.950 . S
H5260 C5284 0.950 . S
H5261 C5285 0.951 . S
H5262 C5287 0.951 . S
H5263 C5289 0.950 . S
H5264 C5290 0.950 . S
H5265 C5292 0.950 . S
H5266 C5295 0.950 . S
H5267 C5296 0.950 . S
H5268 C5298 0.950 . S
H5269 C5299 0.950 . S
C5270 H5252 0.951 . S
C5270 C5271 1.366 . S
C5270 C5272 1.388 . S
C5271 C5270 1.366 . S
C5271 C5275 1.385 . S
C5272 H5253 0.951 . S
C5272 C5270 1.388 . S
C5272 C5273 1.366 . S
C5273 C5272 1.366 . S
C5273 C5274 1.414 . S
C5273 C5276 1.499 . S
C5274 H5254 0.950 . S
C5274 C5273 1.414 . S
C5274 C5275 1.374 . S
C5275 H5255 0.950 . S
C5275 C5271 1.385 . S
C5275 C5274 1.374 . S
C5276 C5273 1.499 . S
C5276 C5277 1.373 . S
C5276 C5278 1.389 . S
C5277 H5256 0.950 . S
C5277 C5276 1.373 . S
C5277 C5293 1.377 . S
C5278 C5276 1.389 . S
C5278 C5279 1.524 . S
C5278 C5292 1.377 . S
C5279 C5278 1.524 . S
C5279 C5280 1.397 . S
C5279 C5284 1.363 . S
C5280 H5257 0.950 . S
C5280 C5279 1.397 . S
C5280 C5281 1.334 . S
C5281 H5258 0.950 . S
C5281 C5280 1.334 . S
C5281 C5282 1.287 . S
C5282 C5281 1.287 . S
C5282 C5283 1.524 . S
C5282 H5301 0.913 . S
C5283 H5259 0.950 . S
C5283 C5282 1.524 . S
C5283 C5284 1.415 . S
C5284 H5260 0.950 . S
C5284 C5279 1.363 . S
C5284 C5283 1.415 . S
C5285 H5261 0.951 . S
C5285 C5286 1.366 1_655 S
C5285 C5287 1.388 . S
C5286 C5285 1.366 1_455 S
C5286 C5290 1.385 . S
C5287 H5262 0.951 . S
C5287 C5285 1.388 . S
C5287 C5288 1.366 . S
C5288 C5287 1.366 . S
C5288 C5289 1.414 . S
C5288 C5291 1.499 . S
C5289 H5263 0.950 . S
C5289 C5288 1.414 . S
C5289 C5290 1.374 1_655 S
C5290 H5264 0.950 . S
C5290 C5286 1.385 . S
C5290 C5289 1.374 1_455 S
C5291 C5288 1.499 . S
C5291 C5292 1.373 . S
C5291 C5293 1.389 . S
C5292 H5265 0.950 . S
C5292 C5278 1.377 . S
C5292 C5291 1.373 . S
C5293 C5277 1.377 . S
C5293 C5291 1.389 . S
C5293 C5294 1.524 . S
C5294 C5293 1.524 . S
C5294 C5295 1.397 1_655 S
C5294 C5299 1.363 . S
C5295 H5266 0.950 . S
C5295 C5294 1.397 1_455 S
C5295 C5296 1.334 . S
C5296 H5267 0.950 . S
C5296 C5295 1.334 . S
C5296 C5297 1.287 . S
C5297 C5296 1.287 . S
C5297 C5298 1.524 1_455 S
C5297 H5300 0.999 . S
C5298 H5268 0.950 . S
C5298 C5297 1.524 1_655 S
C5298 C5299 1.415 . S
C5299 H5269 0.950 . S
C5299 C5294 1.363 . S
C5299 C5298 1.415 . S
H5300 C5297 0.999 . S
H5301 C5282 0.913 . S
H5302 C5320 0.951 . S
H5303 C5322 0.951 . S
H5304 C5324 0.950 . S
H5305 C5325 0.950 . S
H5306 C5327 0.950 . S
H5307 C5330 0.950 . S
H5308 C5331 0.950 . S
H5309 C5333 0.950 . S
H5310 C5334 0.950 . S
H5311 C5335 0.951 . S
H5312 C5337 0.951 . S
H5313 C5339 0.950 . S
H5314 C5340 0.950 . S
H5315 C5342 0.950 . S
H5316 C5345 0.950 . S
H5317 C5346 0.950 . S
H5318 C5348 0.950 . S
H5319 C5349 0.950 . S
C5320 H5302 0.951 . S
C5320 C5321 1.366 . S
C5320 C5322 1.388 . S
C5321 C5320 1.366 . S
C5321 C5325 1.385 . S
C5322 H5303 0.951 . S
C5322 C5320 1.388 . S
C5322 C5323 1.366 . S
C5323 C5322 1.366 . S
C5323 C5324 1.414 . S
C5323 C5326 1.499 . S
C5324 H5304 0.950 . S
C5324 C5323 1.414 . S
C5324 C5325 1.374 . S
C5325 H5305 0.950 . S
C5325 C5321 1.385 . S
C5325 C5324 1.374 . S
C5326 C5323 1.499 . S
C5326 C5327 1.373 . S
C5326 C5328 1.389 . S
C5327 H5306 0.950 . S
C5327 C5326 1.373 . S
C5327 C5343 1.377 . S
C5328 C5326 1.389 . S
C5328 C5329 1.524 . S
C5328 C5342 1.377 . S
C5329 C5328 1.524 . S
C5329 C5330 1.397 . S
C5329 C5334 1.363 . S
C5330 H5307 0.950 . S
C5330 C5329 1.397 . S
C5330 C5331 1.334 . S
C5331 H5308 0.950 . S
C5331 C5330 1.334 . S
C5331 C5332 1.287 . S
C5332 C5331 1.287 . S
C5332 C5333 1.524 . S
C5332 H5351 0.913 . S
C5333 H5309 0.950 . S
C5333 C5332 1.524 . S
C5333 C5334 1.415 . S
C5334 H5310 0.950 . S
C5334 C5329 1.363 . S
C5334 C5333 1.415 . S
C5335 H5311 0.951 . S
C5335 C5336 1.366 . S
C5335 C5337 1.388 . S
C5336 C5335 1.366 . S
C5336 C5340 1.385 . S
C5337 H5312 0.951 . S
C5337 C5335 1.388 . S
C5337 C5338 1.366 . S
C5338 C5337 1.366 . S
C5338 C5339 1.414 . S
C5338 C5341 1.499 . S
C5339 H5313 0.950 . S
C5339 C5338 1.414 . S
C5339 C5340 1.374 . S
C5340 H5314 0.950 . S
C5340 C5336 1.385 . S
C5340 C5339 1.374 . S
C5341 C5338 1.499 . S
C5341 C5342 1.373 . S
C5341 C5343 1.389 . S
C5342 H5315 0.950 . S
C5342 C5328 1.377 . S
C5342 C5341 1.373 . S
C5343 C5327 1.377 . S
C5343 C5341 1.389 . S
C5343 C5344 1.524 . S
C5344 C5343 1.524 . S
C5344 C5345 1.397 . S
C5344 C5349 1.363 . S
C5345 H5316 0.950 . S
C5345 C5344 1.397 . S
C5345 C5346 1.334 . S
C5346 H5317 0.950 . S
C5346 C5345 1.334 . S
C5346 C5347 1.287 . S
C5347 C5346 1.287 . S
C5347 C5348 1.524 . S
C5347 H5350 0.999 . S
C5348 H5318 0.950 . S
C5348 C5347 1.524 . S
C5348 C5349 1.415 . S
C5349 H5319 0.950 . S
C5349 C5344 1.363 . S
C5349 C5348 1.415 . S
H5350 C5347 0.999 . S
H5351 C5332 0.913 . S
H5352 C5370 0.951 . S
H5353 C5372 0.951 . S
H5354 C5374 0.950 . S
H5355 C5375 0.950 . S
H5356 C5377 0.950 . S
H5357 C5380 0.950 . S
H5358 C5381 0.950 . S
H5359 C5383 0.950 . S
H5360 C5384 0.950 . S
H5361 C5385 0.951 . S
H5362 C5387 0.951 . S
H5363 C5389 0.950 . S
H5364 C5390 0.950 . S
H5365 C5392 0.950 . S
H5366 C5395 0.950 . S
H5367 C5396 0.950 . S
H5368 C5398 0.950 . S
H5369 C5399 0.950 . S
C5370 H5352 0.951 . S
C5370 C5371 1.366 . S
C5370 C5372 1.388 . S
C5371 C5370 1.366 . S
C5371 C5375 1.385 . S
C5372 H5353 0.951 . S
C5372 C5370 1.388 . S
C5372 C5373 1.366 . S
C5373 C5372 1.366 . S
C5373 C5374 1.414 . S
C5373 C5376 1.499 . S
C5374 H5354 0.950 . S
C5374 C5373 1.414 . S
C5374 C5375 1.374 . S
C5375 H5355 0.950 . S
C5375 C5371 1.385 . S
C5375 C5374 1.374 . S
C5376 C5373 1.499 . S
C5376 C5377 1.373 . S
C5376 C5378 1.389 . S
C5377 H5356 0.950 . S
C5377 C5376 1.373 . S
C5377 C5393 1.377 . S
C5378 C5376 1.389 . S
C5378 C5379 1.524 . S
C5378 C5392 1.377 . S
C5379 C5378 1.524 . S
C5379 C5380 1.397 . S
C5379 C5384 1.363 . S
C5380 H5357 0.950 . S
C5380 C5379 1.397 . S
C5380 C5381 1.334 . S
C5381 H5358 0.950 . S
C5381 C5380 1.334 . S
C5381 C5382 1.287 . S
C5382 C5381 1.287 . S
C5382 C5383 1.524 . S
C5382 H5401 0.913 . S
C5383 H5359 0.950 . S
C5383 C5382 1.524 . S
C5383 C5384 1.415 . S
C5384 H5360 0.950 . S
C5384 C5379 1.363 . S
C5384 C5383 1.415 . S
C5385 H5361 0.951 . S
C5385 C5386 1.366 . S
C5385 C5387 1.388 . S
C5386 C5385 1.366 . S
C5386 C5390 1.385 . S
C5387 H5362 0.951 . S
C5387 C5385 1.388 . S
C5387 C5388 1.366 . S
C5388 C5387 1.366 . S
C5388 C5389 1.414 . S
C5388 C5391 1.499 . S
C5389 H5363 0.950 . S
C5389 C5388 1.414 . S
C5389 C5390 1.374 . S
C5390 H5364 0.950 . S
C5390 C5386 1.385 . S
C5390 C5389 1.374 . S
C5391 C5388 1.499 . S
C5391 C5392 1.373 . S
C5391 C5393 1.389 . S
C5392 H5365 0.950 . S
C5392 C5378 1.377 . S
C5392 C5391 1.373 . S
C5393 C5377 1.377 . S
C5393 C5391 1.389 . S
C5393 C5394 1.524 . S
C5394 C5393 1.524 . S
C5394 C5395 1.397 . S
C5394 C5399 1.363 . S
C5395 H5366 0.950 . S
C5395 C5394 1.397 . S
C5395 C5396 1.334 . S
C5396 H5367 0.950 . S
C5396 C5395 1.334 . S
C5396 C5397 1.287 . S
C5397 C5396 1.287 . S
C5397 C5398 1.524 . S
C5397 H5400 0.999 . S
C5398 H5368 0.950 . S
C5398 C5397 1.524 . S
C5398 C5399 1.415 . S
C5399 H5369 0.950 . S
C5399 C5394 1.363 . S
C5399 C5398 1.415 . S
H5400 C5397 0.999 . S
H5401 C5382 0.913 . S
H5402 C5420 0.951 . S
H5403 C5422 0.951 . S
H5404 C5424 0.950 . S
H5405 C5425 0.950 . S
H5406 C5427 0.950 . S
H5407 C5430 0.950 . S
H5408 C5431 0.950 . S
H5409 C5433 0.950 . S
H5410 C5434 0.950 . S
H5411 C5435 0.951 . S
H5412 C5437 0.951 . S
H5413 C5439 0.950 . S
H5414 C5440 0.950 1_545 S
H5415 C5442 0.950 . S
H5416 C5445 0.950 . S
H5417 C5446 0.950 . S
H5418 C5448 0.950 . S
H5419 C5449 0.950 . S
C5420 H5402 0.951 . S
C5420 C5421 1.366 . S
C5420 C5422 1.388 . S
C5421 C5420 1.366 . S
C5421 C5425 1.385 . S
C5422 H5403 0.951 . S
C5422 C5420 1.388 . S
C5422 C5423 1.366 . S
C5423 C5422 1.366 . S
C5423 C5424 1.414 . S
C5423 C5426 1.499 . S
C5424 H5404 0.950 . S
C5424 C5423 1.414 . S
C5424 C5425 1.374 . S
C5425 H5405 0.950 . S
C5425 C5421 1.385 . S
C5425 C5424 1.374 . S
C5426 C5423 1.499 . S
C5426 C5427 1.373 . S
C5426 C5428 1.389 . S
C5427 H5406 0.950 . S
C5427 C5426 1.373 . S
C5427 C5443 1.377 . S
C5428 C5426 1.389 . S
C5428 C5429 1.524 . S
C5428 C5442 1.377 . S
C5429 C5428 1.524 . S
C5429 C5430 1.397 . S
C5429 C5434 1.363 . S
C5430 H5407 0.950 . S
C5430 C5429 1.397 . S
C5430 C5431 1.334 . S
C5431 H5408 0.950 . S
C5431 C5430 1.334 . S
C5431 C5432 1.287 . S
C5432 C5431 1.287 . S
C5432 C5433 1.524 . S
C5432 H5451 0.913 . S
C5433 H5409 0.950 . S
C5433 C5432 1.524 . S
C5433 C5434 1.415 . S
C5434 H5410 0.950 . S
C5434 C5429 1.363 . S
C5434 C5433 1.415 . S
C5435 H5411 0.951 . S
C5435 C5436 1.366 . S
C5435 C5437 1.388 . S
C5436 C5435 1.366 . S
C5436 C5440 1.385 . S
C5437 H5412 0.951 . S
C5437 C5435 1.388 . S
C5437 C5438 1.366 . S
C5438 C5437 1.366 . S
C5438 C5439 1.414 . S
C5438 C5441 1.499 . S
C5439 H5413 0.950 . S
C5439 C5438 1.414 . S
C5439 C5440 1.374 . S
C5440 H5414 0.950 1_565 S
C5440 C5436 1.385 . S
C5440 C5439 1.374 . S
C5441 C5438 1.499 . S
C5441 C5442 1.373 . S
C5441 C5443 1.389 . S
C5442 H5415 0.950 . S
C5442 C5428 1.377 . S
C5442 C5441 1.373 . S
C5443 C5427 1.377 . S
C5443 C5441 1.389 . S
C5443 C5444 1.524 . S
C5444 C5443 1.524 . S
C5444 C5445 1.397 . S
C5444 C5449 1.363 . S
C5445 H5416 0.950 . S
C5445 C5444 1.397 . S
C5445 C5446 1.334 . S
C5446 H5417 0.950 . S
C5446 C5445 1.334 . S
C5446 C5447 1.287 . S
C5447 C5446 1.287 . S
C5447 C5448 1.524 . S
C5447 H5450 0.999 . S
C5448 H5418 0.950 . S
C5448 C5447 1.524 . S
C5448 C5449 1.415 . S
C5449 H5419 0.950 . S
C5449 C5444 1.363 . S
C5449 C5448 1.415 . S
H5450 C5447 0.999 . S
H5451 C5432 0.913 . S
H5452 C5470 0.951 . S
H5453 C5472 0.951 . S
H5454 C5474 0.950 . S
H5455 C5475 0.950 . S
H5456 C5477 0.950 . S
H5457 C5480 0.950 . S
H5458 C5481 0.950 . S
H5459 C5483 0.950 . S
H5460 C5484 0.950 . S
H5461 C5485 0.951 . S
H5462 C5487 0.951 . S
H5463 C5489 0.950 . S
H5464 C5490 0.950 . S
H5465 C5492 0.950 . S
H5466 C5495 0.950 . S
H5467 C5496 0.950 . S
H5468 C5498 0.950 . S
H5469 C5499 0.950 . S
C5470 H5452 0.951 . S
C5470 C5471 1.366 . S
C5470 C5472 1.388 . S
C5471 C5470 1.366 . S
C5471 C5475 1.385 . S
C5472 H5453 0.951 . S
C5472 C5470 1.388 . S
C5472 C5473 1.366 . S
C5473 C5472 1.366 . S
C5473 C5474 1.414 . S
C5473 C5476 1.499 . S
C5474 H5454 0.950 . S
C5474 C5473 1.414 . S
C5474 C5475 1.374 . S
C5475 H5455 0.950 . S
C5475 C5471 1.385 . S
C5475 C5474 1.374 . S
C5476 C5473 1.499 . S
C5476 C5477 1.373 . S
C5476 C5478 1.389 . S
C5477 H5456 0.950 . S
C5477 C5476 1.373 . S
C5477 C5493 1.377 . S
C5478 C5476 1.389 . S
C5478 C5479 1.524 . S
C5478 C5492 1.377 . S
C5479 C5478 1.524 . S
C5479 C5480 1.397 . S
C5479 C5484 1.363 . S
C5480 H5457 0.950 . S
C5480 C5479 1.397 . S
C5480 C5481 1.334 . S
C5481 H5458 0.950 . S
C5481 C5480 1.334 . S
C5481 C5482 1.287 . S
C5482 C5481 1.287 . S
C5482 C5483 1.524 . S
C5482 H5501 0.913 . S
C5483 H5459 0.950 . S
C5483 C5482 1.524 . S
C5483 C5484 1.415 . S
C5484 H5460 0.950 . S
C5484 C5479 1.363 . S
C5484 C5483 1.415 . S
C5485 H5461 0.951 . S
C5485 C5486 1.366 . S
C5485 C5487 1.388 . S
C5486 C5485 1.366 . S
C5486 C5490 1.385 . S
C5487 H5462 0.951 . S
C5487 C5485 1.388 . S
C5487 C5488 1.366 . S
C5488 C5487 1.366 . S
C5488 C5489 1.414 . S
C5488 C5491 1.499 . S
C5489 H5463 0.950 . S
C5489 C5488 1.414 . S
C5489 C5490 1.374 . S
C5490 H5464 0.950 . S
C5490 C5486 1.385 . S
C5490 C5489 1.374 . S
C5491 C5488 1.499 . S
C5491 C5492 1.373 . S
C5491 C5493 1.389 . S
C5492 H5465 0.950 . S
C5492 C5478 1.377 . S
C5492 C5491 1.373 . S
C5493 C5477 1.377 . S
C5493 C5491 1.389 . S
C5493 C5494 1.524 . S
C5494 C5493 1.524 . S
C5494 C5495 1.397 . S
C5494 C5499 1.363 . S
C5495 H5466 0.950 . S
C5495 C5494 1.397 . S
C5495 C5496 1.334 . S
C5496 H5467 0.950 . S
C5496 C5495 1.334 . S
C5496 C5497 1.287 . S
C5497 C5496 1.287 . S
C5497 C5498 1.524 . S
C5497 H5500 0.999 . S
C5498 H5468 0.950 . S
C5498 C5497 1.524 . S
C5498 C5499 1.415 . S
C5499 H5469 0.950 . S
C5499 C5494 1.363 . S
C5499 C5498 1.415 . S
H5500 C5497 0.999 . S
H5501 C5482 0.913 . S
H5502 C5520 0.951 . S
H5503 C5522 0.951 . S
H5504 C5524 0.950 . S
H5505 C5525 0.950 . S
H5506 C5527 0.950 . S
H5507 C5530 0.950 . S
H5508 C5531 0.950 . S
H5509 C5533 0.950 . S
H5510 C5534 0.950 . S
H5511 C5535 0.951 . S
H5512 C5537 0.951 . S
H5513 C5539 0.950 . S
H5514 C5540 0.950 . S
H5515 C5542 0.950 . S
H5516 C5545 0.950 . S
H5517 C5546 0.950 . S
H5518 C5548 0.950 . S
H5519 C5549 0.950 . S
C5520 H5502 0.951 . S
C5520 C5521 1.366 . S
C5520 C5522 1.388 . S
C5521 C5520 1.366 . S
C5521 C5525 1.385 . S
C5522 H5503 0.951 . S
C5522 C5520 1.388 . S
C5522 C5523 1.366 . S
C5523 C5522 1.366 . S
C5523 C5524 1.414 . S
C5523 C5526 1.499 . S
C5524 H5504 0.950 . S
C5524 C5523 1.414 . S
C5524 C5525 1.374 . S
C5525 H5505 0.950 . S
C5525 C5521 1.385 . S
C5525 C5524 1.374 . S
C5526 C5523 1.499 . S
C5526 C5527 1.373 . S
C5526 C5528 1.389 . S
C5527 H5506 0.950 . S
C5527 C5526 1.373 . S
C5527 C5543 1.377 . S
C5528 C5526 1.389 . S
C5528 C5529 1.524 . S
C5528 C5542 1.377 . S
C5529 C5528 1.524 . S
C5529 C5530 1.397 . S
C5529 C5534 1.363 . S
C5530 H5507 0.950 . S
C5530 C5529 1.397 . S
C5530 C5531 1.334 1_554 S
C5531 H5508 0.950 . S
C5531 C5530 1.334 1_556 S
C5531 C5532 1.287 . S
C5532 C5531 1.287 . S
C5532 C5533 1.524 1_556 S
C5532 H5551 0.913 . S
C5533 H5509 0.950 . S
C5533 C5532 1.524 1_554 S
C5533 C5534 1.415 . S
C5534 H5510 0.950 . S
C5534 C5529 1.363 . S
C5534 C5533 1.415 . S
C5535 H5511 0.951 . S
C5535 C5536 1.366 . S
C5535 C5537 1.388 . S
C5536 C5535 1.366 . S
C5536 C5540 1.385 . S
C5537 H5512 0.951 . S
C5537 C5535 1.388 . S
C5537 C5538 1.366 . S
C5538 C5537 1.366 . S
C5538 C5539 1.414 . S
C5538 C5541 1.499 . S
C5539 H5513 0.950 . S
C5539 C5538 1.414 . S
C5539 C5540 1.374 . S
C5540 H5514 0.950 . S
C5540 C5536 1.385 . S
C5540 C5539 1.374 . S
C5541 C5538 1.499 . S
C5541 C5542 1.373 . S
C5541 C5543 1.389 . S
C5542 H5515 0.950 . S
C5542 C5528 1.377 . S
C5542 C5541 1.373 . S
C5543 C5527 1.377 . S
C5543 C5541 1.389 . S
C5543 C5544 1.524 . S
C5544 C5543 1.524 . S
C5544 C5545 1.397 . S
C5544 C5549 1.363 . S
C5545 H5516 0.950 . S
C5545 C5544 1.397 . S
C5545 C5546 1.334 . S
C5546 H5517 0.950 . S
C5546 C5545 1.334 . S
C5546 C5547 1.287 . S
C5547 C5546 1.287 . S
C5547 C5548 1.524 . S
C5547 H5550 0.999 . S
C5548 H5518 0.950 . S
C5548 C5547 1.524 . S
C5548 C5549 1.415 . S
C5549 H5519 0.950 . S
C5549 C5544 1.363 . S
C5549 C5548 1.415 . S
H5550 C5547 0.999 . S
H5551 C5532 0.913 . S
H5552 C5570 0.951 . S
H5553 C5572 0.951 . S
H5554 C5574 0.950 . S
H5555 C5575 0.950 . S
H5556 C5577 0.950 . S
H5557 C5580 0.950 . S
H5558 C5581 0.950 . S
H5559 C5583 0.950 . S
H5560 C5584 0.950 . S
H5561 C5585 0.951 . S
H5562 C5587 0.951 . S
H5563 C5589 0.950 . S
H5564 C5590 0.950 . S
H5565 C5592 0.950 . S
H5566 C5595 0.950 . S
H5567 C5596 0.950 . S
H5568 C5598 0.950 . S
H5569 C5599 0.950 . S
C5570 H5552 0.951 . S
C5570 C5571 1.366 . S
C5570 C5572 1.388 . S
C5571 C5570 1.366 . S
C5571 C5575 1.385 . S
C5572 H5553 0.951 . S
C5572 C5570 1.388 . S
C5572 C5573 1.366 . S
C5573 C5572 1.366 . S
C5573 C5574 1.414 . S
C5573 C5576 1.499 . S
C5574 H5554 0.950 . S
C5574 C5573 1.414 . S
C5574 C5575 1.374 . S
C5575 H5555 0.950 . S
C5575 C5571 1.385 . S
C5575 C5574 1.374 . S
C5576 C5573 1.499 . S
C5576 C5577 1.373 . S
C5576 C5578 1.389 . S
C5577 H5556 0.950 . S
C5577 C5576 1.373 . S
C5577 C5593 1.377 . S
C5578 C5576 1.389 . S
C5578 C5579 1.524 . S
C5578 C5592 1.377 . S
C5579 C5578 1.524 . S
C5579 C5580 1.397 . S
C5579 C5584 1.363 . S
C5580 H5557 0.950 . S
C5580 C5579 1.397 . S
C5580 C5581 1.334 . S
C5581 H5558 0.950 . S
C5581 C5580 1.334 . S
C5581 C5582 1.287 . S
C5582 C5581 1.287 . S
C5582 C5583 1.524 . S
C5582 H5601 0.913 . S
C5583 H5559 0.950 . S
C5583 C5582 1.524 . S
C5583 C5584 1.415 . S
C5584 H5560 0.950 . S
C5584 C5579 1.363 . S
C5584 C5583 1.415 . S
C5585 H5561 0.951 . S
C5585 C5586 1.366 . S
C5585 C5587 1.388 . S
C5586 C5585 1.366 . S
C5586 C5590 1.385 . S
C5587 H5562 0.951 . S
C5587 C5585 1.388 . S
C5587 C5588 1.366 . S
C5588 C5587 1.366 . S
C5588 C5589 1.414 . S
C5588 C5591 1.499 . S
C5589 H5563 0.950 . S
C5589 C5588 1.414 . S
C5589 C5590 1.374 . S
C5590 H5564 0.950 . S
C5590 C5586 1.385 . S
C5590 C5589 1.374 . S
C5591 C5588 1.499 . S
C5591 C5592 1.373 . S
C5591 C5593 1.389 . S
C5592 H5565 0.950 . S
C5592 C5578 1.377 . S
C5592 C5591 1.373 . S
C5593 C5577 1.377 . S
C5593 C5591 1.389 . S
C5593 C5594 1.524 . S
C5594 C5593 1.524 . S
C5594 C5595 1.397 . S
C5594 C5599 1.363 . S
C5595 H5566 0.950 . S
C5595 C5594 1.397 . S
C5595 C5596 1.334 . S
C5596 H5567 0.950 . S
C5596 C5595 1.334 . S
C5596 C5597 1.287 . S
C5597 C5596 1.287 . S
C5597 C5598 1.524 . S
C5597 H5600 0.999 . S
C5598 H5568 0.950 . S
C5598 C5597 1.524 . S
C5598 C5599 1.415 . S
C5599 H5569 0.950 . S
C5599 C5594 1.363 . S
C5599 C5598 1.415 . S
H5600 C5597 0.999 . S
H5601 C5582 0.913 . S
H5602 C5620 0.951 . S
H5603 C5622 0.951 . S
H5604 C5624 0.950 . S
H5605 C5625 0.950 . S
H5606 C5627 0.950 . S
H5607 C5630 0.950 . S
H5608 C5631 0.950 . S
H5609 C5633 0.950 . S
H5610 C5634 0.950 . S
H5611 C5635 0.951 . S
H5612 C5637 0.951 . S
H5613 C5639 0.950 . S
H5614 C5640 0.950 . S
H5615 C5642 0.950 . S
H5616 C5645 0.950 . S
H5617 C5646 0.950 . S
H5618 C5648 0.950 . S
H5619 C5649 0.950 . S
C5620 H5602 0.951 . S
C5620 C5621 1.366 . S
C5620 C5622 1.388 . S
C5621 C5620 1.366 . S
C5621 C5625 1.385 . S
C5622 H5603 0.951 . S
C5622 C5620 1.388 . S
C5622 C5623 1.366 . S
C5623 C5622 1.366 . S
C5623 C5624 1.414 . S
C5623 C5626 1.499 . S
C5624 H5604 0.950 . S
C5624 C5623 1.414 . S
C5624 C5625 1.374 . S
C5625 H5605 0.950 . S
C5625 C5621 1.385 . S
C5625 C5624 1.374 . S
C5626 C5623 1.499 . S
C5626 C5627 1.373 . S
C5626 C5628 1.389 1_554 S
C5627 H5606 0.950 . S
C5627 C5626 1.373 . S
C5627 C5643 1.377 . S
C5628 C5626 1.389 1_556 S
C5628 C5629 1.524 . S
C5628 C5642 1.377 . S
C5629 C5628 1.524 . S
C5629 C5630 1.397 . S
C5629 C5634 1.363 . S
C5630 H5607 0.950 . S
C5630 C5629 1.397 . S
C5630 C5631 1.334 . S
C5631 H5608 0.950 . S
C5631 C5630 1.334 . S
C5631 C5632 1.287 . S
C5632 C5631 1.287 . S
C5632 C5633 1.524 . S
C5632 H5651 0.913 . S
C5633 H5609 0.950 . S
C5633 C5632 1.524 . S
C5633 C5634 1.415 . S
C5634 H5610 0.950 . S
C5634 C5629 1.363 . S
C5634 C5633 1.415 . S
C5635 H5611 0.951 . S
C5635 C5636 1.366 1_554 S
C5635 C5637 1.388 . S
C5636 C5635 1.366 1_556 S
C5636 C5640 1.385 . S
C5637 H5612 0.951 . S
C5637 C5635 1.388 . S
C5637 C5638 1.366 . S
C5638 C5637 1.366 . S
C5638 C5639 1.414 1_554 S
C5638 C5641 1.499 . S
C5639 H5613 0.950 . S
C5639 C5638 1.414 1_556 S
C5639 C5640 1.374 . S
C5640 H5614 0.950 . S
C5640 C5636 1.385 . S
C5640 C5639 1.374 . S
C5641 C5638 1.499 . S
C5641 C5642 1.373 1_554 S
C5641 C5643 1.389 . S
C5642 H5615 0.950 . S
C5642 C5628 1.377 . S
C5642 C5641 1.373 1_556 S
C5643 C5627 1.377 . S
C5643 C5641 1.389 . S
C5643 C5644 1.524 . S
C5644 C5643 1.524 . S
C5644 C5645 1.397 . S
C5644 C5649 1.363 . S
C5645 H5616 0.950 . S
C5645 C5644 1.397 . S
C5645 C5646 1.334 . S
C5646 H5617 0.950 . S
C5646 C5645 1.334 . S
C5646 C5647 1.287 . S
C5647 C5646 1.287 . S
C5647 C5648 1.524 . S
C5647 H5650 0.999 . S
C5648 H5618 0.950 . S
C5648 C5647 1.524 . S
C5648 C5649 1.415 . S
C5649 H5619 0.950 . S
C5649 C5644 1.363 . S
C5649 C5648 1.415 . S
H5650 C5647 0.999 . S
H5651 C5632 0.913 . S
H5652 C5670 0.951 . S
H5653 C5672 0.951 . S
H5654 C5674 0.950 . S
H5655 C5675 0.950 . S
H5656 C5677 0.950 . S
H5657 C5680 0.950 . S
H5658 C5681 0.950 . S
H5659 C5683 0.950 . S
H5660 C5684 0.950 . S
H5661 C5685 0.951 . S
H5662 C5687 0.951 . S
H5663 C5689 0.950 . S
H5664 C5690 0.950 . S
H5665 C5692 0.950 . S
H5666 C5695 0.950 . S
H5667 C5696 0.950 . S
H5668 C5698 0.950 . S
H5669 C5699 0.950 . S
C5670 H5652 0.951 . S
C5670 C5671 1.366 . S
C5670 C5672 1.388 . S
C5671 C5670 1.366 . S
C5671 C5675 1.385 . S
C5672 H5653 0.951 . S
C5672 C5670 1.388 . S
C5672 C5673 1.366 . S
C5673 C5672 1.366 . S
C5673 C5674 1.414 . S
C5673 C5676 1.499 . S
C5674 H5654 0.950 . S
C5674 C5673 1.414 . S
C5674 C5675 1.374 . S
C5675 H5655 0.950 . S
C5675 C5671 1.385 . S
C5675 C5674 1.374 . S
C5676 C5673 1.499 . S
C5676 C5677 1.373 . S
C5676 C5678 1.389 . S
C5677 H5656 0.950 . S
C5677 C5676 1.373 . S
C5677 C5693 1.377 . S
C5678 C5676 1.389 . S
C5678 C5679 1.524 . S
C5678 C5692 1.377 . S
C5679 C5678 1.524 . S
C5679 C5680 1.397 . S
C5679 C5684 1.363 . S
C5680 H5657 0.950 . S
C5680 C5679 1.397 . S
C5680 C5681 1.334 . S
C5681 H5658 0.950 . S
C5681 C5680 1.334 . S
C5681 C5682 1.287 . S
C5682 C5681 1.287 . S
C5682 C5683 1.524 . S
C5682 H5701 0.913 . S
C5683 H5659 0.950 . S
C5683 C5682 1.524 . S
C5683 C5684 1.415 . S
C5684 H5660 0.950 . S
C5684 C5679 1.363 . S
C5684 C5683 1.415 . S
C5685 H5661 0.951 . S
C5685 C5686 1.366 . S
C5685 C5687 1.388 . S
C5686 C5685 1.366 . S
C5686 C5690 1.385 . S
C5687 H5662 0.951 . S
C5687 C5685 1.388 . S
C5687 C5688 1.366 . S
C5688 C5687 1.366 . S
C5688 C5689 1.414 . S
C5688 C5691 1.499 . S
C5689 H5663 0.950 . S
C5689 C5688 1.414 . S
C5689 C5690 1.374 . S
C5690 H5664 0.950 . S
C5690 C5686 1.385 . S
C5690 C5689 1.374 . S
C5691 C5688 1.499 . S
C5691 C5692 1.373 . S
C5691 C5693 1.389 . S
C5692 H5665 0.950 . S
C5692 C5678 1.377 . S
C5692 C5691 1.373 . S
C5693 C5677 1.377 . S
C5693 C5691 1.389 . S
C5693 C5694 1.524 . S
C5694 C5693 1.524 . S
C5694 C5695 1.397 . S
C5694 C5699 1.363 . S
C5695 H5666 0.950 . S
C5695 C5694 1.397 . S
C5695 C5696 1.334 . S
C5696 H5667 0.950 . S
C5696 C5695 1.334 . S
C5696 C5697 1.287 . S
C5697 C5696 1.287 . S
C5697 C5698 1.524 . S
C5697 H5700 0.999 . S
C5698 H5668 0.950 . S
C5698 C5697 1.524 . S
C5698 C5699 1.415 . S
C5699 H5669 0.950 . S
C5699 C5694 1.363 . S
C5699 C5698 1.415 . S
H5700 C5697 0.999 . S
H5701 C5682 0.913 . S
H5702 C5720 0.951 . S
H5703 C5722 0.951 . S
H5704 C5724 0.950 . S
H5705 C5725 0.950 . S
H5706 C5727 0.950 . S
H5707 C5730 0.950 . S
H5708 C5731 0.950 . S
H5709 C5733 0.950 . S
H5710 C5734 0.950 . S
H5711 C5735 0.951 . S
H5712 C5737 0.951 . S
H5713 C5739 0.950 . S
H5714 C5740 0.950 . S
H5715 C5742 0.950 . S
H5716 C5745 0.950 . S
H5717 C5746 0.950 . S
H5718 C5748 0.950 . S
H5719 C5749 0.950 . S
C5720 H5702 0.951 . S
C5720 C5721 1.366 . S
C5720 C5722 1.388 . S
C5721 C5720 1.366 . S
C5721 C5725 1.385 . S
C5722 H5703 0.951 . S
C5722 C5720 1.388 . S
C5722 C5723 1.366 . S
C5723 C5722 1.366 . S
C5723 C5724 1.414 . S
C5723 C5726 1.499 . S
C5724 H5704 0.950 . S
C5724 C5723 1.414 . S
C5724 C5725 1.374 . S
C5725 H5705 0.950 . S
C5725 C5721 1.385 . S
C5725 C5724 1.374 . S
C5726 C5723 1.499 . S
C5726 C5727 1.373 . S
C5726 C5728 1.389 . S
C5727 H5706 0.950 . S
C5727 C5726 1.373 . S
C5727 C5743 1.377 . S
C5728 C5726 1.389 . S
C5728 C5729 1.524 . S
C5728 C5742 1.377 . S
C5729 C5728 1.524 . S
C5729 C5730 1.397 . S
C5729 C5734 1.363 . S
C5730 H5707 0.950 . S
C5730 C5729 1.397 . S
C5730 C5731 1.334 . S
C5731 H5708 0.950 . S
C5731 C5730 1.334 . S
C5731 C5732 1.287 . S
C5732 C5731 1.287 . S
C5732 C5733 1.524 . S
C5732 H5751 0.913 . S
C5733 H5709 0.950 . S
C5733 C5732 1.524 . S
C5733 C5734 1.415 . S
C5734 H5710 0.950 . S
C5734 C5729 1.363 . S
C5734 C5733 1.415 . S
C5735 H5711 0.951 . S
C5735 C5736 1.366 . S
C5735 C5737 1.388 . S
C5736 C5735 1.366 . S
C5736 C5740 1.385 . S
C5737 H5712 0.951 . S
C5737 C5735 1.388 . S
C5737 C5738 1.366 . S
C5738 C5737 1.366 . S
C5738 C5739 1.414 . S
C5738 C5741 1.499 . S
C5739 H5713 0.950 . S
C5739 C5738 1.414 . S
C5739 C5740 1.374 . S
C5740 H5714 0.950 . S
C5740 C5736 1.385 . S
C5740 C5739 1.374 . S
C5741 C5738 1.499 . S
C5741 C5742 1.373 . S
C5741 C5743 1.389 . S
C5742 H5715 0.950 . S
C5742 C5728 1.377 . S
C5742 C5741 1.373 . S
C5743 C5727 1.377 . S
C5743 C5741 1.389 . S
C5743 C5744 1.524 . S
C5744 C5743 1.524 . S
C5744 C5745 1.397 . S
C5744 C5749 1.363 . S
C5745 H5716 0.950 . S
C5745 C5744 1.397 . S
C5745 C5746 1.334 . S
C5746 H5717 0.950 . S
C5746 C5745 1.334 . S
C5746 C5747 1.287 . S
C5747 C5746 1.287 . S
C5747 C5748 1.524 . S
C5747 H5750 0.999 . S
C5748 H5718 0.950 . S
C5748 C5747 1.524 . S
C5748 C5749 1.415 . S
C5749 H5719 0.950 . S
C5749 C5744 1.363 . S
C5749 C5748 1.415 . S
H5750 C5747 0.999 . S
H5751 C5732 0.913 . S
C971 C101 2.293 . S
C986 C322 2.243 . S
C1021 C57 2.033 . S
C1036 C370 2.064 . S
C1071 C73 1.156 . S
C1086 C402 1.201 . S
C1136 C447 1.534 . S
C1121 C78 1.503 . S
C1171 C21 0.953 . S
C1186 C487 0.962 . S
C1236 C522 0.865 . S
C1221 C31 0.850 . S
C1286 C561 1.178 . S
C1271 C49 1.189 . S
C1321 C0 1.095 . S
C1336 C598 1.138 . S
C1386 C330 1.964 . S
C1371 C218 1.978 . S
C1421 C229 0.677 . S
C1436 C367 0.468 . S
C1486 C410 2.451 . S
C1471 C257 2.480 . S
C1536 C442 0.979 . S
C1521 C164 0.954 . S
C1571 C216 1.070 . S
C1586 C482 1.101 . S
C1636 C530 0.509 . S
C1621 C231 0.484 . S
C1686 C571 1.836 . S
C1671 C255 1.861 . S
C1736 C601 1.895 . S
C1721 C166 1.922 . S
C1786 C327 1.010 . S
C1771 C143 0.987 1_556 S
C1821 C265 2.172 . S
C1836 C650 2.191 . S
C1886 C687 1.087 . S
C1871 C299 1.065 . S
C1936 C718 0.278 . S
C1921 C291 0.241 . S
C1971 C104 2.714 . S
C1986 C611 2.698 . S
C2021 C117 1.344 . S
C2036 C407 1.377 . S
C2071 C304 1.701 . S
C2086 C770 1.717 . S
C2136 C802 1.690 . S
C2121 C278 1.677 . S
C2186 C331 2.212 . S
C2171 C60 2.245 . S
C2236 C801 1.930 . S
C2221 C96 1.925 . S
C2271 C88 1.088 . S
C2286 C411 1.077 . S
C2321 C65 1.471 . S
C2336 C758 1.463 . S
C2386 C478 0.869 . S
C2371 C10 0.871 . S
C2421 C44 0.724 . S
C2436 C691 0.719 . S
C2486 C570 1.137 . S
C2471 C34 1.128 . S
C2536 C847 1.077 . S
C2521 C13 1.068 . S
C2586 C321 1.888 . S
C2571 C138 1.877 . S
C2636 C798 0.556 . S
C2621 C296 0.415 . S
C2671 C112 2.311 . S
C2686 C401 2.365 . S
C2721 C270 0.863 . S
C2736 C771 0.858 . S
C2771 C140 0.972 . S
C2786 C491 0.963 . S
C2836 C681 0.381 . S
C2821 C294 0.513 . S
C2871 C114 1.774 . S
C2886 C562 1.728 . S
C2921 C268 1.856 . S
C2936 C850 1.865 . S
C2971 C169 1.063 . S
C2986 C318 1.032 . S
C3021 C161 2.079 . S
C3036 C641 2.076 . S
C3071 C234 1.061 . S
C3086 C518 1.053 . S
C3121 C226 0.239 . S
C3136 C727 0.310 . S
C3186 C842 2.616 . S
C3171 C247 2.613 . S
C3221 C195 1.310 . S
C3236 C398 1.309 . S
C3286 C441 1.616 . S
C3271 C239 1.622 . S
C3336 C371 1.580 . S
C3321 C187 1.545 . S
C3371 C75 2.293 . S
C3386 C882 2.243 . S
C3436 C810 2.064 . S
C3421 C83 2.033 . S
C3471 C99 1.156 . S
C3486 C922 1.201 . S
C3521 C52 1.503 1_655 S
C3536 C767 1.534 . S
C3571 C47 0.953 . S
C3586 C647 0.962 . S
C3636 C682 0.864 . S
C3621 C5 0.850 . S
C3686 C721 1.177 . S
C3671 C23 1.189 . S
C3736 C838 1.138 . S
C3721 C26 1.094 . S
C3786 C890 1.964 . S
C3771 C244 1.979 . S
C3821 C177 0.679 . S
C3836 C807 0.470 . S
C3886 C930 2.452 . S
C3871 C192 2.480 . S
C3936 C762 0.979 . S
C3921 C203 0.953 . S
C3986 C642 1.101 . S
C3971 C242 1.069 . S
C4021 C179 0.484 . S
C4036 C690 0.511 . S
C4086 C731 1.835 . S
C4071 C190 1.860 . S
C4121 C205 1.921 . S
C4136 C841 1.895 . S
C4186 C887 1.010 . S
C4171 C286 0.987 . S
C4221 C122 2.172 . S
C4236 C490 2.191 . S
C4286 C527 1.088 . S
C4271 C130 1.066 . S
C4336 C558 0.275 . S
C4321 C148 0.246 . S
C4386 C851 2.697 . S
C4371 C273 2.713 . S
C4421 C260 1.344 . S
C4436 C927 1.376 . S
C4486 C450 1.717 . S
C4471 C135 1.701 . S
C4536 C362 1.690 . S
C4521 C109 1.677 . S
C4571 C86 2.245 . S
C4586 C891 2.211 . S
C4636 C361 1.930 . S
C4621 C70 1.925 . S
C4671 C62 1.088 . S
C4686 C931 1.078 . S
C4721 C91 1.470 . S
C4736 C438 1.463 . S
C4771 C36 0.865 . S
C4786 C638 0.864 . S
C4836 C531 0.719 . S
C4821 C18 0.724 . S
C4871 C8 1.129 . S
C4886 C730 1.137 . S
C4921 C39 1.068 . S
C4936 C607 1.077 . S
C4986 C881 1.888 . S
C4971 C307 1.877 . S
C5021 C153 0.416 . S
C5036 C358 0.561 . S
C5086 C921 2.364 . S
C5071 C281 2.310 . S
C5121 C127 0.863 . S
C5136 C451 0.859 . S
C5171 C309 0.972 . S
C5186 C651 0.962 . S
C5236 C521 0.383 . S
C5221 C151 0.517 . S
C5271 C283 1.774 . S
C5286 C722 1.719 . S
C5336 C610 1.865 . S
C5321 C125 1.856 . S
C5386 C878 1.033 . S
C5371 C221 1.063 . S
C5436 C481 2.075 1_565 S
C5421 C200 2.078 . S
C5471 C208 1.061 . S
C5486 C678 1.054 . S
C5536 C567 0.309 . S
C5521 C174 0.239 . S
C5571 C182 2.613 . S
C5586 C602 2.616 . S
C5621 C156 1.310 . S
C5636 C918 1.310 . S
C5686 C761 1.615 . S
C5671 C213 1.622 . S
C5736 C811 1.580 . S
C5721 C252 1.545 . S
