# Generated by pormake.
# Topology ibd, (4,6)-cn, num edge types: 1
# Building blocks:
#     Node 0, Type 0, BuildingBlock: CEKHIL_clean_sbu_0, # of connection points: 4
#     Node 1, Type 0, BuildingBlock: CEKHIL_clean_sbu_0, # of connection points: 4
#     Node 2, Type 0, BuildingBlock: CEKHIL_clean_sbu_0, # of connection points: 4
#     Node 3, Type 0, BuildingBlock: CEKHIL_clean_sbu_0, # of connection points: 4
#     Node 4, Type 0, BuildingBlock: CEKHIL_clean_sbu_0, # of connection points: 4
#     Node 5, Type 0, BuildingBlock: CEKHIL_clean_sbu_0, # of connection points: 4
#     Node 6, Type 0, BuildingBlock: CEKHIL_clean_sbu_0, # of connection points: 4
#     Node 7, Type 0, BuildingBlock: CEKHIL_clean_sbu_0, # of connection points: 4
#     Node 8, Type 0, BuildingBlock: CEKHIL_clean_sbu_0, # of connection points: 4
#     Node 9, Type 0, BuildingBlock: CEKHIL_clean_sbu_0, # of connection points: 4
#     Node 10, Type 0, BuildingBlock: CEKHIL_clean_sbu_0, # of connection points: 4
#     Node 11, Type 0, BuildingBlock: CEKHIL_clean_sbu_0, # of connection points: 4
#     Node 12, Type 0, BuildingBlock: CEKHIL_clean_sbu_0, # of connection points: 4
#     Node 13, Type 0, BuildingBlock: CEKHIL_clean_sbu_0, # of connection points: 4
#     Node 14, Type 0, BuildingBlock: CEKHIL_clean_sbu_0, # of connection points: 4
#     Node 15, Type 0, BuildingBlock: CEKHIL_clean_sbu_0, # of connection points: 4
#     Node 16, Type 0, BuildingBlock: CEKHIL_clean_sbu_0, # of connection points: 4
#     Node 17, Type 0, BuildingBlock: CEKHIL_clean_sbu_0, # of connection points: 4
#     Node 18, Type 0, BuildingBlock: CEKHIL_clean_sbu_0, # of connection points: 4
#     Node 19, Type 0, BuildingBlock: CEKHIL_clean_sbu_0, # of connection points: 4
#     Node 20, Type 0, BuildingBlock: CEKHIL_clean_sbu_0, # of connection points: 4
#     Node 21, Type 0, BuildingBlock: CEKHIL_clean_sbu_0, # of connection points: 4
#     Node 22, Type 0, BuildingBlock: CEKHIL_clean_sbu_0, # of connection points: 4
#     Node 23, Type 0, BuildingBlock: CEKHIL_clean_sbu_0, # of connection points: 4
#     Node 24, Type 1, BuildingBlock: CIFDUS_clean_sbu_1, # of connection points: 6
#     Node 25, Type 1, BuildingBlock: CIFDUS_clean_sbu_1, # of connection points: 6
#     Node 26, Type 1, BuildingBlock: CIFDUS_clean_sbu_1, # of connection points: 6
#     Node 27, Type 1, BuildingBlock: CIFDUS_clean_sbu_1, # of connection points: 6
#     Node 28, Type 1, BuildingBlock: CIFDUS_clean_sbu_1, # of connection points: 6
#     Node 29, Type 1, BuildingBlock: CIFDUS_clean_sbu_1, # of connection points: 6
#     Node 30, Type 1, BuildingBlock: CIFDUS_clean_sbu_1, # of connection points: 6
#     Node 31, Type 1, BuildingBlock: CIFDUS_clean_sbu_1, # of connection points: 6
#     Node 32, Type 1, BuildingBlock: CIFDUS_clean_sbu_1, # of connection points: 6
#     Node 33, Type 1, BuildingBlock: CIFDUS_clean_sbu_1, # of connection points: 6
#     Node 34, Type 1, BuildingBlock: CIFDUS_clean_sbu_1, # of connection points: 6
#     Node 35, Type 1, BuildingBlock: CIFDUS_clean_sbu_1, # of connection points: 6
#     Node 36, Type 1, BuildingBlock: CIFDUS_clean_sbu_1, # of connection points: 6
#     Node 37, Type 1, BuildingBlock: CIFDUS_clean_sbu_1, # of connection points: 6
#     Node 38, Type 1, BuildingBlock: CIFDUS_clean_sbu_1, # of connection points: 6
#     Node 39, Type 1, BuildingBlock: CIFDUS_clean_sbu_1, # of connection points: 6
#     Edge 40, Type (0, 1), BuildingBlock: XUDNAN_clean_linker_2, # of connection points: 2
#     Edge 41, Type (0, 1), BuildingBlock: XUDNAN_clean_linker_2, # of connection points: 2
#     Edge 42, Type (0, 1), BuildingBlock: XUDNAN_clean_linker_2, # of connection points: 2
#     Edge 43, Type (0, 1), BuildingBlock: XUDNAN_clean_linker_2, # of connection points: 2
#     Edge 44, Type (0, 1), BuildingBlock: XUDNAN_clean_linker_2, # of connection points: 2
#     Edge 45, Type (0, 1), BuildingBlock: XUDNAN_clean_linker_2, # of connection points: 2
#     Edge 46, Type (0, 1), BuildingBlock: XUDNAN_clean_linker_2, # of connection points: 2
#     Edge 47, Type (0, 1), BuildingBlock: XUDNAN_clean_linker_2, # of connection points: 2
#     Edge 48, Type (0, 1), BuildingBlock: XUDNAN_clean_linker_2, # of connection points: 2
#     Edge 49, Type (0, 1), BuildingBlock: XUDNAN_clean_linker_2, # of connection points: 2
#     Edge 50, Type (0, 1), BuildingBlock: XUDNAN_clean_linker_2, # of connection points: 2
#     Edge 51, Type (0, 1), BuildingBlock: XUDNAN_clean_linker_2, # of connection points: 2
#     Edge 52, Type (0, 1), BuildingBlock: XUDNAN_clean_linker_2, # of connection points: 2
#     Edge 53, Type (0, 1), BuildingBlock: XUDNAN_clean_linker_2, # of connection points: 2
#     Edge 54, Type (0, 1), BuildingBlock: XUDNAN_clean_linker_2, # of connection points: 2
#     Edge 55, Type (0, 1), BuildingBlock: XUDNAN_clean_linker_2, # of connection points: 2
#     Edge 56, Type (0, 1), BuildingBlock: XUDNAN_clean_linker_2, # of connection points: 2
#     Edge 57, Type (0, 1), BuildingBlock: XUDNAN_clean_linker_2, # of connection points: 2
#     Edge 58, Type (0, 1), BuildingBlock: XUDNAN_clean_linker_2, # of connection points: 2
#     Edge 59, Type (0, 1), BuildingBlock: XUDNAN_clean_linker_2, # of connection points: 2
#     Edge 60, Type (0, 1), BuildingBlock: XUDNAN_clean_linker_2, # of connection points: 2
#     Edge 61, Type (0, 1), BuildingBlock: XUDNAN_clean_linker_2, # of connection points: 2
#     Edge 62, Type (0, 1), BuildingBlock: XUDNAN_clean_linker_2, # of connection points: 2
#     Edge 63, Type (0, 1), BuildingBlock: XUDNAN_clean_linker_2, # of connection points: 2
#     Edge 64, Type (0, 1), BuildingBlock: XUDNAN_clean_linker_2, # of connection points: 2
#     Edge 65, Type (0, 1), BuildingBlock: XUDNAN_clean_linker_2, # of connection points: 2
#     Edge 66, Type (0, 1), BuildingBlock: XUDNAN_clean_linker_2, # of connection points: 2
#     Edge 67, Type (0, 1), BuildingBlock: XUDNAN_clean_linker_2, # of connection points: 2
#     Edge 68, Type (0, 1), BuildingBlock: XUDNAN_clean_linker_2, # of connection points: 2
#     Edge 69, Type (0, 1), BuildingBlock: XUDNAN_clean_linker_2, # of connection points: 2
#     Edge 70, Type (0, 1), BuildingBlock: XUDNAN_clean_linker_2, # of connection points: 2
#     Edge 71, Type (0, 1), BuildingBlock: XUDNAN_clean_linker_2, # of connection points: 2
#     Edge 72, Type (0, 1), BuildingBlock: XUDNAN_clean_linker_2, # of connection points: 2
#     Edge 73, Type (0, 1), BuildingBlock: XUDNAN_clean_linker_2, # of connection points: 2
#     Edge 74, Type (0, 1), BuildingBlock: XUDNAN_clean_linker_2, # of connection points: 2
#     Edge 75, Type (0, 1), BuildingBlock: XUDNAN_clean_linker_2, # of connection points: 2
#     Edge 76, Type (0, 1), BuildingBlock: XUDNAN_clean_linker_2, # of connection points: 2
#     Edge 77, Type (0, 1), BuildingBlock: XUDNAN_clean_linker_2, # of connection points: 2
#     Edge 78, Type (0, 1), BuildingBlock: XUDNAN_clean_linker_2, # of connection points: 2
#     Edge 79, Type (0, 1), BuildingBlock: XUDNAN_clean_linker_2, # of connection points: 2
#     Edge 80, Type (0, 1), BuildingBlock: XUDNAN_clean_linker_2, # of connection points: 2
#     Edge 81, Type (0, 1), BuildingBlock: XUDNAN_clean_linker_2, # of connection points: 2
#     Edge 82, Type (0, 1), BuildingBlock: XUDNAN_clean_linker_2, # of connection points: 2
#     Edge 83, Type (0, 1), BuildingBlock: XUDNAN_clean_linker_2, # of connection points: 2
#     Edge 84, Type (0, 1), BuildingBlock: XUDNAN_clean_linker_2, # of connection points: 2
#     Edge 85, Type (0, 1), BuildingBlock: XUDNAN_clean_linker_2, # of connection points: 2
#     Edge 86, Type (0, 1), BuildingBlock: XUDNAN_clean_linker_2, # of connection points: 2
#     Edge 87, Type (0, 1), BuildingBlock: XUDNAN_clean_linker_2, # of connection points: 2
#     Edge 88, Type (0, 1), BuildingBlock: XUDNAN_clean_linker_2, # of connection points: 2
#     Edge 89, Type (0, 1), BuildingBlock: XUDNAN_clean_linker_2, # of connection points: 2
#     Edge 90, Type (0, 1), BuildingBlock: XUDNAN_clean_linker_2, # of connection points: 2
#     Edge 91, Type (0, 1), BuildingBlock: XUDNAN_clean_linker_2, # of connection points: 2
#     Edge 92, Type (0, 1), BuildingBlock: XUDNAN_clean_linker_2, # of connection points: 2
#     Edge 93, Type (0, 1), BuildingBlock: XUDNAN_clean_linker_2, # of connection points: 2
#     Edge 94, Type (0, 1), BuildingBlock: XUDNAN_clean_linker_2, # of connection points: 2
#     Edge 95, Type (0, 1), BuildingBlock: XUDNAN_clean_linker_2, # of connection points: 2
#     Edge 96, Type (0, 1), BuildingBlock: XUDNAN_clean_linker_2, # of connection points: 2
#     Edge 97, Type (0, 1), BuildingBlock: XUDNAN_clean_linker_2, # of connection points: 2
#     Edge 98, Type (0, 1), BuildingBlock: XUDNAN_clean_linker_2, # of connection points: 2
#     Edge 99, Type (0, 1), BuildingBlock: XUDNAN_clean_linker_2, # of connection points: 2
#     Edge 100, Type (0, 1), BuildingBlock: XUDNAN_clean_linker_2, # of connection points: 2
#     Edge 101, Type (0, 1), BuildingBlock: XUDNAN_clean_linker_2, # of connection points: 2
#     Edge 102, Type (0, 1), BuildingBlock: XUDNAN_clean_linker_2, # of connection points: 2
#     Edge 103, Type (0, 1), BuildingBlock: XUDNAN_clean_linker_2, # of connection points: 2
#     Edge 104, Type (0, 1), BuildingBlock: XUDNAN_clean_linker_2, # of connection points: 2
#     Edge 105, Type (0, 1), BuildingBlock: XUDNAN_clean_linker_2, # of connection points: 2
#     Edge 106, Type (0, 1), BuildingBlock: XUDNAN_clean_linker_2, # of connection points: 2
#     Edge 107, Type (0, 1), BuildingBlock: XUDNAN_clean_linker_2, # of connection points: 2
#     Edge 108, Type (0, 1), BuildingBlock: XUDNAN_clean_linker_2, # of connection points: 2
#     Edge 109, Type (0, 1), BuildingBlock: XUDNAN_clean_linker_2, # of connection points: 2
#     Edge 110, Type (0, 1), BuildingBlock: XUDNAN_clean_linker_2, # of connection points: 2
#     Edge 111, Type (0, 1), BuildingBlock: XUDNAN_clean_linker_2, # of connection points: 2
#     Edge 112, Type (0, 1), BuildingBlock: XUDNAN_clean_linker_2, # of connection points: 2
#     Edge 113, Type (0, 1), BuildingBlock: XUDNAN_clean_linker_2, # of connection points: 2
#     Edge 114, Type (0, 1), BuildingBlock: XUDNAN_clean_linker_2, # of connection points: 2
#     Edge 115, Type (0, 1), BuildingBlock: XUDNAN_clean_linker_2, # of connection points: 2
#     Edge 116, Type (0, 1), BuildingBlock: XUDNAN_clean_linker_2, # of connection points: 2
#     Edge 117, Type (0, 1), BuildingBlock: XUDNAN_clean_linker_2, # of connection points: 2
#     Edge 118, Type (0, 1), BuildingBlock: XUDNAN_clean_linker_2, # of connection points: 2
#     Edge 119, Type (0, 1), BuildingBlock: XUDNAN_clean_linker_2, # of connection points: 2
#     Edge 120, Type (0, 1), BuildingBlock: XUDNAN_clean_linker_2, # of connection points: 2
#     Edge 121, Type (0, 1), BuildingBlock: XUDNAN_clean_linker_2, # of connection points: 2
#     Edge 122, Type (0, 1), BuildingBlock: XUDNAN_clean_linker_2, # of connection points: 2
#     Edge 123, Type (0, 1), BuildingBlock: XUDNAN_clean_linker_2, # of connection points: 2
#     Edge 124, Type (0, 1), BuildingBlock: XUDNAN_clean_linker_2, # of connection points: 2
#     Edge 125, Type (0, 1), BuildingBlock: XUDNAN_clean_linker_2, # of connection points: 2
#     Edge 126, Type (0, 1), BuildingBlock: XUDNAN_clean_linker_2, # of connection points: 2
#     Edge 127, Type (0, 1), BuildingBlock: XUDNAN_clean_linker_2, # of connection points: 2
#     Edge 128, Type (0, 1), BuildingBlock: XUDNAN_clean_linker_2, # of connection points: 2
#     Edge 129, Type (0, 1), BuildingBlock: XUDNAN_clean_linker_2, # of connection points: 2
#     Edge 130, Type (0, 1), BuildingBlock: XUDNAN_clean_linker_2, # of connection points: 2
#     Edge 131, Type (0, 1), BuildingBlock: XUDNAN_clean_linker_2, # of connection points: 2
#     Edge 132, Type (0, 1), BuildingBlock: XUDNAN_clean_linker_2, # of connection points: 2
#     Edge 133, Type (0, 1), BuildingBlock: XUDNAN_clean_linker_2, # of connection points: 2
#     Edge 134, Type (0, 1), BuildingBlock: XUDNAN_clean_linker_2, # of connection points: 2
#     Edge 135, Type (0, 1), BuildingBlock: XUDNAN_clean_linker_2, # of connection points: 2
# Relax obj value: 0.350
# Max RMSD: 0.307
# Mean RMSD: 0.277
data_MOF--net-ibd--node1-CEKHIL_clean_sbu_0--node2-CIFDUS_clean_sbu_1--edge1-XUDNAN_clean_linker_2
_symmetry_space_group_name_H-M    P1
_symmetry_Int_Tables_number       1
_symmetry_cell_setting            triclinic
loop_
_symmetry_equiv_pos_as_xyz
'x, y, z'
_cell_length_a     46.980865
_cell_length_b     48.163241
_cell_length_c     49.004981
_cell_angle_alpha  91.149309
_cell_angle_beta   89.728544
_cell_angle_gamma 94.083263
loop_
_atom_site_label
_atom_site_type_symbol
_atom_site_fract_x
_atom_site_fract_y
_atom_site_fract_z
_atom_type_partial_charge
Co0 Co 0.98659 0.31455 0.36738 0.0
O1 O 0.98612 0.33678 0.33531 0.0
O2 O 0.9517 0.30546 0.34767 0.0
C3 C 0.00172 0.34711 0.39819 0.0
O4 O 0.97994 0.28904 0.40016 0.0
Co5 Co 0.04551 0.30495 0.39171 0.0
O6 O 0.02156 0.29261 0.42318 0.0
C7 C 0.02897 0.27701 0.34057 0.0
C8 C 0.96201 0.32307 0.3297 0.0
C9 C -0.00508 0.28561 0.4217 0.0
O10 O 0.00388 0.28473 0.34506 0.0
O11 O 0.05018 0.28439 0.35599 0.0
O12 O 0.97528 0.34507 0.39019 0.0
O13 O 0.01896 0.33306 0.38346 0.0
Co14 Co 0.97869 0.79195 0.64136 0.0
O15 O 0.95067 0.78294 0.66883 0.0
O16 O 0.97816 0.82226 0.6681 0.0
C17 C 0.95323 0.77804 0.60428 0.0
O18 O 0.00956 0.80747 0.61507 0.0
Co19 Co 0.00197 0.74165 0.61006 0.0
O20 O 0.02028 0.77168 0.58727 0.0
C21 C 0.01166 0.74937 0.66835 0.0
C22 C 0.9595 0.80605 0.68111 0.0
C23 C 0.02193 0.79753 0.59376 0.0
O24 O 0.0075 0.77501 0.66472 0.0
O25 O 0.00845 0.73108 0.6491 0.0
O26 O 0.94971 0.80225 0.6156 0.0
O27 O 0.96846 0.76199 0.6181 0.0
Co28 Co 0.49575 0.81778 0.85561 0.0
O29 O 0.50087 0.84084 0.82393 0.0
O30 O 0.45935 0.82217 0.83893 0.0
C31 C 0.52446 0.84209 0.88516 0.0
O32 O 0.48206 0.79429 0.88823 0.0
Co33 Co 0.54641 0.78724 0.87803 0.0
O34 O 0.52103 0.78195 0.91019 0.0
C35 C 0.51958 0.76763 0.8268 0.0
C36 C 0.47357 0.83622 0.82029 0.0
C37 C 0.49425 0.78457 0.90923 0.0
O38 O 0.49962 0.78402 0.83127 0.0
O39 O 0.54143 0.76694 0.84217 0.0
O40 O 0.49899 0.84996 0.88046 0.0
O41 O 0.53295 0.82307 0.86871 0.0
Co42 Co 0.48482 0.27446 0.14949 0.0
O43 O 0.45978 0.26169 0.17824 0.0
O44 O 0.48115 0.30415 0.17628 0.0
C45 C 0.45927 0.25786 0.11339 0.0
O46 O 0.51125 0.29454 0.12169 0.0
Co47 Co 0.51388 0.2302 0.11452 0.0
O48 O 0.5212 0.2621 0.08993 0.0
C49 C 0.53428 0.24205 0.16991 0.0
C50 C 0.46517 0.28595 0.18983 0.0
C51 C 0.52053 0.2874 0.09786 0.0
O52 O 0.5178 0.26212 0.17122 0.0
O53 O 0.53537 0.22547 0.14929 0.0
O54 O 0.45289 0.28078 0.1257 0.0
O55 O 0.47749 0.24375 0.12603 0.0
Co56 Co 0.00699 0.78359 0.12545 0.0
O57 O -0.00142 0.81135 0.09968 0.0
O58 O 0.97275 0.77147 0.1051 0.0
C59 C 0.01653 0.81177 0.1621 0.0
O60 O 0.0085 0.7513 0.15182 0.0
Co61 Co 0.06853 0.78274 0.14708 0.0
O62 O 0.04904 0.75981 0.17577 0.0
C63 C 0.05713 0.76421 0.09092 0.0
C64 C 0.97692 0.79479 0.09222 0.0
C65 C 0.02424 0.74756 0.17282 0.0
O66 O 0.03039 0.76483 0.09651 0.0
O67 O 0.0766 0.77261 0.10794 0.0
O68 O 0.99028 0.8047 0.15521 0.0
O69 O 0.0356 0.80507 0.14437 0.0
Co70 Co 0.50917 0.78011 0.38466 0.0
O71 O 0.4802 0.77393 0.41234 0.0
O72 O 0.50566 0.8138 0.4062 0.0
C73 C 0.48599 0.76022 0.34834 0.0
O74 O 0.53977 0.7941 0.35727 0.0
Co75 Co 0.53653 0.72838 0.36007 0.0
O76 O 0.55329 0.7561 0.33422 0.0
C77 C 0.55063 0.74606 0.41605 0.0
C78 C 0.48653 0.79945 0.42042 0.0
C79 C 0.55317 0.78239 0.3376 0.0
O80 O 0.53844 0.7686 0.41164 0.0
O81 O 0.55044 0.72593 0.39859 0.0
O82 O 0.48071 0.78513 0.35673 0.0
O83 O 0.50126 0.74674 0.3648 0.0
Co84 Co 0.50584 0.28967 0.62204 0.0
O85 O 0.49591 0.31961 0.59954 0.0
O86 O 0.47136 0.27865 0.6017 0.0
C87 C 0.51555 0.31465 0.66035 0.0
O88 O 0.5088 0.25484 0.64479 0.0
Co89 Co 0.56757 0.28715 0.64098 0.0
O90 O 0.54966 0.2617 0.66836 0.0
C91 C 0.55493 0.27297 0.58433 0.0
C92 C 0.47465 0.30316 0.5909 0.0
C93 C 0.52504 0.24934 0.66488 0.0
O94 O 0.52857 0.27484 0.59055 0.0
O95 O 0.57516 0.27818 0.60142 0.0
O96 O 0.48936 0.30681 0.65399 0.0
O97 O 0.53475 0.31032 0.64184 0.0
Co98 Co 0.015 0.26907 0.89624 0.0
O99 O 0.98904 0.26141 0.92643 0.0
O100 O 0.01088 0.3026 0.91746 0.0
C101 C 0.99065 0.24637 0.86209 0.0
O102 O 0.04112 0.28559 0.86635 0.0
Co103 Co 0.04626 0.22195 0.86807 0.0
O104 O 0.05211 0.2499 0.839 0.0
C105 C 0.06229 0.23922 0.92371 0.0
C106 C 0.99422 0.28747 0.93337 0.0
C107 C 0.04982 0.27583 0.84332 0.0
O108 O 0.04793 0.2607 0.92065 0.0
O109 O 0.06276 0.21974 0.9056 0.0
O110 O 0.98348 0.27065 0.87074 0.0
O111 O 0.00891 0.23494 0.87725 0.0
Co112 Co 0.37067 0.01204 0.21495 0.0
O113 O 0.40387 0.00434 0.19403 0.0
O114 O 0.3824 0.9758 0.22407 0.0
C115 C 0.34325 0.02903 0.1826 0.0
O116 O 0.33576 0.01253 0.23933 0.0
Co117 Co 0.35603 0.07291 0.22487 0.0
O118 O 0.31929 0.05535 0.23895 0.0
C119 C 0.40893 0.05377 0.24625 0.0
C120 C 0.40374 0.9814 0.20763 0.0
C121 C 0.31644 0.02955 0.24446 0.0
O122 O 0.39707 0.02899 0.24406 0.0
O123 O 0.39693 0.07489 0.23751 0.0
O124 O 0.34478 0.00224 0.18458 0.0
O125 O 0.36173 0.04415 0.19704 0.0
Co126 Co 0.22607 0.15769 0.5431 0.0
O127 O 0.21429 0.12564 0.56477 0.0
O128 O 0.25796 0.14614 0.56338 0.0
C129 C 0.18924 0.18421 0.55235 0.0
O130 O 0.24655 0.1911 0.5243 0.0
Co131 Co 0.19082 0.1725 0.49291 0.0
O132 O 0.21778 0.20596 0.49193 0.0
C133 C 0.22295 0.12257 0.49072 0.0
C134 C 0.24092 0.12568 0.57198 0.0
C135 C 0.24048 0.20878 0.50618 0.0
O136 O 0.23582 0.13112 0.51268 0.0
O137 O 0.20259 0.13508 0.48031 0.0
O138 O 0.21026 0.18351 0.56943 0.0
O139 O 0.1895 0.1666 0.53209 0.0
Co140 Co 0.12754 0.06011 0.74849 0.0
O141 O 0.15842 0.07267 0.72473 0.0
O142 O 0.14168 0.02878 0.72903 0.0
C143 C 0.09688 0.09195 0.73881 0.0
O144 O 0.09512 0.03987 0.77003 0.0
Co145 Co 0.11348 0.09809 0.79769 0.0
O146 O 0.08097 0.07017 0.80202 0.0
C147 C 0.16646 0.07045 0.79761 0.0
C148 C 0.1605 0.04659 0.71838 0.0
C149 C 0.07776 0.047 0.78897 0.0
O150 O 0.15649 0.05506 0.77777 0.0
O151 O 0.15372 0.09096 0.80752 0.0
O152 O 0.09935 0.07056 0.72262 0.0
O153 O 0.11574 0.09555 0.758 0.0
Co154 Co 0.25711 0.90785 0.00726 0.0
O155 O 0.26177 0.87674 0.02993 0.0
O156 O 0.29322 0.89225 -0.00118 0.0
C157 C 0.24257 0.93747 0.03904 0.0
O158 O 0.2587 0.94044 0.98111 0.0
Co159 Co 0.19562 0.92523 -0.00099 0.0
O160 O 0.21603 0.95903 0.98348 0.0
C161 C 0.21184 0.87122 0.97897 0.0
C162 C 0.28557 0.87383 0.01705 0.0
C163 C 0.24222 0.96014 0.97625 0.0
O164 O 0.23768 0.88171 0.9798 0.0
O165 O 0.19092 0.88457 0.98772 0.0
O166 O 0.26964 0.93403 0.03616 0.0
O167 O 0.22545 0.92 0.02556 0.0
Co168 Co 0.2778 0.40608 0.00801 0.0
O169 O 0.30521 0.3793 0.01648 0.0
O170 O 0.28802 0.386 0.97533 0.0
C171 C 0.29648 0.44403 0.03098 0.0
O172 O 0.25042 0.43217 0.99134 0.0
Co173 Co 0.24011 0.42901 0.05458 0.0
O174 O 0.22896 0.45439 0.02589 0.0
C175 C 0.22861 0.3715 0.03488 0.0
C176 C 0.30398 0.37196 0.99081 0.0
C177 C 0.23442 0.45093 0.00059 0.0
O178 O 0.24603 0.37647 0.01497 0.0
O179 O 0.22497 0.38913 0.05423 0.0
O180 O 0.3071 0.43696 0.00749 0.0
O181 O 0.27876 0.42547 0.04161 0.0
Co182 Co 0.75488 0.16127 0.00699 0.0
O183 O 0.77705 0.1301 0.01256 0.0
O184 O 0.75203 0.13659 0.97517 0.0
C185 C 0.7852 0.19626 0.02141 0.0
O186 O 0.73058 0.19226 -0.00495 0.0
Co187 Co 0.7347 0.19084 0.05939 0.0
O188 O 0.71822 0.21609 0.03305 0.0
C189 C 0.71859 0.13314 0.04868 0.0
C190 C 0.76772 0.12069 0.98904 0.0
C191 C 0.71923 0.21282 0.0072 0.0
O192 O 0.72126 0.13939 0.02349 0.0
O193 O 0.72629 0.15039 0.06779 0.0
O194 O 0.78838 0.18532 -0.00283 0.0
O195 O 0.7678 0.18206 0.03735 0.0
Co196 Co 0.13337 0.52778 0.27103 0.0
O197 O 0.16495 0.5047 0.26686 0.0
O198 O 0.15596 0.52951 0.30415 0.0
C199 C 0.09857 0.49858 0.25356 0.0
O200 O 0.10174 0.55277 0.28266 0.0
Co201 Co 0.10426 0.54836 0.21921 0.0
O202 O 0.07583 0.56183 0.24561 0.0
C203 C 0.16471 0.56109 0.22985 0.0
C204 C 0.17263 0.51323 0.29119 0.0
C205 C 0.07975 0.56232 0.27134 0.0
O206 O 0.15854 0.55916 0.25532 0.0
O207 O 0.14621 0.55491 0.21125 0.0
O208 O 0.10652 0.4959 0.27876 0.0
O209 O 0.11438 0.51593 0.23932 0.0
Co210 Co 0.76143 0.91789 0.4875 0.0
O211 O 0.79433 0.89614 0.48646 0.0
O212 O 0.76094 0.8947 0.45462 0.0
C213 C 0.78298 0.9593 0.50058 0.0
O214 O 0.72553 0.93866 0.48153 0.0
Co215 Co 0.74234 0.94118 0.54388 0.0
O216 O 0.71615 0.96128 0.52105 0.0
C217 C 0.73186 0.8817 0.53141 0.0
C218 C 0.78422 0.88512 0.46383 0.0
C219 C 0.71156 0.95597 0.4958 0.0
O220 O 0.73902 0.88654 0.50654 0.0
O221 O 0.7342 0.90039 0.55036 0.0
O222 O 0.78392 0.9511 0.47514 0.0
O223 O 0.77306 0.94062 0.51735 0.0
Co224 Co 0.86618 0.00417 0.27183 0.0
O225 O 0.8934 0.97692 0.26453 0.0
O226 O 0.8843 0.99539 0.30529 0.0
C227 C 0.82944 0.98524 0.24762 0.0
O228 O 0.8377 0.03122 0.28686 0.0
Co229 Co 0.84847 0.04077 0.22501 0.0
O230 O 0.81549 0.04543 0.24963 0.0
C231 C 0.906 0.05021 0.24657 0.0
C232 C 0.89932 0.97916 0.29034 0.0
C233 C 0.81616 0.04129 0.27522 0.0
O234 O 0.89782 0.03435 0.26628 0.0
O235 O 0.88983 0.05466 0.22643 0.0
O236 O 0.83502 0.97575 0.27151 0.0
O237 O 0.84909 0.00238 0.23735 0.0
Co238 Co 0.26387 0.67035 0.49879 0.0
O239 O 0.29555 0.64687 0.49847 0.0
O240 O 0.26664 0.65235 0.46365 0.0
C241 C 0.2837 0.70944 0.51889 0.0
O242 O 0.23042 0.69364 0.49089 0.0
Co243 Co 0.23521 0.68598 0.55299 0.0
O244 O 0.20967 0.70688 0.53011 0.0
C245 C 0.23244 0.6283 0.53506 0.0
C246 C 0.28758 0.63966 0.47376 0.0
C247 C 0.21229 0.70751 0.50429 0.0
O248 O 0.23849 0.63723 0.51108 0.0
O249 O 0.23289 0.64453 0.55601 0.0
O250 O 0.28897 0.70388 0.49335 0.0
O251 O 0.271 0.68907 0.53226 0.0
Co252 Co 0.37593 0.51211 0.773 0.0
O253 O 0.40378 0.4883 0.75849 0.0
O254 O 0.39464 0.49539 0.80258 0.0
C255 C 0.33949 0.49815 0.74584 0.0
O256 O 0.34756 0.53359 0.7954 0.0
Co257 Co 0.35299 0.55794 0.73706 0.0
O258 O 0.32294 0.5577 0.76567 0.0
C259 C 0.41349 0.55862 0.75162 0.0
C260 C 0.40922 0.48325 0.78378 0.0
C261 C 0.32606 0.54735 0.7891 0.0
O262 O 0.40621 0.54406 0.77252 0.0
O263 O 0.39558 0.56432 0.73333 0.0
O264 O 0.34535 0.4835 0.76684 0.0
O265 O 0.35801 0.51835 0.74006 0.0
Co266 Co 0.63208 0.02865 0.77441 0.0
O267 O 0.65482 -0.0023 0.77929 0.0
O268 O 0.65025 0.03165 0.80993 0.0
C269 C 0.59279 0.00581 0.75694 0.0
O270 O 0.60996 0.06349 0.77592 0.0
Co271 Co 0.61721 0.04435 0.71534 0.0
O272 O 0.58962 0.06756 0.73471 0.0
C273 C 0.67619 0.05212 0.73435 0.0
C274 C 0.66265 0.00938 0.80242 0.0
C275 C 0.59238 0.07443 0.75989 0.0
O276 O 0.66643 0.0496 0.7587 0.0
O277 O 0.66029 0.04836 0.71324 0.0
O278 O 0.59678 0.00663 0.78323 0.0
O279 O 0.61426 0.01531 0.74245 0.0
Co280 Co 0.72881 0.64161 0.04064 0.0
O281 O 0.71958 0.61154 0.0654 0.0
O282 O 0.76326 0.62894 0.05533 0.0
C283 C 0.69733 0.6718 0.0547 0.0
O284 O 0.74673 0.67287 0.01712 0.0
Co285 Co 0.68506 0.65593 -0.00292 0.0
O286 O 0.71194 0.6889 0.99169 0.0
C287 C 0.71551 0.60559 0.98943 0.0
C288 C 0.747 0.6103 0.06795 0.0
C289 C 0.73741 0.69073 0.00072 0.0
O290 O 0.73086 0.61309 0.01019 0.0
O291 O 0.69459 0.61887 0.98139 0.0
O292 O 0.72092 0.66964 0.06801 0.0
O293 O 0.69152 0.65274 0.03612 0.0
Co294 Co 0.86051 0.51214 0.72134 0.0
O295 O 0.89591 0.51127 0.70183 0.0
O296 O 0.8768 0.47734 0.72774 0.0
C297 C 0.83317 0.52871 0.68881 0.0
O298 O 0.82447 0.50494 0.74343 0.0
Co299 Co 0.83468 0.56778 0.73576 0.0
O300 O 0.80013 0.5435 0.74597 0.0
C301 C 0.89086 0.55553 0.75584 0.0
C302 C 0.89807 0.48721 0.71298 0.0
C303 C 0.80172 0.51738 0.74869 0.0
O304 O 0.88257 0.52967 0.75316 0.0
O305 O 0.87579 0.57478 0.74752 0.0
O306 O 0.83778 0.50236 0.6887 0.0
O307 O 0.84807 0.54425 0.7061 0.0
Co308 Co 0.76745 0.40665 0.52562 0.0
O309 O 0.77363 0.37886 0.55171 0.0
O310 O 0.80179 0.38824 0.51613 0.0
C311 C 0.75684 0.44068 0.55485 0.0
O312 O 0.76715 0.43514 0.49522 0.0
Co313 Co 0.70628 0.42657 0.52049 0.0
O314 O 0.72744 0.45816 0.50202 0.0
C315 C 0.71747 0.37003 0.50307 0.0
C316 C 0.79541 0.37267 0.53705 0.0
C317 C 0.75199 0.45604 0.49131 0.0
O318 O 0.74425 0.37754 0.50371 0.0
O319 O 0.69817 0.38603 0.5106 0.0
O320 O 0.78346 0.43639 0.54999 0.0
O321 O 0.73833 0.42222 0.54471 0.0
Co322 Co 0.62214 0.55532 0.23106 0.0
O323 O 0.65633 0.56772 0.21138 0.0
O324 O 0.64182 0.52374 0.21918 0.0
C325 C 0.59082 0.58184 0.21232 0.0
O326 O 0.58767 0.53462 0.24918 0.0
Co327 Co 0.59393 0.59518 0.2715 0.0
O328 O 0.56076 0.56766 0.2664 0.0
C329 C 0.64805 0.57315 0.28612 0.0
C330 C 0.66118 0.54152 0.2094 0.0
C331 C 0.56382 0.54271 0.25843 0.0
O332 O 0.64504 0.55655 0.26546 0.0
O333 O 0.63068 0.59175 0.2918 0.0
O334 O 0.59875 0.55977 0.19946 0.0
O335 O 0.60576 0.58969 0.23366 0.0
O336 O 0.14502 0.17816 0.11066 0.0
Mn337 Mn 0.12748 0.1482 0.13695 0.0
O338 O 0.16887 0.20948 0.13847 0.0
Mn339 Mn 0.16801 0.18866 0.17011 0.0
O340 O 0.10722 0.11939 0.16444 0.0
O341 O 0.09421 0.14307 0.11196 0.0
Mn342 Mn 0.08069 0.10813 0.10888 0.0
O343 O 0.14721 0.11759 0.11548 0.0
O344 O 0.06574 0.10518 0.14342 0.0
O345 O 0.10612 0.17788 0.16033 0.0
O346 O 0.13758 0.19247 0.19266 0.0
O347 O 0.06723 0.12709 0.07936 0.0
O348 O 0.11165 0.0869 0.10157 0.0
C349 C 0.1882 0.15002 0.16999 0.0
C350 C 0.15896 0.20165 0.11512 0.0
C351 C 0.08081 0.10948 0.16491 0.0
C352 C 0.08374 0.14774 0.08849 0.0
C353 C 0.13814 0.0944 0.10426 0.0
C354 C 0.11211 0.1882 0.18428 0.0
O355 O 0.16333 0.1534 0.15973 0.0
O356 O 0.19971 0.17224 0.18193 0.0
O357 O 0.10231 0.88132 0.35674 0.0
Mn358 Mn 0.12909 0.90727 0.38269 0.0
O359 O 0.13377 0.85693 0.33277 0.0
Mn360 Mn 0.16734 0.87019 0.34942 0.0
O361 O 0.15968 0.93245 0.40574 0.0
O362 O 0.09825 0.93562 0.38236 0.0
Mn363 Mn 0.10727 0.95427 0.41299 0.0
O364 O 0.1112 0.89066 0.4186 0.0
O365 O 0.14168 0.97342 0.40799 0.0
O366 O 0.14704 0.9267 0.34813 0.0
O367 O 0.18363 0.90229 0.33478 0.0
O368 O 0.07683 0.97092 0.40141 0.0
O369 O 0.10392 0.93015 0.44205 0.0
C370 C 0.17415 0.8587 0.39022 0.0
C371 C 0.10849 0.86417 0.33721 0.0
C372 C 0.16301 0.95905 0.40796 0.0
C373 C 0.07824 0.95318 0.38127 0.0
C374 C 0.10494 0.90376 0.44078 0.0
C375 C 0.16965 0.92382 0.33392 0.0
O376 O 0.15768 0.87782 0.3832 0.0
O377 O 0.18779 0.84762 0.37021 0.0
O378 O 0.40476 0.94723 0.64257 0.0
Mn379 Mn 0.37281 0.92813 0.61782 0.0
O380 O 0.4339 0.97304 0.61482 0.0
Mn381 Mn 0.4133 0.9672 0.58258 0.0
O382 O 0.34145 0.90783 0.59215 0.0
O383 O 0.36885 0.89719 0.64529 0.0
Mn384 Mn 0.33203 0.88976 0.65119 0.0
O385 O 0.34227 0.95069 0.63844 0.0
O386 O 0.31661 0.877 0.61866 0.0
O387 O 0.40264 0.90583 0.5951 0.0
O388 O 0.42078 0.93541 0.56325 0.0
O389 O 0.34951 0.86591 0.67294 0.0
O390 O 0.31697 0.92113 0.66551 0.0
C391 C 0.37138 0.98333 0.58282 0.0
C392 C 0.42721 0.96341 0.63828 0.0
C393 C 0.32235 0.88761 0.59556 0.0
C394 C 0.37263 0.87794 0.66282 0.0
C395 C 0.32244 0.94534 0.65612 0.0
C396 C 0.41687 0.91098 0.57283 0.0
O397 O 0.37752 0.95975 0.59219 0.0
O398 O 0.39266 0.99597 0.57023 0.0
O399 O 0.41374 0.18875 0.90885 0.0
Mn400 Mn 0.39388 0.1632 0.87821 0.0
O401 O 0.4357 0.15857 0.93497 0.0
Mn402 Mn 0.42893 0.12589 0.91473 0.0
O403 O 0.37327 0.13498 0.84993 0.0
O404 O 0.36447 0.19198 0.8743 0.0
Mn405 Mn 0.35437 0.19093 0.83943 0.0
O406 O 0.41855 0.18289 0.84738 0.0
O407 O 0.33705 0.15635 0.8322 0.0
O408 O 0.36804 0.14105 0.9074 0.0
O409 O 0.39459 0.10659 0.92064 0.0
O410 O 0.33446 0.2182 0.85527 0.0
O411 O 0.38686 0.19997 0.81901 0.0
C412 C 0.44806 0.12626 0.8748 0.0
C413 C 0.42859 0.18307 0.92988 0.0
C414 C 0.34977 0.13452 0.83653 0.0
C415 C 0.34812 0.21257 0.87716 0.0
C416 C 0.41231 0.19491 0.82514 0.0
C417 C 0.37056 0.11692 0.91798 0.0
O418 O 0.42464 0.13694 0.88143 0.0
O419 O 0.45855 0.11253 0.89431 0.0
O420 O 0.58154 0.38114 0.85917 0.0
Mn421 Mn 0.61443 0.39852 0.88471 0.0
O422 O 0.59407 0.33993 0.84275 0.0
Mn423 Mn 0.63206 0.34741 0.85124 0.0
O424 O 0.64859 0.41741 0.90788 0.0
O425 O 0.59472 0.43361 0.88498 0.0
Mn426 Mn 0.59792 0.45287 0.91538 0.0
O427 O 0.59273 0.3868 0.92081 0.0
O428 O 0.6366 0.46126 0.91707 0.0
O429 O 0.63696 0.41156 0.84996 0.0
O430 O 0.6515 0.37307 0.82889 0.0
O431 O 0.57262 0.47031 0.89326 0.0
O432 O 0.58426 0.42789 0.94159 0.0
C433 C 0.64832 0.34226 0.8912 0.0
C434 C 0.57665 0.35892 0.84431 0.0
C435 C 0.65466 0.44274 0.9161 0.0
C436 C 0.576 0.44956 0.87674 0.0
C437 C 0.58384 0.40127 0.94124 0.0
C438 C 0.65063 0.39948 0.83089 0.0
O439 O 0.63373 0.36266 0.88426 0.0
O440 O 0.65192 0.32402 0.87197 0.0
O441 O 0.90582 0.43111 0.1486 0.0
Mn442 Mn 0.87282 0.4135 0.12397 0.0
O443 O 0.93662 0.45324 0.11933 0.0
Mn444 Mn 0.91668 0.4468 0.08685 0.0
O445 O 0.8415 0.39518 0.09767 0.0
O446 O 0.86472 0.38338 0.15183 0.0
Mn447 Mn 0.82724 0.37955 0.15594 0.0
O448 O 0.84414 0.43963 0.14308 0.0
O449 O 0.81216 0.3674 0.12298 0.0
O450 O 0.90109 0.38762 0.10394 0.0
O451 O 0.92172 0.41293 0.06996 0.0
O452 O 0.84075 0.35418 0.17872 0.0
O453 O 0.81554 0.41253 0.16972 0.0
C454 C 0.87643 0.46583 0.08461 0.0
C455 C 0.92934 0.44547 0.14335 0.0
C456 C 0.82084 0.37642 0.09997 0.0
C457 C 0.86535 0.36384 0.16963 0.0
C458 C 0.82392 0.43633 0.16078 0.0
C459 C 0.91582 0.38985 0.08171 0.0
O460 O 0.88085 0.44329 0.09693 0.0
O461 O 0.89862 0.47585 0.07143 0.0
O462 O 0.89403 0.69142 0.40831 0.0
Mn463 Mn 0.87581 0.66318 0.37845 0.0
O464 O 0.91975 0.6667 0.43641 0.0
Mn465 Mn 0.90798 0.63254 0.42178 0.0
O466 O 0.85522 0.63363 0.35124 0.0
O467 O 0.84826 0.69306 0.36978 0.0
Mn468 Mn 0.84085 0.6894 0.33433 0.0
O469 O 0.90358 0.67968 0.34812 0.0
O470 O 0.82165 0.65544 0.32958 0.0
O471 O 0.84731 0.64406 0.40713 0.0
O472 O 0.87318 0.6171 0.43296 0.0
O473 O 0.82091 0.71857 0.34595 0.0
O474 O 0.87506 0.69509 0.31575 0.0
C475 C 0.92477 0.61741 0.38458 0.0
C476 C 0.91043 0.68953 0.42917 0.0
C477 C 0.83174 0.6334 0.33767 0.0
C478 C 0.83227 0.71413 0.36934 0.0
C479 C 0.89965 0.69006 0.32451 0.0
C480 C 0.84941 0.62428 0.4243 0.0
O481 O 0.90548 0.63547 0.38595 0.0
O482 O 0.93369 0.60936 0.4079 0.0
O483 O 0.84912 0.87277 0.9179 0.0
Mn484 Mn 0.87045 0.90468 0.8955 0.0
O485 O 0.82194 0.84718 0.88745 0.0
Mn486 Mn 0.8341 0.86532 0.8561 0.0
O487 O 0.89248 0.93546 0.87156 0.0
O488 O 0.89909 0.90975 0.92642 0.0
Mn489 Mn 0.90797 0.946 0.93037 0.0
O490 O 0.84558 0.93371 0.91432 0.0
O491 O 0.92513 0.958 0.89874 0.0
O492 O 0.89594 0.87615 0.87539 0.0
O493 O 0.86839 0.85561 0.84203 0.0
O494 O 0.92813 0.92976 0.95667 0.0
O495 O 0.87487 0.96258 0.9398 0.0
C496 C 0.81982 0.90616 0.8506 0.0
C497 C 0.83077 0.85247 0.91174 0.0
C498 C 0.91429 0.95285 0.87535 0.0
C499 C 0.91503 0.90684 0.94764 0.0
C500 C 0.85027 0.9547 0.93059 0.0
C501 C 0.89234 0.86053 0.85382 0.0
O502 O 0.84031 0.90027 0.86647 0.0
O503 O 0.80912 0.88505 0.83639 0.0
O504 O 0.91698 0.18622 0.6624 0.0
Mn505 Mn 0.89064 0.16609 0.63187 0.0
O506 O 0.889 0.21398 0.68657 0.0
Mn507 Mn 0.85474 0.20136 0.67081 0.0
O508 O 0.86333 0.14515 0.60244 0.0
O509 O 0.91914 0.13778 0.62683 0.0
Mn510 Mn 0.92175 0.12597 0.59288 0.0
O511 O 0.91122 0.18944 0.60155 0.0
O512 O 0.88628 0.10826 0.58727 0.0
O513 O 0.86944 0.14115 0.66118 0.0
O514 O 0.83913 0.16788 0.68357 0.0
O515 O 0.95108 0.11135 0.6121 0.0
O516 O 0.92884 0.15793 0.57235 0.0
C517 C 0.84639 0.21509 0.63056 0.0
C518 C 0.91316 0.20441 0.68164 0.0
C519 C 0.86379 0.12132 0.5899 0.0
C520 C 0.94153 0.12535 0.63254 0.0
C521 C 0.92348 0.18282 0.57907 0.0
C522 C 0.84927 0.14452 0.67845 0.0
O523 O 0.8627 0.19553 0.63617 0.0
O524 O 0.83374 0.22528 0.65163 0.0
O525 O 0.63513 0.18166 0.41237 0.0
Mn526 Mn 0.61814 0.15375 0.38224 0.0
O527 O 0.67975 0.19584 0.40002 0.0
Mn528 Mn 0.67698 0.17964 0.36576 0.0
O529 O 0.59857 0.12638 0.35202 0.0
O530 O 0.58026 0.16012 0.39862 0.0
Mn531 Mn 0.55728 0.12996 0.40037 0.0
O532 O 0.62202 0.12056 0.40804 0.0
O533 O 0.55174 0.12217 0.36382 0.0
O534 O 0.61396 0.18614 0.35419 0.0
O535 O 0.6585 0.19853 0.33982 0.0
O536 O 0.54065 0.15775 0.42065 0.0
O537 O 0.5774 0.10394 0.41874 0.0
C538 C 0.68125 0.13646 0.36032 0.0
C539 C 0.65906 0.19547 0.41677 0.0
C540 C 0.572 0.11909 0.34684 0.0
C541 C 0.56397 0.17251 0.4153 0.0
C542 C 0.6045 0.10283 0.4197 0.0
C543 C 0.63158 0.19953 0.33798 0.0
O544 O 0.65779 0.14685 0.3683 0.0
O545 O 0.70234 0.1545 0.35542 0.0
O546 O 0.59785 0.8737 0.08913 0.0
Mn547 Mn 0.62012 0.89816 0.11896 0.0
O548 O 0.56399 0.9006 0.07401 0.0
Mn549 Mn 0.57199 0.93117 0.09679 0.0
O550 O 0.64171 0.92514 0.14758 0.0
O551 O 0.65415 0.87637 0.10979 0.0
Mn552 Mn 0.67796 0.88268 0.1367 0.0
O553 O 0.61099 0.87051 0.15068 0.0
O554 O 0.68678 0.92038 0.1369 0.0
O555 O 0.63399 0.92708 0.0895 0.0
O556 O 0.6 0.95685 0.08487 0.0
O557 O 0.6954 0.859 0.11326 0.0
O558 O 0.65633 0.86839 0.16604 0.0
C559 C 0.56304 0.92798 0.13924 0.0
C560 C 0.57723 0.87837 0.07293 0.0
C561 C 0.66782 0.93486 0.14705 0.0
C562 C 0.67162 0.85905 0.10005 0.0
C563 C 0.62922 0.86294 0.16833 0.0
C564 C 0.62555 0.95039 0.08162 0.0
O565 O 0.58474 0.91788 0.12741 0.0
O566 O 0.54673 0.94087 0.12329 0.0
O567 O 0.40577 0.6981 0.15159 0.0
Mn568 Mn 0.37933 0.67531 0.1229 0.0
O569 O 0.37653 0.72404 0.17645 0.0
Mn570 Mn 0.34215 0.71123 0.16079 0.0
O571 O 0.35208 0.65123 0.09596 0.0
O572 O 0.40873 0.64671 0.1189 0.0
Mn573 Mn 0.41453 0.64144 0.08347 0.0
O574 O 0.39734 0.69924 0.0907 0.0
O575 O 0.38055 0.6265 0.06928 0.0
O576 O 0.35939 0.65142 0.1541 0.0
O577 O 0.32677 0.67777 0.17365 0.0
O578 O 0.43777 0.61829 0.1001 0.0
O579 O 0.42917 0.67431 0.06884 0.0
C580 C 0.33557 0.72369 0.11955 0.0
C581 C 0.40128 0.71599 0.17092 0.0
C582 C 0.3559 0.63247 0.07737 0.0
C583 C 0.42715 0.62827 0.12238 0.0
C584 C 0.41696 0.69673 0.07261 0.0
C585 C 0.33801 0.65463 0.17022 0.0
O586 O 0.35066 0.70383 0.1267 0.0
O587 O 0.32227 0.73483 0.13966 0.0
O588 O 0.13631 0.67423 0.89767 0.0
Mn589 Mn 0.11335 0.6418 0.87723 0.0
O590 O 0.16104 0.69859 0.86532 0.0
Mn591 Mn 0.15146 0.6754 0.83544 0.0
O592 O 0.08911 0.61049 0.85505 0.0
O593 O 0.08423 0.64176 0.90772 0.0
Mn594 Mn 0.07059 0.60732 0.91385 0.0
O595 O 0.13513 0.61253 0.89818 0.0
O596 O 0.05256 0.59546 0.882 0.0
O597 O 0.09029 0.66989 0.85466 0.0
O598 O 0.11797 0.68069 0.8181 0.0
O599 O 0.05364 0.62981 0.93928 0.0
O600 O 0.10209 0.58837 0.92351 0.0
C601 C 0.16693 0.63457 0.83637 0.0
C602 C 0.15318 0.69475 0.89 0.0
C603 C 0.06457 0.59726 0.85872 0.0
C604 C 0.06981 0.64967 0.92872 0.0
C605 C 0.12772 0.59314 0.91502 0.0
C606 C 0.09391 0.67902 0.83016 0.0
O607 O 0.14438 0.64204 0.84881 0.0
O608 O 0.17874 0.6536 0.82092 0.0
O609 O 0.08772 0.38804 0.59546 0.0
Mn610 Mn 0.11486 0.40637 0.6255 0.0
O611 O 0.06469 0.42387 0.57893 0.0
Mn612 Mn 0.08053 0.45248 0.60098 0.0
O613 O 0.14256 0.42652 0.65427 0.0
O614 O 0.14057 0.37533 0.6197 0.0
Mn615 Mn 0.15689 0.36681 0.65028 0.0
O616 O 0.09377 0.38368 0.6565 0.0
O617 O 0.17813 0.39853 0.66109 0.0
O618 O 0.13856 0.43012 0.59606 0.0
O619 O 0.11502 0.46867 0.59031 0.0
O620 O 0.16793 0.34157 0.62418 0.0
O621 O 0.12661 0.3564 0.67327 0.0
C622 C 0.06932 0.45125 0.64322 0.0
C623 C 0.06989 0.39821 0.57918 0.0
C624 C 0.16718 0.42183 0.66378 0.0
C625 C 0.1503 0.35337 0.6087 0.0
C626 C 0.10174 0.36557 0.67336 0.0
C627 C 0.13719 0.45524 0.58774 0.0
O628 O 0.08778 0.43629 0.63165 0.0
O629 O 0.05883 0.46895 0.62724 0.0
O630 O 0.64946 0.6849 0.60919 0.0
Mn631 Mn 0.62935 0.65111 0.62921 0.0
O632 O 0.66837 0.7122 0.64348 0.0
Mn633 Mn 0.66259 0.68834 0.67277 0.0
O634 O 0.60781 0.6187 0.65133 0.0
O635 O 0.60099 0.64678 0.59886 0.0
Mn636 Mn 0.58982 0.61154 0.59311 0.0
O637 O 0.65449 0.62372 0.60885 0.0
O638 O 0.57108 0.6023 0.62502 0.0
O639 O 0.60297 0.67727 0.65114 0.0
O640 O 0.62759 0.68854 0.68961 0.0
O641 O 0.57479 0.63132 0.5652 0.0
O642 O 0.62312 0.59363 0.58687 0.0
C643 C 0.68275 0.64931 0.66905 0.0
C644 C 0.6625 0.70763 0.61823 0.0
C645 C 0.58336 0.60506 0.64815 0.0
C646 C 0.58892 0.65259 0.57635 0.0
C647 C 0.64846 0.60156 0.59447 0.0
C648 C 0.60422 0.68509 0.67644 0.0
O649 O 0.65927 0.65497 0.65788 0.0
O650 O 0.69296 0.66916 0.6851 0.0
O651 O 0.35639 0.38419 0.42163 0.0
Mn652 Mn 0.37735 0.40821 0.39117 0.0
O653 O 0.32172 0.35748 0.39994 0.0
Mn654 Mn 0.33042 0.36787 0.36465 0.0
O655 O 0.39885 0.43074 0.35982 0.0
O656 O 0.41097 0.41368 0.41645 0.0
Mn657 Mn 0.42776 0.44722 0.41288 0.0
O658 O 0.36139 0.44451 0.40697 0.0
O659 O 0.44115 0.44648 0.37755 0.0
O660 O 0.39469 0.37301 0.37373 0.0
O661 O 0.36 0.35057 0.34835 0.0
O662 O 0.44646 0.43101 0.4408 0.0
O663 O 0.39985 0.47185 0.42087 0.0
C664 C 0.3205 0.4088 0.35337 0.0
C665 C 0.33509 0.36578 0.42153 0.0
C666 C 0.42492 0.44059 0.35723 0.0
C667 C 0.42809 0.41011 0.43641 0.0
C668 C 0.37298 0.46744 0.41708 0.0
C669 C 0.38587 0.35433 0.35599 0.0
O670 O 0.34259 0.40319 0.36725 0.0
O671 O 0.30477 0.38706 0.34535 0.0
H672 H 0.07136 0.24202 0.32979 0.0
H673 H -0.0039 0.27421 0.29465 0.0
H674 H 0.00476 0.24905 0.25141 0.0
H675 H 0.11447 0.24864 0.27346 0.0
H676 H 0.13192 0.21693 0.27804 0.0
H677 H 0.11737 0.23446 0.30703 0.0
H678 H 0.08688 0.18926 0.31913 0.0
H679 H 0.10133 0.17162 0.28996 0.0
H680 H 0.06326 0.17262 0.29388 0.0
H681 H 0.0259 0.22528 0.20962 0.0
H682 H 0.05789 0.20575 0.17458 0.0
H683 H 0.11655 0.18728 0.23872 0.0
C684 C 0.05644 0.24336 0.31316 0.0
C685 C 0.03312 0.26001 0.31561 0.0
C686 C 0.01405 0.26133 0.29333 0.0
C687 C 0.01873 0.24707 0.26866 0.0
C688 C 0.04221 0.23108 0.26675 0.0
C689 C 0.0605 0.22888 0.2886 0.0
C690 C 0.08519 0.21195 0.28095 0.0
C691 C 0.11391 0.22903 0.2851 0.0
C692 C 0.08408 0.18475 0.29693 0.0
C693 C 0.07885 0.20632 0.25109 0.0
C694 C 0.0538 0.21704 0.24312 0.0
C695 C 0.04533 0.21636 0.21573 0.0
C696 C 0.06351 0.20525 0.19596 0.0
C697 C 0.08978 0.19539 0.20394 0.0
C698 C 0.09669 0.19494 0.23193 0.0
H699 H 0.02877 0.79046 0.53883 0.0
H700 H 0.05078 0.84776 0.60616 0.0
H701 H 0.07828 0.87879 0.57431 0.0
H702 H 0.09479 0.79896 0.50073 0.0
H703 H 0.07721 0.79779 0.46803 0.0
H704 H 0.06082 0.77952 0.49641 0.0
H705 H 0.01503 0.80636 0.49064 0.0
H706 H 0.03155 0.82389 0.46195 0.0
H707 H 0.01823 0.84379 0.4902 0.0
H708 H 0.10203 0.90375 0.53543 0.0
H709 H 0.11714 0.92383 0.49154 0.0
H710 H 0.079 0.85084 0.44859 0.0
C711 C 0.03971 0.80938 0.54695 0.0
C712 C 0.03808 0.81657 0.57505 0.0
C713 C 0.05191 0.84185 0.58476 0.0
C714 C 0.06768 0.85946 0.56685 0.0
C715 C 0.06907 0.85158 0.53932 0.0
C716 C 0.05513 0.82735 0.52932 0.0
C717 C 0.05827 0.82474 0.49854 0.0
C718 C 0.07372 0.79871 0.49046 0.0
C719 C 0.02905 0.82469 0.4845 0.0
C720 C 0.07645 0.85123 0.49272 0.0
C721 C 0.08247 0.86627 0.51664 0.0
C722 C 0.09754 0.89214 0.51662 0.0
C723 C 0.10595 0.90337 0.49153 0.0
C724 C 0.09921 0.88891 0.46661 0.0
C725 C 0.08484 0.86215 0.46728 0.0
H726 H 0.47079 0.88387 0.78987 0.0
H727 H 0.44855 0.79499 0.78956 0.0
H728 H 0.43354 0.79656 0.74157 0.0
H729 H 0.40852 0.89897 0.7563 0.0
H730 H 0.42398 0.92758 0.73683 0.0
H731 H 0.43971 0.91927 0.76872 0.0
H732 H 0.48752 0.91594 0.74438 0.0
H733 H 0.47316 0.92103 0.71089 0.0
H734 H 0.49126 0.89032 0.7175 0.0
H735 H 0.41942 0.80703 0.69523 0.0
H736 H 0.39041 0.82665 0.65987 0.0
H737 H 0.41366 0.90978 0.69114 0.0
C738 C 0.46292 0.86483 0.77946 0.0
C739 C 0.46134 0.83916 0.79302 0.0
C740 C 0.4502 0.81475 0.77927 0.0
C741 C 0.44206 0.81538 0.75192 0.0
C742 C 0.4443 0.84081 0.73878 0.0
C743 C 0.45326 0.86532 0.75235 0.0
C744 C 0.4482 0.8903 0.73502 0.0
C745 C 0.42896 0.91019 0.75011 0.0
C746 C 0.47672 0.90532 0.72651 0.0
C747 C 0.43331 0.876 0.71048 0.0
C748 C 0.43318 0.84738 0.71243 0.0
C749 C 0.4195 0.82938 0.69334 0.0
C750 C 0.40333 0.84074 0.67309 0.0
C751 C 0.40018 0.86968 0.67266 0.0
C752 C 0.41664 0.88771 0.6905 0.0
H753 H 0.47898 0.21787 0.07941 0.0
H754 H 0.42319 0.28584 0.08164 0.0
H755 H 0.41386 0.2787 0.03219 0.0
H756 H 0.50964 0.23406 0.01217 0.0
H757 H 0.51218 0.19781 0.00332 0.0
H758 H 0.51504 0.20936 0.03848 0.0
H759 H 0.47346 0.17358 0.0517 0.0
H760 H 0.47089 0.16174 0.01675 0.0
H761 H 0.43992 0.17367 0.03399 0.0
H762 H 0.40911 0.26189 0.98206 0.0
H763 H 0.40643 0.23441 0.93862 0.0
H764 H 0.46726 0.17986 0.97048 0.0
C765 C 0.46483 0.23132 0.06956 0.0
C766 C 0.45179 0.25235 0.08439 0.0
C767 C 0.43338 0.26949 0.07066 0.0
C768 C 0.42817 0.26579 0.04253 0.0
C769 C 0.44194 0.24518 0.02838 0.0
C770 C 0.45992 0.22831 0.04155 0.0
C771 C 0.47154 0.20711 0.02224 0.0
C772 C 0.50403 0.21241 0.01886 0.0
C773 C 0.46345 0.17728 0.03173 0.0
C774 C 0.45613 0.2136 -0.0036 0.0
C775 C 0.43954 0.23594 -1e-05 0.0
C776 C 0.42212 0.2444 0.97909 0.0
C777 C 0.42059 0.22866 0.95451 0.0
C778 C 0.43582 0.20446 0.95145 0.0
C779 C 0.45496 0.198 0.97218 0.0
H780 H 0.06959 0.81847 0.18497 0.0
H781 H 0.98014 0.82652 0.20321 0.0
H782 H 0.99253 0.83971 0.25108 0.0
H783 H 0.08591 0.78726 0.24792 0.0
H784 H 0.1212 0.80449 0.24999 0.0
H785 H 0.10504 0.79694 0.21718 0.0
H786 H 0.11219 0.84909 0.20468 0.0
H787 H 0.12874 0.85675 0.23727 0.0
H788 H 0.09844 0.87504 0.2272 0.0
H789 H 0.01633 0.85263 0.29827 0.0
H790 H 0.04863 0.86357 0.3378 0.0
H791 H 0.12072 0.84444 0.2867 0.0
C792 C 0.05257 0.82323 0.19891 0.0
C793 C 0.02394 0.82165 0.19025 0.0
C794 C 0.00232 0.82776 0.20933 0.0
C795 C 0.00913 0.83518 0.23661 0.0
C796 C 0.03766 0.83613 0.24459 0.0
C797 C 0.05893 0.83022 0.22614 0.0
C798 C 0.08783 0.83196 0.23953 0.0
C799 C 0.10075 0.80347 0.2386 0.0
C800 C 0.10798 0.85456 0.22639 0.0
C801 C 0.07972 0.84014 0.2683 0.0
C802 C 0.05079 0.84255 0.27115 0.0
C803 C 0.03905 0.85072 0.29615 0.0
C804 C 0.05752 0.85699 0.31851 0.0
C805 C 0.08733 0.85501 0.31563 0.0
C806 C 0.0981 0.84598 0.29014 0.0
H807 H 0.49272 0.85305 0.44061 0.0
H808 H 0.45277 0.7713 0.45803 0.0
H809 H 0.43411 0.7896 0.50159 0.0
H810 H 0.51266 0.87273 0.5102 0.0
H811 H 0.50477 0.9085 0.50622 0.0
H812 H 0.51618 0.88853 0.4772 0.0
H813 H 0.47071 0.8994 0.45077 0.0
H814 H 0.45938 0.91964 0.47955 0.0
H815 H 0.43613 0.89139 0.46594 0.0
H816 H 0.41968 0.8176 0.54381 0.0
H817 H 0.40488 0.85391 0.5766 0.0
H818 H 0.45479 0.9165 0.53071 0.0
C819 C 0.48012 0.83895 0.45359 0.0
C820 C 0.47424 0.81075 0.4459 0.0
C821 C 0.4575 0.79305 0.46345 0.0
C822 C 0.44699 0.80319 0.48835 0.0
C823 C 0.45341 0.83109 0.49546 0.0
C824 C 0.46936 0.84874 0.4784 0.0
C825 C 0.47197 0.87817 0.48988 0.0
C826 C 0.50325 0.88752 0.49625 0.0
C827 C 0.45875 0.89833 0.47038 0.0
C828 C 0.45456 0.87447 0.51577 0.0
C829 C 0.44439 0.84716 0.51902 0.0
C830 C 0.42727 0.83914 0.54131 0.0
C831 C 0.41918 0.85984 0.55998 0.0
C832 C 0.42844 0.88814 0.55623 0.0
C833 C 0.44706 0.89515 0.53422 0.0
H834 H 0.46878 0.23687 0.67729 0.0
H835 H 0.55456 0.22525 0.70513 0.0
H836 H 0.53515 0.20826 0.74909 0.0
H837 H 0.44441 0.26427 0.7371 0.0
H838 H 0.40883 0.24773 0.73542 0.0
H839 H 0.42871 0.25448 0.70452 0.0
H840 H 0.42236 0.20226 0.69031 0.0
H841 H 0.40179 0.19547 0.72089 0.0
H842 H 0.43262 0.1763 0.71365 0.0
H843 H 0.50669 0.19913 0.79264 0.0
H844 H 0.47076 0.19357 0.82972 0.0
H845 H 0.40431 0.21059 0.77258 0.0
C846 C 0.48342 0.22963 0.69213 0.0
C847 C 0.51318 0.23215 0.68758 0.0
C848 C 0.53164 0.22327 0.708 0.0
C849 C 0.52084 0.21371 0.73314 0.0
C850 C 0.4915 0.213 0.73752 0.0
C851 C 0.47301 0.2202 0.71736 0.0
C852 C 0.44262 0.2194 0.72774 0.0
C853 C 0.43046 0.24818 0.7261 0.0
C854 C 0.42373 0.19702 0.71223 0.0
C855 C 0.44698 0.21137 0.75703 0.0
C856 C 0.47525 0.20764 0.76237 0.0
C857 C 0.48437 0.20139 0.78848 0.0
C858 C 0.46388 0.19818 0.80943 0.0
C859 C 0.43466 0.20101 0.80411 0.0
C860 C 0.4264 0.20808 0.77754 0.0
H861 H 0.09138 0.195 0.93963 0.0
H862 H 0.06424 0.27449 0.96873 0.0
H863 H 0.07842 0.26353 0.01548 0.0
H864 H 0.06283 0.15684 0.98875 0.0
H865 H 0.09064 0.13318 0.99191 0.0
H866 H 0.08621 0.15044 0.96036 0.0
H867 H 0.13894 0.1705 0.96228 0.0
H868 H 0.14349 0.15308 0.99405 0.0
H869 H 0.1517 0.19011 0.99204 0.0
H870 H 0.08546 0.23951 0.06027 0.0
H871 H 0.08236 0.20438 0.09684 0.0
H872 H 0.10493 0.14121 0.03832 0.0
C873 C 0.08942 0.21061 0.95559 0.0
C874 C 0.07651 0.23556 0.95039 0.0
C875 C 0.07398 0.25519 0.97209 0.0
C876 C 0.0822 0.24921 -0.00122 0.0
C877 C 0.09347 0.22371 0.00346 0.0
C878 C 0.0975 0.20492 0.98226 0.0
C879 C 0.10592 0.17739 0.99284 0.0
C880 C 0.08515 0.15307 0.9829 0.0
C881 C 0.13685 0.17249 0.98482 0.0
C882 C 0.1034 0.18268 0.02325 0.0
C883 C 0.09735 0.20984 0.0292 0.0
C884 C 0.09087 0.21841 0.05586 0.0
C885 C 0.08922 0.19843 0.07656 0.0
C886 C 0.09365 0.17033 0.0702 0.0
C887 C 0.10197 0.16277 0.04359 0.0
H888 H 0.33593 0.08367 0.17431 0.0
H889 H 0.29232 0.00159 0.16651 0.0
H890 H 0.24681 0.02298 0.15805 0.0
H891 H 0.28486 0.11501 0.21017 0.0
H892 H 0.28942 0.14814 0.19365 0.0
H893 H 0.31872 0.12623 0.19509 0.0
H894 H 0.32365 0.12684 0.14235 0.0
H895 H 0.29456 0.14919 0.14072 0.0
H896 H 0.29301 0.11686 0.12142 0.0
H897 H 0.20421 0.05496 0.15829 0.0
H898 H 0.17157 0.09353 0.16234 0.0
H899 H 0.2452 0.15296 0.1669 0.0
C900 C 0.317 0.07014 0.17005 0.0
C901 C 0.3176 0.04102 0.17147 0.0
C902 C 0.29232 0.02403 0.16577 0.0
C903 C 0.26634 0.03601 0.16094 0.0
C904 C 0.26622 0.06498 0.16107 0.0
C905 C 0.29119 0.0817 0.16477 0.0
C906 C 0.28564 0.11215 0.16539 0.0
C907 C 0.29521 0.12618 0.19269 0.0
C908 C 0.30007 0.12714 0.14101 0.0
C909 C 0.25357 0.1101 0.16264 0.0
C910 C 0.24243 0.08287 0.16007 0.0
C911 C 0.21285 0.07637 0.15968 0.0
C912 C 0.19444 0.09832 0.16191 0.0
C913 C 0.20584 0.12621 0.16463 0.0
C914 C 0.23573 0.13187 0.1646 0.0
H915 H 0.21797 0.10606 0.43739 0.0
H916 H 0.24236 0.07793 0.51676 0.0
H917 H 0.24331 0.02994 0.4983 0.0
H918 H 0.17027 0.05653 0.42149 0.0
H919 H 0.17862 0.05272 0.3857 0.0
H920 H 0.18806 0.08494 0.40319 0.0
H921 H 0.24096 0.08171 0.38852 0.0
H922 H 0.23125 0.04928 0.37097 0.0
H923 H 0.259 0.051 0.39621 0.0
H924 H 0.2278 0.98463 0.47535 0.0
H925 H 0.19738 0.94831 0.45088 0.0
H926 H 0.18645 0.0052 0.38534 0.0
C927 C 0.22461 0.08993 0.45053 0.0
C928 C 0.23004 0.09563 0.4784 0.0
C929 C 0.23843 0.07407 0.4952 0.0
C930 C 0.2391 0.04671 0.48485 0.0
C931 C 0.23222 0.04142 0.45746 0.0
C932 C 0.22582 0.06267 0.44039 0.0
C933 C 0.21558 0.05138 0.4129 0.0
C934 C 0.18641 0.06199 0.40545 0.0
C935 C 0.23805 0.05878 0.39086 0.0
C936 C 0.21358 0.02044 0.41831 0.0
C937 C 0.22442 0.01492 0.44371 0.0
C938 C 0.22028 0.98847 0.45503 0.0
C939 C 0.20315 0.9678 0.44093 0.0
C940 C 0.19017 0.97397 0.41606 0.0
C941 C 0.19705 -0.00012 0.4039 0.0
H942 H 0.17343 0.99324 0.70771 0.0
H943 H 0.20486 0.07909 0.69616 0.0
H944 H 0.24999 0.06313 0.67724 0.0
H945 H 0.23687 0.97042 0.73139 0.0
H946 H 0.23268 0.93654 0.71502 0.0
H947 H 0.20171 0.95458 0.72422 0.0
H948 H 0.1839 0.95093 0.67414 0.0
H949 H 0.21457 0.93235 0.66487 0.0
H950 H 0.20725 0.96343 0.64706 0.0
H951 H 0.29359 0.03681 0.66247 0.0
H952 H 0.32991 0.00287 0.65233 0.0
H953 H 0.26883 0.93565 0.67586 0.0
C954 C 0.18947 0.00872 0.7006 0.0
C955 C 0.18552 0.03736 0.70318 0.0
C956 C 0.20732 0.05696 0.6941 0.0
C957 C 0.23307 0.04811 0.68341 0.0
C958 C 0.23663 0.01962 0.68199 0.0
C959 C 0.21524 0.00029 0.69017 0.0
C960 C 0.22465 0.97103 0.68824 0.0
C961 C 0.22394 0.95736 0.71639 0.0
C962 C 0.20652 0.9534 0.66733 0.0
C963 C 0.25485 0.97684 0.6782 0.0
C964 C 0.26151 0.00487 0.67439 0.0
C965 C 0.28853 0.0148 0.66532 0.0
C966 C 0.30903 0.99544 0.65971 0.0
C967 C 0.30235 0.96663 0.66351 0.0
C968 C 0.27491 0.95752 0.67304 0.0
H969 H 0.29579 0.97008 0.95468 0.0
H970 H 0.21703 0.00961 0.9705 0.0
H971 H 0.23977 0.05438 0.95495 0.0
H972 H 0.34176 0.02362 0.9793 0.0
H973 H 0.36909 0.01957 0.95388 0.0
H974 H 0.34549 0.99017 0.963 0.0
H975 H 0.33047 0.98251 0.91232 0.0
H976 H 0.35441 0.01171 0.90301 0.0
H977 H 0.31724 0.01093 0.89389 0.0
H978 H 0.27354 0.09652 0.94027 0.0
H979 H 0.31439 0.12996 0.92817 0.0
H980 H 0.36932 0.06123 0.92374 0.0
C981 C 0.28307 0.98796 0.95442 0.0
C982 C 0.25459 0.98616 0.96374 0.0
C983 C 0.23886 0.01029 0.96323 0.0
C984 C 0.25161 0.03591 0.95446 0.0
C985 C 0.28003 0.03707 0.94604 0.0
C986 C 0.29538 0.01356 0.94574 0.0
C987 C 0.32591 0.02025 0.93721 0.0
C988 C 0.34677 0.01298 0.9597 0.0
C989 C 0.33238 0.00547 0.90999 0.0
C990 C 0.32573 0.05131 0.93381 0.0
C991 C 0.29912 0.06086 0.93845 0.0
C992 C 0.29447 0.08917 0.93656 0.0
C993 C 0.31774 0.10805 0.92981 0.0
C994 C 0.34523 0.09843 0.92556 0.0
C995 C 0.34884 0.06962 0.92743 0.0
H996 H 0.28452 0.03873 0.29073 0.0
H997 H 0.28547 0.99178 0.21451 0.0
H998 H 0.23863 0.96854 0.2253 0.0
H999 H 0.26238 0.98425 0.32905 0.0
H1000 H 0.23936 0.00157 0.35233 0.0
H1001 H 0.26822 0.02116 0.33582 0.0
H1002 H 0.23289 0.05445 0.31716 0.0
H1003 H 0.20277 0.0348 0.33218 0.0
H1004 H 0.20348 0.04106 0.29611 0.0
H1005 H 0.19775 0.94454 0.24655 0.0
H1006 H 0.1689 0.91663 0.27955 0.0
H1007 H 0.19409 0.97579 0.34406 0.0
C1008 C 0.27423 0.02418 0.27612 0.0
C1009 C 0.28799 0.01735 0.25152 0.0
C1010 C 0.27477 -0.00244 0.23315 0.0
C1011 C 0.2481 0.98445 0.23904 0.0
C1012 C 0.23508 0.99106 0.26364 0.0
C1013 C 0.24774 0.01022 0.28212 0.0
C1014 C 0.23174 0.00951 0.30909 0.0
C1015 C 0.2516 0.00377 0.33296 0.0
C1016 C 0.21687 0.03658 0.31393 0.0
C1017 C 0.20993 0.98531 0.3036 0.0
C1018 C 0.21136 0.976 0.27677 0.0
C1019 C 0.19581 0.95203 0.26739 0.0
C1020 C 0.17948 0.93633 0.2862 0.0
C1021 C 0.17901 0.94463 0.31395 0.0
C1022 C 0.19343 0.96987 0.32264 0.0
H1023 H 0.29468 0.12184 0.59106 0.0
H1024 H 0.21421 0.07354 0.57896 0.0
H1025 H 0.23776 0.0304 0.58839 0.0
H1026 H 0.33456 0.0796 0.55537 0.0
H1027 H 0.36597 0.0837 0.57645 0.0
H1028 H 0.34172 0.1108 0.57588 0.0
H1029 H 0.33572 0.10856 0.62835 0.0
H1030 H 0.36027 0.08148 0.62928 0.0
H1031 H 0.32515 0.07585 0.64393 0.0
H1032 H 0.27271 0.99171 0.59022 0.0
H1033 H 0.31465 0.96308 0.5853 0.0
H1034 H 0.37104 0.03764 0.59529 0.0
C1035 C 0.28172 0.10233 0.5915 0.0
C1036 C 0.2526 0.10111 0.58446 0.0
C1037 C 0.2365 0.07507 0.58469 0.0
C1038 C 0.24975 0.0504 0.58996 0.0
C1039 C 0.27899 0.05219 0.5953 0.0
C1040 C 0.29461 0.07768 0.5966 0.0
C1041 C 0.32617 0.0742 0.59916 0.0
C1042 C 0.34306 0.08786 0.57529 0.0
C1043 C 0.33748 0.08569 0.62683 0.0
C1044 C 0.32616 0.04286 0.59761 0.0
C1045 C 0.29884 0.03026 0.59594 0.0
C1046 C 0.29414 0.00141 0.59201 0.0
C1047 C 0.31798 0.98527 0.58926 0.0
C1048 C 0.34593 -0.00175 0.58998 0.0
C1049 C 0.34984 0.0272 0.59482 0.0
H1050 H 0.21268 0.08059 0.7664 0.0
H1051 H 0.18633 0.05487 0.84724 0.0
H1052 H 0.23713 0.05455 0.86095 0.0
H1053 H 0.28445 0.04765 0.76311 0.0
H1054 H 0.30066 0.07791 0.74653 0.0
H1055 H 0.26365 0.06709 0.74045 0.0
H1056 H 0.24913 0.1161 0.75531 0.0
H1057 H 0.28589 0.12701 0.7609 0.0
H1058 H 0.26037 0.13031 0.78818 0.0
H1059 H 0.28957 0.06405 0.86784 0.0
H1060 H 0.33471 0.09324 0.87133 0.0
H1061 H 0.32585 0.11854 0.78802 0.0
C1062 C 0.21782 0.07387 0.78666 0.0
C1063 C 0.19602 0.06715 0.80569 0.0
C1064 C 0.20301 0.05963 0.83238 0.0
C1065 C 0.23175 0.0591 0.84014 0.0
C1066 C 0.25302 0.06652 0.82102 0.0
C1067 C 0.24626 0.07422 0.79489 0.0
C1068 C 0.27202 0.08749 0.78023 0.0
C1069 C 0.28071 0.06892 0.75616 0.0
C1070 C 0.26652 0.11696 0.77065 0.0
C1071 C 0.29389 0.08816 0.80289 0.0
C1072 C 0.28306 0.07436 0.82565 0.0
C1073 C 0.29835 0.07452 0.85001 0.0
C1074 C 0.32413 0.09101 0.85184 0.0
C1075 C 0.33355 0.108 0.82998 0.0
C1076 C 0.31927 0.10516 0.80474 0.0
H1077 H 0.18752 0.94932 0.04865 0.0
H1078 H 0.2752 0.98259 0.05893 0.0
H1079 H 0.2582 0.0268 0.0769 0.0
H1080 H 0.16005 0.0108 0.02592 0.0
H1081 H 0.1265 0.00563 0.04373 0.0
H1082 H 0.14553 0.97607 0.03319 0.0
H1083 H 0.14552 0.95887 0.08302 0.0
H1084 H 0.12609 0.98815 0.09367 0.0
H1085 H 0.1594 0.98209 0.10986 0.0
H1086 H 0.23134 0.06861 0.09031 0.0
H1087 H 0.19668 0.10312 0.1024 0.0
H1088 H 0.12704 0.0412 0.08472 0.0
C1089 C 0.20314 0.96577 0.05501 0.0
C1090 C 0.23261 0.96261 0.05244 0.0
C1091 C 0.25246 0.9846 0.06087 0.0
C1092 C 0.24304 0.0098 0.07098 0.0
C1093 C 0.21377 0.01248 0.07265 0.0
C1094 C 0.19414 0.99091 0.06525 0.0
C1095 C 0.1639 -0.00089 0.06873 0.0
C1096 C 0.14807 -0.00217 0.04126 0.0
C1097 C 0.14779 0.98098 0.0901 0.0
C1098 C 0.16955 0.02876 0.07896 0.0
C1099 C 0.19841 0.0362 0.08097 0.0
C1100 C 0.20867 0.06291 0.08915 0.0
C1101 C 0.18881 0.08235 0.09598 0.0
C1102 C 0.15912 0.07476 0.09501 0.0
C1103 C 0.14955 0.04768 0.08598 0.0
H1104 H 0.18655 0.35505 0.07081 0.0
H1105 H 0.23637 0.32465 0.00318 0.0
H1106 H 0.21534 0.27693 0.01084 0.0
H1107 H 0.19856 0.30467 0.11373 0.0
H1108 H 0.16379 0.30203 0.12959 0.0
H1109 H 0.17681 0.33406 0.11445 0.0
H1110 H 0.13184 0.33288 0.08372 0.0
H1111 H 0.11862 0.30069 0.09898 0.0
H1112 H 0.12263 0.30261 0.06246 0.0
H1113 H 0.19477 0.23144 0.03092 0.0
H1114 H 0.18015 0.19391 0.06329 0.0
H1115 H 0.14613 0.25488 0.11816 0.0
C1116 C 0.19246 0.33855 0.05703 0.0
C1117 C 0.21308 0.34367 0.03638 0.0
C1118 C 0.22042 0.32134 0.01903 0.0
C1119 C 0.20847 0.29414 0.02315 0.0
C1120 C 0.18895 0.28967 0.04444 0.0
C1121 C 0.18087 0.31144 0.06094 0.0
C1122 C 0.16288 0.3011 0.08476 0.0
C1123 C 0.17634 0.31103 0.11222 0.0
C1124 C 0.13217 0.30984 0.08232 0.0
C1125 C 0.16391 0.27009 0.08037 0.0
C1126 C 0.178 0.26369 0.05647 0.0
C1127 C 0.18334 0.23624 0.04944 0.0
C1128 C 0.17503 0.21508 0.06786 0.0
C1129 C 0.16236 0.22185 0.09311 0.0
C1130 C 0.15586 0.24941 0.09888 0.0
H1131 H 0.66915 0.23871 0.00465 0.0
H1132 H 0.75634 0.24199 0.97505 0.0
H1133 H 0.7494 0.28634 0.95244 0.0
H1134 H 0.63927 0.25845 0.94488 0.0
H1135 H 0.61273 0.27916 0.96011 0.0
H1136 H 0.62623 0.25135 0.97889 0.0
H1137 H 0.63891 0.28617 0.01782 0.0
H1138 H 0.62917 0.31604 -0.00086 0.0
H1139 H 0.66462 0.31514 0.01242 0.0
H1140 H 0.73253 0.32716 0.92997 0.0
H1141 H 0.7042 0.35343 0.89876 0.0
H1142 H 0.62659 0.32248 0.93905 0.0
C1143 C 0.68665 0.24893 0.99336 0.0
C1144 C 0.71313 0.23701 0.99113 0.0
C1145 C 0.73573 0.2507 0.9764 0.0
C1146 C 0.73216 0.27615 0.96405 0.0
C1147 C 0.7058 0.28754 0.96654 0.0
C1148 C 0.68319 0.27405 0.98024 0.0
C1149 C 0.65595 0.28849 0.97615 0.0
C1150 C 0.63216 0.26816 0.96429 0.0
C1151 C 0.64658 0.30221 0.00299 0.0
C1152 C 0.6662 0.31048 0.95593 0.0
C1153 C 0.69545 0.31072 0.9522 0.0
C1154 C 0.70973 0.32752 0.933 0.0
C1155 C 0.6935 0.34266 0.91555 0.0
C1156 C 0.66341 0.34024 0.917 0.0
C1157 C 0.64966 0.32536 0.93837 0.0
H1158 H 0.08283 0.4938 0.20057 0.0
H1159 H 0.05195 0.47677 0.28247 0.0
H1160 H 0.00401 0.46225 0.26382 0.0
H1161 H 0.02102 0.52142 0.175 0.0
H1162 H 0.02394 0.50556 0.14157 0.0
H1163 H 0.05552 0.51401 0.16158 0.0
H1164 H 0.06899 0.46276 0.15762 0.0
H1165 H 0.03767 0.45423 0.13726 0.0
H1166 H 0.04345 0.43515 0.16778 0.0
H1167 H 0.95814 0.45283 0.23519 0.0
H1168 H 0.92132 0.44293 0.19936 0.0
H1169 H 0.98485 0.46456 0.13731 0.0
C1170 C 0.06607 0.4868 0.21461 0.0
C1171 C 0.07094 0.48662 0.24293 0.0
C1172 C 0.04856 0.47711 0.26065 0.0
C1173 C 0.02128 0.46897 0.25025 0.0
C1174 C 0.01702 0.4701 0.22213 0.0
C1175 C 0.03907 0.47829 0.20461 0.0
C1176 C 0.02957 0.47721 0.17524 0.0
C1177 C 0.0327 0.50628 0.16262 0.0
C1178 C 0.04588 0.45607 0.1585 0.0
C1179 C -0.00138 0.4673 0.17882 0.0
C1180 C 0.99149 0.46357 0.20593 0.0
C1181 C 0.96364 0.45524 0.21386 0.0
C1182 C 0.94292 0.44957 0.19341 0.0
C1183 C 0.95021 0.45251 0.16548 0.0
C1184 C 0.9784 0.46189 0.15839 0.0
H1185 H 0.75722 0.8413 0.43546 0.0
H1186 H 0.84022 0.87356 0.46482 0.0
H1187 H 0.8615 0.8312 0.44704 0.0
H1188 H 0.76584 0.77 0.45348 0.0
H1189 H 0.74665 0.7554 0.42419 0.0
H1190 H 0.73814 0.78863 0.43836 0.0
H1191 H 0.74699 0.81142 0.3913 0.0
H1192 H 0.755 0.77818 0.37694 0.0
H1193 H 0.7805 0.80775 0.37398 0.0
H1194 H 0.87411 0.78639 0.42298 0.0
H1195 H 0.87642 0.74255 0.39592 0.0
H1196 H 0.78467 0.73736 0.38696 0.0
C1197 C 0.77995 0.83959 0.43776 0.0
C1198 C 0.79721 0.86089 0.45106 0.0
C1199 C 0.8267 0.85758 0.45441 0.0
C1200 C 0.83894 0.83355 0.44449 0.0
C1201 C 0.82127 0.81271 0.4318 0.0
C1202 C 0.79237 0.81544 0.42858 0.0
C1203 C 0.77795 0.78977 0.41478 0.0
C1204 C 0.75584 0.77509 0.43384 0.0
C1205 C 0.76432 0.79723 0.38764 0.0
C1206 C 0.80333 0.77245 0.41015 0.0
C1207 C 0.82817 0.78604 0.42005 0.0
C1208 C 0.85467 0.77517 0.41591 0.0
C1209 C 0.8558 0.75002 0.40094 0.0
C1210 C 0.8306 0.73569 0.39095 0.0
C1211 C 0.8041 0.74711 0.39575 0.0
H1212 H 0.92859 0.09779 0.22225 0.0
H1213 H 0.95198 0.02729 0.26871 0.0
H1214 H 0.00295 0.04106 0.261 0.0
H1215 H 0.97664 0.09427 0.17198 0.0
H1216 H 0.98495 0.13115 0.16845 0.0
H1217 H 0.95108 0.11874 0.18219 0.0
H1218 H 0.96083 0.14969 0.22558 0.0
H1219 H -0.00494 0.16198 0.21191 0.0
H1220 H 0.99286 0.14632 0.245 0.0
H1221 H 0.05037 0.05611 0.23878 0.0
H1222 H 0.08831 0.0724 0.20615 0.0
H1223 H 0.03513 0.13603 0.179 0.0
C1224 C 0.94448 0.08581 0.23153 0.0
C1225 C 0.93627 0.0615 0.24604 0.0
C1226 C 0.9577 0.04617 0.25771 0.0
C1227 C 0.98679 0.05386 0.25347 0.0
C1228 C 0.99423 0.07748 0.23828 0.0
C1229 C 0.97361 0.09366 0.22813 0.0
C1230 C 0.9869 0.11665 0.21058 0.0
C1231 C 0.97415 0.11507 0.1816 0.0
C1232 C 0.98372 0.14536 0.22408 0.0
C1233 C 0.01779 0.10952 0.21057 0.0
C1234 C 0.02188 0.08716 0.227 0.0
C1235 C 0.04773 0.0743 0.22669 0.0
C1236 C 0.06933 0.08377 0.2083 0.0
C1237 C 0.06481 0.10588 0.1907 0.0
C1238 C 0.03936 0.11966 0.19298 0.0
H1239 H 0.32291 0.75295 0.50705 0.0
H1240 H 0.24738 0.73217 0.55546 0.0
H1241 H 0.24213 0.78162 0.56501 0.0
H1242 H 0.34981 0.79781 0.55938 0.0
H1243 H 0.36902 0.82224 0.53747 0.0
H1244 H 0.36258 0.78658 0.52645 0.0
H1245 H 0.33827 0.80277 0.48263 0.0
H1246 H 0.3454 0.83846 0.49392 0.0
H1247 H 0.3095 0.82551 0.48569 0.0
H1248 H 0.24496 0.83238 0.57049 0.0
H1249 H 0.26589 0.87592 0.59117 0.0
H1250 H 0.34617 0.86369 0.55046 0.0
C1251 C 0.30499 0.759 0.51922 0.0
C1252 C 0.28417 0.73876 0.52872 0.0
C1253 C 0.26225 0.74723 0.54616 0.0
C1254 C 0.25909 0.77543 0.55169 0.0
C1255 C 0.27915 0.79504 0.54108 0.0
C1256 C 0.3027 0.78711 0.52669 0.0
C1257 C 0.32517 0.8113 0.52472 0.0
C1258 C 0.3533 0.80399 0.53782 0.0
C1259 C 0.32984 0.82 0.49496 0.0
C1260 C 0.31093 0.83364 0.54115 0.0
C1261 C 0.28354 0.8242 0.54855 0.0
C1262 C 0.26635 0.84006 0.56489 0.0
C1263 C 0.27834 0.86498 0.57629 0.0
C1264 C 0.30759 0.87308 0.57239 0.0
C1265 C 0.32356 0.85832 0.55313 0.0
H1266 H 0.05135 0.61072 0.27821 0.0
H1267 H 0.05136 0.52466 0.30243 0.0
H1268 H 0.00499 0.52834 0.32548 0.0
H1269 H 0.02513 0.63509 0.34232 0.0
H1270 H 0.00358 0.66078 0.32836 0.0
H1271 H 0.0348 0.65092 0.31022 0.0
H1272 H 0.00404 0.63957 0.26805 0.0
H1273 H 0.97119 0.64639 0.28534 0.0
H1274 H 0.97504 0.61301 0.26938 0.0
H1275 H 0.95928 0.54036 0.34517 0.0
H1276 H 0.9238 0.56316 0.3731 0.0
H1277 H 0.95484 0.64345 0.3424 0.0
C1278 C 0.04156 0.59284 0.2886 0.0
C1279 C 0.05476 0.56731 0.28859 0.0
C1280 C 0.04155 0.54434 0.30239 0.0
C1281 C 0.01505 0.54614 0.31517 0.0
C1282 C 0.00223 0.5713 0.31447 0.0
C1283 C 0.01541 0.59459 0.30249 0.0
C1284 C -0.00163 0.61989 0.30786 0.0
C1285 C 0.01655 0.64304 0.32309 0.0
C1286 C 0.98652 0.63036 0.28106 0.0
C1287 C 0.97437 0.60734 0.32572 0.0
C1288 C 0.9764 0.57896 0.32791 0.0
C1289 C 0.95742 0.56254 0.34364 0.0
C1290 C 0.93711 0.57565 0.3592 0.0
C1291 C 0.93634 0.60496 0.35957 0.0
C1292 C 0.95437 0.62096 0.34174 0.0
H1293 H 0.46495 0.4955 0.77338 0.0
H1294 H 0.40604 0.43559 0.81255 0.0
H1295 H 0.4466 0.4122 0.83145 0.0
H1296 H 0.52719 0.44904 0.76318 0.0
H1297 H 0.55278 0.47729 0.77245 0.0
H1298 H 0.52049 0.48424 0.75484 0.0
H1299 H 0.50762 0.51895 0.79295 0.0
H1300 H 0.53983 0.51279 0.81061 0.0
H1301 H 0.50593 0.50775 0.82786 0.0
H1302 H 0.49126 0.4016 0.85329 0.0
H1303 H 0.53566 0.40732 0.88012 0.0
H1304 H 0.56595 0.47625 0.82997 0.0
C1305 C 0.46087 0.47664 0.78489 0.0
C1306 C 0.43276 0.46665 0.79107 0.0
C1307 C 0.42766 0.44297 0.80731 0.0
C1308 C 0.45054 0.42953 0.81789 0.0
C1309 C 0.47825 0.44039 0.81231 0.0
C1310 C 0.48351 0.46356 0.79627 0.0
C1311 C 0.51444 0.47466 0.79805 0.0
C1312 C 0.52963 0.47108 0.7705 0.0
C1313 C 0.51708 0.50532 0.80798 0.0
C1314 C 0.52525 0.4554 0.8191 0.0
C1315 C 0.50435 0.43502 0.82613 0.0
C1316 C 0.50809 0.41684 0.84739 0.0
C1317 C 0.53337 0.42012 0.86244 0.0
C1318 C 0.5544 0.4415 0.85623 0.0
C1319 C 0.55055 0.45902 0.83411 0.0
H1320 H 0.96335 0.8549 0.71234 0.0
H1321 H 0.94188 0.76591 0.71645 0.0
H1322 H 0.93511 0.77014 0.76597 0.0
H1323 H -0.00223 0.86442 0.78089 0.0
H1324 H 0.98185 0.89679 0.78788 0.0
H1325 H 0.99019 0.88686 0.75323 0.0
H1326 H 0.93771 0.8914 0.73877 0.0
H1327 H 0.92973 0.9023 0.77305 0.0
H1328 H 0.90938 0.87304 0.75753 0.0
H1329 H 0.92575 0.78356 0.8135 0.0
H1330 H 0.90438 0.80664 0.85315 0.0
H1331 H 0.93017 0.88692 0.81994 0.0
C1332 C 0.95746 0.83636 0.72379 0.0
C1333 C 0.95325 0.81009 0.7105 0.0
C1334 C 0.94503 0.78634 0.72607 0.0
C1335 C 0.94163 0.78841 0.75437 0.0
C1336 C 0.94614 0.81446 0.76698 0.0
C1337 C 0.95324 0.83816 0.7522 0.0
C1338 C 0.95245 0.86405 0.77027 0.0
C1339 C 0.98235 0.8789 0.77324 0.0
C1340 C 0.93103 0.88384 0.75926 0.0
C1341 C 0.94243 0.85119 0.79703 0.0
C1342 C 0.94005 0.82246 0.7949 0.0
C1343 C 0.92814 0.806 0.81571 0.0
C1344 C 0.91638 0.81924 0.83839 0.0
C1345 C 0.91646 0.84856 0.83991 0.0
C1346 C 0.93107 0.86463 0.8198 0.0
H1347 H 0.95645 0.24044 0.4304 0.0
H1348 H 0.00376 0.30964 0.47095 0.0
H1349 H 0.98436 0.2947 0.51531 0.0
H1350 H 0.8937 0.23456 0.47855 0.0
H1351 H 0.89223 0.19706 0.47746 0.0
H1352 H 0.90453 0.21648 0.44808 0.0
H1353 H 0.95156 0.19139 0.44813 0.0
H1354 H 0.93945 0.17204 0.47749 0.0
H1355 H 0.97303 0.19263 0.47859 0.0
H1356 H 0.96349 0.27047 0.55563 0.0
H1357 H 0.94686 0.23549 0.58962 0.0
H1358 H 0.91739 0.17903 0.52402 0.0
C1359 C 0.96186 0.2528 0.44859 0.0
C1360 C 0.98083 0.27675 0.44729 0.0
C1361 C 0.98858 0.29178 0.47155 0.0
C1362 C 0.97766 0.28342 0.49685 0.0
C1363 C 0.9594 0.25948 0.49769 0.0
C1364 C 0.95179 0.24411 0.4743 0.0
C1365 C 0.93538 0.21701 0.48148 0.0
C1366 C 0.90463 0.21625 0.47075 0.0
C1367 C 0.95079 0.19179 0.47079 0.0
C1368 C 0.93602 0.2192 0.51238 0.0
C1369 C 0.94914 0.24427 0.52129 0.0
C1370 C 0.95298 0.2508 0.54896 0.0
C1371 C 0.94355 0.23089 0.5681 0.0
C1372 C 0.93115 0.20468 0.5593 0.0
C1373 C 0.92702 0.19895 0.53116 0.0
H1374 H 0.51919 0.23442 0.22333 0.0
H1375 H 0.59198 0.24238 0.16864 0.0
H1376 H 0.6245 0.2395 0.20792 0.0
H1377 H 0.55201 0.27159 0.28283 0.0
H1378 H 0.53576 0.24775 0.30719 0.0
H1379 H 0.51783 0.25359 0.27558 0.0
H1380 H 0.51551 0.20017 0.26322 0.0
H1381 H 0.53157 0.19537 0.29595 0.0
H1382 H 0.54812 0.18256 0.26548 0.0
H1383 H 0.64868 0.23556 0.25192 0.0
H1384 H 0.66423 0.22105 0.29646 0.0
H1385 H 0.57586 0.20982 0.32341 0.0
C1386 C 0.54202 0.23571 0.21982 0.0
C1387 C 0.55333 0.23883 0.19316 0.0
C1388 C 0.58313 0.23998 0.18899 0.0
C1389 C 0.60166 0.23867 0.21116 0.0
C1390 C 0.58994 0.23578 0.23726 0.0
C1391 C 0.56084 0.23363 0.2417 0.0
C1392 C 0.55399 0.2275 0.27144 0.0
C1393 C 0.53901 0.25155 0.28506 0.0
C1394 C 0.53615 0.19974 0.27414 0.0
C1395 C 0.58379 0.2256 0.28279 0.0
C1396 C 0.60407 0.23152 0.26279 0.0
C1397 C 0.63302 0.23073 0.26771 0.0
C1398 C 0.64158 0.22237 0.2933 0.0
C1399 C 0.62128 0.21387 0.31366 0.0
C1400 C 0.59193 0.21623 0.30847 0.0
H1401 H 0.49979 0.85994 0.93246 0.0
H1402 H 0.57874 0.83186 0.89914 0.0
H1403 H 0.59844 0.83043 0.94573 0.0
H1404 H 0.53132 0.90421 0.98553 0.0
H1405 H 0.50278 0.89561 0.0093 0.0
H1406 H 0.4959 0.89413 0.97323 0.0
H1407 H 0.47543 0.84332 0.97833 0.0
H1408 H 0.48402 0.84342 0.01418 0.0
H1409 H 0.49776 0.81782 0.99126 0.0
H1410 H 0.61022 0.83427 -0.00435 0.0
H1411 H 0.61531 0.84922 0.04382 0.0
H1412 H 0.52735 0.87084 0.04505 0.0
C1413 C 0.52142 0.85401 0.9349 0.0
C1414 C 0.53786 0.84625 0.91221 0.0
C1415 C 0.56588 0.83809 0.91631 0.0
C1416 C 0.57711 0.83688 0.94268 0.0
C1417 C 0.55992 0.84365 0.96472 0.0
C1418 C 0.53284 0.85242 0.96106 0.0
C1419 C 0.51909 0.85948 0.98802 0.0
C1420 C 0.51187 0.89017 0.98908 0.0
C1421 C 0.49248 0.83985 0.99328 0.0
C1422 C 0.54303 0.85413 0.00741 0.0
C1423 C 0.56627 0.84462 0.99362 0.0
C1424 C 0.59196 0.84108 0.00682 0.0
C1425 C 0.59454 0.84911 0.03443 0.0
C1426 C 0.57154 0.86047 0.04846 0.0
C1427 C 0.54508 0.86159 0.03503 0.0
H1428 H 0.957 0.26995 0.82489 0.0
H1429 H 0.01039 0.20101 0.83476 0.0
H1430 H 0.00318 0.18769 0.78609 0.0
H1431 H 0.90552 0.23405 0.78343 0.0
H1432 H 0.89953 0.26366 0.76282 0.0
H1433 H 0.91172 0.26888 0.79736 0.0
H1434 H 0.95482 0.30034 0.77987 0.0
H1435 H 0.94319 0.29453 0.74509 0.0
H1436 H 0.97865 0.28672 0.75486 0.0
H1437 H 0.98891 0.1815 0.73587 0.0
H1438 H 0.9614 0.17753 0.69273 0.0
H1439 H 0.91592 0.24884 0.71741 0.0
C1440 C 0.96726 0.25207 0.81686 0.0
C1441 C 0.98441 0.23664 0.83364 0.0
C1442 C -0.00279 0.21323 0.8223 0.0
C1443 C 0.9935 0.20569 0.79458 0.0
C1444 C 0.97684 0.2217 0.77847 0.0
C1445 C 0.96359 0.24415 0.78939 0.0
C1446 C 0.94469 0.2565 0.76861 0.0
C1447 C 0.91353 0.2557 0.77865 0.0
C1448 C 0.95602 0.28629 0.7617 0.0
C1449 C 0.94823 0.23671 0.74465 0.0
C1450 C 0.96761 0.21736 0.7503 0.0
C1451 C 0.97352 0.19645 0.73139 0.0
C1452 C 0.95783 0.19424 0.70693 0.0
C1453 C 0.9359 0.2121 0.70205 0.0
C1454 C 0.9323 0.23453 0.72057 0.0
H1455 H 0.58696 0.23132 0.56416 0.0
H1456 H 0.53606 0.29816 0.53991 0.0
H1457 H 0.54194 0.28455 0.49148 0.0
H1458 H 0.6353 0.23183 0.50429 0.0
H1459 H 0.63493 0.19447 0.50081 0.0
H1460 H 0.6312 0.21067 0.53403 0.0
H1461 H 0.58355 0.18288 0.54326 0.0
H1462 H 0.58734 0.16472 0.5112 0.0
H1463 H 0.55545 0.18236 0.51829 0.0
H1464 H 0.54745 0.2605 0.44683 0.0
H1465 H 0.54843 0.22505 0.4097 0.0
H1466 H 0.59481 0.17274 0.4618 0.0
C1467 C 0.57789 0.24352 0.5485 0.0
C1468 C 0.56154 0.26611 0.55559 0.0
C1469 C 0.54895 0.281 0.53476 0.0
C1470 C 0.55227 0.27349 0.50722 0.0
C1471 C 0.56798 0.25077 0.50079 0.0
C1472 C 0.58047 0.23586 0.5208 0.0
C1473 C 0.59301 0.21019 0.50857 0.0
C1474 C 0.62555 0.21188 0.51212 0.0
C1475 C 0.57899 0.18347 0.52106 0.0
C1476 C 0.58488 0.21262 0.47878 0.0
C1477 C 0.57096 0.23652 0.47469 0.0
C1478 C 0.55884 0.24201 0.44959 0.0
C1479 C 0.55972 0.22195 0.4285 0.0
C1480 C 0.57264 0.19682 0.43266 0.0
C1481 C 0.58607 0.19247 0.4578 0.0
H1482 H 0.53402 0.81892 0.30036 0.0
H1483 H 0.60917 0.78073 0.32832 0.0
H1484 H 0.6356 0.7972 0.28758 0.0
H1485 H 0.54103 0.80179 0.23143 0.0
H1486 H 0.53013 0.83386 0.21778 0.0
H1487 H 0.51735 0.8226 0.25075 0.0
H1488 H 0.53706 0.86927 0.27281 0.0
H1489 H 0.54937 0.8809 0.23978 0.0
H1490 H 0.57402 0.88092 0.26785 0.0
H1491 H 0.65155 0.81074 0.24245 0.0
H1492 H 0.66099 0.82952 0.19715 0.0
H1493 H 0.57704 0.86212 0.19654 0.0
C1494 C 0.55642 0.81526 0.29836 0.0
C1495 C 0.56994 0.79915 0.31769 0.0
C1496 C 0.59881 0.79354 0.31398 0.0
C1497 C 0.61385 0.80258 0.29081 0.0
C1498 C 0.59971 0.81727 0.27151 0.0
C1499 C 0.57193 0.82431 0.27514 0.0
C1500 C 0.56192 0.83953 0.25032 0.0
C1501 C 0.53608 0.82348 0.23678 0.0
C1502 C 0.5552 0.86944 0.25816 0.0
C1503 C 0.58829 0.83928 0.23213 0.0
C1504 C 0.60952 0.82602 0.24495 0.0
C1505 C 0.63541 0.82178 0.23241 0.0
C1506 C 0.64048 0.83252 0.20653 0.0
C1507 C 0.61998 0.84781 0.19332 0.0
C1508 C 0.59314 0.85062 0.20605 0.0
H1509 H 0.95381 0.84375 0.08652 0.0
H1510 H 0.96123 0.76386 0.04625 0.0
H1511 H 0.93912 0.78142 0.0045 0.0
H1512 H 0.88474 0.85962 0.05392 0.0
H1513 H 0.89623 0.89608 0.05256 0.0
H1514 H 0.90819 0.87527 0.07983 0.0
H1515 H 0.96077 0.89019 0.06752 0.0
H1516 H 0.94903 0.91081 0.04023 0.0
H1517 H 0.97335 0.88424 0.03322 0.0
H1518 H 0.92329 0.81189 0.9644 0.0
H1519 H 0.91471 0.85045 0.93279 0.0
H1520 H 0.91561 0.90793 0.00193 0.0
C1521 C 0.94983 0.82969 0.0692 0.0
C1522 C 0.95876 0.80248 0.06954 0.0
C1523 C 0.95387 0.78468 0.04644 0.0
C1524 C 0.94145 0.79454 0.02266 0.0
C1525 C 0.9335 0.82198 0.0227 0.0
C1526 C 0.93705 0.839 0.04575 0.0
C1527 C 0.92908 0.86817 0.04051 0.0
C1528 C 0.903 0.87518 0.05773 0.0
C1529 C 0.95457 0.88958 0.04566 0.0
C1530 C 0.92173 0.86549 0.01061 0.0
C1531 C 0.92403 0.83879 0.0004 0.0
C1532 C 0.92085 0.83269 0.97241 0.0
C1533 C 0.91592 0.8546 0.95457 0.0
C1534 C 0.91447 0.88206 0.96499 0.0
C1535 C 0.9165 0.88708 0.99337 0.0
H1536 H 0.70837 0.98872 0.77829 0.0
H1537 H 0.67485 0.01102 0.85762 0.0
H1538 H 0.71806 0.99449 0.87956 0.0
H1539 H 0.73588 0.92761 0.79493 0.0
H1540 H 0.76708 0.93217 0.77349 0.0
H1541 H 0.73539 0.94879 0.76503 0.0
H1542 H 0.76459 -0.00337 0.76496 0.0
H1543 H 0.79639 0.98003 0.77386 0.0
H1544 H 0.78466 0.00824 0.79482 0.0
H1545 H 0.76084 0.9676 0.89229 0.0
H1546 H 0.79736 0.93339 0.89432 0.0
H1547 H 0.80557 0.93398 0.80651 0.0
C1548 C 0.71018 0.99028 0.80031 0.0
C1549 C 0.68816 0.00057 0.8164 0.0
C1550 C 0.69148 0.00292 0.84503 0.0
C1551 C 0.71601 0.9938 0.85757 0.0
C1552 C 0.73728 0.98336 0.84101 0.0
C1553 C 0.73464 0.98201 0.81292 0.0
C1554 C 0.75933 0.96853 0.79952 0.0
C1555 C 0.74878 0.94275 0.78226 0.0
C1556 C 0.77731 0.98962 0.78227 0.0
C1557 C 0.77548 0.96067 0.82448 0.0
C1558 C 0.76283 0.9698 0.8483 0.0
C1559 C 0.77167 0.96142 0.87383 0.0
C1560 C 0.79303 0.94242 0.87492 0.0
C1561 C 0.80563 0.93245 0.85069 0.0
C1562 C 0.79727 0.94243 0.82535 0.0
H1563 H 0.78317 0.98118 0.55254 0.0
H1564 H 0.79692 0.00397 0.46809 0.0
H1565 H 0.80835 0.0529 0.48273 0.0
H1566 H 0.75304 0.0476 0.57384 0.0
H1567 H 0.76993 0.04973 0.60661 0.0
H1568 H 0.75911 0.01615 0.59159 0.0
H1569 H 0.80937 -0.00124 0.59344 0.0
H1570 H 0.82132 0.03042 0.61108 0.0
H1571 H 0.83924 0.0201 0.58031 0.0
H1572 H 0.82452 0.09765 0.50685 0.0
H1573 H 0.8498 0.13188 0.53804 0.0
H1574 H 0.82589 0.08021 0.60671 0.0
C1575 C 0.78816 -0.00345 0.53709 0.0
C1576 C 0.78922 0.98876 0.50918 0.0
C1577 C 0.79605 0.00945 0.4896 0.0
C1578 C 0.80227 0.03736 0.49772 0.0
C1579 C 0.80129 0.04434 0.52547 0.0
C1580 C 0.79446 0.02445 0.54484 0.0
C1581 C 0.7976 0.03669 0.57346 0.0
C1582 C 0.7682 0.03754 0.58721 0.0
C1583 C 0.8181 0.02055 0.59055 0.0
C1584 C 0.80993 0.06585 0.5673 0.0
C1585 C 0.81059 0.07028 0.53947 0.0
C1586 C 0.82345 0.09468 0.52868 0.0
C1587 C 0.83749 0.11421 0.54656 0.0
C1588 C 0.83892 0.109 0.57479 0.0
C1589 C 0.82394 0.08515 0.58537 0.0
H1590 H 0.80883 0.05745 0.3293 0.0
H1591 H 0.76268 0.03379 0.2551 0.0
H1592 H 0.71737 0.04129 0.27798 0.0
H1593 H 0.74866 0.0339 0.37991 0.0
H1594 H 0.75678 0.06422 0.40139 0.0
H1595 H 0.78492 0.04851 0.38281 0.0
H1596 H 0.79972 0.09564 0.36022 0.0
H1597 H 0.7724 0.11136 0.37943 0.0
H1598 H 0.77309 0.11372 0.34274 0.0
H1599 H 0.67882 0.06068 0.30389 0.0
H1600 H 0.65362 0.09795 0.32668 0.0
H1601 H 0.72237 0.11072 0.38479 0.0
C1602 C 0.78904 0.05301 0.31831 0.0
C1603 C 0.78932 0.04468 0.29056 0.0
C1604 C 0.76308 0.03996 0.27647 0.0
C1605 C 0.73707 0.04384 0.28942 0.0
C1606 C 0.73735 0.05279 0.31658 0.0
C1607 C 0.7627 0.05759 0.33087 0.0
C1608 C 0.75765 0.07265 0.35771 0.0
C1609 C 0.76227 0.05368 0.38189 0.0
C1610 C 0.77681 0.09996 0.36012 0.0
C1611 C 0.72628 0.07792 0.35491 0.0
C1612 C 0.71456 0.06492 0.33175 0.0
C1613 C 0.68739 0.07032 0.32251 0.0
C1614 C 0.67294 0.09131 0.33575 0.0
C1615 C 0.68604 0.10678 0.35755 0.0
C1616 C 0.71175 0.09844 0.36857 0.0
H1617 H 0.67037 0.1029 0.03164 0.0
H1618 H 0.74677 0.09863 0.0801 0.0
H1619 H 0.73446 0.04849 0.08762 0.0
H1620 H 0.62623 0.06041 0.07592 0.0
H1621 H 0.60469 0.04445 0.04875 0.0
H1622 H 0.62144 0.0789 0.04484 0.0
H1623 H 0.64566 0.06244 0.00027 0.0
H1624 H 0.62945 0.02772 0.00443 0.0
H1625 H 0.66765 0.03328 0.00109 0.0
H1626 H 0.71424 -0.00121 0.08892 0.0
H1627 H 0.68238 0.95617 0.09369 0.0
H1628 H 0.61642 0.99447 0.04913 0.0
C1629 C 0.68441 0.09128 0.04381 0.0
C1630 C 0.70948 0.10429 0.05529 0.0
C1631 C 0.72732 0.08883 0.07139 0.0
C1632 C 0.72073 0.06035 0.07541 0.0
C1633 C 0.69595 0.04794 0.06356 0.0
C1634 C 0.67765 0.06308 0.04876 0.0
C1635 C 0.65077 0.04558 0.041 0.0
C1636 C 0.62422 0.05807 0.05338 0.0
C1637 C 0.64825 0.04205 0.00984 0.0
C1638 C 0.65659 0.01839 0.05415 0.0
C1639 C 0.6832 0.01989 0.0662 0.0
C1640 C 0.69327 -0.00258 0.07974 0.0
C1641 C 0.67505 0.97325 0.08226 0.0
C1642 C 0.64681 0.97219 0.07215 0.0
C1643 C 0.6379 0.99472 0.05711 0.0
H1644 H 0.70854 0.05354 0.68712 0.0
H1645 H 0.71404 0.06792 0.77481 0.0
H1646 H 0.7648 0.08287 0.77028 0.0
H1647 H 0.78376 0.03002 0.68143 0.0
H1648 H 0.7913 0.04638 0.64936 0.0
H1649 H 0.75557 0.03205 0.65688 0.0
H1650 H 0.73309 0.07836 0.64969 0.0
H1651 H 0.76737 0.09315 0.63904 0.0
H1652 H 0.74843 0.10966 0.66628 0.0
H1653 H 0.81087 0.10516 0.75604 0.0
H1654 H 0.8481 0.13449 0.73244 0.0
H1655 H 0.81555 0.10359 0.65436 0.0
C1656 C 0.72056 0.05942 0.70539 0.0
C1657 C 0.70712 0.05982 0.73124 0.0
C1658 C 0.72367 0.06754 0.75469 0.0
C1659 C 0.75269 0.07581 0.75241 0.0
C1660 C 0.76518 0.07569 0.72663 0.0
C1661 C 0.74978 0.06741 0.70353 0.0
C1662 C 0.76786 0.07156 0.67806 0.0
C1663 C 0.77498 0.04332 0.66567 0.0
C1664 C 0.75333 0.08925 0.65706 0.0
C1665 C 0.79437 0.08671 0.69017 0.0
C1666 C 0.79289 0.08772 0.71838 0.0
C1667 C 0.81286 0.1037 0.73406 0.0
C1668 C 0.834 0.1202 0.72055 0.0
C1669 C 0.83498 0.12043 0.69176 0.0
C1670 C 0.81582 0.10261 0.67642 0.0
H1671 H 0.71823 0.99203 0.45349 0.0
H1672 H 0.65636 0.95651 0.51115 0.0
H1673 H 0.62145 0.98912 0.49636 0.0
H1674 H 0.7034 0.06105 0.46552 0.0
H1675 H 0.70792 0.07221 0.43077 0.0
H1676 H 0.72659 0.04341 0.44263 0.0
H1677 H 0.70441 0.01187 0.40352 0.0
H1678 H 0.6862 0.04093 0.39146 0.0
H1679 H 0.66623 0.00873 0.39929 0.0
H1680 H 0.59491 0.02765 0.47848 0.0
H1681 H 0.57742 0.06926 0.4575 0.0
H1682 H 0.65721 0.08192 0.41277 0.0
C1683 C 0.69691 0.99051 0.46212 0.0
C1684 C 0.6895 0.97137 0.48287 0.0
C1685 C 0.66202 0.97069 0.49479 0.0
C1686 C 0.64216 0.98918 0.4866 0.0
C1687 C 0.65031 0.00844 0.4667 0.0
C1688 C 0.67693 0.0092 0.45443 0.0
C1689 C 0.68097 0.03352 0.43521 0.0
C1690 C 0.70621 0.05374 0.44408 0.0
C1691 C 0.68467 0.02315 0.40561 0.0
C1692 C 0.65273 0.04656 0.4391 0.0
C1693 C 0.63529 0.03153 0.45711 0.0
C1694 C 0.60827 0.0395 0.4642 0.0
C1695 C 0.59856 0.06324 0.45223 0.0
C1696 C 0.61594 0.07897 0.43359 0.0
C1697 C 0.6435 0.07053 0.42715 0.0
H1698 H 0.81028 -0.00178 0.19693 0.0
H1699 H 0.78177 0.96698 0.2756 0.0
H1700 H 0.73199 0.96499 0.26011 0.0
H1701 H 0.74513 0.03734 0.18146 0.0
H1702 H 0.74581 0.02678 0.14597 0.0
H1703 H 0.7787 0.03216 0.16482 0.0
H1704 H 0.79187 0.982 0.15221 0.0
H1705 H 0.75975 0.97723 0.13259 0.0
H1706 H 0.76648 0.9531 0.15909 0.0
H1707 H 0.68668 0.9602 0.23517 0.0
H1708 H 0.65263 0.94178 0.2001 0.0
H1709 H 0.70931 0.97479 0.13699 0.0
C1710 C 0.79344 0.99141 0.21095 0.0
C1711 C 0.79986 0.98289 0.23743 0.0
C1712 C 0.77739 0.97351 0.25511 0.0
C1713 C 0.74895 0.97279 0.24669 0.0
C1714 C 0.7432 0.98152 0.2205 0.0
C1715 C 0.76487 0.99018 0.2027 0.0
C1716 C 0.75347 0.99355 0.17423 0.0
C1717 C 0.75592 0.02429 0.16615 0.0
C1718 C 0.76877 0.97537 0.15333 0.0
C1719 C 0.72252 0.98327 0.17838 0.0
C1720 C 0.71668 0.97791 0.20555 0.0
C1721 C 0.69071 0.96485 0.21393 0.0
C1722 C 0.67126 0.95471 0.19388 0.0
C1723 C 0.67846 0.95711 0.16599 0.0
C1724 C 0.7032 0.97344 0.15826 0.0
H1725 H 0.78255 0.09864 0.93891 0.0
H1726 H 0.76094 0.07713 0.02227 0.0
H1727 H 0.76982 0.02825 0.01229 0.0
H1728 H 0.75679 0.02838 0.90609 0.0
H1729 H 0.78656 0.02946 0.88273 0.0
H1730 H 0.77176 0.06135 0.89388 0.0
H1731 H 0.82164 0.08078 0.91082 0.0
H1732 H 0.8365 0.04918 0.8995 0.0
H1733 H 0.84078 0.06088 0.93452 0.0
H1734 H 0.78852 0.98457 -0.00336 0.0
H1735 H 0.81934 0.94969 0.977 0.0
H1736 H 0.83085 -0.00173 0.90394 0.0
C1737 C 0.77888 0.08332 0.95466 0.0
C1738 C 0.7709 0.09141 0.98128 0.0
C1739 C 0.76706 0.0712 0.00176 0.0
C1740 C 0.77176 0.04334 -0.0038 0.0
C1741 C 0.78046 0.03597 0.97002 0.0
C1742 C 0.78407 0.05531 0.94951 0.0
C1743 C 0.79784 0.04268 0.92454 0.0
C1744 C 0.77699 0.04033 0.90038 0.0
C1745 C 0.82585 0.05936 0.91693 0.0
C1746 C 0.80322 0.0141 0.93503 0.0
C1747 C 0.792 0.01033 0.96094 0.0
C1748 C 0.79672 0.98687 0.97607 0.0
C1749 C 0.81416 0.96717 0.96483 0.0
C1750 C 0.82665 0.97121 0.93887 0.0
C1751 C 0.82059 0.9945 0.92349 0.0
H1752 H 0.72866 0.7259 0.95934 0.0
H1753 H 0.78821 0.71154 0.02412 0.0
H1754 H 0.81728 0.75444 0.01143 0.0
H1755 H 0.77959 0.74966 0.91069 0.0
H1756 H 0.75733 0.7749 0.8969 0.0
H1757 H 0.74126 0.74399 0.91227 0.0
H1758 H 0.71275 0.77442 0.94594 0.0
H1759 H 0.72859 0.80505 0.92972 0.0
H1760 H 0.73186 0.80138 0.96602 0.0
H1761 H 0.84025 0.79956 0.99004 0.0
H1762 H 0.85618 0.83869 0.96004 0.0
H1763 H 0.78038 0.82164 0.91067 0.0
C1764 C 0.74778 0.73167 0.971 0.0
C1765 C 0.75616 0.7153 0.99271 0.0
C1766 C 0.78147 0.72365 0.00724 0.0
C1767 C 0.79796 0.74811 0.00034 0.0
C1768 C 0.78878 0.76392 0.97892 0.0
C1769 C 0.7643 0.75579 0.96445 0.0
C1770 C 0.75928 0.77538 0.94162 0.0
C1771 C 0.75939 0.76007 0.91373 0.0
C1772 C 0.73146 0.78989 0.94612 0.0
C1773 C 0.78505 0.79564 0.94503 0.0
C1774 C 0.80177 0.78913 0.9668 0.0
C1775 C 0.82719 0.80481 0.97302 0.0
C1776 C 0.83604 0.82707 0.95599 0.0
C1777 C 0.81967 0.83302 0.9329 0.0
C1778 C 0.7935 0.81753 0.92805 0.0
H1779 H 0.26266 0.82215 0.02581 0.0
H1780 H 0.34371 0.87042 0.02033 0.0
H1781 H 0.36829 0.83013 0.03719 0.0
H1782 H 0.27222 0.79367 0.08554 0.0
H1783 H 0.25477 0.75987 0.07791 0.0
H1784 H 0.24523 0.78953 0.05943 0.0
H1785 H 0.2568 0.76466 0.01372 0.0
H1786 H 0.26638 0.7347 0.0322 0.0
H1787 H 0.2914 0.75141 0.00867 0.0
H1788 H 0.38131 0.78984 0.06524 0.0
H1789 H 0.382 0.75298 0.09956 0.0
H1790 H 0.29288 0.72991 0.08437 0.0
C1791 C 0.28572 0.82386 0.02735 0.0
C1792 C 0.30143 0.84918 0.02198 0.0
C1793 C 0.33146 0.85099 0.02422 0.0
C1794 C 0.3455 0.8282 0.03369 0.0
C1795 C 0.32916 0.80372 0.03996 0.0
C1796 C 0.29992 0.80129 0.03628 0.0
C1797 C 0.28658 0.77431 0.04739 0.0
C1798 C 0.26337 0.7797 0.06884 0.0
C1799 C 0.27459 0.75513 0.0241 0.0
C1800 C 0.31247 0.76288 0.06007 0.0
C1801 C 0.33701 0.77975 0.05503 0.0
C1802 C 0.36258 0.77583 0.06831 0.0
C1803 C 0.36289 0.75467 0.0876 0.0
C1804 C 0.33784 0.73777 0.09335 0.0
C1805 C 0.31262 0.74154 0.07899 0.0
H1806 H 0.91909 0.53167 0.7974 0.0
H1807 H 0.92841 0.59624 0.73698 0.0
H1808 H 0.97813 0.60777 0.75182 0.0
H1809 H 0.95511 0.57152 0.84934 0.0
H1810 H 0.97132 0.54256 0.86415 0.0
H1811 H 0.93819 0.53683 0.84602 0.0
H1812 H 0.96107 0.50063 0.81442 0.0
H1813 H 0.99443 0.50667 0.83237 0.0
H1814 H 0.99328 0.51072 0.79593 0.0
H1815 H 0.02586 0.61373 0.77448 0.0
H1816 H 0.06484 0.6197 0.80822 0.0
H1817 H 0.02313 0.55429 0.85656 0.0
C1818 C 0.93175 0.54805 0.7872 0.0
C1819 C 0.92001 0.56306 0.76604 0.0
C1820 C 0.93699 0.58465 0.75339 0.0
C1821 C 0.96535 0.59109 0.76143 0.0
C1822 C 0.97636 0.57594 0.78237 0.0
C1823 C 0.95991 0.55524 0.79547 0.0
C1824 C 0.97565 0.54462 0.81964 0.0
C1825 C 0.95909 0.54917 0.84636 0.0
C1826 C 0.98145 0.51383 0.81532 0.0
C1827 C 0.00312 0.56314 0.81856 0.0
C1828 C 0.00349 0.58037 0.79635 0.0
C1829 C 0.02604 0.60015 0.79172 0.0
C1830 C 0.04815 0.60334 0.81093 0.0
C1831 C 0.04702 0.58752 0.83493 0.0
C1832 C 0.02471 0.56648 0.83822 0.0
H1833 H 0.19987 0.23547 0.53148 0.0
H1834 H 0.13716 0.18572 0.57737 0.0
H1835 H 0.10924 0.22719 0.58436 0.0
H1836 H 0.20626 0.29084 0.56814 0.0
H1837 H 0.20841 0.31648 0.54174 0.0
H1838 H 0.21788 0.28191 0.53419 0.0
H1839 H 0.1804 0.27797 0.49481 0.0
H1840 H 0.17035 0.31283 0.50287 0.0
H1841 H 0.14381 0.28405 0.50213 0.0
H1842 H 0.09452 0.27558 0.59428 0.0
H1843 H 0.09981 0.32368 0.6125 0.0
H1844 H 0.17184 0.34157 0.55924 0.0
C1845 C 0.1795 0.2329 0.54159 0.0
C1846 C 0.17022 0.20732 0.55316 0.0
C1847 C 0.14424 0.20511 0.56785 0.0
C1848 C 0.12817 0.22851 0.57166 0.0
C1849 C 0.13812 0.25373 0.56011 0.0
C1850 C 0.16312 0.25585 0.54505 0.0
C1851 C 0.17163 0.28575 0.53808 0.0
C1852 C 0.20284 0.29421 0.54605 0.0
C1853 C 0.1663 0.29044 0.50766 0.0
C1854 C 0.1504 0.3006 0.55528 0.0
C1855 C 0.12988 0.28184 0.56618 0.0
C1856 C 0.11001 0.29042 0.58527 0.0
C1857 C 0.11288 0.31802 0.59525 0.0
C1858 C 0.13616 0.33622 0.58699 0.0
C1859 C 0.15346 0.32816 0.56516 0.0
H1860 H 0.03935 0.05537 0.82936 0.0
H1861 H 0.05636 -0.00173 0.76258 0.0
H1862 H 0.01077 0.97095 0.77272 0.0
H1863 H 0.01197 0.00598 0.87495 0.0
H1864 H 0.98616 0.02818 0.88922 0.0
H1865 H 0.01864 0.04331 0.87465 0.0
H1866 H 0.98894 0.07218 0.84252 0.0
H1867 H 0.95627 0.05652 0.85662 0.0
H1868 H 0.96268 0.05454 0.82036 0.0
H1869 H 0.96285 0.94903 0.79253 0.0
H1870 H 0.92342 0.93208 0.82338 0.0
H1871 H 0.94049 0.00443 0.87593 0.0
C1872 C 0.03365 0.03723 0.8166 0.0
C1873 C 0.05158 0.02902 0.79514 0.0
C1874 C 0.04308 0.00495 0.77923 0.0
C1875 C 0.01707 0.9895 0.78467 0.0
C1876 C -0.00023 -0.00142 0.80587 0.0
C1877 C 0.00803 0.02186 0.82161 0.0
C1878 C 0.98721 0.02667 0.84442 0.0
C1879 C 0.00187 0.02596 0.87245 0.0
C1880 C 0.97293 0.05411 0.84074 0.0
C1881 C 0.96623 0.00188 0.83986 0.0
C1882 C 0.97322 0.9861 0.81723 0.0
C1883 C 0.95734 0.96132 0.81025 0.0
C1884 C 0.93499 0.95179 0.8278 0.0
C1885 C 0.92952 0.96658 0.85226 0.0
C1886 C 0.94431 0.99263 0.85737 0.0
H1887 H 0.66928 0.34809 0.47599 0.0
H1888 H 0.74774 0.32581 0.51336 0.0
H1889 H 0.73478 0.27634 0.50328 0.0
H1890 H 0.62299 0.2846 0.49359 0.0
H1891 H 0.60624 0.2841 0.46046 0.0
H1892 H 0.61963 0.3166 0.47582 0.0
H1893 H 0.64957 0.32596 0.43154 0.0
H1894 H 0.63652 0.29277 0.41741 0.0
H1895 H 0.67439 0.30107 0.42058 0.0
H1896 H 0.71607 0.23043 0.48687 0.0
H1897 H 0.69749 0.19169 0.45681 0.0
H1898 H 0.6317 0.24226 0.42787 0.0
C1899 C 0.68337 0.33266 0.48246 0.0
C1900 C 0.70928 0.34067 0.49589 0.0
C1901 C 0.72768 0.32007 0.50331 0.0
C1902 C 0.72034 0.29188 0.49798 0.0
C1903 C 0.69462 0.28455 0.48491 0.0
C1904 C 0.67669 0.3043 0.47663 0.0
C1905 C 0.6526 0.29107 0.45924 0.0
C1906 C 0.62364 0.29425 0.47316 0.0
C1907 C 0.65334 0.30345 0.43049 0.0
C1908 C 0.66022 0.26094 0.45858 0.0
C1909 C 0.68415 0.25765 0.47419 0.0
C1910 C 0.69705 0.23252 0.47493 0.0
C1911 C 0.68627 0.21057 0.45802 0.0
C1912 C 0.66286 0.21395 0.44074 0.0
C1913 C 0.64894 0.23898 0.44179 0.0
H1914 H 0.95085 0.51278 0.71575 0.0
H1915 H 0.90571 0.43146 0.70867 0.0
H1916 H 0.95184 0.40979 0.70391 0.0
H1917 H -0.00135 0.50593 0.66731 0.0
H1918 H 0.02841 0.5245 0.68434 0.0
H1919 H 0.9928 0.53163 0.69365 0.0
H1920 H 0.00389 0.5207 0.74391 0.0
H1921 H 0.03961 0.51279 0.73441 0.0
H1922 H 0.01669 0.48746 0.75213 0.0
H1923 H -0.00015 0.39946 0.68746 0.0
H1924 H 0.04305 0.4022 0.65893 0.0
H1925 H 0.05964 0.4887 0.68219 0.0
C1926 C 0.95086 0.49034 0.71371 0.0
C1927 C 0.92506 0.47368 0.71202 0.0
C1928 C 0.92548 0.44444 0.70979 0.0
C1929 C 0.95155 0.43202 0.70743 0.0
C1930 C 0.97685 0.44911 0.70845 0.0
C1931 C 0.97664 0.47767 0.71206 0.0
C1932 C 0.00613 0.49192 0.70893 0.0
C1933 C 0.00649 0.51477 0.68725 0.0
C1934 C 0.01723 0.50391 0.73649 0.0
C1935 C 0.02246 0.46735 0.69977 0.0
C1936 C 0.0055 0.44261 0.70064 0.0
C1937 C 0.01384 0.41831 0.68783 0.0
C1938 C 0.03878 0.41986 0.67193 0.0
C1939 C 0.05511 0.44543 0.66932 0.0
C1940 C 0.04804 0.46871 0.68507 0.0
H1941 H 0.54968 0.55574 0.18098 0.0
H1942 H 0.56686 0.62856 0.23331 0.0
H1943 H 0.5178 0.64256 0.22484 0.0
H1944 H 0.51574 0.58613 0.13097 0.0
H1945 H 0.49036 0.55701 0.12395 0.0
H1946 H 0.52409 0.5512 0.1388 0.0
H1947 H 0.49769 0.52596 0.17912 0.0
H1948 H 0.46376 0.5324 0.16432 0.0
H1949 H 0.47187 0.54377 0.19885 0.0
H1950 H 0.46852 0.65093 0.20562 0.0
H1951 H 0.43042 0.6571 0.17151 0.0
H1952 H 0.44793 0.57916 0.1325 0.0
C1953 C 0.54315 0.57454 0.19094 0.0
C1954 C 0.56209 0.59126 0.20753 0.0
C1955 C 0.55261 0.61556 0.22034 0.0
C1956 C 0.5247 0.6234 0.21597 0.0
C1957 C 0.50651 0.60631 0.1993 0.0
C1958 C 0.51557 0.58235 0.18705 0.0
C1959 C 0.49382 0.56916 0.16738 0.0
C1960 C 0.50677 0.56573 0.1386 0.0
C1961 C 0.48103 0.54117 0.17806 0.0
C1962 C 0.47213 0.59079 0.16838 0.0
C1963 C 0.47892 0.61143 0.18783 0.0
C1964 C 0.46319 0.63492 0.19032 0.0
C1965 C 0.44184 0.6385 0.17088 0.0
C1966 C 0.43777 0.61948 0.14882 0.0
C1967 C 0.45115 0.59427 0.14907 0.0
H1968 H 0.54392 0.71874 0.8178 0.0
H1969 H 0.49487 0.7791 0.77839 0.0
H1970 H 0.50121 0.75535 0.734 0.0
H1971 H 0.59559 0.71967 0.77252 0.0
H1972 H 0.60244 0.68334 0.77325 0.0
H1973 H 0.58664 0.69939 0.8023 0.0
H1974 H 0.54259 0.66292 0.80029 0.0
H1975 H 0.56033 0.64635 0.77244 0.0
H1976 H 0.52433 0.65634 0.76827 0.0
H1977 H 0.52308 0.73279 0.69327 0.0
H1978 H 0.55869 0.71439 0.66132 0.0
H1979 H 0.5929 0.66862 0.72726 0.0
C1980 C 0.53355 0.72622 0.79996 0.0
C1981 C 0.5185 0.75042 0.80154 0.0
C1982 C 0.50571 0.76007 0.77775 0.0
C1983 C 0.50931 0.74671 0.75239 0.0
C1984 C 0.5254 0.72348 0.75128 0.0
C1985 C 0.53696 0.71309 0.77461 0.0
C1986 C 0.55726 0.69105 0.7678 0.0
C1987 C 0.58722 0.69887 0.77964 0.0
C1988 C 0.54537 0.66247 0.77775 0.0
C1989 C 0.55711 0.6922 0.737 0.0
C1990 C 0.53802 0.71038 0.72766 0.0
C1991 C 0.53743 0.71782 0.70021 0.0
C1992 C 0.55764 0.70732 0.68217 0.0
C1993 C 0.57824 0.69011 0.692 0.0
C1994 C 0.57699 0.68149 0.71931 0.0
H1995 H 0.52272 0.28174 0.04228 0.0
H1996 H 0.53951 0.34172 0.10864 0.0
H1997 H 0.55679 0.37692 0.07521 0.0
H1998 H 0.58172 0.29949 0.00223 0.0
H1999 H 0.56453 0.29702 0.96932 0.0
H2000 H 0.55059 0.27613 -0.00292 0.0
H2001 H 0.50136 0.29524 0.99411 0.0
H2002 H 0.51349 0.31517 0.96501 0.0
H2003 H 0.49822 0.33232 0.99404 0.0
H2004 H 0.57312 0.40472 0.03552 0.0
H2005 H 0.58732 0.42493 0.99168 0.0
H2006 H 0.56073 0.34699 0.94987 0.0
C2007 C 0.5301 0.30228 0.04983 0.0
C2008 C 0.53013 0.30897 0.07815 0.0
C2009 C 0.53939 0.33618 0.08711 0.0
C2010 C 0.54923 0.35624 0.06827 0.0
C2011 C 0.54925 0.34881 0.04059 0.0
C2012 C 0.53965 0.32262 0.03131 0.0
C2013 C 0.54179 0.32014 0.00041 0.0
C2014 C 0.56082 0.29683 0.99173 0.0
C2015 C 0.51194 0.31545 0.98764 0.0
C2016 C 0.55541 0.34877 0.99383 0.0
C2017 C 0.55894 0.36498 0.01739 0.0
C2018 C 0.57037 0.39232 0.01693 0.0
C2019 C 0.57827 0.40361 0.99178 0.0
C2020 C 0.57498 0.38765 0.96716 0.0
C2021 C 0.56359 0.35968 0.96827 0.0
H2022 H 0.96213 0.36786 0.29624 0.0
H2023 H 0.93537 0.28007 0.30109 0.0
H2024 H 0.91936 0.2799 0.25317 0.0
H2025 H 0.90292 0.38615 0.26161 0.0
H2026 H 0.92105 0.41202 0.24051 0.0
H2027 H 0.93581 0.40424 0.27295 0.0
H2028 H 0.98264 0.39484 0.24909 0.0
H2029 H 0.96901 0.39888 0.21512 0.0
H2030 H 0.98378 0.36699 0.22405 0.0
H2031 H 0.90317 0.28948 0.20695 0.0
H2032 H 0.87591 0.31005 0.17075 0.0
H2033 H 0.90956 0.39242 0.19597 0.0
C2034 C 0.95304 0.34862 0.28704 0.0
C2035 C 0.94989 0.32397 0.30218 0.0
C2036 C 0.93763 0.29922 0.28981 0.0
C2037 C 0.92903 0.29881 0.26247 0.0
C2038 C 0.93266 0.32339 0.24791 0.0
C2039 C 0.94369 0.34802 0.25994 0.0
C2040 C 0.94121 0.37231 0.24112 0.0
C2041 C 0.92424 0.395 0.25485 0.0
C2042 C 0.97092 0.38398 0.23186 0.0
C2043 C 0.92507 0.35784 0.2175 0.0
C2044 C 0.92191 0.32936 0.22124 0.0
C2045 C 0.90582 0.31165 0.20357 0.0
C2046 C 0.89062 0.32349 0.18288 0.0
C2047 C 0.89111 0.35272 0.18049 0.0
C2048 C 0.90982 0.37002 0.19685 0.0
H2049 H 0.97689 0.74295 0.5676 0.0
H2050 H 0.90778 0.7973 0.57762 0.0
H2051 H 0.89177 0.78534 0.5304 0.0
H2052 H 0.99254 0.76158 0.49591 0.0
H2053 H 0.00205 0.72691 0.48738 0.0
H2054 H 0.0079 0.74084 0.52147 0.0
H2055 H 0.97774 0.69825 0.54081 0.0
H2056 H 0.97189 0.68456 0.50676 0.0
H2057 H 0.94185 0.69043 0.52861 0.0
H2058 H 0.87935 0.76063 0.48507 0.0
H2059 H 0.87408 0.72854 0.44529 0.0
H2060 H 0.95721 0.69945 0.46085 0.0
C2061 C 0.95868 0.75271 0.5598 0.0
C2062 C 0.94354 0.77101 0.57622 0.0
C2063 C 0.91964 0.78318 0.56528 0.0
C2064 C 0.9105 0.77662 0.53849 0.0
C2065 C 0.92618 0.75868 0.52269 0.0
C2066 C 0.9501 0.74737 0.53285 0.0
C2067 C 0.96319 0.72851 0.512 0.0
C2068 C 0.99322 0.74017 0.50372 0.0
C2069 C 0.96367 0.69868 0.52268 0.0
C2070 C 0.94229 0.73006 0.48881 0.0
C2071 C 0.92091 0.74738 0.49534 0.0
C2072 C 0.89678 0.74831 0.47898 0.0
C2073 C 0.89423 0.73065 0.4558 0.0
C2074 C 0.91611 0.71318 0.44856 0.0
C2075 C 0.94074 0.71361 0.46503 0.0
H2076 H 0.51543 0.28805 0.70893 0.0
H2077 H 0.53013 0.36906 0.67264 0.0
H2078 H 0.53788 0.39051 0.71872 0.0
H2079 H 0.48154 0.30861 0.77204 0.0
H2080 H 0.5001 0.28533 0.79286 0.0
H2081 H 0.49273 0.2764 0.75761 0.0
H2082 H 0.54617 0.2712 0.74764 0.0
H2083 H 0.55351 0.27857 0.78311 0.0
H2084 H 0.57202 0.29906 0.75727 0.0
H2085 H 0.54696 0.40243 0.76783 0.0
H2086 H 0.56544 0.40344 0.81453 0.0
H2087 H 0.54659 0.31438 0.81962 0.0
C2088 C 0.5204 0.31026 0.71073 0.0
C2089 C 0.52243 0.32701 0.68741 0.0
C2090 C 0.52879 0.356 0.6904 0.0
C2091 C 0.53286 0.36831 0.71646 0.0
C2092 C 0.53067 0.35122 0.73918 0.0
C2093 C 0.52523 0.32272 0.73651 0.0
C2094 C 0.52747 0.30864 0.76375 0.0
C2095 C 0.49873 0.29389 0.77205 0.0
C2096 C 0.55121 0.28818 0.7629 0.0
C2097 C 0.53534 0.33368 0.7822 0.0
C2098 C 0.53635 0.35808 0.76768 0.0
C2099 C 0.54552 0.38361 0.7796 0.0
C2100 C 0.55544 0.3841 0.80652 0.0
C2101 C 0.55624 0.35924 0.82138 0.0
C2102 C 0.54513 0.33386 0.80923 0.0
H2103 H 0.94017 0.29235 0.95433 0.0
H2104 H 0.03006 0.30813 0.97243 0.0
H2105 H 0.01817 0.32674 0.018 0.0
H2106 H 0.92176 0.35604 0.98137 0.0
H2107 H 0.88739 0.3438 -0.0054 0.0
H2108 H 0.90249 0.32604 0.966 0.0
H2109 H 0.89725 0.28002 0.99224 0.0
H2110 H 0.88295 0.29748 0.02161 0.0
H2111 H 0.9139 0.27786 0.02513 0.0
H2112 H -0.00253 0.34747 0.05921 0.0
H2113 H 0.96968 0.37667 0.08987 0.0
H2114 H 0.893 0.35194 0.04441 0.0
C2115 C 0.95719 0.29915 0.96828 0.0
C2116 C 0.98604 0.29822 0.96038 0.0
C2117 C 0.00788 0.30822 0.9785 0.0
C2118 C 0.00132 0.31865 0.00445 0.0
C2119 C 0.97271 0.31946 0.01179 0.0
C2120 C 0.95092 0.31053 0.99408 0.0
C2121 C 0.92222 0.31806 0.00531 0.0
C2122 C 0.90762 0.33712 0.98566 0.0
C2123 C 0.90294 0.29178 0.01142 0.0
C2124 C 0.93147 0.33341 0.03152 0.0
C2125 C 0.96059 0.33304 0.03528 0.0
C2126 C 0.97458 0.34749 0.05682 0.0
C2127 C 0.95865 0.36383 0.07427 0.0
C2128 C 0.92919 0.36576 0.06989 0.0
C2129 C 0.91528 0.34981 0.04875 0.0
H2130 H 0.96873 0.72686 0.18032 0.0
H2131 H 0.05159 0.73453 0.21972 0.0
H2132 H 0.02944 0.71797 0.26261 0.0
H2133 H 0.93076 0.75265 0.23399 0.0
H2134 H 0.89921 0.72947 0.22949 0.0
H2135 H 0.92189 0.73792 0.20074 0.0
H2136 H 0.92795 0.68552 0.19109 0.0
H2137 H 0.90475 0.67685 0.21952 0.0
H2138 H 0.93995 0.66426 0.21801 0.0
H2139 H -0.003 0.70648 0.30316 0.0
H2140 H 0.95745 0.69649 0.33612 0.0
H2141 H 0.89677 0.69636 0.26958 0.0
C2142 C 0.98242 0.72419 0.19765 0.0
C2143 C 0.01195 0.73193 0.19645 0.0
C2144 C 0.02891 0.72862 0.21994 0.0
C2145 C 0.01653 0.71929 0.24452 0.0
C2146 C 0.98716 0.71306 0.24532 0.0
C2147 C 0.97042 0.71489 0.22235 0.0
C2148 C 0.93919 0.70859 0.22893 0.0
C2149 C 0.92176 0.73365 0.22294 0.0
C2150 C 0.92726 0.68223 0.21347 0.0
C2151 C 0.94091 0.70372 0.25926 0.0
C2152 C 0.9687 0.70628 0.26846 0.0
C2153 C 0.97517 0.70396 0.2961 0.0
C2154 C 0.95262 0.69831 0.31468 0.0
C2155 C 0.924 0.69556 0.30551 0.0
C2156 C 0.91835 0.69832 0.27739 0.0
H2157 H 0.58708 0.70697 0.43072 0.0
H2158 H 0.54307 0.77666 0.46313 0.0
H2159 H 0.5589 0.76629 0.50954 0.0
H2160 H 0.56729 0.66152 0.47879 0.0
H2161 H 0.60031 0.64474 0.48058 0.0
H2162 H 0.59124 0.66168 0.44992 0.0
H2163 H 0.63913 0.69205 0.45237 0.0
H2164 H 0.64815 0.67518 0.48338 0.0
H2165 H 0.64784 0.71256 0.48277 0.0
H2166 H 0.57077 0.7423 0.55312 0.0
H2167 H 0.57574 0.70626 0.58799 0.0
H2168 H 0.61346 0.65378 0.52725 0.0
C2169 C 0.58151 0.7206 0.44746 0.0
C2170 C 0.56387 0.74263 0.44318 0.0
C2171 C 0.5568 0.75978 0.46575 0.0
C2172 C 0.56581 0.75411 0.49226 0.0
C2173 C 0.58243 0.7316 0.4959 0.0
C2174 C 0.59056 0.71538 0.47395 0.0
C2175 C 0.60538 0.69042 0.48337 0.0
C2176 C 0.59012 0.663 0.47255 0.0
C2177 C 0.637 0.69271 0.47497 0.0
C2178 C 0.6022 0.69379 0.51398 0.0
C2179 C 0.58975 0.71811 0.52103 0.0
C2180 C 0.58134 0.72365 0.54793 0.0
C2181 C 0.58439 0.70322 0.56771 0.0
C2182 C 0.59549 0.67767 0.56024 0.0
C2183 C 0.60569 0.6736 0.53348 0.0
H2184 H 0.82812 0.58159 0.67354 0.0
H2185 H 0.78201 0.50057 0.67501 0.0
H2186 H 0.73767 0.5219 0.66176 0.0
H2187 H 0.77933 0.61743 0.7049 0.0
H2188 H 0.78444 0.64874 0.68538 0.0
H2189 H 0.81308 0.62633 0.68846 0.0
H2190 H 0.81683 0.62184 0.63574 0.0
H2191 H 0.78826 0.64462 0.63243 0.0
H2192 H 0.78558 0.61067 0.61611 0.0
H2193 H 0.69658 0.55438 0.65743 0.0
H2194 H 0.66491 0.59365 0.66114 0.0
H2195 H 0.73927 0.65209 0.66196 0.0
C2196 C 0.80891 0.56821 0.67008 0.0
C2197 C 0.80843 0.53953 0.67509 0.0
C2198 C 0.78286 0.52261 0.67082 0.0
C2199 C 0.75758 0.53458 0.66337 0.0
C2200 C 0.75848 0.56334 0.65978 0.0
C2201 C 0.78378 0.57976 0.66245 0.0
C2202 C 0.77906 0.61031 0.66047 0.0
C2203 C 0.78958 0.62663 0.68634 0.0
C2204 C 0.79328 0.62258 0.63465 0.0
C2205 C 0.74697 0.60883 0.65821 0.0
C2206 C 0.73526 0.58167 0.65722 0.0
C2207 C 0.70565 0.57567 0.65766 0.0
C2208 C 0.68779 0.59801 0.65968 0.0
C2209 C 0.6998 0.62574 0.66167 0.0
C2210 C 0.72961 0.63103 0.6602 0.0
H2211 H 0.70755 0.55493 0.01143 0.0
H2212 H 0.73324 0.5966 0.93703 0.0
H2213 H 0.73678 0.5509 0.9136 0.0
H2214 H 0.74569 0.48726 -0.00103 0.0
H2215 H 0.71541 0.46698 0.01267 0.0
H2216 H 0.72481 0.50157 0.02608 0.0
H2217 H 0.67374 0.51591 0.01607 0.0
H2218 H 0.6643 0.4814 0.00346 0.0
H2219 H 0.65954 0.51075 0.98207 0.0
H2220 H 0.72853 0.50272 0.89616 0.0
H2221 H 0.69782 0.46082 0.88342 0.0
H2222 H 0.67326 0.45021 0.96762 0.0
C2223 C 0.715 0.55418 0.99049 0.0
C2224 C 0.72069 0.57891 0.976 0.0
C2225 C 0.72921 0.57766 0.9484 0.0
C2226 C 0.7316 0.55181 0.93512 0.0
C2227 C 0.72509 0.52751 0.94972 0.0
C2228 C 0.71654 0.52856 0.9768 0.0
C2229 C 0.70413 0.50042 0.98608 0.0
C2230 C 0.72368 0.48835 0.0072 0.0
C2231 C 0.67364 0.50225 -0.00247 0.0
C2232 C 0.70445 0.48401 0.95935 0.0
C2233 C 0.71839 0.49945 0.93909 0.0
C2234 C 0.7181 0.49023 0.9119 0.0
C2235 C 0.70088 0.46621 0.90481 0.0
C2236 C 0.68353 0.45247 0.92463 0.0
C2237 C 0.6872 0.45999 0.9524 0.0
H2238 H 0.68257 0.49214 0.21914 0.0
H2239 H 0.70264 0.5705 0.17893 0.0
H2240 H 0.7498 0.5544 0.16496 0.0
H2241 H 0.7537 0.48455 0.24505 0.0
H2242 H 0.75022 0.44727 0.24034 0.0
H2243 H 0.71909 0.46602 0.2474 0.0
H2244 H 0.69503 0.44454 0.20336 0.0
H2245 H 0.72606 0.42577 0.19644 0.0
H2246 H 0.71337 0.44851 0.17112 0.0
H2247 H 0.79475 0.52734 0.15417 0.0
H2248 H 0.83008 0.492 0.14588 0.0
H2249 H 0.77869 0.4338 0.19542 0.0
C2250 C 0.69676 0.50596 0.2073 0.0
C2251 C 0.68887 0.53236 0.19977 0.0
C2252 C 0.70829 0.55002 0.1847 0.0
C2253 C 0.73514 0.54113 0.17686 0.0
C2254 C 0.74229 0.51484 0.18484 0.0
C2255 C 0.72353 0.49769 0.19985 0.0
C2256 C 0.73547 0.47025 0.20562 0.0
C2257 C 0.73988 0.46684 0.23643 0.0
C2258 C 0.71636 0.44584 0.19339 0.0
C2259 C 0.76359 0.47405 0.19078 0.0
C2260 C 0.76756 0.49989 0.17907 0.0
C2261 C 0.79175 0.50707 0.16329 0.0
C2262 C 0.81166 0.48687 0.15861 0.0
C2263 C 0.8069 0.45984 0.16936 0.0
C2264 C 0.78309 0.45407 0.18655 0.0
H2265 H 0.75508 0.51089 0.50573 0.0
H2266 H 0.77593 0.4536 0.44053 0.0
H2267 H 0.79531 0.49334 0.41309 0.0
H2268 H 0.73822 0.57036 0.46343 0.0
H2269 H 0.7555 0.59572 0.48657 0.0
H2270 H 0.73931 0.56349 0.49943 0.0
H2271 H 0.78707 0.55289 0.52166 0.0
H2272 H 0.80332 0.58516 0.50924 0.0
H2273 H 0.81889 0.55289 0.50093 0.0
H2274 H 0.81502 0.53787 0.39441 0.0
H2275 H 0.84108 0.58333 0.38793 0.0
H2276 H 0.81072 0.61256 0.46619 0.0
C2277 C 0.7633 0.50689 0.48544 0.0
C2278 C 0.7637 0.4794 0.47486 0.0
C2279 C 0.77536 0.47461 0.44874 0.0
C2280 C 0.78611 0.49704 0.43301 0.0
C2281 C 0.78537 0.52398 0.44395 0.0
C2282 C 0.77477 0.529 0.46978 0.0
C2283 C 0.77994 0.55948 0.47813 0.0
C2284 C 0.75154 0.57306 0.48212 0.0
C2285 C 0.79841 0.56279 0.50401 0.0
C2286 C 0.79585 0.57075 0.45321 0.0
C2287 C 0.79785 0.54996 0.43347 0.0
C2288 C 0.81305 0.55444 0.4094 0.0
C2289 C 0.82751 0.58045 0.40576 0.0
C2290 C 0.82653 0.60191 0.42583 0.0
C2291 C 0.81038 0.59706 0.44987 0.0
H2292 H 0.75944 0.52517 0.78707 0.0
H2293 H 0.7859 0.46914 0.7229 0.0
H2294 H 0.74467 0.43649 0.73266 0.0
H2295 H 0.73991 0.47402 0.8345 0.0
H2296 H 0.70972 0.49136 0.84756 0.0
H2297 H 0.73906 0.51131 0.8323 0.0
H2298 H 0.70207 0.53142 0.79986 0.0
H2299 H 0.67353 0.50962 0.81475 0.0
H2300 H 0.67997 0.50792 0.77849 0.0
H2301 H 0.70523 0.40769 0.75188 0.0
H2302 H 0.6709 0.38225 0.7818 0.0
H2303 H 0.66951 0.45504 0.83552 0.0
C2304 C 0.75603 0.50628 0.77481 0.0
C2305 C 0.77574 0.49952 0.75432 0.0
C2306 C 0.77109 0.47449 0.73886 0.0
C2307 C 0.74759 0.45597 0.74403 0.0
C2308 C 0.72888 0.46273 0.76479 0.0
C2309 C 0.73273 0.48718 0.78004 0.0
C2310 C 0.71107 0.48764 0.80311 0.0
C2311 C 0.72588 0.49124 0.831 0.0
C2312 C 0.69044 0.51051 0.79878 0.0
C2313 C 0.6959 0.45887 0.79945 0.0
C2314 C 0.70598 0.44539 0.7766 0.0
C2315 C 0.69683 0.41808 0.76964 0.0
C2316 C 0.67742 0.40375 0.78689 0.0
C2317 C 0.66756 0.41659 0.81106 0.0
C2318 C 0.67637 0.4448 0.817 0.0
H2319 H 0.80208 0.60657 0.0829 0.0
H2320 H 0.72022 0.55917 0.07899 0.0
H2321 H 0.74384 0.51613 0.0887 0.0
H2322 H 0.83934 0.56139 0.04738 0.0
H2323 H 0.87194 0.56614 0.0667 0.0
H2324 H 0.84818 0.59368 0.06569 0.0
H2325 H 0.84486 0.59491 0.11854 0.0
H2326 H 0.8692 0.56768 0.1198 0.0
H2327 H 0.83492 0.56331 0.13642 0.0
H2328 H 0.77823 0.47708 0.09095 0.0
H2329 H 0.81941 0.44731 0.08816 0.0
H2330 H 0.87744 0.52134 0.08957 0.0
C2331 C 0.78897 0.58732 0.08509 0.0
C2332 C 0.75938 0.5862 0.08033 0.0
C2333 C 0.74294 0.56055 0.08295 0.0
C2334 C 0.7562 0.53596 0.08835 0.0
C2335 C 0.78578 0.53755 0.09146 0.0
C2336 C 0.80182 0.56278 0.0905 0.0
C2337 C 0.83338 0.55895 0.09177 0.0
C2338 C 0.8491 0.57072 0.06638 0.0
C2339 C 0.84634 0.57198 0.11821 0.0
C2340 C 0.83278 0.52761 0.09209 0.0
C2341 C 0.80525 0.51543 0.09238 0.0
C2342 C 0.79985 0.48647 0.09112 0.0
C2343 C 0.82325 0.46972 0.08956 0.0
C2344 C 0.85142 0.48217 0.08871 0.0
C2345 C 0.85605 0.51135 0.09025 0.0
H2346 H 0.70018 0.56386 0.26583 0.0
H2347 H 0.65604 0.58247 0.34111 0.0
H2348 H 0.70217 0.58608 0.36556 0.0
H2349 H 0.76255 0.5285 0.29616 0.0
H2350 H 0.78702 0.54538 0.27223 0.0
H2351 H 0.75061 0.53598 0.26235 0.0
H2352 H 0.74419 0.58679 0.24912 0.0
H2353 H 0.78042 0.59635 0.25858 0.0
H2354 H 0.75189 0.61445 0.27393 0.0
H2355 H 0.75146 0.59715 0.37934 0.0
H2356 H 0.79883 0.62166 0.3803 0.0
H2357 H 0.81318 0.59768 0.29634 0.0
C2358 C 0.70018 0.56759 0.28771 0.0
C2359 C 0.67462 0.57234 0.30183 0.0
C2360 C 0.67542 0.57845 0.33011 0.0
C2361 C 0.70149 0.58023 0.34413 0.0
C2362 C 0.7265 0.57613 0.32947 0.0
C2363 C 0.72607 0.5702 0.30176 0.0
C2364 C 0.75589 0.5725 0.28962 0.0
C2365 C 0.76453 0.54388 0.27951 0.0
C2366 C 0.75821 0.5938 0.26649 0.0
C2367 C 0.77308 0.58261 0.31447 0.0
C2368 C 0.75579 0.58325 0.33746 0.0
C2369 C 0.76551 0.59556 0.3619 0.0
C2370 C 0.79285 0.60896 0.3625 0.0
C2371 C 0.81059 0.60957 0.33913 0.0
C2372 C 0.80082 0.59564 0.31499 0.0
H2373 H 0.70285 0.45301 0.56551 0.0
H2374 H 0.79017 0.48885 0.56739 0.0
H2375 H 0.77264 0.53509 0.57914 0.0
H2376 H 0.67514 0.50749 0.53169 0.0
H2377 H 0.64142 0.50499 0.54949 0.0
H2378 H 0.66119 0.4746 0.54493 0.0
H2379 H 0.6611 0.46717 0.5973 0.0
H2380 H 0.64075 0.49721 0.60199 0.0
H2381 H 0.67404 0.49534 0.61978 0.0
H2382 H 0.74375 0.57829 0.58848 0.0
H2383 H 0.70719 0.61276 0.59469 0.0
H2384 H 0.64049 0.54657 0.58287 0.0
C2385 C 0.71843 0.47041 0.56886 0.0
C2386 C 0.74781 0.4674 0.5657 0.0
C2387 C 0.76749 0.49075 0.57002 0.0
C2388 C 0.75773 0.51705 0.57656 0.0
C2389 C 0.72834 0.51941 0.57854 0.0
C2390 C 0.70912 0.49654 0.5749 0.0
C2391 C 0.67868 0.50428 0.57617 0.0
C2392 C 0.66322 0.49744 0.54895 0.0
C2393 C 0.66272 0.49017 0.60025 0.0
C2394 C 0.68353 0.53519 0.58093 0.0
C2395 C 0.71218 0.54378 0.58254 0.0
C2396 C 0.72128 0.57171 0.58713 0.0
C2397 C 0.70043 0.59113 0.5905 0.0
C2398 C 0.67101 0.58239 0.58888 0.0
C2399 C 0.66275 0.5541 0.5838 0.0
H2400 H 0.7224 0.86072 0.58236 0.0
H2401 H 0.71513 0.8382 0.49631 0.0
H2402 H 0.69548 0.79102 0.50848 0.0
H2403 H 0.74504 0.79569 0.60402 0.0
H2404 H 0.72571 0.79662 0.63584 0.0
H2405 H 0.73824 0.82862 0.62 0.0
H2406 H 0.68672 0.84478 0.6205 0.0
H2407 H 0.67405 0.81282 0.63634 0.0
H2408 H 0.65836 0.82289 0.60487 0.0
H2409 H 0.67558 0.74573 0.53103 0.0
H2410 H 0.66058 0.70687 0.56161 0.0
H2411 H 0.68301 0.76032 0.63183 0.0
C2412 C 0.71657 0.846 0.56599 0.0
C2413 C 0.72015 0.85331 0.53839 0.0
C2414 C 0.71252 0.83316 0.51766 0.0
C2415 C 0.70128 0.8063 0.52435 0.0
C2416 C 0.69798 0.79987 0.55185 0.0
C2417 C 0.70561 0.81918 0.57226 0.0
C2418 C 0.70086 0.80715 0.60024 0.0
C2419 C 0.72915 0.80701 0.61593 0.0
C2420 C 0.67867 0.82284 0.61643 0.0
C2421 C 0.68938 0.778 0.59247 0.0
C2422 C 0.68757 0.77405 0.56454 0.0
C2423 C 0.67713 0.74861 0.55294 0.0
C2424 C 0.66864 0.72665 0.57045 0.0
C2425 C 0.67089 0.73034 0.59916 0.0
C2426 C 0.68127 0.7565 0.61003 0.0
H2427 H 0.24025 0.74473 0.47224 0.0
H2428 H 0.15711 0.72329 0.50757 0.0
H2429 H 0.139 0.76598 0.48808 0.0
H2430 H 0.23901 0.8193 0.48595 0.0
H2431 H 0.25848 0.82806 0.45515 0.0
H2432 H 0.26415 0.79611 0.47223 0.0
H2433 H 0.25198 0.76762 0.42779 0.0
H2434 H 0.24704 0.79943 0.41052 0.0
H2435 H 0.21877 0.77208 0.41066 0.0
H2436 H 0.12955 0.80816 0.45948 0.0
H2437 H 0.12922 0.84377 0.42404 0.0
H2438 H 0.22044 0.84103 0.41399 0.0
C2439 C 0.21806 0.74877 0.47543 0.0
C2440 C 0.19968 0.73041 0.49044 0.0
C2441 C 0.17119 0.73691 0.49541 0.0
C2442 C 0.16093 0.7612 0.48475 0.0
C2443 C 0.17984 0.77914 0.47021 0.0
C2444 C 0.20788 0.7732 0.46584 0.0
C2445 C 0.22406 0.79539 0.44951 0.0
C2446 C 0.24782 0.81063 0.46674 0.0
C2447 C 0.23614 0.78289 0.42306 0.0
C2448 C 0.20036 0.81408 0.44384 0.0
C2449 C 0.17503 0.80467 0.4562 0.0
C2450 C 0.14941 0.8164 0.45059 0.0
C2451 C 0.14945 0.83716 0.4308 0.0
C2452 C 0.175 0.8461 0.41725 0.0
C2453 C 0.20083 0.8353 0.42488 0.0
H2454 H 0.58011 0.00152 0.70278 0.0
H2455 H 0.54166 0.99381 0.78317 0.0
H2456 H 0.49421 0.98364 0.7619 0.0
H2457 H 0.5233 0.03489 0.67122 0.0
H2458 H 0.52687 0.01676 0.63899 0.0
H2459 H 0.55749 0.02353 0.66072 0.0
H2460 H 0.56576 0.97083 0.66044 0.0
H2461 H 0.53533 0.96394 0.63854 0.0
H2462 H 0.53709 0.94621 0.67047 0.0
H2463 H 0.4507 0.9744 0.73101 0.0
H2464 H 0.41594 0.96393 0.69357 0.0
H2465 H 0.48397 0.97848 0.63426 0.0
C2466 C 0.56175 -0.00235 0.71596 0.0
C2467 C 0.56455 -0.0016 0.74461 0.0
C2468 C 0.53999 0.9932 0.76114 0.0
C2469 C 0.51296 0.98755 0.74924 0.0
C2470 C 0.51094 0.98721 0.72085 0.0
C2471 C 0.53477 0.99197 0.70448 0.0
C2472 C 0.52721 0.98996 0.67455 0.0
C2473 C 0.53412 0.01795 0.66056 0.0
C2474 C 0.54223 0.96632 0.66017 0.0
C2475 C 0.49539 0.98312 0.67651 0.0
C2476 C 0.48625 0.9818 0.70332 0.0
C2477 C 0.45765 0.97534 0.70995 0.0
C2478 C 0.4381 0.96934 0.6886 0.0
C2479 C 0.44724 0.97039 0.66102 0.0
C2480 C 0.47622 0.9777 0.6551 0.0
H2481 H 0.31731 0.36002 0.9379 0.0
H2482 H 0.32013 0.32715 0.01941 0.0
H2483 H 0.33631 0.28283 0.00028 0.0
H2484 H 0.28964 0.30042 0.90502 0.0
H2485 H 0.31045 0.30523 0.87426 0.0
H2486 H 0.30233 0.33491 0.8949 0.0
H2487 H 0.35628 0.35005 0.89886 0.0
H2488 H 0.36457 0.32042 0.87804 0.0
H2489 H 0.38048 0.32582 0.91129 0.0
H2490 H 0.3465 0.23922 0.97022 0.0
H2491 H 0.35185 0.20362 0.93314 0.0
H2492 H 0.34426 0.26746 0.87309 0.0
C2493 C 0.32189 0.34372 0.9518 0.0
C2494 C 0.31753 0.34704 0.9801 0.0
C2495 C 0.32363 0.32515 -0.00238 0.0
C2496 C 0.33274 0.29985 0.98692 0.0
C2497 C 0.33617 0.29699 0.95871 0.0
C2498 C 0.33138 0.31867 0.94153 0.0
C2499 C 0.33539 0.31041 0.91198 0.0
C2500 C 0.30781 0.31288 0.8956 0.0
C2501 C 0.36069 0.3277 0.8993 0.0
C2502 C 0.34203 0.28039 0.91498 0.0
C2503 C 0.34264 0.27276 0.94197 0.0
C2504 C 0.34651 0.24521 0.94906 0.0
C2505 C 0.3496 0.22511 0.92796 0.0
C2506 C 0.34866 0.23284 0.90032 0.0
C2507 C 0.34526 0.26089 0.89406 0.0
H2508 H 0.43948 0.54065 0.70671 0.0
H2509 H 0.45584 0.58821 0.78153 0.0
H2510 H 0.50595 0.59973 0.76632 0.0
H2511 H 0.5121 0.51373 0.70061 0.0
H2512 H 0.51124 0.51565 0.66393 0.0
H2513 H 0.47861 0.50843 0.68281 0.0
H2514 H 0.45669 0.55035 0.66044 0.0
H2515 H 0.48902 0.55756 0.64145 0.0
H2516 H 0.47533 0.58435 0.66299 0.0
H2517 H 0.5522 0.61115 0.73862 0.0
H2518 H 0.58803 0.62187 0.70226 0.0
H2519 H 0.54056 0.56422 0.64746 0.0
C2520 C 0.45382 0.5531 0.72009 0.0
C2521 C 0.44402 0.56383 0.74506 0.0
C2522 C 0.46317 0.57987 0.76226 0.0
C2523 C 0.49159 0.58636 0.7538 0.0
C2524 C 0.50047 0.5759 0.72854 0.0
C2525 C 0.48208 0.5592 0.71223 0.0
C2526 C 0.49561 0.55194 0.68527 0.0
C2527 C 0.49963 0.52058 0.68303 0.0
C2528 C 0.47813 0.56165 0.66114 0.0
C2529 C 0.52394 0.56859 0.68799 0.0
C2530 C 0.52681 0.5819 0.7132 0.0
C2531 C 0.55032 0.60047 0.71906 0.0
C2532 C 0.57065 0.60635 0.69832 0.0
C2533 C 0.56705 0.59394 0.67201 0.0
C2534 C 0.54402 0.57397 0.66739 0.0
H2535 H 0.76373 0.22993 0.06048 0.0
H2536 H 0.82484 0.23007 0.99397 0.0
H2537 H 0.83444 0.28112 0.00035 0.0
H2538 H 0.73492 0.29642 0.04014 0.0
H2539 H 0.72788 0.30605 0.07514 0.0
H2540 H 0.72556 0.26987 0.06463 0.0
H2541 H 0.76212 0.25868 0.10169 0.0
H2542 H 0.76373 0.29438 0.11296 0.0
H2543 H 0.79606 0.27864 0.10325 0.0
H2544 H 0.84145 0.33104 0.01919 0.0
H2545 H 0.84664 0.3727 0.04953 0.0
H2546 H 0.77381 0.34064 0.09682 0.0
C2547 C 0.77883 0.2406 0.04693 0.0
C2548 C 0.79345 0.22603 0.02672 0.0
C2549 C 0.81347 0.24088 0.00974 0.0
C2550 C 0.81877 0.26987 0.01297 0.0
C2551 C 0.80305 0.28373 0.03254 0.0
C2552 C 0.78318 0.26946 0.0489 0.0
C2553 C 0.76923 0.28866 0.0687 0.0
C2554 C 0.73752 0.29035 0.06173 0.0
C2555 C 0.77305 0.27956 0.09838 0.0
C2556 C 0.78616 0.31572 0.06276 0.0
C2557 C 0.80528 0.31273 0.04152 0.0
C2558 C 0.82612 0.33383 0.03537 0.0
C2559 C 0.82879 0.35759 0.05261 0.0
C2560 C 0.81082 0.35973 0.07574 0.0
C2561 C 0.78781 0.33965 0.07925 0.0
H2562 H 0.53501 0.07421 0.75342 0.0
H2563 H 0.60676 0.11812 0.79432 0.0
H2564 H 0.57383 0.14724 0.81944 0.0
H2565 H 0.48446 0.13497 0.75557 0.0
H2566 H 0.45438 0.1108 0.76255 0.0
H2567 H 0.48312 0.1002 0.74106 0.0
H2568 H 0.48946 0.0583 0.77241 0.0
H2569 H 0.46086 0.06874 0.79373 0.0
H2570 H 0.49539 0.06461 0.80841 0.0
H2571 H 0.53488 0.16377 0.84668 0.0
H2572 H 0.49369 0.16234 0.87793 0.0
H2573 H 0.4458 0.10632 0.82223 0.0
C2574 C 0.54367 0.0909 0.76676 0.0
C2575 C 0.57331 0.0945 0.77164 0.0
C2576 C 0.5841 0.11544 0.79014 0.0
C2577 C 0.56555 0.13222 0.80424 0.0
C2578 C 0.53625 0.12759 0.79979 0.0
C2579 C 0.52529 0.10734 0.78152 0.0
C2580 C 0.49315 0.10257 0.78465 0.0
C2581 C 0.47788 0.11274 0.75945 0.0
C2582 C 0.48423 0.07175 0.79016 0.0
C2583 C 0.48818 0.1212 0.80929 0.0
C2584 C 0.51312 0.13655 0.81668 0.0
C2585 C 0.51505 0.15256 0.84066 0.0
C2586 C 0.49153 0.15171 0.85826 0.0
C2587 C 0.46646 0.13495 0.85188 0.0
C2588 C 0.46431 0.12032 0.82672 0.0
H2589 H 0.93543 0.00527 0.32628 0.0
H2590 H 0.92301 0.93022 0.27634 0.0
H2591 H 0.97018 0.91564 0.29124 0.0
H2592 H 0.01013 0.01707 0.30989 0.0
H2593 H 0.01887 0.03174 0.34318 0.0
H2594 H 0.98398 0.03506 0.32902 0.0
H2595 H 0.96045 0.01195 0.37186 0.0
H2596 H -0.00479 0.00902 0.3862 0.0
H2597 H 0.97103 0.97846 0.38211 0.0
H2598 H 0.01912 0.90942 0.31395 0.0
H2599 H 0.06298 0.91211 0.3425 0.0
H2600 H 0.04266 0.99341 0.37279 0.0
C2601 C 0.94237 0.98548 0.31892 0.0
C2602 C 0.92549 0.96842 0.30087 0.0
C2603 C 0.93567 0.94325 0.29066 0.0
C2604 C 0.96242 0.93497 0.29883 0.0
C2605 C 0.97886 0.95263 0.31646 0.0
C2606 C 0.96915 0.97747 0.32609 0.0
C2607 C 0.99081 0.99343 0.34396 0.0
C2608 C 0.00158 0.02095 0.33072 0.0
C2609 C 0.97865 -0.00152 0.37273 0.0
C2610 C 0.01375 0.97312 0.34414 0.0
C2611 C 0.0069 0.94977 0.32803 0.0
C2612 C 0.02471 0.92772 0.32649 0.0
C2613 C 0.04955 0.92934 0.34267 0.0
C2614 C 0.05595 0.95264 0.3601 0.0
C2615 C 0.03831 0.97511 0.35986 0.0
H2616 H 0.46943 0.33527 0.21984 0.0
H2617 H 0.44046 0.24781 0.2243 0.0
H2618 H 0.42598 0.25482 0.27202 0.0
H2619 H 0.49446 0.34326 0.29195 0.0
H2620 H 0.48157 0.37741 0.29641 0.0
H2621 H 0.49374 0.36611 0.26329 0.0
H2622 H 0.44547 0.37559 0.24149 0.0
H2623 H 0.43383 0.38838 0.27406 0.0
H2624 H 0.41282 0.36083 0.25646 0.0
H2625 H 0.40914 0.27157 0.31649 0.0
H2626 H 0.38699 0.29834 0.35339 0.0
H2627 H 0.42747 0.37481 0.3221 0.0
C2628 C 0.46032 0.31759 0.231 0.0
C2629 C 0.45603 0.29102 0.2183 0.0
C2630 C 0.44383 0.26841 0.23349 0.0
C2631 C 0.43583 0.27208 0.26077 0.0
C2632 C 0.44027 0.29846 0.27273 0.0
C2633 C 0.45207 0.32092 0.25837 0.0
C2634 C 0.45176 0.34758 0.27536 0.0
C2635 C 0.48223 0.35926 0.28212 0.0
C2636 C 0.43495 0.36936 0.261 0.0
C2637 C 0.4365 0.33678 0.30079 0.0
C2638 C 0.43079 0.30823 0.29909 0.0
C2639 C 0.41413 0.29379 0.31851 0.0
C2640 C 0.40181 0.30907 0.33949 0.0
C2641 C 0.4064 0.33836 0.34093 0.0
C2642 C 0.42482 0.35227 0.32203 0.0
H2643 H 0.51355 0.76437 0.95699 0.0
H2644 H 0.43622 0.78686 0.91734 0.0
H2645 H 0.40841 0.77288 0.95848 0.0
H2646 H 0.48427 0.70422 0.98651 0.0
H2647 H 0.5048 0.7082 0.0175 0.0
H2648 H 0.51878 0.7232 0.98649 0.0
H2649 H 0.52432 0.77259 0.01015 0.0
H2650 H 0.51169 0.75633 0.04118 0.0
H2651 H 0.49412 0.78526 0.0282 0.0
H2652 H 0.38855 0.75145 0.00209 0.0
H2653 H 0.37854 0.72278 0.04279 0.0
H2654 H 0.46904 0.71618 0.0542 0.0
C2655 C 0.49079 0.76667 0.95689 0.0
C2656 C 0.47708 0.77662 0.93376 0.0
C2657 C 0.44724 0.7792 0.93471 0.0
C2658 C 0.4313 0.77151 0.95809 0.0
C2659 C 0.44556 0.76159 0.98043 0.0
C2660 C 0.47469 0.75924 0.97998 0.0
C2661 C 0.48477 0.7459 0.00557 0.0
C2662 C 0.49897 0.71878 -0.00141 0.0
C2663 C 0.50492 0.76625 0.02222 0.0
C2664 C 0.45662 0.74022 0.0202 0.0
C2665 C 0.43425 0.7498 0.00565 0.0
C2666 C 0.40598 0.74467 0.01404 0.0
C2667 C 0.40047 0.72879 0.03747 0.0
C2668 C 0.42309 0.71858 0.05237 0.0
C2669 C 0.45147 0.72471 0.04375 0.0
H2670 H 0.03568 0.70172 0.68399 0.0
H2671 H 0.0044 0.77851 0.71596 0.0
H2672 H 0.01329 0.76394 0.76283 0.0
H2673 H 0.0125 0.65485 0.74015 0.0
H2674 H 0.04541 0.63776 0.73707 0.0
H2675 H 0.03066 0.6532 0.70772 0.0
H2676 H 0.08013 0.68129 0.70196 0.0
H2677 H 0.09307 0.66639 0.73243 0.0
H2678 H 0.09356 0.70368 0.72963 0.0
H2679 H 0.02901 0.74252 0.80641 0.0
H2680 H 0.05712 0.71974 0.8413 0.0
H2681 H 0.07996 0.6587 0.78052 0.0
C2682 C 0.03034 0.71528 0.70087 0.0
C2683 C 0.01877 0.74096 0.69627 0.0
C2684 C 0.01287 0.75849 0.71893 0.0
C2685 C 0.01768 0.75033 0.74571 0.0
C2686 C 0.02886 0.72472 0.74959 0.0
C2687 C 0.03565 0.70774 0.72772 0.0
C2688 C 0.05103 0.68317 0.73703 0.0
C2689 C 0.03382 0.65562 0.73012 0.0
C2690 C 0.08123 0.68369 0.72454 0.0
C2691 C 0.05196 0.68902 0.76752 0.0
C2692 C 0.03861 0.71279 0.77454 0.0
C2693 C 0.0391 0.72358 0.80128 0.0
C2694 C 0.05481 0.71043 0.82106 0.0
C2695 C 0.06995 0.68713 0.81367 0.0
C2696 C 0.06763 0.67588 0.78687 0.0
H2697 H 0.05363 0.34946 0.4252 0.0
H2698 H 0.9644 0.36593 0.43542 0.0
H2699 H 0.97185 0.37354 0.48453 0.0
H2700 H 0.06078 0.31347 0.48779 0.0
H2701 H 0.09612 0.32853 0.49553 0.0
H2702 H 0.08466 0.32439 0.46054 0.0
H2703 H 0.09585 0.37713 0.45247 0.0
H2704 H 0.10838 0.38109 0.48707 0.0
H2705 H 0.08088 0.40214 0.47525 0.0
H2706 H 0.98729 0.37716 0.53217 0.0
H2707 H 0.01316 0.38885 0.57495 0.0
H2708 H 0.09291 0.37167 0.53548 0.0
C2709 C 0.03584 0.35516 0.43774 0.0
C2710 C 0.00837 0.35681 0.42643 0.0
C2711 C 0.98563 0.3644 0.44351 0.0
C2712 C 0.98954 0.36855 0.47155 0.0
C2713 C 0.01642 0.36541 0.48226 0.0
C2714 C 0.03944 0.35973 0.46595 0.0
C2715 C 0.06629 0.35871 0.48292 0.0
C2716 C 0.07763 0.32954 0.48161 0.0
C2717 C 0.08919 0.38111 0.4739 0.0
C2718 C 0.05468 0.36513 0.51117 0.0
C2719 C 0.02564 0.36802 0.51024 0.0
C2720 C 0.01001 0.37494 0.53326 0.0
C2721 C 0.02478 0.38117 0.55753 0.0
C2722 C 0.05478 0.3806 0.55846 0.0
C2723 C 0.06983 0.37131 0.5354 0.0
H2724 H 0.44661 0.78005 0.31473 0.0
H2725 H 0.50995 0.71901 0.31782 0.0
H2726 H 0.50097 0.70677 0.2691 0.0
H2727 H 0.39713 0.73815 0.27567 0.0
H2728 H 0.38459 0.76684 0.25717 0.0
H2729 H 0.39896 0.77262 0.29089 0.0
H2730 H 0.43539 0.81059 0.27197 0.0
H2731 H 0.42149 0.8044 0.23801 0.0
H2732 H 0.45894 0.80184 0.24446 0.0
H2733 H 0.48499 0.70229 0.21868 0.0
H2734 H 0.45585 0.69737 0.17662 0.0
H2735 H 0.3997 0.75726 0.20989 0.0
C2736 C 0.45877 0.76423 0.30513 0.0
C2737 C 0.4793 0.75081 0.31995 0.0
C2738 C 0.4943 0.72979 0.3068 0.0
C2739 C 0.48953 0.72289 0.27905 0.0
C2740 C 0.46941 0.73694 0.26487 0.0
C2741 C 0.45384 0.75672 0.27776 0.0
C2742 C 0.43122 0.76664 0.25919 0.0
C2743 C 0.40121 0.76069 0.27145 0.0
C2744 C 0.43713 0.79771 0.25305 0.0
C2745 C 0.43578 0.74872 0.23407 0.0
C2746 C 0.45853 0.73246 0.23722 0.0
C2747 C 0.46662 0.71438 0.2164 0.0
C2748 C 0.44973 0.71143 0.19267 0.0
C2749 C 0.42429 0.72536 0.19064 0.0
C2750 C 0.41847 0.74552 0.21098 0.0
H2751 H 0.02197 0.74472 0.04896 0.0
H2752 H 0.11135 0.75774 0.07118 0.0
H2753 H 0.12492 0.737 0.02693 0.0
H2754 H 0.02601 0.6795 0.01937 0.0
H2755 H 0.00076 0.68422 0.99257 0.0
H2756 H -0.00134 0.7036 0.02412 0.0
H2757 H 0.00196 0.74963 -0.00259 0.0
H2758 H 0.00444 0.7303 0.96568 0.0
H2759 H 0.03167 0.75716 0.97466 0.0
H2760 H 0.12841 0.70903 0.9831 0.0
H2761 H 0.12104 0.67406 0.94595 0.0
H2762 H 0.02992 0.68107 0.95079 0.0
C2763 C 0.04446 0.74366 0.04443 0.0
C2764 C 0.06555 0.75293 0.06373 0.0
C2765 C 0.09471 0.75087 0.05686 0.0
C2766 C 0.10266 0.73926 0.03164 0.0
C2767 C 0.08129 0.73007 0.01324 0.0
C2768 C 0.05276 0.73221 0.01936 0.0
C2769 C 0.03379 0.71853 -0.00271 0.0
C2770 C 0.01364 0.69507 0.00904 0.0
C2771 C 0.01697 0.7402 0.98291 0.0
C2772 C 0.05602 0.70717 0.97839 0.0
C2773 C 0.08335 0.71454 0.98761 0.0
C2774 C 0.10718 0.70393 0.97515 0.0
C2775 C 0.1029 0.68451 0.95348 0.0
C2776 C 0.07506 0.67612 0.94427 0.0
C2777 C 0.0515 0.68816 0.95656 0.0
H2778 H 0.06502 0.26156 0.79125 0.0
H2779 H 0.04401 0.33243 0.84174 0.0
H2780 H 0.04775 0.36225 0.80114 0.0
H2781 H 0.11694 0.29672 0.75079 0.0
H2782 H 0.10726 0.27713 0.72008 0.0
H2783 H 0.1008 0.26171 0.75282 0.0
H2784 H 0.04724 0.25199 0.74043 0.0
H2785 H 0.05368 0.26779 0.70774 0.0
H2786 H 0.02688 0.28037 0.73033 0.0
H2787 H 0.0567 0.38477 0.75515 0.0
H2788 H 0.07559 0.3987 0.70987 0.0
H2789 H 0.08956 0.31278 0.68999 0.0
C2790 C 0.06123 0.28337 0.79396 0.0
C2791 C 0.05441 0.29465 0.81984 0.0
C2792 C 0.0495 0.3233 0.82221 0.0
C2793 C 0.05126 0.34033 0.7992 0.0
C2794 C 0.05764 0.32834 0.77394 0.0
C2795 C 0.06274 0.30052 0.77131 0.0
C2796 C 0.07095 0.29287 0.7424 0.0
C2797 C 0.10075 0.28146 0.74149 0.0
C2798 C 0.04834 0.27202 0.72947 0.0
C2799 C 0.0709 0.32102 0.72929 0.0
C2800 C 0.06248 0.34114 0.74757 0.0
C2801 C 0.06274 0.3691 0.74053 0.0
C2802 C 0.07306 0.37681 0.7146 0.0
C2803 C 0.08306 0.35666 0.69621 0.0
C2804 C 0.08121 0.3284 0.70344 0.0
H2805 H 0.45831 0.35468 0.58143 0.0
H2806 H 0.45428 0.27081 0.54757 0.0
H2807 H 0.43542 0.28789 0.50421 0.0
H2808 H 0.39312 0.37719 0.54605 0.0
H2809 H 0.40964 0.41181 0.54197 0.0
H2810 H 0.41813 0.3918 0.57116 0.0
H2811 H 0.47189 0.39859 0.55877 0.0
H2812 H 0.46358 0.41826 0.52948 0.0
H2813 H 0.48368 0.38793 0.52535 0.0
H2814 H 0.42582 0.31666 0.46165 0.0
H2815 H 0.42193 0.35317 0.42675 0.0
H2816 H 0.4301 0.41666 0.49053 0.0
C2817 C 0.45246 0.33978 0.5652 0.0
C2818 C 0.45741 0.31148 0.56779 0.0
C2819 C 0.45006 0.29255 0.54607 0.0
C2820 C 0.43952 0.30211 0.52135 0.0
C2821 C 0.43587 0.33051 0.51906 0.0
C2822 C 0.44151 0.34889 0.54078 0.0
C2823 C 0.43792 0.37857 0.53296 0.0
C2824 C 0.41323 0.39054 0.54899 0.0
C2825 C 0.46593 0.39689 0.53686 0.0
C2826 C 0.43058 0.37434 0.50315 0.0
C2827 C 0.42934 0.34657 0.49527 0.0
C2828 C 0.42591 0.33836 0.46783 0.0
C2829 C 0.42362 0.35912 0.44814 0.0
C2830 C 0.42505 0.38752 0.4562 0.0
C2831 C 0.42819 0.39498 0.484 0.0
H2832 H 0.1846 0.48909 0.33962 0.0
H2833 H 0.22351 0.52256 0.26592 0.0
H2834 H 0.27058 0.50882 0.28096 0.0
H2835 H 0.24806 0.50296 0.38623 0.0
H2836 H 0.24178 0.47002 0.40283 0.0
H2837 H 0.21216 0.48778 0.39013 0.0
H2838 H 0.19484 0.44481 0.36073 0.0
H2839 H 0.22339 0.42633 0.37403 0.0
H2840 H 0.21951 0.42937 0.33765 0.0
H2841 H 0.31155 0.48536 0.30016 0.0
H2842 H 0.34046 0.44883 0.31822 0.0
H2843 H 0.27488 0.4284 0.37817 0.0
C2844 C 0.2033 0.49428 0.32723 0.0
C2845 C 0.20074 0.5072 0.3019 0.0
C2846 C 0.22527 0.51281 0.28554 0.0
C2847 C 0.25209 0.50533 0.29404 0.0
C2848 C 0.25401 0.49201 0.3189 0.0
C2849 C 0.23017 0.4863 0.33517 0.0
C2850 C 0.23694 0.46763 0.35844 0.0
C2851 C 0.2346 0.48302 0.38605 0.0
C2852 C 0.21754 0.44043 0.35763 0.0
C2853 C 0.26772 0.46247 0.35184 0.0
C2854 C 0.27758 0.47758 0.3296 0.0
C2855 C 0.30436 0.47396 0.31801 0.0
C2856 C 0.3208 0.45336 0.32849 0.0
C2857 C 0.31014 0.43654 0.35 0.0
C2858 C 0.28384 0.44185 0.36238 0.0
H2859 H 0.32333 0.4892 0.00618 0.0
H2860 H 0.2736 0.4655 0.07787 0.0
H2861 H 0.27463 0.51494 0.09283 0.0
H2862 H 0.36944 0.53923 0.0383 0.0
H2863 H 0.37158 0.56238 0.00979 0.0
H2864 H 0.36378 0.52571 0.00403 0.0
H2865 H 0.31768 0.53634 0.97837 0.0
H2866 H 0.32505 0.57312 0.98489 0.0
H2867 H 0.29148 0.55613 -0.00456 0.0
H2868 H 0.2847 0.56692 0.10181 0.0
H2869 H 0.30904 0.61394 0.10725 0.0
H2870 H 0.35128 0.60332 0.0294 0.0
C2871 C 0.31252 0.49438 0.02497 0.0
C2872 C 0.29841 0.47344 0.04086 0.0
C2873 C 0.28458 0.48117 0.06534 0.0
C2874 C 0.28478 0.50925 0.07386 0.0
C2875 C 0.29865 0.52945 0.05753 0.0
C2876 C 0.31242 0.52225 0.03367 0.0
C2877 C 0.32792 0.54741 0.02095 0.0
C2878 C 0.36007 0.54345 0.01814 0.0
C2879 C 0.31474 0.55361 0.99327 0.0
C2880 C 0.32204 0.5697 0.04208 0.0
C2881 C 0.30443 0.55919 0.06267 0.0
C2882 C 0.29821 0.57541 0.08562 0.0
C2883 C 0.31195 0.60226 0.08847 0.0
C2884 C 0.33222 0.61219 0.06887 0.0
C2885 C 0.33565 0.59639 0.04458 0.0
H2886 H 0.31694 0.58712 0.82772 0.0
H2887 H 0.27958 0.51137 0.78999 0.0
H2888 H 0.23288 0.51993 0.81055 0.0
H2889 H 0.266 0.58525 0.89196 0.0
H2890 H 0.26576 0.62263 0.89131 0.0
H2891 H 0.29755 0.60592 0.88154 0.0
H2892 H 0.29815 0.63103 0.83519 0.0
H2893 H 0.26662 0.64759 0.84478 0.0
H2894 H 0.26703 0.62702 0.81365 0.0
H2895 H 0.18895 0.54326 0.82316 0.0
H2896 H 0.15339 0.57885 0.82672 0.0
H2897 H 0.21856 0.63848 0.85853 0.0
C2898 C 0.29923 0.57161 0.82532 0.0
C2899 C 0.30178 0.54829 0.80801 0.0
C2900 C 0.27804 0.52897 0.80389 0.0
C2901 C 0.25144 0.53368 0.81553 0.0
C2902 C 0.24905 0.55766 0.83158 0.0
C2903 C 0.27256 0.57602 0.83704 0.0
C2904 C 0.26364 0.60238 0.85094 0.0
C2905 C 0.27385 0.60413 0.88071 0.0
C2906 C 0.27447 0.6285 0.83517 0.0
C2907 C 0.23148 0.59735 0.84963 0.0
C2908 C 0.22333 0.57103 0.83939 0.0
C2909 C 0.19494 0.56349 0.83224 0.0
C2910 C 0.17478 0.58371 0.83441 0.0
C2911 C 0.18331 0.61098 0.84354 0.0
C2912 C 0.21155 0.61736 0.85239 0.0
H2913 H 0.21268 0.6029 0.58145 0.0
H2914 H 0.23388 0.58556 0.49681 0.0
H2915 H 0.21952 0.53567 0.5033 0.0
H2916 H 0.23415 0.53718 0.61046 0.0
H2917 H 0.20442 0.53651 0.63393 0.0
H2918 H 0.22066 0.5693 0.62269 0.0
H2919 H 0.17055 0.58244 0.60666 0.0
H2920 H 0.15511 0.54937 0.61768 0.0
H2921 H 0.15072 0.5596 0.58286 0.0
H2922 H 0.19725 0.48815 0.51828 0.0
H2923 H 0.16643 0.45008 0.53919 0.0
H2924 H 0.16134 0.49978 0.61325 0.0
C2925 C 0.21478 0.58865 0.56431 0.0
C2926 C 0.2244 0.59823 0.53864 0.0
C2927 C 0.22643 0.57877 0.5167 0.0
C2928 C 0.21858 0.55032 0.52026 0.0
C2929 C 0.20899 0.54163 0.54591 0.0
C2930 C 0.20707 0.56037 0.5675 0.0
C2931 C 0.19348 0.54673 0.59223 0.0
C2932 C 0.21447 0.54747 0.61623 0.0
C2933 C 0.16584 0.56032 0.6003 0.0
C2934 C 0.18738 0.51745 0.58114 0.0
C2935 C 0.19677 0.51456 0.55452 0.0
C2936 C 0.19052 0.48996 0.53935 0.0
C2937 C 0.17329 0.46831 0.55139 0.0
C2938 C 0.16264 0.4717 0.57817 0.0
C2939 C 0.17055 0.49617 0.59329 0.0
H2940 H 0.20388 0.6 0.25216 0.0
H2941 H 0.19266 0.53649 0.18849 0.0
H2942 H 0.24235 0.54693 0.17325 0.0
H2943 H 0.23919 0.64846 0.21139 0.0
H2944 H 0.2629 0.66342 0.23743 0.0
H2945 H 0.22903 0.64672 0.24688 0.0
H2946 H 0.25485 0.61429 0.27872 0.0
H2947 H 0.28896 0.63066 0.26882 0.0
H2948 H 0.28212 0.59349 0.26493 0.0
H2949 H 0.29116 0.5673 0.16169 0.0
H2950 H 0.33077 0.6014 0.14951 0.0
H2951 H 0.30909 0.65378 0.21833 0.0
C2952 C 0.21222 0.58794 0.23543 0.0
C2953 C 0.19464 0.56741 0.22154 0.0
C2954 C 0.20587 0.55243 0.1993 0.0
C2955 C 0.23417 0.55793 0.19075 0.0
C2956 C 0.25097 0.57861 0.20455 0.0
C2957 C 0.24028 0.59367 0.2262 0.0
C2958 C 0.26103 0.61778 0.23458 0.0
C2959 C 0.24722 0.64573 0.23241 0.0
C2960 C 0.27241 0.6138 0.26348 0.0
C2961 C 0.28425 0.61481 0.21334 0.0
C2962 C 0.27866 0.5914 0.19695 0.0
C2963 C 0.29594 0.58553 0.17458 0.0
C2964 C 0.31847 0.60495 0.16782 0.0
C2965 C 0.32269 0.63027 0.18281 0.0
C2966 C 0.30637 0.63444 0.20666 0.0
H2967 H 0.18356 0.47369 0.00572 0.0
H2968 H 0.25826 0.47261 0.95355 0.0
H2969 H 0.23991 0.51014 0.92592 0.0
H2970 H 0.13294 0.48558 0.95224 0.0
H2971 H 0.11259 0.50741 0.97405 0.0
H2972 H 0.13163 0.48012 0.98853 0.0
H2973 H 0.15791 0.51634 0.02118 0.0
H2974 H 0.13933 0.54382 0.0065 0.0
H2975 H 0.17778 0.54617 0.00715 0.0
H2976 H 0.21428 0.55083 0.90651 0.0
H2977 H 0.18115 0.58603 0.89369 0.0
H2978 H 0.12301 0.55774 0.95789 0.0
C2979 C 0.19592 0.4811 0.98827 0.0
C2980 C 0.22226 0.47032 0.98166 0.0
C2981 C 0.23783 0.48045 0.95869 0.0
C2982 C 0.22769 0.50188 0.94308 0.0
C2983 C 0.20185 0.51254 0.95063 0.0
C2984 C 0.186 0.50206 0.97242 0.0
C2985 C 0.15887 0.51668 0.97644 0.0
C2986 C 0.13245 0.49623 0.97257 0.0
C2987 C 0.15847 0.53164 0.00448 0.0
C2988 C 0.16186 0.53724 0.95359 0.0
C2989 C 0.18688 0.53487 0.93905 0.0
C2990 C 0.19444 0.5525 0.91755 0.0
C2991 C 0.17553 0.57248 0.9104 0.0
C2992 C 0.14922 0.57434 0.92432 0.0
C2993 C 0.14271 0.55668 0.94648 0.0
H2994 H 0.29508 0.46172 0.75934 0.0
H2995 H 0.32058 0.5269 0.70256 0.0
H2996 H 0.27327 0.52047 0.68044 0.0
H2997 H 0.26074 0.41684 0.71368 0.0
H2998 H 0.23258 0.40475 0.73658 0.0
H2999 H 0.26647 0.41784 0.75006 0.0
H3000 H 0.24107 0.45365 0.78009 0.0
H3001 H 0.207 0.44088 0.76626 0.0
H3002 H 0.21844 0.47731 0.76427 0.0
H3003 H 0.22627 0.50241 0.66092 0.0
H3004 H 0.18522 0.47206 0.64367 0.0
H3005 H 0.19065 0.41948 0.71357 0.0
C3006 C 0.2906 0.47491 0.74248 0.0
C3007 C 0.31139 0.49476 0.73259 0.0
C3008 C 0.30484 0.51155 0.71042 0.0
C3009 C 0.27797 0.50824 0.69794 0.0
C3010 C 0.25789 0.48836 0.70818 0.0
C3011 C 0.26395 0.47201 0.72999 0.0
C3012 C 0.23999 0.45024 0.73547 0.0
C3013 C 0.25059 0.42069 0.73381 0.0
C3014 C 0.22578 0.45586 0.76316 0.0
C3015 C 0.22031 0.45558 0.71215 0.0
C3016 C 0.2305 0.47822 0.69713 0.0
C3017 C 0.21747 0.48528 0.67297 0.0
C3018 C 0.19411 0.46813 0.66339 0.0
C3019 C 0.1846 0.44409 0.67773 0.0
C3020 C 0.19719 0.43831 0.70279 0.0
H3021 H 0.33384 0.6109 0.48734 0.0
H3022 H 0.2651 0.61239 0.42863 0.0
H3023 H 0.27857 0.56777 0.40864 0.0
H3024 H 0.38481 0.58104 0.44024 0.0
H3025 H 0.39962 0.56052 0.46631 0.0
H3026 H 0.38499 0.59304 0.47533 0.0
H3027 H 0.35141 0.5675 0.51028 0.0
H3028 H 0.36557 0.53482 0.50102 0.0
H3029 H 0.32774 0.5385 0.49893 0.0
H3030 H 0.29744 0.52138 0.397 0.0
H3031 H 0.3242 0.47931 0.391 0.0
H3032 H 0.38188 0.50894 0.45574 0.0
C3033 C 0.32193 0.60207 0.47 0.0
C3034 C 0.29847 0.61518 0.45952 0.0
C3035 C 0.28331 0.60287 0.43688 0.0
C3036 C 0.29066 0.57741 0.42548 0.0
C3037 C 0.31345 0.56467 0.43672 0.0
C3038 C 0.32922 0.57682 0.45813 0.0
C3039 C 0.3529 0.55889 0.46622 0.0
C3040 C 0.38232 0.57429 0.46174 0.0
C3041 C 0.34916 0.54937 0.49587 0.0
C3042 C 0.34778 0.53469 0.44621 0.0
C3043 C 0.32473 0.53827 0.42957 0.0
C3044 C 0.31554 0.51836 0.40988 0.0
C3045 C 0.3307 0.49443 0.40675 0.0
C3046 C 0.35499 0.49082 0.42293 0.0
C3047 C 0.36341 0.51117 0.44304 0.0
H3048 H 0.22655 0.25664 0.48283 0.0
H3049 H 0.29715 0.21905 0.52084 0.0
H3050 H 0.32855 0.26141 0.51121 0.0
H3051 H 0.26246 0.28457 0.42906 0.0
H3052 H 0.24383 0.31599 0.42812 0.0
H3053 H 0.22666 0.28514 0.4424 0.0
H3054 H 0.2181 0.31298 0.48675 0.0
H3055 H 0.23633 0.34387 0.47348 0.0
H3056 H 0.24767 0.32997 0.50523 0.0
H3057 H 0.35346 0.3059 0.49121 0.0
H3058 H 0.36873 0.34434 0.46033 0.0
H3059 H 0.28117 0.35193 0.43722 0.0
C3060 C 0.24849 0.25738 0.48958 0.0
C3061 C 0.25942 0.23444 0.50245 0.0
C3062 C 0.28828 0.2364 0.51099 0.0
C3063 C 0.30619 0.26046 0.50577 0.0
C3064 C 0.29471 0.28258 0.49262 0.0
C3065 C 0.26634 0.28122 0.48495 0.0
C3066 C 0.25952 0.30624 0.46874 0.0
C3067 C 0.24745 0.29745 0.44041 0.0
C3068 C 0.23922 0.32435 0.48454 0.0
C3069 C 0.28875 0.32106 0.46681 0.0
C3070 C 0.30879 0.30777 0.48134 0.0
C3071 C 0.33773 0.31669 0.48029 0.0
C3072 C 0.34632 0.3387 0.4629 0.0
C3073 C 0.32616 0.35105 0.44659 0.0
C3074 C 0.29697 0.34304 0.44979 0.0
H3075 H 0.76973 0.32666 0.5587 0.0
H3076 H 0.8511 0.35968 0.52683 0.0
H3077 H 0.87252 0.31575 0.53901 0.0
H3078 H 0.79324 0.29602 0.61456 0.0
H3079 H 0.76775 0.26622 0.61297 0.0
H3080 H 0.7593 0.29824 0.59801 0.0
H3081 H 0.74956 0.27206 0.55218 0.0
H3082 H 0.75912 0.23982 0.56642 0.0
H3083 H 0.77709 0.25302 0.53626 0.0
H3084 H 0.88605 0.27227 0.56375 0.0
H3085 H 0.88987 0.23561 0.59776 0.0
H3086 H 0.7983 0.2287 0.6073 0.0
C3087 C 0.79197 0.32451 0.55376 0.0
C3088 C 0.8089 0.34652 0.54208 0.0
C3089 C 0.83784 0.34295 0.53584 0.0
C3090 C 0.85004 0.31804 0.54252 0.0
C3091 C 0.83263 0.29674 0.55441 0.0
C3092 C 0.80403 0.29973 0.55944 0.0
C3093 C 0.79006 0.27519 0.57426 0.0
C3094 C 0.77686 0.28448 0.60155 0.0
C3095 C 0.76765 0.25906 0.55617 0.0
C3096 C 0.81561 0.25853 0.57857 0.0
C3097 C 0.84002 0.27092 0.56667 0.0
C3098 C 0.86693 0.26169 0.57205 0.0
C3099 C 0.86896 0.24036 0.59101 0.0
C3100 C 0.84425 0.22837 0.60399 0.0
C3101 C 0.81731 0.23674 0.59666 0.0
H3102 H 0.44275 0.10242 0.25199 0.0
H3103 H 0.44134 0.01389 0.26735 0.0
H3104 H 0.49014 0.02039 0.28598 0.0
H3105 H 0.51844 0.1099 0.233 0.0
H3106 H 0.52438 0.14376 0.24866 0.0
H3107 H 0.48991 0.13301 0.2347 0.0
H3108 H 0.46437 0.1415 0.28033 0.0
H3109 H 0.49771 0.15414 0.29523 0.0
H3110 H 0.47672 0.12605 0.31092 0.0
H3111 H 0.5373 0.03746 0.30716 0.0
H3112 H 0.57392 0.06416 0.33497 0.0
H3113 H 0.54517 0.14105 0.30481 0.0
C3114 C 0.45268 0.08431 0.25913 0.0
C3115 C 0.43798 0.05769 0.2583 0.0
C3116 C 0.45197 0.03459 0.26785 0.0
C3117 C 0.47988 0.03802 0.27822 0.0
C3118 C 0.49383 0.06457 0.27849 0.0
C3119 C 0.48052 0.0873 0.26937 0.0
C3120 C 0.49912 0.11393 0.27361 0.0
C3121 C 0.5085 0.12588 0.24587 0.0
C3122 C 0.48357 0.13513 0.29105 0.0
C3123 C 0.52412 0.10307 0.28859 0.0
C3124 C 0.52122 0.07436 0.29026 0.0
C3125 C 0.54014 0.05985 0.30546 0.0
C3126 C 0.56124 0.07516 0.3209 0.0
C3127 C 0.56292 0.10459 0.3213 0.0
C3128 C 0.54513 0.11855 0.30382 0.0
H3129 H 0.725 0.72202 0.04823 0.0
H3130 H 0.64082 0.68207 0.06169 0.0
H3131 H 0.62114 0.72863 0.06593 0.0
H3132 H 0.723 0.77535 0.09303 0.0
H3133 H 0.7419 0.80106 0.07218 0.0
H3134 H 0.74748 0.76491 0.06693 0.0
H3135 H 0.73406 0.7689 0.01644 0.0
H3136 H 0.72723 0.80498 0.02119 0.0
H3137 H 0.6999 0.78065 0.0072 0.0
H3138 H 0.61432 0.77935 0.07914 0.0
H3139 H 0.62052 0.8277 0.09701 0.0
H3140 H 0.70689 0.83454 0.06581 0.0
C3141 C 0.70226 0.72307 0.05121 0.0
C3142 C 0.68432 0.6987 0.05464 0.0
C3143 C 0.65477 0.70069 0.05893 0.0
C3144 C 0.64349 0.72699 0.0612 0.0
C3145 C 0.66194 0.75081 0.05794 0.0
C3146 C 0.69062 0.74889 0.0523 0.0
C3147 C 0.70654 0.77719 0.05125 0.0
C3148 C 0.73113 0.77976 0.0721 0.0
C3149 C 0.71755 0.78329 0.02228 0.0
C3150 C 0.68286 0.79547 0.05905 0.0
C3151 C 0.65716 0.78005 0.06273 0.0
C3152 C 0.63385 0.79186 0.075 0.0
C3153 C 0.63736 0.81958 0.08476 0.0
C3154 C 0.66374 0.8353 0.08154 0.0
C3155 C 0.68611 0.82338 0.06733 0.0
H3156 H 0.5614 0.49104 0.28029 0.0
H3157 H 0.50971 0.55073 0.24317 0.0
H3158 H 0.46604 0.52165 0.25454 0.0
H3159 H 0.51021 0.42485 0.26745 0.0
H3160 H 0.52012 0.41295 0.30053 0.0
H3161 H 0.54568 0.43339 0.28044 0.0
H3162 H 0.55246 0.46731 0.32257 0.0
H3163 H 0.52561 0.44731 0.34124 0.0
H3164 H 0.52193 0.48381 0.33599 0.0
H3165 H 0.42841 0.49261 0.27866 0.0
H3166 H 0.40131 0.46908 0.31615 0.0
H3167 H 0.47689 0.42891 0.3391 0.0
C3168 C 0.5409 0.49714 0.27347 0.0
C3169 C 0.53875 0.52272 0.26056 0.0
C3170 C 0.51164 0.53094 0.25289 0.0
C3171 C 0.48676 0.51445 0.25908 0.0
C3172 C 0.48933 0.48984 0.27309 0.0
C3173 C 0.5158 0.48117 0.28012 0.0
C3174 C 0.5128 0.45722 0.29968 0.0
C3175 C 0.52276 0.43051 0.28619 0.0
C3176 C 0.52913 0.46438 0.32643 0.0
C3177 C 0.48078 0.45514 0.30411 0.0
C3178 C 0.46742 0.47335 0.2878 0.0
C3179 C 0.43845 0.47771 0.29099 0.0
C3180 C 0.42314 0.46423 0.31224 0.0
C3181 C 0.43711 0.4472 0.33022 0.0
C3182 C 0.46576 0.44157 0.32521 0.0
H3183 H 0.16082 0.84237 0.9644 0.0
H3184 H 0.25198 0.83379 0.97116 0.0
H3185 H 0.24508 0.7851 0.95561 0.0
H3186 H 0.13761 0.76999 0.98473 0.0
H3187 H 0.10881 0.7673 0.96044 0.0
H3188 H 0.12028 0.80064 0.9755 0.0
H3189 H 0.1283 0.82064 0.92699 0.0
H3190 H 0.11692 0.78727 0.91214 0.0
H3191 H 0.15134 0.8037 0.90338 0.0
H3192 H 0.22997 0.73945 0.93517 0.0
H3193 H 0.20721 0.69987 0.90846 0.0
H3194 H 0.12575 0.73635 0.9149 0.0
C3195 C 0.17925 0.83015 0.96282 0.0
C3196 C 0.20695 0.84206 0.9689 0.0
C3197 C 0.23056 0.82537 0.96639 0.0
C3198 C 0.22686 0.79751 0.95784 0.0
C3199 C 0.19941 0.78646 0.95185 0.0
C3200 C 0.17597 0.80217 0.9541 0.0
C3201 C 0.14916 0.78565 0.94416 0.0
C3202 C 0.1277 0.7806 0.96762 0.0
C3203 C 0.13565 0.80018 0.92024 0.0
C3204 C 0.16153 0.75873 0.93495 0.0
C3205 C 0.19049 0.75953 0.94014 0.0
C3206 C 0.20722 0.73825 0.9315 0.0
C3207 C 0.19419 0.71589 0.91644 0.0
C3208 C 0.16481 0.71502 0.91038 0.0
C3209 C 0.14812 0.73632 0.92017 0.0
H3210 H 0.45808 0.00274 0.20889 0.0
H3211 H 0.40662 0.92461 0.20844 0.0
H3212 H 0.45063 0.89898 0.2064 0.0
H3213 H 0.50474 0.988 0.16184 0.0
H3214 H 0.53563 0.006 0.17757 0.0
H3215 H 0.50084 0.01635 0.18587 0.0
H3216 H 0.5119 0.00944 0.23669 0.0
H3217 H 0.54633 -0.00283 0.22856 0.0
H3218 H 0.52105 0.97594 0.24833 0.0
H3219 H 0.49776 0.88339 0.19182 0.0
H3220 H 0.53974 0.88072 0.16191 0.0
H3221 H 0.56294 0.96777 0.17733 0.0
C3222 C 0.45624 0.98019 0.20889 0.0
C3223 C 0.42927 0.96548 0.20825 0.0
C3224 C 0.42728 0.93611 0.20871 0.0
C3225 C 0.45215 0.92148 0.20793 0.0
C3226 C 0.47869 0.93665 0.20786 0.0
C3227 C 0.48077 0.96546 0.20884 0.0
C3228 C 0.51114 0.97715 0.20465 0.0
C3229 C 0.51317 -0.00197 0.18107 0.0
C3230 C 0.52332 0.9907 0.23116 0.0
C3231 C 0.52535 0.95063 0.19775 0.0
C3232 C 0.50662 0.92728 0.2009 0.0
C3233 C 0.51292 0.90129 0.19022 0.0
C3234 C 0.53717 0.89976 0.17355 0.0
C3235 C 0.55443 0.92411 0.16768 0.0
C3236 C 0.55031 0.94886 0.18239 0.0
H3237 H 0.09001 0.12791 0.69872 0.0
H3238 H 0.04823 0.09156 0.76957 0.0
H3239 H 0.00217 0.1064 0.75396 0.0
H3240 H 0.03731 0.1873 0.69079 0.0
H3241 H 0.04031 0.18376 0.65423 0.0
H3242 H 0.07069 0.17887 0.67553 0.0
H3243 H 0.07499 0.13028 0.65278 0.0
H3244 H 0.04444 0.13464 0.63202 0.0
H3245 H 0.04486 0.1049 0.65374 0.0
H3246 H 0.95989 0.11263 0.72443 0.0
H3247 H 0.92642 0.11346 0.68535 0.0
H3248 H -0.00439 0.14626 0.63414 0.0
C3249 C 0.0714 0.12478 0.71172 0.0
C3250 C 0.07272 0.10928 0.73562 0.0
C3251 C 0.04789 0.10416 0.75166 0.0
C3252 C 0.0215 0.11247 0.74283 0.0
C3253 C 0.02049 0.12625 0.71815 0.0
C3254 C 0.04503 0.13319 0.70322 0.0
C3255 C 0.03797 0.14417 0.67556 0.0
C3256 C 0.04711 0.17538 0.67394 0.0
C3257 C 0.05133 0.12748 0.65219 0.0
C3258 C 0.00585 0.13944 0.67608 0.0
C3259 C -0.00405 0.12992 0.70107 0.0
C3260 C 0.96726 0.12096 0.7051 0.0
C3261 C 0.9484 0.12147 0.68292 0.0
C3262 C 0.95864 0.13043 0.6572 0.0
C3263 C 0.9874 0.14002 0.65396 0.0
loop_
_geom_bond_atom_site_label_1
_geom_bond_atom_site_label_2
_geom_bond_distance
_geom_bond_site_symmetry_2
_ccdc_geom_bond_type
Co0 O1 2.216 . S
Co0 O2 2.091 1_455 S
Co0 O4 2.004 1_455 S
Co0 O10 2.021 . S
Co0 O12 2.137 . S
Co0 O13 2.244 . S
O1 Co0 2.216 . S
O1 C8 1.247 1_455 S
O2 Co0 2.091 1_655 S
O2 C8 1.261 . S
C3 O12 1.247 . S
C3 O13 1.272 . S
O4 Co0 2.004 1_655 S
O4 C9 1.259 . S
Co5 O6 2.061 . S
Co5 O11 2.052 . S
Co5 O13 2.135 . S
O6 Co5 2.061 . S
O6 C9 1.235 1_455 S
C7 O10 1.238 . S
C7 O11 1.241 . S
C8 O1 1.247 1_655 S
C8 O2 1.261 . S
C9 O4 1.259 . S
C9 O6 1.235 1_655 S
O10 Co0 2.021 . S
O10 C7 1.238 . S
O11 Co5 2.052 . S
O11 C7 1.241 . S
O12 Co0 2.137 . S
O12 C3 1.247 . S
O13 Co0 2.244 . S
O13 C3 1.272 . S
O13 Co5 2.135 . S
Co14 O15 2.216 . S
Co14 O16 2.091 . S
Co14 O18 2.004 1_655 S
Co14 O24 2.021 1_655 S
Co14 O26 2.137 . S
Co14 O27 2.244 . S
O15 Co14 2.216 . S
O15 C22 1.247 . S
O16 Co14 2.091 . S
O16 C22 1.261 . S
C17 O26 1.247 . S
C17 O27 1.272 . S
O18 Co14 2.004 1_455 S
O18 C23 1.259 . S
Co19 O20 2.061 . S
Co19 O25 2.052 . S
Co19 O27 2.135 1_455 S
O20 Co19 2.061 . S
O20 C23 1.235 . S
C21 O24 1.238 . S
C21 O25 1.241 . S
C22 O15 1.247 . S
C22 O16 1.261 . S
C23 O18 1.259 . S
C23 O20 1.235 . S
O24 Co14 2.021 1_455 S
O24 C21 1.238 . S
O25 Co19 2.052 . S
O25 C21 1.241 . S
O26 Co14 2.137 . S
O26 C17 1.247 . S
O27 Co14 2.244 . S
O27 C17 1.272 . S
O27 Co19 2.135 1_655 S
Co28 O29 2.216 . S
Co28 O30 2.091 . S
Co28 O32 2.004 . S
Co28 O38 2.021 . S
Co28 O40 2.137 . S
Co28 O41 2.244 . S
O29 Co28 2.216 . S
O29 C36 1.247 . S
O30 Co28 2.091 . S
O30 C36 1.261 . S
C31 O40 1.247 . S
C31 O41 1.272 . S
O32 Co28 2.004 . S
O32 C37 1.259 . S
Co33 O34 2.061 . S
Co33 O39 2.052 . S
Co33 O41 2.135 . S
O34 Co33 2.061 . S
O34 C37 1.235 . S
C35 O38 1.238 . S
C35 O39 1.241 . S
C36 O29 1.247 . S
C36 O30 1.261 . S
C37 O32 1.259 . S
C37 O34 1.235 . S
O38 Co28 2.021 . S
O38 C35 1.238 . S
O39 Co33 2.052 . S
O39 C35 1.241 . S
O40 Co28 2.137 . S
O40 C31 1.247 . S
O41 Co28 2.244 . S
O41 C31 1.272 . S
O41 Co33 2.135 . S
Co42 O43 2.216 . S
Co42 O44 2.091 . S
Co42 O46 2.004 . S
Co42 O52 2.021 . S
Co42 O54 2.137 . S
Co42 O55 2.244 . S
O43 Co42 2.216 . S
O43 C50 1.247 . S
O44 Co42 2.091 . S
O44 C50 1.261 . S
C45 O54 1.247 . S
C45 O55 1.272 . S
O46 Co42 2.004 . S
O46 C51 1.259 . S
Co47 O48 2.061 . S
Co47 O53 2.052 . S
Co47 O55 2.135 . S
O48 Co47 2.061 . S
O48 C51 1.235 . S
C49 O52 1.238 . S
C49 O53 1.241 . S
C50 O43 1.247 . S
C50 O44 1.261 . S
C51 O46 1.259 . S
C51 O48 1.235 . S
O52 Co42 2.021 . S
O52 C49 1.238 . S
O53 Co47 2.052 . S
O53 C49 1.241 . S
O54 Co42 2.137 . S
O54 C45 1.247 . S
O55 Co42 2.244 . S
O55 C45 1.272 . S
O55 Co47 2.135 . S
Co56 O57 2.216 1_655 S
Co56 O58 2.091 . S
Co56 O60 2.004 . S
Co56 O66 2.021 1_655 S
Co56 O68 2.137 . S
Co56 O69 2.244 1_655 S
O57 Co56 2.216 1_455 S
O57 C64 1.247 1_455 S
O58 Co56 2.091 . S
O58 C64 1.261 . S
C59 O68 1.247 1_455 S
C59 O69 1.272 . S
O60 Co56 2.004 . S
O60 C65 1.259 . S
Co61 O62 2.061 . S
Co61 O67 2.052 . S
Co61 O69 2.135 . S
O62 Co61 2.061 . S
O62 C65 1.235 1_455 S
C63 O66 1.238 . S
C63 O67 1.241 . S
C64 O57 1.247 1_655 S
C64 O58 1.261 . S
C65 O60 1.259 . S
C65 O62 1.235 1_655 S
O66 Co56 2.021 1_455 S
O66 C63 1.238 . S
O67 Co61 2.052 . S
O67 C63 1.241 . S
O68 Co56 2.137 . S
O68 C59 1.247 1_655 S
O69 Co56 2.244 1_455 S
O69 C59 1.272 . S
O69 Co61 2.135 . S
Co70 O71 2.216 . S
Co70 O72 2.091 . S
Co70 O74 2.004 . S
Co70 O80 2.021 . S
Co70 O82 2.137 . S
Co70 O83 2.244 . S
O71 Co70 2.216 . S
O71 C78 1.247 . S
O72 Co70 2.091 . S
O72 C78 1.261 . S
C73 O82 1.247 . S
C73 O83 1.272 . S
O74 Co70 2.004 . S
O74 C79 1.259 . S
Co75 O76 2.061 . S
Co75 O81 2.052 . S
Co75 O83 2.135 . S
O76 Co75 2.061 . S
O76 C79 1.235 . S
C77 O80 1.238 . S
C77 O81 1.241 . S
C78 O71 1.247 . S
C78 O72 1.261 . S
C79 O74 1.259 . S
C79 O76 1.235 . S
O80 Co70 2.021 . S
O80 C77 1.238 . S
O81 Co75 2.052 . S
O81 C77 1.241 . S
O82 Co70 2.137 . S
O82 C73 1.247 . S
O83 Co70 2.244 . S
O83 C73 1.272 . S
O83 Co75 2.135 . S
Co84 O85 2.216 . S
Co84 O86 2.091 . S
Co84 O88 2.004 . S
Co84 O94 2.021 . S
Co84 O96 2.137 . S
Co84 O97 2.244 . S
O85 Co84 2.216 . S
O85 C92 1.247 . S
O86 Co84 2.091 . S
O86 C92 1.261 . S
C87 O96 1.247 . S
C87 O97 1.272 . S
O88 Co84 2.004 . S
O88 C93 1.259 . S
Co89 O90 2.061 . S
Co89 O95 2.052 . S
Co89 O97 2.135 . S
O90 Co89 2.061 . S
O90 C93 1.235 . S
C91 O94 1.238 . S
C91 O95 1.241 . S
C92 O85 1.247 . S
C92 O86 1.261 . S
C93 O88 1.259 . S
C93 O90 1.235 . S
O94 Co84 2.021 . S
O94 C91 1.238 . S
O95 Co89 2.052 . S
O95 C91 1.241 . S
O96 Co84 2.137 . S
O96 C87 1.247 . S
O97 Co84 2.244 . S
O97 C87 1.272 . S
O97 Co89 2.135 . S
Co98 O99 2.216 1_455 S
Co98 O100 2.091 . S
Co98 O102 2.004 . S
Co98 O108 2.021 . S
Co98 O110 2.137 1_455 S
Co98 O111 2.244 . S
O99 Co98 2.216 1_655 S
O99 C106 1.247 . S
O100 Co98 2.091 . S
O100 C106 1.261 1_455 S
C101 O110 1.246 . S
C101 O111 1.274 1_655 S
O102 Co98 2.004 . S
O102 C107 1.259 . S
Co103 O104 2.061 . S
Co103 O109 2.052 . S
Co103 O111 2.135 . S
O104 Co103 2.061 . S
O104 C107 1.235 . S
C105 O108 1.238 . S
C105 O109 1.241 . S
C106 O99 1.247 . S
C106 O100 1.261 1_655 S
C107 O102 1.259 . S
C107 O104 1.235 . S
O108 Co98 2.021 . S
O108 C105 1.238 . S
O109 Co103 2.052 . S
O109 C105 1.241 . S
O110 Co98 2.137 1_655 S
O110 C101 1.246 . S
O111 Co98 2.244 . S
O111 C101 1.274 1_455 S
O111 Co103 2.135 . S
Co112 O113 2.216 1_565 S
Co112 O114 2.091 . S
Co112 O116 2.004 . S
Co112 O122 2.021 1_565 S
Co112 O124 2.137 . S
Co112 O125 2.244 1_565 S
O113 Co112 2.216 1_545 S
O113 C120 1.247 1_545 S
O114 Co112 2.091 . S
O114 C120 1.261 . S
C115 O124 1.247 1_545 S
C115 O125 1.272 . S
O116 Co112 2.004 . S
O116 C121 1.259 . S
Co117 O118 2.061 . S
Co117 O123 2.052 . S
Co117 O125 2.135 . S
O118 Co117 2.061 . S
O118 C121 1.235 1_545 S
C119 O122 1.238 . S
C119 O123 1.241 . S
C120 O113 1.247 1_565 S
C120 O114 1.261 . S
C121 O116 1.259 . S
C121 O118 1.235 1_565 S
O122 Co112 2.021 1_545 S
O122 C119 1.238 . S
O123 Co117 2.052 . S
O123 C119 1.241 . S
O124 Co112 2.137 . S
O124 C115 1.247 1_565 S
O125 Co112 2.244 1_545 S
O125 C115 1.272 . S
O125 Co117 2.135 . S
Co126 O127 2.216 . S
Co126 O128 2.091 . S
Co126 O130 2.004 . S
Co126 O136 2.021 . S
Co126 O138 2.137 . S
Co126 O139 2.244 . S
O127 Co126 2.216 . S
O127 C134 1.247 . S
O128 Co126 2.091 . S
O128 C134 1.261 . S
C129 O138 1.247 . S
C129 O139 1.272 . S
O130 Co126 2.004 . S
O130 C135 1.259 . S
Co131 O132 2.061 . S
Co131 O137 2.052 . S
Co131 O139 2.135 . S
O132 Co131 2.061 . S
O132 C135 1.235 . S
C133 O136 1.238 . S
C133 O137 1.241 . S
C134 O127 1.247 . S
C134 O128 1.261 . S
C135 O130 1.259 . S
C135 O132 1.235 . S
O136 Co126 2.021 . S
O136 C133 1.238 . S
O137 Co131 2.052 . S
O137 C133 1.241 . S
O138 Co126 2.137 . S
O138 C129 1.247 . S
O139 Co126 2.244 . S
O139 C129 1.272 . S
O139 Co131 2.135 . S
Co140 O141 2.216 . S
Co140 O142 2.091 . S
Co140 O144 2.004 . S
Co140 O150 2.021 . S
Co140 O152 2.137 . S
Co140 O153 2.244 . S
O141 Co140 2.216 . S
O141 C148 1.247 . S
O142 Co140 2.091 . S
O142 C148 1.261 . S
C143 O152 1.247 . S
C143 O153 1.272 . S
O144 Co140 2.004 . S
O144 C149 1.259 . S
Co145 O146 2.061 . S
Co145 O151 2.052 . S
Co145 O153 2.135 . S
O146 Co145 2.061 . S
O146 C149 1.235 . S
C147 O150 1.238 . S
C147 O151 1.241 . S
C148 O141 1.247 . S
C148 O142 1.261 . S
C149 O144 1.259 . S
C149 O146 1.235 . S
O150 Co140 2.021 . S
O150 C147 1.238 . S
O151 Co145 2.052 . S
O151 C147 1.241 . S
O152 Co140 2.137 . S
O152 C143 1.247 . S
O153 Co140 2.244 . S
O153 C143 1.272 . S
O153 Co145 2.135 . S
Co154 O155 2.216 . S
Co154 O156 2.091 . S
Co154 O158 2.004 . S
Co154 O164 2.021 . S
Co154 O166 2.137 . S
Co154 O167 2.244 . S
O155 Co154 2.216 . S
O155 C162 1.247 . S
O156 Co154 2.091 . S
O156 C162 1.261 . S
C157 O166 1.247 . S
C157 O167 1.272 . S
O158 Co154 2.004 . S
O158 C163 1.259 1_554 S
Co159 O160 2.061 . S
Co159 O165 2.052 . S
Co159 O167 2.135 1_556 S
O160 Co159 2.061 . S
O160 C163 1.235 . S
C161 O164 1.238 1_556 S
C161 O165 1.241 . S
C162 O155 1.247 . S
C162 O156 1.261 . S
C163 O158 1.259 1_556 S
C163 O160 1.235 . S
O164 Co154 2.021 . S
O164 C161 1.238 1_554 S
O165 Co159 2.052 . S
O165 C161 1.241 . S
O166 Co154 2.137 . S
O166 C157 1.247 . S
O167 Co154 2.244 . S
O167 C157 1.272 . S
O167 Co159 2.135 1_554 S
Co168 O169 2.216 1_556 S
Co168 O170 2.091 . S
Co168 O172 2.004 . S
Co168 O178 2.021 1_556 S
Co168 O180 2.137 1_556 S
Co168 O181 2.244 1_556 S
O169 Co168 2.216 1_554 S
O169 C176 1.247 1_554 S
O170 Co168 2.091 . S
O170 C176 1.261 . S
C171 O180 1.247 . S
C171 O181 1.272 . S
O172 Co168 2.004 . S
O172 C177 1.259 . S
Co173 O174 2.061 . S
Co173 O179 2.052 . S
Co173 O181 2.135 . S
O174 Co173 2.061 . S
O174 C177 1.235 1_554 S
C175 O178 1.238 . S
C175 O179 1.241 . S
C176 O169 1.247 1_556 S
C176 O170 1.261 . S
C177 O172 1.259 . S
C177 O174 1.235 1_556 S
O178 Co168 2.021 1_554 S
O178 C175 1.238 . S
O179 Co173 2.052 . S
O179 C175 1.241 . S
O180 Co168 2.137 1_554 S
O180 C171 1.247 . S
O181 Co168 2.244 1_554 S
O181 C171 1.272 . S
O181 Co173 2.135 . S
Co182 O183 2.216 1_556 S
Co182 O184 2.091 . S
Co182 O186 2.004 . S
Co182 O192 2.021 1_556 S
Co182 O194 2.137 . S
Co182 O195 2.244 1_556 S
O183 Co182 2.216 1_554 S
O183 C190 1.247 1_554 S
O184 Co182 2.091 . S
O184 C190 1.261 . S
C185 O194 1.247 1_554 S
C185 O195 1.272 . S
O186 Co182 2.004 . S
O186 C191 1.259 . S
Co187 O188 2.061 . S
Co187 O193 2.052 . S
Co187 O195 2.135 . S
O188 Co187 2.061 . S
O188 C191 1.235 1_554 S
C189 O192 1.238 . S
C189 O193 1.241 . S
C190 O183 1.247 1_556 S
C190 O184 1.261 . S
C191 O186 1.259 . S
C191 O188 1.235 1_556 S
O192 Co182 2.021 1_554 S
O192 C189 1.238 . S
O193 Co187 2.052 . S
O193 C189 1.241 . S
O194 Co182 2.137 . S
O194 C185 1.247 1_556 S
O195 Co182 2.244 1_554 S
O195 C185 1.272 . S
O195 Co187 2.135 . S
Co196 O197 2.216 . S
Co196 O198 2.091 . S
Co196 O200 2.004 . S
Co196 O206 2.021 . S
Co196 O208 2.137 . S
Co196 O209 2.244 . S
O197 Co196 2.216 . S
O197 C204 1.247 . S
O198 Co196 2.091 . S
O198 C204 1.261 . S
C199 O208 1.247 . S
C199 O209 1.272 . S
O200 Co196 2.004 . S
O200 C205 1.259 . S
Co201 O202 2.061 . S
Co201 O207 2.052 . S
Co201 O209 2.135 . S
O202 Co201 2.061 . S
O202 C205 1.235 . S
C203 O206 1.238 . S
C203 O207 1.241 . S
C204 O197 1.247 . S
C204 O198 1.261 . S
C205 O200 1.259 . S
C205 O202 1.235 . S
O206 Co196 2.021 . S
O206 C203 1.238 . S
O207 Co201 2.052 . S
O207 C203 1.241 . S
O208 Co196 2.137 . S
O208 C199 1.247 . S
O209 Co196 2.244 . S
O209 C199 1.272 . S
O209 Co201 2.135 . S
Co210 O211 2.216 . S
Co210 O212 2.091 . S
Co210 O214 2.004 . S
Co210 O220 2.021 . S
Co210 O222 2.137 . S
Co210 O223 2.244 . S
O211 Co210 2.216 . S
O211 C218 1.247 . S
O212 Co210 2.091 . S
O212 C218 1.261 . S
C213 O222 1.247 . S
C213 O223 1.272 . S
O214 Co210 2.004 . S
O214 C219 1.259 . S
Co215 O216 2.061 . S
Co215 O221 2.052 . S
Co215 O223 2.135 . S
O216 Co215 2.061 . S
O216 C219 1.235 . S
C217 O220 1.238 . S
C217 O221 1.241 . S
C218 O211 1.247 . S
C218 O212 1.261 . S
C219 O214 1.259 . S
C219 O216 1.235 . S
O220 Co210 2.021 . S
O220 C217 1.238 . S
O221 Co215 2.052 . S
O221 C217 1.241 . S
O222 Co210 2.137 . S
O222 C213 1.247 . S
O223 Co210 2.244 . S
O223 C213 1.272 . S
O223 Co215 2.135 . S
Co224 O225 2.216 1_545 S
Co224 O226 2.091 1_545 S
Co224 O228 2.004 . S
Co224 O234 2.021 . S
Co224 O236 2.137 1_545 S
Co224 O237 2.244 1_545 S
O225 Co224 2.216 1_565 S
O225 C232 1.247 . S
O226 Co224 2.091 1_565 S
O226 C232 1.261 . S
C227 O236 1.247 . S
C227 O237 1.272 . S
O228 Co224 2.004 . S
O228 C233 1.259 . S
Co229 O230 2.061 . S
Co229 O235 2.052 . S
Co229 O237 2.135 1_545 S
O230 Co229 2.061 . S
O230 C233 1.235 . S
C231 O234 1.238 . S
C231 O235 1.241 . S
C232 O225 1.247 . S
C232 O226 1.261 . S
C233 O228 1.259 . S
C233 O230 1.235 . S
O234 Co224 2.021 . S
O234 C231 1.238 . S
O235 Co229 2.052 . S
O235 C231 1.241 . S
O236 Co224 2.137 1_565 S
O236 C227 1.247 . S
O237 Co224 2.244 1_565 S
O237 C227 1.272 . S
O237 Co229 2.135 1_565 S
Co238 O239 2.216 . S
Co238 O240 2.091 . S
Co238 O242 2.004 . S
Co238 O248 2.021 . S
Co238 O250 2.137 . S
Co238 O251 2.244 . S
O239 Co238 2.216 . S
O239 C246 1.247 . S
O240 Co238 2.091 . S
O240 C246 1.261 . S
C241 O250 1.247 . S
C241 O251 1.272 . S
O242 Co238 2.004 . S
O242 C247 1.259 . S
Co243 O244 2.061 . S
Co243 O249 2.052 . S
Co243 O251 2.135 . S
O244 Co243 2.061 . S
O244 C247 1.235 . S
C245 O248 1.238 . S
C245 O249 1.241 . S
C246 O239 1.247 . S
C246 O240 1.261 . S
C247 O242 1.259 . S
C247 O244 1.235 . S
O248 Co238 2.021 . S
O248 C245 1.238 . S
O249 Co243 2.052 . S
O249 C245 1.241 . S
O250 Co238 2.137 . S
O250 C241 1.247 . S
O251 Co238 2.244 . S
O251 C241 1.272 . S
O251 Co243 2.135 . S
Co252 O253 2.216 . S
Co252 O254 2.091 . S
Co252 O256 2.004 . S
Co252 O262 2.021 . S
Co252 O264 2.137 . S
Co252 O265 2.244 . S
O253 Co252 2.216 . S
O253 C260 1.247 . S
O254 Co252 2.091 . S
O254 C260 1.261 . S
C255 O264 1.247 . S
C255 O265 1.272 . S
O256 Co252 2.004 . S
O256 C261 1.259 . S
Co257 O258 2.061 . S
Co257 O263 2.052 . S
Co257 O265 2.135 . S
O258 Co257 2.061 . S
O258 C261 1.235 . S
C259 O262 1.238 . S
C259 O263 1.241 . S
C260 O253 1.247 . S
C260 O254 1.261 . S
C261 O256 1.259 . S
C261 O258 1.235 . S
O262 Co252 2.021 . S
O262 C259 1.238 . S
O263 Co257 2.052 . S
O263 C259 1.241 . S
O264 Co252 2.137 . S
O264 C255 1.247 . S
O265 Co252 2.244 . S
O265 C255 1.272 . S
O265 Co257 2.135 . S
Co266 O267 2.216 . S
Co266 O268 2.091 . S
Co266 O270 2.004 . S
Co266 O276 2.021 . S
Co266 O278 2.137 . S
Co266 O279 2.244 . S
O267 Co266 2.216 . S
O267 C274 1.247 . S
O268 Co266 2.091 . S
O268 C274 1.261 . S
C269 O278 1.247 . S
C269 O279 1.272 . S
O270 Co266 2.004 . S
O270 C275 1.259 . S
Co271 O272 2.061 . S
Co271 O277 2.052 . S
Co271 O279 2.135 . S
O272 Co271 2.061 . S
O272 C275 1.235 . S
C273 O276 1.238 . S
C273 O277 1.241 . S
C274 O267 1.247 . S
C274 O268 1.261 . S
C275 O270 1.259 . S
C275 O272 1.235 . S
O276 Co266 2.021 . S
O276 C273 1.238 . S
O277 Co271 2.052 . S
O277 C273 1.241 . S
O278 Co266 2.137 . S
O278 C269 1.247 . S
O279 Co266 2.244 . S
O279 C269 1.272 . S
O279 Co271 2.135 . S
Co280 O281 2.216 . S
Co280 O282 2.091 . S
Co280 O284 2.004 1_554 S
Co280 O290 2.021 1_554 S
Co280 O292 2.137 . S
Co280 O293 2.244 . S
O281 Co280 2.216 . S
O281 C288 1.247 . S
O282 Co280 2.091 . S
O282 C288 1.261 . S
C283 O292 1.247 . S
C283 O293 1.272 . S
O284 Co280 2.004 1_556 S
O284 C289 1.259 . S
Co285 O286 2.061 . S
Co285 O291 2.052 . S
Co285 O293 2.135 1_556 S
O286 Co285 2.061 . S
O286 C289 1.235 . S
C287 O290 1.238 . S
C287 O291 1.241 . S
C288 O281 1.247 . S
C288 O282 1.261 . S
C289 O284 1.259 . S
C289 O286 1.235 . S
O290 Co280 2.021 1_556 S
O290 C287 1.238 . S
O291 Co285 2.052 . S
O291 C287 1.241 . S
O292 Co280 2.137 . S
O292 C283 1.247 . S
O293 Co280 2.244 . S
O293 C283 1.272 . S
O293 Co285 2.135 1_554 S
Co294 O295 2.216 . S
Co294 O296 2.091 . S
Co294 O298 2.004 . S
Co294 O304 2.021 . S
Co294 O306 2.137 . S
Co294 O307 2.244 . S
O295 Co294 2.216 . S
O295 C302 1.247 . S
O296 Co294 2.091 . S
O296 C302 1.261 . S
C297 O306 1.247 . S
C297 O307 1.272 . S
O298 Co294 2.004 . S
O298 C303 1.259 . S
Co299 O300 2.061 . S
Co299 O305 2.052 . S
Co299 O307 2.135 . S
O300 Co299 2.061 . S
O300 C303 1.235 . S
C301 O304 1.238 . S
C301 O305 1.241 . S
C302 O295 1.247 . S
C302 O296 1.261 . S
C303 O298 1.259 . S
C303 O300 1.235 . S
O304 Co294 2.021 . S
O304 C301 1.238 . S
O305 Co299 2.052 . S
O305 C301 1.241 . S
O306 Co294 2.137 . S
O306 C297 1.247 . S
O307 Co294 2.244 . S
O307 C297 1.272 . S
O307 Co299 2.135 . S
Co308 O309 2.216 . S
Co308 O310 2.091 . S
Co308 O312 2.004 . S
Co308 O318 2.021 . S
Co308 O320 2.137 . S
Co308 O321 2.244 . S
O309 Co308 2.216 . S
O309 C316 1.247 . S
O310 Co308 2.091 . S
O310 C316 1.261 . S
C311 O320 1.247 . S
C311 O321 1.272 . S
O312 Co308 2.004 . S
O312 C317 1.259 . S
Co313 O314 2.061 . S
Co313 O319 2.052 . S
Co313 O321 2.135 . S
O314 Co313 2.061 . S
O314 C317 1.235 . S
C315 O318 1.238 . S
C315 O319 1.241 . S
C316 O309 1.247 . S
C316 O310 1.261 . S
C317 O312 1.259 . S
C317 O314 1.235 . S
O318 Co308 2.021 . S
O318 C315 1.238 . S
O319 Co313 2.052 . S
O319 C315 1.241 . S
O320 Co308 2.137 . S
O320 C311 1.247 . S
O321 Co308 2.244 . S
O321 C311 1.272 . S
O321 Co313 2.135 . S
Co322 O323 2.216 . S
Co322 O324 2.091 . S
Co322 O326 2.004 . S
Co322 O332 2.021 . S
Co322 O334 2.137 . S
Co322 O335 2.244 . S
O323 Co322 2.216 . S
O323 C330 1.247 . S
O324 Co322 2.091 . S
O324 C330 1.261 . S
C325 O334 1.247 . S
C325 O335 1.272 . S
O326 Co322 2.004 . S
O326 C331 1.259 . S
Co327 O328 2.061 . S
Co327 O333 2.052 . S
Co327 O335 2.135 . S
O328 Co327 2.061 . S
O328 C331 1.235 . S
C329 O332 1.238 . S
C329 O333 1.241 . S
C330 O323 1.247 . S
C330 O324 1.261 . S
C331 O326 1.259 . S
C331 O328 1.235 . S
O332 Co322 2.021 . S
O332 C329 1.238 . S
O333 Co327 2.052 . S
O333 C329 1.241 . S
O334 Co322 2.137 . S
O334 C325 1.247 . S
O335 Co322 2.244 . S
O335 C325 1.272 . S
O335 Co327 2.135 . S
O336 Mn337 2.163 . S
O336 C350 1.244 . S
Mn337 O336 2.163 . S
Mn337 O340 2.160 . S
Mn337 O341 2.221 . S
Mn337 O343 2.163 . S
Mn337 O345 2.160 . S
Mn337 O355 2.221 . S
O338 Mn339 2.087 . S
O338 C350 1.256 . S
Mn339 O338 2.087 . S
Mn339 O346 2.089 . S
Mn339 O355 2.290 . S
Mn339 O356 2.251 . S
O340 Mn337 2.160 . S
O340 C351 1.239 . S
O341 Mn337 2.221 . S
O341 Mn342 2.290 . S
O341 C352 1.278 . S
Mn342 O341 2.290 . S
Mn342 O344 2.089 . S
Mn342 O347 2.251 . S
Mn342 O348 2.087 . S
O343 Mn337 2.163 . S
O343 C353 1.244 . S
O344 Mn342 2.089 . S
O344 C351 1.256 . S
O345 Mn337 2.160 . S
O345 C354 1.239 . S
O346 Mn339 2.089 . S
O346 C354 1.256 . S
O347 Mn342 2.251 . S
O347 C352 1.241 . S
O348 Mn342 2.087 . S
O348 C353 1.256 . S
C349 O355 1.278 . S
C349 O356 1.241 . S
C350 O336 1.244 . S
C350 O338 1.256 . S
C351 O340 1.239 . S
C351 O344 1.256 . S
C352 O341 1.278 . S
C352 O347 1.241 . S
C353 O343 1.244 . S
C353 O348 1.256 . S
C354 O345 1.239 . S
C354 O346 1.256 . S
O355 Mn337 2.221 . S
O355 Mn339 2.290 . S
O355 C349 1.278 . S
O356 Mn339 2.251 . S
O356 C349 1.241 . S
O357 Mn358 2.163 . S
O357 C371 1.244 . S
Mn358 O357 2.163 . S
Mn358 O361 2.160 . S
Mn358 O362 2.221 . S
Mn358 O364 2.163 . S
Mn358 O366 2.160 . S
Mn358 O376 2.221 . S
O359 Mn360 2.087 . S
O359 C371 1.256 . S
Mn360 O359 2.087 . S
Mn360 O367 2.089 . S
Mn360 O376 2.290 . S
Mn360 O377 2.251 . S
O361 Mn358 2.160 . S
O361 C372 1.239 . S
O362 Mn358 2.221 . S
O362 Mn363 2.290 . S
O362 C373 1.278 . S
Mn363 O362 2.290 . S
Mn363 O365 2.089 . S
Mn363 O368 2.251 . S
Mn363 O369 2.087 . S
O364 Mn358 2.163 . S
O364 C374 1.244 . S
O365 Mn363 2.089 . S
O365 C372 1.256 . S
O366 Mn358 2.160 . S
O366 C375 1.239 . S
O367 Mn360 2.089 . S
O367 C375 1.256 . S
O368 Mn363 2.251 . S
O368 C373 1.241 . S
O369 Mn363 2.087 . S
O369 C374 1.256 . S
C370 O376 1.278 . S
C370 O377 1.241 . S
C371 O357 1.244 . S
C371 O359 1.256 . S
C372 O361 1.239 . S
C372 O365 1.256 . S
C373 O362 1.278 . S
C373 O368 1.241 . S
C374 O364 1.244 . S
C374 O369 1.256 . S
C375 O366 1.239 . S
C375 O367 1.256 . S
O376 Mn358 2.221 . S
O376 Mn360 2.290 . S
O376 C370 1.278 . S
O377 Mn360 2.251 . S
O377 C370 1.241 . S
O378 Mn379 2.163 . S
O378 C392 1.244 . S
Mn379 O378 2.163 . S
Mn379 O382 2.160 . S
Mn379 O383 2.221 . S
Mn379 O385 2.163 . S
Mn379 O387 2.160 . S
Mn379 O397 2.221 . S
O380 Mn381 2.087 . S
O380 C392 1.256 . S
Mn381 O380 2.087 . S
Mn381 O388 2.089 . S
Mn381 O397 2.290 . S
Mn381 O398 2.251 . S
O382 Mn379 2.160 . S
O382 C393 1.239 . S
O383 Mn379 2.221 . S
O383 Mn384 2.290 . S
O383 C394 1.278 . S
Mn384 O383 2.290 . S
Mn384 O386 2.089 . S
Mn384 O389 2.251 . S
Mn384 O390 2.087 . S
O385 Mn379 2.163 . S
O385 C395 1.244 . S
O386 Mn384 2.089 . S
O386 C393 1.256 . S
O387 Mn379 2.160 . S
O387 C396 1.239 . S
O388 Mn381 2.089 . S
O388 C396 1.256 . S
O389 Mn384 2.251 . S
O389 C394 1.241 . S
O390 Mn384 2.087 . S
O390 C395 1.256 . S
C391 O397 1.278 . S
C391 O398 1.241 . S
C392 O378 1.244 . S
C392 O380 1.256 . S
C393 O382 1.239 . S
C393 O386 1.256 . S
C394 O383 1.278 . S
C394 O389 1.241 . S
C395 O385 1.244 . S
C395 O390 1.256 . S
C396 O387 1.239 . S
C396 O388 1.256 . S
O397 Mn379 2.221 . S
O397 Mn381 2.290 . S
O397 C391 1.278 . S
O398 Mn381 2.251 . S
O398 C391 1.241 . S
O399 Mn400 2.163 . S
O399 C413 1.244 . S
Mn400 O399 2.163 . S
Mn400 O403 2.160 . S
Mn400 O404 2.221 . S
Mn400 O406 2.163 . S
Mn400 O408 2.160 . S
Mn400 O418 2.221 . S
O401 Mn402 2.087 . S
O401 C413 1.256 . S
Mn402 O401 2.087 . S
Mn402 O409 2.089 . S
Mn402 O418 2.290 . S
Mn402 O419 2.251 . S
O403 Mn400 2.160 . S
O403 C414 1.239 . S
O404 Mn400 2.221 . S
O404 Mn405 2.290 . S
O404 C415 1.278 . S
Mn405 O404 2.290 . S
Mn405 O407 2.089 . S
Mn405 O410 2.251 . S
Mn405 O411 2.087 . S
O406 Mn400 2.163 . S
O406 C416 1.244 . S
O407 Mn405 2.089 . S
O407 C414 1.256 . S
O408 Mn400 2.160 . S
O408 C417 1.239 . S
O409 Mn402 2.089 . S
O409 C417 1.256 . S
O410 Mn405 2.251 . S
O410 C415 1.241 . S
O411 Mn405 2.087 . S
O411 C416 1.256 . S
C412 O418 1.278 . S
C412 O419 1.241 . S
C413 O399 1.244 . S
C413 O401 1.256 . S
C414 O403 1.239 . S
C414 O407 1.256 . S
C415 O404 1.278 . S
C415 O410 1.241 . S
C416 O406 1.244 . S
C416 O411 1.256 . S
C417 O408 1.239 . S
C417 O409 1.256 . S
O418 Mn400 2.221 . S
O418 Mn402 2.290 . S
O418 C412 1.278 . S
O419 Mn402 2.251 . S
O419 C412 1.241 . S
O420 Mn421 2.163 . S
O420 C434 1.244 . S
Mn421 O420 2.163 . S
Mn421 O424 2.160 . S
Mn421 O425 2.221 . S
Mn421 O427 2.163 . S
Mn421 O429 2.160 . S
Mn421 O439 2.221 . S
O422 Mn423 2.087 . S
O422 C434 1.256 . S
Mn423 O422 2.087 . S
Mn423 O430 2.089 . S
Mn423 O439 2.290 . S
Mn423 O440 2.251 . S
O424 Mn421 2.160 . S
O424 C435 1.239 . S
O425 Mn421 2.221 . S
O425 Mn426 2.290 . S
O425 C436 1.278 . S
Mn426 O425 2.290 . S
Mn426 O428 2.089 . S
Mn426 O431 2.251 . S
Mn426 O432 2.087 . S
O427 Mn421 2.163 . S
O427 C437 1.244 . S
O428 Mn426 2.089 . S
O428 C435 1.256 . S
O429 Mn421 2.160 . S
O429 C438 1.239 . S
O430 Mn423 2.089 . S
O430 C438 1.256 . S
O431 Mn426 2.251 . S
O431 C436 1.241 . S
O432 Mn426 2.087 . S
O432 C437 1.256 . S
C433 O439 1.278 . S
C433 O440 1.241 . S
C434 O420 1.244 . S
C434 O422 1.256 . S
C435 O424 1.239 . S
C435 O428 1.256 . S
C436 O425 1.278 . S
C436 O431 1.241 . S
C437 O427 1.244 . S
C437 O432 1.256 . S
C438 O429 1.239 . S
C438 O430 1.256 . S
O439 Mn421 2.221 . S
O439 Mn423 2.290 . S
O439 C433 1.278 . S
O440 Mn423 2.251 . S
O440 C433 1.241 . S
O441 Mn442 2.163 . S
O441 C455 1.244 . S
Mn442 O441 2.163 . S
Mn442 O445 2.160 . S
Mn442 O446 2.221 . S
Mn442 O448 2.163 . S
Mn442 O450 2.160 . S
Mn442 O460 2.221 . S
O443 Mn444 2.087 . S
O443 C455 1.256 . S
Mn444 O443 2.087 . S
Mn444 O451 2.089 . S
Mn444 O460 2.290 . S
Mn444 O461 2.251 . S
O445 Mn442 2.160 . S
O445 C456 1.239 . S
O446 Mn442 2.221 . S
O446 Mn447 2.290 . S
O446 C457 1.278 . S
Mn447 O446 2.290 . S
Mn447 O449 2.089 . S
Mn447 O452 2.251 . S
Mn447 O453 2.087 . S
O448 Mn442 2.163 . S
O448 C458 1.244 . S
O449 Mn447 2.089 . S
O449 C456 1.256 . S
O450 Mn442 2.160 . S
O450 C459 1.239 . S
O451 Mn444 2.089 . S
O451 C459 1.256 . S
O452 Mn447 2.251 . S
O452 C457 1.241 . S
O453 Mn447 2.087 . S
O453 C458 1.256 . S
C454 O460 1.278 . S
C454 O461 1.241 . S
C455 O441 1.244 . S
C455 O443 1.256 . S
C456 O445 1.239 . S
C456 O449 1.256 . S
C457 O446 1.278 . S
C457 O452 1.241 . S
C458 O448 1.244 . S
C458 O453 1.256 . S
C459 O450 1.239 . S
C459 O451 1.256 . S
O460 Mn442 2.221 . S
O460 Mn444 2.290 . S
O460 C454 1.278 . S
O461 Mn444 2.251 . S
O461 C454 1.241 . S
O462 Mn463 2.163 . S
O462 C476 1.244 . S
Mn463 O462 2.163 . S
Mn463 O466 2.160 . S
Mn463 O467 2.221 . S
Mn463 O469 2.163 . S
Mn463 O471 2.160 . S
Mn463 O481 2.221 . S
O464 Mn465 2.087 . S
O464 C476 1.256 . S
Mn465 O464 2.087 . S
Mn465 O472 2.089 . S
Mn465 O481 2.290 . S
Mn465 O482 2.251 . S
O466 Mn463 2.160 . S
O466 C477 1.239 . S
O467 Mn463 2.221 . S
O467 Mn468 2.290 . S
O467 C478 1.278 . S
Mn468 O467 2.290 . S
Mn468 O470 2.089 . S
Mn468 O473 2.251 . S
Mn468 O474 2.087 . S
O469 Mn463 2.163 . S
O469 C479 1.244 . S
O470 Mn468 2.089 . S
O470 C477 1.256 . S
O471 Mn463 2.160 . S
O471 C480 1.239 . S
O472 Mn465 2.089 . S
O472 C480 1.256 . S
O473 Mn468 2.251 . S
O473 C478 1.241 . S
O474 Mn468 2.087 . S
O474 C479 1.256 . S
C475 O481 1.278 . S
C475 O482 1.241 . S
C476 O462 1.244 . S
C476 O464 1.256 . S
C477 O466 1.239 . S
C477 O470 1.256 . S
C478 O467 1.278 . S
C478 O473 1.241 . S
C479 O469 1.244 . S
C479 O474 1.256 . S
C480 O471 1.239 . S
C480 O472 1.256 . S
O481 Mn463 2.221 . S
O481 Mn465 2.290 . S
O481 C475 1.278 . S
O482 Mn465 2.251 . S
O482 C475 1.241 . S
O483 Mn484 2.163 . S
O483 C497 1.244 . S
Mn484 O483 2.163 . S
Mn484 O487 2.160 . S
Mn484 O488 2.221 . S
Mn484 O490 2.163 . S
Mn484 O492 2.160 . S
Mn484 O502 2.221 . S
O485 Mn486 2.087 . S
O485 C497 1.256 . S
Mn486 O485 2.087 . S
Mn486 O493 2.089 . S
Mn486 O502 2.290 . S
Mn486 O503 2.251 . S
O487 Mn484 2.160 . S
O487 C498 1.239 . S
O488 Mn484 2.221 . S
O488 Mn489 2.290 . S
O488 C499 1.278 . S
Mn489 O488 2.290 . S
Mn489 O491 2.089 . S
Mn489 O494 2.251 . S
Mn489 O495 2.087 . S
O490 Mn484 2.163 . S
O490 C500 1.244 . S
O491 Mn489 2.089 . S
O491 C498 1.256 . S
O492 Mn484 2.160 . S
O492 C501 1.239 . S
O493 Mn486 2.089 . S
O493 C501 1.256 . S
O494 Mn489 2.251 . S
O494 C499 1.241 . S
O495 Mn489 2.087 . S
O495 C500 1.256 . S
C496 O502 1.278 . S
C496 O503 1.241 . S
C497 O483 1.244 . S
C497 O485 1.256 . S
C498 O487 1.239 . S
C498 O491 1.256 . S
C499 O488 1.278 . S
C499 O494 1.241 . S
C500 O490 1.244 . S
C500 O495 1.256 . S
C501 O492 1.239 . S
C501 O493 1.256 . S
O502 Mn484 2.221 . S
O502 Mn486 2.290 . S
O502 C496 1.278 . S
O503 Mn486 2.251 . S
O503 C496 1.241 . S
O504 Mn505 2.163 . S
O504 C518 1.244 . S
Mn505 O504 2.163 . S
Mn505 O508 2.160 . S
Mn505 O509 2.221 . S
Mn505 O511 2.163 . S
Mn505 O513 2.160 . S
Mn505 O523 2.221 . S
O506 Mn507 2.087 . S
O506 C518 1.256 . S
Mn507 O506 2.087 . S
Mn507 O514 2.089 . S
Mn507 O523 2.290 . S
Mn507 O524 2.251 . S
O508 Mn505 2.160 . S
O508 C519 1.239 . S
O509 Mn505 2.221 . S
O509 Mn510 2.290 . S
O509 C520 1.278 . S
Mn510 O509 2.290 . S
Mn510 O512 2.089 . S
Mn510 O515 2.251 . S
Mn510 O516 2.087 . S
O511 Mn505 2.163 . S
O511 C521 1.244 . S
O512 Mn510 2.089 . S
O512 C519 1.256 . S
O513 Mn505 2.160 . S
O513 C522 1.239 . S
O514 Mn507 2.089 . S
O514 C522 1.256 . S
O515 Mn510 2.251 . S
O515 C520 1.241 . S
O516 Mn510 2.087 . S
O516 C521 1.256 . S
C517 O523 1.278 . S
C517 O524 1.241 . S
C518 O504 1.244 . S
C518 O506 1.256 . S
C519 O508 1.239 . S
C519 O512 1.256 . S
C520 O509 1.278 . S
C520 O515 1.241 . S
C521 O511 1.244 . S
C521 O516 1.256 . S
C522 O513 1.239 . S
C522 O514 1.256 . S
O523 Mn505 2.221 . S
O523 Mn507 2.290 . S
O523 C517 1.278 . S
O524 Mn507 2.251 . S
O524 C517 1.241 . S
O525 Mn526 2.163 . S
O525 C539 1.244 . S
Mn526 O525 2.163 . S
Mn526 O529 2.160 . S
Mn526 O530 2.221 . S
Mn526 O532 2.163 . S
Mn526 O534 2.160 . S
Mn526 O544 2.221 . S
O527 Mn528 2.087 . S
O527 C539 1.256 . S
Mn528 O527 2.087 . S
Mn528 O535 2.089 . S
Mn528 O544 2.290 . S
Mn528 O545 2.251 . S
O529 Mn526 2.160 . S
O529 C540 1.239 . S
O530 Mn526 2.221 . S
O530 Mn531 2.290 . S
O530 C541 1.278 . S
Mn531 O530 2.290 . S
Mn531 O533 2.089 . S
Mn531 O536 2.251 . S
Mn531 O537 2.087 . S
O532 Mn526 2.163 . S
O532 C542 1.244 . S
O533 Mn531 2.089 . S
O533 C540 1.256 . S
O534 Mn526 2.160 . S
O534 C543 1.239 . S
O535 Mn528 2.089 . S
O535 C543 1.256 . S
O536 Mn531 2.251 . S
O536 C541 1.241 . S
O537 Mn531 2.087 . S
O537 C542 1.256 . S
C538 O544 1.278 . S
C538 O545 1.241 . S
C539 O525 1.244 . S
C539 O527 1.256 . S
C540 O529 1.239 . S
C540 O533 1.256 . S
C541 O530 1.278 . S
C541 O536 1.241 . S
C542 O532 1.244 . S
C542 O537 1.256 . S
C543 O534 1.239 . S
C543 O535 1.256 . S
O544 Mn526 2.221 . S
O544 Mn528 2.290 . S
O544 C538 1.278 . S
O545 Mn528 2.251 . S
O545 C538 1.241 . S
O546 Mn547 2.163 . S
O546 C560 1.244 . S
Mn547 O546 2.163 . S
Mn547 O550 2.160 . S
Mn547 O551 2.221 . S
Mn547 O553 2.163 . S
Mn547 O555 2.160 . S
Mn547 O565 2.221 . S
O548 Mn549 2.087 . S
O548 C560 1.256 . S
Mn549 O548 2.087 . S
Mn549 O556 2.089 . S
Mn549 O565 2.290 . S
Mn549 O566 2.251 . S
O550 Mn547 2.160 . S
O550 C561 1.239 . S
O551 Mn547 2.221 . S
O551 Mn552 2.290 . S
O551 C562 1.278 . S
Mn552 O551 2.290 . S
Mn552 O554 2.089 . S
Mn552 O557 2.251 . S
Mn552 O558 2.087 . S
O553 Mn547 2.163 . S
O553 C563 1.244 . S
O554 Mn552 2.089 . S
O554 C561 1.256 . S
O555 Mn547 2.160 . S
O555 C564 1.239 . S
O556 Mn549 2.089 . S
O556 C564 1.256 . S
O557 Mn552 2.251 . S
O557 C562 1.241 . S
O558 Mn552 2.087 . S
O558 C563 1.256 . S
C559 O565 1.278 . S
C559 O566 1.241 . S
C560 O546 1.244 . S
C560 O548 1.256 . S
C561 O550 1.239 . S
C561 O554 1.256 . S
C562 O551 1.278 . S
C562 O557 1.241 . S
C563 O553 1.244 . S
C563 O558 1.256 . S
C564 O555 1.239 . S
C564 O556 1.256 . S
O565 Mn547 2.221 . S
O565 Mn549 2.290 . S
O565 C559 1.278 . S
O566 Mn549 2.251 . S
O566 C559 1.241 . S
O567 Mn568 2.163 . S
O567 C581 1.244 . S
Mn568 O567 2.163 . S
Mn568 O571 2.160 . S
Mn568 O572 2.221 . S
Mn568 O574 2.163 . S
Mn568 O576 2.160 . S
Mn568 O586 2.221 . S
O569 Mn570 2.087 . S
O569 C581 1.256 . S
Mn570 O569 2.087 . S
Mn570 O577 2.089 . S
Mn570 O586 2.290 . S
Mn570 O587 2.251 . S
O571 Mn568 2.160 . S
O571 C582 1.239 . S
O572 Mn568 2.221 . S
O572 Mn573 2.290 . S
O572 C583 1.278 . S
Mn573 O572 2.290 . S
Mn573 O575 2.089 . S
Mn573 O578 2.251 . S
Mn573 O579 2.087 . S
O574 Mn568 2.163 . S
O574 C584 1.244 . S
O575 Mn573 2.089 . S
O575 C582 1.256 . S
O576 Mn568 2.160 . S
O576 C585 1.239 . S
O577 Mn570 2.089 . S
O577 C585 1.256 . S
O578 Mn573 2.251 . S
O578 C583 1.241 . S
O579 Mn573 2.087 . S
O579 C584 1.256 . S
C580 O586 1.278 . S
C580 O587 1.241 . S
C581 O567 1.244 . S
C581 O569 1.256 . S
C582 O571 1.239 . S
C582 O575 1.256 . S
C583 O572 1.278 . S
C583 O578 1.241 . S
C584 O574 1.244 . S
C584 O579 1.256 . S
C585 O576 1.239 . S
C585 O577 1.256 . S
O586 Mn568 2.221 . S
O586 Mn570 2.290 . S
O586 C580 1.278 . S
O587 Mn570 2.251 . S
O587 C580 1.241 . S
O588 Mn589 2.163 . S
O588 C602 1.244 . S
Mn589 O588 2.163 . S
Mn589 O592 2.160 . S
Mn589 O593 2.221 . S
Mn589 O595 2.163 . S
Mn589 O597 2.160 . S
Mn589 O607 2.221 . S
O590 Mn591 2.087 . S
O590 C602 1.256 . S
Mn591 O590 2.087 . S
Mn591 O598 2.089 . S
Mn591 O607 2.290 . S
Mn591 O608 2.251 . S
O592 Mn589 2.160 . S
O592 C603 1.239 . S
O593 Mn589 2.221 . S
O593 Mn594 2.290 . S
O593 C604 1.278 . S
Mn594 O593 2.290 . S
Mn594 O596 2.089 . S
Mn594 O599 2.251 . S
Mn594 O600 2.087 . S
O595 Mn589 2.163 . S
O595 C605 1.244 . S
O596 Mn594 2.089 . S
O596 C603 1.256 . S
O597 Mn589 2.160 . S
O597 C606 1.239 . S
O598 Mn591 2.089 . S
O598 C606 1.256 . S
O599 Mn594 2.251 . S
O599 C604 1.241 . S
O600 Mn594 2.087 . S
O600 C605 1.256 . S
C601 O607 1.278 . S
C601 O608 1.241 . S
C602 O588 1.244 . S
C602 O590 1.256 . S
C603 O592 1.239 . S
C603 O596 1.256 . S
C604 O593 1.278 . S
C604 O599 1.241 . S
C605 O595 1.244 . S
C605 O600 1.256 . S
C606 O597 1.239 . S
C606 O598 1.256 . S
O607 Mn589 2.221 . S
O607 Mn591 2.290 . S
O607 C601 1.278 . S
O608 Mn591 2.251 . S
O608 C601 1.241 . S
O609 Mn610 2.163 . S
O609 C623 1.244 . S
Mn610 O609 2.163 . S
Mn610 O613 2.160 . S
Mn610 O614 2.221 . S
Mn610 O616 2.163 . S
Mn610 O618 2.160 . S
Mn610 O628 2.221 . S
O611 Mn612 2.087 . S
O611 C623 1.256 . S
Mn612 O611 2.087 . S
Mn612 O619 2.089 . S
Mn612 O628 2.290 . S
Mn612 O629 2.251 . S
O613 Mn610 2.160 . S
O613 C624 1.239 . S
O614 Mn610 2.221 . S
O614 Mn615 2.290 . S
O614 C625 1.278 . S
Mn615 O614 2.290 . S
Mn615 O617 2.089 . S
Mn615 O620 2.251 . S
Mn615 O621 2.087 . S
O616 Mn610 2.163 . S
O616 C626 1.244 . S
O617 Mn615 2.089 . S
O617 C624 1.256 . S
O618 Mn610 2.160 . S
O618 C627 1.239 . S
O619 Mn612 2.089 . S
O619 C627 1.256 . S
O620 Mn615 2.251 . S
O620 C625 1.241 . S
O621 Mn615 2.087 . S
O621 C626 1.256 . S
C622 O628 1.278 . S
C622 O629 1.241 . S
C623 O609 1.244 . S
C623 O611 1.256 . S
C624 O613 1.239 . S
C624 O617 1.256 . S
C625 O614 1.278 . S
C625 O620 1.241 . S
C626 O616 1.244 . S
C626 O621 1.256 . S
C627 O618 1.239 . S
C627 O619 1.256 . S
O628 Mn610 2.221 . S
O628 Mn612 2.290 . S
O628 C622 1.278 . S
O629 Mn612 2.251 . S
O629 C622 1.241 . S
O630 Mn631 2.163 . S
O630 C644 1.244 . S
Mn631 O630 2.163 . S
Mn631 O634 2.160 . S
Mn631 O635 2.221 . S
Mn631 O637 2.163 . S
Mn631 O639 2.160 . S
Mn631 O649 2.221 . S
O632 Mn633 2.087 . S
O632 C644 1.256 . S
Mn633 O632 2.087 . S
Mn633 O640 2.089 . S
Mn633 O649 2.290 . S
Mn633 O650 2.251 . S
O634 Mn631 2.160 . S
O634 C645 1.239 . S
O635 Mn631 2.221 . S
O635 Mn636 2.290 . S
O635 C646 1.278 . S
Mn636 O635 2.290 . S
Mn636 O638 2.089 . S
Mn636 O641 2.251 . S
Mn636 O642 2.087 . S
O637 Mn631 2.163 . S
O637 C647 1.244 . S
O638 Mn636 2.089 . S
O638 C645 1.256 . S
O639 Mn631 2.160 . S
O639 C648 1.239 . S
O640 Mn633 2.089 . S
O640 C648 1.256 . S
O641 Mn636 2.251 . S
O641 C646 1.241 . S
O642 Mn636 2.087 . S
O642 C647 1.256 . S
C643 O649 1.278 . S
C643 O650 1.241 . S
C644 O630 1.244 . S
C644 O632 1.256 . S
C645 O634 1.239 . S
C645 O638 1.256 . S
C646 O635 1.278 . S
C646 O641 1.241 . S
C647 O637 1.244 . S
C647 O642 1.256 . S
C648 O639 1.239 . S
C648 O640 1.256 . S
O649 Mn631 2.221 . S
O649 Mn633 2.290 . S
O649 C643 1.278 . S
O650 Mn633 2.251 . S
O650 C643 1.241 . S
O651 Mn652 2.163 . S
O651 C665 1.244 . S
Mn652 O651 2.163 . S
Mn652 O655 2.160 . S
Mn652 O656 2.221 . S
Mn652 O658 2.163 . S
Mn652 O660 2.160 . S
Mn652 O670 2.221 . S
O653 Mn654 2.087 . S
O653 C665 1.256 . S
Mn654 O653 2.087 . S
Mn654 O661 2.089 . S
Mn654 O670 2.290 . S
Mn654 O671 2.251 . S
O655 Mn652 2.160 . S
O655 C666 1.239 . S
O656 Mn652 2.221 . S
O656 Mn657 2.290 . S
O656 C667 1.278 . S
Mn657 O656 2.290 . S
Mn657 O659 2.089 . S
Mn657 O662 2.251 . S
Mn657 O663 2.087 . S
O658 Mn652 2.163 . S
O658 C668 1.244 . S
O659 Mn657 2.089 . S
O659 C666 1.256 . S
O660 Mn652 2.160 . S
O660 C669 1.239 . S
O661 Mn654 2.089 . S
O661 C669 1.256 . S
O662 Mn657 2.251 . S
O662 C667 1.241 . S
O663 Mn657 2.087 . S
O663 C668 1.256 . S
C664 O670 1.278 . S
C664 O671 1.241 . S
C665 O651 1.244 . S
C665 O653 1.256 . S
C666 O655 1.239 . S
C666 O659 1.256 . S
C667 O656 1.278 . S
C667 O662 1.241 . S
C668 O658 1.244 . S
C668 O663 1.256 . S
C669 O660 1.239 . S
C669 O661 1.256 . S
O670 Mn652 2.221 . S
O670 Mn654 2.290 . S
O670 C664 1.278 . S
O671 Mn654 2.251 . S
O671 C664 1.241 . S
H672 C684 0.930 . S
H673 C686 0.930 . S
H674 C687 0.930 . S
H675 C691 0.959 . S
H676 C691 0.959 . S
H677 C691 0.961 . S
H678 C692 0.960 . S
H679 C692 0.961 . S
H680 C692 0.959 . S
H681 C695 0.929 . S
H682 C696 0.931 . S
H683 C698 0.930 . S
C684 H672 0.930 . S
C684 C685 1.399 . S
C684 C689 1.399 . S
C685 C684 1.399 . S
C685 C686 1.376 . S
C686 H673 0.930 . S
C686 C685 1.376 . S
C686 C687 1.388 . S
C687 H674 0.930 . S
C687 C686 1.388 . S
C687 C688 1.390 . S
C688 C687 1.390 . S
C688 C689 1.394 . S
C688 C694 1.465 . S
C689 C684 1.399 . S
C689 C688 1.394 . S
C689 C690 1.516 . S
C690 C689 1.516 . S
C690 C691 1.502 . S
C690 C692 1.561 . S
C690 C693 1.526 . S
C691 H675 0.959 . S
C691 H676 0.959 . S
C691 H677 0.961 . S
C691 C690 1.502 . S
C692 H678 0.960 . S
C692 H679 0.961 . S
C692 H680 0.959 . S
C692 C690 1.561 . S
C693 C690 1.526 . S
C693 C694 1.396 . S
C693 C698 1.390 . S
C694 C688 1.465 . S
C694 C693 1.396 . S
C694 C695 1.399 . S
C695 H681 0.929 . S
C695 C694 1.399 . S
C695 C696 1.385 . S
C696 H682 0.931 . S
C696 C695 1.385 . S
C696 C697 1.389 . S
C697 C696 1.389 . S
C697 C698 1.387 . S
C698 H683 0.930 . S
C698 C693 1.390 . S
C698 C697 1.387 . S
H699 C711 0.930 . S
H700 C713 0.930 . S
H701 C714 0.930 . S
H702 C718 0.959 . S
H703 C718 0.959 . S
H704 C718 0.961 . S
H705 C719 0.960 . S
H706 C719 0.961 . S
H707 C719 0.959 . S
H708 C722 0.929 . S
H709 C723 0.931 . S
H710 C725 0.930 . S
C711 H699 0.930 . S
C711 C712 1.399 . S
C711 C716 1.399 . S
C712 C711 1.399 . S
C712 C713 1.376 . S
C713 H700 0.930 . S
C713 C712 1.376 . S
C713 C714 1.388 . S
C714 H701 0.930 . S
C714 C713 1.388 . S
C714 C715 1.390 . S
C715 C714 1.390 . S
C715 C716 1.394 . S
C715 C721 1.465 . S
C716 C711 1.399 . S
C716 C715 1.394 . S
C716 C717 1.516 . S
C717 C716 1.516 . S
C717 C718 1.502 . S
C717 C719 1.561 . S
C717 C720 1.526 . S
C718 H702 0.959 . S
C718 H703 0.959 . S
C718 H704 0.961 . S
C718 C717 1.502 . S
C719 H705 0.960 . S
C719 H706 0.961 . S
C719 H707 0.959 . S
C719 C717 1.561 . S
C720 C717 1.526 . S
C720 C721 1.396 . S
C720 C725 1.390 . S
C721 C715 1.465 . S
C721 C720 1.396 . S
C721 C722 1.399 . S
C722 H708 0.929 . S
C722 C721 1.399 . S
C722 C723 1.385 . S
C723 H709 0.931 . S
C723 C722 1.385 . S
C723 C724 1.389 . S
C724 C723 1.389 . S
C724 C725 1.387 . S
C725 H710 0.930 . S
C725 C720 1.390 . S
C725 C724 1.387 . S
H726 C738 0.930 . S
H727 C740 0.930 . S
H728 C741 0.930 . S
H729 C745 0.959 . S
H730 C745 0.959 . S
H731 C745 0.961 . S
H732 C746 0.960 . S
H733 C746 0.961 . S
H734 C746 0.959 . S
H735 C749 0.929 . S
H736 C750 0.931 . S
H737 C752 0.930 . S
C738 H726 0.930 . S
C738 C739 1.399 . S
C738 C743 1.399 . S
C739 C738 1.399 . S
C739 C740 1.376 . S
C740 H727 0.930 . S
C740 C739 1.376 . S
C740 C741 1.388 . S
C741 H728 0.930 . S
C741 C740 1.388 . S
C741 C742 1.390 . S
C742 C741 1.390 . S
C742 C743 1.394 . S
C742 C748 1.465 . S
C743 C738 1.399 . S
C743 C742 1.394 . S
C743 C744 1.516 . S
C744 C743 1.516 . S
C744 C745 1.502 . S
C744 C746 1.561 . S
C744 C747 1.526 . S
C745 H729 0.959 . S
C745 H730 0.959 . S
C745 H731 0.961 . S
C745 C744 1.502 . S
C746 H732 0.960 . S
C746 H733 0.961 . S
C746 H734 0.959 . S
C746 C744 1.561 . S
C747 C744 1.526 . S
C747 C748 1.396 . S
C747 C752 1.390 . S
C748 C742 1.465 . S
C748 C747 1.396 . S
C748 C749 1.399 . S
C749 H735 0.929 . S
C749 C748 1.399 . S
C749 C750 1.385 . S
C750 H736 0.931 . S
C750 C749 1.385 . S
C750 C751 1.389 . S
C751 C750 1.389 . S
C751 C752 1.387 . S
C752 H737 0.930 . S
C752 C747 1.390 . S
C752 C751 1.387 . S
H753 C765 0.930 . S
H754 C767 0.930 . S
H755 C768 0.930 . S
H756 C772 0.959 . S
H757 C772 0.959 1_556 S
H758 C772 0.961 . S
H759 C773 0.960 . S
H760 C773 0.961 . S
H761 C773 0.959 . S
H762 C776 0.929 . S
H763 C777 0.931 . S
H764 C779 0.930 . S
C765 H753 0.930 . S
C765 C766 1.399 . S
C765 C770 1.399 . S
C766 C765 1.399 . S
C766 C767 1.376 . S
C767 H754 0.930 . S
C767 C766 1.376 . S
C767 C768 1.388 . S
C768 H755 0.930 . S
C768 C767 1.388 . S
C768 C769 1.390 . S
C769 C768 1.390 . S
C769 C770 1.394 . S
C769 C775 1.465 . S
C770 C765 1.399 . S
C770 C769 1.394 . S
C770 C771 1.516 . S
C771 C770 1.516 . S
C771 C772 1.502 . S
C771 C773 1.561 . S
C771 C774 1.526 . S
C772 H756 0.959 . S
C772 H757 0.959 1_554 S
C772 H758 0.961 . S
C772 C771 1.502 . S
C773 H759 0.960 . S
C773 H760 0.961 . S
C773 H761 0.959 . S
C773 C771 1.561 . S
C774 C771 1.526 . S
C774 C775 1.396 . S
C774 C779 1.390 1_554 S
C775 C769 1.465 . S
C775 C774 1.396 . S
C775 C776 1.399 . S
C776 H762 0.929 . S
C776 C775 1.399 . S
C776 C777 1.385 1_554 S
C777 H763 0.931 . S
C777 C776 1.385 1_556 S
C777 C778 1.389 . S
C778 C777 1.389 . S
C778 C779 1.387 . S
C779 H764 0.930 . S
C779 C774 1.390 1_556 S
C779 C778 1.387 . S
H780 C792 0.930 . S
H781 C794 0.930 . S
H782 C795 0.930 . S
H783 C799 0.959 . S
H784 C799 0.959 . S
H785 C799 0.961 . S
H786 C800 0.960 . S
H787 C800 0.961 . S
H788 C800 0.959 . S
H789 C803 0.929 . S
H790 C804 0.931 . S
H791 C806 0.930 . S
C792 H780 0.930 . S
C792 C793 1.399 . S
C792 C797 1.399 . S
C793 C792 1.399 . S
C793 C794 1.376 . S
C794 H781 0.930 . S
C794 C793 1.376 . S
C794 C795 1.388 . S
C795 H782 0.930 . S
C795 C794 1.388 . S
C795 C796 1.390 . S
C796 C795 1.390 . S
C796 C797 1.394 . S
C796 C802 1.465 . S
C797 C792 1.399 . S
C797 C796 1.394 . S
C797 C798 1.516 . S
C798 C797 1.516 . S
C798 C799 1.502 . S
C798 C800 1.561 . S
C798 C801 1.526 . S
C799 H783 0.959 . S
C799 H784 0.959 . S
C799 H785 0.961 . S
C799 C798 1.502 . S
C800 H786 0.960 . S
C800 H787 0.961 . S
C800 H788 0.959 . S
C800 C798 1.561 . S
C801 C798 1.526 . S
C801 C802 1.396 . S
C801 C806 1.390 . S
C802 C796 1.465 . S
C802 C801 1.396 . S
C802 C803 1.399 . S
C803 H789 0.929 . S
C803 C802 1.399 . S
C803 C804 1.385 . S
C804 H790 0.931 . S
C804 C803 1.385 . S
C804 C805 1.389 . S
C805 C804 1.389 . S
C805 C806 1.387 . S
C806 H791 0.930 . S
C806 C801 1.390 . S
C806 C805 1.387 . S
H807 C819 0.930 . S
H808 C821 0.930 . S
H809 C822 0.930 . S
H810 C826 0.959 . S
H811 C826 0.959 . S
H812 C826 0.961 . S
H813 C827 0.960 . S
H814 C827 0.961 . S
H815 C827 0.959 . S
H816 C830 0.929 . S
H817 C831 0.931 . S
H818 C833 0.930 . S
C819 H807 0.930 . S
C819 C820 1.399 . S
C819 C824 1.399 . S
C820 C819 1.399 . S
C820 C821 1.376 . S
C821 H808 0.930 . S
C821 C820 1.376 . S
C821 C822 1.388 . S
C822 H809 0.930 . S
C822 C821 1.388 . S
C822 C823 1.390 . S
C823 C822 1.390 . S
C823 C824 1.394 . S
C823 C829 1.465 . S
C824 C819 1.399 . S
C824 C823 1.394 . S
C824 C825 1.516 . S
C825 C824 1.516 . S
C825 C826 1.502 . S
C825 C827 1.561 . S
C825 C828 1.526 . S
C826 H810 0.959 . S
C826 H811 0.959 . S
C826 H812 0.961 . S
C826 C825 1.502 . S
C827 H813 0.960 . S
C827 H814 0.961 . S
C827 H815 0.959 . S
C827 C825 1.561 . S
C828 C825 1.526 . S
C828 C829 1.396 . S
C828 C833 1.390 . S
C829 C823 1.465 . S
C829 C828 1.396 . S
C829 C830 1.399 . S
C830 H816 0.929 . S
C830 C829 1.399 . S
C830 C831 1.385 . S
C831 H817 0.931 . S
C831 C830 1.385 . S
C831 C832 1.389 . S
C832 C831 1.389 . S
C832 C833 1.387 . S
C833 H818 0.930 . S
C833 C828 1.390 . S
C833 C832 1.387 . S
H834 C846 0.930 . S
H835 C848 0.930 . S
H836 C849 0.930 . S
H837 C853 0.959 . S
H838 C853 0.959 . S
H839 C853 0.961 . S
H840 C854 0.960 . S
H841 C854 0.961 . S
H842 C854 0.959 . S
H843 C857 0.929 . S
H844 C858 0.931 . S
H845 C860 0.930 . S
C846 H834 0.930 . S
C846 C847 1.399 . S
C846 C851 1.399 . S
C847 C846 1.399 . S
C847 C848 1.376 . S
C848 H835 0.930 . S
C848 C847 1.376 . S
C848 C849 1.388 . S
C849 H836 0.930 . S
C849 C848 1.388 . S
C849 C850 1.390 . S
C850 C849 1.390 . S
C850 C851 1.394 . S
C850 C856 1.465 . S
C851 C846 1.399 . S
C851 C850 1.394 . S
C851 C852 1.516 . S
C852 C851 1.516 . S
C852 C853 1.502 . S
C852 C854 1.561 . S
C852 C855 1.526 . S
C853 H837 0.959 . S
C853 H838 0.959 . S
C853 H839 0.961 . S
C853 C852 1.502 . S
C854 H840 0.960 . S
C854 H841 0.961 . S
C854 H842 0.959 . S
C854 C852 1.561 . S
C855 C852 1.526 . S
C855 C856 1.396 . S
C855 C860 1.390 . S
C856 C850 1.465 . S
C856 C855 1.396 . S
C856 C857 1.399 . S
C857 H843 0.929 . S
C857 C856 1.399 . S
C857 C858 1.385 . S
C858 H844 0.931 . S
C858 C857 1.385 . S
C858 C859 1.389 . S
C859 C858 1.389 . S
C859 C860 1.387 . S
C860 H845 0.930 . S
C860 C855 1.390 . S
C860 C859 1.387 . S
H861 C873 0.930 . S
H862 C875 0.930 . S
H863 C876 0.930 1_554 S
H864 C880 0.959 1_554 S
H865 C880 0.959 1_554 S
H866 C880 0.961 . S
H867 C881 0.960 . S
H868 C881 0.961 . S
H869 C881 0.959 . S
H870 C884 0.929 . S
H871 C885 0.931 . S
H872 C887 0.930 . S
C873 H861 0.930 . S
C873 C874 1.399 . S
C873 C878 1.399 . S
C874 C873 1.399 . S
C874 C875 1.376 . S
C875 H862 0.930 . S
C875 C874 1.376 . S
C875 C876 1.388 . S
C876 H863 0.930 1_556 S
C876 C875 1.388 . S
C876 C877 1.390 1_556 S
C877 C876 1.390 1_554 S
C877 C878 1.394 1_554 S
C877 C883 1.465 . S
C878 C873 1.399 . S
C878 C877 1.394 1_556 S
C878 C879 1.516 . S
C879 C878 1.516 . S
C879 C880 1.502 . S
C879 C881 1.561 . S
C879 C882 1.526 1_556 S
C880 H864 0.959 1_556 S
C880 H865 0.959 1_556 S
C880 H866 0.961 . S
C880 C879 1.502 . S
C881 H867 0.960 . S
C881 H868 0.961 . S
C881 H869 0.959 . S
C881 C879 1.561 . S
C882 C879 1.526 1_554 S
C882 C883 1.396 . S
C882 C887 1.390 . S
C883 C877 1.465 . S
C883 C882 1.396 . S
C883 C884 1.399 . S
C884 H870 0.929 . S
C884 C883 1.399 . S
C884 C885 1.385 . S
C885 H871 0.931 . S
C885 C884 1.385 . S
C885 C886 1.389 . S
C886 C885 1.389 . S
C886 C887 1.387 . S
C887 H872 0.930 . S
C887 C882 1.390 . S
C887 C886 1.387 . S
H888 C900 0.930 . S
H889 C902 0.930 . S
H890 C903 0.930 . S
H891 C907 0.959 . S
H892 C907 0.959 . S
H893 C907 0.961 . S
H894 C908 0.960 . S
H895 C908 0.961 . S
H896 C908 0.959 . S
H897 C911 0.929 . S
H898 C912 0.931 . S
H899 C914 0.930 . S
C900 H888 0.930 . S
C900 C901 1.399 . S
C900 C905 1.399 . S
C901 C900 1.399 . S
C901 C902 1.376 . S
C902 H889 0.930 . S
C902 C901 1.376 . S
C902 C903 1.388 . S
C903 H890 0.930 . S
C903 C902 1.388 . S
C903 C904 1.390 . S
C904 C903 1.390 . S
C904 C905 1.394 . S
C904 C910 1.465 . S
C905 C900 1.399 . S
C905 C904 1.394 . S
C905 C906 1.516 . S
C906 C905 1.516 . S
C906 C907 1.502 . S
C906 C908 1.561 . S
C906 C909 1.526 . S
C907 H891 0.959 . S
C907 H892 0.959 . S
C907 H893 0.961 . S
C907 C906 1.502 . S
C908 H894 0.960 . S
C908 H895 0.961 . S
C908 H896 0.959 . S
C908 C906 1.561 . S
C909 C906 1.526 . S
C909 C910 1.396 . S
C909 C914 1.390 . S
C910 C904 1.465 . S
C910 C909 1.396 . S
C910 C911 1.399 . S
C911 H897 0.929 . S
C911 C910 1.399 . S
C911 C912 1.385 . S
C912 H898 0.931 . S
C912 C911 1.385 . S
C912 C913 1.389 . S
C913 C912 1.389 . S
C913 C914 1.387 . S
C914 H899 0.930 . S
C914 C909 1.390 . S
C914 C913 1.387 . S
H915 C927 0.930 . S
H916 C929 0.930 . S
H917 C930 0.930 . S
H918 C934 0.959 . S
H919 C934 0.959 . S
H920 C934 0.961 . S
H921 C935 0.960 . S
H922 C935 0.961 . S
H923 C935 0.959 . S
H924 C938 0.929 . S
H925 C939 0.931 . S
H926 C941 0.930 . S
C927 H915 0.930 . S
C927 C928 1.399 . S
C927 C932 1.399 . S
C928 C927 1.399 . S
C928 C929 1.376 . S
C929 H916 0.930 . S
C929 C928 1.376 . S
C929 C930 1.388 . S
C930 H917 0.930 . S
C930 C929 1.388 . S
C930 C931 1.390 . S
C931 C930 1.390 . S
C931 C932 1.394 . S
C931 C937 1.465 . S
C932 C927 1.399 . S
C932 C931 1.394 . S
C932 C933 1.516 . S
C933 C932 1.516 . S
C933 C934 1.502 . S
C933 C935 1.561 . S
C933 C936 1.526 . S
C934 H918 0.959 . S
C934 H919 0.959 . S
C934 H920 0.961 . S
C934 C933 1.502 . S
C935 H921 0.960 . S
C935 H922 0.961 . S
C935 H923 0.959 . S
C935 C933 1.561 . S
C936 C933 1.526 . S
C936 C937 1.396 . S
C936 C941 1.390 1_545 S
C937 C931 1.465 . S
C937 C936 1.396 . S
C937 C938 1.399 1_545 S
C938 H924 0.929 . S
C938 C937 1.399 1_565 S
C938 C939 1.385 . S
C939 H925 0.931 . S
C939 C938 1.385 . S
C939 C940 1.389 . S
C940 C939 1.389 . S
C940 C941 1.387 . S
C941 H926 0.930 . S
C941 C936 1.390 1_565 S
C941 C940 1.387 . S
H942 C954 0.930 . S
H943 C956 0.930 . S
H944 C957 0.930 . S
H945 C961 0.959 . S
H946 C961 0.959 . S
H947 C961 0.961 . S
H948 C962 0.960 . S
H949 C962 0.961 . S
H950 C962 0.959 1_545 S
H951 C965 0.929 1_545 S
H952 C966 0.931 . S
H953 C968 0.930 . S
C954 H942 0.930 . S
C954 C955 1.399 . S
C954 C959 1.399 1_545 S
C955 C954 1.399 . S
C955 C956 1.376 . S
C956 H943 0.930 . S
C956 C955 1.376 . S
C956 C957 1.388 . S
C957 H944 0.930 . S
C957 C956 1.388 . S
C957 C958 1.390 . S
C958 C957 1.390 . S
C958 C959 1.394 1_545 S
C958 C964 1.465 1_545 S
C959 C954 1.399 1_565 S
C959 C958 1.394 1_565 S
C959 C960 1.516 . S
C960 C959 1.516 . S
C960 C961 1.502 . S
C960 C962 1.561 . S
C960 C963 1.526 . S
C961 H945 0.959 . S
C961 H946 0.959 . S
C961 H947 0.961 . S
C961 C960 1.502 . S
C962 H948 0.960 . S
C962 H949 0.961 . S
C962 H950 0.959 1_565 S
C962 C960 1.561 . S
C963 C960 1.526 . S
C963 C964 1.396 . S
C963 C968 1.390 . S
C964 C958 1.465 1_565 S
C964 C963 1.396 . S
C964 C965 1.399 . S
C965 H951 0.929 1_565 S
C965 C964 1.399 . S
C965 C966 1.385 . S
C966 H952 0.931 . S
C966 C965 1.385 . S
C966 C967 1.389 . S
C967 C966 1.389 . S
C967 C968 1.387 . S
C968 H953 0.930 . S
C968 C963 1.390 . S
C968 C967 1.387 . S
H969 C981 0.930 . S
H970 C983 0.958 . S
H971 C984 0.930 . S
H972 C988 0.959 . S
H973 C988 0.959 . S
H974 C988 0.958 1_565 S
H975 C989 0.960 . S
H976 C989 0.961 . S
H977 C989 0.959 . S
H978 C992 0.929 1_554 S
H979 C993 0.931 . S
H980 C995 0.930 . S
C981 H969 0.930 . S
C981 C982 1.399 . S
C981 C986 1.399 1_565 S
C982 C981 1.399 . S
C982 C983 1.350 1_556 S
C983 H970 0.958 . S
C983 C982 1.350 1_554 S
C983 C984 1.389 1_565 S
C984 H971 0.930 . S
C984 C983 1.389 1_545 S
C984 C985 1.390 1_554 S
C985 C984 1.390 1_556 S
C985 C986 1.394 . S
C985 C991 1.465 . S
C986 C981 1.399 1_545 S
C986 C985 1.394 . S
C986 C987 1.516 . S
C987 C986 1.516 . S
C987 C988 1.502 . S
C987 C989 1.561 . S
C987 C990 1.526 . S
C988 H972 0.959 . S
C988 H973 0.959 . S
C988 H974 0.958 1_545 S
C988 C987 1.502 . S
C989 H975 0.960 . S
C989 H976 0.961 . S
C989 H977 0.959 . S
C989 C987 1.561 . S
C990 C987 1.526 . S
C990 C991 1.396 . S
C990 C995 1.390 . S
C991 C985 1.465 . S
C991 C990 1.396 . S
C991 C992 1.399 . S
C992 H978 0.929 1_556 S
C992 C991 1.399 . S
C992 C993 1.385 . S
C993 H979 0.931 . S
C993 C992 1.385 . S
C993 C994 1.389 . S
C994 C993 1.389 . S
C994 C995 1.387 . S
C995 H980 0.930 . S
C995 C990 1.390 . S
C995 C994 1.387 . S
H996 C1008 0.930 . S
H997 C1010 0.930 . S
H998 C1011 0.930 . S
H999 C1015 0.959 . S
H1000 C1015 0.959 . S
H1001 C1015 0.961 . S
H1002 C1016 0.960 . S
H1003 C1016 0.961 . S
H1004 C1016 0.959 . S
H1005 C1019 0.929 . S
H1006 C1020 0.931 . S
H1007 C1022 0.930 . S
C1008 H996 0.930 . S
C1008 C1009 1.399 . S
C1008 C1013 1.399 . S
C1009 C1008 1.399 . S
C1009 C1010 1.376 . S
C1010 H997 0.930 . S
C1010 C1009 1.376 . S
C1010 C1011 1.388 . S
C1011 H998 0.930 . S
C1011 C1010 1.388 . S
C1011 C1012 1.390 . S
C1012 C1011 1.390 . S
C1012 C1013 1.394 . S
C1012 C1018 1.465 . S
C1013 C1008 1.399 . S
C1013 C1012 1.394 . S
C1013 C1014 1.516 . S
C1014 C1013 1.516 . S
C1014 C1015 1.502 . S
C1014 C1016 1.561 1_565 S
C1014 C1017 1.526 . S
C1015 H999 0.959 . S
C1015 H1000 0.959 . S
C1015 H1001 0.961 . S
C1015 C1014 1.502 . S
C1016 H1002 0.960 . S
C1016 H1003 0.961 . S
C1016 H1004 0.959 . S
C1016 C1014 1.561 1_545 S
C1017 C1014 1.526 . S
C1017 C1018 1.396 . S
C1017 C1022 1.390 . S
C1018 C1012 1.465 . S
C1018 C1017 1.396 . S
C1018 C1019 1.399 . S
C1019 H1005 0.929 . S
C1019 C1018 1.399 . S
C1019 C1020 1.385 . S
C1020 H1006 0.931 . S
C1020 C1019 1.385 . S
C1020 C1021 1.389 . S
C1021 C1020 1.389 . S
C1021 C1022 1.387 . S
C1022 H1007 0.930 . S
C1022 C1017 1.390 . S
C1022 C1021 1.387 . S
H1023 C1035 0.930 . S
H1024 C1037 0.930 . S
H1025 C1038 0.930 . S
H1026 C1042 0.959 . S
H1027 C1042 0.959 . S
H1028 C1042 0.961 . S
H1029 C1043 0.960 . S
H1030 C1043 0.961 . S
H1031 C1043 0.959 . S
H1032 C1046 0.929 . S
H1033 C1047 0.931 . S
H1034 C1049 0.930 . S
C1035 H1023 0.930 . S
C1035 C1036 1.399 . S
C1035 C1040 1.399 . S
C1036 C1035 1.399 . S
C1036 C1037 1.376 . S
C1037 H1024 0.930 . S
C1037 C1036 1.376 . S
C1037 C1038 1.388 . S
C1038 H1025 0.930 . S
C1038 C1037 1.388 . S
C1038 C1039 1.390 . S
C1039 C1038 1.390 . S
C1039 C1040 1.394 . S
C1039 C1045 1.465 . S
C1040 C1035 1.399 . S
C1040 C1039 1.394 . S
C1040 C1041 1.516 . S
C1041 C1040 1.516 . S
C1041 C1042 1.502 . S
C1041 C1043 1.561 . S
C1041 C1044 1.526 . S
C1042 H1026 0.959 . S
C1042 H1027 0.959 . S
C1042 H1028 0.961 . S
C1042 C1041 1.502 . S
C1043 H1029 0.960 . S
C1043 H1030 0.961 . S
C1043 H1031 0.959 . S
C1043 C1041 1.561 . S
C1044 C1041 1.526 . S
C1044 C1045 1.396 . S
C1044 C1049 1.390 . S
C1045 C1039 1.465 . S
C1045 C1044 1.396 . S
C1045 C1046 1.399 1_545 S
C1046 H1032 0.929 . S
C1046 C1045 1.399 1_565 S
C1046 C1047 1.385 . S
C1047 H1033 0.931 . S
C1047 C1046 1.385 . S
C1047 C1048 1.389 . S
C1048 C1047 1.389 . S
C1048 C1049 1.387 1_565 S
C1049 H1034 0.930 . S
C1049 C1044 1.390 . S
C1049 C1048 1.387 1_545 S
H1050 C1062 0.930 . S
H1051 C1064 0.930 . S
H1052 C1065 0.930 . S
H1053 C1069 0.959 . S
H1054 C1069 0.959 . S
H1055 C1069 0.961 . S
H1056 C1070 0.960 . S
H1057 C1070 0.961 . S
H1058 C1070 0.959 . S
H1059 C1073 0.929 . S
H1060 C1074 0.931 . S
H1061 C1076 0.930 . S
C1062 H1050 0.930 . S
C1062 C1063 1.399 . S
C1062 C1067 1.399 . S
C1063 C1062 1.399 . S
C1063 C1064 1.376 . S
C1064 H1051 0.930 . S
C1064 C1063 1.376 . S
C1064 C1065 1.388 . S
C1065 H1052 0.930 . S
C1065 C1064 1.388 . S
C1065 C1066 1.390 . S
C1066 C1065 1.390 . S
C1066 C1067 1.394 . S
C1066 C1072 1.465 . S
C1067 C1062 1.399 . S
C1067 C1066 1.394 . S
C1067 C1068 1.516 . S
C1068 C1067 1.516 . S
C1068 C1069 1.502 . S
C1068 C1070 1.561 . S
C1068 C1071 1.526 . S
C1069 H1053 0.959 . S
C1069 H1054 0.959 . S
C1069 H1055 0.961 . S
C1069 C1068 1.502 . S
C1070 H1056 0.960 . S
C1070 H1057 0.961 . S
C1070 H1058 0.959 . S
C1070 C1068 1.561 . S
C1071 C1068 1.526 . S
C1071 C1072 1.396 . S
C1071 C1076 1.390 . S
C1072 C1066 1.465 . S
C1072 C1071 1.396 . S
C1072 C1073 1.399 . S
C1073 H1059 0.929 . S
C1073 C1072 1.399 . S
C1073 C1074 1.385 . S
C1074 H1060 0.931 . S
C1074 C1073 1.385 . S
C1074 C1075 1.389 . S
C1075 C1074 1.389 . S
C1075 C1076 1.387 . S
C1076 H1061 0.930 . S
C1076 C1071 1.390 . S
C1076 C1075 1.387 . S
H1077 C1089 0.930 . S
H1078 C1091 0.930 . S
H1079 C1092 0.930 . S
H1080 C1096 0.959 . S
H1081 C1096 0.959 . S
H1082 C1096 0.961 . S
H1083 C1097 0.960 . S
H1084 C1097 0.961 . S
H1085 C1097 0.959 . S
H1086 C1100 0.929 . S
H1087 C1101 0.931 . S
H1088 C1103 0.930 . S
C1089 H1077 0.930 . S
C1089 C1090 1.399 . S
C1089 C1094 1.399 1_565 S
C1090 C1089 1.399 . S
C1090 C1091 1.376 . S
C1091 H1078 0.930 . S
C1091 C1090 1.376 . S
C1091 C1092 1.388 . S
C1092 H1079 0.930 . S
C1092 C1091 1.388 . S
C1092 C1093 1.390 1_565 S
C1093 C1092 1.390 1_545 S
C1093 C1094 1.394 . S
C1093 C1099 1.465 . S
C1094 C1089 1.399 1_545 S
C1094 C1093 1.394 . S
C1094 C1095 1.516 . S
C1095 C1094 1.516 . S
C1095 C1096 1.502 . S
C1095 C1097 1.561 . S
C1095 C1098 1.526 . S
C1096 H1080 0.959 . S
C1096 H1081 0.959 . S
C1096 H1082 0.961 . S
C1096 C1095 1.502 . S
C1097 H1083 0.960 . S
C1097 H1084 0.961 . S
C1097 H1085 0.959 . S
C1097 C1095 1.561 . S
C1098 C1095 1.526 . S
C1098 C1099 1.396 . S
C1098 C1103 1.390 . S
C1099 C1093 1.465 . S
C1099 C1098 1.396 . S
C1099 C1100 1.399 . S
C1100 H1086 0.929 . S
C1100 C1099 1.399 . S
C1100 C1101 1.385 . S
C1101 H1087 0.931 . S
C1101 C1100 1.385 . S
C1101 C1102 1.389 . S
C1102 C1101 1.389 . S
C1102 C1103 1.387 . S
C1103 H1088 0.930 . S
C1103 C1098 1.390 . S
C1103 C1102 1.387 . S
H1104 C1116 0.930 . S
H1105 C1118 0.930 . S
H1106 C1119 0.930 . S
H1107 C1123 0.959 . S
H1108 C1123 0.959 . S
H1109 C1123 0.961 . S
H1110 C1124 0.960 . S
H1111 C1124 0.961 . S
H1112 C1124 0.959 . S
H1113 C1127 0.929 . S
H1114 C1128 0.931 . S
H1115 C1130 0.930 . S
C1116 H1104 0.930 . S
C1116 C1117 1.399 . S
C1116 C1121 1.399 . S
C1117 C1116 1.399 . S
C1117 C1118 1.376 . S
C1118 H1105 0.930 . S
C1118 C1117 1.376 . S
C1118 C1119 1.388 . S
C1119 H1106 0.930 . S
C1119 C1118 1.388 . S
C1119 C1120 1.390 . S
C1120 C1119 1.390 . S
C1120 C1121 1.394 . S
C1120 C1126 1.465 . S
C1121 C1116 1.399 . S
C1121 C1120 1.394 . S
C1121 C1122 1.516 . S
C1122 C1121 1.516 . S
C1122 C1123 1.502 . S
C1122 C1124 1.561 . S
C1122 C1125 1.526 . S
C1123 H1107 0.959 . S
C1123 H1108 0.959 . S
C1123 H1109 0.961 . S
C1123 C1122 1.502 . S
C1124 H1110 0.960 . S
C1124 H1111 0.961 . S
C1124 H1112 0.959 . S
C1124 C1122 1.561 . S
C1125 C1122 1.526 . S
C1125 C1126 1.396 . S
C1125 C1130 1.390 . S
C1126 C1120 1.465 . S
C1126 C1125 1.396 . S
C1126 C1127 1.399 . S
C1127 H1113 0.929 . S
C1127 C1126 1.399 . S
C1127 C1128 1.385 . S
C1128 H1114 0.931 . S
C1128 C1127 1.385 . S
C1128 C1129 1.389 . S
C1129 C1128 1.389 . S
C1129 C1130 1.387 . S
C1130 H1115 0.930 . S
C1130 C1125 1.390 . S
C1130 C1129 1.387 . S
H1131 C1143 0.930 1_554 S
H1132 C1145 0.930 . S
H1133 C1146 0.930 . S
H1134 C1150 0.959 . S
H1135 C1150 0.959 1_554 S
H1136 C1150 0.961 1_554 S
H1137 C1151 0.960 1_554 S
H1138 C1151 0.961 . S
H1139 C1151 0.959 . S
H1140 C1154 0.929 . S
H1141 C1155 0.931 . S
H1142 C1157 0.930 . S
C1143 H1131 0.930 1_556 S
C1143 C1144 1.399 . S
C1143 C1148 1.399 . S
C1144 C1143 1.399 . S
C1144 C1145 1.376 . S
C1145 H1132 0.930 . S
C1145 C1144 1.376 . S
C1145 C1146 1.388 . S
C1146 H1133 0.930 . S
C1146 C1145 1.388 . S
C1146 C1147 1.390 . S
C1147 C1146 1.390 . S
C1147 C1148 1.394 . S
C1147 C1153 1.465 . S
C1148 C1143 1.399 . S
C1148 C1147 1.394 . S
C1148 C1149 1.516 . S
C1149 C1148 1.516 . S
C1149 C1150 1.502 . S
C1149 C1151 1.561 . S
C1149 C1152 1.526 . S
C1150 H1134 0.959 . S
C1150 H1135 0.959 1_556 S
C1150 H1136 0.961 1_556 S
C1150 C1149 1.502 . S
C1151 H1137 0.960 1_556 S
C1151 H1138 0.961 . S
C1151 H1139 0.959 . S
C1151 C1149 1.561 . S
C1152 C1149 1.526 . S
C1152 C1153 1.396 . S
C1152 C1157 1.390 . S
C1153 C1147 1.465 . S
C1153 C1152 1.396 . S
C1153 C1154 1.399 . S
C1154 H1140 0.929 . S
C1154 C1153 1.399 . S
C1154 C1155 1.385 . S
C1155 H1141 0.931 . S
C1155 C1154 1.385 . S
C1155 C1156 1.389 . S
C1156 C1155 1.389 . S
C1156 C1157 1.387 . S
C1157 H1142 0.930 . S
C1157 C1152 1.390 . S
C1157 C1156 1.387 . S
H1158 C1170 0.930 . S
H1159 C1172 0.930 . S
H1160 C1173 0.930 . S
H1161 C1177 0.959 . S
H1162 C1177 0.959 . S
H1163 C1177 0.961 . S
H1164 C1178 0.960 . S
H1165 C1178 0.961 . S
H1166 C1178 0.959 . S
H1167 C1181 0.929 . S
H1168 C1182 0.931 . S
H1169 C1184 0.930 . S
C1170 H1158 0.930 . S
C1170 C1171 1.399 . S
C1170 C1175 1.399 . S
C1171 C1170 1.399 . S
C1171 C1172 1.376 . S
C1172 H1159 0.930 . S
C1172 C1171 1.376 . S
C1172 C1173 1.388 . S
C1173 H1160 0.930 . S
C1173 C1172 1.388 . S
C1173 C1174 1.390 . S
C1174 C1173 1.390 . S
C1174 C1175 1.394 . S
C1174 C1180 1.465 . S
C1175 C1170 1.399 . S
C1175 C1174 1.394 . S
C1175 C1176 1.516 . S
C1176 C1175 1.516 . S
C1176 C1177 1.502 . S
C1176 C1178 1.561 . S
C1176 C1179 1.526 . S
C1177 H1161 0.959 . S
C1177 H1162 0.959 . S
C1177 H1163 0.961 . S
C1177 C1176 1.502 . S
C1178 H1164 0.960 . S
C1178 H1165 0.961 . S
C1178 H1166 0.959 . S
C1178 C1176 1.561 . S
C1179 C1176 1.526 . S
C1179 C1180 1.396 . S
C1179 C1184 1.390 1_455 S
C1180 C1174 1.465 . S
C1180 C1179 1.396 . S
C1180 C1181 1.399 1_455 S
C1181 H1167 0.929 . S
C1181 C1180 1.399 1_655 S
C1181 C1182 1.385 . S
C1182 H1168 0.931 . S
C1182 C1181 1.385 . S
C1182 C1183 1.389 . S
C1183 C1182 1.389 . S
C1183 C1184 1.387 . S
C1184 H1169 0.930 . S
C1184 C1179 1.390 1_655 S
C1184 C1183 1.387 . S
H1185 C1197 0.930 . S
H1186 C1199 0.930 . S
H1187 C1200 0.930 . S
H1188 C1204 0.959 . S
H1189 C1204 0.959 . S
H1190 C1204 0.961 . S
H1191 C1205 0.960 . S
H1192 C1205 0.961 . S
H1193 C1205 0.959 . S
H1194 C1208 0.929 . S
H1195 C1209 0.931 . S
H1196 C1211 0.930 . S
C1197 H1185 0.930 . S
C1197 C1198 1.399 . S
C1197 C1202 1.399 . S
C1198 C1197 1.399 . S
C1198 C1199 1.376 . S
C1199 H1186 0.930 . S
C1199 C1198 1.376 . S
C1199 C1200 1.388 . S
C1200 H1187 0.930 . S
C1200 C1199 1.388 . S
C1200 C1201 1.390 . S
C1201 C1200 1.390 . S
C1201 C1202 1.394 . S
C1201 C1207 1.465 . S
C1202 C1197 1.399 . S
C1202 C1201 1.394 . S
C1202 C1203 1.516 . S
C1203 C1202 1.516 . S
C1203 C1204 1.502 . S
C1203 C1205 1.561 . S
C1203 C1206 1.526 . S
C1204 H1188 0.959 . S
C1204 H1189 0.959 . S
C1204 H1190 0.961 . S
C1204 C1203 1.502 . S
C1205 H1191 0.960 . S
C1205 H1192 0.961 . S
C1205 H1193 0.959 . S
C1205 C1203 1.561 . S
C1206 C1203 1.526 . S
C1206 C1207 1.396 . S
C1206 C1211 1.390 . S
C1207 C1201 1.465 . S
C1207 C1206 1.396 . S
C1207 C1208 1.399 . S
C1208 H1194 0.929 . S
C1208 C1207 1.399 . S
C1208 C1209 1.385 . S
C1209 H1195 0.931 . S
C1209 C1208 1.385 . S
C1209 C1210 1.389 . S
C1210 C1209 1.389 . S
C1210 C1211 1.387 . S
C1211 H1196 0.930 . S
C1211 C1206 1.390 . S
C1211 C1210 1.387 . S
H1212 C1224 0.930 . S
H1213 C1226 0.930 . S
H1214 C1227 0.930 . S
H1215 C1231 0.959 1_655 S
H1216 C1231 0.959 . S
H1217 C1231 0.961 1_655 S
H1218 C1232 0.960 . S
H1219 C1232 0.961 . S
H1220 C1232 0.959 . S
H1221 C1235 0.929 . S
H1222 C1236 0.931 . S
H1223 C1238 0.930 . S
C1224 H1212 0.930 . S
C1224 C1225 1.399 . S
C1224 C1229 1.399 . S
C1225 C1224 1.399 . S
C1225 C1226 1.376 . S
C1226 H1213 0.930 . S
C1226 C1225 1.376 . S
C1226 C1227 1.388 . S
C1227 H1214 0.930 . S
C1227 C1226 1.388 . S
C1227 C1228 1.390 . S
C1228 C1227 1.390 . S
C1228 C1229 1.394 . S
C1228 C1234 1.465 1_655 S
C1229 C1224 1.399 . S
C1229 C1228 1.394 . S
C1229 C1230 1.516 1_655 S
C1230 C1229 1.516 1_455 S
C1230 C1231 1.502 . S
C1230 C1232 1.561 . S
C1230 C1233 1.526 . S
C1231 H1215 0.959 1_455 S
C1231 H1216 0.959 . S
C1231 H1217 0.961 1_455 S
C1231 C1230 1.502 . S
C1232 H1218 0.960 . S
C1232 H1219 0.961 . S
C1232 H1220 0.959 . S
C1232 C1230 1.561 . S
C1233 C1230 1.526 . S
C1233 C1234 1.396 . S
C1233 C1238 1.390 . S
C1234 C1228 1.465 1_455 S
C1234 C1233 1.396 . S
C1234 C1235 1.399 . S
C1235 H1221 0.929 . S
C1235 C1234 1.399 . S
C1235 C1236 1.385 . S
C1236 H1222 0.931 . S
C1236 C1235 1.385 . S
C1236 C1237 1.389 . S
C1237 C1236 1.389 . S
C1237 C1238 1.387 . S
C1238 H1223 0.930 . S
C1238 C1233 1.390 . S
C1238 C1237 1.387 . S
H1239 C1251 0.930 . S
H1240 C1253 0.930 . S
H1241 C1254 0.930 . S
H1242 C1258 0.959 . S
H1243 C1258 0.959 . S
H1244 C1258 0.961 . S
H1245 C1259 0.960 . S
H1246 C1259 0.961 . S
H1247 C1259 0.959 . S
H1248 C1262 0.929 . S
H1249 C1263 0.931 . S
H1250 C1265 0.930 . S
C1251 H1239 0.930 . S
C1251 C1252 1.399 . S
C1251 C1256 1.399 . S
C1252 C1251 1.399 . S
C1252 C1253 1.376 . S
C1253 H1240 0.930 . S
C1253 C1252 1.376 . S
C1253 C1254 1.388 . S
C1254 H1241 0.930 . S
C1254 C1253 1.388 . S
C1254 C1255 1.390 . S
C1255 C1254 1.390 . S
C1255 C1256 1.394 . S
C1255 C1261 1.465 . S
C1256 C1251 1.399 . S
C1256 C1255 1.394 . S
C1256 C1257 1.516 . S
C1257 C1256 1.516 . S
C1257 C1258 1.502 . S
C1257 C1259 1.561 . S
C1257 C1260 1.526 . S
C1258 H1242 0.959 . S
C1258 H1243 0.959 . S
C1258 H1244 0.961 . S
C1258 C1257 1.502 . S
C1259 H1245 0.960 . S
C1259 H1246 0.961 . S
C1259 H1247 0.959 . S
C1259 C1257 1.561 . S
C1260 C1257 1.526 . S
C1260 C1261 1.396 . S
C1260 C1265 1.390 . S
C1261 C1255 1.465 . S
C1261 C1260 1.396 . S
C1261 C1262 1.399 . S
C1262 H1248 0.929 . S
C1262 C1261 1.399 . S
C1262 C1263 1.385 . S
C1263 H1249 0.931 . S
C1263 C1262 1.385 . S
C1263 C1264 1.389 . S
C1264 C1263 1.389 . S
C1264 C1265 1.387 . S
C1265 H1250 0.930 . S
C1265 C1260 1.390 . S
C1265 C1264 1.387 . S
H1266 C1278 0.930 . S
H1267 C1280 0.930 . S
H1268 C1281 0.930 . S
H1269 C1285 0.959 . S
H1270 C1285 0.959 . S
H1271 C1285 0.961 . S
H1272 C1286 0.960 . S
H1273 C1286 0.961 . S
H1274 C1286 0.959 . S
H1275 C1289 0.929 . S
H1276 C1290 0.931 . S
H1277 C1292 0.930 . S
C1278 H1266 0.930 . S
C1278 C1279 1.399 . S
C1278 C1283 1.399 . S
C1279 C1278 1.399 . S
C1279 C1280 1.376 . S
C1280 H1267 0.930 . S
C1280 C1279 1.376 . S
C1280 C1281 1.388 . S
C1281 H1268 0.930 . S
C1281 C1280 1.388 . S
C1281 C1282 1.390 . S
C1282 C1281 1.390 . S
C1282 C1283 1.394 . S
C1282 C1288 1.465 1_455 S
C1283 C1278 1.399 . S
C1283 C1282 1.394 . S
C1283 C1284 1.516 . S
C1284 C1283 1.516 . S
C1284 C1285 1.502 . S
C1284 C1286 1.561 . S
C1284 C1287 1.526 1_455 S
C1285 H1269 0.959 . S
C1285 H1270 0.959 . S
C1285 H1271 0.961 . S
C1285 C1284 1.502 . S
C1286 H1272 0.960 . S
C1286 H1273 0.961 . S
C1286 H1274 0.959 . S
C1286 C1284 1.561 . S
C1287 C1284 1.526 1_655 S
C1287 C1288 1.396 . S
C1287 C1292 1.390 . S
C1288 C1282 1.465 1_655 S
C1288 C1287 1.396 . S
C1288 C1289 1.399 . S
C1289 H1275 0.929 . S
C1289 C1288 1.399 . S
C1289 C1290 1.385 . S
C1290 H1276 0.931 . S
C1290 C1289 1.385 . S
C1290 C1291 1.389 . S
C1291 C1290 1.389 . S
C1291 C1292 1.387 . S
C1292 H1277 0.930 . S
C1292 C1287 1.390 . S
C1292 C1291 1.387 . S
H1293 C1305 0.930 . S
H1294 C1307 0.930 . S
H1295 C1308 0.930 . S
H1296 C1312 0.959 . S
H1297 C1312 0.959 . S
H1298 C1312 0.961 . S
H1299 C1313 0.960 . S
H1300 C1313 0.961 . S
H1301 C1313 0.959 . S
H1302 C1316 0.929 . S
H1303 C1317 0.931 . S
H1304 C1319 0.930 . S
C1305 H1293 0.930 . S
C1305 C1306 1.399 . S
C1305 C1310 1.399 . S
C1306 C1305 1.399 . S
C1306 C1307 1.376 . S
C1307 H1294 0.930 . S
C1307 C1306 1.376 . S
C1307 C1308 1.388 . S
C1308 H1295 0.930 . S
C1308 C1307 1.388 . S
C1308 C1309 1.390 . S
C1309 C1308 1.390 . S
C1309 C1310 1.394 . S
C1309 C1315 1.465 . S
C1310 C1305 1.399 . S
C1310 C1309 1.394 . S
C1310 C1311 1.516 . S
C1311 C1310 1.516 . S
C1311 C1312 1.502 . S
C1311 C1313 1.561 . S
C1311 C1314 1.526 . S
C1312 H1296 0.959 . S
C1312 H1297 0.959 . S
C1312 H1298 0.961 . S
C1312 C1311 1.502 . S
C1313 H1299 0.960 . S
C1313 H1300 0.961 . S
C1313 H1301 0.959 . S
C1313 C1311 1.561 . S
C1314 C1311 1.526 . S
C1314 C1315 1.396 . S
C1314 C1319 1.390 . S
C1315 C1309 1.465 . S
C1315 C1314 1.396 . S
C1315 C1316 1.399 . S
C1316 H1302 0.929 . S
C1316 C1315 1.399 . S
C1316 C1317 1.385 . S
C1317 H1303 0.931 . S
C1317 C1316 1.385 . S
C1317 C1318 1.389 . S
C1318 C1317 1.389 . S
C1318 C1319 1.387 . S
C1319 H1304 0.930 . S
C1319 C1314 1.390 . S
C1319 C1318 1.387 . S
H1320 C1332 0.930 . S
H1321 C1334 0.930 . S
H1322 C1335 0.930 . S
H1323 C1339 0.959 . S
H1324 C1339 0.959 . S
H1325 C1339 0.961 . S
H1326 C1340 0.960 . S
H1327 C1340 0.961 . S
H1328 C1340 0.959 . S
H1329 C1343 0.929 . S
H1330 C1344 0.931 . S
H1331 C1346 0.930 . S
C1332 H1320 0.930 . S
C1332 C1333 1.399 . S
C1332 C1337 1.399 . S
C1333 C1332 1.399 . S
C1333 C1334 1.376 . S
C1334 H1321 0.930 . S
C1334 C1333 1.376 . S
C1334 C1335 1.388 . S
C1335 H1322 0.930 . S
C1335 C1334 1.388 . S
C1335 C1336 1.390 . S
C1336 C1335 1.390 . S
C1336 C1337 1.394 . S
C1336 C1342 1.465 . S
C1337 C1332 1.399 . S
C1337 C1336 1.394 . S
C1337 C1338 1.516 . S
C1338 C1337 1.516 . S
C1338 C1339 1.502 . S
C1338 C1340 1.561 . S
C1338 C1341 1.526 . S
C1339 H1323 0.959 . S
C1339 H1324 0.959 . S
C1339 H1325 0.961 . S
C1339 C1338 1.502 . S
C1340 H1326 0.960 . S
C1340 H1327 0.961 . S
C1340 H1328 0.959 . S
C1340 C1338 1.561 . S
C1341 C1338 1.526 . S
C1341 C1342 1.396 . S
C1341 C1346 1.390 . S
C1342 C1336 1.465 . S
C1342 C1341 1.396 . S
C1342 C1343 1.399 . S
C1343 H1329 0.929 . S
C1343 C1342 1.399 . S
C1343 C1344 1.385 . S
C1344 H1330 0.931 . S
C1344 C1343 1.385 . S
C1344 C1345 1.389 . S
C1345 C1344 1.389 . S
C1345 C1346 1.387 . S
C1346 H1331 0.930 . S
C1346 C1341 1.390 . S
C1346 C1345 1.387 . S
H1347 C1359 0.930 . S
H1348 C1361 0.930 1_455 S
H1349 C1362 0.930 . S
H1350 C1366 0.959 . S
H1351 C1366 0.959 . S
H1352 C1366 0.961 . S
H1353 C1367 0.960 . S
H1354 C1367 0.961 . S
H1355 C1367 0.959 . S
H1356 C1370 0.929 . S
H1357 C1371 0.931 . S
H1358 C1373 0.930 . S
C1359 H1347 0.930 . S
C1359 C1360 1.399 . S
C1359 C1364 1.399 . S
C1360 C1359 1.399 . S
C1360 C1361 1.376 . S
C1361 H1348 0.930 1_655 S
C1361 C1360 1.376 . S
C1361 C1362 1.388 . S
C1362 H1349 0.930 . S
C1362 C1361 1.388 . S
C1362 C1363 1.390 . S
C1363 C1362 1.390 . S
C1363 C1364 1.394 . S
C1363 C1369 1.465 . S
C1364 C1359 1.399 . S
C1364 C1363 1.394 . S
C1364 C1365 1.516 . S
C1365 C1364 1.516 . S
C1365 C1366 1.502 . S
C1365 C1367 1.561 . S
C1365 C1368 1.526 . S
C1366 H1350 0.959 . S
C1366 H1351 0.959 . S
C1366 H1352 0.961 . S
C1366 C1365 1.502 . S
C1367 H1353 0.960 . S
C1367 H1354 0.961 . S
C1367 H1355 0.959 . S
C1367 C1365 1.561 . S
C1368 C1365 1.526 . S
C1368 C1369 1.396 . S
C1368 C1373 1.390 . S
C1369 C1363 1.465 . S
C1369 C1368 1.396 . S
C1369 C1370 1.399 . S
C1370 H1356 0.929 . S
C1370 C1369 1.399 . S
C1370 C1371 1.385 . S
C1371 H1357 0.931 . S
C1371 C1370 1.385 . S
C1371 C1372 1.389 . S
C1372 C1371 1.389 . S
C1372 C1373 1.387 . S
C1373 H1358 0.930 . S
C1373 C1368 1.390 . S
C1373 C1372 1.387 . S
H1374 C1386 0.930 . S
H1375 C1388 0.930 . S
H1376 C1389 0.930 . S
H1377 C1393 0.959 . S
H1378 C1393 0.959 . S
H1379 C1393 0.961 . S
H1380 C1394 0.960 . S
H1381 C1394 0.961 . S
H1382 C1394 0.959 . S
H1383 C1397 0.929 . S
H1384 C1398 0.931 . S
H1385 C1400 0.930 . S
C1386 H1374 0.930 . S
C1386 C1387 1.399 . S
C1386 C1391 1.399 . S
C1387 C1386 1.399 . S
C1387 C1388 1.376 . S
C1388 H1375 0.930 . S
C1388 C1387 1.376 . S
C1388 C1389 1.388 . S
C1389 H1376 0.930 . S
C1389 C1388 1.388 . S
C1389 C1390 1.390 . S
C1390 C1389 1.390 . S
C1390 C1391 1.394 . S
C1390 C1396 1.465 . S
C1391 C1386 1.399 . S
C1391 C1390 1.394 . S
C1391 C1392 1.516 . S
C1392 C1391 1.516 . S
C1392 C1393 1.502 . S
C1392 C1394 1.561 . S
C1392 C1395 1.526 . S
C1393 H1377 0.959 . S
C1393 H1378 0.959 . S
C1393 H1379 0.961 . S
C1393 C1392 1.502 . S
C1394 H1380 0.960 . S
C1394 H1381 0.961 . S
C1394 H1382 0.959 . S
C1394 C1392 1.561 . S
C1395 C1392 1.526 . S
C1395 C1396 1.396 . S
C1395 C1400 1.390 . S
C1396 C1390 1.465 . S
C1396 C1395 1.396 . S
C1396 C1397 1.399 . S
C1397 H1383 0.929 . S
C1397 C1396 1.399 . S
C1397 C1398 1.385 . S
C1398 H1384 0.931 . S
C1398 C1397 1.385 . S
C1398 C1399 1.389 . S
C1399 C1398 1.389 . S
C1399 C1400 1.387 . S
C1400 H1385 0.930 . S
C1400 C1395 1.390 . S
C1400 C1399 1.387 . S
H1401 C1413 0.930 . S
H1402 C1415 0.930 . S
H1403 C1416 0.930 . S
H1404 C1420 0.959 . S
H1405 C1420 0.959 . S
H1406 C1420 0.961 . S
H1407 C1421 0.960 . S
H1408 C1421 0.961 1_554 S
H1409 C1421 0.959 1_554 S
H1410 C1424 0.929 . S
H1411 C1425 0.931 . S
H1412 C1427 0.930 . S
C1413 H1401 0.930 . S
C1413 C1414 1.399 . S
C1413 C1418 1.399 . S
C1414 C1413 1.399 . S
C1414 C1415 1.376 . S
C1415 H1402 0.930 . S
C1415 C1414 1.376 . S
C1415 C1416 1.388 . S
C1416 H1403 0.930 . S
C1416 C1415 1.388 . S
C1416 C1417 1.390 . S
C1417 C1416 1.390 . S
C1417 C1418 1.394 . S
C1417 C1423 1.465 1_556 S
C1418 C1413 1.399 . S
C1418 C1417 1.394 . S
C1418 C1419 1.516 . S
C1419 C1418 1.516 . S
C1419 C1420 1.502 . S
C1419 C1421 1.561 . S
C1419 C1422 1.526 1_556 S
C1420 H1404 0.959 . S
C1420 H1405 0.959 . S
C1420 H1406 0.961 . S
C1420 C1419 1.502 . S
C1421 H1407 0.960 . S
C1421 H1408 0.961 1_556 S
C1421 H1409 0.959 1_556 S
C1421 C1419 1.561 . S
C1422 C1419 1.526 1_554 S
C1422 C1423 1.396 . S
C1422 C1427 1.390 . S
C1423 C1417 1.465 1_554 S
C1423 C1422 1.396 . S
C1423 C1424 1.399 . S
C1424 H1410 0.929 . S
C1424 C1423 1.399 . S
C1424 C1425 1.385 . S
C1425 H1411 0.931 . S
C1425 C1424 1.385 . S
C1425 C1426 1.389 . S
C1426 C1425 1.389 . S
C1426 C1427 1.387 . S
C1427 H1412 0.930 . S
C1427 C1422 1.390 . S
C1427 C1426 1.387 . S
H1428 C1440 0.930 . S
H1429 C1442 0.902 1_455 S
H1430 C1443 0.918 1_455 S
H1431 C1447 0.959 . S
H1432 C1447 0.959 . S
H1433 C1447 0.961 . S
H1434 C1448 0.960 . S
H1435 C1448 0.961 . S
H1436 C1448 0.959 . S
H1437 C1451 0.929 . S
H1438 C1452 0.931 . S
H1439 C1454 0.930 . S
C1440 H1428 0.930 . S
C1440 C1441 1.399 . S
C1440 C1445 1.399 . S
C1441 C1440 1.399 . S
C1441 C1442 1.397 . S
C1442 H1429 0.902 1_655 S
C1442 C1441 1.397 . S
C1442 C1443 1.397 . S
C1443 H1430 0.918 1_655 S
C1443 C1442 1.397 . S
C1443 C1444 1.390 . S
C1444 C1443 1.390 . S
C1444 C1445 1.394 . S
C1444 C1450 1.465 . S
C1445 C1440 1.399 . S
C1445 C1444 1.394 . S
C1445 C1446 1.516 . S
C1446 C1445 1.516 . S
C1446 C1447 1.502 . S
C1446 C1448 1.561 . S
C1446 C1449 1.526 . S
C1447 H1431 0.959 . S
C1447 H1432 0.959 . S
C1447 H1433 0.961 . S
C1447 C1446 1.502 . S
C1448 H1434 0.960 . S
C1448 H1435 0.961 . S
C1448 H1436 0.959 . S
C1448 C1446 1.561 . S
C1449 C1446 1.526 . S
C1449 C1450 1.396 . S
C1449 C1454 1.390 . S
C1450 C1444 1.465 . S
C1450 C1449 1.396 . S
C1450 C1451 1.399 . S
C1451 H1437 0.929 . S
C1451 C1450 1.399 . S
C1451 C1452 1.385 . S
C1452 H1438 0.931 . S
C1452 C1451 1.385 . S
C1452 C1453 1.389 . S
C1453 C1452 1.389 . S
C1453 C1454 1.387 . S
C1454 H1439 0.930 . S
C1454 C1449 1.390 . S
C1454 C1453 1.387 . S
H1455 C1467 0.930 . S
H1456 C1469 0.930 . S
H1457 C1470 0.930 . S
H1458 C1474 0.959 . S
H1459 C1474 0.959 . S
H1460 C1474 0.961 . S
H1461 C1475 0.960 . S
H1462 C1475 0.961 . S
H1463 C1475 0.959 . S
H1464 C1478 0.929 . S
H1465 C1479 0.931 . S
H1466 C1481 0.930 . S
C1467 H1455 0.930 . S
C1467 C1468 1.399 . S
C1467 C1472 1.399 . S
C1468 C1467 1.399 . S
C1468 C1469 1.376 . S
C1469 H1456 0.930 . S
C1469 C1468 1.376 . S
C1469 C1470 1.388 . S
C1470 H1457 0.930 . S
C1470 C1469 1.388 . S
C1470 C1471 1.390 . S
C1471 C1470 1.390 . S
C1471 C1472 1.394 . S
C1471 C1477 1.465 . S
C1472 C1467 1.399 . S
C1472 C1471 1.394 . S
C1472 C1473 1.516 . S
C1473 C1472 1.516 . S
C1473 C1474 1.502 . S
C1473 C1475 1.561 . S
C1473 C1476 1.526 . S
C1474 H1458 0.959 . S
C1474 H1459 0.959 . S
C1474 H1460 0.961 . S
C1474 C1473 1.502 . S
C1475 H1461 0.960 . S
C1475 H1462 0.961 . S
C1475 H1463 0.959 . S
C1475 C1473 1.561 . S
C1476 C1473 1.526 . S
C1476 C1477 1.396 . S
C1476 C1481 1.390 . S
C1477 C1471 1.465 . S
C1477 C1476 1.396 . S
C1477 C1478 1.399 . S
C1478 H1464 0.929 . S
C1478 C1477 1.399 . S
C1478 C1479 1.385 . S
C1479 H1465 0.931 . S
C1479 C1478 1.385 . S
C1479 C1480 1.389 . S
C1480 C1479 1.389 . S
C1480 C1481 1.387 . S
C1481 H1466 0.930 . S
C1481 C1476 1.390 . S
C1481 C1480 1.387 . S
H1482 C1494 0.930 . S
H1483 C1496 0.930 . S
H1484 C1497 0.930 . S
H1485 C1501 0.959 . S
H1486 C1501 0.959 . S
H1487 C1501 0.961 . S
H1488 C1502 0.960 . S
H1489 C1502 0.961 . S
H1490 C1502 0.959 . S
H1491 C1505 0.929 . S
H1492 C1506 0.931 . S
H1493 C1508 0.930 . S
C1494 H1482 0.930 . S
C1494 C1495 1.399 . S
C1494 C1499 1.399 . S
C1495 C1494 1.399 . S
C1495 C1496 1.376 . S
C1496 H1483 0.930 . S
C1496 C1495 1.376 . S
C1496 C1497 1.388 . S
C1497 H1484 0.930 . S
C1497 C1496 1.388 . S
C1497 C1498 1.390 . S
C1498 C1497 1.390 . S
C1498 C1499 1.394 . S
C1498 C1504 1.465 . S
C1499 C1494 1.399 . S
C1499 C1498 1.394 . S
C1499 C1500 1.516 . S
C1500 C1499 1.516 . S
C1500 C1501 1.502 . S
C1500 C1502 1.561 . S
C1500 C1503 1.526 . S
C1501 H1485 0.959 . S
C1501 H1486 0.959 . S
C1501 H1487 0.961 . S
C1501 C1500 1.502 . S
C1502 H1488 0.960 . S
C1502 H1489 0.961 . S
C1502 H1490 0.959 . S
C1502 C1500 1.561 . S
C1503 C1500 1.526 . S
C1503 C1504 1.396 . S
C1503 C1508 1.390 . S
C1504 C1498 1.465 . S
C1504 C1503 1.396 . S
C1504 C1505 1.399 . S
C1505 H1491 0.929 . S
C1505 C1504 1.399 . S
C1505 C1506 1.385 . S
C1506 H1492 0.931 . S
C1506 C1505 1.385 . S
C1506 C1507 1.389 . S
C1507 C1506 1.389 . S
C1507 C1508 1.387 . S
C1508 H1493 0.930 . S
C1508 C1503 1.390 . S
C1508 C1507 1.387 . S
H1509 C1521 0.930 . S
H1510 C1523 0.930 . S
H1511 C1524 0.930 . S
H1512 C1528 0.959 . S
H1513 C1528 0.959 . S
H1514 C1528 0.961 . S
H1515 C1529 0.960 . S
H1516 C1529 0.961 . S
H1517 C1529 0.959 . S
H1518 C1532 0.929 . S
H1519 C1533 0.931 . S
H1520 C1535 0.930 . S
C1521 H1509 0.930 . S
C1521 C1522 1.399 . S
C1521 C1526 1.399 . S
C1522 C1521 1.399 . S
C1522 C1523 1.376 . S
C1523 H1510 0.930 . S
C1523 C1522 1.376 . S
C1523 C1524 1.388 . S
C1524 H1511 0.930 . S
C1524 C1523 1.388 . S
C1524 C1525 1.390 . S
C1525 C1524 1.390 . S
C1525 C1526 1.394 . S
C1525 C1531 1.465 1_554 S
C1526 C1521 1.399 . S
C1526 C1525 1.394 . S
C1526 C1527 1.516 . S
C1527 C1526 1.516 . S
C1527 C1528 1.502 . S
C1527 C1529 1.561 . S
C1527 C1530 1.526 1_554 S
C1528 H1512 0.959 . S
C1528 H1513 0.959 . S
C1528 H1514 0.961 . S
C1528 C1527 1.502 . S
C1529 H1515 0.960 . S
C1529 H1516 0.961 . S
C1529 H1517 0.959 . S
C1529 C1527 1.561 . S
C1530 C1527 1.526 1_556 S
C1530 C1531 1.396 . S
C1530 C1535 1.390 . S
C1531 C1525 1.465 1_556 S
C1531 C1530 1.396 . S
C1531 C1532 1.399 . S
C1532 H1518 0.929 . S
C1532 C1531 1.399 . S
C1532 C1533 1.385 . S
C1533 H1519 0.931 . S
C1533 C1532 1.385 . S
C1533 C1534 1.389 . S
C1534 C1533 1.389 . S
C1534 C1535 1.387 . S
C1535 H1520 0.930 . S
C1535 C1530 1.390 . S
C1535 C1534 1.387 . S
H1536 C1548 0.930 . S
H1537 C1550 0.930 . S
H1538 C1551 0.930 . S
H1539 C1555 0.959 . S
H1540 C1555 0.959 . S
H1541 C1555 0.961 . S
H1542 C1556 0.960 . S
H1543 C1556 0.961 . S
H1544 C1556 0.959 . S
H1545 C1559 0.929 1_545 S
H1546 C1560 0.931 . S
H1547 C1562 0.930 . S
C1548 H1536 0.930 . S
C1548 C1549 1.399 1_565 S
C1548 C1553 1.399 . S
C1549 C1548 1.399 1_545 S
C1549 C1550 1.376 . S
C1550 H1537 0.930 . S
C1550 C1549 1.376 . S
C1550 C1551 1.388 . S
C1551 H1538 0.930 . S
C1551 C1550 1.388 . S
C1551 C1552 1.390 1_545 S
C1552 C1551 1.390 1_565 S
C1552 C1553 1.394 . S
C1552 C1558 1.465 . S
C1553 C1548 1.399 . S
C1553 C1552 1.394 . S
C1553 C1554 1.516 . S
C1554 C1553 1.516 . S
C1554 C1555 1.502 . S
C1554 C1556 1.561 . S
C1554 C1557 1.526 . S
C1555 H1539 0.959 . S
C1555 H1540 0.959 . S
C1555 H1541 0.961 . S
C1555 C1554 1.502 . S
C1556 H1542 0.960 . S
C1556 H1543 0.961 . S
C1556 H1544 0.959 . S
C1556 C1554 1.561 . S
C1557 C1554 1.526 . S
C1557 C1558 1.396 . S
C1557 C1562 1.390 . S
C1558 C1552 1.465 . S
C1558 C1557 1.396 . S
C1558 C1559 1.399 . S
C1559 H1545 0.929 1_565 S
C1559 C1558 1.399 . S
C1559 C1560 1.385 . S
C1560 H1546 0.931 . S
C1560 C1559 1.385 . S
C1560 C1561 1.389 . S
C1561 C1560 1.389 . S
C1561 C1562 1.387 . S
C1562 H1547 0.930 . S
C1562 C1557 1.390 . S
C1562 C1561 1.387 . S
H1563 C1575 0.930 . S
H1564 C1577 0.930 . S
H1565 C1578 0.930 . S
H1566 C1582 0.959 . S
H1567 C1582 0.959 . S
H1568 C1582 0.961 . S
H1569 C1583 0.960 . S
H1570 C1583 0.961 . S
H1571 C1583 0.959 . S
H1572 C1586 0.929 . S
H1573 C1587 0.931 . S
H1574 C1589 0.930 . S
C1575 H1563 0.930 . S
C1575 C1576 1.399 . S
C1575 C1580 1.399 1_565 S
C1576 C1575 1.399 . S
C1576 C1577 1.376 . S
C1577 H1564 0.930 . S
C1577 C1576 1.376 . S
C1577 C1578 1.388 1_565 S
C1578 H1565 0.930 . S
C1578 C1577 1.388 1_545 S
C1578 C1579 1.390 . S
C1579 C1578 1.390 . S
C1579 C1580 1.394 . S
C1579 C1585 1.465 . S
C1580 C1575 1.399 1_545 S
C1580 C1579 1.394 . S
C1580 C1581 1.516 . S
C1581 C1580 1.516 . S
C1581 C1582 1.502 . S
C1581 C1583 1.561 . S
C1581 C1584 1.526 . S
C1582 H1566 0.959 . S
C1582 H1567 0.959 . S
C1582 H1568 0.961 . S
C1582 C1581 1.502 . S
C1583 H1569 0.960 . S
C1583 H1570 0.961 . S
C1583 H1571 0.959 . S
C1583 C1581 1.561 . S
C1584 C1581 1.526 . S
C1584 C1585 1.396 . S
C1584 C1589 1.390 . S
C1585 C1579 1.465 . S
C1585 C1584 1.396 . S
C1585 C1586 1.399 . S
C1586 H1572 0.929 . S
C1586 C1585 1.399 . S
C1586 C1587 1.385 . S
C1587 H1573 0.931 . S
C1587 C1586 1.385 . S
C1587 C1588 1.389 . S
C1588 C1587 1.389 . S
C1588 C1589 1.387 . S
C1589 H1574 0.930 . S
C1589 C1584 1.390 . S
C1589 C1588 1.387 . S
H1590 C1602 0.930 . S
H1591 C1604 0.930 . S
H1592 C1605 0.930 . S
H1593 C1609 0.959 . S
H1594 C1609 0.959 . S
H1595 C1609 0.961 . S
H1596 C1610 0.960 . S
H1597 C1610 0.961 . S
H1598 C1610 0.959 . S
H1599 C1613 0.929 . S
H1600 C1614 0.931 . S
H1601 C1616 0.930 . S
C1602 H1590 0.930 . S
C1602 C1603 1.399 . S
C1602 C1607 1.399 . S
C1603 C1602 1.399 . S
C1603 C1604 1.376 . S
C1604 H1591 0.930 . S
C1604 C1603 1.376 . S
C1604 C1605 1.388 . S
C1605 H1592 0.930 . S
C1605 C1604 1.388 . S
C1605 C1606 1.390 . S
C1606 C1605 1.390 . S
C1606 C1607 1.394 . S
C1606 C1612 1.465 . S
C1607 C1602 1.399 . S
C1607 C1606 1.394 . S
C1607 C1608 1.516 . S
C1608 C1607 1.516 . S
C1608 C1609 1.502 . S
C1608 C1610 1.561 . S
C1608 C1611 1.526 . S
C1609 H1593 0.959 . S
C1609 H1594 0.959 . S
C1609 H1595 0.961 . S
C1609 C1608 1.502 . S
C1610 H1596 0.960 . S
C1610 H1597 0.961 . S
C1610 H1598 0.959 . S
C1610 C1608 1.561 . S
C1611 C1608 1.526 . S
C1611 C1612 1.396 . S
C1611 C1616 1.390 . S
C1612 C1606 1.465 . S
C1612 C1611 1.396 . S
C1612 C1613 1.399 . S
C1613 H1599 0.929 . S
C1613 C1612 1.399 . S
C1613 C1614 1.385 . S
C1614 H1600 0.931 . S
C1614 C1613 1.385 . S
C1614 C1615 1.389 . S
C1615 C1614 1.389 . S
C1615 C1616 1.387 . S
C1616 H1601 0.930 . S
C1616 C1611 1.390 . S
C1616 C1615 1.387 . S
H1617 C1629 0.930 . S
H1618 C1631 0.930 . S
H1619 C1632 0.930 . S
H1620 C1636 0.959 . S
H1621 C1636 0.959 . S
H1622 C1636 0.961 . S
H1623 C1637 0.960 . S
H1624 C1637 0.961 . S
H1625 C1637 0.959 . S
H1626 C1640 0.929 1_545 S
H1627 C1641 0.931 . S
H1628 C1643 0.930 . S
C1629 H1617 0.930 . S
C1629 C1630 1.399 . S
C1629 C1634 1.399 . S
C1630 C1629 1.399 . S
C1630 C1631 1.376 . S
C1631 H1618 0.930 . S
C1631 C1630 1.376 . S
C1631 C1632 1.388 . S
C1632 H1619 0.930 . S
C1632 C1631 1.388 . S
C1632 C1633 1.390 . S
C1633 C1632 1.390 . S
C1633 C1634 1.394 . S
C1633 C1639 1.465 . S
C1634 C1629 1.399 . S
C1634 C1633 1.394 . S
C1634 C1635 1.516 . S
C1635 C1634 1.516 . S
C1635 C1636 1.502 . S
C1635 C1637 1.561 . S
C1635 C1638 1.526 . S
C1636 H1620 0.959 . S
C1636 H1621 0.959 . S
C1636 H1622 0.961 . S
C1636 C1635 1.502 . S
C1637 H1623 0.960 . S
C1637 H1624 0.961 . S
C1637 H1625 0.959 . S
C1637 C1635 1.561 . S
C1638 C1635 1.526 . S
C1638 C1639 1.396 . S
C1638 C1643 1.390 1_545 S
C1639 C1633 1.465 . S
C1639 C1638 1.396 . S
C1639 C1640 1.396 1_545 S
C1640 H1626 0.929 1_565 S
C1640 C1639 1.396 1_565 S
C1640 C1641 1.389 . S
C1641 H1627 0.931 . S
C1641 C1640 1.389 . S
C1641 C1642 1.389 . S
C1642 C1641 1.389 . S
C1642 C1643 1.387 . S
C1643 H1628 0.930 . S
C1643 C1638 1.390 1_565 S
C1643 C1642 1.387 . S
H1644 C1656 0.930 . S
H1645 C1658 0.930 . S
H1646 C1659 0.930 . S
H1647 C1663 0.959 . S
H1648 C1663 0.959 . S
H1649 C1663 0.961 . S
H1650 C1664 0.960 . S
H1651 C1664 0.961 . S
H1652 C1664 0.959 . S
H1653 C1667 0.929 . S
H1654 C1668 0.931 . S
H1655 C1670 0.930 . S
C1656 H1644 0.930 . S
C1656 C1657 1.399 . S
C1656 C1661 1.399 . S
C1657 C1656 1.399 . S
C1657 C1658 1.376 . S
C1658 H1645 0.930 . S
C1658 C1657 1.376 . S
C1658 C1659 1.388 . S
C1659 H1646 0.930 . S
C1659 C1658 1.388 . S
C1659 C1660 1.390 . S
C1660 C1659 1.390 . S
C1660 C1661 1.394 . S
C1660 C1666 1.465 . S
C1661 C1656 1.399 . S
C1661 C1660 1.394 . S
C1661 C1662 1.516 . S
C1662 C1661 1.516 . S
C1662 C1663 1.502 . S
C1662 C1664 1.561 . S
C1662 C1665 1.526 . S
C1663 H1647 0.959 . S
C1663 H1648 0.959 . S
C1663 H1649 0.961 . S
C1663 C1662 1.502 . S
C1664 H1650 0.960 . S
C1664 H1651 0.961 . S
C1664 H1652 0.959 . S
C1664 C1662 1.561 . S
C1665 C1662 1.526 . S
C1665 C1666 1.396 . S
C1665 C1670 1.390 . S
C1666 C1660 1.465 . S
C1666 C1665 1.396 . S
C1666 C1667 1.399 . S
C1667 H1653 0.929 . S
C1667 C1666 1.399 . S
C1667 C1668 1.385 . S
C1668 H1654 0.931 . S
C1668 C1667 1.385 . S
C1668 C1669 1.389 . S
C1669 C1668 1.389 . S
C1669 C1670 1.387 . S
C1670 H1655 0.930 . S
C1670 C1665 1.390 . S
C1670 C1669 1.387 . S
H1671 C1683 0.930 . S
H1672 C1685 0.930 . S
H1673 C1686 0.930 . S
H1674 C1690 0.959 . S
H1675 C1690 0.959 . S
H1676 C1690 0.961 1_565 S
H1677 C1691 0.960 . S
H1678 C1691 0.961 1_545 S
H1679 C1691 0.959 . S
H1680 C1694 0.929 . S
H1681 C1695 0.931 . S
H1682 C1697 0.930 . S
C1683 H1671 0.930 . S
C1683 C1684 1.399 . S
C1683 C1688 1.398 1_565 S
C1684 C1683 1.399 . S
C1684 C1685 1.376 . S
C1685 H1672 0.930 . S
C1685 C1684 1.376 . S
C1685 C1686 1.388 1_565 S
C1686 H1673 0.930 . S
C1686 C1685 1.388 1_545 S
C1686 C1687 1.390 . S
C1687 C1686 1.390 . S
C1687 C1688 1.395 . S
C1687 C1693 1.465 . S
C1688 C1683 1.398 1_545 S
C1688 C1687 1.395 . S
C1688 C1689 1.517 . S
C1689 C1688 1.517 . S
C1689 C1690 1.502 . S
C1689 C1691 1.561 1_545 S
C1689 C1692 1.526 . S
C1690 H1674 0.959 . S
C1690 H1675 0.959 . S
C1690 H1676 0.961 1_545 S
C1690 C1689 1.502 . S
C1691 H1677 0.960 . S
C1691 H1678 0.961 1_565 S
C1691 H1679 0.959 . S
C1691 C1689 1.561 1_565 S
C1692 C1689 1.526 . S
C1692 C1693 1.396 . S
C1692 C1697 1.390 . S
C1693 C1687 1.465 . S
C1693 C1692 1.396 . S
C1693 C1694 1.399 . S
C1694 H1680 0.929 . S
C1694 C1693 1.399 . S
C1694 C1695 1.385 . S
C1695 H1681 0.931 . S
C1695 C1694 1.385 . S
C1695 C1696 1.389 . S
C1696 C1695 1.389 . S
C1696 C1697 1.387 . S
C1697 H1682 0.930 . S
C1697 C1692 1.390 . S
C1697 C1696 1.387 . S
H1698 C1710 0.930 . S
H1699 C1712 0.930 . S
H1700 C1713 0.930 . S
H1701 C1717 0.959 1_565 S
H1702 C1717 0.959 . S
H1703 C1717 0.961 . S
H1704 C1718 0.960 1_545 S
H1705 C1718 0.961 1_545 S
H1706 C1718 0.959 . S
H1707 C1721 0.929 . S
H1708 C1722 0.931 . S
H1709 C1724 0.930 . S
C1710 H1698 0.930 . S
C1710 C1711 1.399 . S
C1710 C1715 1.399 . S
C1711 C1710 1.399 . S
C1711 C1712 1.376 . S
C1712 H1699 0.930 . S
C1712 C1711 1.376 . S
C1712 C1713 1.388 . S
C1713 H1700 0.930 . S
C1713 C1712 1.388 . S
C1713 C1714 1.390 . S
C1714 C1713 1.390 . S
C1714 C1715 1.394 . S
C1714 C1720 1.465 . S
C1715 C1710 1.399 . S
C1715 C1714 1.394 . S
C1715 C1716 1.516 . S
C1716 C1715 1.516 . S
C1716 C1717 1.502 1_565 S
C1716 C1718 1.561 . S
C1716 C1719 1.526 . S
C1717 H1701 0.959 1_545 S
C1717 H1702 0.959 . S
C1717 H1703 0.961 . S
C1717 C1716 1.502 1_545 S
C1718 H1704 0.960 1_565 S
C1718 H1705 0.961 1_565 S
C1718 H1706 0.959 . S
C1718 C1716 1.561 . S
C1719 C1716 1.526 . S
C1719 C1720 1.396 . S
C1719 C1724 1.390 . S
C1720 C1714 1.465 . S
C1720 C1719 1.396 . S
C1720 C1721 1.399 . S
C1721 H1707 0.929 . S
C1721 C1720 1.399 . S
C1721 C1722 1.385 . S
C1722 H1708 0.931 . S
C1722 C1721 1.385 . S
C1722 C1723 1.389 . S
C1723 C1722 1.389 . S
C1723 C1724 1.387 . S
C1724 H1709 0.930 . S
C1724 C1719 1.390 . S
C1724 C1723 1.387 . S
H1725 C1737 0.930 . S
H1726 C1739 0.930 1_554 S
H1727 C1740 0.930 1_554 S
H1728 C1744 0.959 . S
H1729 C1744 0.959 . S
H1730 C1744 0.961 . S
H1731 C1745 0.960 . S
H1732 C1745 0.961 . S
H1733 C1745 0.959 . S
H1734 C1748 0.929 . S
H1735 C1749 0.931 . S
H1736 C1751 0.930 1_565 S
C1737 H1725 0.930 . S
C1737 C1738 1.399 . S
C1737 C1742 1.399 . S
C1738 C1737 1.399 . S
C1738 C1739 1.376 . S
C1739 H1726 0.930 1_556 S
C1739 C1738 1.376 . S
C1739 C1740 1.388 . S
C1740 H1727 0.930 1_556 S
C1740 C1739 1.388 . S
C1740 C1741 1.390 . S
C1741 C1740 1.390 . S
C1741 C1742 1.394 . S
C1741 C1747 1.465 . S
C1742 C1737 1.399 . S
C1742 C1741 1.394 . S
C1742 C1743 1.516 . S
C1743 C1742 1.516 . S
C1743 C1744 1.502 . S
C1743 C1745 1.561 . S
C1743 C1746 1.526 . S
C1744 H1728 0.959 . S
C1744 H1729 0.959 . S
C1744 H1730 0.961 . S
C1744 C1743 1.502 . S
C1745 H1731 0.960 . S
C1745 H1732 0.961 . S
C1745 H1733 0.959 . S
C1745 C1743 1.561 . S
C1746 C1743 1.526 . S
C1746 C1747 1.396 . S
C1746 C1751 1.390 . S
C1747 C1741 1.465 . S
C1747 C1746 1.396 . S
C1747 C1748 1.399 . S
C1748 H1734 0.929 . S
C1748 C1747 1.399 . S
C1748 C1749 1.385 1_545 S
C1749 H1735 0.931 . S
C1749 C1748 1.385 1_565 S
C1749 C1750 1.389 . S
C1750 C1749 1.389 . S
C1750 C1751 1.387 1_565 S
C1751 H1736 0.930 1_545 S
C1751 C1746 1.390 . S
C1751 C1750 1.387 1_545 S
H1752 C1764 0.930 . S
H1753 C1766 0.930 . S
H1754 C1767 0.930 . S
H1755 C1771 0.959 . S
H1756 C1771 0.959 . S
H1757 C1771 0.961 . S
H1758 C1772 0.960 . S
H1759 C1772 0.961 . S
H1760 C1772 0.959 . S
H1761 C1775 0.929 . S
H1762 C1776 0.931 . S
H1763 C1778 0.930 . S
C1764 H1752 0.930 . S
C1764 C1765 1.399 . S
C1764 C1769 1.399 . S
C1765 C1764 1.399 . S
C1765 C1766 1.376 . S
C1766 H1753 0.930 . S
C1766 C1765 1.376 . S
C1766 C1767 1.388 . S
C1767 H1754 0.930 . S
C1767 C1766 1.388 . S
C1767 C1768 1.390 . S
C1768 C1767 1.390 . S
C1768 C1769 1.394 . S
C1768 C1774 1.465 . S
C1769 C1764 1.399 . S
C1769 C1768 1.394 . S
C1769 C1770 1.516 . S
C1770 C1769 1.516 . S
C1770 C1771 1.502 . S
C1770 C1772 1.561 . S
C1770 C1773 1.526 . S
C1771 H1755 0.959 . S
C1771 H1756 0.959 . S
C1771 H1757 0.961 . S
C1771 C1770 1.502 . S
C1772 H1758 0.960 . S
C1772 H1759 0.961 . S
C1772 H1760 0.959 . S
C1772 C1770 1.561 . S
C1773 C1770 1.526 . S
C1773 C1774 1.396 . S
C1773 C1778 1.390 . S
C1774 C1768 1.465 . S
C1774 C1773 1.396 . S
C1774 C1775 1.399 . S
C1775 H1761 0.929 . S
C1775 C1774 1.399 . S
C1775 C1776 1.385 . S
C1776 H1762 0.931 . S
C1776 C1775 1.385 . S
C1776 C1777 1.389 . S
C1777 C1776 1.389 . S
C1777 C1778 1.387 . S
C1778 H1763 0.930 . S
C1778 C1773 1.390 . S
C1778 C1777 1.387 . S
H1779 C1791 0.930 . S
H1780 C1793 0.930 . S
H1781 C1794 0.930 . S
H1782 C1798 0.959 . S
H1783 C1798 0.959 . S
H1784 C1798 0.961 . S
H1785 C1799 0.960 . S
H1786 C1799 0.961 . S
H1787 C1799 0.959 . S
H1788 C1802 0.929 . S
H1789 C1803 0.931 . S
H1790 C1805 0.930 . S
C1791 H1779 0.930 . S
C1791 C1792 1.399 . S
C1791 C1796 1.399 . S
C1792 C1791 1.399 . S
C1792 C1793 1.376 . S
C1793 H1780 0.930 . S
C1793 C1792 1.376 . S
C1793 C1794 1.388 . S
C1794 H1781 0.930 . S
C1794 C1793 1.388 . S
C1794 C1795 1.390 . S
C1795 C1794 1.390 . S
C1795 C1796 1.394 . S
C1795 C1801 1.465 . S
C1796 C1791 1.399 . S
C1796 C1795 1.394 . S
C1796 C1797 1.516 . S
C1797 C1796 1.516 . S
C1797 C1798 1.502 . S
C1797 C1799 1.561 . S
C1797 C1800 1.526 . S
C1798 H1782 0.959 . S
C1798 H1783 0.959 . S
C1798 H1784 0.961 . S
C1798 C1797 1.502 . S
C1799 H1785 0.960 . S
C1799 H1786 0.961 . S
C1799 H1787 0.959 . S
C1799 C1797 1.561 . S
C1800 C1797 1.526 . S
C1800 C1801 1.396 . S
C1800 C1805 1.390 . S
C1801 C1795 1.465 . S
C1801 C1800 1.396 . S
C1801 C1802 1.399 . S
C1802 H1788 0.929 . S
C1802 C1801 1.399 . S
C1802 C1803 1.385 . S
C1803 H1789 0.931 . S
C1803 C1802 1.385 . S
C1803 C1804 1.389 . S
C1804 C1803 1.389 . S
C1804 C1805 1.387 . S
C1805 H1790 0.930 . S
C1805 C1800 1.390 . S
C1805 C1804 1.387 . S
H1806 C1818 0.930 . S
H1807 C1820 0.930 . S
H1808 C1821 0.930 . S
H1809 C1825 0.959 . S
H1810 C1825 0.959 . S
H1811 C1825 0.961 . S
H1812 C1826 0.960 . S
H1813 C1826 0.961 . S
H1814 C1826 0.959 . S
H1815 C1829 0.929 . S
H1816 C1830 0.931 . S
H1817 C1832 0.930 . S
C1818 H1806 0.930 . S
C1818 C1819 1.399 . S
C1818 C1823 1.399 . S
C1819 C1818 1.399 . S
C1819 C1820 1.376 . S
C1820 H1807 0.930 . S
C1820 C1819 1.376 . S
C1820 C1821 1.388 . S
C1821 H1808 0.930 . S
C1821 C1820 1.388 . S
C1821 C1822 1.390 . S
C1822 C1821 1.390 . S
C1822 C1823 1.394 . S
C1822 C1828 1.465 1_655 S
C1823 C1818 1.399 . S
C1823 C1822 1.394 . S
C1823 C1824 1.516 . S
C1824 C1823 1.516 . S
C1824 C1825 1.502 . S
C1824 C1826 1.561 . S
C1824 C1827 1.526 1_655 S
C1825 H1809 0.959 . S
C1825 H1810 0.959 . S
C1825 H1811 0.961 . S
C1825 C1824 1.502 . S
C1826 H1812 0.960 . S
C1826 H1813 0.961 . S
C1826 H1814 0.959 . S
C1826 C1824 1.561 . S
C1827 C1824 1.526 1_455 S
C1827 C1828 1.396 . S
C1827 C1832 1.390 . S
C1828 C1822 1.465 1_455 S
C1828 C1827 1.396 . S
C1828 C1829 1.399 . S
C1829 H1815 0.929 . S
C1829 C1828 1.399 . S
C1829 C1830 1.385 . S
C1830 H1816 0.931 . S
C1830 C1829 1.385 . S
C1830 C1831 1.389 . S
C1831 C1830 1.389 . S
C1831 C1832 1.387 . S
C1832 H1817 0.930 . S
C1832 C1827 1.390 . S
C1832 C1831 1.387 . S
H1833 C1845 0.930 . S
H1834 C1847 0.930 . S
H1835 C1848 0.930 . S
H1836 C1852 0.959 . S
H1837 C1852 0.959 . S
H1838 C1852 0.961 . S
H1839 C1853 0.960 . S
H1840 C1853 0.961 . S
H1841 C1853 0.959 . S
H1842 C1856 0.929 . S
H1843 C1857 0.931 . S
H1844 C1859 0.930 . S
C1845 H1833 0.930 . S
C1845 C1846 1.399 . S
C1845 C1850 1.399 . S
C1846 C1845 1.399 . S
C1846 C1847 1.376 . S
C1847 H1834 0.930 . S
C1847 C1846 1.376 . S
C1847 C1848 1.388 . S
C1848 H1835 0.930 . S
C1848 C1847 1.388 . S
C1848 C1849 1.390 . S
C1849 C1848 1.390 . S
C1849 C1850 1.394 . S
C1849 C1855 1.465 . S
C1850 C1845 1.399 . S
C1850 C1849 1.394 . S
C1850 C1851 1.516 . S
C1851 C1850 1.516 . S
C1851 C1852 1.502 . S
C1851 C1853 1.561 . S
C1851 C1854 1.526 . S
C1852 H1836 0.959 . S
C1852 H1837 0.959 . S
C1852 H1838 0.961 . S
C1852 C1851 1.502 . S
C1853 H1839 0.960 . S
C1853 H1840 0.961 . S
C1853 H1841 0.959 . S
C1853 C1851 1.561 . S
C1854 C1851 1.526 . S
C1854 C1855 1.396 . S
C1854 C1859 1.390 . S
C1855 C1849 1.465 . S
C1855 C1854 1.396 . S
C1855 C1856 1.399 . S
C1856 H1842 0.929 . S
C1856 C1855 1.399 . S
C1856 C1857 1.385 . S
C1857 H1843 0.931 . S
C1857 C1856 1.385 . S
C1857 C1858 1.389 . S
C1858 C1857 1.389 . S
C1858 C1859 1.387 . S
C1859 H1844 0.930 . S
C1859 C1854 1.390 . S
C1859 C1858 1.387 . S
H1860 C1872 0.930 . S
H1861 C1874 0.930 . S
H1862 C1875 0.930 . S
H1863 C1879 0.959 . S
H1864 C1879 0.959 1_655 S
H1865 C1879 0.961 . S
H1866 C1880 0.986 . S
H1867 C1880 0.961 . S
H1868 C1880 0.959 . S
H1869 C1883 0.929 . S
H1870 C1884 0.931 . S
H1871 C1886 0.930 . S
C1872 H1860 0.930 . S
C1872 C1873 1.399 . S
C1872 C1877 1.399 . S
C1873 C1872 1.399 . S
C1873 C1874 1.376 1_545 S
C1874 H1861 0.930 . S
C1874 C1873 1.376 1_565 S
C1874 C1875 1.388 . S
C1875 H1862 0.930 . S
C1875 C1874 1.388 . S
C1875 C1876 1.410 . S
C1876 C1875 1.410 . S
C1876 C1877 1.359 1_565 S
C1876 C1882 1.475 1_455 S
C1877 C1872 1.399 . S
C1877 C1876 1.359 1_545 S
C1877 C1878 1.516 . S
C1878 C1877 1.516 . S
C1878 C1879 1.502 . S
C1878 C1880 1.561 1_455 S
C1878 C1881 1.526 1_455 S
C1879 H1863 0.959 . S
C1879 H1864 0.959 1_455 S
C1879 H1865 0.961 . S
C1879 C1878 1.502 . S
C1880 H1866 0.986 . S
C1880 H1867 0.961 . S
C1880 H1868 0.959 . S
C1880 C1878 1.561 1_655 S
C1881 C1878 1.526 1_655 S
C1881 C1882 1.396 1_545 S
C1881 C1886 1.390 . S
C1882 C1876 1.475 1_655 S
C1882 C1881 1.396 1_565 S
C1882 C1883 1.399 . S
C1883 H1869 0.929 . S
C1883 C1882 1.399 . S
C1883 C1884 1.385 . S
C1884 H1870 0.931 . S
C1884 C1883 1.385 . S
C1884 C1885 1.389 . S
C1885 C1884 1.389 . S
C1885 C1886 1.387 1_565 S
C1886 H1871 0.930 . S
C1886 C1881 1.390 . S
C1886 C1885 1.387 1_545 S
H1887 C1899 0.930 . S
H1888 C1901 0.930 . S
H1889 C1902 0.930 . S
H1890 C1906 0.959 . S
H1891 C1906 0.959 . S
H1892 C1906 0.961 . S
H1893 C1907 0.960 . S
H1894 C1907 0.961 . S
H1895 C1907 0.959 . S
H1896 C1910 0.929 . S
H1897 C1911 0.931 . S
H1898 C1913 0.930 . S
C1899 H1887 0.930 . S
C1899 C1900 1.399 . S
C1899 C1904 1.399 . S
C1900 C1899 1.399 . S
C1900 C1901 1.376 . S
C1901 H1888 0.930 . S
C1901 C1900 1.376 . S
C1901 C1902 1.388 . S
C1902 H1889 0.930 . S
C1902 C1901 1.388 . S
C1902 C1903 1.390 . S
C1903 C1902 1.390 . S
C1903 C1904 1.394 . S
C1903 C1909 1.465 . S
C1904 C1899 1.399 . S
C1904 C1903 1.394 . S
C1904 C1905 1.516 . S
C1905 C1904 1.516 . S
C1905 C1906 1.502 . S
C1905 C1907 1.561 . S
C1905 C1908 1.526 . S
C1906 H1890 0.959 . S
C1906 H1891 0.959 . S
C1906 H1892 0.961 . S
C1906 C1905 1.502 . S
C1907 H1893 0.960 . S
C1907 H1894 0.961 . S
C1907 H1895 0.959 . S
C1907 C1905 1.561 . S
C1908 C1905 1.526 . S
C1908 C1909 1.396 . S
C1908 C1913 1.390 . S
C1909 C1903 1.465 . S
C1909 C1908 1.396 . S
C1909 C1910 1.399 . S
C1910 H1896 0.929 . S
C1910 C1909 1.399 . S
C1910 C1911 1.385 . S
C1911 H1897 0.931 . S
C1911 C1910 1.385 . S
C1911 C1912 1.389 . S
C1912 C1911 1.389 . S
C1912 C1913 1.387 . S
C1913 H1898 0.930 . S
C1913 C1908 1.390 . S
C1913 C1912 1.387 . S
H1914 C1926 0.930 . S
H1915 C1928 0.930 . S
H1916 C1929 0.930 . S
H1917 C1933 0.964 . S
H1918 C1933 0.959 . S
H1919 C1933 0.961 1_655 S
H1920 C1934 0.960 . S
H1921 C1934 0.961 . S
H1922 C1934 0.959 . S
H1923 C1937 0.929 . S
H1924 C1938 0.931 . S
H1925 C1940 0.930 . S
C1926 H1914 0.930 . S
C1926 C1927 1.399 . S
C1926 C1931 1.399 . S
C1927 C1926 1.399 . S
C1927 C1928 1.376 . S
C1928 H1915 0.930 . S
C1928 C1927 1.376 . S
C1928 C1929 1.388 . S
C1929 H1916 0.930 . S
C1929 C1928 1.388 . S
C1929 C1930 1.390 . S
C1930 C1929 1.390 . S
C1930 C1931 1.394 . S
C1930 C1936 1.465 1_655 S
C1931 C1926 1.399 . S
C1931 C1930 1.394 . S
C1931 C1932 1.516 1_655 S
C1932 C1931 1.516 1_455 S
C1932 C1933 1.502 . S
C1932 C1934 1.561 . S
C1932 C1935 1.526 . S
C1933 H1917 0.964 . S
C1933 H1918 0.959 . S
C1933 H1919 0.961 1_455 S
C1933 C1932 1.502 . S
C1934 H1920 0.960 . S
C1934 H1921 0.961 . S
C1934 H1922 0.959 . S
C1934 C1932 1.561 . S
C1935 C1932 1.526 . S
C1935 C1936 1.396 . S
C1935 C1940 1.390 . S
C1936 C1930 1.465 1_455 S
C1936 C1935 1.396 . S
C1936 C1937 1.399 . S
C1937 H1923 0.929 . S
C1937 C1936 1.399 . S
C1937 C1938 1.385 . S
C1938 H1924 0.931 . S
C1938 C1937 1.385 . S
C1938 C1939 1.389 . S
C1939 C1938 1.389 . S
C1939 C1940 1.387 . S
C1940 H1925 0.930 . S
C1940 C1935 1.390 . S
C1940 C1939 1.387 . S
H1941 C1953 0.930 . S
H1942 C1955 0.930 . S
H1943 C1956 0.930 . S
H1944 C1960 0.959 . S
H1945 C1960 0.959 . S
H1946 C1960 0.961 . S
H1947 C1961 0.960 . S
H1948 C1961 0.961 . S
H1949 C1961 0.959 . S
H1950 C1964 0.929 . S
H1951 C1965 0.931 . S
H1952 C1967 0.930 . S
C1953 H1941 0.930 . S
C1953 C1954 1.399 . S
C1953 C1958 1.399 . S
C1954 C1953 1.399 . S
C1954 C1955 1.376 . S
C1955 H1942 0.930 . S
C1955 C1954 1.376 . S
C1955 C1956 1.388 . S
C1956 H1943 0.930 . S
C1956 C1955 1.388 . S
C1956 C1957 1.390 . S
C1957 C1956 1.390 . S
C1957 C1958 1.394 . S
C1957 C1963 1.465 . S
C1958 C1953 1.399 . S
C1958 C1957 1.394 . S
C1958 C1959 1.516 . S
C1959 C1958 1.516 . S
C1959 C1960 1.502 . S
C1959 C1961 1.561 . S
C1959 C1962 1.526 . S
C1960 H1944 0.959 . S
C1960 H1945 0.959 . S
C1960 H1946 0.961 . S
C1960 C1959 1.502 . S
C1961 H1947 0.960 . S
C1961 H1948 0.961 . S
C1961 H1949 0.959 . S
C1961 C1959 1.561 . S
C1962 C1959 1.526 . S
C1962 C1963 1.396 . S
C1962 C1967 1.390 . S
C1963 C1957 1.465 . S
C1963 C1962 1.396 . S
C1963 C1964 1.399 . S
C1964 H1950 0.929 . S
C1964 C1963 1.399 . S
C1964 C1965 1.385 . S
C1965 H1951 0.931 . S
C1965 C1964 1.385 . S
C1965 C1966 1.389 . S
C1966 C1965 1.389 . S
C1966 C1967 1.387 . S
C1967 H1952 0.930 . S
C1967 C1962 1.390 . S
C1967 C1966 1.387 . S
H1968 C1980 0.930 . S
H1969 C1982 0.930 . S
H1970 C1983 0.930 . S
H1971 C1987 0.959 . S
H1972 C1987 0.959 . S
H1973 C1987 0.961 . S
H1974 C1988 0.960 . S
H1975 C1988 0.961 . S
H1976 C1988 0.959 . S
H1977 C1991 0.929 . S
H1978 C1992 0.931 . S
H1979 C1994 0.930 . S
C1980 H1968 0.930 . S
C1980 C1981 1.399 . S
C1980 C1985 1.399 . S
C1981 C1980 1.399 . S
C1981 C1982 1.376 . S
C1982 H1969 0.930 . S
C1982 C1981 1.376 . S
C1982 C1983 1.388 . S
C1983 H1970 0.930 . S
C1983 C1982 1.388 . S
C1983 C1984 1.390 . S
C1984 C1983 1.390 . S
C1984 C1985 1.394 . S
C1984 C1990 1.465 . S
C1985 C1980 1.399 . S
C1985 C1984 1.394 . S
C1985 C1986 1.516 . S
C1986 C1985 1.516 . S
C1986 C1987 1.502 . S
C1986 C1988 1.561 . S
C1986 C1989 1.526 . S
C1987 H1971 0.959 . S
C1987 H1972 0.959 . S
C1987 H1973 0.961 . S
C1987 C1986 1.502 . S
C1988 H1974 0.960 . S
C1988 H1975 0.961 . S
C1988 H1976 0.959 . S
C1988 C1986 1.561 . S
C1989 C1986 1.526 . S
C1989 C1990 1.396 . S
C1989 C1994 1.390 . S
C1990 C1984 1.465 . S
C1990 C1989 1.396 . S
C1990 C1991 1.399 . S
C1991 H1977 0.929 . S
C1991 C1990 1.399 . S
C1991 C1992 1.385 . S
C1992 H1978 0.931 . S
C1992 C1991 1.385 . S
C1992 C1993 1.389 . S
C1993 C1992 1.389 . S
C1993 C1994 1.387 . S
C1994 H1979 0.930 . S
C1994 C1989 1.390 . S
C1994 C1993 1.387 . S
H1995 C2007 0.930 . S
H1996 C2009 0.930 . S
H1997 C2010 0.930 . S
H1998 C2014 0.959 . S
H1999 C2014 0.959 . S
H2000 C2014 0.961 . S
H2001 C2015 0.960 . S
H2002 C2015 0.961 1_556 S
H2003 C2015 0.959 . S
H2004 C2018 0.929 . S
H2005 C2019 0.931 . S
H2006 C2021 0.930 . S
C2007 H1995 0.930 . S
C2007 C2008 1.399 . S
C2007 C2012 1.399 . S
C2008 C2007 1.399 . S
C2008 C2009 1.376 . S
C2009 H1996 0.930 . S
C2009 C2008 1.376 . S
C2009 C2010 1.388 . S
C2010 H1997 0.930 . S
C2010 C2009 1.388 . S
C2010 C2011 1.390 . S
C2011 C2010 1.390 . S
C2011 C2012 1.394 . S
C2011 C2017 1.465 . S
C2012 C2007 1.399 . S
C2012 C2011 1.394 . S
C2012 C2013 1.516 . S
C2013 C2012 1.516 . S
C2013 C2014 1.502 . S
C2013 C2015 1.561 . S
C2013 C2016 1.526 . S
C2014 H1998 0.959 . S
C2014 H1999 0.959 . S
C2014 H2000 0.961 . S
C2014 C2013 1.502 . S
C2015 H2001 0.960 . S
C2015 H2002 0.961 1_554 S
C2015 H2003 0.959 . S
C2015 C2013 1.561 . S
C2016 C2013 1.526 . S
C2016 C2017 1.396 . S
C2016 C2021 1.390 1_554 S
C2017 C2011 1.465 . S
C2017 C2016 1.396 . S
C2017 C2018 1.399 . S
C2018 H2004 0.929 . S
C2018 C2017 1.399 . S
C2018 C2019 1.385 1_554 S
C2019 H2005 0.931 . S
C2019 C2018 1.385 1_556 S
C2019 C2020 1.389 . S
C2020 C2019 1.389 . S
C2020 C2021 1.387 . S
C2021 H2006 0.930 . S
C2021 C2016 1.390 1_556 S
C2021 C2020 1.387 . S
H2022 C2034 0.930 . S
H2023 C2036 0.930 1_455 S
H2024 C2037 0.930 . S
H2025 C2041 0.959 . S
H2026 C2041 0.959 . S
H2027 C2041 0.961 . S
H2028 C2042 0.960 . S
H2029 C2042 0.961 . S
H2030 C2042 0.959 . S
H2031 C2045 0.929 . S
H2032 C2046 0.931 . S
H2033 C2048 0.930 . S
C2034 H2022 0.930 . S
C2034 C2035 1.399 . S
C2034 C2039 1.399 . S
C2035 C2034 1.399 . S
C2035 C2036 1.376 . S
C2036 H2023 0.930 1_655 S
C2036 C2035 1.376 . S
C2036 C2037 1.388 . S
C2037 H2024 0.930 . S
C2037 C2036 1.388 . S
C2037 C2038 1.390 . S
C2038 C2037 1.390 . S
C2038 C2039 1.394 . S
C2038 C2044 1.465 . S
C2039 C2034 1.399 . S
C2039 C2038 1.394 . S
C2039 C2040 1.516 . S
C2040 C2039 1.516 . S
C2040 C2041 1.502 . S
C2040 C2042 1.561 . S
C2040 C2043 1.526 . S
C2041 H2025 0.959 . S
C2041 H2026 0.959 . S
C2041 H2027 0.961 . S
C2041 C2040 1.502 . S
C2042 H2028 0.960 . S
C2042 H2029 0.961 . S
C2042 H2030 0.959 . S
C2042 C2040 1.561 . S
C2043 C2040 1.526 . S
C2043 C2044 1.396 . S
C2043 C2048 1.390 . S
C2044 C2038 1.465 . S
C2044 C2043 1.396 . S
C2044 C2045 1.399 . S
C2045 H2031 0.929 . S
C2045 C2044 1.399 . S
C2045 C2046 1.385 . S
C2046 H2032 0.931 . S
C2046 C2045 1.385 . S
C2046 C2047 1.389 . S
C2047 C2046 1.389 . S
C2047 C2048 1.387 . S
C2048 H2033 0.930 . S
C2048 C2043 1.390 . S
C2048 C2047 1.387 . S
H2049 C2061 0.930 . S
H2050 C2063 0.930 . S
H2051 C2064 0.930 . S
H2052 C2068 0.959 . S
H2053 C2068 0.959 . S
H2054 C2068 0.961 . S
H2055 C2069 0.960 . S
H2056 C2069 0.961 . S
H2057 C2069 0.959 . S
H2058 C2072 0.929 . S
H2059 C2073 0.931 . S
H2060 C2075 0.930 . S
C2061 H2049 0.930 . S
C2061 C2062 1.399 . S
C2061 C2066 1.399 . S
C2062 C2061 1.399 . S
C2062 C2063 1.376 . S
C2063 H2050 0.930 . S
C2063 C2062 1.376 . S
C2063 C2064 1.388 . S
C2064 H2051 0.930 . S
C2064 C2063 1.388 . S
C2064 C2065 1.390 . S
C2065 C2064 1.390 . S
C2065 C2066 1.394 . S
C2065 C2071 1.465 . S
C2066 C2061 1.399 . S
C2066 C2065 1.394 . S
C2066 C2067 1.516 . S
C2067 C2066 1.516 . S
C2067 C2068 1.502 . S
C2067 C2069 1.561 . S
C2067 C2070 1.526 . S
C2068 H2052 0.959 . S
C2068 H2053 0.959 . S
C2068 H2054 0.961 . S
C2068 C2067 1.502 . S
C2069 H2055 0.960 . S
C2069 H2056 0.961 . S
C2069 H2057 0.959 . S
C2069 C2067 1.561 . S
C2070 C2067 1.526 . S
C2070 C2071 1.396 . S
C2070 C2075 1.390 . S
C2071 C2065 1.465 . S
C2071 C2070 1.396 . S
C2071 C2072 1.399 . S
C2072 H2058 0.929 . S
C2072 C2071 1.399 . S
C2072 C2073 1.385 . S
C2073 H2059 0.931 . S
C2073 C2072 1.385 . S
C2073 C2074 1.389 . S
C2074 C2073 1.389 . S
C2074 C2075 1.387 . S
C2075 H2060 0.930 . S
C2075 C2070 1.390 . S
C2075 C2074 1.387 . S
H2076 C2088 0.930 . S
H2077 C2090 0.930 . S
H2078 C2091 0.930 . S
H2079 C2095 0.959 . S
H2080 C2095 0.959 . S
H2081 C2095 0.961 . S
H2082 C2096 0.960 . S
H2083 C2096 0.961 . S
H2084 C2096 0.959 . S
H2085 C2099 0.929 . S
H2086 C2100 0.931 . S
H2087 C2102 0.930 . S
C2088 H2076 0.930 . S
C2088 C2089 1.399 . S
C2088 C2093 1.399 . S
C2089 C2088 1.399 . S
C2089 C2090 1.376 . S
C2090 H2077 0.930 . S
C2090 C2089 1.376 . S
C2090 C2091 1.388 . S
C2091 H2078 0.930 . S
C2091 C2090 1.388 . S
C2091 C2092 1.390 . S
C2092 C2091 1.390 . S
C2092 C2093 1.394 . S
C2092 C2098 1.465 . S
C2093 C2088 1.399 . S
C2093 C2092 1.394 . S
C2093 C2094 1.516 . S
C2094 C2093 1.516 . S
C2094 C2095 1.502 . S
C2094 C2096 1.561 . S
C2094 C2097 1.526 . S
C2095 H2079 0.959 . S
C2095 H2080 0.959 . S
C2095 H2081 0.961 . S
C2095 C2094 1.502 . S
C2096 H2082 0.960 . S
C2096 H2083 0.961 . S
C2096 H2084 0.959 . S
C2096 C2094 1.561 . S
C2097 C2094 1.526 . S
C2097 C2098 1.396 . S
C2097 C2102 1.390 . S
C2098 C2092 1.465 . S
C2098 C2097 1.396 . S
C2098 C2099 1.399 . S
C2099 H2085 0.929 . S
C2099 C2098 1.399 . S
C2099 C2100 1.385 . S
C2100 H2086 0.931 . S
C2100 C2099 1.385 . S
C2100 C2101 1.389 . S
C2101 C2100 1.389 . S
C2101 C2102 1.387 . S
C2102 H2087 0.930 . S
C2102 C2097 1.390 . S
C2102 C2101 1.387 . S
H2103 C2115 0.930 . S
H2104 C2117 0.930 . S
H2105 C2118 0.930 . S
H2106 C2122 0.959 . S
H2107 C2122 0.959 . S
H2108 C2122 0.961 . S
H2109 C2123 0.960 1_455 S
H2110 C2123 0.961 . S
H2111 C2123 0.959 1_455 S
H2112 C2126 0.929 . S
H2113 C2127 0.931 . S
H2114 C2129 0.930 . S
C2115 H2103 0.930 . S
C2115 C2116 1.399 . S
C2115 C2120 1.399 1_556 S
C2116 C2115 1.399 . S
C2116 C2117 1.376 . S
C2117 H2104 0.930 . S
C2117 C2116 1.376 . S
C2117 C2118 1.388 . S
C2118 H2105 0.930 . S
C2118 C2117 1.388 . S
C2118 C2119 1.426 . S
C2119 C2118 1.426 . S
C2119 C2120 1.389 1_556 S
C2119 C2125 1.431 1_556 S
C2120 C2115 1.399 1_554 S
C2120 C2119 1.389 1_554 S
C2120 C2121 1.516 . S
C2121 C2120 1.516 . S
C2121 C2122 1.502 . S
C2121 C2123 1.561 . S
C2121 C2124 1.526 . S
C2122 H2106 0.959 . S
C2122 H2107 0.959 . S
C2122 H2108 0.961 . S
C2122 C2121 1.502 . S
C2123 H2109 0.960 1_655 S
C2123 H2110 0.961 . S
C2123 H2111 0.959 1_655 S
C2123 C2121 1.561 . S
C2124 C2121 1.526 . S
C2124 C2125 1.396 . S
C2124 C2129 1.390 . S
C2125 C2119 1.431 1_554 S
C2125 C2124 1.396 . S
C2125 C2126 1.399 . S
C2126 H2112 0.929 . S
C2126 C2125 1.399 . S
C2126 C2127 1.385 . S
C2127 H2113 0.931 . S
C2127 C2126 1.385 . S
C2127 C2128 1.389 . S
C2128 C2127 1.389 . S
C2128 C2129 1.387 . S
C2129 H2114 0.930 . S
C2129 C2124 1.390 . S
C2129 C2128 1.387 . S
H2130 C2142 0.930 . S
H2131 C2144 0.930 . S
H2132 C2145 0.930 . S
H2133 C2149 0.959 . S
H2134 C2149 0.959 . S
H2135 C2149 0.961 . S
H2136 C2150 0.960 . S
H2137 C2150 0.961 . S
H2138 C2150 0.959 . S
H2139 C2153 0.929 . S
H2140 C2154 0.931 . S
H2141 C2156 0.930 . S
C2142 H2130 0.930 . S
C2142 C2143 1.399 . S
C2142 C2147 1.399 . S
C2143 C2142 1.399 . S
C2143 C2144 1.376 . S
C2144 H2131 0.930 . S
C2144 C2143 1.376 . S
C2144 C2145 1.388 . S
C2145 H2132 0.930 . S
C2145 C2144 1.388 . S
C2145 C2146 1.390 . S
C2146 C2145 1.390 . S
C2146 C2147 1.394 . S
C2146 C2152 1.465 . S
C2147 C2142 1.399 . S
C2147 C2146 1.394 . S
C2147 C2148 1.516 . S
C2148 C2147 1.516 . S
C2148 C2149 1.502 . S
C2148 C2150 1.561 . S
C2148 C2151 1.526 . S
C2149 H2133 0.959 . S
C2149 H2134 0.959 . S
C2149 H2135 0.961 . S
C2149 C2148 1.502 . S
C2150 H2136 0.960 . S
C2150 H2137 0.961 . S
C2150 H2138 0.959 . S
C2150 C2148 1.561 . S
C2151 C2148 1.526 . S
C2151 C2152 1.396 . S
C2151 C2156 1.390 . S
C2152 C2146 1.465 . S
C2152 C2151 1.396 . S
C2152 C2153 1.399 . S
C2153 H2139 0.929 . S
C2153 C2152 1.399 . S
C2153 C2154 1.385 . S
C2154 H2140 0.931 . S
C2154 C2153 1.385 . S
C2154 C2155 1.389 . S
C2155 C2154 1.389 . S
C2155 C2156 1.387 . S
C2156 H2141 0.930 . S
C2156 C2151 1.390 . S
C2156 C2155 1.387 . S
H2157 C2169 0.930 . S
H2158 C2171 0.930 . S
H2159 C2172 0.930 . S
H2160 C2176 0.959 . S
H2161 C2176 0.959 . S
H2162 C2176 0.961 . S
H2163 C2177 0.960 . S
H2164 C2177 0.961 . S
H2165 C2177 0.959 . S
H2166 C2180 0.929 . S
H2167 C2181 0.931 . S
H2168 C2183 0.930 . S
C2169 H2157 0.930 . S
C2169 C2170 1.399 . S
C2169 C2174 1.399 . S
C2170 C2169 1.399 . S
C2170 C2171 1.376 . S
C2171 H2158 0.930 . S
C2171 C2170 1.376 . S
C2171 C2172 1.388 . S
C2172 H2159 0.930 . S
C2172 C2171 1.388 . S
C2172 C2173 1.390 . S
C2173 C2172 1.390 . S
C2173 C2174 1.394 . S
C2173 C2179 1.465 . S
C2174 C2169 1.399 . S
C2174 C2173 1.394 . S
C2174 C2175 1.516 . S
C2175 C2174 1.516 . S
C2175 C2176 1.502 . S
C2175 C2177 1.561 . S
C2175 C2178 1.526 . S
C2176 H2160 0.959 . S
C2176 H2161 0.959 . S
C2176 H2162 0.961 . S
C2176 C2175 1.502 . S
C2177 H2163 0.960 . S
C2177 H2164 0.961 . S
C2177 H2165 0.959 . S
C2177 C2175 1.561 . S
C2178 C2175 1.526 . S
C2178 C2179 1.396 . S
C2178 C2183 1.390 . S
C2179 C2173 1.465 . S
C2179 C2178 1.396 . S
C2179 C2180 1.399 . S
C2180 H2166 0.929 . S
C2180 C2179 1.399 . S
C2180 C2181 1.385 . S
C2181 H2167 0.931 . S
C2181 C2180 1.385 . S
C2181 C2182 1.389 . S
C2182 C2181 1.389 . S
C2182 C2183 1.387 . S
C2183 H2168 0.930 . S
C2183 C2178 1.390 . S
C2183 C2182 1.387 . S
H2184 C2196 0.930 . S
H2185 C2198 0.930 . S
H2186 C2199 0.930 . S
H2187 C2203 0.959 . S
H2188 C2203 0.959 . S
H2189 C2203 0.961 . S
H2190 C2204 0.960 . S
H2191 C2204 0.961 . S
H2192 C2204 0.959 . S
H2193 C2207 0.929 . S
H2194 C2208 0.931 . S
H2195 C2210 0.930 . S
C2196 H2184 0.930 . S
C2196 C2197 1.399 . S
C2196 C2201 1.399 . S
C2197 C2196 1.399 . S
C2197 C2198 1.376 . S
C2198 H2185 0.930 . S
C2198 C2197 1.376 . S
C2198 C2199 1.388 . S
C2199 H2186 0.930 . S
C2199 C2198 1.388 . S
C2199 C2200 1.390 . S
C2200 C2199 1.390 . S
C2200 C2201 1.394 . S
C2200 C2206 1.465 . S
C2201 C2196 1.399 . S
C2201 C2200 1.394 . S
C2201 C2202 1.516 . S
C2202 C2201 1.516 . S
C2202 C2203 1.502 . S
C2202 C2204 1.561 . S
C2202 C2205 1.526 . S
C2203 H2187 0.959 . S
C2203 H2188 0.959 . S
C2203 H2189 0.961 . S
C2203 C2202 1.502 . S
C2204 H2190 0.960 . S
C2204 H2191 0.961 . S
C2204 H2192 0.959 . S
C2204 C2202 1.561 . S
C2205 C2202 1.526 . S
C2205 C2206 1.396 . S
C2205 C2210 1.390 . S
C2206 C2200 1.465 . S
C2206 C2205 1.396 . S
C2206 C2207 1.399 . S
C2207 H2193 0.929 . S
C2207 C2206 1.399 . S
C2207 C2208 1.385 . S
C2208 H2194 0.931 . S
C2208 C2207 1.385 . S
C2208 C2209 1.389 . S
C2209 C2208 1.389 . S
C2209 C2210 1.387 . S
C2210 H2195 0.930 . S
C2210 C2205 1.390 . S
C2210 C2209 1.387 . S
H2211 C2223 0.930 1_554 S
H2212 C2225 0.930 . S
H2213 C2226 0.930 . S
H2214 C2230 0.959 1_556 S
H2215 C2230 0.959 . S
H2216 C2230 0.961 . S
H2217 C2231 0.960 . S
H2218 C2231 0.961 . S
H2219 C2231 0.959 . S
H2220 C2234 0.929 . S
H2221 C2235 0.931 . S
H2222 C2237 0.930 . S
C2223 H2211 0.930 1_556 S
C2223 C2224 1.399 . S
C2223 C2228 1.399 . S
C2224 C2223 1.399 . S
C2224 C2225 1.376 . S
C2225 H2212 0.930 . S
C2225 C2224 1.376 . S
C2225 C2226 1.388 . S
C2226 H2213 0.930 . S
C2226 C2225 1.388 . S
C2226 C2227 1.390 . S
C2227 C2226 1.390 . S
C2227 C2228 1.394 . S
C2227 C2233 1.465 . S
C2228 C2223 1.399 . S
C2228 C2227 1.394 . S
C2228 C2229 1.516 . S
C2229 C2228 1.516 . S
C2229 C2230 1.502 1_556 S
C2229 C2231 1.561 1_556 S
C2229 C2232 1.526 . S
C2230 H2214 0.959 1_554 S
C2230 H2215 0.959 . S
C2230 H2216 0.961 . S
C2230 C2229 1.502 1_554 S
C2231 H2217 0.960 . S
C2231 H2218 0.961 . S
C2231 H2219 0.959 . S
C2231 C2229 1.561 1_554 S
C2232 C2229 1.526 . S
C2232 C2233 1.396 . S
C2232 C2237 1.390 . S
C2233 C2227 1.465 . S
C2233 C2232 1.396 . S
C2233 C2234 1.399 . S
C2234 H2220 0.929 . S
C2234 C2233 1.399 . S
C2234 C2235 1.385 . S
C2235 H2221 0.931 . S
C2235 C2234 1.385 . S
C2235 C2236 1.389 . S
C2236 C2235 1.389 . S
C2236 C2237 1.387 . S
C2237 H2222 0.930 . S
C2237 C2232 1.390 . S
C2237 C2236 1.387 . S
H2238 C2250 0.930 . S
H2239 C2252 0.930 . S
H2240 C2253 0.930 . S
H2241 C2257 0.959 . S
H2242 C2257 0.959 . S
H2243 C2257 0.961 . S
H2244 C2258 0.960 . S
H2245 C2258 0.961 . S
H2246 C2258 0.959 . S
H2247 C2261 0.929 . S
H2248 C2262 0.931 . S
H2249 C2264 0.930 . S
C2250 H2238 0.930 . S
C2250 C2251 1.399 . S
C2250 C2255 1.399 . S
C2251 C2250 1.399 . S
C2251 C2252 1.376 . S
C2252 H2239 0.930 . S
C2252 C2251 1.376 . S
C2252 C2253 1.388 . S
C2253 H2240 0.930 . S
C2253 C2252 1.388 . S
C2253 C2254 1.390 . S
C2254 C2253 1.390 . S
C2254 C2255 1.394 . S
C2254 C2260 1.465 . S
C2255 C2250 1.399 . S
C2255 C2254 1.394 . S
C2255 C2256 1.516 . S
C2256 C2255 1.516 . S
C2256 C2257 1.502 . S
C2256 C2258 1.561 . S
C2256 C2259 1.526 . S
C2257 H2241 0.959 . S
C2257 H2242 0.959 . S
C2257 H2243 0.961 . S
C2257 C2256 1.502 . S
C2258 H2244 0.960 . S
C2258 H2245 0.961 . S
C2258 H2246 0.959 . S
C2258 C2256 1.561 . S
C2259 C2256 1.526 . S
C2259 C2260 1.396 . S
C2259 C2264 1.390 . S
C2260 C2254 1.465 . S
C2260 C2259 1.396 . S
C2260 C2261 1.399 . S
C2261 H2247 0.929 . S
C2261 C2260 1.399 . S
C2261 C2262 1.385 . S
C2262 H2248 0.931 . S
C2262 C2261 1.385 . S
C2262 C2263 1.389 . S
C2263 C2262 1.389 . S
C2263 C2264 1.387 . S
C2264 H2249 0.930 . S
C2264 C2259 1.390 . S
C2264 C2263 1.387 . S
H2265 C2277 0.930 . S
H2266 C2279 0.930 . S
H2267 C2280 0.930 . S
H2268 C2284 0.959 . S
H2269 C2284 0.959 . S
H2270 C2284 0.961 . S
H2271 C2285 0.960 . S
H2272 C2285 0.961 . S
H2273 C2285 0.959 . S
H2274 C2288 0.929 . S
H2275 C2289 0.931 . S
H2276 C2291 0.930 . S
C2277 H2265 0.930 . S
C2277 C2278 1.399 . S
C2277 C2282 1.399 . S
C2278 C2277 1.399 . S
C2278 C2279 1.376 . S
C2279 H2266 0.930 . S
C2279 C2278 1.376 . S
C2279 C2280 1.388 . S
C2280 H2267 0.930 . S
C2280 C2279 1.388 . S
C2280 C2281 1.390 . S
C2281 C2280 1.390 . S
C2281 C2282 1.394 . S
C2281 C2287 1.465 . S
C2282 C2277 1.399 . S
C2282 C2281 1.394 . S
C2282 C2283 1.516 . S
C2283 C2282 1.516 . S
C2283 C2284 1.502 . S
C2283 C2285 1.561 . S
C2283 C2286 1.526 . S
C2284 H2268 0.959 . S
C2284 H2269 0.959 . S
C2284 H2270 0.961 . S
C2284 C2283 1.502 . S
C2285 H2271 0.960 . S
C2285 H2272 0.961 . S
C2285 H2273 0.959 . S
C2285 C2283 1.561 . S
C2286 C2283 1.526 . S
C2286 C2287 1.396 . S
C2286 C2291 1.390 . S
C2287 C2281 1.465 . S
C2287 C2286 1.396 . S
C2287 C2288 1.399 . S
C2288 H2274 0.929 . S
C2288 C2287 1.399 . S
C2288 C2289 1.385 . S
C2289 H2275 0.931 . S
C2289 C2288 1.385 . S
C2289 C2290 1.389 . S
C2290 C2289 1.389 . S
C2290 C2291 1.387 . S
C2291 H2276 0.930 . S
C2291 C2286 1.390 . S
C2291 C2290 1.387 . S
H2292 C2304 0.930 . S
H2293 C2306 0.930 . S
H2294 C2307 0.930 . S
H2295 C2311 0.959 . S
H2296 C2311 0.959 . S
H2297 C2311 0.961 . S
H2298 C2312 0.960 . S
H2299 C2312 0.961 . S
H2300 C2312 0.959 . S
H2301 C2315 0.929 . S
H2302 C2316 0.931 . S
H2303 C2318 0.930 . S
C2304 H2292 0.930 . S
C2304 C2305 1.399 . S
C2304 C2309 1.399 . S
C2305 C2304 1.399 . S
C2305 C2306 1.376 . S
C2306 H2293 0.930 . S
C2306 C2305 1.376 . S
C2306 C2307 1.388 . S
C2307 H2294 0.930 . S
C2307 C2306 1.388 . S
C2307 C2308 1.390 . S
C2308 C2307 1.390 . S
C2308 C2309 1.394 . S
C2308 C2314 1.465 . S
C2309 C2304 1.399 . S
C2309 C2308 1.394 . S
C2309 C2310 1.516 . S
C2310 C2309 1.516 . S
C2310 C2311 1.502 . S
C2310 C2312 1.561 . S
C2310 C2313 1.526 . S
C2311 H2295 0.959 . S
C2311 H2296 0.959 . S
C2311 H2297 0.961 . S
C2311 C2310 1.502 . S
C2312 H2298 0.960 . S
C2312 H2299 0.961 . S
C2312 H2300 0.959 . S
C2312 C2310 1.561 . S
C2313 C2310 1.526 . S
C2313 C2314 1.396 . S
C2313 C2318 1.390 . S
C2314 C2308 1.465 . S
C2314 C2313 1.396 . S
C2314 C2315 1.399 . S
C2315 H2301 0.929 . S
C2315 C2314 1.399 . S
C2315 C2316 1.385 . S
C2316 H2302 0.931 . S
C2316 C2315 1.385 . S
C2316 C2317 1.389 . S
C2317 C2316 1.389 . S
C2317 C2318 1.387 . S
C2318 H2303 0.930 . S
C2318 C2313 1.390 . S
C2318 C2317 1.387 . S
H2319 C2331 0.930 . S
H2320 C2333 0.930 . S
H2321 C2334 0.930 . S
H2322 C2338 0.959 . S
H2323 C2338 0.959 . S
H2324 C2338 0.961 . S
H2325 C2339 0.960 . S
H2326 C2339 0.961 . S
H2327 C2339 0.959 . S
H2328 C2342 0.929 . S
H2329 C2343 0.931 . S
H2330 C2345 0.930 . S
C2331 H2319 0.930 . S
C2331 C2332 1.399 . S
C2331 C2336 1.399 . S
C2332 C2331 1.399 . S
C2332 C2333 1.376 . S
C2333 H2320 0.930 . S
C2333 C2332 1.376 . S
C2333 C2334 1.388 . S
C2334 H2321 0.930 . S
C2334 C2333 1.388 . S
C2334 C2335 1.390 . S
C2335 C2334 1.390 . S
C2335 C2336 1.394 . S
C2335 C2341 1.465 . S
C2336 C2331 1.399 . S
C2336 C2335 1.394 . S
C2336 C2337 1.516 . S
C2337 C2336 1.516 . S
C2337 C2338 1.502 . S
C2337 C2339 1.561 . S
C2337 C2340 1.526 . S
C2338 H2322 0.959 . S
C2338 H2323 0.959 . S
C2338 H2324 0.961 . S
C2338 C2337 1.502 . S
C2339 H2325 0.960 . S
C2339 H2326 0.961 . S
C2339 H2327 0.959 . S
C2339 C2337 1.561 . S
C2340 C2337 1.526 . S
C2340 C2341 1.396 . S
C2340 C2345 1.390 . S
C2341 C2335 1.465 . S
C2341 C2340 1.396 . S
C2341 C2342 1.399 . S
C2342 H2328 0.929 . S
C2342 C2341 1.399 . S
C2342 C2343 1.385 . S
C2343 H2329 0.931 . S
C2343 C2342 1.385 . S
C2343 C2344 1.389 . S
C2344 C2343 1.389 . S
C2344 C2345 1.387 . S
C2345 H2330 0.930 . S
C2345 C2340 1.390 . S
C2345 C2344 1.387 . S
H2346 C2358 0.930 . S
H2347 C2360 0.930 . S
H2348 C2361 0.930 . S
H2349 C2365 0.959 . S
H2350 C2365 0.959 . S
H2351 C2365 0.961 . S
H2352 C2366 0.960 . S
H2353 C2366 0.961 . S
H2354 C2366 0.959 . S
H2355 C2369 0.929 . S
H2356 C2370 0.931 . S
H2357 C2372 0.930 . S
C2358 H2346 0.930 . S
C2358 C2359 1.399 . S
C2358 C2363 1.399 . S
C2359 C2358 1.399 . S
C2359 C2360 1.376 . S
C2360 H2347 0.930 . S
C2360 C2359 1.376 . S
C2360 C2361 1.388 . S
C2361 H2348 0.930 . S
C2361 C2360 1.388 . S
C2361 C2362 1.390 . S
C2362 C2361 1.390 . S
C2362 C2363 1.394 . S
C2362 C2368 1.465 . S
C2363 C2358 1.399 . S
C2363 C2362 1.394 . S
C2363 C2364 1.516 . S
C2364 C2363 1.516 . S
C2364 C2365 1.502 . S
C2364 C2366 1.561 . S
C2364 C2367 1.526 . S
C2365 H2349 0.959 . S
C2365 H2350 0.959 . S
C2365 H2351 0.961 . S
C2365 C2364 1.502 . S
C2366 H2352 0.960 . S
C2366 H2353 0.961 . S
C2366 H2354 0.959 . S
C2366 C2364 1.561 . S
C2367 C2364 1.526 . S
C2367 C2368 1.396 . S
C2367 C2372 1.390 . S
C2368 C2362 1.465 . S
C2368 C2367 1.396 . S
C2368 C2369 1.399 . S
C2369 H2355 0.929 . S
C2369 C2368 1.399 . S
C2369 C2370 1.385 . S
C2370 H2356 0.931 . S
C2370 C2369 1.385 . S
C2370 C2371 1.389 . S
C2371 C2370 1.389 . S
C2371 C2372 1.387 . S
C2372 H2357 0.930 . S
C2372 C2367 1.390 . S
C2372 C2371 1.387 . S
H2373 C2385 0.930 . S
H2374 C2387 0.930 . S
H2375 C2388 0.930 . S
H2376 C2392 0.959 . S
H2377 C2392 0.959 . S
H2378 C2392 0.961 . S
H2379 C2393 0.960 . S
H2380 C2393 0.961 . S
H2381 C2393 0.959 . S
H2382 C2396 0.929 . S
H2383 C2397 0.931 . S
H2384 C2399 0.930 . S
C2385 H2373 0.930 . S
C2385 C2386 1.399 . S
C2385 C2390 1.399 . S
C2386 C2385 1.399 . S
C2386 C2387 1.376 . S
C2387 H2374 0.930 . S
C2387 C2386 1.376 . S
C2387 C2388 1.388 . S
C2388 H2375 0.930 . S
C2388 C2387 1.388 . S
C2388 C2389 1.390 . S
C2389 C2388 1.390 . S
C2389 C2390 1.394 . S
C2389 C2395 1.465 . S
C2390 C2385 1.399 . S
C2390 C2389 1.394 . S
C2390 C2391 1.516 . S
C2391 C2390 1.516 . S
C2391 C2392 1.502 . S
C2391 C2393 1.561 . S
C2391 C2394 1.526 . S
C2392 H2376 0.959 . S
C2392 H2377 0.959 . S
C2392 H2378 0.961 . S
C2392 C2391 1.502 . S
C2393 H2379 0.960 . S
C2393 H2380 0.961 . S
C2393 H2381 0.959 . S
C2393 C2391 1.561 . S
C2394 C2391 1.526 . S
C2394 C2395 1.396 . S
C2394 C2399 1.390 . S
C2395 C2389 1.465 . S
C2395 C2394 1.396 . S
C2395 C2396 1.399 . S
C2396 H2382 0.929 . S
C2396 C2395 1.399 . S
C2396 C2397 1.385 . S
C2397 H2383 0.931 . S
C2397 C2396 1.385 . S
C2397 C2398 1.389 . S
C2398 C2397 1.389 . S
C2398 C2399 1.387 . S
C2399 H2384 0.930 . S
C2399 C2394 1.390 . S
C2399 C2398 1.387 . S
H2400 C2412 0.930 . S
H2401 C2414 0.930 . S
H2402 C2415 0.930 . S
H2403 C2419 0.959 . S
H2404 C2419 0.959 . S
H2405 C2419 0.961 . S
H2406 C2420 0.960 . S
H2407 C2420 0.961 . S
H2408 C2420 0.959 . S
H2409 C2423 0.929 . S
H2410 C2424 0.931 . S
H2411 C2426 0.930 . S
C2412 H2400 0.930 . S
C2412 C2413 1.399 . S
C2412 C2417 1.399 . S
C2413 C2412 1.399 . S
C2413 C2414 1.376 . S
C2414 H2401 0.930 . S
C2414 C2413 1.376 . S
C2414 C2415 1.388 . S
C2415 H2402 0.930 . S
C2415 C2414 1.388 . S
C2415 C2416 1.390 . S
C2416 C2415 1.390 . S
C2416 C2417 1.394 . S
C2416 C2422 1.465 . S
C2417 C2412 1.399 . S
C2417 C2416 1.394 . S
C2417 C2418 1.516 . S
C2418 C2417 1.516 . S
C2418 C2419 1.502 . S
C2418 C2420 1.561 . S
C2418 C2421 1.526 . S
C2419 H2403 0.959 . S
C2419 H2404 0.959 . S
C2419 H2405 0.961 . S
C2419 C2418 1.502 . S
C2420 H2406 0.960 . S
C2420 H2407 0.961 . S
C2420 H2408 0.959 . S
C2420 C2418 1.561 . S
C2421 C2418 1.526 . S
C2421 C2422 1.396 . S
C2421 C2426 1.390 . S
C2422 C2416 1.465 . S
C2422 C2421 1.396 . S
C2422 C2423 1.399 . S
C2423 H2409 0.929 . S
C2423 C2422 1.399 . S
C2423 C2424 1.385 . S
C2424 H2410 0.931 . S
C2424 C2423 1.385 . S
C2424 C2425 1.389 . S
C2425 C2424 1.389 . S
C2425 C2426 1.387 . S
C2426 H2411 0.930 . S
C2426 C2421 1.390 . S
C2426 C2425 1.387 . S
H2427 C2439 0.930 . S
H2428 C2441 0.930 . S
H2429 C2442 0.930 . S
H2430 C2446 0.959 . S
H2431 C2446 0.959 . S
H2432 C2446 0.961 . S
H2433 C2447 0.960 . S
H2434 C2447 0.961 . S
H2435 C2447 0.959 . S
H2436 C2450 0.929 . S
H2437 C2451 0.931 . S
H2438 C2453 0.930 . S
C2439 H2427 0.930 . S
C2439 C2440 1.399 . S
C2439 C2444 1.399 . S
C2440 C2439 1.399 . S
C2440 C2441 1.376 . S
C2441 H2428 0.930 . S
C2441 C2440 1.376 . S
C2441 C2442 1.388 . S
C2442 H2429 0.930 . S
C2442 C2441 1.388 . S
C2442 C2443 1.390 . S
C2443 C2442 1.390 . S
C2443 C2444 1.394 . S
C2443 C2449 1.465 . S
C2444 C2439 1.399 . S
C2444 C2443 1.394 . S
C2444 C2445 1.516 . S
C2445 C2444 1.516 . S
C2445 C2446 1.502 . S
C2445 C2447 1.561 . S
C2445 C2448 1.526 . S
C2446 H2430 0.959 . S
C2446 H2431 0.959 . S
C2446 H2432 0.961 . S
C2446 C2445 1.502 . S
C2447 H2433 0.960 . S
C2447 H2434 0.961 . S
C2447 H2435 0.959 . S
C2447 C2445 1.561 . S
C2448 C2445 1.526 . S
C2448 C2449 1.396 . S
C2448 C2453 1.390 . S
C2449 C2443 1.465 . S
C2449 C2448 1.396 . S
C2449 C2450 1.399 . S
C2450 H2436 0.929 . S
C2450 C2449 1.399 . S
C2450 C2451 1.385 . S
C2451 H2437 0.931 . S
C2451 C2450 1.385 . S
C2451 C2452 1.389 . S
C2452 C2451 1.389 . S
C2452 C2453 1.387 . S
C2453 H2438 0.930 . S
C2453 C2448 1.390 . S
C2453 C2452 1.387 . S
H2454 C2466 0.930 . S
H2455 C2468 0.930 . S
H2456 C2469 0.930 . S
H2457 C2473 0.959 . S
H2458 C2473 0.959 . S
H2459 C2473 0.961 . S
H2460 C2474 0.960 . S
H2461 C2474 0.961 . S
H2462 C2474 0.959 . S
H2463 C2477 0.929 . S
H2464 C2478 0.955 . S
H2465 C2480 0.930 . S
C2466 H2454 0.930 . S
C2466 C2467 1.399 1_565 S
C2466 C2471 1.399 . S
C2467 C2466 1.399 1_545 S
C2467 C2468 1.376 . S
C2468 H2455 0.930 . S
C2468 C2467 1.376 . S
C2468 C2469 1.388 . S
C2469 H2456 0.930 . S
C2469 C2468 1.388 . S
C2469 C2470 1.390 . S
C2470 C2469 1.390 . S
C2470 C2471 1.394 1_545 S
C2470 C2476 1.465 1_545 S
C2471 C2466 1.399 . S
C2471 C2470 1.394 1_565 S
C2471 C2472 1.516 . S
C2472 C2471 1.516 . S
C2472 C2473 1.502 . S
C2472 C2474 1.561 . S
C2472 C2475 1.526 . S
C2473 H2457 0.959 . S
C2473 H2458 0.959 . S
C2473 H2459 0.961 . S
C2473 C2472 1.502 . S
C2474 H2460 0.960 . S
C2474 H2461 0.961 . S
C2474 H2462 0.959 . S
C2474 C2472 1.561 . S
C2475 C2472 1.526 . S
C2475 C2476 1.396 . S
C2475 C2480 1.390 . S
C2476 C2470 1.465 1_565 S
C2476 C2475 1.396 . S
C2476 C2477 1.399 1_565 S
C2477 H2463 0.929 . S
C2477 C2476 1.399 1_545 S
C2477 C2478 1.399 . S
C2478 H2464 0.955 . S
C2478 C2477 1.399 . S
C2478 C2479 1.353 1_545 S
C2479 C2478 1.353 1_565 S
C2479 C2480 1.387 . S
C2480 H2465 0.930 . S
C2480 C2475 1.390 . S
C2480 C2479 1.387 . S
H2481 C2493 0.930 . S
H2482 C2495 0.930 . S
H2483 C2496 0.930 . S
H2484 C2500 0.959 . S
H2485 C2500 0.959 . S
H2486 C2500 0.961 . S
H2487 C2501 0.960 . S
H2488 C2501 0.961 . S
H2489 C2501 0.959 . S
H2490 C2504 0.929 . S
H2491 C2505 0.931 . S
H2492 C2507 0.930 . S
C2493 H2481 0.930 . S
C2493 C2494 1.399 . S
C2493 C2498 1.399 . S
C2494 C2493 1.399 . S
C2494 C2495 1.376 . S
C2495 H2482 0.930 . S
C2495 C2494 1.376 . S
C2495 C2496 1.388 . S
C2496 H2483 0.930 . S
C2496 C2495 1.388 . S
C2496 C2497 1.390 . S
C2497 C2496 1.390 . S
C2497 C2498 1.394 . S
C2497 C2503 1.465 . S
C2498 C2493 1.399 . S
C2498 C2497 1.394 . S
C2498 C2499 1.516 . S
C2499 C2498 1.516 . S
C2499 C2500 1.502 . S
C2499 C2501 1.561 . S
C2499 C2502 1.526 . S
C2500 H2484 0.959 . S
C2500 H2485 0.959 . S
C2500 H2486 0.961 . S
C2500 C2499 1.502 . S
C2501 H2487 0.960 . S
C2501 H2488 0.961 . S
C2501 H2489 0.959 . S
C2501 C2499 1.561 . S
C2502 C2499 1.526 . S
C2502 C2503 1.396 . S
C2502 C2507 1.390 . S
C2503 C2497 1.465 . S
C2503 C2502 1.396 . S
C2503 C2504 1.399 . S
C2504 H2490 0.929 . S
C2504 C2503 1.399 . S
C2504 C2505 1.385 . S
C2505 H2491 0.931 . S
C2505 C2504 1.385 . S
C2505 C2506 1.389 . S
C2506 C2505 1.389 . S
C2506 C2507 1.387 . S
C2507 H2492 0.930 . S
C2507 C2502 1.390 . S
C2507 C2506 1.387 . S
H2508 C2520 0.930 . S
H2509 C2522 0.930 . S
H2510 C2523 0.930 . S
H2511 C2527 0.959 . S
H2512 C2527 0.959 . S
H2513 C2527 0.961 . S
H2514 C2528 0.960 . S
H2515 C2528 0.961 . S
H2516 C2528 0.959 . S
H2517 C2531 0.929 . S
H2518 C2532 0.931 . S
H2519 C2534 0.930 . S
C2520 H2508 0.930 . S
C2520 C2521 1.399 . S
C2520 C2525 1.399 . S
C2521 C2520 1.399 . S
C2521 C2522 1.376 . S
C2522 H2509 0.930 . S
C2522 C2521 1.376 . S
C2522 C2523 1.388 . S
C2523 H2510 0.930 . S
C2523 C2522 1.388 . S
C2523 C2524 1.390 . S
C2524 C2523 1.390 . S
C2524 C2525 1.394 . S
C2524 C2530 1.465 . S
C2525 C2520 1.399 . S
C2525 C2524 1.394 . S
C2525 C2526 1.516 . S
C2526 C2525 1.516 . S
C2526 C2527 1.502 . S
C2526 C2528 1.561 . S
C2526 C2529 1.526 . S
C2527 H2511 0.959 . S
C2527 H2512 0.959 . S
C2527 H2513 0.961 . S
C2527 C2526 1.502 . S
C2528 H2514 0.960 . S
C2528 H2515 0.961 . S
C2528 H2516 0.959 . S
C2528 C2526 1.561 . S
C2529 C2526 1.526 . S
C2529 C2530 1.396 . S
C2529 C2534 1.390 . S
C2530 C2524 1.465 . S
C2530 C2529 1.396 . S
C2530 C2531 1.399 . S
C2531 H2517 0.929 . S
C2531 C2530 1.399 . S
C2531 C2532 1.385 . S
C2532 H2518 0.931 . S
C2532 C2531 1.385 . S
C2532 C2533 1.389 . S
C2533 C2532 1.389 . S
C2533 C2534 1.387 . S
C2534 H2519 0.930 . S
C2534 C2529 1.390 . S
C2534 C2533 1.387 . S
H2535 C2547 0.930 . S
H2536 C2549 0.930 . S
H2537 C2550 0.930 . S
H2538 C2554 0.959 . S
H2539 C2554 0.959 . S
H2540 C2554 0.961 . S
H2541 C2555 0.960 . S
H2542 C2555 0.961 . S
H2543 C2555 0.959 . S
H2544 C2558 0.929 . S
H2545 C2559 0.931 . S
H2546 C2561 0.930 . S
C2547 H2535 0.930 . S
C2547 C2548 1.399 . S
C2547 C2552 1.399 . S
C2548 C2547 1.399 . S
C2548 C2549 1.376 . S
C2549 H2536 0.930 . S
C2549 C2548 1.376 . S
C2549 C2550 1.388 . S
C2550 H2537 0.930 . S
C2550 C2549 1.388 . S
C2550 C2551 1.390 . S
C2551 C2550 1.390 . S
C2551 C2552 1.394 . S
C2551 C2557 1.465 . S
C2552 C2547 1.399 . S
C2552 C2551 1.394 . S
C2552 C2553 1.516 . S
C2553 C2552 1.516 . S
C2553 C2554 1.502 . S
C2553 C2555 1.561 . S
C2553 C2556 1.526 . S
C2554 H2538 0.959 . S
C2554 H2539 0.959 . S
C2554 H2540 0.961 . S
C2554 C2553 1.502 . S
C2555 H2541 0.960 . S
C2555 H2542 0.961 . S
C2555 H2543 0.959 . S
C2555 C2553 1.561 . S
C2556 C2553 1.526 . S
C2556 C2557 1.396 . S
C2556 C2561 1.390 . S
C2557 C2551 1.465 . S
C2557 C2556 1.396 . S
C2557 C2558 1.399 . S
C2558 H2544 0.929 . S
C2558 C2557 1.399 . S
C2558 C2559 1.385 . S
C2559 H2545 0.931 . S
C2559 C2558 1.385 . S
C2559 C2560 1.389 . S
C2560 C2559 1.389 . S
C2560 C2561 1.387 . S
C2561 H2546 0.930 . S
C2561 C2556 1.390 . S
C2561 C2560 1.387 . S
H2562 C2574 0.930 . S
H2563 C2576 0.930 . S
H2564 C2577 0.930 . S
H2565 C2581 0.959 . S
H2566 C2581 0.959 . S
H2567 C2581 0.961 . S
H2568 C2582 0.960 . S
H2569 C2582 0.961 . S
H2570 C2582 0.959 . S
H2571 C2585 0.929 . S
H2572 C2586 0.931 . S
H2573 C2588 0.930 . S
C2574 H2562 0.930 . S
C2574 C2575 1.399 . S
C2574 C2579 1.399 . S
C2575 C2574 1.399 . S
C2575 C2576 1.376 . S
C2576 H2563 0.930 . S
C2576 C2575 1.376 . S
C2576 C2577 1.388 . S
C2577 H2564 0.930 . S
C2577 C2576 1.388 . S
C2577 C2578 1.390 . S
C2578 C2577 1.390 . S
C2578 C2579 1.394 . S
C2578 C2584 1.465 . S
C2579 C2574 1.399 . S
C2579 C2578 1.394 . S
C2579 C2580 1.516 . S
C2580 C2579 1.516 . S
C2580 C2581 1.502 . S
C2580 C2582 1.561 . S
C2580 C2583 1.526 . S
C2581 H2565 0.959 . S
C2581 H2566 0.959 . S
C2581 H2567 0.961 . S
C2581 C2580 1.502 . S
C2582 H2568 0.960 . S
C2582 H2569 0.961 . S
C2582 H2570 0.959 . S
C2582 C2580 1.561 . S
C2583 C2580 1.526 . S
C2583 C2584 1.396 . S
C2583 C2588 1.390 . S
C2584 C2578 1.465 . S
C2584 C2583 1.396 . S
C2584 C2585 1.399 . S
C2585 H2571 0.929 . S
C2585 C2584 1.399 . S
C2585 C2586 1.385 . S
C2586 H2572 0.931 . S
C2586 C2585 1.385 . S
C2586 C2587 1.389 . S
C2587 C2586 1.389 . S
C2587 C2588 1.387 . S
C2588 H2573 0.930 . S
C2588 C2583 1.390 . S
C2588 C2587 1.387 . S
H2589 C2601 0.930 . S
H2590 C2603 0.930 . S
H2591 C2604 0.930 . S
H2592 C2608 0.959 . S
H2593 C2608 0.959 . S
H2594 C2608 0.961 1_655 S
H2595 C2609 0.960 . S
H2596 C2609 0.961 . S
H2597 C2609 0.959 . S
H2598 C2612 0.929 . S
H2599 C2613 0.931 . S
H2600 C2615 0.930 . S
C2601 H2589 0.930 . S
C2601 C2602 1.399 . S
C2601 C2606 1.399 . S
C2602 C2601 1.399 . S
C2602 C2603 1.376 . S
C2603 H2590 0.930 . S
C2603 C2602 1.376 . S
C2603 C2604 1.388 . S
C2604 H2591 0.930 . S
C2604 C2603 1.388 . S
C2604 C2605 1.390 . S
C2605 C2604 1.390 . S
C2605 C2606 1.394 . S
C2605 C2611 1.465 1_655 S
C2606 C2601 1.399 . S
C2606 C2605 1.394 . S
C2606 C2607 1.516 . S
C2607 C2606 1.516 . S
C2607 C2608 1.502 1_665 S
C2607 C2609 1.561 . S
C2607 C2610 1.526 1_655 S
C2608 H2592 0.959 . S
C2608 H2593 0.959 . S
C2608 H2594 0.961 1_455 S
C2608 C2607 1.502 1_445 S
C2609 H2595 0.960 . S
C2609 H2596 0.961 . S
C2609 H2597 0.959 . S
C2609 C2607 1.561 . S
C2610 C2607 1.526 1_455 S
C2610 C2611 1.396 . S
C2610 C2615 1.390 . S
C2611 C2605 1.465 1_455 S
C2611 C2610 1.396 . S
C2611 C2612 1.399 . S
C2612 H2598 0.929 . S
C2612 C2611 1.399 . S
C2612 C2613 1.385 . S
C2613 H2599 0.931 . S
C2613 C2612 1.385 . S
C2613 C2614 1.389 . S
C2614 C2613 1.389 . S
C2614 C2615 1.387 . S
C2615 H2600 0.930 . S
C2615 C2610 1.390 . S
C2615 C2614 1.387 . S
H2616 C2628 0.930 . S
H2617 C2630 0.930 . S
H2618 C2631 0.930 . S
H2619 C2635 0.959 . S
H2620 C2635 0.959 . S
H2621 C2635 0.961 . S
H2622 C2636 0.960 . S
H2623 C2636 0.961 . S
H2624 C2636 0.959 . S
H2625 C2639 0.929 . S
H2626 C2640 0.931 . S
H2627 C2642 0.930 . S
C2628 H2616 0.930 . S
C2628 C2629 1.399 . S
C2628 C2633 1.399 . S
C2629 C2628 1.399 . S
C2629 C2630 1.376 . S
C2630 H2617 0.930 . S
C2630 C2629 1.376 . S
C2630 C2631 1.388 . S
C2631 H2618 0.930 . S
C2631 C2630 1.388 . S
C2631 C2632 1.390 . S
C2632 C2631 1.390 . S
C2632 C2633 1.394 . S
C2632 C2638 1.465 . S
C2633 C2628 1.399 . S
C2633 C2632 1.394 . S
C2633 C2634 1.516 . S
C2634 C2633 1.516 . S
C2634 C2635 1.502 . S
C2634 C2636 1.561 . S
C2634 C2637 1.526 . S
C2635 H2619 0.959 . S
C2635 H2620 0.959 . S
C2635 H2621 0.961 . S
C2635 C2634 1.502 . S
C2636 H2622 0.960 . S
C2636 H2623 0.961 . S
C2636 H2624 0.959 . S
C2636 C2634 1.561 . S
C2637 C2634 1.526 . S
C2637 C2638 1.396 . S
C2637 C2642 1.390 . S
C2638 C2632 1.465 . S
C2638 C2637 1.396 . S
C2638 C2639 1.399 . S
C2639 H2625 0.929 . S
C2639 C2638 1.399 . S
C2639 C2640 1.385 . S
C2640 H2626 0.931 . S
C2640 C2639 1.385 . S
C2640 C2641 1.389 . S
C2641 C2640 1.389 . S
C2641 C2642 1.387 . S
C2642 H2627 0.930 . S
C2642 C2637 1.390 . S
C2642 C2641 1.387 . S
H2643 C2655 0.930 . S
H2644 C2657 0.930 . S
H2645 C2658 0.930 . S
H2646 C2662 0.959 . S
H2647 C2662 0.959 . S
H2648 C2662 0.961 . S
H2649 C2663 0.960 1_556 S
H2650 C2663 0.961 . S
H2651 C2663 0.970 . S
H2652 C2666 0.929 . S
H2653 C2667 0.931 . S
H2654 C2669 0.930 . S
C2655 H2643 0.930 . S
C2655 C2656 1.399 . S
C2655 C2660 1.399 . S
C2656 C2655 1.399 . S
C2656 C2657 1.376 . S
C2657 H2644 0.930 . S
C2657 C2656 1.376 . S
C2657 C2658 1.388 . S
C2658 H2645 0.930 . S
C2658 C2657 1.388 . S
C2658 C2659 1.390 . S
C2659 C2658 1.390 . S
C2659 C2660 1.394 . S
C2659 C2665 1.465 1_556 S
C2660 C2655 1.399 . S
C2660 C2659 1.394 . S
C2660 C2661 1.516 1_556 S
C2661 C2660 1.516 1_554 S
C2661 C2662 1.502 . S
C2661 C2663 1.561 . S
C2661 C2664 1.526 . S
C2662 H2646 0.959 . S
C2662 H2647 0.959 . S
C2662 H2648 0.961 . S
C2662 C2661 1.502 . S
C2663 H2649 0.960 1_554 S
C2663 H2650 0.961 . S
C2663 H2651 0.970 . S
C2663 C2661 1.561 . S
C2664 C2661 1.526 . S
C2664 C2665 1.396 . S
C2664 C2669 1.390 . S
C2665 C2659 1.465 1_554 S
C2665 C2664 1.396 . S
C2665 C2666 1.399 . S
C2666 H2652 0.929 . S
C2666 C2665 1.399 . S
C2666 C2667 1.385 . S
C2667 H2653 0.931 . S
C2667 C2666 1.385 . S
C2667 C2668 1.389 . S
C2668 C2667 1.389 . S
C2668 C2669 1.387 . S
C2669 H2654 0.930 . S
C2669 C2664 1.390 . S
C2669 C2668 1.387 . S
H2670 C2682 0.930 . S
H2671 C2684 0.930 . S
H2672 C2685 0.930 . S
H2673 C2689 0.959 . S
H2674 C2689 0.959 . S
H2675 C2689 0.961 . S
H2676 C2690 0.960 . S
H2677 C2690 0.961 . S
H2678 C2690 0.959 . S
H2679 C2693 0.929 . S
H2680 C2694 0.931 . S
H2681 C2696 0.930 . S
C2682 H2670 0.930 . S
C2682 C2683 1.399 . S
C2682 C2687 1.399 . S
C2683 C2682 1.399 . S
C2683 C2684 1.376 . S
C2684 H2671 0.930 . S
C2684 C2683 1.376 . S
C2684 C2685 1.388 . S
C2685 H2672 0.930 . S
C2685 C2684 1.388 . S
C2685 C2686 1.390 . S
C2686 C2685 1.390 . S
C2686 C2687 1.394 . S
C2686 C2692 1.465 . S
C2687 C2682 1.399 . S
C2687 C2686 1.394 . S
C2687 C2688 1.516 . S
C2688 C2687 1.516 . S
C2688 C2689 1.502 . S
C2688 C2690 1.561 . S
C2688 C2691 1.526 . S
C2689 H2673 0.959 . S
C2689 H2674 0.959 . S
C2689 H2675 0.961 . S
C2689 C2688 1.502 . S
C2690 H2676 0.960 . S
C2690 H2677 0.961 . S
C2690 H2678 0.959 . S
C2690 C2688 1.561 . S
C2691 C2688 1.526 . S
C2691 C2692 1.396 . S
C2691 C2696 1.390 . S
C2692 C2686 1.465 . S
C2692 C2691 1.396 . S
C2692 C2693 1.399 . S
C2693 H2679 0.929 . S
C2693 C2692 1.399 . S
C2693 C2694 1.385 . S
C2694 H2680 0.931 . S
C2694 C2693 1.385 . S
C2694 C2695 1.389 . S
C2695 C2694 1.389 . S
C2695 C2696 1.387 . S
C2696 H2681 0.930 . S
C2696 C2691 1.390 . S
C2696 C2695 1.387 . S
H2697 C2709 0.930 . S
H2698 C2711 0.930 . S
H2699 C2712 0.930 . S
H2700 C2716 0.959 . S
H2701 C2716 0.959 . S
H2702 C2716 0.961 . S
H2703 C2717 0.960 . S
H2704 C2717 0.961 . S
H2705 C2717 0.959 . S
H2706 C2720 0.929 . S
H2707 C2721 0.931 . S
H2708 C2723 0.930 . S
C2709 H2697 0.930 . S
C2709 C2710 1.399 . S
C2709 C2714 1.399 . S
C2710 C2709 1.399 . S
C2710 C2711 1.376 . S
C2711 H2698 0.930 . S
C2711 C2710 1.376 . S
C2711 C2712 1.388 . S
C2712 H2699 0.930 . S
C2712 C2711 1.388 . S
C2712 C2713 1.390 . S
C2713 C2712 1.390 . S
C2713 C2714 1.394 . S
C2713 C2719 1.465 . S
C2714 C2709 1.399 . S
C2714 C2713 1.394 . S
C2714 C2715 1.516 . S
C2715 C2714 1.516 . S
C2715 C2716 1.502 . S
C2715 C2717 1.561 . S
C2715 C2718 1.526 . S
C2716 H2700 0.959 . S
C2716 H2701 0.959 . S
C2716 H2702 0.961 . S
C2716 C2715 1.502 . S
C2717 H2703 0.960 . S
C2717 H2704 0.961 . S
C2717 H2705 0.959 . S
C2717 C2715 1.561 . S
C2718 C2715 1.526 . S
C2718 C2719 1.396 . S
C2718 C2723 1.390 . S
C2719 C2713 1.465 . S
C2719 C2718 1.396 . S
C2719 C2720 1.399 . S
C2720 H2706 0.929 . S
C2720 C2719 1.399 . S
C2720 C2721 1.385 . S
C2721 H2707 0.931 . S
C2721 C2720 1.385 . S
C2721 C2722 1.389 . S
C2722 C2721 1.389 . S
C2722 C2723 1.387 . S
C2723 H2708 0.930 . S
C2723 C2718 1.390 . S
C2723 C2722 1.387 . S
H2724 C2736 0.930 . S
H2725 C2738 0.930 . S
H2726 C2739 0.930 . S
H2727 C2743 0.959 . S
H2728 C2743 0.959 . S
H2729 C2743 0.961 . S
H2730 C2744 0.960 . S
H2731 C2744 0.961 . S
H2732 C2744 0.959 . S
H2733 C2747 0.929 . S
H2734 C2748 0.931 . S
H2735 C2750 0.930 . S
C2736 H2724 0.930 . S
C2736 C2737 1.399 . S
C2736 C2741 1.399 . S
C2737 C2736 1.399 . S
C2737 C2738 1.376 . S
C2738 H2725 0.930 . S
C2738 C2737 1.376 . S
C2738 C2739 1.388 . S
C2739 H2726 0.930 . S
C2739 C2738 1.388 . S
C2739 C2740 1.390 . S
C2740 C2739 1.390 . S
C2740 C2741 1.394 . S
C2740 C2746 1.465 . S
C2741 C2736 1.399 . S
C2741 C2740 1.394 . S
C2741 C2742 1.516 . S
C2742 C2741 1.516 . S
C2742 C2743 1.502 . S
C2742 C2744 1.561 . S
C2742 C2745 1.526 . S
C2743 H2727 0.959 . S
C2743 H2728 0.959 . S
C2743 H2729 0.961 . S
C2743 C2742 1.502 . S
C2744 H2730 0.960 . S
C2744 H2731 0.961 . S
C2744 H2732 0.959 . S
C2744 C2742 1.561 . S
C2745 C2742 1.526 . S
C2745 C2746 1.396 . S
C2745 C2750 1.390 . S
C2746 C2740 1.465 . S
C2746 C2745 1.396 . S
C2746 C2747 1.399 . S
C2747 H2733 0.929 . S
C2747 C2746 1.399 . S
C2747 C2748 1.385 . S
C2748 H2734 0.931 . S
C2748 C2747 1.385 . S
C2748 C2749 1.389 . S
C2749 C2748 1.389 . S
C2749 C2750 1.387 . S
C2750 H2735 0.930 . S
C2750 C2745 1.390 . S
C2750 C2749 1.387 . S
H2751 C2763 0.930 . S
H2752 C2765 0.930 . S
H2753 C2766 0.930 . S
H2754 C2770 0.959 . S
H2755 C2770 0.959 . S
H2756 C2770 0.961 . S
H2757 C2771 0.960 1_554 S
H2758 C2771 0.961 . S
H2759 C2771 0.969 . S
H2760 C2774 0.927 . S
H2761 C2775 0.931 . S
H2762 C2777 0.930 . S
C2763 H2751 0.930 . S
C2763 C2764 1.399 . S
C2763 C2768 1.399 . S
C2764 C2763 1.399 . S
C2764 C2765 1.376 . S
C2765 H2752 0.930 . S
C2765 C2764 1.376 . S
C2765 C2766 1.388 . S
C2766 H2753 0.930 . S
C2766 C2765 1.388 . S
C2766 C2767 1.390 . S
C2767 C2766 1.390 . S
C2767 C2768 1.394 . S
C2767 C2773 1.465 . S
C2768 C2763 1.399 . S
C2768 C2767 1.394 . S
C2768 C2769 1.516 1_554 S
C2769 C2768 1.516 1_556 S
C2769 C2770 1.502 . S
C2769 C2771 1.561 . S
C2769 C2772 1.526 . S
C2770 H2754 0.959 . S
C2770 H2755 0.959 . S
C2770 H2756 0.961 . S
C2770 C2769 1.502 . S
C2771 H2757 0.960 1_556 S
C2771 H2758 0.961 . S
C2771 H2759 0.969 . S
C2771 C2769 1.561 . S
C2772 C2769 1.526 . S
C2772 C2773 1.396 1_556 S
C2772 C2777 1.390 . S
C2773 C2767 1.465 . S
C2773 C2772 1.396 1_554 S
C2773 C2774 1.398 . S
C2774 H2760 0.927 . S
C2774 C2773 1.398 . S
C2774 C2775 1.388 1_554 S
C2775 H2761 0.931 . S
C2775 C2774 1.388 1_556 S
C2775 C2776 1.389 . S
C2776 C2775 1.389 . S
C2776 C2777 1.387 . S
C2777 H2762 0.930 . S
C2777 C2772 1.390 . S
C2777 C2776 1.387 . S
H2778 C2790 0.930 . S
H2779 C2792 0.930 . S
H2780 C2793 0.930 . S
H2781 C2797 0.959 . S
H2782 C2797 0.959 . S
H2783 C2797 0.961 . S
H2784 C2798 0.960 . S
H2785 C2798 0.961 . S
H2786 C2798 0.959 . S
H2787 C2801 0.929 . S
H2788 C2802 0.931 . S
H2789 C2804 0.930 . S
C2790 H2778 0.930 . S
C2790 C2791 1.399 . S
C2790 C2795 1.399 . S
C2791 C2790 1.399 . S
C2791 C2792 1.376 . S
C2792 H2779 0.930 . S
C2792 C2791 1.376 . S
C2792 C2793 1.388 . S
C2793 H2780 0.930 . S
C2793 C2792 1.388 . S
C2793 C2794 1.390 . S
C2794 C2793 1.390 . S
C2794 C2795 1.394 . S
C2794 C2800 1.465 . S
C2795 C2790 1.399 . S
C2795 C2794 1.394 . S
C2795 C2796 1.516 . S
C2796 C2795 1.516 . S
C2796 C2797 1.502 . S
C2796 C2798 1.561 . S
C2796 C2799 1.526 . S
C2797 H2781 0.959 . S
C2797 H2782 0.959 . S
C2797 H2783 0.961 . S
C2797 C2796 1.502 . S
C2798 H2784 0.960 . S
C2798 H2785 0.961 . S
C2798 H2786 0.959 . S
C2798 C2796 1.561 . S
C2799 C2796 1.526 . S
C2799 C2800 1.396 . S
C2799 C2804 1.390 . S
C2800 C2794 1.465 . S
C2800 C2799 1.396 . S
C2800 C2801 1.399 . S
C2801 H2787 0.929 . S
C2801 C2800 1.399 . S
C2801 C2802 1.385 . S
C2802 H2788 0.931 . S
C2802 C2801 1.385 . S
C2802 C2803 1.389 . S
C2803 C2802 1.389 . S
C2803 C2804 1.387 . S
C2804 H2789 0.930 . S
C2804 C2799 1.390 . S
C2804 C2803 1.387 . S
H2805 C2817 0.930 . S
H2806 C2819 0.930 . S
H2807 C2820 0.930 . S
H2808 C2824 0.959 . S
H2809 C2824 0.959 . S
H2810 C2824 0.961 . S
H2811 C2825 0.960 . S
H2812 C2825 0.961 . S
H2813 C2825 0.959 . S
H2814 C2828 0.929 . S
H2815 C2829 0.931 . S
H2816 C2831 0.930 . S
C2817 H2805 0.930 . S
C2817 C2818 1.399 . S
C2817 C2822 1.399 . S
C2818 C2817 1.399 . S
C2818 C2819 1.376 . S
C2819 H2806 0.930 . S
C2819 C2818 1.376 . S
C2819 C2820 1.388 . S
C2820 H2807 0.930 . S
C2820 C2819 1.388 . S
C2820 C2821 1.390 . S
C2821 C2820 1.390 . S
C2821 C2822 1.394 . S
C2821 C2827 1.465 . S
C2822 C2817 1.399 . S
C2822 C2821 1.394 . S
C2822 C2823 1.516 . S
C2823 C2822 1.516 . S
C2823 C2824 1.502 . S
C2823 C2825 1.561 . S
C2823 C2826 1.526 . S
C2824 H2808 0.959 . S
C2824 H2809 0.959 . S
C2824 H2810 0.961 . S
C2824 C2823 1.502 . S
C2825 H2811 0.960 . S
C2825 H2812 0.961 . S
C2825 H2813 0.959 . S
C2825 C2823 1.561 . S
C2826 C2823 1.526 . S
C2826 C2827 1.396 . S
C2826 C2831 1.390 . S
C2827 C2821 1.465 . S
C2827 C2826 1.396 . S
C2827 C2828 1.399 . S
C2828 H2814 0.929 . S
C2828 C2827 1.399 . S
C2828 C2829 1.385 . S
C2829 H2815 0.931 . S
C2829 C2828 1.385 . S
C2829 C2830 1.389 . S
C2830 C2829 1.389 . S
C2830 C2831 1.387 . S
C2831 H2816 0.930 . S
C2831 C2826 1.390 . S
C2831 C2830 1.387 . S
H2832 C2844 0.930 . S
H2833 C2846 0.930 . S
H2834 C2847 0.930 . S
H2835 C2851 0.959 . S
H2836 C2851 0.959 . S
H2837 C2851 0.961 . S
H2838 C2852 0.960 . S
H2839 C2852 0.961 . S
H2840 C2852 0.959 . S
H2841 C2855 0.929 . S
H2842 C2856 0.931 . S
H2843 C2858 0.930 . S
C2844 H2832 0.930 . S
C2844 C2845 1.399 . S
C2844 C2849 1.399 . S
C2845 C2844 1.399 . S
C2845 C2846 1.376 . S
C2846 H2833 0.930 . S
C2846 C2845 1.376 . S
C2846 C2847 1.388 . S
C2847 H2834 0.930 . S
C2847 C2846 1.388 . S
C2847 C2848 1.390 . S
C2848 C2847 1.390 . S
C2848 C2849 1.394 . S
C2848 C2854 1.465 . S
C2849 C2844 1.399 . S
C2849 C2848 1.394 . S
C2849 C2850 1.516 . S
C2850 C2849 1.516 . S
C2850 C2851 1.502 . S
C2850 C2852 1.561 . S
C2850 C2853 1.526 . S
C2851 H2835 0.959 . S
C2851 H2836 0.959 . S
C2851 H2837 0.961 . S
C2851 C2850 1.502 . S
C2852 H2838 0.960 . S
C2852 H2839 0.961 . S
C2852 H2840 0.959 . S
C2852 C2850 1.561 . S
C2853 C2850 1.526 . S
C2853 C2854 1.396 . S
C2853 C2858 1.390 . S
C2854 C2848 1.465 . S
C2854 C2853 1.396 . S
C2854 C2855 1.399 . S
C2855 H2841 0.929 . S
C2855 C2854 1.399 . S
C2855 C2856 1.385 . S
C2856 H2842 0.931 . S
C2856 C2855 1.385 . S
C2856 C2857 1.389 . S
C2857 C2856 1.389 . S
C2857 C2858 1.387 . S
C2858 H2843 0.930 . S
C2858 C2853 1.390 . S
C2858 C2857 1.387 . S
H2859 C2871 0.930 . S
H2860 C2873 0.930 . S
H2861 C2874 0.930 . S
H2862 C2878 0.959 . S
H2863 C2878 0.965 . S
H2864 C2878 0.961 1_556 S
H2865 C2879 0.960 1_556 S
H2866 C2879 0.961 1_556 S
H2867 C2879 0.959 . S
H2868 C2882 0.929 . S
H2869 C2883 0.931 . S
H2870 C2885 0.930 . S
C2871 H2859 0.930 . S
C2871 C2872 1.399 . S
C2871 C2876 1.399 . S
C2872 C2871 1.399 . S
C2872 C2873 1.376 . S
C2873 H2860 0.930 . S
C2873 C2872 1.376 . S
C2873 C2874 1.388 . S
C2874 H2861 0.930 . S
C2874 C2873 1.388 . S
C2874 C2875 1.390 . S
C2875 C2874 1.390 . S
C2875 C2876 1.394 . S
C2875 C2881 1.465 . S
C2876 C2871 1.399 . S
C2876 C2875 1.394 . S
C2876 C2877 1.516 . S
C2877 C2876 1.516 . S
C2877 C2878 1.502 . S
C2877 C2879 1.561 . S
C2877 C2880 1.526 . S
C2878 H2862 0.959 . S
C2878 H2863 0.965 . S
C2878 H2864 0.961 1_554 S
C2878 C2877 1.502 . S
C2879 H2865 0.960 1_554 S
C2879 H2866 0.961 1_554 S
C2879 H2867 0.959 . S
C2879 C2877 1.561 . S
C2880 C2877 1.526 . S
C2880 C2881 1.396 . S
C2880 C2885 1.390 . S
C2881 C2875 1.465 . S
C2881 C2880 1.396 . S
C2881 C2882 1.399 . S
C2882 H2868 0.929 . S
C2882 C2881 1.399 . S
C2882 C2883 1.385 . S
C2883 H2869 0.931 . S
C2883 C2882 1.385 . S
C2883 C2884 1.389 . S
C2884 C2883 1.389 . S
C2884 C2885 1.387 . S
C2885 H2870 0.930 . S
C2885 C2880 1.390 . S
C2885 C2884 1.387 . S
H2886 C2898 0.930 . S
H2887 C2900 0.930 . S
H2888 C2901 0.930 . S
H2889 C2905 0.959 . S
H2890 C2905 0.959 . S
H2891 C2905 0.961 . S
H2892 C2906 0.960 . S
H2893 C2906 0.961 . S
H2894 C2906 0.959 . S
H2895 C2909 0.929 . S
H2896 C2910 0.931 . S
H2897 C2912 0.930 . S
C2898 H2886 0.930 . S
C2898 C2899 1.399 . S
C2898 C2903 1.399 . S
C2899 C2898 1.399 . S
C2899 C2900 1.376 . S
C2900 H2887 0.930 . S
C2900 C2899 1.376 . S
C2900 C2901 1.388 . S
C2901 H2888 0.930 . S
C2901 C2900 1.388 . S
C2901 C2902 1.390 . S
C2902 C2901 1.390 . S
C2902 C2903 1.394 . S
C2902 C2908 1.465 . S
C2903 C2898 1.399 . S
C2903 C2902 1.394 . S
C2903 C2904 1.516 . S
C2904 C2903 1.516 . S
C2904 C2905 1.502 . S
C2904 C2906 1.561 . S
C2904 C2907 1.526 . S
C2905 H2889 0.959 . S
C2905 H2890 0.959 . S
C2905 H2891 0.961 . S
C2905 C2904 1.502 . S
C2906 H2892 0.960 . S
C2906 H2893 0.961 . S
C2906 H2894 0.959 . S
C2906 C2904 1.561 . S
C2907 C2904 1.526 . S
C2907 C2908 1.396 . S
C2907 C2912 1.390 . S
C2908 C2902 1.465 . S
C2908 C2907 1.396 . S
C2908 C2909 1.399 . S
C2909 H2895 0.929 . S
C2909 C2908 1.399 . S
C2909 C2910 1.385 . S
C2910 H2896 0.931 . S
C2910 C2909 1.385 . S
C2910 C2911 1.389 . S
C2911 C2910 1.389 . S
C2911 C2912 1.387 . S
C2912 H2897 0.930 . S
C2912 C2907 1.390 . S
C2912 C2911 1.387 . S
H2913 C2925 0.930 . S
H2914 C2927 0.930 . S
H2915 C2928 0.930 . S
H2916 C2932 0.959 . S
H2917 C2932 0.959 . S
H2918 C2932 0.961 . S
H2919 C2933 0.960 . S
H2920 C2933 0.961 . S
H2921 C2933 0.959 . S
H2922 C2936 0.929 . S
H2923 C2937 0.931 . S
H2924 C2939 0.930 . S
C2925 H2913 0.930 . S
C2925 C2926 1.399 . S
C2925 C2930 1.399 . S
C2926 C2925 1.399 . S
C2926 C2927 1.376 . S
C2927 H2914 0.930 . S
C2927 C2926 1.376 . S
C2927 C2928 1.388 . S
C2928 H2915 0.930 . S
C2928 C2927 1.388 . S
C2928 C2929 1.390 . S
C2929 C2928 1.390 . S
C2929 C2930 1.394 . S
C2929 C2935 1.465 . S
C2930 C2925 1.399 . S
C2930 C2929 1.394 . S
C2930 C2931 1.516 . S
C2931 C2930 1.516 . S
C2931 C2932 1.502 . S
C2931 C2933 1.561 . S
C2931 C2934 1.526 . S
C2932 H2916 0.959 . S
C2932 H2917 0.959 . S
C2932 H2918 0.961 . S
C2932 C2931 1.502 . S
C2933 H2919 0.960 . S
C2933 H2920 0.961 . S
C2933 H2921 0.959 . S
C2933 C2931 1.561 . S
C2934 C2931 1.526 . S
C2934 C2935 1.396 . S
C2934 C2939 1.390 . S
C2935 C2929 1.465 . S
C2935 C2934 1.396 . S
C2935 C2936 1.399 . S
C2936 H2922 0.929 . S
C2936 C2935 1.399 . S
C2936 C2937 1.385 . S
C2937 H2923 0.931 . S
C2937 C2936 1.385 . S
C2937 C2938 1.389 . S
C2938 C2937 1.389 . S
C2938 C2939 1.387 . S
C2939 H2924 0.930 . S
C2939 C2934 1.390 . S
C2939 C2938 1.387 . S
H2940 C2952 0.930 . S
H2941 C2954 0.930 . S
H2942 C2955 0.930 . S
H2943 C2959 0.959 . S
H2944 C2959 0.959 . S
H2945 C2959 0.961 . S
H2946 C2960 0.960 . S
H2947 C2960 0.961 . S
H2948 C2960 0.959 . S
H2949 C2963 0.929 . S
H2950 C2964 0.931 . S
H2951 C2966 0.930 . S
C2952 H2940 0.930 . S
C2952 C2953 1.399 . S
C2952 C2957 1.399 . S
C2953 C2952 1.399 . S
C2953 C2954 1.376 . S
C2954 H2941 0.930 . S
C2954 C2953 1.376 . S
C2954 C2955 1.388 . S
C2955 H2942 0.930 . S
C2955 C2954 1.388 . S
C2955 C2956 1.390 . S
C2956 C2955 1.390 . S
C2956 C2957 1.394 . S
C2956 C2962 1.465 . S
C2957 C2952 1.399 . S
C2957 C2956 1.394 . S
C2957 C2958 1.516 . S
C2958 C2957 1.516 . S
C2958 C2959 1.502 . S
C2958 C2960 1.561 . S
C2958 C2961 1.526 . S
C2959 H2943 0.959 . S
C2959 H2944 0.959 . S
C2959 H2945 0.961 . S
C2959 C2958 1.502 . S
C2960 H2946 0.960 . S
C2960 H2947 0.961 . S
C2960 H2948 0.959 . S
C2960 C2958 1.561 . S
C2961 C2958 1.526 . S
C2961 C2962 1.396 . S
C2961 C2966 1.390 . S
C2962 C2956 1.465 . S
C2962 C2961 1.396 . S
C2962 C2963 1.399 . S
C2963 H2949 0.929 . S
C2963 C2962 1.399 . S
C2963 C2964 1.385 . S
C2964 H2950 0.931 . S
C2964 C2963 1.385 . S
C2964 C2965 1.389 . S
C2965 C2964 1.389 . S
C2965 C2966 1.387 . S
C2966 H2951 0.930 . S
C2966 C2961 1.390 . S
C2966 C2965 1.387 . S
H2967 C2979 0.930 1_554 S
H2968 C2981 0.930 . S
H2969 C2982 0.930 . S
H2970 C2986 0.959 . S
H2971 C2986 0.959 . S
H2972 C2986 0.961 . S
H2973 C2987 0.960 1_554 S
H2974 C2987 0.961 . S
H2975 C2987 0.959 . S
H2976 C2990 0.929 . S
H2977 C2991 0.931 . S
H2978 C2993 0.930 . S
C2979 H2967 0.930 1_556 S
C2979 C2980 1.399 . S
C2979 C2984 1.399 . S
C2980 C2979 1.399 . S
C2980 C2981 1.376 . S
C2981 H2968 0.930 . S
C2981 C2980 1.376 . S
C2981 C2982 1.388 . S
C2982 H2969 0.930 . S
C2982 C2981 1.388 . S
C2982 C2983 1.390 . S
C2983 C2982 1.390 . S
C2983 C2984 1.394 . S
C2983 C2989 1.465 . S
C2984 C2979 1.399 . S
C2984 C2983 1.394 . S
C2984 C2985 1.516 . S
C2985 C2984 1.516 . S
C2985 C2986 1.502 1_556 S
C2985 C2987 1.561 . S
C2985 C2988 1.526 . S
C2986 H2970 0.959 . S
C2986 H2971 0.959 . S
C2986 H2972 0.961 . S
C2986 C2985 1.502 1_554 S
C2987 H2973 0.960 1_556 S
C2987 H2974 0.961 . S
C2987 H2975 0.959 . S
C2987 C2985 1.561 . S
C2988 C2985 1.526 . S
C2988 C2989 1.396 . S
C2988 C2993 1.390 . S
C2989 C2983 1.465 . S
C2989 C2988 1.396 . S
C2989 C2990 1.399 . S
C2990 H2976 0.929 . S
C2990 C2989 1.399 . S
C2990 C2991 1.385 . S
C2991 H2977 0.931 . S
C2991 C2990 1.385 . S
C2991 C2992 1.389 . S
C2992 C2991 1.389 . S
C2992 C2993 1.387 . S
C2993 H2978 0.930 . S
C2993 C2988 1.390 . S
C2993 C2992 1.387 . S
H2994 C3006 0.930 . S
H2995 C3008 0.930 . S
H2996 C3009 0.930 . S
H2997 C3013 0.959 . S
H2998 C3013 0.959 . S
H2999 C3013 0.961 . S
H3000 C3014 0.960 . S
H3001 C3014 0.961 . S
H3002 C3014 0.959 . S
H3003 C3017 0.929 . S
H3004 C3018 0.931 . S
H3005 C3020 0.930 . S
C3006 H2994 0.930 . S
C3006 C3007 1.399 . S
C3006 C3011 1.399 . S
C3007 C3006 1.399 . S
C3007 C3008 1.376 . S
C3008 H2995 0.930 . S
C3008 C3007 1.376 . S
C3008 C3009 1.388 . S
C3009 H2996 0.930 . S
C3009 C3008 1.388 . S
C3009 C3010 1.390 . S
C3010 C3009 1.390 . S
C3010 C3011 1.394 . S
C3010 C3016 1.465 . S
C3011 C3006 1.399 . S
C3011 C3010 1.394 . S
C3011 C3012 1.516 . S
C3012 C3011 1.516 . S
C3012 C3013 1.502 . S
C3012 C3014 1.561 . S
C3012 C3015 1.526 . S
C3013 H2997 0.959 . S
C3013 H2998 0.959 . S
C3013 H2999 0.961 . S
C3013 C3012 1.502 . S
C3014 H3000 0.960 . S
C3014 H3001 0.961 . S
C3014 H3002 0.959 . S
C3014 C3012 1.561 . S
C3015 C3012 1.526 . S
C3015 C3016 1.396 . S
C3015 C3020 1.390 . S
C3016 C3010 1.465 . S
C3016 C3015 1.396 . S
C3016 C3017 1.399 . S
C3017 H3003 0.929 . S
C3017 C3016 1.399 . S
C3017 C3018 1.385 . S
C3018 H3004 0.931 . S
C3018 C3017 1.385 . S
C3018 C3019 1.389 . S
C3019 C3018 1.389 . S
C3019 C3020 1.387 . S
C3020 H3005 0.930 . S
C3020 C3015 1.390 . S
C3020 C3019 1.387 . S
H3021 C3033 0.930 . S
H3022 C3035 0.930 . S
H3023 C3036 0.930 . S
H3024 C3040 0.959 . S
H3025 C3040 0.959 . S
H3026 C3040 0.961 . S
H3027 C3041 0.960 . S
H3028 C3041 0.961 . S
H3029 C3041 0.959 . S
H3030 C3044 0.929 . S
H3031 C3045 0.931 . S
H3032 C3047 0.930 . S
C3033 H3021 0.930 . S
C3033 C3034 1.399 . S
C3033 C3038 1.399 . S
C3034 C3033 1.399 . S
C3034 C3035 1.376 . S
C3035 H3022 0.930 . S
C3035 C3034 1.376 . S
C3035 C3036 1.388 . S
C3036 H3023 0.930 . S
C3036 C3035 1.388 . S
C3036 C3037 1.390 . S
C3037 C3036 1.390 . S
C3037 C3038 1.394 . S
C3037 C3043 1.465 . S
C3038 C3033 1.399 . S
C3038 C3037 1.394 . S
C3038 C3039 1.516 . S
C3039 C3038 1.516 . S
C3039 C3040 1.502 . S
C3039 C3041 1.561 . S
C3039 C3042 1.526 . S
C3040 H3024 0.959 . S
C3040 H3025 0.959 . S
C3040 H3026 0.961 . S
C3040 C3039 1.502 . S
C3041 H3027 0.960 . S
C3041 H3028 0.961 . S
C3041 H3029 0.959 . S
C3041 C3039 1.561 . S
C3042 C3039 1.526 . S
C3042 C3043 1.396 . S
C3042 C3047 1.390 . S
C3043 C3037 1.465 . S
C3043 C3042 1.396 . S
C3043 C3044 1.399 . S
C3044 H3030 0.929 . S
C3044 C3043 1.399 . S
C3044 C3045 1.385 . S
C3045 H3031 0.931 . S
C3045 C3044 1.385 . S
C3045 C3046 1.389 . S
C3046 C3045 1.389 . S
C3046 C3047 1.387 . S
C3047 H3032 0.930 . S
C3047 C3042 1.390 . S
C3047 C3046 1.387 . S
H3048 C3060 0.930 . S
H3049 C3062 0.930 . S
H3050 C3063 0.930 . S
H3051 C3067 0.959 . S
H3052 C3067 0.959 . S
H3053 C3067 0.961 . S
H3054 C3068 0.960 . S
H3055 C3068 0.961 . S
H3056 C3068 0.959 . S
H3057 C3071 0.929 . S
H3058 C3072 0.931 . S
H3059 C3074 0.930 . S
C3060 H3048 0.930 . S
C3060 C3061 1.399 . S
C3060 C3065 1.399 . S
C3061 C3060 1.399 . S
C3061 C3062 1.376 . S
C3062 H3049 0.930 . S
C3062 C3061 1.376 . S
C3062 C3063 1.388 . S
C3063 H3050 0.930 . S
C3063 C3062 1.388 . S
C3063 C3064 1.390 . S
C3064 C3063 1.390 . S
C3064 C3065 1.394 . S
C3064 C3070 1.465 . S
C3065 C3060 1.399 . S
C3065 C3064 1.394 . S
C3065 C3066 1.516 . S
C3066 C3065 1.516 . S
C3066 C3067 1.502 . S
C3066 C3068 1.561 . S
C3066 C3069 1.526 . S
C3067 H3051 0.959 . S
C3067 H3052 0.959 . S
C3067 H3053 0.961 . S
C3067 C3066 1.502 . S
C3068 H3054 0.960 . S
C3068 H3055 0.961 . S
C3068 H3056 0.959 . S
C3068 C3066 1.561 . S
C3069 C3066 1.526 . S
C3069 C3070 1.396 . S
C3069 C3074 1.390 . S
C3070 C3064 1.465 . S
C3070 C3069 1.396 . S
C3070 C3071 1.399 . S
C3071 H3057 0.929 . S
C3071 C3070 1.399 . S
C3071 C3072 1.385 . S
C3072 H3058 0.931 . S
C3072 C3071 1.385 . S
C3072 C3073 1.389 . S
C3073 C3072 1.389 . S
C3073 C3074 1.387 . S
C3074 H3059 0.930 . S
C3074 C3069 1.390 . S
C3074 C3073 1.387 . S
H3075 C3087 0.930 . S
H3076 C3089 0.930 . S
H3077 C3090 0.930 . S
H3078 C3094 0.959 . S
H3079 C3094 0.959 . S
H3080 C3094 0.961 . S
H3081 C3095 0.960 . S
H3082 C3095 0.961 . S
H3083 C3095 0.959 . S
H3084 C3098 0.929 . S
H3085 C3099 0.931 . S
H3086 C3101 0.930 . S
C3087 H3075 0.930 . S
C3087 C3088 1.399 . S
C3087 C3092 1.399 . S
C3088 C3087 1.399 . S
C3088 C3089 1.376 . S
C3089 H3076 0.930 . S
C3089 C3088 1.376 . S
C3089 C3090 1.388 . S
C3090 H3077 0.930 . S
C3090 C3089 1.388 . S
C3090 C3091 1.390 . S
C3091 C3090 1.390 . S
C3091 C3092 1.394 . S
C3091 C3097 1.465 . S
C3092 C3087 1.399 . S
C3092 C3091 1.394 . S
C3092 C3093 1.516 . S
C3093 C3092 1.516 . S
C3093 C3094 1.502 . S
C3093 C3095 1.561 . S
C3093 C3096 1.526 . S
C3094 H3078 0.959 . S
C3094 H3079 0.959 . S
C3094 H3080 0.961 . S
C3094 C3093 1.502 . S
C3095 H3081 0.960 . S
C3095 H3082 0.961 . S
C3095 H3083 0.959 . S
C3095 C3093 1.561 . S
C3096 C3093 1.526 . S
C3096 C3097 1.396 . S
C3096 C3101 1.390 . S
C3097 C3091 1.465 . S
C3097 C3096 1.396 . S
C3097 C3098 1.399 . S
C3098 H3084 0.929 . S
C3098 C3097 1.399 . S
C3098 C3099 1.385 . S
C3099 H3085 0.931 . S
C3099 C3098 1.385 . S
C3099 C3100 1.389 . S
C3100 C3099 1.389 . S
C3100 C3101 1.387 . S
C3101 H3086 0.930 . S
C3101 C3096 1.390 . S
C3101 C3100 1.387 . S
H3102 C3114 0.930 . S
H3103 C3116 0.930 . S
H3104 C3117 0.930 . S
H3105 C3121 0.959 . S
H3106 C3121 0.959 . S
H3107 C3121 0.961 . S
H3108 C3122 0.960 . S
H3109 C3122 0.961 . S
H3110 C3122 0.959 . S
H3111 C3125 0.929 . S
H3112 C3126 0.931 . S
H3113 C3128 0.930 . S
C3114 H3102 0.930 . S
C3114 C3115 1.399 . S
C3114 C3119 1.399 . S
C3115 C3114 1.399 . S
C3115 C3116 1.376 . S
C3116 H3103 0.930 . S
C3116 C3115 1.376 . S
C3116 C3117 1.388 . S
C3117 H3104 0.930 . S
C3117 C3116 1.388 . S
C3117 C3118 1.390 . S
C3118 C3117 1.390 . S
C3118 C3119 1.394 . S
C3118 C3124 1.465 . S
C3119 C3114 1.399 . S
C3119 C3118 1.394 . S
C3119 C3120 1.516 . S
C3120 C3119 1.516 . S
C3120 C3121 1.502 . S
C3120 C3122 1.561 . S
C3120 C3123 1.526 . S
C3121 H3105 0.959 . S
C3121 H3106 0.959 . S
C3121 H3107 0.961 . S
C3121 C3120 1.502 . S
C3122 H3108 0.960 . S
C3122 H3109 0.961 . S
C3122 H3110 0.959 . S
C3122 C3120 1.561 . S
C3123 C3120 1.526 . S
C3123 C3124 1.396 . S
C3123 C3128 1.390 . S
C3124 C3118 1.465 . S
C3124 C3123 1.396 . S
C3124 C3125 1.399 . S
C3125 H3111 0.929 . S
C3125 C3124 1.399 . S
C3125 C3126 1.385 . S
C3126 H3112 0.931 . S
C3126 C3125 1.385 . S
C3126 C3127 1.389 . S
C3127 C3126 1.389 . S
C3127 C3128 1.387 . S
C3128 H3113 0.930 . S
C3128 C3123 1.390 . S
C3128 C3127 1.387 . S
H3129 C3141 0.930 . S
H3130 C3143 0.930 . S
H3131 C3144 0.930 . S
H3132 C3148 0.959 . S
H3133 C3148 0.959 . S
H3134 C3148 0.961 . S
H3135 C3149 0.960 . S
H3136 C3149 0.961 . S
H3137 C3149 0.959 . S
H3138 C3152 0.929 . S
H3139 C3153 0.931 . S
H3140 C3155 0.930 . S
C3141 H3129 0.930 . S
C3141 C3142 1.399 . S
C3141 C3146 1.399 . S
C3142 C3141 1.399 . S
C3142 C3143 1.376 . S
C3143 H3130 0.930 . S
C3143 C3142 1.376 . S
C3143 C3144 1.388 . S
C3144 H3131 0.930 . S
C3144 C3143 1.388 . S
C3144 C3145 1.390 . S
C3145 C3144 1.390 . S
C3145 C3146 1.394 . S
C3145 C3151 1.465 . S
C3146 C3141 1.399 . S
C3146 C3145 1.394 . S
C3146 C3147 1.516 . S
C3147 C3146 1.516 . S
C3147 C3148 1.502 . S
C3147 C3149 1.561 . S
C3147 C3150 1.526 . S
C3148 H3132 0.959 . S
C3148 H3133 0.959 . S
C3148 H3134 0.961 . S
C3148 C3147 1.502 . S
C3149 H3135 0.960 . S
C3149 H3136 0.961 . S
C3149 H3137 0.959 . S
C3149 C3147 1.561 . S
C3150 C3147 1.526 . S
C3150 C3151 1.396 . S
C3150 C3155 1.390 . S
C3151 C3145 1.465 . S
C3151 C3150 1.396 . S
C3151 C3152 1.399 . S
C3152 H3138 0.929 . S
C3152 C3151 1.399 . S
C3152 C3153 1.385 . S
C3153 H3139 0.931 . S
C3153 C3152 1.385 . S
C3153 C3154 1.389 . S
C3154 C3153 1.389 . S
C3154 C3155 1.387 . S
C3155 H3140 0.930 . S
C3155 C3150 1.390 . S
C3155 C3154 1.387 . S
H3156 C3168 0.930 . S
H3157 C3170 0.930 . S
H3158 C3171 0.930 . S
H3159 C3175 0.959 . S
H3160 C3175 0.959 . S
H3161 C3175 0.961 . S
H3162 C3176 0.960 . S
H3163 C3176 0.961 . S
H3164 C3176 0.959 . S
H3165 C3179 0.929 . S
H3166 C3180 0.931 . S
H3167 C3182 0.930 . S
C3168 H3156 0.930 . S
C3168 C3169 1.399 . S
C3168 C3173 1.399 . S
C3169 C3168 1.399 . S
C3169 C3170 1.376 . S
C3170 H3157 0.930 . S
C3170 C3169 1.376 . S
C3170 C3171 1.388 . S
C3171 H3158 0.930 . S
C3171 C3170 1.388 . S
C3171 C3172 1.390 . S
C3172 C3171 1.390 . S
C3172 C3173 1.394 . S
C3172 C3178 1.465 . S
C3173 C3168 1.399 . S
C3173 C3172 1.394 . S
C3173 C3174 1.516 . S
C3174 C3173 1.516 . S
C3174 C3175 1.502 . S
C3174 C3176 1.561 . S
C3174 C3177 1.526 . S
C3175 H3159 0.959 . S
C3175 H3160 0.959 . S
C3175 H3161 0.961 . S
C3175 C3174 1.502 . S
C3176 H3162 0.960 . S
C3176 H3163 0.961 . S
C3176 H3164 0.959 . S
C3176 C3174 1.561 . S
C3177 C3174 1.526 . S
C3177 C3178 1.396 . S
C3177 C3182 1.390 . S
C3178 C3172 1.465 . S
C3178 C3177 1.396 . S
C3178 C3179 1.399 . S
C3179 H3165 0.929 . S
C3179 C3178 1.399 . S
C3179 C3180 1.385 . S
C3180 H3166 0.931 . S
C3180 C3179 1.385 . S
C3180 C3181 1.389 . S
C3181 C3180 1.389 . S
C3181 C3182 1.387 . S
C3182 H3167 0.930 . S
C3182 C3177 1.390 . S
C3182 C3181 1.387 . S
H3183 C3195 0.930 . S
H3184 C3197 0.910 1_554 S
H3185 C3198 0.930 1_554 S
H3186 C3202 0.959 . S
H3187 C3202 0.959 . S
H3188 C3202 0.961 . S
H3189 C3203 0.960 . S
H3190 C3203 0.961 . S
H3191 C3203 0.959 . S
H3192 C3206 0.929 . S
H3193 C3207 0.931 . S
H3194 C3209 0.930 . S
C3195 H3183 0.930 . S
C3195 C3196 1.399 . S
C3195 C3200 1.399 . S
C3196 C3195 1.399 . S
C3196 C3197 1.392 . S
C3197 H3184 0.910 1_556 S
C3197 C3196 1.392 . S
C3197 C3198 1.393 . S
C3198 H3185 0.930 1_556 S
C3198 C3197 1.393 . S
C3198 C3199 1.390 . S
C3199 C3198 1.390 . S
C3199 C3200 1.394 . S
C3199 C3205 1.465 . S
C3200 C3195 1.399 . S
C3200 C3199 1.394 . S
C3200 C3201 1.516 . S
C3201 C3200 1.516 . S
C3201 C3202 1.502 . S
C3201 C3203 1.561 . S
C3201 C3204 1.526 . S
C3202 H3186 0.959 . S
C3202 H3187 0.959 . S
C3202 H3188 0.961 . S
C3202 C3201 1.502 . S
C3203 H3189 0.960 . S
C3203 H3190 0.961 . S
C3203 H3191 0.959 . S
C3203 C3201 1.561 . S
C3204 C3201 1.526 . S
C3204 C3205 1.396 . S
C3204 C3209 1.390 . S
C3205 C3199 1.465 . S
C3205 C3204 1.396 . S
C3205 C3206 1.399 . S
C3206 H3192 0.929 . S
C3206 C3205 1.399 . S
C3206 C3207 1.385 . S
C3207 H3193 0.931 . S
C3207 C3206 1.385 . S
C3207 C3208 1.389 . S
C3208 C3207 1.389 . S
C3208 C3209 1.387 . S
C3209 H3194 0.930 . S
C3209 C3204 1.390 . S
C3209 C3208 1.387 . S
H3210 C3222 0.930 . S
H3211 C3224 0.930 . S
H3212 C3225 0.930 . S
H3213 C3229 0.959 . S
H3214 C3229 0.959 . S
H3215 C3229 0.961 . S
H3216 C3230 0.960 . S
H3217 C3230 0.961 . S
H3218 C3230 0.959 . S
H3219 C3233 0.929 . S
H3220 C3234 0.931 . S
H3221 C3236 0.930 . S
C3222 H3210 0.930 . S
C3222 C3223 1.399 . S
C3222 C3227 1.399 . S
C3223 C3222 1.399 . S
C3223 C3224 1.376 . S
C3224 H3211 0.930 . S
C3224 C3223 1.376 . S
C3224 C3225 1.388 . S
C3225 H3212 0.930 . S
C3225 C3224 1.388 . S
C3225 C3226 1.390 . S
C3226 C3225 1.390 . S
C3226 C3227 1.394 . S
C3226 C3232 1.465 . S
C3227 C3222 1.399 . S
C3227 C3226 1.394 . S
C3227 C3228 1.516 . S
C3228 C3227 1.516 . S
C3228 C3229 1.502 . S
C3228 C3230 1.561 1_565 S
C3228 C3231 1.526 . S
C3229 H3213 0.959 . S
C3229 H3214 0.959 . S
C3229 H3215 0.961 . S
C3229 C3228 1.502 . S
C3230 H3216 0.960 . S
C3230 H3217 0.961 . S
C3230 H3218 0.959 . S
C3230 C3228 1.561 1_545 S
C3231 C3228 1.526 . S
C3231 C3232 1.396 . S
C3231 C3236 1.390 . S
C3232 C3226 1.465 . S
C3232 C3231 1.396 . S
C3232 C3233 1.399 . S
C3233 H3219 0.929 . S
C3233 C3232 1.399 . S
C3233 C3234 1.385 . S
C3234 H3220 0.931 . S
C3234 C3233 1.385 . S
C3234 C3235 1.389 . S
C3235 C3234 1.389 . S
C3235 C3236 1.387 . S
C3236 H3221 0.930 . S
C3236 C3231 1.390 . S
C3236 C3235 1.387 . S
H3237 C3249 0.930 . S
H3238 C3251 0.930 . S
H3239 C3252 0.930 . S
H3240 C3256 0.959 . S
H3241 C3256 0.959 . S
H3242 C3256 0.961 . S
H3243 C3257 0.960 . S
H3244 C3257 0.961 . S
H3245 C3257 0.959 . S
H3246 C3260 0.929 . S
H3247 C3261 0.931 . S
H3248 C3263 0.930 . S
C3249 H3237 0.930 . S
C3249 C3250 1.399 . S
C3249 C3254 1.399 . S
C3250 C3249 1.399 . S
C3250 C3251 1.376 . S
C3251 H3238 0.930 . S
C3251 C3250 1.376 . S
C3251 C3252 1.388 . S
C3252 H3239 0.930 . S
C3252 C3251 1.388 . S
C3252 C3253 1.390 . S
C3253 C3252 1.390 . S
C3253 C3254 1.394 . S
C3253 C3259 1.465 1_455 S
C3254 C3249 1.399 . S
C3254 C3253 1.394 . S
C3254 C3255 1.516 . S
C3255 C3254 1.516 . S
C3255 C3256 1.502 . S
C3255 C3257 1.561 . S
C3255 C3258 1.526 1_455 S
C3256 H3240 0.959 . S
C3256 H3241 0.959 . S
C3256 H3242 0.961 . S
C3256 C3255 1.502 . S
C3257 H3243 0.960 . S
C3257 H3244 0.961 . S
C3257 H3245 0.959 . S
C3257 C3255 1.561 . S
C3258 C3255 1.526 1_655 S
C3258 C3259 1.396 . S
C3258 C3263 1.390 . S
C3259 C3253 1.465 1_655 S
C3259 C3258 1.396 . S
C3259 C3260 1.399 . S
C3260 H3246 0.929 . S
C3260 C3259 1.399 . S
C3260 C3261 1.385 . S
C3261 H3247 0.931 . S
C3261 C3260 1.385 . S
C3261 C3262 1.389 . S
C3262 C3261 1.389 . S
C3262 C3263 1.387 . S
C3263 H3248 0.930 . S
C3263 C3258 1.390 . S
C3263 C3262 1.387 . S
C697 C354 1.202 . S
C685 C7 1.210 . S
C712 C23 1.440 . S
C724 C374 1.480 . S
C751 C394 1.031 . S
C739 C36 1.086 . S
C778 C413 1.444 . S
C766 C45 1.475 . S
C805 C371 1.371 . S
C793 C59 1.411 . S
C820 C78 1.155 . S
C832 C396 1.148 . S
C859 C416 1.346 . S
C847 C93 1.366 . S
C874 C105 1.369 . S
C886 C352 1.271 . S
C901 C115 1.530 . S
C913 C349 1.458 . S
C940 C372 1.290 . S
C928 C133 1.317 . S
C967 C395 1.395 . S
C955 C148 1.319 . S
C994 C417 1.384 . S
C982 C163 1.334 . S
C1021 C375 0.955 . S
C1009 C121 0.971 . S
C1048 C391 1.093 . S
C1036 C134 1.114 . S
C1063 C147 1.200 . S
C1075 C414 1.060 . S
C1102 C353 1.048 . S
C1090 C157 1.098 . S
C1117 C175 1.407 . S
C1129 C350 1.440 . S
C1144 C191 0.933 . S
C1156 C433 0.741 . S
C1183 C455 1.349 . S
C1171 C199 1.293 . S
C1210 C478 0.979 . S
C1198 C218 1.227 . S
C1225 C231 1.437 . S
C1237 C351 1.407 . S
C1252 C241 1.423 . S
C1264 C393 1.382 . S
C1291 C475 1.199 . S
C1279 C205 1.271 . S
C1318 C436 0.840 . S
C1306 C260 1.020 . S
C1345 C501 0.937 . S
C1333 C22 0.976 . S
C1372 C521 1.584 . S
C1360 C9 1.495 . S
C1387 C49 1.175 . S
C1399 C543 1.030 . S
C1414 C31 1.083 . S
C1426 C560 1.197 . S
C1441 C101 1.574 . S
C1453 C518 1.605 . S
C1468 C91 1.251 . S
C1480 C541 1.124 . S
C1507 C563 1.313 . S
C1495 C79 1.299 . S
C1522 C64 1.153 . S
C1534 C499 1.118 . S
C1549 C274 0.948 . S
C1561 C496 0.993 . S
C1588 C519 1.377 . S
C1576 C213 1.471 . S
C1615 C538 1.180 . S
C1603 C233 1.393 . S
C1642 C564 1.349 . S
C1630 C189 1.404 . S
C1669 C522 1.030 . S
C1657 C273 1.151 . S
C1696 C542 1.055 . S
C1684 C219 1.005 . S
C1723 C561 0.788 . S
C1711 C227 0.959 . S
C1738 C190 1.226 . S
C1750 C500 1.200 . S
C1777 C497 1.334 . S
C1765 C289 1.263 . S
C1792 C162 1.253 . S
C1804 C580 0.959 . S
C1831 C603 1.344 . S
C1819 C301 1.379 . S
C1846 C129 1.330 . S
C1858 C625 1.073 . S
C1885 C498 1.244 . S
C1873 C149 1.300 . S
C1912 C539 1.381 . S
C1900 C315 1.376 . S
C1939 C622 0.983 . S
C1927 C302 1.077 . S
C1954 C325 0.898 . S
C1966 C583 0.970 . S
C1981 C35 1.192 . S
C1993 C648 1.176 . S
C2008 C51 1.405 . S
C2020 C437 1.496 . S
C2047 C457 1.076 . S
C2035 C8 1.100 . S
C2062 C17 1.427 . S
C2074 C476 1.435 . S
C2089 C87 1.412 . S
C2101 C434 1.385 . S
C2116 C106 1.135 . S
C2128 C459 1.052 . S
C2155 C479 1.386 . S
C2143 C65 1.265 . S
C2182 C646 1.270 . S
C2170 C77 1.369 . S
C2209 C643 1.469 . S
C2197 C297 1.534 . S
C2236 C435 1.174 . S
C2224 C287 1.343 . S
C2263 C458 1.368 . S
C2251 C330 1.363 . S
C2278 C317 1.420 . S
C2290 C480 1.278 . S
C2317 C438 1.018 . S
C2305 C303 0.929 . S
C2332 C288 1.069 . S
C2344 C454 1.051 . S
C2371 C477 1.021 . S
C2359 C329 1.173 . S
C2386 C311 1.098 . S
C2398 C647 1.048 . S
C2425 C644 1.467 . S
C2413 C217 1.465 . S
C2440 C247 0.939 . S
C2452 C370 0.940 . S
C2479 C392 1.347 . S
C2467 C269 1.291 . S
C2494 C176 1.176 . S
C2506 C415 1.105 . S
C2533 C645 1.372 . S
C2521 C259 1.473 . S
C2560 C456 1.377 . S
C2548 C185 1.468 . S
C2587 C412 1.107 . S
C2575 C275 1.357 . S
C2614 C373 0.945 . S
C2602 C232 1.037 . S
C2629 C50 0.997 . S
C2641 C669 0.852 . S
C2656 C37 1.569 . S
C2668 C584 1.536 . S
C2683 C21 1.179 . S
C2695 C606 1.150 . S
C2722 C623 1.175 . S
C2710 C3 1.091 . S
C2749 C581 1.596 . S
C2737 C73 1.587 . S
C2764 C63 1.240 . S
C2776 C604 1.003 . S
C2803 C626 1.372 . S
C2791 C107 1.247 . S
C2818 C92 1.151 . S
C2830 C667 1.120 . S
C2857 C664 0.860 . S
C2845 C204 0.989 . S
C2872 C171 1.470 . S
C2884 C582 1.366 . S
C2899 C261 1.401 . S
C2911 C601 1.174 . S
C2938 C627 1.293 . S
C2926 C245 1.438 . S
C2965 C585 0.972 . S
C2953 C203 1.131 . S
C2980 C177 1.070 . S
C2992 C605 1.059 . S
C3019 C624 0.773 . S
C3007 C255 0.954 . S
C3046 C668 1.239 . S
C3034 C246 1.194 . S
C3073 C665 1.275 . S
C3061 C135 1.327 . S
C3100 C517 0.958 . S
C3088 C316 1.253 . S
C3115 C119 1.378 . S
C3127 C540 1.259 . S
C3142 C283 1.346 . S
C3154 C562 1.006 . S
C3181 C666 1.277 . S
C3169 C331 1.270 . S
C3208 C602 1.382 . S
C3196 C161 1.376 . S
C3235 C559 1.023 . S
C3223 C120 1.056 . S
C3262 C520 0.962 . S
C3250 C143 0.892 . S
