# Generated by pormake.
# Topology ssb, (4,4)-cn, num edge types: 1
# Building blocks:
#     Node 0, Type 0, BuildingBlock: ESEHIV_clean_sbu_0, # of connection points: 4
#     Node 1, Type 0, BuildingBlock: ESEHIV_clean_sbu_0, # of connection points: 4
#     Node 2, Type 0, BuildingBlock: ESEHIV_clean_sbu_0, # of connection points: 4
#     Node 3, Type 0, BuildingBlock: ESEHIV_clean_sbu_0, # of connection points: 4
#     Node 4, Type 0, BuildingBlock: ESEHIV_clean_sbu_0, # of connection points: 4
#     Node 5, Type 0, BuildingBlock: ESEHIV_clean_sbu_0, # of connection points: 4
#     Node 6, Type 0, BuildingBlock: ESEHIV_clean_sbu_0, # of connection points: 4
#     Node 7, Type 0, BuildingBlock: ESEHIV_clean_sbu_0, # of connection points: 4
#     Node 8, Type 1, BuildingBlock: NAWXER_clean_sbu_0, # of connection points: 4
#     Node 9, Type 1, BuildingBlock: NAWXER_clean_sbu_0, # of connection points: 4
#     Node 10, Type 1, BuildingBlock: NAWXER_clean_sbu_0, # of connection points: 4
#     Node 11, Type 1, BuildingBlock: NAWXER_clean_sbu_0, # of connection points: 4
#     Node 12, Type 1, BuildingBlock: NAWXER_clean_sbu_0, # of connection points: 4
#     Node 13, Type 1, BuildingBlock: NAWXER_clean_sbu_0, # of connection points: 4
#     Node 14, Type 1, BuildingBlock: NAWXER_clean_sbu_0, # of connection points: 4
#     Node 15, Type 1, BuildingBlock: NAWXER_clean_sbu_0, # of connection points: 4
#     Edge 16, Type (0, 1), BuildingBlock: XUDNAN_clean_linker_2, # of connection points: 2
#     Edge 17, Type (0, 1), BuildingBlock: XUDNAN_clean_linker_2, # of connection points: 2
#     Edge 18, Type (0, 1), BuildingBlock: XUDNAN_clean_linker_2, # of connection points: 2
#     Edge 19, Type (0, 1), BuildingBlock: XUDNAN_clean_linker_2, # of connection points: 2
#     Edge 20, Type (0, 1), BuildingBlock: XUDNAN_clean_linker_2, # of connection points: 2
#     Edge 21, Type (0, 1), BuildingBlock: XUDNAN_clean_linker_2, # of connection points: 2
#     Edge 22, Type (0, 1), BuildingBlock: XUDNAN_clean_linker_2, # of connection points: 2
#     Edge 23, Type (0, 1), BuildingBlock: XUDNAN_clean_linker_2, # of connection points: 2
#     Edge 24, Type (0, 1), BuildingBlock: XUDNAN_clean_linker_2, # of connection points: 2
#     Edge 25, Type (0, 1), BuildingBlock: XUDNAN_clean_linker_2, # of connection points: 2
#     Edge 26, Type (0, 1), BuildingBlock: XUDNAN_clean_linker_2, # of connection points: 2
#     Edge 27, Type (0, 1), BuildingBlock: XUDNAN_clean_linker_2, # of connection points: 2
#     Edge 28, Type (0, 1), BuildingBlock: XUDNAN_clean_linker_2, # of connection points: 2
#     Edge 29, Type (0, 1), BuildingBlock: XUDNAN_clean_linker_2, # of connection points: 2
#     Edge 30, Type (0, 1), BuildingBlock: XUDNAN_clean_linker_2, # of connection points: 2
#     Edge 31, Type (0, 1), BuildingBlock: XUDNAN_clean_linker_2, # of connection points: 2
#     Edge 32, Type (0, 1), BuildingBlock: XUDNAN_clean_linker_2, # of connection points: 2
#     Edge 33, Type (0, 1), BuildingBlock: XUDNAN_clean_linker_2, # of connection points: 2
#     Edge 34, Type (0, 1), BuildingBlock: XUDNAN_clean_linker_2, # of connection points: 2
#     Edge 35, Type (0, 1), BuildingBlock: XUDNAN_clean_linker_2, # of connection points: 2
#     Edge 36, Type (0, 1), BuildingBlock: XUDNAN_clean_linker_2, # of connection points: 2
#     Edge 37, Type (0, 1), BuildingBlock: XUDNAN_clean_linker_2, # of connection points: 2
#     Edge 38, Type (0, 1), BuildingBlock: XUDNAN_clean_linker_2, # of connection points: 2
#     Edge 39, Type (0, 1), BuildingBlock: XUDNAN_clean_linker_2, # of connection points: 2
#     Edge 40, Type (0, 1), BuildingBlock: XUDNAN_clean_linker_2, # of connection points: 2
#     Edge 41, Type (0, 1), BuildingBlock: XUDNAN_clean_linker_2, # of connection points: 2
#     Edge 42, Type (0, 1), BuildingBlock: XUDNAN_clean_linker_2, # of connection points: 2
#     Edge 43, Type (0, 1), BuildingBlock: XUDNAN_clean_linker_2, # of connection points: 2
#     Edge 44, Type (0, 1), BuildingBlock: XUDNAN_clean_linker_2, # of connection points: 2
#     Edge 45, Type (0, 1), BuildingBlock: XUDNAN_clean_linker_2, # of connection points: 2
#     Edge 46, Type (0, 1), BuildingBlock: XUDNAN_clean_linker_2, # of connection points: 2
#     Edge 47, Type (0, 1), BuildingBlock: XUDNAN_clean_linker_2, # of connection points: 2
# Relax obj value: 0.002
# Max RMSD: 0.102
# Mean RMSD: 0.051
data_MOF--net-ssb--node1-ESEHIV_clean_sbu_0--node2-NAWXER_clean_sbu_0--edge1-XUDNAN_clean_linker_2
_symmetry_space_group_name_H-M    P1
_symmetry_Int_Tables_number       1
_symmetry_cell_setting            triclinic
loop_
_symmetry_equiv_pos_as_xyz
'x, y, z'
_cell_length_a     45.640851
_cell_length_b     46.322029
_cell_length_c     39.208526
_cell_angle_alpha  89.741115
_cell_angle_beta   89.797251
_cell_angle_gamma 90.081593
loop_
_atom_site_label
_atom_site_type_symbol
_atom_site_fract_x
_atom_site_fract_y
_atom_site_fract_z
_atom_type_partial_charge
Cu0 Cu 0.28647 0.30294 0.28032 0.0
N1 N 0.28536 0.26272 0.28624 0.0
N2 N 0.29515 0.21958 0.30954 0.0
C3 C 0.30106 0.24816 0.30975 0.0
C4 C 0.27497 0.21599 0.28483 0.0
C5 C 0.26909 0.2426 0.27038 0.0
O6 O 0.27228 0.31843 0.32376 0.0
C7 C 0.33704 0.29852 0.24315 0.0
O8 O 0.32053 0.27839 0.22958 0.0
H9 H 0.31599 0.25851 0.32727 0.0
H10 H 0.25399 0.24684 0.24983 0.0
N11 N 0.26286 0.3158 0.24429 0.0
N12 N 0.24664 0.34488 0.20257 0.0
C13 C 0.26861 0.33911 0.22463 0.0
C14 C 0.23634 0.3064 0.2344 0.0
C15 C 0.22634 0.32419 0.20864 0.0
C16 C 0.2491 0.33361 0.32688 0.0
O17 O 0.23653 0.34413 0.29947 0.0
H18 H 0.28804 0.35225 0.22762 0.0
H19 H 0.22455 0.28861 0.24596 0.0
O20 O 0.32665 0.31322 0.26783 0.0
H21 H 0.26529 0.19558 0.27759 0.0
H22 H 0.2055 0.32218 0.19581 0.0
Cu23 Cu 0.8074 0.24557 0.27058 0.0
N24 N 0.78973 0.22634 0.23418 0.0
N25 N 0.75601 0.21402 0.19549 0.0
C26 C 0.76435 0.23371 0.2189 0.0
C27 C 0.77711 0.1936 0.19605 0.0
C28 C 0.79776 0.2012 0.21995 0.0
O29 O 0.80027 0.28667 0.26473 0.0
C30 C 0.8006 0.20461 0.32118 0.0
O31 O 0.81839 0.19103 0.30031 0.0
H32 H 0.75168 0.25252 0.22591 0.0
H33 H 0.81681 0.18878 0.22715 0.0
N34 N 0.84794 0.23948 0.27226 0.0
N35 N 0.89224 0.23461 0.29564 0.0
C36 C 0.86446 0.24374 0.30017 0.0
C37 C 0.866 0.22756 0.24904 0.0
C38 C 0.89336 0.22439 0.2635 0.0
C39 C 0.81506 0.29973 0.24173 0.0
O40 O 0.83444 0.28506 0.22407 0.0
H41 H 0.85583 0.25206 0.32392 0.0
H42 H 0.8596 0.22102 0.2237 0.0
O43 O 0.79159 0.22974 0.31297 0.0
H44 H 0.77749 0.1743 0.18062 0.0
H45 H 0.91247 0.21502 0.25146 0.0
Cu46 Cu 0.76448 0.78296 0.3091 0.0
N47 N 0.75215 0.74455 0.30875 0.0
N48 N 0.73914 0.70205 0.28654 0.0
C49 C 0.75472 0.72657 0.28197 0.0
C50 C 0.72638 0.70467 0.31749 0.0
C51 C 0.73447 0.73092 0.33115 0.0
O52 O 0.75681 0.7957 0.26277 0.0
C53 C 0.81975 0.80643 0.33356 0.0
O54 O 0.80699 0.83183 0.33368 0.0
H55 H 0.76616 0.73222 0.25864 0.0
H56 H 0.72678 0.74008 0.35487 0.0
N57 N 0.74037 0.80421 0.33851 0.0
N58 N 0.72518 0.83419 0.37945 0.0
C59 C 0.74733 0.81748 0.36792 0.0
C60 C 0.71266 0.81227 0.33173 0.0
C61 C 0.7033 0.8309 0.35678 0.0
C62 C 0.74925 0.82121 0.25468 0.0
O63 O 0.75242 0.84205 0.27698 0.0
H64 H 0.76862 0.81599 0.37982 0.0
H65 H 0.70057 0.80597 0.30927 0.0
O66 O 0.80569 0.78442 0.32287 0.0
H67 H 0.71156 0.68914 0.32897 0.0
H68 H 0.68227 0.84164 0.35788 0.0
Cu69 Cu 0.29516 0.80488 0.25712 0.0
N70 N 0.30889 0.83011 0.22306 0.0
N71 N 0.33926 0.85001 0.18446 0.0
C72 C 0.33548 0.82889 0.20802 0.0
C73 C 0.31387 0.86502 0.18478 0.0
C74 C 0.29521 0.85269 0.20855 0.0
O75 O 0.31028 0.76666 0.24686 0.0
C76 C 0.31757 0.84271 0.3082 0.0
O77 O 0.33067 0.85644 0.28304 0.0
H78 H 0.35186 0.813 0.21474 0.0
H79 H 0.27324 0.85966 0.21481 0.0
N80 N 0.25425 0.80173 0.25817 0.0
N81 N 0.21055 0.78955 0.27981 0.0
C82 C 0.23913 0.79417 0.2864 0.0
C83 C 0.2344 0.8023 0.23282 0.0
C84 C 0.20739 0.79452 0.24611 0.0
C85 C 0.30207 0.75731 0.21794 0.0
O86 O 0.28615 0.77417 0.19843 0.0
H87 H 0.24919 0.79076 0.31106 0.0
H88 H 0.23932 0.80708 0.2064 0.0
O89 O 0.30469 0.81887 0.30239 0.0
H90 H 0.30887 0.88341 0.16872 0.0
H91 H 0.18711 0.79237 0.2321 0.0
Cu92 Cu 0.31936 0.78881 0.76491 0.0
N93 N 0.35649 0.77174 0.76814 0.0
N94 N 0.39731 0.75764 0.79472 0.0
C95 C 0.36936 0.76632 0.79837 0.0
C96 C 0.40249 0.75749 0.76087 0.0
C97 C 0.37706 0.76586 0.74441 0.0
O98 O 0.30061 0.77773 0.80789 0.0
C99 C 0.33736 0.83776 0.73062 0.0
O100 O 0.34791 0.81742 0.7109 0.0
H101 H 0.35894 0.77021 0.82276 0.0
H102 H 0.37422 0.76839 0.71721 0.0
N103 N 0.29701 0.77659 0.72765 0.0
N104 N 0.26233 0.7787 0.68741 0.0
C105 C 0.27423 0.7916 0.71492 0.0
C106 C 0.29985 0.75335 0.70745 0.0
C107 C 0.27834 0.75451 0.68271 0.0
C108 C 0.28857 0.75293 0.81048 0.0
O109 O 0.28387 0.73798 0.78266 0.0
H110 H 0.2665 0.8116 0.72586 0.0
H111 H 0.31646 0.7369 0.71039 0.0
O112 O 0.3241 0.83036 0.75802 0.0
H113 H 0.42328 0.7523 0.74902 0.0
H114 H 0.27514 0.73902 0.66247 0.0
Cu115 Cu 0.29314 0.29902 0.77969 0.0
N116 N 0.30491 0.33775 0.77878 0.0
N117 N 0.3205 0.37996 0.79905 0.0
C118 C 0.31563 0.3519 0.80593 0.0
C119 C 0.31227 0.38398 0.76641 0.0
C120 C 0.30288 0.35773 0.7538 0.0
O121 O 0.30977 0.28207 0.82081 0.0
C122 C 0.24046 0.30297 0.74697 0.0
O123 O 0.25864 0.31087 0.72266 0.0
H124 H 0.31882 0.34209 0.83074 0.0
H125 H 0.29472 0.35372 0.72842 0.0
N126 N 0.30723 0.27822 0.74253 0.0
N127 N 0.30664 0.24458 0.70194 0.0
C128 C 0.2945 0.2539 0.73125 0.0
C129 C 0.32844 0.28455 0.71979 0.0
C130 C 0.32824 0.26366 0.69472 0.0
C131 C 0.33753 0.28443 0.82282 0.0
O132 O 0.35194 0.2961 0.79716 0.0
H133 H 0.27614 0.24369 0.74405 0.0
H134 H 0.34233 0.30347 0.72077 0.0
O135 O 0.25053 0.29702 0.77646 0.0
H136 H 0.31289 0.40438 0.75285 0.0
H137 H 0.34209 0.26323 0.67227 0.0
Cu138 Cu 0.77634 0.29545 0.79515 0.0
N139 N 0.81128 0.30671 0.77326 0.0
N140 N 0.84717 0.3139 0.73519 0.0
C141 C 0.81788 0.31124 0.73999 0.0
C142 C 0.85924 0.31115 0.76631 0.0
C143 C 0.83718 0.30674 0.78959 0.0
O144 O 0.76781 0.25488 0.78562 0.0
C145 C 0.78702 0.33058 0.85014 0.0
O146 O 0.79481 0.34758 0.82476 0.0
H147 H 0.80193 0.31073 0.71964 0.0
H148 H 0.83989 0.30238 0.81652 0.0
N149 N 0.74292 0.31558 0.78173 0.0
N150 N 0.69574 0.32627 0.79128 0.0
C151 C 0.72259 0.3232 0.80497 0.0
C152 C 0.72855 0.31424 0.75188 0.0
C153 C 0.69939 0.32087 0.7577 0.0
C154 C 0.78548 0.2379 0.77046 0.0
O155 O 0.81253 0.24636 0.76471 0.0
H156 H 0.72641 0.32214 0.83215 0.0
H157 H 0.73768 0.30559 0.72858 0.0
O158 O 0.7795 0.30465 0.84357 0.0
H159 H 0.88251 0.31141 0.77161 0.0
H160 H 0.68184 0.31902 0.73933 0.0
Cu161 Cu 0.81282 0.75772 0.78311 0.0
N162 N 0.80513 0.71884 0.79318 0.0
N163 N 0.80449 0.67865 0.82498 0.0
C164 C 0.81601 0.70526 0.82077 0.0
C165 C 0.78561 0.67525 0.79888 0.0
C166 C 0.78616 0.70008 0.77913 0.0
O167 O 0.79611 0.78073 0.82017 0.0
C168 C 0.86448 0.74466 0.7513 0.0
O169 O 0.84702 0.7243 0.73995 0.0
H170 H 0.83102 0.71538 0.8384 0.0
H171 H 0.77285 0.70457 0.75697 0.0
N172 N 0.79583 0.77189 0.74328 0.0
N173 N 0.79054 0.80566 0.7028 0.0
C174 C 0.80863 0.79357 0.72584 0.0
C175 C 0.76848 0.76989 0.73077 0.0
C176 C 0.76515 0.79078 0.70569 0.0
C177 C 0.76985 0.7737 0.82794 0.0
O178 O 0.75737 0.75244 0.8114 0.0
H179 H 0.83 0.80207 0.7323 0.0
H180 H 0.75157 0.75579 0.74076 0.0
O181 O 0.85469 0.76181 0.77407 0.0
H182 H 0.77208 0.6564 0.79468 0.0
H183 H 0.74519 0.79556 0.69197 0.0
C184 C 1.00244 0.31674 0.56368 0.0
C185 C 0.09487 0.31837 0.49907 0.0
O186 O 1.0138 0.33812 0.54798 0.0
Zn187 Zn 0.04775 0.31797 0.53025 0.0
O188 O 1.0151 0.292 0.5625 0.0
Zn189 Zn 0.05379 0.27324 0.53933 0.0
O190 O 0.07477 0.25913 0.57844 0.0
O191 O 0.07099 0.30673 0.57679 0.0
O192 O 0.08867 0.29345 0.51143 0.0
O193 O 0.07691 0.33903 0.50304 0.0
O194 O 0.02753 0.29034 0.49347 0.0
O195 O 0.03825 0.24542 0.50726 0.0
C196 C 0.07979 0.2836 0.59177 0.0
C197 C 0.02564 0.26323 0.48748 0.0
C198 C 0.74636 0.07477 0.61806 0.0
C199 C 0.73475 0.99892 0.53213 0.0
O200 O 0.77048 0.06809 0.60318 0.0
Zn201 Zn 0.78503 0.03965 0.56354 0.0
O202 O 0.72274 0.06253 0.60881 0.0
Zn203 Zn 0.73906 0.0385 0.57298 0.0
O204 O 0.76492 1.00753 0.601 0.0
O205 O 0.81149 0.01387 0.58741 0.0
O206 O 0.71404 0.01169 0.54777 0.0
O207 O 0.76116 1.00772 0.53565 0.0
O208 O 0.80013 0.06518 0.52839 0.0
O209 O 0.75232 0.06925 0.53484 0.0
C210 C 0.79182 0.99982 0.60358 0.0
C211 C 0.77615 0.07718 0.52011 0.0
C212 C 1.01022 0.76447 0.56933 0.0
C213 C 0.07408 0.7571 0.4681 0.0
O214 O 1.01735 0.78873 0.55587 0.0
Zn215 Zn 0.04095 0.80529 0.51319 0.0
O216 O 0.01826 0.74115 0.55501 0.0
Zn217 Zn 0.04089 0.75853 0.51745 0.0
O218 O 0.07556 0.78002 0.54365 0.0
O219 O 0.07184 0.82719 0.53661 0.0
O220 O 0.06324 0.73574 0.48444 0.0
O221 O 0.0673 0.78292 0.47663 0.0
O222 O 1.01002 0.82298 0.48415 0.0
O223 O 1.00838 0.77548 0.48484 0.0
C224 C 0.08534 0.80552 0.54918 0.0
C225 C 0.99852 0.79956 0.47372 0.0
C226 C 0.28523 0.07298 0.55994 0.0
C227 C 0.29099 0.98839 0.48572 0.0
O228 O 0.3114 0.06494 0.55279 0.0
Zn229 Zn 0.33364 0.03226 0.52439 0.0
O230 O 0.26354 0.0587 0.5485 0.0
Zn231 Zn 0.28659 0.03032 0.52378 0.0
O232 O 0.30643 1.00774 0.5651 0.0
O233 O 0.3545 1.01058 0.55987 0.0
O234 O 0.26786 0.99949 0.49816 0.0
O235 O 0.31604 0.99893 0.49345 0.0
O236 O 0.35422 0.05629 0.4911 0.0
O237 O 0.30615 0.05713 0.485 0.0
C238 C 0.33205 1.00163 0.57611 0.0
C239 C 0.33168 0.06557 0.47543 0.0
C240 C 0.52065 0.8467 0.04834 0.0
C241 C 0.60767 0.83267 0.97549 0.0
O242 O 0.53296 0.86526 0.02902 0.0
Zn243 Zn 0.56433 0.8409 1.01126 0.0
O244 O 0.53146 0.82122 0.05032 0.0
Zn245 Zn 0.567 0.79716 0.02877 0.0
O246 O 0.59152 0.78794 0.06821 0.0
O247 O 0.59165 0.8342 0.05477 0.0
O248 O 0.5997 0.8101 0.9922 0.0
O249 O 0.59319 0.85598 0.97879 0.0
O250 O 0.54087 0.81011 0.98088 0.0
O251 O 0.54597 0.76704 1.00444 0.0
C252 C 0.60063 0.81347 0.07378 0.0
C253 C 0.53541 0.78294 0.98096 0.0
C254 C 0.32113 0.5857 0.07722 0.0
C255 C 0.33126 0.52298 0.97851 0.0
O256 O 0.34405 0.5728 0.06695 0.0
Zn257 Zn 0.32612 0.55397 0.02853 0.0
O258 O 0.29679 0.58183 0.06152 0.0
Zn259 Zn 0.28092 0.55763 1.01826 0.0
O260 O 0.25351 0.5306 0.03866 0.0
O261 O 0.29917 0.52168 0.05317 0.0
O262 O 0.30477 0.53139 0.98284 0.0
O263 O 0.35093 0.53112 0.99917 0.0
O264 O 0.31357 0.59073 0.99701 0.0
O265 O 0.2658 0.58776 0.9889 0.0
C266 C 0.27186 0.51523 0.05489 0.0
C267 C 0.28993 0.60085 0.9839 0.0
C268 C 0.5626 0.29933 0.98244 0.0
C269 C 0.50535 0.30151 0.08839 0.0
O270 O 0.55903 0.32058 1.00241 0.0
Zn271 Zn 0.53656 0.30014 0.03716 0.0
O272 O 0.55277 0.27436 0.9911 0.0
Zn273 Zn 0.52939 0.25548 0.03385 0.0
O274 O 0.49627 0.23868 1.01153 0.0
O275 O 0.49787 0.28634 1.00832 0.0
O276 O 0.50782 0.27605 0.07601 0.0
O277 O 0.51904 0.32226 0.07419 0.0
O278 O 0.56976 0.27439 0.06232 0.0
O279 O 0.55674 0.22922 0.05429 0.0
C280 C 0.48527 0.26228 1.00105 0.0
C281 C 0.57462 0.24732 0.06662 0.0
C282 C 0.74591 0.55433 0.10822 0.0
C283 C 0.75665 0.47365 0.02865 0.0
O284 O 0.7728 0.54746 0.10316 0.0
Zn285 Zn 0.79682 0.51657 0.07301 0.0
O286 O 0.72592 0.54096 0.0922 0.0
Zn287 Zn 0.75079 0.51463 0.06719 0.0
O288 O 0.76823 0.48841 0.1076 0.0
O289 O 0.81635 0.49316 0.10725 0.0
O290 O 0.73293 0.48507 0.03898 0.0
O291 O 0.78127 0.48367 0.03893 0.0
O292 O 0.82017 0.54054 0.04324 0.0
O293 O 0.77319 0.54199 0.03044 0.0
C294 C 0.79334 0.4819 0.11995 0.0
C295 C 0.79969 0.54988 1.0243 0.0
H296 H 0.19705 0.36089 0.3414 0.0
H297 H 0.26424 0.30701 0.387 0.0
H298 H 0.23365 0.3014 0.43861 0.0
H299 H 0.17236 0.39606 0.42233 0.0
H300 H 0.13458 0.39596 0.4091 0.0
H301 H 0.16339 0.39899 0.3777 0.0
H302 H 0.14243 0.35458 0.34612 0.0
H303 H 0.11378 0.35122 0.37751 0.0
H304 H 0.13758 0.32106 0.36902 0.0
H305 H 0.19304 0.29544 0.48111 0.0
H306 H 0.14671 0.29265 0.51367 0.0
H307 H 0.10617 0.35204 0.44233 0.0
C308 C 0.20574 0.34857 0.36259 0.0
C309 C 0.2332 0.33447 0.36007 0.0
C310 C 0.24346 0.31821 0.38828 0.0
C311 C 0.22618 0.31485 0.41775 0.0
C312 C 0.19882 0.3282 0.41889 0.0
C313 C 0.18883 0.34513 0.39229 0.0
C314 C 0.15781 0.35557 0.39906 0.0
C315 C 0.157 0.38861 0.40224 0.0
C316 C 0.13666 0.34496 0.37128 0.0
C317 C 0.15154 0.34105 0.43308 0.0
C318 C 0.17557 0.32543 0.44406 0.0
C319 C 0.17434 0.3081 0.47316 0.0
C320 C 0.14789 0.30655 0.4914 0.0
C321 C 0.12303 0.32243 0.48076 0.0
C322 C 0.12506 0.34025 0.45149 0.0
H323 H 0.83016 0.16189 0.35403 0.0
H324 H 0.75288 0.21585 0.36225 0.0
H325 H 0.73869 0.18997 0.41537 0.0
H326 H 0.79834 0.0966 0.3824 0.0
H327 H 0.83011 0.08488 0.40584 0.0
H328 H 0.8344 0.10831 0.36941 0.0
H329 H 0.86243 0.14531 0.40649 0.0
H330 H 0.85834 0.12194 0.44306 0.0
H331 H 0.84565 0.15873 0.44496 0.0
H332 H 0.73148 0.15536 0.4653 0.0
H333 H 0.73341 0.11762 0.51002 0.0
H334 H 0.81698 0.08833 0.47013 0.0
C335 C 0.81027 0.16838 0.36703 0.0
C336 C 0.79245 0.19073 0.35392 0.0
C337 C 0.76682 0.19879 0.3719 0.0
C338 C 0.7586 0.18418 0.40201 0.0
C339 C 0.77654 0.16194 0.41397 0.0
C340 C 0.80205 0.15439 0.39722 0.0
C341 C 0.81761 0.12982 0.41517 0.0
C342 C 0.82025 0.10334 0.39181 0.0
C343 C 0.84779 0.13954 0.4282 0.0
C344 C 0.7966 0.12422 0.44438 0.0
C345 C 0.77298 0.14289 0.44322 0.0
C346 C 0.75004 0.14089 0.46665 0.0
C347 C 0.75129 0.11931 0.49187 0.0
C348 C 0.77544 0.10015 0.4937 0.0
C349 C 0.79843 0.10288 0.46969 0.0
H350 H 0.85027 0.84377 0.37547 0.0
H351 H 0.85631 0.76036 0.32586 0.0
H352 H 0.90403 0.75199 0.35332 0.0
H353 H 0.92933 0.86147 0.37193 0.0
H354 H 0.92932 0.87793 0.41351 0.0
H355 H 0.8967 0.87884 0.38773 0.0
H356 H 0.86724 0.855 0.43688 0.0
H357 H 0.89973 0.85395 0.46276 0.0
H358 H 0.87962 0.82119 0.45461 0.0
H359 H 0.94874 0.75071 0.38836 0.0
H360 H 0.98858 0.75611 0.42965 0.0
H361 H 0.95532 0.84043 0.45824 0.0
C362 C 0.86192 0.82399 0.36989 0.0
C363 C 0.84954 0.80277 0.34824 0.0
C364 C 0.86525 0.77694 0.3422 0.0
C365 C 0.89245 0.77202 0.35765 0.0
C366 C 0.90379 0.79309 0.37918 0.0
C367 C 0.88916 0.8186 0.38537 0.0
C368 C 0.90572 0.83683 0.41122 0.0
C369 C 0.91587 0.86547 0.39513 0.0
C370 C 0.88696 0.84204 0.44327 0.0
C371 C 0.93164 0.81728 0.41899 0.0
C372 C 0.92999 0.7923 0.3999 0.0
C373 C 0.9504 0.77025 0.40326 0.0
C374 C 0.97293 0.77353 0.42699 0.0
C375 C 0.97518 0.79869 0.44732 0.0
C376 C 0.95442 0.82111 0.44285 0.0
H377 H 0.34739 0.88901 0.33409 0.0
H378 H 0.27411 0.83169 0.35488 0.0
H379 H 0.25942 0.86223 0.40343 0.0
H380 H 0.36379 0.90499 0.42442 0.0
H381 H 0.37363 0.94184 0.41483 0.0
H382 H 0.37938 0.91411 0.38345 0.0
H383 H 0.34863 0.94352 0.34008 0.0
H384 H 0.34235 0.97108 0.37146 0.0
H385 H 0.3117 0.95379 0.35105 0.0
H386 H 0.24935 0.90263 0.4455 0.0
H387 H 0.24904 0.94582 0.48273 0.0
H388 H 0.33035 0.97471 0.43619 0.0
C389 C 0.32864 0.88253 0.34931 0.0
C390 C 0.31196 0.85795 0.34069 0.0
C391 C 0.28744 0.85027 0.36116 0.0
C392 C 0.27878 0.8676 0.38868 0.0
C393 C 0.29516 0.89225 0.39579 0.0
C394 C 0.31996 0.89932 0.37717 0.0
C395 C 0.33355 0.92711 0.38969 0.0
C396 C 0.36441 0.92168 0.40395 0.0
C397 C 0.33407 0.95023 0.36138 0.0
C398 C 0.31218 0.93493 0.41774 0.0
C399 C 0.29002 0.91473 0.42077 0.0
C400 C 0.26687 0.91834 0.44375 0.0
C401 C 0.26673 0.94298 0.46458 0.0
C402 C 0.28977 0.96339 0.4625 0.0
C403 C 0.31264 0.95923 0.43867 0.0
H404 H 0.22374 0.74609 0.6513 0.0
H405 H 0.24496 0.8344 0.67807 0.0
H406 H 0.20234 0.85161 0.64506 0.0
H407 H 0.19975 0.76097 0.56508 0.0
H408 H 0.1708 0.73448 0.56671 0.0
H409 H 0.20334 0.72946 0.59189 0.0
H410 H 0.17145 0.72491 0.64651 0.0
H411 H 0.13884 0.72998 0.6215 0.0
H412 H 0.14615 0.75338 0.65709 0.0
H413 H 0.15637 0.85905 0.60853 0.0
H414 H 0.11136 0.85546 0.57339 0.0
H415 H 0.12104 0.76228 0.57159 0.0
C416 C 0.21967 0.76907 0.64994 0.0
C417 C 0.23779 0.78883 0.66739 0.0
C418 C 0.23127 0.81875 0.66532 0.0
C419 C 0.20717 0.82877 0.64643 0.0
C420 C 0.18965 0.80866 0.62971 0.0
C421 C 0.19565 0.77942 0.63137 0.0
C422 C 0.17318 0.76212 0.61181 0.0
C423 C 0.18764 0.7458 0.58211 0.0
C424 C 0.15642 0.74138 0.63566 0.0
C425 C 0.15357 0.78613 0.59894 0.0
C426 C 0.16337 0.81288 0.6093 0.0
C427 C 0.14853 0.83816 0.6003 0.0
C428 C 0.12299 0.83596 0.58032 0.0
C429 C 0.11249 0.80864 0.56976 0.0
C430 C 0.12824 0.78356 0.57927 0.0
H431 H 0.34002 0.21214 0.65937 0.0
H432 H 0.25176 0.22166 0.69906 0.0
H433 H 0.2357 0.17983 0.66533 0.0
H434 H 0.3197 0.18993 0.57392 0.0
H435 H 0.34933 0.16442 0.57057 0.0
H436 H 0.35339 0.19608 0.59665 0.0
H437 H 0.36612 0.16374 0.64868 0.0
H438 H 0.36208 0.13202 0.62277 0.0
H439 H 0.34107 0.13556 0.66153 0.0
H440 H 0.22953 0.13583 0.62755 0.0
H441 H 0.23459 0.09278 0.59059 0.0
H442 H 0.32701 0.11219 0.57714 0.0
C443 C 0.31725 0.20567 0.66063 0.0
C444 C 0.29717 0.22036 0.68176 0.0
C445 C 0.26763 0.21078 0.6832 0.0
C446 C 0.25823 0.18706 0.66399 0.0
C447 C 0.27866 0.17297 0.64358 0.0
C448 C 0.30758 0.18189 0.64189 0.0
C449 C 0.32547 0.16242 0.61909 0.0
C450 C 0.33768 0.17922 0.58823 0.0
C451 C 0.35013 0.14755 0.63923 0.0
C452 C 0.30219 0.14106 0.60844 0.0
C453 C 0.27525 0.14754 0.62253 0.0
C454 C 0.25054 0.13056 0.61633 0.0
C455 C 0.25358 0.1062 0.59532 0.0
C456 C 0.28117 0.09903 0.58111 0.0
C457 C 0.30561 0.11691 0.58773 0.0
H458 H 0.89297 0.28102 0.71657 0.0
H459 H 0.83846 0.35211 0.68363 0.0
H460 H 0.87135 0.36005 0.63366 0.0
H461 H 0.9607 0.31127 0.69641 0.0
H462 H 0.97721 0.27824 0.6817 0.0
H463 H 0.94814 0.27697 0.71277 0.0
H464 H 0.91806 0.24317 0.67365 0.0
H465 H 0.94722 0.24405 0.64258 0.0
H466 H 0.91057 0.25407 0.63036 0.0
H467 H 0.91431 0.36329 0.59127 0.0
H468 H 0.95972 0.35823 0.55687 0.0
H469 H 0.98382 0.28304 0.61672 0.0
C470 C 0.88774 0.29792 0.69843 0.0
C471 C 0.86333 0.31602 0.70371 0.0
C472 C 0.85698 0.33792 0.67964 0.0
C473 C 0.87561 0.34262 0.65141 0.0
C474 C 0.90009 0.32481 0.64745 0.0
C475 C 0.90575 0.3025 0.67001 0.0
C476 C 0.93359 0.28663 0.66069 0.0
C477 C 0.95624 0.2884 0.68961 0.0
C478 C 0.92695 0.25511 0.65125 0.0
C479 C 0.94328 0.30391 0.62984 0.0
C480 C 0.92383 0.32594 0.62257 0.0
C481 C 0.92937 0.34579 0.59642 0.0
C482 C 0.95528 0.34286 0.57714 0.0
C483 C 0.97514 0.32008 0.58389 0.0
C484 C 0.96884 0.30039 0.61053 0.0
H485 H 0.75092 0.84709 0.68512 0.0
H486 H 0.84312 0.82495 0.67979 0.0
H487 H 0.85416 0.87304 0.65552 0.0
H488 H 0.74944 0.8892 0.60536 0.0
H489 H 0.72374 0.91494 0.62232 0.0
H490 H 0.72328 0.87817 0.63745 0.0
H491 H 0.72916 0.8966 0.69947 0.0
H492 H 0.73025 0.93336 0.68439 0.0
H493 H 0.75985 0.91942 0.7099 0.0
H494 H 0.8553 0.92462 0.63367 0.0
H495 H 0.84573 0.97403 0.6121 0.0
H496 H 0.75292 0.96205 0.63256 0.0
C497 C 0.77332 0.85208 0.67817 0.0
C498 C 0.79617 0.83223 0.68451 0.0
C499 C 0.8253 0.83991 0.67553 0.0
C500 C 0.83179 0.86717 0.66169 0.0
C501 C 0.80889 0.88656 0.65678 0.0
C502 C 0.78019 0.87922 0.66434 0.0
C503 C 0.75967 0.90412 0.65703 0.0
C504 C 0.73775 0.89612 0.62887 0.0
C505 C 0.74381 0.91395 0.68965 0.0
C506 C 0.78132 0.92667 0.64469 0.0
C507 C 0.80961 0.91617 0.64459 0.0
C508 C 0.83321 0.93307 0.63363 0.0
C509 C 0.8276 0.96118 0.62163 0.0
C510 C 0.79864 0.9721 0.62085 0.0
C511 C 0.7754 0.95461 0.63314 0.0
H512 H 0.8911 0.70988 0.70446 0.0
H513 H 0.89996 0.79271 0.75471 0.0
H514 H 0.94135 0.8049 0.71629 0.0
H515 H 0.9703 0.6981 0.68691 0.0
H516 H 0.96287 0.68189 0.64613 0.0
H517 H 0.93676 0.67829 0.68048 0.0
H518 H 0.8964 0.69985 0.64174 0.0
H519 H 0.92237 0.70384 0.60743 0.0
H520 H 0.90209 0.73474 0.62222 0.0
H521 H 0.97718 0.81043 0.66781 0.0
H522 H 1.00678 0.80816 0.61525 0.0
H523 H 0.97516 0.72128 0.59662 0.0
C524 C 0.90219 0.73032 0.70804 0.0
C525 C 0.89235 0.7503 0.73281 0.0
C526 C 0.90728 0.77693 0.73627 0.0
C527 C 0.93075 0.78406 0.71445 0.0
C528 C 0.9392 0.76421 0.68957 0.0
C529 C 0.92561 0.73771 0.68657 0.0
C530 C 0.9375 0.721 0.65632 0.0
C531 C 0.95277 0.69317 0.66818 0.0
C532 C 0.91314 0.71449 0.63041 0.0
C533 C 0.9594 0.74255 0.64209 0.0
C534 C 0.9601 0.76727 0.66178 0.0
C535 C 0.97713 0.79102 0.65257 0.0
C536 C 0.99375 0.78954 0.6225 0.0
C537 C 0.99342 0.76447 0.60184 0.0
C538 C 0.97623 0.74054 0.61211 0.0
H539 H 0.37142 0.85987 0.67957 0.0
H540 H 0.30363 0.88354 0.75202 0.0
H541 H 0.29945 0.93138 0.72404 0.0
H542 H 0.40501 0.93321 0.67049 0.0
H543 H 0.41187 0.92795 0.62565 0.0
H544 H 0.41245 0.89753 0.65448 0.0
H545 H 0.37363 0.87163 0.61749 0.0
H546 H 0.37275 0.90194 0.58873 0.0
H547 H 0.33938 0.88945 0.60864 0.0
H548 H 0.2971 0.9729 0.68254 0.0
H549 H 0.2986 1.00606 0.63304 0.0
H550 H 0.36948 0.95645 0.58881 0.0
C551 C 0.3562 0.87538 0.69016 0.0
C552 C 0.33789 0.86801 0.71809 0.0
C553 C 0.31809 0.88881 0.73093 0.0
C554 C 0.31555 0.91601 0.71512 0.0
C555 C 0.33331 0.9222 0.68692 0.0
C556 C 0.35359 0.9026 0.67489 0.0
C557 C 0.36852 0.91354 0.64269 0.0
C558 C 0.40142 0.91835 0.6487 0.0
C559 C 0.36323 0.89292 0.61263 0.0
C560 C 0.3527 0.94195 0.63762 0.0
C561 C 0.33259 0.9466 0.66354 0.0
C562 C 0.31326 0.96984 0.66264 0.0
C563 C 0.31423 0.9885 0.63439 0.0
C564 C 0.33453 0.98406 0.60752 0.0
C565 C 0.35441 0.96082 0.60954 0.0
H566 H 0.22227 0.2634 0.70211 0.0
H567 H 0.19123 0.33168 0.76769 0.0
H568 H 0.1428 0.32998 0.73907 0.0
H569 H 0.19256 0.28674 0.62932 0.0
H570 H 0.18243 0.25218 0.61198 0.0
H571 H 0.21209 0.25459 0.64181 0.0
H572 H 0.1869 0.21742 0.68158 0.0
H573 H 0.15725 0.21424 0.65156 0.0
H574 H 0.14966 0.22332 0.69536 0.0
H575 H 0.10262 0.32782 0.69502 0.0
H576 H 0.07145 0.3214 0.64403 0.0
H577 H 0.1274 0.2517 0.61 0.0
C578 C 0.20471 0.27687 0.71154 0.0
C579 C 0.20995 0.29712 0.73752 0.0
C580 C 0.18715 0.31549 0.74843 0.0
C581 C 0.15973 0.31474 0.73216 0.0
C582 C 0.15555 0.29511 0.70562 0.0
C583 C 0.17724 0.27595 0.69603 0.0
C584 C 0.16841 0.25872 0.66497 0.0
C585 C 0.19016 0.26336 0.63529 0.0
C586 C 0.16536 0.22651 0.67392 0.0
C587 C 0.13893 0.27215 0.6574 0.0
C588 C 0.13183 0.29307 0.68114 0.0
C589 C 0.10747 0.31088 0.67697 0.0
C590 C 0.09001 0.30722 0.64787 0.0
C591 C 0.0968 0.28571 0.62359 0.0
C592 C 0.12126 0.26769 0.62878 0.0
H593 H 0.81613 0.20024 0.73016 0.0
H594 H 0.72994 0.21478 0.77394 0.0
H595 H 0.71079 0.17292 0.742 0.0
H596 H 0.79214 0.18302 0.6481 0.0
H597 H 0.81956 0.15582 0.64046 0.0
H598 H 0.82707 0.185 0.66928 0.0
H599 H 0.83906 0.14834 0.71735 0.0
H600 H 0.83182 0.11899 0.68857 0.0
H601 H 0.81254 0.12103 0.72869 0.0
H602 H 0.7003 0.13143 0.70137 0.0
H603 H 0.69988 0.09342 0.6572 0.0
H604 H 0.79299 0.10674 0.64039 0.0
C605 C 0.79334 0.19435 0.73364 0.0
C606 C 0.7746 0.21078 0.75478 0.0
C607 C 0.74482 0.20246 0.75811 0.0
C608 C 0.73371 0.17872 0.74001 0.0
C609 C 0.75267 0.16343 0.71875 0.0
C610 C 0.78192 0.17082 0.71574 0.0
C611 C 0.79745 0.15191 0.68999 0.0
C612 C 0.80977 0.17002 0.6602 0.0
C613 C 0.82164 0.134 0.70719 0.0
C614 C 0.77231 0.13296 0.67857 0.0
C615 C 0.74666 0.13979 0.6955 0.0
C616 C 0.72035 0.12575 0.68822 0.0
C617 C 0.7203 0.10422 0.66302 0.0
C618 C 0.74639 0.09695 0.64533 0.0
C619 C 0.77267 0.11155 0.65351 0.0
H620 H 0.90203 0.27429 0.34484 0.0
H621 H 0.93383 0.1934 0.30391 0.0
H622 H 0.97151 0.19127 0.34915 0.0
H623 H 0.97282 0.30323 0.36669 0.0
H624 H 0.95977 0.32047 0.40496 0.0
H625 H 0.93532 0.31521 0.36957 0.0
H626 H 0.89906 0.28787 0.40924 0.0
H627 H 0.92345 0.29295 0.44473 0.0
H628 H 0.91172 0.25711 0.43332 0.0
H629 H 1.00424 0.19713 0.40105 0.0
H630 H 0.03217 0.21274 0.45186 0.0
H631 H 0.98026 0.291 0.45644 0.0
C632 C 0.91691 0.25613 0.34548 0.0
C633 C 0.91501 0.23396 0.32098 0.0
C634 C 0.93511 0.21071 0.32229 0.0
C635 C 0.95642 0.20925 0.34801 0.0
C636 C 0.95754 0.23138 0.37196 0.0
C637 C 0.93852 0.25456 0.37063 0.0
C638 C 0.94466 0.27589 0.39885 0.0
C639 C 0.95369 0.30544 0.38413 0.0
C640 C 0.91815 0.2786 0.42296 0.0
C641 C 0.97011 0.26112 0.41633 0.0
C642 C 0.97702 0.23529 0.40077 0.0
C643 C 0.99918 0.21744 0.41323 0.0
C644 C 1.01484 0.22641 0.44214 0.0
C645 C 1.00854 0.25316 0.45784 0.0
C646 C 0.98583 0.27061 0.44469 0.0
H647 H 0.69887 0.88672 0.38418 0.0
H648 H 0.7539 0.82613 0.43893 0.0
H649 H 0.75772 0.86053 0.48669 0.0
H650 H 0.7381 0.94894 0.40679 0.0
H651 H 0.70653 0.97203 0.41082 0.0
H652 H 0.70546 0.94154 0.38257 0.0
H653 H 0.65922 0.92226 0.41371 0.0
H654 H 0.66015 0.95273 0.44213 0.0
H655 H 0.66018 0.91653 0.4592 0.0
H656 H 0.75866 0.90219 0.52615 0.0
H657 H 0.75862 0.94968 0.55427 0.0
H658 H 0.70291 0.98425 0.47468 0.0
C659 C 0.71113 0.88045 0.40659 0.0
C660 C 0.72591 0.85362 0.40804 0.0
C661 C 0.7425 0.84656 0.43732 0.0
C662 C 0.7446 0.86587 0.46462 0.0
C663 C 0.73001 0.89223 0.46224 0.0
C664 C 0.71365 0.89963 0.43398 0.0
C665 C 0.70206 0.93026 0.43682 0.0
C666 C 0.71374 0.94931 0.40751 0.0
C667 C 0.6684 0.93044 0.43804 0.0
C668 C 0.71496 0.93913 0.47081 0.0
C669 C 0.73071 0.91663 0.48513 0.0
C670 C 0.74612 0.91981 0.51543 0.0
C671 C 0.74597 0.94683 0.53118 0.0
C672 C 0.73047 0.97032 0.51677 0.0
C673 C 0.71433 0.96637 0.48651 0.0
H674 H 0.2022 0.80855 0.34411 0.0
H675 H 0.1697 0.74805 0.26938 0.0
H676 H 0.1334 0.72958 0.31148 0.0
H677 H 0.19334 0.76365 0.41928 0.0
H678 H 0.18118 0.79303 0.44576 0.0
H679 H 0.20569 0.79993 0.41052 0.0
H680 H 0.16927 0.83732 0.3857 0.0
H681 H 0.14483 0.83077 0.42102 0.0
H682 H 0.13187 0.8267 0.37793 0.0
H683 H 0.10091 0.71746 0.36305 0.0
H684 H 0.07073 0.71777 0.41595 0.0
H685 H 0.12265 0.78878 0.45451 0.0
C686 C 0.18752 0.79128 0.33681 0.0
C687 C 0.18876 0.77951 0.30372 0.0
C688 C 0.16892 0.75733 0.29465 0.0
C689 C 0.14846 0.7466 0.31847 0.0
C690 C 0.14789 0.75859 0.35106 0.0
C691 C 0.16662 0.78081 0.35998 0.0
C692 C 0.16025 0.79153 0.39564 0.0
C693 C 0.18669 0.78674 0.41918 0.0
C694 C 0.15099 0.82347 0.39501 0.0
C695 C 0.13492 0.77201 0.40541 0.0
C696 C 0.12843 0.75271 0.37974 0.0
C697 C 0.1058 0.73253 0.38327 0.0
C698 C 0.08891 0.73268 0.41341 0.0
C699 C 0.09445 0.75326 0.43913 0.0
C700 C 0.118 0.7728 0.43516 0.0
H701 H 0.26722 0.17205 0.33429 0.0
H702 H 0.34999 0.21795 0.33597 0.0
H703 H 0.37006 0.18135 0.37571 0.0
H704 H 0.26621 0.15409 0.4221 0.0
H705 H 0.24954 0.11918 0.41622 0.0
H706 H 0.24273 0.14773 0.38601 0.0
H707 H 0.26096 0.11495 0.33692 0.0
H708 H 0.2679 0.0863 0.36705 0.0
H709 H 0.29688 0.09896 0.33942 0.0
H710 H 0.38052 0.13991 0.41682 0.0
H711 H 0.37919 0.09957 0.45851 0.0
H712 H 0.28902 0.08196 0.43058 0.0
C713 C 0.28972 0.17412 0.34257 0.0
C714 C 0.30713 0.19775 0.33185 0.0
C715 C 0.33625 0.20009 0.34397 0.0
C716 C 0.34787 0.1793 0.36636 0.0
C717 C 0.33005 0.15633 0.37658 0.0
C718 C 0.30152 0.15376 0.3652 0.0
C719 C 0.28629 0.12814 0.3816 0.0
C720 C 0.25962 0.13787 0.40274 0.0
C721 C 0.27749 0.10576 0.35464 0.0
C722 C 0.31057 0.11682 0.40422 0.0
C723 C 0.33579 0.1331 0.40072 0.0
C724 C 0.3609 0.12696 0.41965 0.0
C725 C 0.35999 0.10394 0.44318 0.0
C726 C 0.33404 0.08756 0.44786 0.0
C727 C 0.30924 0.09399 0.42765 0.0
H728 H 0.72956 0.74979 0.86973 0.0
H729 H 0.76939 0.83189 0.84344 0.0
H730 H 0.7326 0.85703 0.87967 0.0
H731 H 0.65716 0.77165 0.86659 0.0
H732 H 0.64505 0.74986 0.90215 0.0
H733 H 0.67607 0.73866 0.87711 0.0
H734 H 0.70833 0.73656 0.93136 0.0
H735 H 0.67724 0.74724 0.95673 0.0
H736 H 0.71076 0.76779 0.95848 0.0
H737 H 0.68684 0.87287 0.91448 0.0
H738 H 0.64127 0.87727 0.94891 0.0
H739 H 0.63389 0.78394 0.9521 0.0
C740 C 0.73096 0.77304 0.87216 0.0
C741 C 0.75229 0.78896 0.85396 0.0
C742 C 0.75341 0.81932 0.85761 0.0
C743 C 0.73246 0.83372 0.8779 0.0
C744 C 0.71098 0.81731 0.89463 0.0
C745 C 0.71061 0.78753 0.89241 0.0
C746 C 0.68514 0.77456 0.91187 0.0
C747 C 0.66466 0.7577 0.88799 0.0
C748 C 0.69602 0.75541 0.94136 0.0
C749 C 0.67066 0.80164 0.92492 0.0
C750 C 0.68564 0.8262 0.91478 0.0
C751 C 0.67525 0.85371 0.92287 0.0
C752 C 0.64925 0.85602 0.94222 0.0
C753 C 0.63408 0.83096 0.95338 0.0
C754 C 0.64506 0.80355 0.94433 0.0
H755 H 0.25591 0.70513 0.8266 0.0
H756 H 0.31828 0.76567 0.86926 0.0
H757 H 0.3232 0.73453 0.92024 0.0
H758 H 0.22091 0.68443 0.90975 0.0
H759 H 0.21622 0.64752 0.89645 0.0
H760 H 0.21518 0.67628 0.86535 0.0
H761 H 0.25626 0.65096 0.83098 0.0
H762 H 0.25779 0.62241 0.86217 0.0
H763 H 0.29044 0.64252 0.85164 0.0
H764 H 0.32728 0.693 0.96187 0.0
H765 H 0.32503 0.64745 0.99501 0.0
H766 H 0.25741 0.61541 0.9276 0.0
C767 C 0.26994 0.71227 0.84713 0.0
C768 C 0.28665 0.73791 0.84395 0.0
C769 C 0.30501 0.74633 0.87122 0.0
C770 C 0.30807 0.72867 0.90022 0.0
C771 C 0.29214 0.70297 0.90193 0.0
C772 C 0.27286 0.69515 0.87649 0.0
C773 C 0.25915 0.66591 0.88388 0.0
C774 C 0.22589 0.66871 0.88918 0.0
C775 C 0.26635 0.64418 0.85548 0.0
C776 C 0.27444 0.65803 0.91688 0.0
C777 C 0.2935 0.67965 0.92678 0.0
C778 C 0.31193 0.67625 0.9548 0.0
C779 C 0.31066 0.65024 0.97331 0.0
C780 C 0.29084 0.62811 0.96405 0.0
C781 C 0.27235 0.63223 0.93562 0.0
H782 H 0.3839 0.31361 0.84817 0.0
H783 H 0.32734 0.24025 0.86856 0.0
H784 H 0.35782 0.22744 0.91882 0.0
H785 H 0.45077 0.2815 0.86894 0.0
H786 H 0.46607 0.31309 0.88883 0.0
H787 H 0.43892 0.317 0.85598 0.0
H788 H 0.40634 0.34707 0.89678 0.0
H789 H 0.43351 0.34344 0.92975 0.0
H790 H 0.39626 0.33232 0.9378 0.0
H791 H 0.39822 0.22016 0.96288 0.0
H792 H 0.44178 0.22151 1.00033 0.0
H793 H 0.46918 0.30192 0.95292 0.0
C794 C 0.3778 0.29494 0.86338 0.0
C795 C 0.35352 0.27767 0.85448 0.0
C796 C 0.34589 0.25369 0.87513 0.0
C797 C 0.3631 0.24629 0.90358 0.0
C798 C 0.38732 0.26354 0.91129 0.0
C799 C 0.39426 0.28769 0.89209 0.0
C800 C 0.42134 0.30271 0.9054 0.0
C801 C 0.4457 0.30361 0.87817 0.0
C802 C 0.41391 0.33319 0.9182 0.0
C803 C 0.42922 0.28278 0.93459 0.0
C804 C 0.40944 0.26023 0.93756 0.0
C805 C 0.41349 0.238 0.96116 0.0
C806 C 0.43834 0.23887 0.9822 0.0
C807 C 0.45861 0.26199 0.97975 0.0
C808 C 0.45373 0.2843 0.95583 0.0
H809 H 0.81607 0.37603 0.87737 0.0
H810 H 0.7452 0.31595 0.89791 0.0
H811 H 0.7304 0.34514 0.94798 0.0
H812 H 0.83279 0.39198 0.96826 0.0
H813 H 0.84133 0.42912 0.95849 0.0
H814 H 0.84794 0.40151 0.92719 0.0
H815 H 0.81615 0.42988 0.88389 0.0
H816 H 0.8089 0.45723 0.91522 0.0
H817 H 0.77888 0.43883 0.89489 0.0
H818 H 0.71825 0.38615 0.98925 0.0
H819 H 0.71616 0.42983 0.02565 0.0
H820 H 0.79684 0.46081 0.97966 0.0
C821 C 0.79786 0.36862 0.89291 0.0
C822 C 0.78182 0.34374 0.88389 0.0
C823 C 0.75801 0.33477 0.90465 0.0
C824 C 0.74924 0.35141 0.93284 0.0
C825 C 0.7647 0.37668 0.94001 0.0
C826 C 0.78906 0.38473 0.92119 0.0
C827 C 0.80172 0.413 0.93358 0.0
C828 C 0.83279 0.40863 0.94773 0.0
C829 C 0.80137 0.43608 0.9052 0.0
C830 C 0.78019 0.42016 0.96166 0.0
C831 C 0.75879 0.39915 0.96489 0.0
C832 C 0.7353 0.40236 0.98747 0.0
C833 C 0.73411 0.42732 1.00777 0.0
C834 C 0.75647 0.44847 1.00562 0.0
C835 C 0.77969 0.44475 0.98219 0.0
H836 H 0.72314 0.26024 0.17493 0.0
H837 H 0.72755 0.16667 0.17196 0.0
H838 H 0.68188 0.16538 0.13882 0.0
H839 H 0.64444 0.2651 0.18442 0.0
H840 H 0.64109 0.29661 0.15758 0.0
H841 H 0.67437 0.29042 0.18106 0.0
H842 H 0.70436 0.29339 0.12495 0.0
H843 H 0.67118 0.29958 0.10129 0.0
H844 H 0.69496 0.2701 0.08992 0.0
H845 H 0.63564 0.1738 0.10664 0.0
H846 H 0.59203 0.19148 0.07627 0.0
H847 H 0.61682 0.2798 0.09948 0.0
C848 C 0.71442 0.23948 0.16748 0.0
C849 C 0.72917 0.21355 0.17601 0.0
C850 C 0.71707 0.18686 0.16538 0.0
C851 C 0.69097 0.18588 0.1467 0.0
C852 C 0.67708 0.21176 0.1387 0.0
C853 C 0.68834 0.2381 0.14864 0.0
C854 C 0.66904 0.2627 0.13636 0.0
C855 C 0.65649 0.27971 0.16666 0.0
C856 C 0.68589 0.28261 0.11166 0.0
C857 C 0.6452 0.24602 0.11803 0.0
C858 C 0.6503 0.21667 0.11983 0.0
C859 C 0.6314 0.19675 0.10502 0.0
C860 C 0.60664 0.20705 0.08782 0.0
C861 C 0.60089 0.23706 0.08539 0.0
C862 C 0.62054 0.25675 0.1008 0.0
H863 H 0.77859 0.68112 0.24091 0.0
H864 H 0.68881 0.67233 0.27585 0.0
H865 H 0.68009 0.63481 0.23236 0.0
H866 H 0.76476 0.67076 0.15103 0.0
H867 H 0.79766 0.65014 0.14394 0.0
H868 H 0.79659 0.67689 0.17713 0.0
H869 H 0.81184 0.63824 0.22162 0.0
H870 H 0.81311 0.61143 0.18854 0.0
H871 H 0.79054 0.6056 0.22577 0.0
H872 H 0.68098 0.5988 0.18414 0.0
H873 H 0.69256 0.56406 0.13837 0.0
H874 H 0.78243 0.59483 0.13648 0.0
C875 C 0.75708 0.67136 0.23924 0.0
C876 C 0.73435 0.67964 0.26173 0.0
C877 C 0.70659 0.66611 0.25912 0.0
C878 C 0.70139 0.64495 0.23432 0.0
C879 C 0.72425 0.63732 0.21249 0.0
C880 C 0.75165 0.6499 0.21495 0.0
C881 C 0.77278 0.63701 0.18929 0.0
C882 C 0.78358 0.66008 0.16384 0.0
C883 C 0.79859 0.62219 0.20739 0.0
C884 C 0.75303 0.61518 0.17209 0.0
C885 C 0.72502 0.61595 0.18554 0.0
C886 C 0.70287 0.59795 0.1735 0.0
C887 C 0.70963 0.57834 0.1474 0.0
C888 C 0.7384 0.57662 0.13388 0.0
C889 C 0.76025 0.5955 0.14635 0.0
H890 H 0.38209 0.81159 0.16686 0.0
H891 H 0.35524 0.90087 0.15438 0.0
H892 H 0.39881 0.91008 0.11854 0.0
H893 H 0.45974 0.82574 0.17286 0.0
H894 H 0.46988 0.79377 0.14963 0.0
H895 H 0.43648 0.79426 0.17422 0.0
H896 H 0.40698 0.78001 0.12052 0.0
H897 H 0.44027 0.77949 0.09576 0.0
H898 H 0.41003 0.80178 0.08242 0.0
H899 H 0.44579 0.90945 0.0834 0.0
H900 H 0.49165 0.89876 0.05202 0.0
H901 H 0.48791 0.81023 0.08862 0.0
C902 C 0.38541 0.83318 0.15695 0.0
C903 C 0.36498 0.85546 0.1636 0.0
C904 C 0.37019 0.88327 0.14945 0.0
C905 C 0.39505 0.88879 0.12917 0.0
C906 C 0.41467 0.86633 0.12317 0.0
C907 C 0.41011 0.83908 0.13669 0.0
C908 C 0.43437 0.81859 0.12623 0.0
C909 C 0.45111 0.80744 0.1576 0.0
C910 C 0.42218 0.79349 0.10496 0.0
C911 C 0.45329 0.83855 0.1047 0.0
C912 C 0.4416 0.86601 0.10321 0.0
C913 C 0.45515 0.88802 0.08448 0.0
C914 C 0.48122 0.88175 0.06673 0.0
C915 C 0.49354 0.85369 0.06783 0.0
C916 C 0.47925 0.83196 0.08727 0.0
H917 H 0.2915 0.3775 0.1765 0.0
H918 H 0.19681 0.36809 0.17581 0.0
H919 H 0.19301 0.41002 0.13727 0.0
H920 H 0.29231 0.45492 0.17805 0.0
H921 H 0.32406 0.45812 0.15081 0.0
H922 H 0.31945 0.42667 0.17749 0.0
H923 H 0.32385 0.39377 0.12447 0.0
H924 H 0.32849 0.4251 0.09762 0.0
H925 H 0.29975 0.39951 0.08875 0.0
H926 H 0.19937 0.45389 0.09943 0.0
H927 H 0.21557 0.49589 0.06513 0.0
H928 H 0.30595 0.47727 0.09144 0.0
C929 C 0.26991 0.38424 0.16846 0.0
C930 C 0.24447 0.36919 0.17934 0.0
C931 C 0.21673 0.37877 0.16763 0.0
C932 C 0.2143 0.40277 0.14582 0.0
C933 C 0.23978 0.41711 0.13583 0.0
C934 C 0.26707 0.40819 0.14674 0.0
C935 C 0.29103 0.42756 0.13255 0.0
C936 C 0.30768 0.44272 0.16145 0.0
C937 C 0.31201 0.41046 0.10947 0.0
C938 C 0.27294 0.44885 0.11206 0.0
C939 C 0.24343 0.44242 0.11423 0.0
C940 C 0.22244 0.4591 0.09753 0.0
C941 C 0.23186 0.48295 0.0781 0.0
C942 C 0.26203 0.48998 0.07552 0.0
C943 C 0.28272 0.47257 0.09283 0.0
H944 H 0.3697 0.26125 0.20603 0.0
H945 H 0.36997 0.34867 0.24503 0.0
H946 H 0.41587 0.35868 0.21273 0.0
H947 H 0.44952 0.25054 0.20655 0.0
H948 H 0.44853 0.22964 0.16791 0.0
H949 H 0.41764 0.22919 0.19666 0.0
H950 H 0.38363 0.24507 0.14719 0.0
H951 H 0.41437 0.24575 0.11839 0.0
H952 H 0.39209 0.27753 0.12357 0.0
H953 H 0.45927 0.35991 0.17026 0.0
H954 H 0.49645 0.35161 0.12507 0.0
H955 H 0.46708 0.26282 0.1165 0.0
C956 C 0.37963 0.28241 0.2083 0.0
C957 C 0.36631 0.3042 0.22804 0.0
C958 C 0.37999 0.33158 0.23029 0.0
C959 C 0.40598 0.33745 0.21193 0.0
C960 C 0.41813 0.31555 0.19195 0.0
C961 C 0.40549 0.28845 0.19054 0.0
C962 C 0.42178 0.26883 0.16632 0.0
C963 C 0.43516 0.24303 0.18552 0.0
C964 C 0.40177 0.25872 0.13715 0.0
C965 C 0.44525 0.28922 0.1535 0.0
C966 C 0.443 0.31608 0.16851 0.0
C967 C 0.46144 0.3388 0.15882 0.0
C968 C 0.48248 0.33391 0.13308 0.0
C969 C 0.48492 0.3065 0.11737 0.0
C970 C 0.46619 0.28393 0.12822 0.0
H971 H 0.84817 0.3346 0.2005 0.0
H972 H 0.76906 0.33386 0.26223 0.0
H973 H 0.75766 0.38335 0.24237 0.0
H974 H 0.86592 0.41206 0.21209 0.0
H975 H 0.87902 0.41575 0.16886 0.0
H976 H 0.88249 0.38169 0.19089 0.0
H977 H 0.8546 0.35624 0.142 0.0
H978 H 0.85103 0.39014 0.11989 0.0
H979 H 0.81884 0.36913 0.12993 0.0
H980 H 0.75174 0.42997 0.20992 0.0
H981 H 0.75264 0.47088 0.16924 0.0
H982 H 0.83676 0.44216 0.13064 0.0
C983 C 0.8287 0.345 0.21037 0.0
C984 C 0.80949 0.33036 0.23295 0.0
C985 C 0.78417 0.34471 0.24509 0.0
C986 C 0.77754 0.37282 0.23395 0.0
C987 C 0.79668 0.38639 0.2111 0.0
C988 C 0.82192 0.37306 0.19976 0.0
C989 C 0.83799 0.39155 0.17374 0.0
C990 C 0.86814 0.40081 0.18721 0.0
C991 C 0.84076 0.37583 0.13937 0.0
C992 C 0.81735 0.41702 0.1713 0.0
C993 C 0.79371 0.41369 0.19319 0.0
C994 C 0.77043 0.43311 0.19325 0.0
C995 C 0.7711 0.45622 0.17002 0.0
C996 C 0.79498 0.45987 0.14723 0.0
C997 C 0.81865 0.44033 0.14844 0.0
H998 H 0.72343 0.78004 0.21432 0.0
H999 H 0.73234 0.87275 0.22662 0.0
H1000 H 0.69598 0.88046 0.18099 0.0
H1001 H 0.71235 0.78039 0.12121 0.0
H1002 H 0.68583 0.75155 0.12314 0.0
H1003 H 0.71462 0.75342 0.15439 0.0
H1004 H 0.67577 0.75267 0.20262 0.0
H1005 H 0.64681 0.75125 0.1716 0.0
H1006 H 0.64727 0.77958 0.20297 0.0
H1007 H 0.65649 0.87819 0.13718 0.0
H1008 H 0.61802 0.86648 0.09572 0.0
H1009 H 0.63351 0.77497 0.1122 0.0
C1010 C 0.71831 0.802 0.20688 0.0
C1011 C 0.73098 0.82586 0.22392 0.0
C1012 C 0.72312 0.85418 0.21384 0.0
C1013 C 0.70241 0.85876 0.188 0.0
C1014 C 0.68971 0.83479 0.17251 0.0
C1015 C 0.6975 0.80696 0.18132 0.0
C1016 C 0.67949 0.78498 0.16178 0.0
C1017 C 0.69926 0.7665 0.13876 0.0
C1018 C 0.66126 0.76601 0.18621 0.0
C1019 C 0.66009 0.80483 0.14089 0.0
C1020 C 0.6665 0.83346 0.14745 0.0
C1021 C 0.65141 0.85587 0.13167 0.0
C1022 C 0.62949 0.84893 0.10818 0.0
C1023 C 0.62263 0.81977 0.1006 0.0
C1024 C 0.63808 0.79745 0.11749 0.0
H1025 H 0.26947 0.72535 0.17511 0.0
H1026 H 0.35015 0.72346 0.23304 0.0
H1027 H 0.36293 0.67646 0.20643 0.0
H1028 H 0.25455 0.64741 0.17878 0.0
H1029 H 0.23978 0.64731 0.13621 0.0
H1030 H 0.23645 0.67907 0.16228 0.0
H1031 H 0.26171 0.70951 0.11488 0.0
H1032 H 0.26527 0.67789 0.08879 0.0
H1033 H 0.29728 0.69882 0.09931 0.0
H1034 H 0.36881 0.63227 0.16741 0.0
H1035 H 0.36585 0.5942 0.12328 0.0
H1036 H 0.27997 0.62557 0.09406 0.0
C1037 C 0.28967 0.71488 0.18261 0.0
C1038 C 0.30893 0.72796 0.20595 0.0
C1039 C 0.33506 0.7136 0.21529 0.0
C1040 C 0.34246 0.687 0.20025 0.0
C1041 C 0.32317 0.67502 0.17657 0.0
C1042 C 0.29708 0.68841 0.16832 0.0
C1043 C 0.28043 0.67204 0.14139 0.0
C1044 C 0.25107 0.66078 0.15552 0.0
C1045 C 0.27593 0.69068 0.1092 0.0
C1046 C 0.30153 0.64764 0.13486 0.0
C1047 C 0.32608 0.64954 0.15531 0.0
C1048 C 0.34943 0.63034 0.15176 0.0
C1049 C 0.3476 0.60885 0.12659 0.0
C1050 C 0.32255 0.60673 0.10546 0.0
C1051 C 0.29919 0.62623 0.11015 0.0
H1052 H 0.44694 0.78784 0.80589 0.0
H1053 H 0.39253 0.71907 0.84596 0.0
H1054 H 0.42532 0.71438 0.89609 0.0
H1055 H 0.5185 0.76184 0.83742 0.0
H1056 H 0.53071 0.79765 0.84824 0.0
H1057 H 0.50553 0.79255 0.81347 0.0
H1058 H 0.46916 0.82819 0.84168 0.0
H1059 H 0.49417 0.83335 0.8765 0.0
H1060 H 0.45712 0.82172 0.8849 0.0
H1061 H 0.4633 0.71884 0.94302 0.0
H1062 H 0.49978 0.73526 0.98544 0.0
H1063 H 0.52656 0.80404 0.91666 0.0
C1064 C 0.44258 0.7713 0.82484 0.0
C1065 C 0.41785 0.75322 0.82191 0.0
C1066 C 0.41181 0.73262 0.84772 0.0
C1067 C 0.4303 0.72985 0.87613 0.0
C1068 C 0.45444 0.74824 0.87857 0.0
C1069 C 0.46042 0.76879 0.85375 0.0
C1070 C 0.48573 0.78799 0.86417 0.0
C1071 C 0.51166 0.78481 0.83935 0.0
C1072 C 0.47595 0.81968 0.86699 0.0
C1073 C 0.49285 0.77531 0.89885 0.0
C1074 C 0.47501 0.75201 0.90644 0.0
C1075 C 0.47742 0.73702 0.93728 0.0
C1076 C 0.49825 0.74642 0.96118 0.0
C1077 C 0.51592 0.77093 0.95438 0.0
C1078 C 0.5133 0.78526 0.92261 0.0
H1079 H 0.29463 0.43088 0.81316 0.0
H1080 H 0.36733 0.3756 0.84024 0.0
H1081 H 0.38167 0.40967 0.88583 0.0
H1082 H 0.329 0.5014 0.83334 0.0
H1083 H 0.29561 0.51553 0.85133 0.0
H1084 H 0.29404 0.4893 0.81757 0.0
H1085 H 0.26145 0.45629 0.8555 0.0
H1086 H 0.26299 0.48232 0.88933 0.0
H1087 H 0.2743 0.44562 0.89711 0.0
H1088 H 0.38611 0.44833 0.93051 0.0
H1089 H 0.37781 0.4859 0.97412 0.0
H1090 H 0.29983 0.51382 0.92036 0.0
C1091 C 0.31406 0.42658 0.8281 0.0
C1092 C 0.33037 0.40116 0.82296 0.0
C1093 C 0.35495 0.39531 0.84373 0.0
C1094 C 0.36324 0.41453 0.8695 0.0
C1095 C 0.34642 0.43929 0.87439 0.0
C1096 C 0.32218 0.44523 0.85443 0.0
C1097 C 0.30581 0.47139 0.86745 0.0
C1098 C 0.30615 0.49586 0.84083 0.0
C1099 C 0.27428 0.46341 0.87798 0.0
C1100 C 0.32431 0.47895 0.89812 0.0
C1101 C 0.34798 0.46058 0.90129 0.0
C1102 C 0.36775 0.46295 0.92818 0.0
C1103 C 0.3629 0.48437 0.95278 0.0
C1104 C 0.33817 0.5027 0.95063 0.0
C1105 C 0.31892 0.5001 0.92267 0.0
H1106 H 0.68461 0.3538 0.85075 0.0
H1107 H 0.64703 0.29478 0.77741 0.0
H1108 H 0.60606 0.28479 0.817 0.0
H1109 H 0.6713 0.31344 0.92217 0.0
H1110 H 0.66184 0.34276 0.95023 0.0
H1111 H 0.68538 0.34922 0.91411 0.0
H1112 H 0.65082 0.38904 0.89203 0.0
H1113 H 0.62713 0.38318 0.9283 0.0
H1114 H 0.61256 0.38101 0.88571 0.0
H1115 H 0.57436 0.27481 0.868 0.0
H1116 H 0.55052 0.26989 0.92437 0.0
H1117 H 0.60693 0.33698 0.96448 0.0
C1118 C 0.66721 0.33951 0.84266 0.0
C1119 C 0.6689 0.32526 0.81085 0.0
C1120 C 0.64596 0.30637 0.80127 0.0
C1121 C 0.62269 0.3004 0.82375 0.0
C1122 C 0.62237 0.31388 0.85549 0.0
C1123 C 0.64365 0.33359 0.86466 0.0
C1124 C 0.63915 0.34378 0.90105 0.0
C1125 C 0.666 0.33685 0.92321 0.0
C1126 C 0.63198 0.37618 0.9018 0.0
C1127 C 0.6128 0.32575 0.91145 0.0
C1128 C 0.60344 0.30872 0.88471 0.0
C1129 C 0.58106 0.2885 0.88885 0.0
C1130 C 0.56781 0.28571 0.92103 0.0
C1131 C 0.57672 0.30321 0.94866 0.0
C1132 C 0.59933 0.3237 0.94363 0.0
H1133 H 0.76531 0.64262 0.85605 0.0
H1134 H 0.85572 0.67132 0.85825 0.0
H1135 H 0.86466 0.64063 0.90886 0.0
H1136 H 0.75453 0.64226 0.94598 0.0
H1137 H 0.73156 0.61057 0.94657 0.0
H1138 H 0.73264 0.63339 0.90928 0.0
H1139 H 0.74704 0.58955 0.87203 0.0
H1140 H 0.74584 0.56654 0.90919 0.0
H1141 H 0.7786 0.56826 0.88344 0.0
H1142 H 0.86352 0.60769 0.95992 0.0
H1143 H 0.85229 0.57526 1.00837 0.0
H1144 H 0.76218 0.56867 0.97401 0.0
C1145 C 0.78709 0.64202 0.86687 0.0
C1146 C 0.8099 0.65926 0.85315 0.0
C1147 C 0.83794 0.65841 0.86848 0.0
C1148 C 0.84323 0.64097 0.89714 0.0
C1149 C 0.8202 0.62456 0.91033 0.0
C1150 C 0.79267 0.62492 0.89575 0.0
C1151 C 0.77145 0.60612 0.91581 0.0
C1152 C 0.74605 0.62417 0.93027 0.0
C1153 C 0.76007 0.58113 0.8938 0.0
C1154 C 0.79133 0.59523 0.94398 0.0
C1155 C 0.8194 0.606 0.94021 0.0
C1156 C 0.84162 0.59908 0.96311 0.0
C1157 C 0.83501 0.58064 0.99059 0.0
C1158 C 0.80635 0.56942 0.99514 0.0
C1159 C 0.78429 0.57692 0.97139 0.0
loop_
_geom_bond_atom_site_label_1
_geom_bond_atom_site_label_2
_geom_bond_distance
_geom_bond_site_symmetry_2
_ccdc_geom_bond_type
Cu0 N1 1.999 . S
Cu0 O6 1.974 . S
Cu0 N11 1.985 . S
Cu0 O20 1.959 . S
N1 Cu0 1.999 . S
N1 C3 1.263 . S
N1 C5 1.389 . S
N2 C3 1.358 . S
N2 C4 1.400 . S
C3 N1 1.263 . S
C3 N2 1.358 . S
C3 H9 0.930 . S
C4 N2 1.400 . S
C4 C5 1.351 . S
C4 H21 0.930 . S
C5 N1 1.389 . S
C5 C4 1.351 . S
C5 H10 0.930 . S
O6 Cu0 1.974 . S
O6 C16 1.282 . S
C7 O8 1.261 . S
C7 O20 1.251 . S
O8 C7 1.261 . S
H9 C3 0.930 . S
H10 C5 0.930 . S
N11 Cu0 1.985 . S
N11 C13 1.335 . S
N11 C14 1.390 . S
N12 C13 1.345 . S
N12 C15 1.336 . S
C13 N11 1.335 . S
C13 N12 1.345 . S
C13 H18 0.930 . S
C14 N11 1.390 . S
C14 C15 1.346 . S
C14 H19 0.930 . S
C15 N12 1.336 . S
C15 C14 1.346 . S
C15 H22 0.929 . S
C16 O6 1.282 . S
C16 O17 1.216 . S
O17 C16 1.216 . S
H18 C13 0.930 . S
H19 C14 0.930 . S
O20 Cu0 1.959 . S
O20 C7 1.251 . S
H21 C4 0.930 . S
H22 C15 0.929 . S
Cu23 N24 1.999 . S
Cu23 O29 1.974 . S
Cu23 N34 1.985 . S
Cu23 O43 1.959 . S
N24 Cu23 1.999 . S
N24 C26 1.263 . S
N24 C28 1.389 . S
N25 C26 1.358 . S
N25 C27 1.400 . S
C26 N24 1.263 . S
C26 N25 1.358 . S
C26 H32 0.930 . S
C27 N25 1.400 . S
C27 C28 1.351 . S
C27 H44 0.930 . S
C28 N24 1.389 . S
C28 C27 1.351 . S
C28 H33 0.930 . S
O29 Cu23 1.974 . S
O29 C39 1.282 . S
C30 O31 1.261 . S
C30 O43 1.251 . S
O31 C30 1.261 . S
H32 C26 0.930 . S
H33 C28 0.930 . S
N34 Cu23 1.985 . S
N34 C36 1.335 . S
N34 C37 1.390 . S
N35 C36 1.345 . S
N35 C38 1.336 . S
C36 N34 1.335 . S
C36 N35 1.345 . S
C36 H41 0.930 . S
C37 N34 1.390 . S
C37 C38 1.346 . S
C37 H42 0.930 . S
C38 N35 1.336 . S
C38 C37 1.346 . S
C38 H45 0.929 . S
C39 O29 1.282 . S
C39 O40 1.216 . S
O40 C39 1.216 . S
H41 C36 0.930 . S
H42 C37 0.930 . S
O43 Cu23 1.959 . S
O43 C30 1.251 . S
H44 C27 0.930 . S
H45 C38 0.929 . S
Cu46 N47 1.999 . S
Cu46 O52 1.974 . S
Cu46 N57 1.985 . S
Cu46 O66 1.959 . S
N47 Cu46 1.999 . S
N47 C49 1.263 . S
N47 C51 1.389 . S
N48 C49 1.358 . S
N48 C50 1.400 . S
C49 N47 1.263 . S
C49 N48 1.358 . S
C49 H55 0.930 . S
C50 N48 1.400 . S
C50 C51 1.351 . S
C50 H67 0.930 . S
C51 N47 1.389 . S
C51 C50 1.351 . S
C51 H56 0.930 . S
O52 Cu46 1.974 . S
O52 C62 1.282 . S
C53 O54 1.261 . S
C53 O66 1.251 . S
O54 C53 1.261 . S
H55 C49 0.930 . S
H56 C51 0.930 . S
N57 Cu46 1.985 . S
N57 C59 1.335 . S
N57 C60 1.390 . S
N58 C59 1.345 . S
N58 C61 1.336 . S
C59 N57 1.335 . S
C59 N58 1.345 . S
C59 H64 0.930 . S
C60 N57 1.390 . S
C60 C61 1.346 . S
C60 H65 0.930 . S
C61 N58 1.336 . S
C61 C60 1.346 . S
C61 H68 0.929 . S
C62 O52 1.282 . S
C62 O63 1.216 . S
O63 C62 1.216 . S
H64 C59 0.930 . S
H65 C60 0.930 . S
O66 Cu46 1.959 . S
O66 C53 1.251 . S
H67 C50 0.930 . S
H68 C61 0.929 . S
Cu69 N70 1.999 . S
Cu69 O75 1.974 . S
Cu69 N80 1.985 . S
Cu69 O89 1.959 . S
N70 Cu69 1.999 . S
N70 C72 1.263 . S
N70 C74 1.389 . S
N71 C72 1.358 . S
N71 C73 1.400 . S
C72 N70 1.263 . S
C72 N71 1.358 . S
C72 H78 0.930 . S
C73 N71 1.400 . S
C73 C74 1.351 . S
C73 H90 0.930 . S
C74 N70 1.389 . S
C74 C73 1.351 . S
C74 H79 0.930 . S
O75 Cu69 1.974 . S
O75 C85 1.282 . S
C76 O77 1.261 . S
C76 O89 1.251 . S
O77 C76 1.261 . S
H78 C72 0.930 . S
H79 C74 0.930 . S
N80 Cu69 1.985 . S
N80 C82 1.335 . S
N80 C83 1.390 . S
N81 C82 1.345 . S
N81 C84 1.336 . S
C82 N80 1.335 . S
C82 N81 1.345 . S
C82 H87 0.930 . S
C83 N80 1.390 . S
C83 C84 1.346 . S
C83 H88 0.930 . S
C84 N81 1.336 . S
C84 C83 1.346 . S
C84 H91 0.929 . S
C85 O75 1.282 . S
C85 O86 1.216 . S
O86 C85 1.216 . S
H87 C82 0.930 . S
H88 C83 0.930 . S
O89 Cu69 1.959 . S
O89 C76 1.251 . S
H90 C73 0.930 . S
H91 C84 0.929 . S
Cu92 N93 1.999 . S
Cu92 O98 1.974 . S
Cu92 N103 1.985 . S
Cu92 O112 1.959 . S
N93 Cu92 1.999 . S
N93 C95 1.263 . S
N93 C97 1.389 . S
N94 C95 1.358 . S
N94 C96 1.400 . S
C95 N93 1.263 . S
C95 N94 1.358 . S
C95 H101 0.930 . S
C96 N94 1.400 . S
C96 C97 1.351 . S
C96 H113 0.930 . S
C97 N93 1.389 . S
C97 C96 1.351 . S
C97 H102 0.930 . S
O98 Cu92 1.974 . S
O98 C108 1.282 . S
C99 O100 1.261 . S
C99 O112 1.251 . S
O100 C99 1.261 . S
H101 C95 0.930 . S
H102 C97 0.930 . S
N103 Cu92 1.985 . S
N103 C105 1.335 . S
N103 C106 1.390 . S
N104 C105 1.345 . S
N104 C107 1.336 . S
C105 N103 1.335 . S
C105 N104 1.345 . S
C105 H110 0.930 . S
C106 N103 1.390 . S
C106 C107 1.346 . S
C106 H111 0.930 . S
C107 N104 1.336 . S
C107 C106 1.346 . S
C107 H114 0.929 . S
C108 O98 1.282 . S
C108 O109 1.216 . S
O109 C108 1.216 . S
H110 C105 0.930 . S
H111 C106 0.930 . S
O112 Cu92 1.959 . S
O112 C99 1.251 . S
H113 C96 0.930 . S
H114 C107 0.929 . S
Cu115 N116 1.999 . S
Cu115 O121 1.974 . S
Cu115 N126 1.985 . S
Cu115 O135 1.959 . S
N116 Cu115 1.999 . S
N116 C118 1.263 . S
N116 C120 1.389 . S
N117 C118 1.358 . S
N117 C119 1.400 . S
C118 N116 1.263 . S
C118 N117 1.358 . S
C118 H124 0.930 . S
C119 N117 1.400 . S
C119 C120 1.351 . S
C119 H136 0.930 . S
C120 N116 1.389 . S
C120 C119 1.351 . S
C120 H125 0.930 . S
O121 Cu115 1.974 . S
O121 C131 1.282 . S
C122 O123 1.261 . S
C122 O135 1.251 . S
O123 C122 1.261 . S
H124 C118 0.930 . S
H125 C120 0.930 . S
N126 Cu115 1.985 . S
N126 C128 1.335 . S
N126 C129 1.390 . S
N127 C128 1.345 . S
N127 C130 1.336 . S
C128 N126 1.335 . S
C128 N127 1.345 . S
C128 H133 0.930 . S
C129 N126 1.390 . S
C129 C130 1.346 . S
C129 H134 0.930 . S
C130 N127 1.336 . S
C130 C129 1.346 . S
C130 H137 0.929 . S
C131 O121 1.282 . S
C131 O132 1.216 . S
O132 C131 1.216 . S
H133 C128 0.930 . S
H134 C129 0.930 . S
O135 Cu115 1.959 . S
O135 C122 1.251 . S
H136 C119 0.930 . S
H137 C130 0.929 . S
Cu138 N139 1.999 . S
Cu138 O144 1.974 . S
Cu138 N149 1.985 . S
Cu138 O158 1.959 . S
N139 Cu138 1.999 . S
N139 C141 1.263 . S
N139 C143 1.389 . S
N140 C141 1.358 . S
N140 C142 1.400 . S
C141 N139 1.263 . S
C141 N140 1.358 . S
C141 H147 0.930 . S
C142 N140 1.400 . S
C142 C143 1.351 . S
C142 H159 0.930 . S
C143 N139 1.389 . S
C143 C142 1.351 . S
C143 H148 0.930 . S
O144 Cu138 1.974 . S
O144 C154 1.282 . S
C145 O146 1.261 . S
C145 O158 1.251 . S
O146 C145 1.261 . S
H147 C141 0.930 . S
H148 C143 0.930 . S
N149 Cu138 1.985 . S
N149 C151 1.335 . S
N149 C152 1.390 . S
N150 C151 1.345 . S
N150 C153 1.336 . S
C151 N149 1.335 . S
C151 N150 1.345 . S
C151 H156 0.930 . S
C152 N149 1.390 . S
C152 C153 1.346 . S
C152 H157 0.930 . S
C153 N150 1.336 . S
C153 C152 1.346 . S
C153 H160 0.929 . S
C154 O144 1.282 . S
C154 O155 1.216 . S
O155 C154 1.216 . S
H156 C151 0.930 . S
H157 C152 0.930 . S
O158 Cu138 1.959 . S
O158 C145 1.251 . S
H159 C142 0.930 . S
H160 C153 0.929 . S
Cu161 N162 1.999 . S
Cu161 O167 1.974 . S
Cu161 N172 1.985 . S
Cu161 O181 1.959 . S
N162 Cu161 1.999 . S
N162 C164 1.263 . S
N162 C166 1.389 . S
N163 C164 1.358 . S
N163 C165 1.400 . S
C164 N162 1.263 . S
C164 N163 1.358 . S
C164 H170 0.930 . S
C165 N163 1.400 . S
C165 C166 1.351 . S
C165 H182 0.930 . S
C166 N162 1.389 . S
C166 C165 1.351 . S
C166 H171 0.930 . S
O167 Cu161 1.974 . S
O167 C177 1.282 . S
C168 O169 1.261 . S
C168 O181 1.251 . S
O169 C168 1.261 . S
H170 C164 0.930 . S
H171 C166 0.930 . S
N172 Cu161 1.985 . S
N172 C174 1.335 . S
N172 C175 1.390 . S
N173 C174 1.345 . S
N173 C176 1.336 . S
C174 N172 1.335 . S
C174 N173 1.345 . S
C174 H179 0.930 . S
C175 N172 1.390 . S
C175 C176 1.346 . S
C175 H180 0.930 . S
C176 N173 1.336 . S
C176 C175 1.346 . S
C176 H183 0.929 . S
C177 O167 1.282 . S
C177 O178 1.216 . S
O178 C177 1.216 . S
H179 C174 0.930 . S
H180 C175 0.930 . S
O181 Cu161 1.959 . S
O181 C168 1.251 . S
H182 C165 0.930 . S
H183 C176 0.929 . S
C184 O186 1.247 . S
C184 O188 1.258 . S
C185 O192 1.247 . S
C185 O193 1.258 . S
O186 C184 1.247 . S
O186 Zn187 2.028 . S
Zn187 O186 2.028 . S
Zn187 O191 2.035 . S
Zn187 O193 2.035 . S
Zn187 O194 2.028 . S
O188 C184 1.258 . S
O188 Zn189 2.035 . S
Zn189 O188 2.035 . S
Zn189 O190 2.028 . S
Zn189 O192 2.028 . S
Zn189 O195 2.035 . S
O190 Zn189 2.028 . S
O190 C196 1.247 . S
O191 Zn187 2.035 . S
O191 C196 1.258 . S
O192 C185 1.247 . S
O192 Zn189 2.028 . S
O193 C185 1.258 . S
O193 Zn187 2.035 . S
O194 Zn187 2.028 . S
O194 C197 1.247 . S
O195 Zn189 2.035 . S
O195 C197 1.258 . S
C196 O190 1.247 . S
C196 O191 1.258 . S
C197 O194 1.247 . S
C197 O195 1.258 . S
C198 O200 1.247 . S
C198 O202 1.258 . S
C199 O206 1.247 . S
C199 O207 1.258 . S
O200 C198 1.247 . S
O200 Zn201 2.028 . S
Zn201 O200 2.028 . S
Zn201 O205 2.035 . S
Zn201 O207 2.035 . S
Zn201 O208 2.028 . S
O202 C198 1.258 . S
O202 Zn203 2.035 . S
Zn203 O202 2.035 . S
Zn203 O204 2.028 . S
Zn203 O206 2.028 . S
Zn203 O209 2.035 . S
O204 Zn203 2.028 . S
O204 C210 1.247 . S
O205 Zn201 2.035 . S
O205 C210 1.258 . S
O206 C199 1.247 . S
O206 Zn203 2.028 . S
O207 C199 1.258 . S
O207 Zn201 2.035 . S
O208 Zn201 2.028 . S
O208 C211 1.247 . S
O209 Zn203 2.035 . S
O209 C211 1.258 . S
C210 O204 1.247 . S
C210 O205 1.258 . S
C211 O208 1.247 . S
C211 O209 1.258 . S
C212 O214 1.247 . S
C212 O216 1.258 . S
C213 O220 1.247 . S
C213 O221 1.258 . S
O214 C212 1.247 . S
O214 Zn215 2.028 1_655 S
Zn215 O214 2.028 1_455 S
Zn215 O219 2.035 . S
Zn215 O221 2.035 . S
Zn215 O222 2.028 1_455 S
O216 C212 1.258 . S
O216 Zn217 2.035 1_655 S
Zn217 O216 2.035 1_455 S
Zn217 O218 2.028 . S
Zn217 O220 2.028 . S
Zn217 O223 2.035 1_455 S
O218 Zn217 2.028 . S
O218 C224 1.247 . S
O219 Zn215 2.035 . S
O219 C224 1.258 . S
O220 C213 1.247 . S
O220 Zn217 2.028 . S
O221 C213 1.258 . S
O221 Zn215 2.035 . S
O222 Zn215 2.028 1_655 S
O222 C225 1.247 . S
O223 Zn217 2.035 1_655 S
O223 C225 1.258 . S
C224 O218 1.247 . S
C224 O219 1.258 . S
C225 O222 1.247 . S
C225 O223 1.258 . S
C226 O228 1.247 . S
C226 O230 1.258 . S
C227 O234 1.247 . S
C227 O235 1.258 . S
O228 C226 1.247 . S
O228 Zn229 2.028 . S
Zn229 O228 2.028 . S
Zn229 O233 2.035 1_545 S
Zn229 O235 2.035 1_545 S
Zn229 O236 2.028 . S
O230 C226 1.258 . S
O230 Zn231 2.035 . S
Zn231 O230 2.035 . S
Zn231 O232 2.028 1_545 S
Zn231 O234 2.028 1_545 S
Zn231 O237 2.035 . S
O232 Zn231 2.028 1_565 S
O232 C238 1.247 . S
O233 Zn229 2.035 1_565 S
O233 C238 1.258 . S
O234 C227 1.247 . S
O234 Zn231 2.028 1_565 S
O235 C227 1.258 . S
O235 Zn229 2.035 1_565 S
O236 Zn229 2.028 . S
O236 C239 1.247 . S
O237 Zn231 2.035 . S
O237 C239 1.258 . S
C238 O232 1.247 . S
C238 O233 1.258 . S
C239 O236 1.247 . S
C239 O237 1.258 . S
C240 O242 1.247 . S
C240 O244 1.258 . S
C241 O248 1.247 . S
C241 O249 1.258 . S
O242 C240 1.247 . S
O242 Zn243 2.028 . S
Zn243 O242 2.028 . S
Zn243 O247 2.035 . S
Zn243 O249 2.035 1_554 S
Zn243 O250 2.028 1_554 S
O244 C240 1.258 . S
O244 Zn245 2.035 . S
Zn245 O244 2.035 . S
Zn245 O246 2.028 . S
Zn245 O248 2.028 1_554 S
Zn245 O251 2.035 1_554 S
O246 Zn245 2.028 . S
O246 C252 1.247 . S
O247 Zn243 2.035 . S
O247 C252 1.258 . S
O248 C241 1.247 . S
O248 Zn245 2.028 1_556 S
O249 C241 1.258 . S
O249 Zn243 2.035 1_556 S
O250 Zn243 2.028 1_556 S
O250 C253 1.247 . S
O251 Zn245 2.035 1_556 S
O251 C253 1.258 . S
C252 O246 1.247 . S
C252 O247 1.258 . S
C253 O250 1.247 . S
C253 O251 1.258 . S
C254 O256 1.247 . S
C254 O258 1.258 . S
C255 O262 1.247 . S
C255 O263 1.258 . S
O256 C254 1.247 . S
O256 Zn257 2.028 . S
Zn257 O256 2.028 . S
Zn257 O261 2.035 . S
Zn257 O263 2.035 1_554 S
Zn257 O264 2.028 1_554 S
O258 C254 1.258 . S
O258 Zn259 2.035 . S
Zn259 O258 2.035 . S
Zn259 O260 2.028 . S
Zn259 O262 2.028 1_554 S
Zn259 O265 2.035 1_554 S
O260 Zn259 2.028 . S
O260 C266 1.247 . S
O261 Zn257 2.035 . S
O261 C266 1.258 . S
O262 C255 1.247 . S
O262 Zn259 2.028 1_556 S
O263 C255 1.258 . S
O263 Zn257 2.035 1_556 S
O264 Zn257 2.028 1_556 S
O264 C267 1.247 . S
O265 Zn259 2.035 1_556 S
O265 C267 1.258 . S
C266 O260 1.247 . S
C266 O261 1.258 . S
C267 O264 1.247 . S
C267 O265 1.258 . S
C268 O270 1.247 . S
C268 O272 1.258 . S
C269 O276 1.247 . S
C269 O277 1.258 . S
O270 C268 1.247 . S
O270 Zn271 2.028 1_556 S
Zn271 O270 2.028 1_554 S
Zn271 O275 2.035 1_554 S
Zn271 O277 2.035 . S
Zn271 O278 2.028 . S
O272 C268 1.258 . S
O272 Zn273 2.035 1_556 S
Zn273 O272 2.035 1_554 S
Zn273 O274 2.028 1_554 S
Zn273 O276 2.028 . S
Zn273 O279 2.035 . S
O274 Zn273 2.028 1_556 S
O274 C280 1.247 . S
O275 Zn271 2.035 1_556 S
O275 C280 1.258 . S
O276 C269 1.247 . S
O276 Zn273 2.028 . S
O277 C269 1.258 . S
O277 Zn271 2.035 . S
O278 Zn271 2.028 . S
O278 C281 1.247 . S
O279 Zn273 2.035 . S
O279 C281 1.258 . S
C280 O274 1.247 . S
C280 O275 1.258 . S
C281 O278 1.247 . S
C281 O279 1.258 . S
C282 O284 1.247 . S
C282 O286 1.258 . S
C283 O290 1.247 . S
C283 O291 1.258 . S
O284 C282 1.247 . S
O284 Zn285 2.028 . S
Zn285 O284 2.028 . S
Zn285 O289 2.035 . S
Zn285 O291 2.035 1_554 S
Zn285 O292 2.028 1_554 S
O286 C282 1.258 . S
O286 Zn287 2.035 . S
Zn287 O286 2.035 . S
Zn287 O288 2.028 . S
Zn287 O290 2.028 1_554 S
Zn287 O293 2.035 1_554 S
O288 Zn287 2.028 . S
O288 C294 1.247 . S
O289 Zn285 2.035 . S
O289 C294 1.258 . S
O290 C283 1.247 . S
O290 Zn287 2.028 1_556 S
O291 C283 1.258 . S
O291 Zn285 2.035 1_556 S
O292 Zn285 2.028 1_556 S
O292 C295 1.247 . S
O293 Zn287 2.035 1_556 S
O293 C295 1.258 . S
C294 O288 1.247 . S
C294 O289 1.258 . S
C295 O292 1.247 . S
C295 O293 1.258 . S
H296 C308 0.930 . S
H297 C310 0.930 . S
H298 C311 0.930 . S
H299 C315 0.959 . S
H300 C315 0.959 . S
H301 C315 0.961 . S
H302 C316 0.960 . S
H303 C316 0.961 . S
H304 C316 0.959 . S
H305 C319 0.929 . S
H306 C320 0.931 . S
H307 C322 0.930 . S
C308 H296 0.930 . S
C308 C309 1.399 . S
C308 C313 1.399 . S
C309 C308 1.399 . S
C309 C310 1.376 . S
C310 H297 0.930 . S
C310 C309 1.376 . S
C310 C311 1.388 . S
C311 H298 0.930 . S
C311 C310 1.388 . S
C311 C312 1.390 . S
C312 C311 1.390 . S
C312 C313 1.394 . S
C312 C318 1.465 . S
C313 C308 1.399 . S
C313 C312 1.394 . S
C313 C314 1.516 . S
C314 C313 1.516 . S
C314 C315 1.502 . S
C314 C316 1.561 . S
C314 C317 1.526 . S
C315 H299 0.959 . S
C315 H300 0.959 . S
C315 H301 0.961 . S
C315 C314 1.502 . S
C316 H302 0.960 . S
C316 H303 0.961 . S
C316 H304 0.959 . S
C316 C314 1.561 . S
C317 C314 1.526 . S
C317 C318 1.396 . S
C317 C322 1.390 . S
C318 C312 1.465 . S
C318 C317 1.396 . S
C318 C319 1.399 . S
C319 H305 0.929 . S
C319 C318 1.399 . S
C319 C320 1.385 . S
C320 H306 0.931 . S
C320 C319 1.385 . S
C320 C321 1.389 . S
C321 C320 1.389 . S
C321 C322 1.387 . S
C322 H307 0.930 . S
C322 C317 1.390 . S
C322 C321 1.387 . S
H323 C335 0.930 . S
H324 C337 0.930 . S
H325 C338 0.930 . S
H326 C342 0.959 . S
H327 C342 0.959 . S
H328 C342 0.961 . S
H329 C343 0.960 . S
H330 C343 0.961 . S
H331 C343 0.959 . S
H332 C346 0.929 . S
H333 C347 0.931 . S
H334 C349 0.930 . S
C335 H323 0.930 . S
C335 C336 1.399 . S
C335 C340 1.399 . S
C336 C335 1.399 . S
C336 C337 1.376 . S
C337 H324 0.930 . S
C337 C336 1.376 . S
C337 C338 1.388 . S
C338 H325 0.930 . S
C338 C337 1.388 . S
C338 C339 1.390 . S
C339 C338 1.390 . S
C339 C340 1.394 . S
C339 C345 1.465 . S
C340 C335 1.399 . S
C340 C339 1.394 . S
C340 C341 1.516 . S
C341 C340 1.516 . S
C341 C342 1.502 . S
C341 C343 1.561 . S
C341 C344 1.526 . S
C342 H326 0.959 . S
C342 H327 0.959 . S
C342 H328 0.961 . S
C342 C341 1.502 . S
C343 H329 0.960 . S
C343 H330 0.961 . S
C343 H331 0.959 . S
C343 C341 1.561 . S
C344 C341 1.526 . S
C344 C345 1.396 . S
C344 C349 1.390 . S
C345 C339 1.465 . S
C345 C344 1.396 . S
C345 C346 1.399 . S
C346 H332 0.929 . S
C346 C345 1.399 . S
C346 C347 1.385 . S
C347 H333 0.931 . S
C347 C346 1.385 . S
C347 C348 1.389 . S
C348 C347 1.389 . S
C348 C349 1.387 . S
C349 H334 0.930 . S
C349 C344 1.390 . S
C349 C348 1.387 . S
H350 C362 0.930 . S
H351 C364 0.930 . S
H352 C365 0.930 . S
H353 C369 0.959 . S
H354 C369 0.959 . S
H355 C369 0.961 . S
H356 C370 0.960 . S
H357 C370 0.961 . S
H358 C370 0.959 . S
H359 C373 0.929 . S
H360 C374 0.931 . S
H361 C376 0.930 . S
C362 H350 0.930 . S
C362 C363 1.399 . S
C362 C367 1.399 . S
C363 C362 1.399 . S
C363 C364 1.376 . S
C364 H351 0.930 . S
C364 C363 1.376 . S
C364 C365 1.388 . S
C365 H352 0.930 . S
C365 C364 1.388 . S
C365 C366 1.390 . S
C366 C365 1.390 . S
C366 C367 1.394 . S
C366 C372 1.465 . S
C367 C362 1.399 . S
C367 C366 1.394 . S
C367 C368 1.516 . S
C368 C367 1.516 . S
C368 C369 1.502 . S
C368 C370 1.561 . S
C368 C371 1.526 . S
C369 H353 0.959 . S
C369 H354 0.959 . S
C369 H355 0.961 . S
C369 C368 1.502 . S
C370 H356 0.960 . S
C370 H357 0.961 . S
C370 H358 0.959 . S
C370 C368 1.561 . S
C371 C368 1.526 . S
C371 C372 1.396 . S
C371 C376 1.390 . S
C372 C366 1.465 . S
C372 C371 1.396 . S
C372 C373 1.399 . S
C373 H359 0.929 . S
C373 C372 1.399 . S
C373 C374 1.385 . S
C374 H360 0.931 . S
C374 C373 1.385 . S
C374 C375 1.389 . S
C375 C374 1.389 . S
C375 C376 1.387 . S
C376 H361 0.930 . S
C376 C371 1.390 . S
C376 C375 1.387 . S
H377 C389 0.930 . S
H378 C391 0.930 . S
H379 C392 0.930 . S
H380 C396 0.959 . S
H381 C396 0.959 . S
H382 C396 0.961 . S
H383 C397 0.960 . S
H384 C397 0.961 . S
H385 C397 0.959 . S
H386 C400 0.929 . S
H387 C401 0.931 . S
H388 C403 0.930 . S
C389 H377 0.930 . S
C389 C390 1.399 . S
C389 C394 1.399 . S
C390 C389 1.399 . S
C390 C391 1.376 . S
C391 H378 0.930 . S
C391 C390 1.376 . S
C391 C392 1.388 . S
C392 H379 0.930 . S
C392 C391 1.388 . S
C392 C393 1.390 . S
C393 C392 1.390 . S
C393 C394 1.394 . S
C393 C399 1.465 . S
C394 C389 1.399 . S
C394 C393 1.394 . S
C394 C395 1.516 . S
C395 C394 1.516 . S
C395 C396 1.502 . S
C395 C397 1.561 . S
C395 C398 1.526 . S
C396 H380 0.959 . S
C396 H381 0.959 . S
C396 H382 0.961 . S
C396 C395 1.502 . S
C397 H383 0.960 . S
C397 H384 0.961 . S
C397 H385 0.959 . S
C397 C395 1.561 . S
C398 C395 1.526 . S
C398 C399 1.396 . S
C398 C403 1.390 . S
C399 C393 1.465 . S
C399 C398 1.396 . S
C399 C400 1.399 . S
C400 H386 0.929 . S
C400 C399 1.399 . S
C400 C401 1.385 . S
C401 H387 0.931 . S
C401 C400 1.385 . S
C401 C402 1.389 . S
C402 C401 1.389 . S
C402 C403 1.387 . S
C403 H388 0.930 . S
C403 C398 1.390 . S
C403 C402 1.387 . S
H404 C416 0.930 . S
H405 C418 0.930 . S
H406 C419 0.930 . S
H407 C423 0.959 . S
H408 C423 0.959 . S
H409 C423 0.961 . S
H410 C424 0.960 . S
H411 C424 0.961 . S
H412 C424 0.959 . S
H413 C427 0.929 . S
H414 C428 0.931 . S
H415 C430 0.930 . S
C416 H404 0.930 . S
C416 C417 1.399 . S
C416 C421 1.399 . S
C417 C416 1.399 . S
C417 C418 1.376 . S
C418 H405 0.930 . S
C418 C417 1.376 . S
C418 C419 1.388 . S
C419 H406 0.930 . S
C419 C418 1.388 . S
C419 C420 1.390 . S
C420 C419 1.390 . S
C420 C421 1.394 . S
C420 C426 1.465 . S
C421 C416 1.399 . S
C421 C420 1.394 . S
C421 C422 1.516 . S
C422 C421 1.516 . S
C422 C423 1.502 . S
C422 C424 1.561 . S
C422 C425 1.526 . S
C423 H407 0.959 . S
C423 H408 0.959 . S
C423 H409 0.961 . S
C423 C422 1.502 . S
C424 H410 0.960 . S
C424 H411 0.961 . S
C424 H412 0.959 . S
C424 C422 1.561 . S
C425 C422 1.526 . S
C425 C426 1.396 . S
C425 C430 1.390 . S
C426 C420 1.465 . S
C426 C425 1.396 . S
C426 C427 1.399 . S
C427 H413 0.929 . S
C427 C426 1.399 . S
C427 C428 1.385 . S
C428 H414 0.931 . S
C428 C427 1.385 . S
C428 C429 1.389 . S
C429 C428 1.389 . S
C429 C430 1.387 . S
C430 H415 0.930 . S
C430 C425 1.390 . S
C430 C429 1.387 . S
H431 C443 0.930 . S
H432 C445 0.930 . S
H433 C446 0.930 . S
H434 C450 0.959 . S
H435 C450 0.959 . S
H436 C450 0.961 . S
H437 C451 0.960 . S
H438 C451 0.961 . S
H439 C451 0.959 . S
H440 C454 0.929 . S
H441 C455 0.931 . S
H442 C457 0.930 . S
C443 H431 0.930 . S
C443 C444 1.399 . S
C443 C448 1.399 . S
C444 C443 1.399 . S
C444 C445 1.376 . S
C445 H432 0.930 . S
C445 C444 1.376 . S
C445 C446 1.388 . S
C446 H433 0.930 . S
C446 C445 1.388 . S
C446 C447 1.390 . S
C447 C446 1.390 . S
C447 C448 1.394 . S
C447 C453 1.465 . S
C448 C443 1.399 . S
C448 C447 1.394 . S
C448 C449 1.516 . S
C449 C448 1.516 . S
C449 C450 1.502 . S
C449 C451 1.561 . S
C449 C452 1.526 . S
C450 H434 0.959 . S
C450 H435 0.959 . S
C450 H436 0.961 . S
C450 C449 1.502 . S
C451 H437 0.960 . S
C451 H438 0.961 . S
C451 H439 0.959 . S
C451 C449 1.561 . S
C452 C449 1.526 . S
C452 C453 1.396 . S
C452 C457 1.390 . S
C453 C447 1.465 . S
C453 C452 1.396 . S
C453 C454 1.399 . S
C454 H440 0.929 . S
C454 C453 1.399 . S
C454 C455 1.385 . S
C455 H441 0.931 . S
C455 C454 1.385 . S
C455 C456 1.389 . S
C456 C455 1.389 . S
C456 C457 1.387 . S
C457 H442 0.930 . S
C457 C452 1.390 . S
C457 C456 1.387 . S
H458 C470 0.930 . S
H459 C472 0.930 . S
H460 C473 0.930 . S
H461 C477 0.959 . S
H462 C477 0.959 . S
H463 C477 0.961 . S
H464 C478 0.960 . S
H465 C478 0.961 . S
H466 C478 0.959 . S
H467 C481 0.929 . S
H468 C482 0.931 . S
H469 C484 0.930 . S
C470 H458 0.930 . S
C470 C471 1.399 . S
C470 C475 1.399 . S
C471 C470 1.399 . S
C471 C472 1.376 . S
C472 H459 0.930 . S
C472 C471 1.376 . S
C472 C473 1.388 . S
C473 H460 0.930 . S
C473 C472 1.388 . S
C473 C474 1.390 . S
C474 C473 1.390 . S
C474 C475 1.394 . S
C474 C480 1.465 . S
C475 C470 1.399 . S
C475 C474 1.394 . S
C475 C476 1.516 . S
C476 C475 1.516 . S
C476 C477 1.502 . S
C476 C478 1.561 . S
C476 C479 1.526 . S
C477 H461 0.959 . S
C477 H462 0.959 . S
C477 H463 0.961 . S
C477 C476 1.502 . S
C478 H464 0.960 . S
C478 H465 0.961 . S
C478 H466 0.959 . S
C478 C476 1.561 . S
C479 C476 1.526 . S
C479 C480 1.396 . S
C479 C484 1.390 . S
C480 C474 1.465 . S
C480 C479 1.396 . S
C480 C481 1.399 . S
C481 H467 0.929 . S
C481 C480 1.399 . S
C481 C482 1.385 . S
C482 H468 0.931 . S
C482 C481 1.385 . S
C482 C483 1.389 . S
C483 C482 1.389 . S
C483 C484 1.387 . S
C484 H469 0.930 . S
C484 C479 1.390 . S
C484 C483 1.387 . S
H485 C497 0.930 . S
H486 C499 0.930 . S
H487 C500 0.930 . S
H488 C504 0.959 . S
H489 C504 0.959 . S
H490 C504 0.961 . S
H491 C505 0.960 . S
H492 C505 0.961 . S
H493 C505 0.959 . S
H494 C508 0.929 . S
H495 C509 0.931 . S
H496 C511 0.930 . S
C497 H485 0.930 . S
C497 C498 1.399 . S
C497 C502 1.399 . S
C498 C497 1.399 . S
C498 C499 1.376 . S
C499 H486 0.930 . S
C499 C498 1.376 . S
C499 C500 1.388 . S
C500 H487 0.930 . S
C500 C499 1.388 . S
C500 C501 1.390 . S
C501 C500 1.390 . S
C501 C502 1.394 . S
C501 C507 1.465 . S
C502 C497 1.399 . S
C502 C501 1.394 . S
C502 C503 1.516 . S
C503 C502 1.516 . S
C503 C504 1.502 . S
C503 C505 1.561 . S
C503 C506 1.526 . S
C504 H488 0.959 . S
C504 H489 0.959 . S
C504 H490 0.961 . S
C504 C503 1.502 . S
C505 H491 0.960 . S
C505 H492 0.961 . S
C505 H493 0.959 . S
C505 C503 1.561 . S
C506 C503 1.526 . S
C506 C507 1.396 . S
C506 C511 1.390 . S
C507 C501 1.465 . S
C507 C506 1.396 . S
C507 C508 1.399 . S
C508 H494 0.929 . S
C508 C507 1.399 . S
C508 C509 1.385 . S
C509 H495 0.931 . S
C509 C508 1.385 . S
C509 C510 1.389 . S
C510 C509 1.389 . S
C510 C511 1.387 . S
C511 H496 0.930 . S
C511 C506 1.390 . S
C511 C510 1.387 . S
H512 C524 0.930 . S
H513 C526 0.930 . S
H514 C527 0.930 . S
H515 C531 0.959 . S
H516 C531 0.959 . S
H517 C531 0.961 . S
H518 C532 0.960 . S
H519 C532 0.961 . S
H520 C532 0.959 . S
H521 C535 0.929 . S
H522 C536 0.931 . S
H523 C538 0.930 . S
C524 H512 0.930 . S
C524 C525 1.399 . S
C524 C529 1.399 . S
C525 C524 1.399 . S
C525 C526 1.376 . S
C526 H513 0.930 . S
C526 C525 1.376 . S
C526 C527 1.388 . S
C527 H514 0.930 . S
C527 C526 1.388 . S
C527 C528 1.390 . S
C528 C527 1.390 . S
C528 C529 1.394 . S
C528 C534 1.465 . S
C529 C524 1.399 . S
C529 C528 1.394 . S
C529 C530 1.516 . S
C530 C529 1.516 . S
C530 C531 1.502 . S
C530 C532 1.561 . S
C530 C533 1.526 . S
C531 H515 0.959 . S
C531 H516 0.959 . S
C531 H517 0.961 . S
C531 C530 1.502 . S
C532 H518 0.960 . S
C532 H519 0.961 . S
C532 H520 0.959 . S
C532 C530 1.561 . S
C533 C530 1.526 . S
C533 C534 1.396 . S
C533 C538 1.390 . S
C534 C528 1.465 . S
C534 C533 1.396 . S
C534 C535 1.399 . S
C535 H521 0.929 . S
C535 C534 1.399 . S
C535 C536 1.385 . S
C536 H522 0.931 . S
C536 C535 1.385 . S
C536 C537 1.389 . S
C537 C536 1.389 . S
C537 C538 1.387 . S
C538 H523 0.930 . S
C538 C533 1.390 . S
C538 C537 1.387 . S
H539 C551 0.930 . S
H540 C553 0.930 . S
H541 C554 0.930 . S
H542 C558 0.959 . S
H543 C558 0.959 . S
H544 C558 0.961 . S
H545 C559 0.960 . S
H546 C559 0.961 . S
H547 C559 0.959 . S
H548 C562 0.929 . S
H549 C563 0.931 . S
H550 C565 0.930 . S
C551 H539 0.930 . S
C551 C552 1.399 . S
C551 C556 1.399 . S
C552 C551 1.399 . S
C552 C553 1.376 . S
C553 H540 0.930 . S
C553 C552 1.376 . S
C553 C554 1.388 . S
C554 H541 0.930 . S
C554 C553 1.388 . S
C554 C555 1.390 . S
C555 C554 1.390 . S
C555 C556 1.394 . S
C555 C561 1.465 . S
C556 C551 1.399 . S
C556 C555 1.394 . S
C556 C557 1.516 . S
C557 C556 1.516 . S
C557 C558 1.502 . S
C557 C559 1.561 . S
C557 C560 1.526 . S
C558 H542 0.959 . S
C558 H543 0.959 . S
C558 H544 0.961 . S
C558 C557 1.502 . S
C559 H545 0.960 . S
C559 H546 0.961 . S
C559 H547 0.959 . S
C559 C557 1.561 . S
C560 C557 1.526 . S
C560 C561 1.396 . S
C560 C565 1.390 . S
C561 C555 1.465 . S
C561 C560 1.396 . S
C561 C562 1.399 . S
C562 H548 0.929 . S
C562 C561 1.399 . S
C562 C563 1.385 . S
C563 H549 0.931 . S
C563 C562 1.385 . S
C563 C564 1.389 . S
C564 C563 1.389 . S
C564 C565 1.387 . S
C565 H550 0.930 . S
C565 C560 1.390 . S
C565 C564 1.387 . S
H566 C578 0.930 . S
H567 C580 0.930 . S
H568 C581 0.930 . S
H569 C585 0.959 . S
H570 C585 0.959 . S
H571 C585 0.961 . S
H572 C586 0.960 . S
H573 C586 0.961 . S
H574 C586 0.959 . S
H575 C589 0.929 . S
H576 C590 0.931 . S
H577 C592 0.930 . S
C578 H566 0.930 . S
C578 C579 1.399 . S
C578 C583 1.399 . S
C579 C578 1.399 . S
C579 C580 1.376 . S
C580 H567 0.930 . S
C580 C579 1.376 . S
C580 C581 1.388 . S
C581 H568 0.930 . S
C581 C580 1.388 . S
C581 C582 1.390 . S
C582 C581 1.390 . S
C582 C583 1.394 . S
C582 C588 1.465 . S
C583 C578 1.399 . S
C583 C582 1.394 . S
C583 C584 1.516 . S
C584 C583 1.516 . S
C584 C585 1.502 . S
C584 C586 1.561 . S
C584 C587 1.526 . S
C585 H569 0.959 . S
C585 H570 0.959 . S
C585 H571 0.961 . S
C585 C584 1.502 . S
C586 H572 0.960 . S
C586 H573 0.961 . S
C586 H574 0.959 . S
C586 C584 1.561 . S
C587 C584 1.526 . S
C587 C588 1.396 . S
C587 C592 1.390 . S
C588 C582 1.465 . S
C588 C587 1.396 . S
C588 C589 1.399 . S
C589 H575 0.929 . S
C589 C588 1.399 . S
C589 C590 1.385 . S
C590 H576 0.931 . S
C590 C589 1.385 . S
C590 C591 1.389 . S
C591 C590 1.389 . S
C591 C592 1.387 . S
C592 H577 0.930 . S
C592 C587 1.390 . S
C592 C591 1.387 . S
H593 C605 0.930 . S
H594 C607 0.930 . S
H595 C608 0.930 . S
H596 C612 0.959 . S
H597 C612 0.959 . S
H598 C612 0.961 . S
H599 C613 0.960 . S
H600 C613 0.961 . S
H601 C613 0.959 . S
H602 C616 0.929 . S
H603 C617 0.931 . S
H604 C619 0.930 . S
C605 H593 0.930 . S
C605 C606 1.399 . S
C605 C610 1.399 . S
C606 C605 1.399 . S
C606 C607 1.376 . S
C607 H594 0.930 . S
C607 C606 1.376 . S
C607 C608 1.388 . S
C608 H595 0.930 . S
C608 C607 1.388 . S
C608 C609 1.390 . S
C609 C608 1.390 . S
C609 C610 1.394 . S
C609 C615 1.465 . S
C610 C605 1.399 . S
C610 C609 1.394 . S
C610 C611 1.516 . S
C611 C610 1.516 . S
C611 C612 1.502 . S
C611 C613 1.561 . S
C611 C614 1.526 . S
C612 H596 0.959 . S
C612 H597 0.959 . S
C612 H598 0.961 . S
C612 C611 1.502 . S
C613 H599 0.960 . S
C613 H600 0.961 . S
C613 H601 0.959 . S
C613 C611 1.561 . S
C614 C611 1.526 . S
C614 C615 1.396 . S
C614 C619 1.390 . S
C615 C609 1.465 . S
C615 C614 1.396 . S
C615 C616 1.399 . S
C616 H602 0.929 . S
C616 C615 1.399 . S
C616 C617 1.385 . S
C617 H603 0.931 . S
C617 C616 1.385 . S
C617 C618 1.389 . S
C618 C617 1.389 . S
C618 C619 1.387 . S
C619 H604 0.930 . S
C619 C614 1.390 . S
C619 C618 1.387 . S
H620 C632 0.930 . S
H621 C634 0.930 . S
H622 C635 0.930 . S
H623 C639 0.959 . S
H624 C639 0.959 . S
H625 C639 0.961 . S
H626 C640 0.960 . S
H627 C640 0.961 . S
H628 C640 0.959 . S
H629 C643 0.929 . S
H630 C644 0.931 . S
H631 C646 0.930 . S
C632 H620 0.930 . S
C632 C633 1.399 . S
C632 C637 1.399 . S
C633 C632 1.399 . S
C633 C634 1.376 . S
C634 H621 0.930 . S
C634 C633 1.376 . S
C634 C635 1.388 . S
C635 H622 0.930 . S
C635 C634 1.388 . S
C635 C636 1.390 . S
C636 C635 1.390 . S
C636 C637 1.394 . S
C636 C642 1.465 . S
C637 C632 1.399 . S
C637 C636 1.394 . S
C637 C638 1.516 . S
C638 C637 1.516 . S
C638 C639 1.502 . S
C638 C640 1.561 . S
C638 C641 1.526 . S
C639 H623 0.959 . S
C639 H624 0.959 . S
C639 H625 0.961 . S
C639 C638 1.502 . S
C640 H626 0.960 . S
C640 H627 0.961 . S
C640 H628 0.959 . S
C640 C638 1.561 . S
C641 C638 1.526 . S
C641 C642 1.396 . S
C641 C646 1.390 . S
C642 C636 1.465 . S
C642 C641 1.396 . S
C642 C643 1.399 . S
C643 H629 0.929 . S
C643 C642 1.399 . S
C643 C644 1.385 . S
C644 H630 0.931 . S
C644 C643 1.385 . S
C644 C645 1.389 . S
C645 C644 1.389 . S
C645 C646 1.387 . S
C646 H631 0.930 . S
C646 C641 1.390 . S
C646 C645 1.387 . S
H647 C659 0.930 . S
H648 C661 0.930 . S
H649 C662 0.930 . S
H650 C666 0.959 . S
H651 C666 0.959 . S
H652 C666 0.961 . S
H653 C667 0.960 . S
H654 C667 0.961 . S
H655 C667 0.959 . S
H656 C670 0.929 . S
H657 C671 0.931 . S
H658 C673 0.930 . S
C659 H647 0.930 . S
C659 C660 1.399 . S
C659 C664 1.399 . S
C660 C659 1.399 . S
C660 C661 1.376 . S
C661 H648 0.930 . S
C661 C660 1.376 . S
C661 C662 1.388 . S
C662 H649 0.930 . S
C662 C661 1.388 . S
C662 C663 1.390 . S
C663 C662 1.390 . S
C663 C664 1.394 . S
C663 C669 1.465 . S
C664 C659 1.399 . S
C664 C663 1.394 . S
C664 C665 1.516 . S
C665 C664 1.516 . S
C665 C666 1.502 . S
C665 C667 1.561 . S
C665 C668 1.526 . S
C666 H650 0.959 . S
C666 H651 0.959 . S
C666 H652 0.961 . S
C666 C665 1.502 . S
C667 H653 0.960 . S
C667 H654 0.961 . S
C667 H655 0.959 . S
C667 C665 1.561 . S
C668 C665 1.526 . S
C668 C669 1.396 . S
C668 C673 1.390 . S
C669 C663 1.465 . S
C669 C668 1.396 . S
C669 C670 1.399 . S
C670 H656 0.929 . S
C670 C669 1.399 . S
C670 C671 1.385 . S
C671 H657 0.931 . S
C671 C670 1.385 . S
C671 C672 1.389 . S
C672 C671 1.389 . S
C672 C673 1.387 . S
C673 H658 0.930 . S
C673 C668 1.390 . S
C673 C672 1.387 . S
H674 C686 0.930 . S
H675 C688 0.930 . S
H676 C689 0.930 . S
H677 C693 0.959 . S
H678 C693 0.959 . S
H679 C693 0.961 . S
H680 C694 0.960 . S
H681 C694 0.961 . S
H682 C694 0.959 . S
H683 C697 0.929 . S
H684 C698 0.931 . S
H685 C700 0.930 . S
C686 H674 0.930 . S
C686 C687 1.399 . S
C686 C691 1.399 . S
C687 C686 1.399 . S
C687 C688 1.376 . S
C688 H675 0.930 . S
C688 C687 1.376 . S
C688 C689 1.388 . S
C689 H676 0.930 . S
C689 C688 1.388 . S
C689 C690 1.390 . S
C690 C689 1.390 . S
C690 C691 1.394 . S
C690 C696 1.465 . S
C691 C686 1.399 . S
C691 C690 1.394 . S
C691 C692 1.516 . S
C692 C691 1.516 . S
C692 C693 1.502 . S
C692 C694 1.561 . S
C692 C695 1.526 . S
C693 H677 0.959 . S
C693 H678 0.959 . S
C693 H679 0.961 . S
C693 C692 1.502 . S
C694 H680 0.960 . S
C694 H681 0.961 . S
C694 H682 0.959 . S
C694 C692 1.561 . S
C695 C692 1.526 . S
C695 C696 1.396 . S
C695 C700 1.390 . S
C696 C690 1.465 . S
C696 C695 1.396 . S
C696 C697 1.399 . S
C697 H683 0.929 . S
C697 C696 1.399 . S
C697 C698 1.385 . S
C698 H684 0.931 . S
C698 C697 1.385 . S
C698 C699 1.389 . S
C699 C698 1.389 . S
C699 C700 1.387 . S
C700 H685 0.930 . S
C700 C695 1.390 . S
C700 C699 1.387 . S
H701 C713 0.930 . S
H702 C715 0.930 . S
H703 C716 0.930 . S
H704 C720 0.959 . S
H705 C720 0.959 . S
H706 C720 0.961 . S
H707 C721 0.960 . S
H708 C721 0.961 . S
H709 C721 0.959 . S
H710 C724 0.929 . S
H711 C725 0.931 . S
H712 C727 0.930 . S
C713 H701 0.930 . S
C713 C714 1.399 . S
C713 C718 1.399 . S
C714 C713 1.399 . S
C714 C715 1.376 . S
C715 H702 0.930 . S
C715 C714 1.376 . S
C715 C716 1.388 . S
C716 H703 0.930 . S
C716 C715 1.388 . S
C716 C717 1.390 . S
C717 C716 1.390 . S
C717 C718 1.394 . S
C717 C723 1.465 . S
C718 C713 1.399 . S
C718 C717 1.394 . S
C718 C719 1.516 . S
C719 C718 1.516 . S
C719 C720 1.502 . S
C719 C721 1.561 . S
C719 C722 1.526 . S
C720 H704 0.959 . S
C720 H705 0.959 . S
C720 H706 0.961 . S
C720 C719 1.502 . S
C721 H707 0.960 . S
C721 H708 0.961 . S
C721 H709 0.959 . S
C721 C719 1.561 . S
C722 C719 1.526 . S
C722 C723 1.396 . S
C722 C727 1.390 . S
C723 C717 1.465 . S
C723 C722 1.396 . S
C723 C724 1.399 . S
C724 H710 0.929 . S
C724 C723 1.399 . S
C724 C725 1.385 . S
C725 H711 0.931 . S
C725 C724 1.385 . S
C725 C726 1.389 . S
C726 C725 1.389 . S
C726 C727 1.387 . S
C727 H712 0.930 . S
C727 C722 1.390 . S
C727 C726 1.387 . S
H728 C740 0.930 . S
H729 C742 0.930 . S
H730 C743 0.930 . S
H731 C747 0.959 . S
H732 C747 0.959 . S
H733 C747 0.961 . S
H734 C748 0.960 . S
H735 C748 0.961 . S
H736 C748 0.959 . S
H737 C751 0.929 . S
H738 C752 0.931 . S
H739 C754 0.930 . S
C740 H728 0.930 . S
C740 C741 1.399 . S
C740 C745 1.399 . S
C741 C740 1.399 . S
C741 C742 1.376 . S
C742 H729 0.930 . S
C742 C741 1.376 . S
C742 C743 1.388 . S
C743 H730 0.930 . S
C743 C742 1.388 . S
C743 C744 1.390 . S
C744 C743 1.390 . S
C744 C745 1.394 . S
C744 C750 1.465 . S
C745 C740 1.399 . S
C745 C744 1.394 . S
C745 C746 1.516 . S
C746 C745 1.516 . S
C746 C747 1.502 . S
C746 C748 1.561 . S
C746 C749 1.526 . S
C747 H731 0.959 . S
C747 H732 0.959 . S
C747 H733 0.961 . S
C747 C746 1.502 . S
C748 H734 0.960 . S
C748 H735 0.961 . S
C748 H736 0.959 . S
C748 C746 1.561 . S
C749 C746 1.526 . S
C749 C750 1.396 . S
C749 C754 1.390 . S
C750 C744 1.465 . S
C750 C749 1.396 . S
C750 C751 1.399 . S
C751 H737 0.929 . S
C751 C750 1.399 . S
C751 C752 1.385 . S
C752 H738 0.931 . S
C752 C751 1.385 . S
C752 C753 1.389 . S
C753 C752 1.389 . S
C753 C754 1.387 . S
C754 H739 0.930 . S
C754 C749 1.390 . S
C754 C753 1.387 . S
H755 C767 0.930 . S
H756 C769 0.930 . S
H757 C770 0.930 . S
H758 C774 0.959 . S
H759 C774 0.959 . S
H760 C774 0.961 . S
H761 C775 0.960 . S
H762 C775 0.961 . S
H763 C775 0.959 . S
H764 C778 0.929 . S
H765 C779 0.931 . S
H766 C781 0.930 . S
C767 H755 0.930 . S
C767 C768 1.399 . S
C767 C772 1.399 . S
C768 C767 1.399 . S
C768 C769 1.376 . S
C769 H756 0.930 . S
C769 C768 1.376 . S
C769 C770 1.388 . S
C770 H757 0.930 . S
C770 C769 1.388 . S
C770 C771 1.390 . S
C771 C770 1.390 . S
C771 C772 1.394 . S
C771 C777 1.465 . S
C772 C767 1.399 . S
C772 C771 1.394 . S
C772 C773 1.516 . S
C773 C772 1.516 . S
C773 C774 1.502 . S
C773 C775 1.561 . S
C773 C776 1.526 . S
C774 H758 0.959 . S
C774 H759 0.959 . S
C774 H760 0.961 . S
C774 C773 1.502 . S
C775 H761 0.960 . S
C775 H762 0.961 . S
C775 H763 0.959 . S
C775 C773 1.561 . S
C776 C773 1.526 . S
C776 C777 1.396 . S
C776 C781 1.390 . S
C777 C771 1.465 . S
C777 C776 1.396 . S
C777 C778 1.399 . S
C778 H764 0.929 . S
C778 C777 1.399 . S
C778 C779 1.385 . S
C779 H765 0.931 . S
C779 C778 1.385 . S
C779 C780 1.389 . S
C780 C779 1.389 . S
C780 C781 1.387 . S
C781 H766 0.930 . S
C781 C776 1.390 . S
C781 C780 1.387 . S
H782 C794 0.930 . S
H783 C796 0.930 . S
H784 C797 0.930 . S
H785 C801 0.959 . S
H786 C801 0.959 . S
H787 C801 0.961 . S
H788 C802 0.960 . S
H789 C802 0.961 . S
H790 C802 0.959 . S
H791 C805 0.929 . S
H792 C806 0.931 . S
H793 C808 0.930 . S
C794 H782 0.930 . S
C794 C795 1.399 . S
C794 C799 1.399 . S
C795 C794 1.399 . S
C795 C796 1.376 . S
C796 H783 0.930 . S
C796 C795 1.376 . S
C796 C797 1.388 . S
C797 H784 0.930 . S
C797 C796 1.388 . S
C797 C798 1.390 . S
C798 C797 1.390 . S
C798 C799 1.394 . S
C798 C804 1.465 . S
C799 C794 1.399 . S
C799 C798 1.394 . S
C799 C800 1.516 . S
C800 C799 1.516 . S
C800 C801 1.502 . S
C800 C802 1.561 . S
C800 C803 1.526 . S
C801 H785 0.959 . S
C801 H786 0.959 . S
C801 H787 0.961 . S
C801 C800 1.502 . S
C802 H788 0.960 . S
C802 H789 0.961 . S
C802 H790 0.959 . S
C802 C800 1.561 . S
C803 C800 1.526 . S
C803 C804 1.396 . S
C803 C808 1.390 . S
C804 C798 1.465 . S
C804 C803 1.396 . S
C804 C805 1.399 . S
C805 H791 0.929 . S
C805 C804 1.399 . S
C805 C806 1.385 . S
C806 H792 0.931 . S
C806 C805 1.385 . S
C806 C807 1.389 . S
C807 C806 1.389 . S
C807 C808 1.387 . S
C808 H793 0.930 . S
C808 C803 1.390 . S
C808 C807 1.387 . S
H809 C821 0.930 . S
H810 C823 0.930 . S
H811 C824 0.930 . S
H812 C828 0.959 . S
H813 C828 0.959 . S
H814 C828 0.961 . S
H815 C829 0.960 . S
H816 C829 0.961 . S
H817 C829 0.959 . S
H818 C832 0.929 . S
H819 C833 0.931 . S
H820 C835 0.930 . S
C821 H809 0.930 . S
C821 C822 1.399 . S
C821 C826 1.399 . S
C822 C821 1.399 . S
C822 C823 1.376 . S
C823 H810 0.930 . S
C823 C822 1.376 . S
C823 C824 1.388 . S
C824 H811 0.930 . S
C824 C823 1.388 . S
C824 C825 1.390 . S
C825 C824 1.390 . S
C825 C826 1.394 . S
C825 C831 1.465 . S
C826 C821 1.399 . S
C826 C825 1.394 . S
C826 C827 1.516 . S
C827 C826 1.516 . S
C827 C828 1.502 . S
C827 C829 1.561 . S
C827 C830 1.526 . S
C828 H812 0.959 . S
C828 H813 0.959 . S
C828 H814 0.961 . S
C828 C827 1.502 . S
C829 H815 0.960 . S
C829 H816 0.961 . S
C829 H817 0.959 . S
C829 C827 1.561 . S
C830 C827 1.526 . S
C830 C831 1.396 . S
C830 C835 1.390 . S
C831 C825 1.465 . S
C831 C830 1.396 . S
C831 C832 1.399 . S
C832 H818 0.929 . S
C832 C831 1.399 . S
C832 C833 1.385 . S
C833 H819 0.931 . S
C833 C832 1.385 . S
C833 C834 1.389 . S
C834 C833 1.389 . S
C834 C835 1.387 . S
C835 H820 0.930 . S
C835 C830 1.390 . S
C835 C834 1.387 . S
H836 C848 0.930 . S
H837 C850 0.930 . S
H838 C851 0.930 . S
H839 C855 0.959 . S
H840 C855 0.959 . S
H841 C855 0.961 . S
H842 C856 0.960 . S
H843 C856 0.961 . S
H844 C856 0.959 . S
H845 C859 0.929 . S
H846 C860 0.931 . S
H847 C862 0.930 . S
C848 H836 0.930 . S
C848 C849 1.399 . S
C848 C853 1.399 . S
C849 C848 1.399 . S
C849 C850 1.376 . S
C850 H837 0.930 . S
C850 C849 1.376 . S
C850 C851 1.388 . S
C851 H838 0.930 . S
C851 C850 1.388 . S
C851 C852 1.390 . S
C852 C851 1.390 . S
C852 C853 1.394 . S
C852 C858 1.465 . S
C853 C848 1.399 . S
C853 C852 1.394 . S
C853 C854 1.516 . S
C854 C853 1.516 . S
C854 C855 1.502 . S
C854 C856 1.561 . S
C854 C857 1.526 . S
C855 H839 0.959 . S
C855 H840 0.959 . S
C855 H841 0.961 . S
C855 C854 1.502 . S
C856 H842 0.960 . S
C856 H843 0.961 . S
C856 H844 0.959 . S
C856 C854 1.561 . S
C857 C854 1.526 . S
C857 C858 1.396 . S
C857 C862 1.390 . S
C858 C852 1.465 . S
C858 C857 1.396 . S
C858 C859 1.399 . S
C859 H845 0.929 . S
C859 C858 1.399 . S
C859 C860 1.385 . S
C860 H846 0.931 . S
C860 C859 1.385 . S
C860 C861 1.389 . S
C861 C860 1.389 . S
C861 C862 1.387 . S
C862 H847 0.930 . S
C862 C857 1.390 . S
C862 C861 1.387 . S
H863 C875 0.930 . S
H864 C877 0.930 . S
H865 C878 0.930 . S
H866 C882 0.959 . S
H867 C882 0.959 . S
H868 C882 0.961 . S
H869 C883 0.960 . S
H870 C883 0.961 . S
H871 C883 0.959 . S
H872 C886 0.929 . S
H873 C887 0.931 . S
H874 C889 0.930 . S
C875 H863 0.930 . S
C875 C876 1.399 . S
C875 C880 1.399 . S
C876 C875 1.399 . S
C876 C877 1.376 . S
C877 H864 0.930 . S
C877 C876 1.376 . S
C877 C878 1.388 . S
C878 H865 0.930 . S
C878 C877 1.388 . S
C878 C879 1.390 . S
C879 C878 1.390 . S
C879 C880 1.394 . S
C879 C885 1.465 . S
C880 C875 1.399 . S
C880 C879 1.394 . S
C880 C881 1.516 . S
C881 C880 1.516 . S
C881 C882 1.502 . S
C881 C883 1.561 . S
C881 C884 1.526 . S
C882 H866 0.959 . S
C882 H867 0.959 . S
C882 H868 0.961 . S
C882 C881 1.502 . S
C883 H869 0.960 . S
C883 H870 0.961 . S
C883 H871 0.959 . S
C883 C881 1.561 . S
C884 C881 1.526 . S
C884 C885 1.396 . S
C884 C889 1.390 . S
C885 C879 1.465 . S
C885 C884 1.396 . S
C885 C886 1.399 . S
C886 H872 0.929 . S
C886 C885 1.399 . S
C886 C887 1.385 . S
C887 H873 0.931 . S
C887 C886 1.385 . S
C887 C888 1.389 . S
C888 C887 1.389 . S
C888 C889 1.387 . S
C889 H874 0.930 . S
C889 C884 1.390 . S
C889 C888 1.387 . S
H890 C902 0.930 . S
H891 C904 0.930 . S
H892 C905 0.930 . S
H893 C909 0.959 . S
H894 C909 0.959 . S
H895 C909 0.961 . S
H896 C910 0.960 . S
H897 C910 0.961 . S
H898 C910 0.959 . S
H899 C913 0.929 . S
H900 C914 0.931 . S
H901 C916 0.930 . S
C902 H890 0.930 . S
C902 C903 1.399 . S
C902 C907 1.399 . S
C903 C902 1.399 . S
C903 C904 1.376 . S
C904 H891 0.930 . S
C904 C903 1.376 . S
C904 C905 1.388 . S
C905 H892 0.930 . S
C905 C904 1.388 . S
C905 C906 1.390 . S
C906 C905 1.390 . S
C906 C907 1.394 . S
C906 C912 1.465 . S
C907 C902 1.399 . S
C907 C906 1.394 . S
C907 C908 1.516 . S
C908 C907 1.516 . S
C908 C909 1.502 . S
C908 C910 1.561 . S
C908 C911 1.526 . S
C909 H893 0.959 . S
C909 H894 0.959 . S
C909 H895 0.961 . S
C909 C908 1.502 . S
C910 H896 0.960 . S
C910 H897 0.961 . S
C910 H898 0.959 . S
C910 C908 1.561 . S
C911 C908 1.526 . S
C911 C912 1.396 . S
C911 C916 1.390 . S
C912 C906 1.465 . S
C912 C911 1.396 . S
C912 C913 1.399 . S
C913 H899 0.929 . S
C913 C912 1.399 . S
C913 C914 1.385 . S
C914 H900 0.931 . S
C914 C913 1.385 . S
C914 C915 1.389 . S
C915 C914 1.389 . S
C915 C916 1.387 . S
C916 H901 0.930 . S
C916 C911 1.390 . S
C916 C915 1.387 . S
H917 C929 0.930 . S
H918 C931 0.930 . S
H919 C932 0.930 . S
H920 C936 0.959 . S
H921 C936 0.959 . S
H922 C936 0.961 . S
H923 C937 0.960 . S
H924 C937 0.961 . S
H925 C937 0.959 . S
H926 C940 0.929 . S
H927 C941 0.931 . S
H928 C943 0.930 . S
C929 H917 0.930 . S
C929 C930 1.399 . S
C929 C934 1.399 . S
C930 C929 1.399 . S
C930 C931 1.376 . S
C931 H918 0.930 . S
C931 C930 1.376 . S
C931 C932 1.388 . S
C932 H919 0.930 . S
C932 C931 1.388 . S
C932 C933 1.390 . S
C933 C932 1.390 . S
C933 C934 1.394 . S
C933 C939 1.465 . S
C934 C929 1.399 . S
C934 C933 1.394 . S
C934 C935 1.516 . S
C935 C934 1.516 . S
C935 C936 1.502 . S
C935 C937 1.561 . S
C935 C938 1.526 . S
C936 H920 0.959 . S
C936 H921 0.959 . S
C936 H922 0.961 . S
C936 C935 1.502 . S
C937 H923 0.960 . S
C937 H924 0.961 . S
C937 H925 0.959 . S
C937 C935 1.561 . S
C938 C935 1.526 . S
C938 C939 1.396 . S
C938 C943 1.390 . S
C939 C933 1.465 . S
C939 C938 1.396 . S
C939 C940 1.399 . S
C940 H926 0.929 . S
C940 C939 1.399 . S
C940 C941 1.385 . S
C941 H927 0.931 . S
C941 C940 1.385 . S
C941 C942 1.389 . S
C942 C941 1.389 . S
C942 C943 1.387 . S
C943 H928 0.930 . S
C943 C938 1.390 . S
C943 C942 1.387 . S
H944 C956 0.930 . S
H945 C958 0.930 . S
H946 C959 0.930 . S
H947 C963 0.959 . S
H948 C963 0.959 . S
H949 C963 0.961 . S
H950 C964 0.960 . S
H951 C964 0.961 . S
H952 C964 0.959 . S
H953 C967 0.929 . S
H954 C968 0.931 . S
H955 C970 0.930 . S
C956 H944 0.930 . S
C956 C957 1.399 . S
C956 C961 1.399 . S
C957 C956 1.399 . S
C957 C958 1.376 . S
C958 H945 0.930 . S
C958 C957 1.376 . S
C958 C959 1.388 . S
C959 H946 0.930 . S
C959 C958 1.388 . S
C959 C960 1.390 . S
C960 C959 1.390 . S
C960 C961 1.394 . S
C960 C966 1.465 . S
C961 C956 1.399 . S
C961 C960 1.394 . S
C961 C962 1.516 . S
C962 C961 1.516 . S
C962 C963 1.502 . S
C962 C964 1.561 . S
C962 C965 1.526 . S
C963 H947 0.959 . S
C963 H948 0.959 . S
C963 H949 0.961 . S
C963 C962 1.502 . S
C964 H950 0.960 . S
C964 H951 0.961 . S
C964 H952 0.959 . S
C964 C962 1.561 . S
C965 C962 1.526 . S
C965 C966 1.396 . S
C965 C970 1.390 . S
C966 C960 1.465 . S
C966 C965 1.396 . S
C966 C967 1.399 . S
C967 H953 0.929 . S
C967 C966 1.399 . S
C967 C968 1.385 . S
C968 H954 0.931 . S
C968 C967 1.385 . S
C968 C969 1.389 . S
C969 C968 1.389 . S
C969 C970 1.387 . S
C970 H955 0.930 . S
C970 C965 1.390 . S
C970 C969 1.387 . S
H971 C983 0.930 . S
H972 C985 0.930 . S
H973 C986 0.930 . S
H974 C990 0.959 . S
H975 C990 0.959 . S
H976 C990 0.961 . S
H977 C991 0.960 . S
H978 C991 0.961 . S
H979 C991 0.959 . S
H980 C994 0.929 . S
H981 C995 0.931 . S
H982 C997 0.930 . S
C983 H971 0.930 . S
C983 C984 1.399 . S
C983 C988 1.399 . S
C984 C983 1.399 . S
C984 C985 1.376 . S
C985 H972 0.930 . S
C985 C984 1.376 . S
C985 C986 1.388 . S
C986 H973 0.930 . S
C986 C985 1.388 . S
C986 C987 1.390 . S
C987 C986 1.390 . S
C987 C988 1.394 . S
C987 C993 1.465 . S
C988 C983 1.399 . S
C988 C987 1.394 . S
C988 C989 1.516 . S
C989 C988 1.516 . S
C989 C990 1.502 . S
C989 C991 1.561 . S
C989 C992 1.526 . S
C990 H974 0.959 . S
C990 H975 0.959 . S
C990 H976 0.961 . S
C990 C989 1.502 . S
C991 H977 0.960 . S
C991 H978 0.961 . S
C991 H979 0.959 . S
C991 C989 1.561 . S
C992 C989 1.526 . S
C992 C993 1.396 . S
C992 C997 1.390 . S
C993 C987 1.465 . S
C993 C992 1.396 . S
C993 C994 1.399 . S
C994 H980 0.929 . S
C994 C993 1.399 . S
C994 C995 1.385 . S
C995 H981 0.931 . S
C995 C994 1.385 . S
C995 C996 1.389 . S
C996 C995 1.389 . S
C996 C997 1.387 . S
C997 H982 0.930 . S
C997 C992 1.390 . S
C997 C996 1.387 . S
H998 C1010 0.930 . S
H999 C1012 0.930 . S
H1000 C1013 0.930 . S
H1001 C1017 0.959 . S
H1002 C1017 0.959 . S
H1003 C1017 0.961 . S
H1004 C1018 0.960 . S
H1005 C1018 0.961 . S
H1006 C1018 0.959 . S
H1007 C1021 0.929 . S
H1008 C1022 0.931 . S
H1009 C1024 0.930 . S
C1010 H998 0.930 . S
C1010 C1011 1.399 . S
C1010 C1015 1.399 . S
C1011 C1010 1.399 . S
C1011 C1012 1.376 . S
C1012 H999 0.930 . S
C1012 C1011 1.376 . S
C1012 C1013 1.388 . S
C1013 H1000 0.930 . S
C1013 C1012 1.388 . S
C1013 C1014 1.390 . S
C1014 C1013 1.390 . S
C1014 C1015 1.394 . S
C1014 C1020 1.465 . S
C1015 C1010 1.399 . S
C1015 C1014 1.394 . S
C1015 C1016 1.516 . S
C1016 C1015 1.516 . S
C1016 C1017 1.502 . S
C1016 C1018 1.561 . S
C1016 C1019 1.526 . S
C1017 H1001 0.959 . S
C1017 H1002 0.959 . S
C1017 H1003 0.961 . S
C1017 C1016 1.502 . S
C1018 H1004 0.960 . S
C1018 H1005 0.961 . S
C1018 H1006 0.959 . S
C1018 C1016 1.561 . S
C1019 C1016 1.526 . S
C1019 C1020 1.396 . S
C1019 C1024 1.390 . S
C1020 C1014 1.465 . S
C1020 C1019 1.396 . S
C1020 C1021 1.399 . S
C1021 H1007 0.929 . S
C1021 C1020 1.399 . S
C1021 C1022 1.385 . S
C1022 H1008 0.931 . S
C1022 C1021 1.385 . S
C1022 C1023 1.389 . S
C1023 C1022 1.389 . S
C1023 C1024 1.387 . S
C1024 H1009 0.930 . S
C1024 C1019 1.390 . S
C1024 C1023 1.387 . S
H1025 C1037 0.930 . S
H1026 C1039 0.930 . S
H1027 C1040 0.930 . S
H1028 C1044 0.959 . S
H1029 C1044 0.959 . S
H1030 C1044 0.961 . S
H1031 C1045 0.960 . S
H1032 C1045 0.961 . S
H1033 C1045 0.959 . S
H1034 C1048 0.929 . S
H1035 C1049 0.931 . S
H1036 C1051 0.930 . S
C1037 H1025 0.930 . S
C1037 C1038 1.399 . S
C1037 C1042 1.399 . S
C1038 C1037 1.399 . S
C1038 C1039 1.376 . S
C1039 H1026 0.930 . S
C1039 C1038 1.376 . S
C1039 C1040 1.388 . S
C1040 H1027 0.930 . S
C1040 C1039 1.388 . S
C1040 C1041 1.390 . S
C1041 C1040 1.390 . S
C1041 C1042 1.394 . S
C1041 C1047 1.465 . S
C1042 C1037 1.399 . S
C1042 C1041 1.394 . S
C1042 C1043 1.516 . S
C1043 C1042 1.516 . S
C1043 C1044 1.502 . S
C1043 C1045 1.561 . S
C1043 C1046 1.526 . S
C1044 H1028 0.959 . S
C1044 H1029 0.959 . S
C1044 H1030 0.961 . S
C1044 C1043 1.502 . S
C1045 H1031 0.960 . S
C1045 H1032 0.961 . S
C1045 H1033 0.959 . S
C1045 C1043 1.561 . S
C1046 C1043 1.526 . S
C1046 C1047 1.396 . S
C1046 C1051 1.390 . S
C1047 C1041 1.465 . S
C1047 C1046 1.396 . S
C1047 C1048 1.399 . S
C1048 H1034 0.929 . S
C1048 C1047 1.399 . S
C1048 C1049 1.385 . S
C1049 H1035 0.931 . S
C1049 C1048 1.385 . S
C1049 C1050 1.389 . S
C1050 C1049 1.389 . S
C1050 C1051 1.387 . S
C1051 H1036 0.930 . S
C1051 C1046 1.390 . S
C1051 C1050 1.387 . S
H1052 C1064 0.930 . S
H1053 C1066 0.930 . S
H1054 C1067 0.930 . S
H1055 C1071 0.959 . S
H1056 C1071 0.959 . S
H1057 C1071 0.961 . S
H1058 C1072 0.960 . S
H1059 C1072 0.961 . S
H1060 C1072 0.959 . S
H1061 C1075 0.929 . S
H1062 C1076 0.931 . S
H1063 C1078 0.930 . S
C1064 H1052 0.930 . S
C1064 C1065 1.399 . S
C1064 C1069 1.399 . S
C1065 C1064 1.399 . S
C1065 C1066 1.376 . S
C1066 H1053 0.930 . S
C1066 C1065 1.376 . S
C1066 C1067 1.388 . S
C1067 H1054 0.930 . S
C1067 C1066 1.388 . S
C1067 C1068 1.390 . S
C1068 C1067 1.390 . S
C1068 C1069 1.394 . S
C1068 C1074 1.465 . S
C1069 C1064 1.399 . S
C1069 C1068 1.394 . S
C1069 C1070 1.516 . S
C1070 C1069 1.516 . S
C1070 C1071 1.502 . S
C1070 C1072 1.561 . S
C1070 C1073 1.526 . S
C1071 H1055 0.959 . S
C1071 H1056 0.959 . S
C1071 H1057 0.961 . S
C1071 C1070 1.502 . S
C1072 H1058 0.960 . S
C1072 H1059 0.961 . S
C1072 H1060 0.959 . S
C1072 C1070 1.561 . S
C1073 C1070 1.526 . S
C1073 C1074 1.396 . S
C1073 C1078 1.390 . S
C1074 C1068 1.465 . S
C1074 C1073 1.396 . S
C1074 C1075 1.399 . S
C1075 H1061 0.929 . S
C1075 C1074 1.399 . S
C1075 C1076 1.385 . S
C1076 H1062 0.931 . S
C1076 C1075 1.385 . S
C1076 C1077 1.389 . S
C1077 C1076 1.389 . S
C1077 C1078 1.387 . S
C1078 H1063 0.930 . S
C1078 C1073 1.390 . S
C1078 C1077 1.387 . S
H1079 C1091 0.930 . S
H1080 C1093 0.930 . S
H1081 C1094 0.930 . S
H1082 C1098 0.959 . S
H1083 C1098 0.959 . S
H1084 C1098 0.961 . S
H1085 C1099 0.960 . S
H1086 C1099 0.961 . S
H1087 C1099 0.959 . S
H1088 C1102 0.929 . S
H1089 C1103 0.931 . S
H1090 C1105 0.930 . S
C1091 H1079 0.930 . S
C1091 C1092 1.399 . S
C1091 C1096 1.399 . S
C1092 C1091 1.399 . S
C1092 C1093 1.376 . S
C1093 H1080 0.930 . S
C1093 C1092 1.376 . S
C1093 C1094 1.388 . S
C1094 H1081 0.930 . S
C1094 C1093 1.388 . S
C1094 C1095 1.390 . S
C1095 C1094 1.390 . S
C1095 C1096 1.394 . S
C1095 C1101 1.465 . S
C1096 C1091 1.399 . S
C1096 C1095 1.394 . S
C1096 C1097 1.516 . S
C1097 C1096 1.516 . S
C1097 C1098 1.502 . S
C1097 C1099 1.561 . S
C1097 C1100 1.526 . S
C1098 H1082 0.959 . S
C1098 H1083 0.959 . S
C1098 H1084 0.961 . S
C1098 C1097 1.502 . S
C1099 H1085 0.960 . S
C1099 H1086 0.961 . S
C1099 H1087 0.959 . S
C1099 C1097 1.561 . S
C1100 C1097 1.526 . S
C1100 C1101 1.396 . S
C1100 C1105 1.390 . S
C1101 C1095 1.465 . S
C1101 C1100 1.396 . S
C1101 C1102 1.399 . S
C1102 H1088 0.929 . S
C1102 C1101 1.399 . S
C1102 C1103 1.385 . S
C1103 H1089 0.931 . S
C1103 C1102 1.385 . S
C1103 C1104 1.389 . S
C1104 C1103 1.389 . S
C1104 C1105 1.387 . S
C1105 H1090 0.930 . S
C1105 C1100 1.390 . S
C1105 C1104 1.387 . S
H1106 C1118 0.930 . S
H1107 C1120 0.930 . S
H1108 C1121 0.930 . S
H1109 C1125 0.959 . S
H1110 C1125 0.959 . S
H1111 C1125 0.961 . S
H1112 C1126 0.960 . S
H1113 C1126 0.961 . S
H1114 C1126 0.959 . S
H1115 C1129 0.929 . S
H1116 C1130 0.931 . S
H1117 C1132 0.930 . S
C1118 H1106 0.930 . S
C1118 C1119 1.399 . S
C1118 C1123 1.399 . S
C1119 C1118 1.399 . S
C1119 C1120 1.376 . S
C1120 H1107 0.930 . S
C1120 C1119 1.376 . S
C1120 C1121 1.388 . S
C1121 H1108 0.930 . S
C1121 C1120 1.388 . S
C1121 C1122 1.390 . S
C1122 C1121 1.390 . S
C1122 C1123 1.394 . S
C1122 C1128 1.465 . S
C1123 C1118 1.399 . S
C1123 C1122 1.394 . S
C1123 C1124 1.516 . S
C1124 C1123 1.516 . S
C1124 C1125 1.502 . S
C1124 C1126 1.561 . S
C1124 C1127 1.526 . S
C1125 H1109 0.959 . S
C1125 H1110 0.959 . S
C1125 H1111 0.961 . S
C1125 C1124 1.502 . S
C1126 H1112 0.960 . S
C1126 H1113 0.961 . S
C1126 H1114 0.959 . S
C1126 C1124 1.561 . S
C1127 C1124 1.526 . S
C1127 C1128 1.396 . S
C1127 C1132 1.390 . S
C1128 C1122 1.465 . S
C1128 C1127 1.396 . S
C1128 C1129 1.399 . S
C1129 H1115 0.929 . S
C1129 C1128 1.399 . S
C1129 C1130 1.385 . S
C1130 H1116 0.931 . S
C1130 C1129 1.385 . S
C1130 C1131 1.389 . S
C1131 C1130 1.389 . S
C1131 C1132 1.387 . S
C1132 H1117 0.930 . S
C1132 C1127 1.390 . S
C1132 C1131 1.387 . S
H1133 C1145 0.930 . S
H1134 C1147 0.930 . S
H1135 C1148 0.930 . S
H1136 C1152 0.959 . S
H1137 C1152 0.959 . S
H1138 C1152 0.961 . S
H1139 C1153 0.960 . S
H1140 C1153 0.961 . S
H1141 C1153 0.959 . S
H1142 C1156 0.929 . S
H1143 C1157 0.931 . S
H1144 C1159 0.930 . S
C1145 H1133 0.930 . S
C1145 C1146 1.399 . S
C1145 C1150 1.399 . S
C1146 C1145 1.399 . S
C1146 C1147 1.376 . S
C1147 H1134 0.930 . S
C1147 C1146 1.376 . S
C1147 C1148 1.388 . S
C1148 H1135 0.930 . S
C1148 C1147 1.388 . S
C1148 C1149 1.390 . S
C1149 C1148 1.390 . S
C1149 C1150 1.394 . S
C1149 C1155 1.465 . S
C1150 C1145 1.399 . S
C1150 C1149 1.394 . S
C1150 C1151 1.516 . S
C1151 C1150 1.516 . S
C1151 C1152 1.502 . S
C1151 C1153 1.561 . S
C1151 C1154 1.526 . S
C1152 H1136 0.959 . S
C1152 H1137 0.959 . S
C1152 H1138 0.961 . S
C1152 C1151 1.502 . S
C1153 H1139 0.960 . S
C1153 H1140 0.961 . S
C1153 H1141 0.959 . S
C1153 C1151 1.561 . S
C1154 C1151 1.526 . S
C1154 C1155 1.396 . S
C1154 C1159 1.390 . S
C1155 C1149 1.465 . S
C1155 C1154 1.396 . S
C1155 C1156 1.399 . S
C1156 H1142 0.929 . S
C1156 C1155 1.399 . S
C1156 C1157 1.385 . S
C1157 H1143 0.931 . S
C1157 C1156 1.385 . S
C1157 C1158 1.389 . S
C1158 C1157 1.389 . S
C1158 C1159 1.387 . S
C1159 H1144 0.930 . S
C1159 C1154 1.390 . S
C1159 C1158 1.387 . S
C321 C185 1.549 . S
C309 C16 1.565 . S
C348 C211 1.567 . S
C336 C30 1.571 . S
C375 C225 1.590 . S
C363 C53 1.575 . S
C402 C227 1.610 . S
C390 C76 1.622 . S
C417 N104 1.456 . S
C429 C224 1.450 . S
C456 C226 1.489 . S
C444 N127 1.425 . S
C483 C184 1.473 1_655 S
C471 N140 1.442 . S
C510 C210 1.458 1_565 S
C498 N173 1.451 . S
C537 C212 1.574 . S
C525 C168 1.587 . S
C564 C238 1.570 . S
C552 C99 1.586 . S
C591 C196 1.575 . S
C579 C122 1.565 . S
C618 C198 1.563 . S
C606 C154 1.535 . S
C645 C197 1.476 1_655 S
C633 N35 1.399 . S
C672 C199 1.457 1_565 S
C660 N58 1.446 . S
C699 C213 1.472 . S
C687 N81 1.390 . S
C726 C239 1.484 . S
C714 N2 1.430 . S
C753 C241 1.570 . S
C741 C177 1.563 . S
C768 C108 1.575 . S
C780 C267 1.552 . S
C795 C131 1.571 . S
C807 C280 1.576 . S
C822 C145 1.597 . S
C834 C283 1.579 . S
C849 N25 1.440 . S
C861 C281 1.476 . S
C876 N48 1.435 . S
C888 C282 1.490 . S
C903 N71 1.444 . S
C915 C240 1.479 . S
C942 C266 1.474 . S
C930 N12 1.406 . S
C969 C269 1.577 . S
C957 C7 1.571 . S
C984 C39 1.586 . S
C996 C294 1.564 . S
C1011 C62 1.548 . S
C1023 C252 1.577 . S
C1038 C85 1.550 . S
C1050 C254 1.561 . S
C1077 C253 1.467 . S
C1065 N94 1.430 . S
C1104 C255 1.466 . S
C1092 N117 1.402 . S
C1119 N150 1.394 . S
C1131 C268 1.473 . S
C1158 C295 1.483 . S
C1146 N163 1.408 . S
