# Generated by pormake.
# Topology pyr, (3,6)-cn, num edge types: 1
# Building blocks:
#     Node 0, Type 0, BuildingBlock: OLANEW_clean_sbu_2, # of connection points: 3
#     Node 1, Type 0, BuildingBlock: OLANEW_clean_sbu_2, # of connection points: 3
#     Node 2, Type 0, BuildingBlock: OLANEW_clean_sbu_2, # of connection points: 3
#     Node 3, Type 0, BuildingBlock: OLANEW_clean_sbu_2, # of connection points: 3
#     Node 4, Type 0, BuildingBlock: OLANEW_clean_sbu_2, # of connection points: 3
#     Node 5, Type 0, BuildingBlock: OLANEW_clean_sbu_2, # of connection points: 3
#     Node 6, Type 0, BuildingBlock: OLANEW_clean_sbu_2, # of connection points: 3
#     Node 7, Type 0, BuildingBlock: OLANEW_clean_sbu_2, # of connection points: 3
#     Node 8, Type 1, BuildingBlock: PAMTOO_clean_sbu_0, # of connection points: 6
#     Node 9, Type 1, BuildingBlock: PAMTOO_clean_sbu_0, # of connection points: 6
#     Node 10, Type 1, BuildingBlock: PAMTOO_clean_sbu_0, # of connection points: 6
#     Node 11, Type 1, BuildingBlock: PAMTOO_clean_sbu_0, # of connection points: 6
#     Edge 12, Type (0, 1), None
#     Edge 13, Type (0, 1), None
#     Edge 14, Type (0, 1), None
#     Edge 15, Type (0, 1), None
#     Edge 16, Type (0, 1), None
#     Edge 17, Type (0, 1), None
#     Edge 18, Type (0, 1), None
#     Edge 19, Type (0, 1), None
#     Edge 20, Type (0, 1), None
#     Edge 21, Type (0, 1), None
#     Edge 22, Type (0, 1), None
#     Edge 23, Type (0, 1), None
#     Edge 24, Type (0, 1), None
#     Edge 25, Type (0, 1), None
#     Edge 26, Type (0, 1), None
#     Edge 27, Type (0, 1), None
#     Edge 28, Type (0, 1), None
#     Edge 29, Type (0, 1), None
#     Edge 30, Type (0, 1), None
#     Edge 31, Type (0, 1), None
#     Edge 32, Type (0, 1), None
#     Edge 33, Type (0, 1), None
#     Edge 34, Type (0, 1), None
#     Edge 35, Type (0, 1), None
# Relax obj value: 0.352
# Max RMSD: 0.246
# Mean RMSD: 0.138
data_MOF--net-pyr--node1-OLANEW_clean_sbu_2--node2-PAMTOO_clean_sbu_0--edge1-none
_symmetry_space_group_name_H-M    P1
_symmetry_Int_Tables_number       1
_symmetry_cell_setting            triclinic
loop_
_symmetry_equiv_pos_as_xyz
'x, y, z'
_cell_length_a     19.407871
_cell_length_b     21.363417
_cell_length_c     20.146996
_cell_angle_alpha  95.732347
_cell_angle_beta   87.856239
_cell_angle_gamma 108.91747
loop_
_atom_site_label
_atom_site_type_symbol
_atom_site_fract_x
_atom_site_fract_y
_atom_site_fract_z
_atom_type_partial_charge
O0 O 0.39924 0.2536 0.30836 0.0
Cd1 Cd 0.38958 0.36717 0.31818 0.0
O2 O 0.47343 0.27728 0.39371 0.0
Cd3 Cd 0.54324 0.25213 0.46144 0.0
O4 O 0.59601 0.22876 0.54511 0.0
C5 C 0.56185 0.19433 0.59128 0.0
O6 O 0.59873 0.18799 0.64214 0.0
C7 C 0.44074 0.23693 0.34568 0.0
C8 C 0.26121 0.3858 0.2763 0.0
O9 O 0.30841 0.37632 0.23371 0.0
O10 O 0.27364 0.38472 0.33816 0.0
O11 O 0.09279 0.88264 0.92822 0.0
Cd12 Cd 0.06004 0.84108 0.81394 0.0
O13 O 1.00301 0.91845 0.96362 0.0
Cd14 Cd 0.96451 0.88897 0.86173 0.0
O15 O 0.99327 0.9222 0.76273 0.0
C16 C 0.98658 0.97892 0.76016 0.0
O17 O 0.95978 1.00563 0.81217 0.0
C18 C 0.06295 0.90954 0.97453 0.0
C19 C 0.18584 0.81407 0.7773 0.0
O20 O 0.12918 0.76832 0.79556 0.0
O21 O 0.18042 0.8712 0.76999 0.0
O22 O 0.7473 0.51553 0.97505 0.0
Cd23 Cd 0.62705 0.48329 0.91272 0.0
O24 O 0.73238 0.44929 1.05769 0.0
Cd25 Cd 0.62074 0.37638 1.05991 0.0
O26 O 0.54738 0.2867 0.10468 0.0
C27 C 0.58122 0.25585 0.13471 0.0
O28 O 0.65275 0.2786 0.13536 0.0
C29 C 0.77203 0.49658 1.02514 0.0
C30 C 0.59228 0.54834 0.80602 0.0
O31 O 0.58178 0.56568 0.86737 0.0
O32 O 0.62305 0.5035 0.7943 0.0
O33 O 0.97682 0.88467 0.42842 0.0
Cd34 Cd 0.90648 0.7733 0.36555 0.0
O35 O 0.89131 0.87243 0.50645 0.0
Cd36 Cd 0.82398 0.77056 0.48374 0.0
O37 O 0.72939 0.70466 0.5309 0.0
C38 C 0.70916 0.72296 0.58834 0.0
O39 O 0.74686 0.78034 0.6192 0.0
C40 C 0.95022 0.90752 0.48102 0.0
C41 C 0.94392 0.70271 0.24848 0.0
O42 O 0.91477 0.74805 0.24368 0.0
O43 O 0.95973 0.69352 0.30723 0.0
O44 O 0.63885 0.86486 0.74448 0.0
Cd45 Cd 0.60751 0.76396 0.79976 0.0
O46 O 0.63366 0.91846 0.84163 0.0
Cd47 Cd 0.63557 0.98996 0.92894 0.0
O48 O 0.60544 1.01857 1.032 0.0
C49 C 0.53828 1.00544 1.04715 0.0
O50 O 0.48915 0.97717 1.00084 0.0
C51 C 0.64743 0.91968 0.77927 0.0
C52 C 0.73563 0.75939 0.8503 0.0
O53 O 0.71524 0.73411 0.79103 0.0
O54 O 0.69393 0.78497 0.88629 0.0
O55 O 0.01702 0.26263 0.29366 0.0
Cd56 Cd 0.13482 0.29891 0.34488 0.0
O57 O 0.99421 0.32852 0.37635 0.0
Cd58 Cd 0.91344 0.3608 0.43721 0.0
O59 O 0.81508 0.38052 0.47694 0.0
C60 C 0.76289 0.37307 0.43733 0.0
O61 O 0.76973 0.35356 0.37418 0.0
C62 C 0.97155 0.28201 0.32989 0.0
C63 C 0.10937 0.21874 0.44763 0.0
O64 O 0.14506 0.20637 0.39603 0.0
O65 O 0.09019 0.27093 0.4524 0.0
O66 O 0.42569 0.8707 0.34705 0.0
Cd67 Cd 0.37831 0.7533 0.38577 0.0
O68 O 0.36223 0.84396 0.25357 0.0
Cd69 Cd 0.31848 0.73665 0.255 0.0
O70 O 0.22995 0.66472 0.19739 0.0
C71 C 0.20467 0.69081 0.15417 0.0
O72 O 0.23463 0.7545 0.14746 0.0
C73 C 0.40419 0.88771 0.2942 0.0
C74 C 0.43069 0.69611 0.48864 0.0
O75 O 0.43103 0.6731 0.42749 0.0
O76 O 0.40985 0.74727 0.50105 0.0
O77 O 0.11551 0.52841 0.87053 0.0
Cd78 Cd 0.14434 0.47369 0.76311 0.0
O79 O 0.06307 0.43247 0.9118 0.0
Cd80 Cd 0.09213 0.37165 0.82666 0.0
O81 O 0.08559 0.29661 0.74103 0.0
C82 C 0.12521 0.25928 0.73014 0.0
O83 O 0.17802 0.26477 0.77147 0.0
C84 C 0.07986 0.49557 0.91721 0.0
C85 C 0.28417 0.52416 0.70821 0.0
O86 O 0.23672 0.55377 0.70519 0.0
O87 O 0.2668 0.47123 0.73855 0.0
Dy88 Dy 0.12513 0.07435 0.59161 0.0
Dy89 Dy 0.96629 0.10346 0.60391 0.0
C90 C 0.10414 0.20384 0.67723 0.0
O91 O 0.0508 0.99954 0.65517 0.0
O92 O 0.98633 0.06678 0.69783 0.0
O93 O 0.2137 0.05738 0.64085 0.0
O94 O 0.21459 0.05794 0.53344 0.0
O95 O 0.94558 0.9984 0.5589 0.0
O96 O 0.05637 1.00266 0.5119 0.0
O97 O 0.01689 0.14875 0.51206 0.0
O98 O 0.13738 0.15817 0.52962 0.0
O99 O 0.85412 0.08243 0.57422 0.0
O100 O 0.89757 0.15182 0.65966 0.0
C101 C 0.00806 1.01547 0.70115 0.0
O102 O 0.13507 0.15699 0.67371 0.0
O103 O 0.04868 0.19903 0.63972 0.0
C104 C 0.32986 0.09567 0.58723 0.0
C105 C 0.48183 0.16259 0.5893 0.0
C106 C 0.44147 0.15407 0.649 0.0
C107 C 0.36631 0.12112 0.64803 0.0
C108 C 0.37042 0.10409 0.52752 0.0
C109 C 0.44556 0.13722 0.52854 0.0
C110 C 0.25123 0.05636 0.58585 0.0
C111 C 0.98573 0.97403 0.51627 0.0
C112 C 0.08686 0.17233 0.4984 0.0
C113 C 0.77841 0.07636 0.67047 0.0
C114 C 0.68088 0.9814 0.7466 0.0
C115 C 0.66974 0.98063 0.67787 0.0
C116 C 0.71777 1.02784 0.64024 0.0
C117 C 0.78497 0.08137 0.74054 0.0
C118 C 0.73637 1.03431 0.77834 0.0
C119 C 0.83881 0.11468 0.62831 0.0
H120 H 0.46813 0.17265 0.69662 0.0
H121 H 0.33709 0.11476 0.69505 0.0
H122 H 0.34433 0.08375 0.47995 0.0
H123 H 0.47551 0.14052 0.48192 0.0
H124 H 0.627 0.94042 0.65221 0.0
H125 H 0.71051 1.02331 0.58671 0.0
H126 H 0.83054 0.11873 0.76579 0.0
H127 H 0.74647 1.03582 0.8311 0.0
Dy128 Dy 0.39833 0.07402 0.2052 0.0
Dy129 Dy 0.55634 0.09098 0.26805 0.0
C130 C 0.42723 0.95783 0.27733 0.0
O131 O 0.40392 0.12153 0.30877 0.0
O132 O 0.52386 0.17841 0.31071 0.0
O133 O 0.28287 1.03584 0.22483 0.0
O134 O 0.32301 0.09504 0.14176 0.0
O135 O 0.58556 0.16801 0.19619 0.0
O136 O 0.47161 0.17313 0.17345 0.0
O137 O 0.56112 1.04274 0.16379 0.0
O138 O 0.45019 1.03459 0.11803 0.0
O139 O 0.65583 0.06706 0.26945 0.0
O140 O 0.62809 0.12752 0.3526 0.0
C141 C 0.45714 0.17493 0.32759 0.0
O142 O 0.39951 0.97218 0.22447 0.0
O143 O 0.47621 1.00446 0.31299 0.0
C144 C 0.20754 1.01449 0.13116 0.0
C145 C 0.10476 0.93852 1.03593 0.0
C146 C 0.16537 0.91949 1.04971 0.0
C147 C 0.21656 0.95737 0.0969 0.0
C148 C 0.14452 1.03083 0.12145 0.0
C149 C 0.09308 0.99285 0.07419 0.0
C150 C 0.26576 0.0599 0.17323 0.0
C151 C 0.54353 0.1957 0.16894 0.0
C152 C 0.5153 1.02801 0.11331 0.0
C153 C 0.75181 0.15305 0.32392 0.0
C154 C 0.89419 0.2426 0.32674 0.0
C155 C 0.85951 0.21711 0.26547 0.0
C156 C 0.78822 0.17305 0.26402 0.0
C157 C 0.78645 0.17901 0.38493 0.0
C158 C 0.85711 0.22331 0.38635 0.0
C159 C 0.67808 0.10512 0.32437 0.0
H160 H 0.17544 0.87746 1.02132 0.0
H161 H 0.26479 0.94393 0.1044 0.0
H162 H 0.13684 0.07474 0.14809 0.0
H163 H 0.04709 1.00875 1.06446 0.0
H164 H 0.88777 0.23067 0.219 0.0
H165 H 0.76217 0.15393 0.21624 0.0
H166 H 0.75931 0.164 0.43153 0.0
H167 H 0.88388 0.24014 0.43414 0.0
Dy168 Dy 0.50048 0.54911 0.60245 0.0
Dy169 Dy 0.49487 0.68007 0.69838 0.0
C170 C 0.56434 0.57521 0.75082 0.0
O171 O 0.40062 0.51703 0.66718 0.0
O172 O 0.38138 0.61644 0.6741 0.0
O173 O 0.49305 0.44539 0.59054 0.0
O174 O 0.50989 0.50118 0.50427 0.0
O175 O 0.48397 0.70664 0.59599 0.0
O176 O 0.44402 0.60187 0.54107 0.0
O177 O 0.61226 0.70825 0.66908 0.0
O178 O 0.60279 0.62878 0.5801 0.0
O179 O 0.49839 0.78251 0.71718 0.0
O180 O 0.46414 0.716 0.79514 0.0
C181 C 0.35794 0.55309 0.68127 0.0
O182 O 0.57387 0.55456 0.68847 0.0
O183 O 0.52534 0.61495 0.76566 0.0
C184 C 0.57315 0.42403 0.50573 0.0
C185 C 0.69666 0.3888 0.46116 0.0
C186 C 0.68484 0.4021 0.52965 0.0
C187 C 0.62368 0.41947 0.55174 0.0
C188 C 0.58466 0.41036 0.43745 0.0
C189 C 0.64542 0.39239 0.41536 0.0
C190 C 0.51093 0.44679 0.52754 0.0
C191 C 0.45501 0.66653 0.5436 0.0
C192 C 0.63888 0.68414 0.61514 0.0
C193 C 0.39331 0.78365 0.77772 0.0
C194 C 0.25707 0.80312 0.77229 0.0
C195 C 0.3219 0.85675 0.76766 0.0
C196 C 0.3896 0.84702 0.7704 0.0
C197 C 0.32843 0.73002 0.78146 0.0
C198 C 0.26113 0.73971 0.77897 0.0
C199 C 0.46379 0.77155 0.77372 0.0
H200 H 0.72316 0.39965 0.56624 0.0
H201 H 0.61676 0.43046 0.60475 0.0
H202 H 0.54689 0.41424 0.40103 0.0
H203 H 0.65285 0.38253 0.36225 0.0
H204 H 0.3204 0.90638 0.76309 0.0
H205 H 0.43896 0.88873 0.76618 0.0
H206 H 0.32939 0.68019 0.78579 0.0
H207 H 0.21227 0.69746 0.78292 0.0
Dy208 Dy 1.00005 0.64979 1.03325 0.0
Dy209 Dy 0.99094 0.52836 0.12476 0.0
C210 C 0.95865 0.66176 0.18864 0.0
O211 O 0.09999 0.68852 0.09502 0.0
O212 O 0.10857 0.58965 0.12358 0.0
O213 O 0.00762 0.75085 1.01966 0.0
O214 O 1.00383 0.68016 0.93395 0.0
O215 O 0.00976 0.4939 1.01881 0.0
O216 O 0.0706 0.59456 0.98167 0.0
O217 O 0.8737 0.51144 0.09895 0.0
O218 O 0.89208 0.573 1.00852 0.0
O219 O 0.98761 0.42665 0.12964 0.0
O220 O 0.99304 0.49053 0.22037 0.0
C221 C 0.13544 0.65421 0.12116 0.0
O222 O 0.94541 0.67407 0.12847 0.0
O223 O 0.9844 0.61336 0.19766 0.0
C224 C 0.93489 0.75132 0.92783 0.0
C225 C 0.80528 0.75888 0.87646 0.0
C226 C 0.82243 0.77779 0.94417 0.0
C227 C 0.88646 0.77371 0.96974 0.0
C228 C 0.91926 0.73528 0.85958 0.0
C229 C 0.85489 0.73876 0.83413 0.0
C230 C 0.99707 0.73745 0.9555 0.0
C231 C 0.0537 0.52967 0.97574 0.0
C232 C 0.8494 0.52887 1.04561 0.0
C233 C 0.06624 0.41993 0.21477 0.0
C234 C 0.1944 0.39777 0.25489 0.0
C235 C 0.16941 0.37966 0.18893 0.0
C236 C 0.10593 0.39029 0.16916 0.0
C237 C 0.09113 0.43767 0.28081 0.0
C238 C 0.15442 0.4268 0.30061 0.0
C239 C 1.0015 0.43552 0.19327 0.0
H240 H 0.78549 0.79401 0.97787 0.0
H241 H 0.89687 0.78642 1.02263 0.0
H242 H 0.95581 0.71799 0.82628 0.0
H243 H 0.84355 0.72474 0.78151 0.0
H244 H 0.19866 0.35683 0.1526 0.0
H245 H 0.08853 0.37588 0.11785 0.0
H246 H 0.06189 0.46048 0.3172 0.0
H247 H 0.17216 0.44129 0.35184 0.0
loop_
_geom_bond_atom_site_label_1
_geom_bond_atom_site_label_2
_geom_bond_distance
_geom_bond_site_symmetry_2
_ccdc_geom_bond_type
O0 Cd1 2.300 . S
O0 C7 1.275 . S
Cd1 O0 2.300 . S
Cd1 O9 2.381 . S
Cd1 O10 2.378 . S
O2 Cd3 2.385 . S
O2 C7 1.255 . S
Cd3 O2 2.385 . S
Cd3 O4 2.317 . S
O4 Cd3 2.317 . S
O4 C5 1.232 . S
C5 O4 1.232 . S
C5 O6 1.218 . S
O6 C5 1.218 . S
C7 O0 1.275 . S
C7 O2 1.255 . S
C8 O9 1.258 . S
C8 O10 1.256 . S
O9 Cd1 2.381 . S
O9 C8 1.258 . S
O10 Cd1 2.378 . S
O10 C8 1.256 . S
O11 Cd12 2.300 . S
O11 C18 1.275 . S
Cd12 O11 2.300 . S
Cd12 O20 2.381 . S
Cd12 O21 2.378 . S
O13 Cd14 2.385 . S
O13 C18 1.255 1_655 S
Cd14 O13 2.385 . S
Cd14 O15 2.317 . S
O15 Cd14 2.317 . S
O15 C16 1.232 . S
C16 O15 1.232 . S
C16 O17 1.218 . S
O17 C16 1.218 . S
C18 O11 1.275 . S
C18 O13 1.255 1_455 S
C19 O20 1.258 . S
C19 O21 1.256 . S
O20 Cd12 2.381 . S
O20 C19 1.258 . S
O21 Cd12 2.378 . S
O21 C19 1.256 . S
O22 Cd23 2.300 . S
O22 C29 1.275 . S
Cd23 O22 2.300 . S
Cd23 O31 2.381 . S
Cd23 O32 2.378 . S
O24 Cd25 2.385 . S
O24 C29 1.255 . S
Cd25 O24 2.385 . S
Cd25 O26 2.317 . S
O26 Cd25 2.317 . S
O26 C27 1.232 . S
C27 O26 1.232 . S
C27 O28 1.218 . S
O28 C27 1.218 . S
C29 O22 1.275 . S
C29 O24 1.255 . S
C30 O31 1.258 . S
C30 O32 1.256 . S
O31 Cd23 2.381 . S
O31 C30 1.258 . S
O32 Cd23 2.378 . S
O32 C30 1.256 . S
O33 Cd34 2.300 . S
O33 C40 1.275 . S
Cd34 O33 2.300 . S
Cd34 O42 2.381 . S
Cd34 O43 2.378 . S
O35 Cd36 2.385 . S
O35 C40 1.255 . S
Cd36 O35 2.385 . S
Cd36 O37 2.317 . S
O37 Cd36 2.317 . S
O37 C38 1.232 . S
C38 O37 1.232 . S
C38 O39 1.218 . S
O39 C38 1.218 . S
C40 O33 1.275 . S
C40 O35 1.255 . S
C41 O42 1.258 . S
C41 O43 1.256 . S
O42 Cd34 2.381 . S
O42 C41 1.258 . S
O43 Cd34 2.378 . S
O43 C41 1.256 . S
O44 Cd45 2.300 . S
O44 C51 1.275 . S
Cd45 O44 2.300 . S
Cd45 O53 2.381 . S
Cd45 O54 2.378 . S
O46 Cd47 2.385 . S
O46 C51 1.255 . S
Cd47 O46 2.385 . S
Cd47 O48 2.317 . S
O48 Cd47 2.317 . S
O48 C49 1.232 . S
C49 O48 1.232 . S
C49 O50 1.218 . S
O50 C49 1.218 . S
C51 O44 1.275 . S
C51 O46 1.255 . S
C52 O53 1.258 . S
C52 O54 1.256 . S
O53 Cd45 2.381 . S
O53 C52 1.258 . S
O54 Cd45 2.378 . S
O54 C52 1.256 . S
O55 Cd56 2.300 1_655 S
O55 C62 1.275 . S
Cd56 O55 2.300 1_455 S
Cd56 O64 2.381 . S
Cd56 O65 2.378 . S
O57 Cd58 2.385 1_655 S
O57 C62 1.255 . S
Cd58 O57 2.385 1_455 S
Cd58 O59 2.317 1_455 S
O59 Cd58 2.317 1_655 S
O59 C60 1.232 . S
C60 O59 1.232 . S
C60 O61 1.218 . S
O61 C60 1.218 . S
C62 O55 1.275 . S
C62 O57 1.255 . S
C63 O64 1.258 . S
C63 O65 1.256 . S
O64 Cd56 2.381 . S
O64 C63 1.258 . S
O65 Cd56 2.378 . S
O65 C63 1.256 . S
O66 Cd67 2.300 . S
O66 C73 1.275 . S
Cd67 O66 2.300 . S
Cd67 O75 2.381 . S
Cd67 O76 2.378 . S
O68 Cd69 2.385 . S
O68 C73 1.255 . S
Cd69 O68 2.385 . S
Cd69 O70 2.317 . S
O70 Cd69 2.317 . S
O70 C71 1.232 . S
C71 O70 1.232 . S
C71 O72 1.218 . S
O72 C71 1.218 . S
C73 O66 1.275 . S
C73 O68 1.255 . S
C74 O75 1.258 . S
C74 O76 1.256 . S
O75 Cd67 2.381 . S
O75 C74 1.258 . S
O76 Cd67 2.378 . S
O76 C74 1.256 . S
O77 Cd78 2.300 . S
O77 C84 1.275 . S
Cd78 O77 2.300 . S
Cd78 O86 2.381 . S
Cd78 O87 2.378 . S
O79 Cd80 2.385 . S
O79 C84 1.255 . S
Cd80 O79 2.385 . S
Cd80 O81 2.317 . S
O81 Cd80 2.317 . S
O81 C82 1.232 . S
C82 O81 1.232 . S
C82 O83 1.218 1_455 S
O83 C82 1.218 1_655 S
C84 O77 1.275 . S
C84 O79 1.255 . S
C85 O86 1.258 . S
C85 O87 1.256 . S
O86 Cd78 2.381 . S
O86 C85 1.258 . S
O87 Cd78 2.378 . S
O87 C85 1.256 . S
Dy88 O91 2.307 1_545 S
Dy88 O93 2.395 . S
Dy88 O94 2.379 . S
Dy88 O96 2.339 1_545 S
Dy88 O98 2.298 . S
Dy88 O102 2.275 . S
Dy88 C110 2.738 . S
Dy89 O92 2.298 1_545 S
Dy89 O95 2.275 1_545 S
Dy89 O97 2.307 . S
Dy89 O99 2.395 1_545 S
Dy89 O100 2.379 1_545 S
Dy89 O103 2.339 . S
Dy89 C119 2.738 1_545 S
C90 O102 1.254 . S
C90 O103 1.257 1_455 S
O91 Dy88 2.307 1_565 S
O91 C101 1.266 . S
O92 Dy89 2.298 1_565 S
O92 C101 1.236 1_655 S
O93 Dy88 2.395 . S
O93 C110 1.255 . S
O94 Dy88 2.379 . S
O94 C110 1.249 . S
O95 Dy89 2.275 1_565 S
O95 C111 1.254 . S
O96 Dy88 2.339 1_565 S
O96 C111 1.257 1_455 S
O97 Dy89 2.307 . S
O97 C112 1.266 . S
O98 Dy88 2.298 . S
O98 C112 1.236 1_455 S
O99 Dy89 2.395 1_565 S
O99 C119 1.255 . S
O100 Dy89 2.379 1_565 S
O100 C119 1.249 . S
C101 O91 1.266 . S
C101 O92 1.236 1_455 S
O102 Dy88 2.275 . S
O102 C90 1.254 . S
O103 Dy89 2.339 . S
O103 C90 1.257 1_655 S
C104 C107 1.344 . S
C104 C108 1.328 . S
C104 C110 1.516 . S
C105 C106 1.304 . S
C105 C109 1.323 . S
C106 C105 1.304 . S
C106 C107 1.371 . S
C106 H120 0.930 . S
C107 C104 1.344 . S
C107 C106 1.371 . S
C107 H121 0.931 . S
C108 C104 1.328 . S
C108 C109 1.433 . S
C108 H122 0.931 . S
C109 C105 1.323 . S
C109 C108 1.433 . S
C109 H123 0.933 . S
C110 Dy88 2.738 . S
C110 O93 1.255 . S
C110 O94 1.249 . S
C110 C104 1.516 . S
C111 O95 1.254 . S
C111 O96 1.257 1_655 S
C112 O97 1.266 . S
C112 O98 1.236 1_655 S
C113 C116 1.344 . S
C113 C117 1.328 . S
C113 C119 1.516 . S
C114 C115 1.304 . S
C114 C118 1.323 . S
C115 C114 1.304 . S
C115 C116 1.371 . S
C115 H124 0.930 . S
C116 C113 1.344 . S
C116 C115 1.371 . S
C116 H125 0.931 . S
C117 C113 1.328 . S
C117 C118 1.433 . S
C117 H126 0.931 . S
C118 C114 1.323 . S
C118 C117 1.433 . S
C118 H127 0.933 . S
C119 Dy89 2.738 1_565 S
C119 O99 1.255 . S
C119 O100 1.249 . S
C119 C113 1.516 . S
H120 C106 0.930 . S
H121 C107 0.931 . S
H122 C108 0.931 . S
H123 C109 0.933 . S
H124 C115 0.930 . S
H125 C116 0.931 . S
H126 C117 0.931 . S
H127 C118 0.933 . S
Dy128 O131 2.307 . S
Dy128 O133 2.395 1_545 S
Dy128 O134 2.379 1_554 S
Dy128 O136 2.339 . S
Dy128 O138 2.298 1_544 S
Dy128 O142 2.275 1_545 S
Dy128 C150 2.738 1_544 S
Dy129 O132 2.298 . S
Dy129 O135 2.275 . S
Dy129 O137 2.307 1_545 S
Dy129 O139 2.395 . S
Dy129 O140 2.379 . S
Dy129 O143 2.339 1_545 S
Dy129 C159 2.738 . S
C130 O142 1.254 . S
C130 O143 1.257 . S
O131 Dy128 2.307 . S
O131 C141 1.266 . S
O132 Dy129 2.298 . S
O132 C141 1.236 . S
O133 Dy128 2.395 1_565 S
O133 C150 1.255 1_554 S
O134 Dy128 2.379 1_556 S
O134 C150 1.249 1_545 S
O135 Dy129 2.275 . S
O135 C151 1.254 . S
O136 Dy128 2.339 . S
O136 C151 1.257 . S
O137 Dy129 2.307 1_565 S
O137 C152 1.266 . S
O138 Dy128 2.298 1_566 S
O138 C152 1.236 1_556 S
O139 Dy129 2.395 . S
O139 C159 1.255 . S
O140 Dy129 2.379 . S
O140 C159 1.249 . S
C141 O131 1.266 . S
C141 O132 1.236 . S
O142 Dy128 2.275 1_565 S
O142 C130 1.254 . S
O143 Dy129 2.339 1_565 S
O143 C130 1.257 . S
C144 C147 1.344 . S
C144 C148 1.328 . S
C144 C150 1.516 . S
C145 C146 1.304 . S
C145 C149 1.323 . S
C146 C145 1.304 . S
C146 C147 1.371 . S
C146 H160 0.930 . S
C147 C144 1.344 . S
C147 C146 1.371 . S
C147 H161 0.931 . S
C148 C144 1.328 . S
C148 C149 1.433 . S
C148 H162 0.931 . S
C149 C145 1.323 . S
C149 C148 1.433 . S
C149 H163 0.933 . S
C150 Dy128 2.738 1_566 S
C150 O133 1.255 1_556 S
C150 O134 1.249 1_565 S
C150 C144 1.516 . S
C151 O135 1.254 . S
C151 O136 1.257 . S
C152 O137 1.266 . S
C152 O138 1.236 1_554 S
C153 C156 1.344 . S
C153 C157 1.328 . S
C153 C159 1.516 . S
C154 C155 1.304 . S
C154 C158 1.323 . S
C155 C154 1.304 . S
C155 C156 1.371 . S
C155 H164 0.930 . S
C156 C153 1.344 . S
C156 C155 1.371 . S
C156 H165 0.931 . S
C157 C153 1.328 . S
C157 C158 1.433 . S
C157 H166 0.931 . S
C158 C154 1.323 . S
C158 C157 1.433 . S
C158 H167 0.933 . S
C159 Dy129 2.738 . S
C159 O139 1.255 . S
C159 O140 1.249 . S
C159 C153 1.516 . S
H160 C146 0.930 . S
H161 C147 0.931 . S
H162 C148 0.931 . S
H163 C149 0.933 . S
H164 C155 0.930 . S
H165 C156 0.931 . S
H166 C157 0.931 . S
H167 C158 0.933 . S
Dy168 O171 2.307 . S
Dy168 O173 2.395 . S
Dy168 O174 2.379 . S
Dy168 O176 2.339 . S
Dy168 O178 2.298 . S
Dy168 O182 2.275 . S
Dy168 C190 2.738 . S
Dy169 O172 2.298 . S
Dy169 O175 2.275 . S
Dy169 O177 2.307 . S
Dy169 O179 2.395 . S
Dy169 O180 2.379 . S
Dy169 O183 2.339 . S
Dy169 C199 2.738 . S
C170 O182 1.254 . S
C170 O183 1.257 . S
O171 Dy168 2.307 . S
O171 C181 1.266 . S
O172 Dy169 2.298 . S
O172 C181 1.236 . S
O173 Dy168 2.395 . S
O173 C190 1.255 . S
O174 Dy168 2.379 . S
O174 C190 1.249 . S
O175 Dy169 2.275 . S
O175 C191 1.254 . S
O176 Dy168 2.339 . S
O176 C191 1.257 . S
O177 Dy169 2.307 . S
O177 C192 1.266 . S
O178 Dy168 2.298 . S
O178 C192 1.236 . S
O179 Dy169 2.395 . S
O179 C199 1.255 . S
O180 Dy169 2.379 . S
O180 C199 1.249 . S
C181 O171 1.266 . S
C181 O172 1.236 . S
O182 Dy168 2.275 . S
O182 C170 1.254 . S
O183 Dy169 2.339 . S
O183 C170 1.257 . S
C184 C187 1.344 . S
C184 C188 1.328 . S
C184 C190 1.516 . S
C185 C186 1.304 . S
C185 C189 1.323 . S
C186 C185 1.304 . S
C186 C187 1.371 . S
C186 H200 0.930 . S
C187 C184 1.344 . S
C187 C186 1.371 . S
C187 H201 0.931 . S
C188 C184 1.328 . S
C188 C189 1.433 . S
C188 H202 0.931 . S
C189 C185 1.323 . S
C189 C188 1.433 . S
C189 H203 0.933 . S
C190 Dy168 2.738 . S
C190 O173 1.255 . S
C190 O174 1.249 . S
C190 C184 1.516 . S
C191 O175 1.254 . S
C191 O176 1.257 . S
C192 O177 1.266 . S
C192 O178 1.236 . S
C193 C196 1.344 . S
C193 C197 1.328 . S
C193 C199 1.516 . S
C194 C195 1.304 . S
C194 C198 1.323 . S
C195 C194 1.304 . S
C195 C196 1.371 . S
C195 H204 0.930 . S
C196 C193 1.344 . S
C196 C195 1.371 . S
C196 H205 0.931 . S
C197 C193 1.328 . S
C197 C198 1.433 . S
C197 H206 0.931 . S
C198 C194 1.323 . S
C198 C197 1.433 . S
C198 H207 0.933 . S
C199 Dy169 2.738 . S
C199 O179 1.255 . S
C199 O180 1.249 . S
C199 C193 1.516 . S
H200 C186 0.930 . S
H201 C187 0.931 . S
H202 C188 0.931 . S
H203 C189 0.933 . S
H204 C195 0.930 . S
H205 C196 0.931 . S
H206 C197 0.931 . S
H207 C198 0.933 . S
Dy208 O211 2.307 1_556 S
Dy208 O213 2.395 1_455 S
Dy208 O214 2.379 1_455 S
Dy208 O216 2.339 . S
Dy208 O218 2.298 1_455 S
Dy208 O222 2.275 1_456 S
Dy208 C230 2.738 1_455 S
Dy209 O212 2.298 . S
Dy209 O215 2.275 1_554 S
Dy209 O217 2.307 1_455 S
Dy209 O219 2.395 . S
Dy209 O220 2.379 . S
Dy209 O223 2.339 1_455 S
Dy209 C239 2.738 . S
C210 O222 1.254 . S
C210 O223 1.257 . S
O211 Dy208 2.307 1_554 S
O211 C221 1.266 . S
O212 Dy209 2.298 . S
O212 C221 1.236 . S
O213 Dy208 2.395 1_655 S
O213 C230 1.255 . S
O214 Dy208 2.379 1_655 S
O214 C230 1.249 . S
O215 Dy209 2.275 1_556 S
O215 C231 1.254 . S
O216 Dy208 2.339 . S
O216 C231 1.257 . S
O217 Dy209 2.307 1_655 S
O217 C232 1.266 1_554 S
O218 Dy208 2.298 1_655 S
O218 C232 1.236 . S
O219 Dy209 2.395 . S
O219 C239 1.255 . S
O220 Dy209 2.379 . S
O220 C239 1.249 . S
C221 O211 1.266 . S
C221 O212 1.236 . S
O222 Dy208 2.275 1_654 S
O222 C210 1.254 . S
O223 Dy209 2.339 1_655 S
O223 C210 1.257 . S
C224 C227 1.344 . S
C224 C228 1.328 . S
C224 C230 1.516 . S
C225 C226 1.304 . S
C225 C229 1.323 . S
C226 C225 1.304 . S
C226 C227 1.371 . S
C226 H240 0.930 . S
C227 C224 1.344 . S
C227 C226 1.371 . S
C227 H241 0.931 . S
C228 C224 1.328 . S
C228 C229 1.433 . S
C228 H242 0.931 . S
C229 C225 1.323 . S
C229 C228 1.433 . S
C229 H243 0.933 . S
C230 Dy208 2.738 1_655 S
C230 O213 1.255 . S
C230 O214 1.249 . S
C230 C224 1.516 . S
C231 O215 1.254 . S
C231 O216 1.257 . S
C232 O217 1.266 1_556 S
C232 O218 1.236 . S
C233 C236 1.344 . S
C233 C237 1.328 . S
C233 C239 1.516 . S
C234 C235 1.304 . S
C234 C238 1.323 . S
C235 C234 1.304 . S
C235 C236 1.371 . S
C235 H244 0.930 . S
C236 C233 1.344 . S
C236 C235 1.371 . S
C236 H245 0.931 . S
C237 C233 1.328 . S
C237 C238 1.433 . S
C237 H246 0.931 . S
C238 C234 1.323 . S
C238 C237 1.433 . S
C238 H247 0.933 . S
C239 Dy209 2.738 . S
C239 O219 1.255 . S
C239 O220 1.249 . S
C239 C233 1.516 . S
H240 C226 0.930 . S
H241 C227 0.931 . S
H242 C228 0.931 . S
H243 C229 0.933 . S
H244 C235 0.930 . S
H245 C236 0.931 . S
H246 C237 0.931 . S
H247 C238 0.933 . S
C5 C105 1.398 . S
C18 C145 0.772 . S
C170 C30 3.407 . S
C41 C210 3.441 . S
C141 C7 2.308 . S
C101 C16 3.417 1_455 S
C232 C29 2.400 . S
C192 C38 1.537 . S
C8 C234 2.252 . S
C151 C27 3.106 1_554 S
C40 C111 3.509 . S
C19 C194 2.894 . S
C114 C51 1.261 . S
C62 C154 2.407 . S
C74 C191 3.920 . S
C84 C231 3.535 . S
C49 C152 2.141 1_556 S
C112 C63 3.393 1_655 S
C221 C71 1.842 . S
C181 C85 2.443 . S
C52 C225 3.029 . S
C130 C73 3.956 . S
C90 C82 2.891 . S
C60 C185 2.842 . S
