# Generated by pormake.
# Topology anh, (6,3)-cn, num edge types: 1
# Building blocks:
#     Node 0, Type 0, BuildingBlock: MIFKUJ_clean_sbu_0, # of connection points: 6
#     Node 1, Type 0, BuildingBlock: MIFKUJ_clean_sbu_0, # of connection points: 6
#     Node 2, Type 0, BuildingBlock: MIFKUJ_clean_sbu_0, # of connection points: 6
#     Node 3, Type 1, BuildingBlock: OLANEW_clean_sbu_2, # of connection points: 3
#     Node 4, Type 1, BuildingBlock: OLANEW_clean_sbu_2, # of connection points: 3
#     Node 5, Type 1, BuildingBlock: OLANEW_clean_sbu_2, # of connection points: 3
#     Node 6, Type 1, BuildingBlock: OLANEW_clean_sbu_2, # of connection points: 3
#     Node 7, Type 1, BuildingBlock: OLANEW_clean_sbu_2, # of connection points: 3
#     Node 8, Type 1, BuildingBlock: OLANEW_clean_sbu_2, # of connection points: 3
#     Edge 9, Type (0, 1), BuildingBlock: OJICUG_clean_linker_0, # of connection points: 2
#     Edge 10, Type (0, 1), BuildingBlock: OJICUG_clean_linker_0, # of connection points: 2
#     Edge 11, Type (0, 1), BuildingBlock: OJICUG_clean_linker_0, # of connection points: 2
#     Edge 12, Type (0, 1), BuildingBlock: OJICUG_clean_linker_0, # of connection points: 2
#     Edge 13, Type (0, 1), BuildingBlock: OJICUG_clean_linker_0, # of connection points: 2
#     Edge 14, Type (0, 1), BuildingBlock: OJICUG_clean_linker_0, # of connection points: 2
#     Edge 15, Type (0, 1), BuildingBlock: OJICUG_clean_linker_0, # of connection points: 2
#     Edge 16, Type (0, 1), BuildingBlock: OJICUG_clean_linker_0, # of connection points: 2
#     Edge 17, Type (0, 1), BuildingBlock: OJICUG_clean_linker_0, # of connection points: 2
#     Edge 18, Type (0, 1), BuildingBlock: OJICUG_clean_linker_0, # of connection points: 2
#     Edge 19, Type (0, 1), BuildingBlock: OJICUG_clean_linker_0, # of connection points: 2
#     Edge 20, Type (0, 1), BuildingBlock: OJICUG_clean_linker_0, # of connection points: 2
#     Edge 21, Type (0, 1), BuildingBlock: OJICUG_clean_linker_0, # of connection points: 2
#     Edge 22, Type (0, 1), BuildingBlock: OJICUG_clean_linker_0, # of connection points: 2
#     Edge 23, Type (0, 1), BuildingBlock: OJICUG_clean_linker_0, # of connection points: 2
#     Edge 24, Type (0, 1), BuildingBlock: OJICUG_clean_linker_0, # of connection points: 2
#     Edge 25, Type (0, 1), BuildingBlock: OJICUG_clean_linker_0, # of connection points: 2
#     Edge 26, Type (0, 1), BuildingBlock: OJICUG_clean_linker_0, # of connection points: 2
# Relax obj value: 0.069
# Max RMSD: 0.129
# Mean RMSD: 0.112
data_MOF--net-anh--node1-MIFKUJ_clean_sbu_0--node2-OLANEW_clean_sbu_2--edge1-OJICUG_clean_linker_0
_symmetry_space_group_name_H-M    P1
_symmetry_Int_Tables_number       1
_symmetry_cell_setting            triclinic
loop_
_symmetry_equiv_pos_as_xyz
'x, y, z'
_cell_length_a     25.971751
_cell_length_b     26.111335
_cell_length_c     35.082254
_cell_angle_alpha  93.670313
_cell_angle_beta   90.414327
_cell_angle_gamma 120.31433
loop_
_atom_site_label
_atom_site_type_symbol
_atom_site_fract_x
_atom_site_fract_y
_atom_site_fract_z
_atom_type_partial_charge
Zn0 Zn 0.07096 0.57693 0.16376 0.0
Zn1 Zn 0.95364 0.44616 0.16162 0.0
C2 C 0.13489 0.50638 0.16373 0.0
O3 O 0.08484 0.45761 0.15259 0.0
C4 C 0.86312 0.46552 0.13754 0.0
O5 O 0.85771 0.42243 0.11326 0.0
O6 O 0.12179 0.66576 0.16341 0.0
O7 O 0.0308 0.54846 0.11114 0.0
O8 O 0.98954 0.45092 0.11069 0.0
C9 C 0.16022 0.68416 0.1378 0.0
O10 O 0.15957 0.64515 0.11189 0.0
O11 O 0.13532 0.55512 0.16988 0.0
C12 C 0.84986 0.35671 0.19059 0.0
O13 O 0.86362 0.40285 0.21474 0.0
O14 O 0.88646 0.36165 0.16518 0.0
O15 O 0.00594 0.46848 0.20961 0.0
O16 O 0.023 0.55992 0.21115 0.0
O17 O 0.90786 0.49059 0.1613 0.0
C18 C 0.01068 0.49785 0.09298 0.0
C19 C 0.0161 0.5159 0.22856 0.0
Zn20 Zn 0.54007 0.08688 0.50113 0.0
Zn21 Zn 0.53713 0.96447 0.49374 0.0
C22 C 0.66038 0.16881 0.52299 0.0
O23 O 0.63321 0.17634 0.55243 0.0
C24 C 0.41078 0.88996 0.47 0.0
O25 O 0.43081 0.89532 0.43536 0.0
O26 O 0.53121 0.15903 0.50693 0.0
O27 O 0.50058 0.04266 0.45087 0.0
O28 O 0.56022 0.00608 0.44488 0.0
C29 C 0.50526 0.17506 0.48372 0.0
O30 O 0.47377 0.13909 0.454 0.0
O31 O 0.62962 0.1266 0.4976 0.0
C32 C 0.52848 0.85708 0.51011 0.0
O33 O 0.49585 0.86316 0.53644 0.0
O34 O 0.5559 0.89844 0.48798 0.0
O35 O 0.57476 0.00999 0.54446 0.0
O36 O 0.51381 0.04517 0.5494 0.0
O37 O 0.44709 0.91904 0.49828 0.0
C38 C 0.5287 0.02466 0.4298 0.0
C39 C 0.54602 0.0279 0.56507 0.0
Zn40 Zn 0.60504 0.54653 0.83243 0.0
Zn41 Zn 0.48354 0.53557 0.82771 0.0
C42 C 0.57631 0.43336 0.8568 0.0
O43 O 0.61669 0.46822 0.88364 0.0
C44 C 0.538 0.65581 0.80265 0.0
O45 O 0.51364 0.62796 0.76918 0.0
O46 O 0.69065 0.56681 0.83476 0.0
O47 O 0.59124 0.56837 0.78102 0.0
O48 O 0.49611 0.50035 0.77847 0.0
C49 C 0.70506 0.54106 0.80852 0.0
O50 O 0.66553 0.50814 0.78079 0.0
O51 O 0.56023 0.45675 0.83209 0.0
C52 C 0.3881 0.55413 0.84577 0.0
O53 O 0.43069 0.59543 0.86908 0.0
O54 O 0.39879 0.51898 0.82517 0.0
O55 O 0.49602 0.50721 0.87706 0.0
O56 O 0.58905 0.58092 0.88113 0.0
O57 O 0.53353 0.6259 0.83092 0.0
C58 C 0.54408 0.53114 0.76155 0.0
C59 C 0.54199 0.54507 0.89727 0.0
O60 O 0.48106 0.04493 0.25044 0.0
Cd61 Cd 0.4905 0.06555 0.18329 0.0
O62 O 0.53507 0.00214 0.24398 0.0
Cd63 Cd 0.50719 0.98073 0.18361 0.0
O64 O 0.42395 0.91648 0.15251 0.0
C65 C 0.3767 0.90866 0.16809 0.0
O66 O 0.38181 0.94259 0.19889 0.0
C67 C 0.51056 0.02399 0.26545 0.0
C68 C 0.60695 0.15971 0.17928 0.0
O69 O 0.56393 0.16867 0.18728 0.0
O70 O 0.59461 0.10601 0.17129 0.0
O71 O 0.58906 0.55269 0.57946 0.0
Cd72 Cd 0.59208 0.53802 0.5103 0.0
O73 O 0.49264 0.48892 0.57713 0.0
Cd74 Cd 0.48625 0.51121 0.51926 0.0
O75 O 0.4829 0.5884 0.50277 0.0
C76 C 0.52949 0.63641 0.49546 0.0
O77 O 0.58063 0.63777 0.4933 0.0
C78 C 0.54166 0.52006 0.59652 0.0
C79 C 0.56377 0.42032 0.4958 0.0
O80 O 0.6172 0.46185 0.50535 0.0
O81 O 0.52374 0.43462 0.49143 0.0
O82 O 0.03635 0.5351 0.91148 0.0
Cd83 Cd 0.05291 0.54051 0.84319 0.0
O84 O 0.98373 0.43746 0.90787 0.0
Cd85 Cd 0.96398 0.43962 0.84778 0.0
O86 O 0.90787 0.46703 0.81929 0.0
C87 C 0.9053 0.5096 0.83712 0.0
O88 O 0.93889 0.53531 0.86851 0.0
C89 C 0.01115 0.48684 0.92795 0.0
C90 C 0.16181 0.54549 0.8355 0.0
O91 O 0.15905 0.59283 0.84233 0.0
O92 O 0.11271 0.49566 0.83047 0.0
O93 O 0.06462 0.52824 0.41202 0.0
Cd94 Cd 0.07974 0.56624 0.47908 0.0
O95 O 0.97908 0.52644 0.41042 0.0
Cd96 Cd 0.96069 0.49907 0.4687 0.0
O97 O 0.89797 0.4213 0.4983 0.0
C98 C 0.87913 0.3706 0.48042 0.0
O99 O 0.90081 0.3681 0.44706 0.0
C100 C 0.02188 0.52656 0.39304 0.0
C101 C 0.18304 0.67895 0.48409 0.0
O102 O 0.18408 0.63366 0.49519 0.0
O103 O 0.13306 0.67159 0.47173 0.0
O104 O 0.59982 0.02283 0.74598 0.0
Cd105 Cd 0.62584 0.01758 0.81203 0.0
O106 O 0.54932 0.07028 0.74973 0.0
Cd107 Cd 0.55886 0.09875 0.81045 0.0
O108 O 0.56082 0.17636 0.83975 0.0
C109 C 0.52959 0.19416 0.82319 0.0
O110 O 0.49688 0.1631 0.79237 0.0
C111 C 0.57036 0.04304 0.73003 0.0
C112 C 0.60838 0.90348 0.8167 0.0
O113 O 0.57029 0.91676 0.82978 0.0
O114 O 0.65551 0.9444 0.80264 0.0
O115 O 0.53929 0.50994 0.07849 0.0
Cd116 Cd 0.55904 0.51142 0.14679 0.0
O117 O 0.52722 0.58786 0.07979 0.0
Cd118 Cd 0.49358 0.57797 0.1374 0.0
O119 O 0.41057 0.56526 0.16163 0.0
C120 C 0.36202 0.51739 0.15175 0.0
O121 O 0.36428 0.47549 0.1303 0.0
C122 C 0.53511 0.54912 0.06127 0.0
C123 C 0.65957 0.49845 0.15158 0.0
O124 O 0.60657 0.45333 0.14749 0.0
O125 O 0.66541 0.5503 0.15517 0.0
C126 C 0.1949 0.45647 0.15116 0.0
C127 C 0.19215 0.50666 0.1651 0.0
H128 H 0.25062 0.42036 0.1362 0.0
C129 C 0.24548 0.5587 0.17797 0.0
H130 H 0.15473 0.41562 0.14113 0.0
C131 C 0.30048 0.56134 0.17533 0.0
C132 C 0.3035 0.51212 0.15955 0.0
H133 H 0.24501 0.59811 0.18911 0.0
H134 H 0.34077 0.60273 0.18436 0.0
C135 C 0.24997 0.45922 0.14831 0.0
C136 C 0.75046 0.26915 0.53963 0.0
C137 C 0.72168 0.21637 0.5154 0.0
H138 H 0.82272 0.35925 0.54769 0.0
C139 C 0.74894 0.2128 0.48168 0.0
H140 H 0.73086 0.27344 0.56592 0.0
C141 C 0.8018 0.2621 0.47129 0.0
C142 C 0.82841 0.31614 0.49429 0.0
H143 H 0.72812 0.1728 0.46244 0.0
H144 H 0.82033 0.25852 0.44437 0.0
C145 C 0.80312 0.31853 0.52914 0.0
C146 C 0.5488 0.74472 0.84112 0.0
C147 C 0.56235 0.7205 0.80846 0.0
H148 H 0.55168 0.82185 0.86893 0.0
C149 C 0.59462 0.75776 0.77987 0.0
H150 H 0.52346 0.7167 0.86339 0.0
C151 C 0.61236 0.81816 0.78362 0.0
C152 C 0.59616 0.84173 0.81534 0.0
H153 H 0.60537 0.73996 0.7544 0.0
H154 H 0.6363 0.8458 0.76085 0.0
C155 C 0.56465 0.80465 0.84421 0.0
C156 C 0.81939 0.52942 0.15807 0.0
C157 C 0.81217 0.4756 0.14155 0.0
H158 H 0.77662 0.57939 0.17383 0.0
C159 C 0.75453 0.42928 0.12972 0.0
H160 H 0.86327 0.56567 0.16769 0.0
C161 C 0.70518 0.43649 0.13404 0.0
C162 C 0.71221 0.49061 0.14967 0.0
H163 H 0.74726 0.38684 0.11749 0.0
H164 H 0.66153 0.39981 0.12441 0.0
C165 C 0.76985 0.53715 0.16165 0.0
C166 C 0.30308 0.82423 0.44934 0.0
C167 C 0.3499 0.84128 0.47656 0.0
H168 H 0.21257 0.76012 0.43118 0.0
C169 C 0.33983 0.80701 0.50796 0.0
H170 H 0.30984 0.84975 0.4248 0.0
C171 C 0.28504 0.75477 0.5109 0.0
C172 C 0.23867 0.73699 0.48322 0.0
H173 H 0.37527 0.81877 0.5292 0.0
H174 H 0.27925 0.72774 0.53447 0.0
C175 C 0.24755 0.77308 0.45302 0.0
C176 C 0.5843 0.34611 0.8747 0.0
C177 C 0.55764 0.36945 0.85173 0.0
H178 H 0.59633 0.2724 0.88383 0.0
C179 C 0.51724 0.33251 0.8217 0.0
H180 H 0.61551 0.3733 0.89815 0.0
C181 C 0.50614 0.2746 0.81359 0.0
C182 C 0.53537 0.25239 0.8352 0.0
H183 H 0.49572 0.34896 0.80358 0.0
H184 H 0.47625 0.24806 0.78944 0.0
C185 C 0.57338 0.28824 0.86647 0.0
C186 C 0.57549 0.79792 0.48678 0.0
C187 C 0.52856 0.80068 0.50454 0.0
H188 H 0.61289 0.74342 0.47012 0.0
C189 C 0.48058 0.74851 0.517 0.0
H190 H 0.61287 0.83753 0.47676 0.0
C191 C 0.47987 0.69476 0.51244 0.0
C192 C 0.52771 0.69213 0.49597 0.0
H193 H 0.44334 0.74913 0.53029 0.0
H194 H 0.44255 0.65561 0.52295 0.0
C195 C 0.57541 0.74414 0.48292 0.0
C196 C 0.77144 0.50191 0.78751 0.0
C197 C 0.76124 0.54001 0.81238 0.0
H198 H 0.82519 0.4625 0.77568 0.0
C199 C 0.80257 0.57278 0.84292 0.0
H200 H 0.74058 0.4762 0.76358 0.0
C201 C 0.8512 0.5651 0.84973 0.0
C202 C 0.85934 0.52423 0.82627 0.0
H203 H 0.79621 0.60278 0.86245 0.0
H204 H 0.88099 0.58946 0.87436 0.0
C205 C 0.81993 0.49399 0.79444 0.0
C206 C 0.21526 0.78681 0.17077 0.0
C207 C 0.21134 0.74592 0.14121 0.0
H208 H 0.27045 0.87082 0.20211 0.0
C209 C 0.25979 0.76253 0.11742 0.0
H210 H 0.17857 0.77559 0.18941 0.0
C211 C 0.31265 0.81702 0.12481 0.0
C212 C 0.318 0.85615 0.15601 0.0
H213 H 0.25809 0.73224 0.09419 0.0
H214 H 0.35014 0.82725 0.10708 0.0
C215 C 0.26801 0.84145 0.17803 0.0
C216 C 0.57042 0.28119 0.5079 0.0
C217 C 0.5184 0.23722 0.48737 0.0
H218 H 0.62598 0.37344 0.52587 0.0
C219 C 0.48142 0.25395 0.46912 0.0
H220 H 0.60026 0.26986 0.52191 0.0
C221 C 0.49592 0.31356 0.47182 0.0
C222 C 0.54839 0.35748 0.49199 0.0
H223 H 0.44121 0.22099 0.45299 0.0
H224 H 0.46645 0.32535 0.45783 0.0
C225 C 0.58552 0.34068 0.50986 0.0
C226 C 0.32551 0.60094 0.85527 0.0
C227 C 0.33013 0.55153 0.8421 0.0
H228 H 0.26911 0.63811 0.86278 0.0
C229 C 0.27935 0.50062 0.82523 0.0
H230 H 0.36399 0.64106 0.86804 0.0
C231 C 0.22459 0.49873 0.82252 0.0
C232 C 0.22001 0.54812 0.83597 0.0
H233 H 0.28169 0.46196 0.81474 0.0
H234 H 0.18584 0.45855 0.81007 0.0
C235 C 0.2712 0.59942 0.85197 0.0
C236 C 0.74229 0.31131 0.20434 0.0
C237 C 0.78849 0.30503 0.18846 0.0
H238 H 0.6489 0.27091 0.21315 0.0
C239 C 0.77456 0.25064 0.16885 0.0
H240 H 0.75138 0.35295 0.21912 0.0
C241 C 0.71548 0.20314 0.16568 0.0
C242 C 0.66929 0.20979 0.18135 0.0
H243 H 0.80928 0.24476 0.1561 0.0
H244 H 0.70592 0.16145 0.15077 0.0
C245 C 0.68337 0.26444 0.20056 0.0
C246 C 0.98431 0.43895 0.02922 0.0
C247 C 0.01161 0.49421 0.05078 0.0
H248 H 0.96268 0.39311 0.97338 0.0
C249 C 0.03983 0.54662 0.03162 0.0
H250 H 0.96222 0.39775 0.04314 0.0
C251 C 0.04027 0.54397 0.99184 0.0
C252 C 0.01235 0.48884 0.97018 0.0
H253 H 0.06157 0.58997 0.04731 0.0
H254 H 0.06212 0.58534 0.9781 0.0
C255 C 0.98459 0.43629 0.98927 0.0
C256 C 0.49058 0.04633 0.37082 0.0
C257 C 0.5242 0.02457 0.38776 0.0
H258 H 0.46005 0.06338 0.31902 0.0
C259 C 0.55353 0.00281 0.36413 0.0
H260 H 0.46741 0.06338 0.38819 0.0
C261 C 0.54924 0.00272 0.32441 0.0
C262 C 0.51562 0.02449 0.30749 0.0
H263 H 0.57978 0.98569 0.37626 0.0
H264 H 0.57228 0.98555 0.30701 0.0
C265 C 0.4864 0.04636 0.33114 0.0
C266 C 0.59685 0.56036 0.70035 0.0
C267 C 0.54402 0.52634 0.71934 0.0
H268 H 0.63766 0.58484 0.6467 0.0
C269 C 0.49089 0.48844 0.69759 0.0
H270 H 0.63861 0.58979 0.71628 0.0
C271 C 0.49036 0.48557 0.6577 0.0
C272 C 0.54295 0.52047 0.63869 0.0
H273 H 0.44944 0.46149 0.71133 0.0
H274 H 0.44848 0.45653 0.64179 0.0
C275 C 0.59634 0.55744 0.66045 0.0
C276 C 0.58346 0.00789 0.62517 0.0
C277 C 0.55096 0.03003 0.60724 0.0
H278 H 0.6148 0.99419 0.67797 0.0
C279 C 0.52346 0.05481 0.63001 0.0
H280 H 0.60496 0.98827 0.60844 0.0
C281 C 0.52908 0.05822 0.66982 0.0
C282 C 0.56221 0.03679 0.68782 0.0
H283 H 0.49802 0.07223 0.61712 0.0
H284 H 0.50782 0.0782 0.68644 0.0
C285 C 0.58897 0.01115 0.66505 0.0
C286 C 0.51287 0.49302 0.95718 0.0
C287 C 0.54105 0.54641 0.93918 0.0
H288 H 0.49041 0.45226 0.01031 0.0
C289 C 0.56789 0.60088 0.96148 0.0
H290 H 0.49217 0.45053 0.94045 0.0
C291 C 0.56536 0.6019 0.0013 0.0
C292 C 0.53782 0.54847 0.01935 0.0
H293 H 0.58967 0.64256 0.94806 0.0
H294 H 0.5856 0.64438 0.018 0.0
C295 C 0.51213 0.49404 -0.00299 0.0
C296 C 0.04266 0.49056 0.29026 0.0
C297 C 0.0184 0.51927 0.2706 0.0
H298 H 0.06425 0.4718 0.34484 0.0
C299 C 0.99604 0.55096 0.2914 0.0
H300 H 0.06041 0.46607 0.27474 0.0
C301 C 0.99674 0.55285 0.33128 0.0
C302 C 0.02156 0.52468 0.351 0.0
H303 H 0.97692 0.57325 0.27679 0.0
H304 H 0.97849 0.5769 0.34673 0.0
C305 C 0.04512 0.49406 0.33022 0.0
loop_
_geom_bond_atom_site_label_1
_geom_bond_atom_site_label_2
_geom_bond_distance
_geom_bond_site_symmetry_2
_ccdc_geom_bond_type
Zn0 O6 1.969 . S
Zn0 O7 1.965 . S
Zn0 O11 2.024 . S
Zn0 O16 1.969 . S
Zn1 O8 1.969 . S
Zn1 O14 1.969 . S
Zn1 O15 1.965 . S
Zn1 O17 2.024 . S
C2 O3 1.229 . S
C2 O11 1.058 . S
O3 C2 1.229 . S
C4 O5 1.229 . S
C4 O17 1.058 . S
O5 C4 1.229 . S
O6 Zn0 1.969 . S
O6 C9 1.267 . S
O7 Zn0 1.965 . S
O7 C18 1.260 . S
O8 Zn1 1.969 . S
O8 C18 1.258 1_655 S
C9 O6 1.267 . S
C9 O10 1.228 . S
O10 C9 1.228 . S
O11 Zn0 2.024 . S
O11 C2 1.058 . S
C12 O13 1.228 . S
C12 O14 1.267 . S
O13 C12 1.228 . S
O14 Zn1 1.969 . S
O14 C12 1.267 . S
O15 Zn1 1.965 . S
O15 C19 1.260 1_655 S
O16 Zn0 1.969 . S
O16 C19 1.258 . S
O17 Zn1 2.024 . S
O17 C4 1.058 . S
C18 O7 1.260 . S
C18 O8 1.258 1_455 S
C19 O15 1.260 1_455 S
C19 O16 1.258 . S
Zn20 O26 1.969 . S
Zn20 O27 1.965 . S
Zn20 O31 2.024 . S
Zn20 O36 1.969 . S
Zn21 O28 1.969 . S
Zn21 O34 1.969 . S
Zn21 O35 1.965 . S
Zn21 O37 2.024 . S
C22 O23 1.229 . S
C22 O31 1.058 . S
O23 C22 1.229 . S
C24 O25 1.229 . S
C24 O37 1.058 . S
O25 C24 1.229 . S
O26 Zn20 1.969 . S
O26 C29 1.267 . S
O27 Zn20 1.965 . S
O27 C38 1.260 . S
O28 Zn21 1.969 . S
O28 C38 1.258 1_565 S
C29 O26 1.267 . S
C29 O30 1.228 . S
O30 C29 1.228 . S
O31 Zn20 2.024 . S
O31 C22 1.058 . S
C32 O33 1.228 . S
C32 O34 1.267 . S
O33 C32 1.228 . S
O34 Zn21 1.969 . S
O34 C32 1.267 . S
O35 Zn21 1.965 . S
O35 C39 1.260 1_565 S
O36 Zn20 1.969 . S
O36 C39 1.258 . S
O37 Zn21 2.024 . S
O37 C24 1.058 . S
C38 O27 1.260 . S
C38 O28 1.258 1_545 S
C39 O35 1.260 1_545 S
C39 O36 1.258 . S
Zn40 O46 1.969 . S
Zn40 O47 1.965 . S
Zn40 O51 2.024 . S
Zn40 O56 1.969 . S
Zn41 O48 1.969 . S
Zn41 O54 1.969 . S
Zn41 O55 1.965 . S
Zn41 O57 2.024 . S
C42 O43 1.229 . S
C42 O51 1.058 . S
O43 C42 1.229 . S
C44 O45 1.229 . S
C44 O57 1.058 . S
O45 C44 1.229 . S
O46 Zn40 1.969 . S
O46 C49 1.267 . S
O47 Zn40 1.965 . S
O47 C58 1.260 . S
O48 Zn41 1.969 . S
O48 C58 1.258 . S
C49 O46 1.267 . S
C49 O50 1.228 . S
O50 C49 1.228 . S
O51 Zn40 2.024 . S
O51 C42 1.058 . S
C52 O53 1.228 . S
C52 O54 1.267 . S
O53 C52 1.228 . S
O54 Zn41 1.969 . S
O54 C52 1.267 . S
O55 Zn41 1.965 . S
O55 C59 1.260 . S
O56 Zn40 1.969 . S
O56 C59 1.258 . S
O57 Zn41 2.024 . S
O57 C44 1.058 . S
C58 O47 1.260 . S
C58 O48 1.258 . S
C59 O55 1.260 . S
C59 O56 1.258 . S
O60 Cd61 2.300 . S
O60 C67 1.275 . S
Cd61 O60 2.300 . S
Cd61 O69 2.381 . S
Cd61 O70 2.378 . S
O62 Cd63 2.385 . S
O62 C67 1.255 1_565 S
Cd63 O62 2.385 . S
Cd63 O64 2.317 . S
O64 Cd63 2.317 . S
O64 C65 1.232 . S
C65 O64 1.232 . S
C65 O66 1.218 . S
O66 C65 1.218 . S
C67 O60 1.275 . S
C67 O62 1.255 1_545 S
C68 O69 1.258 . S
C68 O70 1.256 . S
O69 Cd61 2.381 . S
O69 C68 1.258 . S
O70 Cd61 2.378 . S
O70 C68 1.256 . S
O71 Cd72 2.300 . S
O71 C78 1.275 . S
Cd72 O71 2.300 . S
Cd72 O80 2.381 . S
Cd72 O81 2.378 . S
O73 Cd74 2.385 . S
O73 C78 1.255 . S
Cd74 O73 2.385 . S
Cd74 O75 2.317 . S
O75 Cd74 2.317 . S
O75 C76 1.232 . S
C76 O75 1.232 . S
C76 O77 1.218 . S
O77 C76 1.218 . S
C78 O71 1.275 . S
C78 O73 1.255 . S
C79 O80 1.258 . S
C79 O81 1.256 . S
O80 Cd72 2.381 . S
O80 C79 1.258 . S
O81 Cd72 2.378 . S
O81 C79 1.256 . S
O82 Cd83 2.300 . S
O82 C89 1.275 . S
Cd83 O82 2.300 . S
Cd83 O91 2.381 . S
Cd83 O92 2.378 . S
O84 Cd85 2.385 . S
O84 C89 1.255 1_655 S
Cd85 O84 2.385 . S
Cd85 O86 2.317 . S
O86 Cd85 2.317 . S
O86 C87 1.232 . S
C87 O86 1.232 . S
C87 O88 1.218 . S
O88 C87 1.218 . S
C89 O82 1.275 . S
C89 O84 1.255 1_455 S
C90 O91 1.258 . S
C90 O92 1.256 . S
O91 Cd83 2.381 . S
O91 C90 1.258 . S
O92 Cd83 2.378 . S
O92 C90 1.256 . S
O93 Cd94 2.300 . S
O93 C100 1.275 . S
Cd94 O93 2.300 . S
Cd94 O102 2.381 . S
Cd94 O103 2.378 . S
O95 Cd96 2.385 . S
O95 C100 1.255 1_655 S
Cd96 O95 2.385 . S
Cd96 O97 2.317 . S
O97 Cd96 2.317 . S
O97 C98 1.232 . S
C98 O97 1.232 . S
C98 O99 1.218 . S
O99 C98 1.218 . S
C100 O93 1.275 . S
C100 O95 1.255 1_455 S
C101 O102 1.258 . S
C101 O103 1.256 . S
O102 Cd94 2.381 . S
O102 C101 1.258 . S
O103 Cd94 2.378 . S
O103 C101 1.256 . S
O104 Cd105 2.300 . S
O104 C111 1.275 1_565 S
Cd105 O104 2.300 . S
Cd105 O113 2.381 . S
Cd105 O114 2.378 . S
O106 Cd107 2.385 . S
O106 C111 1.255 . S
Cd107 O106 2.385 . S
Cd107 O108 2.317 . S
O108 Cd107 2.317 . S
O108 C109 1.232 . S
C109 O108 1.232 . S
C109 O110 1.218 . S
O110 C109 1.218 . S
C111 O104 1.275 1_545 S
C111 O106 1.255 . S
C112 O113 1.258 . S
C112 O114 1.256 . S
O113 Cd105 2.381 . S
O113 C112 1.258 . S
O114 Cd105 2.378 . S
O114 C112 1.256 . S
O115 Cd116 2.300 . S
O115 C122 1.275 . S
Cd116 O115 2.300 . S
Cd116 O124 2.381 . S
Cd116 O125 2.378 . S
O117 Cd118 2.385 . S
O117 C122 1.255 . S
Cd118 O117 2.385 . S
Cd118 O119 2.317 . S
O119 Cd118 2.317 . S
O119 C120 1.232 . S
C120 O119 1.232 . S
C120 O121 1.218 . S
O121 C120 1.218 . S
C122 O115 1.275 . S
C122 O117 1.255 . S
C123 O124 1.258 . S
C123 O125 1.256 . S
O124 Cd116 2.381 . S
O124 C123 1.258 . S
O125 Cd116 2.378 . S
O125 C123 1.256 . S
C126 C127 1.387 . S
C126 H130 0.950 . S
C126 C135 1.390 . S
C127 C126 1.387 . S
C127 C129 1.387 . S
H128 C135 0.950 . S
C129 C127 1.387 . S
C129 C131 1.390 . S
C129 H133 0.950 . S
H130 C126 0.950 . S
C131 C129 1.390 . S
C131 C132 1.387 . S
C131 H134 0.950 . S
C132 C131 1.387 . S
C132 C135 1.387 . S
H133 C129 0.950 . S
H134 C131 0.950 . S
C135 C126 1.390 . S
C135 H128 0.950 . S
C135 C132 1.387 . S
C136 C137 1.387 . S
C136 H140 0.950 . S
C136 C145 1.390 . S
C137 C136 1.387 . S
C137 C139 1.387 . S
H138 C145 0.950 . S
C139 C137 1.387 . S
C139 C141 1.390 . S
C139 H143 0.950 . S
H140 C136 0.950 . S
C141 C139 1.390 . S
C141 C142 1.387 . S
C141 H144 0.950 . S
C142 C141 1.387 . S
C142 C145 1.387 . S
H143 C139 0.950 . S
H144 C141 0.950 . S
C145 C136 1.390 . S
C145 H138 0.950 . S
C145 C142 1.387 . S
C146 C147 1.387 . S
C146 H150 0.950 . S
C146 C155 1.390 . S
C147 C146 1.387 . S
C147 C149 1.387 . S
H148 C155 0.950 . S
C149 C147 1.387 . S
C149 C151 1.390 . S
C149 H153 0.950 . S
H150 C146 0.950 . S
C151 C149 1.390 . S
C151 C152 1.387 . S
C151 H154 0.950 . S
C152 C151 1.387 . S
C152 C155 1.387 . S
H153 C149 0.950 . S
H154 C151 0.950 . S
C155 C146 1.390 . S
C155 H148 0.950 . S
C155 C152 1.387 . S
C156 C157 1.387 . S
C156 H160 0.950 . S
C156 C165 1.390 . S
C157 C156 1.387 . S
C157 C159 1.387 . S
H158 C165 0.950 . S
C159 C157 1.387 . S
C159 C161 1.390 . S
C159 H163 0.950 . S
H160 C156 0.950 . S
C161 C159 1.390 . S
C161 C162 1.387 . S
C161 H164 0.950 . S
C162 C161 1.387 . S
C162 C165 1.387 . S
H163 C159 0.950 . S
H164 C161 0.950 . S
C165 C156 1.390 . S
C165 H158 0.950 . S
C165 C162 1.387 . S
C166 C167 1.387 . S
C166 H170 0.950 . S
C166 C175 1.390 . S
C167 C166 1.387 . S
C167 C169 1.387 . S
H168 C175 0.950 . S
C169 C167 1.387 . S
C169 C171 1.390 . S
C169 H173 0.950 . S
H170 C166 0.950 . S
C171 C169 1.390 . S
C171 C172 1.387 . S
C171 H174 0.950 . S
C172 C171 1.387 . S
C172 C175 1.387 . S
H173 C169 0.950 . S
H174 C171 0.950 . S
C175 C166 1.390 . S
C175 H168 0.950 . S
C175 C172 1.387 . S
C176 C177 1.387 . S
C176 H180 0.950 . S
C176 C185 1.390 . S
C177 C176 1.387 . S
C177 C179 1.387 . S
H178 C185 0.950 . S
C179 C177 1.387 . S
C179 C181 1.390 . S
C179 H183 0.950 . S
H180 C176 0.950 . S
C181 C179 1.390 . S
C181 C182 1.387 . S
C181 H184 0.950 . S
C182 C181 1.387 . S
C182 C185 1.387 . S
H183 C179 0.950 . S
H184 C181 0.950 . S
C185 C176 1.390 . S
C185 H178 0.950 . S
C185 C182 1.387 . S
C186 C187 1.387 . S
C186 H190 0.950 . S
C186 C195 1.390 . S
C187 C186 1.387 . S
C187 C189 1.387 . S
H188 C195 0.950 . S
C189 C187 1.387 . S
C189 C191 1.390 . S
C189 H193 0.950 . S
H190 C186 0.950 . S
C191 C189 1.390 . S
C191 C192 1.387 . S
C191 H194 0.950 . S
C192 C191 1.387 . S
C192 C195 1.387 . S
H193 C189 0.950 . S
H194 C191 0.950 . S
C195 C186 1.390 . S
C195 H188 0.950 . S
C195 C192 1.387 . S
C196 C197 1.387 . S
C196 H200 0.950 . S
C196 C205 1.390 . S
C197 C196 1.387 . S
C197 C199 1.387 . S
H198 C205 0.950 . S
C199 C197 1.387 . S
C199 C201 1.390 . S
C199 H203 0.950 . S
H200 C196 0.950 . S
C201 C199 1.390 . S
C201 C202 1.387 . S
C201 H204 0.950 . S
C202 C201 1.387 . S
C202 C205 1.387 . S
H203 C199 0.950 . S
H204 C201 0.950 . S
C205 C196 1.390 . S
C205 H198 0.950 . S
C205 C202 1.387 . S
C206 C207 1.387 . S
C206 H210 0.950 . S
C206 C215 1.390 . S
C207 C206 1.387 . S
C207 C209 1.387 . S
H208 C215 0.950 . S
C209 C207 1.387 . S
C209 C211 1.390 . S
C209 H213 0.950 . S
H210 C206 0.950 . S
C211 C209 1.390 . S
C211 C212 1.387 . S
C211 H214 0.950 . S
C212 C211 1.387 . S
C212 C215 1.387 . S
H213 C209 0.950 . S
H214 C211 0.950 . S
C215 C206 1.390 . S
C215 H208 0.950 . S
C215 C212 1.387 . S
C216 C217 1.387 . S
C216 H220 0.950 . S
C216 C225 1.390 . S
C217 C216 1.387 . S
C217 C219 1.387 . S
H218 C225 0.950 . S
C219 C217 1.387 . S
C219 C221 1.390 . S
C219 H223 0.950 . S
H220 C216 0.950 . S
C221 C219 1.390 . S
C221 C222 1.387 . S
C221 H224 0.950 . S
C222 C221 1.387 . S
C222 C225 1.387 . S
H223 C219 0.950 . S
H224 C221 0.950 . S
C225 C216 1.390 . S
C225 H218 0.950 . S
C225 C222 1.387 . S
C226 C227 1.387 . S
C226 H230 0.950 . S
C226 C235 1.390 . S
C227 C226 1.387 . S
C227 C229 1.387 . S
H228 C235 0.950 . S
C229 C227 1.387 . S
C229 C231 1.390 . S
C229 H233 0.950 . S
H230 C226 0.950 . S
C231 C229 1.390 . S
C231 C232 1.387 . S
C231 H234 0.950 . S
C232 C231 1.387 . S
C232 C235 1.387 . S
H233 C229 0.950 . S
H234 C231 0.950 . S
C235 C226 1.390 . S
C235 H228 0.950 . S
C235 C232 1.387 . S
C236 C237 1.387 . S
C236 H240 0.950 . S
C236 C245 1.390 . S
C237 C236 1.387 . S
C237 C239 1.387 . S
H238 C245 0.950 . S
C239 C237 1.387 . S
C239 C241 1.390 . S
C239 H243 0.950 . S
H240 C236 0.950 . S
C241 C239 1.390 . S
C241 C242 1.387 . S
C241 H244 0.950 . S
C242 C241 1.387 . S
C242 C245 1.387 . S
H243 C239 0.950 . S
H244 C241 0.950 . S
C245 C236 1.390 . S
C245 H238 0.950 . S
C245 C242 1.387 . S
C246 C247 1.387 1_655 S
C246 H250 0.950 . S
C246 C255 1.390 . S
C247 C246 1.387 1_455 S
C247 C249 1.387 . S
H248 C255 0.950 1_556 S
C249 C247 1.387 . S
C249 C251 1.390 . S
C249 H253 0.950 . S
H250 C246 0.950 . S
C251 C249 1.390 . S
C251 C252 1.387 1_554 S
C251 H254 0.950 1_554 S
C252 C251 1.387 1_556 S
C252 C255 1.387 1_456 S
H253 C249 0.950 . S
H254 C251 0.950 1_556 S
C255 C246 1.390 . S
C255 H248 0.950 1_554 S
C255 C252 1.387 1_654 S
C256 C257 1.387 . S
C256 H260 0.950 . S
C256 C265 1.390 . S
C257 C256 1.387 . S
C257 C259 1.387 1_545 S
H258 C265 0.950 . S
C259 C257 1.387 1_565 S
C259 C261 1.390 . S
C259 H263 0.950 . S
H260 C256 0.950 . S
C261 C259 1.390 . S
C261 C262 1.387 1_565 S
C261 H264 0.950 . S
C262 C261 1.387 1_545 S
C262 C265 1.387 . S
H263 C259 0.950 . S
H264 C261 0.950 . S
C265 C256 1.390 . S
C265 H258 0.950 . S
C265 C262 1.387 . S
C266 C267 1.387 . S
C266 H270 0.950 . S
C266 C275 1.390 . S
C267 C266 1.387 . S
C267 C269 1.387 . S
H268 C275 0.950 . S
C269 C267 1.387 . S
C269 C271 1.390 . S
C269 H273 0.950 . S
H270 C266 0.950 . S
C271 C269 1.390 . S
C271 C272 1.387 . S
C271 H274 0.950 . S
C272 C271 1.387 . S
C272 C275 1.387 . S
H273 C269 0.950 . S
H274 C271 0.950 . S
C275 C266 1.390 . S
C275 H268 0.950 . S
C275 C272 1.387 . S
C276 C277 1.387 1_565 S
C276 H280 0.950 . S
C276 C285 1.390 . S
C277 C276 1.387 1_545 S
C277 C279 1.387 . S
H278 C285 0.950 . S
C279 C277 1.387 . S
C279 C281 1.390 . S
C279 H283 0.950 . S
H280 C276 0.950 . S
C281 C279 1.390 . S
C281 C282 1.387 . S
C281 H284 0.950 . S
C282 C281 1.387 . S
C282 C285 1.387 1_545 S
H283 C279 0.950 . S
H284 C281 0.950 . S
C285 C276 1.390 . S
C285 H278 0.950 . S
C285 C282 1.387 1_565 S
C286 C287 1.387 . S
C286 H290 0.950 . S
C286 C295 1.390 . S
C287 C286 1.387 . S
C287 C289 1.387 . S
H288 C295 0.950 . S
C289 C287 1.387 . S
C289 C291 1.390 . S
C289 H293 0.950 . S
H290 C286 0.950 . S
C291 C289 1.390 . S
C291 C292 1.387 1_556 S
C291 H294 0.950 1_556 S
C292 C291 1.387 1_554 S
C292 C295 1.387 1_554 S
H293 C289 0.950 . S
H294 C291 0.950 1_554 S
C295 C286 1.390 . S
C295 H288 0.950 . S
C295 C292 1.387 1_556 S
C296 C297 1.387 . S
C296 H300 0.950 . S
C296 C305 1.390 . S
C297 C296 1.387 . S
C297 C299 1.387 1_455 S
H298 C305 0.950 . S
C299 C297 1.387 1_655 S
C299 C301 1.390 . S
C299 H303 0.950 . S
H300 C296 0.950 . S
C301 C299 1.390 . S
C301 C302 1.387 1_655 S
C301 H304 0.950 . S
C302 C301 1.387 1_455 S
C302 C305 1.388 . S
H303 C299 0.950 . S
H304 C301 0.950 . S
C305 C296 1.390 . S
C305 H298 0.950 . S
C305 C302 1.388 . S
C127 C2 1.529 . S
C132 C120 1.418 . S
C137 C22 1.532 . S
C142 C98 1.442 . S
C147 C44 1.377 . S
C152 C112 1.423 . S
C157 C4 1.476 . S
C162 C123 1.512 . S
C172 C101 1.520 . S
C167 C24 1.495 . S
C182 C109 1.483 . S
C177 C42 1.597 . S
C187 C32 1.440 . S
C192 C76 1.214 . S
C197 C49 1.400 . S
C202 C87 1.207 . S
C207 C9 1.397 . S
C212 C65 1.202 . S
C222 C79 1.205 . S
C217 C29 1.192 . S
C232 C90 1.240 . S
C227 C52 1.236 . S
C237 C12 1.231 . S
C242 C68 1.234 . S
C252 C89 1.405 . S
C247 C18 1.457 . S
C257 C38 1.454 . S
C262 C67 1.403 . S
C267 C58 1.469 . S
C272 C78 1.408 . S
C282 C111 1.459 . S
C277 C39 1.524 . S
C292 C122 1.461 . S
C287 C59 1.533 . S
C297 C19 1.532 . S
C302 C100 1.462 . S
