# Generated by pormake.
# Topology anh, (6,3)-cn, num edge types: 1
# Building blocks:
#     Node 0, Type 0, BuildingBlock: BETDIP_clean_sbu_0, # of connection points: 6
#     Node 1, Type 0, BuildingBlock: BETDIP_clean_sbu_0, # of connection points: 6
#     Node 2, Type 0, BuildingBlock: BETDIP_clean_sbu_0, # of connection points: 6
#     Node 3, Type 1, BuildingBlock: OLANEW_clean_sbu_2, # of connection points: 3
#     Node 4, Type 1, BuildingBlock: OLANEW_clean_sbu_2, # of connection points: 3
#     Node 5, Type 1, BuildingBlock: OLANEW_clean_sbu_2, # of connection points: 3
#     Node 6, Type 1, BuildingBlock: OLANEW_clean_sbu_2, # of connection points: 3
#     Node 7, Type 1, BuildingBlock: OLANEW_clean_sbu_2, # of connection points: 3
#     Node 8, Type 1, BuildingBlock: OLANEW_clean_sbu_2, # of connection points: 3
#     Edge 9, Type (0, 1), BuildingBlock: KIFKEQ_clean_linker_1, # of connection points: 2
#     Edge 10, Type (0, 1), BuildingBlock: KIFKEQ_clean_linker_1, # of connection points: 2
#     Edge 11, Type (0, 1), BuildingBlock: KIFKEQ_clean_linker_1, # of connection points: 2
#     Edge 12, Type (0, 1), BuildingBlock: KIFKEQ_clean_linker_1, # of connection points: 2
#     Edge 13, Type (0, 1), BuildingBlock: KIFKEQ_clean_linker_1, # of connection points: 2
#     Edge 14, Type (0, 1), BuildingBlock: KIFKEQ_clean_linker_1, # of connection points: 2
#     Edge 15, Type (0, 1), BuildingBlock: KIFKEQ_clean_linker_1, # of connection points: 2
#     Edge 16, Type (0, 1), BuildingBlock: KIFKEQ_clean_linker_1, # of connection points: 2
#     Edge 17, Type (0, 1), BuildingBlock: KIFKEQ_clean_linker_1, # of connection points: 2
#     Edge 18, Type (0, 1), BuildingBlock: KIFKEQ_clean_linker_1, # of connection points: 2
#     Edge 19, Type (0, 1), BuildingBlock: KIFKEQ_clean_linker_1, # of connection points: 2
#     Edge 20, Type (0, 1), BuildingBlock: KIFKEQ_clean_linker_1, # of connection points: 2
#     Edge 21, Type (0, 1), BuildingBlock: KIFKEQ_clean_linker_1, # of connection points: 2
#     Edge 22, Type (0, 1), BuildingBlock: KIFKEQ_clean_linker_1, # of connection points: 2
#     Edge 23, Type (0, 1), BuildingBlock: KIFKEQ_clean_linker_1, # of connection points: 2
#     Edge 24, Type (0, 1), BuildingBlock: KIFKEQ_clean_linker_1, # of connection points: 2
#     Edge 25, Type (0, 1), BuildingBlock: KIFKEQ_clean_linker_1, # of connection points: 2
#     Edge 26, Type (0, 1), BuildingBlock: KIFKEQ_clean_linker_1, # of connection points: 2
# Relax obj value: 0.222
# Max RMSD: 0.126
# Mean RMSD: 0.112
data_MOF--net-anh--node1-BETDIP_clean_sbu_0--node2-OLANEW_clean_sbu_2--edge1-KIFKEQ_clean_linker_1
_symmetry_space_group_name_H-M    P1
_symmetry_Int_Tables_number       1
_symmetry_cell_setting            triclinic
loop_
_symmetry_equiv_pos_as_xyz
'x, y, z'
_cell_length_a     36.75835
_cell_length_b     36.623149
_cell_length_c     50.06259
_cell_angle_alpha  90.081755
_cell_angle_beta   89.61572
_cell_angle_gamma 120.15265
loop_
_atom_site_label
_atom_site_type_symbol
_atom_site_fract_x
_atom_site_fract_y
_atom_site_fract_z
_atom_type_partial_charge
Tb0 Tb 0.0596 0.55603 0.1907 0.0
Tb1 Tb 1.01694 0.46763 0.17176 0.0
C2 C 0.10213 0.6208 0.21862 0.0
C3 C 0.14622 0.65368 0.22192 0.0
C4 C 0.15625 0.68461 0.24143 0.0
C5 C 0.19731 0.71835 0.2436 0.0
C6 C 0.22923 0.72173 0.22631 0.0
C7 C 0.2192 0.68981 0.20722 0.0
C8 C 0.17793 0.65603 0.20502 0.0
C9 C 0.04632 0.54886 0.13926 0.0
C10 C 0.11448 0.51262 0.17237 0.0
C11 C 0.96627 0.40007 0.14931 0.0
C12 C 0.9201 0.37699 0.15247 0.0
C13 C 0.89427 0.36933 0.13016 0.0
C14 C 0.8516 0.35634 0.13356 0.0
C15 C 0.83431 0.3511 0.15936 0.0
C16 C 0.85968 0.35642 0.18154 0.0
C17 C 0.90209 0.36937 0.17817 0.0
C18 C 1.02563 0.47774 0.22429 0.0
C19 C 0.96268 0.51293 0.1821 0.0
O20 O 0.09199 0.58265 0.22631 0.0
O21 O 0.0852 0.62104 0.19577 0.0
O22 O 0.05739 0.52719 0.15299 0.0
O23 O 0.04664 0.57818 0.15393 0.0
O24 O 0.11327 0.54407 0.18509 0.0
O25 O 0.07985 0.48048 0.16261 0.0
O26 O 0.98169 0.43696 0.13773 0.0
O27 O 0.98799 0.40156 0.17034 0.0
O28 O 1.01631 0.49769 0.20811 0.0
O29 O 1.02836 0.44858 0.21135 0.0
O30 O 0.96611 0.48252 0.17024 0.0
O31 O 0.99479 0.5432 0.19538 0.0
H32 H 0.13203 0.68331 0.25452 0.0
H33 H 0.20359 0.74267 0.25817 0.0
H34 H 0.24307 0.69123 0.19376 0.0
H35 H 0.17058 0.63234 0.18978 0.0
H36 H 0.90759 0.37556 0.11018 0.0
H37 H 0.83273 0.35248 0.11612 0.0
H38 H 0.84701 0.35175 0.20165 0.0
H39 H 0.92111 0.3754 0.19584 0.0
Tb40 Tb 0.55004 1.02025 0.51532 0.0
Tb41 Tb 0.50005 0.06357 0.50889 0.0
C42 C 0.58047 0.97698 0.53265 0.0
C43 C 0.56722 0.93304 0.53933 0.0
C44 C 0.59189 0.92524 0.55697 0.0
C45 C 0.58209 0.88395 0.5624 0.0
C46 C 0.54727 0.84956 0.5503 0.0
C47 C 0.52182 0.85749 0.53313 0.0
C48 C 0.53171 0.89899 0.5277 0.0
C49 C 0.54042 0.03778 0.46588 0.0
C50 C 0.44892 0.96526 0.50946 0.0
C51 C 0.4772 0.1141 0.49394 0.0
C52 C 0.50014 0.16048 0.49662 0.0
C53 C 0.5118 0.18612 0.4737 0.0
C54 C 0.5406 0.22946 0.47549 0.0
C55 C 0.55826 0.2477 0.50024 0.0
C56 C 0.5448 0.22234 0.52329 0.0
C57 C 0.51624 0.17923 0.52151 0.0
C58 C 0.5103 0.04777 0.55878 0.0
C59 C 0.60183 0.1178 0.5087 0.0
O60 O 0.56614 0.99581 0.54814 0.0
O61 O 0.57985 0.9855 0.50733 0.0
O62 O 0.51354 1.02499 0.48433 0.0
O63 O 0.57426 0.03892 0.47433 0.0
O64 O 0.48402 0.96721 0.51819 0.0
O65 O 0.44902 0.99967 0.50118 0.0
O66 O 0.49524 0.09952 0.47801 0.0
O67 O 0.46376 0.09219 0.51611 0.0
O68 O 0.53757 0.06 0.54035 0.0
O69 O 0.47686 0.04677 0.54979 0.0
O70 O 0.56546 0.1158 0.50381 0.0
O71 O 0.60335 0.08428 0.51687 0.0
H72 H 0.61945 0.9512 0.56606 0.0
H73 H 0.60282 0.87912 0.57533 0.0
H74 H 0.49462 0.83168 0.52367 0.0
H75 H 0.5122 0.90452 0.51408 0.0
H76 H 0.50021 0.17226 0.45424 0.0
H77 H 0.55047 0.24825 0.45739 0.0
H78 H 0.55717 0.23567 0.54273 0.0
H79 H 0.50826 0.16039 0.53956 0.0
Tb80 Tb 0.50353 0.49389 0.84744 0.0
Tb81 Tb 0.59661 0.54639 0.84901 0.0
C82 C 0.42689 0.46506 0.85708 0.0
C83 C 0.40021 0.48397 0.85382 0.0
C84 C 0.36717 0.47395 0.87181 0.0
C85 C 0.34423 0.49486 0.87033 0.0
C86 C 0.35405 0.52617 0.8508 0.0
C87 C 0.38662 0.53535 0.83242 0.0
C88 C 0.40959 0.51457 0.83398 0.0
C89 C 0.54133 0.50791 0.80074 0.0
C90 C 0.54844 0.59587 0.84345 0.0
C91 C 0.6746 0.57919 0.84141 0.0
C92 C 0.70417 0.56415 0.83617 0.0
C93 C 0.69071 0.52415 0.82507 0.0
C94 C 0.7188 0.5091 0.8224 0.0
C95 C 0.76089 0.5343 0.83027 0.0
C96 C 0.77447 0.57491 0.84048 0.0
C97 C 0.74627 0.58959 0.84352 0.0
C98 C 0.55848 0.53482 0.89564 0.0
C99 C 0.55123 0.44481 0.8463 0.0
O100 O 0.45611 0.48281 0.87526 0.0
O101 O 0.44107 0.45746 0.83496 0.0
O102 O 0.55083 0.53344 0.81968 0.0
O103 O 0.5072 0.47309 0.80674 0.0
O104 O 0.51356 0.55905 0.84781 0.0
O105 O 0.58532 0.5981 0.84069 0.0
O106 O 0.64783 0.57306 0.82246 0.0
O107 O 0.6569 0.57024 0.86506 0.0
O108 O 0.54919 0.5071 0.87778 0.0
O109 O 0.59086 0.56986 0.88784 0.0
O110 O 0.5853 0.48197 0.84149 0.0
O111 O 0.51536 0.44216 0.85358 0.0
H112 H 0.35986 0.45076 0.88743 0.0
H113 H 0.31978 0.48751 0.88506 0.0
H114 H 0.39469 0.55892 0.81697 0.0
H115 H 0.43526 0.52306 0.82 0.0
H116 H 0.65846 0.50442 0.81881 0.0
H117 H 0.70764 0.47779 0.81435 0.0
H118 H 0.80662 0.59478 0.84703 0.0
H119 H 0.75716 0.62052 0.85212 0.0
O120 O 0.49517 0.20206 0.30358 0.0
Cd121 Cd 0.47874 0.22838 0.26319 0.0
O122 O 0.50182 0.15759 0.27763 0.0
Cd123 Cd 0.50392 0.09997 0.26956 0.0
O124 O 0.47993 0.03334 0.26099 0.0
C125 C 0.46029 1.01918 0.23919 0.0
O126 O 0.45789 0.04564 0.22258 0.0
C127 C 0.50273 0.17198 0.3009 0.0
C128 C 0.54663 0.25929 0.22792 0.0
O129 O 0.54227 0.28401 0.2441 0.0
O130 O 0.51834 0.2201 0.22803 0.0
O131 O 0.75698 0.58741 0.63503 0.0
Cd132 Cd 0.79634 0.60873 0.59289 0.0
O133 O 0.70428 0.58087 0.61131 0.0
Cd134 Cd 0.64304 0.57595 0.60558 0.0
O135 O 0.59945 0.59856 0.5976 0.0
C136 C 0.59978 0.61231 0.57427 0.0
O137 O 0.62398 0.60953 0.5559 0.0
C138 C 0.71874 0.57809 0.63375 0.0
C139 C 0.75681 0.54163 0.55747 0.0
O140 O 0.78833 0.54694 0.57129 0.0
O141 O 0.74491 0.56893 0.55974 0.0
O142 O 0.13666 0.68875 0.94976 0.0
Cd143 Cd 0.16112 0.72295 0.90637 0.0
O144 O 0.10889 0.62779 0.92937 0.0
Cd145 Cd 0.06554 0.56011 0.92439 0.0
O146 O 1.00455 0.51601 0.90745 0.0
C147 C 1.00165 0.51219 0.8822 0.0
O148 O 0.03628 0.53079 0.86773 0.0
C149 C 0.11599 0.64864 0.95093 0.0
C150 C 0.20586 0.68903 0.8826 0.0
O151 O 0.22426 0.72203 0.89729 0.0
O152 O 0.16638 0.67291 0.87837 0.0
O153 O 0.08494 0.56786 0.42961 0.0
Cd154 Cd 0.11298 0.5981 0.47449 0.0
O155 O 1.0267 0.50997 0.44178 0.0
Cd156 Cd 0.96454 0.44974 0.44166 0.0
O157 O 0.90548 0.39178 0.45516 0.0
C158 C 0.86874 0.38277 0.44776 0.0
O159 O 0.86508 0.40817 0.43089 0.0
C160 C 0.05148 0.53365 0.42328 0.0
C161 C 0.18666 0.67893 0.4783 0.0
O162 O 0.18897 0.6453 0.47578 0.0
O163 O 0.14987 0.67475 0.47806 0.0
O164 O 0.53835 0.97303 0.76081 0.0
Cd165 Cd 0.53096 0.93864 0.8051 0.0
O166 O 0.53621 0.02911 0.77485 0.0
Cd167 Cd 0.53679 0.09063 0.7765 0.0
O168 O 0.53396 0.14748 0.79032 0.0
C169 C 0.56134 0.18522 0.78382 0.0
O170 O 0.59238 0.19122 0.76783 0.0
C171 C 0.53872 1.00742 0.7556 0.0
C172 C 0.535 0.8633 0.80912 0.0
O173 O 0.50037 0.86209 0.80369 0.0
O174 O 0.56792 0.89983 0.81158 0.0
O175 O 0.58097 0.50875 0.10129 0.0
Cd176 Cd 0.6128 0.51505 0.14625 0.0
O177 O 0.52822 0.51859 0.11238 0.0
Cd178 Cd 0.47022 0.52434 0.11155 0.0
O179 O 0.41474 0.53005 0.12492 0.0
C180 C 0.38159 0.51703 0.11095 0.0
O181 O 0.38006 0.50008 0.08753 0.0
C182 C 0.54902 0.51167 0.09445 0.0
C183 C 0.68899 0.51321 0.15138 0.0
O184 O 0.65303 0.47924 0.1524 0.0
O185 O 0.68924 0.54781 0.14694 0.0
H186 H 0.19615 0.57752 0.1818 0.0
H187 H 0.12589 0.45195 0.14876 0.0
H188 H 0.26206 0.58082 0.16799 0.0
H189 H 0.19085 0.45513 0.13544 0.0
H190 H 0.30658 0.49004 0.08588 0.0
H191 H 0.24474 0.49128 0.10196 0.0
H192 H 0.30914 0.55047 0.17506 0.0
H193 H 0.37187 0.5497 0.15868 0.0
C194 C 0.19464 0.55054 0.17184 0.0
C195 C 0.15541 0.51465 0.16622 0.0
C196 C 0.23248 0.55238 0.16397 0.0
C197 C 0.23195 0.51848 0.15018 0.0
C198 C 0.19271 0.48228 0.1454 0.0
C199 C 0.15522 0.4804 0.15325 0.0
C200 C 0.30785 0.50346 0.10538 0.0
C201 C 0.34439 0.51949 0.12098 0.0
C202 C 0.2721 0.50396 0.11471 0.0
C203 C 0.27151 0.52052 0.14001 0.0
C204 C 0.30839 0.53759 0.15545 0.0
C205 C 0.34432 0.53695 0.1461 0.0
H206 H 0.61211 0.19601 0.49793 0.0
H207 H 0.68231 0.13122 0.50654 0.0
H208 H 0.67645 0.26039 0.48533 0.0
H209 H 0.74645 0.19511 0.49301 0.0
H210 H 0.86289 0.32637 0.48636 0.0
H211 H 0.79951 0.2646 0.50351 0.0
H212 H 0.72393 0.29008 0.4493 0.0
H213 H 0.78694 0.35229 0.43288 0.0
C214 C 0.64129 0.19545 0.49722 0.0
C215 C 0.64181 0.15819 0.50328 0.0
C216 C 0.67832 0.23243 0.48972 0.0
C217 C 0.71703 0.23325 0.48778 0.0
C218 C 0.71761 0.19619 0.49452 0.0
C219 C 0.68062 0.1593 0.50222 0.0
C220 C 0.83273 0.31881 0.47813 0.0
C221 C 0.83025 0.3445 0.45818 0.0
C222 C 0.79624 0.28314 0.4879 0.0
C223 C 0.75616 0.27197 0.47793 0.0
C224 C 0.75386 0.29779 0.45795 0.0
C225 C 0.79025 0.33347 0.4483 0.0
H226 H 0.48011 0.60705 0.85039 0.0
H227 H 0.61077 0.67321 0.82619 0.0
H228 H 0.47639 0.67088 0.84233 0.0
H229 H 0.60678 0.73617 0.81723 0.0
H230 H 0.60103 0.856 0.82754 0.0
H231 H 0.60325 0.792 0.83681 0.0
H232 H 0.47514 0.71661 0.8095 0.0
H233 H 0.47257 0.78096 0.80121 0.0
C234 C 0.50804 0.63512 0.8433 0.0
C235 C 0.54581 0.63484 0.83913 0.0
C236 C 0.50585 0.67179 0.83844 0.0
C237 C 0.54133 0.70918 0.82913 0.0
C238 C 0.57896 0.70859 0.8249 0.0
C239 C 0.5812 0.67216 0.82993 0.0
C240 C 0.57335 0.8258 0.8234 0.0
C241 C 0.53669 0.82383 0.8135 0.0
C242 C 0.57465 0.78886 0.82861 0.0
C243 C 0.53944 0.74865 0.82386 0.0
C244 C 0.50276 0.74674 0.81383 0.0
C245 C 0.50137 0.78377 0.80881 0.0
H246 H 0.94266 0.57253 0.19913 0.0
H247 H 0.88974 0.45175 0.15958 0.0
H248 H 0.8765 0.57213 0.19275 0.0
H249 H 0.82451 0.4518 0.15269 0.0
H250 H 0.69844 0.44552 0.16423 0.0
H251 H 0.76329 0.44519 0.17362 0.0
H252 H 0.83508 0.57947 0.15859 0.0
H253 H 0.77008 0.5799 0.14983 0.0
C254 C 0.91696 0.54584 0.18919 0.0
C255 C 0.92181 0.51226 0.17989 0.0
C256 C 0.87904 0.54573 0.1853 0.0
C257 C 0.84487 0.512 0.17206 0.0
C258 C 0.84964 0.47812 0.16324 0.0
C259 C 0.88741 0.47825 0.16709 0.0
C260 C 0.72804 0.47499 0.16285 0.0
C261 C 0.72886 0.51272 0.15615 0.0
C262 C 0.76541 0.4748 0.16817 0.0
C263 C 0.80479 0.51233 0.16693 0.0
C264 C 0.80551 0.55004 0.16019 0.0
C265 C 0.76813 0.55022 0.1549 0.0
H266 H 0.43437 0.88695 0.5252 0.0
H267 H 0.37499 0.9481 0.48581 0.0
H268 H 0.37145 0.81838 0.51801 0.0
H269 H 0.31281 0.87978 0.47792 0.0
H270 H 0.26941 0.69895 0.47695 0.0
H271 H 0.33204 0.76744 0.48482 0.0
H272 H 0.25352 0.82258 0.49803 0.0
H273 H 0.19119 0.75446 0.48932 0.0
C274 C 0.40796 0.88585 0.51499 0.0
C275 C 0.40994 0.92329 0.50617 0.0
C276 C 0.37185 0.84637 0.51065 0.0
C277 C 0.3367 0.84313 0.49727 0.0
C278 C 0.33873 0.88071 0.48865 0.0
C279 C 0.37468 0.92011 0.4931 0.0
C280 C 0.26552 0.72575 0.48139 0.0
C281 C 0.22511 0.72106 0.48236 0.0
C282 C 0.30153 0.7651 0.48616 0.0
C283 C 0.29822 0.80094 0.49217 0.0
C284 C 0.25769 0.79612 0.49307 0.0
C285 C 0.22174 0.75685 0.48817 0.0
H286 H 0.4848 0.36408 0.84029 0.0
H287 H 0.62051 0.43574 0.83967 0.0
H288 H 0.48679 0.30127 0.82633 0.0
H289 H 0.62266 0.37296 0.82618 0.0
H290 H 0.61283 0.26873 0.77149 0.0
H291 H 0.61002 0.32957 0.78827 0.0
H292 H 0.50262 0.24743 0.83747 0.0
H293 H 0.50482 0.18616 0.82001 0.0
C294 C 0.51513 0.36637 0.83759 0.0
C295 C 0.55251 0.40532 0.84088 0.0
C296 C 0.51629 0.33017 0.82959 0.0
C297 C 0.55488 0.33176 0.82474 0.0
C298 C 0.59226 0.37045 0.82902 0.0
C299 C 0.59107 0.40662 0.83691 0.0
C300 C 0.58854 0.26348 0.78589 0.0
C301 C 0.55904 0.22229 0.79432 0.0
C302 C 0.58713 0.29861 0.79574 0.0
C303 C 0.55626 0.29384 0.81447 0.0
C304 C 0.52663 0.25256 0.82289 0.0
C305 C 0.52799 0.21731 0.81295 0.0
H306 H 0.52497 0.78741 0.51283 0.0
H307 H 0.55351 0.81365 0.59664 0.0
H308 H 0.52466 0.72106 0.51783 0.0
H309 H 0.5555 0.7487 0.60134 0.0
H310 H 0.54742 0.62451 0.60762 0.0
H311 H 0.52162 0.67361 0.60131 0.0
H312 H 0.5801 0.7059 0.52312 0.0
H313 H 0.60451 0.656 0.52906 0.0
C314 C 0.53036 0.77866 0.53244 0.0
C315 C 0.53993 0.80615 0.55426 0.0
C316 C 0.53069 0.74084 0.53524 0.0
C317 C 0.54075 0.72979 0.55987 0.0
C318 C 0.54739 0.75593 0.58208 0.0
C319 C 0.54682 0.79355 0.57932 0.0
C320 C 0.55403 0.64151 0.58888 0.0
C321 C 0.57855 0.63682 0.569 0.0
C322 C 0.53941 0.66981 0.58531 0.0
C323 C 0.54922 0.69419 0.56186 0.0
C324 C 0.57151 0.68743 0.54134 0.0
C325 C 0.58585 0.65897 0.54483 0.0
H326 H 0.74759 0.45858 0.84907 0.0
H327 H 0.84085 0.57353 0.81055 0.0
H328 H 0.80075 0.43802 0.85602 0.0
H329 H 0.89393 0.55354 0.81776 0.0
H330 H 0.98528 0.51302 0.82904 0.0
H331 H 0.9209 0.50511 0.80986 0.0
H332 H 0.86041 0.46938 0.88729 0.0
H333 H 0.92434 0.47667 0.90638 0.0
C334 C 0.77917 0.47884 0.84144 0.0
C335 C 0.79037 0.5179 0.8296 0.0
C336 C 0.80961 0.46721 0.84554 0.0
C337 C 0.8516 0.49429 0.83764 0.0
C338 C 0.86183 0.53173 0.82388 0.0
C339 C 0.83156 0.54346 0.81998 0.0
C340 C 0.95787 0.50226 0.84182 0.0
C341 C 0.96025 0.49654 0.86939 0.0
C342 C 0.92103 0.49786 0.83082 0.0
C343 C 0.8859 0.48748 0.84716 0.0
C344 C 0.88689 0.47735 0.87412 0.0
C345 C 0.92371 0.48183 0.88513 0.0
H346 H 0.27438 0.76496 0.27027 0.0
H347 H 0.28018 0.76582 0.18403 0.0
H348 H 0.33699 0.83448 0.27128 0.0
H349 H 0.34442 0.83435 0.18507 0.0
H350 H 0.40606 0.97867 0.19834 0.0
H351 H 0.35739 0.90353 0.19393 0.0
H352 H 0.41039 0.87975 0.26409 0.0
H353 H 0.4583 0.95549 0.26904 0.0
C354 C 0.28947 0.77967 0.25152 0.0
C355 C 0.27171 0.76013 0.22706 0.0
C356 C 0.32582 0.81937 0.2521 0.0
C357 C 0.34557 0.84038 0.22822 0.0
C358 C 0.32956 0.81946 0.20383 0.0
C359 C 0.29297 0.77985 0.20324 0.0
C360 C 0.40782 0.95744 0.21262 0.0
C361 C 0.43562 0.97315 0.23428 0.0
C362 C 0.38005 0.91415 0.20997 0.0
C363 C 0.37962 0.88545 0.22879 0.0
C364 C 0.40929 0.90101 0.24953 0.0
C365 C 0.43691 0.94442 0.25229 0.0
H366 H 0.63057 0.27968 0.52871 0.0
H367 H 0.56223 0.31689 0.47607 0.0
H368 H 0.68189 0.35319 0.53667 0.0
H369 H 0.61515 0.39111 0.48291 0.0
H370 H 0.67758 0.50998 0.53784 0.0
H371 H 0.63327 0.44065 0.51834 0.0
H372 H 0.73752 0.4174 0.5202 0.0
H373 H 0.78123 0.48612 0.54086 0.0
C374 C 0.62677 0.30371 0.51863 0.0
C375 C 0.59185 0.29257 0.50227 0.0
C376 C 0.65665 0.34596 0.52282 0.0
C377 C 0.65266 0.37827 0.51054 0.0
C378 C 0.61885 0.36706 0.49302 0.0
C379 C 0.58873 0.32458 0.48891 0.0
C380 C 0.69124 0.49035 0.53365 0.0
C381 C 0.73265 0.50316 0.54128 0.0
C382 C 0.66588 0.45061 0.52229 0.0
C383 C 0.68158 0.42306 0.51804 0.0
C384 C 0.72406 0.43734 0.52383 0.0
C385 C 0.74921 0.47682 0.53553 0.0
H386 H 0.27012 0.49694 0.85906 0.0
H387 H 0.38788 0.61088 0.84207 0.0
H388 H 0.23514 0.53826 0.86275 0.0
H389 H 0.35244 0.65183 0.84433 0.0
H390 H 0.28794 0.71274 0.89123 0.0
H391 H 0.32354 0.67412 0.87959 0.0
H392 H 0.21193 0.58021 0.83911 0.0
H393 H 0.17579 0.61838 0.85145 0.0
C394 C 0.28845 0.53074 0.85585 0.0
C395 C 0.33184 0.55062 0.8505 0.0
C396 C 0.26828 0.55436 0.85759 0.0
C397 C 0.29103 0.59839 0.85391 0.0
C398 C 0.33412 0.61805 0.8476 0.0
C399 C 0.35432 0.59446 0.84599 0.0
C400 C 0.27113 0.68415 0.87956 0.0
C401 C 0.22894 0.66844 0.87246 0.0
C402 C 0.29164 0.6621 0.87273 0.0
C403 C 0.2705 0.62392 0.85854 0.0
C404 C 0.22886 0.60917 0.85042 0.0
C405 C 0.20826 0.63118 0.85734 0.0
H406 H 0.80738 0.38865 0.19494 0.0
H407 H 0.7628 0.29374 0.13317 0.0
H408 H 0.73553 0.36896 0.20608 0.0
H409 H 0.69029 0.275 0.14353 0.0
H410 H 0.57428 0.21281 0.20117 0.0
H411 H 0.64215 0.23846 0.17935 0.0
H412 H 0.67257 0.36715 0.19386 0.0
H413 H 0.60523 0.34129 0.21672 0.0
C414 C 0.78209 0.36376 0.18356 0.0
C415 C 0.79061 0.34205 0.1636 0.0
C416 C 0.74082 0.35288 0.18966 0.0
C417 C 0.70696 0.32015 0.17583 0.0
C418 C 0.71561 0.29992 0.15485 0.0
C419 C 0.75709 0.31083 0.14876 0.0
C420 C 0.59519 0.24659 0.19934 0.0
C421 C 0.58474 0.27503 0.21105 0.0
C422 C 0.63406 0.26135 0.18663 0.0
C423 C 0.66313 0.30491 0.18512 0.0
C424 C 0.65134 0.33338 0.19522 0.0
C425 C 0.61268 0.31859 0.20822 0.0
H426 H 0.08841 0.5261 0.10362 0.0
H427 H 1.00576 0.57761 0.10918 0.0
H428 H 0.1 0.54464 0.05607 0.0
H429 H 1.0157 0.59452 0.06173 0.0
H430 H 0.09756 0.68076 0.99435 0.0
H431 H 0.07466 0.649 0.03822 0.0
H432 H 0.0738 0.53671 1.01057 0.0
H433 H 0.09888 0.56966 0.96677 0.0
C434 C 0.07178 0.5402 0.09443 0.0
C435 C 0.04675 0.5511 0.10995 0.0
C436 C 0.07831 0.55077 0.06723 0.0
C437 C 0.05948 0.57194 0.05523 0.0
C438 C 1.03165 0.5794 0.0705 0.0
C439 C 1.02568 0.56945 0.0976 0.0
C440 C 0.09221 0.64917 0.99753 0.0
C441 C 0.09925 0.62743 0.97691 0.0
C442 C 0.07864 0.63072 0.02265 0.0
C443 C 0.07176 0.58998 0.02786 0.0
C444 C 0.07868 0.56807 1.0072 0.0
C445 C 0.09236 0.58667 0.98196 0.0
H446 H 0.46815 0.02616 0.44405 0.0
H447 H 0.60212 0.08744 0.43008 0.0
H448 H 0.46019 0.05877 0.40377 0.0
H449 H 0.59423 0.1203 0.38955 0.0
H450 H 0.5531 0.13709 0.30505 0.0
H451 H 0.56247 0.10264 0.34406 0.0
H452 H 0.48017 0.13149 0.38996 0.0
H453 H 0.46986 0.16475 0.35074 0.0
C454 C 0.49588 0.0465 0.43223 0.0
C455 C 0.53578 0.05464 0.44023 0.0
C456 C 0.49136 0.06535 0.40927 0.0
C457 C 0.52663 0.09248 0.39366 0.0
C458 C 0.56645 0.09941 0.40114 0.0
C459 C 0.57099 0.08065 0.42428 0.0
C460 C 0.5364 0.13532 0.32333 0.0
C461 C 0.50983 0.15255 0.32468 0.0
C462 C 0.5423 0.11621 0.34577 0.0
C463 C 0.52169 0.11394 0.36998 0.0
C464 C 0.49586 0.13205 0.37144 0.0
C465 C 0.49019 0.15136 0.34906 0.0
H466 H 0.6033 0.58415 0.78325 0.0
H467 H 0.53398 0.45227 0.76181 0.0
H468 H 0.6462 0.59969 0.74297 0.0
H469 H 0.57702 0.46778 0.72122 0.0
H470 H 0.63412 0.52352 0.63809 0.0
H471 H 0.59026 0.50596 0.67819 0.0
H472 H 0.70058 0.58566 0.72496 0.0
H473 H 0.74418 0.60426 0.68464 0.0
C474 C 0.59744 0.55843 0.76994 0.0
C475 C 0.56569 0.51695 0.77572 0.0
C476 C 0.62206 0.56731 0.74692 0.0
C477 C 0.61525 0.53492 0.72903 0.0
C478 C 0.58285 0.49344 0.73456 0.0
C479 C 0.55828 0.48453 0.75775 0.0
C480 C 0.64883 0.53792 0.65684 0.0
C481 C 0.69236 0.56622 0.65814 0.0
C482 C 0.62383 0.52728 0.67989 0.0
C483 C 0.6419 0.54471 0.7047 0.0
C484 C 0.68564 0.57226 0.70605 0.0
C485 C 0.71063 0.58272 0.68303 0.0
H486 H 0.58254 0.05989 0.58302 0.0
H487 H 0.45512 0.0299 0.59972 0.0
H488 H 0.59364 0.0551 0.63086 0.0
H489 H 0.46618 1.02548 0.64726 0.0
H490 H 0.50918 0.05613 0.73317 0.0
H491 H 0.50613 0.06997 0.6857 0.0
H492 H 0.56796 0.99952 0.6661 0.0
H493 H 0.5715 0.98622 0.71345 0.0
C494 C 0.5569 0.05212 0.59687 0.0
C495 C 0.51786 0.04493 0.58757 0.0
C496 C 0.56325 0.04947 0.62427 0.0
C497 C 0.53086 0.04014 0.64296 0.0
C498 C 0.49202 0.03339 0.63354 0.0
C499 C 0.48558 0.0356 0.60623 0.0
C500 C 0.52304 0.04449 0.71882 0.0
C501 C 0.54078 1.02026 0.72719 0.0
C502 C 0.52083 0.05196 0.69155 0.0
C503 C 0.53664 0.03567 0.67204 0.0
C504 C 0.55581 1.01284 0.68053 0.0
C505 C 0.55761 1.00502 0.70771 0.0
H506 H 0.56985 0.5928 0.93323 0.0
H507 H 0.517 0.45874 0.92217 0.0
H508 H 0.5573 0.5821 0.98125 0.0
H509 H 0.5046 0.44789 0.97053 0.0
H510 H 0.56305 0.4667 0.05678 0.0
H511 H 0.55519 0.46767 1.00858 0.0
H512 H 0.50351 0.54988 0.01819 0.0
H513 H 0.51133 0.54878 0.0668 0.0
C514 C 0.55485 0.5609 0.94107 0.0
C515 C 0.54471 0.52664 0.92399 0.0
C516 C 0.54741 0.55473 0.9686 0.0
C517 C 0.53012 0.51417 0.97981 0.0
C518 C 0.51825 0.47959 0.96254 0.0
C519 C 0.52516 0.48573 0.93486 0.0
C520 C 0.54927 0.48439 0.04869 0.0
C521 C 0.5379 0.50774 0.06567 0.0
C522 C 0.5445 0.4847 0.02102 0.0
C523 C 0.5288 0.50891 1.00945 0.0
C524 C 0.51588 0.53104 0.02647 0.0
C525 C 0.52004 0.53017 0.05433 0.0
H526 H 0.03927 0.43294 0.2631 0.0
H527 H 1.01297 0.53424 0.25195 0.0
H528 H 0.04159 0.44373 0.31167 0.0
H529 H 1.01535 0.54503 0.30006 0.0
H530 H 0.07986 0.58804 0.38138 0.0
H531 H 0.07139 0.57212 0.33393 0.0
H532 H 0.99617 0.43907 0.35182 0.0
H533 H 1.005 0.45512 0.3998 0.0
C534 C 1.03389 0.45738 0.27102 0.0
C535 C 1.02642 0.48305 0.2537 0.0
C536 C 1.03494 0.46338 0.29881 0.0
C537 C 1.02887 0.4954 0.30975 0.0
C538 C 1.02071 0.52047 0.29232 0.0
C539 C 1.01933 0.51427 0.26471 0.0
C540 C 0.0612 0.55534 0.3753 0.0
C541 C 0.0428 0.52289 0.39448 0.0
C542 C 0.05621 0.54623 0.34803 0.0
C543 C 1.033 0.50433 0.33902 0.0
C544 C 1.01438 0.47169 0.35812 0.0
C545 C 1.01899 0.4809 0.3856 0.0
loop_
_geom_bond_atom_site_label_1
_geom_bond_atom_site_label_2
_geom_bond_distance
_geom_bond_site_symmetry_2
_ccdc_geom_bond_type
Tb0 C2 2.809 . S
Tb0 O20 2.484 . S
Tb0 O21 2.440 . S
Tb0 O22 2.660 . S
Tb0 O23 2.409 . S
Tb0 O24 2.378 . S
Tb0 O28 2.325 . S
Tb0 O31 2.341 1_455 S
Tb1 C11 2.809 . S
Tb1 O22 2.328 1_655 S
Tb1 O25 2.341 1_655 S
Tb1 O26 2.484 . S
Tb1 O27 2.440 . S
Tb1 O28 2.658 1_655 S
Tb1 O29 2.409 . S
Tb1 O30 2.378 . S
C2 Tb0 2.809 . S
C2 C3 1.514 . S
C2 O20 1.248 . S
C2 O21 1.266 . S
C3 C2 1.514 . S
C3 C4 1.359 . S
C3 C8 1.348 . S
C4 C3 1.359 . S
C4 C5 1.380 . S
C4 H32 0.929 . S
C5 C4 1.380 . S
C5 C6 1.347 . S
C5 H33 0.931 . S
C6 C5 1.347 . S
C6 C7 1.369 . S
C7 C6 1.369 . S
C7 C8 1.408 . S
C7 H34 0.930 . S
C8 C3 1.348 . S
C8 C7 1.408 . S
C8 H35 0.930 . S
C9 O22 1.284 . S
C9 O23 1.254 . S
C10 O24 1.236 . S
C10 O25 1.266 . S
C11 Tb1 2.809 . S
C11 C12 1.514 . S
C11 O26 1.248 . S
C11 O27 1.266 . S
C12 C11 1.514 . S
C12 C13 1.359 . S
C12 C17 1.348 . S
C13 C12 1.359 . S
C13 C14 1.380 . S
C13 H36 0.929 . S
C14 C13 1.380 . S
C14 C15 1.347 . S
C14 H37 0.931 . S
C15 C14 1.347 . S
C15 C16 1.369 . S
C16 C15 1.369 . S
C16 C17 1.408 . S
C16 H38 0.930 . S
C17 C12 1.348 . S
C17 C16 1.408 . S
C17 H39 0.930 . S
C18 O28 1.281 . S
C18 O29 1.254 1_455 S
C19 O30 1.236 . S
C19 O31 1.266 . S
O20 Tb0 2.484 . S
O20 C2 1.248 . S
O21 Tb0 2.440 . S
O21 C2 1.266 . S
O22 Tb0 2.660 . S
O22 Tb1 2.328 1_455 S
O22 C9 1.284 . S
O23 Tb0 2.409 . S
O23 C9 1.254 . S
O24 Tb0 2.378 . S
O24 C10 1.236 . S
O25 Tb1 2.341 1_455 S
O25 C10 1.266 . S
O26 Tb1 2.484 . S
O26 C11 1.248 . S
O27 Tb1 2.440 . S
O27 C11 1.266 . S
O28 Tb0 2.325 . S
O28 Tb1 2.658 1_455 S
O28 C18 1.281 . S
O29 Tb1 2.409 . S
O29 C18 1.254 1_655 S
O30 Tb1 2.378 . S
O30 C19 1.236 . S
O31 Tb0 2.341 1_655 S
O31 C19 1.266 . S
H32 C4 0.929 . S
H33 C5 0.931 . S
H34 C7 0.930 . S
H35 C8 0.930 . S
H36 C13 0.929 . S
H37 C14 0.931 . S
H38 C16 0.930 . S
H39 C17 0.930 . S
Tb40 C42 2.809 . S
Tb40 O60 2.484 . S
Tb40 O61 2.440 . S
Tb40 O62 2.658 1_565 S
Tb40 O63 2.406 1_565 S
Tb40 O64 2.378 . S
Tb40 O68 2.325 1_565 S
Tb40 O71 2.341 1_565 S
Tb41 C51 2.809 . S
Tb41 O62 2.325 . S
Tb41 O65 2.341 1_545 S
Tb41 O66 2.484 . S
Tb41 O67 2.440 . S
Tb41 O68 2.658 . S
Tb41 O69 2.409 . S
Tb41 O70 2.378 . S
C42 Tb40 2.809 . S
C42 C43 1.514 . S
C42 O60 1.248 . S
C42 O61 1.266 . S
C43 C42 1.514 . S
C43 C44 1.359 . S
C43 C48 1.348 . S
C44 C43 1.359 . S
C44 C45 1.380 . S
C44 H72 0.929 . S
C45 C44 1.380 . S
C45 C46 1.347 . S
C45 H73 0.931 . S
C46 C45 1.347 . S
C46 C47 1.369 . S
C47 C46 1.369 . S
C47 C48 1.408 . S
C47 H74 0.930 . S
C48 C43 1.348 . S
C48 C47 1.408 . S
C48 H75 0.930 . S
C49 O62 1.281 . S
C49 O63 1.266 . S
C50 O64 1.236 . S
C50 O65 1.266 . S
C51 Tb41 2.809 . S
C51 C52 1.514 . S
C51 O66 1.248 . S
C51 O67 1.266 . S
C52 C51 1.514 . S
C52 C53 1.359 . S
C52 C57 1.348 . S
C53 C52 1.359 . S
C53 C54 1.380 . S
C53 H76 0.929 . S
C54 C53 1.380 . S
C54 C55 1.347 . S
C54 H77 0.931 . S
C55 C54 1.347 . S
C55 C56 1.369 . S
C56 C55 1.369 . S
C56 C57 1.408 . S
C56 H78 0.930 . S
C57 C52 1.348 . S
C57 C56 1.408 . S
C57 H79 0.930 . S
C58 O68 1.281 . S
C58 O69 1.254 . S
C59 O70 1.236 . S
C59 O71 1.266 . S
O60 Tb40 2.484 . S
O60 C42 1.248 . S
O61 Tb40 2.440 . S
O61 C42 1.266 . S
O62 Tb40 2.658 1_545 S
O62 Tb41 2.325 . S
O62 C49 1.281 . S
O63 Tb40 2.406 1_545 S
O63 C49 1.266 . S
O64 Tb40 2.378 . S
O64 C50 1.236 . S
O65 Tb41 2.341 1_565 S
O65 C50 1.266 . S
O66 Tb41 2.484 . S
O66 C51 1.248 . S
O67 Tb41 2.440 . S
O67 C51 1.266 . S
O68 Tb40 2.325 1_545 S
O68 Tb41 2.658 . S
O68 C58 1.281 . S
O69 Tb41 2.409 . S
O69 C58 1.254 . S
O70 Tb41 2.378 . S
O70 C59 1.236 . S
O71 Tb40 2.341 1_545 S
O71 C59 1.266 . S
H72 C44 0.929 . S
H73 C45 0.931 . S
H74 C47 0.930 . S
H75 C48 0.930 . S
H76 C53 0.929 . S
H77 C54 0.931 . S
H78 C56 0.930 . S
H79 C57 0.930 . S
Tb80 C82 2.809 . S
Tb80 O100 2.484 . S
Tb80 O101 2.440 . S
Tb80 O102 2.658 . S
Tb80 O103 2.409 . S
Tb80 O104 2.378 . S
Tb80 O108 2.325 . S
Tb80 O111 2.341 . S
Tb81 C91 2.809 . S
Tb81 O102 2.325 . S
Tb81 O105 2.341 . S
Tb81 O106 2.484 . S
Tb81 O107 2.440 . S
Tb81 O108 2.658 . S
Tb81 O109 2.409 . S
Tb81 O110 2.378 . S
C82 Tb80 2.809 . S
C82 C83 1.514 . S
C82 O100 1.248 . S
C82 O101 1.266 . S
C83 C82 1.514 . S
C83 C84 1.359 . S
C83 C88 1.348 . S
C84 C83 1.359 . S
C84 C85 1.380 . S
C84 H112 0.929 . S
C85 C84 1.380 . S
C85 C86 1.347 . S
C85 H113 0.931 . S
C86 C85 1.347 . S
C86 C87 1.369 . S
C87 C86 1.369 . S
C87 C88 1.408 . S
C87 H114 0.930 . S
C88 C83 1.348 . S
C88 C87 1.408 . S
C88 H115 0.930 . S
C89 O102 1.281 . S
C89 O103 1.254 . S
C90 O104 1.236 . S
C90 O105 1.266 . S
C91 Tb81 2.809 . S
C91 C92 1.514 . S
C91 O106 1.248 . S
C91 O107 1.266 . S
C92 C91 1.514 . S
C92 C93 1.359 . S
C92 C97 1.348 . S
C93 C92 1.359 . S
C93 C94 1.380 . S
C93 H116 0.929 . S
C94 C93 1.380 . S
C94 C95 1.347 . S
C94 H117 0.931 . S
C95 C94 1.347 . S
C95 C96 1.369 . S
C96 C95 1.369 . S
C96 C97 1.408 . S
C96 H118 0.930 . S
C97 C92 1.348 . S
C97 C96 1.408 . S
C97 H119 0.930 . S
C98 O108 1.281 . S
C98 O109 1.254 . S
C99 O110 1.236 . S
C99 O111 1.266 . S
O100 Tb80 2.484 . S
O100 C82 1.248 . S
O101 Tb80 2.440 . S
O101 C82 1.266 . S
O102 Tb80 2.658 . S
O102 Tb81 2.325 . S
O102 C89 1.281 . S
O103 Tb80 2.409 . S
O103 C89 1.254 . S
O104 Tb80 2.378 . S
O104 C90 1.236 . S
O105 Tb81 2.341 . S
O105 C90 1.266 . S
O106 Tb81 2.484 . S
O106 C91 1.248 . S
O107 Tb81 2.440 . S
O107 C91 1.266 . S
O108 Tb80 2.325 . S
O108 Tb81 2.658 . S
O108 C98 1.281 . S
O109 Tb81 2.409 . S
O109 C98 1.254 . S
O110 Tb81 2.378 . S
O110 C99 1.236 . S
O111 Tb80 2.341 . S
O111 C99 1.266 . S
H112 C84 0.929 . S
H113 C85 0.931 . S
H114 C87 0.930 . S
H115 C88 0.930 . S
H116 C93 0.929 . S
H117 C94 0.931 . S
H118 C96 0.930 . S
H119 C97 0.930 . S
O120 Cd121 2.300 . S
O120 C127 1.275 . S
Cd121 O120 2.300 . S
Cd121 O129 2.381 . S
Cd121 O130 2.378 . S
O122 Cd123 2.385 1_545 S
O122 C127 1.255 . S
Cd123 O122 2.385 1_565 S
Cd123 O124 2.317 . S
O124 Cd123 2.317 . S
O124 C125 1.232 . S
C125 O124 1.232 . S
C125 O126 1.218 . S
O126 C125 1.218 . S
C127 O120 1.275 . S
C127 O122 1.255 . S
C128 O129 1.258 . S
C128 O130 1.256 . S
O129 Cd121 2.381 . S
O129 C128 1.258 . S
O130 Cd121 2.378 . S
O130 C128 1.256 . S
O131 Cd132 2.300 . S
O131 C138 1.275 . S
Cd132 O131 2.300 . S
Cd132 O140 2.381 . S
Cd132 O141 2.378 . S
O133 Cd134 2.385 . S
O133 C138 1.255 . S
Cd134 O133 2.385 . S
Cd134 O135 2.317 . S
O135 Cd134 2.317 . S
O135 C136 1.232 . S
C136 O135 1.232 . S
C136 O137 1.218 . S
O137 C136 1.218 . S
C138 O131 1.275 . S
C138 O133 1.255 . S
C139 O140 1.258 . S
C139 O141 1.256 . S
O140 Cd132 2.381 . S
O140 C139 1.258 . S
O141 Cd132 2.378 . S
O141 C139 1.256 . S
O142 Cd143 2.300 . S
O142 C149 1.275 1_455 S
Cd143 O142 2.300 . S
Cd143 O151 2.381 . S
Cd143 O152 2.378 . S
O144 Cd145 2.385 . S
O144 C149 1.255 . S
Cd145 O144 2.385 . S
Cd145 O146 2.317 . S
O146 Cd145 2.317 . S
O146 C147 1.232 . S
C147 O146 1.232 . S
C147 O148 1.218 . S
O148 C147 1.218 . S
C149 O142 1.275 1_655 S
C149 O144 1.255 . S
C150 O151 1.258 . S
C150 O152 1.256 . S
O151 Cd143 2.381 . S
O151 C150 1.258 . S
O152 Cd143 2.378 . S
O152 C150 1.256 . S
O153 Cd154 2.300 . S
O153 C160 1.275 . S
Cd154 O153 2.300 . S
Cd154 O162 2.381 . S
Cd154 O163 2.378 . S
O155 Cd156 2.385 . S
O155 C160 1.255 1_655 S
Cd156 O155 2.385 . S
Cd156 O157 2.317 . S
O157 Cd156 2.317 . S
O157 C158 1.232 . S
C158 O157 1.232 . S
C158 O159 1.218 . S
O159 C158 1.218 . S
C160 O153 1.275 . S
C160 O155 1.255 1_455 S
C161 O162 1.258 . S
C161 O163 1.256 . S
O162 Cd154 2.381 . S
O162 C161 1.258 . S
O163 Cd154 2.378 . S
O163 C161 1.256 . S
O164 Cd165 2.300 . S
O164 C171 1.275 1_565 S
Cd165 O164 2.300 . S
Cd165 O173 2.381 . S
Cd165 O174 2.378 . S
O166 Cd167 2.385 . S
O166 C171 1.255 . S
Cd167 O166 2.385 . S
Cd167 O168 2.317 . S
O168 Cd167 2.317 . S
O168 C169 1.232 . S
C169 O168 1.232 . S
C169 O170 1.218 . S
O170 C169 1.218 . S
C171 O164 1.275 1_545 S
C171 O166 1.255 . S
C172 O173 1.258 . S
C172 O174 1.256 . S
O173 Cd165 2.381 . S
O173 C172 1.258 . S
O174 Cd165 2.378 . S
O174 C172 1.256 . S
O175 Cd176 2.300 . S
O175 C182 1.275 . S
Cd176 O175 2.300 . S
Cd176 O184 2.381 . S
Cd176 O185 2.378 . S
O177 Cd178 2.385 . S
O177 C182 1.255 . S
Cd178 O177 2.385 . S
Cd178 O179 2.317 . S
O179 Cd178 2.317 . S
O179 C180 1.232 . S
C180 O179 1.232 . S
C180 O181 1.218 . S
O181 C180 1.218 . S
C182 O175 1.275 . S
C182 O177 1.255 . S
C183 O184 1.258 . S
C183 O185 1.256 . S
O184 Cd176 2.381 . S
O184 C183 1.258 . S
O185 Cd176 2.378 . S
O185 C183 1.256 . S
H186 C194 0.950 . S
H187 C199 0.950 . S
H188 C196 0.950 . S
H189 C198 0.950 . S
H190 C200 0.950 . S
H191 C202 0.950 . S
H192 C204 0.950 . S
H193 C205 0.950 . S
C194 H186 0.950 . S
C194 C195 1.386 . S
C194 C196 1.391 . S
C195 C194 1.386 . S
C195 C199 1.393 . S
C196 H188 0.950 . S
C196 C194 1.391 . S
C196 C197 1.400 . S
C197 C196 1.400 . S
C197 C198 1.398 . S
C197 C203 1.491 . S
C198 H189 0.950 . S
C198 C197 1.398 . S
C198 C199 1.391 . S
C199 H187 0.950 . S
C199 C195 1.393 . S
C199 C198 1.391 . S
C200 H190 0.950 . S
C200 C201 1.386 . S
C200 C202 1.391 . S
C201 C200 1.386 . S
C201 C205 1.393 . S
C202 H191 0.950 . S
C202 C200 1.391 . S
C202 C203 1.400 . S
C203 C197 1.491 . S
C203 C202 1.400 . S
C203 C204 1.398 . S
C204 H192 0.950 . S
C204 C203 1.398 . S
C204 C205 1.391 . S
C205 H193 0.950 . S
C205 C201 1.393 . S
C205 C204 1.391 . S
H206 C214 0.950 . S
H207 C219 0.950 . S
H208 C216 0.950 . S
H209 C218 0.950 . S
H210 C220 0.950 . S
H211 C222 0.950 . S
H212 C224 0.950 . S
H213 C225 0.950 . S
C214 H206 0.950 . S
C214 C215 1.386 . S
C214 C216 1.391 . S
C215 C214 1.386 . S
C215 C219 1.393 . S
C216 H208 0.950 . S
C216 C214 1.391 . S
C216 C217 1.400 . S
C217 C216 1.400 . S
C217 C218 1.398 . S
C217 C223 1.491 . S
C218 H209 0.950 . S
C218 C217 1.398 . S
C218 C219 1.391 . S
C219 H207 0.950 . S
C219 C215 1.393 . S
C219 C218 1.391 . S
C220 H210 0.950 . S
C220 C221 1.386 . S
C220 C222 1.391 . S
C221 C220 1.386 . S
C221 C225 1.393 . S
C222 H211 0.950 . S
C222 C220 1.391 . S
C222 C223 1.400 . S
C223 C217 1.491 . S
C223 C222 1.400 . S
C223 C224 1.398 . S
C224 H212 0.950 . S
C224 C223 1.398 . S
C224 C225 1.391 . S
C225 H213 0.950 . S
C225 C221 1.393 . S
C225 C224 1.391 . S
H226 C234 0.950 . S
H227 C239 0.950 . S
H228 C236 0.950 . S
H229 C238 0.950 . S
H230 C240 0.950 . S
H231 C242 0.950 . S
H232 C244 0.950 . S
H233 C245 0.950 . S
C234 H226 0.950 . S
C234 C235 1.386 . S
C234 C236 1.391 . S
C235 C234 1.386 . S
C235 C239 1.393 . S
C236 H228 0.950 . S
C236 C234 1.391 . S
C236 C237 1.400 . S
C237 C236 1.400 . S
C237 C238 1.398 . S
C237 C243 1.491 . S
C238 H229 0.950 . S
C238 C237 1.398 . S
C238 C239 1.391 . S
C239 H227 0.950 . S
C239 C235 1.393 . S
C239 C238 1.391 . S
C240 H230 0.950 . S
C240 C241 1.386 . S
C240 C242 1.391 . S
C241 C240 1.386 . S
C241 C245 1.393 . S
C242 H231 0.950 . S
C242 C240 1.391 . S
C242 C243 1.400 . S
C243 C237 1.491 . S
C243 C242 1.400 . S
C243 C244 1.398 . S
C244 H232 0.950 . S
C244 C243 1.398 . S
C244 C245 1.391 . S
C245 H233 0.950 . S
C245 C241 1.393 . S
C245 C244 1.391 . S
H246 C254 0.950 . S
H247 C259 0.950 . S
H248 C256 0.950 . S
H249 C258 0.950 . S
H250 C260 0.950 . S
H251 C262 0.950 . S
H252 C264 0.950 . S
H253 C265 0.950 . S
C254 H246 0.950 . S
C254 C255 1.386 . S
C254 C256 1.391 . S
C255 C254 1.386 . S
C255 C259 1.393 . S
C256 H248 0.950 . S
C256 C254 1.391 . S
C256 C257 1.400 . S
C257 C256 1.400 . S
C257 C258 1.398 . S
C257 C263 1.491 . S
C258 H249 0.950 . S
C258 C257 1.398 . S
C258 C259 1.391 . S
C259 H247 0.950 . S
C259 C255 1.393 . S
C259 C258 1.391 . S
C260 H250 0.950 . S
C260 C261 1.386 . S
C260 C262 1.391 . S
C261 C260 1.386 . S
C261 C265 1.393 . S
C262 H251 0.950 . S
C262 C260 1.391 . S
C262 C263 1.400 . S
C263 C257 1.491 . S
C263 C262 1.400 . S
C263 C264 1.398 . S
C264 H252 0.950 . S
C264 C263 1.398 . S
C264 C265 1.391 . S
C265 H253 0.950 . S
C265 C261 1.393 . S
C265 C264 1.391 . S
H266 C274 0.950 . S
H267 C279 0.950 . S
H268 C276 0.950 . S
H269 C278 0.950 . S
H270 C280 0.950 . S
H271 C282 0.950 . S
H272 C284 0.950 . S
H273 C285 0.950 . S
C274 H266 0.950 . S
C274 C275 1.386 . S
C274 C276 1.391 . S
C275 C274 1.386 . S
C275 C279 1.393 . S
C276 H268 0.950 . S
C276 C274 1.391 . S
C276 C277 1.400 . S
C277 C276 1.400 . S
C277 C278 1.398 . S
C277 C283 1.491 . S
C278 H269 0.950 . S
C278 C277 1.398 . S
C278 C279 1.391 . S
C279 H267 0.950 . S
C279 C275 1.393 . S
C279 C278 1.391 . S
C280 H270 0.950 . S
C280 C281 1.386 . S
C280 C282 1.391 . S
C281 C280 1.386 . S
C281 C285 1.393 . S
C282 H271 0.950 . S
C282 C280 1.391 . S
C282 C283 1.400 . S
C283 C277 1.491 . S
C283 C282 1.400 . S
C283 C284 1.398 . S
C284 H272 0.950 . S
C284 C283 1.398 . S
C284 C285 1.391 . S
C285 H273 0.950 . S
C285 C281 1.393 . S
C285 C284 1.391 . S
H286 C294 0.950 . S
H287 C299 0.950 . S
H288 C296 0.950 . S
H289 C298 0.950 . S
H290 C300 0.950 . S
H291 C302 0.950 . S
H292 C304 0.950 . S
H293 C305 0.950 . S
C294 H286 0.950 . S
C294 C295 1.386 . S
C294 C296 1.391 . S
C295 C294 1.386 . S
C295 C299 1.393 . S
C296 H288 0.950 . S
C296 C294 1.391 . S
C296 C297 1.400 . S
C297 C296 1.400 . S
C297 C298 1.398 . S
C297 C303 1.491 . S
C298 H289 0.950 . S
C298 C297 1.398 . S
C298 C299 1.391 . S
C299 H287 0.950 . S
C299 C295 1.393 . S
C299 C298 1.391 . S
C300 H290 0.950 . S
C300 C301 1.386 . S
C300 C302 1.391 . S
C301 C300 1.386 . S
C301 C305 1.393 . S
C302 H291 0.950 . S
C302 C300 1.391 . S
C302 C303 1.400 . S
C303 C297 1.491 . S
C303 C302 1.400 . S
C303 C304 1.398 . S
C304 H292 0.950 . S
C304 C303 1.398 . S
C304 C305 1.391 . S
C305 H293 0.950 . S
C305 C301 1.393 . S
C305 C304 1.391 . S
H306 C314 0.950 . S
H307 C319 0.950 . S
H308 C316 0.950 . S
H309 C318 0.950 . S
H310 C320 0.950 . S
H311 C322 0.950 . S
H312 C324 0.950 . S
H313 C325 0.950 . S
C314 H306 0.950 . S
C314 C315 1.386 . S
C314 C316 1.391 . S
C315 C314 1.386 . S
C315 C319 1.393 . S
C316 H308 0.950 . S
C316 C314 1.391 . S
C316 C317 1.400 . S
C317 C316 1.400 . S
C317 C318 1.398 . S
C317 C323 1.491 . S
C318 H309 0.950 . S
C318 C317 1.398 . S
C318 C319 1.391 . S
C319 H307 0.950 . S
C319 C315 1.393 . S
C319 C318 1.391 . S
C320 H310 0.950 . S
C320 C321 1.386 . S
C320 C322 1.391 . S
C321 C320 1.386 . S
C321 C325 1.393 . S
C322 H311 0.950 . S
C322 C320 1.391 . S
C322 C323 1.400 . S
C323 C317 1.491 . S
C323 C322 1.400 . S
C323 C324 1.398 . S
C324 H312 0.950 . S
C324 C323 1.398 . S
C324 C325 1.391 . S
C325 H313 0.950 . S
C325 C321 1.393 . S
C325 C324 1.391 . S
H326 C334 0.950 . S
H327 C339 0.950 . S
H328 C336 0.950 . S
H329 C338 0.950 . S
H330 C340 0.950 . S
H331 C342 0.950 . S
H332 C344 0.950 . S
H333 C345 0.950 . S
C334 H326 0.950 . S
C334 C335 1.386 . S
C334 C336 1.391 . S
C335 C334 1.386 . S
C335 C339 1.393 . S
C336 H328 0.950 . S
C336 C334 1.391 . S
C336 C337 1.400 . S
C337 C336 1.400 . S
C337 C338 1.398 . S
C337 C343 1.491 . S
C338 H329 0.950 . S
C338 C337 1.398 . S
C338 C339 1.391 . S
C339 H327 0.950 . S
C339 C335 1.393 . S
C339 C338 1.391 . S
C340 H330 0.950 . S
C340 C341 1.386 . S
C340 C342 1.391 . S
C341 C340 1.386 . S
C341 C345 1.393 . S
C342 H331 0.950 . S
C342 C340 1.391 . S
C342 C343 1.400 . S
C343 C337 1.491 . S
C343 C342 1.400 . S
C343 C344 1.398 . S
C344 H332 0.950 . S
C344 C343 1.398 . S
C344 C345 1.391 . S
C345 H333 0.950 . S
C345 C341 1.393 . S
C345 C344 1.391 . S
H346 C354 0.950 . S
H347 C359 0.950 . S
H348 C356 0.950 . S
H349 C358 0.950 . S
H350 C360 0.950 . S
H351 C362 0.950 . S
H352 C364 0.950 . S
H353 C365 0.950 . S
C354 H346 0.950 . S
C354 C355 1.386 . S
C354 C356 1.391 . S
C355 C354 1.386 . S
C355 C359 1.393 . S
C356 H348 0.950 . S
C356 C354 1.391 . S
C356 C357 1.400 . S
C357 C356 1.400 . S
C357 C358 1.398 . S
C357 C363 1.491 . S
C358 H349 0.950 . S
C358 C357 1.398 . S
C358 C359 1.391 . S
C359 H347 0.950 . S
C359 C355 1.393 . S
C359 C358 1.391 . S
C360 H350 0.950 . S
C360 C361 1.386 . S
C360 C362 1.391 . S
C361 C360 1.386 . S
C361 C365 1.393 . S
C362 H351 0.950 . S
C362 C360 1.391 . S
C362 C363 1.400 . S
C363 C357 1.491 . S
C363 C362 1.400 . S
C363 C364 1.398 . S
C364 H352 0.950 . S
C364 C363 1.398 . S
C364 C365 1.391 . S
C365 H353 0.950 . S
C365 C361 1.393 . S
C365 C364 1.391 . S
H366 C374 0.950 . S
H367 C379 0.950 . S
H368 C376 0.950 . S
H369 C378 0.950 . S
H370 C380 0.950 . S
H371 C382 0.950 . S
H372 C384 0.950 . S
H373 C385 0.950 . S
C374 H366 0.950 . S
C374 C375 1.386 . S
C374 C376 1.391 . S
C375 C374 1.386 . S
C375 C379 1.393 . S
C376 H368 0.950 . S
C376 C374 1.391 . S
C376 C377 1.400 . S
C377 C376 1.400 . S
C377 C378 1.398 . S
C377 C383 1.491 . S
C378 H369 0.950 . S
C378 C377 1.398 . S
C378 C379 1.391 . S
C379 H367 0.950 . S
C379 C375 1.393 . S
C379 C378 1.391 . S
C380 H370 0.950 . S
C380 C381 1.386 . S
C380 C382 1.391 . S
C381 C380 1.386 . S
C381 C385 1.393 . S
C382 H371 0.950 . S
C382 C380 1.391 . S
C382 C383 1.400 . S
C383 C377 1.491 . S
C383 C382 1.400 . S
C383 C384 1.398 . S
C384 H372 0.950 . S
C384 C383 1.398 . S
C384 C385 1.391 . S
C385 H373 0.950 . S
C385 C381 1.393 . S
C385 C384 1.391 . S
H386 C394 0.950 . S
H387 C399 0.950 . S
H388 C396 0.950 . S
H389 C398 0.950 . S
H390 C400 0.950 . S
H391 C402 0.950 . S
H392 C404 0.950 . S
H393 C405 0.950 . S
C394 H386 0.950 . S
C394 C395 1.386 . S
C394 C396 1.391 . S
C395 C394 1.386 . S
C395 C399 1.393 . S
C396 H388 0.950 . S
C396 C394 1.391 . S
C396 C397 1.400 . S
C397 C396 1.400 . S
C397 C398 1.398 . S
C397 C403 1.491 . S
C398 H389 0.950 . S
C398 C397 1.398 . S
C398 C399 1.391 . S
C399 H387 0.950 . S
C399 C395 1.393 . S
C399 C398 1.391 . S
C400 H390 0.950 . S
C400 C401 1.386 . S
C400 C402 1.391 . S
C401 C400 1.386 . S
C401 C405 1.393 . S
C402 H391 0.950 . S
C402 C400 1.391 . S
C402 C403 1.400 . S
C403 C397 1.491 . S
C403 C402 1.400 . S
C403 C404 1.398 . S
C404 H392 0.950 . S
C404 C403 1.398 . S
C404 C405 1.391 . S
C405 H393 0.950 . S
C405 C401 1.393 . S
C405 C404 1.391 . S
H406 C414 0.950 . S
H407 C419 0.950 . S
H408 C416 0.950 . S
H409 C418 0.950 . S
H410 C420 0.950 . S
H411 C422 0.950 . S
H412 C424 0.950 . S
H413 C425 0.950 . S
C414 H406 0.950 . S
C414 C415 1.386 . S
C414 C416 1.391 . S
C415 C414 1.386 . S
C415 C419 1.393 . S
C416 H408 0.950 . S
C416 C414 1.391 . S
C416 C417 1.400 . S
C417 C416 1.400 . S
C417 C418 1.398 . S
C417 C423 1.491 . S
C418 H409 0.950 . S
C418 C417 1.398 . S
C418 C419 1.391 . S
C419 H407 0.950 . S
C419 C415 1.393 . S
C419 C418 1.391 . S
C420 H410 0.950 . S
C420 C421 1.386 . S
C420 C422 1.391 . S
C421 C420 1.386 . S
C421 C425 1.393 . S
C422 H411 0.950 . S
C422 C420 1.391 . S
C422 C423 1.400 . S
C423 C417 1.491 . S
C423 C422 1.400 . S
C423 C424 1.398 . S
C424 H412 0.950 . S
C424 C423 1.398 . S
C424 C425 1.391 . S
C425 H413 0.950 . S
C425 C421 1.393 . S
C425 C424 1.391 . S
H426 C434 0.950 . S
H427 C439 0.950 . S
H428 C436 0.950 . S
H429 C438 0.950 . S
H430 C440 0.950 . S
H431 C442 0.954 . S
H432 C444 0.950 1_554 S
H433 C445 0.950 . S
C434 H426 0.950 . S
C434 C435 1.386 1_655 S
C434 C436 1.391 . S
C435 C434 1.386 1_455 S
C435 C439 1.393 . S
C436 H428 0.950 . S
C436 C434 1.391 . S
C436 C437 1.400 1_655 S
C437 C436 1.400 1_455 S
C437 C438 1.398 . S
C437 C443 1.490 . S
C438 H429 0.950 . S
C438 C437 1.398 . S
C438 C439 1.391 . S
C439 H427 0.950 . S
C439 C435 1.393 . S
C439 C438 1.391 . S
C440 H430 0.950 . S
C440 C441 1.386 1_455 S
C440 C442 1.391 . S
C441 C440 1.386 1_655 S
C441 C445 1.393 . S
C442 H431 0.954 . S
C442 C440 1.391 . S
C442 C443 1.398 1_556 S
C443 C437 1.490 . S
C443 C442 1.398 1_554 S
C443 C444 1.403 1_454 S
C444 H432 0.950 1_556 S
C444 C443 1.403 1_656 S
C444 C445 1.391 . S
C445 H433 0.950 . S
C445 C441 1.393 . S
C445 C444 1.391 . S
H446 C454 0.950 . S
H447 C459 0.950 . S
H448 C456 0.950 . S
H449 C458 0.967 . S
H450 C460 0.950 1_565 S
H451 C462 0.924 1_565 S
H452 C464 0.950 . S
H453 C465 0.950 . S
C454 H446 0.950 . S
C454 C455 1.386 . S
C454 C456 1.391 . S
C455 C454 1.386 . S
C455 C459 1.393 1_545 S
C456 H448 0.950 . S
C456 C454 1.391 . S
C456 C457 1.400 . S
C457 C456 1.400 . S
C457 C458 1.380 1_545 S
C457 C463 1.491 . S
C458 H449 0.967 . S
C458 C457 1.380 1_565 S
C458 C459 1.393 . S
C459 H447 0.950 . S
C459 C455 1.393 1_565 S
C459 C458 1.393 . S
C460 H450 0.950 1_545 S
C460 C461 1.386 . S
C460 C462 1.394 . S
C461 C460 1.386 . S
C461 C465 1.393 . S
C462 H451 0.924 1_545 S
C462 C460 1.394 . S
C462 C463 1.423 . S
C463 C457 1.491 . S
C463 C462 1.423 . S
C463 C464 1.398 . S
C464 H452 0.950 . S
C464 C463 1.398 . S
C464 C465 1.391 . S
C465 H453 0.950 . S
C465 C461 1.393 . S
C465 C464 1.391 . S
H466 C474 0.950 . S
H467 C479 0.950 . S
H468 C476 0.950 . S
H469 C478 0.950 . S
H470 C480 0.950 . S
H471 C482 0.950 . S
H472 C484 0.950 . S
H473 C485 0.950 . S
C474 H466 0.950 . S
C474 C475 1.386 . S
C474 C476 1.391 . S
C475 C474 1.386 . S
C475 C479 1.393 . S
C476 H468 0.950 . S
C476 C474 1.391 . S
C476 C477 1.400 . S
C477 C476 1.400 . S
C477 C478 1.398 . S
C477 C483 1.491 . S
C478 H469 0.950 . S
C478 C477 1.398 . S
C478 C479 1.391 . S
C479 H467 0.950 . S
C479 C475 1.393 . S
C479 C478 1.391 . S
C480 H470 0.950 . S
C480 C481 1.386 . S
C480 C482 1.391 . S
C481 C480 1.386 . S
C481 C485 1.393 . S
C482 H471 0.950 . S
C482 C480 1.391 . S
C482 C483 1.400 . S
C483 C477 1.491 . S
C483 C482 1.400 . S
C483 C484 1.398 . S
C484 H472 0.950 . S
C484 C483 1.398 . S
C484 C485 1.391 . S
C485 H473 0.950 . S
C485 C481 1.393 . S
C485 C484 1.391 . S
H486 C494 0.950 . S
H487 C499 0.950 . S
H488 C496 0.950 . S
H489 C498 0.950 . S
H490 C500 0.950 . S
H491 C502 0.950 . S
H492 C504 0.950 . S
H493 C505 0.950 . S
C494 H486 0.950 . S
C494 C495 1.386 1_565 S
C494 C496 1.391 . S
C495 C494 1.386 1_545 S
C495 C499 1.393 . S
C496 H488 0.950 . S
C496 C494 1.391 . S
C496 C497 1.400 1_565 S
C497 C496 1.400 1_545 S
C497 C498 1.398 . S
C497 C503 1.491 . S
C498 H489 0.950 . S
C498 C497 1.398 . S
C498 C499 1.391 . S
C499 H487 0.950 . S
C499 C495 1.393 . S
C499 C498 1.391 . S
C500 H490 0.950 . S
C500 C501 1.386 . S
C500 C502 1.391 . S
C501 C500 1.386 . S
C501 C505 1.393 1_545 S
C502 H491 0.950 . S
C502 C500 1.391 . S
C502 C503 1.400 . S
C503 C497 1.491 . S
C503 C502 1.400 . S
C503 C504 1.398 1_545 S
C504 H492 0.950 . S
C504 C503 1.398 1_565 S
C504 C505 1.391 . S
C505 H493 0.950 . S
C505 C501 1.393 1_565 S
C505 C504 1.391 . S
H506 C514 0.950 . S
H507 C519 0.950 . S
H508 C516 0.950 . S
H509 C518 0.950 . S
H510 C520 0.950 . S
H511 C522 0.950 . S
H512 C524 0.950 1_556 S
H513 C525 0.950 . S
C514 H506 0.950 . S
C514 C515 1.386 . S
C514 C516 1.391 . S
C515 C514 1.386 . S
C515 C519 1.393 . S
C516 H508 0.950 . S
C516 C514 1.391 . S
C516 C517 1.400 . S
C517 C516 1.400 . S
C517 C518 1.398 . S
C517 C523 1.491 . S
C518 H509 0.950 . S
C518 C517 1.398 . S
C518 C519 1.391 . S
C519 H507 0.950 . S
C519 C515 1.393 . S
C519 C518 1.391 . S
C520 H510 0.950 . S
C520 C521 1.386 . S
C520 C522 1.391 . S
C521 C520 1.386 . S
C521 C525 1.393 . S
C522 H511 0.950 . S
C522 C520 1.391 . S
C522 C523 1.400 1_554 S
C523 C517 1.491 . S
C523 C522 1.400 1_556 S
C523 C524 1.398 1_556 S
C524 H512 0.950 1_554 S
C524 C523 1.398 1_554 S
C524 C525 1.391 . S
C525 H513 0.950 . S
C525 C521 1.393 . S
C525 C524 1.391 . S
H526 C534 0.950 1_655 S
H527 C539 0.950 . S
H528 C536 0.950 1_655 S
H529 C538 0.950 . S
H530 C540 0.950 . S
H531 C542 0.950 . S
H532 C544 0.950 1_655 S
H533 C545 0.951 1_655 S
C534 H526 0.950 1_455 S
C534 C535 1.386 . S
C534 C536 1.391 . S
C535 C534 1.386 . S
C535 C539 1.393 . S
C536 H528 0.950 1_455 S
C536 C534 1.391 . S
C536 C537 1.400 . S
C537 C536 1.400 . S
C537 C538 1.398 . S
C537 C543 1.491 . S
C538 H529 0.950 . S
C538 C537 1.398 . S
C538 C539 1.391 . S
C539 H527 0.950 . S
C539 C535 1.393 . S
C539 C538 1.391 . S
C540 H530 0.950 . S
C540 C541 1.386 . S
C540 C542 1.391 . S
C541 C540 1.386 . S
C541 C545 1.392 . S
C542 H531 0.950 . S
C542 C540 1.391 . S
C542 C543 1.400 . S
C543 C537 1.491 . S
C543 C542 1.400 . S
C543 C544 1.397 . S
C544 H532 0.950 1_455 S
C544 C543 1.397 . S
C544 C545 1.391 . S
C545 H533 0.951 1_455 S
C545 C541 1.392 . S
C545 C544 1.391 . S
C195 C10 3.177 . S
C201 C180 2.831 . S
C215 C59 3.255 . S
C221 C158 2.914 . S
C235 C90 2.892 . S
C241 C172 2.831 . S
C255 C19 2.958 . S
C261 C183 2.890 . S
C281 C161 2.833 . S
C275 C50 2.888 . S
C301 C169 2.892 . S
C295 C99 3.250 . S
C315 C46 0.521 . S
C321 C136 0.745 . S
C335 C95 0.474 . S
C341 C147 0.657 . S
C355 C6 0.519 . S
C361 C125 0.684 . S
C381 C139 0.256 . S
C375 C55 0.286 . S
C401 C150 0.272 . S
C395 C86 0.316 . S
C415 C15 0.283 . S
C421 C128 0.260 . S
C441 C149 1.173 . S
C435 C9 1.198 . S
C455 C49 1.207 . S
C461 C127 1.200 . S
C475 C89 1.205 . S
C481 C138 1.199 . S
C501 C171 1.667 . S
C495 C58 1.661 . S
C521 C182 1.658 . S
C515 C98 1.697 . S
C535 C18 1.659 . S
C541 C160 1.669 . S
