# Generated by pormake.
# Topology ssb, (4,4)-cn, num edge types: 1
# Building blocks:
#     Node 0, Type 0, BuildingBlock: ESEHIV_clean_sbu_0, # of connection points: 4
#     Node 1, Type 0, BuildingBlock: ESEHIV_clean_sbu_0, # of connection points: 4
#     Node 2, Type 0, BuildingBlock: ESEHIV_clean_sbu_0, # of connection points: 4
#     Node 3, Type 0, BuildingBlock: ESEHIV_clean_sbu_0, # of connection points: 4
#     Node 4, Type 0, BuildingBlock: ESEHIV_clean_sbu_0, # of connection points: 4
#     Node 5, Type 0, BuildingBlock: ESEHIV_clean_sbu_0, # of connection points: 4
#     Node 6, Type 0, BuildingBlock: ESEHIV_clean_sbu_0, # of connection points: 4
#     Node 7, Type 0, BuildingBlock: ESEHIV_clean_sbu_0, # of connection points: 4
#     Node 8, Type 1, BuildingBlock: KOZSID_clean_sbu_0, # of connection points: 4
#     Node 9, Type 1, BuildingBlock: KOZSID_clean_sbu_0, # of connection points: 4
#     Node 10, Type 1, BuildingBlock: KOZSID_clean_sbu_0, # of connection points: 4
#     Node 11, Type 1, BuildingBlock: KOZSID_clean_sbu_0, # of connection points: 4
#     Node 12, Type 1, BuildingBlock: KOZSID_clean_sbu_0, # of connection points: 4
#     Node 13, Type 1, BuildingBlock: KOZSID_clean_sbu_0, # of connection points: 4
#     Node 14, Type 1, BuildingBlock: KOZSID_clean_sbu_0, # of connection points: 4
#     Node 15, Type 1, BuildingBlock: KOZSID_clean_sbu_0, # of connection points: 4
#     Edge 16, Type (0, 1), BuildingBlock: TEMPAE_clean_linker_10, # of connection points: 2
#     Edge 17, Type (0, 1), BuildingBlock: TEMPAE_clean_linker_10, # of connection points: 2
#     Edge 18, Type (0, 1), BuildingBlock: TEMPAE_clean_linker_10, # of connection points: 2
#     Edge 19, Type (0, 1), BuildingBlock: TEMPAE_clean_linker_10, # of connection points: 2
#     Edge 20, Type (0, 1), BuildingBlock: TEMPAE_clean_linker_10, # of connection points: 2
#     Edge 21, Type (0, 1), BuildingBlock: TEMPAE_clean_linker_10, # of connection points: 2
#     Edge 22, Type (0, 1), BuildingBlock: TEMPAE_clean_linker_10, # of connection points: 2
#     Edge 23, Type (0, 1), BuildingBlock: TEMPAE_clean_linker_10, # of connection points: 2
#     Edge 24, Type (0, 1), BuildingBlock: TEMPAE_clean_linker_10, # of connection points: 2
#     Edge 25, Type (0, 1), BuildingBlock: TEMPAE_clean_linker_10, # of connection points: 2
#     Edge 26, Type (0, 1), BuildingBlock: TEMPAE_clean_linker_10, # of connection points: 2
#     Edge 27, Type (0, 1), BuildingBlock: TEMPAE_clean_linker_10, # of connection points: 2
#     Edge 28, Type (0, 1), BuildingBlock: TEMPAE_clean_linker_10, # of connection points: 2
#     Edge 29, Type (0, 1), BuildingBlock: TEMPAE_clean_linker_10, # of connection points: 2
#     Edge 30, Type (0, 1), BuildingBlock: TEMPAE_clean_linker_10, # of connection points: 2
#     Edge 31, Type (0, 1), BuildingBlock: TEMPAE_clean_linker_10, # of connection points: 2
#     Edge 32, Type (0, 1), BuildingBlock: TEMPAE_clean_linker_10, # of connection points: 2
#     Edge 33, Type (0, 1), BuildingBlock: TEMPAE_clean_linker_10, # of connection points: 2
#     Edge 34, Type (0, 1), BuildingBlock: TEMPAE_clean_linker_10, # of connection points: 2
#     Edge 35, Type (0, 1), BuildingBlock: TEMPAE_clean_linker_10, # of connection points: 2
#     Edge 36, Type (0, 1), BuildingBlock: TEMPAE_clean_linker_10, # of connection points: 2
#     Edge 37, Type (0, 1), BuildingBlock: TEMPAE_clean_linker_10, # of connection points: 2
#     Edge 38, Type (0, 1), BuildingBlock: TEMPAE_clean_linker_10, # of connection points: 2
#     Edge 39, Type (0, 1), BuildingBlock: TEMPAE_clean_linker_10, # of connection points: 2
#     Edge 40, Type (0, 1), BuildingBlock: TEMPAE_clean_linker_10, # of connection points: 2
#     Edge 41, Type (0, 1), BuildingBlock: TEMPAE_clean_linker_10, # of connection points: 2
#     Edge 42, Type (0, 1), BuildingBlock: TEMPAE_clean_linker_10, # of connection points: 2
#     Edge 43, Type (0, 1), BuildingBlock: TEMPAE_clean_linker_10, # of connection points: 2
#     Edge 44, Type (0, 1), BuildingBlock: TEMPAE_clean_linker_10, # of connection points: 2
#     Edge 45, Type (0, 1), BuildingBlock: TEMPAE_clean_linker_10, # of connection points: 2
#     Edge 46, Type (0, 1), BuildingBlock: TEMPAE_clean_linker_10, # of connection points: 2
#     Edge 47, Type (0, 1), BuildingBlock: TEMPAE_clean_linker_10, # of connection points: 2
# Relax obj value: 0.004
# Max RMSD: 0.112
# Mean RMSD: 0.054
data_MOF--net-ssb--node1-ESEHIV_clean_sbu_0--node2-KOZSID_clean_sbu_0--edge1-TEMPAE_clean_linker_10
_symmetry_space_group_name_H-M    P1
_symmetry_Int_Tables_number       1
_symmetry_cell_setting            triclinic
loop_
_symmetry_equiv_pos_as_xyz
'x, y, z'
_cell_length_a     56.043238
_cell_length_b     55.808228
_cell_length_c     41.049455
_cell_angle_alpha  92.363417
_cell_angle_beta   94.777827
_cell_angle_gamma 89.986358
loop_
_atom_site_label
_atom_site_type_symbol
_atom_site_fract_x
_atom_site_fract_y
_atom_site_fract_z
_atom_type_partial_charge
Cu0 Cu 0.28633 0.25972 0.27425 0.0
N1 N 0.28192 0.22568 0.27778 0.0
N2 N 0.2815 0.18973 0.30162 0.0
C3 C 0.2828 0.21396 0.30635 0.0
C4 C 0.2796 0.18606 0.2688 0.0
C5 C 0.27962 0.20805 0.25427 0.0
O6 O 0.27043 0.2735 0.31177 0.0
C7 C 0.32769 0.25562 0.24463 0.0
O8 O 0.31181 0.24346 0.22525 0.0
H9 H 0.28515 0.22302 0.33023 0.0
H10 H 0.27851 0.21087 0.22828 0.0
N11 N 0.27233 0.2756 0.23665 0.0
N12 N 0.26578 0.30574 0.20166 0.0
C13 C 0.28068 0.29646 0.22569 0.0
C14 C 0.25149 0.2715 0.21841 0.0
C15 C 0.24736 0.29005 0.19718 0.0
C16 C 0.24839 0.26713 0.30997 0.0
O17 O 0.24025 0.25362 0.28452 0.0
H18 H 0.29691 0.30527 0.2362 0.0
H19 H 0.23968 0.2565 0.22095 0.0
O20 O 0.32086 0.26513 0.27121 0.0
H21 H 0.27834 0.16864 0.25616 0.0
H22 H 0.23182 0.29199 0.17998 0.0
Cu23 Cu 0.80417 0.29288 0.25988 0.0
N24 N 0.78706 0.28005 0.22159 0.0
N25 N 0.75523 0.27272 0.18555 0.0
C26 C 0.76375 0.28477 0.21336 0.0
C27 C 0.77406 0.25992 0.17588 0.0
C28 C 0.79366 0.26454 0.19805 0.0
O29 O 0.80149 0.32753 0.25599 0.0
C30 C 0.78612 0.25722 0.29413 0.0
O31 O 0.79118 0.24556 0.26716 0.0
H32 H 0.75311 0.29639 0.22812 0.0
H33 H 0.81132 0.25683 0.19733 0.0
N34 N 0.83694 0.28477 0.26571 0.0
N35 N 0.87338 0.28125 0.29217 0.0
C36 C 0.84973 0.28428 0.29512 0.0
C37 C 0.85315 0.28156 0.24346 0.0
C38 C 0.87565 0.27962 0.25973 0.0
C39 C 0.81067 0.33489 0.23081 0.0
O40 O 0.82141 0.31919 0.21238 0.0
H41 H 0.842 0.2873 0.31825 0.0
H42 H 0.84911 0.2815 0.21724 0.0
O43 O 0.78989 0.27976 0.29696 0.0
H44 H 0.77375 0.24809 0.15428 0.0
H45 H 0.89243 0.27762 0.24862 0.0
Cu46 Cu 0.77373 0.79389 0.26401 0.0
N47 N 0.78488 0.77719 0.22664 0.0
N48 N 0.78933 0.74667 0.18941 0.0
C49 C 0.77787 0.75476 0.21565 0.0
C50 C 0.80408 0.76498 0.18377 0.0
C51 C 0.80136 0.78354 0.20656 0.0
O52 O 0.73899 0.78827 0.2586 0.0
C53 C 0.81444 0.78899 0.30384 0.0
O54 O 0.82123 0.80094 0.27928 0.0
H55 H 0.76493 0.74439 0.22729 0.0
H56 H 0.81107 0.80033 0.20852 0.0
N57 N 0.77831 0.82796 0.26864 0.0
N58 N 0.78015 0.8651 0.29312 0.0
C59 C 0.77286 0.842 0.29485 0.0
C60 C 0.78922 0.84287 0.24956 0.0
C61 C 0.79044 0.86557 0.26454 0.0
C62 C 0.72874 0.79998 0.23525 0.0
O63 O 0.74185 0.81458 0.21982 0.0
H64 H 0.76446 0.83516 0.3154 0.0
H65 H 0.79623 0.83761 0.22662 0.0
O66 O 0.79262 0.782 0.30263 0.0
H67 H 0.81605 0.76515 0.16443 0.0
H68 H 0.79835 0.88125 0.25504 0.0
Cu69 Cu 0.25397 0.76004 0.24377 0.0
N70 N 0.2667 0.77113 0.20599 0.0
N71 N 0.29531 0.77917 0.17263 0.0
C72 C 0.29007 0.76907 0.2006 0.0
C73 C 0.2742 0.78795 0.15992 0.0
C74 C 0.25665 0.78299 0.18048 0.0
O75 O 0.26084 0.72574 0.24281 0.0
C76 C 0.26451 0.80152 0.27681 0.0
O77 O 0.25127 0.80765 0.25054 0.0
H78 H 0.30309 0.76079 0.21754 0.0
H79 H 0.23804 0.78808 0.17723 0.0
N80 N 0.22076 0.76474 0.24718 0.0
N81 N 0.18628 0.76876 0.27144 0.0
C82 C 0.21016 0.76469 0.27561 0.0
C83 C 0.20293 0.76896 0.22411 0.0
C84 C 0.18176 0.77143 0.23893 0.0
C85 C 0.24781 0.71358 0.22114 0.0
O86 O 0.23051 0.72463 0.20426 0.0
H87 H 0.21999 0.76208 0.29901 0.0
H88 H 0.20503 0.76989 0.19827 0.0
O89 O 0.26931 0.77936 0.28007 0.0
H90 H 0.27151 0.79727 0.13732 0.0
H91 H 0.16431 0.77456 0.22649 0.0
Cu92 Cu 0.27337 0.78596 0.77155 0.0
N93 N 0.2891 0.8005 0.80966 0.0
N94 N 0.31959 0.80959 0.84706 0.0
C95 C 0.31307 0.80266 0.81566 0.0
C96 C 0.29885 0.81274 0.86116 0.0
C97 C 0.28008 0.80705 0.83808 0.0
O98 O 0.27724 0.75038 0.77745 0.0
C99 C 0.27676 0.80483 0.7049 0.0
O100 O 0.26196 0.78775 0.69315 0.0
H101 H 0.32559 0.79786 0.79779 0.0
H102 H 0.26131 0.80638 0.84231 0.0
N103 N 0.23992 0.79042 0.77103 0.0
N104 N 0.20133 0.79215 0.75127 0.0
C105 C 0.2243 0.79737 0.74626 0.0
C106 C 0.22618 0.781 0.79268 0.0
C107 C 0.2025 0.78205 0.78067 0.0
C108 C 0.29474 0.74063 0.79427 0.0
O109 O 0.31469 0.75285 0.8004 0.0
H110 H 0.22959 0.80457 0.72398 0.0
H111 H 0.23306 0.77232 0.81458 0.0
O112 O 0.28508 0.80446 0.73494 0.0
H113 H 0.29741 0.81718 0.88684 0.0
H114 H 0.18744 0.77485 0.79199 0.0
Cu115 Cu 0.27811 0.26454 0.80754 0.0
N116 N 0.26468 0.27992 0.84285 0.0
N117 N 0.25936 0.30981 0.87957 0.0
C118 C 0.27442 0.29939 0.85923 0.0
C119 C 0.23933 0.29618 0.87585 0.0
C120 C 0.24258 0.27792 0.85299 0.0
O121 O 0.31296 0.26915 0.81664 0.0
C122 C 0.25788 0.26749 0.74077 0.0
O123 O 0.26986 0.24776 0.73515 0.0
H124 H 0.29153 0.30679 0.85427 0.0
H125 H 0.2291 0.26527 0.84292 0.0
N126 N 0.27162 0.23148 0.80478 0.0
N127 N 0.27171 0.19389 0.78339 0.0
C128 C 0.283 0.21537 0.78631 0.0
C129 C 0.25291 0.21956 0.8149 0.0
C130 C 0.25293 0.19642 0.80181 0.0
C131 C 0.32201 0.25778 0.84112 0.0
O132 O 0.30784 0.24385 0.85598 0.0
H133 H 0.29846 0.21988 0.77364 0.0
H134 H 0.23931 0.22735 0.82907 0.0
O135 O 0.26159 0.27863 0.76854 0.0
H136 H 0.22303 0.29971 0.88757 0.0
H137 H 0.23913 0.18311 0.80374 0.0
Cu138 Cu 0.78737 0.28578 0.78128 0.0
N139 N 0.82094 0.28275 0.78172 0.0
N140 N 0.85734 0.281 0.76246 0.0
C141 C 0.83336 0.28031 0.75492 0.0
C142 C 0.86006 0.28412 0.79536 0.0
C143 C 0.83767 0.28542 0.80709 0.0
O144 O 0.77503 0.26703 0.74072 0.0
C145 C 0.76429 0.3311 0.80108 0.0
O146 O 0.74441 0.31871 0.80118 0.0
H147 H 0.82488 0.27848 0.73027 0.0
H148 H 0.83395 0.28914 0.83221 0.0
N149 N 0.7746 0.27108 0.81664 0.0
N150 N 0.74686 0.26172 0.85058 0.0
C151 C 0.751 0.26909 0.82057 0.0
C152 C 0.78582 0.26395 0.84486 0.0
C153 C 0.76881 0.25816 0.86576 0.0
C154 C 0.78213 0.2451 0.74057 0.0
O155 O 0.79485 0.23801 0.76675 0.0
H156 H 0.73711 0.27378 0.80207 0.0
H157 H 0.80497 0.26397 0.85055 0.0
O158 O 0.78246 0.32108 0.78921 0.0
H159 H 0.877 0.28641 0.80987 0.0
H160 H 0.77239 0.25312 0.89088 0.0
Cu161 Cu 0.75714 0.78683 0.75335 0.0
N162 N 0.75384 0.75378 0.74584 0.0
N163 N 0.75574 0.71511 0.75774 0.0
C164 C 0.76049 0.7379 0.76853 0.0
C165 C 0.74561 0.71676 0.72688 0.0
C166 C 0.74455 0.74072 0.71953 0.0
O167 O 0.74227 0.79461 0.79462 0.0
C168 C 0.79783 0.78952 0.72109 0.0
O169 O 0.78181 0.78116 0.69826 0.0
H170 H 0.768 0.74314 0.79292 0.0
H171 H 0.73734 0.74807 0.69682 0.0
N172 N 0.74056 0.80415 0.72065 0.0
N173 N 0.73307 0.83397 0.68673 0.0
C174 C 0.74867 0.82472 0.70955 0.0
C175 C 0.71898 0.80026 0.70427 0.0
C176 C 0.71423 0.81879 0.68339 0.0
C177 C 0.72101 0.78623 0.79488 0.0
O178 O 0.71208 0.77378 0.76885 0.0
H179 H 0.7656 0.83294 0.7184 0.0
H180 H 0.70748 0.78509 0.70724 0.0
O181 O 0.79138 0.79365 0.75 0.0
H182 H 0.73942 0.70178 0.7108 0.0
H183 H 0.69836 0.82083 0.66683 0.0
C184 C 0.09058 0.30763 0.58994 0.0
C185 C 0.09716 0.32974 0.60466 0.0
C186 C 0.0828 0.34641 0.58951 0.0
C187 C 0.06817 0.33359 0.56667 0.0
N188 N 0.07211 0.3097 0.56658 0.0
Co189 Co 0.05463 0.28464 0.53728 0.0
N190 N 0.03651 0.30942 0.51109 0.0
C191 C 0.03916 0.33347 0.51518 0.0
C192 C 0.0255 0.3461 0.49263 0.0
C193 C 0.01326 0.32914 0.473 0.0
C194 C 0.01987 0.30699 0.48504 0.0
N195 N 0.0364 0.25952 0.50879 0.0
C196 C 0.01837 0.26165 0.48472 0.0
C197 C 0.00898 0.23935 0.4741 0.0
C198 C 0.02171 0.22265 0.49147 0.0
C199 C 0.03786 0.23554 0.51203 0.0
N200 N 0.07367 0.25988 0.56238 0.0
C201 C 0.07208 0.23583 0.55716 0.0
C202 C 0.08892 0.22329 0.57553 0.0
C203 C 0.10243 0.24034 0.59322 0.0
C204 C 0.09283 0.26244 0.58489 0.0
N205 N 0.02885 0.28398 0.5683 0.0
C206 C 0.99134 0.28279 0.61083 0.0
C207 C 1.0045 0.26221 0.60354 0.0
C208 C 0.02292 0.26318 0.58248 0.0
C209 C 0.99755 0.30401 0.59655 0.0
C210 C 0.01616 0.30423 0.57574 0.0
N211 N 0.08041 0.28532 0.50666 0.0
C212 C 0.10778 0.2644 0.47274 0.0
C213 C 0.12036 0.28561 0.46856 0.0
C214 C 0.11195 0.30678 0.48304 0.0
C215 C 0.09209 0.30627 0.50159 0.0
C216 C 0.08806 0.26465 0.49165 0.0
H217 H 0.08675 0.32302 0.51209 0.0
H218 H 0.07941 0.24785 0.49412 0.0
H219 H 0.03205 0.24679 0.57809 0.0
H220 H 0.01979 0.32105 0.56583 0.0
C221 C 0.05333 0.34362 0.54183 0.0
C222 C 0.10305 0.28536 0.59809 0.0
C223 C 0.00931 0.28426 0.47148 0.0
C224 C 0.05493 0.22563 0.53417 0.0
H225 H 0.11135 0.3335 0.62372 0.0
H226 H 0.08372 0.36569 0.59358 0.0
H227 H 0.02428 0.36538 0.49099 0.0
H228 H 1.00065 0.33278 0.45239 0.0
H229 H 0.99425 0.23542 0.45595 0.0
H230 H 0.01933 0.20338 0.48953 0.0
H231 H 0.09147 0.20406 0.57542 0.0
H232 H 0.11794 0.23677 0.60976 0.0
H233 H 1.00085 0.24534 0.61429 0.0
H234 H 0.98786 0.32047 0.6009 0.0
H235 H 0.11301 0.24757 0.46138 0.0
H236 H 0.12094 0.32373 0.48076 0.0
C237 C 0.7407 0.09499 0.55548 0.0
C238 C 0.71826 0.10446 0.56002 0.0
C239 C 0.70216 0.09159 0.53951 0.0
C240 C 0.71555 0.0751 0.52344 0.0
N241 N 0.73925 0.07634 0.53277 0.0
Co242 Co 0.76514 0.05708 0.51276 0.0
N243 N 0.74163 0.0398 0.48003 0.0
C244 C 0.71759 0.04281 0.47741 0.0
C245 C 0.70568 0.02738 0.45488 0.0
C246 C 0.72305 0.01341 0.44253 0.0
C247 C 0.74479 0.02126 0.45803 0.0
N248 N 0.79107 0.03809 0.49253 0.0
C249 C 0.78984 0.02027 0.46865 0.0
C250 C 0.81251 0.01228 0.46221 0.0
C251 C 0.82848 0.02481 0.4833 0.0
C252 C 0.81484 0.03991 0.50119 0.0
N253 N 0.78863 0.0741 0.54562 0.0
C254 C 0.81252 0.07029 0.54936 0.0
C255 C 0.82427 0.08477 0.57328 0.0
C256 C 0.80695 0.09902 0.58523 0.0
C257 C 0.78552 0.09256 0.56765 0.0
N258 N 0.76143 0.03099 0.54355 0.0
C259 C 0.75611 0.98959 0.57907 0.0
C260 C 0.77872 0.99937 0.57652 0.0
C261 C 0.78098 0.01993 0.55863 0.0
C262 C 0.73615 1.00148 0.56529 0.0
C263 C 0.73917 0.02225 0.54828 0.0
N264 N 0.76875 0.08319 0.48207 0.0
C265 C 0.79287 0.11449 0.4621 0.0
C266 C 0.77256 0.1251 0.44674 0.0
C267 C 0.75054 0.11357 0.44786 0.0
C268 C 0.74908 0.09278 0.46534 0.0
C269 C 0.7906 0.0936 0.47926 0.0
H270 H 0.73175 0.08508 0.46545 0.0
H271 H 0.80669 0.08654 0.49071 0.0
H272 H 0.79873 0.02615 0.55663 0.0
H273 H 0.72323 0.03054 0.53855 0.0
C274 C 0.70663 0.05936 0.4979 0.0
C275 C 0.76292 0.10511 0.57213 0.0
C276 C 0.76778 0.00985 0.45193 0.0
C277 C 0.82364 0.05468 0.52784 0.0
H278 H 0.71397 0.11958 0.57578 0.0
H279 H 0.68304 0.09449 0.53589 0.0
H280 H 0.68654 0.02593 0.44889 0.0
H281 H 0.71986 0.99869 0.42475 0.0
H282 H 0.81706 0.9985 0.44448 0.0
H283 H 0.84774 0.02271 0.48586 0.0
H284 H 0.84331 0.08549 0.58038 0.0
H285 H 0.80988 0.113 0.6042 0.0
H286 H 0.79462 0.99068 0.58722 0.0
H287 H 0.71828 0.99461 0.56734 0.0
H288 H 0.8104 0.12258 0.46168 0.0
H289 H 0.7344 0.12057 0.43536 0.0
C290 C 0.04623 0.80997 0.57071 0.0
C291 C 0.05461 0.83308 0.57864 0.0
C292 C 0.04032 0.84818 0.56049 0.0
C293 C 0.02418 0.83356 0.54238 0.0
N294 N 0.02721 0.80997 0.54783 0.0
Co295 Co 0.00806 0.78265 0.52539 0.0
N296 N 0.98741 0.80498 0.4982 0.0
C297 C 0.98964 0.8291 0.49785 0.0
C298 C 0.9729 0.83972 0.47694 0.0
C299 C 0.95888 0.82135 0.46337 0.0
C300 C 0.96781 0.80048 0.47703 0.0
N301 N 0.98872 0.75535 0.50321 0.0
C302 C 0.96877 0.75548 0.48192 0.0
C303 C 0.96024 0.73241 0.47415 0.0
C304 C 0.97524 0.7172 0.49105 0.0
C305 C 0.99193 0.73173 0.50828 0.0
N306 N 0.02879 0.76029 0.55248 0.0
C307 C 0.02714 0.73609 0.55179 0.0
C308 C 0.04347 0.72544 0.57326 0.0
C309 C 0.05653 0.7439 0.58846 0.0
C310 C 0.04752 0.76488 0.57514 0.0
N311 N 0.98498 0.78497 0.55999 0.0
C312 C 0.94932 0.78778 0.60535 0.0
C313 C 0.96013 0.76594 0.59722 0.0
C314 C 0.97768 0.76495 0.57477 0.0
C315 C 0.95738 0.8083 0.591 0.0
C316 C 0.9751 0.80653 0.5688 0.0
N317 N 0.03118 0.78032 0.49059 0.0
C318 C 0.05657 0.75665 0.45642 0.0
C319 C 0.0652 0.7772 0.44277 0.0
C320 C 0.05618 0.79932 0.45337 0.0
C321 C 0.03941 0.80045 0.47693 0.0
C322 C 0.03978 0.75859 0.47997 0.0
H323 H 0.03344 0.81789 0.48371 0.0
H324 H 0.03418 0.74221 0.4894 0.0
H325 H 0.98489 0.7477 0.56945 0.0
H326 H 0.98023 0.82283 0.5586 0.0
C327 C 0.00671 0.84137 0.51896 0.0
C328 C 0.05745 0.78864 0.58486 0.0
C329 C 0.95672 0.77693 0.4695 0.0
C330 C 0.00987 0.72387 0.53096 0.0
H331 H 0.06973 0.83852 0.59541 0.0
H332 H 0.04183 0.8675 0.56006 0.0
H333 H 0.9708 0.85864 0.47264 0.0
H334 H 0.94358 0.82319 0.44574 0.0
H335 H 0.94448 0.7271 0.45851 0.0
H336 H 0.97372 0.69788 0.49149 0.0
H337 H 0.04558 0.70651 0.57742 0.0
H338 H 0.07105 0.74207 0.60727 0.0
H339 H 0.95507 0.74952 0.60806 0.0
H340 H 0.94962 0.82569 0.59607 0.0
H341 H 0.06303 0.73904 0.44946 0.0
H342 H 0.06182 0.81583 0.4433 0.0
C343 C 0.30865 0.96898 0.56614 0.0
C344 C 0.33078 0.96281 0.58115 0.0
C345 C 0.34734 0.97744 0.56946 0.0
C346 C 0.3345 0.99193 0.54833 0.0
N347 N 0.31069 0.98758 0.54591 0.0
Co348 Co 0.28582 1.00563 0.51849 0.0
N349 N 0.31047 0.02526 0.49826 0.0
C350 C 0.33446 0.02275 0.50353 0.0
C351 C 0.3472 0.03727 0.48516 0.0
C352 C 0.33039 0.04992 0.46706 0.0
C353 C 0.30816 0.04273 0.47579 0.0
N354 N 0.26089 0.02445 0.49215 0.0
C355 C 0.26292 0.04331 0.47228 0.0
C356 C 0.24057 0.05247 0.46229 0.0
C357 C 0.22397 0.03876 0.47542 0.0
C358 C 0.23695 0.02226 0.49317 0.0
N359 N 0.26118 0.98515 0.53736 0.0
C360 C 0.23726 0.9862 0.52992 0.0
C361 C 0.22467 0.96873 0.54359 0.0
C362 C 0.24153 0.95547 0.56057 0.0
C363 C 0.26362 0.96582 0.55674 0.0
N364 N 0.28451 0.02998 0.5551 0.0
C365 C 0.28274 0.06428 0.60744 0.0
C366 C 0.26226 0.05162 0.59493 0.0
C367 C 0.26352 0.03477 0.56899 0.0
C368 C 0.30413 0.05945 0.59322 0.0
C369 C 0.30462 0.0424 0.56739 0.0
N370 N 0.28716 0.98108 0.48237 0.0
C371 C 0.26657 0.95349 0.44272 0.0
C372 C 0.28763 0.94051 0.43926 0.0
C373 C 0.30875 0.94921 0.4561 0.0
C374 C 0.30815 0.9695 0.47709 0.0
C375 C 0.26674 0.97361 0.46413 0.0
H376 H 0.3248 0.97503 0.48952 0.0
H377 H 0.25005 0.98249 0.46612 0.0
H378 H 0.24723 0.02582 0.56073 0.0
H379 H 0.3215 0.03967 0.55776 0.0
C380 C 0.34441 0.00776 0.52755 0.0
C381 C 0.28635 0.95629 0.57154 0.0
C382 C 0.28546 0.05333 0.46233 0.0
C383 C 0.22718 1.00399 0.5102 0.0
H384 H 0.33465 0.94888 0.59837 0.0
H385 H 0.36656 0.97704 0.57495 0.0
H386 H 0.36646 0.03871 0.4852 0.0
H387 H 0.33421 0.06307 0.44956 0.0
H388 H 0.23651 0.06764 0.44726 0.0
H389 H 0.2047 0.04066 0.47249 0.0
H390 H 0.2055 0.96579 0.54112 0.0
H391 H 0.23787 0.93973 0.57385 0.0
H392 H 0.24529 0.05446 0.60532 0.0
H393 H 0.32044 0.06903 0.60164 0.0
H394 H 0.24988 0.94803 0.42924 0.0
H395 H 0.3256 0.93998 0.45407 0.0
C396 C 0.56435 0.81074 0.08795 0.0
C397 C 0.5729 0.83152 0.10479 0.0
C398 C 0.56166 0.85027 0.0898 0.0
C399 C 0.54705 0.84 0.06466 0.0
N400 N 0.54799 0.81577 0.06283 0.0
Co401 Co 0.53075 0.79399 0.02844 0.0
N402 N 0.51466 0.82173 1.00599 0.0
C403 C 0.51776 0.84527 0.01444 0.0
C404 C 0.5027 0.86007 0.99664 0.0
C405 C 0.48869 0.8451 0.97608 0.0
C406 C 0.49617 0.82189 0.98235 0.0
N407 N 0.51362 0.77226 0.994 0.0
C408 C 0.49557 0.77713 0.97112 0.0
C409 C 0.48789 0.75667 0.95291 0.0
C410 C 0.501 0.73806 0.96548 0.0
C411 C 0.51597 0.7482 0.99041 0.0
N412 N 0.54649 0.76618 0.05118 0.0
C413 C 0.54366 0.74266 0.04228 0.0
C414 C 0.55699 0.72768 0.06218 0.0
C415 C 0.56929 0.74249 0.08498 0.0
C416 C 0.56283 0.76576 0.07755 0.0
N417 N 0.50283 0.79165 0.05535 0.0
C418 C 0.45875 0.78932 0.08434 0.0
C419 C 0.46928 0.76872 0.07132 0.0
C420 C 0.49117 0.77023 0.05739 0.0
C421 C 0.47143 0.81093 0.08414 0.0
C422 C 0.49327 0.81168 0.06971 0.0
N423 N 0.55866 0.7963 1.001 0.0
C424 C 0.58878 0.77704 0.96965 0.0
C425 C 0.59894 0.79909 0.96335 0.0
C426 C 0.58838 0.81978 0.97616 0.0
C427 C 0.56853 0.818 0.99476 0.0
C428 C 0.56893 0.77608 0.98818 0.0
H429 H 0.56159 0.83446 1.00392 0.0
H430 H 0.56227 0.75865 0.99173 0.0
H431 H 0.49805 0.75389 0.04765 0.0
H432 H 0.50179 0.82878 0.06962 0.0
C433 C 0.53285 0.85266 0.04175 0.0
C434 C 0.57328 0.78683 0.09575 0.0
C435 C 0.48412 0.80048 0.96718 0.0
C436 C 0.52968 0.73536 0.01376 0.0
H437 H 0.58629 0.83309 0.12532 0.0
H438 H 0.56426 0.86918 0.09603 0.0
H439 H 0.50115 0.87936 0.99958 0.0
H440 H 0.47398 0.85074 0.95945 0.0
H441 H 0.47362 0.75523 0.93347 0.0
H442 H 0.49888 0.71921 0.9585 0.0
H443 H 0.55812 0.70833 0.05987 0.0
H444 H 0.58195 0.73684 0.10452 0.0
H445 H 0.46058 0.75141 0.07167 0.0
H446 H 0.46418 0.82741 0.09405 0.0
H447 H 0.59585 0.76043 0.95986 0.0
H448 H 0.59556 0.83735 0.97227 0.0
C449 C 0.25628 0.56143 0.06664 0.0
C450 C 0.23456 0.57191 0.07306 0.0
C451 C 0.21854 0.56582 0.04698 0.0
C452 C 0.23122 0.55199 0.02612 0.0
N453 N 0.25417 0.54871 0.0377 0.0
Co454 Co 0.27868 0.53094 0.01443 0.0
N455 N 0.25395 0.51476 0.98408 0.0
C456 C 0.23122 0.52187 0.9775 0.0
C457 C 0.2183 0.50607 0.95627 0.0
C458 C 0.23396 0.48794 0.94934 0.0
C459 C 0.25555 0.49382 0.96679 0.0
N460 N 0.30295 0.51311 0.99103 0.0
C461 C 0.30033 0.49221 0.97334 0.0
C462 C 0.32187 0.48479 0.96206 0.0
C463 C 0.33859 0.50182 0.97349 0.0
C464 C 0.32629 0.51858 0.99101 0.0
N465 N 0.30366 0.54725 0.0445 0.0
C466 C 0.32705 0.54898 0.0394 0.0
C467 C 0.34007 0.56184 0.06396 0.0
C468 C 0.32383 0.56896 0.08558 0.0
C469 C 0.30167 0.5601 0.07287 0.0
N470 N 0.27728 0.50402 0.04463 0.0
C471 C 0.27554 0.46199 0.08126 0.0
C472 C 0.29733 0.47359 0.0775 0.0
C473 C 0.29785 0.49428 0.05891 0.0
C474 C 0.2546 0.47241 0.06698 0.0
C475 C 0.2558 0.4935 0.04941 0.0
N476 N 0.28 0.55762 0.9837 0.0
C477 C 0.27984 0.57149 0.92833 0.0
C478 C 0.28108 0.59576 0.93942 0.0
C479 C 0.2819 0.60013 0.97358 0.0
C480 C 0.28117 0.58108 0.995 0.0
C481 C 0.2795 0.55291 0.95061 0.0
H482 H 0.28159 0.58547 0.02085 0.0
H483 H 0.27866 0.53463 0.94091 0.0
H484 H 0.31502 0.50204 0.05543 0.0
H485 H 0.23928 0.50094 0.03895 0.0
C486 C 0.22164 0.53978 0.99741 0.0
C487 C 0.27896 0.56658 0.08642 0.0
C488 C 0.27748 0.47969 0.96654 0.0
C489 C 0.33654 0.53593 0.01353 0.0
H490 H 0.23083 0.58336 0.09395 0.0
H491 H 0.19982 0.5707 0.04382 0.0
H492 H 0.19938 0.50677 0.94849 0.0
H493 H 0.22987 0.47209 0.93381 0.0
H494 H 0.32515 0.46864 0.94761 0.0
H495 H 0.35767 0.50119 0.97108 0.0
H496 H 0.35915 0.5653 0.06622 0.0
H497 H 0.32775 0.57991 0.10775 0.0
H498 H 0.31401 0.46627 0.08796 0.0
H499 H 0.23731 0.46433 0.06943 0.0
H500 H 0.27876 0.56665 0.90247 0.0
H501 H 0.2834 0.61821 0.98411 0.0
C502 C 0.49301 0.29624 0.98754 0.0
C503 C 0.48574 0.31848 0.97649 0.0
C504 C 0.49968 0.33523 0.99421 0.0
C505 C 0.51478 0.32235 0.0148 0.0
N506 N 0.51142 0.29835 0.01127 0.0
Co507 Co 0.53009 0.27318 0.03604 0.0
N508 N 0.5504 0.2979 0.06211 0.0
C509 C 0.5475 0.32194 0.0621 0.0
C510 C 0.56475 0.33436 0.0816 0.0
C511 C 0.57983 0.31725 0.09431 0.0
C512 C 0.57095 0.29531 0.08163 0.0
N513 N 0.54949 0.24803 0.05985 0.0
C514 C 0.57051 0.25012 0.07884 0.0
C515 C 0.5794 0.22786 0.08761 0.0
C516 C 0.56366 0.21113 0.07334 0.0
C517 C 0.54622 0.22402 0.05654 0.0
N518 N 0.50938 0.24844 0.01046 0.0
C519 C 0.51014 0.22448 0.01416 0.0
C520 C 0.49299 0.21197 0.99468 0.0
C521 C 0.48034 0.22894 0.97765 0.0
C522 C 0.49064 0.25097 0.98756 0.0
N523 N 0.55361 0.27194 1.00228 0.0
C524 C 0.59312 0.26929 0.96367 0.0
C525 C 0.58023 0.2487 0.96982 0.0
C526 C 0.56063 0.25043 0.98886 0.0
C527 C 0.58483 0.29137 0.97553 0.0
C528 C 0.56511 0.2923 0.99437 0.0
N529 N 0.50662 0.2744 0.0705 0.0
C530 C 0.48376 0.25439 0.10929 0.0
C531 C 0.47235 0.27572 0.11792 0.0
C532 C 0.47864 0.29645 0.1026 0.0
C533 C 0.49571 0.29544 0.07943 0.0
C534 C 0.50053 0.25411 0.08577 0.0
H535 H 0.49963 0.31198 0.06903 0.0
H536 H 0.50809 0.23713 0.08023 0.0
H537 H 0.55188 0.23404 0.99336 0.0
H538 H 0.55989 0.30964 1.00313 0.0
C539 C 0.53119 0.33227 0.0392 0.0
C540 C 0.48145 0.27376 0.97521 0.0
C541 C 0.58334 0.27264 0.08732 0.0
C542 C 0.52761 0.21417 0.03543 0.0
H543 H 0.47158 0.32224 0.95786 0.0
H544 H 0.49864 0.35452 0.99268 0.0
H545 H 0.56696 0.35361 0.08459 0.0
H546 H 0.59606 0.32057 0.11006 0.0
H547 H 0.59595 0.22399 0.10187 0.0
H548 H 0.5653 0.19182 0.07395 0.0
H549 H 0.49 0.19278 0.99312 0.0
H550 H 0.46508 0.22545 0.96016 0.0
H551 H 0.58576 0.23115 0.9611 0.0
H552 H 0.59369 0.30794 0.97064 0.0
H553 H 0.47936 0.23772 0.12005 0.0
H554 H 0.47054 0.31352 0.1086 0.0
C555 C 0.75406 0.57378 0.04961 0.0
C556 C 0.73231 0.58206 0.05935 0.0
C557 C 0.71514 0.56655 0.04559 0.0
C558 C 0.72726 0.54961 0.02838 0.0
N559 N 0.75121 0.55326 0.03039 0.0
Co560 Co 0.77529 0.53249 0.0089 0.0
N561 N 0.74974 0.51084 0.98624 0.0
C562 C 0.72587 0.51294 0.98844 0.0
C563 C 0.71259 0.49596 0.96985 0.0
C564 C 0.72889 0.48222 0.95469 0.0
C565 C 0.75132 0.49159 0.96493 0.0
N566 N 0.79941 0.51154 0.98776 0.0
C567 C 0.79646 0.49192 0.96687 0.0
C568 C 0.81829 0.48286 0.95853 0.0
C569 C 0.83562 0.49718 0.97454 0.0
C570 C 0.82348 0.51412 0.99174 0.0
N571 N 0.80081 0.55447 0.0309 0.0
C572 C 0.82466 0.55242 0.02851 0.0
C573 C 0.83788 0.57046 0.0449 0.0
C574 C 0.82155 0.58509 0.05846 0.0
C575 C 0.79914 0.57504 0.04975 0.0
N576 N 0.77764 0.51174 0.04745 0.0
C577 C 0.78103 0.48022 0.0998 0.0
C578 C 0.80148 0.49064 0.08907 0.0
C579 C 0.7994 0.50617 0.06307 0.0
C580 C 0.75883 0.48641 0.08454 0.0
C581 C 0.75755 0.50214 0.05883 0.0
N582 N 0.77289 0.55312 0.97055 0.0
C583 C 0.7915 0.57531 0.92999 0.0
C584 C 0.7693 0.58411 0.9179 0.0
C585 C 0.74891 0.57663 0.93206 0.0
C586 C 0.75108 0.56123 0.95804 0.0
C587 C 0.79288 0.55996 0.95616 0.0
H588 H 0.73486 0.5563 0.96776 0.0
H589 H 0.81032 0.55408 0.96457 0.0
H590 H 0.81571 0.51311 0.0558 0.0
H591 H 0.74007 0.50599 0.0484 0.0
C592 C 0.71656 0.53095 0.00845 0.0
C593 C 0.77687 0.58609 0.05943 0.0
C594 C 0.7735 0.48136 0.95382 0.0
C595 C 0.83407 0.53339 0.01045 0.0
H596 H 0.72916 0.5978 0.07468 0.0
H597 H 0.69601 0.56772 0.04745 0.0
H598 H 0.69331 0.49383 0.96759 0.0
H599 H 0.72477 0.46698 0.938 0.0
H600 H 0.82136 0.4676 0.94229 0.0
H601 H 0.85478 0.49564 0.97338 0.0
H602 H 0.85712 0.57285 0.04649 0.0
H603 H 0.82569 0.60147 0.07283 0.0
H604 H 0.81913 0.48625 0.09994 0.0
H605 H 0.74243 0.47905 0.09228 0.0
H606 H 0.80783 0.58073 0.91992 0.0
H607 H 0.73126 0.58265 0.92315 0.0
C608 C 0.20757 0.26617 0.32973 0.0
C609 C 0.23171 0.27319 0.33559 0.0
C610 C 0.19114 0.2699 0.35333 0.0
C611 C 0.19873 0.28117 0.38391 0.0
C612 C 0.22292 0.28887 0.38996 0.0
C613 C 0.23919 0.28475 0.36573 0.0
C614 C 0.16563 0.26131 0.34561 0.0
C615 C 0.23165 0.30116 0.42215 0.0
C616 C 0.14617 0.30466 0.42895 0.0
C617 C 0.14188 0.28562 0.44911 0.0
C618 C 0.16559 0.30423 0.40925 0.0
C619 C 0.1811 0.28417 0.40931 0.0
C620 C 0.17747 0.26535 0.43054 0.0
C621 C 0.15804 0.26634 0.45019 0.0
C622 C 0.16875 0.32472 0.38711 0.0
C623 C 0.19344 0.24356 0.43136 0.0
H624 H 0.20138 0.25735 0.30655 0.0
H625 H 0.25773 0.29025 0.37055 0.0
H626 H 0.16119 0.24783 0.36332 0.0
H627 H 0.15305 0.2765 0.34803 0.0
H628 H 0.16251 0.25309 0.3205 0.0
H629 H 0.25057 0.30717 0.42253 0.0
H630 H 0.22027 0.31693 0.42721 0.0
H631 H 0.23012 0.28872 0.44228 0.0
H632 H 0.13382 0.3196 0.42759 0.0
H633 H 0.15537 0.25179 0.46618 0.0
H634 H 0.16378 0.31869 0.36135 0.0
H635 H 0.18776 0.33054 0.38877 0.0
H636 H 0.15746 0.34038 0.39317 0.0
H637 H 0.19053 0.23307 0.4078 0.0
H638 H 0.18986 0.2317 0.45149 0.0
H639 H 0.21255 0.24903 0.43429 0.0
C640 C 0.76577 0.22205 0.31398 0.0
C641 C 0.77901 0.24314 0.32136 0.0
C642 C 0.76315 0.20522 0.33777 0.0
C643 C 0.77434 0.20944 0.36968 0.0
C644 C 0.78636 0.23149 0.37791 0.0
C645 C 0.78847 0.24824 0.35356 0.0
C646 C 0.74983 0.18214 0.32803 0.0
C647 C 0.79848 0.23665 0.41167 0.0
C648 C 0.7565 0.16552 0.43162 0.0
C649 C 0.77419 0.14784 0.42936 0.0
C650 C 0.75691 0.18635 0.41361 0.0
C651 C 0.77549 0.18959 0.39288 0.0
C652 C 0.79397 0.17233 0.39161 0.0
C653 C 0.79307 0.15166 0.4098 0.0
C654 C 0.73696 0.20438 0.41573 0.0
C655 C 0.81414 0.17514 0.36984 0.0
H656 H 0.75834 0.2182 0.28906 0.0
H657 H 0.79891 0.26445 0.35918 0.0
H658 H 0.76269 0.16702 0.32792 0.0
H659 H 0.73675 0.17829 0.34599 0.0
H660 H 0.74013 0.18273 0.30335 0.0
H661 H 0.80365 0.25583 0.41565 0.0
H662 H 0.78663 0.23177 0.43073 0.0
H663 H 0.81489 0.22559 0.41495 0.0
H664 H 0.74212 0.16296 0.44725 0.0
H665 H 0.80673 0.13805 0.40772 0.0
H666 H 0.72561 0.20397 0.39224 0.0
H667 H 0.74436 0.22279 0.41982 0.0
H668 H 0.72543 0.20065 0.4357 0.0
H669 H 0.80695 0.17372 0.34381 0.0
H670 H 0.82821 0.16129 0.37386 0.0
H671 H 0.82253 0.19312 0.37422 0.0
C672 C 0.83193 0.76598 0.35228 0.0
C673 C 0.83216 0.78583 0.33244 0.0
C674 C 0.85068 0.76236 0.37688 0.0
C675 C 0.8698 0.77919 0.382 0.0
C676 C 0.86942 0.79972 0.36287 0.0
C677 C 0.8508 0.80267 0.33837 0.0
C678 C 0.85047 0.74018 0.39662 0.0
C679 C 0.88908 0.81839 0.36765 0.0
C680 C 0.9126 0.78498 0.45924 0.0
C681 C 0.93363 0.77498 0.44836 0.0
C682 C 0.89126 0.78529 0.43855 0.0
C683 C 0.89087 0.77525 0.40619 0.0
C684 C 0.91187 0.7642 0.39567 0.0
C685 C 0.93301 0.76436 0.41678 0.0
C686 C 0.86949 0.79748 0.45077 0.0
C687 C 0.91235 0.75319 0.36153 0.0
H688 H 0.81766 0.75286 0.34777 0.0
H689 H 0.851 0.81825 0.32347 0.0
H690 H 0.86579 0.72856 0.39104 0.0
H691 H 0.85271 0.74511 0.42316 0.0
H692 H 0.83365 0.7297 0.39136 0.0
H693 H 0.88545 0.83398 0.35204 0.0
H694 H 0.89129 0.82497 0.3936 0.0
H695 H 0.90634 0.81027 0.36168 0.0
H696 H 0.9131 0.7932 0.48368 0.0
H697 H 0.94929 0.75673 0.4083 0.0
H698 H 0.85341 0.78595 0.44542 0.0
H699 H 0.86608 0.81437 0.43784 0.0
H700 H 0.87177 0.80186 0.4775 0.0
H701 H 0.89674 0.7411 0.35564 0.0
H702 H 0.92901 0.74287 0.3584 0.0
H703 H 0.91109 0.76756 0.34358 0.0
C704 C 0.28407 0.8149 0.33219 0.0
C705 C 0.27184 0.82033 0.3022 0.0
C706 C 0.28935 0.833 0.35669 0.0
C707 C 0.28204 0.8569 0.35101 0.0
C708 C 0.27026 0.86248 0.32048 0.0
C709 C 0.26544 0.84421 0.29652 0.0
C710 C 0.30224 0.82651 0.38885 0.0
C711 C 0.26203 0.88768 0.31339 0.0
C712 C 0.26818 0.90177 0.41846 0.0
C713 C 0.28741 0.9179 0.41866 0.0
C714 C 0.26691 0.88105 0.39787 0.0
C715 C 0.28542 0.87616 0.37714 0.0
C716 C 0.3055 0.89167 0.37844 0.0
C717 C 0.30619 0.91243 0.39904 0.0
C718 C 0.24512 0.86505 0.39711 0.0
C719 C 0.32568 0.88699 0.35686 0.0
H720 H 0.28913 0.79651 0.33672 0.0
H721 H 0.25612 0.8487 0.27338 0.0
H722 H 0.31791 0.8385 0.39495 0.0
H723 H 0.29011 0.82912 0.40872 0.0
H724 H 0.30847 0.80761 0.38846 0.0
H725 H 0.25365 0.88912 0.28805 0.0
H726 H 0.2488 0.89356 0.33071 0.0
H727 H 0.27739 0.90032 0.31696 0.0
H728 H 0.2539 0.9055 0.43417 0.0
H729 H 0.32109 0.92479 0.3989 0.0
H730 H 0.25055 0.84606 0.39953 0.0
H731 H 0.23447 0.86632 0.37321 0.0
H732 H 0.23344 0.87006 0.41688 0.0
H733 H 0.33136 0.86797 0.35772 0.0
H734 H 0.34145 0.89866 0.36412 0.0
H735 H 0.31941 0.8904 0.33111 0.0
C736 C 0.17811 0.81145 0.70536 0.0
C737 C 0.1806 0.79311 0.72777 0.0
C738 C 0.15825 0.81214 0.68191 0.0
C739 C 0.14063 0.79379 0.68036 0.0
C740 C 0.14315 0.77517 0.70283 0.0
C741 C 0.16293 0.77516 0.72631 0.0
C742 C 0.15611 0.83252 0.65881 0.0
C743 C 0.12513 0.75498 0.70176 0.0
C744 C 0.07759 0.80257 0.63957 0.0
C745 C 0.07909 0.79097 0.60886 0.0
C746 C 0.09765 0.80432 0.66263 0.0
C747 C 0.11966 0.79376 0.65512 0.0
C748 C 0.12125 0.78214 0.62399 0.0
C749 C 0.10103 0.78109 0.60117 0.0
C750 C 0.09518 0.81718 0.69524 0.0
C751 C 0.14416 0.77028 0.61506 0.0
H752 H 0.19161 0.82542 0.70641 0.0
H753 H 0.16489 0.76065 0.74304 0.0
H754 H 0.1561 0.82541 0.63317 0.0
H755 H 0.13886 0.84196 0.66102 0.0
H756 H 0.17096 0.84571 0.66365 0.0
H757 H 0.12974 0.74173 0.72074 0.0
H758 H 0.10708 0.76227 0.70538 0.0
H759 H 0.12403 0.74552 0.67737 0.0
H760 H 0.06062 0.81016 0.64558 0.0
H761 H 0.10222 0.77217 0.5774 0.0
H762 H 0.10931 0.83111 0.69999 0.0
H763 H 0.09768 0.8043 0.71511 0.0
H764 H 0.07741 0.82583 0.69647 0.0
H765 H 0.15906 0.78348 0.61755 0.0
H766 H 0.14263 0.76242 0.58966 0.0
H767 H 0.14899 0.75582 0.63213 0.0
C768 C 0.26731 0.15113 0.76547 0.0
C769 C 0.2758 0.17424 0.76048 0.0
C770 C 0.2691 0.13239 0.74186 0.0
C771 C 0.27976 0.13681 0.7126 0.0
C772 C 0.28905 0.15987 0.70785 0.0
C773 C 0.2869 0.17828 0.73174 0.0
C774 C 0.25899 0.10804 0.74784 0.0
C775 C 0.30061 0.16531 0.67701 0.0
C776 C 0.30054 0.08455 0.65973 0.0
C777 C 0.28178 0.08251 0.63486 0.0
C778 C 0.30005 0.10198 0.68535 0.0
C779 C 0.28026 0.11769 0.68626 0.0
C780 C 0.26115 0.11557 0.66147 0.0
C781 C 0.26218 0.09808 0.63605 0.0
C782 C 0.32079 0.10372 0.71129 0.0
C783 C 0.23973 0.132 0.66156 0.0
H784 H 0.25899 0.14774 0.78771 0.0
H785 H 0.29318 0.19607 0.72722 0.0
H786 H 0.244 0.10363 0.72917 0.0
H787 H 0.27285 0.09404 0.74534 0.0
H788 H 0.25229 0.10721 0.77248 0.0
H789 H 0.30824 0.18372 0.67794 0.0
H790 H 0.3151 0.15227 0.67288 0.0
H791 H 0.28716 0.16345 0.65563 0.0
H792 H 0.3156 0.07238 0.6593 0.0
H793 H 0.24776 0.0969 0.61674 0.0
H794 H 0.3143 0.10165 0.73582 0.0
H795 H 0.32924 0.12171 0.71142 0.0
H796 H 0.33465 0.08991 0.70736 0.0
H797 H 0.23131 0.13091 0.68498 0.0
H798 H 0.22602 0.12752 0.64109 0.0
H799 H 0.24554 0.15085 0.6596 0.0
C800 C 0.87199 0.28852 0.7083 0.0
C801 C 0.87613 0.28027 0.74015 0.0
C802 C 0.89036 0.28871 0.68686 0.0
C803 C 0.91351 0.2803 0.69728 0.0
C804 C 0.91771 0.27162 0.72922 0.0
C805 C 0.89906 0.27179 0.75022 0.0
C806 C 0.88509 0.29831 0.65317 0.0
C807 C 0.94197 0.26222 0.74129 0.0
C808 C 0.95615 0.26204 0.63259 0.0
C809 C 0.97136 0.28212 0.63304 0.0
C810 C 0.93737 0.26118 0.65332 0.0
C811 C 0.93342 0.28092 0.67502 0.0
C812 C 0.9486 0.30127 0.67554 0.0
C813 C 0.96736 0.30158 0.65474 0.0
C814 C 0.9217 0.2391 0.65194 0.0
C815 C 0.94507 0.32275 0.6982 0.0
H816 H 0.8545 0.29539 0.70034 0.0
H817 H 0.9024 0.26508 0.77455 0.0
H818 H 0.89671 0.31404 0.65028 0.0
H819 H 0.88921 0.2845 0.63425 0.0
H820 H 0.86609 0.30379 0.64851 0.0
H821 H 0.94223 0.25562 0.76648 0.0
H822 H 0.94731 0.24734 0.72468 0.0
H823 H 0.95563 0.27658 0.74108 0.0
H824 H 0.9587 0.24702 0.61567 0.0
H825 H 0.97911 0.31705 0.65583 0.0
H826 H 0.90281 0.24399 0.64508 0.0
H827 H 0.9223 0.23134 0.67645 0.0
H828 H 0.92726 0.22512 0.63408 0.0
H829 H 0.92668 0.32988 0.69348 0.0
H830 H 0.95808 0.33736 0.69527 0.0
H831 H 0.94703 0.31734 0.72398 0.0
C832 C 0.75856 0.86142 0.65951 0.0
C833 C 0.73615 0.85571 0.66994 0.0
C834 C 0.76217 0.88292 0.64403 0.0
C835 C 0.74303 0.89935 0.63963 0.0
C836 C 0.72033 0.89364 0.65016 0.0
C837 C 0.7171 0.87171 0.66484 0.0
C838 C 0.78645 0.88802 0.63238 0.0
C839 C 0.69962 0.91088 0.64647 0.0
C840 C 0.75884 0.9646 0.6283 0.0
C841 C 0.75327 0.96653 0.59466 0.0
C842 C 0.75539 0.94286 0.64336 0.0
C843 C 0.74675 0.92253 0.62407 0.0
C844 C 0.74158 0.92438 0.58991 0.0
C845 C 0.74462 0.94649 0.57567 0.0
C846 C 0.76066 0.94171 0.67993 0.0
C847 C 0.73293 0.90301 0.56838 0.0
H848 H 0.7732 0.84887 0.6632 0.0
H849 H 0.69987 0.86733 0.67325 0.0
H850 H 0.78462 0.8915 0.60587 0.0
H851 H 0.79425 0.90439 0.64533 0.0
H852 H 0.79915 0.87294 0.63654 0.0
H853 H 0.68324 0.90387 0.65633 0.0
H854 H 0.70458 0.92823 0.65947 0.0
H855 H 0.69539 0.9146 0.62029 0.0
H856 H 0.76544 0.98024 0.64285 0.0
H857 H 0.74047 0.94811 0.54957 0.0
H858 H 0.77468 0.92812 0.68559 0.0
H859 H 0.74436 0.93604 0.6912 0.0
H860 H 0.76681 0.95923 0.69147 0.0
H861 H 0.74589 0.88806 0.57128 0.0
H862 H 0.73055 0.90726 0.54211 0.0
H863 H 0.71559 0.89655 0.57592 0.0
C864 C 0.8244 0.80457 0.68104 0.0
C865 C 0.82223 0.79448 0.7114 0.0
C866 C 0.84646 0.80525 0.66719 0.0
C867 C 0.867 0.79516 0.68376 0.0
C868 C 0.86521 0.78605 0.71531 0.0
C869 C 0.84282 0.78594 0.72888 0.0
C870 C 0.8474 0.81556 0.63387 0.0
C871 C 0.88658 0.77507 0.73381 0.0
C872 C 0.91209 0.77054 0.62629 0.0
C873 C 0.92925 0.78899 0.62752 0.0
C874 C 0.89243 0.77189 0.64551 0.0
C875 C 0.88951 0.7923 0.66651 0.0
C876 C 0.90703 0.81073 0.66857 0.0
C877 C 0.92665 0.80885 0.64918 0.0
C878 C 0.87426 0.75177 0.64241 0.0
C879 C 0.90468 0.83282 0.69052 0.0
H880 H 0.8085 0.81122 0.66746 0.0
H881 H 0.84116 0.77783 0.75214 0.0
H882 H 0.86254 0.82837 0.63401 0.0
H883 H 0.85044 0.80092 0.61558 0.0
H884 H 0.83058 0.82495 0.62583 0.0
H885 H 0.88313 0.77153 0.75944 0.0
H886 H 0.8911 0.75784 0.72133 0.0
H887 H 0.90245 0.78697 0.73406 0.0
H888 H 0.91354 0.75526 0.60942 0.0
H889 H 0.9399 0.82306 0.65091 0.0
H890 H 0.85695 0.75841 0.63116 0.0
H891 H 0.87104 0.74546 0.66695 0.0
H892 H 0.88006 0.73628 0.62715 0.0
H893 H 0.88877 0.84323 0.68153 0.0
H894 H 0.9207 0.84463 0.69145 0.0
H895 H 0.90185 0.82767 0.71573 0.0
C896 C 0.26516 0.83046 0.65657 0.0
C897 C 0.28059 0.82635 0.68466 0.0
C898 C 0.26683 0.85141 0.6386 0.0
C899 C 0.28472 0.86891 0.64819 0.0
C900 C 0.30076 0.86463 0.67605 0.0
C901 C 0.29834 0.84369 0.69406 0.0
C902 C 0.24896 0.8551 0.60965 0.0
C903 C 0.32042 0.88232 0.68705 0.0
C904 C 0.29935 0.91345 0.583 0.0
C905 C 0.28675 0.93414 0.59201 0.0
C906 C 0.29942 0.89249 0.6014 0.0
C907 C 0.28619 0.89175 0.62943 0.0
C908 C 0.27359 0.91271 0.63876 0.0
C909 C 0.27429 0.93358 0.62032 0.0
C910 C 0.31352 0.871 0.5906 0.0
C911 C 0.25889 0.91297 0.66793 0.0
H912 H 0.25115 0.81753 0.64902 0.0
H913 H 0.31038 0.84095 0.71564 0.0
H914 H 0.23878 0.87187 0.61373 0.0
H915 H 0.25843 0.85716 0.58725 0.0
H916 H 0.23606 0.83997 0.60526 0.0
H917 H 0.3323 0.87591 0.7079 0.0
H918 H 0.33144 0.88574 0.66646 0.0
H919 H 0.31252 0.8997 0.69457 0.0
H920 H 0.30908 0.91361 0.56126 0.0
H921 H 0.2647 0.94948 0.6278 0.0
H922 H 0.30117 0.85585 0.58316 0.0
H923 H 0.32586 0.86506 0.61124 0.0
H924 H 0.32415 0.87482 0.56973 0.0
H925 H 0.2448 0.89892 0.66425 0.0
H926 H 0.25017 0.93058 0.67217 0.0
H927 H 0.27038 0.90874 0.69026 0.0
C928 C 0.22323 0.29436 0.723 0.0
C929 C 0.23713 0.27386 0.71747 0.0
C930 C 0.20193 0.29867 0.70327 0.0
C931 C 0.19406 0.28193 0.67769 0.0
C932 C 0.2084 0.26162 0.67141 0.0
C933 C 0.22975 0.25796 0.69111 0.0
C934 C 0.18748 0.3208 0.71043 0.0
C935 C 0.20069 0.24314 0.64468 0.0
C936 C 0.12747 0.27565 0.65021 0.0
C937 C 0.12604 0.28601 0.61959 0.0
C938 C 0.14936 0.27465 0.66961 0.0
C939 C 0.17029 0.28477 0.65852 0.0
C940 C 0.16865 0.29623 0.6282 0.0
C941 C 0.14659 0.29657 0.60902 0.0
C942 C 0.15022 0.26203 0.70151 0.0
C943 C 0.19031 0.30763 0.61565 0.0
H944 H 0.2287 0.30679 0.74323 0.0
H945 H 0.24019 0.24201 0.68653 0.0
H946 H 0.18314 0.33057 0.6877 0.0
H947 H 0.17027 0.31553 0.71965 0.0
H948 H 0.19707 0.33319 0.72896 0.0
H949 H 0.21419 0.22874 0.64218 0.0
H950 H 0.18354 0.2348 0.65 0.0
H951 H 0.19752 0.2518 0.62088 0.0
H952 H 0.11151 0.26777 0.65857 0.0
H953 H 0.14545 0.30475 0.58544 0.0
H954 H 0.15766 0.27419 0.7219 0.0
H955 H 0.16228 0.24629 0.70039 0.0
H956 H 0.13226 0.25577 0.70718 0.0
H957 H 0.19914 0.32011 0.63469 0.0
H958 H 0.18566 0.31765 0.59317 0.0
H959 H 0.20354 0.29358 0.61004 0.0
C960 C 0.7935 0.20753 0.71015 0.0
C961 C 0.77801 0.22734 0.71199 0.0
C962 C 0.78986 0.18911 0.68575 0.0
C963 C 0.76999 0.18998 0.66215 0.0
C964 C 0.75445 0.21015 0.66327 0.0
C965 C 0.7587 0.22865 0.68799 0.0
C966 C 0.80723 0.16839 0.68565 0.0
C967 C 0.733 0.2119 0.63879 0.0
C968 C 0.77489 0.14841 0.58588 0.0
C969 C 0.76276 0.1277 0.59385 0.0
C970 C 0.77646 0.16912 0.60703 0.0
C971 C 0.76559 0.16938 0.6371 0.0
C972 C 0.7527 0.1487 0.64473 0.0
C973 C 0.75158 0.12817 0.62323 0.0
C974 C 0.7906 0.19043 0.59774 0.0
C975 C 0.74077 0.1479 0.67628 0.0
H976 H 0.80867 0.20626 0.72817 0.0
H977 H 0.74654 0.2437 0.68909 0.0
H978 H 0.79775 0.15146 0.68971 0.0
H979 H 0.81468 0.16633 0.66149 0.0
H980 H 0.82232 0.17077 0.70484 0.0
H981 H 0.72316 0.22901 0.64189 0.0
H982 H 0.73867 0.21038 0.61353 0.0
H983 H 0.72057 0.19677 0.6415 0.0
H984 H 0.78362 0.14819 0.56327 0.0
H985 H 0.74235 0.11221 0.62974 0.0
H986 H 0.80694 0.19269 0.6148 0.0
H987 H 0.77993 0.20707 0.59993 0.0
H988 H 0.79609 0.18838 0.57238 0.0
H989 H 0.75461 0.14805 0.69725 0.0
H990 H 0.72946 0.13163 0.67722 0.0
H991 H 0.72945 0.16401 0.67945 0.0
C992 C 0.91124 0.29844 0.31802 0.0
C993 C 0.89246 0.28189 0.3181 0.0
C994 C 0.9299 0.29949 0.34327 0.0
C995 C 0.93033 0.28294 0.36865 0.0
C996 C 0.91147 0.26594 0.3685 0.0
C997 C 0.89254 0.26595 0.34359 0.0
C998 C 0.94904 0.31849 0.34297 0.0
C999 C 0.91151 0.24744 0.3943 0.0
C1000 C 0.99125 0.27184 0.4148 0.0
C1001 C 0.98909 0.28415 0.4449 0.0
C1002 C 0.97214 0.27081 0.39018 0.0
C1003 C 0.95059 0.2833 0.39508 0.0
C1004 C 0.94857 0.29631 0.42515 0.0
C1005 C 0.96761 0.29617 0.44986 0.0
C1006 C 0.97492 0.2561 0.35904 0.0
C1007 C 0.92636 0.31058 0.43113 0.0
H1008 H 0.91101 0.3109 0.29843 0.0
H1009 H 0.87804 0.25308 0.34347 0.0
H1010 H 0.95036 0.32916 0.36647 0.0
H1011 H 0.9667 0.30995 0.34051 0.0
H1012 H 0.94542 0.33085 0.32261 0.0
H1013 H 0.89601 0.23497 0.39015 0.0
H1014 H 0.92828 0.23683 0.39454 0.0
H1015 H 0.91106 0.2564 0.41885 0.0
H1016 H 0.00785 0.26265 0.41072 0.0
H1017 H 0.96579 0.30565 0.47311 0.0
H1018 H 0.97385 0.26788 0.33787 0.0
H1019 H 0.96009 0.24287 0.35476 0.0
H1020 H 0.99222 0.24634 0.35977 0.0
H1021 H 0.92267 0.32345 0.41143 0.0
H1022 H 0.92806 0.32072 0.45508 0.0
H1023 H 0.91066 0.29844 0.43049 0.0
C1024 C 0.79622 0.90276 0.32148 0.0
C1025 C 0.77829 0.88501 0.31696 0.0
C1026 C 0.79457 0.9225 0.34392 0.0
C1027 C 0.77422 0.92513 0.36216 0.0
C1028 C 0.75604 0.90725 0.35773 0.0
C1029 C 0.75841 0.88738 0.33559 0.0
C1030 C 0.81473 0.94057 0.34814 0.0
C1031 C 0.73381 0.90934 0.37599 0.0
C1032 C 0.77851 0.96624 0.44027 0.0
C1033 C 0.76889 0.98792 0.42896 0.0
C1034 C 0.78034 0.94581 0.41901 0.0
C1035 C 0.77194 0.94669 0.38546 0.0
C1036 C 0.7619 0.96849 0.37404 0.0
C1037 C 0.7608 0.9888 0.39569 0.0
C1038 C 0.79163 0.92333 0.43243 0.0
C1039 C 0.75234 0.97043 0.33879 0.0
H1040 H 0.81182 0.90105 0.30767 0.0
H1041 H 0.74435 0.87397 0.33219 0.0
H1042 H 0.80802 0.95846 0.34098 0.0
H1043 H 0.82169 0.9423 0.37424 0.0
H1044 H 0.82977 0.93556 0.33323 0.0
H1045 H 0.72124 0.89413 0.36985 0.0
H1046 H 0.73875 0.91002 0.40274 0.0
H1047 H 0.7244 0.92632 0.37009 0.0
H1048 H 0.78485 0.96534 0.46587 0.0
H1049 H 0.75358 1.00549 0.38657 0.0
H1050 H 0.80745 0.91843 0.41904 0.0
H1051 H 0.77878 0.90816 0.42865 0.0
H1052 H 0.7974 0.92546 0.45895 0.0
H1053 H 0.76708 0.96777 0.32259 0.0
H1054 H 0.74392 0.9881 0.33404 0.0
H1055 H 0.73888 0.95612 0.33199 0.0
C1056 C 0.1738 0.75842 0.32598 0.0
C1057 C 0.16921 0.76995 0.29629 0.0
C1058 C 0.15729 0.7593 0.35014 0.0
C1059 C 0.13551 0.77203 0.34472 0.0
C1060 C 0.13079 0.78376 0.31489 0.0
C1061 C 0.1476 0.78258 0.29117 0.0
C1062 C 0.16311 0.74647 0.38146 0.0
C1063 C 0.10793 0.79765 0.30803 0.0
C1064 C 0.0825 0.75707 0.39357 0.0
C1065 C 0.0834 0.77567 0.41783 0.0
C1066 C 0.09934 0.75559 0.36987 0.0
C1067 C 0.11768 0.77312 0.37019 0.0
C1068 C 0.11879 0.79186 0.39466 0.0
C1069 C 0.10174 0.7929 0.41808 0.0
C1070 C 0.09737 0.73533 0.34427 0.0
C1071 C 0.13803 0.8109 0.39611 0.0
H1072 H 0.19019 0.74835 0.33023 0.0
H1073 H 0.14388 0.79187 0.26869 0.0
H1074 H 0.16304 0.75936 0.40275 0.0
H1075 H 0.14918 0.73276 0.38432 0.0
H1076 H 0.18084 0.73751 0.38213 0.0
H1077 H 0.10682 0.80569 0.28364 0.0
H1078 H 0.09223 0.78569 0.30917 0.0
H1079 H 0.10663 0.81222 0.32701 0.0
H1080 H 0.06832 0.74381 0.39271 0.0
H1081 H 0.10298 0.80714 0.4369 0.0
H1082 H 0.1143 0.72499 0.34507 0.0
H1083 H 0.09453 0.74268 0.31954 0.0
H1084 H 0.08241 0.72287 0.34766 0.0
H1085 H 0.15597 0.80246 0.39892 0.0
H1086 H 0.13655 0.82425 0.41667 0.0
H1087 H 0.13692 0.82047 0.37288 0.0
C1088 C 0.26769 0.17177 0.35154 0.0
C1089 C 0.28288 0.17134 0.32597 0.0
C1090 C 0.26776 0.15298 0.37388 0.0
C1091 C 0.28408 0.13354 0.37163 0.0
C1092 C 0.29996 0.13352 0.34637 0.0
C1093 C 0.29882 0.15201 0.32363 0.0
C1094 C 0.24986 0.15363 0.39937 0.0
C1095 C 0.31832 0.11395 0.34335 0.0
C1096 C 0.29778 0.09546 0.4476 0.0
C1097 C 0.28524 0.07397 0.43896 0.0
C1098 C 0.29788 0.11465 0.42599 0.0
C1099 C 0.28429 0.11306 0.39513 0.0
C1100 C 0.27122 0.09157 0.38656 0.0
C1101 C 0.27228 0.07228 0.40807 0.0
C1102 C 0.31284 0.1366 0.43609 0.0
C1103 C 0.25585 0.08897 0.35464 0.0
H1104 H 0.25513 0.18644 0.35334 0.0
H1105 H 0.31069 0.15156 0.30409 0.0
H1106 H 0.23859 0.1372 0.39654 0.0
H1107 H 0.25929 0.15381 0.42422 0.0
H1108 H 0.23801 0.16957 0.3976 0.0
H1109 H 0.33058 0.11739 0.32414 0.0
H1110 H 0.32913 0.11225 0.36705 0.0
H1111 H 0.30922 0.0965 0.33731 0.0
H1112 H 0.30774 0.09721 0.47137 0.0
H1113 H 0.26266 0.05581 0.4008 0.0
H1114 H 0.30116 0.15255 0.43795 0.0
H1115 H 0.32536 0.14006 0.41722 0.0
H1116 H 0.32339 0.13469 0.45997 0.0
H1117 H 0.24324 0.10426 0.3523 0.0
H1118 H 0.24537 0.072 0.35253 0.0
H1119 H 0.26724 0.08935 0.33384 0.0
C1120 C 0.71276 0.80429 0.85092 0.0
C1121 C 0.7057 0.78993 0.82287 0.0
C1122 C 0.6974 0.8077 0.87645 0.0
C1123 C 0.67449 0.7965 0.87388 0.0
C1124 C 0.66749 0.78192 0.84571 0.0
C1125 C 0.68305 0.77884 0.82081 0.0
C1126 C 0.70559 0.82334 0.90609 0.0
C1127 C 0.64337 0.76952 0.84169 0.0
C1128 C 0.63836 0.78318 0.94587 0.0
C1129 C 0.61995 0.80028 0.94298 0.0
C1130 C 0.65706 0.78268 0.92492 0.0
C1131 C 0.65754 0.79967 0.90025 0.0
C1132 C 0.63969 0.8177 0.89823 0.0
C1133 C 0.62119 0.8178 0.91954 0.0
C1134 C 0.67567 0.76317 0.9282 0.0
C1135 C 0.63935 0.83614 0.87232 0.0
H1136 H 0.73015 0.81295 0.85284 0.0
H1137 H 0.67724 0.76762 0.79946 0.0
H1138 H 0.69307 0.83857 0.90863 0.0
H1139 H 0.70535 0.81295 0.92853 0.0
H1140 H 0.72393 0.83057 0.90469 0.0
H1141 H 0.64059 0.75879 0.81827 0.0
H1142 H 0.64164 0.75741 0.86214 0.0
H1143 H 0.62885 0.78299 0.84254 0.0
H1144 H 0.63796 0.76985 0.96428 0.0
H1145 H 0.6071 0.83104 0.91683 0.0
H1146 H 0.69392 0.77087 0.92826 0.0
H1147 H 0.67311 0.75028 0.90688 0.0
H1148 H 0.67456 0.75317 0.95087 0.0
H1149 H 0.65735 0.84429 0.8717 0.0
H1150 H 0.62621 0.85064 0.87641 0.0
H1151 H 0.63456 0.82731 0.84794 0.0
C1152 C 0.27094 0.70359 0.80786 0.0
C1153 C 0.29202 0.71748 0.81161 0.0
C1154 C 0.26814 0.68308 0.82666 0.0
C1155 C 0.28663 0.67629 0.8504 0.0
C1156 C 0.30797 0.69013 0.85395 0.0
C1157 C 0.31045 0.71018 0.83456 0.0
C1158 C 0.24522 0.66879 0.82138 0.0
C1159 C 0.32814 0.68415 0.87901 0.0
C1160 C 0.27263 0.63915 0.92379 0.0
C1161 C 0.28162 0.6162 0.91585 0.0
C1162 C 0.27377 0.65852 0.9027 0.0
C1163 C 0.28371 0.65522 0.87213 0.0
C1164 C 0.29222 0.63204 0.86345 0.0
C1165 C 0.2913 0.61308 0.88529 0.0
C1166 C 0.2647 0.68279 0.91353 0.0
C1167 C 0.30275 0.62732 0.83116 0.0
H1168 H 0.25647 0.7089 0.7905 0.0
H1169 H 0.32683 0.7206 0.83818 0.0
H1170 H 0.24927 0.6496 0.81634 0.0
H1171 H 0.23558 0.66989 0.84392 0.0
H1172 H 0.23317 0.67531 0.80077 0.0
H1173 H 0.34366 0.6965 0.87877 0.0
H1174 H 0.32165 0.68511 0.90384 0.0
H1175 H 0.33435 0.66554 0.87442 0.0
H1176 H 0.26453 0.64214 0.94663 0.0
H1177 H 0.29873 0.59587 0.87847 0.0
H1178 H 0.25074 0.68914 0.89516 0.0
H1179 H 0.27956 0.69604 0.91529 0.0
H1180 H 0.25707 0.68251 0.93763 0.0
H1181 H 0.29027 0.6335 0.81081 0.0
H1182 H 0.30664 0.60802 0.82655 0.0
H1183 H 0.31964 0.63762 0.83078 0.0
C1184 C 0.35743 0.24338 0.87576 0.0
C1185 C 0.34736 0.26079 0.85503 0.0
C1186 C 0.38008 0.24656 0.89276 0.0
C1187 C 0.39324 0.26783 0.88933 0.0
C1188 C 0.38359 0.28521 0.8676 0.0
C1189 C 0.3608 0.28145 0.85059 0.0
C1190 C 0.38959 0.22739 0.9153 0.0
C1191 C 0.39697 0.30814 0.86323 0.0
C1192 C 0.43786 0.28332 0.96263 0.0
C1193 C 0.4593 0.27412 0.95206 0.0
C1194 C 0.41651 0.28246 0.94191 0.0
C1195 C 0.41649 0.27201 0.90979 0.0
C1196 C 0.43835 0.2634 0.8987 0.0
C1197 C 0.45947 0.2646 0.91993 0.0
C1198 C 0.39375 0.2919 0.95488 0.0
C1199 C 0.43925 0.25208 0.86481 0.0
H1200 H 0.34732 0.22725 0.87924 0.0
H1201 H 0.35313 0.29508 0.83486 0.0
H1202 H 0.40768 0.22169 0.90911 0.0
H1203 H 0.39134 0.23471 0.94094 0.0
H1204 H 0.37776 0.21135 0.91396 0.0
H1205 H 0.38805 0.31897 0.84366 0.0
H1206 H 0.39826 0.31908 0.8865 0.0
H1207 H 0.41552 0.30412 0.85718 0.0
H1208 H 0.43773 0.29072 0.98746 0.0
H1209 H 0.47608 0.25758 0.9117 0.0
H1210 H 0.38121 0.2768 0.95721 0.0
H1211 H 0.38473 0.30443 0.93755 0.0
H1212 H 0.39709 0.30135 0.97919 0.0
H1213 H 0.42907 0.23496 0.86292 0.0
H1214 H 0.45788 0.24832 0.85879 0.0
H1215 H 0.43065 0.26395 0.84626 0.0
C1216 C 0.7457 0.36586 0.83119 0.0
C1217 C 0.76621 0.35514 0.81936 0.0
C1218 C 0.74711 0.38683 0.85178 0.0
C1219 C 0.76963 0.39771 0.86125 0.0
C1220 C 0.79038 0.3874 0.84872 0.0
C1221 C 0.78844 0.36638 0.82801 0.0
C1222 C 0.72442 0.39699 0.86414 0.0
C1223 C 0.81479 0.39822 0.85795 0.0
C1224 C 0.77003 0.46294 0.89614 0.0
C1225 C 0.77279 0.45995 0.93002 0.0
C1226 C 0.76935 0.44302 0.87357 0.0
C1227 C 0.7714 0.41934 0.88498 0.0
C1228 C 0.77431 0.41635 0.91931 0.0
C1229 C 0.775 0.4366 0.94129 0.0
C1230 C 0.76623 0.44731 0.83743 0.0
C1231 C 0.77649 0.39166 0.9329 0.0
H1232 H 0.72837 0.35752 0.82492 0.0
H1233 H 0.80449 0.35834 0.81943 0.0
H1234 H 0.72529 0.39616 0.89118 0.0
H1235 H 0.72256 0.41615 0.85818 0.0
H1236 H 0.70819 0.38715 0.85352 0.0
H1237 H 0.82903 0.38895 0.84503 0.0
H1238 H 0.81479 0.41748 0.85222 0.0
H1239 H 0.81923 0.39719 0.88471 0.0
H1240 H 0.76837 0.48095 0.88731 0.0
H1241 H 0.77718 0.4342 0.96744 0.0
H1242 H 0.74942 0.43872 0.82651 0.0
H1243 H 0.78118 0.43897 0.825 0.0
H1244 H 0.76559 0.46671 0.83236 0.0
H1245 H 0.76005 0.38111 0.92528 0.0
H1246 H 0.77923 0.39228 0.96004 0.0
H1247 H 0.79172 0.38198 0.92286 0.0
C1248 C 0.72134 0.25289 0.15195 0.0
C1249 C 0.73094 0.27299 0.17024 0.0
C1250 C 0.69753 0.25269 0.13783 0.0
C1251 C 0.68286 0.27313 0.14178 0.0
C1252 C 0.69255 0.2936 0.1598 0.0
C1253 C 0.71635 0.29324 0.17384 0.0
C1254 C 0.68795 0.23043 0.11905 0.0
C1255 C 0.6777 0.31587 0.16439 0.0
C1256 C 0.62705 0.28031 0.08274 0.0
C1257 C 0.60884 0.27265 0.10133 0.0
C1258 C 0.65118 0.28053 0.09549 0.0
C1259 C 0.65727 0.27295 0.1277 0.0
C1260 C 0.63881 0.2653 0.14657 0.0
C1261 C 0.61483 0.26537 0.13322 0.0
C1262 C 0.67015 0.28893 0.07451 0.0
C1263 C 0.64439 0.25703 0.18091 0.0
H1264 H 0.73229 0.23706 0.14928 0.0
H1265 H 0.72363 0.30899 0.18746 0.0
H1266 H 0.67254 0.22322 0.13092 0.0
H1267 H 0.6813 0.23489 0.09382 0.0
H1268 H 0.7017 0.21617 0.11765 0.0
H1269 H 0.688 0.3305 0.17834 0.0
H1270 H 0.67094 0.32249 0.14023 0.0
H1271 H 0.66187 0.31158 0.17762 0.0
H1272 H 0.62235 0.28605 0.05811 0.0
H1273 H 0.60069 0.25968 0.14767 0.0
H1274 H 0.68356 0.27456 0.0714 0.0
H1275 H 0.6798 0.30463 0.08675 0.0
H1276 H 0.66253 0.29403 0.04991 0.0
H1277 H 0.65706 0.24176 0.18071 0.0
H1278 H 0.62807 0.25134 0.1922 0.0
H1279 H 0.65323 0.2717 0.19652 0.0
C1280 C 0.80501 0.71484 0.15221 0.0
C1281 C 0.78692 0.72342 0.1715 0.0
C1282 C 0.80294 0.69259 0.13439 0.0
C1283 C 0.78226 0.67809 0.1356 0.0
C1284 C 0.76396 0.68651 0.1551 0.0
C1285 C 0.76648 0.7089 0.17268 0.0
C1286 C 0.82301 0.68458 0.11418 0.0
C1287 C 0.74158 0.67185 0.1573 0.0
C1288 C 0.76835 0.63064 0.06566 0.0
C1289 C 0.77747 0.60955 0.07939 0.0
C1290 C 0.76946 0.65285 0.08369 0.0
C1291 C 0.77992 0.65423 0.11647 0.0
C1292 C 0.78885 0.63281 0.13054 0.0
C1293 C 0.78752 0.61086 0.11192 0.0
C1294 C 0.75973 0.67498 0.06742 0.0
C1295 C 0.8001 0.63312 0.16524 0.0
H1296 H 0.8211 0.72538 0.15121 0.0
H1297 H 0.75219 0.71513 0.18704 0.0
H1298 H 0.83027 0.6672 0.12266 0.0
H1299 H 0.81611 0.68168 0.08819 0.0
H1300 H 0.83789 0.69783 0.11555 0.0
H1301 H 0.72903 0.68065 0.1736 0.0
H1302 H 0.73219 0.66888 0.13259 0.0
H1303 H 0.74637 0.65395 0.16664 0.0
H1304 H 0.76057 0.62978 0.04056 0.0
H1305 H 0.79452 0.59464 0.12274 0.0
H1306 H 0.77436 0.68822 0.06619 0.0
H1307 H 0.74608 0.68356 0.0821 0.0
H1308 H 0.7515 0.67092 0.04223 0.0
H1309 H 0.81614 0.6449 0.16761 0.0
H1310 H 0.80552 0.61494 0.17303 0.0
H1311 H 0.78735 0.64066 0.18221 0.0
C1312 C 0.33686 0.76438 0.16854 0.0
C1313 C 0.31861 0.78074 0.15968 0.0
C1314 C 0.35962 0.76584 0.15651 0.0
C1315 C 0.36445 0.78406 0.13489 0.0
C1316 C 0.34613 0.80057 0.12572 0.0
C1317 C 0.32354 0.79874 0.13819 0.0
C1318 C 0.37853 0.74778 0.1669 0.0
C1319 C 0.35043 0.82027 0.10275 0.0
C1320 C 0.42976 0.80096 0.12625 0.0
C1321 C 0.43456 0.78822 0.09731 0.0
C1322 C 0.4071 0.79981 0.1387 0.0
C1323 C 0.3886 0.78571 0.12175 0.0
C1324 C 0.39327 0.77303 0.09234 0.0
C1325 C 0.41611 0.7744 0.08056 0.0
C1326 C 0.403 0.81355 0.17017 0.0
C1327 C 0.37411 0.75798 0.07324 0.0
H1328 H 0.33332 0.75017 0.18465 0.0
H1329 H 0.30983 0.8117 0.1314 0.0
H1330 H 0.38421 0.73758 0.1451 0.0
H1331 H 0.3946 0.75717 0.17883 0.0
H1332 H 0.37211 0.73488 0.18414 0.0
H1333 H 0.33433 0.83158 0.09774 0.0
H1334 H 0.36538 0.83193 0.11334 0.0
H1335 H 0.35577 0.81241 0.07918 0.0
H1336 H 0.44389 0.81153 0.13954 0.0
H1337 H 0.41944 0.76482 0.05788 0.0
H1338 H 0.39806 0.80096 0.18875 0.0
H1339 H 0.38785 0.82616 0.16606 0.0
H1340 H 0.41908 0.8239 0.18024 0.0
H1341 H 0.36808 0.74365 0.08866 0.0
H1342 H 0.38045 0.7495 0.05058 0.0
H1343 H 0.35829 0.76922 0.06644 0.0
C1344 C 0.24893 0.34472 0.18359 0.0
C1345 C 0.26799 0.32835 0.18558 0.0
C1346 C 0.25053 0.36662 0.16765 0.0
C1347 C 0.27138 0.37217 0.1519 0.0
C1348 C 0.29061 0.35548 0.15355 0.0
C1349 C 0.28887 0.33412 0.17083 0.0
C1350 C 0.22986 0.38395 0.16785 0.0
C1351 C 0.31286 0.3599 0.13636 0.0
C1352 C 0.26362 0.41833 0.08427 0.0
C1353 C 0.27466 0.43901 0.09936 0.0
C1354 C 0.26304 0.39648 0.10061 0.0
C1355 C 0.27287 0.39522 0.13357 0.0
C1356 C 0.28364 0.41625 0.1491 0.0
C1357 C 0.28482 0.4376 0.13171 0.0
C1358 C 0.25219 0.37458 0.08232 0.0
C1359 C 0.29353 0.41637 0.18443 0.0
H1360 H 0.23281 0.34049 0.19507 0.0
H1361 H 0.30358 0.3215 0.17197 0.0
H1362 H 0.23632 0.40184 0.17764 0.0
H1363 H 0.22192 0.38622 0.14251 0.0
H1364 H 0.21559 0.37781 0.18282 0.0
H1365 H 0.32593 0.345 0.13907 0.0
H1366 H 0.30795 0.36217 0.10991 0.0
H1367 H 0.3217 0.37674 0.14625 0.0
H1368 H 0.25578 0.41914 0.0593 0.0
H1369 H 0.29322 0.45346 0.14375 0.0
H1370 H 0.23723 0.36757 0.09525 0.0
H1371 H 0.26583 0.36019 0.08148 0.0
H1372 H 0.24535 0.37835 0.05688 0.0
H1373 H 0.2793 0.41105 0.19999 0.0
H1374 H 0.3006 0.43425 0.1934 0.0
H1375 H 0.30814 0.40305 0.18755 0.0
C1376 C 0.35885 0.24391 0.20727 0.0
C1377 C 0.35194 0.25906 0.23301 0.0
C1378 C 0.37979 0.24805 0.19188 0.0
C1379 C 0.39465 0.26783 0.20247 0.0
C1380 C 0.38844 0.28268 0.22943 0.0
C1381 C 0.36711 0.27816 0.24439 0.0
C1382 C 0.38551 0.23164 0.16336 0.0
C1383 C 0.40392 0.30379 0.24173 0.0
C1384 C 0.45646 0.26287 0.17031 0.0
C1385 C 0.45352 0.27605 0.14182 0.0
C1386 C 0.43805 0.26139 0.19155 0.0
C1387 C 0.41595 0.27312 0.18404 0.0
C1388 C 0.41327 0.28728 0.15607 0.0
C1389 C 0.43206 0.28865 0.13544 0.0
C1390 C 0.44189 0.24636 0.22125 0.0
C1391 C 0.39001 0.2999 0.14682 0.0
H1392 H 0.34745 0.22894 0.1984 0.0
H1393 H 0.36191 0.29004 0.26411 0.0
H1394 H 0.38549 0.24203 0.14088 0.0
H1395 H 0.40367 0.22394 0.16797 0.0
H1396 H 0.37246 0.21667 0.15869 0.0
H1397 H 0.39812 0.31205 0.26485 0.0
H1398 H 0.42289 0.29819 0.24586 0.0
H1399 H 0.40311 0.3176 0.223 0.0
H1400 H 0.4731 0.2534 0.17582 0.0
H1401 H 0.42949 0.29875 0.11343 0.0
H1402 H 0.43089 0.2298 0.21745 0.0
H1403 H 0.43603 0.25624 0.24319 0.0
H1404 H 0.46093 0.24111 0.22617 0.0
H1405 H 0.37589 0.2864 0.13916 0.0
H1406 H 0.39154 0.31216 0.12644 0.0
H1407 H 0.38402 0.3104 0.16817 0.0
C1408 C 0.82071 0.36698 0.19405 0.0
C1409 C 0.80745 0.35965 0.21943 0.0
C1410 C 0.81586 0.3886 0.17876 0.0
C1411 C 0.79737 0.40357 0.18924 0.0
C1412 C 0.78483 0.39706 0.2162 0.0
C1413 C 0.78998 0.37507 0.23098 0.0
C1414 C 0.82972 0.39475 0.15015 0.0
C1415 C 0.76526 0.41275 0.2284 0.0
C1416 C 0.79883 0.46517 0.15342 0.0
C1417 C 0.78297 0.46194 0.12527 0.0
C1418 C 0.80243 0.44693 0.17593 0.0
C1419 C 0.79016 0.42481 0.16987 0.0
C1420 C 0.77329 0.4219 0.14231 0.0
C1421 C 0.76984 0.44051 0.12045 0.0
C1422 C 0.82025 0.4509 0.2053 0.0
C1423 C 0.75999 0.39853 0.13469 0.0
H1424 H 0.83446 0.35534 0.18519 0.0
H1425 H 0.77967 0.36955 0.2506 0.0
H1426 H 0.81743 0.39482 0.12751 0.0
H1427 H 0.83761 0.41296 0.15408 0.0
H1428 H 0.84436 0.38181 0.14617 0.0
H1429 H 0.75973 0.40707 0.25228 0.0
H1430 H 0.77121 0.43175 0.23103 0.0
H1431 H 0.7494 0.41187 0.21033 0.0
H1432 H 0.80876 0.48185 0.15754 0.0
H1433 H 0.7577 0.43779 0.09864 0.0
H1434 H 0.83662 0.44027 0.20173 0.0
H1435 H 0.81278 0.44469 0.2277 0.0
H1436 H 0.82546 0.47007 0.20927 0.0
H1437 H 0.77279 0.38438 0.12786 0.0
H1438 H 0.74584 0.39994 0.11424 0.0
H1439 H 0.7516 0.39264 0.15656 0.0
C1440 C 0.69182 0.77409 0.2227 0.0
C1441 C 0.70327 0.79644 0.22267 0.0
C1442 C 0.66935 0.77001 0.20499 0.0
C1443 C 0.65808 0.78877 0.18711 0.0
C1444 C 0.66905 0.81168 0.18868 0.0
C1445 C 0.69143 0.81516 0.20624 0.0
C1446 C 0.65828 0.74534 0.20403 0.0
C1447 C 0.65772 0.83232 0.17042 0.0
C1448 C 0.61683 0.77828 0.10928 0.0
C1449 C 0.59445 0.78425 0.12005 0.0
C1450 C 0.63749 0.77826 0.13126 0.0
C1451 C 0.63576 0.78444 0.16486 0.0
C1452 C 0.61291 0.78933 0.17604 0.0
C1453 C 0.59252 0.78914 0.15349 0.0
C1454 C 0.66138 0.77285 0.11816 0.0
C1455 C 0.61015 0.79598 0.21152 0.0
H1456 H 0.70096 0.75947 0.23503 0.0
H1457 H 0.7001 0.83253 0.20624 0.0
H1458 H 0.63911 0.74653 0.20884 0.0
H1459 H 0.6591 0.73681 0.17926 0.0
H1460 H 0.66765 0.73359 0.22216 0.0
H1461 H 0.66768 0.84941 0.176 0.0
H1462 H 0.65717 0.82822 0.14368 0.0
H1463 H 0.63898 0.83493 0.17664 0.0
H1464 H 0.61827 0.77444 0.08341 0.0
H1465 H 0.57515 0.79364 0.16178 0.0
H1466 H 0.67125 0.75941 0.13318 0.0
H1467 H 0.67244 0.78942 0.11968 0.0
H1468 H 0.65944 0.76599 0.09228 0.0
H1469 H 0.62 0.78316 0.22762 0.0
H1470 H 0.59108 0.7963 0.21704 0.0
H1471 H 0.61799 0.81402 0.21765 0.0
C1472 C 0.23633 0.67513 0.19122 0.0
C1473 C 0.25356 0.68857 0.21093 0.0
C1474 C 0.2422 0.65341 0.17555 0.0
C1475 C 0.26593 0.64471 0.17971 0.0
C1476 C 0.28302 0.65726 0.20148 0.0
C1477 C 0.27664 0.67912 0.21687 0.0
C1478 C 0.22334 0.64066 0.15267 0.0
C1479 C 0.30841 0.6484 0.20692 0.0
C1480 C 0.2727 0.58132 0.14374 0.0
C1481 C 0.27899 0.58602 0.11234 0.0
C1482 C 0.26992 0.60019 0.16694 0.0
C1483 C 0.27315 0.62422 0.15818 0.0
C1484 C 0.28046 0.62883 0.12679 0.0
C1485 C 0.28327 0.60966 0.10427 0.0
C1486 C 0.26236 0.5945 0.20019 0.0
C1487 C 0.28394 0.65411 0.11622 0.0
H1488 H 0.21837 0.68216 0.18681 0.0
H1489 H 0.29005 0.6894 0.23204 0.0
H1490 H 0.22816 0.64167 0.12708 0.0
H1491 H 0.22244 0.62141 0.15817 0.0
H1492 H 0.20528 0.64862 0.15431 0.0
H1493 H 0.31832 0.6578 0.22829 0.0
H1494 H 0.30867 0.62883 0.21074 0.0
H1495 H 0.31801 0.65147 0.18488 0.0
H1496 H 0.26929 0.56297 0.14976 0.0
H1497 H 0.28793 0.61318 0.07979 0.0
H1498 H 0.24336 0.59966 0.20181 0.0
H1499 H 0.27319 0.60496 0.2197 0.0
H1500 H 0.26417 0.57511 0.20496 0.0
H1501 H 0.26645 0.6635 0.11441 0.0
H1502 H 0.29158 0.65453 0.09213 0.0
H1503 H 0.29599 0.66429 0.13464 0.0
C1504 C 0.35947 0.79085 0.85563 0.0
C1505 C 0.3434 0.80906 0.86354 0.0
C1506 C 0.38226 0.78927 0.87254 0.0
C1507 C 0.38948 0.80662 0.89759 0.0
C1508 C 0.37344 0.82527 0.90537 0.0
C1509 C 0.3505 0.82607 0.88855 0.0
C1510 C 0.39848 0.76877 0.86392 0.0
C1511 C 0.38056 0.84441 0.93142 0.0
C1512 C 0.44009 0.79139 0.96148 0.0
C1513 C 0.45989 0.80212 0.94917 0.0
C1514 C 0.41711 0.79266 0.94497 0.0
C1515 C 0.41379 0.80521 0.91558 0.0
C1516 C 0.43382 0.81605 0.90309 0.0
C1517 C 0.45667 0.81407 0.91978 0.0
C1518 C 0.39643 0.78042 0.95888 0.0
C1519 C 0.43111 0.82984 0.87214 0.0
H1520 H 0.35392 0.77739 0.83676 0.0
H1521 H 0.33814 0.84017 0.89466 0.0
H1522 H 0.41538 0.77582 0.8557 0.0
H1523 H 0.40331 0.75829 0.88589 0.0
H1524 H 0.39003 0.75648 0.84429 0.0
H1525 H 0.36633 0.85807 0.93392 0.0
H1526 H 0.38452 0.83613 0.95536 0.0
H1527 H 0.39715 0.85355 0.92551 0.0
H1528 H 0.44265 0.78199 0.98411 0.0
H1529 H 0.47206 0.82203 0.91001 0.0
H1530 H 0.38826 0.7669 0.94072 0.0
H1531 H 0.38235 0.7937 0.96396 0.0
H1532 H 0.40201 0.77134 0.98186 0.0
H1533 H 0.42442 0.81777 0.85123 0.0
H1534 H 0.44826 0.838 0.86636 0.0
H1535 H 0.4177 0.8443 0.87453 0.0
C1536 C 0.24294 0.34709 0.90364 0.0
C1537 C 0.26271 0.33281 0.89687 0.0
C1538 C 0.24602 0.37043 0.91742 0.0
C1539 C 0.26941 0.37986 0.92435 0.0
C1540 C 0.28945 0.36527 0.91888 0.0
C1541 C 0.28586 0.3419 0.90536 0.0
C1542 C 0.22422 0.38532 0.92354 0.0
C1543 C 0.31467 0.37457 0.92655 0.0
C1544 C 0.27528 0.44752 0.92252 0.0
C1545 C 0.2766 0.45412 0.95582 0.0
C1546 C 0.27338 0.42331 0.91202 0.0
C1547 C 0.27282 0.40542 0.93549 0.0
C1548 C 0.27477 0.41212 0.96929 0.0
C1549 C 0.27651 0.43651 0.97906 0.0
C1550 C 0.27159 0.41691 0.8758 0.0
C1551 C 0.27423 0.39375 0.9952 0.0
H1552 H 0.22498 0.34043 0.8971 0.0
H1553 H 0.30125 0.33086 0.901 0.0
H1554 H 0.22543 0.39234 0.94931 0.0
H1555 H 0.22343 0.40101 0.90772 0.0
H1556 H 0.2073 0.37494 0.91854 0.0
H1557 H 0.32834 0.36064 0.92218 0.0
H1558 H 0.31776 0.38998 0.91116 0.0
H1559 H 0.31724 0.38117 0.95247 0.0
H1560 H 0.27542 0.46137 0.90477 0.0
H1561 H 0.2775 0.44186 1.00485 0.0
H1562 H 0.25416 0.408 0.86844 0.0
H1563 H 0.28589 0.40402 0.87011 0.0
H1564 H 0.27315 0.43289 0.86084 0.0
H1565 H 0.25533 0.38902 0.99818 0.0
H1566 H 0.28253 0.40081 0.01919 0.0
H1567 H 0.28364 0.37705 0.98829 0.0
C1568 C 0.72066 0.24623 0.89082 0.0
C1569 C 0.72416 0.26134 0.86511 0.0
C1570 C 0.69919 0.24669 0.9064 0.0
C1571 C 0.68071 0.26277 0.89622 0.0
C1572 C 0.68401 0.27785 0.87002 0.0
C1573 C 0.7056 0.27692 0.85479 0.0
C1574 C 0.69639 0.23018 0.93405 0.0
C1575 C 0.66492 0.29539 0.85852 0.0
C1576 C 0.61698 0.25174 0.91892 0.0
C1577 C 0.61543 0.2677 0.94603 0.0
C1578 C 0.63808 0.24988 0.90258 0.0
C1579 C 0.65821 0.2643 0.91352 0.0
C1580 C 0.65678 0.2804 0.9409 0.0
C1581 C 0.63549 0.28188 0.95678 0.0
C1582 C 0.6388 0.2325 0.87351 0.0
C1583 C 0.67778 0.29607 0.95351 0.0
H1584 H 0.73477 0.234 0.89878 0.0
H1585 H 0.70818 0.28899 0.8354 0.0
H1586 H 0.69403 0.2409 0.95692 0.0
H1587 H 0.68011 0.21894 0.92863 0.0
H1588 H 0.71208 0.21822 0.9384 0.0
H1589 H 0.6699 0.30535 0.83719 0.0
H1590 H 0.64778 0.28581 0.85164 0.0
H1591 H 0.66172 0.30853 0.8787 0.0
H1592 H 0.60157 0.24086 0.91019 0.0
H1593 H 0.63471 0.29393 0.97806 0.0
H1594 H 0.65366 0.21958 0.8779 0.0
H1595 H 0.64234 0.24233 0.85146 0.0
H1596 H 0.6218 0.22229 0.86833 0.0
H1597 H 0.69353 0.28476 0.96045 0.0
H1598 H 0.67384 0.30759 0.97511 0.0
H1599 H 0.68285 0.30774 0.93395 0.0
C1600 C 0.77769 0.69366 0.80215 0.0
C1601 C 0.75948 0.69396 0.77655 0.0
C1602 C 0.78006 0.67442 0.82307 0.0
C1603 C 0.76392 0.65487 0.81817 0.0
C1604 C 0.74624 0.65446 0.79141 0.0
C1605 C 0.74421 0.67405 0.7709 0.0
C1606 C 0.79923 0.67553 0.85124 0.0
C1607 C 0.7288 0.63384 0.78531 0.0
C1608 C 0.78058 0.59862 0.8641 0.0
C1609 C 0.76739 0.60164 0.89155 0.0
C1610 C 0.77921 0.61548 0.83951 0.0
C1611 C 0.76444 0.6359 0.84264 0.0
C1612 C 0.75091 0.63889 0.87014 0.0
C1613 C 0.75253 0.62173 0.89421 0.0
C1614 C 0.79377 0.61163 0.81043 0.0
C1615 C 0.73511 0.66053 0.87456 0.0
H1616 H 0.78991 0.70871 0.8062 0.0
H1617 H 0.73004 0.67418 0.75129 0.0
H1618 H 0.79074 0.67667 0.87474 0.0
H1619 H 0.81015 0.65896 0.85115 0.0
H1620 H 0.81131 0.69122 0.85038 0.0
H1621 H 0.71773 0.63508 0.76169 0.0
H1622 H 0.7385 0.61651 0.78526 0.0
H1623 H 0.71668 0.63368 0.80533 0.0
H1624 H 0.79189 0.58299 0.86177 0.0
H1625 H 0.74256 0.62434 0.91559 0.0
H1626 H 0.80705 0.62633 0.81002 0.0
H1627 H 0.78197 0.61211 0.78739 0.0
H1628 H 0.80347 0.59426 0.81086 0.0
H1629 H 0.7462 0.67708 0.87658 0.0
H1630 H 0.7251 0.65973 0.89674 0.0
H1631 H 0.72205 0.66202 0.85291 0.0
loop_
_geom_bond_atom_site_label_1
_geom_bond_atom_site_label_2
_geom_bond_distance
_geom_bond_site_symmetry_2
_ccdc_geom_bond_type
Cu0 N1 1.999 . S
Cu0 O6 1.974 . S
Cu0 N11 1.985 . S
Cu0 O20 1.959 . S
N1 Cu0 1.999 . S
N1 C3 1.263 . S
N1 C5 1.389 . S
N2 C3 1.358 . S
N2 C4 1.400 . S
C3 N1 1.263 . S
C3 N2 1.358 . S
C3 H9 0.930 . S
C4 N2 1.400 . S
C4 C5 1.351 . S
C4 H21 0.930 . S
C5 N1 1.389 . S
C5 C4 1.351 . S
C5 H10 0.930 . S
O6 Cu0 1.974 . S
O6 C16 1.282 . S
C7 O8 1.261 . S
C7 O20 1.251 . S
O8 C7 1.261 . S
H9 C3 0.930 . S
H10 C5 0.930 . S
N11 Cu0 1.985 . S
N11 C13 1.335 . S
N11 C14 1.390 . S
N12 C13 1.345 . S
N12 C15 1.336 . S
C13 N11 1.335 . S
C13 N12 1.345 . S
C13 H18 0.930 . S
C14 N11 1.390 . S
C14 C15 1.346 . S
C14 H19 0.930 . S
C15 N12 1.336 . S
C15 C14 1.346 . S
C15 H22 0.929 . S
C16 O6 1.282 . S
C16 O17 1.216 . S
O17 C16 1.216 . S
H18 C13 0.930 . S
H19 C14 0.930 . S
O20 Cu0 1.959 . S
O20 C7 1.251 . S
H21 C4 0.930 . S
H22 C15 0.929 . S
Cu23 N24 1.999 . S
Cu23 O29 1.974 . S
Cu23 N34 1.985 . S
Cu23 O43 1.959 . S
N24 Cu23 1.999 . S
N24 C26 1.263 . S
N24 C28 1.389 . S
N25 C26 1.358 . S
N25 C27 1.400 . S
C26 N24 1.263 . S
C26 N25 1.358 . S
C26 H32 0.930 . S
C27 N25 1.400 . S
C27 C28 1.351 . S
C27 H44 0.930 . S
C28 N24 1.389 . S
C28 C27 1.351 . S
C28 H33 0.930 . S
O29 Cu23 1.974 . S
O29 C39 1.282 . S
C30 O31 1.261 . S
C30 O43 1.251 . S
O31 C30 1.261 . S
H32 C26 0.930 . S
H33 C28 0.930 . S
N34 Cu23 1.985 . S
N34 C36 1.335 . S
N34 C37 1.390 . S
N35 C36 1.345 . S
N35 C38 1.336 . S
C36 N34 1.335 . S
C36 N35 1.345 . S
C36 H41 0.930 . S
C37 N34 1.390 . S
C37 C38 1.346 . S
C37 H42 0.930 . S
C38 N35 1.336 . S
C38 C37 1.346 . S
C38 H45 0.929 . S
C39 O29 1.282 . S
C39 O40 1.216 . S
O40 C39 1.216 . S
H41 C36 0.930 . S
H42 C37 0.930 . S
O43 Cu23 1.959 . S
O43 C30 1.251 . S
H44 C27 0.930 . S
H45 C38 0.929 . S
Cu46 N47 1.999 . S
Cu46 O52 1.974 . S
Cu46 N57 1.985 . S
Cu46 O66 1.959 . S
N47 Cu46 1.999 . S
N47 C49 1.263 . S
N47 C51 1.389 . S
N48 C49 1.358 . S
N48 C50 1.400 . S
C49 N47 1.263 . S
C49 N48 1.358 . S
C49 H55 0.930 . S
C50 N48 1.400 . S
C50 C51 1.351 . S
C50 H67 0.930 . S
C51 N47 1.389 . S
C51 C50 1.351 . S
C51 H56 0.930 . S
O52 Cu46 1.974 . S
O52 C62 1.282 . S
C53 O54 1.261 . S
C53 O66 1.251 . S
O54 C53 1.261 . S
H55 C49 0.930 . S
H56 C51 0.930 . S
N57 Cu46 1.985 . S
N57 C59 1.335 . S
N57 C60 1.390 . S
N58 C59 1.345 . S
N58 C61 1.336 . S
C59 N57 1.335 . S
C59 N58 1.345 . S
C59 H64 0.930 . S
C60 N57 1.390 . S
C60 C61 1.346 . S
C60 H65 0.930 . S
C61 N58 1.336 . S
C61 C60 1.346 . S
C61 H68 0.929 . S
C62 O52 1.282 . S
C62 O63 1.216 . S
O63 C62 1.216 . S
H64 C59 0.930 . S
H65 C60 0.930 . S
O66 Cu46 1.959 . S
O66 C53 1.251 . S
H67 C50 0.930 . S
H68 C61 0.929 . S
Cu69 N70 1.999 . S
Cu69 O75 1.974 . S
Cu69 N80 1.985 . S
Cu69 O89 1.959 . S
N70 Cu69 1.999 . S
N70 C72 1.263 . S
N70 C74 1.389 . S
N71 C72 1.358 . S
N71 C73 1.400 . S
C72 N70 1.263 . S
C72 N71 1.358 . S
C72 H78 0.930 . S
C73 N71 1.400 . S
C73 C74 1.351 . S
C73 H90 0.930 . S
C74 N70 1.389 . S
C74 C73 1.351 . S
C74 H79 0.930 . S
O75 Cu69 1.974 . S
O75 C85 1.282 . S
C76 O77 1.261 . S
C76 O89 1.251 . S
O77 C76 1.261 . S
H78 C72 0.930 . S
H79 C74 0.930 . S
N80 Cu69 1.985 . S
N80 C82 1.335 . S
N80 C83 1.390 . S
N81 C82 1.345 . S
N81 C84 1.336 . S
C82 N80 1.335 . S
C82 N81 1.345 . S
C82 H87 0.930 . S
C83 N80 1.390 . S
C83 C84 1.346 . S
C83 H88 0.930 . S
C84 N81 1.336 . S
C84 C83 1.346 . S
C84 H91 0.929 . S
C85 O75 1.282 . S
C85 O86 1.216 . S
O86 C85 1.216 . S
H87 C82 0.930 . S
H88 C83 0.930 . S
O89 Cu69 1.959 . S
O89 C76 1.251 . S
H90 C73 0.930 . S
H91 C84 0.929 . S
Cu92 N93 1.999 . S
Cu92 O98 1.974 . S
Cu92 N103 1.985 . S
Cu92 O112 1.959 . S
N93 Cu92 1.999 . S
N93 C95 1.263 . S
N93 C97 1.389 . S
N94 C95 1.358 . S
N94 C96 1.400 . S
C95 N93 1.263 . S
C95 N94 1.358 . S
C95 H101 0.930 . S
C96 N94 1.400 . S
C96 C97 1.351 . S
C96 H113 0.930 . S
C97 N93 1.389 . S
C97 C96 1.351 . S
C97 H102 0.930 . S
O98 Cu92 1.974 . S
O98 C108 1.282 . S
C99 O100 1.261 . S
C99 O112 1.251 . S
O100 C99 1.261 . S
H101 C95 0.930 . S
H102 C97 0.930 . S
N103 Cu92 1.985 . S
N103 C105 1.335 . S
N103 C106 1.390 . S
N104 C105 1.345 . S
N104 C107 1.336 . S
C105 N103 1.335 . S
C105 N104 1.345 . S
C105 H110 0.930 . S
C106 N103 1.390 . S
C106 C107 1.346 . S
C106 H111 0.930 . S
C107 N104 1.336 . S
C107 C106 1.346 . S
C107 H114 0.929 . S
C108 O98 1.282 . S
C108 O109 1.216 . S
O109 C108 1.216 . S
H110 C105 0.930 . S
H111 C106 0.930 . S
O112 Cu92 1.959 . S
O112 C99 1.251 . S
H113 C96 0.930 . S
H114 C107 0.929 . S
Cu115 N116 1.999 . S
Cu115 O121 1.974 . S
Cu115 N126 1.985 . S
Cu115 O135 1.959 . S
N116 Cu115 1.999 . S
N116 C118 1.263 . S
N116 C120 1.389 . S
N117 C118 1.358 . S
N117 C119 1.400 . S
C118 N116 1.263 . S
C118 N117 1.358 . S
C118 H124 0.930 . S
C119 N117 1.400 . S
C119 C120 1.351 . S
C119 H136 0.930 . S
C120 N116 1.389 . S
C120 C119 1.351 . S
C120 H125 0.930 . S
O121 Cu115 1.974 . S
O121 C131 1.282 . S
C122 O123 1.261 . S
C122 O135 1.251 . S
O123 C122 1.261 . S
H124 C118 0.930 . S
H125 C120 0.930 . S
N126 Cu115 1.985 . S
N126 C128 1.335 . S
N126 C129 1.390 . S
N127 C128 1.345 . S
N127 C130 1.336 . S
C128 N126 1.335 . S
C128 N127 1.345 . S
C128 H133 0.930 . S
C129 N126 1.390 . S
C129 C130 1.346 . S
C129 H134 0.930 . S
C130 N127 1.336 . S
C130 C129 1.346 . S
C130 H137 0.929 . S
C131 O121 1.282 . S
C131 O132 1.216 . S
O132 C131 1.216 . S
H133 C128 0.930 . S
H134 C129 0.930 . S
O135 Cu115 1.959 . S
O135 C122 1.251 . S
H136 C119 0.930 . S
H137 C130 0.929 . S
Cu138 N139 1.999 . S
Cu138 O144 1.974 . S
Cu138 N149 1.985 . S
Cu138 O158 1.959 . S
N139 Cu138 1.999 . S
N139 C141 1.263 . S
N139 C143 1.389 . S
N140 C141 1.358 . S
N140 C142 1.400 . S
C141 N139 1.263 . S
C141 N140 1.358 . S
C141 H147 0.930 . S
C142 N140 1.400 . S
C142 C143 1.351 . S
C142 H159 0.930 . S
C143 N139 1.389 . S
C143 C142 1.351 . S
C143 H148 0.930 . S
O144 Cu138 1.974 . S
O144 C154 1.282 . S
C145 O146 1.261 . S
C145 O158 1.251 . S
O146 C145 1.261 . S
H147 C141 0.930 . S
H148 C143 0.930 . S
N149 Cu138 1.985 . S
N149 C151 1.335 . S
N149 C152 1.390 . S
N150 C151 1.345 . S
N150 C153 1.336 . S
C151 N149 1.335 . S
C151 N150 1.345 . S
C151 H156 0.930 . S
C152 N149 1.390 . S
C152 C153 1.346 . S
C152 H157 0.930 . S
C153 N150 1.336 . S
C153 C152 1.346 . S
C153 H160 0.929 . S
C154 O144 1.282 . S
C154 O155 1.216 . S
O155 C154 1.216 . S
H156 C151 0.930 . S
H157 C152 0.930 . S
O158 Cu138 1.959 . S
O158 C145 1.251 . S
H159 C142 0.930 . S
H160 C153 0.929 . S
Cu161 N162 1.999 . S
Cu161 O167 1.974 . S
Cu161 N172 1.985 . S
Cu161 O181 1.959 . S
N162 Cu161 1.999 . S
N162 C164 1.263 . S
N162 C166 1.389 . S
N163 C164 1.358 . S
N163 C165 1.400 . S
C164 N162 1.263 . S
C164 N163 1.358 . S
C164 H170 0.930 . S
C165 N163 1.400 . S
C165 C166 1.351 . S
C165 H182 0.930 . S
C166 N162 1.389 . S
C166 C165 1.351 . S
C166 H171 0.930 . S
O167 Cu161 1.974 . S
O167 C177 1.282 . S
C168 O169 1.261 . S
C168 O181 1.251 . S
O169 C168 1.261 . S
H170 C164 0.930 . S
H171 C166 0.930 . S
N172 Cu161 1.985 . S
N172 C174 1.335 . S
N172 C175 1.390 . S
N173 C174 1.345 . S
N173 C176 1.336 . S
C174 N172 1.335 . S
C174 N173 1.345 . S
C174 H179 0.930 . S
C175 N172 1.390 . S
C175 C176 1.346 . S
C175 H180 0.930 . S
C176 N173 1.336 . S
C176 C175 1.346 . S
C176 H183 0.929 . S
C177 O167 1.282 . S
C177 O178 1.216 . S
O178 C177 1.216 . S
H179 C174 0.930 . S
H180 C175 0.930 . S
O181 Cu161 1.959 . S
O181 C168 1.251 . S
H182 C165 0.930 . S
H183 C176 0.929 . S
C184 C185 1.443 . S
C184 N188 1.376 . S
C184 C222 1.389 . S
C185 C184 1.443 . S
C185 C186 1.340 . S
C185 H225 0.951 . S
C186 C185 1.340 . S
C186 C187 1.439 . S
C186 H226 0.950 . S
C187 C186 1.439 . S
C187 N188 1.374 . S
C187 C221 1.395 . S
N188 C184 1.376 . S
N188 C187 1.374 . S
N188 Co189 2.008 . S
Co189 N188 2.008 . S
Co189 N190 1.995 . S
Co189 N195 2.008 . S
Co189 N200 1.995 . S
Co189 N205 2.282 . S
Co189 N211 2.282 . S
N190 Co189 1.995 . S
N190 C191 1.376 . S
N190 C194 1.383 . S
C191 N190 1.376 . S
C191 C192 1.446 . S
C191 C221 1.391 . S
C192 C191 1.446 . S
C192 C193 1.339 1_455 S
C192 H227 0.949 . S
C193 C192 1.339 1_655 S
C193 C194 1.439 1_655 S
C193 H228 0.950 . S
C194 N190 1.383 . S
C194 C193 1.439 1_455 S
C194 C223 1.392 1_455 S
N195 Co189 2.008 . S
N195 C196 1.376 1_455 S
N195 C199 1.374 . S
C196 N195 1.376 1_655 S
C196 C197 1.443 . S
C196 C223 1.389 . S
C197 C196 1.443 . S
C197 C198 1.340 . S
C197 H229 0.951 . S
C198 C197 1.340 . S
C198 C199 1.439 1_655 S
C198 H230 0.950 . S
C199 N195 1.374 . S
C199 C198 1.439 1_455 S
C199 C224 1.395 . S
N200 Co189 1.995 . S
N200 C201 1.376 . S
N200 C204 1.383 . S
C201 N200 1.376 . S
C201 C202 1.446 . S
C201 C224 1.391 . S
C202 C201 1.446 . S
C202 C203 1.339 . S
C202 H231 0.949 . S
C203 C202 1.339 . S
C203 C204 1.439 . S
C203 H232 0.950 . S
C204 N200 1.383 . S
C204 C203 1.439 . S
C204 C222 1.392 . S
N205 Co189 2.282 . S
N205 C208 1.332 . S
N205 C210 1.332 1_455 S
C206 C207 1.386 . S
C206 C209 1.388 . S
C207 C206 1.386 . S
C207 C208 1.382 1_655 S
C207 H233 0.950 . S
C208 N205 1.332 . S
C208 C207 1.382 1_455 S
C208 H219 0.952 . S
C209 C206 1.388 . S
C209 C210 1.382 . S
C209 H234 0.950 . S
C210 N205 1.332 1_655 S
C210 C209 1.382 . S
C210 H220 0.948 1_655 S
N211 Co189 2.282 . S
N211 C215 1.332 . S
N211 C216 1.332 . S
C212 C213 1.388 . S
C212 C216 1.382 . S
C212 H235 0.950 . S
C213 C212 1.388 . S
C213 C214 1.386 . S
C214 C213 1.386 . S
C214 C215 1.382 . S
C214 H236 0.950 . S
C215 N211 1.332 . S
C215 C214 1.382 . S
C215 H217 0.952 . S
C216 N211 1.332 . S
C216 C212 1.382 . S
C216 H218 0.948 . S
H217 C215 0.952 . S
H218 C216 0.948 . S
H219 C208 0.952 . S
H220 C210 0.948 1_455 S
C221 C187 1.395 . S
C221 C191 1.391 . S
C222 C184 1.389 . S
C222 C204 1.392 . S
C223 C194 1.392 1_655 S
C223 C196 1.389 . S
C224 C199 1.395 . S
C224 C201 1.391 . S
H225 C185 0.951 . S
H226 C186 0.950 . S
H227 C192 0.949 . S
H228 C193 0.950 . S
H229 C197 0.951 . S
H230 C198 0.950 . S
H231 C202 0.949 . S
H232 C203 0.950 . S
H233 C207 0.950 . S
H234 C209 0.950 . S
H235 C212 0.950 . S
H236 C214 0.950 . S
C237 C238 1.443 . S
C237 N241 1.376 . S
C237 C275 1.389 . S
C238 C237 1.443 . S
C238 C239 1.340 . S
C238 H278 0.951 . S
C239 C238 1.340 . S
C239 C240 1.439 . S
C239 H279 0.950 . S
C240 C239 1.439 . S
C240 N241 1.374 . S
C240 C274 1.395 . S
N241 C237 1.376 . S
N241 C240 1.374 . S
N241 Co242 2.008 . S
Co242 N241 2.008 . S
Co242 N243 1.995 . S
Co242 N248 2.008 . S
Co242 N253 1.995 . S
Co242 N258 2.282 . S
Co242 N264 2.282 . S
N243 Co242 1.995 . S
N243 C244 1.376 . S
N243 C247 1.383 . S
C244 N243 1.376 . S
C244 C245 1.446 . S
C244 C274 1.391 . S
C245 C244 1.446 . S
C245 C246 1.339 1_545 S
C245 H280 0.949 . S
C246 C245 1.339 1_565 S
C246 C247 1.439 1_565 S
C246 H281 0.950 . S
C247 N243 1.383 . S
C247 C246 1.439 1_545 S
C247 C276 1.392 1_545 S
N248 Co242 2.008 . S
N248 C249 1.353 1_545 S
N248 C252 1.374 . S
C249 N248 1.353 1_565 S
C249 C250 1.457 . S
C249 C276 1.398 . S
C250 C249 1.457 . S
C250 C251 1.341 . S
C250 H282 0.951 . S
C251 C250 1.341 . S
C251 C252 1.438 1_565 S
C251 H283 0.950 . S
C252 N248 1.374 . S
C252 C251 1.438 1_545 S
C252 C277 1.395 . S
N253 Co242 1.995 . S
N253 C254 1.376 . S
N253 C257 1.383 . S
C254 N253 1.376 . S
C254 C255 1.446 . S
C254 C277 1.391 . S
C255 C254 1.446 . S
C255 C256 1.339 . S
C255 H284 0.949 . S
C256 C255 1.339 . S
C256 C257 1.439 . S
C256 H285 0.950 . S
C257 N253 1.383 . S
C257 C256 1.439 . S
C257 C275 1.392 . S
N258 Co242 2.282 . S
N258 C261 1.332 . S
N258 C263 1.332 1_545 S
C259 C260 1.386 . S
C259 C262 1.388 . S
C260 C259 1.386 . S
C260 C261 1.382 1_565 S
C260 H286 0.950 . S
C261 N258 1.332 . S
C261 C260 1.382 1_545 S
C261 H272 0.952 . S
C262 C259 1.388 . S
C262 C263 1.382 . S
C262 H287 0.950 . S
C263 N258 1.332 1_565 S
C263 C262 1.382 . S
C263 H273 0.948 1_565 S
N264 Co242 2.282 . S
N264 C268 1.332 . S
N264 C269 1.332 . S
C265 C266 1.388 . S
C265 C269 1.382 . S
C265 H288 0.950 . S
C266 C265 1.388 . S
C266 C267 1.386 . S
C267 C266 1.386 . S
C267 C268 1.382 . S
C267 H289 0.950 . S
C268 N264 1.332 . S
C268 C267 1.382 . S
C268 H270 0.952 . S
C269 N264 1.332 . S
C269 C265 1.382 . S
C269 H271 0.948 . S
H270 C268 0.952 . S
H271 C269 0.948 . S
H272 C261 0.952 . S
H273 C263 0.948 1_545 S
C274 C240 1.395 . S
C274 C244 1.391 . S
C275 C237 1.389 . S
C275 C257 1.392 . S
C276 C247 1.392 1_565 S
C276 C249 1.398 . S
C277 C252 1.395 . S
C277 C254 1.391 . S
H278 C238 0.951 . S
H279 C239 0.950 . S
H280 C245 0.949 . S
H281 C246 0.950 . S
H282 C250 0.951 . S
H283 C251 0.950 . S
H284 C255 0.949 . S
H285 C256 0.950 . S
H286 C260 0.950 . S
H287 C262 0.950 . S
H288 C265 0.950 . S
H289 C267 0.950 . S
C290 C291 1.443 . S
C290 N294 1.376 . S
C290 C328 1.389 . S
C291 C290 1.443 . S
C291 C292 1.340 . S
C291 H331 0.951 . S
C292 C291 1.340 . S
C292 C293 1.439 . S
C292 H332 0.950 . S
C293 C292 1.439 . S
C293 N294 1.374 . S
C293 C327 1.395 . S
N294 C290 1.376 . S
N294 C293 1.374 . S
N294 Co295 2.008 . S
Co295 N294 2.008 . S
Co295 N296 1.995 1_455 S
Co295 N301 2.008 1_455 S
Co295 N306 1.995 . S
Co295 N311 2.282 1_455 S
Co295 N317 2.282 . S
N296 Co295 1.995 1_655 S
N296 C297 1.376 . S
N296 C300 1.383 . S
C297 N296 1.376 . S
C297 C298 1.446 . S
C297 C327 1.391 1_655 S
C298 C297 1.446 . S
C298 C299 1.339 . S
C298 H333 0.949 . S
C299 C298 1.339 . S
C299 C300 1.439 . S
C299 H334 0.950 . S
C300 N296 1.383 . S
C300 C299 1.439 . S
C300 C329 1.392 . S
N301 Co295 2.008 1_655 S
N301 C302 1.376 . S
N301 C305 1.374 . S
C302 N301 1.376 . S
C302 C303 1.443 . S
C302 C329 1.389 . S
C303 C302 1.443 . S
C303 C304 1.340 . S
C303 H335 0.951 . S
C304 C303 1.340 . S
C304 C305 1.439 . S
C304 H336 0.950 . S
C305 N301 1.374 . S
C305 C304 1.439 . S
C305 C330 1.395 1_655 S
N306 Co295 1.995 . S
N306 C307 1.376 . S
N306 C310 1.383 . S
C307 N306 1.376 . S
C307 C308 1.446 . S
C307 C330 1.391 . S
C308 C307 1.446 . S
C308 C309 1.339 . S
C308 H337 0.949 . S
C309 C308 1.339 . S
C309 C310 1.439 . S
C309 H338 0.950 . S
C310 N306 1.383 . S
C310 C309 1.439 . S
C310 C328 1.392 . S
N311 Co295 2.282 1_655 S
N311 C314 1.332 . S
N311 C316 1.332 . S
C312 C313 1.386 . S
C312 C315 1.388 . S
C313 C312 1.386 . S
C313 C314 1.382 . S
C313 H339 0.950 . S
C314 N311 1.332 . S
C314 C313 1.382 . S
C314 H325 0.952 . S
C315 C312 1.388 . S
C315 C316 1.382 . S
C315 H340 0.950 . S
C316 N311 1.332 . S
C316 C315 1.382 . S
C316 H326 0.948 . S
N317 Co295 2.282 . S
N317 C321 1.332 . S
N317 C322 1.332 . S
C318 C319 1.388 . S
C318 C322 1.382 . S
C318 H341 0.950 . S
C319 C318 1.388 . S
C319 C320 1.386 . S
C320 C319 1.386 . S
C320 C321 1.382 . S
C320 H342 0.950 . S
C321 N317 1.332 . S
C321 C320 1.382 . S
C321 H323 0.952 . S
C322 N317 1.332 . S
C322 C318 1.382 . S
C322 H324 0.948 . S
H323 C321 0.952 . S
H324 C322 0.948 . S
H325 C314 0.952 . S
H326 C316 0.948 . S
C327 C293 1.395 . S
C327 C297 1.391 1_455 S
C328 C290 1.389 . S
C328 C310 1.392 . S
C329 C300 1.392 . S
C329 C302 1.389 . S
C330 C305 1.395 1_455 S
C330 C307 1.391 . S
H331 C291 0.951 . S
H332 C292 0.950 . S
H333 C298 0.949 . S
H334 C299 0.950 . S
H335 C303 0.951 . S
H336 C304 0.950 . S
H337 C308 0.949 . S
H338 C309 0.950 . S
H339 C313 0.950 . S
H340 C315 0.950 . S
H341 C318 0.950 . S
H342 C320 0.950 . S
C343 C344 1.443 . S
C343 N347 1.376 . S
C343 C381 1.389 . S
C344 C343 1.443 . S
C344 C345 1.340 . S
C344 H384 0.951 . S
C345 C344 1.340 . S
C345 C346 1.439 . S
C345 H385 0.950 . S
C346 C345 1.439 . S
C346 N347 1.374 . S
C346 C380 1.395 1_565 S
N347 C343 1.376 . S
N347 C346 1.374 . S
N347 Co348 2.008 1_565 S
Co348 N347 2.008 1_545 S
Co348 N349 1.995 . S
Co348 N354 2.008 . S
Co348 N359 1.995 1_545 S
Co348 N364 2.282 . S
Co348 N370 2.282 1_545 S
N349 Co348 1.995 . S
N349 C350 1.376 . S
N349 C353 1.383 . S
C350 N349 1.376 . S
C350 C351 1.446 . S
C350 C380 1.391 . S
C351 C350 1.446 . S
C351 C352 1.339 . S
C351 H386 0.949 . S
C352 C351 1.339 . S
C352 C353 1.439 . S
C352 H387 0.950 . S
C353 N349 1.383 . S
C353 C352 1.439 . S
C353 C382 1.392 . S
N354 Co348 2.008 . S
N354 C355 1.376 . S
N354 C358 1.374 . S
C355 N354 1.376 . S
C355 C356 1.443 . S
C355 C382 1.389 . S
C356 C355 1.443 . S
C356 C357 1.340 . S
C356 H388 0.951 . S
C357 C356 1.340 . S
C357 C358 1.439 . S
C357 H389 0.950 . S
C358 N354 1.374 . S
C358 C357 1.439 . S
C358 C383 1.395 . S
N359 Co348 1.995 1_565 S
N359 C360 1.376 . S
N359 C363 1.383 . S
C360 N359 1.376 . S
C360 C361 1.446 . S
C360 C383 1.391 1_565 S
C361 C360 1.446 . S
C361 C362 1.339 . S
C361 H390 0.949 . S
C362 C361 1.339 . S
C362 C363 1.439 . S
C362 H391 0.950 . S
C363 N359 1.383 . S
C363 C362 1.439 . S
C363 C381 1.392 . S
N364 Co348 2.282 . S
N364 C367 1.332 . S
N364 C369 1.332 . S
C365 C366 1.386 . S
C365 C368 1.388 . S
C366 C365 1.386 . S
C366 C367 1.382 . S
C366 H392 0.950 . S
C367 N364 1.332 . S
C367 C366 1.382 . S
C367 H378 0.952 . S
C368 C365 1.388 . S
C368 C369 1.382 . S
C368 H393 0.950 . S
C369 N364 1.332 . S
C369 C368 1.382 . S
C369 H379 0.948 . S
N370 Co348 2.282 1_565 S
N370 C374 1.332 . S
N370 C375 1.332 . S
C371 C372 1.388 . S
C371 C375 1.382 . S
C371 H394 0.950 . S
C372 C371 1.388 . S
C372 C373 1.386 . S
C373 C372 1.386 . S
C373 C374 1.382 . S
C373 H395 0.950 . S
C374 N370 1.332 . S
C374 C373 1.382 . S
C374 H376 0.952 . S
C375 N370 1.332 . S
C375 C371 1.382 . S
C375 H377 0.948 . S
H376 C374 0.952 . S
H377 C375 0.948 . S
H378 C367 0.952 . S
H379 C369 0.948 . S
C380 C346 1.395 1_545 S
C380 C350 1.391 . S
C381 C343 1.389 . S
C381 C363 1.392 . S
C382 C353 1.392 . S
C382 C355 1.389 . S
C383 C358 1.395 . S
C383 C360 1.391 1_545 S
H384 C344 0.951 . S
H385 C345 0.950 . S
H386 C351 0.949 . S
H387 C352 0.950 . S
H388 C356 0.951 . S
H389 C357 0.950 . S
H390 C361 0.949 . S
H391 C362 0.950 . S
H392 C366 0.950 . S
H393 C368 0.950 . S
H394 C371 0.950 . S
H395 C373 0.950 . S
C396 C397 1.443 . S
C396 N400 1.376 . S
C396 C434 1.389 . S
C397 C396 1.443 . S
C397 C398 1.340 . S
C397 H437 0.951 . S
C398 C397 1.340 . S
C398 C399 1.439 . S
C398 H438 0.950 . S
C399 C398 1.439 . S
C399 N400 1.374 . S
C399 C433 1.395 1_554 S
N400 C396 1.376 . S
N400 C399 1.374 . S
N400 Co401 2.008 . S
Co401 N400 2.008 . S
Co401 N402 1.995 1_554 S
Co401 N407 2.008 1_554 S
Co401 N412 1.995 . S
Co401 N417 2.282 . S
Co401 N423 2.282 1_554 S
N402 Co401 1.995 1_556 S
N402 C403 1.376 . S
N402 C406 1.383 . S
C403 N402 1.376 . S
C403 C404 1.446 . S
C403 C433 1.391 . S
C404 C403 1.446 . S
C404 C405 1.339 . S
C404 H439 0.949 . S
C405 C404 1.339 . S
C405 C406 1.439 . S
C405 H440 0.950 . S
C406 N402 1.383 . S
C406 C405 1.439 . S
C406 C435 1.392 . S
N407 Co401 2.008 1_556 S
N407 C408 1.376 . S
N407 C411 1.374 . S
C408 N407 1.376 . S
C408 C409 1.443 . S
C408 C435 1.389 . S
C409 C408 1.443 . S
C409 C410 1.340 . S
C409 H441 0.951 . S
C410 C409 1.340 . S
C410 C411 1.439 . S
C410 H442 0.950 . S
C411 N407 1.374 . S
C411 C410 1.439 . S
C411 C436 1.395 1_556 S
N412 Co401 1.995 . S
N412 C413 1.376 . S
N412 C416 1.383 . S
C413 N412 1.376 . S
C413 C414 1.446 . S
C413 C436 1.391 . S
C414 C413 1.446 . S
C414 C415 1.339 . S
C414 H443 0.949 . S
C415 C414 1.339 . S
C415 C416 1.439 . S
C415 H444 0.950 . S
C416 N412 1.383 . S
C416 C415 1.439 . S
C416 C434 1.392 . S
N417 Co401 2.282 . S
N417 C420 1.332 . S
N417 C422 1.332 . S
C418 C419 1.386 . S
C418 C421 1.388 . S
C419 C418 1.386 . S
C419 C420 1.382 . S
C419 H445 0.950 . S
C420 N417 1.332 . S
C420 C419 1.382 . S
C420 H431 0.952 . S
C421 C418 1.388 . S
C421 C422 1.382 . S
C421 H446 0.950 . S
C422 N417 1.332 . S
C422 C421 1.382 . S
C422 H432 0.948 . S
N423 Co401 2.282 1_556 S
N423 C427 1.332 . S
N423 C428 1.332 . S
C424 C425 1.388 . S
C424 C428 1.382 . S
C424 H447 0.950 . S
C425 C424 1.388 . S
C425 C426 1.386 . S
C426 C425 1.386 . S
C426 C427 1.382 . S
C426 H448 0.950 . S
C427 N423 1.332 . S
C427 C426 1.382 . S
C427 H429 0.952 . S
C428 N423 1.332 . S
C428 C424 1.382 . S
C428 H430 0.948 . S
H429 C427 0.952 . S
H430 C428 0.948 . S
H431 C420 0.952 . S
H432 C422 0.948 . S
C433 C399 1.395 1_556 S
C433 C403 1.391 . S
C434 C396 1.389 . S
C434 C416 1.392 . S
C435 C406 1.392 . S
C435 C408 1.389 . S
C436 C411 1.395 1_554 S
C436 C413 1.391 . S
H437 C397 0.951 . S
H438 C398 0.950 . S
H439 C404 0.949 . S
H440 C405 0.950 . S
H441 C409 0.951 . S
H442 C410 0.950 . S
H443 C414 0.949 . S
H444 C415 0.950 . S
H445 C419 0.950 . S
H446 C421 0.950 . S
H447 C424 0.950 . S
H448 C426 0.950 . S
C449 C450 1.443 . S
C449 N453 1.376 . S
C449 C487 1.389 . S
C450 C449 1.443 . S
C450 C451 1.340 . S
C450 H490 0.951 . S
C451 C450 1.340 . S
C451 C452 1.439 . S
C451 H491 0.950 . S
C452 C451 1.439 . S
C452 N453 1.374 . S
C452 C486 1.395 . S
N453 C449 1.376 . S
N453 C452 1.374 . S
N453 Co454 2.008 . S
Co454 N453 2.008 . S
Co454 N455 1.995 1_554 S
Co454 N460 2.008 1_554 S
Co454 N465 1.995 . S
Co454 N470 2.282 . S
Co454 N476 2.282 1_554 S
N455 Co454 1.995 1_556 S
N455 C456 1.376 . S
N455 C459 1.383 . S
C456 N455 1.376 . S
C456 C457 1.446 . S
C456 C486 1.391 1_556 S
C457 C456 1.446 . S
C457 C458 1.339 . S
C457 H492 0.949 . S
C458 C457 1.339 . S
C458 C459 1.439 . S
C458 H493 0.950 . S
C459 N455 1.383 . S
C459 C458 1.439 . S
C459 C488 1.392 . S
N460 Co454 2.008 1_556 S
N460 C461 1.376 . S
N460 C464 1.374 1_556 S
C461 N460 1.376 . S
C461 C462 1.443 . S
C461 C488 1.389 . S
C462 C461 1.443 . S
C462 C463 1.340 . S
C462 H494 0.951 . S
C463 C462 1.340 . S
C463 C464 1.439 1_556 S
C463 H495 0.950 . S
C464 N460 1.374 1_554 S
C464 C463 1.439 1_554 S
C464 C489 1.395 . S
N465 Co454 1.995 . S
N465 C466 1.376 . S
N465 C469 1.383 . S
C466 N465 1.376 . S
C466 C467 1.446 . S
C466 C489 1.391 . S
C467 C466 1.446 . S
C467 C468 1.339 . S
C467 H496 0.949 . S
C468 C467 1.339 . S
C468 C469 1.439 . S
C468 H497 0.950 . S
C469 N465 1.383 . S
C469 C468 1.439 . S
C469 C487 1.392 . S
N470 Co454 2.282 . S
N470 C473 1.332 . S
N470 C475 1.332 . S
C471 C472 1.386 . S
C471 C474 1.388 . S
C472 C471 1.386 . S
C472 C473 1.382 . S
C472 H498 0.950 . S
C473 N470 1.332 . S
C473 C472 1.382 . S
C473 H484 0.952 . S
C474 C471 1.388 . S
C474 C475 1.382 . S
C474 H499 0.950 . S
C475 N470 1.332 . S
C475 C474 1.382 . S
C475 H485 0.948 . S
N476 Co454 2.282 1_556 S
N476 C480 1.332 . S
N476 C481 1.332 . S
C477 C478 1.388 . S
C477 C481 1.382 . S
C477 H500 0.950 . S
C478 C477 1.388 . S
C478 C479 1.386 . S
C479 C478 1.386 . S
C479 C480 1.382 . S
C479 H501 0.950 . S
C480 N476 1.332 . S
C480 C479 1.382 . S
C480 H482 0.952 . S
C481 N476 1.332 . S
C481 C477 1.382 . S
C481 H483 0.948 . S
H482 C480 0.952 . S
H483 C481 0.948 . S
H484 C473 0.952 . S
H485 C475 0.948 . S
C486 C452 1.395 . S
C486 C456 1.391 1_554 S
C487 C449 1.389 . S
C487 C469 1.392 . S
C488 C459 1.392 . S
C488 C461 1.389 . S
C489 C464 1.395 . S
C489 C466 1.391 . S
H490 C450 0.951 . S
H491 C451 0.950 . S
H492 C457 0.949 . S
H493 C458 0.950 . S
H494 C462 0.951 . S
H495 C463 0.950 . S
H496 C467 0.949 . S
H497 C468 0.950 . S
H498 C472 0.950 . S
H499 C474 0.950 . S
H500 C477 0.950 . S
H501 C479 0.950 . S
C502 C503 1.443 . S
C502 N506 1.376 1_556 S
C502 C540 1.389 . S
C503 C502 1.443 . S
C503 C504 1.340 1_556 S
C503 H543 0.951 . S
C504 C503 1.340 1_554 S
C504 C505 1.439 . S
C504 H544 0.950 . S
C505 C504 1.439 . S
C505 N506 1.374 . S
C505 C539 1.395 . S
N506 C502 1.376 1_554 S
N506 C505 1.374 . S
N506 Co507 2.008 . S
Co507 N506 2.008 . S
Co507 N508 1.995 . S
Co507 N513 2.008 . S
Co507 N518 1.995 . S
Co507 N523 2.282 1_554 S
Co507 N529 2.282 . S
N508 Co507 1.995 . S
N508 C509 1.376 . S
N508 C512 1.383 . S
C509 N508 1.376 . S
C509 C510 1.446 . S
C509 C539 1.391 . S
C510 C509 1.446 . S
C510 C511 1.339 . S
C510 H545 0.949 . S
C511 C510 1.339 . S
C511 C512 1.439 . S
C511 H546 0.950 . S
C512 N508 1.383 . S
C512 C511 1.439 . S
C512 C541 1.392 . S
N513 Co507 2.008 . S
N513 C514 1.376 . S
N513 C517 1.374 . S
C514 N513 1.376 . S
C514 C515 1.443 . S
C514 C541 1.389 . S
C515 C514 1.443 . S
C515 C516 1.340 . S
C515 H547 0.951 . S
C516 C515 1.340 . S
C516 C517 1.439 . S
C516 H548 0.950 . S
C517 N513 1.374 . S
C517 C516 1.439 . S
C517 C542 1.395 . S
N518 Co507 1.995 . S
N518 C519 1.376 . S
N518 C522 1.383 1_554 S
C519 N518 1.376 . S
C519 C520 1.446 1_554 S
C519 C542 1.391 . S
C520 C519 1.446 1_556 S
C520 C521 1.339 . S
C520 H549 0.949 . S
C521 C520 1.339 . S
C521 C522 1.439 . S
C521 H550 0.950 . S
C522 N518 1.383 1_556 S
C522 C521 1.439 . S
C522 C540 1.392 . S
N523 Co507 2.282 1_556 S
N523 C526 1.332 . S
N523 C528 1.332 . S
C524 C525 1.386 . S
C524 C527 1.388 . S
C525 C524 1.386 . S
C525 C526 1.382 . S
C525 H551 0.950 . S
C526 N523 1.332 . S
C526 C525 1.382 . S
C526 H537 0.952 . S
C527 C524 1.388 . S
C527 C528 1.382 . S
C527 H552 0.950 . S
C528 N523 1.332 . S
C528 C527 1.382 . S
C528 H538 0.948 1_556 S
N529 Co507 2.282 . S
N529 C533 1.332 . S
N529 C534 1.332 . S
C530 C531 1.388 . S
C530 C534 1.382 . S
C530 H553 0.950 . S
C531 C530 1.388 . S
C531 C532 1.386 . S
C532 C531 1.386 . S
C532 C533 1.382 . S
C532 H554 0.950 . S
C533 N529 1.332 . S
C533 C532 1.382 . S
C533 H535 0.952 . S
C534 N529 1.332 . S
C534 C530 1.382 . S
C534 H536 0.948 . S
H535 C533 0.952 . S
H536 C534 0.948 . S
H537 C526 0.952 . S
H538 C528 0.948 1_554 S
C539 C505 1.395 . S
C539 C509 1.391 . S
C540 C502 1.389 . S
C540 C522 1.392 . S
C541 C512 1.392 . S
C541 C514 1.389 . S
C542 C517 1.395 . S
C542 C519 1.391 . S
H543 C503 0.951 . S
H544 C504 0.950 . S
H545 C510 0.949 . S
H546 C511 0.950 . S
H547 C515 0.951 . S
H548 C516 0.950 . S
H549 C520 0.949 . S
H550 C521 0.950 . S
H551 C525 0.950 . S
H552 C527 0.950 . S
H553 C530 0.950 . S
H554 C532 0.950 . S
C555 C556 1.443 . S
C555 N559 1.376 . S
C555 C593 1.389 . S
C556 C555 1.443 . S
C556 C557 1.340 . S
C556 H596 0.951 . S
C557 C556 1.340 . S
C557 C558 1.439 . S
C557 H597 0.950 . S
C558 C557 1.439 . S
C558 N559 1.374 . S
C558 C592 1.395 1_554 S
N559 C555 1.376 . S
N559 C558 1.374 . S
N559 Co560 2.008 . S
Co560 N559 2.008 . S
Co560 N561 1.995 1_554 S
Co560 N566 2.008 1_554 S
Co560 N571 1.995 . S
Co560 N576 2.282 . S
Co560 N582 2.282 1_554 S
N561 Co560 1.995 1_556 S
N561 C562 1.376 . S
N561 C565 1.383 . S
C562 N561 1.376 . S
C562 C563 1.446 . S
C562 C592 1.391 . S
C563 C562 1.446 . S
C563 C564 1.339 . S
C563 H598 0.949 . S
C564 C563 1.339 . S
C564 C565 1.439 . S
C564 H599 0.950 . S
C565 N561 1.383 . S
C565 C564 1.439 . S
C565 C594 1.392 . S
N566 Co560 2.008 1_556 S
N566 C567 1.376 . S
N566 C570 1.374 1_556 S
C567 N566 1.376 . S
C567 C568 1.443 . S
C567 C594 1.389 . S
C568 C567 1.443 . S
C568 C569 1.340 . S
C568 H600 0.951 . S
C569 C568 1.340 . S
C569 C570 1.439 1_556 S
C569 H601 0.950 . S
C570 N566 1.374 1_554 S
C570 C569 1.439 1_554 S
C570 C595 1.395 . S
N571 Co560 1.995 . S
N571 C572 1.376 . S
N571 C575 1.383 . S
C572 N571 1.376 . S
C572 C573 1.446 . S
C572 C595 1.391 . S
C573 C572 1.446 . S
C573 C574 1.339 . S
C573 H602 0.949 . S
C574 C573 1.339 . S
C574 C575 1.439 . S
C574 H603 0.950 . S
C575 N571 1.383 . S
C575 C574 1.439 . S
C575 C593 1.392 . S
N576 Co560 2.282 . S
N576 C579 1.332 . S
N576 C581 1.332 . S
C577 C578 1.386 . S
C577 C580 1.388 . S
C578 C577 1.386 . S
C578 C579 1.382 . S
C578 H604 0.950 . S
C579 N576 1.332 . S
C579 C578 1.382 . S
C579 H590 0.952 . S
C580 C577 1.388 . S
C580 C581 1.382 . S
C580 H605 0.950 . S
C581 N576 1.332 . S
C581 C580 1.382 . S
C581 H591 0.948 . S
N582 Co560 2.282 1_556 S
N582 C586 1.332 . S
N582 C587 1.332 . S
C583 C584 1.388 . S
C583 C587 1.382 . S
C583 H606 0.950 . S
C584 C583 1.388 . S
C584 C585 1.386 . S
C585 C584 1.386 . S
C585 C586 1.382 . S
C585 H607 0.950 . S
C586 N582 1.332 . S
C586 C585 1.382 . S
C586 H588 0.952 . S
C587 N582 1.332 . S
C587 C583 1.382 . S
C587 H589 0.948 . S
H588 C586 0.952 . S
H589 C587 0.948 . S
H590 C579 0.952 . S
H591 C581 0.948 . S
C592 C558 1.395 1_556 S
C592 C562 1.391 . S
C593 C555 1.389 . S
C593 C575 1.392 . S
C594 C565 1.392 . S
C594 C567 1.389 . S
C595 C570 1.395 . S
C595 C572 1.391 . S
H596 C556 0.951 . S
H597 C557 0.950 . S
H598 C563 0.949 . S
H599 C564 0.950 . S
H600 C568 0.951 . S
H601 C569 0.950 . S
H602 C573 0.949 . S
H603 C574 0.950 . S
H604 C578 0.950 . S
H605 C580 0.950 . S
H606 C583 0.950 . S
H607 C585 0.950 . S
C608 C609 1.391 . S
C608 C610 1.394 . S
C608 H624 0.931 . S
C609 C608 1.391 . S
C609 C613 1.376 . S
C610 C608 1.394 . S
C610 C611 1.369 . S
C610 C614 1.531 . S
C611 C610 1.369 . S
C611 C612 1.410 . S
C611 C619 1.503 . S
C612 C611 1.410 . S
C612 C613 1.392 . S
C612 C615 1.511 . S
C613 C609 1.376 . S
C613 C612 1.392 . S
C613 H625 0.929 . S
C614 C610 1.531 . S
C614 H626 0.960 . S
C614 H627 0.962 . S
C614 H628 0.960 . S
C615 C612 1.511 . S
C615 H629 0.961 . S
C615 H630 0.961 . S
C615 H631 0.961 . S
C616 C617 1.370 . S
C616 C618 1.363 . S
C616 H632 0.931 . S
C617 C616 1.370 . S
C617 C621 1.408 . S
C618 C616 1.363 . S
C618 C619 1.370 . S
C618 C622 1.524 . S
C619 C611 1.503 . S
C619 C618 1.370 . S
C619 C620 1.403 . S
C620 C619 1.403 . S
C620 C621 1.404 . S
C620 C623 1.539 . S
C621 C617 1.408 . S
C621 C620 1.404 . S
C621 H633 0.930 . S
C622 C618 1.524 . S
C622 H634 0.956 . S
C622 H635 0.961 . S
C622 H636 0.961 . S
C623 C620 1.539 . S
C623 H637 0.958 . S
C623 H638 0.961 . S
C623 H639 0.960 . S
H624 C608 0.931 . S
H625 C613 0.929 . S
H626 C614 0.960 . S
H627 C614 0.962 . S
H628 C614 0.960 . S
H629 C615 0.961 . S
H630 C615 0.961 . S
H631 C615 0.961 . S
H632 C616 0.931 . S
H633 C621 0.930 . S
H634 C622 0.956 . S
H635 C622 0.961 . S
H636 C622 0.961 . S
H637 C623 0.958 . S
H638 C623 0.961 . S
H639 C623 0.960 . S
C640 C641 1.391 . S
C640 C642 1.394 . S
C640 H656 0.931 . S
C641 C640 1.391 . S
C641 C645 1.376 . S
C642 C640 1.394 . S
C642 C643 1.369 . S
C642 C646 1.531 . S
C643 C642 1.369 . S
C643 C644 1.410 . S
C643 C651 1.503 . S
C644 C643 1.410 . S
C644 C645 1.392 . S
C644 C647 1.511 . S
C645 C641 1.376 . S
C645 C644 1.392 . S
C645 H657 0.929 . S
C646 C642 1.531 . S
C646 H658 0.960 . S
C646 H659 0.962 . S
C646 H660 0.960 . S
C647 C644 1.511 . S
C647 H661 0.961 . S
C647 H662 0.961 . S
C647 H663 0.961 . S
C648 C649 1.370 . S
C648 C650 1.363 . S
C648 H664 0.931 . S
C649 C648 1.370 . S
C649 C653 1.408 . S
C650 C648 1.363 . S
C650 C651 1.370 . S
C650 C654 1.524 . S
C651 C643 1.503 . S
C651 C650 1.370 . S
C651 C652 1.403 . S
C652 C651 1.403 . S
C652 C653 1.404 . S
C652 C655 1.539 . S
C653 C649 1.408 . S
C653 C652 1.404 . S
C653 H665 0.930 . S
C654 C650 1.524 . S
C654 H666 0.956 . S
C654 H667 0.961 . S
C654 H668 0.961 . S
C655 C652 1.539 . S
C655 H669 0.958 . S
C655 H670 0.961 . S
C655 H671 0.960 . S
H656 C640 0.931 . S
H657 C645 0.929 . S
H658 C646 0.960 . S
H659 C646 0.962 . S
H660 C646 0.960 . S
H661 C647 0.961 . S
H662 C647 0.961 . S
H663 C647 0.961 . S
H664 C648 0.931 . S
H665 C653 0.930 . S
H666 C654 0.956 . S
H667 C654 0.961 . S
H668 C654 0.961 . S
H669 C655 0.958 . S
H670 C655 0.961 . S
H671 C655 0.960 . S
C672 C673 1.391 . S
C672 C674 1.394 . S
C672 H688 0.931 . S
C673 C672 1.391 . S
C673 C677 1.376 . S
C674 C672 1.394 . S
C674 C675 1.369 . S
C674 C678 1.531 . S
C675 C674 1.369 . S
C675 C676 1.410 . S
C675 C683 1.503 . S
C676 C675 1.410 . S
C676 C677 1.392 . S
C676 C679 1.511 . S
C677 C673 1.376 . S
C677 C676 1.392 . S
C677 H689 0.929 . S
C678 C674 1.531 . S
C678 H690 0.960 . S
C678 H691 0.962 . S
C678 H692 0.960 . S
C679 C676 1.511 . S
C679 H693 0.961 . S
C679 H694 0.961 . S
C679 H695 0.961 . S
C680 C681 1.370 . S
C680 C682 1.363 . S
C680 H696 0.931 . S
C681 C680 1.370 . S
C681 C685 1.408 . S
C682 C680 1.363 . S
C682 C683 1.370 . S
C682 C686 1.524 . S
C683 C675 1.503 . S
C683 C682 1.370 . S
C683 C684 1.403 . S
C684 C683 1.403 . S
C684 C685 1.404 . S
C684 C687 1.539 . S
C685 C681 1.408 . S
C685 C684 1.404 . S
C685 H697 0.930 . S
C686 C682 1.524 . S
C686 H698 0.956 . S
C686 H699 0.961 . S
C686 H700 0.961 . S
C687 C684 1.539 . S
C687 H701 0.958 . S
C687 H702 0.961 . S
C687 H703 0.960 . S
H688 C672 0.931 . S
H689 C677 0.929 . S
H690 C678 0.960 . S
H691 C678 0.962 . S
H692 C678 0.960 . S
H693 C679 0.961 . S
H694 C679 0.961 . S
H695 C679 0.961 . S
H696 C680 0.931 . S
H697 C685 0.930 . S
H698 C686 0.956 . S
H699 C686 0.961 . S
H700 C686 0.961 . S
H701 C687 0.958 . S
H702 C687 0.961 . S
H703 C687 0.960 . S
C704 C705 1.391 . S
C704 C706 1.394 . S
C704 H720 0.931 . S
C705 C704 1.391 . S
C705 C709 1.376 . S
C706 C704 1.394 . S
C706 C707 1.369 . S
C706 C710 1.531 . S
C707 C706 1.369 . S
C707 C708 1.410 . S
C707 C715 1.503 . S
C708 C707 1.410 . S
C708 C709 1.392 . S
C708 C711 1.511 . S
C709 C705 1.376 . S
C709 C708 1.392 . S
C709 H721 0.929 . S
C710 C706 1.531 . S
C710 H722 0.960 . S
C710 H723 0.962 . S
C710 H724 0.960 . S
C711 C708 1.511 . S
C711 H725 0.961 . S
C711 H726 0.961 . S
C711 H727 0.961 . S
C712 C713 1.370 . S
C712 C714 1.363 . S
C712 H728 0.931 . S
C713 C712 1.370 . S
C713 C717 1.408 . S
C714 C712 1.363 . S
C714 C715 1.370 . S
C714 C718 1.524 . S
C715 C707 1.503 . S
C715 C714 1.370 . S
C715 C716 1.403 . S
C716 C715 1.403 . S
C716 C717 1.404 . S
C716 C719 1.539 . S
C717 C713 1.408 . S
C717 C716 1.404 . S
C717 H729 0.930 . S
C718 C714 1.524 . S
C718 H730 0.956 . S
C718 H731 0.961 . S
C718 H732 0.961 . S
C719 C716 1.539 . S
C719 H733 0.958 . S
C719 H734 0.961 . S
C719 H735 0.960 . S
H720 C704 0.931 . S
H721 C709 0.929 . S
H722 C710 0.960 . S
H723 C710 0.962 . S
H724 C710 0.960 . S
H725 C711 0.961 . S
H726 C711 0.961 . S
H727 C711 0.961 . S
H728 C712 0.931 . S
H729 C717 0.930 . S
H730 C718 0.956 . S
H731 C718 0.961 . S
H732 C718 0.961 . S
H733 C719 0.958 . S
H734 C719 0.961 . S
H735 C719 0.960 . S
C736 C737 1.391 . S
C736 C738 1.394 . S
C736 H752 0.931 . S
C737 C736 1.391 . S
C737 C741 1.376 . S
C738 C736 1.394 . S
C738 C739 1.369 . S
C738 C742 1.531 . S
C739 C738 1.369 . S
C739 C740 1.410 . S
C739 C747 1.503 . S
C740 C739 1.410 . S
C740 C741 1.392 . S
C740 C743 1.511 . S
C741 C737 1.376 . S
C741 C740 1.392 . S
C741 H753 0.929 . S
C742 C738 1.531 . S
C742 H754 0.960 . S
C742 H755 0.962 . S
C742 H756 0.960 . S
C743 C740 1.511 . S
C743 H757 0.961 . S
C743 H758 0.961 . S
C743 H759 0.961 . S
C744 C745 1.370 . S
C744 C746 1.363 . S
C744 H760 0.931 . S
C745 C744 1.370 . S
C745 C749 1.408 . S
C746 C744 1.363 . S
C746 C747 1.370 . S
C746 C750 1.524 . S
C747 C739 1.503 . S
C747 C746 1.370 . S
C747 C748 1.403 . S
C748 C747 1.403 . S
C748 C749 1.404 . S
C748 C751 1.539 . S
C749 C745 1.408 . S
C749 C748 1.404 . S
C749 H761 0.930 . S
C750 C746 1.524 . S
C750 H762 0.956 . S
C750 H763 0.961 . S
C750 H764 0.961 . S
C751 C748 1.539 . S
C751 H765 0.958 . S
C751 H766 0.961 . S
C751 H767 0.960 . S
H752 C736 0.931 . S
H753 C741 0.929 . S
H754 C742 0.960 . S
H755 C742 0.962 . S
H756 C742 0.960 . S
H757 C743 0.961 . S
H758 C743 0.961 . S
H759 C743 0.961 . S
H760 C744 0.931 . S
H761 C749 0.930 . S
H762 C750 0.956 . S
H763 C750 0.961 . S
H764 C750 0.961 . S
H765 C751 0.958 . S
H766 C751 0.961 . S
H767 C751 0.960 . S
C768 C769 1.391 . S
C768 C770 1.394 . S
C768 H784 0.931 . S
C769 C768 1.391 . S
C769 C773 1.376 . S
C770 C768 1.394 . S
C770 C771 1.369 . S
C770 C774 1.531 . S
C771 C770 1.369 . S
C771 C772 1.410 . S
C771 C779 1.503 . S
C772 C771 1.410 . S
C772 C773 1.392 . S
C772 C775 1.511 . S
C773 C769 1.376 . S
C773 C772 1.392 . S
C773 H785 0.929 . S
C774 C770 1.531 . S
C774 H786 0.960 . S
C774 H787 0.962 . S
C774 H788 0.960 . S
C775 C772 1.511 . S
C775 H789 0.961 . S
C775 H790 0.961 . S
C775 H791 0.961 . S
C776 C777 1.370 . S
C776 C778 1.363 . S
C776 H792 0.931 . S
C777 C776 1.370 . S
C777 C781 1.408 . S
C778 C776 1.363 . S
C778 C779 1.370 . S
C778 C782 1.524 . S
C779 C771 1.503 . S
C779 C778 1.370 . S
C779 C780 1.403 . S
C780 C779 1.403 . S
C780 C781 1.404 . S
C780 C783 1.539 . S
C781 C777 1.408 . S
C781 C780 1.404 . S
C781 H793 0.930 . S
C782 C778 1.524 . S
C782 H794 0.956 . S
C782 H795 0.961 . S
C782 H796 0.961 . S
C783 C780 1.539 . S
C783 H797 0.958 . S
C783 H798 0.961 . S
C783 H799 0.960 . S
H784 C768 0.931 . S
H785 C773 0.929 . S
H786 C774 0.960 . S
H787 C774 0.962 . S
H788 C774 0.960 . S
H789 C775 0.961 . S
H790 C775 0.961 . S
H791 C775 0.961 . S
H792 C776 0.931 . S
H793 C781 0.930 . S
H794 C782 0.956 . S
H795 C782 0.961 . S
H796 C782 0.961 . S
H797 C783 0.958 . S
H798 C783 0.961 . S
H799 C783 0.960 . S
C800 C801 1.391 . S
C800 C802 1.394 . S
C800 H816 0.931 . S
C801 C800 1.391 . S
C801 C805 1.376 . S
C802 C800 1.394 . S
C802 C803 1.369 . S
C802 C806 1.531 . S
C803 C802 1.369 . S
C803 C804 1.410 . S
C803 C811 1.503 . S
C804 C803 1.410 . S
C804 C805 1.392 . S
C804 C807 1.511 . S
C805 C801 1.376 . S
C805 C804 1.392 . S
C805 H817 0.929 . S
C806 C802 1.531 . S
C806 H818 0.960 . S
C806 H819 0.962 . S
C806 H820 0.960 . S
C807 C804 1.511 . S
C807 H821 0.961 . S
C807 H822 0.961 . S
C807 H823 0.961 . S
C808 C809 1.370 . S
C808 C810 1.363 . S
C808 H824 0.931 . S
C809 C808 1.370 . S
C809 C813 1.408 . S
C810 C808 1.363 . S
C810 C811 1.370 . S
C810 C814 1.524 . S
C811 C803 1.503 . S
C811 C810 1.370 . S
C811 C812 1.403 . S
C812 C811 1.403 . S
C812 C813 1.404 . S
C812 C815 1.539 . S
C813 C809 1.408 . S
C813 C812 1.404 . S
C813 H825 0.930 . S
C814 C810 1.524 . S
C814 H826 0.956 . S
C814 H827 0.961 . S
C814 H828 0.961 . S
C815 C812 1.539 . S
C815 H829 0.958 . S
C815 H830 0.961 . S
C815 H831 0.960 . S
H816 C800 0.931 . S
H817 C805 0.929 . S
H818 C806 0.960 . S
H819 C806 0.962 . S
H820 C806 0.960 . S
H821 C807 0.961 . S
H822 C807 0.961 . S
H823 C807 0.961 . S
H824 C808 0.931 . S
H825 C813 0.930 . S
H826 C814 0.956 . S
H827 C814 0.961 . S
H828 C814 0.961 . S
H829 C815 0.958 . S
H830 C815 0.961 . S
H831 C815 0.960 . S
C832 C833 1.391 . S
C832 C834 1.394 . S
C832 H848 0.931 . S
C833 C832 1.391 . S
C833 C837 1.376 . S
C834 C832 1.394 . S
C834 C835 1.369 . S
C834 C838 1.531 . S
C835 C834 1.369 . S
C835 C836 1.410 . S
C835 C843 1.503 . S
C836 C835 1.410 . S
C836 C837 1.392 . S
C836 C839 1.511 . S
C837 C833 1.376 . S
C837 C836 1.392 . S
C837 H849 0.929 . S
C838 C834 1.531 . S
C838 H850 0.960 . S
C838 H851 0.962 . S
C838 H852 0.960 . S
C839 C836 1.511 . S
C839 H853 0.961 . S
C839 H854 0.961 . S
C839 H855 0.961 . S
C840 C841 1.370 . S
C840 C842 1.363 . S
C840 H856 0.931 . S
C841 C840 1.370 . S
C841 C845 1.408 . S
C842 C840 1.363 . S
C842 C843 1.370 . S
C842 C846 1.524 . S
C843 C835 1.503 . S
C843 C842 1.370 . S
C843 C844 1.403 . S
C844 C843 1.403 . S
C844 C845 1.404 . S
C844 C847 1.539 . S
C845 C841 1.408 . S
C845 C844 1.404 . S
C845 H857 0.930 . S
C846 C842 1.524 . S
C846 H858 0.956 . S
C846 H859 0.961 . S
C846 H860 0.961 . S
C847 C844 1.539 . S
C847 H861 0.958 . S
C847 H862 0.961 . S
C847 H863 0.960 . S
H848 C832 0.931 . S
H849 C837 0.929 . S
H850 C838 0.960 . S
H851 C838 0.962 . S
H852 C838 0.960 . S
H853 C839 0.961 . S
H854 C839 0.961 . S
H855 C839 0.961 . S
H856 C840 0.931 . S
H857 C845 0.930 . S
H858 C846 0.956 . S
H859 C846 0.961 . S
H860 C846 0.961 . S
H861 C847 0.958 . S
H862 C847 0.961 . S
H863 C847 0.960 . S
C864 C865 1.391 . S
C864 C866 1.394 . S
C864 H880 0.931 . S
C865 C864 1.391 . S
C865 C869 1.376 . S
C866 C864 1.394 . S
C866 C867 1.369 . S
C866 C870 1.531 . S
C867 C866 1.369 . S
C867 C868 1.410 . S
C867 C875 1.503 . S
C868 C867 1.410 . S
C868 C869 1.392 . S
C868 C871 1.511 . S
C869 C865 1.376 . S
C869 C868 1.392 . S
C869 H881 0.929 . S
C870 C866 1.531 . S
C870 H882 0.960 . S
C870 H883 0.962 . S
C870 H884 0.960 . S
C871 C868 1.511 . S
C871 H885 0.961 . S
C871 H886 0.961 . S
C871 H887 0.961 . S
C872 C873 1.370 . S
C872 C874 1.363 . S
C872 H888 0.931 . S
C873 C872 1.370 . S
C873 C877 1.408 . S
C874 C872 1.363 . S
C874 C875 1.370 . S
C874 C878 1.524 . S
C875 C867 1.503 . S
C875 C874 1.370 . S
C875 C876 1.403 . S
C876 C875 1.403 . S
C876 C877 1.404 . S
C876 C879 1.539 . S
C877 C873 1.408 . S
C877 C876 1.404 . S
C877 H889 0.930 . S
C878 C874 1.524 . S
C878 H890 0.956 . S
C878 H891 0.961 . S
C878 H892 0.961 . S
C879 C876 1.539 . S
C879 H893 0.958 . S
C879 H894 0.961 . S
C879 H895 0.960 . S
H880 C864 0.931 . S
H881 C869 0.929 . S
H882 C870 0.960 . S
H883 C870 0.962 . S
H884 C870 0.960 . S
H885 C871 0.961 . S
H886 C871 0.961 . S
H887 C871 0.961 . S
H888 C872 0.931 . S
H889 C877 0.930 . S
H890 C878 0.956 . S
H891 C878 0.961 . S
H892 C878 0.961 . S
H893 C879 0.958 . S
H894 C879 0.961 . S
H895 C879 0.960 . S
C896 C897 1.391 . S
C896 C898 1.394 . S
C896 H912 0.931 . S
C897 C896 1.391 . S
C897 C901 1.376 . S
C898 C896 1.394 . S
C898 C899 1.369 . S
C898 C902 1.531 . S
C899 C898 1.369 . S
C899 C900 1.410 . S
C899 C907 1.503 . S
C900 C899 1.410 . S
C900 C901 1.392 . S
C900 C903 1.511 . S
C901 C897 1.376 . S
C901 C900 1.392 . S
C901 H913 0.929 . S
C902 C898 1.531 . S
C902 H914 0.960 . S
C902 H915 0.962 . S
C902 H916 0.960 . S
C903 C900 1.511 . S
C903 H917 0.961 . S
C903 H918 0.961 . S
C903 H919 0.961 . S
C904 C905 1.370 . S
C904 C906 1.363 . S
C904 H920 0.931 . S
C905 C904 1.370 . S
C905 C909 1.408 . S
C906 C904 1.363 . S
C906 C907 1.370 . S
C906 C910 1.524 . S
C907 C899 1.503 . S
C907 C906 1.370 . S
C907 C908 1.403 . S
C908 C907 1.403 . S
C908 C909 1.404 . S
C908 C911 1.539 . S
C909 C905 1.408 . S
C909 C908 1.404 . S
C909 H921 0.930 . S
C910 C906 1.524 . S
C910 H922 0.956 . S
C910 H923 0.961 . S
C910 H924 0.961 . S
C911 C908 1.539 . S
C911 H925 0.958 . S
C911 H926 0.961 . S
C911 H927 0.960 . S
H912 C896 0.931 . S
H913 C901 0.929 . S
H914 C902 0.960 . S
H915 C902 0.962 . S
H916 C902 0.960 . S
H917 C903 0.961 . S
H918 C903 0.961 . S
H919 C903 0.961 . S
H920 C904 0.931 . S
H921 C909 0.930 . S
H922 C910 0.956 . S
H923 C910 0.961 . S
H924 C910 0.961 . S
H925 C911 0.958 . S
H926 C911 0.961 . S
H927 C911 0.960 . S
C928 C929 1.391 . S
C928 C930 1.394 . S
C928 H944 0.931 . S
C929 C928 1.391 . S
C929 C933 1.376 . S
C930 C928 1.394 . S
C930 C931 1.369 . S
C930 C934 1.531 . S
C931 C930 1.369 . S
C931 C932 1.410 . S
C931 C939 1.503 . S
C932 C931 1.410 . S
C932 C933 1.392 . S
C932 C935 1.511 . S
C933 C929 1.376 . S
C933 C932 1.392 . S
C933 H945 0.929 . S
C934 C930 1.531 . S
C934 H946 0.960 . S
C934 H947 0.962 . S
C934 H948 0.960 . S
C935 C932 1.511 . S
C935 H949 0.961 . S
C935 H950 0.961 . S
C935 H951 0.961 . S
C936 C937 1.370 . S
C936 C938 1.363 . S
C936 H952 0.931 . S
C937 C936 1.370 . S
C937 C941 1.408 . S
C938 C936 1.363 . S
C938 C939 1.370 . S
C938 C942 1.524 . S
C939 C931 1.503 . S
C939 C938 1.370 . S
C939 C940 1.403 . S
C940 C939 1.403 . S
C940 C941 1.404 . S
C940 C943 1.539 . S
C941 C937 1.408 . S
C941 C940 1.404 . S
C941 H953 0.930 . S
C942 C938 1.524 . S
C942 H954 0.956 . S
C942 H955 0.961 . S
C942 H956 0.961 . S
C943 C940 1.539 . S
C943 H957 0.958 . S
C943 H958 0.961 . S
C943 H959 0.960 . S
H944 C928 0.931 . S
H945 C933 0.929 . S
H946 C934 0.960 . S
H947 C934 0.962 . S
H948 C934 0.960 . S
H949 C935 0.961 . S
H950 C935 0.961 . S
H951 C935 0.961 . S
H952 C936 0.931 . S
H953 C941 0.930 . S
H954 C942 0.956 . S
H955 C942 0.961 . S
H956 C942 0.961 . S
H957 C943 0.958 . S
H958 C943 0.961 . S
H959 C943 0.960 . S
C960 C961 1.391 . S
C960 C962 1.394 . S
C960 H976 0.931 . S
C961 C960 1.391 . S
C961 C965 1.376 . S
C962 C960 1.394 . S
C962 C963 1.369 . S
C962 C966 1.531 . S
C963 C962 1.369 . S
C963 C964 1.410 . S
C963 C971 1.503 . S
C964 C963 1.410 . S
C964 C965 1.392 . S
C964 C967 1.511 . S
C965 C961 1.376 . S
C965 C964 1.392 . S
C965 H977 0.929 . S
C966 C962 1.531 . S
C966 H978 0.960 . S
C966 H979 0.962 . S
C966 H980 0.960 . S
C967 C964 1.511 . S
C967 H981 0.961 . S
C967 H982 0.961 . S
C967 H983 0.961 . S
C968 C969 1.370 . S
C968 C970 1.363 . S
C968 H984 0.931 . S
C969 C968 1.370 . S
C969 C973 1.408 . S
C970 C968 1.363 . S
C970 C971 1.370 . S
C970 C974 1.524 . S
C971 C963 1.503 . S
C971 C970 1.370 . S
C971 C972 1.403 . S
C972 C971 1.403 . S
C972 C973 1.404 . S
C972 C975 1.539 . S
C973 C969 1.408 . S
C973 C972 1.404 . S
C973 H985 0.930 . S
C974 C970 1.524 . S
C974 H986 0.956 . S
C974 H987 0.961 . S
C974 H988 0.961 . S
C975 C972 1.539 . S
C975 H989 0.958 . S
C975 H990 0.961 . S
C975 H991 0.960 . S
H976 C960 0.931 . S
H977 C965 0.929 . S
H978 C966 0.960 . S
H979 C966 0.962 . S
H980 C966 0.960 . S
H981 C967 0.961 . S
H982 C967 0.961 . S
H983 C967 0.961 . S
H984 C968 0.931 . S
H985 C973 0.930 . S
H986 C974 0.956 . S
H987 C974 0.961 . S
H988 C974 0.961 . S
H989 C975 0.958 . S
H990 C975 0.961 . S
H991 C975 0.960 . S
C992 C993 1.391 . S
C992 C994 1.394 . S
C992 H1008 0.931 . S
C993 C992 1.391 . S
C993 C997 1.376 . S
C994 C992 1.394 . S
C994 C995 1.369 . S
C994 C998 1.531 . S
C995 C994 1.369 . S
C995 C996 1.410 . S
C995 C1003 1.503 . S
C996 C995 1.410 . S
C996 C997 1.392 . S
C996 C999 1.511 . S
C997 C993 1.376 . S
C997 C996 1.392 . S
C997 H1009 0.929 . S
C998 C994 1.531 . S
C998 H1010 0.960 . S
C998 H1011 0.962 . S
C998 H1012 0.960 . S
C999 C996 1.511 . S
C999 H1013 0.961 . S
C999 H1014 0.961 . S
C999 H1015 0.961 . S
C1000 C1001 1.370 . S
C1000 C1002 1.363 . S
C1000 H1016 0.931 . S
C1001 C1000 1.370 . S
C1001 C1005 1.408 . S
C1002 C1000 1.363 . S
C1002 C1003 1.370 . S
C1002 C1006 1.524 . S
C1003 C995 1.503 . S
C1003 C1002 1.370 . S
C1003 C1004 1.403 . S
C1004 C1003 1.403 . S
C1004 C1005 1.404 . S
C1004 C1007 1.539 . S
C1005 C1001 1.408 . S
C1005 C1004 1.404 . S
C1005 H1017 0.930 . S
C1006 C1002 1.524 . S
C1006 H1018 0.956 . S
C1006 H1019 0.961 . S
C1006 H1020 0.961 . S
C1007 C1004 1.539 . S
C1007 H1021 0.958 . S
C1007 H1022 0.961 . S
C1007 H1023 0.960 . S
H1008 C992 0.931 . S
H1009 C997 0.929 . S
H1010 C998 0.960 . S
H1011 C998 0.962 . S
H1012 C998 0.960 . S
H1013 C999 0.961 . S
H1014 C999 0.961 . S
H1015 C999 0.961 . S
H1016 C1000 0.931 . S
H1017 C1005 0.930 . S
H1018 C1006 0.956 . S
H1019 C1006 0.961 . S
H1020 C1006 0.961 . S
H1021 C1007 0.958 . S
H1022 C1007 0.961 . S
H1023 C1007 0.960 . S
C1024 C1025 1.391 . S
C1024 C1026 1.394 . S
C1024 H1040 0.931 . S
C1025 C1024 1.391 . S
C1025 C1029 1.376 . S
C1026 C1024 1.394 . S
C1026 C1027 1.369 . S
C1026 C1030 1.531 . S
C1027 C1026 1.369 . S
C1027 C1028 1.410 . S
C1027 C1035 1.503 . S
C1028 C1027 1.410 . S
C1028 C1029 1.392 . S
C1028 C1031 1.511 . S
C1029 C1025 1.376 . S
C1029 C1028 1.392 . S
C1029 H1041 0.929 . S
C1030 C1026 1.531 . S
C1030 H1042 0.960 . S
C1030 H1043 0.962 . S
C1030 H1044 0.960 . S
C1031 C1028 1.511 . S
C1031 H1045 0.961 . S
C1031 H1046 0.961 . S
C1031 H1047 0.961 . S
C1032 C1033 1.370 . S
C1032 C1034 1.363 . S
C1032 H1048 0.931 . S
C1033 C1032 1.370 . S
C1033 C1037 1.408 . S
C1034 C1032 1.363 . S
C1034 C1035 1.370 . S
C1034 C1038 1.524 . S
C1035 C1027 1.503 . S
C1035 C1034 1.370 . S
C1035 C1036 1.403 . S
C1036 C1035 1.403 . S
C1036 C1037 1.404 . S
C1036 C1039 1.539 . S
C1037 C1033 1.408 . S
C1037 C1036 1.404 . S
C1037 H1049 0.930 . S
C1038 C1034 1.524 . S
C1038 H1050 0.956 . S
C1038 H1051 0.961 . S
C1038 H1052 0.961 . S
C1039 C1036 1.539 . S
C1039 H1053 0.958 . S
C1039 H1054 0.961 . S
C1039 H1055 0.960 . S
H1040 C1024 0.931 . S
H1041 C1029 0.929 . S
H1042 C1030 0.960 . S
H1043 C1030 0.962 . S
H1044 C1030 0.960 . S
H1045 C1031 0.961 . S
H1046 C1031 0.961 . S
H1047 C1031 0.961 . S
H1048 C1032 0.931 . S
H1049 C1037 0.930 . S
H1050 C1038 0.956 . S
H1051 C1038 0.961 . S
H1052 C1038 0.961 . S
H1053 C1039 0.958 . S
H1054 C1039 0.961 . S
H1055 C1039 0.960 . S
C1056 C1057 1.391 . S
C1056 C1058 1.394 . S
C1056 H1072 0.931 . S
C1057 C1056 1.391 . S
C1057 C1061 1.376 . S
C1058 C1056 1.394 . S
C1058 C1059 1.369 . S
C1058 C1062 1.531 . S
C1059 C1058 1.369 . S
C1059 C1060 1.410 . S
C1059 C1067 1.503 . S
C1060 C1059 1.410 . S
C1060 C1061 1.392 . S
C1060 C1063 1.511 . S
C1061 C1057 1.376 . S
C1061 C1060 1.392 . S
C1061 H1073 0.929 . S
C1062 C1058 1.531 . S
C1062 H1074 0.960 . S
C1062 H1075 0.962 . S
C1062 H1076 0.960 . S
C1063 C1060 1.511 . S
C1063 H1077 0.961 . S
C1063 H1078 0.961 . S
C1063 H1079 0.961 . S
C1064 C1065 1.370 . S
C1064 C1066 1.363 . S
C1064 H1080 0.931 . S
C1065 C1064 1.370 . S
C1065 C1069 1.408 . S
C1066 C1064 1.363 . S
C1066 C1067 1.370 . S
C1066 C1070 1.524 . S
C1067 C1059 1.503 . S
C1067 C1066 1.370 . S
C1067 C1068 1.403 . S
C1068 C1067 1.403 . S
C1068 C1069 1.404 . S
C1068 C1071 1.539 . S
C1069 C1065 1.408 . S
C1069 C1068 1.404 . S
C1069 H1081 0.930 . S
C1070 C1066 1.524 . S
C1070 H1082 0.956 . S
C1070 H1083 0.961 . S
C1070 H1084 0.961 . S
C1071 C1068 1.539 . S
C1071 H1085 0.958 . S
C1071 H1086 0.961 . S
C1071 H1087 0.960 . S
H1072 C1056 0.931 . S
H1073 C1061 0.929 . S
H1074 C1062 0.960 . S
H1075 C1062 0.962 . S
H1076 C1062 0.960 . S
H1077 C1063 0.961 . S
H1078 C1063 0.961 . S
H1079 C1063 0.961 . S
H1080 C1064 0.931 . S
H1081 C1069 0.930 . S
H1082 C1070 0.956 . S
H1083 C1070 0.961 . S
H1084 C1070 0.961 . S
H1085 C1071 0.958 . S
H1086 C1071 0.961 . S
H1087 C1071 0.960 . S
C1088 C1089 1.391 . S
C1088 C1090 1.394 . S
C1088 H1104 0.931 . S
C1089 C1088 1.391 . S
C1089 C1093 1.376 . S
C1090 C1088 1.394 . S
C1090 C1091 1.369 . S
C1090 C1094 1.531 . S
C1091 C1090 1.369 . S
C1091 C1092 1.410 . S
C1091 C1099 1.503 . S
C1092 C1091 1.410 . S
C1092 C1093 1.392 . S
C1092 C1095 1.511 . S
C1093 C1089 1.376 . S
C1093 C1092 1.392 . S
C1093 H1105 0.929 . S
C1094 C1090 1.531 . S
C1094 H1106 0.960 . S
C1094 H1107 0.962 . S
C1094 H1108 0.960 . S
C1095 C1092 1.511 . S
C1095 H1109 0.961 . S
C1095 H1110 0.961 . S
C1095 H1111 0.961 . S
C1096 C1097 1.370 . S
C1096 C1098 1.363 . S
C1096 H1112 0.931 . S
C1097 C1096 1.370 . S
C1097 C1101 1.408 . S
C1098 C1096 1.363 . S
C1098 C1099 1.370 . S
C1098 C1102 1.524 . S
C1099 C1091 1.503 . S
C1099 C1098 1.370 . S
C1099 C1100 1.403 . S
C1100 C1099 1.403 . S
C1100 C1101 1.404 . S
C1100 C1103 1.539 . S
C1101 C1097 1.408 . S
C1101 C1100 1.404 . S
C1101 H1113 0.930 . S
C1102 C1098 1.524 . S
C1102 H1114 0.956 . S
C1102 H1115 0.961 . S
C1102 H1116 0.961 . S
C1103 C1100 1.539 . S
C1103 H1117 0.958 . S
C1103 H1118 0.961 . S
C1103 H1119 0.960 . S
H1104 C1088 0.931 . S
H1105 C1093 0.929 . S
H1106 C1094 0.960 . S
H1107 C1094 0.962 . S
H1108 C1094 0.960 . S
H1109 C1095 0.961 . S
H1110 C1095 0.961 . S
H1111 C1095 0.961 . S
H1112 C1096 0.931 . S
H1113 C1101 0.930 . S
H1114 C1102 0.956 . S
H1115 C1102 0.961 . S
H1116 C1102 0.961 . S
H1117 C1103 0.958 . S
H1118 C1103 0.961 . S
H1119 C1103 0.960 . S
C1120 C1121 1.391 . S
C1120 C1122 1.394 . S
C1120 H1136 0.931 . S
C1121 C1120 1.391 . S
C1121 C1125 1.376 . S
C1122 C1120 1.394 . S
C1122 C1123 1.369 . S
C1122 C1126 1.531 . S
C1123 C1122 1.369 . S
C1123 C1124 1.410 . S
C1123 C1131 1.503 . S
C1124 C1123 1.410 . S
C1124 C1125 1.392 . S
C1124 C1127 1.511 . S
C1125 C1121 1.376 . S
C1125 C1124 1.392 . S
C1125 H1137 0.929 . S
C1126 C1122 1.531 . S
C1126 H1138 0.960 . S
C1126 H1139 0.962 . S
C1126 H1140 0.960 . S
C1127 C1124 1.511 . S
C1127 H1141 0.961 . S
C1127 H1142 0.961 . S
C1127 H1143 0.961 . S
C1128 C1129 1.370 . S
C1128 C1130 1.363 . S
C1128 H1144 0.931 . S
C1129 C1128 1.370 . S
C1129 C1133 1.408 . S
C1130 C1128 1.363 . S
C1130 C1131 1.370 . S
C1130 C1134 1.524 . S
C1131 C1123 1.503 . S
C1131 C1130 1.370 . S
C1131 C1132 1.403 . S
C1132 C1131 1.403 . S
C1132 C1133 1.404 . S
C1132 C1135 1.539 . S
C1133 C1129 1.408 . S
C1133 C1132 1.404 . S
C1133 H1145 0.930 . S
C1134 C1130 1.524 . S
C1134 H1146 0.956 . S
C1134 H1147 0.961 . S
C1134 H1148 0.961 . S
C1135 C1132 1.539 . S
C1135 H1149 0.958 . S
C1135 H1150 0.961 . S
C1135 H1151 0.960 . S
H1136 C1120 0.931 . S
H1137 C1125 0.929 . S
H1138 C1126 0.960 . S
H1139 C1126 0.962 . S
H1140 C1126 0.960 . S
H1141 C1127 0.961 . S
H1142 C1127 0.961 . S
H1143 C1127 0.961 . S
H1144 C1128 0.931 . S
H1145 C1133 0.930 . S
H1146 C1134 0.956 . S
H1147 C1134 0.961 . S
H1148 C1134 0.961 . S
H1149 C1135 0.958 . S
H1150 C1135 0.961 . S
H1151 C1135 0.960 . S
C1152 C1153 1.391 . S
C1152 C1154 1.394 . S
C1152 H1168 0.931 . S
C1153 C1152 1.391 . S
C1153 C1157 1.376 . S
C1154 C1152 1.394 . S
C1154 C1155 1.369 . S
C1154 C1158 1.531 . S
C1155 C1154 1.369 . S
C1155 C1156 1.410 . S
C1155 C1163 1.503 . S
C1156 C1155 1.410 . S
C1156 C1157 1.392 . S
C1156 C1159 1.511 . S
C1157 C1153 1.376 . S
C1157 C1156 1.392 . S
C1157 H1169 0.929 . S
C1158 C1154 1.531 . S
C1158 H1170 0.960 . S
C1158 H1171 0.962 . S
C1158 H1172 0.960 . S
C1159 C1156 1.511 . S
C1159 H1173 0.961 . S
C1159 H1174 0.961 . S
C1159 H1175 0.961 . S
C1160 C1161 1.370 . S
C1160 C1162 1.363 . S
C1160 H1176 0.931 . S
C1161 C1160 1.370 . S
C1161 C1165 1.408 . S
C1162 C1160 1.363 . S
C1162 C1163 1.370 . S
C1162 C1166 1.524 . S
C1163 C1155 1.503 . S
C1163 C1162 1.370 . S
C1163 C1164 1.403 . S
C1164 C1163 1.403 . S
C1164 C1165 1.404 . S
C1164 C1167 1.539 . S
C1165 C1161 1.408 . S
C1165 C1164 1.404 . S
C1165 H1177 0.930 . S
C1166 C1162 1.524 . S
C1166 H1178 0.956 . S
C1166 H1179 0.961 . S
C1166 H1180 0.961 . S
C1167 C1164 1.539 . S
C1167 H1181 0.958 . S
C1167 H1182 0.961 . S
C1167 H1183 0.960 . S
H1168 C1152 0.931 . S
H1169 C1157 0.929 . S
H1170 C1158 0.960 . S
H1171 C1158 0.962 . S
H1172 C1158 0.960 . S
H1173 C1159 0.961 . S
H1174 C1159 0.961 . S
H1175 C1159 0.961 . S
H1176 C1160 0.931 . S
H1177 C1165 0.930 . S
H1178 C1166 0.956 . S
H1179 C1166 0.961 . S
H1180 C1166 0.961 . S
H1181 C1167 0.958 . S
H1182 C1167 0.961 . S
H1183 C1167 0.960 . S
C1184 C1185 1.391 . S
C1184 C1186 1.394 . S
C1184 H1200 0.931 . S
C1185 C1184 1.391 . S
C1185 C1189 1.376 . S
C1186 C1184 1.394 . S
C1186 C1187 1.369 . S
C1186 C1190 1.531 . S
C1187 C1186 1.369 . S
C1187 C1188 1.410 . S
C1187 C1195 1.503 . S
C1188 C1187 1.410 . S
C1188 C1189 1.392 . S
C1188 C1191 1.511 . S
C1189 C1185 1.376 . S
C1189 C1188 1.392 . S
C1189 H1201 0.929 . S
C1190 C1186 1.531 . S
C1190 H1202 0.960 . S
C1190 H1203 0.962 . S
C1190 H1204 0.960 . S
C1191 C1188 1.511 . S
C1191 H1205 0.961 . S
C1191 H1206 0.961 . S
C1191 H1207 0.961 . S
C1192 C1193 1.370 . S
C1192 C1194 1.363 . S
C1192 H1208 0.931 . S
C1193 C1192 1.370 . S
C1193 C1197 1.408 . S
C1194 C1192 1.363 . S
C1194 C1195 1.370 . S
C1194 C1198 1.524 . S
C1195 C1187 1.503 . S
C1195 C1194 1.370 . S
C1195 C1196 1.403 . S
C1196 C1195 1.403 . S
C1196 C1197 1.404 . S
C1196 C1199 1.539 . S
C1197 C1193 1.408 . S
C1197 C1196 1.404 . S
C1197 H1209 0.930 . S
C1198 C1194 1.524 . S
C1198 H1210 0.956 . S
C1198 H1211 0.961 . S
C1198 H1212 0.961 . S
C1199 C1196 1.539 . S
C1199 H1213 0.958 . S
C1199 H1214 0.961 . S
C1199 H1215 0.960 . S
H1200 C1184 0.931 . S
H1201 C1189 0.929 . S
H1202 C1190 0.960 . S
H1203 C1190 0.962 . S
H1204 C1190 0.960 . S
H1205 C1191 0.961 . S
H1206 C1191 0.961 . S
H1207 C1191 0.961 . S
H1208 C1192 0.931 . S
H1209 C1197 0.930 . S
H1210 C1198 0.956 . S
H1211 C1198 0.961 . S
H1212 C1198 0.961 . S
H1213 C1199 0.958 . S
H1214 C1199 0.961 . S
H1215 C1199 0.960 . S
C1216 C1217 1.391 . S
C1216 C1218 1.394 . S
C1216 H1232 0.931 . S
C1217 C1216 1.391 . S
C1217 C1221 1.376 . S
C1218 C1216 1.394 . S
C1218 C1219 1.369 . S
C1218 C1222 1.531 . S
C1219 C1218 1.369 . S
C1219 C1220 1.410 . S
C1219 C1227 1.503 . S
C1220 C1219 1.410 . S
C1220 C1221 1.392 . S
C1220 C1223 1.511 . S
C1221 C1217 1.376 . S
C1221 C1220 1.392 . S
C1221 H1233 0.929 . S
C1222 C1218 1.531 . S
C1222 H1234 0.960 . S
C1222 H1235 0.962 . S
C1222 H1236 0.960 . S
C1223 C1220 1.511 . S
C1223 H1237 0.961 . S
C1223 H1238 0.961 . S
C1223 H1239 0.961 . S
C1224 C1225 1.370 . S
C1224 C1226 1.363 . S
C1224 H1240 0.931 . S
C1225 C1224 1.370 . S
C1225 C1229 1.408 . S
C1226 C1224 1.363 . S
C1226 C1227 1.370 . S
C1226 C1230 1.524 . S
C1227 C1219 1.503 . S
C1227 C1226 1.370 . S
C1227 C1228 1.403 . S
C1228 C1227 1.403 . S
C1228 C1229 1.404 . S
C1228 C1231 1.539 . S
C1229 C1225 1.408 . S
C1229 C1228 1.404 . S
C1229 H1241 0.930 . S
C1230 C1226 1.524 . S
C1230 H1242 0.956 . S
C1230 H1243 0.961 . S
C1230 H1244 0.961 . S
C1231 C1228 1.539 . S
C1231 H1245 0.958 . S
C1231 H1246 0.961 . S
C1231 H1247 0.960 . S
H1232 C1216 0.931 . S
H1233 C1221 0.929 . S
H1234 C1222 0.960 . S
H1235 C1222 0.962 . S
H1236 C1222 0.960 . S
H1237 C1223 0.961 . S
H1238 C1223 0.961 . S
H1239 C1223 0.961 . S
H1240 C1224 0.931 . S
H1241 C1229 0.930 . S
H1242 C1230 0.956 . S
H1243 C1230 0.961 . S
H1244 C1230 0.961 . S
H1245 C1231 0.958 . S
H1246 C1231 0.961 . S
H1247 C1231 0.960 . S
C1248 C1249 1.391 . S
C1248 C1250 1.394 . S
C1248 H1264 0.931 . S
C1249 C1248 1.391 . S
C1249 C1253 1.376 . S
C1250 C1248 1.394 . S
C1250 C1251 1.369 . S
C1250 C1254 1.531 . S
C1251 C1250 1.369 . S
C1251 C1252 1.410 . S
C1251 C1259 1.503 . S
C1252 C1251 1.410 . S
C1252 C1253 1.392 . S
C1252 C1255 1.511 . S
C1253 C1249 1.376 . S
C1253 C1252 1.392 . S
C1253 H1265 0.929 . S
C1254 C1250 1.531 . S
C1254 H1266 0.960 . S
C1254 H1267 0.962 . S
C1254 H1268 0.960 . S
C1255 C1252 1.511 . S
C1255 H1269 0.961 . S
C1255 H1270 0.961 . S
C1255 H1271 0.961 . S
C1256 C1257 1.370 . S
C1256 C1258 1.363 . S
C1256 H1272 0.931 . S
C1257 C1256 1.370 . S
C1257 C1261 1.408 . S
C1258 C1256 1.363 . S
C1258 C1259 1.370 . S
C1258 C1262 1.524 . S
C1259 C1251 1.503 . S
C1259 C1258 1.370 . S
C1259 C1260 1.403 . S
C1260 C1259 1.403 . S
C1260 C1261 1.404 . S
C1260 C1263 1.539 . S
C1261 C1257 1.408 . S
C1261 C1260 1.404 . S
C1261 H1273 0.930 . S
C1262 C1258 1.524 . S
C1262 H1274 0.956 . S
C1262 H1275 0.961 . S
C1262 H1276 0.961 . S
C1263 C1260 1.539 . S
C1263 H1277 0.958 . S
C1263 H1278 0.961 . S
C1263 H1279 0.960 . S
H1264 C1248 0.931 . S
H1265 C1253 0.929 . S
H1266 C1254 0.960 . S
H1267 C1254 0.962 . S
H1268 C1254 0.960 . S
H1269 C1255 0.961 . S
H1270 C1255 0.961 . S
H1271 C1255 0.961 . S
H1272 C1256 0.931 . S
H1273 C1261 0.930 . S
H1274 C1262 0.956 . S
H1275 C1262 0.961 . S
H1276 C1262 0.961 . S
H1277 C1263 0.958 . S
H1278 C1263 0.961 . S
H1279 C1263 0.960 . S
C1280 C1281 1.391 . S
C1280 C1282 1.394 . S
C1280 H1296 0.931 . S
C1281 C1280 1.391 . S
C1281 C1285 1.376 . S
C1282 C1280 1.394 . S
C1282 C1283 1.369 . S
C1282 C1286 1.531 . S
C1283 C1282 1.369 . S
C1283 C1284 1.410 . S
C1283 C1291 1.503 . S
C1284 C1283 1.410 . S
C1284 C1285 1.392 . S
C1284 C1287 1.511 . S
C1285 C1281 1.376 . S
C1285 C1284 1.392 . S
C1285 H1297 0.929 . S
C1286 C1282 1.531 . S
C1286 H1298 0.960 . S
C1286 H1299 0.962 . S
C1286 H1300 0.960 . S
C1287 C1284 1.511 . S
C1287 H1301 0.961 . S
C1287 H1302 0.961 . S
C1287 H1303 0.961 . S
C1288 C1289 1.370 . S
C1288 C1290 1.363 . S
C1288 H1304 0.931 . S
C1289 C1288 1.370 . S
C1289 C1293 1.408 . S
C1290 C1288 1.363 . S
C1290 C1291 1.370 . S
C1290 C1294 1.524 . S
C1291 C1283 1.503 . S
C1291 C1290 1.370 . S
C1291 C1292 1.403 . S
C1292 C1291 1.403 . S
C1292 C1293 1.404 . S
C1292 C1295 1.539 . S
C1293 C1289 1.408 . S
C1293 C1292 1.404 . S
C1293 H1305 0.930 . S
C1294 C1290 1.524 . S
C1294 H1306 0.956 . S
C1294 H1307 0.961 . S
C1294 H1308 0.961 . S
C1295 C1292 1.539 . S
C1295 H1309 0.958 . S
C1295 H1310 0.961 . S
C1295 H1311 0.960 . S
H1296 C1280 0.931 . S
H1297 C1285 0.929 . S
H1298 C1286 0.960 . S
H1299 C1286 0.962 . S
H1300 C1286 0.960 . S
H1301 C1287 0.961 . S
H1302 C1287 0.961 . S
H1303 C1287 0.961 . S
H1304 C1288 0.931 . S
H1305 C1293 0.930 . S
H1306 C1294 0.956 . S
H1307 C1294 0.961 . S
H1308 C1294 0.961 . S
H1309 C1295 0.958 . S
H1310 C1295 0.961 . S
H1311 C1295 0.960 . S
C1312 C1313 1.391 . S
C1312 C1314 1.394 . S
C1312 H1328 0.931 . S
C1313 C1312 1.391 . S
C1313 C1317 1.376 . S
C1314 C1312 1.394 . S
C1314 C1315 1.369 . S
C1314 C1318 1.531 . S
C1315 C1314 1.369 . S
C1315 C1316 1.410 . S
C1315 C1323 1.503 . S
C1316 C1315 1.410 . S
C1316 C1317 1.392 . S
C1316 C1319 1.511 . S
C1317 C1313 1.376 . S
C1317 C1316 1.392 . S
C1317 H1329 0.929 . S
C1318 C1314 1.531 . S
C1318 H1330 0.960 . S
C1318 H1331 0.962 . S
C1318 H1332 0.960 . S
C1319 C1316 1.511 . S
C1319 H1333 0.961 . S
C1319 H1334 0.961 . S
C1319 H1335 0.961 . S
C1320 C1321 1.370 . S
C1320 C1322 1.363 . S
C1320 H1336 0.931 . S
C1321 C1320 1.370 . S
C1321 C1325 1.408 . S
C1322 C1320 1.363 . S
C1322 C1323 1.370 . S
C1322 C1326 1.524 . S
C1323 C1315 1.503 . S
C1323 C1322 1.370 . S
C1323 C1324 1.403 . S
C1324 C1323 1.403 . S
C1324 C1325 1.404 . S
C1324 C1327 1.539 . S
C1325 C1321 1.408 . S
C1325 C1324 1.404 . S
C1325 H1337 0.930 . S
C1326 C1322 1.524 . S
C1326 H1338 0.956 . S
C1326 H1339 0.961 . S
C1326 H1340 0.961 . S
C1327 C1324 1.539 . S
C1327 H1341 0.958 . S
C1327 H1342 0.961 . S
C1327 H1343 0.960 . S
H1328 C1312 0.931 . S
H1329 C1317 0.929 . S
H1330 C1318 0.960 . S
H1331 C1318 0.962 . S
H1332 C1318 0.960 . S
H1333 C1319 0.961 . S
H1334 C1319 0.961 . S
H1335 C1319 0.961 . S
H1336 C1320 0.931 . S
H1337 C1325 0.930 . S
H1338 C1326 0.956 . S
H1339 C1326 0.961 . S
H1340 C1326 0.961 . S
H1341 C1327 0.958 . S
H1342 C1327 0.961 . S
H1343 C1327 0.960 . S
C1344 C1345 1.391 . S
C1344 C1346 1.394 . S
C1344 H1360 0.931 . S
C1345 C1344 1.391 . S
C1345 C1349 1.376 . S
C1346 C1344 1.394 . S
C1346 C1347 1.369 . S
C1346 C1350 1.531 . S
C1347 C1346 1.369 . S
C1347 C1348 1.410 . S
C1347 C1355 1.503 . S
C1348 C1347 1.410 . S
C1348 C1349 1.392 . S
C1348 C1351 1.511 . S
C1349 C1345 1.376 . S
C1349 C1348 1.392 . S
C1349 H1361 0.929 . S
C1350 C1346 1.531 . S
C1350 H1362 0.960 . S
C1350 H1363 0.962 . S
C1350 H1364 0.960 . S
C1351 C1348 1.511 . S
C1351 H1365 0.961 . S
C1351 H1366 0.961 . S
C1351 H1367 0.961 . S
C1352 C1353 1.370 . S
C1352 C1354 1.363 . S
C1352 H1368 0.931 . S
C1353 C1352 1.370 . S
C1353 C1357 1.408 . S
C1354 C1352 1.363 . S
C1354 C1355 1.370 . S
C1354 C1358 1.524 . S
C1355 C1347 1.503 . S
C1355 C1354 1.370 . S
C1355 C1356 1.403 . S
C1356 C1355 1.403 . S
C1356 C1357 1.404 . S
C1356 C1359 1.539 . S
C1357 C1353 1.408 . S
C1357 C1356 1.404 . S
C1357 H1369 0.930 . S
C1358 C1354 1.524 . S
C1358 H1370 0.956 . S
C1358 H1371 0.961 . S
C1358 H1372 0.961 . S
C1359 C1356 1.539 . S
C1359 H1373 0.958 . S
C1359 H1374 0.961 . S
C1359 H1375 0.960 . S
H1360 C1344 0.931 . S
H1361 C1349 0.929 . S
H1362 C1350 0.960 . S
H1363 C1350 0.962 . S
H1364 C1350 0.960 . S
H1365 C1351 0.961 . S
H1366 C1351 0.961 . S
H1367 C1351 0.961 . S
H1368 C1352 0.931 . S
H1369 C1357 0.930 . S
H1370 C1358 0.956 . S
H1371 C1358 0.961 . S
H1372 C1358 0.961 . S
H1373 C1359 0.958 . S
H1374 C1359 0.961 . S
H1375 C1359 0.960 . S
C1376 C1377 1.391 . S
C1376 C1378 1.394 . S
C1376 H1392 0.931 . S
C1377 C1376 1.391 . S
C1377 C1381 1.376 . S
C1378 C1376 1.394 . S
C1378 C1379 1.369 . S
C1378 C1382 1.531 . S
C1379 C1378 1.369 . S
C1379 C1380 1.410 . S
C1379 C1387 1.503 . S
C1380 C1379 1.410 . S
C1380 C1381 1.392 . S
C1380 C1383 1.511 . S
C1381 C1377 1.376 . S
C1381 C1380 1.392 . S
C1381 H1393 0.929 . S
C1382 C1378 1.531 . S
C1382 H1394 0.960 . S
C1382 H1395 0.962 . S
C1382 H1396 0.960 . S
C1383 C1380 1.511 . S
C1383 H1397 0.961 . S
C1383 H1398 0.961 . S
C1383 H1399 0.961 . S
C1384 C1385 1.370 . S
C1384 C1386 1.363 . S
C1384 H1400 0.931 . S
C1385 C1384 1.370 . S
C1385 C1389 1.408 . S
C1386 C1384 1.363 . S
C1386 C1387 1.370 . S
C1386 C1390 1.524 . S
C1387 C1379 1.503 . S
C1387 C1386 1.370 . S
C1387 C1388 1.403 . S
C1388 C1387 1.403 . S
C1388 C1389 1.404 . S
C1388 C1391 1.539 . S
C1389 C1385 1.408 . S
C1389 C1388 1.404 . S
C1389 H1401 0.930 . S
C1390 C1386 1.524 . S
C1390 H1402 0.956 . S
C1390 H1403 0.961 . S
C1390 H1404 0.961 . S
C1391 C1388 1.539 . S
C1391 H1405 0.958 . S
C1391 H1406 0.961 . S
C1391 H1407 0.960 . S
H1392 C1376 0.931 . S
H1393 C1381 0.929 . S
H1394 C1382 0.960 . S
H1395 C1382 0.962 . S
H1396 C1382 0.960 . S
H1397 C1383 0.961 . S
H1398 C1383 0.961 . S
H1399 C1383 0.961 . S
H1400 C1384 0.931 . S
H1401 C1389 0.930 . S
H1402 C1390 0.956 . S
H1403 C1390 0.961 . S
H1404 C1390 0.961 . S
H1405 C1391 0.958 . S
H1406 C1391 0.961 . S
H1407 C1391 0.960 . S
C1408 C1409 1.391 . S
C1408 C1410 1.394 . S
C1408 H1424 0.931 . S
C1409 C1408 1.391 . S
C1409 C1413 1.376 . S
C1410 C1408 1.394 . S
C1410 C1411 1.369 . S
C1410 C1414 1.531 . S
C1411 C1410 1.369 . S
C1411 C1412 1.410 . S
C1411 C1419 1.503 . S
C1412 C1411 1.410 . S
C1412 C1413 1.392 . S
C1412 C1415 1.511 . S
C1413 C1409 1.376 . S
C1413 C1412 1.392 . S
C1413 H1425 0.929 . S
C1414 C1410 1.531 . S
C1414 H1426 0.960 . S
C1414 H1427 0.962 . S
C1414 H1428 0.960 . S
C1415 C1412 1.511 . S
C1415 H1429 0.961 . S
C1415 H1430 0.961 . S
C1415 H1431 0.961 . S
C1416 C1417 1.370 . S
C1416 C1418 1.363 . S
C1416 H1432 0.931 . S
C1417 C1416 1.370 . S
C1417 C1421 1.408 . S
C1418 C1416 1.363 . S
C1418 C1419 1.370 . S
C1418 C1422 1.524 . S
C1419 C1411 1.503 . S
C1419 C1418 1.370 . S
C1419 C1420 1.403 . S
C1420 C1419 1.403 . S
C1420 C1421 1.404 . S
C1420 C1423 1.539 . S
C1421 C1417 1.408 . S
C1421 C1420 1.404 . S
C1421 H1433 0.930 . S
C1422 C1418 1.524 . S
C1422 H1434 0.956 . S
C1422 H1435 0.961 . S
C1422 H1436 0.961 . S
C1423 C1420 1.539 . S
C1423 H1437 0.958 . S
C1423 H1438 0.961 . S
C1423 H1439 0.960 . S
H1424 C1408 0.931 . S
H1425 C1413 0.929 . S
H1426 C1414 0.960 . S
H1427 C1414 0.962 . S
H1428 C1414 0.960 . S
H1429 C1415 0.961 . S
H1430 C1415 0.961 . S
H1431 C1415 0.961 . S
H1432 C1416 0.931 . S
H1433 C1421 0.930 . S
H1434 C1422 0.956 . S
H1435 C1422 0.961 . S
H1436 C1422 0.961 . S
H1437 C1423 0.958 . S
H1438 C1423 0.961 . S
H1439 C1423 0.960 . S
C1440 C1441 1.391 . S
C1440 C1442 1.394 . S
C1440 H1456 0.931 . S
C1441 C1440 1.391 . S
C1441 C1445 1.376 . S
C1442 C1440 1.394 . S
C1442 C1443 1.369 . S
C1442 C1446 1.531 . S
C1443 C1442 1.369 . S
C1443 C1444 1.410 . S
C1443 C1451 1.503 . S
C1444 C1443 1.410 . S
C1444 C1445 1.392 . S
C1444 C1447 1.511 . S
C1445 C1441 1.376 . S
C1445 C1444 1.392 . S
C1445 H1457 0.929 . S
C1446 C1442 1.531 . S
C1446 H1458 0.960 . S
C1446 H1459 0.962 . S
C1446 H1460 0.960 . S
C1447 C1444 1.511 . S
C1447 H1461 0.961 . S
C1447 H1462 0.961 . S
C1447 H1463 0.961 . S
C1448 C1449 1.370 . S
C1448 C1450 1.363 . S
C1448 H1464 0.931 . S
C1449 C1448 1.370 . S
C1449 C1453 1.408 . S
C1450 C1448 1.363 . S
C1450 C1451 1.370 . S
C1450 C1454 1.524 . S
C1451 C1443 1.503 . S
C1451 C1450 1.370 . S
C1451 C1452 1.403 . S
C1452 C1451 1.403 . S
C1452 C1453 1.404 . S
C1452 C1455 1.539 . S
C1453 C1449 1.408 . S
C1453 C1452 1.404 . S
C1453 H1465 0.930 . S
C1454 C1450 1.524 . S
C1454 H1466 0.956 . S
C1454 H1467 0.961 . S
C1454 H1468 0.961 . S
C1455 C1452 1.539 . S
C1455 H1469 0.958 . S
C1455 H1470 0.961 . S
C1455 H1471 0.960 . S
H1456 C1440 0.931 . S
H1457 C1445 0.929 . S
H1458 C1446 0.960 . S
H1459 C1446 0.962 . S
H1460 C1446 0.960 . S
H1461 C1447 0.961 . S
H1462 C1447 0.961 . S
H1463 C1447 0.961 . S
H1464 C1448 0.931 . S
H1465 C1453 0.930 . S
H1466 C1454 0.956 . S
H1467 C1454 0.961 . S
H1468 C1454 0.961 . S
H1469 C1455 0.958 . S
H1470 C1455 0.961 . S
H1471 C1455 0.960 . S
C1472 C1473 1.391 . S
C1472 C1474 1.394 . S
C1472 H1488 0.931 . S
C1473 C1472 1.391 . S
C1473 C1477 1.376 . S
C1474 C1472 1.394 . S
C1474 C1475 1.369 . S
C1474 C1478 1.531 . S
C1475 C1474 1.369 . S
C1475 C1476 1.410 . S
C1475 C1483 1.503 . S
C1476 C1475 1.410 . S
C1476 C1477 1.392 . S
C1476 C1479 1.511 . S
C1477 C1473 1.376 . S
C1477 C1476 1.392 . S
C1477 H1489 0.929 . S
C1478 C1474 1.531 . S
C1478 H1490 0.960 . S
C1478 H1491 0.962 . S
C1478 H1492 0.960 . S
C1479 C1476 1.511 . S
C1479 H1493 0.961 . S
C1479 H1494 0.961 . S
C1479 H1495 0.961 . S
C1480 C1481 1.370 . S
C1480 C1482 1.363 . S
C1480 H1496 0.931 . S
C1481 C1480 1.370 . S
C1481 C1485 1.408 . S
C1482 C1480 1.363 . S
C1482 C1483 1.370 . S
C1482 C1486 1.524 . S
C1483 C1475 1.503 . S
C1483 C1482 1.370 . S
C1483 C1484 1.403 . S
C1484 C1483 1.403 . S
C1484 C1485 1.404 . S
C1484 C1487 1.539 . S
C1485 C1481 1.408 . S
C1485 C1484 1.404 . S
C1485 H1497 0.930 . S
C1486 C1482 1.524 . S
C1486 H1498 0.956 . S
C1486 H1499 0.961 . S
C1486 H1500 0.961 . S
C1487 C1484 1.539 . S
C1487 H1501 0.958 . S
C1487 H1502 0.961 . S
C1487 H1503 0.960 . S
H1488 C1472 0.931 . S
H1489 C1477 0.929 . S
H1490 C1478 0.960 . S
H1491 C1478 0.962 . S
H1492 C1478 0.960 . S
H1493 C1479 0.961 . S
H1494 C1479 0.961 . S
H1495 C1479 0.961 . S
H1496 C1480 0.931 . S
H1497 C1485 0.930 . S
H1498 C1486 0.956 . S
H1499 C1486 0.961 . S
H1500 C1486 0.961 . S
H1501 C1487 0.958 . S
H1502 C1487 0.961 . S
H1503 C1487 0.960 . S
C1504 C1505 1.391 . S
C1504 C1506 1.394 . S
C1504 H1520 0.931 . S
C1505 C1504 1.391 . S
C1505 C1509 1.376 . S
C1506 C1504 1.394 . S
C1506 C1507 1.369 . S
C1506 C1510 1.531 . S
C1507 C1506 1.369 . S
C1507 C1508 1.410 . S
C1507 C1515 1.503 . S
C1508 C1507 1.410 . S
C1508 C1509 1.392 . S
C1508 C1511 1.511 . S
C1509 C1505 1.376 . S
C1509 C1508 1.392 . S
C1509 H1521 0.929 . S
C1510 C1506 1.531 . S
C1510 H1522 0.960 . S
C1510 H1523 0.962 . S
C1510 H1524 0.960 . S
C1511 C1508 1.511 . S
C1511 H1525 0.961 . S
C1511 H1526 0.961 . S
C1511 H1527 0.961 . S
C1512 C1513 1.370 . S
C1512 C1514 1.363 . S
C1512 H1528 0.931 . S
C1513 C1512 1.370 . S
C1513 C1517 1.408 . S
C1514 C1512 1.363 . S
C1514 C1515 1.370 . S
C1514 C1518 1.524 . S
C1515 C1507 1.503 . S
C1515 C1514 1.370 . S
C1515 C1516 1.403 . S
C1516 C1515 1.403 . S
C1516 C1517 1.404 . S
C1516 C1519 1.539 . S
C1517 C1513 1.408 . S
C1517 C1516 1.404 . S
C1517 H1529 0.930 . S
C1518 C1514 1.524 . S
C1518 H1530 0.956 . S
C1518 H1531 0.961 . S
C1518 H1532 0.961 . S
C1519 C1516 1.539 . S
C1519 H1533 0.958 . S
C1519 H1534 0.961 . S
C1519 H1535 0.960 . S
H1520 C1504 0.931 . S
H1521 C1509 0.929 . S
H1522 C1510 0.960 . S
H1523 C1510 0.962 . S
H1524 C1510 0.960 . S
H1525 C1511 0.961 . S
H1526 C1511 0.961 . S
H1527 C1511 0.961 . S
H1528 C1512 0.931 . S
H1529 C1517 0.930 . S
H1530 C1518 0.956 . S
H1531 C1518 0.961 . S
H1532 C1518 0.961 . S
H1533 C1519 0.958 . S
H1534 C1519 0.961 . S
H1535 C1519 0.960 . S
C1536 C1537 1.391 . S
C1536 C1538 1.394 . S
C1536 H1552 0.931 . S
C1537 C1536 1.391 . S
C1537 C1541 1.376 . S
C1538 C1536 1.394 . S
C1538 C1539 1.369 . S
C1538 C1542 1.531 . S
C1539 C1538 1.369 . S
C1539 C1540 1.410 . S
C1539 C1547 1.503 . S
C1540 C1539 1.410 . S
C1540 C1541 1.392 . S
C1540 C1543 1.511 . S
C1541 C1537 1.376 . S
C1541 C1540 1.392 . S
C1541 H1553 0.929 . S
C1542 C1538 1.531 . S
C1542 H1554 0.960 . S
C1542 H1555 0.962 . S
C1542 H1556 0.960 . S
C1543 C1540 1.511 . S
C1543 H1557 0.961 . S
C1543 H1558 0.961 . S
C1543 H1559 0.961 . S
C1544 C1545 1.370 . S
C1544 C1546 1.363 . S
C1544 H1560 0.931 . S
C1545 C1544 1.370 . S
C1545 C1549 1.408 . S
C1546 C1544 1.363 . S
C1546 C1547 1.370 . S
C1546 C1550 1.524 . S
C1547 C1539 1.503 . S
C1547 C1546 1.370 . S
C1547 C1548 1.403 . S
C1548 C1547 1.403 . S
C1548 C1549 1.404 . S
C1548 C1551 1.539 . S
C1549 C1545 1.408 . S
C1549 C1548 1.404 . S
C1549 H1561 0.930 . S
C1550 C1546 1.524 . S
C1550 H1562 0.956 . S
C1550 H1563 0.961 . S
C1550 H1564 0.961 . S
C1551 C1548 1.539 . S
C1551 H1565 0.958 . S
C1551 H1566 0.961 . S
C1551 H1567 0.960 . S
H1552 C1536 0.931 . S
H1553 C1541 0.929 . S
H1554 C1542 0.960 . S
H1555 C1542 0.962 . S
H1556 C1542 0.960 . S
H1557 C1543 0.961 . S
H1558 C1543 0.961 . S
H1559 C1543 0.961 . S
H1560 C1544 0.931 . S
H1561 C1549 0.930 . S
H1562 C1550 0.956 . S
H1563 C1550 0.961 . S
H1564 C1550 0.961 . S
H1565 C1551 0.958 . S
H1566 C1551 0.961 . S
H1567 C1551 0.960 . S
C1568 C1569 1.391 . S
C1568 C1570 1.394 . S
C1568 H1584 0.931 . S
C1569 C1568 1.391 . S
C1569 C1573 1.376 . S
C1570 C1568 1.394 . S
C1570 C1571 1.369 . S
C1570 C1574 1.531 . S
C1571 C1570 1.369 . S
C1571 C1572 1.410 . S
C1571 C1579 1.503 . S
C1572 C1571 1.410 . S
C1572 C1573 1.392 . S
C1572 C1575 1.511 . S
C1573 C1569 1.376 . S
C1573 C1572 1.392 . S
C1573 H1585 0.929 . S
C1574 C1570 1.531 . S
C1574 H1586 0.960 . S
C1574 H1587 0.962 . S
C1574 H1588 0.960 . S
C1575 C1572 1.511 . S
C1575 H1589 0.961 . S
C1575 H1590 0.961 . S
C1575 H1591 0.961 . S
C1576 C1577 1.370 . S
C1576 C1578 1.363 . S
C1576 H1592 0.931 . S
C1577 C1576 1.370 . S
C1577 C1581 1.408 . S
C1578 C1576 1.363 . S
C1578 C1579 1.370 . S
C1578 C1582 1.524 . S
C1579 C1571 1.503 . S
C1579 C1578 1.370 . S
C1579 C1580 1.403 . S
C1580 C1579 1.403 . S
C1580 C1581 1.404 . S
C1580 C1583 1.539 . S
C1581 C1577 1.408 . S
C1581 C1580 1.404 . S
C1581 H1593 0.930 . S
C1582 C1578 1.524 . S
C1582 H1594 0.956 . S
C1582 H1595 0.961 . S
C1582 H1596 0.961 . S
C1583 C1580 1.539 . S
C1583 H1597 0.958 . S
C1583 H1598 0.961 . S
C1583 H1599 0.960 . S
H1584 C1568 0.931 . S
H1585 C1573 0.929 . S
H1586 C1574 0.960 . S
H1587 C1574 0.962 . S
H1588 C1574 0.960 . S
H1589 C1575 0.961 . S
H1590 C1575 0.961 . S
H1591 C1575 0.961 . S
H1592 C1576 0.931 . S
H1593 C1581 0.930 . S
H1594 C1582 0.956 . S
H1595 C1582 0.961 . S
H1596 C1582 0.961 . S
H1597 C1583 0.958 . S
H1598 C1583 0.961 . S
H1599 C1583 0.960 . S
C1600 C1601 1.391 . S
C1600 C1602 1.394 . S
C1600 H1616 0.931 . S
C1601 C1600 1.391 . S
C1601 C1605 1.376 . S
C1602 C1600 1.394 . S
C1602 C1603 1.369 . S
C1602 C1606 1.531 . S
C1603 C1602 1.369 . S
C1603 C1604 1.410 . S
C1603 C1611 1.503 . S
C1604 C1603 1.410 . S
C1604 C1605 1.392 . S
C1604 C1607 1.511 . S
C1605 C1601 1.376 . S
C1605 C1604 1.392 . S
C1605 H1617 0.929 . S
C1606 C1602 1.531 . S
C1606 H1618 0.960 . S
C1606 H1619 0.962 . S
C1606 H1620 0.960 . S
C1607 C1604 1.511 . S
C1607 H1621 0.961 . S
C1607 H1622 0.961 . S
C1607 H1623 0.961 . S
C1608 C1609 1.370 . S
C1608 C1610 1.363 . S
C1608 H1624 0.931 . S
C1609 C1608 1.370 . S
C1609 C1613 1.408 . S
C1610 C1608 1.363 . S
C1610 C1611 1.370 . S
C1610 C1614 1.524 . S
C1611 C1603 1.503 . S
C1611 C1610 1.370 . S
C1611 C1612 1.403 . S
C1612 C1611 1.403 . S
C1612 C1613 1.404 . S
C1612 C1615 1.539 . S
C1613 C1609 1.408 . S
C1613 C1612 1.404 . S
C1613 H1625 0.930 . S
C1614 C1610 1.524 . S
C1614 H1626 0.956 . S
C1614 H1627 0.961 . S
C1614 H1628 0.961 . S
C1615 C1612 1.539 . S
C1615 H1629 0.958 . S
C1615 H1630 0.961 . S
C1615 H1631 0.960 . S
H1616 C1600 0.931 . S
H1617 C1605 0.929 . S
H1618 C1606 0.960 . S
H1619 C1606 0.962 . S
H1620 C1606 0.960 . S
H1621 C1607 0.961 . S
H1622 C1607 0.961 . S
H1623 C1607 0.961 . S
H1624 C1608 0.931 . S
H1625 C1613 0.930 . S
H1626 C1614 0.956 . S
H1627 C1614 0.961 . S
H1628 C1614 0.961 . S
H1629 C1615 0.958 . S
H1630 C1615 0.961 . S
H1631 C1615 0.960 . S
C617 C213 1.516 . S
C609 C16 1.523 . S
C649 C266 1.330 . S
C641 C30 1.343 . S
C681 C329 1.602 . S
C673 C53 1.587 . S
C713 C372 1.328 . S
C705 C76 1.336 . S
C737 N104 1.470 . S
C745 C328 1.510 . S
C777 C365 1.326 . S
C769 N127 1.303 . S
C809 C206 1.428 . S
C801 N140 1.361 . S
C841 C259 1.189 . S
C833 N173 1.150 . S
C873 C312 1.512 . S
C865 C168 1.512 . S
C905 C381 1.867 . S
C897 C99 1.863 . S
C937 C222 1.600 . S
C929 C122 1.592 . S
C969 C275 1.746 . S
C961 C154 1.734 . S
C1001 C223 1.516 . S
C993 N35 1.458 . S
C1033 C276 1.741 . S
C1025 N58 1.666 . S
C1065 C319 1.440 . S
C1057 N81 1.423 . S
C1097 C382 1.698 . S
C1089 N2 1.673 . S
C1129 C425 1.471 . S
C1121 C177 1.462 . S
C1153 C108 1.721 . S
C1161 C478 1.724 . S
C1185 C131 1.615 . S
C1193 C540 1.631 . S
C1217 C145 1.735 . S
C1225 C594 1.734 . S
C1249 N25 1.424 . S
C1257 C541 1.478 . S
C1281 N48 1.669 . S
C1289 C593 1.720 . S
C1313 N71 1.452 . S
C1321 C418 1.463 . S
C1353 C471 1.570 . S
C1345 N12 1.546 . S
C1385 C531 1.484 . S
C1377 C7 1.482 . S
C1409 C39 1.385 . S
C1417 C577 1.388 . S
C1441 C62 1.613 . S
C1449 C434 1.632 . S
C1473 C85 1.331 . S
C1481 C487 1.342 . S
C1513 C435 1.477 . S
C1505 N94 1.464 . S
C1545 C488 1.365 . S
C1537 N117 1.337 . S
C1569 N150 1.447 . S
C1577 C524 1.464 . S
C1609 C584 1.246 . S
C1601 N163 1.232 . S
