# Generated by pormake.
# Topology apo, (3,6)-cn, num edge types: 1
# Building blocks:
#     Node 0, Type 0, BuildingBlock: WUSLED_clean_sbu_0, # of connection points: 3
#     Node 1, Type 0, BuildingBlock: WUSLED_clean_sbu_0, # of connection points: 3
#     Node 2, Type 0, BuildingBlock: WUSLED_clean_sbu_0, # of connection points: 3
#     Node 3, Type 0, BuildingBlock: WUSLED_clean_sbu_0, # of connection points: 3
#     Node 4, Type 0, BuildingBlock: WUSLED_clean_sbu_0, # of connection points: 3
#     Node 5, Type 0, BuildingBlock: WUSLED_clean_sbu_0, # of connection points: 3
#     Node 6, Type 0, BuildingBlock: WUSLED_clean_sbu_0, # of connection points: 3
#     Node 7, Type 0, BuildingBlock: WUSLED_clean_sbu_0, # of connection points: 3
#     Node 8, Type 1, BuildingBlock: KUMJIN_clean_sbu_1, # of connection points: 6
#     Node 9, Type 1, BuildingBlock: KUMJIN_clean_sbu_1, # of connection points: 6
#     Node 10, Type 1, BuildingBlock: KUMJIN_clean_sbu_1, # of connection points: 6
#     Node 11, Type 1, BuildingBlock: KUMJIN_clean_sbu_1, # of connection points: 6
#     Edge 12, Type (0, 1), BuildingBlock: TEMPAE_clean_linker_10, # of connection points: 2
#     Edge 13, Type (0, 1), BuildingBlock: TEMPAE_clean_linker_10, # of connection points: 2
#     Edge 14, Type (0, 1), BuildingBlock: TEMPAE_clean_linker_10, # of connection points: 2
#     Edge 15, Type (0, 1), BuildingBlock: TEMPAE_clean_linker_10, # of connection points: 2
#     Edge 16, Type (0, 1), BuildingBlock: TEMPAE_clean_linker_10, # of connection points: 2
#     Edge 17, Type (0, 1), BuildingBlock: TEMPAE_clean_linker_10, # of connection points: 2
#     Edge 18, Type (0, 1), BuildingBlock: TEMPAE_clean_linker_10, # of connection points: 2
#     Edge 19, Type (0, 1), BuildingBlock: TEMPAE_clean_linker_10, # of connection points: 2
#     Edge 20, Type (0, 1), BuildingBlock: TEMPAE_clean_linker_10, # of connection points: 2
#     Edge 21, Type (0, 1), BuildingBlock: TEMPAE_clean_linker_10, # of connection points: 2
#     Edge 22, Type (0, 1), BuildingBlock: TEMPAE_clean_linker_10, # of connection points: 2
#     Edge 23, Type (0, 1), BuildingBlock: TEMPAE_clean_linker_10, # of connection points: 2
#     Edge 24, Type (0, 1), BuildingBlock: TEMPAE_clean_linker_10, # of connection points: 2
#     Edge 25, Type (0, 1), BuildingBlock: TEMPAE_clean_linker_10, # of connection points: 2
#     Edge 26, Type (0, 1), BuildingBlock: TEMPAE_clean_linker_10, # of connection points: 2
#     Edge 27, Type (0, 1), BuildingBlock: TEMPAE_clean_linker_10, # of connection points: 2
#     Edge 28, Type (0, 1), BuildingBlock: TEMPAE_clean_linker_10, # of connection points: 2
#     Edge 29, Type (0, 1), BuildingBlock: TEMPAE_clean_linker_10, # of connection points: 2
#     Edge 30, Type (0, 1), BuildingBlock: TEMPAE_clean_linker_10, # of connection points: 2
#     Edge 31, Type (0, 1), BuildingBlock: TEMPAE_clean_linker_10, # of connection points: 2
#     Edge 32, Type (0, 1), BuildingBlock: TEMPAE_clean_linker_10, # of connection points: 2
#     Edge 33, Type (0, 1), BuildingBlock: TEMPAE_clean_linker_10, # of connection points: 2
#     Edge 34, Type (0, 1), BuildingBlock: TEMPAE_clean_linker_10, # of connection points: 2
#     Edge 35, Type (0, 1), BuildingBlock: TEMPAE_clean_linker_10, # of connection points: 2
# Relax obj value: 0.010
# Max RMSD: 0.098
# Mean RMSD: 0.074
data_MOF--net-apo--node1-WUSLED_clean_sbu_0--node2-KUMJIN_clean_sbu_1--edge1-TEMPAE_clean_linker_10
_symmetry_space_group_name_H-M    P1
_symmetry_Int_Tables_number       1
_symmetry_cell_setting            triclinic
loop_
_symmetry_equiv_pos_as_xyz
'x, y, z'
_cell_length_a     31.739115
_cell_length_b     55.932901
_cell_length_c     66.814076
_cell_angle_alpha  90.241044
_cell_angle_beta   89.93705
_cell_angle_gamma 90.311913
loop_
_atom_site_label
_atom_site_type_symbol
_atom_site_fract_x
_atom_site_fract_y
_atom_site_fract_z
_atom_type_partial_charge
C0 C 0.31575 0.43329 0.3788 0.0
C1 C 0.34975 0.44497 0.38817 0.0
C2 C 0.34957 0.47575 0.36233 0.0
C3 C 0.36656 0.46602 0.37998 0.0
C4 C 0.31507 0.46408 0.35329 0.0
C5 C 0.29837 0.44313 0.36146 0.0
U6 U 0.29132 0.38715 0.42015 0.0
O7 O 0.23394 0.36561 0.42451 0.0
O8 O 0.29406 0.3478 0.41835 0.0
C9 C 0.25297 0.34544 0.42005 0.0
C10 C 0.2985 0.4105 0.38627 0.0
C11 C 0.23216 0.32984 0.40498 0.0
C12 C 0.17804 0.32253 0.3798 0.0
C13 C 0.1986 0.33803 0.39314 0.0
C14 C 0.22483 0.29057 0.38945 0.0
C15 C 0.19066 0.29854 0.37792 0.0
C16 C 0.24522 0.30603 0.40287 0.0
C17 C 0.32506 0.40147 0.47488 0.0
C18 C 0.3394 0.37545 0.50319 0.0
C19 C 0.32884 0.41784 0.50856 0.0
C20 C 0.3225 0.42092 0.48808 0.0
C21 C 0.33774 0.39511 0.51643 0.0
C22 C 0.33309 0.37859 0.48257 0.0
C23 C 0.32152 0.40614 0.45322 0.0
O24 O 0.32603 0.39463 0.39237 0.0
O25 O 0.26531 0.41207 0.39796 0.0
O26 O 0.28351 0.41059 0.44647 0.0
O27 O 0.34391 0.39261 0.44112 0.0
H28 H 0.3635 0.43772 0.40167 0.0
H29 H 0.39278 0.47468 0.38748 0.0
H30 H 0.30155 0.47078 0.33955 0.0
H31 H 0.27218 0.43436 0.354 0.0
H32 H 0.15221 0.32933 0.37094 0.0
H33 H 0.18791 0.35634 0.39428 0.0
H34 H 0.23511 0.27217 0.38853 0.0
H35 H 0.27091 0.29926 0.41184 0.0
H36 H 0.34572 0.35766 0.50873 0.0
H37 H 0.32805 0.43348 0.51815 0.0
H38 H 0.31654 0.43873 0.48245 0.0
H39 H 0.33507 0.36326 0.47266 0.0
C40 C 0.20418 0.15193 0.97852 0.0
C41 C 0.18959 0.1293 0.98445 0.0
C42 C 0.17615 0.14443 0.01815 0.0
C43 C 0.17577 0.12556 1.00412 0.0
C44 C 0.19068 0.16706 1.01203 0.0
C45 C 0.20454 0.17075 0.99241 0.0
U46 U 0.21387 0.13409 0.92335 0.0
O47 O 0.20879 0.15594 0.89621 0.0
O48 O 0.26787 0.13725 0.90273 0.0
C49 C 0.24841 0.15262 0.89117 0.0
C50 C 0.21909 0.15631 0.95797 0.0
C51 C 0.27292 0.17393 0.88487 0.0
C52 C 0.27726 0.21626 0.87655 0.0
C53 C 0.2553 0.19696 0.88495 0.0
C54 C 0.33538 0.19009 0.86849 0.0
C55 C 0.31726 0.21296 0.86789 0.0
C56 C 0.31341 0.17082 0.87682 0.0
C57 C 0.16226 0.07543 0.90533 0.0
C58 C 0.17858 0.05265 0.8752 0.0
C59 C 0.11364 0.04503 0.8932 0.0
C60 C 0.12428 0.06276 0.9071 0.0
C61 C 0.14091 0.03947 0.87725 0.0
C62 C 0.18917 0.07051 0.88912 0.0
C63 C 0.17318 0.0932 0.92085 0.0
O64 O 0.24813 0.14162 0.95128 0.0
O65 O 0.18957 0.16072 0.94474 0.0
O66 O 0.15453 0.11403 0.91933 0.0
O67 O 0.21322 0.0949 0.92571 0.0
H68 H 0.18886 0.11456 0.97387 0.0
H69 H 0.16433 0.10799 1.00827 0.0
H70 H 0.19192 0.18189 0.02249 0.0
H71 H 0.21572 0.18832 0.98809 0.0
H72 H 0.26265 0.23372 0.87661 0.0
H73 H 0.22414 0.20002 0.89103 0.0
H74 H 0.3659 0.18682 0.86177 0.0
H75 H 0.32759 0.15324 0.87639 0.0
H76 H 0.20033 0.04878 0.86313 0.0
H77 H 0.08395 0.03564 0.89499 0.0
H78 H 0.10293 0.06644 0.91939 0.0
H79 H 0.21857 0.08022 0.88739 0.0
C80 C 0.81365 0.08796 0.65319 0.0
C81 C 0.85431 0.07983 0.64845 0.0
C82 C 0.84541 0.04604 0.67109 0.0
C83 C 0.87005 0.05907 0.65734 0.0
C84 C 0.80424 0.05385 0.67521 0.0
C85 C 0.78861 0.07457 0.66637 0.0
U86 U 0.7935 0.13619 0.61288 0.0
O87 O 0.73775 0.15886 0.60898 0.0
O88 O 0.79889 0.17532 0.6161 0.0
C89 C 0.75808 0.17846 0.61424 0.0
C90 C 0.79759 0.11109 0.64595 0.0
C91 C 0.73819 0.19321 0.62997 0.0
C92 C 0.69508 0.19737 0.65996 0.0
C93 C 0.71411 0.1829 0.64539 0.0
C94 C 0.72473 0.23253 0.64416 0.0
C95 C 0.70008 0.22238 0.65948 0.0
C96 C 0.74352 0.21809 0.62957 0.0
C97 C 0.83125 0.1254 0.55836 0.0
C98 C 0.81017 0.14622 0.52807 0.0
C99 C 0.86975 0.11936 0.52732 0.0
C100 C 0.86404 0.11461 0.54765 0.0
C101 C 0.84266 0.13501 0.51719 0.0
C102 C 0.80446 0.14143 0.5485 0.0
C103 C 0.82534 0.11889 0.57954 0.0
O104 O 0.82586 0.12724 0.64088 0.0
O105 O 0.76516 0.11019 0.63374 0.0
O106 O 0.78643 0.11476 0.58541 0.0
O107 O 0.84764 0.13113 0.59265 0.0
H108 H 0.87424 0.08976 0.63823 0.0
H109 H 0.90164 0.05335 0.65359 0.0
H110 H 0.78454 0.04445 0.68586 0.0
H111 H 0.75723 0.08055 0.67028 0.0
H112 H 0.67672 0.18896 0.67168 0.0
H113 H 0.70991 0.16369 0.64616 0.0
H114 H 0.72883 0.25173 0.64318 0.0
H115 H 0.76206 0.2264 0.61785 0.0
H116 H 0.78871 0.15833 0.52071 0.0
H117 H 0.89565 0.11084 0.51956 0.0
H118 H 0.88517 0.1023 0.555 0.0
H119 H 0.77896 0.15 0.55653 0.0
C120 C 0.70538 0.36285 0.05841 0.0
C121 C 0.67619 0.38001 0.05203 0.0
C122 C 0.68067 0.3647 1.0178 0.0
C123 C 0.66398 0.38096 0.03184 0.0
C124 C 0.71057 0.34796 0.02432 0.0
C125 C 0.72269 0.34705 0.04438 0.0
U126 U 0.71148 0.38439 0.11339 0.0
O127 O 0.70539 0.36342 0.14103 0.0
O128 O 0.76471 0.38224 0.13445 0.0
C129 C 0.74448 0.3677 0.14655 0.0
C130 C 0.71791 0.36056 0.07955 0.0
C131 C 0.76873 0.34742 0.15451 0.0
C132 C 0.78333 0.30489 0.15747 0.0
C133 C 0.76186 0.32372 0.14821 0.0
C134 C 0.81917 0.3333 0.17905 0.0
C135 C 0.81197 0.30945 0.17317 0.0
C136 C 0.79787 0.35201 0.1698 0.0
C137 C 0.66445 0.44362 0.13095 0.0
C138 C 0.64051 0.45419 0.16447 0.0
C139 C 0.66235 0.48526 0.1415 0.0
C140 C 0.67107 0.46794 0.12694 0.0
C141 C 0.64662 0.47863 0.16038 0.0
C142 C 0.64952 0.43684 0.14993 0.0
C143 C 0.67314 0.42578 0.1151 0.0
O144 O 0.7468 0.37568 0.08594 0.0
O145 O 0.68722 0.35715 0.09247 0.0
O146 O 0.65322 0.40517 0.11652 0.0
O147 O 0.71291 0.42356 0.10997 0.0
H148 H 0.66255 0.39243 0.06267 0.0
H149 H 0.64084 0.39403 0.02732 0.0
H150 H 0.72475 0.33551 1.01387 0.0
H151 H 0.74547 0.3338 0.04899 0.0
H152 H 0.77743 0.28678 0.15236 0.0
H153 H 0.73956 0.31974 0.13638 0.0
H154 H 0.8404 0.33755 0.19125 0.0
H155 H 0.80347 0.37015 0.17495 0.0
H156 H 0.6289 0.44848 0.17894 0.0
H157 H 0.66696 0.50392 0.13777 0.0
H158 H 0.68266 0.47357 0.11244 0.0
H159 H 0.64457 0.41817 0.15353 0.0
C160 C 0.69054 0.58489 0.65227 0.0
C161 C 0.64689 0.58051 0.65119 0.0
C162 C 0.65552 0.54237 0.66824 0.0
C163 C 0.62961 0.55948 0.6591 0.0
C164 C 0.69927 0.54647 0.66873 0.0
C165 C 0.71651 0.5675 0.66089 0.0
U166 U 0.71993 0.6325 0.61284 0.0
O167 O 0.7178 0.67182 0.61511 0.0
O168 O 0.7781 0.65372 0.60996 0.0
C169 C 0.75896 0.67402 0.61382 0.0
C170 C 0.70931 0.60798 0.64592 0.0
C171 C 0.7791 0.68971 0.62888 0.0
C172 C 0.81999 0.69586 0.65931 0.0
C173 C 0.79917 0.68049 0.6459 0.0
C174 C 0.79978 0.7298 0.63916 0.0
C175 C 0.82102 0.72071 0.65594 0.0
C176 C 0.77916 0.71446 0.62577 0.0
C177 C 0.69018 0.62047 0.55724 0.0
C178 C 0.66613 0.64465 0.52925 0.0
C179 C 0.70052 0.60683 0.52298 0.0
C180 C 0.70532 0.60349 0.54355 0.0
C181 C 0.68036 0.62729 0.51553 0.0
C182 C 0.67099 0.64129 0.54991 0.0
C183 C 0.69179 0.61485 0.57886 0.0
O184 O 0.74362 0.60671 0.63493 0.0
O185 O 0.68322 0.62471 0.63999 0.0
O186 O 0.66866 0.62791 0.59101 0.0
O187 O 0.72909 0.60978 0.5862 0.0
H188 H 0.62592 0.5935 0.64461 0.0
H189 H 0.59585 0.55673 0.65823 0.0
H190 H 0.72012 0.53383 0.67585 0.0
H191 H 0.75019 0.57047 0.66205 0.0
H192 H 0.83615 0.68824 0.67203 0.0
H193 H 0.79932 0.66142 0.64865 0.0
H194 H 0.79912 0.74884 0.63631 0.0
H195 H 0.76359 0.72195 0.61282 0.0
H196 H 0.6509 0.66074 0.52403 0.0
H197 H 0.71128 0.59288 0.51295 0.0
H198 H 0.71987 0.5872 0.54881 0.0
H199 H 0.65899 0.65474 0.5601 0.0
C200 C 0.81025 0.86704 0.05766 0.0
C201 C 0.82372 0.8897 0.05124 0.0
C202 C 0.83693 0.87389 1.01769 0.0
C203 C 0.8369 0.8931 0.03141 0.0
C204 C 0.8235 0.85124 0.02432 0.0
C205 C 0.81036 0.84788 0.04409 0.0
U206 U 0.79777 0.88585 0.11273 0.0
O207 O 0.74335 0.88141 0.13289 0.0
O208 O 0.80364 0.86445 0.14011 0.0
C209 C 0.76361 0.8668 0.14482 0.0
C210 C 0.79567 0.86294 0.07831 0.0
C211 C 0.7405 0.84505 0.15137 0.0
C212 C 0.73995 0.80358 0.16248 0.0
C213 C 0.76092 0.82296 0.15364 0.0
C214 C 0.67734 0.82767 0.16628 0.0
C215 C 0.69816 0.80585 0.16926 0.0
C216 C 0.69832 0.84704 0.15752 0.0
C217 C 0.84191 0.94656 0.13066 0.0
C218 C 0.86593 0.95869 0.16382 0.0
C219 C 0.84796 0.98869 0.13929 0.0
C220 C 0.83767 0.97069 0.12555 0.0
C221 C 0.86299 0.98295 0.15847 0.0
C222 C 0.85545 0.94064 0.15005 0.0
C223 C 0.83377 0.92813 0.11522 0.0
O224 O 0.82537 0.85981 0.09171 0.0
O225 O 0.76516 0.87688 0.08463 0.0
O226 O 0.79419 0.92506 0.11 0.0
O227 O 0.85453 0.90796 0.11695 0.0
H228 H 0.82402 0.90471 0.06154 0.0
H229 H 0.84751 0.91071 0.02689 0.0
H230 H 0.8225 0.83613 1.01415 0.0
H231 H 0.8 0.83028 0.04878 0.0
H232 H 0.7567 0.78691 0.16429 0.0
H233 H 0.79346 0.82077 0.14913 0.0
H234 H 0.64534 0.83016 0.17151 0.0
H235 H 0.6819 0.86389 0.15619 0.0
H236 H 0.87761 0.95362 0.17841 0.0
H237 H 0.84449 1.00716 0.1348 0.0
H238 H 0.82702 0.97566 0.11074 0.0
H239 H 0.85876 0.92212 0.15442 0.0
C240 C 0.2024 0.93304 0.37886 0.0
C241 C 0.16641 0.94402 0.38687 0.0
C242 C 0.1711 0.97547 0.3617 0.0
C243 C 0.15086 0.96507 0.37834 0.0
C244 C 0.20762 0.96455 0.35408 0.0
C245 C 0.22307 0.94361 0.3626 0.0
U246 U 0.21988 0.88543 0.4198 0.0
O247 O 0.21648 0.8463 0.41704 0.0
O248 O 0.2765 0.86361 0.42489 0.0
C249 C 0.25731 0.84372 0.4195 0.0
C250 C 0.21828 0.91013 0.38647 0.0
C251 C 0.27925 0.82924 0.40421 0.0
C252 C 0.28567 0.81383 0.3702 0.0
C253 C 0.265 0.82819 0.3843 0.0
C254 C 0.33579 0.80193 0.39553 0.0
C255 C 0.32121 0.80042 0.37568 0.0
C256 C 0.31497 0.81616 0.40964 0.0
C257 C 0.17701 0.89602 0.47341 0.0
C258 C 0.1979 0.87702 0.50455 0.0
C259 C 0.134 0.90045 0.50326 0.0
C260 C 0.14127 0.90511 0.48304 0.0
C261 C 0.16246 0.88662 0.51437 0.0
C262 C 0.20514 0.8817 0.48421 0.0
C263 C 0.18449 0.90259 0.45235 0.0
O264 O 0.24938 0.91146 0.3994 0.0
O265 O 0.18978 0.89392 0.39112 0.0
O266 O 0.16378 0.89004 0.43886 0.0
O267 O 0.2237 0.90721 0.44721 0.0
H268 H 0.15009 0.9362 0.39953 0.0
H269 H 0.12299 0.97317 0.38475 0.0
H270 H 0.22371 0.9718 0.34114 0.0
H271 H 0.25084 0.93536 0.3562 0.0
H272 H 0.27397 0.8133 0.35498 0.0
H273 H 0.23778 0.83835 0.37966 0.0
H274 H 0.36279 0.79166 0.4003 0.0
H275 H 0.32656 0.81678 0.42488 0.0
H276 H 0.22047 0.86634 0.51268 0.0
H277 H 0.10592 0.90765 0.51019 0.0
H278 H 0.11907 0.91607 0.47493 0.0
H279 H 0.2329 0.87442 0.47703 0.0
C280 C 0.3102 0.65547 0.97473 0.0
C281 C 0.34568 0.64182 0.97973 0.0
C282 C 0.33387 0.64996 1.0152 0.0
C283 C 0.35747 0.63914 0.9998 0.0
C284 C 0.29813 0.66336 1.01004 0.0
C285 C 0.28646 0.66606 0.99003 0.0
U286 U 0.3018 0.63679 0.91937 0.0
O287 O 0.25012 0.64205 0.89803 0.0
O288 O 0.31202 0.65844 0.89229 0.0
C289 C 0.27247 0.65647 0.88665 0.0
C290 C 0.29785 0.65954 0.95377 0.0
C291 C 0.25185 0.6786 0.87977 0.0
C292 C 0.19225 0.70583 0.87933 0.0
C293 C 0.21349 0.68653 0.88792 0.0
C294 C 0.24806 0.71009 0.85485 0.0
C295 C 0.20892 0.71755 0.86245 0.0
C296 C 0.2692 0.69083 0.86341 0.0
C297 C 0.3429 0.57649 0.90064 0.0
C298 C 0.37709 0.56477 0.86948 0.0
C299 C 0.33416 0.53611 0.88748 0.0
C300 C 0.32563 0.5534 0.9021 0.0
C301 C 0.36048 0.54151 0.87116 0.0
C302 C 0.3683 0.58211 0.88402 0.0
C303 C 0.33512 0.59407 0.91685 0.0
O304 O 0.32881 0.6624 0.94089 0.0
O305 O 0.26706 0.64601 0.9469 0.0
O306 O 0.29541 0.59762 0.92157 0.0
O307 O 0.35753 0.61391 0.91637 0.0
H308 H 0.36435 0.63336 0.96814 0.0
H309 H 0.38484 0.62845 1.00328 0.0
H310 H 0.27952 0.67217 0.02146 0.0
H311 H 0.25904 0.67668 0.98647 0.0
H312 H 0.16249 0.71136 0.88575 0.0
H313 H 0.19936 0.67751 0.90059 0.0
H314 H 0.26164 0.71849 0.84176 0.0
H315 H 0.29859 0.68496 0.85679 0.0
H316 H 0.3971 0.56953 0.85695 0.0
H317 H 0.32125 0.51829 0.88931 0.0
H318 H 0.30602 0.5486 0.91477 0.0
H319 H 0.38187 0.59979 0.88234 0.0
Eu320 Eu 0.05222 0.15093 0.24884 0.0
C321 C 0.88221 0.10844 0.27397 0.0
N322 N 0.89297 0.13195 0.27311 0.0
C323 C 0.82974 0.1406 0.25506 0.0
C324 C 0.84532 0.09989 0.26457 0.0
C325 C 0.86694 0.14818 0.26439 0.0
C326 C 0.81907 0.11631 0.25498 0.0
C327 C 0.89846 0.06838 0.28513 0.0
C328 C 0.90855 0.09293 0.2841 0.0
C329 C 0.86259 0.05959 0.27514 0.0
C330 C 0.83601 0.07532 0.26495 0.0
Eu331 Eu 0.95652 0.14336 0.28873 0.0
N332 N 0.94304 0.102 0.29361 0.0
C333 C 0.92409 0.0535 0.29662 0.0
C334 C 0.9656 0.08797 0.30631 0.0
C335 C 0.95727 0.06345 0.30759 0.0
H336 H 0.87508 0.16696 0.26453 0.0
H337 H 0.97596 0.05233 0.31733 0.0
H338 H 0.12535 0.11074 0.26437 0.0
H339 H 0.07577 0.24538 0.23316 0.0
H340 H 0.98932 0.09568 0.31589 0.0
H341 H 0.91748 0.03453 0.29777 0.0
H342 H 0.03946 0.20601 0.23168 0.0
H343 H 0.8094 0.15345 0.2479 0.0
H344 H 0.85466 0.04074 0.27556 0.0
H345 H 0.80816 0.06834 0.25755 0.0
H346 H 0.19266 0.11099 0.28256 0.0
H347 H 0.79044 0.11045 0.24758 0.0
H348 H 0.14234 0.2497 0.25217 0.0
N349 N 0.1193 0.14866 0.26442 0.0
C350 C 0.13961 0.16985 0.26741 0.0
C351 C 0.17775 0.12771 0.2787 0.0
C352 C 0.17917 0.17081 0.277 0.0
C353 C 0.13898 0.12766 0.26879 0.0
C354 C 0.19758 0.14941 0.28318 0.0
N355 N 0.08468 0.18884 0.24997 0.0
C356 C 0.06853 0.20793 0.23997 0.0
C357 C 0.14389 0.21247 0.26093 0.0
C358 C 0.12222 0.19046 0.25958 0.0
C359 C 0.12661 0.23248 0.2515 0.0
C360 C 0.08901 0.23012 0.24076 0.0
H361 H 0.22791 0.14938 0.29061 0.0
H362 H 0.23001 0.19404 0.2869 0.0
H363 H 0.1992 0.2305 0.27269 0.0
O364 O 0.03979 0.15448 0.21686 0.0
O365 O 0.03791 0.18048 0.27134 0.0
O366 O 0.01846 0.15953 0.2991 0.0
O367 O 0.09995 0.14132 0.22664 0.0
O368 O 0.98913 0.16696 0.24038 0.0
O369 O 0.95452 0.1772 0.26988 0.0
O370 O 0.92774 0.13744 0.31812 0.0
O371 O 0.95045 0.13055 0.2564 0.0
O372 O 0.01594 0.1161 0.2496 0.0
O373 O 0.92128 0.17165 0.30373 0.0
O374 O 0.02081 0.12902 0.29778 0.0
O375 O 0.05135 0.11719 0.26795 0.0
C376 C 0.03707 0.178 0.29084 0.0
C377 C 0.07386 0.12702 0.19581 0.0
C378 C 0.08253 0.11525 0.16084 0.0
C379 C 0.06789 0.09218 0.16568 0.0
C380 C 0.05971 0.1039 0.20038 0.0
C381 C 0.05672 0.08658 0.18535 0.0
C382 C 0.08538 0.13263 0.17609 0.0
C383 C 0.96186 0.17999 0.25055 0.0
C384 C 0.07577 0.14557 0.21138 0.0
C385 C 0.19983 0.19293 0.27937 0.0
C386 C 0.18233 0.21369 0.27126 0.0
C387 C 0.97489 0.11455 0.248 0.0
C388 C 0.92995 0.17149 0.33895 0.0
C389 C 0.92887 0.17409 0.37556 0.0
C390 C 0.95844 0.19291 0.37453 0.0
C391 C 0.95975 0.19014 0.33843 0.0
C392 C 0.9146 0.1635 0.35757 0.0
C393 C 0.97377 0.20075 0.35612 0.0
C394 C 0.04672 0.11531 0.2875 0.0
C395 C 0.91637 0.1596 0.32024 0.0
H396 H 0.06574 0.07836 0.15432 0.0
H397 H 0.05106 0.09928 0.21554 0.0
H398 H 0.0459 0.06873 0.18897 0.0
H399 H 0.09598 0.1506 0.17259 0.0
H400 H 0.96953 0.20178 0.38798 0.0
H401 H 0.97239 0.1965 0.32436 0.0
H402 H 0.89229 0.14877 0.35801 0.0
H403 H 0.99665 0.21512 0.35555 0.0
Eu404 Eu 0.45911 0.36886 0.74776 0.0
C405 C 0.63605 0.40284 0.78242 0.0
N406 N 0.61928 0.38133 0.77715 0.0
C407 C 0.68303 0.37084 0.76005 0.0
C408 C 0.67678 0.40953 0.77602 0.0
C409 C 0.64254 0.36501 0.76675 0.0
C410 C 0.7001 0.39329 0.76454 0.0
C411 C 0.62885 0.44076 0.79983 0.0
C412 C 0.61226 0.41826 0.79419 0.0
C413 C 0.66922 0.44758 0.79328 0.0
C414 C 0.69309 0.43203 0.7814 0.0
Eu415 Eu 0.55156 0.37263 0.78973 0.0
N416 N 0.57321 0.41121 0.80029 0.0
C417 C 0.60456 0.45566 0.81206 0.0
C418 C 0.55062 0.42507 0.81322 0.0
C419 C 0.56548 0.44765 0.81897 0.0
H420 H 0.63021 0.34738 0.76377 0.0
H421 H 0.54716 0.45865 0.82905 0.0
H422 H 0.38459 0.40568 0.76804 0.0
H423 H 0.44451 0.27514 0.72672 0.0
H424 H 0.52188 0.41849 0.81973 0.0
H425 H 0.61613 0.47309 0.81666 0.0
H426 H 0.47758 0.31539 0.72772 0.0
H427 H 0.70118 0.35794 0.7516 0.0
H428 H 0.68235 0.46483 0.7974 0.0
H429 H 0.72426 0.43751 0.77655 0.0
H430 H 0.3177 0.40182 0.78621 0.0
H431 H 0.73153 0.39775 0.75936 0.0
H432 H 0.37741 0.26785 0.74469 0.0
N433 N 0.39281 0.36813 0.76423 0.0
C434 C 0.37365 0.34629 0.76514 0.0
C435 C 0.33347 0.386 0.78069 0.0
C436 C 0.3343 0.34341 0.7747 0.0
C437 C 0.37215 0.38804 0.7708 0.0
C438 C 0.3148 0.36353 0.78297 0.0
N439 N 0.43031 0.33008 0.74653 0.0
C440 C 0.44845 0.31216 0.73567 0.0
C441 C 0.37246 0.30431 0.75549 0.0
C442 C 0.39242 0.32688 0.75564 0.0
C443 C 0.39176 0.28547 0.74513 0.0
C444 C 0.42971 0.28948 0.73502 0.0
H445 H 0.28458 0.36205 0.79044 0.0
H446 H 0.28499 0.31819 0.78261 0.0
H447 H 0.31836 0.28401 0.76575 0.0
O448 O 0.46829 0.36739 0.71526 0.0
O449 O 0.47184 0.33858 0.76952 0.0
O450 O 0.48648 0.35936 0.79788 0.0
O451 O 0.40881 0.37896 0.72736 0.0
O452 O 0.52356 0.35524 0.73893 0.0
O453 O 0.55313 0.3409 0.76818 0.0
O454 O 0.57589 0.3737 0.82047 0.0
O455 O 0.56357 0.39135 0.75984 0.0
O456 O 0.49758 0.40293 0.74904 0.0
O457 O 0.578 0.34039 0.80315 0.0
O458 O 0.48855 0.38981 0.79733 0.0
O459 O 0.45917 0.40235 0.76742 0.0
C460 C 0.4693 0.3409 0.78899 0.0
C461 C 0.42928 0.3952 0.69643 0.0
C462 C 0.41837 0.40779 0.66185 0.0
C463 C 0.42257 0.43177 0.66813 0.0
C464 C 0.43323 0.41919 0.70235 0.0
C465 C 0.43004 0.43735 0.68821 0.0
C466 C 0.42202 0.38956 0.67622 0.0
C467 C 0.54835 0.3404 0.74855 0.0
C468 C 0.43121 0.37594 0.71126 0.0
C469 C 0.31503 0.32074 0.77519 0.0
C470 C 0.33398 0.30128 0.76554 0.0
C471 C 0.53885 0.4049 0.74888 0.0
C472 C 0.6062 0.33905 0.83714 0.0
C473 C 0.62985 0.33867 0.87197 0.0
C474 C 0.64701 0.31587 0.8688 0.0
C475 C 0.62329 0.31615 0.83444 0.0
C476 C 0.60914 0.3502 0.8561 0.0
C477 C 0.6435 0.30467 0.85019 0.0
C478 C 0.46507 0.40462 0.7869 0.0
C479 C 0.5864 0.35126 0.82001 0.0
H480 H 0.41925 0.44629 0.65759 0.0
H481 H 0.43871 0.42384 0.7179 0.0
H482 H 0.4331 0.45585 0.69284 0.0
H483 H 0.4192 0.37096 0.67175 0.0
H484 H 0.66283 0.30661 0.88084 0.0
H485 H 0.62144 0.30717 0.82007 0.0
H486 H 0.59603 0.36785 0.85846 0.0
H487 H 0.65669 0.28706 0.84795 0.0
Eu488 Eu 0.05342 0.87511 0.74725 0.0
C489 C 0.86851 0.84732 0.771 0.0
N490 N 0.88631 0.86937 0.77295 0.0
C491 C 0.82374 0.88765 0.76031 0.0
C492 C 0.82744 0.84463 0.76325 0.0
C493 C 0.86465 0.88945 0.76791 0.0
C494 C 0.80508 0.86515 0.75791 0.0
C495 C 0.87463 0.80419 0.77374 0.0
C496 C 0.89202 0.8273 0.77614 0.0
C497 C 0.83372 0.80148 0.76604 0.0
C498 C 0.8102 0.82163 0.76083 0.0
Eu499 Eu 0.95549 0.8706 0.78556 0.0
N500 N 0.93203 0.83039 0.78312 0.0
C501 C 0.89885 0.78445 0.77921 0.0
C502 C 0.95455 0.81128 0.7897 0.0
C503 C 0.93873 0.78804 0.78748 0.0
H504 H 0.87869 0.9069 0.77001 0.0
H505 H 0.95711 0.77293 0.79243 0.0
H506 H 0.12575 0.83349 0.7578 0.0
H507 H 0.06742 0.97265 0.74666 0.0
H508 H 0.98415 0.81373 0.79717 0.0
H509 H 0.88668 0.76641 0.77751 0.0
H510 H 0.03274 0.93378 0.74072 0.0
H511 H 0.80661 0.90362 0.75632 0.0
H512 H 0.81993 0.78387 0.76409 0.0
H513 H 0.77875 0.81922 0.75483 0.0
H514 H 0.19861 0.83161 0.77066 0.0
H515 H 0.77344 0.86381 0.75192 0.0
H516 H 0.14018 0.97413 0.75986 0.0
N517 N 0.12352 0.87139 0.75837 0.0
C518 C 0.14503 0.89218 0.76145 0.0
C519 C 0.18382 0.84875 0.76828 0.0
C520 C 0.18685 0.89198 0.76854 0.0
C521 C 0.1424 0.84984 0.76127 0.0
C522 C 0.20609 0.86991 0.77204 0.0
N523 N 0.08416 0.91343 0.75145 0.0
C524 C 0.06399 0.93415 0.74686 0.0
C525 C 0.14627 0.93562 0.76111 0.0
C526 C 0.12498 0.91378 0.75772 0.0
C527 C 0.12499 0.95699 0.75734 0.0
C528 C 0.08383 0.95623 0.74999 0.0
H529 H 0.23818 0.86901 0.77748 0.0
H530 H 0.24013 0.91391 0.77752 0.0
H531 H 0.20456 0.95207 0.77111 0.0
O532 O 0.04917 0.88584 0.71591 0.0
O533 O 0.06032 0.89201 0.77827 0.0
O534 O 0.99398 0.90461 0.78714 0.0
O535 O 0.09691 0.86077 0.72493 0.0
O536 O 0.99184 0.89321 0.73883 0.0
O537 O 0.95794 0.90514 0.76793 0.0
O538 O 0.95742 0.86256 0.81758 0.0
O539 O 0.94797 0.8565 0.75376 0.0
O540 O 0.01287 0.8416 0.74552 0.0
O541 O 0.90855 0.88528 0.80604 0.0
O542 O 0.01869 0.85438 0.79424 0.0
O543 O 0.04846 0.84087 0.76483 0.0
C544 C 0.03514 0.90651 0.78806 0.0
C545 C 0.06974 0.85685 0.69231 0.0
C546 C 0.07441 0.85019 0.65624 0.0
C547 C 0.05083 0.82898 0.65853 0.0
C548 C 0.04648 0.83563 0.69424 0.0
C549 C 0.03708 0.82178 0.67743 0.0
C550 C 0.08376 0.86408 0.67332 0.0
C551 C 0.96579 0.90735 0.74862 0.0
C552 C 0.07913 0.87162 0.70999 0.0
C553 C 0.20806 0.91372 0.77199 0.0
C554 C 0.18782 0.93546 0.76831 0.0
C555 C 0.97161 0.84117 0.74405 0.0
C556 C 0.93272 0.89325 0.83873 0.0
C557 C 0.9283 0.90264 0.87446 0.0
C558 C 0.94577 0.92534 0.8705 0.0
C559 C 0.94996 0.91597 0.8352 0.0
C560 C 0.92198 0.8866 0.85837 0.0
C561 C 0.95654 0.93187 0.85101 0.0
C562 C 0.04488 0.84035 0.78443 0.0
C563 C 0.92595 0.87648 0.822 0.0
H564 H 0.04359 0.81774 0.64573 0.0
H565 H 0.03586 0.82977 0.70877 0.0
H566 H 0.01933 0.80533 0.67907 0.0
H567 H 0.10146 0.88062 0.67185 0.0
H568 H 0.95038 0.93828 0.8824 0.0
H569 H 0.9579 0.92144 0.82018 0.0
H570 H 0.909 0.86894 0.86107 0.0
H571 H 0.96961 0.94943 0.84813 0.0
Eu572 Eu 0.4604 0.64806 0.24747 0.0
C573 C 0.63029 0.68447 0.27811 0.0
N574 N 0.61948 0.66127 0.27489 0.0
C575 C 0.68286 0.655 0.25615 0.0
C576 C 0.66735 0.69416 0.26974 0.0
C577 C 0.64572 0.64621 0.26476 0.0
C578 C 0.69348 0.67916 0.25844 0.0
C579 C 0.61516 0.72241 0.29412 0.0
C580 C 0.60443 0.69836 0.29011 0.0
C581 C 0.65124 0.73244 0.28522 0.0
C582 C 0.67742 0.7183 0.27317 0.0
Eu583 Eu 0.55499 0.64812 0.28862 0.0
N584 N 0.57004 0.68802 0.29867 0.0
C585 C 0.59004 0.73541 0.30747 0.0
C586 C 0.54792 0.69996 0.31308 0.0
C587 C 0.55675 0.72398 0.31728 0.0
H588 H 0.63728 0.62758 0.26293 0.0
H589 H 0.53825 0.73355 0.3283 0.0
H590 H 0.39213 0.68953 0.26528 0.0
H591 H 0.42499 0.55549 0.22783 0.0
H592 H 0.52366 0.69097 0.32155 0.0
H593 H 0.5971 0.75395 0.31089 0.0
H594 H 0.46481 0.59376 0.227 0.0
H595 H 0.70322 0.64318 0.24774 0.0
H596 H 0.6598 0.75094 0.288 0.0
H597 H 0.70585 0.72605 0.26693 0.0
H598 H 0.32628 0.69065 0.2848 0.0
H599 H 0.72222 0.68594 0.25173 0.0
H600 H 0.3608 0.55201 0.24875 0.0
N601 N 0.39477 0.65153 0.26431 0.0
C602 C 0.3728 0.63086 0.26704 0.0
C603 C 0.33936 0.67365 0.2802 0.0
C604 C 0.33402 0.63068 0.27738 0.0
C605 C 0.37727 0.67291 0.26954 0.0
C606 C 0.31804 0.65238 0.2845 0.0
N607 N 0.424 0.61114 0.24756 0.0
C608 C 0.43681 0.59222 0.23613 0.0
C609 C 0.36389 0.58872 0.25913 0.0
C610 C 0.38745 0.61011 0.2581 0.0
C611 C 0.37807 0.56877 0.24837 0.0
C612 C 0.4143 0.57065 0.23654 0.0
H613 H 0.28837 0.65303 0.29252 0.0
H614 H 0.28204 0.60856 0.28761 0.0
H615 H 0.30822 0.57181 0.2716 0.0
O616 O 0.4691 0.64601 0.21494 0.0
O617 O 0.47107 0.61623 0.26812 0.0
O618 O 0.49032 0.63464 0.29711 0.0
O619 O 0.41414 0.66316 0.22702 0.0
O620 O 0.52081 0.6296 0.23794 0.0
O621 O 0.55499 0.61654 0.26678 0.0
O622 O 0.58443 0.64808 0.31849 0.0
O623 O 0.56501 0.66163 0.25694 0.0
O624 O 0.50354 0.68051 0.24925 0.0
O625 O 0.58222 0.61536 0.30047 0.0
O626 O 0.49156 0.66413 0.29724 0.0
O627 O 0.46658 0.68054 0.268 0.0
C628 C 0.4726 0.61668 0.28773 0.0
C629 C 0.40579 0.64191 0.19674 0.0
C630 C 0.38598 0.63161 0.16246 0.0
C631 C 0.35615 0.61526 0.16995 0.0
C632 C 0.37493 0.62595 0.20383 0.0
C633 C 0.35062 0.61255 0.1905 0.0
C634 C 0.41095 0.64489 0.17599 0.0
C635 C 0.54584 0.61466 0.24749 0.0
C636 C 0.4326 0.6553 0.21093 0.0
C637 C 0.31163 0.60909 0.27951 0.0
C638 C 0.32649 0.58816 0.27036 0.0
C639 C 0.54481 0.67963 0.2491 0.0
C640 C 0.61563 0.61222 0.33308 0.0
C641 C 0.63443 0.60647 0.36822 0.0
C642 C 0.65442 0.58498 0.36293 0.0
C643 C 0.63571 0.59064 0.32825 0.0
C644 C 0.61553 0.6203 0.35312 0.0
C645 C 0.65518 0.57722 0.34309 0.0
C646 C 0.46987 0.68049 0.28763 0.0
C647 C 0.59352 0.62548 0.31722 0.0
H648 H 0.33625 0.60502 0.15987 0.0
H649 H 0.36927 0.62396 0.21965 0.0
H650 H 0.32708 0.60022 0.19614 0.0
H651 H 0.43432 0.65741 0.1704 0.0
H652 H 0.66972 0.57419 0.3742 0.0
H653 H 0.63632 0.58408 0.31297 0.0
H654 H 0.59968 0.63678 0.35705 0.0
H655 H 0.67068 0.56064 0.33922 0.0
C656 C 0.11018 0.99949 0.34884 0.0
C657 C 0.15374 0.99712 0.35179 0.0
C658 C 0.09366 0.01914 0.33848 0.0
C659 C 0.12133 0.03679 0.33078 0.0
C660 C 0.16524 0.03468 0.33389 0.0
C661 C 0.18087 0.01497 0.34444 0.0
C662 C 0.0466 0.02086 0.33557 0.0
C663 C 0.19576 0.05312 0.32587 0.0
C664 C 0.08064 0.07503 0.28809 0.0
C665 C 0.06875 0.09594 0.29821 0.0
C666 C 0.09845 0.05578 0.29845 0.0
C667 C 0.10431 0.05746 0.31943 0.0
C668 C 0.09321 0.07875 0.32963 0.0
C669 C 0.0758 0.09778 0.31887 0.0
C670 C 0.11018 0.03344 0.28701 0.0
C671 C 0.09877 0.08123 0.35198 0.0
H672 H 0.08898 0.98568 0.3542 0.0
H673 H 0.2145 0.01352 0.34691 0.0
H674 H 0.03492 0.03794 0.34193 0.0
H675 H 0.03907 0.02085 0.31936 0.0
H676 H 0.02929 1.00586 0.34276 0.0
H677 H 0.229 0.04884 0.32953 0.0
H678 H 0.19264 0.05434 0.30937 0.0
H679 H 0.18826 0.07099 0.33213 0.0
H680 H 0.07502 0.07346 0.27213 0.0
H681 H 0.06689 0.11399 0.32673 0.0
H682 H 0.09078 0.01816 0.2923 0.0
H683 H 0.14364 0.02892 0.28981 0.0
H684 H 0.10545 0.03541 0.27063 0.0
H685 H 0.0792 0.06764 0.35975 0.0
H686 H 0.08971 0.09923 0.35755 0.0
H687 H 0.13205 0.07791 0.35613 0.0
C688 C 0.3421 0.5065 0.84906 0.0
C689 C 0.37238 0.52256 0.85656 0.0
C690 C 0.35366 0.48758 0.83632 0.0
C691 C 0.39657 0.48454 0.83112 0.0
C692 C 0.42709 0.50105 0.83825 0.0
C693 C 0.41462 0.51987 0.85083 0.0
C694 C 0.32017 0.47051 0.82881 0.0
C695 C 0.47327 0.4982 0.83337 0.0
C696 C 0.43723 0.42266 0.81847 0.0
C697 C 0.44369 0.42427 0.79775 0.0
C698 C 0.42115 0.44198 0.82943 0.0
C699 C 0.41015 0.46326 0.81936 0.0
C700 C 0.41439 0.46455 0.79828 0.0
C701 C 0.43135 0.44505 0.78772 0.0
C702 C 0.41748 0.43991 0.85189 0.0
C703 C 0.40243 0.48681 0.78699 0.0
H704 H 0.30934 0.50867 0.85326 0.0
H705 H 0.43826 0.53201 0.85679 0.0
H706 H 0.32188 0.46893 0.81227 0.0
H707 H 0.32566 0.45244 0.83502 0.0
H708 H 0.28794 0.47628 0.83308 0.0
H709 H 0.49233 0.51387 0.83828 0.0
H710 H 0.48544 0.48207 0.84097 0.0
H711 H 0.47788 0.49559 0.81705 0.0
H712 H 0.44592 0.40645 0.82626 0.0
H713 H 0.43601 0.44635 0.77168 0.0
H714 H 0.38491 0.44405 0.85678 0.0
H715 H 0.43875 0.45313 0.85917 0.0
H716 H 0.42578 0.42179 0.85733 0.0
H717 H 0.37003 0.49237 0.79107 0.0
H718 H 0.40406 0.4842 0.77052 0.0
H719 H 0.42399 0.50168 0.7912 0.0
C720 C 0.60059 0.52312 0.69002 0.0
C721 C 0.63697 0.52095 0.6782 0.0
C722 C 0.58427 0.50351 0.70062 0.0
C723 C 0.6048 0.48114 0.69941 0.0
C724 C 0.64097 0.47866 0.68718 0.0
C725 C 0.65661 0.49858 0.67672 0.0
C726 C 0.54572 0.5069 0.71358 0.0
C727 C 0.6635 0.45504 0.68539 0.0
C728 C 0.589 0.43884 0.74315 0.0
C729 C 0.55769 0.42342 0.7359 0.0
C730 C 0.60502 0.45748 0.73134 0.0
C731 C 0.58947 0.46067 0.71168 0.0
C732 C 0.55848 0.44475 0.70407 0.0
C733 C 0.54282 0.42639 0.71634 0.0
C734 C 0.638 0.47407 0.74005 0.0
C735 C 0.54115 0.44738 0.68318 0.0
H736 H 0.58554 0.54038 0.69151 0.0
H737 H 0.68438 0.49665 0.66741 0.0
H738 H 0.52091 0.49381 0.70929 0.0
H739 H 0.55382 0.50353 0.72947 0.0
H740 H 0.53259 0.5252 0.71237 0.0
H741 H 0.69021 0.45581 0.67464 0.0
H742 H 0.6758 0.44968 0.70023 0.0
H743 H 0.64115 0.44089 0.68044 0.0
H744 H 0.59987 0.43696 0.7583 0.0
H745 H 0.51908 0.4142 0.71061 0.0
H746 H 0.62697 0.49284 0.73944 0.0
H747 H 0.66734 0.47298 0.73107 0.0
H748 H 0.64558 0.46971 0.75583 0.0
H749 H 0.52027 0.46321 0.68265 0.0
H750 H 0.52267 0.43141 0.67842 0.0
H751 H 0.56694 0.45035 0.67224 0.0
C752 C 0.86815 1.00121 0.19297 0.0
C753 C 0.87726 1.00223 0.17241 0.0
C754 C 0.88223 0.01925 0.20614 0.0
C755 C 0.90597 0.03873 0.19857 0.0
C756 C 0.91503 0.03992 0.17785 0.0
C757 C 0.90071 0.02167 0.16507 0.0
C758 C 0.87172 0.0175 0.22813 0.0
C759 C 0.94045 0.06033 0.16919 0.0
C760 C 0.91638 0.09715 0.22745 0.0
C761 C 0.95641 0.09487 0.23601 0.0
C762 C 0.89886 0.07866 0.21582 0.0
C763 C 0.92243 0.05763 0.21228 0.0
C764 C 0.96286 0.05523 0.22096 0.0
C765 C 0.9792 0.0738 0.23285 0.0
C766 C 0.85545 0.0818 0.20705 0.0
C767 C 0.98919 0.03321 0.21741 0.0
H768 H 0.84969 0.98641 0.19874 0.0
H769 H 0.9086 0.02241 0.1493 0.0
H770 H 0.90103 0.01783 0.23717 0.0
H771 H 0.85276 0.03317 0.23278 0.0
H772 H 0.85377 1.00096 0.23173 0.0
H773 H 0.94326 0.05915 0.15264 0.0
H774 H 0.92577 0.07768 0.17315 0.0
H775 H 0.97256 0.06036 0.17571 0.0
H776 H 0.89898 0.11357 0.22958 0.0
H777 H 0.01006 0.07187 0.23958 0.0
H778 H 0.8345 0.06701 0.21197 0.0
H779 H 0.85713 0.08102 0.19047 0.0
H780 H 0.84096 0.09905 0.21155 0.0
H781 H 0.97162 0.01703 0.22225 0.0
H782 H 0.01969 0.03396 0.22553 0.0
H783 H 0.99575 0.03116 0.20118 0.0
C784 C 0.83782 1.00473 0.68539 0.0
C785 C 0.86295 0.025 0.6818 0.0
C786 C 0.85321 0.98533 0.69642 0.0
C787 C 0.89485 0.98611 0.70396 0.0
C788 C 0.92058 1.00637 0.70022 0.0
C789 C 0.90432 0.02557 0.68922 0.0
C790 C 0.82488 0.964 0.70004 0.0
C791 C 0.96521 1.00783 0.70798 0.0
C792 C 0.92482 0.94561 0.74727 0.0
C793 C 0.94583 0.92704 0.7373 0.0
C794 C 0.90768 0.96485 0.7366 0.0
C795 C 0.91178 0.96557 0.71549 0.0
C796 C 0.93257 0.94676 0.70535 0.0
C797 C 0.94926 0.92775 0.71636 0.0
C798 C 0.88567 0.98458 0.74794 0.0
C799 C 0.93769 0.94686 0.68287 0.0
H800 H 0.80604 1.00398 0.6795 0.0
H801 H 0.92376 0.04128 0.68681 0.0
H802 H 0.83933 0.94767 0.6936 0.0
H803 H 0.82124 0.96099 0.71636 0.0
H804 H 0.79312 0.96628 0.69337 0.0
H805 H 0.98123 0.02474 0.70364 0.0
H806 H 0.96522 1.00651 0.72454 0.0
H807 H 0.98383 0.99259 0.70213 0.0
H808 H 0.92232 0.94535 0.76344 0.0
H809 H 0.96535 0.91349 0.70848 0.0
H810 H 0.85311 0.98673 0.74222 0.0
H811 H 0.90242 1.00179 0.74552 0.0
H812 H 0.88418 0.98106 0.76427 0.0
H813 H 0.90639 0.94791 0.67557 0.0
H814 H 0.95409 0.93067 0.67724 0.0
H815 H 0.95596 0.96287 0.67823 0.0
C816 C 0.59727 0.49568 0.18608 0.0
C817 C 0.63531 0.49727 0.17541 0.0
C818 C 0.58453 0.5141 0.19907 0.0
C819 C 0.61048 0.53458 0.20151 0.0
C820 C 0.6496 0.5359 0.19136 0.0
C821 C 0.66152 0.51725 0.17843 0.0
C822 C 0.54252 0.51205 0.20958 0.0
C823 C 0.67825 0.55737 0.19366 0.0
C824 C 0.55627 0.59274 0.21515 0.0
C825 C 0.56412 0.5946 0.23578 0.0
C826 C 0.57138 0.57339 0.20389 0.0
C827 C 0.59518 0.5554 0.21341 0.0
C828 C 0.60382 0.55727 0.23415 0.0
C829 C 0.58818 0.57685 0.2451 0.0
C830 C 0.5614 0.5721 0.18181 0.0
C831 C 0.62913 0.53844 0.24481 0.0
H832 H 0.57666 0.48042 0.1837 0.0
H833 H 0.69125 0.51842 0.1705 0.0
H834 H 0.54645 0.51501 0.2259 0.0
H835 H 0.52097 0.52609 0.20401 0.0
H836 H 0.52738 0.49432 0.20716 0.0
H837 H 0.7088 0.55496 0.18579 0.0
H838 H 0.66257 0.57343 0.18753 0.0
H839 H 0.68456 0.56093 0.20973 0.0
H840 H 0.53784 0.60632 0.20771 0.0
H841 H 0.59445 0.57806 0.26102 0.0
H842 H 0.54329 0.55554 0.17848 0.0
H843 H 0.59101 0.57132 0.17299 0.0
H844 H 0.5428 0.58767 0.17665 0.0
H845 H 0.61278 0.5209 0.2437 0.0
H846 H 0.634 0.5428 0.26088 0.0
H847 H 0.66035 0.53641 0.23753 0.0
C848 C 0.41212 0.50062 0.35193 0.0
C849 C 0.36824 0.49752 0.35292 0.0
C850 C 0.43008 0.52028 0.34197 0.0
C851 C 0.40356 0.5372 0.33266 0.0
C852 C 0.3593 0.53442 0.33386 0.0
C853 C 0.3422 0.51472 0.34406 0.0
C854 C 0.47746 0.52268 0.34102 0.0
C855 C 0.32999 0.55201 0.32402 0.0
C856 C 0.44688 0.59881 0.31979 0.0
C857 C 0.45579 0.59627 0.29934 0.0
C858 C 0.43026 0.57967 0.33088 0.0
C859 C 0.4221 0.55753 0.32125 0.0
C860 C 0.43138 0.55483 0.30063 0.0
C861 C 0.44859 0.57414 0.29002 0.0
C862 C 0.42121 0.58318 0.35288 0.0
C863 C 0.42274 0.53162 0.28971 0.0
H864 H 0.43256 0.48731 0.35847 0.0
H865 H 0.30827 0.51273 0.34501 0.0
H866 H 0.48812 0.52146 0.32523 0.0
H867 H 0.48742 0.54045 0.34679 0.0
H868 H 0.49366 0.50862 0.34978 0.0
H869 H 0.29628 0.54757 0.32666 0.0
H870 H 0.33625 0.57033 0.32975 0.0
H871 H 0.33577 0.55227 0.30764 0.0
H872 H 0.45253 0.61586 0.32712 0.0
H873 H 0.45665 0.57184 0.2744 0.0
H874 H 0.4388 0.56984 0.36178 0.0
H875 H 0.38719 0.58024 0.35586 0.0
H876 H 0.43003 0.60137 0.3582 0.0
H877 H 0.43898 0.51666 0.29727 0.0
H878 H 0.43319 0.5322 0.27384 0.0
H879 H 0.38847 0.52764 0.29005 0.0
C880 C 0.13646 0.02203 0.84246 0.0
C881 C 0.13006 0.01967 0.86316 0.0
C882 C 0.12418 1.00378 0.8291 0.0
C883 C 0.10494 0.98276 0.83664 0.0
C884 C 0.09947 0.98001 0.85753 0.0
C885 C 0.11223 0.99842 0.8705 0.0
C886 C 0.13077 1.00722 0.80691 0.0
C887 C 0.07909 0.95786 0.86616 0.0
C888 C 0.02963 0.94666 0.8043 0.0
C889 C 0.05382 0.9265 0.79965 0.0
C890 C 0.04621 0.96533 0.81599 0.0
C891 C 0.08837 0.96408 0.82278 0.0
C892 C 0.11356 0.94425 0.81738 0.0
C893 C 0.09582 0.92556 0.80606 0.0
C894 C 0.01827 0.98614 0.82143 0.0
C895 C 0.1589 0.94249 0.82397 0.0
H896 H 0.15002 0.03842 0.83664 0.0
H897 H 0.10804 0.9962 0.88649 0.0
H898 H 0.14764 0.99168 0.80043 0.0
H899 H 0.09981 1.00827 0.79928 0.0
H900 H 0.14897 0.02374 0.80355 0.0
H901 H 0.07872 0.95806 0.88279 0.0
H902 H 0.04614 0.95633 0.86076 0.0
H903 H 0.096 0.94165 0.86102 0.0
H904 H 0.99753 0.94783 0.7989 0.0
H905 H 0.11474 0.91005 0.80247 0.0
H906 H 0.03261 1.00309 0.8161 0.0
H907 H 0.0153 0.98753 0.83794 0.0
H908 H 0.9862 0.98439 0.81492 0.0
H909 H 0.1765 0.95884 0.81959 0.0
H910 H 0.17496 0.9267 0.81738 0.0
H911 H 0.16039 0.9412 0.84052 0.0
C912 C 0.1369 0.15788 0.04884 0.0
C913 C 0.16163 0.14062 0.03912 0.0
C914 C 0.12356 0.15475 0.06872 0.0
C915 C 0.13512 0.13382 0.07916 0.0
C916 C 0.16001 0.11631 0.06945 0.0
C917 C 0.17293 0.1199 0.04957 0.0
C918 C 0.097 0.17382 0.07853 0.0
C919 C 0.17312 0.09379 0.08012 0.0
C920 C 0.13266 0.13354 0.1361 0.0
C921 C 0.09513 0.121 0.13995 0.0
C922 C 0.14583 0.13811 0.11639 0.0
C923 C 0.12077 0.13005 0.10016 0.0
C924 C 0.08239 0.11787 0.10398 0.0
C925 C 0.0701 0.11345 0.12382 0.0
C926 C 0.18698 0.15114 0.11294 0.0
C927 C 0.05456 0.10922 0.0871 0.0
H928 H 0.12753 0.17378 0.04081 0.0
H929 H 0.1925 0.10663 0.04228 0.0
H930 H 0.06628 0.16611 0.08323 0.0
H931 H 0.11288 0.1806 0.09222 0.0
H932 H 0.091 0.18914 0.06841 0.0
H933 H 0.19252 0.08192 0.07049 0.0
H934 H 0.19149 0.09845 0.09372 0.0
H935 H 0.14481 0.08371 0.08509 0.0
H936 H 0.1523 0.13925 0.14851 0.0
H937 H 0.04074 0.10408 0.12672 0.0
H938 H 0.18181 0.16704 0.10339 0.0
H939 H 0.20922 0.13929 0.10485 0.0
H940 H 0.20194 0.15706 0.12716 0.0
H941 H 0.04631 0.12435 0.07719 0.0
H942 H 0.02497 0.1008 0.0926 0.0
H943 H 0.07178 0.09596 0.07784 0.0
C944 C 0.3798 0.37772 0.5448 0.0
C945 C 0.34697 0.39249 0.53822 0.0
C946 C 0.39167 0.37722 0.56508 0.0
C947 C 0.3706 0.39203 0.57906 0.0
C948 C 0.3364 0.40621 0.57266 0.0
C949 C 0.32479 0.40609 0.55241 0.0
C950 C 0.42781 0.36153 0.57139 0.0
C951 C 0.31312 0.42231 0.58707 0.0
C952 C 0.37963 0.38412 0.63544 0.0
C953 C 0.40895 0.40206 0.6405 0.0
C954 C 0.36812 0.37991 0.61541 0.0
C955 C 0.38596 0.39415 0.60008 0.0
C956 C 0.4166 0.4117 0.60501 0.0
C957 C 0.4279 0.41531 0.6251 0.0
C958 C 0.3358 0.36079 0.61073 0.0
C959 C 0.43637 0.4273 0.58914 0.0
H960 H 0.39737 0.36725 0.534 0.0
H961 H 0.29874 0.41711 0.5476 0.0
H962 H 0.45499 0.37285 0.57594 0.0
H963 H 0.41868 0.35063 0.58456 0.0
H964 H 0.43815 0.34935 0.55918 0.0
H965 H 0.28621 0.43154 0.57988 0.0
H966 H 0.30105 0.41183 0.59993 0.0
H967 H 0.33505 0.43605 0.59314 0.0
H968 H 0.36453 0.37388 0.64719 0.0
H969 H 0.45128 0.42882 0.62879 0.0
H970 H 0.34724 0.349 0.59852 0.0
H971 H 0.30632 0.36924 0.60544 0.0
H972 H 0.32827 0.34963 0.62399 0.0
H973 H 0.45067 0.41609 0.57724 0.0
H974 H 0.46105 0.43939 0.59533 0.0
H975 H 0.41173 0.43837 0.58199 0.0
C976 C 0.66286 0.38597 0.98565 0.0
C977 C 0.66692 0.36462 0.99645 0.0
C978 C 0.65338 0.38563 0.96505 0.0
C979 C 0.64783 0.36344 0.95505 0.0
C980 C 0.65018 0.34193 0.9661 0.0
C981 C 0.65954 0.3428 0.98659 0.0
C982 C 0.65092 0.40894 0.95382 0.0
C983 C 0.64429 0.31786 0.95612 0.0
C984 C 0.59833 0.3548 0.90365 0.0
C985 C 0.63404 0.34988 0.89202 0.0
C986 C 0.60228 0.36084 0.92406 0.0
C987 C 0.64288 0.3622 0.93285 0.0
C988 C 0.67902 0.35907 0.92067 0.0
C989 C 0.67413 0.35277 0.90046 0.0
C990 C 0.56297 0.36404 0.93648 0.0
C991 C 0.7229 0.36066 0.92929 0.0
H992 H 0.66858 0.40291 0.99313 0.0
H993 H 0.66164 0.32625 0.9949 0.0
H994 H 0.67763 0.41024 0.94315 0.0
H995 H 0.62147 0.40965 0.94492 0.0
H996 H 0.65205 0.42467 0.96402 0.0
H997 H 0.64481 0.30291 0.96701 0.0
H998 H 0.6139 0.31727 0.94794 0.0
H999 H 0.66974 0.31495 0.94498 0.0
H1000 H 0.56732 0.35246 0.89712 0.0
H1001 H 0.70172 0.3491 0.89139 0.0
H1002 H 0.56594 0.37994 0.94637 0.0
H1003 H 0.55854 0.34822 0.94624 0.0
H1004 H 0.53443 0.36601 0.92703 0.0
H1005 H 0.72647 0.37702 0.93859 0.0
H1006 H 0.74749 0.36082 0.91745 0.0
H1007 H 0.72847 0.34506 0.93914 0.0
C1008 C 0.84658 0.1628 0.4877 0.0
C1009 C 0.84892 0.13955 0.49541 0.0
C1010 C 0.85616 0.16746 0.46752 0.0
C1011 C 0.86834 0.14842 0.45474 0.0
C1012 C 0.86899 0.1248 0.46222 0.0
C1013 C 0.85925 0.12066 0.48242 0.0
C1014 C 0.85501 0.19291 0.4601 0.0
C1015 C 0.88143 0.10397 0.44907 0.0
C1016 C 0.87068 0.1602 0.39856 0.0
C1017 C 0.91339 0.16575 0.39545 0.0
C1018 C 0.85558 0.15401 0.41768 0.0
C1019 C 0.88379 0.15352 0.43409 0.0
C1020 C 0.92708 0.15843 0.43091 0.0
C1021 C 0.94134 0.1643 0.41167 0.0
C1022 C 0.80931 0.14857 0.42041 0.0
C1023 C 0.95831 0.15796 0.44796 0.0
H1024 H 0.83884 0.17752 0.49762 0.0
H1025 H 0.86025 0.10257 0.48814 0.0
H1026 H 0.88736 0.19887 0.45616 0.0
H1027 H 0.83564 0.19404 0.44633 0.0
H1028 H 0.84201 0.20542 0.47146 0.0
H1029 H 0.87711 0.08652 0.4567 0.0
H1030 H 0.86258 0.10388 0.4351 0.0
H1031 H 0.91502 0.1058 0.44469 0.0
H1032 H 0.84879 0.16137 0.38617 0.0
H1033 H 0.97455 0.16796 0.40935 0.0
H1034 H 0.7948 0.16244 0.43008 0.0
H1035 H 0.80507 0.13116 0.42807 0.0
H1036 H 0.79211 0.14798 0.40595 0.0
H1037 H 0.94948 0.17145 0.45941 0.0
H1038 H 0.99103 0.16174 0.44292 0.0
H1039 H 0.95766 0.14022 0.45532 0.0
C1040 C 0.83901 0.89785 0.98588 0.0
C1041 C 0.85068 0.87733 0.99652 0.0
C1042 C 0.85139 0.90112 0.96587 0.0
C1043 C 0.87594 0.88343 0.95618 0.0
C1044 C 0.88765 0.86264 0.96677 0.0
C1045 C 0.87505 0.85989 0.98679 0.0
C1046 C 0.83828 0.92356 0.95509 0.0
C1047 C 0.91372 0.84335 0.95697 0.0
C1048 C 0.87813 0.88398 0.89918 0.0
C1049 C 0.91607 0.89615 0.89531 0.0
C1050 C 0.86505 0.87927 0.91889 0.0
C1051 C 0.89034 0.88704 0.93515 0.0
C1052 C 0.92909 0.89882 0.93133 0.0
C1053 C 0.94156 0.9031 0.9115 0.0
C1054 C 0.8237 0.86645 0.92234 0.0
C1055 C 0.95703 0.90735 0.94822 0.0
H1056 H 0.81969 0.91125 0.99313 0.0
H1057 H 0.88475 0.84414 0.99493 0.0
H1058 H 0.86661 0.93353 0.94998 0.0
H1059 H 0.81972 0.91882 0.94157 0.0
H1060 H 0.81908 0.93556 0.96469 0.0
H1061 H 0.91918 0.82794 0.96707 0.0
H1062 H 0.89777 0.83676 0.94323 0.0
H1063 H 0.9447 0.85078 0.95235 0.0
H1064 H 0.85802 0.87872 0.8868 0.0
H1065 H 0.97131 0.91207 0.90868 0.0
H1066 H 0.80145 0.87854 0.93017 0.0
H1067 H 0.82849 0.85072 0.93211 0.0
H1068 H 0.80894 0.86034 0.90813 0.0
H1069 H 0.93993 0.92065 0.95749 0.0
H1070 H 0.98668 0.9157 0.94273 0.0
H1071 H 0.96517 0.89219 0.95811 0.0
C1072 C 0.70297 0.62209 0.47974 0.0
C1073 C 0.67252 0.62964 0.4936 0.0
C1074 C 0.69428 0.62135 0.45915 0.0
C1075 C 0.65426 0.62861 0.45213 0.0
C1076 C 0.62414 0.63747 0.4659 0.0
C1077 C 0.63355 0.6378 0.48647 0.0
C1078 C 0.72732 0.61174 0.44501 0.0
C1079 C 0.58127 0.64556 0.459 0.0
C1080 C 0.64737 0.63658 0.39563 0.0
C1081 C 0.63337 0.61384 0.3896 0.0
C1082 C 0.65241 0.64218 0.41606 0.0
C1083 C 0.64299 0.62466 0.4307 0.0
C1084 C 0.62628 0.60225 0.42465 0.0
C1085 C 0.62175 0.59713 0.40421 0.0
C1086 C 0.66993 0.66634 0.42192 0.0
C1087 C 0.61537 0.58312 0.43971 0.0
H1088 H 0.73347 0.61624 0.48503 0.0
H1089 H 0.60964 0.64349 0.49703 0.0
H1090 H 0.71589 0.59482 0.43812 0.0
H1091 H 0.7331 0.62459 0.43269 0.0
H1092 H 0.75767 0.60817 0.45267 0.0
H1093 H 0.56331 0.6545 0.47116 0.0
H1094 H 0.58437 0.65807 0.44624 0.0
H1095 H 0.56279 0.62989 0.45368 0.0
H1096 H 0.65638 0.64953 0.38436 0.0
H1097 H 0.61023 0.57968 0.39958 0.0
H1098 H 0.70256 0.66425 0.42757 0.0
H1099 H 0.65102 0.6743 0.43421 0.0
H1100 H 0.67057 0.67894 0.40912 0.0
H1101 H 0.64458 0.57682 0.44707 0.0
H1102 H 0.59935 0.5675 0.43269 0.0
H1103 H 0.59461 0.59046 0.45158 0.0
C1104 C 0.38869 0.64919 0.04239 0.0
C1105 C 0.34627 0.64744 0.03658 0.0
C1106 C 0.40042 0.6474 0.06262 0.0
C1107 C 0.36899 0.64381 0.07737 0.0
C1108 C 0.32617 0.64202 0.07159 0.0
C1109 C 0.31539 0.64376 0.05131 0.0
C1110 C 0.44637 0.64937 0.06823 0.0
C1111 C 0.29167 0.63815 0.08686 0.0
C1112 C 0.39109 0.61547 0.12766 0.0
C1113 C 0.38906 0.63526 0.14055 0.0
C1114 C 0.38707 0.61818 0.10689 0.0
C1115 C 0.3805 0.64123 0.09885 0.0
C1116 C 0.38084 0.66145 0.11171 0.0
C1117 C 0.38532 0.65822 0.13245 0.0
C1118 C 0.38745 0.5962 0.0937 0.0
C1119 C 0.37382 0.68632 0.10373 0.0
H1120 H 0.41271 0.65233 0.03115 0.0
H1121 H 0.28264 0.64202 0.04694 0.0
H1122 H 0.45112 0.66448 0.07881 0.0
H1123 H 0.45649 0.63289 0.07601 0.0
H1124 H 0.46698 0.65217 0.05499 0.0
H1125 H 0.25984 0.63769 0.07996 0.0
H1126 H 0.29678 0.62103 0.09481 0.0
H1127 H 0.29249 0.65263 0.09825 0.0
H1128 H 0.39446 0.59773 0.13392 0.0
H1129 H 0.38349 0.67353 0.14242 0.0
H1130 H 0.40908 0.59884 0.08083 0.0
H1131 H 0.35545 0.59304 0.08753 0.0
H1132 H 0.39727 0.57997 0.10198 0.0
H1133 H 0.39466 0.68979 0.09071 0.0
H1134 H 0.37964 0.7003 0.11527 0.0
H1135 H 0.34082 0.68792 0.09846 0.0
C1136 C 0.16064 0.85975 0.54449 0.0
C1137 C 0.1548 0.88244 0.53609 0.0
C1138 C 0.15036 0.85532 0.56461 0.0
C1139 C 0.1338 0.87399 0.57661 0.0
C1140 C 0.12933 0.89713 0.56843 0.0
C1141 C 0.13996 0.90107 0.54831 0.0
C1142 C 0.15581 0.83043 0.57285 0.0
C1143 C 0.11203 0.91756 0.58073 0.0
C1144 C 0.06222 0.85576 0.61954 0.0
C1145 C 0.08929 0.85755 0.63606 0.0
C1146 C 0.07623 0.86135 0.6002 0.0
C1147 C 0.11842 0.86892 0.59724 0.0
C1148 C 0.1457 0.8713 0.6139 0.0
C1149 C 0.13078 0.86561 0.63313 0.0
C1150 C 0.04597 0.85886 0.58287 0.0
C1151 C 0.19084 0.87938 0.61136 0.0
H1152 H 0.17188 0.84523 0.53515 0.0
H1153 H 0.13624 0.91879 0.54207 0.0
H1154 H 0.17454 0.83107 0.58686 0.0
H1155 H 0.12454 0.82272 0.57665 0.0
H1156 H 0.17169 0.8183 0.56205 0.0
H1157 H 0.11286 0.93478 0.57251 0.0
H1158 H 0.07893 0.91362 0.585 0.0
H1159 H 0.13027 0.91965 0.59479 0.0
H1160 H 0.02992 0.84995 0.62176 0.0
H1161 H 0.15195 0.86687 0.64582 0.0
H1162 H 0.05797 0.8454 0.57207 0.0
H1163 H 0.04354 0.87609 0.5748 0.0
H1164 H 0.01393 0.85332 0.58777 0.0
H1165 H 0.20818 0.86618 0.60209 0.0
H1166 H 0.20737 0.88144 0.62591 0.0
H1167 H 0.19209 0.8967 0.60334 0.0
C1168 C 0.1233 0.28167 0.36393 0.0
C1169 C 0.1675 0.28168 0.36448 0.0
C1170 C 0.10091 0.26531 0.35192 0.0
C1171 C 0.1232 0.24844 0.34018 0.0
C1172 C 0.16782 0.24855 0.34044 0.0
C1173 C 0.18942 0.26514 0.35258 0.0
C1174 C 0.05336 0.26575 0.35222 0.0
C1175 C 0.19276 0.23122 0.32781 0.0
C1176 C 0.06867 0.19091 0.32352 0.0
C1177 C 0.05776 0.19623 0.30371 0.0
C1178 C 0.08932 0.20786 0.33566 0.0
C1179 C 0.09989 0.23057 0.32772 0.0
C1180 C 0.08835 0.23614 0.30782 0.0
C1181 C 0.06693 0.21903 0.29619 0.0
C1182 C 0.10012 0.20141 0.35695 0.0
C1183 C 0.0991 0.26007 0.2987 0.0
H1184 H 0.10608 0.29413 0.37329 0.0
H1185 H 0.22356 0.26526 0.35267 0.0
H1186 H 0.0405 0.26506 0.33679 0.0
H1187 H 0.0415 0.24978 0.36026 0.0
H1188 H 0.04097 0.28193 0.35986 0.0
H1189 H 0.22726 0.23304 0.33019 0.0
H1190 H 0.18319 0.21256 0.3312 0.0
H1191 H 0.18593 0.23435 0.31177 0.0
H1192 H 0.06134 0.17339 0.32952 0.0
H1193 H 0.05731 0.22355 0.28116 0.0
H1194 H 0.08619 0.21464 0.36742 0.0
H1195 H 0.13478 0.20203 0.35904 0.0
H1196 H 0.0885 0.18331 0.36106 0.0
H1197 H 0.08897 0.27484 0.3087 0.0
H1198 H 0.08415 0.2625 0.28383 0.0
H1199 H 0.13377 0.26158 0.29687 0.0
C1200 C 0.38288 0.23606 0.85912 0.0
C1201 C 0.33913 0.23292 0.85734 0.0
C1202 C 0.40416 0.25392 0.8483 0.0
C1203 C 0.38119 0.26908 0.83543 0.0
C1204 C 0.33696 0.26629 0.83382 0.0
C1205 C 0.31651 0.24822 0.84474 0.0
C1206 C 0.45136 0.25636 0.85044 0.0
C1207 C 0.31133 0.28185 0.82007 0.0
C1208 C 0.43143 0.3281 0.81999 0.0
C1209 C 0.44724 0.32251 0.80096 0.0
C1210 C 0.40971 0.31091 0.83134 0.0
C1211 C 0.40363 0.28761 0.82344 0.0
C1212 C 0.4196 0.28189 0.80422 0.0
C1213 C 0.44158 0.29935 0.79332 0.0
C1214 C 0.39308 0.31771 0.85175 0.0
C1215 C 0.41328 0.25739 0.79511 0.0
H1216 H 0.40055 0.22451 0.86898 0.0
H1217 H 0.28285 0.24566 0.84296 0.0
H1218 H 0.46673 0.2534 0.83572 0.0
H1219 H 0.45965 0.27475 0.85539 0.0
H1220 H 0.46452 0.24345 0.86134 0.0
H1221 H 0.27693 0.27982 0.82271 0.0
H1222 H 0.32003 0.30097 0.82193 0.0
H1223 H 0.31805 0.27679 0.80434 0.0
H1224 H 0.43564 0.34601 0.82594 0.0
H1225 H 0.45451 0.29482 0.7788 0.0
H1226 H 0.40681 0.30587 0.86329 0.0
H1227 H 0.35839 0.31515 0.85219 0.0
H1228 H 0.40046 0.33657 0.85574 0.0
H1229 H 0.42529 0.24344 0.80535 0.0
H1230 H 0.42939 0.25551 0.78042 0.0
H1231 H 0.37913 0.25395 0.79292 0.0
C1232 C 0.70038 0.2578 0.68275 0.0
C1233 C 0.67904 0.238 0.67458 0.0
C1234 C 0.68007 0.27366 0.6959 0.0
C1235 C 0.63735 0.26966 0.70106 0.0
C1236 C 0.61598 0.24931 0.69338 0.0
C1237 C 0.63707 0.23373 0.68024 0.0
C1238 C 0.704 0.29511 0.70381 0.0
C1239 C 0.57041 0.24442 0.69853 0.0
C1240 C 0.59208 0.30316 0.74591 0.0
C1241 C 0.57137 0.32223 0.73659 0.0
C1242 C 0.61347 0.2858 0.73456 0.0
C1243 C 0.61431 0.2876 0.71342 0.0
C1244 C 0.59347 0.30679 0.70397 0.0
C1245 C 0.57224 0.3238 0.71564 0.0
C1246 C 0.63511 0.26552 0.74518 0.0
C1247 C 0.59372 0.30944 0.68148 0.0
H1248 H 0.73301 0.261 0.67874 0.0
H1249 H 0.6202 0.21861 0.67388 0.0
H1250 H 0.68929 0.31176 0.69826 0.0
H1251 H 0.70243 0.29563 0.72039 0.0
H1252 H 0.73763 0.29503 0.69918 0.0
H1253 H 0.55913 0.22704 0.6924 0.0
H1254 H 0.56604 0.24438 0.71501 0.0
H1255 H 0.55035 0.25886 0.69245 0.0
H1256 H 0.5914 0.3017 0.76208 0.0
H1257 H 0.55646 0.33846 0.70826 0.0
H1258 H 0.66923 0.26564 0.74156 0.0
H1259 H 0.6221 0.24815 0.73991 0.0
H1260 H 0.63136 0.2666 0.76169 0.0
H1261 H 0.62662 0.31104 0.676 0.0
H1262 H 0.57587 0.32536 0.67645 0.0
H1263 H 0.57974 0.2933 0.67437 0.0
C1264 C 0.81172 0.26838 0.18855 0.0
C1265 C 0.83348 0.28957 0.18389 0.0
C1266 C 0.8311 0.25008 0.19952 0.0
C1267 C 0.87317 0.25308 0.20616 0.0
C1268 C 0.8954 0.27433 0.20143 0.0
C1269 C 0.87544 0.29219 0.19025 0.0
C1270 C 0.80651 0.22758 0.20413 0.0
C1271 C 0.94029 0.27823 0.20823 0.0
C1272 C 0.91397 0.21563 0.24945 0.0
C1273 C 0.93796 0.19835 0.23937 0.0
C1274 C 0.89232 0.23342 0.23884 0.0
C1275 C 0.89443 0.23381 0.21765 0.0
C1276 C 0.91799 0.21618 0.20741 0.0
C1277 C 0.93954 0.19877 0.21836 0.0
C1278 C 0.86778 0.25203 0.25031 0.0
C1279 C 0.9208 0.21584 0.18484 0.0
H1280 H 0.77916 0.26627 0.18398 0.0
H1281 H 0.89285 0.30827 0.18646 0.0
H1282 H 0.82336 0.21176 0.19811 0.0
H1283 H 0.80394 0.22523 0.22056 0.0
H1284 H 0.77427 0.22786 0.19768 0.0
H1285 H 0.95287 0.29598 0.20371 0.0
H1286 H 0.94218 0.2768 0.22477 0.0
H1287 H 0.96088 0.26417 0.20184 0.0
H1288 H 0.91257 0.21549 0.26566 0.0
H1289 H 0.95769 0.18543 0.21037 0.0
H1290 H 0.8345 0.25209 0.24527 0.0
H1291 H 0.88103 0.27005 0.24726 0.0
H1292 H 0.86845 0.24892 0.26672 0.0
H1293 H 0.88874 0.21503 0.17826 0.0
H1294 H 0.93921 0.20041 0.17912 0.0
H1295 H 0.9359 0.23256 0.17948 0.0
C1296 C 0.86868 0.75605 0.66147 0.0
C1297 C 0.84483 0.73716 0.6695 0.0
C1298 C 0.89022 0.77229 0.67388 0.0
C1299 C 0.88826 0.76955 0.69491 0.0
C1300 C 0.86495 0.7503 0.70317 0.0
C1301 C 0.8435 0.73433 0.69037 0.0
C1302 C 0.91484 0.79252 0.66446 0.0
C1303 C 0.86193 0.74691 0.72553 0.0
C1304 C 0.9717 0.80166 0.72609 0.0
C1305 C 0.95059 0.82262 0.73164 0.0
C1306 C 0.95178 0.78413 0.71424 0.0
C1307 C 0.90943 0.78741 0.70818 0.0
C1308 C 0.88772 0.8083 0.71413 0.0
C1309 C 0.90872 0.82576 0.72553 0.0
C1310 C 0.97616 0.76223 0.70801 0.0
C1311 C 0.84239 0.81239 0.70827 0.0
H1312 H 0.87067 0.7581 0.64537 0.0
H1313 H 0.8249 0.71994 0.69673 0.0
H1314 H 0.90308 0.80995 0.67007 0.0
H1315 H 0.94847 0.79126 0.66876 0.0
H1316 H 0.91269 0.79236 0.64787 0.0
H1317 H 0.84455 0.73032 0.72957 0.0
H1318 H 0.89388 0.74622 0.73222 0.0
H1319 H 0.84555 0.76239 0.73237 0.0
H1320 H 0.00388 0.79897 0.73097 0.0
H1321 H 0.89229 0.84201 0.72955 0.0
H1322 H 0.97827 0.76135 0.69145 0.0
H1323 H 0.95944 0.74585 0.71304 0.0
H1324 H 0.00859 0.76217 0.71425 0.0
H1325 H 0.83953 0.81273 0.69173 0.0
H1326 H 0.82984 0.82941 0.71442 0.0
H1327 H 0.82241 0.79745 0.71376 0.0
C1328 C 0.63441 0.78061 0.17707 0.0
C1329 C 0.67705 0.78608 0.1804 0.0
C1330 C 0.6136 0.76295 0.18832 0.0
C1331 C 0.63587 0.75044 0.20333 0.0
C1332 C 0.67906 0.75561 0.20656 0.0
C1333 C 0.69907 0.77336 0.19509 0.0
C1334 C 0.56767 0.75775 0.18423 0.0
C1335 C 0.70383 0.74319 0.22269 0.0
C1336 C 0.56837 0.72153 0.24376 0.0
C1337 C 0.56851 0.69759 0.23769 0.0
C1338 C 0.59159 0.73881 0.23317 0.0
C1339 C 0.61377 0.73204 0.21563 0.0
C1340 C 0.61387 0.70774 0.20953 0.0
C1341 C 0.59184 0.6907 0.2209 0.0
C1342 C 0.59241 0.76425 0.24077 0.0
C1343 C 0.63677 0.69981 0.19086 0.0
H1344 H 0.61725 0.79016 0.16562 0.0
H1345 H 0.73177 0.77777 0.19807 0.0
H1346 H 0.56331 0.73852 0.18057 0.0
H1347 H 0.54869 0.76155 0.19782 0.0
H1348 H 0.55514 0.76857 0.17169 0.0
H1349 H 0.73832 0.74584 0.22084 0.0
H1350 H 0.69449 0.75066 0.23743 0.0
H1351 H 0.69699 0.72372 0.22291 0.0
H1352 H 0.55076 0.72662 0.25702 0.0
H1353 H 0.59196 0.67204 0.2164 0.0
H1354 H 0.57745 0.77619 0.22966 0.0
H1355 H 0.62548 0.77037 0.24269 0.0
H1356 H 0.57574 0.76623 0.25531 0.0
H1357 H 0.62429 0.7095 0.1777 0.0
H1358 H 0.63349 0.68028 0.1881 0.0
H1359 H 0.67076 0.7043 0.1921 0.0
C1360 C 0.31858 0.76963 0.34821 0.0
C1361 C 0.34242 0.78441 0.36097 0.0
C1362 C 0.33818 0.75331 0.33519 0.0
C1363 C 0.38268 0.75178 0.33487 0.0
C1364 C 0.40696 0.7671 0.34728 0.0
C1365 C 0.38655 0.78321 0.36018 0.0
C1366 C 0.31124 0.73722 0.32219 0.0
C1367 C 0.45451 0.76608 0.34727 0.0
C1368 C 0.43364 0.69345 0.31896 0.0
C1369 C 0.44676 0.69862 0.29942 0.0
C1370 C 0.41228 0.71049 0.33053 0.0
C1371 C 0.40389 0.7333 0.32237 0.0
C1372 C 0.41665 0.73853 0.30254 0.0
C1373 C 0.43794 0.7211 0.29128 0.0
C1374 C 0.39905 0.70414 0.35158 0.0
C1375 C 0.40828 0.76263 0.29332 0.0
H1376 H 0.28448 0.77028 0.34886 0.0
H1377 H 0.4052 0.79483 0.36976 0.0
H1378 H 0.32092 0.7388 0.30629 0.0
H1379 H 0.31583 0.7183 0.32658 0.0
H1380 H 0.27719 0.74149 0.32342 0.0
H1381 H 0.46885 0.77996 0.35711 0.0
H1382 H 0.46497 0.74825 0.35244 0.0
H1383 H 0.46678 0.76849 0.33185 0.0
H1384 H 0.44005 0.67599 0.32522 0.0
H1385 H 0.4482 0.72515 0.27618 0.0
H1386 H 0.36459 0.70659 0.35336 0.0
H1387 H 0.41484 0.71629 0.36242 0.0
H1388 H 0.40696 0.68541 0.35548 0.0
H1389 H 0.37408 0.76659 0.29385 0.0
H1390 H 0.41907 0.7636 0.27752 0.0
H1391 H 0.42465 0.7768 0.30205 0.0
C1392 C 0.2054 0.75674 0.84421 0.0
C1393 C 0.18472 0.73659 0.85207 0.0
C1394 C 0.18336 0.774 0.83325 0.0
C1395 C 0.1395 0.77116 0.83017 0.0
C1396 C 0.11828 0.75111 0.83832 0.0
C1397 C 0.14113 0.73406 0.84912 0.0
C1398 C 0.20708 0.79514 0.82477 0.0
C1399 C 0.0715 0.74749 0.83536 0.0
C1400 C 0.0747 0.82568 0.81671 0.0
C1401 C 0.0697 0.8228 0.79598 0.0
C1402 C 0.09746 0.80907 0.828 0.0
C1403 C 0.11578 0.78911 0.81832 0.0
C1404 C 0.11098 0.78613 0.79739 0.0
C1405 C 0.08773 0.80292 0.78649 0.0
C1406 C 0.10167 0.81281 0.8503 0.0
C1407 C 0.13016 0.76511 0.78652 0.0
H1408 H 0.23895 0.75901 0.84662 0.0
H1409 H 0.12497 0.71839 0.85483 0.0
H1410 H 0.20363 0.79548 0.80824 0.0
H1411 H 0.1936 0.81203 0.83065 0.0
H1412 H 0.24117 0.79472 0.82847 0.0
H1413 H 0.05951 0.73127 0.84309 0.0
H1414 H 0.05407 0.76325 0.84108 0.0
H1415 H 0.06435 0.74583 0.81916 0.0
H1416 H 0.06085 0.841 0.82416 0.0
H1417 H 0.08333 0.80032 0.77054 0.0
H1418 H 0.13544 0.81385 0.8545 0.0
H1419 H 0.08778 0.79735 0.85837 0.0
H1420 H 0.08583 0.82937 0.85551 0.0
H1421 H 0.16465 0.7647 0.78916 0.0
H1422 H 0.12447 0.76574 0.77012 0.0
H1423 H 0.11681 0.74818 0.79242 0.0
loop_
_geom_bond_atom_site_label_1
_geom_bond_atom_site_label_2
_geom_bond_distance
_geom_bond_site_symmetry_2
_ccdc_geom_bond_type
C0 C1 1.264 . S
C0 C5 1.479 . S
C0 C10 1.465 . S
C1 C0 1.264 . S
C1 C3 1.339 . S
C1 H28 0.931 . S
C2 C3 1.395 . S
C2 C4 1.320 . S
C3 C1 1.339 . S
C3 C2 1.395 . S
C3 H29 0.929 . S
C4 C2 1.320 . S
C4 C5 1.405 . S
C4 H30 0.930 . S
C5 C0 1.479 . S
C5 C4 1.405 . S
C5 H31 0.931 . S
U6 O7 2.454 . S
U6 O8 2.458 . S
U6 C9 2.984 . S
U6 C10 2.847 . S
U6 C23 2.882 . S
U6 O24 2.441 . S
U6 O25 2.420 . S
U6 O26 2.455 . S
U6 O27 2.449 . S
O7 U6 2.454 . S
O7 C9 1.353 . S
O8 U6 2.458 . S
O8 C9 1.286 . S
C9 U6 2.984 . S
C9 O7 1.353 . S
C9 O8 1.286 . S
C9 C11 1.363 . S
C10 C0 1.465 . S
C10 U6 2.847 . S
C10 O24 1.249 . S
C10 O25 1.202 . S
C11 C9 1.363 . S
C11 C13 1.408 . S
C11 C16 1.342 . S
C12 C13 1.310 . S
C12 C15 1.461 . S
C12 H32 0.932 . S
C13 C11 1.408 . S
C13 C12 1.310 . S
C13 H33 0.930 . S
C14 C15 1.474 . S
C14 C16 1.285 . S
C14 H34 0.929 . S
C15 C12 1.461 . S
C15 C14 1.474 . S
C16 C11 1.342 . S
C16 C14 1.285 . S
C16 H35 0.930 . S
C17 C20 1.424 . S
C17 C22 1.245 . S
C17 C23 1.428 . S
C18 C21 1.260 . S
C18 C22 1.477 . S
C18 H36 0.932 . S
C19 C20 1.384 . S
C19 C21 1.479 . S
C19 H37 0.929 . S
C20 C17 1.424 . S
C20 C19 1.384 . S
C20 H38 0.928 . S
C21 C18 1.260 . S
C21 C19 1.479 . S
C22 C17 1.245 . S
C22 C18 1.477 . S
C22 H39 0.932 . S
C23 U6 2.882 . S
C23 C17 1.428 . S
C23 O26 1.301 . S
C23 O27 1.282 . S
O24 U6 2.441 . S
O24 C10 1.249 . S
O25 U6 2.420 . S
O25 C10 1.202 . S
O26 U6 2.455 . S
O26 C23 1.301 . S
O27 U6 2.449 . S
O27 C23 1.282 . S
H28 C1 0.931 . S
H29 C3 0.929 . S
H30 C4 0.930 . S
H31 C5 0.931 . S
H32 C12 0.932 . S
H33 C13 0.930 . S
H34 C14 0.929 . S
H35 C16 0.930 . S
H36 C18 0.932 . S
H37 C19 0.929 . S
H38 C20 0.928 . S
H39 C22 0.932 . S
C40 C41 1.264 . S
C40 C45 1.479 . S
C40 C50 1.465 . S
C41 C40 1.264 . S
C41 C43 1.339 . S
C41 H68 0.931 . S
C42 C43 1.395 1_554 S
C42 C44 1.320 . S
C43 C41 1.339 . S
C43 C42 1.395 1_556 S
C43 H69 0.922 1_556 S
C44 C42 1.320 . S
C44 C45 1.405 1_554 S
C44 H70 0.930 . S
C45 C40 1.479 . S
C45 C44 1.405 1_556 S
C45 H71 0.931 . S
U46 O47 2.454 . S
U46 O48 2.458 . S
U46 C49 2.984 . S
U46 C50 2.847 . S
U46 C63 2.882 . S
U46 O64 2.441 . S
U46 O65 2.420 . S
U46 O66 2.455 . S
U46 O67 2.449 . S
O47 U46 2.454 . S
O47 C49 1.353 . S
O48 U46 2.458 . S
O48 C49 1.286 . S
C49 U46 2.984 . S
C49 O47 1.353 . S
C49 O48 1.286 . S
C49 C51 1.363 . S
C50 C40 1.465 . S
C50 U46 2.847 . S
C50 O64 1.249 . S
C50 O65 1.202 . S
C51 C49 1.363 . S
C51 C53 1.408 . S
C51 C56 1.342 . S
C52 C53 1.310 . S
C52 C55 1.461 . S
C52 H72 0.932 . S
C53 C51 1.408 . S
C53 C52 1.310 . S
C53 H73 0.930 . S
C54 C55 1.474 . S
C54 C56 1.285 . S
C54 H74 0.929 . S
C55 C52 1.461 . S
C55 C54 1.474 . S
C56 C51 1.342 . S
C56 C54 1.285 . S
C56 H75 0.930 . S
C57 C60 1.424 . S
C57 C62 1.245 . S
C57 C63 1.428 . S
C58 C61 1.260 . S
C58 C62 1.477 . S
C58 H76 0.932 . S
C59 C60 1.384 . S
C59 C61 1.479 . S
C59 H77 0.929 . S
C60 C57 1.424 . S
C60 C59 1.384 . S
C60 H78 0.928 . S
C61 C58 1.260 . S
C61 C59 1.479 . S
C62 C57 1.245 . S
C62 C58 1.477 . S
C62 H79 0.932 . S
C63 U46 2.882 . S
C63 C57 1.428 . S
C63 O66 1.301 . S
C63 O67 1.282 . S
O64 U46 2.441 . S
O64 C50 1.249 . S
O65 U46 2.420 . S
O65 C50 1.202 . S
O66 U46 2.455 . S
O66 C63 1.301 . S
O67 U46 2.449 . S
O67 C63 1.282 . S
H68 C41 0.931 . S
H69 C43 0.922 1_554 S
H70 C44 0.930 . S
H71 C45 0.931 . S
H72 C52 0.932 . S
H73 C53 0.930 . S
H74 C54 0.929 . S
H75 C56 0.930 . S
H76 C58 0.932 . S
H77 C59 0.929 . S
H78 C60 0.928 . S
H79 C62 0.932 . S
C80 C81 1.264 . S
C80 C85 1.479 . S
C80 C90 1.465 . S
C81 C80 1.264 . S
C81 C83 1.339 . S
C81 H108 0.931 . S
C82 C83 1.395 . S
C82 C84 1.320 . S
C83 C81 1.339 . S
C83 C82 1.395 . S
C83 H109 0.929 . S
C84 C82 1.320 . S
C84 C85 1.405 . S
C84 H110 0.930 . S
C85 C80 1.479 . S
C85 C84 1.405 . S
C85 H111 0.931 . S
U86 O87 2.454 . S
U86 O88 2.458 . S
U86 C89 2.984 . S
U86 C90 2.847 . S
U86 C103 2.882 . S
U86 O104 2.441 . S
U86 O105 2.420 . S
U86 O106 2.455 . S
U86 O107 2.449 . S
O87 U86 2.454 . S
O87 C89 1.353 . S
O88 U86 2.458 . S
O88 C89 1.286 . S
C89 U86 2.984 . S
C89 O87 1.353 . S
C89 O88 1.286 . S
C89 C91 1.363 . S
C90 C80 1.465 . S
C90 U86 2.847 . S
C90 O104 1.249 . S
C90 O105 1.202 . S
C91 C89 1.363 . S
C91 C93 1.408 . S
C91 C96 1.342 . S
C92 C93 1.310 . S
C92 C95 1.461 . S
C92 H112 0.932 . S
C93 C91 1.408 . S
C93 C92 1.310 . S
C93 H113 0.930 . S
C94 C95 1.474 . S
C94 C96 1.285 . S
C94 H114 0.929 . S
C95 C92 1.461 . S
C95 C94 1.474 . S
C96 C91 1.342 . S
C96 C94 1.285 . S
C96 H115 0.930 . S
C97 C100 1.424 . S
C97 C102 1.245 . S
C97 C103 1.428 . S
C98 C101 1.260 . S
C98 C102 1.477 . S
C98 H116 0.932 . S
C99 C100 1.384 . S
C99 C101 1.479 . S
C99 H117 0.929 . S
C100 C97 1.424 . S
C100 C99 1.384 . S
C100 H118 0.928 . S
C101 C98 1.260 . S
C101 C99 1.479 . S
C102 C97 1.245 . S
C102 C98 1.477 . S
C102 H119 0.932 . S
C103 U86 2.882 . S
C103 C97 1.428 . S
C103 O106 1.301 . S
C103 O107 1.282 . S
O104 U86 2.441 . S
O104 C90 1.249 . S
O105 U86 2.420 . S
O105 C90 1.202 . S
O106 U86 2.455 . S
O106 C103 1.301 . S
O107 U86 2.449 . S
O107 C103 1.282 . S
H108 C81 0.931 . S
H109 C83 0.929 . S
H110 C84 0.930 . S
H111 C85 0.931 . S
H112 C92 0.932 . S
H113 C93 0.930 . S
H114 C94 0.929 . S
H115 C96 0.930 . S
H116 C98 0.932 . S
H117 C99 0.929 . S
H118 C100 0.928 . S
H119 C102 0.932 . S
C120 C121 1.264 . S
C120 C125 1.479 . S
C120 C130 1.465 . S
C121 C120 1.264 . S
C121 C123 1.339 . S
C121 H148 0.931 . S
C122 C123 1.395 1_556 S
C122 C124 1.320 1_556 S
C123 C121 1.339 . S
C123 C122 1.395 1_554 S
C123 H149 0.929 . S
C124 C122 1.320 1_554 S
C124 C125 1.405 . S
C124 H150 0.930 1_554 S
C125 C120 1.479 . S
C125 C124 1.405 . S
C125 H151 0.931 . S
U126 O127 2.454 . S
U126 O128 2.458 . S
U126 C129 2.984 . S
U126 C130 2.847 . S
U126 C143 2.882 . S
U126 O144 2.441 . S
U126 O145 2.420 . S
U126 O146 2.455 . S
U126 O147 2.449 . S
O127 U126 2.454 . S
O127 C129 1.353 . S
O128 U126 2.458 . S
O128 C129 1.286 . S
C129 U126 2.984 . S
C129 O127 1.353 . S
C129 O128 1.286 . S
C129 C131 1.363 . S
C130 C120 1.465 . S
C130 U126 2.847 . S
C130 O144 1.249 . S
C130 O145 1.202 . S
C131 C129 1.363 . S
C131 C133 1.408 . S
C131 C136 1.342 . S
C132 C133 1.310 . S
C132 C135 1.461 . S
C132 H152 0.932 . S
C133 C131 1.408 . S
C133 C132 1.310 . S
C133 H153 0.930 . S
C134 C135 1.474 . S
C134 C136 1.285 . S
C134 H154 0.929 . S
C135 C132 1.461 . S
C135 C134 1.474 . S
C136 C131 1.342 . S
C136 C134 1.285 . S
C136 H155 0.930 . S
C137 C140 1.424 . S
C137 C142 1.245 . S
C137 C143 1.428 . S
C138 C141 1.260 . S
C138 C142 1.477 . S
C138 H156 0.932 . S
C139 C140 1.384 . S
C139 C141 1.479 . S
C139 H157 0.929 . S
C140 C137 1.424 . S
C140 C139 1.384 . S
C140 H158 0.928 . S
C141 C138 1.260 . S
C141 C139 1.479 . S
C142 C137 1.245 . S
C142 C138 1.477 . S
C142 H159 0.932 . S
C143 U126 2.882 . S
C143 C137 1.428 . S
C143 O146 1.301 . S
C143 O147 1.282 . S
O144 U126 2.441 . S
O144 C130 1.249 . S
O145 U126 2.420 . S
O145 C130 1.202 . S
O146 U126 2.455 . S
O146 C143 1.301 . S
O147 U126 2.449 . S
O147 C143 1.282 . S
H148 C121 0.931 . S
H149 C123 0.929 . S
H150 C124 0.930 1_556 S
H151 C125 0.931 . S
H152 C132 0.932 . S
H153 C133 0.930 . S
H154 C134 0.929 . S
H155 C136 0.930 . S
H156 C138 0.932 . S
H157 C139 0.929 . S
H158 C140 0.928 . S
H159 C142 0.932 . S
C160 C161 1.264 . S
C160 C165 1.479 . S
C160 C170 1.465 . S
C161 C160 1.264 . S
C161 C163 1.339 . S
C161 H188 0.931 . S
C162 C163 1.395 . S
C162 C164 1.320 . S
C163 C161 1.339 . S
C163 C162 1.395 . S
C163 H189 0.929 . S
C164 C162 1.320 . S
C164 C165 1.405 . S
C164 H190 0.930 . S
C165 C160 1.479 . S
C165 C164 1.405 . S
C165 H191 0.931 . S
U166 O167 2.454 . S
U166 O168 2.458 . S
U166 C169 2.984 . S
U166 C170 2.847 . S
U166 C183 2.882 . S
U166 O184 2.441 . S
U166 O185 2.420 . S
U166 O186 2.455 . S
U166 O187 2.449 . S
O167 U166 2.454 . S
O167 C169 1.353 . S
O168 U166 2.458 . S
O168 C169 1.286 . S
C169 U166 2.984 . S
C169 O167 1.353 . S
C169 O168 1.286 . S
C169 C171 1.363 . S
C170 C160 1.465 . S
C170 U166 2.847 . S
C170 O184 1.249 . S
C170 O185 1.202 . S
C171 C169 1.363 . S
C171 C173 1.408 . S
C171 C176 1.342 . S
C172 C173 1.310 . S
C172 C175 1.461 . S
C172 H192 0.932 . S
C173 C171 1.408 . S
C173 C172 1.310 . S
C173 H193 0.930 . S
C174 C175 1.474 . S
C174 C176 1.285 . S
C174 H194 0.929 . S
C175 C172 1.461 . S
C175 C174 1.474 . S
C176 C171 1.342 . S
C176 C174 1.285 . S
C176 H195 0.930 . S
C177 C180 1.424 . S
C177 C182 1.245 . S
C177 C183 1.428 . S
C178 C181 1.260 . S
C178 C182 1.477 . S
C178 H196 0.932 . S
C179 C180 1.384 . S
C179 C181 1.479 . S
C179 H197 0.929 . S
C180 C177 1.424 . S
C180 C179 1.384 . S
C180 H198 0.928 . S
C181 C178 1.260 . S
C181 C179 1.479 . S
C182 C177 1.245 . S
C182 C178 1.477 . S
C182 H199 0.932 . S
C183 U166 2.882 . S
C183 C177 1.428 . S
C183 O186 1.301 . S
C183 O187 1.282 . S
O184 U166 2.441 . S
O184 C170 1.249 . S
O185 U166 2.420 . S
O185 C170 1.202 . S
O186 U166 2.455 . S
O186 C183 1.301 . S
O187 U166 2.449 . S
O187 C183 1.282 . S
H188 C161 0.931 . S
H189 C163 0.929 . S
H190 C164 0.930 . S
H191 C165 0.931 . S
H192 C172 0.932 . S
H193 C173 0.930 . S
H194 C174 0.929 . S
H195 C176 0.930 . S
H196 C178 0.932 . S
H197 C179 0.929 . S
H198 C180 0.928 . S
H199 C182 0.932 . S
C200 C201 1.264 . S
C200 C205 1.479 . S
C200 C210 1.465 . S
C201 C200 1.264 . S
C201 C203 1.339 . S
C201 H228 0.931 . S
C202 C203 1.395 1_556 S
C202 C204 1.320 . S
C203 C201 1.339 . S
C203 C202 1.395 1_554 S
C203 H229 0.929 1_554 S
C204 C202 1.320 . S
C204 C205 1.405 1_556 S
C204 H230 0.930 . S
C205 C200 1.479 . S
C205 C204 1.405 1_554 S
C205 H231 0.931 . S
U206 O207 2.454 . S
U206 O208 2.458 . S
U206 C209 2.984 . S
U206 C210 2.847 . S
U206 C223 2.882 . S
U206 O224 2.441 . S
U206 O225 2.420 . S
U206 O226 2.455 . S
U206 O227 2.449 . S
O207 U206 2.454 . S
O207 C209 1.353 . S
O208 U206 2.458 . S
O208 C209 1.286 . S
C209 U206 2.984 . S
C209 O207 1.353 . S
C209 O208 1.286 . S
C209 C211 1.363 . S
C210 C200 1.465 . S
C210 U206 2.847 . S
C210 O224 1.249 . S
C210 O225 1.202 . S
C211 C209 1.363 . S
C211 C213 1.408 . S
C211 C216 1.342 . S
C212 C213 1.310 . S
C212 C215 1.461 . S
C212 H232 0.932 . S
C213 C211 1.408 . S
C213 C212 1.310 . S
C213 H233 0.930 . S
C214 C215 1.474 . S
C214 C216 1.285 . S
C214 H234 0.929 . S
C215 C212 1.461 . S
C215 C214 1.474 . S
C216 C211 1.342 . S
C216 C214 1.285 . S
C216 H235 0.930 . S
C217 C220 1.424 . S
C217 C222 1.245 . S
C217 C223 1.428 . S
C218 C221 1.260 . S
C218 C222 1.477 . S
C218 H236 0.932 . S
C219 C220 1.384 . S
C219 C221 1.479 . S
C219 H237 0.929 . S
C220 C217 1.424 . S
C220 C219 1.384 . S
C220 H238 0.928 . S
C221 C218 1.260 . S
C221 C219 1.479 . S
C222 C217 1.245 . S
C222 C218 1.477 . S
C222 H239 0.932 . S
C223 U206 2.882 . S
C223 C217 1.428 . S
C223 O226 1.301 . S
C223 O227 1.282 . S
O224 U206 2.441 . S
O224 C210 1.249 . S
O225 U206 2.420 . S
O225 C210 1.202 . S
O226 U206 2.455 . S
O226 C223 1.301 . S
O227 U206 2.449 . S
O227 C223 1.282 . S
H228 C201 0.931 . S
H229 C203 0.929 1_556 S
H230 C204 0.930 . S
H231 C205 0.931 . S
H232 C212 0.932 . S
H233 C213 0.930 . S
H234 C214 0.929 . S
H235 C216 0.930 . S
H236 C218 0.932 . S
H237 C219 0.929 . S
H238 C220 0.928 . S
H239 C222 0.932 . S
C240 C241 1.264 . S
C240 C245 1.479 . S
C240 C250 1.465 . S
C241 C240 1.264 . S
C241 C243 1.339 . S
C241 H268 0.931 . S
C242 C243 1.395 . S
C242 C244 1.320 . S
C243 C241 1.339 . S
C243 C242 1.395 . S
C243 H269 0.929 . S
C244 C242 1.320 . S
C244 C245 1.405 . S
C244 H270 0.930 . S
C245 C240 1.479 . S
C245 C244 1.405 . S
C245 H271 0.931 . S
U246 O247 2.454 . S
U246 O248 2.458 . S
U246 C249 2.984 . S
U246 C250 2.847 . S
U246 C263 2.882 . S
U246 O264 2.441 . S
U246 O265 2.420 . S
U246 O266 2.455 . S
U246 O267 2.449 . S
O247 U246 2.454 . S
O247 C249 1.353 . S
O248 U246 2.458 . S
O248 C249 1.286 . S
C249 U246 2.984 . S
C249 O247 1.353 . S
C249 O248 1.286 . S
C249 C251 1.363 . S
C250 C240 1.465 . S
C250 U246 2.847 . S
C250 O264 1.249 . S
C250 O265 1.202 . S
C251 C249 1.363 . S
C251 C253 1.408 . S
C251 C256 1.342 . S
C252 C253 1.310 . S
C252 C255 1.461 . S
C252 H272 0.932 . S
C253 C251 1.408 . S
C253 C252 1.310 . S
C253 H273 0.930 . S
C254 C255 1.474 . S
C254 C256 1.285 . S
C254 H274 0.929 . S
C255 C252 1.461 . S
C255 C254 1.474 . S
C256 C251 1.342 . S
C256 C254 1.285 . S
C256 H275 0.930 . S
C257 C260 1.424 . S
C257 C262 1.245 . S
C257 C263 1.428 . S
C258 C261 1.260 . S
C258 C262 1.477 . S
C258 H276 0.932 . S
C259 C260 1.384 . S
C259 C261 1.479 . S
C259 H277 0.929 . S
C260 C257 1.424 . S
C260 C259 1.384 . S
C260 H278 0.928 . S
C261 C258 1.260 . S
C261 C259 1.479 . S
C262 C257 1.245 . S
C262 C258 1.477 . S
C262 H279 0.932 . S
C263 U246 2.882 . S
C263 C257 1.428 . S
C263 O266 1.301 . S
C263 O267 1.282 . S
O264 U246 2.441 . S
O264 C250 1.249 . S
O265 U246 2.420 . S
O265 C250 1.202 . S
O266 U246 2.455 . S
O266 C263 1.301 . S
O267 U246 2.449 . S
O267 C263 1.282 . S
H268 C241 0.931 . S
H269 C243 0.929 . S
H270 C244 0.930 . S
H271 C245 0.931 . S
H272 C252 0.932 . S
H273 C253 0.930 . S
H274 C254 0.929 . S
H275 C256 0.930 . S
H276 C258 0.932 . S
H277 C259 0.929 . S
H278 C260 0.928 . S
H279 C262 0.932 . S
C280 C281 1.264 . S
C280 C285 1.479 . S
C280 C290 1.465 . S
C281 C280 1.264 . S
C281 C283 1.339 . S
C281 H308 0.931 . S
C282 C283 1.395 1_554 S
C282 C284 1.306 1_554 S
C283 C281 1.339 . S
C283 C282 1.395 1_556 S
C283 H309 0.929 1_556 S
C284 C282 1.306 1_556 S
C284 C285 1.440 . S
C284 H310 0.910 1_556 S
C285 C280 1.479 . S
C285 C284 1.440 . S
C285 H311 0.931 . S
U286 O287 2.454 . S
U286 O288 2.458 . S
U286 C289 2.984 . S
U286 C290 2.847 . S
U286 C303 2.882 . S
U286 O304 2.441 . S
U286 O305 2.420 . S
U286 O306 2.455 . S
U286 O307 2.449 . S
O287 U286 2.454 . S
O287 C289 1.353 . S
O288 U286 2.458 . S
O288 C289 1.286 . S
C289 U286 2.984 . S
C289 O287 1.353 . S
C289 O288 1.286 . S
C289 C291 1.363 . S
C290 C280 1.465 . S
C290 U286 2.847 . S
C290 O304 1.249 . S
C290 O305 1.202 . S
C291 C289 1.363 . S
C291 C293 1.408 . S
C291 C296 1.342 . S
C292 C293 1.310 . S
C292 C295 1.461 . S
C292 H312 0.932 . S
C293 C291 1.408 . S
C293 C292 1.310 . S
C293 H313 0.930 . S
C294 C295 1.474 . S
C294 C296 1.285 . S
C294 H314 0.929 . S
C295 C292 1.461 . S
C295 C294 1.474 . S
C296 C291 1.342 . S
C296 C294 1.285 . S
C296 H315 0.930 . S
C297 C300 1.424 . S
C297 C302 1.245 . S
C297 C303 1.428 . S
C298 C301 1.260 . S
C298 C302 1.477 . S
C298 H316 0.932 . S
C299 C300 1.384 . S
C299 C301 1.479 . S
C299 H317 0.929 . S
C300 C297 1.424 . S
C300 C299 1.384 . S
C300 H318 0.928 . S
C301 C298 1.260 . S
C301 C299 1.479 . S
C302 C297 1.245 . S
C302 C298 1.477 . S
C302 H319 0.932 . S
C303 U286 2.882 . S
C303 C297 1.428 . S
C303 O306 1.301 . S
C303 O307 1.282 . S
O304 U286 2.441 . S
O304 C290 1.249 . S
O305 U286 2.420 . S
O305 C290 1.202 . S
O306 U286 2.455 . S
O306 C303 1.301 . S
O307 U286 2.449 . S
O307 C303 1.282 . S
H308 C281 0.931 . S
H309 C283 0.929 1_554 S
H310 C284 0.910 1_554 S
H311 C285 0.931 . S
H312 C292 0.932 . S
H313 C293 0.930 . S
H314 C294 0.929 . S
H315 C296 0.930 . S
H316 C298 0.932 . S
H317 C299 0.929 . S
H318 C300 0.928 . S
H319 C302 0.932 . S
Eu320 N349 2.600 . S
Eu320 N355 2.562 . S
Eu320 O364 2.462 . S
Eu320 O365 2.373 . S
Eu320 O367 2.432 . S
Eu320 O368 2.291 . S
Eu320 O372 2.335 . S
Eu320 O375 2.372 . S
Eu320 C384 2.787 . S
C321 N322 1.365 . S
C321 C324 1.405 . S
C321 C328 1.448 . S
N322 C321 1.365 . S
N322 C325 1.319 . S
N322 Eu331 2.600 . S
C323 C325 1.397 . S
C323 C326 1.367 . S
C323 H343 0.931 . S
C324 C321 1.405 . S
C324 C326 1.403 . S
C324 C330 1.439 . S
C325 N322 1.319 . S
C325 C323 1.397 . S
C325 H336 0.930 . S
C326 C323 1.367 . S
C326 C324 1.403 . S
C326 H347 0.929 . S
C327 C328 1.430 . S
C327 C329 1.387 . S
C327 C333 1.404 . S
C328 C321 1.448 . S
C328 C327 1.430 . S
C328 N332 1.351 . S
C329 C327 1.387 . S
C329 C330 1.374 . S
C329 H344 0.931 . S
C330 C324 1.439 . S
C330 C329 1.374 . S
C330 H345 0.931 . S
Eu331 N322 2.600 . S
Eu331 N332 2.562 . S
Eu331 O366 2.323 1_655 S
Eu331 O369 2.372 . S
Eu331 O370 2.462 . S
Eu331 O371 2.373 . S
Eu331 O373 2.432 . S
Eu331 O374 2.291 1_655 S
Eu331 C395 2.787 . S
N332 C328 1.351 . S
N332 Eu331 2.562 . S
N332 C334 1.325 . S
C333 C327 1.404 . S
C333 C335 1.366 . S
C333 H341 0.930 . S
C334 N332 1.325 . S
C334 C335 1.416 . S
C334 H340 0.929 . S
C335 C333 1.366 . S
C335 C334 1.416 . S
C335 H337 0.930 . S
H336 C325 0.930 . S
H337 C335 0.930 . S
H338 C353 0.930 . S
H339 C360 0.930 . S
H340 C334 0.929 . S
H341 C333 0.930 . S
H342 C356 0.929 . S
H343 C323 0.931 . S
H344 C329 0.931 . S
H345 C330 0.931 . S
H346 C351 0.931 . S
H347 C326 0.929 . S
H348 C359 0.930 . S
N349 Eu320 2.600 . S
N349 C350 1.365 . S
N349 C353 1.319 . S
C350 N349 1.365 . S
C350 C352 1.405 . S
C350 C358 1.448 . S
C351 H346 0.931 . S
C351 C353 1.397 . S
C351 C354 1.367 . S
C352 C350 1.405 . S
C352 C354 1.403 . S
C352 C385 1.439 . S
C353 H338 0.930 . S
C353 N349 1.319 . S
C353 C351 1.397 . S
C354 C351 1.367 . S
C354 C352 1.403 . S
C354 H361 0.929 . S
N355 Eu320 2.562 . S
N355 C356 1.325 . S
N355 C358 1.351 . S
C356 H342 0.929 . S
C356 N355 1.325 . S
C356 C360 1.416 . S
C357 C358 1.430 . S
C357 C359 1.404 . S
C357 C386 1.387 . S
C358 C350 1.448 . S
C358 N355 1.351 . S
C358 C357 1.430 . S
C359 H348 0.930 . S
C359 C357 1.404 . S
C359 C360 1.366 . S
C360 H339 0.930 . S
C360 C356 1.416 . S
C360 C359 1.366 . S
H361 C354 0.929 . S
H362 C385 0.931 . S
H363 C386 0.931 . S
O364 Eu320 2.462 . S
O364 C384 1.252 . S
O365 Eu320 2.373 . S
O365 C376 1.249 . S
O366 Eu331 2.323 1_455 S
O366 C376 1.279 . S
O367 Eu320 2.432 . S
O367 C384 1.268 . S
O368 Eu320 2.291 . S
O368 C383 1.255 1_455 S
O369 Eu331 2.372 . S
O369 C383 1.257 . S
O370 Eu331 2.462 . S
O370 C395 1.252 . S
O371 Eu331 2.373 . S
O371 C387 1.249 . S
O372 Eu320 2.335 . S
O372 C387 1.264 1_455 S
O373 Eu331 2.432 . S
O373 C395 1.268 . S
O374 Eu331 2.291 1_455 S
O374 C394 1.255 . S
O375 Eu320 2.372 . S
O375 C394 1.257 . S
C376 O365 1.249 . S
C376 O366 1.279 . S
C377 C380 1.382 . S
C377 C382 1.390 . S
C377 C384 1.506 . S
C378 C379 1.398 . S
C378 C382 1.392 . S
C379 C378 1.398 . S
C379 C381 1.372 . S
C379 H396 0.931 . S
C380 C377 1.382 . S
C380 C381 1.390 . S
C380 H397 0.931 . S
C381 C379 1.372 . S
C381 C380 1.390 . S
C381 H398 0.929 . S
C382 C377 1.390 . S
C382 C378 1.392 . S
C382 H399 0.930 . S
C383 O368 1.255 1_655 S
C383 O369 1.257 . S
C384 Eu320 2.787 . S
C384 O364 1.252 . S
C384 O367 1.268 . S
C384 C377 1.506 . S
C385 C352 1.439 . S
C385 H362 0.931 . S
C385 C386 1.374 . S
C386 C357 1.387 . S
C386 H363 0.931 . S
C386 C385 1.374 . S
C387 O371 1.249 . S
C387 O372 1.264 1_655 S
C388 C391 1.382 . S
C388 C392 1.390 . S
C388 C395 1.506 . S
C389 C390 1.398 . S
C389 C392 1.392 . S
C390 C389 1.398 . S
C390 C393 1.372 . S
C390 H400 0.931 . S
C391 C388 1.382 . S
C391 C393 1.390 . S
C391 H401 0.931 . S
C392 C388 1.390 . S
C392 C389 1.392 . S
C392 H402 0.930 . S
C393 C390 1.372 . S
C393 C391 1.390 . S
C393 H403 0.929 . S
C394 O374 1.255 . S
C394 O375 1.257 . S
C395 Eu331 2.787 . S
C395 O370 1.252 . S
C395 O373 1.268 . S
C395 C388 1.506 . S
H396 C379 0.931 . S
H397 C380 0.931 . S
H398 C381 0.929 . S
H399 C382 0.930 . S
H400 C390 0.931 . S
H401 C391 0.931 . S
H402 C392 0.930 . S
H403 C393 0.929 . S
Eu404 N433 2.600 . S
Eu404 N439 2.562 . S
Eu404 O448 2.462 . S
Eu404 O449 2.373 . S
Eu404 O451 2.432 . S
Eu404 O452 2.291 . S
Eu404 O456 2.335 . S
Eu404 O459 2.372 . S
Eu404 C468 2.787 . S
C405 N406 1.365 . S
C405 C408 1.405 . S
C405 C412 1.448 . S
N406 C405 1.365 . S
N406 C409 1.319 . S
N406 Eu415 2.600 . S
C407 C409 1.397 . S
C407 C410 1.367 . S
C407 H427 0.931 . S
C408 C405 1.405 . S
C408 C410 1.403 . S
C408 C414 1.439 . S
C409 N406 1.319 . S
C409 C407 1.397 . S
C409 H420 0.930 . S
C410 C407 1.367 . S
C410 C408 1.403 . S
C410 H431 0.929 . S
C411 C412 1.430 . S
C411 C413 1.387 . S
C411 C417 1.404 . S
C412 C405 1.448 . S
C412 C411 1.430 . S
C412 N416 1.351 . S
C413 C411 1.387 . S
C413 C414 1.374 . S
C413 H428 0.931 . S
C414 C408 1.439 . S
C414 C413 1.374 . S
C414 H429 0.931 . S
Eu415 N406 2.600 . S
Eu415 N416 2.562 . S
Eu415 O450 2.335 . S
Eu415 O453 2.372 . S
Eu415 O454 2.462 . S
Eu415 O455 2.373 . S
Eu415 O457 2.432 . S
Eu415 O458 2.291 . S
Eu415 C479 2.787 . S
N416 C412 1.351 . S
N416 Eu415 2.562 . S
N416 C418 1.325 . S
C417 C411 1.404 . S
C417 C419 1.366 . S
C417 H425 0.930 . S
C418 N416 1.325 . S
C418 C419 1.416 . S
C418 H424 0.929 . S
C419 C417 1.366 . S
C419 C418 1.416 . S
C419 H421 0.930 . S
H420 C409 0.930 . S
H421 C419 0.930 . S
H422 C437 0.930 . S
H423 C444 0.930 . S
H424 C418 0.929 . S
H425 C417 0.930 . S
H426 C440 0.929 . S
H427 C407 0.931 . S
H428 C413 0.931 . S
H429 C414 0.931 . S
H430 C435 0.931 . S
H431 C410 0.929 . S
H432 C443 0.930 . S
N433 Eu404 2.600 . S
N433 C434 1.365 . S
N433 C437 1.319 . S
C434 N433 1.365 . S
C434 C436 1.405 . S
C434 C442 1.448 . S
C435 H430 0.931 . S
C435 C437 1.397 . S
C435 C438 1.367 . S
C436 C434 1.405 . S
C436 C438 1.403 . S
C436 C469 1.439 . S
C437 H422 0.930 . S
C437 N433 1.319 . S
C437 C435 1.397 . S
C438 C435 1.367 . S
C438 C436 1.403 . S
C438 H445 0.929 . S
N439 Eu404 2.562 . S
N439 C440 1.325 . S
N439 C442 1.351 . S
C440 H426 0.929 . S
C440 N439 1.325 . S
C440 C444 1.416 . S
C441 C442 1.430 . S
C441 C443 1.404 . S
C441 C470 1.387 . S
C442 C434 1.448 . S
C442 N439 1.351 . S
C442 C441 1.430 . S
C443 H432 0.930 . S
C443 C441 1.404 . S
C443 C444 1.366 . S
C444 H423 0.930 . S
C444 C440 1.416 . S
C444 C443 1.366 . S
H445 C438 0.929 . S
H446 C469 0.931 . S
H447 C470 0.931 . S
O448 Eu404 2.462 . S
O448 C468 1.252 . S
O449 Eu404 2.373 . S
O449 C460 1.249 . S
O450 Eu415 2.335 . S
O450 C460 1.264 . S
O451 Eu404 2.432 . S
O451 C468 1.268 . S
O452 Eu404 2.291 . S
O452 C467 1.255 . S
O453 Eu415 2.372 . S
O453 C467 1.257 . S
O454 Eu415 2.462 . S
O454 C479 1.252 . S
O455 Eu415 2.373 . S
O455 C471 1.249 . S
O456 Eu404 2.335 . S
O456 C471 1.264 . S
O457 Eu415 2.432 . S
O457 C479 1.268 . S
O458 Eu415 2.291 . S
O458 C478 1.255 . S
O459 Eu404 2.372 . S
O459 C478 1.257 . S
C460 O449 1.249 . S
C460 O450 1.264 . S
C461 C464 1.382 . S
C461 C466 1.390 . S
C461 C468 1.506 . S
C462 C463 1.398 . S
C462 C466 1.392 . S
C463 C462 1.398 . S
C463 C465 1.372 . S
C463 H480 0.931 . S
C464 C461 1.382 . S
C464 C465 1.390 . S
C464 H481 0.931 . S
C465 C463 1.372 . S
C465 C464 1.390 . S
C465 H482 0.929 . S
C466 C461 1.390 . S
C466 C462 1.392 . S
C466 H483 0.930 . S
C467 O452 1.255 . S
C467 O453 1.257 . S
C468 Eu404 2.787 . S
C468 O448 1.252 . S
C468 O451 1.268 . S
C468 C461 1.506 . S
C469 C436 1.439 . S
C469 H446 0.931 . S
C469 C470 1.374 . S
C470 C441 1.387 . S
C470 H447 0.931 . S
C470 C469 1.374 . S
C471 O455 1.249 . S
C471 O456 1.264 . S
C472 C475 1.382 . S
C472 C476 1.390 . S
C472 C479 1.506 . S
C473 C474 1.398 . S
C473 C476 1.392 . S
C474 C473 1.398 . S
C474 C477 1.372 . S
C474 H484 0.931 . S
C475 C472 1.382 . S
C475 C477 1.390 . S
C475 H485 0.931 . S
C476 C472 1.390 . S
C476 C473 1.392 . S
C476 H486 0.930 . S
C477 C474 1.372 . S
C477 C475 1.390 . S
C477 H487 0.929 . S
C478 O458 1.255 . S
C478 O459 1.257 . S
C479 Eu415 2.787 . S
C479 O454 1.252 . S
C479 O457 1.268 . S
C479 C472 1.506 . S
H480 C463 0.931 . S
H481 C464 0.931 . S
H482 C465 0.929 . S
H483 C466 0.930 . S
H484 C474 0.931 . S
H485 C475 0.931 . S
H486 C476 0.930 . S
H487 C477 0.929 . S
Eu488 N517 2.600 . S
Eu488 N523 2.562 . S
Eu488 O532 2.462 . S
Eu488 O533 2.373 . S
Eu488 O535 2.432 . S
Eu488 O536 2.291 . S
Eu488 O540 2.335 . S
Eu488 O543 2.372 . S
Eu488 C552 2.787 . S
C489 N490 1.365 . S
C489 C492 1.405 . S
C489 C496 1.448 . S
N490 C489 1.365 . S
N490 C493 1.319 . S
N490 Eu499 2.600 . S
C491 C493 1.397 . S
C491 C494 1.367 . S
C491 H511 0.931 . S
C492 C489 1.405 . S
C492 C494 1.403 . S
C492 C498 1.439 . S
C493 N490 1.319 . S
C493 C491 1.397 . S
C493 H504 0.930 . S
C494 C491 1.367 . S
C494 C492 1.403 . S
C494 H515 0.929 . S
C495 C496 1.430 . S
C495 C497 1.387 . S
C495 C501 1.404 . S
C496 C489 1.448 . S
C496 C495 1.430 . S
C496 N500 1.351 . S
C497 C495 1.387 . S
C497 C498 1.374 . S
C497 H512 0.931 . S
C498 C492 1.439 . S
C498 C497 1.374 . S
C498 H513 0.931 . S
Eu499 N490 2.600 . S
Eu499 N500 2.562 . S
Eu499 O534 2.335 1_655 S
Eu499 O537 2.372 . S
Eu499 O538 2.462 . S
Eu499 O539 2.373 . S
Eu499 O541 2.432 . S
Eu499 O542 2.291 1_655 S
Eu499 C563 2.787 . S
N500 C496 1.351 . S
N500 Eu499 2.562 . S
N500 C502 1.325 . S
C501 C495 1.404 . S
C501 C503 1.366 . S
C501 H509 0.930 . S
C502 N500 1.325 . S
C502 C503 1.416 . S
C502 H508 0.929 . S
C503 C501 1.366 . S
C503 C502 1.416 . S
C503 H505 0.930 . S
H504 C493 0.930 . S
H505 C503 0.930 . S
H506 C521 0.930 . S
H507 C528 0.930 . S
H508 C502 0.929 . S
H509 C501 0.930 . S
H510 C524 0.929 . S
H511 C491 0.931 . S
H512 C497 0.931 . S
H513 C498 0.931 . S
H514 C519 0.931 . S
H515 C494 0.929 . S
H516 C527 0.930 . S
N517 Eu488 2.600 . S
N517 C518 1.365 . S
N517 C521 1.319 . S
C518 N517 1.365 . S
C518 C520 1.405 . S
C518 C526 1.448 . S
C519 H514 0.931 . S
C519 C521 1.397 . S
C519 C522 1.367 . S
C520 C518 1.405 . S
C520 C522 1.403 . S
C520 C553 1.439 . S
C521 H506 0.930 . S
C521 N517 1.319 . S
C521 C519 1.397 . S
C522 C519 1.367 . S
C522 C520 1.403 . S
C522 H529 0.929 . S
N523 Eu488 2.562 . S
N523 C524 1.325 . S
N523 C526 1.351 . S
C524 H510 0.929 . S
C524 N523 1.325 . S
C524 C528 1.416 . S
C525 C526 1.430 . S
C525 C527 1.404 . S
C525 C554 1.387 . S
C526 C518 1.448 . S
C526 N523 1.351 . S
C526 C525 1.430 . S
C527 H516 0.930 . S
C527 C525 1.404 . S
C527 C528 1.366 . S
C528 H507 0.930 . S
C528 C524 1.416 . S
C528 C527 1.366 . S
H529 C522 0.929 . S
H530 C553 0.931 . S
H531 C554 0.931 . S
O532 Eu488 2.462 . S
O532 C552 1.252 . S
O533 Eu488 2.373 . S
O533 C544 1.249 . S
O534 Eu499 2.335 1_455 S
O534 C544 1.264 . S
O535 Eu488 2.432 . S
O535 C552 1.268 . S
O536 Eu488 2.291 . S
O536 C551 1.255 1_455 S
O537 Eu499 2.372 . S
O537 C551 1.257 . S
O538 Eu499 2.462 . S
O538 C563 1.252 . S
O539 Eu499 2.373 . S
O539 C555 1.249 . S
O540 Eu488 2.335 . S
O540 C555 1.264 1_455 S
O541 Eu499 2.432 . S
O541 C563 1.268 . S
O542 Eu499 2.291 1_455 S
O542 C562 1.255 . S
O543 Eu488 2.372 . S
O543 C562 1.257 . S
C544 O533 1.249 . S
C544 O534 1.264 . S
C545 C548 1.382 . S
C545 C550 1.390 . S
C545 C552 1.506 . S
C546 C547 1.398 . S
C546 C550 1.392 . S
C547 C546 1.398 . S
C547 C549 1.372 . S
C547 H564 0.931 . S
C548 C545 1.382 . S
C548 C549 1.390 . S
C548 H565 0.931 . S
C549 C547 1.372 . S
C549 C548 1.390 . S
C549 H566 0.929 . S
C550 C545 1.390 . S
C550 C546 1.392 . S
C550 H567 0.930 . S
C551 O536 1.255 1_655 S
C551 O537 1.257 . S
C552 Eu488 2.787 . S
C552 O532 1.252 . S
C552 O535 1.268 . S
C552 C545 1.506 . S
C553 C520 1.439 . S
C553 H530 0.931 . S
C553 C554 1.374 . S
C554 C525 1.387 . S
C554 H531 0.931 . S
C554 C553 1.374 . S
C555 O539 1.249 . S
C555 O540 1.264 1_655 S
C556 C559 1.382 . S
C556 C560 1.390 . S
C556 C563 1.506 . S
C557 C558 1.398 . S
C557 C560 1.392 . S
C558 C557 1.398 . S
C558 C561 1.372 . S
C558 H568 0.931 . S
C559 C556 1.382 . S
C559 C561 1.390 . S
C559 H569 0.931 . S
C560 C556 1.390 . S
C560 C557 1.392 . S
C560 H570 0.930 . S
C561 C558 1.372 . S
C561 C559 1.390 . S
C561 H571 0.929 . S
C562 O542 1.255 . S
C562 O543 1.257 . S
C563 Eu499 2.787 . S
C563 O538 1.252 . S
C563 O541 1.268 . S
C563 C556 1.506 . S
H564 C547 0.931 . S
H565 C548 0.931 . S
H566 C549 0.929 . S
H567 C550 0.930 . S
H568 C558 0.931 . S
H569 C559 0.931 . S
H570 C560 0.930 . S
H571 C561 0.929 . S
Eu572 N601 2.600 . S
Eu572 N607 2.562 . S
Eu572 O616 2.462 . S
Eu572 O617 2.373 . S
Eu572 O619 2.432 . S
Eu572 O620 2.291 . S
Eu572 O624 2.335 . S
Eu572 O627 2.372 . S
Eu572 C636 2.787 . S
C573 N574 1.365 . S
C573 C576 1.405 . S
C573 C580 1.448 . S
N574 C573 1.365 . S
N574 C577 1.319 . S
N574 Eu583 2.600 . S
C575 C577 1.397 . S
C575 C578 1.367 . S
C575 H595 0.931 . S
C576 C573 1.405 . S
C576 C578 1.403 . S
C576 C582 1.439 . S
C577 N574 1.319 . S
C577 C575 1.397 . S
C577 H588 0.930 . S
C578 C575 1.367 . S
C578 C576 1.403 . S
C578 H599 0.929 . S
C579 C580 1.430 . S
C579 C581 1.387 . S
C579 C585 1.404 . S
C580 C573 1.448 . S
C580 C579 1.430 . S
C580 N584 1.351 . S
C581 C579 1.387 . S
C581 C582 1.374 . S
C581 H596 0.931 . S
C582 C576 1.439 . S
C582 C581 1.374 . S
C582 H597 0.931 . S
Eu583 N574 2.600 . S
Eu583 N584 2.562 . S
Eu583 O618 2.335 . S
Eu583 O621 2.372 . S
Eu583 O622 2.462 . S
Eu583 O623 2.373 . S
Eu583 O625 2.432 . S
Eu583 O626 2.291 . S
Eu583 C647 2.787 . S
N584 C580 1.351 . S
N584 Eu583 2.562 . S
N584 C586 1.325 . S
C585 C579 1.404 . S
C585 C587 1.366 . S
C585 H593 0.930 . S
C586 N584 1.325 . S
C586 C587 1.416 . S
C586 H592 0.929 . S
C587 C585 1.366 . S
C587 C586 1.416 . S
C587 H589 0.930 . S
H588 C577 0.930 . S
H589 C587 0.930 . S
H590 C605 0.930 . S
H591 C612 0.930 . S
H592 C586 0.929 . S
H593 C585 0.930 . S
H594 C608 0.929 . S
H595 C575 0.931 . S
H596 C581 0.931 . S
H597 C582 0.931 . S
H598 C603 0.931 . S
H599 C578 0.929 . S
H600 C611 0.930 . S
N601 Eu572 2.600 . S
N601 C602 1.365 . S
N601 C605 1.319 . S
C602 N601 1.365 . S
C602 C604 1.405 . S
C602 C610 1.448 . S
C603 H598 0.931 . S
C603 C605 1.397 . S
C603 C606 1.367 . S
C604 C602 1.405 . S
C604 C606 1.403 . S
C604 C637 1.439 . S
C605 H590 0.930 . S
C605 N601 1.319 . S
C605 C603 1.397 . S
C606 C603 1.367 . S
C606 C604 1.403 . S
C606 H613 0.929 . S
N607 Eu572 2.562 . S
N607 C608 1.325 . S
N607 C610 1.351 . S
C608 H594 0.929 . S
C608 N607 1.325 . S
C608 C612 1.416 . S
C609 C610 1.430 . S
C609 C611 1.404 . S
C609 C638 1.387 . S
C610 C602 1.448 . S
C610 N607 1.351 . S
C610 C609 1.430 . S
C611 H600 0.930 . S
C611 C609 1.404 . S
C611 C612 1.366 . S
C612 H591 0.930 . S
C612 C608 1.416 . S
C612 C611 1.366 . S
H613 C606 0.929 . S
H614 C637 0.931 . S
H615 C638 0.931 . S
O616 Eu572 2.462 . S
O616 C636 1.252 . S
O617 Eu572 2.373 . S
O617 C628 1.249 . S
O618 Eu583 2.335 . S
O618 C628 1.264 . S
O619 Eu572 2.432 . S
O619 C636 1.268 . S
O620 Eu572 2.291 . S
O620 C635 1.255 . S
O621 Eu583 2.372 . S
O621 C635 1.257 . S
O622 Eu583 2.462 . S
O622 C647 1.252 . S
O623 Eu583 2.373 . S
O623 C639 1.249 . S
O624 Eu572 2.335 . S
O624 C639 1.264 . S
O625 Eu583 2.432 . S
O625 C647 1.268 . S
O626 Eu583 2.291 . S
O626 C646 1.255 . S
O627 Eu572 2.372 . S
O627 C646 1.257 . S
C628 O617 1.249 . S
C628 O618 1.264 . S
C629 C632 1.382 . S
C629 C634 1.390 . S
C629 C636 1.506 . S
C630 C631 1.398 . S
C630 C634 1.392 . S
C631 C630 1.398 . S
C631 C633 1.372 . S
C631 H648 0.931 . S
C632 C629 1.382 . S
C632 C633 1.390 . S
C632 H649 0.931 . S
C633 C631 1.372 . S
C633 C632 1.390 . S
C633 H650 0.929 . S
C634 C629 1.390 . S
C634 C630 1.392 . S
C634 H651 0.930 . S
C635 O620 1.255 . S
C635 O621 1.257 . S
C636 Eu572 2.787 . S
C636 O616 1.252 . S
C636 O619 1.268 . S
C636 C629 1.506 . S
C637 C604 1.439 . S
C637 H614 0.931 . S
C637 C638 1.374 . S
C638 C609 1.387 . S
C638 H615 0.931 . S
C638 C637 1.374 . S
C639 O623 1.249 . S
C639 O624 1.264 . S
C640 C643 1.382 . S
C640 C644 1.390 . S
C640 C647 1.506 . S
C641 C642 1.398 . S
C641 C644 1.392 . S
C642 C641 1.398 . S
C642 C645 1.372 . S
C642 H652 0.931 . S
C643 C640 1.382 . S
C643 C645 1.390 . S
C643 H653 0.931 . S
C644 C640 1.390 . S
C644 C641 1.392 . S
C644 H654 0.930 . S
C645 C642 1.372 . S
C645 C643 1.390 . S
C645 H655 0.929 . S
C646 O626 1.255 . S
C646 O627 1.257 . S
C647 Eu583 2.787 . S
C647 O622 1.252 . S
C647 O625 1.268 . S
C647 C640 1.506 . S
H648 C631 0.931 . S
H649 C632 0.931 . S
H650 C633 0.929 . S
H651 C634 0.930 . S
H652 C642 0.931 . S
H653 C643 0.931 . S
H654 C644 0.930 . S
H655 C645 0.929 . S
C656 C657 1.391 . S
C656 C658 1.394 . S
C656 H672 0.931 1_545 S
C657 C656 1.391 . S
C657 C661 1.376 . S
C658 C656 1.394 . S
C658 C659 1.369 . S
C658 C662 1.531 . S
C659 C658 1.369 . S
C659 C660 1.410 . S
C659 C667 1.503 . S
C660 C659 1.410 . S
C660 C661 1.392 . S
C660 C663 1.511 . S
C661 C657 1.376 . S
C661 C660 1.392 . S
C661 H673 0.929 . S
C662 C658 1.531 . S
C662 H674 0.960 . S
C662 H675 0.962 . S
C662 H676 0.960 . S
C663 C660 1.511 . S
C663 H677 0.961 . S
C663 H678 0.961 . S
C663 H679 0.961 . S
C664 C665 1.370 . S
C664 C666 1.363 . S
C664 H680 0.931 . S
C665 C664 1.370 . S
C665 C669 1.408 . S
C666 C664 1.363 . S
C666 C667 1.370 . S
C666 C670 1.524 . S
C667 C659 1.503 . S
C667 C666 1.370 . S
C667 C668 1.403 . S
C668 C667 1.403 . S
C668 C669 1.404 . S
C668 C671 1.539 . S
C669 C665 1.408 . S
C669 C668 1.404 . S
C669 H681 0.930 . S
C670 C666 1.524 . S
C670 H682 0.956 . S
C670 H683 0.961 . S
C670 H684 0.961 . S
C671 C668 1.539 . S
C671 H685 0.958 . S
C671 H686 0.961 . S
C671 H687 0.960 . S
H672 C656 0.931 1_565 S
H673 C661 0.929 . S
H674 C662 0.960 . S
H675 C662 0.962 . S
H676 C662 0.960 . S
H677 C663 0.961 . S
H678 C663 0.961 . S
H679 C663 0.961 . S
H680 C664 0.931 . S
H681 C669 0.930 . S
H682 C670 0.956 . S
H683 C670 0.961 . S
H684 C670 0.961 . S
H685 C671 0.958 . S
H686 C671 0.961 . S
H687 C671 0.960 . S
C688 C689 1.391 . S
C688 C690 1.394 . S
C688 H704 0.931 . S
C689 C688 1.391 . S
C689 C693 1.376 . S
C690 C688 1.394 . S
C690 C691 1.369 . S
C690 C694 1.531 . S
C691 C690 1.369 . S
C691 C692 1.410 . S
C691 C699 1.503 . S
C692 C691 1.410 . S
C692 C693 1.392 . S
C692 C695 1.511 . S
C693 C689 1.376 . S
C693 C692 1.392 . S
C693 H705 0.929 . S
C694 C690 1.531 . S
C694 H706 0.960 . S
C694 H707 0.962 . S
C694 H708 0.960 . S
C695 C692 1.511 . S
C695 H709 0.961 . S
C695 H710 0.961 . S
C695 H711 0.961 . S
C696 C697 1.370 . S
C696 C698 1.363 . S
C696 H712 0.931 . S
C697 C696 1.370 . S
C697 C701 1.408 . S
C698 C696 1.363 . S
C698 C699 1.370 . S
C698 C702 1.524 . S
C699 C691 1.503 . S
C699 C698 1.370 . S
C699 C700 1.403 . S
C700 C699 1.403 . S
C700 C701 1.404 . S
C700 C703 1.539 . S
C701 C697 1.408 . S
C701 C700 1.404 . S
C701 H713 0.930 . S
C702 C698 1.524 . S
C702 H714 0.956 . S
C702 H715 0.961 . S
C702 H716 0.961 . S
C703 C700 1.539 . S
C703 H717 0.958 . S
C703 H718 0.961 . S
C703 H719 0.960 . S
H704 C688 0.931 . S
H705 C693 0.929 . S
H706 C694 0.960 . S
H707 C694 0.962 . S
H708 C694 0.960 . S
H709 C695 0.961 . S
H710 C695 0.961 . S
H711 C695 0.961 . S
H712 C696 0.931 . S
H713 C701 0.930 . S
H714 C702 0.956 . S
H715 C702 0.961 . S
H716 C702 0.961 . S
H717 C703 0.958 . S
H718 C703 0.961 . S
H719 C703 0.960 . S
C720 C721 1.391 . S
C720 C722 1.394 . S
C720 H736 0.931 . S
C721 C720 1.391 . S
C721 C725 1.376 . S
C722 C720 1.394 . S
C722 C723 1.369 . S
C722 C726 1.531 . S
C723 C722 1.369 . S
C723 C724 1.410 . S
C723 C731 1.503 . S
C724 C723 1.410 . S
C724 C725 1.392 . S
C724 C727 1.511 . S
C725 C721 1.376 . S
C725 C724 1.392 . S
C725 H737 0.929 . S
C726 C722 1.531 . S
C726 H738 0.960 . S
C726 H739 0.962 . S
C726 H740 0.960 . S
C727 C724 1.511 . S
C727 H741 0.961 . S
C727 H742 0.961 . S
C727 H743 0.961 . S
C728 C729 1.370 . S
C728 C730 1.363 . S
C728 H744 0.931 . S
C729 C728 1.370 . S
C729 C733 1.408 . S
C730 C728 1.363 . S
C730 C731 1.370 . S
C730 C734 1.524 . S
C731 C723 1.503 . S
C731 C730 1.370 . S
C731 C732 1.403 . S
C732 C731 1.403 . S
C732 C733 1.404 . S
C732 C735 1.539 . S
C733 C729 1.408 . S
C733 C732 1.404 . S
C733 H745 0.930 . S
C734 C730 1.524 . S
C734 H746 0.956 . S
C734 H747 0.961 . S
C734 H748 0.961 . S
C735 C732 1.539 . S
C735 H749 0.958 . S
C735 H750 0.961 . S
C735 H751 0.960 . S
H736 C720 0.931 . S
H737 C725 0.929 . S
H738 C726 0.960 . S
H739 C726 0.962 . S
H740 C726 0.960 . S
H741 C727 0.961 . S
H742 C727 0.961 . S
H743 C727 0.961 . S
H744 C728 0.931 . S
H745 C733 0.930 . S
H746 C734 0.956 . S
H747 C734 0.961 . S
H748 C734 0.961 . S
H749 C735 0.958 . S
H750 C735 0.961 . S
H751 C735 0.960 . S
C752 C753 1.391 1_545 S
C752 C754 1.394 . S
C752 H768 0.931 1_545 S
C753 C752 1.391 1_565 S
C753 C757 1.376 1_565 S
C754 C752 1.394 . S
C754 C755 1.369 . S
C754 C758 1.531 . S
C755 C754 1.369 . S
C755 C756 1.410 . S
C755 C763 1.503 . S
C756 C755 1.410 . S
C756 C757 1.392 . S
C756 C759 1.511 . S
C757 C753 1.376 1_545 S
C757 C756 1.392 . S
C757 H769 0.929 . S
C758 C754 1.531 . S
C758 H770 0.960 . S
C758 H771 0.962 . S
C758 H772 0.960 . S
C759 C756 1.511 . S
C759 H773 0.961 . S
C759 H774 0.961 . S
C759 H775 0.961 . S
C760 C761 1.370 . S
C760 C762 1.363 . S
C760 H776 0.931 . S
C761 C760 1.370 . S
C761 C765 1.408 . S
C762 C760 1.363 . S
C762 C763 1.370 . S
C762 C766 1.524 . S
C763 C755 1.503 . S
C763 C762 1.370 . S
C763 C764 1.403 . S
C764 C763 1.403 . S
C764 C765 1.404 . S
C764 C767 1.539 . S
C765 C761 1.408 . S
C765 C764 1.404 . S
C765 H777 0.930 . S
C766 C762 1.524 . S
C766 H778 0.956 . S
C766 H779 0.961 . S
C766 H780 0.961 . S
C767 C764 1.539 . S
C767 H781 0.958 . S
C767 H782 0.961 . S
C767 H783 0.960 . S
H768 C752 0.931 1_565 S
H769 C757 0.929 . S
H770 C758 0.960 . S
H771 C758 0.962 . S
H772 C758 0.960 . S
H773 C759 0.961 . S
H774 C759 0.961 . S
H775 C759 0.961 . S
H776 C760 0.931 . S
H777 C765 0.930 . S
H778 C766 0.956 . S
H779 C766 0.961 . S
H780 C766 0.961 . S
H781 C767 0.958 . S
H782 C767 0.961 . S
H783 C767 0.960 . S
C784 C785 1.391 . S
C784 C786 1.394 . S
C784 H800 0.931 . S
C785 C784 1.391 . S
C785 C789 1.376 . S
C786 C784 1.394 . S
C786 C787 1.369 . S
C786 C790 1.531 . S
C787 C786 1.369 . S
C787 C788 1.410 . S
C787 C795 1.503 . S
C788 C787 1.410 . S
C788 C789 1.392 . S
C788 C791 1.511 . S
C789 C785 1.376 . S
C789 C788 1.392 . S
C789 H801 0.929 1_565 S
C790 C786 1.531 . S
C790 H802 0.960 . S
C790 H803 0.962 . S
C790 H804 0.960 . S
C791 C788 1.511 . S
C791 H805 0.961 . S
C791 H806 0.961 . S
C791 H807 0.961 . S
C792 C793 1.370 . S
C792 C794 1.363 . S
C792 H808 0.931 . S
C793 C792 1.370 . S
C793 C797 1.408 . S
C794 C792 1.363 . S
C794 C795 1.370 . S
C794 C798 1.524 . S
C795 C787 1.503 . S
C795 C794 1.370 . S
C795 C796 1.403 . S
C796 C795 1.403 . S
C796 C797 1.404 . S
C796 C799 1.539 . S
C797 C793 1.408 . S
C797 C796 1.404 . S
C797 H809 0.930 . S
C798 C794 1.524 . S
C798 H810 0.956 . S
C798 H811 0.961 . S
C798 H812 0.961 . S
C799 C796 1.539 . S
C799 H813 0.958 . S
C799 H814 0.961 . S
C799 H815 0.960 . S
H800 C784 0.931 . S
H801 C789 0.929 1_545 S
H802 C790 0.960 . S
H803 C790 0.962 . S
H804 C790 0.960 . S
H805 C791 0.961 . S
H806 C791 0.961 . S
H807 C791 0.961 . S
H808 C792 0.931 . S
H809 C797 0.930 . S
H810 C798 0.956 . S
H811 C798 0.961 . S
H812 C798 0.961 . S
H813 C799 0.958 . S
H814 C799 0.961 . S
H815 C799 0.960 . S
C816 C817 1.391 . S
C816 C818 1.394 . S
C816 H832 0.931 . S
C817 C816 1.391 . S
C817 C821 1.376 . S
C818 C816 1.394 . S
C818 C819 1.369 . S
C818 C822 1.531 . S
C819 C818 1.369 . S
C819 C820 1.410 . S
C819 C827 1.503 . S
C820 C819 1.410 . S
C820 C821 1.392 . S
C820 C823 1.511 . S
C821 C817 1.376 . S
C821 C820 1.392 . S
C821 H833 0.929 . S
C822 C818 1.531 . S
C822 H834 0.960 . S
C822 H835 0.962 . S
C822 H836 0.960 . S
C823 C820 1.511 . S
C823 H837 0.961 . S
C823 H838 0.961 . S
C823 H839 0.961 . S
C824 C825 1.370 . S
C824 C826 1.363 . S
C824 H840 0.931 . S
C825 C824 1.370 . S
C825 C829 1.408 . S
C826 C824 1.363 . S
C826 C827 1.370 . S
C826 C830 1.524 . S
C827 C819 1.503 . S
C827 C826 1.370 . S
C827 C828 1.403 . S
C828 C827 1.403 . S
C828 C829 1.404 . S
C828 C831 1.539 . S
C829 C825 1.408 . S
C829 C828 1.404 . S
C829 H841 0.930 . S
C830 C826 1.524 . S
C830 H842 0.956 . S
C830 H843 0.961 . S
C830 H844 0.961 . S
C831 C828 1.539 . S
C831 H845 0.958 . S
C831 H846 0.961 . S
C831 H847 0.960 . S
H832 C816 0.931 . S
H833 C821 0.929 . S
H834 C822 0.960 . S
H835 C822 0.962 . S
H836 C822 0.960 . S
H837 C823 0.961 . S
H838 C823 0.961 . S
H839 C823 0.961 . S
H840 C824 0.931 . S
H841 C829 0.930 . S
H842 C830 0.956 . S
H843 C830 0.961 . S
H844 C830 0.961 . S
H845 C831 0.958 . S
H846 C831 0.961 . S
H847 C831 0.960 . S
C848 C849 1.391 . S
C848 C850 1.394 . S
C848 H864 0.931 . S
C849 C848 1.391 . S
C849 C853 1.376 . S
C850 C848 1.394 . S
C850 C851 1.369 . S
C850 C854 1.531 . S
C851 C850 1.369 . S
C851 C852 1.410 . S
C851 C859 1.503 . S
C852 C851 1.410 . S
C852 C853 1.392 . S
C852 C855 1.511 . S
C853 C849 1.376 . S
C853 C852 1.392 . S
C853 H865 0.929 . S
C854 C850 1.531 . S
C854 H866 0.960 . S
C854 H867 0.962 . S
C854 H868 0.960 . S
C855 C852 1.511 . S
C855 H869 0.961 . S
C855 H870 0.961 . S
C855 H871 0.961 . S
C856 C857 1.370 . S
C856 C858 1.363 . S
C856 H872 0.931 . S
C857 C856 1.370 . S
C857 C861 1.408 . S
C858 C856 1.363 . S
C858 C859 1.370 . S
C858 C862 1.524 . S
C859 C851 1.503 . S
C859 C858 1.370 . S
C859 C860 1.403 . S
C860 C859 1.403 . S
C860 C861 1.404 . S
C860 C863 1.539 . S
C861 C857 1.408 . S
C861 C860 1.404 . S
C861 H873 0.930 . S
C862 C858 1.524 . S
C862 H874 0.956 . S
C862 H875 0.961 . S
C862 H876 0.961 . S
C863 C860 1.539 . S
C863 H877 0.958 . S
C863 H878 0.961 . S
C863 H879 0.960 . S
H864 C848 0.931 . S
H865 C853 0.929 . S
H866 C854 0.960 . S
H867 C854 0.962 . S
H868 C854 0.960 . S
H869 C855 0.961 . S
H870 C855 0.961 . S
H871 C855 0.961 . S
H872 C856 0.931 . S
H873 C861 0.930 . S
H874 C862 0.956 . S
H875 C862 0.961 . S
H876 C862 0.961 . S
H877 C863 0.958 . S
H878 C863 0.961 . S
H879 C863 0.960 . S
C880 C881 1.386 1_545 S
C880 C882 1.394 1_545 S
C880 H896 0.931 . S
C881 C880 1.386 1_565 S
C881 C885 1.397 . S
C882 C880 1.394 1_565 S
C882 C883 1.369 . S
C882 C886 1.531 . S
C883 C882 1.369 . S
C883 C884 1.410 . S
C883 C891 1.503 . S
C884 C883 1.410 . S
C884 C885 1.392 . S
C884 C887 1.511 . S
C885 C881 1.397 . S
C885 C884 1.392 . S
C885 H897 0.929 . S
C886 C882 1.531 . S
C886 H898 0.960 . S
C886 H899 0.962 . S
C886 H900 0.960 1_565 S
C887 C884 1.511 . S
C887 H901 0.961 . S
C887 H902 0.961 . S
C887 H903 0.961 . S
C888 C889 1.370 . S
C888 C890 1.363 . S
C888 H904 0.931 . S
C889 C888 1.370 . S
C889 C893 1.408 . S
C890 C888 1.363 . S
C890 C891 1.370 . S
C890 C894 1.524 . S
C891 C883 1.503 . S
C891 C890 1.370 . S
C891 C892 1.403 . S
C892 C891 1.403 . S
C892 C893 1.404 . S
C892 C895 1.539 . S
C893 C889 1.408 . S
C893 C892 1.404 . S
C893 H905 0.930 . S
C894 C890 1.524 . S
C894 H906 0.956 . S
C894 H907 0.961 . S
C894 H908 0.961 . S
C895 C892 1.539 . S
C895 H909 0.958 . S
C895 H910 0.961 . S
C895 H911 0.960 . S
H896 C880 0.931 . S
H897 C885 0.929 . S
H898 C886 0.960 . S
H899 C886 0.962 . S
H900 C886 0.960 1_545 S
H901 C887 0.961 . S
H902 C887 0.961 . S
H903 C887 0.961 . S
H904 C888 0.931 . S
H905 C893 0.930 . S
H906 C894 0.956 . S
H907 C894 0.961 . S
H908 C894 0.961 . S
H909 C895 0.958 . S
H910 C895 0.961 . S
H911 C895 0.960 . S
C912 C913 1.391 . S
C912 C914 1.394 . S
C912 H928 0.931 . S
C913 C912 1.391 . S
C913 C917 1.376 . S
C914 C912 1.394 . S
C914 C915 1.369 . S
C914 C918 1.531 . S
C915 C914 1.369 . S
C915 C916 1.410 . S
C915 C923 1.503 . S
C916 C915 1.410 . S
C916 C917 1.392 . S
C916 C919 1.511 . S
C917 C913 1.376 . S
C917 C916 1.392 . S
C917 H929 0.929 . S
C918 C914 1.531 . S
C918 H930 0.960 . S
C918 H931 0.962 . S
C918 H932 0.960 . S
C919 C916 1.511 . S
C919 H933 0.961 . S
C919 H934 0.961 . S
C919 H935 0.961 . S
C920 C921 1.370 . S
C920 C922 1.363 . S
C920 H936 0.931 . S
C921 C920 1.370 . S
C921 C925 1.408 . S
C922 C920 1.363 . S
C922 C923 1.370 . S
C922 C926 1.524 . S
C923 C915 1.503 . S
C923 C922 1.370 . S
C923 C924 1.403 . S
C924 C923 1.403 . S
C924 C925 1.404 . S
C924 C927 1.539 . S
C925 C921 1.408 . S
C925 C924 1.404 . S
C925 H937 0.930 . S
C926 C922 1.524 . S
C926 H938 0.956 . S
C926 H939 0.961 . S
C926 H940 0.961 . S
C927 C924 1.539 . S
C927 H941 0.958 . S
C927 H942 0.961 . S
C927 H943 0.960 . S
H928 C912 0.931 . S
H929 C917 0.929 . S
H930 C918 0.960 . S
H931 C918 0.962 . S
H932 C918 0.960 . S
H933 C919 0.961 . S
H934 C919 0.961 . S
H935 C919 0.961 . S
H936 C920 0.931 . S
H937 C925 0.930 . S
H938 C926 0.956 . S
H939 C926 0.961 . S
H940 C926 0.961 . S
H941 C927 0.958 . S
H942 C927 0.961 . S
H943 C927 0.960 . S
C944 C945 1.391 . S
C944 C946 1.394 . S
C944 H960 0.931 . S
C945 C944 1.391 . S
C945 C949 1.376 . S
C946 C944 1.394 . S
C946 C947 1.369 . S
C946 C950 1.531 . S
C947 C946 1.369 . S
C947 C948 1.410 . S
C947 C955 1.503 . S
C948 C947 1.410 . S
C948 C949 1.392 . S
C948 C951 1.511 . S
C949 C945 1.376 . S
C949 C948 1.392 . S
C949 H961 0.929 . S
C950 C946 1.531 . S
C950 H962 0.960 . S
C950 H963 0.962 . S
C950 H964 0.960 . S
C951 C948 1.511 . S
C951 H965 0.961 . S
C951 H966 0.961 . S
C951 H967 0.961 . S
C952 C953 1.370 . S
C952 C954 1.363 . S
C952 H968 0.931 . S
C953 C952 1.370 . S
C953 C957 1.408 . S
C954 C952 1.363 . S
C954 C955 1.370 . S
C954 C958 1.524 . S
C955 C947 1.503 . S
C955 C954 1.370 . S
C955 C956 1.403 . S
C956 C955 1.403 . S
C956 C957 1.404 . S
C956 C959 1.539 . S
C957 C953 1.408 . S
C957 C956 1.404 . S
C957 H969 0.930 . S
C958 C954 1.524 . S
C958 H970 0.956 . S
C958 H971 0.961 . S
C958 H972 0.961 . S
C959 C956 1.539 . S
C959 H973 0.958 . S
C959 H974 0.961 . S
C959 H975 0.960 . S
H960 C944 0.931 . S
H961 C949 0.929 . S
H962 C950 0.960 . S
H963 C950 0.962 . S
H964 C950 0.960 . S
H965 C951 0.961 . S
H966 C951 0.961 . S
H967 C951 0.961 . S
H968 C952 0.931 . S
H969 C957 0.930 . S
H970 C958 0.956 . S
H971 C958 0.961 . S
H972 C958 0.961 . S
H973 C959 0.958 . S
H974 C959 0.961 . S
H975 C959 0.960 . S
C976 C977 1.391 . S
C976 C978 1.394 . S
C976 H992 0.931 . S
C977 C976 1.391 . S
C977 C981 1.376 . S
C978 C976 1.394 . S
C978 C979 1.369 . S
C978 C982 1.531 . S
C979 C978 1.369 . S
C979 C980 1.410 . S
C979 C987 1.503 . S
C980 C979 1.410 . S
C980 C981 1.392 . S
C980 C983 1.511 . S
C981 C977 1.376 . S
C981 C980 1.392 . S
C981 H993 0.929 . S
C982 C978 1.531 . S
C982 H994 0.960 . S
C982 H995 0.962 . S
C982 H996 0.960 . S
C983 C980 1.511 . S
C983 H997 0.961 . S
C983 H998 0.961 . S
C983 H999 0.961 . S
C984 C985 1.370 . S
C984 C986 1.363 . S
C984 H1000 0.931 . S
C985 C984 1.370 . S
C985 C989 1.408 . S
C986 C984 1.363 . S
C986 C987 1.370 . S
C986 C990 1.524 . S
C987 C979 1.503 . S
C987 C986 1.370 . S
C987 C988 1.403 . S
C988 C987 1.403 . S
C988 C989 1.404 . S
C988 C991 1.539 . S
C989 C985 1.408 . S
C989 C988 1.404 . S
C989 H1001 0.930 . S
C990 C986 1.524 . S
C990 H1002 0.956 . S
C990 H1003 0.961 . S
C990 H1004 0.961 . S
C991 C988 1.539 . S
C991 H1005 0.958 . S
C991 H1006 0.961 . S
C991 H1007 0.960 . S
H992 C976 0.931 . S
H993 C981 0.929 . S
H994 C982 0.960 . S
H995 C982 0.962 . S
H996 C982 0.960 . S
H997 C983 0.961 . S
H998 C983 0.961 . S
H999 C983 0.961 . S
H1000 C984 0.931 . S
H1001 C989 0.930 . S
H1002 C990 0.956 . S
H1003 C990 0.961 . S
H1004 C990 0.961 . S
H1005 C991 0.958 . S
H1006 C991 0.961 . S
H1007 C991 0.960 . S
C1008 C1009 1.391 . S
C1008 C1010 1.394 . S
C1008 H1024 0.931 . S
C1009 C1008 1.391 . S
C1009 C1013 1.376 . S
C1010 C1008 1.394 . S
C1010 C1011 1.369 . S
C1010 C1014 1.531 . S
C1011 C1010 1.369 . S
C1011 C1012 1.410 . S
C1011 C1019 1.503 . S
C1012 C1011 1.410 . S
C1012 C1013 1.392 . S
C1012 C1015 1.511 . S
C1013 C1009 1.376 . S
C1013 C1012 1.392 . S
C1013 H1025 0.929 . S
C1014 C1010 1.531 . S
C1014 H1026 0.960 . S
C1014 H1027 0.962 . S
C1014 H1028 0.960 . S
C1015 C1012 1.511 . S
C1015 H1029 0.961 . S
C1015 H1030 0.961 . S
C1015 H1031 0.961 . S
C1016 C1017 1.370 . S
C1016 C1018 1.363 . S
C1016 H1032 0.931 . S
C1017 C1016 1.370 . S
C1017 C1021 1.408 . S
C1018 C1016 1.363 . S
C1018 C1019 1.370 . S
C1018 C1022 1.524 . S
C1019 C1011 1.503 . S
C1019 C1018 1.370 . S
C1019 C1020 1.403 . S
C1020 C1019 1.403 . S
C1020 C1021 1.404 . S
C1020 C1023 1.539 . S
C1021 C1017 1.408 . S
C1021 C1020 1.404 . S
C1021 H1033 0.930 . S
C1022 C1018 1.524 . S
C1022 H1034 0.956 . S
C1022 H1035 0.961 . S
C1022 H1036 0.961 . S
C1023 C1020 1.539 . S
C1023 H1037 0.958 . S
C1023 H1038 0.961 . S
C1023 H1039 0.960 . S
H1024 C1008 0.931 . S
H1025 C1013 0.929 . S
H1026 C1014 0.960 . S
H1027 C1014 0.962 . S
H1028 C1014 0.960 . S
H1029 C1015 0.961 . S
H1030 C1015 0.961 . S
H1031 C1015 0.961 . S
H1032 C1016 0.931 . S
H1033 C1021 0.930 . S
H1034 C1022 0.956 . S
H1035 C1022 0.961 . S
H1036 C1022 0.961 . S
H1037 C1023 0.958 . S
H1038 C1023 0.961 . S
H1039 C1023 0.960 . S
C1040 C1041 1.391 . S
C1040 C1042 1.394 . S
C1040 H1056 0.931 . S
C1041 C1040 1.391 . S
C1041 C1045 1.376 . S
C1042 C1040 1.394 . S
C1042 C1043 1.369 . S
C1042 C1046 1.531 . S
C1043 C1042 1.369 . S
C1043 C1044 1.410 . S
C1043 C1051 1.503 . S
C1044 C1043 1.410 . S
C1044 C1045 1.392 . S
C1044 C1047 1.511 . S
C1045 C1041 1.376 . S
C1045 C1044 1.392 . S
C1045 H1057 0.929 . S
C1046 C1042 1.531 . S
C1046 H1058 0.960 . S
C1046 H1059 0.962 . S
C1046 H1060 0.960 . S
C1047 C1044 1.511 . S
C1047 H1061 0.961 . S
C1047 H1062 0.961 . S
C1047 H1063 0.961 . S
C1048 C1049 1.370 . S
C1048 C1050 1.363 . S
C1048 H1064 0.931 . S
C1049 C1048 1.370 . S
C1049 C1053 1.408 . S
C1050 C1048 1.363 . S
C1050 C1051 1.370 . S
C1050 C1054 1.524 . S
C1051 C1043 1.503 . S
C1051 C1050 1.370 . S
C1051 C1052 1.403 . S
C1052 C1051 1.403 . S
C1052 C1053 1.404 . S
C1052 C1055 1.539 . S
C1053 C1049 1.408 . S
C1053 C1052 1.404 . S
C1053 H1065 0.930 . S
C1054 C1050 1.524 . S
C1054 H1066 0.956 . S
C1054 H1067 0.961 . S
C1054 H1068 0.961 . S
C1055 C1052 1.539 . S
C1055 H1069 0.958 . S
C1055 H1070 0.961 . S
C1055 H1071 0.960 . S
H1056 C1040 0.931 . S
H1057 C1045 0.929 . S
H1058 C1046 0.960 . S
H1059 C1046 0.962 . S
H1060 C1046 0.960 . S
H1061 C1047 0.961 . S
H1062 C1047 0.961 . S
H1063 C1047 0.961 . S
H1064 C1048 0.931 . S
H1065 C1053 0.930 . S
H1066 C1054 0.956 . S
H1067 C1054 0.961 . S
H1068 C1054 0.961 . S
H1069 C1055 0.958 . S
H1070 C1055 0.961 . S
H1071 C1055 0.960 . S
C1072 C1073 1.391 . S
C1072 C1074 1.394 . S
C1072 H1088 0.931 . S
C1073 C1072 1.391 . S
C1073 C1077 1.376 . S
C1074 C1072 1.394 . S
C1074 C1075 1.369 . S
C1074 C1078 1.531 . S
C1075 C1074 1.369 . S
C1075 C1076 1.410 . S
C1075 C1083 1.503 . S
C1076 C1075 1.410 . S
C1076 C1077 1.392 . S
C1076 C1079 1.511 . S
C1077 C1073 1.376 . S
C1077 C1076 1.392 . S
C1077 H1089 0.929 . S
C1078 C1074 1.531 . S
C1078 H1090 0.960 . S
C1078 H1091 0.962 . S
C1078 H1092 0.960 . S
C1079 C1076 1.511 . S
C1079 H1093 0.961 . S
C1079 H1094 0.961 . S
C1079 H1095 0.961 . S
C1080 C1081 1.370 . S
C1080 C1082 1.363 . S
C1080 H1096 0.931 . S
C1081 C1080 1.370 . S
C1081 C1085 1.408 . S
C1082 C1080 1.363 . S
C1082 C1083 1.370 . S
C1082 C1086 1.524 . S
C1083 C1075 1.503 . S
C1083 C1082 1.370 . S
C1083 C1084 1.403 . S
C1084 C1083 1.403 . S
C1084 C1085 1.404 . S
C1084 C1087 1.539 . S
C1085 C1081 1.408 . S
C1085 C1084 1.404 . S
C1085 H1097 0.930 . S
C1086 C1082 1.524 . S
C1086 H1098 0.956 . S
C1086 H1099 0.961 . S
C1086 H1100 0.961 . S
C1087 C1084 1.539 . S
C1087 H1101 0.958 . S
C1087 H1102 0.961 . S
C1087 H1103 0.960 . S
H1088 C1072 0.931 . S
H1089 C1077 0.929 . S
H1090 C1078 0.960 . S
H1091 C1078 0.962 . S
H1092 C1078 0.960 . S
H1093 C1079 0.961 . S
H1094 C1079 0.961 . S
H1095 C1079 0.961 . S
H1096 C1080 0.931 . S
H1097 C1085 0.930 . S
H1098 C1086 0.956 . S
H1099 C1086 0.961 . S
H1100 C1086 0.961 . S
H1101 C1087 0.958 . S
H1102 C1087 0.961 . S
H1103 C1087 0.960 . S
C1104 C1105 1.391 . S
C1104 C1106 1.394 . S
C1104 H1120 0.931 . S
C1105 C1104 1.391 . S
C1105 C1109 1.376 . S
C1106 C1104 1.394 . S
C1106 C1107 1.369 . S
C1106 C1110 1.531 . S
C1107 C1106 1.369 . S
C1107 C1108 1.410 . S
C1107 C1115 1.503 . S
C1108 C1107 1.410 . S
C1108 C1109 1.392 . S
C1108 C1111 1.511 . S
C1109 C1105 1.376 . S
C1109 C1108 1.392 . S
C1109 H1121 0.929 . S
C1110 C1106 1.531 . S
C1110 H1122 0.960 . S
C1110 H1123 0.962 . S
C1110 H1124 0.960 . S
C1111 C1108 1.511 . S
C1111 H1125 0.961 . S
C1111 H1126 0.961 . S
C1111 H1127 0.961 . S
C1112 C1113 1.370 . S
C1112 C1114 1.363 . S
C1112 H1128 0.931 . S
C1113 C1112 1.370 . S
C1113 C1117 1.408 . S
C1114 C1112 1.363 . S
C1114 C1115 1.370 . S
C1114 C1118 1.524 . S
C1115 C1107 1.503 . S
C1115 C1114 1.370 . S
C1115 C1116 1.403 . S
C1116 C1115 1.403 . S
C1116 C1117 1.404 . S
C1116 C1119 1.539 . S
C1117 C1113 1.408 . S
C1117 C1116 1.404 . S
C1117 H1129 0.930 . S
C1118 C1114 1.524 . S
C1118 H1130 0.956 . S
C1118 H1131 0.961 . S
C1118 H1132 0.961 . S
C1119 C1116 1.539 . S
C1119 H1133 0.958 . S
C1119 H1134 0.961 . S
C1119 H1135 0.960 . S
H1120 C1104 0.931 . S
H1121 C1109 0.929 . S
H1122 C1110 0.960 . S
H1123 C1110 0.962 . S
H1124 C1110 0.960 . S
H1125 C1111 0.961 . S
H1126 C1111 0.961 . S
H1127 C1111 0.961 . S
H1128 C1112 0.931 . S
H1129 C1117 0.930 . S
H1130 C1118 0.956 . S
H1131 C1118 0.961 . S
H1132 C1118 0.961 . S
H1133 C1119 0.958 . S
H1134 C1119 0.961 . S
H1135 C1119 0.960 . S
C1136 C1137 1.391 . S
C1136 C1138 1.394 . S
C1136 H1152 0.931 . S
C1137 C1136 1.391 . S
C1137 C1141 1.376 . S
C1138 C1136 1.394 . S
C1138 C1139 1.369 . S
C1138 C1142 1.531 . S
C1139 C1138 1.369 . S
C1139 C1140 1.410 . S
C1139 C1147 1.503 . S
C1140 C1139 1.410 . S
C1140 C1141 1.392 . S
C1140 C1143 1.511 . S
C1141 C1137 1.376 . S
C1141 C1140 1.392 . S
C1141 H1153 0.929 . S
C1142 C1138 1.531 . S
C1142 H1154 0.960 . S
C1142 H1155 0.962 . S
C1142 H1156 0.960 . S
C1143 C1140 1.511 . S
C1143 H1157 0.961 . S
C1143 H1158 0.961 . S
C1143 H1159 0.961 . S
C1144 C1145 1.370 . S
C1144 C1146 1.363 . S
C1144 H1160 0.931 . S
C1145 C1144 1.370 . S
C1145 C1149 1.408 . S
C1146 C1144 1.363 . S
C1146 C1147 1.370 . S
C1146 C1150 1.524 . S
C1147 C1139 1.503 . S
C1147 C1146 1.370 . S
C1147 C1148 1.403 . S
C1148 C1147 1.403 . S
C1148 C1149 1.404 . S
C1148 C1151 1.539 . S
C1149 C1145 1.408 . S
C1149 C1148 1.404 . S
C1149 H1161 0.930 . S
C1150 C1146 1.524 . S
C1150 H1162 0.956 . S
C1150 H1163 0.961 . S
C1150 H1164 0.961 . S
C1151 C1148 1.539 . S
C1151 H1165 0.958 . S
C1151 H1166 0.961 . S
C1151 H1167 0.960 . S
H1152 C1136 0.931 . S
H1153 C1141 0.929 . S
H1154 C1142 0.960 . S
H1155 C1142 0.962 . S
H1156 C1142 0.960 . S
H1157 C1143 0.961 . S
H1158 C1143 0.961 . S
H1159 C1143 0.961 . S
H1160 C1144 0.931 . S
H1161 C1149 0.930 . S
H1162 C1150 0.956 . S
H1163 C1150 0.961 . S
H1164 C1150 0.961 . S
H1165 C1151 0.958 . S
H1166 C1151 0.961 . S
H1167 C1151 0.960 . S
C1168 C1169 1.391 . S
C1168 C1170 1.394 . S
C1168 H1184 0.931 . S
C1169 C1168 1.391 . S
C1169 C1173 1.376 . S
C1170 C1168 1.394 . S
C1170 C1171 1.369 . S
C1170 C1174 1.531 . S
C1171 C1170 1.369 . S
C1171 C1172 1.410 . S
C1171 C1179 1.503 . S
C1172 C1171 1.410 . S
C1172 C1173 1.392 . S
C1172 C1175 1.511 . S
C1173 C1169 1.376 . S
C1173 C1172 1.392 . S
C1173 H1185 0.929 . S
C1174 C1170 1.531 . S
C1174 H1186 0.960 . S
C1174 H1187 0.962 . S
C1174 H1188 0.960 . S
C1175 C1172 1.511 . S
C1175 H1189 0.961 . S
C1175 H1190 0.961 . S
C1175 H1191 0.961 . S
C1176 C1177 1.370 . S
C1176 C1178 1.363 . S
C1176 H1192 0.931 . S
C1177 C1176 1.370 . S
C1177 C1181 1.408 . S
C1178 C1176 1.363 . S
C1178 C1179 1.370 . S
C1178 C1182 1.524 . S
C1179 C1171 1.503 . S
C1179 C1178 1.370 . S
C1179 C1180 1.403 . S
C1180 C1179 1.403 . S
C1180 C1181 1.404 . S
C1180 C1183 1.539 . S
C1181 C1177 1.408 . S
C1181 C1180 1.404 . S
C1181 H1193 0.930 . S
C1182 C1178 1.524 . S
C1182 H1194 0.956 . S
C1182 H1195 0.961 . S
C1182 H1196 0.961 . S
C1183 C1180 1.539 . S
C1183 H1197 0.958 . S
C1183 H1198 0.961 . S
C1183 H1199 0.960 . S
H1184 C1168 0.931 . S
H1185 C1173 0.929 . S
H1186 C1174 0.960 . S
H1187 C1174 0.962 . S
H1188 C1174 0.960 . S
H1189 C1175 0.961 . S
H1190 C1175 0.961 . S
H1191 C1175 0.961 . S
H1192 C1176 0.931 . S
H1193 C1181 0.930 . S
H1194 C1182 0.956 . S
H1195 C1182 0.961 . S
H1196 C1182 0.961 . S
H1197 C1183 0.958 . S
H1198 C1183 0.961 . S
H1199 C1183 0.960 . S
C1200 C1201 1.391 . S
C1200 C1202 1.394 . S
C1200 H1216 0.931 . S
C1201 C1200 1.391 . S
C1201 C1205 1.376 . S
C1202 C1200 1.394 . S
C1202 C1203 1.369 . S
C1202 C1206 1.531 . S
C1203 C1202 1.369 . S
C1203 C1204 1.410 . S
C1203 C1211 1.503 . S
C1204 C1203 1.410 . S
C1204 C1205 1.392 . S
C1204 C1207 1.511 . S
C1205 C1201 1.376 . S
C1205 C1204 1.392 . S
C1205 H1217 0.929 . S
C1206 C1202 1.531 . S
C1206 H1218 0.960 . S
C1206 H1219 0.962 . S
C1206 H1220 0.960 . S
C1207 C1204 1.511 . S
C1207 H1221 0.961 . S
C1207 H1222 0.961 . S
C1207 H1223 0.961 . S
C1208 C1209 1.370 . S
C1208 C1210 1.363 . S
C1208 H1224 0.931 . S
C1209 C1208 1.370 . S
C1209 C1213 1.408 . S
C1210 C1208 1.363 . S
C1210 C1211 1.370 . S
C1210 C1214 1.524 . S
C1211 C1203 1.503 . S
C1211 C1210 1.370 . S
C1211 C1212 1.403 . S
C1212 C1211 1.403 . S
C1212 C1213 1.404 . S
C1212 C1215 1.539 . S
C1213 C1209 1.408 . S
C1213 C1212 1.404 . S
C1213 H1225 0.930 . S
C1214 C1210 1.524 . S
C1214 H1226 0.956 . S
C1214 H1227 0.961 . S
C1214 H1228 0.961 . S
C1215 C1212 1.539 . S
C1215 H1229 0.958 . S
C1215 H1230 0.961 . S
C1215 H1231 0.960 . S
H1216 C1200 0.931 . S
H1217 C1205 0.929 . S
H1218 C1206 0.960 . S
H1219 C1206 0.962 . S
H1220 C1206 0.960 . S
H1221 C1207 0.961 . S
H1222 C1207 0.961 . S
H1223 C1207 0.961 . S
H1224 C1208 0.931 . S
H1225 C1213 0.930 . S
H1226 C1214 0.956 . S
H1227 C1214 0.961 . S
H1228 C1214 0.961 . S
H1229 C1215 0.958 . S
H1230 C1215 0.961 . S
H1231 C1215 0.960 . S
C1232 C1233 1.391 . S
C1232 C1234 1.394 . S
C1232 H1248 0.931 . S
C1233 C1232 1.391 . S
C1233 C1237 1.376 . S
C1234 C1232 1.394 . S
C1234 C1235 1.369 . S
C1234 C1238 1.531 . S
C1235 C1234 1.369 . S
C1235 C1236 1.410 . S
C1235 C1243 1.503 . S
C1236 C1235 1.410 . S
C1236 C1237 1.392 . S
C1236 C1239 1.511 . S
C1237 C1233 1.376 . S
C1237 C1236 1.392 . S
C1237 H1249 0.929 . S
C1238 C1234 1.531 . S
C1238 H1250 0.960 . S
C1238 H1251 0.962 . S
C1238 H1252 0.960 . S
C1239 C1236 1.511 . S
C1239 H1253 0.961 . S
C1239 H1254 0.961 . S
C1239 H1255 0.961 . S
C1240 C1241 1.370 . S
C1240 C1242 1.363 . S
C1240 H1256 0.931 . S
C1241 C1240 1.370 . S
C1241 C1245 1.408 . S
C1242 C1240 1.363 . S
C1242 C1243 1.370 . S
C1242 C1246 1.524 . S
C1243 C1235 1.503 . S
C1243 C1242 1.370 . S
C1243 C1244 1.403 . S
C1244 C1243 1.403 . S
C1244 C1245 1.404 . S
C1244 C1247 1.539 . S
C1245 C1241 1.408 . S
C1245 C1244 1.404 . S
C1245 H1257 0.930 . S
C1246 C1242 1.524 . S
C1246 H1258 0.956 . S
C1246 H1259 0.961 . S
C1246 H1260 0.961 . S
C1247 C1244 1.539 . S
C1247 H1261 0.958 . S
C1247 H1262 0.961 . S
C1247 H1263 0.960 . S
H1248 C1232 0.931 . S
H1249 C1237 0.929 . S
H1250 C1238 0.960 . S
H1251 C1238 0.962 . S
H1252 C1238 0.960 . S
H1253 C1239 0.961 . S
H1254 C1239 0.961 . S
H1255 C1239 0.961 . S
H1256 C1240 0.931 . S
H1257 C1245 0.930 . S
H1258 C1246 0.956 . S
H1259 C1246 0.961 . S
H1260 C1246 0.961 . S
H1261 C1247 0.958 . S
H1262 C1247 0.961 . S
H1263 C1247 0.960 . S
C1264 C1265 1.391 . S
C1264 C1266 1.394 . S
C1264 H1280 0.931 . S
C1265 C1264 1.391 . S
C1265 C1269 1.376 . S
C1266 C1264 1.394 . S
C1266 C1267 1.369 . S
C1266 C1270 1.531 . S
C1267 C1266 1.369 . S
C1267 C1268 1.410 . S
C1267 C1275 1.503 . S
C1268 C1267 1.410 . S
C1268 C1269 1.392 . S
C1268 C1271 1.511 . S
C1269 C1265 1.376 . S
C1269 C1268 1.392 . S
C1269 H1281 0.929 . S
C1270 C1266 1.531 . S
C1270 H1282 0.960 . S
C1270 H1283 0.962 . S
C1270 H1284 0.960 . S
C1271 C1268 1.511 . S
C1271 H1285 0.961 . S
C1271 H1286 0.961 . S
C1271 H1287 0.961 . S
C1272 C1273 1.370 . S
C1272 C1274 1.363 . S
C1272 H1288 0.931 . S
C1273 C1272 1.370 . S
C1273 C1277 1.408 . S
C1274 C1272 1.363 . S
C1274 C1275 1.370 . S
C1274 C1278 1.524 . S
C1275 C1267 1.503 . S
C1275 C1274 1.370 . S
C1275 C1276 1.403 . S
C1276 C1275 1.403 . S
C1276 C1277 1.404 . S
C1276 C1279 1.539 . S
C1277 C1273 1.408 . S
C1277 C1276 1.404 . S
C1277 H1289 0.930 . S
C1278 C1274 1.524 . S
C1278 H1290 0.956 . S
C1278 H1291 0.961 . S
C1278 H1292 0.961 . S
C1279 C1276 1.539 . S
C1279 H1293 0.958 . S
C1279 H1294 0.961 1_655 S
C1279 H1295 0.960 . S
H1280 C1264 0.931 . S
H1281 C1269 0.929 . S
H1282 C1270 0.960 . S
H1283 C1270 0.962 . S
H1284 C1270 0.960 . S
H1285 C1271 0.961 . S
H1286 C1271 0.961 . S
H1287 C1271 0.961 . S
H1288 C1272 0.931 . S
H1289 C1277 0.930 . S
H1290 C1278 0.956 . S
H1291 C1278 0.961 . S
H1292 C1278 0.961 . S
H1293 C1279 0.958 . S
H1294 C1279 0.961 1_455 S
H1295 C1279 0.960 . S
C1296 C1297 1.391 . S
C1296 C1298 1.394 . S
C1296 H1312 0.931 . S
C1297 C1296 1.391 . S
C1297 C1301 1.376 . S
C1298 C1296 1.394 . S
C1298 C1299 1.369 . S
C1298 C1302 1.531 . S
C1299 C1298 1.369 . S
C1299 C1300 1.410 . S
C1299 C1307 1.503 . S
C1300 C1299 1.410 . S
C1300 C1301 1.392 . S
C1300 C1303 1.511 . S
C1301 C1297 1.376 . S
C1301 C1300 1.392 . S
C1301 H1313 0.929 . S
C1302 C1298 1.531 . S
C1302 H1314 0.960 . S
C1302 H1315 0.962 . S
C1302 H1316 0.960 . S
C1303 C1300 1.511 . S
C1303 H1317 0.961 . S
C1303 H1318 0.961 . S
C1303 H1319 0.961 . S
C1304 C1305 1.370 . S
C1304 C1306 1.363 . S
C1304 H1320 0.936 . S
C1305 C1304 1.370 . S
C1305 C1309 1.408 . S
C1306 C1304 1.363 . S
C1306 C1307 1.370 . S
C1306 C1310 1.524 . S
C1307 C1299 1.503 . S
C1307 C1306 1.370 . S
C1307 C1308 1.403 . S
C1308 C1307 1.403 . S
C1308 C1309 1.404 . S
C1308 C1311 1.539 . S
C1309 C1305 1.408 . S
C1309 C1308 1.404 . S
C1309 H1321 0.930 . S
C1310 C1306 1.524 . S
C1310 H1322 0.956 . S
C1310 H1323 0.961 . S
C1310 H1324 0.955 1_655 S
C1311 C1308 1.539 . S
C1311 H1325 0.958 . S
C1311 H1326 0.961 . S
C1311 H1327 0.960 . S
H1312 C1296 0.931 . S
H1313 C1301 0.929 . S
H1314 C1302 0.960 . S
H1315 C1302 0.962 . S
H1316 C1302 0.960 . S
H1317 C1303 0.961 . S
H1318 C1303 0.961 . S
H1319 C1303 0.961 . S
H1320 C1304 0.936 . S
H1321 C1309 0.930 . S
H1322 C1310 0.956 . S
H1323 C1310 0.961 . S
H1324 C1310 0.955 1_455 S
H1325 C1311 0.958 . S
H1326 C1311 0.961 . S
H1327 C1311 0.960 . S
C1328 C1329 1.391 . S
C1328 C1330 1.394 . S
C1328 H1344 0.931 . S
C1329 C1328 1.391 . S
C1329 C1333 1.376 . S
C1330 C1328 1.394 . S
C1330 C1331 1.369 . S
C1330 C1334 1.531 . S
C1331 C1330 1.369 . S
C1331 C1332 1.410 . S
C1331 C1339 1.503 . S
C1332 C1331 1.410 . S
C1332 C1333 1.392 . S
C1332 C1335 1.511 . S
C1333 C1329 1.376 . S
C1333 C1332 1.392 . S
C1333 H1345 0.929 . S
C1334 C1330 1.531 . S
C1334 H1346 0.960 . S
C1334 H1347 0.962 . S
C1334 H1348 0.960 . S
C1335 C1332 1.511 . S
C1335 H1349 0.961 . S
C1335 H1350 0.961 . S
C1335 H1351 0.961 . S
C1336 C1337 1.370 . S
C1336 C1338 1.363 . S
C1336 H1352 0.931 . S
C1337 C1336 1.370 . S
C1337 C1341 1.408 . S
C1338 C1336 1.363 . S
C1338 C1339 1.370 . S
C1338 C1342 1.524 . S
C1339 C1331 1.503 . S
C1339 C1338 1.370 . S
C1339 C1340 1.403 . S
C1340 C1339 1.403 . S
C1340 C1341 1.404 . S
C1340 C1343 1.539 . S
C1341 C1337 1.408 . S
C1341 C1340 1.404 . S
C1341 H1353 0.930 . S
C1342 C1338 1.524 . S
C1342 H1354 0.956 . S
C1342 H1355 0.961 . S
C1342 H1356 0.961 . S
C1343 C1340 1.539 . S
C1343 H1357 0.958 . S
C1343 H1358 0.961 . S
C1343 H1359 0.960 . S
H1344 C1328 0.931 . S
H1345 C1333 0.929 . S
H1346 C1334 0.960 . S
H1347 C1334 0.962 . S
H1348 C1334 0.960 . S
H1349 C1335 0.961 . S
H1350 C1335 0.961 . S
H1351 C1335 0.961 . S
H1352 C1336 0.931 . S
H1353 C1341 0.930 . S
H1354 C1342 0.956 . S
H1355 C1342 0.961 . S
H1356 C1342 0.961 . S
H1357 C1343 0.958 . S
H1358 C1343 0.961 . S
H1359 C1343 0.960 . S
C1360 C1361 1.391 . S
C1360 C1362 1.394 . S
C1360 H1376 0.931 . S
C1361 C1360 1.391 . S
C1361 C1365 1.376 . S
C1362 C1360 1.394 . S
C1362 C1363 1.369 . S
C1362 C1366 1.531 . S
C1363 C1362 1.369 . S
C1363 C1364 1.410 . S
C1363 C1371 1.503 . S
C1364 C1363 1.410 . S
C1364 C1365 1.392 . S
C1364 C1367 1.511 . S
C1365 C1361 1.376 . S
C1365 C1364 1.392 . S
C1365 H1377 0.929 . S
C1366 C1362 1.531 . S
C1366 H1378 0.960 . S
C1366 H1379 0.962 . S
C1366 H1380 0.960 . S
C1367 C1364 1.511 . S
C1367 H1381 0.961 . S
C1367 H1382 0.961 . S
C1367 H1383 0.961 . S
C1368 C1369 1.370 . S
C1368 C1370 1.363 . S
C1368 H1384 0.931 . S
C1369 C1368 1.370 . S
C1369 C1373 1.408 . S
C1370 C1368 1.363 . S
C1370 C1371 1.370 . S
C1370 C1374 1.524 . S
C1371 C1363 1.503 . S
C1371 C1370 1.370 . S
C1371 C1372 1.403 . S
C1372 C1371 1.403 . S
C1372 C1373 1.404 . S
C1372 C1375 1.539 . S
C1373 C1369 1.408 . S
C1373 C1372 1.404 . S
C1373 H1385 0.930 . S
C1374 C1370 1.524 . S
C1374 H1386 0.956 . S
C1374 H1387 0.961 . S
C1374 H1388 0.961 . S
C1375 C1372 1.539 . S
C1375 H1389 0.958 . S
C1375 H1390 0.961 . S
C1375 H1391 0.960 . S
H1376 C1360 0.931 . S
H1377 C1365 0.929 . S
H1378 C1366 0.960 . S
H1379 C1366 0.962 . S
H1380 C1366 0.960 . S
H1381 C1367 0.961 . S
H1382 C1367 0.961 . S
H1383 C1367 0.961 . S
H1384 C1368 0.931 . S
H1385 C1373 0.930 . S
H1386 C1374 0.956 . S
H1387 C1374 0.961 . S
H1388 C1374 0.961 . S
H1389 C1375 0.958 . S
H1390 C1375 0.961 . S
H1391 C1375 0.960 . S
C1392 C1393 1.391 . S
C1392 C1394 1.394 . S
C1392 H1408 0.931 . S
C1393 C1392 1.391 . S
C1393 C1397 1.376 . S
C1394 C1392 1.394 . S
C1394 C1395 1.369 . S
C1394 C1398 1.531 . S
C1395 C1394 1.369 . S
C1395 C1396 1.410 . S
C1395 C1403 1.503 . S
C1396 C1395 1.410 . S
C1396 C1397 1.392 . S
C1396 C1399 1.511 . S
C1397 C1393 1.376 . S
C1397 C1396 1.392 . S
C1397 H1409 0.929 . S
C1398 C1394 1.531 . S
C1398 H1410 0.960 . S
C1398 H1411 0.962 . S
C1398 H1412 0.960 . S
C1399 C1396 1.511 . S
C1399 H1413 0.961 . S
C1399 H1414 0.961 . S
C1399 H1415 0.961 . S
C1400 C1401 1.370 . S
C1400 C1402 1.363 . S
C1400 H1416 0.931 . S
C1401 C1400 1.370 . S
C1401 C1405 1.408 . S
C1402 C1400 1.363 . S
C1402 C1403 1.370 . S
C1402 C1406 1.524 . S
C1403 C1395 1.503 . S
C1403 C1402 1.370 . S
C1403 C1404 1.403 . S
C1404 C1403 1.403 . S
C1404 C1405 1.404 . S
C1404 C1407 1.539 . S
C1405 C1401 1.408 . S
C1405 C1404 1.404 . S
C1405 H1417 0.930 . S
C1406 C1402 1.524 . S
C1406 H1418 0.956 . S
C1406 H1419 0.961 . S
C1406 H1420 0.961 . S
C1407 C1404 1.539 . S
C1407 H1421 0.958 . S
C1407 H1422 0.961 . S
C1407 H1423 0.960 . S
H1408 C1392 0.931 . S
H1409 C1397 0.929 . S
H1410 C1398 0.960 . S
H1411 C1398 0.962 . S
H1412 C1398 0.960 . S
H1413 C1399 0.961 . S
H1414 C1399 0.961 . S
H1415 C1399 0.961 . S
H1416 C1400 0.931 . S
H1417 C1405 0.930 . S
H1418 C1406 0.956 . S
H1419 C1406 0.961 . S
H1420 C1406 0.961 . S
H1421 C1407 0.958 . S
H1422 C1407 0.961 . S
H1423 C1407 0.960 . S
C657 C242 1.477 1_545 S
C665 C394 1.489 . S
C697 C478 1.474 . S
C689 C301 1.484 . S
C729 C471 1.485 . S
C721 C162 1.461 . S
C753 C221 1.489 . S
C761 C387 1.488 . S
C793 C551 1.489 . S
C785 C82 1.494 1_565 S
C825 C635 1.473 . S
C817 C141 1.471 . S
C849 C2 1.471 . S
C857 C628 1.491 . S
C881 C61 1.458 1_565 S
C889 C544 1.481 . S
C921 C378 1.361 . S
C913 C42 1.478 . S
C953 C462 1.343 . S
C945 C21 1.525 . S
C985 C473 1.383 . S
C977 C122 1.531 . S
C1017 C389 1.418 . S
C1009 C101 1.548 . S
C1049 C557 1.348 . S
C1041 C202 1.531 . S
C1073 C181 1.486 . S
C1081 C641 1.345 . S
C1113 C630 1.382 . S
C1105 C282 1.535 . S
C1137 C261 1.535 . S
C1145 C546 1.387 . S
C1177 C376 1.613 . S
C1169 C15 1.584 . S
C1209 C460 1.599 . S
C1201 C55 1.571 . S
C1233 C95 1.600 . S
C1241 C467 1.595 . S
C1273 C383 1.580 . S
C1265 C135 1.588 . S
C1305 C555 1.608 . S
C1297 C175 1.591 . S
C1329 C215 1.598 . S
C1337 C639 1.592 . S
C1361 C255 1.582 . S
C1369 C646 1.585 . S
C1393 C295 1.573 . S
C1401 C562 1.571 . S
