# Generated by pormake.
# Topology gar, (4,6)-cn, num edge types: 1
# Building blocks:
#     Node 0, Type 0, BuildingBlock: TATPOV_clean_sbu_0, # of connection points: 4
#     Node 1, Type 0, BuildingBlock: TATPOV_clean_sbu_0, # of connection points: 4
#     Node 2, Type 0, BuildingBlock: TATPOV_clean_sbu_0, # of connection points: 4
#     Node 3, Type 0, BuildingBlock: TATPOV_clean_sbu_0, # of connection points: 4
#     Node 4, Type 0, BuildingBlock: TATPOV_clean_sbu_0, # of connection points: 4
#     Node 5, Type 0, BuildingBlock: TATPOV_clean_sbu_0, # of connection points: 4
#     Node 6, Type 0, BuildingBlock: TATPOV_clean_sbu_0, # of connection points: 4
#     Node 7, Type 0, BuildingBlock: TATPOV_clean_sbu_0, # of connection points: 4
#     Node 8, Type 0, BuildingBlock: TATPOV_clean_sbu_0, # of connection points: 4
#     Node 9, Type 0, BuildingBlock: TATPOV_clean_sbu_0, # of connection points: 4
#     Node 10, Type 0, BuildingBlock: TATPOV_clean_sbu_0, # of connection points: 4
#     Node 11, Type 0, BuildingBlock: TATPOV_clean_sbu_0, # of connection points: 4
#     Node 12, Type 0, BuildingBlock: TATPOV_clean_sbu_0, # of connection points: 4
#     Node 13, Type 0, BuildingBlock: TATPOV_clean_sbu_0, # of connection points: 4
#     Node 14, Type 0, BuildingBlock: TATPOV_clean_sbu_0, # of connection points: 4
#     Node 15, Type 0, BuildingBlock: TATPOV_clean_sbu_0, # of connection points: 4
#     Node 16, Type 0, BuildingBlock: TATPOV_clean_sbu_0, # of connection points: 4
#     Node 17, Type 0, BuildingBlock: TATPOV_clean_sbu_0, # of connection points: 4
#     Node 18, Type 0, BuildingBlock: TATPOV_clean_sbu_0, # of connection points: 4
#     Node 19, Type 0, BuildingBlock: TATPOV_clean_sbu_0, # of connection points: 4
#     Node 20, Type 0, BuildingBlock: TATPOV_clean_sbu_0, # of connection points: 4
#     Node 21, Type 0, BuildingBlock: TATPOV_clean_sbu_0, # of connection points: 4
#     Node 22, Type 0, BuildingBlock: TATPOV_clean_sbu_0, # of connection points: 4
#     Node 23, Type 0, BuildingBlock: TATPOV_clean_sbu_0, # of connection points: 4
#     Node 24, Type 1, BuildingBlock: INOVEN_clean_sbu_0, # of connection points: 6
#     Node 25, Type 1, BuildingBlock: INOVEN_clean_sbu_0, # of connection points: 6
#     Node 26, Type 1, BuildingBlock: INOVEN_clean_sbu_0, # of connection points: 6
#     Node 27, Type 1, BuildingBlock: INOVEN_clean_sbu_0, # of connection points: 6
#     Node 28, Type 1, BuildingBlock: INOVEN_clean_sbu_0, # of connection points: 6
#     Node 29, Type 1, BuildingBlock: INOVEN_clean_sbu_0, # of connection points: 6
#     Node 30, Type 1, BuildingBlock: INOVEN_clean_sbu_0, # of connection points: 6
#     Node 31, Type 1, BuildingBlock: INOVEN_clean_sbu_0, # of connection points: 6
#     Node 32, Type 1, BuildingBlock: INOVEN_clean_sbu_0, # of connection points: 6
#     Node 33, Type 1, BuildingBlock: INOVEN_clean_sbu_0, # of connection points: 6
#     Node 34, Type 1, BuildingBlock: INOVEN_clean_sbu_0, # of connection points: 6
#     Node 35, Type 1, BuildingBlock: INOVEN_clean_sbu_0, # of connection points: 6
#     Node 36, Type 1, BuildingBlock: INOVEN_clean_sbu_0, # of connection points: 6
#     Node 37, Type 1, BuildingBlock: INOVEN_clean_sbu_0, # of connection points: 6
#     Node 38, Type 1, BuildingBlock: INOVEN_clean_sbu_0, # of connection points: 6
#     Node 39, Type 1, BuildingBlock: INOVEN_clean_sbu_0, # of connection points: 6
#     Edge 40, Type (0, 1), None
#     Edge 41, Type (0, 1), None
#     Edge 42, Type (0, 1), None
#     Edge 43, Type (0, 1), None
#     Edge 44, Type (0, 1), None
#     Edge 45, Type (0, 1), None
#     Edge 46, Type (0, 1), None
#     Edge 47, Type (0, 1), None
#     Edge 48, Type (0, 1), None
#     Edge 49, Type (0, 1), None
#     Edge 50, Type (0, 1), None
#     Edge 51, Type (0, 1), None
#     Edge 52, Type (0, 1), None
#     Edge 53, Type (0, 1), None
#     Edge 54, Type (0, 1), None
#     Edge 55, Type (0, 1), None
#     Edge 56, Type (0, 1), None
#     Edge 57, Type (0, 1), None
#     Edge 58, Type (0, 1), None
#     Edge 59, Type (0, 1), None
#     Edge 60, Type (0, 1), None
#     Edge 61, Type (0, 1), None
#     Edge 62, Type (0, 1), None
#     Edge 63, Type (0, 1), None
#     Edge 64, Type (0, 1), None
#     Edge 65, Type (0, 1), None
#     Edge 66, Type (0, 1), None
#     Edge 67, Type (0, 1), None
#     Edge 68, Type (0, 1), None
#     Edge 69, Type (0, 1), None
#     Edge 70, Type (0, 1), None
#     Edge 71, Type (0, 1), None
#     Edge 72, Type (0, 1), None
#     Edge 73, Type (0, 1), None
#     Edge 74, Type (0, 1), None
#     Edge 75, Type (0, 1), None
#     Edge 76, Type (0, 1), None
#     Edge 77, Type (0, 1), None
#     Edge 78, Type (0, 1), None
#     Edge 79, Type (0, 1), None
#     Edge 80, Type (0, 1), None
#     Edge 81, Type (0, 1), None
#     Edge 82, Type (0, 1), None
#     Edge 83, Type (0, 1), None
#     Edge 84, Type (0, 1), None
#     Edge 85, Type (0, 1), None
#     Edge 86, Type (0, 1), None
#     Edge 87, Type (0, 1), None
#     Edge 88, Type (0, 1), None
#     Edge 89, Type (0, 1), None
#     Edge 90, Type (0, 1), None
#     Edge 91, Type (0, 1), None
#     Edge 92, Type (0, 1), None
#     Edge 93, Type (0, 1), None
#     Edge 94, Type (0, 1), None
#     Edge 95, Type (0, 1), None
#     Edge 96, Type (0, 1), None
#     Edge 97, Type (0, 1), None
#     Edge 98, Type (0, 1), None
#     Edge 99, Type (0, 1), None
#     Edge 100, Type (0, 1), None
#     Edge 101, Type (0, 1), None
#     Edge 102, Type (0, 1), None
#     Edge 103, Type (0, 1), None
#     Edge 104, Type (0, 1), None
#     Edge 105, Type (0, 1), None
#     Edge 106, Type (0, 1), None
#     Edge 107, Type (0, 1), None
#     Edge 108, Type (0, 1), None
#     Edge 109, Type (0, 1), None
#     Edge 110, Type (0, 1), None
#     Edge 111, Type (0, 1), None
#     Edge 112, Type (0, 1), None
#     Edge 113, Type (0, 1), None
#     Edge 114, Type (0, 1), None
#     Edge 115, Type (0, 1), None
#     Edge 116, Type (0, 1), None
#     Edge 117, Type (0, 1), None
#     Edge 118, Type (0, 1), None
#     Edge 119, Type (0, 1), None
#     Edge 120, Type (0, 1), None
#     Edge 121, Type (0, 1), None
#     Edge 122, Type (0, 1), None
#     Edge 123, Type (0, 1), None
#     Edge 124, Type (0, 1), None
#     Edge 125, Type (0, 1), None
#     Edge 126, Type (0, 1), None
#     Edge 127, Type (0, 1), None
#     Edge 128, Type (0, 1), None
#     Edge 129, Type (0, 1), None
#     Edge 130, Type (0, 1), None
#     Edge 131, Type (0, 1), None
#     Edge 132, Type (0, 1), None
#     Edge 133, Type (0, 1), None
#     Edge 134, Type (0, 1), None
#     Edge 135, Type (0, 1), None
# Relax obj value: 0.440
# Max RMSD: 0.448
# Mean RMSD: 0.230
data_MOF--net-gar--node1-TATPOV_clean_sbu_0--node2-INOVEN_clean_sbu_0--edge1-none
_symmetry_space_group_name_H-M    P1
_symmetry_Int_Tables_number       1
_symmetry_cell_setting            triclinic
loop_
_symmetry_equiv_pos_as_xyz
'x, y, z'
_cell_length_a     32.452618
_cell_length_b     26.65466
_cell_length_c     26.425615
_cell_angle_alpha  102.52991
_cell_angle_beta   97.755703
_cell_angle_gamma 106.797
loop_
_atom_site_label
_atom_site_type_symbol
_atom_site_fract_x
_atom_site_fract_y
_atom_site_fract_z
_atom_type_partial_charge
Zn0 Zn 0.14589 0.4224 0.37718 0.0
Zn1 Zn 0.2354 0.45054 0.39951 0.0
O2 O 0.23032 0.51202 0.45946 0.0
O3 O 0.16384 0.5039 0.41715 0.0
O4 O 0.29585 0.44376 0.38319 0.0
O5 O 0.13964 0.38314 0.43087 0.0
O6 O 0.20786 0.38383 0.42942 0.0
C7 C 0.19622 0.52755 0.45633 0.0
C8 C 0.17508 0.4312 0.30043 0.0
O9 O 0.20761 0.46725 0.33322 0.0
O10 O 0.16431 0.38585 0.31066 0.0
C11 C 0.29144 0.40757 0.34003 0.0
O12 O 0.25151 0.38031 0.31192 0.0
C13 C 0.17202 0.369 0.44602 0.0
Zn14 Zn 0.04521 0.69435 0.75061 0.0
Zn15 Zn 0.08247 0.78799 0.72717 0.0
O16 O 1.033 0.80724 0.75833 0.0
O17 O 0.9924 0.72573 0.75928 0.0
O18 O 0.1143 0.85193 0.70411 0.0
O19 O 0.09395 0.71289 0.81461 0.0
O20 O 0.12696 0.77803 0.78028 0.0
C21 C 0.9985 0.77653 0.76757 0.0
C22 C 0.07882 0.68788 0.65062 0.0
O23 O 0.07169 0.73286 0.65536 0.0
O24 O 0.07014 0.66239 0.68517 0.0
C25 C 0.14332 0.84553 0.67765 0.0
O26 O 0.15794 0.80453 0.67844 0.0
C27 C 0.12843 0.74927 0.81265 0.0
Zn28 Zn 0.64602 0.92264 0.87749 0.0
Zn29 Zn 0.73549 0.95065 0.89963 0.0
O30 O 0.73041 1.01216 0.95957 0.0
O31 O 0.66401 1.00421 0.91718 0.0
O32 O 0.79593 0.94387 0.88327 0.0
O33 O 0.63992 0.88364 0.93139 0.0
O34 O 0.708 0.88394 0.92956 0.0
C35 C 0.69636 1.02777 0.95641 0.0
C36 C 0.67508 0.93111 0.80059 0.0
O37 O 0.70763 0.96722 0.83329 0.0
O38 O 0.66433 0.88584 0.81099 0.0
C39 C 0.7915 0.90765 0.84012 0.0
O40 O 0.75155 0.88037 0.81205 0.0
C41 C 0.67225 0.86933 0.94638 0.0
Zn42 Zn 0.54527 0.19441 0.25066 0.0
Zn43 Zn 0.5825 0.28806 0.22721 0.0
O44 O 0.53303 0.3073 0.25839 0.0
O45 O 0.49245 0.22577 0.25933 0.0
O46 O 0.61433 0.352 0.20415 0.0
O47 O 0.59401 0.21296 0.31466 0.0
O48 O 0.627 0.27809 0.2803 0.0
C49 C 0.49854 0.27658 0.26762 0.0
C50 C 0.57887 0.18797 0.15066 0.0
O51 O 0.57171 0.23293 0.15539 0.0
O52 O 0.57022 0.16249 0.18522 0.0
C53 C 0.64335 0.34559 0.17768 0.0
O54 O 0.65797 0.3046 0.1785 0.0
C55 C 0.62849 0.24934 0.31267 0.0
Zn56 Zn 0.25845 0.89167 0.10069 0.0
Zn57 Zn 0.21644 0.89674 0.17398 0.0
O58 O 0.19694 0.95574 0.1378 0.0
O59 O 0.23219 0.95357 0.07341 0.0
O60 O 0.18042 0.89606 0.22809 0.0
O61 O 0.22584 0.80541 0.07319 0.0
O62 O 0.18997 0.81183 0.13728 0.0
C63 C 0.20574 0.97254 0.09725 0.0
C64 C 0.31515 0.9084 0.20804 0.0
O65 O 0.27941 0.91227 0.2212 0.0
O66 O 0.31715 0.90256 0.15926 0.0
C67 C 0.14003 0.88131 0.20638 0.0
O68 O 0.1287 0.87349 0.15489 0.0
C69 C 0.19924 0.78196 0.09885 0.0
Zn70 Zn 0.5382 0.80783 0.5066 0.0
Zn71 Zn 0.58841 0.81125 0.44096 0.0
O72 O 0.61804 0.89277 0.48204 0.0
O73 O 0.57074 0.89527 0.53349 0.0
O74 O 0.62439 0.8087 0.38644 0.0
O75 O 0.56284 0.74469 0.53328 0.0
O76 O 0.60497 0.75042 0.47592 0.0
C77 C 0.60254 0.92059 0.51502 0.0
C78 C 0.48827 0.80522 0.4046 0.0
O79 O 0.52721 0.80903 0.3972 0.0
O80 O 0.47984 0.79709 0.44848 0.0
C81 C 0.63255 0.84589 0.36273 0.0
O82 O 0.61203 0.88198 0.36928 0.0
C83 C 0.59221 0.72918 0.51264 0.0
Zn84 Zn 0.75845 0.39166 0.60067 0.0
Zn85 Zn 0.71645 0.39675 0.67398 0.0
O86 O 0.69695 0.45574 0.6378 0.0
O87 O 0.73219 0.45355 0.57339 0.0
O88 O 0.68043 0.39606 0.7281 0.0
O89 O 0.72584 0.3054 0.57319 0.0
O90 O 0.68999 0.31182 0.63728 0.0
C91 C 0.70574 0.47253 0.59724 0.0
C92 C 0.81516 0.4084 0.70802 0.0
O93 O 0.77943 0.41227 0.72119 0.0
O94 O 0.81715 0.40256 0.65923 0.0
C95 C 0.64004 0.3813 0.70638 0.0
O96 O 0.62871 0.37348 0.65489 0.0
C97 C 0.69925 0.28195 0.59885 0.0
Zn98 Zn 0.0382 0.30783 1.00658 0.0
Zn99 Zn 0.08842 0.31125 0.94095 0.0
O100 O 0.11805 0.39277 0.98203 0.0
O101 O 0.07074 0.39527 0.03347 0.0
O102 O 0.12439 0.3087 0.88643 0.0
O103 O 0.06283 0.24469 0.03327 0.0
O104 O 0.10497 0.25042 0.97591 0.0
C105 C 0.10255 0.4206 1.01501 0.0
C106 C 0.98827 0.30523 0.90459 0.0
O107 O 1.02721 0.30904 0.89719 0.0
O108 O 0.97984 0.29709 0.94847 0.0
C109 C 0.13255 0.34589 0.86272 0.0
O110 O 0.11204 0.38198 0.86927 0.0
C111 C 0.09221 0.22919 1.01263 0.0
Zn112 Zn 0.53889 0.98224 0.42931 0.0
Zn113 Zn 0.49776 0.09176 0.38529 0.0
O114 O 0.54717 0.13958 0.44921 0.0
O115 O 0.53155 0.05665 0.45369 0.0
O116 O 0.46959 0.13231 0.34531 0.0
O117 O 0.55663 0.98591 0.35786 0.0
O118 O 0.52977 0.04984 0.33773 0.0
C119 C 0.55968 0.10353 0.46461 0.0
C120 C 0.45178 1.00276 0.41392 0.0
O121 O 0.44289 0.04064 0.39878 0.0
O122 O 0.48973 1.01627 0.44342 0.0
C123 C 0.44023 0.10144 0.30473 0.0
O124 O 0.43831 0.05066 0.28691 0.0
C125 C 0.55026 1.01544 0.32722 0.0
Zn126 Zn 0.31797 0.29543 0.5237 0.0
Zn127 Zn 0.36018 0.22754 0.5196 0.0
O128 O 0.38213 0.26453 0.458 0.0
O129 O 0.34459 0.32049 0.45821 0.0
O130 O 0.39863 0.18198 0.52357 0.0
O131 O 0.34507 0.33065 0.60511 0.0
O132 O 0.37961 0.27091 0.60042 0.0
C133 C 0.37141 0.29973 0.43772 0.0
C134 C 0.26067 0.18296 0.51413 0.0
O135 O 0.29598 0.17232 0.50813 0.0
O136 O 0.26063 0.23135 0.51876 0.0
C137 C 0.39762 0.1576 0.55992 0.0
O138 O 0.36686 0.15626 0.58773 0.0
C139 C 0.36896 0.3086 0.6284 0.0
Zn140 Zn 0.23151 0.15069 0.83596 0.0
Zn141 Zn 0.26621 0.06799 0.81327 0.0
O142 O 0.22381 0.06383 0.88475 0.0
O143 O 0.20116 0.13492 0.89932 0.0
O144 O 0.30045 0.99421 0.80324 0.0
O145 O 0.19914 0.13034 0.75705 0.0
O146 O 0.22502 0.06262 0.73309 0.0
C147 C 0.20223 0.0919 0.91202 0.0
C148 C 0.31782 0.20297 0.82533 0.0
O149 O 0.31569 0.15166 0.8148 0.0
O150 O 0.28713 0.21564 0.84415 0.0
C151 C 0.3412 0.99182 0.81103 0.0
O152 O 0.37273 1.03915 0.82814 0.0
C153 C 0.20356 0.09417 0.71996 0.0
Zn154 Zn 0.50798 0.92555 0.99839 0.0
Zn155 Zn 0.43721 1.02683 1.0008 0.0
O156 O 0.41711 0.94245 0.95833 0.0
O157 O 0.44664 0.87541 0.96343 0.0
O158 O 0.38828 0.06068 0.99858 0.0
O159 O 0.48733 0.98457 0.03474 0.0
O160 O 0.45466 1.03142 0.07952 0.0
C161 C 0.41635 0.89252 0.9449 0.0
C162 C 0.51634 1.03902 0.97345 0.0
O163 O 0.49278 0.06976 0.9769 0.0
O164 O 0.49756 0.99164 0.9766 0.0
C165 C 0.39797 0.10941 0.02704 0.0
O166 O 0.43932 0.13657 0.05038 0.0
C167 C 0.47795 1.00079 0.07846 0.0
Zn168 Zn 0.47967 0.40219 0.08351 0.0
Zn169 Zn 0.43896 0.4715 0.0907 0.0
O170 O 0.41613 0.42951 1.00957 0.0
O171 O 0.4502 0.36928 1.00235 0.0
O172 O 0.4024 0.51982 0.09009 0.0
O173 O 0.45298 0.37532 0.14861 0.0
O174 O 0.41681 0.4329 0.15177 0.0
C175 C 0.42576 0.39161 0.98041 0.0
C176 C 0.53934 0.51323 0.09283 0.0
O177 O 0.50439 0.52452 0.09993 0.0
O178 O 0.5388 0.46451 0.08789 0.0
C179 C 0.40332 0.54482 0.0542 0.0
O180 O 0.43337 0.54547 0.0254 0.0
C181 C 0.42671 0.3962 0.17036 0.0
Zn182 Zn 0.79982 0.29486 0.09995 0.0
Zn183 Zn 0.85618 0.17817 0.10262 0.0
O184 O 0.83855 0.17108 1.02298 0.0
O185 O 0.81406 0.22865 0.06757 0.0
O186 O 0.90271 0.13889 0.10521 0.0
O187 O 0.8621 0.3371 0.13836 0.0
O188 O 0.88282 0.26335 0.14362 0.0
C189 C 0.81918 0.20586 1.02327 0.0
C190 C 0.77868 0.18177 0.13075 0.0
O191 O 0.79769 0.14589 0.12899 0.0
O192 O 0.8008 0.22524 0.12204 0.0
C193 C 0.89443 0.09202 0.07315 0.0
O194 O 0.85429 0.06685 0.04456 0.0
C195 C 0.88864 0.31492 0.15705 0.0
Zn196 Zn 0.26035 0.71065 0.17941 0.0
Zn197 Zn 0.29599 0.60457 0.23365 0.0
O198 O 0.26163 0.64699 0.27737 0.0
O199 O 0.23592 0.70755 0.24745 0.0
O200 O 0.32015 0.56234 0.27521 0.0
O201 O 0.26845 0.63647 0.15647 0.0
O202 O 0.24838 0.55638 0.16871 0.0
C203 C 0.23984 0.68058 0.28146 0.0
C204 C 0.34736 0.68925 0.20188 0.0
O205 O 0.35423 0.65334 0.22234 0.0
O206 O 0.30956 0.67511 0.17194 0.0
C207 C 0.35118 0.59296 0.31415 0.0
O208 O 0.35589 0.64484 0.33008 0.0
C209 C 0.23854 0.59136 0.14846 0.0
Zn210 Zn 0.97965 0.90219 0.5835 0.0
Zn211 Zn 0.93894 0.9715 0.59069 0.0
O212 O 0.91611 0.9295 0.50956 0.0
O213 O 0.95018 0.86927 0.50235 0.0
O214 O 0.90237 1.01982 0.59007 0.0
O215 O 0.95295 0.87532 0.64861 0.0
O216 O 0.91679 0.93289 0.65176 0.0
C217 C 0.92574 0.89161 0.4804 0.0
C218 C 0.03932 1.01321 0.59282 0.0
O219 O 1.00436 1.02451 0.59992 0.0
O220 O 0.03878 0.9645 0.58789 0.0
C221 C 0.90329 0.04481 0.55418 0.0
O222 O 0.93334 0.04546 0.52538 0.0
C223 C 0.92668 0.8962 0.67036 0.0
Zn224 Zn 0.06551 0.04744 0.27139 0.0
Zn225 Zn 1.03405 0.13295 0.29601 0.0
O226 O 0.07556 0.1355 0.37517 0.0
O227 O 0.09877 0.06562 0.34967 0.0
O228 O 1.00333 0.2094 0.30663 0.0
O229 O 0.09525 0.06359 0.20756 0.0
O230 O 0.07503 0.13644 0.2244 0.0
C231 C 0.09581 0.10238 0.38737 0.0
C232 C 0.97852 0.99888 0.28311 0.0
O233 O 0.98229 0.05073 0.29431 0.0
O234 O 1.00832 0.98467 0.2635 0.0
C235 C 0.9643 0.21379 0.28998 0.0
O236 O 0.93381 0.16801 0.26219 0.0
C237 C 0.09527 0.1075 0.19605 0.0
Zn238 Zn 0.29968 0.7947 0.60001 0.0
Zn239 Zn 0.3561 0.67805 0.60263 0.0
O240 O 0.3385 0.67102 0.52299 0.0
O241 O 0.31395 0.72852 0.5676 0.0
O242 O 0.40265 0.63879 0.6052 0.0
O243 O 0.36195 0.83695 0.63842 0.0
O244 O 0.38274 0.76323 0.64365 0.0
C245 C 0.31912 0.70579 0.5233 0.0
C246 C 0.27859 0.6816 0.63076 0.0
O247 O 0.29761 0.64573 0.62897 0.0
O248 O 0.30072 0.72509 0.62209 0.0
C249 C 0.39438 0.59193 0.57314 0.0
O250 O 0.35425 0.56674 0.54457 0.0
C251 C 0.38853 0.8148 0.65708 0.0
Zn252 Zn 0.56552 0.54745 0.7714 0.0
Zn253 Zn 0.53405 0.63295 0.79602 0.0
O254 O 0.57556 0.63551 0.87518 0.0
O255 O 0.59878 0.56564 0.84968 0.0
O256 O 0.50333 0.70939 0.8066 0.0
O257 O 0.59526 0.56359 0.70757 0.0
O258 O 0.57503 0.63643 0.72441 0.0
C259 C 0.59582 0.60239 0.88738 0.0
C260 C 0.47852 0.49887 0.78312 0.0
O261 O 0.48229 0.55072 0.79431 0.0
O262 O 0.50834 0.48467 0.76351 0.0
C263 C 0.46426 0.71375 0.79011 0.0
O264 O 0.43371 0.66792 0.76254 0.0
C265 C 0.59527 0.60749 0.69605 0.0
Zn266 Zn 0.76036 0.2106 0.67938 0.0
Zn267 Zn 0.79599 0.10454 0.73366 0.0
O268 O 0.76161 0.14695 0.77738 0.0
O269 O 0.73591 0.2075 0.74742 0.0
O270 O 0.82014 0.0623 0.77522 0.0
O271 O 0.76847 0.13642 0.65641 0.0
O272 O 0.74838 0.05636 0.66871 0.0
C273 C 0.73982 0.18054 0.78144 0.0
C274 C 0.84737 0.18921 0.70189 0.0
O275 O 0.85423 0.15332 0.72238 0.0
O276 O 0.80957 0.17507 0.67193 0.0
C277 C 0.85117 0.09292 0.81416 0.0
O278 O 0.85588 0.1448 0.83009 0.0
C279 C 0.73855 0.09132 0.64842 0.0
Zn280 Zn 0.81796 0.79545 1.02369 0.0
Zn281 Zn 0.86019 0.72756 1.01959 0.0
O282 O 0.88214 0.76456 0.95801 0.0
O283 O 0.8446 0.82051 0.9582 0.0
O284 O 0.89862 0.682 1.02355 0.0
O285 O 0.84506 0.83066 0.1051 0.0
O286 O 0.87961 0.77093 0.10041 0.0
C287 C 0.87142 0.79976 0.93772 0.0
C288 C 0.76067 0.68297 1.01411 0.0
O289 O 0.79599 0.67234 1.00812 0.0
O290 O 0.76062 0.73136 1.01874 0.0
C291 C 0.89761 0.65761 0.05989 0.0
O292 O 0.86686 0.65628 0.08771 0.0
C293 C 0.86895 0.80861 0.1284 0.0
Zn294 Zn 0.0389 0.4822 0.92927 0.0
Zn295 Zn 0.99776 0.59173 0.88525 0.0
O296 O 0.04718 0.63955 0.94916 0.0
O297 O 1.03158 0.55662 0.95362 0.0
O298 O 0.96958 0.63227 0.84528 0.0
O299 O 0.05663 0.48585 0.85781 0.0
O300 O 1.02976 0.54979 0.83769 0.0
C301 C 0.0597 0.6035 0.96455 0.0
C302 C 0.9518 0.50273 0.91391 0.0
O303 O 0.9429 0.54062 0.89878 0.0
O304 O 0.98975 0.51624 0.94339 0.0
C305 C 0.9402 0.60141 0.80471 0.0
O306 O 0.93826 0.55062 0.78689 0.0
C307 C 0.05024 0.51538 0.82717 0.0
Zn308 Zn 1.00793 0.42549 0.49827 0.0
Zn309 Zn 0.93716 0.52676 0.50076 0.0
O310 O 0.91705 0.44239 0.4583 0.0
O311 O 0.94657 0.37533 0.46342 0.0
O312 O 0.88824 0.56062 0.49857 0.0
O313 O 0.9873 0.48451 0.53467 0.0
O314 O 0.95464 0.53136 0.57946 0.0
C315 C 0.91628 0.39246 0.44488 0.0
C316 C 1.01627 0.53895 0.47334 0.0
O317 O 0.99271 0.5697 0.47682 0.0
O318 O 0.99749 0.49157 0.47646 0.0
C319 C 0.89794 0.60935 0.52704 0.0
O320 O 0.9393 0.6365 0.55037 0.0
C321 C 0.97792 0.50072 0.57839 0.0
Zn322 Zn 0.73151 0.65069 0.33596 0.0
Zn323 Zn 0.76621 0.56799 0.31327 0.0
O324 O 0.72381 0.56383 0.38475 0.0
O325 O 0.70116 0.63492 0.39932 0.0
O326 O 0.80046 0.49423 0.30323 0.0
O327 O 0.69914 0.63033 0.25705 0.0
O328 O 0.72503 0.56261 0.23309 0.0
C329 C 0.70224 0.5919 0.41202 0.0
C330 C 0.81782 0.70298 0.32532 0.0
O331 O 0.81569 0.65166 0.3148 0.0
O332 O 0.78713 0.71564 0.34415 0.0
C333 C 0.84122 0.49184 0.31104 0.0
O334 O 0.87274 0.53917 0.32817 0.0
C335 C 0.70357 0.59416 0.21996 0.0
Gd336 Gd 0.11488 0.06076 0.02504 0.0
Gd337 Gd 0.18197 0.13994 0.08344 0.0
C338 C 0.112 0.18721 0.03063 0.0
C339 C 1.03079 1.00894 1.00368 0.0
C340 C 0.99646 1.02854 0.02598 0.0
C341 C 0.95267 0.9942 1.01609 0.0
C342 C 1.00731 0.0822 0.05786 0.0
C343 C 0.93023 0.0691 0.06176 0.0
C344 C 0.97469 0.10229 0.07545 0.0
C345 C 0.91984 1.01439 0.0328 0.0
C346 C 0.17803 0.07837 0.95918 0.0
C347 C 0.18537 1.01408 0.07899 0.0
C348 C 0.26552 0.193 0.10505 0.0
C349 C 0.29887 0.17348 0.08087 0.0
C350 C 0.3422 0.20792 0.08802 0.0
C351 C 0.28716 0.11961 0.04935 0.0
C352 C 0.36306 0.13258 0.04079 0.0
C353 C 0.31882 0.09927 0.02973 0.0
C354 C 0.37416 0.1876 0.06905 0.0
C355 C 0.11918 0.1214 0.14908 0.0
O356 O 0.09224 0.13386 1.01078 0.0
O357 O 0.15058 0.20271 0.06365 0.0
O358 O 0.05048 1.03491 0.9724 0.0
O359 O 0.05882 0.9996 0.03742 0.0
O360 O 0.15135 1.03092 0.9594 0.0
O361 O 0.16749 0.11316 0.99292 0.0
O362 O 0.20481 0.06746 0.09899 0.0
O363 O 0.14689 0.99832 0.04542 0.0
O364 O 0.24632 0.16577 0.13577 0.0
O365 O 0.2372 0.20327 0.07256 0.0
O366 O 0.14519 0.16914 0.14877 0.0
O367 O 0.12993 0.08696 0.11537 0.0
H368 H 0.94352 0.95199 0.99437 0.0
H369 H 0.04101 0.10901 0.06897 0.0
H370 H 0.98415 0.14439 0.09819 0.0
H371 H 0.8861 0.9872 1.02226 0.0
H372 H 0.35163 0.25026 0.10894 0.0
H373 H 0.25355 0.09284 0.03998 0.0
H374 H 0.30881 0.05698 1.00734 0.0
H375 H 0.40776 0.21486 0.07735 0.0
Gd376 Gd 0.43086 0.85867 0.28367 0.0
Gd377 Gd 0.36861 0.84537 0.32008 0.0
C378 C 0.43548 0.95033 0.37588 0.0
C379 C 0.48535 0.87468 0.22262 0.0
C380 C 0.4888 0.91199 0.19043 0.0
C381 C 0.51077 0.90686 0.14914 0.0
C382 C 0.46614 0.94971 0.19812 0.0
C383 C 0.48535 0.97517 0.12047 0.0
C384 C 0.46462 0.98158 0.16333 0.0
C385 C 0.50935 0.93868 0.1145 0.0
C386 C 0.46115 0.82931 0.37091 0.0
C387 C 0.36562 0.74397 0.23525 0.0
C388 C 0.30487 0.81596 0.36611 0.0
C389 C 0.3028 0.78175 0.40156 0.0
C390 C 0.28292 0.79122 0.4443 0.0
C391 C 0.32561 0.74401 0.39634 0.0
C392 C 0.3099 0.7267 0.47829 0.0
C393 C 0.32881 0.71607 0.43448 0.0
C394 C 0.28605 0.76333 0.48221 0.0
C395 C 0.35072 0.9031 0.24896 0.0
O396 O 0.43733 0.94409 0.32602 0.0
O397 O 0.41591 0.90732 0.38929 0.0
O398 O 0.49587 0.89781 0.27327 0.0
O399 O 0.44823 0.83467 0.2082 0.0
O400 O 0.48181 0.8698 0.35475 0.0
O401 O 0.42161 0.80732 0.34265 0.0
O402 O 0.34014 0.76697 0.25774 0.0
O403 O 0.40759 0.76967 0.24594 0.0
O404 O 0.30413 0.79213 0.31752 0.0
O405 O 0.33573 0.86298 0.38444 0.0
O406 O 0.34935 0.91491 0.29847 0.0
O407 O 0.36757 0.8651 0.24099 0.0
H408 H 0.52818 0.87764 0.14309 0.0
H409 H 0.44846 0.95312 0.22992 0.0
H410 H 0.44576 1.00919 0.16862 0.0
H411 H 0.52642 0.93354 0.08262 0.0
H412 H 0.26586 0.82086 0.44891 0.0
H413 H 0.34226 0.73778 0.36385 0.0
H414 H 0.34784 0.6886 0.43117 0.0
H415 H 0.27051 0.77162 0.51508 0.0
Gd416 Gd 0.68202 0.09891 0.51806 0.0
Gd417 Gd 0.61827 0.10332 0.59643 0.0
C418 C 0.61915 0.98208 0.52818 0.0
C419 C 0.75683 0.11289 0.49077 0.0
C420 C 0.79274 0.09172 0.50255 0.0
C421 C 0.83185 0.11019 0.48514 0.0
C422 C 0.79022 0.05866 0.53741 0.0
C423 C 0.86612 0.06328 0.53828 0.0
C424 C 0.82671 0.04495 0.55555 0.0
C425 C 0.86827 0.09563 0.50252 0.0
C426 C 0.60576 0.10978 0.47841 0.0
C427 C 0.68178 0.22034 0.58659 0.0
C428 C 0.5438 0.08981 0.62452 0.0
C429 C 0.50803 0.11112 0.61269 0.0
C430 C 0.469 0.09315 0.63038 0.0
C431 C 0.51066 0.14385 0.57753 0.0
C432 C 0.43489 0.13969 0.57666 0.0
C433 C 0.47428 0.15766 0.55928 0.0
C434 C 0.43266 0.10777 0.61282 0.0
C435 C 0.69346 0.08919 0.63507 0.0
O436 O 0.65492 1.00743 0.51215 0.0
O437 O 0.59846 1.01073 0.55657 0.0
O438 O 0.71988 0.07828 0.45969 0.0
O439 O 0.75089 0.14399 0.53289 0.0
O440 O 0.62664 0.08456 0.44877 0.0
O441 O 0.6274 0.12931 0.52485 0.0
O442 O 0.64702 0.19543 0.60456 0.0
O443 O 0.70108 0.19136 0.55627 0.0
O444 O 0.58089 0.12454 0.65513 0.0
O445 O 0.54946 0.05827 0.58252 0.0
O446 O 0.67292 0.11382 0.66572 0.0
O447 O 0.67204 0.0724 0.58874 0.0
H448 H 0.83444 0.13656 0.45892 0.0
H449 H 0.76023 0.04442 0.55142 0.0
H450 H 0.82377 1.01937 0.58253 0.0
H451 H 0.89815 0.11001 0.48833 0.0
H452 H 0.46636 0.06705 0.65686 0.0
H453 H 0.5406 0.15762 0.56326 0.0
H454 H 0.47725 0.18288 0.53197 0.0
H455 H 0.40278 0.09365 0.62707 0.0
Gd456 Gd 0.36768 0.37671 0.80541 0.0
Gd457 Gd 0.42701 0.32689 0.80351 0.0
C458 C 0.41414 0.37878 0.9209 0.0
C459 C 0.29302 0.39337 0.78751 0.0
C460 C 0.25111 0.37967 0.80434 0.0
C461 C 0.22422 0.4119 0.8002 0.0
C462 C 0.23746 0.3341 0.82386 0.0
C463 C 0.17106 0.35473 0.8379 0.0
C464 C 0.19759 0.32149 0.84018 0.0
C465 C 0.1844 0.39961 0.817 0.0
C466 C 0.4428 0.45441 0.79745 0.0
C467 C 0.37991 0.3222 0.68796 0.0
C468 C 0.50353 0.31567 0.81718 0.0
C469 C 0.53876 0.33122 0.78925 0.0
C470 C 0.58199 0.33656 0.81128 0.0
C471 C 0.52941 0.34491 0.74173 0.0
C472 C 0.60602 0.36702 0.73672 0.0
C473 C 0.56273 0.36232 0.71544 0.0
C474 C 0.61567 0.35458 0.78512 0.0
C475 C 0.35263 0.24825 0.81089 0.0
O476 O 0.38114 0.38931 0.8954 0.0
O477 O 0.43859 0.35751 0.89318 0.0
O478 O 0.32712 0.42765 0.82313 0.0
O479 O 0.30158 0.35215 0.75973 0.0
O480 O 0.41535 0.46393 0.82642 0.0
O481 O 0.43039 0.40291 0.7753 0.0
O482 O 0.41251 0.31144 0.71364 0.0
O483 O 0.35569 0.34423 0.71549 0.0
O484 O 0.46807 0.27652 0.78873 0.0
O485 O 0.49504 0.35695 0.84494 0.0
O486 O 0.38101 0.23932 0.78311 0.0
O487 O 0.36381 0.29983 0.83272 0.0
H488 H 0.23433 0.447 0.78473 0.0
H489 H 0.25787 0.30867 0.82706 0.0
H490 H 0.18834 0.28668 0.85619 0.0
H491 H 0.16478 0.42605 0.81497 0.0
H492 H 0.58963 0.327 0.84852 0.0
H493 H 0.49634 0.34238 0.72501 0.0
H494 H 0.55455 0.37205 0.67842 0.0
H495 H 0.64891 0.35766 0.80209 0.0
Gd496 Gd 0.14165 0.14517 0.57626 0.0
Gd497 Gd 0.15969 0.05062 0.53023 0.0
C498 C 0.11377 0.10097 0.44453 0.0
C499 C 0.14234 0.24408 0.59658 0.0
C500 C 0.15365 0.27994 0.56205 0.0
C501 C 0.13963 0.32515 0.56542 0.0
C502 C 0.17567 0.26557 0.52179 0.0
C503 C 0.16853 0.33996 0.48731 0.0
C504 C 0.18387 0.29589 0.48518 0.0
C505 C 0.14679 0.35482 0.528 0.0
C506 C 0.08023 0.05661 0.58993 0.0
C507 C 0.18619 0.09509 0.6625 0.0
C508 C 0.16478 0.95432 0.51286 0.0
C509 C 0.15777 0.92234 0.55154 0.0
C510 C 0.18011 0.88545 0.5573 0.0
C511 C 0.13272 0.93528 0.58851 0.0
C512 C 0.15139 0.87461 0.63652 0.0
C513 C 0.12969 0.91206 0.63058 0.0
C514 C 0.17669 0.86134 0.59946 0.0
C515 C 0.2201 0.13943 0.51672 0.0
O516 O 0.11851 0.14069 0.48724 0.0
O517 O 0.12464 0.05797 0.45145 0.0
O518 O 0.10604 0.20268 0.57678 0.0
O519 O 0.17496 0.23022 0.61718 0.0
O520 O 0.09417 0.10495 0.62231 0.0
O521 O 0.09619 0.05853 0.54838 0.0
O522 O 0.18227 0.05572 0.61981 0.0
O523 O 0.17497 0.13764 0.6554 0.0
O524 O 0.19966 0.99786 0.52916 0.0
O525 O 0.12991 0.96414 0.49203 0.0
O526 O 0.20549 0.09181 0.48314 0.0
O527 O 0.20481 0.13663 0.55849 0.0
H528 H 0.12216 0.33649 0.5958 0.0
H529 H 0.18502 0.2295 0.51766 0.0
H530 H 0.20013 0.28335 0.45389 0.0
H531 H 0.13485 0.38909 0.53045 0.0
H532 H 0.20041 0.87585 0.5298 0.0
H533 H 0.1163 0.96478 0.58563 0.0
H534 H 0.10983 0.92315 0.65807 0.0
H535 H 0.19349 0.83213 0.60275 0.0
Gd536 Gd 0.44651 0.89572 0.81102 0.0
Gd537 Gd 0.36095 0.81103 0.79033 0.0
C538 C 0.44733 0.7656 0.79831 0.0
C539 C 0.5238 0.96695 0.83397 0.0
C540 C 0.56144 0.96403 0.81021 0.0
C541 C 0.60008 1.00875 0.82256 0.0
C542 C 0.55882 0.91512 0.77487 0.0
C543 C 0.63767 0.94881 0.78254 0.0
C544 C 0.59671 0.90789 0.76004 0.0
C545 C 0.63807 1.00154 0.80724 0.0
C546 C 0.41539 0.84436 0.70822 0.0
C547 C 0.35886 0.94049 0.8047 0.0
C548 C 0.28421 0.73928 0.76488 0.0
C549 C 0.2465 0.7395 0.78891 0.0
C550 C 0.2123 0.69102 0.78228 0.0
C551 C 0.24577 0.78833 0.8213 0.0
C552 C 0.17118 0.74297 0.82698 0.0
C553 C 0.2082 0.79006 0.84045 0.0
C554 C 0.1749 0.69259 0.80221 0.0
C555 C 0.39195 0.86197 0.89295 0.0
O556 O 0.47131 0.81914 0.81824 0.0
O557 O 0.40433 0.75471 0.77921 0.0
O558 O 0.49095 0.96863 0.80083 0.0
O559 O 0.51151 0.93254 0.86239 0.0
O560 O 0.43198 0.89654 0.72514 0.0
O561 O 0.41365 0.82325 0.7458 0.0
O562 O 0.33517 0.88696 0.78489 0.0
O563 O 0.4023 0.95183 0.82239 0.0
O564 O 0.31698 0.73627 0.79712 0.0
O565 O 0.29622 0.77588 0.73862 0.0
O566 O 0.37494 0.80979 0.87625 0.0
O567 O 0.3938 0.88329 0.85553 0.0
H568 H 0.60189 0.04773 0.84749 0.0
H569 H 0.52833 0.88107 0.76238 0.0
H570 H 0.59498 0.86752 0.73855 0.0
H571 H 0.66883 1.03486 0.82268 0.0
H572 H 0.21341 0.65267 0.75922 0.0
H573 H 0.2731 0.8257 0.82891 0.0
H574 H 0.20595 0.82927 0.85938 0.0
H575 H 0.14667 0.65568 0.79121 0.0
Gd576 Gd 0.64505 0.07614 0.08677 0.0
Gd577 Gd 0.64618 0.15521 0.02825 0.0
C578 C 0.56248 0.06135 0.9972 0.0
C579 C 0.62874 1.00823 0.14431 0.0
C580 C 0.6072 1.00781 0.18944 0.0
C581 C 0.61145 0.97349 0.22162 0.0
C582 C 0.58475 0.04479 0.20265 0.0
C583 C 0.56962 1.01234 0.27951 0.0
C584 C 0.56607 0.04711 0.24722 0.0
C585 C 0.59268 0.97561 0.26634 0.0
C586 C 0.6875 0.0609 1.00374 0.0
C587 C 0.73143 0.16677 0.11432 0.0
C588 C 0.66368 0.21692 0.9655 0.0
C589 C 0.6815 0.20688 0.91749 0.0
C590 C 0.67915 0.23736 0.88085 0.0
C591 C 0.7 0.16514 0.90739 0.0
C592 C 0.7178 0.18793 0.82691 0.0
C593 C 0.71828 0.156 0.8628 0.0
C594 C 0.69704 0.22787 0.83577 0.0
C595 C 0.59894 0.1679 0.10619 0.0
O596 O 0.57509 0.05697 0.04514 0.0
O597 O 0.59017 0.0891 0.97411 0.0
O598 O 0.60386 1.00122 0.09847 0.0
O599 O 0.6654 0.04832 0.15391 0.0
O600 O 0.69859 0.05368 0.04954 0.0
O601 O 0.65251 0.07296 1.00307 0.0
O602 O 0.71656 0.17434 0.06861 0.0
O603 O 0.7052 0.13795 0.13815 0.0
O604 O 0.6902 0.22427 1.01032 0.0
O605 O 0.62451 0.18355 0.96182 0.0
O606 O 0.59296 0.18077 0.0622 0.0
O607 O 0.63449 0.15635 0.11112 0.0
H608 H 0.6293 0.94523 0.21227 0.0
H609 H 0.58166 0.07167 0.17814 0.0
H610 H 0.54884 0.07612 0.2562 0.0
H611 H 0.59614 0.94841 0.29044 0.0
H612 H 0.6642 0.26902 0.88755 0.0
H613 H 0.70132 0.14049 0.93481 0.0
H614 H 0.73355 0.12463 0.85711 0.0
H615 H 0.69569 0.25288 0.80872 0.0
Gd616 Gd 0.43316 0.39675 0.3432 0.0
Gd617 Gd 0.36263 0.29679 0.26349 0.0
C618 C 0.32806 0.38871 0.32414 0.0
C619 C 0.47737 0.49797 0.37436 0.0
C620 C 0.45783 0.53643 0.35732 0.0
C621 C 0.44824 0.57472 0.39549 0.0
C622 C 0.43521 0.52198 0.30426 0.0
C623 C 0.38845 0.57494 0.32958 0.0
C624 C 0.40048 0.54037 0.29074 0.0
C625 C 0.41393 0.59439 0.3815 0.0
C626 C 0.39805 0.32654 0.40114 0.0
C627 C 0.46523 0.30057 0.28575 0.0
C628 C 0.3183 0.19591 0.23037 0.0
C629 C 0.33573 0.15717 0.25042 0.0
C630 C 0.34695 0.11829 0.21486 0.0
C631 C 0.35537 0.17188 0.30465 0.0
C632 C 0.40311 0.1184 0.28577 0.0
C633 C 0.38917 0.15338 0.32196 0.0
C634 C 0.38022 0.09853 0.23261 0.0
C635 C 0.39952 0.36802 0.20605 0.0
O636 O 0.36987 0.41887 0.34446 0.0
O637 O 0.31669 0.34015 0.29026 0.0
O638 O 0.4556 0.47252 0.40435 0.0
O639 O 0.4874 0.46483 0.3374 0.0
O640 O 0.43278 0.36967 0.41949 0.0
O641 O 0.38816 0.31945 0.35081 0.0
O642 O 0.42325 0.27044 0.2711 0.0
O643 O 0.47824 0.35215 0.31358 0.0
O644 O 0.34319 0.22104 0.20254 0.0
O645 O 0.30591 0.22922 0.2646 0.0
O646 O 0.36569 0.3241 0.18707 0.0
O647 O 0.40818 0.37396 0.25619 0.0
H648 H 0.46464 0.58571 0.4368 0.0
H649 H 0.4415 0.49242 0.2738 0.0
H650 H 0.38241 0.52653 0.24993 0.0
H651 H 0.40579 0.62232 0.41172 0.0
H652 H 0.33288 0.10706 0.17276 0.0
H653 H 0.34777 0.20192 0.33319 0.0
H654 H 0.40522 0.16772 0.36357 0.0
H655 H 0.38984 0.07041 0.2043 0.0
Gd656 Gd 0.64167 0.64518 0.07627 0.0
Gd657 Gd 0.65971 0.55062 0.03023 0.0
C658 C 0.61378 0.60099 0.94454 0.0
C659 C 0.64243 0.74412 0.09667 0.0
C660 C 0.65379 0.78004 0.0622 0.0
C661 C 0.63993 0.82539 0.06575 0.0
C662 C 0.67572 0.76564 1.02186 0.0
C663 C 0.66878 0.84024 0.98763 0.0
C664 C 0.68397 0.79604 0.98533 0.0
C665 C 0.64714 0.85515 0.02842 0.0
C666 C 0.58025 0.55663 0.08994 0.0
C667 C 0.6862 0.59508 0.1625 0.0
C668 C 0.66479 0.45433 1.01286 0.0
C669 C 0.65778 0.42235 0.05154 0.0
C670 C 0.68013 0.38547 0.05732 0.0
C671 C 0.63273 0.43529 0.08851 0.0
C672 C 0.65141 0.37465 0.13655 0.0
C673 C 0.62971 0.4121 0.13059 0.0
C674 C 0.67671 0.36138 0.09949 0.0
C675 C 0.72011 0.63944 1.01671 0.0
O676 O 0.61852 0.6407 0.98725 0.0
O677 O 0.62465 0.55798 0.95146 0.0
O678 O 0.60612 0.70275 0.07682 0.0
O679 O 0.67503 0.73021 0.11725 0.0
O680 O 0.59419 0.60497 0.12232 0.0
O681 O 0.59621 0.55854 0.04839 0.0
O682 O 0.68229 0.55572 0.11981 0.0
O683 O 0.67497 0.63763 0.15541 0.0
O684 O 0.69967 0.49787 0.02915 0.0
O685 O 0.62992 0.46415 0.99202 0.0
O686 O 0.7055 0.59181 0.98313 0.0
O687 O 0.70483 0.63663 0.05849 0.0
H688 H 0.62253 0.83676 0.09621 0.0
H689 H 0.68497 0.72949 1.01761 0.0
H690 H 0.70015 0.78347 0.95396 0.0
H691 H 0.6353 0.88952 0.031 0.0
H692 H 0.70043 0.37587 0.02982 0.0
H693 H 0.61631 0.46479 0.08562 0.0
H694 H 0.60984 0.42319 0.15807 0.0
H695 H 0.69352 0.33217 0.10279 0.0
Gd696 Gd 0.94653 0.39576 0.31104 0.0
Gd697 Gd 0.86097 0.31105 0.29027 0.0
C698 C 0.94736 0.26563 0.29825 0.0
C699 C 1.02381 0.46701 0.33405 0.0
C700 C 0.06145 0.46413 0.31025 0.0
C701 C 0.1001 0.50885 0.32266 0.0
C702 C 0.05882 0.41527 0.27482 0.0
C703 C 0.13766 0.44897 0.28248 0.0
C704 C 0.0967 0.40808 0.25993 0.0
C705 C 0.13809 0.50167 0.3073 0.0
C706 C 0.91546 0.34446 0.20821 0.0
C707 C 0.85888 0.44052 0.3047 0.0
C708 C 0.78423 0.23932 0.26477 0.0
C709 C 0.74653 0.23954 0.28883 0.0
C710 C 0.71233 0.19106 0.2822 0.0
C711 C 0.74582 0.28837 0.32124 0.0
C712 C 0.67123 0.24302 0.32696 0.0
C713 C 0.70827 0.2901 0.34042 0.0
C714 C 0.67494 0.19264 0.30216 0.0
C715 C 0.89192 0.36193 0.39291 0.0
O716 O 0.97133 0.31916 0.31823 0.0
O717 O 0.90437 0.25475 0.27911 0.0
O718 O 0.99096 0.46873 0.30095 0.0
O719 O 1.01154 0.43254 0.36241 0.0
O720 O 0.93205 0.39664 0.22517 0.0
O721 O 0.9137 0.32332 0.24578 0.0
O722 O 0.8352 0.38699 0.28484 0.0
O723 O 0.90232 0.45185 0.32243 0.0
O724 O 0.817 0.23626 0.29698 0.0
O725 O 0.79624 0.27594 0.23854 0.0
O726 O 0.87492 0.30975 0.37617 0.0
O727 O 0.8938 0.38328 0.35551 0.0
H728 H 0.10192 0.5478 0.34767 0.0
H729 H 1.02832 0.38123 0.26229 0.0
H730 H 0.09495 0.36773 0.23836 0.0
H731 H 0.16885 0.53497 0.32279 0.0
H732 H 0.71342 0.15271 0.25912 0.0
H733 H 0.77315 0.32573 0.32885 0.0
H734 H 0.70603 0.32931 0.35938 0.0
H735 H 0.64671 0.15573 0.29116 0.0
Gd736 Gd 0.14496 0.576 0.58668 0.0
Gd737 Gd 0.14613 0.65509 0.52821 0.0
C738 C 0.06241 0.56127 0.4971 0.0
C739 C 0.1286 0.50804 0.64416 0.0
C740 C 0.10711 0.50768 0.68933 0.0
C741 C 0.11136 0.47335 0.72152 0.0
C742 C 0.0847 0.54469 0.70257 0.0
C743 C 0.06959 0.51226 0.77945 0.0
C744 C 0.06605 0.54704 0.74716 0.0
C745 C 0.09263 0.47551 0.76626 0.0
C746 C 0.1874 0.56074 0.50365 0.0
C747 C 0.23135 0.6666 0.61429 0.0
C748 C 0.16369 0.71686 0.46552 0.0
C749 C 0.18152 0.70685 0.41752 0.0
C750 C 0.17916 0.73735 0.3809 0.0
C751 C 0.20003 0.66512 0.4074 0.0
C752 C 0.21783 0.68796 0.32694 0.0
C753 C 0.21831 0.65601 0.36281 0.0
C754 C 0.19706 0.72788 0.33582 0.0
C755 C 0.09889 0.66778 0.60615 0.0
O756 O 0.07501 0.55687 0.54504 0.0
O757 O 0.09011 0.58903 0.47403 0.0
O758 O 0.1037 0.50112 0.59837 0.0
O759 O 0.16531 0.54807 0.65374 0.0
O760 O 0.19849 0.55353 0.54945 0.0
O761 O 0.15242 0.57282 0.50298 0.0
O762 O 0.21651 0.67416 0.56858 0.0
O763 O 0.20509 0.63779 0.63812 0.0
O764 O 0.1902 0.72416 0.51034 0.0
O765 O 0.12451 0.6835 0.46181 0.0
O766 O 0.09292 0.68066 0.56216 0.0
O767 O 0.13442 0.65623 0.61108 0.0
H768 H 0.12919 0.44507 0.71215 0.0
H769 H 0.08161 0.57157 0.67807 0.0
H770 H 0.04884 0.57607 0.75617 0.0
H771 H 0.09609 0.44831 0.79036 0.0
H772 H 0.16421 0.769 0.38761 0.0
H773 H 0.20135 0.64045 0.43481 0.0
H774 H 0.23359 0.62465 0.35711 0.0
H775 H 0.1957 0.75291 0.30878 0.0
Gd776 Gd 0.86767 0.87671 0.3054 0.0
Gd777 Gd 0.927 0.8269 0.3035 0.0
C778 C 0.91413 0.87878 0.42089 0.0
C779 C 0.793 0.89337 0.2875 0.0
C780 C 0.7511 0.87968 0.30434 0.0
C781 C 0.72421 0.91191 0.30019 0.0
C782 C 0.73745 0.83411 0.32386 0.0
C783 C 0.67106 0.85474 0.3379 0.0
C784 C 0.69759 0.8215 0.34019 0.0
C785 C 0.68439 0.89961 0.31701 0.0
C786 C 0.94279 0.95442 0.29744 0.0
C787 C 0.8799 0.82221 0.18795 0.0
C788 C 1.00352 0.81568 0.31717 0.0
C789 C 0.03875 0.83124 0.28925 0.0
C790 C 0.08198 0.83656 0.31128 0.0
C791 C 1.0294 0.84495 0.24174 0.0
C792 C 0.10601 0.86703 0.23672 0.0
C793 C 0.06273 0.86235 0.21545 0.0
C794 C 0.11566 0.85458 0.28511 0.0
C795 C 0.85262 0.74825 0.31088 0.0
O796 O 0.88112 0.88931 0.39539 0.0
O797 O 0.93858 0.85751 0.39318 0.0
O798 O 0.82711 0.92766 0.32312 0.0
O799 O 0.80157 0.85216 0.25973 0.0
O800 O 0.91534 0.96394 0.32641 0.0
O801 O 0.93038 0.90291 0.27529 0.0
O802 O 0.9125 0.81145 0.21363 0.0
O803 O 0.85568 0.84423 0.21548 0.0
O804 O 0.96806 0.77653 0.28873 0.0
O805 O 0.99502 0.85696 0.34494 0.0
O806 O 0.881 0.73932 0.2831 0.0
O807 O 0.8638 0.79983 0.33271 0.0
H808 H 0.73431 0.947 0.28472 0.0
H809 H 0.75787 0.80868 0.32706 0.0
H810 H 0.68834 0.78669 0.3562 0.0
H811 H 0.66477 0.92606 0.31498 0.0
H812 H 0.08962 0.82699 0.34851 0.0
H813 H 0.99633 0.84243 0.22503 0.0
H814 H 0.05455 0.8721 0.17844 0.0
H815 H 0.14889 0.85765 0.30208 0.0
Gd816 Gd 0.93086 0.35865 0.78364 0.0
Gd817 Gd 0.86861 0.34535 0.82004 0.0
C818 C 0.93549 0.45031 0.87586 0.0
C819 C 0.98532 0.37461 0.72256 0.0
C820 C 0.98877 0.41191 0.69035 0.0
C821 C 1.0107 0.40671 0.64902 0.0
C822 C 0.96614 0.44966 0.69807 0.0
C823 C 0.98531 0.47506 0.62038 0.0
C824 C 0.96462 0.48152 0.66328 0.0
C825 C 1.00926 0.43853 0.61437 0.0
C826 C 0.96115 0.3293 0.87089 0.0
C827 C 0.86562 0.24395 0.73524 0.0
C828 C 0.80485 0.31593 0.86604 0.0
C829 C 0.80278 0.28172 0.90148 0.0
C830 C 0.78291 0.29119 0.94423 0.0
C831 C 0.82559 0.24399 0.89627 0.0
C832 C 0.80992 0.22671 0.97824 0.0
C833 C 0.82882 0.21607 0.93442 0.0
C834 C 0.78606 0.26332 0.98215 0.0
C835 C 0.85073 0.4031 0.74893 0.0
O836 O 0.93736 0.44407 0.82601 0.0
O837 O 0.91589 0.4073 0.88926 0.0
O838 O 0.99586 0.39775 0.7732 0.0
O839 O 0.9482 0.33461 0.70816 0.0
O840 O 0.98181 0.36978 0.85472 0.0
O841 O 0.92161 0.30731 0.84264 0.0
O842 O 0.84014 0.26697 0.75768 0.0
O843 O 0.90759 0.26963 0.74598 0.0
O844 O 0.80412 0.2921 0.81745 0.0
O845 O 0.8357 0.36296 0.88437 0.0
O846 O 0.84937 0.41492 0.79844 0.0
O847 O 0.86758 0.36509 0.74095 0.0
H848 H 1.02806 0.37747 0.64295 0.0
H849 H 0.9485 0.45312 0.72991 0.0
H850 H 0.9458 0.50917 0.66859 0.0
H851 H 1.0263 0.43334 0.58246 0.0
H852 H 0.76583 0.32083 0.94884 0.0
H853 H 0.84224 0.23775 0.86378 0.0
H854 H 0.84787 0.18862 0.93112 0.0
H855 H 0.77052 0.27162 1.01502 0.0
Gd856 Gd 0.93319 0.89677 0.84319 0.0
Gd857 Gd 0.86261 0.7968 0.7635 0.0
C858 C 0.8281 0.88877 0.8242 0.0
C859 C 0.97742 0.99798 0.87431 0.0
C860 C 0.95785 1.03643 0.85728 0.0
C861 C 0.94825 0.0747 0.89547 0.0
C862 C 0.93523 1.02198 0.80423 0.0
C863 C 0.88844 0.07491 0.82958 0.0
C864 C 0.90048 1.04036 0.79073 0.0
C865 C 0.91394 0.09436 0.88149 0.0
C866 C 0.89806 0.82657 0.90114 0.0
C867 C 0.96521 0.80055 0.78571 0.0
C868 C 0.81827 0.69593 0.73043 0.0
C869 C 0.83572 0.6572 0.75048 0.0
C870 C 0.8469 0.6183 0.7149 0.0
C871 C 0.85539 0.67192 0.80469 0.0
C872 C 0.90309 0.6184 0.78578 0.0
C873 C 0.88918 0.6534 0.82198 0.0
C874 C 0.88017 0.59852 0.73263 0.0
C875 C 0.8995 0.86803 0.70605 0.0
O876 O 0.86991 0.91891 0.84449 0.0
O877 O 0.8167 0.8402 0.79032 0.0
O878 O 0.95567 0.97255 0.90434 0.0
O879 O 0.98742 0.96483 0.83733 0.0
O880 O 0.93281 0.86969 0.91949 0.0
O881 O 0.88818 0.81949 0.85081 0.0
O882 O 0.92322 0.77044 0.77107 0.0
O883 O 0.97824 0.85213 0.81355 0.0
O884 O 0.84313 0.72104 0.70257 0.0
O885 O 0.8059 0.72925 0.76467 0.0
O886 O 0.86566 0.82411 0.68708 0.0
O887 O 0.90817 0.87396 0.75619 0.0
H888 H 0.96466 0.08569 0.93677 0.0
H889 H 0.94152 0.99243 0.77376 0.0
H890 H 0.8824 1.02651 0.74991 0.0
H891 H 0.90579 0.12228 0.91171 0.0
H892 H 0.8328 0.60705 0.6728 0.0
H893 H 0.84781 0.70197 0.83324 0.0
H894 H 0.90526 0.66775 0.86358 0.0
H895 H 0.88977 0.57037 0.7043 0.0
Gd896 Gd 0.61488 0.56075 0.52504 0.0
Gd897 Gd 0.68197 0.63993 0.58344 0.0
C898 C 0.612 0.68721 0.53063 0.0
C899 C 0.53079 0.50893 0.50368 0.0
C900 C 0.49645 0.52851 0.52598 0.0
C901 C 0.45268 0.49415 0.51612 0.0
C902 C 0.50728 0.58218 0.55784 0.0
C903 C 0.43021 0.56903 0.56176 0.0
C904 C 0.47465 0.60225 0.57542 0.0
C905 C 0.41983 0.51431 0.53283 0.0
C906 C 0.67803 0.57837 0.45918 0.0
C907 C 0.68537 0.51407 0.57899 0.0
C908 C 0.76552 0.69299 0.60506 0.0
C909 C 0.79886 0.67346 0.58088 0.0
C910 C 0.84221 0.70788 0.58806 0.0
C911 C 0.78714 0.6196 0.54933 0.0
C912 C 0.86304 0.63254 0.5408 0.0
C913 C 0.81879 0.59925 0.52971 0.0
C914 C 0.87416 0.68755 0.56909 0.0
C915 C 0.61918 0.62139 0.64908 0.0
O916 O 0.59224 0.63386 0.51078 0.0
O917 O 0.65058 0.70271 0.56366 0.0
O918 O 0.55048 0.53491 0.47241 0.0
O919 O 0.55882 0.49959 0.53741 0.0
O920 O 0.65135 0.53092 0.4594 0.0
O921 O 0.66749 0.61316 0.49293 0.0
O922 O 0.7048 0.56745 0.59899 0.0
O923 O 0.64689 0.49831 0.54542 0.0
O924 O 0.74632 0.66576 0.63577 0.0
O925 O 0.7372 0.70326 0.57256 0.0
O926 O 0.64519 0.66913 0.64878 0.0
O927 O 0.62992 0.58695 0.61537 0.0
H928 H 0.44354 0.45193 0.49442 0.0
H929 H 0.54098 0.60901 0.56892 0.0
H930 H 0.4841 0.64436 0.59814 0.0
H931 H 0.3861 0.48711 0.52231 0.0
H932 H 0.85165 0.75022 0.60901 0.0
H933 H 0.75353 0.59285 0.53995 0.0
H934 H 0.80877 0.55697 0.5073 0.0
H935 H 0.90777 0.7148 0.57741 0.0
Gd936 Gd 0.18204 0.59892 1.01807 0.0
Gd937 Gd 0.11826 0.60332 0.0964 0.0
C938 C 0.11916 0.48208 0.02817 0.0
C939 C 0.25686 0.61291 0.99082 0.0
C940 C 0.29278 0.59175 1.0026 0.0
C941 C 0.33188 0.6102 0.98517 0.0
C942 C 0.29025 0.5587 0.03747 0.0
C943 C 0.36615 0.5633 0.03832 0.0
C944 C 0.32675 0.54499 0.05561 0.0
C945 C 0.3683 0.59564 1.00255 0.0
C946 C 0.10579 0.60977 0.97837 0.0
C947 C 0.18177 0.72035 0.08659 0.0
C948 C 0.04379 0.5898 0.12447 0.0
C949 C 1.00802 0.61111 0.11264 0.0
C950 C 0.96899 0.59316 0.13034 0.0
C951 C 1.01064 0.64382 0.07746 0.0
C952 C 0.93487 0.63969 0.07663 0.0
C953 C 0.97426 0.65764 0.05922 0.0
C954 C 0.93265 0.60778 0.11279 0.0
C955 C 0.19345 0.58921 0.13508 0.0
O956 O 0.15494 0.50743 1.01216 0.0
O957 O 0.09846 0.51073 0.05655 0.0
O958 O 0.21991 0.5783 0.95972 0.0
O959 O 0.2509 0.64401 0.03293 0.0
O960 O 0.12667 0.58455 0.94876 0.0
O961 O 0.1274 0.62932 0.02482 0.0
O962 O 0.14701 0.69543 0.10453 0.0
O963 O 0.20109 0.69136 0.05629 0.0
O964 O 0.08086 0.62452 0.15508 0.0
O965 O 0.04945 0.55826 0.08246 0.0
O966 O 0.1729 0.61385 0.16571 0.0
O967 O 0.17204 0.5724 0.08875 0.0
H968 H 0.33446 0.63656 0.95895 0.0
H969 H 0.26027 0.54448 0.05149 0.0
H970 H 0.32381 0.51942 0.08259 0.0
H971 H 0.39817 0.61001 0.98834 0.0
H972 H 0.96636 0.56707 0.15683 0.0
H973 H 0.04057 0.65757 0.06317 0.0
H974 H 0.97723 0.68284 0.0319 0.0
H975 H 0.90277 0.59368 0.12706 0.0
loop_
_geom_bond_atom_site_label_1
_geom_bond_atom_site_label_2
_geom_bond_distance
_geom_bond_site_symmetry_2
_ccdc_geom_bond_type
Zn0 O3 2.031 . S
Zn0 O5 2.049 . S
Zn0 O10 2.067 . S
Zn1 O2 1.962 . S
Zn1 O4 1.986 . S
Zn1 O6 1.996 . S
Zn1 O9 1.943 . S
O2 Zn1 1.962 . S
O2 C7 1.254 . S
O3 Zn0 2.031 . S
O3 C7 1.269 . S
O4 Zn1 1.986 . S
O4 C11 1.262 . S
O5 Zn0 2.049 . S
O5 C13 1.260 . S
O6 Zn1 1.996 . S
O6 C13 1.257 . S
C7 O2 1.254 . S
C7 O3 1.269 . S
C8 O9 1.249 . S
C8 O10 1.270 . S
O9 Zn1 1.943 . S
O9 C8 1.249 . S
O10 Zn0 2.067 . S
O10 C8 1.270 . S
C11 O4 1.262 . S
C11 O12 1.232 . S
O12 C11 1.232 . S
C13 O5 1.260 . S
C13 O6 1.257 . S
Zn14 O17 2.031 1_455 S
Zn14 O19 2.049 . S
Zn14 O24 2.067 1_455 S
Zn15 O16 1.962 1_455 S
Zn15 O18 1.986 . S
Zn15 O20 1.996 . S
Zn15 O23 1.943 1_455 S
O16 Zn15 1.962 1_655 S
O16 C21 1.254 . S
O17 Zn14 2.031 1_655 S
O17 C21 1.269 . S
O18 Zn15 1.986 . S
O18 C25 1.262 . S
O19 Zn14 2.049 . S
O19 C27 1.260 . S
O20 Zn15 1.996 . S
O20 C27 1.257 . S
C21 O16 1.254 . S
C21 O17 1.269 . S
C22 O23 1.249 . S
C22 O24 1.270 . S
O23 Zn15 1.943 1_655 S
O23 C22 1.249 . S
O24 Zn14 2.067 1_655 S
O24 C22 1.270 . S
C25 O18 1.262 . S
C25 O26 1.232 1_455 S
O26 C25 1.232 1_655 S
C27 O19 1.260 . S
C27 O20 1.257 . S
Zn28 O31 2.031 1_565 S
Zn28 O33 2.049 . S
Zn28 O38 2.067 . S
Zn29 O30 1.962 1_565 S
Zn29 O32 1.986 . S
Zn29 O34 1.996 . S
Zn29 O37 1.943 . S
O30 Zn29 1.962 1_545 S
O30 C35 1.254 . S
O31 Zn28 2.031 1_545 S
O31 C35 1.269 . S
O32 Zn29 1.986 . S
O32 C39 1.262 . S
O33 Zn28 2.049 . S
O33 C41 1.260 . S
O34 Zn29 1.996 . S
O34 C41 1.257 . S
C35 O30 1.254 . S
C35 O31 1.269 . S
C36 O37 1.249 . S
C36 O38 1.270 . S
O37 Zn29 1.943 . S
O37 C36 1.249 . S
O38 Zn28 2.067 . S
O38 C36 1.270 . S
C39 O32 1.262 . S
C39 O40 1.232 . S
O40 C39 1.232 . S
C41 O33 1.260 . S
C41 O34 1.257 . S
Zn42 O45 2.031 . S
Zn42 O47 2.049 . S
Zn42 O52 2.067 . S
Zn43 O44 1.962 . S
Zn43 O46 1.986 . S
Zn43 O48 1.996 . S
Zn43 O51 1.943 . S
O44 Zn43 1.962 . S
O44 C49 1.254 . S
O45 Zn42 2.031 . S
O45 C49 1.269 . S
O46 Zn43 1.986 . S
O46 C53 1.262 . S
O47 Zn42 2.049 . S
O47 C55 1.260 . S
O48 Zn43 1.996 . S
O48 C55 1.257 . S
C49 O44 1.254 . S
C49 O45 1.269 . S
C50 O51 1.249 . S
C50 O52 1.270 . S
O51 Zn43 1.943 . S
O51 C50 1.249 . S
O52 Zn42 2.067 . S
O52 C50 1.270 . S
C53 O46 1.262 . S
C53 O54 1.232 . S
O54 C53 1.232 . S
C55 O47 1.260 . S
C55 O48 1.257 . S
Zn56 O59 2.031 . S
Zn56 O61 2.049 . S
Zn56 O66 2.067 . S
Zn57 O58 1.962 . S
Zn57 O60 1.986 . S
Zn57 O62 1.996 . S
Zn57 O65 1.943 . S
O58 Zn57 1.962 . S
O58 C63 1.254 . S
O59 Zn56 2.031 . S
O59 C63 1.269 . S
O60 Zn57 1.986 . S
O60 C67 1.262 . S
O61 Zn56 2.049 . S
O61 C69 1.260 . S
O62 Zn57 1.996 . S
O62 C69 1.257 . S
C63 O58 1.254 . S
C63 O59 1.269 . S
C64 O65 1.249 . S
C64 O66 1.270 . S
O65 Zn57 1.943 . S
O65 C64 1.249 . S
O66 Zn56 2.067 . S
O66 C64 1.270 . S
C67 O60 1.262 . S
C67 O68 1.232 . S
O68 C67 1.232 . S
C69 O61 1.260 . S
C69 O62 1.257 . S
Zn70 O73 2.031 . S
Zn70 O75 2.049 . S
Zn70 O80 2.067 . S
Zn71 O72 1.962 . S
Zn71 O74 1.986 . S
Zn71 O76 1.996 . S
Zn71 O79 1.943 . S
O72 Zn71 1.962 . S
O72 C77 1.254 . S
O73 Zn70 2.031 . S
O73 C77 1.269 . S
O74 Zn71 1.986 . S
O74 C81 1.262 . S
O75 Zn70 2.049 . S
O75 C83 1.260 . S
O76 Zn71 1.996 . S
O76 C83 1.257 . S
C77 O72 1.254 . S
C77 O73 1.269 . S
C78 O79 1.249 . S
C78 O80 1.270 . S
O79 Zn71 1.943 . S
O79 C78 1.249 . S
O80 Zn70 2.067 . S
O80 C78 1.270 . S
C81 O74 1.262 . S
C81 O82 1.232 . S
O82 C81 1.232 . S
C83 O75 1.260 . S
C83 O76 1.257 . S
Zn84 O87 2.031 . S
Zn84 O89 2.049 . S
Zn84 O94 2.067 . S
Zn85 O86 1.962 . S
Zn85 O88 1.986 . S
Zn85 O90 1.996 . S
Zn85 O93 1.943 . S
O86 Zn85 1.962 . S
O86 C91 1.254 . S
O87 Zn84 2.031 . S
O87 C91 1.269 . S
O88 Zn85 1.986 . S
O88 C95 1.262 . S
O89 Zn84 2.049 . S
O89 C97 1.260 . S
O90 Zn85 1.996 . S
O90 C97 1.257 . S
C91 O86 1.254 . S
C91 O87 1.269 . S
C92 O93 1.249 . S
C92 O94 1.270 . S
O93 Zn85 1.943 . S
O93 C92 1.249 . S
O94 Zn84 2.067 . S
O94 C92 1.270 . S
C95 O88 1.262 . S
C95 O96 1.232 . S
O96 C95 1.232 . S
C97 O89 1.260 . S
C97 O90 1.257 . S
Zn98 O101 2.031 1_655 S
Zn98 O103 2.049 . S
Zn98 O108 2.067 1_554 S
Zn99 O100 1.962 1_556 S
Zn99 O102 1.986 . S
Zn99 O104 1.996 . S
Zn99 O107 1.943 . S
O100 Zn99 1.962 1_554 S
O100 C105 1.254 . S
O101 Zn98 2.031 1_455 S
O101 C105 1.269 . S
O102 Zn99 1.986 . S
O102 C109 1.262 . S
O103 Zn98 2.049 . S
O103 C111 1.260 1_655 S
O104 Zn99 1.996 . S
O104 C111 1.257 1_556 S
C105 O100 1.254 . S
C105 O101 1.269 . S
C106 O107 1.249 1_655 S
C106 O108 1.270 . S
O107 Zn99 1.943 . S
O107 C106 1.249 1_455 S
O108 Zn98 2.067 1_556 S
O108 C106 1.270 . S
C109 O102 1.262 . S
C109 O110 1.232 . S
O110 C109 1.232 . S
C111 O103 1.260 1_455 S
C111 O104 1.257 1_554 S
Zn112 O115 2.031 . S
Zn112 O117 2.049 . S
Zn112 O122 2.067 . S
Zn113 O114 1.962 . S
Zn113 O116 1.986 . S
Zn113 O118 1.996 . S
Zn113 O121 1.943 1_545 S
O114 Zn113 1.962 . S
O114 C119 1.254 . S
O115 Zn112 2.031 . S
O115 C119 1.269 1_565 S
O116 Zn113 1.986 . S
O116 C123 1.262 . S
O117 Zn112 2.049 . S
O117 C125 1.260 . S
O118 Zn113 1.996 . S
O118 C125 1.257 1_545 S
C119 O114 1.254 . S
C119 O115 1.269 1_545 S
C120 O121 1.249 . S
C120 O122 1.270 . S
O121 Zn113 1.943 1_565 S
O121 C120 1.249 . S
O122 Zn112 2.067 . S
O122 C120 1.270 . S
C123 O116 1.262 . S
C123 O124 1.232 . S
O124 C123 1.232 . S
C125 O117 1.260 . S
C125 O118 1.257 1_565 S
Zn126 O129 2.031 . S
Zn126 O131 2.049 . S
Zn126 O136 2.067 . S
Zn127 O128 1.962 . S
Zn127 O130 1.986 . S
Zn127 O132 1.996 . S
Zn127 O135 1.943 . S
O128 Zn127 1.962 . S
O128 C133 1.254 . S
O129 Zn126 2.031 . S
O129 C133 1.269 . S
O130 Zn127 1.986 . S
O130 C137 1.262 . S
O131 Zn126 2.049 . S
O131 C139 1.260 . S
O132 Zn127 1.996 . S
O132 C139 1.257 . S
C133 O128 1.254 . S
C133 O129 1.269 . S
C134 O135 1.249 . S
C134 O136 1.270 . S
O135 Zn127 1.943 . S
O135 C134 1.249 . S
O136 Zn126 2.067 . S
O136 C134 1.270 . S
C137 O130 1.262 . S
C137 O138 1.232 . S
O138 C137 1.232 . S
C139 O131 1.260 . S
C139 O132 1.257 . S
Zn140 O143 2.031 . S
Zn140 O145 2.049 . S
Zn140 O150 2.067 . S
Zn141 O142 1.962 . S
Zn141 O144 1.986 1_545 S
Zn141 O146 1.996 . S
Zn141 O149 1.943 . S
O142 Zn141 1.962 . S
O142 C147 1.254 . S
O143 Zn140 2.031 . S
O143 C147 1.269 . S
O144 Zn141 1.986 1_565 S
O144 C151 1.262 . S
O145 Zn140 2.049 . S
O145 C153 1.260 . S
O146 Zn141 1.996 . S
O146 C153 1.257 . S
C147 O142 1.254 . S
C147 O143 1.269 . S
C148 O149 1.249 . S
C148 O150 1.270 . S
O149 Zn141 1.943 . S
O149 C148 1.249 . S
O150 Zn140 2.067 . S
O150 C148 1.270 . S
C151 O144 1.262 . S
C151 O152 1.232 . S
O152 C151 1.232 . S
C153 O145 1.260 . S
C153 O146 1.257 . S
Zn154 O157 2.031 1_554 S
Zn154 O159 2.049 . S
Zn154 O164 2.067 1_565 S
Zn155 O156 1.962 1_554 S
Zn155 O158 1.986 1_565 S
Zn155 O160 1.996 . S
Zn155 O163 1.943 1_565 S
O156 Zn155 1.962 1_556 S
O156 C161 1.254 . S
O157 Zn154 2.031 1_556 S
O157 C161 1.269 . S
O158 Zn155 1.986 1_545 S
O158 C165 1.262 . S
O159 Zn154 2.049 . S
O159 C167 1.260 . S
O160 Zn155 1.996 . S
O160 C167 1.257 . S
C161 O156 1.254 . S
C161 O157 1.269 . S
C162 O163 1.249 . S
C162 O164 1.270 . S
O163 Zn155 1.943 1_545 S
O163 C162 1.249 . S
O164 Zn154 2.067 1_545 S
O164 C162 1.270 . S
C165 O158 1.262 . S
C165 O166 1.232 1_554 S
O166 C165 1.232 1_556 S
C167 O159 1.260 . S
C167 O160 1.257 . S
Zn168 O171 2.031 1_554 S
Zn168 O173 2.049 . S
Zn168 O178 2.067 . S
Zn169 O170 1.962 1_554 S
Zn169 O172 1.986 . S
Zn169 O174 1.996 . S
Zn169 O177 1.943 . S
O170 Zn169 1.962 1_556 S
O170 C175 1.254 . S
O171 Zn168 2.031 1_556 S
O171 C175 1.269 . S
O172 Zn169 1.986 . S
O172 C179 1.262 . S
O173 Zn168 2.049 . S
O173 C181 1.260 . S
O174 Zn169 1.996 . S
O174 C181 1.257 . S
C175 O170 1.254 . S
C175 O171 1.269 . S
C176 O177 1.249 . S
C176 O178 1.270 . S
O177 Zn169 1.943 . S
O177 C176 1.249 . S
O178 Zn168 2.067 . S
O178 C176 1.270 . S
C179 O172 1.262 . S
C179 O180 1.232 . S
O180 C179 1.232 . S
C181 O173 1.260 . S
C181 O174 1.257 . S
Zn182 O185 2.031 1_554 S
Zn182 O187 2.049 . S
Zn182 O192 2.067 . S
Zn183 O184 1.962 . S
Zn183 O186 1.986 . S
Zn183 O188 1.996 . S
Zn183 O191 1.943 . S
O184 Zn183 1.962 . S
O184 C189 1.254 1_554 S
O185 Zn182 2.031 1_556 S
O185 C189 1.269 . S
O186 Zn183 1.986 . S
O186 C193 1.262 . S
O187 Zn182 2.049 . S
O187 C195 1.260 . S
O188 Zn183 1.996 . S
O188 C195 1.257 . S
C189 O184 1.254 1_556 S
C189 O185 1.269 . S
C190 O191 1.249 . S
C190 O192 1.270 . S
O191 Zn183 1.943 . S
O191 C190 1.249 . S
O192 Zn182 2.067 . S
O192 C190 1.270 . S
C193 O186 1.262 . S
C193 O194 1.232 1_554 S
O194 C193 1.232 1_556 S
C195 O187 1.260 . S
C195 O188 1.257 . S
Zn196 O199 2.031 . S
Zn196 O201 2.049 . S
Zn196 O206 2.067 . S
Zn197 O198 1.962 . S
Zn197 O200 1.986 . S
Zn197 O202 1.996 . S
Zn197 O205 1.943 . S
O198 Zn197 1.962 . S
O198 C203 1.254 . S
O199 Zn196 2.031 . S
O199 C203 1.269 . S
O200 Zn197 1.986 . S
O200 C207 1.262 . S
O201 Zn196 2.049 . S
O201 C209 1.260 . S
O202 Zn197 1.996 . S
O202 C209 1.257 . S
C203 O198 1.254 . S
C203 O199 1.269 . S
C204 O205 1.249 . S
C204 O206 1.270 . S
O205 Zn197 1.943 . S
O205 C204 1.249 . S
O206 Zn196 2.067 . S
O206 C204 1.270 . S
C207 O200 1.262 . S
C207 O208 1.232 . S
O208 C207 1.232 . S
C209 O201 1.260 . S
C209 O202 1.257 . S
Zn210 O213 2.031 . S
Zn210 O215 2.049 . S
Zn210 O220 2.067 . S
Zn211 O212 1.962 . S
Zn211 O214 1.986 . S
Zn211 O216 1.996 . S
Zn211 O219 1.943 . S
O212 Zn211 1.962 . S
O212 C217 1.254 . S
O213 Zn210 2.031 . S
O213 C217 1.269 . S
O214 Zn211 1.986 . S
O214 C221 1.262 . S
O215 Zn210 2.049 . S
O215 C223 1.260 . S
O216 Zn211 1.996 . S
O216 C223 1.257 . S
C217 O212 1.254 . S
C217 O213 1.269 . S
C218 O219 1.249 . S
C218 O220 1.270 . S
O219 Zn211 1.943 . S
O219 C218 1.249 . S
O220 Zn210 2.067 . S
O220 C218 1.270 . S
C221 O214 1.262 . S
C221 O222 1.232 . S
O222 C221 1.232 . S
C223 O215 1.260 . S
C223 O216 1.257 . S
Zn224 O227 2.031 . S
Zn224 O229 2.049 . S
Zn224 O234 2.067 1_445 S
Zn225 O226 1.962 . S
Zn225 O228 1.986 1_455 S
Zn225 O230 1.996 . S
Zn225 O233 1.943 1_455 S
O226 Zn225 1.962 . S
O226 C231 1.254 . S
O227 Zn224 2.031 . S
O227 C231 1.269 . S
O228 Zn225 1.986 1_655 S
O228 C235 1.262 . S
O229 Zn224 2.049 . S
O229 C237 1.260 . S
O230 Zn225 1.996 . S
O230 C237 1.257 . S
C231 O226 1.254 . S
C231 O227 1.269 . S
C232 O233 1.249 1_565 S
C232 O234 1.270 . S
O233 Zn225 1.943 1_655 S
O233 C232 1.249 1_545 S
O234 Zn224 2.067 1_665 S
O234 C232 1.270 . S
C235 O228 1.262 . S
C235 O236 1.232 . S
O236 C235 1.232 . S
C237 O229 1.260 . S
C237 O230 1.257 . S
Zn238 O241 2.031 . S
Zn238 O243 2.049 . S
Zn238 O248 2.067 . S
Zn239 O240 1.962 . S
Zn239 O242 1.986 . S
Zn239 O244 1.996 . S
Zn239 O247 1.943 . S
O240 Zn239 1.962 . S
O240 C245 1.254 . S
O241 Zn238 2.031 . S
O241 C245 1.269 . S
O242 Zn239 1.986 . S
O242 C249 1.262 . S
O243 Zn238 2.049 . S
O243 C251 1.260 . S
O244 Zn239 1.996 . S
O244 C251 1.257 . S
C245 O240 1.254 . S
C245 O241 1.269 . S
C246 O247 1.249 . S
C246 O248 1.270 . S
O247 Zn239 1.943 . S
O247 C246 1.249 . S
O248 Zn238 2.067 . S
O248 C246 1.270 . S
C249 O242 1.262 . S
C249 O250 1.232 . S
O250 C249 1.232 . S
C251 O243 1.260 . S
C251 O244 1.257 . S
Zn252 O255 2.031 . S
Zn252 O257 2.049 . S
Zn252 O262 2.067 . S
Zn253 O254 1.962 . S
Zn253 O256 1.986 . S
Zn253 O258 1.996 . S
Zn253 O261 1.943 . S
O254 Zn253 1.962 . S
O254 C259 1.254 . S
O255 Zn252 2.031 . S
O255 C259 1.269 . S
O256 Zn253 1.986 . S
O256 C263 1.262 . S
O257 Zn252 2.049 . S
O257 C265 1.260 . S
O258 Zn253 1.996 . S
O258 C265 1.257 . S
C259 O254 1.254 . S
C259 O255 1.269 . S
C260 O261 1.249 . S
C260 O262 1.270 . S
O261 Zn253 1.943 . S
O261 C260 1.249 . S
O262 Zn252 2.067 . S
O262 C260 1.270 . S
C263 O256 1.262 . S
C263 O264 1.232 . S
O264 C263 1.232 . S
C265 O257 1.260 . S
C265 O258 1.257 . S
Zn266 O269 2.031 . S
Zn266 O271 2.049 . S
Zn266 O276 2.067 . S
Zn267 O268 1.962 . S
Zn267 O270 1.986 . S
Zn267 O272 1.996 . S
Zn267 O275 1.943 . S
O268 Zn267 1.962 . S
O268 C273 1.254 . S
O269 Zn266 2.031 . S
O269 C273 1.269 . S
O270 Zn267 1.986 . S
O270 C277 1.262 . S
O271 Zn266 2.049 . S
O271 C279 1.260 . S
O272 Zn267 1.996 . S
O272 C279 1.257 . S
C273 O268 1.254 . S
C273 O269 1.269 . S
C274 O275 1.249 . S
C274 O276 1.270 . S
O275 Zn267 1.943 . S
O275 C274 1.249 . S
O276 Zn266 2.067 . S
O276 C274 1.270 . S
C277 O270 1.262 . S
C277 O278 1.232 . S
O278 C277 1.232 . S
C279 O271 1.260 . S
C279 O272 1.257 . S
Zn280 O283 2.031 1_554 S
Zn280 O285 2.049 . S
Zn280 O290 2.067 . S
Zn281 O282 1.942 1_554 S
Zn281 O284 1.995 . S
Zn281 O286 2.010 . S
Zn281 O289 1.947 1_554 S
O282 Zn281 1.942 1_556 S
O282 C287 1.254 . S
O283 Zn280 2.031 1_556 S
O283 C287 1.269 . S
O284 Zn281 1.995 . S
O284 C291 1.262 1_554 S
O285 Zn280 2.049 . S
O285 C293 1.260 . S
O286 Zn281 2.010 . S
O286 C293 1.257 . S
C287 O282 1.254 . S
C287 O283 1.269 . S
C288 O289 1.249 . S
C288 O290 1.270 1_556 S
O289 Zn281 1.947 1_556 S
O289 C288 1.249 . S
O290 Zn280 2.067 . S
O290 C288 1.270 1_554 S
C291 O284 1.262 1_556 S
C291 O292 1.232 . S
O292 C291 1.232 . S
C293 O285 1.260 . S
C293 O286 1.257 . S
Zn294 O297 2.031 . S
Zn294 O299 2.049 . S
Zn294 O304 2.067 1_455 S
Zn295 O296 1.962 1_655 S
Zn295 O298 1.986 . S
Zn295 O300 1.996 1_655 S
Zn295 O303 1.943 . S
O296 Zn295 1.962 1_455 S
O296 C301 1.254 . S
O297 Zn294 2.031 . S
O297 C301 1.269 . S
O298 Zn295 1.986 . S
O298 C305 1.262 . S
O299 Zn294 2.049 . S
O299 C307 1.260 . S
O300 Zn295 1.996 1_455 S
O300 C307 1.257 . S
C301 O296 1.254 . S
C301 O297 1.269 . S
C302 O303 1.249 . S
C302 O304 1.270 . S
O303 Zn295 1.943 . S
O303 C302 1.249 . S
O304 Zn294 2.067 1_655 S
O304 C302 1.270 . S
C305 O298 1.262 . S
C305 O306 1.232 . S
O306 C305 1.232 . S
C307 O299 1.260 . S
C307 O300 1.257 . S
Zn308 O311 2.031 . S
Zn308 O313 2.049 . S
Zn308 O318 2.067 1_655 S
Zn309 O310 1.962 . S
Zn309 O312 1.986 . S
Zn309 O314 1.996 . S
Zn309 O317 1.943 . S
O310 Zn309 1.962 . S
O310 C315 1.254 . S
O311 Zn308 2.031 . S
O311 C315 1.269 . S
O312 Zn309 1.986 . S
O312 C319 1.262 . S
O313 Zn308 2.049 . S
O313 C321 1.260 . S
O314 Zn309 1.996 . S
O314 C321 1.257 . S
C315 O310 1.254 . S
C315 O311 1.269 . S
C316 O317 1.249 1_455 S
C316 O318 1.270 . S
O317 Zn309 1.943 . S
O317 C316 1.249 1_655 S
O318 Zn308 2.067 1_455 S
O318 C316 1.270 . S
C319 O312 1.262 . S
C319 O320 1.232 . S
O320 C319 1.232 . S
C321 O313 1.260 . S
C321 O314 1.257 . S
Zn322 O325 2.031 . S
Zn322 O327 2.049 . S
Zn322 O332 2.067 . S
Zn323 O324 1.962 . S
Zn323 O326 1.986 . S
Zn323 O328 1.996 . S
Zn323 O331 1.943 . S
O324 Zn323 1.962 . S
O324 C329 1.254 . S
O325 Zn322 2.031 . S
O325 C329 1.269 . S
O326 Zn323 1.986 . S
O326 C333 1.262 . S
O327 Zn322 2.049 . S
O327 C335 1.260 . S
O328 Zn323 1.996 . S
O328 C335 1.257 . S
C329 O324 1.254 . S
C329 O325 1.269 . S
C330 O331 1.249 . S
C330 O332 1.270 . S
O331 Zn323 1.943 . S
O331 C330 1.249 . S
O332 Zn322 2.067 . S
O332 C330 1.270 . S
C333 O326 1.262 . S
C333 O334 1.232 . S
O334 C333 1.232 . S
C335 O327 1.260 . S
C335 O328 1.257 . S
Gd336 C339 2.818 1_455 S
Gd336 O356 2.377 . S
Gd336 O358 2.448 1_455 S
Gd336 O359 2.506 1_456 S
Gd336 O360 2.435 . S
Gd336 O361 2.717 . S
Gd336 O363 2.395 1_546 S
Gd336 O367 2.327 1_556 S
Gd337 C348 2.818 . S
Gd337 O357 2.395 . S
Gd337 O361 2.327 1_554 S
Gd337 O362 2.377 . S
Gd337 O364 2.448 . S
Gd337 O365 2.506 . S
Gd337 O366 2.435 . S
Gd337 O367 2.717 . S
C338 O356 1.240 1_554 S
C338 O357 1.240 . S
C339 Gd336 2.818 1_655 S
C339 C340 1.510 . S
C339 O358 1.249 . S
C339 O359 1.252 1_556 S
C340 C339 1.510 . S
C340 C341 1.404 . S
C340 C342 1.352 . S
C341 C340 1.404 . S
C341 C345 1.389 . S
C341 H368 0.930 1_545 S
C342 C340 1.352 . S
C342 C344 1.374 . S
C342 H369 0.931 1_556 S
C343 C344 1.359 . S
C343 C345 1.364 . S
C344 C342 1.374 . S
C344 C343 1.359 . S
C344 H370 0.931 1_556 S
C345 C341 1.389 . S
C345 C343 1.364 . S
C345 H371 0.931 . S
C346 O360 1.256 . S
C346 O361 1.257 . S
C347 O362 1.240 1_565 S
C347 O363 1.240 . S
C348 Gd337 2.818 . S
C348 C349 1.510 . S
C348 O364 1.249 . S
C348 O365 1.252 . S
C349 C348 1.510 . S
C349 C350 1.404 . S
C349 C351 1.352 . S
C350 C349 1.404 . S
C350 C354 1.389 . S
C350 H372 0.930 . S
C351 C349 1.352 . S
C351 C353 1.374 . S
C351 H373 0.931 . S
C352 C353 1.359 . S
C352 C354 1.364 . S
C353 C351 1.374 . S
C353 C352 1.359 . S
C353 H374 0.931 . S
C354 C350 1.389 . S
C354 C352 1.364 . S
C354 H375 0.931 . S
C355 O366 1.256 . S
C355 O367 1.257 . S
O356 Gd336 2.377 . S
O356 C338 1.240 1_556 S
O357 Gd337 2.395 . S
O357 C338 1.240 . S
O358 Gd336 2.448 1_655 S
O358 C339 1.249 . S
O359 Gd336 2.506 1_654 S
O359 C339 1.252 1_554 S
O360 Gd336 2.435 . S
O360 C346 1.256 . S
O361 Gd336 2.717 . S
O361 Gd337 2.327 1_556 S
O361 C346 1.257 . S
O362 Gd337 2.377 . S
O362 C347 1.240 1_545 S
O363 Gd336 2.395 1_564 S
O363 C347 1.240 . S
O364 Gd337 2.448 . S
O364 C348 1.249 . S
O365 Gd337 2.506 . S
O365 C348 1.252 . S
O366 Gd337 2.435 . S
O366 C355 1.256 . S
O367 Gd336 2.327 1_554 S
O367 Gd337 2.717 . S
O367 C355 1.257 . S
H368 C341 0.930 1_565 S
H369 C342 0.931 1_554 S
H370 C344 0.931 1_554 S
H371 C345 0.931 . S
H372 C350 0.930 . S
H373 C351 0.931 . S
H374 C353 0.931 . S
H375 C354 0.931 . S
Gd376 C379 2.818 . S
Gd376 O396 2.377 . S
Gd376 O398 2.448 . S
Gd376 O399 2.506 . S
Gd376 O400 2.435 . S
Gd376 O401 2.717 . S
Gd376 O403 2.395 . S
Gd376 O407 2.327 . S
Gd377 C388 2.818 . S
Gd377 O397 2.395 . S
Gd377 O401 2.327 . S
Gd377 O402 2.377 . S
Gd377 O404 2.448 . S
Gd377 O405 2.506 . S
Gd377 O406 2.435 . S
Gd377 O407 2.717 . S
C378 O396 1.240 . S
C378 O397 1.240 . S
C379 Gd376 2.818 . S
C379 C380 1.510 . S
C379 O398 1.249 . S
C379 O399 1.252 . S
C380 C379 1.510 . S
C380 C381 1.404 . S
C380 C382 1.352 . S
C381 C380 1.404 . S
C381 C385 1.389 . S
C381 H408 0.930 . S
C382 C380 1.352 . S
C382 C384 1.374 . S
C382 H409 0.931 . S
C383 C384 1.359 . S
C383 C385 1.364 . S
C384 C382 1.374 . S
C384 C383 1.359 . S
C384 H410 0.931 . S
C385 C381 1.389 . S
C385 C383 1.364 . S
C385 H411 0.931 . S
C386 O400 1.256 . S
C386 O401 1.257 . S
C387 O402 1.240 . S
C387 O403 1.240 . S
C388 Gd377 2.818 . S
C388 C389 1.510 . S
C388 O404 1.249 . S
C388 O405 1.252 . S
C389 C388 1.510 . S
C389 C390 1.404 . S
C389 C391 1.352 . S
C390 C389 1.404 . S
C390 C394 1.389 . S
C390 H412 0.930 . S
C391 C389 1.352 . S
C391 C393 1.374 . S
C391 H413 0.931 . S
C392 C393 1.359 . S
C392 C394 1.364 . S
C393 C391 1.374 . S
C393 C392 1.359 . S
C393 H414 0.931 . S
C394 C390 1.389 . S
C394 C392 1.364 . S
C394 H415 0.931 . S
C395 O406 1.256 . S
C395 O407 1.257 . S
O396 Gd376 2.377 . S
O396 C378 1.240 . S
O397 Gd377 2.395 . S
O397 C378 1.240 . S
O398 Gd376 2.448 . S
O398 C379 1.249 . S
O399 Gd376 2.506 . S
O399 C379 1.252 . S
O400 Gd376 2.435 . S
O400 C386 1.256 . S
O401 Gd376 2.717 . S
O401 Gd377 2.327 . S
O401 C386 1.257 . S
O402 Gd377 2.377 . S
O402 C387 1.240 . S
O403 Gd376 2.395 . S
O403 C387 1.240 . S
O404 Gd377 2.448 . S
O404 C388 1.249 . S
O405 Gd377 2.506 . S
O405 C388 1.252 . S
O406 Gd377 2.435 . S
O406 C395 1.256 . S
O407 Gd376 2.327 . S
O407 Gd377 2.717 . S
O407 C395 1.257 . S
H408 C381 0.930 . S
H409 C382 0.931 . S
H410 C384 0.931 . S
H411 C385 0.931 . S
H412 C390 0.930 . S
H413 C391 0.931 . S
H414 C393 0.931 . S
H415 C394 0.931 . S
Gd416 C419 2.818 . S
Gd416 O436 2.377 1_545 S
Gd416 O438 2.448 . S
Gd416 O439 2.506 . S
Gd416 O440 2.435 . S
Gd416 O441 2.717 . S
Gd416 O443 2.395 . S
Gd416 O447 2.327 . S
Gd417 C428 2.818 . S
Gd417 O437 2.395 1_545 S
Gd417 O441 2.327 . S
Gd417 O442 2.377 . S
Gd417 O444 2.448 . S
Gd417 O445 2.506 . S
Gd417 O446 2.435 . S
Gd417 O447 2.717 . S
C418 O436 1.240 . S
C418 O437 1.240 . S
C419 Gd416 2.818 . S
C419 C420 1.510 1_545 S
C419 O438 1.249 . S
C419 O439 1.252 . S
C420 C419 1.510 1_565 S
C420 C421 1.404 . S
C420 C422 1.352 . S
C421 C420 1.404 . S
C421 C425 1.389 . S
C421 H448 0.930 . S
C422 C420 1.352 . S
C422 C424 1.374 . S
C422 H449 0.931 . S
C423 C424 1.359 . S
C423 C425 1.364 . S
C424 C422 1.374 . S
C424 C423 1.359 . S
C424 H450 0.931 . S
C425 C421 1.389 . S
C425 C423 1.364 . S
C425 H451 0.931 . S
C426 O440 1.256 . S
C426 O441 1.257 . S
C427 O442 1.240 . S
C427 O443 1.240 . S
C428 Gd417 2.818 . S
C428 C429 1.510 . S
C428 O444 1.249 . S
C428 O445 1.252 . S
C429 C428 1.510 . S
C429 C430 1.404 . S
C429 C431 1.352 . S
C430 C429 1.404 . S
C430 C434 1.389 . S
C430 H452 0.930 . S
C431 C429 1.352 . S
C431 C433 1.374 . S
C431 H453 0.931 . S
C432 C433 1.359 . S
C432 C434 1.364 . S
C433 C431 1.374 . S
C433 C432 1.359 . S
C433 H454 0.931 . S
C434 C430 1.389 . S
C434 C432 1.364 . S
C434 H455 0.931 . S
C435 O446 1.256 . S
C435 O447 1.257 . S
O436 Gd416 2.377 1_565 S
O436 C418 1.240 . S
O437 Gd417 2.395 1_565 S
O437 C418 1.240 . S
O438 Gd416 2.448 . S
O438 C419 1.249 . S
O439 Gd416 2.506 . S
O439 C419 1.252 . S
O440 Gd416 2.435 . S
O440 C426 1.256 . S
O441 Gd416 2.717 . S
O441 Gd417 2.327 . S
O441 C426 1.257 . S
O442 Gd417 2.377 . S
O442 C427 1.240 . S
O443 Gd416 2.395 . S
O443 C427 1.240 . S
O444 Gd417 2.448 . S
O444 C428 1.249 . S
O445 Gd417 2.506 . S
O445 C428 1.252 . S
O446 Gd417 2.435 . S
O446 C435 1.256 . S
O447 Gd416 2.327 . S
O447 Gd417 2.717 . S
O447 C435 1.257 . S
H448 C421 0.930 . S
H449 C422 0.931 . S
H450 C424 0.931 . S
H451 C425 0.931 . S
H452 C430 0.930 . S
H453 C431 0.931 . S
H454 C433 0.931 . S
H455 C434 0.931 . S
Gd456 C459 2.818 . S
Gd456 O476 2.377 . S
Gd456 O478 2.448 . S
Gd456 O479 2.506 . S
Gd456 O480 2.435 . S
Gd456 O481 2.717 . S
Gd456 O483 2.395 . S
Gd456 O487 2.327 . S
Gd457 C468 2.818 . S
Gd457 O477 2.395 . S
Gd457 O481 2.327 . S
Gd457 O482 2.377 . S
Gd457 O484 2.448 . S
Gd457 O485 2.506 . S
Gd457 O486 2.435 . S
Gd457 O487 2.717 . S
C458 O476 1.240 . S
C458 O477 1.240 . S
C459 Gd456 2.818 . S
C459 C460 1.510 . S
C459 O478 1.249 . S
C459 O479 1.252 . S
C460 C459 1.510 . S
C460 C461 1.404 . S
C460 C462 1.352 . S
C461 C460 1.404 . S
C461 C465 1.389 . S
C461 H488 0.930 . S
C462 C460 1.352 . S
C462 C464 1.374 . S
C462 H489 0.931 . S
C463 C464 1.359 . S
C463 C465 1.364 . S
C464 C462 1.374 . S
C464 C463 1.359 . S
C464 H490 0.931 . S
C465 C461 1.389 . S
C465 C463 1.364 . S
C465 H491 0.931 . S
C466 O480 1.256 . S
C466 O481 1.257 . S
C467 O482 1.240 . S
C467 O483 1.240 . S
C468 Gd457 2.818 . S
C468 C469 1.510 . S
C468 O484 1.249 . S
C468 O485 1.252 . S
C469 C468 1.510 . S
C469 C470 1.404 . S
C469 C471 1.352 . S
C470 C469 1.404 . S
C470 C474 1.389 . S
C470 H492 0.930 . S
C471 C469 1.352 . S
C471 C473 1.374 . S
C471 H493 0.931 . S
C472 C473 1.359 . S
C472 C474 1.364 . S
C473 C471 1.374 . S
C473 C472 1.359 . S
C473 H494 0.931 . S
C474 C470 1.389 . S
C474 C472 1.364 . S
C474 H495 0.931 . S
C475 O486 1.256 . S
C475 O487 1.257 . S
O476 Gd456 2.377 . S
O476 C458 1.240 . S
O477 Gd457 2.395 . S
O477 C458 1.240 . S
O478 Gd456 2.448 . S
O478 C459 1.249 . S
O479 Gd456 2.506 . S
O479 C459 1.252 . S
O480 Gd456 2.435 . S
O480 C466 1.256 . S
O481 Gd456 2.717 . S
O481 Gd457 2.327 . S
O481 C466 1.257 . S
O482 Gd457 2.377 . S
O482 C467 1.240 . S
O483 Gd456 2.395 . S
O483 C467 1.240 . S
O484 Gd457 2.448 . S
O484 C468 1.249 . S
O485 Gd457 2.506 . S
O485 C468 1.252 . S
O486 Gd457 2.435 . S
O486 C475 1.256 . S
O487 Gd456 2.327 . S
O487 Gd457 2.717 . S
O487 C475 1.257 . S
H488 C461 0.930 . S
H489 C462 0.931 . S
H490 C464 0.931 . S
H491 C465 0.931 . S
H492 C470 0.930 . S
H493 C471 0.931 . S
H494 C473 0.931 . S
H495 C474 0.931 . S
Gd496 C499 2.818 . S
Gd496 O516 2.377 . S
Gd496 O518 2.448 . S
Gd496 O519 2.506 . S
Gd496 O520 2.435 . S
Gd496 O521 2.717 . S
Gd496 O523 2.395 . S
Gd496 O527 2.327 . S
Gd497 C508 2.818 . S
Gd497 O517 2.395 1_565 S
Gd497 O521 2.327 1_565 S
Gd497 O522 2.377 1_565 S
Gd497 O524 2.448 . S
Gd497 O525 2.506 . S
Gd497 O526 2.435 1_565 S
Gd497 O527 2.717 1_565 S
C498 O516 1.240 . S
C498 O517 1.240 . S
C499 Gd496 2.818 . S
C499 C500 1.510 . S
C499 O518 1.249 . S
C499 O519 1.252 . S
C500 C499 1.510 . S
C500 C501 1.404 . S
C500 C502 1.352 . S
C501 C500 1.404 . S
C501 C505 1.389 . S
C501 H528 0.930 . S
C502 C500 1.352 . S
C502 C504 1.374 . S
C502 H529 0.931 . S
C503 C504 1.359 . S
C503 C505 1.364 . S
C504 C502 1.374 . S
C504 C503 1.359 . S
C504 H530 0.931 . S
C505 C501 1.389 . S
C505 C503 1.364 . S
C505 H531 0.931 . S
C506 O520 1.256 . S
C506 O521 1.257 . S
C507 O522 1.240 . S
C507 O523 1.240 . S
C508 Gd497 2.818 . S
C508 C509 1.510 . S
C508 O524 1.249 . S
C508 O525 1.252 . S
C509 C508 1.510 . S
C509 C510 1.404 . S
C509 C511 1.352 . S
C510 C509 1.404 . S
C510 C514 1.389 . S
C510 H532 0.930 . S
C511 C509 1.352 . S
C511 C513 1.374 . S
C511 H533 0.931 . S
C512 C513 1.359 . S
C512 C514 1.364 . S
C513 C511 1.374 . S
C513 C512 1.359 . S
C513 H534 0.931 . S
C514 C510 1.389 . S
C514 C512 1.364 . S
C514 H535 0.931 . S
C515 O526 1.256 . S
C515 O527 1.257 . S
O516 Gd496 2.377 . S
O516 C498 1.240 . S
O517 Gd497 2.395 1_545 S
O517 C498 1.240 . S
O518 Gd496 2.448 . S
O518 C499 1.249 . S
O519 Gd496 2.506 . S
O519 C499 1.252 . S
O520 Gd496 2.435 . S
O520 C506 1.256 . S
O521 Gd496 2.717 . S
O521 Gd497 2.327 1_545 S
O521 C506 1.257 . S
O522 Gd497 2.377 1_545 S
O522 C507 1.240 . S
O523 Gd496 2.395 . S
O523 C507 1.240 . S
O524 Gd497 2.448 . S
O524 C508 1.249 . S
O525 Gd497 2.506 . S
O525 C508 1.252 . S
O526 Gd497 2.435 1_545 S
O526 C515 1.256 . S
O527 Gd496 2.327 . S
O527 Gd497 2.717 1_545 S
O527 C515 1.257 . S
H528 C501 0.930 . S
H529 C502 0.931 . S
H530 C504 0.931 . S
H531 C505 0.931 . S
H532 C510 0.930 . S
H533 C511 0.931 . S
H534 C513 0.931 . S
H535 C514 0.931 . S
Gd536 C539 2.818 . S
Gd536 O556 2.377 . S
Gd536 O558 2.448 . S
Gd536 O559 2.506 . S
Gd536 O560 2.435 . S
Gd536 O561 2.717 . S
Gd536 O563 2.395 . S
Gd536 O567 2.327 . S
Gd537 C548 2.818 . S
Gd537 O557 2.395 . S
Gd537 O561 2.327 . S
Gd537 O562 2.377 . S
Gd537 O564 2.448 . S
Gd537 O565 2.506 . S
Gd537 O566 2.435 . S
Gd537 O567 2.717 . S
C538 O556 1.240 . S
C538 O557 1.240 . S
C539 Gd536 2.818 . S
C539 C540 1.510 . S
C539 O558 1.249 . S
C539 O559 1.252 . S
C540 C539 1.510 . S
C540 C541 1.404 . S
C540 C542 1.352 . S
C541 C540 1.404 . S
C541 C545 1.389 . S
C541 H568 0.930 . S
C542 C540 1.352 . S
C542 C544 1.374 . S
C542 H569 0.931 . S
C543 C544 1.359 . S
C543 C545 1.364 . S
C544 C542 1.374 . S
C544 C543 1.359 . S
C544 H570 0.931 . S
C545 C541 1.389 . S
C545 C543 1.364 . S
C545 H571 0.931 . S
C546 O560 1.256 . S
C546 O561 1.257 . S
C547 O562 1.240 . S
C547 O563 1.240 . S
C548 Gd537 2.818 . S
C548 C549 1.510 . S
C548 O564 1.249 . S
C548 O565 1.252 . S
C549 C548 1.510 . S
C549 C550 1.404 . S
C549 C551 1.352 . S
C550 C549 1.404 . S
C550 C554 1.389 . S
C550 H572 0.930 . S
C551 C549 1.352 . S
C551 C553 1.374 . S
C551 H573 0.931 . S
C552 C553 1.359 . S
C552 C554 1.364 . S
C553 C551 1.374 . S
C553 C552 1.359 . S
C553 H574 0.931 . S
C554 C550 1.389 . S
C554 C552 1.364 . S
C554 H575 0.931 . S
C555 O566 1.256 . S
C555 O567 1.257 . S
O556 Gd536 2.377 . S
O556 C538 1.240 . S
O557 Gd537 2.395 . S
O557 C538 1.240 . S
O558 Gd536 2.448 . S
O558 C539 1.249 . S
O559 Gd536 2.506 . S
O559 C539 1.252 . S
O560 Gd536 2.435 . S
O560 C546 1.256 . S
O561 Gd536 2.717 . S
O561 Gd537 2.327 . S
O561 C546 1.257 . S
O562 Gd537 2.377 . S
O562 C547 1.240 . S
O563 Gd536 2.395 . S
O563 C547 1.240 . S
O564 Gd537 2.448 . S
O564 C548 1.249 . S
O565 Gd537 2.506 . S
O565 C548 1.252 . S
O566 Gd537 2.435 . S
O566 C555 1.256 . S
O567 Gd536 2.327 . S
O567 Gd537 2.717 . S
O567 C555 1.257 . S
H568 C541 0.930 . S
H569 C542 0.931 . S
H570 C544 0.931 . S
H571 C545 0.931 . S
H572 C550 0.930 . S
H573 C551 0.931 . S
H574 C553 0.931 . S
H575 C554 0.931 . S
Gd576 C579 2.818 . S
Gd576 O596 2.377 . S
Gd576 O598 2.448 . S
Gd576 O599 2.506 . S
Gd576 O600 2.435 1_545 S
Gd576 O601 2.717 1_554 S
Gd576 O603 2.395 . S
Gd576 O607 2.327 . S
Gd577 C588 2.818 . S
Gd577 O597 2.395 . S
Gd577 O601 2.327 . S
Gd577 O602 2.377 1_556 S
Gd577 O604 2.448 . S
Gd577 O605 2.506 . S
Gd577 O606 2.435 1_556 S
Gd577 O607 2.717 1_556 S
C578 O596 1.240 . S
C578 O597 1.240 1_554 S
C579 Gd576 2.818 . S
C579 C580 1.510 . S
C579 O598 1.249 . S
C579 O599 1.252 . S
C580 C579 1.510 . S
C580 C581 1.404 1_545 S
C580 C582 1.352 . S
C581 C580 1.404 1_565 S
C581 C585 1.389 . S
C581 H608 0.930 . S
C582 C580 1.352 . S
C582 C584 1.374 . S
C582 H609 0.931 . S
C583 C584 1.359 1_565 S
C583 C585 1.364 . S
C584 C582 1.374 . S
C584 C583 1.359 1_545 S
C584 H610 0.931 . S
C585 C581 1.389 . S
C585 C583 1.364 . S
C585 H611 0.931 . S
C586 O600 1.280 . S
C586 O601 1.249 1_564 S
C587 O602 1.240 . S
C587 O603 1.240 . S
C588 Gd577 2.818 . S
C588 C589 1.510 . S
C588 O604 1.249 . S
C588 O605 1.252 . S
C589 C588 1.510 . S
C589 C590 1.404 . S
C589 C591 1.352 . S
C590 C589 1.404 . S
C590 C594 1.389 . S
C590 H612 0.930 . S
C591 C589 1.352 . S
C591 C593 1.374 . S
C591 H613 0.931 . S
C592 C593 1.359 . S
C592 C594 1.364 . S
C593 C591 1.374 . S
C593 C592 1.359 . S
C593 H614 0.931 . S
C594 C590 1.389 . S
C594 C592 1.364 . S
C594 H615 0.931 . S
C595 O606 1.256 . S
C595 O607 1.257 . S
O596 Gd576 2.377 . S
O596 C578 1.240 . S
O597 Gd577 2.395 . S
O597 C578 1.240 1_556 S
O598 Gd576 2.448 . S
O598 C579 1.249 . S
O599 Gd576 2.506 . S
O599 C579 1.252 . S
O600 Gd576 2.435 1_565 S
O600 C586 1.280 . S
O601 Gd576 2.717 1_556 S
O601 Gd577 2.327 . S
O601 C586 1.249 1_546 S
O602 Gd577 2.377 1_554 S
O602 C587 1.240 . S
O603 Gd576 2.395 . S
O603 C587 1.240 . S
O604 Gd577 2.448 . S
O604 C588 1.249 . S
O605 Gd577 2.506 . S
O605 C588 1.252 . S
O606 Gd577 2.435 1_554 S
O606 C595 1.256 . S
O607 Gd576 2.327 . S
O607 Gd577 2.717 1_554 S
O607 C595 1.257 . S
H608 C581 0.930 . S
H609 C582 0.931 . S
H610 C584 0.931 . S
H611 C585 0.931 . S
H612 C590 0.930 . S
H613 C591 0.931 . S
H614 C593 0.931 . S
H615 C594 0.931 . S
Gd616 C619 2.818 . S
Gd616 O636 2.377 . S
Gd616 O638 2.448 . S
Gd616 O639 2.506 . S
Gd616 O640 2.435 . S
Gd616 O641 2.717 . S
Gd616 O643 2.395 . S
Gd616 O647 2.327 . S
Gd617 C628 2.818 . S
Gd617 O637 2.395 . S
Gd617 O641 2.327 . S
Gd617 O642 2.377 . S
Gd617 O644 2.448 . S
Gd617 O645 2.506 . S
Gd617 O646 2.435 . S
Gd617 O647 2.717 . S
C618 O636 1.240 . S
C618 O637 1.240 . S
C619 Gd616 2.818 . S
C619 C620 1.510 . S
C619 O638 1.249 . S
C619 O639 1.252 . S
C620 C619 1.510 . S
C620 C621 1.404 . S
C620 C622 1.352 . S
C621 C620 1.404 . S
C621 C625 1.389 . S
C621 H648 0.930 . S
C622 C620 1.352 . S
C622 C624 1.374 . S
C622 H649 0.931 . S
C623 C624 1.359 . S
C623 C625 1.364 . S
C624 C622 1.374 . S
C624 C623 1.359 . S
C624 H650 0.931 . S
C625 C621 1.389 . S
C625 C623 1.364 . S
C625 H651 0.931 . S
C626 O640 1.256 . S
C626 O641 1.257 . S
C627 O642 1.240 . S
C627 O643 1.240 . S
C628 Gd617 2.818 . S
C628 C629 1.510 . S
C628 O644 1.249 . S
C628 O645 1.252 . S
C629 C628 1.510 . S
C629 C630 1.404 . S
C629 C631 1.352 . S
C630 C629 1.404 . S
C630 C634 1.389 . S
C630 H652 0.930 . S
C631 C629 1.352 . S
C631 C633 1.374 . S
C631 H653 0.931 . S
C632 C633 1.351 1_565 S
C632 C634 1.349 1_565 S
C633 C631 1.374 . S
C633 C632 1.351 1_545 S
C633 H654 0.931 . S
C634 C630 1.389 . S
C634 C632 1.349 1_545 S
C634 H655 0.931 1_545 S
C635 O646 1.256 . S
C635 O647 1.257 . S
O636 Gd616 2.377 . S
O636 C618 1.240 . S
O637 Gd617 2.395 . S
O637 C618 1.240 . S
O638 Gd616 2.448 . S
O638 C619 1.249 . S
O639 Gd616 2.506 . S
O639 C619 1.252 . S
O640 Gd616 2.435 . S
O640 C626 1.256 . S
O641 Gd616 2.717 . S
O641 Gd617 2.327 . S
O641 C626 1.257 . S
O642 Gd617 2.377 . S
O642 C627 1.240 . S
O643 Gd616 2.395 . S
O643 C627 1.240 . S
O644 Gd617 2.448 . S
O644 C628 1.249 . S
O645 Gd617 2.506 . S
O645 C628 1.252 . S
O646 Gd617 2.435 . S
O646 C635 1.256 . S
O647 Gd616 2.327 . S
O647 Gd617 2.717 . S
O647 C635 1.257 . S
H648 C621 0.930 . S
H649 C622 0.931 . S
H650 C624 0.931 . S
H651 C625 0.931 . S
H652 C630 0.930 . S
H653 C631 0.931 . S
H654 C633 0.931 . S
H655 C634 0.931 1_565 S
Gd656 C659 2.818 . S
Gd656 O676 2.377 1_554 S
Gd656 O678 2.448 . S
Gd656 O679 2.506 . S
Gd656 O680 2.435 . S
Gd656 O681 2.717 . S
Gd656 O683 2.395 . S
Gd656 O687 2.327 . S
Gd657 C668 2.818 1_556 S
Gd657 O677 2.395 . S
Gd657 O681 2.327 1_556 S
Gd657 O682 2.377 1_556 S
Gd657 O684 2.448 . S
Gd657 O685 2.506 1_556 S
Gd657 O686 2.435 . S
Gd657 O687 2.717 1_556 S
C658 O676 1.240 . S
C658 O677 1.240 . S
C659 Gd656 2.818 . S
C659 C660 1.510 . S
C659 O678 1.249 . S
C659 O679 1.252 . S
C660 C659 1.510 . S
C660 C661 1.404 . S
C660 C662 1.352 1_554 S
C661 C660 1.404 . S
C661 C665 1.389 . S
C661 H688 0.930 . S
C662 C660 1.352 1_556 S
C662 C664 1.374 . S
C662 H689 0.931 . S
C663 C664 1.359 . S
C663 C665 1.364 1_556 S
C664 C662 1.374 . S
C664 C663 1.359 . S
C664 H690 0.931 . S
C665 C661 1.389 . S
C665 C663 1.364 1_554 S
C665 H691 0.931 . S
C666 O680 1.256 . S
C666 O681 1.257 . S
C667 O682 1.240 . S
C667 O683 1.240 . S
C668 Gd657 2.818 1_554 S
C668 C669 1.510 . S
C668 O684 1.249 1_554 S
C668 O685 1.252 . S
C669 C668 1.510 . S
C669 C670 1.404 . S
C669 C671 1.352 . S
C670 C669 1.404 . S
C670 C674 1.389 . S
C670 H692 0.930 1_554 S
C671 C669 1.352 . S
C671 C673 1.374 . S
C671 H693 0.931 . S
C672 C673 1.359 . S
C672 C674 1.364 . S
C673 C671 1.374 . S
C673 C672 1.359 . S
C673 H694 0.931 . S
C674 C670 1.389 . S
C674 C672 1.364 . S
C674 H695 0.931 . S
C675 O686 1.256 1_554 S
C675 O687 1.257 . S
O676 Gd656 2.377 1_556 S
O676 C658 1.240 . S
O677 Gd657 2.395 . S
O677 C658 1.240 . S
O678 Gd656 2.448 . S
O678 C659 1.249 . S
O679 Gd656 2.506 . S
O679 C659 1.252 . S
O680 Gd656 2.435 . S
O680 C666 1.256 . S
O681 Gd656 2.717 . S
O681 Gd657 2.327 1_554 S
O681 C666 1.257 . S
O682 Gd657 2.377 1_554 S
O682 C667 1.240 . S
O683 Gd656 2.395 . S
O683 C667 1.240 . S
O684 Gd657 2.448 . S
O684 C668 1.249 1_556 S
O685 Gd657 2.506 1_554 S
O685 C668 1.252 . S
O686 Gd657 2.435 . S
O686 C675 1.256 1_556 S
O687 Gd656 2.327 . S
O687 Gd657 2.717 1_554 S
O687 C675 1.257 . S
H688 C661 0.930 . S
H689 C662 0.931 . S
H690 C664 0.931 . S
H691 C665 0.931 . S
H692 C670 0.930 1_556 S
H693 C671 0.931 . S
H694 C673 0.931 . S
H695 C674 0.931 . S
Gd696 C699 2.818 1_655 S
Gd696 O716 2.377 . S
Gd696 O718 2.448 . S
Gd696 O719 2.506 . S
Gd696 O720 2.435 . S
Gd696 O721 2.717 . S
Gd696 O723 2.395 . S
Gd696 O727 2.327 . S
Gd697 C708 2.818 . S
Gd697 O717 2.395 . S
Gd697 O721 2.327 . S
Gd697 O722 2.377 . S
Gd697 O724 2.448 . S
Gd697 O725 2.506 . S
Gd697 O726 2.435 . S
Gd697 O727 2.717 . S
C698 O716 1.240 . S
C698 O717 1.240 . S
C699 Gd696 2.818 1_455 S
C699 C700 1.510 . S
C699 O718 1.249 1_455 S
C699 O719 1.252 1_455 S
C700 C699 1.510 . S
C700 C701 1.404 . S
C700 C702 1.352 . S
C701 C700 1.404 . S
C701 C705 1.389 . S
C701 H728 0.930 . S
C702 C700 1.352 . S
C702 C704 1.374 . S
C702 H729 0.931 . S
C703 C704 1.359 . S
C703 C705 1.364 . S
C704 C702 1.374 . S
C704 C703 1.359 . S
C704 H730 0.931 . S
C705 C701 1.389 . S
C705 C703 1.364 . S
C705 H731 0.931 . S
C706 O720 1.256 . S
C706 O721 1.257 . S
C707 O722 1.240 . S
C707 O723 1.240 . S
C708 Gd697 2.818 . S
C708 C709 1.510 . S
C708 O724 1.249 . S
C708 O725 1.252 . S
C709 C708 1.510 . S
C709 C710 1.404 . S
C709 C711 1.352 . S
C710 C709 1.404 . S
C710 C714 1.389 . S
C710 H732 0.930 . S
C711 C709 1.352 . S
C711 C713 1.374 . S
C711 H733 0.931 . S
C712 C713 1.359 . S
C712 C714 1.364 . S
C713 C711 1.374 . S
C713 C712 1.359 . S
C713 H734 0.931 . S
C714 C710 1.389 . S
C714 C712 1.364 . S
C714 H735 0.931 . S
C715 O726 1.256 . S
C715 O727 1.257 . S
O716 Gd696 2.377 . S
O716 C698 1.240 . S
O717 Gd697 2.395 . S
O717 C698 1.240 . S
O718 Gd696 2.448 . S
O718 C699 1.249 1_655 S
O719 Gd696 2.506 . S
O719 C699 1.252 1_655 S
O720 Gd696 2.435 . S
O720 C706 1.256 . S
O721 Gd696 2.717 . S
O721 Gd697 2.327 . S
O721 C706 1.257 . S
O722 Gd697 2.377 . S
O722 C707 1.240 . S
O723 Gd696 2.395 . S
O723 C707 1.240 . S
O724 Gd697 2.448 . S
O724 C708 1.249 . S
O725 Gd697 2.506 . S
O725 C708 1.252 . S
O726 Gd697 2.435 . S
O726 C715 1.256 . S
O727 Gd696 2.327 . S
O727 Gd697 2.717 . S
O727 C715 1.257 . S
H728 C701 0.930 . S
H729 C702 0.931 . S
H730 C704 0.931 . S
H731 C705 0.931 . S
H732 C710 0.930 . S
H733 C711 0.931 . S
H734 C713 0.931 . S
H735 C714 0.931 . S
Gd736 C739 2.818 . S
Gd736 O756 2.377 . S
Gd736 O758 2.448 . S
Gd736 O759 2.506 . S
Gd736 O760 2.435 . S
Gd736 O761 2.717 . S
Gd736 O763 2.395 . S
Gd736 O767 2.327 . S
Gd737 C748 2.818 . S
Gd737 O757 2.395 . S
Gd737 O761 2.327 . S
Gd737 O762 2.377 . S
Gd737 O764 2.448 . S
Gd737 O765 2.506 . S
Gd737 O766 2.435 . S
Gd737 O767 2.717 . S
C738 O756 1.240 . S
C738 O757 1.240 . S
C739 Gd736 2.818 . S
C739 C740 1.510 . S
C739 O758 1.249 . S
C739 O759 1.252 . S
C740 C739 1.510 . S
C740 C741 1.404 . S
C740 C742 1.352 . S
C741 C740 1.404 . S
C741 C745 1.389 . S
C741 H768 0.930 . S
C742 C740 1.352 . S
C742 C744 1.374 1_455 S
C742 H769 0.931 . S
C743 C744 1.359 . S
C743 C745 1.364 1_655 S
C744 C742 1.374 1_655 S
C744 C743 1.359 . S
C744 H770 0.931 . S
C745 C741 1.389 . S
C745 C743 1.364 1_455 S
C745 H771 0.931 . S
C746 O760 1.256 . S
C746 O761 1.257 . S
C747 O762 1.240 . S
C747 O763 1.240 . S
C748 Gd737 2.818 . S
C748 C749 1.510 . S
C748 O764 1.249 . S
C748 O765 1.252 . S
C749 C748 1.510 . S
C749 C750 1.404 . S
C749 C751 1.352 . S
C750 C749 1.404 . S
C750 C754 1.389 . S
C750 H772 0.930 . S
C751 C749 1.352 . S
C751 C753 1.374 . S
C751 H773 0.931 . S
C752 C753 1.359 . S
C752 C754 1.364 . S
C753 C751 1.374 . S
C753 C752 1.359 . S
C753 H774 0.931 . S
C754 C750 1.389 . S
C754 C752 1.364 . S
C754 H775 0.931 . S
C755 O766 1.256 . S
C755 O767 1.257 . S
O756 Gd736 2.377 . S
O756 C738 1.240 . S
O757 Gd737 2.395 . S
O757 C738 1.240 . S
O758 Gd736 2.448 . S
O758 C739 1.249 . S
O759 Gd736 2.506 . S
O759 C739 1.252 . S
O760 Gd736 2.435 . S
O760 C746 1.256 . S
O761 Gd736 2.717 . S
O761 Gd737 2.327 . S
O761 C746 1.257 . S
O762 Gd737 2.377 . S
O762 C747 1.240 . S
O763 Gd736 2.395 . S
O763 C747 1.240 . S
O764 Gd737 2.448 . S
O764 C748 1.249 . S
O765 Gd737 2.506 . S
O765 C748 1.252 . S
O766 Gd737 2.435 . S
O766 C755 1.256 . S
O767 Gd736 2.327 . S
O767 Gd737 2.717 . S
O767 C755 1.257 . S
H768 C741 0.930 . S
H769 C742 0.931 . S
H770 C744 0.931 . S
H771 C745 0.931 . S
H772 C750 0.930 . S
H773 C751 0.931 . S
H774 C753 0.931 . S
H775 C754 0.931 . S
Gd776 C779 2.818 . S
Gd776 O796 2.377 . S
Gd776 O798 2.448 . S
Gd776 O799 2.506 . S
Gd776 O800 2.435 . S
Gd776 O801 2.717 . S
Gd776 O803 2.395 . S
Gd776 O807 2.327 . S
Gd777 C788 2.818 . S
Gd777 O797 2.395 . S
Gd777 O801 2.327 . S
Gd777 O802 2.377 . S
Gd777 O804 2.448 . S
Gd777 O805 2.506 . S
Gd777 O806 2.435 . S
Gd777 O807 2.717 . S
C778 O796 1.240 . S
C778 O797 1.240 . S
C779 Gd776 2.818 . S
C779 C780 1.510 . S
C779 O798 1.249 . S
C779 O799 1.252 . S
C780 C779 1.510 . S
C780 C781 1.404 . S
C780 C782 1.352 . S
C781 C780 1.404 . S
C781 C785 1.389 . S
C781 H808 0.930 . S
C782 C780 1.352 . S
C782 C784 1.374 . S
C782 H809 0.931 . S
C783 C784 1.359 . S
C783 C785 1.364 . S
C784 C782 1.374 . S
C784 C783 1.359 . S
C784 H810 0.931 . S
C785 C781 1.389 . S
C785 C783 1.364 . S
C785 H811 0.931 . S
C786 O800 1.256 . S
C786 O801 1.257 . S
C787 O802 1.240 . S
C787 O803 1.240 . S
C788 Gd777 2.818 . S
C788 C789 1.510 1_655 S
C788 O804 1.249 . S
C788 O805 1.252 . S
C789 C788 1.510 1_455 S
C789 C790 1.404 . S
C789 C791 1.352 . S
C790 C789 1.404 . S
C790 C794 1.389 . S
C790 H812 0.930 . S
C791 C789 1.352 . S
C791 C793 1.374 . S
C791 H813 0.931 . S
C792 C793 1.359 . S
C792 C794 1.364 . S
C793 C791 1.374 . S
C793 C792 1.359 . S
C793 H814 0.931 . S
C794 C790 1.389 . S
C794 C792 1.364 . S
C794 H815 0.931 . S
C795 O806 1.256 . S
C795 O807 1.257 . S
O796 Gd776 2.377 . S
O796 C778 1.240 . S
O797 Gd777 2.395 . S
O797 C778 1.240 . S
O798 Gd776 2.448 . S
O798 C779 1.249 . S
O799 Gd776 2.506 . S
O799 C779 1.252 . S
O800 Gd776 2.435 . S
O800 C786 1.256 . S
O801 Gd776 2.717 . S
O801 Gd777 2.327 . S
O801 C786 1.257 . S
O802 Gd777 2.377 . S
O802 C787 1.240 . S
O803 Gd776 2.395 . S
O803 C787 1.240 . S
O804 Gd777 2.448 . S
O804 C788 1.249 . S
O805 Gd777 2.506 . S
O805 C788 1.252 . S
O806 Gd777 2.435 . S
O806 C795 1.256 . S
O807 Gd776 2.327 . S
O807 Gd777 2.717 . S
O807 C795 1.257 . S
H808 C781 0.930 . S
H809 C782 0.931 . S
H810 C784 0.931 . S
H811 C785 0.931 . S
H812 C790 0.930 . S
H813 C791 0.931 . S
H814 C793 0.931 . S
H815 C794 0.931 . S
Gd816 C819 2.818 . S
Gd816 O836 2.377 . S
Gd816 O838 2.448 . S
Gd816 O839 2.506 . S
Gd816 O840 2.435 . S
Gd816 O841 2.717 . S
Gd816 O843 2.395 . S
Gd816 O847 2.327 . S
Gd817 C828 2.818 . S
Gd817 O837 2.395 . S
Gd817 O841 2.327 . S
Gd817 O842 2.377 . S
Gd817 O844 2.448 . S
Gd817 O845 2.506 . S
Gd817 O846 2.435 . S
Gd817 O847 2.717 . S
C818 O836 1.240 . S
C818 O837 1.240 . S
C819 Gd816 2.818 . S
C819 C820 1.510 . S
C819 O838 1.249 . S
C819 O839 1.252 . S
C820 C819 1.510 . S
C820 C821 1.404 . S
C820 C822 1.352 . S
C821 C820 1.404 . S
C821 C825 1.389 . S
C821 H848 0.930 . S
C822 C820 1.352 . S
C822 C824 1.374 . S
C822 H849 0.931 . S
C823 C824 1.359 . S
C823 C825 1.364 . S
C824 C822 1.374 . S
C824 C823 1.359 . S
C824 H850 0.931 . S
C825 C821 1.389 . S
C825 C823 1.364 . S
C825 H851 0.931 1_655 S
C826 O840 1.256 . S
C826 O841 1.257 . S
C827 O842 1.240 . S
C827 O843 1.240 . S
C828 Gd817 2.818 . S
C828 C829 1.510 . S
C828 O844 1.249 . S
C828 O845 1.252 . S
C829 C828 1.510 . S
C829 C830 1.404 . S
C829 C831 1.352 . S
C830 C829 1.404 . S
C830 C834 1.389 . S
C830 H852 0.930 . S
C831 C829 1.352 . S
C831 C833 1.374 . S
C831 H853 0.931 . S
C832 C833 1.359 . S
C832 C834 1.364 . S
C833 C831 1.374 . S
C833 C832 1.359 . S
C833 H854 0.931 . S
C834 C830 1.389 . S
C834 C832 1.364 . S
C834 H855 0.931 . S
C835 O846 1.256 . S
C835 O847 1.257 . S
O836 Gd816 2.377 . S
O836 C818 1.240 . S
O837 Gd817 2.395 . S
O837 C818 1.240 . S
O838 Gd816 2.448 . S
O838 C819 1.249 . S
O839 Gd816 2.506 . S
O839 C819 1.252 . S
O840 Gd816 2.435 . S
O840 C826 1.256 . S
O841 Gd816 2.717 . S
O841 Gd817 2.327 . S
O841 C826 1.257 . S
O842 Gd817 2.377 . S
O842 C827 1.240 . S
O843 Gd816 2.395 . S
O843 C827 1.240 . S
O844 Gd817 2.448 . S
O844 C828 1.249 . S
O845 Gd817 2.506 . S
O845 C828 1.252 . S
O846 Gd817 2.435 . S
O846 C835 1.256 . S
O847 Gd816 2.327 . S
O847 Gd817 2.717 . S
O847 C835 1.257 . S
H848 C821 0.930 . S
H849 C822 0.931 . S
H850 C824 0.931 . S
H851 C825 0.931 1_455 S
H852 C830 0.930 . S
H853 C831 0.931 . S
H854 C833 0.931 . S
H855 C834 0.931 . S
Gd856 C859 2.818 . S
Gd856 O876 2.377 . S
Gd856 O878 2.448 . S
Gd856 O879 2.506 . S
Gd856 O880 2.435 . S
Gd856 O881 2.717 . S
Gd856 O883 2.395 . S
Gd856 O887 2.327 . S
Gd857 C868 2.818 . S
Gd857 O877 2.395 . S
Gd857 O881 2.327 . S
Gd857 O882 2.377 . S
Gd857 O884 2.448 . S
Gd857 O885 2.506 . S
Gd857 O886 2.435 . S
Gd857 O887 2.717 . S
C858 O876 1.240 . S
C858 O877 1.240 . S
C859 Gd856 2.818 . S
C859 C860 1.510 1_565 S
C859 O878 1.249 . S
C859 O879 1.252 . S
C860 C859 1.510 1_545 S
C860 C861 1.404 . S
C860 C862 1.352 . S
C861 C860 1.404 . S
C861 C865 1.389 . S
C861 H888 0.930 . S
C862 C860 1.352 . S
C862 C864 1.374 . S
C862 H889 0.931 . S
C863 C864 1.359 . S
C863 C865 1.364 . S
C864 C862 1.374 . S
C864 C863 1.359 . S
C864 H890 0.931 . S
C865 C861 1.389 . S
C865 C863 1.364 . S
C865 H891 0.931 . S
C866 O880 1.256 . S
C866 O881 1.257 . S
C867 O882 1.240 . S
C867 O883 1.240 . S
C868 Gd857 2.818 . S
C868 C869 1.510 . S
C868 O884 1.249 . S
C868 O885 1.252 . S
C869 C868 1.510 . S
C869 C870 1.404 . S
C869 C871 1.352 . S
C870 C869 1.404 . S
C870 C874 1.389 . S
C870 H892 0.930 . S
C871 C869 1.352 . S
C871 C873 1.374 . S
C871 H893 0.931 . S
C872 C873 1.359 . S
C872 C874 1.364 . S
C873 C871 1.374 . S
C873 C872 1.359 . S
C873 H894 0.931 . S
C874 C870 1.389 . S
C874 C872 1.364 . S
C874 H895 0.931 . S
C875 O886 1.256 . S
C875 O887 1.257 . S
O876 Gd856 2.377 . S
O876 C858 1.240 . S
O877 Gd857 2.395 . S
O877 C858 1.240 . S
O878 Gd856 2.448 . S
O878 C859 1.249 . S
O879 Gd856 2.506 . S
O879 C859 1.252 . S
O880 Gd856 2.435 . S
O880 C866 1.256 . S
O881 Gd856 2.717 . S
O881 Gd857 2.327 . S
O881 C866 1.257 . S
O882 Gd857 2.377 . S
O882 C867 1.240 . S
O883 Gd856 2.395 . S
O883 C867 1.240 . S
O884 Gd857 2.448 . S
O884 C868 1.249 . S
O885 Gd857 2.506 . S
O885 C868 1.252 . S
O886 Gd857 2.435 . S
O886 C875 1.256 . S
O887 Gd856 2.327 . S
O887 Gd857 2.717 . S
O887 C875 1.257 . S
H888 C861 0.930 . S
H889 C862 0.931 . S
H890 C864 0.931 . S
H891 C865 0.931 . S
H892 C870 0.930 . S
H893 C871 0.931 . S
H894 C873 0.931 . S
H895 C874 0.931 . S
Gd896 C899 2.818 . S
Gd896 O916 2.377 . S
Gd896 O918 2.448 . S
Gd896 O919 2.506 . S
Gd896 O920 2.435 . S
Gd896 O921 2.717 . S
Gd896 O923 2.395 . S
Gd896 O927 2.327 . S
Gd897 C908 2.818 . S
Gd897 O917 2.395 . S
Gd897 O921 2.327 . S
Gd897 O922 2.377 . S
Gd897 O924 2.448 . S
Gd897 O925 2.506 . S
Gd897 O926 2.435 . S
Gd897 O927 2.717 . S
C898 O916 1.240 . S
C898 O917 1.240 . S
C899 Gd896 2.818 . S
C899 C900 1.510 . S
C899 O918 1.249 . S
C899 O919 1.252 . S
C900 C899 1.510 . S
C900 C901 1.404 . S
C900 C902 1.352 . S
C901 C900 1.404 . S
C901 C905 1.389 . S
C901 H928 0.930 . S
C902 C900 1.352 . S
C902 C904 1.374 . S
C902 H929 0.931 . S
C903 C904 1.359 . S
C903 C905 1.364 . S
C904 C902 1.374 . S
C904 C903 1.359 . S
C904 H930 0.931 . S
C905 C901 1.389 . S
C905 C903 1.364 . S
C905 H931 0.931 . S
C906 O920 1.256 . S
C906 O921 1.257 . S
C907 O922 1.240 . S
C907 O923 1.240 . S
C908 Gd897 2.818 . S
C908 C909 1.510 . S
C908 O924 1.249 . S
C908 O925 1.252 . S
C909 C908 1.510 . S
C909 C910 1.404 . S
C909 C911 1.352 . S
C910 C909 1.404 . S
C910 C914 1.389 . S
C910 H932 0.930 . S
C911 C909 1.352 . S
C911 C913 1.374 . S
C911 H933 0.931 . S
C912 C913 1.359 . S
C912 C914 1.364 . S
C913 C911 1.374 . S
C913 C912 1.359 . S
C913 H934 0.931 . S
C914 C910 1.389 . S
C914 C912 1.364 . S
C914 H935 0.931 . S
C915 O926 1.256 . S
C915 O927 1.257 . S
O916 Gd896 2.377 . S
O916 C898 1.240 . S
O917 Gd897 2.395 . S
O917 C898 1.240 . S
O918 Gd896 2.448 . S
O918 C899 1.249 . S
O919 Gd896 2.506 . S
O919 C899 1.252 . S
O920 Gd896 2.435 . S
O920 C906 1.256 . S
O921 Gd896 2.717 . S
O921 Gd897 2.327 . S
O921 C906 1.257 . S
O922 Gd897 2.377 . S
O922 C907 1.240 . S
O923 Gd896 2.395 . S
O923 C907 1.240 . S
O924 Gd897 2.448 . S
O924 C908 1.249 . S
O925 Gd897 2.506 . S
O925 C908 1.252 . S
O926 Gd897 2.435 . S
O926 C915 1.256 . S
O927 Gd896 2.327 . S
O927 Gd897 2.717 . S
O927 C915 1.257 . S
H928 C901 0.930 . S
H929 C902 0.931 . S
H930 C904 0.931 . S
H931 C905 0.931 . S
H932 C910 0.930 . S
H933 C911 0.931 . S
H934 C913 0.931 . S
H935 C914 0.931 . S
Gd936 C939 2.818 1_554 S
Gd936 O956 2.377 1_554 S
Gd936 O958 2.448 1_554 S
Gd936 O959 2.506 . S
Gd936 O960 2.435 1_554 S
Gd936 O961 2.717 1_554 S
Gd936 O963 2.395 . S
Gd936 O967 2.327 . S
Gd937 C948 2.818 . S
Gd937 O957 2.395 . S
Gd937 O961 2.327 1_554 S
Gd937 O962 2.377 . S
Gd937 O964 2.448 . S
Gd937 O965 2.506 . S
Gd937 O966 2.435 . S
Gd937 O967 2.717 . S
C938 O956 1.240 1_554 S
C938 O957 1.240 . S
C939 Gd936 2.818 1_556 S
C939 C940 1.510 . S
C939 O958 1.249 . S
C939 O959 1.252 1_556 S
C940 C939 1.510 . S
C940 C941 1.404 . S
C940 C942 1.352 1_556 S
C941 C940 1.404 . S
C941 C945 1.389 . S
C941 H968 0.930 . S
C942 C940 1.352 1_554 S
C942 C944 1.374 . S
C942 H969 0.931 . S
C943 C944 1.359 1_556 S
C943 C945 1.364 . S
C944 C942 1.374 . S
C944 C943 1.359 1_554 S
C944 H970 0.931 . S
C945 C941 1.389 . S
C945 C943 1.364 . S
C945 H971 0.931 . S
C946 O960 1.256 . S
C946 O961 1.257 . S
C947 O962 1.240 . S
C947 O963 1.240 . S
C948 Gd937 2.818 . S
C948 C949 1.510 1_455 S
C948 O964 1.249 . S
C948 O965 1.252 . S
C949 C948 1.510 1_655 S
C949 C950 1.404 . S
C949 C951 1.352 . S
C950 C949 1.404 . S
C950 C954 1.389 . S
C950 H972 0.930 . S
C951 C949 1.352 . S
C951 C953 1.374 . S
C951 H973 0.931 . S
C952 C953 1.359 . S
C952 C954 1.364 . S
C953 C951 1.374 . S
C953 C952 1.359 . S
C953 H974 0.931 . S
C954 C950 1.389 . S
C954 C952 1.364 . S
C954 H975 0.931 . S
C955 O966 1.256 . S
C955 O967 1.257 . S
O956 Gd936 2.377 1_556 S
O956 C938 1.240 1_556 S
O957 Gd937 2.395 . S
O957 C938 1.240 . S
O958 Gd936 2.448 1_556 S
O958 C939 1.249 . S
O959 Gd936 2.506 . S
O959 C939 1.252 1_554 S
O960 Gd936 2.435 1_556 S
O960 C946 1.256 . S
O961 Gd936 2.717 1_556 S
O961 Gd937 2.327 1_556 S
O961 C946 1.257 . S
O962 Gd937 2.377 . S
O962 C947 1.240 . S
O963 Gd936 2.395 . S
O963 C947 1.240 . S
O964 Gd937 2.448 . S
O964 C948 1.249 . S
O965 Gd937 2.506 . S
O965 C948 1.252 . S
O966 Gd937 2.435 . S
O966 C955 1.256 . S
O967 Gd936 2.327 . S
O967 Gd937 2.717 . S
O967 C955 1.257 . S
H968 C941 0.930 . S
H969 C942 0.931 . S
H970 C944 0.931 . S
H971 C945 0.931 . S
H972 C950 0.930 . S
H973 C951 0.931 . S
H974 C953 0.931 . S
H975 C954 0.931 . S
C111 C338 3.772 . S
C64 C395 3.519 . S
C77 C418 1.886 . S
C472 C95 1.667 . S
C25 C512 3.298 . S
C543 C36 1.407 . S
C595 C50 3.814 . S
C11 C618 3.758 . S
C355 C237 3.491 . S
C245 C392 1.550 . S
C435 C279 0.950 . S
C458 C175 2.317 . S
C231 C498 2.668 . S
C546 C251 1.969 . S
C592 C273 1.125 . S
C635 C181 3.538 . S
C352 C165 3.280 . S
C288 C675 2.649 1_556 S
C707 C333 3.894 . S
C738 C316 1.249 . S
C123 C632 4.938 1_545 S
C137 C432 2.838 . S
C330 C795 2.949 . S
C818 C302 1.457 . S
C347 C63 3.794 . S
C826 C106 3.575 . S
C97 C427 2.144 . S
C81 C783 1.577 . S
C503 C13 2.732 . S
C55 C712 0.965 . S
C586 C35 3.523 1_564 S
C867 C21 3.907 . S
C346 C147 3.783 . S
C823 C321 0.942 . S
C119 C426 0.817 . S
C293 C787 2.568 . S
C153 C507 2.720 . S
C715 C315 2.083 . S
C125 C583 1.374 . S
C287 C866 3.595 . S
C193 C343 3.087 1_554 S
C176 C666 2.812 . S
C263 C538 3.778 . S
C246 C747 1.871 . S
C863 C277 4.550 . S
C221 C423 2.587 . S
C466 C260 3.118 . S
C387 C204 1.296 . S
C83 C898 3.776 . S
C835 C92 3.504 . S
C105 C938 1.872 . S
C67 C792 1.687 . S
C53 C672 3.321 . S
C703 C8 1.387 . S
C755 C22 3.768 1_455 S
C858 C39 3.792 . S
C915 C265 3.466 . S
C189 C832 1.539 . S
C955 C209 0.967 . S
C778 C217 2.322 . S
C658 C259 2.647 . S
C195 C706 1.946 . S
C752 C203 1.191 . S
C223 C875 3.524 . S
C912 C319 3.264 . S
C134 C515 2.658 . S
C547 C151 3.901 . S
C578 C162 1.273 . S
C872 C305 4.839 . S
C291 C952 2.829 1_556 S
C475 C148 2.956 . S
C378 C120 1.460 . S
C91 C907 3.795 . S
C386 C78 3.566 . S
C69 C947 2.146 . S
C109 C463 1.602 . S
C41 C663 2.725 . S
C552 C27 0.921 . S
C7 C746 3.494 . S
C49 C627 3.943 . S
C906 C329 3.774 . S
C167 C383 0.939 . S
C946 C301 0.878 . S
C139 C467 2.572 . S
C335 C667 2.715 . S
C555 C161 2.020 . S
C307 C743 1.344 1_455 S
C626 C133 3.586 . S
C903 C249 3.074 . S
C506 C218 2.822 1_445 S
C235 C698 3.765 . S
C587 C190 1.910 . S
C207 C623 4.498 . S
C179 C943 2.587 1_554 S
C786 C232 3.086 . S
C827 C274 1.297 . S
