# Generated by pormake.
# Topology csq, (4,8)-cn, num edge types: 1
# Building blocks:
#     Node 0, Type 0, BuildingBlock: MUDLON_clean_sbu_0, # of connection points: 4
#     Node 1, Type 0, BuildingBlock: MUDLON_clean_sbu_0, # of connection points: 4
#     Node 2, Type 0, BuildingBlock: MUDLON_clean_sbu_0, # of connection points: 4
#     Node 3, Type 0, BuildingBlock: MUDLON_clean_sbu_0, # of connection points: 4
#     Node 4, Type 0, BuildingBlock: MUDLON_clean_sbu_0, # of connection points: 4
#     Node 5, Type 0, BuildingBlock: MUDLON_clean_sbu_0, # of connection points: 4
#     Node 6, Type 1, BuildingBlock: TAGTUT_clean_sbu_3, # of connection points: 8
#     Node 7, Type 1, BuildingBlock: TAGTUT_clean_sbu_3, # of connection points: 8
#     Node 8, Type 1, BuildingBlock: TAGTUT_clean_sbu_3, # of connection points: 8
#     Edge 9, Type (0, 1), BuildingBlock: ZUJKAS_clean_linker_0, # of connection points: 2
#     Edge 10, Type (0, 1), BuildingBlock: ZUJKAS_clean_linker_0, # of connection points: 2
#     Edge 11, Type (0, 1), BuildingBlock: ZUJKAS_clean_linker_0, # of connection points: 2
#     Edge 12, Type (0, 1), BuildingBlock: ZUJKAS_clean_linker_0, # of connection points: 2
#     Edge 13, Type (0, 1), BuildingBlock: ZUJKAS_clean_linker_0, # of connection points: 2
#     Edge 14, Type (0, 1), BuildingBlock: ZUJKAS_clean_linker_0, # of connection points: 2
#     Edge 15, Type (0, 1), BuildingBlock: ZUJKAS_clean_linker_0, # of connection points: 2
#     Edge 16, Type (0, 1), BuildingBlock: ZUJKAS_clean_linker_0, # of connection points: 2
#     Edge 17, Type (0, 1), BuildingBlock: ZUJKAS_clean_linker_0, # of connection points: 2
#     Edge 18, Type (0, 1), BuildingBlock: ZUJKAS_clean_linker_0, # of connection points: 2
#     Edge 19, Type (0, 1), BuildingBlock: ZUJKAS_clean_linker_0, # of connection points: 2
#     Edge 20, Type (0, 1), BuildingBlock: ZUJKAS_clean_linker_0, # of connection points: 2
#     Edge 21, Type (0, 1), BuildingBlock: ZUJKAS_clean_linker_0, # of connection points: 2
#     Edge 22, Type (0, 1), BuildingBlock: ZUJKAS_clean_linker_0, # of connection points: 2
#     Edge 23, Type (0, 1), BuildingBlock: ZUJKAS_clean_linker_0, # of connection points: 2
#     Edge 24, Type (0, 1), BuildingBlock: ZUJKAS_clean_linker_0, # of connection points: 2
#     Edge 25, Type (0, 1), BuildingBlock: ZUJKAS_clean_linker_0, # of connection points: 2
#     Edge 26, Type (0, 1), BuildingBlock: ZUJKAS_clean_linker_0, # of connection points: 2
#     Edge 27, Type (0, 1), BuildingBlock: ZUJKAS_clean_linker_0, # of connection points: 2
#     Edge 28, Type (0, 1), BuildingBlock: ZUJKAS_clean_linker_0, # of connection points: 2
#     Edge 29, Type (0, 1), BuildingBlock: ZUJKAS_clean_linker_0, # of connection points: 2
#     Edge 30, Type (0, 1), BuildingBlock: ZUJKAS_clean_linker_0, # of connection points: 2
#     Edge 31, Type (0, 1), BuildingBlock: ZUJKAS_clean_linker_0, # of connection points: 2
#     Edge 32, Type (0, 1), BuildingBlock: ZUJKAS_clean_linker_0, # of connection points: 2
# Relax obj value: 0.069
# Max RMSD: 0.130
# Mean RMSD: 0.106
data_MOF--net-csq--node1-MUDLON_clean_sbu_0--node2-TAGTUT_clean_sbu_3--edge1-ZUJKAS_clean_linker_0
_symmetry_space_group_name_H-M    P1
_symmetry_Int_Tables_number       1
_symmetry_cell_setting            triclinic
loop_
_symmetry_equiv_pos_as_xyz
'x, y, z'
_cell_length_a     63.887424
_cell_length_b     63.175619
_cell_length_c     25.573751
_cell_angle_alpha  92.428742
_cell_angle_beta   92.195183
_cell_angle_gamma 119.92072
loop_
_atom_site_label
_atom_site_type_symbol
_atom_site_fract_x
_atom_site_fract_y
_atom_site_fract_z
_atom_type_partial_charge
Mg0 Mg 0.24477 0.4759 0.14025 0.0
C1 C 0.21703 0.44774 0.03741 0.0
O2 O 0.23873 0.45945 0.01983 0.0
C3 C 0.25569 0.44051 0.204 0.0
O4 O 0.24402 0.4236 0.16551 0.0
C5 C 0.21469 0.48247 0.21142 0.0
O6 O 0.20961 0.45959 0.21194 0.0
O7 O 0.2308 0.49643 0.18186 0.0
O8 O 0.2147 0.44983 0.08625 0.0
O9 O 0.27747 0.49647 0.09853 0.0
C10 C 0.28684 0.48324 0.08812 0.0
O11 O 0.27533 0.46036 0.10026 0.0
O12 O 0.25675 0.4611 0.20243 0.0
Mg13 Mg 0.76201 0.25437 0.10571 0.0
C14 C 0.78954 0.26217 0.00417 0.0
O15 O 0.76961 0.24298 0.98342 0.0
C16 C 0.73757 0.21766 0.17517 0.0
O17 O 0.73167 0.23472 0.18188 0.0
C18 C 0.79061 0.30351 0.16765 0.0
O19 O 0.79766 0.31074 0.12085 0.0
O20 O 0.77417 0.28148 0.17187 0.0
O21 O 0.79101 0.26867 0.05252 0.0
O22 O 0.72721 0.24341 0.06539 0.0
C23 C 0.72338 0.24902 0.0203 0.0
O24 O 0.74137 0.26683 0.99805 0.0
O25 O 0.75309 0.2207 0.14213 0.0
Mg26 Mg 0.52972 0.75935 0.06106 0.0
C27 C 0.5459 0.78957 0.17026 0.0
O28 O 0.56243 0.78303 0.16782 0.0
C29 C 0.54798 0.74299 0.9641 0.0
O30 O 0.56758 0.76384 0.97925 0.0
C31 C 0.54999 0.81233 0.01604 0.0
O32 O 0.56154 0.82077 0.06246 0.0
O33 O 0.53646 0.78939 0.0061 0.0
O34 O 0.52997 0.78289 0.13225 0.0
O35 O 0.52164 0.72827 0.11409 0.0
C36 C 0.53289 0.71642 0.11166 0.0
O37 O 0.5501 0.72271 0.07902 0.0
O38 O 0.52927 0.73586 0.98996 0.0
Mg39 Mg 0.78142 0.54297 0.04684 0.0
C40 C 0.76824 0.56627 0.96193 0.0
O41 O 0.77944 0.55745 0.93431 0.0
C42 C 0.821 0.54768 0.11291 0.0
O43 O 0.8081 0.5245 0.09616 0.0
C44 C 0.75152 0.52216 0.13985 0.0
O45 O 0.77299 0.53422 0.16498 0.0
O46 O 0.75002 0.52003 0.08992 0.0
O47 O 0.76946 0.56593 0.01153 0.0
O48 O 0.79268 0.52688 0.98449 0.0
C49 C 0.79166 0.50625 0.97955 0.0
O50 O 0.77977 0.4896 0.01261 0.0
O51 O 0.8135 0.56209 0.10009 0.0
Mg52 Mg 0.24487 0.78352 0.12542 0.0
C53 C 0.23002 0.75599 0.01883 0.0
O54 O 0.24508 0.77788 0.00403 0.0
C55 C 0.28343 0.7834 0.19694 0.0
O56 O 0.26447 0.7697 0.22301 0.0
C57 C 0.2022 0.75466 0.18979 0.0
O58 O 0.19377 0.74254 0.14376 0.0
O59 O 0.2227 0.77428 0.19332 0.0
O60 O 0.22752 0.75288 0.06745 0.0
O61 O 0.25133 0.81552 0.08389 0.0
C62 C 0.27153 0.8353 0.09223 0.0
O63 O 0.28611 0.83729 0.13218 0.0
O64 O 0.28025 0.7902 0.15276 0.0
Mg65 Mg 0.47668 0.24399 0.17588 0.0
C66 C 0.44358 0.23708 0.2631 0.0
O67 O 0.45045 0.2215 0.27623 0.0
C68 C 0.48411 0.22316 0.08243 0.0
O69 O 0.50528 0.24091 0.10211 0.0
C70 C 0.49054 0.29405 0.13953 0.0
O71 O 0.47281 0.2908 0.16866 0.0
O72 O 0.49817 0.2789 0.14073 0.0
O73 O 0.4494 0.24677 0.21947 0.0
O74 O 0.49422 0.2307 0.23053 0.0
C75 C 0.48511 0.20752 0.22602 0.0
O76 O 0.4683 0.19492 0.18824 0.0
O77 O 0.46538 0.21899 0.10609 0.0
C78 C 0.0494 0.49364 0.54282 0.0
C79 C 0.03817 0.45173 0.72232 0.0
C80 C 0.96893 0.44775 0.71352 0.0
Mg81 Mg 0.02661 0.5258 0.49965 0.0
Mg82 Mg 0.01393 0.55877 0.58243 0.0
O83 O 0.00842 0.52751 0.56061 0.0
Mg84 Mg 0.01668 0.50912 0.61128 0.0
O85 O 0.02531 0.48948 0.65736 0.0
Mg86 Mg 0.00741 0.45666 0.6172 0.0
Mg87 Mg 0.02084 0.49 0.72912 0.0
C88 C 0.98357 0.52737 0.67509 0.0
O89 O 0.04468 0.54341 0.66241 0.0
O90 O 0.00661 0.54208 0.45239 0.0
O91 O 0.04057 0.52969 0.74368 0.0
O92 O 0.05828 0.56527 0.51727 0.0
O93 O 0.99807 0.56362 0.51186 0.0
O94 O 0.05199 0.5858 0.58179 0.0
O95 O 0.98905 0.47332 0.56535 0.0
O96 O 0.99506 0.4864 0.48444 0.0
C97 C 0.98408 0.46939 0.51561 0.0
C98 C 0.9976 0.55575 0.46454 0.0
O99 O 0.98853 0.51032 0.66412 0.0
O100 O 0.02856 0.44468 0.67503 0.0
O101 O 0.99311 0.54763 0.65228 0.0
O102 O 0.97546 0.4415 0.67166 0.0
O103 O 0.03739 0.46884 0.74943 0.0
O104 O 0.98303 0.4678 0.74036 0.0
O105 O 0.04404 0.51011 0.55532 0.0
O106 O 0.03892 0.47281 0.56286 0.0
C107 C 0.06542 0.58465 0.54732 0.0
C108 C 0.04953 0.54707 0.7124 0.0
C109 C 0.4962 0.03172 0.52673 0.0
C110 C 0.57262 0.02627 0.4654 0.0
C111 C 0.53855 0.95803 0.53637 0.0
Mg112 Mg 0.46381 0.00666 0.6273 0.0
Mg113 Mg 0.49062 0.99977 0.73211 0.0
O114 O 0.48249 0.99221 0.66006 0.0
Mg115 Mg 0.50958 0.0032 0.61277 0.0
O116 O 0.53533 0.01378 0.56182 0.0
Mg117 Mg 0.51485 0.99305 0.49799 0.0
Mg118 Mg 0.56273 0.01108 0.58085 0.0
C119 C 0.52312 0.97634 0.70518 0.0
O120 O 0.53784 0.0342 0.66952 0.0
O121 O 0.43382 0.98419 0.68596 0.0
O122 O 0.57229 0.0336 0.65572 0.0
O123 O 0.47982 0.0402 0.68723 0.0
O124 O 0.45409 0.97945 0.7544 0.0
O125 O 0.50346 0.0379 0.75028 0.0
O126 O 0.48356 0.97344 0.55226 0.0
O127 O 0.44947 0.97381 0.56629 0.0
C128 C 0.46098 0.96524 0.54129 0.0
C129 C 0.43434 0.97573 0.73081 0.0
O130 O 0.52118 0.97864 0.6557 0.0
O131 O 0.54971 0.01547 0.45272 0.0
O132 O 0.51478 0.98503 0.73968 0.0
O133 O 0.52548 0.96374 0.50808 0.0
O134 O 0.58126 0.02683 0.5119 0.0
O135 O 0.55355 0.97292 0.5729 0.0
O136 O 0.49661 0.0273 0.57518 0.0
O137 O 0.5033 0.02195 0.49182 0.0
C138 C 0.49438 0.04947 0.72817 0.0
C139 C 0.56038 0.04182 0.68079 0.0
C140 C 0.52384 0.54856 0.65064 0.0
C141 C 0.46303 0.48729 0.77683 0.0
C142 C 0.49269 0.44146 0.73049 0.0
Mg143 Mg 0.54433 0.53738 0.54366 0.0
Mg144 Mg 0.50966 0.48736 0.46891 0.0
O145 O 0.52476 0.50064 0.53595 0.0
Mg146 Mg 0.50487 0.49371 0.59814 0.0
O147 O 0.48703 0.48891 0.66311 0.0
Mg148 Mg 0.51461 0.50235 0.71864 0.0
Mg149 Mg 0.46086 0.45778 0.67334 0.0
C150 C 0.4834 0.44007 0.53508 0.0
O151 O 0.46902 0.48318 0.55071 0.0
O152 O 0.56756 0.53368 0.4778 0.0
O153 O 0.44186 0.45261 0.59664 0.0
O154 O 0.52091 0.54262 0.48146 0.0
O155 O 0.54284 0.4973 0.4333 0.0
O156 O 0.49436 0.50806 0.43595 0.0
O157 O 0.53849 0.5029 0.65185 0.0
O158 O 0.56676 0.53252 0.60811 0.0
C159 C 0.56062 0.51921 0.64729 0.0
C160 C 0.56358 0.5167 0.44231 0.0
O161 O 0.49157 0.45226 0.58008 0.0
O162 O 0.48625 0.50026 0.77653 0.0
O163 O 0.48676 0.45037 0.49146 0.0
O164 O 0.50727 0.46435 0.74054 0.0
O165 O 0.45005 0.47024 0.74118 0.0
O166 O 0.47376 0.43379 0.69959 0.0
O167 O 0.5183 0.53504 0.60786 0.0
O168 O 0.52228 0.53982 0.69544 0.0
C169 C 0.50351 0.531 0.44655 0.0
C170 C 0.44745 0.46539 0.5562 0.0
H171 H 0.18416 0.45763 0.28555 0.0
H172 H 0.16099 0.47012 0.33891 0.0
H173 H 0.19161 0.53893 0.26688 0.0
H174 H 0.21516 0.52645 0.21246 0.0
H175 H 0.1803 0.51451 0.41025 0.0
H176 H 0.11529 0.50748 0.24906 0.0
H177 H 0.13255 0.49208 0.24243 0.0
H178 H 0.14734 0.52471 0.24087 0.0
C179 C 0.18609 0.47546 0.28082 0.0
C180 C 0.20147 0.49102 0.24453 0.0
C181 C 0.17283 0.48258 0.31154 0.0
C182 C 0.17448 0.50534 0.3066 0.0
C183 C 0.18997 0.52118 0.27088 0.0
H184 H 0.07474 0.53454 0.48765 0.0
H185 H 0.10743 0.54283 0.4298 0.0
C186 C 0.20345 0.51407 0.24005 0.0
C187 C 0.15961 0.51183 0.33931 0.0
H188 H 0.10567 0.51094 0.33562 0.0
C189 C 0.16429 0.51435 0.39393 0.0
C190 C 0.13878 0.51164 0.31782 0.0
C191 C 0.13297 0.50878 0.25935 0.0
C192 C 0.14793 0.5152 0.42774 0.0
C193 C 0.12622 0.51316 0.40634 0.0
C194 C 0.12233 0.51243 0.35177 0.0
C195 C 0.10615 0.5084 0.4398 0.0
C196 C 0.15341 0.5171 0.48621 0.0
C197 C 0.09437 0.48613 0.46349 0.0
C198 C 0.07571 0.48128 0.49609 0.0
C199 C 0.0684 0.49863 0.5058 0.0
C200 C 0.07995 0.52081 0.48114 0.0
C201 C 0.09862 0.5256 0.44811 0.0
H202 H 0.17311 0.52518 0.49633 0.0
H203 H 0.14698 0.5284 0.50685 0.0
H204 H 0.14391 0.49851 0.50084 0.0
H205 H 0.09973 0.47249 0.45693 0.0
H206 H 0.06726 0.46398 0.5142 0.0
H207 H 0.73767 0.17409 0.15997 0.0
H208 H 0.71309 0.13614 0.20374 0.0
H209 H 0.68355 0.17254 0.29583 0.0
H210 H 0.70802 0.2101 0.25378 0.0
H211 H 0.6975 0.14575 0.35444 0.0
H212 H 0.63917 0.09094 0.17677 0.0
H213 H 0.67136 0.10426 0.17346 0.0
H214 H 0.65847 0.12376 0.17846 0.0
C215 C 0.72609 0.17397 0.18993 0.0
C216 C 0.72471 0.19506 0.20321 0.0
C217 C 0.71192 0.15226 0.21451 0.0
C218 C 0.69624 0.15147 0.25249 0.0
C219 C 0.69544 0.17271 0.26655 0.0
H220 H 0.56642 0.04861 0.38149 0.0
H221 H 0.59782 0.07605 0.32579 0.0
C222 C 0.70948 0.1942 0.2423 0.0
C223 C 0.68033 0.12883 0.27834 0.0
H224 H 0.6287 0.07313 0.25749 0.0
C225 C 0.68267 0.12968 0.33325 0.0
C226 C 0.66084 0.10808 0.25049 0.0
C227 C 0.65706 0.10658 0.19156 0.0
C228 C 0.66546 0.11091 0.36137 0.0
C229 C 0.64574 0.09024 0.33364 0.0
C230 C 0.64389 0.08892 0.27856 0.0
C231 C 0.62605 0.07084 0.36159 0.0
C232 C 0.66786 0.1142 0.42058 0.0
C233 C 0.63124 0.05805 0.39859 0.0
C234 C 0.61352 0.04281 0.43099 0.0
C235 C 0.59008 0.03956 0.42607 0.0
C236 C 0.58434 0.05082 0.38619 0.0
C237 C 0.60225 0.06646 0.35436 0.0
H238 H 0.68042 0.13355 0.43499 0.0
H239 H 0.65001 0.10825 0.43669 0.0
H240 H 0.67517 0.10292 0.43636 0.0
H241 H 0.64928 0.0606 0.40382 0.0
H242 H 0.61834 0.03401 0.4608 0.0
H243 H 0.55049 0.68489 0.10922 0.0
H244 H 0.53971 0.65027 0.16292 0.0
H245 H 0.49009 0.66597 0.24217 0.0
H246 H 0.50043 0.7004 0.18791 0.0
H247 H 0.54592 0.65166 0.26837 0.0
H248 H 0.4486 0.59262 0.20545 0.0
H249 H 0.46903 0.61812 0.16956 0.0
H250 H 0.45671 0.62328 0.22761 0.0
C251 C 0.53717 0.68092 0.13784 0.0
C252 C 0.52631 0.69541 0.14423 0.0
C253 C 0.53099 0.66108 0.16842 0.0
C254 C 0.51379 0.65526 0.20595 0.0
C255 C 0.50295 0.66972 0.21256 0.0
H256 H 0.50747 0.5749 0.47442 0.0
H257 H 0.50638 0.60377 0.41539 0.0
C258 C 0.50905 0.68954 0.18181 0.0
C259 C 0.50849 0.63508 0.2404 0.0
H260 H 0.46307 0.58138 0.28078 0.0
C261 C 0.52782 0.63626 0.27087 0.0
C262 C 0.48489 0.61484 0.2432 0.0
C263 C 0.46364 0.61193 0.20935 0.0
C264 C 0.52419 0.61802 0.30469 0.0
C265 C 0.50047 0.59827 0.30908 0.0
C266 C 0.48116 0.59674 0.27786 0.0
C267 C 0.49581 0.57909 0.34578 0.0
C268 C 0.54589 0.61991 0.335 0.0
C269 C 0.48852 0.55508 0.3267 0.0
C270 C 0.48881 0.53834 0.36059 0.0
C271 C 0.49657 0.54556 0.41383 0.0
C272 C 0.50171 0.56892 0.43345 0.0
C273 C 0.50119 0.58547 0.39977 0.0
H274 H 0.56308 0.63252 0.31758 0.0
H275 H 0.54683 0.62714 0.37587 0.0
H276 H 0.54443 0.60168 0.3364 0.0
H277 H 0.48415 0.54978 0.28514 0.0
H278 H 0.48479 0.52049 0.34436 0.0
H279 H 0.84448 0.52256 0.12906 0.0
H280 H 0.88104 0.5351 0.18468 0.0
H281 H 0.88611 0.60455 0.22517 0.0
H282 H 0.84911 0.59206 0.16895 0.0
H283 H 0.92985 0.57985 0.18334 0.0
H284 H 0.88218 0.57045 0.36676 0.0
H285 H 0.86567 0.55625 0.3045 0.0
H286 H 0.88003 0.5888 0.3171 0.0
C287 C 0.85333 0.54056 0.14956 0.0
C288 C 0.84378 0.55625 0.1451 0.0
C289 C 0.87433 0.54774 0.18102 0.0
C290 C 0.88613 0.57066 0.20895 0.0
C291 C 0.8771 0.58673 0.20386 0.0
H292 H 0.98922 0.594 0.46897 0.0
H293 H 0.96671 0.60345 0.40397 0.0
C294 C 0.85603 0.57959 0.17188 0.0
C295 C 0.90693 0.57653 0.24575 0.0
H296 H 0.9205 0.57428 0.37471 0.0
C297 C 0.92812 0.57919 0.22536 0.0
C298 C 0.90449 0.57568 0.30036 0.0
C299 C 0.88189 0.57256 0.32387 0.0
C300 C 0.94661 0.57994 0.25817 0.0
C301 C 0.94343 0.57733 0.3124 0.0
C302 C 0.92284 0.57615 0.33306 0.0
C303 C 0.96004 0.57375 0.34801 0.0
C304 C 0.96911 0.58305 0.23425 0.0
C305 C 0.96403 0.55405 0.33782 0.0
C306 C 0.97707 0.54867 0.3748 0.0
C307 C 0.98589 0.56262 0.42298 0.0
C308 C 0.98242 0.58273 0.43241 0.0
C309 C 0.96966 0.58825 0.39524 0.0
H310 H 0.97262 0.59331 0.19836 0.0
H311 H 0.98525 0.59283 0.26241 0.0
H312 H 0.96655 0.56474 0.22268 0.0
H313 H 0.9562 0.54219 0.30226 0.0
H314 H 0.97935 0.533 0.36658 0.0
H315 H 0.2956 0.78406 0.30071 0.0
H316 H 0.33414 0.81272 0.34796 0.0
H317 H 0.3656 0.83908 0.20155 0.0
H318 H 0.32676 0.81097 0.15385 0.0
H319 H 0.3828 0.82629 0.35034 0.0
H320 H 0.36665 0.89841 0.2727 0.0
H321 H 0.34415 0.86638 0.26449 0.0
H322 H 0.36961 0.87875 0.22446 0.0
C323 C 0.31084 0.7955 0.27835 0.0
C324 C 0.30797 0.79569 0.22364 0.0
C325 C 0.33292 0.81185 0.30547 0.0
C326 C 0.35251 0.82847 0.27831 0.0
C327 C 0.35049 0.82681 0.22328 0.0
H328 H 0.47893 0.94329 0.47593 0.0
H329 H 0.45637 0.91044 0.40695 0.0
C330 C 0.32831 0.81067 0.19611 0.0
C331 C 0.3734 0.84948 0.30814 0.0
H332 H 0.39854 0.911 0.33614 0.0
C333 C 0.3866 0.84491 0.34673 0.0
C334 C 0.37809 0.87371 0.30353 0.0
C335 C 0.36382 0.87972 0.26441 0.0
C336 C 0.40361 0.86377 0.38246 0.0
C337 C 0.40761 0.88777 0.37886 0.0
C338 C 0.39538 0.89254 0.33855 0.0
C339 C 0.42181 0.90753 0.42027 0.0
C340 C 0.41606 0.85767 0.42565 0.0
C341 C 0.40993 0.91701 0.44986 0.0
C342 C 0.42273 0.9358 0.48882 0.0
C343 C 0.44775 0.94557 0.49909 0.0
C344 C 0.45969 0.93612 0.46917 0.0
C345 C 0.44681 0.91727 0.42993 0.0
H346 H 0.40836 0.83761 0.42734 0.0
H347 H 0.43558 0.866 0.41889 0.0
H348 H 0.41458 0.86536 0.46427 0.0
H349 H 0.39063 0.90974 0.44294 0.0
H350 H 0.4129 0.94256 0.51103 0.0
H351 H 0.4309 0.27227 0.25233 0.0
H352 H 0.42745 0.29733 0.32317 0.0
H353 H 0.435 0.25286 0.4372 0.0
H354 H 0.43839 0.22755 0.3667 0.0
H355 H 0.39738 0.28607 0.42147 0.0
H356 H 0.49699 0.3248 0.45741 0.0
H357 H 0.48122 0.30818 0.39614 0.0
H358 H 0.47724 0.29211 0.4544 0.0
C359 C 0.43113 0.26733 0.29231 0.0
C360 C 0.43533 0.24814 0.30385 0.0
C361 C 0.42911 0.28166 0.33276 0.0
C362 C 0.43129 0.27708 0.3853 0.0
C363 C 0.43341 0.25672 0.39683 0.0
H364 H 0.48728 0.40821 0.60004 0.0
H365 H 0.46957 0.3638 0.58092 0.0
C366 C 0.43532 0.24228 0.35639 0.0
C367 C 0.43483 0.29567 0.4272 0.0
H368 H 0.48003 0.34611 0.497 0.0
C369 C 0.41533 0.29892 0.43903 0.0
C370 C 0.4582 0.31215 0.45065 0.0
C371 C 0.47973 0.30936 0.43916 0.0
C372 C 0.4189 0.31918 0.47128 0.0
C373 C 0.44268 0.33696 0.49063 0.0
C374 C 0.4618 0.33256 0.48221 0.0
C375 C 0.44896 0.36209 0.50997 0.0
C376 C 0.39725 0.32172 0.4827 0.0
C377 C 0.44282 0.37574 0.47736 0.0
C378 C 0.45286 0.40082 0.48809 0.0
C379 C 0.46955 0.41302 0.53139 0.0
C380 C 0.47449 0.39925 0.56634 0.0
C381 C 0.4644 0.37392 0.55541 0.0
H382 H 0.38108 0.30348 0.48649 0.0
H383 H 0.40057 0.33341 0.51923 0.0
H384 H 0.39299 0.33 0.44945 0.0
H385 H 0.43155 0.36736 0.44139 0.0
H386 H 0.44845 0.41089 0.46077 0.0
H387 H 0.5676 0.8617 0.02955 0.0
H388 H 0.56808 0.88892 0.96368 0.0
H389 H 0.53832 0.82873 0.84533 0.0
H390 H 0.53704 0.80127 0.91121 0.0
H391 H 0.58982 0.9026 0.87143 0.0
H392 H 0.48974 0.85153 0.83362 0.0
H393 H 0.50473 0.84576 0.88764 0.0
H394 H 0.50381 0.83342 0.82234 0.0
C395 C 0.56122 0.85428 0.98948 0.0
C396 C 0.55195 0.82927 0.97576 0.0
C397 C 0.56155 0.86986 0.95184 0.0
C398 C 0.55277 0.86076 0.89978 0.0
C399 C 0.54456 0.83602 0.88552 0.0
H400 H 0.52382 0.93776 0.65345 0.0
H401 H 0.53508 0.90956 0.69221 0.0
C402 C 0.54393 0.82038 0.92321 0.0
C403 C 0.55149 0.87702 0.86112 0.0
H404 H 0.5117 0.88534 0.78395 0.0
C405 C 0.57276 0.89873 0.85199 0.0
C406 C 0.52922 0.87193 0.83558 0.0
C407 C 0.50554 0.84953 0.84553 0.0
C408 C 0.57226 0.91573 0.81906 0.0
C409 C 0.54992 0.91093 0.79487 0.0
C410 C 0.52884 0.88881 0.80219 0.0
C411 C 0.54729 0.92986 0.76799 0.0
C412 C 0.59553 0.93894 0.81118 0.0
C413 C 0.55086 0.95074 0.79749 0.0
C414 C 0.54423 0.96659 0.77579 0.0
C415 C 0.53398 0.96194 0.72404 0.0
C416 C 0.53179 0.94185 0.69334 0.0
C417 C 0.53815 0.92573 0.71543 0.0
H418 H 0.61154 0.93675 0.81916 0.0
H419 H 0.59568 0.94457 0.77058 0.0
H420 H 0.59724 0.95386 0.83872 0.0
H421 H 0.55751 0.95405 0.83833 0.0
H422 H 0.54625 0.982 0.80029 0.0
H423 H 0.75817 0.565 0.85682 0.0
H424 H 0.72083 0.55964 0.81417 0.0
H425 H 0.69643 0.56754 0.9648 0.0
H426 H 0.73384 0.57318 0.00795 0.0
H427 H 0.67543 0.51949 0.83874 0.0
H428 H 0.6792 0.60913 0.87 0.0
H429 H 0.706 0.60635 0.87449 0.0
H430 H 0.68589 0.59701 0.92661 0.0
C431 C 0.7452 0.56629 0.88086 0.0
C432 C 0.7489 0.56927 0.93582 0.0
C433 C 0.72382 0.56312 0.85642 0.0
C434 C 0.70586 0.56305 0.88641 0.0
C435 C 0.71017 0.56773 0.94097 0.0
H436 H 0.55684 0.49558 0.73796 0.0
H437 H 0.58949 0.50515 0.80517 0.0
C438 C 0.7316 0.57096 0.96552 0.0
C439 C 0.68183 0.55561 0.86078 0.0
H440 H 0.64379 0.57671 0.82621 0.0
C441 C 0.66835 0.53189 0.83632 0.0
C442 C 0.67269 0.57182 0.85826 0.0
C443 C 0.68668 0.59758 0.88339 0.0
C444 C 0.64637 0.52424 0.8074 0.0
C445 C 0.63755 0.54069 0.80351 0.0
C446 C 0.65056 0.56409 0.82976 0.0
C447 C 0.61704 0.53537 0.76602 0.0
C448 C 0.63344 0.49912 0.77893 0.0
C449 C 0.62168 0.54942 0.72257 0.0
C450 C 0.60327 0.54406 0.68452 0.0
C451 C 0.57965 0.52451 0.68901 0.0
C452 C 0.57484 0.51065 0.7332 0.0
C453 C 0.59345 0.51607 0.77153 0.0
H454 H 0.64446 0.49 0.78019 0.0
H455 H 0.61629 0.48743 0.79741 0.0
H456 H 0.62882 0.50032 0.73726 0.0
H457 H 0.63977 0.56431 0.7175 0.0
H458 H 0.60773 0.55527 0.6513 0.0
H459 H 0.22935 0.7564 0.91163 0.0
H460 H 0.19943 0.72459 0.84763 0.0
H461 H 0.16392 0.67902 0.97324 0.0
H462 H 0.19358 0.71045 0.03734 0.0
H463 H 0.18498 0.67129 0.83462 0.0
H464 H 0.11124 0.68859 0.88883 0.0
H465 H 0.14292 0.71087 0.90299 0.0
H466 H 0.12795 0.68556 0.94335 0.0
C467 C 0.21531 0.7395 0.92558 0.0
C468 C 0.21375 0.73601 0.9796 0.0
C469 C 0.19826 0.72142 0.88899 0.0
C470 C 0.17934 0.69975 0.906 0.0
C471 C 0.17824 0.69584 0.95959 0.0
H472 H 0.05768 0.56373 0.81536 0.0
H473 H 0.08939 0.60331 0.8544 0.0
C474 C 0.19529 0.71378 0.9961 0.0
C475 C 0.16039 0.68111 0.86826 0.0
H476 H 0.0994 0.65109 0.83897 0.0
C477 C 0.16631 0.66706 0.83467 0.0
C478 C 0.13617 0.67589 0.86853 0.0
C479 C 0.12912 0.69113 0.90251 0.0
C480 C 0.14825 0.64678 0.80364 0.0
C481 C 0.12382 0.64083 0.80584 0.0
C482 C 0.11814 0.65571 0.83746 0.0
C483 C 0.10368 0.61775 0.78053 0.0
C484 C 0.15527 0.63105 0.77122 0.0
C485 C 0.10086 0.613 0.72586 0.0
C486 C 0.08276 0.59024 0.70331 0.0
C487 C 0.06713 0.57199 0.73513 0.0
C488 C 0.06949 0.57728 0.7897 0.0
C489 C 0.08756 0.59993 0.81211 0.0
H490 H 0.17429 0.63582 0.78083 0.0
H491 H 0.14317 0.61139 0.77732 0.0
H492 H 0.15333 0.63365 0.72903 0.0
H493 H 0.11291 0.62669 0.70077 0.0
H494 H 0.08157 0.58669 0.66124 0.0
H495 H 0.521 0.23078 0.02237 0.0
H496 H 0.52149 0.20335 0.95361 0.0
H497 H 0.44584 0.15254 0.96934 0.0
H498 H 0.4453 0.17992 0.03978 0.0
H499 H 0.47326 0.13068 0.97255 0.0
H500 H 0.49569 0.18739 0.80211 0.0
H501 H 0.51661 0.2033 0.85777 0.0
H502 H 0.48527 0.1947 0.86112 0.0
C503 C 0.50431 0.21394 0.01089 0.0
C504 C 0.4831 0.20748 0.03669 0.0
C505 C 0.5046 0.19836 0.9711 0.0
C506 C 0.48363 0.17609 0.95572 0.0
C507 C 0.46219 0.16978 0.98041 0.0
H508 H 0.47253 0.07549 0.70043 0.0
H509 H 0.47105 0.10748 0.754 0.0
C510 C 0.46188 0.18542 0.0205 0.0
C511 C 0.48496 0.15861 0.9174 0.0
H512 H 0.50339 0.15378 0.79607 0.0
C513 C 0.47957 0.13562 0.93373 0.0
C514 C 0.49306 0.16502 0.86664 0.0
C515 C 0.49774 0.18886 0.84567 0.0
C516 C 0.48273 0.11911 0.90128 0.0
C517 C 0.49211 0.12607 0.85167 0.0
C518 C 0.49674 0.14874 0.83461 0.0
C519 C 0.49604 0.10945 0.8161 0.0
C520 C 0.47573 0.09427 0.92027 0.0
C521 C 0.51164 0.10092 0.83195 0.0
C522 C 0.51246 0.08247 0.80153 0.0
C523 C 0.4978 0.07241 0.75455 0.0
C524 C 0.48386 0.08259 0.73666 0.0
C525 C 0.48296 0.10091 0.76725 0.0
H526 H 0.4632 0.08954 0.95233 0.0
H527 H 0.46691 0.07975 0.88778 0.0
H528 H 0.49224 0.09435 0.93573 0.0
H529 H 0.52244 0.10783 0.86888 0.0
H530 H 0.52371 0.07533 0.81605 0.0
H531 H 0.31385 0.52744 0.04408 0.0
H532 H 0.35125 0.54062 0.99844 0.0
H533 H 0.34897 0.47299 0.0299 0.0
H534 H 0.31236 0.45999 0.07548 0.0
H535 H 0.39561 0.51437 0.04592 0.0
H536 H 0.34994 0.50965 0.85188 0.0
H537 H 0.34956 0.52929 0.90442 0.0
H538 H 0.33295 0.49671 0.90818 0.0
C539 C 0.3215 0.51554 0.0415 0.0
C540 C 0.30999 0.49256 0.06281 0.0
C541 C 0.34279 0.52305 0.0154 0.0
C542 C 0.35274 0.50767 0.0105 0.0
C543 C 0.34165 0.48517 0.03333 0.0
H544 H 0.41612 0.45922 0.80016 0.0
H545 H 0.39349 0.47011 0.85922 0.0
C546 C 0.32056 0.4777 0.05909 0.0
C547 C 0.37371 0.51357 0.97893 0.0
H548 H 0.3875 0.51177 0.85186 0.0
C549 C 0.39422 0.51448 0.00354 0.0
C550 C 0.37169 0.51354 0.92367 0.0
C551 C 0.34986 0.51214 0.89513 0.0
C552 C 0.4119 0.51353 0.97413 0.0
C553 C 0.40906 0.51196 0.9188 0.0
C554 C 0.38952 0.51293 0.89437 0.0
C555 C 0.42386 0.50562 0.88546 0.0
C556 C 0.43246 0.51235 0.00217 0.0
C557 C 0.44865 0.52184 0.8814 0.0
C558 C 0.46181 0.51557 0.84767 0.0
C559 C 0.45028 0.49308 0.81727 0.0
C560 C 0.42559 0.47673 0.82268 0.0
C561 C 0.41257 0.48295 0.85633 0.0
H562 H 0.43054 0.51106 0.04509 0.0
H563 H 0.43346 0.4963 0.98607 0.0
H564 H 0.44982 0.52905 0.99579 0.0
H565 H 0.45764 0.53952 0.90327 0.0
H566 H 0.48075 0.52865 0.8441 0.0
H567 H 0.79072 0.25736 0.89719 0.0
H568 H 0.82008 0.28724 0.84147 0.0
H569 H 0.85985 0.33463 0.97884 0.0
H570 H 0.83113 0.30485 0.0346 0.0
H571 H 0.83041 0.33439 0.83137 0.0
H572 H 0.91349 0.33446 0.90131 0.0
H573 H 0.88367 0.31093 0.916 0.0
H574 H 0.89875 0.33985 0.95425 0.0
C575 C 0.80598 0.27393 0.91558 0.0
C576 C 0.80859 0.27862 0.97042 0.0
C577 C 0.82268 0.29104 0.88366 0.0
C578 C 0.84233 0.31306 0.90599 0.0
C579 C 0.84517 0.31755 0.96072 0.0
H580 H 0.95201 0.45131 0.80846 0.0
H581 H 0.91894 0.41832 0.85118 0.0
C582 C 0.82861 0.30049 0.99259 0.0
C583 C 0.85921 0.33202 0.87236 0.0
H584 H 0.91924 0.36871 0.85389 0.0
C585 C 0.8498 0.34168 0.8358 0.0
C586 C 0.88453 0.34151 0.87806 0.0
C587 C 0.89569 0.33097 0.91414 0.0
C588 C 0.86514 0.36112 0.80618 0.0
C589 C 0.89041 0.3711 0.81344 0.0
C590 C 0.8998 0.36114 0.84901 0.0
C591 C 0.90764 0.39192 0.78454 0.0
C592 C 0.85444 0.37138 0.76828 0.0
C593 C 0.9117 0.38811 0.73241 0.0
C594 C 0.93068 0.40687 0.70785 0.0
C595 C 0.94595 0.42976 0.73516 0.0
C596 C 0.94073 0.43393 0.78628 0.0
C597 C 0.92186 0.41509 0.81087 0.0
H598 H 0.83454 0.36296 0.77034 0.0
H599 H 0.86304 0.3915 0.77653 0.0
H600 H 0.85824 0.36806 0.72768 0.0
H601 H 0.90092 0.37028 0.71159 0.0
H602 H 0.93408 0.40303 0.66839 0.0
H603 H 0.8198 0.53827 0.90957 0.0
H604 H 0.85113 0.53698 0.86033 0.0
H605 H 0.83234 0.46703 0.91833 0.0
H606 H 0.80084 0.46816 0.96844 0.0
H607 H 0.89052 0.53107 0.91675 0.0
H608 H 0.83776 0.46137 0.75183 0.0
H609 H 0.82592 0.47863 0.78485 0.0
H610 H 0.82788 0.45504 0.81735 0.0
C611 C 0.82197 0.52236 0.91136 0.0
C612 C 0.80782 0.50335 0.94329 0.0
C613 C 0.83996 0.52171 0.8832 0.0
C614 C 0.84405 0.50195 0.88578 0.0
C615 C 0.82933 0.48238 0.91563 0.0
H616 H 0.95273 0.4845 0.7187 0.0
H617 H 0.92005 0.47698 0.77538 0.0
C618 C 0.81132 0.48306 0.94416 0.0
C619 C 0.86491 0.50293 0.86016 0.0
H620 H 0.88024 0.481 0.75283 0.0
C621 C 0.88832 0.52 0.88112 0.0
C622 C 0.86192 0.48827 0.81415 0.0
C623 C 0.83706 0.46979 0.79028 0.0
C624 C 0.90889 0.52318 0.85663 0.0
C625 C 0.90595 0.50938 0.80906 0.0
C626 C 0.8825 0.49165 0.78914 0.0
C627 C 0.92683 0.51417 0.77773 0.0
C628 C 0.93357 0.5413 0.88206 0.0
C629 C 0.94157 0.53756 0.76021 0.0
C630 C 0.96046 0.54199 0.72844 0.0
C631 C 0.96491 0.52305 0.71283 0.0
C632 C 0.95018 0.49963 0.73069 0.0
C633 C 0.93132 0.49524 0.76276 0.0
H634 H 0.93292 0.54389 0.9251 0.0
H635 H 0.94693 0.53533 0.87484 0.0
H636 H 0.93999 0.55933 0.86555 0.0
H637 H 0.93811 0.55233 0.77007 0.0
H638 H 0.97124 0.5602 0.71522 0.0
H639 H 0.31369 0.87921 0.09786 0.0
H640 H 0.33293 0.90468 0.02586 0.0
H641 H 0.27038 0.85756 0.92151 0.0
H642 H 0.25103 0.8317 0.99345 0.0
H643 H 0.31183 0.86324 0.88401 0.0
H644 H 0.3256 0.95448 0.94463 0.0
H645 H 0.33619 0.94283 0.9957 0.0
H646 H 0.30447 0.92711 0.97467 0.0
C647 C 0.30371 0.87457 0.05998 0.0
C648 C 0.28084 0.85332 0.05149 0.0
C649 C 0.31471 0.88929 0.0188 0.0
C650 C 0.30304 0.88323 0.96826 0.0
C651 C 0.27968 0.86271 0.96023 0.0
H652 H 0.39037 0.9741 0.71706 0.0
H653 H 0.35425 0.95086 0.76658 0.0
C654 C 0.26861 0.84797 1.00149 0.0
C655 C 0.31659 0.89641 0.9231 0.0
H656 H 0.35352 0.95376 0.88348 0.0
C657 C 0.32045 0.88298 0.88325 0.0
C658 C 0.32769 0.92214 0.92154 0.0
C659 C 0.32306 0.93743 0.96118 0.0
C660 C 0.33647 0.89473 0.84434 0.0
C661 C 0.34912 0.92058 0.84548 0.0
C662 C 0.34395 0.93393 0.88288 0.0
C663 C 0.37009 0.93397 0.81325 0.0
C664 C 0.34054 0.87944 0.80354 0.0
C665 C 0.39085 0.9322 0.82328 0.0
C666 C 0.41135 0.94546 0.79568 0.0
C667 C 0.41165 0.96083 0.7571 0.0
C668 C 0.39067 0.96232 0.7463 0.0
C669 C 0.37009 0.94915 0.77462 0.0
H670 H 0.32487 0.86048 0.79828 0.0
H671 H 0.34373 0.88774 0.76514 0.0
H672 H 0.35675 0.87835 0.81637 0.0
H673 H 0.39136 0.92084 0.85331 0.0
H674 H 0.42709 0.94372 0.80496 0.0
H675 H 0.48436 0.33368 0.13518 0.0
H676 H 0.48816 0.35741 0.05947 0.0
H677 H 0.51372 0.31613 0.97119 0.0
H678 H 0.51079 0.29289 0.04753 0.0
H679 H 0.53703 0.36289 0.9476 0.0
H680 H 0.43879 0.3297 0.93698 0.0
H681 H 0.4531 0.34555 0.99922 0.0
H682 H 0.45253 0.31748 0.97999 0.0
C683 C 0.4912 0.32994 0.09996 0.0
C684 C 0.4971 0.31127 0.09732 0.0
C685 C 0.49311 0.34334 0.05645 0.0
C686 C 0.50042 0.33801 0.00893 0.0
C687 C 0.50776 0.32041 0.00716 0.0
H688 H 0.46537 0.39102 0.72527 0.0
H689 H 0.46867 0.3636 0.78584 0.0
C690 C 0.50618 0.3072 0.05099 0.0
C691 C 0.49965 0.35026 0.96088 0.0
H692 H 0.4627 0.36325 0.88561 0.0
C693 C 0.52072 0.36279 0.93377 0.0
C694 C 0.4782 0.34955 0.9416 0.0
C695 C 0.45432 0.33461 0.96561 0.0
C696 C 0.5212 0.37553 0.88957 0.0
C697 C 0.50022 0.37637 0.8728 0.0
C698 C 0.4789 0.36293 0.89855 0.0
C699 C 0.50026 0.39225 0.83117 0.0
C700 C 0.54417 0.38778 0.8612 0.0
C701 C 0.51714 0.41743 0.83556 0.0
C702 C 0.5155 0.43303 0.80062 0.0
C703 C 0.49658 0.42399 0.76094 0.0
C704 C 0.48016 0.39864 0.75528 0.0
C705 C 0.48199 0.38294 0.79006 0.0
H706 H 0.5545 0.37801 0.86528 0.0
H707 H 0.54039 0.38856 0.81881 0.0
H708 H 0.55589 0.40674 0.87881 0.0
H709 H 0.53099 0.4253 0.86758 0.0
H710 H 0.52847 0.45243 0.80652 0.0
H711 H 0.1704 0.43436 0.05705 0.0
H712 H 0.13694 0.42371 0.99268 0.0
H713 H 0.18104 0.42489 0.86796 0.0
H714 H 0.21497 0.43644 0.93223 0.0
H715 H 0.16299 0.45291 0.84895 0.0
H716 H 0.08776 0.36527 0.90401 0.0
H717 H 0.09973 0.387 0.9598 0.0
H718 H 0.11857 0.37686 0.92957 0.0
C719 C 0.17282 0.43173 0.01607 0.0
C720 C 0.19543 0.43642 0.99977 0.0
C721 C 0.15354 0.42543 0.97919 0.0
C722 C 0.15628 0.42317 0.92532 0.0
C723 C 0.17843 0.42644 0.90926 0.0
H724 H 0.0604 0.42928 0.67356 0.0
H725 H 0.08772 0.41714 0.71563 0.0
C726 C 0.19782 0.43303 0.94608 0.0
C727 C 0.13736 0.4209 0.88597 0.0
H728 H 0.07618 0.39117 0.85716 0.0
C729 C 0.14409 0.43898 0.84979 0.0
C730 C 0.11265 0.40273 0.88686 0.0
C731 C 0.10433 0.38174 0.92183 0.0
C732 C 0.12672 0.44039 0.81718 0.0
C733 C 0.10194 0.4232 0.82063 0.0
C734 C 0.09522 0.40435 0.8547 0.0
C735 C 0.0829 0.42675 0.79468 0.0
C736 C 0.13483 0.46118 0.78164 0.0
C737 C 0.07065 0.43539 0.82533 0.0
C738 C 0.0553 0.44245 0.80159 0.0
C739 C 0.05167 0.44081 0.74662 0.0
C740 C 0.06281 0.43073 0.71597 0.0
C741 C 0.07846 0.42387 0.73988 0.0
H742 H 0.15463 0.47423 0.78698 0.0
H743 H 0.13034 0.45371 0.74013 0.0
H744 H 0.12512 0.47137 0.78918 0.0
H745 H 0.07385 0.43774 0.86765 0.0
H746 H 0.0468 0.4499 0.82638 0.0
H747 H 0.68661 0.2056 0.04925 0.0
H748 H 0.65515 0.17235 0.99176 0.0
H749 H 0.67692 0.21865 0.86211 0.0
H750 H 0.70936 0.25191 0.91912 0.0
H751 H 0.61661 0.16276 0.92978 0.0
H752 H 0.68759 0.16436 0.80855 0.0
H753 H 0.69478 0.18267 0.86954 0.0
H754 H 0.68675 0.19233 0.81059 0.0
C755 C 0.68455 0.20896 0.00871 0.0
C756 C 0.70091 0.23133 0.98856 0.0
C757 C 0.66646 0.18985 0.97583 0.0
C758 C 0.66414 0.19271 0.92221 0.0
C759 C 0.6789 0.21576 0.903 0.0
H760 H 0.54891 0.07641 0.71162 0.0
H761 H 0.5727 0.11277 0.77101 0.0
C762 C 0.69729 0.23485 0.93577 0.0
C763 C 0.64769 0.17098 0.88631 0.0
H764 H 0.64721 0.13554 0.7812 0.0
C765 C 0.62326 0.15681 0.89717 0.0
C766 C 0.65648 0.16292 0.84443 0.0
C767 C 0.68286 0.17619 0.83278 0.0
C768 C 0.60744 0.13479 0.86758 0.0
C769 C 0.61614 0.12707 0.82494 0.0
C770 C 0.6405 0.14141 0.81382 0.0
C771 C 0.60063 0.10407 0.79155 0.0
C772 C 0.58185 0.1197 0.8836 0.0
C773 C 0.60851 0.08713 0.78225 0.0
C774 C 0.59518 0.06655 0.74723 0.0
C775 C 0.57353 0.06231 0.72131 0.0
C776 C 0.56531 0.0789 0.73171 0.0
C777 C 0.57887 0.09971 0.76593 0.0
H778 H 0.58044 0.12384 0.92556 0.0
H779 H 0.56981 0.12415 0.8599 0.0
H780 H 0.57513 0.09979 0.87712 0.0
H781 H 0.62525 0.09006 0.80147 0.0
H782 H 0.60196 0.0541 0.74005 0.0
H783 H 0.58626 0.75025 0.90748 0.0
H784 H 0.58633 0.72405 0.83416 0.0
H785 H 0.50983 0.67517 0.84392 0.0
H786 H 0.50955 0.70115 0.91717 0.0
H787 H 0.5721 0.67386 0.84067 0.0
H788 H 0.51686 0.68584 0.68516 0.0
H789 H 0.53132 0.70736 0.74168 0.0
H790 H 0.50342 0.67925 0.74717 0.0
C791 C 0.56939 0.73405 0.8937 0.0
C792 C 0.54789 0.72777 0.91826 0.0
C793 C 0.56947 0.71916 0.85173 0.0
C794 C 0.54802 0.69791 0.83307 0.0
C795 C 0.52649 0.69177 0.85698 0.0
H796 H 0.49135 0.56268 0.66719 0.0
H797 H 0.50064 0.60345 0.70041 0.0
C798 C 0.52641 0.70654 0.89917 0.0
C799 C 0.5484 0.68089 0.79189 0.0
H800 H 0.5215 0.65056 0.67323 0.0
C801 C 0.56146 0.66907 0.80352 0.0
C802 C 0.5345 0.67477 0.74358 0.0
C803 C 0.52089 0.68762 0.7283 0.0
C804 C 0.55966 0.65002 0.76981 0.0
C805 C 0.54493 0.64313 0.72227 0.0
C806 C 0.53289 0.65591 0.70942 0.0
C807 C 0.53903 0.62053 0.68981 0.0
C808 C 0.57219 0.63636 0.78738 0.0
C809 C 0.55724 0.61688 0.6695 0.0
C810 C 0.5519 0.59343 0.65066 0.0
C811 C 0.52821 0.57364 0.65077 0.0
C812 C 0.50967 0.57784 0.66592 0.0
C813 C 0.51501 0.60111 0.68516 0.0
H814 H 0.57886 0.64096 0.82938 0.0
H815 H 0.55977 0.61627 0.78153 0.0
H816 H 0.58801 0.64126 0.76382 0.0
H817 H 0.57582 0.63174 0.67162 0.0
H818 H 0.56651 0.59043 0.63995 0.0
H819 H 0.47485 0.16042 0.21579 0.0
H820 H 0.47664 0.13551 0.2839 0.0
H821 H 0.50774 0.19826 0.3957 0.0
H822 H 0.50601 0.22366 0.32696 0.0
H823 H 0.52929 0.16629 0.39911 0.0
H824 H 0.42953 0.11483 0.40416 0.0
H825 H 0.43943 0.11659 0.33891 0.0
H826 H 0.44561 0.14414 0.37619 0.0
C827 C 0.48231 0.1691 0.25468 0.0
C828 C 0.49009 0.194 0.26605 0.0
C829 C 0.4832 0.15476 0.29367 0.0
C830 C 0.49175 0.16488 0.34511 0.0
C831 C 0.50081 0.19005 0.35628 0.0
H832 H 0.50121 0.07167 0.58562 0.0
H833 H 0.49909 0.10662 0.5523 0.0
C834 C 0.49995 0.20455 0.31697 0.0
C835 C 0.49056 0.14861 0.3865 0.0
H836 H 0.45071 0.09504 0.43753 0.0
C837 C 0.51214 0.15108 0.40878 0.0
C838 C 0.46813 0.12885 0.39924 0.0
C839 C 0.44434 0.12603 0.37879 0.0
C840 C 0.51187 0.13318 0.44019 0.0
C841 C 0.48946 0.1125 0.44966 0.0
C842 C 0.46787 0.1109 0.43017 0.0
C843 C 0.48823 0.09075 0.47244 0.0
C844 C 0.53553 0.13556 0.46008 0.0
C845 C 0.48198 0.07001 0.439 0.0
C846 C 0.48325 0.05024 0.4577 0.0
C847 C 0.49056 0.05064 0.51045 0.0
C848 C 0.4954 0.0708 0.54483 0.0
C849 C 0.49439 0.09082 0.52581 0.0
H850 H 0.55143 0.15214 0.44704 0.0
H851 H 0.53667 0.13654 0.5036 0.0
H852 H 0.53644 0.11916 0.44612 0.0
H853 H 0.47707 0.06955 0.39776 0.0
H854 H 0.4793 0.03494 0.43031 0.0
H855 H 0.2798 0.47098 0.29079 0.0
H856 H 0.31084 0.47077 0.34876 0.0
H857 H 0.29891 0.40427 0.26644 0.0
H858 H 0.26794 0.40455 0.20719 0.0
H859 H 0.31035 0.43758 0.41536 0.0
H860 H 0.37144 0.45128 0.2552 0.0
H861 H 0.34517 0.45477 0.24702 0.0
H862 H 0.34174 0.42474 0.24521 0.0
C863 C 0.28355 0.45613 0.28518 0.0
C864 C 0.27154 0.43791 0.24393 0.0
C865 C 0.30133 0.45605 0.31843 0.0
C866 C 0.30756 0.43781 0.31121 0.0
C867 C 0.29475 0.41883 0.27191 0.0
H868 H 0.40331 0.42374 0.54188 0.0
H869 H 0.36959 0.41547 0.48017 0.0
C870 C 0.27688 0.41888 0.23846 0.0
C871 C 0.32793 0.43933 0.34425 0.0
H872 H 0.38506 0.44795 0.33995 0.0
C873 C 0.32663 0.43967 0.39889 0.0
C874 C 0.34931 0.44251 0.32264 0.0
C875 C 0.35222 0.44354 0.26436 0.0
C876 C 0.34614 0.44324 0.43259 0.0
C877 C 0.36738 0.44603 0.41099 0.0
C878 C 0.36868 0.4456 0.35633 0.0
C879 C 0.38864 0.45009 0.44479 0.0
C880 C 0.34412 0.44483 0.49108 0.0
C881 C 0.41097 0.47181 0.44362 0.0
C882 C 0.43046 0.47654 0.47862 0.0
C883 C 0.42787 0.45962 0.51544 0.0
C884 C 0.4058 0.43739 0.51472 0.0
C885 C 0.38645 0.43263 0.47956 0.0
H886 H 0.3295 0.44868 0.50095 0.0
H887 H 0.33981 0.42709 0.50677 0.0
H888 H 0.36142 0.45936 0.51121 0.0
H889 H 0.41309 0.48546 0.41677 0.0
H890 H 0.44722 0.49379 0.478 0.0
H891 H 0.78974 0.28998 0.26825 0.0
H892 H 0.81815 0.31414 0.34293 0.0
H893 H 0.8526 0.37624 0.24912 0.0
H894 H 0.82448 0.35222 0.17408 0.0
H895 H 0.87062 0.33614 0.33582 0.0
H896 H 0.84315 0.40408 0.39292 0.0
H897 H 0.82279 0.37515 0.357 0.0
H898 H 0.84527 0.40012 0.32364 0.0
C899 C 0.80301 0.30895 0.26377 0.0
C900 C 0.80489 0.31917 0.2151 0.0
C901 C 0.81926 0.32267 0.30648 0.0
C902 C 0.83736 0.34697 0.30157 0.0
C903 C 0.83856 0.35759 0.25386 0.0
H904 H 0.97789 0.44859 0.41706 0.0
H905 H 0.94076 0.41464 0.37406 0.0
C906 C 0.82251 0.34381 0.21097 0.0
C907 C 0.85645 0.36061 0.34429 0.0
H908 H 0.88289 0.41341 0.42371 0.0
C909 C 0.87307 0.35279 0.35582 0.0
C910 C 0.85948 0.38219 0.37053 0.0
C911 C 0.84162 0.39085 0.36086 0.0
C912 C 0.89349 0.36683 0.39065 0.0
C913 C 0.89729 0.38917 0.41444 0.0
C914 C 0.87991 0.39625 0.40534 0.0
C915 C 0.9205 0.4069 0.4434 0.0
C916 C 0.91133 0.35817 0.40048 0.0
C917 C 0.92153 0.41341 0.49702 0.0
C918 C 0.94293 0.43267 0.52201 0.0
C919 C 0.96333 0.446 0.49324 0.0
C920 C 0.96246 0.43867 0.44017 0.0
C921 C 0.94128 0.41925 0.41558 0.0
H922 H 0.9031 0.33823 0.38998 0.0
H923 H 0.92694 0.36809 0.37615 0.0
H924 H 0.91831 0.36208 0.44228 0.0
H925 H 0.90559 0.40413 0.519 0.0
H926 H 0.94304 0.43805 0.56285 0.0
H927 H 0.5129 0.804 0.19072 0.0
H928 H 0.51328 0.82898 0.26701 0.0
H929 H 0.57901 0.83384 0.33132 0.0
H930 H 0.57886 0.80891 0.25519 0.0
H931 H 0.51455 0.81983 0.37892 0.0
H932 H 0.59449 0.90627 0.32648 0.0
H933 H 0.57727 0.88056 0.27917 0.0
H934 H 0.59772 0.87958 0.32778 0.0
C935 C 0.52746 0.81037 0.22104 0.0
C936 C 0.54592 0.80453 0.21665 0.0
C937 C 0.52759 0.82458 0.2647 0.0
C938 C 0.54626 0.8334 0.30459 0.0
C939 C 0.56458 0.82743 0.30069 0.0
H940 H 0.57406 0.94608 0.55371 0.0
H941 H 0.57643 0.91248 0.50781 0.0
C942 C 0.56441 0.81313 0.25716 0.0
C943 C 0.54663 0.84914 0.3498 0.0
H944 H 0.57603 0.90817 0.40268 0.0
C945 C 0.5281 0.83911 0.38447 0.0
C946 C 0.56449 0.87419 0.3573 0.0
C947 C 0.58459 0.88597 0.32067 0.0
C948 C 0.52661 0.85361 0.42577 0.0
C949 C 0.5438 0.87896 0.43176 0.0
C950 C 0.5629 0.88874 0.39831 0.0
C951 C 0.54077 0.89623 0.46781 0.0
C952 C 0.50653 0.84162 0.46231 0.0
C953 C 0.5197 0.89783 0.462 0.0
C954 C 0.51827 0.91682 0.48828 0.0
C955 C 0.538 0.93489 0.5206 0.0
C956 C 0.5585 0.93238 0.52938 0.0
C957 C 0.55993 0.91328 0.50287 0.0
H958 H 0.50119 0.82211 0.46567 0.0
H959 H 0.5119 0.85117 0.50212 0.0
H960 H 0.49039 0.84208 0.44629 0.0
H961 H 0.50487 0.88532 0.43447 0.0
H962 H 0.50218 0.91817 0.48068 0.0
H963 H 0.71071 0.52153 0.10183 0.0
H964 H 0.67918 0.52167 0.15257 0.0
H965 H 0.71169 0.51126 0.29297 0.0
H966 H 0.74416 0.51265 0.24275 0.0
H967 H 0.6454 0.49231 0.20607 0.0
H968 H 0.70908 0.56969 0.34421 0.0
H969 H 0.71893 0.56018 0.28735 0.0
H970 H 0.71464 0.54463 0.34694 0.0
C971 C 0.71097 0.51893 0.1434 0.0
C972 C 0.72999 0.5172 0.1684 0.0
C973 C 0.69298 0.51916 0.17251 0.0
C974 C 0.69341 0.51729 0.22708 0.0
C975 C 0.71145 0.51378 0.25139 0.0
H976 H 0.56932 0.47915 0.40651 0.0
H977 H 0.60114 0.48063 0.35483 0.0
C978 C 0.7298 0.51416 0.22252 0.0
C979 C 0.67501 0.51909 0.25823 0.0
H980 H 0.6681 0.54731 0.36791 0.0
C981 C 0.65045 0.5045 0.24122 0.0
C982 C 0.68145 0.5355 0.30338 0.0
C983 C 0.70747 0.55358 0.32116 0.0
C984 C 0.63222 0.50534 0.26863 0.0
C985 C 0.63856 0.52034 0.31599 0.0
C986 C 0.66314 0.53548 0.33221 0.0
C987 C 0.61992 0.51994 0.34989 0.0
C988 C 0.60641 0.49047 0.24567 0.0
C989 C 0.62059 0.54172 0.36744 0.0
C990 C 0.60265 0.54098 0.39866 0.0
C991 C 0.58363 0.51841 0.41216 0.0
C992 C 0.58344 0.49679 0.39574 0.0
C993 C 0.60155 0.49759 0.36576 0.0
H994 H 0.60569 0.48771 0.20229 0.0
H995 H 0.59774 0.4721 0.26144 0.0
H996 H 0.59572 0.49939 0.25543 0.0
H997 H 0.63475 0.55925 0.35631 0.0
H998 H 0.6033 0.55792 0.411 0.0
H999 H 0.21759 0.77034 0.29358 0.0
H1000 H 0.1987 0.74853 0.37096 0.0
H1001 H 0.14018 0.69133 0.27088 0.0
H1002 H 0.15851 0.7131 0.19395 0.0
H1003 H 0.12403 0.70308 0.35842 0.0
H1004 H 0.2004 0.68782 0.41242 0.0
H1005 H 0.20811 0.71922 0.40905 0.0
H1006 H 0.19759 0.69908 0.35042 0.0
C1007 C 0.20052 0.75329 0.28815 0.0
C1008 C 0.18967 0.74341 0.23743 0.0
C1009 C 0.18987 0.74072 0.33241 0.0
C1010 C 0.16826 0.71801 0.32673 0.0
C1011 C 0.15691 0.70873 0.27634 0.0
H1012 H 0.09973 0.58825 0.48206 0.0
H1013 H 0.12771 0.62441 0.43888 0.0
C1014 C 0.16746 0.72124 0.23227 0.0
C1015 C 0.15752 0.70326 0.37243 0.0
H1016 H 0.16673 0.67005 0.46339 0.0
C1017 C 0.13347 0.69613 0.38194 0.0
C1018 C 0.1698 0.69401 0.40275 0.0
C1019 C 0.19533 0.7002 0.3931 0.0
C1020 C 0.12103 0.67931 0.41932 0.0
C1021 C 0.13318 0.66975 0.44915 0.0
C1022 C 0.15753 0.67758 0.44101 0.0
C1023 C 0.11996 0.64927 0.48348 0.0
C1024 C 0.09455 0.67081 0.42413 0.0
C1025 C 0.10737 0.6514 0.52542 0.0
C1026 C 0.09114 0.63059 0.55028 0.0
C1027 C 0.08733 0.60732 0.53366 0.0
C1028 C 0.10192 0.60578 0.49549 0.0
C1029 C 0.118 0.62651 0.47065 0.0
H1030 H 0.08684 0.67632 0.39127 0.0
H1031 H 0.08387 0.65058 0.42499 0.0
H1032 H 0.09239 0.67902 0.46127 0.0
H1033 H 0.10909 0.66892 0.53703 0.0
H1034 H 0.08037 0.63251 0.57977 0.0
loop_
_geom_bond_atom_site_label_1
_geom_bond_atom_site_label_2
_geom_bond_distance
_geom_bond_site_symmetry_2
_ccdc_geom_bond_type
Mg0 O7 2.141 . S
Mg0 O8 2.048 . S
Mg0 O9 2.048 . S
Mg0 O12 2.141 . S
C1 O2 1.313 . S
C1 O8 1.195 . S
O2 C1 1.313 . S
C3 O4 1.245 . S
C3 O12 1.289 . S
O4 C3 1.245 . S
C5 O6 1.245 . S
C5 O7 1.289 . S
O6 C5 1.245 . S
O7 Mg0 2.141 . S
O7 C5 1.289 . S
O8 Mg0 2.048 . S
O8 C1 1.195 . S
O9 Mg0 2.048 . S
O9 C10 1.195 . S
C10 O9 1.195 . S
C10 O11 1.313 . S
O11 C10 1.313 . S
O12 Mg0 2.141 . S
O12 C3 1.289 . S
Mg13 O20 2.141 . S
Mg13 O21 2.048 . S
Mg13 O22 2.048 . S
Mg13 O25 2.141 . S
C14 O15 1.313 . S
C14 O21 1.195 . S
O15 C14 1.313 . S
C16 O17 1.245 . S
C16 O25 1.289 . S
O17 C16 1.245 . S
C18 O19 1.245 . S
C18 O20 1.289 . S
O19 C18 1.245 . S
O20 Mg13 2.141 . S
O20 C18 1.289 . S
O21 Mg13 2.048 . S
O21 C14 1.195 . S
O22 Mg13 2.048 . S
O22 C23 1.195 . S
C23 O22 1.195 . S
C23 O24 1.313 . S
O24 C23 1.313 . S
O25 Mg13 2.141 . S
O25 C16 1.289 . S
Mg26 O33 2.141 1_554 S
Mg26 O34 2.048 . S
Mg26 O35 2.048 . S
Mg26 O38 2.141 1_554 S
C27 O28 1.313 . S
C27 O34 1.195 . S
O28 C27 1.313 . S
C29 O30 1.245 . S
C29 O38 1.289 . S
O30 C29 1.245 . S
C31 O32 1.245 . S
C31 O33 1.289 . S
O32 C31 1.245 . S
O33 Mg26 2.141 1_556 S
O33 C31 1.289 . S
O34 Mg26 2.048 . S
O34 C27 1.195 . S
O35 Mg26 2.048 . S
O35 C36 1.195 . S
C36 O35 1.195 . S
C36 O37 1.313 . S
O37 C36 1.313 . S
O38 Mg26 2.141 1_556 S
O38 C29 1.289 . S
Mg39 O46 2.141 . S
Mg39 O47 2.048 1_554 S
Mg39 O48 2.048 1_554 S
Mg39 O51 2.141 . S
C40 O41 1.313 . S
C40 O47 1.195 . S
O41 C40 1.313 . S
C42 O43 1.245 . S
C42 O51 1.289 . S
O43 C42 1.245 . S
C44 O45 1.245 . S
C44 O46 1.289 . S
O45 C44 1.245 . S
O46 Mg39 2.141 . S
O46 C44 1.289 . S
O47 Mg39 2.048 1_556 S
O47 C40 1.195 . S
O48 Mg39 2.048 1_556 S
O48 C49 1.195 . S
C49 O48 1.195 . S
C49 O50 1.313 . S
O50 C49 1.313 . S
O51 Mg39 2.141 . S
O51 C42 1.289 . S
Mg52 O59 2.141 . S
Mg52 O60 2.048 . S
Mg52 O61 2.048 . S
Mg52 O64 2.141 . S
C53 O54 1.313 . S
C53 O60 1.195 . S
O54 C53 1.313 . S
C55 O56 1.245 . S
C55 O64 1.289 . S
O56 C55 1.245 . S
C57 O58 1.245 . S
C57 O59 1.289 . S
O58 C57 1.245 . S
O59 Mg52 2.141 . S
O59 C57 1.289 . S
O60 Mg52 2.048 . S
O60 C53 1.195 . S
O61 Mg52 2.048 . S
O61 C62 1.195 . S
C62 O61 1.195 . S
C62 O63 1.313 . S
O63 C62 1.313 . S
O64 Mg52 2.141 . S
O64 C55 1.289 . S
Mg65 O72 2.141 . S
Mg65 O73 2.048 . S
Mg65 O74 2.048 . S
Mg65 O77 2.141 . S
C66 O67 1.313 . S
C66 O73 1.195 . S
O67 C66 1.313 . S
C68 O69 1.245 . S
C68 O77 1.289 . S
O69 C68 1.245 . S
C70 O71 1.245 . S
C70 O72 1.289 . S
O71 C70 1.245 . S
O72 Mg65 2.141 . S
O72 C70 1.289 . S
O73 Mg65 2.048 . S
O73 C66 1.195 . S
O74 Mg65 2.048 . S
O74 C75 1.195 . S
C75 O74 1.195 . S
C75 O76 1.313 . S
O76 C75 1.313 . S
O77 Mg65 2.141 . S
O77 C68 1.289 . S
C78 O105 1.312 . S
C78 O106 1.208 . S
C79 O100 1.331 . S
C79 O103 1.244 . S
C80 O102 1.264 . S
C80 O104 1.273 . S
Mg81 O83 1.936 1_455 S
Mg81 O90 2.081 1_455 S
Mg81 O92 2.023 . S
Mg81 O96 2.031 1_455 S
Mg81 O105 2.291 . S
Mg82 O83 1.946 . S
Mg82 O93 1.962 . S
Mg82 O94 1.928 1_655 S
Mg82 O101 2.003 . S
O83 Mg81 1.936 1_655 S
O83 Mg82 1.946 . S
O83 Mg84 1.915 1_655 S
Mg84 O83 1.915 1_455 S
Mg84 O85 1.915 . S
Mg84 O89 2.013 . S
Mg84 O95 2.114 1_455 S
Mg84 O99 2.013 1_455 S
Mg84 O105 2.114 . S
O85 Mg84 1.915 . S
O85 Mg86 1.936 . S
O85 Mg87 1.963 . S
Mg86 O85 1.936 . S
Mg86 O95 2.291 1_455 S
Mg86 O100 2.081 . S
Mg86 O102 2.023 1_455 S
Mg86 O106 2.031 . S
Mg87 O85 1.963 . S
Mg87 O91 1.986 . S
Mg87 O103 1.942 . S
Mg87 O104 1.955 1_455 S
C88 O99 1.191 . S
C88 O101 1.307 . S
O89 Mg84 2.013 . S
O89 C108 1.191 . S
O90 Mg81 2.081 1_655 S
O90 C98 1.331 . S
O91 Mg87 1.986 . S
O91 C108 1.307 . S
O92 Mg81 2.023 . S
O92 C107 1.264 . S
O93 Mg82 1.962 . S
O93 C98 1.244 . S
O94 Mg82 1.928 1_455 S
O94 C107 1.273 . S
O95 Mg84 2.114 1_655 S
O95 Mg86 2.291 1_655 S
O95 C97 1.312 . S
O96 Mg81 2.031 1_655 S
O96 C97 1.208 . S
C97 O95 1.312 . S
C97 O96 1.208 . S
C98 O90 1.331 . S
C98 O93 1.244 . S
O99 Mg84 2.013 1_655 S
O99 C88 1.191 . S
O100 C79 1.331 . S
O100 Mg86 2.081 . S
O101 Mg82 2.003 . S
O101 C88 1.307 . S
O102 C80 1.264 . S
O102 Mg86 2.023 1_655 S
O103 C79 1.244 . S
O103 Mg87 1.942 . S
O104 C80 1.273 . S
O104 Mg87 1.955 1_655 S
O105 C78 1.312 . S
O105 Mg81 2.291 . S
O105 Mg84 2.114 . S
O106 C78 1.208 . S
O106 Mg86 2.031 . S
C107 O92 1.264 . S
C107 O94 1.273 . S
C108 O89 1.191 . S
C108 O91 1.307 . S
C109 O136 1.312 . S
C109 O137 1.208 . S
C110 O131 1.331 . S
C110 O134 1.244 . S
C111 O133 1.264 . S
C111 O135 1.273 . S
Mg112 O114 1.936 1_545 S
Mg112 O121 2.081 1_545 S
Mg112 O123 2.023 . S
Mg112 O127 2.031 1_545 S
Mg112 O136 2.291 . S
Mg113 O114 1.963 . S
Mg113 O124 1.942 . S
Mg113 O125 1.955 1_565 S
Mg113 O132 1.986 . S
O114 Mg112 1.936 1_565 S
O114 Mg113 1.963 . S
O114 Mg115 1.915 1_565 S
Mg115 O114 1.915 1_545 S
Mg115 O116 1.915 . S
Mg115 O120 2.013 . S
Mg115 O126 2.114 1_545 S
Mg115 O130 2.013 1_545 S
Mg115 O136 2.114 . S
O116 Mg115 1.915 . S
O116 Mg117 1.936 . S
O116 Mg118 1.963 . S
Mg117 O116 1.936 . S
Mg117 O126 2.291 1_545 S
Mg117 O131 2.081 . S
Mg117 O133 2.023 1_545 S
Mg117 O137 2.031 . S
Mg118 O116 1.963 . S
Mg118 O122 1.986 . S
Mg118 O134 1.942 . S
Mg118 O135 1.955 1_545 S
C119 O130 1.191 . S
C119 O132 1.307 . S
O120 Mg115 2.013 . S
O120 C139 1.191 . S
O121 Mg112 2.081 1_565 S
O121 C129 1.331 . S
O122 Mg118 1.986 . S
O122 C139 1.307 . S
O123 Mg112 2.023 . S
O123 C138 1.264 . S
O124 Mg113 1.942 . S
O124 C129 1.244 . S
O125 Mg113 1.955 1_545 S
O125 C138 1.273 . S
O126 Mg115 2.114 1_565 S
O126 Mg117 2.291 1_565 S
O126 C128 1.312 . S
O127 Mg112 2.031 1_565 S
O127 C128 1.208 . S
C128 O126 1.312 . S
C128 O127 1.208 . S
C129 O121 1.331 . S
C129 O124 1.244 . S
O130 Mg115 2.013 1_565 S
O130 C119 1.191 . S
O131 C110 1.331 . S
O131 Mg117 2.081 . S
O132 Mg113 1.986 . S
O132 C119 1.307 . S
O133 C111 1.264 . S
O133 Mg117 2.023 1_565 S
O134 C110 1.244 . S
O134 Mg118 1.942 . S
O135 C111 1.273 . S
O135 Mg118 1.955 1_565 S
O136 C109 1.312 . S
O136 Mg112 2.291 . S
O136 Mg115 2.114 . S
O137 C109 1.208 . S
O137 Mg117 2.031 . S
C138 O123 1.264 . S
C138 O125 1.273 . S
C139 O120 1.191 . S
C139 O122 1.307 . S
C140 O167 1.312 . S
C140 O168 1.208 . S
C141 O162 1.331 . S
C141 O165 1.244 . S
C142 O164 1.264 . S
C142 O166 1.273 . S
Mg143 O145 1.936 . S
Mg143 O152 2.081 . S
Mg143 O154 2.023 . S
Mg143 O158 2.031 . S
Mg143 O167 2.291 . S
Mg144 O145 1.963 . S
Mg144 O155 1.942 . S
Mg144 O156 1.955 . S
Mg144 O163 1.986 . S
O145 Mg143 1.936 . S
O145 Mg144 1.963 . S
O145 Mg146 1.915 . S
Mg146 O145 1.915 . S
Mg146 O147 1.915 . S
Mg146 O151 2.013 . S
Mg146 O157 2.114 . S
Mg146 O161 2.013 . S
Mg146 O167 2.114 . S
O147 Mg146 1.915 . S
O147 Mg148 1.936 . S
O147 Mg149 1.963 . S
Mg148 O147 1.936 . S
Mg148 O157 2.291 . S
Mg148 O162 2.081 . S
Mg148 O164 2.023 . S
Mg148 O168 2.031 . S
Mg149 O147 1.963 . S
Mg149 O153 1.986 . S
Mg149 O165 1.942 . S
Mg149 O166 1.955 . S
C150 O161 1.191 . S
C150 O163 1.307 . S
O151 Mg146 2.013 . S
O151 C170 1.191 . S
O152 Mg143 2.081 . S
O152 C160 1.331 . S
O153 Mg149 1.986 . S
O153 C170 1.307 . S
O154 Mg143 2.023 . S
O154 C169 1.264 . S
O155 Mg144 1.942 . S
O155 C160 1.244 . S
O156 Mg144 1.955 . S
O156 C169 1.273 . S
O157 Mg146 2.114 . S
O157 Mg148 2.291 . S
O157 C159 1.312 . S
O158 Mg143 2.031 . S
O158 C159 1.208 . S
C159 O157 1.312 . S
C159 O158 1.208 . S
C160 O152 1.331 . S
C160 O155 1.244 . S
O161 Mg146 2.013 . S
O161 C150 1.191 . S
O162 C141 1.331 . S
O162 Mg148 2.081 . S
O163 Mg144 1.986 . S
O163 C150 1.307 . S
O164 C142 1.264 . S
O164 Mg148 2.023 . S
O165 C141 1.244 . S
O165 Mg149 1.942 . S
O166 C142 1.273 . S
O166 Mg149 1.955 . S
O167 C140 1.312 . S
O167 Mg143 2.291 . S
O167 Mg146 2.114 . S
O168 C140 1.208 . S
O168 Mg148 2.031 . S
C169 O154 1.264 . S
C169 O156 1.273 . S
C170 O151 1.191 . S
C170 O153 1.307 . S
H171 C179 0.929 . S
H172 C181 0.930 . S
H173 C183 0.930 . S
H174 C186 0.929 . S
H175 C189 0.930 . S
H176 C191 0.960 . S
H177 C191 0.960 . S
H178 C191 0.960 . S
C179 H171 0.929 . S
C179 C180 1.377 . S
C179 C181 1.384 . S
C180 C179 1.377 . S
C180 C186 1.390 . S
C181 H172 0.930 . S
C181 C179 1.384 . S
C181 C182 1.372 . S
C182 C181 1.372 . S
C182 C183 1.400 . S
C182 C187 1.490 . S
C183 H173 0.930 . S
C183 C182 1.400 . S
C183 C186 1.386 . S
H184 C200 0.930 . S
H185 C201 0.931 . S
C186 H174 0.929 . S
C186 C180 1.390 . S
C186 C183 1.386 . S
C187 C182 1.490 . S
C187 C189 1.395 . S
C187 C190 1.403 . S
H188 C194 0.930 . S
C189 H175 0.930 . S
C189 C187 1.395 . S
C189 C192 1.403 . S
C190 C187 1.403 . S
C190 C191 1.524 . S
C190 C194 1.400 . S
C191 H176 0.960 . S
C191 H177 0.960 . S
C191 H178 0.960 . S
C191 C190 1.524 . S
C192 C189 1.403 . S
C192 C193 1.392 . S
C192 C196 1.495 . S
C193 C192 1.392 . S
C193 C194 1.385 . S
C193 C195 1.478 . S
C194 H188 0.930 . S
C194 C190 1.400 . S
C194 C193 1.385 . S
C195 C193 1.478 . S
C195 C197 1.381 . S
C195 C201 1.383 . S
C196 C192 1.495 . S
C196 H202 0.959 . S
C196 H203 0.961 . S
C196 H204 0.960 . S
C197 C195 1.381 . S
C197 C198 1.394 . S
C197 H205 0.930 . S
C198 C197 1.394 . S
C198 C199 1.383 . S
C198 H206 0.929 . S
C199 C198 1.383 . S
C199 C200 1.377 . S
C200 H184 0.930 . S
C200 C199 1.377 . S
C200 C201 1.379 . S
C201 H185 0.931 . S
C201 C195 1.383 . S
C201 C200 1.379 . S
H202 C196 0.959 . S
H203 C196 0.961 . S
H204 C196 0.960 . S
H205 C197 0.930 . S
H206 C198 0.929 . S
H207 C215 0.929 . S
H208 C217 0.930 . S
H209 C219 0.930 . S
H210 C222 0.929 . S
H211 C225 0.930 . S
H212 C227 0.960 . S
H213 C227 0.960 . S
H214 C227 0.960 . S
C215 H207 0.929 . S
C215 C216 1.377 . S
C215 C217 1.384 . S
C216 C215 1.377 . S
C216 C222 1.390 . S
C217 H208 0.930 . S
C217 C215 1.384 . S
C217 C218 1.372 . S
C218 C217 1.372 . S
C218 C219 1.400 . S
C218 C223 1.490 . S
C219 H209 0.930 . S
C219 C218 1.400 . S
C219 C222 1.386 . S
H220 C236 0.930 . S
H221 C237 0.931 . S
C222 H210 0.929 . S
C222 C216 1.390 . S
C222 C219 1.386 . S
C223 C218 1.490 . S
C223 C225 1.395 . S
C223 C226 1.403 . S
H224 C230 0.930 . S
C225 H211 0.930 . S
C225 C223 1.395 . S
C225 C228 1.403 . S
C226 C223 1.403 . S
C226 C227 1.524 . S
C226 C230 1.400 . S
C227 H212 0.960 . S
C227 H213 0.960 . S
C227 H214 0.960 . S
C227 C226 1.524 . S
C228 C225 1.403 . S
C228 C229 1.392 . S
C228 C232 1.495 . S
C229 C228 1.392 . S
C229 C230 1.385 . S
C229 C231 1.478 . S
C230 H224 0.930 . S
C230 C226 1.400 . S
C230 C229 1.385 . S
C231 C229 1.478 . S
C231 C233 1.381 . S
C231 C237 1.383 . S
C232 C228 1.495 . S
C232 H238 0.959 . S
C232 H239 0.961 . S
C232 H240 0.960 . S
C233 C231 1.381 . S
C233 C234 1.394 . S
C233 H241 0.930 . S
C234 C233 1.394 . S
C234 C235 1.383 . S
C234 H242 0.929 . S
C235 C234 1.383 . S
C235 C236 1.377 . S
C236 H220 0.930 . S
C236 C235 1.377 . S
C236 C237 1.379 . S
C237 H221 0.931 . S
C237 C231 1.383 . S
C237 C236 1.379 . S
H238 C232 0.959 . S
H239 C232 0.961 . S
H240 C232 0.960 . S
H241 C233 0.930 . S
H242 C234 0.929 . S
H243 C251 0.929 . S
H244 C253 0.930 . S
H245 C255 0.930 . S
H246 C258 0.929 . S
H247 C261 0.930 . S
H248 C263 0.960 . S
H249 C263 0.960 . S
H250 C263 0.960 . S
C251 H243 0.929 . S
C251 C252 1.377 . S
C251 C253 1.384 . S
C252 C251 1.377 . S
C252 C258 1.390 . S
C253 H244 0.930 . S
C253 C251 1.384 . S
C253 C254 1.372 . S
C254 C253 1.372 . S
C254 C255 1.400 . S
C254 C259 1.490 . S
C255 H245 0.930 . S
C255 C254 1.400 . S
C255 C258 1.386 . S
H256 C272 0.930 . S
H257 C273 0.931 . S
C258 H246 0.929 . S
C258 C252 1.390 . S
C258 C255 1.386 . S
C259 C254 1.490 . S
C259 C261 1.395 . S
C259 C262 1.403 . S
H260 C266 0.930 . S
C261 H247 0.930 . S
C261 C259 1.395 . S
C261 C264 1.403 . S
C262 C259 1.403 . S
C262 C263 1.524 . S
C262 C266 1.400 . S
C263 H248 0.960 . S
C263 H249 0.960 . S
C263 H250 0.960 . S
C263 C262 1.524 . S
C264 C261 1.403 . S
C264 C265 1.392 . S
C264 C268 1.495 . S
C265 C264 1.392 . S
C265 C266 1.385 . S
C265 C267 1.478 . S
C266 H260 0.930 . S
C266 C262 1.400 . S
C266 C265 1.385 . S
C267 C265 1.478 . S
C267 C269 1.381 . S
C267 C273 1.383 . S
C268 C264 1.495 . S
C268 H274 0.959 . S
C268 H275 0.961 . S
C268 H276 0.960 . S
C269 C267 1.381 . S
C269 C270 1.394 . S
C269 H277 0.930 . S
C270 C269 1.394 . S
C270 C271 1.383 . S
C270 H278 0.929 . S
C271 C270 1.383 . S
C271 C272 1.377 . S
C272 H256 0.930 . S
C272 C271 1.377 . S
C272 C273 1.379 . S
C273 H257 0.931 . S
C273 C267 1.383 . S
C273 C272 1.379 . S
H274 C268 0.959 . S
H275 C268 0.961 . S
H276 C268 0.960 . S
H277 C269 0.930 . S
H278 C270 0.929 . S
H279 C287 0.929 . S
H280 C289 0.930 . S
H281 C291 0.930 . S
H282 C294 0.929 . S
H283 C297 0.930 . S
H284 C299 0.960 . S
H285 C299 0.960 . S
H286 C299 0.960 . S
C287 H279 0.929 . S
C287 C288 1.377 . S
C287 C289 1.384 . S
C288 C287 1.377 . S
C288 C294 1.390 . S
C289 H280 0.930 . S
C289 C287 1.384 . S
C289 C290 1.372 . S
C290 C289 1.372 . S
C290 C291 1.400 . S
C290 C295 1.490 . S
C291 H281 0.930 . S
C291 C290 1.400 . S
C291 C294 1.386 . S
H292 C308 0.930 . S
H293 C309 0.931 . S
C294 H282 0.929 . S
C294 C288 1.390 . S
C294 C291 1.386 . S
C295 C290 1.490 . S
C295 C297 1.395 . S
C295 C298 1.403 . S
H296 C302 0.930 . S
C297 H283 0.930 . S
C297 C295 1.395 . S
C297 C300 1.403 . S
C298 C295 1.403 . S
C298 C299 1.524 . S
C298 C302 1.400 . S
C299 H284 0.960 . S
C299 H285 0.960 . S
C299 H286 0.960 . S
C299 C298 1.524 . S
C300 C297 1.403 . S
C300 C301 1.392 . S
C300 C304 1.495 . S
C301 C300 1.392 . S
C301 C302 1.385 . S
C301 C303 1.478 . S
C302 H296 0.930 . S
C302 C298 1.400 . S
C302 C301 1.385 . S
C303 C301 1.478 . S
C303 C305 1.381 . S
C303 C309 1.383 . S
C304 C300 1.495 . S
C304 H310 0.959 . S
C304 H311 0.961 . S
C304 H312 0.960 . S
C305 C303 1.381 . S
C305 C306 1.394 . S
C305 H313 0.930 . S
C306 C305 1.394 . S
C306 C307 1.383 . S
C306 H314 0.929 . S
C307 C306 1.383 . S
C307 C308 1.377 . S
C308 H292 0.930 . S
C308 C307 1.377 . S
C308 C309 1.379 . S
C309 H293 0.931 . S
C309 C303 1.383 . S
C309 C308 1.379 . S
H310 C304 0.959 . S
H311 C304 0.961 . S
H312 C304 0.960 . S
H313 C305 0.930 . S
H314 C306 0.929 . S
H315 C323 0.929 . S
H316 C325 0.930 . S
H317 C327 0.930 . S
H318 C330 0.929 . S
H319 C333 0.930 . S
H320 C335 0.960 . S
H321 C335 0.960 . S
H322 C335 0.960 . S
C323 H315 0.929 . S
C323 C324 1.377 . S
C323 C325 1.384 . S
C324 C323 1.377 . S
C324 C330 1.390 . S
C325 H316 0.930 . S
C325 C323 1.384 . S
C325 C326 1.372 . S
C326 C325 1.372 . S
C326 C327 1.400 . S
C326 C331 1.490 . S
C327 H317 0.930 . S
C327 C326 1.400 . S
C327 C330 1.386 . S
H328 C344 0.930 . S
H329 C345 0.931 . S
C330 H318 0.929 . S
C330 C324 1.390 . S
C330 C327 1.386 . S
C331 C326 1.490 . S
C331 C333 1.395 . S
C331 C334 1.403 . S
H332 C338 0.930 . S
C333 H319 0.930 . S
C333 C331 1.395 . S
C333 C336 1.403 . S
C334 C331 1.403 . S
C334 C335 1.524 . S
C334 C338 1.400 . S
C335 H320 0.960 . S
C335 H321 0.960 . S
C335 H322 0.960 . S
C335 C334 1.524 . S
C336 C333 1.403 . S
C336 C337 1.392 . S
C336 C340 1.495 . S
C337 C336 1.392 . S
C337 C338 1.385 . S
C337 C339 1.478 . S
C338 H332 0.930 . S
C338 C334 1.400 . S
C338 C337 1.385 . S
C339 C337 1.478 . S
C339 C341 1.381 . S
C339 C345 1.383 . S
C340 C336 1.495 . S
C340 H346 0.959 . S
C340 H347 0.961 . S
C340 H348 0.960 . S
C341 C339 1.381 . S
C341 C342 1.394 . S
C341 H349 0.930 . S
C342 C341 1.394 . S
C342 C343 1.383 . S
C342 H350 0.929 . S
C343 C342 1.383 . S
C343 C344 1.377 . S
C344 H328 0.930 . S
C344 C343 1.377 . S
C344 C345 1.379 . S
C345 H329 0.931 . S
C345 C339 1.383 . S
C345 C344 1.379 . S
H346 C340 0.959 . S
H347 C340 0.961 . S
H348 C340 0.960 . S
H349 C341 0.930 . S
H350 C342 0.929 . S
H351 C359 0.929 . S
H352 C361 0.930 . S
H353 C363 0.930 . S
H354 C366 0.929 . S
H355 C369 0.930 . S
H356 C371 0.960 . S
H357 C371 0.960 . S
H358 C371 0.960 . S
C359 H351 0.929 . S
C359 C360 1.377 . S
C359 C361 1.384 . S
C360 C359 1.377 . S
C360 C366 1.390 . S
C361 H352 0.930 . S
C361 C359 1.384 . S
C361 C362 1.372 . S
C362 C361 1.372 . S
C362 C363 1.400 . S
C362 C367 1.490 . S
C363 H353 0.930 . S
C363 C362 1.400 . S
C363 C366 1.386 . S
H364 C380 0.930 . S
H365 C381 0.931 . S
C366 H354 0.929 . S
C366 C360 1.390 . S
C366 C363 1.386 . S
C367 C362 1.490 . S
C367 C369 1.395 . S
C367 C370 1.403 . S
H368 C374 0.930 . S
C369 H355 0.930 . S
C369 C367 1.395 . S
C369 C372 1.403 . S
C370 C367 1.403 . S
C370 C371 1.524 . S
C370 C374 1.400 . S
C371 H356 0.960 . S
C371 H357 0.960 . S
C371 H358 0.960 . S
C371 C370 1.524 . S
C372 C369 1.403 . S
C372 C373 1.392 . S
C372 C376 1.495 . S
C373 C372 1.392 . S
C373 C374 1.385 . S
C373 C375 1.478 . S
C374 H368 0.930 . S
C374 C370 1.400 . S
C374 C373 1.385 . S
C375 C373 1.478 . S
C375 C377 1.381 . S
C375 C381 1.383 . S
C376 C372 1.495 . S
C376 H382 0.959 . S
C376 H383 0.961 . S
C376 H384 0.960 . S
C377 C375 1.381 . S
C377 C378 1.394 . S
C377 H385 0.930 . S
C378 C377 1.394 . S
C378 C379 1.383 . S
C378 H386 0.929 . S
C379 C378 1.383 . S
C379 C380 1.377 . S
C380 H364 0.930 . S
C380 C379 1.377 . S
C380 C381 1.379 . S
C381 H365 0.931 . S
C381 C375 1.383 . S
C381 C380 1.379 . S
H382 C376 0.959 . S
H383 C376 0.961 . S
H384 C376 0.960 . S
H385 C377 0.930 . S
H386 C378 0.929 . S
H387 C395 0.929 . S
H388 C397 0.930 . S
H389 C399 0.930 . S
H390 C402 0.929 . S
H391 C405 0.930 . S
H392 C407 0.960 . S
H393 C407 0.960 . S
H394 C407 0.960 . S
C395 H387 0.929 . S
C395 C396 1.377 . S
C395 C397 1.384 . S
C396 C395 1.377 . S
C396 C402 1.390 . S
C397 H388 0.930 . S
C397 C395 1.384 . S
C397 C398 1.372 . S
C398 C397 1.372 . S
C398 C399 1.400 . S
C398 C403 1.490 . S
C399 H389 0.930 . S
C399 C398 1.400 . S
C399 C402 1.386 . S
H400 C416 0.930 . S
H401 C417 0.931 . S
C402 H390 0.929 . S
C402 C396 1.390 . S
C402 C399 1.386 . S
C403 C398 1.490 . S
C403 C405 1.395 . S
C403 C406 1.403 . S
H404 C410 0.930 . S
C405 H391 0.930 . S
C405 C403 1.395 . S
C405 C408 1.403 . S
C406 C403 1.403 . S
C406 C407 1.524 . S
C406 C410 1.400 . S
C407 H392 0.960 . S
C407 H393 0.960 . S
C407 H394 0.960 . S
C407 C406 1.524 . S
C408 C405 1.403 . S
C408 C409 1.392 . S
C408 C412 1.495 . S
C409 C408 1.392 . S
C409 C410 1.385 . S
C409 C411 1.478 . S
C410 H404 0.930 . S
C410 C406 1.400 . S
C410 C409 1.385 . S
C411 C409 1.478 . S
C411 C413 1.381 . S
C411 C417 1.383 . S
C412 C408 1.495 . S
C412 H418 0.959 . S
C412 H419 0.961 . S
C412 H420 0.960 . S
C413 C411 1.381 . S
C413 C414 1.394 . S
C413 H421 0.930 . S
C414 C413 1.394 . S
C414 C415 1.383 . S
C414 H422 0.929 . S
C415 C414 1.383 . S
C415 C416 1.377 . S
C416 H400 0.930 . S
C416 C415 1.377 . S
C416 C417 1.379 . S
C417 H401 0.931 . S
C417 C411 1.383 . S
C417 C416 1.379 . S
H418 C412 0.959 . S
H419 C412 0.961 . S
H420 C412 0.960 . S
H421 C413 0.930 . S
H422 C414 0.929 . S
H423 C431 0.929 . S
H424 C433 0.930 . S
H425 C435 0.930 . S
H426 C438 0.929 . S
H427 C441 0.930 . S
H428 C443 0.960 . S
H429 C443 0.960 . S
H430 C443 0.960 . S
C431 H423 0.929 . S
C431 C432 1.377 . S
C431 C433 1.384 . S
C432 C431 1.377 . S
C432 C438 1.390 . S
C433 H424 0.930 . S
C433 C431 1.384 . S
C433 C434 1.372 . S
C434 C433 1.372 . S
C434 C435 1.400 . S
C434 C439 1.490 . S
C435 H425 0.930 . S
C435 C434 1.400 . S
C435 C438 1.386 . S
H436 C452 0.930 . S
H437 C453 0.931 . S
C438 H426 0.929 . S
C438 C432 1.390 . S
C438 C435 1.386 . S
C439 C434 1.490 . S
C439 C441 1.395 . S
C439 C442 1.403 . S
H440 C446 0.930 . S
C441 H427 0.930 . S
C441 C439 1.395 . S
C441 C444 1.403 . S
C442 C439 1.403 . S
C442 C443 1.524 . S
C442 C446 1.400 . S
C443 H428 0.960 . S
C443 H429 0.960 . S
C443 H430 0.960 . S
C443 C442 1.524 . S
C444 C441 1.403 . S
C444 C445 1.392 . S
C444 C448 1.495 . S
C445 C444 1.392 . S
C445 C446 1.385 . S
C445 C447 1.478 . S
C446 H440 0.930 . S
C446 C442 1.400 . S
C446 C445 1.385 . S
C447 C445 1.478 . S
C447 C449 1.381 . S
C447 C453 1.383 . S
C448 C444 1.495 . S
C448 H454 0.959 . S
C448 H455 0.961 . S
C448 H456 0.960 . S
C449 C447 1.381 . S
C449 C450 1.394 . S
C449 H457 0.930 . S
C450 C449 1.394 . S
C450 C451 1.383 . S
C450 H458 0.929 . S
C451 C450 1.383 . S
C451 C452 1.377 . S
C452 H436 0.930 . S
C452 C451 1.377 . S
C452 C453 1.379 . S
C453 H437 0.931 . S
C453 C447 1.383 . S
C453 C452 1.379 . S
H454 C448 0.959 . S
H455 C448 0.961 . S
H456 C448 0.960 . S
H457 C449 0.930 . S
H458 C450 0.929 . S
H459 C467 0.929 . S
H460 C469 0.930 . S
H461 C471 0.930 . S
H462 C474 0.929 . S
H463 C477 0.930 . S
H464 C479 0.960 . S
H465 C479 0.960 . S
H466 C479 0.960 . S
C467 H459 0.929 . S
C467 C468 1.377 . S
C467 C469 1.384 . S
C468 C467 1.377 . S
C468 C474 1.390 1_556 S
C469 H460 0.930 . S
C469 C467 1.384 . S
C469 C470 1.372 . S
C470 C469 1.372 . S
C470 C471 1.400 . S
C470 C475 1.490 . S
C471 H461 0.930 . S
C471 C470 1.400 . S
C471 C474 1.386 1_556 S
H472 C488 0.930 . S
H473 C489 0.931 . S
C474 H462 0.929 . S
C474 C468 1.390 1_554 S
C474 C471 1.386 1_554 S
C475 C470 1.490 . S
C475 C477 1.395 . S
C475 C478 1.403 . S
H476 C482 0.930 . S
C477 H463 0.930 . S
C477 C475 1.395 . S
C477 C480 1.403 . S
C478 C475 1.403 . S
C478 C479 1.524 . S
C478 C482 1.400 . S
C479 H464 0.960 . S
C479 H465 0.960 . S
C479 H466 0.960 . S
C479 C478 1.524 . S
C480 C477 1.403 . S
C480 C481 1.392 . S
C480 C484 1.495 . S
C481 C480 1.392 . S
C481 C482 1.385 . S
C481 C483 1.478 . S
C482 H476 0.930 . S
C482 C478 1.400 . S
C482 C481 1.385 . S
C483 C481 1.478 . S
C483 C485 1.381 . S
C483 C489 1.383 . S
C484 C480 1.495 . S
C484 H490 0.959 . S
C484 H491 0.961 . S
C484 H492 0.960 . S
C485 C483 1.381 . S
C485 C486 1.394 . S
C485 H493 0.930 . S
C486 C485 1.394 . S
C486 C487 1.383 . S
C486 H494 0.929 . S
C487 C486 1.383 . S
C487 C488 1.377 . S
C488 H472 0.930 . S
C488 C487 1.377 . S
C488 C489 1.379 . S
C489 H473 0.931 . S
C489 C483 1.383 . S
C489 C488 1.379 . S
H490 C484 0.959 . S
H491 C484 0.961 . S
H492 C484 0.960 . S
H493 C485 0.930 . S
H494 C486 0.929 . S
H495 C503 0.929 . S
H496 C505 0.930 . S
H497 C507 0.930 . S
H498 C510 0.929 . S
H499 C513 0.930 . S
H500 C515 0.960 . S
H501 C515 0.960 . S
H502 C515 0.960 . S
C503 H495 0.929 . S
C503 C504 1.377 . S
C503 C505 1.384 . S
C504 C503 1.377 . S
C504 C510 1.390 . S
C505 H496 0.930 . S
C505 C503 1.384 . S
C505 C506 1.372 1_554 S
C506 C505 1.372 1_556 S
C506 C507 1.400 . S
C506 C511 1.490 . S
C507 H497 0.930 . S
C507 C506 1.400 . S
C507 C510 1.386 1_556 S
H508 C524 0.930 . S
H509 C525 0.931 . S
C510 H498 0.929 . S
C510 C504 1.390 . S
C510 C507 1.386 1_554 S
C511 C506 1.490 . S
C511 C513 1.395 . S
C511 C514 1.403 . S
H512 C518 0.930 . S
C513 H499 0.930 . S
C513 C511 1.395 . S
C513 C516 1.403 . S
C514 C511 1.403 . S
C514 C515 1.524 . S
C514 C518 1.400 . S
C515 H500 0.960 . S
C515 H501 0.960 . S
C515 H502 0.960 . S
C515 C514 1.524 . S
C516 C513 1.403 . S
C516 C517 1.392 . S
C516 C520 1.495 . S
C517 C516 1.392 . S
C517 C518 1.385 . S
C517 C519 1.478 . S
C518 H512 0.930 . S
C518 C514 1.400 . S
C518 C517 1.385 . S
C519 C517 1.478 . S
C519 C521 1.381 . S
C519 C525 1.383 . S
C520 C516 1.495 . S
C520 H526 0.959 . S
C520 H527 0.961 . S
C520 H528 0.960 . S
C521 C519 1.381 . S
C521 C522 1.394 . S
C521 H529 0.930 . S
C522 C521 1.394 . S
C522 C523 1.383 . S
C522 H530 0.929 . S
C523 C522 1.383 . S
C523 C524 1.377 . S
C524 H508 0.930 . S
C524 C523 1.377 . S
C524 C525 1.379 . S
C525 H509 0.931 . S
C525 C519 1.383 . S
C525 C524 1.379 . S
H526 C520 0.959 . S
H527 C520 0.961 . S
H528 C520 0.960 . S
H529 C521 0.930 . S
H530 C522 0.929 . S
H531 C539 0.929 . S
H532 C541 0.930 . S
H533 C543 0.930 . S
H534 C546 0.929 . S
H535 C549 0.930 . S
H536 C551 0.960 . S
H537 C551 0.960 . S
H538 C551 0.960 . S
C539 H531 0.929 . S
C539 C540 1.377 . S
C539 C541 1.384 1_554 S
C540 C539 1.377 . S
C540 C546 1.390 . S
C541 H532 0.930 . S
C541 C539 1.384 1_556 S
C541 C542 1.372 . S
C542 C541 1.372 . S
C542 C543 1.400 1_556 S
C542 C547 1.490 . S
C543 H533 0.930 . S
C543 C542 1.400 1_554 S
C543 C546 1.386 . S
H544 C560 0.930 . S
H545 C561 0.931 . S
C546 H534 0.929 . S
C546 C540 1.390 . S
C546 C543 1.386 . S
C547 C542 1.490 . S
C547 C549 1.395 . S
C547 C550 1.403 . S
H548 C554 0.930 . S
C549 H535 0.930 . S
C549 C547 1.395 . S
C549 C552 1.403 . S
C550 C547 1.403 . S
C550 C551 1.524 . S
C550 C554 1.400 . S
C551 H536 0.960 . S
C551 H537 0.960 . S
C551 H538 0.960 . S
C551 C550 1.524 . S
C552 C549 1.403 . S
C552 C553 1.392 . S
C552 C556 1.495 . S
C553 C552 1.392 . S
C553 C554 1.385 . S
C553 C555 1.478 . S
C554 H548 0.930 . S
C554 C550 1.400 . S
C554 C553 1.385 . S
C555 C553 1.478 . S
C555 C557 1.381 . S
C555 C561 1.383 . S
C556 C552 1.495 . S
C556 H562 0.959 . S
C556 H563 0.961 . S
C556 H564 0.960 . S
C557 C555 1.381 . S
C557 C558 1.394 . S
C557 H565 0.930 . S
C558 C557 1.394 . S
C558 C559 1.383 . S
C558 H566 0.929 . S
C559 C558 1.383 . S
C559 C560 1.377 . S
C560 H544 0.930 . S
C560 C559 1.377 . S
C560 C561 1.379 . S
C561 H545 0.931 . S
C561 C555 1.383 . S
C561 C560 1.379 . S
H562 C556 0.959 . S
H563 C556 0.961 . S
H564 C556 0.960 . S
H565 C557 0.930 . S
H566 C558 0.929 . S
H567 C575 0.929 . S
H568 C577 0.930 . S
H569 C579 0.930 . S
H570 C582 0.929 . S
H571 C585 0.930 . S
H572 C587 0.960 . S
H573 C587 0.960 . S
H574 C587 0.960 . S
C575 H567 0.929 . S
C575 C576 1.377 . S
C575 C577 1.384 . S
C576 C575 1.377 . S
C576 C582 1.390 1_556 S
C577 H568 0.930 . S
C577 C575 1.384 . S
C577 C578 1.372 . S
C578 C577 1.372 . S
C578 C579 1.400 . S
C578 C583 1.490 . S
C579 H569 0.930 . S
C579 C578 1.400 . S
C579 C582 1.386 1_556 S
H580 C596 0.930 . S
H581 C597 0.931 . S
C582 H570 0.929 . S
C582 C576 1.390 1_554 S
C582 C579 1.386 1_554 S
C583 C578 1.490 . S
C583 C585 1.395 . S
C583 C586 1.403 . S
H584 C590 0.930 . S
C585 H571 0.930 . S
C585 C583 1.395 . S
C585 C588 1.403 . S
C586 C583 1.403 . S
C586 C587 1.524 . S
C586 C590 1.400 . S
C587 H572 0.960 . S
C587 H573 0.960 . S
C587 H574 0.960 . S
C587 C586 1.524 . S
C588 C585 1.403 . S
C588 C589 1.392 . S
C588 C592 1.495 . S
C589 C588 1.392 . S
C589 C590 1.385 . S
C589 C591 1.478 . S
C590 H584 0.930 . S
C590 C586 1.400 . S
C590 C589 1.385 . S
C591 C589 1.478 . S
C591 C593 1.381 . S
C591 C597 1.383 . S
C592 C588 1.495 . S
C592 H598 0.959 . S
C592 H599 0.961 . S
C592 H600 0.960 . S
C593 C591 1.381 . S
C593 C594 1.394 . S
C593 H601 0.930 . S
C594 C593 1.394 . S
C594 C595 1.383 . S
C594 H602 0.929 . S
C595 C594 1.383 . S
C595 C596 1.377 . S
C596 H580 0.930 . S
C596 C595 1.377 . S
C596 C597 1.379 . S
C597 H581 0.931 . S
C597 C591 1.383 . S
C597 C596 1.379 . S
H598 C592 0.959 . S
H599 C592 0.961 . S
H600 C592 0.960 . S
H601 C593 0.930 . S
H602 C594 0.929 . S
H603 C611 0.929 . S
H604 C613 0.930 . S
H605 C615 0.930 . S
H606 C618 0.929 . S
H607 C621 0.930 . S
H608 C623 0.960 . S
H609 C623 0.960 . S
H610 C623 0.960 . S
C611 H603 0.929 . S
C611 C612 1.377 . S
C611 C613 1.384 . S
C612 C611 1.377 . S
C612 C618 1.390 . S
C613 H604 0.930 . S
C613 C611 1.384 . S
C613 C614 1.372 . S
C614 C613 1.372 . S
C614 C615 1.400 . S
C614 C619 1.490 . S
C615 H605 0.930 . S
C615 C614 1.400 . S
C615 C618 1.386 . S
H616 C632 0.930 . S
H617 C633 0.931 . S
C618 H606 0.929 . S
C618 C612 1.390 . S
C618 C615 1.386 . S
C619 C614 1.490 . S
C619 C621 1.395 . S
C619 C622 1.403 . S
H620 C626 0.930 . S
C621 H607 0.930 . S
C621 C619 1.395 . S
C621 C624 1.403 . S
C622 C619 1.403 . S
C622 C623 1.524 . S
C622 C626 1.400 . S
C623 H608 0.960 . S
C623 H609 0.960 . S
C623 H610 0.960 . S
C623 C622 1.524 . S
C624 C621 1.403 . S
C624 C625 1.392 . S
C624 C628 1.495 . S
C625 C624 1.392 . S
C625 C626 1.385 . S
C625 C627 1.478 . S
C626 H620 0.930 . S
C626 C622 1.400 . S
C626 C625 1.385 . S
C627 C625 1.478 . S
C627 C629 1.381 . S
C627 C633 1.383 . S
C628 C624 1.495 . S
C628 H634 0.959 . S
C628 H635 0.961 . S
C628 H636 0.960 . S
C629 C627 1.381 . S
C629 C630 1.394 . S
C629 H637 0.930 . S
C630 C629 1.394 . S
C630 C631 1.383 . S
C630 H638 0.929 . S
C631 C630 1.383 . S
C631 C632 1.377 . S
C632 H616 0.930 . S
C632 C631 1.377 . S
C632 C633 1.379 . S
C633 H617 0.931 . S
C633 C627 1.383 . S
C633 C632 1.379 . S
H634 C628 0.959 . S
H635 C628 0.961 . S
H636 C628 0.960 . S
H637 C629 0.930 . S
H638 C630 0.929 . S
H639 C647 0.929 . S
H640 C649 0.930 1_554 S
H641 C651 0.930 . S
H642 C654 0.929 . S
H643 C657 0.930 . S
H644 C659 0.960 . S
H645 C659 0.960 . S
H646 C659 0.960 . S
C647 H639 0.929 . S
C647 C648 1.377 1_554 S
C647 C649 1.384 1_554 S
C648 C647 1.377 1_556 S
C648 C654 1.390 . S
C649 H640 0.930 1_556 S
C649 C647 1.384 1_556 S
C649 C650 1.372 . S
C650 C649 1.372 . S
C650 C651 1.400 . S
C650 C655 1.490 . S
C651 H641 0.930 . S
C651 C650 1.400 . S
C651 C654 1.386 . S
H652 C668 0.930 . S
H653 C669 0.931 . S
C654 H642 0.929 . S
C654 C648 1.390 . S
C654 C651 1.386 . S
C655 C650 1.490 . S
C655 C657 1.395 . S
C655 C658 1.403 . S
H656 C662 0.930 . S
C657 H643 0.930 . S
C657 C655 1.395 . S
C657 C660 1.403 . S
C658 C655 1.403 . S
C658 C659 1.524 . S
C658 C662 1.400 . S
C659 H644 0.960 . S
C659 H645 0.960 . S
C659 H646 0.960 . S
C659 C658 1.524 . S
C660 C657 1.403 . S
C660 C661 1.392 . S
C660 C664 1.495 . S
C661 C660 1.392 . S
C661 C662 1.385 . S
C661 C663 1.478 . S
C662 H656 0.930 . S
C662 C658 1.400 . S
C662 C661 1.385 . S
C663 C661 1.478 . S
C663 C665 1.381 . S
C663 C669 1.383 . S
C664 C660 1.495 . S
C664 H670 0.959 . S
C664 H671 0.961 . S
C664 H672 0.960 . S
C665 C663 1.381 . S
C665 C666 1.394 . S
C665 H673 0.930 . S
C666 C665 1.394 . S
C666 C667 1.383 . S
C666 H674 0.929 . S
C667 C666 1.383 . S
C667 C668 1.377 . S
C668 H652 0.930 . S
C668 C667 1.377 . S
C668 C669 1.379 . S
C669 H653 0.931 . S
C669 C663 1.383 . S
C669 C668 1.379 . S
H670 C664 0.959 . S
H671 C664 0.961 . S
H672 C664 0.960 . S
H673 C665 0.930 . S
H674 C666 0.929 . S
H675 C683 0.929 . S
H676 C685 0.930 . S
H677 C687 0.930 . S
H678 C690 0.929 . S
H679 C693 0.930 . S
H680 C695 0.960 . S
H681 C695 0.960 . S
H682 C695 0.960 . S
C683 H675 0.929 . S
C683 C684 1.377 . S
C683 C685 1.384 . S
C684 C683 1.377 . S
C684 C690 1.390 1_554 S
C685 H676 0.930 . S
C685 C683 1.384 . S
C685 C686 1.372 1_554 S
C686 C685 1.372 1_556 S
C686 C687 1.400 . S
C686 C691 1.490 . S
C687 H677 0.930 . S
C687 C686 1.400 . S
C687 C690 1.386 . S
H688 C704 0.930 . S
H689 C705 0.931 . S
C690 H678 0.929 . S
C690 C684 1.390 1_556 S
C690 C687 1.386 . S
C691 C686 1.490 . S
C691 C693 1.395 . S
C691 C694 1.403 . S
H692 C698 0.930 . S
C693 H679 0.930 . S
C693 C691 1.395 . S
C693 C696 1.403 . S
C694 C691 1.403 . S
C694 C695 1.524 . S
C694 C698 1.400 . S
C695 H680 0.960 . S
C695 H681 0.960 . S
C695 H682 0.960 . S
C695 C694 1.524 . S
C696 C693 1.403 . S
C696 C697 1.392 . S
C696 C700 1.495 . S
C697 C696 1.392 . S
C697 C698 1.385 . S
C697 C699 1.478 . S
C698 H692 0.930 . S
C698 C694 1.400 . S
C698 C697 1.385 . S
C699 C697 1.478 . S
C699 C701 1.381 . S
C699 C705 1.383 . S
C700 C696 1.495 . S
C700 H706 0.959 . S
C700 H707 0.961 . S
C700 H708 0.960 . S
C701 C699 1.381 . S
C701 C702 1.394 . S
C701 H709 0.930 . S
C702 C701 1.394 . S
C702 C703 1.383 . S
C702 H710 0.929 . S
C703 C702 1.383 . S
C703 C704 1.377 . S
C704 H688 0.930 . S
C704 C703 1.377 . S
C704 C705 1.379 . S
C705 H689 0.931 . S
C705 C699 1.383 . S
C705 C704 1.379 . S
H706 C700 0.959 . S
H707 C700 0.961 . S
H708 C700 0.960 . S
H709 C701 0.930 . S
H710 C702 0.929 . S
H711 C719 0.929 . S
H712 C721 0.930 . S
H713 C723 0.930 . S
H714 C726 0.929 1_556 S
H715 C729 0.930 . S
H716 C731 0.960 . S
H717 C731 0.960 . S
H718 C731 0.960 . S
C719 H711 0.929 . S
C719 C720 1.377 . S
C719 C721 1.384 . S
C720 C719 1.377 . S
C720 C726 1.390 . S
C721 H712 0.930 . S
C721 C719 1.384 . S
C721 C722 1.372 1_554 S
C722 C721 1.372 1_556 S
C722 C723 1.400 . S
C722 C727 1.490 . S
C723 H713 0.930 . S
C723 C722 1.400 . S
C723 C726 1.386 1_556 S
H724 C740 0.930 . S
H725 C741 0.931 . S
C726 H714 0.929 1_554 S
C726 C720 1.390 . S
C726 C723 1.386 1_554 S
C727 C722 1.490 . S
C727 C729 1.395 . S
C727 C730 1.403 . S
H728 C734 0.930 . S
C729 H715 0.930 . S
C729 C727 1.395 . S
C729 C732 1.403 . S
C730 C727 1.403 . S
C730 C731 1.524 . S
C730 C734 1.400 . S
C731 H716 0.960 . S
C731 H717 0.960 . S
C731 H718 0.960 . S
C731 C730 1.524 . S
C732 C729 1.403 . S
C732 C733 1.392 . S
C732 C736 1.495 . S
C733 C732 1.392 . S
C733 C734 1.385 . S
C733 C735 1.478 . S
C734 H728 0.930 . S
C734 C730 1.400 . S
C734 C733 1.385 . S
C735 C733 1.478 . S
C735 C737 1.381 . S
C735 C741 1.383 . S
C736 C732 1.495 . S
C736 H742 0.959 . S
C736 H743 0.961 . S
C736 H744 0.960 . S
C737 C735 1.381 . S
C737 C738 1.394 . S
C737 H745 0.930 . S
C738 C737 1.394 . S
C738 C739 1.383 . S
C738 H746 0.929 . S
C739 C738 1.383 . S
C739 C740 1.377 . S
C740 H724 0.930 . S
C740 C739 1.377 . S
C740 C741 1.379 . S
C741 H725 0.931 . S
C741 C735 1.383 . S
C741 C740 1.379 . S
H742 C736 0.959 . S
H743 C736 0.961 . S
H744 C736 0.960 . S
H745 C737 0.930 . S
H746 C738 0.929 . S
H747 C755 0.929 1_554 S
H748 C757 0.930 . S
H749 C759 0.930 . S
H750 C762 0.929 . S
H751 C765 0.930 . S
H752 C767 0.960 . S
H753 C767 0.960 . S
H754 C767 0.960 . S
C755 H747 0.929 1_556 S
C755 C756 1.377 . S
C755 C757 1.384 . S
C756 C755 1.377 . S
C756 C762 1.390 . S
C757 H748 0.930 . S
C757 C755 1.384 . S
C757 C758 1.372 . S
C758 C757 1.372 . S
C758 C759 1.400 . S
C758 C763 1.490 . S
C759 H749 0.930 . S
C759 C758 1.400 . S
C759 C762 1.386 . S
H760 C776 0.930 . S
H761 C777 0.931 . S
C762 H750 0.929 . S
C762 C756 1.390 . S
C762 C759 1.386 . S
C763 C758 1.490 . S
C763 C765 1.395 . S
C763 C766 1.403 . S
H764 C770 0.930 . S
C765 H751 0.930 . S
C765 C763 1.395 . S
C765 C768 1.403 . S
C766 C763 1.403 . S
C766 C767 1.524 . S
C766 C770 1.400 . S
C767 H752 0.960 . S
C767 H753 0.960 . S
C767 H754 0.960 . S
C767 C766 1.524 . S
C768 C765 1.403 . S
C768 C769 1.392 . S
C768 C772 1.495 . S
C769 C768 1.392 . S
C769 C770 1.385 . S
C769 C771 1.478 . S
C770 H764 0.930 . S
C770 C766 1.400 . S
C770 C769 1.385 . S
C771 C769 1.478 . S
C771 C773 1.381 . S
C771 C777 1.383 . S
C772 C768 1.495 . S
C772 H778 0.959 . S
C772 H779 0.961 . S
C772 H780 0.960 . S
C773 C771 1.381 . S
C773 C774 1.394 . S
C773 H781 0.930 . S
C774 C773 1.394 . S
C774 C775 1.383 . S
C774 H782 0.929 . S
C775 C774 1.383 . S
C775 C776 1.377 . S
C776 H760 0.930 . S
C776 C775 1.377 . S
C776 C777 1.379 . S
C777 H761 0.931 . S
C777 C771 1.383 . S
C777 C776 1.379 . S
H778 C772 0.959 . S
H779 C772 0.961 . S
H780 C772 0.960 . S
H781 C773 0.930 . S
H782 C774 0.929 . S
H783 C791 0.929 . S
H784 C793 0.930 . S
H785 C795 0.930 . S
H786 C798 0.929 . S
H787 C801 0.930 . S
H788 C803 0.960 . S
H789 C803 0.960 . S
H790 C803 0.960 . S
C791 H783 0.929 . S
C791 C792 1.377 . S
C791 C793 1.384 . S
C792 C791 1.377 . S
C792 C798 1.390 . S
C793 H784 0.930 . S
C793 C791 1.384 . S
C793 C794 1.372 . S
C794 C793 1.372 . S
C794 C795 1.400 . S
C794 C799 1.490 . S
C795 H785 0.930 . S
C795 C794 1.400 . S
C795 C798 1.386 . S
H796 C812 0.930 . S
H797 C813 0.931 . S
C798 H786 0.929 . S
C798 C792 1.390 . S
C798 C795 1.386 . S
C799 C794 1.490 . S
C799 C801 1.395 . S
C799 C802 1.403 . S
H800 C806 0.930 . S
C801 H787 0.930 . S
C801 C799 1.395 . S
C801 C804 1.403 . S
C802 C799 1.403 . S
C802 C803 1.524 . S
C802 C806 1.400 . S
C803 H788 0.960 . S
C803 H789 0.960 . S
C803 H790 0.960 . S
C803 C802 1.524 . S
C804 C801 1.403 . S
C804 C805 1.392 . S
C804 C808 1.495 . S
C805 C804 1.392 . S
C805 C806 1.385 . S
C805 C807 1.478 . S
C806 H800 0.930 . S
C806 C802 1.400 . S
C806 C805 1.385 . S
C807 C805 1.478 . S
C807 C809 1.381 . S
C807 C813 1.383 . S
C808 C804 1.495 . S
C808 H814 0.959 . S
C808 H815 0.961 . S
C808 H816 0.960 . S
C809 C807 1.381 . S
C809 C810 1.394 . S
C809 H817 0.930 . S
C810 C809 1.394 . S
C810 C811 1.383 . S
C810 H818 0.929 . S
C811 C810 1.383 . S
C811 C812 1.377 . S
C812 H796 0.930 . S
C812 C811 1.377 . S
C812 C813 1.379 . S
C813 H797 0.931 . S
C813 C807 1.383 . S
C813 C812 1.379 . S
H814 C808 0.959 . S
H815 C808 0.961 . S
H816 C808 0.960 . S
H817 C809 0.930 . S
H818 C810 0.929 . S
H819 C827 0.929 . S
H820 C829 0.930 . S
H821 C831 0.930 . S
H822 C834 0.929 . S
H823 C837 0.930 . S
H824 C839 0.960 . S
H825 C839 0.960 . S
H826 C839 0.960 . S
C827 H819 0.929 . S
C827 C828 1.377 . S
C827 C829 1.384 . S
C828 C827 1.377 . S
C828 C834 1.390 . S
C829 H820 0.930 . S
C829 C827 1.384 . S
C829 C830 1.372 . S
C830 C829 1.372 . S
C830 C831 1.400 . S
C830 C835 1.490 . S
C831 H821 0.930 . S
C831 C830 1.400 . S
C831 C834 1.386 . S
H832 C848 0.930 . S
H833 C849 0.931 . S
C834 H822 0.929 . S
C834 C828 1.390 . S
C834 C831 1.386 . S
C835 C830 1.490 . S
C835 C837 1.395 . S
C835 C838 1.403 . S
H836 C842 0.930 . S
C837 H823 0.930 . S
C837 C835 1.395 . S
C837 C840 1.403 . S
C838 C835 1.403 . S
C838 C839 1.524 . S
C838 C842 1.400 . S
C839 H824 0.960 . S
C839 H825 0.960 . S
C839 H826 0.960 . S
C839 C838 1.524 . S
C840 C837 1.403 . S
C840 C841 1.392 . S
C840 C844 1.495 . S
C841 C840 1.392 . S
C841 C842 1.385 . S
C841 C843 1.478 . S
C842 H836 0.930 . S
C842 C838 1.400 . S
C842 C841 1.385 . S
C843 C841 1.478 . S
C843 C845 1.381 . S
C843 C849 1.383 . S
C844 C840 1.495 . S
C844 H850 0.959 . S
C844 H851 0.961 . S
C844 H852 0.960 . S
C845 C843 1.381 . S
C845 C846 1.394 . S
C845 H853 0.930 . S
C846 C845 1.394 . S
C846 C847 1.383 . S
C846 H854 0.929 . S
C847 C846 1.383 . S
C847 C848 1.377 . S
C848 H832 0.930 . S
C848 C847 1.377 . S
C848 C849 1.379 . S
C849 H833 0.931 . S
C849 C843 1.383 . S
C849 C848 1.379 . S
H850 C844 0.959 . S
H851 C844 0.961 . S
H852 C844 0.960 . S
H853 C845 0.930 . S
H854 C846 0.929 . S
H855 C863 0.929 . S
H856 C865 0.930 . S
H857 C867 0.930 . S
H858 C870 0.929 . S
H859 C873 0.930 . S
H860 C875 0.960 . S
H861 C875 0.960 . S
H862 C875 0.960 . S
C863 H855 0.929 . S
C863 C864 1.377 . S
C863 C865 1.384 . S
C864 C863 1.377 . S
C864 C870 1.390 . S
C865 H856 0.930 . S
C865 C863 1.384 . S
C865 C866 1.372 . S
C866 C865 1.372 . S
C866 C867 1.400 . S
C866 C871 1.490 . S
C867 H857 0.930 . S
C867 C866 1.400 . S
C867 C870 1.386 . S
H868 C884 0.930 . S
H869 C885 0.931 . S
C870 H858 0.929 . S
C870 C864 1.390 . S
C870 C867 1.386 . S
C871 C866 1.490 . S
C871 C873 1.395 . S
C871 C874 1.403 . S
H872 C878 0.930 . S
C873 H859 0.930 . S
C873 C871 1.395 . S
C873 C876 1.403 . S
C874 C871 1.403 . S
C874 C875 1.524 . S
C874 C878 1.400 . S
C875 H860 0.960 . S
C875 H861 0.960 . S
C875 H862 0.960 . S
C875 C874 1.524 . S
C876 C873 1.403 . S
C876 C877 1.392 . S
C876 C880 1.495 . S
C877 C876 1.392 . S
C877 C878 1.385 . S
C877 C879 1.478 . S
C878 H872 0.930 . S
C878 C874 1.400 . S
C878 C877 1.385 . S
C879 C877 1.478 . S
C879 C881 1.381 . S
C879 C885 1.383 . S
C880 C876 1.495 . S
C880 H886 0.959 . S
C880 H887 0.961 . S
C880 H888 0.960 . S
C881 C879 1.381 . S
C881 C882 1.394 . S
C881 H889 0.930 . S
C882 C881 1.394 . S
C882 C883 1.383 . S
C882 H890 0.929 . S
C883 C882 1.383 . S
C883 C884 1.377 . S
C884 H868 0.930 . S
C884 C883 1.377 . S
C884 C885 1.379 . S
C885 H869 0.931 . S
C885 C879 1.383 . S
C885 C884 1.379 . S
H886 C880 0.959 . S
H887 C880 0.961 . S
H888 C880 0.960 . S
H889 C881 0.930 . S
H890 C882 0.929 . S
H891 C899 0.929 . S
H892 C901 0.930 . S
H893 C903 0.930 . S
H894 C906 0.929 . S
H895 C909 0.930 . S
H896 C911 0.960 . S
H897 C911 0.960 . S
H898 C911 0.960 . S
C899 H891 0.929 . S
C899 C900 1.377 . S
C899 C901 1.384 . S
C900 C899 1.377 . S
C900 C906 1.390 . S
C901 H892 0.930 . S
C901 C899 1.384 . S
C901 C902 1.372 . S
C902 C901 1.372 . S
C902 C903 1.400 . S
C902 C907 1.490 . S
C903 H893 0.930 . S
C903 C902 1.400 . S
C903 C906 1.386 . S
H904 C920 0.930 . S
H905 C921 0.931 . S
C906 H894 0.929 . S
C906 C900 1.390 . S
C906 C903 1.386 . S
C907 C902 1.490 . S
C907 C909 1.395 . S
C907 C910 1.403 . S
H908 C914 0.930 . S
C909 H895 0.930 . S
C909 C907 1.395 . S
C909 C912 1.403 . S
C910 C907 1.403 . S
C910 C911 1.524 . S
C910 C914 1.400 . S
C911 H896 0.960 . S
C911 H897 0.960 . S
C911 H898 0.960 . S
C911 C910 1.524 . S
C912 C909 1.403 . S
C912 C913 1.392 . S
C912 C916 1.495 . S
C913 C912 1.392 . S
C913 C914 1.385 . S
C913 C915 1.478 . S
C914 H908 0.930 . S
C914 C910 1.400 . S
C914 C913 1.385 . S
C915 C913 1.478 . S
C915 C917 1.381 . S
C915 C921 1.383 . S
C916 C912 1.495 . S
C916 H922 0.959 . S
C916 H923 0.961 . S
C916 H924 0.960 . S
C917 C915 1.381 . S
C917 C918 1.394 . S
C917 H925 0.930 . S
C918 C917 1.394 . S
C918 C919 1.383 . S
C918 H926 0.929 . S
C919 C918 1.383 . S
C919 C920 1.377 . S
C920 H904 0.930 . S
C920 C919 1.377 . S
C920 C921 1.379 . S
C921 H905 0.931 . S
C921 C915 1.383 . S
C921 C920 1.379 . S
H922 C916 0.959 . S
H923 C916 0.961 . S
H924 C916 0.960 . S
H925 C917 0.930 . S
H926 C918 0.929 . S
H927 C935 0.929 . S
H928 C937 0.930 . S
H929 C939 0.930 . S
H930 C942 0.929 . S
H931 C945 0.930 . S
H932 C947 0.960 . S
H933 C947 0.960 . S
H934 C947 0.960 . S
C935 H927 0.929 . S
C935 C936 1.377 . S
C935 C937 1.384 . S
C936 C935 1.377 . S
C936 C942 1.390 . S
C937 H928 0.930 . S
C937 C935 1.384 . S
C937 C938 1.372 . S
C938 C937 1.372 . S
C938 C939 1.400 . S
C938 C943 1.490 . S
C939 H929 0.930 . S
C939 C938 1.400 . S
C939 C942 1.386 . S
H940 C956 0.930 . S
H941 C957 0.931 . S
C942 H930 0.929 . S
C942 C936 1.390 . S
C942 C939 1.386 . S
C943 C938 1.490 . S
C943 C945 1.395 . S
C943 C946 1.403 . S
H944 C950 0.930 . S
C945 H931 0.930 . S
C945 C943 1.395 . S
C945 C948 1.403 . S
C946 C943 1.403 . S
C946 C947 1.524 . S
C946 C950 1.400 . S
C947 H932 0.960 . S
C947 H933 0.960 . S
C947 H934 0.960 . S
C947 C946 1.524 . S
C948 C945 1.403 . S
C948 C949 1.392 . S
C948 C952 1.495 . S
C949 C948 1.392 . S
C949 C950 1.385 . S
C949 C951 1.478 . S
C950 H944 0.930 . S
C950 C946 1.400 . S
C950 C949 1.385 . S
C951 C949 1.478 . S
C951 C953 1.381 . S
C951 C957 1.383 . S
C952 C948 1.495 . S
C952 H958 0.959 . S
C952 H959 0.961 . S
C952 H960 0.960 . S
C953 C951 1.381 . S
C953 C954 1.394 . S
C953 H961 0.930 . S
C954 C953 1.394 . S
C954 C955 1.383 . S
C954 H962 0.929 . S
C955 C954 1.383 . S
C955 C956 1.377 . S
C956 H940 0.930 . S
C956 C955 1.377 . S
C956 C957 1.379 . S
C957 H941 0.931 . S
C957 C951 1.383 . S
C957 C956 1.379 . S
H958 C952 0.959 . S
H959 C952 0.961 . S
H960 C952 0.960 . S
H961 C953 0.930 . S
H962 C954 0.929 . S
H963 C971 0.929 . S
H964 C973 0.930 . S
H965 C975 0.930 . S
H966 C978 0.929 . S
H967 C981 0.930 . S
H968 C983 0.960 . S
H969 C983 0.960 . S
H970 C983 0.960 . S
C971 H963 0.929 . S
C971 C972 1.377 . S
C971 C973 1.384 . S
C972 C971 1.377 . S
C972 C978 1.390 . S
C973 H964 0.930 . S
C973 C971 1.384 . S
C973 C974 1.372 . S
C974 C973 1.372 . S
C974 C975 1.400 . S
C974 C979 1.490 . S
C975 H965 0.930 . S
C975 C974 1.400 . S
C975 C978 1.386 . S
H976 C992 0.930 . S
H977 C993 0.931 . S
C978 H966 0.929 . S
C978 C972 1.390 . S
C978 C975 1.386 . S
C979 C974 1.490 . S
C979 C981 1.395 . S
C979 C982 1.403 . S
H980 C986 0.930 . S
C981 H967 0.930 . S
C981 C979 1.395 . S
C981 C984 1.403 . S
C982 C979 1.403 . S
C982 C983 1.524 . S
C982 C986 1.400 . S
C983 H968 0.960 . S
C983 H969 0.960 . S
C983 H970 0.960 . S
C983 C982 1.524 . S
C984 C981 1.403 . S
C984 C985 1.392 . S
C984 C988 1.495 . S
C985 C984 1.392 . S
C985 C986 1.385 . S
C985 C987 1.478 . S
C986 H980 0.930 . S
C986 C982 1.400 . S
C986 C985 1.385 . S
C987 C985 1.478 . S
C987 C989 1.381 . S
C987 C993 1.383 . S
C988 C984 1.495 . S
C988 H994 0.959 . S
C988 H995 0.961 . S
C988 H996 0.960 . S
C989 C987 1.381 . S
C989 C990 1.394 . S
C989 H997 0.930 . S
C990 C989 1.394 . S
C990 C991 1.383 . S
C990 H998 0.929 . S
C991 C990 1.383 . S
C991 C992 1.377 . S
C992 H976 0.930 . S
C992 C991 1.377 . S
C992 C993 1.379 . S
C993 H977 0.931 . S
C993 C987 1.383 . S
C993 C992 1.379 . S
H994 C988 0.959 . S
H995 C988 0.961 . S
H996 C988 0.960 . S
H997 C989 0.930 . S
H998 C990 0.929 . S
H999 C1007 0.929 . S
H1000 C1009 0.930 . S
H1001 C1011 0.930 . S
H1002 C1014 0.929 . S
H1003 C1017 0.930 . S
H1004 C1019 0.960 . S
H1005 C1019 0.960 . S
H1006 C1019 0.960 . S
C1007 H999 0.929 . S
C1007 C1008 1.377 . S
C1007 C1009 1.384 . S
C1008 C1007 1.377 . S
C1008 C1014 1.390 . S
C1009 H1000 0.930 . S
C1009 C1007 1.384 . S
C1009 C1010 1.372 . S
C1010 C1009 1.372 . S
C1010 C1011 1.400 . S
C1010 C1015 1.490 . S
C1011 H1001 0.930 . S
C1011 C1010 1.400 . S
C1011 C1014 1.386 . S
H1012 C1028 0.930 . S
H1013 C1029 0.931 . S
C1014 H1002 0.929 . S
C1014 C1008 1.390 . S
C1014 C1011 1.386 . S
C1015 C1010 1.490 . S
C1015 C1017 1.395 . S
C1015 C1018 1.403 . S
H1016 C1022 0.930 . S
C1017 H1003 0.930 . S
C1017 C1015 1.395 . S
C1017 C1020 1.403 . S
C1018 C1015 1.403 . S
C1018 C1019 1.524 . S
C1018 C1022 1.400 . S
C1019 H1004 0.960 . S
C1019 H1005 0.960 . S
C1019 H1006 0.960 . S
C1019 C1018 1.524 . S
C1020 C1017 1.403 . S
C1020 C1021 1.392 . S
C1020 C1024 1.495 . S
C1021 C1020 1.392 . S
C1021 C1022 1.385 . S
C1021 C1023 1.478 . S
C1022 H1016 0.930 . S
C1022 C1018 1.400 . S
C1022 C1021 1.385 . S
C1023 C1021 1.478 . S
C1023 C1025 1.381 . S
C1023 C1029 1.383 . S
C1024 C1020 1.495 . S
C1024 H1030 0.959 . S
C1024 H1031 0.961 . S
C1024 H1032 0.960 . S
C1025 C1023 1.381 . S
C1025 C1026 1.394 . S
C1025 H1033 0.930 . S
C1026 C1025 1.394 . S
C1026 C1027 1.383 . S
C1026 H1034 0.929 . S
C1027 C1026 1.383 . S
C1027 C1028 1.377 . S
C1028 H1012 0.930 . S
C1028 C1027 1.377 . S
C1028 C1029 1.379 . S
C1029 H1013 0.931 . S
C1029 C1023 1.383 . S
C1029 C1028 1.379 . S
H1030 C1024 0.959 . S
H1031 C1024 0.961 . S
H1032 C1024 0.960 . S
H1033 C1025 0.930 . S
H1034 C1026 0.929 . S
C180 C5 1.563 . S
C199 C78 1.489 . S
C216 C16 1.416 . S
C235 C110 1.419 . S
C271 C169 1.877 . S
C252 C36 1.942 . S
C307 C98 1.320 . S
C288 C42 1.342 . S
C324 C55 1.458 . S
C343 C128 1.451 . S
C379 C150 1.096 . S
C360 C66 1.081 . S
C415 C119 1.452 . S
C396 C31 1.507 . S
C432 C40 1.142 . S
C451 C159 1.129 . S
C487 C108 1.496 . S
C468 C53 1.501 1_556 S
C504 C68 1.404 . S
C523 C138 1.386 . S
C540 C10 1.871 . S
C559 C141 1.827 . S
C595 C80 1.575 . S
C576 C14 1.569 1_556 S
C631 C88 1.504 . S
C612 C49 1.527 . S
C667 C129 1.498 . S
C648 C62 1.515 1_556 S
C703 C142 1.858 . S
C684 C70 1.866 . S
C739 C79 1.474 . S
C720 C1 1.504 . S
C775 C139 1.478 . S
C756 C23 1.480 1_556 S
C792 C29 1.043 . S
C811 C140 0.955 . S
C847 C109 1.501 . S
C828 C75 1.549 . S
C883 C170 0.986 . S
C864 C3 1.018 . S
C919 C97 1.380 . S
C900 C18 1.426 . S
C955 C111 1.552 . S
C936 C27 1.576 . S
C972 C44 1.791 . S
C991 C160 1.745 . S
C1008 C57 1.502 . S
C1027 C107 1.494 . S
