# Generated by pormake.
# Topology pts, (4,4)-cn, num edge types: 1
# Building blocks:
#     Node 0, Type 0, BuildingBlock: MUDLON_clean_sbu_0, # of connection points: 4
#     Node 1, Type 0, BuildingBlock: MUDLON_clean_sbu_0, # of connection points: 4
#     Node 2, Type 1, BuildingBlock: QUQFOY_clean_sbu_1, # of connection points: 4
#     Node 3, Type 1, BuildingBlock: QUQFOY_clean_sbu_1, # of connection points: 4
#     Edge 4, Type (0, 1), BuildingBlock: MIFKUJ_clean_linker_0, # of connection points: 2
#     Edge 5, Type (0, 1), BuildingBlock: MIFKUJ_clean_linker_0, # of connection points: 2
#     Edge 6, Type (0, 1), BuildingBlock: MIFKUJ_clean_linker_0, # of connection points: 2
#     Edge 7, Type (0, 1), BuildingBlock: MIFKUJ_clean_linker_0, # of connection points: 2
#     Edge 8, Type (0, 1), BuildingBlock: MIFKUJ_clean_linker_0, # of connection points: 2
#     Edge 9, Type (0, 1), BuildingBlock: MIFKUJ_clean_linker_0, # of connection points: 2
#     Edge 10, Type (0, 1), BuildingBlock: MIFKUJ_clean_linker_0, # of connection points: 2
#     Edge 11, Type (0, 1), BuildingBlock: MIFKUJ_clean_linker_0, # of connection points: 2
# Relax obj value: 0.128
# Max RMSD: 0.245
# Mean RMSD: 0.144
data_MOF--net-pts--node1-MUDLON_clean_sbu_0--node2-QUQFOY_clean_sbu_1--edge1-MIFKUJ_clean_linker_0
_symmetry_space_group_name_H-M    P1
_symmetry_Int_Tables_number       1
_symmetry_cell_setting            triclinic
loop_
_symmetry_equiv_pos_as_xyz
'x, y, z'
_cell_length_a     27.943151
_cell_length_b     30.890463
_cell_length_c     53.069475
_cell_angle_alpha  90.174227
_cell_angle_beta   89.995724
_cell_angle_gamma 89.705821
loop_
_atom_site_label
_atom_site_type_symbol
_atom_site_fract_x
_atom_site_fract_y
_atom_site_fract_z
_atom_type_partial_charge
Mg0 Mg 0.49899 0.01366 0.02493 0.0
C1 C 0.4365 0.01711 0.98165 0.0
O2 O 0.45915 0.05424 0.98278 0.0
C3 C 0.58197 0.9696 0.05077 0.0
O4 O 0.6046 0.99121 0.03323 0.0
C5 C 0.41886 0.06542 0.0505 0.0
O6 O 0.39595 0.05688 0.02949 0.0
O7 O 0.46314 0.05594 0.05214 0.0
O8 O 0.44475 0.98922 0.99879 0.0
O9 O 0.55252 0.03993 0.99911 0.0
C10 C 0.56518 0.01074 0.98341 0.0
O11 O 0.54598 0.97214 0.98544 0.0
O12 O 0.53638 0.96907 0.05044 0.0
Mg13 Mg 0.00239 0.50721 0.51765 0.0
C14 C 0.04102 0.54613 0.56593 0.0
O15 O 0.02197 0.51089 0.57532 0.0
C16 C 0.05663 0.42507 0.50114 0.0
O17 O 0.0546 0.41557 0.52523 0.0
C18 C 0.9767 0.55295 0.46963 0.0
O19 O 0.00322 0.52106 0.46089 0.0
O20 O 0.96569 0.55309 0.49291 0.0
O21 O 0.04278 0.55045 0.54212 0.0
O22 O 0.95871 0.46662 0.54199 0.0
C23 C 0.94415 0.42949 0.53501 0.0
O24 O 0.94741 0.41876 0.5111 0.0
O25 O 0.04271 0.4623 0.4939 0.0
O26 O 0.94661 0.96913 0.25279 0.0
Cd27 Cd 0.00799 0.97159 0.27462 0.0
Cd28 Cd 0.98505 0.05576 0.27532 0.0
O29 O 0.92047 0.03528 0.26051 0.0
O30 O 0.02042 0.91013 0.28416 0.0
O31 O 0.0012 0.96072 0.31196 0.0
C32 C 0.01074 0.92056 0.30715 0.0
C33 C 0.98943 0.10127 0.31059 0.0
C34 C 0.91438 0.99812 0.25065 0.0
C35 C 0.07406 0.03055 0.24721 0.0
O36 O 0.04184 0.0592 0.25049 0.0
O37 O 0.07017 0.9936 0.25752 0.0
O38 O 0.9763 0.11565 0.28885 0.0
O39 O 0.99848 0.06033 0.31257 0.0
O40 O 0.94029 0.0533 0.78182 0.0
Cd41 Cd 0.00174 0.0569 0.76027 0.0
Cd42 Cd 0.99264 0.96808 0.76155 0.0
O43 O 0.92849 0.98286 0.77907 0.0
O44 O 0.00412 0.11866 0.74929 0.0
O45 O 0.99603 0.06427 0.72254 0.0
C46 C 0.99832 0.10554 0.72642 0.0
C47 C 0.99649 0.9126 0.73126 0.0
C48 C 0.91539 0.02009 0.78685 0.0
C49 C 0.078 1.00764 0.78788 0.0
O50 O 0.0529 0.97424 0.78359 0.0
O51 O 0.06571 0.04414 0.7788 0.0
O52 O 0.99022 0.90453 0.75482 0.0
O53 O -0.00088 0.9527 0.72458 0.0
H54 H 0.32898 0.10029 0.05378 0.0
H55 H 0.27732 0.10266 0.09109 0.0
H56 H 0.39258 0.05209 0.13643 0.0
H57 H 0.44484 0.05057 0.09942 0.0
H58 H 0.30217 1.00293 0.136 0.0
H59 H 0.36272 0.1469 0.14935 0.0
H60 H 0.38147 0.2217 0.13679 0.0
H61 H 0.23278 0.24609 0.12176 0.0
H62 H 0.21322 0.17121 0.13389 0.0
H63 H 0.16347 0.99365 0.24726 0.0
H64 H 0.2289 1.00698 0.21765 0.0
H65 H 0.14022 0.09904 0.17788 0.0
H66 H 0.07615 0.0878 0.20834 0.0
H67 H 0.22348 0.12865 0.17737 0.0
H68 H 0.16097 0.98808 0.15802 0.0
H69 H 0.137 0.91272 0.16632 0.0
H70 H 0.28134 0.88067 0.18718 0.0
H71 H 0.30605 0.95602 0.17929 0.0
C72 C 0.34372 0.09078 0.07183 0.0
C73 C 0.39099 0.0752 0.07362 0.0
C74 C 0.31416 0.09211 0.09311 0.0
C75 C 0.33113 0.07735 0.11645 0.0
C76 C 0.37888 0.06362 0.11856 0.0
C77 C 0.40875 0.06305 0.0974 0.0
C78 C 0.29775 0.07239 0.13796 0.0
C79 C 0.28555 0.03037 0.14543 0.0
C80 C 0.27491 0.1082 0.1495 0.0
C81 C 0.28657 0.15331 0.14232 0.0
C82 C 0.33407 0.16809 0.14315 0.0
C83 C 0.34483 0.21053 0.13616 0.0
C84 C 0.30836 0.2386 0.12843 0.0
C85 C 0.26101 0.22431 0.12774 0.0
C86 C 0.25006 0.18188 0.1347 0.0
C87 C 0.15818 0.01695 0.23229 0.0
C88 C 0.11463 0.03953 0.23006 0.0
C89 C 0.19549 0.02438 0.21524 0.0
C90 C 0.18937 0.05335 0.19504 0.0
C91 C 0.14612 0.07654 0.1932 0.0
C92 C 0.10936 0.06999 0.21062 0.0
C93 C 0.22726 0.05891 0.17548 0.0
C94 C 0.24028 0.10104 0.16823 0.0
C95 C 0.24997 0.02309 0.16359 0.0
C96 C 0.23522 0.97778 0.16835 0.0
C97 C 0.18751 0.96502 0.16455 0.0
C98 C 0.17381 0.92231 0.16915 0.0
C99 C 0.20759 0.89196 0.17735 0.0
C100 C 0.25519 0.90424 0.18089 0.0
C101 C 0.26907 0.94693 0.17634 0.0
H102 H 0.19691 0.85891 0.1809 0.0
H103 H 0.31676 0.27145 0.12302 0.0
H104 H 0.93957 0.43943 0.58624 0.0
H105 H 0.94243 0.3823 0.61793 0.0
H106 H 0.93485 0.28549 0.55939 0.0
H107 H 0.9315 0.34245 0.5275 0.0
H108 H 0.88426 0.26172 0.60233 0.0
H109 H 0.04092 0.31362 0.58117 0.0
H110 H 0.10157 0.37017 0.57462 0.0
H111 H 0.09029 0.40787 0.65235 0.0
H112 H 0.02892 0.35197 0.65926 0.0
H113 H 0.98222 0.0894 0.67616 0.0
H114 H 0.96858 0.14254 0.64267 0.0
H115 H 0.9861 0.24631 0.69641 0.0
H116 H 0.00052 0.19365 0.72973 0.0
H117 H 0.03191 0.26468 0.65428 0.0
H118 H 0.87446 0.214 0.67551 0.0
H119 H 0.81173 0.15928 0.68198 0.0
H120 H 0.82352 0.11994 0.60454 0.0
H121 H 0.88682 0.17408 0.5977 0.0
C122 C 0.93742 0.40604 0.58008 0.0
C123 C 0.93582 0.39558 0.55427 0.0
C124 C 0.93927 0.37338 0.59824 0.0
C125 C 0.93986 0.32962 0.59099 0.0
C126 C 0.93468 0.31903 0.5654 0.0
C127 C 0.93274 0.35171 0.54718 0.0
C128 C 0.95005 0.29527 0.60986 0.0
C129 C 0.91677 0.26201 0.6135 0.0
C130 C 0.99226 0.29594 0.62462 0.0
C131 C 0.03004 0.32884 0.62068 0.0
C132 C 0.05119 0.33411 0.59683 0.0
C133 C 0.08569 0.36605 0.59305 0.0
C134 C 0.0997 0.39266 0.61304 0.0
C135 C 0.07936 0.38726 0.63688 0.0
C136 C 0.04474 0.35544 0.64075 0.0
C137 C 0.98344 0.12354 0.6808 0.0
C138 C 0.9924 0.13723 0.70565 0.0
C139 C 0.97533 0.15391 0.66166 0.0
C140 C 0.97567 0.19851 0.66705 0.0
C141 C 0.98557 0.21214 0.69175 0.0
C142 C 0.99376 0.1819 0.71082 0.0
C143 C 0.96579 0.23124 0.64711 0.0
C144 C -0.00065 0.26421 0.64315 0.0
C145 C 0.92382 0.23025 0.63211 0.0
C146 C 0.88573 0.19776 0.63617 0.0
C147 C 0.86395 0.19344 0.65991 0.0
C148 C 0.82825 0.16257 0.66364 0.0
C149 C 0.81375 0.13606 0.6437 0.0
C150 C 0.83485 0.14045 0.61998 0.0
C151 C 0.87061 0.17123 0.61616 0.0
H152 H 0.7861 0.11219 0.64662 0.0
H153 H 0.12638 0.4174 0.61008 0.0
H154 H 0.54826 0.95436 0.09865 0.0
H155 H 0.59665 0.95079 0.13722 0.0
H156 H 0.72544 0.95168 0.09251 0.0
H157 H 0.67771 0.95536 0.05411 0.0
H158 H 0.67425 0.89935 0.15784 0.0
H159 H 0.79408 0.03271 0.11566 0.0
H160 H 0.78848 0.0913 0.08427 0.0
H161 H 0.63703 0.10118 0.09693 0.0
H162 H 0.64187 0.0432 0.12867 0.0
H163 H 0.89397 0.92488 0.22362 0.0
H164 H 0.82768 0.9134 0.19452 0.0
H165 H 0.77031 0.03929 0.21345 0.0
H166 H 0.83726 0.05147 0.24223 0.0
H167 H 0.77453 0.03103 0.16493 0.0
H168 H 0.71338 0.94377 0.23104 0.0
H169 H 0.71475 0.88731 0.26377 0.0
H170 H 0.7406 0.79007 0.20734 0.0
H171 H 0.74007 0.84602 0.17428 0.0
C172 C 0.58684 0.95234 0.09702 0.0
C173 C 0.6092 0.95577 0.07334 0.0
C174 C 0.61443 0.95037 0.11908 0.0
C175 C 0.66458 0.95183 0.11769 0.0
C176 C 0.68677 0.95113 0.09399 0.0
C177 C 0.65938 0.95318 0.07205 0.0
C178 C 0.6939 0.95961 0.14057 0.0
C179 C 0.69617 0.9281 0.15951 0.0
C180 C 0.7214 0.99774 0.14303 0.0
C181 C 0.71831 0.03334 0.12437 0.0
C182 C 0.75964 0.04756 0.11183 0.0
C183 C 0.75659 0.08064 0.09397 0.0
C184 C 0.7124 0.09986 0.08855 0.0
C185 C 0.6712 0.08617 0.10108 0.0
C186 C 0.67408 0.05318 0.11899 0.0
C187 C 0.86694 0.94997 0.22189 0.0
C188 C 0.87119 0.98927 0.23519 0.0
C189 C 0.82878 0.94319 0.20532 0.0
C190 C 0.79368 0.97532 0.20187 0.0
C191 C 0.79695 0.01399 0.21576 0.0
C192 C 0.83524 0.02091 0.23226 0.0
C193 C 0.75626 0.97018 0.18212 0.0
C194 C 0.75245 1.00233 0.16359 0.0
C195 C 0.72685 0.93299 0.18038 0.0
C196 C 0.72703 0.89918 0.20019 0.0
C197 C 0.71971 0.91039 0.22562 0.0
C198 C 0.72027 0.87847 0.24423 0.0
C199 C 0.72784 0.83514 0.23765 0.0
C200 C 0.73476 0.82364 0.21242 0.0
C201 C 0.73426 0.85545 0.19373 0.0
H202 H 0.72828 0.81048 0.25209 0.0
H203 H 0.71011 0.12541 0.07469 0.0
H204 H 0.05982 0.62997 0.55227 0.0
H205 H 0.05835 0.69389 0.57951 0.0
H206 H 0.0398 0.61222 0.64454 0.0
H207 H 0.04037 0.54824 0.6174 0.0
H208 H 0.9734 0.67365 0.64344 0.0
H209 H 0.14457 0.66959 0.6336 0.0
H210 H 0.22044 0.66753 0.60988 0.0
H211 H 0.1846 0.78825 0.57451 0.0
H212 H 0.10819 0.79075 0.59778 0.0
H213 H 0.99571 0.82609 0.74104 0.0
H214 H 0.00805 0.76641 0.71164 0.0
H215 H 0.02276 0.85702 0.65048 0.0
H216 H 0.01124 0.91744 0.68008 0.0
H217 H 0.09011 0.7939 0.64761 0.0
H218 H 0.92026 0.79897 0.6574 0.0
H219 H 0.84372 0.80157 0.68049 0.0
H220 H 0.87605 0.67923 0.71488 0.0
H221 H 0.95312 0.67617 0.69225 0.0
C222 C 0.05652 0.62549 0.57243 0.0
C223 C 0.04985 0.58392 0.58262 0.0
C224 C 0.05573 0.66215 0.58801 0.0
C225 C 0.04884 0.65796 0.61411 0.0
C226 C 0.04485 0.61633 0.62444 0.0
C227 C 0.04541 0.57971 0.6089 0.0
C228 C 0.04162 0.6968 0.63039 0.0
C229 C -0.00066 0.6996 0.64462 0.0
C230 C 0.07446 0.73155 0.63121 0.0
C231 C 0.12043 0.73013 0.61725 0.0
C232 C 0.15268 0.69552 0.62061 0.0
C233 C 0.19582 0.69431 0.60728 0.0
C234 C 0.20728 0.72767 0.59065 0.0
C235 C 0.17566 0.76239 0.58737 0.0
C236 C 0.13245 0.76375 0.60064 0.0
C237 C 0.00132 0.8335 0.72132 0.0
C238 C 0.00217 0.87662 0.7129 0.0
C239 C 0.00828 0.79922 0.70449 0.0
C240 C 0.01574 0.80712 0.67876 0.0
C241 C 0.01696 0.85014 0.67024 0.0
C242 C 0.01012 0.88461 0.68715 0.0
C243 C 0.02237 0.77021 0.66098 0.0
C244 C 0.06426 0.7679 0.64639 0.0
C245 C 0.98908 0.73587 0.65969 0.0
C246 C 0.94266 0.73753 0.67328 0.0
C247 C 0.91121 0.77278 0.67003 0.0
C248 C 0.8677 0.77431 0.68301 0.0
C249 C 0.85508 0.74064 0.69918 0.0
C250 C 0.88589 0.70531 0.70236 0.0
C251 C 0.92947 0.70364 0.68944 0.0
H252 H 0.82137 0.74188 0.70922 0.0
H253 H 0.2407 0.72668 0.58035 0.0
H254 H 0.41935 0.06967 0.94182 0.0
H255 H 0.35987 0.06158 0.90882 0.0
H256 H 0.3146 0.94055 0.94104 0.0
H257 H 0.37497 0.94831 0.97457 0.0
H258 H 0.32182 0.93978 0.88713 0.0
H259 H 0.24818 0.02516 0.95214 0.0
H260 H 0.2438 0.08458 0.9832 0.0
H261 H 0.25665 0.17788 0.9238 0.0
H262 H 0.26186 0.11898 0.89241 0.0
H263 H 0.10434 0.93819 0.81658 0.0
H264 H 0.1668 0.93478 0.84852 0.0
H265 H 0.20848 0.06546 0.83071 0.0
H266 H 0.1448 0.06964 0.79916 0.0
H267 H 0.20079 0.05711 0.87929 0.0
H268 H 0.2776 0.97333 0.81436 0.0
H269 H 0.28476 0.91488 0.78281 0.0
H270 H 0.26809 0.81971 0.84092 0.0
H271 H 0.26021 0.87764 0.87279 0.0
C272 C 0.39696 0.04116 0.94201 0.0
C273 C 0.40158 0.00983 0.96106 0.0
C274 C 0.36291 0.03664 0.92305 0.0
C275 C 0.33236 1.00084 0.92268 0.0
C276 C 0.33778 0.96855 0.94109 0.0
C277 C 0.37211 0.97307 0.96024 0.0
C278 C 0.29398 0.9986 0.90341 0.0
C279 C 0.29475 0.96495 0.88561 0.0
C280 C 0.2595 0.03208 0.90113 0.0
C281 C 0.25575 0.06762 0.91994 0.0
C282 C 0.25039 0.05833 0.94572 0.0
C283 C 0.24772 0.09193 0.96338 0.0
C284 C 0.25003 0.13497 0.95548 0.0
C285 C 0.25489 0.14452 0.92989 0.0
C286 C 0.25764 0.11104 0.91215 0.0
C287 C 0.12713 0.9661 0.81918 0.0
C288 C 0.11945 1.00427 0.80527 0.0
C289 C 0.16307 0.96399 0.83744 0.0
C290 C 0.19277 0.99969 0.84194 0.0
C291 C 0.186 0.03747 0.82763 0.0
C292 C 0.14968 0.03979 0.80951 0.0
C293 C 0.22889 0.99862 0.86255 0.0
C294 C 0.22761 0.03172 0.88073 0.0
C295 C 0.26298 0.96472 0.86504 0.0
C296 C 0.26784 0.92985 0.84592 0.0
C297 C 0.27509 0.93995 0.82038 0.0
C298 C 0.27935 0.90691 0.80245 0.0
C299 C 0.27675 0.86361 0.80985 0.0
C300 C 0.27003 0.85326 0.83521 0.0
C301 C 0.26571 0.88618 0.85322 0.0
H302 H 0.28005 0.83808 0.79594 0.0
H303 H 0.24797 0.16093 0.96919 0.0
H304 H 0.0495 0.43149 0.4499 0.0
H305 H 0.04344 0.37226 0.41959 0.0
H306 H 0.07079 0.27987 0.47862 0.0
H307 H 0.07647 0.33907 0.50935 0.0
H308 H 0.11605 0.26026 0.42963 0.0
H309 H 0.96305 0.29363 0.46627 0.0
H310 H 0.89805 0.34277 0.47972 0.0
H311 H 0.87717 0.38317 0.40314 0.0
H312 H 0.94269 0.3348 0.38928 0.0
H313 H 0.02202 0.08283 0.35825 0.0
H314 H 0.03742 0.13412 0.39261 0.0
H315 H 0.98852 0.23922 0.3457 0.0
H316 H 0.97243 0.18831 0.31156 0.0
H317 H 0.95405 0.24821 0.39194 0.0
H318 H 0.10855 0.21859 0.3553 0.0
H319 H 0.17581 0.17243 0.34132 0.0
H320 H 0.19518 0.12662 0.41697 0.0
H321 H 0.12757 0.17212 0.43134 0.0
C322 C 0.05527 0.3987 0.45645 0.0
C323 C 0.06299 0.39008 0.48216 0.0
C324 C 0.05168 0.36485 0.43906 0.0
C325 C 0.05603 0.3217 0.44693 0.0
C326 C 0.06724 0.31299 0.47219 0.0
C327 C 0.07045 0.34689 0.48972 0.0
C328 C 0.0444 0.28605 0.42919 0.0
C329 C 0.08049 0.25708 0.42165 0.0
C330 C 0.99814 0.28239 0.41858 0.0
C331 C 0.95806 0.31087 0.42676 0.0
C332 C 0.94484 0.31322 0.45232 0.0
C333 C 0.90788 0.34092 0.46002 0.0
C334 C 0.88357 0.36615 0.4423 0.0
C335 C 0.89607 0.36363 0.41684 0.0
C336 C 0.93309 0.33606 0.40905 0.0
C337 C 0.01421 0.11682 0.35533 0.0
C338 C 0.99608 0.13145 0.33212 0.0
C339 C 0.02332 0.14615 0.37495 0.0
C340 C 0.01471 0.19067 0.37167 0.0
C341 C 0.99552 0.20509 0.34871 0.0
C342 C 0.9864 0.17588 0.32916 0.0
C343 C 0.02592 0.22257 0.3919 0.0
C344 C 0.98959 0.25094 0.4 0.0
C345 C 0.07202 0.22569 0.40293 0.0
C346 C 0.11266 0.19835 0.39433 0.0
C347 C 0.1269 0.19839 0.36891 0.0
C348 C 0.16513 0.17241 0.36093 0.0
C349 C 0.18966 0.14651 0.37823 0.0
C350 C 0.17608 0.14664 0.40358 0.0
C351 C 0.13783 0.17253 0.41166 0.0
H352 H 0.21926 0.12642 0.37202 0.0
H353 H 0.85498 0.38759 0.4483 0.0
H354 H 0.59999 0.08829 0.9656 0.0
H355 H 0.65911 0.09828 0.9317 0.0
H356 H 0.67171 0.95975 0.92342 0.0
H357 H 0.61324 0.94959 0.95677 0.0
H358 H 0.75917 0.99992 0.92474 0.0
H359 H 0.60616 0.01516 0.88298 0.0
H360 H 0.52675 0.04817 0.87598 0.0
H361 H 0.59243 0.17106 0.86172 0.0
H362 H 0.67226 0.13887 0.86902 0.0
H363 H 0.86278 0.95511 0.80794 0.0
H364 H 0.80197 0.96182 0.84078 0.0
H365 H 0.81295 0.10087 0.83799 0.0
H366 H 0.87401 0.09459 0.80505 0.0
H367 H 0.71737 0.07077 0.8438 0.0
H368 H 0.8712 0.05345 0.88213 0.0
H369 H 0.95028 0.01955 0.88867 0.0
H370 H 0.88285 0.90033 0.90957 0.0
H371 H 0.80332 0.93334 0.90276 0.0
C372 C 0.61562 0.06009 0.95658 0.0
C373 C 0.60186 0.01819 0.9638 0.0
C374 C 0.64916 0.06581 0.93719 0.0
C375 C 0.66963 0.0297 0.92501 0.0
C376 C 0.65645 0.98803 0.93257 0.0
C377 C 0.62281 0.98233 0.95161 0.0
C378 C 0.70466 0.03447 0.90421 0.0
C379 C 0.74996 0.01531 0.90703 0.0
C380 C 0.69301 0.05542 0.88132 0.0
C381 C 0.64511 0.07476 0.87688 0.0
C382 C 0.60364 0.04932 0.8786 0.0
C383 C 0.55856 0.06785 0.87453 0.0
C384 C 0.55453 0.11172 0.8685 0.0
C385 C 0.5956 0.13711 0.86645 0.0
C386 C 0.64076 0.11874 0.87055 0.0
C387 C 0.8518 0.98719 0.81396 0.0
C388 C 0.87368 0.0243 0.804 0.0
C389 C 0.81712 0.99094 0.83281 0.0
C390 C 0.80351 0.03182 0.84205 0.0
C391 C 0.82311 0.06904 0.83117 0.0
C392 C 0.85809 0.06533 0.81239 0.0
C393 C 0.77131 0.03523 0.86419 0.0
C394 C 0.72676 0.05596 0.86165 0.0
C395 C 0.78354 0.01569 0.88741 0.0
C396 C 0.8313 0.99578 0.89172 0.0
C397 C 0.87323 0.01991 0.88793 0.0
C398 C 0.91814 1.00087 0.89171 0.0
C399 C 0.92159 0.95779 0.89948 0.0
C400 C 0.88012 0.93369 0.90353 0.0
C401 C 0.83512 0.95256 0.89973 0.0
H402 H 0.95639 0.9431 0.9024 0.0
H403 H 0.51961 0.12601 0.86534 0.0
H404 H -0.00087 0.56286 0.42004 0.0
H405 H 0.00023 0.62984 0.39591 0.0
H406 H 0.93873 0.69888 0.45886 0.0
H407 H 0.93762 0.63163 0.48341 0.0
H408 H 0.90233 0.72542 0.41059 0.0
H409 H 0.05183 0.70676 0.45267 0.0
H410 H 0.12403 0.66724 0.46647 0.0
H411 H 0.1672 0.65016 0.38941 0.0
H412 H 0.09481 0.689 0.37511 0.0
H413 H 0.97421 0.92755 0.35507 0.0
H414 H 0.96445 0.86934 0.38602 0.0
H415 H 0.03105 0.77911 0.33452 0.0
H416 H 0.0409 0.83677 0.30367 0.0
H417 H 0.06435 0.76935 0.38244 0.0
H418 H 0.91115 0.78282 0.3406 0.0
H419 H 0.8385 0.82177 0.32685 0.0
H420 H 0.80257 0.84944 0.40393 0.0
H421 H 0.87542 0.81112 0.41812 0.0
C422 C 0.98505 0.59204 0.42871 0.0
C423 C 0.96878 0.59189 0.4538 0.0
C424 C 0.98585 0.63038 0.41488 0.0
C425 C 0.97037 0.66946 0.42575 0.0
C426 C 0.95107 0.66907 0.45018 0.0
C427 C 0.95043 0.63059 0.46415 0.0
C428 C 0.97766 0.71073 0.41202 0.0
C429 C 0.93778 0.73554 0.40481 0.0
C430 C 0.02392 0.7237 0.40432 0.0
C431 C 0.06766 0.70048 0.41281 0.0
C432 C 0.07651 0.69427 0.43865 0.0
C433 C 0.1175 0.67204 0.44656 0.0
C434 C 0.15013 0.65612 0.42882 0.0
C435 C 0.14187 0.66248 0.40313 0.0
C436 C 0.10088 0.68464 0.39511 0.0
C437 C 0.98719 0.89539 0.35047 0.0
C438 C 0.00824 0.88677 0.32688 0.0
C439 C 0.98132 0.86212 0.36811 0.0
C440 C 0.99661 0.81977 0.36248 0.0
C441 C 0.01893 0.8115 0.33927 0.0
C442 C 0.02447 0.84454 0.32162 0.0
C443 C 0.98895 0.78356 0.38041 0.0
C444 C 0.0289 0.75966 0.38847 0.0
C445 C 0.94279 0.77161 0.38891 0.0
C446 C 0.89902 0.79459 0.3804 0.0
C447 C 0.88798 0.79755 0.3546 0.0
C448 C 0.84673 0.81944 0.34673 0.0
C449 C 0.81602 0.8382 0.3645 0.0
C450 C 0.82644 0.83498 0.39019 0.0
C451 C 0.86769 0.81317 0.39815 0.0
H452 H 0.78409 0.85512 0.35837 0.0
H453 H 0.18186 0.63893 0.43499 0.0
loop_
_geom_bond_atom_site_label_1
_geom_bond_atom_site_label_2
_geom_bond_distance
_geom_bond_site_symmetry_2
_ccdc_geom_bond_type
Mg0 O7 2.141 . S
Mg0 O8 2.048 1_554 S
Mg0 O9 2.048 1_554 S
Mg0 O12 2.141 . S
C1 O2 1.313 . S
C1 O8 1.195 1_565 S
O2 C1 1.313 . S
C3 O4 1.245 . S
C3 O12 1.289 1_565 S
O4 C3 1.245 . S
C5 O6 1.245 . S
C5 O7 1.289 1_565 S
O6 C5 1.245 . S
O7 Mg0 2.141 . S
O7 C5 1.289 1_545 S
O8 Mg0 2.048 1_556 S
O8 C1 1.195 1_545 S
O9 Mg0 2.048 1_556 S
O9 C10 1.195 1_545 S
C10 O9 1.195 1_565 S
C10 O11 1.313 . S
O11 C10 1.313 . S
O12 Mg0 2.141 . S
O12 C3 1.289 1_545 S
Mg13 O20 2.141 . S
Mg13 O21 2.048 . S
Mg13 O22 2.048 . S
Mg13 O25 2.141 . S
C14 O15 1.313 . S
C14 O21 1.195 1_455 S
O15 C14 1.313 . S
C16 O17 1.245 . S
C16 O25 1.289 1_455 S
O17 C16 1.245 . S
C18 O19 1.245 . S
C18 O20 1.289 1_455 S
O19 C18 1.245 . S
O20 Mg13 2.141 . S
O20 C18 1.289 1_655 S
O21 Mg13 2.048 . S
O21 C14 1.195 1_655 S
O22 Mg13 2.048 . S
O22 C23 1.195 1_655 S
C23 O22 1.195 1_455 S
C23 O24 1.313 . S
O24 C23 1.313 . S
O25 Mg13 2.141 . S
O25 C16 1.289 1_655 S
O26 Cd27 2.223 1_655 S
O26 C34 1.315 . S
Cd27 O26 2.223 1_455 S
Cd27 O30 2.297 1_455 S
Cd27 O31 2.439 1_455 S
Cd27 O37 2.240 1_565 S
Cd28 O29 2.240 1_545 S
Cd28 O36 2.223 1_655 S
Cd28 O38 2.297 1_655 S
Cd28 O39 2.439 1_655 S
O29 Cd28 2.240 1_565 S
O29 C34 1.279 . S
O30 Cd27 2.297 1_655 S
O30 C32 1.247 . S
O31 Cd27 2.439 1_655 S
O31 C32 1.208 . S
C32 O30 1.247 . S
C32 O31 1.208 . S
C33 O38 1.247 . S
C33 O39 1.208 . S
C34 O26 1.315 . S
C34 O29 1.279 . S
C35 O36 1.315 . S
C35 O37 1.279 . S
O36 Cd28 2.223 1_455 S
O36 C35 1.315 . S
O37 Cd27 2.240 1_545 S
O37 C35 1.279 . S
O38 Cd28 2.297 1_455 S
O38 C33 1.247 . S
O39 Cd28 2.439 1_455 S
O39 C33 1.208 . S
O40 Cd41 2.223 1_655 S
O40 C48 1.315 . S
Cd41 O40 2.223 1_455 S
Cd41 O44 2.297 1_455 S
Cd41 O45 2.439 1_455 S
Cd41 O51 2.240 1_545 S
Cd42 O43 2.240 1_565 S
Cd42 O50 2.223 1_655 S
Cd42 O52 2.297 1_655 S
Cd42 O53 2.439 1_655 S
O43 Cd42 2.240 1_545 S
O43 C48 1.279 . S
O44 Cd41 2.297 1_655 S
O44 C46 1.247 . S
O45 Cd41 2.439 1_655 S
O45 C46 1.208 . S
C46 O44 1.247 . S
C46 O45 1.208 . S
C47 O52 1.247 . S
C47 O53 1.208 . S
C48 O40 1.315 . S
C48 O43 1.279 . S
C49 O50 1.315 . S
C49 O51 1.279 . S
O50 Cd42 2.223 1_455 S
O50 C49 1.315 . S
O51 Cd41 2.240 1_565 S
O51 C49 1.279 . S
O52 Cd42 2.297 1_455 S
O52 C47 1.247 . S
O53 Cd42 2.439 1_455 S
O53 C47 1.208 . S
H54 C72 0.955 . S
H55 C74 0.952 . S
H56 C76 0.950 . S
H57 C77 0.950 . S
H58 C79 0.950 . S
H59 C82 0.950 . S
H60 C83 0.950 . S
H61 C85 0.950 . S
H62 C86 0.950 . S
H63 C87 0.951 . S
H64 C89 0.951 . S
H65 C91 0.950 . S
H66 C92 0.950 . S
H67 C94 0.950 . S
H68 C97 0.950 . S
H69 C98 0.950 . S
H70 C100 0.950 . S
H71 C101 0.950 . S
C72 H54 0.955 . S
C72 C73 1.365 1_565 S
C72 C74 1.386 1_565 S
C73 C72 1.365 1_545 S
C73 C77 1.385 . S
C74 H55 0.952 . S
C74 C72 1.386 1_545 S
C74 C75 1.366 . S
C75 C74 1.366 . S
C75 C76 1.414 . S
C75 C78 1.499 . S
C76 H56 0.950 . S
C76 C75 1.414 . S
C76 C77 1.374 . S
C77 H57 0.950 . S
C77 C73 1.385 . S
C77 C76 1.374 . S
C78 C75 1.499 . S
C78 C79 1.373 1_545 S
C78 C80 1.389 . S
C79 H58 0.950 . S
C79 C78 1.373 1_565 S
C79 C95 1.377 . S
C80 C78 1.389 . S
C80 C81 1.524 . S
C80 C94 1.377 . S
C81 C80 1.524 . S
C81 C82 1.397 . S
C81 C86 1.363 . S
C82 H59 0.950 . S
C82 C81 1.397 . S
C82 C83 1.334 . S
C83 H60 0.950 . S
C83 C82 1.334 . S
C83 C84 1.287 . S
C84 C83 1.287 . S
C84 C85 1.524 . S
C84 H103 0.913 . S
C85 H61 0.950 . S
C85 C84 1.524 . S
C85 C86 1.415 . S
C86 H62 0.950 . S
C86 C81 1.363 . S
C86 C85 1.415 . S
C87 H63 0.951 . S
C87 C88 1.366 . S
C87 C89 1.388 . S
C88 C87 1.366 . S
C88 C92 1.385 . S
C89 H64 0.951 . S
C89 C87 1.388 . S
C89 C90 1.366 . S
C90 C89 1.366 . S
C90 C91 1.414 . S
C90 C93 1.499 . S
C91 H65 0.950 . S
C91 C90 1.414 . S
C91 C92 1.374 . S
C92 H66 0.950 . S
C92 C88 1.385 . S
C92 C91 1.374 . S
C93 C90 1.499 . S
C93 C94 1.373 . S
C93 C95 1.389 1_545 S
C94 H67 0.950 . S
C94 C80 1.377 . S
C94 C93 1.373 . S
C95 C79 1.377 . S
C95 C93 1.389 1_565 S
C95 C96 1.524 . S
C96 C95 1.524 . S
C96 C97 1.397 . S
C96 C101 1.363 . S
C97 H68 0.950 . S
C97 C96 1.397 . S
C97 C98 1.334 . S
C98 H69 0.950 . S
C98 C97 1.334 . S
C98 C99 1.287 . S
C99 C98 1.287 . S
C99 C100 1.524 . S
C99 H102 0.999 . S
C100 H70 0.950 . S
C100 C99 1.524 . S
C100 C101 1.415 . S
C101 H71 0.950 . S
C101 C96 1.363 . S
C101 C100 1.415 . S
H102 C99 0.999 . S
H103 C84 0.913 . S
H104 C122 0.951 . S
H105 C124 0.951 . S
H106 C126 0.950 . S
H107 C127 0.950 . S
H108 C129 0.950 1_455 S
H109 C132 0.950 . S
H110 C133 0.950 . S
H111 C135 0.950 . S
H112 C136 0.950 . S
H113 C137 0.951 . S
H114 C139 0.951 . S
H115 C141 0.950 . S
H116 C142 0.950 . S
H117 C144 0.950 . S
H118 C147 0.950 . S
H119 C148 0.950 . S
H120 C150 0.950 . S
H121 C151 0.950 . S
C122 H104 0.951 . S
C122 C123 1.366 . S
C122 C124 1.388 . S
C123 C122 1.366 . S
C123 C127 1.385 1_655 S
C124 H105 0.951 . S
C124 C122 1.388 . S
C124 C125 1.366 . S
C125 C124 1.366 . S
C125 C126 1.414 1_655 S
C125 C128 1.499 . S
C126 H106 0.950 . S
C126 C125 1.414 1_455 S
C126 C127 1.374 . S
C127 H107 0.950 . S
C127 C123 1.385 1_455 S
C127 C126 1.374 . S
C128 C125 1.499 . S
C128 C129 1.373 . S
C128 C130 1.389 . S
C129 H108 0.950 1_655 S
C129 C128 1.373 . S
C129 C145 1.377 . S
C130 C128 1.389 . S
C130 C131 1.524 . S
C130 C144 1.377 . S
C131 C130 1.524 . S
C131 C132 1.397 1_655 S
C131 C136 1.363 . S
C132 H109 0.950 . S
C132 C131 1.397 1_455 S
C132 C133 1.334 . S
C133 H110 0.950 . S
C133 C132 1.334 . S
C133 C134 1.287 1_455 S
C134 C133 1.287 1_655 S
C134 C135 1.524 . S
C134 H153 0.913 . S
C135 H111 0.950 . S
C135 C134 1.524 . S
C135 C136 1.415 . S
C136 H112 0.950 . S
C136 C131 1.363 . S
C136 C135 1.415 . S
C137 H113 0.951 . S
C137 C138 1.366 1_455 S
C137 C139 1.388 . S
C138 C137 1.366 1_655 S
C138 C142 1.385 . S
C139 H114 0.951 . S
C139 C137 1.388 . S
C139 C140 1.366 1_455 S
C140 C139 1.366 1_655 S
C140 C141 1.414 . S
C140 C143 1.499 . S
C141 H115 0.950 . S
C141 C140 1.414 . S
C141 C142 1.374 . S
C142 H116 0.950 . S
C142 C138 1.385 . S
C142 C141 1.374 . S
C143 C140 1.499 . S
C143 C144 1.373 . S
C143 C145 1.389 . S
C144 H117 0.950 . S
C144 C130 1.377 . S
C144 C143 1.373 . S
C145 C129 1.377 . S
C145 C143 1.389 . S
C145 C146 1.524 . S
C146 C145 1.524 . S
C146 C147 1.397 . S
C146 C151 1.363 1_655 S
C147 H118 0.950 . S
C147 C146 1.397 . S
C147 C148 1.334 . S
C148 H119 0.950 . S
C148 C147 1.334 . S
C148 C149 1.287 . S
C149 C148 1.287 . S
C149 C150 1.524 1_655 S
C149 H152 0.999 . S
C150 H120 0.950 . S
C150 C149 1.524 1_455 S
C150 C151 1.415 . S
C151 H121 0.950 . S
C151 C146 1.363 1_455 S
C151 C150 1.415 . S
H152 C149 0.999 . S
H153 C134 0.913 . S
H154 C172 0.951 . S
H155 C174 0.951 . S
H156 C176 0.950 . S
H157 C177 0.950 . S
H158 C179 0.950 . S
H159 C182 0.950 1_565 S
H160 C183 0.950 . S
H161 C185 0.950 . S
H162 C186 0.950 . S
H163 C187 0.951 . S
H164 C189 0.951 . S
H165 C191 0.950 . S
H166 C192 0.950 . S
H167 C194 0.950 . S
H168 C197 0.950 . S
H169 C198 0.950 . S
H170 C200 0.950 . S
H171 C201 0.950 . S
C172 H154 0.951 . S
C172 C173 1.366 1_545 S
C172 C174 1.388 . S
C173 C172 1.366 1_565 S
C173 C177 1.385 . S
C174 H155 0.951 . S
C174 C172 1.388 . S
C174 C175 1.366 1_545 S
C175 C174 1.366 1_565 S
C175 C176 1.414 . S
C175 C178 1.499 . S
C176 H156 0.950 . S
C176 C175 1.414 . S
C176 C177 1.374 . S
C177 H157 0.950 . S
C177 C173 1.385 . S
C177 C176 1.374 . S
C178 C175 1.499 . S
C178 C179 1.373 . S
C178 C180 1.389 1_565 S
C179 H158 0.950 . S
C179 C178 1.373 . S
C179 C195 1.377 . S
C180 C178 1.389 1_545 S
C180 C181 1.524 . S
C180 C194 1.377 . S
C181 C180 1.524 . S
C181 C182 1.397 . S
C181 C186 1.363 . S
C182 H159 0.950 1_545 S
C182 C181 1.397 . S
C182 C183 1.334 . S
C183 H160 0.950 . S
C183 C182 1.334 . S
C183 C184 1.287 . S
C184 C183 1.287 . S
C184 C185 1.524 . S
C184 H203 0.913 . S
C185 H161 0.950 . S
C185 C184 1.524 . S
C185 C186 1.415 . S
C186 H162 0.950 . S
C186 C181 1.363 . S
C186 C185 1.415 . S
C187 H163 0.951 . S
C187 C188 1.366 . S
C187 C189 1.388 . S
C188 C187 1.366 . S
C188 C192 1.385 1_565 S
C189 H164 0.951 . S
C189 C187 1.388 . S
C189 C190 1.366 . S
C190 C189 1.366 . S
C190 C191 1.414 1_565 S
C190 C193 1.499 . S
C191 H165 0.950 . S
C191 C190 1.414 1_545 S
C191 C192 1.374 . S
C192 H166 0.950 . S
C192 C188 1.385 1_545 S
C192 C191 1.374 . S
C193 C190 1.499 . S
C193 C194 1.373 1_565 S
C193 C195 1.389 . S
C194 H167 0.950 . S
C194 C180 1.377 . S
C194 C193 1.373 1_545 S
C195 C179 1.377 . S
C195 C193 1.389 . S
C195 C196 1.524 . S
C196 C195 1.524 . S
C196 C197 1.397 . S
C196 C201 1.363 . S
C197 H168 0.950 . S
C197 C196 1.397 . S
C197 C198 1.334 . S
C198 H169 0.950 . S
C198 C197 1.334 . S
C198 C199 1.287 . S
C199 C198 1.287 . S
C199 C200 1.524 . S
C199 H202 0.999 . S
C200 H170 0.950 . S
C200 C199 1.524 . S
C200 C201 1.415 . S
C201 H171 0.950 . S
C201 C196 1.363 . S
C201 C200 1.415 . S
H202 C199 0.999 . S
H203 C184 0.913 . S
H204 C222 0.951 . S
H205 C224 0.951 . S
H206 C226 0.950 . S
H207 C227 0.950 . S
H208 C229 0.950 . S
H209 C232 0.950 . S
H210 C233 0.950 . S
H211 C235 0.950 . S
H212 C236 0.950 . S
H213 C237 0.951 . S
H214 C239 0.951 . S
H215 C241 0.950 . S
H216 C242 0.950 . S
H217 C244 0.949 1_655 S
H218 C247 0.947 1_655 S
H219 C248 0.950 1_655 S
H220 C250 0.950 . S
H221 C251 0.950 . S
C222 H204 0.951 . S
C222 C223 1.366 1_655 S
C222 C224 1.388 . S
C223 C222 1.366 1_455 S
C223 C227 1.385 . S
C224 H205 0.951 . S
C224 C222 1.388 . S
C224 C225 1.366 1_655 S
C225 C224 1.366 1_455 S
C225 C226 1.414 . S
C225 C228 1.499 . S
C226 H206 0.950 . S
C226 C225 1.414 . S
C226 C227 1.374 . S
C227 H207 0.950 . S
C227 C223 1.385 . S
C227 C226 1.374 . S
C228 C225 1.499 . S
C228 C229 1.373 . S
C228 C230 1.389 . S
C229 H208 0.950 . S
C229 C228 1.373 . S
C229 C245 1.377 . S
C230 C228 1.389 . S
C230 C231 1.524 1_455 S
C230 C244 1.377 . S
C231 C230 1.524 1_655 S
C231 C232 1.397 1_655 S
C231 C236 1.363 . S
C232 H209 0.950 . S
C232 C231 1.397 1_455 S
C232 C233 1.334 . S
C233 H210 0.950 . S
C233 C232 1.334 . S
C233 C234 1.287 1_455 S
C234 C233 1.287 1_655 S
C234 C235 1.524 . S
C234 H253 0.913 . S
C235 H211 0.950 . S
C235 C234 1.524 . S
C235 C236 1.415 . S
C236 H212 0.950 . S
C236 C231 1.363 . S
C236 C235 1.415 . S
C237 H213 0.951 . S
C237 C238 1.366 . S
C237 C239 1.388 . S
C238 C237 1.366 . S
C238 C242 1.385 1_455 S
C239 H214 0.951 . S
C239 C237 1.388 . S
C239 C240 1.366 . S
C240 C239 1.366 . S
C240 C241 1.414 1_455 S
C240 C243 1.499 . S
C241 H215 0.950 . S
C241 C240 1.414 1_655 S
C241 C242 1.374 . S
C242 H216 0.950 . S
C242 C238 1.385 1_655 S
C242 C241 1.374 . S
C243 C240 1.499 . S
C243 C244 1.373 . S
C243 C245 1.389 . S
C244 H217 0.949 1_455 S
C244 C230 1.377 . S
C244 C243 1.373 . S
C245 C229 1.377 . S
C245 C243 1.389 . S
C245 C246 1.524 . S
C246 C245 1.524 . S
C246 C247 1.399 . S
C246 C251 1.363 . S
C247 H218 0.947 1_455 S
C247 C246 1.399 . S
C247 C248 1.334 . S
C248 H219 0.950 1_455 S
C248 C247 1.334 . S
C248 C249 1.287 . S
C249 C248 1.287 . S
C249 C250 1.524 . S
C249 H252 0.999 . S
C250 H220 0.950 . S
C250 C249 1.524 . S
C250 C251 1.415 . S
C251 H221 0.950 . S
C251 C246 1.363 . S
C251 C250 1.415 . S
H252 C249 0.999 . S
H253 C234 0.913 . S
H254 C272 0.951 . S
H255 C274 0.951 . S
H256 C276 0.950 . S
H257 C277 0.950 . S
H258 C279 0.950 . S
H259 C282 0.950 . S
H260 C283 0.950 . S
H261 C285 0.950 . S
H262 C286 0.950 . S
H263 C287 0.951 . S
H264 C289 0.951 . S
H265 C291 0.950 . S
H266 C292 0.950 . S
H267 C294 0.950 . S
H268 C297 0.950 . S
H269 C298 0.950 . S
H270 C300 0.950 . S
H271 C301 0.950 . S
C272 H254 0.951 . S
C272 C273 1.366 1_545 S
C272 C274 1.388 . S
C273 C272 1.366 1_565 S
C273 C277 1.385 . S
C274 H255 0.951 . S
C274 C272 1.388 . S
C274 C275 1.366 1_545 S
C275 C274 1.366 1_565 S
C275 C276 1.414 . S
C275 C278 1.499 . S
C276 H256 0.950 . S
C276 C275 1.414 . S
C276 C277 1.374 . S
C277 H257 0.950 . S
C277 C273 1.385 . S
C277 C276 1.374 . S
C278 C275 1.499 . S
C278 C279 1.373 . S
C278 C280 1.389 1_565 S
C279 H258 0.950 . S
C279 C278 1.373 . S
C279 C295 1.377 . S
C280 C278 1.389 1_545 S
C280 C281 1.524 . S
C280 C294 1.377 . S
C281 C280 1.524 . S
C281 C282 1.397 . S
C281 C286 1.363 . S
C282 H259 0.950 . S
C282 C281 1.397 . S
C282 C283 1.334 . S
C283 H260 0.950 . S
C283 C282 1.334 . S
C283 C284 1.287 . S
C284 C283 1.287 . S
C284 C285 1.524 . S
C284 H303 0.913 . S
C285 H261 0.950 . S
C285 C284 1.524 . S
C285 C286 1.415 . S
C286 H262 0.950 . S
C286 C281 1.363 . S
C286 C285 1.415 . S
C287 H263 0.951 . S
C287 C288 1.366 . S
C287 C289 1.388 . S
C288 C287 1.366 . S
C288 C292 1.385 . S
C289 H264 0.951 . S
C289 C287 1.388 . S
C289 C290 1.366 . S
C290 C289 1.366 . S
C290 C291 1.414 . S
C290 C293 1.499 . S
C291 H265 0.950 . S
C291 C290 1.414 . S
C291 C292 1.374 . S
C292 H266 0.950 . S
C292 C288 1.385 . S
C292 C291 1.374 . S
C293 C290 1.499 . S
C293 C294 1.373 1_565 S
C293 C295 1.389 . S
C294 H267 0.950 . S
C294 C280 1.377 . S
C294 C293 1.373 1_545 S
C295 C279 1.377 . S
C295 C293 1.389 . S
C295 C296 1.524 . S
C296 C295 1.524 . S
C296 C297 1.397 . S
C296 C301 1.363 . S
C297 H268 0.950 . S
C297 C296 1.397 . S
C297 C298 1.334 . S
C298 H269 0.950 . S
C298 C297 1.334 . S
C298 C299 1.287 . S
C299 C298 1.287 . S
C299 C300 1.524 . S
C299 H302 0.999 . S
C300 H270 0.950 . S
C300 C299 1.524 . S
C300 C301 1.415 . S
C301 H271 0.950 . S
C301 C296 1.363 . S
C301 C300 1.415 . S
H302 C299 0.999 . S
H303 C284 0.913 . S
H304 C322 0.951 . S
H305 C324 0.951 . S
H306 C326 0.950 . S
H307 C327 0.950 . S
H308 C329 0.950 . S
H309 C332 0.950 . S
H310 C333 0.950 . S
H311 C335 0.950 . S
H312 C336 0.950 . S
H313 C337 0.951 . S
H314 C339 0.951 . S
H315 C341 0.950 . S
H316 C342 0.950 . S
H317 C344 0.950 . S
H318 C347 0.950 . S
H319 C348 0.950 . S
H320 C350 0.950 . S
H321 C351 0.950 . S
C322 H304 0.951 . S
C322 C323 1.366 1_655 S
C322 C324 1.388 . S
C323 C322 1.366 1_455 S
C323 C327 1.385 . S
C324 H305 0.951 . S
C324 C322 1.388 . S
C324 C325 1.366 1_655 S
C325 C324 1.366 1_455 S
C325 C326 1.414 . S
C325 C328 1.499 . S
C326 H306 0.950 . S
C326 C325 1.414 . S
C326 C327 1.374 . S
C327 H307 0.950 . S
C327 C323 1.385 . S
C327 C326 1.374 . S
C328 C325 1.499 . S
C328 C329 1.373 . S
C328 C330 1.389 1_455 S
C329 H308 0.950 . S
C329 C328 1.373 . S
C329 C345 1.377 . S
C330 C328 1.389 1_655 S
C330 C331 1.524 . S
C330 C344 1.377 . S
C331 C330 1.524 . S
C331 C332 1.397 . S
C331 C336 1.363 . S
C332 H309 0.950 . S
C332 C331 1.397 . S
C332 C333 1.334 . S
C333 H310 0.950 . S
C333 C332 1.334 . S
C333 C334 1.287 . S
C334 C333 1.287 . S
C334 C335 1.524 . S
C334 H353 0.913 . S
C335 H311 0.950 . S
C335 C334 1.524 . S
C335 C336 1.415 . S
C336 H312 0.950 . S
C336 C331 1.363 . S
C336 C335 1.415 . S
C337 H313 0.951 . S
C337 C338 1.366 . S
C337 C339 1.388 . S
C338 C337 1.366 . S
C338 C342 1.385 1_455 S
C339 H314 0.951 . S
C339 C337 1.388 . S
C339 C340 1.366 . S
C340 C339 1.366 . S
C340 C341 1.414 1_455 S
C340 C343 1.499 . S
C341 H315 0.950 . S
C341 C340 1.414 1_655 S
C341 C342 1.374 . S
C342 H316 0.950 . S
C342 C338 1.385 1_655 S
C342 C341 1.374 . S
C343 C340 1.499 . S
C343 C344 1.373 1_455 S
C343 C345 1.389 . S
C344 H317 0.950 . S
C344 C330 1.377 . S
C344 C343 1.373 1_655 S
C345 C329 1.377 . S
C345 C343 1.389 . S
C345 C346 1.524 . S
C346 C345 1.524 . S
C346 C347 1.397 . S
C346 C351 1.363 . S
C347 H318 0.950 . S
C347 C346 1.397 . S
C347 C348 1.334 . S
C348 H319 0.950 . S
C348 C347 1.334 . S
C348 C349 1.287 . S
C349 C348 1.287 . S
C349 C350 1.524 . S
C349 H352 0.999 . S
C350 H320 0.950 . S
C350 C349 1.524 . S
C350 C351 1.415 . S
C351 H321 0.950 . S
C351 C346 1.363 . S
C351 C350 1.415 . S
H352 C349 0.999 . S
H353 C334 0.913 . S
H354 C372 0.951 . S
H355 C374 0.951 . S
H356 C376 0.950 . S
H357 C377 0.950 . S
H358 C379 0.950 . S
H359 C382 0.950 . S
H360 C383 0.950 . S
H361 C385 0.950 . S
H362 C386 0.950 . S
H363 C387 0.951 . S
H364 C389 0.951 . S
H365 C391 0.950 . S
H366 C392 0.950 . S
H367 C394 0.950 . S
H368 C397 0.950 . S
H369 C398 0.950 . S
H370 C400 0.950 . S
H371 C401 0.950 1_565 S
C372 H354 0.951 . S
C372 C373 1.366 . S
C372 C374 1.388 . S
C373 C372 1.366 . S
C373 C377 1.385 1_545 S
C374 H355 0.951 . S
C374 C372 1.388 . S
C374 C375 1.366 . S
C375 C374 1.366 . S
C375 C376 1.414 1_545 S
C375 C378 1.499 . S
C376 H356 0.950 . S
C376 C375 1.414 1_565 S
C376 C377 1.374 . S
C377 H357 0.950 . S
C377 C373 1.385 1_565 S
C377 C376 1.374 . S
C378 C375 1.499 . S
C378 C379 1.373 . S
C378 C380 1.389 . S
C379 H358 0.950 . S
C379 C378 1.373 . S
C379 C395 1.377 . S
C380 C378 1.389 . S
C380 C381 1.524 1_545 S
C380 C394 1.377 . S
C381 C380 1.524 1_565 S
C381 C382 1.397 . S
C381 C386 1.363 1_565 S
C382 H359 0.950 . S
C382 C381 1.397 . S
C382 C383 1.334 . S
C383 H360 0.950 . S
C383 C382 1.334 . S
C383 C384 1.287 . S
C384 C383 1.287 . S
C384 C385 1.524 1_565 S
C384 H403 0.913 . S
C385 H361 0.950 . S
C385 C384 1.524 1_545 S
C385 C386 1.415 . S
C386 H362 0.950 . S
C386 C381 1.363 1_545 S
C386 C385 1.415 . S
C387 H363 0.951 . S
C387 C388 1.366 1_565 S
C387 C389 1.388 . S
C388 C387 1.366 1_545 S
C388 C392 1.385 . S
C389 H364 0.951 . S
C389 C387 1.388 . S
C389 C390 1.366 1_565 S
C390 C389 1.366 1_545 S
C390 C391 1.414 . S
C390 C393 1.499 . S
C391 H365 0.950 . S
C391 C390 1.414 . S
C391 C392 1.374 . S
C392 H366 0.950 . S
C392 C388 1.385 . S
C392 C391 1.374 . S
C393 C390 1.499 . S
C393 C394 1.373 . S
C393 C395 1.389 . S
C394 H367 0.950 . S
C394 C380 1.377 . S
C394 C393 1.373 . S
C395 C379 1.377 . S
C395 C393 1.389 . S
C395 C396 1.524 . S
C396 C395 1.524 . S
C396 C397 1.397 . S
C396 C401 1.363 . S
C397 H368 0.950 . S
C397 C396 1.397 . S
C397 C398 1.334 . S
C398 H369 0.950 . S
C398 C397 1.334 . S
C398 C399 1.287 . S
C399 C398 1.287 . S
C399 C400 1.524 . S
C399 H402 0.999 . S
C400 H370 0.950 . S
C400 C399 1.524 . S
C400 C401 1.415 . S
C401 H371 0.950 1_545 S
C401 C396 1.363 . S
C401 C400 1.415 . S
H402 C399 0.999 . S
H403 C384 0.913 . S
H404 C422 0.951 . S
H405 C424 0.951 . S
H406 C426 0.950 . S
H407 C427 0.950 . S
H408 C429 0.950 . S
H409 C432 0.950 . S
H410 C433 0.950 . S
H411 C435 0.950 . S
H412 C436 0.950 . S
H413 C437 0.951 . S
H414 C439 0.951 . S
H415 C441 0.950 . S
H416 C442 0.946 1_455 S
H417 C444 0.950 . S
H418 C447 0.950 . S
H419 C448 0.950 . S
H420 C450 0.950 . S
H421 C451 0.950 . S
C422 H404 0.951 . S
C422 C423 1.366 1_455 S
C422 C424 1.388 . S
C423 C422 1.366 1_655 S
C423 C427 1.385 . S
C424 H405 0.951 . S
C424 C422 1.388 . S
C424 C425 1.366 1_455 S
C425 C424 1.366 1_655 S
C425 C426 1.414 . S
C425 C428 1.499 . S
C426 H406 0.950 . S
C426 C425 1.414 . S
C426 C427 1.374 . S
C427 H407 0.950 . S
C427 C423 1.385 . S
C427 C426 1.374 . S
C428 C425 1.499 . S
C428 C429 1.373 . S
C428 C430 1.389 1_655 S
C429 H408 0.950 . S
C429 C428 1.373 . S
C429 C445 1.377 . S
C430 C428 1.389 1_455 S
C430 C431 1.524 . S
C430 C444 1.377 . S
C431 C430 1.524 . S
C431 C432 1.397 . S
C431 C436 1.363 . S
C432 H409 0.950 . S
C432 C431 1.397 . S
C432 C433 1.334 . S
C433 H410 0.950 . S
C433 C432 1.334 . S
C433 C434 1.287 . S
C434 C433 1.287 . S
C434 C435 1.524 . S
C434 H453 0.913 . S
C435 H411 0.950 . S
C435 C434 1.524 . S
C435 C436 1.415 . S
C436 H412 0.950 . S
C436 C431 1.363 . S
C436 C435 1.415 . S
C437 H413 0.951 . S
C437 C438 1.366 . S
C437 C439 1.388 . S
C438 C437 1.366 . S
C438 C442 1.389 . S
C439 H414 0.951 . S
C439 C437 1.388 . S
C439 C440 1.366 . S
C440 C439 1.366 . S
C440 C441 1.414 1_655 S
C440 C443 1.499 . S
C441 H415 0.950 . S
C441 C440 1.414 1_455 S
C441 C442 1.373 1_455 S
C442 H416 0.946 1_655 S
C442 C438 1.389 . S
C442 C441 1.373 1_655 S
C443 C440 1.499 . S
C443 C444 1.373 1_655 S
C443 C445 1.389 . S
C444 H417 0.950 . S
C444 C430 1.377 . S
C444 C443 1.373 1_455 S
C445 C429 1.377 . S
C445 C443 1.389 . S
C445 C446 1.524 . S
C446 C445 1.524 . S
C446 C447 1.397 . S
C446 C451 1.363 . S
C447 H418 0.950 . S
C447 C446 1.397 . S
C447 C448 1.334 . S
C448 H419 0.950 . S
C448 C447 1.334 . S
C448 C449 1.287 . S
C449 C448 1.287 . S
C449 C450 1.524 . S
C449 H452 0.999 . S
C450 H420 0.950 . S
C450 C449 1.524 . S
C450 C451 1.415 . S
C451 H421 0.950 . S
C451 C446 1.363 . S
C451 C450 1.415 . S
H452 C449 0.999 . S
H453 C434 0.913 . S
C88 C35 1.475 . S
C73 C5 1.467 1_545 S
C138 C46 1.520 . S
C123 C23 1.569 1_655 S
C188 C34 1.475 . S
C173 C3 1.461 . S
C238 C47 1.520 . S
C223 C14 1.563 . S
C288 C49 1.544 . S
C273 C1 1.531 . S
C338 C33 1.444 . S
C323 C16 1.474 . S
C388 C48 1.544 . S
C373 C10 1.543 1_545 S
C423 C18 1.489 1_655 S
C438 C32 1.446 . S
