# Generated by pormake.
# Topology ocu, (6,8)-cn, num edge types: 1
# Building blocks:
#     Node 0, Type 0, BuildingBlock: MIFKUJ_clean_sbu_0, # of connection points: 6
#     Node 1, Type 0, BuildingBlock: MIFKUJ_clean_sbu_0, # of connection points: 6
#     Node 2, Type 0, BuildingBlock: MIFKUJ_clean_sbu_0, # of connection points: 6
#     Node 3, Type 0, BuildingBlock: MIFKUJ_clean_sbu_0, # of connection points: 6
#     Node 4, Type 0, BuildingBlock: MIFKUJ_clean_sbu_0, # of connection points: 6
#     Node 5, Type 0, BuildingBlock: MIFKUJ_clean_sbu_0, # of connection points: 6
#     Node 6, Type 0, BuildingBlock: MIFKUJ_clean_sbu_0, # of connection points: 6
#     Node 7, Type 0, BuildingBlock: MIFKUJ_clean_sbu_0, # of connection points: 6
#     Node 8, Type 1, BuildingBlock: GIZVER_clean_sbu_0, # of connection points: 8
#     Node 9, Type 1, BuildingBlock: GIZVER_clean_sbu_0, # of connection points: 8
#     Node 10, Type 1, BuildingBlock: GIZVER_clean_sbu_0, # of connection points: 8
#     Node 11, Type 1, BuildingBlock: GIZVER_clean_sbu_0, # of connection points: 8
#     Node 12, Type 1, BuildingBlock: GIZVER_clean_sbu_0, # of connection points: 8
#     Node 13, Type 1, BuildingBlock: GIZVER_clean_sbu_0, # of connection points: 8
#     Edge 14, Type (0, 1), BuildingBlock: KIFKEQ_clean_linker_1, # of connection points: 2
#     Edge 15, Type (0, 1), BuildingBlock: KIFKEQ_clean_linker_1, # of connection points: 2
#     Edge 16, Type (0, 1), BuildingBlock: KIFKEQ_clean_linker_1, # of connection points: 2
#     Edge 17, Type (0, 1), BuildingBlock: KIFKEQ_clean_linker_1, # of connection points: 2
#     Edge 18, Type (0, 1), BuildingBlock: KIFKEQ_clean_linker_1, # of connection points: 2
#     Edge 19, Type (0, 1), BuildingBlock: KIFKEQ_clean_linker_1, # of connection points: 2
#     Edge 20, Type (0, 1), BuildingBlock: KIFKEQ_clean_linker_1, # of connection points: 2
#     Edge 21, Type (0, 1), BuildingBlock: KIFKEQ_clean_linker_1, # of connection points: 2
#     Edge 22, Type (0, 1), BuildingBlock: KIFKEQ_clean_linker_1, # of connection points: 2
#     Edge 23, Type (0, 1), BuildingBlock: KIFKEQ_clean_linker_1, # of connection points: 2
#     Edge 24, Type (0, 1), BuildingBlock: KIFKEQ_clean_linker_1, # of connection points: 2
#     Edge 25, Type (0, 1), BuildingBlock: KIFKEQ_clean_linker_1, # of connection points: 2
#     Edge 26, Type (0, 1), BuildingBlock: KIFKEQ_clean_linker_1, # of connection points: 2
#     Edge 27, Type (0, 1), BuildingBlock: KIFKEQ_clean_linker_1, # of connection points: 2
#     Edge 28, Type (0, 1), BuildingBlock: KIFKEQ_clean_linker_1, # of connection points: 2
#     Edge 29, Type (0, 1), BuildingBlock: KIFKEQ_clean_linker_1, # of connection points: 2
#     Edge 30, Type (0, 1), BuildingBlock: KIFKEQ_clean_linker_1, # of connection points: 2
#     Edge 31, Type (0, 1), BuildingBlock: KIFKEQ_clean_linker_1, # of connection points: 2
#     Edge 32, Type (0, 1), BuildingBlock: KIFKEQ_clean_linker_1, # of connection points: 2
#     Edge 33, Type (0, 1), BuildingBlock: KIFKEQ_clean_linker_1, # of connection points: 2
#     Edge 34, Type (0, 1), BuildingBlock: KIFKEQ_clean_linker_1, # of connection points: 2
#     Edge 35, Type (0, 1), BuildingBlock: KIFKEQ_clean_linker_1, # of connection points: 2
#     Edge 36, Type (0, 1), BuildingBlock: KIFKEQ_clean_linker_1, # of connection points: 2
#     Edge 37, Type (0, 1), BuildingBlock: KIFKEQ_clean_linker_1, # of connection points: 2
#     Edge 38, Type (0, 1), BuildingBlock: KIFKEQ_clean_linker_1, # of connection points: 2
#     Edge 39, Type (0, 1), BuildingBlock: KIFKEQ_clean_linker_1, # of connection points: 2
#     Edge 40, Type (0, 1), BuildingBlock: KIFKEQ_clean_linker_1, # of connection points: 2
#     Edge 41, Type (0, 1), BuildingBlock: KIFKEQ_clean_linker_1, # of connection points: 2
#     Edge 42, Type (0, 1), BuildingBlock: KIFKEQ_clean_linker_1, # of connection points: 2
#     Edge 43, Type (0, 1), BuildingBlock: KIFKEQ_clean_linker_1, # of connection points: 2
#     Edge 44, Type (0, 1), BuildingBlock: KIFKEQ_clean_linker_1, # of connection points: 2
#     Edge 45, Type (0, 1), BuildingBlock: KIFKEQ_clean_linker_1, # of connection points: 2
#     Edge 46, Type (0, 1), BuildingBlock: KIFKEQ_clean_linker_1, # of connection points: 2
#     Edge 47, Type (0, 1), BuildingBlock: KIFKEQ_clean_linker_1, # of connection points: 2
#     Edge 48, Type (0, 1), BuildingBlock: KIFKEQ_clean_linker_1, # of connection points: 2
#     Edge 49, Type (0, 1), BuildingBlock: KIFKEQ_clean_linker_1, # of connection points: 2
#     Edge 50, Type (0, 1), BuildingBlock: KIFKEQ_clean_linker_1, # of connection points: 2
#     Edge 51, Type (0, 1), BuildingBlock: KIFKEQ_clean_linker_1, # of connection points: 2
#     Edge 52, Type (0, 1), BuildingBlock: KIFKEQ_clean_linker_1, # of connection points: 2
#     Edge 53, Type (0, 1), BuildingBlock: KIFKEQ_clean_linker_1, # of connection points: 2
#     Edge 54, Type (0, 1), BuildingBlock: KIFKEQ_clean_linker_1, # of connection points: 2
#     Edge 55, Type (0, 1), BuildingBlock: KIFKEQ_clean_linker_1, # of connection points: 2
#     Edge 56, Type (0, 1), BuildingBlock: KIFKEQ_clean_linker_1, # of connection points: 2
#     Edge 57, Type (0, 1), BuildingBlock: KIFKEQ_clean_linker_1, # of connection points: 2
#     Edge 58, Type (0, 1), BuildingBlock: KIFKEQ_clean_linker_1, # of connection points: 2
#     Edge 59, Type (0, 1), BuildingBlock: KIFKEQ_clean_linker_1, # of connection points: 2
#     Edge 60, Type (0, 1), BuildingBlock: KIFKEQ_clean_linker_1, # of connection points: 2
#     Edge 61, Type (0, 1), BuildingBlock: KIFKEQ_clean_linker_1, # of connection points: 2
# Relax obj value: 0.108
# Max RMSD: 0.229
# Mean RMSD: 0.162
data_MOF--net-ocu--node1-MIFKUJ_clean_sbu_0--node2-GIZVER_clean_sbu_0--edge1-KIFKEQ_clean_linker_1
_symmetry_space_group_name_H-M    P1
_symmetry_Int_Tables_number       1
_symmetry_cell_setting            triclinic
loop_
_symmetry_equiv_pos_as_xyz
'x, y, z'
_cell_length_a     43.234471
_cell_length_b     46.150547
_cell_length_c     30.748591
_cell_angle_alpha  91.23763
_cell_angle_beta   93.924862
_cell_angle_gamma 107.07315
loop_
_atom_site_label
_atom_site_type_symbol
_atom_site_fract_x
_atom_site_fract_y
_atom_site_fract_z
_atom_type_partial_charge
Zn0 Zn 0.2247 0.28401 0.25888 0.0
Zn1 Zn 0.2814 0.22687 0.24919 0.0
C2 C 0.19225 0.30558 0.32296 0.0
O3 O 0.17202 0.27888 0.31085 0.0
C4 C 0.29936 0.1986 0.16895 0.0
O5 O 0.30143 0.22405 0.14939 0.0
O6 O 0.191 0.28941 0.21398 0.0
O7 O 0.26914 0.30148 0.23138 0.0
O8 O 0.29894 0.27 0.22433 0.0
C9 C 0.19526 0.29687 0.1748 0.0
O10 O 0.22281 0.29767 0.15858 0.0
O11 O 0.21974 0.3136 0.30681 0.0
C12 C 0.30327 0.19742 0.31583 0.0
O13 O 0.27605 0.17792 0.29957 0.0
O14 O 0.31238 0.22354 0.29996 0.0
O15 O 0.23569 0.20878 0.27273 0.0
O16 O 0.20641 0.24029 0.2811 0.0
O17 O 0.28976 0.19553 0.20728 0.0
C18 C 0.29455 0.29597 0.21876 0.0
C19 C 0.21018 0.21401 0.2851 0.0
Zn20 Zn 0.74245 0.2801 0.20912 0.0
Zn21 Zn 0.75401 0.22605 0.30515 0.0
C22 C 0.68973 0.29103 0.16487 0.0
O23 O 0.70078 0.27669 0.13504 0.0
C24 C 0.80217 0.20958 0.36098 0.0
O25 O 0.802 0.2336 0.38461 0.0
O26 O 0.7707 0.30253 0.16537 0.0
O27 O 0.77042 0.2977 0.26372 0.0
O28 O 0.77951 0.26949 0.31731 0.0
C29 C 0.7754 0.33088 0.17118 0.0
O30 O 0.7589 0.34045 0.19969 0.0
O31 O 0.70302 0.29424 0.20354 0.0
C32 C 0.71276 0.20261 0.37404 0.0
O33 O 0.73715 0.19365 0.39013 0.0
O34 O 0.71598 0.21822 0.34039 0.0
O35 O 0.73278 0.20708 0.24631 0.0
O36 O 0.7275 0.23603 0.19157 0.0
O37 O 0.7835 0.20202 0.32619 0.0
C38 C 0.78392 0.29508 0.30067 0.0
C39 C 0.72356 0.21006 0.20696 0.0
Zn40 Zn 0.7825 0.73257 0.23924 0.0
Zn41 Zn 0.71794 0.77576 0.26531 0.0
C42 C 0.81204 0.71274 0.31329 0.0
O43 O 0.83238 0.73971 0.30872 0.0
C44 C 0.67942 0.78702 0.18722 0.0
O45 O 0.66284 0.7582 0.18772 0.0
O46 O 0.80943 0.71983 0.19585 0.0
O47 O 0.73779 0.72618 0.20897 0.0
O48 O 0.70143 0.73021 0.25383 0.0
C49 C 0.79739 0.69391 0.17644 0.0
O50 O 0.7674 0.67829 0.18246 0.0
O51 O 0.7857 0.70439 0.28869 0.0
C52 C 0.70548 0.81799 0.32259 0.0
O53 O 0.72891 0.83464 0.30072 0.0
O54 O 0.69606 0.78938 0.31483 0.0
O55 O 0.76587 0.79426 0.27887 0.0
O56 O 0.80504 0.77534 0.26024 0.0
O57 O 0.70393 0.79767 0.21445 0.0
C58 C 0.71102 0.71485 0.22564 0.0
C59 C 0.7957 0.79619 0.27768 0.0
Zn60 Zn 0.22123 0.77011 0.26375 0.0
Zn61 Zn 0.28599 0.74383 0.22568 0.0
C62 C 0.17057 0.72156 0.28624 0.0
O63 O 0.15677 0.73212 0.25333 0.0
C64 C 0.28967 0.79867 0.17633 0.0
O65 O 0.27142 0.80543 0.20492 0.0
O66 O 0.19558 0.79989 0.27435 0.0
O67 O 0.26625 0.78924 0.28996 0.0
O68 O 0.30593 0.76884 0.28111 0.0
C69 C 0.20459 0.81788 0.30792 0.0
O70 O 0.23027 0.8173 0.3328 0.0
O71 O 0.2002 0.73459 0.29829 0.0
C72 C 0.30238 0.69916 0.17525 0.0
O73 O 0.27789 0.7031 0.15087 0.0
O74 O 0.31101 0.71421 0.21156 0.0
O75 O 0.23882 0.71906 0.22178 0.0
O76 O 0.21562 0.75366 0.20141 0.0
O77 O 0.29572 0.77336 0.17772 0.0
C78 C 0.29531 0.78903 0.29819 0.0
C79 C 0.21739 0.72668 0.19826 0.0
Zn80 Zn 0.25265 0.78131 0.69131 0.0
Zn81 Zn 0.25981 0.72003 0.78721 0.0
C82 C 0.21358 0.80795 0.64098 0.0
O83 O 0.22917 0.79782 0.61181 0.0
C84 C 0.32171 0.70951 0.81376 0.0
O85 O 0.33124 0.73829 0.82669 0.0
O86 O 0.28985 0.80267 0.66015 0.0
O87 O 0.27137 0.78382 0.75607 0.0
O88 O 0.27758 0.76112 0.81709 0.0
C89 C 0.31445 0.79331 0.65782 0.0
O90 O 0.3137 0.76634 0.67131 0.0
O91 O 0.2193 0.80364 0.6811 0.0
C92 C 0.21536 0.6671 0.80259 0.0
O93 O 0.23467 0.65828 0.77765 0.0
O94 O 0.22144 0.695 0.81335 0.0
O95 O 0.24561 0.72501 0.72592 0.0
O96 O 0.23311 0.73941 0.66272 0.0
O97 O 0.29389 0.69833 0.79364 0.0
C98 C 0.28276 0.78517 0.79587 0.0
C99 C 0.23186 0.71793 0.68788 0.0
Zn100 Zn 0.28675 0.22271 0.74619 0.0
Zn101 Zn 0.22645 0.27994 0.75651 0.0
C102 C 0.31514 0.20684 0.82909 0.0
O103 O 0.32547 0.23608 0.83909 0.0
C104 C 0.18313 0.29575 0.69871 0.0
O105 O 0.16446 0.27456 0.72117 0.0
O106 O 0.30893 0.21106 0.69554 0.0
O107 O 0.23884 0.2071 0.73116 0.0
O108 O 0.20646 0.23605 0.73853 0.0
C109 C 0.29924 0.18279 0.68513 0.0
O110 O 0.27534 0.16531 0.70535 0.0
O111 O 0.29771 0.19731 0.79373 0.0
C112 C 0.21469 0.31646 0.82764 0.0
O113 O 0.24498 0.33213 0.8237 0.0
O114 O 0.2025 0.29182 0.805 0.0
O115 O 0.27459 0.2958 0.77188 0.0
O116 O 0.30688 0.26651 0.7654 0.0
O117 O 0.21376 0.30256 0.7066 0.0
C118 C 0.21081 0.21073 0.72885 0.0
C119 C 0.30258 0.29195 0.77478 0.0
Zn120 Zn 0.72067 0.26161 0.77417 0.0
Zn121 Zn 0.78481 0.23905 0.73508 0.0
C122 C 0.70527 0.2214 0.84848 0.0
O123 O 0.7058 0.24559 0.87214 0.0
C124 C 0.83616 0.28309 0.70037 0.0
O125 O 0.85212 0.2663 0.72018 0.0
O126 O 0.69351 0.28716 0.79752 0.0
O127 O 0.76738 0.28825 0.78088 0.0
O128 O 0.79139 0.25364 0.79798 0.0
C129 C 0.70552 0.30637 0.8292 0.0
O130 O 0.73509 0.30914 0.84589 0.0
O131 O 0.71346 0.22432 0.80955 0.0
C132 C 0.79987 0.19244 0.68654 0.0
O133 O 0.77613 0.19647 0.66076 0.0
O134 O 0.80861 0.20819 0.72226 0.0
O135 O 0.73953 0.21969 0.7108 0.0
O136 O 0.70153 0.24265 0.71464 0.0
O137 O 0.80547 0.27575 0.70126 0.0
C138 C 0.78949 0.28048 0.80271 0.0
C139 C 0.71095 0.2207 0.70086 0.0
Zn140 Zn 0.72617 0.77832 0.75747 0.0
Zn141 Zn 0.78421 0.72283 0.74819 0.0
C142 C 0.69518 0.79759 0.82587 0.0
O143 O 0.6767 0.76953 0.81827 0.0
C144 C 0.81289 0.70299 0.678 0.0
O145 O 0.83284 0.73024 0.68752 0.0
O146 O 0.69272 0.78354 0.71083 0.0
O147 O 0.77139 0.79789 0.73388 0.0
O148 O 0.80166 0.76709 0.72698 0.0
C149 C 0.7013 0.79758 0.6764 0.0
O150 O 0.73192 0.8049 0.66794 0.0
O151 O 0.72043 0.80705 0.80508 0.0
C152 C 0.81588 0.70972 0.83027 0.0
O153 O 0.78971 0.71103 0.84857 0.0
O154 O 0.81884 0.71622 0.79051 0.0
O155 O 0.74066 0.70386 0.77669 0.0
O156 O 0.70992 0.73453 0.78094 0.0
O157 O 0.78724 0.69426 0.69821 0.0
C158 C 0.79734 0.79312 0.72233 0.0
C159 C 0.71476 0.70892 0.78797 0.0
Co160 Co 0.03688 0.94943 0.47726 0.0
Co161 Co 0.03782 0.96269 0.55831 0.0
Co162 Co 1.00247 0.00359 0.50223 0.0
O163 O 0.03902 0.98569 0.51015 0.0
H164 H 0.05989 1.00085 0.51006 0.0
O165 O 0.96545 0.0209 0.49389 0.0
Co166 Co 0.96483 0.05531 0.52848 0.0
Co167 Co 0.96741 0.04562 0.44785 0.0
H168 H 0.94481 0.00525 0.49188 0.0
O169 O 0.07618 0.96004 0.5841 0.0
O170 O 0.04295 0.92836 0.53175 0.0
O171 O 0.99806 0.94969 0.58571 0.0
O172 O 0.97072 0.97206 0.5399 0.0
O173 O 0.02146 0.03078 0.55476 0.0
O174 O 0.96134 0.08551 0.56195 0.0
O175 O 0.9215 0.04454 0.53404 0.0
O176 O 0.01007 0.07082 0.52815 0.0
O177 O 0.03433 0.03519 0.46474 0.0
O178 O 0.00793 0.06095 0.42338 0.0
O179 O 0.95874 0.07774 0.47545 0.0
O180 O 0.92964 0.04688 0.41936 0.0
C181 C 0.06878 0.93241 0.44701 0.0
C182 C 0.97521 0.94801 0.45298 0.0
C183 C 0.97159 0.95374 0.57115 0.0
C184 C 0.06865 0.93544 0.55932 0.0
C185 C 0.93094 0.06973 0.55807 0.0
C186 C 0.02762 0.05947 0.55315 0.0
C187 C 0.03397 0.05532 0.43597 0.0
C188 C 0.93426 0.07039 0.44583 0.0
O189 O 0.03809 0.91761 0.44535 0.0
O190 O 0.07984 0.95809 0.46978 0.0
O191 O 0.98369 0.97664 0.44968 0.0
O192 O 0.99136 0.93585 0.47898 0.0
Co193 Co 0.5354 0.9433 0.97804 0.0
Co194 Co 0.54101 0.96325 0.05807 0.0
Co195 Co 0.50199 0.99988 1.00086 0.0
O196 O 0.53846 0.98163 0.00591 0.0
H197 H 0.55908 0.99647 0.00238 0.0
O198 O 0.46536 0.01794 0.99563 0.0
Co199 Co 0.4661 0.05492 0.02614 0.0
Co200 Co 0.46434 0.03835 0.94489 0.0
H201 H 0.44472 0.00262 0.99702 0.0
O202 O 0.58005 0.95925 0.08052 0.0
O203 O 0.54176 0.92584 0.03586 0.0
O204 O 0.50412 0.95572 0.09178 0.0
O205 O 0.47409 0.97133 0.04099 0.0
O206 O 0.52436 0.02878 0.05072 0.0
O207 O 0.46296 0.08758 0.05524 0.0
O208 O 0.42259 0.04593 0.0314 0.0
O209 O 0.51222 0.06928 0.02618 0.0
O210 O 0.53025 0.02864 0.96118 0.0
O211 O 0.50235 0.04846 0.91295 0.0
O212 O 0.46056 0.07388 0.96956 0.0
O213 O 0.42539 0.04077 0.92079 0.0
C214 C 0.5674 0.92348 0.95295 0.0
C215 C 0.47173 0.94213 0.95489 0.0
C216 C 0.4769 0.95737 0.07573 0.0
C217 C 0.56903 0.93278 0.0604 0.0
C218 C 0.43224 0.0726 0.05175 0.0
C219 C 0.53134 0.05752 0.04788 0.0
C220 C 0.52883 0.04484 0.92842 0.0
C221 C 0.43392 0.06625 0.9437 0.0
O222 O 0.53648 0.90936 0.95138 0.0
O223 O 0.57834 0.95085 0.97088 0.0
O224 O 0.47963 0.97083 0.95086 0.0
O225 O 0.48922 0.93048 0.97984 0.0
Co226 Co 0.03822 0.44584 0.98426 0.0
Co227 Co 0.04673 0.46865 0.06273 0.0
Co228 Co 0.00307 0.50205 0.00455 0.0
O229 O 0.04074 0.48496 0.00932 0.0
H230 H 0.06065 0.50001 0.00331 0.0
O231 O 0.96547 0.51908 1.00012 0.0
Co232 Co 0.96934 0.55935 0.02122 0.0
Co233 Co 0.95754 0.5319 0.94505 0.0
H234 H 0.94587 0.50465 0.00848 0.0
O235 O 0.08675 0.46603 0.08391 0.0
O236 O 0.04786 0.43106 0.0424 0.0
O237 O 0.01195 0.46186 0.10003 0.0
O238 O 0.98056 0.47912 0.05318 0.0
O239 O 0.02892 0.53566 0.04615 0.0
O240 O 0.96917 0.59528 0.04238 0.0
O241 O 0.92747 0.5523 0.03319 0.0
O242 O 0.01392 0.57184 0.01276 0.0
O243 O 0.02536 0.52499 0.95564 0.0
O244 O 0.98992 0.53353 0.90509 0.0
O245 O 0.9595 0.57134 0.96136 0.0
O246 O 0.91769 0.53604 0.92526 0.0
C247 C 0.06986 0.42621 0.95774 0.0
C248 C 0.97312 0.44051 0.96828 0.0
C249 C 0.98506 0.46614 0.08813 0.0
C250 C 0.07546 0.43885 0.06601 0.0
C251 C 0.93875 0.5809 0.04591 0.0
C252 C 0.03352 0.56361 0.03875 0.0
C253 C 0.0183 0.53314 0.91782 0.0
C254 C 0.93111 0.56387 0.93975 0.0
O255 O 0.03943 0.41127 0.95971 0.0
O256 O 0.08053 0.45437 0.97282 0.0
O257 O 0.97709 0.46861 0.96279 0.0
O258 O 0.99356 0.43173 0.99194 0.0
Co259 Co 0.53919 0.44662 0.98795 0.0
Co260 Co 0.54174 0.46801 0.06691 0.0
Co261 Co 0.50489 0.50274 0.00484 0.0
O262 O 0.542 0.48556 0.01367 0.0
H263 H 0.56271 0.50045 0.01082 0.0
O264 O 0.46776 0.51979 0.99616 0.0
Co265 Co 0.46979 0.55825 0.02244 0.0
Co266 Co 0.4684 0.53833 0.94436 0.0
H267 H 0.44706 0.5047 0.99823 0.0
O268 O 0.5793 0.46433 0.09377 0.0
O269 O 0.54329 0.43051 0.04679 0.0
O270 O 0.50361 0.46011 0.09824 0.0
O271 O 0.47362 0.47177 0.04373 0.0
O272 O 0.52356 0.5314 0.05573 0.0
O273 O 0.46862 0.59243 0.04799 0.0
O274 O 0.42665 0.55097 0.02888 0.0
O275 O 0.51553 0.57073 0.02197 0.0
O276 O 0.53635 0.53365 0.96593 0.0
O277 O 0.50652 0.54725 0.91315 0.0
O278 O 0.46402 0.57492 0.96364 0.0
O279 O 0.43061 0.53873 0.91653 0.0
C280 C 0.57074 0.42538 0.96471 0.0
C281 C 0.4789 0.44564 0.95807 0.0
C282 C 0.47595 0.45846 0.07999 0.0
C283 C 0.56899 0.43759 0.07429 0.0
C284 C 0.43781 0.57826 0.04726 0.0
C285 C 0.53124 0.55991 0.05066 0.0
C286 C 0.53412 0.5478 0.93042 0.0
C287 C 0.43908 0.56593 0.93465 0.0
O288 O 0.53975 0.41188 0.96345 0.0
O289 O 0.58233 0.45286 0.98238 0.0
O290 O 0.48609 0.47419 0.95375 0.0
O291 O 0.49374 0.43508 0.98797 0.0
Co292 Co 0.06284 0.47146 0.52149 0.0
Co293 Co 0.04277 0.4721 0.44272 0.0
Co294 Co 0.00389 0.50669 0.50154 0.0
O295 O 0.0225 0.47223 0.49291 0.0
H296 H 0.00605 0.45294 0.49424 0.0
O297 O 0.98453 0.54064 0.50995 0.0
Co298 Co 0.94221 0.5391 0.4836 0.0
Co299 Co 0.96617 0.54041 0.56243 0.0
H300 H 1.00024 0.56017 0.50702 0.0
O301 O 0.04211 0.43625 0.41589 0.0
O302 O 0.08087 0.46566 0.46446 0.0
O303 O 0.05334 0.50873 0.41349 0.0
O304 O 0.03005 0.53375 0.45782 0.0
O305 O 0.96911 0.48675 0.45507 0.0
O306 O 0.90471 0.54122 0.45843 0.0
O307 O 0.95038 0.57947 0.4757 0.0
O308 O 0.92809 0.49601 0.48634 0.0
O309 O 0.97771 0.47944 0.54498 0.0
O310 O 0.95832 0.50427 0.59413 0.0
O311 O 0.92648 0.54435 0.54206 0.0
O312 O 0.96521 0.57619 0.58809 0.0
C313 C 0.08136 0.43899 0.54681 0.0
C314 C 0.06942 0.53156 0.54445 0.0
C315 C 0.04724 0.53266 0.42595 0.0
C316 C 0.07052 0.44215 0.43698 0.0
C317 C 0.92029 0.57002 0.45906 0.0
C318 C 0.93894 0.47965 0.46108 0.0
C319 C 0.96254 0.48006 0.57909 0.0
C320 C 0.93639 0.56871 0.56789 0.0
O321 O 0.09841 0.46742 0.54918 0.0
O322 O 0.05187 0.43106 0.52813 0.0
O323 O 0.03907 0.52693 0.54818 0.0
O324 O 0.07928 0.51422 0.51961 0.0
Co325 Co 0.56325 0.96835 0.52434 0.0
Co326 Co 0.54124 0.96727 0.44461 0.0
Co327 Co 0.50398 0.00258 0.50323 0.0
O328 O 0.5225 0.96845 0.49615 0.0
H329 H 0.50615 0.94924 0.49869 0.0
O330 O 0.48567 0.0369 0.5098 0.0
Co331 Co 0.44452 0.03624 0.48266 0.0
Co332 Co 0.46843 0.03957 0.56147 0.0
H333 H 0.50187 0.05603 0.50617 0.0
O334 O 0.5405 0.93064 0.42055 0.0
O335 O 0.57983 0.96193 0.46661 0.0
O336 O 0.5485 0.00239 0.4101 0.0
O337 O 0.52843 0.02759 0.45789 0.0
O338 O 0.4692 0.98187 0.45838 0.0
O339 O 0.40825 0.03971 0.45616 0.0
O340 O 0.45518 0.07641 0.474 0.0
O341 O 0.42801 0.99291 0.48641 0.0
O342 O 0.47944 0.97765 0.54889 0.0
O343 O 0.46372 0.00595 0.59761 0.0
O344 O 0.42882 0.04332 0.54073 0.0
O345 O 0.46872 0.07644 0.58396 0.0
C346 C 0.58163 0.93567 0.55001 0.0
C347 C 0.56866 0.03037 0.54177 0.0
C348 C 0.5425 0.02626 0.42325 0.0
C349 C 0.56909 0.93728 0.44135 0.0
C350 C 0.42541 0.0681 0.4564 0.0
C351 C 0.43932 0.97474 0.46515 0.0
C352 C 0.46773 0.98109 0.58487 0.0
C353 C 0.43951 0.06853 0.56482 0.0
O354 O 0.5991 0.96402 0.55144 0.0
O355 O 0.552 0.92799 0.53197 0.0
O356 O 0.53871 0.02328 0.54815 0.0
O357 O 0.58032 0.01186 0.52184 0.0
H358 H 0.21143 0.15606 0.30681 0.0
H359 H 0.15132 0.21552 0.31385 0.0
H360 H 0.17253 0.11791 0.34545 0.0
H361 H 0.11191 0.17722 0.35084 0.0
H362 H 0.05534 0.11638 0.44828 0.0
H363 H 0.09787 0.15324 0.41381 0.0
H364 H 0.1229 0.08019 0.34895 0.0
H365 H 0.08058 0.04318 0.38547 0.0
C366 C 0.18985 0.16109 0.31626 0.0
C367 C 0.18511 0.18945 0.30701 0.0
C368 C 0.16716 0.13888 0.33847 0.0
C369 C 0.13857 0.14392 0.35237 0.0
C370 C 0.13366 0.17213 0.34225 0.0
C371 C 0.15639 0.19434 0.32032 0.0
C372 C 0.07039 0.1081 0.42738 0.0
C373 C 0.06457 0.0766 0.4204 0.0
C374 C 0.09468 0.12943 0.40673 0.0
C375 C 0.11408 0.12036 0.3772 0.0
C376 C 0.109 0.08864 0.37135 0.0
C377 C 0.08468 0.06715 0.39256 0.0
H378 H 0.82051 0.16872 0.31221 0.0
H379 H 0.82828 0.20643 0.44373 0.0
H380 H 0.85173 0.13531 0.33658 0.0
H381 H 0.85868 0.17198 0.4687 0.0
H382 H 0.94266 0.1273 0.48228 0.0
H383 H 0.91027 0.16146 0.46442 0.0
H384 H 0.84496 0.09138 0.37834 0.0
H385 H 0.87766 0.05785 0.39496 0.0
C386 C 0.82874 0.16969 0.34644 0.0
C387 C 0.82194 0.1901 0.37607 0.0
C388 C 0.84644 0.15039 0.36052 0.0
C389 C 0.85735 0.15068 0.40473 0.0
C390 C 0.85085 0.17137 0.43439 0.0
C391 C 0.83341 0.19103 0.42012 0.0
C392 C 0.92128 0.11922 0.45971 0.0
C393 C 0.9131 0.09013 0.4393 0.0
C394 C 0.90263 0.13871 0.44967 0.0
C395 C 0.87542 0.12935 0.41924 0.0
C396 C 0.86633 0.09964 0.40089 0.0
C397 C 0.88501 0.08033 0.41062 0.0
H398 H 0.78771 0.831 0.34597 0.0
H399 H 0.85885 0.82016 0.25979 0.0
H400 H 0.82972 0.87101 0.38804 0.0
H401 H 0.90058 0.8608 0.30149 0.0
H402 H 0.95041 0.95909 0.37337 0.0
H403 H 0.90475 0.92494 0.32795 0.0
H404 H 0.8893 0.8602 0.42935 0.0
H405 H 0.93541 0.89369 0.47424 0.0
C406 C 0.81211 0.83766 0.33542 0.0
C407 C 0.82011 0.82255 0.29966 0.0
C408 C 0.83602 0.86039 0.35954 0.0
C409 C 0.86802 0.86878 0.34757 0.0
C410 C 0.87585 0.85468 0.31083 0.0
C411 C 0.8521 0.83146 0.28724 0.0
C412 C 0.93706 0.93766 0.386 0.0
C413 C 0.94644 0.9288 0.42704 0.0
C414 C 0.91114 0.91826 0.36009 0.0
C415 C 0.89384 0.89024 0.37553 0.0
C416 C 0.90241 0.88186 0.41713 0.0
C417 C 0.92877 0.90088 0.44256 0.0
H418 H 0.22675 0.87429 0.34648 0.0
H419 H 0.13871 0.80447 0.3028 0.0
H420 H 0.1951 0.9046 0.37668 0.0
H421 H 0.10681 0.8334 0.33574 0.0
H422 H 0.0536 0.89887 0.37126 0.0
H423 H 0.08687 0.87397 0.33349 0.0
H424 H 0.16511 0.90899 0.43401 0.0
H425 H 0.13214 0.93574 0.4699 0.0
C426 C 0.20051 0.86552 0.34333 0.0
C427 C 0.18509 0.83725 0.32199 0.0
C428 C 0.1823 0.88269 0.36115 0.0
C429 C 0.14821 0.87157 0.35918 0.0
C430 C 0.13289 0.84326 0.33724 0.0
C431 C 0.15112 0.8265 0.31836 0.0
C432 C 0.07809 0.90149 0.38495 0.0
C433 C 0.09036 0.91921 0.42345 0.0
C434 C 0.09714 0.88691 0.36352 0.0
C435 C 0.12876 0.88897 0.38069 0.0
C436 C 0.14115 0.90716 0.41914 0.0
C437 C 0.12226 0.92243 0.43999 0.0
H438 H 0.16573 0.8195 0.68632 0.0
H439 H 0.20961 0.83428 0.56338 0.0
H440 H 0.1284 0.84809 0.66202 0.0
H441 H 0.1729 0.86332 0.53992 0.0
H442 H 0.13402 0.95018 0.56354 0.0
H443 H 0.16784 0.91696 0.58049 0.0
H444 H 0.08175 0.84132 0.58805 0.0
H445 H 0.04778 0.87441 0.56919 0.0
C446 C 0.16738 0.8288 0.65422 0.0
C447 C 0.19062 0.82474 0.62681 0.0
C448 C 0.14594 0.84491 0.64028 0.0
C449 C 0.14789 0.85767 0.59914 0.0
C450 C 0.171 0.85358 0.57174 0.0
C451 C 0.19194 0.83699 0.58524 0.0
C452 C 0.12242 0.92635 0.56818 0.0
C453 C 0.08849 0.91468 0.56504 0.0
C454 C 0.14167 0.90744 0.57783 0.0
C455 C 0.12724 0.8768 0.58579 0.0
C456 C 0.09327 0.86496 0.58212 0.0
C457 C 0.07397 0.88373 0.57111 0.0
H458 H 0.21113 0.15529 0.69548 0.0
H459 H 0.14714 0.20958 0.71872 0.0
H460 H 0.16653 0.11728 0.65522 0.0
H461 H 0.10249 0.17124 0.67921 0.0
H462 H 0.04699 0.12115 0.55553 0.0
H463 H 0.09046 0.15555 0.60198 0.0
H464 H 0.11322 0.07924 0.66049 0.0
H465 H 0.06971 0.04444 0.61316 0.0
C466 C 0.18748 0.15893 0.69268 0.0
C467 C 0.18286 0.18572 0.70987 0.0
C468 C 0.16189 0.13704 0.66973 0.0
C469 C 0.13116 0.14149 0.66362 0.0
C470 C 0.12612 0.16751 0.68268 0.0
C471 C 0.15168 0.1894 0.70554 0.0
C472 C 0.06118 0.11159 0.57827 0.0
C473 C 0.05476 0.08003 0.58085 0.0
C474 C 0.08596 0.13135 0.60515 0.0
C475 C 0.10493 0.12008 0.6353 0.0
C476 C 0.09896 0.08854 0.63748 0.0
C477 C 0.07403 0.06865 0.6105 0.0
H478 H 0.86354 0.19621 0.70496 0.0
H479 H 0.77527 0.14128 0.63472 0.0
H480 H 0.89319 0.16409 0.67483 0.0
H481 H 0.80421 0.10774 0.60668 0.0
H482 H 0.87328 0.07555 0.52366 0.0
H483 H 0.84049 0.10386 0.55659 0.0
H484 H 0.90392 0.11835 0.67537 0.0
H485 H 0.93764 0.09212 0.64088 0.0
C486 C 0.85037 0.17676 0.68388 0.0
C487 C 0.81719 0.17119 0.67218 0.0
C488 C 0.86729 0.15815 0.66667 0.0
C489 C 0.85121 0.13305 0.63818 0.0
C490 C 0.81767 0.1271 0.62767 0.0
C491 C 0.80096 0.14615 0.64408 0.0
C492 C 0.8797 0.08444 0.55703 0.0
C493 C 0.90779 0.08171 0.5799 0.0
C494 C 0.86095 0.10066 0.57608 0.0
C495 C 0.86959 0.11382 0.61875 0.0
C496 C 0.89688 0.10945 0.64214 0.0
C497 C 0.91602 0.09403 0.62266 0.0
H498 H 0.85679 0.79265 0.69428 0.0
H499 H 0.79484 0.85049 0.69981 0.0
H500 H 0.89564 0.83127 0.65696 0.0
H501 H 0.83332 0.88906 0.66113 0.0
H502 H 0.92437 0.96496 0.6213 0.0
H503 H 0.88251 0.92746 0.6578 0.0
H504 H 0.90942 0.85522 0.59374 0.0
H505 H 0.95156 0.89261 0.55932 0.0
C506 C 0.85122 0.81355 0.68743 0.0
C507 C 0.82217 0.8179 0.70041 0.0
C508 C 0.87363 0.83594 0.66534 0.0
C509 C 0.86809 0.86384 0.65482 0.0
C510 C 0.83917 0.86836 0.66842 0.0
C511 C 0.81676 0.84593 0.69069 0.0
C512 C 0.92079 0.94105 0.61437 0.0
C513 C 0.94127 0.932 0.58671 0.0
C514 C 0.89673 0.91928 0.63557 0.0
C515 C 0.89229 0.88765 0.62993 0.0
C516 C 0.91209 0.87895 0.60062 0.0
C517 C 0.93614 0.90058 0.57996 0.0
H518 H 0.3195 0.15521 0.21145 0.0
H519 H 0.31137 0.19052 0.08357 0.0
H520 H 0.34849 0.12184 0.18258 0.0
H521 H 0.33989 0.15638 0.05453 0.0
H522 H 0.36988 0.06765 0.01963 0.0
H523 H 0.33397 0.09577 0.04605 0.0
H524 H 0.40635 0.13756 0.15036 0.0
H525 H 0.44245 0.11054 0.12323 0.0
C526 C 0.32327 0.15544 0.17698 0.0
C527 C 0.31315 0.17565 0.14983 0.0
C528 C 0.34002 0.13638 0.16053 0.0
C529 C 0.34647 0.13656 0.11637 0.0
C530 C 0.33505 0.15566 0.08866 0.0
C531 C 0.31884 0.17525 0.10533 0.0
C532 C 0.3779 0.08267 0.04837 0.0
C533 C 0.40892 0.08688 0.06944 0.0
C534 C 0.35748 0.09885 0.06331 0.0
C535 C 0.36736 0.11874 0.10035 0.0
C536 C 0.398 0.12222 0.12196 0.0
C537 C 0.41867 0.10679 0.10638 0.0
H538 H 0.82091 0.31859 0.12247 0.0
H539 H 0.79399 0.39222 0.18316 0.0
H540 H 0.87267 0.35409 0.10684 0.0
H541 H 0.84585 0.42737 0.16818 0.0
H542 H 0.92948 0.48196 0.0878 0.0
H543 H 0.87691 0.44974 0.10598 0.0
H544 H 0.92204 0.38365 0.155 0.0
H545 H 0.97476 0.41566 0.13599 0.0
C546 C 0.82584 0.34236 0.13193 0.0
C547 C 0.80363 0.35262 0.15444 0.0
C548 C 0.85556 0.36254 0.12349 0.0
C549 C 0.86336 0.3932 0.13732 0.0
C550 C 0.84039 0.40377 0.15744 0.0
C551 C 0.81072 0.38364 0.16591 0.0
C552 C 0.92829 0.46088 0.10345 0.0
C553 C 0.95605 0.45114 0.11028 0.0
C554 C 0.89823 0.44247 0.11372 0.0
C555 C 0.89552 0.41406 0.131 0.0
C556 C 0.92359 0.40527 0.14081 0.0
C557 C 0.95375 0.42377 0.13068 0.0
H558 H 0.69512 0.84855 0.19776 0.0
H559 H 0.63435 0.77296 0.11663 0.0
H560 H 0.66979 0.88241 0.16066 0.0
H561 H 0.60993 0.80729 0.07739 0.0
H562 H 0.54453 0.87085 0.06028 0.0
H563 H 0.57323 0.83507 0.08479 0.0
H564 H 0.66317 0.90827 0.09942 0.0
H565 H 0.63396 0.94395 0.07767 0.0
C566 C 0.67687 0.83925 0.17115 0.0
C567 C 0.66674 0.80799 0.16028 0.0
C568 C 0.66236 0.8588 0.1495 0.0
C569 C 0.63764 0.84782 0.11569 0.0
C570 C 0.6284 0.81663 0.10368 0.0
C571 C 0.64261 0.79693 0.12594 0.0
C572 C 0.57049 0.87911 0.06834 0.0
C573 C 0.5869 0.91023 0.06799 0.0
C574 C 0.58709 0.85858 0.08222 0.0
C575 C 0.6206 0.8687 0.09518 0.0
C576 C 0.63725 0.89962 0.09139 0.0
C577 C 0.62055 0.92013 0.07853 0.0
H578 H 0.17589 0.73341 0.13093 0.0
H579 H 0.19897 0.6661 0.21184 0.0
H580 H 0.13261 0.69378 0.09099 0.0
H581 H 0.15469 0.62671 0.17386 0.0
H582 H 0.09162 0.55793 0.07237 0.0
H583 H 0.13691 0.59749 0.10927 0.0
H584 H 0.081 0.66116 0.09629 0.0
H585 H 0.03696 0.62226 0.05727 0.0
C586 C 0.17147 0.71015 0.14039 0.0
C587 C 0.19084 0.70284 0.17433 0.0
C588 C 0.14652 0.68739 0.11774 0.0
C589 C 0.13996 0.65688 0.12913 0.0
C590 C 0.15933 0.64974 0.16343 0.0
C591 C 0.18463 0.67241 0.18548 0.0
C592 C 0.08922 0.58046 0.07737 0.0
C593 C 0.0609 0.58708 0.06177 0.0
C594 C 0.11505 0.60313 0.09876 0.0
C595 C 0.11279 0.6327 0.1058 0.0
C596 C 0.08411 0.63899 0.09061 0.0
C597 C 0.05868 0.61657 0.06847 0.0
H598 H 0.34056 0.8147 0.76711 0.0
H599 H 0.28109 0.81435 0.87352 0.0
H600 H 0.38393 0.85677 0.80345 0.0
H601 H 0.32533 0.85482 0.91202 0.0
H602 H 0.43201 0.88918 0.98187 0.0
H603 H 0.38386 0.85453 0.94225 0.0
H604 H 0.39568 0.91425 0.8346 0.0
H605 H 0.44349 0.94952 0.8749 0.0
C606 C 0.33614 0.82501 0.79701 0.0
C607 C 0.30667 0.81297 0.81584 0.0
C608 C 0.36123 0.84846 0.8185 0.0
C609 C 0.35789 0.85941 0.8604 0.0
C610 C 0.32847 0.84707 0.87958 0.0
C611 C 0.30312 0.82409 0.8575 0.0
C612 C 0.4242 0.89505 0.94989 0.0
C613 C 0.44159 0.92205 0.93147 0.0
C614 C 0.39652 0.8753 0.92733 0.0
C615 C 0.38596 0.88169 0.88535 0.0
C616 C 0.40326 0.90875 0.86691 0.0
C617 C 0.43051 0.92895 0.89001 0.0
H618 H 0.23297 0.36126 0.89206 0.0
H619 H 0.14893 0.30358 0.81604 0.0
H620 H 0.19871 0.3875 0.92607 0.0
H621 H 0.115 0.33055 0.84813 0.0
H622 H 0.05599 0.36589 0.93784 0.0
H623 H 0.0913 0.33855 0.91124 0.0
H624 H 0.16913 0.42258 0.91135 0.0
H625 H 0.13382 0.44994 0.94022 0.0
C626 C 0.20713 0.3541 0.88281 0.0
C627 C 0.19361 0.33019 0.85167 0.0
C628 C 0.18753 0.36936 0.90192 0.0
C629 C 0.15401 0.36133 0.88983 0.0
C630 C 0.14053 0.33708 0.85904 0.0
C631 C 0.16003 0.32155 0.8405 0.0
C632 C 0.08063 0.37866 0.93221 0.0
C633 C 0.09198 0.41021 0.94083 0.0
C634 C 0.10092 0.36291 0.91667 0.0
C635 C 0.13309 0.37827 0.90859 0.0
C636 C 0.14462 0.40987 0.9176 0.0
C637 C 0.12432 0.42565 0.93378 0.0
H638 H 0.68517 0.20511 0.92942 0.0
H639 H 0.68487 0.16858 0.79863 0.0
H640 H 0.64678 0.15726 0.9476 0.0
H641 H 0.64637 0.12106 0.81687 0.0
H642 H 0.53837 0.07325 0.85113 0.0
H643 H 0.58708 0.11204 0.83256 0.0
H644 H 0.63713 0.1 0.95407 0.0
H645 H 0.58865 0.06101 0.9726 0.0
C646 C 0.67753 0.18669 0.90489 0.0
C647 C 0.68779 0.19082 0.86247 0.0
C648 C 0.65563 0.15927 0.91534 0.0
C649 C 0.64335 0.13564 0.88341 0.0
C650 C 0.65521 0.13906 0.8419 0.0
C651 C 0.6774 0.16626 0.83162 0.0
C652 C 0.56 0.07836 0.87338 0.0
C653 C 0.55961 0.06407 0.91327 0.0
C654 C 0.58791 0.10048 0.86271 0.0
C655 C 0.6158 0.10906 0.892 0.0
C656 C 0.61591 0.09388 0.93103 0.0
C657 C 0.58819 0.0714 0.94139 0.0
H658 H 0.81863 0.69321 0.91543 0.0
H659 H 0.86298 0.69106 0.79395 0.0
H660 H 0.849 0.66022 0.94673 0.0
H661 H 0.89238 0.65778 0.82512 0.0
H662 H 0.87963 0.55865 0.88072 0.0
H663 H 0.85533 0.59811 0.85876 0.0
H664 H 0.92153 0.66179 0.95176 0.0
H665 H 0.94712 0.62271 0.97272 0.0
C666 C 0.83524 0.68625 0.89573 0.0
C667 C 0.83817 0.69459 0.85209 0.0
C668 C 0.85256 0.66745 0.91368 0.0
C669 C 0.87268 0.6565 0.88804 0.0
C670 C 0.8769 0.66602 0.84533 0.0
C671 C 0.86008 0.68511 0.82763 0.0
C672 C 0.88898 0.58096 0.89678 0.0
C673 C 0.91523 0.58745 0.92867 0.0
C674 C 0.87507 0.60348 0.88414 0.0
C675 C 0.88665 0.63275 0.90371 0.0
C676 C 0.91222 0.63924 0.93643 0.0
C677 C 0.92673 0.61685 0.9484 0.0
H678 H 0.19615 0.31678 0.09121 0.0
H679 H 0.14331 0.30974 0.20697 0.0
H680 H 0.16475 0.34872 0.05941 0.0
H681 H 0.11284 0.342 0.17537 0.0
H682 H 0.12405 0.44325 0.1293 0.0
H683 H 0.14946 0.40439 0.15023 0.0
H684 H 0.09125 0.34373 0.04727 0.0
H685 H 0.06447 0.38214 0.02714 0.0
C686 C 0.17745 0.32145 0.10944 0.0
C687 C 0.17248 0.31095 0.1518 0.0
C688 C 0.15954 0.33965 0.0912 0.0
C689 C 0.13673 0.34779 0.11527 0.0
C690 C 0.13042 0.33594 0.15639 0.0
C691 C 0.14789 0.31746 0.17434 0.0
C692 C 0.11673 0.42177 0.1108 0.0
C693 C 0.09233 0.4159 0.07635 0.0
C694 C 0.13125 0.39958 0.12289 0.0
C695 C 0.12219 0.3713 0.10025 0.0
C696 C 0.09858 0.36551 0.065 0.0
C697 C 0.08341 0.38752 0.0535 0.0
H698 H 0.2032 0.6062 0.80552 0.0
H699 H 0.16064 0.67885 0.82574 0.0
H700 H 0.15334 0.56945 0.82514 0.0
H701 H 0.11088 0.64209 0.84536 0.0
H702 H 0.01768 0.56663 0.84559 0.0
H703 H 0.06514 0.59694 0.81111 0.0
H704 H 0.12723 0.56135 0.89683 0.0
H705 H 0.08024 0.53079 0.93076 0.0
C706 C 0.1831 0.61421 0.81394 0.0
C707 C 0.18563 0.6452 0.81455 0.0
C708 C 0.15472 0.59327 0.82504 0.0
C709 C 0.12843 0.60308 0.83627 0.0
C710 C 0.13076 0.63404 0.83611 0.0
C711 C 0.15928 0.65502 0.82553 0.0
C712 C 0.04137 0.56469 0.85626 0.0
C713 C 0.04532 0.54664 0.89115 0.0
C714 C 0.06842 0.58215 0.83678 0.0
C715 C 0.09959 0.58149 0.85172 0.0
C716 C 0.10334 0.56197 0.88456 0.0
C717 C 0.07642 0.54463 0.90409 0.0
H718 H 0.30727 0.1474 0.80831 0.0
H719 H 0.35191 0.21782 0.90753 0.0
H720 H 0.33352 0.11389 0.84414 0.0
H721 H 0.37734 0.18346 0.945 0.0
H722 H 0.45252 0.12812 0.95563 0.0
H723 H 0.42026 0.16196 0.93557 0.0
H724 H 0.33657 0.08408 0.9034 0.0
H725 H 0.36934 0.05061 0.92089 0.0
C726 C 0.32211 0.15553 0.83845 0.0
C727 C 0.32763 0.18539 0.85489 0.0
C728 C 0.33707 0.13613 0.85933 0.0
C729 C 0.35762 0.14585 0.89767 0.0
C730 C 0.36206 0.17534 0.91522 0.0
C731 C 0.3473 0.19496 0.89394 0.0
C732 C 0.42713 0.11837 0.94468 0.0
C733 C 0.41361 0.08683 0.93866 0.0
C734 C 0.40852 0.13773 0.93347 0.0
C735 C 0.37591 0.12579 0.91685 0.0
C736 C 0.36186 0.09413 0.91456 0.0
C737 C 0.3806 0.0749 0.92476 0.0
H738 H 0.83628 0.27194 0.86117 0.0
H739 H 0.80153 0.3419 0.80253 0.0
H740 H 0.87924 0.31056 0.90309 0.0
H741 H 0.8454 0.38058 0.84244 0.0
H742 H 0.91194 0.44403 0.94704 0.0
H743 H 0.8664 0.40497 0.90955 0.0
H744 H 0.9282 0.34705 0.89665 0.0
H745 H 0.97259 0.38517 0.93655 0.0
C746 C 0.83798 0.29559 0.85701 0.0
C747 C 0.81554 0.30383 0.82849 0.0
C748 C 0.86279 0.31783 0.8808 0.0
C749 C 0.8661 0.34888 0.8761 0.0
C750 C 0.84345 0.357 0.84762 0.0
C751 C 0.81837 0.33476 0.82438 0.0
C752 C 0.91554 0.42283 0.93625 0.0
C753 C 0.94561 0.41747 0.9449 0.0
C754 C 0.88956 0.40048 0.91451 0.0
C755 C 0.89342 0.37262 0.90005 0.0
C756 C 0.92386 0.36772 0.90822 0.0
C757 C 0.94948 0.3897 0.93084 0.0
H758 H 0.71166 0.85984 0.82494 0.0
H759 H 0.65159 0.78252 0.88704 0.0
H760 H 0.68376 0.89249 0.85932 0.0
H761 H 0.62443 0.81501 0.92187 0.0
H762 H 0.55061 0.86713 0.91403 0.0
H763 H 0.58574 0.83912 0.88884 0.0
H764 H 0.66993 0.91448 0.92929 0.0
H765 H 0.63429 0.94312 0.95462 0.0
C766 C 0.69315 0.84998 0.84682 0.0
C767 C 0.68349 0.81855 0.85285 0.0
C768 C 0.6772 0.86867 0.86651 0.0
C769 C 0.65147 0.8562 0.8926 0.0
C770 C 0.64362 0.82518 0.90108 0.0
C771 C 0.65931 0.80658 0.8813 0.0
C772 C 0.57658 0.87792 0.91769 0.0
C773 C 0.5896 0.9074 0.93647 0.0
C774 C 0.59679 0.86169 0.90349 0.0
C775 C 0.63066 0.87438 0.90767 0.0
C776 C 0.64389 0.90412 0.92569 0.0
C777 C 0.62351 0.92046 0.94018 0.0
H778 H 0.7776 0.64648 0.11642 0.0
H779 H 0.86348 0.70843 0.18316 0.0
H780 H 0.81108 0.61982 0.08173 0.0
H781 H 0.89686 0.68105 0.15035 0.0
H782 H 0.95257 0.64198 0.05939 0.0
H783 H 0.91801 0.67025 0.08613 0.0
H784 H 0.84192 0.58628 0.09776 0.0
H785 H 0.87625 0.55802 0.06888 0.0
C786 C 0.80367 0.65443 0.12357 0.0
C787 C 0.81793 0.6796 0.15237 0.0
C788 C 0.82287 0.63897 0.10402 0.0
C789 C 0.85675 0.64806 0.11336 0.0
C790 C 0.87096 0.67363 0.14167 0.0
C791 C 0.85181 0.68935 0.16065 0.0
C792 C 0.92844 0.62949 0.06758 0.0
C793 C 0.91723 0.59769 0.06229 0.0
C794 C 0.90862 0.64575 0.08319 0.0
C795 C 0.87717 0.63065 0.09456 0.0
C796 C 0.86582 0.59879 0.08884 0.0
C797 C 0.88558 0.58251 0.07262 0.0
H798 H 0.29342 0.85901 0.17792 0.0
H799 H 0.33269 0.79313 0.11819 0.0
H800 H 0.33678 0.90003 0.15093 0.0
H801 H 0.37594 0.83416 0.09188 0.0
H802 H 0.47134 0.91012 0.1292 0.0
H803 H 0.42156 0.87247 0.14614 0.0
H804 H 0.36472 0.92197 0.07658 0.0
H805 H 0.41472 0.95981 0.05882 0.0
C806 C 0.31069 0.85324 0.15808 0.0
C807 C 0.31002 0.82283 0.15095 0.0
C808 C 0.33547 0.87673 0.14273 0.0
C809 C 0.35989 0.87006 0.12032 0.0
C810 C 0.3576 0.83973 0.10985 0.0
C811 C 0.33276 0.81631 0.12479 0.0
C812 C 0.44833 0.9134 0.11814 0.0
C813 C 0.447 0.93797 0.09266 0.0
C814 C 0.41987 0.89164 0.12739 0.0
C815 C 0.38953 0.89421 0.11194 0.0
C816 C 0.38795 0.91953 0.08853 0.0
C817 C 0.41651 0.94115 0.07862 0.0
H818 H 0.68804 0.15571 0.2367 0.0
H819 H 0.7085 0.20467 0.11878 0.0
H820 H 0.64373 0.11708 0.1966 0.0
H821 H 0.6649 0.1656 0.0784 0.0
H822 H 0.55763 0.11835 0.03882 0.0
H823 H 0.60709 0.1521 0.07516 0.0
H824 H 0.62563 0.07644 0.14106 0.0
H825 H 0.57546 0.04253 0.10507 0.0
C826 C 0.68381 0.15775 0.20192 0.0
C827 C 0.70183 0.18339 0.18101 0.0
C828 C 0.65829 0.13556 0.17888 0.0
C829 C 0.65033 0.13837 0.13431 0.0
C830 C 0.66978 0.16302 0.11289 0.0
C831 C 0.69506 0.1853 0.13596 0.0
C832 C 0.5722 0.1088 0.06098 0.0
C833 C 0.56237 0.07768 0.06914 0.0
C834 C 0.60086 0.12818 0.08157 0.0
C835 C 0.62059 0.11707 0.11099 0.0
C836 C 0.61095 0.08586 0.11889 0.0
C837 C 0.58224 0.06638 0.09808 0.0
H838 H 0.65141 0.70588 0.80206 0.0
H839 H 0.72091 0.65642 0.82605 0.0
H840 H 0.611 0.66713 0.83752 0.0
H841 H 0.6802 0.61739 0.86188 0.0
H842 H 0.6009 0.56657 0.95928 0.0
H843 H 0.64538 0.60451 0.9269 0.0
H844 H 0.57767 0.61514 0.82342 0.0
H845 H 0.53421 0.57781 0.85461 0.0
C846 C 0.65827 0.68681 0.81492 0.0
C847 C 0.68979 0.68464 0.81049 0.0
C848 C 0.63482 0.66425 0.83529 0.0
C849 C 0.64179 0.63854 0.85274 0.0
C850 C 0.67358 0.63665 0.84927 0.0
C851 C 0.697 0.6591 0.82826 0.0
C852 C 0.59559 0.57667 0.9293 0.0
C853 C 0.56339 0.5686 0.91004 0.0
C854 C 0.62121 0.59863 0.91064 0.0
C855 C 0.61545 0.61365 0.8725 0.0
C856 C 0.58345 0.60494 0.85309 0.0
C857 C 0.55825 0.58301 0.87117 0.0
H858 H 0.30093 0.64785 0.81291 0.0
H859 H 0.3843 0.72486 0.8503 0.0
H860 H 0.3291 0.61409 0.84436 0.0
H861 H 0.4133 0.69069 0.88034 0.0
H862 H 0.44235 0.62234 0.96933 0.0
H863 H 0.41455 0.65767 0.93977 0.0
H864 H 0.37155 0.59379 0.83173 0.0
H865 H 0.39789 0.55844 0.86187 0.0
C866 C 0.32557 0.65755 0.8271 0.0
C867 C 0.34046 0.68905 0.82889 0.0
C868 C 0.3418 0.63813 0.84514 0.0
C869 C 0.37356 0.64962 0.86483 0.0
C870 C 0.38869 0.68112 0.86603 0.0
C871 C 0.37223 0.70067 0.84839 0.0
C872 C 0.42679 0.61589 0.93943 0.0
C873 C 0.42219 0.58753 0.91814 0.0
C874 C 0.41106 0.63619 0.92229 0.0
C875 C 0.3907 0.62855 0.88339 0.0
C876 C 0.38644 0.60024 0.86218 0.0
C877 C 0.40174 0.57995 0.87947 0.0
H878 H 0.36447 0.29026 0.79626 0.0
H879 H 0.30407 0.35013 0.79747 0.0
H880 H 0.40813 0.32886 0.83699 0.0
H881 H 0.34735 0.38824 0.83971 0.0
H882 H 0.4426 0.4592 0.88917 0.0
H883 H 0.40169 0.42351 0.83963 0.0
H884 H 0.4167 0.34874 0.91164 0.0
H885 H 0.45784 0.38407 0.96022 0.0
C886 C 0.36051 0.31169 0.80494 0.0
C887 C 0.33047 0.31684 0.7943 0.0
C888 C 0.38548 0.33373 0.82861 0.0
C889 C 0.38099 0.36139 0.84223 0.0
C890 C 0.35161 0.36719 0.82964 0.0
C891 C 0.32666 0.34519 0.80577 0.0
C892 C 0.43716 0.43513 0.8943 0.0
C893 C 0.45352 0.42447 0.92852 0.0
C894 C 0.41369 0.41472 0.86603 0.0
C895 C 0.40618 0.3833 0.87148 0.0
C896 C 0.4224 0.37276 0.90595 0.0
C897 C 0.44581 0.39307 0.93407 0.0
H898 H 0.7243 0.34778 0.89801 0.0
H899 H 0.64361 0.30692 0.8036 0.0
H900 H 0.69285 0.37718 0.93098 0.0
H901 H 0.61239 0.33692 0.83599 0.0
H902 H 0.55303 0.36664 0.93425 0.0
H903 H 0.58598 0.33907 0.90157 0.0
H904 H 0.66949 0.41856 0.91976 0.0
H905 H 0.6363 0.4463 0.95366 0.0
C906 C 0.6999 0.3452 0.88404 0.0
C907 C 0.68644 0.32485 0.84819 0.0
C908 C 0.68195 0.36227 0.90284 0.0
C909 C 0.65004 0.35944 0.88629 0.0
C910 C 0.63673 0.33936 0.85004 0.0
C911 C 0.65469 0.32225 0.83127 0.0
C912 C 0.57843 0.3784 0.9314 0.0
C913 C 0.59196 0.40884 0.9464 0.0
C914 C 0.59731 0.36254 0.91228 0.0
C915 C 0.63033 0.37662 0.90744 0.0
C916 C 0.64414 0.40695 0.92315 0.0
C917 C 0.62514 0.4229 0.94246 0.0
H918 H 0.66681 0.29847 0.08239 0.0
H919 H 0.6611 0.32206 0.21785 0.0
H920 H 0.63547 0.33241 0.06018 0.0
H921 H 0.629 0.35545 0.19554 0.0
H922 H 0.61694 0.44247 0.13864 0.0
H923 H 0.64239 0.40414 0.16063 0.0
H924 H 0.58238 0.34163 0.06043 0.0
H925 H 0.55693 0.38022 0.03795 0.0
C926 C 0.65826 0.31039 0.10746 0.0
C927 C 0.66662 0.3078 0.15188 0.0
C928 C 0.64022 0.32976 0.09469 0.0
C929 C 0.63008 0.34679 0.12611 0.0
C930 C 0.63704 0.34301 0.17059 0.0
C931 C 0.65521 0.32375 0.18337 0.0
C932 C 0.60916 0.4206 0.12115 0.0
C933 C 0.58493 0.41441 0.08649 0.0
C934 C 0.62354 0.39853 0.13408 0.0
C935 C 0.61411 0.36979 0.11257 0.0
C936 C 0.59016 0.36364 0.07754 0.0
C937 C 0.57558 0.38572 0.06472 0.0
H938 H 0.65429 0.67919 0.25441 0.0
H939 H 0.71255 0.69197 0.14354 0.0
H940 H 0.61205 0.63904 0.21262 0.0
H941 H 0.67042 0.65219 0.10222 0.0
H942 H 0.56664 0.61653 0.03088 0.0
H943 H 0.61185 0.65152 0.07487 0.0
H944 H 0.60424 0.58513 0.17348 0.0
H945 H 0.55904 0.54971 0.12912 0.0
C946 C 0.6582 0.67326 0.22139 0.0
C947 C 0.68666 0.68885 0.20224 0.0
C948 C 0.63417 0.65023 0.19765 0.0
C949 C 0.63806 0.64277 0.15426 0.0
C950 C 0.66684 0.65773 0.13556 0.0
C951 C 0.69098 0.68039 0.15937 0.0
C952 C 0.57465 0.60933 0.06187 0.0
C953 C 0.55928 0.58047 0.07671 0.0
C954 C 0.6006 0.62927 0.08687 0.0
C955 C 0.61138 0.62092 0.12745 0.0
C956 C 0.59617 0.59205 0.14234 0.0
C957 C 0.5705 0.57183 0.11692 0.0
H958 H 0.28838 0.66329 0.10037 0.0
H959 H 0.35726 0.68878 0.21332 0.0
H960 H 0.31959 0.63227 0.071 0.0
H961 H 0.38819 0.65721 0.18427 0.0
H962 H 0.45617 0.6326 0.09249 0.0
H963 H 0.42237 0.65938 0.12482 0.0
H964 H 0.33677 0.58658 0.08041 0.0
H965 H 0.37096 0.55963 0.04699 0.0
C966 C 0.31002 0.66205 0.11921 0.0
C967 C 0.3204 0.67871 0.15915 0.0
C968 C 0.3278 0.64404 0.10244 0.0
C969 C 0.35648 0.64228 0.12512 0.0
C970 C 0.36644 0.65837 0.16561 0.0
C971 C 0.34862 0.67636 0.18243 0.0
C972 C 0.43014 0.62212 0.0895 0.0
C973 C 0.4163 0.59388 0.06704 0.0
C974 C 0.41074 0.63746 0.1085 0.0
C975 C 0.37684 0.62509 0.10561 0.0
C976 C 0.36283 0.59683 0.08306 0.0
C977 C 0.38238 0.58132 0.06406 0.0
H978 H 0.357 0.29766 0.20183 0.0
H979 H 0.28961 0.35002 0.18463 0.0
H980 H 0.39785 0.33677 0.16749 0.0
H981 H 0.33068 0.38929 0.14974 0.0
H982 H 0.40906 0.44101 0.05232 0.0
H983 H 0.36449 0.40272 0.08391 0.0
H984 H 0.43263 0.38822 0.1838 0.0
H985 H 0.47623 0.4259 0.15339 0.0
C986 C 0.35072 0.31747 0.19072 0.0
C987 C 0.31967 0.32036 0.19671 0.0
C988 C 0.3744 0.34018 0.17098 0.0
C989 C 0.36808 0.36673 0.15568 0.0
C990 C 0.33676 0.36936 0.16068 0.0
C991 C 0.31314 0.34676 0.18113 0.0
C992 C 0.41448 0.42994 0.08132 0.0
C993 C 0.4468 0.43711 0.09987 0.0
C994 C 0.3888 0.40781 0.09954 0.0
C995 C 0.39462 0.39168 0.13645 0.0
C996 C 0.42679 0.39936 0.15509 0.0
C997 C 0.45207 0.4215 0.13749 0.0
H998 H 0.85879 0.71756 0.61974 0.0
H999 H 0.7919 0.64047 0.67379 0.0
H1000 H 0.88486 0.68401 0.58514 0.0
H1001 H 0.8185 0.60672 0.63929 0.0
H1002 H 0.87012 0.55492 0.54931 0.0
H1003 H 0.83514 0.58619 0.56778 0.0
H1004 H 0.91944 0.65627 0.62324 0.0
H1005 H 0.95392 0.62551 0.6052 0.0
C1006 C 0.84924 0.69335 0.62358 0.0
C1007 C 0.82356 0.68173 0.65001 0.0
C1008 C 0.86427 0.67414 0.60383 0.0
C1009 C 0.85412 0.6428 0.61014 0.0
C1010 C 0.8268 0.63078 0.63376 0.0
C1011 C 0.8116 0.65011 0.65355 0.0
C1012 C 0.88108 0.5771 0.56519 0.0
C1013 C 0.91479 0.58764 0.57606 0.0
C1014 C 0.86107 0.59491 0.57587 0.0
C1015 C 0.87456 0.62375 0.59676 0.0
C1016 C 0.9083 0.63436 0.60661 0.0
C1017 C 0.92808 0.61657 0.59653 0.0
H1018 H 0.33463 0.84238 0.71064 0.0
H1019 H 0.36182 0.79781 0.6013 0.0
H1020 H 0.38271 0.88472 0.70855 0.0
H1021 H 0.40739 0.84339 0.59323 0.0
H1022 H 0.48657 0.92976 0.58569 0.0
H1023 H 0.45703 0.88115 0.61376 0.0
H1024 H 0.38736 0.92272 0.66144 0.0
H1025 H 0.41773 0.97089 0.63607 0.0
C1026 C 0.35166 0.84139 0.68692 0.0
C1027 C 0.34534 0.81671 0.657 0.0
C1028 C 0.37874 0.86606 0.6848 0.0
C1029 C 0.39829 0.86797 0.64987 0.0
C1030 C 0.39292 0.84256 0.62081 0.0
C1031 C 0.36673 0.81667 0.62493 0.0
C1032 C 0.46543 0.92844 0.60347 0.0
C1033 C 0.45424 0.95388 0.60882 0.0
C1034 C 0.44845 0.90064 0.61918 0.0
C1035 C 0.41984 0.89792 0.63981 0.0
C1036 C 0.40978 0.92394 0.64689 0.0
C1037 C 0.42708 0.95171 0.6321 0.0
H1038 H 0.11899 0.29103 0.68441 0.0
H1039 H 0.21361 0.34052 0.64556 0.0
H1040 H 0.0947 0.32378 0.64239 0.0
H1041 H 0.18902 0.37284 0.60208 0.0
H1042 H 0.14117 0.44932 0.58913 0.0
H1043 H 0.16583 0.41251 0.61912 0.0
H1044 H 0.08096 0.33979 0.57164 0.0
H1045 H 0.05572 0.37698 0.54238 0.0
C1046 C 0.13457 0.30857 0.66621 0.0
C1047 C 0.16831 0.31341 0.66872 0.0
C1048 C 0.12055 0.32723 0.6418 0.0
C1049 C 0.13991 0.35108 0.61908 0.0
C1050 C 0.17349 0.355 0.61987 0.0
C1051 C 0.18758 0.33641 0.64457 0.0
C1052 C 0.1277 0.42549 0.58493 0.0
C1053 C 0.09629 0.41609 0.5638 0.0
C1054 C 0.14205 0.40432 0.60175 0.0
C1055 C 0.12544 0.37316 0.59774 0.0
C1056 C 0.09426 0.36366 0.57573 0.0
C1057 C 0.0798 0.38493 0.55894 0.0
H1058 H 0.71773 0.16462 0.69294 0.0
H1059 H 0.65455 0.21733 0.64978 0.0
H1060 H 0.68404 0.12109 0.65001 0.0
H1061 H 0.62049 0.17306 0.60537 0.0
H1062 H 0.5497 0.07557 0.57991 0.0
H1063 H 0.58366 0.1231 0.61429 0.0
H1064 H 0.66911 0.10157 0.5765 0.0
H1065 H 0.63502 0.05327 0.54309 0.0
C1066 C 0.69684 0.16711 0.67358 0.0
C1067 C 0.68911 0.19469 0.67424 0.0
C1068 C 0.67755 0.14202 0.6487 0.0
C1069 C 0.64988 0.14365 0.62354 0.0
C1070 C 0.64171 0.1711 0.62446 0.0
C1071 C 0.66114 0.19643 0.64977 0.0
C1072 C 0.57576 0.08093 0.57871 0.0
C1073 C 0.58971 0.06034 0.55927 0.0
C1074 C 0.5952 0.10843 0.59809 0.0
C1075 C 0.6291 0.11612 0.59844 0.0
C1076 C 0.64304 0.0961 0.57743 0.0
C1077 C 0.62355 0.06847 0.55809 0.0
H1078 H 0.79762 0.30488 0.38864 0.0
H1079 H 0.82079 0.34666 0.26589 0.0
H1080 H 0.83503 0.34967 0.42768 0.0
H1081 H 0.85879 0.39112 0.30501 0.0
H1082 H 0.951 0.44531 0.39429 0.0
H1083 H 0.91319 0.40086 0.35527 0.0
H1084 H 0.83795 0.40725 0.43688 0.0
H1085 H 0.87549 0.45196 0.4757 0.0
C1086 C 0.81076 0.3236 0.37004 0.0
C1087 C 0.80622 0.32233 0.32426 0.0
C1088 C 0.83204 0.34923 0.39237 0.0
C1089 C 0.84977 0.37378 0.36932 0.0
C1090 C 0.84549 0.37242 0.32352 0.0
C1091 C 0.82363 0.34709 0.30121 0.0
C1092 C 0.92641 0.43728 0.40397 0.0
C1093 C 0.91625 0.45226 0.43808 0.0
C1094 C 0.90476 0.41193 0.38146 0.0
C1095 C 0.87269 0.40072 0.39305 0.0
C1096 C 0.86262 0.41537 0.42748 0.0
C1097 C 0.88409 0.44101 0.44956 0.0
H1098 H 0.72238 0.87791 0.34761 0.0
H1099 H 0.64918 0.79259 0.362 0.0
H1100 H 0.69044 0.90453 0.38511 0.0
H1101 H 0.61739 0.81931 0.40066 0.0
H1102 H 0.55175 0.88299 0.39578 0.0
H1103 H 0.5861 0.85236 0.37661 0.0
H1104 H 0.66752 0.91465 0.45187 0.0
H1105 H 0.63298 0.94596 0.47054 0.0
C1106 C 0.69972 0.86472 0.35953 0.0
C1107 C 0.68814 0.83312 0.35129 0.0
C1108 C 0.6815 0.88002 0.38143 0.0
C1109 C 0.65121 0.86413 0.39568 0.0
C1110 C 0.64043 0.8323 0.38955 0.0
C1111 C 0.65872 0.81694 0.36762 0.0
C1112 C 0.57692 0.89015 0.40862 0.0
C1113 C 0.58974 0.91729 0.43404 0.0
C1114 C 0.59658 0.87232 0.39796 0.0
C1115 C 0.62966 0.88106 0.41246 0.0
C1116 C 0.64223 0.90749 0.43964 0.0
C1117 C 0.62244 0.92539 0.45043 0.0
H1118 H 0.18878 0.69856 0.36152 0.0
H1119 H 0.1102 0.68412 0.26089 0.0
H1120 H 0.15777 0.65389 0.39769 0.0
H1121 H 0.07939 0.63944 0.29709 0.0
H1122 H 0.02317 0.57896 0.40212 0.0
H1123 H 0.0528 0.62639 0.36975 0.0
H1124 H 0.13941 0.59755 0.37617 0.0
H1125 H 0.10979 0.55026 0.40747 0.0
C1126 C 0.16492 0.68588 0.34716 0.0
C1127 C 0.15189 0.69481 0.30842 0.0
C1128 C 0.14723 0.66038 0.36785 0.0
C1129 C 0.11622 0.64342 0.35015 0.0
C1130 C 0.10305 0.65247 0.31168 0.0
C1131 C 0.12076 0.67792 0.29092 0.0
C1132 C 0.04849 0.58291 0.39637 0.0
C1133 C 0.0642 0.56102 0.40642 0.0
C1134 C 0.06536 0.60985 0.37793 0.0
C1135 C 0.09831 0.61546 0.37057 0.0
C1136 C 0.11408 0.59378 0.38171 0.0
C1137 C 0.09708 0.56668 0.39912 0.0
H1138 H 0.36983 0.21311 0.32442 0.0
H1139 H 0.28351 0.15649 0.37687 0.0
H1140 H 0.40224 0.18469 0.36332 0.0
H1141 H 0.31567 0.12881 0.41626 0.0
H1142 H 0.36715 0.05667 0.41004 0.0
H1143 H 0.3404 0.09278 0.38305 0.0
H1144 H 0.42191 0.16697 0.43567 0.0
H1145 H 0.44926 0.13041 0.46268 0.0
C1146 C 0.35804 0.19536 0.34549 0.0
C1147 C 0.32419 0.18666 0.34731 0.0
C1148 C 0.37653 0.17907 0.36764 0.0
C1149 C 0.36129 0.15408 0.39193 0.0
C1150 C 0.32792 0.14745 0.39688 0.0
C1151 C 0.30955 0.16342 0.37458 0.0
C1152 C 0.37949 0.08064 0.41601 0.0
C1153 C 0.41028 0.09065 0.43869 0.0
C1154 C 0.36403 0.10137 0.40077 0.0
C1155 C 0.37882 0.13271 0.40795 0.0
C1156 C 0.40996 0.14293 0.42978 0.0
C1157 C 0.42555 0.12203 0.44517 0.0
H1158 H 0.71338 0.83024 0.60353 0.0
H1159 H 0.6389 0.79589 0.69212 0.0
H1160 H 0.68146 0.8604 0.56978 0.0
H1161 H 0.60688 0.82636 0.65798 0.0
H1162 H 0.55192 0.87484 0.55929 0.0
H1163 H 0.57755 0.83681 0.58541 0.0
H1164 H 0.66994 0.90623 0.60362 0.0
H1165 H 0.64474 0.94391 0.57794 0.0
C1166 C 0.68992 0.82865 0.61533 0.0
C1167 C 0.67891 0.81093 0.65094 0.0
C1168 C 0.67171 0.84606 0.59605 0.0
C1169 C 0.64198 0.84609 0.61176 0.0
C1170 C 0.62974 0.82673 0.64524 0.0
C1171 C 0.6481 0.80934 0.66478 0.0
C1172 C 0.57769 0.88191 0.56896 0.0
C1173 C 0.59629 0.91241 0.56657 0.0
C1174 C 0.59228 0.86018 0.58394 0.0
C1175 C 0.62576 0.86854 0.59607 0.0
C1176 C 0.64418 0.89902 0.59378 0.0
C1177 C 0.62964 0.92067 0.57937 0.0
H1178 H 0.69589 0.17 0.44582 0.0
H1179 H 0.65552 0.1992 0.32785 0.0
H1180 H 0.64449 0.1308 0.45167 0.0
H1181 H 0.60448 0.15949 0.33372 0.0
H1182 H 0.5261 0.07844 0.43349 0.0
H1183 H 0.56117 0.12933 0.42195 0.0
H1184 H 0.62588 0.09068 0.35659 0.0
H1185 H 0.59155 0.03966 0.36886 0.0
C1186 C 0.67575 0.16883 0.42217 0.0
C1187 C 0.67989 0.18706 0.38586 0.0
C1188 C 0.64647 0.14652 0.42557 0.0
C1189 C 0.62127 0.14233 0.3927 0.0
C1190 C 0.62389 0.16267 0.35924 0.0
C1191 C 0.65308 0.18527 0.35606 0.0
C1192 C 0.54728 0.08076 0.4154 0.0
C1193 C 0.55667 0.05516 0.40301 0.0
C1194 C 0.5671 0.10982 0.40879 0.0
C1195 C 0.59596 0.11335 0.38897 0.0
C1196 C 0.60344 0.08799 0.37199 0.0
C1197 C 0.5838 0.05892 0.37885 0.0
H1198 H 0.79236 0.65048 0.30665 0.0
H1199 H 0.85738 0.72666 0.38232 0.0
H1200 H 0.81772 0.61634 0.34449 0.0
H1201 H 0.88192 0.69262 0.42139 0.0
H1202 H 0.94624 0.6299 0.44067 0.0
H1203 H 0.91773 0.66392 0.40922 0.0
H1204 H 0.82664 0.59284 0.40948 0.0
H1205 H 0.85528 0.55872 0.43927 0.0
C1206 C 0.81146 0.65983 0.33223 0.0
C1207 C 0.8229 0.69127 0.34138 0.0
C1208 C 0.8261 0.64026 0.35401 0.0
C1209 C 0.85229 0.65166 0.3858 0.0
C1210 C 0.86246 0.683 0.39641 0.0
C1211 C 0.84811 0.70253 0.37432 0.0
C1212 C 0.92013 0.62162 0.43408 0.0
C1213 C 0.90315 0.5915 0.44206 0.0
C1214 C 0.90365 0.64118 0.4163 0.0
C1215 C 0.86972 0.63121 0.40651 0.0
C1216 C 0.85276 0.60125 0.41563 0.0
C1217 C 0.86924 0.58167 0.43297 0.0
H1218 H 0.3511 0.79077 0.3488 0.0
H1219 H 0.28883 0.84507 0.30913 0.0
H1220 H 0.38544 0.83376 0.39515 0.0
H1221 H 0.32268 0.88746 0.35452 0.0
H1222 H 0.373 0.95226 0.46492 0.0
H1223 H 0.33816 0.90495 0.42944 0.0
H1224 H 0.42264 0.88381 0.38711 0.0
H1225 H 0.45735 0.93032 0.42339 0.0
C1226 C 0.34472 0.81176 0.35012 0.0
C1227 C 0.31691 0.81432 0.32615 0.0
C1228 C 0.3643 0.83635 0.37655 0.0
C1229 C 0.35646 0.86389 0.37909 0.0
C1230 C 0.32888 0.86636 0.35451 0.0
C1231 C 0.30945 0.84196 0.3284 0.0
C1232 C 0.38411 0.93733 0.44847 0.0
C1233 C 0.41789 0.94527 0.44657 0.0
C1234 C 0.36418 0.9103 0.42797 0.0
C1235 C 0.37765 0.89071 0.40515 0.0
C1236 C 0.41149 0.89816 0.40474 0.0
C1237 C 0.43136 0.92507 0.42523 0.0
H1238 H 0.14232 0.2908 0.37506 0.0
H1239 H 0.21517 0.36816 0.33147 0.0
H1240 H 0.11625 0.32445 0.40923 0.0
H1241 H 0.1885 0.40215 0.3655 0.0
H1242 H 0.13651 0.45324 0.45676 0.0
H1243 H 0.17019 0.42126 0.43589 0.0
H1244 H 0.08488 0.35537 0.37436 0.0
H1245 H 0.05169 0.38677 0.39493 0.0
C1246 C 0.15307 0.31507 0.37328 0.0
C1247 C 0.18064 0.32675 0.35007 0.0
C1248 C 0.13801 0.33438 0.39277 0.0
C1249 C 0.14991 0.36598 0.38944 0.0
C1250 C 0.17876 0.3779 0.36874 0.0
C1251 C 0.19402 0.35844 0.34922 0.0
C1252 C 0.12503 0.4318 0.43905 0.0
C1253 C 0.09139 0.42265 0.42736 0.0
C1254 C 0.14433 0.4136 0.42692 0.0
C1255 C 0.13022 0.38568 0.40363 0.0
C1256 C 0.09655 0.37648 0.3928 0.0
C1257 C 0.07748 0.39467 0.40439 0.0
H1258 H 0.35615 0.20982 0.64801 0.0
H1259 H 0.28269 0.12373 0.65582 0.0
H1260 H 0.38886 0.18452 0.60864 0.0
H1261 H 0.31558 0.09847 0.61779 0.0
H1262 H 0.37581 0.05937 0.53417 0.0
H1263 H 0.34037 0.08981 0.55258 0.0
H1264 H 0.41997 0.15152 0.6317 0.0
H1265 H 0.45524 0.12187 0.61261 0.0
C1266 C 0.34676 0.18561 0.64078 0.0
C1267 C 0.31701 0.16876 0.65558 0.0
C1268 C 0.36558 0.17106 0.61845 0.0
C1269 C 0.35506 0.13936 0.61048 0.0
C1270 C 0.32439 0.12289 0.62296 0.0
C1271 C 0.30561 0.1374 0.64518 0.0
C1272 C 0.38576 0.07963 0.55509 0.0
C1273 C 0.41824 0.08788 0.57245 0.0
C1274 C 0.36545 0.09704 0.56572 0.0
C1275 C 0.37724 0.12307 0.59386 0.0
C1276 C 0.41009 0.13192 0.60951 0.0
C1277 C 0.4303 0.11463 0.5989 0.0
H1278 H 0.81416 0.33048 0.67494 0.0
H1279 H 0.89885 0.29868 0.67915 0.0
H1280 H 0.84539 0.3779 0.64502 0.0
H1281 H 0.92997 0.34602 0.64954 0.0
H1282 H 0.96429 0.42314 0.55489 0.0
H1283 H 0.93284 0.37492 0.58173 0.0
H1284 H 0.89163 0.42262 0.67316 0.0
H1285 H 0.92277 0.4709 0.64626 0.0
C1286 C 0.83934 0.33352 0.66918 0.0
C1287 C 0.85411 0.31094 0.67958 0.0
C1288 C 0.85726 0.36072 0.65238 0.0
C1289 C 0.89017 0.36571 0.64527 0.0
C1290 C 0.90463 0.34276 0.65449 0.0
C1291 C 0.88683 0.31572 0.67166 0.0
C1292 C 0.94881 0.42343 0.58104 0.0
C1293 C 0.94617 0.45097 0.59849 0.0
C1294 C 0.93077 0.39577 0.59636 0.0
C1295 C 0.90962 0.39503 0.6293 0.0
C1296 C 0.90737 0.4225 0.64726 0.0
C1297 C 0.92551 0.45017 0.63213 0.0
H1298 H 0.23493 0.68737 0.61318 0.0
H1299 H 0.18191 0.68038 0.72801 0.0
H1300 H 0.1961 0.64064 0.58201 0.0
H1301 H 0.14315 0.63295 0.69752 0.0
H1302 H 0.0591 0.57638 0.59717 0.0
H1303 H 0.09998 0.61871 0.63667 0.0
H1304 H 0.17595 0.58609 0.58927 0.0
H1305 H 0.13543 0.54428 0.54948 0.0
C1306 C 0.21546 0.67521 0.63232 0.0
C1307 C 0.21198 0.6869 0.67357 0.0
C1308 C 0.19317 0.64843 0.61451 0.0
C1309 C 0.16645 0.63292 0.63723 0.0
C1310 C 0.16336 0.64434 0.67906 0.0
C1311 C 0.18592 0.67111 0.69701 0.0
C1312 C 0.08452 0.57819 0.59529 0.0
C1313 C 0.09388 0.55703 0.56966 0.0
C1314 C 0.10797 0.60234 0.61824 0.0
C1315 C 0.14132 0.60591 0.61604 0.0
C1316 C 0.15055 0.58433 0.59121 0.0
C1317 C 0.12721 0.56029 0.56837 0.0
loop_
_geom_bond_atom_site_label_1
_geom_bond_atom_site_label_2
_geom_bond_distance
_geom_bond_site_symmetry_2
_ccdc_geom_bond_type
Zn0 O6 1.969 . S
Zn0 O7 1.965 . S
Zn0 O11 2.024 . S
Zn0 O16 1.969 . S
Zn1 O8 1.969 . S
Zn1 O14 1.969 . S
Zn1 O15 1.965 . S
Zn1 O17 2.024 . S
C2 O3 1.229 . S
C2 O11 1.058 . S
O3 C2 1.229 . S
C4 O5 1.229 . S
C4 O17 1.058 . S
O5 C4 1.229 . S
O6 Zn0 1.969 . S
O6 C9 1.267 . S
O7 Zn0 1.965 . S
O7 C18 1.260 . S
O8 Zn1 1.969 . S
O8 C18 1.258 . S
C9 O6 1.267 . S
C9 O10 1.228 . S
O10 C9 1.228 . S
O11 Zn0 2.024 . S
O11 C2 1.058 . S
C12 O13 1.228 . S
C12 O14 1.267 . S
O13 C12 1.228 . S
O14 Zn1 1.969 . S
O14 C12 1.267 . S
O15 Zn1 1.965 . S
O15 C19 1.260 . S
O16 Zn0 1.969 . S
O16 C19 1.258 . S
O17 Zn1 2.024 . S
O17 C4 1.058 . S
C18 O7 1.260 . S
C18 O8 1.258 . S
C19 O15 1.260 . S
C19 O16 1.258 . S
Zn20 O26 1.969 . S
Zn20 O27 1.965 . S
Zn20 O31 2.024 . S
Zn20 O36 1.969 . S
Zn21 O28 1.969 . S
Zn21 O34 1.969 . S
Zn21 O35 1.965 . S
Zn21 O37 2.024 . S
C22 O23 1.229 . S
C22 O31 1.058 . S
O23 C22 1.229 . S
C24 O25 1.229 . S
C24 O37 1.058 . S
O25 C24 1.229 . S
O26 Zn20 1.969 . S
O26 C29 1.267 . S
O27 Zn20 1.965 . S
O27 C38 1.260 . S
O28 Zn21 1.969 . S
O28 C38 1.258 . S
C29 O26 1.267 . S
C29 O30 1.228 . S
O30 C29 1.228 . S
O31 Zn20 2.024 . S
O31 C22 1.058 . S
C32 O33 1.228 . S
C32 O34 1.267 . S
O33 C32 1.228 . S
O34 Zn21 1.969 . S
O34 C32 1.267 . S
O35 Zn21 1.965 . S
O35 C39 1.260 . S
O36 Zn20 1.969 . S
O36 C39 1.258 . S
O37 Zn21 2.024 . S
O37 C24 1.058 . S
C38 O27 1.260 . S
C38 O28 1.258 . S
C39 O35 1.260 . S
C39 O36 1.258 . S
Zn40 O46 1.969 . S
Zn40 O47 1.965 . S
Zn40 O51 2.024 . S
Zn40 O56 1.969 . S
Zn41 O48 1.969 . S
Zn41 O54 1.969 . S
Zn41 O55 1.965 . S
Zn41 O57 2.024 . S
C42 O43 1.229 . S
C42 O51 1.058 . S
O43 C42 1.229 . S
C44 O45 1.229 . S
C44 O57 1.058 . S
O45 C44 1.229 . S
O46 Zn40 1.969 . S
O46 C49 1.267 . S
O47 Zn40 1.965 . S
O47 C58 1.260 . S
O48 Zn41 1.969 . S
O48 C58 1.258 . S
C49 O46 1.267 . S
C49 O50 1.228 . S
O50 C49 1.228 . S
O51 Zn40 2.024 . S
O51 C42 1.058 . S
C52 O53 1.228 . S
C52 O54 1.267 . S
O53 C52 1.228 . S
O54 Zn41 1.969 . S
O54 C52 1.267 . S
O55 Zn41 1.965 . S
O55 C59 1.260 . S
O56 Zn40 1.969 . S
O56 C59 1.258 . S
O57 Zn41 2.024 . S
O57 C44 1.058 . S
C58 O47 1.260 . S
C58 O48 1.258 . S
C59 O55 1.260 . S
C59 O56 1.258 . S
Zn60 O66 1.969 . S
Zn60 O67 1.965 . S
Zn60 O71 2.024 . S
Zn60 O76 1.969 . S
Zn61 O68 1.969 . S
Zn61 O74 1.969 . S
Zn61 O75 1.965 . S
Zn61 O77 2.024 . S
C62 O63 1.229 . S
C62 O71 1.058 . S
O63 C62 1.229 . S
C64 O65 1.229 . S
C64 O77 1.058 . S
O65 C64 1.229 . S
O66 Zn60 1.969 . S
O66 C69 1.267 . S
O67 Zn60 1.965 . S
O67 C78 1.260 . S
O68 Zn61 1.969 . S
O68 C78 1.258 . S
C69 O66 1.267 . S
C69 O70 1.228 . S
O70 C69 1.228 . S
O71 Zn60 2.024 . S
O71 C62 1.058 . S
C72 O73 1.228 . S
C72 O74 1.267 . S
O73 C72 1.228 . S
O74 Zn61 1.969 . S
O74 C72 1.267 . S
O75 Zn61 1.965 . S
O75 C79 1.260 . S
O76 Zn60 1.969 . S
O76 C79 1.258 . S
O77 Zn61 2.024 . S
O77 C64 1.058 . S
C78 O67 1.260 . S
C78 O68 1.258 . S
C79 O75 1.260 . S
C79 O76 1.258 . S
Zn80 O86 1.969 . S
Zn80 O87 1.965 . S
Zn80 O91 2.024 . S
Zn80 O96 1.969 . S
Zn81 O88 1.969 . S
Zn81 O94 1.969 . S
Zn81 O95 1.965 . S
Zn81 O97 2.024 . S
C82 O83 1.229 . S
C82 O91 1.058 . S
O83 C82 1.229 . S
C84 O85 1.229 . S
C84 O97 1.058 . S
O85 C84 1.229 . S
O86 Zn80 1.969 . S
O86 C89 1.267 . S
O87 Zn80 1.965 . S
O87 C98 1.260 . S
O88 Zn81 1.969 . S
O88 C98 1.258 . S
C89 O86 1.267 . S
C89 O90 1.228 . S
O90 C89 1.228 . S
O91 Zn80 2.024 . S
O91 C82 1.058 . S
C92 O93 1.228 . S
C92 O94 1.267 . S
O93 C92 1.228 . S
O94 Zn81 1.969 . S
O94 C92 1.267 . S
O95 Zn81 1.965 . S
O95 C99 1.260 . S
O96 Zn80 1.969 . S
O96 C99 1.258 . S
O97 Zn81 2.024 . S
O97 C84 1.058 . S
C98 O87 1.260 . S
C98 O88 1.258 . S
C99 O95 1.260 . S
C99 O96 1.258 . S
Zn100 O106 1.969 . S
Zn100 O107 1.965 . S
Zn100 O111 2.024 . S
Zn100 O116 1.969 . S
Zn101 O108 1.969 . S
Zn101 O114 1.969 . S
Zn101 O115 1.965 . S
Zn101 O117 2.024 . S
C102 O103 1.229 . S
C102 O111 1.058 . S
O103 C102 1.229 . S
C104 O105 1.229 . S
C104 O117 1.058 . S
O105 C104 1.229 . S
O106 Zn100 1.969 . S
O106 C109 1.267 . S
O107 Zn100 1.965 . S
O107 C118 1.260 . S
O108 Zn101 1.969 . S
O108 C118 1.258 . S
C109 O106 1.267 . S
C109 O110 1.228 . S
O110 C109 1.228 . S
O111 Zn100 2.024 . S
O111 C102 1.058 . S
C112 O113 1.228 . S
C112 O114 1.267 . S
O113 C112 1.228 . S
O114 Zn101 1.969 . S
O114 C112 1.267 . S
O115 Zn101 1.965 . S
O115 C119 1.260 . S
O116 Zn100 1.969 . S
O116 C119 1.258 . S
O117 Zn101 2.024 . S
O117 C104 1.058 . S
C118 O107 1.260 . S
C118 O108 1.258 . S
C119 O115 1.260 . S
C119 O116 1.258 . S
Zn120 O126 1.969 . S
Zn120 O127 1.965 . S
Zn120 O131 2.024 . S
Zn120 O136 1.969 . S
Zn121 O128 1.969 . S
Zn121 O134 1.969 . S
Zn121 O135 1.965 . S
Zn121 O137 2.024 . S
C122 O123 1.229 . S
C122 O131 1.058 . S
O123 C122 1.229 . S
C124 O125 1.229 . S
C124 O137 1.058 . S
O125 C124 1.229 . S
O126 Zn120 1.969 . S
O126 C129 1.267 . S
O127 Zn120 1.965 . S
O127 C138 1.260 . S
O128 Zn121 1.969 . S
O128 C138 1.258 . S
C129 O126 1.267 . S
C129 O130 1.228 . S
O130 C129 1.228 . S
O131 Zn120 2.024 . S
O131 C122 1.058 . S
C132 O133 1.228 . S
C132 O134 1.267 . S
O133 C132 1.228 . S
O134 Zn121 1.969 . S
O134 C132 1.267 . S
O135 Zn121 1.965 . S
O135 C139 1.260 . S
O136 Zn120 1.969 . S
O136 C139 1.258 . S
O137 Zn121 2.024 . S
O137 C124 1.058 . S
C138 O127 1.260 . S
C138 O128 1.258 . S
C139 O135 1.260 . S
C139 O136 1.258 . S
Zn140 O146 1.969 . S
Zn140 O147 1.965 . S
Zn140 O151 2.024 . S
Zn140 O156 1.969 . S
Zn141 O148 1.969 . S
Zn141 O154 1.969 . S
Zn141 O155 1.965 . S
Zn141 O157 2.024 . S
C142 O143 1.229 . S
C142 O151 1.058 . S
O143 C142 1.229 . S
C144 O145 1.229 . S
C144 O157 1.058 . S
O145 C144 1.229 . S
O146 Zn140 1.969 . S
O146 C149 1.267 . S
O147 Zn140 1.965 . S
O147 C158 1.260 . S
O148 Zn141 1.969 . S
O148 C158 1.258 . S
C149 O146 1.267 . S
C149 O150 1.228 . S
O150 C149 1.228 . S
O151 Zn140 2.024 . S
O151 C142 1.058 . S
C152 O153 1.228 . S
C152 O154 1.267 . S
O153 C152 1.228 . S
O154 Zn141 1.969 . S
O154 C152 1.267 . S
O155 Zn141 1.965 . S
O155 C159 1.260 . S
O156 Zn140 1.969 . S
O156 C159 1.258 . S
O157 Zn141 2.024 . S
O157 C144 1.058 . S
C158 O147 1.260 . S
C158 O148 1.258 . S
C159 O155 1.260 . S
C159 O156 1.258 . S
Co160 O163 2.042 . S
Co160 O170 2.264 . S
Co160 O189 2.286 . S
Co160 O190 2.069 . S
Co160 O192 2.015 1_455 S
Co161 O163 2.122 . S
Co161 O169 2.073 . S
Co161 O170 2.327 . S
Co161 O171 1.976 1_455 S
Co162 O163 2.086 1_545 S
Co162 O165 2.088 1_455 S
Co162 O172 2.108 1_445 S
Co162 O173 2.147 . S
Co162 O177 2.115 . S
Co162 O191 2.140 1_445 S
O163 Co160 2.042 . S
O163 Co161 2.122 . S
O163 Co162 2.086 1_565 S
O163 H164 0.980 . S
H164 O163 0.980 . S
O165 Co162 2.088 1_655 S
O165 Co166 2.042 . S
O165 Co167 2.122 . S
O165 H168 0.980 . S
Co166 O165 2.042 . S
Co166 O174 2.286 . S
Co166 O175 2.069 . S
Co166 O176 2.015 1_655 S
Co166 O179 2.264 . S
Co167 O165 2.122 . S
Co167 O178 1.976 1_655 S
Co167 O179 2.327 . S
Co167 O180 2.073 . S
H168 O165 0.980 . S
O169 Co161 2.073 . S
O169 C184 1.245 . S
O170 Co160 2.264 . S
O170 Co161 2.327 . S
O170 C184 1.257 . S
O171 Co161 1.976 1_655 S
O171 C183 1.251 . S
O172 Co162 2.108 1_665 S
O172 C183 1.274 . S
O173 Co162 2.147 . S
O173 C186 1.246 . S
O174 Co166 2.286 . S
O174 C185 1.259 . S
O175 Co166 2.069 . S
O175 C185 1.289 . S
O176 Co166 2.015 1_455 S
O176 C186 1.257 . S
O177 Co162 2.115 . S
O177 C187 1.274 . S
O178 Co167 1.976 1_455 S
O178 C187 1.251 . S
O179 Co166 2.264 . S
O179 Co167 2.327 . S
O179 C188 1.257 . S
O180 Co167 2.073 . S
O180 C188 1.245 . S
C181 O189 1.259 . S
C181 O190 1.289 . S
C182 O191 1.246 . S
C182 O192 1.257 . S
C183 O171 1.251 . S
C183 O172 1.274 . S
C184 O169 1.245 . S
C184 O170 1.257 . S
C185 O174 1.259 . S
C185 O175 1.289 . S
C186 O173 1.246 . S
C186 O176 1.257 . S
C187 O177 1.274 . S
C187 O178 1.251 . S
C188 O179 1.257 . S
C188 O180 1.245 . S
O189 Co160 2.286 . S
O189 C181 1.259 . S
O190 Co160 2.069 . S
O190 C181 1.289 . S
O191 Co162 2.140 1_665 S
O191 C182 1.246 . S
O192 Co160 2.015 1_655 S
O192 C182 1.257 . S
Co193 O196 2.042 1_556 S
Co193 O203 2.264 1_556 S
Co193 O222 2.286 . S
Co193 O223 2.069 . S
Co193 O225 2.015 . S
Co194 O196 2.122 . S
Co194 O202 2.073 . S
Co194 O203 2.327 . S
Co194 O204 1.976 . S
Co195 O196 2.083 1_545 S
Co195 O198 2.091 1_554 S
Co195 O205 2.110 1_545 S
Co195 O206 2.146 . S
Co195 O210 2.113 1_554 S
Co195 O224 2.141 1_544 S
O196 Co193 2.042 1_554 S
O196 Co194 2.122 . S
O196 Co195 2.083 1_565 S
O196 H197 0.980 . S
H197 O196 0.980 . S
O198 Co195 2.091 1_556 S
O198 Co199 2.042 1_556 S
O198 Co200 2.122 . S
O198 H201 0.980 . S
Co199 O198 2.042 1_554 S
Co199 O207 2.286 . S
Co199 O208 2.069 . S
Co199 O209 2.015 . S
Co199 O212 2.264 1_554 S
Co200 O198 2.122 . S
Co200 O211 1.976 . S
Co200 O212 2.327 . S
Co200 O213 2.073 . S
H201 O198 0.980 . S
O202 Co194 2.073 . S
O202 C217 1.245 . S
O203 Co193 2.264 1_554 S
O203 Co194 2.327 . S
O203 C217 1.257 . S
O204 Co194 1.976 . S
O204 C216 1.251 . S
O205 Co195 2.110 1_565 S
O205 C216 1.274 . S
O206 Co195 2.146 . S
O206 C219 1.246 . S
O207 Co199 2.286 . S
O207 C218 1.259 . S
O208 Co199 2.069 . S
O208 C218 1.289 . S
O209 Co199 2.015 . S
O209 C219 1.257 . S
O210 Co195 2.113 1_556 S
O210 C220 1.274 . S
O211 Co200 1.976 . S
O211 C220 1.251 . S
O212 Co199 2.264 1_556 S
O212 Co200 2.327 . S
O212 C221 1.257 . S
O213 Co200 2.073 . S
O213 C221 1.245 . S
C214 O222 1.259 . S
C214 O223 1.289 . S
C215 O224 1.246 . S
C215 O225 1.257 . S
C216 O204 1.251 . S
C216 O205 1.274 . S
C217 O202 1.245 . S
C217 O203 1.257 . S
C218 O207 1.259 . S
C218 O208 1.289 . S
C219 O206 1.246 . S
C219 O209 1.257 . S
C220 O210 1.274 . S
C220 O211 1.251 . S
C221 O212 1.257 . S
C221 O213 1.245 . S
O222 Co193 2.286 . S
O222 C214 1.259 . S
O223 Co193 2.069 . S
O223 C214 1.289 . S
O224 Co195 2.141 1_566 S
O224 C215 1.246 . S
O225 Co193 2.015 . S
O225 C215 1.257 . S
Co226 O229 2.042 1_556 S
Co226 O236 2.264 1_556 S
Co226 O255 2.286 . S
Co226 O256 2.069 . S
Co226 O258 2.015 1_455 S
Co227 O229 2.122 . S
Co227 O235 2.073 . S
Co227 O236 2.327 . S
Co227 O237 1.976 1_455 S
Co228 O229 2.090 . S
Co228 O231 2.084 1_454 S
Co228 O238 2.109 1_455 S
Co228 O239 2.145 . S
Co228 O243 2.114 1_554 S
Co228 O257 2.142 1_454 S
O229 Co226 2.042 1_554 S
O229 Co227 2.122 . S
O229 Co228 2.090 . S
O229 H230 0.980 . S
H230 O229 0.980 . S
O231 Co228 2.084 1_656 S
O231 Co232 2.042 1_556 S
O231 Co233 2.122 . S
O231 H234 0.980 . S
Co232 O231 2.042 1_554 S
Co232 O240 2.286 . S
Co232 O241 2.069 . S
Co232 O242 2.015 1_655 S
Co232 O245 2.264 1_554 S
Co233 O231 2.122 . S
Co233 O244 1.976 1_655 S
Co233 O245 2.327 . S
Co233 O246 2.073 . S
H234 O231 0.980 . S
O235 Co227 2.073 . S
O235 C250 1.245 . S
O236 Co226 2.264 1_554 S
O236 Co227 2.327 . S
O236 C250 1.257 . S
O237 Co227 1.976 1_655 S
O237 C249 1.251 . S
O238 Co228 2.109 1_655 S
O238 C249 1.274 . S
O239 Co228 2.145 . S
O239 C252 1.246 . S
O240 Co232 2.286 . S
O240 C251 1.259 . S
O241 Co232 2.069 . S
O241 C251 1.289 . S
O242 Co232 2.015 1_455 S
O242 C252 1.257 . S
O243 Co228 2.114 1_556 S
O243 C253 1.274 . S
O244 Co233 1.976 1_455 S
O244 C253 1.251 . S
O245 Co232 2.264 1_556 S
O245 Co233 2.327 . S
O245 C254 1.257 . S
O246 Co233 2.073 . S
O246 C254 1.245 . S
C247 O255 1.259 . S
C247 O256 1.289 . S
C248 O257 1.246 . S
C248 O258 1.257 . S
C249 O237 1.251 . S
C249 O238 1.274 . S
C250 O235 1.245 . S
C250 O236 1.257 . S
C251 O240 1.259 . S
C251 O241 1.289 . S
C252 O239 1.246 . S
C252 O242 1.257 . S
C253 O243 1.274 . S
C253 O244 1.251 . S
C254 O245 1.257 . S
C254 O246 1.245 . S
O255 Co226 2.286 . S
O255 C247 1.259 . S
O256 Co226 2.069 . S
O256 C247 1.289 . S
O257 Co228 2.142 1_656 S
O257 C248 1.246 . S
O258 Co226 2.015 1_655 S
O258 C248 1.257 . S
Co259 O262 2.042 1_556 S
Co259 O269 2.264 1_556 S
Co259 O288 2.286 . S
Co259 O289 2.069 . S
Co259 O291 2.015 . S
Co260 O262 2.122 . S
Co260 O268 2.073 . S
Co260 O269 2.327 . S
Co260 O270 1.976 . S
Co261 O262 2.087 . S
Co261 O264 2.087 1_554 S
Co261 O271 2.111 . S
Co261 O272 2.143 . S
Co261 O276 2.111 1_554 S
Co261 O290 2.143 1_554 S
O262 Co259 2.042 1_554 S
O262 Co260 2.122 . S
O262 Co261 2.087 . S
O262 H263 0.980 . S
H263 O262 0.980 . S
O264 Co261 2.087 1_556 S
O264 Co265 2.042 1_556 S
O264 Co266 2.122 . S
O264 H267 0.980 . S
Co265 O264 2.042 1_554 S
Co265 O273 2.286 . S
Co265 O274 2.069 . S
Co265 O275 2.015 . S
Co265 O278 2.264 1_554 S
Co266 O264 2.122 . S
Co266 O277 1.976 . S
Co266 O278 2.327 . S
Co266 O279 2.073 . S
H267 O264 0.980 . S
O268 Co260 2.073 . S
O268 C283 1.245 . S
O269 Co259 2.264 1_554 S
O269 Co260 2.327 . S
O269 C283 1.257 . S
O270 Co260 1.976 . S
O270 C282 1.251 . S
O271 Co261 2.111 . S
O271 C282 1.274 . S
O272 Co261 2.143 . S
O272 C285 1.246 . S
O273 Co265 2.286 . S
O273 C284 1.259 . S
O274 Co265 2.069 . S
O274 C284 1.289 . S
O275 Co265 2.015 . S
O275 C285 1.257 . S
O276 Co261 2.111 1_556 S
O276 C286 1.274 . S
O277 Co266 1.976 . S
O277 C286 1.251 . S
O278 Co265 2.264 1_556 S
O278 Co266 2.327 . S
O278 C287 1.257 . S
O279 Co266 2.073 . S
O279 C287 1.245 . S
C280 O288 1.259 . S
C280 O289 1.289 . S
C281 O290 1.246 . S
C281 O291 1.257 . S
C282 O270 1.251 . S
C282 O271 1.274 . S
C283 O268 1.245 . S
C283 O269 1.257 . S
C284 O273 1.259 . S
C284 O274 1.289 . S
C285 O272 1.246 . S
C285 O275 1.257 . S
C286 O276 1.274 . S
C286 O277 1.251 . S
C287 O278 1.257 . S
C287 O279 1.245 . S
O288 Co259 2.286 . S
O288 C280 1.259 . S
O289 Co259 2.069 . S
O289 C280 1.289 . S
O290 Co261 2.143 1_556 S
O290 C281 1.246 . S
O291 Co259 2.015 . S
O291 C281 1.257 . S
Co292 O295 2.042 . S
Co292 O302 2.264 . S
Co292 O321 2.286 . S
Co292 O322 2.069 . S
Co292 O324 2.015 . S
Co293 O295 2.122 . S
Co293 O301 2.073 . S
Co293 O302 2.327 . S
Co293 O303 1.976 . S
Co294 O295 2.090 . S
Co294 O297 2.084 1_455 S
Co294 O304 2.112 . S
Co294 O305 2.141 1_455 S
Co294 O309 2.110 1_455 S
Co294 O323 2.146 . S
O295 Co292 2.042 . S
O295 Co293 2.122 . S
O295 Co294 2.090 . S
O295 H296 0.980 . S
H296 O295 0.980 . S
O297 Co294 2.084 1_655 S
O297 Co298 2.042 . S
O297 Co299 2.122 . S
O297 H300 0.980 . S
Co298 O297 2.042 . S
Co298 O306 2.286 . S
Co298 O307 2.069 . S
Co298 O308 2.015 . S
Co298 O311 2.264 . S
Co299 O297 2.122 . S
Co299 O310 1.976 . S
Co299 O311 2.327 . S
Co299 O312 2.073 . S
H300 O297 0.980 . S
O301 Co293 2.073 . S
O301 C316 1.245 . S
O302 Co292 2.264 . S
O302 Co293 2.327 . S
O302 C316 1.257 . S
O303 Co293 1.976 . S
O303 C315 1.251 . S
O304 Co294 2.112 . S
O304 C315 1.274 . S
O305 Co294 2.141 1_655 S
O305 C318 1.246 . S
O306 Co298 2.286 . S
O306 C317 1.259 . S
O307 Co298 2.069 . S
O307 C317 1.289 . S
O308 Co298 2.015 . S
O308 C318 1.257 . S
O309 Co294 2.110 1_655 S
O309 C319 1.274 . S
O310 Co299 1.976 . S
O310 C319 1.251 . S
O311 Co298 2.264 . S
O311 Co299 2.327 . S
O311 C320 1.257 . S
O312 Co299 2.073 . S
O312 C320 1.245 . S
C313 O321 1.259 . S
C313 O322 1.289 . S
C314 O323 1.246 . S
C314 O324 1.257 . S
C315 O303 1.251 . S
C315 O304 1.274 . S
C316 O301 1.245 . S
C316 O302 1.257 . S
C317 O306 1.259 . S
C317 O307 1.289 . S
C318 O305 1.246 . S
C318 O308 1.257 . S
C319 O309 1.274 . S
C319 O310 1.251 . S
C320 O311 1.257 . S
C320 O312 1.245 . S
O321 Co292 2.286 . S
O321 C313 1.259 . S
O322 Co292 2.069 . S
O322 C313 1.289 . S
O323 Co294 2.146 . S
O323 C314 1.246 . S
O324 Co292 2.015 . S
O324 C314 1.257 . S
Co325 O328 2.042 . S
Co325 O335 2.264 . S
Co325 O354 2.286 . S
Co325 O355 2.069 . S
Co325 O357 2.015 1_565 S
Co326 O328 2.122 . S
Co326 O334 2.073 . S
Co326 O335 2.327 . S
Co326 O336 1.976 1_565 S
Co327 O328 2.083 1_545 S
Co327 O330 2.091 . S
Co327 O337 2.114 . S
Co327 O338 2.142 1_545 S
Co327 O342 2.109 1_545 S
Co327 O356 2.145 . S
O328 Co325 2.042 . S
O328 Co326 2.122 . S
O328 Co327 2.083 1_565 S
O328 H329 0.980 . S
H329 O328 0.980 . S
O330 Co327 2.091 . S
O330 Co331 2.042 . S
O330 Co332 2.122 . S
O330 H333 0.980 . S
Co331 O330 2.042 . S
Co331 O339 2.286 . S
Co331 O340 2.069 . S
Co331 O341 2.015 1_545 S
Co331 O344 2.264 . S
Co332 O330 2.122 . S
Co332 O343 1.976 1_545 S
Co332 O344 2.327 . S
Co332 O345 2.073 . S
H333 O330 0.980 . S
O334 Co326 2.073 . S
O334 C349 1.245 . S
O335 Co325 2.264 . S
O335 Co326 2.327 . S
O335 C349 1.257 . S
O336 Co326 1.976 1_545 S
O336 C348 1.251 . S
O337 Co327 2.114 . S
O337 C348 1.274 . S
O338 Co327 2.142 1_565 S
O338 C351 1.246 . S
O339 Co331 2.286 . S
O339 C350 1.259 . S
O340 Co331 2.069 . S
O340 C350 1.289 . S
O341 Co331 2.015 1_565 S
O341 C351 1.257 . S
O342 Co327 2.109 1_565 S
O342 C352 1.274 . S
O343 Co332 1.976 1_565 S
O343 C352 1.251 . S
O344 Co331 2.264 . S
O344 Co332 2.327 . S
O344 C353 1.257 . S
O345 Co332 2.073 . S
O345 C353 1.245 . S
C346 O354 1.259 . S
C346 O355 1.289 . S
C347 O356 1.246 . S
C347 O357 1.257 . S
C348 O336 1.251 . S
C348 O337 1.274 . S
C349 O334 1.245 . S
C349 O335 1.257 . S
C350 O339 1.259 . S
C350 O340 1.289 . S
C351 O338 1.246 . S
C351 O341 1.257 . S
C352 O342 1.274 . S
C352 O343 1.251 . S
C353 O344 1.257 . S
C353 O345 1.245 . S
O354 Co325 2.286 . S
O354 C346 1.259 . S
O355 Co325 2.069 . S
O355 C346 1.289 . S
O356 Co327 2.145 . S
O356 C347 1.246 . S
O357 Co325 2.015 1_545 S
O357 C347 1.257 . S
H358 C366 0.950 . S
H359 C371 0.950 . S
H360 C368 0.950 . S
H361 C370 0.950 . S
H362 C372 0.950 . S
H363 C374 0.950 . S
H364 C376 0.950 . S
H365 C377 0.950 . S
C366 H358 0.950 . S
C366 C367 1.386 . S
C366 C368 1.391 . S
C367 C366 1.386 . S
C367 C371 1.393 . S
C368 H360 0.950 . S
C368 C366 1.391 . S
C368 C369 1.400 . S
C369 C368 1.400 . S
C369 C370 1.398 . S
C369 C375 1.491 . S
C370 H361 0.950 . S
C370 C369 1.398 . S
C370 C371 1.391 . S
C371 H359 0.950 . S
C371 C367 1.393 . S
C371 C370 1.391 . S
C372 H362 0.950 . S
C372 C373 1.386 . S
C372 C374 1.391 . S
C373 C372 1.386 . S
C373 C377 1.393 . S
C374 H363 0.950 . S
C374 C372 1.391 . S
C374 C375 1.400 . S
C375 C369 1.491 . S
C375 C374 1.400 . S
C375 C376 1.398 . S
C376 H364 0.950 . S
C376 C375 1.398 . S
C376 C377 1.391 . S
C377 H365 0.950 . S
C377 C373 1.393 . S
C377 C376 1.391 . S
H378 C386 0.950 . S
H379 C391 0.950 . S
H380 C388 0.950 . S
H381 C390 0.950 . S
H382 C392 0.950 . S
H383 C394 0.950 . S
H384 C396 0.950 . S
H385 C397 0.950 . S
C386 H378 0.950 . S
C386 C387 1.386 . S
C386 C388 1.391 . S
C387 C386 1.386 . S
C387 C391 1.393 . S
C388 H380 0.950 . S
C388 C386 1.391 . S
C388 C389 1.400 . S
C389 C388 1.400 . S
C389 C390 1.398 . S
C389 C395 1.491 . S
C390 H381 0.950 . S
C390 C389 1.398 . S
C390 C391 1.391 . S
C391 H379 0.950 . S
C391 C387 1.393 . S
C391 C390 1.391 . S
C392 H382 0.950 . S
C392 C393 1.386 . S
C392 C394 1.391 . S
C393 C392 1.386 . S
C393 C397 1.393 . S
C394 H383 0.950 . S
C394 C392 1.391 . S
C394 C395 1.400 . S
C395 C389 1.491 . S
C395 C394 1.400 . S
C395 C396 1.398 . S
C396 H384 0.950 . S
C396 C395 1.398 . S
C396 C397 1.391 . S
C397 H385 0.950 . S
C397 C393 1.393 . S
C397 C396 1.391 . S
H398 C406 0.950 . S
H399 C411 0.950 . S
H400 C408 0.950 . S
H401 C410 0.950 . S
H402 C412 0.950 . S
H403 C414 0.950 . S
H404 C416 0.950 . S
H405 C417 0.950 . S
C406 H398 0.950 . S
C406 C407 1.386 . S
C406 C408 1.391 . S
C407 C406 1.386 . S
C407 C411 1.393 . S
C408 H400 0.950 . S
C408 C406 1.391 . S
C408 C409 1.400 . S
C409 C408 1.400 . S
C409 C410 1.398 . S
C409 C415 1.491 . S
C410 H401 0.950 . S
C410 C409 1.398 . S
C410 C411 1.391 . S
C411 H399 0.950 . S
C411 C407 1.393 . S
C411 C410 1.391 . S
C412 H402 0.950 . S
C412 C413 1.386 . S
C412 C414 1.391 . S
C413 C412 1.386 . S
C413 C417 1.393 . S
C414 H403 0.950 . S
C414 C412 1.391 . S
C414 C415 1.400 . S
C415 C409 1.491 . S
C415 C414 1.400 . S
C415 C416 1.398 . S
C416 H404 0.950 . S
C416 C415 1.398 . S
C416 C417 1.391 . S
C417 H405 0.950 . S
C417 C413 1.393 . S
C417 C416 1.391 . S
H418 C426 0.950 . S
H419 C431 0.950 . S
H420 C428 0.950 . S
H421 C430 0.950 . S
H422 C432 0.950 . S
H423 C434 0.950 . S
H424 C436 0.950 . S
H425 C437 0.950 . S
C426 H418 0.950 . S
C426 C427 1.386 . S
C426 C428 1.391 . S
C427 C426 1.386 . S
C427 C431 1.393 . S
C428 H420 0.950 . S
C428 C426 1.391 . S
C428 C429 1.400 . S
C429 C428 1.400 . S
C429 C430 1.398 . S
C429 C435 1.491 . S
C430 H421 0.950 . S
C430 C429 1.398 . S
C430 C431 1.391 . S
C431 H419 0.950 . S
C431 C427 1.393 . S
C431 C430 1.391 . S
C432 H422 0.950 . S
C432 C433 1.386 . S
C432 C434 1.391 . S
C433 C432 1.386 . S
C433 C437 1.393 . S
C434 H423 0.950 . S
C434 C432 1.391 . S
C434 C435 1.400 . S
C435 C429 1.491 . S
C435 C434 1.400 . S
C435 C436 1.398 . S
C436 H424 0.950 . S
C436 C435 1.398 . S
C436 C437 1.391 . S
C437 H425 0.950 . S
C437 C433 1.393 . S
C437 C436 1.391 . S
H438 C446 0.950 . S
H439 C451 0.950 . S
H440 C448 0.950 . S
H441 C450 0.950 . S
H442 C452 0.950 . S
H443 C454 0.950 . S
H444 C456 0.950 . S
H445 C457 0.950 . S
C446 H438 0.950 . S
C446 C447 1.386 . S
C446 C448 1.391 . S
C447 C446 1.386 . S
C447 C451 1.393 . S
C448 H440 0.950 . S
C448 C446 1.391 . S
C448 C449 1.400 . S
C449 C448 1.400 . S
C449 C450 1.398 . S
C449 C455 1.491 . S
C450 H441 0.950 . S
C450 C449 1.398 . S
C450 C451 1.391 . S
C451 H439 0.950 . S
C451 C447 1.393 . S
C451 C450 1.391 . S
C452 H442 0.950 . S
C452 C453 1.386 . S
C452 C454 1.391 . S
C453 C452 1.386 . S
C453 C457 1.393 . S
C454 H443 0.950 . S
C454 C452 1.391 . S
C454 C455 1.400 . S
C455 C449 1.491 . S
C455 C454 1.400 . S
C455 C456 1.398 . S
C456 H444 0.950 . S
C456 C455 1.398 . S
C456 C457 1.391 . S
C457 H445 0.950 . S
C457 C453 1.393 . S
C457 C456 1.391 . S
H458 C466 0.950 . S
H459 C471 0.950 . S
H460 C468 0.950 . S
H461 C470 0.950 . S
H462 C472 0.950 . S
H463 C474 0.950 . S
H464 C476 0.950 . S
H465 C477 0.950 . S
C466 H458 0.950 . S
C466 C467 1.386 . S
C466 C468 1.391 . S
C467 C466 1.386 . S
C467 C471 1.393 . S
C468 H460 0.950 . S
C468 C466 1.391 . S
C468 C469 1.400 . S
C469 C468 1.400 . S
C469 C470 1.398 . S
C469 C475 1.491 . S
C470 H461 0.950 . S
C470 C469 1.398 . S
C470 C471 1.391 . S
C471 H459 0.950 . S
C471 C467 1.393 . S
C471 C470 1.391 . S
C472 H462 0.950 . S
C472 C473 1.386 . S
C472 C474 1.391 . S
C473 C472 1.386 . S
C473 C477 1.393 . S
C474 H463 0.950 . S
C474 C472 1.391 . S
C474 C475 1.400 . S
C475 C469 1.491 . S
C475 C474 1.400 . S
C475 C476 1.398 . S
C476 H464 0.950 . S
C476 C475 1.398 . S
C476 C477 1.391 . S
C477 H465 0.950 . S
C477 C473 1.393 . S
C477 C476 1.391 . S
H478 C486 0.950 . S
H479 C491 0.950 . S
H480 C488 0.950 . S
H481 C490 0.950 . S
H482 C492 0.950 . S
H483 C494 0.950 . S
H484 C496 0.950 . S
H485 C497 0.950 . S
C486 H478 0.950 . S
C486 C487 1.386 . S
C486 C488 1.391 . S
C487 C486 1.386 . S
C487 C491 1.393 . S
C488 H480 0.950 . S
C488 C486 1.391 . S
C488 C489 1.400 . S
C489 C488 1.400 . S
C489 C490 1.398 . S
C489 C495 1.491 . S
C490 H481 0.950 . S
C490 C489 1.398 . S
C490 C491 1.391 . S
C491 H479 0.950 . S
C491 C487 1.393 . S
C491 C490 1.391 . S
C492 H482 0.950 . S
C492 C493 1.386 . S
C492 C494 1.391 . S
C493 C492 1.386 . S
C493 C497 1.393 . S
C494 H483 0.950 . S
C494 C492 1.391 . S
C494 C495 1.400 . S
C495 C489 1.491 . S
C495 C494 1.400 . S
C495 C496 1.398 . S
C496 H484 0.950 . S
C496 C495 1.398 . S
C496 C497 1.391 . S
C497 H485 0.950 . S
C497 C493 1.393 . S
C497 C496 1.391 . S
H498 C506 0.950 . S
H499 C511 0.950 . S
H500 C508 0.950 . S
H501 C510 0.950 . S
H502 C512 0.950 . S
H503 C514 0.950 . S
H504 C516 0.950 . S
H505 C517 0.950 . S
C506 H498 0.950 . S
C506 C507 1.386 . S
C506 C508 1.391 . S
C507 C506 1.386 . S
C507 C511 1.393 . S
C508 H500 0.950 . S
C508 C506 1.391 . S
C508 C509 1.400 . S
C509 C508 1.400 . S
C509 C510 1.398 . S
C509 C515 1.491 . S
C510 H501 0.950 . S
C510 C509 1.398 . S
C510 C511 1.391 . S
C511 H499 0.950 . S
C511 C507 1.393 . S
C511 C510 1.391 . S
C512 H502 0.950 . S
C512 C513 1.386 . S
C512 C514 1.391 . S
C513 C512 1.386 . S
C513 C517 1.393 . S
C514 H503 0.950 . S
C514 C512 1.391 . S
C514 C515 1.400 . S
C515 C509 1.491 . S
C515 C514 1.400 . S
C515 C516 1.398 . S
C516 H504 0.950 . S
C516 C515 1.398 . S
C516 C517 1.391 . S
C517 H505 0.950 . S
C517 C513 1.393 . S
C517 C516 1.391 . S
H518 C526 0.950 . S
H519 C531 0.950 . S
H520 C528 0.950 . S
H521 C530 0.950 . S
H522 C532 0.950 . S
H523 C534 0.950 . S
H524 C536 0.950 . S
H525 C537 0.950 . S
C526 H518 0.950 . S
C526 C527 1.386 . S
C526 C528 1.391 . S
C527 C526 1.386 . S
C527 C531 1.393 . S
C528 H520 0.950 . S
C528 C526 1.391 . S
C528 C529 1.400 . S
C529 C528 1.400 . S
C529 C530 1.398 . S
C529 C535 1.491 . S
C530 H521 0.950 . S
C530 C529 1.398 . S
C530 C531 1.391 . S
C531 H519 0.950 . S
C531 C527 1.393 . S
C531 C530 1.391 . S
C532 H522 0.950 . S
C532 C533 1.386 . S
C532 C534 1.391 . S
C533 C532 1.386 . S
C533 C537 1.393 . S
C534 H523 0.950 . S
C534 C532 1.391 . S
C534 C535 1.400 . S
C535 C529 1.491 . S
C535 C534 1.400 . S
C535 C536 1.398 . S
C536 H524 0.950 . S
C536 C535 1.398 . S
C536 C537 1.391 . S
C537 H525 0.950 . S
C537 C533 1.393 . S
C537 C536 1.391 . S
H538 C546 0.950 . S
H539 C551 0.950 . S
H540 C548 0.950 . S
H541 C550 0.950 . S
H542 C552 0.950 . S
H543 C554 0.950 . S
H544 C556 0.950 . S
H545 C557 0.950 . S
C546 H538 0.950 . S
C546 C547 1.386 . S
C546 C548 1.391 . S
C547 C546 1.386 . S
C547 C551 1.393 . S
C548 H540 0.950 . S
C548 C546 1.391 . S
C548 C549 1.400 . S
C549 C548 1.400 . S
C549 C550 1.398 . S
C549 C555 1.491 . S
C550 H541 0.950 . S
C550 C549 1.398 . S
C550 C551 1.391 . S
C551 H539 0.950 . S
C551 C547 1.393 . S
C551 C550 1.391 . S
C552 H542 0.950 . S
C552 C553 1.386 . S
C552 C554 1.391 . S
C553 C552 1.386 . S
C553 C557 1.393 . S
C554 H543 0.950 . S
C554 C552 1.391 . S
C554 C555 1.400 . S
C555 C549 1.491 . S
C555 C554 1.400 . S
C555 C556 1.398 . S
C556 H544 0.950 . S
C556 C555 1.398 . S
C556 C557 1.391 . S
C557 H545 0.950 . S
C557 C553 1.393 . S
C557 C556 1.391 . S
H558 C566 0.950 . S
H559 C571 0.950 . S
H560 C568 0.950 . S
H561 C570 0.950 . S
H562 C572 0.950 . S
H563 C574 0.950 . S
H564 C576 0.950 . S
H565 C577 0.950 . S
C566 H558 0.950 . S
C566 C567 1.386 . S
C566 C568 1.391 . S
C567 C566 1.386 . S
C567 C571 1.393 . S
C568 H560 0.950 . S
C568 C566 1.391 . S
C568 C569 1.400 . S
C569 C568 1.400 . S
C569 C570 1.398 . S
C569 C575 1.491 . S
C570 H561 0.950 . S
C570 C569 1.398 . S
C570 C571 1.391 . S
C571 H559 0.950 . S
C571 C567 1.393 . S
C571 C570 1.391 . S
C572 H562 0.950 . S
C572 C573 1.386 . S
C572 C574 1.391 . S
C573 C572 1.386 . S
C573 C577 1.393 . S
C574 H563 0.950 . S
C574 C572 1.391 . S
C574 C575 1.400 . S
C575 C569 1.491 . S
C575 C574 1.400 . S
C575 C576 1.398 . S
C576 H564 0.950 . S
C576 C575 1.398 . S
C576 C577 1.391 . S
C577 H565 0.950 . S
C577 C573 1.393 . S
C577 C576 1.391 . S
H578 C586 0.950 . S
H579 C591 0.950 . S
H580 C588 0.950 . S
H581 C590 0.950 . S
H582 C592 0.950 . S
H583 C594 0.950 . S
H584 C596 0.950 . S
H585 C597 0.950 . S
C586 H578 0.950 . S
C586 C587 1.386 . S
C586 C588 1.391 . S
C587 C586 1.386 . S
C587 C591 1.393 . S
C588 H580 0.950 . S
C588 C586 1.391 . S
C588 C589 1.400 . S
C589 C588 1.400 . S
C589 C590 1.398 . S
C589 C595 1.491 . S
C590 H581 0.950 . S
C590 C589 1.398 . S
C590 C591 1.391 . S
C591 H579 0.950 . S
C591 C587 1.393 . S
C591 C590 1.391 . S
C592 H582 0.950 . S
C592 C593 1.386 . S
C592 C594 1.391 . S
C593 C592 1.386 . S
C593 C597 1.393 . S
C594 H583 0.950 . S
C594 C592 1.391 . S
C594 C595 1.400 . S
C595 C589 1.491 . S
C595 C594 1.400 . S
C595 C596 1.398 . S
C596 H584 0.950 . S
C596 C595 1.398 . S
C596 C597 1.391 . S
C597 H585 0.950 . S
C597 C593 1.393 . S
C597 C596 1.391 . S
H598 C606 0.950 . S
H599 C611 0.950 . S
H600 C608 0.950 . S
H601 C610 0.950 . S
H602 C612 0.950 . S
H603 C614 0.950 . S
H604 C616 0.950 . S
H605 C617 0.950 . S
C606 H598 0.950 . S
C606 C607 1.386 . S
C606 C608 1.391 . S
C607 C606 1.386 . S
C607 C611 1.393 . S
C608 H600 0.950 . S
C608 C606 1.391 . S
C608 C609 1.400 . S
C609 C608 1.400 . S
C609 C610 1.398 . S
C609 C615 1.491 . S
C610 H601 0.950 . S
C610 C609 1.398 . S
C610 C611 1.391 . S
C611 H599 0.950 . S
C611 C607 1.393 . S
C611 C610 1.391 . S
C612 H602 0.950 . S
C612 C613 1.386 . S
C612 C614 1.391 . S
C613 C612 1.386 . S
C613 C617 1.393 . S
C614 H603 0.950 . S
C614 C612 1.391 . S
C614 C615 1.400 . S
C615 C609 1.491 . S
C615 C614 1.400 . S
C615 C616 1.398 . S
C616 H604 0.950 . S
C616 C615 1.398 . S
C616 C617 1.391 . S
C617 H605 0.950 . S
C617 C613 1.393 . S
C617 C616 1.391 . S
H618 C626 0.950 . S
H619 C631 0.950 . S
H620 C628 0.950 . S
H621 C630 0.950 . S
H622 C632 0.950 . S
H623 C634 0.950 . S
H624 C636 0.950 . S
H625 C637 0.950 . S
C626 H618 0.950 . S
C626 C627 1.386 . S
C626 C628 1.391 . S
C627 C626 1.386 . S
C627 C631 1.393 . S
C628 H620 0.950 . S
C628 C626 1.391 . S
C628 C629 1.400 . S
C629 C628 1.400 . S
C629 C630 1.398 . S
C629 C635 1.491 . S
C630 H621 0.950 . S
C630 C629 1.398 . S
C630 C631 1.391 . S
C631 H619 0.950 . S
C631 C627 1.393 . S
C631 C630 1.391 . S
C632 H622 0.950 . S
C632 C633 1.386 . S
C632 C634 1.391 . S
C633 C632 1.386 . S
C633 C637 1.393 . S
C634 H623 0.950 . S
C634 C632 1.391 . S
C634 C635 1.400 . S
C635 C629 1.491 . S
C635 C634 1.400 . S
C635 C636 1.398 . S
C636 H624 0.950 . S
C636 C635 1.398 . S
C636 C637 1.391 . S
C637 H625 0.950 . S
C637 C633 1.393 . S
C637 C636 1.391 . S
H638 C646 0.950 . S
H639 C651 0.950 . S
H640 C648 0.950 . S
H641 C650 0.950 . S
H642 C652 0.950 . S
H643 C654 0.950 . S
H644 C656 0.950 . S
H645 C657 0.950 . S
C646 H638 0.950 . S
C646 C647 1.386 . S
C646 C648 1.391 . S
C647 C646 1.386 . S
C647 C651 1.393 . S
C648 H640 0.950 . S
C648 C646 1.391 . S
C648 C649 1.400 . S
C649 C648 1.400 . S
C649 C650 1.398 . S
C649 C655 1.491 . S
C650 H641 0.950 . S
C650 C649 1.398 . S
C650 C651 1.391 . S
C651 H639 0.950 . S
C651 C647 1.393 . S
C651 C650 1.391 . S
C652 H642 0.950 . S
C652 C653 1.386 . S
C652 C654 1.391 . S
C653 C652 1.386 . S
C653 C657 1.393 . S
C654 H643 0.950 . S
C654 C652 1.391 . S
C654 C655 1.400 . S
C655 C649 1.491 . S
C655 C654 1.400 . S
C655 C656 1.398 . S
C656 H644 0.950 . S
C656 C655 1.398 . S
C656 C657 1.391 . S
C657 H645 0.950 . S
C657 C653 1.393 . S
C657 C656 1.391 . S
H658 C666 0.950 . S
H659 C671 0.950 . S
H660 C668 0.950 . S
H661 C670 0.950 . S
H662 C672 0.950 . S
H663 C674 0.950 . S
H664 C676 0.950 . S
H665 C677 0.950 . S
C666 H658 0.950 . S
C666 C667 1.386 . S
C666 C668 1.391 . S
C667 C666 1.386 . S
C667 C671 1.393 . S
C668 H660 0.950 . S
C668 C666 1.391 . S
C668 C669 1.400 . S
C669 C668 1.400 . S
C669 C670 1.398 . S
C669 C675 1.491 . S
C670 H661 0.950 . S
C670 C669 1.398 . S
C670 C671 1.391 . S
C671 H659 0.950 . S
C671 C667 1.393 . S
C671 C670 1.391 . S
C672 H662 0.950 . S
C672 C673 1.386 . S
C672 C674 1.391 . S
C673 C672 1.386 . S
C673 C677 1.393 . S
C674 H663 0.950 . S
C674 C672 1.391 . S
C674 C675 1.400 . S
C675 C669 1.491 . S
C675 C674 1.400 . S
C675 C676 1.398 . S
C676 H664 0.950 . S
C676 C675 1.398 . S
C676 C677 1.391 . S
C677 H665 0.950 . S
C677 C673 1.393 . S
C677 C676 1.391 . S
H678 C686 0.950 . S
H679 C691 0.950 . S
H680 C688 0.950 . S
H681 C690 0.950 . S
H682 C692 0.950 . S
H683 C694 0.950 . S
H684 C696 0.950 . S
H685 C697 0.950 . S
C686 H678 0.950 . S
C686 C687 1.386 . S
C686 C688 1.391 . S
C687 C686 1.386 . S
C687 C691 1.393 . S
C688 H680 0.950 . S
C688 C686 1.391 . S
C688 C689 1.400 . S
C689 C688 1.400 . S
C689 C690 1.398 . S
C689 C695 1.491 . S
C690 H681 0.950 . S
C690 C689 1.398 . S
C690 C691 1.391 . S
C691 H679 0.950 . S
C691 C687 1.393 . S
C691 C690 1.391 . S
C692 H682 0.950 . S
C692 C693 1.386 . S
C692 C694 1.391 . S
C693 C692 1.386 . S
C693 C697 1.393 . S
C694 H683 0.950 . S
C694 C692 1.391 . S
C694 C695 1.400 . S
C695 C689 1.491 . S
C695 C694 1.400 . S
C695 C696 1.398 . S
C696 H684 0.950 . S
C696 C695 1.398 . S
C696 C697 1.391 . S
C697 H685 0.950 . S
C697 C693 1.393 . S
C697 C696 1.391 . S
H698 C706 0.950 . S
H699 C711 0.950 . S
H700 C708 0.950 . S
H701 C710 0.950 . S
H702 C712 0.950 . S
H703 C714 0.950 . S
H704 C716 0.950 . S
H705 C717 0.950 . S
C706 H698 0.950 . S
C706 C707 1.386 . S
C706 C708 1.391 . S
C707 C706 1.386 . S
C707 C711 1.393 . S
C708 H700 0.950 . S
C708 C706 1.391 . S
C708 C709 1.400 . S
C709 C708 1.400 . S
C709 C710 1.398 . S
C709 C715 1.491 . S
C710 H701 0.950 . S
C710 C709 1.398 . S
C710 C711 1.391 . S
C711 H699 0.950 . S
C711 C707 1.393 . S
C711 C710 1.391 . S
C712 H702 0.950 . S
C712 C713 1.386 . S
C712 C714 1.391 . S
C713 C712 1.386 . S
C713 C717 1.393 . S
C714 H703 0.950 . S
C714 C712 1.391 . S
C714 C715 1.400 . S
C715 C709 1.491 . S
C715 C714 1.400 . S
C715 C716 1.398 . S
C716 H704 0.950 . S
C716 C715 1.398 . S
C716 C717 1.391 . S
C717 H705 0.950 . S
C717 C713 1.393 . S
C717 C716 1.391 . S
H718 C726 0.950 . S
H719 C731 0.950 . S
H720 C728 0.950 . S
H721 C730 0.950 . S
H722 C732 0.950 . S
H723 C734 0.950 . S
H724 C736 0.950 . S
H725 C737 0.950 . S
C726 H718 0.950 . S
C726 C727 1.386 . S
C726 C728 1.391 . S
C727 C726 1.386 . S
C727 C731 1.393 . S
C728 H720 0.950 . S
C728 C726 1.391 . S
C728 C729 1.400 . S
C729 C728 1.400 . S
C729 C730 1.398 . S
C729 C735 1.491 . S
C730 H721 0.950 . S
C730 C729 1.398 . S
C730 C731 1.391 . S
C731 H719 0.950 . S
C731 C727 1.393 . S
C731 C730 1.391 . S
C732 H722 0.950 . S
C732 C733 1.386 . S
C732 C734 1.391 . S
C733 C732 1.386 . S
C733 C737 1.393 . S
C734 H723 0.950 . S
C734 C732 1.391 . S
C734 C735 1.400 . S
C735 C729 1.491 . S
C735 C734 1.400 . S
C735 C736 1.398 . S
C736 H724 0.950 . S
C736 C735 1.398 . S
C736 C737 1.391 . S
C737 H725 0.950 . S
C737 C733 1.393 . S
C737 C736 1.391 . S
H738 C746 0.950 . S
H739 C751 0.950 . S
H740 C748 0.950 . S
H741 C750 0.950 . S
H742 C752 0.950 . S
H743 C754 0.950 . S
H744 C756 0.950 . S
H745 C757 0.950 . S
C746 H738 0.950 . S
C746 C747 1.386 . S
C746 C748 1.391 . S
C747 C746 1.386 . S
C747 C751 1.393 . S
C748 H740 0.950 . S
C748 C746 1.391 . S
C748 C749 1.400 . S
C749 C748 1.400 . S
C749 C750 1.398 . S
C749 C755 1.491 . S
C750 H741 0.950 . S
C750 C749 1.398 . S
C750 C751 1.391 . S
C751 H739 0.950 . S
C751 C747 1.393 . S
C751 C750 1.391 . S
C752 H742 0.950 . S
C752 C753 1.386 . S
C752 C754 1.391 . S
C753 C752 1.386 . S
C753 C757 1.393 . S
C754 H743 0.950 . S
C754 C752 1.391 . S
C754 C755 1.400 . S
C755 C749 1.491 . S
C755 C754 1.400 . S
C755 C756 1.398 . S
C756 H744 0.950 . S
C756 C755 1.398 . S
C756 C757 1.391 . S
C757 H745 0.950 . S
C757 C753 1.393 . S
C757 C756 1.391 . S
H758 C766 0.950 . S
H759 C771 0.950 . S
H760 C768 0.950 . S
H761 C770 0.950 . S
H762 C772 0.950 . S
H763 C774 0.950 . S
H764 C776 0.950 . S
H765 C777 0.950 . S
C766 H758 0.950 . S
C766 C767 1.386 . S
C766 C768 1.391 . S
C767 C766 1.386 . S
C767 C771 1.393 . S
C768 H760 0.950 . S
C768 C766 1.391 . S
C768 C769 1.400 . S
C769 C768 1.400 . S
C769 C770 1.398 . S
C769 C775 1.491 . S
C770 H761 0.950 . S
C770 C769 1.398 . S
C770 C771 1.391 . S
C771 H759 0.950 . S
C771 C767 1.393 . S
C771 C770 1.391 . S
C772 H762 0.950 . S
C772 C773 1.386 . S
C772 C774 1.391 . S
C773 C772 1.386 . S
C773 C777 1.393 . S
C774 H763 0.950 . S
C774 C772 1.391 . S
C774 C775 1.400 . S
C775 C769 1.491 . S
C775 C774 1.400 . S
C775 C776 1.398 . S
C776 H764 0.950 . S
C776 C775 1.398 . S
C776 C777 1.391 . S
C777 H765 0.950 . S
C777 C773 1.393 . S
C777 C776 1.391 . S
H778 C786 0.950 . S
H779 C791 0.950 . S
H780 C788 0.950 . S
H781 C790 0.950 . S
H782 C792 0.950 . S
H783 C794 0.950 . S
H784 C796 0.950 . S
H785 C797 0.950 . S
C786 H778 0.950 . S
C786 C787 1.386 . S
C786 C788 1.391 . S
C787 C786 1.386 . S
C787 C791 1.393 . S
C788 H780 0.950 . S
C788 C786 1.391 . S
C788 C789 1.400 . S
C789 C788 1.400 . S
C789 C790 1.398 . S
C789 C795 1.491 . S
C790 H781 0.950 . S
C790 C789 1.398 . S
C790 C791 1.391 . S
C791 H779 0.950 . S
C791 C787 1.393 . S
C791 C790 1.391 . S
C792 H782 0.950 . S
C792 C793 1.386 . S
C792 C794 1.391 . S
C793 C792 1.386 . S
C793 C797 1.393 . S
C794 H783 0.950 . S
C794 C792 1.391 . S
C794 C795 1.400 . S
C795 C789 1.491 . S
C795 C794 1.400 . S
C795 C796 1.398 . S
C796 H784 0.950 . S
C796 C795 1.398 . S
C796 C797 1.391 . S
C797 H785 0.950 . S
C797 C793 1.393 . S
C797 C796 1.391 . S
H798 C806 0.950 . S
H799 C811 0.950 . S
H800 C808 0.950 . S
H801 C810 0.950 . S
H802 C812 0.950 . S
H803 C814 0.950 . S
H804 C816 0.950 . S
H805 C817 0.950 . S
C806 H798 0.950 . S
C806 C807 1.386 . S
C806 C808 1.391 . S
C807 C806 1.386 . S
C807 C811 1.393 . S
C808 H800 0.950 . S
C808 C806 1.391 . S
C808 C809 1.400 . S
C809 C808 1.400 . S
C809 C810 1.398 . S
C809 C815 1.491 . S
C810 H801 0.950 . S
C810 C809 1.398 . S
C810 C811 1.391 . S
C811 H799 0.950 . S
C811 C807 1.393 . S
C811 C810 1.391 . S
C812 H802 0.950 . S
C812 C813 1.386 . S
C812 C814 1.391 . S
C813 C812 1.386 . S
C813 C817 1.393 . S
C814 H803 0.950 . S
C814 C812 1.391 . S
C814 C815 1.400 . S
C815 C809 1.491 . S
C815 C814 1.400 . S
C815 C816 1.398 . S
C816 H804 0.950 . S
C816 C815 1.398 . S
C816 C817 1.391 . S
C817 H805 0.950 . S
C817 C813 1.393 . S
C817 C816 1.391 . S
H818 C826 0.950 . S
H819 C831 0.950 . S
H820 C828 0.950 . S
H821 C830 0.950 . S
H822 C832 0.950 . S
H823 C834 0.950 . S
H824 C836 0.950 . S
H825 C837 0.950 . S
C826 H818 0.950 . S
C826 C827 1.386 . S
C826 C828 1.391 . S
C827 C826 1.386 . S
C827 C831 1.393 . S
C828 H820 0.950 . S
C828 C826 1.391 . S
C828 C829 1.400 . S
C829 C828 1.400 . S
C829 C830 1.398 . S
C829 C835 1.491 . S
C830 H821 0.950 . S
C830 C829 1.398 . S
C830 C831 1.391 . S
C831 H819 0.950 . S
C831 C827 1.393 . S
C831 C830 1.391 . S
C832 H822 0.950 . S
C832 C833 1.386 . S
C832 C834 1.391 . S
C833 C832 1.386 . S
C833 C837 1.393 . S
C834 H823 0.950 . S
C834 C832 1.391 . S
C834 C835 1.400 . S
C835 C829 1.491 . S
C835 C834 1.400 . S
C835 C836 1.398 . S
C836 H824 0.950 . S
C836 C835 1.398 . S
C836 C837 1.391 . S
C837 H825 0.950 . S
C837 C833 1.393 . S
C837 C836 1.391 . S
H838 C846 0.950 . S
H839 C851 0.950 . S
H840 C848 0.950 . S
H841 C850 0.950 . S
H842 C852 0.950 . S
H843 C854 0.950 . S
H844 C856 0.950 . S
H845 C857 0.950 . S
C846 H838 0.950 . S
C846 C847 1.386 . S
C846 C848 1.391 . S
C847 C846 1.386 . S
C847 C851 1.393 . S
C848 H840 0.950 . S
C848 C846 1.391 . S
C848 C849 1.400 . S
C849 C848 1.400 . S
C849 C850 1.398 . S
C849 C855 1.491 . S
C850 H841 0.950 . S
C850 C849 1.398 . S
C850 C851 1.391 . S
C851 H839 0.950 . S
C851 C847 1.393 . S
C851 C850 1.391 . S
C852 H842 0.950 . S
C852 C853 1.386 . S
C852 C854 1.391 . S
C853 C852 1.386 . S
C853 C857 1.393 . S
C854 H843 0.950 . S
C854 C852 1.391 . S
C854 C855 1.400 . S
C855 C849 1.491 . S
C855 C854 1.400 . S
C855 C856 1.398 . S
C856 H844 0.950 . S
C856 C855 1.398 . S
C856 C857 1.391 . S
C857 H845 0.950 . S
C857 C853 1.393 . S
C857 C856 1.391 . S
H858 C866 0.950 . S
H859 C871 0.950 . S
H860 C868 0.950 . S
H861 C870 0.950 . S
H862 C872 0.950 . S
H863 C874 0.950 . S
H864 C876 0.950 . S
H865 C877 0.950 . S
C866 H858 0.950 . S
C866 C867 1.386 . S
C866 C868 1.391 . S
C867 C866 1.386 . S
C867 C871 1.393 . S
C868 H860 0.950 . S
C868 C866 1.391 . S
C868 C869 1.400 . S
C869 C868 1.400 . S
C869 C870 1.398 . S
C869 C875 1.491 . S
C870 H861 0.950 . S
C870 C869 1.398 . S
C870 C871 1.391 . S
C871 H859 0.950 . S
C871 C867 1.393 . S
C871 C870 1.391 . S
C872 H862 0.950 . S
C872 C873 1.386 . S
C872 C874 1.391 . S
C873 C872 1.386 . S
C873 C877 1.393 . S
C874 H863 0.950 . S
C874 C872 1.391 . S
C874 C875 1.400 . S
C875 C869 1.491 . S
C875 C874 1.400 . S
C875 C876 1.398 . S
C876 H864 0.950 . S
C876 C875 1.398 . S
C876 C877 1.391 . S
C877 H865 0.950 . S
C877 C873 1.393 . S
C877 C876 1.391 . S
H878 C886 0.950 . S
H879 C891 0.950 . S
H880 C888 0.950 . S
H881 C890 0.950 . S
H882 C892 0.950 . S
H883 C894 0.950 . S
H884 C896 0.950 . S
H885 C897 0.950 . S
C886 H878 0.950 . S
C886 C887 1.386 . S
C886 C888 1.391 . S
C887 C886 1.386 . S
C887 C891 1.393 . S
C888 H880 0.950 . S
C888 C886 1.391 . S
C888 C889 1.400 . S
C889 C888 1.400 . S
C889 C890 1.398 . S
C889 C895 1.491 . S
C890 H881 0.950 . S
C890 C889 1.398 . S
C890 C891 1.391 . S
C891 H879 0.950 . S
C891 C887 1.393 . S
C891 C890 1.391 . S
C892 H882 0.950 . S
C892 C893 1.386 . S
C892 C894 1.391 . S
C893 C892 1.386 . S
C893 C897 1.393 . S
C894 H883 0.950 . S
C894 C892 1.391 . S
C894 C895 1.400 . S
C895 C889 1.491 . S
C895 C894 1.400 . S
C895 C896 1.398 . S
C896 H884 0.950 . S
C896 C895 1.398 . S
C896 C897 1.391 . S
C897 H885 0.950 . S
C897 C893 1.393 . S
C897 C896 1.391 . S
H898 C906 0.950 . S
H899 C911 0.950 . S
H900 C908 0.950 . S
H901 C910 0.950 . S
H902 C912 0.950 . S
H903 C914 0.950 . S
H904 C916 0.950 . S
H905 C917 0.950 . S
C906 H898 0.950 . S
C906 C907 1.386 . S
C906 C908 1.391 . S
C907 C906 1.386 . S
C907 C911 1.393 . S
C908 H900 0.950 . S
C908 C906 1.391 . S
C908 C909 1.400 . S
C909 C908 1.400 . S
C909 C910 1.398 . S
C909 C915 1.491 . S
C910 H901 0.950 . S
C910 C909 1.398 . S
C910 C911 1.391 . S
C911 H899 0.950 . S
C911 C907 1.393 . S
C911 C910 1.391 . S
C912 H902 0.950 . S
C912 C913 1.386 . S
C912 C914 1.391 . S
C913 C912 1.386 . S
C913 C917 1.393 . S
C914 H903 0.950 . S
C914 C912 1.391 . S
C914 C915 1.400 . S
C915 C909 1.491 . S
C915 C914 1.400 . S
C915 C916 1.398 . S
C916 H904 0.950 . S
C916 C915 1.398 . S
C916 C917 1.391 . S
C917 H905 0.950 . S
C917 C913 1.393 . S
C917 C916 1.391 . S
H918 C926 0.950 . S
H919 C931 0.950 . S
H920 C928 0.950 . S
H921 C930 0.950 . S
H922 C932 0.950 . S
H923 C934 0.950 . S
H924 C936 0.950 . S
H925 C937 0.950 . S
C926 H918 0.950 . S
C926 C927 1.386 . S
C926 C928 1.391 . S
C927 C926 1.386 . S
C927 C931 1.393 . S
C928 H920 0.950 . S
C928 C926 1.391 . S
C928 C929 1.400 . S
C929 C928 1.400 . S
C929 C930 1.398 . S
C929 C935 1.491 . S
C930 H921 0.950 . S
C930 C929 1.398 . S
C930 C931 1.391 . S
C931 H919 0.950 . S
C931 C927 1.393 . S
C931 C930 1.391 . S
C932 H922 0.950 . S
C932 C933 1.386 . S
C932 C934 1.391 . S
C933 C932 1.386 . S
C933 C937 1.393 . S
C934 H923 0.950 . S
C934 C932 1.391 . S
C934 C935 1.400 . S
C935 C929 1.491 . S
C935 C934 1.400 . S
C935 C936 1.398 . S
C936 H924 0.950 . S
C936 C935 1.398 . S
C936 C937 1.391 . S
C937 H925 0.950 . S
C937 C933 1.393 . S
C937 C936 1.391 . S
H938 C946 0.950 . S
H939 C951 0.950 . S
H940 C948 0.950 . S
H941 C950 0.950 . S
H942 C952 0.950 . S
H943 C954 0.950 . S
H944 C956 0.950 . S
H945 C957 0.950 . S
C946 H938 0.950 . S
C946 C947 1.386 . S
C946 C948 1.391 . S
C947 C946 1.386 . S
C947 C951 1.393 . S
C948 H940 0.950 . S
C948 C946 1.391 . S
C948 C949 1.400 . S
C949 C948 1.400 . S
C949 C950 1.398 . S
C949 C955 1.491 . S
C950 H941 0.950 . S
C950 C949 1.398 . S
C950 C951 1.391 . S
C951 H939 0.950 . S
C951 C947 1.393 . S
C951 C950 1.391 . S
C952 H942 0.950 . S
C952 C953 1.386 . S
C952 C954 1.391 . S
C953 C952 1.386 . S
C953 C957 1.393 . S
C954 H943 0.950 . S
C954 C952 1.391 . S
C954 C955 1.400 . S
C955 C949 1.491 . S
C955 C954 1.400 . S
C955 C956 1.398 . S
C956 H944 0.950 . S
C956 C955 1.398 . S
C956 C957 1.391 . S
C957 H945 0.950 . S
C957 C953 1.393 . S
C957 C956 1.391 . S
H958 C966 0.950 . S
H959 C971 0.950 . S
H960 C968 0.950 . S
H961 C970 0.950 . S
H962 C972 0.950 . S
H963 C974 0.950 . S
H964 C976 0.950 . S
H965 C977 0.950 . S
C966 H958 0.950 . S
C966 C967 1.386 . S
C966 C968 1.391 . S
C967 C966 1.386 . S
C967 C971 1.393 . S
C968 H960 0.950 . S
C968 C966 1.391 . S
C968 C969 1.400 . S
C969 C968 1.400 . S
C969 C970 1.398 . S
C969 C975 1.491 . S
C970 H961 0.950 . S
C970 C969 1.398 . S
C970 C971 1.391 . S
C971 H959 0.950 . S
C971 C967 1.393 . S
C971 C970 1.391 . S
C972 H962 0.950 . S
C972 C973 1.386 . S
C972 C974 1.391 . S
C973 C972 1.386 . S
C973 C977 1.393 . S
C974 H963 0.950 . S
C974 C972 1.391 . S
C974 C975 1.400 . S
C975 C969 1.491 . S
C975 C974 1.400 . S
C975 C976 1.398 . S
C976 H964 0.950 . S
C976 C975 1.398 . S
C976 C977 1.391 . S
C977 H965 0.950 . S
C977 C973 1.393 . S
C977 C976 1.391 . S
H978 C986 0.950 . S
H979 C991 0.950 . S
H980 C988 0.950 . S
H981 C990 0.950 . S
H982 C992 0.950 . S
H983 C994 0.950 . S
H984 C996 0.950 . S
H985 C997 0.950 . S
C986 H978 0.950 . S
C986 C987 1.386 . S
C986 C988 1.391 . S
C987 C986 1.386 . S
C987 C991 1.393 . S
C988 H980 0.950 . S
C988 C986 1.391 . S
C988 C989 1.400 . S
C989 C988 1.400 . S
C989 C990 1.398 . S
C989 C995 1.491 . S
C990 H981 0.950 . S
C990 C989 1.398 . S
C990 C991 1.391 . S
C991 H979 0.950 . S
C991 C987 1.393 . S
C991 C990 1.391 . S
C992 H982 0.950 . S
C992 C993 1.386 . S
C992 C994 1.391 . S
C993 C992 1.386 . S
C993 C997 1.393 . S
C994 H983 0.950 . S
C994 C992 1.391 . S
C994 C995 1.400 . S
C995 C989 1.491 . S
C995 C994 1.400 . S
C995 C996 1.398 . S
C996 H984 0.950 . S
C996 C995 1.398 . S
C996 C997 1.391 . S
C997 H985 0.950 . S
C997 C993 1.393 . S
C997 C996 1.391 . S
H998 C1006 0.950 . S
H999 C1011 0.950 . S
H1000 C1008 0.950 . S
H1001 C1010 0.950 . S
H1002 C1012 0.950 . S
H1003 C1014 0.950 . S
H1004 C1016 0.950 . S
H1005 C1017 0.950 . S
C1006 H998 0.950 . S
C1006 C1007 1.386 . S
C1006 C1008 1.391 . S
C1007 C1006 1.386 . S
C1007 C1011 1.393 . S
C1008 H1000 0.950 . S
C1008 C1006 1.391 . S
C1008 C1009 1.400 . S
C1009 C1008 1.400 . S
C1009 C1010 1.398 . S
C1009 C1015 1.491 . S
C1010 H1001 0.950 . S
C1010 C1009 1.398 . S
C1010 C1011 1.391 . S
C1011 H999 0.950 . S
C1011 C1007 1.393 . S
C1011 C1010 1.391 . S
C1012 H1002 0.950 . S
C1012 C1013 1.386 . S
C1012 C1014 1.391 . S
C1013 C1012 1.386 . S
C1013 C1017 1.393 . S
C1014 H1003 0.950 . S
C1014 C1012 1.391 . S
C1014 C1015 1.400 . S
C1015 C1009 1.491 . S
C1015 C1014 1.400 . S
C1015 C1016 1.398 . S
C1016 H1004 0.950 . S
C1016 C1015 1.398 . S
C1016 C1017 1.391 . S
C1017 H1005 0.950 . S
C1017 C1013 1.393 . S
C1017 C1016 1.391 . S
H1018 C1026 0.950 . S
H1019 C1031 0.950 . S
H1020 C1028 0.950 . S
H1021 C1030 0.950 . S
H1022 C1032 0.950 . S
H1023 C1034 0.950 . S
H1024 C1036 0.950 . S
H1025 C1037 0.950 . S
C1026 H1018 0.950 . S
C1026 C1027 1.386 . S
C1026 C1028 1.391 . S
C1027 C1026 1.386 . S
C1027 C1031 1.393 . S
C1028 H1020 0.950 . S
C1028 C1026 1.391 . S
C1028 C1029 1.400 . S
C1029 C1028 1.400 . S
C1029 C1030 1.398 . S
C1029 C1035 1.491 . S
C1030 H1021 0.950 . S
C1030 C1029 1.398 . S
C1030 C1031 1.391 . S
C1031 H1019 0.950 . S
C1031 C1027 1.393 . S
C1031 C1030 1.391 . S
C1032 H1022 0.950 . S
C1032 C1033 1.386 . S
C1032 C1034 1.391 . S
C1033 C1032 1.386 . S
C1033 C1037 1.393 . S
C1034 H1023 0.950 . S
C1034 C1032 1.391 . S
C1034 C1035 1.400 . S
C1035 C1029 1.491 . S
C1035 C1034 1.400 . S
C1035 C1036 1.398 . S
C1036 H1024 0.950 . S
C1036 C1035 1.398 . S
C1036 C1037 1.391 . S
C1037 H1025 0.950 . S
C1037 C1033 1.393 . S
C1037 C1036 1.391 . S
H1038 C1046 0.950 . S
H1039 C1051 0.950 . S
H1040 C1048 0.950 . S
H1041 C1050 0.950 . S
H1042 C1052 0.950 . S
H1043 C1054 0.950 . S
H1044 C1056 0.950 . S
H1045 C1057 0.950 . S
C1046 H1038 0.950 . S
C1046 C1047 1.386 . S
C1046 C1048 1.391 . S
C1047 C1046 1.386 . S
C1047 C1051 1.393 . S
C1048 H1040 0.950 . S
C1048 C1046 1.391 . S
C1048 C1049 1.400 . S
C1049 C1048 1.400 . S
C1049 C1050 1.398 . S
C1049 C1055 1.491 . S
C1050 H1041 0.950 . S
C1050 C1049 1.398 . S
C1050 C1051 1.391 . S
C1051 H1039 0.950 . S
C1051 C1047 1.393 . S
C1051 C1050 1.391 . S
C1052 H1042 0.950 . S
C1052 C1053 1.386 . S
C1052 C1054 1.391 . S
C1053 C1052 1.386 . S
C1053 C1057 1.393 . S
C1054 H1043 0.950 . S
C1054 C1052 1.391 . S
C1054 C1055 1.400 . S
C1055 C1049 1.491 . S
C1055 C1054 1.400 . S
C1055 C1056 1.398 . S
C1056 H1044 0.950 . S
C1056 C1055 1.398 . S
C1056 C1057 1.391 . S
C1057 H1045 0.950 . S
C1057 C1053 1.393 . S
C1057 C1056 1.391 . S
H1058 C1066 0.950 . S
H1059 C1071 0.950 . S
H1060 C1068 0.950 . S
H1061 C1070 0.950 . S
H1062 C1072 0.950 . S
H1063 C1074 0.950 . S
H1064 C1076 0.950 . S
H1065 C1077 0.950 . S
C1066 H1058 0.950 . S
C1066 C1067 1.386 . S
C1066 C1068 1.391 . S
C1067 C1066 1.386 . S
C1067 C1071 1.393 . S
C1068 H1060 0.950 . S
C1068 C1066 1.391 . S
C1068 C1069 1.400 . S
C1069 C1068 1.400 . S
C1069 C1070 1.398 . S
C1069 C1075 1.491 . S
C1070 H1061 0.950 . S
C1070 C1069 1.398 . S
C1070 C1071 1.391 . S
C1071 H1059 0.950 . S
C1071 C1067 1.393 . S
C1071 C1070 1.391 . S
C1072 H1062 0.950 . S
C1072 C1073 1.386 . S
C1072 C1074 1.391 . S
C1073 C1072 1.386 . S
C1073 C1077 1.393 . S
C1074 H1063 0.950 . S
C1074 C1072 1.391 . S
C1074 C1075 1.400 . S
C1075 C1069 1.491 . S
C1075 C1074 1.400 . S
C1075 C1076 1.398 . S
C1076 H1064 0.950 . S
C1076 C1075 1.398 . S
C1076 C1077 1.391 . S
C1077 H1065 0.950 . S
C1077 C1073 1.393 . S
C1077 C1076 1.391 . S
H1078 C1086 0.950 . S
H1079 C1091 0.950 . S
H1080 C1088 0.950 . S
H1081 C1090 0.950 . S
H1082 C1092 0.950 . S
H1083 C1094 0.950 . S
H1084 C1096 0.950 . S
H1085 C1097 0.950 . S
C1086 H1078 0.950 . S
C1086 C1087 1.386 . S
C1086 C1088 1.391 . S
C1087 C1086 1.386 . S
C1087 C1091 1.393 . S
C1088 H1080 0.950 . S
C1088 C1086 1.391 . S
C1088 C1089 1.400 . S
C1089 C1088 1.400 . S
C1089 C1090 1.398 . S
C1089 C1095 1.491 . S
C1090 H1081 0.950 . S
C1090 C1089 1.398 . S
C1090 C1091 1.391 . S
C1091 H1079 0.950 . S
C1091 C1087 1.393 . S
C1091 C1090 1.391 . S
C1092 H1082 0.950 . S
C1092 C1093 1.386 . S
C1092 C1094 1.391 . S
C1093 C1092 1.386 . S
C1093 C1097 1.393 . S
C1094 H1083 0.950 . S
C1094 C1092 1.391 . S
C1094 C1095 1.400 . S
C1095 C1089 1.491 . S
C1095 C1094 1.400 . S
C1095 C1096 1.398 . S
C1096 H1084 0.950 . S
C1096 C1095 1.398 . S
C1096 C1097 1.391 . S
C1097 H1085 0.950 . S
C1097 C1093 1.393 . S
C1097 C1096 1.391 . S
H1098 C1106 0.950 . S
H1099 C1111 0.950 . S
H1100 C1108 0.950 . S
H1101 C1110 0.950 . S
H1102 C1112 0.950 . S
H1103 C1114 0.950 . S
H1104 C1116 0.950 . S
H1105 C1117 0.950 . S
C1106 H1098 0.950 . S
C1106 C1107 1.386 . S
C1106 C1108 1.391 . S
C1107 C1106 1.386 . S
C1107 C1111 1.393 . S
C1108 H1100 0.950 . S
C1108 C1106 1.391 . S
C1108 C1109 1.400 . S
C1109 C1108 1.400 . S
C1109 C1110 1.398 . S
C1109 C1115 1.491 . S
C1110 H1101 0.950 . S
C1110 C1109 1.398 . S
C1110 C1111 1.391 . S
C1111 H1099 0.950 . S
C1111 C1107 1.393 . S
C1111 C1110 1.391 . S
C1112 H1102 0.950 . S
C1112 C1113 1.386 . S
C1112 C1114 1.391 . S
C1113 C1112 1.386 . S
C1113 C1117 1.393 . S
C1114 H1103 0.950 . S
C1114 C1112 1.391 . S
C1114 C1115 1.400 . S
C1115 C1109 1.491 . S
C1115 C1114 1.400 . S
C1115 C1116 1.398 . S
C1116 H1104 0.950 . S
C1116 C1115 1.398 . S
C1116 C1117 1.391 . S
C1117 H1105 0.950 . S
C1117 C1113 1.393 . S
C1117 C1116 1.391 . S
H1118 C1126 0.950 . S
H1119 C1131 0.950 . S
H1120 C1128 0.950 . S
H1121 C1130 0.950 . S
H1122 C1132 0.950 . S
H1123 C1134 0.950 . S
H1124 C1136 0.950 . S
H1125 C1137 0.950 . S
C1126 H1118 0.950 . S
C1126 C1127 1.386 . S
C1126 C1128 1.391 . S
C1127 C1126 1.386 . S
C1127 C1131 1.393 . S
C1128 H1120 0.950 . S
C1128 C1126 1.391 . S
C1128 C1129 1.400 . S
C1129 C1128 1.400 . S
C1129 C1130 1.398 . S
C1129 C1135 1.491 . S
C1130 H1121 0.950 . S
C1130 C1129 1.398 . S
C1130 C1131 1.391 . S
C1131 H1119 0.950 . S
C1131 C1127 1.393 . S
C1131 C1130 1.391 . S
C1132 H1122 0.950 . S
C1132 C1133 1.386 . S
C1132 C1134 1.391 . S
C1133 C1132 1.386 . S
C1133 C1137 1.393 . S
C1134 H1123 0.950 . S
C1134 C1132 1.391 . S
C1134 C1135 1.400 . S
C1135 C1129 1.491 . S
C1135 C1134 1.400 . S
C1135 C1136 1.398 . S
C1136 H1124 0.950 . S
C1136 C1135 1.398 . S
C1136 C1137 1.391 . S
C1137 H1125 0.950 . S
C1137 C1133 1.393 . S
C1137 C1136 1.391 . S
H1138 C1146 0.950 . S
H1139 C1151 0.950 . S
H1140 C1148 0.950 . S
H1141 C1150 0.950 . S
H1142 C1152 0.950 . S
H1143 C1154 0.950 . S
H1144 C1156 0.950 . S
H1145 C1157 0.950 . S
C1146 H1138 0.950 . S
C1146 C1147 1.386 . S
C1146 C1148 1.391 . S
C1147 C1146 1.386 . S
C1147 C1151 1.393 . S
C1148 H1140 0.950 . S
C1148 C1146 1.391 . S
C1148 C1149 1.400 . S
C1149 C1148 1.400 . S
C1149 C1150 1.398 . S
C1149 C1155 1.491 . S
C1150 H1141 0.950 . S
C1150 C1149 1.398 . S
C1150 C1151 1.391 . S
C1151 H1139 0.950 . S
C1151 C1147 1.393 . S
C1151 C1150 1.391 . S
C1152 H1142 0.950 . S
C1152 C1153 1.386 . S
C1152 C1154 1.391 . S
C1153 C1152 1.386 . S
C1153 C1157 1.393 . S
C1154 H1143 0.950 . S
C1154 C1152 1.391 . S
C1154 C1155 1.400 . S
C1155 C1149 1.491 . S
C1155 C1154 1.400 . S
C1155 C1156 1.398 . S
C1156 H1144 0.950 . S
C1156 C1155 1.398 . S
C1156 C1157 1.391 . S
C1157 H1145 0.950 . S
C1157 C1153 1.393 . S
C1157 C1156 1.391 . S
H1158 C1166 0.950 . S
H1159 C1171 0.950 . S
H1160 C1168 0.950 . S
H1161 C1170 0.950 . S
H1162 C1172 0.950 . S
H1163 C1174 0.950 . S
H1164 C1176 0.950 . S
H1165 C1177 0.950 . S
C1166 H1158 0.950 . S
C1166 C1167 1.386 . S
C1166 C1168 1.391 . S
C1167 C1166 1.386 . S
C1167 C1171 1.393 . S
C1168 H1160 0.950 . S
C1168 C1166 1.391 . S
C1168 C1169 1.400 . S
C1169 C1168 1.400 . S
C1169 C1170 1.398 . S
C1169 C1175 1.491 . S
C1170 H1161 0.950 . S
C1170 C1169 1.398 . S
C1170 C1171 1.391 . S
C1171 H1159 0.950 . S
C1171 C1167 1.393 . S
C1171 C1170 1.391 . S
C1172 H1162 0.950 . S
C1172 C1173 1.386 . S
C1172 C1174 1.391 . S
C1173 C1172 1.386 . S
C1173 C1177 1.393 . S
C1174 H1163 0.950 . S
C1174 C1172 1.391 . S
C1174 C1175 1.400 . S
C1175 C1169 1.491 . S
C1175 C1174 1.400 . S
C1175 C1176 1.398 . S
C1176 H1164 0.950 . S
C1176 C1175 1.398 . S
C1176 C1177 1.391 . S
C1177 H1165 0.950 . S
C1177 C1173 1.393 . S
C1177 C1176 1.391 . S
H1178 C1186 0.950 . S
H1179 C1191 0.950 . S
H1180 C1188 0.950 . S
H1181 C1190 0.950 . S
H1182 C1192 0.950 . S
H1183 C1194 0.950 . S
H1184 C1196 0.950 . S
H1185 C1197 0.950 . S
C1186 H1178 0.950 . S
C1186 C1187 1.386 . S
C1186 C1188 1.391 . S
C1187 C1186 1.386 . S
C1187 C1191 1.393 . S
C1188 H1180 0.950 . S
C1188 C1186 1.391 . S
C1188 C1189 1.400 . S
C1189 C1188 1.400 . S
C1189 C1190 1.398 . S
C1189 C1195 1.491 . S
C1190 H1181 0.950 . S
C1190 C1189 1.398 . S
C1190 C1191 1.391 . S
C1191 H1179 0.950 . S
C1191 C1187 1.393 . S
C1191 C1190 1.391 . S
C1192 H1182 0.950 . S
C1192 C1193 1.386 . S
C1192 C1194 1.391 . S
C1193 C1192 1.386 . S
C1193 C1197 1.393 . S
C1194 H1183 0.950 . S
C1194 C1192 1.391 . S
C1194 C1195 1.400 . S
C1195 C1189 1.491 . S
C1195 C1194 1.400 . S
C1195 C1196 1.398 . S
C1196 H1184 0.950 . S
C1196 C1195 1.398 . S
C1196 C1197 1.391 . S
C1197 H1185 0.950 . S
C1197 C1193 1.393 . S
C1197 C1196 1.391 . S
H1198 C1206 0.950 . S
H1199 C1211 0.950 . S
H1200 C1208 0.950 . S
H1201 C1210 0.950 . S
H1202 C1212 0.950 . S
H1203 C1214 0.950 . S
H1204 C1216 0.950 . S
H1205 C1217 0.950 . S
C1206 H1198 0.950 . S
C1206 C1207 1.386 . S
C1206 C1208 1.391 . S
C1207 C1206 1.386 . S
C1207 C1211 1.393 . S
C1208 H1200 0.950 . S
C1208 C1206 1.391 . S
C1208 C1209 1.400 . S
C1209 C1208 1.400 . S
C1209 C1210 1.398 . S
C1209 C1215 1.491 . S
C1210 H1201 0.950 . S
C1210 C1209 1.398 . S
C1210 C1211 1.391 . S
C1211 H1199 0.950 . S
C1211 C1207 1.393 . S
C1211 C1210 1.391 . S
C1212 H1202 0.950 . S
C1212 C1213 1.386 . S
C1212 C1214 1.391 . S
C1213 C1212 1.386 . S
C1213 C1217 1.393 . S
C1214 H1203 0.950 . S
C1214 C1212 1.391 . S
C1214 C1215 1.400 . S
C1215 C1209 1.491 . S
C1215 C1214 1.400 . S
C1215 C1216 1.398 . S
C1216 H1204 0.950 . S
C1216 C1215 1.398 . S
C1216 C1217 1.391 . S
C1217 H1205 0.950 . S
C1217 C1213 1.393 . S
C1217 C1216 1.391 . S
H1218 C1226 0.950 . S
H1219 C1231 0.950 . S
H1220 C1228 0.950 . S
H1221 C1230 0.950 . S
H1222 C1232 0.950 . S
H1223 C1234 0.950 . S
H1224 C1236 0.950 . S
H1225 C1237 0.950 . S
C1226 H1218 0.950 . S
C1226 C1227 1.386 . S
C1226 C1228 1.391 . S
C1227 C1226 1.386 . S
C1227 C1231 1.393 . S
C1228 H1220 0.950 . S
C1228 C1226 1.391 . S
C1228 C1229 1.400 . S
C1229 C1228 1.400 . S
C1229 C1230 1.398 . S
C1229 C1235 1.491 . S
C1230 H1221 0.950 . S
C1230 C1229 1.398 . S
C1230 C1231 1.391 . S
C1231 H1219 0.950 . S
C1231 C1227 1.393 . S
C1231 C1230 1.391 . S
C1232 H1222 0.950 . S
C1232 C1233 1.386 . S
C1232 C1234 1.391 . S
C1233 C1232 1.386 . S
C1233 C1237 1.393 . S
C1234 H1223 0.950 . S
C1234 C1232 1.391 . S
C1234 C1235 1.400 . S
C1235 C1229 1.491 . S
C1235 C1234 1.400 . S
C1235 C1236 1.398 . S
C1236 H1224 0.950 . S
C1236 C1235 1.398 . S
C1236 C1237 1.391 . S
C1237 H1225 0.950 . S
C1237 C1233 1.393 . S
C1237 C1236 1.391 . S
H1238 C1246 0.950 . S
H1239 C1251 0.950 . S
H1240 C1248 0.950 . S
H1241 C1250 0.950 . S
H1242 C1252 0.950 . S
H1243 C1254 0.950 . S
H1244 C1256 0.950 . S
H1245 C1257 0.950 . S
C1246 H1238 0.950 . S
C1246 C1247 1.386 . S
C1246 C1248 1.391 . S
C1247 C1246 1.386 . S
C1247 C1251 1.393 . S
C1248 H1240 0.950 . S
C1248 C1246 1.391 . S
C1248 C1249 1.400 . S
C1249 C1248 1.400 . S
C1249 C1250 1.398 . S
C1249 C1255 1.491 . S
C1250 H1241 0.950 . S
C1250 C1249 1.398 . S
C1250 C1251 1.391 . S
C1251 H1239 0.950 . S
C1251 C1247 1.393 . S
C1251 C1250 1.391 . S
C1252 H1242 0.950 . S
C1252 C1253 1.386 . S
C1252 C1254 1.391 . S
C1253 C1252 1.386 . S
C1253 C1257 1.393 . S
C1254 H1243 0.950 . S
C1254 C1252 1.391 . S
C1254 C1255 1.400 . S
C1255 C1249 1.491 . S
C1255 C1254 1.400 . S
C1255 C1256 1.398 . S
C1256 H1244 0.950 . S
C1256 C1255 1.398 . S
C1256 C1257 1.391 . S
C1257 H1245 0.950 . S
C1257 C1253 1.393 . S
C1257 C1256 1.391 . S
H1258 C1266 0.950 . S
H1259 C1271 0.950 . S
H1260 C1268 0.950 . S
H1261 C1270 0.950 . S
H1262 C1272 0.950 . S
H1263 C1274 0.950 . S
H1264 C1276 0.950 . S
H1265 C1277 0.950 . S
C1266 H1258 0.950 . S
C1266 C1267 1.386 . S
C1266 C1268 1.391 . S
C1267 C1266 1.386 . S
C1267 C1271 1.393 . S
C1268 H1260 0.950 . S
C1268 C1266 1.391 . S
C1268 C1269 1.400 . S
C1269 C1268 1.400 . S
C1269 C1270 1.398 . S
C1269 C1275 1.491 . S
C1270 H1261 0.950 . S
C1270 C1269 1.398 . S
C1270 C1271 1.391 . S
C1271 H1259 0.950 . S
C1271 C1267 1.393 . S
C1271 C1270 1.391 . S
C1272 H1262 0.950 . S
C1272 C1273 1.386 . S
C1272 C1274 1.391 . S
C1273 C1272 1.386 . S
C1273 C1277 1.393 . S
C1274 H1263 0.950 . S
C1274 C1272 1.391 . S
C1274 C1275 1.400 . S
C1275 C1269 1.491 . S
C1275 C1274 1.400 . S
C1275 C1276 1.398 . S
C1276 H1264 0.950 . S
C1276 C1275 1.398 . S
C1276 C1277 1.391 . S
C1277 H1265 0.950 . S
C1277 C1273 1.393 . S
C1277 C1276 1.391 . S
H1278 C1286 0.950 . S
H1279 C1291 0.950 . S
H1280 C1288 0.950 . S
H1281 C1290 0.950 . S
H1282 C1292 0.950 . S
H1283 C1294 0.950 . S
H1284 C1296 0.950 . S
H1285 C1297 0.950 . S
C1286 H1278 0.950 . S
C1286 C1287 1.386 . S
C1286 C1288 1.391 . S
C1287 C1286 1.386 . S
C1287 C1291 1.393 . S
C1288 H1280 0.950 . S
C1288 C1286 1.391 . S
C1288 C1289 1.400 . S
C1289 C1288 1.400 . S
C1289 C1290 1.398 . S
C1289 C1295 1.491 . S
C1290 H1281 0.950 . S
C1290 C1289 1.398 . S
C1290 C1291 1.391 . S
C1291 H1279 0.950 . S
C1291 C1287 1.393 . S
C1291 C1290 1.391 . S
C1292 H1282 0.950 . S
C1292 C1293 1.386 . S
C1292 C1294 1.391 . S
C1293 C1292 1.386 . S
C1293 C1297 1.393 . S
C1294 H1283 0.950 . S
C1294 C1292 1.391 . S
C1294 C1295 1.400 . S
C1295 C1289 1.491 . S
C1295 C1294 1.400 . S
C1295 C1296 1.398 . S
C1296 H1284 0.950 . S
C1296 C1295 1.398 . S
C1296 C1297 1.391 . S
C1297 H1285 0.950 . S
C1297 C1293 1.393 . S
C1297 C1296 1.391 . S
H1298 C1306 0.950 . S
H1299 C1311 0.950 . S
H1300 C1308 0.950 . S
H1301 C1310 0.950 . S
H1302 C1312 0.950 . S
H1303 C1314 0.950 . S
H1304 C1316 0.950 . S
H1305 C1317 0.950 . S
C1306 H1298 0.950 . S
C1306 C1307 1.386 . S
C1306 C1308 1.391 . S
C1307 C1306 1.386 . S
C1307 C1311 1.393 . S
C1308 H1300 0.950 . S
C1308 C1306 1.391 . S
C1308 C1309 1.400 . S
C1309 C1308 1.400 . S
C1309 C1310 1.398 . S
C1309 C1315 1.491 . S
C1310 H1301 0.950 . S
C1310 C1309 1.398 . S
C1310 C1311 1.391 . S
C1311 H1299 0.950 . S
C1311 C1307 1.393 . S
C1311 C1310 1.391 . S
C1312 H1302 0.950 . S
C1312 C1313 1.386 . S
C1312 C1314 1.391 . S
C1313 C1312 1.386 . S
C1313 C1317 1.393 . S
C1314 H1303 0.950 . S
C1314 C1312 1.391 . S
C1314 C1315 1.400 . S
C1315 C1309 1.491 . S
C1315 C1314 1.400 . S
C1315 C1316 1.398 . S
C1316 H1304 0.950 . S
C1316 C1315 1.398 . S
C1316 C1317 1.391 . S
C1317 H1305 0.950 . S
C1317 C1313 1.393 . S
C1317 C1316 1.391 . S
C373 C187 1.898 . S
C367 C19 1.994 . S
C393 C188 1.828 . S
C387 C24 1.826 . S
C413 C182 1.272 . S
C407 C59 1.252 . S
C427 C69 1.139 . S
C433 C181 1.161 . S
C447 C82 1.819 . S
C453 C184 1.823 . S
C473 C186 1.267 . S
C467 C118 1.265 . S
C487 C132 1.129 . S
C493 C185 1.150 . S
C507 C158 1.996 . S
C513 C183 1.897 . S
C533 C218 1.809 . S
C527 C4 1.610 . S
C547 C29 1.015 . S
C553 C249 0.981 . S
C573 C217 1.516 . S
C567 C44 1.451 . S
C593 C252 1.170 . S
C587 C79 1.170 . S
C607 C98 1.422 . S
C613 C215 1.387 . S
C633 C247 1.496 . S
C627 C112 1.405 . S
C647 C122 1.069 . S
C653 C220 1.119 . S
C667 C152 1.236 . S
C673 C254 1.273 . S
C687 C9 1.263 . S
C693 C250 1.287 . S
C707 C92 1.032 . S
C713 C253 1.011 . S
C733 C221 1.538 . S
C727 C102 1.419 . S
C753 C248 1.171 . S
C747 C138 1.138 . S
C767 C142 1.591 . S
C773 C214 1.812 . S
C787 C49 1.435 . S
C793 C251 1.497 . S
C813 C216 1.130 . S
C807 C64 1.061 . S
C827 C39 1.405 . S
C833 C219 1.405 . S
C847 C159 2.000 . S
C853 C286 1.907 . S
C867 C84 1.457 . S
C873 C287 1.477 . S
C893 C281 1.280 . S
C887 C119 1.286 . S
C913 C280 1.539 . S
C907 C129 1.518 . S
C927 C22 1.435 . S
C933 C283 1.455 . S
C953 C285 1.285 . S
C947 C58 1.269 . S
C967 C72 1.500 . S
C973 C284 1.534 . S
C987 C18 1.983 . S
C993 C282 1.907 . S
C1007 C144 1.727 . S
C1013 C320 1.842 . S
C1033 C352 0.826 . S
C1027 C89 0.815 . S
C1047 C104 1.370 . S
C1053 C313 1.505 . S
C1067 C139 1.429 . S
C1073 C347 1.472 . S
C1093 C318 1.189 . S
C1087 C38 1.196 . S
C1107 C52 1.555 . S
C1113 C349 1.610 . S
C1133 C315 1.319 . S
C1127 C62 1.309 . S
C1153 C350 1.320 . S
C1147 C12 1.213 . S
C1173 C346 1.322 . S
C1167 C149 1.231 . S
C1187 C32 0.843 . S
C1193 C348 0.795 . S
C1207 C42 1.353 . S
C1213 C317 1.504 . S
C1233 C351 1.480 . S
C1227 C78 1.423 . S
C1247 C2 1.756 . S
C1253 C316 1.822 . S
C1267 C109 1.546 . S
C1273 C353 1.613 . S
C1293 C319 1.332 . S
C1287 C124 1.304 . S
C1313 C314 1.203 . S
C1307 C99 1.198 . S
