# Generated by pormake.
# Topology zzz, (3,6)-cn, num edge types: 1
# Building blocks:
#     Node 0, Type 0, BuildingBlock: OLANEW_clean_sbu_2, # of connection points: 3
#     Node 1, Type 0, BuildingBlock: OLANEW_clean_sbu_2, # of connection points: 3
#     Node 2, Type 0, BuildingBlock: OLANEW_clean_sbu_2, # of connection points: 3
#     Node 3, Type 0, BuildingBlock: OLANEW_clean_sbu_2, # of connection points: 3
#     Node 4, Type 0, BuildingBlock: OLANEW_clean_sbu_2, # of connection points: 3
#     Node 5, Type 0, BuildingBlock: OLANEW_clean_sbu_2, # of connection points: 3
#     Node 6, Type 0, BuildingBlock: OLANEW_clean_sbu_2, # of connection points: 3
#     Node 7, Type 0, BuildingBlock: OLANEW_clean_sbu_2, # of connection points: 3
#     Node 8, Type 1, BuildingBlock: BETDEL_clean_sbu_0, # of connection points: 6
#     Node 9, Type 1, BuildingBlock: BETDEL_clean_sbu_0, # of connection points: 6
#     Node 10, Type 1, BuildingBlock: BETDEL_clean_sbu_0, # of connection points: 6
#     Node 11, Type 1, BuildingBlock: BETDEL_clean_sbu_0, # of connection points: 6
#     Edge 12, Type (0, 1), BuildingBlock: KIFKEQ_clean_linker_1, # of connection points: 2
#     Edge 13, Type (0, 1), BuildingBlock: KIFKEQ_clean_linker_1, # of connection points: 2
#     Edge 14, Type (0, 1), BuildingBlock: KIFKEQ_clean_linker_1, # of connection points: 2
#     Edge 15, Type (0, 1), BuildingBlock: KIFKEQ_clean_linker_1, # of connection points: 2
#     Edge 16, Type (0, 1), BuildingBlock: KIFKEQ_clean_linker_1, # of connection points: 2
#     Edge 17, Type (0, 1), BuildingBlock: KIFKEQ_clean_linker_1, # of connection points: 2
#     Edge 18, Type (0, 1), BuildingBlock: KIFKEQ_clean_linker_1, # of connection points: 2
#     Edge 19, Type (0, 1), BuildingBlock: KIFKEQ_clean_linker_1, # of connection points: 2
#     Edge 20, Type (0, 1), BuildingBlock: KIFKEQ_clean_linker_1, # of connection points: 2
#     Edge 21, Type (0, 1), BuildingBlock: KIFKEQ_clean_linker_1, # of connection points: 2
#     Edge 22, Type (0, 1), BuildingBlock: KIFKEQ_clean_linker_1, # of connection points: 2
#     Edge 23, Type (0, 1), BuildingBlock: KIFKEQ_clean_linker_1, # of connection points: 2
#     Edge 24, Type (0, 1), BuildingBlock: KIFKEQ_clean_linker_1, # of connection points: 2
#     Edge 25, Type (0, 1), BuildingBlock: KIFKEQ_clean_linker_1, # of connection points: 2
#     Edge 26, Type (0, 1), BuildingBlock: KIFKEQ_clean_linker_1, # of connection points: 2
#     Edge 27, Type (0, 1), BuildingBlock: KIFKEQ_clean_linker_1, # of connection points: 2
#     Edge 28, Type (0, 1), BuildingBlock: KIFKEQ_clean_linker_1, # of connection points: 2
#     Edge 29, Type (0, 1), BuildingBlock: KIFKEQ_clean_linker_1, # of connection points: 2
#     Edge 30, Type (0, 1), BuildingBlock: KIFKEQ_clean_linker_1, # of connection points: 2
#     Edge 31, Type (0, 1), BuildingBlock: KIFKEQ_clean_linker_1, # of connection points: 2
#     Edge 32, Type (0, 1), BuildingBlock: KIFKEQ_clean_linker_1, # of connection points: 2
#     Edge 33, Type (0, 1), BuildingBlock: KIFKEQ_clean_linker_1, # of connection points: 2
#     Edge 34, Type (0, 1), BuildingBlock: KIFKEQ_clean_linker_1, # of connection points: 2
#     Edge 35, Type (0, 1), BuildingBlock: KIFKEQ_clean_linker_1, # of connection points: 2
# Relax obj value: 0.150
# Max RMSD: 0.173
# Mean RMSD: 0.121
data_MOF--net-zzz--node1-OLANEW_clean_sbu_2--node2-BETDEL_clean_sbu_0--edge1-KIFKEQ_clean_linker_1
_symmetry_space_group_name_H-M    P1
_symmetry_Int_Tables_number       1
_symmetry_cell_setting            triclinic
loop_
_symmetry_equiv_pos_as_xyz
'x, y, z'
_cell_length_a     54.073353
_cell_length_b     54.149795
_cell_length_c     16.85519
_cell_angle_alpha  91.712369
_cell_angle_beta   88.61823
_cell_angle_gamma 95.868498
loop_
_atom_site_label
_atom_site_type_symbol
_atom_site_fract_x
_atom_site_fract_y
_atom_site_fract_z
_atom_type_partial_charge
O0 O 0.7599 0.58437 0.9167 0.0
Cd1 Cd 0.71943 0.59478 0.96639 0.0
O2 O 0.75581 0.55018 0.98502 0.0
Cd3 Cd 0.77445 0.52036 0.03454 0.0
O4 O 0.80981 0.5125 0.08252 0.0
C5 C 0.82458 0.53192 0.09563 0.0
O6 O 0.81722 0.55361 0.07997 0.0
C7 C 0.76847 0.56464 0.93776 0.0
C8 C 0.68122 0.567 0.88625 0.0
O9 O 0.69067 0.58801 0.86061 0.0
O10 O 0.68977 0.55922 0.95017 0.0
O11 O 0.89721 0.77505 0.83522 0.0
Cd12 Cd 0.87549 0.73446 0.8649 0.0
O13 O 0.91816 0.77234 0.94391 0.0
Cd14 Cd 0.94302 0.79065 0.03236 0.0
O15 O 0.95902 0.82351 0.09732 0.0
C16 C 0.94555 0.8414 0.10363 0.0
O17 O 0.92344 0.8388 0.07191 0.0
C18 C 0.91373 0.78428 0.88287 0.0
C19 C 0.90266 0.69619 0.80926 0.0
O20 O 0.88618 0.70438 0.76641 0.0
O21 O 0.90619 0.70603 0.8787 0.0
O22 O 0.74201 0.96184 0.8769 0.0
Cd23 Cd 0.77403 0.94181 0.94125 0.0
O24 O 0.73852 0.98382 0.98676 0.0
Cd25 Cd 0.7187 0.00675 0.06993 0.0
O26 O 0.68785 0.0145 0.14848 0.0
C27 C 0.66626 0.00733 0.12343 0.0
O28 O 0.66408 0.99724 0.05172 0.0
C29 C 0.73174 0.97854 0.91599 0.0
C30 C 0.81923 0.95845 0.871 0.0
O31 O 0.80685 0.93838 0.84611 0.0
O32 O 0.81047 0.97025 0.9306 0.0
O33 O 0.63512 0.73225 0.79977 0.0
Cd34 Cd 0.65729 0.77357 0.8147 0.0
O35 O 0.63827 0.72433 0.92609 0.0
Cd36 Cd 0.62706 0.70034 0.0253 0.0
O37 O 0.60883 0.66901 0.08993 0.0
C38 C 0.62047 0.6505 0.10472 0.0
O39 O 0.64398 0.65075 0.08286 0.0
C40 C 0.63078 0.71761 0.85708 0.0
C41 C 0.62503 0.80981 0.7949 0.0
O42 O 0.63563 0.79982 0.73503 0.0
O43 O 0.62981 0.80279 0.86435 0.0
O44 O 0.24683 0.55003 0.15805 0.0
Cd45 Cd 0.28616 0.55206 0.0839 0.0
O46 O 0.23995 0.51018 0.12847 0.0
Cd47 Cd 0.21333 0.47719 0.11456 0.0
O48 O 0.17901 0.46485 0.05328 0.0
C49 C 0.15815 0.46748 0.08705 0.0
O50 O 0.15756 0.47458 0.16206 0.0
C51 C 0.23302 0.52967 0.16248 0.0
C52 C 0.32445 0.54383 0.18365 0.0
O53 O 0.31796 0.56571 0.17549 0.0
O54 O 0.31296 0.52584 0.14383 0.0
O55 O 0.11687 0.26329 0.37314 0.0
Cd56 Cd 0.1343 0.30563 0.34468 0.0
O57 O 0.13429 0.25021 0.26283 0.0
Cd58 Cd 0.13791 0.2206 0.17373 0.0
O59 O 0.12656 0.18573 0.11069 0.0
C60 C 0.10349 0.17833 0.11406 0.0
O61 O 0.08841 0.19189 0.15416 0.0
C62 C 0.12111 0.24559 0.32516 0.0
C63 C 0.10249 0.34085 0.39386 0.0
O64 O 0.10123 0.33092 0.3239 0.0
O65 O 0.11876 0.33408 0.44051 0.0
O66 O 0.26109 0.88747 0.31803 0.0
Cd67 Cd 0.22707 0.88467 0.22526 0.0
O68 O 0.27072 0.92235 0.25725 0.0
Cd69 Cd 0.29667 0.95407 0.22353 0.0
O70 O 0.3283 0.97285 0.15953 0.0
C71 C 0.32936 0.96824 0.08525 0.0
O72 O 0.31111 0.95386 0.05257 0.0
C73 C 0.27535 0.90742 0.31052 0.0
C74 C 0.19264 0.91582 0.28271 0.0
O75 O 0.18932 0.89236 0.29316 0.0
O76 O 0.21196 0.92455 0.24327 0.0
O77 O 0.38834 0.25103 0.32783 0.0
Cd78 Cd 0.37629 0.20899 0.27699 0.0
O79 O 0.38485 0.26253 0.20547 0.0
Cd80 Cd 0.39246 0.29005 0.11404 0.0
O81 O 0.40622 0.32391 0.0544 0.0
C82 C 0.39176 0.33996 0.03746 0.0
O83 O 0.36789 0.33569 0.05438 0.0
C84 C 0.39027 0.26807 0.27724 0.0
C85 C 0.40062 0.17406 0.3545 0.0
O86 O 0.4117 0.18719 0.29976 0.0
O87 O 0.37803 0.1774 0.37272 0.0
Dy88 Dy 0.02101 0.98999 0.65846 0.0
C89 C 0.04621 0.07385 0.46032 0.0
C90 C 0.00502 0.94858 0.7415 0.0
Dy91 Dy 0.02536 0.03416 0.54272 0.0
O92 O 0.02142 0.94955 0.68393 0.0
O93 O 0.99781 0.97049 0.75553 0.0
O94 O 0.06263 0.99137 0.65718 0.0
O95 O 0.04447 0.00114 0.55642 0.0
C96 C 0.06548 0.99987 0.58575 0.0
C97 C 0.9805 0.02364 0.60852 0.0
O98 O 0.01702 0.00275 0.45569 0.0
O99 O -0.00038 0.97548 0.55059 0.0
O100 O 0.02249 0.06693 0.46533 0.0
O101 O 0.05844 0.05873 0.4986 0.0
O102 O 0.98378 0.0349 0.54136 0.0
O103 O 0.00105 0.02194 0.64048 0.0
O104 O 0.03258 0.02003 0.74743 0.0
O105 O 0.04017 0.05183 0.65672 0.0
C106 C 0.00355 0.98191 0.47554 0.0
C107 C 0.04038 0.04327 0.7297 0.0
Dy108 Dy 0.48312 0.9779 0.61052 0.0
C109 C 0.57622 0.02968 0.70486 0.0
C110 C 0.4369 0.95554 0.57689 0.0
Dy111 Dy 0.52826 0.01173 0.67454 0.0
O112 O 0.45747 0.95013 0.54269 0.0
O113 O 0.44154 0.97314 0.63012 0.0
O114 O 0.50632 0.96523 0.50797 0.0
O115 O 0.51419 0.00102 0.55758 0.0
C116 C 0.5217 0.98525 0.50888 0.0
C117 C 0.4891 0.00477 0.77354 0.0
O118 O 0.51015 0.04053 0.61158 0.0
O119 O 0.47192 0.01667 0.59807 0.0
O120 O 0.55747 0.03115 0.75393 0.0
O121 O 0.56845 0.01934 0.63835 0.0
O122 O 0.5039 0.0253 0.77323 0.0
O123 O 0.4972 0.98877 0.72674 0.0
O124 O 0.50127 0.94939 0.67508 0.0
O125 O 0.53937 0.97309 0.68654 0.0
C126 C 0.48612 0.0382 0.59505 0.0
C127 C 0.52532 0.95159 0.69066 0.0
Dy128 Dy 0.50529 0.52008 0.63263 0.0
C129 C 0.47466 0.43677 0.42387 0.0
C130 C 0.52938 0.55715 0.72328 0.0
Dy131 Dy 0.49592 0.47594 0.5125 0.0
O132 O 0.50592 0.55549 0.70654 0.0
O133 O 0.53943 0.53836 0.69176 0.0
O134 O 0.46622 0.52966 0.61936 0.0
O135 O 0.48466 0.51327 0.52339 0.0
C136 C 0.46413 0.51989 0.5481 0.0
C137 C 0.53714 0.47738 0.59826 0.0
O138 O 0.51369 0.50397 0.4286 0.0
O139 O 0.53062 0.53081 0.52813 0.0
O140 O 0.4977 0.43965 0.44533 0.0
O141 O 0.46341 0.45568 0.44895 0.0
O142 O 0.53613 0.46914 0.52507 0.0
O143 O 0.51611 0.48281 0.62151 0.0
O144 O 0.48682 0.49229 0.71568 0.0
O145 O 0.47011 0.46543 0.61602 0.0
C146 C 0.52918 0.52322 0.4525 0.0
C147 C 0.47136 0.47306 0.69163 0.0
Dy148 Dy 0.97699 0.51342 0.64216 0.0
C149 C 0.06487 0.52371 0.43515 0.0
C150 C 0.93585 0.52467 0.72699 0.0
Dy151 Dy 0.02148 0.52223 0.52171 0.0
O152 O 0.94511 0.50342 0.72869 0.0
O153 O 0.94907 0.53938 0.67973 0.0
O154 O 0.98143 0.47269 0.64682 0.0
O155 O 0.99219 0.49253 0.54402 0.0
C156 C 0.99287 0.47218 0.57794 0.0
C157 C 0.00396 0.56263 0.58794 0.0
O158 O 0.99091 0.5191 0.43401 0.0
O159 O 0.95886 0.52162 0.52829 0.0
O160 O 0.05728 0.54208 0.47683 0.0
O161 O 0.04861 0.50436 0.43993 0.0
O162 O 0.01225 0.56162 0.51507 0.0
O163 O 0.0066 0.5427 0.62194 0.0
O164 O 0.00832 0.51462 0.72632 0.0
O165 O 0.0384 0.50774 0.62917 0.0
C166 C 0.96739 0.52175 0.45367 0.0
C167 C 0.03072 0.50857 0.70456 0.0
H168 H 0.20229 0.96463 0.32793 0.0
H169 H 0.14365 0.90416 0.31813 0.0
H170 H 0.17372 0.99094 0.39728 0.0
H171 H 0.11511 0.93072 0.38484 0.0
H172 H 0.06849 0.9978 0.42437 0.0
H173 H 0.10128 0.98119 0.34301 0.0
H174 H 0.145 0.97635 0.55149 0.0
H175 H 0.11184 0.9923 0.63406 0.0
C176 C 0.18322 0.95714 0.33936 0.0
C177 C 0.17511 0.93238 0.31793 0.0
C178 C 0.16702 0.97214 0.37902 0.0
C179 C 0.14239 0.96273 0.39562 0.0
C180 C 0.13407 0.9383 0.37196 0.0
C181 C 0.15036 0.92315 0.33418 0.0
C182 C 0.08534 0.99382 0.45275 0.0
C183 C 0.08753 0.99597 0.53571 0.0
C184 C 0.10403 0.98434 0.40611 0.0
C185 C 0.12541 0.97753 0.44148 0.0
C186 C 0.12862 0.98167 0.5233 0.0
C187 C 0.1097 0.99073 0.57031 0.0
H188 H 0.38007 0.13054 0.41493 0.0
H189 H 0.45004 0.17545 0.384 0.0
H190 H 0.40124 0.09861 0.4751 0.0
H191 H 0.47126 0.14457 0.45025 0.0
H192 H 0.50639 0.07345 0.49446 0.0
H193 H 0.48595 0.10671 0.43811 0.0
H194 H 0.42024 0.08578 0.58264 0.0
H195 H 0.44021 0.05136 0.63309 0.0
C196 C 0.39999 0.13372 0.42249 0.0
C197 C 0.41345 0.15535 0.39464 0.0
C198 C 0.41221 0.1155 0.45777 0.0
C199 C 0.43814 0.11881 0.46832 0.0
C200 C 0.45144 0.14089 0.44183 0.0
C201 C 0.43927 0.15877 0.40436 0.0
C202 C 0.48762 0.07618 0.51417 0.0
C203 C 0.47477 0.05988 0.56755 0.0
C204 C 0.47586 0.09536 0.48232 0.0
C205 C 0.4512 0.09908 0.50501 0.0
C206 C 0.43888 0.08322 0.56143 0.0
C207 C 0.45038 0.06361 0.59123 0.0
H208 H 0.3461 0.50092 0.20131 0.0
H209 H 0.34804 0.5769 0.2891 0.0
H210 H 0.37912 0.49382 0.29179 0.0
H211 H 0.38106 0.56977 0.37913 0.0
H212 H 0.45892 0.50362 0.39447 0.0
H213 H 0.42438 0.50842 0.30738 0.0
H214 H 0.38662 0.54491 0.49932 0.0
H215 H 0.42118 0.54004 0.58652 0.0
C216 C 0.35356 0.51609 0.23987 0.0
C217 C 0.34449 0.53948 0.23802 0.0
C218 C 0.37251 0.51204 0.2914 0.0
C219 C 0.38258 0.53123 0.34257 0.0
C220 C 0.37342 0.55456 0.341 0.0
C221 C 0.35464 0.55868 0.28905 0.0
C222 C 0.44312 0.51242 0.4182 0.0
C223 C 0.44268 0.5215 0.49708 0.0
C224 C 0.42334 0.51512 0.36846 0.0
C225 C 0.40289 0.52713 0.39655 0.0
C226 C 0.4023 0.53583 0.4759 0.0
C227 C 0.42199 0.53295 0.52583 0.0
H228 H 0.10104 0.36538 0.53767 0.0
H229 H 0.06607 0.35891 0.30912 0.0
H230 H 0.07381 0.39662 0.58038 0.0
H231 H 0.03848 0.38985 0.35249 0.0
H232 H 0.01325 0.46597 0.43011 0.0
H233 H 0.03971 0.4341 0.38506 0.0
H234 H 0.03043 0.40036 0.61448 0.0
H235 H 0.00473 0.43273 0.65995 0.0
C236 C 0.08746 0.37053 0.49665 0.0
C237 C 0.08573 0.35965 0.41998 0.0
C238 C 0.07174 0.38834 0.52132 0.0
C239 C 0.05391 0.39569 0.46994 0.0
C240 C 0.05219 0.38481 0.39322 0.0
C241 C 0.06792 0.36697 0.36853 0.0
C242 C 0.017 0.45177 0.4708 0.0
C243 C 0.00723 0.45192 0.54866 0.0
C244 C 0.03194 0.43339 0.44486 0.0
C245 C 0.03731 0.41475 0.49633 0.0
C246 C 0.027 0.41467 0.57376 0.0
C247 C 0.01209 0.43306 0.5996 0.0
H248 H 0.84638 0.00317 0.89712 0.0
H249 H 0.8448 0.93557 0.7534 0.0
H250 H 0.88477 0.01929 0.8291 0.0
H251 H 0.88308 0.95179 0.6853 0.0
H252 H 0.96648 0.97723 0.65858 0.0
H253 H 0.9273 0.96178 0.722 0.0
H254 H 0.89965 0.03297 0.69222 0.0
H255 H 0.93963 0.04857 0.63054 0.0
C256 C 0.85422 0.99176 0.85108 0.0
C257 C 0.84265 0.96806 0.83082 0.0
C258 C 0.87606 0.00108 0.81175 0.0
C259 C 0.88682 0.9868 0.75192 0.0
C260 C 0.87526 0.96311 0.73167 0.0
C261 C 0.85333 0.95386 0.77054 0.0
C262 C 0.9523 0.98969 0.66733 0.0
C263 C 0.95626 0.01423 0.64243 0.0
C264 C 0.92966 0.98074 0.70214 0.0
C265 C 0.9105 0.99624 0.71249 0.0
C266 C 0.91427 0.02074 0.68585 0.0
C267 C 0.93697 0.02961 0.6503 0.0
H268 H 0.6089 0.84238 0.90673 0.0
H269 H 0.60276 0.82082 0.65851 0.0
H270 H 0.58237 0.87557 0.88704 0.0
H271 H 0.576 0.85381 0.63935 0.0
H272 H 0.5104 0.90255 0.65806 0.0
H273 H 0.53262 0.86672 0.68748 0.0
H274 H 0.58937 0.91549 0.80492 0.0
H275 H 0.56752 0.95118 0.77493 0.0
C276 C 0.60171 0.84458 0.8482 0.0
C277 C 0.60803 0.8291 0.78404 0.0
C278 C 0.58659 0.86358 0.83698 0.0
C279 C 0.57715 0.86718 0.76174 0.0
C280 C 0.58286 0.85127 0.69811 0.0
C281 C 0.59831 0.83253 0.709 0.0
C282 C 0.52746 0.90554 0.69092 0.0
C283 C 0.53727 0.92964 0.71394 0.0
C284 C 0.54021 0.88509 0.70733 0.0
C285 C 0.56268 0.88841 0.74842 0.0
C286 C 0.57199 0.91241 0.77372 0.0
C287 C 0.55954 0.93283 0.75611 0.0
H288 H 0.65607 0.52289 0.92912 0.0
H289 H 0.66078 0.57749 0.74599 0.0
H290 H 0.6227 0.49846 0.85814 0.0
H291 H 0.62731 0.55309 0.67551 0.0
H292 H 0.58287 0.49151 0.53325 0.0
H293 H 0.61911 0.51178 0.60263 0.0
H294 H 0.57863 0.50394 0.8261 0.0
H295 H 0.54257 0.48369 0.75673 0.0
C296 C 0.65002 0.52966 0.87371 0.0
C297 C 0.66107 0.55213 0.84316 0.0
C298 C 0.63089 0.51569 0.83322 0.0
C299 C 0.62254 0.52381 0.76113 0.0
C300 C 0.63368 0.54618 0.7303 0.0
C301 C 0.6527 0.56023 0.771 0.0
C302 C 0.582 0.49367 0.59734 0.0
C303 C 0.56008 0.48608 0.63994 0.0
C304 C 0.60258 0.50548 0.63688 0.0
C305 C 0.6016 0.50954 0.71967 0.0
C306 C 0.57999 0.50086 0.76242 0.0
C307 C 0.55938 0.48932 0.72282 0.0
H308 H 0.89682 0.66919 0.67032 0.0
H309 H 0.94182 0.678 0.87963 0.0
H310 H 0.92155 0.63687 0.61902 0.0
H311 H 0.96701 0.64612 0.82727 0.0
H312 H 0.98681 0.60042 0.51005 0.0
H313 H 0.9626 0.63273 0.5651 0.0
H314 H 0.96565 0.60207 0.79814 0.0
H315 H 0.99069 0.57031 0.74312 0.0
C316 C 0.91205 0.66429 0.70527 0.0
C317 C 0.9174 0.67622 0.77895 0.0
C318 C 0.92634 0.64586 0.67563 0.0
C319 C 0.94639 0.63901 0.71874 0.0
C320 C 0.95155 0.65076 0.79289 0.0
C321 C 0.93719 0.66913 0.82272 0.0
C322 C 0.98248 0.60077 0.57314 0.0
C323 C 0.99043 0.58282 0.62231 0.0
C324 C 0.9684 0.6191 0.60459 0.0
C325 C 0.96197 0.61987 0.68595 0.0
C326 C 0.97044 0.60216 0.73539 0.0
C327 C 0.98466 0.5839 0.7039 0.0
H328 H 0.14263 0.20261 0.2996 0.0
H329 H 0.0753 0.23102 0.38852 0.0
H330 H 0.12405 0.1603 0.31932 0.0
H331 H 0.05708 0.18867 0.41313 0.0
H332 H 0.02282 0.10902 0.38702 0.0
H333 H 0.04092 0.15023 0.34781 0.0
H334 H 0.11274 0.13345 0.42618 0.0
H335 H 0.09479 0.09222 0.46273 0.0
C336 C 0.1237 0.19975 0.32243 0.0
C337 C 0.11013 0.22003 0.3404 0.0
C338 C 0.11319 0.17551 0.33504 0.0
C339 C 0.08899 0.17102 0.3674 0.0
C340 C 0.07555 0.1914 0.38657 0.0
C341 C 0.08606 0.21567 0.37343 0.0
C342 C 0.04254 0.11408 0.39451 0.0
C343 C 0.05742 0.0975 0.4279 0.0
C344 C 0.05287 0.13774 0.37283 0.0
C345 C 0.07826 0.14526 0.38445 0.0
C346 C 0.09321 0.12824 0.41546 0.0
C347 C 0.08291 0.10461 0.43674 0.0
H348 H 0.30488 0.87433 0.36746 0.0
H349 H 0.29493 0.95241 0.36827 0.0
H350 H 0.34274 0.88365 0.44439 0.0
H351 H 0.33291 0.96182 0.44311 0.0
H352 H 0.3922 0.9699 0.62811 0.0
H353 H 0.3513 0.95623 0.57399 0.0
H354 H 0.38484 0.90481 0.4139 0.0
H355 H 0.42555 0.91835 0.46828 0.0
C356 C 0.31079 0.89345 0.38426 0.0
C357 C 0.29742 0.91273 0.36023 0.0
C358 C 0.33244 0.89879 0.42795 0.0
C359 C 0.34085 0.92347 0.44936 0.0
C360 C 0.32685 0.94261 0.42789 0.0
C361 C 0.30536 0.93728 0.38382 0.0
C362 C 0.3907 0.95542 0.58222 0.0
C363 C 0.41196 0.94529 0.55184 0.0
C364 C 0.36737 0.94768 0.55102 0.0
C365 C 0.36492 0.92957 0.48936 0.0
C366 C 0.38609 0.91863 0.46182 0.0
C367 C 0.40941 0.92647 0.49264 0.0
H368 H 0.37663 0.31218 0.22682 0.0
H369 H 0.42745 0.28116 0.38039 0.0
H370 H 0.39744 0.35372 0.25319 0.0
H371 H 0.44756 0.32275 0.40998 0.0
H372 H 0.49575 0.39496 0.37892 0.0
H373 H 0.47448 0.35455 0.3412 0.0
H374 H 0.40384 0.38534 0.35907 0.0
H375 H 0.42527 0.4259 0.39537 0.0
C376 C 0.39234 0.31427 0.26592 0.0
C377 C 0.40091 0.29343 0.29981 0.0
C378 C 0.40404 0.33808 0.28189 0.0
C379 C 0.42442 0.3415 0.33271 0.0
C380 C 0.4323 0.32068 0.36905 0.0
C381 C 0.42061 0.2969 0.35296 0.0
C382 C 0.47572 0.39315 0.37353 0.0
C383 C 0.46213 0.41348 0.39025 0.0
C384 C 0.46351 0.36997 0.35274 0.0
C385 C 0.43743 0.36663 0.34836 0.0
C386 C 0.42394 0.3873 0.36164 0.0
C387 C 0.43619 0.41052 0.38246 0.0
H388 H 0.19982 0.564 0.15693 0.0
H389 H 0.21153 0.49437 0.26067 0.0
H390 H 0.1587 0.56254 0.22139 0.0
H391 H 0.17084 0.49332 0.32795 0.0
H392 H 0.08549 0.48576 0.35628 0.0
H393 H 0.12647 0.48745 0.29053 0.0
H394 H 0.13975 0.56547 0.3546 0.0
H395 H 0.09883 0.56379 0.41931 0.0
C396 C 0.19359 0.54848 0.19401 0.0
C397 C 0.20853 0.52907 0.20289 0.0
C398 C 0.17015 0.54768 0.23116 0.0
C399 C 0.16142 0.52766 0.27906 0.0
C400 C 0.17682 0.5087 0.29004 0.0
C401 C 0.20006 0.50928 0.25162 0.0
C402 C 0.09717 0.50325 0.35578 0.0
C403 C 0.08906 0.52464 0.39266 0.0
C404 C 0.12067 0.50421 0.3187 0.0
C405 C 0.13637 0.5266 0.31755 0.0
C406 C 0.12801 0.54802 0.35375 0.0
C407 C 0.10462 0.54703 0.39106 0.0
H408 H 0.96299 0.79819 0.90285 0.0
H409 H 0.89527 0.82542 0.82797 0.0
H410 H 0.98563 0.83882 0.88071 0.0
H411 H 0.91807 0.86603 0.80334 0.0
H412 H 0.96276 0.94208 0.83363 0.0
H413 H 0.94069 0.90257 0.87467 0.0
H414 H 0.99845 0.86326 0.76299 0.0
H415 H 0.02044 0.90261 0.72266 0.0
C416 C 0.95289 0.81302 0.88271 0.0
C417 C 0.92731 0.80886 0.86856 0.0
C418 C 0.9659 0.83618 0.86915 0.0
C419 C 0.95362 0.85567 0.84065 0.0
C420 C 0.92797 0.85149 0.82649 0.0
C421 C 0.91497 0.82823 0.83977 0.0
C422 C 0.9709 0.92498 0.81923 0.0
C423 C 0.99331 0.92533 0.77523 0.0
C424 C 0.95817 0.9024 0.842 0.0
C425 C 0.96778 0.87981 0.82173 0.0
C426 C 0.99068 0.88034 0.78018 0.0
C427 C 0.00325 0.90286 0.75692 0.0
H428 H 0.7002 0.95865 0.80281 0.0
H429 H 0.71773 0.02536 0.94584 0.0
H430 H 0.66562 0.97702 0.74592 0.0
H431 H 0.68245 0.04345 0.89083 0.0
H432 H 0.61632 0.02029 0.61307 0.0
H433 H 0.65693 0.01203 0.66006 0.0
H434 H 0.63542 0.03365 0.89852 0.0
H435 H 0.59479 0.04205 0.85139 0.0
C436 C 0.69666 0.97724 0.82217 0.0
C437 C 0.71119 0.99023 0.88079 0.0
C438 C 0.67695 0.98783 0.78923 0.0
C439 C 0.67134 0.01167 0.81406 0.0
C440 C 0.68619 0.02492 0.87139 0.0
C441 C 0.70612 0.0144 0.90378 0.0
C442 C 0.62054 0.02401 0.67506 0.0
C443 C 0.60236 0.03153 0.72884 0.0
C444 C 0.6437 0.01909 0.70202 0.0
C445 C 0.64911 0.02175 0.78313 0.0
C446 C 0.63175 0.03147 0.83566 0.0
C447 C 0.60851 0.03629 0.8087 0.0
H448 H 0.59048 0.708 0.76434 0.0
H449 H 0.63834 0.67277 0.91744 0.0
H450 H 0.56543 0.66835 0.74275 0.0
H451 H 0.61274 0.63321 0.89858 0.0
H452 H 0.51179 0.60032 0.77441 0.0
H453 H 0.53627 0.63884 0.81511 0.0
H454 H 0.60349 0.60215 0.79115 0.0
H455 H 0.57893 0.56358 0.75174 0.0
C456 C 0.59548 0.69177 0.79387 0.0
C457 C 0.61596 0.69351 0.84392 0.0
C458 C 0.58101 0.66915 0.78228 0.0
C459 C 0.58689 0.64772 0.81993 0.0
C460 C 0.60769 0.6494 0.86897 0.0
C461 C 0.62214 0.67208 0.88061 0.0
C462 C 0.53174 0.60042 0.77932 0.0
C463 C 0.54352 0.57911 0.75951 0.0
C464 C 0.54577 0.62249 0.80194 0.0
C465 C 0.57183 0.62362 0.80522 0.0
C466 C 0.58345 0.60187 0.78952 0.0
C467 C 0.56941 0.57981 0.76676 0.0
H468 H 0.81017 0.59706 0.92507 0.0
H469 H 0.78293 0.51999 0.8883 0.0
H470 H 0.85195 0.58773 0.88436 0.0
H471 H 0.82439 0.51059 0.84553 0.0
H472 H 0.9053 0.49659 0.82911 0.0
H473 H 0.86561 0.50689 0.88756 0.0
H474 H 0.87449 0.57712 0.76908 0.0
H475 H 0.91432 0.56724 0.71418 0.0
C476 C 0.81316 0.57815 0.90776 0.0
C477 C 0.7935 0.55917 0.91075 0.0
C478 C 0.83705 0.57276 0.88438 0.0
C479 C 0.84163 0.54835 0.86195 0.0
C480 C 0.82175 0.52946 0.86419 0.0
C481 C 0.79796 0.53484 0.88832 0.0
C482 C 0.89878 0.51431 0.81657 0.0
C483 C 0.91273 0.53105 0.76693 0.0
C484 C 0.876 0.52016 0.84943 0.0
C485 C 0.8667 0.54278 0.8326 0.0
C486 C 0.88113 0.5597 0.78436 0.0
C487 C 0.90391 0.55395 0.75228 0.0
H488 H 0.05519 0.1647 0.07682 0.0
H489 H 0.12903 0.14123 0.04921 0.0
H490 H 0.03896 0.12986 0.99141 0.0
H491 H 0.11251 0.10603 0.96474 0.0
H492 H 0.0625 0.03427 0.8694 0.0
H493 H 0.0774 0.06515 0.97208 0.0
H494 H 0.05095 0.12317 0.83679 0.0
H495 H 0.03669 0.09277 0.73409 0.0
C496 C 0.0679 0.15191 0.05356 0.0
C497 C 0.09344 0.15586 0.06892 0.0
C498 C 0.05858 0.13201 0.00477 0.0
C499 C 0.07454 0.11541 0.97169 0.0
C500 C 0.09986 0.11856 0.9901 0.0
C501 C 0.10929 0.13876 0.03785 0.0
C502 C 0.05982 0.05362 0.86205 0.0
C503 C 0.04856 0.06118 0.79377 0.0
C504 C 0.06839 0.0712 0.92042 0.0
C505 C 0.06517 0.09641 0.9121 0.0
C506 C 0.05345 0.1038 0.8447 0.0
C507 C 0.04545 0.08642 0.78582 0.0
H508 H 0.37135 0.9966 0.13487 0.0
H509 H 0.33815 0.95899 0.92773 0.0
H510 H 0.40979 0.00696 0.05844 0.0
H511 H 0.3764 0.96956 0.85156 0.0
H512 H 0.4579 0.96232 0.78127 0.0
H513 H 0.41854 0.95567 0.85475 0.0
H514 H 0.42796 0.03162 0.94391 0.0
H515 H 0.46752 0.03827 0.86985 0.0
C516 C 0.37214 0.99081 0.07287 0.0
C517 C 0.35178 0.97677 0.03758 0.0
C518 C 0.39411 0.99683 0.02907 0.0
C519 C 0.39616 0.98884 0.9493 0.0
C520 C 0.37549 0.9756 0.91334 0.0
C521 C 0.35354 0.96967 0.95693 0.0
C522 C 0.45152 0.97762 0.81631 0.0
C523 C 0.46563 0.00083 0.81968 0.0
C524 C 0.42893 0.97386 0.85806 0.0
C525 C 0.42009 0.99319 0.90461 0.0
C526 C 0.43439 0.01636 0.9088 0.0
C527 C 0.45696 0.02018 0.86641 0.0
H528 H 0.44024 0.35898 0.02312 0.0
H529 H 0.36586 0.37253 0.96057 0.0
H530 H 0.45717 0.39492 0.94835 0.0
H531 H 0.38293 0.40856 0.8854 0.0
H532 H 0.43032 0.44064 0.66555 0.0
H533 H 0.40917 0.41162 0.7586 0.0
H534 H 0.45794 0.44187 0.94432 0.0
H535 H 0.47923 0.47108 0.85102 0.0
C536 C 0.42749 0.36976 0.99392 0.0
C537 C 0.40174 0.36279 0.99698 0.0
C538 C 0.43718 0.39047 0.95176 0.0
C539 C 0.42134 0.40449 0.91112 0.0
C540 C 0.39553 0.39797 0.91594 0.0
C541 C 0.3858 0.3774 0.95902 0.0
C542 C 0.43633 0.44137 0.72651 0.0
C543 C 0.45659 0.45796 0.75083 0.0
C544 C 0.42408 0.42486 0.7799 0.0
C545 C 0.43201 0.42443 0.85848 0.0
C546 C 0.4516 0.44173 0.88382 0.0
C547 C 0.46367 0.45849 0.83056 0.0
H548 H 0.15054 0.44768 0.93795 0.0
H549 H 0.11569 0.48878 0.1257 0.0
H550 H 0.11738 0.45503 0.84907 0.0
H551 H 0.08305 0.497 0.03599 0.0
H552 H 0.01981 0.49657 0.85954 0.0
H553 H 0.04797 0.48239 0.95596 0.0
H554 H 0.10825 0.49106 0.78267 0.0
H555 H 0.08021 0.50439 0.68649 0.0
C556 C 0.13562 0.45803 0.96046 0.0
C557 C 0.13587 0.46789 0.0384 0.0
C558 C 0.11673 0.46244 0.9094 0.0
C559 C 0.09787 0.47713 0.93481 0.0
C560 C 0.09723 0.48558 0.01445 0.0
C561 C 0.11599 0.48089 0.06589 0.0
C562 C 0.03911 0.49551 0.84235 0.0
C563 C 0.04776 0.50155 0.76534 0.0
C564 C 0.05523 0.48736 0.89753 0.0
C565 C 0.0803 0.48524 0.87676 0.0
C566 C 0.08893 0.49177 0.80012 0.0
C567 C 0.07286 0.49969 0.74508 0.0
H568 H 0.99284 0.85747 0.14868 0.0
H569 H 0.91732 0.87707 0.16138 0.0
H570 H 0.00621 0.89422 0.23081 0.0
H571 H 0.93071 0.91355 0.24425 0.0
H572 H 0.96278 0.94838 0.48574 0.0
H573 H 0.94838 0.91645 0.38739 0.0
H574 H 0.00793 0.9431 0.22687 0.0
H575 H 0.02223 0.97544 0.32512 0.0
C576 C 0.97915 0.86968 0.16861 0.0
C577 C 0.95401 0.86431 0.14916 0.0
C578 C 0.98683 0.89077 0.21503 0.0
C579 C 0.96945 0.90661 0.24376 0.0
C580 C 0.94442 0.90153 0.223 0.0
C581 C 0.93681 0.88069 0.17553 0.0
C582 C 0.97262 0.94761 0.42909 0.0
C583 C 0.99363 0.96432 0.41295 0.0
C584 C 0.96431 0.92944 0.37277 0.0
C585 C 0.9771 0.92735 0.29981 0.0
C586 C 0.99784 0.94434 0.28292 0.0
C587 C 0.00589 0.96287 0.33878 0.0
H588 H 0.61839 0.98952 0.09179 0.0
H589 H 0.66432 0.02566 0.27639 0.0
H590 H 0.5829 0.986 0.18403 0.0
H591 H 0.62874 0.02193 0.3688 0.0
H592 H 0.55184 0.02845 0.49028 0.0
H593 H 0.58643 0.03617 0.3948 0.0
H594 H 0.57274 0.96073 0.30349 0.0
H595 H 0.5384 0.95303 0.39888 0.0
C596 C 0.62088 0.99692 0.15181 0.0
C597 C 0.64423 0.00767 0.17698 0.0
C598 C 0.60057 0.99477 0.20471 0.0
C599 C 0.60314 0.00345 0.28376 0.0
C600 C 0.6262 0.01518 0.30809 0.0
C601 C 0.64658 0.01722 0.25524 0.0
C602 C 0.55638 0.01352 0.45006 0.0
C603 C 0.54259 0.99011 0.45206 0.0
C604 C 0.57612 0.01794 0.39549 0.0
C605 C 0.58216 0.99909 0.34148 0.0
C606 C 0.56826 0.97572 0.34357 0.0
C607 C 0.54871 0.97127 0.39844 0.0
H608 H 0.57053 0.63907 0.12799 0.0
H609 H 0.64164 0.61363 0.17716 0.0
H610 H 0.54958 0.60505 0.20402 0.0
H611 H 0.62059 0.5797 0.25375 0.0
H612 H 0.57276 0.55168 0.47714 0.0
H613 H 0.59571 0.57988 0.38501 0.0
H614 H 0.54256 0.55716 0.2032 0.0
H615 H 0.51955 0.52863 0.29557 0.0
C616 C 0.58167 0.62615 0.15469 0.0
C617 C 0.60775 0.62915 0.14724 0.0
C618 C 0.56966 0.60656 0.19758 0.0
C619 C 0.58349 0.58979 0.23472 0.0
C620 C 0.60952 0.59247 0.22596 0.0
C621 C 0.62153 0.61185 0.18207 0.0
C622 C 0.56612 0.55248 0.41722 0.0
C623 C 0.5443 0.53809 0.39357 0.0
C624 C 0.57935 0.5685 0.36439 0.0
C625 C 0.57085 0.57073 0.28715 0.0
C626 C 0.54941 0.55584 0.26264 0.0
C627 C 0.53636 0.53946 0.31524 0.0
H628 H 0.84748 0.49046 0.12779 0.0
H629 H 0.8563 0.57061 0.14999 0.0
H630 H 0.88527 0.48885 0.20417 0.0
H631 H 0.89368 0.56883 0.22649 0.0
H632 H 0.92714 0.54739 0.46596 0.0
H633 H 0.89533 0.55026 0.3678 0.0
H634 H 0.93441 0.50477 0.20285 0.0
H635 H 0.96684 0.5022 0.30149 0.0
C636 C 0.8576 0.50769 0.14806 0.0
C637 C 0.8487 0.53064 0.13394 0.0
C638 C 0.87928 0.50676 0.19117 0.0
C639 C 0.89218 0.52872 0.22142 0.0
C640 C 0.88392 0.55165 0.20417 0.0
C641 C 0.8625 0.55262 0.16043 0.0
C642 C 0.92908 0.53814 0.40856 0.0
C643 C 0.94937 0.52452 0.39122 0.0
C644 C 0.91096 0.53991 0.35232 0.0
C645 C 0.91251 0.52776 0.27794 0.0
C646 C 0.93288 0.51426 0.25998 0.0
C647 C 0.9514 0.51291 0.31601 0.0
loop_
_geom_bond_atom_site_label_1
_geom_bond_atom_site_label_2
_geom_bond_distance
_geom_bond_site_symmetry_2
_ccdc_geom_bond_type
O0 Cd1 2.297 1_556 S
O0 C7 1.275 . S
Cd1 O0 2.297 1_554 S
Cd1 O9 2.379 1_554 S
Cd1 O10 2.379 . S
O2 Cd3 2.385 . S
O2 C7 1.255 1_554 S
Cd3 O2 2.385 . S
Cd3 O4 2.317 . S
O4 Cd3 2.317 . S
O4 C5 1.232 . S
C5 O4 1.232 . S
C5 O6 1.218 . S
O6 C5 1.218 . S
C7 O0 1.275 . S
C7 O2 1.255 1_556 S
C8 O9 1.258 . S
C8 O10 1.256 1_556 S
O9 Cd1 2.379 1_556 S
O9 C8 1.258 . S
O10 Cd1 2.379 . S
O10 C8 1.256 1_554 S
O11 Cd12 2.300 . S
O11 C18 1.275 . S
Cd12 O11 2.300 . S
Cd12 O20 2.381 . S
Cd12 O21 2.378 1_556 S
O13 Cd14 2.385 1_656 S
O13 C18 1.255 . S
Cd14 O13 2.385 1_454 S
Cd14 O15 2.317 1_455 S
O15 Cd14 2.317 1_655 S
O15 C16 1.232 . S
C16 O15 1.232 . S
C16 O17 1.218 . S
O17 C16 1.218 . S
C18 O11 1.275 . S
C18 O13 1.255 . S
C19 O20 1.258 . S
C19 O21 1.256 1_556 S
O20 Cd12 2.381 . S
O20 C19 1.258 . S
O21 Cd12 2.378 1_554 S
O21 C19 1.256 1_554 S
O22 Cd23 2.300 1_565 S
O22 C29 1.275 . S
Cd23 O22 2.300 1_545 S
Cd23 O31 2.381 1_545 S
Cd23 O32 2.378 1_556 S
O24 Cd25 2.385 1_556 S
O24 C29 1.255 1_545 S
Cd25 O24 2.385 1_554 S
Cd25 O26 2.317 . S
O26 Cd25 2.317 . S
O26 C27 1.232 1_545 S
C27 O26 1.232 1_565 S
C27 O28 1.218 1_565 S
O28 C27 1.218 1_545 S
C29 O22 1.275 . S
C29 O24 1.255 1_565 S
C30 O31 1.258 . S
C30 O32 1.256 1_566 S
O31 Cd23 2.381 1_565 S
O31 C30 1.258 . S
O32 Cd23 2.378 1_554 S
O32 C30 1.256 1_544 S
O33 Cd34 2.300 1_556 S
O33 C40 1.275 . S
Cd34 O33 2.300 1_554 S
Cd34 O42 2.381 1_554 S
Cd34 O43 2.378 . S
O35 Cd36 2.385 . S
O35 C40 1.255 1_554 S
Cd36 O35 2.385 . S
Cd36 O37 2.317 . S
O37 Cd36 2.317 . S
O37 C38 1.232 . S
C38 O37 1.232 . S
C38 O39 1.218 . S
O39 C38 1.218 . S
C40 O33 1.275 . S
C40 O35 1.255 1_556 S
C41 O42 1.258 1_554 S
C41 O43 1.256 . S
O42 Cd34 2.381 1_556 S
O42 C41 1.258 1_556 S
O43 Cd34 2.378 . S
O43 C41 1.256 . S
O44 Cd45 2.300 . S
O44 C51 1.275 . S
Cd45 O44 2.300 . S
Cd45 O53 2.381 . S
Cd45 O54 2.378 . S
O46 Cd47 2.385 . S
O46 C51 1.255 . S
Cd47 O46 2.385 . S
Cd47 O48 2.317 1_554 S
O48 Cd47 2.317 1_556 S
O48 C49 1.232 . S
C49 O48 1.232 . S
C49 O50 1.218 . S
O50 C49 1.218 . S
C51 O44 1.275 . S
C51 O46 1.255 . S
C52 O53 1.258 . S
C52 O54 1.256 . S
O53 Cd45 2.381 . S
O53 C52 1.258 . S
O54 Cd45 2.378 . S
O54 C52 1.256 . S
O55 Cd56 2.300 . S
O55 C62 1.275 . S
Cd56 O55 2.300 . S
Cd56 O64 2.381 . S
Cd56 O65 2.378 . S
O57 Cd58 2.385 . S
O57 C62 1.255 . S
Cd58 O57 2.385 . S
Cd58 O59 2.317 . S
O59 Cd58 2.317 . S
O59 C60 1.232 1_554 S
C60 O59 1.232 1_556 S
C60 O61 1.218 . S
O61 C60 1.218 . S
C62 O55 1.275 . S
C62 O57 1.255 . S
C63 O64 1.258 . S
C63 O65 1.256 . S
O64 Cd56 2.381 . S
O64 C63 1.258 . S
O65 Cd56 2.378 . S
O65 C63 1.256 . S
O66 Cd67 2.300 . S
O66 C73 1.275 . S
Cd67 O66 2.300 . S
Cd67 O75 2.381 . S
Cd67 O76 2.378 . S
O68 Cd69 2.385 . S
O68 C73 1.255 . S
Cd69 O68 2.385 . S
Cd69 O70 2.317 . S
O70 Cd69 2.317 . S
O70 C71 1.232 1_554 S
C71 O70 1.232 1_556 S
C71 O72 1.218 . S
O72 C71 1.218 . S
C73 O66 1.275 . S
C73 O68 1.255 . S
C74 O75 1.258 . S
C74 O76 1.256 . S
O75 Cd67 2.381 . S
O75 C74 1.258 . S
O76 Cd67 2.378 . S
O76 C74 1.256 . S
O77 Cd78 2.300 . S
O77 C84 1.275 . S
Cd78 O77 2.300 . S
Cd78 O86 2.381 . S
Cd78 O87 2.378 . S
O79 Cd80 2.385 . S
O79 C84 1.255 . S
Cd80 O79 2.385 . S
Cd80 O81 2.317 1_554 S
O81 Cd80 2.317 1_556 S
O81 C82 1.232 . S
C82 O81 1.232 . S
C82 O83 1.218 . S
O83 C82 1.218 . S
C84 O77 1.275 . S
C84 O79 1.255 . S
C85 O86 1.258 . S
C85 O87 1.256 . S
O86 Cd78 2.381 . S
O86 C85 1.258 . S
O87 Cd78 2.378 . S
O87 C85 1.256 . S
Dy88 O92 2.398 . S
Dy88 O93 2.491 1_455 S
Dy88 O94 2.403 . S
Dy88 O95 2.664 1_565 S
Dy88 O99 2.326 . S
Dy88 O103 2.310 1_455 S
Dy88 O104 2.351 1_565 S
C89 O100 1.185 1_455 S
C89 O101 1.355 . S
C90 O92 1.185 . S
C90 O93 1.355 1_455 S
Dy91 O95 2.310 1_655 S
Dy91 O98 2.351 1_545 S
Dy91 O100 2.398 . S
Dy91 O101 2.491 1_655 S
Dy91 O102 2.403 . S
Dy91 O103 2.664 1_545 S
Dy91 O105 2.326 1_655 S
O92 Dy88 2.398 . S
O92 C90 1.185 . S
O93 Dy88 2.491 1_655 S
O93 C90 1.355 1_655 S
O94 Dy88 2.403 . S
O94 C96 1.227 1_565 S
O95 Dy88 2.664 1_545 S
O95 Dy91 2.310 1_455 S
O95 C96 1.286 . S
C96 O94 1.227 1_545 S
C96 O95 1.286 . S
C97 O102 1.254 . S
C97 O103 1.268 1_545 S
O98 Dy91 2.351 1_565 S
O98 C106 1.249 . S
O99 Dy88 2.326 . S
O99 C106 1.267 1_455 S
O100 C89 1.185 1_655 S
O100 Dy91 2.398 . S
O101 C89 1.355 . S
O101 Dy91 2.491 1_455 S
O102 Dy91 2.403 . S
O102 C97 1.254 . S
O103 Dy88 2.310 1_655 S
O103 Dy91 2.664 1_565 S
O103 C97 1.268 1_565 S
O104 Dy88 2.351 1_545 S
O104 C107 1.249 . S
O105 Dy91 2.326 1_455 S
O105 C107 1.267 . S
C106 O98 1.249 . S
C106 O99 1.267 1_655 S
C107 O104 1.249 . S
C107 O105 1.267 . S
Dy108 O112 2.398 . S
Dy108 O113 2.491 1_565 S
Dy108 O114 2.403 . S
Dy108 O115 2.672 . S
Dy108 O119 2.326 1_565 S
Dy108 O123 2.310 1_565 S
Dy108 O124 2.351 . S
C109 O120 1.185 . S
C109 O121 1.355 . S
C110 O112 1.185 . S
C110 O113 1.355 1_565 S
Dy111 O115 2.291 1_545 S
Dy111 O118 2.351 . S
Dy111 O120 2.398 . S
Dy111 O121 2.491 . S
Dy111 O122 2.403 . S
Dy111 O123 2.664 . S
Dy111 O125 2.326 1_545 S
O112 Dy108 2.398 . S
O112 C110 1.185 . S
O113 Dy108 2.491 1_545 S
O113 C110 1.355 1_545 S
O114 Dy108 2.403 . S
O114 C116 1.254 . S
O115 Dy108 2.672 . S
O115 Dy111 2.291 1_565 S
O115 C116 1.278 . S
C116 O114 1.254 . S
C116 O115 1.278 . S
C117 O122 1.254 . S
C117 O123 1.268 . S
O118 Dy111 2.351 . S
O118 C126 1.249 . S
O119 Dy108 2.326 1_545 S
O119 C126 1.267 . S
O120 C109 1.185 . S
O120 Dy111 2.398 . S
O121 C109 1.355 . S
O121 Dy111 2.491 . S
O122 Dy111 2.403 . S
O122 C117 1.254 . S
O123 Dy108 2.310 1_545 S
O123 Dy111 2.664 . S
O123 C117 1.268 . S
O124 Dy108 2.351 . S
O124 C127 1.249 . S
O125 Dy111 2.326 1_565 S
O125 C127 1.267 . S
C126 O118 1.249 . S
C126 O119 1.267 . S
C127 O124 1.249 . S
C127 O125 1.267 . S
Dy128 O132 2.398 . S
Dy128 O133 2.491 . S
Dy128 O134 2.403 . S
Dy128 O135 2.664 . S
Dy128 O139 2.326 . S
Dy128 O143 2.310 . S
Dy128 O144 2.351 . S
C129 O140 1.185 . S
C129 O141 1.355 . S
C130 O132 1.185 . S
C130 O133 1.355 . S
Dy131 O135 2.310 . S
Dy131 O138 2.351 . S
Dy131 O140 2.398 . S
Dy131 O141 2.491 . S
Dy131 O142 2.403 . S
Dy131 O143 2.664 . S
Dy131 O145 2.326 . S
O132 Dy128 2.398 . S
O132 C130 1.185 . S
O133 Dy128 2.491 . S
O133 C130 1.355 . S
O134 Dy128 2.403 . S
O134 C136 1.254 . S
O135 Dy128 2.664 . S
O135 Dy131 2.310 . S
O135 C136 1.268 . S
C136 O134 1.254 . S
C136 O135 1.268 . S
C137 O142 1.254 . S
C137 O143 1.268 . S
O138 Dy131 2.351 . S
O138 C146 1.249 . S
O139 Dy128 2.326 . S
O139 C146 1.267 . S
O140 C129 1.185 . S
O140 Dy131 2.398 . S
O141 C129 1.355 . S
O141 Dy131 2.491 . S
O142 Dy131 2.403 . S
O142 C137 1.254 . S
O143 Dy128 2.310 . S
O143 Dy131 2.664 . S
O143 C137 1.268 . S
O144 Dy128 2.351 . S
O144 C147 1.249 . S
O145 Dy131 2.326 . S
O145 C147 1.267 . S
C146 O138 1.249 . S
C146 O139 1.267 . S
C147 O144 1.249 . S
C147 O145 1.267 . S
Dy148 O152 2.398 . S
Dy148 O153 2.491 . S
Dy148 O154 2.403 . S
Dy148 O155 2.664 1_655 S
Dy148 O159 2.326 . S
Dy148 O163 2.310 . S
Dy148 O164 2.351 1_655 S
C149 O160 1.185 . S
C149 O161 1.355 . S
C150 O152 1.185 . S
C150 O153 1.355 . S
Dy151 O155 2.310 . S
Dy151 O158 2.351 1_455 S
Dy151 O160 2.398 . S
Dy151 O161 2.491 . S
Dy151 O162 2.403 . S
Dy151 O163 2.664 1_455 S
Dy151 O165 2.326 . S
O152 Dy148 2.398 . S
O152 C150 1.185 . S
O153 Dy148 2.491 . S
O153 C150 1.355 . S
O154 Dy148 2.403 . S
O154 C156 1.254 1_655 S
O155 Dy148 2.664 1_455 S
O155 Dy151 2.310 . S
O155 C156 1.268 . S
C156 O154 1.254 1_455 S
C156 O155 1.268 . S
C157 O162 1.254 . S
C157 O163 1.268 1_455 S
O158 Dy151 2.351 1_655 S
O158 C166 1.249 . S
O159 Dy148 2.326 . S
O159 C166 1.267 . S
O160 C149 1.185 . S
O160 Dy151 2.398 . S
O161 C149 1.355 . S
O161 Dy151 2.491 . S
O162 Dy151 2.403 . S
O162 C157 1.254 . S
O163 Dy148 2.310 . S
O163 Dy151 2.664 1_655 S
O163 C157 1.268 1_655 S
O164 Dy148 2.351 1_455 S
O164 C167 1.249 . S
O165 Dy151 2.326 . S
O165 C167 1.267 . S
C166 O158 1.249 . S
C166 O159 1.267 . S
C167 O164 1.249 . S
C167 O165 1.267 . S
H168 C176 0.950 . S
H169 C181 0.950 1_565 S
H170 C178 0.950 . S
H171 C180 0.935 1_565 S
H172 C182 0.950 . S
H173 C184 0.950 . S
H174 C186 0.950 . S
H175 C187 0.950 . S
C176 H168 0.950 . S
C176 C177 1.386 . S
C176 C178 1.391 . S
C177 C176 1.386 . S
C177 C181 1.393 . S
C178 H170 0.950 . S
C178 C176 1.391 . S
C178 C179 1.400 . S
C179 C178 1.400 . S
C179 C180 1.414 . S
C179 C185 1.491 . S
C180 H171 0.935 1_545 S
C180 C179 1.414 . S
C180 C181 1.391 . S
C181 H169 0.950 1_545 S
C181 C177 1.393 . S
C181 C180 1.391 . S
C182 H172 0.950 . S
C182 C183 1.386 1_565 S
C182 C184 1.391 . S
C183 C182 1.386 1_545 S
C183 C187 1.393 . S
C184 H173 0.950 . S
C184 C182 1.391 . S
C184 C185 1.400 1_565 S
C185 C179 1.491 . S
C185 C184 1.400 1_545 S
C185 C186 1.398 . S
C186 H174 0.950 . S
C186 C185 1.398 . S
C186 C187 1.391 . S
C187 H175 0.950 . S
C187 C183 1.393 . S
C187 C186 1.391 . S
H188 C196 0.950 . S
H189 C201 0.950 . S
H190 C198 0.950 . S
H191 C200 0.950 . S
H192 C202 0.950 . S
H193 C204 0.950 . S
H194 C206 0.950 . S
H195 C207 0.950 . S
C196 H188 0.950 . S
C196 C197 1.386 . S
C196 C198 1.391 . S
C197 C196 1.386 . S
C197 C201 1.393 . S
C198 H190 0.950 . S
C198 C196 1.391 . S
C198 C199 1.400 . S
C199 C198 1.400 . S
C199 C200 1.398 . S
C199 C205 1.491 . S
C200 H191 0.950 . S
C200 C199 1.398 . S
C200 C201 1.391 . S
C201 H189 0.950 . S
C201 C197 1.393 . S
C201 C200 1.391 . S
C202 H192 0.950 . S
C202 C203 1.386 . S
C202 C204 1.391 . S
C203 C202 1.386 . S
C203 C207 1.393 . S
C204 H193 0.950 . S
C204 C202 1.391 . S
C204 C205 1.400 . S
C205 C199 1.491 . S
C205 C204 1.400 . S
C205 C206 1.398 . S
C206 H194 0.950 . S
C206 C205 1.398 . S
C206 C207 1.391 . S
C207 H195 0.950 . S
C207 C203 1.393 . S
C207 C206 1.391 . S
H208 C216 0.950 . S
H209 C221 0.950 . S
H210 C218 0.950 . S
H211 C220 0.950 . S
H212 C222 0.950 . S
H213 C224 0.950 . S
H214 C226 0.950 . S
H215 C227 0.950 . S
C216 H208 0.950 . S
C216 C217 1.386 . S
C216 C218 1.391 . S
C217 C216 1.386 . S
C217 C221 1.393 . S
C218 H210 0.950 . S
C218 C216 1.391 . S
C218 C219 1.400 . S
C219 C218 1.400 . S
C219 C220 1.398 . S
C219 C225 1.491 . S
C220 H211 0.950 . S
C220 C219 1.398 . S
C220 C221 1.391 . S
C221 H209 0.950 . S
C221 C217 1.393 . S
C221 C220 1.391 . S
C222 H212 0.950 . S
C222 C223 1.386 . S
C222 C224 1.391 . S
C223 C222 1.386 . S
C223 C227 1.393 . S
C224 H213 0.950 . S
C224 C222 1.391 . S
C224 C225 1.400 . S
C225 C219 1.491 . S
C225 C224 1.400 . S
C225 C226 1.398 . S
C226 H214 0.950 . S
C226 C225 1.398 . S
C226 C227 1.391 . S
C227 H215 0.950 . S
C227 C223 1.393 . S
C227 C226 1.391 . S
H228 C236 0.950 . S
H229 C241 0.950 . S
H230 C238 0.950 . S
H231 C240 0.950 . S
H232 C242 0.950 1_655 S
H233 C244 0.950 1_655 S
H234 C246 0.950 . S
H235 C247 0.950 . S
C236 H228 0.950 . S
C236 C237 1.386 . S
C236 C238 1.391 . S
C237 C236 1.386 . S
C237 C241 1.393 . S
C238 H230 0.950 . S
C238 C236 1.391 . S
C238 C239 1.400 . S
C239 C238 1.400 . S
C239 C240 1.398 . S
C239 C245 1.491 . S
C240 H231 0.950 . S
C240 C239 1.398 . S
C240 C241 1.391 . S
C241 H229 0.950 . S
C241 C237 1.393 . S
C241 C240 1.391 . S
C242 H232 0.950 1_455 S
C242 C243 1.386 . S
C242 C244 1.391 . S
C243 C242 1.386 . S
C243 C247 1.393 . S
C244 H233 0.950 1_455 S
C244 C242 1.391 . S
C244 C245 1.400 . S
C245 C239 1.491 . S
C245 C244 1.400 . S
C245 C246 1.398 . S
C246 H234 0.950 . S
C246 C245 1.398 . S
C246 C247 1.391 . S
C247 H235 0.950 . S
C247 C243 1.393 . S
C247 C246 1.391 . S
H248 C256 0.950 . S
H249 C261 0.950 . S
H250 C258 0.950 . S
H251 C260 0.950 . S
H252 C262 0.950 . S
H253 C264 0.950 . S
H254 C266 0.950 . S
H255 C267 0.950 . S
C256 H248 0.950 . S
C256 C257 1.386 1_545 S
C256 C258 1.391 . S
C257 C256 1.386 1_565 S
C257 C261 1.393 . S
C258 H250 0.950 . S
C258 C256 1.391 . S
C258 C259 1.400 1_545 S
C259 C258 1.400 1_565 S
C259 C260 1.398 . S
C259 C265 1.491 . S
C260 H251 0.950 . S
C260 C259 1.398 . S
C260 C261 1.391 . S
C261 H249 0.950 . S
C261 C257 1.393 . S
C261 C260 1.391 . S
C262 H252 0.950 . S
C262 C263 1.388 . S
C262 C264 1.391 . S
C263 C262 1.388 . S
C263 C267 1.391 1_565 S
C264 H253 0.950 . S
C264 C262 1.391 . S
C264 C265 1.400 . S
C265 C259 1.491 . S
C265 C264 1.400 . S
C265 C266 1.398 1_565 S
C266 H254 0.950 . S
C266 C265 1.398 1_545 S
C266 C267 1.391 . S
C267 H255 0.950 . S
C267 C263 1.391 1_545 S
C267 C266 1.391 . S
H268 C276 0.950 . S
H269 C281 0.950 . S
H270 C278 0.950 . S
H271 C280 0.950 . S
H272 C282 0.950 . S
H273 C284 0.950 . S
H274 C286 0.950 . S
H275 C287 0.950 . S
C276 H268 0.950 . S
C276 C277 1.386 . S
C276 C278 1.391 . S
C277 C276 1.386 . S
C277 C281 1.393 . S
C278 H270 0.950 . S
C278 C276 1.391 . S
C278 C279 1.400 . S
C279 C278 1.400 . S
C279 C280 1.398 . S
C279 C285 1.491 . S
C280 H271 0.950 . S
C280 C279 1.398 . S
C280 C281 1.391 . S
C281 H269 0.950 . S
C281 C277 1.393 . S
C281 C280 1.391 . S
C282 H272 0.950 . S
C282 C283 1.386 . S
C282 C284 1.391 . S
C283 C282 1.386 . S
C283 C287 1.393 . S
C284 H273 0.950 . S
C284 C282 1.391 . S
C284 C285 1.400 . S
C285 C279 1.491 . S
C285 C284 1.400 . S
C285 C286 1.398 . S
C286 H274 0.950 . S
C286 C285 1.398 . S
C286 C287 1.391 . S
C287 H275 0.950 . S
C287 C283 1.393 . S
C287 C286 1.391 . S
H288 C296 0.950 1_554 S
H289 C301 0.950 . S
H290 C298 0.950 . S
H291 C300 0.950 . S
H292 C302 0.950 . S
H293 C304 0.950 . S
H294 C306 0.950 . S
H295 C307 0.950 . S
C296 H288 0.950 1_556 S
C296 C297 1.386 . S
C296 C298 1.391 . S
C297 C296 1.386 . S
C297 C301 1.393 . S
C298 H290 0.950 . S
C298 C296 1.391 . S
C298 C299 1.400 . S
C299 C298 1.400 . S
C299 C300 1.398 . S
C299 C305 1.491 . S
C300 H291 0.950 . S
C300 C299 1.398 . S
C300 C301 1.391 . S
C301 H289 0.950 . S
C301 C297 1.393 . S
C301 C300 1.391 . S
C302 H292 0.950 . S
C302 C303 1.386 . S
C302 C304 1.391 . S
C303 C302 1.386 . S
C303 C307 1.393 . S
C304 H293 0.950 . S
C304 C302 1.391 . S
C304 C305 1.400 . S
C305 C299 1.491 . S
C305 C304 1.400 . S
C305 C306 1.398 . S
C306 H294 0.950 . S
C306 C305 1.398 . S
C306 C307 1.391 . S
C307 H295 0.950 . S
C307 C303 1.393 . S
C307 C306 1.391 . S
H308 C316 0.950 . S
H309 C321 0.950 . S
H310 C318 0.950 . S
H311 C320 0.950 . S
H312 C322 0.950 . S
H313 C324 0.947 1_455 S
H314 C326 0.950 . S
H315 C327 0.950 . S
C316 H308 0.950 . S
C316 C317 1.386 . S
C316 C318 1.391 . S
C317 C316 1.386 . S
C317 C321 1.393 . S
C318 H310 0.950 . S
C318 C316 1.391 . S
C318 C319 1.400 . S
C319 C318 1.400 . S
C319 C320 1.398 . S
C319 C325 1.491 . S
C320 H311 0.950 . S
C320 C319 1.398 . S
C320 C321 1.391 . S
C321 H309 0.950 . S
C321 C317 1.393 . S
C321 C320 1.391 . S
C322 H312 0.950 . S
C322 C323 1.386 1_455 S
C322 C324 1.391 1_455 S
C323 C322 1.386 1_655 S
C323 C327 1.393 . S
C324 H313 0.947 1_655 S
C324 C322 1.391 1_655 S
C324 C325 1.400 . S
C325 C319 1.491 . S
C325 C324 1.400 . S
C325 C326 1.398 . S
C326 H314 0.950 . S
C326 C325 1.398 . S
C326 C327 1.391 . S
C327 H315 0.950 . S
C327 C323 1.393 . S
C327 C326 1.391 . S
H328 C336 0.950 . S
H329 C341 0.950 . S
H330 C338 0.950 . S
H331 C340 0.950 . S
H332 C342 0.950 . S
H333 C344 0.950 1_655 S
H334 C346 0.950 . S
H335 C347 0.950 . S
C336 H328 0.950 . S
C336 C337 1.386 . S
C336 C338 1.391 . S
C337 C336 1.386 . S
C337 C341 1.393 . S
C338 H330 0.950 . S
C338 C336 1.391 . S
C338 C339 1.400 . S
C339 C338 1.400 . S
C339 C340 1.398 . S
C339 C345 1.491 . S
C340 H331 0.950 . S
C340 C339 1.398 . S
C340 C341 1.391 . S
C341 H329 0.950 . S
C341 C337 1.393 . S
C341 C340 1.391 . S
C342 H332 0.950 . S
C342 C343 1.386 1_655 S
C342 C344 1.391 1_655 S
C343 C342 1.386 1_455 S
C343 C347 1.393 . S
C344 H333 0.950 1_455 S
C344 C342 1.391 1_455 S
C344 C345 1.400 . S
C345 C339 1.491 . S
C345 C344 1.400 . S
C345 C346 1.398 . S
C346 H334 0.950 . S
C346 C345 1.398 . S
C346 C347 1.391 . S
C347 H335 0.950 . S
C347 C343 1.393 . S
C347 C346 1.391 . S
H348 C356 0.950 . S
H349 C361 0.950 . S
H350 C358 0.950 . S
H351 C360 0.950 . S
H352 C362 0.950 . S
H353 C364 0.950 . S
H354 C366 0.950 . S
H355 C367 0.950 . S
C356 H348 0.950 . S
C356 C357 1.386 1_565 S
C356 C358 1.391 . S
C357 C356 1.386 1_545 S
C357 C361 1.393 . S
C358 H350 0.950 . S
C358 C356 1.391 . S
C358 C359 1.400 1_565 S
C359 C358 1.400 1_545 S
C359 C360 1.398 . S
C359 C365 1.491 . S
C360 H351 0.950 . S
C360 C359 1.398 . S
C360 C361 1.391 . S
C361 H349 0.950 . S
C361 C357 1.393 . S
C361 C360 1.391 . S
C362 H352 0.950 . S
C362 C363 1.349 1_545 S
C362 C364 1.391 . S
C363 C362 1.349 1_565 S
C363 C367 1.419 . S
C364 H353 0.950 . S
C364 C362 1.391 . S
C364 C365 1.400 . S
C365 C359 1.491 . S
C365 C364 1.400 . S
C365 C366 1.398 1_545 S
C366 H354 0.950 . S
C366 C365 1.398 1_565 S
C366 C367 1.391 . S
C367 H355 0.950 . S
C367 C363 1.419 . S
C367 C366 1.391 . S
H368 C376 0.950 . S
H369 C381 0.950 . S
H370 C378 0.950 . S
H371 C380 0.950 . S
H372 C382 0.950 . S
H373 C384 0.950 . S
H374 C386 0.950 . S
H375 C387 0.950 . S
C376 H368 0.950 . S
C376 C377 1.386 . S
C376 C378 1.391 . S
C377 C376 1.386 . S
C377 C381 1.393 . S
C378 H370 0.950 . S
C378 C376 1.391 . S
C378 C379 1.400 . S
C379 C378 1.400 . S
C379 C380 1.398 . S
C379 C385 1.491 . S
C380 H371 0.950 . S
C380 C379 1.398 . S
C380 C381 1.391 . S
C381 H369 0.950 . S
C381 C377 1.393 . S
C381 C380 1.391 . S
C382 H372 0.950 . S
C382 C383 1.386 . S
C382 C384 1.391 . S
C383 C382 1.386 . S
C383 C387 1.393 . S
C384 H373 0.950 . S
C384 C382 1.391 . S
C384 C385 1.400 . S
C385 C379 1.491 . S
C385 C384 1.400 . S
C385 C386 1.398 . S
C386 H374 0.950 . S
C386 C385 1.398 . S
C386 C387 1.391 . S
C387 H375 0.950 . S
C387 C383 1.393 . S
C387 C386 1.391 . S
H388 C396 0.950 . S
H389 C401 0.950 . S
H390 C398 0.950 . S
H391 C400 0.950 . S
H392 C402 0.950 . S
H393 C404 0.950 . S
H394 C406 0.950 . S
H395 C407 0.950 . S
C396 H388 0.950 . S
C396 C397 1.386 . S
C396 C398 1.391 . S
C397 C396 1.386 . S
C397 C401 1.393 . S
C398 H390 0.950 . S
C398 C396 1.391 . S
C398 C399 1.400 . S
C399 C398 1.400 . S
C399 C400 1.398 . S
C399 C405 1.491 . S
C400 H391 0.950 . S
C400 C399 1.398 . S
C400 C401 1.391 . S
C401 H389 0.950 . S
C401 C397 1.393 . S
C401 C400 1.391 . S
C402 H392 0.950 . S
C402 C403 1.386 . S
C402 C404 1.391 . S
C403 C402 1.386 . S
C403 C407 1.393 . S
C404 H393 0.950 . S
C404 C402 1.391 . S
C404 C405 1.400 . S
C405 C399 1.491 . S
C405 C404 1.400 . S
C405 C406 1.398 . S
C406 H394 0.950 . S
C406 C405 1.398 . S
C406 C407 1.391 . S
C407 H395 0.950 . S
C407 C403 1.393 . S
C407 C406 1.391 . S
H408 C416 0.950 1_554 S
H409 C421 0.950 . S
H410 C418 0.950 . S
H411 C420 0.950 . S
H412 C422 0.950 . S
H413 C424 0.950 . S
H414 C426 0.950 . S
H415 C427 0.950 . S
C416 H408 0.950 1_556 S
C416 C417 1.386 . S
C416 C418 1.391 . S
C417 C416 1.386 . S
C417 C421 1.393 . S
C418 H410 0.950 . S
C418 C416 1.391 . S
C418 C419 1.400 . S
C419 C418 1.400 . S
C419 C420 1.398 . S
C419 C425 1.491 . S
C420 H411 0.950 . S
C420 C419 1.398 . S
C420 C421 1.391 . S
C421 H409 0.950 . S
C421 C417 1.393 . S
C421 C420 1.391 . S
C422 H412 0.950 . S
C422 C423 1.386 1_655 S
C422 C424 1.391 . S
C423 C422 1.386 1_455 S
C423 C427 1.393 . S
C424 H413 0.950 . S
C424 C422 1.391 . S
C424 C425 1.400 . S
C425 C419 1.491 . S
C425 C424 1.400 . S
C425 C426 1.398 1_655 S
C426 H414 0.950 . S
C426 C425 1.398 1_455 S
C426 C427 1.391 . S
C427 H415 0.950 . S
C427 C423 1.393 . S
C427 C426 1.391 . S
H428 C436 0.950 . S
H429 C441 0.950 . S
H430 C438 0.950 . S
H431 C440 0.950 . S
H432 C442 0.950 . S
H433 C444 0.950 . S
H434 C446 0.950 . S
H435 C447 0.950 . S
C436 H428 0.950 . S
C436 C437 1.386 . S
C436 C438 1.391 . S
C437 C436 1.386 . S
C437 C441 1.393 1_565 S
C438 H430 0.950 . S
C438 C436 1.391 . S
C438 C439 1.400 . S
C439 C438 1.400 . S
C439 C440 1.398 1_565 S
C439 C445 1.491 . S
C440 H431 0.950 . S
C440 C439 1.398 1_545 S
C440 C441 1.391 . S
C441 H429 0.950 . S
C441 C437 1.393 1_545 S
C441 C440 1.391 . S
C442 H432 0.950 . S
C442 C443 1.386 . S
C442 C444 1.391 . S
C443 C442 1.386 . S
C443 C447 1.393 1_545 S
C444 H433 0.950 . S
C444 C442 1.391 . S
C444 C445 1.400 1_545 S
C445 C439 1.491 . S
C445 C444 1.400 1_565 S
C445 C446 1.398 . S
C446 H434 0.950 . S
C446 C445 1.398 . S
C446 C447 1.391 . S
C447 H435 0.950 . S
C447 C443 1.393 1_565 S
C447 C446 1.391 . S
H448 C456 0.950 . S
H449 C461 0.950 . S
H450 C458 0.950 . S
H451 C460 0.950 . S
H452 C462 0.950 . S
H453 C464 0.950 . S
H454 C466 0.950 . S
H455 C467 0.950 . S
C456 H448 0.950 . S
C456 C457 1.386 . S
C456 C458 1.391 . S
C457 C456 1.386 . S
C457 C461 1.393 1_556 S
C458 H450 0.950 . S
C458 C456 1.391 . S
C458 C459 1.400 . S
C459 C458 1.400 . S
C459 C460 1.398 . S
C459 C465 1.491 . S
C460 H451 0.950 . S
C460 C459 1.398 . S
C460 C461 1.391 1_556 S
C461 H449 0.950 . S
C461 C457 1.393 1_554 S
C461 C460 1.391 1_554 S
C462 H452 0.950 . S
C462 C463 1.386 . S
C462 C464 1.391 . S
C463 C462 1.386 . S
C463 C467 1.393 . S
C464 H453 0.950 . S
C464 C462 1.391 . S
C464 C465 1.400 . S
C465 C459 1.491 . S
C465 C464 1.400 . S
C465 C466 1.398 . S
C466 H454 0.950 . S
C466 C465 1.398 . S
C466 C467 1.391 . S
C467 H455 0.950 . S
C467 C463 1.393 . S
C467 C466 1.391 . S
H468 C476 0.950 1_554 S
H469 C481 0.950 . S
H470 C478 0.950 . S
H471 C480 0.950 . S
H472 C482 0.950 . S
H473 C484 0.950 . S
H474 C486 0.950 . S
H475 C487 0.950 . S
C476 H468 0.950 1_556 S
C476 C477 1.386 . S
C476 C478 1.391 . S
C477 C476 1.386 . S
C477 C481 1.393 . S
C478 H470 0.950 . S
C478 C476 1.391 . S
C478 C479 1.400 . S
C479 C478 1.400 . S
C479 C480 1.398 . S
C479 C485 1.491 . S
C480 H471 0.950 . S
C480 C479 1.398 . S
C480 C481 1.391 . S
C481 H469 0.950 . S
C481 C477 1.393 . S
C481 C480 1.391 . S
C482 H472 0.950 . S
C482 C483 1.386 . S
C482 C484 1.391 . S
C483 C482 1.386 . S
C483 C487 1.393 . S
C484 H473 0.950 . S
C484 C482 1.391 . S
C484 C485 1.400 . S
C485 C479 1.491 . S
C485 C484 1.400 . S
C485 C486 1.398 . S
C486 H474 0.950 . S
C486 C485 1.398 . S
C486 C487 1.391 . S
C487 H475 0.950 . S
C487 C483 1.393 . S
C487 C486 1.391 . S
H488 C496 0.950 . S
H489 C501 0.950 . S
H490 C498 0.950 . S
H491 C500 0.950 . S
H492 C502 0.950 . S
H493 C504 0.950 . S
H494 C506 0.950 . S
H495 C507 0.950 1_655 S
C496 H488 0.950 . S
C496 C497 1.386 . S
C496 C498 1.391 . S
C497 C496 1.386 . S
C497 C501 1.393 . S
C498 H490 0.950 . S
C498 C496 1.391 . S
C498 C499 1.400 . S
C499 C498 1.400 . S
C499 C500 1.398 . S
C499 C505 1.491 . S
C500 H491 0.950 . S
C500 C499 1.398 . S
C500 C501 1.391 . S
C501 H489 0.950 . S
C501 C497 1.393 . S
C501 C500 1.391 . S
C502 H492 0.950 . S
C502 C503 1.386 . S
C502 C504 1.391 . S
C503 C502 1.386 . S
C503 C507 1.393 . S
C504 H493 0.950 . S
C504 C502 1.391 . S
C504 C505 1.400 . S
C505 C499 1.491 . S
C505 C504 1.400 . S
C505 C506 1.398 . S
C506 H494 0.950 . S
C506 C505 1.398 . S
C506 C507 1.391 . S
C507 H495 0.950 1_455 S
C507 C503 1.393 . S
C507 C506 1.391 . S
H508 C516 0.950 1_554 S
H509 C521 0.950 . S
H510 C518 0.950 . S
H511 C520 0.950 . S
H512 C522 0.950 . S
H513 C524 0.950 . S
H514 C526 0.950 . S
H515 C527 0.950 . S
C516 H508 0.950 1_556 S
C516 C517 1.386 . S
C516 C518 1.391 . S
C517 C516 1.386 . S
C517 C521 1.393 . S
C518 H510 0.950 . S
C518 C516 1.391 . S
C518 C519 1.400 . S
C519 C518 1.400 . S
C519 C520 1.398 . S
C519 C525 1.491 . S
C520 H511 0.950 . S
C520 C519 1.398 . S
C520 C521 1.391 . S
C521 H509 0.950 . S
C521 C517 1.393 . S
C521 C520 1.391 . S
C522 H512 0.950 . S
C522 C523 1.386 . S
C522 C524 1.391 . S
C523 C522 1.386 . S
C523 C527 1.393 . S
C524 H513 0.950 . S
C524 C522 1.391 . S
C524 C525 1.400 . S
C525 C519 1.491 . S
C525 C524 1.400 . S
C525 C526 1.398 . S
C526 H514 0.950 . S
C526 C525 1.398 . S
C526 C527 1.391 . S
C527 H515 0.950 . S
C527 C523 1.393 . S
C527 C526 1.391 . S
H528 C536 0.950 . S
H529 C541 0.950 . S
H530 C538 0.950 . S
H531 C540 0.950 . S
H532 C542 0.950 . S
H533 C544 0.950 . S
H534 C546 0.950 . S
H535 C547 0.950 . S
C536 H528 0.950 . S
C536 C537 1.386 . S
C536 C538 1.391 . S
C537 C536 1.386 . S
C537 C541 1.393 . S
C538 H530 0.950 . S
C538 C536 1.391 . S
C538 C539 1.400 . S
C539 C538 1.400 . S
C539 C540 1.398 . S
C539 C545 1.491 . S
C540 H531 0.950 . S
C540 C539 1.398 . S
C540 C541 1.391 . S
C541 H529 0.950 . S
C541 C537 1.393 . S
C541 C540 1.391 . S
C542 H532 0.950 . S
C542 C543 1.386 . S
C542 C544 1.391 . S
C543 C542 1.386 . S
C543 C547 1.393 . S
C544 H533 0.950 . S
C544 C542 1.391 . S
C544 C545 1.400 . S
C545 C539 1.491 . S
C545 C544 1.400 . S
C545 C546 1.398 . S
C546 H534 0.950 . S
C546 C545 1.398 . S
C546 C547 1.391 . S
C547 H535 0.950 . S
C547 C543 1.393 . S
C547 C546 1.391 . S
H548 C556 0.950 . S
H549 C561 0.950 . S
H550 C558 0.950 . S
H551 C560 0.950 . S
H552 C562 0.950 . S
H553 C564 0.950 . S
H554 C566 0.950 . S
H555 C567 0.950 . S
C556 H548 0.950 . S
C556 C557 1.386 . S
C556 C558 1.391 . S
C557 C556 1.386 . S
C557 C561 1.393 . S
C558 H550 0.950 . S
C558 C556 1.391 . S
C558 C559 1.400 . S
C559 C558 1.400 . S
C559 C560 1.398 . S
C559 C565 1.491 . S
C560 H551 0.950 . S
C560 C559 1.398 . S
C560 C561 1.391 . S
C561 H549 0.950 . S
C561 C557 1.393 . S
C561 C560 1.391 . S
C562 H552 0.950 . S
C562 C563 1.386 . S
C562 C564 1.391 . S
C563 C562 1.386 . S
C563 C567 1.393 . S
C564 H553 0.950 . S
C564 C562 1.391 . S
C564 C565 1.400 . S
C565 C559 1.491 . S
C565 C564 1.400 . S
C565 C566 1.398 . S
C566 H554 0.950 . S
C566 C565 1.398 . S
C566 C567 1.391 . S
C567 H555 0.950 . S
C567 C563 1.393 . S
C567 C566 1.391 . S
H568 C576 0.950 1_455 S
H569 C581 0.950 . S
H570 C578 0.950 1_455 S
H571 C580 0.950 . S
H572 C582 0.950 . S
H573 C584 0.950 . S
H574 C586 0.950 . S
H575 C587 0.950 . S
C576 H568 0.950 1_655 S
C576 C577 1.386 . S
C576 C578 1.391 . S
C577 C576 1.386 . S
C577 C581 1.393 . S
C578 H570 0.950 1_655 S
C578 C576 1.391 . S
C578 C579 1.400 . S
C579 C578 1.400 . S
C579 C580 1.398 . S
C579 C585 1.491 . S
C580 H571 0.950 . S
C580 C579 1.398 . S
C580 C581 1.391 . S
C581 H569 0.950 . S
C581 C577 1.393 . S
C581 C580 1.391 . S
C582 H572 0.950 . S
C582 C583 1.386 . S
C582 C584 1.391 . S
C583 C582 1.386 . S
C583 C587 1.393 1_655 S
C584 H573 0.950 . S
C584 C582 1.391 . S
C584 C585 1.400 . S
C585 C579 1.491 . S
C585 C584 1.400 . S
C585 C586 1.398 1_655 S
C586 H574 0.950 . S
C586 C585 1.398 1_455 S
C586 C587 1.391 . S
C587 H575 0.950 . S
C587 C583 1.393 1_455 S
C587 C586 1.391 . S
H588 C596 0.950 . S
H589 C601 0.950 . S
H590 C598 0.950 . S
H591 C600 0.950 . S
H592 C602 0.950 . S
H593 C604 0.950 . S
H594 C606 0.950 . S
H595 C607 0.950 . S
C596 H588 0.950 . S
C596 C597 1.386 . S
C596 C598 1.391 . S
C597 C596 1.386 . S
C597 C601 1.393 1_565 S
C598 H590 0.950 . S
C598 C596 1.391 . S
C598 C599 1.400 . S
C599 C598 1.400 . S
C599 C600 1.398 1_565 S
C599 C605 1.491 . S
C600 H591 0.950 . S
C600 C599 1.398 1_545 S
C600 C601 1.391 . S
C601 H589 0.950 . S
C601 C597 1.393 1_545 S
C601 C600 1.391 . S
C602 H592 0.950 . S
C602 C603 1.386 1_545 S
C602 C604 1.391 . S
C603 C602 1.386 1_565 S
C603 C607 1.393 . S
C604 H593 0.950 . S
C604 C602 1.391 . S
C604 C605 1.400 1_545 S
C605 C599 1.491 . S
C605 C604 1.400 1_565 S
C605 C606 1.398 . S
C606 H594 0.950 . S
C606 C605 1.398 . S
C606 C607 1.391 . S
C607 H595 0.950 . S
C607 C603 1.393 . S
C607 C606 1.391 . S
H608 C616 0.950 . S
H609 C621 0.950 . S
H610 C618 0.950 . S
H611 C620 0.950 . S
H612 C622 0.950 . S
H613 C624 0.950 . S
H614 C626 0.950 . S
H615 C627 0.950 . S
C616 H608 0.950 . S
C616 C617 1.386 . S
C616 C618 1.391 . S
C617 C616 1.386 . S
C617 C621 1.393 . S
C618 H610 0.950 . S
C618 C616 1.391 . S
C618 C619 1.400 . S
C619 C618 1.400 . S
C619 C620 1.398 . S
C619 C625 1.491 . S
C620 H611 0.950 . S
C620 C619 1.398 . S
C620 C621 1.391 . S
C621 H609 0.950 . S
C621 C617 1.393 . S
C621 C620 1.391 . S
C622 H612 0.950 . S
C622 C623 1.386 . S
C622 C624 1.391 . S
C623 C622 1.386 . S
C623 C627 1.393 . S
C624 H613 0.950 . S
C624 C622 1.391 . S
C624 C625 1.400 . S
C625 C619 1.491 . S
C625 C624 1.400 . S
C625 C626 1.398 . S
C626 H614 0.950 . S
C626 C625 1.398 . S
C626 C627 1.391 . S
C627 H615 0.950 . S
C627 C623 1.393 . S
C627 C626 1.391 . S
H628 C636 0.950 . S
H629 C641 0.950 . S
H630 C638 0.950 . S
H631 C640 0.950 . S
H632 C642 0.950 . S
H633 C644 0.950 . S
H634 C646 0.950 . S
H635 C647 0.950 . S
C636 H628 0.950 . S
C636 C637 1.386 . S
C636 C638 1.391 . S
C637 C636 1.386 . S
C637 C641 1.393 . S
C638 H630 0.950 . S
C638 C636 1.391 . S
C638 C639 1.400 . S
C639 C638 1.400 . S
C639 C640 1.398 . S
C639 C645 1.491 . S
C640 H631 0.950 . S
C640 C639 1.398 . S
C640 C641 1.391 . S
C641 H629 0.950 . S
C641 C637 1.393 . S
C641 C640 1.391 . S
C642 H632 0.950 . S
C642 C643 1.386 . S
C642 C644 1.391 . S
C643 C642 1.386 . S
C643 C647 1.393 . S
C644 H633 0.950 . S
C644 C642 1.391 . S
C644 C645 1.400 . S
C645 C639 1.491 . S
C645 C644 1.400 . S
C645 C646 1.398 . S
C646 H634 0.950 . S
C646 C645 1.398 . S
C646 C647 1.391 . S
C647 H635 0.950 . S
C647 C643 1.393 . S
C647 C646 1.391 . S
C177 C74 1.576 . S
C183 C96 1.588 . S
C203 C126 1.891 . S
C197 C85 1.876 . S
C223 C136 1.469 . S
C217 C52 1.433 . S
C243 C156 1.375 . S
C237 C63 1.370 . S
C263 C97 1.585 1_565 S
C257 C30 1.563 . S
C277 C41 1.807 1_556 S
C283 C127 1.892 . S
C297 C8 1.465 . S
C303 C137 1.469 . S
C317 C19 1.331 . S
C323 C157 1.378 1_655 S
C343 C89 0.891 . S
C337 C62 0.902 . S
C363 C110 0.527 . S
C357 C73 0.519 . S
C383 C129 1.137 . S
C377 C84 1.148 . S
C397 C51 0.766 . S
C403 C149 0.788 . S
C417 C18 0.855 . S
C423 C90 0.889 . S
C443 C109 0.522 . S
C437 C29 0.535 . S
C463 C130 1.155 . S
C457 C40 1.100 . S
C477 C7 0.776 . S
C483 C150 0.787 . S
C497 C60 1.431 . S
C503 C107 1.677 . S
C517 C71 1.172 . S
C523 C117 1.405 . S
C543 C147 1.880 . S
C537 C82 1.638 . S
C563 C167 1.807 . S
C557 C49 1.368 . S
C577 C16 1.291 . S
C583 C106 1.677 . S
C603 C116 1.408 . S
C597 C27 1.116 . S
C623 C146 1.870 . S
C617 C38 1.390 . S
C637 C5 1.555 . S
C643 C166 1.811 . S
