# Generated by pormake.
# Topology rtl, (3,6)-cn, num edge types: 1
# Building blocks:
#     Node 0, Type 0, BuildingBlock: OLANEW_clean_sbu_2, # of connection points: 3
#     Node 1, Type 0, BuildingBlock: OLANEW_clean_sbu_2, # of connection points: 3
#     Node 2, Type 0, BuildingBlock: OLANEW_clean_sbu_2, # of connection points: 3
#     Node 3, Type 0, BuildingBlock: OLANEW_clean_sbu_2, # of connection points: 3
#     Node 4, Type 1, BuildingBlock: KUMJIN_clean_sbu_1, # of connection points: 6
#     Node 5, Type 1, BuildingBlock: KUMJIN_clean_sbu_1, # of connection points: 6
#     Edge 6, Type (0, 1), BuildingBlock: ZUJKAS_clean_linker_0, # of connection points: 2
#     Edge 7, Type (0, 1), BuildingBlock: ZUJKAS_clean_linker_0, # of connection points: 2
#     Edge 8, Type (0, 1), BuildingBlock: ZUJKAS_clean_linker_0, # of connection points: 2
#     Edge 9, Type (0, 1), BuildingBlock: ZUJKAS_clean_linker_0, # of connection points: 2
#     Edge 10, Type (0, 1), BuildingBlock: ZUJKAS_clean_linker_0, # of connection points: 2
#     Edge 11, Type (0, 1), BuildingBlock: ZUJKAS_clean_linker_0, # of connection points: 2
#     Edge 12, Type (0, 1), BuildingBlock: ZUJKAS_clean_linker_0, # of connection points: 2
#     Edge 13, Type (0, 1), BuildingBlock: ZUJKAS_clean_linker_0, # of connection points: 2
#     Edge 14, Type (0, 1), BuildingBlock: ZUJKAS_clean_linker_0, # of connection points: 2
#     Edge 15, Type (0, 1), BuildingBlock: ZUJKAS_clean_linker_0, # of connection points: 2
#     Edge 16, Type (0, 1), BuildingBlock: ZUJKAS_clean_linker_0, # of connection points: 2
#     Edge 17, Type (0, 1), BuildingBlock: ZUJKAS_clean_linker_0, # of connection points: 2
# Relax obj value: 0.040
# Max RMSD: 0.158
# Mean RMSD: 0.126
data_MOF--net-rtl--node1-OLANEW_clean_sbu_2--node2-KUMJIN_clean_sbu_1--edge1-ZUJKAS_clean_linker_0
_symmetry_space_group_name_H-M    P1
_symmetry_Int_Tables_number       1
_symmetry_cell_setting            triclinic
loop_
_symmetry_equiv_pos_as_xyz
'x, y, z'
_cell_length_a     47.867344
_cell_length_b     47.437065
_cell_length_c     36.411416
_cell_angle_alpha  78.399451
_cell_angle_beta   102.23345
_cell_angle_gamma 90.930904
loop_
_atom_site_label
_atom_site_type_symbol
_atom_site_fract_x
_atom_site_fract_y
_atom_site_fract_z
_atom_type_partial_charge
O0 O 0.23149 0.86539 0.98239 0.0
Cd1 Cd 0.26453 0.84675 0.04319 0.0
O2 O 0.2198 0.90557 0.99772 0.0
Cd3 Cd 0.2409 0.8951 0.05833 0.0
O4 O 0.23616 0.89696 0.1162 0.0
C5 C 0.21815 0.8803 0.1298 0.0
O6 O 0.20548 0.86168 0.10989 0.0
C7 C 0.21805 0.88953 0.97327 0.0
C8 C 0.29697 0.80088 0.03491 0.0
O9 O 0.27413 0.79643 0.04806 0.0
O10 O 0.30468 0.82695 0.02624 0.0
O11 O 0.65348 0.75132 0.68622 0.0
Cd12 Cd 0.66239 0.79009 0.63442 0.0
O13 O 0.64423 0.7241 0.6436 0.0
Cd14 Cd 0.62831 0.68828 0.61603 0.0
O15 O 0.61765 0.66119 0.57327 0.0
C16 C 0.59453 0.66609 0.548 0.0
O17 O 0.5769 0.68668 0.54916 0.0
C18 C 0.64502 0.72745 0.67762 0.0
C19 C 0.71792 0.80923 0.63423 0.0
O20 O 0.70213 0.81944 0.65311 0.0
O21 O 0.70794 0.78904 0.61689 0.0
O22 O 0.75145 0.14048 0.1196 0.0
Cd23 Cd 0.71979 0.15891 0.05742 0.0
O24 O 0.7812 0.13362 0.08423 0.0
Cd25 Cd 0.81891 0.11961 0.06689 0.0
O26 O 0.84653 0.11103 0.02945 0.0
C27 C 0.84104 0.09011 0.01229 0.0
O28 O 0.81969 0.07349 0.01893 0.0
C29 C 0.77599 0.13203 0.11744 0.0
C30 C 0.69011 0.20975 0.05385 0.0
O31 O 0.67821 0.18534 0.05989 0.0
O32 O 0.71612 0.21009 0.05002 0.0
O33 O 0.32418 0.30149 0.52707 0.0
Cd34 Cd 0.30623 0.28333 0.46808 0.0
O35 O 0.36389 0.31737 0.5096 0.0
Cd36 Cd 0.35488 0.3086 0.45164 0.0
O37 O 0.3616 0.32296 0.39323 0.0
C38 C 0.38557 0.31751 0.386 0.0
O39 O 0.4047 0.30149 0.41307 0.0
C40 C 0.34814 0.31353 0.53418 0.0
C41 C 0.26591 0.24021 0.47577 0.0
O42 O 0.2925 0.23379 0.4803 0.0
O43 O 0.25844 0.26694 0.46796 0.0
Eu44 Eu 0.01946 0.9701 0.52235 0.0
C45 C 0.9632 0.09405 0.49389 0.0
N46 N 0.98819 0.084 0.51838 0.0
C47 C 0.01116 0.12766 0.4972 0.0
C48 C 0.96146 0.12138 0.4694 0.0
C49 C 0.01192 0.10037 0.52072 0.0
C50 C 0.98586 0.13818 0.47131 0.0
C51 C 0.91358 0.08615 0.46646 0.0
C52 C 0.93955 0.0765 0.49236 0.0
C53 C 0.91182 0.11332 0.44198 0.0
C54 C 0.93567 0.13088 0.44346 0.0
Eu55 Eu 0.988 0.03726 0.55555 0.0
N56 N 0.94212 0.04983 0.51552 0.0
C57 C 0.89012 0.06816 0.46583 0.0
C58 C 0.91879 0.03301 0.51653 0.0
C59 C 0.89265 0.04166 0.49135 0.0
H60 H 0.03132 0.0925 0.54118 0.0
H61 H 0.87436 0.02798 0.49191 0.0
H62 H 0.98398 0.91418 0.55992 0.0
H63 H 0.13478 0.98947 0.55117 0.0
H64 H 0.91982 0.0132 0.5371 0.0
H65 H 0.86983 0.07476 0.4463 0.0
H66 H 0.08526 0.99662 0.5147 0.0
H67 H 0.03008 0.14056 0.49905 0.0
H68 H 0.8921 0.12094 0.42174 0.0
H69 H 0.93398 0.15175 0.4243 0.0
H70 H 0.99366 0.8703 0.61101 0.0
H71 H 0.98538 0.15928 0.45296 0.0
H72 H 0.14737 0.94958 0.60757 0.0
N73 N 0.02688 0.92776 0.57033 0.0
C74 C 0.05417 0.92164 0.59044 0.0
C75 C 0.01083 0.88462 0.60564 0.0
C76 C 0.06069 0.89684 0.61981 0.0
C77 C 0.00535 0.90951 0.57692 0.0
C78 C 0.03859 0.87832 0.62732 0.0
N79 N 0.0686 0.9643 0.55338 0.0
C80 C 0.0898 0.98061 0.54083 0.0
C81 C 0.10396 0.93481 0.60281 0.0
C82 C 0.07548 0.94068 0.58221 0.0
C83 C 0.12527 0.95331 0.5924 0.0
C84 C 0.11822 0.97597 0.56078 0.0
H85 H 0.04275 0.85907 0.64968 0.0
H86 H 0.09426 0.87256 0.66371 0.0
H87 H 0.13219 0.90553 0.64846 0.0
O88 O 0.03897 0.96336 0.47466 0.0
O89 O 0.01881 0.96772 0.58529 0.0
O90 O 0.02818 0.01382 0.59232 0.0
O91 O 0.00888 0.93276 0.49657 0.0
O92 O 0.03744 0.01485 0.50481 0.0
O93 O 0.03514 0.03679 0.55531 0.0
O94 O 0.96643 0.03524 0.60327 0.0
O95 O 0.98607 0.04044 0.49193 0.0
O96 O 0.98049 0.99405 0.48249 0.0
O97 O 0.99284 0.07129 0.58867 0.0
O98 O 0.96757 0.99372 0.56963 0.0
O99 O 0.97229 0.9685 0.52288 0.0
C100 C 0.03073 0.98605 0.60594 0.0
C101 C 0.02744 0.9215 0.44426 0.0
C102 C 0.04982 0.90873 0.3952 0.0
C103 C 0.02991 0.88687 0.39092 0.0
C104 C 0.00783 0.89948 0.4394 0.0
C105 C 0.00911 0.88232 0.4129 0.0
C106 C 0.04855 0.926 0.42215 0.0
C107 C 0.04629 0.03416 0.52605 0.0
C108 C 0.02533 0.93958 0.47222 0.0
C109 C 0.08888 0.89142 0.6409 0.0
C110 C 0.11045 0.91031 0.63237 0.0
C111 C 0.97588 0.0219 0.47056 0.0
C112 C 0.99312 0.05439 0.65417 0.0
C113 C 0.99078 0.05259 0.72092 0.0
C114 C 0.02007 0.04491 0.73206 0.0
C115 C 0.02241 0.04704 0.66587 0.0
C116 C 0.97741 0.05727 0.68173 0.0
C117 C 0.03574 0.04223 0.70463 0.0
C118 C 0.95995 0.97309 0.55029 0.0
C119 C 0.97868 0.05801 0.61352 0.0
H120 H 0.03064 0.87299 0.37086 0.0
H121 H 0.99134 0.89554 0.45597 0.0
H122 H 0.99393 0.86539 0.40942 0.0
H123 H 0.06371 0.94298 0.42559 0.0
H124 H 0.03098 0.04142 0.76194 0.0
H125 H 0.03497 0.04502 0.64506 0.0
H126 H 0.95474 0.0627 0.67273 0.0
H127 H 0.05831 0.03647 0.71344 0.0
Eu128 Eu 0.46895 0.5013 0.97722 0.0
C129 C 0.58753 0.55113 0.0152 0.0
N130 N 0.57727 0.52727 0.03506 0.0
C131 C 0.61945 0.50022 0.03604 0.0
C132 C 0.61366 0.55006 0.0034 0.0
C133 C 0.59365 0.50251 0.04755 0.0
C134 C 0.62925 0.52394 0.01321 0.0
C135 C 0.58358 0.60271 0.99042 0.0
C136 C 0.57278 0.57713 0.0088 0.0
C137 C 0.60887 0.60151 0.977 0.0
C138 C 0.62387 0.57523 0.98346 0.0
Eu139 Eu 0.53199 0.53293 0.04992 0.0
N140 N 0.5481 0.57753 0.0214 0.0
C141 C 0.5688 0.62875 0.9866 0.0
C142 C 0.53426 0.60289 0.01941 0.0
C143 C 0.54424 0.62887 0.00163 0.0
H144 H 0.58718 0.48458 0.06696 0.0
H145 H 0.53293 0.64893 0.99937 0.0
H146 H 0.41001 0.53244 0.98797 0.0
H147 H 0.4953 0.38624 0.999 0.0
H148 H 0.51523 0.60289 0.03093 0.0
H149 H 0.5764 0.64888 0.97266 0.0
H150 H 0.49682 0.43773 0.97002 0.0
H151 H 0.63199 0.4803 0.0453 0.0
H152 H 0.61731 0.62086 0.96229 0.0
H153 H 0.64373 0.57474 0.97379 0.0
H154 H 0.36862 0.51911 0.01824 0.0
H155 H 0.6494 0.52221 0.00467 0.0
H156 H 0.46041 0.36972 0.0396 0.0
N157 N 0.42834 0.49012 0.00391 0.0
C158 C 0.42537 0.46206 0.01976 0.0
C159 C 0.38453 0.50291 0.01908 0.0
C160 C 0.40233 0.45351 0.0376 0.0
C161 C 0.40792 0.51041 0.00205 0.0
C162 C 0.3819 0.4744 0.03736 0.0
N163 N 0.4664 0.4508 0.99851 0.0
C164 C 0.48293 0.43104 0.98969 0.0
C165 C 0.44269 0.41255 0.03348 0.0
C166 C 0.44537 0.44192 0.01777 0.0
C167 C 0.46171 0.39248 0.02795 0.0
C168 C 0.4815 0.40172 0.00519 0.0
H169 H 0.36388 0.46869 0.05077 0.0
H170 H 0.3831 0.41755 0.06932 0.0
H171 H 0.41843 0.38165 0.06566 0.0
O172 O 0.44692 0.4808 0.9309 0.0
O173 O 0.46582 0.50233 0.03848 0.0
O174 O 0.51152 0.49133 0.07136 0.0
O175 O 0.44408 0.52696 0.92402 0.0
O176 O 0.51429 0.48347 0.98448 0.0
O177 O 0.53578 0.48571 0.04689 0.0
O178 O 0.52344 0.55021 0.09782 0.0
O179 O 0.51772 0.55495 0.9872 0.0
O180 O 0.50887 0.51736 0.95646 0.0
O181 O 0.56571 0.53385 0.10059 0.0
O182 O 0.48764 0.55278 0.04129 0.0
O183 O 0.46206 0.54806 0.98084 0.0
C184 C 0.48396 0.48902 0.06899 0.0
C185 C 0.44565 0.50786 0.8689 0.0
C186 C 0.44196 0.48902 0.81028 0.0
C187 C 0.45984 0.51092 0.79729 0.0
C188 C 0.46368 0.52938 0.85546 0.0
C189 C 0.47059 0.5309 0.81978 0.0
C190 C 0.43484 0.48782 0.84616 0.0
C191 C 0.53324 0.47398 0.01651 0.0
C192 C 0.43898 0.50505 0.90721 0.0
C193 C 0.40039 0.42449 0.05491 0.0
C194 C 0.42057 0.40406 0.05296 0.0
C195 C 0.51887 0.54306 0.95802 0.0
C196 C 0.54901 0.52663 0.1581 0.0
C197 C 0.55059 0.52543 0.22583 0.0
C198 C 0.54634 0.49559 0.23137 0.0
C199 C 0.54507 0.4968 0.16428 0.0
C200 C 0.55188 0.54084 0.18891 0.0
C201 C 0.54366 0.48141 0.20074 0.0
C202 C 0.46707 0.56096 0.01051 0.0
C203 C 0.54869 0.5432 0.1193 0.0
H204 H 0.4654 0.51277 0.76959 0.0
H205 H 0.4726 0.54489 0.87257 0.0
H206 H 0.48445 0.54756 0.80958 0.0
H207 H 0.42149 0.47083 0.85698 0.0
H208 H 0.54546 0.48313 0.25949 0.0
H209 H 0.54297 0.48545 0.14091 0.0
H210 H 0.55453 0.56395 0.18395 0.0
H211 H 0.54049 0.45843 0.20528 0.0
H212 H 0.21023 0.24647 0.48061 0.0
H213 H 0.17488 0.20901 0.48681 0.0
H214 H 0.23704 0.14542 0.48296 0.0
H215 H 0.27283 0.18264 0.47815 0.0
H216 H 0.15162 0.17421 0.44049 0.0
H217 H 0.21026 0.10793 0.57772 0.0
H218 H 0.2212 0.14346 0.55872 0.0
H219 H 0.23018 0.11301 0.54047 0.0
C220 C 0.21644 0.22448 0.48129 0.0
C221 C 0.24442 0.2175 0.47922 0.0
C222 C 0.19617 0.20308 0.48474 0.0
C223 C 0.20337 0.17426 0.48599 0.0
C224 C 0.23115 0.16733 0.48311 0.0
H225 H 0.06833 0.04611 0.4608 0.0
H226 H 0.10758 0.07827 0.44894 0.0
C227 C 0.25155 0.18868 0.48014 0.0
C228 C 0.18164 0.15168 0.49003 0.0
H229 H 0.16808 0.0885 0.54663 0.0
C230 C 0.15523 0.15544 0.46368 0.0
C231 C 0.18623 0.1273 0.52051 0.0
C232 C 0.21337 0.12276 0.55119 0.0
C233 C 0.1332 0.13577 0.46721 0.0
C234 C 0.13799 0.11116 0.4973 0.0
C235 C 0.16453 0.10719 0.52332 0.0
C236 C 0.11505 0.09051 0.50433 0.0
C237 C 0.10465 0.1422 0.4396 0.0
C238 C 0.10694 0.08581 0.53984 0.0
C239 C 0.08501 0.06714 0.54688 0.0
C240 C 0.07044 0.05283 0.51846 0.0
C241 C 0.07898 0.05699 0.48315 0.0
C242 C 0.10123 0.07555 0.47623 0.0
H243 H 0.10234 0.16512 0.4245 0.0
H244 H 0.10271 0.12871 0.41762 0.0
H245 H 0.08678 0.13718 0.45474 0.0
H246 H 0.11734 0.09694 0.56206 0.0
H247 H 0.07932 0.06415 0.57464 0.0
H248 H 0.33993 0.80378 0.99552 0.0
H249 H 0.3672 0.76382 0.98567 0.0
H250 H 0.32011 0.70351 0.05317 0.0
H251 H 0.29208 0.74331 0.06198 0.0
H252 H 0.40231 0.72542 0.03532 0.0
H253 H 0.3135 0.66772 0.96116 0.0
H254 H 0.30892 0.70355 0.96905 0.0
H255 H 0.30793 0.67264 0.00665 0.0
C256 C 0.33526 0.78199 0.00808 0.0
C257 C 0.31375 0.7767 0.02939 0.0
C258 C 0.35085 0.75916 0.00239 0.0
C259 C 0.34535 0.73058 0.01802 0.0
C260 C 0.32417 0.72528 0.03982 0.0
H261 H 0.46296 0.58582 0.0706 0.0
H262 H 0.43337 0.62725 0.06988 0.0
C263 C 0.30833 0.74809 0.04514 0.0
C264 C 0.36272 0.70647 0.01307 0.0
H265 H 0.3581 0.64134 0.986 0.0
C266 C 0.39262 0.70718 0.02419 0.0
C267 C 0.35017 0.68288 0.99785 0.0
C268 C 0.31839 0.68176 0.98261 0.0
C269 C 0.41023 0.68459 0.02169 0.0
C270 C 0.39758 0.66017 0.0088 0.0
C271 C 0.36776 0.65986 0.99642 0.0
C272 C 0.41492 0.63444 0.00902 0.0
C273 C 0.44225 0.68729 0.03258 0.0
C274 C 0.41353 0.62387 0.97532 0.0
C275 C 0.43019 0.59977 0.97571 0.0
C276 C 0.44856 0.58587 0.00984 0.0
C277 C 0.4494 0.5962 0.04366 0.0
C278 C 0.43259 0.62005 0.04329 0.0
H279 H 0.44837 0.71021 0.0295 0.0
H280 H 0.44998 0.67668 0.06309 0.0
H281 H 0.45331 0.67689 0.01468 0.0
H282 H 0.39983 0.6345 0.9486 0.0
H283 H 0.42898 0.59232 0.94919 0.0
H284 H 0.75247 0.79803 0.58756 0.0
H285 H 0.79593 0.82283 0.57571 0.0
H286 H 0.78989 0.87423 0.65895 0.0
H287 H 0.74639 0.84963 0.67098 0.0
H288 H 0.79762 0.88468 0.54969 0.0
H289 H 0.87496 0.84483 0.68708 0.0
H290 H 0.84276 0.82609 0.67183 0.0
H291 H 0.84091 0.85767 0.69145 0.0
C292 C 0.76062 0.81428 0.60383 0.0
C293 C 0.74594 0.82186 0.63023 0.0
C294 C 0.78541 0.82847 0.59693 0.0
C295 C 0.79622 0.8502 0.61664 0.0
C296 C 0.78212 0.85724 0.64382 0.0
H297 H 0.93188 0.97238 0.60866 0.0
H298 H 0.89234 0.94219 0.62359 0.0
C299 C 0.7572 0.84322 0.65055 0.0
C300 C 0.82099 0.86693 0.60684 0.0
H301 H 0.88952 0.88359 0.64361 0.0
C302 C 0.81782 0.88431 0.57008 0.0
C303 C 0.84717 0.86651 0.63363 0.0
C304 C 0.85189 0.84763 0.67315 0.0
C305 C 0.83992 0.90187 0.55963 0.0
C306 C 0.86619 0.90146 0.5864 0.0
C307 C 0.86941 0.88387 0.62311 0.0
C308 C 0.89037 0.91956 0.57714 0.0
C309 C 0.83456 0.9214 0.52047 0.0
C310 C 0.90266 0.9167 0.54628 0.0
C311 C 0.92512 0.93414 0.53738 0.0
C312 C 0.93605 0.95455 0.55954 0.0
C313 C 0.92397 0.95701 0.59084 0.0
C314 C 0.9014 0.93969 0.59953 0.0
H315 H 0.81133 0.92497 0.50782 0.0
H316 H 0.8444 0.94263 0.52183 0.0
H317 H 0.84418 0.91134 0.5009 0.0
H318 H 0.89494 0.90088 0.5291 0.0
H319 H 0.93395 0.93154 0.51319 0.0
H320 H 0.63231 0.21898 0.03485 0.0
H321 H 0.60592 0.2644 0.0261 0.0
H322 H 0.68528 0.30654 0.05874 0.0
H323 H 0.7118 0.26156 0.06534 0.0
H324 H 0.59925 0.29702 0.07191 0.0
H325 H 0.65186 0.36147 0.96291 0.0
H326 H 0.65743 0.32304 0.97802 0.0
H327 H 0.67746 0.34694 0.00591 0.0
C328 C 0.64411 0.23799 0.03998 0.0
C329 C 0.67411 0.23684 0.05042 0.0
C330 C 0.62902 0.26395 0.03498 0.0
C331 C 0.6436 0.28915 0.04085 0.0
C332 C 0.67355 0.28773 0.05263 0.0
H333 H 0.56029 0.43754 0.0819 0.0
H334 H 0.58764 0.39343 0.08722 0.0
C335 C 0.68869 0.26193 0.05677 0.0
C336 C 0.62738 0.31665 0.03562 0.0
H337 H 0.62417 0.38786 0.99277 0.0
C338 C 0.60459 0.31682 0.05434 0.0
C339 C 0.63387 0.34245 0.01205 0.0
C340 C 0.65627 0.34342 0.98826 0.0
C341 C 0.58846 0.34205 0.05071 0.0
C342 C 0.59614 0.36819 0.02915 0.0
C343 C 0.61857 0.36795 0.00984 0.0
C344 C 0.581 0.39595 0.02592 0.0
C345 C 0.56292 0.34015 0.06927 0.0
C346 C 0.56959 0.41303 0.9897 0.0
C347 C 0.55478 0.43884 0.98659 0.0
C348 C 0.55072 0.44783 0.01962 0.0
C349 C 0.56288 0.43114 0.05585 0.0
C350 C 0.57819 0.40567 0.05895 0.0
H351 H 0.5545 0.31802 0.0732 0.0
H352 H 0.56944 0.34556 0.09808 0.0
H353 H 0.54537 0.3553 0.05193 0.0
H354 H 0.57176 0.40617 0.96378 0.0
H355 H 0.54604 0.4515 0.95829 0.0
H356 H 0.17998 0.84836 0.16535 0.0
H357 H 0.15969 0.85832 0.21764 0.0
H358 H 0.21432 0.93096 0.22583 0.0
H359 H 0.23461 0.92137 0.17298 0.0
H360 H 0.1844 0.8632 0.29386 0.0
H361 H 0.13269 0.966 0.20495 0.0
H362 H 0.14755 0.93967 0.18441 0.0
H363 H 0.17078 0.96228 0.21062 0.0
C364 C 0.18795 0.8663 0.17846 0.0
C365 C 0.2087 0.88426 0.16468 0.0
C366 C 0.17635 0.87192 0.20843 0.0
C367 C 0.18519 0.89563 0.22518 0.0
C368 C 0.20689 0.91283 0.21283 0.0
H369 H 0.10739 0.91603 0.41863 0.0
H370 H 0.14415 0.91715 0.38041 0.0
C371 C 0.21855 0.90721 0.18278 0.0
C372 C 0.17035 0.90288 0.25404 0.0
H373 H 0.12202 0.95076 0.2657 0.0
C374 C 0.17113 0.88257 0.2881 0.0
C375 C 0.15291 0.92809 0.24618 0.0
C376 C 0.15064 0.95025 0.20949 0.0
C377 C 0.15403 0.88622 0.31384 0.0
C378 C 0.13597 0.91102 0.30542 0.0
C379 C 0.13608 0.9319 0.27214 0.0
C380 C 0.11416 0.91377 0.328 0.0
C381 C 0.15417 0.86273 0.34866 0.0
C382 C 0.08515 0.91268 0.31078 0.0
C383 C 0.06424 0.91219 0.33235 0.0
C384 C 0.0719 0.91289 0.37161 0.0
C385 C 0.10088 0.9155 0.38843 0.0
C386 C 0.12188 0.91589 0.36675 0.0
H387 H 0.16613 0.84305 0.3479 0.0
H388 H 0.16443 0.87061 0.37488 0.0
H389 H 0.13197 0.85685 0.35097 0.0
H390 H 0.07872 0.91118 0.28087 0.0
H391 H 0.04205 0.91065 0.31848 0.0
H392 H 0.64311 0.66863 0.68313 0.0
H393 H 0.62114 0.63371 0.72731 0.0
H394 H 0.60106 0.70167 0.78104 0.0
H395 H 0.62238 0.73666 0.7367 0.0
H396 H 0.63422 0.62181 0.81251 0.0
H397 H 0.52312 0.6627 0.74707 0.0
H398 H 0.55215 0.67001 0.72218 0.0
H399 H 0.54835 0.68987 0.75805 0.0
C400 C 0.63366 0.67619 0.70395 0.0
C401 C 0.63389 0.70554 0.70577 0.0
C402 C 0.62139 0.65617 0.72944 0.0
C403 C 0.60902 0.66523 0.75693 0.0
C404 C 0.61007 0.69432 0.7596 0.0
H405 H 0.5206 0.60119 0.93577 0.0
H406 H 0.54303 0.62843 0.88584 0.0
C407 C 0.62244 0.71425 0.73438 0.0
C408 C 0.59477 0.64455 0.78289 0.0
H409 H 0.53026 0.63051 0.8076 0.0
C410 C 0.61144 0.6234 0.81123 0.0
C411 C 0.56507 0.64673 0.78105 0.0
C412 C 0.546 0.66837 0.75027 0.0
C413 C 0.59935 0.60519 0.83894 0.0
C414 C 0.56973 0.60789 0.83768 0.0
C415 C 0.55296 0.6285 0.80858 0.0
C416 C 0.55596 0.59087 0.8676 0.0
C417 C 0.61858 0.58409 0.87028 0.0
C418 C 0.55534 0.56069 0.87359 0.0
C419 C 0.5428 0.54503 0.90257 0.0
C420 C 0.53069 0.55935 0.92594 0.0
C421 C 0.53046 0.58956 0.91892 0.0
C422 C 0.54305 0.60515 0.89017 0.0
H423 H 0.64152 0.58921 0.8723 0.0
H424 H 0.61318 0.58387 0.8985 0.0
H425 H 0.61553 0.56214 0.86415 0.0
H426 H 0.56459 0.54925 0.85594 0.0
H427 H 0.54303 0.52175 0.90712 0.0
H428 H 0.76599 0.10724 0.18746 0.0
H429 H 0.80114 0.08895 0.24663 0.0
H430 H 0.86953 0.11303 0.18717 0.0
H431 H 0.83451 0.13161 0.12803 0.0
H432 H 0.87691 0.05768 0.2328 0.0
H433 H 0.8515 0.13751 0.31417 0.0
H434 H 0.82104 0.11848 0.29461 0.0
H435 H 0.83936 0.14203 0.26284 0.0
C436 C 0.78852 0.10865 0.18698 0.0
C437 C 0.79745 0.12044 0.15285 0.0
C438 C 0.80857 0.09831 0.22085 0.0
C439 C 0.83794 0.09991 0.22138 0.0
C440 C 0.84695 0.11152 0.18733 0.0
H441 H 0.97444 0.07567 0.42585 0.0
H442 H 0.94156 0.09456 0.36479 0.0
C443 C 0.82688 0.12183 0.15341 0.0
C444 C 0.85926 0.08914 0.25734 0.0
H445 H 0.88213 0.09794 0.34969 0.0
C446 C 0.87815 0.06654 0.25832 0.0
C447 C 0.86107 0.10101 0.29043 0.0
C448 C 0.84236 0.12628 0.29051 0.0
C449 C 0.89843 0.05508 0.29178 0.0
C450 C 0.89952 0.06625 0.32525 0.0
C451 C 0.88104 0.08924 0.32406 0.0
C452 C 0.91977 0.05449 0.36182 0.0
C453 C 0.91874 0.03136 0.29085 0.0
C454 C 0.91829 0.02576 0.38051 0.0
C455 C 0.93697 0.01495 0.41549 0.0
C456 C 0.95726 0.0328 0.43254 0.0
C457 C 0.95882 0.0615 0.41361 0.0
C458 C 0.94012 0.0723 0.37869 0.0
H459 H 0.92018 0.03052 0.26103 0.0
H460 H 0.9405 0.03421 0.30754 0.0
H461 H 0.91093 0.01034 0.30388 0.0
H462 H 0.90236 0.01182 0.36836 0.0
H463 H 0.93506 0.99283 0.4296 0.0
H464 H 0.31662 0.31864 0.58759 0.0
H465 H 0.33019 0.34314 0.64178 0.0
H466 H 0.41311 0.35965 0.61472 0.0
H467 H 0.39994 0.33519 0.56091 0.0
H468 H 0.4136 0.34113 0.69546 0.0
H469 H 0.33663 0.43226 0.62313 0.0
H470 H 0.32238 0.39671 0.62868 0.0
H471 H 0.34702 0.4066 0.59766 0.0
C472 C 0.33787 0.32716 0.59348 0.0
C473 C 0.35709 0.32519 0.56965 0.0
C474 C 0.34552 0.34128 0.62431 0.0
C475 C 0.37249 0.35358 0.63184 0.0
C476 C 0.39215 0.35042 0.60928 0.0
H477 H 0.47086 0.46266 0.76849 0.0
H478 H 0.45276 0.42809 0.72836 0.0
C479 C 0.38452 0.33646 0.57845 0.0
C480 C 0.38002 0.37101 0.66188 0.0
H481 H 0.36578 0.4357 0.68254 0.0
C482 C 0.40301 0.36169 0.69289 0.0
C483 C 0.36611 0.39779 0.65843 0.0
C484 C 0.34178 0.40918 0.62511 0.0
C485 C 0.41272 0.37864 0.72031 0.0
C486 C 0.3995 0.40593 0.71606 0.0
C487 C 0.37593 0.41481 0.68572 0.0
C488 C 0.41064 0.42627 0.74149 0.0
C489 C 0.43702 0.36712 0.75358 0.0
C490 C 0.39277 0.43742 0.76142 0.0
C491 C 0.40293 0.45764 0.78392 0.0
C492 C 0.43114 0.46725 0.78674 0.0
C493 C 0.44895 0.45599 0.76669 0.0
C494 C 0.43876 0.43586 0.74417 0.0
H495 H 0.43843 0.34322 0.75951 0.0
H496 H 0.45748 0.37526 0.74643 0.0
H497 H 0.43459 0.37419 0.78004 0.0
H498 H 0.3709 0.43056 0.75944 0.0
H499 H 0.3885 0.46613 0.79852 0.0
H500 H 0.54617 0.66966 0.49146 0.0
H501 H 0.53685 0.64473 0.43766 0.0
H502 H 0.61984 0.60223 0.47815 0.0
H503 H 0.62911 0.62658 0.53245 0.0
H504 H 0.56594 0.64787 0.38051 0.0
H505 H 0.56837 0.53532 0.46116 0.0
H506 H 0.56617 0.56587 0.48311 0.0
H507 H 0.60004 0.55434 0.47639 0.0
C508 C 0.56234 0.65479 0.48917 0.0
C509 C 0.58834 0.65002 0.51637 0.0
C510 C 0.55699 0.6406 0.45835 0.0
C511 C 0.57748 0.62132 0.45416 0.0
C512 C 0.60345 0.6165 0.48127 0.0
H513 H 0.5896 0.56565 0.24491 0.0
H514 H 0.59526 0.58945 0.29966 0.0
C515 C 0.60877 0.63057 0.51221 0.0
C516 C 0.57215 0.60721 0.42055 0.0
H517 H 0.56946 0.54169 0.39485 0.0
C518 C 0.56654 0.62464 0.38362 0.0
C519 C 0.57257 0.57691 0.42465 0.0
C520 C 0.57682 0.55699 0.46345 0.0
C521 C 0.56188 0.61263 0.35067 0.0
C522 C 0.56349 0.58236 0.35481 0.0
C523 C 0.56853 0.5649 0.39172 0.0
C524 C 0.55986 0.56829 0.32125 0.0
C525 C 0.55484 0.63249 0.31178 0.0
C526 C 0.53855 0.54797 0.31569 0.0
C527 C 0.53544 0.53417 0.28462 0.0
C528 C 0.55362 0.54041 0.25852 0.0
C529 C 0.57498 0.56075 0.26418 0.0
C530 C 0.57819 0.5744 0.2954 0.0
H531 H 0.54632 0.65373 0.31348 0.0
H532 H 0.5746 0.63625 0.30034 0.0
H533 H 0.5389 0.62294 0.29118 0.0
H534 H 0.52421 0.54288 0.33533 0.0
H535 H 0.51862 0.51879 0.28083 0.0
H536 H 0.88215 0.12411 0.98558 0.0
H537 H 0.9069 0.1179 0.93536 0.0
H538 H 0.86188 0.03958 0.92396 0.0
H539 H 0.83658 0.04592 0.97355 0.0
H540 H 0.94223 0.07469 0.93153 0.0
H541 H 0.8458 0.08441 0.81399 0.0
H542 H 0.84534 0.09382 0.85948 0.0
H543 H 0.84352 0.05676 0.8548 0.0
C544 C 0.87751 0.10555 0.97242 0.0
C545 C 0.85723 0.08561 0.98339 0.0
C546 C 0.89167 0.10204 0.9437 0.0
C547 C 0.88582 0.07859 0.92539 0.0
C548 C 0.86618 0.05824 0.937 0.0
H549 H 0.99187 0.01681 0.79017 0.0
H550 H 0.9663 0.02323 0.83953 0.0
C551 C 0.85189 0.06179 0.96557 0.0
C552 C 0.9006 0.07523 0.89453 0.0
H553 H 0.88896 0.06879 0.80078 0.0
C554 C 0.9306 0.0735 0.9029 0.0
C555 C 0.8854 0.07414 0.85702 0.0
C556 C 0.85325 0.07767 0.84558 0.0
C557 C 0.94581 0.0702 0.87498 0.0
C558 C 0.93057 0.06792 0.83791 0.0
C559 C 0.90059 0.07018 0.82933 0.0
C560 C 0.94537 0.06351 0.80751 0.0
C561 C 0.97807 0.06974 0.88527 0.0
C562 C 0.94125 0.08345 0.77253 0.0
C563 C 0.95563 0.07968 0.74412 0.0
C564 C 0.9744 0.0559 0.75022 0.0
C565 C 0.97795 0.03562 0.78495 0.0
C566 C 0.96343 0.03931 0.8132 0.0
H567 H 0.98613 0.07984 0.91039 0.0
H568 H 0.98619 0.04709 0.89287 0.0
H569 H 0.98704 0.08116 0.86078 0.0
H570 H 0.92729 0.10221 0.76746 0.0
H571 H 0.9526 0.09574 0.71776 0.0
H572 H 0.35457 0.35876 0.3289 0.0
H573 H 0.36969 0.38599 0.27216 0.0
H574 H 0.44898 0.33653 0.30401 0.0
H575 H 0.4341 0.30916 0.36079 0.0
H576 H 0.421 0.41895 0.27648 0.0
H577 H 0.42001 0.33593 0.1881 0.0
H578 H 0.40043 0.33239 0.22605 0.0
H579 H 0.43839 0.32551 0.23744 0.0
C580 C 0.37504 0.35333 0.32355 0.0
C581 C 0.39316 0.3318 0.34945 0.0
C582 C 0.38365 0.36896 0.29115 0.0
C583 C 0.41034 0.36312 0.28378 0.0
C584 C 0.42811 0.34109 0.3089 0.0
H585 H 0.51043 0.4421 0.11973 0.0
H586 H 0.4923 0.4118 0.1721 0.0
C587 C 0.41961 0.32555 0.34143 0.0
C588 C 0.4205 0.38146 0.25148 0.0
H589 H 0.44118 0.3803 0.16758 0.0
C590 C 0.42523 0.41059 0.25251 0.0
C591 C 0.42622 0.37036 0.2205 0.0
C592 C 0.42082 0.33939 0.2176 0.0
C593 C 0.43603 0.42885 0.22369 0.0
C594 C 0.44163 0.4178 0.19259 0.0
C595 C 0.43685 0.38868 0.19149 0.0
C596 C 0.45253 0.43618 0.16098 0.0
C597 C 0.44209 0.45962 0.22727 0.0
C598 C 0.43612 0.45984 0.13738 0.0
C599 C 0.44654 0.47727 0.10777 0.0
C600 C 0.47333 0.4711 0.10093 0.0
C601 C 0.48974 0.4474 0.12453 0.0
C602 C 0.47935 0.43 0.15423 0.0
H603 H 0.44343 0.46269 0.25705 0.0
H604 H 0.46243 0.46649 0.21855 0.0
H605 H 0.42456 0.47392 0.20811 0.0
H606 H 0.41519 0.46474 0.14174 0.0
H607 H 0.43363 0.4956 0.09024 0.0
H608 H 0.18468 0.93858 0.94565 0.0
H609 H 0.15294 0.95297 0.88266 0.0
H610 H 0.17752 0.87598 0.85019 0.0
H611 H 0.20958 0.86137 0.91317 0.0
H612 H 0.17714 0.92758 0.79395 0.0
H613 H 0.07619 0.91513 0.84696 0.0
H614 H 0.10194 0.93715 0.87071 0.0
H615 H 0.10996 0.89953 0.8756 0.0
C616 C 0.18342 0.92467 0.92516 0.0
C617 C 0.19959 0.89872 0.93456 0.0
C618 C 0.16513 0.93288 0.88925 0.0
C619 C 0.16258 0.9153 0.86209 0.0
C620 C 0.1791 0.88972 0.87094 0.0
H621 H 0.02781 0.93518 0.65535 0.0
H622 H 0.06073 0.91648 0.71662 0.0
C623 C 0.19738 0.88142 0.90693 0.0
C624 C 0.14282 0.92384 0.8243 0.0
H625 H 0.0725 0.93871 0.78193 0.0
C626 C 0.15424 0.92984 0.79122 0.0
C627 C 0.11295 0.92644 0.8209 0.0
C628 C 0.09942 0.91898 0.85536 0.0
C629 C 0.13661 0.93914 0.75479 0.0
C630 C 0.10683 0.94282 0.75153 0.0
C631 C 0.09535 0.93608 0.78455 0.0
C632 C 0.08723 0.95395 0.71423 0.0
C633 C 0.15007 0.94485 0.72018 0.0
C634 C 0.09103 0.98132 0.69287 0.0
C635 C 0.0725 0.99182 0.65775 0.0
C636 C 0.04969 0.97525 0.64359 0.0
C637 C 0.0455 0.94817 0.66539 0.0
C638 C 0.06417 0.93756 0.70042 0.0
H639 H 0.1705 0.93239 0.7257 0.0
H640 H 0.13552 0.93938 0.69472 0.0
H641 H 0.15482 0.96806 0.71336 0.0
H642 H 0.1083 0.99458 0.70341 0.0
H643 H 0.07626 0.01277 0.64148 0.0
loop_
_geom_bond_atom_site_label_1
_geom_bond_atom_site_label_2
_geom_bond_distance
_geom_bond_site_symmetry_2
_ccdc_geom_bond_type
O0 Cd1 2.300 1_556 S
O0 C7 1.275 . S
Cd1 O0 2.300 1_554 S
Cd1 O9 2.381 . S
Cd1 O10 2.378 . S
O2 Cd3 2.385 . S
O2 C7 1.255 1_554 S
Cd3 O2 2.385 . S
Cd3 O4 2.317 . S
O4 Cd3 2.317 . S
O4 C5 1.232 . S
C5 O4 1.232 . S
C5 O6 1.218 . S
O6 C5 1.218 . S
C7 O0 1.275 . S
C7 O2 1.255 1_556 S
C8 O9 1.258 . S
C8 O10 1.256 . S
O9 Cd1 2.381 . S
O9 C8 1.258 . S
O10 Cd1 2.378 . S
O10 C8 1.256 . S
O11 Cd12 2.300 . S
O11 C18 1.275 . S
Cd12 O11 2.300 . S
Cd12 O20 2.381 . S
Cd12 O21 2.378 . S
O13 Cd14 2.385 . S
O13 C18 1.255 . S
Cd14 O13 2.385 . S
Cd14 O15 2.317 . S
O15 Cd14 2.317 . S
O15 C16 1.232 . S
C16 O15 1.232 . S
C16 O17 1.218 . S
O17 C16 1.218 . S
C18 O11 1.275 . S
C18 O13 1.255 . S
C19 O20 1.258 . S
C19 O21 1.256 . S
O20 Cd12 2.381 . S
O20 C19 1.258 . S
O21 Cd12 2.378 . S
O21 C19 1.256 . S
O22 Cd23 2.300 . S
O22 C29 1.275 . S
Cd23 O22 2.300 . S
Cd23 O31 2.381 . S
Cd23 O32 2.378 . S
O24 Cd25 2.385 . S
O24 C29 1.255 . S
Cd25 O24 2.385 . S
Cd25 O26 2.317 1_554 S
O26 Cd25 2.317 1_556 S
O26 C27 1.232 . S
C27 O26 1.232 . S
C27 O28 1.218 1_556 S
O28 C27 1.218 1_554 S
C29 O22 1.275 . S
C29 O24 1.255 . S
C30 O31 1.258 . S
C30 O32 1.256 . S
O31 Cd23 2.381 . S
O31 C30 1.258 . S
O32 Cd23 2.378 . S
O32 C30 1.256 . S
O33 Cd34 2.300 . S
O33 C40 1.275 . S
Cd34 O33 2.300 . S
Cd34 O42 2.381 . S
Cd34 O43 2.378 . S
O35 Cd36 2.385 . S
O35 C40 1.255 . S
Cd36 O35 2.385 . S
Cd36 O37 2.317 . S
O37 Cd36 2.317 . S
O37 C38 1.232 . S
C38 O37 1.232 . S
C38 O39 1.218 . S
O39 C38 1.218 . S
C40 O33 1.275 . S
C40 O35 1.255 . S
C41 O42 1.258 . S
C41 O43 1.256 . S
O42 Cd34 2.381 . S
O42 C41 1.258 . S
O43 Cd34 2.378 . S
O43 C41 1.256 . S
Eu44 N73 2.600 . S
Eu44 N79 2.562 . S
Eu44 O88 2.462 . S
Eu44 O89 2.373 . S
Eu44 O91 2.432 . S
Eu44 O92 2.291 1_565 S
Eu44 O96 2.317 1_465 S
Eu44 O99 2.372 1_455 S
Eu44 C108 2.787 . S
C45 N46 1.365 . S
C45 C48 1.405 . S
C45 C52 1.448 . S
N46 C45 1.365 . S
N46 C49 1.319 1_655 S
N46 Eu55 2.600 . S
C47 C49 1.397 . S
C47 C50 1.367 1_455 S
C47 H67 0.931 . S
C48 C45 1.405 . S
C48 C50 1.403 . S
C48 C54 1.439 . S
C49 N46 1.319 1_455 S
C49 C47 1.397 . S
C49 H60 0.930 . S
C50 C47 1.367 1_655 S
C50 C48 1.403 . S
C50 H71 0.929 . S
C51 C52 1.430 . S
C51 C53 1.387 . S
C51 C57 1.404 . S
C52 C45 1.448 . S
C52 C51 1.430 . S
C52 N56 1.351 . S
C53 C51 1.387 . S
C53 C54 1.374 . S
C53 H68 0.931 . S
C54 C48 1.439 . S
C54 C53 1.374 . S
C54 H69 0.931 . S
Eu55 N46 2.600 . S
Eu55 N56 2.562 . S
Eu55 O90 2.335 1_655 S
Eu55 O93 2.372 1_655 S
Eu55 O94 2.462 . S
Eu55 O95 2.373 . S
Eu55 O97 2.432 . S
Eu55 O98 2.291 1_545 S
Eu55 C119 2.787 . S
N56 C52 1.351 . S
N56 Eu55 2.562 . S
N56 C58 1.325 . S
C57 C51 1.404 . S
C57 C59 1.366 . S
C57 H65 0.930 . S
C58 N56 1.325 . S
C58 C59 1.416 . S
C58 H64 0.929 . S
C59 C57 1.366 . S
C59 C58 1.416 . S
C59 H61 0.930 . S
H60 C49 0.930 . S
H61 C59 0.930 . S
H62 C77 0.930 1_655 S
H63 C84 0.930 . S
H64 C58 0.929 . S
H65 C57 0.930 . S
H66 C80 0.929 . S
H67 C47 0.931 . S
H68 C53 0.931 . S
H69 C54 0.931 . S
H70 C75 0.931 1_655 S
H71 C50 0.929 . S
H72 C83 0.930 . S
N73 Eu44 2.600 . S
N73 C74 1.365 . S
N73 C77 1.319 . S
C74 N73 1.365 . S
C74 C76 1.405 . S
C74 C82 1.448 . S
C75 H70 0.931 1_455 S
C75 C77 1.397 . S
C75 C78 1.367 . S
C76 C74 1.405 . S
C76 C78 1.403 . S
C76 C109 1.439 . S
C77 H62 0.930 1_455 S
C77 N73 1.319 . S
C77 C75 1.397 . S
C78 C75 1.367 . S
C78 C76 1.403 . S
C78 H85 0.929 . S
N79 Eu44 2.562 . S
N79 C80 1.325 . S
N79 C82 1.351 . S
C80 H66 0.929 . S
C80 N79 1.325 . S
C80 C84 1.416 . S
C81 C82 1.430 . S
C81 C83 1.404 . S
C81 C110 1.387 . S
C82 C74 1.448 . S
C82 N79 1.351 . S
C82 C81 1.430 . S
C83 H72 0.930 . S
C83 C81 1.404 . S
C83 C84 1.366 . S
C84 H63 0.930 . S
C84 C80 1.416 . S
C84 C83 1.366 . S
H85 C78 0.929 . S
H86 C109 0.931 . S
H87 C110 0.931 . S
O88 Eu44 2.462 . S
O88 C108 1.252 . S
O89 Eu44 2.373 . S
O89 C100 1.249 . S
O90 Eu55 2.335 1_455 S
O90 C100 1.264 1_545 S
O91 Eu44 2.432 . S
O91 C108 1.268 . S
O92 Eu44 2.291 1_545 S
O92 C107 1.255 . S
O93 Eu55 2.372 1_455 S
O93 C107 1.257 . S
O94 Eu55 2.462 . S
O94 C119 1.252 . S
O95 Eu55 2.373 . S
O95 C111 1.249 . S
O96 Eu44 2.317 1_645 S
O96 C111 1.293 . S
O97 Eu55 2.432 . S
O97 C119 1.268 . S
O98 Eu55 2.291 1_565 S
O98 C118 1.255 . S
O99 Eu44 2.372 1_655 S
O99 C118 1.257 . S
C100 O89 1.249 . S
C100 O90 1.264 1_565 S
C101 C104 1.382 . S
C101 C106 1.390 . S
C101 C108 1.506 . S
C102 C103 1.398 . S
C102 C106 1.392 . S
C103 C102 1.398 . S
C103 C105 1.372 . S
C103 H120 0.931 . S
C104 C101 1.382 . S
C104 C105 1.390 . S
C104 H121 0.931 . S
C105 C103 1.372 . S
C105 C104 1.390 . S
C105 H122 0.929 . S
C106 C101 1.390 . S
C106 C102 1.392 . S
C106 H123 0.930 . S
C107 O92 1.255 . S
C107 O93 1.257 . S
C108 Eu44 2.787 . S
C108 O88 1.252 . S
C108 O91 1.268 . S
C108 C101 1.506 . S
C109 C76 1.439 . S
C109 H86 0.931 . S
C109 C110 1.374 . S
C110 C81 1.387 . S
C110 H87 0.931 . S
C110 C109 1.374 . S
C111 O95 1.249 . S
C111 O96 1.293 . S
C112 C115 1.382 . S
C112 C116 1.390 . S
C112 C119 1.506 . S
C113 C114 1.398 . S
C113 C116 1.392 . S
C114 C113 1.398 . S
C114 C117 1.372 . S
C114 H124 0.931 . S
C115 C112 1.382 . S
C115 C117 1.390 . S
C115 H125 0.931 . S
C116 C112 1.390 . S
C116 C113 1.392 . S
C116 H126 0.930 . S
C117 C114 1.372 . S
C117 C115 1.390 . S
C117 H127 0.929 . S
C118 O98 1.255 . S
C118 O99 1.257 . S
C119 Eu55 2.787 . S
C119 O94 1.252 . S
C119 O97 1.268 . S
C119 C112 1.506 . S
H120 C103 0.931 . S
H121 C104 0.931 . S
H122 C105 0.929 . S
H123 C106 0.930 . S
H124 C114 0.931 . S
H125 C115 0.931 . S
H126 C116 0.930 . S
H127 C117 0.929 . S
Eu128 N157 2.600 . S
Eu128 N163 2.562 1_556 S
Eu128 O172 2.462 . S
Eu128 O173 2.373 1_556 S
Eu128 O175 2.432 . S
Eu128 O176 2.291 1_556 S
Eu128 O180 2.335 . S
Eu128 O183 2.372 . S
Eu128 C192 2.787 . S
C129 N130 1.365 . S
C129 C132 1.405 . S
C129 C136 1.448 . S
N130 C129 1.365 . S
N130 C133 1.319 . S
N130 Eu139 2.600 . S
C131 C133 1.397 . S
C131 C134 1.367 . S
C131 H151 0.931 . S
C132 C129 1.405 . S
C132 C134 1.403 . S
C132 C138 1.439 . S
C133 N130 1.319 . S
C133 C131 1.397 . S
C133 H144 0.930 . S
C134 C131 1.367 . S
C134 C132 1.403 . S
C134 H155 0.929 . S
C135 C136 1.430 . S
C135 C137 1.387 . S
C135 C141 1.404 . S
C136 C129 1.448 . S
C136 C135 1.430 . S
C136 N140 1.351 . S
C137 C135 1.387 . S
C137 C138 1.374 . S
C137 H152 0.931 . S
C138 C132 1.439 . S
C138 C137 1.374 . S
C138 H153 0.931 . S
Eu139 N130 2.600 . S
Eu139 N140 2.562 . S
Eu139 O174 2.335 . S
Eu139 O177 2.372 . S
Eu139 O178 2.462 . S
Eu139 O179 2.373 1_554 S
Eu139 O181 2.432 . S
Eu139 O182 2.291 . S
Eu139 C203 2.787 . S
N140 C136 1.351 . S
N140 Eu139 2.562 . S
N140 C142 1.325 . S
C141 C135 1.404 . S
C141 C143 1.366 . S
C141 H149 0.930 . S
C142 N140 1.325 . S
C142 C143 1.416 . S
C142 H148 0.929 . S
C143 C141 1.366 . S
C143 C142 1.416 . S
C143 H145 0.930 . S
H144 C133 0.930 . S
H145 C143 0.930 . S
H146 C161 0.930 . S
H147 C168 0.930 . S
H148 C142 0.929 . S
H149 C141 0.930 . S
H150 C164 0.929 . S
H151 C131 0.931 . S
H152 C137 0.931 . S
H153 C138 0.931 . S
H154 C159 0.931 . S
H155 C134 0.929 . S
H156 C167 0.930 . S
N157 Eu128 2.600 . S
N157 C158 1.365 1_556 S
N157 C161 1.319 . S
C158 N157 1.365 1_554 S
C158 C160 1.405 . S
C158 C166 1.448 . S
C159 H154 0.931 . S
C159 C161 1.397 . S
C159 C162 1.367 . S
C160 C158 1.405 . S
C160 C162 1.403 1_554 S
C160 C193 1.439 . S
C161 H146 0.930 . S
C161 N157 1.319 . S
C161 C159 1.397 . S
C162 C159 1.367 . S
C162 C160 1.403 1_556 S
C162 H169 0.929 1_556 S
N163 Eu128 2.562 1_554 S
N163 C164 1.325 . S
N163 C166 1.351 . S
C164 H150 0.929 . S
C164 N163 1.325 . S
C164 C168 1.416 . S
C165 C166 1.430 . S
C165 C167 1.404 . S
C165 C194 1.387 . S
C166 C158 1.448 . S
C166 N163 1.351 . S
C166 C165 1.430 . S
C167 H156 0.930 . S
C167 C165 1.404 . S
C167 C168 1.366 . S
C168 H147 0.930 . S
C168 C164 1.416 . S
C168 C167 1.366 . S
H169 C162 0.929 1_554 S
H170 C193 0.931 . S
H171 C194 0.931 . S
O172 Eu128 2.462 . S
O172 C192 1.252 . S
O173 Eu128 2.373 1_554 S
O173 C184 1.249 . S
O174 Eu139 2.335 . S
O174 C184 1.264 . S
O175 Eu128 2.432 . S
O175 C192 1.268 . S
O176 Eu128 2.291 1_554 S
O176 C191 1.255 . S
O177 Eu139 2.372 . S
O177 C191 1.257 . S
O178 Eu139 2.462 . S
O178 C203 1.252 . S
O179 Eu139 2.373 1_556 S
O179 C195 1.249 . S
O180 Eu128 2.335 . S
O180 C195 1.264 . S
O181 Eu139 2.432 . S
O181 C203 1.268 . S
O182 Eu139 2.291 . S
O182 C202 1.255 . S
O183 Eu128 2.372 . S
O183 C202 1.257 1_556 S
C184 O173 1.249 . S
C184 O174 1.264 . S
C185 C188 1.382 . S
C185 C190 1.390 . S
C185 C192 1.506 . S
C186 C187 1.398 . S
C186 C190 1.392 . S
C187 C186 1.398 . S
C187 C189 1.372 . S
C187 H204 0.931 . S
C188 C185 1.382 . S
C188 C189 1.390 . S
C188 H205 0.931 . S
C189 C187 1.372 . S
C189 C188 1.390 . S
C189 H206 0.929 . S
C190 C185 1.390 . S
C190 C186 1.392 . S
C190 H207 0.930 . S
C191 O176 1.255 . S
C191 O177 1.257 . S
C192 Eu128 2.787 . S
C192 O172 1.252 . S
C192 O175 1.268 . S
C192 C185 1.506 . S
C193 C160 1.439 . S
C193 H170 0.931 . S
C193 C194 1.374 . S
C194 C165 1.387 . S
C194 H171 0.931 . S
C194 C193 1.374 . S
C195 O179 1.249 . S
C195 O180 1.264 . S
C196 C199 1.382 . S
C196 C200 1.390 . S
C196 C203 1.506 . S
C197 C198 1.398 . S
C197 C200 1.392 . S
C198 C197 1.398 . S
C198 C201 1.372 . S
C198 H208 0.931 . S
C199 C196 1.382 . S
C199 C201 1.390 . S
C199 H209 0.931 . S
C200 C196 1.390 . S
C200 C197 1.392 . S
C200 H210 0.930 . S
C201 C198 1.372 . S
C201 C199 1.390 . S
C201 H211 0.929 . S
C202 O182 1.255 . S
C202 O183 1.257 1_554 S
C203 Eu139 2.787 . S
C203 O178 1.252 . S
C203 O181 1.268 . S
C203 C196 1.506 . S
H204 C187 0.931 . S
H205 C188 0.931 . S
H206 C189 0.929 . S
H207 C190 0.930 . S
H208 C198 0.931 . S
H209 C199 0.931 . S
H210 C200 0.930 . S
H211 C201 0.929 . S
H212 C220 0.929 . S
H213 C222 0.930 . S
H214 C224 0.930 . S
H215 C227 0.929 . S
H216 C230 0.930 . S
H217 C232 0.960 . S
H218 C232 0.960 . S
H219 C232 0.960 . S
C220 H212 0.929 . S
C220 C221 1.377 . S
C220 C222 1.384 . S
C221 C220 1.377 . S
C221 C227 1.390 . S
C222 H213 0.930 . S
C222 C220 1.384 . S
C222 C223 1.372 . S
C223 C222 1.372 . S
C223 C224 1.400 . S
C223 C228 1.490 . S
C224 H214 0.930 . S
C224 C223 1.400 . S
C224 C227 1.386 . S
H225 C241 0.930 . S
H226 C242 0.931 . S
C227 H215 0.929 . S
C227 C221 1.390 . S
C227 C224 1.386 . S
C228 C223 1.490 . S
C228 C230 1.395 . S
C228 C231 1.403 . S
H229 C235 0.930 . S
C230 H216 0.930 . S
C230 C228 1.395 . S
C230 C233 1.403 . S
C231 C228 1.403 . S
C231 C232 1.524 . S
C231 C235 1.400 . S
C232 H217 0.960 . S
C232 H218 0.960 . S
C232 H219 0.960 . S
C232 C231 1.524 . S
C233 C230 1.403 . S
C233 C234 1.392 . S
C233 C237 1.495 . S
C234 C233 1.392 . S
C234 C235 1.385 . S
C234 C236 1.478 . S
C235 H229 0.930 . S
C235 C231 1.400 . S
C235 C234 1.385 . S
C236 C234 1.478 . S
C236 C238 1.381 . S
C236 C242 1.383 . S
C237 C233 1.495 . S
C237 H243 0.959 . S
C237 H244 0.961 . S
C237 H245 0.960 . S
C238 C236 1.381 . S
C238 C239 1.394 . S
C238 H246 0.930 . S
C239 C238 1.394 . S
C239 C240 1.383 . S
C239 H247 0.929 . S
C240 C239 1.383 . S
C240 C241 1.377 . S
C241 H225 0.930 . S
C241 C240 1.377 . S
C241 C242 1.379 . S
C242 H226 0.931 . S
C242 C236 1.383 . S
C242 C241 1.379 . S
H243 C237 0.959 . S
H244 C237 0.961 . S
H245 C237 0.960 . S
H246 C238 0.930 . S
H247 C239 0.929 . S
H248 C256 0.929 1_556 S
H249 C258 0.930 1_556 S
H250 C260 0.930 . S
H251 C263 0.929 . S
H252 C266 0.930 . S
H253 C268 0.960 . S
H254 C268 0.960 . S
H255 C268 0.960 . S
C256 H248 0.929 1_554 S
C256 C257 1.377 . S
C256 C258 1.384 . S
C257 C256 1.377 . S
C257 C263 1.390 . S
C258 H249 0.930 1_554 S
C258 C256 1.384 . S
C258 C259 1.372 . S
C259 C258 1.372 . S
C259 C260 1.400 . S
C259 C264 1.490 . S
C260 H250 0.930 . S
C260 C259 1.400 . S
C260 C263 1.386 . S
H261 C277 0.930 . S
H262 C278 0.931 . S
C263 H251 0.929 . S
C263 C257 1.390 . S
C263 C260 1.386 . S
C264 C259 1.490 . S
C264 C266 1.395 . S
C264 C267 1.403 . S
H265 C271 0.930 . S
C266 H252 0.930 . S
C266 C264 1.395 . S
C266 C269 1.403 . S
C267 C264 1.403 . S
C267 C268 1.524 . S
C267 C271 1.400 . S
C268 H253 0.960 . S
C268 H254 0.960 . S
C268 H255 0.960 . S
C268 C267 1.524 . S
C269 C266 1.403 . S
C269 C270 1.392 . S
C269 C273 1.495 . S
C270 C269 1.392 . S
C270 C271 1.385 . S
C270 C272 1.478 . S
C271 H265 0.930 . S
C271 C267 1.400 . S
C271 C270 1.385 . S
C272 C270 1.478 . S
C272 C274 1.381 1_554 S
C272 C278 1.383 . S
C273 C269 1.495 . S
C273 H279 0.959 . S
C273 H280 0.961 . S
C273 H281 0.960 . S
C274 C272 1.381 1_556 S
C274 C275 1.394 . S
C274 H282 0.930 . S
C275 C274 1.394 . S
C275 C276 1.383 1_556 S
C275 H283 0.929 . S
C276 C275 1.383 1_554 S
C276 C277 1.377 . S
C277 H261 0.930 . S
C277 C276 1.377 . S
C277 C278 1.379 . S
C278 H262 0.931 . S
C278 C272 1.383 . S
C278 C277 1.379 . S
H279 C273 0.959 . S
H280 C273 0.961 . S
H281 C273 0.960 . S
H282 C274 0.930 . S
H283 C275 0.929 . S
H284 C292 0.929 . S
H285 C294 0.930 . S
H286 C296 0.930 . S
H287 C299 0.929 . S
H288 C302 0.930 . S
H289 C304 0.960 . S
H290 C304 0.960 . S
H291 C304 0.960 . S
C292 H284 0.929 . S
C292 C293 1.377 . S
C292 C294 1.384 . S
C293 C292 1.377 . S
C293 C299 1.390 . S
C294 H285 0.930 . S
C294 C292 1.384 . S
C294 C295 1.372 . S
C295 C294 1.372 . S
C295 C296 1.400 . S
C295 C300 1.490 . S
C296 H286 0.930 . S
C296 C295 1.400 . S
C296 C299 1.386 . S
H297 C313 0.930 . S
H298 C314 0.931 . S
C299 H287 0.929 . S
C299 C293 1.390 . S
C299 C296 1.386 . S
C300 C295 1.490 . S
C300 C302 1.395 . S
C300 C303 1.403 . S
H301 C307 0.930 . S
C302 H288 0.930 . S
C302 C300 1.395 . S
C302 C305 1.403 . S
C303 C300 1.403 . S
C303 C304 1.524 . S
C303 C307 1.400 . S
C304 H289 0.960 . S
C304 H290 0.960 . S
C304 H291 0.960 . S
C304 C303 1.524 . S
C305 C302 1.403 . S
C305 C306 1.392 . S
C305 C309 1.495 . S
C306 C305 1.392 . S
C306 C307 1.385 . S
C306 C308 1.478 . S
C307 H301 0.930 . S
C307 C303 1.400 . S
C307 C306 1.385 . S
C308 C306 1.478 . S
C308 C310 1.381 . S
C308 C314 1.383 . S
C309 C305 1.495 . S
C309 H315 0.959 . S
C309 H316 0.961 . S
C309 H317 0.960 . S
C310 C308 1.381 . S
C310 C311 1.394 . S
C310 H318 0.930 . S
C311 C310 1.394 . S
C311 C312 1.383 . S
C311 H319 0.929 . S
C312 C311 1.383 . S
C312 C313 1.377 . S
C313 H297 0.930 . S
C313 C312 1.377 . S
C313 C314 1.379 . S
C314 H298 0.931 . S
C314 C308 1.383 . S
C314 C313 1.379 . S
H315 C309 0.959 . S
H316 C309 0.961 . S
H317 C309 0.960 . S
H318 C310 0.930 . S
H319 C311 0.929 . S
H320 C328 0.929 1_556 S
H321 C330 0.930 1_556 S
H322 C332 0.930 . S
H323 C335 0.929 . S
H324 C338 0.930 . S
H325 C340 0.960 . S
H326 C340 0.960 1_556 S
H327 C340 0.960 . S
C328 H320 0.929 1_554 S
C328 C329 1.377 . S
C328 C330 1.384 . S
C329 C328 1.377 . S
C329 C335 1.390 . S
C330 H321 0.930 1_554 S
C330 C328 1.384 . S
C330 C331 1.372 . S
C331 C330 1.372 . S
C331 C332 1.400 . S
C331 C336 1.490 . S
C332 H322 0.930 . S
C332 C331 1.400 . S
C332 C335 1.386 . S
H333 C349 0.930 . S
H334 C350 0.931 . S
C335 H323 0.929 . S
C335 C329 1.390 . S
C335 C332 1.386 . S
C336 C331 1.490 . S
C336 C338 1.395 . S
C336 C339 1.403 . S
H337 C343 0.930 . S
C338 H324 0.930 . S
C338 C336 1.395 . S
C338 C341 1.403 . S
C339 C336 1.403 . S
C339 C340 1.524 . S
C339 C343 1.400 . S
C340 H325 0.960 . S
C340 H326 0.960 1_554 S
C340 H327 0.960 . S
C340 C339 1.524 . S
C341 C338 1.403 . S
C341 C342 1.392 . S
C341 C345 1.495 . S
C342 C341 1.392 . S
C342 C343 1.385 . S
C342 C344 1.478 . S
C343 H337 0.930 . S
C343 C339 1.400 . S
C343 C342 1.385 . S
C344 C342 1.478 . S
C344 C346 1.381 1_554 S
C344 C350 1.383 . S
C345 C341 1.495 . S
C345 H351 0.959 . S
C345 H352 0.961 . S
C345 H353 0.960 . S
C346 C344 1.381 1_556 S
C346 C347 1.394 . S
C346 H354 0.930 . S
C347 C346 1.394 . S
C347 C348 1.383 1_556 S
C347 H355 0.929 . S
C348 C347 1.383 1_554 S
C348 C349 1.377 . S
C349 H333 0.930 . S
C349 C348 1.377 . S
C349 C350 1.379 . S
C350 H334 0.931 . S
C350 C344 1.383 . S
C350 C349 1.379 . S
H351 C345 0.959 . S
H352 C345 0.961 . S
H353 C345 0.960 . S
H354 C346 0.930 . S
H355 C347 0.929 . S
H356 C364 0.929 . S
H357 C366 0.930 . S
H358 C368 0.930 . S
H359 C371 0.929 . S
H360 C374 0.930 . S
H361 C376 0.960 . S
H362 C376 0.960 . S
H363 C376 0.960 . S
C364 H356 0.929 . S
C364 C365 1.377 . S
C364 C366 1.384 . S
C365 C364 1.377 . S
C365 C371 1.390 . S
C366 H357 0.930 . S
C366 C364 1.384 . S
C366 C367 1.372 . S
C367 C366 1.372 . S
C367 C368 1.400 . S
C367 C372 1.490 . S
C368 H358 0.930 . S
C368 C367 1.400 . S
C368 C371 1.386 . S
H369 C385 0.930 . S
H370 C386 0.931 . S
C371 H359 0.929 . S
C371 C365 1.390 . S
C371 C368 1.386 . S
C372 C367 1.490 . S
C372 C374 1.395 . S
C372 C375 1.403 . S
H373 C379 0.930 . S
C374 H360 0.930 . S
C374 C372 1.395 . S
C374 C377 1.403 . S
C375 C372 1.403 . S
C375 C376 1.524 . S
C375 C379 1.400 . S
C376 H361 0.960 . S
C376 H362 0.960 . S
C376 H363 0.960 . S
C376 C375 1.524 . S
C377 C374 1.403 . S
C377 C378 1.392 . S
C377 C381 1.495 . S
C378 C377 1.392 . S
C378 C379 1.385 . S
C378 C380 1.478 . S
C379 H373 0.930 . S
C379 C375 1.400 . S
C379 C378 1.385 . S
C380 C378 1.478 . S
C380 C382 1.381 . S
C380 C386 1.383 . S
C381 C377 1.495 . S
C381 H387 0.959 . S
C381 H388 0.961 . S
C381 H389 0.960 . S
C382 C380 1.381 . S
C382 C383 1.394 . S
C382 H390 0.930 . S
C383 C382 1.394 . S
C383 C384 1.383 . S
C383 H391 0.929 . S
C384 C383 1.383 . S
C384 C385 1.377 . S
C385 H369 0.930 . S
C385 C384 1.377 . S
C385 C386 1.379 . S
C386 H370 0.931 . S
C386 C380 1.383 . S
C386 C385 1.379 . S
H387 C381 0.959 . S
H388 C381 0.961 . S
H389 C381 0.960 . S
H390 C382 0.930 . S
H391 C383 0.929 . S
H392 C400 0.929 . S
H393 C402 0.930 . S
H394 C404 0.930 . S
H395 C407 0.929 . S
H396 C410 0.930 . S
H397 C412 0.960 . S
H398 C412 0.960 . S
H399 C412 0.960 . S
C400 H392 0.929 . S
C400 C401 1.377 . S
C400 C402 1.384 . S
C401 C400 1.377 . S
C401 C407 1.390 . S
C402 H393 0.930 . S
C402 C400 1.384 . S
C402 C403 1.372 . S
C403 C402 1.372 . S
C403 C404 1.400 . S
C403 C408 1.490 . S
C404 H394 0.930 . S
C404 C403 1.400 . S
C404 C407 1.386 . S
H405 C421 0.930 . S
H406 C422 0.931 . S
C407 H395 0.929 . S
C407 C401 1.390 . S
C407 C404 1.386 . S
C408 C403 1.490 . S
C408 C410 1.395 . S
C408 C411 1.403 . S
H409 C415 0.930 . S
C410 H396 0.930 . S
C410 C408 1.395 . S
C410 C413 1.403 . S
C411 C408 1.403 . S
C411 C412 1.524 . S
C411 C415 1.400 . S
C412 H397 0.960 . S
C412 H398 0.960 . S
C412 H399 0.960 . S
C412 C411 1.524 . S
C413 C410 1.403 . S
C413 C414 1.392 . S
C413 C417 1.495 . S
C414 C413 1.392 . S
C414 C415 1.385 . S
C414 C416 1.478 . S
C415 H409 0.930 . S
C415 C411 1.400 . S
C415 C414 1.385 . S
C416 C414 1.478 . S
C416 C418 1.381 . S
C416 C422 1.383 . S
C417 C413 1.495 . S
C417 H423 0.959 . S
C417 H424 0.961 . S
C417 H425 0.960 . S
C418 C416 1.381 . S
C418 C419 1.394 . S
C418 H426 0.930 . S
C419 C418 1.394 . S
C419 C420 1.383 . S
C419 H427 0.929 . S
C420 C419 1.383 . S
C420 C421 1.377 . S
C421 H405 0.930 . S
C421 C420 1.377 . S
C421 C422 1.379 . S
C422 H406 0.931 . S
C422 C416 1.383 . S
C422 C421 1.379 . S
H423 C417 0.959 . S
H424 C417 0.961 . S
H425 C417 0.960 . S
H426 C418 0.930 . S
H427 C419 0.929 . S
H428 C436 0.929 . S
H429 C438 0.930 . S
H430 C440 0.930 . S
H431 C443 0.929 . S
H432 C446 0.930 . S
H433 C448 0.960 . S
H434 C448 0.960 . S
H435 C448 0.960 . S
C436 H428 0.929 . S
C436 C437 1.377 . S
C436 C438 1.384 . S
C437 C436 1.377 . S
C437 C443 1.390 . S
C438 H429 0.930 . S
C438 C436 1.384 . S
C438 C439 1.372 . S
C439 C438 1.372 . S
C439 C440 1.400 . S
C439 C444 1.490 . S
C440 H430 0.930 . S
C440 C439 1.400 . S
C440 C443 1.386 . S
H441 C457 0.930 . S
H442 C458 0.931 . S
C443 H431 0.929 . S
C443 C437 1.390 . S
C443 C440 1.386 . S
C444 C439 1.490 . S
C444 C446 1.395 . S
C444 C447 1.403 . S
H445 C451 0.930 . S
C446 H432 0.930 . S
C446 C444 1.395 . S
C446 C449 1.403 . S
C447 C444 1.403 . S
C447 C448 1.524 . S
C447 C451 1.400 . S
C448 H433 0.960 . S
C448 H434 0.960 . S
C448 H435 0.960 . S
C448 C447 1.524 . S
C449 C446 1.403 . S
C449 C450 1.392 . S
C449 C453 1.495 . S
C450 C449 1.392 . S
C450 C451 1.385 . S
C450 C452 1.478 . S
C451 H445 0.930 . S
C451 C447 1.400 . S
C451 C450 1.385 . S
C452 C450 1.478 . S
C452 C454 1.381 . S
C452 C458 1.383 . S
C453 C449 1.495 . S
C453 H459 0.959 . S
C453 H460 0.961 . S
C453 H461 0.973 . S
C454 C452 1.381 . S
C454 C455 1.394 . S
C454 H462 0.930 . S
C455 C454 1.394 . S
C455 C456 1.383 . S
C455 H463 0.929 . S
C456 C455 1.383 . S
C456 C457 1.377 . S
C457 H441 0.930 . S
C457 C456 1.377 . S
C457 C458 1.379 . S
C458 H442 0.931 . S
C458 C452 1.383 . S
C458 C457 1.379 . S
H459 C453 0.959 . S
H460 C453 0.961 . S
H461 C453 0.973 . S
H462 C454 0.930 . S
H463 C455 0.929 . S
H464 C472 0.929 . S
H465 C474 0.930 . S
H466 C476 0.930 . S
H467 C479 0.929 . S
H468 C482 0.930 . S
H469 C484 0.960 . S
H470 C484 0.960 . S
H471 C484 0.960 . S
C472 H464 0.929 . S
C472 C473 1.377 . S
C472 C474 1.384 . S
C473 C472 1.377 . S
C473 C479 1.390 . S
C474 H465 0.930 . S
C474 C472 1.384 . S
C474 C475 1.372 . S
C475 C474 1.372 . S
C475 C476 1.400 . S
C475 C480 1.490 . S
C476 H466 0.930 . S
C476 C475 1.400 . S
C476 C479 1.386 . S
H477 C493 0.930 . S
H478 C494 0.931 . S
C479 H467 0.929 . S
C479 C473 1.390 . S
C479 C476 1.386 . S
C480 C475 1.490 . S
C480 C482 1.395 . S
C480 C483 1.403 . S
H481 C487 0.930 . S
C482 H468 0.930 . S
C482 C480 1.395 . S
C482 C485 1.403 . S
C483 C480 1.403 . S
C483 C484 1.524 . S
C483 C487 1.400 . S
C484 H469 0.960 . S
C484 H470 0.960 . S
C484 H471 0.960 . S
C484 C483 1.524 . S
C485 C482 1.403 . S
C485 C486 1.392 . S
C485 C489 1.495 . S
C486 C485 1.392 . S
C486 C487 1.385 . S
C486 C488 1.478 . S
C487 H481 0.930 . S
C487 C483 1.400 . S
C487 C486 1.385 . S
C488 C486 1.478 . S
C488 C490 1.381 . S
C488 C494 1.383 . S
C489 C485 1.495 . S
C489 H495 0.959 . S
C489 H496 0.961 . S
C489 H497 0.960 . S
C490 C488 1.381 . S
C490 C491 1.394 . S
C490 H498 0.930 . S
C491 C490 1.394 . S
C491 C492 1.383 . S
C491 H499 0.929 . S
C492 C491 1.383 . S
C492 C493 1.377 . S
C493 H477 0.930 . S
C493 C492 1.377 . S
C493 C494 1.379 . S
C494 H478 0.931 . S
C494 C488 1.383 . S
C494 C493 1.379 . S
H495 C489 0.959 . S
H496 C489 0.961 . S
H497 C489 0.960 . S
H498 C490 0.930 . S
H499 C491 0.929 . S
H500 C508 0.929 . S
H501 C510 0.930 . S
H502 C512 0.930 . S
H503 C515 0.929 . S
H504 C518 0.930 . S
H505 C520 0.960 . S
H506 C520 0.960 . S
H507 C520 0.960 . S
C508 H500 0.929 . S
C508 C509 1.377 . S
C508 C510 1.384 . S
C509 C508 1.377 . S
C509 C515 1.390 . S
C510 H501 0.930 . S
C510 C508 1.384 . S
C510 C511 1.372 . S
C511 C510 1.372 . S
C511 C512 1.400 . S
C511 C516 1.490 . S
C512 H502 0.930 . S
C512 C511 1.400 . S
C512 C515 1.386 . S
H513 C529 0.930 . S
H514 C530 0.931 . S
C515 H503 0.929 . S
C515 C509 1.390 . S
C515 C512 1.386 . S
C516 C511 1.490 . S
C516 C518 1.395 . S
C516 C519 1.403 . S
H517 C523 0.930 . S
C518 H504 0.930 . S
C518 C516 1.395 . S
C518 C521 1.403 . S
C519 C516 1.403 . S
C519 C520 1.524 . S
C519 C523 1.400 . S
C520 H505 0.960 . S
C520 H506 0.960 . S
C520 H507 0.960 . S
C520 C519 1.524 . S
C521 C518 1.403 . S
C521 C522 1.392 . S
C521 C525 1.495 . S
C522 C521 1.392 . S
C522 C523 1.385 . S
C522 C524 1.478 . S
C523 H517 0.930 . S
C523 C519 1.400 . S
C523 C522 1.385 . S
C524 C522 1.478 . S
C524 C526 1.381 . S
C524 C530 1.383 . S
C525 C521 1.495 . S
C525 H531 0.959 . S
C525 H532 0.961 . S
C525 H533 0.960 . S
C526 C524 1.381 . S
C526 C527 1.394 . S
C526 H534 0.930 . S
C527 C526 1.394 . S
C527 C528 1.383 . S
C527 H535 0.929 . S
C528 C527 1.383 . S
C528 C529 1.377 . S
C529 H513 0.930 . S
C529 C528 1.377 . S
C529 C530 1.379 . S
C530 H514 0.931 . S
C530 C524 1.383 . S
C530 C529 1.379 . S
H531 C525 0.959 . S
H532 C525 0.961 . S
H533 C525 0.960 . S
H534 C526 0.930 . S
H535 C527 0.929 . S
H536 C544 0.929 . S
H537 C546 0.930 . S
H538 C548 0.930 . S
H539 C551 0.929 . S
H540 C554 0.930 . S
H541 C556 0.960 . S
H542 C556 0.960 . S
H543 C556 0.960 . S
C544 H536 0.929 . S
C544 C545 1.377 . S
C544 C546 1.384 . S
C545 C544 1.377 . S
C545 C551 1.390 . S
C546 H537 0.930 . S
C546 C544 1.384 . S
C546 C547 1.372 . S
C547 C546 1.372 . S
C547 C548 1.400 . S
C547 C552 1.490 . S
C548 H538 0.930 . S
C548 C547 1.400 . S
C548 C551 1.386 . S
H549 C565 0.930 . S
H550 C566 0.931 . S
C551 H539 0.929 . S
C551 C545 1.390 . S
C551 C548 1.386 . S
C552 C547 1.490 . S
C552 C554 1.395 . S
C552 C555 1.403 . S
H553 C559 0.930 . S
C554 H540 0.930 . S
C554 C552 1.395 . S
C554 C557 1.403 . S
C555 C552 1.403 . S
C555 C556 1.524 . S
C555 C559 1.400 . S
C556 H541 0.960 . S
C556 H542 0.960 . S
C556 H543 0.960 . S
C556 C555 1.524 . S
C557 C554 1.403 . S
C557 C558 1.392 . S
C557 C561 1.495 . S
C558 C557 1.392 . S
C558 C559 1.385 . S
C558 C560 1.478 . S
C559 H553 0.930 . S
C559 C555 1.400 . S
C559 C558 1.385 . S
C560 C558 1.478 . S
C560 C562 1.381 . S
C560 C566 1.383 . S
C561 C557 1.495 . S
C561 H567 0.959 . S
C561 H568 0.961 . S
C561 H569 0.960 . S
C562 C560 1.381 . S
C562 C563 1.394 . S
C562 H570 0.930 . S
C563 C562 1.394 . S
C563 C564 1.383 . S
C563 H571 0.929 . S
C564 C563 1.383 . S
C564 C565 1.377 . S
C565 H549 0.930 . S
C565 C564 1.377 . S
C565 C566 1.379 . S
C566 H550 0.931 . S
C566 C560 1.383 . S
C566 C565 1.379 . S
H567 C561 0.959 . S
H568 C561 0.961 . S
H569 C561 0.960 . S
H570 C562 0.930 . S
H571 C563 0.929 . S
H572 C580 0.929 . S
H573 C582 0.930 . S
H574 C584 0.930 . S
H575 C587 0.929 . S
H576 C590 0.930 . S
H577 C592 0.960 . S
H578 C592 0.960 . S
H579 C592 0.960 . S
C580 H572 0.929 . S
C580 C581 1.377 . S
C580 C582 1.384 . S
C581 C580 1.377 . S
C581 C587 1.390 . S
C582 H573 0.930 . S
C582 C580 1.384 . S
C582 C583 1.372 . S
C583 C582 1.372 . S
C583 C584 1.400 . S
C583 C588 1.490 . S
C584 H574 0.930 . S
C584 C583 1.400 . S
C584 C587 1.386 . S
H585 C601 0.930 . S
H586 C602 0.931 . S
C587 H575 0.929 . S
C587 C581 1.390 . S
C587 C584 1.386 . S
C588 C583 1.490 . S
C588 C590 1.395 . S
C588 C591 1.403 . S
H589 C595 0.930 . S
C590 H576 0.930 . S
C590 C588 1.395 . S
C590 C593 1.403 . S
C591 C588 1.403 . S
C591 C592 1.524 . S
C591 C595 1.400 . S
C592 H577 0.960 . S
C592 H578 0.960 . S
C592 H579 0.960 . S
C592 C591 1.524 . S
C593 C590 1.403 . S
C593 C594 1.392 . S
C593 C597 1.495 . S
C594 C593 1.392 . S
C594 C595 1.385 . S
C594 C596 1.478 . S
C595 H589 0.930 . S
C595 C591 1.400 . S
C595 C594 1.385 . S
C596 C594 1.478 . S
C596 C598 1.381 . S
C596 C602 1.383 . S
C597 C593 1.495 . S
C597 H603 0.959 . S
C597 H604 0.961 . S
C597 H605 0.960 . S
C598 C596 1.381 . S
C598 C599 1.394 . S
C598 H606 0.930 . S
C599 C598 1.394 . S
C599 C600 1.383 . S
C599 H607 0.929 . S
C600 C599 1.383 . S
C600 C601 1.377 . S
C601 H585 0.930 . S
C601 C600 1.377 . S
C601 C602 1.379 . S
C602 H586 0.931 . S
C602 C596 1.383 . S
C602 C601 1.379 . S
H603 C597 0.959 . S
H604 C597 0.961 . S
H605 C597 0.960 . S
H606 C598 0.930 . S
H607 C599 0.929 . S
H608 C616 0.929 . S
H609 C618 0.930 . S
H610 C620 0.930 . S
H611 C623 0.929 . S
H612 C626 0.930 . S
H613 C628 0.960 . S
H614 C628 0.960 . S
H615 C628 0.960 . S
C616 H608 0.929 . S
C616 C617 1.377 . S
C616 C618 1.384 . S
C617 C616 1.377 . S
C617 C623 1.390 . S
C618 H609 0.930 . S
C618 C616 1.384 . S
C618 C619 1.372 . S
C619 C618 1.372 . S
C619 C620 1.400 . S
C619 C624 1.490 . S
C620 H610 0.930 . S
C620 C619 1.400 . S
C620 C623 1.386 . S
H621 C637 0.930 . S
H622 C638 0.931 . S
C623 H611 0.929 . S
C623 C617 1.390 . S
C623 C620 1.386 . S
C624 C619 1.490 . S
C624 C626 1.395 . S
C624 C627 1.403 . S
H625 C631 0.930 . S
C626 H612 0.930 . S
C626 C624 1.395 . S
C626 C629 1.403 . S
C627 C624 1.403 . S
C627 C628 1.524 . S
C627 C631 1.400 . S
C628 H613 0.960 . S
C628 H614 0.960 . S
C628 H615 0.960 . S
C628 C627 1.524 . S
C629 C626 1.403 . S
C629 C630 1.392 . S
C629 C633 1.495 . S
C630 C629 1.392 . S
C630 C631 1.385 . S
C630 C632 1.478 . S
C631 H625 0.930 . S
C631 C627 1.400 . S
C631 C630 1.385 . S
C632 C630 1.478 . S
C632 C634 1.381 . S
C632 C638 1.383 . S
C633 C629 1.495 . S
C633 H639 0.959 . S
C633 H640 0.961 . S
C633 H641 0.960 . S
C634 C632 1.381 . S
C634 C635 1.394 . S
C634 H642 0.930 . S
C635 C634 1.394 . S
C635 C636 1.383 . S
C635 H643 0.913 1_565 S
C636 C635 1.383 . S
C636 C637 1.377 . S
C637 H621 0.930 . S
C637 C636 1.377 . S
C637 C638 1.379 . S
C638 H622 0.931 . S
C638 C632 1.383 . S
C638 C637 1.379 . S
H639 C633 0.959 . S
H640 C633 0.961 . S
H641 C633 0.960 . S
H642 C634 0.930 . S
H643 C635 0.913 1_545 S
C240 C107 1.657 . S
C221 C41 1.650 . S
C257 C8 1.665 . S
C276 C202 1.655 . S
C293 C19 1.742 . S
C312 C118 1.747 . S
C329 C30 1.632 . S
C348 C191 1.632 . S
C384 C102 1.482 . S
C365 C5 1.519 . S
C420 C195 1.805 . S
C401 C18 1.762 . S
C437 C29 1.628 . S
C456 C111 1.720 . S
C473 C40 1.611 . S
C492 C186 1.564 . S
C528 C197 1.410 . S
C509 C16 1.315 . S
C564 C113 1.335 . S
C545 C27 1.299 . S
C600 C184 1.545 . S
C581 C38 1.298 . S
C617 C7 1.472 . S
C636 C100 1.503 . S
