# Generated by pormake.
# Topology iac, (4,6)-cn, num edge types: 1
# Building blocks:
#     Node 0, Type 0, BuildingBlock: KUFVIS_clean_sbu_0, # of connection points: 4
#     Node 1, Type 0, BuildingBlock: KUFVIS_clean_sbu_0, # of connection points: 4
#     Node 2, Type 0, BuildingBlock: KUFVIS_clean_sbu_0, # of connection points: 4
#     Node 3, Type 0, BuildingBlock: KUFVIS_clean_sbu_0, # of connection points: 4
#     Node 4, Type 0, BuildingBlock: KUFVIS_clean_sbu_0, # of connection points: 4
#     Node 5, Type 0, BuildingBlock: KUFVIS_clean_sbu_0, # of connection points: 4
#     Node 6, Type 0, BuildingBlock: KUFVIS_clean_sbu_0, # of connection points: 4
#     Node 7, Type 0, BuildingBlock: KUFVIS_clean_sbu_0, # of connection points: 4
#     Node 8, Type 0, BuildingBlock: KUFVIS_clean_sbu_0, # of connection points: 4
#     Node 9, Type 0, BuildingBlock: KUFVIS_clean_sbu_0, # of connection points: 4
#     Node 10, Type 0, BuildingBlock: KUFVIS_clean_sbu_0, # of connection points: 4
#     Node 11, Type 0, BuildingBlock: KUFVIS_clean_sbu_0, # of connection points: 4
#     Node 12, Type 0, BuildingBlock: KUFVIS_clean_sbu_0, # of connection points: 4
#     Node 13, Type 0, BuildingBlock: KUFVIS_clean_sbu_0, # of connection points: 4
#     Node 14, Type 0, BuildingBlock: KUFVIS_clean_sbu_0, # of connection points: 4
#     Node 15, Type 0, BuildingBlock: KUFVIS_clean_sbu_0, # of connection points: 4
#     Node 16, Type 0, BuildingBlock: KUFVIS_clean_sbu_0, # of connection points: 4
#     Node 17, Type 0, BuildingBlock: KUFVIS_clean_sbu_0, # of connection points: 4
#     Node 18, Type 0, BuildingBlock: KUFVIS_clean_sbu_0, # of connection points: 4
#     Node 19, Type 0, BuildingBlock: KUFVIS_clean_sbu_0, # of connection points: 4
#     Node 20, Type 0, BuildingBlock: KUFVIS_clean_sbu_0, # of connection points: 4
#     Node 21, Type 0, BuildingBlock: KUFVIS_clean_sbu_0, # of connection points: 4
#     Node 22, Type 0, BuildingBlock: KUFVIS_clean_sbu_0, # of connection points: 4
#     Node 23, Type 0, BuildingBlock: KUFVIS_clean_sbu_0, # of connection points: 4
#     Node 24, Type 1, BuildingBlock: FUNLAD_clean_sbu_0, # of connection points: 6
#     Node 25, Type 1, BuildingBlock: FUNLAD_clean_sbu_0, # of connection points: 6
#     Node 26, Type 1, BuildingBlock: FUNLAD_clean_sbu_0, # of connection points: 6
#     Node 27, Type 1, BuildingBlock: FUNLAD_clean_sbu_0, # of connection points: 6
#     Node 28, Type 1, BuildingBlock: FUNLAD_clean_sbu_0, # of connection points: 6
#     Node 29, Type 1, BuildingBlock: FUNLAD_clean_sbu_0, # of connection points: 6
#     Node 30, Type 1, BuildingBlock: FUNLAD_clean_sbu_0, # of connection points: 6
#     Node 31, Type 1, BuildingBlock: FUNLAD_clean_sbu_0, # of connection points: 6
#     Node 32, Type 1, BuildingBlock: FUNLAD_clean_sbu_0, # of connection points: 6
#     Node 33, Type 1, BuildingBlock: FUNLAD_clean_sbu_0, # of connection points: 6
#     Node 34, Type 1, BuildingBlock: FUNLAD_clean_sbu_0, # of connection points: 6
#     Node 35, Type 1, BuildingBlock: FUNLAD_clean_sbu_0, # of connection points: 6
#     Node 36, Type 1, BuildingBlock: FUNLAD_clean_sbu_0, # of connection points: 6
#     Node 37, Type 1, BuildingBlock: FUNLAD_clean_sbu_0, # of connection points: 6
#     Node 38, Type 1, BuildingBlock: FUNLAD_clean_sbu_0, # of connection points: 6
#     Node 39, Type 1, BuildingBlock: FUNLAD_clean_sbu_0, # of connection points: 6
#     Edge 40, Type (0, 1), BuildingBlock: OJICUG_clean_linker_0, # of connection points: 2
#     Edge 41, Type (0, 1), BuildingBlock: OJICUG_clean_linker_0, # of connection points: 2
#     Edge 42, Type (0, 1), BuildingBlock: OJICUG_clean_linker_0, # of connection points: 2
#     Edge 43, Type (0, 1), BuildingBlock: OJICUG_clean_linker_0, # of connection points: 2
#     Edge 44, Type (0, 1), BuildingBlock: OJICUG_clean_linker_0, # of connection points: 2
#     Edge 45, Type (0, 1), BuildingBlock: OJICUG_clean_linker_0, # of connection points: 2
#     Edge 46, Type (0, 1), BuildingBlock: OJICUG_clean_linker_0, # of connection points: 2
#     Edge 47, Type (0, 1), BuildingBlock: OJICUG_clean_linker_0, # of connection points: 2
#     Edge 48, Type (0, 1), BuildingBlock: OJICUG_clean_linker_0, # of connection points: 2
#     Edge 49, Type (0, 1), BuildingBlock: OJICUG_clean_linker_0, # of connection points: 2
#     Edge 50, Type (0, 1), BuildingBlock: OJICUG_clean_linker_0, # of connection points: 2
#     Edge 51, Type (0, 1), BuildingBlock: OJICUG_clean_linker_0, # of connection points: 2
#     Edge 52, Type (0, 1), BuildingBlock: OJICUG_clean_linker_0, # of connection points: 2
#     Edge 53, Type (0, 1), BuildingBlock: OJICUG_clean_linker_0, # of connection points: 2
#     Edge 54, Type (0, 1), BuildingBlock: OJICUG_clean_linker_0, # of connection points: 2
#     Edge 55, Type (0, 1), BuildingBlock: OJICUG_clean_linker_0, # of connection points: 2
#     Edge 56, Type (0, 1), BuildingBlock: OJICUG_clean_linker_0, # of connection points: 2
#     Edge 57, Type (0, 1), BuildingBlock: OJICUG_clean_linker_0, # of connection points: 2
#     Edge 58, Type (0, 1), BuildingBlock: OJICUG_clean_linker_0, # of connection points: 2
#     Edge 59, Type (0, 1), BuildingBlock: OJICUG_clean_linker_0, # of connection points: 2
#     Edge 60, Type (0, 1), BuildingBlock: OJICUG_clean_linker_0, # of connection points: 2
#     Edge 61, Type (0, 1), BuildingBlock: OJICUG_clean_linker_0, # of connection points: 2
#     Edge 62, Type (0, 1), BuildingBlock: OJICUG_clean_linker_0, # of connection points: 2
#     Edge 63, Type (0, 1), BuildingBlock: OJICUG_clean_linker_0, # of connection points: 2
#     Edge 64, Type (0, 1), BuildingBlock: OJICUG_clean_linker_0, # of connection points: 2
#     Edge 65, Type (0, 1), BuildingBlock: OJICUG_clean_linker_0, # of connection points: 2
#     Edge 66, Type (0, 1), BuildingBlock: OJICUG_clean_linker_0, # of connection points: 2
#     Edge 67, Type (0, 1), BuildingBlock: OJICUG_clean_linker_0, # of connection points: 2
#     Edge 68, Type (0, 1), BuildingBlock: OJICUG_clean_linker_0, # of connection points: 2
#     Edge 69, Type (0, 1), BuildingBlock: OJICUG_clean_linker_0, # of connection points: 2
#     Edge 70, Type (0, 1), BuildingBlock: OJICUG_clean_linker_0, # of connection points: 2
#     Edge 71, Type (0, 1), BuildingBlock: OJICUG_clean_linker_0, # of connection points: 2
#     Edge 72, Type (0, 1), BuildingBlock: OJICUG_clean_linker_0, # of connection points: 2
#     Edge 73, Type (0, 1), BuildingBlock: OJICUG_clean_linker_0, # of connection points: 2
#     Edge 74, Type (0, 1), BuildingBlock: OJICUG_clean_linker_0, # of connection points: 2
#     Edge 75, Type (0, 1), BuildingBlock: OJICUG_clean_linker_0, # of connection points: 2
#     Edge 76, Type (0, 1), BuildingBlock: OJICUG_clean_linker_0, # of connection points: 2
#     Edge 77, Type (0, 1), BuildingBlock: OJICUG_clean_linker_0, # of connection points: 2
#     Edge 78, Type (0, 1), BuildingBlock: OJICUG_clean_linker_0, # of connection points: 2
#     Edge 79, Type (0, 1), BuildingBlock: OJICUG_clean_linker_0, # of connection points: 2
#     Edge 80, Type (0, 1), BuildingBlock: OJICUG_clean_linker_0, # of connection points: 2
#     Edge 81, Type (0, 1), BuildingBlock: OJICUG_clean_linker_0, # of connection points: 2
#     Edge 82, Type (0, 1), BuildingBlock: OJICUG_clean_linker_0, # of connection points: 2
#     Edge 83, Type (0, 1), BuildingBlock: OJICUG_clean_linker_0, # of connection points: 2
#     Edge 84, Type (0, 1), BuildingBlock: OJICUG_clean_linker_0, # of connection points: 2
#     Edge 85, Type (0, 1), BuildingBlock: OJICUG_clean_linker_0, # of connection points: 2
#     Edge 86, Type (0, 1), BuildingBlock: OJICUG_clean_linker_0, # of connection points: 2
#     Edge 87, Type (0, 1), BuildingBlock: OJICUG_clean_linker_0, # of connection points: 2
#     Edge 88, Type (0, 1), BuildingBlock: OJICUG_clean_linker_0, # of connection points: 2
#     Edge 89, Type (0, 1), BuildingBlock: OJICUG_clean_linker_0, # of connection points: 2
#     Edge 90, Type (0, 1), BuildingBlock: OJICUG_clean_linker_0, # of connection points: 2
#     Edge 91, Type (0, 1), BuildingBlock: OJICUG_clean_linker_0, # of connection points: 2
#     Edge 92, Type (0, 1), BuildingBlock: OJICUG_clean_linker_0, # of connection points: 2
#     Edge 93, Type (0, 1), BuildingBlock: OJICUG_clean_linker_0, # of connection points: 2
#     Edge 94, Type (0, 1), BuildingBlock: OJICUG_clean_linker_0, # of connection points: 2
#     Edge 95, Type (0, 1), BuildingBlock: OJICUG_clean_linker_0, # of connection points: 2
#     Edge 96, Type (0, 1), BuildingBlock: OJICUG_clean_linker_0, # of connection points: 2
#     Edge 97, Type (0, 1), BuildingBlock: OJICUG_clean_linker_0, # of connection points: 2
#     Edge 98, Type (0, 1), BuildingBlock: OJICUG_clean_linker_0, # of connection points: 2
#     Edge 99, Type (0, 1), BuildingBlock: OJICUG_clean_linker_0, # of connection points: 2
#     Edge 100, Type (0, 1), BuildingBlock: OJICUG_clean_linker_0, # of connection points: 2
#     Edge 101, Type (0, 1), BuildingBlock: OJICUG_clean_linker_0, # of connection points: 2
#     Edge 102, Type (0, 1), BuildingBlock: OJICUG_clean_linker_0, # of connection points: 2
#     Edge 103, Type (0, 1), BuildingBlock: OJICUG_clean_linker_0, # of connection points: 2
#     Edge 104, Type (0, 1), BuildingBlock: OJICUG_clean_linker_0, # of connection points: 2
#     Edge 105, Type (0, 1), BuildingBlock: OJICUG_clean_linker_0, # of connection points: 2
#     Edge 106, Type (0, 1), BuildingBlock: OJICUG_clean_linker_0, # of connection points: 2
#     Edge 107, Type (0, 1), BuildingBlock: OJICUG_clean_linker_0, # of connection points: 2
#     Edge 108, Type (0, 1), BuildingBlock: OJICUG_clean_linker_0, # of connection points: 2
#     Edge 109, Type (0, 1), BuildingBlock: OJICUG_clean_linker_0, # of connection points: 2
#     Edge 110, Type (0, 1), BuildingBlock: OJICUG_clean_linker_0, # of connection points: 2
#     Edge 111, Type (0, 1), BuildingBlock: OJICUG_clean_linker_0, # of connection points: 2
#     Edge 112, Type (0, 1), BuildingBlock: OJICUG_clean_linker_0, # of connection points: 2
#     Edge 113, Type (0, 1), BuildingBlock: OJICUG_clean_linker_0, # of connection points: 2
#     Edge 114, Type (0, 1), BuildingBlock: OJICUG_clean_linker_0, # of connection points: 2
#     Edge 115, Type (0, 1), BuildingBlock: OJICUG_clean_linker_0, # of connection points: 2
#     Edge 116, Type (0, 1), BuildingBlock: OJICUG_clean_linker_0, # of connection points: 2
#     Edge 117, Type (0, 1), BuildingBlock: OJICUG_clean_linker_0, # of connection points: 2
#     Edge 118, Type (0, 1), BuildingBlock: OJICUG_clean_linker_0, # of connection points: 2
#     Edge 119, Type (0, 1), BuildingBlock: OJICUG_clean_linker_0, # of connection points: 2
#     Edge 120, Type (0, 1), BuildingBlock: OJICUG_clean_linker_0, # of connection points: 2
#     Edge 121, Type (0, 1), BuildingBlock: OJICUG_clean_linker_0, # of connection points: 2
#     Edge 122, Type (0, 1), BuildingBlock: OJICUG_clean_linker_0, # of connection points: 2
#     Edge 123, Type (0, 1), BuildingBlock: OJICUG_clean_linker_0, # of connection points: 2
#     Edge 124, Type (0, 1), BuildingBlock: OJICUG_clean_linker_0, # of connection points: 2
#     Edge 125, Type (0, 1), BuildingBlock: OJICUG_clean_linker_0, # of connection points: 2
#     Edge 126, Type (0, 1), BuildingBlock: OJICUG_clean_linker_0, # of connection points: 2
#     Edge 127, Type (0, 1), BuildingBlock: OJICUG_clean_linker_0, # of connection points: 2
#     Edge 128, Type (0, 1), BuildingBlock: OJICUG_clean_linker_0, # of connection points: 2
#     Edge 129, Type (0, 1), BuildingBlock: OJICUG_clean_linker_0, # of connection points: 2
#     Edge 130, Type (0, 1), BuildingBlock: OJICUG_clean_linker_0, # of connection points: 2
#     Edge 131, Type (0, 1), BuildingBlock: OJICUG_clean_linker_0, # of connection points: 2
#     Edge 132, Type (0, 1), BuildingBlock: OJICUG_clean_linker_0, # of connection points: 2
#     Edge 133, Type (0, 1), BuildingBlock: OJICUG_clean_linker_0, # of connection points: 2
#     Edge 134, Type (0, 1), BuildingBlock: OJICUG_clean_linker_0, # of connection points: 2
#     Edge 135, Type (0, 1), BuildingBlock: OJICUG_clean_linker_0, # of connection points: 2
# Relax obj value: 0.369
# Max RMSD: 0.318
# Mean RMSD: 0.135
data_MOF--net-iac--node1-KUFVIS_clean_sbu_0--node2-FUNLAD_clean_sbu_0--edge1-OJICUG_clean_linker_0
_symmetry_space_group_name_H-M    P1
_symmetry_Int_Tables_number       1
_symmetry_cell_setting            triclinic
loop_
_symmetry_equiv_pos_as_xyz
'x, y, z'
_cell_length_a     40.228049
_cell_length_b     37.94674
_cell_length_c     45.468143
_cell_angle_alpha  89.553165
_cell_angle_beta   91.948905
_cell_angle_gamma 90.165823
loop_
_atom_site_label
_atom_site_type_symbol
_atom_site_fract_x
_atom_site_fract_y
_atom_site_fract_z
_atom_type_partial_charge
Mn0 Mn 0.04884 0.22824 0.16013 0.0
Mn1 Mn 0.99019 0.21162 0.10831 0.0
C2 C 0.06197 0.18941 0.12414 0.0
C3 C 0.08565 0.26923 0.17973 0.0
C4 C 0.99062 0.18295 0.17071 0.0
O5 O 0.011 0.26231 0.16622 0.0
O6 O 0.98846 0.26145 0.12104 0.0
C7 C 0.01327 0.25826 0.06055 0.0
N8 N 1.0035 0.2258 0.06999 0.0
C9 C 0.00935 0.20149 0.02175 0.0
C10 C 0.01902 0.23477 0.01142 0.0
C11 C 0.02121 0.26322 0.03097 0.0
C12 C 1.00221 0.19805 0.05157 0.0
H13 H 0.01514 0.28018 0.07549 0.0
C14 C 0.99642 0.27789 0.1447 0.0
O15 O 0.07111 0.24617 0.19615 0.0
O16 O 0.07983 0.26775 0.15145 0.0
N17 N 0.98918 0.16465 0.09284 0.0
C18 C 0.97848 0.13438 0.10589 0.0
C19 C 0.97372 0.10378 0.08906 0.0
C20 C 0.97955 0.1046 0.05882 0.0
C21 C 0.98996 0.13606 0.04566 0.0
C22 C 0.9938 0.16588 0.06348 0.0
H23 H 0.97355 0.13343 0.12898 0.0
O24 O 0.08162 0.19306 0.1472 0.0
O25 O 0.03728 0.21128 0.12148 0.0
O26 O 0.021 0.18941 0.17707 0.0
O27 O 0.9754 0.19476 0.14741 0.0
C28 C 0.99655 0.13899 0.01551 0.0
C29 C 1.00657 0.17161 1.00362 0.0
H30 H 0.02496 0.23873 0.98857 0.0
H31 H 0.02891 0.28893 0.02325 0.0
H32 H 0.96555 0.0796 0.09937 0.0
H33 H 0.97602 0.08097 0.04589 0.0
H34 H 0.99412 0.11628 1.0013 0.0
H35 H 0.01185 0.17349 0.98046 0.0
Mn36 Mn 0.06746 0.78918 0.40289 0.0
Mn37 Mn 0.01252 0.78576 0.45819 0.0
C38 C 0.05569 0.84041 0.43031 0.0
C39 C 0.12186 0.78303 0.38287 0.0
C40 C 0.99079 0.78332 0.39297 0.0
O41 O 0.06561 0.73599 0.41419 0.0
O42 O 0.03344 0.73857 0.45402 0.0
C43 C 0.05695 0.77172 0.51028 0.0
N44 N 0.03352 0.79211 0.49616 0.0
C45 C 0.03004 0.83001 0.53818 0.0
C46 C 0.05407 0.80933 0.55316 0.0
C47 C 0.06764 0.78011 0.53911 0.0
C48 C 0.02022 0.82023 0.50953 0.0
H49 H 0.06732 0.7492 0.49966 0.0
C50 C 0.05252 0.7219 0.43691 0.0
O51 O 0.09456 0.77973 0.36723 0.0
O52 O 0.11788 0.78972 0.41055 0.0
N53 N 0.99138 0.83002 0.46499 0.0
C54 C 0.97074 0.8491 0.44662 0.0
C55 C 0.95639 0.88021 0.45679 0.0
C56 C 0.96319 0.89129 0.48578 0.0
C57 C 0.98441 0.8712 0.50432 0.0
C58 C 0.99793 0.84036 0.49299 0.0
H59 H 0.96536 0.84079 0.42432 0.0
O60 O 0.06713 0.84279 0.40395 0.0
O61 O 0.05098 0.80841 0.4396 0.0
O62 O 0.01978 0.7883 0.3829 0.0
O63 O 0.98635 0.77962 0.42052 0.0
C64 C 0.99332 0.88105 0.53335 0.0
C65 C 0.0161 0.86045 0.55028 0.0
H66 H 0.06254 0.81584 0.57533 0.0
H67 H 0.08628 0.76408 0.55048 0.0
H68 H 0.94015 0.89566 0.44231 0.0
H69 H 0.95228 0.91545 0.49347 0.0
H70 H 0.98329 0.90479 0.54269 0.0
H71 H 0.02323 0.86866 0.57238 0.0
Mn72 Mn 0.58276 0.69489 0.66176 0.0
Mn73 Mn 0.51871 0.67669 0.61555 0.0
C74 C 0.58597 0.6456 0.63355 0.0
C75 C 0.62759 0.73209 0.66953 0.0
C76 C 0.51843 0.66744 0.68211 0.0
O77 O 0.55293 0.73743 0.66126 0.0
O78 O 0.52486 0.72845 0.61879 0.0
C79 C 0.54297 0.70512 0.55927 0.0
N80 N 0.53022 0.67794 0.5751 0.0
C81 C 0.52562 0.64143 0.5321 0.0
C82 C 0.53852 0.6691 0.5153 0.0
C83 C 0.54742 0.701 0.52899 0.0
C84 C 0.52207 0.64697 0.56224 0.0
H85 H 0.54962 0.72977 0.56967 0.0
C86 C 0.53738 0.74891 0.63848 0.0
O87 O 0.61181 0.71857 0.69143 0.0
O88 O 0.61861 0.72245 0.64314 0.0
N89 N 0.5108 0.62741 0.60949 0.0
C90 C 0.50156 0.60227 0.62914 0.0
C91 C 0.4918 0.56881 0.61909 0.0
C92 C 0.49178 0.56144 0.58891 0.0
C93 C 0.50217 0.58736 0.56908 0.0
C94 C 0.51124 0.62038 0.58039 0.0
H95 H 0.50219 0.60745 0.65231 0.0
O96 O 0.60708 0.64987 0.65553 0.0
O97 O 0.56538 0.67106 0.62791 0.0
O98 O 0.5496 0.67018 0.68745 0.0
O99 O 0.5044 0.67349 0.65686 0.0
C100 C 0.50456 0.58149 0.53865 0.0
C101 C 0.51654 0.60842 0.52021 0.0
H102 H 0.5419 0.66606 0.49192 0.0
H103 H 0.55752 0.72242 0.51619 0.0
H104 H 0.48445 0.5487 0.63459 0.0
H105 H 0.48429 0.53561 0.58131 0.0
H106 H 0.49792 0.55614 0.52932 0.0
H107 H 0.5189 0.60338 0.49696 0.0
Mn108 Mn 0.5724 0.28604 0.90598 0.0
Mn109 Mn 0.51747 0.28085 0.96143 0.0
C110 C 0.55928 0.33702 0.93378 0.0
C111 C 0.62705 0.28058 0.88548 0.0
C112 C 0.49578 0.27851 0.89623 0.0
O113 O 0.57118 0.23254 0.91681 0.0
O114 O 0.53953 0.23437 0.95699 0.0
C115 C 0.5627 0.26813 0.0132 0.0
N116 N 0.53833 0.28754 0.9994 0.0
C117 C 0.53314 0.32429 0.04192 0.0
C118 C 0.55808 0.30454 0.05662 0.0
C119 C 0.573 0.27642 0.04215 0.0
C120 C 0.52383 0.3147 0.01311 0.0
H121 H 0.57414 0.24649 1.00221 0.0
C122 C 0.55851 0.21808 0.93959 0.0
O123 O 0.59961 0.2772 0.87008 0.0
O124 O 0.62311 0.28717 0.9132 0.0
N125 N 0.49488 0.32418 0.96859 0.0
C126 C 0.47339 0.34255 0.95047 0.0
C127 C 0.45754 0.37258 0.96109 0.0
C128 C 0.4637 0.38326 0.99028 0.0
C129 C 0.48575 0.36386 0.00857 0.0
C130 C 0.50076 0.33409 0.99679 0.0
H131 H 0.46842 0.33447 0.92805 0.0
O132 O 0.57109 0.33977 0.90757 0.0
O133 O 0.55533 0.30481 0.94288 0.0
O134 O 0.52462 0.28452 0.88614 0.0
O135 O 0.49151 0.27422 0.92375 0.0
C136 C 0.49408 0.37342 0.03779 0.0
C137 C 0.51777 0.35366 0.05445 0.0
H138 H 0.56621 0.31097 0.0789 0.0
H139 H 0.59237 0.26115 0.0533 0.0
H140 H 0.44063 0.38748 0.9468 0.0
H141 H 0.45162 0.4066 0.99831 0.0
H142 H 0.48291 0.39634 0.04747 0.0
H143 H 0.52445 0.36169 0.07669 0.0
Mn144 Mn 0.1855 0.04222 0.24781 0.0
Mn145 Mn 0.25302 0.06898 0.28839 0.0
C146 C 0.20022 0.10148 0.2477 0.0
C147 C 0.16293 0.01788 0.2038 0.0
C148 C 0.18619 0.05293 0.31507 0.0
O149 O 0.20985 0.99628 0.25784 0.0
O150 O 0.25619 0.01753 0.28041 0.0
C151 C 0.30332 0.05831 0.24327 0.0
N152 N 0.28838 0.07972 0.26273 0.0
C153 C 0.32433 0.12814 0.25067 0.0
C154 C 0.34028 0.10653 0.23065 0.0
C155 C 0.32961 0.07151 0.22684 0.0
C156 C 0.29812 0.11359 0.26625 0.0
H157 H 0.29517 0.03138 0.2403 0.0
C158 C 0.23872 0.99203 0.26983 0.0
O159 O 0.14771 0.01542 0.22848 0.0
O160 O 0.19132 0.03419 0.20475 0.0
N161 N 0.25439 0.11797 0.29824 0.0
C162 C 0.23626 0.13544 0.31829 0.0
C163 C 0.24389 0.17074 0.32479 0.0
C164 C 0.27038 0.18758 0.31099 0.0
C165 C 0.28912 0.16888 0.29091 0.0
C166 C 0.28052 0.13366 0.28548 0.0
H167 H 0.21612 0.12258 0.32926 0.0
O168 O 0.17058 0.09153 0.23916 0.0
O169 O 0.22086 0.07634 0.25528 0.0
O170 O 0.17015 0.04652 0.29082 0.0
O171 O 0.2174 0.05963 0.31648 0.0
C172 C 0.31579 0.18392 0.27585 0.0
C173 C 0.33324 0.16363 0.2556 0.0
H174 H 0.3606 0.11659 0.21797 0.0
H175 H 0.34167 0.05473 0.21131 0.0
H176 H 0.22941 0.18493 0.34043 0.0
H177 H 0.27607 0.21487 0.3159 0.0
H178 H 0.32284 0.21116 0.27944 0.0
H179 H 0.35345 0.17559 0.2439 0.0
Mn180 Mn 0.31886 0.90304 0.58759 0.0
Mn181 Mn 0.33074 0.98071 0.55094 0.0
C182 C 0.37321 0.92489 0.58139 0.0
C183 C 0.30603 0.86916 0.63019 0.0
C184 C 0.3223 0.911 0.52009 0.0
O185 O 0.27097 0.92366 0.58402 0.0
O186 O 0.28385 0.97372 0.56073 0.0
C187 C 0.31668 0.02533 0.60224 0.0
N188 N 0.33673 0.01666 0.57988 0.0
C189 C 0.37488 0.06358 0.59239 0.0
C190 C 0.3546 0.07313 0.61549 0.0
C191 C 0.32543 0.05384 0.62048 0.0
C192 C 0.36516 0.03457 0.57527 0.0
H193 H 0.29418 0.01064 0.60606 0.0
C194 C 0.26262 0.95314 0.57202 0.0
O195 O 0.30172 0.85714 0.60377 0.0
O196 O 0.31724 0.90128 0.63217 0.0
N197 N 0.37398 0.99367 0.53846 0.0
C198 C 0.38961 0.98243 0.5141 0.0
C199 C 0.41792 1.00041 0.50473 0.0
C200 C 0.42949 0.03015 0.52012 0.0
C201 C 0.41272 0.04175 0.54472 0.0
C202 C 0.38427 0.02314 0.5527 0.0
H203 H 0.38035 0.96015 0.50166 0.0
O204 O 0.36787 0.89248 0.58915 0.0
O205 O 0.34686 0.94504 0.58008 0.0
O206 O 0.31805 0.89235 0.54325 0.0
O207 O 0.32609 0.94446 0.52026 0.0
C208 C 0.42291 0.0712 0.56145 0.0
C209 C 0.40423 0.08184 0.58553 0.0
H210 H 0.36111 0.09528 0.62945 0.0
H211 H 0.30963 0.06117 0.63819 0.0
H212 H 0.43065 0.99152 0.48557 0.0
H213 H 0.45113 0.044 0.51274 0.0
H214 H 0.44509 0.0858 0.55601 0.0
H215 H 0.41238 0.10439 0.59835 0.0
Mn216 Mn 0.42273 0.99948 0.7417 0.0
Mn217 Mn 0.34689 0.99624 0.77309 0.0
C218 C 0.39671 0.9452 0.74992 0.0
C219 C 0.45807 0.00801 0.70177 0.0
C220 C 0.41117 0.99835 0.80857 0.0
O221 O 0.40872 0.05183 0.74051 0.0
O222 O 0.36072 0.04443 0.76319 0.0
C223 C 0.31163 0.01735 0.71747 0.0
N224 N 0.31498 0.99498 0.74096 0.0
C225 C 0.26747 0.96105 0.7243 0.0
C226 C 0.26342 0.98378 0.69999 0.0
C227 C 0.2857 0.01195 0.6965 0.0
C228 C 0.29429 0.96722 0.74405 0.0
H229 H 0.32862 0.03913 0.71476 0.0
C230 C 0.3825 0.06405 0.75165 0.0
O231 O 0.46831 0.0124 0.72878 0.0
O232 O 0.42705 0.99899 0.69761 0.0
N233 N 0.32749 0.95266 0.7853 0.0
C234 C 0.33249 0.93583 0.81169 0.0
C235 C 0.31065 0.90885 0.81996 0.0
C236 C 0.2834 0.89992 0.80136 0.0
C237 C 0.27794 0.91847 0.77488 0.0
C238 C 0.30024 0.94552 0.76805 0.0
H239 H 0.35278 0.94325 0.82655 0.0
O240 O 0.42801 0.94712 0.74423 0.0
O241 O 0.38013 0.97473 0.74762 0.0
O242 O 0.42989 0.00162 0.7865 0.0
O243 O 0.37941 0.99613 0.80658 0.0
C244 C 0.25062 0.91191 0.75548 0.0
C245 C 0.24569 0.93285 0.72994 0.0
H246 H 0.2432 0.97997 0.68397 0.0
H247 H 0.28267 0.02962 0.67785 0.0
H248 H 0.3147 0.8951 0.84071 0.0
H249 H 0.26652 0.87919 0.80784 0.0
H250 H 0.23316 0.89095 0.76006 0.0
H251 H 0.22468 0.92747 0.7151 0.0
Mn252 Mn 0.32855 0.17828 0.05447 0.0
Mn253 Mn 0.33583 0.09118 0.03968 0.0
C254 C 0.28704 0.14011 0.06842 0.0
C255 C 0.34408 0.22739 0.08092 0.0
C256 C 0.30647 0.14283 0.99612 0.0
O257 O 0.37557 0.17561 0.04118 0.0
O258 O 0.3761 0.118 0.03227 0.0
C259 C 0.38325 0.08106 0.09029 0.0
N260 N 0.35483 0.07145 0.07523 0.0
C261 C 0.34409 0.02553 0.11041 0.0
C262 C 0.37331 0.0348 0.12621 0.0
C263 C 0.39288 0.06284 0.11617 0.0
C264 C 0.3352 0.04545 0.0853 0.0
H265 H 0.39837 0.10254 0.08268 0.0
C266 C 0.38958 0.14826 0.03234 0.0
O267 O 0.33319 0.22991 0.05384 0.0
O268 O 0.34513 0.19618 0.09301 0.0
N269 N 0.30031 0.05861 0.04479 0.0
C270 C 0.27854 0.04761 0.02312 0.0
C271 C 0.26033 0.01646 0.02696 0.0
C272 C 0.26443 0.99688 0.05315 0.0
C273 C 0.28834 0.00743 0.0744 0.0
C274 C 0.30687 0.03789 0.06868 0.0
H275 H 0.27588 0.06192 1.00256 0.0
O276 O 0.28306 0.17396 0.06916 0.0
O277 O 0.31719 0.12927 0.06362 0.0
O278 O 0.31096 0.16987 0.01245 0.0
O279 O 0.31498 0.11141 1.00346 0.0
C280 C 0.29638 0.98729 0.09981 0.0
C281 C 0.32394 0.99671 0.1181 0.0
H282 H 0.38113 0.02037 0.14589 0.0
H283 H 0.41548 0.07022 0.12822 0.0
H284 H 0.24337 0.00745 0.00962 0.0
H285 H 0.25022 0.97289 0.05607 0.0
H286 H 0.28216 0.9639 0.10499 0.0
H287 H 0.3302 0.98076 0.13735 0.0
Mn288 Mn 0.81188 0.40383 0.08843 0.0
Mn289 Mn 0.82477 0.48119 0.05243 0.0
C290 C 0.8665 0.42428 0.08241 0.0
C291 C 0.79792 0.37179 0.13162 0.0
C292 C 0.81865 0.41194 0.02083 0.0
O293 O 0.76421 0.42445 0.08442 0.0
O294 O 0.77705 0.47264 0.05883 0.0
C295 C 0.80474 0.52272 0.1038 0.0
N296 N 0.82703 0.51595 0.08267 0.0
C297 C 0.86262 0.56311 0.09963 0.0
C298 C 0.83996 0.57078 0.12144 0.0
C299 C 0.81101 0.55029 0.12367 0.0
C300 C 0.85548 0.53464 0.08102 0.0
H301 H 0.78238 0.50718 0.10554 0.0
C302 C 0.75571 0.45261 0.07058 0.0
O303 O 0.7939 0.35865 0.10549 0.0
O304 O 0.80977 0.40364 0.13281 0.0
N305 N 0.86863 0.49633 0.04333 0.0
C306 C 0.88635 0.48764 0.01941 0.0
C307 C 0.91519 0.50682 0.01306 0.0
C308 C 0.92493 0.53536 0.03086 0.0
C309 C 0.90557 0.54486 0.05448 0.0
C310 C 0.87706 0.52487 0.0597 0.0
H311 H 0.87839 0.46639 1.00514 0.0
O312 O 0.86052 0.39218 0.09056 0.0
O313 O 0.84053 0.44514 0.08119 0.0
O314 O 0.81185 0.39336 0.04366 0.0
O315 O 0.82377 0.4453 0.0213 0.0
C316 C 0.91292 0.57413 0.07246 0.0
C317 C 0.89176 0.58289 0.09536 0.0
H318 H 0.8445 0.59236 0.13653 0.0
H319 H 0.79345 0.55591 0.14052 0.0
H320 H 0.92972 0.49978 0.9944 0.0
H321 H 0.94701 0.55022 0.02607 0.0
H322 H 0.93472 0.59017 0.06875 0.0
H323 H 0.89782 0.60525 0.10922 0.0
Mn324 Mn 0.91851 0.50825 0.24188 0.0
Mn325 Mn 0.84843 0.50056 0.28194 0.0
C326 C 0.89514 0.45241 0.25182 0.0
C327 C 0.94939 0.51818 0.1987 0.0
C328 C 0.91712 0.50462 0.30985 0.0
O329 O 0.90203 0.56022 0.24276 0.0
O330 O 0.85915 0.54914 0.27133 0.0
C331 C 0.80525 0.52153 0.2307 0.0
N332 N 0.81213 0.4992 0.25371 0.0
C333 C 0.76302 0.46489 0.24257 0.0
C334 C 0.75526 0.48762 0.21887 0.0
C335 C 0.77662 0.51592 0.21278 0.0
C336 C 0.79242 0.47121 0.25907 0.0
H337 H 0.82153 0.54337 0.22601 0.0
C338 C 0.87742 0.57055 0.25757 0.0
O339 O 0.96185 0.52307 0.22492 0.0
O340 O 0.91836 0.50826 0.19709 0.0
N341 N 0.83201 0.45624 0.29562 0.0
C342 C 0.84127 0.43913 0.32108 0.0
C343 C 0.82086 0.41239 0.33215 0.0
C344 C 0.79078 0.40389 0.31729 0.0
C345 C 0.78132 0.42225 0.29153 0.0
C346 C 0.80225 0.4493 0.282 0.0
H347 H 0.86375 0.44634 0.33325 0.0
O348 O 0.92547 0.4557 0.24341 0.0
O349 O 0.87783 0.48141 0.25187 0.0
O350 O 0.93173 0.51021 0.28573 0.0
O351 O 0.88564 0.50042 0.31154 0.0
C352 C 0.75144 0.41551 0.27547 0.0
C353 C 0.74258 0.43644 0.25066 0.0
H354 H 0.73295 0.48365 0.20526 0.0
H355 H 0.77091 0.5335 0.19446 0.0
H356 H 0.82813 0.39863 0.35228 0.0
H357 H 0.77489 0.38358 0.32609 0.0
H358 H 0.73505 0.39438 0.28206 0.0
H359 H 0.71965 0.43091 0.23836 0.0
Mn360 Mn 0.84389 0.64729 0.54088 0.0
Mn361 Mn 0.83298 0.5763 0.49734 0.0
C362 C 0.80436 0.60669 0.55358 0.0
C363 C 0.87599 0.67499 0.5766 0.0
C364 C 0.80508 0.64846 0.48329 0.0
O365 O 0.88279 0.64915 0.51411 0.0
O366 O 0.87828 0.59457 0.49655 0.0
C367 C 0.87855 0.52686 0.52915 0.0
N368 N 0.84831 0.53398 0.51613 0.0
C369 C 0.83108 0.47355 0.52055 0.0
C370 C 0.86203 0.46545 0.53404 0.0
C371 C 0.88578 0.4923 0.53857 0.0
C372 C 0.82501 0.50863 0.51241 0.0
H373 H 0.89707 0.54734 0.53206 0.0
C374 C 0.89477 0.62263 0.50162 0.0
O375 O 0.85856 0.69293 0.55717 0.0
O376 O 0.87461 0.64084 0.57533 0.0
N377 N 0.79044 0.55377 0.4947 0.0
C378 C 0.76206 0.56584 0.48087 0.0
C379 C 0.73698 0.54192 0.47225 0.0
C380 C 0.74109 0.50579 0.47814 0.0
C381 C 0.77017 0.49393 0.49283 0.0
C382 C 0.79479 0.51887 0.5 0.0
H383 H 0.75889 0.59337 0.47561 0.0
O384 O 0.80543 0.63754 0.56566 0.0
O385 O 0.82812 0.59916 0.53592 0.0
O386 O 0.81245 0.66341 0.50762 0.0
O387 O 0.8157 0.61809 0.47632 0.0
C388 C 0.77589 0.45829 0.50031 0.0
C389 C 0.80614 0.44819 0.51457 0.0
H390 H 0.86788 0.43872 0.54091 0.0
H391 H 0.90975 0.48627 0.54889 0.0
H392 H 0.7146 0.55129 0.4609 0.0
H393 H 0.72161 0.48745 0.47152 0.0
H394 H 0.75714 0.43849 0.49533 0.0
H395 H 0.81015 0.42078 0.52044 0.0
Mn396 Mn 0.67697 0.52968 0.74442 0.0
Mn397 Mn 0.7417 0.55836 0.78822 0.0
C398 C 0.69212 0.5892 0.74421 0.0
C399 C 0.65878 0.50268 0.69914 0.0
C400 C 0.67335 0.54106 0.8116 0.0
O401 O 0.7014 0.48443 0.75678 0.0
O402 O 0.74647 0.50778 0.78001 0.0
C403 C 0.79559 0.54956 0.74616 0.0
N404 N 0.77891 0.57017 0.76507 0.0
C405 C 0.81719 0.6182 0.75854 0.0
C406 C 0.83488 0.59747 0.73905 0.0
C407 C 0.8239 0.56307 0.7327 0.0
C408 C 0.7889 0.60349 0.77093 0.0
H409 H 0.78736 0.523 0.74146 0.0
C410 C 0.73017 0.48164 0.76938 0.0
O411 O 0.64126 0.50129 0.72261 0.0
O412 O 0.68645 0.52014 0.70182 0.0
N413 N 0.74142 0.60716 0.79863 0.0
C414 C 0.7212 0.62398 0.81743 0.0
C415 C 0.72878 0.6586 0.82616 0.0
C416 C 0.75743 0.67534 0.816 0.0
C417 C 0.77823 0.65732 0.79712 0.0
C418 C 0.7694 0.62285 0.78918 0.0
H419 H 0.69954 0.61103 0.82587 0.0
O420 O 0.66304 0.57941 0.73393 0.0
O421 O 0.71163 0.56409 0.75351 0.0
O422 O 0.65835 0.53491 0.7867 0.0
O423 O 0.70447 0.54777 0.81409 0.0
C424 C 0.80714 0.67234 0.78556 0.0
C425 C 0.82641 0.65294 0.76604 0.0
H426 H 0.85683 0.60773 0.72876 0.0
H427 H 0.83736 0.54695 0.71763 0.0
H428 H 0.71267 0.67229 0.84083 0.0
H429 H 0.76312 0.7021 0.82269 0.0
H430 H 0.8145 0.69899 0.79119 0.0
H431 H 0.84826 0.66499 0.75691 0.0
Mn432 Mn 0.99546 0.79173 0.90071 0.0
Mn433 Mn 0.94082 0.81091 0.95212 0.0
C434 C 1.00264 0.84123 0.92852 0.0
C435 C 0.04582 0.77103 0.88583 0.0
C436 C 0.92359 0.81238 0.88735 0.0
O437 O 0.97425 0.74442 0.90891 0.0
O438 O 0.93951 0.75977 0.9449 0.0
C439 C 0.97132 0.77455 1.00395 0.0
N440 N 0.9607 0.80485 0.99044 0.0
C441 C 0.97979 0.83963 0.03152 0.0
C442 C 0.99078 0.80885 0.04603 0.0
C443 C 0.98634 0.77612 0.03223 0.0
C444 C 0.96374 0.83632 1.00388 0.0
H445 H 0.96863 0.74943 0.99313 0.0
C446 C 0.95207 0.73717 0.92763 0.0
O447 O 0.02084 0.77441 0.86715 0.0
O448 O 0.04023 0.77547 0.91346 0.0
N449 N 0.94184 0.86008 0.96002 0.0
C450 C 0.93691 0.88725 0.94064 0.0
C451 C 0.94338 0.92181 0.94989 0.0
C452 C 0.95434 0.92804 0.97899 0.0
C453 C 0.96046 0.89953 0.99806 0.0
C454 C 0.95393 0.86563 0.98766 0.0
H455 H 0.92956 0.88234 0.91799 0.0
O456 O 0.01335 0.84083 0.90192 0.0
O457 O 0.98527 0.81411 0.93644 0.0
O458 O 0.95282 0.80629 0.87901 0.0
O459 O 0.91674 0.81728 0.91412 0.0
C460 C 0.97547 0.90344 0.02608 0.0
C461 C 0.98583 0.87358 0.04262 0.0
H462 H 1.00325 0.81012 0.06749 0.0
H463 H 0.99498 0.75224 0.04315 0.0
H464 H 0.9402 0.94355 0.9346 0.0
H465 H 0.95951 0.95463 0.98614 0.0
H466 H 0.98007 0.92951 0.0344 0.0
H467 H 0.9987 0.87692 0.06369 0.0
Mn468 Mn 0.06537 0.2695 0.66976 0.0
Mn469 Mn 1.00379 0.25846 0.61779 0.0
C470 C 0.05453 0.21338 0.64795 0.0
C471 C 0.12158 0.27636 0.68912 0.0
C472 C 0.98936 0.27368 0.68247 0.0
O473 O 0.06069 0.32028 0.65059 0.0
O474 O 0.02079 0.30753 0.61588 0.0
C475 C 0.04117 0.2678 0.56316 0.0
N476 N 0.02126 0.24773 0.58028 0.0
C477 C 0.01913 0.2015 0.5443 0.0
C478 C 0.03923 0.2219 0.52615 0.0
C479 C 0.05038 0.25513 0.53568 0.0
C480 C 0.01046 0.21565 0.57135 0.0
H481 H 0.05017 0.29316 0.57048 0.0
C482 C 0.04211 0.32883 0.62774 0.0
O483 O 0.09567 0.28402 0.70384 0.0
O484 O 0.11527 0.26737 0.66195 0.0
N485 N 0.98664 0.21131 0.61719 0.0
C486 C 0.97008 0.19361 0.63841 0.0
C487 C 0.95883 0.1591 0.63302 0.0
C488 C 0.96473 0.14316 0.60592 0.0
C489 C 0.98188 0.16188 0.58445 0.0
C490 C 0.99226 0.19629 0.59096 0.0
H491 H 0.96561 0.20564 0.65934 0.0
O492 O 0.06689 0.21573 0.67465 0.0
O493 O 0.04641 0.24338 0.63617 0.0
O494 O 0.01995 0.27382 0.6912 0.0
O495 O 0.98117 0.26882 0.65537 0.0
C496 C 0.98983 0.14741 0.55715 0.0
C497 C 0.00833 0.16721 0.53704 0.0
H498 H 0.04669 0.21205 0.50508 0.0
H499 H 0.0662 0.27088 0.52194 0.0
H500 H 0.94576 0.14477 0.64977 0.0
H501 H 0.95629 0.11643 0.60194 0.0
H502 H 0.98246 0.12082 0.55166 0.0
H503 H 0.01479 0.15548 0.51636 0.0
Mn504 Mn 0.47078 0.29984 0.40154 0.0
Mn505 Mn 0.49103 0.3321 0.33804 0.0
C506 C 0.42802 0.30704 0.36842 0.0
C507 C 0.4692 0.25616 0.43601 0.0
C508 C 0.49918 0.3665 0.39744 0.0
O509 O 0.52216 0.29553 0.39809 0.0
O510 O 0.52483 0.29662 0.34876 0.0
C511 C 0.48662 0.27491 0.29428 0.0
N512 N 0.47602 0.30671 0.30397 0.0
C513 C 0.43778 0.31286 0.26245 0.0
C514 C 0.44817 0.28013 0.25206 0.0
C515 C 0.47272 0.26108 0.26805 0.0
C516 C 0.45264 0.32534 0.28868 0.0
H517 H 0.50548 0.26019 0.30653 0.0
C518 C 0.538 0.291 0.37436 0.0
O519 O 0.47377 0.28862 0.44355 0.0
O520 O 0.46653 0.24862 0.40817 0.0
N521 N 0.45823 0.36622 0.32646 0.0
C522 C 0.45104 0.39732 0.33942 0.0
C523 C 0.42697 0.41942 0.32624 0.0
C524 C 0.41049 0.40943 0.29984 0.0
C525 C 0.41852 0.37753 0.28671 0.0
C526 C 0.44305 0.35673 0.30069 0.0
H527 H 0.46391 0.40557 0.35937 0.0
O528 O 0.42238 0.30368 0.3963 0.0
O529 O 0.45893 0.30378 0.36074 0.0
O530 O 0.47202 0.35257 0.4034 0.0
O531 O 0.51057 0.36105 0.37204 0.0
C532 C 0.4033 0.36569 0.2602 0.0
C533 C 0.41286 0.33329 0.24813 0.0
H534 H 0.43735 0.2693 0.23194 0.0
H535 H 0.48086 0.23578 0.26021 0.0
H536 H 0.42166 0.44417 0.33641 0.0
H537 H 0.39199 0.42643 0.28951 0.0
H538 H 0.3842 0.3813 0.24896 0.0
H539 H 0.40085 0.32421 0.22791 0.0
Mn540 Mn 0.55818 0.77143 0.16842 0.0
Mn541 Mn 0.49627 0.7581 0.11695 0.0
C542 C 0.54971 0.71519 0.14585 0.0
C543 C 0.61415 0.78151 0.18766 0.0
C544 C 0.48253 0.77074 0.18191 0.0
O545 O 0.54967 0.82257 0.15102 0.0
O546 O 0.50979 0.80832 0.11677 0.0
C547 C 0.5316 0.77307 0.06211 0.0
N548 N 0.51358 0.75062 0.07886 0.0
C549 C 0.51283 0.7066 0.041 0.0
C550 C 0.53127 0.72931 0.02331 0.0
C551 C 0.54075 0.76265 0.03394 0.0
C552 C 0.50428 0.7185 0.06882 0.0
H553 H 0.53894 0.79872 0.07017 0.0
C554 C 0.52925 0.83089 0.12935 0.0
O555 O 0.58792 0.78717 0.20254 0.0
O556 O 0.60815 0.77262 0.1604 0.0
N557 N 0.4818 0.71005 0.11484 0.0
C558 C 0.46639 0.69032 0.13553 0.0
C559 C 0.45655 0.65566 0.12888 0.0
C560 C 0.46254 0.64173 0.10103 0.0
C561 C 0.47839 0.66257 0.08008 0.0
C562 C 0.48748 0.69698 0.0879 0.0
H563 H 0.46178 0.7009 0.15699 0.0
O564 O 0.56256 0.71775 0.17236 0.0
O565 O 0.54001 0.74495 0.13446 0.0
O566 O 0.51314 0.77262 0.19026 0.0
O567 O 0.47399 0.76523 0.15501 0.0
C568 C 0.48619 0.6503 0.05198 0.0
C569 C 0.50336 0.67229 0.03244 0.0
H570 H 0.53858 0.72128 1.00166 0.0
H571 H 0.5551 0.78027 0.02047 0.0
H572 H 0.44445 0.63969 0.14521 0.0
H573 H 0.45517 0.6149 0.09608 0.0
H574 H 0.47966 0.62379 0.04536 0.0
H575 H 0.5097 0.66232 0.01109 0.0
Mn576 Mn 0.92793 0.0099 0.81583 0.0
Mn577 Mn 0.86404 0.00944 0.86186 0.0
C578 C 0.89545 0.96005 0.82104 0.0
C579 C 0.9495 0.01441 0.76871 0.0
C580 C 0.93625 0.01004 0.8836 0.0
O581 O 0.91677 0.06212 0.81887 0.0
O582 O 0.87413 0.05875 0.85024 0.0
C583 C 0.80992 0.03549 0.8217 0.0
N584 N 0.82278 0.00974 0.83974 0.0
C585 C 0.77534 0.97237 0.83002 0.0
C586 C 0.76156 0.9985 0.81139 0.0
C587 C 0.77891 0.03023 0.80728 0.0
C588 C 0.80604 0.97935 0.84425 0.0
H589 H 0.82328 0.05979 0.8182 0.0
C590 C 0.89383 0.07606 0.8338 0.0
O591 O 0.96838 0.0185 0.79219 0.0
O592 O 0.91799 0.01024 0.77258 0.0
N593 N 0.85215 0.96252 0.87325 0.0
C594 C 0.87037 0.9386 0.88934 0.0
C595 C 0.85689 0.90511 0.8949 0.0
C596 C 0.82525 0.89629 0.88323 0.0
C597 C 0.8074 0.921 0.86603 0.0
C598 C 0.82166 0.95428 0.86189 0.0
H599 H 0.89505 0.94504 0.89766 0.0
O600 O 0.92644 0.95711 0.81428 0.0
O601 O 0.8859 0.9916 0.82732 0.0
O602 O 0.94868 0.00976 0.85811 0.0
O603 O 0.90495 0.00901 0.88733 0.0
C604 C 0.77647 0.91351 0.8521 0.0
C605 C 0.76039 0.93919 0.83415 0.0
H606 H 0.73789 0.99431 0.79986 0.0
H607 H 0.76853 0.05046 0.79282 0.0
H608 H 0.87087 0.88601 0.90797 0.0
H609 H 0.81506 0.87033 0.88724 0.0
H610 H 0.76536 0.88776 0.85455 0.0
H611 H 0.73692 0.93296 0.82303 0.0
Mn612 Mn 0.80251 0.13776 0.52606 0.0
Mn613 Mn 0.79202 0.07509 0.47555 0.0
C614 C 0.7501 0.1139 0.51837 0.0
C615 C 0.81134 0.15579 0.5739 0.0
C616 C 0.80038 0.15245 0.45927 0.0
O617 O 0.8495 0.11903 0.52249 0.0
O618 O 0.84095 0.07971 0.48604 0.0
C619 C 0.8145 0.01317 0.51083 0.0
N620 N 0.79003 0.03023 0.49491 0.0
C621 C 0.75112 0.98356 0.50409 0.0
C622 C 0.77595 0.96541 0.52034 0.0
C623 C 0.80782 0.98025 0.52362 0.0
C624 C 0.75954 0.01575 0.4909 0.0
H625 H 0.83897 0.02454 0.51388 0.0
C626 C 0.85997 0.09583 0.50489 0.0
O627 O 0.81771 0.17674 0.55204 0.0
O628 O 0.80241 0.12378 0.56788 0.0
N629 N 0.746 0.06744 0.46521 0.0
C630 C 0.72345 0.09132 0.45439 0.0
C631 C 0.68943 0.08277 0.45394 0.0
C632 C 0.67902 0.04939 0.46327 0.0
C633 C 0.70254 0.02528 0.47447 0.0
C634 C 0.73606 0.03561 0.47547 0.0
H635 H 0.73125 0.11747 0.44799 0.0
O636 O 0.75379 0.14598 0.52756 0.0
O637 O 0.7776 0.09756 0.51197 0.0
O638 O 0.80433 0.16285 0.48574 0.0
O639 O 0.7941 0.12029 0.45269 0.0
C640 C 0.69363 0.99292 0.4874 0.0
C641 C 0.71797 0.97177 0.50172 0.0
H642 H 0.77064 0.9404 0.53085 0.0
H643 H 0.82709 0.96655 0.53632 0.0
H644 H 0.67103 0.10227 0.44742 0.0
H645 H 0.65272 0.0434 0.4634 0.0
H646 H 0.66791 0.98483 0.48786 0.0
H647 H 0.71062 0.94728 0.51208 0.0
Mn648 Mn 0.6625 0.02541 0.31252 0.0
Mn649 Mn 0.72081 0.04183 0.36437 0.0
C650 C 0.67876 0.08295 0.32082 0.0
C651 C 0.6479 0.01631 0.26381 0.0
C652 C 0.65087 0.01708 0.37826 0.0
O653 O 0.68706 0.97853 0.31694 0.0
O654 O 0.72895 0.99363 0.34901 0.0
C655 C 0.78238 0.0423 0.33068 0.0
N656 N 0.76044 0.0595 0.34766 0.0
C657 C 0.79005 0.11401 0.34232 0.0
C658 C 0.8131 0.09693 0.32495 0.0
C659 C 0.80938 0.06081 0.31932 0.0
C660 C 0.76456 0.09388 0.35431 0.0
H661 H 0.77915 0.01474 0.32558 0.0
C662 C 0.7147 0.97218 0.3308 0.0
O663 O 0.62813 0.00666 0.28445 0.0
O664 O 0.67675 0.02886 0.27156 0.0
N665 N 0.71458 0.08855 0.37842 0.0
C666 C 0.68635 0.10266 0.38909 0.0
C667 C 0.68481 0.13896 0.39448 0.0
C668 C 0.71149 0.1607 0.38711 0.0
C669 C 0.73912 0.14594 0.37391 0.0
C670 C 0.74011 0.10937 0.37047 0.0
H671 H 0.66495 0.08639 0.39319 0.0
O672 O 0.64911 0.07631 0.31018 0.0
O673 O 0.69647 0.05536 0.32816 0.0
O674 O 0.63906 0.01867 0.35191 0.0
O675 O 0.68125 0.02391 0.38499 0.0
C676 C 0.76374 0.16657 0.36113 0.0
C677 C 0.78968 0.15069 0.34596 0.0
H678 H 0.83319 0.11149 0.31518 0.0
H679 H 0.82685 0.04745 0.30569 0.0
H680 H 0.66268 0.15027 0.4034 0.0
H681 H 0.7097 0.18892 0.39012 0.0
H682 H 0.76127 0.19482 0.36101 0.0
H683 H 0.80796 0.16703 0.33546 0.0
Mn684 Mn 0.7717 0.85395 0.02947 0.0
Mn685 Mn 0.77703 0.93901 0.01037 0.0
C686 C 0.82107 0.88299 0.03857 0.0
C687 C 0.76005 0.81237 0.06439 0.0
C688 C 0.7687 0.87828 0.96766 0.0
O689 O 0.72378 0.8695 0.02386 0.0
O690 O 0.73187 0.92875 0.02269 0.0
C691 C 0.76549 0.97885 0.06474 0.0
N692 N 0.78547 0.97063 0.04221 0.0
C693 C 0.82557 0.01467 0.05724 0.0
C694 C 0.80562 0.02338 0.0808 0.0
C695 C 0.77548 0.00534 0.08459 0.0
C696 C 0.8144 0.98793 0.03828 0.0
H697 H 0.74212 0.96532 0.06747 0.0
C698 C 0.71353 0.90123 0.02425 0.0
O699 O 0.75958 0.80374 0.03678 0.0
O700 O 0.76506 0.84512 0.07106 0.0
N701 N 0.82062 0.95073 0.99845 0.0
C702 C 0.83725 0.93831 0.97518 0.0
C703 C 0.86819 0.95289 0.96879 0.0
C704 C 0.88174 0.97995 0.98636 0.0
C705 C 0.86393 0.99268 0.00993 0.0
C706 C 0.83317 0.97712 0.01528 0.0
H707 H 0.82684 0.91774 0.9614 0.0
O708 O 0.82026 0.84895 0.0363 0.0
O709 O 0.79281 0.89912 0.03448 0.0
O710 O 0.77674 0.85367 0.9855 0.0
O711 O 0.76709 0.91047 0.9751 0.0
C712 C 0.87534 0.02031 0.02818 0.0
C713 C 0.85622 0.03122 0.05192 0.0
H714 H 0.81322 0.04382 0.09613 0.0
H715 H 0.75989 0.01198 0.10267 0.0
H716 H 0.88122 0.94357 0.95015 0.0
H717 H 0.90574 0.99082 0.98155 0.0
H718 H 0.89898 0.03302 0.02441 0.0
H719 H 0.86549 0.0521 0.06611 0.0
Mn720 Mn 0.29356 0.63791 0.02506 0.0
Mn721 Mn 0.28415 0.57296 0.97655 0.0
C722 C 0.24089 0.61461 0.0164 0.0
C723 C 0.30073 0.6584 0.07238 0.0
C724 C 0.29372 0.6492 0.95778 0.0
O725 O 0.34065 0.61821 0.02365 0.0
O726 O 0.33286 0.57833 0.98758 0.0
C727 C 0.30605 0.51338 0.01486 0.0
N728 N 0.28186 0.52936 0.99782 0.0
C729 C 0.24256 0.48384 0.00918 0.0
C730 C 0.26708 0.46683 0.02665 0.0
C731 C 0.29903 0.48159 0.02937 0.0
C732 C 0.25134 0.51482 0.99429 0.0
H733 H 0.33055 0.52476 0.01754 0.0
C734 C 0.35155 0.59469 0.00652 0.0
O735 O 0.30833 0.67803 0.05004 0.0
O736 O 0.29151 0.62625 0.06726 0.0
N737 N 0.23843 0.56445 0.96565 0.0
C738 C 0.21622 0.58728 0.95281 0.0
C739 C 0.18224 0.57844 0.95153 0.0
C740 C 0.17153 0.54606 0.96282 0.0
C741 C 0.1947 0.52319 0.97636 0.0
C742 C 0.22821 0.5335 0.97743 0.0
H743 H 0.22423 0.61285 0.94518 0.0
O744 O 0.24472 0.64703 0.02464 0.0
O745 O 0.26849 0.59752 0.01158 0.0
O746 O 0.29745 0.66067 0.98397 0.0
O747 O 0.28668 0.61695 0.95206 0.0
C748 C 0.18535 0.49233 0.99141 0.0
C749 C 0.20934 0.47226 0.00726 0.0
H750 H 0.26149 0.44277 0.0385 0.0
H751 H 0.31807 0.46877 0.04298 0.0
H752 H 0.16409 0.59708 0.94281 0.0
H753 H 0.14523 0.53997 0.96247 0.0
H754 H 0.15953 0.48486 0.99246 0.0
H755 H 0.20164 0.44891 0.01911 0.0
Mn756 Mn 0.16467 0.51546 0.81135 0.0
Mn757 Mn 0.22244 0.53033 0.86409 0.0
C758 C 0.1835 0.5724 0.81883 0.0
C759 C 0.15042 0.50728 0.76203 0.0
C760 C 0.15155 0.50769 0.87727 0.0
O761 O 0.18742 0.46759 0.81666 0.0
O762 O 0.22881 0.4813 0.84985 0.0
C763 C 0.28525 0.52698 0.83238 0.0
N764 N 0.26328 0.54577 0.84813 0.0
C765 C 0.2951 0.59882 0.84236 0.0
C766 C 0.31822 0.58007 0.82626 0.0
C767 C 0.31341 0.5439 0.82148 0.0
C768 C 0.26845 0.58018 0.85411 0.0
H769 H 0.2812 0.49937 0.82792 0.0
C770 C 0.21398 0.46003 0.83182 0.0
O771 O 0.13003 0.49835 0.78241 0.0
O772 O 0.17968 0.51807 0.77041 0.0
N773 N 0.21753 0.57771 0.877 0.0
C774 C 0.18919 0.59331 0.88599 0.0
C775 C 0.18833 0.62994 0.88975 0.0
C776 C 0.21592 0.65042 0.88247 0.0
C777 C 0.24375 0.63404 0.87095 0.0
C778 C 0.24396 0.59727 0.86909 0.0
H779 H 0.16711 0.57793 0.88969 0.0
O780 O 0.15353 0.56696 0.80844 0.0
O781 O 0.19979 0.54412 0.82702 0.0
O782 O 0.1402 0.50961 0.8507 0.0
O783 O 0.18188 0.51435 0.88428 0.0
C784 C 0.26937 0.65315 0.85807 0.0
C785 C 0.29572 0.6357 0.84476 0.0
H786 H 0.3392 0.59339 0.81675 0.0
H787 H 0.33093 0.52927 0.80881 0.0
H788 H 0.16606 0.64245 0.89727 0.0
H789 H 0.2147 0.67884 0.88417 0.0
H790 H 0.26736 0.68133 0.85627 0.0
H791 H 0.31494 0.65102 0.83444 0.0
Mn792 Mn 0.2673 0.38264 0.54679 0.0
Mn793 Mn 0.31332 0.39814 0.48782 0.0
C794 C 0.32177 0.36465 0.54698 0.0
C795 C 0.25148 0.40113 0.59257 0.0
C796 C 0.25953 0.34198 0.49024 0.0
O797 O 0.24197 0.42 0.52501 0.0
O798 O 0.27533 0.43182 0.487 0.0
C799 C 0.33879 0.46927 0.50272 0.0
N800 N 0.34468 0.43476 0.49682 0.0
C801 C 0.40384 0.44386 0.50083 0.0
C802 C 0.39842 0.4795 0.50693 0.0
C803 C 0.36575 0.49223 0.50795 0.0
C804 C 0.376 0.42217 0.49608 0.0
H805 H 0.31372 0.47924 0.50344 0.0
C806 C 0.24968 0.43737 0.50221 0.0
O807 O 0.23365 0.37816 0.57781 0.0
O808 O 0.27621 0.41518 0.57935 0.0
N809 N 0.35118 0.3678 0.48643 0.0
C810 C 0.3522 0.3328 0.48011 0.0
C811 C 0.38311 0.31595 0.47839 0.0
C812 C 0.41262 0.33529 0.48306 0.0
C813 C 0.41095 0.3714 0.48905 0.0
C814 C 0.37945 0.38677 0.49043 0.0
H815 H 0.32961 0.3179 0.4764 0.0
O816 O 0.30091 0.34927 0.56404 0.0
O817 O 0.30922 0.38876 0.52957 0.0
O818 O 0.25113 0.34663 0.51666 0.0
O819 O 0.28208 0.3597 0.47748 0.0
C820 C 0.43929 0.39271 0.4939 0.0
C821 C 0.43576 0.42894 0.49947 0.0
H822 H 0.41912 0.49728 0.51107 0.0
H823 H 0.36136 0.51969 0.51271 0.0
H824 H 0.38421 0.2881 0.47355 0.0
H825 H 0.43639 0.32217 0.48206 0.0
H826 H 0.46392 0.38149 0.49371 0.0
H827 H 0.45779 0.44498 0.50299 0.0
Mn828 Mn 0.42271 0.50829 0.32313 0.0
Mn829 Mn 0.36556 0.51264 0.37738 0.0
C830 C 0.3664 0.48705 0.31574 0.0
C831 C 0.44155 0.51067 0.27246 0.0
C832 C 0.44147 0.51603 0.38836 0.0
O833 O 0.40447 0.55906 0.32182 0.0
O834 O 0.3712 0.56071 0.3609 0.0
C835 C 0.30259 0.53383 0.34634 0.0
N836 N 0.32004 0.51052 0.36374 0.0
C837 C 0.27148 0.47418 0.3695 0.0
C838 C 0.25305 0.49774 0.35155 0.0
C839 C 0.26869 0.52766 0.33992 0.0
C840 C 0.3051 0.48189 0.37544 0.0
H841 H 0.31448 0.55681 0.33726 0.0
C842 C 0.38489 0.57518 0.33881 0.0
O843 O 0.45936 0.52099 0.29473 0.0
O844 O 0.4117 0.50085 0.27876 0.0
N845 N 0.35781 0.46711 0.39414 0.0
C846 C 0.38021 0.44425 0.4068 0.0
C847 C 0.36915 0.41168 0.4176 0.0
C848 C 0.33518 0.40303 0.4155 0.0
C849 C 0.31266 0.42675 0.40198 0.0
C850 C 0.32514 0.45886 0.39155 0.0
H851 H 0.4064 0.45062 0.40827 0.0
O852 O 0.38494 0.49473 0.29382 0.0
O853 O 0.38112 0.49116 0.34113 0.0
O854 O 0.45018 0.51718 0.36158 0.0
O855 O 0.41107 0.51409 0.39552 0.0
C856 C 0.27865 0.41904 0.39711 0.0
C857 C 0.25806 0.44276 0.38093 0.0
H858 H 0.227 0.49288 0.34625 0.0
H859 H 0.25465 0.54587 0.32594 0.0
H860 H 0.38682 0.39313 0.42724 0.0
H861 H 0.3268 0.3777 0.42359 0.0
H862 H 0.26826 0.39449 0.40501 0.0
H863 H 0.23213 0.43613 0.37671 0.0
C864 C 0.02174 0.01007 0.98974 0.0
N865 N 0.99674 0.97391 0.07525 0.0
C866 C 0.96906 0.99385 0.07049 0.0
C867 C 0.93826 0.98107 0.07867 0.0
C868 C 0.93609 0.94719 0.09097 0.0
C869 C 0.96554 0.92991 0.1 0.0
C870 C 0.99597 0.9439 0.09179 0.0
Zn871 Zn 0.03837 0.987 0.05381 0.0
C872 C 0.06385 0.92815 0.01724 0.0
N873 N 0.12346 0.0159 0.00913 0.0
C874 C 0.12436 0.04988 0.99968 0.0
C875 C 0.15073 0.99972 0.02113 0.0
C876 C 0.17761 0.01998 0.03077 0.0
C877 C 0.17737 0.05648 0.02553 0.0
C878 C 0.1512 0.07104 0.00811 0.0
Zn879 Zn 0.0814 0.00117 0.0279 0.0
O880 O 0.0089 0.00178 0.01416 0.0
C881 C 0.05566 0.06042 0.06201 0.0
O882 O 0.05319 0.01227 0.98867 0.0
H883 H 0.14927 0.9725 0.02823 0.0
H884 H 0.97044 0.01818 0.05809 0.0
H885 H 0.10213 0.06208 0.99027 0.0
O886 O 0.03544 0.03728 0.07071 0.0
O887 O 0.0761 0.05291 0.04259 0.0
H888 H 0.01844 0.92882 0.09583 0.0
O889 O 0.10994 0.99103 0.06873 0.0
O890 O 0.06672 0.97352 0.09242 0.0
O891 O 0.08666 0.95021 0.01216 0.0
O892 O 0.04212 0.93561 0.03587 0.0
C893 C 0.09745 0.98087 0.09264 0.0
H894 H 0.91621 0.99558 0.07206 0.0
H895 H 0.96484 0.90391 0.10998 0.0
H896 H 0.19694 0.00741 0.04402 0.0
H897 H 0.14966 0.09902 1.00351 0.0
C898 C 0.37229 0.78785 0.2643 0.0
N899 N 0.27802 0.75448 0.23828 0.0
C900 C 0.28201 0.77522 0.21412 0.0
C901 C 0.28085 0.76054 0.18621 0.0
C902 C 0.27664 0.724 0.18323 0.0
C903 C 0.26914 0.70389 0.20827 0.0
C904 C 0.26958 0.7199 0.23576 0.0
Zn905 Zn 0.29809 0.77226 0.27679 0.0
C906 C 0.33294 0.71405 0.31115 0.0
N907 N 0.34587 0.81 0.35491 0.0
C908 C 0.3586 0.84309 0.35789 0.0
C909 C 0.33666 0.79101 0.37883 0.0
C910 C 0.3373 0.80612 0.40662 0.0
C911 C 0.34762 0.84123 0.41012 0.0
C912 C 0.35983 0.85926 0.38551 0.0
Zn913 Zn 0.32671 0.79177 0.31552 0.0
O914 O 0.34353 0.77997 0.25383 0.0
C915 C 0.2928 0.85055 0.28198 0.0
O916 O 0.37491 0.79546 0.29174 0.0
H917 H 0.32565 0.7652 0.37611 0.0
H918 H 0.28922 0.80251 0.21648 0.0
H919 H 0.36539 0.85797 0.3386 0.0
O920 O 0.28155 0.82496 0.26671 0.0
O921 O 0.31363 0.84422 0.30296 0.0
H922 H 0.26628 0.70393 0.25523 0.0
O923 O 0.27787 0.78724 0.33742 0.0
O924 O 0.25222 0.76411 0.29907 0.0
O925 O 0.34001 0.7396 0.32805 0.0
O926 O 0.31544 0.71981 0.28782 0.0
C927 C 0.2511 0.77499 0.32544 0.0
H928 H 0.28548 0.77733 0.16742 0.0
H929 H 0.26561 0.67564 0.20716 0.0
H930 H 0.3272 0.79119 0.42464 0.0
H931 H 0.36866 0.88617 0.38724 0.0
C932 C 0.5448 0.02186 0.60259 0.0
N933 N 0.59763 0.94036 0.56288 0.0
C934 C 0.60632 0.93662 0.59186 0.0
C935 C 0.60037 0.90474 0.60606 0.0
C936 C 0.58697 0.87649 0.58969 0.0
C937 C 0.58511 0.87938 0.55887 0.0
C938 C 0.59004 0.91205 0.54581 0.0
Zn939 Zn 0.57602 0.98599 0.55031 0.0
C940 C 0.502 0.97461 0.5432 0.0
N941 N 0.52593 0.07854 0.52677 0.0
C942 C 0.52618 0.10718 0.54453 0.0
C943 C 0.50793 0.07783 0.50102 0.0
C944 C 0.49048 0.10732 0.49143 0.0
C945 C 0.49091 0.13773 0.50883 0.0
C946 C 0.50815 0.13702 0.53622 0.0
Zn947 Zn 0.5502 0.03474 0.53874 0.0
O948 O 0.56228 0.99541 0.5959 0.0
C949 C 0.62413 0.04667 0.54705 0.0
O950 O 0.539 0.04514 0.58303 0.0
H951 H 0.50708 0.05435 0.48774 0.0
H952 H 0.61313 0.95946 0.60482 0.0
H953 H 0.54065 0.10712 0.565 0.0
O954 O 0.62291 0.01421 0.55447 0.0
O955 O 0.5969 0.06267 0.54093 0.0
H956 H 0.58316 0.9155 0.5228 0.0
O957 O 0.56055 0.02467 0.49328 0.0
O958 O 0.58839 0.97705 0.5048 0.0
O959 O 0.50381 0.00731 0.5374 0.0
O960 O 0.52891 0.95736 0.54659 0.0
C961 C 0.57862 0.99932 0.48533 0.0
H962 H 0.60292 0.90369 0.62982 0.0
H963 H 0.57663 0.85766 0.54522 0.0
H964 H 0.47819 0.10653 0.4699 0.0
H965 H 0.50873 0.15963 0.5506 0.0
C966 C 0.33869 0.20779 0.76588 0.0
N967 N 0.28114 0.23232 0.8369 0.0
C968 C 0.26815 0.19941 0.83321 0.0
C969 C 0.26045 0.17898 0.85773 0.0
C970 C 0.26555 0.19328 0.88584 0.0
C971 C 0.27696 0.22809 0.88869 0.0
C972 C 0.28496 0.24706 0.86388 0.0
Zn973 Zn 0.30063 0.25937 0.80363 0.0
C974 C 0.37359 0.27884 0.81977 0.0
N975 N 0.34401 0.3115 0.73259 0.0
C976 C 0.33451 0.29765 0.70618 0.0
C977 C 0.34556 0.347 0.73656 0.0
C978 C 0.32888 0.36929 0.71649 0.0
C979 C 0.31252 0.35444 0.69185 0.0
C980 C 0.31816 0.31888 0.68535 0.0
Zn981 Zn 0.32606 0.2835 0.76669 0.0
O982 O 0.31911 0.21172 0.78694 0.0
C983 C 0.25246 0.26483 0.75138 0.0
O984 O 0.34686 0.23474 0.75094 0.0
H985 H 0.35416 0.35744 0.75756 0.0
H986 H 0.26542 0.18834 0.81141 0.0
H987 H 0.3338 0.26941 0.70331 0.0
O988 O 0.25405 0.25471 0.77817 0.0
O989 O 0.27917 0.27592 0.74011 0.0
H990 H 0.2961 0.27285 0.86638 0.0
O991 O 0.30407 0.33176 0.78283 0.0
O992 O 0.28225 0.30642 0.82084 0.0
O993 O 0.37241 0.29113 0.7935 0.0
O994 O 0.34724 0.26478 0.82946 0.0
C995 C 0.28686 0.33388 0.80565 0.0
H996 H 0.25202 0.15205 0.85491 0.0
H997 H 0.28216 0.23972 0.91006 0.0
H998 H 0.32602 0.3969 0.72168 0.0
H999 H 0.30732 0.3069 0.66569 0.0
C1000 C 0.12553 0.00304 0.55559 0.0
N1001 N 0.08764 0.06092 0.48113 0.0
C1002 C 0.11909 0.07399 0.47951 0.0
C1003 C 0.13445 0.07667 0.45224 0.0
C1004 C 0.11762 0.06524 0.42623 0.0
C1005 C 0.08444 0.05404 0.42856 0.0
C1006 C 0.06994 0.05225 0.4561 0.0
Zn1007 Zn 0.06924 0.04095 0.52041 0.0
C1008 C 0.05262 0.96255 0.50786 0.0
N1009 N 0.03393 0.99001 0.59862 0.0
C1010 C 0.05429 0.99272 0.62307 0.0
C1011 C 1.00068 0.98454 0.60127 0.0
C1012 C 0.98645 0.98535 0.62897 0.0
C1013 C 1.00664 0.99093 0.65448 0.0
C1014 C 0.04124 0.99262 0.65116 0.0
Zn1015 Zn 0.05216 0.00991 0.55956 0.0
O1016 O 0.11889 0.02383 0.53399 0.0
C1017 C 0.06769 0.08861 0.57286 0.0
O1018 O 0.10188 0.99266 0.57139 0.0
H1019 H 0.98461 0.9824 0.58184 0.0
H1020 H 0.13311 0.08034 0.4995 0.0
H1021 H 0.08051 0.99789 0.621 0.0
O1022 O 0.07528 0.09056 0.54571 0.0
O1023 O 0.05899 0.05876 0.58304 0.0
H1024 H 0.04527 0.04115 0.4576 0.0
O1025 O 1.00296 0.02764 0.54636 0.0
O1026 O 0.01938 0.05688 0.50767 0.0
O1027 O 0.04555 0.9609 0.53505 0.0
O1028 O 0.06207 0.99186 0.49722 0.0
C1029 C 0.99599 0.047 0.52402 0.0
H1030 H 0.15972 0.08643 0.45182 0.0
H1031 H 0.07024 0.04449 0.40961 0.0
H1032 H 0.95965 0.98389 0.62993 0.0
H1033 H 0.05823 0.99557 0.66994 0.0
C1034 C 0.28786 0.78347 0.73608 0.0
N1035 N 0.35738 0.71427 0.77753 0.0
C1036 C 0.35538 0.69623 0.75191 0.0
C1037 C 0.38313 0.67887 0.74199 0.0
C1038 C 0.41309 0.67947 0.75893 0.0
C1039 C 0.41354 0.69607 0.78643 0.0
C1040 C 0.38537 0.71389 0.79514 0.0
Zn1041 Zn 0.31828 0.7433 0.78868 0.0
C1042 C 0.33787 0.81894 0.79811 0.0
N1043 N 0.23524 0.80257 0.81333 0.0
C1044 C 0.20792 0.79956 0.79507 0.0
C1045 C 0.23236 0.81054 0.84221 0.0
C1046 C 0.20126 0.80931 0.8548 0.0
C1047 C 0.17286 0.8014 0.8371 0.0
C1048 C 0.17628 0.79958 0.8065 0.0
Zn1049 Zn 0.27637 0.77612 0.80117 0.0
O1050 O 0.30972 0.76024 0.74282 0.0
C1051 C 0.25592 0.70017 0.78961 0.0
O1052 O 0.26841 0.79322 0.75595 0.0
H1053 H 0.25435 0.81364 0.85629 0.0
H1054 H 0.33264 0.69658 0.73854 0.0
H1055 H 0.21048 0.79297 0.7722 0.0
O1056 O 0.28652 0.6977 0.78376 0.0
O1057 O 0.24475 0.73025 0.79627 0.0
H1058 H 0.38628 0.7284 0.81552 0.0
O1059 O 0.2857 0.75962 0.84691 0.0
O1060 O 0.32734 0.72732 0.8342 0.0
O1061 O 0.30755 0.82129 0.80509 0.0
O1062 O 0.34983 0.78877 0.79275 0.0
C1063 C 0.30869 0.73804 0.85425 0.0
H1064 H 0.38144 0.66712 0.72038 0.0
H1065 H 0.43579 0.6967 0.80049 0.0
H1066 H 0.20023 0.81143 0.87846 0.0
H1067 H 0.15506 0.79536 0.79167 0.0
C1068 C 0.5284 0.96695 0.06624 0.0
N1069 N 0.58224 0.05607 0.08789 0.0
C1070 C 0.56047 0.0564 0.11012 0.0
C1071 C 0.57181 0.05484 0.13914 0.0
C1072 C 0.60607 0.05341 0.14576 0.0
C1073 C 0.6282 0.05682 0.12252 0.0
C1074 C 0.61563 0.05779 0.09343 0.0
Zn1075 Zn 0.56155 0.03762 0.04974 0.0
C1076 C 0.60168 0.98355 0.02309 0.0
N1077 N 0.51252 0.99204 0.97562 0.0
C1078 C 0.47972 0.98321 0.97536 0.0
C1079 C 0.52947 0.99435 0.95034 0.0
C1080 C 0.5129 0.99037 0.92323 0.0
C1081 C 0.47853 0.98352 0.92205 0.0
C1082 C 0.46216 0.97862 0.94863 0.0
Zn1083 Zn 0.5355 0.0114 0.01242 0.0
O1084 O 0.54397 0.99373 0.07619 0.0
C1085 C 0.49578 0.06679 0.03772 0.0
O1086 O 0.51859 0.96741 0.03924 0.0
H1087 H 0.55547 0.00171 0.95108 0.0
H1088 H 0.53409 0.05359 0.10561 0.0
H1089 H 0.46676 0.98174 0.99579 0.0
O1090 O 0.52041 0.0691 0.05554 0.0
O1091 O 0.49401 0.04179 0.01944 0.0
H1092 H 0.63252 0.05695 0.07544 0.0
O1093 O 0.5527 0.05565 0.98643 0.0
O1094 O 0.57991 0.08076 0.02325 0.0
O1095 O 0.57722 0.98148 1.00492 0.0
O1096 O 0.60235 0.0068 0.04298 0.0
C1097 C 0.56966 0.08164 0.99635 0.0
H1098 H 0.55354 0.05149 0.15586 0.0
H1099 H 0.65487 0.05667 0.12657 0.0
H1100 H 0.5266 0.9949 0.90347 0.0
H1101 H 0.43583 0.97265 0.94879 0.0
C1102 C 0.234 0.24926 0.2543 0.0
N1103 N 0.28724 0.32813 0.21111 0.0
C1104 C 0.31884 0.34121 0.21217 0.0
C1105 C 0.33784 0.34079 0.18712 0.0
C1106 C 0.32361 0.32761 0.16094 0.0
C1107 C 0.28988 0.31798 0.1598 0.0
C1108 C 0.27218 0.3179 0.18542 0.0
Zn1109 Zn 0.26304 0.32036 0.24858 0.0
C1110 C 0.19043 0.33676 0.24053 0.0
N1111 N 0.21202 0.30785 0.32786 0.0
C1112 C 0.21474 0.275 0.34001 0.0
C1113 C 0.19927 0.33504 0.34311 0.0
C1114 C 0.19302 0.3308 0.37292 0.0
C1115 C 0.19972 0.29817 0.38679 0.0
C1116 C 0.20783 0.26938 0.36939 0.0
Zn1117 Zn 0.23518 0.31678 0.28932 0.0
O1118 O 0.25354 0.26566 0.23751 0.0
C1119 C 0.30761 0.29982 0.29768 0.0
O1120 O 0.22311 0.26508 0.2764 0.0
H1121 H 0.1969 0.36082 0.33299 0.0
H1122 H 0.33002 0.34988 0.23283 0.0
H1123 H 0.2253 0.25363 0.32799 0.0
O1124 O 0.30821 0.30597 0.2703 0.0
O1125 O 0.28011 0.30067 0.31051 0.0
H1126 H 0.24716 0.30743 0.18511 0.0
O1127 O 0.24846 0.36877 0.30183 0.0
O1128 O 0.27307 0.37378 0.25972 0.0
O1129 O 0.19068 0.33316 0.26836 0.0
O1130 O 0.21757 0.33432 0.22725 0.0
C1131 C 0.26566 0.38684 0.28426 0.0
H1132 H 0.36388 0.34808 0.18862 0.0
H1133 H 0.27832 0.30686 0.14007 0.0
H1134 H 0.18684 0.35386 0.3855 0.0
H1135 H 0.21282 0.24372 0.37918 0.0
C1136 C 0.61835 0.50282 0.05566 0.0
N1137 N 0.57856 0.55745 0.97955 0.0
C1138 C 0.61041 0.56887 0.97654 0.0
C1139 C 0.62474 0.56956 0.94871 0.0
C1140 C 0.60649 0.5579 0.92348 0.0
C1141 C 0.57301 0.54857 0.92713 0.0
C1142 C 0.55959 0.54858 0.95524 0.0
Zn1143 Zn 0.56122 0.53921 0.02023 0.0
C1144 C 0.54593 0.4601 0.00974 0.0
N1145 N 0.52674 0.49086 0.1009 0.0
C1146 C 0.54669 0.49573 0.12537 0.0
C1147 C 0.49375 0.48363 0.10369 0.0
C1148 C 0.47937 0.48395 0.13145 0.0
C1149 C 0.49901 0.49133 0.15697 0.0
C1150 C 0.53347 0.49561 0.15351 0.0
Zn1151 Zn 0.54483 0.50948 0.06077 0.0
O1152 O 0.61109 0.52255 0.03348 0.0
C1153 C 0.56033 0.58882 0.07182 0.0
O1154 O 0.59516 0.49334 0.07245 0.0
H1155 H 0.4779 0.48011 0.08425 0.0
H1156 H 0.62551 0.57531 0.9959 0.0
H1157 H 0.57262 0.50234 0.12313 0.0
O1158 O 0.56756 0.58984 0.04451 0.0
O1159 O 0.55162 0.55935 0.08276 0.0
H1160 H 0.53466 0.53858 0.95777 0.0
O1161 O 0.49512 0.52644 0.04765 0.0
O1162 O 0.51091 0.55455 0.00812 0.0
O1163 O 0.53901 0.45914 0.03705 0.0
O1164 O 0.55423 0.48941 0.99838 0.0
C1165 C 0.4878 0.54527 0.02503 0.0
H1166 H 0.65037 0.57795 0.94727 0.0
H1167 H 0.55774 0.53904 0.90881 0.0
H1168 H 0.45272 0.48054 0.13249 0.0
H1169 H 0.55016 0.50024 0.17225 0.0
C1170 C 0.78071 0.29333 0.24109 0.0
N1171 N 0.84787 0.21799 0.27692 0.0
C1172 C 0.84078 0.20206 0.25084 0.0
C1173 C 0.86383 0.18001 0.23855 0.0
C1174 C 0.89437 0.17322 0.2536 0.0
C1175 C 0.8989 0.18645 0.28235 0.0
C1176 C 0.8757 0.20973 0.29325 0.0
Zn1177 Zn 0.81356 0.25152 0.29148 0.0
C1178 C 0.83801 0.32489 0.29999 0.0
N1179 N 0.73464 0.31431 0.32274 0.0
C1180 C 0.70687 0.31444 0.30479 0.0
C1181 C 0.73227 0.3187 0.35235 0.0
C1182 C 0.70116 0.31709 0.36529 0.0
C1183 C 0.67255 0.31179 0.34734 0.0
C1184 C 0.6755 0.31345 0.31669 0.0
Zn1185 Zn 0.77364 0.28573 0.30697 0.0
O1186 O 0.80199 0.26929 0.24679 0.0
C1187 C 0.74877 0.21231 0.29499 0.0
O1188 O 0.76329 0.30437 0.262 0.0
H1189 H 0.75447 0.31933 0.36641 0.0
H1190 H 0.81763 0.20738 0.23893 0.0
H1191 H 0.70866 0.31058 0.28143 0.0
O1192 O 0.7789 0.20919 0.28815 0.0
O1193 O 0.73881 0.24229 0.30313 0.0
H1194 H 0.88041 0.22174 0.31446 0.0
O1195 O 0.78592 0.26736 0.35191 0.0
O1196 O 0.82572 0.23464 0.33604 0.0
O1197 O 0.8085 0.32837 0.30912 0.0
O1198 O 0.84835 0.29431 0.29355 0.0
C1199 C 0.80897 0.24517 0.35744 0.0
H1200 H 0.8582 0.17079 0.21652 0.0
H1201 H 0.92091 0.1807 0.29581 0.0
H1202 H 0.69989 0.31677 0.38904 0.0
H1203 H 0.65388 0.31083 0.30199 0.0
C1204 C 0.05927 0.4574 0.55569 0.0
N1205 N 0.09265 0.5546 0.58406 0.0
C1206 C 0.06929 0.54889 0.60458 0.0
C1207 C 0.07833 0.54531 0.63412 0.0
C1208 C 0.11185 0.54795 0.64328 0.0
C1209 C 0.13521 0.55734 0.6221 0.0
C1210 C 0.12505 0.56025 0.59235 0.0
Zn1211 Zn 0.07794 0.53636 0.54326 0.0
C1212 C 0.13074 0.50373 0.51004 0.0
N1213 N 0.03907 0.48686 0.46636 0.0
C1214 C 0.00947 0.46939 0.46601 0.0
C1215 C 0.05208 0.49939 0.44112 0.0
C1216 C 0.03368 0.49778 0.41465 0.0
C1217 C 1.00166 0.48281 0.41406 0.0
C1218 C 0.99026 0.46699 0.43991 0.0
Zn1219 Zn 0.058 0.50669 0.505 0.0
O1220 O 0.06854 0.48659 0.56683 0.0
C1221 C 1.00639 0.54587 0.5315 0.0
O1222 O 0.05314 0.45649 0.52797 0.0
H1223 H 0.0755 0.51347 0.44192 0.0
H1224 H 0.04397 0.54264 0.59806 0.0
H1225 H 0.99947 0.45983 0.48637 0.0
O1226 O 0.02985 0.55613 0.54859 0.0
O1227 O 0.01073 0.51981 0.51503 0.0
H1228 H 0.14347 0.56405 0.57583 0.0
O1229 O 0.06191 0.55795 0.48324 0.0
O1230 O 0.08696 0.58524 0.52017 0.0
O1231 O 0.10607 0.49463 0.49371 0.0
O1232 O 0.12606 0.5194 0.53419 0.0
C1233 C 0.07473 0.58606 0.49387 0.0
H1234 H 0.05928 0.53732 0.64906 0.0
H1235 H 0.1613 0.5605 0.62812 0.0
H1236 H 0.04352 0.51055 0.39542 0.0
H1237 H 0.96607 0.45445 0.44034 0.0
C1238 C 0.82589 0.7128 0.26982 0.0
N1239 N 0.77173 0.75507 0.33793 0.0
C1240 C 0.74889 0.72864 0.33684 0.0
C1241 C 0.73678 0.71484 0.36285 0.0
C1242 C 0.74936 0.72778 0.38992 0.0
C1243 C 0.76964 0.75797 0.38998 0.0
C1244 C 0.78067 0.77114 0.36357 0.0
Zn1245 Zn 0.79431 0.77154 0.30188 0.0
C1246 C 0.8688 0.78664 0.31623 0.0
N1247 N 0.84126 0.8092 0.22556 0.0
C1248 C 0.85639 0.78384 0.20974 0.0
C1249 C 0.82318 0.83494 0.21162 0.0
C1250 C 0.81228 0.83023 0.18263 0.0
C1251 C 0.82045 0.79901 0.1682 0.0
C1252 C 0.84524 0.77729 0.18087 0.0
Zn1253 Zn 0.82057 0.79211 0.26378 0.0
O1254 O 0.80669 0.7187 0.29088 0.0
C1255 C 0.74557 0.7768 0.25001 0.0
O1256 O 0.83495 0.73863 0.25413 0.0
H1257 H 0.81248 0.85608 0.22383 0.0
H1258 H 0.74159 0.71692 0.31599 0.0
H1259 H 0.87295 0.76513 0.22062 0.0
O1260 O 0.74705 0.76892 0.27727 0.0
O1261 O 0.77258 0.78573 0.238 0.0
H1262 H 0.79818 0.79281 0.36376 0.0
O1263 O 0.80503 0.8453 0.27507 0.0
O1264 O 0.78222 0.82268 0.31388 0.0
O1265 O 0.868 0.79779 0.28958 0.0
O1266 O 0.84183 0.77478 0.32655 0.0
C1267 C 0.78865 0.84931 0.29827 0.0
H1268 H 0.7205 0.69207 0.36187 0.0
H1269 H 0.78011 0.76898 0.41016 0.0
H1270 H 0.7949 0.84898 0.17274 0.0
H1271 H 0.85344 0.75379 0.1699 0.0
C1272 C 0.87768 0.28817 0.76487 0.0
N1273 N 0.78434 0.24981 0.73988 0.0
C1274 C 0.78734 0.2703 0.71544 0.0
C1275 C 0.78735 0.25505 0.68779 0.0
C1276 C 0.7854 0.21828 0.68537 0.0
C1277 C 0.77873 0.19817 0.7106 0.0
C1278 C 0.77789 0.2147 0.73783 0.0
Zn1279 Zn 0.80366 0.26963 0.77799 0.0
C1280 C 0.84104 0.21433 0.81282 0.0
N1281 N 0.84966 0.31116 0.85603 0.0
C1282 C 0.86001 0.34518 0.8589 0.0
C1283 C 0.8414 0.29179 0.88006 0.0
C1284 C 0.84061 0.30714 0.90775 0.0
C1285 C 0.84855 0.34295 0.91117 0.0
C1286 C 0.85984 0.3616 0.88645 0.0
Zn1287 Zn 0.83162 0.29095 0.8166 0.0
O1288 O 0.84919 0.27891 0.75451 0.0
C1289 C 0.79477 0.34641 0.78193 0.0
O1290 O 0.87987 0.29633 0.79227 0.0
H1291 H 0.83211 0.26522 0.87749 0.0
H1292 H 0.79301 0.29803 0.71736 0.0
H1293 H 0.86594 0.36044 0.83958 0.0
O1294 O 0.78498 0.32005 0.76702 0.0
O1295 O 0.81596 0.34194 0.80299 0.0
H1296 H 0.77532 0.19891 0.75751 0.0
O1297 O 0.78296 0.28484 0.83876 0.0
O1298 O 0.75773 0.26021 0.80091 0.0
O1299 O 0.84727 0.23995 0.82986 0.0
O1300 O 0.82304 0.21926 0.78972 0.0
C1301 C 0.75638 0.2717 0.82713 0.0
H1302 H 0.79119 0.27177 0.66879 0.0
H1303 H 0.77684 0.16973 0.70985 0.0
H1304 H 0.83123 0.29158 0.92573 0.0
H1305 H 0.86693 0.38908 0.88802 0.0
C1306 C 0.74727 0.72881 0.75132 0.0
N1307 N 0.83135 0.77507 0.71662 0.0
C1308 C 0.85271 0.74877 0.7249 0.0
C1309 C 0.87696 0.73764 0.70605 0.0
C1310 C 0.87782 0.7519 0.67749 0.0
C1311 C 0.85703 0.78084 0.67042 0.0
C1312 C 0.83421 0.79231 0.69057 0.0
Zn1313 Zn 0.79434 0.78801 0.7436 0.0
C1314 C 0.73282 0.81329 0.71336 0.0
N1315 N 0.72049 0.81336 0.80323 0.0
C1316 C 0.71387 0.78787 0.82341 0.0
C1317 C 0.71257 0.8476 0.80784 0.0
C1318 C 0.70478 0.85825 0.83601 0.0
C1319 C 0.70628 0.83323 0.85893 0.0
C1320 C 0.70578 0.79738 0.85168 0.0
Zn1321 Zn 0.756 0.80212 0.77454 0.0
O1322 O 0.77471 0.73608 0.73963 0.0
C1323 C 0.81664 0.77738 0.80565 0.0
O1324 O 0.73426 0.75149 0.76771 0.0
H1325 H 0.71714 0.86729 0.79112 0.0
H1326 H 0.85026 0.73517 0.74565 0.0
H1327 H 0.71993 0.76067 0.81932 0.0
O1328 O 0.82521 0.77465 0.7793 0.0
O1329 O 0.78672 0.78494 0.81069 0.0
H1330 H 0.8176 0.81377 0.68473 0.0
O1331 O 0.77855 0.85225 0.78107 0.0
O1332 O 0.81489 0.83921 0.74799 0.0
O1333 O 0.72608 0.82021 0.73977 0.0
O1334 O 0.76164 0.80187 0.70784 0.0
C1335 C 0.80454 0.86008 0.76735 0.0
H1336 H 0.89315 0.71628 0.71316 0.0
H1337 H 0.85623 0.79297 0.6488 0.0
H1338 H 0.70337 0.88614 0.84044 0.0
H1339 H 0.70516 0.77717 0.86863 0.0
C1340 C 0.53732 0.48787 0.48461 0.0
N1341 N 0.51261 0.43715 0.56358 0.0
C1342 C 0.48538 0.45805 0.56231 0.0
C1343 C 0.4547 0.44429 0.56936 0.0
C1344 C 0.45209 0.40848 0.5773 0.0
C1345 C 0.48109 0.3883 0.58065 0.0
C1346 C 0.51138 0.40331 0.57357 0.0
Zn1347 Zn 0.55425 0.45451 0.54595 0.0
C1348 C 0.57654 0.40283 0.50151 0.0
N1349 N 0.63922 0.48735 0.50495 0.0
C1350 C 0.64205 0.52217 0.49889 0.0
C1351 C 0.66493 0.46863 0.51712 0.0
C1352 C 0.69099 0.48635 0.5313 0.0
C1353 C 0.6922 0.52339 0.52987 0.0
C1354 C 0.66871 0.54085 0.5111 0.0
Zn1355 Zn 0.59601 0.4719 0.52083 0.0
O1356 O 0.52572 0.4766 0.5087 0.0
C1357 C 0.57189 0.52552 0.56125 0.0
O1358 O 0.5687 0.48846 0.48197 0.0
H1359 H 0.66209 0.44067 0.52114 0.0
H1360 H 0.48708 0.48459 0.55374 0.0
H1361 H 0.62137 0.53631 0.48862 0.0
O1362 O 0.55211 0.50131 0.56879 0.0
O1363 O 0.59051 0.52114 0.53975 0.0
H1364 H 0.53359 0.3873 0.57436 0.0
O1365 O 0.62317 0.4585 0.56267 0.0
O1366 O 0.58089 0.43495 0.58382 0.0
O1367 O 0.6014 0.4232 0.49996 0.0
O1368 O 0.55639 0.40746 0.52203 0.0
C1369 C 0.61053 0.44622 0.58589 0.0
H1370 H 0.433 0.4608 0.56592 0.0
H1371 H 0.48016 0.36079 0.5871 0.0
H1372 H 0.70843 0.47092 0.54451 0.0
H1373 H 0.66971 0.56885 0.50673 0.0
C1374 C 0.03156 0.52602 0.09513 0.0
N1375 N 0.09341 0.44253 0.06861 0.0
C1376 C 0.0966 0.44569 0.09837 0.0
C1377 C 0.08154 0.42072 0.11631 0.0
C1378 C 0.0657 0.39167 0.10304 0.0
C1379 C 0.07079 0.38512 0.07315 0.0
C1380 C 0.08524 0.41117 0.05612 0.0
Zn1381 Zn 0.06911 0.48327 0.04826 0.0
C1382 C 0.99646 0.46522 0.04038 0.0
N1383 N 0.01308 0.56449 0.01021 0.0
C1384 C 0.00915 0.5977 0.02029 0.0
C1385 C 0.99594 0.5525 0.98588 0.0
C1386 C 0.97467 0.57457 0.96993 0.0
C1387 C 0.97067 0.60903 0.97944 0.0
C1388 C 0.98771 0.62065 1.0051 0.0
Zn1389 Zn 0.041 0.52858 0.0314 0.0
O1390 O 0.05107 0.50026 0.09112 0.0
C1391 C 0.11329 0.54763 0.04128 0.0
O1392 O 0.02462 0.54623 0.07337 0.0
H1393 H 0.9983 0.5255 0.97894 0.0
H1394 H 0.10462 0.47049 0.10785 0.0
H1395 H 0.02275 0.60629 0.03988 0.0
O1396 O 0.11308 0.51603 0.05107 0.0
O1397 O 0.08567 0.56142 0.0325 0.0
H1398 H 0.08353 0.40882 0.03244 0.0
O1399 O 0.05649 0.51195 0.9889 0.0
O1400 O 0.08616 0.46735 1.00451 0.0
O1401 O 0.99716 0.49683 0.03141 0.0
O1402 O 0.02403 0.45014 0.04647 0.0
C1403 C 0.07636 0.48728 0.98323 0.0
H1404 H 0.07918 0.42609 0.1395 0.0
H1405 H 0.06044 0.36194 0.06244 0.0
H1406 H 0.96193 0.56508 0.95015 0.0
H1407 H 0.98559 0.64759 0.01253 0.0
C1408 C 0.05549 0.12565 0.12289 0.0
C1409 C 0.06289 0.15685 0.10793 0.0
H1410 H 0.04636 0.07048 0.11943 0.0
C1411 C 0.07054 0.15632 0.07815 0.0
H1412 H 0.05016 0.12583 0.1461 0.0
C1413 C 0.0689 0.12454 0.06293 0.0
C1414 C 0.05882 0.09372 0.07746 0.0
H1415 H 0.07696 0.18039 0.06667 0.0
H1416 H 0.0742 0.12425 0.03973 0.0
C1417 C 0.05305 0.09426 0.10765 0.0
C1418 C 0.15768 0.76841 0.33983 0.0
C1419 C 0.15546 0.77969 0.36918 0.0
H1420 H 0.1887 0.7577 0.30347 0.0
C1421 C 0.18546 0.78829 0.38451 0.0
H1422 H 0.13538 0.76144 0.32715 0.0
C1423 C 0.21644 0.78633 0.37069 0.0
C1424 C 0.2185 0.77536 0.34116 0.0
H1425 H 0.18498 0.79712 0.40708 0.0
H1426 H 0.2388 0.79375 0.3831 0.0
C1427 C 0.18851 0.76616 0.32616 0.0
C1428 C 0.52917 0.80001 0.60438 0.0
C1429 C 0.54358 0.78587 0.63033 0.0
H1430 H 0.53104 0.84025 0.57162 0.0
C1431 C 0.56973 0.80425 0.64478 0.0
H1432 H 0.50869 0.78675 0.59296 0.0
C1433 C 0.58392 0.83363 0.63172 0.0
C1434 C 0.57129 0.84617 0.6045 0.0
H1435 H 0.58112 0.79438 0.66508 0.0
H1436 H 0.60566 0.84538 0.64239 0.0
C1437 C 0.54265 0.83015 0.59178 0.0
C1438 C 0.46574 0.28881 0.84602 0.0
C1439 C 0.4651 0.27793 0.8758 0.0
H1440 H 0.43799 0.29814 0.80521 0.0
C1441 C 0.43394 0.26781 0.88659 0.0
H1442 H 0.48895 0.29707 0.83672 0.0
C1443 C 0.40477 0.2684 0.86854 0.0
C1444 C 0.40524 0.27942 0.83887 0.0
H1445 H 0.43191 0.25934 0.90926 0.0
H1446 H 0.38163 0.26019 0.87804 0.0
C1447 C 0.43631 0.28965 0.82791 0.0
C1448 C 0.06873 0.87024 0.47878 0.0
C1449 C 0.05444 0.87176 0.45008 0.0
H1450 H 0.07795 0.89685 0.51994 0.0
C1451 C 0.04035 0.90382 0.44033 0.0
H1452 H 0.08123 0.84652 0.48652 0.0
C1453 C 0.03924 0.93301 0.45926 0.0
C1454 C 0.0519 0.9308 0.48853 0.0
H1455 H 0.02988 0.90621 0.41814 0.0
H1456 H 0.02828 0.95736 0.45105 0.0
C1457 C 0.06689 0.89909 0.49795 0.0
C1458 C 0.4999 0.68465 0.73111 0.0
C1459 C 0.49668 0.66221 0.70688 0.0
H1460 H 0.47543 0.70846 0.76655 0.0
C1461 C 0.46911 0.63968 0.70418 0.0
H1462 H 0.52101 0.70232 0.73351 0.0
C1463 C 0.4436 0.64185 0.72395 0.0
C1464 C 0.44438 0.66806 0.74562 0.0
H1465 H 0.46607 0.62191 0.68585 0.0
H1466 H 0.42202 0.62505 0.7206 0.0
C1467 C 0.47372 0.68793 0.75018 0.0
C1468 C 0.55008 0.15222 0.93778 0.0
C1469 C 0.56777 0.18148 0.94884 0.0
H1470 H 0.53734 0.09769 0.94361 0.0
C1471 C 0.58923 0.17642 0.97364 0.0
H1472 H 0.53277 0.15539 0.91918 0.0
C1473 C 0.59149 0.14354 0.98809 0.0
C1474 C 0.57247 0.1146 0.97803 0.0
H1475 H 0.60308 0.19846 0.98282 0.0
H1476 H 0.60701 0.14128 0.00794 0.0
C1477 C 0.55262 0.11915 0.95201 0.0
C1478 C 0.10515 0.30356 0.22317 0.0
C1479 C 0.10792 0.29572 0.19325 0.0
H1480 H 0.12878 0.32504 0.26171 0.0
C1481 C 0.1339 0.31066 0.17756 0.0
H1482 H 0.08466 0.29328 0.23553 0.0
C1483 C 0.15935 0.32897 0.1926 0.0
C1484 C 0.15887 0.33255 0.22341 0.0
H1485 H 0.13609 0.30561 0.15429 0.0
H1486 H 0.18088 0.33712 0.18055 0.0
C1487 C 0.13026 0.3222 0.2381 0.0
C1488 C 0.1166 0.98774 0.17488 0.0
C1489 C 0.148 0.00417 0.17564 0.0
H1490 H 0.07633 0.96679 0.14827 0.0
C1491 C 0.16427 0.00891 0.14895 0.0
H1492 H 0.10342 0.98346 0.19497 0.0
C1493 C 0.1488 0.99914 0.12208 0.0
C1494 C 0.11663 0.98435 0.12117 0.0
H1495 H 0.18855 0.02129 0.14867 0.0
H1496 H 0.1615 0.00467 0.10191 0.0
C1497 C 0.10113 0.97796 0.14802 0.0
C1498 C 0.33768 0.85751 0.49178 0.0
C1499 C 0.32695 0.89271 0.49188 0.0
H1500 H 0.35426 0.81428 0.46632 0.0
C1501 C 0.32407 0.9112 0.46501 0.0
H1502 H 0.34095 0.84275 0.51215 0.0
C1503 C 0.33142 0.89476 0.43861 0.0
C1504 C 0.3423 0.85955 0.43846 0.0
H1505 H 0.31607 0.93844 0.46436 0.0
H1506 H 0.3279 0.90953 0.41828 0.0
C1507 C 0.3455 0.84123 0.46545 0.0
C1508 C 0.51241 0.99638 0.67786 0.0
C1509 C 0.48108 0.01287 0.67713 0.0
H1510 H 0.55708 0.98564 0.65474 0.0
C1511 C 0.47233 0.03457 0.653 0.0
H1512 H 0.51984 0.97961 0.69631 0.0
C1513 C 0.49437 0.03957 0.63004 0.0
C1514 C 0.52508 0.02165 0.62989 0.0
H1515 H 0.44851 0.04785 0.65196 0.0
H1516 H 0.48646 0.05612 0.61159 0.0
C1517 C 0.53387 1.00007 0.6542 0.0
C1518 C 0.26489 0.1755 0.96539 0.0
C1519 C 0.28878 0.14865 0.96782 0.0
H1520 H 0.23602 0.20874 0.93657 0.0
C1521 C 0.29739 0.13007 0.94266 0.0
H1522 H 0.25752 0.19011 0.98444 0.0
C1523 C 0.28575 0.14167 0.91496 0.0
C1524 C 0.265 0.17137 0.91256 0.0
H1525 H 0.31546 0.10896 0.94415 0.0
H1526 H 0.29587 0.12996 0.89555 0.0
C1527 C 0.25235 0.18607 0.93799 0.0
C1528 C 0.13372 0.06164 0.3434 0.0
C1529 C 0.16801 0.05458 0.34319 0.0
H1530 H 0.0913 0.07211 0.36914 0.0
C1531 C 0.18552 0.05141 0.37042 0.0
H1532 H 0.11949 0.06483 0.3229 0.0
C1533 C 0.16931 0.05503 0.39704 0.0
C1534 C 0.13504 0.06256 0.39746 0.0
H1535 H 0.21194 0.04589 0.37124 0.0
H1536 H 0.18379 0.0513 0.41732 0.0
C1537 C 0.11753 0.06583 0.3701 0.0
C1538 C 0.31123 0.8116 0.65823 0.0
C1539 C 0.29957 0.84657 0.65657 0.0
H1540 H 0.31733 0.76446 0.68452 0.0
C1541 C 0.28165 0.85938 0.68021 0.0
H1542 H 0.32505 0.80087 0.64034 0.0
C1543 C 0.27567 0.83782 0.70486 0.0
C1544 C 0.28891 0.80344 0.70736 0.0
H1545 H 0.27206 0.88603 0.67957 0.0
H1546 H 0.26202 0.84878 0.72272 0.0
C1547 C 0.30661 0.7906 0.6835 0.0
C1548 C 0.4119 0.00436 0.86338 0.0
C1549 C 0.42758 0.99393 0.83778 0.0
H1550 H 0.41596 0.00998 0.91009 0.0
C1551 C 0.45892 0.9778 0.84023 0.0
H1552 H 0.38761 0.01663 0.86205 0.0
C1553 C 0.47468 0.97287 0.86769 0.0
C1554 C 0.4598 0.98464 0.89334 0.0
H1555 H 0.47118 0.9686 0.82088 0.0
H1556 H 0.49872 0.96008 0.86873 0.0
C1557 C 0.42801 1.0001 0.8909 0.0
C1558 C 0.33856 0.29175 0.08846 0.0
C1559 C 0.3515 0.25913 0.09808 0.0
H1560 H 0.32042 0.34176 0.10205 0.0
C1561 C 0.36661 0.25621 0.12621 0.0
H1562 H 0.32752 0.29493 0.06654 0.0
C1563 C 0.3636 0.28358 0.14613 0.0
C1564 C 0.34451 0.3133 0.13817 0.0
H1565 H 0.37768 0.23162 0.13377 0.0
H1566 H 0.37143 0.27892 0.16887 0.0
C1567 C 0.33499 0.31885 0.10857 0.0
C1568 C 0.24569 0.0917 0.07728 0.0
C1569 C 0.25751 0.11955 0.0602 0.0
H1570 H 0.20995 0.04993 0.07989 0.0
C1571 C 0.24011 0.1294 0.03431 0.0
H1572 H 0.25789 0.08484 0.09814 0.0
C1573 C 0.21426 0.10898 0.02311 0.0
C1574 C 0.2036 0.07933 0.03873 0.0
H1575 H 0.24718 0.15256 0.02219 0.0
H1576 H 0.20342 0.11605 1.00177 0.0
C1577 C 0.21854 0.07176 0.06667 0.0
C1578 C 0.71147 0.49121 0.04703 0.0
C1579 C 0.72001 0.46417 0.0674 0.0
H1580 H 0.67371 0.52431 0.02757 0.0
C1581 C 0.6945 0.45006 0.08446 0.0
H1582 H 0.73009 0.50289 0.0333 0.0
C1583 C 0.66158 0.46289 0.08123 0.0
C1584 C 0.65333 0.4899 0.0607 0.0
H1585 H 0.69999 0.4294 0.10044 0.0
H1586 H 0.64254 0.45139 0.09461 0.0
C1587 C 0.67886 0.50369 0.04369 0.0
C1588 C 0.8531 0.40369 0.25072 0.0
C1589 C 0.88264 0.41798 0.2627 0.0
H1590 H 0.81568 0.36383 0.25428 0.0
C1591 C 0.89965 0.39948 0.28564 0.0
H1592 H 0.83997 0.41679 0.23255 0.0
C1593 C 0.88585 0.36867 0.29786 0.0
C1594 C 0.8548 0.35617 0.28734 0.0
H1595 H 0.9229 0.40964 0.29488 0.0
H1596 H 0.89879 0.35541 0.31603 0.0
C1597 C 0.83922 0.3734 0.26314 0.0
C1598 C 0.94619 0.62159 0.53151 0.0
C1599 C 0.93053 0.61741 0.50361 0.0
H1600 H 0.98152 0.60022 0.56318 0.0
C1601 C 0.94384 0.59398 0.48359 0.0
H1602 H 0.93647 0.63978 0.54729 0.0
C1603 C 0.96816 0.5704 0.49312 0.0
C1604 C 0.98045 0.57092 0.52247 0.0
H1605 H 0.93227 0.59061 0.46191 0.0
H1606 H 0.97657 0.55107 0.47761 0.0
C1607 C 0.97102 0.59818 0.541 0.0
C1608 C 0.1889 0.16253 0.26337 0.0
C1609 C 0.20867 0.13932 0.24786 0.0
H1610 H 0.18168 0.21524 0.27775 0.0
C1611 C 0.23472 0.15294 0.23129 0.0
H1612 H 0.16807 0.15273 0.27556 0.0
C1613 C 0.24237 0.18912 0.23207 0.0
C1614 C 0.22405 0.21198 0.24951 0.0
H1615 H 0.24949 0.13554 0.21824 0.0
H1616 H 0.26337 0.19885 0.22009 0.0
C1617 C 0.19673 0.19833 0.26451 0.0
C1618 C 0.42448 0.91703 0.55159 0.0
C1619 C 0.40708 0.93611 0.5727 0.0
H1620 H 0.46816 0.91414 0.52533 0.0
C1621 C 0.42273 0.96537 0.58575 0.0
H1622 H 0.41339 0.89372 0.54172 0.0
C1623 C 0.4535 0.97734 0.57593 0.0
C1624 C 0.46999 0.95979 0.5535 0.0
H1625 H 0.41064 0.97975 0.60286 0.0
H1626 H 0.46419 0.00091 0.58554 0.0
C1627 C 0.45574 0.9287 0.54213 0.0
C1628 C 0.87358 0.63438 0.23897 0.0
C1629 C 0.86772 0.60836 0.2604 0.0
H1630 H 0.86457 0.68801 0.2248 0.0
C1631 C 0.8487 0.61761 0.28469 0.0
H1632 H 0.88786 0.62821 0.21993 0.0
C1633 C 0.83492 0.651 0.28713 0.0
C1634 C 0.83993 0.6769 0.26563 0.0
H1635 H 0.84388 0.59866 0.30199 0.0
H1636 H 0.82039 0.65649 0.3062 0.0
C1637 C 0.85986 0.66845 0.24163 0.0
C1638 C 0.77565 0.44299 0.78963 0.0
C1639 C 0.74653 0.4468 0.77181 0.0
H1640 H 0.81377 0.40863 0.8065 0.0
C1641 C 0.73425 0.41749 0.75615 0.0
H1642 H 0.78597 0.46495 0.80201 0.0
C1643 C 0.7506 0.38502 0.75856 0.0
C1644 C 0.77935 0.38127 0.77685 0.0
H1645 H 0.71208 0.41961 0.74205 0.0
H1646 H 0.7403 0.36272 0.74661 0.0
C1647 C 0.79177 0.41065 0.79217 0.0
C1648 C 0.03275 0.84735 0.97718 0.0
C1649 C 0.02059 0.8628 0.95068 0.0
H1650 H 0.05575 0.85619 0.01996 0.0
C1651 C 0.02808 0.89807 0.9447 0.0
H1652 H 0.02903 0.81954 0.98149 0.0
C1653 C 0.04484 0.91832 0.96597 0.0
C1654 C 0.05411 0.90376 0.99358 0.0
H1655 H 0.02006 0.91022 0.92403 0.0
H1656 H 0.04903 0.94595 0.96142 0.0
C1657 C 0.04866 0.86793 0.99889 0.0
C1658 C 0.92787 0.27648 0.69466 0.0
C1659 C 0.96154 0.2788 0.7043 0.0
H1660 H 0.87637 0.27777 0.70523 0.0
C1661 C 0.96751 0.28572 0.73466 0.0
H1662 H 0.92156 0.27122 0.67177 0.0
C1663 C 0.9409 0.28976 0.75436 0.0
C1664 C 0.90724 0.28694 0.74452 0.0
H1665 H 0.99283 0.2878 0.74332 0.0
H1666 H 0.94677 0.29448 0.77741 0.0
C1667 C 0.90156 0.28036 0.71417 0.0
C1668 C 0.44861 0.19932 0.45506 0.0
C1669 C 0.46922 0.22881 0.45839 0.0
H1670 H 0.4371 0.14782 0.4708 0.0
C1671 C 0.4917 0.2312 0.48242 0.0
H1672 H 0.43036 0.19777 0.43702 0.0
C1673 C 0.49664 0.20235 0.50093 0.0
C1674 C 0.47841 0.17114 0.496 0.0
H1675 H 0.50746 0.25421 0.48543 0.0
H1676 H 0.5168 0.20371 0.51725 0.0
C1677 C 0.45258 0.17091 0.47432 0.0
C1678 C 0.6777 0.77364 0.18761 0.0
C1679 C 0.6485 0.78179 0.20255 0.0
H1680 H 0.73075 0.76459 0.1908 0.0
C1681 C 0.65198 0.78796 0.23309 0.0
H1682 H 0.67627 0.76813 0.16427 0.0
C1683 C 0.68314 0.78591 0.24816 0.0
C1684 C 0.71234 0.77798 0.23334 0.0
H1685 H 0.63037 0.79401 0.24567 0.0
H1686 H 0.68436 0.7909 0.27159 0.0
C1687 C 0.70909 0.77184 0.20279 0.0
C1688 C 0.04953 0.14735 0.63913 0.0
C1689 C 0.05918 0.18101 0.62953 0.0
H1690 H 0.04423 0.09242 0.62898 0.0
C1691 C 0.07408 0.18364 0.60191 0.0
H1692 H 0.03845 0.14412 0.66036 0.0
C1693 C 0.07746 0.15397 0.58367 0.0
C1694 C 0.06652 0.12044 0.59268 0.0
H1695 H 0.08273 0.20898 0.59411 0.0
H1696 H 0.0882 0.15746 0.56233 0.0
C1697 C 0.05294 0.11764 0.62096 0.0
C1698 C 0.59424 0.31096 0.39185 0.0
C1699 C 0.57441 0.28725 0.37532 0.0
H1700 H 0.64105 0.33834 0.39546 0.0
C1701 C 0.58901 0.26747 0.35332 0.0
H1702 H 0.5835 0.32649 0.40895 0.0
C1703 C 0.62171 0.27398 0.34577 0.0
C1704 C 0.64035 0.3009 0.35969 0.0
H1705 H 0.57426 0.24895 0.34033 0.0
H1706 H 0.63178 0.25926 0.3278 0.0
C1707 C 0.62705 0.31795 0.38397 0.0
C1708 C 0.50639 0.87354 0.09073 0.0
C1709 C 0.52778 0.86749 0.11571 0.0
H1710 H 0.48968 0.90857 0.05607 0.0
C1711 C 0.54771 0.89593 0.1255 0.0
H1712 H 0.49037 0.85282 0.0821 0.0
C1713 C 0.54674 0.92874 0.11036 0.0
C1714 C 0.52611 0.93399 0.08479 0.0
H1715 H 0.56451 0.89269 0.14444 0.0
H1716 H 0.56313 0.94965 0.11809 0.0
C1717 C 0.50577 0.90588 0.07555 0.0
C1718 C 0.86247 0.80937 0.87417 0.0
C1719 C 0.89573 0.80555 0.86608 0.0
H1720 H 0.81101 0.80265 0.86167 0.0
C1721 C 0.90222 0.7891 0.8393 0.0
H1722 H 0.8566 0.82094 0.89505 0.0
C1723 C 0.87631 0.77694 0.82105 0.0
C1724 C 0.84307 0.7818 0.82858 0.0
H1725 H 0.92745 0.78478 0.83256 0.0
H1726 H 0.88242 0.76494 0.80038 0.0
C1727 C 0.83636 0.7979 0.85547 0.0
C1728 C 0.94607 0.02105 0.93788 0.0
C1729 C 0.95884 0.0123 0.91038 0.0
H1730 H 0.95583 0.02772 0.9843 0.0
C1731 C 0.99318 0.00589 0.909 0.0
H1732 H 0.91995 0.02713 0.93974 0.0
C1733 C 0.01381 0.00675 0.93456 0.0
C1734 C 1.00062 0.01366 0.96225 0.0
H1735 H 1.00408 0.99947 0.88826 0.0
H1736 H 0.03996 0.00081 0.93273 0.0
C1737 C 0.96664 0.02164 0.96344 0.0
C1738 C 0.82465 0.20026 0.61244 0.0
C1739 C 0.80816 0.16938 0.60371 0.0
H1740 H 0.83135 0.23919 0.64563 0.0
C1741 C 0.7851 0.15372 0.62233 0.0
H1742 H 0.84258 0.21268 0.59842 0.0
C1743 C 0.77749 0.16961 0.64875 0.0
C1744 C 0.79335 0.20107 0.65734 0.0
H1745 H 0.77165 0.1301 0.61582 0.0
H1746 H 0.75853 0.15772 0.66198 0.0
C1747 C 0.81768 0.21569 0.63923 0.0
C1748 C 0.63551 0.98042 0.42205 0.0
C1749 C 0.62843 0.00873 0.40274 0.0
H1750 H 0.62387 0.95371 0.46224 0.0
C1751 C 0.60179 0.03105 0.40885 0.0
H1752 H 0.65591 0.96277 0.41787 0.0
C1753 C 0.58414 0.02664 0.43481 0.0
C1754 C 0.59231 0.99937 0.45505 0.0
H1755 H 0.59591 0.0532 0.39444 0.0
H1756 H 0.56513 0.04569 0.43967 0.0
C1757 C 0.61715 0.9753 0.44752 0.0
C1758 C 0.74858 0.7934 0.11366 0.0
C1759 C 0.76555 0.78679 0.08797 0.0
H1760 H 0.7537 0.80483 0.15927 0.0
C1761 C 0.79788 0.77286 0.09023 0.0
H1762 H 0.72349 0.80381 0.11238 0.0
C1763 C 0.81572 0.77416 0.11713 0.0
C1764 C 0.80066 0.78823 0.1418 0.0
H1765 H 0.81133 0.7673 0.07055 0.0
H1766 H 0.84199 0.76792 0.11775 0.0
C1767 C 0.76626 0.79491 0.14039 0.0
C1768 C 0.94673 0.98927 0.71803 0.0
C1769 C 0.96347 0.01019 0.7392 0.0
H1770 H 0.94757 0.9652 0.67579 0.0
C1771 C 0.99437 0.0248 0.7325 0.0
H1772 H 0.92307 0.97713 0.72276 0.0
C1773 C 0.00811 0.01886 0.70506 0.0
C1774 C 0.99182 0.99718 0.6839 0.0
H1775 H 0.0078 0.04108 0.74837 0.0
H1776 H 0.03142 0.03173 0.70049 0.0
C1777 C 0.96085 0.98249 0.69093 0.0
C1778 C 0.82919 0.17324 0.41401 0.0
C1779 C 0.80494 0.17867 0.43503 0.0
H1780 H 0.85123 0.19125 0.37431 0.0
C1781 C 0.78574 0.20957 0.43287 0.0
H1782 H 0.84486 0.15008 0.41543 0.0
C1783 C 0.78888 0.23303 0.40891 0.0
C1784 C 0.81184 0.22652 0.38678 0.0
H1785 H 0.76718 0.21475 0.44899 0.0
H1786 H 0.77199 0.25515 0.40685 0.0
C1787 C 0.83313 0.19723 0.39063 0.0
C1788 C 0.60741 0.04241 0.2286 0.0
C1789 C 0.6357 0.02161 0.23358 0.0
H1790 H 0.57766 0.07157 0.19759 0.0
C1791 C 0.6553 0.01242 0.20997 0.0
H1792 H 0.59283 0.05106 0.24681 0.0
C1793 C 0.64604 0.02309 0.1814 0.0
C1794 C 0.61777 0.04438 0.17623 0.0
H1795 H 0.67778 0.99712 0.21368 0.0
H1796 H 0.66086 0.01427 0.16346 0.0
C1797 C 0.59892 0.05431 0.20035 0.0
C1798 C 0.76324 0.83618 0.92638 0.0
C1799 C 0.75452 0.86829 0.93881 0.0
H1800 H 0.7549 0.80003 0.89156 0.0
C1801 C 0.7286 0.88835 0.92565 0.0
H1802 H 0.78309 0.82025 0.93613 0.0
C1803 C 0.71136 0.87615 0.9006 0.0
C1804 C 0.72003 0.8439 0.88811 0.0
H1805 H 0.7209 0.91293 0.93525 0.0
H1806 H 0.69148 0.89205 0.89091 0.0
C1807 C 0.7464 0.82426 0.9012 0.0
C1808 C 0.84597 0.92628 0.07438 0.0
C1809 C 0.84976 0.89886 0.05422 0.0
H1810 H 0.87097 0.9649 0.10155 0.0
C1811 C 0.8807 0.88243 0.05277 0.0
H1812 H 0.82165 0.93602 0.07924 0.0
C1813 C 0.90781 0.89537 0.06899 0.0
C1814 C 0.90539 0.92673 0.08488 0.0
H1815 H 0.88401 0.85947 0.03914 0.0
H1816 H 0.93105 0.88186 0.06761 0.0
C1817 C 0.87387 0.94145 0.08847 0.0
C1818 C 0.4069 0.57643 0.98664 0.0
C1819 C 0.38684 0.58325 0.01071 0.0
H1820 H 0.4549 0.56008 0.9722 0.0
C1821 C 0.40026 0.57727 0.03927 0.0
H1822 H 0.3972 0.58063 0.96437 0.0
C1823 C 0.43262 0.56415 0.04369 0.0
C1824 C 0.45298 0.55792 0.01973 0.0
H1825 H 0.38535 0.58188 0.05826 0.0
H1826 H 0.44194 0.55944 0.066 0.0
C1827 C 0.43987 0.56462 0.99112 0.0
C1828 C 0.18665 0.63867 0.81406 0.0
C1829 C 0.20091 0.60538 0.81001 0.0
H1830 H 0.19287 0.69481 0.81116 0.0
C1831 C 0.23081 0.60355 0.79494 0.0
H1832 H 0.16298 0.64086 0.82456 0.0
C1833 C 0.2476 0.63432 0.78652 0.0
C1834 C 0.23492 0.66782 0.79294 0.0
H1835 H 0.2416 0.57821 0.79012 0.0
H1836 H 0.27134 0.63177 0.7762 0.0
C1837 C 0.20365 0.66956 0.80602 0.0
C1838 C 0.22316 0.49238 0.51414 0.0
C1839 C 0.22669 0.4652 0.49383 0.0
H1840 H 0.18918 0.52574 0.53573 0.0
C1841 C 0.20038 0.45673 0.47426 0.0
H1842 H 0.24336 0.49887 0.52958 0.0
C1843 C 0.16923 0.4716 0.47802 0.0
C1844 C 0.16445 0.49481 0.50146 0.0
H1845 H 0.20274 0.43541 0.45874 0.0
H1846 H 0.14843 0.4624 0.46436 0.0
C1847 C 0.19204 0.50706 0.51809 0.0
C1848 C 0.84319 0.94618 0.79213 0.0
C1849 C 0.87118 0.93428 0.80884 0.0
H1850 H 0.79923 0.932 0.76656 0.0
C1851 C 0.87772 0.89808 0.81032 0.0
H1852 H 0.83859 0.97409 0.78915 0.0
C1853 C 0.85621 0.87428 0.79597 0.0
C1854 C 0.82768 0.88621 0.7802 0.0
H1855 H 0.89954 0.88825 0.82233 0.0
H1856 H 0.86169 0.84642 0.7974 0.0
C1857 C 0.82106 0.9223 0.77862 0.0
C1858 C 0.68781 0.11358 0.52047 0.0
C1859 C 0.71814 0.0956 0.5248 0.0
H1860 H 0.63481 0.11254 0.52386 0.0
C1861 C 0.71762 0.06257 0.53908 0.0
H1862 H 0.6874 0.13956 0.51042 0.0
C1863 C 0.68734 0.047 0.5471 0.0
C1864 C 0.6568 0.06445 0.54168 0.0
H1865 H 0.74067 0.04884 0.54424 0.0
H1866 H 0.68788 0.02109 0.55725 0.0
C1867 C 0.65763 0.09816 0.5285 0.0
C1868 C 0.24561 0.40617 0.84838 0.0
C1869 C 0.23112 0.42669 0.82555 0.0
H1870 H 0.27425 0.36008 0.85993 0.0
C1871 C 0.23598 0.41705 0.79623 0.0
H1872 H 0.24255 0.41335 0.87114 0.0
C1873 C 0.25529 0.38766 0.78983 0.0
C1874 C 0.26925 0.36672 0.81263 0.0
H1875 H 0.22559 0.43285 0.77823 0.0
H1876 H 0.25865 0.38083 0.76702 0.0
C1877 C 0.26392 0.37598 0.84198 0.0
C1878 C 0.36749 0.62179 0.30206 0.0
C1879 C 0.37455 0.61172 0.33142 0.0
H1880 H 0.34773 0.6617 0.27265 0.0
C1881 C 0.36784 0.63555 0.35396 0.0
H1882 H 0.37185 0.6037 0.28429 0.0
C1883 C 0.35448 0.66879 0.34731 0.0
C1884 C 0.34656 0.67855 0.31803 0.0
H1885 H 0.37274 0.62836 0.3768 0.0
H1886 H 0.34977 0.68664 0.36517 0.0
C1887 C 0.35323 0.65473 0.29545 0.0
C1888 C 0.59222 0.61722 0.58574 0.0
C1889 C 0.58636 0.61427 0.6158 0.0
H1890 H 0.59187 0.59064 0.54442 0.0
C1891 C 0.57871 0.5817 0.6284 0.0
H1892 H 0.59886 0.64235 0.57605 0.0
C1893 C 0.57367 0.55265 0.61039 0.0
C1894 C 0.57724 0.55602 0.5799 0.0
H1895 H 0.57474 0.57924 0.65179 0.0
H1896 H 0.56667 0.52772 0.62023 0.0
C1897 C 0.58804 0.58796 0.5678 0.0
C1898 C 0.69087 0.28576 0.88653 0.0
C1899 C 0.66068 0.2771 0.87151 0.0
H1900 H 0.74423 0.29104 0.88476 0.0
C1901 C 0.66276 0.26547 0.8422 0.0
H1902 H 0.69061 0.29484 0.90904 0.0
C1903 C 0.69355 0.2629 0.82834 0.0
C1904 C 0.72373 0.27213 0.84306 0.0
H1905 H 0.64036 0.25843 0.82969 0.0
H1906 H 0.69356 0.25419 0.80571 0.0
C1907 C 0.72179 0.28351 0.87252 0.0
C1908 C 0.0277 0.33191 0.15941 0.0
C1909 C 1.00235 0.31619 0.14176 0.0
H1910 H 0.0696 0.36692 0.16006 0.0
C1911 C 0.99198 0.33322 0.11555 0.0
H1912 H 0.0351 0.3207 0.18058 0.0
C1913 C 0.0114 0.36006 0.10405 0.0
C1914 C 0.04114 0.37033 0.11881 0.0
H1915 H 0.97158 0.32282 0.10203 0.0
H1916 H 1.00459 0.37072 0.08251 0.0
C1917 C 0.04762 0.35833 0.14765 0.0
C1918 C 0.96131 0.79306 0.34239 0.0
C1919 C 0.96016 0.78338 0.37244 0.0
H1920 H 0.93405 0.8021 0.30127 0.0
C1921 C 0.9286 0.77513 0.38336 0.0
H1922 H 0.98486 0.79986 0.33297 0.0
C1923 C 0.89954 0.77641 0.36521 0.0
C1924 C 0.90051 0.78625 0.33527 0.0
H1925 H 0.92617 0.76766 0.40623 0.0
H1926 H 0.87607 0.76971 0.37487 0.0
C1927 C 0.93199 0.79455 0.32416 0.0
C1928 C 0.53928 0.39926 0.94292 0.0
C1929 C 0.55543 0.36851 0.95324 0.0
H1930 H 0.52299 0.45176 0.95277 0.0
C1931 C 0.56891 0.36851 0.98227 0.0
H1932 H 0.5293 0.40059 0.92052 0.0
C1933 C 0.56439 0.39737 1.0011 0.0
C1934 C 0.54728 0.42768 0.9911 0.0
H1935 H 0.58287 0.34596 0.99053 0.0
H1936 H 0.5751 0.39634 0.02327 0.0
C1937 C 0.53539 0.42845 0.96153 0.0
C1938 C 0.94107 0.14961 0.18734 0.0
C1939 C 0.97089 0.16736 0.194 0.0
H1940 H 0.89449 0.13226 0.20289 0.0
C1941 C 0.97925 0.17537 0.22337 0.0
H1942 H 0.93453 0.14187 0.16503 0.0
C1943 C 0.95548 0.17219 0.24467 0.0
C1944 C 0.92316 0.16025 0.23694 0.0
H1945 H 1.0026 0.1882 0.22931 0.0
H1946 H 0.96173 0.18335 0.26592 0.0
C1947 C 0.91789 0.14468 0.20909 0.0
C1948 C 0.04469 0.65586 0.43782 0.0
C1949 C 0.06259 0.68588 0.44699 0.0
H1950 H 0.03482 0.60085 0.44504 0.0
C1951 C 0.08629 0.68219 0.47032 0.0
H1952 H 0.02572 0.658 0.42041 0.0
C1953 C 0.09105 0.64972 0.48497 0.0
C1954 C 0.07248 0.61982 0.47647 0.0
H1955 H 0.10032 0.7049 0.47804 0.0
H1956 H 0.10872 0.64829 0.50345 0.0
C1957 C 0.04982 0.62317 0.45216 0.0
C1958 C 0.6831 0.75888 0.66036 0.0
C1959 C 0.65272 0.75959 0.67454 0.0
H1960 H 0.73347 0.77727 0.66108 0.0
C1961 C 0.64684 0.78602 0.695 0.0
H1962 H 0.68773 0.73909 0.64396 0.0
C1963 C 0.67217 0.80914 0.70356 0.0
C1964 C 0.70444 0.80463 0.69321 0.0
H1965 H 0.62315 0.78765 0.70555 0.0
H1966 H 0.66749 0.82744 0.72111 0.0
C1967 C 0.70904 0.7812 0.6698 0.0
C1968 C 0.61862 0.46496 0.66847 0.0
C1969 C 0.64799 0.48522 0.6707 0.0
H1970 H 0.58434 0.43595 0.64058 0.0
C1971 C 0.6668 0.48894 0.64523 0.0
H1972 H 0.60348 0.46124 0.68749 0.0
C1973 C 0.65593 0.47416 0.6182 0.0
C1974 C 0.62592 0.45491 0.61568 0.0
H1975 H 0.68962 0.50417 0.64594 0.0
H1976 H 0.67045 0.47911 0.59896 0.0
C1977 C 0.6078 0.45004 0.64147 0.0
C1978 C 0.83612 0.35886 0.99282 0.0
C1979 C 0.82443 0.39369 0.99275 0.0
H1980 H 0.85463 0.31624 0.96772 0.0
C1981 C 0.82167 0.41209 0.96582 0.0
H1982 H 0.83938 0.34426 0.01328 0.0
C1983 C 0.82998 0.39589 0.93953 0.0
C1984 C 0.84188 0.36103 0.9395 0.0
H1985 H 0.81294 0.43907 0.96503 0.0
H1986 H 0.82643 0.41062 0.91918 0.0
C1987 C 0.84502 0.34285 0.96661 0.0
C1988 C 0.9602 0.54092 0.14723 0.0
C1989 C 0.97071 0.52183 0.17246 0.0
H1990 H 0.97216 0.5592 0.10397 0.0
C1991 C 1.00269 0.50676 0.17297 0.0
H1992 H 0.93591 0.55319 0.14623 0.0
C1993 C 0.02299 0.50919 0.1484 0.0
C1994 C 0.01251 0.52805 0.12297 0.0
H1995 H 0.01164 0.49203 0.19213 0.0
H1996 H 0.04674 0.49576 0.14916 0.0
C1997 C 0.98117 0.54469 0.12314 0.0
C1998 C 0.77512 0.65042 0.43473 0.0
C1999 C 0.78325 0.66675 0.46163 0.0
H2000 H 0.75649 0.65669 0.39097 0.0
C2001 C 0.77087 0.70056 0.46703 0.0
H2002 H 0.78319 0.62387 0.43014 0.0
C2003 C 0.7544 0.71934 0.44446 0.0
C2004 C 0.75083 0.70471 0.41619 0.0
H2005 H 0.77559 0.71329 0.488 0.0
H2006 H 0.74745 0.74643 0.44832 0.0
C2007 C 0.75893 0.66913 0.41229 0.0
C2008 C 0.62074 0.55144 0.84009 0.0
C2009 C 0.65463 0.54246 0.83959 0.0
H2010 H 0.57923 0.56453 0.86641 0.0
C2011 C 0.67205 0.53805 0.86679 0.0
H2012 H 0.60658 0.55555 0.81967 0.0
C2013 C 0.65648 0.54298 0.89355 0.0
C2014 C 0.62283 0.55294 0.89432 0.0
H2015 H 0.69812 0.53091 0.8675 0.0
H2016 H 0.67101 0.53858 0.9137 0.0
C2017 C 0.60509 0.55672 0.86705 0.0
C2018 C 0.79795 0.3148 0.16066 0.0
C2019 C 0.79048 0.35098 0.15876 0.0
H2020 H 0.80125 0.26837 0.18805 0.0
C2021 C 0.77675 0.3671 0.18332 0.0
H2022 H 0.80856 0.30155 0.14218 0.0
C2023 C 0.77102 0.34762 0.20919 0.0
C2024 C 0.7804 0.3119 0.21177 0.0
H2025 H 0.77052 0.39486 0.18259 0.0
H2026 H 0.76089 0.36111 0.22775 0.0
C2027 C 0.79361 0.29571 0.18696 0.0
C2028 C 0.92503 0.50025 0.36485 0.0
C2029 C 0.93842 0.49958 0.33673 0.0
H2030 H 0.93452 0.49606 0.41132 0.0
C2031 C 0.97239 0.49188 0.33423 0.0
H2032 H 0.89893 0.5059 0.36752 0.0
C2033 C 0.99256 0.48527 0.35919 0.0
C2034 C 0.97945 0.48664 0.38739 0.0
H2035 H 0.98344 0.49036 0.31288 0.0
H2036 H 0.0185 0.47903 0.35632 0.0
C2037 C 0.94538 0.49411 0.38993 0.0
C2038 C 0.8932 0.6753 0.62909 0.0
C2039 C 0.89174 0.69276 0.60189 0.0
H2040 H 0.88986 0.6804 0.67508 0.0
C2041 C 0.898 0.72908 0.60064 0.0
H2042 H 0.88926 0.64708 0.63056 0.0
C2043 C 0.89973 0.74854 0.62653 0.0
C2044 C 0.89353 0.73194 0.6536 0.0
H2045 H 0.89825 0.74289 0.5797 0.0
H2046 H 0.90193 0.77691 0.62485 0.0
C2047 C 0.89378 0.69476 0.65487 0.0
C2048 C 0.74371 0.6011 0.5536 0.0
C2049 C 0.77489 0.58511 0.55654 0.0
H2050 H 0.69202 0.5937 0.54554 0.0
C2051 C 0.77722 0.54875 0.56038 0.0
H2052 H 0.74131 0.62953 0.55257 0.0
C2053 C 0.74919 0.5279 0.55492 0.0
C2054 C 0.71877 0.54371 0.54581 0.0
H2055 H 0.80108 0.53639 0.56501 0.0
H2056 H 0.75287 0.49976 0.555 0.0
C2057 C 0.71561 0.58043 0.54891 0.0
C2058 C 0.2009 0.94903 0.58421 0.0
C2059 C 0.22703 0.96506 0.56914 0.0
H2060 H 0.14835 0.94865 0.59222 0.0
C2061 C 0.21912 0.99388 0.55033 0.0
H2062 H 0.20586 0.92692 0.59888 0.0
C2063 C 0.18654 0.00609 0.54642 0.0
C2064 C 0.16037 0.99027 0.56131 0.0
H2065 H 0.23818 0.00713 0.53809 0.0
H2066 H 0.18191 0.02806 0.5315 0.0
C2067 C 0.16795 0.96165 0.58047 0.0
C2068 C 0.39764 0.89568 0.78691 0.0
C2069 C 0.38297 0.91191 0.76166 0.0
H2070 H 0.39468 0.85343 0.81884 0.0
C2071 C 0.35552 0.89575 0.74762 0.0
H2072 H 0.41939 0.9073 0.79773 0.0
C2073 C 0.34129 0.86563 0.75995 0.0
C2074 C 0.35454 0.85051 0.78611 0.0
H2075 H 0.34441 0.90705 0.72766 0.0
H2076 H 0.31938 0.85441 0.74934 0.0
C2077 C 0.38352 0.86508 0.79907 0.0
C2078 C 0.44495 0.14678 0.05362 0.0
C2079 C 0.42494 0.14813 0.02779 0.0
H2080 H 0.48191 0.11711 0.07802 0.0
C2081 C 0.43455 0.12967 1.00296 0.0
H2082 H 0.43814 0.16143 0.07288 0.0
C2083 C 0.45813 0.10323 0.00625 0.0
C2084 C 0.47345 0.09675 0.03395 0.0
H2085 H 0.41972 0.13108 0.98263 0.0
H2086 H 0.46295 0.08666 0.98756 0.0
C2087 C 0.46894 0.12052 0.05692 0.0
C2088 C 0.73217 0.63451 0.72745 0.0
C2089 C 0.70324 0.62609 0.74241 0.0
H2090 H 0.76888 0.67375 0.71847 0.0
C2091 C 0.68621 0.65277 0.7567 0.0
H2092 H 0.74513 0.6144 0.71556 0.0
C2093 C 0.69995 0.68665 0.75875 0.0
C2094 C 0.73062 0.6944 0.74606 0.0
H2095 H 0.66345 0.64688 0.76785 0.0
H2096 H 0.68724 0.70629 0.77133 0.0
C2097 C 0.74571 0.66845 0.72914 0.0
C2098 C 0.91879 0.461 0.08553 0.0
C2099 C 0.90037 0.43365 0.0723 0.0
H2100 H 0.96317 0.49225 0.0851 0.0
C2101 C 0.91544 0.41374 0.05026 0.0
H2102 H 0.9085 0.47599 0.10323 0.0
C2103 C 0.94725 0.4227 0.0402 0.0
C2104 C 0.96466 0.45161 0.05223 0.0
H2105 H 0.90214 0.39184 0.04018 0.0
H2106 H 0.95766 0.40784 0.02251 0.0
C2107 C 0.95028 0.47005 0.07536 0.0
C2108 C 0.36322 0.11351 0.78135 0.0
C2109 C 0.37685 0.10245 0.75495 0.0
H2110 H 0.34072 0.15444 0.80517 0.0
C2111 C 0.38028 0.12728 0.73206 0.0
H2112 H 0.36058 0.09523 0.79957 0.0
C2113 C 0.36863 0.16214 0.73532 0.0
C2114 C 0.35327 0.17227 0.7614 0.0
H2115 H 0.39048 0.1194 0.71138 0.0
H2116 H 0.37063 0.18068 0.71724 0.0
C2117 C 0.35156 0.14761 0.78448 0.0
C2118 C 0.28206 0.94941 0.28923 0.0
C2119 C 0.25307 0.95587 0.27182 0.0
H2120 H 0.31724 0.91145 0.30599 0.0
C2121 C 0.23815 0.92747 0.25656 0.0
H2122 H 0.29435 0.97053 0.30128 0.0
C2123 C 0.25162 0.89345 0.25903 0.0
C2124 C 0.28013 0.88697 0.27703 0.0
H2125 H 0.21596 0.93143 0.24279 0.0
H2126 H 0.23923 0.87209 0.24736 0.0
C2127 C 0.29528 0.91544 0.29192 0.0
C2128 C 0.51264 0.36248 0.4512 0.0
C2129 C 0.52189 0.37436 0.42319 0.0
H2130 H 0.52413 0.35862 0.49712 0.0
C2131 C 0.55299 0.39088 0.42077 0.0
H2132 H 0.48893 0.34991 0.45438 0.0
C2133 C 0.57322 0.39703 0.44617 0.0
C2134 C 0.5629 0.38609 0.47426 0.0
H2135 H 0.56117 0.39991 0.39955 0.0
H2136 H 0.59585 0.41221 0.44399 0.0
C2137 C 0.53311 0.36724 0.47602 0.0
C2138 C 0.46153 0.78339 0.23399 0.0
C2139 C 0.45513 0.77569 0.20386 0.0
H2140 H 0.44125 0.79356 0.27665 0.0
C2141 C 0.42146 0.7733 0.19439 0.0
H2142 H 0.48695 0.78563 0.2424 0.0
C2143 C 0.39544 0.77807 0.21389 0.0
C2144 C 0.40155 0.7855 0.24402 0.0
H2145 H 0.41492 0.76756 0.17162 0.0
H2146 H 0.37017 0.77555 0.20513 0.0
C2147 C 0.43521 0.78819 0.25373 0.0
C2148 C 0.92664 0.69109 0.95863 0.0
C2149 C 0.94463 0.70001 0.9336 0.0
H2150 H 0.92122 0.65366 0.99353 0.0
C2151 C 0.96168 0.67359 0.91888 0.0
H2152 H 0.91219 0.71054 0.96989 0.0
C2153 C 0.96619 0.64084 0.93224 0.0
C2154 C 0.95372 0.63468 0.96025 0.0
H2155 H 0.97485 0.67938 0.89901 0.0
H2156 H 0.98301 0.62231 0.92254 0.0
C2157 C 0.93159 0.65855 0.97218 0.0
C2158 C 0.18541 0.27295 0.68858 0.0
C2159 C 0.15567 0.27412 0.70417 0.0
H2160 H 0.23907 0.26953 0.6909 0.0
C2161 C 0.15846 0.27151 0.73512 0.0
H2162 H 0.18448 0.27474 0.66479 0.0
C2163 C 0.18952 0.26757 0.74999 0.0
C2164 C 0.21934 0.26681 0.73463 0.0
H2165 H 0.13636 0.27197 0.74808 0.0
H2166 H 0.19016 0.26573 0.77378 0.0
C2167 C 0.21679 0.26984 0.70361 0.0
C2168 C 0.56717 0.6848 0.09918 0.0
C2169 C 0.55385 0.68257 0.12751 0.0
H2170 H 0.57941 0.6579 0.05934 0.0
C2171 C 0.54525 0.64895 0.13798 0.0
H2172 H 0.57503 0.7101 0.09065 0.0
C2173 C 0.54797 0.61891 0.12008 0.0
C2174 C 0.55988 0.62123 0.09114 0.0
H2175 H 0.53544 0.64599 0.15975 0.0
H2176 H 0.54006 0.59377 0.12889 0.0
C2177 C 0.56991 0.65474 0.0812 0.0
C2178 C 0.10225 0.79639 0.89029 0.0
C2179 C 0.0799 0.77349 0.87563 0.0
H2180 H 0.14766 0.82514 0.88891 0.0
C2181 C 0.08852 0.7588 0.84884 0.0
H2182 H 0.09574 0.80885 0.91067 0.0
C2183 C 0.11897 0.76725 0.83669 0.0
C2184 C 0.14076 0.79178 0.85051 0.0
H2185 H 0.07148 0.74131 0.83708 0.0
H2186 H 0.12517 0.75461 0.81636 0.0
C2187 C 0.13207 0.80588 0.87767 0.0
C2188 C 0.03006 0.36741 0.58302 0.0
C2189 C 0.04628 0.36332 0.61104 0.0
H2190 H 0.02185 0.39875 0.54401 0.0
C2191 C 0.06684 0.39131 0.62086 0.0
H2192 H 0.01388 0.34698 0.57413 0.0
C2193 C 0.07081 0.42202 0.60324 0.0
C2194 C 0.05506 0.42525 0.57498 0.0
H2195 H 0.07989 0.3895 0.64203 0.0
H2196 H 0.08671 0.44302 0.61156 0.0
C2197 C 0.03467 0.39736 0.56533 0.0
C2198 C 0.37006 0.32397 0.3571 0.0
C2199 C 0.39905 0.30751 0.3479 0.0
H2200 H 0.31805 0.33181 0.3496 0.0
C2201 C 0.39742 0.28635 0.32269 0.0
H2202 H 0.37031 0.33944 0.37706 0.0
C2203 C 0.36772 0.28374 0.30581 0.0
C2204 C 0.33876 0.29994 0.31543 0.0
H2205 H 0.41868 0.27107 0.31653 0.0
H2206 H 0.36711 0.26831 0.28585 0.0
C2207 C 0.34011 0.31947 0.34148 0.0
C2208 C 0.4578 0.51355 0.44234 0.0
C2209 C 0.46738 0.51333 0.41278 0.0
H2210 H 0.47227 0.50649 0.48776 0.0
C2211 C 0.50112 0.50705 0.40724 0.0
H2212 H 0.4322 0.51833 0.44774 0.0
C2213 C 0.52421 0.49991 0.43052 0.0
C2214 C 0.51411 0.49877 0.45988 0.0
H2215 H 0.50951 0.50639 0.38488 0.0
H2216 H 0.54971 0.49406 0.42543 0.0
C2217 C 0.48078 0.50646 0.46543 0.0
C2218 C 0.31463 0.70381 0.11008 0.0
C2219 C 0.29705 0.67347 0.10163 0.0
H2220 H 0.32289 0.74282 0.14298 0.0
C2221 C 0.27302 0.65944 0.12014 0.0
H2222 H 0.33328 0.71502 0.0961 0.0
C2223 C 0.26592 0.67612 0.14634 0.0
C2224 C 0.28328 0.70672 0.1549 0.0
H2225 H 0.25867 0.63634 0.11379 0.0
H2226 H 0.24638 0.66534 0.15955 0.0
C2227 C 0.30817 0.72 0.13669 0.0
C2228 C 0.13808 0.47174 0.9224 0.0
C2229 C 0.12896 0.49809 0.90163 0.0
H2230 H 0.1274 0.44556 0.96321 0.0
C2231 C 0.09963 0.51702 0.90599 0.0
H2232 H 0.16045 0.45647 0.91959 0.0
C2233 C 0.08138 0.51168 0.93156 0.0
C2234 C 0.09151 0.48671 0.95333 0.0
H2235 H 0.09187 0.53747 0.8905 0.0
H2236 H 0.06012 0.52846 0.93489 0.0
C2237 C 0.11913 0.4655 0.94748 0.0
C2238 C 0.24041 0.37176 0.63964 0.0
C2239 C 0.25264 0.40138 0.6249 0.0
H2240 H 0.25081 0.33311 0.67305 0.0
C2241 C 0.27752 0.42203 0.639 0.0
H2242 H 0.2205 0.35596 0.62992 0.0
C2243 C 0.29577 0.40825 0.66303 0.0
C2244 C 0.28806 0.37461 0.67369 0.0
H2245 H 0.28662 0.44582 0.62862 0.0
H2246 H 0.31792 0.42202 0.6709 0.0
C2247 C 0.2583 0.35824 0.66392 0.0
C2248 C 0.43999 0.48446 0.22161 0.0
C2249 C 0.45508 0.50716 0.24246 0.0
H2250 H 0.44223 0.4605 0.17922 0.0
C2251 C 0.4844 0.52475 0.23497 0.0
H2252 H 0.4176 0.47008 0.22681 0.0
C2253 C 0.49828 0.51986 0.20739 0.0
C2254 C 0.48373 0.49653 0.18654 0.0
H2255 H 0.49664 0.5425 0.25045 0.0
H2256 H 0.52035 0.53483 0.20244 0.0
C2257 C 0.4542 0.47901 0.19417 0.0
C2258 C 0.32578 0.66874 0.91391 0.0
C2259 C 0.29953 0.67427 0.93297 0.0
H2260 H 0.35073 0.68577 0.87528 0.0
C2261 C 0.27971 0.70444 0.92855 0.0
H2262 H 0.34193 0.64614 0.91712 0.0
C2263 C 0.28439 0.72705 0.90428 0.0
C2264 C 0.3095 0.72044 0.88408 0.0
H2265 H 0.25964 0.70971 0.94317 0.0
H2266 H 0.26714 0.74859 0.90047 0.0
C2267 C 0.33112 0.69187 0.89015 0.0
C2268 C 0.16137 0.50891 0.70847 0.0
C2269 C 0.13917 0.51296 0.73133 0.0
H2270 H 0.17002 0.5158 0.6627 0.0
C2271 C 0.10835 0.529 0.72538 0.0
H2272 H 0.18559 0.49716 0.71277 0.0
C2273 C 0.10015 0.54163 0.69719 0.0
C2274 C 0.12208 0.53735 0.67394 0.0
H2275 H 0.09133 0.5336 0.74291 0.0
H2276 H 0.07673 0.55528 0.69387 0.0
C2277 C 0.15272 0.52043 0.67996 0.0
C2278 C 0.25478 0.29443 0.45398 0.0
C2279 C 0.2391 0.31905 0.47145 0.0
H2280 H 0.25374 0.26737 0.41334 0.0
C2281 C 0.20607 0.32878 0.46476 0.0
H2282 H 0.28026 0.28667 0.45889 0.0
C2283 C 0.19068 0.31803 0.43832 0.0
C2284 C 0.20826 0.29732 0.41867 0.0
H2285 H 0.19373 0.34805 0.47804 0.0
H2286 H 0.1666 0.32886 0.43191 0.0
C2287 C 0.23932 0.28329 0.42788 0.0
C2288 C 0.35984 0.40129 0.57637 0.0
C2289 C 0.3549 0.37084 0.55956 0.0
H2290 H 0.3948 0.43577 0.59741 0.0
C2291 C 0.38149 0.34833 0.55468 0.0
H2292 H 0.33931 0.41838 0.58126 0.0
C2293 C 0.4137 0.35901 0.56295 0.0
C2294 C 0.41902 0.39166 0.57702 0.0
H2295 H 0.37767 0.32407 0.54265 0.0
H2296 H 0.43434 0.34318 0.55607 0.0
C2297 C 0.39159 0.41125 0.58559 0.0
C2298 C 0.91588 0.07943 0.48514 0.0
C2299 C 0.89504 0.08403 0.50902 0.0
H2300 H 0.96463 0.06509 0.47114 0.0
C2301 C 0.90755 0.07597 0.53751 0.0
H2302 H 0.90681 0.08529 0.46294 0.0
C2303 C 0.93991 0.06311 0.54206 0.0
C2304 C 0.96117 0.05928 0.51838 0.0
H2305 H 0.89197 0.07891 0.55631 0.0
H2306 H 0.94858 0.05697 0.56433 0.0
C2307 C 0.94889 0.06786 0.48984 0.0
C2308 C 0.6805 0.14947 0.31889 0.0
C2309 C 0.69475 0.11673 0.31258 0.0
H2310 H 0.68663 0.2058 0.31868 0.0
C2311 C 0.72362 0.11614 0.29611 0.0
H2312 H 0.65751 0.15062 0.33056 0.0
C2313 C 0.73968 0.14745 0.28846 0.0
C2314 C 0.72743 0.18026 0.2973 0.0
H2315 H 0.73428 0.09128 0.28968 0.0
H2316 H 0.76276 0.14574 0.27695 0.0
C2317 C 0.69696 0.18102 0.31173 0.0
C2318 C 0.66876 0.92398 0.05218 0.0
C2319 C 0.67864 0.90824 0.02625 0.0
H2320 H 0.63681 0.96151 0.07112 0.0
C2321 C 0.66013 0.91311 0.99991 0.0
H2322 H 0.68337 0.92078 0.07251 0.0
C2323 C 0.63387 0.93692 0.99887 0.0
C2324 C 0.62667 0.95601 0.02411 0.0
H2325 H 0.66821 0.90161 0.97961 0.0
H2326 H 0.62088 0.94218 0.97804 0.0
C2327 C 0.64295 0.94801 0.0511 0.0
C2328 C 0.31474 0.47181 0.28628 0.0
C2329 C 0.33632 0.4653 0.31068 0.0
H2330 H 0.27475 0.45172 0.25848 0.0
C2331 C 0.33233 0.43428 0.32706 0.0
H2332 H 0.31821 0.4949 0.27254 0.0
C2333 C 0.3063 0.41113 0.32032 0.0
C2334 C 0.28549 0.41682 0.29541 0.0
H2335 H 0.35031 0.42701 0.34426 0.0
H2336 H 0.30418 0.38726 0.33321 0.0
C2337 C 0.2898 0.4474 0.27838 0.0
C2338 C 0.17809 0.61423 0.01522 0.0
C2339 C 0.20834 0.59703 0.02234 0.0
H2340 H 0.12465 0.61229 0.01508 0.0
C2341 C 0.20702 0.56537 0.03853 0.0
H2342 H 0.17821 0.63931 1.00368 0.0
C2343 C 0.17631 0.55009 0.04559 0.0
C2344 C 0.14589 0.56625 0.037 0.0
H2345 H 0.22981 0.55235 0.04578 0.0
H2346 H 0.17648 0.52514 0.05731 0.0
C2347 C 0.14733 0.59887 0.02205 0.0
C2348 C 0.75319 0.92214 0.34375 0.0
C2349 C 0.73359 0.94051 0.32264 0.0
H2350 H 0.78605 0.87855 0.35242 0.0
C2351 C 0.7346 0.93039 0.29296 0.0
H2352 H 0.75322 0.92967 0.36669 0.0
C2353 C 0.75459 0.90223 0.2846 0.0
C2354 C 0.77326 0.88314 0.30589 0.0
H2355 H 0.72028 0.94459 0.27612 0.0
H2356 H 0.75431 0.89442 0.26173 0.0
C2357 C 0.77229 0.89328 0.33553 0.0
C2358 C 0.88122 0.12629 0.80011 0.0
C2359 C 0.8857 0.1134 0.82895 0.0
H2360 H 0.86239 0.16813 0.77243 0.0
C2361 C 0.87655 0.13444 0.85263 0.0
H2362 H 0.88745 0.1102 0.78151 0.0
C2363 C 0.86269 0.16775 0.84749 0.0
C2364 C 0.85664 0.17985 0.81857 0.0
H2365 H 0.87937 0.12471 0.87504 0.0
H2366 H 0.85558 0.18346 0.86604 0.0
C2367 C 0.86638 0.15907 0.79493 0.0
loop_
_geom_bond_atom_site_label_1
_geom_bond_atom_site_label_2
_geom_bond_distance
_geom_bond_site_symmetry_2
_ccdc_geom_bond_type
Mn0 O5 2.095 . S
Mn0 O15 2.162 . S
Mn0 O16 2.297 . S
Mn0 O24 2.385 . S
Mn0 O25 2.209 . S
Mn0 O26 2.094 . S
Mn1 O6 2.121 . S
Mn1 N8 2.257 . S
Mn1 N17 2.282 . S
Mn1 O25 2.215 . S
Mn1 O27 2.117 . S
C2 O24 1.234 . S
C2 O25 1.283 . S
C3 O15 1.281 . S
C3 O16 1.236 . S
C4 O26 1.240 . S
C4 O27 1.264 . S
O5 Mn0 2.095 . S
O5 C14 1.250 . S
O6 Mn1 2.121 . S
O6 C14 1.258 . S
C7 N8 1.326 . S
C7 C11 1.460 . S
C7 H13 0.929 . S
N8 Mn1 2.257 . S
N8 C7 1.326 . S
N8 C12 1.362 . S
C9 C10 1.258 . S
C9 C12 1.431 . S
C9 C29 1.449 . S
C10 C9 1.258 . S
C10 C11 1.477 . S
C10 H30 0.931 . S
C11 C7 1.460 . S
C11 C10 1.477 . S
C11 H31 0.930 . S
C12 N8 1.362 . S
C12 C9 1.431 . S
C12 C22 1.476 . S
H13 C7 0.929 . S
C14 O5 1.250 . S
C14 O6 1.258 . S
O15 Mn0 2.162 . S
O15 C3 1.281 . S
O16 Mn0 2.297 . S
O16 C3 1.236 . S
N17 Mn1 2.282 . S
N17 C18 1.328 1_455 S
N17 C22 1.318 . S
C18 N17 1.328 1_655 S
C18 C19 1.457 . S
C18 H23 0.929 . S
C19 C18 1.457 . S
C19 C20 1.291 . S
C19 H32 0.931 . S
C20 C19 1.291 . S
C20 C21 1.373 . S
C20 H33 0.929 . S
C21 C20 1.373 . S
C21 C22 1.396 1_655 S
C21 C28 1.403 . S
C22 C12 1.476 . S
C22 N17 1.318 . S
C22 C21 1.396 1_455 S
H23 C18 0.929 . S
O24 Mn0 2.385 . S
O24 C2 1.234 . S
O25 Mn0 2.209 . S
O25 Mn1 2.215 . S
O25 C2 1.283 . S
O26 Mn0 2.094 . S
O26 C4 1.240 . S
O27 Mn1 2.117 . S
O27 C4 1.264 . S
C28 C21 1.403 . S
C28 C29 1.399 1_655 S
C28 H34 0.929 . S
C29 C9 1.449 . S
C29 C28 1.399 1_455 S
C29 H35 0.930 . S
H30 C10 0.931 . S
H31 C11 0.930 . S
H32 C19 0.931 . S
H33 C20 0.929 . S
H34 C28 0.929 . S
H35 C29 0.930 . S
Mn36 O41 2.095 . S
Mn36 O51 2.162 . S
Mn36 O52 2.297 . S
Mn36 O60 2.385 . S
Mn36 O61 2.209 . S
Mn36 O62 2.094 . S
Mn37 O42 2.121 1_655 S
Mn37 N44 2.257 1_655 S
Mn37 N53 2.282 . S
Mn37 O61 2.215 1_655 S
Mn37 O63 2.117 . S
C38 O60 1.234 . S
C38 O61 1.283 . S
C39 O51 1.281 . S
C39 O52 1.236 . S
C40 O62 1.240 1_655 S
C40 O63 1.264 . S
O41 Mn36 2.095 . S
O41 C50 1.250 . S
O42 Mn37 2.121 1_455 S
O42 C50 1.258 . S
C43 N44 1.326 . S
C43 C47 1.460 . S
C43 H49 0.929 . S
N44 Mn37 2.257 1_455 S
N44 C43 1.326 . S
N44 C48 1.362 1_455 S
C45 C46 1.258 1_655 S
C45 C48 1.431 . S
C45 C65 1.449 . S
C46 C45 1.258 1_455 S
C46 C47 1.477 . S
C46 H66 0.931 . S
C47 C43 1.460 . S
C47 C46 1.477 . S
C47 H67 0.930 . S
C48 N44 1.362 1_655 S
C48 C45 1.431 . S
C48 C58 1.476 . S
H49 C43 0.929 . S
C50 O41 1.250 . S
C50 O42 1.258 . S
O51 Mn36 2.162 . S
O51 C39 1.281 . S
O52 Mn36 2.297 . S
O52 C39 1.236 . S
N53 Mn37 2.282 . S
N53 C54 1.328 . S
N53 C58 1.318 . S
C54 N53 1.328 . S
C54 C55 1.457 . S
C54 H59 0.929 . S
C55 C54 1.457 . S
C55 C56 1.291 . S
C55 H68 0.931 . S
C56 C55 1.291 . S
C56 C57 1.373 . S
C56 H69 0.929 . S
C57 C56 1.373 . S
C57 C58 1.396 . S
C57 C64 1.403 . S
C58 C48 1.476 . S
C58 N53 1.318 . S
C58 C57 1.396 . S
H59 C54 0.929 . S
O60 Mn36 2.385 . S
O60 C38 1.234 . S
O61 Mn36 2.209 . S
O61 Mn37 2.215 1_455 S
O61 C38 1.283 . S
O62 Mn36 2.094 . S
O62 C40 1.240 1_455 S
O63 Mn37 2.117 . S
O63 C40 1.264 . S
C64 C57 1.403 . S
C64 C65 1.399 . S
C64 H70 0.929 . S
C65 C45 1.449 . S
C65 C64 1.399 . S
C65 H71 0.930 . S
H66 C46 0.931 . S
H67 C47 0.930 . S
H68 C55 0.931 . S
H69 C56 0.929 . S
H70 C64 0.929 . S
H71 C65 0.930 . S
Mn72 O77 2.095 . S
Mn72 O87 2.162 . S
Mn72 O88 2.297 . S
Mn72 O96 2.385 . S
Mn72 O97 2.209 . S
Mn72 O98 2.094 . S
Mn73 O78 2.121 . S
Mn73 N80 2.257 . S
Mn73 N89 2.282 . S
Mn73 O97 2.215 . S
Mn73 O99 2.117 . S
C74 O96 1.234 . S
C74 O97 1.283 . S
C75 O87 1.281 . S
C75 O88 1.236 . S
C76 O98 1.240 . S
C76 O99 1.264 . S
O77 Mn72 2.095 . S
O77 C86 1.250 . S
O78 Mn73 2.121 . S
O78 C86 1.258 . S
C79 N80 1.326 . S
C79 C83 1.460 . S
C79 H85 0.929 . S
N80 Mn73 2.257 . S
N80 C79 1.326 . S
N80 C84 1.362 . S
C81 C82 1.258 . S
C81 C84 1.431 . S
C81 C101 1.449 . S
C82 C81 1.258 . S
C82 C83 1.477 . S
C82 H102 0.931 . S
C83 C79 1.460 . S
C83 C82 1.477 . S
C83 H103 0.930 . S
C84 N80 1.362 . S
C84 C81 1.431 . S
C84 C94 1.476 . S
H85 C79 0.929 . S
C86 O77 1.250 . S
C86 O78 1.258 . S
O87 Mn72 2.162 . S
O87 C75 1.281 . S
O88 Mn72 2.297 . S
O88 C75 1.236 . S
N89 Mn73 2.282 . S
N89 C90 1.328 . S
N89 C94 1.318 . S
C90 N89 1.328 . S
C90 C91 1.457 . S
C90 H95 0.929 . S
C91 C90 1.457 . S
C91 C92 1.291 . S
C91 H104 0.931 . S
C92 C91 1.291 . S
C92 C93 1.373 . S
C92 H105 0.929 . S
C93 C92 1.373 . S
C93 C94 1.396 . S
C93 C100 1.403 . S
C94 C84 1.476 . S
C94 N89 1.318 . S
C94 C93 1.396 . S
H95 C90 0.929 . S
O96 Mn72 2.385 . S
O96 C74 1.234 . S
O97 Mn72 2.209 . S
O97 Mn73 2.215 . S
O97 C74 1.283 . S
O98 Mn72 2.094 . S
O98 C76 1.240 . S
O99 Mn73 2.117 . S
O99 C76 1.264 . S
C100 C93 1.403 . S
C100 C101 1.399 . S
C100 H106 0.929 . S
C101 C81 1.449 . S
C101 C100 1.399 . S
C101 H107 0.930 . S
H102 C82 0.931 . S
H103 C83 0.930 . S
H104 C91 0.931 . S
H105 C92 0.929 . S
H106 C100 0.929 . S
H107 C101 0.930 . S
Mn108 O113 2.095 . S
Mn108 O123 2.162 . S
Mn108 O124 2.297 . S
Mn108 O132 2.385 . S
Mn108 O133 2.209 . S
Mn108 O134 2.094 . S
Mn109 O114 2.121 . S
Mn109 N116 2.257 . S
Mn109 N125 2.282 . S
Mn109 O133 2.215 . S
Mn109 O135 2.117 . S
C110 O132 1.234 . S
C110 O133 1.283 . S
C111 O123 1.281 . S
C111 O124 1.236 . S
C112 O134 1.240 . S
C112 O135 1.264 . S
O113 Mn108 2.095 . S
O113 C122 1.250 . S
O114 Mn109 2.121 . S
O114 C122 1.258 . S
C115 N116 1.326 1_554 S
C115 C119 1.460 . S
C115 H121 0.929 . S
N116 Mn109 2.257 . S
N116 C115 1.326 1_556 S
N116 C120 1.362 1_556 S
C117 C118 1.258 . S
C117 C120 1.431 . S
C117 C137 1.449 . S
C118 C117 1.258 . S
C118 C119 1.477 . S
C118 H138 0.931 . S
C119 C115 1.460 . S
C119 C118 1.477 . S
C119 H139 0.930 . S
C120 N116 1.362 1_554 S
C120 C117 1.431 . S
C120 C130 1.476 1_554 S
H121 C115 0.929 . S
C122 O113 1.250 . S
C122 O114 1.258 . S
O123 Mn108 2.162 . S
O123 C111 1.281 . S
O124 Mn108 2.297 . S
O124 C111 1.236 . S
N125 Mn109 2.282 . S
N125 C126 1.328 . S
N125 C130 1.318 . S
C126 N125 1.328 . S
C126 C127 1.457 . S
C126 H131 0.929 . S
C127 C126 1.457 . S
C127 C128 1.291 . S
C127 H140 0.931 . S
C128 C127 1.291 . S
C128 C129 1.373 . S
C128 H141 0.929 . S
C129 C128 1.373 . S
C129 C130 1.396 . S
C129 C136 1.403 1_556 S
C130 C120 1.476 1_556 S
C130 N125 1.318 . S
C130 C129 1.396 . S
H131 C126 0.929 . S
O132 Mn108 2.385 . S
O132 C110 1.234 . S
O133 Mn108 2.209 . S
O133 Mn109 2.215 . S
O133 C110 1.283 . S
O134 Mn108 2.094 . S
O134 C112 1.240 . S
O135 Mn109 2.117 . S
O135 C112 1.264 . S
C136 C129 1.403 1_554 S
C136 C137 1.399 . S
C136 H142 0.929 . S
C137 C117 1.449 . S
C137 C136 1.399 . S
C137 H143 0.930 . S
H138 C118 0.931 . S
H139 C119 0.930 . S
H140 C127 0.931 . S
H141 C128 0.929 . S
H142 C136 0.929 . S
H143 C137 0.930 . S
Mn144 O149 2.095 1_545 S
Mn144 O159 2.162 . S
Mn144 O160 2.297 . S
Mn144 O168 2.385 . S
Mn144 O169 2.209 . S
Mn144 O170 2.094 . S
Mn145 O150 2.121 1_545 S
Mn145 N152 2.257 . S
Mn145 N161 2.282 . S
Mn145 O169 2.215 . S
Mn145 O171 2.117 . S
C146 O168 1.234 . S
C146 O169 1.283 . S
C147 O159 1.281 . S
C147 O160 1.236 . S
C148 O170 1.240 . S
C148 O171 1.264 . S
O149 Mn144 2.095 1_565 S
O149 C158 1.250 . S
O150 Mn145 2.121 1_565 S
O150 C158 1.258 . S
C151 N152 1.326 . S
C151 C155 1.460 . S
C151 H157 0.929 . S
N152 Mn145 2.257 . S
N152 C151 1.326 . S
N152 C156 1.362 . S
C153 C154 1.258 . S
C153 C156 1.431 . S
C153 C173 1.449 . S
C154 C153 1.258 . S
C154 C155 1.477 . S
C154 H174 0.931 . S
C155 C151 1.460 . S
C155 C154 1.477 . S
C155 H175 0.930 . S
C156 N152 1.362 . S
C156 C153 1.431 . S
C156 C166 1.476 . S
H157 C151 0.929 . S
C158 O149 1.250 . S
C158 O150 1.258 . S
O159 Mn144 2.162 . S
O159 C147 1.281 . S
O160 Mn144 2.297 . S
O160 C147 1.236 . S
N161 Mn145 2.282 . S
N161 C162 1.328 . S
N161 C166 1.318 . S
C162 N161 1.328 . S
C162 C163 1.457 . S
C162 H167 0.929 . S
C163 C162 1.457 . S
C163 C164 1.291 . S
C163 H176 0.931 . S
C164 C163 1.291 . S
C164 C165 1.373 . S
C164 H177 0.929 . S
C165 C164 1.373 . S
C165 C166 1.396 . S
C165 C172 1.403 . S
C166 C156 1.476 . S
C166 N161 1.318 . S
C166 C165 1.396 . S
H167 C162 0.929 . S
O168 Mn144 2.385 . S
O168 C146 1.234 . S
O169 Mn144 2.209 . S
O169 Mn145 2.215 . S
O169 C146 1.283 . S
O170 Mn144 2.094 . S
O170 C148 1.240 . S
O171 Mn145 2.117 . S
O171 C148 1.264 . S
C172 C165 1.403 . S
C172 C173 1.399 . S
C172 H178 0.929 . S
C173 C153 1.449 . S
C173 C172 1.399 . S
C173 H179 0.930 . S
H174 C154 0.931 . S
H175 C155 0.930 . S
H176 C163 0.931 . S
H177 C164 0.929 . S
H178 C172 0.929 . S
H179 C173 0.930 . S
Mn180 O185 2.095 . S
Mn180 O195 2.162 . S
Mn180 O196 2.297 . S
Mn180 O204 2.385 . S
Mn180 O205 2.209 . S
Mn180 O206 2.094 . S
Mn181 O186 2.121 . S
Mn181 N188 2.257 1_565 S
Mn181 N197 2.282 . S
Mn181 O205 2.215 . S
Mn181 O207 2.117 . S
C182 O204 1.234 . S
C182 O205 1.283 . S
C183 O195 1.281 . S
C183 O196 1.236 . S
C184 O206 1.240 . S
C184 O207 1.264 . S
O185 Mn180 2.095 . S
O185 C194 1.250 . S
O186 Mn181 2.121 . S
O186 C194 1.258 . S
C187 N188 1.326 . S
C187 C191 1.460 . S
C187 H193 0.929 . S
N188 Mn181 2.257 1_545 S
N188 C187 1.326 . S
N188 C192 1.362 . S
C189 C190 1.258 . S
C189 C192 1.431 . S
C189 C209 1.449 . S
C190 C189 1.258 . S
C190 C191 1.477 . S
C190 H210 0.931 . S
C191 C187 1.460 . S
C191 C190 1.477 . S
C191 H211 0.930 . S
C192 N188 1.362 . S
C192 C189 1.431 . S
C192 C202 1.476 . S
H193 C187 0.929 . S
C194 O185 1.250 . S
C194 O186 1.258 . S
O195 Mn180 2.162 . S
O195 C183 1.281 . S
O196 Mn180 2.297 . S
O196 C183 1.236 . S
N197 Mn181 2.282 . S
N197 C198 1.328 . S
N197 C202 1.318 1_565 S
C198 N197 1.328 . S
C198 C199 1.457 . S
C198 H203 0.929 . S
C199 C198 1.457 . S
C199 C200 1.291 . S
C199 H212 0.931 . S
C200 C199 1.291 . S
C200 C201 1.373 1_565 S
C200 H213 0.929 . S
C201 C200 1.373 1_545 S
C201 C202 1.396 . S
C201 C208 1.403 . S
C202 C192 1.476 . S
C202 N197 1.318 1_545 S
C202 C201 1.396 . S
H203 C198 0.929 . S
O204 Mn180 2.385 . S
O204 C182 1.234 . S
O205 Mn180 2.209 . S
O205 Mn181 2.215 . S
O205 C182 1.283 . S
O206 Mn180 2.094 . S
O206 C184 1.240 . S
O207 Mn181 2.117 . S
O207 C184 1.264 . S
C208 C201 1.403 . S
C208 C209 1.399 . S
C208 H214 0.929 . S
C209 C189 1.449 . S
C209 C208 1.399 . S
C209 H215 0.930 . S
H210 C190 0.931 . S
H211 C191 0.930 . S
H212 C199 0.931 . S
H213 C200 0.929 . S
H214 C208 0.929 . S
H215 C209 0.930 . S
Mn216 O221 2.095 . S
Mn216 O231 2.162 . S
Mn216 O232 2.297 . S
Mn216 O240 2.385 1_545 S
Mn216 O241 2.209 1_545 S
Mn216 O242 2.094 . S
Mn217 O222 2.121 . S
Mn217 N224 2.257 1_545 S
Mn217 N233 2.282 1_545 S
Mn217 O241 2.215 1_545 S
Mn217 O243 2.117 . S
C218 O240 1.234 . S
C218 O241 1.283 . S
C219 O231 1.281 . S
C219 O232 1.236 . S
C220 O242 1.240 . S
C220 O243 1.264 . S
O221 Mn216 2.095 . S
O221 C230 1.250 . S
O222 Mn217 2.121 . S
O222 C230 1.258 . S
C223 N224 1.326 1_545 S
C223 C227 1.460 . S
C223 H229 0.929 . S
N224 Mn217 2.257 1_565 S
N224 C223 1.326 1_565 S
N224 C228 1.362 . S
C225 C226 1.258 . S
C225 C228 1.431 . S
C225 C245 1.449 . S
C226 C225 1.258 . S
C226 C227 1.477 1_565 S
C226 H246 0.931 . S
C227 C223 1.460 . S
C227 C226 1.477 1_545 S
C227 H247 0.930 . S
C228 N224 1.362 . S
C228 C225 1.431 . S
C228 C238 1.476 . S
H229 C223 0.929 . S
C230 O221 1.250 . S
C230 O222 1.258 . S
O231 Mn216 2.162 . S
O231 C219 1.281 . S
O232 Mn216 2.297 . S
O232 C219 1.236 . S
N233 Mn217 2.282 1_565 S
N233 C234 1.328 . S
N233 C238 1.318 . S
C234 N233 1.328 . S
C234 C235 1.457 . S
C234 H239 0.929 . S
C235 C234 1.457 . S
C235 C236 1.291 . S
C235 H248 0.931 . S
C236 C235 1.291 . S
C236 C237 1.373 . S
C236 H249 0.929 . S
C237 C236 1.373 . S
C237 C238 1.396 . S
C237 C244 1.403 . S
C238 C228 1.476 . S
C238 N233 1.318 . S
C238 C237 1.396 . S
H239 C234 0.929 . S
O240 Mn216 2.385 1_565 S
O240 C218 1.234 . S
O241 Mn216 2.209 1_565 S
O241 Mn217 2.215 1_565 S
O241 C218 1.283 . S
O242 Mn216 2.094 . S
O242 C220 1.240 . S
O243 Mn217 2.117 . S
O243 C220 1.264 . S
C244 C237 1.403 . S
C244 C245 1.399 . S
C244 H250 0.929 . S
C245 C225 1.449 . S
C245 C244 1.399 . S
C245 H251 0.930 . S
H246 C226 0.931 . S
H247 C227 0.930 . S
H248 C235 0.931 . S
H249 C236 0.929 . S
H250 C244 0.929 . S
H251 C245 0.930 . S
Mn252 O257 2.095 . S
Mn252 O267 2.162 . S
Mn252 O268 2.297 . S
Mn252 O276 2.385 . S
Mn252 O277 2.209 . S
Mn252 O278 2.094 1_554 S
Mn253 O258 2.121 1_556 S
Mn253 N260 2.257 1_545 S
Mn253 N269 2.282 . S
Mn253 O277 2.215 1_556 S
Mn253 O279 2.117 . S
C254 O276 1.234 . S
C254 O277 1.283 . S
C255 O267 1.281 . S
C255 O268 1.236 . S
C256 O278 1.240 . S
C256 O279 1.264 . S
O257 Mn252 2.095 . S
O257 C266 1.250 . S
O258 Mn253 2.121 1_554 S
O258 C266 1.258 . S
C259 N260 1.326 1_554 S
C259 C263 1.460 . S
C259 H265 0.929 . S
N260 Mn253 2.257 1_565 S
N260 C259 1.326 1_556 S
N260 C264 1.362 . S
C261 C262 1.258 . S
C261 C264 1.431 . S
C261 C281 1.449 . S
C262 C261 1.258 . S
C262 C263 1.477 1_556 S
C262 H282 0.931 . S
C263 C259 1.460 . S
C263 C262 1.477 1_554 S
C263 H283 0.930 . S
C264 N260 1.362 . S
C264 C261 1.431 . S
C264 C274 1.476 1_565 S
H265 C259 0.929 . S
C266 O257 1.250 . S
C266 O258 1.258 . S
O267 Mn252 2.162 . S
O267 C255 1.281 . S
O268 Mn252 2.297 . S
O268 C255 1.236 . S
N269 Mn253 2.282 . S
N269 C270 1.328 . S
N269 C274 1.318 . S
C270 N269 1.328 . S
C270 C271 1.457 . S
C270 H275 0.929 . S
C271 C270 1.457 . S
C271 C272 1.291 . S
C271 H284 0.931 . S
C272 C271 1.291 . S
C272 C273 1.373 . S
C272 H285 0.929 . S
C273 C272 1.373 . S
C273 C274 1.396 . S
C273 C280 1.403 1_545 S
C274 C264 1.476 1_545 S
C274 N269 1.318 . S
C274 C273 1.396 . S
H275 C270 0.929 . S
O276 Mn252 2.385 . S
O276 C254 1.234 . S
O277 Mn252 2.209 . S
O277 Mn253 2.215 1_554 S
O277 C254 1.283 . S
O278 Mn252 2.094 1_556 S
O278 C256 1.240 . S
O279 Mn253 2.117 . S
O279 C256 1.264 . S
C280 C273 1.403 1_565 S
C280 C281 1.399 . S
C280 H286 0.929 . S
C281 C261 1.449 . S
C281 C280 1.399 . S
C281 H287 0.930 . S
H282 C262 0.931 . S
H283 C263 0.930 . S
H284 C271 0.931 . S
H285 C272 0.929 . S
H286 C280 0.929 . S
H287 C281 0.930 . S
Mn288 O293 2.095 . S
Mn288 O303 2.162 . S
Mn288 O304 2.297 . S
Mn288 O312 2.385 . S
Mn288 O313 2.209 . S
Mn288 O314 2.094 . S
Mn289 O294 2.121 . S
Mn289 N296 2.257 . S
Mn289 N305 2.268 1_554 S
Mn289 O313 2.215 . S
Mn289 O315 2.117 . S
C290 O312 1.234 . S
C290 O313 1.283 . S
C291 O303 1.281 . S
C291 O304 1.236 . S
C292 O314 1.240 . S
C292 O315 1.264 . S
O293 Mn288 2.095 . S
O293 C302 1.250 . S
O294 Mn289 2.121 . S
O294 C302 1.258 . S
C295 N296 1.326 . S
C295 C299 1.460 . S
C295 H301 0.929 . S
N296 Mn289 2.257 . S
N296 C295 1.326 . S
N296 C300 1.362 . S
C297 C298 1.258 . S
C297 C300 1.431 . S
C297 C317 1.449 . S
C298 C297 1.258 . S
C298 C299 1.477 . S
C298 H318 0.931 . S
C299 C295 1.460 . S
C299 C298 1.477 . S
C299 H319 0.930 . S
C300 N296 1.362 . S
C300 C297 1.431 . S
C300 C310 1.492 . S
H301 C295 0.929 . S
C302 O293 1.250 . S
C302 O294 1.258 . S
O303 Mn288 2.162 . S
O303 C291 1.281 . S
O304 Mn288 2.297 . S
O304 C291 1.236 . S
N305 Mn289 2.268 1_556 S
N305 C306 1.342 . S
N305 C310 1.317 1_556 S
C306 N305 1.342 . S
C306 C307 1.457 . S
C306 H311 0.929 . S
C307 C306 1.457 . S
C307 C308 1.291 . S
C307 H320 0.931 . S
C308 C307 1.291 . S
C308 C309 1.373 . S
C308 H321 0.929 . S
C309 C308 1.373 . S
C309 C310 1.382 1_556 S
C309 C316 1.403 . S
C310 C300 1.492 . S
C310 N305 1.317 1_554 S
C310 C309 1.382 1_554 S
H311 C306 0.929 . S
O312 Mn288 2.385 . S
O312 C290 1.234 . S
O313 Mn288 2.209 . S
O313 Mn289 2.215 . S
O313 C290 1.283 . S
O314 Mn288 2.094 . S
O314 C292 1.240 . S
O315 Mn289 2.117 . S
O315 C292 1.264 . S
C316 C309 1.403 . S
C316 C317 1.399 1_556 S
C316 H322 0.929 . S
C317 C297 1.449 . S
C317 C316 1.399 1_554 S
C317 H323 0.930 . S
H318 C298 0.931 . S
H319 C299 0.930 . S
H320 C307 0.931 . S
H321 C308 0.929 . S
H322 C316 0.929 . S
H323 C317 0.930 . S
Mn324 O329 2.095 . S
Mn324 O339 2.162 . S
Mn324 O340 2.297 . S
Mn324 O348 2.385 . S
Mn324 O349 2.209 . S
Mn324 O350 2.094 . S
Mn325 O330 2.121 . S
Mn325 N332 2.257 . S
Mn325 N341 2.282 . S
Mn325 O349 2.215 . S
Mn325 O351 2.117 . S
C326 O348 1.234 . S
C326 O349 1.283 . S
C327 O339 1.281 . S
C327 O340 1.236 . S
C328 O350 1.240 . S
C328 O351 1.264 . S
O329 Mn324 2.095 . S
O329 C338 1.250 . S
O330 Mn325 2.121 . S
O330 C338 1.258 . S
C331 N332 1.326 . S
C331 C335 1.460 . S
C331 H337 0.929 . S
N332 Mn325 2.257 . S
N332 C331 1.326 . S
N332 C336 1.362 . S
C333 C334 1.258 . S
C333 C336 1.431 . S
C333 C353 1.449 . S
C334 C333 1.258 . S
C334 C335 1.477 . S
C334 H354 0.931 . S
C335 C331 1.460 . S
C335 C334 1.477 . S
C335 H355 0.930 . S
C336 N332 1.362 . S
C336 C333 1.431 . S
C336 C346 1.476 . S
H337 C331 0.929 . S
C338 O329 1.250 . S
C338 O330 1.258 . S
O339 Mn324 2.162 . S
O339 C327 1.281 . S
O340 Mn324 2.297 . S
O340 C327 1.236 . S
N341 Mn325 2.282 . S
N341 C342 1.328 . S
N341 C346 1.318 . S
C342 N341 1.328 . S
C342 C343 1.457 . S
C342 H347 0.929 . S
C343 C342 1.457 . S
C343 C344 1.291 . S
C343 H356 0.931 . S
C344 C343 1.291 . S
C344 C345 1.373 . S
C344 H357 0.929 . S
C345 C344 1.373 . S
C345 C346 1.396 . S
C345 C352 1.403 . S
C346 C336 1.476 . S
C346 N341 1.318 . S
C346 C345 1.396 . S
H347 C342 0.929 . S
O348 Mn324 2.385 . S
O348 C326 1.234 . S
O349 Mn324 2.209 . S
O349 Mn325 2.215 . S
O349 C326 1.283 . S
O350 Mn324 2.094 . S
O350 C328 1.240 . S
O351 Mn325 2.117 . S
O351 C328 1.264 . S
C352 C345 1.403 . S
C352 C353 1.399 . S
C352 H358 0.929 . S
C353 C333 1.449 . S
C353 C352 1.399 . S
C353 H359 0.930 . S
H354 C334 0.931 . S
H355 C335 0.930 . S
H356 C343 0.931 . S
H357 C344 0.929 . S
H358 C352 0.929 . S
H359 C353 0.930 . S
Mn360 O365 2.095 . S
Mn360 O375 2.162 . S
Mn360 O376 2.297 . S
Mn360 O384 2.385 . S
Mn360 O385 2.209 . S
Mn360 O386 2.094 . S
Mn361 O366 2.121 . S
Mn361 N368 2.257 . S
Mn361 N377 2.282 . S
Mn361 O385 2.215 . S
Mn361 O387 2.117 . S
C362 O384 1.234 . S
C362 O385 1.283 . S
C363 O375 1.281 . S
C363 O376 1.236 . S
C364 O386 1.240 . S
C364 O387 1.264 . S
O365 Mn360 2.095 . S
O365 C374 1.250 . S
O366 Mn361 2.121 . S
O366 C374 1.258 . S
C367 N368 1.326 . S
C367 C371 1.460 . S
C367 H373 0.929 . S
N368 Mn361 2.257 . S
N368 C367 1.326 . S
N368 C372 1.362 . S
C369 C370 1.258 . S
C369 C372 1.431 . S
C369 C389 1.449 . S
C370 C369 1.258 . S
C370 C371 1.477 . S
C370 H390 0.931 . S
C371 C367 1.460 . S
C371 C370 1.477 . S
C371 H391 0.930 . S
C372 N368 1.362 . S
C372 C369 1.431 . S
C372 C382 1.476 . S
H373 C367 0.929 . S
C374 O365 1.250 . S
C374 O366 1.258 . S
O375 Mn360 2.162 . S
O375 C363 1.281 . S
O376 Mn360 2.297 . S
O376 C363 1.236 . S
N377 Mn361 2.282 . S
N377 C378 1.328 . S
N377 C382 1.318 . S
C378 N377 1.328 . S
C378 C379 1.457 . S
C378 H383 0.929 . S
C379 C378 1.457 . S
C379 C380 1.291 . S
C379 H392 0.931 . S
C380 C379 1.291 . S
C380 C381 1.373 . S
C380 H393 0.929 . S
C381 C380 1.373 . S
C381 C382 1.396 . S
C381 C388 1.403 . S
C382 C372 1.476 . S
C382 N377 1.318 . S
C382 C381 1.396 . S
H383 C378 0.929 . S
O384 Mn360 2.385 . S
O384 C362 1.234 . S
O385 Mn360 2.209 . S
O385 Mn361 2.215 . S
O385 C362 1.283 . S
O386 Mn360 2.094 . S
O386 C364 1.240 . S
O387 Mn361 2.117 . S
O387 C364 1.264 . S
C388 C381 1.403 . S
C388 C389 1.399 . S
C388 H394 0.929 . S
C389 C369 1.449 . S
C389 C388 1.399 . S
C389 H395 0.930 . S
H390 C370 0.931 . S
H391 C371 0.930 . S
H392 C379 0.931 . S
H393 C380 0.929 . S
H394 C388 0.929 . S
H395 C389 0.930 . S
Mn396 O401 2.095 . S
Mn396 O411 2.162 . S
Mn396 O412 2.297 . S
Mn396 O420 2.385 . S
Mn396 O421 2.209 . S
Mn396 O422 2.094 . S
Mn397 O402 2.121 . S
Mn397 N404 2.257 . S
Mn397 N413 2.282 . S
Mn397 O421 2.215 . S
Mn397 O423 2.117 . S
C398 O420 1.234 . S
C398 O421 1.283 . S
C399 O411 1.281 . S
C399 O412 1.236 . S
C400 O422 1.240 . S
C400 O423 1.264 . S
O401 Mn396 2.095 . S
O401 C410 1.250 . S
O402 Mn397 2.121 . S
O402 C410 1.258 . S
C403 N404 1.326 . S
C403 C407 1.460 . S
C403 H409 0.929 . S
N404 Mn397 2.257 . S
N404 C403 1.326 . S
N404 C408 1.362 . S
C405 C406 1.258 . S
C405 C408 1.431 . S
C405 C425 1.449 . S
C406 C405 1.258 . S
C406 C407 1.477 . S
C406 H426 0.931 . S
C407 C403 1.460 . S
C407 C406 1.477 . S
C407 H427 0.930 . S
C408 N404 1.362 . S
C408 C405 1.431 . S
C408 C418 1.476 . S
H409 C403 0.929 . S
C410 O401 1.250 . S
C410 O402 1.258 . S
O411 Mn396 2.162 . S
O411 C399 1.281 . S
O412 Mn396 2.297 . S
O412 C399 1.236 . S
N413 Mn397 2.282 . S
N413 C414 1.328 . S
N413 C418 1.318 . S
C414 N413 1.328 . S
C414 C415 1.457 . S
C414 H419 0.929 . S
C415 C414 1.457 . S
C415 C416 1.291 . S
C415 H428 0.931 . S
C416 C415 1.291 . S
C416 C417 1.373 . S
C416 H429 0.929 . S
C417 C416 1.373 . S
C417 C418 1.396 . S
C417 C424 1.403 . S
C418 C408 1.476 . S
C418 N413 1.318 . S
C418 C417 1.396 . S
H419 C414 0.929 . S
O420 Mn396 2.385 . S
O420 C398 1.234 . S
O421 Mn396 2.209 . S
O421 Mn397 2.215 . S
O421 C398 1.283 . S
O422 Mn396 2.094 . S
O422 C400 1.240 . S
O423 Mn397 2.117 . S
O423 C400 1.264 . S
C424 C417 1.403 . S
C424 C425 1.399 . S
C424 H430 0.929 . S
C425 C405 1.449 . S
C425 C424 1.399 . S
C425 H431 0.930 . S
H426 C406 0.931 . S
H427 C407 0.930 . S
H428 C415 0.931 . S
H429 C416 0.929 . S
H430 C424 0.929 . S
H431 C425 0.930 . S
Mn432 O437 2.095 1_455 S
Mn432 O447 2.162 . S
Mn432 O448 2.297 . S
Mn432 O456 2.385 . S
Mn432 O457 2.209 1_455 S
Mn432 O458 2.094 1_455 S
Mn433 O438 2.121 . S
Mn433 N440 2.257 . S
Mn433 N449 2.282 . S
Mn433 O457 2.215 . S
Mn433 O459 2.117 . S
C434 O456 1.234 . S
C434 O457 1.283 1_455 S
C435 O447 1.281 . S
C435 O448 1.236 . S
C436 O458 1.240 . S
C436 O459 1.264 . S
O437 Mn432 2.095 1_655 S
O437 C446 1.250 . S
O438 Mn433 2.121 . S
O438 C446 1.258 . S
C439 N440 1.326 1_554 S
C439 C443 1.460 . S
C439 H445 0.929 . S
N440 Mn433 2.257 . S
N440 C439 1.326 1_556 S
N440 C444 1.362 . S
C441 C442 1.258 . S
C441 C444 1.431 1_554 S
C441 C461 1.449 . S
C442 C441 1.258 . S
C442 C443 1.477 . S
C442 H462 0.931 . S
C443 C439 1.460 . S
C443 C442 1.477 . S
C443 H463 0.930 . S
C444 N440 1.362 . S
C444 C441 1.431 1_556 S
C444 C454 1.476 . S
H445 C439 0.929 . S
C446 O437 1.250 . S
C446 O438 1.258 . S
O447 Mn432 2.162 . S
O447 C435 1.281 . S
O448 Mn432 2.297 . S
O448 C435 1.236 . S
N449 Mn433 2.282 . S
N449 C450 1.328 . S
N449 C454 1.318 . S
C450 N449 1.328 . S
C450 C451 1.457 . S
C450 H455 0.929 . S
C451 C450 1.457 . S
C451 C452 1.291 . S
C451 H464 0.931 . S
C452 C451 1.291 . S
C452 C453 1.373 . S
C452 H465 0.929 . S
C453 C452 1.373 . S
C453 C454 1.396 . S
C453 C460 1.403 1_556 S
C454 C444 1.476 . S
C454 N449 1.318 . S
C454 C453 1.396 . S
H455 C450 0.929 . S
O456 Mn432 2.385 . S
O456 C434 1.234 . S
O457 Mn432 2.209 1_655 S
O457 Mn433 2.215 . S
O457 C434 1.283 1_655 S
O458 Mn432 2.094 1_655 S
O458 C436 1.240 . S
O459 Mn433 2.117 . S
O459 C436 1.264 . S
C460 C453 1.403 1_554 S
C460 C461 1.399 . S
C460 H466 0.929 . S
C461 C441 1.449 . S
C461 C460 1.399 . S
C461 H467 0.930 . S
H462 C442 0.931 . S
H463 C443 0.930 . S
H464 C451 0.931 . S
H465 C452 0.929 . S
H466 C460 0.929 . S
H467 C461 0.930 . S
Mn468 O473 2.095 . S
Mn468 O483 2.162 . S
Mn468 O484 2.297 . S
Mn468 O492 2.385 . S
Mn468 O493 2.209 . S
Mn468 O494 2.094 . S
Mn469 O474 2.121 1_655 S
Mn469 N476 2.257 . S
Mn469 N485 2.282 . S
Mn469 O493 2.215 1_655 S
Mn469 O495 2.117 . S
C470 O492 1.234 . S
C470 O493 1.283 . S
C471 O483 1.281 . S
C471 O484 1.236 . S
C472 O494 1.240 1_655 S
C472 O495 1.264 . S
O473 Mn468 2.095 . S
O473 C482 1.250 . S
O474 Mn469 2.121 1_455 S
O474 C482 1.258 . S
C475 N476 1.326 1_455 S
C475 C479 1.460 . S
C475 H481 0.929 . S
N476 Mn469 2.257 . S
N476 C475 1.326 1_655 S
N476 C480 1.362 . S
C477 C478 1.258 . S
C477 C480 1.431 . S
C477 C497 1.449 . S
C478 C477 1.258 . S
C478 C479 1.477 1_655 S
C478 H498 0.931 . S
C479 C475 1.460 . S
C479 C478 1.477 1_455 S
C479 H499 0.930 . S
C480 N476 1.362 . S
C480 C477 1.431 . S
C480 C490 1.476 . S
H481 C475 0.929 . S
C482 O473 1.250 . S
C482 O474 1.258 . S
O483 Mn468 2.162 . S
O483 C471 1.281 . S
O484 Mn468 2.297 . S
O484 C471 1.236 . S
N485 Mn469 2.282 . S
N485 C486 1.328 . S
N485 C490 1.318 . S
C486 N485 1.328 . S
C486 C487 1.457 . S
C486 H491 0.929 . S
C487 C486 1.457 . S
C487 C488 1.291 . S
C487 H500 0.931 . S
C488 C487 1.291 . S
C488 C489 1.373 . S
C488 H501 0.929 . S
C489 C488 1.373 . S
C489 C490 1.396 . S
C489 C496 1.403 . S
C490 C480 1.476 . S
C490 N485 1.318 . S
C490 C489 1.396 . S
H491 C486 0.929 . S
O492 Mn468 2.385 . S
O492 C470 1.234 . S
O493 Mn468 2.209 . S
O493 Mn469 2.215 1_455 S
O493 C470 1.283 . S
O494 Mn468 2.094 . S
O494 C472 1.240 1_455 S
O495 Mn469 2.117 . S
O495 C472 1.264 . S
C496 C489 1.403 . S
C496 C497 1.399 . S
C496 H502 0.929 . S
C497 C477 1.449 . S
C497 C496 1.399 . S
C497 H503 0.930 . S
H498 C478 0.931 . S
H499 C479 0.930 . S
H500 C487 0.931 . S
H501 C488 0.929 . S
H502 C496 0.929 . S
H503 C497 0.930 . S
Mn504 O509 2.095 . S
Mn504 O519 2.162 . S
Mn504 O520 2.297 . S
Mn504 O528 2.385 . S
Mn504 O529 2.209 . S
Mn504 O530 2.094 . S
Mn505 O510 2.121 . S
Mn505 N512 2.257 . S
Mn505 N521 2.282 . S
Mn505 O529 2.215 . S
Mn505 O531 2.117 . S
C506 O528 1.234 . S
C506 O529 1.283 . S
C507 O519 1.281 . S
C507 O520 1.236 . S
C508 O530 1.240 . S
C508 O531 1.264 . S
O509 Mn504 2.095 . S
O509 C518 1.250 . S
O510 Mn505 2.121 . S
O510 C518 1.258 . S
C511 N512 1.326 . S
C511 C515 1.460 . S
C511 H517 0.929 . S
N512 Mn505 2.257 . S
N512 C511 1.326 . S
N512 C516 1.362 . S
C513 C514 1.258 . S
C513 C516 1.431 . S
C513 C533 1.449 . S
C514 C513 1.258 . S
C514 C515 1.477 . S
C514 H534 0.931 . S
C515 C511 1.460 . S
C515 C514 1.477 . S
C515 H535 0.930 . S
C516 N512 1.362 . S
C516 C513 1.431 . S
C516 C526 1.476 . S
H517 C511 0.929 . S
C518 O509 1.250 . S
C518 O510 1.258 . S
O519 Mn504 2.162 . S
O519 C507 1.281 . S
O520 Mn504 2.297 . S
O520 C507 1.236 . S
N521 Mn505 2.282 . S
N521 C522 1.328 . S
N521 C526 1.318 . S
C522 N521 1.328 . S
C522 C523 1.457 . S
C522 H527 0.929 . S
C523 C522 1.457 . S
C523 C524 1.291 . S
C523 H536 0.931 . S
C524 C523 1.291 . S
C524 C525 1.373 . S
C524 H537 0.929 . S
C525 C524 1.373 . S
C525 C526 1.396 . S
C525 C532 1.403 . S
C526 C516 1.476 . S
C526 N521 1.318 . S
C526 C525 1.396 . S
H527 C522 0.929 . S
O528 Mn504 2.385 . S
O528 C506 1.234 . S
O529 Mn504 2.209 . S
O529 Mn505 2.215 . S
O529 C506 1.283 . S
O530 Mn504 2.094 . S
O530 C508 1.240 . S
O531 Mn505 2.117 . S
O531 C508 1.264 . S
C532 C525 1.403 . S
C532 C533 1.399 . S
C532 H538 0.929 . S
C533 C513 1.449 . S
C533 C532 1.399 . S
C533 H539 0.930 . S
H534 C514 0.931 . S
H535 C515 0.930 . S
H536 C523 0.931 . S
H537 C524 0.929 . S
H538 C532 0.929 . S
H539 C533 0.930 . S
Mn540 O545 2.095 . S
Mn540 O555 2.162 . S
Mn540 O556 2.297 . S
Mn540 O564 2.385 . S
Mn540 O565 2.209 . S
Mn540 O566 2.094 . S
Mn541 O546 2.121 . S
Mn541 N548 2.257 . S
Mn541 N557 2.282 . S
Mn541 O565 2.215 . S
Mn541 O567 2.117 . S
C542 O564 1.234 . S
C542 O565 1.283 . S
C543 O555 1.281 . S
C543 O556 1.236 . S
C544 O566 1.240 . S
C544 O567 1.264 . S
O545 Mn540 2.095 . S
O545 C554 1.250 . S
O546 Mn541 2.121 . S
O546 C554 1.258 . S
C547 N548 1.326 . S
C547 C551 1.460 . S
C547 H553 0.929 . S
N548 Mn541 2.257 . S
N548 C547 1.326 . S
N548 C552 1.362 . S
C549 C550 1.258 . S
C549 C552 1.431 . S
C549 C569 1.449 . S
C550 C549 1.258 . S
C550 C551 1.477 . S
C550 H570 0.931 1_554 S
C551 C547 1.460 . S
C551 C550 1.477 . S
C551 H571 0.930 . S
C552 N548 1.362 . S
C552 C549 1.431 . S
C552 C562 1.476 . S
H553 C547 0.929 . S
C554 O545 1.250 . S
C554 O546 1.258 . S
O555 Mn540 2.162 . S
O555 C543 1.281 . S
O556 Mn540 2.297 . S
O556 C543 1.236 . S
N557 Mn541 2.282 . S
N557 C558 1.328 . S
N557 C562 1.318 . S
C558 N557 1.328 . S
C558 C559 1.457 . S
C558 H563 0.929 . S
C559 C558 1.457 . S
C559 C560 1.291 . S
C559 H572 0.931 . S
C560 C559 1.291 . S
C560 C561 1.373 . S
C560 H573 0.929 . S
C561 C560 1.373 . S
C561 C562 1.396 . S
C561 C568 1.403 . S
C562 C552 1.476 . S
C562 N557 1.318 . S
C562 C561 1.396 . S
H563 C558 0.929 . S
O564 Mn540 2.385 . S
O564 C542 1.234 . S
O565 Mn540 2.209 . S
O565 Mn541 2.215 . S
O565 C542 1.283 . S
O566 Mn540 2.094 . S
O566 C544 1.240 . S
O567 Mn541 2.117 . S
O567 C544 1.264 . S
C568 C561 1.403 . S
C568 C569 1.399 . S
C568 H574 0.929 . S
C569 C549 1.449 . S
C569 C568 1.399 . S
C569 H575 0.930 . S
H570 C550 0.931 1_556 S
H571 C551 0.930 . S
H572 C559 0.931 . S
H573 C560 0.929 . S
H574 C568 0.929 . S
H575 C569 0.930 . S
Mn576 O581 2.095 . S
Mn576 O591 2.162 . S
Mn576 O592 2.297 . S
Mn576 O600 2.385 1_545 S
Mn576 O601 2.209 1_545 S
Mn576 O602 2.094 . S
Mn577 O582 2.121 . S
Mn577 N584 2.257 1_545 S
Mn577 N593 2.282 1_545 S
Mn577 O601 2.215 1_545 S
Mn577 O603 2.117 . S
C578 O600 1.234 . S
C578 O601 1.283 . S
C579 O591 1.281 . S
C579 O592 1.236 . S
C580 O602 1.240 . S
C580 O603 1.264 . S
O581 Mn576 2.095 . S
O581 C590 1.250 . S
O582 Mn577 2.121 . S
O582 C590 1.258 . S
C583 N584 1.326 1_545 S
C583 C587 1.455 1_545 S
C583 H589 0.929 . S
N584 Mn577 2.257 1_565 S
N584 C583 1.326 1_565 S
N584 C588 1.362 . S
C585 C586 1.258 . S
C585 C588 1.431 . S
C585 C605 1.449 . S
C586 C585 1.258 . S
C586 C587 1.491 . S
C586 H606 0.931 . S
C587 C583 1.455 1_565 S
C587 C586 1.491 . S
C587 H607 0.921 1_565 S
C588 N584 1.362 . S
C588 C585 1.431 . S
C588 C598 1.476 . S
H589 C583 0.929 . S
C590 O581 1.250 . S
C590 O582 1.258 . S
O591 Mn576 2.162 . S
O591 C579 1.281 . S
O592 Mn576 2.297 . S
O592 C579 1.236 . S
N593 Mn577 2.282 1_565 S
N593 C594 1.328 . S
N593 C598 1.318 . S
C594 N593 1.328 . S
C594 C595 1.457 . S
C594 H599 0.929 . S
C595 C594 1.457 . S
C595 C596 1.291 . S
C595 H608 0.931 . S
C596 C595 1.291 . S
C596 C597 1.373 . S
C596 H609 0.929 . S
C597 C596 1.373 . S
C597 C598 1.396 . S
C597 C604 1.403 . S
C598 C588 1.476 . S
C598 N593 1.318 . S
C598 C597 1.396 . S
H599 C594 0.929 . S
O600 Mn576 2.385 1_565 S
O600 C578 1.234 . S
O601 Mn576 2.209 1_565 S
O601 Mn577 2.215 1_565 S
O601 C578 1.283 . S
O602 Mn576 2.094 . S
O602 C580 1.240 . S
O603 Mn577 2.117 . S
O603 C580 1.264 . S
C604 C597 1.403 . S
C604 C605 1.399 . S
C604 H610 0.929 . S
C605 C585 1.449 . S
C605 C604 1.399 . S
C605 H611 0.930 . S
H606 C586 0.931 . S
H607 C587 0.921 1_545 S
H608 C595 0.931 . S
H609 C596 0.929 . S
H610 C604 0.929 . S
H611 C605 0.930 . S
Mn612 O617 2.095 . S
Mn612 O627 2.162 . S
Mn612 O628 2.297 . S
Mn612 O636 2.385 . S
Mn612 O637 2.209 . S
Mn612 O638 2.094 . S
Mn613 O618 2.121 . S
Mn613 N620 2.257 . S
Mn613 N629 2.282 . S
Mn613 O637 2.215 . S
Mn613 O639 2.117 . S
C614 O636 1.234 . S
C614 O637 1.283 . S
C615 O627 1.281 . S
C615 O628 1.236 . S
C616 O638 1.240 . S
C616 O639 1.264 . S
O617 Mn612 2.095 . S
O617 C626 1.250 . S
O618 Mn613 2.121 . S
O618 C626 1.258 . S
C619 N620 1.326 1_565 S
C619 C623 1.460 . S
C619 H625 0.929 . S
N620 Mn613 2.257 . S
N620 C619 1.326 1_545 S
N620 C624 1.362 1_545 S
C621 C622 1.258 . S
C621 C624 1.431 . S
C621 C641 1.449 . S
C622 C621 1.258 . S
C622 C623 1.477 . S
C622 H642 0.931 . S
C623 C619 1.460 . S
C623 C622 1.477 . S
C623 H643 0.930 . S
C624 N620 1.362 1_565 S
C624 C621 1.431 . S
C624 C634 1.476 1_565 S
H625 C619 0.929 . S
C626 O617 1.250 . S
C626 O618 1.258 . S
O627 Mn612 2.162 . S
O627 C615 1.281 . S
O628 Mn612 2.297 . S
O628 C615 1.236 . S
N629 Mn613 2.282 . S
N629 C630 1.328 . S
N629 C634 1.318 . S
C630 N629 1.328 . S
C630 C631 1.457 . S
C630 H635 0.929 . S
C631 C630 1.457 . S
C631 C632 1.291 . S
C631 H644 0.931 . S
C632 C631 1.291 . S
C632 C633 1.373 . S
C632 H645 0.929 . S
C633 C632 1.373 . S
C633 C634 1.396 . S
C633 C640 1.403 1_545 S
C634 C624 1.476 1_545 S
C634 N629 1.318 . S
C634 C633 1.396 . S
H635 C630 0.929 . S
O636 Mn612 2.385 . S
O636 C614 1.234 . S
O637 Mn612 2.209 . S
O637 Mn613 2.215 . S
O637 C614 1.283 . S
O638 Mn612 2.094 . S
O638 C616 1.240 . S
O639 Mn613 2.117 . S
O639 C616 1.264 . S
C640 C633 1.403 1_565 S
C640 C641 1.399 . S
C640 H646 0.929 . S
C641 C621 1.449 . S
C641 C640 1.399 . S
C641 H647 0.930 . S
H642 C622 0.931 . S
H643 C623 0.930 . S
H644 C631 0.931 . S
H645 C632 0.929 . S
H646 C640 0.929 . S
H647 C641 0.930 . S
Mn648 O653 2.095 1_545 S
Mn648 O663 2.162 . S
Mn648 O664 2.297 . S
Mn648 O672 2.385 . S
Mn648 O673 2.209 . S
Mn648 O674 2.094 . S
Mn649 O654 2.121 1_545 S
Mn649 N656 2.257 . S
Mn649 N665 2.282 . S
Mn649 O673 2.215 . S
Mn649 O675 2.117 . S
C650 O672 1.234 . S
C650 O673 1.283 . S
C651 O663 1.281 . S
C651 O664 1.236 . S
C652 O674 1.240 . S
C652 O675 1.264 . S
O653 Mn648 2.095 1_565 S
O653 C662 1.250 . S
O654 Mn649 2.121 1_565 S
O654 C662 1.258 . S
C655 N656 1.326 . S
C655 C659 1.460 . S
C655 H661 0.929 1_545 S
N656 Mn649 2.257 . S
N656 C655 1.326 . S
N656 C660 1.362 . S
C657 C658 1.258 . S
C657 C660 1.431 . S
C657 C677 1.449 . S
C658 C657 1.258 . S
C658 C659 1.477 . S
C658 H678 0.931 . S
C659 C655 1.460 . S
C659 C658 1.477 . S
C659 H679 0.930 . S
C660 N656 1.362 . S
C660 C657 1.431 . S
C660 C670 1.476 . S
H661 C655 0.929 1_565 S
C662 O653 1.250 . S
C662 O654 1.258 . S
O663 Mn648 2.162 . S
O663 C651 1.281 . S
O664 Mn648 2.297 . S
O664 C651 1.236 . S
N665 Mn649 2.282 . S
N665 C666 1.328 . S
N665 C670 1.318 . S
C666 N665 1.328 . S
C666 C667 1.457 . S
C666 H671 0.929 . S
C667 C666 1.457 . S
C667 C668 1.291 . S
C667 H680 0.931 . S
C668 C667 1.291 . S
C668 C669 1.373 . S
C668 H681 0.929 . S
C669 C668 1.373 . S
C669 C670 1.396 . S
C669 C676 1.403 . S
C670 C660 1.476 . S
C670 N665 1.318 . S
C670 C669 1.396 . S
H671 C666 0.929 . S
O672 Mn648 2.385 . S
O672 C650 1.234 . S
O673 Mn648 2.209 . S
O673 Mn649 2.215 . S
O673 C650 1.283 . S
O674 Mn648 2.094 . S
O674 C652 1.240 . S
O675 Mn649 2.117 . S
O675 C652 1.264 . S
C676 C669 1.403 . S
C676 C677 1.399 . S
C676 H682 0.929 . S
C677 C657 1.449 . S
C677 C676 1.399 . S
C677 H683 0.930 . S
H678 C658 0.931 . S
H679 C659 0.930 . S
H680 C667 0.931 . S
H681 C668 0.929 . S
H682 C676 0.929 . S
H683 C677 0.930 . S
Mn684 O689 2.095 . S
Mn684 O699 2.162 . S
Mn684 O700 2.297 . S
Mn684 O708 2.385 . S
Mn684 O709 2.209 . S
Mn684 O710 2.094 1_554 S
Mn685 O690 2.121 1_556 S
Mn685 N692 2.257 1_565 S
Mn685 N701 2.282 . S
Mn685 O709 2.215 1_556 S
Mn685 O711 2.117 . S
C686 O708 1.234 . S
C686 O709 1.283 . S
C687 O699 1.281 . S
C687 O700 1.236 . S
C688 O710 1.240 . S
C688 O711 1.264 . S
O689 Mn684 2.095 . S
O689 C698 1.250 . S
O690 Mn685 2.121 1_554 S
O690 C698 1.258 . S
C691 N692 1.326 1_554 S
C691 C695 1.460 . S
C691 H697 0.929 . S
N692 Mn685 2.257 1_545 S
N692 C691 1.326 1_556 S
N692 C696 1.362 . S
C693 C694 1.258 . S
C693 C696 1.431 . S
C693 C713 1.449 . S
C694 C693 1.258 . S
C694 C695 1.477 1_556 S
C694 H714 0.931 . S
C695 C691 1.460 . S
C695 C694 1.477 1_554 S
C695 H715 0.930 . S
C696 N692 1.362 . S
C696 C693 1.431 . S
C696 C706 1.476 . S
H697 C691 0.929 . S
C698 O689 1.250 . S
C698 O690 1.258 . S
O699 Mn684 2.162 . S
O699 C687 1.281 . S
O700 Mn684 2.297 . S
O700 C687 1.236 . S
N701 Mn685 2.282 . S
N701 C702 1.328 . S
N701 C706 1.318 1_565 S
C702 N701 1.328 . S
C702 C703 1.457 . S
C702 H707 0.929 . S
C703 C702 1.457 . S
C703 C704 1.291 1_565 S
C703 H716 0.931 . S
C704 C703 1.291 1_545 S
C704 C705 1.373 . S
C704 H717 0.929 . S
C705 C704 1.373 . S
C705 C706 1.396 . S
C705 C712 1.403 . S
C706 C696 1.476 . S
C706 N701 1.318 1_545 S
C706 C705 1.396 . S
H707 C702 0.929 . S
O708 Mn684 2.385 . S
O708 C686 1.234 . S
O709 Mn684 2.209 . S
O709 Mn685 2.215 1_554 S
O709 C686 1.283 . S
O710 Mn684 2.094 1_556 S
O710 C688 1.240 . S
O711 Mn685 2.117 . S
O711 C688 1.264 . S
C712 C705 1.403 . S
C712 C713 1.399 . S
C712 H718 0.929 . S
C713 C693 1.449 . S
C713 C712 1.399 . S
C713 H719 0.930 . S
H714 C694 0.931 . S
H715 C695 0.930 . S
H716 C703 0.931 . S
H717 C704 0.929 . S
H718 C712 0.929 . S
H719 C713 0.930 . S
Mn720 O725 2.095 1_554 S
Mn720 O735 2.162 . S
Mn720 O736 2.297 . S
Mn720 O744 2.385 . S
Mn720 O745 2.209 1_554 S
Mn720 O746 2.094 1_554 S
Mn721 O726 2.121 . S
Mn721 N728 2.257 . S
Mn721 N737 2.282 . S
Mn721 O745 2.215 . S
Mn721 O747 2.117 . S
C722 O744 1.237 . S
C722 O745 1.279 1_554 S
C723 O735 1.281 . S
C723 O736 1.236 . S
C724 O746 1.240 . S
C724 O747 1.264 . S
O725 Mn720 2.095 1_556 S
O725 C734 1.250 . S
O726 Mn721 2.121 . S
O726 C734 1.258 . S
C727 N728 1.326 . S
C727 C731 1.460 . S
C727 H733 0.929 . S
N728 Mn721 2.257 . S
N728 C727 1.326 . S
N728 C732 1.362 . S
C729 C730 1.258 . S
C729 C732 1.431 . S
C729 C749 1.449 . S
C730 C729 1.258 . S
C730 C731 1.477 . S
C730 H750 0.931 . S
C731 C727 1.460 . S
C731 C730 1.477 . S
C731 H751 0.930 . S
C732 N728 1.362 . S
C732 C729 1.431 . S
C732 C742 1.476 . S
H733 C727 0.929 . S
C734 O725 1.250 . S
C734 O726 1.258 . S
O735 Mn720 2.162 . S
O735 C723 1.281 . S
O736 Mn720 2.297 . S
O736 C723 1.236 . S
N737 Mn721 2.282 . S
N737 C738 1.328 . S
N737 C742 1.318 . S
C738 N737 1.328 . S
C738 C739 1.457 . S
C738 H743 0.929 . S
C739 C738 1.457 . S
C739 C740 1.291 . S
C739 H752 0.931 . S
C740 C739 1.291 . S
C740 C741 1.373 . S
C740 H753 0.929 . S
C741 C740 1.373 . S
C741 C742 1.396 . S
C741 C748 1.403 . S
C742 C732 1.476 . S
C742 N737 1.318 . S
C742 C741 1.396 . S
H743 C738 0.929 . S
O744 Mn720 2.385 . S
O744 C722 1.237 . S
O745 Mn720 2.209 1_556 S
O745 Mn721 2.215 . S
O745 C722 1.279 1_556 S
O746 Mn720 2.094 1_556 S
O746 C724 1.240 . S
O747 Mn721 2.117 . S
O747 C724 1.264 . S
C748 C741 1.403 . S
C748 C749 1.399 . S
C748 H754 0.929 . S
C749 C729 1.449 . S
C749 C748 1.399 . S
C749 H755 0.930 . S
H750 C730 0.931 . S
H751 C731 0.930 . S
H752 C739 0.931 . S
H753 C740 0.929 . S
H754 C748 0.929 . S
H755 C749 0.930 . S
Mn756 O761 2.095 . S
Mn756 O771 2.162 . S
Mn756 O772 2.297 . S
Mn756 O780 2.385 . S
Mn756 O781 2.209 . S
Mn756 O782 2.094 . S
Mn757 O762 2.121 . S
Mn757 N764 2.257 . S
Mn757 N773 2.282 . S
Mn757 O781 2.215 . S
Mn757 O783 2.117 . S
C758 O780 1.234 . S
C758 O781 1.283 . S
C759 O771 1.281 . S
C759 O772 1.236 . S
C760 O782 1.240 . S
C760 O783 1.264 . S
O761 Mn756 2.095 . S
O761 C770 1.250 . S
O762 Mn757 2.121 . S
O762 C770 1.258 . S
C763 N764 1.326 . S
C763 C767 1.460 . S
C763 H769 0.929 . S
N764 Mn757 2.257 . S
N764 C763 1.326 . S
N764 C768 1.362 . S
C765 C766 1.258 . S
C765 C768 1.431 . S
C765 C785 1.449 . S
C766 C765 1.258 . S
C766 C767 1.477 . S
C766 H786 0.931 . S
C767 C763 1.460 . S
C767 C766 1.477 . S
C767 H787 0.930 . S
C768 N764 1.362 . S
C768 C765 1.431 . S
C768 C778 1.476 . S
H769 C763 0.929 . S
C770 O761 1.250 . S
C770 O762 1.258 . S
O771 Mn756 2.162 . S
O771 C759 1.281 . S
O772 Mn756 2.297 . S
O772 C759 1.236 . S
N773 Mn757 2.282 . S
N773 C774 1.328 . S
N773 C778 1.318 . S
C774 N773 1.328 . S
C774 C775 1.457 . S
C774 H779 0.929 . S
C775 C774 1.457 . S
C775 C776 1.291 . S
C775 H788 0.931 . S
C776 C775 1.291 . S
C776 C777 1.373 . S
C776 H789 0.929 . S
C777 C776 1.373 . S
C777 C778 1.396 . S
C777 C784 1.403 . S
C778 C768 1.476 . S
C778 N773 1.318 . S
C778 C777 1.396 . S
H779 C774 0.929 . S
O780 Mn756 2.385 . S
O780 C758 1.234 . S
O781 Mn756 2.209 . S
O781 Mn757 2.215 . S
O781 C758 1.283 . S
O782 Mn756 2.094 . S
O782 C760 1.240 . S
O783 Mn757 2.117 . S
O783 C760 1.264 . S
C784 C777 1.403 . S
C784 C785 1.399 . S
C784 H790 0.929 . S
C785 C765 1.449 . S
C785 C784 1.399 . S
C785 H791 0.930 . S
H786 C766 0.931 . S
H787 C767 0.930 . S
H788 C775 0.931 . S
H789 C776 0.929 . S
H790 C784 0.929 . S
H791 C785 0.930 . S
Mn792 O797 2.095 . S
Mn792 O807 2.162 . S
Mn792 O808 2.297 . S
Mn792 O816 2.385 . S
Mn792 O817 2.209 . S
Mn792 O818 2.094 . S
Mn793 O798 2.121 . S
Mn793 N800 2.257 . S
Mn793 N809 2.282 . S
Mn793 O817 2.215 . S
Mn793 O819 2.117 . S
C794 O816 1.234 . S
C794 O817 1.283 . S
C795 O807 1.281 . S
C795 O808 1.236 . S
C796 O818 1.240 . S
C796 O819 1.264 . S
O797 Mn792 2.095 . S
O797 C806 1.250 . S
O798 Mn793 2.121 . S
O798 C806 1.258 . S
C799 N800 1.326 . S
C799 C803 1.460 . S
C799 H805 0.929 . S
N800 Mn793 2.257 . S
N800 C799 1.326 . S
N800 C804 1.362 . S
C801 C802 1.258 . S
C801 C804 1.431 . S
C801 C821 1.449 . S
C802 C801 1.258 . S
C802 C803 1.477 . S
C802 H822 0.931 . S
C803 C799 1.460 . S
C803 C802 1.477 . S
C803 H823 0.930 . S
C804 N800 1.362 . S
C804 C801 1.431 . S
C804 C814 1.476 . S
H805 C799 0.929 . S
C806 O797 1.250 . S
C806 O798 1.258 . S
O807 Mn792 2.162 . S
O807 C795 1.281 . S
O808 Mn792 2.297 . S
O808 C795 1.236 . S
N809 Mn793 2.282 . S
N809 C810 1.328 . S
N809 C814 1.318 . S
C810 N809 1.328 . S
C810 C811 1.457 . S
C810 H815 0.929 . S
C811 C810 1.457 . S
C811 C812 1.291 . S
C811 H824 0.931 . S
C812 C811 1.291 . S
C812 C813 1.373 . S
C812 H825 0.929 . S
C813 C812 1.373 . S
C813 C814 1.396 . S
C813 C820 1.403 . S
C814 C804 1.476 . S
C814 N809 1.318 . S
C814 C813 1.396 . S
H815 C810 0.929 . S
O816 Mn792 2.385 . S
O816 C794 1.234 . S
O817 Mn792 2.209 . S
O817 Mn793 2.215 . S
O817 C794 1.283 . S
O818 Mn792 2.094 . S
O818 C796 1.240 . S
O819 Mn793 2.117 . S
O819 C796 1.264 . S
C820 C813 1.403 . S
C820 C821 1.399 . S
C820 H826 0.929 . S
C821 C801 1.449 . S
C821 C820 1.399 . S
C821 H827 0.930 . S
H822 C802 0.931 . S
H823 C803 0.930 . S
H824 C811 0.931 . S
H825 C812 0.929 . S
H826 C820 0.929 . S
H827 C821 0.930 . S
Mn828 O833 2.095 . S
Mn828 O843 2.162 . S
Mn828 O844 2.297 . S
Mn828 O852 2.385 . S
Mn828 O853 2.209 . S
Mn828 O854 2.094 . S
Mn829 O834 2.121 . S
Mn829 N836 2.257 . S
Mn829 N845 2.282 . S
Mn829 O853 2.215 . S
Mn829 O855 2.117 . S
C830 O852 1.234 . S
C830 O853 1.283 . S
C831 O843 1.281 . S
C831 O844 1.236 . S
C832 O854 1.240 . S
C832 O855 1.264 . S
O833 Mn828 2.095 . S
O833 C842 1.250 . S
O834 Mn829 2.121 . S
O834 C842 1.258 . S
C835 N836 1.326 . S
C835 C839 1.460 . S
C835 H841 0.929 . S
N836 Mn829 2.257 . S
N836 C835 1.326 . S
N836 C840 1.362 . S
C837 C838 1.258 . S
C837 C840 1.431 . S
C837 C857 1.449 . S
C838 C837 1.258 . S
C838 C839 1.477 . S
C838 H858 0.931 . S
C839 C835 1.460 . S
C839 C838 1.477 . S
C839 H859 0.930 . S
C840 N836 1.362 . S
C840 C837 1.431 . S
C840 C850 1.476 . S
H841 C835 0.929 . S
C842 O833 1.250 . S
C842 O834 1.258 . S
O843 Mn828 2.162 . S
O843 C831 1.281 . S
O844 Mn828 2.297 . S
O844 C831 1.236 . S
N845 Mn829 2.282 . S
N845 C846 1.328 . S
N845 C850 1.318 . S
C846 N845 1.328 . S
C846 C847 1.457 . S
C846 H851 0.929 . S
C847 C846 1.457 . S
C847 C848 1.291 . S
C847 H860 0.931 . S
C848 C847 1.291 . S
C848 C849 1.373 . S
C848 H861 0.929 . S
C849 C848 1.373 . S
C849 C850 1.396 . S
C849 C856 1.403 . S
C850 C840 1.476 . S
C850 N845 1.318 . S
C850 C849 1.396 . S
H851 C846 0.929 . S
O852 Mn828 2.385 . S
O852 C830 1.234 . S
O853 Mn828 2.209 . S
O853 Mn829 2.215 . S
O853 C830 1.283 . S
O854 Mn828 2.094 . S
O854 C832 1.240 . S
O855 Mn829 2.117 . S
O855 C832 1.264 . S
C856 C849 1.403 . S
C856 C857 1.399 . S
C856 H862 0.929 . S
C857 C837 1.449 . S
C857 C856 1.399 . S
C857 H863 0.930 . S
H858 C838 0.931 . S
H859 C839 0.930 . S
H860 C847 0.931 . S
H861 C848 0.929 . S
H862 C856 0.929 . S
H863 C857 0.930 . S
C864 O880 1.251 1_556 S
C864 O882 1.254 . S
N865 C866 1.318 1_565 S
N865 C870 1.330 . S
N865 Zn871 2.014 1_665 S
C866 N865 1.318 1_545 S
C866 C867 1.379 . S
C866 H884 0.952 . S
C867 C866 1.379 . S
C867 C868 1.390 1_545 S
C867 H894 0.949 . S
C868 C867 1.390 1_565 S
C868 C869 1.357 . S
C869 C868 1.357 . S
C869 C870 1.370 . S
C869 H895 0.950 . S
C870 N865 1.330 . S
C870 C869 1.370 . S
C870 H888 0.948 . S
Zn871 N865 2.014 1_445 S
Zn871 O880 2.039 . S
Zn871 O886 2.034 . S
Zn871 O890 2.025 1_545 S
Zn871 O892 2.024 1_545 S
C872 O891 1.246 . S
C872 O892 1.249 . S
N873 C874 1.307 1_554 S
N873 C875 1.333 . S
N873 Zn879 2.020 . S
C874 N873 1.307 1_556 S
C874 C878 1.370 . S
C874 H885 0.948 . S
C875 N873 1.333 . S
C875 C876 1.379 . S
C875 H883 0.952 . S
C876 C875 1.379 . S
C876 C877 1.390 . S
C876 H896 0.949 . S
C877 C876 1.390 . S
C877 C878 1.357 1_554 S
C878 C874 1.370 . S
C878 C877 1.357 1_556 S
C878 H897 0.950 . S
Zn879 N873 2.020 . S
Zn879 O882 2.025 1_554 S
Zn879 O887 2.024 . S
Zn879 O889 2.039 . S
Zn879 O891 2.034 1_545 S
O880 C864 1.251 1_554 S
O880 Zn871 2.039 . S
C881 O886 1.246 . S
C881 O887 1.249 . S
O882 C864 1.254 . S
O882 Zn879 2.025 1_556 S
H883 C875 0.952 . S
H884 C866 0.952 . S
H885 C874 0.948 . S
O886 Zn871 2.034 . S
O886 C881 1.246 . S
O887 Zn879 2.024 . S
O887 C881 1.249 . S
H888 C870 0.948 . S
O889 Zn879 2.039 . S
O889 C893 1.251 1_545 S
O890 Zn871 2.025 1_565 S
O890 C893 1.254 . S
O891 C872 1.246 . S
O891 Zn879 2.034 1_565 S
O892 Zn871 2.024 1_565 S
O892 C872 1.249 . S
C893 O889 1.251 1_565 S
C893 O890 1.254 . S
H894 C867 0.949 . S
H895 C869 0.950 . S
H896 C876 0.949 . S
H897 C878 0.950 . S
C898 O914 1.251 . S
C898 O916 1.254 . S
N899 C900 1.333 . S
N899 C904 1.307 . S
N899 Zn905 2.020 . S
C900 N899 1.333 . S
C900 C901 1.379 . S
C900 H918 0.952 . S
C901 C900 1.379 . S
C901 C902 1.390 . S
C901 H928 0.949 . S
C902 C901 1.390 . S
C902 C903 1.357 . S
C903 C902 1.357 . S
C903 C904 1.370 . S
C903 H929 0.950 . S
C904 N899 1.307 . S
C904 C903 1.370 . S
C904 H922 0.948 . S
Zn905 N899 2.020 . S
Zn905 O914 2.039 . S
Zn905 O920 2.034 . S
Zn905 O924 2.025 . S
Zn905 O926 2.024 . S
C906 O925 1.246 . S
C906 O926 1.249 . S
N907 C908 1.307 . S
N907 C909 1.333 . S
N907 Zn913 2.020 . S
C908 N907 1.307 . S
C908 C912 1.370 . S
C908 H919 0.948 . S
C909 N907 1.333 . S
C909 C910 1.379 . S
C909 H917 0.952 . S
C910 C909 1.379 . S
C910 C911 1.390 . S
C910 H930 0.949 . S
C911 C910 1.390 . S
C911 C912 1.357 . S
C912 C908 1.370 . S
C912 C911 1.357 . S
C912 H931 0.950 . S
Zn913 N907 2.020 . S
Zn913 O916 2.025 . S
Zn913 O921 2.024 . S
Zn913 O923 2.039 . S
Zn913 O925 2.034 . S
O914 C898 1.251 . S
O914 Zn905 2.039 . S
C915 O920 1.246 . S
C915 O921 1.249 . S
O916 C898 1.254 . S
O916 Zn913 2.025 . S
H917 C909 0.952 . S
H918 C900 0.952 . S
H919 C908 0.948 . S
O920 Zn905 2.034 . S
O920 C915 1.246 . S
O921 Zn913 2.024 . S
O921 C915 1.249 . S
H922 C904 0.948 . S
O923 Zn913 2.039 . S
O923 C927 1.251 . S
O924 Zn905 2.025 . S
O924 C927 1.254 . S
O925 C906 1.246 . S
O925 Zn913 2.034 . S
O926 Zn905 2.024 . S
O926 C906 1.249 . S
C927 O923 1.251 . S
C927 O924 1.254 . S
H928 C901 0.949 . S
H929 C903 0.950 . S
H930 C910 0.949 . S
H931 C912 0.950 . S
C932 O948 1.251 1_545 S
C932 O950 1.254 . S
N933 C934 1.333 . S
N933 C938 1.307 . S
N933 Zn939 2.020 . S
C934 N933 1.333 . S
C934 C935 1.379 . S
C934 H952 0.952 . S
C935 C934 1.379 . S
C935 C936 1.390 . S
C935 H962 0.949 . S
C936 C935 1.390 . S
C936 C937 1.357 . S
C937 C936 1.357 . S
C937 C938 1.370 . S
C937 H963 0.950 . S
C938 N933 1.307 . S
C938 C937 1.370 . S
C938 H956 0.948 . S
Zn939 N933 2.020 . S
Zn939 O948 2.039 . S
Zn939 O954 2.034 1_565 S
Zn939 O958 2.025 . S
Zn939 O960 2.024 . S
C940 O959 1.246 1_565 S
C940 O960 1.249 . S
N941 C942 1.307 . S
N941 C943 1.333 . S
N941 Zn947 2.020 . S
C942 N941 1.307 . S
C942 C946 1.370 . S
C942 H953 0.948 . S
C943 N941 1.333 . S
C943 C944 1.379 . S
C943 H951 0.952 . S
C944 C943 1.379 . S
C944 C945 1.390 . S
C944 H964 0.949 . S
C945 C944 1.390 . S
C945 C946 1.357 . S
C946 C942 1.370 . S
C946 C945 1.357 . S
C946 H965 0.950 . S
Zn947 N941 2.020 . S
Zn947 O950 2.025 . S
Zn947 O955 2.024 . S
Zn947 O957 2.039 . S
Zn947 O959 2.034 . S
O948 C932 1.251 1_565 S
O948 Zn939 2.039 . S
C949 O954 1.246 . S
C949 O955 1.249 . S
O950 C932 1.254 . S
O950 Zn947 2.025 . S
H951 C943 0.952 . S
H952 C934 0.952 . S
H953 C942 0.948 . S
O954 Zn939 2.034 1_545 S
O954 C949 1.246 . S
O955 Zn947 2.024 . S
O955 C949 1.249 . S
H956 C938 0.948 . S
O957 Zn947 2.039 . S
O957 C961 1.251 1_545 S
O958 Zn939 2.025 . S
O958 C961 1.254 . S
O959 C940 1.246 1_545 S
O959 Zn947 2.034 . S
O960 Zn939 2.024 . S
O960 C940 1.249 . S
C961 O957 1.251 1_565 S
C961 O958 1.254 . S
H962 C935 0.949 . S
H963 C937 0.950 . S
H964 C944 0.949 . S
H965 C946 0.950 . S
C966 O982 1.251 . S
C966 O984 1.254 . S
N967 C968 1.333 . S
N967 C972 1.307 . S
N967 Zn973 2.020 . S
C968 N967 1.333 . S
C968 C969 1.379 . S
C968 H986 0.952 . S
C969 C968 1.379 . S
C969 C970 1.390 . S
C969 H996 0.949 . S
C970 C969 1.390 . S
C970 C971 1.357 . S
C971 C970 1.357 . S
C971 C972 1.370 . S
C971 H997 0.950 . S
C972 N967 1.307 . S
C972 C971 1.370 . S
C972 H990 0.948 . S
Zn973 N967 2.020 . S
Zn973 O982 2.039 . S
Zn973 O988 2.034 . S
Zn973 O992 2.025 . S
Zn973 O994 2.024 . S
C974 O993 1.246 . S
C974 O994 1.249 . S
N975 C976 1.307 . S
N975 C977 1.333 . S
N975 Zn981 2.020 . S
C976 N975 1.307 . S
C976 C980 1.370 . S
C976 H987 0.948 . S
C977 N975 1.333 . S
C977 C978 1.379 . S
C977 H985 0.952 . S
C978 C977 1.379 . S
C978 C979 1.390 . S
C978 H998 0.949 . S
C979 C978 1.390 . S
C979 C980 1.357 . S
C980 C976 1.370 . S
C980 C979 1.357 . S
C980 H999 0.950 . S
Zn981 N975 2.020 . S
Zn981 O984 2.025 . S
Zn981 O989 2.024 . S
Zn981 O991 2.039 . S
Zn981 O993 2.034 . S
O982 C966 1.251 . S
O982 Zn973 2.039 . S
C983 O988 1.246 . S
C983 O989 1.249 . S
O984 C966 1.254 . S
O984 Zn981 2.025 . S
H985 C977 0.952 . S
H986 C968 0.952 . S
H987 C976 0.948 . S
O988 Zn973 2.034 . S
O988 C983 1.246 . S
O989 Zn981 2.024 . S
O989 C983 1.249 . S
H990 C972 0.948 . S
O991 Zn981 2.039 . S
O991 C995 1.251 . S
O992 Zn973 2.025 . S
O992 C995 1.254 . S
O993 C974 1.246 . S
O993 Zn981 2.034 . S
O994 Zn973 2.024 . S
O994 C974 1.249 . S
C995 O991 1.251 . S
C995 O992 1.254 . S
H996 C969 0.949 . S
H997 C971 0.950 . S
H998 C978 0.949 . S
H999 C980 0.950 . S
C1000 O1016 1.251 1_565 S
C1000 O1018 1.254 . S
N1001 C1002 1.333 . S
N1001 C1006 1.307 . S
N1001 Zn1007 2.020 . S
C1002 N1001 1.333 . S
C1002 C1003 1.379 . S
C1002 H1020 0.952 . S
C1003 C1002 1.379 . S
C1003 C1004 1.390 . S
C1003 H1030 0.949 . S
C1004 C1003 1.390 . S
C1004 C1005 1.357 . S
C1005 C1004 1.357 . S
C1005 C1006 1.370 . S
C1005 H1031 0.950 . S
C1006 N1001 1.307 . S
C1006 C1005 1.370 . S
C1006 H1024 0.948 . S
Zn1007 N1001 2.020 . S
Zn1007 O1016 2.039 . S
Zn1007 O1022 2.034 . S
Zn1007 O1026 2.025 . S
Zn1007 O1028 2.024 1_545 S
C1008 O1027 1.246 . S
C1008 O1028 1.249 . S
N1009 C1010 1.307 . S
N1009 C1011 1.333 1_455 S
N1009 Zn1015 2.020 1_565 S
C1010 N1009 1.307 . S
C1010 C1014 1.370 . S
C1010 H1021 0.948 . S
C1011 N1009 1.333 1_655 S
C1011 C1012 1.379 . S
C1011 H1019 0.952 . S
C1012 C1011 1.379 . S
C1012 C1013 1.390 . S
C1012 H1032 0.949 . S
C1013 C1012 1.390 . S
C1013 C1014 1.357 1_655 S
C1014 C1010 1.370 . S
C1014 C1013 1.357 1_455 S
C1014 H1033 0.950 . S
Zn1015 N1009 2.020 1_545 S
Zn1015 O1018 2.025 1_545 S
Zn1015 O1023 2.024 . S
Zn1015 O1025 2.039 1_455 S
Zn1015 O1027 2.034 1_545 S
O1016 C1000 1.251 1_545 S
O1016 Zn1007 2.039 . S
C1017 O1022 1.246 . S
C1017 O1023 1.249 . S
O1018 C1000 1.254 . S
O1018 Zn1015 2.025 1_565 S
H1019 C1011 0.952 . S
H1020 C1002 0.952 . S
H1021 C1010 0.948 . S
O1022 Zn1007 2.034 . S
O1022 C1017 1.246 . S
O1023 Zn1015 2.024 . S
O1023 C1017 1.249 . S
H1024 C1006 0.948 . S
O1025 Zn1015 2.039 1_655 S
O1025 C1029 1.251 . S
O1026 Zn1007 2.025 . S
O1026 C1029 1.254 1_455 S
O1027 C1008 1.246 . S
O1027 Zn1015 2.034 1_565 S
O1028 Zn1007 2.024 1_565 S
O1028 C1008 1.249 . S
C1029 O1025 1.251 . S
C1029 O1026 1.254 1_655 S
H1030 C1003 0.949 . S
H1031 C1005 0.950 . S
H1032 C1012 0.949 . S
H1033 C1014 0.950 . S
C1034 O1050 1.251 . S
C1034 O1052 1.254 . S
N1035 C1036 1.333 . S
N1035 C1040 1.307 . S
N1035 Zn1041 2.020 . S
C1036 N1035 1.333 . S
C1036 C1037 1.379 . S
C1036 H1054 0.952 . S
C1037 C1036 1.379 . S
C1037 C1038 1.390 . S
C1037 H1064 0.949 . S
C1038 C1037 1.390 . S
C1038 C1039 1.357 . S
C1039 C1038 1.357 . S
C1039 C1040 1.370 . S
C1039 H1065 0.950 . S
C1040 N1035 1.307 . S
C1040 C1039 1.370 . S
C1040 H1058 0.948 . S
Zn1041 N1035 2.020 . S
Zn1041 O1050 2.039 . S
Zn1041 O1056 2.034 . S
Zn1041 O1060 2.025 . S
Zn1041 O1062 2.024 . S
C1042 O1061 1.246 . S
C1042 O1062 1.249 . S
N1043 C1044 1.307 . S
N1043 C1045 1.333 . S
N1043 Zn1049 2.020 . S
C1044 N1043 1.307 . S
C1044 C1048 1.370 . S
C1044 H1055 0.948 . S
C1045 N1043 1.333 . S
C1045 C1046 1.379 . S
C1045 H1053 0.952 . S
C1046 C1045 1.379 . S
C1046 C1047 1.390 . S
C1046 H1066 0.949 . S
C1047 C1046 1.390 . S
C1047 C1048 1.357 . S
C1048 C1044 1.370 . S
C1048 C1047 1.357 . S
C1048 H1067 0.950 . S
Zn1049 N1043 2.020 . S
Zn1049 O1052 2.025 . S
Zn1049 O1057 2.024 . S
Zn1049 O1059 2.039 . S
Zn1049 O1061 2.034 . S
O1050 C1034 1.251 . S
O1050 Zn1041 2.039 . S
C1051 O1056 1.246 . S
C1051 O1057 1.249 . S
O1052 C1034 1.254 . S
O1052 Zn1049 2.025 . S
H1053 C1045 0.952 . S
H1054 C1036 0.952 . S
H1055 C1044 0.948 . S
O1056 Zn1041 2.034 . S
O1056 C1051 1.246 . S
O1057 Zn1049 2.024 . S
O1057 C1051 1.249 . S
H1058 C1040 0.948 . S
O1059 Zn1049 2.039 . S
O1059 C1063 1.251 . S
O1060 Zn1041 2.025 . S
O1060 C1063 1.254 . S
O1061 C1042 1.246 . S
O1061 Zn1049 2.034 . S
O1062 Zn1041 2.024 . S
O1062 C1042 1.249 . S
C1063 O1059 1.251 . S
C1063 O1060 1.254 . S
H1064 C1037 0.949 . S
H1065 C1039 0.950 . S
H1066 C1046 0.949 . S
H1067 C1048 0.950 . S
C1068 O1084 1.251 . S
C1068 O1086 1.254 . S
N1069 C1070 1.333 . S
N1069 C1074 1.307 . S
N1069 Zn1075 2.020 . S
C1070 N1069 1.333 . S
C1070 C1071 1.379 . S
C1070 H1088 0.952 . S
C1071 C1070 1.379 . S
C1071 C1072 1.390 . S
C1071 H1098 0.949 . S
C1072 C1071 1.390 . S
C1072 C1073 1.357 . S
C1073 C1072 1.357 . S
C1073 C1074 1.370 . S
C1073 H1099 0.950 . S
C1074 N1069 1.307 . S
C1074 C1073 1.370 . S
C1074 H1092 0.948 . S
Zn1075 N1069 2.020 . S
Zn1075 O1084 2.039 1_545 S
Zn1075 O1090 2.034 . S
Zn1075 O1094 2.025 . S
Zn1075 O1096 2.024 . S
C1076 O1095 1.246 . S
C1076 O1096 1.249 1_565 S
N1077 C1078 1.307 . S
N1077 C1079 1.333 1_565 S
N1077 Zn1083 2.020 1_566 S
C1078 N1077 1.307 . S
C1078 C1082 1.370 . S
C1078 H1089 0.948 . S
C1079 N1077 1.333 1_545 S
C1079 C1080 1.385 . S
C1079 H1087 0.952 . S
C1080 C1079 1.385 . S
C1080 C1081 1.371 1_545 S
C1080 H1100 0.963 . S
C1081 C1080 1.371 1_565 S
C1081 C1082 1.357 . S
C1082 C1078 1.370 . S
C1082 C1081 1.357 . S
C1082 H1101 0.950 . S
Zn1083 N1077 2.020 1_544 S
Zn1083 O1086 2.025 1_545 S
Zn1083 O1091 2.024 . S
Zn1083 O1093 2.039 1_554 S
Zn1083 O1095 2.034 1_545 S
O1084 C1068 1.251 . S
O1084 Zn1075 2.039 1_565 S
C1085 O1090 1.246 . S
C1085 O1091 1.249 . S
O1086 C1068 1.254 . S
O1086 Zn1083 2.025 1_565 S
H1087 C1079 0.952 . S
H1088 C1070 0.952 . S
H1089 C1078 0.948 . S
O1090 Zn1075 2.034 . S
O1090 C1085 1.246 . S
O1091 Zn1083 2.024 . S
O1091 C1085 1.249 . S
H1092 C1074 0.948 . S
O1093 Zn1083 2.039 1_556 S
O1093 C1097 1.251 1_556 S
O1094 Zn1075 2.025 . S
O1094 C1097 1.254 . S
O1095 C1076 1.246 . S
O1095 Zn1083 2.034 1_565 S
O1096 Zn1075 2.024 . S
O1096 C1076 1.249 1_545 S
C1097 O1093 1.251 1_554 S
C1097 O1094 1.254 . S
H1098 C1071 0.949 . S
H1099 C1073 0.950 . S
H1100 C1080 0.963 . S
H1101 C1082 0.950 . S
C1102 O1118 1.251 . S
C1102 O1120 1.254 . S
N1103 C1104 1.333 . S
N1103 C1108 1.307 . S
N1103 Zn1109 2.020 . S
C1104 N1103 1.333 . S
C1104 C1105 1.379 . S
C1104 H1122 0.952 . S
C1105 C1104 1.379 . S
C1105 C1106 1.390 . S
C1105 H1132 0.949 . S
C1106 C1105 1.390 . S
C1106 C1107 1.357 . S
C1107 C1106 1.357 . S
C1107 C1108 1.370 . S
C1107 H1133 0.950 . S
C1108 N1103 1.307 . S
C1108 C1107 1.370 . S
C1108 H1126 0.948 . S
Zn1109 N1103 2.020 . S
Zn1109 O1118 2.039 . S
Zn1109 O1124 2.034 . S
Zn1109 O1128 2.025 . S
Zn1109 O1130 2.024 . S
C1110 O1129 1.246 . S
C1110 O1130 1.249 . S
N1111 C1112 1.307 . S
N1111 C1113 1.333 . S
N1111 Zn1117 2.020 . S
C1112 N1111 1.307 . S
C1112 C1116 1.370 . S
C1112 H1123 0.948 . S
C1113 N1111 1.333 . S
C1113 C1114 1.379 . S
C1113 H1121 0.952 . S
C1114 C1113 1.379 . S
C1114 C1115 1.390 . S
C1114 H1134 0.949 . S
C1115 C1114 1.390 . S
C1115 C1116 1.357 . S
C1116 C1112 1.370 . S
C1116 C1115 1.357 . S
C1116 H1135 0.950 . S
Zn1117 N1111 2.020 . S
Zn1117 O1120 2.025 . S
Zn1117 O1125 2.024 . S
Zn1117 O1127 2.039 . S
Zn1117 O1129 2.034 . S
O1118 C1102 1.251 . S
O1118 Zn1109 2.039 . S
C1119 O1124 1.246 . S
C1119 O1125 1.249 . S
O1120 C1102 1.254 . S
O1120 Zn1117 2.025 . S
H1121 C1113 0.952 . S
H1122 C1104 0.952 . S
H1123 C1112 0.948 . S
O1124 Zn1109 2.034 . S
O1124 C1119 1.246 . S
O1125 Zn1117 2.024 . S
O1125 C1119 1.249 . S
H1126 C1108 0.948 . S
O1127 Zn1117 2.039 . S
O1127 C1131 1.251 . S
O1128 Zn1109 2.025 . S
O1128 C1131 1.254 . S
O1129 C1110 1.246 . S
O1129 Zn1117 2.034 . S
O1130 Zn1109 2.024 . S
O1130 C1110 1.249 . S
C1131 O1127 1.251 . S
C1131 O1128 1.254 . S
H1132 C1105 0.949 . S
H1133 C1107 0.950 . S
H1134 C1114 0.949 . S
H1135 C1116 0.950 . S
C1136 O1152 1.251 . S
C1136 O1154 1.254 . S
N1137 C1138 1.333 . S
N1137 C1142 1.307 . S
N1137 Zn1143 2.020 1_556 S
C1138 N1137 1.333 . S
C1138 C1139 1.379 . S
C1138 H1156 0.952 . S
C1139 C1138 1.379 . S
C1139 C1140 1.390 . S
C1139 H1166 0.949 . S
C1140 C1139 1.390 . S
C1140 C1141 1.357 . S
C1141 C1140 1.357 . S
C1141 C1142 1.370 . S
C1141 H1167 0.950 . S
C1142 N1137 1.307 . S
C1142 C1141 1.370 . S
C1142 H1160 0.948 . S
Zn1143 N1137 2.020 1_554 S
Zn1143 O1152 2.039 . S
Zn1143 O1158 2.034 . S
Zn1143 O1162 2.025 1_554 S
Zn1143 O1164 2.024 1_554 S
C1144 O1163 1.246 . S
C1144 O1164 1.249 1_554 S
N1145 C1146 1.307 . S
N1145 C1147 1.333 . S
N1145 Zn1151 2.020 . S
C1146 N1145 1.307 . S
C1146 C1150 1.370 . S
C1146 H1157 0.948 . S
C1147 N1145 1.333 . S
C1147 C1148 1.379 . S
C1147 H1155 0.952 . S
C1148 C1147 1.379 . S
C1148 C1149 1.390 . S
C1148 H1168 0.949 . S
C1149 C1148 1.390 . S
C1149 C1150 1.357 . S
C1150 C1146 1.370 . S
C1150 C1149 1.357 . S
C1150 H1169 0.950 . S
Zn1151 N1145 2.020 . S
Zn1151 O1154 2.025 . S
Zn1151 O1159 2.024 . S
Zn1151 O1161 2.039 . S
Zn1151 O1163 2.034 . S
O1152 C1136 1.251 . S
O1152 Zn1143 2.039 . S
C1153 O1158 1.246 . S
C1153 O1159 1.249 . S
O1154 C1136 1.254 . S
O1154 Zn1151 2.025 . S
H1155 C1147 0.952 . S
H1156 C1138 0.952 . S
H1157 C1146 0.948 . S
O1158 Zn1143 2.034 . S
O1158 C1153 1.246 . S
O1159 Zn1151 2.024 . S
O1159 C1153 1.249 . S
H1160 C1142 0.948 . S
O1161 Zn1151 2.039 . S
O1161 C1165 1.251 . S
O1162 Zn1143 2.025 1_556 S
O1162 C1165 1.246 1_556 S
O1163 C1144 1.246 . S
O1163 Zn1151 2.034 . S
O1164 Zn1143 2.024 1_556 S
O1164 C1144 1.249 1_556 S
C1165 O1161 1.251 . S
C1165 O1162 1.246 1_554 S
H1166 C1139 0.949 . S
H1167 C1141 0.950 . S
H1168 C1148 0.949 . S
H1169 C1150 0.950 . S
C1170 O1186 1.251 . S
C1170 O1188 1.254 . S
N1171 C1172 1.333 . S
N1171 C1176 1.307 . S
N1171 Zn1177 2.020 . S
C1172 N1171 1.333 . S
C1172 C1173 1.379 . S
C1172 H1190 0.952 . S
C1173 C1172 1.379 . S
C1173 C1174 1.390 . S
C1173 H1200 0.949 . S
C1174 C1173 1.390 . S
C1174 C1175 1.357 . S
C1175 C1174 1.357 . S
C1175 C1176 1.370 . S
C1175 H1201 0.950 . S
C1176 N1171 1.307 . S
C1176 C1175 1.370 . S
C1176 H1194 0.948 . S
Zn1177 N1171 2.020 . S
Zn1177 O1186 2.039 . S
Zn1177 O1192 2.034 . S
Zn1177 O1196 2.025 . S
Zn1177 O1198 2.024 . S
C1178 O1197 1.246 . S
C1178 O1198 1.249 . S
N1179 C1180 1.307 . S
N1179 C1181 1.333 . S
N1179 Zn1185 2.020 . S
C1180 N1179 1.307 . S
C1180 C1184 1.370 . S
C1180 H1191 0.948 . S
C1181 N1179 1.333 . S
C1181 C1182 1.379 . S
C1181 H1189 0.952 . S
C1182 C1181 1.379 . S
C1182 C1183 1.390 . S
C1182 H1202 0.949 . S
C1183 C1182 1.390 . S
C1183 C1184 1.357 . S
C1184 C1180 1.370 . S
C1184 C1183 1.357 . S
C1184 H1203 0.950 . S
Zn1185 N1179 2.020 . S
Zn1185 O1188 2.025 . S
Zn1185 O1193 2.024 . S
Zn1185 O1195 2.039 . S
Zn1185 O1197 2.034 . S
O1186 C1170 1.251 . S
O1186 Zn1177 2.039 . S
C1187 O1192 1.246 . S
C1187 O1193 1.249 . S
O1188 C1170 1.254 . S
O1188 Zn1185 2.025 . S
H1189 C1181 0.952 . S
H1190 C1172 0.952 . S
H1191 C1180 0.948 . S
O1192 Zn1177 2.034 . S
O1192 C1187 1.246 . S
O1193 Zn1185 2.024 . S
O1193 C1187 1.249 . S
H1194 C1176 0.948 . S
O1195 Zn1185 2.039 . S
O1195 C1199 1.251 . S
O1196 Zn1177 2.025 . S
O1196 C1199 1.254 . S
O1197 C1178 1.246 . S
O1197 Zn1185 2.034 . S
O1198 Zn1177 2.024 . S
O1198 C1178 1.249 . S
C1199 O1195 1.251 . S
C1199 O1196 1.254 . S
H1200 C1173 0.949 . S
H1201 C1175 0.950 . S
H1202 C1182 0.949 . S
H1203 C1184 0.950 . S
C1204 O1220 1.251 . S
C1204 O1222 1.254 . S
N1205 C1206 1.333 . S
N1205 C1210 1.307 . S
N1205 Zn1211 2.020 . S
C1206 N1205 1.333 . S
C1206 C1207 1.379 . S
C1206 H1224 0.952 . S
C1207 C1206 1.379 . S
C1207 C1208 1.390 . S
C1207 H1234 0.949 . S
C1208 C1207 1.390 . S
C1208 C1209 1.357 . S
C1209 C1208 1.357 . S
C1209 C1210 1.370 . S
C1209 H1235 0.950 . S
C1210 N1205 1.307 . S
C1210 C1209 1.370 . S
C1210 H1228 0.948 . S
Zn1211 N1205 2.020 . S
Zn1211 O1220 2.039 . S
Zn1211 O1226 2.034 . S
Zn1211 O1230 2.025 . S
Zn1211 O1232 2.024 . S
C1212 O1231 1.246 . S
C1212 O1232 1.249 . S
N1213 C1214 1.307 1_455 S
N1213 C1215 1.333 . S
N1213 Zn1219 2.020 . S
C1214 N1213 1.307 1_655 S
C1214 C1218 1.370 . S
C1214 H1225 0.948 . S
C1215 N1213 1.333 . S
C1215 C1216 1.379 . S
C1215 H1223 0.952 . S
C1216 C1215 1.379 . S
C1216 C1217 1.390 1_455 S
C1216 H1236 0.949 . S
C1217 C1216 1.390 1_655 S
C1217 C1218 1.357 . S
C1218 C1214 1.370 . S
C1218 C1217 1.357 . S
C1218 H1237 0.950 . S
Zn1219 N1213 2.020 . S
Zn1219 O1222 2.025 . S
Zn1219 O1227 2.024 1_455 S
Zn1219 O1229 2.039 . S
Zn1219 O1231 2.034 . S
O1220 C1204 1.251 . S
O1220 Zn1211 2.039 . S
C1221 O1226 1.246 1_655 S
C1221 O1227 1.249 . S
O1222 C1204 1.254 . S
O1222 Zn1219 2.025 . S
H1223 C1215 0.952 . S
H1224 C1206 0.952 . S
H1225 C1214 0.948 . S
O1226 Zn1211 2.034 . S
O1226 C1221 1.246 1_455 S
O1227 Zn1219 2.024 1_655 S
O1227 C1221 1.249 . S
H1228 C1210 0.948 . S
O1229 Zn1219 2.039 . S
O1229 C1233 1.251 . S
O1230 Zn1211 2.025 . S
O1230 C1233 1.254 . S
O1231 C1212 1.246 . S
O1231 Zn1219 2.034 . S
O1232 Zn1211 2.024 . S
O1232 C1212 1.249 . S
C1233 O1229 1.251 . S
C1233 O1230 1.254 . S
H1234 C1207 0.949 . S
H1235 C1209 0.950 . S
H1236 C1216 0.949 . S
H1237 C1218 0.950 . S
C1238 O1254 1.251 . S
C1238 O1256 1.254 . S
N1239 C1240 1.333 . S
N1239 C1244 1.307 . S
N1239 Zn1245 2.020 . S
C1240 N1239 1.333 . S
C1240 C1241 1.379 . S
C1240 H1258 0.952 . S
C1241 C1240 1.379 . S
C1241 C1242 1.390 . S
C1241 H1268 0.949 . S
C1242 C1241 1.390 . S
C1242 C1243 1.357 . S
C1243 C1242 1.357 . S
C1243 C1244 1.370 . S
C1243 H1269 0.950 . S
C1244 N1239 1.307 . S
C1244 C1243 1.370 . S
C1244 H1262 0.948 . S
Zn1245 N1239 2.020 . S
Zn1245 O1254 2.039 . S
Zn1245 O1260 2.034 . S
Zn1245 O1264 2.025 . S
Zn1245 O1266 2.024 . S
C1246 O1265 1.246 . S
C1246 O1266 1.249 . S
N1247 C1248 1.307 . S
N1247 C1249 1.333 . S
N1247 Zn1253 2.020 . S
C1248 N1247 1.307 . S
C1248 C1252 1.370 . S
C1248 H1259 0.948 . S
C1249 N1247 1.333 . S
C1249 C1250 1.379 . S
C1249 H1257 0.952 . S
C1250 C1249 1.379 . S
C1250 C1251 1.390 . S
C1250 H1270 0.949 . S
C1251 C1250 1.390 . S
C1251 C1252 1.357 . S
C1252 C1248 1.370 . S
C1252 C1251 1.357 . S
C1252 H1271 0.950 . S
Zn1253 N1247 2.020 . S
Zn1253 O1256 2.025 . S
Zn1253 O1261 2.024 . S
Zn1253 O1263 2.039 . S
Zn1253 O1265 2.034 . S
O1254 C1238 1.251 . S
O1254 Zn1245 2.039 . S
C1255 O1260 1.246 . S
C1255 O1261 1.249 . S
O1256 C1238 1.254 . S
O1256 Zn1253 2.025 . S
H1257 C1249 0.952 . S
H1258 C1240 0.952 . S
H1259 C1248 0.948 . S
O1260 Zn1245 2.034 . S
O1260 C1255 1.246 . S
O1261 Zn1253 2.024 . S
O1261 C1255 1.249 . S
H1262 C1244 0.948 . S
O1263 Zn1253 2.039 . S
O1263 C1267 1.251 . S
O1264 Zn1245 2.025 . S
O1264 C1267 1.254 . S
O1265 C1246 1.246 . S
O1265 Zn1253 2.034 . S
O1266 Zn1245 2.024 . S
O1266 C1246 1.249 . S
C1267 O1263 1.251 . S
C1267 O1264 1.254 . S
H1268 C1241 0.949 . S
H1269 C1243 0.950 . S
H1270 C1250 0.949 . S
H1271 C1252 0.950 . S
C1272 O1288 1.251 . S
C1272 O1290 1.254 . S
N1273 C1274 1.333 . S
N1273 C1278 1.307 . S
N1273 Zn1279 2.020 . S
C1274 N1273 1.333 . S
C1274 C1275 1.379 . S
C1274 H1292 0.952 . S
C1275 C1274 1.379 . S
C1275 C1276 1.390 . S
C1275 H1302 0.949 . S
C1276 C1275 1.390 . S
C1276 C1277 1.357 . S
C1277 C1276 1.357 . S
C1277 C1278 1.370 . S
C1277 H1303 0.950 . S
C1278 N1273 1.307 . S
C1278 C1277 1.370 . S
C1278 H1296 0.948 . S
Zn1279 N1273 2.020 . S
Zn1279 O1288 2.039 . S
Zn1279 O1294 2.034 . S
Zn1279 O1298 2.025 . S
Zn1279 O1300 2.024 . S
C1280 O1299 1.246 . S
C1280 O1300 1.249 . S
N1281 C1282 1.307 . S
N1281 C1283 1.333 . S
N1281 Zn1287 2.020 . S
C1282 N1281 1.307 . S
C1282 C1286 1.370 . S
C1282 H1293 0.948 . S
C1283 N1281 1.333 . S
C1283 C1284 1.379 . S
C1283 H1291 0.952 . S
C1284 C1283 1.379 . S
C1284 C1285 1.390 . S
C1284 H1304 0.949 . S
C1285 C1284 1.390 . S
C1285 C1286 1.357 . S
C1286 C1282 1.370 . S
C1286 C1285 1.357 . S
C1286 H1305 0.950 . S
Zn1287 N1281 2.020 . S
Zn1287 O1290 2.025 . S
Zn1287 O1295 2.024 . S
Zn1287 O1297 2.039 . S
Zn1287 O1299 2.034 . S
O1288 C1272 1.251 . S
O1288 Zn1279 2.039 . S
C1289 O1294 1.246 . S
C1289 O1295 1.249 . S
O1290 C1272 1.254 . S
O1290 Zn1287 2.025 . S
H1291 C1283 0.952 . S
H1292 C1274 0.952 . S
H1293 C1282 0.948 . S
O1294 Zn1279 2.034 . S
O1294 C1289 1.246 . S
O1295 Zn1287 2.024 . S
O1295 C1289 1.249 . S
H1296 C1278 0.948 . S
O1297 Zn1287 2.039 . S
O1297 C1301 1.251 . S
O1298 Zn1279 2.025 . S
O1298 C1301 1.254 . S
O1299 C1280 1.246 . S
O1299 Zn1287 2.034 . S
O1300 Zn1279 2.024 . S
O1300 C1280 1.249 . S
C1301 O1297 1.251 . S
C1301 O1298 1.254 . S
H1302 C1275 0.949 . S
H1303 C1277 0.950 . S
H1304 C1284 0.949 . S
H1305 C1286 0.950 . S
C1306 O1322 1.251 . S
C1306 O1324 1.254 . S
N1307 C1308 1.333 . S
N1307 C1312 1.307 . S
N1307 Zn1313 2.020 . S
C1308 N1307 1.333 . S
C1308 C1309 1.379 . S
C1308 H1326 0.952 . S
C1309 C1308 1.379 . S
C1309 C1310 1.390 . S
C1309 H1336 0.949 . S
C1310 C1309 1.390 . S
C1310 C1311 1.357 . S
C1311 C1310 1.357 . S
C1311 C1312 1.370 . S
C1311 H1337 0.950 . S
C1312 N1307 1.307 . S
C1312 C1311 1.370 . S
C1312 H1330 0.948 . S
Zn1313 N1307 2.020 . S
Zn1313 O1322 2.039 . S
Zn1313 O1328 2.034 . S
Zn1313 O1332 2.025 . S
Zn1313 O1334 2.024 . S
C1314 O1333 1.246 . S
C1314 O1334 1.249 . S
N1315 C1316 1.307 . S
N1315 C1317 1.333 . S
N1315 Zn1321 2.020 . S
C1316 N1315 1.307 . S
C1316 C1320 1.370 . S
C1316 H1327 0.948 . S
C1317 N1315 1.333 . S
C1317 C1318 1.379 . S
C1317 H1325 0.952 . S
C1318 C1317 1.379 . S
C1318 C1319 1.390 . S
C1318 H1338 0.949 . S
C1319 C1318 1.390 . S
C1319 C1320 1.357 . S
C1320 C1316 1.370 . S
C1320 C1319 1.357 . S
C1320 H1339 0.950 . S
Zn1321 N1315 2.020 . S
Zn1321 O1324 2.025 . S
Zn1321 O1329 2.024 . S
Zn1321 O1331 2.039 . S
Zn1321 O1333 2.034 . S
O1322 C1306 1.251 . S
O1322 Zn1313 2.039 . S
C1323 O1328 1.246 . S
C1323 O1329 1.249 . S
O1324 C1306 1.254 . S
O1324 Zn1321 2.025 . S
H1325 C1317 0.952 . S
H1326 C1308 0.952 . S
H1327 C1316 0.948 . S
O1328 Zn1313 2.034 . S
O1328 C1323 1.246 . S
O1329 Zn1321 2.024 . S
O1329 C1323 1.249 . S
H1330 C1312 0.948 . S
O1331 Zn1321 2.039 . S
O1331 C1335 1.251 . S
O1332 Zn1313 2.025 . S
O1332 C1335 1.254 . S
O1333 C1314 1.246 . S
O1333 Zn1321 2.034 . S
O1334 Zn1313 2.024 . S
O1334 C1314 1.249 . S
C1335 O1331 1.251 . S
C1335 O1332 1.254 . S
H1336 C1309 0.949 . S
H1337 C1311 0.950 . S
H1338 C1318 0.949 . S
H1339 C1320 0.950 . S
C1340 O1356 1.251 . S
C1340 O1358 1.254 . S
N1341 C1342 1.333 . S
N1341 C1346 1.307 . S
N1341 Zn1347 2.020 . S
C1342 N1341 1.333 . S
C1342 C1343 1.379 . S
C1342 H1360 0.952 . S
C1343 C1342 1.379 . S
C1343 C1344 1.390 . S
C1343 H1370 0.949 . S
C1344 C1343 1.390 . S
C1344 C1345 1.357 . S
C1345 C1344 1.357 . S
C1345 C1346 1.370 . S
C1345 H1371 0.950 . S
C1346 N1341 1.307 . S
C1346 C1345 1.370 . S
C1346 H1364 0.948 . S
Zn1347 N1341 2.020 . S
Zn1347 O1356 2.039 . S
Zn1347 O1362 2.034 . S
Zn1347 O1366 2.025 . S
Zn1347 O1368 2.024 . S
C1348 O1367 1.246 . S
C1348 O1368 1.249 . S
N1349 C1350 1.307 . S
N1349 C1351 1.333 . S
N1349 Zn1355 2.020 . S
C1350 N1349 1.307 . S
C1350 C1354 1.370 . S
C1350 H1361 0.948 . S
C1351 N1349 1.333 . S
C1351 C1352 1.379 . S
C1351 H1359 0.952 . S
C1352 C1351 1.379 . S
C1352 C1353 1.390 . S
C1352 H1372 0.949 . S
C1353 C1352 1.390 . S
C1353 C1354 1.357 . S
C1354 C1350 1.370 . S
C1354 C1353 1.357 . S
C1354 H1373 0.950 . S
Zn1355 N1349 2.020 . S
Zn1355 O1358 2.025 . S
Zn1355 O1363 2.024 . S
Zn1355 O1365 2.039 . S
Zn1355 O1367 2.034 . S
O1356 C1340 1.251 . S
O1356 Zn1347 2.039 . S
C1357 O1362 1.246 . S
C1357 O1363 1.249 . S
O1358 C1340 1.254 . S
O1358 Zn1355 2.025 . S
H1359 C1351 0.952 . S
H1360 C1342 0.952 . S
H1361 C1350 0.948 . S
O1362 Zn1347 2.034 . S
O1362 C1357 1.246 . S
O1363 Zn1355 2.024 . S
O1363 C1357 1.249 . S
H1364 C1346 0.948 . S
O1365 Zn1355 2.039 . S
O1365 C1369 1.251 . S
O1366 Zn1347 2.025 . S
O1366 C1369 1.254 . S
O1367 C1348 1.246 . S
O1367 Zn1355 2.034 . S
O1368 Zn1347 2.024 . S
O1368 C1348 1.249 . S
C1369 O1365 1.251 . S
C1369 O1366 1.254 . S
H1370 C1343 0.949 . S
H1371 C1345 0.950 . S
H1372 C1352 0.949 . S
H1373 C1354 0.950 . S
C1374 O1390 1.251 . S
C1374 O1392 1.254 . S
N1375 C1376 1.333 . S
N1375 C1380 1.307 . S
N1375 Zn1381 2.020 . S
C1376 N1375 1.333 . S
C1376 C1377 1.379 . S
C1376 H1394 0.952 . S
C1377 C1376 1.379 . S
C1377 C1378 1.390 . S
C1377 H1404 0.949 . S
C1378 C1377 1.390 . S
C1378 C1379 1.357 . S
C1379 C1378 1.357 . S
C1379 C1380 1.370 . S
C1379 H1405 0.950 . S
C1380 N1375 1.307 . S
C1380 C1379 1.370 . S
C1380 H1398 0.948 . S
Zn1381 N1375 2.020 . S
Zn1381 O1390 2.039 . S
Zn1381 O1396 2.034 . S
Zn1381 O1400 2.025 . S
Zn1381 O1402 2.024 . S
C1382 O1401 1.246 . S
C1382 O1402 1.249 1_655 S
N1383 C1384 1.307 . S
N1383 C1385 1.333 1_554 S
N1383 Zn1389 2.020 . S
C1384 N1383 1.307 . S
C1384 C1388 1.370 . S
C1384 H1395 0.948 . S
C1385 N1383 1.333 1_556 S
C1385 C1386 1.379 1_455 S
C1385 H1393 0.952 . S
C1386 C1385 1.379 1_655 S
C1386 C1387 1.390 . S
C1386 H1406 0.949 . S
C1387 C1386 1.390 . S
C1387 C1388 1.357 1_656 S
C1388 C1384 1.370 . S
C1388 C1387 1.357 1_454 S
C1388 H1407 0.950 . S
Zn1389 N1383 2.020 . S
Zn1389 O1392 2.025 . S
Zn1389 O1397 2.024 . S
Zn1389 O1399 2.039 1_554 S
Zn1389 O1401 2.034 1_455 S
O1390 C1374 1.251 . S
O1390 Zn1381 2.039 . S
C1391 O1396 1.246 . S
C1391 O1397 1.249 . S
O1392 C1374 1.254 . S
O1392 Zn1389 2.025 . S
H1393 C1385 0.952 . S
H1394 C1376 0.952 . S
H1395 C1384 0.948 . S
O1396 Zn1381 2.034 . S
O1396 C1391 1.246 . S
O1397 Zn1389 2.024 . S
O1397 C1391 1.249 . S
H1398 C1380 0.948 . S
O1399 Zn1389 2.039 1_556 S
O1399 C1403 1.251 . S
O1400 Zn1381 2.025 . S
O1400 C1403 1.254 1_554 S
O1401 C1382 1.246 . S
O1401 Zn1389 2.034 1_655 S
O1402 Zn1381 2.024 . S
O1402 C1382 1.249 1_455 S
C1403 O1399 1.251 . S
C1403 O1400 1.254 1_556 S
H1404 C1377 0.949 . S
H1405 C1379 0.950 . S
H1406 C1386 0.949 . S
H1407 C1388 0.950 . S
C1408 C1409 1.387 . S
C1408 H1412 0.950 . S
C1408 C1417 1.390 . S
C1409 C1408 1.387 . S
C1409 C1411 1.387 . S
H1410 C1417 0.950 . S
C1411 C1409 1.387 . S
C1411 C1413 1.390 . S
C1411 H1415 0.950 . S
H1412 C1408 0.950 . S
C1413 C1411 1.390 . S
C1413 C1414 1.387 . S
C1413 H1416 0.950 . S
C1414 C1413 1.387 . S
C1414 C1417 1.387 . S
H1415 C1411 0.950 . S
H1416 C1413 0.950 . S
C1417 C1408 1.390 . S
C1417 H1410 0.950 . S
C1417 C1414 1.387 . S
C1418 C1419 1.387 . S
C1418 H1422 0.950 . S
C1418 C1427 1.390 . S
C1419 C1418 1.387 . S
C1419 C1421 1.387 . S
H1420 C1427 0.950 . S
C1421 C1419 1.387 . S
C1421 C1423 1.390 . S
C1421 H1425 0.950 . S
H1422 C1418 0.950 . S
C1423 C1421 1.390 . S
C1423 C1424 1.387 . S
C1423 H1426 0.950 . S
C1424 C1423 1.387 . S
C1424 C1427 1.387 . S
H1425 C1421 0.950 . S
H1426 C1423 0.950 . S
C1427 C1418 1.390 . S
C1427 H1420 0.950 . S
C1427 C1424 1.387 . S
C1428 C1429 1.387 . S
C1428 H1432 0.950 . S
C1428 C1437 1.390 . S
C1429 C1428 1.387 . S
C1429 C1431 1.387 . S
H1430 C1437 0.950 . S
C1431 C1429 1.387 . S
C1431 C1433 1.390 . S
C1431 H1435 0.950 . S
H1432 C1428 0.950 . S
C1433 C1431 1.390 . S
C1433 C1434 1.387 . S
C1433 H1436 0.950 . S
C1434 C1433 1.387 . S
C1434 C1437 1.387 . S
H1435 C1431 0.950 . S
H1436 C1433 0.950 . S
C1437 C1428 1.390 . S
C1437 H1430 0.950 . S
C1437 C1434 1.387 . S
C1438 C1439 1.387 . S
C1438 H1442 0.950 . S
C1438 C1447 1.390 . S
C1439 C1438 1.387 . S
C1439 C1441 1.387 . S
H1440 C1447 0.950 . S
C1441 C1439 1.387 . S
C1441 C1443 1.390 . S
C1441 H1445 0.950 . S
H1442 C1438 0.950 . S
C1443 C1441 1.390 . S
C1443 C1444 1.387 . S
C1443 H1446 0.950 . S
C1444 C1443 1.387 . S
C1444 C1447 1.387 . S
H1445 C1441 0.950 . S
H1446 C1443 0.950 . S
C1447 C1438 1.390 . S
C1447 H1440 0.950 . S
C1447 C1444 1.387 . S
C1448 C1449 1.387 . S
C1448 H1452 0.950 . S
C1448 C1457 1.390 . S
C1449 C1448 1.387 . S
C1449 C1451 1.387 . S
H1450 C1457 0.950 . S
C1451 C1449 1.387 . S
C1451 C1453 1.390 . S
C1451 H1455 0.950 1_455 S
H1452 C1448 0.950 . S
C1453 C1451 1.390 . S
C1453 C1454 1.387 . S
C1453 H1456 0.950 1_455 S
C1454 C1453 1.387 . S
C1454 C1457 1.387 . S
H1455 C1451 0.950 1_655 S
H1456 C1453 0.950 1_655 S
C1457 C1448 1.390 . S
C1457 H1450 0.950 . S
C1457 C1454 1.387 . S
C1458 C1459 1.387 . S
C1458 H1462 0.950 . S
C1458 C1467 1.390 . S
C1459 C1458 1.387 . S
C1459 C1461 1.387 . S
H1460 C1467 0.950 . S
C1461 C1459 1.387 . S
C1461 C1463 1.390 . S
C1461 H1465 0.950 . S
H1462 C1458 0.950 . S
C1463 C1461 1.390 . S
C1463 C1464 1.387 . S
C1463 H1466 0.950 . S
C1464 C1463 1.387 . S
C1464 C1467 1.387 . S
H1465 C1461 0.950 . S
H1466 C1463 0.950 . S
C1467 C1458 1.390 . S
C1467 H1460 0.950 . S
C1467 C1464 1.387 . S
C1468 C1469 1.387 . S
C1468 H1472 0.950 . S
C1468 C1477 1.390 . S
C1469 C1468 1.387 . S
C1469 C1471 1.387 . S
H1470 C1477 0.950 . S
C1471 C1469 1.387 . S
C1471 C1473 1.390 . S
C1471 H1475 0.950 . S
H1472 C1468 0.950 . S
C1473 C1471 1.390 . S
C1473 C1474 1.387 . S
C1473 H1476 0.950 1_556 S
C1474 C1473 1.387 . S
C1474 C1477 1.387 . S
H1475 C1471 0.950 . S
H1476 C1473 0.950 1_554 S
C1477 C1468 1.390 . S
C1477 H1470 0.950 . S
C1477 C1474 1.387 . S
C1478 C1479 1.387 . S
C1478 H1482 0.950 . S
C1478 C1487 1.390 . S
C1479 C1478 1.387 . S
C1479 C1481 1.387 . S
H1480 C1487 0.950 . S
C1481 C1479 1.387 . S
C1481 C1483 1.390 . S
C1481 H1485 0.950 . S
H1482 C1478 0.950 . S
C1483 C1481 1.390 . S
C1483 C1484 1.387 . S
C1483 H1486 0.950 . S
C1484 C1483 1.387 . S
C1484 C1487 1.387 . S
H1485 C1481 0.950 . S
H1486 C1483 0.950 . S
C1487 C1478 1.390 . S
C1487 H1480 0.950 . S
C1487 C1484 1.387 . S
C1488 C1489 1.387 . S
C1488 H1492 0.950 . S
C1488 C1497 1.390 . S
C1489 C1488 1.387 . S
C1489 C1491 1.387 . S
H1490 C1497 0.950 . S
C1491 C1489 1.387 . S
C1491 C1493 1.395 . S
C1491 H1495 0.950 . S
H1492 C1488 0.950 . S
C1493 C1491 1.395 . S
C1493 C1494 1.387 . S
C1493 H1496 0.945 1_545 S
C1494 C1493 1.387 . S
C1494 C1497 1.392 . S
H1495 C1491 0.950 . S
H1496 C1493 0.945 1_565 S
C1497 C1488 1.390 . S
C1497 H1490 0.950 . S
C1497 C1494 1.392 . S
C1498 C1499 1.387 . S
C1498 H1502 0.950 . S
C1498 C1507 1.390 . S
C1499 C1498 1.387 . S
C1499 C1501 1.387 . S
H1500 C1507 0.950 . S
C1501 C1499 1.387 . S
C1501 C1503 1.390 . S
C1501 H1505 0.950 . S
H1502 C1498 0.950 . S
C1503 C1501 1.390 . S
C1503 C1504 1.387 . S
C1503 H1506 0.950 . S
C1504 C1503 1.387 . S
C1504 C1507 1.387 . S
H1505 C1501 0.950 . S
H1506 C1503 0.950 . S
C1507 C1498 1.390 . S
C1507 H1500 0.950 . S
C1507 C1504 1.387 . S
C1508 C1509 1.387 1_565 S
C1508 H1512 0.950 . S
C1508 C1517 1.390 . S
C1509 C1508 1.387 1_545 S
C1509 C1511 1.387 . S
H1510 C1517 0.950 . S
C1511 C1509 1.387 . S
C1511 C1513 1.390 . S
C1511 H1515 0.950 . S
H1512 C1508 0.950 . S
C1513 C1511 1.390 . S
C1513 C1514 1.387 . S
C1513 H1516 0.950 . S
C1514 C1513 1.387 . S
C1514 C1517 1.387 1_545 S
H1515 C1511 0.950 . S
H1516 C1513 0.950 . S
C1517 C1508 1.390 . S
C1517 H1510 0.950 . S
C1517 C1514 1.387 1_565 S
C1518 C1519 1.387 . S
C1518 H1522 0.950 . S
C1518 C1527 1.390 . S
C1519 C1518 1.387 . S
C1519 C1521 1.387 . S
H1520 C1527 0.950 . S
C1521 C1519 1.387 . S
C1521 C1523 1.390 . S
C1521 H1525 0.950 . S
H1522 C1518 0.950 . S
C1523 C1521 1.390 . S
C1523 C1524 1.387 . S
C1523 H1526 0.950 . S
C1524 C1523 1.387 . S
C1524 C1527 1.387 . S
H1525 C1521 0.950 . S
H1526 C1523 0.950 . S
C1527 C1518 1.390 . S
C1527 H1520 0.950 . S
C1527 C1524 1.387 . S
C1528 C1529 1.387 . S
C1528 H1532 0.950 . S
C1528 C1537 1.390 . S
C1529 C1528 1.387 . S
C1529 C1531 1.387 . S
H1530 C1537 0.950 . S
C1531 C1529 1.387 . S
C1531 C1533 1.390 . S
C1531 H1535 0.950 1_545 S
H1532 C1528 0.950 . S
C1533 C1531 1.390 . S
C1533 C1534 1.387 . S
C1533 H1536 0.950 . S
C1534 C1533 1.387 . S
C1534 C1537 1.387 . S
H1535 C1531 0.950 1_565 S
H1536 C1533 0.950 . S
C1537 C1528 1.390 . S
C1537 H1530 0.950 . S
C1537 C1534 1.387 . S
C1538 C1539 1.387 . S
C1538 H1542 0.950 . S
C1538 C1547 1.390 . S
C1539 C1538 1.387 . S
C1539 C1541 1.387 . S
H1540 C1547 0.950 . S
C1541 C1539 1.387 . S
C1541 C1543 1.390 . S
C1541 H1545 0.950 . S
H1542 C1538 0.950 . S
C1543 C1541 1.390 . S
C1543 C1544 1.387 . S
C1543 H1546 0.950 . S
C1544 C1543 1.387 . S
C1544 C1547 1.387 . S
H1545 C1541 0.950 . S
H1546 C1543 0.950 . S
C1547 C1538 1.390 . S
C1547 H1540 0.950 . S
C1547 C1544 1.387 . S
C1548 C1549 1.387 1_565 S
C1548 H1552 0.950 . S
C1548 C1557 1.390 . S
C1549 C1548 1.387 1_545 S
C1549 C1551 1.387 . S
H1550 C1557 0.950 . S
C1551 C1549 1.387 . S
C1551 C1553 1.390 . S
C1551 H1555 0.950 . S
H1552 C1548 0.950 . S
C1553 C1551 1.390 . S
C1553 C1554 1.387 1_545 S
C1553 H1556 0.950 . S
C1554 C1553 1.387 1_565 S
C1554 C1557 1.387 . S
H1555 C1551 0.950 . S
H1556 C1553 0.950 . S
C1557 C1548 1.390 . S
C1557 H1550 0.950 . S
C1557 C1554 1.387 . S
C1558 C1559 1.387 . S
C1558 H1562 0.950 . S
C1558 C1567 1.390 . S
C1559 C1558 1.387 . S
C1559 C1561 1.387 . S
H1560 C1567 0.950 . S
C1561 C1559 1.387 . S
C1561 C1563 1.390 . S
C1561 H1565 0.950 . S
H1562 C1558 0.950 . S
C1563 C1561 1.390 . S
C1563 C1564 1.387 . S
C1563 H1566 0.950 . S
C1564 C1563 1.387 . S
C1564 C1567 1.387 . S
H1565 C1561 0.950 . S
H1566 C1563 0.950 . S
C1567 C1558 1.390 . S
C1567 H1560 0.950 . S
C1567 C1564 1.387 . S
C1568 C1569 1.387 . S
C1568 H1572 0.950 . S
C1568 C1577 1.390 . S
C1569 C1568 1.387 . S
C1569 C1571 1.387 . S
H1570 C1577 0.950 . S
C1571 C1569 1.387 . S
C1571 C1573 1.390 . S
C1571 H1575 0.950 . S
H1572 C1568 0.950 . S
C1573 C1571 1.390 . S
C1573 C1574 1.387 . S
C1573 H1576 0.950 1_554 S
C1574 C1573 1.387 . S
C1574 C1577 1.387 . S
H1575 C1571 0.950 . S
H1576 C1573 0.950 1_556 S
C1577 C1568 1.390 . S
C1577 H1570 0.950 . S
C1577 C1574 1.387 . S
C1578 C1579 1.387 . S
C1578 H1582 0.950 . S
C1578 C1587 1.390 . S
C1579 C1578 1.387 . S
C1579 C1581 1.387 . S
H1580 C1587 0.950 . S
C1581 C1579 1.387 . S
C1581 C1583 1.390 . S
C1581 H1585 0.950 . S
H1582 C1578 0.950 . S
C1583 C1581 1.390 . S
C1583 C1584 1.387 . S
C1583 H1586 0.950 . S
C1584 C1583 1.387 . S
C1584 C1587 1.387 . S
H1585 C1581 0.950 . S
H1586 C1583 0.950 . S
C1587 C1578 1.390 . S
C1587 H1580 0.950 . S
C1587 C1584 1.387 . S
C1588 C1589 1.387 . S
C1588 H1592 0.950 . S
C1588 C1597 1.390 . S
C1589 C1588 1.387 . S
C1589 C1591 1.387 . S
H1590 C1597 0.950 . S
C1591 C1589 1.387 . S
C1591 C1593 1.390 . S
C1591 H1595 0.950 . S
H1592 C1588 0.950 . S
C1593 C1591 1.390 . S
C1593 C1594 1.387 . S
C1593 H1596 0.950 . S
C1594 C1593 1.387 . S
C1594 C1597 1.387 . S
H1595 C1591 0.950 . S
H1596 C1593 0.950 . S
C1597 C1588 1.390 . S
C1597 H1590 0.950 . S
C1597 C1594 1.387 . S
C1598 C1599 1.387 . S
C1598 H1602 0.950 . S
C1598 C1607 1.390 . S
C1599 C1598 1.387 . S
C1599 C1601 1.387 . S
H1600 C1607 0.950 . S
C1601 C1599 1.387 . S
C1601 C1603 1.390 . S
C1601 H1605 0.950 . S
H1602 C1598 0.950 . S
C1603 C1601 1.390 . S
C1603 C1604 1.387 . S
C1603 H1606 0.950 . S
C1604 C1603 1.387 . S
C1604 C1607 1.387 . S
H1605 C1601 0.950 . S
H1606 C1603 0.950 . S
C1607 C1598 1.390 . S
C1607 H1600 0.950 . S
C1607 C1604 1.387 . S
C1608 C1609 1.387 . S
C1608 H1612 0.950 . S
C1608 C1617 1.390 . S
C1609 C1608 1.387 . S
C1609 C1611 1.387 . S
H1610 C1617 0.950 . S
C1611 C1609 1.387 . S
C1611 C1613 1.390 . S
C1611 H1615 0.950 . S
H1612 C1608 0.950 . S
C1613 C1611 1.390 . S
C1613 C1614 1.387 . S
C1613 H1616 0.950 . S
C1614 C1613 1.387 . S
C1614 C1617 1.387 . S
H1615 C1611 0.950 . S
H1616 C1613 0.950 . S
C1617 C1608 1.390 . S
C1617 H1610 0.950 . S
C1617 C1614 1.387 . S
C1618 C1619 1.387 . S
C1618 H1622 0.950 . S
C1618 C1627 1.390 . S
C1619 C1618 1.387 . S
C1619 C1621 1.387 . S
H1620 C1627 0.950 . S
C1621 C1619 1.387 . S
C1621 C1623 1.390 . S
C1621 H1625 0.950 1_565 S
H1622 C1618 0.950 . S
C1623 C1621 1.390 . S
C1623 C1624 1.387 . S
C1623 H1626 0.950 1_565 S
C1624 C1623 1.387 . S
C1624 C1627 1.387 . S
H1625 C1621 0.950 1_545 S
H1626 C1623 0.950 1_545 S
C1627 C1618 1.390 . S
C1627 H1620 0.950 . S
C1627 C1624 1.387 . S
C1628 C1629 1.387 . S
C1628 H1632 0.950 . S
C1628 C1637 1.390 . S
C1629 C1628 1.387 . S
C1629 C1631 1.387 . S
H1630 C1637 0.950 . S
C1631 C1629 1.387 . S
C1631 C1633 1.390 . S
C1631 H1635 0.950 . S
H1632 C1628 0.950 . S
C1633 C1631 1.390 . S
C1633 C1634 1.387 . S
C1633 H1636 0.950 . S
C1634 C1633 1.387 . S
C1634 C1637 1.387 . S
H1635 C1631 0.950 . S
H1636 C1633 0.950 . S
C1637 C1628 1.390 . S
C1637 H1630 0.950 . S
C1637 C1634 1.387 . S
C1638 C1639 1.387 . S
C1638 H1642 0.950 . S
C1638 C1647 1.390 . S
C1639 C1638 1.387 . S
C1639 C1641 1.387 . S
H1640 C1647 0.950 . S
C1641 C1639 1.387 . S
C1641 C1643 1.390 . S
C1641 H1645 0.950 . S
H1642 C1638 0.950 . S
C1643 C1641 1.390 . S
C1643 C1644 1.387 . S
C1643 H1646 0.950 . S
C1644 C1643 1.387 . S
C1644 C1647 1.387 . S
H1645 C1641 0.950 . S
H1646 C1643 0.950 . S
C1647 C1638 1.390 . S
C1647 H1640 0.950 . S
C1647 C1644 1.387 . S
C1648 C1649 1.387 . S
C1648 H1652 0.950 1_455 S
C1648 C1657 1.390 . S
C1649 C1648 1.387 . S
C1649 C1651 1.387 . S
H1650 C1657 0.950 1_554 S
C1651 C1649 1.387 . S
C1651 C1653 1.390 . S
C1651 H1655 0.950 . S
H1652 C1648 0.950 1_655 S
C1653 C1651 1.390 . S
C1653 C1654 1.387 . S
C1653 H1656 0.950 . S
C1654 C1653 1.387 . S
C1654 C1657 1.387 . S
H1655 C1651 0.950 . S
H1656 C1653 0.950 . S
C1657 C1648 1.390 . S
C1657 H1650 0.950 1_556 S
C1657 C1654 1.387 . S
C1658 C1659 1.387 . S
C1658 H1662 0.950 . S
C1658 C1667 1.390 . S
C1659 C1658 1.387 . S
C1659 C1661 1.387 . S
H1660 C1667 0.950 . S
C1661 C1659 1.387 . S
C1661 C1663 1.390 . S
C1661 H1665 0.950 . S
H1662 C1658 0.950 . S
C1663 C1661 1.390 . S
C1663 C1664 1.387 . S
C1663 H1666 0.950 . S
C1664 C1663 1.387 . S
C1664 C1667 1.387 . S
H1665 C1661 0.950 . S
H1666 C1663 0.950 . S
C1667 C1658 1.390 . S
C1667 H1660 0.950 . S
C1667 C1664 1.387 . S
C1668 C1669 1.387 . S
C1668 H1672 0.950 . S
C1668 C1677 1.390 . S
C1669 C1668 1.387 . S
C1669 C1671 1.387 . S
H1670 C1677 0.950 . S
C1671 C1669 1.387 . S
C1671 C1673 1.390 . S
C1671 H1675 0.950 . S
H1672 C1668 0.950 . S
C1673 C1671 1.390 . S
C1673 C1674 1.387 . S
C1673 H1676 0.950 . S
C1674 C1673 1.387 . S
C1674 C1677 1.387 . S
H1675 C1671 0.950 . S
H1676 C1673 0.950 . S
C1677 C1668 1.390 . S
C1677 H1670 0.950 . S
C1677 C1674 1.387 . S
C1678 C1679 1.387 . S
C1678 H1682 0.950 . S
C1678 C1687 1.390 . S
C1679 C1678 1.387 . S
C1679 C1681 1.387 . S
H1680 C1687 0.950 . S
C1681 C1679 1.387 . S
C1681 C1683 1.390 . S
C1681 H1685 0.950 . S
H1682 C1678 0.950 . S
C1683 C1681 1.390 . S
C1683 C1684 1.387 . S
C1683 H1686 0.950 . S
C1684 C1683 1.387 . S
C1684 C1687 1.387 . S
H1685 C1681 0.950 . S
H1686 C1683 0.950 . S
C1687 C1678 1.390 . S
C1687 H1680 0.950 . S
C1687 C1684 1.387 . S
C1688 C1689 1.387 . S
C1688 H1692 0.950 1_455 S
C1688 C1697 1.390 . S
C1689 C1688 1.387 . S
C1689 C1691 1.387 . S
H1690 C1697 0.950 . S
C1691 C1689 1.387 . S
C1691 C1693 1.390 . S
C1691 H1695 0.950 . S
H1692 C1688 0.950 1_655 S
C1693 C1691 1.390 . S
C1693 C1694 1.387 . S
C1693 H1696 0.950 . S
C1694 C1693 1.387 . S
C1694 C1697 1.387 . S
H1695 C1691 0.950 . S
H1696 C1693 0.950 . S
C1697 C1688 1.390 . S
C1697 H1690 0.950 . S
C1697 C1694 1.387 . S
C1698 C1699 1.387 . S
C1698 H1702 0.950 . S
C1698 C1707 1.390 . S
C1699 C1698 1.387 . S
C1699 C1701 1.387 . S
H1700 C1707 0.950 . S
C1701 C1699 1.387 . S
C1701 C1703 1.390 . S
C1701 H1705 0.950 . S
H1702 C1698 0.950 . S
C1703 C1701 1.390 . S
C1703 C1704 1.387 . S
C1703 H1706 0.950 . S
C1704 C1703 1.387 . S
C1704 C1707 1.387 . S
H1705 C1701 0.950 . S
H1706 C1703 0.950 . S
C1707 C1698 1.390 . S
C1707 H1700 0.950 . S
C1707 C1704 1.387 . S
C1708 C1709 1.387 . S
C1708 H1712 0.950 . S
C1708 C1717 1.390 . S
C1709 C1708 1.387 . S
C1709 C1711 1.387 . S
H1710 C1717 0.950 . S
C1711 C1709 1.387 . S
C1711 C1713 1.390 . S
C1711 H1715 0.950 . S
H1712 C1708 0.950 . S
C1713 C1711 1.390 . S
C1713 C1714 1.387 . S
C1713 H1716 0.950 . S
C1714 C1713 1.387 . S
C1714 C1717 1.387 . S
H1715 C1711 0.950 . S
H1716 C1713 0.950 . S
C1717 C1708 1.390 . S
C1717 H1710 0.950 . S
C1717 C1714 1.387 . S
C1718 C1719 1.387 . S
C1718 H1722 0.950 . S
C1718 C1727 1.390 . S
C1719 C1718 1.387 . S
C1719 C1721 1.387 . S
H1720 C1727 0.950 . S
C1721 C1719 1.387 . S
C1721 C1723 1.390 . S
C1721 H1725 0.950 . S
H1722 C1718 0.950 . S
C1723 C1721 1.390 . S
C1723 C1724 1.387 . S
C1723 H1726 0.950 . S
C1724 C1723 1.387 . S
C1724 C1727 1.387 . S
H1725 C1721 0.950 . S
H1726 C1723 0.950 . S
C1727 C1718 1.390 . S
C1727 H1720 0.950 . S
C1727 C1724 1.387 . S
C1728 C1729 1.387 . S
C1728 H1732 0.950 . S
C1728 C1737 1.390 . S
C1729 C1728 1.387 . S
C1729 C1731 1.387 1_545 S
H1730 C1737 0.950 . S
C1731 C1729 1.387 1_565 S
C1731 C1733 1.390 1_565 S
C1731 H1735 0.950 . S
H1732 C1728 0.950 . S
C1733 C1731 1.390 1_545 S
C1733 C1734 1.387 1_655 S
C1733 H1736 0.950 1_645 S
C1734 C1733 1.387 1_455 S
C1734 C1737 1.387 1_455 S
H1735 C1731 0.950 . S
H1736 C1733 0.950 1_465 S
C1737 C1728 1.390 . S
C1737 H1730 0.950 . S
C1737 C1734 1.387 1_655 S
C1738 C1739 1.387 . S
C1738 H1742 0.950 . S
C1738 C1747 1.390 . S
C1739 C1738 1.387 . S
C1739 C1741 1.387 . S
H1740 C1747 0.950 . S
C1741 C1739 1.387 . S
C1741 C1743 1.390 . S
C1741 H1745 0.950 . S
H1742 C1738 0.950 . S
C1743 C1741 1.390 . S
C1743 C1744 1.387 . S
C1743 H1746 0.950 . S
C1744 C1743 1.387 . S
C1744 C1747 1.387 . S
H1745 C1741 0.950 . S
H1746 C1743 0.950 . S
C1747 C1738 1.390 . S
C1747 H1740 0.950 . S
C1747 C1744 1.387 . S
C1748 C1749 1.387 1_565 S
C1748 H1752 0.950 . S
C1748 C1757 1.390 . S
C1749 C1748 1.387 1_545 S
C1749 C1751 1.387 . S
H1750 C1757 0.950 . S
C1751 C1749 1.387 . S
C1751 C1753 1.390 . S
C1751 H1755 0.950 . S
H1752 C1748 0.950 . S
C1753 C1751 1.390 . S
C1753 C1754 1.387 1_545 S
C1753 H1756 0.950 . S
C1754 C1753 1.387 1_565 S
C1754 C1757 1.387 . S
H1755 C1751 0.950 . S
H1756 C1753 0.950 . S
C1757 C1748 1.390 . S
C1757 H1750 0.950 . S
C1757 C1754 1.387 . S
C1758 C1759 1.387 . S
C1758 H1762 0.950 . S
C1758 C1767 1.390 . S
C1759 C1758 1.387 . S
C1759 C1761 1.387 . S
H1760 C1767 0.950 . S
C1761 C1759 1.387 . S
C1761 C1763 1.390 . S
C1761 H1765 0.950 . S
H1762 C1758 0.950 . S
C1763 C1761 1.390 . S
C1763 C1764 1.387 . S
C1763 H1766 0.950 . S
C1764 C1763 1.387 . S
C1764 C1767 1.387 . S
H1765 C1761 0.950 . S
H1766 C1763 0.950 . S
C1767 C1758 1.390 . S
C1767 H1760 0.950 . S
C1767 C1764 1.387 . S
C1768 C1769 1.387 . S
C1768 H1772 0.950 . S
C1768 C1777 1.390 . S
C1769 C1768 1.387 . S
C1769 C1771 1.387 1_565 S
H1770 C1777 0.950 . S
C1771 C1769 1.387 1_545 S
C1771 C1773 1.390 . S
C1771 H1775 0.950 . S
H1772 C1768 0.950 . S
C1773 C1771 1.390 . S
C1773 C1774 1.387 1_545 S
C1773 H1776 0.950 . S
C1774 C1773 1.387 1_565 S
C1774 C1777 1.387 . S
H1775 C1771 0.950 . S
H1776 C1773 0.950 . S
C1777 C1768 1.390 . S
C1777 H1770 0.950 . S
C1777 C1774 1.387 . S
C1778 C1779 1.387 . S
C1778 H1782 0.950 . S
C1778 C1787 1.390 . S
C1779 C1778 1.387 . S
C1779 C1781 1.387 . S
H1780 C1787 0.950 . S
C1781 C1779 1.387 . S
C1781 C1783 1.390 . S
C1781 H1785 0.950 . S
H1782 C1778 0.950 . S
C1783 C1781 1.390 . S
C1783 C1784 1.387 . S
C1783 H1786 0.950 . S
C1784 C1783 1.387 . S
C1784 C1787 1.387 . S
H1785 C1781 0.950 . S
H1786 C1783 0.950 . S
C1787 C1778 1.390 . S
C1787 H1780 0.950 . S
C1787 C1784 1.387 . S
C1788 C1789 1.387 . S
C1788 H1792 0.950 . S
C1788 C1797 1.390 . S
C1789 C1788 1.387 . S
C1789 C1791 1.387 . S
H1790 C1797 0.950 . S
C1791 C1789 1.387 . S
C1791 C1793 1.390 . S
C1791 H1795 0.950 1_545 S
H1792 C1788 0.950 . S
C1793 C1791 1.390 . S
C1793 C1794 1.387 . S
C1793 H1796 0.950 . S
C1794 C1793 1.387 . S
C1794 C1797 1.387 . S
H1795 C1791 0.950 1_565 S
H1796 C1793 0.950 . S
C1797 C1788 1.390 . S
C1797 H1790 0.950 . S
C1797 C1794 1.387 . S
C1798 C1799 1.387 . S
C1798 H1802 0.950 . S
C1798 C1807 1.390 . S
C1799 C1798 1.387 . S
C1799 C1801 1.387 . S
H1800 C1807 0.950 . S
C1801 C1799 1.387 . S
C1801 C1803 1.390 . S
C1801 H1805 0.950 . S
H1802 C1798 0.950 . S
C1803 C1801 1.390 . S
C1803 C1804 1.387 . S
C1803 H1806 0.950 . S
C1804 C1803 1.387 . S
C1804 C1807 1.387 . S
H1805 C1801 0.950 . S
H1806 C1803 0.950 . S
C1807 C1798 1.390 . S
C1807 H1800 0.950 . S
C1807 C1804 1.387 . S
C1808 C1809 1.387 . S
C1808 H1812 0.950 1_565 S
C1808 C1817 1.389 1_565 S
C1809 C1808 1.387 . S
C1809 C1811 1.387 . S
H1810 C1817 0.953 . S
C1811 C1809 1.387 . S
C1811 C1813 1.390 . S
C1811 H1815 0.950 . S
H1812 C1808 0.950 1_545 S
C1813 C1811 1.390 . S
C1813 C1814 1.387 . S
C1813 H1816 0.950 . S
C1814 C1813 1.387 . S
C1814 C1817 1.385 1_565 S
H1815 C1811 0.950 . S
H1816 C1813 0.950 . S
C1817 C1808 1.389 1_545 S
C1817 H1810 0.953 . S
C1817 C1814 1.385 1_545 S
C1818 C1819 1.387 1_556 S
C1818 H1822 0.950 . S
C1818 C1827 1.390 . S
C1819 C1818 1.387 1_554 S
C1819 C1821 1.387 . S
H1820 C1827 0.950 . S
C1821 C1819 1.387 . S
C1821 C1823 1.390 . S
C1821 H1825 0.950 . S
H1822 C1818 0.950 . S
C1823 C1821 1.390 . S
C1823 C1824 1.387 . S
C1823 H1826 0.950 . S
C1824 C1823 1.387 . S
C1824 C1827 1.387 1_554 S
H1825 C1821 0.950 . S
H1826 C1823 0.950 . S
C1827 C1818 1.390 . S
C1827 H1820 0.950 . S
C1827 C1824 1.387 1_556 S
C1828 C1829 1.387 . S
C1828 H1832 0.950 . S
C1828 C1837 1.390 . S
C1829 C1828 1.387 . S
C1829 C1831 1.387 . S
H1830 C1837 0.950 . S
C1831 C1829 1.387 . S
C1831 C1833 1.390 . S
C1831 H1835 0.950 . S
H1832 C1828 0.950 . S
C1833 C1831 1.390 . S
C1833 C1834 1.387 . S
C1833 H1836 0.950 . S
C1834 C1833 1.387 . S
C1834 C1837 1.387 . S
H1835 C1831 0.950 . S
H1836 C1833 0.950 . S
C1837 C1828 1.390 . S
C1837 H1830 0.950 . S
C1837 C1834 1.387 . S
C1838 C1839 1.387 . S
C1838 H1842 0.950 . S
C1838 C1847 1.390 . S
C1839 C1838 1.387 . S
C1839 C1841 1.387 . S
H1840 C1847 0.950 . S
C1841 C1839 1.387 . S
C1841 C1843 1.390 . S
C1841 H1845 0.950 . S
H1842 C1838 0.950 . S
C1843 C1841 1.390 . S
C1843 C1844 1.387 . S
C1843 H1846 0.950 . S
C1844 C1843 1.387 . S
C1844 C1847 1.387 . S
H1845 C1841 0.950 . S
H1846 C1843 0.950 . S
C1847 C1838 1.390 . S
C1847 H1840 0.950 . S
C1847 C1844 1.387 . S
C1848 C1849 1.387 . S
C1848 H1852 0.950 . S
C1848 C1857 1.390 . S
C1849 C1848 1.387 . S
C1849 C1851 1.387 . S
H1850 C1857 0.950 . S
C1851 C1849 1.387 . S
C1851 C1853 1.390 . S
C1851 H1855 0.950 . S
H1852 C1848 0.950 . S
C1853 C1851 1.390 . S
C1853 C1854 1.387 . S
C1853 H1856 0.950 . S
C1854 C1853 1.387 . S
C1854 C1857 1.387 . S
H1855 C1851 0.950 . S
H1856 C1853 0.950 . S
C1857 C1848 1.390 . S
C1857 H1850 0.950 . S
C1857 C1854 1.387 . S
C1858 C1859 1.387 . S
C1858 H1862 0.950 . S
C1858 C1867 1.390 . S
C1859 C1858 1.387 . S
C1859 C1861 1.387 . S
H1860 C1867 0.950 . S
C1861 C1859 1.387 . S
C1861 C1863 1.390 . S
C1861 H1865 0.950 . S
H1862 C1858 0.950 . S
C1863 C1861 1.390 . S
C1863 C1864 1.387 . S
C1863 H1866 0.950 . S
C1864 C1863 1.387 . S
C1864 C1867 1.387 . S
H1865 C1861 0.950 . S
H1866 C1863 0.950 . S
C1867 C1858 1.390 . S
C1867 H1860 0.950 . S
C1867 C1864 1.387 . S
C1868 C1869 1.387 . S
C1868 H1872 0.950 . S
C1868 C1877 1.390 . S
C1869 C1868 1.387 . S
C1869 C1871 1.387 . S
H1870 C1877 0.950 . S
C1871 C1869 1.387 . S
C1871 C1873 1.390 . S
C1871 H1875 0.950 . S
H1872 C1868 0.950 . S
C1873 C1871 1.390 . S
C1873 C1874 1.387 . S
C1873 H1876 0.950 . S
C1874 C1873 1.387 . S
C1874 C1877 1.387 . S
H1875 C1871 0.950 . S
H1876 C1873 0.950 . S
C1877 C1868 1.390 . S
C1877 H1870 0.950 . S
C1877 C1874 1.387 . S
C1878 C1879 1.387 . S
C1878 H1882 0.950 . S
C1878 C1887 1.390 . S
C1879 C1878 1.387 . S
C1879 C1881 1.387 . S
H1880 C1887 0.950 . S
C1881 C1879 1.387 . S
C1881 C1883 1.390 . S
C1881 H1885 0.950 . S
H1882 C1878 0.950 . S
C1883 C1881 1.390 . S
C1883 C1884 1.387 . S
C1883 H1886 0.950 . S
C1884 C1883 1.387 . S
C1884 C1887 1.387 . S
H1885 C1881 0.950 . S
H1886 C1883 0.950 . S
C1887 C1878 1.390 . S
C1887 H1880 0.950 . S
C1887 C1884 1.387 . S
C1888 C1889 1.387 . S
C1888 H1892 0.950 . S
C1888 C1897 1.390 . S
C1889 C1888 1.387 . S
C1889 C1891 1.387 . S
H1890 C1897 0.950 . S
C1891 C1889 1.387 . S
C1891 C1893 1.390 . S
C1891 H1895 0.950 . S
H1892 C1888 0.950 . S
C1893 C1891 1.390 . S
C1893 C1894 1.387 . S
C1893 H1896 0.950 . S
C1894 C1893 1.387 . S
C1894 C1897 1.387 . S
H1895 C1891 0.950 . S
H1896 C1893 0.950 . S
C1897 C1888 1.390 . S
C1897 H1890 0.950 . S
C1897 C1894 1.387 . S
C1898 C1899 1.387 . S
C1898 H1902 0.950 . S
C1898 C1907 1.390 . S
C1899 C1898 1.387 . S
C1899 C1901 1.387 . S
H1900 C1907 0.950 . S
C1901 C1899 1.387 . S
C1901 C1903 1.390 . S
C1901 H1905 0.950 . S
H1902 C1898 0.950 . S
C1903 C1901 1.390 . S
C1903 C1904 1.387 . S
C1903 H1906 0.950 . S
C1904 C1903 1.387 . S
C1904 C1907 1.387 . S
H1905 C1901 0.950 . S
H1906 C1903 0.950 . S
C1907 C1898 1.390 . S
C1907 H1900 0.950 . S
C1907 C1904 1.387 . S
C1908 C1909 1.387 . S
C1908 H1912 0.950 . S
C1908 C1917 1.390 . S
C1909 C1908 1.387 . S
C1909 C1911 1.387 . S
H1910 C1917 0.950 . S
C1911 C1909 1.387 . S
C1911 C1913 1.390 . S
C1911 H1915 0.950 . S
H1912 C1908 0.950 . S
C1913 C1911 1.390 . S
C1913 C1914 1.387 . S
C1913 H1916 0.950 . S
C1914 C1913 1.387 . S
C1914 C1917 1.387 . S
H1915 C1911 0.950 . S
H1916 C1913 0.950 . S
C1917 C1908 1.390 . S
C1917 H1910 0.950 . S
C1917 C1914 1.387 . S
C1918 C1919 1.387 . S
C1918 H1922 0.950 . S
C1918 C1927 1.390 . S
C1919 C1918 1.387 . S
C1919 C1921 1.387 . S
H1920 C1927 0.950 . S
C1921 C1919 1.387 . S
C1921 C1923 1.390 . S
C1921 H1925 0.950 . S
H1922 C1918 0.950 . S
C1923 C1921 1.390 . S
C1923 C1924 1.387 . S
C1923 H1926 0.950 . S
C1924 C1923 1.387 . S
C1924 C1927 1.387 . S
H1925 C1921 0.950 . S
H1926 C1923 0.950 . S
C1927 C1918 1.390 . S
C1927 H1920 0.950 . S
C1927 C1924 1.387 . S
C1928 C1929 1.387 . S
C1928 H1932 0.950 . S
C1928 C1937 1.390 . S
C1929 C1928 1.387 . S
C1929 C1931 1.387 . S
H1930 C1937 0.950 . S
C1931 C1929 1.387 . S
C1931 C1933 1.365 1_556 S
C1931 H1935 0.950 . S
H1932 C1928 0.950 . S
C1933 C1931 1.365 1_554 S
C1933 C1934 1.379 1_554 S
C1933 H1936 0.984 . S
C1934 C1933 1.379 1_556 S
C1934 C1937 1.387 . S
H1935 C1931 0.950 . S
H1936 C1933 0.984 . S
C1937 C1928 1.390 . S
C1937 H1930 0.950 . S
C1937 C1934 1.387 . S
C1938 C1939 1.387 1_655 S
C1938 H1942 0.950 . S
C1938 C1947 1.390 . S
C1939 C1938 1.387 1_455 S
C1939 C1941 1.387 1_455 S
H1940 C1947 0.950 . S
C1941 C1939 1.387 1_655 S
C1941 C1943 1.390 . S
C1941 H1945 0.950 . S
H1942 C1938 0.950 . S
C1943 C1941 1.390 . S
C1943 C1944 1.387 . S
C1943 H1946 0.950 . S
C1944 C1943 1.387 . S
C1944 C1947 1.387 . S
H1945 C1941 0.950 . S
H1946 C1943 0.950 . S
C1947 C1938 1.390 . S
C1947 H1940 0.950 . S
C1947 C1944 1.387 . S
C1948 C1949 1.387 . S
C1948 H1952 0.950 . S
C1948 C1957 1.390 . S
C1949 C1948 1.387 . S
C1949 C1951 1.387 . S
H1950 C1957 0.950 . S
C1951 C1949 1.387 . S
C1951 C1953 1.390 . S
C1951 H1955 0.950 . S
H1952 C1948 0.950 . S
C1953 C1951 1.390 . S
C1953 C1954 1.387 . S
C1953 H1956 0.950 . S
C1954 C1953 1.387 . S
C1954 C1957 1.387 . S
H1955 C1951 0.950 . S
H1956 C1953 0.950 . S
C1957 C1948 1.390 . S
C1957 H1950 0.950 . S
C1957 C1954 1.387 . S
C1958 C1959 1.387 . S
C1958 H1962 0.950 . S
C1958 C1967 1.390 . S
C1959 C1958 1.387 . S
C1959 C1961 1.387 . S
H1960 C1967 0.950 . S
C1961 C1959 1.387 . S
C1961 C1963 1.390 . S
C1961 H1965 0.950 . S
H1962 C1958 0.950 . S
C1963 C1961 1.390 . S
C1963 C1964 1.387 . S
C1963 H1966 0.950 . S
C1964 C1963 1.387 . S
C1964 C1967 1.387 . S
H1965 C1961 0.950 . S
H1966 C1963 0.950 . S
C1967 C1958 1.390 . S
C1967 H1960 0.950 . S
C1967 C1964 1.387 . S
C1968 C1969 1.387 . S
C1968 H1972 0.950 . S
C1968 C1977 1.390 . S
C1969 C1968 1.387 . S
C1969 C1971 1.387 . S
H1970 C1977 0.950 . S
C1971 C1969 1.387 . S
C1971 C1973 1.390 . S
C1971 H1975 0.950 . S
H1972 C1968 0.950 . S
C1973 C1971 1.390 . S
C1973 C1974 1.387 . S
C1973 H1976 0.950 . S
C1974 C1973 1.387 . S
C1974 C1977 1.387 . S
H1975 C1971 0.950 . S
H1976 C1973 0.950 . S
C1977 C1968 1.390 . S
C1977 H1970 0.950 . S
C1977 C1974 1.387 . S
C1978 C1979 1.387 . S
C1978 H1982 0.950 . S
C1978 C1987 1.390 . S
C1979 C1978 1.387 . S
C1979 C1981 1.387 . S
H1980 C1987 0.950 . S
C1981 C1979 1.387 . S
C1981 C1983 1.390 . S
C1981 H1985 0.950 . S
H1982 C1978 0.950 . S
C1983 C1981 1.390 . S
C1983 C1984 1.387 . S
C1983 H1986 0.950 . S
C1984 C1983 1.387 . S
C1984 C1987 1.387 . S
H1985 C1981 0.950 . S
H1986 C1983 0.950 . S
C1987 C1978 1.390 . S
C1987 H1980 0.950 . S
C1987 C1984 1.387 . S
C1988 C1989 1.387 . S
C1988 H1992 0.950 . S
C1988 C1997 1.390 . S
C1989 C1988 1.387 . S
C1989 C1991 1.387 . S
H1990 C1997 0.950 . S
C1991 C1989 1.387 . S
C1991 C1993 1.390 . S
C1991 H1995 0.950 . S
H1992 C1988 0.950 . S
C1993 C1991 1.390 . S
C1993 C1994 1.388 1_655 S
C1993 H1996 0.950 . S
C1994 C1993 1.388 1_455 S
C1994 C1997 1.388 1_455 S
H1995 C1991 0.950 . S
H1996 C1993 0.950 . S
C1997 C1988 1.390 . S
C1997 H1990 0.950 . S
C1997 C1994 1.388 1_655 S
C1998 C1999 1.387 . S
C1998 H2002 0.950 . S
C1998 C2007 1.390 . S
C1999 C1998 1.387 . S
C1999 C2001 1.387 . S
H2000 C2007 0.950 . S
C2001 C1999 1.387 . S
C2001 C2003 1.390 . S
C2001 H2005 0.950 . S
H2002 C1998 0.950 . S
C2003 C2001 1.390 . S
C2003 C2004 1.387 . S
C2003 H2006 0.950 . S
C2004 C2003 1.387 . S
C2004 C2007 1.387 . S
H2005 C2001 0.950 . S
H2006 C2003 0.950 . S
C2007 C1998 1.390 . S
C2007 H2000 0.950 . S
C2007 C2004 1.387 . S
C2008 C2009 1.387 . S
C2008 H2012 0.950 . S
C2008 C2017 1.390 . S
C2009 C2008 1.387 . S
C2009 C2011 1.387 . S
H2010 C2017 0.950 . S
C2011 C2009 1.387 . S
C2011 C2013 1.390 . S
C2011 H2015 0.950 . S
H2012 C2008 0.950 . S
C2013 C2011 1.390 . S
C2013 C2014 1.387 . S
C2013 H2016 0.950 . S
C2014 C2013 1.387 . S
C2014 C2017 1.387 . S
H2015 C2011 0.950 . S
H2016 C2013 0.950 . S
C2017 C2008 1.390 . S
C2017 H2010 0.950 . S
C2017 C2014 1.387 . S
C2018 C2019 1.387 . S
C2018 H2022 0.950 . S
C2018 C2027 1.390 . S
C2019 C2018 1.387 . S
C2019 C2021 1.387 . S
H2020 C2027 0.950 . S
C2021 C2019 1.387 . S
C2021 C2023 1.390 . S
C2021 H2025 0.950 . S
H2022 C2018 0.950 . S
C2023 C2021 1.390 . S
C2023 C2024 1.387 . S
C2023 H2026 0.950 . S
C2024 C2023 1.387 . S
C2024 C2027 1.387 . S
H2025 C2021 0.950 . S
H2026 C2023 0.950 . S
C2027 C2018 1.390 . S
C2027 H2020 0.950 . S
C2027 C2024 1.387 . S
C2028 C2029 1.387 . S
C2028 H2032 0.950 . S
C2028 C2037 1.390 . S
C2029 C2028 1.387 . S
C2029 C2031 1.387 . S
H2030 C2037 0.950 . S
C2031 C2029 1.387 . S
C2031 C2033 1.390 . S
C2031 H2035 0.950 . S
H2032 C2028 0.950 . S
C2033 C2031 1.390 . S
C2033 C2034 1.387 . S
C2033 H2036 0.950 . S
C2034 C2033 1.387 . S
C2034 C2037 1.387 . S
H2035 C2031 0.950 . S
H2036 C2033 0.950 . S
C2037 C2028 1.390 . S
C2037 H2030 0.950 . S
C2037 C2034 1.387 . S
C2038 C2039 1.387 . S
C2038 H2042 0.950 . S
C2038 C2047 1.390 . S
C2039 C2038 1.387 . S
C2039 C2041 1.387 . S
H2040 C2047 0.950 . S
C2041 C2039 1.387 . S
C2041 C2043 1.390 . S
C2041 H2045 0.950 . S
H2042 C2038 0.950 . S
C2043 C2041 1.390 . S
C2043 C2044 1.387 . S
C2043 H2046 0.950 . S
C2044 C2043 1.387 . S
C2044 C2047 1.387 . S
H2045 C2041 0.950 . S
H2046 C2043 0.950 . S
C2047 C2038 1.390 . S
C2047 H2040 0.950 . S
C2047 C2044 1.387 . S
C2048 C2049 1.387 . S
C2048 H2052 0.950 . S
C2048 C2057 1.390 . S
C2049 C2048 1.387 . S
C2049 C2051 1.387 . S
H2050 C2057 0.950 . S
C2051 C2049 1.387 . S
C2051 C2053 1.390 . S
C2051 H2055 0.950 . S
H2052 C2048 0.950 . S
C2053 C2051 1.390 . S
C2053 C2054 1.387 . S
C2053 H2056 0.950 . S
C2054 C2053 1.387 . S
C2054 C2057 1.387 . S
H2055 C2051 0.950 . S
H2056 C2053 0.950 . S
C2057 C2048 1.390 . S
C2057 H2050 0.950 . S
C2057 C2054 1.387 . S
C2058 C2059 1.387 . S
C2058 H2062 0.950 . S
C2058 C2067 1.390 . S
C2059 C2058 1.387 . S
C2059 C2061 1.387 . S
H2060 C2067 0.950 . S
C2061 C2059 1.387 . S
C2061 C2063 1.390 1_565 S
C2061 H2065 0.950 1_565 S
H2062 C2058 0.950 . S
C2063 C2061 1.390 1_545 S
C2063 C2064 1.387 1_545 S
C2063 H2066 0.950 . S
C2064 C2063 1.387 1_565 S
C2064 C2067 1.387 . S
H2065 C2061 0.950 1_545 S
H2066 C2063 0.950 . S
C2067 C2058 1.390 . S
C2067 H2060 0.950 . S
C2067 C2064 1.387 . S
C2068 C2069 1.387 . S
C2068 H2072 0.950 . S
C2068 C2077 1.390 . S
C2069 C2068 1.387 . S
C2069 C2071 1.387 . S
H2070 C2077 0.950 . S
C2071 C2069 1.387 . S
C2071 C2073 1.390 . S
C2071 H2075 0.950 . S
H2072 C2068 0.950 . S
C2073 C2071 1.390 . S
C2073 C2074 1.387 . S
C2073 H2076 0.950 . S
C2074 C2073 1.387 . S
C2074 C2077 1.387 . S
H2075 C2071 0.950 . S
H2076 C2073 0.950 . S
C2077 C2068 1.390 . S
C2077 H2070 0.950 . S
C2077 C2074 1.387 . S
C2078 C2079 1.387 . S
C2078 H2082 0.950 . S
C2078 C2087 1.390 . S
C2079 C2078 1.387 . S
C2079 C2081 1.387 . S
H2080 C2087 0.950 . S
C2081 C2079 1.387 . S
C2081 C2083 1.390 . S
C2081 H2085 0.950 1_554 S
H2082 C2078 0.950 . S
C2083 C2081 1.390 . S
C2083 C2084 1.387 . S
C2083 H2086 0.950 . S
C2084 C2083 1.387 . S
C2084 C2087 1.387 . S
H2085 C2081 0.950 1_556 S
H2086 C2083 0.950 . S
C2087 C2078 1.390 . S
C2087 H2080 0.950 . S
C2087 C2084 1.387 . S
C2088 C2089 1.387 . S
C2088 H2092 0.950 . S
C2088 C2097 1.390 . S
C2089 C2088 1.387 . S
C2089 C2091 1.387 . S
H2090 C2097 0.950 . S
C2091 C2089 1.387 . S
C2091 C2093 1.390 . S
C2091 H2095 0.950 . S
H2092 C2088 0.950 . S
C2093 C2091 1.390 . S
C2093 C2094 1.387 . S
C2093 H2096 0.950 . S
C2094 C2093 1.387 . S
C2094 C2097 1.387 . S
H2095 C2091 0.950 . S
H2096 C2093 0.950 . S
C2097 C2088 1.390 . S
C2097 H2090 0.950 . S
C2097 C2094 1.387 . S
C2098 C2099 1.387 . S
C2098 H2102 0.950 . S
C2098 C2107 1.390 . S
C2099 C2098 1.387 . S
C2099 C2101 1.387 . S
H2100 C2107 0.950 . S
C2101 C2099 1.387 . S
C2101 C2103 1.390 . S
C2101 H2105 0.950 . S
H2102 C2098 0.950 . S
C2103 C2101 1.390 . S
C2103 C2104 1.387 . S
C2103 H2106 0.950 1_554 S
C2104 C2103 1.387 . S
C2104 C2107 1.387 . S
H2105 C2101 0.950 . S
H2106 C2103 0.950 1_556 S
C2107 C2098 1.390 . S
C2107 H2100 0.950 . S
C2107 C2104 1.387 . S
C2108 C2109 1.387 . S
C2108 H2112 0.950 . S
C2108 C2117 1.390 . S
C2109 C2108 1.387 . S
C2109 C2111 1.387 . S
H2110 C2117 0.950 . S
C2111 C2109 1.387 . S
C2111 C2113 1.390 . S
C2111 H2115 0.950 . S
H2112 C2108 0.950 . S
C2113 C2111 1.390 . S
C2113 C2114 1.387 . S
C2113 H2116 0.950 . S
C2114 C2113 1.387 . S
C2114 C2117 1.387 . S
H2115 C2111 0.950 . S
H2116 C2113 0.950 . S
C2117 C2108 1.390 . S
C2117 H2110 0.950 . S
C2117 C2114 1.387 . S
C2118 C2119 1.387 . S
C2118 H2122 0.950 . S
C2118 C2127 1.390 . S
C2119 C2118 1.387 . S
C2119 C2121 1.387 . S
H2120 C2127 0.950 . S
C2121 C2119 1.387 . S
C2121 C2123 1.390 . S
C2121 H2125 0.950 . S
H2122 C2118 0.950 . S
C2123 C2121 1.390 . S
C2123 C2124 1.387 . S
C2123 H2126 0.950 . S
C2124 C2123 1.387 . S
C2124 C2127 1.387 . S
H2125 C2121 0.950 . S
H2126 C2123 0.950 . S
C2127 C2118 1.390 . S
C2127 H2120 0.950 . S
C2127 C2124 1.387 . S
C2128 C2129 1.387 . S
C2128 H2132 0.950 . S
C2128 C2137 1.390 . S
C2129 C2128 1.387 . S
C2129 C2131 1.387 . S
H2130 C2137 0.950 . S
C2131 C2129 1.387 . S
C2131 C2133 1.390 . S
C2131 H2135 0.950 . S
H2132 C2128 0.950 . S
C2133 C2131 1.390 . S
C2133 C2134 1.387 . S
C2133 H2136 0.950 . S
C2134 C2133 1.387 . S
C2134 C2137 1.387 . S
H2135 C2131 0.950 . S
H2136 C2133 0.950 . S
C2137 C2128 1.390 . S
C2137 H2130 0.950 . S
C2137 C2134 1.387 . S
C2138 C2139 1.387 . S
C2138 H2142 0.950 . S
C2138 C2147 1.390 . S
C2139 C2138 1.387 . S
C2139 C2141 1.387 . S
H2140 C2147 0.950 . S
C2141 C2139 1.387 . S
C2141 C2143 1.390 . S
C2141 H2145 0.950 . S
H2142 C2138 0.950 . S
C2143 C2141 1.390 . S
C2143 C2144 1.387 . S
C2143 H2146 0.950 . S
C2144 C2143 1.387 . S
C2144 C2147 1.387 . S
H2145 C2141 0.950 . S
H2146 C2143 0.950 . S
C2147 C2138 1.390 . S
C2147 H2140 0.950 . S
C2147 C2144 1.387 . S
C2148 C2149 1.414 . S
C2148 H2152 0.950 . S
C2148 C2157 1.390 . S
C2149 C2148 1.414 . S
C2149 C2151 1.364 1_655 S
H2150 C2157 0.950 . S
C2151 C2149 1.364 1_455 S
C2151 C2153 1.390 . S
C2151 H2155 0.950 . S
H2152 C2148 0.950 . S
C2153 C2151 1.390 . S
C2153 C2154 1.387 1_455 S
C2153 H2156 0.950 . S
C2154 C2153 1.387 1_655 S
C2154 C2157 1.387 . S
H2155 C2151 0.950 . S
H2156 C2153 0.950 . S
C2157 C2148 1.390 . S
C2157 H2150 0.950 . S
C2157 C2154 1.387 . S
C2158 C2159 1.387 . S
C2158 H2162 0.950 . S
C2158 C2167 1.390 . S
C2159 C2158 1.387 . S
C2159 C2161 1.387 . S
H2160 C2167 0.950 . S
C2161 C2159 1.387 . S
C2161 C2163 1.390 . S
C2161 H2165 0.950 . S
H2162 C2158 0.950 . S
C2163 C2161 1.390 . S
C2163 C2164 1.387 . S
C2163 H2166 0.950 . S
C2164 C2163 1.387 . S
C2164 C2167 1.387 . S
H2165 C2161 0.950 . S
H2166 C2163 0.950 . S
C2167 C2158 1.390 . S
C2167 H2160 0.950 . S
C2167 C2164 1.387 . S
C2168 C2169 1.387 . S
C2168 H2172 0.950 . S
C2168 C2177 1.390 . S
C2169 C2168 1.387 . S
C2169 C2171 1.387 . S
H2170 C2177 0.950 . S
C2171 C2169 1.387 . S
C2171 C2173 1.390 . S
C2171 H2175 0.950 . S
H2172 C2168 0.950 . S
C2173 C2171 1.390 . S
C2173 C2174 1.387 . S
C2173 H2176 0.950 . S
C2174 C2173 1.387 . S
C2174 C2177 1.387 . S
H2175 C2171 0.950 . S
H2176 C2173 0.950 . S
C2177 C2168 1.390 . S
C2177 H2170 0.950 . S
C2177 C2174 1.387 . S
C2178 C2179 1.387 . S
C2178 H2182 0.950 . S
C2178 C2187 1.390 . S
C2179 C2178 1.387 . S
C2179 C2181 1.387 . S
H2180 C2187 0.950 . S
C2181 C2179 1.387 . S
C2181 C2183 1.390 . S
C2181 H2185 0.950 . S
H2182 C2178 0.950 . S
C2183 C2181 1.390 . S
C2183 C2184 1.387 . S
C2183 H2186 0.950 . S
C2184 C2183 1.387 . S
C2184 C2187 1.387 . S
H2185 C2181 0.950 . S
H2186 C2183 0.950 . S
C2187 C2178 1.390 . S
C2187 H2180 0.950 . S
C2187 C2184 1.387 . S
C2188 C2189 1.387 . S
C2188 H2192 0.950 1_455 S
C2188 C2197 1.390 . S
C2189 C2188 1.387 . S
C2189 C2191 1.387 . S
H2190 C2197 0.950 1_655 S
C2191 C2189 1.387 . S
C2191 C2193 1.390 . S
C2191 H2195 0.950 . S
H2192 C2188 0.950 1_655 S
C2193 C2191 1.390 . S
C2193 C2194 1.387 . S
C2193 H2196 0.950 . S
C2194 C2193 1.387 . S
C2194 C2197 1.387 . S
H2195 C2191 0.950 . S
H2196 C2193 0.950 . S
C2197 C2188 1.390 . S
C2197 H2190 0.950 1_455 S
C2197 C2194 1.387 . S
C2198 C2199 1.387 . S
C2198 H2202 0.950 . S
C2198 C2207 1.390 . S
C2199 C2198 1.387 . S
C2199 C2201 1.387 . S
H2200 C2207 0.950 . S
C2201 C2199 1.387 . S
C2201 C2203 1.390 . S
C2201 H2205 0.950 . S
H2202 C2198 0.950 . S
C2203 C2201 1.390 . S
C2203 C2204 1.387 . S
C2203 H2206 0.950 . S
C2204 C2203 1.387 . S
C2204 C2207 1.387 . S
H2205 C2201 0.950 . S
H2206 C2203 0.950 . S
C2207 C2198 1.390 . S
C2207 H2200 0.950 . S
C2207 C2204 1.387 . S
C2208 C2209 1.387 . S
C2208 H2212 0.950 . S
C2208 C2217 1.390 . S
C2209 C2208 1.387 . S
C2209 C2211 1.387 . S
H2210 C2217 0.950 . S
C2211 C2209 1.387 . S
C2211 C2213 1.390 . S
C2211 H2215 0.950 . S
H2212 C2208 0.950 . S
C2213 C2211 1.390 . S
C2213 C2214 1.387 . S
C2213 H2216 0.950 . S
C2214 C2213 1.387 . S
C2214 C2217 1.387 . S
H2215 C2211 0.950 . S
H2216 C2213 0.950 . S
C2217 C2208 1.390 . S
C2217 H2210 0.950 . S
C2217 C2214 1.387 . S
C2218 C2219 1.387 . S
C2218 H2222 0.950 . S
C2218 C2227 1.390 . S
C2219 C2218 1.387 . S
C2219 C2221 1.387 . S
H2220 C2227 0.950 . S
C2221 C2219 1.387 . S
C2221 C2223 1.390 . S
C2221 H2225 0.950 . S
H2222 C2218 0.950 . S
C2223 C2221 1.390 . S
C2223 C2224 1.387 . S
C2223 H2226 0.950 . S
C2224 C2223 1.387 . S
C2224 C2227 1.387 . S
H2225 C2221 0.950 . S
H2226 C2223 0.950 . S
C2227 C2218 1.390 . S
C2227 H2220 0.950 . S
C2227 C2224 1.387 . S
C2228 C2229 1.387 . S
C2228 H2232 0.950 . S
C2228 C2237 1.390 . S
C2229 C2228 1.387 . S
C2229 C2231 1.387 . S
H2230 C2237 0.950 . S
C2231 C2229 1.387 . S
C2231 C2233 1.390 . S
C2231 H2235 0.950 . S
H2232 C2228 0.950 . S
C2233 C2231 1.390 . S
C2233 C2234 1.387 . S
C2233 H2236 0.950 . S
C2234 C2233 1.387 . S
C2234 C2237 1.387 . S
H2235 C2231 0.950 . S
H2236 C2233 0.950 . S
C2237 C2228 1.390 . S
C2237 H2230 0.950 . S
C2237 C2234 1.387 . S
C2238 C2239 1.387 . S
C2238 H2242 0.950 . S
C2238 C2247 1.390 . S
C2239 C2238 1.387 . S
C2239 C2241 1.387 . S
H2240 C2247 0.950 . S
C2241 C2239 1.387 . S
C2241 C2243 1.390 . S
C2241 H2245 0.950 . S
H2242 C2238 0.950 . S
C2243 C2241 1.390 . S
C2243 C2244 1.387 . S
C2243 H2246 0.950 . S
C2244 C2243 1.387 . S
C2244 C2247 1.387 . S
H2245 C2241 0.950 . S
H2246 C2243 0.950 . S
C2247 C2238 1.390 . S
C2247 H2240 0.950 . S
C2247 C2244 1.387 . S
C2248 C2249 1.387 . S
C2248 H2252 0.950 . S
C2248 C2257 1.390 . S
C2249 C2248 1.387 . S
C2249 C2251 1.387 . S
H2250 C2257 0.950 . S
C2251 C2249 1.387 . S
C2251 C2253 1.390 . S
C2251 H2255 0.950 . S
H2252 C2248 0.950 . S
C2253 C2251 1.390 . S
C2253 C2254 1.387 . S
C2253 H2256 0.950 . S
C2254 C2253 1.387 . S
C2254 C2257 1.387 . S
H2255 C2251 0.950 . S
H2256 C2253 0.950 . S
C2257 C2248 1.390 . S
C2257 H2250 0.950 . S
C2257 C2254 1.387 . S
C2258 C2259 1.387 . S
C2258 H2262 0.950 . S
C2258 C2267 1.390 . S
C2259 C2258 1.387 . S
C2259 C2261 1.387 . S
H2260 C2267 0.950 . S
C2261 C2259 1.387 . S
C2261 C2263 1.390 . S
C2261 H2265 0.950 . S
H2262 C2258 0.950 . S
C2263 C2261 1.390 . S
C2263 C2264 1.387 . S
C2263 H2266 0.950 . S
C2264 C2263 1.387 . S
C2264 C2267 1.387 . S
H2265 C2261 0.950 . S
H2266 C2263 0.950 . S
C2267 C2258 1.390 . S
C2267 H2260 0.950 . S
C2267 C2264 1.387 . S
C2268 C2269 1.387 . S
C2268 H2272 0.950 . S
C2268 C2277 1.390 . S
C2269 C2268 1.387 . S
C2269 C2271 1.387 . S
H2270 C2277 0.950 . S
C2271 C2269 1.387 . S
C2271 C2273 1.390 . S
C2271 H2275 0.950 . S
H2272 C2268 0.950 . S
C2273 C2271 1.390 . S
C2273 C2274 1.387 . S
C2273 H2276 0.950 . S
C2274 C2273 1.387 . S
C2274 C2277 1.387 . S
H2275 C2271 0.950 . S
H2276 C2273 0.950 . S
C2277 C2268 1.390 . S
C2277 H2270 0.950 . S
C2277 C2274 1.387 . S
C2278 C2279 1.387 . S
C2278 H2282 0.950 . S
C2278 C2287 1.390 . S
C2279 C2278 1.387 . S
C2279 C2281 1.387 . S
H2280 C2287 0.950 . S
C2281 C2279 1.387 . S
C2281 C2283 1.390 . S
C2281 H2285 0.950 . S
H2282 C2278 0.950 . S
C2283 C2281 1.390 . S
C2283 C2284 1.387 . S
C2283 H2286 0.950 . S
C2284 C2283 1.387 . S
C2284 C2287 1.387 . S
H2285 C2281 0.950 . S
H2286 C2283 0.950 . S
C2287 C2278 1.390 . S
C2287 H2280 0.950 . S
C2287 C2284 1.387 . S
C2288 C2289 1.387 . S
C2288 H2292 0.950 . S
C2288 C2297 1.390 . S
C2289 C2288 1.387 . S
C2289 C2291 1.387 . S
H2290 C2297 0.950 . S
C2291 C2289 1.387 . S
C2291 C2293 1.390 . S
C2291 H2295 0.950 . S
H2292 C2288 0.950 . S
C2293 C2291 1.390 . S
C2293 C2294 1.387 . S
C2293 H2296 0.950 . S
C2294 C2293 1.387 . S
C2294 C2297 1.387 . S
H2295 C2291 0.950 . S
H2296 C2293 0.950 . S
C2297 C2288 1.390 . S
C2297 H2290 0.950 . S
C2297 C2294 1.387 . S
C2298 C2299 1.387 . S
C2298 H2302 0.950 . S
C2298 C2307 1.390 . S
C2299 C2298 1.387 . S
C2299 C2301 1.387 . S
H2300 C2307 0.950 . S
C2301 C2299 1.387 . S
C2301 C2303 1.390 . S
C2301 H2305 0.950 . S
H2302 C2298 0.950 . S
C2303 C2301 1.390 . S
C2303 C2304 1.387 . S
C2303 H2306 0.950 . S
C2304 C2303 1.387 . S
C2304 C2307 1.387 . S
H2305 C2301 0.950 . S
H2306 C2303 0.950 . S
C2307 C2298 1.390 . S
C2307 H2300 0.950 . S
C2307 C2304 1.387 . S
C2308 C2309 1.387 . S
C2308 H2312 0.950 . S
C2308 C2317 1.390 . S
C2309 C2308 1.387 . S
C2309 C2311 1.387 . S
H2310 C2317 0.950 . S
C2311 C2309 1.387 . S
C2311 C2313 1.390 . S
C2311 H2315 0.950 . S
H2312 C2308 0.950 . S
C2313 C2311 1.390 . S
C2313 C2314 1.387 . S
C2313 H2316 0.950 . S
C2314 C2313 1.387 . S
C2314 C2317 1.387 . S
H2315 C2311 0.950 . S
H2316 C2313 0.950 . S
C2317 C2308 1.390 . S
C2317 H2310 0.950 . S
C2317 C2314 1.387 . S
C2318 C2319 1.387 . S
C2318 H2322 0.950 . S
C2318 C2327 1.390 . S
C2319 C2318 1.387 . S
C2319 C2321 1.387 . S
H2320 C2327 0.950 1_545 S
C2321 C2319 1.387 . S
C2321 C2323 1.390 1_554 S
C2321 H2325 0.950 1_554 S
H2322 C2318 0.950 . S
C2323 C2321 1.390 1_556 S
C2323 C2324 1.387 1_556 S
C2323 H2326 0.950 . S
C2324 C2323 1.387 1_554 S
C2324 C2327 1.387 . S
H2325 C2321 0.950 1_556 S
H2326 C2323 0.950 . S
C2327 C2318 1.390 . S
C2327 H2320 0.950 1_565 S
C2327 C2324 1.387 . S
C2328 C2329 1.387 . S
C2328 H2332 0.950 . S
C2328 C2337 1.390 . S
C2329 C2328 1.387 . S
C2329 C2331 1.387 . S
H2330 C2337 0.950 . S
C2331 C2329 1.387 . S
C2331 C2333 1.390 . S
C2331 H2335 0.950 . S
H2332 C2328 0.950 . S
C2333 C2331 1.390 . S
C2333 C2334 1.387 . S
C2333 H2336 0.950 . S
C2334 C2333 1.387 . S
C2334 C2337 1.387 . S
H2335 C2331 0.950 . S
H2336 C2333 0.950 . S
C2337 C2328 1.390 . S
C2337 H2330 0.950 . S
C2337 C2334 1.387 . S
C2338 C2339 1.387 . S
C2338 H2342 0.950 . S
C2338 C2347 1.390 . S
C2339 C2338 1.387 . S
C2339 C2341 1.387 . S
H2340 C2347 0.950 . S
C2341 C2339 1.387 . S
C2341 C2343 1.390 . S
C2341 H2345 0.950 1_554 S
H2342 C2338 0.950 . S
C2343 C2341 1.390 . S
C2343 C2344 1.387 . S
C2343 H2346 0.950 . S
C2344 C2343 1.387 . S
C2344 C2347 1.387 . S
H2345 C2341 0.950 1_556 S
H2346 C2343 0.950 . S
C2347 C2338 1.390 . S
C2347 H2340 0.950 . S
C2347 C2344 1.387 . S
C2348 C2349 1.387 . S
C2348 H2352 0.950 . S
C2348 C2357 1.390 . S
C2349 C2348 1.387 . S
C2349 C2351 1.387 . S
H2350 C2357 0.950 . S
C2351 C2349 1.387 . S
C2351 C2353 1.390 . S
C2351 H2355 0.950 . S
H2352 C2348 0.950 . S
C2353 C2351 1.390 . S
C2353 C2354 1.387 . S
C2353 H2356 0.950 . S
C2354 C2353 1.387 . S
C2354 C2357 1.387 . S
H2355 C2351 0.950 . S
H2356 C2353 0.950 . S
C2357 C2348 1.390 . S
C2357 H2350 0.950 . S
C2357 C2354 1.387 . S
C2358 C2359 1.387 . S
C2358 H2362 0.950 . S
C2358 C2367 1.390 . S
C2359 C2358 1.387 . S
C2359 C2361 1.387 . S
H2360 C2367 0.950 . S
C2361 C2359 1.387 . S
C2361 C2363 1.390 . S
C2361 H2365 0.950 . S
H2362 C2358 0.950 . S
C2363 C2361 1.390 . S
C2363 C2364 1.387 . S
C2363 H2366 0.950 . S
C2364 C2363 1.387 . S
C2364 C2367 1.387 . S
H2365 C2361 0.950 . S
H2366 C2363 0.950 . S
C2367 C2358 1.390 . S
C2367 H2360 0.950 . S
C2367 C2364 1.387 . S
C1414 C881 1.297 . S
C1409 C2 1.332 . S
C1419 C39 1.889 . S
C1424 C927 1.879 . S
C1429 C86 0.974 . S
C1434 C936 0.984 . S
C1444 C974 1.649 . S
C1439 C112 1.707 . S
C1449 C38 1.769 . S
C1454 C1008 1.719 . S
C1464 C1038 0.899 . S
C1459 C76 0.906 . S
C1474 C1097 1.678 1_556 S
C1469 C122 1.646 . S
C1479 C3 1.221 . S
C1484 C1110 1.233 . S
C1489 C147 1.560 . S
C1494 C893 1.521 1_545 S
C1499 C184 1.287 . S
C1504 C911 1.281 . S
C1514 C932 1.781 . S
C1509 C219 1.802 . S
C1524 C970 1.121 . S
C1519 C256 1.142 . S
C1529 C148 1.385 . S
C1534 C1004 1.359 . S
C1544 C1034 1.716 . S
C1539 C183 1.735 . S
C1554 C1081 1.357 . S
C1549 C220 1.382 . S
C1564 C1106 0.890 . S
C1559 C255 0.904 . S
C1574 C877 0.907 . S
C1569 C254 0.900 . S
C1584 C1136 1.701 . S
C1579 C302 1.641 . S
C1589 C326 1.578 . S
C1594 C1178 1.581 . S
C1604 C1221 0.581 . S
C1599 C374 0.562 . S
C1609 C146 1.541 . S
C1614 C1102 1.491 . S
C1624 C940 1.667 . S
C1619 C182 1.639 . S
C1629 C338 1.362 . S
C1634 C1238 1.438 . S
C1644 C1289 1.677 . S
C1639 C410 1.612 . S
C1649 C434 1.348 . S
C1654 C872 1.306 1_556 S
C1664 C1272 1.912 . S
C1659 C472 1.946 . S
C1669 C507 0.995 . S
C1674 C945 0.989 . S
C1679 C543 1.737 . S
C1684 C1255 1.690 . S
C1694 C1017 1.747 . S
C1689 C470 1.798 . S
C1704 C1183 0.975 . S
C1699 C518 0.960 . S
C1714 C1068 1.701 . S
C1709 C554 1.637 . S
C1724 C1323 1.192 . S
C1719 C436 1.232 . S
C1734 C864 1.559 . S
C1729 C580 1.620 . S
C1739 C615 1.324 . S
C1744 C1276 1.293 . S
C1754 C961 1.794 . S
C1749 C652 1.854 . S
C1759 C687 1.168 . S
C1764 C1251 1.117 . S
C1769 C579 1.442 1_565 S
C1774 C1013 1.383 . S
C1779 C616 1.809 . S
C1784 C1199 1.760 . S
C1794 C1072 1.370 . S
C1789 C651 1.415 . S
C1799 C688 0.910 . S
C1804 C1319 0.890 . S
C1809 C686 0.925 . S
C1814 C868 0.928 . S
C1819 C734 1.715 1_554 S
C1824 C1165 1.737 . S
C1829 C758 1.595 . S
C1834 C1051 1.593 . S
C1839 C806 0.633 . S
C1844 C1212 0.612 . S
C1854 C1335 1.488 . S
C1849 C578 1.537 . S
C1864 C949 1.694 . S
C1859 C614 1.685 . S
C1874 C995 1.468 . S
C1869 C770 1.454 . S
C1884 C906 1.674 . S
C1879 C842 1.644 . S
C1889 C74 1.295 . S
C1894 C1357 1.255 . S
C1904 C1301 1.879 . S
C1899 C111 1.888 . S
C1914 C1378 1.015 . S
C1909 C14 1.003 . S
C1919 C40 1.709 . S
C1924 C1246 1.651 . S
C1929 C110 1.768 . S
C1934 C1144 1.720 1_556 S
C1944 C1174 0.945 . S
C1939 C4 0.950 . S
C1954 C1233 1.675 . S
C1949 C50 1.644 . S
C1964 C1314 1.190 . S
C1959 C75 1.178 . S
C1974 C1369 1.516 . S
C1969 C399 1.550 . S
C1979 C292 1.285 1_556 S
C1984 C1285 1.276 . S
C1989 C327 1.804 . S
C1994 C1374 1.779 . S
C2004 C1242 1.124 . S
C1999 C364 1.141 . S
C2014 C1140 1.357 . S
C2009 C400 1.384 . S
C2019 C291 1.737 . S
C2024 C1170 1.717 . S
C2034 C1217 1.353 . S
C2029 C328 1.381 . S
C2039 C363 0.887 . S
C2044 C1310 0.878 . S
C2054 C1353 0.919 . S
C2049 C362 0.903 . S
C2064 C1000 1.710 . S
C2059 C194 1.648 . S
C2074 C1042 1.569 . S
C2069 C218 1.560 . S
C2079 C266 0.540 . S
C2084 C1085 0.564 . S
C2094 C1306 1.466 . S
C2089 C398 1.506 . S
C2099 C290 1.655 . S
C2104 C1382 1.678 . S
C2114 C966 1.454 . S
C2109 C230 1.374 . S
C2124 C915 1.655 . S
C2119 C158 1.594 . S
C2129 C508 1.336 . S
C2134 C1348 1.303 . S
C2144 C898 1.916 . S
C2139 C544 1.950 . S
C2154 C1387 1.023 . S
C2149 C446 1.000 . S
C2159 C471 1.741 . S
C2164 C983 1.696 . S
C2169 C542 1.792 . S
C2174 C1153 1.740 . S
C2179 C435 0.928 . S
C2184 C1047 0.920 . S
C2189 C482 1.629 . S
C2194 C1204 1.695 . S
C2199 C506 1.271 . S
C2204 C1119 1.245 . S
C2214 C1340 1.542 . S
C2209 C832 1.613 . S
C2219 C723 1.317 . S
C2224 C902 1.287 . S
C2234 C1403 1.810 . S
C2229 C760 1.866 . S
C2239 C795 1.168 . S
C2244 C979 1.118 . S
C2249 C831 1.440 . S
C2254 C1149 1.381 . S
C2264 C1063 1.740 . S
C2259 C724 1.793 . S
C2269 C759 1.417 . S
C2274 C1208 1.373 . S
C2284 C1115 0.902 . S
C2279 C796 0.918 . S
C2294 C1344 0.917 . S
C2289 C794 0.917 . S
C2304 C1029 1.750 . S
C2299 C626 1.728 . S
C2309 C650 1.595 . S
C2314 C1187 1.596 . S
C2324 C1076 0.599 . S
C2319 C698 0.623 . S
C2334 C1131 1.492 . S
C2329 C830 1.534 . S
C2339 C722 1.690 . S
C2344 C1391 1.696 . S
C2354 C1267 1.459 . S
C2349 C662 1.445 . S
C2364 C1280 1.690 . S
C2359 C590 1.660 . S
