# Generated by pormake.
# Topology pts, (4,4)-cn, num edge types: 1
# Building blocks:
#     Node 0, Type 0, BuildingBlock: ESEHIV_clean_sbu_0, # of connection points: 4
#     Node 1, Type 0, BuildingBlock: ESEHIV_clean_sbu_0, # of connection points: 4
#     Node 2, Type 1, BuildingBlock: AZAVOO_clean_sbu_0, # of connection points: 4
#     Node 3, Type 1, BuildingBlock: AZAVOO_clean_sbu_0, # of connection points: 4
#     Edge 4, Type (0, 1), BuildingBlock: TEMPAE_clean_linker_10, # of connection points: 2
#     Edge 5, Type (0, 1), BuildingBlock: TEMPAE_clean_linker_10, # of connection points: 2
#     Edge 6, Type (0, 1), BuildingBlock: TEMPAE_clean_linker_10, # of connection points: 2
#     Edge 7, Type (0, 1), BuildingBlock: TEMPAE_clean_linker_10, # of connection points: 2
#     Edge 8, Type (0, 1), BuildingBlock: TEMPAE_clean_linker_10, # of connection points: 2
#     Edge 9, Type (0, 1), BuildingBlock: TEMPAE_clean_linker_10, # of connection points: 2
#     Edge 10, Type (0, 1), BuildingBlock: TEMPAE_clean_linker_10, # of connection points: 2
#     Edge 11, Type (0, 1), BuildingBlock: TEMPAE_clean_linker_10, # of connection points: 2
# Relax obj value: 0.001
# Max RMSD: 0.095
# Mean RMSD: 0.062
data_MOF--net-pts--node1-ESEHIV_clean_sbu_0--node2-AZAVOO_clean_sbu_0--edge1-TEMPAE_clean_linker_10
_symmetry_space_group_name_H-M    P1
_symmetry_Int_Tables_number       1
_symmetry_cell_setting            triclinic
loop_
_symmetry_equiv_pos_as_xyz
'x, y, z'
_cell_length_a     24.76736
_cell_length_b     25.755304
_cell_length_c     38.001153
_cell_angle_alpha  93.500217
_cell_angle_beta   99.955893
_cell_angle_gamma 89.541918
loop_
_atom_site_label
_atom_site_type_symbol
_atom_site_fract_x
_atom_site_fract_y
_atom_site_fract_z
_atom_type_partial_charge
Cu0 Cu 0.55615 0.02707 0.02119 0.0
N1 N 0.60211 0.98975 0.9946 0.0
N2 N 0.66864 0.98326 0.96149 0.0
C3 C 0.63323 0.01503 0.97549 0.0
C4 C 0.6588 0.93551 0.97196 0.0
C5 C 0.61786 0.93968 0.99263 0.0
O6 O 0.60776 0.06633 0.05776 0.0
C7 C 0.47541 0.02718 0.9652 0.0
O8 O 0.48927 0.97823 0.96908 0.0
H9 H 0.63026 0.05652 0.97253 0.0
H10 H 0.60237 0.90886 1.00623 0.0
N11 N 0.51228 0.98981 0.04638 0.0
N12 N 0.45013 0.9824 0.08218 0.0
C13 C 0.47904 0.01506 0.06607 0.0
C14 C 0.50415 0.93888 0.0497 0.0
C15 C 0.46577 0.93419 0.07186 0.0
C16 C 0.63532 0.03438 0.07824 0.0
O17 O 0.62366 0.98462 0.07222 0.0
H18 H 0.47582 0.05701 0.06793 0.0
H19 H 0.5245 0.90751 0.03706 0.0
O20 O 0.5027 0.06172 0.98644 0.0
H21 H 0.68091 0.90044 0.96629 0.0
H22 H 0.45124 0.89809 0.08005 0.0
Cu23 Cu 0.12815 0.57122 0.53876 0.0
N24 N 0.16644 0.53156 0.57446 0.0
N25 N 0.17384 0.47551 0.61773 0.0
C26 C 0.13963 0.50348 0.59464 0.0
C27 C 0.22463 0.48646 0.61169 0.0
C28 C 0.21994 0.52122 0.58496 0.0
O29 O 0.09337 0.52128 0.50151 0.0
C30 C 0.10955 0.64421 0.58838 0.0
O31 O 0.16286 0.63709 0.59498 0.0
H32 H 0.09536 0.50206 0.59115 0.0
H33 H 0.25302 0.53655 0.57349 0.0
N34 N 0.16953 0.61522 0.51665 0.0
N35 N 0.18111 0.6755 0.47868 0.0
C36 C 0.14539 0.64396 0.49005 0.0
C37 C 0.2228 0.62888 0.5227 0.0
C38 C 0.23009 0.66618 0.49922 0.0
C39 C 0.12895 0.49472 0.4877 0.0
O40 O 0.18107 0.50557 0.49897 0.0
H41 H 0.10168 0.64295 0.48029 0.0
H42 H 0.25383 0.6139 0.5431 0.0
O43 O 0.08129 0.61719 0.56251 0.0
H44 H 0.2624 0.47 0.62512 0.0
H45 H 0.26835 0.68518 0.49769 0.0
Mg46 Mg 0.10522 0.05931 0.29639 0.0
O47 O 0.01971 0.05928 0.26054 0.0
O48 O 0.96028 0.05207 0.29814 0.0
Mg49 Mg 1.00527 0.03707 0.35442 0.0
C50 C 0.97069 0.05875 0.26696 0.0
C51 C 0.1979 0.06667 0.25898 0.0
O52 O 0.21335 0.04674 0.29016 0.0
O53 O 0.08877 0.14178 0.31947 0.0
O54 O 0.03507 0.12142 0.35843 0.0
O55 O 0.11452 0.97304 0.28979 0.0
O56 O 0.07845 0.01268 0.33305 0.0
C57 C 0.06221 0.15459 0.3448 0.0
C58 C 0.09343 0.96985 0.3184 0.0
O59 O 0.14915 0.08404 0.2518 0.0
Mg60 Mg 1.00434 0.0606 0.75003 0.0
O61 O 0.09148 0.05545 0.78317 0.0
O62 O 0.14815 0.04563 0.74338 0.0
Mg63 Mg 0.09889 0.03649 0.68653 0.0
C64 C 0.13983 0.05196 0.77562 0.0
C65 C 0.91533 0.08256 0.79284 0.0
O66 O 0.89117 0.0751 0.7593 0.0
O67 O 0.02582 0.14323 0.73615 0.0
O68 O 0.07534 0.12197 0.69319 0.0
O69 O 0.99114 0.97439 0.74798 0.0
O70 O 0.02669 0.01443 0.70783 0.0
C71 C 0.05177 0.15559 0.71147 0.0
C72 C 1.01212 0.97147 0.71906 0.0
O73 O 0.96741 0.0855 0.79949 0.0
C74 C 0.37107 0.96192 0.11122 0.0
C75 C 0.41153 0.9969 0.10567 0.0
C76 C 0.33396 0.97567 0.13437 0.0
C77 C 0.33707 0.02572 0.15233 0.0
C78 C 0.37701 0.06153 0.14633 0.0
C79 C 0.41386 0.04662 0.12337 0.0
C80 C 0.29217 0.9362 0.14025 0.0
C81 C 0.38186 0.11524 0.16495 0.0
C82 C 0.21644 0.0731 0.19613 0.0
C83 C 0.23445 0.06127 0.2318 0.0
C84 C 0.2496 0.0624 0.16992 0.0
C85 C 0.30171 0.03912 0.17963 0.0
C86 C 0.32047 0.02832 0.21574 0.0
C87 C 0.28684 0.03972 0.24129 0.0
C88 C 0.22853 0.07511 0.13175 0.0
C89 C 0.37572 0.00358 0.22733 0.0
H90 H 0.36827 0.92375 0.09744 0.0
H91 H 0.44532 0.07385 0.11999 0.0
H92 H 0.3 0.92601 0.16864 0.0
H93 H 0.25036 0.95293 0.13482 0.0
H94 H 0.29318 0.89996 0.12296 0.0
H95 H 0.41198 0.13998 0.15514 0.0
H96 H 0.34148 0.13497 0.16093 0.0
H97 H 0.3949 0.11213 0.19418 0.0
H98 H 0.17603 0.08961 0.18852 0.0
H99 H 0.30136 0.03049 0.26876 0.0
H100 H 0.22433 0.03885 0.11417 0.0
H101 H 0.25826 0.10046 0.12216 0.0
H102 H 0.18815 0.09497 0.12877 0.0
H103 H 0.37747 0.96508 0.21278 0.0
H104 H 0.38447 0.9981 0.25654 0.0
H105 H 0.40867 0.028 0.22051 0.0
C106 C 0.19057 0.39399 0.64916 0.0
C107 C 0.15768 0.43748 0.64039 0.0
C108 C 0.17136 0.35296 0.66643 0.0
C109 C 0.11783 0.35528 0.67491 0.0
C110 C 0.086 0.40062 0.66845 0.0
C111 C 0.10643 0.44125 0.65148 0.0
C112 C 0.20696 0.30555 0.67333 0.0
C113 C 0.02886 0.40481 0.67716 0.0
C114 C 0.05067 0.22284 0.66777 0.0
C115 C 0.05767 0.21035 0.70361 0.0
C116 C 0.06731 0.27114 0.65836 0.0
C117 C 0.09264 0.30758 0.68548 0.0
C118 C 0.09711 0.2963 0.72194 0.0
C119 C 0.07916 0.24768 0.73064 0.0
C120 C 0.06061 0.28185 0.61918 0.0
C121 C 0.12408 0.33402 0.75158 0.0
H122 H 0.23015 0.39057 0.64083 0.0
H123 H 0.08132 0.47534 0.64582 0.0
H124 H 0.2075 0.2935 0.70093 0.0
H125 H 0.1898 0.2727 0.65458 0.0
H126 H 0.24979 0.31249 0.66966 0.0
H127 H 1.01269 0.4451 0.67537 0.0
H128 H 1.00091 0.37874 0.65804 0.0
H129 H 0.02809 0.39209 0.70443 0.0
H130 H 0.03408 0.19379 0.64691 0.0
H131 H 0.08532 0.23761 0.75834 0.0
H132 H 0.10151 0.28365 0.61114 0.0
H133 H 0.04054 0.32004 0.61437 0.0
H134 H 0.03588 0.25139 0.60172 0.0
H135 H 0.16892 0.33456 0.75174 0.0
H136 H 0.11703 0.32313 0.77827 0.0
H137 H 0.10872 0.37408 0.74716 0.0
C138 C 0.70166 0.01285 0.13189 0.0
C139 C 0.68195 0.04961 0.107 0.0
C140 C 0.7496 0.02151 0.1569 0.0
C141 C 0.77876 0.06863 0.15766 0.0
C142 C 0.75813 0.10709 0.13365 0.0
C143 C 0.70984 0.09706 0.10839 0.0
C144 C 0.76969 0.97938 0.18201 0.0
C145 C 0.78773 0.15813 0.13409 0.0
C146 C 0.87498 0.0887 0.24615 0.0
C147 C 0.92393 0.06745 0.23782 0.0
C148 C 0.82864 0.0939 0.21957 0.0
C149 C 0.83077 0.07629 0.18383 0.0
C150 C 0.88095 0.05739 0.17491 0.0
C151 C 0.92715 0.05367 0.20199 0.0
C152 C 0.77642 0.11524 0.23019 0.0
C153 C 0.88483 0.03762 0.13722 0.0
H154 H 0.68011 0.97627 0.13139 0.0
H155 H 0.69496 0.12553 0.08917 0.0
H156 H 0.81138 0.96676 0.17827 0.0
H157 H 0.77255 0.99465 0.2102 0.0
H158 H 0.74236 0.94475 0.17767 0.0
H159 H 0.76383 0.18579 0.11618 0.0
H160 H 0.79635 0.17644 0.16169 0.0
H161 H 0.82777 0.15115 0.12534 0.0
H162 H 0.87253 0.10057 0.2737 0.0
H163 H 0.96497 0.0376 0.19535 0.0
H164 H 0.74705 0.08291 0.23011 0.0
H165 H 0.75674 0.14301 0.21072 0.0
H166 H 0.78384 0.13523 0.25734 0.0
H167 H 0.86174 1.00051 0.13079 0.0
H168 H 0.92792 0.03058 0.13366 0.0
H169 H 0.866 0.06568 0.11771 0.0
C170 C 0.03313 0.70561 0.59824 0.0
C171 C 0.08563 0.68563 0.60961 0.0
C172 C 0.01431 0.74954 0.61647 0.0
C173 C 0.049 0.77377 0.64649 0.0
C174 C 0.10076 0.75194 0.65905 0.0
C175 C 0.11826 0.70815 0.64058 0.0
C176 C 0.95849 0.77138 0.60267 0.0
C177 C 0.1391 0.77646 0.69092 0.0
C178 C 0.04272 0.91884 0.66864 0.0
C179 C 0.01954 0.92083 0.69984 0.0
C180 C 0.05055 0.87127 0.65026 0.0
C181 C 0.0341 0.82448 0.66308 0.0
C182 C 1.0088 0.82628 0.69381 0.0
C183 C 1.00209 0.87445 0.71196 0.0
C184 C 0.07821 0.87101 0.61779 0.0
C185 C 0.9902 0.77723 0.70804 0.0
H186 H 1.00767 0.68825 0.57442 0.0
H187 H 0.15861 0.69251 0.6499 0.0
H188 H 0.93554 0.77967 0.62499 0.0
H189 H 0.96325 0.80872 0.59043 0.0
H190 H 0.93385 0.74444 0.58223 0.0
H191 H 0.17643 0.75271 0.69865 0.0
H192 H 0.15198 0.81549 0.68457 0.0
H193 H 0.11791 0.78193 0.71431 0.0
H194 H 0.05533 0.95444 0.65863 0.0
H195 H 0.98342 0.87569 0.73577 0.0
H196 H 0.05274 0.84953 0.59468 0.0
H197 H 0.11811 0.85057 0.62335 0.0
H198 H 0.08573 0.9109 0.6101 0.0
H199 H 0.96488 0.75314 0.68619 0.0
H200 H 0.96605 0.78562 0.72978 0.0
H201 H 0.02641 0.7537 0.71866 0.0
C202 C 0.40587 0.0893 0.93384 0.0
C203 C 0.42697 0.0389 0.93791 0.0
C204 C 0.35834 0.09827 0.90854 0.0
C205 C 0.33147 0.05583 0.88713 0.0
C206 C 0.35288 0.00511 0.89118 0.0
C207 C 0.40018 0.99741 0.91626 0.0
C208 C 0.3368 0.15294 0.9047 0.0
C209 C 0.32577 0.95863 0.869 0.0
C210 C 0.18259 0.0544 0.84084 0.0
C211 C 0.18819 0.0572 0.80487 0.0
C212 C 0.2287 0.05719 0.86833 0.0
C213 C 0.28163 0.06338 0.8597 0.0
C214 C 0.28717 0.0689 0.82367 0.0
C215 C 0.24057 0.06546 0.79675 0.0
C216 C 0.22105 0.05073 0.90637 0.0
C217 C 0.34272 0.07582 0.81327 0.0
H218 H 0.42619 0.12152 0.95049 0.0
H219 H 0.41593 0.95821 0.91898 0.0
H220 H 0.33542 0.16406 0.87681 0.0
H221 H 0.29424 0.15498 0.91016 0.0
H222 H 0.3624 0.18172 0.92318 0.0
H223 H 0.34706 0.92157 0.87599 0.0
H224 H 0.28258 0.95531 0.87288 0.0
H225 H 0.3252 0.96374 0.84017 0.0
H226 H 0.14234 0.04847 0.84747 0.0
H227 H 0.24541 0.06865 0.76916 0.0
H228 H 0.24418 0.0811 0.92475 0.0
H229 H 0.23753 0.01244 0.91493 0.0
H230 H 0.17721 0.05274 0.90931 0.0
H231 H 0.36656 0.10645 0.83102 0.0
H232 H 0.33951 0.08636 0.78507 0.0
H233 H 0.36621 0.03905 0.81653 0.0
C234 C 0.15456 0.4126 0.45714 0.0
C235 C 0.11415 0.44962 0.46187 0.0
C236 C 0.14239 0.36795 0.43438 0.0
C237 C 0.08857 0.36037 0.41512 0.0
C238 C 0.04792 0.39855 0.41857 0.0
C239 C 0.06102 0.44257 0.44235 0.0
C240 C 0.18671 0.32774 0.43227 0.0
C241 C 0.99043 0.39228 0.39781 0.0
C242 C 0.08031 0.2505 0.34277 0.0
C243 C 0.06446 0.20874 0.36074 0.0
C244 C 0.08469 0.30118 0.35918 0.0
C245 C 0.07436 0.30981 0.39462 0.0
C246 C 0.05685 0.26803 0.41238 0.0
C247 C 0.05163 0.2183 0.39514 0.0
C248 C 0.10218 0.34509 0.3391 0.0
C249 C 0.0467 0.27509 0.45049 0.0
H250 H 0.19573 0.4176 0.4722 0.0
H251 H 0.02981 0.47133 0.44564 0.0
H252 H 0.17485 0.29089 0.44262 0.0
H253 H 0.19162 0.31914 0.40405 0.0
H254 H 0.22698 0.34051 0.44796 0.0
H255 H 0.96575 0.42819 0.39991 0.0
H256 H 0.99148 0.38199 0.36914 0.0
H257 H 0.9695 0.35999 0.4081 0.0
H258 H 0.08966 0.24356 0.31605 0.0
H259 H 0.03945 0.18634 0.40936 0.0
H260 H 0.14477 0.35694 0.35084 0.0
H261 H 0.0756 0.37955 0.34161 0.0
H262 H 0.10064 0.3338 0.31026 0.0
H263 H 0.08572 0.28548 0.46863 0.0
H264 H 0.02998 0.23938 0.45967 0.0
H265 H 0.0176 0.30743 0.45313 0.0
C266 C 0.72904 0.0499 0.94424 0.0
C267 C 0.70932 0.99847 0.94094 0.0
C268 C 0.76563 0.06648 0.92282 0.0
C269 C 0.78365 0.03073 0.89759 0.0
C270 C 0.76571 0.97827 0.89503 0.0
C271 C 0.7287 0.96281 0.91666 0.0
C272 C 0.78372 0.12271 0.92645 0.0
C273 C 0.78431 0.93882 0.86863 0.0
C274 C 0.82546 0.07968 0.81387 0.0
C275 C 0.88283 0.07677 0.82172 0.0
C276 C 0.79292 0.06619 0.83872 0.0
C277 C 0.81825 0.04892 0.87226 0.0
C278 C 0.87624 0.04786 0.88097 0.0
C279 C 0.9079 0.06206 0.85565 0.0
C280 C 0.73129 0.06879 0.82855 0.0
C281 C 0.90479 0.02964 0.91643 0.0
H282 H 0.71569 0.07755 0.96354 0.0
H283 H 0.71374 0.92313 0.91378 0.0
H284 H 0.8291 0.12529 0.9311 0.0
H285 H 0.76833 0.14161 0.90119 0.0
H286 H 0.76847 0.14492 0.94872 0.0
H287 H 0.76987 0.89889 0.8717 0.0
H288 H 0.76844 0.94966 0.84093 0.0
H289 H 0.82971 0.93856 0.87204 0.0
H290 H 0.80577 0.0912 0.78778 0.0
H291 H 0.95218 0.05931 0.86184 0.0
H292 H 0.71388 0.09265 0.84916 0.0
H293 H 0.71359 0.02914 0.82735 0.0
H294 H 0.71808 0.08559 0.8022 0.0
H295 H 0.88957 0.05144 0.93881 0.0
H296 H 0.95 0.03445 0.92011 0.0
H297 H 0.89539 0.98792 0.91817 0.0
C298 C 0.12036 0.70761 0.42584 0.0
C299 C 0.16774 0.71356 0.45211 0.0
C300 C 0.10406 0.74617 0.40167 0.0
C301 C 0.13628 0.7916 0.40339 0.0
C302 C 0.18512 0.79718 0.42898 0.0
C303 C 0.20016 0.7582 0.45309 0.0
C304 C 0.05174 0.73875 0.37479 0.0
C305 C 0.2209 0.84491 0.43141 0.0
C306 C 0.12407 0.87773 0.32475 0.0
C307 C 0.09528 0.92055 0.33674 0.0
C308 C 0.13612 0.83459 0.3456 0.0
C309 C 0.11844 0.83402 0.37905 0.0
C310 C 0.08633 0.87558 0.39021 0.0
C311 C 0.07533 0.91847 0.36899 0.0
C312 C 0.17045 0.79106 0.33274 0.0
C313 C 0.06585 0.87597 0.42541 0.0
H314 H 0.09561 0.67283 0.42424 0.0
H315 H 0.23653 0.76347 0.47334 0.0
H316 H 0.02225 0.76999 0.3795 0.0
H317 H 0.06016 0.74178 0.34725 0.0
H318 H 0.03206 0.70053 0.37631 0.0
H319 H 0.25877 0.84228 0.45169 0.0
H320 H 0.23272 0.85062 0.40504 0.0
H321 H 0.1977 0.87988 0.43854 0.0
H322 H 0.13977 0.879 0.2999 0.0
H323 H 0.05302 0.9513 0.37845 0.0
H324 H 0.15092 0.75285 0.33425 0.0
H325 H 0.21114 0.79087 0.35038 0.0
H326 H 0.17678 0.79509 0.3048 0.0
H327 H 0.04437 0.83896 0.42757 0.0
H328 H 0.03745 0.90882 0.42873 0.0
H329 H 0.10114 0.87923 0.44782 0.0
loop_
_geom_bond_atom_site_label_1
_geom_bond_atom_site_label_2
_geom_bond_distance
_geom_bond_site_symmetry_2
_ccdc_geom_bond_type
Cu0 N1 1.999 1_554 S
Cu0 O6 1.974 . S
Cu0 N11 1.985 . S
Cu0 O20 1.959 1_554 S
N1 Cu0 1.999 1_556 S
N1 C3 1.263 . S
N1 C5 1.389 . S
N2 C3 1.358 . S
N2 C4 1.400 . S
C3 N1 1.263 . S
C3 N2 1.358 . S
C3 H9 0.930 . S
C4 N2 1.400 . S
C4 C5 1.351 . S
C4 H21 0.930 . S
C5 N1 1.389 . S
C5 C4 1.351 . S
C5 H10 0.930 . S
O6 Cu0 1.974 . S
O6 C16 1.282 . S
C7 O8 1.261 1_545 S
C7 O20 1.251 . S
O8 C7 1.261 1_565 S
H9 C3 0.930 . S
H10 C5 0.930 . S
N11 Cu0 1.985 . S
N11 C13 1.335 . S
N11 C14 1.390 . S
N12 C13 1.345 . S
N12 C15 1.336 . S
C13 N11 1.335 . S
C13 N12 1.345 . S
C13 H18 0.930 . S
C14 N11 1.390 . S
C14 C15 1.346 . S
C14 H19 0.930 . S
C15 N12 1.336 . S
C15 C14 1.346 . S
C15 H22 0.929 . S
C16 O6 1.282 . S
C16 O17 1.216 1_545 S
O17 C16 1.216 1_565 S
H18 C13 0.930 . S
H19 C14 0.930 . S
O20 Cu0 1.959 1_556 S
O20 C7 1.251 . S
H21 C4 0.930 . S
H22 C15 0.929 . S
Cu23 N24 1.999 . S
Cu23 O29 1.974 . S
Cu23 N34 1.985 . S
Cu23 O43 1.959 . S
N24 Cu23 1.999 . S
N24 C26 1.263 . S
N24 C28 1.382 1_455 S
N25 C26 1.358 . S
N25 C27 1.400 . S
C26 N24 1.263 . S
C26 N25 1.358 . S
C26 H32 0.930 . S
C27 N25 1.400 . S
C27 C28 1.351 1_455 S
C27 H44 0.930 1_455 S
C28 N24 1.382 1_655 S
C28 C27 1.351 1_655 S
C28 H33 0.936 . S
O29 Cu23 1.974 . S
O29 C39 1.282 . S
C30 O31 1.261 . S
C30 O43 1.251 . S
O31 C30 1.261 . S
H32 C26 0.930 . S
H33 C28 0.936 . S
N34 Cu23 1.985 . S
N34 C36 1.335 . S
N34 C37 1.390 . S
N35 C36 1.345 . S
N35 C38 1.336 . S
C36 N34 1.335 . S
C36 N35 1.345 . S
C36 H41 0.930 . S
C37 N34 1.390 . S
C37 C38 1.346 . S
C37 H42 0.930 . S
C38 N35 1.336 . S
C38 C37 1.346 . S
C38 H45 0.929 . S
C39 O29 1.282 . S
C39 O40 1.216 . S
O40 C39 1.216 . S
H41 C36 0.930 . S
H42 C37 0.930 . S
O43 Cu23 1.959 . S
O43 C30 1.251 . S
H44 C27 0.930 1_655 S
H45 C38 0.929 . S
Mg46 O47 2.028 . S
Mg46 O53 1.986 . S
Mg46 O55 2.114 1_545 S
Mg46 O56 2.251 . S
Mg46 O59 2.010 . S
O47 Mg46 2.028 . S
O47 C50 1.250 1_455 S
O48 Mg49 2.028 . S
O48 C50 1.248 . S
Mg49 O48 2.028 . S
Mg49 O54 2.032 1_655 S
Mg49 O56 2.079 1_655 S
C50 O47 1.250 1_655 S
C50 O48 1.248 . S
C51 O52 1.264 . S
C51 O59 1.249 . S
O52 C51 1.264 . S
O53 Mg46 1.986 . S
O53 C57 1.246 . S
O54 Mg49 2.032 1_455 S
O54 C57 1.259 . S
O55 Mg46 2.114 1_565 S
O55 C58 1.252 . S
O56 Mg46 2.251 . S
O56 Mg49 2.079 1_455 S
O56 C58 1.273 1_545 S
C57 O53 1.246 . S
C57 O54 1.259 . S
C58 O55 1.252 . S
C58 O56 1.273 1_565 S
O59 Mg46 2.010 . S
O59 C51 1.249 . S
Mg60 O61 2.028 . S
Mg60 O67 1.986 . S
Mg60 O69 2.114 1_545 S
Mg60 O70 2.251 . S
Mg60 O73 2.010 1_455 S
O61 Mg60 2.028 . S
O61 C64 1.250 . S
O62 Mg63 2.028 . S
O62 C64 1.248 . S
Mg63 O62 2.028 . S
Mg63 O68 2.032 . S
Mg63 O70 2.079 . S
C64 O61 1.250 . S
C64 O62 1.248 . S
C65 O66 1.264 . S
C65 O73 1.249 . S
O66 C65 1.264 . S
O67 Mg60 1.986 . S
O67 C71 1.246 . S
O68 Mg63 2.032 . S
O68 C71 1.259 . S
O69 Mg60 2.114 1_565 S
O69 C72 1.252 . S
O70 Mg60 2.251 . S
O70 Mg63 2.079 . S
O70 C72 1.273 1_545 S
C71 O67 1.246 . S
C71 O68 1.259 . S
C72 O69 1.252 . S
C72 O70 1.273 1_565 S
O73 Mg60 2.010 1_655 S
O73 C65 1.249 . S
C74 C75 1.391 . S
C74 C76 1.394 . S
C74 H90 0.931 . S
C75 C74 1.391 . S
C75 C79 1.376 . S
C76 C74 1.394 . S
C76 C77 1.369 . S
C76 C80 1.531 . S
C77 C76 1.369 . S
C77 C78 1.410 . S
C77 C85 1.503 . S
C78 C77 1.410 . S
C78 C79 1.392 . S
C78 C81 1.511 . S
C79 C75 1.376 . S
C79 C78 1.392 . S
C79 H91 0.929 . S
C80 C76 1.531 . S
C80 H92 0.960 1_545 S
C80 H93 0.962 . S
C80 H94 0.960 1_545 S
C81 C78 1.511 . S
C81 H95 0.961 . S
C81 H96 0.961 . S
C81 H97 0.961 . S
C82 C83 1.370 . S
C82 C84 1.363 . S
C82 H98 0.931 . S
C83 C82 1.370 . S
C83 C87 1.408 . S
C84 C82 1.363 . S
C84 C85 1.370 . S
C84 C88 1.524 . S
C85 C77 1.503 . S
C85 C84 1.370 . S
C85 C86 1.403 . S
C86 C85 1.403 . S
C86 C87 1.404 . S
C86 C89 1.539 1_545 S
C87 C83 1.408 . S
C87 C86 1.404 . S
C87 H99 0.930 1_545 S
C88 C84 1.524 . S
C88 H100 0.956 . S
C88 H101 0.961 . S
C88 H102 0.961 . S
C89 C86 1.539 1_565 S
C89 H103 0.958 . S
C89 H104 0.961 . S
C89 H105 0.960 . S
H90 C74 0.931 . S
H91 C79 0.929 . S
H92 C80 0.960 1_565 S
H93 C80 0.962 . S
H94 C80 0.960 1_565 S
H95 C81 0.961 . S
H96 C81 0.961 . S
H97 C81 0.961 . S
H98 C82 0.931 . S
H99 C87 0.930 1_565 S
H100 C88 0.956 . S
H101 C88 0.961 . S
H102 C88 0.961 . S
H103 C89 0.958 . S
H104 C89 0.961 . S
H105 C89 0.960 . S
C106 C107 1.391 . S
C106 C108 1.394 . S
C106 H122 0.931 . S
C107 C106 1.391 . S
C107 C111 1.376 . S
C108 C106 1.394 . S
C108 C109 1.369 . S
C108 C112 1.531 . S
C109 C108 1.369 . S
C109 C110 1.410 . S
C109 C117 1.503 . S
C110 C109 1.410 . S
C110 C111 1.392 . S
C110 C113 1.511 1_455 S
C111 C107 1.376 . S
C111 C110 1.392 . S
C111 H123 0.929 1_455 S
C112 C108 1.531 . S
C112 H124 0.960 . S
C112 H125 0.962 . S
C112 H126 0.960 . S
C113 C110 1.511 1_655 S
C113 H127 0.961 . S
C113 H128 0.961 . S
C113 H129 0.961 . S
C114 C115 1.370 . S
C114 C116 1.363 . S
C114 H130 0.931 . S
C115 C114 1.370 . S
C115 C119 1.408 . S
C116 C114 1.363 . S
C116 C117 1.370 . S
C116 C120 1.524 . S
C117 C109 1.503 . S
C117 C116 1.370 . S
C117 C118 1.403 . S
C118 C117 1.403 . S
C118 C119 1.404 . S
C118 C121 1.539 . S
C119 C115 1.408 . S
C119 C118 1.404 . S
C119 H131 0.930 . S
C120 C116 1.524 . S
C120 H132 0.956 . S
C120 H133 0.961 1_455 S
C120 H134 0.961 1_455 S
C121 C118 1.539 . S
C121 H135 0.958 . S
C121 H136 0.961 . S
C121 H137 0.960 . S
H122 C106 0.931 . S
H123 C111 0.929 1_655 S
H124 C112 0.960 . S
H125 C112 0.962 . S
H126 C112 0.960 . S
H127 C113 0.961 . S
H128 C113 0.961 . S
H129 C113 0.961 . S
H130 C114 0.931 . S
H131 C119 0.930 . S
H132 C120 0.956 . S
H133 C120 0.961 1_655 S
H134 C120 0.961 1_655 S
H135 C121 0.958 . S
H136 C121 0.961 . S
H137 C121 0.960 . S
C138 C139 1.391 . S
C138 C140 1.394 . S
C138 H154 0.931 . S
C139 C138 1.391 . S
C139 C143 1.376 . S
C140 C138 1.394 . S
C140 C141 1.369 . S
C140 C144 1.531 . S
C141 C140 1.369 . S
C141 C142 1.410 . S
C141 C149 1.503 . S
C142 C141 1.410 . S
C142 C143 1.392 . S
C142 C145 1.511 . S
C143 C139 1.376 . S
C143 C142 1.392 . S
C143 H155 0.929 . S
C144 C140 1.531 . S
C144 H156 0.960 . S
C144 H157 0.962 . S
C144 H158 0.961 . S
C145 C142 1.511 . S
C145 H159 0.961 . S
C145 H160 0.961 . S
C145 H161 0.961 . S
C146 C147 1.370 . S
C146 C148 1.363 . S
C146 H162 0.931 . S
C147 C146 1.370 . S
C147 C151 1.408 . S
C148 C146 1.363 . S
C148 C149 1.370 . S
C148 C152 1.524 . S
C149 C141 1.503 . S
C149 C148 1.370 . S
C149 C150 1.409 . S
C150 C149 1.409 . S
C150 C151 1.405 . S
C150 C153 1.532 1_545 S
C151 C147 1.408 . S
C151 C150 1.405 . S
C151 H163 0.930 1_545 S
C152 C148 1.524 . S
C152 H164 0.956 . S
C152 H165 0.961 . S
C152 H166 0.961 . S
C153 C150 1.532 1_565 S
C153 H167 0.958 . S
C153 H168 0.961 . S
C153 H169 0.960 . S
H154 C138 0.931 . S
H155 C143 0.929 . S
H156 C144 0.960 . S
H157 C144 0.962 . S
H158 C144 0.961 . S
H159 C145 0.961 . S
H160 C145 0.961 . S
H161 C145 0.961 . S
H162 C146 0.931 . S
H163 C151 0.930 1_565 S
H164 C152 0.956 . S
H165 C152 0.961 . S
H166 C152 0.961 . S
H167 C153 0.958 . S
H168 C153 0.961 . S
H169 C153 0.960 . S
C170 C171 1.391 . S
C170 C172 1.394 . S
C170 H186 0.931 . S
C171 C170 1.391 . S
C171 C175 1.376 . S
C172 C170 1.394 . S
C172 C173 1.369 . S
C172 C176 1.531 . S
C173 C172 1.369 . S
C173 C174 1.410 . S
C173 C181 1.503 . S
C174 C173 1.410 . S
C174 C175 1.392 . S
C174 C177 1.511 . S
C175 C171 1.376 . S
C175 C174 1.392 . S
C175 H187 0.929 . S
C176 C172 1.531 . S
C176 H188 0.960 . S
C176 H189 0.962 1_455 S
C176 H190 0.960 1_455 S
C177 C174 1.511 . S
C177 H191 0.961 . S
C177 H192 0.961 . S
C177 H193 0.961 . S
C178 C179 1.370 . S
C178 C180 1.363 . S
C178 H194 0.931 . S
C179 C178 1.370 . S
C179 C183 1.408 . S
C180 C178 1.363 . S
C180 C181 1.370 . S
C180 C184 1.524 . S
C181 C173 1.503 . S
C181 C180 1.370 . S
C181 C182 1.403 . S
C182 C181 1.403 . S
C182 C183 1.404 . S
C182 C185 1.539 . S
C183 C179 1.408 . S
C183 C182 1.404 . S
C183 H195 0.930 . S
C184 C180 1.524 . S
C184 H196 0.956 1_455 S
C184 H197 0.961 . S
C184 H198 0.961 1_455 S
C185 C182 1.539 . S
C185 H199 0.958 . S
C185 H200 0.961 . S
C185 H201 0.960 . S
H186 C170 0.931 . S
H187 C175 0.929 . S
H188 C176 0.960 . S
H189 C176 0.962 1_655 S
H190 C176 0.960 1_655 S
H191 C177 0.961 . S
H192 C177 0.961 . S
H193 C177 0.961 . S
H194 C178 0.931 . S
H195 C183 0.930 . S
H196 C184 0.956 1_655 S
H197 C184 0.961 . S
H198 C184 0.961 1_655 S
H199 C185 0.958 . S
H200 C185 0.961 . S
H201 C185 0.960 . S
C202 C203 1.391 . S
C202 C204 1.394 . S
C202 H218 0.931 . S
C203 C202 1.391 . S
C203 C207 1.376 1_545 S
C204 C202 1.394 . S
C204 C205 1.369 . S
C204 C208 1.531 . S
C205 C204 1.369 . S
C205 C206 1.410 1_545 S
C205 C213 1.503 . S
C206 C205 1.410 1_565 S
C206 C207 1.392 . S
C206 C209 1.511 . S
C207 C203 1.376 1_565 S
C207 C206 1.392 . S
C207 H219 0.929 . S
C208 C204 1.531 . S
C208 H220 0.960 . S
C208 H221 0.962 . S
C208 H222 0.960 . S
C209 C206 1.511 . S
C209 H223 0.961 . S
C209 H224 0.961 . S
C209 H225 0.961 . S
C210 C211 1.370 . S
C210 C212 1.363 . S
C210 H226 0.931 . S
C211 C210 1.370 . S
C211 C215 1.408 . S
C212 C210 1.363 . S
C212 C213 1.370 . S
C212 C216 1.524 . S
C213 C205 1.503 . S
C213 C212 1.370 . S
C213 C214 1.403 . S
C214 C213 1.403 . S
C214 C215 1.404 . S
C214 C217 1.539 . S
C215 C211 1.408 . S
C215 C214 1.404 . S
C215 H227 0.930 . S
C216 C212 1.524 . S
C216 H228 0.956 . S
C216 H229 0.961 1_545 S
C216 H230 0.961 . S
C217 C214 1.539 . S
C217 H231 0.958 . S
C217 H232 0.961 . S
C217 H233 0.960 . S
H218 C202 0.931 . S
H219 C207 0.929 . S
H220 C208 0.960 . S
H221 C208 0.962 . S
H222 C208 0.960 . S
H223 C209 0.961 . S
H224 C209 0.961 . S
H225 C209 0.961 . S
H226 C210 0.931 . S
H227 C215 0.930 . S
H228 C216 0.956 . S
H229 C216 0.961 1_565 S
H230 C216 0.961 . S
H231 C217 0.958 . S
H232 C217 0.961 . S
H233 C217 0.960 . S
C234 C235 1.391 . S
C234 C236 1.394 . S
C234 H250 0.931 . S
C235 C234 1.391 . S
C235 C239 1.376 . S
C236 C234 1.394 . S
C236 C237 1.369 . S
C236 C240 1.531 . S
C237 C236 1.369 . S
C237 C238 1.410 . S
C237 C245 1.503 . S
C238 C237 1.410 . S
C238 C239 1.392 . S
C238 C241 1.511 1_455 S
C239 C235 1.376 . S
C239 C238 1.392 . S
C239 H251 0.929 . S
C240 C236 1.531 . S
C240 H252 0.960 . S
C240 H253 0.962 . S
C240 H254 0.960 . S
C241 C238 1.511 1_655 S
C241 H255 0.961 . S
C241 H256 0.961 . S
C241 H257 0.961 . S
C242 C243 1.370 . S
C242 C244 1.363 . S
C242 H258 0.931 . S
C243 C242 1.370 . S
C243 C247 1.408 . S
C244 C242 1.363 . S
C244 C245 1.370 . S
C244 C248 1.524 . S
C245 C237 1.503 . S
C245 C244 1.370 . S
C245 C246 1.403 . S
C246 C245 1.403 . S
C246 C247 1.404 . S
C246 C249 1.539 . S
C247 C243 1.408 . S
C247 C246 1.404 . S
C247 H259 0.930 . S
C248 C244 1.524 . S
C248 H260 0.956 . S
C248 H261 0.961 . S
C248 H262 0.961 . S
C249 C246 1.539 . S
C249 H263 0.958 . S
C249 H264 0.961 . S
C249 H265 0.960 . S
H250 C234 0.931 . S
H251 C239 0.929 . S
H252 C240 0.960 . S
H253 C240 0.962 . S
H254 C240 0.960 . S
H255 C241 0.961 . S
H256 C241 0.961 . S
H257 C241 0.961 . S
H258 C242 0.931 . S
H259 C247 0.930 . S
H260 C248 0.956 . S
H261 C248 0.961 . S
H262 C248 0.961 . S
H263 C249 0.958 . S
H264 C249 0.961 . S
H265 C249 0.960 . S
C266 C267 1.391 . S
C266 C268 1.394 . S
C266 H282 0.931 . S
C267 C266 1.391 . S
C267 C271 1.376 . S
C268 C266 1.394 . S
C268 C269 1.369 . S
C268 C272 1.531 . S
C269 C268 1.369 . S
C269 C270 1.410 . S
C269 C277 1.503 . S
C270 C269 1.410 . S
C270 C271 1.392 . S
C270 C273 1.511 1_545 S
C271 C267 1.376 . S
C271 C270 1.392 . S
C271 H283 0.929 1_545 S
C272 C268 1.531 . S
C272 H284 0.960 . S
C272 H285 0.962 . S
C272 H286 0.960 . S
C273 C270 1.511 1_565 S
C273 H287 0.961 . S
C273 H288 0.961 . S
C273 H289 0.961 . S
C274 C275 1.370 . S
C274 C276 1.363 . S
C274 H290 0.931 . S
C275 C274 1.370 . S
C275 C279 1.408 . S
C276 C274 1.363 . S
C276 C277 1.370 . S
C276 C280 1.524 . S
C277 C269 1.503 . S
C277 C276 1.370 . S
C277 C278 1.403 . S
C278 C277 1.403 . S
C278 C279 1.404 . S
C278 C281 1.539 . S
C279 C275 1.408 . S
C279 C278 1.404 . S
C279 H291 0.930 . S
C280 C276 1.524 . S
C280 H292 0.956 . S
C280 H293 0.961 . S
C280 H294 0.961 . S
C281 C278 1.539 . S
C281 H295 0.958 . S
C281 H296 0.961 1_545 S
C281 H297 0.960 1_545 S
H282 C266 0.931 . S
H283 C271 0.929 1_565 S
H284 C272 0.960 . S
H285 C272 0.962 . S
H286 C272 0.960 . S
H287 C273 0.961 . S
H288 C273 0.961 . S
H289 C273 0.961 . S
H290 C274 0.931 . S
H291 C279 0.930 . S
H292 C280 0.956 . S
H293 C280 0.961 . S
H294 C280 0.961 . S
H295 C281 0.958 . S
H296 C281 0.961 1_565 S
H297 C281 0.960 1_565 S
C298 C299 1.391 . S
C298 C300 1.394 . S
C298 H314 0.931 1_455 S
C299 C298 1.391 . S
C299 C303 1.376 . S
C300 C298 1.394 . S
C300 C301 1.369 . S
C300 C304 1.531 1_455 S
C301 C300 1.369 . S
C301 C302 1.410 . S
C301 C309 1.503 . S
C302 C301 1.410 . S
C302 C303 1.392 . S
C302 C305 1.511 . S
C303 C299 1.376 . S
C303 C302 1.392 . S
C303 H315 0.929 . S
C304 C300 1.531 1_655 S
C304 H316 0.960 . S
C304 H317 0.962 . S
C304 H318 0.960 . S
C305 C302 1.511 . S
C305 H319 0.961 . S
C305 H320 0.961 . S
C305 H321 0.961 . S
C306 C307 1.370 . S
C306 C308 1.363 . S
C306 H322 0.931 . S
C307 C306 1.370 . S
C307 C311 1.408 . S
C308 C306 1.363 . S
C308 C309 1.370 . S
C308 C312 1.524 . S
C309 C301 1.503 . S
C309 C308 1.370 . S
C309 C310 1.403 . S
C310 C309 1.403 . S
C310 C311 1.404 . S
C310 C313 1.539 . S
C311 C307 1.408 . S
C311 C310 1.404 . S
C311 H323 0.930 . S
C312 C308 1.524 . S
C312 H324 0.956 . S
C312 H325 0.961 . S
C312 H326 0.961 . S
C313 C310 1.539 . S
C313 H327 0.958 . S
C313 H328 0.961 . S
C313 H329 0.960 . S
H314 C298 0.931 1_655 S
H315 C303 0.929 . S
H316 C304 0.960 . S
H317 C304 0.962 . S
H318 C304 0.960 . S
H319 C305 0.961 . S
H320 C305 0.961 . S
H321 C305 0.961 . S
H322 C306 0.931 . S
H323 C311 0.930 . S
H324 C312 0.956 . S
H325 C312 0.961 . S
H326 C312 0.961 . S
H327 C313 0.958 . S
H328 C313 0.961 . S
H329 C313 0.960 . S
C83 C51 1.227 . S
C75 N12 1.414 . S
C115 C71 1.487 . S
C107 N25 1.464 . S
C147 C50 1.438 . S
C139 C16 1.460 . S
C179 C72 1.513 . S
C171 C30 1.507 . S
C211 C64 1.465 . S
C203 C7 1.505 . S
C243 C57 1.429 . S
C235 C39 1.454 . S
C275 C65 1.286 . S
C267 N2 1.490 . S
C299 N35 1.467 . S
C307 C58 1.481 . S
