# Generated by pormake.
# Topology pyr, (3,6)-cn, num edge types: 1
# Building blocks:
#     Node 0, Type 0, BuildingBlock: OLANEW_clean_sbu_2, # of connection points: 3
#     Node 1, Type 0, BuildingBlock: OLANEW_clean_sbu_2, # of connection points: 3
#     Node 2, Type 0, BuildingBlock: OLANEW_clean_sbu_2, # of connection points: 3
#     Node 3, Type 0, BuildingBlock: OLANEW_clean_sbu_2, # of connection points: 3
#     Node 4, Type 0, BuildingBlock: OLANEW_clean_sbu_2, # of connection points: 3
#     Node 5, Type 0, BuildingBlock: OLANEW_clean_sbu_2, # of connection points: 3
#     Node 6, Type 0, BuildingBlock: OLANEW_clean_sbu_2, # of connection points: 3
#     Node 7, Type 0, BuildingBlock: OLANEW_clean_sbu_2, # of connection points: 3
#     Node 8, Type 1, BuildingBlock: BETGAK_clean_sbu_0, # of connection points: 6
#     Node 9, Type 1, BuildingBlock: BETGAK_clean_sbu_0, # of connection points: 6
#     Node 10, Type 1, BuildingBlock: BETGAK_clean_sbu_0, # of connection points: 6
#     Node 11, Type 1, BuildingBlock: BETGAK_clean_sbu_0, # of connection points: 6
#     Edge 12, Type (0, 1), BuildingBlock: ZUJKAS_clean_linker_0, # of connection points: 2
#     Edge 13, Type (0, 1), BuildingBlock: ZUJKAS_clean_linker_0, # of connection points: 2
#     Edge 14, Type (0, 1), BuildingBlock: ZUJKAS_clean_linker_0, # of connection points: 2
#     Edge 15, Type (0, 1), BuildingBlock: ZUJKAS_clean_linker_0, # of connection points: 2
#     Edge 16, Type (0, 1), BuildingBlock: ZUJKAS_clean_linker_0, # of connection points: 2
#     Edge 17, Type (0, 1), BuildingBlock: ZUJKAS_clean_linker_0, # of connection points: 2
#     Edge 18, Type (0, 1), BuildingBlock: ZUJKAS_clean_linker_0, # of connection points: 2
#     Edge 19, Type (0, 1), BuildingBlock: ZUJKAS_clean_linker_0, # of connection points: 2
#     Edge 20, Type (0, 1), BuildingBlock: ZUJKAS_clean_linker_0, # of connection points: 2
#     Edge 21, Type (0, 1), BuildingBlock: ZUJKAS_clean_linker_0, # of connection points: 2
#     Edge 22, Type (0, 1), BuildingBlock: ZUJKAS_clean_linker_0, # of connection points: 2
#     Edge 23, Type (0, 1), BuildingBlock: ZUJKAS_clean_linker_0, # of connection points: 2
#     Edge 24, Type (0, 1), BuildingBlock: ZUJKAS_clean_linker_0, # of connection points: 2
#     Edge 25, Type (0, 1), BuildingBlock: ZUJKAS_clean_linker_0, # of connection points: 2
#     Edge 26, Type (0, 1), BuildingBlock: ZUJKAS_clean_linker_0, # of connection points: 2
#     Edge 27, Type (0, 1), BuildingBlock: ZUJKAS_clean_linker_0, # of connection points: 2
#     Edge 28, Type (0, 1), BuildingBlock: ZUJKAS_clean_linker_0, # of connection points: 2
#     Edge 29, Type (0, 1), BuildingBlock: ZUJKAS_clean_linker_0, # of connection points: 2
#     Edge 30, Type (0, 1), BuildingBlock: ZUJKAS_clean_linker_0, # of connection points: 2
#     Edge 31, Type (0, 1), BuildingBlock: ZUJKAS_clean_linker_0, # of connection points: 2
#     Edge 32, Type (0, 1), BuildingBlock: ZUJKAS_clean_linker_0, # of connection points: 2
#     Edge 33, Type (0, 1), BuildingBlock: ZUJKAS_clean_linker_0, # of connection points: 2
#     Edge 34, Type (0, 1), BuildingBlock: ZUJKAS_clean_linker_0, # of connection points: 2
#     Edge 35, Type (0, 1), BuildingBlock: ZUJKAS_clean_linker_0, # of connection points: 2
# Relax obj value: 0.096
# Max RMSD: 0.162
# Mean RMSD: 0.119
data_MOF--net-pyr--node1-OLANEW_clean_sbu_2--node2-BETGAK_clean_sbu_0--edge1-ZUJKAS_clean_linker_0
_symmetry_space_group_name_H-M    P1
_symmetry_Int_Tables_number       1
_symmetry_cell_setting            triclinic
loop_
_symmetry_equiv_pos_as_xyz
'x, y, z'
_cell_length_a     51.901218
_cell_length_b     56.020939
_cell_length_c     49.761593
_cell_angle_alpha  95.794496
_cell_angle_beta   87.99725
_cell_angle_gamma 102.03148
loop_
_atom_site_label
_atom_site_type_symbol
_atom_site_fract_x
_atom_site_fract_y
_atom_site_fract_z
_atom_type_partial_charge
O0 O 0.35282 0.28655 0.2038 0.0
Cd1 Cd 0.33268 0.31856 0.22913 0.0
O2 O 0.33363 0.26694 0.23691 0.0
Cd3 Cd 0.31877 0.24079 0.26621 0.0
O4 O 0.28993 0.22993 0.29791 0.0
C5 C 0.29625 0.22745 0.32174 0.0
O6 O 0.32125 0.23036 0.32766 0.0
C7 C 0.34822 0.26706 0.21582 0.0
C8 C 0.29758 0.34159 0.2051 0.0
O9 O 0.32202 0.35176 0.20752 0.0
O10 O 0.28993 0.32006 0.21284 0.0
O11 O 0.31327 0.89594 0.66876 0.0
Cd12 Cd 0.29406 0.87913 0.62494 0.0
O13 O 0.30274 0.86099 0.68726 0.0
Cd14 Cd 0.2712 0.84895 0.65853 0.0
O15 O 0.23988 0.86386 0.64327 0.0
C16 C 0.23996 0.8856 0.65347 0.0
O17 O 0.2578 0.89595 0.67148 0.0
C18 C 0.31518 0.88314 0.68804 0.0
C19 C 0.32037 0.84259 0.60422 0.0
O20 O 0.29815 0.83725 0.61651 0.0
O21 O 0.32969 0.86513 0.60077 0.0
O22 O 0.71316 0.39797 0.86231 0.0
Cd23 Cd 0.67077 0.3883 0.83582 0.0
O24 O 0.70761 0.36684 0.88773 0.0
Cd25 Cd 0.68263 0.33156 0.90039 0.0
O26 O 0.66046 0.2952 0.9131 0.0
C27 C 0.64587 0.29358 0.93433 0.0
O28 O 0.64349 0.3139 0.94897 0.0
C29 C 0.72167 0.38688 0.88043 0.0
C30 C 0.65853 0.41497 0.79326 0.0
O31 O 0.65454 0.42182 0.81817 0.0
O32 O 0.66962 0.39653 0.78834 0.0
O33 O 0.92006 0.73198 0.37866 0.0
Cd34 Cd 0.89804 0.69484 0.35061 0.0
O35 O 0.88792 0.72366 0.40848 0.0
Cd36 Cd 0.8671 0.68813 0.39074 0.0
O37 O 0.83081 0.66309 0.40048 0.0
C38 C 0.81967 0.67117 0.42161 0.0
O39 O 0.83097 0.69231 0.43423 0.0
C40 C 0.90866 0.73782 0.40073 0.0
C41 C 0.92329 0.67304 0.30689 0.0
O42 O 0.91366 0.692 0.30445 0.0
O43 O 0.92227 0.66517 0.33031 0.0
O44 O 0.71956 0.7587 0.7973 0.0
Cd45 Cd 0.69792 0.72425 0.8215 0.0
O46 O 0.70278 0.78484 0.82455 0.0
Cd47 Cd 0.69264 0.81918 0.84253 0.0
O48 O 0.67381 0.84459 0.86896 0.0
C49 C 0.6516 0.84866 0.86293 0.0
O50 O 0.64057 0.83812 0.84019 0.0
C51 C 0.71747 0.78066 0.80433 0.0
C52 C 0.7358 0.70397 0.84401 0.0
O53 O 0.728 0.69704 0.81979 0.0
O54 O 0.72549 0.72034 0.85768 0.0
O55 O 0.71323 0.17861 0.45748 0.0
Cd56 Cd 0.73532 0.19242 0.50035 0.0
O57 O 0.74802 0.18881 0.43125 0.0
Cd58 Cd 0.76603 0.21431 0.46425 0.0
O59 O 0.74864 0.24308 0.48522 0.0
C60 C 0.73017 0.24712 0.47136 0.0
O61 O 0.7254 0.23485 0.44752 0.0
C62 C 0.72405 0.17823 0.43414 0.0
C63 C 0.77516 0.16674 0.50482 0.0
O64 O 0.75118 0.15727 0.51047 0.0
O65 O 0.78042 0.18859 0.49778 0.0
O66 O 0.41239 0.76566 0.23393 0.0
Cd67 Cd 0.40021 0.72463 0.25485 0.0
O68 O 0.37649 0.7634 0.20942 0.0
Cd69 Cd 0.34736 0.72825 0.20921 0.0
O70 O 0.3099 0.70377 0.19452 0.0
C71 C 0.30879 0.69182 0.17124 0.0
O72 O 0.33047 0.69337 0.15649 0.0
C73 C 0.39895 0.77507 0.21815 0.0
C74 C 0.42475 0.70472 0.2963 0.0
O75 O 0.43083 0.70105 0.27121 0.0
O76 O 0.40866 0.7191 0.30222 0.0
O77 O 0.17301 0.42397 0.73794 0.0
Cd78 Cd 0.18905 0.40368 0.69629 0.0
O79 O 0.15641 0.38901 0.75493 0.0
Cd80 Cd 0.16432 0.36284 0.72155 0.0
O81 O 0.15555 0.32465 0.70381 0.0
C82 C 0.14212 0.31789 0.68247 0.0
O83 O 0.13462 0.33453 0.66951 0.0
C84 C 0.16101 0.41234 0.75697 0.0
C85 C 0.23814 0.4265 0.67569 0.0
O86 O 0.21688 0.43301 0.66993 0.0
O87 O 0.23633 0.40966 0.69171 0.0
La88 La 0.01484 0.02772 0.54355 0.0
La89 La 0.99668 0.01533 0.59857 0.0
C90 C 0.02789 0.04871 0.5014 0.0
C91 C 0.0493 0.06915 0.49468 0.0
C92 C 0.07161 0.064 0.48038 0.0
C93 C 0.09223 0.08294 0.4741 0.0
C94 C 0.09091 0.10748 0.48177 0.0
C95 C 0.06862 0.11273 0.49606 0.0
C96 C 0.04799 0.09372 0.50254 0.0
C97 C 0.04444 1.00396 0.56772 0.0
C98 C 0.03217 0.06649 0.59444 0.0
C99 C 0.98432 0.99524 0.64152 0.0
C100 C 0.96183 0.97722 0.65091 0.0
C101 C 0.93584 0.97773 0.64436 0.0
C102 C 0.91467 0.96168 0.6552 0.0
C103 C 0.9191 0.94466 0.67256 0.0
C104 C 0.94523 0.94366 0.67819 0.0
C105 C 0.96636 0.95986 0.66754 0.0
C106 C 0.96729 0.03926 0.57453 0.0
C107 C 0.98038 0.97663 0.54656 0.0
O108 O 0.03538 0.02881 0.50665 0.0
O109 O 0.00938 0.05396 0.51815 0.0
O110 O 0.04025 1.0012 0.54209 0.0
O111 O 0.03396 0.02077 0.57874 0.0
O112 O 0.02751 0.0625 0.56827 0.0
O113 O 0.02583 0.04854 0.61034 0.0
O114 O 0.97942 0.01645 0.63714 0.0
O115 O 0.99943 0.98714 0.62265 0.0
O116 O 0.97117 0.04177 0.6002 0.0
O117 O 0.97765 0.02237 0.56355 0.0
O118 O 0.98334 0.98037 0.57314 0.0
O119 O 0.98726 0.99455 0.53085 0.0
H120 H 0.07311 0.04528 0.47392 0.0
H121 H 0.10894 0.07837 0.46258 0.0
H122 H 0.06715 0.13151 0.50222 0.0
H123 H 0.03107 0.09829 0.51362 0.0
H124 H 0.93185 0.99089 0.63137 0.0
H125 H 0.89484 0.96313 0.65062 0.0
H126 H 0.94939 0.93044 0.691 0.0
H127 H 0.98628 0.95907 0.67261 0.0
La128 La 0.52007 0.04601 0.08851 0.0
La129 La 0.47106 0.02986 0.05373 0.0
C130 C 0.55854 0.06868 0.11638 0.0
C131 C 0.56239 0.08296 0.14292 0.0
C132 C 0.55498 0.07178 0.16684 0.0
C133 C 0.56197 0.08462 0.19183 0.0
C134 C 0.57635 0.10891 0.1934 0.0
C135 C 0.58219 0.12056 0.16954 0.0
C136 C 0.57537 0.10763 0.14449 0.0
C137 C 0.49131 1.00224 0.09616 0.0
C138 C 0.46842 0.06738 0.10489 0.0
C139 C 0.43056 1.00511 0.03097 0.0
C140 C 0.42403 0.99779 1.00234 0.0
C141 C 0.42525 0.01535 0.98376 0.0
C142 C 0.42006 1.00798 0.95651 0.0
C143 C 0.41383 0.98295 0.94732 0.0
C144 C 0.41268 0.96544 0.96588 0.0
C145 C 0.41765 0.97281 0.99316 0.0
C146 C 0.50378 0.0679 0.0338 0.0
C147 C 0.5242 1.01318 0.03514 0.0
O148 O 0.54884 0.0452 0.11646 0.0
O149 O 0.54836 0.0784 0.09755 0.0
O150 O 0.51672 1.00819 0.09662 0.0
O151 O 0.48223 0.02105 0.09247 0.0
O152 O 0.49342 0.06753 0.10976 0.0
O153 O 0.45513 0.05249 0.08547 0.0
O154 O 0.43343 0.02852 0.03911 0.0
O155 O 0.44879 0.99524 0.0404 0.0
O156 O 0.48173 0.05665 0.02293 0.0
O157 O 0.50604 0.05693 0.05402 0.0
O158 O 0.49813 1.00791 0.03469 0.0
O159 O 0.53748 0.03081 0.0521 0.0
H160 H 0.54477 0.05279 0.16631 0.0
H161 H 0.55745 0.07499 0.20978 0.0
H162 H 0.59291 0.13939 0.17018 0.0
H163 H 0.58109 0.11665 0.1263 0.0
H164 H 0.43043 0.03479 0.99016 0.0
H165 H 0.42127 0.02184 0.94257 0.0
H166 H 0.40758 0.94602 0.95936 0.0
H167 H 0.4167 0.95897 1.00709 0.0
La168 La 0.53073 0.52491 0.52009 0.0
La169 La 0.52513 0.56512 0.56187 0.0
C170 C 0.54781 0.49252 0.49031 0.0
C171 C 0.55971 0.47175 0.49545 0.0
C172 C 0.54652 0.44777 0.48721 0.0
C173 C 0.55724 0.42781 0.49216 0.0
C174 C 0.58155 0.43145 0.50519 0.0
C175 C 0.59467 0.45551 0.51358 0.0
C176 C 0.58382 0.47546 0.50886 0.0
C177 C 0.48407 0.52037 0.54364 0.0
C178 C 0.54918 0.52365 0.5814 0.0
C179 C 0.5072 0.59635 0.5926 0.0
C180 C 0.49343 0.61595 0.58832 0.0
C181 C 0.50008 0.63849 0.60397 0.0
C182 C 0.48755 0.65754 0.59989 0.0
C183 C 0.46819 0.6543 0.58003 0.0
C184 C 0.46174 0.63173 0.56418 0.0
C185 C 0.47428 0.6127 0.56828 0.0
C186 C 0.57193 0.5693 0.53902 0.0
C187 C 0.50898 0.56775 0.50009 0.0
O188 O 0.52301 0.49059 0.4974 0.0
O189 O 0.56172 0.51457 0.49679 0.0
O190 O 0.48779 0.51417 0.51824 0.0
O191 O 0.50597 0.52776 0.55493 0.0
O192 O 0.55042 0.51551 0.55542 0.0
O193 O 0.53717 0.54182 0.58928 0.0
O194 O 0.53167 0.5997 0.584 0.0
O195 O 0.49422 0.57386 0.58648 0.0
O196 O 0.56798 0.57616 0.56423 0.0
O197 O 0.55016 0.56204 0.52745 0.0
O198 O 0.50656 0.57517 0.52615 0.0
O199 O 0.5208 0.54935 0.49244 0.0
H200 H 0.52783 0.44447 0.477 0.0
H201 H 0.54644 0.40951 0.4858 0.0
H202 H 0.61361 0.459 0.5233 0.0
H203 H 0.59443 0.49374 0.5156 0.0
H204 H 0.51491 0.64133 0.61941 0.0
H205 H 0.49267 0.67464 0.61263 0.0
H206 H 0.4471 0.62883 0.54854 0.0
H207 H 0.46898 0.59547 0.55579 0.0
La208 La 0.02519 0.50535 0.03601 0.0
La209 La 0.01188 0.55397 0.01903 0.0
C210 C 0.04747 0.47046 0.04245 0.0
C211 C 0.0686 0.46534 0.05874 0.0
C212 C 0.06944 0.47057 0.08698 0.0
C213 C 0.08885 0.46384 0.10182 0.0
C214 C 0.10771 0.45181 0.08867 0.0
C215 C 0.10727 0.44747 0.06033 0.0
C216 C 0.08791 0.4541 0.04559 0.0
C217 C 0.99946 0.53034 0.07181 0.0
C218 C 0.0668 0.55708 0.04656 0.0
C219 C 0.99022 0.58993 0.01908 0.0
C220 C 0.97025 0.59649 1.00236 0.0
C221 C 0.97778 0.61473 0.98457 0.0
C222 C 0.95893 0.62159 0.96926 0.0
C223 C 0.93217 0.61049 0.97167 0.0
C224 C 0.92469 0.59201 0.98918 0.0
C225 C 0.9435 0.58506 1.00435 0.0
C226 C 0.03123 0.52861 0.97753 0.0
C227 C 0.97196 0.50237 1.00609 0.0
O228 O 0.02564 0.47364 0.055 0.0
O229 O 0.05491 0.48594 0.0243 0.0
O230 O 0.99707 0.50672 0.07016 0.0
O231 O 0.01706 0.53873 0.0554 0.0
O232 O 0.0618 0.53271 0.04599 0.0
O233 O 0.04937 0.56932 0.03899 0.0
O234 O 0.01325 0.58922 1.00748 0.0
O235 O 0.98197 0.57167 0.03399 0.0
O236 O 0.02553 0.54995 0.97627 0.0
O237 O 0.02557 0.52339 1.00119 0.0
O238 O 0.97517 0.5265 0.01183 0.0
O239 O 0.99083 0.49035 1.01034 0.0
H240 H 0.05488 0.47941 0.09764 0.0
H241 H 0.08857 0.46739 0.12362 0.0
H242 H 0.12183 0.43875 0.04949 0.0
H243 H 0.08778 0.45008 0.02382 0.0
H244 H 0.99823 0.62388 0.9827 0.0
H245 H 0.96523 0.63604 0.95609 0.0
H246 H 0.90423 0.58291 0.99116 0.0
H247 H 0.93697 0.57086 0.01778 0.0
H248 H 0.24501 0.2318 0.32018 0.0
H249 H 0.21008 0.22002 0.35332 0.0
H250 H 0.26522 0.19668 0.40265 0.0
H251 H 0.30055 0.2094 0.37007 0.0
H252 H 0.19183 0.17558 0.36534 0.0
H253 H 0.22715 0.23173 0.45985 0.0
H254 H 0.24206 0.23816 0.42735 0.0
H255 H 0.25103 0.21496 0.44556 0.0
C256 C 0.24979 0.22447 0.33827 0.0
C257 C 0.2755 0.2214 0.34249 0.0
C258 C 0.22983 0.21784 0.35725 0.0
C259 C 0.23508 0.2078 0.38068 0.0
C260 C 0.26083 0.20506 0.38514 0.0
H261 H 0.14398 0.11085 0.48448 0.0
H262 H 0.17856 0.13954 0.46272 0.0
C263 C 0.28095 0.21207 0.36635 0.0
C264 C 0.21306 0.19766 0.39871 0.0
H265 H 0.19294 0.19588 0.46474 0.0
C266 C 0.19188 0.1804 0.38701 0.0
C267 C 0.21315 0.2039 0.42701 0.0
C268 C 0.23446 0.2234 0.44063 0.0
C269 C 0.1713 0.16854 0.40286 0.0
C270 C 0.17189 0.17415 0.43116 0.0
C271 C 0.19268 0.19173 0.44297 0.0
C272 C 0.15189 0.16038 0.44864 0.0
C273 C 0.14953 0.14939 0.38934 0.0
C274 C 0.12572 0.1633 0.44862 0.0
C275 C 0.10593 0.14688 0.46088 0.0
C276 C 0.11213 0.12734 0.47321 0.0
C277 C 0.13865 0.12556 0.47477 0.0
C278 C 0.1584 0.142 0.46258 0.0
H279 H 0.15388 0.14491 0.36762 0.0
H280 H 0.14628 0.13229 0.39962 0.0
H281 H 0.13091 0.15626 0.39089 0.0
H282 H 0.12046 0.17745 0.4379 0.0
H283 H 0.08565 0.1486 0.45926 0.0
H284 H 0.32341 0.93096 0.70815 0.0
H285 H 0.3449 0.94935 0.75054 0.0
H286 H 0.36175 0.87955 0.76487 0.0
H287 H 0.33997 0.86089 0.72259 0.0
H288 H 0.33112 0.90822 0.80768 0.0
H289 H 0.42747 0.95984 0.77096 0.0
H290 H 0.39803 0.95913 0.75243 0.0
H291 H 0.41036 0.93162 0.75302 0.0
C292 C 0.33215 0.91966 0.72009 0.0
C293 C 0.33015 0.89455 0.71218 0.0
C294 C 0.34436 0.93016 0.74421 0.0
C295 C 0.35502 0.91577 0.76048 0.0
C296 C 0.35364 0.89086 0.75237 0.0
H297 H 0.43188 0.9474 0.91502 0.0
H298 H 0.41906 0.93207 0.86846 0.0
C299 C 0.34119 0.88026 0.72837 0.0
C300 C 0.36571 0.92633 0.78702 0.0
H301 H 0.41846 0.96463 0.81789 0.0
C302 C 0.35023 0.92049 0.80999 0.0
C303 C 0.39058 0.94232 0.78967 0.0
C304 C 0.40778 0.94866 0.7653 0.0
C305 C 0.35896 0.9305 0.83579 0.0
C306 C 0.38374 0.94664 0.83847 0.0
C307 C 0.3994 0.9523 0.81554 0.0
C308 C 0.39354 0.95758 0.86522 0.0
C309 C 0.34176 0.92382 0.8601 0.0
C310 C 0.38363 0.97717 0.87833 0.0
C311 C 0.39083 0.98591 0.90482 0.0
C312 C 0.40791 0.97503 0.91856 0.0
C313 C 0.41842 0.95588 0.90498 0.0
C314 C 0.41132 0.94725 0.87843 0.0
H315 H 0.32427 0.90911 0.85477 0.0
H316 H 0.35327 0.91766 0.87549 0.0
H317 H 0.33484 0.94026 0.86941 0.0
H318 H 0.36979 0.98521 0.8683 0.0
H319 H 0.3823 1.00056 0.91488 0.0
H320 H 0.6592 0.4014 0.73856 0.0
H321 H 0.64193 0.41986 0.70228 0.0
H322 H 0.6186 0.47378 0.76078 0.0
H323 H 0.63604 0.45559 0.79711 0.0
H324 H 0.59146 0.42556 0.69378 0.0
H325 H 0.65838 0.51685 0.70576 0.0
H326 H 0.66446 0.49095 0.7215 0.0
H327 H 0.64106 0.50822 0.73628 0.0
C328 C 0.6507 0.41738 0.74374 0.0
C329 C 0.64931 0.42709 0.77089 0.0
C330 C 0.64068 0.42787 0.72291 0.0
C331 C 0.62923 0.44851 0.72856 0.0
C332 C 0.62781 0.45824 0.75565 0.0
H333 H 0.55261 0.53722 0.63591 0.0
H334 H 0.57184 0.51843 0.67035 0.0
C335 C 0.63774 0.44771 0.77651 0.0
C336 C 0.61818 0.45941 0.70627 0.0
H337 H 0.62202 0.5127 0.67669 0.0
C338 C 0.5983 0.44458 0.68994 0.0
C339 C 0.62695 0.48426 0.70112 0.0
C340 C 0.64906 0.50097 0.7169 0.0
C341 C 0.58658 0.45398 0.66925 0.0
C342 C 0.59526 0.47887 0.66419 0.0
C343 C 0.61525 0.49365 0.68042 0.0
C344 C 0.58349 0.49011 0.64269 0.0
C345 C 0.56436 0.43731 0.65357 0.0
C346 C 0.58376 0.48077 0.61534 0.0
C347 C 0.57267 0.49153 0.59542 0.0
C348 C 0.5611 0.51199 0.60233 0.0
C349 C 0.56115 0.52143 0.62969 0.0
C350 C 0.57225 0.51071 0.64952 0.0
H351 H 0.55539 0.42117 0.66446 0.0
H352 H 0.54871 0.44727 0.64957 0.0
H353 H 0.57213 0.43048 0.63387 0.0
H354 H 0.59278 0.46525 0.60929 0.0
H355 H 0.57321 0.48379 0.57461 0.0
H356 H 0.93755 0.68927 0.25733 0.0
H357 H 0.95073 0.66577 0.21687 0.0
H358 H 0.94404 0.60258 0.26148 0.0
H359 H 0.93166 0.62619 0.30219 0.0
H360 H 0.98786 0.60878 0.22886 0.0
H361 H 0.90059 0.61443 0.17028 0.0
H362 H 0.9196 0.64369 0.18297 0.0
H363 H 0.90288 0.62286 0.20623 0.0
C364 C 0.93906 0.67042 0.25856 0.0
C365 C 0.93347 0.65958 0.28297 0.0
C366 C 0.94639 0.65693 0.23535 0.0
C367 C 0.94777 0.6322 0.23592 0.0
C368 C 0.94297 0.62158 0.26047 0.0
H369 H 0.96331 0.51489 0.11098 0.0
H370 H 0.94984 0.53976 0.15049 0.0
C371 C 0.93595 0.63513 0.28377 0.0
C372 C 0.95409 0.61732 0.21096 0.0
H373 H 0.93367 0.59685 0.14648 0.0
C374 C 0.97595 0.60614 0.21091 0.0
C375 C 0.93843 0.61367 0.18753 0.0
C376 C 0.91392 0.62408 0.18672 0.0
C377 C 0.98278 0.59182 0.18797 0.0
C378 C 0.9674 0.58858 0.16452 0.0
C379 C 0.94546 0.59952 0.16452 0.0
C380 C 0.97408 0.57387 0.1398 0.0
C381 C 0.00646 0.58024 0.18873 0.0
C382 C 0.99181 0.58496 0.1206 0.0
C383 C 0.99943 0.57087 0.09805 0.0
C384 C 0.98951 0.54541 0.09439 0.0
C385 C 0.97126 0.53445 0.11333 0.0
C386 C 0.96357 0.5486 0.13585 0.0
H387 H 0.01604 0.58394 0.20877 0.0
H388 H 1.00048 0.5601 0.18381 0.0
H389 H 0.0211 0.58739 0.17315 0.0
H390 H 1.00015 0.60444 0.12335 0.0
H391 H 0.01359 0.57983 0.08385 0.0
H392 H 0.39018 0.26696 0.18128 0.0
H393 H 0.41047 0.23249 0.16482 0.0
H394 H 0.35394 0.1845 0.21089 0.0
H395 H 0.33351 0.21889 0.22743 0.0
H396 H 0.40591 0.17782 0.21523 0.0
H397 H 0.37943 0.17694 0.10802 0.0
H398 H 0.39703 0.20611 0.12273 0.0
H399 H 0.36465 0.19351 0.13525 0.0
C400 C 0.38195 0.24906 0.18785 0.0
C401 C 0.36021 0.24581 0.20581 0.0
C402 C 0.39357 0.22933 0.17836 0.0
C403 C 0.38357 0.20579 0.18634 0.0
C404 C 0.36205 0.20249 0.20447 0.0
H405 H 0.41652 0.07084 0.10365 0.0
H406 H 0.39603 0.10347 0.12528 0.0
C407 C 0.35043 0.22226 0.21404 0.0
C408 C 0.39549 0.18463 0.17565 0.0
H409 H 0.40846 0.15135 0.11719 0.0
C410 C 0.4064 0.17196 0.19381 0.0
C411 C 0.39591 0.17681 0.14771 0.0
C412 C 0.38343 0.18887 0.12727 0.0
C413 C 0.41801 0.15192 0.18476 0.0
C414 C 0.41904 0.1445 0.15673 0.0
C415 C 0.40783 0.15704 0.13865 0.0
C416 C 0.43128 0.12364 0.14557 0.0
C417 C 0.4286 0.13863 0.20539 0.0
C418 C 0.45795 0.12383 0.14991 0.0
C419 C 0.46975 0.10501 0.1377 0.0
C420 C 0.45521 0.08568 0.12059 0.0
C421 C 0.42838 0.08532 0.11672 0.0
C422 C 0.4166 0.10406 0.12903 0.0
H423 H 0.41981 0.14196 0.22575 0.0
H424 H 0.4247 0.11857 0.1995 0.0
H425 H 0.45022 0.14536 0.20684 0.0
H426 H 0.46992 0.13895 0.16206 0.0
H427 H 0.49051 0.10611 0.14093 0.0
H428 H 0.19695 0.86824 0.62157 0.0
H429 H 0.16388 0.8908 0.60994 0.0
H430 H 0.2056 0.95585 0.656 0.0
H431 H 0.23876 0.9336 0.66771 0.0
H432 H 0.13281 0.91633 0.6497 0.0
H433 H 0.19436 0.97714 0.57959 0.0
H434 H 0.20251 0.94891 0.58772 0.0
H435 H 0.20831 0.97548 0.61178 0.0
C436 C 0.19915 0.88737 0.62911 0.0
C437 C 0.22037 0.89913 0.64562 0.0
C438 C 0.18026 0.90018 0.6225 0.0
C439 C 0.18251 0.92491 0.63208 0.0
C440 C 0.20377 0.93679 0.6483 0.0
H441 H 0.06866 0.01837 0.61625 0.0
H442 H 0.10225 1.00004 0.6354 0.0
C443 C 0.22258 0.924 0.65502 0.0
C444 C 0.16219 0.93814 0.62565 0.0
H445 H 0.15101 0.98285 0.58862 0.0
C446 C 0.13677 0.93099 0.63651 0.0
C447 C 0.16765 0.95724 0.6085 0.0
C448 C 0.19462 0.96514 0.59601 0.0
C449 C 0.11641 0.94234 0.63028 0.0
C450 C 0.12177 0.96105 0.61273 0.0
C451 C 0.14726 0.96855 0.60228 0.0
C452 C 0.10055 0.97124 0.6027 0.0
C453 C 0.08911 0.93394 0.64172 0.0
C454 C 0.0886 0.96076 0.57833 0.0
C455 C 0.06977 0.97118 0.56737 0.0
C456 C 0.06262 0.99214 0.58074 0.0
C457 C 0.07394 1.00217 0.60567 0.0
C458 C 0.09304 0.99182 0.61654 0.0
H459 H 0.08853 0.92019 0.65645 0.0
H460 H 0.08183 0.9499 0.65186 0.0
H461 H 0.07544 0.92572 0.62502 0.0
H462 H 0.09424 0.94479 0.56757 0.0
H463 H 0.06107 0.96306 0.54824 0.0
H464 H 0.75335 0.4321 0.87502 0.0
H465 H 0.79583 0.4501 0.89588 0.0
H466 H 0.79265 0.38456 0.93542 0.0
H467 H 0.74979 0.3665 0.91493 0.0
H468 H 0.80794 0.42694 0.97012 0.0
H469 H 0.86766 0.4349 0.87553 0.0
H470 H 0.83936 0.44872 0.87618 0.0
H471 H 0.83492 0.41606 0.8766 0.0
C472 C 0.76167 0.42135 0.88801 0.0
C473 C 0.74795 0.39769 0.89309 0.0
C474 C 0.78618 0.43169 0.89985 0.0
C475 C 0.79792 0.41862 0.91695 0.0
C476 C 0.78421 0.39507 0.92225 0.0
H477 H 0.95996 0.45565 0.97962 0.0
H478 H 0.9182 0.43472 0.95821 0.0
C479 C 0.75962 0.38472 0.91047 0.0
C480 C 0.82403 0.42976 0.92984 0.0
H481 H 0.88877 0.4545 0.9159 0.0
C482 C 0.82559 0.43283 0.9582 0.0
C483 C 0.84732 0.43744 0.91446 0.0
C484 C 0.84742 0.43395 0.88401 0.0
C485 C 0.8494 0.44375 0.97144 0.0
C486 C 0.87248 0.45184 0.95607 0.0
C487 C 0.87112 0.44837 0.92775 0.0
C488 C 0.89798 0.46445 0.96913 0.0
C489 C 0.84979 0.44652 1.00188 0.0
C490 C 0.90071 0.48821 0.9823 0.0
C491 C 0.92457 0.50028 0.99434 0.0
C492 C 0.94641 0.48887 0.99378 0.0
C493 C 0.9436 0.46498 0.98068 0.0
C494 C 0.91973 0.45301 0.96831 0.0
H495 H 0.83177 0.43558 0.0108 0.0
H496 H 0.86733 0.44079 1.00921 0.0
H497 H 0.85111 0.4661 1.00926 0.0
H498 H 0.88437 0.49756 0.98307 0.0
H499 H 0.92585 0.51864 1.00415 0.0
H500 H 0.79053 0.68556 0.46435 0.0
H501 H 0.74823 0.66384 0.48093 0.0
H502 H 0.74872 0.60455 0.41864 0.0
H503 H 0.79135 0.62619 0.40178 0.0
H504 H 0.70062 0.64795 0.44928 0.0
H505 H 0.73503 0.57193 0.49174 0.0
H506 H 0.75716 0.60024 0.48509 0.0
H507 H 0.745 0.57792 0.45763 0.0
C508 C 0.78177 0.66786 0.45417 0.0
C509 C 0.79429 0.65758 0.43173 0.0
C510 C 0.75758 0.65552 0.46367 0.0
C511 C 0.74554 0.63261 0.45107 0.0
C512 C 0.75793 0.62215 0.42874 0.0
H513 H 0.58138 0.56503 0.48469 0.0
H514 H 0.62357 0.57802 0.46122 0.0
C515 C 0.78218 0.63455 0.41912 0.0
C516 C 0.7197 0.62014 0.46121 0.0
H517 H 0.68972 0.57232 0.49621 0.0
C518 C 0.69809 0.63127 0.45928 0.0
C519 C 0.71675 0.59856 0.47445 0.0
C520 C 0.73968 0.58643 0.4776 0.0
C521 C 0.67355 0.62152 0.47063 0.0
C522 C 0.6706 0.60001 0.48401 0.0
C523 C 0.69212 0.5887 0.48568 0.0
C524 C 0.64571 0.59001 0.4979 0.0
C525 C 0.65117 0.63474 0.4691 0.0
C526 C 0.64451 0.59193 0.5262 0.0
C527 C 0.62053 0.58455 0.53961 0.0
C528 C 0.59748 0.57507 0.52487 0.0
C529 C 0.5989 0.57232 0.49651 0.0
C530 C 0.62289 0.57977 0.4831 0.0
H531 H 0.65788 0.65317 0.46185 0.0
H532 H 0.63616 0.62378 0.45495 0.0
H533 H 0.64152 0.63685 0.48923 0.0
H534 H 0.66198 0.59982 0.53789 0.0
H535 H 0.61994 0.58676 0.56149 0.0
H536 H 0.30297 0.391 0.20363 0.0
H537 H 0.27045 0.41295 0.1894 0.0
H538 H 0.2171 0.34396 0.1684 0.0
H539 H 0.249 0.32203 0.18392 0.0
H540 H 0.25018 0.41426 0.14331 0.0
H541 H 0.16774 0.37844 0.21106 0.0
H542 H 0.20053 0.37336 0.21504 0.0
H543 H 0.17835 0.35375 0.1911 0.0
C544 C 0.28426 0.38052 0.19604 0.0
C545 C 0.2785 0.35478 0.19497 0.0
C546 C 0.26564 0.3931 0.18799 0.0
C547 C 0.24097 0.3802 0.17844 0.0
C548 C 0.23552 0.35443 0.17664 0.0
H549 H 0.1235 0.40813 0.07955 0.0
H550 H 0.15642 0.39365 0.10385 0.0
C551 C 0.25392 0.34187 0.1852 0.0
C552 C 0.2215 0.39358 0.16908 0.0
H553 H 0.15623 0.3964 0.1722 0.0
C554 C 0.22976 0.41063 0.15003 0.0
C555 C 0.19482 0.3892 0.17805 0.0
C556 C 0.18494 0.3729 0.20017 0.0
C557 C 0.21189 0.42237 0.13878 0.0
C558 C 0.18506 0.41671 0.14648 0.0
C559 C 0.17686 0.40048 0.16622 0.0
C560 C 0.16494 0.42583 0.13246 0.0
C561 C 0.22148 0.44018 0.11805 0.0
C562 C 0.15879 0.4487 0.14073 0.0
C563 C 0.14002 0.45718 0.12674 0.0
C564 C 0.12723 0.4429 0.10423 0.0
C565 C 0.13331 0.41983 0.09641 0.0
C566 C 0.15197 0.41141 0.11038 0.0
H567 H 0.24319 0.44335 0.11495 0.0
H568 H 0.21181 0.43307 0.09847 0.0
H569 H 0.21592 0.45801 0.12452 0.0
H570 H 0.16866 0.46003 0.15781 0.0
H571 H 0.1359 0.47506 0.13321 0.0
H572 H 0.61474 0.28507 0.97927 0.0
H573 H 0.59306 0.24595 0.99505 0.0
H574 H 0.62309 0.20755 0.92542 0.0
H575 H 0.64543 0.24688 0.90965 0.0
H576 H 0.55519 0.20966 0.97305 0.0
H577 H 0.64486 0.17273 0.98561 0.0
H578 H 0.64639 0.20434 0.98004 0.0
H579 H 0.64096 0.18084 0.95222 0.0
C580 C 0.61691 0.26837 0.96725 0.0
C581 C 0.63213 0.26931 0.94322 0.0
C582 C 0.6044 0.2459 0.97635 0.0
C583 C 0.60672 0.22361 0.9618 0.0
C584 C 0.62147 0.22439 0.93748 0.0
H585 H 0.51034 0.07911 0.98204 0.0
H586 H 0.53651 0.11628 0.96482 0.0
C587 C 0.63411 0.24696 0.92834 0.0
C588 C 0.59319 0.19981 0.97206 0.0
H589 H 0.6037 0.14601 0.99258 0.0
C590 C 0.56588 0.1958 0.97727 0.0
C591 C 0.60702 0.18164 0.97792 0.0
C592 C 0.63646 0.18511 0.97392 0.0
C593 C 0.55211 0.17421 0.98776 0.0
C594 C 0.56588 0.15602 0.9933 0.0
C595 C 0.59316 0.15997 0.98831 0.0
C596 C 0.55189 0.13261 1.00373 0.0
C597 C 0.52288 0.17098 0.99318 0.0
C598 C 0.55221 0.12914 0.03132 0.0
C599 C 0.53738 0.10771 0.04121 0.0
C600 C 0.52189 0.08947 0.02367 0.0
C601 C 0.52207 0.09284 0.99604 0.0
C602 C 0.53702 0.11407 0.98616 0.0
H603 H 0.51528 0.18747 0.98946 0.0
H604 H 0.51224 0.15509 0.97996 0.0
H605 H 0.51837 0.16699 0.01444 0.0
H606 H 0.56334 0.14331 0.04531 0.0
H607 H 0.53712 0.10595 0.06266 0.0
H608 H 0.88348 0.75746 0.44362 0.0
H609 H 0.89662 0.79721 0.46927 0.0
H610 H 0.96832 0.81176 0.4218 0.0
H611 H 0.95486 0.77193 0.39521 0.0
H612 H 0.93882 0.8174 0.50068 0.0
H613 H 0.93748 0.87117 0.41309 0.0
H614 H 0.92419 0.83863 0.4115 0.0
H615 H 0.95917 0.84992 0.40889 0.0
C616 C 0.90213 0.76899 0.43855 0.0
C617 C 0.91804 0.76153 0.41712 0.0
C618 C 0.90962 0.79176 0.45335 0.0
C619 C 0.93322 0.80765 0.44722 0.0
C620 C 0.94968 0.80001 0.42647 0.0
H621 H 1.00385 0.95659 0.50371 0.0
H622 H 0.99221 0.91501 0.48164 0.0
C623 C 0.94206 0.7772 0.41139 0.0
C624 C 0.94005 0.83234 0.46234 0.0
H625 H 0.95178 0.89346 0.45448 0.0
C626 C 0.94174 0.83408 0.49062 0.0
C627 C 0.94353 0.85405 0.44921 0.0
C628 C 0.94078 0.85346 0.41904 0.0
C629 C 0.94757 0.85693 0.50607 0.0
C630 C 0.95119 0.87869 0.4929 0.0
C631 C 0.94913 0.87685 0.46463 0.0
C632 C 0.95839 0.90362 0.50758 0.0
C633 C 0.9505 0.85739 0.53621 0.0
C634 C 0.94339 0.91124 0.52973 0.0
C635 C 0.9506 0.93493 0.54296 0.0
C636 C 0.97221 0.95157 0.53348 0.0
C637 C 0.98686 0.94411 0.51115 0.0
C638 C 0.98022 0.92035 0.49854 0.0
H639 H 0.95474 0.83992 0.54184 0.0
H640 H 0.96653 0.87268 0.54395 0.0
H641 H 0.93178 0.85989 0.54644 0.0
H642 H 0.92597 0.89903 0.53662 0.0
H643 H 0.93899 0.94043 0.5601 0.0
H644 H 0.30442 0.79316 0.60611 0.0
H645 H 0.33109 0.76196 0.59666 0.0
H646 H 0.39722 0.81737 0.57484 0.0
H647 H 0.37074 0.8488 0.58409 0.0
H648 H 0.36705 0.75466 0.54264 0.0
H649 H 0.41527 0.77881 0.64301 0.0
H650 H 0.38251 0.78353 0.6377 0.0
H651 H 0.41047 0.80301 0.62363 0.0
C652 C 0.32452 0.7987 0.59895 0.0
C653 C 0.33551 0.82345 0.59588 0.0
C654 C 0.33966 0.78085 0.59355 0.0
C655 C 0.36599 0.78753 0.58515 0.0
C656 C 0.37685 0.81203 0.5813 0.0
H657 H 0.4891 0.7032 0.57923 0.0
H658 H 0.46516 0.73629 0.57735 0.0
C659 C 0.3617 0.82989 0.58656 0.0
C660 C 0.38252 0.76904 0.58189 0.0
H661 H 0.42749 0.74668 0.61483 0.0
C662 C 0.38039 0.7529 0.55828 0.0
C663 C 0.39983 0.76705 0.6024 0.0
C664 C 0.40228 0.7839 0.62824 0.0
C665 C 0.39527 0.73457 0.55468 0.0
C666 C 0.41218 0.73221 0.57548 0.0
C667 C 0.41454 0.74865 0.59891 0.0
C668 C 0.42676 0.71215 0.57404 0.0
C669 C 0.39292 0.71802 0.52862 0.0
C670 C 0.41302 0.68771 0.57272 0.0
C671 C 0.4266 0.66883 0.57387 0.0
C672 C 0.45411 0.67415 0.57662 0.0
C673 C 0.46787 0.69863 0.57741 0.0
C674 C 0.45427 0.71749 0.5762 0.0
H675 H 0.38537 0.7265 0.5121 0.0
H676 H 0.41223 0.71358 0.5222 0.0
H677 H 0.37887 0.70062 0.53166 0.0
H678 H 0.39172 0.68328 0.57173 0.0
H679 H 0.41545 0.65017 0.57364 0.0
H680 H 0.73382 0.77674 0.75212 0.0
H681 H 0.76532 0.8068 0.72889 0.0
H682 H 0.76854 0.85894 0.79923 0.0
H683 H 0.737 0.82881 0.82282 0.0
H684 H 0.76771 0.87822 0.74535 0.0
H685 H 0.84364 0.82271 0.7547 0.0
H686 H 0.81304 0.80627 0.74014 0.0
H687 H 0.81368 0.81893 0.7748 0.0
C688 C 0.74087 0.79475 0.76254 0.0
C689 C 0.7329 0.80043 0.78931 0.0
C690 C 0.75888 0.81185 0.74923 0.0
C691 C 0.76944 0.83487 0.76253 0.0
C692 C 0.76051 0.84119 0.7887 0.0
H693 H 0.91563 0.9315 0.72425 0.0
H694 H 0.87869 0.90547 0.74575 0.0
C695 C 0.74235 0.82404 0.80207 0.0
C696 C 0.79122 0.85147 0.74973 0.0
H697 H 0.85521 0.85644 0.72863 0.0
C698 C 0.78689 0.87357 0.74172 0.0
C699 C 0.8162 0.8453 0.74529 0.0
C700 C 0.82212 0.82212 0.75434 0.0
C701 C 0.80692 0.88961 0.72894 0.0
C702 C 0.83172 0.88316 0.72399 0.0
C703 C 0.8361 0.8612 0.73233 0.0
C704 C 0.85374 0.89918 0.71076 0.0
C705 C 0.80155 0.91342 0.72116 0.0
C706 C 0.85204 0.90388 0.6838 0.0
C707 C 0.87329 0.9185 0.67127 0.0
C708 C 0.89661 0.92864 0.68551 0.0
C709 C 0.89818 0.92371 0.71252 0.0
C710 C 0.877 0.90902 0.72494 0.0
H711 H 0.78374 0.91808 0.73165 0.0
H712 H 0.81863 0.92871 0.72593 0.0
H713 H 0.7983 0.91179 0.69907 0.0
H714 H 0.83442 0.89598 0.67236 0.0
H715 H 0.87156 0.92158 0.65034 0.0
H716 H 0.73995 0.17571 0.38112 0.0
H717 H 0.7118 0.16396 0.34156 0.0
H718 H 0.64357 0.14647 0.39345 0.0
H719 H 0.67139 0.15825 0.43315 0.0
H720 H 0.67531 0.1185 0.32613 0.0
H721 H 0.6269 0.1985 0.34617 0.0
H722 H 0.65733 0.19711 0.36188 0.0
H723 H 0.6266 0.17996 0.37369 0.0
C724 C 0.719 0.1691 0.38414 0.0
C725 C 0.70787 0.16809 0.41026 0.0
C726 C 0.70299 0.16246 0.36155 0.0
C727 C 0.67567 0.15486 0.36478 0.0
C728 C 0.66461 0.15275 0.3907 0.0
H729 H 0.55369 0.10773 0.24407 0.0
H730 H 0.57648 0.12027 0.28714 0.0
C731 C 0.68058 0.15933 0.41331 0.0
C732 C 0.65872 0.14955 0.34094 0.0
H733 H 0.61187 0.1702 0.30867 0.0
C734 C 0.6614 0.12973 0.3223 0.0
C735 C 0.64063 0.16433 0.33622 0.0
C736 C 0.63772 0.1863 0.35539 0.0
C737 C 0.64639 0.12428 0.29884 0.0
C738 C 0.62864 0.13928 0.29391 0.0
C739 C 0.62558 0.15885 0.31272 0.0
C740 C 0.61392 0.1352 0.26865 0.0
C741 C 0.64959 0.10256 0.2794 0.0
C742 C 0.62737 0.14036 0.24438 0.0
C743 C 0.61459 0.13311 0.21988 0.0
C744 C 0.58809 0.12067 0.21934 0.0
C745 C 0.5742 0.11701 0.24388 0.0
C746 C 0.58708 0.12424 0.26843 0.0
H747 H 0.66047 0.09033 0.28848 0.0
H748 H 0.63005 0.09173 0.27272 0.0
H749 H 0.66073 0.10919 0.26122 0.0
H750 H 0.64812 0.14894 0.24437 0.0
H751 H 0.62596 0.13594 0.20139 0.0
H752 H 0.45508 0.6695 0.28944 0.0
H753 H 0.46848 0.64608 0.32358 0.0
H754 H 0.4307 0.68672 0.3856 0.0
H755 H 0.41658 0.70964 0.35148 0.0
H756 H 0.49907 0.65735 0.366 0.0
H757 H 0.39903 0.61929 0.40388 0.0
H758 H 0.40449 0.63528 0.37385 0.0
H759 H 0.40602 0.65214 0.40678 0.0
C760 C 0.44961 0.67352 0.31034 0.0
C761 C 0.43462 0.69156 0.3175 0.0
C762 C 0.4573 0.66002 0.32995 0.0
C763 C 0.4502 0.66403 0.35737 0.0
C764 C 0.43584 0.68252 0.36464 0.0
H765 H 0.48318 0.60636 0.50729 0.0
H766 H 0.46929 0.6291 0.47278 0.0
C767 C 0.428 0.69592 0.34503 0.0
C768 C 0.45823 0.64927 0.37824 0.0
H769 H 0.43474 0.61421 0.43003 0.0
C770 C 0.48489 0.64782 0.37984 0.0
C771 C 0.43993 0.63657 0.39649 0.0
C772 C 0.41075 0.63565 0.39503 0.0
C773 C 0.49376 0.63476 0.3993 0.0
C774 C 0.47551 0.62239 0.41775 0.0
C775 C 0.44886 0.62373 0.41612 0.0
C776 C 0.48368 0.60805 0.43882 0.0
C777 C 0.5228 0.63487 0.40034 0.0
C778 C 0.49604 0.58819 0.43152 0.0
C779 C 0.50397 0.57506 0.45129 0.0
C780 C 0.49968 0.5813 0.47901 0.0
C781 C 0.4869 0.60094 0.48626 0.0
C782 C 0.4789 0.61402 0.46646 0.0
H783 H 0.53486 0.65023 0.3901 0.0
H784 H 0.52943 0.63632 0.42153 0.0
H785 H 0.52661 0.61747 0.38987 0.0
H786 H 0.49949 0.58271 0.41043 0.0
H787 H 0.51363 0.56005 0.44476 0.0
H788 H 0.15046 0.45865 0.76223 0.0
H789 H 0.12937 0.47822 0.80097 0.0
H790 H 0.12736 0.4153 0.84476 0.0
H791 H 0.14802 0.3955 0.8062 0.0
H792 H 0.0763 0.45154 0.82667 0.0
H793 H 0.16163 0.48082 0.89579 0.0
H794 H 0.16571 0.47742 0.85947 0.0
H795 H 0.15703 0.45076 0.87761 0.0
C796 C 0.14586 0.44914 0.78025 0.0
C797 C 0.15089 0.42551 0.78112 0.0
C798 C 0.13372 0.46029 0.80229 0.0
C799 C 0.12688 0.4482 0.8257 0.0
C800 C 0.13259 0.42496 0.82692 0.0
H801 H 0.04365 0.48292 0.97638 0.0
H802 H 0.06704 0.46245 0.94015 0.0
C803 C 0.14436 0.41368 0.80483 0.0
C804 C 0.11265 0.45924 0.84845 0.0
H805 H 0.12014 0.48656 0.91309 0.0
C806 C 0.08587 0.45927 0.84554 0.0
C807 C 0.12516 0.46904 0.87309 0.0
C808 C 0.15401 0.46972 0.87687 0.0
C809 C 0.07123 0.46886 0.86673 0.0
C810 C 0.08381 0.47894 0.89128 0.0
C811 C 0.11054 0.47871 0.89427 0.0
C812 C 0.06982 0.49107 0.91343 0.0
C813 C 0.04236 0.46803 0.86289 0.0
C814 C 0.06377 0.51389 0.91046 0.0
C815 C 0.05116 0.52583 0.93138 0.0
C816 C 0.04418 0.51515 0.95568 0.0
C817 C 0.04966 0.49199 0.9584 0.0
C818 C 0.06272 0.48017 0.93757 0.0
H819 H 0.03446 0.45557 0.84493 0.0
H820 H 0.03077 0.46189 0.88104 0.0
H821 H 0.03952 0.48672 0.86014 0.0
H822 H 0.06905 0.5226 0.892 0.0
H823 H 0.04696 0.54354 0.92852 0.0
H824 H 0.66462 0.86732 0.91485 0.0
H825 H 0.64232 0.89399 0.94515 0.0
H826 H 0.58622 0.89352 0.88308 0.0
H827 H 0.608 0.86643 0.8529 0.0
H828 H 0.6357 0.93994 0.9378 0.0
H829 H 0.53802 0.87829 0.94756 0.0
H830 H 0.56651 0.86736 0.93369 0.0
H831 H 0.54814 0.88243 0.91321 0.0
C832 C 0.64746 0.87279 0.90768 0.0
C833 C 0.6381 0.86475 0.88143 0.0
C834 C 0.6347 0.888 0.92505 0.0
C835 C 0.61234 0.89547 0.91656 0.0
C836 C 0.60301 0.88752 0.89035 0.0
H837 H 0.5101 0.9908 0.98512 0.0
H838 H 0.53261 0.96309 0.95652 0.0
C839 C 0.61564 0.87217 0.87303 0.0
C840 C 0.59972 0.91267 0.93458 0.0
H841 H 0.54124 0.92005 0.96435 0.0
C842 C 0.61508 0.93556 0.94376 0.0
C843 C 0.57279 0.90695 0.94225 0.0
C844 C 0.55544 0.88234 0.93389 0.0
C845 C 0.60415 0.95318 0.95976 0.0
C846 C 0.57717 0.94753 0.96742 0.0
C847 C 0.56188 0.92448 0.95844 0.0
C848 C 0.56428 0.96525 0.98446 0.0
C849 C 0.62152 0.97793 0.96746 0.0
C850 C 0.57452 0.97579 1.00972 0.0
C851 C 0.56207 0.99219 0.02573 0.0
C852 C 0.53867 0.99772 0.01718 0.0
C853 C 0.5282 0.98693 0.99213 0.0
C854 C 0.54099 0.97101 0.97584 0.0
H855 H 0.63858 0.98186 0.9533 0.0
H856 H 0.61039 0.99286 0.96774 0.0
H857 H 0.62947 0.97812 0.98791 0.0
H858 H 0.59188 0.97102 0.01734 0.0
H859 H 0.57023 0.99982 0.04524 0.0
H860 H 0.76966 0.11802 0.51049 0.0
H861 H 0.80475 0.09565 0.51521 0.0
H862 H 0.86316 0.16188 0.50775 0.0
H863 H 0.82824 0.18431 0.50238 0.0
H864 H 0.87652 0.11862 0.47983 0.0
H865 H 0.84512 0.10782 0.58666 0.0
H866 H 0.81954 0.09641 0.56244 0.0
H867 H 0.83365 0.12868 0.56687 0.0
C868 C 0.78997 0.12779 0.5097 0.0
C869 C 0.79624 0.15297 0.50647 0.0
C870 C 0.80995 0.11499 0.51231 0.0
C871 C 0.83641 0.12725 0.51212 0.0
C872 C 0.84279 0.15215 0.50788 0.0
H873 H 0.95911 0.08396 0.5925 0.0
H874 H 0.93022 0.10679 0.57328 0.0
C875 C 0.82283 0.16493 0.50501 0.0
C876 C 0.85727 0.11464 0.51867 0.0
H877 H 0.87867 0.08775 0.56954 0.0
C878 C 0.87711 0.11182 0.49941 0.0
C879 C 0.85805 0.10624 0.54439 0.0
C880 C 0.83812 0.1101 0.5664 0.0
C881 C 0.89775 0.10055 0.50524 0.0
C882 C 0.89813 0.0917 0.53079 0.0
C883 C 0.87824 0.09453 0.54993 0.0
C884 C 0.91923 0.08004 0.53891 0.0
C885 C 0.91921 0.09871 0.48437 0.0
C886 C 0.92331 0.05786 0.52537 0.0
C887 C 0.94021 0.04496 0.53616 0.0
C888 C 0.95254 0.05391 0.56085 0.0
C889 C 0.94943 0.0766 0.57361 0.0
C890 C 0.93305 0.08966 0.56262 0.0
H891 H 0.91962 0.11169 0.46882 0.0
H892 H 0.93883 0.10242 0.49396 0.0
H893 H 0.91564 0.07985 0.47402 0.0
H894 H 0.91247 0.04994 0.50731 0.0
H895 H 0.94249 0.02746 0.52604 0.0
H896 H 0.25851 0.68993 0.19197 0.0
H897 H 0.2169 0.66691 0.17204 0.0
H898 H 0.2599 0.63765 0.10545 0.0
H899 H 0.30141 0.66059 0.12497 0.0
H900 H 0.19973 0.66994 0.11446 0.0
H901 H 0.2089 0.57671 0.13639 0.0
H902 H 0.22609 0.60421 0.15555 0.0
H903 H 0.23738 0.59568 0.12218 0.0
C904 C 0.25914 0.67847 0.17318 0.0
C905 C 0.2834 0.67712 0.16014 0.0
C906 C 0.23532 0.66537 0.16178 0.0
C907 C 0.2353 0.65041 0.13735 0.0
C908 C 0.25944 0.64887 0.12444 0.0
H909 H 0.11644 0.54773 0.04046 0.0
H910 H 0.157 0.57139 0.06174 0.0
C911 C 0.28318 0.66208 0.13565 0.0
C912 C 0.21012 0.63688 0.12481 0.0
H913 H 0.17356 0.57927 0.10913 0.0
C914 C 0.19385 0.65012 0.11337 0.0
C915 C 0.20274 0.61103 0.12307 0.0
C916 C 0.21953 0.59595 0.13506 0.0
C917 C 0.17072 0.6382 0.09963 0.0
C918 C 0.16292 0.61222 0.09825 0.0
C919 C 0.17925 0.59909 0.11001 0.0
C920 C 0.13818 0.59825 0.08465 0.0
C921 C 0.15565 0.6537 0.08581 0.0
C922 C 0.11382 0.60509 0.09035 0.0
C923 C 0.09086 0.5921 0.07737 0.0
C924 C 0.09144 0.57128 0.05925 0.0
C925 C 0.11549 0.56381 0.05422 0.0
C926 C 0.13865 0.57732 0.0665 0.0
H927 H 0.16867 0.67108 0.08064 0.0
H928 H 0.14638 0.64382 0.06698 0.0
H929 H 0.14003 0.65868 0.09973 0.0
H930 H 0.11238 0.62033 0.10511 0.0
H931 H 0.07245 0.59792 0.08214 0.0
H932 H 0.24948 0.46626 0.64627 0.0
H933 H 0.29152 0.48324 0.62459 0.0
H934 H 0.32682 0.42856 0.65539 0.0
H935 H 0.28496 0.41152 0.67729 0.0
H936 H 0.34373 0.50056 0.65052 0.0
H937 H 0.33986 0.42279 0.57083 0.0
H938 H 0.3109 0.42877 0.58925 0.0
H939 H 0.33392 0.41491 0.605 0.0
C940 C 0.2662 0.45788 0.64852 0.0
C941 C 0.26384 0.43749 0.66349 0.0
C942 C 0.29019 0.46762 0.63614 0.0
C943 C 0.31214 0.45698 0.63819 0.0
C944 C 0.31 0.43686 0.65336 0.0
H945 H 0.4763 0.51624 0.59761 0.0
H946 H 0.43465 0.50132 0.62103 0.0
C947 C 0.28609 0.42723 0.66596 0.0
C948 C 0.3373 0.46692 0.62441 0.0
H949 H 0.37882 0.4534 0.57306 0.0
C950 C 0.35145 0.49032 0.63356 0.0
C951 C 0.3471 0.45355 0.60216 0.0
C952 C 0.33215 0.42867 0.59099 0.0
C953 C 0.37537 0.50067 0.62118 0.0
C954 C 0.38549 0.48709 0.59924 0.0
C955 C 0.37113 0.46376 0.58995 0.0
C956 C 0.41074 0.49679 0.58533 0.0
C957 C 0.38929 0.52622 0.6314 0.0
C958 C 0.41129 0.49866 0.55737 0.0
C959 C 0.43512 0.50676 0.54389 0.0
C960 C 0.4588 0.51323 0.55816 0.0
C961 C 0.45825 0.51164 0.58618 0.0
C962 C 0.43445 0.50324 0.5996 0.0
H963 H 0.37573 0.53644 0.64311 0.0
H964 H 0.40538 0.52503 0.64499 0.0
H965 H 0.39808 0.53682 0.61446 0.0
H966 H 0.39326 0.49372 0.54593 0.0
H967 H 0.43505 0.50782 0.52228 0.0
H968 H 0.75177 0.71037 0.89647 0.0
H969 H 0.78587 0.69317 0.9158 0.0
H970 H 0.80017 0.65693 0.83781 0.0
H971 H 0.76605 0.67392 0.81819 0.0
H972 H 0.78818 0.63088 0.89841 0.0
H973 H 0.87217 0.70866 0.88287 0.0
H974 H 0.83966 0.71433 0.89103 0.0
H975 H 0.84596 0.69937 0.85867 0.0
C976 C 0.76217 0.69877 0.8834 0.0
C977 C 0.75622 0.6935 0.8558 0.0
C978 C 0.78159 0.68899 0.89448 0.0
C979 C 0.79542 0.67395 0.87812 0.0
C980 C 0.78959 0.66856 0.85064 0.0
H981 H 0.93373 0.62018 0.91872 0.0
H982 H 0.90019 0.63423 0.89449 0.0
C983 C 0.7701 0.67825 0.83953 0.0
C984 C 0.81583 0.66364 0.88988 0.0
H985 H 0.88097 0.6764 0.90555 0.0
C986 C 0.80851 0.6407 0.89993 0.0
C987 C 0.84223 0.67653 0.89145 0.0
C988 C 0.85073 0.70112 0.88045 0.0
C989 C 0.82706 0.63034 0.91198 0.0
C990 C 0.85339 0.64359 0.9144 0.0
C991 C 0.86076 0.66634 0.90374 0.0
C992 C 0.87338 0.6346 0.92877 0.0
C993 C 0.81831 0.60525 0.92179 0.0
C994 C 0.86952 0.63053 0.9561 0.0
C995 C 0.88854 0.62252 0.96991 0.0
C996 C 0.91193 0.61869 0.95672 0.0
C997 C 0.91593 0.62309 0.92941 0.0
C998 C 0.89679 0.631 0.91555 0.0
H999 H 0.80029 0.59475 0.91134 0.0
H1000 H 0.83405 0.59448 0.91864 0.0
H1001 H 0.81364 0.60729 0.94373 0.0
H1002 H 0.85192 0.63388 0.96687 0.0
H1003 H 0.88517 0.61977 0.99109 0.0
H1004 H 0.37042 0.8096 0.21154 0.0
H1005 H 0.38434 0.8484 0.19126 0.0
H1006 H 0.46324 0.83555 0.18148 0.0
H1007 H 0.4495 0.79671 0.2025 0.0
H1008 H 0.43542 0.89145 0.20763 0.0
H1009 H 0.42887 0.84538 0.10287 0.0
H1010 H 0.40937 0.83192 0.13041 0.0
H1011 H 0.44397 0.83228 0.12834 0.0
C1012 C 0.39087 0.81516 0.20548 0.0
C1013 C 0.40888 0.80004 0.20888 0.0
C1014 C 0.39878 0.83739 0.19383 0.0
C1015 C 0.4248 0.84493 0.1847 0.0
C1016 C 0.44304 0.83016 0.18842 0.0
H1017 H 0.50776 0.95951 0.0912 0.0
H1018 H 0.48951 0.92197 0.11212 0.0
C1019 C 0.43523 0.80803 0.20061 0.0
C1020 C 0.43245 0.86783 0.17056 0.0
H1021 H 0.4432 0.8883 0.10776 0.0
C1022 C 0.43709 0.8908 0.18579 0.0
C1023 C 0.4344 0.86704 0.14207 0.0
C1024 C 0.42882 0.84291 0.12475 0.0
C1025 C 0.44432 0.91288 0.17336 0.0
C1026 C 0.44643 0.91213 0.14478 0.0
C1027 C 0.44147 0.88908 0.12959 0.0
C1028 C 0.45585 0.93479 0.13039 0.0
C1029 C 0.45056 0.93681 0.19101 0.0
C1030 C 0.44264 0.95456 0.13269 0.0
C1031 C 0.45303 0.97624 0.12036 0.0
C1032 C 0.47692 0.97856 0.10562 0.0
C1033 C 0.48937 0.95838 0.10247 0.0
C1034 C 0.47894 0.93683 0.11449 0.0
H1035 H 0.45365 0.93399 0.21235 0.0
H1036 H 0.46849 0.94898 0.1835 0.0
H1037 H 0.43388 0.94634 0.19059 0.0
H1038 H 0.4245 0.95339 0.14437 0.0
H1039 H 0.44303 0.99147 0.1233 0.0
H1040 H 0.11711 0.29706 0.63568 0.0
H1041 H 0.10016 0.25337 0.62259 0.0
H1042 H 0.12926 0.2353 0.69638 0.0
H1043 H 0.14651 0.27885 0.70962 0.0
H1044 H 0.13377 0.21188 0.62232 0.0
H1045 H 0.04479 0.20441 0.68952 0.0
H1046 H 0.06047 0.23299 0.6766 0.0
H1047 H 0.07599 0.22133 0.70258 0.0
C1048 C 0.12006 0.2838 0.64907 0.0
C1049 C 0.13316 0.29145 0.67371 0.0
C1050 C 0.11036 0.25889 0.64155 0.0
C1051 C 0.11335 0.24127 0.65865 0.0
C1052 C 0.12669 0.24873 0.68304 0.0
H1053 H 0.04766 0.0832 0.64662 0.0
H1054 H 0.06886 0.12524 0.66346 0.0
C1055 C 0.1366 0.2736 0.69048 0.0
C1056 C 0.10242 0.21504 0.65103 0.0
H1057 H 0.05077 0.1685 0.66331 0.0
C1058 C 0.11568 0.20232 0.63129 0.0
C1059 C 0.07897 0.20273 0.66301 0.0
C1060 C 0.06401 0.21594 0.68406 0.0
C1061 C 0.106 0.17744 0.6231 0.0
C1062 C 0.08211 0.16521 0.63453 0.0
C1063 C 0.0691 0.17789 0.65464 0.0
C1064 C 0.06954 0.13974 0.62467 0.0
C1065 C 0.1216 0.16446 0.60242 0.0
C1066 C 0.06255 0.13412 0.59748 0.0
C1067 C 0.0507 0.1103 0.58785 0.0
C1068 C 0.04522 0.09152 0.60526 0.0
C1069 C 0.0518 0.0972 0.63266 0.0
C1070 C 0.06384 0.12118 0.6423 0.0
H1071 H 0.14273 0.17369 0.60222 0.0
H1072 H 0.12013 0.14505 0.60636 0.0
H1073 H 0.11373 0.16473 0.58203 0.0
H1074 H 0.06608 0.14826 0.58367 0.0
H1075 H 0.04565 0.10674 0.56668 0.0
H1076 H 0.69018 0.25922 0.4455 0.0
H1077 H 0.66361 0.28896 0.46141 0.0
H1078 H 0.70598 0.3046 0.5363 0.0
H1079 H 0.73319 0.27492 0.52031 0.0
H1080 H 0.63102 0.29105 0.50798 0.0
H1081 H 0.71417 0.37207 0.50705 0.0
H1082 H 0.71649 0.3424 0.49048 0.0
H1083 H 0.71835 0.34788 0.5266 0.0
C1084 C 0.69395 0.26895 0.46536 0.0
C1085 C 0.71397 0.2649 0.48156 0.0
C1086 C 0.67862 0.28586 0.47446 0.0
C1087 C 0.68301 0.29906 0.4999 0.0
C1088 C 0.70259 0.29477 0.51644 0.0
H1089 H 0.60916 0.42446 0.5488 0.0
H1090 H 0.63232 0.39116 0.55297 0.0
C1091 C 0.71805 0.27782 0.5073 0.0
C1092 C 0.66744 0.31785 0.50827 0.0
H1093 H 0.6719 0.37974 0.5162 0.0
C1094 C 0.63995 0.31044 0.51023 0.0
C1095 C 0.67924 0.34309 0.51122 0.0
C1096 C 0.70865 0.35199 0.50859 0.0
C1097 C 0.62381 0.32771 0.51397 0.0
C1098 C 0.63554 0.35291 0.51547 0.0
C1099 C 0.66307 0.36033 0.51506 0.0
C1100 C 0.61971 0.37178 0.51432 0.0
C1101 C 0.59433 0.31886 0.51555 0.0
C1102 C 0.60514 0.37184 0.49115 0.0
C1103 C 0.59227 0.39093 0.48849 0.0
C1104 C 0.59374 0.41035 0.509 0.0
C1105 C 0.60793 0.40994 0.53249 0.0
C1106 C 0.62097 0.39087 0.53503 0.0
H1107 H 0.58902 0.3002 0.52248 0.0
H1108 H 0.58506 0.33154 0.52943 0.0
H1109 H 0.586 0.318 0.49515 0.0
H1110 H 0.6045 0.35754 0.47466 0.0
H1111 H 0.58199 0.39089 0.46992 0.0
loop_
_geom_bond_atom_site_label_1
_geom_bond_atom_site_label_2
_geom_bond_distance
_geom_bond_site_symmetry_2
_ccdc_geom_bond_type
O0 Cd1 2.300 . S
O0 C7 1.275 . S
Cd1 O0 2.300 . S
Cd1 O9 2.381 . S
Cd1 O10 2.378 . S
O2 Cd3 2.385 . S
O2 C7 1.255 . S
Cd3 O2 2.385 . S
Cd3 O4 2.317 . S
O4 Cd3 2.317 . S
O4 C5 1.232 . S
C5 O4 1.232 . S
C5 O6 1.218 . S
O6 C5 1.218 . S
C7 O0 1.275 . S
C7 O2 1.255 . S
C8 O9 1.258 . S
C8 O10 1.256 . S
O9 Cd1 2.381 . S
O9 C8 1.258 . S
O10 Cd1 2.378 . S
O10 C8 1.256 . S
O11 Cd12 2.300 . S
O11 C18 1.275 . S
Cd12 O11 2.300 . S
Cd12 O20 2.381 . S
Cd12 O21 2.378 . S
O13 Cd14 2.385 . S
O13 C18 1.255 . S
Cd14 O13 2.385 . S
Cd14 O15 2.317 . S
O15 Cd14 2.317 . S
O15 C16 1.232 . S
C16 O15 1.232 . S
C16 O17 1.218 . S
O17 C16 1.218 . S
C18 O11 1.275 . S
C18 O13 1.255 . S
C19 O20 1.258 . S
C19 O21 1.256 . S
O20 Cd12 2.381 . S
O20 C19 1.258 . S
O21 Cd12 2.378 . S
O21 C19 1.256 . S
O22 Cd23 2.300 . S
O22 C29 1.275 . S
Cd23 O22 2.300 . S
Cd23 O31 2.381 . S
Cd23 O32 2.378 . S
O24 Cd25 2.385 . S
O24 C29 1.255 . S
Cd25 O24 2.385 . S
Cd25 O26 2.317 . S
O26 Cd25 2.317 . S
O26 C27 1.232 . S
C27 O26 1.232 . S
C27 O28 1.218 . S
O28 C27 1.218 . S
C29 O22 1.275 . S
C29 O24 1.255 . S
C30 O31 1.258 . S
C30 O32 1.256 . S
O31 Cd23 2.381 . S
O31 C30 1.258 . S
O32 Cd23 2.378 . S
O32 C30 1.256 . S
O33 Cd34 2.300 . S
O33 C40 1.275 . S
Cd34 O33 2.300 . S
Cd34 O42 2.381 . S
Cd34 O43 2.378 . S
O35 Cd36 2.385 . S
O35 C40 1.255 . S
Cd36 O35 2.385 . S
Cd36 O37 2.317 . S
O37 Cd36 2.317 . S
O37 C38 1.232 . S
C38 O37 1.232 . S
C38 O39 1.218 . S
O39 C38 1.218 . S
C40 O33 1.275 . S
C40 O35 1.255 . S
C41 O42 1.258 . S
C41 O43 1.256 . S
O42 Cd34 2.381 . S
O42 C41 1.258 . S
O43 Cd34 2.378 . S
O43 C41 1.256 . S
O44 Cd45 2.300 . S
O44 C51 1.275 . S
Cd45 O44 2.300 . S
Cd45 O53 2.381 . S
Cd45 O54 2.378 . S
O46 Cd47 2.385 . S
O46 C51 1.255 . S
Cd47 O46 2.385 . S
Cd47 O48 2.317 . S
O48 Cd47 2.317 . S
O48 C49 1.232 . S
C49 O48 1.232 . S
C49 O50 1.218 . S
O50 C49 1.218 . S
C51 O44 1.275 . S
C51 O46 1.255 . S
C52 O53 1.258 . S
C52 O54 1.256 . S
O53 Cd45 2.381 . S
O53 C52 1.258 . S
O54 Cd45 2.378 . S
O54 C52 1.256 . S
O55 Cd56 2.300 . S
O55 C62 1.275 . S
Cd56 O55 2.300 . S
Cd56 O64 2.381 . S
Cd56 O65 2.378 . S
O57 Cd58 2.385 . S
O57 C62 1.255 . S
Cd58 O57 2.385 . S
Cd58 O59 2.317 . S
O59 Cd58 2.317 . S
O59 C60 1.232 . S
C60 O59 1.232 . S
C60 O61 1.218 . S
O61 C60 1.218 . S
C62 O55 1.275 . S
C62 O57 1.255 . S
C63 O64 1.258 . S
C63 O65 1.256 . S
O64 Cd56 2.381 . S
O64 C63 1.258 . S
O65 Cd56 2.378 . S
O65 C63 1.256 . S
O66 Cd67 2.300 . S
O66 C73 1.275 . S
Cd67 O66 2.300 . S
Cd67 O75 2.381 . S
Cd67 O76 2.378 . S
O68 Cd69 2.385 . S
O68 C73 1.255 . S
Cd69 O68 2.385 . S
Cd69 O70 2.317 . S
O70 Cd69 2.317 . S
O70 C71 1.232 . S
C71 O70 1.232 . S
C71 O72 1.218 . S
O72 C71 1.218 . S
C73 O66 1.275 . S
C73 O68 1.255 . S
C74 O75 1.258 . S
C74 O76 1.256 . S
O75 Cd67 2.381 . S
O75 C74 1.258 . S
O76 Cd67 2.378 . S
O76 C74 1.256 . S
O77 Cd78 2.300 . S
O77 C84 1.275 . S
Cd78 O77 2.300 . S
Cd78 O86 2.381 . S
Cd78 O87 2.378 . S
O79 Cd80 2.385 . S
O79 C84 1.255 . S
Cd80 O79 2.385 . S
Cd80 O81 2.317 . S
O81 Cd80 2.317 . S
O81 C82 1.232 . S
C82 O81 1.232 . S
C82 O83 1.218 . S
O83 C82 1.218 . S
C84 O77 1.275 . S
C84 O79 1.255 . S
C85 O86 1.258 . S
C85 O87 1.256 . S
O86 Cd78 2.381 . S
O86 C85 1.258 . S
O87 Cd78 2.378 . S
O87 C85 1.256 . S
La88 C90 2.928 . S
La88 O108 2.521 . S
La88 O109 2.628 . S
La88 O110 2.554 1_545 S
La88 O111 2.757 1_545 S
La88 O112 2.470 . S
La88 O117 2.482 1_455 S
La88 O119 2.503 1_445 S
La89 C99 2.928 1_545 S
La89 O111 2.482 1_645 S
La89 O113 2.503 1_655 S
La89 O114 2.521 1_545 S
La89 O115 2.628 1_545 S
La89 O116 2.554 . S
La89 O117 2.757 . S
La89 O118 2.470 1_545 S
C90 La88 2.928 . S
C90 C91 1.503 . S
C90 O108 1.261 . S
C90 O109 1.243 . S
C91 C90 1.503 . S
C91 C92 1.394 . S
C91 C96 1.373 . S
C92 C91 1.394 . S
C92 C93 1.380 . S
C92 H120 0.930 . S
C93 C92 1.380 . S
C93 C94 1.376 . S
C93 H121 0.930 . S
C94 C93 1.376 . S
C94 C95 1.370 . S
C95 C94 1.370 . S
C95 C96 1.396 . S
C95 H122 0.929 . S
C96 C91 1.373 . S
C96 C95 1.396 . S
C96 H123 0.929 . S
C97 O110 1.240 . S
C97 O111 1.289 . S
C98 O112 1.258 . S
C98 O113 1.256 . S
C99 La89 2.928 1_565 S
C99 C100 1.503 . S
C99 O114 1.261 . S
C99 O115 1.243 . S
C100 C99 1.503 . S
C100 C101 1.394 . S
C100 C105 1.373 . S
C101 C100 1.394 . S
C101 C102 1.380 . S
C101 H124 0.930 . S
C102 C101 1.380 . S
C102 C103 1.376 . S
C102 H125 0.930 . S
C103 C102 1.376 . S
C103 C104 1.370 . S
C104 C103 1.370 . S
C104 C105 1.396 . S
C104 H126 0.929 . S
C105 C100 1.373 . S
C105 C104 1.396 . S
C105 H127 0.929 . S
C106 O116 1.240 . S
C106 O117 1.289 . S
C107 O118 1.258 . S
C107 O119 1.256 . S
O108 La88 2.521 . S
O108 C90 1.261 . S
O109 La88 2.628 . S
O109 C90 1.243 . S
O110 La88 2.554 1_565 S
O110 C97 1.240 . S
O111 La88 2.757 1_565 S
O111 La89 2.482 1_465 S
O111 C97 1.289 . S
O112 La88 2.470 . S
O112 C98 1.258 . S
O113 La89 2.503 1_455 S
O113 C98 1.256 . S
O114 La89 2.521 1_565 S
O114 C99 1.261 . S
O115 La89 2.628 1_565 S
O115 C99 1.243 . S
O116 La89 2.554 . S
O116 C106 1.240 . S
O117 La88 2.482 1_655 S
O117 La89 2.757 . S
O117 C106 1.289 . S
O118 La89 2.470 1_565 S
O118 C107 1.258 . S
O119 La88 2.503 1_665 S
O119 C107 1.256 . S
H120 C92 0.930 . S
H121 C93 0.930 . S
H122 C95 0.929 . S
H123 C96 0.929 . S
H124 C101 0.930 . S
H125 C102 0.930 . S
H126 C104 0.929 . S
H127 C105 0.929 . S
La128 C130 2.928 . S
La128 O148 2.521 . S
La128 O149 2.628 . S
La128 O150 2.554 1_545 S
La128 O151 2.757 . S
La128 O152 2.470 . S
La128 O157 2.482 . S
La128 O159 2.503 . S
La129 C139 2.928 1_544 S
La129 O151 2.482 . S
La129 O153 2.503 . S
La129 O154 2.521 1_554 S
La129 O155 2.628 1_544 S
La129 O156 2.554 . S
La129 O157 2.757 . S
La129 O158 2.470 . S
C130 La128 2.928 . S
C130 C131 1.503 . S
C130 O148 1.261 . S
C130 O149 1.243 . S
C131 C130 1.503 . S
C131 C132 1.394 . S
C131 C136 1.373 . S
C132 C131 1.394 . S
C132 C133 1.380 . S
C132 H160 0.930 . S
C133 C132 1.380 . S
C133 C134 1.376 . S
C133 H161 0.930 . S
C134 C133 1.376 . S
C134 C135 1.370 . S
C135 C134 1.370 . S
C135 C136 1.396 . S
C135 H162 0.929 . S
C136 C131 1.373 . S
C136 C135 1.396 . S
C136 H163 0.929 . S
C137 O150 1.240 . S
C137 O151 1.289 1_565 S
C138 O152 1.258 . S
C138 O153 1.256 . S
C139 La129 2.928 1_566 S
C139 C140 1.503 . S
C139 O154 1.261 1_565 S
C139 O155 1.243 . S
C140 C139 1.503 . S
C140 C141 1.394 . S
C140 C145 1.373 . S
C141 C140 1.394 . S
C141 C142 1.380 . S
C141 H164 0.930 1_565 S
C142 C141 1.380 . S
C142 C143 1.376 . S
C142 H165 0.930 . S
C143 C142 1.376 . S
C143 C144 1.370 . S
C144 C143 1.370 . S
C144 C145 1.396 . S
C144 H166 0.929 . S
C145 C140 1.373 . S
C145 C144 1.396 . S
C145 H167 0.929 . S
C146 O156 1.240 . S
C146 O157 1.289 . S
C147 O158 1.263 . S
C147 O159 1.257 . S
O148 La128 2.521 . S
O148 C130 1.261 . S
O149 La128 2.628 . S
O149 C130 1.243 . S
O150 La128 2.554 1_565 S
O150 C137 1.240 . S
O151 La128 2.757 . S
O151 La129 2.482 . S
O151 C137 1.289 1_545 S
O152 La128 2.470 . S
O152 C138 1.258 . S
O153 La129 2.503 . S
O153 C138 1.256 . S
O154 La129 2.521 1_556 S
O154 C139 1.261 1_545 S
O155 La129 2.628 1_566 S
O155 C139 1.243 . S
O156 La129 2.554 . S
O156 C146 1.240 . S
O157 La128 2.482 . S
O157 La129 2.757 . S
O157 C146 1.289 . S
O158 La129 2.470 . S
O158 C147 1.263 . S
O159 La128 2.503 . S
O159 C147 1.257 . S
H160 C132 0.930 . S
H161 C133 0.930 . S
H162 C135 0.929 . S
H163 C136 0.929 . S
H164 C141 0.930 1_545 S
H165 C142 0.930 . S
H166 C144 0.929 . S
H167 C145 0.929 . S
La168 C170 2.928 . S
La168 O188 2.521 . S
La168 O189 2.628 . S
La168 O190 2.554 . S
La168 O191 2.757 . S
La168 O192 2.470 . S
La168 O197 2.482 . S
La168 O199 2.503 . S
La169 C179 2.928 . S
La169 O191 2.482 . S
La169 O193 2.503 . S
La169 O194 2.521 . S
La169 O195 2.628 . S
La169 O196 2.554 . S
La169 O197 2.757 . S
La169 O198 2.470 . S
C170 La168 2.928 . S
C170 C171 1.503 . S
C170 O188 1.261 . S
C170 O189 1.243 . S
C171 C170 1.503 . S
C171 C172 1.394 . S
C171 C176 1.373 . S
C172 C171 1.394 . S
C172 C173 1.380 . S
C172 H200 0.930 . S
C173 C172 1.380 . S
C173 C174 1.376 . S
C173 H201 0.930 . S
C174 C173 1.376 . S
C174 C175 1.370 . S
C175 C174 1.370 . S
C175 C176 1.396 . S
C175 H202 0.929 . S
C176 C171 1.373 . S
C176 C175 1.396 . S
C176 H203 0.929 . S
C177 O190 1.240 . S
C177 O191 1.289 . S
C178 O192 1.258 . S
C178 O193 1.256 . S
C179 La169 2.928 . S
C179 C180 1.503 . S
C179 O194 1.261 . S
C179 O195 1.243 . S
C180 C179 1.503 . S
C180 C181 1.394 . S
C180 C185 1.373 . S
C181 C180 1.394 . S
C181 C182 1.380 . S
C181 H204 0.930 . S
C182 C181 1.380 . S
C182 C183 1.376 . S
C182 H205 0.930 . S
C183 C182 1.376 . S
C183 C184 1.370 . S
C184 C183 1.370 . S
C184 C185 1.396 . S
C184 H206 0.929 . S
C185 C180 1.373 . S
C185 C184 1.396 . S
C185 H207 0.929 . S
C186 O196 1.240 . S
C186 O197 1.289 . S
C187 O198 1.258 . S
C187 O199 1.256 . S
O188 La168 2.521 . S
O188 C170 1.261 . S
O189 La168 2.628 . S
O189 C170 1.243 . S
O190 La168 2.554 . S
O190 C177 1.240 . S
O191 La168 2.757 . S
O191 La169 2.482 . S
O191 C177 1.289 . S
O192 La168 2.470 . S
O192 C178 1.258 . S
O193 La169 2.503 . S
O193 C178 1.256 . S
O194 La169 2.521 . S
O194 C179 1.261 . S
O195 La169 2.628 . S
O195 C179 1.243 . S
O196 La169 2.554 . S
O196 C186 1.240 . S
O197 La168 2.482 . S
O197 La169 2.757 . S
O197 C186 1.289 . S
O198 La169 2.470 . S
O198 C187 1.258 . S
O199 La168 2.503 . S
O199 C187 1.256 . S
H200 C172 0.930 . S
H201 C173 0.930 . S
H202 C175 0.929 . S
H203 C176 0.929 . S
H204 C181 0.930 . S
H205 C182 0.930 . S
H206 C184 0.929 . S
H207 C185 0.929 . S
La208 C210 2.928 . S
La208 O228 2.521 . S
La208 O229 2.628 . S
La208 O230 2.566 . S
La208 O231 2.773 . S
La208 O232 2.470 . S
La208 O237 2.482 1_554 S
La208 O239 2.503 1_455 S
La209 C219 2.928 1_455 S
La209 O231 2.490 1_556 S
La209 O233 2.503 1_556 S
La209 O234 2.521 1_455 S
La209 O235 2.628 1_455 S
La209 O236 2.554 . S
La209 O237 2.757 . S
La209 O238 2.470 1_455 S
C210 La208 2.928 . S
C210 C211 1.503 . S
C210 O228 1.261 . S
C210 O229 1.243 . S
C211 C210 1.503 . S
C211 C212 1.394 . S
C211 C216 1.373 . S
C212 C211 1.394 . S
C212 C213 1.380 . S
C212 H240 0.930 . S
C213 C212 1.380 . S
C213 C214 1.376 . S
C213 H241 0.930 . S
C214 C213 1.376 . S
C214 C215 1.370 . S
C215 C214 1.370 . S
C215 C216 1.396 . S
C215 H242 0.929 . S
C216 C211 1.373 . S
C216 C215 1.396 . S
C216 H243 0.929 . S
C217 O230 1.230 1_655 S
C217 O231 1.285 1_655 S
C218 O232 1.258 . S
C218 O233 1.256 . S
C219 La209 2.928 1_655 S
C219 C220 1.503 . S
C219 O234 1.261 . S
C219 O235 1.243 . S
C220 C219 1.503 . S
C220 C221 1.394 . S
C220 C225 1.373 . S
C221 C220 1.394 . S
C221 C222 1.380 . S
C221 H244 0.930 . S
C222 C221 1.380 . S
C222 C223 1.376 . S
C222 H245 0.930 . S
C223 C222 1.376 . S
C223 C224 1.370 . S
C224 C223 1.370 . S
C224 C225 1.396 . S
C224 H246 0.929 . S
C225 C220 1.373 . S
C225 C224 1.396 . S
C225 H247 0.929 . S
C226 O236 1.240 . S
C226 O237 1.289 . S
C227 O238 1.258 . S
C227 O239 1.256 1_556 S
O228 La208 2.521 . S
O228 C210 1.261 . S
O229 La208 2.628 . S
O229 C210 1.243 . S
O230 La208 2.566 . S
O230 C217 1.230 1_455 S
O231 La208 2.773 . S
O231 La209 2.490 1_554 S
O231 C217 1.285 1_455 S
O232 La208 2.470 . S
O232 C218 1.258 . S
O233 La209 2.503 1_554 S
O233 C218 1.256 . S
O234 La209 2.521 1_655 S
O234 C219 1.261 . S
O235 La209 2.628 1_655 S
O235 C219 1.243 . S
O236 La209 2.554 . S
O236 C226 1.240 . S
O237 La208 2.482 1_556 S
O237 La209 2.757 . S
O237 C226 1.289 . S
O238 La209 2.470 1_655 S
O238 C227 1.258 . S
O239 La208 2.503 1_655 S
O239 C227 1.256 1_554 S
H240 C212 0.930 . S
H241 C213 0.930 . S
H242 C215 0.929 . S
H243 C216 0.929 . S
H244 C221 0.930 . S
H245 C222 0.930 . S
H246 C224 0.929 . S
H247 C225 0.929 . S
H248 C256 0.929 . S
H249 C258 0.930 . S
H250 C260 0.930 . S
H251 C263 0.929 . S
H252 C266 0.930 . S
H253 C268 0.960 . S
H254 C268 0.960 . S
H255 C268 0.960 . S
C256 H248 0.929 . S
C256 C257 1.377 . S
C256 C258 1.384 . S
C257 C256 1.377 . S
C257 C263 1.390 . S
C258 H249 0.930 . S
C258 C256 1.384 . S
C258 C259 1.372 . S
C259 C258 1.372 . S
C259 C260 1.400 . S
C259 C264 1.490 . S
C260 H250 0.930 . S
C260 C259 1.400 . S
C260 C263 1.386 . S
H261 C277 0.930 . S
H262 C278 0.931 . S
C263 H251 0.929 . S
C263 C257 1.390 . S
C263 C260 1.386 . S
C264 C259 1.490 . S
C264 C266 1.395 . S
C264 C267 1.403 . S
H265 C271 0.930 . S
C266 H252 0.930 . S
C266 C264 1.395 . S
C266 C269 1.403 . S
C267 C264 1.403 . S
C267 C268 1.524 . S
C267 C271 1.400 . S
C268 H253 0.960 . S
C268 H254 0.960 . S
C268 H255 0.960 . S
C268 C267 1.524 . S
C269 C266 1.403 . S
C269 C270 1.392 . S
C269 C273 1.495 . S
C270 C269 1.392 . S
C270 C271 1.385 . S
C270 C272 1.478 . S
C271 H265 0.930 . S
C271 C267 1.400 . S
C271 C270 1.385 . S
C272 C270 1.478 . S
C272 C274 1.381 . S
C272 C278 1.383 . S
C273 C269 1.495 . S
C273 H279 0.959 . S
C273 H280 0.961 . S
C273 H281 0.960 . S
C274 C272 1.381 . S
C274 C275 1.394 . S
C274 H282 0.930 . S
C275 C274 1.394 . S
C275 C276 1.383 . S
C275 H283 0.929 . S
C276 C275 1.383 . S
C276 C277 1.377 . S
C277 H261 0.930 . S
C277 C276 1.377 . S
C277 C278 1.379 . S
C278 H262 0.931 . S
C278 C272 1.383 . S
C278 C277 1.379 . S
H279 C273 0.959 . S
H280 C273 0.961 . S
H281 C273 0.960 . S
H282 C274 0.930 . S
H283 C275 0.929 . S
H284 C292 0.929 . S
H285 C294 0.930 . S
H286 C296 0.930 . S
H287 C299 0.929 . S
H288 C302 0.930 . S
H289 C304 0.960 . S
H290 C304 0.960 . S
H291 C304 0.960 . S
C292 H284 0.929 . S
C292 C293 1.377 . S
C292 C294 1.384 . S
C293 C292 1.377 . S
C293 C299 1.390 . S
C294 H285 0.930 . S
C294 C292 1.384 . S
C294 C295 1.372 . S
C295 C294 1.372 . S
C295 C296 1.400 . S
C295 C300 1.490 . S
C296 H286 0.930 . S
C296 C295 1.400 . S
C296 C299 1.386 . S
H297 C313 0.930 . S
H298 C314 0.931 . S
C299 H287 0.929 . S
C299 C293 1.390 . S
C299 C296 1.386 . S
C300 C295 1.490 . S
C300 C302 1.395 . S
C300 C303 1.403 . S
H301 C307 0.930 . S
C302 H288 0.930 . S
C302 C300 1.395 . S
C302 C305 1.403 . S
C303 C300 1.403 . S
C303 C304 1.524 . S
C303 C307 1.400 . S
C304 H289 0.960 . S
C304 H290 0.960 . S
C304 H291 0.960 . S
C304 C303 1.524 . S
C305 C302 1.403 . S
C305 C306 1.392 . S
C305 C309 1.495 . S
C306 C305 1.392 . S
C306 C307 1.385 . S
C306 C308 1.478 . S
C307 H301 0.930 . S
C307 C303 1.400 . S
C307 C306 1.385 . S
C308 C306 1.478 . S
C308 C310 1.381 . S
C308 C314 1.383 . S
C309 C305 1.495 . S
C309 H315 0.959 . S
C309 H316 0.961 . S
C309 H317 0.960 . S
C310 C308 1.381 . S
C310 C311 1.394 . S
C310 H318 0.930 . S
C311 C310 1.394 . S
C311 C312 1.383 . S
C311 H319 0.929 . S
C312 C311 1.383 . S
C312 C313 1.377 . S
C313 H297 0.930 . S
C313 C312 1.377 . S
C313 C314 1.379 . S
C314 H298 0.931 . S
C314 C308 1.383 . S
C314 C313 1.379 . S
H315 C309 0.959 . S
H316 C309 0.961 . S
H317 C309 0.960 . S
H318 C310 0.930 . S
H319 C311 0.929 . S
H320 C328 0.929 . S
H321 C330 0.930 . S
H322 C332 0.930 . S
H323 C335 0.929 . S
H324 C338 0.930 . S
H325 C340 0.960 . S
H326 C340 0.960 . S
H327 C340 0.960 . S
C328 H320 0.929 . S
C328 C329 1.377 . S
C328 C330 1.384 . S
C329 C328 1.377 . S
C329 C335 1.390 . S
C330 H321 0.930 . S
C330 C328 1.384 . S
C330 C331 1.372 . S
C331 C330 1.372 . S
C331 C332 1.400 . S
C331 C336 1.490 . S
C332 H322 0.930 . S
C332 C331 1.400 . S
C332 C335 1.386 . S
H333 C349 0.930 . S
H334 C350 0.931 . S
C335 H323 0.929 . S
C335 C329 1.390 . S
C335 C332 1.386 . S
C336 C331 1.490 . S
C336 C338 1.395 . S
C336 C339 1.403 . S
H337 C343 0.930 . S
C338 H324 0.930 . S
C338 C336 1.395 . S
C338 C341 1.403 . S
C339 C336 1.403 . S
C339 C340 1.524 . S
C339 C343 1.400 . S
C340 H325 0.960 . S
C340 H326 0.960 . S
C340 H327 0.960 . S
C340 C339 1.524 . S
C341 C338 1.403 . S
C341 C342 1.392 . S
C341 C345 1.495 . S
C342 C341 1.392 . S
C342 C343 1.385 . S
C342 C344 1.478 . S
C343 H337 0.930 . S
C343 C339 1.400 . S
C343 C342 1.385 . S
C344 C342 1.478 . S
C344 C346 1.381 . S
C344 C350 1.383 . S
C345 C341 1.495 . S
C345 H351 0.959 . S
C345 H352 0.961 . S
C345 H353 0.960 . S
C346 C344 1.381 . S
C346 C347 1.394 . S
C346 H354 0.930 . S
C347 C346 1.394 . S
C347 C348 1.383 . S
C347 H355 0.929 . S
C348 C347 1.383 . S
C348 C349 1.377 . S
C349 H333 0.930 . S
C349 C348 1.377 . S
C349 C350 1.379 . S
C350 H334 0.931 . S
C350 C344 1.383 . S
C350 C349 1.379 . S
H351 C345 0.959 . S
H352 C345 0.961 . S
H353 C345 0.960 . S
H354 C346 0.930 . S
H355 C347 0.929 . S
H356 C364 0.929 . S
H357 C366 0.930 . S
H358 C368 0.930 . S
H359 C371 0.929 . S
H360 C374 0.930 . S
H361 C376 0.960 . S
H362 C376 0.960 . S
H363 C376 0.960 . S
C364 H356 0.929 . S
C364 C365 1.377 . S
C364 C366 1.384 . S
C365 C364 1.377 . S
C365 C371 1.390 . S
C366 H357 0.930 . S
C366 C364 1.384 . S
C366 C367 1.372 . S
C367 C366 1.372 . S
C367 C368 1.400 . S
C367 C372 1.490 . S
C368 H358 0.930 . S
C368 C367 1.400 . S
C368 C371 1.386 . S
H369 C385 0.930 . S
H370 C386 0.931 . S
C371 H359 0.929 . S
C371 C365 1.390 . S
C371 C368 1.386 . S
C372 C367 1.490 . S
C372 C374 1.395 . S
C372 C375 1.403 . S
H373 C379 0.930 . S
C374 H360 0.930 . S
C374 C372 1.395 . S
C374 C377 1.403 . S
C375 C372 1.403 . S
C375 C376 1.524 . S
C375 C379 1.400 . S
C376 H361 0.960 . S
C376 H362 0.960 . S
C376 H363 0.960 . S
C376 C375 1.524 . S
C377 C374 1.403 . S
C377 C378 1.392 . S
C377 C381 1.495 . S
C378 C377 1.392 . S
C378 C379 1.385 . S
C378 C380 1.478 . S
C379 H373 0.930 . S
C379 C375 1.400 . S
C379 C378 1.385 . S
C380 C378 1.478 . S
C380 C382 1.381 . S
C380 C386 1.383 . S
C381 C377 1.495 . S
C381 H387 0.959 . S
C381 H388 0.961 . S
C381 H389 0.960 1_655 S
C382 C380 1.381 . S
C382 C383 1.389 1_655 S
C382 H390 0.930 1_655 S
C383 C382 1.389 1_455 S
C383 C384 1.375 1_455 S
C383 H391 0.943 . S
C384 C383 1.375 1_655 S
C384 C385 1.377 . S
C385 H369 0.930 . S
C385 C384 1.377 . S
C385 C386 1.379 . S
C386 H370 0.931 . S
C386 C380 1.383 . S
C386 C385 1.379 . S
H387 C381 0.959 . S
H388 C381 0.961 . S
H389 C381 0.960 1_455 S
H390 C382 0.930 1_455 S
H391 C383 0.943 . S
H392 C400 0.929 . S
H393 C402 0.930 . S
H394 C404 0.930 . S
H395 C407 0.929 . S
H396 C410 0.930 . S
H397 C412 0.960 . S
H398 C412 0.960 . S
H399 C412 0.960 . S
C400 H392 0.929 . S
C400 C401 1.377 . S
C400 C402 1.384 . S
C401 C400 1.377 . S
C401 C407 1.390 . S
C402 H393 0.930 . S
C402 C400 1.384 . S
C402 C403 1.372 . S
C403 C402 1.372 . S
C403 C404 1.400 . S
C403 C408 1.490 . S
C404 H394 0.930 . S
C404 C403 1.400 . S
C404 C407 1.386 . S
H405 C421 0.930 . S
H406 C422 0.931 . S
C407 H395 0.929 . S
C407 C401 1.390 . S
C407 C404 1.386 . S
C408 C403 1.490 . S
C408 C410 1.395 . S
C408 C411 1.403 . S
H409 C415 0.930 . S
C410 H396 0.930 . S
C410 C408 1.395 . S
C410 C413 1.403 . S
C411 C408 1.403 . S
C411 C412 1.524 . S
C411 C415 1.400 . S
C412 H397 0.960 . S
C412 H398 0.960 . S
C412 H399 0.960 . S
C412 C411 1.524 . S
C413 C410 1.403 . S
C413 C414 1.392 . S
C413 C417 1.495 . S
C414 C413 1.392 . S
C414 C415 1.385 . S
C414 C416 1.478 . S
C415 H409 0.930 . S
C415 C411 1.400 . S
C415 C414 1.385 . S
C416 C414 1.478 . S
C416 C418 1.381 . S
C416 C422 1.383 . S
C417 C413 1.495 . S
C417 H423 0.959 . S
C417 H424 0.961 . S
C417 H425 0.960 . S
C418 C416 1.381 . S
C418 C419 1.394 . S
C418 H426 0.930 . S
C419 C418 1.394 . S
C419 C420 1.383 . S
C419 H427 0.929 . S
C420 C419 1.383 . S
C420 C421 1.377 . S
C421 H405 0.930 . S
C421 C420 1.377 . S
C421 C422 1.379 . S
C422 H406 0.931 . S
C422 C416 1.383 . S
C422 C421 1.379 . S
H423 C417 0.959 . S
H424 C417 0.961 . S
H425 C417 0.960 . S
H426 C418 0.930 . S
H427 C419 0.929 . S
H428 C436 0.929 . S
H429 C438 0.930 . S
H430 C440 0.930 . S
H431 C443 0.929 . S
H432 C446 0.930 . S
H433 C448 0.960 . S
H434 C448 0.960 . S
H435 C448 0.960 . S
C436 H428 0.929 . S
C436 C437 1.377 . S
C436 C438 1.384 . S
C437 C436 1.377 . S
C437 C443 1.390 . S
C438 H429 0.930 . S
C438 C436 1.384 . S
C438 C439 1.372 . S
C439 C438 1.372 . S
C439 C440 1.400 . S
C439 C444 1.490 . S
C440 H430 0.930 . S
C440 C439 1.400 . S
C440 C443 1.386 . S
H441 C457 0.930 1_545 S
H442 C458 0.931 . S
C443 H431 0.929 . S
C443 C437 1.390 . S
C443 C440 1.386 . S
C444 C439 1.490 . S
C444 C446 1.395 . S
C444 C447 1.403 . S
H445 C451 0.930 . S
C446 H432 0.930 . S
C446 C444 1.395 . S
C446 C449 1.403 . S
C447 C444 1.403 . S
C447 C448 1.524 . S
C447 C451 1.400 . S
C448 H433 0.960 . S
C448 H434 0.960 . S
C448 H435 0.960 . S
C448 C447 1.524 . S
C449 C446 1.403 . S
C449 C450 1.392 . S
C449 C453 1.495 . S
C450 C449 1.392 . S
C450 C451 1.385 . S
C450 C452 1.478 . S
C451 H445 0.930 . S
C451 C447 1.400 . S
C451 C450 1.385 . S
C452 C450 1.478 . S
C452 C454 1.381 . S
C452 C458 1.383 . S
C453 C449 1.495 . S
C453 H459 0.959 . S
C453 H460 0.961 . S
C453 H461 0.960 . S
C454 C452 1.381 . S
C454 C455 1.394 . S
C454 H462 0.930 . S
C455 C454 1.394 . S
C455 C456 1.383 . S
C455 H463 0.929 . S
C456 C455 1.383 . S
C456 C457 1.377 . S
C457 H441 0.930 1_565 S
C457 C456 1.377 . S
C457 C458 1.379 . S
C458 H442 0.931 . S
C458 C452 1.383 . S
C458 C457 1.379 . S
H459 C453 0.959 . S
H460 C453 0.961 . S
H461 C453 0.960 . S
H462 C454 0.930 . S
H463 C455 0.929 . S
H464 C472 0.929 . S
H465 C474 0.930 . S
H466 C476 0.930 . S
H467 C479 0.929 . S
H468 C482 0.930 . S
H469 C484 0.960 . S
H470 C484 0.960 . S
H471 C484 0.960 . S
C472 H464 0.929 . S
C472 C473 1.377 . S
C472 C474 1.384 . S
C473 C472 1.377 . S
C473 C479 1.390 . S
C474 H465 0.930 . S
C474 C472 1.384 . S
C474 C475 1.372 . S
C475 C474 1.372 . S
C475 C476 1.400 . S
C475 C480 1.490 . S
C476 H466 0.930 . S
C476 C475 1.400 . S
C476 C479 1.386 . S
H477 C493 0.930 . S
H478 C494 0.931 . S
C479 H467 0.929 . S
C479 C473 1.390 . S
C479 C476 1.386 . S
C480 C475 1.490 . S
C480 C482 1.395 . S
C480 C483 1.403 . S
H481 C487 0.930 . S
C482 H468 0.930 . S
C482 C480 1.395 . S
C482 C485 1.403 . S
C483 C480 1.403 . S
C483 C484 1.524 . S
C483 C487 1.400 . S
C484 H469 0.960 . S
C484 H470 0.960 . S
C484 H471 0.960 . S
C484 C483 1.524 . S
C485 C482 1.403 . S
C485 C486 1.392 . S
C485 C489 1.495 . S
C486 C485 1.392 . S
C486 C487 1.385 . S
C486 C488 1.478 . S
C487 H481 0.930 . S
C487 C483 1.400 . S
C487 C486 1.385 . S
C488 C486 1.478 . S
C488 C490 1.381 . S
C488 C494 1.383 . S
C489 C485 1.495 . S
C489 H495 0.959 1_556 S
C489 H496 0.961 . S
C489 H497 0.960 1_556 S
C490 C488 1.381 . S
C490 C491 1.394 . S
C490 H498 0.930 . S
C491 C490 1.394 . S
C491 C492 1.383 . S
C491 H499 0.929 . S
C492 C491 1.383 . S
C492 C493 1.377 . S
C493 H477 0.930 . S
C493 C492 1.377 . S
C493 C494 1.379 . S
C494 H478 0.931 . S
C494 C488 1.383 . S
C494 C493 1.379 . S
H495 C489 0.959 1_554 S
H496 C489 0.961 . S
H497 C489 0.960 1_554 S
H498 C490 0.930 . S
H499 C491 0.929 . S
H500 C508 0.929 . S
H501 C510 0.930 . S
H502 C512 0.930 . S
H503 C515 0.929 . S
H504 C518 0.930 . S
H505 C520 0.960 . S
H506 C520 0.960 . S
H507 C520 0.960 . S
C508 H500 0.929 . S
C508 C509 1.377 . S
C508 C510 1.384 . S
C509 C508 1.377 . S
C509 C515 1.390 . S
C510 H501 0.930 . S
C510 C508 1.384 . S
C510 C511 1.372 . S
C511 C510 1.372 . S
C511 C512 1.400 . S
C511 C516 1.490 . S
C512 H502 0.930 . S
C512 C511 1.400 . S
C512 C515 1.386 . S
H513 C529 0.930 . S
H514 C530 0.931 . S
C515 H503 0.929 . S
C515 C509 1.390 . S
C515 C512 1.386 . S
C516 C511 1.490 . S
C516 C518 1.395 . S
C516 C519 1.403 . S
H517 C523 0.930 . S
C518 H504 0.930 . S
C518 C516 1.395 . S
C518 C521 1.403 . S
C519 C516 1.403 . S
C519 C520 1.524 . S
C519 C523 1.400 . S
C520 H505 0.960 . S
C520 H506 0.960 . S
C520 H507 0.960 . S
C520 C519 1.524 . S
C521 C518 1.403 . S
C521 C522 1.392 . S
C521 C525 1.495 . S
C522 C521 1.392 . S
C522 C523 1.385 . S
C522 C524 1.478 . S
C523 H517 0.930 . S
C523 C519 1.400 . S
C523 C522 1.385 . S
C524 C522 1.478 . S
C524 C526 1.381 . S
C524 C530 1.383 . S
C525 C521 1.495 . S
C525 H531 0.959 . S
C525 H532 0.961 . S
C525 H533 0.960 . S
C526 C524 1.381 . S
C526 C527 1.394 . S
C526 H534 0.930 . S
C527 C526 1.394 . S
C527 C528 1.383 . S
C527 H535 0.929 . S
C528 C527 1.383 . S
C528 C529 1.377 . S
C529 H513 0.930 . S
C529 C528 1.377 . S
C529 C530 1.379 . S
C530 H514 0.931 . S
C530 C524 1.383 . S
C530 C529 1.379 . S
H531 C525 0.959 . S
H532 C525 0.961 . S
H533 C525 0.960 . S
H534 C526 0.930 . S
H535 C527 0.929 . S
H536 C544 0.929 . S
H537 C546 0.930 . S
H538 C548 0.930 . S
H539 C551 0.929 . S
H540 C554 0.930 . S
H541 C556 0.960 . S
H542 C556 0.960 . S
H543 C556 0.960 . S
C544 H536 0.929 . S
C544 C545 1.377 . S
C544 C546 1.384 . S
C545 C544 1.377 . S
C545 C551 1.390 . S
C546 H537 0.930 . S
C546 C544 1.384 . S
C546 C547 1.372 . S
C547 C546 1.372 . S
C547 C548 1.400 . S
C547 C552 1.490 . S
C548 H538 0.930 . S
C548 C547 1.400 . S
C548 C551 1.386 . S
H549 C565 0.930 . S
H550 C566 0.931 . S
C551 H539 0.929 . S
C551 C545 1.390 . S
C551 C548 1.386 . S
C552 C547 1.490 . S
C552 C554 1.395 . S
C552 C555 1.403 . S
H553 C559 0.930 . S
C554 H540 0.930 . S
C554 C552 1.395 . S
C554 C557 1.403 . S
C555 C552 1.403 . S
C555 C556 1.524 . S
C555 C559 1.400 . S
C556 H541 0.960 . S
C556 H542 0.960 . S
C556 H543 0.960 . S
C556 C555 1.524 . S
C557 C554 1.403 . S
C557 C558 1.392 . S
C557 C561 1.495 . S
C558 C557 1.392 . S
C558 C559 1.385 . S
C558 C560 1.478 . S
C559 H553 0.930 . S
C559 C555 1.400 . S
C559 C558 1.385 . S
C560 C558 1.478 . S
C560 C562 1.381 . S
C560 C566 1.383 . S
C561 C557 1.495 . S
C561 H567 0.959 . S
C561 H568 0.961 . S
C561 H569 0.960 . S
C562 C560 1.381 . S
C562 C563 1.394 . S
C562 H570 0.930 . S
C563 C562 1.394 . S
C563 C564 1.383 . S
C563 H571 0.929 . S
C564 C563 1.383 . S
C564 C565 1.377 . S
C565 H549 0.930 . S
C565 C564 1.377 . S
C565 C566 1.379 . S
C566 H550 0.931 . S
C566 C560 1.383 . S
C566 C565 1.379 . S
H567 C561 0.959 . S
H568 C561 0.961 . S
H569 C561 0.960 . S
H570 C562 0.930 . S
H571 C563 0.929 . S
H572 C580 0.929 . S
H573 C582 0.930 . S
H574 C584 0.930 . S
H575 C587 0.929 . S
H576 C590 0.930 . S
H577 C592 0.960 . S
H578 C592 0.960 . S
H579 C592 0.960 . S
C580 H572 0.929 . S
C580 C581 1.377 . S
C580 C582 1.384 . S
C581 C580 1.377 . S
C581 C587 1.390 . S
C582 H573 0.930 . S
C582 C580 1.384 . S
C582 C583 1.372 . S
C583 C582 1.372 . S
C583 C584 1.400 . S
C583 C588 1.490 . S
C584 H574 0.930 . S
C584 C583 1.400 . S
C584 C587 1.386 . S
H585 C601 0.930 . S
H586 C602 0.931 . S
C587 H575 0.929 . S
C587 C581 1.390 . S
C587 C584 1.386 . S
C588 C583 1.490 . S
C588 C590 1.395 . S
C588 C591 1.403 . S
H589 C595 0.930 . S
C590 H576 0.930 . S
C590 C588 1.395 . S
C590 C593 1.403 . S
C591 C588 1.403 . S
C591 C592 1.524 . S
C591 C595 1.400 . S
C592 H577 0.960 . S
C592 H578 0.960 . S
C592 H579 0.960 . S
C592 C591 1.524 . S
C593 C590 1.403 . S
C593 C594 1.392 . S
C593 C597 1.495 . S
C594 C593 1.392 . S
C594 C595 1.385 . S
C594 C596 1.478 . S
C595 H589 0.930 . S
C595 C591 1.400 . S
C595 C594 1.385 . S
C596 C594 1.478 . S
C596 C598 1.381 1_556 S
C596 C602 1.383 . S
C597 C593 1.495 . S
C597 H603 0.959 . S
C597 H604 0.961 . S
C597 H605 0.960 . S
C598 C596 1.381 1_554 S
C598 C599 1.394 . S
C598 H606 0.930 . S
C599 C598 1.394 . S
C599 C600 1.383 . S
C599 H607 0.929 . S
C600 C599 1.383 . S
C600 C601 1.377 1_554 S
C601 H585 0.930 . S
C601 C600 1.377 1_556 S
C601 C602 1.379 . S
C602 H586 0.931 . S
C602 C596 1.383 . S
C602 C601 1.379 . S
H603 C597 0.959 . S
H604 C597 0.961 . S
H605 C597 0.960 . S
H606 C598 0.930 . S
H607 C599 0.929 . S
H608 C616 0.929 . S
H609 C618 0.930 . S
H610 C620 0.930 . S
H611 C623 0.929 . S
H612 C626 0.930 . S
H613 C628 0.960 . S
H614 C628 0.960 . S
H615 C628 0.960 . S
C616 H608 0.929 . S
C616 C617 1.377 . S
C616 C618 1.384 . S
C617 C616 1.377 . S
C617 C623 1.390 . S
C618 H609 0.930 . S
C618 C616 1.384 . S
C618 C619 1.372 . S
C619 C618 1.372 . S
C619 C620 1.400 . S
C619 C624 1.490 . S
C620 H610 0.930 . S
C620 C619 1.400 . S
C620 C623 1.386 . S
H621 C637 0.930 . S
H622 C638 0.931 . S
C623 H611 0.929 . S
C623 C617 1.390 . S
C623 C620 1.386 . S
C624 C619 1.490 . S
C624 C626 1.395 . S
C624 C627 1.403 . S
H625 C631 0.930 . S
C626 H612 0.930 . S
C626 C624 1.395 . S
C626 C629 1.403 . S
C627 C624 1.403 . S
C627 C628 1.524 . S
C627 C631 1.400 . S
C628 H613 0.960 . S
C628 H614 0.960 . S
C628 H615 0.960 . S
C628 C627 1.524 . S
C629 C626 1.403 . S
C629 C630 1.392 . S
C629 C633 1.495 . S
C630 C629 1.392 . S
C630 C631 1.385 . S
C630 C632 1.478 . S
C631 H625 0.930 . S
C631 C627 1.400 . S
C631 C630 1.385 . S
C632 C630 1.478 . S
C632 C634 1.381 . S
C632 C638 1.383 . S
C633 C629 1.495 . S
C633 H639 0.959 . S
C633 H640 0.961 . S
C633 H641 0.960 . S
C634 C632 1.381 . S
C634 C635 1.394 . S
C634 H642 0.930 . S
C635 C634 1.394 . S
C635 C636 1.383 . S
C635 H643 0.929 . S
C636 C635 1.383 . S
C636 C637 1.377 . S
C637 H621 0.930 . S
C637 C636 1.377 . S
C637 C638 1.379 . S
C638 H622 0.931 . S
C638 C632 1.383 . S
C638 C637 1.379 . S
H639 C633 0.959 . S
H640 C633 0.961 . S
H641 C633 0.960 . S
H642 C634 0.930 . S
H643 C635 0.929 . S
H644 C652 0.929 . S
H645 C654 0.930 . S
H646 C656 0.930 . S
H647 C659 0.929 . S
H648 C662 0.930 . S
H649 C664 0.960 . S
H650 C664 0.960 . S
H651 C664 0.960 . S
C652 H644 0.929 . S
C652 C653 1.377 . S
C652 C654 1.384 . S
C653 C652 1.377 . S
C653 C659 1.390 . S
C654 H645 0.930 . S
C654 C652 1.384 . S
C654 C655 1.372 . S
C655 C654 1.372 . S
C655 C656 1.400 . S
C655 C660 1.490 . S
C656 H646 0.930 . S
C656 C655 1.400 . S
C656 C659 1.386 . S
H657 C673 0.930 . S
H658 C674 0.931 . S
C659 H647 0.929 . S
C659 C653 1.390 . S
C659 C656 1.386 . S
C660 C655 1.490 . S
C660 C662 1.395 . S
C660 C663 1.403 . S
H661 C667 0.930 . S
C662 H648 0.930 . S
C662 C660 1.395 . S
C662 C665 1.403 . S
C663 C660 1.403 . S
C663 C664 1.524 . S
C663 C667 1.400 . S
C664 H649 0.960 . S
C664 H650 0.960 . S
C664 H651 0.960 . S
C664 C663 1.524 . S
C665 C662 1.403 . S
C665 C666 1.392 . S
C665 C669 1.495 . S
C666 C665 1.392 . S
C666 C667 1.385 . S
C666 C668 1.478 . S
C667 H661 0.930 . S
C667 C663 1.400 . S
C667 C666 1.385 . S
C668 C666 1.478 . S
C668 C670 1.381 . S
C668 C674 1.383 . S
C669 C665 1.495 . S
C669 H675 0.959 . S
C669 H676 0.961 . S
C669 H677 0.960 . S
C670 C668 1.381 . S
C670 C671 1.394 . S
C670 H678 0.930 . S
C671 C670 1.394 . S
C671 C672 1.383 . S
C671 H679 0.929 . S
C672 C671 1.383 . S
C672 C673 1.377 . S
C673 H657 0.930 . S
C673 C672 1.377 . S
C673 C674 1.379 . S
C674 H658 0.931 . S
C674 C668 1.383 . S
C674 C673 1.379 . S
H675 C669 0.959 . S
H676 C669 0.961 . S
H677 C669 0.960 . S
H678 C670 0.930 . S
H679 C671 0.929 . S
H680 C688 0.929 . S
H681 C690 0.930 . S
H682 C692 0.930 . S
H683 C695 0.929 . S
H684 C698 0.930 . S
H685 C700 0.960 . S
H686 C700 0.960 . S
H687 C700 0.960 . S
C688 H680 0.929 . S
C688 C689 1.377 . S
C688 C690 1.384 . S
C689 C688 1.377 . S
C689 C695 1.390 . S
C690 H681 0.930 . S
C690 C688 1.384 . S
C690 C691 1.372 . S
C691 C690 1.372 . S
C691 C692 1.400 . S
C691 C696 1.490 . S
C692 H682 0.930 . S
C692 C691 1.400 . S
C692 C695 1.386 . S
H693 C709 0.930 . S
H694 C710 0.931 . S
C695 H683 0.929 . S
C695 C689 1.390 . S
C695 C692 1.386 . S
C696 C691 1.490 . S
C696 C698 1.395 . S
C696 C699 1.403 . S
H697 C703 0.930 . S
C698 H684 0.930 . S
C698 C696 1.395 . S
C698 C701 1.403 . S
C699 C696 1.403 . S
C699 C700 1.524 . S
C699 C703 1.400 . S
C700 H685 0.960 . S
C700 H686 0.960 . S
C700 H687 0.960 . S
C700 C699 1.524 . S
C701 C698 1.403 . S
C701 C702 1.392 . S
C701 C705 1.495 . S
C702 C701 1.392 . S
C702 C703 1.385 . S
C702 C704 1.478 . S
C703 H697 0.930 . S
C703 C699 1.400 . S
C703 C702 1.385 . S
C704 C702 1.478 . S
C704 C706 1.381 . S
C704 C710 1.383 . S
C705 C701 1.495 . S
C705 H711 0.959 . S
C705 H712 0.961 . S
C705 H713 0.960 . S
C706 C704 1.381 . S
C706 C707 1.394 . S
C706 H714 0.930 . S
C707 C706 1.394 . S
C707 C708 1.383 . S
C707 H715 0.929 . S
C708 C707 1.383 . S
C708 C709 1.377 . S
C709 H693 0.930 . S
C709 C708 1.377 . S
C709 C710 1.379 . S
C710 H694 0.931 . S
C710 C704 1.383 . S
C710 C709 1.379 . S
H711 C705 0.959 . S
H712 C705 0.961 . S
H713 C705 0.960 . S
H714 C706 0.930 . S
H715 C707 0.929 . S
H716 C724 0.929 . S
H717 C726 0.930 . S
H718 C728 0.930 . S
H719 C731 0.929 . S
H720 C734 0.930 . S
H721 C736 0.960 . S
H722 C736 0.960 . S
H723 C736 0.960 . S
C724 H716 0.929 . S
C724 C725 1.377 . S
C724 C726 1.384 . S
C725 C724 1.377 . S
C725 C731 1.390 . S
C726 H717 0.930 . S
C726 C724 1.384 . S
C726 C727 1.372 . S
C727 C726 1.372 . S
C727 C728 1.400 . S
C727 C732 1.490 . S
C728 H718 0.930 . S
C728 C727 1.400 . S
C728 C731 1.386 . S
H729 C745 0.930 . S
H730 C746 0.931 . S
C731 H719 0.929 . S
C731 C725 1.390 . S
C731 C728 1.386 . S
C732 C727 1.490 . S
C732 C734 1.395 . S
C732 C735 1.403 . S
H733 C739 0.930 . S
C734 H720 0.930 . S
C734 C732 1.395 . S
C734 C737 1.403 . S
C735 C732 1.403 . S
C735 C736 1.524 . S
C735 C739 1.400 . S
C736 H721 0.960 . S
C736 H722 0.960 . S
C736 H723 0.960 . S
C736 C735 1.524 . S
C737 C734 1.403 . S
C737 C738 1.392 . S
C737 C741 1.495 . S
C738 C737 1.392 . S
C738 C739 1.385 . S
C738 C740 1.478 . S
C739 H733 0.930 . S
C739 C735 1.400 . S
C739 C738 1.385 . S
C740 C738 1.478 . S
C740 C742 1.381 . S
C740 C746 1.383 . S
C741 C737 1.495 . S
C741 H747 0.959 . S
C741 H748 0.961 . S
C741 H749 0.960 . S
C742 C740 1.381 . S
C742 C743 1.394 . S
C742 H750 0.930 . S
C743 C742 1.394 . S
C743 C744 1.383 . S
C743 H751 0.929 . S
C744 C743 1.383 . S
C744 C745 1.377 . S
C745 H729 0.930 . S
C745 C744 1.377 . S
C745 C746 1.379 . S
C746 H730 0.931 . S
C746 C740 1.383 . S
C746 C745 1.379 . S
H747 C741 0.959 . S
H748 C741 0.961 . S
H749 C741 0.960 . S
H750 C742 0.930 . S
H751 C743 0.929 . S
H752 C760 0.929 . S
H753 C762 0.930 . S
H754 C764 0.930 . S
H755 C767 0.929 . S
H756 C770 0.930 . S
H757 C772 0.960 . S
H758 C772 0.960 . S
H759 C772 0.960 . S
C760 H752 0.929 . S
C760 C761 1.377 . S
C760 C762 1.384 . S
C761 C760 1.377 . S
C761 C767 1.390 . S
C762 H753 0.930 . S
C762 C760 1.384 . S
C762 C763 1.372 . S
C763 C762 1.372 . S
C763 C764 1.400 . S
C763 C768 1.490 . S
C764 H754 0.930 . S
C764 C763 1.400 . S
C764 C767 1.386 . S
H765 C781 0.930 . S
H766 C782 0.931 . S
C767 H755 0.929 . S
C767 C761 1.390 . S
C767 C764 1.386 . S
C768 C763 1.490 . S
C768 C770 1.395 . S
C768 C771 1.403 . S
H769 C775 0.930 . S
C770 H756 0.930 . S
C770 C768 1.395 . S
C770 C773 1.403 . S
C771 C768 1.403 . S
C771 C772 1.524 . S
C771 C775 1.400 . S
C772 H757 0.960 . S
C772 H758 0.960 . S
C772 H759 0.960 . S
C772 C771 1.524 . S
C773 C770 1.403 . S
C773 C774 1.392 . S
C773 C777 1.495 . S
C774 C773 1.392 . S
C774 C775 1.385 . S
C774 C776 1.478 . S
C775 H769 0.930 . S
C775 C771 1.400 . S
C775 C774 1.385 . S
C776 C774 1.478 . S
C776 C778 1.381 . S
C776 C782 1.383 . S
C777 C773 1.495 . S
C777 H783 0.959 . S
C777 H784 0.961 . S
C777 H785 0.960 . S
C778 C776 1.381 . S
C778 C779 1.394 . S
C778 H786 0.930 . S
C779 C778 1.394 . S
C779 C780 1.383 . S
C779 H787 0.929 . S
C780 C779 1.383 . S
C780 C781 1.377 . S
C781 H765 0.930 . S
C781 C780 1.377 . S
C781 C782 1.379 . S
C782 H766 0.931 . S
C782 C776 1.383 . S
C782 C781 1.379 . S
H783 C777 0.959 . S
H784 C777 0.961 . S
H785 C777 0.960 . S
H786 C778 0.930 . S
H787 C779 0.929 . S
H788 C796 0.929 . S
H789 C798 0.930 . S
H790 C800 0.930 . S
H791 C803 0.929 . S
H792 C806 0.930 . S
H793 C808 0.960 . S
H794 C808 0.960 . S
H795 C808 0.960 . S
C796 H788 0.929 . S
C796 C797 1.377 . S
C796 C798 1.384 . S
C797 C796 1.377 . S
C797 C803 1.390 . S
C798 H789 0.930 . S
C798 C796 1.384 . S
C798 C799 1.372 . S
C799 C798 1.372 . S
C799 C800 1.400 . S
C799 C804 1.490 . S
C800 H790 0.930 . S
C800 C799 1.400 . S
C800 C803 1.386 . S
H801 C817 0.930 . S
H802 C818 0.931 . S
C803 H791 0.929 . S
C803 C797 1.390 . S
C803 C800 1.386 . S
C804 C799 1.490 . S
C804 C806 1.395 . S
C804 C807 1.403 . S
H805 C811 0.930 . S
C806 H792 0.930 . S
C806 C804 1.395 . S
C806 C809 1.403 . S
C807 C804 1.403 . S
C807 C808 1.524 . S
C807 C811 1.400 . S
C808 H793 0.960 . S
C808 H794 0.960 . S
C808 H795 0.960 . S
C808 C807 1.524 . S
C809 C806 1.403 . S
C809 C810 1.392 . S
C809 C813 1.495 . S
C810 C809 1.392 . S
C810 C811 1.385 . S
C810 C812 1.478 . S
C811 H805 0.930 . S
C811 C807 1.400 . S
C811 C810 1.385 . S
C812 C810 1.478 . S
C812 C814 1.381 . S
C812 C818 1.383 . S
C813 C809 1.495 . S
C813 H819 0.959 . S
C813 H820 0.961 . S
C813 H821 0.960 . S
C814 C812 1.381 . S
C814 C815 1.394 . S
C814 H822 0.930 . S
C815 C814 1.394 . S
C815 C816 1.383 . S
C815 H823 0.929 . S
C816 C815 1.383 . S
C816 C817 1.377 . S
C817 H801 0.930 . S
C817 C816 1.377 . S
C817 C818 1.379 . S
C818 H802 0.931 . S
C818 C812 1.383 . S
C818 C817 1.379 . S
H819 C813 0.959 . S
H820 C813 0.961 . S
H821 C813 0.960 . S
H822 C814 0.930 . S
H823 C815 0.929 . S
H824 C832 0.929 . S
H825 C834 0.930 . S
H826 C836 0.930 . S
H827 C839 0.929 . S
H828 C842 0.930 . S
H829 C844 0.960 . S
H830 C844 0.960 . S
H831 C844 0.960 . S
C832 H824 0.929 . S
C832 C833 1.377 . S
C832 C834 1.384 . S
C833 C832 1.377 . S
C833 C839 1.390 . S
C834 H825 0.930 . S
C834 C832 1.384 . S
C834 C835 1.372 . S
C835 C834 1.372 . S
C835 C836 1.400 . S
C835 C840 1.490 . S
C836 H826 0.930 . S
C836 C835 1.400 . S
C836 C839 1.386 . S
H837 C853 0.930 . S
H838 C854 0.931 . S
C839 H827 0.929 . S
C839 C833 1.390 . S
C839 C836 1.386 . S
C840 C835 1.490 . S
C840 C842 1.395 . S
C840 C843 1.403 . S
H841 C847 0.930 . S
C842 H828 0.930 . S
C842 C840 1.395 . S
C842 C845 1.403 . S
C843 C840 1.403 . S
C843 C844 1.524 . S
C843 C847 1.400 . S
C844 H829 0.960 . S
C844 H830 0.960 . S
C844 H831 0.960 . S
C844 C843 1.524 . S
C845 C842 1.403 . S
C845 C846 1.392 . S
C845 C849 1.495 . S
C846 C845 1.392 . S
C846 C847 1.385 . S
C846 C848 1.478 . S
C847 H841 0.930 . S
C847 C843 1.400 . S
C847 C846 1.385 . S
C848 C846 1.478 . S
C848 C850 1.381 . S
C848 C854 1.383 . S
C849 C845 1.495 . S
C849 H855 0.959 . S
C849 H856 0.961 . S
C849 H857 0.960 . S
C850 C848 1.381 . S
C850 C851 1.396 . S
C850 H858 0.930 . S
C851 C850 1.396 . S
C851 C852 1.386 . S
C851 H859 0.924 1_556 S
C852 C851 1.386 . S
C852 C853 1.377 . S
C853 H837 0.930 . S
C853 C852 1.377 . S
C853 C854 1.379 . S
C854 H838 0.931 . S
C854 C848 1.383 . S
C854 C853 1.379 . S
H855 C849 0.959 . S
H856 C849 0.961 . S
H857 C849 0.960 . S
H858 C850 0.930 . S
H859 C851 0.924 1_554 S
H860 C868 0.929 . S
H861 C870 0.930 . S
H862 C872 0.930 . S
H863 C875 0.929 . S
H864 C878 0.930 . S
H865 C880 0.960 . S
H866 C880 0.960 . S
H867 C880 0.960 . S
C868 H860 0.929 . S
C868 C869 1.377 . S
C868 C870 1.384 . S
C869 C868 1.377 . S
C869 C875 1.390 . S
C870 H861 0.930 . S
C870 C868 1.384 . S
C870 C871 1.372 . S
C871 C870 1.372 . S
C871 C872 1.400 . S
C871 C876 1.490 . S
C872 H862 0.930 . S
C872 C871 1.400 . S
C872 C875 1.386 . S
H873 C889 0.930 . S
H874 C890 0.931 . S
C875 H863 0.929 . S
C875 C869 1.390 . S
C875 C872 1.386 . S
C876 C871 1.490 . S
C876 C878 1.395 . S
C876 C879 1.403 . S
H877 C883 0.930 . S
C878 H864 0.930 . S
C878 C876 1.395 . S
C878 C881 1.403 . S
C879 C876 1.403 . S
C879 C880 1.524 . S
C879 C883 1.400 . S
C880 H865 0.960 . S
C880 H866 0.960 . S
C880 H867 0.960 . S
C880 C879 1.524 . S
C881 C878 1.403 . S
C881 C882 1.392 . S
C881 C885 1.495 . S
C882 C881 1.392 . S
C882 C883 1.385 . S
C882 C884 1.478 . S
C883 H877 0.930 . S
C883 C879 1.400 . S
C883 C882 1.385 . S
C884 C882 1.478 . S
C884 C886 1.381 . S
C884 C890 1.383 . S
C885 C881 1.495 . S
C885 H891 0.959 . S
C885 H892 0.961 . S
C885 H893 0.960 . S
C886 C884 1.381 . S
C886 C887 1.394 . S
C886 H894 0.930 . S
C887 C886 1.394 . S
C887 C888 1.383 . S
C887 H895 0.929 . S
C888 C887 1.383 . S
C888 C889 1.377 . S
C889 H873 0.930 . S
C889 C888 1.377 . S
C889 C890 1.379 . S
C890 H874 0.931 . S
C890 C884 1.383 . S
C890 C889 1.379 . S
H891 C885 0.959 . S
H892 C885 0.961 . S
H893 C885 0.960 . S
H894 C886 0.930 . S
H895 C887 0.929 . S
H896 C904 0.929 . S
H897 C906 0.930 . S
H898 C908 0.930 . S
H899 C911 0.929 . S
H900 C914 0.930 . S
H901 C916 0.960 . S
H902 C916 0.960 . S
H903 C916 0.960 . S
C904 H896 0.929 . S
C904 C905 1.377 . S
C904 C906 1.384 . S
C905 C904 1.377 . S
C905 C911 1.390 . S
C906 H897 0.930 . S
C906 C904 1.384 . S
C906 C907 1.372 . S
C907 C906 1.372 . S
C907 C908 1.400 . S
C907 C912 1.490 . S
C908 H898 0.930 . S
C908 C907 1.400 . S
C908 C911 1.386 . S
H909 C925 0.930 . S
H910 C926 0.931 . S
C911 H899 0.929 . S
C911 C905 1.390 . S
C911 C908 1.386 . S
C912 C907 1.490 . S
C912 C914 1.395 . S
C912 C915 1.403 . S
H913 C919 0.930 . S
C914 H900 0.930 . S
C914 C912 1.395 . S
C914 C917 1.403 . S
C915 C912 1.403 . S
C915 C916 1.524 . S
C915 C919 1.400 . S
C916 H901 0.960 . S
C916 H902 0.960 . S
C916 H903 0.960 . S
C916 C915 1.524 . S
C917 C914 1.403 . S
C917 C918 1.392 . S
C917 C921 1.495 . S
C918 C917 1.392 . S
C918 C919 1.385 . S
C918 C920 1.478 . S
C919 H913 0.930 . S
C919 C915 1.400 . S
C919 C918 1.385 . S
C920 C918 1.478 . S
C920 C922 1.381 . S
C920 C926 1.383 . S
C921 C917 1.495 . S
C921 H927 0.959 . S
C921 H928 0.961 . S
C921 H929 0.960 . S
C922 C920 1.381 . S
C922 C923 1.394 . S
C922 H930 0.930 . S
C923 C922 1.394 . S
C923 C924 1.383 . S
C923 H931 0.929 . S
C924 C923 1.383 . S
C924 C925 1.377 . S
C925 H909 0.930 . S
C925 C924 1.377 . S
C925 C926 1.379 . S
C926 H910 0.931 . S
C926 C920 1.383 . S
C926 C925 1.379 . S
H927 C921 0.959 . S
H928 C921 0.961 . S
H929 C921 0.960 . S
H930 C922 0.930 . S
H931 C923 0.929 . S
H932 C940 0.929 . S
H933 C942 0.930 . S
H934 C944 0.930 . S
H935 C947 0.929 . S
H936 C950 0.930 . S
H937 C952 0.960 . S
H938 C952 0.960 . S
H939 C952 0.960 . S
C940 H932 0.929 . S
C940 C941 1.377 . S
C940 C942 1.384 . S
C941 C940 1.377 . S
C941 C947 1.390 . S
C942 H933 0.930 . S
C942 C940 1.384 . S
C942 C943 1.372 . S
C943 C942 1.372 . S
C943 C944 1.400 . S
C943 C948 1.490 . S
C944 H934 0.930 . S
C944 C943 1.400 . S
C944 C947 1.386 . S
H945 C961 0.930 . S
H946 C962 0.931 . S
C947 H935 0.929 . S
C947 C941 1.390 . S
C947 C944 1.386 . S
C948 C943 1.490 . S
C948 C950 1.395 . S
C948 C951 1.403 . S
H949 C955 0.930 . S
C950 H936 0.930 . S
C950 C948 1.395 . S
C950 C953 1.403 . S
C951 C948 1.403 . S
C951 C952 1.524 . S
C951 C955 1.400 . S
C952 H937 0.960 . S
C952 H938 0.960 . S
C952 H939 0.960 . S
C952 C951 1.524 . S
C953 C950 1.403 . S
C953 C954 1.392 . S
C953 C957 1.495 . S
C954 C953 1.392 . S
C954 C955 1.385 . S
C954 C956 1.478 . S
C955 H949 0.930 . S
C955 C951 1.400 . S
C955 C954 1.385 . S
C956 C954 1.478 . S
C956 C958 1.381 . S
C956 C962 1.383 . S
C957 C953 1.495 . S
C957 H963 0.959 . S
C957 H964 0.961 . S
C957 H965 0.960 . S
C958 C956 1.381 . S
C958 C959 1.394 . S
C958 H966 0.930 . S
C959 C958 1.394 . S
C959 C960 1.383 . S
C959 H967 0.929 . S
C960 C959 1.383 . S
C960 C961 1.377 . S
C961 H945 0.930 . S
C961 C960 1.377 . S
C961 C962 1.379 . S
C962 H946 0.931 . S
C962 C956 1.383 . S
C962 C961 1.379 . S
H963 C957 0.959 . S
H964 C957 0.961 . S
H965 C957 0.960 . S
H966 C958 0.930 . S
H967 C959 0.929 . S
H968 C976 0.929 . S
H969 C978 0.930 . S
H970 C980 0.930 . S
H971 C983 0.929 . S
H972 C986 0.930 . S
H973 C988 0.960 . S
H974 C988 0.960 . S
H975 C988 0.960 . S
C976 H968 0.929 . S
C976 C977 1.377 . S
C976 C978 1.384 . S
C977 C976 1.377 . S
C977 C983 1.390 . S
C978 H969 0.930 . S
C978 C976 1.384 . S
C978 C979 1.372 . S
C979 C978 1.372 . S
C979 C980 1.400 . S
C979 C984 1.490 . S
C980 H970 0.930 . S
C980 C979 1.400 . S
C980 C983 1.386 . S
H981 C997 0.930 . S
H982 C998 0.931 . S
C983 H971 0.929 . S
C983 C977 1.390 . S
C983 C980 1.386 . S
C984 C979 1.490 . S
C984 C986 1.395 . S
C984 C987 1.403 . S
H985 C991 0.930 . S
C986 H972 0.930 . S
C986 C984 1.395 . S
C986 C989 1.403 . S
C987 C984 1.403 . S
C987 C988 1.524 . S
C987 C991 1.400 . S
C988 H973 0.960 . S
C988 H974 0.960 . S
C988 H975 0.960 . S
C988 C987 1.524 . S
C989 C986 1.403 . S
C989 C990 1.392 . S
C989 C993 1.495 . S
C990 C989 1.392 . S
C990 C991 1.385 . S
C990 C992 1.478 . S
C991 H985 0.930 . S
C991 C987 1.400 . S
C991 C990 1.385 . S
C992 C990 1.478 . S
C992 C994 1.381 . S
C992 C998 1.383 . S
C993 C989 1.495 . S
C993 H999 0.959 . S
C993 H1000 0.961 . S
C993 H1001 0.960 . S
C994 C992 1.381 . S
C994 C995 1.394 . S
C994 H1002 0.930 . S
C995 C994 1.394 . S
C995 C996 1.383 . S
C995 H1003 0.929 . S
C996 C995 1.383 . S
C996 C997 1.377 . S
C997 H981 0.930 . S
C997 C996 1.377 . S
C997 C998 1.379 . S
C998 H982 0.931 . S
C998 C992 1.383 . S
C998 C997 1.379 . S
H999 C993 0.959 . S
H1000 C993 0.961 . S
H1001 C993 0.960 . S
H1002 C994 0.930 . S
H1003 C995 0.929 . S
H1004 C1012 0.929 . S
H1005 C1014 0.930 . S
H1006 C1016 0.930 . S
H1007 C1019 0.929 . S
H1008 C1022 0.930 . S
H1009 C1024 0.960 . S
H1010 C1024 0.960 . S
H1011 C1024 0.960 . S
C1012 H1004 0.929 . S
C1012 C1013 1.377 . S
C1012 C1014 1.384 . S
C1013 C1012 1.377 . S
C1013 C1019 1.390 . S
C1014 H1005 0.930 . S
C1014 C1012 1.384 . S
C1014 C1015 1.372 . S
C1015 C1014 1.372 . S
C1015 C1016 1.400 . S
C1015 C1020 1.490 . S
C1016 H1006 0.930 . S
C1016 C1015 1.400 . S
C1016 C1019 1.386 . S
H1017 C1033 0.930 . S
H1018 C1034 0.931 . S
C1019 H1007 0.929 . S
C1019 C1013 1.390 . S
C1019 C1016 1.386 . S
C1020 C1015 1.490 . S
C1020 C1022 1.395 . S
C1020 C1023 1.403 . S
H1021 C1027 0.930 . S
C1022 H1008 0.930 . S
C1022 C1020 1.395 . S
C1022 C1025 1.403 . S
C1023 C1020 1.403 . S
C1023 C1024 1.524 . S
C1023 C1027 1.400 . S
C1024 H1009 0.960 . S
C1024 H1010 0.960 . S
C1024 H1011 0.960 . S
C1024 C1023 1.524 . S
C1025 C1022 1.403 . S
C1025 C1026 1.392 . S
C1025 C1029 1.495 . S
C1026 C1025 1.392 . S
C1026 C1027 1.385 . S
C1026 C1028 1.478 . S
C1027 H1021 0.930 . S
C1027 C1023 1.400 . S
C1027 C1026 1.385 . S
C1028 C1026 1.478 . S
C1028 C1030 1.381 . S
C1028 C1034 1.383 . S
C1029 C1025 1.495 . S
C1029 H1035 0.959 . S
C1029 H1036 0.961 . S
C1029 H1037 0.960 . S
C1030 C1028 1.381 . S
C1030 C1031 1.394 . S
C1030 H1038 0.930 . S
C1031 C1030 1.394 . S
C1031 C1032 1.383 . S
C1031 H1039 0.929 . S
C1032 C1031 1.383 . S
C1032 C1033 1.377 . S
C1033 H1017 0.930 . S
C1033 C1032 1.377 . S
C1033 C1034 1.379 . S
C1034 H1018 0.931 . S
C1034 C1028 1.383 . S
C1034 C1033 1.379 . S
H1035 C1029 0.959 . S
H1036 C1029 0.961 . S
H1037 C1029 0.960 . S
H1038 C1030 0.930 . S
H1039 C1031 0.929 . S
H1040 C1048 0.929 . S
H1041 C1050 0.930 . S
H1042 C1052 0.930 . S
H1043 C1055 0.929 . S
H1044 C1058 0.930 . S
H1045 C1060 0.960 . S
H1046 C1060 0.960 . S
H1047 C1060 0.960 . S
C1048 H1040 0.929 . S
C1048 C1049 1.377 . S
C1048 C1050 1.384 . S
C1049 C1048 1.377 . S
C1049 C1055 1.390 . S
C1050 H1041 0.930 . S
C1050 C1048 1.384 . S
C1050 C1051 1.372 . S
C1051 C1050 1.372 . S
C1051 C1052 1.400 . S
C1051 C1056 1.490 . S
C1052 H1042 0.930 . S
C1052 C1051 1.400 . S
C1052 C1055 1.386 . S
H1053 C1069 0.930 . S
H1054 C1070 0.931 . S
C1055 H1043 0.929 . S
C1055 C1049 1.390 . S
C1055 C1052 1.386 . S
C1056 C1051 1.490 . S
C1056 C1058 1.395 . S
C1056 C1059 1.403 . S
H1057 C1063 0.930 . S
C1058 H1044 0.930 . S
C1058 C1056 1.395 . S
C1058 C1061 1.403 . S
C1059 C1056 1.403 . S
C1059 C1060 1.524 . S
C1059 C1063 1.400 . S
C1060 H1045 0.960 . S
C1060 H1046 0.960 . S
C1060 H1047 0.960 . S
C1060 C1059 1.524 . S
C1061 C1058 1.403 . S
C1061 C1062 1.392 . S
C1061 C1065 1.495 . S
C1062 C1061 1.392 . S
C1062 C1063 1.385 . S
C1062 C1064 1.478 . S
C1063 H1057 0.930 . S
C1063 C1059 1.400 . S
C1063 C1062 1.385 . S
C1064 C1062 1.478 . S
C1064 C1066 1.381 . S
C1064 C1070 1.383 . S
C1065 C1061 1.495 . S
C1065 H1071 0.959 . S
C1065 H1072 0.961 . S
C1065 H1073 0.960 . S
C1066 C1064 1.381 . S
C1066 C1067 1.394 . S
C1066 H1074 0.930 . S
C1067 C1066 1.394 . S
C1067 C1068 1.383 . S
C1067 H1075 0.929 . S
C1068 C1067 1.383 . S
C1068 C1069 1.377 . S
C1069 H1053 0.930 . S
C1069 C1068 1.377 . S
C1069 C1070 1.379 . S
C1070 H1054 0.931 . S
C1070 C1064 1.383 . S
C1070 C1069 1.379 . S
H1071 C1065 0.959 . S
H1072 C1065 0.961 . S
H1073 C1065 0.960 . S
H1074 C1066 0.930 . S
H1075 C1067 0.929 . S
H1076 C1084 0.929 . S
H1077 C1086 0.930 . S
H1078 C1088 0.930 . S
H1079 C1091 0.929 . S
H1080 C1094 0.930 . S
H1081 C1096 0.960 . S
H1082 C1096 0.960 . S
H1083 C1096 0.960 . S
C1084 H1076 0.929 . S
C1084 C1085 1.377 . S
C1084 C1086 1.384 . S
C1085 C1084 1.377 . S
C1085 C1091 1.390 . S
C1086 H1077 0.930 . S
C1086 C1084 1.384 . S
C1086 C1087 1.372 . S
C1087 C1086 1.372 . S
C1087 C1088 1.400 . S
C1087 C1092 1.490 . S
C1088 H1078 0.930 . S
C1088 C1087 1.400 . S
C1088 C1091 1.386 . S
H1089 C1105 0.930 . S
H1090 C1106 0.931 . S
C1091 H1079 0.929 . S
C1091 C1085 1.390 . S
C1091 C1088 1.386 . S
C1092 C1087 1.490 . S
C1092 C1094 1.395 . S
C1092 C1095 1.403 . S
H1093 C1099 0.930 . S
C1094 H1080 0.930 . S
C1094 C1092 1.395 . S
C1094 C1097 1.403 . S
C1095 C1092 1.403 . S
C1095 C1096 1.524 . S
C1095 C1099 1.400 . S
C1096 H1081 0.960 . S
C1096 H1082 0.960 . S
C1096 H1083 0.960 . S
C1096 C1095 1.524 . S
C1097 C1094 1.403 . S
C1097 C1098 1.392 . S
C1097 C1101 1.495 . S
C1098 C1097 1.392 . S
C1098 C1099 1.385 . S
C1098 C1100 1.478 . S
C1099 H1093 0.930 . S
C1099 C1095 1.400 . S
C1099 C1098 1.385 . S
C1100 C1098 1.478 . S
C1100 C1102 1.381 . S
C1100 C1106 1.383 . S
C1101 C1097 1.495 . S
C1101 H1107 0.959 . S
C1101 H1108 0.961 . S
C1101 H1109 0.960 . S
C1102 C1100 1.381 . S
C1102 C1103 1.394 . S
C1102 H1110 0.930 . S
C1103 C1102 1.394 . S
C1103 C1104 1.383 . S
C1103 H1111 0.929 . S
C1104 C1103 1.383 . S
C1104 C1105 1.377 . S
C1105 H1089 0.930 . S
C1105 C1104 1.377 . S
C1105 C1106 1.379 . S
C1106 H1090 0.931 . S
C1106 C1100 1.383 . S
C1106 C1105 1.379 . S
H1107 C1101 0.959 . S
H1108 C1101 0.961 . S
H1109 C1101 0.960 . S
H1110 C1102 0.930 . S
H1111 C1103 0.929 . S
C257 C5 1.014 . S
C276 C94 1.246 . S
C293 C18 0.991 . S
C312 C143 1.042 . S
C348 C178 2.270 . S
C329 C30 2.326 . S
C365 C41 1.959 . S
C384 C217 1.885 . S
C420 C138 2.428 . S
C401 C7 2.269 . S
C456 C97 1.088 . S
C437 C16 0.961 . S
C492 C227 1.902 . S
C473 C29 1.864 . S
C528 C186 1.050 . S
C509 C38 0.981 . S
C545 C8 1.562 . S
C564 C214 1.631 . S
C600 C146 2.556 . S
C581 C27 2.407 . S
C617 C40 2.430 . S
C636 C107 2.452 . S
C653 C19 0.488 . S
C672 C183 0.483 . S
C708 C103 1.069 . S
C689 C51 0.986 . S
C725 C62 1.325 . S
C744 C134 1.304 . S
C761 C74 2.418 . S
C780 C187 2.371 . S
C797 C84 2.098 . S
C816 C226 2.139 . S
C833 C49 2.139 . S
C852 C147 2.652 1_566 S
C888 C106 1.041 . S
C869 C63 1.026 . S
C924 C218 1.743 . S
C905 C71 1.629 . S
C960 C177 1.224 . S
C941 C85 1.217 . S
C977 C52 1.530 . S
C996 C223 1.605 . S
C1032 C137 2.618 . S
C1013 C73 2.688 . S
C1068 C98 1.882 . S
C1049 C82 1.625 . S
C1085 C60 0.723 . S
C1104 C174 0.739 . S
