# Generated by pormake.
# Topology ocu, (6,8)-cn, num edge types: 1
# Building blocks:
#     Node 0, Type 0, BuildingBlock: CUKXOW_clean_sbu_0, # of connection points: 6
#     Node 1, Type 0, BuildingBlock: CUKXOW_clean_sbu_0, # of connection points: 6
#     Node 2, Type 0, BuildingBlock: CUKXOW_clean_sbu_0, # of connection points: 6
#     Node 3, Type 0, BuildingBlock: CUKXOW_clean_sbu_0, # of connection points: 6
#     Node 4, Type 0, BuildingBlock: CUKXOW_clean_sbu_0, # of connection points: 6
#     Node 5, Type 0, BuildingBlock: CUKXOW_clean_sbu_0, # of connection points: 6
#     Node 6, Type 0, BuildingBlock: CUKXOW_clean_sbu_0, # of connection points: 6
#     Node 7, Type 0, BuildingBlock: CUKXOW_clean_sbu_0, # of connection points: 6
#     Node 8, Type 1, BuildingBlock: VETTIZ_charged_sbu_0, # of connection points: 8
#     Node 9, Type 1, BuildingBlock: VETTIZ_charged_sbu_0, # of connection points: 8
#     Node 10, Type 1, BuildingBlock: VETTIZ_charged_sbu_0, # of connection points: 8
#     Node 11, Type 1, BuildingBlock: VETTIZ_charged_sbu_0, # of connection points: 8
#     Node 12, Type 1, BuildingBlock: VETTIZ_charged_sbu_0, # of connection points: 8
#     Node 13, Type 1, BuildingBlock: VETTIZ_charged_sbu_0, # of connection points: 8
#     Edge 14, Type (0, 1), None
#     Edge 15, Type (0, 1), None
#     Edge 16, Type (0, 1), None
#     Edge 17, Type (0, 1), None
#     Edge 18, Type (0, 1), None
#     Edge 19, Type (0, 1), None
#     Edge 20, Type (0, 1), None
#     Edge 21, Type (0, 1), None
#     Edge 22, Type (0, 1), None
#     Edge 23, Type (0, 1), None
#     Edge 24, Type (0, 1), None
#     Edge 25, Type (0, 1), None
#     Edge 26, Type (0, 1), None
#     Edge 27, Type (0, 1), None
#     Edge 28, Type (0, 1), None
#     Edge 29, Type (0, 1), None
#     Edge 30, Type (0, 1), None
#     Edge 31, Type (0, 1), None
#     Edge 32, Type (0, 1), None
#     Edge 33, Type (0, 1), None
#     Edge 34, Type (0, 1), None
#     Edge 35, Type (0, 1), None
#     Edge 36, Type (0, 1), None
#     Edge 37, Type (0, 1), None
#     Edge 38, Type (0, 1), None
#     Edge 39, Type (0, 1), None
#     Edge 40, Type (0, 1), None
#     Edge 41, Type (0, 1), None
#     Edge 42, Type (0, 1), None
#     Edge 43, Type (0, 1), None
#     Edge 44, Type (0, 1), None
#     Edge 45, Type (0, 1), None
#     Edge 46, Type (0, 1), None
#     Edge 47, Type (0, 1), None
#     Edge 48, Type (0, 1), None
#     Edge 49, Type (0, 1), None
#     Edge 50, Type (0, 1), None
#     Edge 51, Type (0, 1), None
#     Edge 52, Type (0, 1), None
#     Edge 53, Type (0, 1), None
#     Edge 54, Type (0, 1), None
#     Edge 55, Type (0, 1), None
#     Edge 56, Type (0, 1), None
#     Edge 57, Type (0, 1), None
#     Edge 58, Type (0, 1), None
#     Edge 59, Type (0, 1), None
#     Edge 60, Type (0, 1), None
#     Edge 61, Type (0, 1), None
# Relax obj value: 0.131
# Max RMSD: 0.213
# Mean RMSD: 0.125
data_MOF--net-ocu--node1-CUKXOW_clean_sbu_0--node2-VETTIZ_charged_sbu_0--edge1-none
_symmetry_space_group_name_H-M    P1
_symmetry_Int_Tables_number       1
_symmetry_cell_setting            triclinic
loop_
_symmetry_equiv_pos_as_xyz
'x, y, z'
_cell_length_a     18.426702
_cell_length_b     18.705357
_cell_length_c     18.44989
_cell_angle_alpha  92.495709
_cell_angle_beta   92.711354
_cell_angle_gamma 88.383653
loop_
_atom_site_label
_atom_site_type_symbol
_atom_site_fract_x
_atom_site_fract_y
_atom_site_fract_z
_atom_type_partial_charge
Tb0 Tb 0.23522 0.24795 0.22635 0.0
C1 C 0.34213 0.37829 0.18274 0.0
Tb2 Tb 0.27135 0.30542 0.30167 0.0
O3 O 0.13844 0.26362 0.16048 0.0
O4 O 0.20029 0.35175 0.21438 0.0
O5 O 0.29943 0.32523 0.15783 0.0
C6 C 0.17092 0.36592 0.37434 0.0
O7 O 0.34314 0.3848 0.25441 0.0
C8 C 0.36936 0.19781 0.31729 0.0
C9 C 0.17917 0.20762 0.38029 0.0
O10 O 0.24049 0.37528 0.39214 0.0
O11 O 0.16006 0.32969 0.31408 0.0
O12 O 0.38342 0.26617 0.32034 0.0
O13 O 0.30161 0.19215 0.30304 0.0
O14 O 0.23682 0.24607 0.39556 0.0
O15 O 0.16502 0.19731 0.30895 0.0
C16 C 0.30973 0.17589 0.14016 0.0
O17 O 0.24068 0.16207 0.14305 0.0
O18 O 0.33191 0.22685 0.18342 0.0
C19 C 0.14914 0.33258 0.16802 0.0
Tb20 Tb 0.71432 0.28809 0.33195 0.0
C21 C 0.69884 0.18767 0.18285 0.0
Tb22 Tb 0.83179 0.27511 0.22317 0.0
O23 O 0.6372 0.3688 0.2851 0.0
O24 O 0.72929 0.33407 0.23228 0.0
O25 O 0.67191 0.21568 0.24392 0.0
C26 C 0.87283 0.37771 0.14593 0.0
O27 O 0.76369 0.20199 0.16078 0.0
C28 C 0.86704 0.18915 0.33647 0.0
C29 C 0.85814 0.3751 0.36067 0.0
O30 O 0.90056 0.31204 0.14031 0.0
O31 O 0.824 0.38417 0.19339 0.0
O32 O 0.90687 0.19555 0.27992 0.0
O33 O 0.81234 0.23094 0.32342 0.0
O34 O 0.88437 0.34252 0.30283 0.0
O35 O 0.79368 0.36154 0.38637 0.0
C36 C 0.64574 0.21132 0.41915 0.0
O37 O 0.64244 0.28124 0.42002 0.0
O38 O 0.68812 0.18558 0.37043 0.0
C39 C 0.67204 0.3756 0.22584 0.0
Tb40 Tb 0.77043 0.8159 0.20881 0.0
C41 C 0.66876 0.68348 0.17272 0.0
Tb42 Tb 0.75596 0.74556 0.30487 0.0
O43 O 0.86933 0.77943 0.15687 0.0
O44 O 0.80358 0.70552 0.20502 0.0
O45 O 0.70248 0.73649 0.14427 0.0
C46 C 0.84329 0.66649 0.37938 0.0
O47 O 0.68076 0.67448 0.24273 0.0
C48 C 0.66018 0.85328 0.3277 0.0
C49 C 0.86029 0.87314 0.3441 0.0
O50 O 0.77322 0.6677 0.38915 0.0
O51 O 0.86159 0.71026 0.33186 0.0
O52 O 0.64881 0.78567 0.3372 0.0
O53 O 0.72502 0.85629 0.30784 0.0
O54 O 0.82452 0.82098 0.37082 0.0
O55 O 0.84887 0.88363 0.27406 0.0
C56 C 0.66678 0.89079 0.15571 0.0
O57 O 0.73447 0.90098 0.13919 0.0
O58 O 0.65935 0.83371 0.18972 0.0
C59 C 0.86143 0.71199 0.17058 0.0
Tb60 Tb 0.26444 0.83237 0.23986 0.0
C61 C 0.37831 0.85251 0.36705 0.0
Tb62 Tb 0.27003 0.72798 0.32868 0.0
O63 O 0.16065 0.87809 0.28271 0.0
O64 O 0.23898 0.83455 0.35105 0.0
O65 O 0.3428 0.88499 0.31409 0.0
C66 C 0.16064 0.69734 0.40321 0.0
O67 O 0.3598 0.78761 0.38441 0.0
C68 C 0.35781 0.67866 0.2312 0.0
C69 C 0.16838 0.71391 0.18019 0.0
O70 O 0.22735 0.67282 0.41773 0.0
O71 O 0.15744 0.72758 0.34251 0.0
O72 O 0.36195 0.65932 0.29884 0.0
O73 O 0.30238 0.72127 0.22075 0.0
O74 O 0.19774 0.68365 0.23907 0.0
O75 O 0.18481 0.77979 0.16664 0.0
C76 C 0.35173 0.88921 0.15473 0.0
O77 O 0.2861 0.91528 0.16551 0.0
O78 O 0.36675 0.83274 0.19063 0.0
C79 C 0.17428 0.85948 0.3497 0.0
Tb80 Tb 0.18647 0.78465 0.81142 0.0
C81 C 0.16073 0.68432 0.67482 0.0
Tb82 Tb 0.30415 0.77212 0.70478 0.0
O83 O 0.11092 0.86406 0.75562 0.0
O84 O 0.2058 0.82973 0.71132 0.0
O85 O 0.1337 0.7175 0.73185 0.0
C86 C 0.37427 0.84862 0.61816 0.0
O87 O 0.22557 0.69787 0.64994 0.0
C88 C 0.34708 0.6842 0.81047 0.0
C89 C 0.31803 0.87209 0.85422 0.0
O90 O 0.37691 0.77871 0.61717 0.0
O91 O 0.33178 0.87456 0.66669 0.0
O92 O 0.38182 0.69176 0.75131 0.0
O93 O 0.28919 0.72507 0.80424 0.0
O94 O 0.34574 0.84423 0.79349 0.0
O95 O 0.25285 0.85785 0.87516 0.0
C96 C 0.1443 0.68218 0.88773 0.0
O97 O 0.11687 0.74794 0.8935 0.0
O98 O 0.19365 0.67557 0.8408 0.0
C99 C 0.15048 0.87114 0.69906 0.0
Tb100 Tb 0.26303 0.31399 0.73133 0.0
C101 C 0.15829 0.18684 0.6923 0.0
Tb102 Tb 0.24867 0.24368 0.82709 0.0
O103 O 0.37046 0.27461 0.6993 0.0
O104 O 0.29469 0.20321 0.72815 0.0
O105 O 0.19444 0.23864 0.66548 0.0
C106 C 0.35122 0.16759 0.88142 0.0
O107 O 0.16975 0.17627 0.76227 0.0
C108 C 0.15738 0.34825 0.86479 0.0
C109 C 0.35112 0.37553 0.86261 0.0
O110 O 0.2832 0.15867 0.89753 0.0
O111 O 0.35957 0.22413 0.84683 0.0
O112 O 0.14917 0.28078 0.87819 0.0
O113 O 0.216 0.35416 0.83148 0.0
O114 O 0.3173 0.32269 0.89119 0.0
O115 O 0.33855 0.38491 0.79279 0.0
C116 C 0.17625 0.39301 0.65574 0.0
O117 O 0.24644 0.39182 0.64679 0.0
O118 O 0.15761 0.34939 0.70326 0.0
C119 C 0.35959 0.20685 0.70841 0.0
Tb120 Tb 0.7499 0.33435 0.70065 0.0
C121 C 0.84429 0.34832 0.85433 0.0
Tb122 Tb 0.75275 0.22225 0.80025 0.0
O123 O 0.67914 0.42143 0.73955 0.0
O124 O 0.70102 0.32793 0.80066 0.0
O125 O 0.82253 0.37581 0.79134 0.0
C126 C 0.66407 0.16545 0.88427 0.0
O127 O 0.82474 0.28465 0.87186 0.0
C128 C 0.84455 0.19796 0.69137 0.0
C129 C 0.64333 0.20673 0.66543 0.0
O130 O 0.73184 0.14334 0.87937 0.0
O131 O 0.64753 0.21752 0.84291 0.0
O132 O 0.85383 0.17137 0.75588 0.0
O133 O 0.78135 0.22646 0.69178 0.0
O134 O 0.67717 0.17374 0.71978 0.0
O135 O 0.66155 0.27178 0.6468 0.0
C136 C 0.85954 0.36028 0.62375 0.0
O137 O 0.79321 0.3859 0.60943 0.0
O138 O 0.86185 0.32847 0.68348 0.0
C139 C 0.67006 0.39101 0.80115 0.0
Tb140 Tb 0.74669 0.75379 0.73328 0.0
C141 C 0.83753 0.85322 0.65599 0.0
Tb142 Tb 0.78156 0.81291 0.81066 0.0
O143 O 0.63464 0.79298 0.7143 0.0
O144 O 0.71605 0.86713 0.73278 0.0
O145 O 0.78093 0.81359 0.63998 0.0
C146 C 0.70565 0.88434 0.89653 0.0
O147 O 0.85087 0.86401 0.72749 0.0
C148 C 0.86877 0.7285 0.86701 0.0
C149 C 0.67669 0.68089 0.85358 0.0
O150 O 0.77475 0.89829 0.89429 0.0
O151 O 0.68398 0.83349 0.85281 0.0
O152 O 0.87917 0.79748 0.87502 0.0
O153 O 0.81725 0.70925 0.82125 0.0
O154 O 0.71816 0.73481 0.87867 0.0
O155 O 0.67617 0.67396 0.78186 0.0
C156 C 0.84839 0.6942 0.66064 0.0
O157 O 0.77887 0.68391 0.64318 0.0
O158 O 0.85859 0.73088 0.72077 0.0
C159 C 0.64848 0.8614 0.71816 0.0
Fe160 Fe 1.00877 0.11794 0.52421 0.0
O161 O 0.94367 0.03743 0.54782 0.0
Fe162 Fe 0.17926 1.02384 0.51602 0.0
Fe163 Fe 0.83712 0.03706 0.51999 0.0
O164 O 0.07236 0.03408 0.48831 0.0
O165 O 0.07272 1.02376 0.48891 0.0
O166 O 0.94393 1.02718 0.54823 0.0
Fe167 Fe 1.00795 0.94327 0.51302 0.0
C168 C 0.87316 0.16305 0.62259 0.0
O169 O 0.95449 0.13047 0.42085 0.0
O170 O 0.8383 0.12013 0.44288 0.0
O171 O 0.08757 0.8757 0.45244 0.0
O172 O 0.18259 0.94989 0.43521 0.0
O173 O 0.18313 0.10398 0.44478 0.0
O174 O 0.09079 0.18419 0.47655 0.0
O175 O 0.8393 0.95836 0.43823 0.0
O176 O 0.95412 0.94073 0.41011 0.0
C177 C 0.14711 0.16324 0.43707 0.0
O178 O 0.06229 0.93144 0.61646 0.0
O179 O 0.17824 0.94064 0.59287 0.0
O180 O 0.92927 0.18454 0.58635 0.0
O181 O 0.83308 0.11106 0.60133 0.0
C182 C 0.88739 0.14464 0.40426 0.0
C183 C 0.88652 0.93077 0.39686 0.0
C184 C 0.86947 0.89775 0.5994 0.0
O185 O 0.83311 0.95679 0.59122 0.0
O186 O 0.9261 0.87694 0.56038 0.0
C187 C 0.14339 0.89687 0.41568 0.0
O188 O 0.17786 0.10231 0.5976 0.0
O189 O 0.06337 0.1199 0.6269 0.0
C190 C 0.12947 0.91641 0.63202 0.0
C191 C 0.13114 0.12963 0.63958 0.0
Fe192 Fe 0.50793 0.86644 0.98964 0.0
O193 O 0.51373 0.96984 0.97955 0.0
Fe194 Fe 0.42383 1.02745 1.0104 0.0
Fe195 Fe 0.59122 0.03104 0.0285 0.0
O196 O 0.50654 0.96822 0.9801 0.0
O197 O 0.50124 0.08814 0.06078 0.0
O198 O 0.50877 0.08982 0.06017 0.0
Fe199 Fe 0.50838 0.19162 0.04935 0.0
C200 C 0.6058 0.91391 0.11649 0.0
O201 O 0.59425 0.87603 0.93236 0.0
O202 O 0.66818 0.96217 0.98934 0.0
O203 O 0.43691 0.19142 0.96613 0.0
O204 O 0.42975 0.07951 0.92024 0.0
O205 O 0.35309 0.95598 0.95153 0.0
O206 O 0.43275 0.87016 0.90705 0.0
O207 O 0.5969 0.0812 0.93584 0.0
O208 O 0.59352 0.19204 0.98239 0.0
C209 C 0.37064 0.90326 0.90668 0.0
O210 O 0.4214 0.18269 0.1054 0.0
O211 O 0.34693 0.09716 0.048 0.0
O212 O 0.58005 0.867 0.0723 0.0
O213 O 0.58767 0.97888 0.11866 0.0
C214 C 0.65404 0.91053 0.94318 0.0
C215 C 0.6158 0.14488 0.93683 0.0
C216 C 0.6455 0.15567 0.13152 0.0
O217 O 0.66262 0.10321 0.08615 0.0
O218 O 0.58301 0.18796 0.13236 0.0
C219 C 0.41157 0.14447 0.92183 0.0
O220 O 0.41489 0.97675 0.10265 0.0
O221 O 0.4237 0.86525 0.05741 0.0
C222 C 0.36126 0.14886 0.09402 0.0
C223 C 0.39928 0.91197 0.10233 0.0
Fe224 Fe 0.01064 0.61548 0.02333 0.0
O225 O 0.94575 0.53922 0.98147 0.0
Fe226 Fe 0.17525 0.51812 0.04545 0.0
Fe227 Fe 0.84148 0.54327 0.98929 0.0
O228 O 0.06859 0.53083 0.06047 0.0
O229 O 0.07094 0.5216 0.05279 0.0
O230 O 0.94823 0.53008 0.97347 0.0
Fe231 Fe 1.00618 0.44541 1.01061 0.0
C232 C 0.88745 0.65272 0.11876 0.0
O233 O 0.94418 0.69142 0.96922 0.0
O234 O 0.85081 0.62253 0.91948 0.0
O235 O 0.06328 0.42545 0.91676 0.0
O236 O 0.17589 0.43531 0.96363 0.0
O237 O 0.17848 0.59667 0.97137 0.0
O238 O 0.06372 0.6047 0.93136 0.0
O239 O 0.84179 0.46093 0.91177 0.0
O240 O 0.92632 0.37869 0.9573 0.0
C241 C 0.12817 0.6239 0.9312 0.0
O242 O 0.07303 0.36972 0.06571 0.0
O243 O 0.1659 0.43925 0.11601 0.0
O244 O 0.95469 0.63509 0.11762 0.0
O245 O 0.84175 0.62525 0.0719 0.0
C246 C 0.89165 0.67772 0.92128 0.0
C247 C 0.87412 0.39849 0.91111 0.0
C248 C 0.88856 0.43618 0.10229 0.0
O249 O 0.83805 0.46379 0.06261 0.0
O250 O 0.95274 0.45618 0.10241 0.0
C251 C 0.13064 0.40767 0.91637 0.0
O252 O 0.17363 0.60175 0.12178 0.0
O253 O 0.08926 0.6834 0.07536 0.0
C254 C 0.12556 0.38362 0.11388 0.0
C255 C 0.14095 0.66413 0.12195 0.0
Fe256 Fe 0.5096 0.53359 0.92779 0.0
O257 O 0.57175 0.49252 1.01043 0.0
Fe258 Fe 0.34144 0.56073 0.01891 0.0
Fe259 Fe 0.67837 0.49752 1.01687 0.0
O260 O 0.45036 0.57161 1.01351 0.0
O261 O 0.448 0.56567 0.02538 0.0
O262 O 0.56927 0.48632 0.02243 0.0
Fe263 Fe 0.5106 0.52555 0.10822 0.0
C264 C 0.63681 0.4306 0.86547 0.0
O265 O 0.57408 0.62683 0.91789 0.0
O266 O 0.68399 0.57724 0.93477 0.0
O267 O 0.43982 0.58368 0.18251 0.0
O268 O 0.34992 0.63483 0.10749 0.0
O269 O 0.34094 0.63426 0.932 0.0
O270 O 0.43007 0.58883 0.85686 0.0
O271 O 0.68416 0.57803 0.09859 0.0
O272 O 0.57062 0.61843 0.11456 0.0
C273 C 0.37344 0.63202 0.87013 0.0
O274 O 0.4457 0.43263 0.11998 0.0
O275 O 0.33553 0.48097 0.10058 0.0
O276 O 0.58263 0.47732 0.854 0.0
O277 O 0.6708 0.42288 0.92842 0.0
C278 C 0.64259 0.62566 0.90489 0.0
C279 C 0.63909 0.62408 0.12492 0.0
C280 C 0.64633 0.42746 0.16598 0.0
O281 O 0.67871 0.42445 0.10403 0.0
O282 O 0.59021 0.47118 0.17921 0.0
C283 C 0.38568 0.63006 0.17 0.0
O284 O 0.33582 0.48049 0.93707 0.0
O285 O 0.44955 0.44069 0.91976 0.0
C286 C 0.37685 0.43325 0.13157 0.0
C287 C 0.38097 0.43476 0.91028 0.0
Fe288 Fe 0.01432 0.44957 0.51252 0.0
O289 O 0.97456 0.52579 0.57802 0.0
Fe290 Fe 0.0248 0.53086 0.35118 0.0
Fe291 Fe 0.99386 0.52774 0.68305 0.0
O292 O 0.04339 0.52866 0.45501 0.0
O293 O 0.04535 0.53392 0.45632 0.0
O294 O 0.97607 0.53112 0.57915 0.0
Fe295 Fe 1.00617 0.61018 0.52214 0.0
C296 C 0.92041 0.40121 0.61818 0.0
O297 O 0.11362 0.45443 0.56609 0.0
O298 O 0.07437 0.45537 0.67783 0.0
O299 O 0.04806 0.68086 0.45376 0.0
O300 O 0.09381 0.60883 0.36209 0.0
O301 O 0.103 0.45865 0.35345 0.0
O302 O 0.06572 0.38317 0.43793 0.0
O303 O 0.06714 0.60745 0.68756 0.0
O304 O 0.1059 0.61727 0.57647 0.0
C305 C 0.11409 0.40846 0.39762 0.0
O306 O 0.9069 0.60618 0.46874 0.0
O307 O 0.94462 0.60353 0.35637 0.0
O308 O 0.97437 0.37834 0.58037 0.0
O309 O 0.92474 0.44897 0.67033 0.0
C310 C 0.1235 0.44447 0.63288 0.0
C311 C 0.11286 0.62905 0.64426 0.0
C312 C 0.90567 0.65154 0.63763 0.0
O313 O 0.91564 0.60021 0.68068 0.0
O314 O 0.95438 0.67652 0.59726 0.0
C315 C 0.09991 0.65751 0.41297 0.0
O316 O 0.95175 0.45147 0.34763 0.0
O317 O 0.91422 0.44136 0.45897 0.0
C318 C 0.89621 0.61521 0.40193 0.0
C319 C 0.90652 0.42985 0.39123 0.0
Fe320 Fe 0.56878 0.87254 0.51258 0.0
O321 O 0.55759 0.97715 0.52336 0.0
Fe322 Fe 0.51365 0.03007 0.43095 0.0
Fe323 Fe 0.5062 0.02999 0.60437 0.0
O324 O 0.55745 0.97656 0.51441 0.0
O325 O 0.46175 0.08267 0.51183 0.0
O326 O 0.46202 0.08334 0.52091 0.0
Fe327 Fe 0.45132 0.18749 0.52237 0.0
C328 C 0.42951 0.89018 0.58999 0.0
O329 O 0.63461 0.88893 0.6006 0.0
O330 O 0.56372 0.95789 0.67819 0.0
O331 O 0.53076 0.20337 0.45492 0.0
O332 O 0.59664 0.10146 0.44279 0.0
O333 O 0.57863 0.95758 0.36002 0.0
O334 O 0.64506 0.89236 0.44348 0.0
O335 O 0.59033 0.10038 0.61759 0.0
O336 O 0.52745 0.20367 0.607 0.0
C337 C 0.62907 0.90865 0.37829 0.0
O338 O 0.38462 0.17115 0.43501 0.0
O339 O 0.45564 0.10234 0.35728 0.0
O340 O 0.4883 0.85594 0.57891 0.0
O341 O 0.42327 0.95847 0.59355 0.0
C342 C 0.61394 0.90803 0.66402 0.0
C343 C 0.58513 0.16847 0.62486 0.0
C344 C 0.39149 0.15208 0.65756 0.0
O345 O 0.44181 0.10292 0.6756 0.0
O346 O 0.37566 0.16884 0.59249 0.0
C347 C 0.59023 0.16967 0.44635 0.0
O348 O 0.43005 0.95909 0.41661 0.0
O349 O 0.4937 0.85614 0.42694 0.0
C350 C 0.40464 0.15151 0.37146 0.0
C351 C 0.43611 0.89109 0.4082 0.0
loop_
_geom_bond_atom_site_label_1
_geom_bond_atom_site_label_2
_geom_bond_distance
_geom_bond_site_symmetry_2
_ccdc_geom_bond_type
Tb0 O3 2.453 . S
Tb0 O4 2.596 . S
Tb0 O5 2.374 . S
Tb0 O13 2.343 . S
Tb0 O15 2.353 . S
Tb0 O17 2.427 . S
Tb0 O18 2.513 . S
C1 O5 1.251 . S
C1 O7 1.263 . S
Tb2 O4 2.343 . S
Tb2 O7 2.353 . S
Tb2 O10 2.427 . S
Tb2 O11 2.513 . S
Tb2 O12 2.453 . S
Tb2 O13 2.596 . S
Tb2 O14 2.374 . S
O3 Tb0 2.453 . S
O3 C19 1.245 . S
O4 Tb0 2.596 . S
O4 Tb2 2.343 . S
O4 C19 1.259 . S
O5 Tb0 2.374 . S
O5 C1 1.251 . S
C6 O10 1.275 . S
C6 O11 1.246 . S
O7 C1 1.263 . S
O7 Tb2 2.353 . S
C8 O12 1.245 . S
C8 O13 1.259 . S
C9 O14 1.250 . S
C9 O15 1.263 . S
O10 Tb2 2.427 . S
O10 C6 1.275 . S
O11 Tb2 2.513 . S
O11 C6 1.246 . S
O12 Tb2 2.453 . S
O12 C8 1.245 . S
O13 Tb0 2.343 . S
O13 Tb2 2.596 . S
O13 C8 1.259 . S
O14 Tb2 2.374 . S
O14 C9 1.250 . S
O15 Tb0 2.353 . S
O15 C9 1.263 . S
C16 O17 1.275 . S
C16 O18 1.246 . S
O17 Tb0 2.427 . S
O17 C16 1.275 . S
O18 Tb0 2.513 . S
O18 C16 1.246 . S
C19 O3 1.245 . S
C19 O4 1.259 . S
Tb20 O23 2.453 . S
Tb20 O24 2.596 . S
Tb20 O25 2.374 . S
Tb20 O33 2.343 . S
Tb20 O35 2.353 . S
Tb20 O37 2.427 . S
Tb20 O38 2.513 . S
C21 O25 1.251 . S
C21 O27 1.263 . S
Tb22 O24 2.343 . S
Tb22 O27 2.353 . S
Tb22 O30 2.427 . S
Tb22 O31 2.513 . S
Tb22 O32 2.453 . S
Tb22 O33 2.596 . S
Tb22 O34 2.374 . S
O23 Tb20 2.453 . S
O23 C39 1.245 . S
O24 Tb20 2.596 . S
O24 Tb22 2.343 . S
O24 C39 1.259 . S
O25 Tb20 2.374 . S
O25 C21 1.251 . S
C26 O30 1.275 . S
C26 O31 1.246 . S
O27 C21 1.263 . S
O27 Tb22 2.353 . S
C28 O32 1.245 . S
C28 O33 1.259 . S
C29 O34 1.250 . S
C29 O35 1.263 . S
O30 Tb22 2.427 . S
O30 C26 1.275 . S
O31 Tb22 2.513 . S
O31 C26 1.246 . S
O32 Tb22 2.453 . S
O32 C28 1.245 . S
O33 Tb20 2.343 . S
O33 Tb22 2.596 . S
O33 C28 1.259 . S
O34 Tb22 2.374 . S
O34 C29 1.250 . S
O35 Tb20 2.353 . S
O35 C29 1.263 . S
C36 O37 1.275 . S
C36 O38 1.246 . S
O37 Tb20 2.427 . S
O37 C36 1.275 . S
O38 Tb20 2.513 . S
O38 C36 1.246 . S
C39 O23 1.245 . S
C39 O24 1.259 . S
Tb40 O43 2.453 . S
Tb40 O44 2.596 . S
Tb40 O45 2.374 . S
Tb40 O53 2.343 . S
Tb40 O55 2.353 . S
Tb40 O57 2.427 . S
Tb40 O58 2.513 . S
C41 O45 1.251 . S
C41 O47 1.263 . S
Tb42 O44 2.343 . S
Tb42 O47 2.353 . S
Tb42 O50 2.427 . S
Tb42 O51 2.513 . S
Tb42 O52 2.453 . S
Tb42 O53 2.596 . S
Tb42 O54 2.374 . S
O43 Tb40 2.453 . S
O43 C59 1.245 . S
O44 Tb40 2.596 . S
O44 Tb42 2.343 . S
O44 C59 1.259 . S
O45 Tb40 2.374 . S
O45 C41 1.251 . S
C46 O50 1.275 . S
C46 O51 1.246 . S
O47 C41 1.263 . S
O47 Tb42 2.353 . S
C48 O52 1.245 . S
C48 O53 1.259 . S
C49 O54 1.250 . S
C49 O55 1.263 . S
O50 Tb42 2.427 . S
O50 C46 1.275 . S
O51 Tb42 2.513 . S
O51 C46 1.246 . S
O52 Tb42 2.453 . S
O52 C48 1.245 . S
O53 Tb40 2.343 . S
O53 Tb42 2.596 . S
O53 C48 1.259 . S
O54 Tb42 2.374 . S
O54 C49 1.250 . S
O55 Tb40 2.353 . S
O55 C49 1.263 . S
C56 O57 1.275 . S
C56 O58 1.246 . S
O57 Tb40 2.427 . S
O57 C56 1.275 . S
O58 Tb40 2.513 . S
O58 C56 1.246 . S
C59 O43 1.245 . S
C59 O44 1.259 . S
Tb60 O63 2.453 . S
Tb60 O64 2.596 . S
Tb60 O65 2.374 . S
Tb60 O73 2.343 . S
Tb60 O75 2.353 . S
Tb60 O77 2.427 . S
Tb60 O78 2.513 . S
C61 O65 1.251 . S
C61 O67 1.263 . S
Tb62 O64 2.343 . S
Tb62 O67 2.353 . S
Tb62 O70 2.427 . S
Tb62 O71 2.513 . S
Tb62 O72 2.453 . S
Tb62 O73 2.596 . S
Tb62 O74 2.374 . S
O63 Tb60 2.453 . S
O63 C79 1.245 . S
O64 Tb60 2.596 . S
O64 Tb62 2.343 . S
O64 C79 1.259 . S
O65 Tb60 2.374 . S
O65 C61 1.251 . S
C66 O70 1.275 . S
C66 O71 1.246 . S
O67 C61 1.263 . S
O67 Tb62 2.353 . S
C68 O72 1.245 . S
C68 O73 1.259 . S
C69 O74 1.250 . S
C69 O75 1.263 . S
O70 Tb62 2.427 . S
O70 C66 1.275 . S
O71 Tb62 2.513 . S
O71 C66 1.246 . S
O72 Tb62 2.453 . S
O72 C68 1.245 . S
O73 Tb60 2.343 . S
O73 Tb62 2.596 . S
O73 C68 1.259 . S
O74 Tb62 2.374 . S
O74 C69 1.250 . S
O75 Tb60 2.353 . S
O75 C69 1.263 . S
C76 O77 1.275 . S
C76 O78 1.246 . S
O77 Tb60 2.427 . S
O77 C76 1.275 . S
O78 Tb60 2.513 . S
O78 C76 1.246 . S
C79 O63 1.245 . S
C79 O64 1.259 . S
Tb80 O83 2.453 . S
Tb80 O84 2.596 . S
Tb80 O85 2.374 . S
Tb80 O93 2.343 . S
Tb80 O95 2.353 . S
Tb80 O97 2.427 . S
Tb80 O98 2.513 . S
C81 O85 1.251 . S
C81 O87 1.263 . S
Tb82 O84 2.343 . S
Tb82 O87 2.353 . S
Tb82 O90 2.427 . S
Tb82 O91 2.513 . S
Tb82 O92 2.453 . S
Tb82 O93 2.596 . S
Tb82 O94 2.374 . S
O83 Tb80 2.453 . S
O83 C99 1.245 . S
O84 Tb80 2.596 . S
O84 Tb82 2.343 . S
O84 C99 1.259 . S
O85 Tb80 2.374 . S
O85 C81 1.251 . S
C86 O90 1.275 . S
C86 O91 1.246 . S
O87 C81 1.263 . S
O87 Tb82 2.353 . S
C88 O92 1.245 . S
C88 O93 1.259 . S
C89 O94 1.250 . S
C89 O95 1.263 . S
O90 Tb82 2.427 . S
O90 C86 1.275 . S
O91 Tb82 2.513 . S
O91 C86 1.246 . S
O92 Tb82 2.453 . S
O92 C88 1.245 . S
O93 Tb80 2.343 . S
O93 Tb82 2.596 . S
O93 C88 1.259 . S
O94 Tb82 2.374 . S
O94 C89 1.250 . S
O95 Tb80 2.353 . S
O95 C89 1.263 . S
C96 O97 1.275 . S
C96 O98 1.246 . S
O97 Tb80 2.427 . S
O97 C96 1.275 . S
O98 Tb80 2.513 . S
O98 C96 1.246 . S
C99 O83 1.245 . S
C99 O84 1.259 . S
Tb100 O103 2.453 . S
Tb100 O104 2.596 . S
Tb100 O105 2.374 . S
Tb100 O113 2.343 . S
Tb100 O115 2.353 . S
Tb100 O117 2.427 . S
Tb100 O118 2.513 . S
C101 O105 1.251 . S
C101 O107 1.263 . S
Tb102 O104 2.343 . S
Tb102 O107 2.353 . S
Tb102 O110 2.427 . S
Tb102 O111 2.513 . S
Tb102 O112 2.453 . S
Tb102 O113 2.596 . S
Tb102 O114 2.374 . S
O103 Tb100 2.453 . S
O103 C119 1.245 . S
O104 Tb100 2.596 . S
O104 Tb102 2.343 . S
O104 C119 1.259 . S
O105 Tb100 2.374 . S
O105 C101 1.251 . S
C106 O110 1.275 . S
C106 O111 1.246 . S
O107 C101 1.263 . S
O107 Tb102 2.353 . S
C108 O112 1.245 . S
C108 O113 1.259 . S
C109 O114 1.250 . S
C109 O115 1.263 . S
O110 Tb102 2.427 . S
O110 C106 1.275 . S
O111 Tb102 2.513 . S
O111 C106 1.246 . S
O112 Tb102 2.453 . S
O112 C108 1.245 . S
O113 Tb100 2.343 . S
O113 Tb102 2.596 . S
O113 C108 1.259 . S
O114 Tb102 2.374 . S
O114 C109 1.250 . S
O115 Tb100 2.353 . S
O115 C109 1.263 . S
C116 O117 1.275 . S
C116 O118 1.246 . S
O117 Tb100 2.427 . S
O117 C116 1.275 . S
O118 Tb100 2.513 . S
O118 C116 1.246 . S
C119 O103 1.245 . S
C119 O104 1.259 . S
Tb120 O123 2.453 . S
Tb120 O124 2.596 . S
Tb120 O125 2.374 . S
Tb120 O133 2.343 . S
Tb120 O135 2.353 . S
Tb120 O137 2.427 . S
Tb120 O138 2.513 . S
C121 O125 1.251 . S
C121 O127 1.263 . S
Tb122 O124 2.343 . S
Tb122 O127 2.353 . S
Tb122 O130 2.427 . S
Tb122 O131 2.513 . S
Tb122 O132 2.453 . S
Tb122 O133 2.596 . S
Tb122 O134 2.374 . S
O123 Tb120 2.453 . S
O123 C139 1.245 . S
O124 Tb120 2.596 . S
O124 Tb122 2.343 . S
O124 C139 1.259 . S
O125 Tb120 2.374 . S
O125 C121 1.251 . S
C126 O130 1.275 . S
C126 O131 1.246 . S
O127 C121 1.263 . S
O127 Tb122 2.353 . S
C128 O132 1.245 . S
C128 O133 1.259 . S
C129 O134 1.250 . S
C129 O135 1.263 . S
O130 Tb122 2.427 . S
O130 C126 1.275 . S
O131 Tb122 2.513 . S
O131 C126 1.246 . S
O132 Tb122 2.453 . S
O132 C128 1.245 . S
O133 Tb120 2.343 . S
O133 Tb122 2.596 . S
O133 C128 1.259 . S
O134 Tb122 2.374 . S
O134 C129 1.250 . S
O135 Tb120 2.353 . S
O135 C129 1.263 . S
C136 O137 1.275 . S
C136 O138 1.246 . S
O137 Tb120 2.427 . S
O137 C136 1.275 . S
O138 Tb120 2.513 . S
O138 C136 1.246 . S
C139 O123 1.245 . S
C139 O124 1.259 . S
Tb140 O143 2.453 . S
Tb140 O144 2.596 . S
Tb140 O145 2.374 . S
Tb140 O153 2.343 . S
Tb140 O155 2.353 . S
Tb140 O157 2.427 . S
Tb140 O158 2.513 . S
C141 O145 1.251 . S
C141 O147 1.263 . S
Tb142 O144 2.343 . S
Tb142 O147 2.353 . S
Tb142 O150 2.427 . S
Tb142 O151 2.513 . S
Tb142 O152 2.453 . S
Tb142 O153 2.596 . S
Tb142 O154 2.374 . S
O143 Tb140 2.453 . S
O143 C159 1.245 . S
O144 Tb140 2.596 . S
O144 Tb142 2.343 . S
O144 C159 1.259 . S
O145 Tb140 2.374 . S
O145 C141 1.251 . S
C146 O150 1.275 . S
C146 O151 1.246 . S
O147 C141 1.263 . S
O147 Tb142 2.353 . S
C148 O152 1.245 . S
C148 O153 1.259 . S
C149 O154 1.250 . S
C149 O155 1.263 . S
O150 Tb142 2.427 . S
O150 C146 1.275 . S
O151 Tb142 2.513 . S
O151 C146 1.246 . S
O152 Tb142 2.453 . S
O152 C148 1.245 . S
O153 Tb140 2.343 . S
O153 Tb142 2.596 . S
O153 C148 1.259 . S
O154 Tb142 2.374 . S
O154 C149 1.250 . S
O155 Tb140 2.353 . S
O155 C149 1.263 . S
C156 O157 1.275 . S
C156 O158 1.246 . S
O157 Tb140 2.427 . S
O157 C156 1.275 . S
O158 Tb140 2.513 . S
O158 C156 1.246 . S
C159 O143 1.245 . S
C159 O144 1.259 . S
Fe160 O161 1.886 1_455 S
Fe160 O164 1.715 . S
Fe160 O169 2.077 1_455 S
Fe160 O174 1.935 . S
Fe160 O180 2.077 1_455 S
Fe160 O189 1.935 . S
O161 Fe160 1.886 1_655 S
O161 Fe163 1.715 1_545 S
Fe162 O164 1.886 . S
Fe162 O165 1.715 1_545 S
Fe162 O172 1.935 1_545 S
Fe162 O173 2.077 . S
Fe162 O179 1.935 1_545 S
Fe162 O188 2.077 . S
Fe163 O161 1.715 1_565 S
Fe163 O166 1.886 . S
Fe163 O170 1.935 1_565 S
Fe163 O175 2.077 . S
Fe163 O181 1.935 1_565 S
Fe163 O185 2.077 . S
O164 Fe160 1.715 . S
O164 Fe162 1.886 . S
O165 Fe162 1.715 1_565 S
O165 Fe167 1.886 1_455 S
O166 Fe163 1.886 . S
O166 Fe167 1.715 . S
Fe167 O165 1.886 1_655 S
Fe167 O166 1.715 . S
Fe167 O171 2.077 1_655 S
Fe167 O176 1.935 . S
Fe167 O178 2.077 1_655 S
Fe167 O186 1.935 . S
C168 O180 1.381 . S
C168 O181 1.421 . S
O169 Fe160 2.077 1_655 S
O169 C182 1.381 . S
O170 Fe163 1.935 1_545 S
O170 C182 1.421 . S
O171 Fe167 2.077 1_455 S
O171 C187 1.381 . S
O172 Fe162 1.935 1_565 S
O172 C187 1.421 . S
O173 Fe162 2.077 . S
O173 C177 1.381 . S
O174 Fe160 1.935 . S
O174 C177 1.421 . S
O175 Fe163 2.077 . S
O175 C183 1.381 . S
O176 Fe167 1.935 . S
O176 C183 1.421 . S
C177 O173 1.381 . S
C177 O174 1.421 . S
O178 Fe167 2.077 1_455 S
O178 C190 1.381 . S
O179 Fe162 1.935 1_565 S
O179 C190 1.421 . S
O180 Fe160 2.077 1_655 S
O180 C168 1.381 . S
O181 Fe163 1.935 1_545 S
O181 C168 1.421 . S
C182 O169 1.381 . S
C182 O170 1.421 . S
C183 O175 1.381 . S
C183 O176 1.421 . S
C184 O185 1.381 . S
C184 O186 1.421 . S
O185 Fe163 2.077 . S
O185 C184 1.381 . S
O186 Fe167 1.935 . S
O186 C184 1.421 . S
C187 O171 1.381 . S
C187 O172 1.421 . S
O188 Fe162 2.077 . S
O188 C191 1.381 . S
O189 Fe160 1.935 . S
O189 C191 1.421 . S
C190 O178 1.381 . S
C190 O179 1.421 . S
C191 O188 1.381 . S
C191 O189 1.421 . S
Fe192 O193 1.886 1_556 S
Fe192 O196 1.715 . S
Fe192 O201 2.077 . S
Fe192 O206 1.935 . S
Fe192 O212 2.077 1_556 S
Fe192 O221 1.935 1_556 S
O193 Fe192 1.886 1_554 S
O193 Fe195 1.714 1_565 S
Fe194 O196 1.886 . S
Fe194 O197 1.715 1_565 S
Fe194 O204 1.935 1_565 S
Fe194 O205 2.077 . S
Fe194 O211 1.935 1_566 S
Fe194 O220 2.077 1_556 S
Fe195 O193 1.714 1_545 S
Fe195 O198 1.886 . S
Fe195 O202 1.935 1_544 S
Fe195 O207 2.077 1_554 S
Fe195 O213 1.935 1_545 S
Fe195 O217 2.077 . S
O196 Fe192 1.715 . S
O196 Fe194 1.886 . S
O197 Fe194 1.715 1_545 S
O197 Fe199 1.886 1_556 S
O198 Fe195 1.886 . S
O198 Fe199 1.715 . S
Fe199 O197 1.886 1_554 S
Fe199 O198 1.715 . S
Fe199 O203 2.077 1_554 S
Fe199 O208 1.935 1_554 S
Fe199 O210 2.077 . S
Fe199 O218 1.935 . S
C200 O212 1.381 . S
C200 O213 1.421 . S
O201 Fe192 2.077 . S
O201 C214 1.381 . S
O202 Fe195 1.935 1_566 S
O202 C214 1.421 . S
O203 Fe199 2.077 1_556 S
O203 C219 1.381 . S
O204 Fe194 1.935 1_545 S
O204 C219 1.421 . S
O205 Fe194 2.077 . S
O205 C209 1.381 . S
O206 Fe192 1.935 . S
O206 C209 1.421 . S
O207 Fe195 2.077 1_556 S
O207 C215 1.381 . S
O208 Fe199 1.935 1_556 S
O208 C215 1.421 . S
C209 O205 1.381 . S
C209 O206 1.421 . S
O210 Fe199 2.077 . S
O210 C222 1.381 . S
O211 Fe194 1.935 1_544 S
O211 C222 1.421 . S
O212 Fe192 2.077 1_554 S
O212 C200 1.381 . S
O213 Fe195 1.935 1_565 S
O213 C200 1.421 . S
C214 O201 1.381 . S
C214 O202 1.421 . S
C215 O207 1.381 . S
C215 O208 1.421 . S
C216 O217 1.381 . S
C216 O218 1.421 . S
O217 Fe195 2.077 . S
O217 C216 1.381 . S
O218 Fe199 1.935 . S
O218 C216 1.421 . S
C219 O203 1.381 . S
C219 O204 1.421 . S
O220 Fe194 2.077 1_554 S
O220 C223 1.381 . S
O221 Fe192 1.935 1_554 S
O221 C223 1.421 . S
C222 O210 1.381 . S
C222 O211 1.421 . S
C223 O220 1.381 . S
C223 O221 1.421 . S
Fe224 O225 1.886 1_454 S
Fe224 O228 1.715 . S
Fe224 O233 2.077 1_454 S
Fe224 O238 1.935 1_554 S
Fe224 O244 2.077 1_455 S
Fe224 O253 1.935 . S
O225 Fe224 1.886 1_656 S
O225 Fe227 1.715 . S
Fe226 O228 1.886 . S
Fe226 O229 1.714 . S
Fe226 O236 1.935 1_554 S
Fe226 O237 2.077 1_554 S
Fe226 O243 1.935 . S
Fe226 O252 2.077 . S
Fe227 O225 1.715 . S
Fe227 O230 1.886 . S
Fe227 O234 1.935 . S
Fe227 O239 2.077 . S
Fe227 O245 1.935 1_556 S
Fe227 O249 2.077 1_556 S
O228 Fe224 1.715 . S
O228 Fe226 1.886 . S
O229 Fe226 1.714 . S
O229 Fe231 1.886 1_454 S
O230 Fe227 1.886 . S
O230 Fe231 1.715 . S
Fe231 O229 1.886 1_656 S
Fe231 O230 1.715 . S
Fe231 O235 2.077 1_655 S
Fe231 O240 1.935 . S
Fe231 O242 2.077 1_656 S
Fe231 O250 1.935 1_556 S
C232 O244 1.381 . S
C232 O245 1.421 . S
O233 Fe224 2.077 1_656 S
O233 C246 1.381 . S
O234 Fe227 1.935 . S
O234 C246 1.421 . S
O235 Fe231 2.077 1_455 S
O235 C251 1.381 . S
O236 Fe226 1.935 1_556 S
O236 C251 1.421 . S
O237 Fe226 2.077 1_556 S
O237 C241 1.381 . S
O238 Fe224 1.935 1_556 S
O238 C241 1.421 . S
O239 Fe227 2.077 . S
O239 C247 1.381 . S
O240 Fe231 1.935 . S
O240 C247 1.421 . S
C241 O237 1.381 . S
C241 O238 1.421 . S
O242 Fe231 2.077 1_454 S
O242 C254 1.381 . S
O243 Fe226 1.935 . S
O243 C254 1.421 . S
O244 Fe224 2.077 1_655 S
O244 C232 1.381 . S
O245 Fe227 1.935 1_554 S
O245 C232 1.421 . S
C246 O233 1.381 . S
C246 O234 1.421 . S
C247 O239 1.381 . S
C247 O240 1.421 . S
C248 O249 1.381 . S
C248 O250 1.421 . S
O249 Fe227 2.077 1_554 S
O249 C248 1.381 . S
O250 Fe231 1.935 1_554 S
O250 C248 1.421 . S
C251 O235 1.381 . S
C251 O236 1.421 . S
O252 Fe226 2.077 . S
O252 C255 1.381 . S
O253 Fe224 1.935 . S
O253 C255 1.421 . S
C254 O242 1.381 . S
C254 O243 1.421 . S
C255 O252 1.381 . S
C255 O253 1.421 . S
Fe256 O257 1.886 . S
Fe256 O260 1.715 . S
Fe256 O265 2.077 . S
Fe256 O270 1.935 . S
Fe256 O276 2.077 . S
Fe256 O285 1.935 . S
O257 Fe256 1.886 . S
O257 Fe259 1.715 1_556 S
Fe258 O260 1.886 . S
Fe258 O261 1.715 1_556 S
Fe258 O268 1.935 1_556 S
Fe258 O269 2.077 . S
Fe258 O275 1.935 1_556 S
Fe258 O284 2.077 . S
Fe259 O257 1.715 1_554 S
Fe259 O262 1.886 . S
Fe259 O266 1.935 1_554 S
Fe259 O271 2.077 . S
Fe259 O277 1.935 1_554 S
Fe259 O281 2.077 . S
O260 Fe256 1.715 . S
O260 Fe258 1.886 . S
O261 Fe258 1.715 1_554 S
O261 Fe263 1.886 . S
O262 Fe259 1.886 . S
O262 Fe263 1.715 . S
Fe263 O261 1.886 . S
Fe263 O262 1.715 . S
Fe263 O267 2.077 . S
Fe263 O272 1.935 . S
Fe263 O274 2.077 . S
Fe263 O282 1.935 . S
C264 O276 1.381 . S
C264 O277 1.421 . S
O265 Fe256 2.077 . S
O265 C278 1.381 . S
O266 Fe259 1.935 1_556 S
O266 C278 1.421 . S
O267 Fe263 2.077 . S
O267 C283 1.381 . S
O268 Fe258 1.935 1_554 S
O268 C283 1.421 . S
O269 Fe258 2.077 . S
O269 C273 1.381 . S
O270 Fe256 1.935 . S
O270 C273 1.421 . S
O271 Fe259 2.077 . S
O271 C279 1.381 . S
O272 Fe263 1.935 . S
O272 C279 1.421 . S
C273 O269 1.381 . S
C273 O270 1.421 . S
O274 Fe263 2.077 . S
O274 C286 1.381 . S
O275 Fe258 1.935 1_554 S
O275 C286 1.421 . S
O276 Fe256 2.077 . S
O276 C264 1.381 . S
O277 Fe259 1.935 1_556 S
O277 C264 1.421 . S
C278 O265 1.381 . S
C278 O266 1.421 . S
C279 O271 1.381 . S
C279 O272 1.421 . S
C280 O281 1.381 . S
C280 O282 1.421 . S
O281 Fe259 2.077 . S
O281 C280 1.381 . S
O282 Fe263 1.935 . S
O282 C280 1.421 . S
C283 O267 1.381 . S
C283 O268 1.421 . S
O284 Fe258 2.077 . S
O284 C287 1.381 . S
O285 Fe256 1.935 . S
O285 C287 1.421 . S
C286 O274 1.381 . S
C286 O275 1.421 . S
C287 O284 1.381 . S
C287 O285 1.421 . S
Fe288 O289 1.886 1_655 S
Fe288 O292 1.715 . S
Fe288 O297 2.077 1_655 S
Fe288 O302 1.935 1_655 S
Fe288 O308 2.077 . S
Fe288 O317 1.935 . S
O289 Fe288 1.886 1_455 S
O289 Fe291 1.715 . S
Fe290 O292 1.886 . S
Fe290 O293 1.715 . S
Fe290 O300 1.935 1_655 S
Fe290 O301 2.077 1_655 S
Fe290 O307 1.935 . S
Fe290 O316 2.077 . S
Fe291 O289 1.715 . S
Fe291 O294 1.886 . S
Fe291 O298 1.935 . S
Fe291 O303 2.077 . S
Fe291 O309 1.935 1_455 S
Fe291 O313 2.077 1_455 S
O292 Fe288 1.715 . S
O292 Fe290 1.886 . S
O293 Fe290 1.715 . S
O293 Fe295 1.886 1_655 S
O294 Fe291 1.886 . S
O294 Fe295 1.715 . S
Fe295 O293 1.886 1_455 S
Fe295 O294 1.715 . S
Fe295 O299 2.077 . S
Fe295 O304 1.935 . S
Fe295 O306 2.077 1_455 S
Fe295 O314 1.935 1_455 S
C296 O308 1.381 . S
C296 O309 1.421 . S
O297 Fe288 2.077 1_455 S
O297 C310 1.381 . S
O298 Fe291 1.935 . S
O298 C310 1.421 . S
O299 Fe295 2.077 . S
O299 C315 1.381 . S
O300 Fe290 1.935 1_455 S
O300 C315 1.421 . S
O301 Fe290 2.077 1_455 S
O301 C305 1.381 . S
O302 Fe288 1.935 1_455 S
O302 C305 1.421 . S
O303 Fe291 2.077 . S
O303 C311 1.381 . S
O304 Fe295 1.935 . S
O304 C311 1.421 . S
C305 O301 1.381 . S
C305 O302 1.421 . S
O306 Fe295 2.077 1_655 S
O306 C318 1.381 . S
O307 Fe290 1.935 . S
O307 C318 1.421 . S
O308 Fe288 2.077 . S
O308 C296 1.381 . S
O309 Fe291 1.935 1_655 S
O309 C296 1.421 . S
C310 O297 1.381 . S
C310 O298 1.421 . S
C311 O303 1.381 . S
C311 O304 1.421 . S
C312 O313 1.381 . S
C312 O314 1.421 . S
O313 Fe291 2.077 1_655 S
O313 C312 1.381 . S
O314 Fe295 1.935 1_655 S
O314 C312 1.421 . S
C315 O299 1.381 . S
C315 O300 1.421 . S
O316 Fe290 2.077 . S
O316 C319 1.381 . S
O317 Fe288 1.935 . S
O317 C319 1.421 . S
C318 O306 1.381 . S
C318 O307 1.421 . S
C319 O316 1.381 . S
C319 O317 1.421 . S
Fe320 O321 1.886 . S
Fe320 O324 1.715 . S
Fe320 O329 2.077 . S
Fe320 O334 1.935 . S
Fe320 O340 2.077 . S
Fe320 O349 1.935 . S
O321 Fe320 1.886 . S
O321 Fe323 1.715 1_565 S
Fe322 O324 1.886 . S
Fe322 O325 1.715 1_565 S
Fe322 O332 1.935 1_565 S
Fe322 O333 2.077 . S
Fe322 O339 1.935 1_565 S
Fe322 O348 2.077 . S
Fe323 O321 1.715 1_545 S
Fe323 O326 1.886 . S
Fe323 O330 1.935 1_545 S
Fe323 O335 2.077 . S
Fe323 O341 1.935 1_545 S
Fe323 O345 2.077 . S
O324 Fe320 1.715 . S
O324 Fe322 1.886 . S
O325 Fe322 1.715 1_545 S
O325 Fe327 1.886 . S
O326 Fe323 1.886 . S
O326 Fe327 1.715 . S
Fe327 O325 1.886 . S
Fe327 O326 1.715 . S
Fe327 O331 2.077 . S
Fe327 O336 1.935 . S
Fe327 O338 2.077 . S
Fe327 O346 1.935 . S
C328 O340 1.381 . S
C328 O341 1.421 . S
O329 Fe320 2.077 . S
O329 C342 1.381 . S
O330 Fe323 1.935 1_565 S
O330 C342 1.421 . S
O331 Fe327 2.077 . S
O331 C347 1.381 . S
O332 Fe322 1.935 1_545 S
O332 C347 1.421 . S
O333 Fe322 2.077 . S
O333 C337 1.381 . S
O334 Fe320 1.935 . S
O334 C337 1.421 . S
O335 Fe323 2.077 . S
O335 C343 1.381 . S
O336 Fe327 1.935 . S
O336 C343 1.421 . S
C337 O333 1.381 . S
C337 O334 1.421 . S
O338 Fe327 2.077 . S
O338 C350 1.381 . S
O339 Fe322 1.935 1_545 S
O339 C350 1.421 . S
O340 Fe320 2.077 . S
O340 C328 1.381 . S
O341 Fe323 1.935 1_565 S
O341 C328 1.421 . S
C342 O329 1.381 . S
C342 O330 1.421 . S
C343 O335 1.381 . S
C343 O336 1.421 . S
C344 O345 1.381 . S
C344 O346 1.421 . S
O345 Fe323 2.077 . S
O345 C344 1.381 . S
O346 Fe327 1.935 . S
O346 C344 1.421 . S
C347 O331 1.381 . S
C347 O332 1.421 . S
O348 Fe322 2.077 . S
O348 C351 1.381 . S
O349 Fe320 1.935 . S
O349 C351 1.421 . S
C350 O338 1.381 . S
C350 O339 1.421 . S
C351 O348 1.381 . S
C351 O349 1.421 . S
C177 C9 2.354 . S
C182 C28 2.191 . S
C183 C49 1.357 . S
C79 C187 2.192 . S
C99 C190 2.191 . S
C191 C101 1.356 . S
C128 C168 2.192 . S
C141 C184 2.356 . S
C222 C16 1.296 . S
C26 C248 0.771 . S
C200 C56 0.987 . S
C255 C69 1.150 . S
C89 C209 1.128 . S
C251 C108 2.104 . S
C126 C215 0.825 . S
C148 C246 2.260 . S
C19 C254 2.257 . S
C96 C241 0.769 . S
C219 C106 0.990 . S
C247 C121 1.152 . S
C146 C214 1.297 . S
C59 C232 2.103 . S
C223 C76 0.826 . S
C21 C216 1.125 . S
C149 C278 2.166 . S
C88 C273 2.120 . S
C287 C109 1.159 . S
C264 C139 2.126 . S
C39 C280 2.118 . S
C279 C41 1.157 . S
C68 C283 2.125 . S
C1 C286 2.163 . S
C156 C312 1.489 . S
C328 C86 1.233 . S
C116 C310 0.928 . S
C129 C343 1.238 . S
C319 C29 1.347 . S
C48 C337 2.091 . S
C315 C66 1.278 . S
C350 C8 2.170 . S
C342 C159 2.172 . S
C36 C347 1.232 . S
C46 C318 0.931 . S
C351 C61 1.240 . S
C6 C305 1.486 . S
C119 C344 2.089 . S
C296 C136 1.280 . S
C311 C81 1.344 . S
