# Generated by pormake.
# Topology pth, (4,4)-cn, num edge types: 1
# Building blocks:
#     Node 0, Type 0, BuildingBlock: TATPOV_clean_sbu_0, # of connection points: 4
#     Node 1, Type 0, BuildingBlock: TATPOV_clean_sbu_0, # of connection points: 4
#     Node 2, Type 0, BuildingBlock: TATPOV_clean_sbu_0, # of connection points: 4
#     Node 3, Type 1, BuildingBlock: KOZSID_clean_sbu_0, # of connection points: 4
#     Node 4, Type 1, BuildingBlock: KOZSID_clean_sbu_0, # of connection points: 4
#     Node 5, Type 1, BuildingBlock: KOZSID_clean_sbu_0, # of connection points: 4
#     Edge 6, Type (0, 1), BuildingBlock: EZIPEK_clean_linker_0, # of connection points: 2
#     Edge 7, Type (0, 1), BuildingBlock: EZIPEK_clean_linker_0, # of connection points: 2
#     Edge 8, Type (0, 1), BuildingBlock: EZIPEK_clean_linker_0, # of connection points: 2
#     Edge 9, Type (0, 1), BuildingBlock: EZIPEK_clean_linker_0, # of connection points: 2
#     Edge 10, Type (0, 1), BuildingBlock: EZIPEK_clean_linker_0, # of connection points: 2
#     Edge 11, Type (0, 1), BuildingBlock: EZIPEK_clean_linker_0, # of connection points: 2
#     Edge 12, Type (0, 1), BuildingBlock: EZIPEK_clean_linker_0, # of connection points: 2
#     Edge 13, Type (0, 1), BuildingBlock: EZIPEK_clean_linker_0, # of connection points: 2
#     Edge 14, Type (0, 1), BuildingBlock: EZIPEK_clean_linker_0, # of connection points: 2
#     Edge 15, Type (0, 1), BuildingBlock: EZIPEK_clean_linker_0, # of connection points: 2
#     Edge 16, Type (0, 1), BuildingBlock: EZIPEK_clean_linker_0, # of connection points: 2
#     Edge 17, Type (0, 1), BuildingBlock: EZIPEK_clean_linker_0, # of connection points: 2
# Relax obj value: 0.036
# Max RMSD: 0.169
# Mean RMSD: 0.081
data_MOF--net-pth--node1-TATPOV_clean_sbu_0--node2-KOZSID_clean_sbu_0--edge1-EZIPEK_clean_linker_0
_symmetry_space_group_name_H-M    P1
_symmetry_Int_Tables_number       1
_symmetry_cell_setting            triclinic
loop_
_symmetry_equiv_pos_as_xyz
'x, y, z'
_cell_length_a     20.431078
_cell_length_b     20.181526
_cell_length_c     44.832726
_cell_angle_alpha  89.162224
_cell_angle_beta   88.90021
_cell_angle_gamma 121.42256
loop_
_atom_site_label
_atom_site_type_symbol
_atom_site_fract_x
_atom_site_fract_y
_atom_site_fract_z
_atom_type_partial_charge
Zn0 Zn 0.18861 0.05855 0.00834 0.0
Zn1 Zn 0.10751 0.09328 0.04295 0.0
O2 O 0.13308 0.03081 0.07144 0.0
O3 O 0.19773 0.99646 0.04228 0.0
O4 O 0.06979 0.14574 0.07001 0.0
O5 O 0.27123 0.16812 0.99668 0.0
O6 O 0.18894 0.19125 0.01899 0.0
C7 C 0.16564 0.99235 0.06729 0.0
C8 C 0.02654 0.98389 0.99388 0.0
O9 O 0.02055 0.01308 0.01806 0.0
O10 O 0.09248 0.00287 0.98351 0.0
C11 C 0.12321 0.19522 0.08605 0.0
O12 O 0.19008 0.20049 0.08523 0.0
C13 C 0.25023 0.21495 0.00344 0.0
Zn14 Zn 0.23109 0.21483 0.34359 0.0
Zn15 Zn 0.10746 0.16558 0.37967 0.0
O16 O 0.19118 0.18268 0.4088 0.0
O17 O 0.29176 0.21785 0.37901 0.0
O18 O 0.02 0.15203 0.40555 0.0
O19 O 0.22669 0.30567 0.32653 0.0
O20 O 0.11835 0.25302 0.35283 0.0
C21 C 0.25992 0.19868 0.40478 0.0
C22 C 0.1054 0.05583 0.33489 0.0
O23 O 0.07129 0.06572 0.35693 0.0
O24 O 0.16978 0.11057 0.32475 0.0
C25 C 0.98504 0.10511 0.42738 0.0
O26 O 0.00448 0.05502 0.43551 0.0
C27 C 0.16543 0.30342 0.33382 0.0
Zn28 Zn 0.16726 0.97091 0.74482 0.0
Zn29 Zn 0.08636 0.993 0.70375 0.0
O30 O 0.15294 0.96595 0.67803 0.0
O31 O 0.22563 0.9561 0.71135 0.0
O32 O 0.00733 0.98897 0.67683 0.0
O33 O 0.0738 0.88563 0.76762 0.0
O34 O 0.01303 0.91729 0.73596 0.0
C35 C 0.2094 0.95852 0.68437 0.0
C36 C 0.19606 0.12838 0.73958 0.0
O37 O 0.15095 0.10457 0.71779 0.0
O38 O 0.20788 0.08225 0.75468 0.0
C39 C 0.01483 0.01933 0.65107 0.0
O40 O 0.08322 0.0611 0.63814 0.0
C41 C 0.01232 0.87919 0.75887 0.0
C42 C 0.1856 0.75753 0.16316 0.0
C43 C 0.25823 0.81276 0.1519 0.0
C44 C 0.30943 0.80674 0.16898 0.0
C45 C 0.2653 0.74809 0.1894 0.0
N46 N 0.18895 0.71566 0.18624 0.0
Co47 Co 0.10436 0.62609 0.21007 0.0
N48 N 0.17979 0.62521 0.23772 0.0
C49 C 0.25651 0.67565 0.2375 0.0
C50 C 0.29281 0.66236 0.26008 0.0
C51 C 0.23596 0.59916 0.27554 0.0
C52 C 0.16813 0.57738 0.26127 0.0
N53 N 0.02049 0.53356 0.23301 0.0
C54 C 0.02524 0.49007 0.25523 0.0
C55 C 0.95394 0.42628 0.2633 0.0
C56 C 0.90215 0.42914 0.24532 0.0
C57 C 0.94479 0.49407 0.22727 0.0
N58 N 0.02899 0.63106 0.18353 0.0
C59 C 0.9516 0.58488 0.18535 0.0
C60 C 0.91481 0.60703 0.16602 0.0
C61 C 0.97204 0.67211 0.15138 0.0
C62 C 0.0407 0.68552 0.16251 0.0
N63 N 0.11248 0.55316 0.18316 0.0
C64 C 0.11621 0.43776 0.1502 0.0
C65 C 0.05043 0.44184 0.15158 0.0
C66 C 0.04981 0.49952 0.168 0.0
C67 C 0.18146 0.49397 0.16443 0.0
C68 C 0.17857 0.55136 0.18054 0.0
N69 N 0.0947 0.69763 0.23694 0.0
C70 C 0.01423 0.73034 0.26537 0.0
C71 C 0.07779 0.80164 0.27208 0.0
C72 C 0.15027 0.82016 0.26158 0.0
C73 C 0.15748 0.76743 0.24411 0.0
C74 C 0.02396 0.67933 0.24802 0.0
H75 H 0.21404 0.78449 0.23634 0.0
H76 H 0.97309 0.62587 0.24361 0.0
H77 H 0.99725 0.49832 0.16837 0.0
H78 H 0.22989 0.59262 0.19116 0.0
C79 C 0.29363 0.72939 0.21403 0.0
C80 C 0.11566 0.751 0.15264 0.0
C81 C 0.09617 0.50588 0.2687 0.0
C82 C 0.91554 0.52099 0.20538 0.0
H83 H 0.27277 0.85485 0.13386 0.0
H84 H 0.37138 0.84306 0.16753 0.0
H85 H 0.3537 0.693 0.26408 0.0
H86 H 0.24403 0.57039 0.29442 0.0
H87 H 0.94106 0.38214 0.2803 0.0
H88 H 0.8408 0.38853 0.2453 0.0
H89 H 0.85365 0.57973 0.16318 0.0
H90 H 0.96417 0.70617 0.13457 0.0
H91 H 0.99925 0.39986 0.14033 0.0
H92 H 0.234 0.49306 0.16333 0.0
H93 H 0.95729 0.7144 0.27332 0.0
H94 H 0.20079 0.87539 0.26655 0.0
C95 C 0.44056 0.9471 0.57898 0.0
C96 C 0.3766 0.87227 0.5791 0.0
C97 C 0.38677 0.83594 0.55571 0.0
C98 C 0.45563 0.89054 0.54255 0.0
N99 N 0.49086 0.95935 0.55633 0.0
Co100 Co 0.58705 0.05703 0.54236 0.0
N101 N 0.60196 0.00285 0.50808 0.0
C102 C 0.55604 0.92758 0.50098 0.0
C103 C 0.58515 0.90451 0.47842 0.0
C104 C 0.65502 0.96827 0.47116 0.0
C105 C 0.66406 0.02701 0.48963 0.0
N106 N 0.68139 0.15511 0.52752 0.0
C107 C 0.734 0.16574 0.5061 0.0
C108 C 0.79217 0.24303 0.50296 0.0
C109 C 0.77651 0.28241 0.52366 0.0
C110 C 0.70976 0.2271 0.53816 0.0
N111 N 0.57484 0.11009 0.57762 0.0
C112 C 0.62188 0.18515 0.58491 0.0
C113 C 0.59946 0.20443 0.61073 0.0
C114 C 0.53392 0.13793 0.62034 0.0
C115 C 0.51969 0.08189 0.59959 0.0
N116 N 0.65082 0.0308 0.56658 0.0
C117 C 0.75438 0.00181 0.59551 0.0
C118 C 0.76519 0.07579 0.5947 0.0
C119 C 0.71293 0.08873 0.58053 0.0
C120 C 0.6886 0.94105 0.58295 0.0
C121 C 0.63772 0.9569 0.56846 0.0
N122 N 0.5237 0.08495 0.51799 0.0
C123 C 0.47799 0.17184 0.50736 0.0
C124 C 0.43522 0.12648 0.48399 0.0
C125 C 0.43627 0.05936 0.47795 0.0
C126 C 0.4801 0.03942 0.49527 0.0
C127 C 0.52211 0.15084 0.52363 0.0
H128 H 0.47753 0.98694 0.48983 0.0
H129 H 0.55412 0.18946 0.54064 0.0
H130 H 0.72562 0.14691 0.58032 0.0
H131 H 0.58896 0.90929 0.55851 0.0
C132 C 0.48846 0.87877 0.5173 0.0
C133 C 0.4497 0.00501 0.60028 0.0
C134 C 0.73416 0.10333 0.49013 0.0
C135 C 0.68145 0.23768 0.56524 0.0
H136 H 0.32706 0.84672 0.59424 0.0
H137 H 0.34804 0.7771 0.54883 0.0
H138 H 0.56008 0.84722 0.46927 0.0
H139 H 0.6955 0.97006 0.45479 0.0
H140 H 0.84241 0.26753 0.48818 0.0
H141 H 0.81238 0.3431 0.52891 0.0
H142 H 0.6259 0.26081 0.62074 0.0
H143 H 0.49892 0.13205 0.63981 0.0
H144 H 0.81484 0.12406 0.60462 0.0
H145 H 0.67758 0.88242 0.58381 0.0
H146 H 0.47808 0.22403 0.51282 0.0
H147 H 0.40307 0.02231 0.46004 0.0
C148 C 0.70883 0.61496 0.83259 0.0
C149 C 0.7526 0.58477 0.82263 0.0
C150 C 0.71617 0.50946 0.8331 0.0
C151 C 0.65287 0.49821 0.84892 0.0
N152 N 0.6472 0.5617 0.84916 0.0
Co153 Co 0.56562 0.57136 0.86955 0.0
N154 N 0.53439 0.47765 0.89526 0.0
C155 C 0.5527 0.4234 0.89023 0.0
C156 C 0.52123 0.36364 0.91104 0.0
C157 C 0.47925 0.38026 0.93015 0.0
C158 C 0.48728 0.44961 0.91981 0.0
N159 N 0.48398 0.58092 0.89012 0.0
C160 C 0.44302 0.54599 0.91575 0.0
C161 C 0.39366 0.57174 0.92279 0.0
C162 C 0.40226 0.62254 0.90023 0.0
C163 C 0.4568 0.62566 0.88088 0.0
N164 N 0.59689 0.66419 0.84339 0.0
C165 C 0.55526 0.69703 0.83809 0.0
C166 C 0.59285 0.7612 0.81921 0.0
C167 C 0.66223 0.76885 0.81217 0.0
C168 C 0.66299 0.70883 0.82728 0.0
N169 N 0.49311 0.50586 0.83972 0.0
C170 C 0.39385 0.4065 0.79731 0.0
C171 C 0.4632 0.47315 0.78836 0.0
C172 C 0.51288 0.52096 0.80997 0.0
C173 C 0.37297 0.39299 0.82764 0.0
C174 C 0.42294 0.44396 0.84841 0.0
N175 N 0.63859 0.6381 0.89904 0.0
C176 C 0.71096 0.76496 0.91971 0.0
C177 C 0.75683 0.74369 0.93477 0.0
C178 C 0.73896 0.66662 0.9331 0.0
C179 C 0.68141 0.61556 0.91429 0.0
C180 C 0.65048 0.71058 0.90306 0.0
H181 H 0.67317 0.55879 0.91147 0.0
H182 H 0.61537 0.72869 0.89248 0.0
H183 H 0.5681 0.56887 0.80256 0.0
H184 H 0.40572 0.43168 0.87154 0.0
C185 C 0.60608 0.43464 0.86784 0.0
C186 C 0.72471 0.69244 0.82441 0.0
C187 C 0.44062 0.48009 0.9313 0.0
C188 C 0.48984 0.67602 0.85589 0.0
H189 H 0.80524 0.6139 0.8092 0.0
H190 H 0.73541 0.46895 0.83058 0.0
H191 H 0.52852 0.31427 0.91235 0.0
H192 H 0.44455 0.34373 0.94894 0.0
H193 H 0.35326 0.55296 0.94158 0.0
H194 H 0.37287 0.65408 0.89836 0.0
H195 H 0.57382 0.80006 0.81252 0.0
H196 H 0.70709 0.81334 0.79767 0.0
H197 H 0.48083 0.48528 0.76498 0.0
H198 H 0.31937 0.34211 0.8353 0.0
H199 H 0.72223 0.82363 0.92053 0.0
H200 H 0.77228 0.64744 0.94486 0.0
C201 C 0.07362 0.23705 0.1288 0.0
C202 C 0.11589 0.25551 0.10138 0.0
C203 C 0.15239 0.39188 0.10469 0.0
C204 C 0.11626 0.37493 0.13343 0.0
N205 N 0.04716 0.28393 0.17428 0.0
N206 N 0.199 0.34991 0.06341 0.0
C207 C 0.0777 0.29802 0.14583 0.0
C208 C 0.15631 0.33284 0.08939 0.0
N209 N 0.02927 0.16116 0.1384 0.0
N210 N 0.18013 0.46366 0.09153 0.0
H211 H 0.1981 0.30752 0.05013 0.0
H212 H 0.23817 0.40622 0.05561 0.0
H213 H 0.1786 0.50856 0.10209 0.0
H214 H 0.19934 0.47734 0.06936 0.0
H215 H 0.99066 0.14253 0.15655 0.0
H216 H 0.02696 0.11546 0.1269 0.0
H217 H 0.02629 0.23156 0.18605 0.0
H218 H 0.04698 0.32653 0.18707 0.0
C219 C 0.92724 0.12023 0.47497 0.0
C220 C 0.92326 0.10891 0.4437 0.0
C221 C 0.80863 0.11866 0.44272 0.0
C222 C 0.80509 0.11608 0.47429 0.0
N223 N 0.85914 0.11195 0.52109 0.0
N224 N 0.85352 0.08618 0.39826 0.0
C225 C 0.86418 0.11665 0.49063 0.0
C226 C 0.86256 0.1059 0.42759 0.0
N227 N 0.99233 0.13743 0.48947 0.0
N228 N 0.75982 0.13261 0.42727 0.0
H229 H 0.88946 0.07262 0.38658 0.0
H230 H 0.80584 0.07547 0.38634 0.0
H231 H 0.71947 0.14189 0.43789 0.0
H232 H 0.76439 0.14238 0.40424 0.0
H233 H 0.00174 0.15399 0.5116 0.0
H234 H 0.04047 0.14258 0.47865 0.0
H235 H 0.89669 0.10519 0.53429 0.0
H236 H 0.81458 0.11066 0.53324 0.0
C237 C 0.93151 0.85131 0.80559 0.0
C238 C 0.93931 0.8313 0.77602 0.0
C239 C 0.80221 0.73286 0.77635 0.0
C240 C 0.79665 0.74616 0.807 0.0
N241 N 0.85557 0.8132 0.85185 0.0
N242 N 0.88543 0.74646 0.73449 0.0
C243 C 0.8612 0.80418 0.82193 0.0
C244 C 0.87541 0.7705 0.76164 0.0
N245 N 0.98988 0.91728 0.81752 0.0
N246 N 0.73734 0.68438 0.76133 0.0
H247 H 0.93866 0.77162 0.72329 0.0
H248 H 0.84272 0.69714 0.72429 0.0
H249 H 0.6828 0.65509 0.77154 0.0
H250 H 0.73663 0.67845 0.73828 0.0
H251 H 0.98452 0.93944 0.83763 0.0
H252 H 0.04203 0.954 0.8062 0.0
H253 H 0.90257 0.8484 0.86476 0.0
H254 H 0.8041 0.78177 0.86423 0.0
C255 C 0.11667 0.85266 0.08032 0.0
C256 C 0.15207 0.93092 0.08949 0.0
C257 C 0.14707 0.88707 0.14122 0.0
C258 C 0.12242 0.81145 0.13113 0.0
N259 N 0.09669 0.7253 0.09034 0.0
N260 N 0.20933 0.02438 0.12825 0.0
C261 C 0.11109 0.79511 0.10044 0.0
C262 C 0.16925 0.94869 0.11992 0.0
N263 N 0.08395 0.83205 0.05305 0.0
N264 N 0.14854 0.89958 0.17115 0.0
H265 H 0.22784 0.07097 0.11311 0.0
H266 H 0.23011 0.04123 0.14957 0.0
H267 H 0.13278 0.85556 0.18727 0.0
H268 H 0.15879 0.95153 0.17993 0.0
H269 H 0.05111 0.77454 0.04661 0.0
H270 H 0.08153 0.87094 0.03824 0.0
H271 H 0.09655 0.71399 0.06772 0.0
H272 H 0.09127 0.68099 0.10442 0.0
C273 C 0.37954 0.24088 0.43284 0.0
C274 C 0.30065 0.18551 0.42912 0.0
C275 C 0.30785 0.10028 0.46681 0.0
C276 C 0.38882 0.14896 0.46614 0.0
N277 N 0.50348 0.26144 0.44506 0.0
N278 N 0.19282 0.05423 0.43911 0.0
C279 C 0.4253 0.21855 0.44836 0.0
C280 C 0.26509 0.11318 0.4454 0.0
N281 N 0.41046 0.31516 0.4219 0.0
N282 N 0.27151 0.04221 0.48809 0.0
H283 H 0.1595 0.05802 0.42273 0.0
H284 H 0.16869 0.99814 0.44816 0.0
H285 H 0.3009 0.0317 0.50445 0.0
H286 H 0.21206 0.01005 0.49135 0.0
H287 H 0.46604 0.35977 0.42625 0.0
H288 H 0.37774 0.33396 0.41126 0.0
H289 H 0.53239 0.30821 0.42991 0.0
H290 H 0.53924 0.24601 0.45529 0.0
C291 C 0.21609 0.25323 0.75943 0.0
C292 C 0.24561 0.21176 0.74519 0.0
C293 C 0.37478 0.30515 0.76073 0.0
C294 C 0.34579 0.34671 0.77564 0.0
N295 N 0.24464 0.37388 0.78189 0.0
N296 N 0.35388 0.21294 0.72262 0.0
C297 C 0.26814 0.32533 0.77243 0.0
C298 C 0.32557 0.24353 0.74235 0.0
N299 N 0.13863 0.22183 0.76192 0.0
N300 N 0.44662 0.31933 0.76608 0.0
H301 H 0.31829 0.16748 0.70882 0.0
H302 H 0.41232 0.23796 0.71775 0.0
H303 H 0.48387 0.3606 0.78081 0.0
H304 H 0.46658 0.28459 0.7581 0.0
H305 H 0.11318 0.24491 0.77509 0.0
H306 H 0.0996 0.17023 0.75179 0.0
H307 H 0.19033 0.36444 0.77806 0.0
H308 H 0.28215 0.4275 0.79111 0.0
C309 C 0.92695 0.98021 0.60751 0.0
C310 C 0.94578 0.00988 0.63668 0.0
C311 C 0.82497 0.00756 0.64096 0.0
C312 C 0.81261 0.99072 0.61032 0.0
N313 N 0.85523 0.96688 0.56327 0.0
N314 N 0.9188 0.06541 0.67917 0.0
C315 C 0.86418 0.978 0.59325 0.0
C316 C 0.89614 0.02672 0.65301 0.0
N317 N 0.96709 0.95157 0.59383 0.0
N318 N 0.76834 0.00518 0.65854 0.0
H319 H 0.97247 0.08493 0.68805 0.0
H320 H 0.88782 0.08574 0.69036 0.0
H321 H 0.71496 0.99012 0.65034 0.0
H322 H 0.77141 0.00997 0.68165 0.0
H323 H 0.9509 0.92203 0.57389 0.0
H324 H 0.01234 0.95064 0.60376 0.0
H325 H 0.89643 0.96715 0.54912 0.0
H326 H 0.80918 0.96292 0.55205 0.0
C327 C 0.95913 0.86155 0.96408 0.0
C328 C 0.95677 0.92204 0.97912 0.0
C329 C 0.81872 0.85374 0.97091 0.0
C330 C 0.82517 0.80326 0.95092 0.0
N331 N 0.91124 0.77774 0.92221 0.0
N332 N 0.88412 0.98378 0.98942 0.0
C333 C 0.89825 0.81267 0.94552 0.0
C334 C 0.88648 0.92066 0.98049 0.0
N335 N 0.0163 0.84676 0.96865 0.0
N336 N 0.74852 0.83701 0.98156 0.0
H337 H 0.93314 0.03686 0.99386 0.0
H338 H 0.83443 0.98621 0.98856 0.0
H339 H 0.69777 0.78584 0.97669 0.0
H340 H 0.7421 0.86955 0.99794 0.0
H341 H 0.01594 0.79948 0.95935 0.0
H342 H 0.05728 0.87369 0.98483 0.0
H343 H 0.9659 0.78891 0.9165 0.0
H344 H 0.87016 0.74556 0.90658 0.0
C345 C 0.05598 0.97197 0.29113 0.0
C346 C 0.07444 0.97914 0.32163 0.0
C347 C 0.07307 0.85713 0.321 0.0
C348 C 0.06834 0.85784 0.28951 0.0
N349 N 0.05301 0.91293 0.24402 0.0
N350 N 0.10044 0.9299 0.36633 0.0
C351 C 0.05794 0.91379 0.27441 0.0
C352 C 0.08118 0.9211 0.337 0.0
N353 N 0.03666 0.02119 0.2784 0.0
N354 N 0.07017 0.79549 0.33547 0.0
H355 H 0.10416 0.97445 0.37905 0.0
H356 H 0.11628 0.8954 0.37777 0.0
H357 H 0.06626 0.74866 0.32427 0.0
H358 H 0.06549 0.78755 0.35858 0.0
H359 H 0.01658 0.0158 0.25688 0.0
H360 H 0.03428 0.06369 0.29054 0.0
H361 H 0.05429 0.95709 0.23125 0.0
H362 H 0.0514 0.8694 0.2312 0.0
C363 C 0.29537 0.91589 0.66263 0.0
C364 C 0.2636 0.96376 0.66048 0.0
C365 C 0.34339 0.02682 0.61532 0.0
C366 C 0.38378 0.9885 0.62062 0.0
N367 N 0.40591 0.90472 0.65217 0.0
N368 N 0.27395 0.07984 0.6384 0.0
C369 C 0.36206 0.93533 0.64515 0.0
C370 C 0.29139 0.02301 0.63765 0.0
N371 N 0.26063 0.85064 0.6807 0.0
N372 N 0.35468 0.06703 0.58903 0.0
H373 H 0.24219 0.08504 0.65563 0.0
H374 H 0.29922 0.12783 0.62369 0.0
H375 H 0.3922 0.07085 0.57203 0.0
H376 H 0.32108 0.0898 0.58303 0.0
H377 H 0.27773 0.81019 0.68112 0.0
H378 H 0.20954 0.83257 0.69271 0.0
H379 H 0.39684 0.87171 0.67161 0.0
H380 H 0.45527 0.91778 0.63985 0.0
C381 C 0.26504 0.29637 0.95859 0.0
C382 C 0.28735 0.29176 0.98793 0.0
C383 C 0.39459 0.42668 0.98335 0.0
C384 C 0.37675 0.42848 0.95305 0.0
N385 N 0.28247 0.37651 0.91485 0.0
N386 N 0.35944 0.35557 0.03111 0.0
C387 C 0.30732 0.3672 0.94177 0.0
C388 C 0.34734 0.35841 0.00138 0.0
N389 N 0.20562 0.2317 0.94632 0.0
N390 N 0.45946 0.48873 0.99405 0.0
H391 H 0.3262 0.30561 0.04447 0.0
H392 H 0.39841 0.40348 0.04301 0.0
H393 H 0.49247 0.5402 0.98144 0.0
H394 H 0.4815 0.48907 0.01481 0.0
H395 H 0.19289 0.22768 0.92382 0.0
H396 H 0.17068 0.17983 0.95841 0.0
H397 H 0.22917 0.33692 0.90648 0.0
H398 H 0.31174 0.42761 0.90201 0.0
C399 C 0.13205 0.34305 0.28622 0.0
C400 C 0.14271 0.35193 0.31743 0.0
C401 C 0.09897 0.44429 0.31719 0.0
C402 C 0.09987 0.44399 0.28561 0.0
N403 N 0.12276 0.39836 0.23949 0.0
N404 N 0.14183 0.41447 0.36276 0.0
C405 C 0.11744 0.39444 0.26996 0.0
C406 C 0.12679 0.40288 0.33308 0.0
N407 N 0.13229 0.28328 0.27231 0.0
N408 N 0.07203 0.48471 0.3318 0.0
H409 H 0.16342 0.38606 0.37499 0.0
H410 H 0.13884 0.45662 0.37476 0.0
H411 H 0.05212 0.51609 0.32052 0.0
H412 H 0.06317 0.48178 0.35484 0.0
H413 H 0.11665 0.26922 0.25026 0.0
H414 H 0.14071 0.24275 0.28349 0.0
H415 H 0.14644 0.37228 0.22705 0.0
H416 H 0.10763 0.43153 0.22666 0.0
loop_
_geom_bond_atom_site_label_1
_geom_bond_atom_site_label_2
_geom_bond_distance
_geom_bond_site_symmetry_2
_ccdc_geom_bond_type
Zn0 O3 2.031 1_545 S
Zn0 O5 2.049 1_554 S
Zn0 O10 2.069 1_544 S
Zn1 O2 1.962 . S
Zn1 O4 1.986 . S
Zn1 O6 1.996 . S
Zn1 O9 1.943 . S
O2 Zn1 1.962 . S
O2 C7 1.254 1_545 S
O3 Zn0 2.031 1_565 S
O3 C7 1.269 . S
O4 Zn1 1.986 . S
O4 C11 1.262 . S
O5 Zn0 2.049 1_556 S
O5 C13 1.260 1_556 S
O6 Zn1 1.996 . S
O6 C13 1.257 . S
C7 O2 1.254 1_565 S
C7 O3 1.269 . S
C8 O9 1.249 . S
C8 O10 1.268 1_544 S
O9 Zn1 1.943 . S
O9 C8 1.249 . S
O10 Zn0 2.069 1_566 S
O10 C8 1.268 1_566 S
C11 O4 1.262 . S
C11 O12 1.232 . S
O12 C11 1.232 . S
C13 O5 1.260 1_554 S
C13 O6 1.257 . S
Zn14 O17 2.031 . S
Zn14 O19 2.049 . S
Zn14 O24 2.067 . S
Zn15 O16 1.962 . S
Zn15 O18 1.986 1_455 S
Zn15 O20 1.996 . S
Zn15 O23 1.943 . S
O16 Zn15 1.962 . S
O16 C21 1.254 . S
O17 Zn14 2.031 . S
O17 C21 1.269 . S
O18 Zn15 1.986 1_655 S
O18 C25 1.262 . S
O19 Zn14 2.049 . S
O19 C27 1.260 . S
O20 Zn15 1.996 . S
O20 C27 1.257 . S
C21 O16 1.254 . S
C21 O17 1.269 . S
C22 O23 1.249 . S
C22 O24 1.270 . S
O23 Zn15 1.943 . S
O23 C22 1.249 . S
O24 Zn14 2.067 . S
O24 C22 1.270 . S
C25 O18 1.262 . S
C25 O26 1.232 . S
O26 C25 1.232 . S
C27 O19 1.260 . S
C27 O20 1.257 . S
Zn28 O31 2.031 1_565 S
Zn28 O33 2.049 . S
Zn28 O38 2.067 1_565 S
Zn29 O30 1.962 . S
Zn29 O32 1.986 1_455 S
Zn29 O34 1.996 1_545 S
Zn29 O37 1.943 . S
O30 Zn29 1.962 . S
O30 C35 1.254 . S
O31 Zn28 2.031 1_545 S
O31 C35 1.269 . S
O32 Zn29 1.986 1_655 S
O32 C39 1.262 . S
O33 Zn28 2.049 . S
O33 C41 1.260 . S
O34 Zn29 1.996 1_565 S
O34 C41 1.257 . S
C35 O30 1.254 . S
C35 O31 1.269 . S
C36 O37 1.249 . S
C36 O38 1.270 . S
O37 Zn29 1.943 . S
O37 C36 1.249 . S
O38 Zn28 2.067 1_545 S
O38 C36 1.270 . S
C39 O32 1.262 . S
C39 O40 1.232 1_655 S
O40 C39 1.232 1_455 S
C41 O33 1.260 . S
C41 O34 1.257 . S
C42 C43 1.443 . S
C42 N46 1.376 . S
C42 C80 1.389 . S
C43 C42 1.443 . S
C43 C44 1.340 . S
C43 H83 0.951 . S
C44 C43 1.340 . S
C44 C45 1.439 . S
C44 H84 0.950 . S
C45 C44 1.439 . S
C45 N46 1.374 . S
C45 C79 1.395 . S
N46 C42 1.376 . S
N46 C45 1.374 . S
N46 Co47 2.008 . S
Co47 N46 2.008 . S
Co47 N48 1.995 . S
Co47 N53 2.008 1_455 S
Co47 N58 1.995 1_455 S
Co47 N63 2.282 . S
Co47 N69 2.282 . S
N48 Co47 1.995 . S
N48 C49 1.376 . S
N48 C52 1.383 . S
C49 N48 1.376 . S
C49 C50 1.446 . S
C49 C79 1.391 . S
C50 C49 1.446 . S
C50 C51 1.339 . S
C50 H85 0.949 . S
C51 C50 1.339 . S
C51 C52 1.439 . S
C51 H86 0.950 . S
C52 N48 1.383 . S
C52 C51 1.439 . S
C52 C81 1.392 . S
N53 Co47 2.008 1_655 S
N53 C54 1.376 . S
N53 C57 1.374 . S
C54 N53 1.376 . S
C54 C55 1.443 . S
C54 C81 1.389 1_655 S
C55 C54 1.443 . S
C55 C56 1.340 . S
C55 H87 0.951 . S
C56 C55 1.340 . S
C56 C57 1.439 . S
C56 H88 0.950 . S
C57 N53 1.374 . S
C57 C56 1.439 . S
C57 C82 1.395 . S
N58 Co47 1.995 1_655 S
N58 C59 1.376 . S
N58 C62 1.383 1_655 S
C59 N58 1.376 . S
C59 C60 1.446 . S
C59 C82 1.391 . S
C60 C59 1.446 . S
C60 C61 1.339 . S
C60 H89 0.949 . S
C61 C60 1.339 . S
C61 C62 1.439 1_655 S
C61 H90 0.950 . S
C62 N58 1.383 1_455 S
C62 C61 1.439 1_455 S
C62 C80 1.392 . S
N63 Co47 2.282 . S
N63 C66 1.332 . S
N63 C68 1.332 . S
C64 C65 1.386 . S
C64 C67 1.388 . S
C65 C64 1.386 . S
C65 C66 1.382 . S
C65 H91 0.950 1_455 S
C66 N63 1.332 . S
C66 C65 1.382 . S
C66 H77 0.952 1_455 S
C67 C64 1.388 . S
C67 C68 1.382 . S
C67 H92 0.950 . S
C68 N63 1.332 . S
C68 C67 1.382 . S
C68 H78 0.948 . S
N69 Co47 2.282 . S
N69 C73 1.332 . S
N69 C74 1.332 1_455 S
C70 C71 1.388 1_655 S
C70 C74 1.382 . S
C70 H93 0.950 . S
C71 C70 1.388 1_455 S
C71 C72 1.386 . S
C72 C71 1.386 . S
C72 C73 1.382 . S
C72 H94 0.950 . S
C73 N69 1.332 . S
C73 C72 1.382 . S
C73 H75 0.952 . S
C74 N69 1.332 1_655 S
C74 C70 1.382 . S
C74 H76 0.948 . S
H75 C73 0.952 . S
H76 C74 0.948 . S
H77 C66 0.952 1_655 S
H78 C68 0.948 . S
C79 C45 1.395 . S
C79 C49 1.391 . S
C80 C42 1.389 . S
C80 C62 1.392 . S
C81 C52 1.392 . S
C81 C54 1.389 1_455 S
C82 C57 1.395 . S
C82 C59 1.391 . S
H83 C43 0.951 . S
H84 C44 0.950 . S
H85 C50 0.949 . S
H86 C51 0.950 . S
H87 C55 0.951 . S
H88 C56 0.950 . S
H89 C60 0.949 . S
H90 C61 0.950 . S
H91 C65 0.950 1_655 S
H92 C67 0.950 . S
H93 C70 0.950 . S
H94 C72 0.950 . S
C95 C96 1.443 1_545 S
C95 N99 1.376 . S
C95 C133 1.389 . S
C96 C95 1.443 1_565 S
C96 C97 1.340 . S
C96 H136 0.951 . S
C97 C96 1.340 . S
C97 C98 1.439 . S
C97 H137 0.950 . S
C98 C97 1.439 . S
C98 N99 1.374 1_565 S
C98 C132 1.395 . S
N99 C95 1.376 . S
N99 C98 1.374 1_545 S
N99 Co100 2.008 . S
Co100 N99 2.008 . S
Co100 N101 1.995 . S
Co100 N106 2.008 . S
Co100 N111 1.995 . S
Co100 N116 2.282 . S
Co100 N122 2.282 . S
N101 Co100 1.995 . S
N101 C102 1.376 1_545 S
N101 C105 1.383 . S
C102 N101 1.376 1_565 S
C102 C103 1.446 . S
C102 C132 1.391 . S
C103 C102 1.446 . S
C103 C104 1.339 . S
C103 H138 0.949 . S
C104 C103 1.339 . S
C104 C105 1.439 1_565 S
C104 H139 0.950 . S
C105 N101 1.383 . S
C105 C104 1.439 1_545 S
C105 C134 1.392 . S
N106 Co100 2.008 . S
N106 C107 1.376 . S
N106 C110 1.374 . S
C107 N106 1.376 . S
C107 C108 1.443 . S
C107 C134 1.389 . S
C108 C107 1.443 . S
C108 C109 1.340 . S
C108 H140 0.951 . S
C109 C108 1.340 . S
C109 C110 1.439 . S
C109 H141 0.950 . S
C110 N106 1.374 . S
C110 C109 1.439 . S
C110 C135 1.395 . S
N111 Co100 1.995 . S
N111 C112 1.376 . S
N111 C115 1.383 . S
C112 N111 1.376 . S
C112 C113 1.446 . S
C112 C135 1.391 . S
C113 C112 1.446 . S
C113 C114 1.339 . S
C113 H142 0.949 . S
C114 C113 1.339 . S
C114 C115 1.439 . S
C114 H143 0.950 . S
C115 N111 1.383 . S
C115 C114 1.439 . S
C115 C133 1.392 . S
N116 Co100 2.282 . S
N116 C119 1.332 . S
N116 C121 1.332 . S
C117 C118 1.386 . S
C117 C120 1.388 . S
C118 C117 1.386 . S
C118 C119 1.382 . S
C118 H144 0.950 . S
C119 N116 1.332 . S
C119 C118 1.382 . S
C119 H130 0.952 . S
C120 C117 1.388 . S
C120 C121 1.382 . S
C120 H145 0.950 1_545 S
C121 N116 1.332 . S
C121 C120 1.382 . S
C121 H131 0.948 1_545 S
N122 Co100 2.282 . S
N122 C126 1.332 . S
N122 C127 1.332 . S
C123 C124 1.388 . S
C123 C127 1.382 . S
C123 H146 0.950 . S
C124 C123 1.388 . S
C124 C125 1.386 . S
C125 C124 1.386 . S
C125 C126 1.382 . S
C125 H147 0.950 . S
C126 N122 1.332 . S
C126 C125 1.382 . S
C126 H128 0.952 . S
C127 N122 1.332 . S
C127 C123 1.382 . S
C127 H129 0.948 . S
H128 C126 0.952 . S
H129 C127 0.948 . S
H130 C119 0.952 . S
H131 C121 0.948 1_565 S
C132 C98 1.395 . S
C132 C102 1.391 . S
C133 C95 1.389 . S
C133 C115 1.392 . S
C134 C105 1.392 . S
C134 C107 1.389 . S
C135 C110 1.395 . S
C135 C112 1.391 . S
H136 C96 0.951 . S
H137 C97 0.950 . S
H138 C103 0.949 . S
H139 C104 0.950 . S
H140 C108 0.951 . S
H141 C109 0.950 . S
H142 C113 0.949 . S
H143 C114 0.950 . S
H144 C118 0.950 . S
H145 C120 0.950 1_565 S
H146 C123 0.950 . S
H147 C125 0.950 . S
C148 C149 1.443 . S
C148 N152 1.376 . S
C148 C186 1.389 . S
C149 C148 1.443 . S
C149 C150 1.340 . S
C149 H189 0.951 . S
C150 C149 1.340 . S
C150 C151 1.439 . S
C150 H190 0.950 . S
C151 C150 1.439 . S
C151 N152 1.374 . S
C151 C185 1.395 . S
N152 C148 1.376 . S
N152 C151 1.374 . S
N152 Co153 2.008 . S
Co153 N152 2.008 . S
Co153 N154 1.995 . S
Co153 N159 2.008 . S
Co153 N164 1.995 . S
Co153 N169 2.282 . S
Co153 N175 2.282 . S
N154 Co153 1.995 . S
N154 C155 1.376 . S
N154 C158 1.383 . S
C155 N154 1.376 . S
C155 C156 1.446 . S
C155 C185 1.391 . S
C156 C155 1.446 . S
C156 C157 1.339 . S
C156 H191 0.949 . S
C157 C156 1.339 . S
C157 C158 1.439 . S
C157 H192 0.950 . S
C158 N154 1.383 . S
C158 C157 1.439 . S
C158 C187 1.392 . S
N159 Co153 2.008 . S
N159 C160 1.376 . S
N159 C163 1.374 . S
C160 N159 1.376 . S
C160 C161 1.443 . S
C160 C187 1.389 . S
C161 C160 1.443 . S
C161 C162 1.340 . S
C161 H193 0.951 . S
C162 C161 1.340 . S
C162 C163 1.439 . S
C162 H194 0.950 . S
C163 N159 1.374 . S
C163 C162 1.439 . S
C163 C188 1.395 . S
N164 Co153 1.995 . S
N164 C165 1.376 . S
N164 C168 1.383 . S
C165 N164 1.376 . S
C165 C166 1.446 . S
C165 C188 1.391 . S
C166 C165 1.446 . S
C166 C167 1.339 . S
C166 H195 0.949 . S
C167 C166 1.339 . S
C167 C168 1.439 . S
C167 H196 0.950 . S
C168 N164 1.383 . S
C168 C167 1.439 . S
C168 C186 1.392 . S
N169 Co153 2.282 . S
N169 C172 1.332 . S
N169 C174 1.332 . S
C170 C171 1.386 . S
C170 C173 1.388 . S
C171 C170 1.386 . S
C171 C172 1.382 . S
C171 H197 0.950 . S
C172 N169 1.332 . S
C172 C171 1.382 . S
C172 H183 0.952 . S
C173 C170 1.388 . S
C173 C174 1.382 . S
C173 H198 0.950 . S
C174 N169 1.332 . S
C174 C173 1.382 . S
C174 H184 0.948 . S
N175 Co153 2.282 . S
N175 C179 1.332 . S
N175 C180 1.332 . S
C176 C177 1.388 . S
C176 C180 1.382 . S
C176 H199 0.950 . S
C177 C176 1.388 . S
C177 C178 1.386 . S
C178 C177 1.386 . S
C178 C179 1.382 . S
C178 H200 0.950 . S
C179 N175 1.332 . S
C179 C178 1.382 . S
C179 H181 0.952 . S
C180 N175 1.332 . S
C180 C176 1.382 . S
C180 H182 0.948 . S
H181 C179 0.952 . S
H182 C180 0.948 . S
H183 C172 0.952 . S
H184 C174 0.948 . S
C185 C151 1.395 . S
C185 C155 1.391 . S
C186 C148 1.389 . S
C186 C168 1.392 . S
C187 C158 1.392 . S
C187 C160 1.389 . S
C188 C163 1.395 . S
C188 C165 1.391 . S
H189 C149 0.951 . S
H190 C150 0.950 . S
H191 C156 0.949 . S
H192 C157 0.950 . S
H193 C161 0.951 . S
H194 C162 0.950 . S
H195 C166 0.949 . S
H196 C167 0.950 . S
H197 C171 0.950 . S
H198 C173 0.950 . S
H199 C176 0.950 . S
H200 C178 0.950 . S
C201 C202 1.363 . S
C201 C207 1.379 . S
C201 N209 1.356 . S
C202 C201 1.363 . S
C202 C208 1.363 . S
C203 C204 1.363 . S
C203 C208 1.379 . S
C203 N210 1.356 . S
C204 C203 1.363 . S
C204 C207 1.363 . S
N205 C207 1.356 . S
N205 H217 0.984 1_455 S
N205 H218 0.985 . S
N206 C208 1.356 . S
N206 H211 0.984 . S
N206 H212 0.985 . S
C207 C201 1.379 . S
C207 C204 1.363 . S
C207 N205 1.356 . S
C208 C202 1.363 . S
C208 C203 1.379 . S
C208 N206 1.356 . S
N209 C201 1.356 . S
N209 H215 0.984 1_455 S
N209 H216 0.984 . S
N210 C203 1.356 . S
N210 H213 0.984 . S
N210 H214 0.985 . S
H211 N206 0.984 . S
H212 N206 0.985 . S
H213 N210 0.984 . S
H214 N210 0.985 . S
H215 N209 0.984 1_655 S
H216 N209 0.984 . S
H217 N205 0.984 1_655 S
H218 N205 0.985 . S
C219 C220 1.363 . S
C219 C225 1.379 . S
C219 N227 1.356 . S
C220 C219 1.363 . S
C220 C226 1.363 . S
C221 C222 1.363 . S
C221 C226 1.379 . S
C221 N228 1.356 . S
C222 C221 1.363 . S
C222 C225 1.363 . S
N223 C225 1.356 . S
N223 H235 0.984 . S
N223 H236 0.985 . S
N224 C226 1.356 1_565 S
N224 H229 0.984 . S
N224 H230 0.985 . S
C225 C219 1.379 . S
C225 C222 1.363 . S
C225 N223 1.356 . S
C226 C220 1.363 . S
C226 C221 1.379 . S
C226 N224 1.356 1_545 S
N227 C219 1.356 . S
N227 H233 0.984 1_655 S
N227 H234 0.984 . S
N228 C221 1.356 . S
N228 H231 0.984 . S
N228 H232 0.985 1_545 S
H229 N224 0.984 . S
H230 N224 0.985 . S
H231 N228 0.984 . S
H232 N228 0.985 1_565 S
H233 N227 0.984 1_455 S
H234 N227 0.984 . S
H235 N223 0.984 . S
H236 N223 0.985 . S
C237 C238 1.363 . S
C237 C243 1.379 . S
C237 N245 1.356 1_655 S
C238 C237 1.363 . S
C238 C244 1.363 . S
C239 C240 1.363 . S
C239 C244 1.379 . S
C239 N246 1.356 . S
C240 C239 1.363 . S
C240 C243 1.363 . S
N241 C243 1.356 . S
N241 H253 0.984 . S
N241 H254 0.985 . S
N242 C244 1.356 . S
N242 H247 0.984 . S
N242 H248 0.985 . S
C243 C237 1.379 . S
C243 C240 1.363 . S
C243 N241 1.356 . S
C244 C238 1.363 . S
C244 C239 1.379 . S
C244 N242 1.356 . S
N245 C237 1.356 1_455 S
N245 H251 0.984 . S
N245 H252 0.984 . S
N246 C239 1.356 . S
N246 H249 0.984 . S
N246 H250 0.985 . S
H247 N242 0.984 . S
H248 N242 0.985 . S
H249 N246 0.984 . S
H250 N246 0.985 . S
H251 N245 0.984 . S
H252 N245 0.984 . S
H253 N241 0.984 . S
H254 N241 0.985 . S
C255 C256 1.363 . S
C255 C261 1.379 . S
C255 N263 1.356 . S
C256 C255 1.363 . S
C256 C262 1.363 . S
C257 C258 1.363 . S
C257 C262 1.379 . S
C257 N264 1.356 . S
C258 C257 1.363 . S
C258 C261 1.363 . S
N259 C261 1.356 1_655 S
N259 H271 0.984 . S
N259 H272 0.985 . S
N260 C262 1.356 1_545 S
N260 H265 0.984 . S
N260 H266 0.985 . S
C261 C255 1.379 . S
C261 C258 1.363 . S
C261 N259 1.356 1_455 S
C262 C256 1.363 . S
C262 C257 1.379 . S
C262 N260 1.356 1_565 S
N263 C255 1.356 . S
N263 H269 0.984 . S
N263 H270 0.984 . S
N264 C257 1.356 . S
N264 H267 0.984 . S
N264 H268 0.985 . S
H265 N260 0.984 . S
H266 N260 0.985 . S
H267 N264 0.984 . S
H268 N264 0.985 . S
H269 N263 0.984 . S
H270 N263 0.984 . S
H271 N259 0.984 . S
H272 N259 0.985 . S
C273 C274 1.363 . S
C273 C279 1.379 . S
C273 N281 1.356 . S
C274 C273 1.363 . S
C274 C280 1.363 . S
C275 C276 1.363 . S
C275 C280 1.379 . S
C275 N282 1.356 . S
C276 C275 1.363 . S
C276 C279 1.363 . S
N277 C279 1.356 . S
N277 H289 0.984 . S
N277 H290 0.985 . S
N278 C280 1.356 . S
N278 H283 0.984 . S
N278 H284 0.985 . S
C279 C273 1.379 . S
C279 C276 1.363 . S
C279 N277 1.356 . S
C280 C274 1.363 . S
C280 C275 1.379 . S
C280 N278 1.356 . S
N281 C273 1.356 . S
N281 H287 0.984 . S
N281 H288 0.984 . S
N282 C275 1.356 . S
N282 H285 0.984 . S
N282 H286 0.985 1_545 S
H283 N278 0.984 . S
H284 N278 0.985 . S
H285 N282 0.984 . S
H286 N282 0.985 1_565 S
H287 N281 0.984 . S
H288 N281 0.984 . S
H289 N277 0.984 . S
H290 N277 0.985 . S
C291 C292 1.363 . S
C291 C297 1.379 . S
C291 N299 1.356 . S
C292 C291 1.363 . S
C292 C298 1.363 . S
C293 C294 1.363 . S
C293 C298 1.379 . S
C293 N300 1.356 . S
C294 C293 1.363 . S
C294 C297 1.363 . S
N295 C297 1.356 . S
N295 H307 0.984 . S
N295 H308 0.985 . S
N296 C298 1.356 . S
N296 H301 0.984 . S
N296 H302 0.985 . S
C297 C291 1.379 . S
C297 C294 1.363 . S
C297 N295 1.356 . S
C298 C292 1.363 . S
C298 C293 1.379 . S
C298 N296 1.356 . S
N299 C291 1.356 . S
N299 H305 0.984 . S
N299 H306 0.984 . S
N300 C293 1.356 . S
N300 H303 0.984 . S
N300 H304 0.985 . S
H301 N296 0.984 . S
H302 N296 0.985 . S
H303 N300 0.984 . S
H304 N300 0.985 . S
H305 N299 0.984 . S
H306 N299 0.984 . S
H307 N295 0.984 . S
H308 N295 0.985 . S
C309 C310 1.363 . S
C309 C315 1.379 . S
C309 N317 1.356 1_545 S
C310 C309 1.363 . S
C310 C316 1.363 . S
C311 C312 1.363 . S
C311 C316 1.379 . S
C311 N318 1.356 . S
C312 C311 1.363 . S
C312 C315 1.363 . S
N313 C315 1.356 1_565 S
N313 H325 0.984 . S
N313 H326 0.985 1_565 S
N314 C316 1.356 . S
N314 H319 0.986 1_655 S
N314 H320 0.985 . S
C315 C309 1.379 . S
C315 C312 1.363 . S
C315 N313 1.356 1_545 S
C316 C310 1.363 . S
C316 C311 1.379 . S
C316 N314 1.356 . S
N317 C309 1.356 1_565 S
N317 H323 0.984 . S
N317 H324 0.984 1_565 S
N318 C311 1.356 . S
N318 H321 0.984 . S
N318 H322 0.985 . S
H319 N314 0.986 1_455 S
H320 N314 0.985 . S
H321 N318 0.984 . S
H322 N318 0.985 . S
H323 N317 0.984 . S
H324 N317 0.984 1_545 S
H325 N313 0.984 . S
H326 N313 0.985 1_545 S
C327 C328 1.363 1_455 S
C327 C333 1.379 1_455 S
C327 N335 1.356 . S
C328 C327 1.363 1_655 S
C328 C334 1.363 . S
C329 C330 1.363 . S
C329 C334 1.379 . S
C329 N336 1.356 . S
C330 C329 1.363 . S
C330 C333 1.363 . S
N331 C333 1.356 . S
N331 H343 0.984 1_655 S
N331 H344 0.985 . S
N332 C334 1.356 1_554 S
N332 H337 0.984 . S
N332 H338 0.985 . S
C333 C327 1.379 1_655 S
C333 C330 1.363 . S
C333 N331 1.356 . S
C334 C328 1.363 . S
C334 C329 1.379 . S
C334 N332 1.356 1_556 S
N335 C327 1.356 . S
N335 H341 0.984 . S
N335 H342 0.984 1_565 S
N336 C329 1.356 . S
N336 H339 0.984 . S
N336 H340 0.985 . S
H337 N332 0.984 . S
H338 N332 0.985 . S
H339 N336 0.984 . S
H340 N336 0.985 . S
H341 N335 0.984 . S
H342 N335 0.984 1_545 S
H343 N331 0.984 1_455 S
H344 N331 0.985 . S
C345 C346 1.363 1_655 S
C345 C351 1.379 . S
C345 N353 1.356 . S
C346 C345 1.363 1_455 S
C346 C352 1.363 . S
C347 C348 1.363 . S
C347 C352 1.379 . S
C347 N354 1.356 . S
C348 C347 1.363 . S
C348 C351 1.363 1_455 S
N349 C351 1.356 . S
N349 H361 0.984 . S
N349 H362 0.985 . S
N350 C352 1.356 . S
N350 H355 0.984 1_565 S
N350 H356 0.985 . S
C351 C345 1.379 . S
C351 C348 1.363 1_655 S
C351 N349 1.356 . S
C352 C346 1.363 . S
C352 C347 1.379 . S
C352 N350 1.356 . S
N353 C345 1.356 . S
N353 H359 0.984 . S
N353 H360 0.984 1_565 S
N354 C347 1.356 . S
N354 H357 0.984 . S
N354 H358 0.985 . S
H355 N350 0.984 1_545 S
H356 N350 0.985 . S
H357 N354 0.984 . S
H358 N354 0.985 . S
H359 N353 0.984 . S
H360 N353 0.984 1_545 S
H361 N349 0.984 . S
H362 N349 0.985 . S
C363 C364 1.363 1_565 S
C363 C369 1.379 1_565 S
C363 N371 1.356 . S
C364 C363 1.363 1_545 S
C364 C370 1.363 . S
C365 C366 1.363 . S
C365 C370 1.379 . S
C365 N372 1.356 . S
C366 C365 1.363 . S
C366 C369 1.363 . S
N367 C369 1.356 1_565 S
N367 H379 0.984 . S
N367 H380 0.985 1_565 S
N368 C370 1.356 . S
N368 H373 0.984 . S
N368 H374 0.985 . S
C369 C363 1.379 1_545 S
C369 C366 1.363 . S
C369 N367 1.356 1_545 S
C370 C364 1.363 . S
C370 C365 1.379 . S
C370 N368 1.356 . S
N371 C363 1.356 . S
N371 H377 0.984 . S
N371 H378 0.984 . S
N372 C365 1.356 . S
N372 H375 0.984 . S
N372 H376 0.985 . S
H373 N368 0.984 . S
H374 N368 0.985 . S
H375 N372 0.984 . S
H376 N372 0.985 . S
H377 N371 0.984 . S
H378 N371 0.984 . S
H379 N367 0.984 . S
H380 N367 0.985 1_545 S
C381 C382 1.363 . S
C381 C387 1.379 . S
C381 N389 1.356 . S
C382 C381 1.363 . S
C382 C388 1.363 . S
C383 C384 1.363 . S
C383 C388 1.379 . S
C383 N390 1.356 . S
C384 C383 1.363 . S
C384 C387 1.363 . S
N385 C387 1.356 . S
N385 H397 0.984 . S
N385 H398 0.985 . S
N386 C388 1.356 1_554 S
N386 H391 0.984 . S
N386 H392 0.985 . S
C387 C381 1.379 . S
C387 C384 1.363 . S
C387 N385 1.356 . S
C388 C382 1.363 . S
C388 C383 1.379 . S
C388 N386 1.356 1_556 S
N389 C381 1.356 . S
N389 H395 0.984 . S
N389 H396 0.984 . S
N390 C383 1.356 . S
N390 H393 0.984 . S
N390 H394 0.985 . S
H391 N386 0.984 . S
H392 N386 0.985 . S
H393 N390 0.984 . S
H394 N390 0.985 . S
H395 N389 0.984 . S
H396 N389 0.984 . S
H397 N385 0.984 . S
H398 N385 0.985 . S
C399 C400 1.363 . S
C399 C405 1.379 . S
C399 N407 1.356 . S
C400 C399 1.363 . S
C400 C406 1.363 . S
C401 C402 1.363 . S
C401 C406 1.379 . S
C401 N408 1.356 . S
C402 C401 1.363 . S
C402 C405 1.363 . S
N403 C405 1.356 . S
N403 H415 0.984 . S
N403 H416 0.985 . S
N404 C406 1.356 . S
N404 H409 0.984 . S
N404 H410 0.985 . S
C405 C399 1.379 . S
C405 C402 1.363 . S
C405 N403 1.356 . S
C406 C400 1.363 . S
C406 C401 1.379 . S
C406 N404 1.356 . S
N407 C399 1.356 . S
N407 H413 0.984 . S
N407 H414 0.984 . S
N408 C401 1.356 . S
N408 H411 0.984 . S
N408 H412 0.985 . S
H409 N404 0.984 . S
H410 N404 0.985 . S
H411 N408 0.984 . S
H412 N408 0.985 . S
H413 N407 0.984 . S
H414 N407 0.984 . S
H415 N403 0.984 . S
H416 N403 0.985 . S
C204 C64 1.384 . S
C202 C11 1.369 . S
C220 C25 1.432 . S
C222 C134 1.455 . S
C238 C41 1.415 1_655 S
C240 C186 1.467 . S
C256 C7 1.424 . S
C258 C80 1.421 . S
C276 C124 1.461 . S
C274 C21 1.459 . S
C292 C36 1.421 . S
C294 C170 1.490 . S
C312 C117 1.433 . S
C310 C39 1.418 . S
C328 C8 1.419 1_666 S
C330 C177 1.482 . S
C348 C71 1.524 . S
C346 C22 1.463 1_565 S
C366 C133 1.472 . S
C364 C35 1.473 . S
C384 C187 1.460 . S
C382 C13 1.405 1_556 S
C400 C27 1.491 . S
C402 C81 1.519 . S
