# Generated by pormake.
# Topology tsx, (6,3)-cn, num edge types: 1
# Building blocks:
#     Node 0, Type 0, BuildingBlock: FUNLAD_clean_sbu_0, # of connection points: 6
#     Node 1, Type 0, BuildingBlock: FUNLAD_clean_sbu_0, # of connection points: 6
#     Node 2, Type 1, BuildingBlock: OLANEW_clean_sbu_2, # of connection points: 3
#     Node 3, Type 1, BuildingBlock: OLANEW_clean_sbu_2, # of connection points: 3
#     Node 4, Type 1, BuildingBlock: OLANEW_clean_sbu_2, # of connection points: 3
#     Node 5, Type 1, BuildingBlock: OLANEW_clean_sbu_2, # of connection points: 3
#     Edge 6, Type (0, 1), BuildingBlock: TEMPAE_clean_linker_10, # of connection points: 2
#     Edge 7, Type (0, 1), BuildingBlock: TEMPAE_clean_linker_10, # of connection points: 2
#     Edge 8, Type (0, 1), BuildingBlock: TEMPAE_clean_linker_10, # of connection points: 2
#     Edge 9, Type (0, 1), BuildingBlock: TEMPAE_clean_linker_10, # of connection points: 2
#     Edge 10, Type (0, 1), BuildingBlock: TEMPAE_clean_linker_10, # of connection points: 2
#     Edge 11, Type (0, 1), BuildingBlock: TEMPAE_clean_linker_10, # of connection points: 2
#     Edge 12, Type (0, 1), BuildingBlock: TEMPAE_clean_linker_10, # of connection points: 2
#     Edge 13, Type (0, 1), BuildingBlock: TEMPAE_clean_linker_10, # of connection points: 2
#     Edge 14, Type (0, 1), BuildingBlock: TEMPAE_clean_linker_10, # of connection points: 2
#     Edge 15, Type (0, 1), BuildingBlock: TEMPAE_clean_linker_10, # of connection points: 2
#     Edge 16, Type (0, 1), BuildingBlock: TEMPAE_clean_linker_10, # of connection points: 2
#     Edge 17, Type (0, 1), BuildingBlock: TEMPAE_clean_linker_10, # of connection points: 2
# Relax obj value: 0.080
# Max RMSD: 0.101
# Mean RMSD: 0.088
data_MOF--net-tsx--node1-FUNLAD_clean_sbu_0--node2-OLANEW_clean_sbu_2--edge1-TEMPAE_clean_linker_10
_symmetry_space_group_name_H-M    P1
_symmetry_Int_Tables_number       1
_symmetry_cell_setting            triclinic
loop_
_symmetry_equiv_pos_as_xyz
'x, y, z'
_cell_length_a     22.109229
_cell_length_b     24.125476
_cell_length_c     40.482238
_cell_angle_alpha  96.279914
_cell_angle_beta   91.858669
_cell_angle_gamma 90.11215
loop_
_atom_site_label
_atom_site_type_symbol
_atom_site_fract_x
_atom_site_fract_y
_atom_site_fract_z
_atom_type_partial_charge
C0 C 0.89714 0.91397 0.00303 0.0
N1 N -0.01214 0.01696 0.079 0.0
C2 C 0.93685 0.02205 0.09694 0.0
C3 C 0.94104 0.02911 0.13163 0.0
C4 C -0.00173 0.03018 0.14792 0.0
C5 C 0.05 0.0248 0.12862 0.0
C6 C 0.04375 0.01876 0.09412 0.0
Zn7 Zn -0.01693 0.00537 0.02861 0.0
C8 C 0.07318 0.92247 0.00211 0.0
N9 N 0.97649 0.98074 0.92331 0.0
C10 C 0.92453 0.97134 0.90459 0.0
C11 C 0.03109 0.9832 0.90903 0.0
C12 C 0.03509 0.97662 0.87468 0.0
C13 C -0.01749 0.96644 0.85459 0.0
C14 C 0.92653 0.96387 0.8699 0.0
Zn15 Zn 0.97723 -0.00786 0.97368 0.0
O16 O 0.91895 0.94056 0.02963 0.0
C17 C 0.88768 0.07531 2e-05 0.0
O18 O 0.91411 0.92665 0.9751 0.0
H19 H 0.07191 -0.00943 0.92432 0.0
H20 H 0.89289 0.02054 0.08434 0.0
H21 H 0.88164 0.96953 0.91656 0.0
O22 O 0.91218 0.06448 0.02742 0.0
O23 O 0.90585 0.05009 0.97294 0.0
H24 H 0.08376 0.01498 0.07941 0.0
O25 O 0.03945 0.05856 0.97283 0.0
O26 O 0.04693 0.07013 0.02718 0.0
O27 O 0.04911 0.93401 0.97483 0.0
O28 O 0.05381 0.94635 0.02916 0.0
C29 C 0.06198 0.08444 0.99933 0.0
H30 H 0.89995 0.0339 0.14547 0.0
H31 H 0.09499 0.02431 0.13996 0.0
H32 H 0.07904 0.98017 0.86402 0.0
H33 H 0.88493 0.95567 0.85531 0.0
C34 C 0.41163 0.41296 0.50829 0.0
N35 N 0.4983 0.51763 0.58498 0.0
C36 C 0.44639 0.51472 0.60185 0.0
C37 C 0.44867 0.51635 0.63645 0.0
C38 C 0.50489 0.52127 0.65378 0.0
C39 C 0.55742 0.52632 0.63574 0.0
C40 C 0.5531 0.52412 0.60122 0.0
Zn41 Zn 0.49646 0.50566 0.53443 0.0
C42 C 0.5873 0.42058 0.51074 0.0
N43 N 0.49609 0.47659 0.42899 0.0
C44 C 0.44397 0.46746 0.41042 0.0
C45 C 0.55035 0.48041 0.41448 0.0
C46 C 0.55347 0.47712 0.38004 0.0
C47 C 0.50037 0.46866 0.3601 0.0
C48 C 0.44513 0.46288 0.37575 0.0
Zn49 Zn 0.49495 0.48898 0.47947 0.0
O50 O 0.43102 0.4414 0.53482 0.0
C51 C 0.40439 0.57442 0.50326 0.0
O52 O 0.43123 0.42376 0.48052 0.0
H53 H 0.59135 0.48736 0.42967 0.0
H54 H 0.40334 0.5094 0.58839 0.0
H55 H 0.40134 0.46453 0.42251 0.0
O56 O 0.42685 0.5653 0.53148 0.0
O57 O 0.4241 0.54737 0.47709 0.0
H58 H 0.59386 0.52608 0.58733 0.0
O59 O 0.55839 0.55432 0.4789 0.0
O60 O 0.56222 0.5696 0.53322 0.0
O61 O 0.5661 0.43095 0.48254 0.0
O62 O 0.56588 0.44591 0.53688 0.0
C63 C 0.58 0.58135 0.50528 0.0
H64 H 0.40707 0.51179 0.64932 0.0
H65 H 0.60157 0.53116 0.64812 0.0
H66 H 0.59697 0.48279 0.36931 0.0
H67 H 0.40315 0.45529 0.36145 0.0
O68 O 0.05792 0.00579 0.41006 0.0
Cd69 Cd 0.06732 -0.00132 0.46922 0.0
O70 O 0.04198 0.09635 0.41507 0.0
Cd71 Cd 0.03646 0.10789 0.4688 0.0
O72 O 0.97608 0.15865 0.50067 0.0
C73 C 0.92192 0.14144 0.50167 0.0
O74 O 0.90799 0.09136 0.48727 0.0
C75 C 0.04894 0.05062 0.39692 0.0
C76 C 0.13476 0.90424 0.4791 0.0
O77 O 0.07698 0.90156 0.47557 0.0
O78 O 0.16042 0.95159 0.47789 0.0
O79 O 0.05485 -0.01388 0.59514 0.0
Cd80 Cd 0.07462 -0.01301 0.53666 0.0
O81 O 0.04559 0.89477 0.5915 0.0
Cd82 Cd 0.04731 0.88046 0.53775 0.0
O83 O 0.97851 0.83159 0.50815 0.0
C84 C 0.92532 0.85135 0.50909 0.0
O85 O 0.91745 0.90207 0.52371 0.0
C86 C 0.04647 0.94194 0.60881 0.0
C87 C 0.1444 0.08016 0.52814 0.0
O88 O 0.08649 0.08235 0.52713 0.0
O89 O 0.16926 0.03387 0.53341 0.0
O90 O 0.48698 0.46219 0.91295 0.0
Cd91 Cd 0.48652 0.45351 0.97231 0.0
O92 O 0.53096 0.54449 0.92058 0.0
Cd93 Cd 0.49858 0.55935 0.97089 0.0
O94 O 0.42571 0.61141 0.99177 0.0
C95 C 0.4288 0.66246 0.98682 0.0
O96 O 0.47626 0.67981 0.97205 0.0
C97 C 0.51297 0.50236 0.90115 0.0
C98 C 0.57182 0.37333 0.9861 0.0
O99 O 0.51701 0.3597 0.97771 0.0
O100 O 0.58626 0.42514 0.98844 0.0
O101 O 0.50776 0.53199 0.10195 0.0
Cd102 Cd 0.49757 0.54338 0.04304 0.0
O103 O 0.50145 0.4407 0.09256 0.0
Cd104 Cd 0.47902 0.43907 0.03989 0.0
O105 O 0.41141 0.38977 0.00986 0.0
C106 C 0.35587 0.40152 0.01309 0.0
O107 O 0.34118 0.44734 0.03165 0.0
C108 C 0.50855 0.4845 0.11273 0.0
C109 C 0.58263 0.6205 0.02757 0.0
O110 O 0.53043 0.63591 0.0378 0.0
O111 O 0.5946 0.56825 0.02452 0.0
C112 C 0.10903 0.15625 0.96812 0.0
C113 C 0.10408 0.13152 0.99773 0.0
C114 C 0.14767 0.20198 0.96651 0.0
C115 C 0.18271 0.22277 0.99505 0.0
C116 C 0.17832 0.19761 0.0249 0.0
C117 C 0.1387 0.1525 0.02594 0.0
C118 C 0.15073 0.22826 0.93442 0.0
C119 C 0.21566 0.21821 0.05574 0.0
C120 C 0.32726 0.30475 0.98962 0.0
C121 C 0.30952 0.35849 0.00236 0.0
C122 C 0.28563 0.2605 0.9855 0.0
C123 C 0.22472 0.27047 0.9939 0.0
C124 C 0.20554 0.32538 0.0043 0.0
C125 C 0.24831 0.36881 0.00854 0.0
C126 C 0.3078 0.20247 0.97438 0.0
C127 C 0.14064 0.33769 0.0129 0.0
H128 H 0.08203 0.14038 0.94629 0.0
H129 H 0.13519 0.13337 0.04883 0.0
H130 H 0.13835 0.27296 0.9387 0.0
H131 H 0.19765 0.22638 0.92548 0.0
H132 H 0.12005 0.20738 0.91457 0.0
H133 H 0.20744 0.19355 0.0768 0.0
H134 H 0.26452 0.21604 0.05029 0.0
H135 H 0.20506 0.26252 0.0636 0.0
H136 H 0.37442 0.29644 0.98456 0.0
H137 H 0.23416 0.41033 0.01809 0.0
H138 H 0.27793 0.182 0.95409 0.0
H139 H 0.30643 0.17673 0.99545 0.0
H140 H 0.35488 0.20263 0.96559 0.0
H141 H 0.1093 0.31794 0.99307 0.0
H142 H 0.13154 0.38319 0.01649 0.0
H143 H 0.13033 0.3198 0.03621 0.0
C144 C 0.15576 0.87524 0.0321 0.0
C145 C 0.1239 0.88253 0.00234 0.0
C146 C 0.20527 0.83892 0.03241 0.0
C147 C 0.22304 0.80896 0.0023 0.0
C148 C 0.19041 0.81539 0.97229 0.0
C149 C 0.14139 0.85224 0.97265 0.0
C150 C 0.23923 0.83337 0.06484 0.0
C151 C 0.20776 0.78388 0.93969 0.0
C152 C 0.38401 0.75776 0.99163 0.0
C153 C 0.37759 0.70063 0.99442 0.0
C154 C 0.33445 0.79384 0.99534 0.0
C155 C 0.27699 0.7722 0.00177 0.0
C156 C 0.27063 0.71494 0.00582 0.0
C157 C 0.32113 0.67983 0.00222 0.0
C158 C 0.3432 0.85479 0.99123 0.0
C159 C 0.21002 0.69036 0.01262 0.0
H160 H 0.1426 0.89856 0.05515 0.0
H161 H 0.11689 0.85747 0.94958 0.0
H162 H 0.24058 0.78902 0.06971 0.0
H163 H 0.28675 0.84746 0.06326 0.0
H164 H 0.21848 0.85822 0.08625 0.0
H165 H 0.17638 0.79202 0.91879 0.0
H166 H 0.25421 0.79595 0.9336 0.0
H167 H 0.20806 0.7384 0.94176 0.0
H168 H 0.42762 0.77423 0.98588 0.0
H169 H 0.31582 0.63572 0.0044 0.0
H170 H 0.32541 0.88124 0.01287 0.0
H171 H 0.31736 0.86517 0.96879 0.0
H172 H 0.39153 0.86572 0.98865 0.0
H173 H 0.18982 0.71437 0.03444 0.0
H174 H 0.21347 0.64594 0.01732 0.0
H175 H 0.17848 0.69319 0.99099 0.0
C176 C 0.82235 0.84405 0.97567 0.0
C177 C 0.85187 0.86924 0.0047 0.0
C178 C 0.77827 0.80252 0.97715 0.0
C179 C 0.76374 0.78567 0.00835 0.0
C180 C 0.79385 0.8105 0.03768 0.0
C181 C 0.83741 0.8521 0.03551 0.0
C182 C 0.74679 0.77712 0.94539 0.0
C183 C 0.77976 0.79339 0.07141 0.0
C184 C 0.6123 0.71842 0.0208 0.0
C185 C 0.62812 0.66208 0.02033 0.0
C186 C 0.65568 0.7589 0.01587 0.0
C187 C 0.71639 0.74266 0.0106 0.0
C188 C 0.73235 0.68568 0.00923 0.0
C189 C 0.68792 0.64599 0.01401 0.0
C190 C 0.63685 0.81923 0.01718 0.0
C191 C 0.7967 0.66687 0.00373 0.0
H192 H 0.83318 0.85717 0.95178 0.0
H193 H 0.86013 0.87124 0.05805 0.0
H194 H 0.75309 0.73126 0.94241 0.0
H195 H 0.69742 0.78489 0.94655 0.0
H196 H 0.76393 0.79429 0.92308 0.0
H197 H 0.80816 0.81597 0.09172 0.0
H198 H 0.73148 0.80166 0.07667 0.0
H199 H 0.78703 0.74794 0.07166 0.0
H200 H 0.56604 0.73109 0.02542 0.0
H201 H 0.70041 0.6025 0.01355 0.0
H202 H 0.65115 0.83716 0.99456 0.0
H203 H 0.65965 0.84374 0.03887 0.0
H204 H 0.58716 0.82444 0.01928 0.0
H205 H 0.81358 0.68203 0.98081 0.0
H206 H 0.80101 0.62075 0.00157 0.0
H207 H 0.82642 0.68508 0.02478 0.0
C208 C 0.81773 0.13447 0.96925 0.0
C209 C 0.83974 0.11803 -0.00044 0.0
C210 C 0.7738 0.17619 0.96839 0.0
C211 C 0.75102 0.2019 0.99855 0.0
C212 C 0.77251 0.18512 0.02921 0.0
C213 C 0.81676 0.14347 0.02937 0.0
C214 C 0.75215 0.19312 0.93518 0.0
C215 C 0.74893 0.21133 0.06185 0.0
C216 C 0.679 0.34415 0.9956 0.0
C217 C 0.61739 0.33017 0.99167 0.0
C218 C 0.72296 0.30291 0.99856 0.0
C219 C 0.70478 0.24647 0.99782 0.0
C220 C 0.64254 0.23233 0.9949 0.0
C221 C 0.5996 0.27433 0.99174 0.0
C222 C 0.78896 0.31955 0.00154 0.0
C223 C 0.62138 0.17266 0.99432 0.0
H224 H 0.83531 0.11515 0.94611 0.0
H225 H 0.83344 0.13095 0.05289 0.0
H226 H 0.70251 0.18681 0.93197 0.0
H227 H 0.76131 0.23813 0.93421 0.0
H228 H 0.77443 0.16903 0.91402 0.0
H229 H 0.76964 0.19297 0.08351 0.0
H230 H 0.75837 0.25681 0.0648 0.0
H231 H 0.69911 0.20594 0.0621 0.0
H232 H 0.69308 0.3872 0.99557 0.0
H233 H 0.55204 0.26323 0.98891 0.0
H234 H 0.81297 0.30001 0.97962 0.0
H235 H 0.81055 0.3042 0.02389 0.0
H236 H 0.79544 0.36546 0.00319 0.0
H237 H 0.63852 0.14737 0.97206 0.0
H238 H 0.57125 0.16904 0.99382 0.0
H239 H 0.63992 0.15436 0.01648 0.0
C240 C 0.65921 0.64729 0.53187 0.0
C241 C 0.6268 0.62459 0.50323 0.0
C242 C 0.70611 0.68589 0.5299 0.0
C243 C 0.72049 0.70256 0.49858 0.0
C244 C 0.68691 0.68091 0.4697 0.0
C245 C 0.64064 0.64194 0.47234 0.0
C246 C 0.74119 0.7079 0.56126 0.0
C247 C 0.7005 0.69823 0.43597 0.0
C248 C 0.81359 0.83543 0.50317 0.0
C249 C 0.87248 0.81421 0.50054 0.0
C250 C 0.76321 0.79961 0.50091 0.0
C251 C 0.77209 0.74125 0.49614 0.0
C252 C 0.83109 0.71972 0.49152 0.0
C253 C 0.88059 0.7565 0.4936 0.0
C254 C 0.70084 0.82412 0.50539 0.0
C255 C 0.84234 0.65769 0.48634 0.0
H256 H 0.64884 0.63398 0.55579 0.0
H257 H 0.61555 0.62477 0.4501 0.0
H258 H 0.7895 0.69612 0.55906 0.0
H259 H 0.73929 0.75411 0.5648 0.0
H260 H 0.72356 0.69157 0.58371 0.0
H261 H 0.6681 0.67975 0.41623 0.0
H262 H 0.69899 0.74431 0.4367 0.0
H263 H 0.7469 0.68507 0.42911 0.0
H264 H 0.8069 0.88001 0.50827 0.0
H265 H 0.92591 0.73972 0.49143 0.0
H266 H 0.6833 0.81438 0.52948 0.0
H267 H 0.669 0.80535 0.4855 0.0
H268 H 0.70092 0.87011 0.50511 0.0
H269 H 0.83109 0.63874 0.50917 0.0
H270 H 0.89018 0.64786 0.48056 0.0
H271 H 0.81268 0.63774 0.46579 0.0
C272 C 0.65424 0.36252 0.54409 0.0
C273 C 0.63631 0.37943 0.51316 0.0
C274 C 0.70046 0.32325 0.54666 0.0
C275 C 0.72968 0.3008 0.51766 0.0
C276 C 0.71197 0.31792 0.48641 0.0
C277 C 0.66535 0.35685 0.48453 0.0
C278 C 0.71786 0.30565 0.58033 0.0
C279 C 0.74238 0.29518 0.45492 0.0
C280 C 0.88647 0.23805 0.51978 0.0
C281 C 0.87336 0.18105 0.51219 0.0
C282 C 0.83993 0.27747 0.52341 0.0
C283 C 0.77893 0.25937 0.51962 0.0
C284 C 0.76541 0.20164 0.51443 0.0
C285 C 0.81283 0.16314 0.51071 0.0
C286 C 0.85616 0.33868 0.52907 0.0
C287 C 0.70088 0.18069 0.51071 0.0
H288 H 0.63187 0.37969 0.56634 0.0
H289 H 0.65191 0.36985 0.46058 0.0
H290 H 0.71164 0.25995 0.58003 0.0
H291 H 0.76642 0.31489 0.58624 0.0
H292 H 0.69063 0.32702 0.60047 0.0
H293 H 0.72365 0.31321 0.43267 0.0
H294 H 0.79165 0.30422 0.45727 0.0
H295 H 0.73684 0.24919 0.45086 0.0
H296 H 0.93311 0.25229 0.52116 0.0
H297 H 0.80229 0.11914 0.50516 0.0
H298 H 0.82987 0.35996 0.54959 0.0
H299 H 0.84433 0.35868 0.50632 0.0
H300 H 0.90516 0.3456 0.5351 0.0
H301 H 0.67337 0.20086 0.53105 0.0
H302 H 0.69792 0.13473 0.51081 0.0
H303 H 0.68048 0.19174 0.48691 0.0
C304 C 0.35 0.33239 0.48106 0.0
C305 C 0.36821 0.36663 0.50995 0.0
C306 C 0.31134 0.28659 0.48264 0.0
C307 C 0.29038 0.27488 0.51382 0.0
C308 C 0.30745 0.31003 0.54294 0.0
C309 C 0.34619 0.35545 0.54067 0.0
C310 C 0.29405 0.25001 0.45105 0.0
C311 C 0.28583 0.29897 0.57664 0.0
C312 C 0.15393 0.18016 0.51776 0.0
C313 C 0.18154 0.12966 0.52357 0.0
C314 C 0.18877 0.22766 0.51407 0.0
C315 C 0.25267 0.22452 0.51627 0.0
C316 C 0.28079 0.17349 0.5217 0.0
C317 C 0.24489 0.12668 0.52527 0.0
C318 C 0.15721 0.28135 0.50824 0.0
C319 C 0.34885 0.16851 0.52414 0.0
H320 H 0.36671 0.3408 0.45722 0.0
H321 H 0.35982 0.3818 0.5631 0.0
H322 H 0.31195 0.20736 0.4524 0.0
H323 H 0.24409 0.24638 0.44813 0.0
H324 H 0.31181 0.26633 0.42862 0.0
H325 H 0.30115 0.33164 0.59666 0.0
H326 H 0.23568 0.29675 0.57622 0.0
H327 H 0.30301 0.25806 0.58285 0.0
H328 H 0.105 0.18275 0.51631 0.0
H329 H 0.26658 0.08777 0.52965 0.0
H330 H 0.17313 0.29659 0.48512 0.0
H331 H 0.16865 0.31398 0.52901 0.0
H332 H 0.10722 0.2764 0.50616 0.0
H333 H 0.36911 0.18086 0.5013 0.0
H334 H 0.36363 0.12548 0.5276 0.0
H335 H 0.36714 0.19731 0.54538 0.0
C336 C 0.33709 0.63111 0.46937 0.0
C337 C 0.35821 0.61825 0.50068 0.0
C338 C 0.29726 0.67559 0.46637 0.0
C339 C 0.27792 0.70791 0.49538 0.0
C340 C 0.29726 0.69392 0.52708 0.0
C341 C 0.33727 0.64928 0.52937 0.0
C342 C 0.2776 0.68921 0.43211 0.0
C343 C 0.27726 0.72724 0.55857 0.0
C344 C 0.23431 0.85763 0.48645 0.0
C345 C 0.17097 0.85417 0.4842 0.0
C346 C 0.26951 0.81041 0.49045 0.0
C347 C 0.24069 0.75848 0.49241 0.0
C348 C 0.17674 0.75481 0.49067 0.0
C349 C 0.1426 0.80272 0.48649 0.0
C350 C 0.33765 0.81599 0.49215 0.0
C351 C 0.14444 0.70019 0.49284 0.0
H352 H 0.35283 0.60726 0.44707 0.0
H353 H 0.35311 0.63949 0.55366 0.0
H354 H 0.22754 0.69128 0.42994 0.0
H355 H 0.29552 0.73081 0.42799 0.0
H356 H 0.29376 0.65802 0.41214 0.0
H357 H 0.29265 0.70846 0.58124 0.0
H358 H 0.29575 0.77026 0.56003 0.0
H359 H 0.22721 0.73053 0.55839 0.0
H360 H 0.25658 0.89724 0.48476 0.0
H361 H 0.09368 0.79973 0.48484 0.0
H362 H 0.3573 0.78894 0.4713 0.0
H363 H 0.35606 0.80179 0.5156 0.0
H364 H 0.35295 0.85956 0.49086 0.0
H365 H 0.15683 0.66953 0.47172 0.0
H366 H 0.09444 0.70483 0.49239 0.0
H367 H 0.15881 0.6826 0.51603 0.0
C368 C 0.96321 0.00924 0.20354 0.0
C369 C 0.00441 0.03584 0.18476 0.0
C370 C 0.9699 0.01264 0.23824 0.0
C371 C 0.01965 0.04237 0.25443 0.0
C372 C 0.06127 0.06947 0.23574 0.0
C373 C 0.0527 0.06648 0.20117 0.0
C374 C 0.92407 0.98401 0.25755 0.0
C375 C 0.11523 0.10107 0.2522 0.0
C376 C 0.01201 0.09164 0.34622 0.0
C377 C 0.04352 0.04933 0.36047 0.0
C378 C 0.00355 0.0897 0.31169 0.0
C379 C 0.02833 0.04498 0.29099 0.0
C380 C 0.06121 0.0027 0.30519 0.0
C381 C 0.06788 0.00507 0.33986 0.0
C382 C 0.96725 0.13494 0.29738 0.0
C383 C 0.08928 0.95501 0.28376 0.0
H384 H 0.9263 -0.01521 0.1911 0.0
H385 H 0.08405 0.08817 0.18699 0.0
H386 H 0.94647 0.951 0.2705 0.0
H387 H 0.9047 0.01438 0.2769 0.0
H388 H 0.88649 0.96473 0.24133 0.0
H389 H 0.14401 0.11893 0.23397 0.0
H390 H 0.09988 0.13551 0.27036 0.0
H391 H 0.14335 0.07295 0.26621 0.0
H392 H -0.00739 0.12566 0.36211 0.0
H393 H 0.09249 0.97245 0.35084 0.0
H394 H 0.92771 0.11625 0.28259 0.0
H395 H -0.00481 0.15629 0.28029 0.0
H396 H 0.95068 0.16661 0.31697 0.0
H397 H 0.05353 0.93061 0.26873 0.0
H398 H 0.115 0.92645 0.2987 0.0
H399 H 0.12034 0.97146 0.26612 0.0
C400 C 0.03588 0.93038 0.80324 0.0
C401 C -0.01313 0.95934 0.81791 0.0
C402 C 0.04411 0.92745 0.76899 0.0
C403 C 0.00148 0.95296 0.74879 0.0
C404 C 0.9506 0.9804 0.76315 0.0
C405 C 0.94411 0.98364 0.79766 0.0
C406 C 0.09915 0.89808 0.75454 0.0
C407 C 0.90372 0.00719 0.74216 0.0
C408 C 0.05478 -0.0086 0.66623 0.0
C409 C 0.03483 0.94527 0.64458 0.0
C410 C 0.04379 -0.00531 0.7003 0.0
C411 C 0.01094 0.95139 0.71267 0.0
C412 C -0.01049 0.90536 0.69078 0.0
C413 C 0.00234 0.90254 0.657 0.0
C414 C 0.06833 0.04387 0.72312 0.0
C415 C 0.95329 0.85901 0.70305 0.0
H416 H 0.06834 0.91037 0.81863 0.0
H417 H 0.90643 0.00649 0.80884 0.0
H418 H 0.08506 0.86358 0.73545 0.0
H419 H 0.12666 0.92762 0.74203 0.0
H420 H 0.12817 0.88068 0.77378 0.0
H421 H 0.86499 0.02394 0.75689 0.0
H422 H 0.92466 0.04184 0.7306 0.0
H423 H 0.88625 0.97644 0.72166 0.0
H424 H 0.07995 0.02443 0.65664 0.0
H425 H -0.01389 0.86716 0.6402 0.0
H426 H 0.10034 0.02911 0.74191 0.0
H427 H 0.03098 0.06556 0.7368 0.0
H428 H 0.0922 0.07439 0.70944 0.0
H429 H -0.01864 0.83737 0.72083 0.0
H430 H 0.93708 0.82775 0.68245 0.0
H431 H 0.91357 0.87649 0.71658 0.0
C432 C 0.55559 0.48837 0.70423 0.0
C433 C 0.50913 0.51881 0.69025 0.0
C434 C 0.55975 0.4847 0.73854 0.0
C435 C 0.51604 0.51164 0.75931 0.0
C436 C 0.46905 0.54246 0.74543 0.0
C437 C 0.46628 0.54583 0.71105 0.0
C438 C 0.61056 0.45158 0.75251 0.0
C439 C 0.42151 0.5716 0.76687 0.0
C440 C 0.48848 0.46091 0.84293 0.0
C441 C 0.51818 0.50207 0.86479 0.0
C442 C 0.48826 0.46302 0.80846 0.0
C443 C 0.51889 0.50708 0.79558 0.0
C444 C 0.55067 0.54769 0.8174 0.0
C445 C 0.54977 0.54481 0.85179 0.0
C446 C 0.45374 0.41904 0.7859 0.0
C447 C 0.58446 0.59489 0.80447 0.0
H448 H 0.58825 0.46652 0.68826 0.0
H449 H 0.43071 0.56994 0.70047 0.0
H450 H 0.63684 0.47823 0.77199 0.0
H451 H 0.59169 0.41639 0.76446 0.0
H452 H 0.64193 0.43453 0.73308 0.0
H453 H 0.38793 0.59379 0.75218 0.0
H454 H 0.39716 0.54082 0.78007 0.0
H455 H 0.44329 0.60221 0.78608 0.0
H456 H 0.4639 0.42777 0.85277 0.0
H457 H 0.57307 0.57663 0.8685 0.0
H458 H 0.48387 0.39874 0.76685 0.0
H459 H 0.41639 0.43879 0.77253 0.0
H460 H 0.43422 0.38637 0.79978 0.0
H461 H 0.61716 0.57811 0.78574 0.0
H462 H 0.60943 0.62142 0.8246 0.0
H463 H 0.55219 0.62148 0.79186 0.0
C464 C 0.45602 0.49221 0.30556 0.0
C465 C 0.50266 0.46802 0.32338 0.0
C466 C 0.4586 0.49373 0.27112 0.0
C467 C 0.50972 0.47174 0.25419 0.0
C468 C 0.55703 0.4474 0.2719 0.0
C469 C 0.55255 0.44514 0.30619 0.0
C470 C 0.40674 0.51914 0.25289 0.0
C471 C 0.61259 0.42417 0.25469 0.0
C472 C 0.49156 0.43204 0.16129 0.0
C473 C 0.51319 0.48001 0.14878 0.0
C474 C 0.49069 0.42859 0.19558 0.0
C475 C 0.51322 0.47375 0.21783 0.0
C476 C 0.53711 0.52153 0.20534 0.0
C477 C 0.53617 0.52437 0.1709 0.0
C478 C 0.4638 0.37743 0.20801 0.0
C479 C 0.56277 0.56993 0.22838 0.0
H480 H 0.41782 0.51096 0.31857 0.0
H481 H 0.58831 0.42539 0.31952 0.0
H482 H 0.42297 0.55591 0.24143 0.0
H483 H 0.38861 0.48861 0.23246 0.0
H484 H 0.36926 0.5325 0.26953 0.0
H485 H 0.64621 0.40818 0.27226 0.0
H486 H 0.59956 0.38971 0.23533 0.0
H487 H 0.63453 0.45697 0.24195 0.0
H488 H 0.4733 0.39778 0.1443 0.0
H489 H 0.55325 0.56137 0.16128 0.0
H490 H 0.42385 0.38943 0.22304 0.0
H491 H 0.49707 0.35845 0.22445 0.0
H492 H 0.44948 0.34542 0.18739 0.0
H493 H 0.5265 0.58943 0.24394 0.0
H494 H 0.58314 0.60235 0.21463 0.0
H495 H 0.59786 0.55499 0.24547 0.0
loop_
_geom_bond_atom_site_label_1
_geom_bond_atom_site_label_2
_geom_bond_distance
_geom_bond_site_symmetry_2
_ccdc_geom_bond_type
C0 O16 1.251 . S
C0 O18 1.254 1_554 S
N1 C2 1.333 1_455 S
N1 C6 1.307 . S
N1 Zn7 2.020 . S
C2 N1 1.333 1_655 S
C2 C3 1.379 . S
C2 H20 0.952 1_545 S
C3 C2 1.379 . S
C3 C4 1.390 1_655 S
C3 H30 0.949 . S
C4 C3 1.390 1_455 S
C4 C5 1.357 . S
C5 C4 1.357 . S
C5 C6 1.370 . S
C5 H31 0.950 . S
C6 N1 1.307 . S
C6 C5 1.370 . S
C6 H24 0.948 . S
Zn7 N1 2.020 . S
Zn7 O16 2.039 1_445 S
Zn7 O22 2.034 1_455 S
Zn7 O26 2.025 . S
Zn7 O28 2.024 1_545 S
C8 O27 1.246 1_554 S
C8 O28 1.249 . S
N9 C10 1.307 1_445 S
N9 C11 1.333 . S
N9 Zn15 2.020 . S
C10 N9 1.307 1_665 S
C10 C14 1.370 . S
C10 H21 0.948 . S
C11 N9 1.333 . S
C11 C12 1.379 . S
C11 H19 0.952 . S
C12 C11 1.379 . S
C12 C13 1.391 . S
C12 H32 0.949 . S
C13 C12 1.391 . S
C13 C14 1.356 1_445 S
C14 C10 1.370 . S
C14 C13 1.356 1_665 S
C14 H33 0.950 . S
Zn15 N9 2.020 . S
Zn15 O18 2.025 1_445 S
Zn15 O23 2.024 1_455 S
Zn15 O25 2.039 . S
Zn15 O27 2.034 1_545 S
O16 C0 1.251 . S
O16 Zn7 2.039 1_665 S
C17 O22 1.246 . S
C17 O23 1.249 1_554 S
O18 C0 1.254 1_556 S
O18 Zn15 2.025 1_665 S
H19 C11 0.952 . S
H20 C2 0.952 1_565 S
H21 C10 0.948 . S
O22 Zn7 2.034 1_655 S
O22 C17 1.246 . S
O23 Zn15 2.024 1_655 S
O23 C17 1.249 1_556 S
H24 C6 0.948 . S
O25 Zn15 2.039 . S
O25 C29 1.251 1_556 S
O26 Zn7 2.025 . S
O26 C29 1.254 . S
O27 C8 1.246 1_556 S
O27 Zn15 2.034 1_565 S
O28 Zn7 2.024 1_565 S
O28 C8 1.249 . S
C29 O25 1.251 1_554 S
C29 O26 1.254 . S
H30 C3 0.949 . S
H31 C5 0.950 . S
H32 C12 0.949 . S
H33 C14 0.950 . S
C34 O50 1.251 . S
C34 O52 1.254 . S
N35 C36 1.333 . S
N35 C40 1.307 . S
N35 Zn41 2.020 . S
C36 N35 1.333 . S
C36 C37 1.379 . S
C36 H54 0.952 . S
C37 C36 1.379 . S
C37 C38 1.390 . S
C37 H64 0.949 . S
C38 C37 1.390 . S
C38 C39 1.357 . S
C39 C38 1.357 . S
C39 C40 1.370 . S
C39 H65 0.950 . S
C40 N35 1.307 . S
C40 C39 1.370 . S
C40 H58 0.948 . S
Zn41 N35 2.020 . S
Zn41 O50 2.039 . S
Zn41 O56 2.034 . S
Zn41 O60 2.025 . S
Zn41 O62 2.024 . S
C42 O61 1.246 . S
C42 O62 1.249 . S
N43 C44 1.307 . S
N43 C45 1.333 . S
N43 Zn49 2.020 . S
C44 N43 1.307 . S
C44 C48 1.370 . S
C44 H55 0.948 . S
C45 N43 1.333 . S
C45 C46 1.379 . S
C45 H53 0.952 . S
C46 C45 1.379 . S
C46 C47 1.390 . S
C46 H66 0.949 . S
C47 C46 1.390 . S
C47 C48 1.357 . S
C48 C44 1.370 . S
C48 C47 1.357 . S
C48 H67 0.950 . S
Zn49 N43 2.020 . S
Zn49 O52 2.025 . S
Zn49 O57 2.024 . S
Zn49 O59 2.039 . S
Zn49 O61 2.034 . S
O50 C34 1.251 . S
O50 Zn41 2.039 . S
C51 O56 1.246 . S
C51 O57 1.249 . S
O52 C34 1.254 . S
O52 Zn49 2.025 . S
H53 C45 0.952 . S
H54 C36 0.952 . S
H55 C44 0.948 . S
O56 Zn41 2.034 . S
O56 C51 1.246 . S
O57 Zn49 2.024 . S
O57 C51 1.249 . S
H58 C40 0.948 . S
O59 Zn49 2.039 . S
O59 C63 1.251 . S
O60 Zn41 2.025 . S
O60 C63 1.254 . S
O61 C42 1.246 . S
O61 Zn49 2.034 . S
O62 Zn41 2.024 . S
O62 C42 1.249 . S
C63 O59 1.251 . S
C63 O60 1.254 . S
H64 C37 0.949 . S
H65 C39 0.950 . S
H66 C46 0.949 . S
H67 C48 0.950 . S
O68 Cd69 2.300 1_565 S
O68 C75 1.275 1_565 S
Cd69 O68 2.300 1_545 S
Cd69 O77 2.381 1_545 S
Cd69 O78 2.378 1_545 S
O70 Cd71 2.385 . S
O70 C75 1.255 . S
Cd71 O70 2.385 . S
Cd71 O72 2.317 1_455 S
O72 Cd71 2.317 1_655 S
O72 C73 1.232 . S
C73 O72 1.232 . S
C73 O74 1.218 . S
O74 C73 1.218 . S
C75 O68 1.275 1_545 S
C75 O70 1.255 . S
C76 O77 1.258 . S
C76 O78 1.256 . S
O77 Cd69 2.381 1_565 S
O77 C76 1.258 . S
O78 Cd69 2.378 1_565 S
O78 C76 1.256 . S
O79 Cd80 2.300 . S
O79 C86 1.275 1_545 S
Cd80 O79 2.300 . S
Cd80 O88 2.381 . S
Cd80 O89 2.378 . S
O81 Cd82 2.385 . S
O81 C86 1.255 . S
Cd82 O81 2.385 . S
Cd82 O83 2.317 1_455 S
O83 Cd82 2.317 1_655 S
O83 C84 1.232 . S
C84 O83 1.232 . S
C84 O85 1.218 . S
O85 C84 1.218 . S
C86 O79 1.275 1_565 S
C86 O81 1.255 . S
C87 O88 1.258 . S
C87 O89 1.256 . S
O88 Cd80 2.381 . S
O88 C87 1.258 . S
O89 Cd80 2.378 . S
O89 C87 1.256 . S
O90 Cd91 2.300 . S
O90 C97 1.275 . S
Cd91 O90 2.300 . S
Cd91 O99 2.381 . S
Cd91 O100 2.378 1_556 S
O92 Cd93 2.385 . S
O92 C97 1.255 . S
Cd93 O92 2.385 . S
Cd93 O94 2.317 . S
O94 Cd93 2.317 . S
O94 C95 1.232 . S
C95 O94 1.232 . S
C95 O96 1.218 . S
O96 C95 1.218 . S
C97 O90 1.275 . S
C97 O92 1.255 . S
C98 O99 1.258 . S
C98 O100 1.256 1_556 S
O99 Cd91 2.381 . S
O99 C98 1.258 . S
O100 Cd91 2.378 1_554 S
O100 C98 1.256 1_554 S
O101 Cd102 2.300 . S
O101 C108 1.275 . S
Cd102 O101 2.300 . S
Cd102 O110 2.381 . S
Cd102 O111 2.378 . S
O103 Cd104 2.385 . S
O103 C108 1.255 . S
Cd104 O103 2.385 . S
Cd104 O105 2.317 . S
O105 Cd104 2.317 . S
O105 C106 1.232 . S
C106 O105 1.232 . S
C106 O107 1.218 . S
O107 C106 1.218 . S
C108 O101 1.275 . S
C108 O103 1.255 . S
C109 O110 1.258 . S
C109 O111 1.256 . S
O110 Cd102 2.381 . S
O110 C109 1.258 . S
O111 Cd102 2.378 . S
O111 C109 1.256 . S
C112 C113 1.391 . S
C112 C114 1.394 . S
C112 H128 0.931 . S
C113 C112 1.391 . S
C113 C117 1.376 . S
C114 C112 1.394 . S
C114 C115 1.369 . S
C114 C118 1.531 . S
C115 C114 1.369 . S
C115 C116 1.410 . S
C115 C123 1.503 . S
C116 C115 1.410 . S
C116 C117 1.392 . S
C116 C119 1.511 . S
C117 C113 1.376 . S
C117 C116 1.392 . S
C117 H129 0.929 . S
C118 C114 1.531 . S
C118 H130 0.960 . S
C118 H131 0.962 1_554 S
C118 H132 0.960 . S
C119 C116 1.511 . S
C119 H133 0.961 . S
C119 H134 0.961 . S
C119 H135 0.961 . S
C120 C121 1.370 1_556 S
C120 C122 1.363 . S
C120 H136 0.931 . S
C121 C120 1.370 1_554 S
C121 C125 1.408 . S
C122 C120 1.363 . S
C122 C123 1.370 1_556 S
C122 C126 1.524 . S
C123 C115 1.503 . S
C123 C122 1.370 1_554 S
C123 C124 1.403 . S
C124 C123 1.403 . S
C124 C125 1.404 . S
C124 C127 1.539 . S
C125 C121 1.408 . S
C125 C124 1.404 . S
C125 H137 0.930 . S
C126 C122 1.524 . S
C126 H138 0.956 . S
C126 H139 0.961 . S
C126 H140 0.961 . S
C127 C124 1.539 . S
C127 H141 0.958 . S
C127 H142 0.961 . S
C127 H143 0.960 . S
H128 C112 0.931 . S
H129 C117 0.929 . S
H130 C118 0.960 . S
H131 C118 0.962 1_556 S
H132 C118 0.960 . S
H133 C119 0.961 . S
H134 C119 0.961 . S
H135 C119 0.961 . S
H136 C120 0.931 . S
H137 C125 0.930 . S
H138 C126 0.956 . S
H139 C126 0.961 . S
H140 C126 0.961 . S
H141 C127 0.958 . S
H142 C127 0.961 . S
H143 C127 0.960 . S
C144 C145 1.391 . S
C144 C146 1.394 . S
C144 H160 0.931 . S
C145 C144 1.391 . S
C145 C149 1.376 1_554 S
C146 C144 1.394 . S
C146 C147 1.369 . S
C146 C150 1.531 . S
C147 C146 1.369 . S
C147 C148 1.410 1_554 S
C147 C155 1.503 1_554 S
C148 C147 1.410 1_556 S
C148 C149 1.392 . S
C148 C151 1.511 . S
C149 C145 1.376 1_556 S
C149 C148 1.392 . S
C149 H161 0.929 . S
C150 C146 1.531 . S
C150 H162 0.960 . S
C150 H163 0.962 . S
C150 H164 0.960 . S
C151 C148 1.511 . S
C151 H165 0.961 . S
C151 H166 0.961 . S
C151 H167 0.961 . S
C152 C153 1.370 . S
C152 C154 1.363 . S
C152 H168 0.931 . S
C153 C152 1.370 . S
C153 C157 1.408 1_556 S
C154 C152 1.363 . S
C154 C155 1.370 . S
C154 C158 1.524 . S
C155 C147 1.503 1_556 S
C155 C154 1.370 . S
C155 C156 1.403 1_556 S
C156 C155 1.403 1_554 S
C156 C157 1.404 . S
C156 C159 1.539 . S
C157 C153 1.408 1_554 S
C157 C156 1.404 . S
C157 H169 0.930 . S
C158 C154 1.524 . S
C158 H170 0.956 . S
C158 H171 0.961 . S
C158 H172 0.961 . S
C159 C156 1.539 . S
C159 H173 0.958 . S
C159 H174 0.961 . S
C159 H175 0.960 . S
H160 C144 0.931 . S
H161 C149 0.929 . S
H162 C150 0.960 . S
H163 C150 0.962 . S
H164 C150 0.960 . S
H165 C151 0.961 . S
H166 C151 0.961 . S
H167 C151 0.961 . S
H168 C152 0.931 . S
H169 C157 0.930 . S
H170 C158 0.956 . S
H171 C158 0.961 . S
H172 C158 0.961 . S
H173 C159 0.958 . S
H174 C159 0.961 . S
H175 C159 0.960 . S
C176 C177 1.396 . S
C176 C178 1.394 . S
C176 H192 0.931 . S
C177 C176 1.396 . S
C177 C181 1.370 1_556 S
C178 C176 1.394 . S
C178 C179 1.369 . S
C178 C182 1.531 . S
C179 C178 1.369 . S
C179 C180 1.410 1_556 S
C179 C187 1.499 1_556 S
C180 C179 1.410 1_554 S
C180 C181 1.392 . S
C180 C183 1.511 . S
C181 C177 1.370 1_554 S
C181 C180 1.392 . S
C181 H193 0.929 . S
C182 C178 1.531 . S
C182 H194 0.960 . S
C182 H195 0.962 . S
C182 H196 0.960 . S
C183 C180 1.511 . S
C183 H197 0.961 . S
C183 H198 0.961 . S
C183 H199 0.961 1_554 S
C184 C185 1.370 . S
C184 C186 1.363 . S
C184 H200 0.931 . S
C185 C184 1.370 . S
C185 C189 1.408 1_554 S
C186 C184 1.363 . S
C186 C187 1.387 . S
C186 C190 1.524 . S
C187 C179 1.499 1_554 S
C187 C186 1.387 . S
C187 C188 1.389 1_554 S
C188 C187 1.389 1_556 S
C188 C189 1.404 . S
C188 C191 1.539 . S
C189 C185 1.408 1_556 S
C189 C188 1.404 . S
C189 H201 0.930 . S
C190 C186 1.524 . S
C190 H202 0.956 . S
C190 H203 0.961 . S
C190 H204 0.961 . S
C191 C188 1.539 . S
C191 H205 0.958 . S
C191 H206 0.961 . S
C191 H207 0.960 . S
H192 C176 0.931 . S
H193 C181 0.929 . S
H194 C182 0.960 . S
H195 C182 0.962 . S
H196 C182 0.960 . S
H197 C183 0.961 . S
H198 C183 0.961 . S
H199 C183 0.961 1_556 S
H200 C184 0.931 . S
H201 C189 0.930 . S
H202 C190 0.956 . S
H203 C190 0.961 . S
H204 C190 0.961 . S
H205 C191 0.958 . S
H206 C191 0.961 . S
H207 C191 0.960 . S
C208 C209 1.391 1_556 S
C208 C210 1.394 . S
C208 H224 0.931 . S
C209 C208 1.391 1_554 S
C209 C213 1.376 . S
C210 C208 1.394 . S
C210 C211 1.369 1_556 S
C210 C214 1.531 . S
C211 C210 1.369 1_554 S
C211 C212 1.410 . S
C211 C219 1.503 . S
C212 C211 1.410 . S
C212 C213 1.392 . S
C212 C215 1.511 . S
C213 C209 1.376 . S
C213 C212 1.392 . S
C213 H225 0.929 . S
C214 C210 1.531 . S
C214 H226 0.960 . S
C214 H227 0.962 . S
C214 H228 0.960 . S
C215 C212 1.511 . S
C215 H229 0.961 . S
C215 H230 0.961 . S
C215 H231 0.961 . S
C216 C217 1.370 1_556 S
C216 C218 1.363 . S
C216 H232 0.931 . S
C217 C216 1.370 1_554 S
C217 C221 1.408 . S
C218 C216 1.363 . S
C218 C219 1.370 1_556 S
C218 C222 1.524 . S
C219 C211 1.503 . S
C219 C218 1.370 1_554 S
C219 C220 1.403 . S
C220 C219 1.403 . S
C220 C221 1.404 . S
C220 C223 1.539 . S
C221 C217 1.408 . S
C221 C220 1.404 . S
C221 H233 0.930 . S
C222 C218 1.524 . S
C222 H234 0.956 . S
C222 H235 0.961 . S
C222 H236 0.961 . S
C223 C220 1.539 . S
C223 H237 0.958 . S
C223 H238 0.961 . S
C223 H239 0.960 . S
H224 C208 0.931 . S
H225 C213 0.929 . S
H226 C214 0.960 . S
H227 C214 0.962 . S
H228 C214 0.960 . S
H229 C215 0.961 . S
H230 C215 0.961 . S
H231 C215 0.961 . S
H232 C216 0.931 . S
H233 C221 0.930 . S
H234 C222 0.956 . S
H235 C222 0.961 . S
H236 C222 0.961 . S
H237 C223 0.958 . S
H238 C223 0.961 . S
H239 C223 0.960 . S
C240 C241 1.391 . S
C240 C242 1.394 . S
C240 H256 0.931 . S
C241 C240 1.391 . S
C241 C245 1.376 . S
C242 C240 1.394 . S
C242 C243 1.369 . S
C242 C246 1.531 . S
C243 C242 1.369 . S
C243 C244 1.410 . S
C243 C251 1.503 . S
C244 C243 1.410 . S
C244 C245 1.392 . S
C244 C247 1.511 . S
C245 C241 1.376 . S
C245 C244 1.392 . S
C245 H257 0.929 . S
C246 C242 1.531 . S
C246 H258 0.960 . S
C246 H259 0.962 . S
C246 H260 0.960 . S
C247 C244 1.511 . S
C247 H261 0.961 . S
C247 H262 0.961 . S
C247 H263 0.961 . S
C248 C249 1.370 . S
C248 C250 1.363 . S
C248 H264 0.931 . S
C249 C248 1.370 . S
C249 C253 1.408 . S
C250 C248 1.363 . S
C250 C251 1.370 . S
C250 C254 1.524 . S
C251 C243 1.503 . S
C251 C250 1.370 . S
C251 C252 1.403 . S
C252 C251 1.403 . S
C252 C253 1.404 . S
C252 C255 1.539 . S
C253 C249 1.408 . S
C253 C252 1.404 . S
C253 H265 0.930 . S
C254 C250 1.524 . S
C254 H266 0.956 . S
C254 H267 0.961 . S
C254 H268 0.961 . S
C255 C252 1.539 . S
C255 H269 0.958 . S
C255 H270 0.961 . S
C255 H271 0.960 . S
H256 C240 0.931 . S
H257 C245 0.929 . S
H258 C246 0.960 . S
H259 C246 0.962 . S
H260 C246 0.960 . S
H261 C247 0.961 . S
H262 C247 0.961 . S
H263 C247 0.961 . S
H264 C248 0.931 . S
H265 C253 0.930 . S
H266 C254 0.956 . S
H267 C254 0.961 . S
H268 C254 0.961 . S
H269 C255 0.958 . S
H270 C255 0.961 . S
H271 C255 0.960 . S
C272 C273 1.391 . S
C272 C274 1.394 . S
C272 H288 0.931 . S
C273 C272 1.391 . S
C273 C277 1.376 . S
C274 C272 1.394 . S
C274 C275 1.369 . S
C274 C278 1.531 . S
C275 C274 1.369 . S
C275 C276 1.410 . S
C275 C283 1.503 . S
C276 C275 1.410 . S
C276 C277 1.392 . S
C276 C279 1.511 . S
C277 C273 1.376 . S
C277 C276 1.392 . S
C277 H289 0.929 . S
C278 C274 1.531 . S
C278 H290 0.960 . S
C278 H291 0.962 . S
C278 H292 0.960 . S
C279 C276 1.511 . S
C279 H293 0.961 . S
C279 H294 0.961 . S
C279 H295 0.961 . S
C280 C281 1.370 . S
C280 C282 1.363 . S
C280 H296 0.931 . S
C281 C280 1.370 . S
C281 C285 1.408 . S
C282 C280 1.363 . S
C282 C283 1.370 . S
C282 C286 1.524 . S
C283 C275 1.503 . S
C283 C282 1.370 . S
C283 C284 1.403 . S
C284 C283 1.403 . S
C284 C285 1.404 . S
C284 C287 1.539 . S
C285 C281 1.408 . S
C285 C284 1.404 . S
C285 H297 0.930 . S
C286 C282 1.524 . S
C286 H298 0.956 . S
C286 H299 0.961 . S
C286 H300 0.961 . S
C287 C284 1.539 . S
C287 H301 0.958 . S
C287 H302 0.961 . S
C287 H303 0.960 . S
H288 C272 0.931 . S
H289 C277 0.929 . S
H290 C278 0.960 . S
H291 C278 0.962 . S
H292 C278 0.960 . S
H293 C279 0.961 . S
H294 C279 0.961 . S
H295 C279 0.961 . S
H296 C280 0.931 . S
H297 C285 0.930 . S
H298 C286 0.956 . S
H299 C286 0.961 . S
H300 C286 0.961 . S
H301 C287 0.958 . S
H302 C287 0.961 . S
H303 C287 0.960 . S
C304 C305 1.391 . S
C304 C306 1.394 . S
C304 H320 0.931 . S
C305 C304 1.391 . S
C305 C309 1.376 . S
C306 C304 1.394 . S
C306 C307 1.369 . S
C306 C310 1.531 . S
C307 C306 1.369 . S
C307 C308 1.410 . S
C307 C315 1.503 . S
C308 C307 1.410 . S
C308 C309 1.392 . S
C308 C311 1.511 . S
C309 C305 1.376 . S
C309 C308 1.392 . S
C309 H321 0.929 . S
C310 C306 1.531 . S
C310 H322 0.960 . S
C310 H323 0.962 . S
C310 H324 0.960 . S
C311 C308 1.511 . S
C311 H325 0.961 . S
C311 H326 0.961 . S
C311 H327 0.961 . S
C312 C313 1.370 . S
C312 C314 1.363 . S
C312 H328 0.931 . S
C313 C312 1.370 . S
C313 C317 1.408 . S
C314 C312 1.363 . S
C314 C315 1.370 . S
C314 C318 1.524 . S
C315 C307 1.503 . S
C315 C314 1.370 . S
C315 C316 1.403 . S
C316 C315 1.403 . S
C316 C317 1.404 . S
C316 C319 1.539 . S
C317 C313 1.408 . S
C317 C316 1.404 . S
C317 H329 0.930 . S
C318 C314 1.524 . S
C318 H330 0.956 . S
C318 H331 0.961 . S
C318 H332 0.961 . S
C319 C316 1.539 . S
C319 H333 0.958 . S
C319 H334 0.961 . S
C319 H335 0.960 . S
H320 C304 0.931 . S
H321 C309 0.929 . S
H322 C310 0.960 . S
H323 C310 0.962 . S
H324 C310 0.960 . S
H325 C311 0.961 . S
H326 C311 0.961 . S
H327 C311 0.961 . S
H328 C312 0.931 . S
H329 C317 0.930 . S
H330 C318 0.956 . S
H331 C318 0.961 . S
H332 C318 0.961 . S
H333 C319 0.958 . S
H334 C319 0.961 . S
H335 C319 0.960 . S
C336 C337 1.391 . S
C336 C338 1.394 . S
C336 H352 0.931 . S
C337 C336 1.391 . S
C337 C341 1.376 . S
C338 C336 1.394 . S
C338 C339 1.369 . S
C338 C342 1.531 . S
C339 C338 1.369 . S
C339 C340 1.410 . S
C339 C347 1.503 . S
C340 C339 1.410 . S
C340 C341 1.392 . S
C340 C343 1.511 . S
C341 C337 1.376 . S
C341 C340 1.392 . S
C341 H353 0.929 . S
C342 C338 1.531 . S
C342 H354 0.960 . S
C342 H355 0.962 . S
C342 H356 0.960 . S
C343 C340 1.511 . S
C343 H357 0.961 . S
C343 H358 0.961 . S
C343 H359 0.961 . S
C344 C345 1.370 . S
C344 C346 1.363 . S
C344 H360 0.931 . S
C345 C344 1.370 . S
C345 C349 1.408 . S
C346 C344 1.363 . S
C346 C347 1.370 . S
C346 C350 1.524 . S
C347 C339 1.503 . S
C347 C346 1.370 . S
C347 C348 1.403 . S
C348 C347 1.403 . S
C348 C349 1.404 . S
C348 C351 1.539 . S
C349 C345 1.408 . S
C349 C348 1.404 . S
C349 H361 0.930 . S
C350 C346 1.524 . S
C350 H362 0.956 . S
C350 H363 0.961 . S
C350 H364 0.961 . S
C351 C348 1.539 . S
C351 H365 0.958 . S
C351 H366 0.961 . S
C351 H367 0.960 . S
H352 C336 0.931 . S
H353 C341 0.929 . S
H354 C342 0.960 . S
H355 C342 0.962 . S
H356 C342 0.960 . S
H357 C343 0.961 . S
H358 C343 0.961 . S
H359 C343 0.961 . S
H360 C344 0.931 . S
H361 C349 0.930 . S
H362 C350 0.956 . S
H363 C350 0.961 . S
H364 C350 0.961 . S
H365 C351 0.958 . S
H366 C351 0.961 . S
H367 C351 0.960 . S
C368 C369 1.391 1_665 S
C368 C370 1.394 . S
C368 H384 0.931 . S
C369 C368 1.391 1_445 S
C369 C373 1.376 . S
C370 C368 1.394 . S
C370 C371 1.369 1_665 S
C370 C374 1.531 . S
C371 C370 1.369 1_445 S
C371 C372 1.410 . S
C371 C379 1.503 . S
C372 C371 1.410 . S
C372 C373 1.392 . S
C372 C375 1.511 . S
C373 C369 1.376 . S
C373 C372 1.392 . S
C373 H385 0.929 . S
C374 C370 1.531 . S
C374 H386 0.960 . S
C374 H387 0.962 . S
C374 H388 0.960 . S
C375 C372 1.511 . S
C375 H389 0.961 . S
C375 H390 0.961 . S
C375 H391 0.961 . S
C376 C377 1.370 1_655 S
C376 C378 1.363 . S
C376 H392 0.931 . S
C377 C376 1.370 1_455 S
C377 C381 1.408 1_545 S
C378 C376 1.363 . S
C378 C379 1.370 1_655 S
C378 C382 1.524 . S
C379 C371 1.503 . S
C379 C378 1.370 1_455 S
C379 C380 1.403 1_545 S
C380 C379 1.403 1_565 S
C380 C381 1.404 . S
C380 C383 1.539 . S
C381 C377 1.408 1_565 S
C381 C380 1.404 . S
C381 H393 0.930 . S
C382 C378 1.524 . S
C382 H394 0.956 . S
C382 H395 0.961 . S
C382 H396 0.961 . S
C383 C380 1.539 . S
C383 H397 0.958 . S
C383 H398 0.961 . S
C383 H399 0.960 . S
H384 C368 0.931 . S
H385 C373 0.929 . S
H386 C374 0.960 . S
H387 C374 0.962 . S
H388 C374 0.960 . S
H389 C375 0.961 . S
H390 C375 0.961 . S
H391 C375 0.961 . S
H392 C376 0.931 . S
H393 C381 0.930 . S
H394 C382 0.956 . S
H395 C382 0.961 . S
H396 C382 0.961 . S
H397 C383 0.958 . S
H398 C383 0.961 . S
H399 C383 0.960 . S
C400 C401 1.391 . S
C400 C402 1.394 . S
C400 H416 0.931 . S
C401 C400 1.391 . S
C401 C405 1.376 1_465 S
C402 C400 1.394 . S
C402 C403 1.369 . S
C402 C406 1.531 . S
C403 C402 1.369 . S
C403 C404 1.410 1_465 S
C403 C411 1.503 . S
C404 C403 1.410 1_645 S
C404 C405 1.392 . S
C404 C407 1.511 . S
C405 C401 1.376 1_645 S
C405 C404 1.392 . S
C405 H417 0.929 . S
C406 C402 1.531 . S
C406 H418 0.960 . S
C406 H419 0.962 . S
C406 H420 0.960 . S
C407 C404 1.511 . S
C407 H421 0.961 . S
C407 H422 0.961 . S
C407 H423 0.961 . S
C408 C409 1.370 1_545 S
C408 C410 1.363 . S
C408 H424 0.931 . S
C409 C408 1.370 1_565 S
C409 C413 1.408 1_455 S
C410 C408 1.363 . S
C410 C411 1.370 1_545 S
C410 C414 1.524 . S
C411 C403 1.503 . S
C411 C410 1.370 1_565 S
C411 C412 1.403 1_455 S
C412 C411 1.403 1_655 S
C412 C413 1.404 . S
C412 C415 1.539 . S
C413 C409 1.408 1_655 S
C413 C412 1.404 . S
C413 H425 0.930 . S
C414 C410 1.524 . S
C414 H426 0.968 . S
C414 H427 0.961 . S
C414 H428 0.961 . S
C415 C412 1.539 . S
C415 H429 0.958 . S
C415 H430 0.961 . S
C415 H431 0.960 . S
H416 C400 0.931 . S
H417 C405 0.929 . S
H418 C406 0.960 . S
H419 C406 0.962 . S
H420 C406 0.960 . S
H421 C407 0.961 . S
H422 C407 0.961 . S
H423 C407 0.961 . S
H424 C408 0.931 . S
H425 C413 0.930 . S
H426 C414 0.968 . S
H427 C414 0.961 . S
H428 C414 0.961 . S
H429 C415 0.958 . S
H430 C415 0.961 . S
H431 C415 0.960 . S
C432 C433 1.391 . S
C432 C434 1.394 . S
C432 H448 0.931 . S
C433 C432 1.391 . S
C433 C437 1.376 . S
C434 C432 1.394 . S
C434 C435 1.369 . S
C434 C438 1.531 . S
C435 C434 1.369 . S
C435 C436 1.410 . S
C435 C443 1.503 . S
C436 C435 1.410 . S
C436 C437 1.392 . S
C436 C439 1.511 . S
C437 C433 1.376 . S
C437 C436 1.392 . S
C437 H449 0.929 . S
C438 C434 1.531 . S
C438 H450 0.960 . S
C438 H451 0.962 . S
C438 H452 0.960 . S
C439 C436 1.511 . S
C439 H453 0.961 . S
C439 H454 0.961 . S
C439 H455 0.961 . S
C440 C441 1.370 . S
C440 C442 1.363 . S
C440 H456 0.931 . S
C441 C440 1.370 . S
C441 C445 1.408 . S
C442 C440 1.363 . S
C442 C443 1.370 . S
C442 C446 1.524 . S
C443 C435 1.503 . S
C443 C442 1.370 . S
C443 C444 1.403 . S
C444 C443 1.403 . S
C444 C445 1.404 . S
C444 C447 1.539 . S
C445 C441 1.408 . S
C445 C444 1.404 . S
C445 H457 0.930 . S
C446 C442 1.524 . S
C446 H458 0.956 . S
C446 H459 0.961 . S
C446 H460 0.961 . S
C447 C444 1.539 . S
C447 H461 0.958 . S
C447 H462 0.961 . S
C447 H463 0.960 . S
H448 C432 0.931 . S
H449 C437 0.929 . S
H450 C438 0.960 . S
H451 C438 0.962 . S
H452 C438 0.960 . S
H453 C439 0.961 . S
H454 C439 0.961 . S
H455 C439 0.961 . S
H456 C440 0.931 . S
H457 C445 0.930 . S
H458 C446 0.956 . S
H459 C446 0.961 . S
H460 C446 0.961 . S
H461 C447 0.958 . S
H462 C447 0.961 . S
H463 C447 0.960 . S
C464 C465 1.391 . S
C464 C466 1.394 . S
C464 H480 0.931 . S
C465 C464 1.391 . S
C465 C469 1.376 . S
C466 C464 1.394 . S
C466 C467 1.369 . S
C466 C470 1.531 . S
C467 C466 1.369 . S
C467 C468 1.410 . S
C467 C475 1.503 . S
C468 C467 1.410 . S
C468 C469 1.392 . S
C468 C471 1.511 . S
C469 C465 1.376 . S
C469 C468 1.392 . S
C469 H481 0.929 . S
C470 C466 1.531 . S
C470 H482 0.960 . S
C470 H483 0.962 . S
C470 H484 0.960 . S
C471 C468 1.511 . S
C471 H485 0.961 . S
C471 H486 0.961 . S
C471 H487 0.961 . S
C472 C473 1.370 . S
C472 C474 1.363 . S
C472 H488 0.931 . S
C473 C472 1.370 . S
C473 C477 1.408 . S
C474 C472 1.363 . S
C474 C475 1.370 . S
C474 C478 1.524 . S
C475 C467 1.503 . S
C475 C474 1.370 . S
C475 C476 1.403 . S
C476 C475 1.403 . S
C476 C477 1.404 . S
C476 C479 1.539 . S
C477 C473 1.408 . S
C477 C476 1.404 . S
C477 H489 0.930 . S
C478 C474 1.524 . S
C478 H490 0.956 . S
C478 H491 0.961 . S
C478 H492 0.961 . S
C479 C476 1.539 . S
C479 H493 0.958 . S
C479 H494 0.961 . S
C479 H495 0.960 . S
H480 C464 0.931 . S
H481 C469 0.929 . S
H482 C470 0.960 . S
H483 C470 0.962 . S
H484 C470 0.960 . S
H485 C471 0.961 . S
H486 C471 0.961 . S
H487 C471 0.961 . S
H488 C472 0.931 . S
H489 C477 0.930 . S
H490 C478 0.956 . S
H491 C478 0.961 . S
H492 C478 0.961 . S
H493 C479 0.958 . S
H494 C479 0.961 . S
H495 C479 0.960 . S
C121 C106 1.256 . S
C113 C29 1.480 . S
C145 C8 1.488 . S
C153 C95 1.286 . S
C177 C0 1.444 1_556 S
C185 C109 1.419 . S
C209 C17 1.435 . S
C217 C98 1.412 1_554 S
C241 C63 1.480 . S
C249 C84 1.258 . S
C273 C42 1.490 . S
C281 C73 1.268 . S
C313 C87 1.403 . S
C305 C34 1.438 . S
C345 C76 1.410 . S
C337 C51 1.438 . S
C369 C4 1.504 . S
C377 C75 1.444 . S
C401 C13 1.492 1_565 S
C409 C86 1.465 . S
C441 C97 1.462 . S
C433 C38 1.505 . S
C465 C47 1.501 . S
C473 C108 1.441 . S
