# Generated by pormake.
# Topology iac, (4,6)-cn, num edge types: 1
# Building blocks:
#     Node 0, Type 0, BuildingBlock: UXUYUI_clean_sbu_0, # of connection points: 4
#     Node 1, Type 0, BuildingBlock: UXUYUI_clean_sbu_0, # of connection points: 4
#     Node 2, Type 0, BuildingBlock: UXUYUI_clean_sbu_0, # of connection points: 4
#     Node 3, Type 0, BuildingBlock: UXUYUI_clean_sbu_0, # of connection points: 4
#     Node 4, Type 0, BuildingBlock: UXUYUI_clean_sbu_0, # of connection points: 4
#     Node 5, Type 0, BuildingBlock: UXUYUI_clean_sbu_0, # of connection points: 4
#     Node 6, Type 0, BuildingBlock: UXUYUI_clean_sbu_0, # of connection points: 4
#     Node 7, Type 0, BuildingBlock: UXUYUI_clean_sbu_0, # of connection points: 4
#     Node 8, Type 0, BuildingBlock: UXUYUI_clean_sbu_0, # of connection points: 4
#     Node 9, Type 0, BuildingBlock: UXUYUI_clean_sbu_0, # of connection points: 4
#     Node 10, Type 0, BuildingBlock: UXUYUI_clean_sbu_0, # of connection points: 4
#     Node 11, Type 0, BuildingBlock: UXUYUI_clean_sbu_0, # of connection points: 4
#     Node 12, Type 0, BuildingBlock: UXUYUI_clean_sbu_0, # of connection points: 4
#     Node 13, Type 0, BuildingBlock: UXUYUI_clean_sbu_0, # of connection points: 4
#     Node 14, Type 0, BuildingBlock: UXUYUI_clean_sbu_0, # of connection points: 4
#     Node 15, Type 0, BuildingBlock: UXUYUI_clean_sbu_0, # of connection points: 4
#     Node 16, Type 0, BuildingBlock: UXUYUI_clean_sbu_0, # of connection points: 4
#     Node 17, Type 0, BuildingBlock: UXUYUI_clean_sbu_0, # of connection points: 4
#     Node 18, Type 0, BuildingBlock: UXUYUI_clean_sbu_0, # of connection points: 4
#     Node 19, Type 0, BuildingBlock: UXUYUI_clean_sbu_0, # of connection points: 4
#     Node 20, Type 0, BuildingBlock: UXUYUI_clean_sbu_0, # of connection points: 4
#     Node 21, Type 0, BuildingBlock: UXUYUI_clean_sbu_0, # of connection points: 4
#     Node 22, Type 0, BuildingBlock: UXUYUI_clean_sbu_0, # of connection points: 4
#     Node 23, Type 0, BuildingBlock: UXUYUI_clean_sbu_0, # of connection points: 4
#     Node 24, Type 1, BuildingBlock: CIFDUS_clean_sbu_1, # of connection points: 6
#     Node 25, Type 1, BuildingBlock: CIFDUS_clean_sbu_1, # of connection points: 6
#     Node 26, Type 1, BuildingBlock: CIFDUS_clean_sbu_1, # of connection points: 6
#     Node 27, Type 1, BuildingBlock: CIFDUS_clean_sbu_1, # of connection points: 6
#     Node 28, Type 1, BuildingBlock: CIFDUS_clean_sbu_1, # of connection points: 6
#     Node 29, Type 1, BuildingBlock: CIFDUS_clean_sbu_1, # of connection points: 6
#     Node 30, Type 1, BuildingBlock: CIFDUS_clean_sbu_1, # of connection points: 6
#     Node 31, Type 1, BuildingBlock: CIFDUS_clean_sbu_1, # of connection points: 6
#     Node 32, Type 1, BuildingBlock: CIFDUS_clean_sbu_1, # of connection points: 6
#     Node 33, Type 1, BuildingBlock: CIFDUS_clean_sbu_1, # of connection points: 6
#     Node 34, Type 1, BuildingBlock: CIFDUS_clean_sbu_1, # of connection points: 6
#     Node 35, Type 1, BuildingBlock: CIFDUS_clean_sbu_1, # of connection points: 6
#     Node 36, Type 1, BuildingBlock: CIFDUS_clean_sbu_1, # of connection points: 6
#     Node 37, Type 1, BuildingBlock: CIFDUS_clean_sbu_1, # of connection points: 6
#     Node 38, Type 1, BuildingBlock: CIFDUS_clean_sbu_1, # of connection points: 6
#     Node 39, Type 1, BuildingBlock: CIFDUS_clean_sbu_1, # of connection points: 6
#     Edge 40, Type (0, 1), BuildingBlock: XIVTED_clean_linker_0, # of connection points: 2
#     Edge 41, Type (0, 1), BuildingBlock: XIVTED_clean_linker_0, # of connection points: 2
#     Edge 42, Type (0, 1), BuildingBlock: XIVTED_clean_linker_0, # of connection points: 2
#     Edge 43, Type (0, 1), BuildingBlock: XIVTED_clean_linker_0, # of connection points: 2
#     Edge 44, Type (0, 1), BuildingBlock: XIVTED_clean_linker_0, # of connection points: 2
#     Edge 45, Type (0, 1), BuildingBlock: XIVTED_clean_linker_0, # of connection points: 2
#     Edge 46, Type (0, 1), BuildingBlock: XIVTED_clean_linker_0, # of connection points: 2
#     Edge 47, Type (0, 1), BuildingBlock: XIVTED_clean_linker_0, # of connection points: 2
#     Edge 48, Type (0, 1), BuildingBlock: XIVTED_clean_linker_0, # of connection points: 2
#     Edge 49, Type (0, 1), BuildingBlock: XIVTED_clean_linker_0, # of connection points: 2
#     Edge 50, Type (0, 1), BuildingBlock: XIVTED_clean_linker_0, # of connection points: 2
#     Edge 51, Type (0, 1), BuildingBlock: XIVTED_clean_linker_0, # of connection points: 2
#     Edge 52, Type (0, 1), BuildingBlock: XIVTED_clean_linker_0, # of connection points: 2
#     Edge 53, Type (0, 1), BuildingBlock: XIVTED_clean_linker_0, # of connection points: 2
#     Edge 54, Type (0, 1), BuildingBlock: XIVTED_clean_linker_0, # of connection points: 2
#     Edge 55, Type (0, 1), BuildingBlock: XIVTED_clean_linker_0, # of connection points: 2
#     Edge 56, Type (0, 1), BuildingBlock: XIVTED_clean_linker_0, # of connection points: 2
#     Edge 57, Type (0, 1), BuildingBlock: XIVTED_clean_linker_0, # of connection points: 2
#     Edge 58, Type (0, 1), BuildingBlock: XIVTED_clean_linker_0, # of connection points: 2
#     Edge 59, Type (0, 1), BuildingBlock: XIVTED_clean_linker_0, # of connection points: 2
#     Edge 60, Type (0, 1), BuildingBlock: XIVTED_clean_linker_0, # of connection points: 2
#     Edge 61, Type (0, 1), BuildingBlock: XIVTED_clean_linker_0, # of connection points: 2
#     Edge 62, Type (0, 1), BuildingBlock: XIVTED_clean_linker_0, # of connection points: 2
#     Edge 63, Type (0, 1), BuildingBlock: XIVTED_clean_linker_0, # of connection points: 2
#     Edge 64, Type (0, 1), BuildingBlock: XIVTED_clean_linker_0, # of connection points: 2
#     Edge 65, Type (0, 1), BuildingBlock: XIVTED_clean_linker_0, # of connection points: 2
#     Edge 66, Type (0, 1), BuildingBlock: XIVTED_clean_linker_0, # of connection points: 2
#     Edge 67, Type (0, 1), BuildingBlock: XIVTED_clean_linker_0, # of connection points: 2
#     Edge 68, Type (0, 1), BuildingBlock: XIVTED_clean_linker_0, # of connection points: 2
#     Edge 69, Type (0, 1), BuildingBlock: XIVTED_clean_linker_0, # of connection points: 2
#     Edge 70, Type (0, 1), BuildingBlock: XIVTED_clean_linker_0, # of connection points: 2
#     Edge 71, Type (0, 1), BuildingBlock: XIVTED_clean_linker_0, # of connection points: 2
#     Edge 72, Type (0, 1), BuildingBlock: XIVTED_clean_linker_0, # of connection points: 2
#     Edge 73, Type (0, 1), BuildingBlock: XIVTED_clean_linker_0, # of connection points: 2
#     Edge 74, Type (0, 1), BuildingBlock: XIVTED_clean_linker_0, # of connection points: 2
#     Edge 75, Type (0, 1), BuildingBlock: XIVTED_clean_linker_0, # of connection points: 2
#     Edge 76, Type (0, 1), BuildingBlock: XIVTED_clean_linker_0, # of connection points: 2
#     Edge 77, Type (0, 1), BuildingBlock: XIVTED_clean_linker_0, # of connection points: 2
#     Edge 78, Type (0, 1), BuildingBlock: XIVTED_clean_linker_0, # of connection points: 2
#     Edge 79, Type (0, 1), BuildingBlock: XIVTED_clean_linker_0, # of connection points: 2
#     Edge 80, Type (0, 1), BuildingBlock: XIVTED_clean_linker_0, # of connection points: 2
#     Edge 81, Type (0, 1), BuildingBlock: XIVTED_clean_linker_0, # of connection points: 2
#     Edge 82, Type (0, 1), BuildingBlock: XIVTED_clean_linker_0, # of connection points: 2
#     Edge 83, Type (0, 1), BuildingBlock: XIVTED_clean_linker_0, # of connection points: 2
#     Edge 84, Type (0, 1), BuildingBlock: XIVTED_clean_linker_0, # of connection points: 2
#     Edge 85, Type (0, 1), BuildingBlock: XIVTED_clean_linker_0, # of connection points: 2
#     Edge 86, Type (0, 1), BuildingBlock: XIVTED_clean_linker_0, # of connection points: 2
#     Edge 87, Type (0, 1), BuildingBlock: XIVTED_clean_linker_0, # of connection points: 2
#     Edge 88, Type (0, 1), BuildingBlock: XIVTED_clean_linker_0, # of connection points: 2
#     Edge 89, Type (0, 1), BuildingBlock: XIVTED_clean_linker_0, # of connection points: 2
#     Edge 90, Type (0, 1), BuildingBlock: XIVTED_clean_linker_0, # of connection points: 2
#     Edge 91, Type (0, 1), BuildingBlock: XIVTED_clean_linker_0, # of connection points: 2
#     Edge 92, Type (0, 1), BuildingBlock: XIVTED_clean_linker_0, # of connection points: 2
#     Edge 93, Type (0, 1), BuildingBlock: XIVTED_clean_linker_0, # of connection points: 2
#     Edge 94, Type (0, 1), BuildingBlock: XIVTED_clean_linker_0, # of connection points: 2
#     Edge 95, Type (0, 1), BuildingBlock: XIVTED_clean_linker_0, # of connection points: 2
#     Edge 96, Type (0, 1), BuildingBlock: XIVTED_clean_linker_0, # of connection points: 2
#     Edge 97, Type (0, 1), BuildingBlock: XIVTED_clean_linker_0, # of connection points: 2
#     Edge 98, Type (0, 1), BuildingBlock: XIVTED_clean_linker_0, # of connection points: 2
#     Edge 99, Type (0, 1), BuildingBlock: XIVTED_clean_linker_0, # of connection points: 2
#     Edge 100, Type (0, 1), BuildingBlock: XIVTED_clean_linker_0, # of connection points: 2
#     Edge 101, Type (0, 1), BuildingBlock: XIVTED_clean_linker_0, # of connection points: 2
#     Edge 102, Type (0, 1), BuildingBlock: XIVTED_clean_linker_0, # of connection points: 2
#     Edge 103, Type (0, 1), BuildingBlock: XIVTED_clean_linker_0, # of connection points: 2
#     Edge 104, Type (0, 1), BuildingBlock: XIVTED_clean_linker_0, # of connection points: 2
#     Edge 105, Type (0, 1), BuildingBlock: XIVTED_clean_linker_0, # of connection points: 2
#     Edge 106, Type (0, 1), BuildingBlock: XIVTED_clean_linker_0, # of connection points: 2
#     Edge 107, Type (0, 1), BuildingBlock: XIVTED_clean_linker_0, # of connection points: 2
#     Edge 108, Type (0, 1), BuildingBlock: XIVTED_clean_linker_0, # of connection points: 2
#     Edge 109, Type (0, 1), BuildingBlock: XIVTED_clean_linker_0, # of connection points: 2
#     Edge 110, Type (0, 1), BuildingBlock: XIVTED_clean_linker_0, # of connection points: 2
#     Edge 111, Type (0, 1), BuildingBlock: XIVTED_clean_linker_0, # of connection points: 2
#     Edge 112, Type (0, 1), BuildingBlock: XIVTED_clean_linker_0, # of connection points: 2
#     Edge 113, Type (0, 1), BuildingBlock: XIVTED_clean_linker_0, # of connection points: 2
#     Edge 114, Type (0, 1), BuildingBlock: XIVTED_clean_linker_0, # of connection points: 2
#     Edge 115, Type (0, 1), BuildingBlock: XIVTED_clean_linker_0, # of connection points: 2
#     Edge 116, Type (0, 1), BuildingBlock: XIVTED_clean_linker_0, # of connection points: 2
#     Edge 117, Type (0, 1), BuildingBlock: XIVTED_clean_linker_0, # of connection points: 2
#     Edge 118, Type (0, 1), BuildingBlock: XIVTED_clean_linker_0, # of connection points: 2
#     Edge 119, Type (0, 1), BuildingBlock: XIVTED_clean_linker_0, # of connection points: 2
#     Edge 120, Type (0, 1), BuildingBlock: XIVTED_clean_linker_0, # of connection points: 2
#     Edge 121, Type (0, 1), BuildingBlock: XIVTED_clean_linker_0, # of connection points: 2
#     Edge 122, Type (0, 1), BuildingBlock: XIVTED_clean_linker_0, # of connection points: 2
#     Edge 123, Type (0, 1), BuildingBlock: XIVTED_clean_linker_0, # of connection points: 2
#     Edge 124, Type (0, 1), BuildingBlock: XIVTED_clean_linker_0, # of connection points: 2
#     Edge 125, Type (0, 1), BuildingBlock: XIVTED_clean_linker_0, # of connection points: 2
#     Edge 126, Type (0, 1), BuildingBlock: XIVTED_clean_linker_0, # of connection points: 2
#     Edge 127, Type (0, 1), BuildingBlock: XIVTED_clean_linker_0, # of connection points: 2
#     Edge 128, Type (0, 1), BuildingBlock: XIVTED_clean_linker_0, # of connection points: 2
#     Edge 129, Type (0, 1), BuildingBlock: XIVTED_clean_linker_0, # of connection points: 2
#     Edge 130, Type (0, 1), BuildingBlock: XIVTED_clean_linker_0, # of connection points: 2
#     Edge 131, Type (0, 1), BuildingBlock: XIVTED_clean_linker_0, # of connection points: 2
#     Edge 132, Type (0, 1), BuildingBlock: XIVTED_clean_linker_0, # of connection points: 2
#     Edge 133, Type (0, 1), BuildingBlock: XIVTED_clean_linker_0, # of connection points: 2
#     Edge 134, Type (0, 1), BuildingBlock: XIVTED_clean_linker_0, # of connection points: 2
#     Edge 135, Type (0, 1), BuildingBlock: XIVTED_clean_linker_0, # of connection points: 2
# Relax obj value: 0.128
# Max RMSD: 0.165
# Mean RMSD: 0.153
data_MOF--net-iac--node1-UXUYUI_clean_sbu_0--node2-CIFDUS_clean_sbu_1--edge1-XIVTED_clean_linker_0
_symmetry_space_group_name_H-M    P1
_symmetry_Int_Tables_number       1
_symmetry_cell_setting            triclinic
loop_
_symmetry_equiv_pos_as_xyz
'x, y, z'
_cell_length_a     67.043306
_cell_length_b     66.841515
_cell_length_c     67.066284
_cell_angle_alpha  89.965426
_cell_angle_beta   89.887726
_cell_angle_gamma 89.926847
loop_
_atom_site_label
_atom_site_type_symbol
_atom_site_fract_x
_atom_site_fract_y
_atom_site_fract_z
_atom_type_partial_charge
Li0 Li -0.00261 0.27162 0.10645 0.0
Li1 Li 0.01587 0.25321 0.13375 0.0
Li2 Li -0.00158 0.23458 0.10598 0.0
Li3 Li 0.97861 0.25228 0.13303 0.0
C4 C 0.03543 0.25558 0.09018 0.0
N5 N 0.06472 0.25834 0.0613 0.0
C6 C 0.05496 0.26049 0.0955 0.0
C7 C 0.03078 0.25201 0.07019 0.0
C8 C 0.06956 0.26183 0.08068 0.0
C9 C 0.04581 0.25352 0.0558 0.0
C10 C -0.00125 0.2899 0.15005 0.0
C11 C -0.0035 0.30045 0.18434 0.0
N12 N 0.00297 0.31897 0.17895 0.0
C13 C 0.00534 0.30903 0.14483 0.0
C14 C 0.99424 0.28554 0.16993 0.0
C15 C 0.00739 0.32353 0.15967 0.0
C16 C 0.97777 0.30593 0.09467 0.0
N17 N 0.99495 0.29559 0.09143 0.0
C18 C 0.0064 0.32065 0.06874 0.0
C19 C 0.00921 0.30252 0.07877 0.0
C20 C 0.98892 0.3318 0.07207 0.0
C21 C 0.97448 0.32424 0.0852 0.0
H22 H 0.96672 0.30001 0.10486 0.0
H23 H 0.02285 0.29417 0.07663 0.0
C24 C 0.04654 0.23411 0.15529 0.0
N25 N 0.03874 0.25236 0.15085 0.0
C26 C 0.06314 0.23245 0.16778 0.0
C27 C 0.06368 0.26846 0.17061 0.0
C28 C 0.04702 0.26941 0.15811 0.0
C29 C 0.07199 0.24978 0.1757 0.0
H30 H 0.03982 0.22077 0.14913 0.0
H31 H 0.04083 0.28378 0.15407 0.0
C32 C 0.96115 0.25079 0.08876 0.0
N33 N 0.93308 0.24787 0.05882 0.0
C34 C 0.94163 0.24499 0.09326 0.0
C35 C 0.9664 0.25517 0.06908 0.0
C36 C 0.92765 0.24359 0.0779 0.0
C37 C 0.952 0.25357 0.05413 0.0
C38 C -0.00395 0.2154 0.14968 0.0
C39 C 0.99206 0.19558 0.1444 0.0
C40 C -0.00139 0.22044 0.16972 0.0
C41 C 0.99068 0.18107 0.15934 0.0
C42 C -0.00288 0.20549 0.18422 0.0
N43 N 0.99323 0.18629 0.17877 0.0
C44 C 0.01944 0.20405 0.08644 0.0
C45 C 0.98431 0.20055 0.08446 0.0
C46 C 0.02225 0.18563 0.07703 0.0
N47 N 0.00071 0.21102 0.09013 0.0
C48 C 0.98644 0.18188 0.07528 0.0
C49 C 0.00563 0.17407 0.07182 0.0
H50 H 0.03222 0.21245 0.09152 0.0
H51 H 0.96959 0.20631 0.08779 0.0
C52 C 0.94555 0.27196 0.1484 0.0
N53 N 0.95489 0.25389 0.1487 0.0
C54 C 0.9281 0.27504 0.1594 0.0
C55 C 0.93021 0.24085 0.17095 0.0
C56 C 0.94757 0.23838 0.15959 0.0
C57 C 0.92022 0.25939 0.17093 0.0
H58 H 0.95174 0.28403 0.1396 0.0
H59 H 0.95512 0.22409 0.15942 0.0
O60 O 0.02114 0.2537 0.10462 0.0
O61 O -0.00361 0.27565 0.13566 0.0
O62 O 0.97484 0.25263 0.10372 0.0
O63 O -0.00214 0.22966 0.13519 0.0
H64 H 0.05879 0.26314 0.11095 0.0
H65 H 0.01578 0.24799 0.06587 0.0
H66 H 0.08475 0.26559 0.08458 0.0
H67 H 0.04245 0.25078 0.04027 0.0
H68 H 0.99308 0.29731 0.19979 0.0
H69 H 0.00883 0.31263 0.12948 0.0
H70 H 0.98898 0.27084 0.17415 0.0
H71 H 0.01247 0.3384 0.15586 0.0
H72 H 0.01798 0.32616 0.05888 0.0
H73 H 0.96079 0.33238 0.08805 0.0
H74 H 0.06884 0.21771 0.17132 0.0
H75 H 0.0702 0.28228 0.1759 0.0
H76 H 0.93732 0.24169 0.10847 0.0
H77 H 0.98139 0.2599 0.0654 0.0
H78 H 0.91248 0.23915 0.08116 0.0
H79 H 0.95583 0.25692 0.03881 0.0
H80 H 0.99014 0.19144 0.12892 0.0
H81 H 0.00183 0.2357 0.174 0.0
H82 H 0.98764 0.16566 0.15548 0.0
H83 H -0.00089 0.20915 0.19979 0.0
H84 H 0.03726 0.18001 0.07482 0.0
H85 H 0.97326 0.17339 0.0714 0.0
H86 H 0.92097 0.28959 0.15906 0.0
H87 H 0.92447 0.22828 0.17938 0.0
Li88 Li 0.98431 0.74655 0.35838 0.0
Li89 Li 0.0012 0.76661 0.38479 0.0
Li90 Li 0.02068 0.74807 0.35869 0.0
Li91 Li 0.00228 0.73029 0.38629 0.0
C92 C 0.00404 0.78585 0.34266 0.0
N93 N 0.00883 0.81745 0.31653 0.0
C94 C -0.00055 0.80533 0.3487 0.0
C95 C 0.011 0.78241 0.3233 0.0
C96 C 0.00195 0.8211 0.33527 0.0
C97 C 0.01338 0.79861 0.31033 0.0
C98 C 0.96482 0.74796 0.40226 0.0
C99 C 0.95629 0.74576 0.43715 0.0
N100 N 0.93677 0.74874 0.4325 0.0
C101 C 0.94468 0.75108 0.39785 0.0
C102 C 0.9707 0.74535 0.42207 0.0
C103 C 0.93072 0.75139 0.41334 0.0
C104 C 0.94728 0.73198 0.34716 0.0
N105 N 0.96155 0.74555 0.3424 0.0
C106 C 0.94012 0.76141 0.31894 0.0
C107 C 0.9586 0.7597 0.32819 0.0
C108 C 0.92453 0.74858 0.32463 0.0
C109 C 0.92848 0.73326 0.33845 0.0
H110 H 0.95016 0.72097 0.35864 0.0
H111 H 0.97026 0.77023 0.32465 0.0
C112 C 0.01728 0.80037 0.40321 0.0
N113 N 0.00021 0.78991 0.40009 0.0
C114 C 0.01677 0.81804 0.41425 0.0
C115 C 0.98121 0.8135 0.41875 0.0
C116 C 0.98236 0.79616 0.40739 0.0
C117 C -0.00147 0.82467 0.42216 0.0
H118 H 0.0312 0.79506 0.39698 0.0
H119 H 0.96895 0.7879 0.40414 0.0
C120 C -0.00142 0.70872 0.34482 0.0
N121 N 0.9908 0.67772 0.31877 0.0
C122 C -0.00101 0.68892 0.35155 0.0
C123 C 0.99417 0.71277 0.32486 0.0
C124 C 0.99507 0.67345 0.33813 0.0
C125 C 0.99022 0.69688 0.31193 0.0
C126 C 0.039 0.75004 0.40259 0.0
C127 C 0.05896 0.74596 0.39805 0.0
C128 C 0.03353 0.75444 0.42222 0.0
C129 C 0.07314 0.74629 0.41328 0.0
C130 C 0.04816 0.75463 0.43704 0.0
N131 N 0.06749 0.75057 0.4323 0.0
C132 C 0.05657 0.76349 0.34254 0.0
C133 C 0.04536 0.7326 0.32932 0.0
C134 C 0.07305 0.76332 0.32974 0.0
N135 N 0.04326 0.74818 0.3421 0.0
C136 C 0.06135 0.73194 0.31616 0.0
C137 C 0.07562 0.74729 0.31639 0.0
H138 H 0.05441 0.77571 0.35289 0.0
H139 H 0.03463 0.72062 0.32933 0.0
C140 C 0.98508 0.69898 0.40847 0.0
N141 N 0.00237 0.70855 0.40381 0.0
C142 C 0.98534 0.6826 0.42138 0.0
C143 C 0.02109 0.68661 0.42448 0.0
C144 C 0.02015 0.70271 0.41145 0.0
C145 C 0.00361 0.67612 0.42931 0.0
H146 H 0.97119 0.70389 0.40191 0.0
H147 H 0.03367 0.71031 0.40717 0.0
O148 O 0.00153 0.77026 0.35564 0.0
O149 O 0.97861 0.74754 0.3872 0.0
O150 O 0.00356 0.72389 0.35754 0.0
O151 O 0.02499 0.74963 0.3878 0.0
H152 H 0.99385 0.80824 0.36356 0.0
H153 H 0.01443 0.76739 0.31832 0.0
H154 H -0.0016 0.83625 0.33973 0.0
H155 H 0.01878 0.79619 0.29532 0.0
H156 H 0.96062 0.74369 0.45254 0.0
H157 H 0.93987 0.7534 0.38264 0.0
H158 H 0.98619 0.74288 0.42576 0.0
H159 H 0.91509 0.75378 0.41012 0.0
H160 H 0.93789 0.77309 0.30797 0.0
H161 H 0.9169 0.72311 0.34337 0.0
H162 H 0.0304 0.82637 0.41664 0.0
H163 H 0.96686 0.81843 0.42436 0.0
H164 H 0.00266 0.68553 0.36689 0.0
H165 H 0.99406 0.72801 0.31938 0.0
H166 H 0.99552 0.65805 0.34308 0.0
H167 H 0.98684 0.69977 0.29643 0.0
H168 H 0.06341 0.74248 0.38292 0.0
H169 H 0.0182 0.75778 0.42597 0.0
H170 H 0.08862 0.74313 0.40999 0.0
H171 H 0.04416 0.75801 0.4523 0.0
H172 H 0.08381 0.77535 0.33059 0.0
H173 H 0.0625 0.71947 0.30592 0.0
H174 H 0.9716 0.6747 0.42454 0.0
H175 H 0.03544 0.68217 0.43041 0.0
Li176 Li 0.5167 0.75382 0.6326 0.0
Li177 Li 0.4986 0.77121 0.60467 0.0
Li178 Li 0.47973 0.75271 0.63173 0.0
Li179 Li 0.49954 0.73417 0.60522 0.0
C180 C 0.49892 0.79035 0.64848 0.0
N181 N 0.50166 0.81889 0.67809 0.0
C182 C 0.5042 0.80999 0.6437 0.0
C183 C 0.49494 0.78521 0.66829 0.0
C184 C 0.50552 0.82421 0.65889 0.0
C185 C 0.49645 0.79986 0.68306 0.0
C186 C 0.53652 0.75548 0.58911 0.0
C187 C 0.54683 0.75416 0.55469 0.0
N188 N 0.56576 0.75888 0.56025 0.0
C189 C 0.55605 0.76033 0.5945 0.0
C190 C 0.53183 0.75236 0.56907 0.0
C191 C 0.57062 0.76199 0.57968 0.0
C192 C 0.54796 0.73502 0.65206 0.0
N193 N 0.53943 0.75329 0.64957 0.0
C194 C 0.56457 0.7685 0.66978 0.0
C195 C 0.54726 0.76992 0.65821 0.0
C196 C 0.57393 0.74983 0.67228 0.0
C197 C 0.5652 0.73291 0.66347 0.0
H198 H 0.5415 0.72208 0.64489 0.0
H199 H 0.54038 0.78434 0.65578 0.0
C200 C 0.47872 0.80192 0.58447 0.0
N201 N 0.49717 0.79476 0.58896 0.0
C202 C 0.47656 0.82063 0.57544 0.0
C203 C 0.51246 0.82411 0.57561 0.0
C204 C 0.51394 0.80523 0.58445 0.0
C205 C 0.49355 0.83217 0.57139 0.0
H206 H 0.46563 0.79345 0.58864 0.0
H207 H 0.5284 0.7993 0.58847 0.0
C208 C 0.49777 0.71582 0.64897 0.0
N209 N 0.49644 0.68639 0.67785 0.0
C210 C 0.49365 0.69604 0.64368 0.0
C211 C 0.50122 0.72067 0.66893 0.0
C212 C 0.49302 0.68137 0.65851 0.0
C213 C 0.50049 0.70555 0.68332 0.0
C214 C 0.46193 0.74934 0.58794 0.0
C215 C 0.44254 0.74389 0.59335 0.0
C216 C 0.4666 0.7525 0.56787 0.0
C217 C 0.42809 0.74169 0.57854 0.0
C218 C 0.45173 0.75013 0.5535 0.0
N219 N 0.43294 0.74484 0.55909 0.0
C220 C 0.44617 0.77178 0.64736 0.0
C221 C 0.44874 0.73778 0.65715 0.0
C222 C 0.42804 0.77376 0.6575 0.0
N223 N 0.45599 0.75396 0.64723 0.0
C224 C 0.43061 0.73908 0.6674 0.0
C225 C 0.41989 0.75718 0.66741 0.0
H226 H 0.45227 0.78435 0.63923 0.0
H227 H 0.45679 0.72377 0.65677 0.0
C228 C 0.52002 0.70294 0.58541 0.0
N229 N 0.50156 0.71008 0.59006 0.0
C230 C 0.52221 0.68412 0.57654 0.0
C231 C 0.48636 0.68042 0.57731 0.0
C232 C 0.48484 0.69942 0.58588 0.0
C233 C 0.50525 0.67242 0.57288 0.0
H234 H 0.5331 0.71154 0.58925 0.0
H235 H 0.47037 0.70532 0.58995 0.0
O236 O 0.49734 0.77634 0.63374 0.0
O237 O 0.52228 0.75316 0.60354 0.0
O238 O 0.49888 0.73024 0.63454 0.0
O239 O 0.47602 0.75223 0.60235 0.0
H240 H 0.50723 0.81421 0.62841 0.0
H241 H 0.49067 0.7701 0.67218 0.0
H242 H 0.5096 0.83948 0.65542 0.0
H243 H 0.49343 0.79611 0.69846 0.0
H244 H 0.54346 0.75172 0.53911 0.0
H245 H 0.55991 0.76266 0.61 0.0
H246 H 0.51683 0.74838 0.5647 0.0
H247 H 0.58582 0.76567 0.58364 0.0
H248 H 0.57095 0.78197 0.67606 0.0
H249 H 0.57177 0.7182 0.66516 0.0
H250 H 0.46174 0.82642 0.57259 0.0
H251 H 0.52592 0.83252 0.57255 0.0
H252 H 0.49103 0.69203 0.62829 0.0
H253 H 0.50458 0.73589 0.67323 0.0
H254 H 0.48987 0.66599 0.65463 0.0
H255 H 0.5032 0.70905 0.69882 0.0
H256 H 0.43867 0.74152 0.60885 0.0
H257 H 0.48148 0.75695 0.56348 0.0
H258 H 0.41301 0.73754 0.58252 0.0
H259 H 0.45509 0.75259 0.53791 0.0
H260 H 0.42015 0.7879 0.65698 0.0
H261 H 0.42491 0.72599 0.67504 0.0
H262 H 0.53702 0.67837 0.57348 0.0
H263 H 0.47294 0.67185 0.57459 0.0
Li264 Li 0.48293 0.24694 0.85761 0.0
Li265 Li 0.50085 0.26597 0.88374 0.0
Li266 Li 0.51879 0.24766 0.85703 0.0
Li267 Li 0.50135 0.22953 0.88499 0.0
C268 C 0.50199 0.28547 0.84118 0.0
N269 N 0.50508 0.3162 0.81378 0.0
C270 C 0.49981 0.30534 0.8473 0.0
C271 C 0.50563 0.2812 0.8211 0.0
C272 C 0.50142 0.32067 0.83323 0.0
C273 C 0.50721 0.29697 0.80749 0.0
C274 C 0.46445 0.24741 0.90173 0.0
C275 C 0.45624 0.24428 0.93659 0.0
N276 N 0.43665 0.2472 0.93216 0.0
C277 C 0.44426 0.25035 0.8975 0.0
C278 C 0.47054 0.24437 0.9214 0.0
C279 C 0.43043 0.25022 0.9131 0.0
C280 C 0.44865 0.22973 0.84406 0.0
N281 N 0.46015 0.2463 0.84241 0.0
C282 C 0.43539 0.26315 0.82345 0.0
C283 C 0.45422 0.26269 0.83203 0.0
C284 C 0.42263 0.24672 0.82599 0.0
C285 C 0.42966 0.22958 0.83587 0.0
H286 H 0.45388 0.21709 0.85269 0.0
H287 H 0.46365 0.27573 0.83123 0.0
C288 C 0.51796 0.29953 0.90025 0.0
N289 N 0.50053 0.2894 0.89847 0.0
C290 C 0.51815 0.31835 0.90902 0.0
C291 C 0.48243 0.31583 0.91397 0.0
C292 C 0.48295 0.29701 0.90512 0.0
C293 C 0.50017 0.32678 0.91577 0.0
H294 H 0.53156 0.29326 0.8942 0.0
H295 H 0.46927 0.28878 0.90297 0.0
C296 C 0.49947 0.20939 0.84177 0.0
N297 N 0.49729 0.1801 0.81284 0.0
C298 C 0.50224 0.1893 0.84687 0.0
C299 C 0.49557 0.21462 0.82198 0.0
C300 C 0.50112 0.17471 0.83202 0.0
C301 C 0.49448 0.19956 0.80757 0.0
C302 C 0.53931 0.2508 0.89952 0.0
C303 C 0.55916 0.24837 0.89359 0.0
C304 C 0.53489 0.25536 0.91939 0.0
C305 C 0.57431 0.25045 0.90771 0.0
C306 C 0.55048 0.25733 0.93304 0.0
N307 N 0.5697 0.25484 0.92697 0.0
C308 C 0.55081 0.26512 0.83644 0.0
C309 C 0.54639 0.23017 0.83192 0.0
C310 C 0.56795 0.26482 0.82464 0.0
N311 N 0.54069 0.24787 0.84001 0.0
C312 C 0.56328 0.22919 0.82002 0.0
C313 C 0.57455 0.24654 0.8168 0.0
H314 H 0.54593 0.27893 0.84332 0.0
H315 H 0.5383 0.21666 0.83533 0.0
C316 C 0.48496 0.19542 0.90323 0.0
N317 N 0.50115 0.20761 0.90248 0.0
C318 C 0.48449 0.17942 0.91664 0.0
C319 C 0.51704 0.18938 0.92849 0.0
C320 C 0.51705 0.20483 0.91465 0.0
C321 C 0.50077 0.17621 0.92946 0.0
H322 H 0.47251 0.19809 0.89334 0.0
H323 H 0.52979 0.21455 0.91364 0.0
O324 O 0.50032 0.27032 0.85481 0.0
O325 O 0.47811 0.24743 0.88657 0.0
O326 O 0.50111 0.22381 0.85612 0.0
O327 O 0.52433 0.2483 0.88593 0.0
H328 H 0.49674 0.30894 0.86271 0.0
H329 H 0.50727 0.2659 0.81611 0.0
H330 H 0.49973 0.33611 0.83777 0.0
H331 H 0.5101 0.29391 0.79192 0.0
H332 H 0.46071 0.2419 0.9519 0.0
H333 H 0.43933 0.25277 0.88232 0.0
H334 H 0.48611 0.24201 0.9249 0.0
H335 H 0.41475 0.25251 0.91006 0.0
H336 H 0.43058 0.2765 0.81564 0.0
H337 H 0.42018 0.2167 0.83832 0.0
H338 H 0.53208 0.32648 0.90989 0.0
H339 H 0.46833 0.3218 0.91919 0.0
H340 H 0.50542 0.18507 0.86212 0.0
H341 H 0.49348 0.23012 0.8178 0.0
H342 H 0.50334 0.15912 0.83573 0.0
H343 H 0.49147 0.20335 0.79219 0.0
H344 H 0.56281 0.24476 0.87828 0.0
H345 H 0.5196 0.25725 0.92421 0.0
H346 H 0.58974 0.24853 0.90335 0.0
H347 H 0.5473 0.2608 0.94848 0.0
H348 H 0.57656 0.27839 0.82267 0.0
H349 H 0.56809 0.21484 0.81424 0.0
H350 H 0.47175 0.16948 0.91664 0.0
H351 H 0.52977 0.18778 0.93828 0.0
Li352 Li 0.1184 -0.00099 0.27107 0.0
Li353 Li 0.14462 0.01711 0.25062 0.0
Li354 Li 0.11686 -0.00223 0.23391 0.0
Li355 Li 0.145 0.98018 0.25208 0.0
C356 C 0.10093 0.03588 0.25211 0.0
N357 N 0.07212 0.06543 0.25197 0.0
C358 C 0.10624 0.05579 0.25552 0.0
C359 C 0.081 0.03095 0.24864 0.0
C360 C 0.09145 0.07052 0.25541 0.0
C361 C 0.06664 0.04613 0.24861 0.0
C362 C 0.16215 0.00011 0.28861 0.0
C363 C 0.19637 -0.00378 0.2989 0.0
N364 N 0.19098 0.00062 0.31797 0.0
C365 C 0.15694 0.00459 0.3083 0.0
C366 C 0.182 0.99588 0.28383 0.0
C367 C 0.17173 0.00478 0.32293 0.0
C368 C 0.1044 0.98023 0.30525 0.0
N369 N 0.10375 -0.00205 0.29531 0.0
C370 C 0.08485 0.01283 0.32167 0.0
C371 C 0.09411 0.0141 0.303 0.0
C372 C 0.08555 0.99477 0.33246 0.0
C373 C 0.09527 0.97827 0.32388 0.0
H374 H 0.11239 0.96771 0.29884 0.0
H375 H 0.09393 0.02805 0.29483 0.0
C376 C 0.16172 0.04946 0.23018 0.0
N377 N 0.15995 0.04083 0.24846 0.0
C378 C 0.17072 0.0682 0.22816 0.0
C379 C 0.17627 0.06856 0.26377 0.0
C380 C 0.1673 0.04976 0.26509 0.0
C381 C 0.17765 0.07819 0.24518 0.0
H382 H 0.15548 0.0421 0.21727 0.0
H383 H 0.16553 0.04264 0.27946 0.0
C384 C 0.10181 0.96077 0.25421 0.0
N385 N 0.07327 0.93104 0.25516 0.0
C386 C 0.10715 0.94094 0.25032 0.0
C387 C 0.08199 0.96552 0.25863 0.0
C388 C 0.09249 0.92611 0.25085 0.0
C389 C 0.06777 0.95025 0.25903 0.0
C390 C 0.16039 -0.00311 0.21374 0.0
C391 C 0.15517 0.99259 0.19404 0.0
C392 C 0.1803 0.00061 0.21856 0.0
C393 C 0.17004 0.99203 0.17943 0.0
C394 C 0.19473 -7e-05 0.20351 0.0
N395 N 0.18935 0.99569 0.18443 0.0
C396 C 0.09691 0.01401 0.20021 0.0
C397 C 0.09061 0.97969 0.20629 0.0
C398 C 0.085 0.01355 0.18306 0.0
N399 N 0.09956 -0.00282 0.21132 0.0
C400 C 0.07847 0.9786 0.18947 0.0
C401 C 0.07576 0.99556 0.17734 0.0
H402 H 0.10435 0.02771 0.20447 0.0
H403 H 0.09312 0.96644 0.21511 0.0
C404 C 0.16168 0.9477 0.27189 0.0
N405 N 0.16042 0.95651 0.25365 0.0
C406 C 0.17047 0.92887 0.27394 0.0
C407 C 0.17686 0.92873 0.23843 0.0
C408 C 0.16803 0.94763 0.23708 0.0
C409 C 0.17777 0.91895 0.25699 0.0
H410 H 0.15515 0.95501 0.28473 0.0
H411 H 0.16659 0.95485 0.22273 0.0
O412 O 0.11531 0.02139 0.25173 0.0
O413 O 0.14774 -0.00053 0.27423 0.0
O414 O 0.11596 0.97545 0.25354 0.0
O415 O 0.14591 -0.00217 0.22808 0.0
H416 H 0.12164 0.05983 0.25817 0.0
H417 H 0.07669 0.01561 0.24586 0.0
H418 H 0.09533 0.08601 0.25802 0.0
H419 H 0.05115 0.04258 0.24587 0.0
H420 H 0.21179 0.99292 0.29545 0.0
H421 H 0.14162 0.00787 0.31224 0.0
H422 H 0.18624 0.99223 0.26869 0.0
H423 H 0.16791 0.00821 0.33824 0.0
H424 H 0.07729 0.02585 0.32764 0.0
H425 H 0.09634 0.96415 0.33174 0.0
H426 H 0.17136 0.0752 0.2136 0.0
H427 H 0.18163 0.07572 0.27721 0.0
H428 H 0.12244 0.93704 0.24682 0.0
H429 H 0.07766 0.98081 0.26169 0.0
H430 H 0.09639 0.9107 0.24782 0.0
H431 H 0.05236 0.95368 0.26241 0.0
H432 H 0.13978 0.98976 0.19009 0.0
H433 H 0.18453 0.00412 0.23372 0.0
H434 H 0.16622 0.98872 0.16412 0.0
H435 H 0.21021 0.00283 0.20699 0.0
H436 H 0.08358 0.02695 0.1741 0.0
H437 H 0.07142 0.96448 0.18593 0.0
H438 H 0.17069 0.92176 0.28845 0.0
H439 H 0.18251 0.92164 0.22504 0.0
Li440 Li 0.23347 0.88929 0.50183 0.0
Li441 Li 0.25175 0.86176 0.51869 0.0
Li442 Li 0.26997 0.88983 0.50233 0.0
Li443 Li 0.2527 0.86369 0.48244 0.0
C444 C 0.25009 0.90553 0.53929 0.0
N445 N 0.24739 0.93546 0.56755 0.0
C446 C 0.24526 0.90083 0.55903 0.0
C447 C 0.25365 0.9254 0.53392 0.0
C448 C 0.24395 0.91619 0.5731 0.0
C449 C 0.25216 0.94034 0.54843 0.0
C450 C 0.21476 0.84577 0.49957 0.0
C451 C 0.20475 0.8114 0.49541 0.0
N452 N 0.18554 0.81667 0.49937 0.0
C453 C 0.19492 0.85087 0.50356 0.0
C454 C 0.21974 0.8259 0.49541 0.0
C455 C 0.18037 0.83594 0.50339 0.0
C456 C 0.20236 0.90764 0.48219 0.0
N457 N 0.21055 0.90538 0.50056 0.0
C458 C 0.18643 0.92735 0.51485 0.0
C459 C 0.20283 0.91465 0.51685 0.0
C460 C 0.17799 0.93049 0.49591 0.0
C461 C 0.18607 0.92029 0.47947 0.0
H462 H 0.20872 0.89982 0.46957 0.0
H463 H 0.20941 0.91225 0.53135 0.0
C464 C 0.26921 0.83904 0.54933 0.0
N465 N 0.25183 0.84416 0.54025 0.0
C466 C 0.26902 0.82604 0.56563 0.0
C467 C 0.23312 0.82381 0.56249 0.0
C468 C 0.234 0.83698 0.54653 0.0
C469 C 0.25073 0.81842 0.57246 0.0
H470 H 0.28315 0.84525 0.54407 0.0
H471 H 0.22041 0.84166 0.5393 0.0
C472 C 0.25108 0.90724 0.46493 0.0
N473 N 0.24953 0.93629 0.43565 0.0
C474 C 0.2539 0.90207 0.44492 0.0
C475 C 0.24748 0.92718 0.47005 0.0
C476 C 0.25308 0.91697 0.43034 0.0
C477 C 0.24672 0.94164 0.45502 0.0
C478 C 0.28921 0.84598 0.49938 0.0
C479 C 0.30923 0.85085 0.49616 0.0
C480 C 0.2836 0.82594 0.50122 0.0
C481 C 0.32334 0.83552 0.49477 0.0
C482 C 0.29817 0.81104 0.49975 0.0
N483 N 0.31757 0.8161 0.49658 0.0
C484 C 0.30373 0.90848 0.51904 0.0
C485 C 0.29909 0.91173 0.48409 0.0
C486 C 0.32208 0.91824 0.51777 0.0
N487 N 0.29283 0.90541 0.50227 0.0
C488 C 0.31706 0.92175 0.48218 0.0
C489 C 0.32887 0.92487 0.49909 0.0
H490 H 0.29842 0.90285 0.53322 0.0
H491 H 0.29052 0.90833 0.47095 0.0
C492 C 0.23541 0.84664 0.44946 0.0
N493 N 0.25324 0.84987 0.45842 0.0
C494 C 0.2347 0.83761 0.43082 0.0
C495 C 0.27079 0.83582 0.43084 0.0
C496 C 0.27079 0.84486 0.44957 0.0
C497 C 0.25255 0.83204 0.42133 0.0
H498 H 0.22178 0.85138 0.4567 0.0
H499 H 0.28474 0.84813 0.45692 0.0
O500 O 0.25159 0.89061 0.52545 0.0
O501 O 0.22911 0.86029 0.49963 0.0
O502 O 0.25205 0.89279 0.47937 0.0
O503 O 0.27531 0.86087 0.50112 0.0
H504 H 0.24257 0.88547 0.56341 0.0
H505 H 0.25762 0.92923 0.51876 0.0
H506 H 0.24022 0.91278 0.58843 0.0
H507 H 0.25485 0.9558 0.5445 0.0
H508 H 0.20837 0.79595 0.49222 0.0
H509 H 0.19083 0.86621 0.50677 0.0
H510 H 0.23498 0.82175 0.4921 0.0
H511 H 0.16496 0.83967 0.50647 0.0
H512 H 0.18035 0.93449 0.52801 0.0
H513 H 0.18012 0.9223 0.46461 0.0
H514 H 0.28288 0.82247 0.5731 0.0
H515 H 0.21873 0.81808 0.56709 0.0
H516 H 0.25682 0.88675 0.44067 0.0
H517 H 0.24518 0.93142 0.48544 0.0
H518 H 0.25528 0.91318 0.41481 0.0
H519 H 0.2439 0.95713 0.45875 0.0
H520 H 0.31381 0.86631 0.4948 0.0
H521 H 0.26822 0.82195 0.50396 0.0
H522 H 0.33889 0.83906 0.49229 0.0
H523 H 0.29406 0.79546 0.50119 0.0
H524 H 0.33093 0.92042 0.53109 0.0
H525 H 0.32205 0.92629 0.46748 0.0
H526 H 0.22037 0.83519 0.42381 0.0
H527 H 0.28483 0.8316 0.42402 0.0
Li528 Li 0.36413 0.98565 0.74676 0.0
Li529 Li 0.38984 0.00486 0.76581 0.0
Li530 Li 0.36227 0.02184 0.74752 0.0
Li531 Li 0.39043 0.00563 0.72956 0.0
C532 C 0.3467 0.00338 0.78466 0.0
N533 N 0.31795 0.00331 0.81423 0.0
C534 C 0.35222 0.00126 0.80464 0.0
C535 C 0.32657 0.00544 0.7797 0.0
C536 C 0.33746 0.00124 0.81937 0.0
C537 C 0.31226 0.00541 0.79488 0.0
C538 C 0.40735 0.96758 0.74783 0.0
C539 C 0.44165 0.95685 0.74594 0.0
N540 N 0.43578 0.93766 0.7493 0.0
C541 C 0.40166 0.94775 0.75125 0.0
C542 C 0.4275 0.9722 0.74516 0.0
C543 C 0.41625 0.93285 0.75195 0.0
C544 C 0.34748 0.95131 0.72967 0.0
N545 N 0.34973 0.96201 0.74673 0.0
C546 C 0.3336 0.93685 0.76588 0.0
C547 C 0.34308 0.95522 0.7646 0.0
C548 C 0.33133 0.92526 0.74864 0.0
C549 C 0.33826 0.93263 0.7303 0.0
H550 H 0.35329 0.95709 0.71575 0.0
H551 H 0.34572 0.96374 0.77799 0.0
C552 C 0.40703 0.02157 0.80003 0.0
N553 N 0.4047 0.0046 0.78914 0.0
C554 C 0.41611 0.02065 0.81871 0.0
C555 C 0.4206 0.98499 0.81404 0.0
C556 C 0.41121 0.98655 0.79572 0.0
C557 C 0.42285 0.0021 0.82586 0.0
H558 H 0.40127 0.03563 0.79446 0.0
H559 H 0.40842 0.97323 0.78714 0.0
C560 C 0.3469 0.00315 0.70974 0.0
N561 N 0.31752 0.00128 0.68101 0.0
C562 C 0.35157 0.00686 0.68977 0.0
C563 C 0.32733 -0.00162 0.71512 0.0
C564 C 0.33649 0.00587 0.67546 0.0
C565 C 0.31267 -0.00245 0.70037 0.0
C566 C 0.40618 0.04238 0.74761 0.0
C567 C 0.40195 0.06239 0.74328 0.0
C568 C 0.42582 0.0365 0.75132 0.0
C569 C 0.41753 0.07623 0.74261 0.0
C570 C 0.441 0.05079 0.75049 0.0
N571 N 0.43658 0.07019 0.74619 0.0
C572 C 0.34383 0.05192 0.76796 0.0
C573 C 0.33189 0.04864 0.73482 0.0
C574 C 0.3307 0.06761 0.77158 0.0
N575 N 0.34424 0.04294 0.74982 0.0
C576 C 0.31852 0.06435 0.73777 0.0
C577 C 0.31805 0.07419 0.75627 0.0
H578 H 0.35386 0.04693 0.77956 0.0
H579 H 0.33268 0.04129 0.72051 0.0
C580 C 0.41066 0.98639 0.6997 0.0
N581 N 0.40761 0.00483 0.70761 0.0
C582 C 0.42373 0.98387 0.68377 0.0
C583 C 0.42988 0.01954 0.68412 0.0
C584 C 0.41683 0.02132 0.70023 0.0
C585 C 0.43342 0.00061 0.67565 0.0
H586 H 0.40293 0.97359 0.70583 0.0
H587 H 0.41389 0.03584 0.70667 0.0
O588 O 0.361 0.00308 0.77008 0.0
O589 O 0.39318 0.98233 0.74716 0.0
O590 O 0.36156 0.00402 0.72384 0.0
O591 O 0.391 0.02878 0.74851 0.0
H592 H 0.36772 -0.0005 0.80874 0.0
H593 H 0.32205 0.00711 0.76433 0.0
H594 H 0.34151 -0.00046 0.83489 0.0
H595 H 0.29662 0.00704 0.79128 0.0
H596 H 0.4573 0.96019 0.74387 0.0
H597 H 0.38615 0.9439 0.75344 0.0
H598 H 0.43215 0.98744 0.74242 0.0
H599 H 0.41205 0.91745 0.75461 0.0
H600 H 0.32873 0.93144 0.78033 0.0
H601 H 0.33668 0.92402 0.71672 0.0
H602 H 0.41763 0.03412 0.82754 0.0
H603 H 0.42526 0.97038 0.81929 0.0
H604 H 0.3667 0.01049 0.68539 0.0
H605 H 0.32353 0.99532 0.7305 0.0
H606 H 0.33988 0.00874 0.65994 0.0
H607 H 0.29745 0.99391 0.7043 0.0
H608 H 0.38676 0.06716 0.74049 0.0
H609 H 0.42929 0.02111 0.75489 0.0
H610 H 0.41449 0.09177 0.73927 0.0
H611 H 0.45629 0.04647 0.7533 0.0
H612 H 0.33075 0.07484 0.78603 0.0
H613 H 0.30931 0.06931 0.72547 0.0
H614 H 0.42612 0.96899 0.67784 0.0
H615 H 0.43667 0.03291 0.67804 0.0
Li616 Li 0.25363 0.1393 0.01493 0.0
Li617 Li 0.272 0.11286 -0.00413 0.0
Li618 Li 0.25404 0.14098 0.97815 0.0
Li619 Li 0.23529 0.11352 0.99529 0.0
C620 C 0.29078 0.15683 -0.00101 0.0
N621 N 0.31894 0.18657 0.00364 0.0
C622 C 0.31042 0.15188 0.00392 0.0
C623 C 0.28544 0.17687 -0.00362 0.0
C624 C 0.32444 0.16715 0.00623 0.0
C625 C 0.29991 0.19169 -0.0012 0.0
C626 C 0.25377 0.09584 0.03319 0.0
C627 C 0.24974 0.06178 0.04437 0.0
N628 N 0.25419 0.06759 0.06329 0.0
C629 C 0.25831 0.10147 0.05274 0.0
C630 C 0.2494 0.07585 0.02895 0.0
C631 C 0.25843 0.08697 0.06775 0.0
C632 C 0.23561 0.15583 0.04914 0.0
N633 N 0.25311 0.15385 0.03902 0.0
C634 C 0.271 0.16958 0.06536 0.0
C635 C 0.27061 0.16045 0.04673 0.0
C636 C 0.25327 0.17163 0.07632 0.0
C637 C 0.23535 0.16472 0.068 0.0
H638 H 0.22198 0.15007 0.04275 0.0
H639 H 0.28438 0.15804 0.03877 0.0
C640 C 0.30584 0.09992 0.97683 0.0
N641 N 0.29525 0.09721 0.99391 0.0
C642 C 0.32377 0.08976 0.97387 0.0
C643 C 0.31932 0.07388 0.006 0.0
C644 C 0.30155 0.08454 0.00845 0.0
C645 C 0.33069 0.07658 0.98857 0.0
H646 H 0.3004 0.11019 0.96561 0.0
H647 H 0.29296 0.08287 0.02199 0.0
C648 C 0.21613 0.15669 -0.00266 0.0
N649 N 0.18597 0.18478 -0.00017 0.0
C650 C 0.19624 0.15092 0.99493 0.0
C651 C 0.22069 0.17673 0.00103 0.0
C652 C 0.18121 0.16534 -0.00376 0.0
C653 C 0.20522 0.19072 0.00222 0.0
C654 C 0.25161 0.09641 0.95934 0.0
C655 C 0.24576 0.10032 0.93973 0.0
C656 C 0.25501 0.07672 0.96545 0.0
C657 C 0.24323 0.08436 0.92654 0.0
C658 C 0.25232 0.06117 0.9518 0.0
N659 N 0.24653 0.06528 0.9328 0.0
C660 C 0.27346 0.16179 0.94765 0.0
C661 C 0.23813 0.16193 0.94547 0.0
C662 C 0.27506 0.17141 0.92925 0.0
N663 N 0.25522 0.15714 0.95521 0.0
C664 C 0.23904 0.17132 0.9269 0.0
C665 C 0.25771 0.17581 0.91845 0.0
H666 H 0.28679 0.15732 0.95554 0.0
H667 H 0.22387 0.15774 0.95176 0.0
C668 C 0.20259 0.09556 0.013 0.0
N669 N 0.21143 0.0988 0.99506 0.0
C670 C 0.1836 0.08718 0.01395 0.0
C671 C 0.18327 0.08546 0.97792 0.0
C672 C 0.20229 0.0939 0.97767 0.0
C673 C 0.1736 0.08223 -0.00376 0.0
H674 H 0.21002 0.10017 0.02653 0.0
H675 H 0.20945 0.09717 0.9636 0.0
O676 O 0.27694 0.14202 -0.00336 0.0
O677 O 0.25309 0.10997 0.01845 0.0
O678 O 0.23097 0.14267 -0.00361 0.0
O679 O 0.25419 0.1119 0.97237 0.0
H680 H 0.31477 0.13641 0.00598 0.0
H681 H 0.27034 0.18091 0.99241 0.0
H682 H 0.33969 0.16355 0.01007 0.0
H683 H 0.29602 0.20728 -0.0032 0.0
H684 H 0.2464 0.04626 0.04132 0.0
H685 H 0.26165 0.11687 0.05631 0.0
H686 H 0.24565 0.07129 0.01395 0.0
H687 H 0.26186 0.09113 0.08294 0.0
H688 H 0.28518 0.17437 0.07141 0.0
H689 H 0.22137 0.16609 0.076 0.0
H690 H 0.33211 0.09213 0.96022 0.0
H691 H 0.32437 0.064 0.01777 0.0
H692 H 0.19242 0.13548 0.99208 0.0
H693 H 0.23598 0.18141 0.0031 0.0
H694 H 0.16576 0.16107 0.99442 0.0
H695 H 0.20851 0.20629 0.0051 0.0
H696 H 0.24316 0.11553 0.93479 0.0
H697 H 0.25974 0.07349 0.98052 0.0
H698 H 0.23866 0.08715 0.91133 0.0
H699 H 0.25487 0.04583 0.9563 0.0
H700 H 0.28969 0.17444 0.92309 0.0
H701 H 0.22535 0.1746 0.919 0.0
H702 H 0.17658 0.08523 0.02838 0.0
H703 H 0.17617 0.08166 0.96395 0.0
Li704 Li 0.73201 0.38834 -0.00015 0.0
Li705 Li 0.7497 0.35996 0.01633 0.0
Li706 Li 0.76833 0.38786 0.00026 0.0
Li707 Li 0.75014 0.36214 0.98026 0.0
C708 C 0.75246 0.40273 0.038 0.0
N709 N 0.75629 0.43113 0.06766 0.0
C710 C 0.75106 0.39714 0.05803 0.0
C711 C 0.7559 0.42275 0.03303 0.0
C712 C 0.753 0.41172 0.07281 0.0
C713 C 0.75779 0.43688 0.04825 0.0
C714 C 0.71227 0.34487 -0.00072 0.0
C715 C 0.70168 0.31055 -0.00367 0.0
N716 N 0.68309 0.31592 0.0025 0.0
C717 C 0.69306 0.35007 0.00555 0.0
C718 C 0.71664 0.32498 0.99454 0.0
C719 C 0.67851 0.33521 0.00708 0.0
C720 C 0.69884 0.40764 0.98302 0.0
N721 N 0.70998 0.40551 -0.00021 0.0
C722 C 0.68984 0.42903 0.01722 0.0
C723 C 0.70582 0.41583 0.01669 0.0
C724 C 0.67761 0.43119 0.00038 0.0
C725 C 0.68238 0.42048 0.98298 0.0
H726 H 0.70261 0.39917 0.96979 0.0
H727 H 0.71474 0.41369 0.02986 0.0
C728 C 0.76917 0.34111 0.04685 0.0
N729 N 0.75114 0.34204 0.03771 0.0
C730 C 0.7717 0.32921 0.06368 0.0
C731 C 0.73725 0.31883 0.06084 0.0
C732 C 0.73533 0.3311 0.04415 0.0
C733 C 0.75548 0.31822 0.07104 0.0
H734 H 0.7814 0.35014 0.04139 0.0
H735 H 0.72106 0.3324 0.03688 0.0
C736 C 0.74923 0.406 0.96301 0.0
N737 N 0.74748 0.43541 0.93411 0.0
C738 C 0.7512 0.40098 0.94287 0.0
C739 C 0.74634 0.42596 0.96847 0.0
C740 C 0.75031 0.41607 0.92848 0.0
C741 C 0.74547 0.44061 0.95362 0.0
C742 C 0.78726 0.34449 -0.00256 0.0
C743 C 0.80725 0.34994 0.99511 0.0
C744 C 0.78213 0.3243 -0.001 0.0
C745 C 0.82184 0.33503 0.99435 0.0
C746 C 0.79718 0.30984 -0.00178 0.0
N747 N 0.81655 0.31545 -0.00407 0.0
C748 C 0.80235 0.4057 0.01746 0.0
C749 C 0.79815 0.40949 0.98252 0.0
C750 C 0.82092 0.41509 0.01652 0.0
N751 N 0.79157 0.40304 0.00054 0.0
C752 C 0.81646 0.41898 0.9809 0.0
C753 C 0.82821 0.42161 -0.00202 0.0
H754 H 0.79681 0.40001 0.03151 0.0
H755 H 0.78954 0.40655 0.96927 0.0
C756 C 0.733 0.34409 0.94738 0.0
N757 N 0.75058 0.34822 0.95646 0.0
C758 C 0.73291 0.33599 0.92828 0.0
C759 C 0.76905 0.33637 0.92855 0.0
C760 C 0.76843 0.3444 0.94766 0.0
C761 C 0.75112 0.33242 0.91855 0.0
H762 H 0.71909 0.34776 0.95472 0.0
H763 H 0.78212 0.34825 0.95521 0.0
O764 O 0.75 0.38868 0.02341 0.0
O765 O 0.72657 0.35931 -0.00247 0.0
O766 O 0.75048 0.39139 0.97726 0.0
O767 O 0.77288 0.35897 -0.00156 0.0
H768 H 0.74831 0.3817 0.0621 0.0
H769 H 0.75703 0.42731 0.0176 0.0
H770 H 0.75183 0.40762 0.08838 0.0
H771 H 0.76041 0.45243 0.04464 0.0
H772 H 0.70484 0.29508 0.99277 0.0
H773 H 0.68945 0.36544 0.00916 0.0
H774 H 0.73142 0.32076 0.98957 0.0
H775 H 0.66357 0.33901 0.01191 0.0
H776 H 0.68696 0.43725 0.03083 0.0
H777 H 0.67322 0.42153 0.96974 0.0
H778 H 0.78593 0.32918 0.07132 0.0
H779 H 0.7243 0.3109 0.06642 0.0
H780 H 0.75355 0.38563 0.93837 0.0
H781 H 0.74475 0.43009 0.98397 0.0
H782 H 0.75189 0.4124 0.91285 0.0
H783 H 0.74323 0.45613 0.95761 0.0
H784 H 0.81145 0.36552 0.99389 0.0
H785 H 0.76673 0.31988 0.00093 0.0
H786 H 0.83737 0.33902 0.99254 0.0
H787 H 0.79347 0.29414 -0.00053 0.0
H788 H 0.82958 0.41695 0.03001 0.0
H789 H 0.82174 0.42342 0.96628 0.0
H790 H 0.71879 0.33327 0.92094 0.0
H791 H 0.78336 0.33353 0.92158 0.0
Li792 Li 0.89071 0.50254 0.26487 0.0
Li793 Li 0.86429 0.48407 0.24617 0.0
Li794 Li 0.89126 0.50317 0.22838 0.0
Li795 Li 0.86358 0.52022 0.24648 0.0
C796 C 0.90803 0.46568 0.24702 0.0
N797 N 0.93756 0.43691 0.24872 0.0
C798 C 0.90308 0.44568 0.25057 0.0
C799 C 0.92797 0.47107 0.24429 0.0
C800 C 0.91823 0.43136 0.25141 0.0
C801 C 0.94269 0.45628 0.24519 0.0
C802 C 0.84736 0.50021 0.28367 0.0
C803 C 0.81278 0.50039 0.29362 0.0
N804 N 0.81835 0.49696 0.31281 0.0
C805 C 0.85275 0.49673 0.3035 0.0
C806 C 0.82722 0.50209 0.27867 0.0
C807 C 0.83787 0.4951 0.31801 0.0
C808 C 0.90948 0.5194 0.29827 0.0
N809 N 0.90571 0.50212 0.28833 0.0
C810 C 0.91823 0.48264 0.31526 0.0
C811 C 0.91019 0.48398 0.29621 0.0
C812 C 0.92155 0.50016 0.32631 0.0
C813 C 0.91766 0.51878 0.31736 0.0
H814 H 0.90527 0.5336 0.29179 0.0
H815 H 0.90642 0.47049 0.28821 0.0
C816 C 0.84323 0.45191 0.22929 0.0
N817 N 0.84911 0.46087 0.24648 0.0
C818 C 0.83371 0.43338 0.22999 0.0
C819 C 0.83607 0.43425 0.26601 0.0
C820 C 0.84565 0.45256 0.2646 0.0
C821 C 0.83033 0.42426 0.24856 0.0
H822 H 0.84651 0.45885 0.21509 0.0
H823 H 0.8511 0.45976 0.27793 0.0
C824 C 0.90566 0.5415 0.24916 0.0
N825 N 0.93235 0.57275 0.25263 0.0
C826 C 0.89918 0.56122 0.24671 0.0
C827 C 0.9257 0.53764 0.25345 0.0
C828 C 0.91291 0.57682 0.2485 0.0
C829 C 0.93896 0.55366 0.25514 0.0
C830 C 0.8473 0.50431 0.2092 0.0
C831 C 0.85199 0.5099 0.18967 0.0
C832 C 0.82745 0.50075 0.21449 0.0
C833 C 0.83667 0.51195 0.17572 0.0
C834 C 0.81255 0.50302 0.20012 0.0
N835 N 0.81743 0.50851 0.1812 0.0
C836 C 0.90876 0.48664 0.19429 0.0
C837 C 0.92116 0.51846 0.20367 0.0
C838 C 0.92204 0.48581 0.17826 0.0
N839 N 0.90857 0.50286 0.20648 0.0
C840 C 0.93491 0.51811 0.18817 0.0
C841 C 0.93533 0.50176 0.17503 0.0
H842 H 0.89852 0.47443 0.197 0.0
H843 H 0.92058 0.53124 0.2134 0.0
C844 C 0.84282 0.549 0.26691 0.0
N845 N 0.84632 0.542 0.24824 0.0
C846 C 0.82985 0.56495 0.26986 0.0
C847 C 0.82462 0.5664 0.23417 0.0
C848 C 0.83761 0.55028 0.23195 0.0
C849 C 0.82075 0.57401 0.25333 0.0
H850 H 0.85024 0.54224 0.27953 0.0
H851 H 0.841 0.54463 0.21724 0.0
O852 O 0.89333 0.47983 0.24621 0.0
O853 O 0.86182 0.50198 0.26934 0.0
O854 O 0.89241 0.52609 0.24715 0.0
O855 O 0.8622 0.50198 0.22288 0.0
H856 H 0.88769 0.44128 0.25271 0.0
H857 H 0.93201 0.48649 0.24149 0.0
H858 H 0.91462 0.41583 0.25419 0.0
H859 H 0.9582 0.4602 0.2431 0.0
H860 H 0.79713 0.50185 0.28997 0.0
H861 H 0.86827 0.4953 0.30765 0.0
H862 H 0.8228 0.50499 0.26345 0.0
H863 H 0.84183 0.49239 0.33341 0.0
H864 H 0.92063 0.46796 0.32167 0.0
H865 H 0.92021 0.53265 0.32528 0.0
H866 H 0.82943 0.42608 0.21623 0.0
H867 H 0.83412 0.42751 0.28058 0.0
H868 H 0.88372 0.56444 0.24334 0.0
H869 H 0.93095 0.52244 0.25535 0.0
H870 H 0.90811 0.59216 0.24657 0.0
H871 H 0.95452 0.55092 0.2584 0.0
H872 H 0.86732 0.51258 0.18534 0.0
H873 H 0.8236 0.49618 0.22947 0.0
H874 H 0.84008 0.51625 0.16054 0.0
H875 H 0.79711 0.50034 0.20399 0.0
H876 H 0.9216 0.47307 0.16832 0.0
H877 H 0.94504 0.5306 0.1865 0.0
H878 H 0.82722 0.57034 0.28486 0.0
H879 H 0.8183 0.57329 0.221 0.0
Li880 Li 0.75264 0.63712 0.5176 0.0
Li881 Li 0.77148 0.61091 0.49836 0.0
Li882 Li 0.75376 0.6391 0.48078 0.0
Li883 Li 0.73474 0.61136 0.49715 0.0
C884 C 0.79002 0.65514 0.50158 0.0
N885 N 0.81793 0.68532 0.50475 0.0
C886 C 0.80978 0.65058 0.5064 0.0
C887 C 0.78445 0.67503 0.49831 0.0
C888 C 0.82367 0.66606 0.50796 0.0
C889 C 0.79879 0.69008 0.49999 0.0
C890 C 0.75363 0.59337 0.535 0.0
C891 C 0.74984 0.55923 0.54594 0.0
N892 N 0.75501 0.5648 0.56474 0.0
C893 C 0.75901 0.59875 0.55439 0.0
C894 C 0.74901 0.57347 0.5307 0.0
C895 C 0.75957 0.5841 0.56924 0.0
C896 C 0.73432 0.64809 0.55335 0.0
N897 N 0.75092 0.65105 0.54204 0.0
C898 C 0.76554 0.67113 0.56746 0.0
C899 C 0.7664 0.6623 0.54867 0.0
C900 C 0.7488 0.66799 0.57963 0.0
C901 C 0.73298 0.65637 0.57244 0.0
H902 H 0.72234 0.63887 0.54769 0.0
H903 H 0.7796 0.66408 0.53966 0.0
C904 C 0.8021 0.59059 0.47871 0.0
N905 N 0.79479 0.59514 0.49709 0.0
C906 C 0.8203 0.58065 0.47676 0.0
C907 C 0.82316 0.58039 0.51271 0.0
C908 C 0.80474 0.59008 0.51398 0.0
C909 C 0.83121 0.57581 0.4939 0.0
H910 H 0.79409 0.59526 0.46553 0.0
H911 H 0.79868 0.59416 0.52838 0.0
C912 C 0.7157 0.65479 0.4985 0.0
N913 N 0.68588 0.68334 0.49878 0.0
C914 C 0.69606 0.64942 0.49403 0.0
C915 C 0.72018 0.67464 0.50317 0.0
C916 C 0.68119 0.66408 0.49426 0.0
C917 C 0.70489 0.68887 0.50319 0.0
C918 C 0.75133 0.59543 0.46074 0.0
C919 C 0.74639 0.60051 0.44114 0.0
C920 C 0.75368 0.57533 0.46599 0.0
C921 C 0.74381 0.58533 0.42708 0.0
C922 C 0.75098 0.56059 0.45149 0.0
N923 N 0.74614 0.56585 0.4325 0.0
C924 C 0.77429 0.65877 0.45066 0.0
C925 C 0.73912 0.66172 0.44808 0.0
C926 C 0.77687 0.6684 0.4324 0.0
N927 N 0.75566 0.6555 0.45799 0.0
C928 C 0.741 0.67118 0.42959 0.0
C929 C 0.76009 0.67425 0.42142 0.0
H930 H 0.78713 0.65315 0.45863 0.0
H931 H 0.72448 0.65859 0.45414 0.0
C932 C 0.70111 0.59456 0.51429 0.0
N933 N 0.71091 0.5965 0.49665 0.0
C934 C 0.68186 0.58668 0.51479 0.0
C935 C 0.68357 0.58214 0.47905 0.0
C936 C 0.70269 0.5903 0.47923 0.0
C937 C 0.67265 0.58075 0.49693 0.0
H938 H 0.70792 0.60001 0.52785 0.0
H939 H 0.71059 0.59242 0.46535 0.0
O940 O 0.77632 0.6401 0.49988 0.0
O941 O 0.75211 0.6077 0.52053 0.0
O942 O 0.73032 0.64052 0.49868 0.0
O943 O 0.75406 0.61014 0.47459 0.0
H944 H 0.81432 0.63524 0.50891 0.0
H945 H 0.76925 0.67878 0.49442 0.0
H946 H 0.83901 0.66276 0.5117 0.0
H947 H 0.79471 0.70554 0.49749 0.0
H948 H 0.74626 0.54376 0.54286 0.0
H949 H 0.76261 0.6141 0.55799 0.0
H950 H 0.74463 0.56911 0.5158 0.0
H951 H 0.76359 0.58808 0.58434 0.0
H952 H 0.77808 0.6799 0.57265 0.0
H953 H 0.7198 0.65378 0.58144 0.0
H954 H 0.82619 0.57757 0.46202 0.0
H955 H 0.8312 0.57681 0.52625 0.0
H956 H 0.69232 0.6341 0.49045 0.0
H957 H 0.73526 0.67897 0.50687 0.0
H958 H 0.66593 0.66014 0.49086 0.0
H959 H 0.70813 0.7043 0.50677 0.0
H960 H 0.74459 0.61603 0.43686 0.0
H961 H 0.75762 0.5712 0.48108 0.0
H962 H 0.73997 0.58903 0.41186 0.0
H963 H 0.75277 0.54497 0.45531 0.0
H964 H 0.79179 0.67025 0.42645 0.0
H965 H 0.72772 0.67556 0.42152 0.0
H966 H 0.674 0.58612 0.52889 0.0
H967 H 0.67725 0.57741 0.46498 0.0
Li968 Li 0.64312 0.51543 0.75055 0.0
Li969 Li 0.61656 0.49752 0.7706 0.0
Li970 Li 0.64395 0.47832 0.75297 0.0
Li971 Li 0.61607 0.49513 0.73388 0.0
C972 C 0.66022 0.50026 0.78894 0.0
N973 N 0.68915 0.50352 0.81802 0.0
C974 C 0.65483 0.50461 0.80861 0.0
C975 C 0.6803 0.49751 0.78406 0.0
C976 C 0.66968 0.5062 0.8231 0.0
C977 C 0.69472 0.49925 0.79897 0.0
C978 C 0.59951 0.53364 0.75406 0.0
C979 C 0.56511 0.54417 0.75416 0.0
N980 N 0.5709 0.56288 0.75962 0.0
C981 C 0.60514 0.55295 0.75969 0.0
C982 C 0.57936 0.52917 0.75126 0.0
C983 C 0.59044 0.56753 0.76243 0.0
C984 C 0.66105 0.54695 0.72902 0.0
N985 N 0.65886 0.53905 0.7476 0.0
C986 C 0.67757 0.56593 0.76173 0.0
C987 C 0.66689 0.5481 0.76383 0.0
C988 C 0.67989 0.57463 0.74275 0.0
C989 C 0.67157 0.56481 0.72624 0.0
H990 H 0.65437 0.53951 0.71638 0.0
H991 H 0.66465 0.54173 0.77848 0.0
C992 C 0.59792 0.47821 0.80211 0.0
N993 N 0.6011 0.49674 0.79438 0.0
C994 C 0.58827 0.47593 0.82042 0.0
C995 C 0.58523 0.51191 0.8225 0.0
C996 C 0.5948 0.51349 0.80401 0.0
C997 C 0.58211 0.49292 0.83103 0.0
H998 H 0.60341 0.46517 0.79428 0.0
H999 H 0.59771 0.52807 0.79765 0.0
C1000 C 0.65957 0.49478 0.7143 0.0
N1001 N 0.68848 0.49409 0.68492 0.0
C1002 C 0.65425 0.49138 0.69446 0.0
C1003 C 0.67957 0.49787 0.71922 0.0
C1004 C 0.66909 0.49107 0.67981 0.0
C1005 C 0.69397 0.49745 0.70414 0.0
C1006 C 0.60019 0.45926 0.75053 0.0
C1007 C 0.60533 0.43997 0.74435 0.0
C1008 C 0.58015 0.46423 0.75348 0.0
C1009 C 0.59026 0.42594 0.7411 0.0
C1010 C 0.56551 0.44978 0.75006 0.0
N1011 N 0.57083 0.43109 0.744 0.0
C1012 C 0.66402 0.44804 0.77416 0.0
C1013 C 0.66822 0.44629 0.73912 0.0
C1014 C 0.67522 0.43057 0.77676 0.0
N1015 N 0.66067 0.45543 0.75556 0.0
C1016 C 0.67949 0.4288 0.74102 0.0
C1017 C 0.68297 0.42056 0.76003 0.0
H1018 H 0.65767 0.45554 0.78698 0.0
H1019 H 0.66508 0.45231 0.72449 0.0
C1020 C 0.59452 0.51329 0.70337 0.0
N1021 N 0.59932 0.49504 0.71091 0.0
C1022 C 0.58255 0.5149 0.68644 0.0
C1023 C 0.5808 0.47883 0.68512 0.0
C1024 C 0.5928 0.47792 0.70215 0.0
C1025 C 0.57555 0.49752 0.67697 0.0
H1026 H 0.60012 0.52667 0.71047 0.0
H1027 H 0.59712 0.46356 0.70816 0.0
O1028 O 0.64581 0.49841 0.77467 0.0
O1029 O 0.61378 0.51944 0.75059 0.0
O1030 O 0.64516 0.49534 0.72872 0.0
O1031 O 0.61479 0.47306 0.75405 0.0
H1032 H 0.63933 0.5067 0.81265 0.0
H1033 H 0.68469 0.49393 0.76896 0.0
H1034 H 0.66573 0.50955 0.83839 0.0
H1035 H 0.71032 0.49714 0.79542 0.0
H1036 H 0.54945 0.54097 0.75198 0.0
H1037 H 0.6207 0.55667 0.76177 0.0
H1038 H 0.5748 0.51435 0.7467 0.0
H1039 H 0.59458 0.58256 0.76672 0.0
H1040 H 0.68337 0.57315 0.77495 0.0
H1041 H 0.67306 0.57091 0.71135 0.0
H1042 H 0.58637 0.46106 0.82657 0.0
H1043 H 0.58054 0.52538 0.83017 0.0
H1044 H 0.6388 0.48903 0.69042 0.0
H1045 H 0.68389 0.50071 0.73447 0.0
H1046 H 0.66519 0.48846 0.66439 0.0
H1047 H 0.70951 0.49985 0.70771 0.0
H1048 H 0.62081 0.43589 0.74211 0.0
H1049 H 0.57597 0.47906 0.75843 0.0
H1050 H 0.594 0.41094 0.73631 0.0
H1051 H 0.54993 0.45339 0.75227 0.0
H1052 H 0.6776 0.42487 0.79168 0.0
H1053 H 0.68477 0.42142 0.72764 0.0
H1054 H 0.57879 0.52964 0.68087 0.0
H1055 H 0.57612 0.46501 0.67815 0.0
Li1056 Li 0.98629 0.75225 0.85968 0.0
Li1057 Li 0.00331 0.77025 0.88745 0.0
Li1058 Li 0.02322 0.75197 0.86019 0.0
Li1059 Li 0.00468 0.73292 0.88662 0.0
C1060 C 0.00183 0.78956 0.84402 0.0
N1061 N -0.00417 0.8186 0.81535 0.0
C1062 C 0.99491 0.80851 0.84951 0.0
C1063 C 0.00582 0.78539 0.824 0.0
C1064 C 0.99196 0.823 0.83478 0.0
C1065 C 0.00263 0.80027 0.80971 0.0
C1066 C 0.96645 0.75042 0.90297 0.0
C1067 C 0.95619 0.74628 0.93719 0.0
N1068 N 0.93702 0.75024 0.93183 0.0
C1069 C 0.94666 0.75439 0.89778 0.0
C1070 C 0.9713 0.74632 0.92281 0.0
C1071 C 0.932 0.75426 0.9126 0.0
C1072 C 0.95614 0.73432 0.83729 0.0
N1073 N 0.96329 0.75239 0.84305 0.0
C1074 C 0.93634 0.76912 0.82657 0.0
C1075 C 0.95385 0.76967 0.83792 0.0
C1076 C 0.9285 0.75058 0.82056 0.0
C1077 C 0.93893 0.73308 0.82576 0.0
H1078 H 0.9636 0.72078 0.84196 0.0
H1079 H 0.95955 0.78386 0.84308 0.0
C1080 C 0.01764 0.80644 0.90421 0.0
N1081 N 0.00167 0.79394 0.9034 0.0
C1082 C 0.01593 0.82513 0.91348 0.0
C1083 C 0.98169 0.81735 0.92162 0.0
C1084 C 0.98397 0.79899 0.91198 0.0
C1085 C -0.00236 0.83089 0.92207 0.0
H1086 H 0.03148 0.80217 0.89706 0.0
H1087 H 0.9713 0.78919 0.91071 0.0
C1088 C 0.00507 0.71477 0.84286 0.0
N1089 N 0.00538 0.68567 0.81364 0.0
C1090 C 0.00801 0.69471 0.84798 0.0
C1091 C 0.00232 0.72006 0.82288 0.0
C1092 C 0.00814 0.68022 0.83298 0.0
C1093 C 0.00249 0.7051 0.80833 0.0
C1094 C 0.04095 0.75146 0.90439 0.0
C1095 C 0.06082 0.74724 0.89964 0.0
C1096 C 0.03559 0.75529 0.92416 0.0
C1097 C 0.07506 0.74691 0.91482 0.0
C1098 C 0.05027 0.75478 0.93892 0.0
N1099 N 0.06953 0.75066 0.93398 0.0
C1100 C 0.05915 0.76806 0.84671 0.0
C1101 C 0.0531 0.73519 0.83504 0.0
C1102 C 0.07817 0.76788 0.83823 0.0
N1103 N 0.04721 0.75176 0.84524 0.0
C1104 C 0.07185 0.73449 0.82599 0.0
C1105 C 0.08491 0.75081 0.82789 0.0
H1106 H 0.05417 0.7809 0.85519 0.0
H1107 H 0.04357 0.72224 0.83436 0.0
C1108 C 0.98814 0.69956 0.90661 0.0
N1109 N 0.00552 0.70877 0.90165 0.0
C1110 C 0.9884 0.68125 0.91666 0.0
C1111 C 0.02445 0.68195 0.91584 0.0
C1112 C 0.02349 0.70038 0.906 0.0
C1113 C 0.00673 0.67219 0.92131 0.0
H1114 H 0.97406 0.70631 0.90251 0.0
H1115 H 0.03708 0.70784 0.90155 0.0
O1116 O 0.00513 0.77536 0.8583 0.0
O1117 O 0.98095 0.75064 0.88863 0.0
O1118 O 0.00477 0.72909 0.85742 0.0
O1119 O 0.02696 0.75239 0.88962 0.0
H1120 H 0.99187 0.812 0.86498 0.0
H1121 H 0.01139 0.77085 0.81957 0.0
H1122 H 0.98661 0.83773 0.8388 0.0
H1123 H 0.00561 0.79726 0.79414 0.0
H1124 H 0.9597 0.74312 0.95261 0.0
H1125 H 0.9427 0.75762 0.88247 0.0
H1126 H 0.98656 0.74316 0.92703 0.0
H1127 H 0.91662 0.75736 0.90882 0.0
H1128 H 0.92869 0.78299 0.82321 0.0
H1129 H 0.93371 0.71844 0.82126 0.0
H1130 H 0.02866 0.83509 0.91365 0.0
H1131 H 0.96728 0.82129 0.92782 0.0
H1132 H 0.01017 0.69038 0.86337 0.0
H1133 H -5e-05 0.73551 0.81869 0.0
H1134 H 0.01042 0.66464 0.83673 0.0
H1135 H 0.0003 0.70894 0.79281 0.0
H1136 H 0.06522 0.7443 0.88439 0.0
H1137 H 0.0203 0.75877 0.92803 0.0
H1138 H 0.09051 0.74372 0.91136 0.0
H1139 H 0.04636 0.75774 0.9543 0.0
H1140 H 0.08768 0.78073 0.84049 0.0
H1141 H 0.07611 0.72115 0.81789 0.0
H1142 H 0.97442 0.67406 0.92042 0.0
H1143 H 0.03885 0.67547 0.91926 0.0
Li1144 Li -0.00032 0.26694 0.60943 0.0
Li1145 Li 0.01739 0.25064 0.63762 0.0
Li1146 Li 3e-05 0.23052 0.61168 0.0
Li1147 Li 0.98125 0.25002 0.63743 0.0
C1148 C 0.03721 0.24791 0.59463 0.0
N1149 N 0.06647 0.24695 0.56559 0.0
C1150 C 0.05705 0.25195 0.59959 0.0
C1151 C 0.03225 0.24334 0.57493 0.0
C1152 C 0.07162 0.25139 0.58469 0.0
C1153 C 0.04726 0.24294 0.56046 0.0
C1154 C 4e-05 0.28775 0.6531 0.0
C1155 C -0.00345 0.29709 0.68764 0.0
N1156 N 0.00172 0.31619 0.68291 0.0
C1157 C 0.0053 0.30746 0.64855 0.0
C1158 C -0.00436 0.28247 0.67278 0.0
C1159 C 0.0061 0.32162 0.66385 0.0
C1160 C 0.98336 0.29711 0.58501 0.0
N1161 N 0.00051 0.28834 0.59134 0.0
C1162 C 0.02015 0.31085 0.57198 0.0
C1163 C 0.01867 0.29484 0.58515 0.0
C1164 C 0.00276 0.32058 0.56553 0.0
C1165 C 0.98414 0.31336 0.57197 0.0
H1166 H 0.96914 0.29175 0.59044 0.0
H1167 H 0.03207 0.2879 0.59076 0.0
C1168 C 0.05024 0.23236 0.65136 0.0
N1169 N 0.04021 0.24989 0.65321 0.0
C1170 C 0.06849 0.22978 0.66071 0.0
C1171 C 0.06553 0.2633 0.67411 0.0
C1172 C 0.04721 0.26522 0.66448 0.0
C1173 C 0.07651 0.24551 0.67192 0.0
H1174 H 0.04427 0.22061 0.64204 0.0
H1175 H 0.03896 0.27906 0.66553 0.0
C1176 C 0.96249 0.24717 0.59356 0.0
N1177 N 0.93383 0.24515 0.56411 0.0
C1178 C 0.94255 0.24376 0.5986 0.0
C1179 C 0.96788 0.24958 0.57357 0.0
C1180 C 0.92828 0.24276 0.58349 0.0
C1181 C 0.95315 0.24851 0.55889 0.0
C1182 C 0.00205 0.21264 0.65457 0.0
C1183 C -0.0012 0.19271 0.64921 0.0
C1184 C 0.00724 0.21732 0.6742 0.0
C1185 C 0.00095 0.17772 0.66355 0.0
C1186 C 0.00931 0.20187 0.6881 0.0
N1187 N 0.00614 0.18257 0.68254 0.0
C1188 C 0.02 0.19701 0.59892 0.0
C1189 C 0.98708 0.19955 0.58616 0.0
C1190 C 0.0231 0.17917 0.58865 0.0
N1191 N 0.00227 0.20675 0.59738 0.0
C1192 C 0.98961 0.1819 0.57543 0.0
C1193 C 0.00784 0.1716 0.57659 0.0
H1194 H 0.03172 0.20318 0.60811 0.0
H1195 H 0.97305 0.20746 0.58551 0.0
C1196 C 0.9483 0.26725 0.6561 0.0
N1197 N 0.95933 0.2503 0.65452 0.0
C1198 C 0.93277 0.26823 0.66989 0.0
C1199 C 0.94055 0.23439 0.68017 0.0
C1200 C 0.95567 0.23397 0.66599 0.0
C1201 C 0.92882 0.25166 0.68222 0.0
H1202 H 0.95167 0.27998 0.64673 0.0
H1203 H 0.96452 0.22062 0.66426 0.0
O1204 O 0.02277 0.24867 0.60902 0.0
O1205 O -0.00116 0.27389 0.63818 0.0
O1206 O 0.97653 0.24845 0.60827 0.0
O1207 O -0.00026 0.22747 0.6407 0.0
H1208 H 0.06112 0.25563 0.61475 0.0
H1209 H 0.01698 0.24012 0.57088 0.0
H1210 H 0.08702 0.25454 0.58829 0.0
H1211 H 0.04364 0.23945 0.54514 0.0
H1212 H 0.99313 0.29326 0.70294 0.0
H1213 H 0.00868 0.31177 0.63335 0.0
H1214 H 0.99153 0.26727 0.67653 0.0
H1215 H 0.01015 0.33693 0.66055 0.0
H1216 H 0.03478 0.31587 0.56732 0.0
H1217 H 0.97038 0.3207 0.5677 0.0
H1218 H 0.07666 0.21598 0.6584 0.0
H1219 H 0.07125 0.27569 0.68278 0.0
H1220 H 0.93816 0.24193 0.61404 0.0
H1221 H 0.98322 0.25239 0.56944 0.0
H1222 H 0.91278 0.24012 0.58717 0.0
H1223 H 0.95708 0.2504 0.54335 0.0
H1224 H 0.99445 0.18885 0.63417 0.0
H1225 H 0.00964 0.23269 0.67863 0.0
H1226 H -0.00156 0.16223 0.65961 0.0
H1227 H 0.01338 0.20524 0.70333 0.0
H1228 H 0.03736 0.1716 0.58978 0.0
H1229 H 0.97745 0.17628 0.56643 0.0
H1230 H 0.92377 0.28168 0.67061 0.0
H1231 H 0.93811 0.22134 0.68943 0.0
Li1232 Li 0.48483 0.25323 0.35942 0.0
Li1233 Li 0.50221 0.27159 0.38687 0.0
Li1234 Li 0.52209 0.25262 0.36017 0.0
Li1235 Li 0.50349 0.23434 0.38706 0.0
C1236 C 0.50292 0.29028 0.34304 0.0
N1237 N 0.5007 0.31919 0.3137 0.0
C1238 C 0.49823 0.31004 0.34803 0.0
C1239 C 0.5066 0.28523 0.32317 0.0
C1240 C 0.49716 0.32444 0.33297 0.0
C1241 C 0.50536 0.30006 0.30853 0.0
C1242 C 0.46581 0.25352 0.40345 0.0
C1243 C 0.45648 0.25048 0.43804 0.0
N1244 N 0.43738 0.25539 0.43324 0.0
C1245 C 0.4461 0.2585 0.39883 0.0
C1246 C 0.47108 0.24942 0.42317 0.0
C1247 C 0.43194 0.25938 0.41412 0.0
C1248 C 0.45208 0.23601 0.33908 0.0
N1249 N 0.46175 0.2535 0.34259 0.0
C1250 C 0.43815 0.27135 0.32254 0.0
C1251 C 0.45503 0.27103 0.33475 0.0
C1252 C 0.42781 0.2535 0.31855 0.0
C1253 C 0.43502 0.23566 0.32711 0.0
H1254 H 0.45753 0.22232 0.34576 0.0
H1255 H 0.46266 0.28484 0.33805 0.0
C1256 C 0.51611 0.30374 0.4116 0.0
N1257 N 0.49999 0.29538 0.40258 0.0
C1258 C 0.51411 0.32162 0.42227 0.0
C1259 C 0.47911 0.32224 0.41374 0.0
C1260 C 0.48172 0.3042 0.40352 0.0
C1261 C 0.49544 0.33117 0.42326 0.0
H1262 H 0.53058 0.29671 0.41027 0.0
H1263 H 0.46921 0.29741 0.39596 0.0
C1264 C 0.50395 0.21555 0.34341 0.0
N1265 N 0.50515 0.18627 0.3144 0.0
C1266 C 0.50823 0.19574 0.34858 0.0
C1267 C 0.50025 0.22048 0.32352 0.0
C1268 C 0.5088 0.18115 0.33368 0.0
C1269 C 0.50092 0.20544 0.30906 0.0
C1270 C 0.5402 0.25312 0.40402 0.0
C1271 C 0.56009 0.24958 0.39878 0.0
C1272 C 0.53511 0.25601 0.42403 0.0
C1273 C 0.57459 0.24898 0.4137 0.0
C1274 C 0.55006 0.25534 0.4385 0.0
N1275 N 0.56932 0.25186 0.43308 0.0
C1276 C 0.55651 0.26799 0.3407 0.0
C1277 C 0.55344 0.23267 0.34025 0.0
C1278 C 0.57534 0.26672 0.33177 0.0
N1279 N 0.54613 0.25107 0.34498 0.0
C1280 C 0.57207 0.23072 0.33109 0.0
C1281 C 0.58346 0.24786 0.32714 0.0
H1282 H 0.55045 0.28241 0.34482 0.0
H1283 H 0.54517 0.21942 0.34428 0.0
C1284 C 0.48804 0.19872 0.40393 0.0
N1285 N 0.50463 0.21028 0.40231 0.0
C1286 C 0.48917 0.17982 0.41284 0.0
C1287 C 0.52426 0.18539 0.41881 0.0
C1288 C 0.52251 0.20402 0.40957 0.0
C1289 C 0.50754 0.17286 0.42022 0.0
H1290 H 0.47407 0.20395 0.39776 0.0
H1291 H 0.53563 0.21311 0.40757 0.0
O1292 O 0.50398 0.27605 0.35763 0.0
O1293 O 0.47967 0.25205 0.38855 0.0
O1294 O 0.50316 0.22994 0.35786 0.0
O1295 O 0.52586 0.2538 0.38955 0.0
H1296 H 0.49544 0.31422 0.36337 0.0
H1297 H 0.51039 0.27002 0.31911 0.0
H1298 H 0.49351 0.33978 0.33661 0.0
H1299 H 0.50812 0.29638 0.29307 0.0
H1300 H 0.46032 0.24733 0.45339 0.0
H1301 H 0.44179 0.26156 0.38358 0.0
H1302 H 0.48622 0.24528 0.42692 0.0
H1303 H 0.41662 0.26318 0.41077 0.0
H1304 H 0.43335 0.28547 0.31624 0.0
H1305 H 0.42737 0.22158 0.32493 0.0
H1306 H 0.52711 0.32821 0.42922 0.0
H1307 H 0.46449 0.32913 0.41422 0.0
H1308 H 0.51112 0.19168 0.36393 0.0
H1309 H 0.49678 0.23571 0.31931 0.0
H1310 H 0.51212 0.16577 0.33746 0.0
H1311 H 0.49805 0.20902 0.29359 0.0
H1312 H 0.56428 0.24729 0.38336 0.0
H1313 H 0.51981 0.25887 0.42831 0.0
H1314 H 0.59004 0.24624 0.40986 0.0
H1315 H 0.54636 0.2576 0.45404 0.0
H1316 H 0.58362 0.28031 0.32882 0.0
H1317 H 0.57789 0.21592 0.32798 0.0
H1318 H 0.47588 0.17068 0.41378 0.0
H1319 H 0.53874 0.1805 0.42407 0.0
Li1320 Li 0.49958 0.7695 0.10961 0.0
Li1321 Li 0.51831 0.75101 0.13574 0.0
Li1322 Li 0.49864 0.73303 0.10972 0.0
Li1323 Li 0.48173 0.75096 0.13724 0.0
C1324 C 0.53642 0.75114 0.09247 0.0
N1325 N 0.56602 0.75203 0.06377 0.0
C1326 C 0.55614 0.75523 0.09785 0.0
C1327 C 0.53174 0.74751 0.07251 0.0
C1328 C 0.57088 0.75562 0.08312 0.0
C1329 C 0.54693 0.74802 0.05822 0.0
C1330 C 0.50127 0.78822 0.15368 0.0
C1331 C 0.49935 0.79718 0.18845 0.0
N1332 N 0.50286 0.81661 0.18354 0.0
C1333 C 0.50483 0.80827 0.14897 0.0
C1334 C 0.49848 0.78259 0.17356 0.0
C1335 C 0.5056 0.8224 0.16428 0.0
C1336 C 0.48285 0.80086 0.08782 0.0
N1337 N 0.50028 0.79189 0.09288 0.0
C1338 C 0.51877 0.81412 0.07209 0.0
C1339 C 0.51807 0.79835 0.08563 0.0
C1340 C 0.50099 0.82364 0.06636 0.0
C1341 C 0.48287 0.81693 0.07459 0.0
H1342 H 0.46897 0.79547 0.09405 0.0
H1343 H 0.53175 0.79123 0.09027 0.0
C1344 C 0.55218 0.73216 0.14982 0.0
N1345 N 0.54233 0.74993 0.14973 0.0
C1346 C 0.57096 0.73069 0.15856 0.0
C1347 C 0.56899 0.76589 0.16688 0.0
C1348 C 0.55031 0.76669 0.15786 0.0
C1349 C 0.57953 0.74771 0.16725 0.0
H1350 H 0.54551 0.7192 0.14285 0.0
H1351 H 0.54235 0.78073 0.15703 0.0
C1352 C 0.46209 0.74869 0.09346 0.0
N1353 N 0.43415 0.74308 0.06378 0.0
C1354 C 0.44283 0.74235 0.0983 0.0
C1355 C 0.46716 0.75224 0.07355 0.0
C1356 C 0.42891 0.73958 0.08308 0.0
C1357 C 0.45282 0.74929 0.05875 0.0
C1358 C 0.50137 0.71356 0.15277 0.0
C1359 C 0.4988 0.69348 0.14757 0.0
C1360 C 0.50514 0.71868 0.17259 0.0
C1361 C 0.49998 0.67882 0.16238 0.0
C1362 C 0.50618 0.70358 0.18697 0.0
N1363 N 0.5036 0.68413 0.18161 0.0
C1364 C 0.51793 0.70177 0.09288 0.0
C1365 C 0.48294 0.70012 0.08771 0.0
C1366 C 0.5206 0.6833 0.08383 0.0
N1367 N 0.49938 0.70972 0.09462 0.0
C1368 C 0.48491 0.68143 0.07864 0.0
C1369 C 0.50395 0.67282 0.07684 0.0
H1370 H 0.53058 0.70951 0.09917 0.0
H1371 H 0.46832 0.70662 0.08977 0.0
C1372 C 0.45102 0.76687 0.1613 0.0
N1373 N 0.45978 0.7498 0.15468 0.0
C1374 C 0.43503 0.76588 0.17462 0.0
C1375 C 0.43738 0.72977 0.17384 0.0
C1376 C 0.4532 0.73148 0.16045 0.0
C1377 C 0.42807 0.74712 0.18114 0.0
H1378 H 0.45641 0.78124 0.15619 0.0
H1379 H 0.46023 0.71815 0.15463 0.0
O1380 O 0.52186 0.75054 0.10679 0.0
O1381 O 0.5001 0.77434 0.13877 0.0
O1382 O 0.47566 0.75199 0.10827 0.0
O1383 O 0.5002 0.72806 0.13843 0.0
H1384 H 0.56002 0.75815 0.11321 0.0
H1385 H 0.51657 0.74423 0.06813 0.0
H1386 H 0.5862 0.75877 0.08707 0.0
H1387 H 0.54355 0.74521 0.04271 0.0
H1388 H 0.49716 0.79306 0.2039 0.0
H1389 H 0.50693 0.81285 0.13362 0.0
H1390 H 0.49547 0.7672 0.17743 0.0
H1391 H 0.50833 0.83798 0.16086 0.0
H1392 H 0.53307 0.81868 0.06611 0.0
H1393 H 0.46884 0.82417 0.07111 0.0
H1394 H 0.57856 0.71639 0.15877 0.0
H1395 H 0.57524 0.77936 0.17328 0.0
H1396 H 0.43867 0.73969 0.11368 0.0
H1397 H 0.48196 0.75733 0.06959 0.0
H1398 H 0.41394 0.73469 0.0866 0.0
H1399 H 0.4565 0.75199 0.04327 0.0
H1400 H 0.49587 0.68926 0.13228 0.0
H1401 H 0.50733 0.73412 0.17681 0.0
H1402 H 0.498 0.66322 0.15858 0.0
H1403 H 0.50907 0.70732 0.20238 0.0
H1404 H 0.53546 0.67695 0.08302 0.0
H1405 H 0.47175 0.67371 0.07335 0.0
H1406 H 0.428 0.77965 0.17944 0.0
H1407 H 0.4326 0.71502 0.17849 0.0
Li1408 Li 0.89188 -0.00142 0.76483 0.0
Li1409 Li 0.86435 0.97988 0.74877 0.0
Li1410 Li 0.89041 -0.00133 0.72794 0.0
Li1411 Li 0.8639 0.01706 0.74675 0.0
C1412 C 0.90799 0.96141 0.75003 0.0
N1413 N 0.93685 0.93274 0.75699 0.0
C1414 C 0.90264 0.94271 0.75769 0.0
C1415 C 0.92798 0.96549 0.74577 0.0
C1416 C 0.91745 0.92841 0.76111 0.0
C1417 C 0.94237 0.95082 0.74949 0.0
C1418 C 0.84824 -0.00205 0.785 0.0
C1419 C 0.81358 -0.00084 0.79459 0.0
N1420 N 0.81882 0.99505 0.81375 0.0
C1421 C 0.8533 0.99376 0.80478 0.0
C1422 C 0.82824 0.0007 0.77984 0.0
C1423 C 0.8382 0.99234 0.8191 0.0
C1424 C 0.91568 0.01728 0.79372 0.0
N1425 N 0.90894 -0.00085 0.7876 0.0
C1426 C 0.92433 0.98318 0.81563 0.0
C1427 C 0.91312 0.9822 0.79805 0.0
C1428 C 0.93114 0.00181 0.82255 0.0
C1429 C 0.92699 0.01893 0.81107 0.0
H1430 H 0.91185 0.03058 0.78541 0.0
H1431 H 0.90723 0.968 0.79312 0.0
C1432 C 0.842 0.94763 0.73336 0.0
N1433 N 0.84818 0.95644 0.75053 0.0
C1434 C 0.83014 0.93046 0.73402 0.0
C1435 C 0.83159 0.93144 0.77001 0.0
C1436 C 0.84339 0.94863 0.76865 0.0
C1437 C 0.82471 0.92218 0.75254 0.0
H1438 H 0.84634 0.95392 0.71914 0.0
H1439 H 0.84879 0.95568 0.78208 0.0
C1440 C 0.90776 0.03569 0.74365 0.0
N1441 N 0.93737 0.06404 0.73906 0.0
C1442 C 0.90275 0.05574 0.74043 0.0
C1443 C 0.92781 0.03005 0.74457 0.0
C1444 C 0.91794 0.06984 0.73811 0.0
C1445 C 0.94257 0.04461 0.74222 0.0
C1446 C 0.84609 -0.00123 0.71121 0.0
C1447 C 0.85064 0.0033 0.69136 0.0
C1448 C 0.82631 0.99513 0.71671 0.0
C1449 C 0.83529 0.00418 0.67734 0.0
C1450 C 0.81137 -0.00383 0.70225 0.0
N1451 N 0.81613 0.00063 0.68303 0.0
C1452 C 0.91064 0.98321 0.69381 0.0
C1453 C 0.90658 0.01843 0.69503 0.0
C1454 C 0.91912 0.98457 0.67477 0.0
N1455 N 0.90449 3e-05 0.70341 0.0
C1456 C 0.91511 0.02049 0.67617 0.0
C1457 C 0.9213 0.00341 0.66567 0.0
H1458 H 0.90855 0.96875 0.70075 0.0
H1459 H 0.90099 0.03149 0.70271 0.0
C1460 C 0.83917 0.04904 0.76102 0.0
N1461 N 0.84805 0.04061 0.74482 0.0
C1462 C 0.82836 0.06684 0.75904 0.0
C1463 C 0.83641 0.06714 0.72389 0.0
C1464 C 0.84684 0.04923 0.7265 0.0
C1465 C 0.82703 0.07616 0.74029 0.0
H1466 H 0.84075 0.04214 0.77552 0.0
H1467 H 0.85433 0.04237 0.71395 0.0
O1468 O 0.89359 0.97532 0.74603 0.0
O1469 O 0.86289 -0.00021 0.77093 0.0
O1470 O 0.89302 0.02179 0.74626 0.0
O1471 O 0.86105 -0.00278 0.72497 0.0
H1472 H 0.88719 0.93925 0.76085 0.0
H1473 H 0.93231 0.97976 0.73953 0.0
H1474 H 0.91353 0.91386 0.76699 0.0
H1475 H 0.95791 0.95377 0.74631 0.0
H1476 H 0.79804 0.00131 0.79083 0.0
H1477 H 0.86874 0.9917 0.80902 0.0
H1478 H 0.82412 0.00421 0.76467 0.0
H1479 H 0.84189 0.98912 0.83446 0.0
H1480 H 0.92691 0.96963 0.8241 0.0
H1481 H 0.93215 0.03358 0.8156 0.0
H1482 H 0.82548 0.92361 0.72017 0.0
H1483 H 0.8277 0.92561 0.78457 0.0
H1484 H 0.8873 0.06037 0.7398 0.0
H1485 H 0.93192 0.01464 0.74726 0.0
H1486 H 0.91428 0.08541 0.73562 0.0
H1487 H 0.95815 0.04049 0.74295 0.0
H1488 H 0.86588 0.00597 0.68679 0.0
H1489 H 0.82257 0.99128 0.73192 0.0
H1490 H 0.83861 0.00762 0.66192 0.0
H1491 H 0.79601 0.99334 0.70628 0.0
H1492 H 0.92388 0.97104 0.66725 0.0
H1493 H 0.91624 0.03525 0.6696 0.0
H1494 H 0.82157 0.07354 0.7721 0.0
H1495 H 0.83569 0.07386 0.70921 0.0
Li1496 Li 0.75495 0.1396 0.51485 0.0
Li1497 Li 0.77213 0.11247 0.49593 0.0
Li1498 Li 0.75386 0.14061 0.47875 0.0
Li1499 Li 0.73575 0.11347 0.49641 0.0
C1500 C 0.7918 0.15626 0.49895 0.0
N1501 N 0.82049 0.18546 0.50377 0.0
C1502 C 0.8114 0.15092 0.50364 0.0
C1503 C 0.78677 0.17642 0.49669 0.0
C1504 C 0.8257 0.16591 0.50602 0.0
C1505 C 0.8015 0.19097 0.4992 0.0
C1506 C 0.75217 0.09635 0.53355 0.0
C1507 C 0.7464 0.0622 0.54358 0.0
N1508 N 0.74875 0.06763 0.56298 0.0
C1509 C 0.75451 0.1016 0.55358 0.0
C1510 C 0.74809 0.0765 0.52847 0.0
C1511 C 0.75274 0.08686 0.56824 0.0
C1512 C 0.73547 0.1552 0.54651 0.0
N1513 N 0.75396 0.1544 0.5383 0.0
C1514 C 0.76813 0.17058 0.56654 0.0
C1515 C 0.7702 0.16204 0.54767 0.0
C1516 C 0.74921 0.17109 0.57561 0.0
C1517 C 0.73271 0.16366 0.56519 0.0
H1518 H 0.723 0.14846 0.53886 0.0
H1519 H 0.78478 0.16084 0.54087 0.0
C1520 C 0.80449 0.09164 0.47899 0.0
N1521 N 0.79405 0.09505 0.49604 0.0
C1522 C 0.8211 0.07904 0.47931 0.0
C1523 C 0.8153 0.07325 0.51448 0.0
C1524 C 0.79914 0.08627 0.51359 0.0
C1525 C 0.82654 0.06974 0.49725 0.0
H1526 H 0.80008 0.09896 0.4653 0.0
H1527 H 0.79095 0.08967 0.52701 0.0
C1528 C 0.71698 0.15676 0.49744 0.0
N1529 N 0.6874 0.18556 0.4973 0.0
C1530 C 0.69717 0.15137 0.49385 0.0
C1531 C 0.72176 0.17678 0.50099 0.0
C1532 C 0.68243 0.16615 0.49383 0.0
C1533 C 0.70658 0.19113 0.50085 0.0
C1534 C 0.75189 0.09663 0.45897 0.0
C1535 C 0.74721 0.10145 0.43925 0.0
C1536 C 0.75522 0.0767 0.46429 0.0
C1537 C 0.74585 0.08616 0.42512 0.0
C1538 C 0.75371 0.06184 0.44972 0.0
N1539 N 0.7491 0.06684 0.43061 0.0
C1540 C 0.76961 0.16494 0.44842 0.0
C1541 C 0.7343 0.16285 0.44995 0.0
C1542 C 0.7685 0.17721 0.43165 0.0
N1543 N 0.75263 0.15794 0.45699 0.0
C1544 C 0.73248 0.17521 0.43338 0.0
C1545 C 0.74973 0.18215 0.42375 0.0
H1546 H 0.78397 0.16054 0.4543 0.0
H1547 H 0.72109 0.15674 0.45686 0.0
C1548 C 0.70351 0.09886 0.51633 0.0
N1549 N 0.71227 0.09855 0.49807 0.0
C1550 C 0.68521 0.08959 0.5193 0.0
C1551 C 0.68521 0.07993 0.48451 0.0
C1552 C 0.70368 0.08929 0.48224 0.0
C1553 C 0.67574 0.0802 0.50322 0.0
H1554 H 0.71056 0.10679 0.52846 0.0
H1555 H 0.71088 0.08959 0.46781 0.0
O1556 O 0.77785 0.14169 0.49598 0.0
O1557 O 0.75418 0.11059 0.51903 0.0
O1558 O 0.73152 0.14239 0.49771 0.0
O1559 O 0.75363 0.11151 0.47282 0.0
H1560 H 0.81553 0.13534 0.5053 0.0
H1561 H 0.77171 0.18077 0.49287 0.0
H1562 H 0.84094 0.16201 0.5096 0.0
H1563 H 0.79785 0.20664 0.49745 0.0
H1564 H 0.74322 0.04678 0.53988 0.0
H1565 H 0.75781 0.11687 0.55776 0.0
H1566 H 0.7462 0.07221 0.51305 0.0
H1567 H 0.75458 0.0907 0.5838 0.0
H1568 H 0.78118 0.17629 0.57415 0.0
H1569 H 0.71796 0.16344 0.57182 0.0
H1570 H 0.82972 0.07673 0.46582 0.0
H1571 H 0.81946 0.06661 0.52862 0.0
H1572 H 0.69322 0.13594 0.49106 0.0
H1573 H 0.737 0.18117 0.50392 0.0
H1574 H 0.66704 0.16219 0.49106 0.0
H1575 H 0.71004 0.20668 0.5036 0.0
H1576 H 0.74471 0.11686 0.4349 0.0
H1577 H 0.75906 0.07276 0.47945 0.0
H1578 H 0.74226 0.08967 0.40979 0.0
H1579 H 0.75626 0.04633 0.4536 0.0
H1580 H 0.78215 0.18194 0.4244 0.0
H1581 H 0.71775 0.17876 0.42779 0.0
H1582 H 0.67822 0.0904 0.53385 0.0
H1583 H 0.67833 0.07274 0.4718 0.0
Li1584 Li 0.61408 0.00111 0.26888 0.0
Li1585 Li 0.64044 0.02001 0.25068 0.0
Li1586 Li 0.6142 0.00093 0.23254 0.0
Li1587 Li 0.64175 0.98397 0.24987 0.0
C1588 C 0.59697 0.03841 0.25014 0.0
N1589 N 0.56794 0.06777 0.24959 0.0
C1590 C 0.60222 0.0585 0.25252 0.0
C1591 C 0.57697 0.03325 0.24743 0.0
C1592 C 0.58732 0.07312 0.25221 0.0
C1593 C 0.56251 0.04831 0.24721 0.0
C1594 C 0.65782 0.00485 0.28746 0.0
C1595 C 0.69249 0.00542 0.29691 0.0
N1596 N 0.68708 0.01017 0.31589 0.0
C1597 C 0.65259 0.00974 0.30704 0.0
C1598 C 0.67791 0.00266 0.28231 0.0
C1599 C 0.66761 0.01238 0.3212 0.0
C1600 C 0.59344 0.98335 0.30063 0.0
N1601 N 0.59716 0.0009 0.29113 0.0
C1602 C 0.57438 0.01829 0.31226 0.0
C1603 C 0.58824 0.01823 0.2968 0.0
C1604 C 0.57009 0.00041 0.32239 0.0
C1605 C 0.57997 0.98277 0.31648 0.0
H1606 H 0.60091 0.96983 0.29581 0.0
H1607 H 0.59177 0.03204 0.28928 0.0
C1608 C 0.65819 0.05106 0.23105 0.0
N1609 N 0.65509 0.04348 0.24956 0.0
C1610 C 0.66683 0.06979 0.22875 0.0
C1611 C 0.66909 0.0724 0.26469 0.0
C1612 C 0.66054 0.05349 0.26628 0.0
C1613 C 0.6719 0.08094 0.24572 0.0
H1614 H 0.65329 0.04283 0.21809 0.0
H1615 H 0.65744 0.04719 0.2808 0.0
C1616 C 0.59786 0.96394 0.24871 0.0
N1617 N 0.56773 0.93603 0.24509 0.0
C1618 C 0.60232 0.94432 0.24305 0.0
C1619 C 0.5781 0.96937 0.25261 0.0
C1620 C 0.58687 0.93043 0.24128 0.0
C1621 C 0.56307 0.95504 0.25067 0.0
C1622 C 0.65701 0.00053 0.21271 0.0
C1623 C 0.65126 0.99568 0.19328 0.0
C1624 C 0.67716 0.00354 0.21704 0.0
C1625 C 0.66583 0.99385 0.17847 0.0
C1626 C 0.69128 0.00154 0.20182 0.0
N1627 N 0.68537 -0.00322 0.18302 0.0
C1628 C 0.59519 0.01969 0.20133 0.0
C1629 C 0.59317 0.98426 0.20049 0.0
C1630 C 0.58559 0.02111 0.18303 0.0
N1631 N 0.59873 0.00148 0.20958 0.0
C1632 C 0.58373 0.98496 0.18204 0.0
C1633 C 0.58006 0.00358 0.17297 0.0
H1634 H 0.60034 0.03308 0.20871 0.0
H1635 H 0.59678 0.96999 0.20714 0.0
C1636 C 0.66432 0.95459 0.26744 0.0
N1637 N 0.65911 0.96222 0.24944 0.0
C1638 C 0.67579 0.93732 0.26845 0.0
C1639 C 0.67695 0.93652 0.23236 0.0
C1640 C 0.6653 0.9538 0.23204 0.0
C1641 C 0.68178 0.92793 0.25075 0.0
H1642 H 0.65885 0.96148 0.28097 0.0
H1643 H 0.66046 0.95991 0.21795 0.0
O1644 O 0.61142 0.02395 0.25056 0.0
O1645 O 0.64322 0.0015 0.27367 0.0
O1646 O 0.6129 0.97756 0.25086 0.0
O1647 O 0.64288 0.00269 0.22727 0.0
H1648 H 0.61763 0.06276 0.25466 0.0
H1649 H 0.57268 0.0178 0.24544 0.0
H1650 H 0.59117 0.08872 0.25406 0.0
H1651 H 0.54697 0.04454 0.24512 0.0
H1652 H 0.7081 0.0037 0.29317 0.0
H1653 H 0.63708 0.01133 0.31127 0.0
H1654 H 0.68217 -0.00134 0.26727 0.0
H1655 H 0.66379 0.01612 0.33643 0.0
H1656 H 0.56707 0.03221 0.31609 0.0
H1657 H 0.57758 0.96873 0.32416 0.0
H1658 H 0.66906 0.07564 0.21385 0.0
H1659 H 0.67255 0.08058 0.27817 0.0
H1660 H 0.61758 0.93987 0.24011 0.0
H1661 H 0.57443 0.98441 0.25725 0.0
H1662 H 0.5901 0.91518 0.23691 0.0
H1663 H 0.54771 0.95901 0.25367 0.0
H1664 H 0.63572 0.9934 0.18966 0.0
H1665 H 0.68181 0.00746 0.23197 0.0
H1666 H 0.66159 0.99012 0.16337 0.0
H1667 H 0.70694 0.00381 0.20494 0.0
H1668 H 0.58283 0.03577 0.17673 0.0
H1669 H 0.58009 0.97104 0.17465 0.0
H1670 H 0.67903 0.93072 0.28286 0.0
H1671 H 0.68098 0.92924 0.21849 0.0
Li1672 Li 0.72603 0.88876 0.00646 0.0
Li1673 Li 0.74322 0.86041 0.02404 0.0
Li1674 Li 0.76281 0.8875 0.00655 0.0
Li1675 Li 0.74457 0.862 0.98716 0.0
C1676 C 0.74445 0.90478 0.04312 0.0
N1677 N 0.74466 0.93555 0.07057 0.0
C1678 C 0.74119 0.90076 0.06331 0.0
C1679 C 0.74786 0.92442 0.03686 0.0
C1680 C 0.74134 0.91653 0.07696 0.0
C1681 C 0.7479 0.93978 0.05098 0.0
C1682 C 0.70681 0.84494 0.0043 0.0
C1683 C 0.69768 0.8103 0.00035 0.0
N1684 N 0.67828 0.81518 0.00389 0.0
C1685 C 0.68679 0.84964 0.00783 0.0
C1686 C 0.71234 0.82514 0.00049 0.0
C1687 C 0.67259 0.83437 0.00759 0.0
C1688 C 0.69253 0.90796 0.99019 0.0
N1689 N 0.70255 0.90428 0.00739 0.0
C1690 C 0.67608 0.9183 0.02674 0.0
C1691 C 0.69485 0.90937 0.02545 0.0
C1692 C 0.66505 0.92166 0.0093 0.0
C1693 C 0.67362 0.91671 0.9908 0.0
H1694 H 0.69894 0.90342 0.97607 0.0
H1695 H 0.70289 0.90574 0.03891 0.0
C1696 C 0.75788 0.84459 0.05966 0.0
N1697 N 0.74185 0.84458 0.0473 0.0
C1698 C 0.75662 0.83554 0.07839 0.0
C1699 C 0.72268 0.82595 0.07088 0.0
C1700 C 0.7245 0.83544 0.05247 0.0
C1701 C 0.73872 0.82631 0.08425 0.0
H1702 H 0.77137 0.85229 0.05523 0.0
H1703 H 0.71176 0.83614 0.04274 0.0
C1704 C 0.74681 0.90562 0.96915 0.0
N1705 N 0.75088 0.93421 0.93966 0.0
C1706 C 0.75305 0.90009 0.95003 0.0
C1707 C 0.74254 0.92566 0.97326 0.0
C1708 C 0.75503 0.91477 0.93532 0.0
C1709 C 0.74475 0.93991 0.95815 0.0
C1710 C 0.7812 0.84407 0.00346 0.0
C1711 C 0.80021 0.84984 -0.0029 0.0
C1712 C 0.77727 0.82395 0.00746 0.0
C1713 C 0.81502 0.83531 0.99478 0.0
C1714 C 0.79248 0.80986 0.00492 0.0
N1715 N 0.81088 0.81578 -0.0013 0.0
C1716 C 0.79628 0.9037 0.02555 0.0
C1717 C 0.79512 0.90901 0.9906 0.0
C1718 C 0.8151 0.91259 0.0266 0.0
N1719 N 0.7868 0.90209 0.00773 0.0
C1720 C 0.81383 0.91801 0.99096 0.0
C1721 C 0.82413 0.91978 0.0091 0.0
H1722 H 0.78939 0.89771 0.03887 0.0
H1723 H 0.78754 0.90697 0.97656 0.0
C1724 C 0.72581 0.84525 0.95455 0.0
N1725 N 0.74404 0.8474 0.96306 0.0
C1726 C 0.724 0.83649 0.93582 0.0
C1727 C 0.75984 0.83237 0.93482 0.0
C1728 C 0.76094 0.84109 0.95374 0.0
C1729 C 0.74117 0.83017 0.92558 0.0
H1730 H 0.7127 0.85091 0.96208 0.0
H1731 H 0.77529 0.84337 0.96068 0.0
O1732 O 0.74438 0.88946 0.02963 0.0
O1733 O 0.72088 0.85971 0.00472 0.0
O1734 O 0.74443 0.89136 0.98359 0.0
O1735 O 0.76675 0.8582 0.00647 0.0
H1736 H 0.73853 0.88561 0.06837 0.0
H1737 H 0.75056 0.92773 0.02131 0.0
H1738 H 0.73882 0.91364 0.09264 0.0
H1739 H 0.75053 0.95507 0.04638 0.0
H1740 H 0.70172 0.7949 -0.00255 0.0
H1741 H 0.6823 0.86491 0.01082 0.0
H1742 H 0.72778 0.8213 -0.00229 0.0
H1743 H 0.65705 0.83777 0.01036 0.0
H1744 H 0.6699 0.92168 0.04129 0.0
H1745 H 0.66564 0.91924 0.977 0.0
H1746 H 0.76936 0.836 0.08829 0.0
H1747 H 0.70857 0.81922 0.07498 0.0
H1748 H 0.75631 0.88463 0.94656 0.0
H1749 H 0.73744 0.93015 0.98789 0.0
H1750 H 0.75983 0.9107 0.92045 0.0
H1751 H 0.74151 0.95549 0.96111 0.0
H1752 H 0.80353 0.86538 0.99407 0.0
H1753 H 0.76268 0.8193 0.01261 0.0
H1754 H 0.82981 0.83956 0.98992 0.0
H1755 H 0.78968 0.79422 0.00797 0.0
H1756 H 0.82247 0.9138 0.04089 0.0
H1757 H 0.8204 0.92303 0.97706 0.0
H1758 H 0.70937 0.83537 0.9291 0.0
H1759 H 0.77342 0.8276 0.92744 0.0
Li1760 Li 0.25403 0.63889 0.01479 0.0
Li1761 Li 0.27003 0.61124 -0.00383 0.0
Li1762 Li 0.25365 0.63994 0.97847 0.0
Li1763 Li 0.23371 0.61384 -0.00421 0.0
C1764 C 0.29121 0.65478 -0.00084 0.0
N1765 N 0.31961 0.68426 0.00406 0.0
C1766 C 0.31088 0.64963 0.00373 0.0
C1767 C 0.28596 0.67491 -0.00294 0.0
C1768 C 0.32503 0.66476 0.00615 0.0
C1769 C 0.30054 0.6896 -0.00038 0.0
C1770 C 0.25087 0.59549 0.03309 0.0
C1771 C 0.24565 0.56124 0.04304 0.0
N1772 N 0.25013 0.56624 0.06218 0.0
C1773 C 0.25536 0.60032 0.05285 0.0
C1774 C 0.24589 0.57584 0.02812 0.0
C1775 C 0.25492 0.58531 0.06734 0.0
C1776 C 0.23477 0.65479 0.04667 0.0
N1777 N 0.25322 0.65346 0.03843 0.0
C1778 C 0.26777 0.66985 0.06635 0.0
C1779 C 0.26965 0.66078 0.04772 0.0
C1780 C 0.24884 0.67127 0.07528 0.0
C1781 C 0.23218 0.66383 0.06513 0.0
H1782 H 0.22211 0.64832 0.03907 0.0
H1783 H 0.2842 0.65912 0.04094 0.0
C1784 C 0.29942 0.58519 0.9805 0.0
N1785 N 0.29129 0.59311 -0.0027 0.0
C1786 C 0.31568 0.57222 0.98187 0.0
C1787 C 0.31454 0.57568 0.01778 0.0
C1788 C 0.29846 0.58866 0.01569 0.0
C1789 C 0.32357 0.56754 0.00072 0.0
H1790 H 0.29357 0.5893 0.96605 0.0
H1791 H 0.29195 0.59554 0.02873 0.0
C1792 C 0.21717 0.65781 -0.00297 0.0
N1793 N 0.18846 0.68749 -0.00231 0.0
C1794 C 0.19736 0.6533 0.99237 0.0
C1795 C 0.22239 0.67741 0.00199 0.0
C1796 C 0.18306 0.66851 0.9928 0.0
C1797 C 0.20765 0.69221 0.00224 0.0
C1798 C 0.2498 0.59606 0.95871 0.0
C1799 C 0.24635 0.60109 0.93878 0.0
C1800 C 0.25143 0.57596 0.96421 0.0
C1801 C 0.24454 0.58586 0.92464 0.0
C1802 C 0.24952 0.56117 0.94962 0.0
N1803 N 0.24615 0.56638 0.93031 0.0
C1804 C 0.26949 0.66557 0.94865 0.0
C1805 C 0.23436 0.66134 0.94945 0.0
C1806 C 0.26785 0.67872 0.93256 0.0
N1807 N 0.25282 0.65728 0.95667 0.0
C1808 C 0.23201 0.67451 0.93359 0.0
C1809 C 0.24889 0.68324 0.92481 0.0
H1810 H 0.284 0.66183 0.95461 0.0
H1811 H 0.22145 0.65419 0.95593 0.0
C1812 C 0.19944 0.60351 0.01466 0.0
N1813 N 0.20927 0.6007 -0.00283 0.0
C1814 C 0.18041 0.59568 0.01733 0.0
C1815 C 0.18225 0.5818 0.98401 0.0
C1816 C 0.20115 0.59022 0.98186 0.0
C1817 C 0.1717 0.58468 0.00189 0.0
H1818 H 0.20635 0.61211 0.02643 0.0
H1819 H 0.2092 0.58858 0.96798 0.0
O1820 O 0.27734 0.64008 -0.0037 0.0
O1821 O 0.25127 0.61005 0.01876 0.0
O1822 O 0.23123 0.64296 -0.00287 0.0
O1823 O 0.25202 0.61086 0.97259 0.0
H1824 H 0.31518 0.63408 0.00529 0.0
H1825 H 0.27085 0.67912 0.99332 0.0
H1826 H 0.34033 0.66099 0.00964 0.0
H1827 H 0.29671 0.70524 -0.002 0.0
H1828 H 0.24186 0.54594 0.03942 0.0
H1829 H 0.25923 0.61548 0.05695 0.0
H1830 H 0.24219 0.57191 0.01294 0.0
H1831 H 0.2584 0.58882 0.08269 0.0
H1832 H 0.28093 0.67553 0.07377 0.0
H1833 H 0.21741 0.66439 0.0717 0.0
H1834 H 0.32246 0.56659 0.96832 0.0
H1835 H 0.32009 0.57239 0.03258 0.0
H1836 H 0.19307 0.63824 0.9884 0.0
H1837 H 0.23759 0.68112 0.00583 0.0
H1838 H 0.16768 0.66521 0.98926 0.0
H1839 H 0.21145 0.70744 0.00611 0.0
H1840 H 0.24517 0.6166 0.93429 0.0
H1841 H 0.2543 0.57183 0.97952 0.0
H1842 H 0.2419 0.58953 0.90915 0.0
H1843 H 0.25078 0.54554 0.95364 0.0
H1844 H 0.28128 0.68482 0.92595 0.0
H1845 H 0.21713 0.67767 0.92818 0.0
H1846 H 0.17271 0.59792 0.03136 0.0
H1847 H 0.17582 0.57336 0.97183 0.0
Li1848 Li 0.13838 0.51708 0.74802 0.0
Li1849 Li 0.11205 0.49929 0.76689 0.0
Li1850 Li 0.13887 0.48065 0.74777 0.0
Li1851 Li 0.11133 0.49875 0.73047 0.0
C1852 C 0.15599 0.50137 0.7849 0.0
N1853 N 0.18552 0.50601 0.81318 0.0
C1854 C 0.15113 0.50785 0.80412 0.0
C1855 C 0.17584 0.49716 0.78007 0.0
C1856 C 0.16629 0.51014 0.8182 0.0
C1857 C 0.19057 0.49962 0.79458 0.0
C1858 C 0.09566 0.53683 0.74967 0.0
C1859 C 0.06141 0.54786 0.74953 0.0
N1860 N 0.06761 0.56702 0.75231 0.0
C1861 C 0.1017 0.55664 0.75251 0.0
C1862 C 0.07536 0.53238 0.74813 0.0
C1863 C 0.08729 0.57169 0.7538 0.0
C1864 C 0.15596 0.54889 0.72846 0.0
N1865 N 0.15344 0.54035 0.74667 0.0
C1866 C 0.16914 0.56785 0.76266 0.0
C1867 C 0.15977 0.54934 0.76363 0.0
C1868 C 0.17192 0.57713 0.74404 0.0
C1869 C 0.16538 0.56735 0.72676 0.0
H1870 H 0.1502 0.54158 0.71531 0.0
H1871 H 0.1569 0.54251 0.77794 0.0
C1872 C 0.09023 0.48259 0.79841 0.0
N1873 N 0.09574 0.50002 0.78961 0.0
C1874 C 0.07702 0.48279 0.81449 0.0
C1875 C 0.07556 0.51888 0.81208 0.0
C1876 C 0.08909 0.51798 0.79635 0.0
C1877 C 0.06928 0.50112 0.82137 0.0
H1878 H 0.09602 0.46855 0.79284 0.0
H1879 H 0.09413 0.53165 0.78943 0.0
C1880 C 0.15465 0.49969 0.71058 0.0
N1881 N 0.1839 0.50056 0.68155 0.0
C1882 C 0.14956 0.49742 0.69052 0.0
C1883 C 0.17459 0.50248 0.7159 0.0
C1884 C 0.16457 0.49788 0.67606 0.0
C1885 C 0.18917 0.50286 0.70099 0.0
C1886 C 0.09449 0.46218 0.74663 0.0
C1887 C 0.09873 0.44265 0.74052 0.0
C1888 C 0.07483 0.4677 0.75086 0.0
C1889 C 0.08316 0.42892 0.73868 0.0
C1890 C 0.05967 0.45352 0.74885 0.0
N1891 N 0.06411 0.43459 0.74286 0.0
C1892 C 0.15922 0.44897 0.7651 0.0
C1893 C 0.16565 0.45294 0.73055 0.0
C1894 C 0.17272 0.43315 0.76612 0.0
N1895 N 0.15606 0.45851 0.74753 0.0
C1896 C 0.17957 0.43746 0.73095 0.0
C1897 C 0.18326 0.42729 0.74892 0.0
H1898 H 0.15125 0.45373 0.77831 0.0
H1899 H 0.16261 0.46054 0.71669 0.0
C1900 C 0.09116 0.51836 0.70039 0.0
N1901 N 0.09565 0.49988 0.70749 0.0
C1902 C 0.08226 0.52051 0.6818 0.0
C1903 C 0.08277 0.4845 0.67821 0.0
C1904 C 0.09137 0.48304 0.69707 0.0
C1905 C 0.07854 0.50348 0.67013 0.0
H1906 H 0.09528 0.53152 0.70875 0.0
H1907 H 0.09561 0.46858 0.70293 0.0
O1908 O 0.14123 0.49864 0.77113 0.0
O1909 O 0.10962 0.52196 0.74826 0.0
O1910 O 0.1401 0.49908 0.72489 0.0
O1911 O 0.10969 0.47553 0.74918 0.0
H1912 H 0.1358 0.51104 0.8081 0.0
H1913 H 0.17982 0.4919 0.76534 0.0
H1914 H 0.16275 0.51515 0.83313 0.0
H1915 H 0.206 0.49639 0.79108 0.0
H1916 H 0.04564 0.54464 0.74837 0.0
H1917 H 0.11734 0.56037 0.75371 0.0
H1918 H 0.07046 0.51716 0.7458 0.0
H1919 H 0.09175 0.58708 0.756 0.0
H1920 H 0.17356 0.57509 0.7764 0.0
H1921 H 0.16737 0.57393 0.71214 0.0
H1922 H 0.07311 0.46876 0.82153 0.0
H1923 H 0.06998 0.53335 0.81674 0.0
H1924 H 0.13417 0.49526 0.68616 0.0
H1925 H 0.17875 0.50435 0.73136 0.0
H1926 H 0.16086 0.49609 0.66047 0.0
H1927 H 0.20468 0.50498 0.70487 0.0
H1928 H 0.11393 0.43814 0.73735 0.0
H1929 H 0.07134 0.48268 0.75585 0.0
H1930 H 0.08622 0.41373 0.73401 0.0
H1931 H 0.04438 0.45755 0.75214 0.0
H1932 H 0.17457 0.42543 0.78019 0.0
H1933 H 0.18737 0.43361 0.71734 0.0
H1934 H 0.07891 0.53542 0.67642 0.0
H1935 H 0.08047 0.47095 0.6697 0.0
Li1936 Li 0.22388 0.38924 0.50936 0.0
Li1937 Li 0.24146 0.36073 0.52539 0.0
Li1938 Li 0.26069 0.38807 0.50783 0.0
Li1939 Li 0.24142 0.36272 0.48882 0.0
C1940 C 0.24289 0.40505 0.54505 0.0
N1941 N 0.24308 0.43602 0.57228 0.0
C1942 C 0.23999 0.40112 0.56532 0.0
C1943 C 0.24594 0.42469 0.53862 0.0
C1944 C 0.24013 0.417 0.57886 0.0
C1945 C 0.24595 0.44016 0.55262 0.0
C1946 C 0.20488 0.3448 0.50754 0.0
C1947 C 0.19729 0.30967 0.50485 0.0
N1948 N 0.17767 0.31382 0.50803 0.0
C1949 C 0.18466 0.34874 0.51076 0.0
C1950 C 0.21129 0.32514 0.50453 0.0
C1951 C 0.17113 0.33287 0.51096 0.0
C1952 C 0.1926 0.41127 0.49368 0.0
N1953 N 0.20091 0.4054 0.51116 0.0
C1954 C 0.17436 0.42051 0.52972 0.0
C1955 C 0.19226 0.40973 0.52902 0.0
C1956 C 0.16548 0.42683 0.51185 0.0
C1957 C 0.17487 0.4221 0.49368 0.0
H1958 H 0.19958 0.40715 0.47972 0.0
H1959 H 0.19904 0.4045 0.54268 0.0
C1960 C 0.25917 0.34247 0.55753 0.0
N1961 N 0.24142 0.34439 0.54806 0.0
C1962 C 0.2601 0.33315 0.57606 0.0
C1963 C 0.22454 0.32725 0.57434 0.0
C1964 C 0.22428 0.3369 0.5559 0.0
C1965 C 0.24256 0.32568 0.58489 0.0
H1966 H 0.27245 0.34899 0.55105 0.0
H1967 H 0.21029 0.33906 0.54823 0.0
C1968 C 0.24477 0.40653 0.47147 0.0
N1969 N 0.25072 0.4352 0.44237 0.0
C1970 C 0.25152 0.40097 0.45253 0.0
C1971 C 0.24091 0.42665 0.47557 0.0
C1972 C 0.25447 0.41569 0.43803 0.0
C1973 C 0.24406 0.44094 0.46067 0.0
C1974 C 0.27881 0.34469 0.50371 0.0
C1975 C 0.29763 0.35052 0.49684 0.0
C1976 C 0.27508 0.32453 0.50776 0.0
C1977 C 0.31239 0.33604 0.49398 0.0
C1978 C 0.29024 0.31049 0.50467 0.0
N1979 N 0.30842 0.31648 0.49791 0.0
C1980 C 0.29422 0.4057 0.52608 0.0
C1981 C 0.29377 0.40796 0.49083 0.0
C1982 C 0.31321 0.4143 0.52671 0.0
N1983 N 0.28499 0.40265 0.50831 0.0
C1984 C 0.31274 0.41649 0.49074 0.0
C1985 C 0.32286 0.41962 0.50884 0.0
H1986 H 0.28703 0.401 0.53975 0.0
H1987 H 0.28643 0.4048 0.47687 0.0
C1988 C 0.22311 0.3427 0.4565 0.0
N1989 N 0.24084 0.34808 0.46468 0.0
C1990 C 0.22259 0.33337 0.43787 0.0
C1991 C 0.25856 0.33543 0.43649 0.0
C1992 C 0.25839 0.3445 0.45519 0.0
C1993 C 0.24048 0.32982 0.42747 0.0
H1994 H 0.20935 0.346 0.46425 0.0
H1995 H 0.27222 0.34942 0.46179 0.0
O1996 O 0.24319 0.38961 0.53171 0.0
O1997 O 0.21823 0.36024 0.50717 0.0
O1998 O 0.24131 0.39222 0.48566 0.0
O1999 O 0.26437 0.35877 0.50707 0.0
H2000 H 0.23773 0.38595 0.57052 0.0
H2001 H 0.24845 0.42791 0.52302 0.0
H2002 H 0.23793 0.41419 0.5946 0.0
H2003 H 0.24832 0.45544 0.54787 0.0
H2004 H 0.20202 0.29436 0.50253 0.0
H2005 H 0.17949 0.36392 0.51306 0.0
H2006 H 0.22687 0.32188 0.50186 0.0
H2007 H 0.15542 0.3357 0.51342 0.0
H2008 H 0.16755 0.42382 0.54399 0.0
H2009 H 0.16827 0.42625 0.47954 0.0
H2010 H 0.27428 0.3327 0.58374 0.0
H2011 H 0.21072 0.32153 0.58046 0.0
H2012 H 0.25443 0.38548 0.44901 0.0
H2013 H 0.23535 0.43119 0.49003 0.0
H2014 H 0.2597 0.41158 0.42332 0.0
H2015 H 0.24112 0.45657 0.46362 0.0
H2016 H 0.30083 0.36606 0.49376 0.0
H2017 H 0.26072 0.3198 0.51339 0.0
H2018 H 0.32701 0.34035 0.48866 0.0
H2019 H 0.28757 0.29483 0.50774 0.0
H2020 H 0.32028 0.41662 0.54102 0.0
H2021 H 0.31966 0.41993 0.47655 0.0
H2022 H 0.20832 0.32908 0.43168 0.0
H2023 H 0.27272 0.33346 0.42895 0.0
Li2024 Li 0.38909 0.49795 0.2655 0.0
Li2025 Li 0.36204 0.47905 0.24843 0.0
Li2026 Li 0.38863 0.49781 0.22841 0.0
Li2027 Li 0.36154 0.516 0.24649 0.0
C2028 C 0.4056 0.46027 0.24793 0.0
N2029 N 0.43431 0.43067 0.24995 0.0
C2030 C 0.40032 0.44083 0.25351 0.0
C2031 C 0.42544 0.46465 0.24326 0.0
C2032 C 0.41506 0.42607 0.25445 0.0
C2033 C 0.43975 0.44948 0.24443 0.0
C2034 C 0.34534 0.49692 0.28474 0.0
C2035 C 0.31074 0.49812 0.29449 0.0
N2036 N 0.316 0.49327 0.31347 0.0
C2037 C 0.35043 0.49202 0.30434 0.0
C2038 C 0.32536 0.50008 0.27974 0.0
C2039 C 0.33537 0.4902 0.31865 0.0
C2040 C 0.40647 0.51636 0.2987 0.0
N2041 N 0.40582 0.49889 0.28838 0.0
C2042 C 0.42866 0.48368 0.31118 0.0
C2043 C 0.41648 0.48265 0.29434 0.0
C2044 C 0.42967 0.50153 0.32221 0.0
C2045 C 0.41829 0.51801 0.31574 0.0
H2046 H 0.39764 0.52897 0.29374 0.0
H2047 H 0.41549 0.46881 0.28615 0.0
C2048 C 0.34247 0.44479 0.23333 0.0
N2049 N 0.34703 0.45498 0.25025 0.0
C2050 C 0.33378 0.42581 0.23452 0.0
C2051 C 0.33403 0.42853 0.27046 0.0
C2052 C 0.3429 0.44731 0.26858 0.0
C2053 C 0.32972 0.41735 0.2533 0.0
H2054 H 0.34616 0.45113 0.21895 0.0
H2055 H 0.34722 0.45541 0.2818 0.0
C2056 C 0.40548 0.53473 0.24664 0.0
N2057 N 0.43549 0.56299 0.2465 0.0
C2058 C 0.40098 0.55485 0.2432 0.0
C2059 C 0.42521 0.52895 0.25008 0.0
C2060 C 0.41637 0.56891 0.24314 0.0
C2061 C 0.44018 0.54348 0.24996 0.0
C2062 C 0.34476 0.49827 0.21032 0.0
C2063 C 0.3499 0.50318 0.1907 0.0
C2064 C 0.32476 0.49522 0.21534 0.0
C2065 C 0.33488 0.50509 0.17642 0.0
C2066 C 0.31017 0.4973 0.20063 0.0
N2067 N 0.31549 0.50215 0.18164 0.0
C2068 C 0.40896 0.48241 0.1945 0.0
C2069 C 0.40796 0.51777 0.19723 0.0
C2070 C 0.41799 0.48384 0.17575 0.0
N2071 N 0.40392 0.49927 0.20465 0.0
C2072 C 0.41714 0.51989 0.17866 0.0
C2073 C 0.42185 0.5028 0.16748 0.0
H2074 H 0.40536 0.4679 0.20067 0.0
H2075 H 0.40331 0.53092 0.20534 0.0
C2076 C 0.34177 0.54999 0.26188 0.0
N2077 N 0.34648 0.53997 0.24489 0.0
C2078 C 0.3335 0.56916 0.26083 0.0
C2079 C 0.33448 0.567 0.22486 0.0
C2080 C 0.34291 0.54798 0.2266 0.0
C2081 C 0.33009 0.57802 0.24212 0.0
H2082 H 0.34514 0.5434 0.27622 0.0
H2083 H 0.34743 0.54001 0.21334 0.0
O2084 O 0.39134 0.47486 0.24692 0.0
O2085 O 0.35996 0.49894 0.27066 0.0
O2086 O 0.39055 0.52082 0.24676 0.0
O2087 O 0.35933 0.49613 0.22439 0.0
H2088 H 0.38502 0.43717 0.25711 0.0
H2089 H 0.42973 0.47959 0.23879 0.0
H2090 H 0.4112 0.41096 0.25876 0.0
H2091 H 0.45518 0.45265 0.24092 0.0
H2092 H 0.2952 0.50052 0.29086 0.0
H2093 H 0.36587 0.48961 0.30844 0.0
H2094 H 0.32122 0.50408 0.26468 0.0
H2095 H 0.33909 0.48638 0.33388 0.0
H2096 H 0.43723 0.47063 0.31542 0.0
H2097 H 0.41816 0.53194 0.32395 0.0
H2098 H 0.33051 0.41774 0.22092 0.0
H2099 H 0.33136 0.42245 0.2852 0.0
H2100 H 0.38576 0.55955 0.24053 0.0
H2101 H 0.4289 0.51345 0.25291 0.0
H2102 H 0.41312 0.58454 0.24043 0.0
H2103 H 0.45552 0.53925 0.25263 0.0
H2104 H 0.36533 0.50548 0.18655 0.0
H2105 H 0.32058 0.49121 0.2304 0.0
H2106 H 0.33863 0.5089 0.16119 0.0
H2107 H 0.29462 0.49501 0.20429 0.0
H2108 H 0.42156 0.4703 0.16763 0.0
H2109 H 0.41963 0.53475 0.17271 0.0
H2110 H 0.33016 0.57712 0.2745 0.0
H2111 H 0.33232 0.57339 0.21017 0.0
O2112 O 0.02672 0.01502 -0.00211 0.0
Mn2113 Mn -0.00088 0.00093 0.00168 0.0
O2114 O 0.05013 0.99083 -0.0012 0.0
Mn2115 Mn 0.03335 0.97048 0.00683 0.0
O2116 O 0.97142 0.98684 0.00558 0.0
O2117 O 0.98784 0.02784 0.00878 0.0
Mn2118 Mn 0.96457 0.03132 -0.00264 0.0
O2119 O 0.99234 0.00534 0.97136 0.0
O2120 O 0.94827 0.01126 0.00688 0.0
O2121 O 0.00584 -0.00334 0.0321 0.0
O2122 O 0.02732 0.97081 0.03369 0.0
O2123 O 0.96943 0.05449 0.01135 0.0
O2124 O 0.9695 0.03009 0.97025 0.0
C2125 C 0.0131 0.95644 0.9869 0.0
C2126 C 0.04493 0.00908 -0.00298 0.0
C2127 C 0.95334 0.99292 0.0078 0.0
C2128 C 0.98604 0.04571 0.01584 0.0
C2129 C 0.98094 0.01747 0.96168 0.0
C2130 C 0.01641 0.98401 0.04204 0.0
O2131 O 0.01057 0.97407 0.9944 0.0
O2132 O 0.02954 0.94769 0.99203 0.0
O2133 O 0.28286 0.74839 0.24599 0.0
Mn2134 Mn 0.25201 0.74737 0.24973 0.0
O2135 O 0.28925 0.77374 0.22468 0.0
Mn2136 Mn 0.26304 0.77866 0.2174 0.0
O2137 O 0.221 0.74643 0.25315 0.0
O2138 O 0.25518 0.71945 0.25996 0.0
Mn2139 Mn 0.23915 0.71489 0.28008 0.0
O2140 O 0.25473 0.75888 0.27844 0.0
O2141 O 0.21396 0.71793 0.26952 0.0
O2142 O 0.24876 0.73551 0.22131 0.0
O2143 O 0.25175 0.76091 0.19946 0.0
O2144 O 0.25341 0.69153 0.2763 0.0
O2145 O 0.24603 0.73368 0.29913 0.0
C2146 C 0.24379 0.79383 0.23789 0.0
C2147 C 0.29493 0.7598 0.23639 0.0
C2148 C 0.2086 0.73334 0.25971 0.0
C2149 C 0.26156 0.70138 0.26183 0.0
C2150 C 0.25157 0.75169 0.29594 0.0
C2151 C 0.24765 0.74277 0.20365 0.0
O2152 O 0.2492 0.77541 0.23947 0.0
O2153 O 0.25111 0.80301 0.22256 0.0
O2154 O 0.47492 0.9888 0.49223 0.0
Mn2155 Mn 0.50166 0.00308 0.49838 0.0
O2156 O 0.45081 0.01226 0.49424 0.0
Mn2157 Mn 0.46609 0.0317 0.50655 0.0
O2158 O 0.52846 0.01745 0.50455 0.0
O2159 O 0.51396 0.97621 0.50266 0.0
Mn2160 Mn 0.5375 0.9743 0.49141 0.0
O2161 O 0.50874 0.0022 0.46823 0.0
O2162 O 0.55254 0.99389 0.50383 0.0
O2163 O 0.49451 0.00335 0.52843 0.0
O2164 O 0.47148 0.02742 0.53337 0.0
O2165 O 0.5326 0.94984 0.50347 0.0
O2166 O 0.53209 0.97808 0.46458 0.0
C2167 C 0.48658 0.04824 0.48843 0.0
C2168 C 0.4568 0.9946 0.4902 0.0
C2169 C 0.54652 0.01169 0.5072 0.0
C2170 C 0.5159 0.95804 0.5086 0.0
C2171 C 0.51994 0.99095 0.45745 0.0
C2172 C 0.48329 0.01391 0.53976 0.0
O2173 O 0.48927 0.0301 0.49434 0.0
O2174 O 0.47011 0.05625 0.49456 0.0
O2175 O 0.27341 0.25459 0.76948 0.0
Mn2176 Mn 0.24922 0.25057 0.75098 0.0
O2177 O 0.30082 0.25054 0.75032 0.0
Mn2178 Mn 0.28808 0.24474 0.7266 0.0
O2179 O 0.22441 0.246 0.73289 0.0
O2180 O 0.23348 0.24398 0.77516 0.0
Mn2181 Mn 0.2101 0.25555 0.77604 0.0
O2182 O 0.24203 0.28053 0.7539 0.0
O2183 O 0.1979 0.24469 0.75385 0.0
O2184 O 0.25667 0.22027 0.74802 0.0
O2185 O 0.27997 0.21865 0.72389 0.0
O2186 O 0.21302 0.24126 0.79971 0.0
O2187 O 0.21587 0.28277 0.77495 0.0
C2188 C 0.27187 0.26771 0.71174 0.0
C2189 C 0.29229 0.25401 0.76696 0.0
C2190 C 0.2059 0.2426 0.73668 0.0
C2191 C 0.23031 0.23668 0.79251 0.0
C2192 C 0.22947 0.29069 0.76417 0.0
C2193 C 0.26807 0.21033 0.73615 0.0
O2194 O 0.26568 0.25818 0.72724 0.0
O2195 O 0.28924 0.26213 0.70537 0.0
O2196 O -0.0025 0.96953 0.48963 0.0
Mn2197 Mn 0.00211 -0.00132 0.49881 0.0
O2198 O 0.00818 0.94945 0.5145 0.0
Mn2199 Mn 0.01894 0.9693 0.53067 0.0
O2200 O 0.00679 0.02792 0.50788 0.0
O2201 O 0.00105 0.00745 0.47028 0.0
Mn2202 Mn 0.98435 0.02745 0.46718 0.0
O2203 O 0.97144 0.00257 0.50256 0.0
O2204 O 0.99477 0.04755 0.48328 0.0
O2205 O 0.03285 0.99483 0.49544 0.0
O2206 O 0.04367 0.97891 0.52303 0.0
O2207 O 0.99532 0.02252 0.44232 0.0
O2208 O 0.95979 0.01753 0.47492 0.0
C2209 C -0.0018 0.98864 0.54573 0.0
C2210 C 0.00019 0.95221 0.49742 0.0
C2211 C 0.00347 0.04514 0.50007 0.0
C2212 C 0.00548 0.00901 0.45166 0.0
C2213 C 0.95709 0.00874 0.49154 0.0
C2214 C 0.04684 0.9882 0.50672 0.0
O2215 O 0.00301 0.98982 0.52722 0.0
O2216 O 0.00768 0.97483 0.55533 0.0
O2217 O 0.26569 0.77892 0.75155 0.0
Mn2218 Mn 0.25167 0.75162 0.74757 0.0
O2219 O 0.24266 0.80249 0.74418 0.0
Mn2220 Mn 0.22246 0.78567 0.73561 0.0
O2221 O 0.23734 0.72443 0.74363 0.0
O2222 O 0.27862 0.73893 0.74494 0.0
Mn2223 Mn 0.27996 0.71657 0.75864 0.0
O2224 O 0.2515 0.74693 0.77811 0.0
O2225 O 0.26059 0.70036 0.74754 0.0
O2226 O 0.25132 0.7557 0.71678 0.0
O2227 O 0.22474 0.77526 0.71025 0.0
O2228 O 0.30471 0.7199 0.74685 0.0
O2229 O 0.27489 0.72364 0.78489 0.0
C2230 C 0.20776 0.76847 0.75821 0.0
C2231 C 0.25992 0.79716 0.75019 0.0
C2232 C 0.24296 0.70612 0.74327 0.0
C2233 C 0.29684 0.73599 0.73958 0.0
C2234 C 0.26146 0.73605 0.79026 0.0
C2235 C 0.23876 0.76361 0.70469 0.0
O2236 O 0.22499 0.76452 0.75077 0.0
O2237 O 0.19919 0.7839 0.75034 0.0
O2238 O 0.48271 -0.00385 0.9739 0.0
Mn2239 Mn 0.49803 0.00053 0.00041 0.0
O2240 O 0.5057 -0.00164 0.94933 0.0
Mn2241 Mn 0.5263 0.00875 0.9644 0.0
O2242 O 0.51352 0.0047 0.0268 0.0
O2243 O 0.47197 0.005 0.01409 0.0
Mn2244 Mn 0.47059 0.99252 0.03707 0.0
O2245 O 0.4964 0.97007 0.00607 0.0
O2246 O 0.49119 0.00329 0.05195 0.0
O2247 O 0.4997 0.03113 0.99477 0.0
O2248 O 0.52402 0.03533 0.97182 0.0
O2249 O 0.44618 0.00504 0.03342 0.0
O2250 O 0.47351 0.96573 0.0304 0.0
C2251 C 0.54162 0.98859 0.98398 0.0
C2252 C 0.4881 0.99464 0.9556 0.0
C2253 C 0.50873 0.00633 0.04522 0.0
C2254 C 0.45384 0.01063 0.01662 0.0
C2255 C 0.4857 0.95893 0.01741 0.0
C2256 C 0.51127 0.0422 0.98422 0.0
O2257 O 0.52413 0.99582 0.98696 0.0
O2258 O 0.54988 0.9946 0.96762 0.0
O2259 O 0.27922 0.25043 0.25678 0.0
Mn2260 Mn 0.24816 0.25031 0.25157 0.0
O2261 O 0.28567 0.22499 0.27787 0.0
Mn2262 Mn 0.25962 0.22195 0.28644 0.0
O2263 O 0.21718 0.25009 0.24611 0.0
O2264 O 0.25099 0.27709 0.23876 0.0
Mn2265 Mn 0.2372 0.279 0.21668 0.0
O2266 O 0.25293 0.23593 0.22431 0.0
O2267 O 0.21094 0.27509 0.22437 0.0
O2268 O 0.24349 0.26482 0.27878 0.0
O2269 O 0.25039 0.24227 0.3029 0.0
O2270 O 0.25011 0.30328 0.21989 0.0
O2271 O 0.248 0.25932 0.20047 0.0
C2272 C 0.23942 0.20558 0.26782 0.0
C2273 C 0.29143 0.23898 0.2663 0.0
C2274 C 0.20511 0.26113 0.23596 0.0
C2275 C 0.25728 0.29499 0.23576 0.0
C2276 C 0.25304 0.24176 0.20603 0.0
C2277 C 0.24482 0.25961 0.29717 0.0
O2278 O 0.2453 0.2236 0.2646 0.0
O2279 O 0.24656 0.19769 0.2839 0.0
O2280 O 0.49711 0.47182 0.98514 0.0
Mn2281 Mn 0.50123 0.49933 -0.00118 0.0
O2282 O 0.50181 0.44845 0.00901 0.0
Mn2283 Mn 0.50938 0.46547 0.02937 0.0
O2284 O 0.50588 0.52673 0.01266 0.0
O2285 O 0.50609 0.51103 0.97174 0.0
Mn2286 Mn 0.49443 0.53449 0.96939 0.0
O2287 O 0.47105 0.50547 -0.00332 0.0
O2288 O 0.50694 0.55004 0.98843 0.0
O2289 O 0.5317 0.49348 0.0012 0.0
O2290 O 0.53557 0.47374 0.02815 0.0
O2291 O 0.50664 0.52949 0.94518 0.0
O2292 O 0.46744 0.5299 0.97373 0.0
C2293 C 0.48842 0.48511 0.0433 0.0
C2294 C 0.49798 0.45362 0.9911 0.0
C2295 C 0.50932 0.54455 0.00648 0.0
C2296 C 0.51236 0.51311 0.95369 0.0
C2297 C 0.46035 0.51739 0.98625 0.0
C2298 C 0.54263 0.48458 0.01418 0.0
O2299 O 0.49573 0.48753 0.0257 0.0
O2300 O 0.49447 0.46909 0.05227 0.0
O2301 O 0.77049 0.27643 0.25453 0.0
Mn2302 Mn 0.75195 0.25228 0.24823 0.0
O2303 O 0.75027 0.30265 0.26074 0.0
Mn2304 Mn 0.72773 0.29182 0.24933 0.0
O2305 O 0.73308 0.22832 0.24217 0.0
O2306 O 0.77633 0.23728 0.23937 0.0
Mn2307 Mn 0.77333 0.21164 0.24452 0.0
O2308 O 0.75604 0.24142 0.27657 0.0
O2309 O 0.75191 0.20412 0.22901 0.0
O2310 O 0.74786 0.2628 0.21947 0.0
O2311 O 0.72807 0.29 0.22172 0.0
O2312 O 0.79884 0.2146 0.23443 0.0
O2313 O 0.76886 0.21045 0.27203 0.0
C2314 C 0.71091 0.27064 0.26638 0.0
C2315 C 0.76743 0.29445 0.26035 0.0
C2316 C 0.73495 0.21173 0.2328 0.0
C2317 C 0.79429 0.23339 0.23368 0.0
C2318 C 0.762 0.22445 0.28314 0.0
C2319 C 0.73795 0.27719 0.21156 0.0
O2320 O 0.72767 0.26698 0.25769 0.0
O2321 O 0.70458 0.28876 0.26401 0.0
O2322 O 0.97668 0.49433 0.47645 0.0
Mn2323 Mn -0.00266 0.49938 0.49915 0.0
O2324 O 0.99334 0.49804 0.44765 0.0
Mn2325 Mn 0.01677 0.50629 0.4591 0.0
O2326 O 0.01739 0.50442 0.52248 0.0
O2327 O 0.97423 0.50542 0.5165 0.0
Mn2328 Mn 0.97667 0.49684 0.54093 0.0
O2329 O -0.00434 0.46957 0.50729 0.0
O2330 O -0.00137 0.51102 0.54962 0.0
O2331 O -0.00121 0.52982 0.49246 0.0
O2332 O 0.01877 0.5328 0.46586 0.0
O2333 O 0.95143 0.50852 0.53876 0.0
O2334 O 0.98116 0.4695 0.53787 0.0
C2335 C 0.03709 0.48623 0.47203 0.0
C2336 C 0.97762 0.49399 0.4574 0.0
C2337 C 0.01532 0.51067 0.54049 0.0
C2338 C 0.95671 0.51179 0.52053 0.0
C2339 C 0.98936 0.46064 0.52304 0.0
C2340 C 0.00912 0.54035 0.48031 0.0
O2341 O 0.02099 0.49234 0.48115 0.0
O2342 O 0.03945 0.4927 0.45394 0.0
O2343 O 0.77605 0.75591 0.26661 0.0
Mn2344 Mn 0.74885 0.74929 0.25323 0.0
O2345 O 0.7988 0.7608 0.24249 0.0
Mn2346 Mn 0.78408 0.74747 0.22338 0.0
O2347 O 0.72117 0.74253 0.2403 0.0
O2348 O 0.73908 0.74216 0.28032 0.0
Mn2349 Mn 0.71494 0.7507 0.28483 0.0
O2350 O 0.73959 0.77872 0.25695 0.0
O2351 O 0.69978 0.73795 0.26583 0.0
O2352 O 0.75779 0.71999 0.24961 0.0
O2353 O 0.7827 0.71994 0.22691 0.0
O2354 O 0.72309 0.73818 0.30804 0.0
O2355 O 0.71668 0.77808 0.28164 0.0
C2356 C 0.76074 0.76303 0.20824 0.0
C2357 C 0.79348 0.76113 0.26071 0.0
C2358 C 0.70387 0.73777 0.24725 0.0
C2359 C 0.73942 0.73524 0.29817 0.0
C2360 C 0.72705 0.78737 0.26861 0.0
C2361 C 0.77085 0.71105 0.2389 0.0
O2362 O 0.75942 0.75626 0.22616 0.0
O2363 O 0.77763 0.75956 0.19955 0.0
O2364 O 0.78218 0.25007 0.73992 0.0
Mn2365 Mn 0.75267 0.24742 0.74835 0.0
O2366 O 0.78371 0.27117 0.7139 0.0
Mn2367 Mn 0.75634 0.27209 0.71012 0.0
O2368 O 0.72351 0.24423 0.75789 0.0
O2369 O 0.76014 0.2218 0.76229 0.0
Mn2370 Mn 0.75382 0.22349 0.78755 0.0
O2371 O 0.75802 0.265 0.77343 0.0
O2372 O 0.72644 0.22755 0.78711 0.0
O2373 O 0.74644 0.22986 0.72348 0.0
O2374 O 0.74467 0.25075 0.69731 0.0
O2375 O 0.76419 0.19819 0.78423 0.0
O2376 O 0.76875 0.24441 0.79728 0.0
C2377 C 0.73865 0.29072 0.72851 0.0
C2378 C 0.79197 0.26027 0.7271 0.0
C2379 C 0.71603 0.23621 0.77364 0.0
C2380 C 0.76583 0.20367 0.76581 0.0
C2381 C 0.76538 0.26191 0.79076 0.0
C2382 C 0.74242 0.2336 0.7052 0.0
O2383 O 0.74527 0.27329 0.73406 0.0
O2384 O 0.74336 0.29604 0.71054 0.0
O2385 O 0.77879 0.7477 0.76075 0.0
Mn2386 Mn 0.74855 0.74879 0.75246 0.0
O2387 O 0.78084 0.72563 0.78596 0.0
Mn2388 Mn 0.7537 0.72333 0.78992 0.0
O2389 O 0.71906 0.75007 0.74312 0.0
O2390 O 0.75343 0.77667 0.73988 0.0
Mn2391 Mn 0.75004 0.76976 0.71472 0.0
O2392 O 0.75486 0.73134 0.72669 0.0
O2393 O 0.72411 0.75999 0.71149 0.0
O2394 O 0.74151 0.76526 0.7782 0.0
O2395 O 0.74145 0.74366 0.80384 0.0
O2396 O 0.75454 0.79608 0.7128 0.0
O2397 O 0.77094 0.75313 0.70891 0.0
C2398 C 0.73663 0.70442 0.77141 0.0
C2399 C 0.78893 0.73734 0.77334 0.0
C2400 C 0.71277 0.75335 0.72533 0.0
C2401 C 0.75653 0.79434 0.73196 0.0
C2402 C 0.76562 0.73533 0.71142 0.0
C2403 C 0.73837 0.76096 0.7966 0.0
O2404 O 0.74255 0.72219 0.7661 0.0
O2405 O 0.74188 0.69884 0.78914 0.0
O2406 O 0.52353 0.51876 0.49649 0.0
Mn2407 Mn 0.49805 0.50126 0.50093 0.0
O2408 O 0.54976 0.49799 0.49408 0.0
Mn2409 Mn 0.53684 0.4769 0.50634 0.0
O2410 O 0.47215 0.48423 0.50538 0.0
O2411 O 0.48339 0.52664 0.50647 0.0
Mn2412 Mn 0.46029 0.52767 0.49434 0.0
O2413 O 0.49126 0.50329 0.47046 0.0
O2414 O 0.44624 0.50585 0.50399 0.0
O2415 O 0.50501 0.4995 0.53128 0.0
O2416 O 0.53252 0.4801 0.53352 0.0
O2417 O 0.46303 0.5516 0.5081 0.0
O2418 O 0.46673 0.52626 0.46747 0.0
C2419 C 0.51736 0.45754 0.49019 0.0
C2420 C 0.54202 0.51534 0.49296 0.0
C2421 C 0.45342 0.48835 0.50661 0.0
C2422 C 0.4802 0.5444 0.51311 0.0
C2423 C 0.47948 0.51425 0.45991 0.0
C2424 C 0.51871 0.49063 0.54139 0.0
O2425 O 0.51295 0.4756 0.49552 0.0
O2426 O 0.5352 0.45191 0.49495 0.0
O2427 O 0.97565 0.48452 0.99281 0.0
Mn2428 Mn 0.00197 0.50018 -0.00201 0.0
O2429 O 0.95042 0.50637 0.99482 0.0
Mn2430 Mn 0.96546 0.5255 0.00754 0.0
O2431 O 0.029 0.51476 0.00335 0.0
O2432 O 0.01488 0.47339 0.00067 0.0
Mn2433 Mn 0.03759 0.47187 0.98788 0.0
O2434 O 0.00743 0.50041 0.96747 0.0
O2435 O 0.05287 0.49104 0.00051 0.0
O2436 O -0.00312 0.49985 0.02861 0.0
O2437 O 0.97144 0.52116 0.03404 0.0
O2438 O 0.03303 0.44679 -0.00115 0.0
O2439 O 0.03083 0.47683 0.96153 0.0
C2440 C 0.98325 0.54595 0.99163 0.0
C2441 C 0.95724 0.4891 0.99086 0.0
C2442 C 0.04713 0.50868 0.00512 0.0
C2443 C 0.01671 0.45483 0.00528 0.0
C2444 C 0.01823 0.48987 0.95564 0.0
C2445 C 0.98513 0.50951 0.04023 0.0
O2446 O 0.98862 0.52752 0.99502 0.0
O2447 O 0.9658 0.55101 -0.00173 0.0
H2448 H 0.02962 0.16036 0.04136 0.0
H2449 H 0.99031 0.04859 0.05577 0.0
H2450 H 0.98811 0.14046 0.08635 0.0
H2451 H 0.01415 0.07008 0.00014 0.0
H2452 H 0.00122 0.07947 0.07194 0.0
H2453 H 0.03338 0.12546 0.03008 0.0
C2454 C 0.02142 0.14862 0.04892 0.0
C2455 C 0.00829 0.15327 0.0646 0.0
C2456 C 0.00469 0.07718 0.05632 0.0
C2457 C 0.01296 0.11351 0.05226 0.0
C2458 C -0.00115 0.05936 0.04721 0.0
C2459 C 0.00136 0.05688 0.02665 0.0
C2460 C 0.01276 0.09267 0.04464 0.0
C2461 C 0.01206 0.07149 0.0161 0.0
C2462 C 0.02364 0.12878 0.04256 0.0
C2463 C -0.00192 0.13756 0.07396 0.0
N2464 N 0.01693 0.08906 0.02508 0.0
N2465 N 0.00061 0.11844 0.06765 0.0
H2466 H 0.09685 0.71378 0.30694 0.0
H2467 H 0.18923 0.76937 0.26191 0.0
H2468 H 0.09537 0.77754 0.29646 0.0
H2469 H 0.17913 0.70592 0.25622 0.0
H2470 H 0.15405 0.77379 0.27105 0.0
H2471 H 0.12631 0.71128 0.28624 0.0
C2472 C 0.10251 0.72726 0.3 0.0
C2473 C 0.09348 0.7459 0.30339 0.0
C2474 C 0.15942 0.759 0.26725 0.0
C2475 C 0.1278 0.74318 0.27988 0.0
C2476 C 0.17943 0.7565 0.26186 0.0
C2477 C 0.18706 0.73721 0.25871 0.0
C2478 C 0.14725 0.74204 0.26954 0.0
C2479 C 0.17385 0.721 0.25895 0.0
C2480 C 0.11944 0.72582 0.28816 0.0
C2481 C 0.10199 0.7629 0.29446 0.0
N2482 N 0.15468 0.72373 0.26466 0.0
N2483 N 0.11884 0.76118 0.28324 0.0
H2484 H 0.51179 0.86539 0.58601 0.0
H2485 H 0.48832 0.93258 0.49401 0.0
H2486 H 0.47042 0.84644 0.54067 0.0
H2487 H 0.51228 0.95595 0.5487 0.0
H2488 H 0.47687 0.90283 0.51196 0.0
H2489 H 0.50931 0.89962 0.57364 0.0
C2490 C 0.50217 0.86848 0.57342 0.0
C2491 C 0.49154 0.85304 0.56414 0.0
C2492 C 0.48395 0.91476 0.52024 0.0
C2493 C 0.48847 0.89228 0.54992 0.0
C2494 C 0.49023 0.93186 0.51004 0.0
C2495 C 0.50117 0.94663 0.51998 0.0
C2496 C 0.48924 0.91231 0.54036 0.0
C2497 C 0.50377 0.94486 0.54059 0.0
C2498 C 0.50055 0.88807 0.5665 0.0
C2499 C 0.47896 0.85793 0.54815 0.0
N2500 N 0.49831 0.92774 0.55005 0.0
N2501 N 0.47801 0.87709 0.54131 0.0
H2502 H 0.39946 0.21776 0.80908 0.0
H2503 H 0.311 0.28658 0.78172 0.0
H2504 H 0.39775 0.27878 0.83026 0.0
H2505 H 0.30368 0.22305 0.78958 0.0
H2506 H 0.3417 0.2851 0.80144 0.0
H2507 H 0.36391 0.21985 0.80176 0.0
C2508 C 0.39157 0.23154 0.81228 0.0
C2509 C 0.40153 0.24812 0.82021 0.0
C2510 C 0.33301 0.27161 0.79945 0.0
C2511 C 0.36103 0.25063 0.81191 0.0
C2512 C 0.3155 0.27252 0.7884 0.0
C2513 C 0.30514 0.25492 0.78423 0.0
C2514 C 0.34024 0.25287 0.80558 0.0
C2515 C 0.31147 0.23689 0.79269 0.0
C2516 C 0.3713 0.23269 0.80825 0.0
C2517 C 0.3907 0.26576 0.82378 0.0
N2518 N 0.32901 0.2362 0.80262 0.0
N2519 N 0.37099 0.26662 0.81944 0.0
H2520 H 0.98113 0.83092 0.45833 0.0
H2521 H 0.00179 0.94857 0.45703 0.0
H2522 H 0.01272 0.86113 0.41103 0.0
H2523 H 0.98825 0.91559 0.5107 0.0
H2524 H -0.0008 0.91755 0.43787 0.0
H2525 H 0.97791 0.86283 0.47601 0.0
C2526 C 0.98735 0.84433 0.45171 0.0
C2527 C -0.00273 0.84354 0.43333 0.0
C2528 C -0.00342 0.91717 0.45381 0.0
C2529 C 0.99346 0.87987 0.45317 0.0
C2530 C -0.00212 0.93485 0.46469 0.0
C2531 C 0.99548 0.93448 0.48546 0.0
C2532 C 0.99261 0.89914 0.46378 0.0
C2533 C 0.99053 0.91636 0.49473 0.0
C2534 C 0.98551 0.86246 0.46175 0.0
C2535 C 0.00517 0.86119 0.42532 0.0
N2536 N 0.98934 0.89933 0.48382 0.0
N2537 N 0.00304 0.87871 0.43529 0.0
H2538 H 0.4045 0.78646 0.69195 0.0
H2539 H 0.29875 0.73195 0.69972 0.0
H2540 H 0.38936 0.73068 0.66346 0.0
H2541 H 0.3225 0.7661 0.74858 0.0
H2542 H 0.32767 0.74138 0.67945 0.0
H2543 H 0.37091 0.78744 0.70694 0.0
C2544 C 0.39408 0.77452 0.68876 0.0
C2545 C 0.39976 0.75834 0.67662 0.0
C2546 C 0.32624 0.74736 0.6944 0.0
C2547 C 0.36142 0.75967 0.69319 0.0
C2548 C 0.30959 0.74227 0.70581 0.0
C2549 C 0.30825 0.74845 0.72569 0.0
C2550 C 0.34166 0.75859 0.70303 0.0
C2551 C 0.32298 0.76129 0.73317 0.0
C2552 C 0.37499 0.77512 0.69727 0.0
C2553 C 0.38572 0.74326 0.67296 0.0
N2554 N 0.33931 0.76574 0.72192 0.0
N2555 N 0.36723 0.74432 0.68117 0.0
H2556 H 0.47002 0.15849 0.95055 0.0
H2557 H 0.54094 0.06945 0.98545 0.0
H2558 H 0.53327 0.15351 0.93892 0.0
H2559 H 0.4769 0.06415 0.98402 0.0
H2560 H 0.53788 0.10506 0.97822 0.0
H2561 H 0.47195 0.12796 0.97083 0.0
C2562 C 0.4843 0.15112 0.95234 0.0
C2563 C 0.5015 0.15862 0.94293 0.0
C2564 C 0.52443 0.09623 0.97984 0.0
C2565 C 0.50382 0.12415 0.96641 0.0
C2566 C 0.5262 0.07597 0.98406 0.0
C2567 C 0.50914 0.06399 0.98507 0.0
C2568 C 0.5055 0.10441 0.97611 0.0
C2569 C 0.49036 0.07304 0.98336 0.0
C2570 C 0.48539 0.13384 0.96405 0.0
C2571 C 0.51965 0.14863 0.94609 0.0
N2572 N 0.48901 0.09274 0.97848 0.0
N2573 N 0.52028 0.13193 0.95745 0.0
H2574 H 0.10364 0.22344 0.17322 0.0
H2575 H 0.17422 0.28683 0.24138 0.0
H2576 H 0.08165 0.27312 0.20809 0.0
H2577 H 0.18748 0.22535 0.22736 0.0
H2578 H 0.13976 0.28161 0.23067 0.0
H2579 H 0.13398 0.22321 0.19335 0.0
C2580 C 0.10498 0.23412 0.18528 0.0
C2581 C 0.09002 0.24849 0.18874 0.0
C2582 C 0.15003 0.26909 0.23037 0.0
C2583 C 0.12504 0.24844 0.21169 0.0
C2584 C 0.16965 0.27205 0.23661 0.0
C2585 C 0.18361 0.25647 0.23536 0.0
C2586 C 0.14448 0.2506 0.22214 0.0
C2587 C 0.17707 0.23767 0.22876 0.0
C2588 C 0.12238 0.23397 0.19676 0.0
C2589 C 0.09291 0.26209 0.20446 0.0
N2590 N 0.15806 0.23536 0.22195 0.0
N2591 N 0.11014 0.26189 0.21515 0.0
H2592 H 0.07511 0.96423 0.15121 0.0
H2593 H 0.01331 0.01775 0.06556 0.0
H2594 H 0.05058 0.02338 0.15975 0.0
H2595 H 0.02501 0.95433 0.06826 0.0
H2596 H 0.02524 0.02091 0.10012 0.0
H2597 H 0.05644 0.96121 0.1205 0.0
C2598 C 0.06556 0.97652 0.14682 0.0
C2599 C 0.06428 0.99398 0.15837 0.0
C2600 C 0.02481 0.00627 0.09322 0.0
C2601 C 0.04295 0.99076 0.12256 0.0
C2602 C 0.01782 0.00444 0.07358 0.0
C2603 C 0.01837 0.98578 0.06396 0.0
C2604 C 0.03244 0.98934 0.1031 0.0
C2605 C 0.02457 0.96905 0.07498 0.0
C2606 C 0.0549 0.97481 0.12913 0.0
C2607 C 0.05213 0.00966 0.15132 0.0
N2608 N 0.03158 0.97128 0.09379 0.0
N2609 N 0.04198 0.00772 0.13381 0.0
H2610 H 0.22796 0.80172 0.41071 0.0
H2611 H 0.27303 0.78666 0.3011 0.0
H2612 H 0.27579 0.83854 0.38813 0.0
H2613 H 0.23103 0.74733 0.33025 0.0
H2614 H 0.27295 0.80802 0.3311 0.0
H2615 H 0.22715 0.78393 0.37924 0.0
C2616 C 0.2382 0.80616 0.399 0.0
C2617 C 0.25195 0.82159 0.40198 0.0
C2618 C 0.2638 0.79468 0.3308 0.0
C2619 C 0.25139 0.80102 0.36587 0.0
C2620 C 0.26386 0.78254 0.31377 0.0
C2621 C 0.25232 0.76503 0.31338 0.0
C2622 C 0.25186 0.78931 0.34721 0.0
C2623 C 0.24054 0.76041 0.33003 0.0
C2624 C 0.23784 0.79592 0.38104 0.0
C2625 C 0.26511 0.82653 0.38642 0.0
N2626 N 0.24062 0.77246 0.34618 0.0
N2627 N 0.26454 0.81622 0.36894 0.0
H2628 H 0.46816 0.02036 0.66648 0.0
H2629 H 0.47051 0.97886 0.55493 0.0
H2630 H 0.42715 0.97628 0.64345 0.0
H2631 H 0.49237 0.03702 0.57182 0.0
H2632 H 0.46287 0.97179 0.59002 0.0
H2633 H 0.48546 0.02041 0.63431 0.0
C2634 C 0.46289 0.01058 0.65476 0.0
C2635 C 0.44593 -0.00139 0.65754 0.0
C2636 C 0.46977 0.9859 0.5861 0.0
C2637 C 0.46581 -0.00163 0.62101 0.0
C2638 C 0.47418 0.98988 0.56619 0.0
C2639 C 0.48198 0.00852 0.56078 0.0
C2640 C 0.47347 0.00062 0.60054 0.0
C2641 C 0.48625 0.02252 0.57563 0.0
C2642 C 0.47283 0.01055 0.63649 0.0
C2643 C 0.44015 0.98575 0.64204 0.0
N2644 N 0.48186 0.01831 0.59494 0.0
N2645 N 0.44995 0.98614 0.62435 0.0
H2646 H 0.27973 0.20752 0.90453 0.0
H2647 H 0.23372 0.19658 0.79546 0.0
H2648 H 0.23922 0.16126 0.88554 0.0
H2649 H 0.2578 0.25185 0.81779 0.0
H2650 H 0.24654 0.17926 0.82494 0.0
H2651 H 0.28081 0.22025 0.8701 0.0
C2652 C 0.27121 0.19999 0.89307 0.0
C2653 C 0.2591 0.18355 0.89785 0.0
C2654 C 0.24957 0.19507 0.82314 0.0
C2655 C 0.26062 0.19763 0.85865 0.0
C2656 C 0.24252 0.20485 0.80619 0.0
C2657 C 0.24478 0.22555 0.80438 0.0
C2658 C 0.25855 0.20624 0.83843 0.0
C2659 C 0.25591 0.23579 0.81877 0.0
C2660 C 0.27189 0.20718 0.87349 0.0
C2661 C 0.24842 0.17423 0.88252 0.0
N2662 N 0.26207 0.2261 0.8355 0.0
N2663 N 0.24938 0.18143 0.86364 0.0
H2664 H 0.06318 0.96417 0.34824 0.0
H2665 H 0.04337 0.02226 0.45055 0.0
H2666 H 0.0879 0.02185 0.36298 0.0
H2667 H 0.00499 0.97579 0.42838 0.0
H2668 H 0.06675 0.01559 0.42323 0.0
H2669 H 0.04802 0.96258 0.38151 0.0
C2670 C 0.06557 0.97642 0.35852 0.0
C2671 C 0.07663 0.99329 0.35273 0.0
C2672 C 0.05354 0.00639 0.42469 0.0
C2673 C 0.05949 0.99145 0.39083 0.0
C2674 C 0.0404 0.00996 0.44047 0.0
C2675 C 0.02243 -0.00064 0.44175 0.0
C2676 C 0.04855 0.9922 0.41008 0.0
C2677 C 0.01888 0.98404 0.42799 0.0
C2678 C 0.05691 0.97549 0.37749 0.0
C2679 C 0.07917 0.00874 0.36667 0.0
N2680 N 0.0317 0.98107 0.41252 0.0
N2681 N 0.07063 0.00747 0.38502 0.0
H2682 H 0.22295 0.82058 0.60184 0.0
H2683 H 0.27378 0.76087 0.68369 0.0
H2684 H 0.27614 0.78824 0.58471 0.0
H2685 H 0.20982 0.76154 0.67685 0.0
H2686 H 0.27727 0.76892 0.64807 0.0
H2687 H 0.22 0.79959 0.63109 0.0
C2688 C 0.23384 0.8088 0.60404 0.0
C2689 C 0.24956 0.80587 0.59056 0.0
C2690 C 0.26253 0.76657 0.65429 0.0
C2691 C 0.24647 0.78199 0.6244 0.0
C2692 C 0.26054 0.76193 0.67452 0.0
C2693 C 0.24148 0.76125 0.68315 0.0
C2694 C 0.24533 0.77065 0.6431 0.0
C2695 C 0.22476 0.76259 0.67077 0.0
C2696 C 0.23213 0.7968 0.62075 0.0
C2697 C 0.26377 0.79095 0.59475 0.0
N2698 N 0.22706 0.76775 0.65142 0.0
N2699 N 0.26201 0.77958 0.61151 0.0
H2700 H 0.45657 0.98234 0.83633 0.0
H2701 H 0.45094 0.01066 0.95086 0.0
H2702 H 0.40786 0.01668 0.86089 0.0
H2703 H 0.49238 0.96824 0.92561 0.0
H2704 H 0.43209 0.01029 0.9195 0.0
H2705 H 0.46855 0.97579 0.8699 0.0
C2706 C 0.44844 0.9885 0.84889 0.0
C2707 C 0.43126 2e-05 0.84597 0.0
C2708 C 0.44502 0.0007 0.92102 0.0
C2709 C 0.44469 0.9925 0.88445 0.0
C2710 C 0.45561 0.00075 0.93893 0.0
C2711 C 0.47334 0.98977 0.94042 0.0
C2712 C 0.45244 0.98962 0.9048 0.0
C2713 C 0.47893 0.9772 0.92473 0.0
C2714 C 0.45516 0.98466 0.86805 0.0
C2715 C 0.42132 0.0079 0.86263 0.0
N2716 N 0.46868 0.97771 0.90741 0.0
N2717 N 0.42822 0.00401 0.88126 0.0
H2718 H 0.23505 0.15814 0.11049 0.0
H2719 H 0.27885 0.2478 0.17578 0.0
H2720 H 0.2731 0.2051 0.0881 0.0
H2721 H 0.23792 0.20429 0.19974 0.0
H2722 H 0.28091 0.22859 0.14499 0.0
H2723 H 0.23824 0.17219 0.14416 0.0
C2724 C 0.24395 0.17147 0.11266 0.0
C2725 C 0.25387 0.18048 0.09653 0.0
C2726 C 0.27164 0.22302 0.157 0.0
C2727 C 0.25784 0.19635 0.13486 0.0
C2728 C 0.27063 0.2339 0.17462 0.0
C2729 C 0.25813 0.2276 0.19012 0.0
C2730 C 0.25968 0.20595 0.15468 0.0
C2731 C 0.24777 0.20952 0.18804 0.0
C2732 C 0.24592 0.17934 0.13187 0.0
C2733 C 0.2654 0.19755 0.10015 0.0
N2734 N 0.24848 0.19945 0.17041 0.0
N2735 N 0.26704 0.20492 0.11889 0.0
H2736 H 0.14179 0.09109 0.97192 0.0
H2737 H 0.07137 0.01175 0.02646 0.0
H2738 H 0.15868 0.05462 0.02231 0.0
H2739 H 0.05496 0.03951 0.97084 0.0
H2740 H 0.10108 0.03246 0.02781 0.0
H2741 H 0.10823 0.07653 0.97328 0.0
C2742 C 0.13847 0.07999 0.98322 0.0
C2743 C 0.15311 0.07395 -0.00305 0.0
C2744 C 0.09104 0.03419 0.01529 0.0
C2745 C 0.11479 0.05758 -0.00125 0.0
C2746 C 0.07408 0.0224 0.01455 0.0
C2747 C 0.06105 0.02378 -0.00165 0.0
C2748 C 0.09526 0.04731 -0.00049 0.0
C2749 C 0.06487 0.03799 0.98347 0.0
C2750 C 0.1193 0.07183 0.98406 0.0
C2751 C 0.14787 0.05987 0.01153 0.0
N2752 N 0.08191 0.04909 0.98424 0.0
N2753 N 0.12921 0.05214 0.01197 0.0
H2754 H 0.66069 0.45566 0.97175 0.0
H2755 H 0.56978 0.48233 0.04384 0.0
H2756 H 0.65234 0.43419 0.03198 0.0
H2757 H 0.56482 0.48691 0.97987 0.0
H2758 H 0.60496 0.47422 0.04021 0.0
H2759 H 0.62942 0.47475 0.97485 0.0
C2760 C 0.6524 0.45504 0.98561 0.0
C2761 C 0.65925 0.44343 0.0017 0.0
C2762 C 0.59629 0.47731 0.02694 0.0
C2763 C 0.62405 0.46544 0.00541 0.0
C2764 C 0.57625 0.48203 0.02902 0.0
C2765 C 0.56441 0.4849 0.0121 0.0
C2766 C 0.60447 0.47516 0.0078 0.0
C2767 C 0.57353 0.48466 0.99325 0.0
C2768 C 0.63471 0.46603 0.98739 0.0
C2769 C 0.64801 0.44328 0.01935 0.0
N2770 N 0.59306 0.47939 0.99153 0.0
N2771 N 0.63103 0.45409 0.02069 0.0
H2772 H 0.8409 0.3917 0.22622 0.0
H2773 H 0.77285 0.31923 0.29159 0.0
H2774 H 0.80246 0.41013 0.27456 0.0
H2775 H 0.79898 0.3009 0.23575 0.0
H2776 H 0.79174 0.35032 0.28997 0.0
H2777 H 0.831 0.35689 0.23209 0.0
C2778 C 0.8302 0.38843 0.23789 0.0
C2779 C 0.82253 0.40372 0.25001 0.0
C2780 C 0.79372 0.33935 0.27825 0.0
C2781 C 0.81176 0.36415 0.25718 0.0
C2782 C 0.78321 0.32151 0.27937 0.0
C2783 C 0.78428 0.3078 0.26367 0.0
C2784 C 0.80499 0.34356 0.2611 0.0
C2785 C 0.79781 0.31127 0.24811 0.0
C2786 C 0.82481 0.36859 0.2414 0.0
C2787 C 0.80893 0.39872 0.26508 0.0
N2788 N 0.80733 0.32916 0.24691 0.0
N2789 N 0.80404 0.37935 0.26827 0.0
H2790 H 0.84336 0.54295 0.47253 0.0
H2791 H 0.95422 0.55155 0.51486 0.0
H2792 H 0.8651 0.58974 0.51097 0.0
H2793 H 0.92843 0.49558 0.49653 0.0
H2794 H 0.92497 0.56915 0.50185 0.0
H2795 H 0.87721 0.5286 0.47136 0.0
C2796 C 0.85531 0.55026 0.48055 0.0
C2797 C 0.85149 0.5673 0.49216 0.0
C2798 C 0.92593 0.55307 0.50014 0.0
C2799 C 0.88999 0.5514 0.49051 0.0
C2800 C 0.94272 0.5431 0.50729 0.0
C2801 C 0.94358 0.52223 0.50661 0.0
C2802 C 0.90982 0.54196 0.49266 0.0
C2803 C 0.92818 0.51177 0.49717 0.0
C2804 C 0.87454 0.54214 0.47983 0.0
C2805 C 0.8674 0.57635 0.50218 0.0
N2806 N 0.91167 0.52173 0.49082 0.0
N2807 N 0.88593 0.56826 0.50117 0.0
H2808 H 0.20422 0.09458 0.21841 0.0
H2809 H 0.19968 0.20113 0.27215 0.0
H2810 H 0.16682 0.10958 0.26863 0.0
H2811 H 0.24963 0.18225 0.23639 0.0
H2812 H 0.18134 0.17131 0.26168 0.0
H2813 H 0.2158 0.1295 0.21724 0.0
C2814 C 0.19836 0.10525 0.22907 0.0
C2815 C 0.18478 0.09915 0.24384 0.0
C2816 C 0.19609 0.17396 0.25561 0.0
C2817 C 0.19755 0.13898 0.24231 0.0
C2818 C 0.20639 0.19114 0.26132 0.0
C2819 C 0.22606 0.19406 0.25501 0.0
C2820 C 0.20574 0.15951 0.24381 0.0
C2821 C 0.23436 0.18049 0.24139 0.0
C2822 C 0.20492 0.12512 0.22836 0.0
C2823 C 0.1776 0.11355 0.25727 0.0
N2824 N 0.2243 0.16352 0.23651 0.0
N2825 N 0.1841 0.13273 0.2562 0.0
H2826 H 0.33768 0.95876 0.4787 0.0
H2827 H 0.4531 0.95675 0.50474 0.0
H2828 H 0.36466 0.91165 0.51344 0.0
H2829 H 0.42536 -0.00038 0.4655 0.0
H2830 H 0.42231 0.93705 0.5046 0.0
H2831 H 0.37065 0.97221 0.47167 0.0
C2832 C 0.35064 0.9513 0.48486 0.0
C2833 C 0.34858 0.93415 0.49666 0.0
C2834 C 0.42312 0.95051 0.49564 0.0
C2835 C 0.38637 0.94928 0.48859 0.0
C2836 C 0.44074 0.96159 0.49553 0.0
C2837 C 0.44146 0.97989 0.48537 0.0
C2838 C 0.40634 0.95796 0.48552 0.0
C2839 C 0.42513 0.98571 0.4738 0.0
C2840 C 0.36946 0.95887 0.48075 0.0
C2841 C 0.36573 0.92508 0.50447 0.0
N2842 N 0.4081 0.97491 0.47441 0.0
N2843 N 0.384 0.93279 0.50031 0.0
H2844 H 0.82885 0.60531 0.27797 0.0
H2845 H 0.749 0.67831 0.22808 0.0
H2846 H 0.78631 0.58512 0.2341 0.0
H2847 H 0.80141 0.697 0.2601 0.0
H2848 H 0.75739 0.64315 0.2356 0.0
H2849 H 0.81287 0.63789 0.2781 0.0
C2850 C 0.81586 0.60758 0.26866 0.0
C2851 C 0.80907 0.59257 0.25577 0.0
C2852 C 0.76692 0.65499 0.24108 0.0
C2853 C 0.7911 0.63009 0.25539 0.0
C2854 C 0.76218 0.67488 0.23675 0.0
C2855 C 0.77481 0.69015 0.24327 0.0
C2856 C 0.78416 0.65073 0.25221 0.0
C2857 C 0.79159 0.68538 0.25461 0.0
C2858 C 0.80686 0.62628 0.26859 0.0
C2859 C 0.79229 0.59648 0.24389 0.0
N2860 N 0.79582 0.66604 0.2587 0.0
N2861 N 0.784 0.61502 0.24377 0.0
H2862 H 0.67404 0.38937 0.78539 0.0
H2863 H 0.7048 0.30894 0.71797 0.0
H2864 H 0.71547 0.40673 0.73915 0.0
H2865 H 0.74787 0.30604 0.76551 0.0
H2866 H 0.69248 0.34065 0.73134 0.0
H2867 H 0.68764 0.35524 0.78412 0.0
C2868 C 0.68633 0.38623 0.77537 0.0
C2869 C 0.69336 0.40092 0.76206 0.0
C2870 C 0.70414 0.33267 0.73923 0.0
C2871 C 0.70883 0.36207 0.76075 0.0
C2872 C 0.71103 0.31454 0.73178 0.0
C2873 C 0.72713 0.30475 0.74086 0.0
C2874 C 0.71345 0.34115 0.75581 0.0
C2875 C 0.73513 0.31296 0.75838 0.0
C2876 C 0.69403 0.36676 0.77472 0.0
C2877 C 0.70921 0.39581 0.7493 0.0
N2878 N 0.72846 0.33106 0.76516 0.0
N2879 N 0.71612 0.3767 0.74866 0.0
H2880 H 0.97901 0.84164 0.95697 0.0
H2881 H 0.01151 0.95545 0.94663 0.0
H2882 H 0.00929 0.86659 0.90591 0.0
H2883 H 0.9847 0.9308 -0.00048 0.0
H2884 H 0.00209 0.92535 0.92824 0.0
H2885 H 0.97435 0.8755 0.97019 0.0
C2886 C 0.98455 0.85426 0.94848 0.0
C2887 C 0.99478 0.85128 0.93043 0.0
C2888 C -0.00235 0.92673 0.94371 0.0
C2889 C 0.98931 0.89008 0.94534 0.0
C2890 C 0.00264 0.94413 0.95407 0.0
C2891 C -0.00122 0.94556 0.97454 0.0
C2892 C 0.98919 0.91053 0.95409 0.0
C2893 C 0.98779 0.93025 0.98367 0.0
C2894 C 0.98183 0.87359 0.956 0.0
C2895 C 0.00169 0.86816 0.92008 0.0
N2896 N 0.98383 0.9131 0.97353 0.0
N2897 N -0.00108 0.88679 0.92772 0.0
H2898 H 0.9153 0.28285 0.7052 0.0
H2899 H 0.81392 0.22651 0.73079 0.0
H2900 H 0.90322 0.221 0.69092 0.0
H2901 H 0.81898 0.29029 0.72312 0.0
H2902 H 0.85016 0.2234 0.72727 0.0
H2903 H 0.8835 0.28447 0.72304 0.0
C2904 C 0.9061 0.26957 0.70599 0.0
C2905 C 0.91166 0.25193 0.69608 0.0
C2906 C 0.84337 0.23811 0.72679 0.0
C2907 C 0.87566 0.25362 0.71668 0.0
C2908 C 0.82279 0.23986 0.72886 0.0
C2909 C 0.81368 0.25862 0.72707 0.0
C2910 C 0.85476 0.25531 0.72305 0.0
C2911 C 0.82559 0.27554 0.72425 0.0
C2912 C 0.88807 0.27048 0.71628 0.0
C2913 C 0.89953 0.23495 0.69822 0.0
N2914 N 0.84561 0.27349 0.72219 0.0
N2915 N 0.88193 0.23631 0.70806 0.0
H2916 H 0.52745 0.16118 0.454 0.0
H2917 H 0.48599 0.04976 0.44821 0.0
H2918 H 0.49236 0.13791 0.40543 0.0
H2919 H 0.51529 0.07421 0.49974 0.0
H2920 H 0.4963 0.07902 0.42884 0.0
H2921 H 0.52977 0.12739 0.46793 0.0
C2922 C 0.52038 0.14892 0.44618 0.0
C2923 C 0.50946 0.1524 0.42867 0.0
C2924 C 0.50105 0.07775 0.44421 0.0
C2925 C 0.51216 0.11367 0.44445 0.0
C2926 C 0.49547 0.06086 0.45514 0.0
C2927 C 0.5 0.0596 0.47547 0.0
C2928 C 0.51085 0.09359 0.45388 0.0
C2929 C 0.51175 0.07462 0.48399 0.0
C2930 C 0.52173 0.12964 0.45412 0.0
C2931 C 0.50056 0.13598 0.41919 0.0
N2932 N 0.51646 0.09123 0.47326 0.0
N2933 N 0.50201 0.11737 0.42725 0.0
H2934 H 0.58899 0.76257 0.20366 0.0
H2935 H 0.70356 0.73624 0.20589 0.0
H2936 H 0.61401 0.72965 0.15421 0.0
H2937 H 0.66488 0.73372 0.25751 0.0
H2938 H 0.67366 0.73818 0.18454 0.0
H2939 H 0.62035 0.75861 0.22158 0.0
C2940 C 0.60118 0.75467 0.19651 0.0
C2941 C 0.59893 0.74631 0.17752 0.0
C2942 C 0.67195 0.73698 0.20056 0.0
C2943 C 0.63471 0.74158 0.19797 0.0
C2944 C 0.68892 0.73581 0.21271 0.0
C2945 C 0.68681 0.73507 0.23356 0.0
C2946 C 0.65301 0.73788 0.20949 0.0
C2947 C 0.66743 0.73445 0.24159 0.0
C2948 C 0.61898 0.75227 0.20678 0.0
C2949 C 0.61517 0.73608 0.16897 0.0
N2950 N 0.65138 0.73622 0.22958 0.0
N2951 N 0.63251 0.73399 0.17928 0.0
H2952 H 0.00112 0.16643 0.53711 0.0
H2953 H 0.01168 0.04852 0.54004 0.0
H2954 H 0.0216 0.13533 0.58959 0.0
H2955 H 0.00807 0.08294 0.48564 0.0
H2956 H 0.01663 0.07962 0.5587 0.0
H2957 H 0.00432 0.13555 0.51806 0.0
C2958 C 0.00635 0.15302 0.54456 0.0
C2959 C 0.01092 0.15324 0.5649 0.0
C2960 C 0.01505 0.08028 0.54264 0.0
C2961 C 0.0146 0.11787 0.54332 0.0
C2962 C 0.01223 0.06257 0.53199 0.0
C2963 C 0.00908 0.06322 0.51131 0.0
C2964 C 0.01463 0.09866 0.53248 0.0
C2965 C 0.00999 0.08178 0.50162 0.0
C2966 C 0.00831 0.13545 0.53369 0.0
C2967 C 0.01792 0.13564 0.57388 0.0
N2968 N 0.01247 0.09877 0.51232 0.0
N2969 N 0.01931 0.1185 0.56306 0.0
H2970 H 0.59746 0.22471 0.29616 0.0
H2971 H 0.70729 0.26951 0.3063 0.0
H2972 H 0.61673 0.26646 0.34116 0.0
H2973 H 0.68609 0.24164 0.25255 0.0
H2974 H 0.67717 0.25849 0.32365 0.0
H2975 H 0.63197 0.22269 0.28377 0.0
C2976 C 0.60897 0.23333 0.3035 0.0
C2977 C 0.6042 0.24603 0.31951 0.0
C2978 C 0.67931 0.25422 0.30822 0.0
C2979 C 0.64361 0.24348 0.30572 0.0
C2980 C 0.69668 0.26019 0.29843 0.0
C2981 C 0.69909 0.25639 0.27805 0.0
C2982 C 0.66411 0.24471 0.29739 0.0
C2983 C 0.68475 0.24469 0.26836 0.0
C2984 C 0.62862 0.23213 0.29647 0.0
C2985 C 0.61967 0.25681 0.32853 0.0
N2986 N 0.66758 0.23962 0.278 0.0
N2987 N 0.63862 0.25533 0.32149 0.0
H2988 H 0.52934 0.85318 0.06358 0.0
H2989 H 0.4572 0.93029 0.02021 0.0
H2990 H 0.47352 0.83395 0.0378 0.0
H2991 H 0.52064 0.93856 0.0136 0.0
H2992 H 0.46274 0.89451 0.02541 0.0
H2993 H 0.52731 0.88389 0.0442 0.0
C2994 C 0.51686 0.85515 0.05355 0.0
C2995 C 0.50135 0.84106 0.05267 0.0
C2996 C 0.47541 0.90406 0.02231 0.0
C2997 C 0.49878 0.87647 0.03086 0.0
C2998 C 0.47226 0.92443 0.01945 0.0
C2999 C 0.48853 0.93723 0.01664 0.0
C3000 C 0.495 0.89668 0.02301 0.0
C3001 C 0.50776 0.92905 0.01569 0.0
C3002 C 0.51573 0.87274 0.04249 0.0
C3003 C 0.48547 0.84468 0.03951 0.0
N3004 N 0.51055 0.90927 0.01939 0.0
N3005 N 0.48437 0.86224 0.02943 0.0
H3006 H 0.91221 0.77575 0.7919 0.0
H3007 H 0.81486 0.70775 0.78207 0.0
H3008 H 0.89962 0.72239 0.82603 0.0
H3009 H 0.81293 0.77039 0.76665 0.0
H3010 H 0.85007 0.71096 0.78989 0.0
H3011 H 0.87923 0.77264 0.77601 0.0
C3012 C 0.90262 0.76339 0.79603 0.0
C3013 C 0.90889 0.74918 0.81022 0.0
C3014 C 0.84206 0.72402 0.78465 0.0
C3015 C 0.87154 0.74541 0.79186 0.0
C3016 C 0.82196 0.72218 0.78011 0.0
C3017 C 0.8109 0.73891 0.77407 0.0
C3018 C 0.85129 0.7428 0.78342 0.0
C3019 C 0.82096 0.75716 0.7714 0.0
C3020 C 0.8839 0.76161 0.78688 0.0
C3021 C 0.89585 0.73342 0.81484 0.0
N3022 N 0.84063 0.75874 0.77643 0.0
N3023 N 0.87794 0.73198 0.80568 0.0
H3024 H 0.95897 0.97666 0.84005 0.0
H3025 H 0.96899 0.04667 0.93621 0.0
H3026 H 0.92608 0.0313 0.85025 0.0
H3027 H 0.98824 0.98505 0.93711 0.0
H3028 H 0.95947 0.04294 0.90151 0.0
H3029 H 0.97473 0.98066 0.87294 0.0
C3030 C 0.95507 0.98947 0.84913 0.0
C3031 C 0.94129 0.00378 0.84221 0.0
C3032 C 0.96594 0.03023 0.90917 0.0
C3033 C 0.95944 0.00852 0.87958 0.0
C3034 C 0.9715 0.03238 0.92901 0.0
C3035 C 0.97922 0.01607 0.93969 0.0
C3036 C 0.96798 0.0116 0.89977 0.0
C3037 C 0.98233 -0.002 0.92943 0.0
C3038 C 0.96414 0.99177 0.86782 0.0
C3039 C 0.93694 0.02013 0.8546 0.0
N3040 N 0.97646 -0.00386 0.91004 0.0
N3041 N 0.94597 0.02203 0.87257 0.0
H3042 H 0.77261 0.16211 0.60767 0.0
H3043 H 0.71091 0.23224 0.68028 0.0
H3044 H 0.71971 0.19481 0.5908 0.0
H3045 H 0.76282 0.19907 0.69878 0.0
H3046 H 0.70964 0.21257 0.64971 0.0
H3047 H 0.76673 0.17144 0.64243 0.0
C3048 C 0.75985 0.17139 0.61129 0.0
C3049 C 0.74668 0.17782 0.59638 0.0
C3050 C 0.72108 0.20922 0.66059 0.0
C3051 C 0.73959 0.18809 0.63605 0.0
C3052 C 0.72163 0.22028 0.67811 0.0
C3053 C 0.73717 0.21735 0.6917 0.0
C3054 C 0.73653 0.19562 0.65652 0.0
C3055 C 0.7507 0.20175 0.68845 0.0
C3056 C 0.75633 0.17644 0.63114 0.0
C3057 C 0.73016 0.18946 0.60188 0.0
N3058 N 0.75043 0.19175 0.67083 0.0
N3059 N 0.72714 0.1943 0.62127 0.0
H3060 H 0.54404 0.97077 0.33396 0.0
H3061 H 0.51601 0.02541 0.43593 0.0
H3062 H 0.5642 0.02997 0.35021 0.0
H3063 H 0.52309 0.96155 0.42985 0.0
H3064 H 0.52162 0.02904 0.39989 0.0
H3065 H 0.52478 0.9694 0.36493 0.0
C3066 C 0.54433 0.98353 0.34389 0.0
C3067 C 0.55617 0.00033 0.33961 0.0
C3068 C 0.52148 0.01423 0.40646 0.0
C3069 C 0.53366 -0.00096 0.37461 0.0
C3070 C 0.51822 0.01216 0.4269 0.0
C3071 C 0.51949 0.99322 0.43573 0.0
C3072 C 0.52571 -0.00281 0.39495 0.0
C3073 C 0.52241 0.97646 0.42353 0.0
C3074 C 0.53316 0.98279 0.36141 0.0
C3075 C 0.55533 0.0167 0.35274 0.0
N3076 N 0.52562 0.97884 0.40373 0.0
N3077 N 0.54444 0.01556 0.36975 0.0
H3078 H 0.72261 0.7903 0.09496 0.0
H3079 H 0.75474 0.80295 0.20799 0.0
H3080 H 0.74901 0.84362 0.11962 0.0
H3081 H 0.7338 0.74772 0.18267 0.0
H3082 H 0.74313 0.82079 0.17836 0.0
H3083 H 0.71895 0.77681 0.12869 0.0
C3084 C 0.72748 0.79921 0.10752 0.0
C3085 C 0.73635 0.81797 0.10454 0.0
C3086 C 0.7404 0.80487 0.17954 0.0
C3087 C 0.73205 0.80277 0.14313 0.0
C3088 C 0.74667 0.79477 0.19663 0.0
C3089 C 0.74517 0.77392 0.19762 0.0
C3090 C 0.73291 0.79386 0.16335 0.0
C3091 C 0.73507 0.76387 0.18239 0.0
C3092 C 0.72533 0.79156 0.12676 0.0
C3093 C 0.74246 0.82891 0.12128 0.0
N3094 N 0.72974 0.77386 0.1656 0.0
N3095 N 0.74031 0.8211 0.13985 0.0
H3096 H 0.9482 0.03099 0.65187 0.0
H3097 H 0.95947 0.97774 0.54623 0.0
H3098 H 0.91315 0.98042 0.63282 0.0
H3099 H 0.00036 0.02179 0.5688 0.0
H3100 H 0.93658 0.98529 0.57372 0.0
H3101 H 0.9623 0.03347 0.61832 0.0
C3102 C 0.94332 0.02052 0.64056 0.0
C3103 C 0.92964 0.00533 0.64522 0.0
C3104 C 0.95024 0.99381 0.57233 0.0
C3105 C 0.94571 0.00811 0.60673 0.0
C3106 C 0.96312 0.98975 0.55644 0.0
C3107 C 0.98168 -0.00072 0.55531 0.0
C3108 C 0.95617 0.00734 0.58721 0.0
C3109 C 0.98606 0.01428 0.56915 0.0
C3110 C 0.95137 0.02195 0.62141 0.0
C3111 C 0.92396 0.99211 0.62999 0.0
N3112 N 0.97355 0.01763 0.58477 0.0
N3113 N 0.9321 0.99373 0.61148 0.0
H3114 H 0.725 0.17248 0.39319 0.0
H3115 H 0.76872 0.24972 0.31437 0.0
H3116 H 0.77126 0.21422 0.40966 0.0
H3117 H 0.74884 0.19014 0.29983 0.0
H3118 H 0.76322 0.24233 0.34995 0.0
H3119 H 0.7259 0.18549 0.35933 0.0
C3120 C 0.73505 0.18469 0.38981 0.0
C3121 C 0.74822 0.19218 0.4042 0.0
C3122 C 0.76006 0.23098 0.33889 0.0
C3123 C 0.74956 0.20676 0.3654 0.0
C3124 C 0.7632 0.23513 0.31873 0.0
C3125 C 0.75946 0.22036 0.30439 0.0
C3126 C 0.75259 0.21219 0.34442 0.0
C3127 C 0.75222 0.20175 0.31056 0.0
C3128 C 0.73569 0.19194 0.37043 0.0
C3129 C 0.76111 0.20784 0.39887 0.0
N3130 N 0.7489 0.19821 0.33016 0.0
N3131 N 0.76159 0.21456 0.37975 0.0
H3132 H 0.55086 0.97982 0.15733 0.0
H3133 H 0.52588 0.03948 0.06196 0.0
H3134 H 0.58915 0.02972 0.14263 0.0
H3135 H 0.52646 0.97501 0.06213 0.0
H3136 H 0.54676 0.03924 0.09228 0.0
H3137 H 0.53767 0.98068 0.12354 0.0
C3138 C 0.55662 0.99086 0.147 0.0
C3139 C 0.57125 0.00461 0.15281 0.0
C3140 C 0.54267 0.02522 0.08531 0.0
C3141 C 0.55589 0.00589 0.11434 0.0
C3142 C 0.5309 0.02537 0.06813 0.0
C3143 C 0.52462 0.00722 0.05989 0.0
C3144 C 0.5474 0.00682 0.09426 0.0
C3145 C 0.53112 0.98924 0.06828 0.0
C3146 C 0.54907 0.99133 0.12775 0.0
C3147 C 0.57768 0.019 0.13888 0.0
N3148 N 0.54188 0.98946 0.08531 0.0
N3149 N 0.56983 0.01938 0.12023 0.0
H3150 H 0.76429 0.83886 0.89292 0.0
H3151 H 0.7086 0.75997 0.82378 0.0
H3152 H 0.7139 0.80333 0.91155 0.0
H3153 H 0.75722 0.79654 0.8029 0.0
H3154 H 0.707 0.77985 0.85423 0.0
H3155 H 0.7601 0.82629 0.85887 0.0
C3156 C 0.75242 0.82833 0.88986 0.0
C3157 C 0.73944 0.82209 0.90509 0.0
C3158 C 0.71779 0.78386 0.84288 0.0
C3159 C 0.73435 0.80793 0.86617 0.0
C3160 C 0.71853 0.77265 0.82542 0.0
C3161 C 0.7331 0.77665 0.81098 0.0
C3162 C 0.73208 0.79885 0.84613 0.0
C3163 C 0.74573 0.7931 0.81374 0.0
C3164 C 0.74989 0.82135 0.87039 0.0
C3165 C 0.72412 0.80868 0.90024 0.0
N3166 N 0.74523 0.80338 0.83125 0.0
N3167 N 0.72207 0.802 0.88125 0.0
H3168 H 0.85734 0.9077 0.03012 0.0
H3169 H 0.92508 0.99209 0.98006 0.0
H3170 H 0.83667 0.95293 0.98908 0.0
H3171 H 0.94422 0.96142 0.03325 0.0
H3172 H 0.89473 0.97236 0.97983 0.0
H3173 H 0.89072 0.92295 0.02926 0.0
C3174 C 0.85978 0.92088 0.02105 0.0
C3175 C 0.84422 0.92901 0.00955 0.0
C3176 C 0.9055 0.9698 0.99158 0.0
C3177 C 0.88223 0.94617 0.00828 0.0
C3178 C 0.92285 0.981 0.99165 0.0
C3179 C 0.93689 0.97851 0.00686 0.0
C3180 C 0.90192 0.95608 0.00699 0.0
C3181 C 0.93357 0.96377 0.02136 0.0
C3182 C 0.87882 0.92946 0.02049 0.0
C3183 C 0.84825 0.94592 -0.00211 0.0
N3184 N 0.91617 0.95316 0.02124 0.0
N3185 N 0.86681 0.95387 -0.00246 0.0
H3186 H 0.35489 0.57479 0.02551 0.0
H3187 H 0.42783 0.49872 0.97017 0.0
H3188 H 0.33501 0.53408 0.97971 0.0
H3189 H 0.44596 0.54173 0.01435 0.0
H3190 H 0.3927 0.50695 0.97728 0.0
H3191 H 0.38708 0.55822 0.02572 0.0
C3192 C 0.35715 0.56208 0.01575 0.0
C3193 C 0.34227 0.55591 0.00245 0.0
C3194 C 0.40437 0.51438 0.98559 0.0
C3195 C 0.37944 0.53715 0.00222 0.0
C3196 C 0.42428 0.50966 0.98155 0.0
C3197 C 0.43945 0.5197 0.9917 0.0
C3198 C 0.39991 0.52935 -0.00033 0.0
C3199 C 0.43446 0.53375 0.00629 0.0
C3200 C 0.37564 0.5527 0.01576 0.0
C3201 C 0.34623 0.53956 0.98992 0.0
N3202 N 0.41509 0.53832 0.00971 0.0
N3203 N 0.36456 0.53086 0.98994 0.0
H3204 H 0.20346 0.59092 0.76544 0.0
H3205 H 0.22046 0.69325 0.71138 0.0
H3206 H 0.16155 0.60874 0.71987 0.0
H3207 H 0.23167 0.68384 0.77396 0.0
H3208 H 0.20028 0.66225 0.71097 0.0
H3209 H 0.21731 0.62447 0.76513 0.0
C3210 C 0.19708 0.60194 0.75545 0.0
C3211 C 0.18117 0.59712 0.74287 0.0
C3212 C 0.20688 0.6673 0.7248 0.0
C3213 C 0.19716 0.63547 0.74223 0.0
C3214 C 0.21826 0.68486 0.72503 0.0
C3215 C 0.22782 0.69059 0.74267 0.0
C3216 C 0.20557 0.65571 0.74225 0.0
C3217 C 0.2247 0.67952 0.76005 0.0
C3218 C 0.20499 0.62107 0.75527 0.0
C3219 C 0.17392 0.61185 0.72974 0.0
N3220 N 0.21406 0.66242 0.75935 0.0
N3221 N 0.18203 0.63048 0.7297 0.0
H3222 H 0.13135 0.41869 0.53343 0.0
H3223 H 0.06732 0.46883 0.45228 0.0
H3224 H 0.15555 0.45941 0.4897 0.0
H3225 H 0.04396 0.47617 0.51192 0.0
H3226 H 0.09794 0.45572 0.46598 0.0
H3227 H 0.09787 0.43277 0.52722 0.0
C3228 C 0.12971 0.43088 0.52291 0.0
C3229 C 0.14614 0.43759 0.51166 0.0
C3230 C 0.08607 0.46006 0.47611 0.0
C3231 C 0.10827 0.45327 0.50446 0.0
C3232 C 0.06848 0.46747 0.46834 0.0
C3233 C 0.05321 0.47418 0.48102 0.0
C3234 C 0.08851 0.45894 0.49675 0.0
C3235 C 0.05554 0.4715 0.50168 0.0
C3236 C 0.11067 0.43882 0.51941 0.0
C3237 C 0.14323 0.45339 0.49825 0.0
N3238 N 0.07309 0.46415 0.50904 0.0
N3239 N 0.12461 0.4604 0.49474 0.0
H3240 H 0.7915 0.91392 0.7305 0.0
H3241 H 0.78445 0.79964 0.7617 0.0
H3242 H 0.82867 0.88914 0.7768 0.0
H3243 H 0.74034 0.83066 0.72668 0.0
H3244 H 0.79916 0.8322 0.77073 0.0
H3245 H 0.7716 0.88347 0.7308 0.0
C3246 C 0.79546 0.90206 0.74077 0.0
C3247 C 0.8119 0.90403 0.7535 0.0
C3248 C 0.78595 0.83186 0.76148 0.0
C3249 C 0.78902 0.86895 0.75406 0.0
C3250 C 0.77744 0.81331 0.75656 0.0
C3251 C 0.76133 0.81256 0.74331 0.0
C3252 C 0.77828 0.84952 0.75291 0.0
C3253 C 0.75291 0.83064 0.73681 0.0
C3254 C 0.78397 0.88469 0.74108 0.0
C3255 C 0.81609 0.88826 0.76675 0.0
N3256 N 0.76167 0.8483 0.74137 0.0
N3257 N 0.80489 0.87126 0.76652 0.0
H3258 H 0.6625 0.05658 0.53369 0.0
H3259 H 0.55202 0.0481 0.49001 0.0
H3260 H 0.64326 0.08486 0.47915 0.0
H3261 H 0.57612 0.00828 0.53446 0.0
H3262 H 0.58283 0.06781 0.49133 0.0
H3263 H 0.62866 0.04394 0.53875 0.0
C3264 C 0.6511 0.06015 0.52282 0.0
C3265 C 0.65563 0.07166 0.50593 0.0
C3266 C 0.58118 0.05501 0.50111 0.0
C3267 C 0.61698 0.05744 0.51167 0.0
C3268 C 0.56356 0.04395 0.50053 0.0
C3269 C 0.56182 0.02651 0.51198 0.0
C3270 C 0.59691 0.04857 0.51338 0.0
C3271 C 0.57715 0.02154 0.52524 0.0
C3272 C 0.63183 0.05298 0.52572 0.0
C3273 C 0.64041 0.07578 0.49222 0.0
N3274 N 0.59419 0.03242 0.52544 0.0
N3275 N 0.62172 0.06865 0.49538 0.0
H3276 H 0.19026 0.39924 0.71973 0.0
H3277 H 0.22113 0.31787 0.79318 0.0
H3278 H 0.20791 0.41551 0.77953 0.0
H3279 H 0.23862 0.31305 0.73142 0.0
H3280 H 0.21701 0.35397 0.78884 0.0
H3281 H 0.20899 0.36825 0.72301 0.0
C3282 C 0.1984 0.3966 0.7334 0.0
C3283 C 0.19706 0.40991 0.74956 0.0
C3284 C 0.22217 0.34507 0.77636 0.0
C3285 C 0.21805 0.37409 0.75351 0.0
C3286 C 0.22436 0.32451 0.77879 0.0
C3287 C 0.22992 0.31257 0.76255 0.0
C3288 C 0.22493 0.35355 0.75741 0.0
C3289 C 0.23418 0.32182 0.74426 0.0
C3290 C 0.20908 0.37882 0.73525 0.0
C3291 C 0.20785 0.40539 0.76695 0.0
N3292 N 0.2311 0.34178 0.74202 0.0
N3293 N 0.21751 0.38762 0.76865 0.0
H3294 H 0.3432 0.6104 0.2631 0.0
H3295 H 0.25464 0.67977 0.2286 0.0
H3296 H 0.30134 0.59349 0.21737 0.0
H3297 H 0.30125 0.69891 0.26821 0.0
H3298 H 0.2751 0.6511 0.21871 0.0
H3299 H 0.331 0.64475 0.26119 0.0
C3300 C 0.33139 0.61394 0.25267 0.0
C3301 C 0.32304 0.59902 0.24061 0.0
C3302 C 0.28122 0.66192 0.22903 0.0
C3303 C 0.30909 0.63843 0.23815 0.0
C3304 C 0.26967 0.67848 0.23439 0.0
C3305 C 0.27641 0.69165 0.24912 0.0
C3306 C 0.29938 0.65841 0.23889 0.0
C3307 C 0.29567 0.68907 0.25668 0.0
C3308 C 0.32459 0.63362 0.2514 0.0
C3309 C 0.30813 0.60454 0.227 0.0
N3310 N 0.30634 0.67248 0.25183 0.0
N3311 N 0.30143 0.62375 0.22633 0.0
H3312 H 0.48947 0.63919 0.58996 0.0
H3313 H 0.50673 0.57015 0.49686 0.0
H3314 H 0.52571 0.658 0.54025 0.0
H3315 H 0.48437 0.5486 0.55307 0.0
H3316 H 0.51876 0.60047 0.51346 0.0
H3317 H 0.49104 0.60482 0.57784 0.0
C3318 C 0.49779 0.63601 0.57646 0.0
C3319 C 0.5072 0.65145 0.56591 0.0
C3320 C 0.51187 0.58883 0.52234 0.0
C3321 C 0.50907 0.61205 0.55182 0.0
C3322 C 0.50525 0.57141 0.51291 0.0
C3323 C 0.49467 0.55692 0.52371 0.0
C3324 C 0.50742 0.59186 0.54261 0.0
C3325 C 0.4926 0.55942 0.54431 0.0
C3326 C 0.49886 0.61635 0.56963 0.0
C3327 C 0.51813 0.64649 0.54872 0.0
N3328 N 0.49854 0.57676 0.55304 0.0
N3329 N 0.51849 0.62725 0.54199 0.0
H3330 H 0.60295 0.22108 0.82893 0.0
H3331 H 0.68811 0.26054 0.75552 0.0
H3332 H 0.59181 0.26805 0.78622 0.0
H3333 H 0.69467 0.21361 0.7994 0.0
H3334 H 0.65248 0.26281 0.76415 0.0
H3335 H 0.63653 0.21766 0.81626 0.0
C3336 C 0.6076 0.23051 0.81661 0.0
C3337 C 0.59466 0.24465 0.80837 0.0
C3338 C 0.6618 0.25199 0.77173 0.0
C3339 C 0.63331 0.24108 0.79382 0.0
C3340 C 0.68205 0.25063 0.76679 0.0
C3341 C 0.69438 0.23702 0.77693 0.0
C3342 C 0.65409 0.2396 0.7868 0.0
C3343 C 0.68585 0.22453 0.79137 0.0
C3344 C 0.62683 0.22864 0.8094 0.0
C3345 C 0.60151 0.25693 0.79285 0.0
N3346 N 0.66632 0.22621 0.79589 0.0
N3347 N 0.62051 0.25486 0.78598 0.0
H3348 H 0.97907 0.36741 0.08961 0.0
H3349 H 0.99259 0.42793 0.98789 0.0
H3350 H 0.99239 0.34089 0.03252 0.0
H3351 H 0.00872 0.45236 0.04496 0.0
H3352 H 0.97878 0.39846 0.00466 0.0
H3353 H 0.97764 0.4005 0.07357 0.0
C3354 C 0.98135 0.36854 0.07365 0.0
C3355 C 0.98609 0.3515 0.06236 0.0
C3356 C 0.9847 0.41059 0.01357 0.0
C3357 C 0.98411 0.38901 0.04401 0.0
C3358 C 0.99231 0.42748 0.00404 0.0
C3359 C 0.00156 0.44255 0.01516 0.0
C3360 C 0.98658 0.40875 0.03432 0.0
C3361 C 0.00133 0.44115 0.03598 0.0
C3362 C 0.98054 0.38736 0.06456 0.0
C3363 C 0.98897 0.35372 0.04177 0.0
N3364 N 0.99427 0.42431 0.04495 0.0
N3365 N 0.988 0.37214 0.03326 0.0
H3366 H 0.90604 0.78458 0.3182 0.0
H3367 H 0.80072 0.73711 0.29226 0.0
H3368 H 0.89591 0.72081 0.3151 0.0
H3369 H 0.82268 0.78947 0.26174 0.0
H3370 H 0.83195 0.73538 0.31111 0.0
H3371 H 0.87197 0.79023 0.30655 0.0
C3372 C 0.89676 0.77176 0.31494 0.0
C3373 C 0.90397 0.75215 0.31739 0.0
C3374 C 0.82966 0.74753 0.30065 0.0
C3375 C 0.86486 0.75865 0.30494 0.0
C3376 C 0.81182 0.74869 0.29013 0.0
C3377 C 0.80928 0.76348 0.27553 0.0
C3378 C 0.84476 0.76148 0.29673 0.0
C3379 C 0.82423 0.77786 0.2729 0.0
C3380 C 0.87729 0.77505 0.30854 0.0
C3381 C 0.89098 0.73616 0.31358 0.0
N3382 N 0.84148 0.77647 0.28338 0.0
N3383 N 0.87201 0.73977 0.30753 0.0
H3384 H 0.47342 0.35707 0.90899 0.0
H3385 H 0.52899 0.4296 0.98504 0.0
H3386 H 0.52664 0.34246 0.94212 0.0
H3387 H 0.46975 0.44213 0.96349 0.0
H3388 H 0.53075 0.40057 0.96338 0.0
H3389 H 0.47362 0.39055 0.924 0.0
C3390 C 0.48508 0.36091 0.91946 0.0
C3391 C 0.5 0.34701 0.92443 0.0
C3392 C 0.51733 0.4096 0.96326 0.0
C3393 C 0.50047 0.38508 0.94124 0.0
C3394 C 0.51634 0.42613 0.9756 0.0
C3395 C 0.49904 0.43778 0.97623 0.0
C3396 C 0.50071 0.40443 0.95172 0.0
C3397 C 0.48321 0.43318 0.96347 0.0
C3398 C 0.48526 0.38 0.92786 0.0
C3399 C 0.51498 0.35277 0.93773 0.0
N3400 N 0.48427 0.41651 0.95184 0.0
N3401 N 0.51478 0.37134 0.9457 0.0
H3402 H 0.88563 0.27809 0.15927 0.0
H3403 H 0.82703 0.24035 0.25557 0.0
H3404 H 0.91218 0.24727 0.20915 0.0
H3405 H 0.7977 0.25817 0.20134 0.0
H3406 H 0.85848 0.25335 0.24256 0.0
H3407 H 0.85408 0.28002 0.17774 0.0
C3408 C 0.88492 0.27198 0.17421 0.0
C3409 C 0.9015 0.26221 0.18256 0.0
C3410 C 0.84511 0.25497 0.23366 0.0
C3411 C 0.86548 0.26445 0.20376 0.0
C3412 C 0.8271 0.24781 0.24121 0.0
C3413 C 0.80987 0.24821 0.22945 0.0
C3414 C 0.84593 0.26223 0.21403 0.0
C3415 C 0.81072 0.25771 0.21085 0.0
C3416 C 0.8669 0.27307 0.18471 0.0
C3417 C 0.89968 0.25455 0.20196 0.0
N3418 N 0.82862 0.26398 0.20348 0.0
N3419 N 0.88198 0.25571 0.21182 0.0
H3420 H 0.03124 0.64684 0.42551 0.0
H3421 H 0.97779 0.56543 0.48846 0.0
H3422 H 0.9788 0.66288 0.45944 0.0
H3423 H 0.04075 0.56457 0.47525 0.0
H3424 H 0.97709 0.60143 0.48084 0.0
H3425 H 0.03401 0.61626 0.44455 0.0
C3426 C 0.02049 0.64408 0.43728 0.0
C3427 C 0.00497 0.65757 0.44114 0.0
C3428 C 0.99114 0.59343 0.48021 0.0
C3429 C 0.00785 0.62223 0.46291 0.0
C3430 C 0.99155 0.573 0.48465 0.0
C3431 C 0.00924 0.56216 0.48192 0.0
C3432 C 0.00852 0.60265 0.47295 0.0
C3433 C 0.02671 0.57244 0.47699 0.0
C3434 C 0.02208 0.62659 0.44819 0.0
C3435 C 0.99098 0.6528 0.45603 0.0
N3436 N 0.02584 0.59208 0.47229 0.0
N3437 N 0.99265 0.63534 0.46636 0.0
H3438 H 0.58624 0.76812 0.70705 0.0
H3439 H 0.6994 0.73682 0.69115 0.0
H3440 H 0.60629 0.7278 0.66093 0.0
H3441 H 0.67874 0.76076 0.74719 0.0
H3442 H 0.66494 0.73359 0.68015 0.0
H3443 H 0.61952 0.76632 0.7223 0.0
C3444 C 0.59758 0.75883 0.7002 0.0
C3445 C 0.59346 0.74812 0.68265 0.0
C3446 C 0.66783 0.73939 0.69494 0.0
C3447 C 0.63143 0.74601 0.69996 0.0
C3448 C 0.68751 0.74126 0.70121 0.0
C3449 C 0.69185 0.74919 0.72003 0.0
C3450 C 0.65228 0.74591 0.70741 0.0
C3451 C 0.67593 0.75455 0.73256 0.0
C3452 C 0.61649 0.7577 0.70898 0.0
C3453 C 0.60866 0.73615 0.67454 0.0
N3454 N 0.65678 0.75312 0.7259 0.0
N3455 N 0.62694 0.73558 0.68314 0.0
H3456 H 0.57965 0.5242 0.64601 0.0
H3457 H 0.51279 0.46358 0.57103 0.0
H3458 H 0.54404 0.47393 0.6652 0.0
H3459 H 0.52952 0.52481 0.56019 0.0
H3460 H 0.52309 0.46722 0.60592 0.0
H3461 H 0.56113 0.52497 0.61475 0.0
C3462 C 0.56774 0.5135 0.64384 0.0
C3463 C 0.56354 0.49888 0.65832 0.0
C3464 C 0.52411 0.48001 0.59606 0.0
C3465 C 0.54246 0.4995 0.62224 0.0
C3466 C 0.51812 0.47795 0.57623 0.0
C3467 C 0.5201 0.494 0.56297 0.0
C3468 C 0.53277 0.49805 0.6024 0.0
C3469 C 0.5275 0.51221 0.57016 0.0
C3470 C 0.55719 0.51394 0.62591 0.0
C3471 C 0.54814 0.4852 0.65435 0.0
N3472 N 0.53392 0.51366 0.58934 0.0
N3473 N 0.53832 0.48571 0.63663 0.0
H3474 H 0.77435 0.34553 0.88769 0.0
H3475 H 0.73404 0.26087 0.81473 0.0
H3476 H 0.72841 0.30278 0.90241 0.0
H3477 H 0.78647 0.29574 0.80158 0.0
H3478 H 0.72791 0.28123 0.84409 0.0
H3479 H 0.77559 0.33201 0.85377 0.0
C3480 C 0.76456 0.33327 0.88376 0.0
C3481 C 0.75143 0.32504 0.89786 0.0
C3482 C 0.74064 0.2847 0.83475 0.0
C3483 C 0.7526 0.30981 0.85926 0.0
C3484 C 0.74409 0.27314 0.81799 0.0
C3485 C 0.7609 0.27663 0.80611 0.0
C3486 C 0.75421 0.2998 0.83975 0.0
C3487 C 0.77348 0.29262 0.81066 0.0
C3488 C 0.76518 0.3257 0.86442 0.0
C3489 C 0.73871 0.30957 0.89196 0.0
N3490 N 0.77 0.30359 0.82742 0.0
N3491 N 0.73973 0.30236 0.87313 0.0
H3492 H 0.95548 0.47032 0.15743 0.0
H3493 H 0.98871 0.53943 0.06673 0.0
H3494 H 0.94555 0.53402 0.15225 0.0
H3495 H 0.98539 0.47521 0.06241 0.0
H3496 H 0.98348 0.53703 0.10263 0.0
H3497 H 0.97519 0.47144 0.12659 0.0
C3498 C 0.95754 0.48453 0.14995 0.0
C3499 C 0.94872 0.50208 0.15743 0.0
C3500 C 0.98428 0.52339 0.09395 0.0
C3501 C 0.97155 0.50348 0.12261 0.0
C3502 C 0.98734 0.52478 0.07353 0.0
C3503 C 0.98719 0.50749 0.06181 0.0
C3504 C 0.9805 0.50462 0.10255 0.0
C3505 C 0.98556 0.48882 0.07113 0.0
C3506 C 0.96894 0.48516 0.1325 0.0
C3507 C 0.95224 0.52013 0.14734 0.0
N3508 N 0.98178 0.48786 0.09103 0.0
N3509 N 0.96326 0.52031 0.13043 0.0
H3510 H 0.74073 0.66161 0.3882 0.0
H3511 H 0.76749 0.75142 0.32209 0.0
H3512 H 0.78529 0.70365 0.40784 0.0
H3513 H 0.74713 0.69564 0.29755 0.0
H3514 H 0.77915 0.73367 0.35177 0.0
H3515 H 0.74501 0.6736 0.35411 0.0
C3516 C 0.7514 0.67342 0.38529 0.0
C3517 C 0.7625 0.68183 0.40083 0.0
C3518 C 0.77291 0.72514 0.33956 0.0
C3519 C 0.76772 0.69549 0.36179 0.0
C3520 C 0.76656 0.73524 0.32247 0.0
C3521 C 0.75612 0.72492 0.30761 0.0
C3522 C 0.76826 0.70478 0.34176 0.0
C3523 C 0.75502 0.70407 0.30884 0.0
C3524 C 0.7541 0.68004 0.36579 0.0
C3525 C 0.7764 0.69685 0.39622 0.0
N3526 N 0.76033 0.69471 0.326 0.0
N3527 N 0.7784 0.70347 0.37712 0.0
H3528 H 0.55314 0.46686 0.84395 0.0
H3529 H 0.5525 0.51389 0.95333 0.0
H3530 H 0.59193 0.51398 0.86442 0.0
H3531 H 0.50194 0.48343 0.92822 0.0
H3532 H 0.57261 0.50364 0.92461 0.0
H3533 H 0.5391 0.46425 0.87774 0.0
C3534 C 0.55879 0.47654 0.85559 0.0
C3535 C 0.57352 0.49087 0.85134 0.0
C3536 C 0.5573 0.4986 0.92568 0.0
C3537 C 0.55786 0.48768 0.88994 0.0
C3538 C 0.54595 0.50412 0.94225 0.0
C3539 C 0.52565 0.49936 0.94309 0.0
C3540 C 0.54812 0.48849 0.90979 0.0
C3541 C 0.51764 0.4872 0.9281 0.0
C3542 C 0.55082 0.475 0.87482 0.0
C3543 C 0.58033 0.50301 0.86695 0.0
N3544 N 0.5288 0.48249 0.9118 0.0
N3545 N 0.57242 0.50117 0.88551 0.0
H3546 H 0.76852 0.33572 0.1048 0.0
H3547 H 0.74998 0.25044 0.1827 0.0
H3548 H 0.74389 0.28046 0.08253 0.0
H3549 H 0.72968 0.31126 0.19114 0.0
H3550 H 0.7559 0.258 0.14719 0.0
H3551 H 0.76458 0.32329 0.13876 0.0
C3552 C 0.76277 0.32074 0.10707 0.0
C3553 C 0.75644 0.30907 0.09096 0.0
C3554 C 0.74999 0.26949 0.15695 0.0
C3555 C 0.75177 0.29497 0.1296 0.0
C3556 C 0.74663 0.26527 0.17709 0.0
C3557 C 0.73947 0.28031 0.18989 0.0
C3558 C 0.74666 0.28896 0.14996 0.0
C3559 C 0.73525 0.29922 0.18188 0.0
C3560 C 0.76035 0.31378 0.12639 0.0
C3561 C 0.74878 0.28988 0.0947 0.0
N3562 N 0.73921 0.30308 0.16249 0.0
N3563 N 0.74656 0.28335 0.11379 0.0
H3564 H 0.90782 0.52298 0.35744 0.0
H3565 H 0.97003 0.46034 0.4369 0.0
H3566 H 0.94752 0.47386 0.34385 0.0
H3567 H 0.94703 0.51921 0.44932 0.0
H3568 H 0.95185 0.46017 0.4054 0.0
H3569 H 0.91497 0.51839 0.39289 0.0
C3570 C 0.91816 0.51135 0.36186 0.0
C3571 C 0.92708 0.49876 0.34762 0.0
C3572 C 0.95026 0.4729 0.41527 0.0
C3573 C 0.93461 0.49299 0.38813 0.0
C3574 C 0.96029 0.4728 0.43339 0.0
C3575 C 0.95998 0.48983 0.44548 0.0
C3576 C 0.94018 0.49028 0.40922 0.0
C3577 C 0.9475 0.5058 0.44026 0.0
C3578 C 0.92197 0.50857 0.3821 0.0
C3579 C 0.94005 0.48371 0.35428 0.0
N3580 N 0.93842 0.50589 0.42217 0.0
N3581 N 0.94339 0.48123 0.37405 0.0
H3582 H 0.74262 0.64925 0.61557 0.0
H3583 H 0.75913 0.75102 0.67506 0.0
H3584 H 0.7539 0.70695 0.58914 0.0
H3585 H 0.76399 0.69397 0.70501 0.0
H3586 H 0.75239 0.73419 0.6443 0.0
H3587 H 0.74552 0.66449 0.64897 0.0
C3588 C 0.74544 0.66515 0.61686 0.0
C3589 C 0.74817 0.67692 0.59972 0.0
C3590 C 0.75507 0.72518 0.65745 0.0
C3591 C 0.75152 0.69424 0.63743 0.0
C3592 C 0.75912 0.73481 0.67518 0.0
C3593 C 0.76257 0.7239 0.69277 0.0
C3594 C 0.75452 0.70428 0.65688 0.0
C3595 C 0.76149 0.70294 0.69183 0.0
C3596 C 0.74724 0.67375 0.63582 0.0
C3597 C 0.75189 0.69735 0.60201 0.0
N3598 N 0.75769 0.69371 0.67404 0.0
N3599 N 0.75347 0.70531 0.62048 0.0
H3600 H 0.65283 0.5582 0.52496 0.0
H3601 H 0.56031 0.53223 0.46059 0.0
H3602 H 0.64404 0.58843 0.46867 0.0
H3603 H 0.55653 0.53472 0.52466 0.0
H3604 H 0.59091 0.5525 0.46195 0.0
H3605 H 0.61796 0.54777 0.52434 0.0
C3606 C 0.64358 0.56282 0.51256 0.0
C3607 C 0.6515 0.57413 0.49678 0.0
C3608 C 0.58306 0.54904 0.47565 0.0
C3609 C 0.61165 0.56195 0.49589 0.0
C3610 C 0.56561 0.53766 0.47484 0.0
C3611 C 0.55602 0.53207 0.49253 0.0
C3612 C 0.59118 0.55403 0.4943 0.0
C3613 C 0.56354 0.53899 0.51072 0.0
C3614 C 0.62367 0.55687 0.51224 0.0
C3615 C 0.63878 0.57931 0.48093 0.0
N3616 N 0.58098 0.54924 0.5112 0.0
N3617 N 0.61953 0.57299 0.48077 0.0
H3618 H 0.1711 0.96642 0.51436 0.0
H3619 H 0.06099 0.97646 0.47054 0.0
H3620 H 0.14546 0.92565 0.47157 0.0
H3621 H 0.07943 -0.00034 0.52754 0.0
H3622 H 0.0957 0.9669 0.46356 0.0
H3623 H 0.14099 0.98695 0.51238 0.0
C3624 C 0.1592 0.96182 0.50449 0.0
C3625 C 0.16067 0.94407 0.49341 0.0
C3626 C 0.0922 0.97463 0.47733 0.0
C3627 C 0.12644 0.96775 0.49074 0.0
C3628 C 0.07251 0.98027 0.4812 0.0
C3629 C 0.06753 0.98865 0.49969 0.0
C3630 C 0.10682 0.97769 0.492 0.0
C3631 C 0.08281 0.99306 0.51318 0.0
C3632 C 0.14213 0.97365 0.50323 0.0
C3633 C 0.14502 0.9392 0.48038 0.0
N3634 N 0.10179 0.98731 0.50917 0.0
N3635 N 0.12845 0.95087 0.47957 0.0
H3636 H 0.34549 0.89016 0.73333 0.0
H3637 H 0.25245 0.82851 0.77424 0.0
H3638 H 0.29721 0.91509 0.76797 0.0
H3639 H 0.29828 0.80214 0.7375 0.0
H3640 H 0.27232 0.85884 0.77704 0.0
H3641 H 0.33114 0.85675 0.73795 0.0
C3642 C 0.33179 0.88855 0.74176 0.0
C3643 C 0.3224 0.90527 0.75022 0.0
C3644 C 0.27822 0.8464 0.76852 0.0
C3645 C 0.3062 0.86738 0.75583 0.0
C3646 C 0.26692 0.8291 0.76703 0.0
C3647 C 0.27374 0.81315 0.7554 0.0
C3648 C 0.29618 0.84787 0.75784 0.0
C3649 C 0.29261 0.81432 0.74652 0.0
C3650 C 0.32376 0.86953 0.74459 0.0
C3651 C 0.30492 0.9025 0.76132 0.0
N3652 N 0.30309 0.83167 0.74758 0.0
N3653 N 0.29735 0.88391 0.76374 0.0
H3654 H 0.33849 0.03684 0.99355 0.0
H3655 H 0.45197 0.0501 0.00718 0.0
H3656 H 0.36659 0.0927 0.9779 0.0
H3657 H 0.42607 0.99274 0.99407 0.0
H3658 H 0.42239 0.06647 0.99313 0.0
H3659 H 0.37101 0.02032 0.99193 0.0
C3660 C 0.35153 0.04556 0.98961 0.0
C3661 C 0.34997 0.06614 0.98603 0.0
C3662 C 0.4235 0.05031 0.9926 0.0
C3663 C 0.38718 0.04746 0.98422 0.0
C3664 C 0.44049 0.04103 0.00036 0.0
C3665 C 0.44138 0.02016 0.00151 0.0
C3666 C 0.40721 0.0385 0.98667 0.0
C3667 C 0.42585 0.00892 0.99325 0.0
C3668 C 0.37005 0.03613 0.98848 0.0
C3669 C 0.36725 0.07677 0.98078 0.0
N3670 N 0.40915 0.01822 0.98659 0.0
N3671 N 0.38525 0.06738 0.98039 0.0
H3672 H 0.7139 0.58773 0.76122 0.0
H3673 H 0.74403 0.69032 0.73367 0.0
H3674 H 0.66865 0.60672 0.71957 0.0
H3675 H 0.70334 0.68567 0.78316 0.0
H3676 H 0.73078 0.65839 0.72046 0.0
H3677 H 0.72695 0.62198 0.7617 0.0
C3678 C 0.7069 0.59899 0.75194 0.0
C3679 C 0.68994 0.59439 0.74058 0.0
C3680 C 0.72433 0.66488 0.73379 0.0
C3681 C 0.70509 0.63334 0.74083 0.0
C3682 C 0.73166 0.68313 0.74113 0.0
C3683 C 0.72458 0.69064 0.75933 0.0
C3684 C 0.70994 0.6544 0.74487 0.0
C3685 C 0.70904 0.68043 0.76896 0.0
C3686 C 0.71448 0.61841 0.75208 0.0
C3687 C 0.68172 0.60958 0.72855 0.0
N3688 N 0.7025 0.66264 0.76183 0.0
N3689 N 0.6891 0.62856 0.72932 0.0
H3690 H 0.83925 0.45388 0.97587 0.0
H3691 H 0.95238 0.45328 0.00957 0.0
H3692 H 0.86297 0.40856 0.01512 0.0
H3693 H 0.92852 0.49048 0.96282 0.0
H3694 H 0.9214 0.43373 0.00949 0.0
H3695 H 0.87287 0.46593 0.9698 0.0
C3696 C 0.8516 0.44645 0.98319 0.0
C3697 C 0.84838 0.43017 -0.00408 0.0
C3698 C 0.92317 0.44582 -0.00113 0.0
C3699 C 0.88702 0.44387 0.98909 0.0
C3700 C 0.9409 0.45678 -0.00124 0.0
C3701 C 0.94267 0.47355 0.98634 0.0
C3702 C 0.90737 0.45188 0.98651 0.0
C3703 C 0.92745 0.47775 0.97277 0.0
C3704 C 0.87083 0.45326 0.97966 0.0
C3705 C 0.86486 0.4213 0.00533 0.0
N3706 N 0.91029 0.46716 0.9734 0.0
N3707 N 0.88355 0.42831 0.00176 0.0
H3708 H 0.33109 0.10886 0.77248 0.0
H3709 H 0.24154 0.18143 0.7497 0.0
H3710 H 0.27943 0.08223 0.74479 0.0
H3711 H 0.3027 0.19084 0.73151 0.0
H3712 H 0.25033 0.14641 0.7584 0.0
H3713 H 0.31497 0.14141 0.77057 0.0
C3714 C 0.31609 0.10975 0.76657 0.0
C3715 C 0.30662 0.0929 0.75859 0.0
C3716 C 0.26159 0.15634 0.7524 0.0
C3717 C 0.28833 0.13009 0.75619 0.0
C3718 C 0.25664 0.17612 0.74741 0.0
C3719 C 0.27138 0.18891 0.73971 0.0
C3720 C 0.28145 0.14999 0.75032 0.0
C3721 C 0.29077 0.18147 0.7371 0.0
C3722 C 0.30698 0.12832 0.76539 0.0
C3723 C 0.28729 0.09502 0.75078 0.0
N3724 N 0.29526 0.16263 0.74263 0.0
N3725 N 0.27877 0.11346 0.74949 0.0
H3726 H 0.16839 0.88774 0.23268 0.0
H3727 H 0.25295 0.81686 0.26977 0.0
H3728 H 0.20311 0.90242 0.28473 0.0
H3729 H 0.20393 0.79649 0.23382 0.0
H3730 H 0.23343 0.84639 0.27922 0.0
H3731 H 0.1804 0.85337 0.23469 0.0
C3732 C 0.17859 0.88371 0.24454 0.0
C3733 C 0.18497 0.89801 0.25841 0.0
C3734 C 0.22661 0.8351 0.26989 0.0
C3735 C 0.19864 0.85852 0.26098 0.0
C3736 C 0.23764 0.8181 0.26476 0.0
C3737 C 0.22991 0.8043 0.25111 0.0
C3738 C 0.20801 0.8384 0.26081 0.0
C3739 C 0.21028 0.80678 0.24454 0.0
C3740 C 0.18523 0.864 0.24586 0.0
C3741 C 0.19788 0.89184 0.27371 0.0
N3742 N 0.20016 0.82381 0.24903 0.0
N3743 N 0.20455 0.8726 0.27443 0.0
H3744 H 0.4789 0.36585 0.4091 0.0
H3745 H 0.50126 0.42623 0.50933 0.0
H3746 H 0.50679 0.34056 0.46123 0.0
H3747 H 0.50462 0.4543 0.45167 0.0
H3748 H 0.49067 0.39507 0.49341 0.0
H3749 H 0.47719 0.39843 0.42615 0.0
C3750 C 0.48441 0.36712 0.42422 0.0
C3751 C 0.49315 0.35058 0.43376 0.0
C3752 C 0.49305 0.40823 0.48428 0.0
C3753 C 0.49085 0.3875 0.45334 0.0
C3754 C 0.49878 0.42607 0.49337 0.0
C3755 C 0.50346 0.44287 0.48177 0.0
C3756 C 0.49209 0.40719 0.46342 0.0
C3757 C 0.50063 0.44178 0.46111 0.0
C3758 C 0.48345 0.38566 0.43387 0.0
C3759 C 0.50014 0.353 0.45329 0.0
N3760 N 0.49536 0.4241 0.45249 0.0
N3761 N 0.49882 0.3711 0.46244 0.0
H3762 H 0.3977 0.7196 0.18066 0.0
H3763 H 0.32496 0.7866 0.24049 0.0
H3764 H 0.41871 0.7714 0.21283 0.0
H3765 H 0.31334 0.72374 0.23233 0.0
H3766 H 0.36011 0.78076 0.23273 0.0
H3767 H 0.36754 0.71972 0.20099 0.0
C3768 C 0.3962 0.73078 0.19224 0.0
C3769 C 0.41068 0.74572 0.1948 0.0
C3770 C 0.35002 0.76813 0.23314 0.0
C3771 C 0.37595 0.74611 0.21788 0.0
C3772 C 0.33 0.77147 0.23759 0.0
C3773 C 0.31639 0.75562 0.23697 0.0
C3774 C 0.35624 0.74893 0.22736 0.0
C3775 C 0.32351 0.7363 0.23305 0.0
C3776 C 0.37893 0.73083 0.20385 0.0
C3777 C 0.4077 0.75995 0.20992 0.0
N3778 N 0.34293 0.73354 0.22788 0.0
N3779 N 0.39052 0.75999 0.22067 0.0
H3780 H 0.02827 0.63845 0.91187 0.0
H3781 H 0.99348 0.58019 0.00925 0.0
H3782 H 0.98641 0.66173 0.95494 0.0
H3783 H -0.00093 0.54823 0.95383 0.0
H3784 H 0.00275 0.6111 0.99223 0.0
H3785 H 0.02793 0.60608 0.9296 0.0
C3786 C 0.01915 0.63678 0.92512 0.0
C3787 C 0.00728 0.65273 0.93195 0.0
C3788 C 0.00259 0.59723 0.98389 0.0
C3789 C 0.0072 0.61618 0.9523 0.0
C3790 C -0.00241 0.57956 0.99362 0.0
C3791 C -0.00411 0.56164 0.98294 0.0
C3792 C 0.00597 0.59701 0.96328 0.0
C3793 C 0.00082 0.56167 0.96262 0.0
C3794 C 0.01893 0.61837 0.93511 0.0
C3795 C -0.00434 0.6498 0.9491 0.0
N3796 N 0.00547 0.57923 0.95329 0.0
N3797 N -0.004 0.63193 0.95874 0.0
H3798 H 0.10606 0.27334 0.66994 0.0
H3799 H 0.18204 0.21026 0.73413 0.0
H3800 H 0.09354 0.21359 0.69092 0.0
H3801 H 0.19774 0.26497 0.70401 0.0
H3802 H 0.15129 0.2087 0.71474 0.0
H3803 H 0.14063 0.26938 0.68045 0.0
C3804 C 0.11058 0.25945 0.67693 0.0
C3805 C 0.09697 0.2438 0.67968 0.0
C3806 C 0.1617 0.22075 0.7119 0.0
C3807 C 0.13653 0.23896 0.69127 0.0
C3808 C 0.17931 0.2215 0.7228 0.0
C3809 C 0.19227 0.23774 0.72051 0.0
C3810 C 0.15694 0.23667 0.6991 0.0
C3811 C 0.18816 0.2521 0.70593 0.0
C3812 C 0.13037 0.25706 0.68262 0.0
C3813 C 0.10365 0.22597 0.68845 0.0
N3814 N 0.17055 0.25148 0.69603 0.0
N3815 N 0.12298 0.22406 0.69404 0.0
H3816 H 0.48254 0.6392 0.08551 0.0
H3817 H 0.53591 0.57469 0.00202 0.0
H3818 H 0.53171 0.66054 0.04978 0.0
H3819 H 0.4932 0.54997 0.04335 0.0
H3820 H 0.53782 0.60485 0.02238 0.0
H3821 H 0.48802 0.60551 0.07231 0.0
C3822 C 0.49441 0.63676 0.0748 0.0
C3823 C 0.50659 0.6526 0.06855 0.0
C3824 C 0.52825 0.59274 0.02722 0.0
C3825 C 0.51315 0.61425 0.05369 0.0
C3826 C 0.52724 0.57554 0.01564 0.0
C3827 C 0.51416 0.56014 0.02096 0.0
C3828 C 0.51567 0.59466 0.04388 0.0
C3829 C 0.50339 0.56167 0.0388 0.0
C3830 C 0.49771 0.61753 0.06749 0.0
C3831 C 0.52202 0.64867 0.05498 0.0
N3832 N 0.50403 0.57892 0.04945 0.0
N3833 N 0.52477 0.6299 0.04789 0.0
H3834 H 0.10978 0.71783 0.82439 0.0
H3835 H 0.20224 0.78452 0.79432 0.0
H3836 H 0.10773 0.78149 0.81294 0.0
H3837 H 0.19091 0.73131 0.76003 0.0
H3838 H 0.17365 0.77663 0.81555 0.0
H3839 H 0.14427 0.71725 0.81204 0.0
C3840 C 0.11641 0.73167 0.81928 0.0
C3841 C 0.10567 0.74982 0.81989 0.0
C3842 C 0.17792 0.76625 0.80388 0.0
C3843 C 0.14533 0.74919 0.80686 0.0
C3844 C 0.19435 0.77057 0.79197 0.0
C3845 C 0.1987 0.75859 0.77542 0.0
C3846 C 0.16585 0.74986 0.79911 0.0
C3847 C 0.18791 0.74085 0.77273 0.0
C3848 C 0.13616 0.73127 0.81249 0.0
C3849 C 0.11538 0.76725 0.81337 0.0
N3850 N 0.17152 0.7372 0.78421 0.0
N3851 N 0.13466 0.7665 0.8073 0.0
H3852 H 0.97906 0.33376 0.53465 0.0
H3853 H 0.01153 0.44503 0.55224 0.0
H3854 H 0.02939 0.35079 0.57096 0.0
H3855 H 0.97829 0.42877 0.49977 0.0
H3856 H 0.01839 0.40983 0.55856 0.0
H3857 H 0.97862 0.36757 0.52037 0.0
C3858 C 0.99017 0.34449 0.53939 0.0
C3859 C 0.00412 0.33953 0.5542 0.0
C3860 C 0.00976 0.41385 0.54552 0.0
C3861 C 0.00368 0.37796 0.53802 0.0
C3862 C 0.00575 0.4339 0.54203 0.0
C3863 C 0.9942 0.43953 0.52564 0.0
C3864 C 0.00173 0.3993 0.53278 0.0
C3865 C 0.9872 0.42477 0.51262 0.0
C3866 C 0.99 0.36368 0.53114 0.0
C3867 C 0.0184 0.35385 0.55956 0.0
N3868 N 0.99078 0.40513 0.51666 0.0
N3869 N 0.01762 0.37248 0.55168 0.0
H3870 H 0.39848 0.28245 0.31613 0.0
H3871 H 0.32114 0.21157 0.26361 0.0
H3872 H 0.41477 0.22466 0.29229 0.0
H3873 H 0.31084 0.27496 0.26932 0.0
H3874 H 0.35622 0.21674 0.27176 0.0
H3875 H 0.36728 0.28094 0.29748 0.0
C3876 C 0.39572 0.26955 0.30678 0.0
C3877 C 0.40933 0.25352 0.30608 0.0
C3878 C 0.34646 0.22962 0.27082 0.0
C3879 C 0.37326 0.25162 0.28489 0.0
C3880 C 0.32644 0.22667 0.26608 0.0
C3881 C 0.31311 0.24286 0.26583 0.0
C3882 C 0.35315 0.24885 0.27593 0.0
C3883 C 0.32069 0.26211 0.26925 0.0
C3884 C 0.3778 0.26871 0.29614 0.0
C3885 C 0.4046 0.23715 0.29381 0.0
N3886 N 0.34015 0.26454 0.2746 0.0
N3887 N 0.38691 0.23653 0.28394 0.0
H3888 H 0.45099 0.53368 0.33637 0.0
H3889 H 0.48262 0.47982 0.43813 0.0
H3890 H 0.43653 0.47228 0.35035 0.0
H3891 H 0.47444 0.54351 0.43221 0.0
H3892 H 0.47492 0.47593 0.40253 0.0
H3893 H 0.46821 0.53639 0.36832 0.0
C3894 C 0.45143 0.52075 0.34608 0.0
C3895 C 0.44193 0.50282 0.3407 0.0
C3896 C 0.47521 0.49078 0.40898 0.0
C3897 C 0.46211 0.50575 0.37713 0.0
C3898 C 0.47982 0.49301 0.42919 0.0
C3899 C 0.47912 0.51199 0.43804 0.0
C3900 C 0.47012 0.5077 0.39761 0.0
C3901 C 0.475 0.5286 0.42593 0.0
C3902 C 0.46142 0.52229 0.36425 0.0
C3903 C 0.44365 0.48639 0.35372 0.0
N3904 N 0.47054 0.52607 0.40635 0.0
N3905 N 0.4534 0.4883 0.37137 0.0
H3906 H 0.27112 0.66339 0.10833 0.0
H3907 H 0.22388 0.75067 0.17188 0.0
H3908 H 0.22085 0.69812 0.08792 0.0
H3909 H 0.26084 0.70472 0.19781 0.0
H3910 H 0.22076 0.7305 0.14165 0.0
H3911 H 0.26691 0.67772 0.14161 0.0
C3912 C 0.25924 0.67408 0.11089 0.0
C3913 C 0.24644 0.67979 0.0954 0.0
C3914 C 0.22932 0.72467 0.15404 0.0
C3915 C 0.24141 0.69604 0.13331 0.0
C3916 C 0.23111 0.73618 0.17122 0.0
C3917 C 0.24285 0.72936 0.18708 0.0
C3918 C 0.23984 0.70655 0.15259 0.0
C3919 C 0.25171 0.71043 0.18579 0.0
C3920 C 0.25668 0.68205 0.1299 0.0
C3921 C 0.23102 0.69337 0.09951 0.0
N3922 N 0.25037 0.69981 0.1686 0.0
N3923 N 0.22906 0.70121 0.11806 0.0
H3924 H 0.03988 0.47422 0.83137 0.0
H3925 H 0.02039 0.52573 0.93675 0.0
H3926 H 0.06686 0.52957 0.85081 0.0
H3927 H 0.01494 0.46241 0.9261 0.0
H3928 H 0.02625 0.53095 0.90103 0.0
H3929 H 0.02034 0.47349 0.86217 0.0
C3930 C 0.04163 0.48628 0.84199 0.0
C3931 C 0.05542 0.50174 0.83863 0.0
C3932 C 0.02323 0.51599 0.90646 0.0
C3933 C 0.03266 0.50125 0.87351 0.0
C3934 C 0.01969 0.51306 0.92674 0.0
C3935 C 0.01727 0.49366 0.93418 0.0
C3936 C 0.02425 0.49935 0.89372 0.0
C3937 C 0.01696 0.47758 0.9208 0.0
C3938 C 0.03031 0.48594 0.85944 0.0
C3939 C 0.05646 0.51734 0.85263 0.0
N3940 N 0.02064 0.48076 0.90116 0.0
N3941 N 0.0454 0.51657 0.86955 0.0
H3942 H 0.27192 0.30329 0.60236 0.0
H3943 H 0.23314 0.26711 0.69947 0.0
H3944 H 0.21433 0.32981 0.6146 0.0
H3945 H 0.28674 0.30249 0.69847 0.0
H3946 H 0.2216 0.28469 0.66932 0.0
H3947 H 0.27476 0.29451 0.63752 0.0
C3948 C 0.25987 0.30728 0.61237 0.0
C3949 C 0.24306 0.31771 0.60553 0.0
C3950 C 0.23545 0.28917 0.67631 0.0
C3951 C 0.2461 0.30723 0.64558 0.0
C3952 C 0.24186 0.27938 0.6936 0.0
C3953 C 0.26091 0.28331 0.70113 0.0
C3954 C 0.24848 0.30248 0.66674 0.0
C3955 C 0.27204 0.29893 0.69281 0.0
C3956 C 0.26151 0.30224 0.63237 0.0
C3957 C 0.22755 0.32175 0.61918 0.0
N3958 N 0.26598 0.30752 0.67558 0.0
N3959 N 0.22941 0.31647 0.6387 0.0
H3960 H 0.40902 0.48293 0.13447 0.0
H3961 H 0.49863 0.51619 0.06684 0.0
H3962 H 0.45141 0.52755 0.1533 0.0
H3963 H 0.44821 0.48307 0.04505 0.0
H3964 H 0.47929 0.52575 0.09632 0.0
H3965 H 0.42141 0.48604 0.10041 0.0
C3966 C 0.42101 0.49336 0.13141 0.0
C3967 C 0.42939 0.50478 0.14677 0.0
C3968 C 0.47214 0.51702 0.08477 0.0
C3969 C 0.44357 0.50864 0.10766 0.0
C3970 C 0.48308 0.51187 0.06777 0.0
C3971 C 0.47492 0.49888 0.05359 0.0
C3972 C 0.45311 0.5087 0.08765 0.0
C3973 C 0.45495 0.49321 0.05567 0.0
C3974 C 0.42791 0.49534 0.1119 0.0
C3975 C 0.44458 0.5184 0.14188 0.0
N3976 N 0.44485 0.49773 0.07267 0.0
N3977 N 0.45139 0.51976 0.12279 0.0
H3978 H 0.26922 0.71755 0.9151 0.0
H3979 H 0.23068 0.71417 0.80324 0.0
H3980 H 0.22383 0.67736 0.89335 0.0
H3981 H 0.27721 0.75363 0.82337 0.0
H3982 H 0.2233 0.70539 0.83782 0.0
H3983 H 0.26805 0.73552 0.88334 0.0
C3984 C 0.25891 0.71262 0.90372 0.0
C3985 C 0.24681 0.69578 0.90677 0.0
C3986 C 0.2348 0.71635 0.83481 0.0
C3987 C 0.24528 0.71628 0.87057 0.0
C3988 C 0.23891 0.72141 0.81512 0.0
C3989 C 0.2545 0.73459 0.81077 0.0
C3990 C 0.24655 0.72444 0.85014 0.0
C3991 C 0.26507 0.74338 0.82638 0.0
C3992 C 0.25814 0.72295 0.88567 0.0
C3993 C 0.23339 0.6903 0.89171 0.0
N3994 N 0.26103 0.73799 0.8455 0.0
N3995 N 0.23316 0.70038 0.87419 0.0
H3996 H 0.05354 0.47869 0.64914 0.0
H3997 H 0.027 0.54384 0.56073 0.0
H3998 H 0.08798 0.53305 0.64316 0.0
H3999 H 0.04129 0.48182 0.55058 0.0
H4000 H 0.0467 0.5429 0.59159 0.0
H4001 H 0.04421 0.4815 0.61407 0.0
C4002 C 0.05928 0.49112 0.64051 0.0
C4003 C 0.07169 0.50558 0.64919 0.0
C4004 C 0.04609 0.52975 0.58218 0.0
C4005 C 0.0607 0.50898 0.60926 0.0
C4006 C 0.03509 0.53034 0.56456 0.0
C4007 C 0.03283 0.51294 0.55316 0.0
C4008 C 0.05401 0.51144 0.5886 0.0
C4009 C 0.04303 0.49559 0.5589 0.0
C4010 C 0.05396 0.49266 0.62052 0.0
C4011 C 0.07812 0.52171 0.63728 0.0
N4012 N 0.0527 0.49506 0.57664 0.0
N4013 N 0.07236 0.52311 0.61793 0.0
H4014 H 0.26777 0.30384 0.41138 0.0
H4015 H 0.21084 0.27656 0.31286 0.0
H4016 H 0.21304 0.33491 0.39719 0.0
H4017 H 0.27493 0.27613 0.31736 0.0
H4018 H 0.20916 0.29614 0.34407 0.0
H4019 H 0.26856 0.29046 0.37771 0.0
C4020 C 0.25598 0.30803 0.40119 0.0
C4021 C 0.24043 0.32075 0.40719 0.0
C4022 C 0.22356 0.29211 0.33792 0.0
C4023 C 0.24106 0.305 0.36856 0.0
C4024 C 0.22451 0.2811 0.32016 0.0
C4025 C 0.24305 0.27486 0.31276 0.0
C4026 C 0.24128 0.2964 0.34826 0.0
C4027 C 0.26038 0.28069 0.32276 0.0
C4028 C 0.25644 0.30032 0.38193 0.0
C4029 C 0.22522 0.32501 0.39335 0.0
N4030 N 0.25907 0.29091 0.34015 0.0
N4031 N 0.22585 0.31706 0.37467 0.0
H4032 H 0.33839 0.44852 0.48435 0.0
H4033 H 0.44011 0.4664 0.5388 0.0
H4034 H 0.35444 0.40988 0.53345 0.0
H4035 H 0.43255 0.47485 0.47558 0.0
H4036 H 0.40898 0.44663 0.53947 0.0
H4037 H 0.37246 0.46092 0.4834 0.0
C4038 C 0.34908 0.44247 0.49484 0.0
C4039 C 0.34347 0.42794 0.50887 0.0
C4040 C 0.41447 0.45242 0.52541 0.0
C4041 C 0.38261 0.44247 0.50806 0.0
C4042 C 0.43223 0.46351 0.52502 0.0
C4043 C 0.43875 0.47209 0.50709 0.0
C4044 C 0.40316 0.45054 0.50786 0.0
C4045 C 0.42792 0.46837 0.48966 0.0
C4046 C 0.36857 0.4496 0.49429 0.0
C4047 C 0.35798 0.42123 0.5225 0.0
N4048 N 0.41049 0.45817 0.49053 0.0
N4049 N 0.37691 0.42863 0.52184 0.0
H4050 H 0.8639 0.0833 0.49119 0.0
H4051 H 0.92328 0.98809 0.48203 0.0
H4052 H 0.83096 0.03028 0.50712 0.0
H4053 H 0.94603 0.03551 0.519 0.0
H4054 H 0.88919 0.00073 0.48772 0.0
H4055 H 0.89511 0.06476 0.49587 0.0
C4056 C 0.86333 0.06769 0.49551 0.0
C4057 C 0.84507 0.05814 0.49867 0.0
C4058 C 0.90164 0.00787 0.49512 0.0
C4059 C 0.88033 0.03705 0.50405 0.0
C4060 C 0.92095 0.00063 0.492 0.0
C4061 C 0.93722 0.01078 0.50022 0.0
C4062 C 0.89902 0.02577 0.5057 0.0
C4063 C 0.9337 0.02723 0.51264 0.0
C4064 C 0.88102 0.05725 0.49842 0.0
C4065 C 0.84492 0.03797 0.50448 0.0
N4066 N 0.91498 0.03465 0.51451 0.0
N4067 N 0.86241 0.02788 0.50672 0.0
H4068 H 0.7003 0.10028 0.26782 0.0
H4069 H 0.71805 0.19178 0.20158 0.0
H4070 H 0.65927 0.1092 0.21896 0.0
H4071 H 0.7161 0.19875 0.26546 0.0
H4072 H 0.69873 0.16063 0.20489 0.0
H4073 H 0.71057 0.13523 0.26477 0.0
C4074 C 0.69335 0.10958 0.25657 0.0
C4075 C 0.67889 0.1018 0.24365 0.0
C4076 C 0.70209 0.16935 0.21807 0.0
C4077 C 0.69077 0.14149 0.23996 0.0
C4078 C 0.71289 0.18708 0.21617 0.0
C4079 C 0.71833 0.19773 0.23326 0.0
C4080 C 0.69773 0.16205 0.2372 0.0
C4081 C 0.71181 0.19099 0.25194 0.0
C4082 C 0.69919 0.12946 0.25487 0.0
C4083 C 0.67074 0.11445 0.22899 0.0
N4084 N 0.70231 0.17319 0.2535 0.0
N4085 N 0.67695 0.13369 0.2274 0.0
H4086 H 0.65051 0.95247 0.03215 0.0
H4087 H 0.54471 0.94875 0.97915 0.0
H4088 H 0.63235 0.90781 0.9895 0.0
H4089 H 0.56371 -0.00263 0.01659 0.0
H4090 H 0.57304 0.92888 0.99068 0.0
H4091 H 0.6162 0.96514 0.03308 0.0
C4092 C 0.63925 0.94523 0.02312 0.0
C4093 C 0.64431 0.92927 0.01049 0.0
C4094 C 0.57076 0.94367 -0.00312 0.0
C4095 C 0.60509 0.94354 0.0116 0.0
C4096 C 0.55441 0.95485 0.99053 0.0
C4097 C 0.55199 0.97457 -0.00295 0.0
C4098 C 0.58501 0.95257 0.00938 0.0
C4099 C 0.56511 0.98208 0.01141 0.0
C4100 C 0.61969 0.95243 0.02369 0.0
C4101 C 0.62918 0.92044 -0.0009 0.0
N4102 N 0.58139 0.97122 0.01679 0.0
N4103 N 0.61031 0.92777 -0.00017 0.0
H4104 H 0.34218 0.38408 0.23317 0.0
H4105 H 0.2508 0.31812 0.26835 0.0
H4106 H 0.29982 0.40344 0.27766 0.0
H4107 H 0.29674 0.29728 0.22854 0.0
H4108 H 0.27199 0.3465 0.27755 0.0
H4109 H 0.32866 0.35026 0.23541 0.0
C4110 C 0.32998 0.38119 0.2434 0.0
C4111 C 0.3219 0.39665 0.25502 0.0
C4112 C 0.27776 0.3354 0.26728 0.0
C4113 C 0.30639 0.35786 0.25782 0.0
C4114 C 0.26577 0.31905 0.2623 0.0
C4115 C 0.27217 0.30545 0.24776 0.0
C4116 C 0.29598 0.33825 0.25726 0.0
C4117 C 0.29141 0.30747 0.23993 0.0
C4118 C 0.3224 0.36182 0.24484 0.0
C4119 C 0.30644 0.39196 0.26838 0.0
N4120 N 0.30251 0.32383 0.24444 0.0
N4121 N 0.299 0.37305 0.26922 0.0
H4122 H 0.13669 0.60305 0.01219 0.0
H4123 H 0.08087 0.49942 0.02509 0.0
H4124 H 0.16242 0.54547 -0.00137 0.0
H4125 H 0.04918 0.54949 -0.00044 0.0
H4126 H 0.11057 0.52016 0.02793 0.0
H4127 H 0.10416 0.58668 0.01787 0.0
C4128 C 0.13542 0.58699 0.01047 0.0
C4129 C 0.15203 0.57548 0.00484 0.0
C4130 C 0.09701 0.52668 0.02202 0.0
C4131 C 0.1156 0.55693 0.01184 0.0
C4132 C 0.08007 0.51492 0.02042 0.0
C4133 C 0.06279 0.52264 0.01152 0.0
C4134 C 0.09667 0.54627 0.01468 0.0
C4135 C 0.06237 0.54296 0.00623 0.0
C4136 C 0.11701 0.57776 0.0137 0.0
C4137 C 0.14986 0.5548 0.00278 0.0
N4138 N 0.07931 0.5541 0.00753 0.0
N4139 N 0.13197 0.54615 0.00642 0.0
H4140 H 0.66185 0.8964 0.26472 0.0
H4141 H 0.74843 0.81594 0.2477 0.0
H4142 H 0.71813 0.91314 0.23843 0.0
H4143 H 0.69474 0.80719 0.28243 0.0
H4144 H 0.73805 0.85082 0.24166 0.0
H4145 H 0.67358 0.86225 0.26786 0.0
C4146 C 0.67681 0.89274 0.25972 0.0
C4147 C 0.68924 0.9074 0.25167 0.0
C4148 C 0.7287 0.84115 0.25064 0.0
C4149 C 0.70299 0.86843 0.25532 0.0
C4150 C 0.7346 0.82135 0.25413 0.0
C4151 C 0.72251 0.8087 0.26571 0.0
C4152 C 0.71053 0.84799 0.25859 0.0
C4153 C 0.70473 0.81637 0.27363 0.0
C4154 C 0.68355 0.87328 0.26148 0.0
C4155 C 0.7083 0.90205 0.2449 0.0
N4156 N 0.6993 0.8354 0.26983 0.0
N4157 N 0.71477 0.88285 0.24704 0.0
H4158 H 0.8405 0.11019 0.72204 0.0
H4159 H 0.74369 0.1733 0.75174 0.0
H4160 H 0.78965 0.08617 0.75338 0.0
H4161 H 0.80232 0.19917 0.74885 0.0
H4162 H 0.75741 0.1415 0.73974 0.0
H4163 H 0.8237 0.14286 0.72052 0.0
C4164 C 0.82568 0.11174 0.72833 0.0
C4165 C 0.81648 0.09555 0.73801 0.0
C4166 C 0.76714 0.15437 0.74098 0.0
C4167 C 0.79718 0.13262 0.73601 0.0
C4168 C 0.75928 0.17257 0.74749 0.0
C4169 C 0.77188 0.18893 0.7508 0.0
C4170 C 0.78776 0.15258 0.73785 0.0
C4171 C 0.79207 0.18709 0.74579 0.0
C4172 C 0.81616 0.13033 0.72746 0.0
C4173 C 0.79734 0.09835 0.746 0.0
N4174 N 0.7995 0.1691 0.73981 0.0
N4175 N 0.78833 0.11654 0.74486 0.0
loop_
_geom_bond_atom_site_label_1
_geom_bond_atom_site_label_2
_geom_bond_distance
_geom_bond_site_symmetry_2
_ccdc_geom_bond_type
Li0 N17 1.990 . S
Li0 O60 1.956 . S
Li0 O61 1.970 . S
Li0 O62 1.961 1_455 S
Li1 N25 1.990 . S
Li1 O60 1.970 . S
Li1 O61 1.956 . S
Li1 O63 1.961 . S
Li2 N47 1.990 . S
Li2 O60 1.961 . S
Li2 O62 1.956 1_455 S
Li2 O63 1.970 . S
Li3 N53 1.990 . S
Li3 O61 1.961 1_655 S
Li3 O62 1.970 . S
Li3 O63 1.956 1_655 S
C4 C6 1.348 . S
C4 C7 1.356 . S
C4 O60 1.325 . S
N5 C8 1.314 . S
N5 C9 1.279 . S
C6 C4 1.348 . S
C6 C8 1.353 . S
C6 H64 0.929 . S
C7 C4 1.356 . S
C7 C9 1.358 . S
C7 H65 0.930 . S
C8 N5 1.314 . S
C8 C6 1.353 . S
C8 H66 0.930 . S
C9 N5 1.279 . S
C9 C7 1.358 . S
C9 H67 0.930 . S
C10 C13 1.348 . S
C10 C14 1.357 1_455 S
C10 O61 1.325 . S
C11 N12 1.287 . S
C11 C14 1.358 1_455 S
C11 H68 0.924 1_455 S
N12 C11 1.287 . S
N12 C15 1.314 . S
C13 C10 1.348 . S
C13 C15 1.353 . S
C13 H69 0.929 . S
C14 C10 1.357 1_655 S
C14 C11 1.358 1_655 S
C14 H70 0.929 . S
C15 N12 1.314 . S
C15 C13 1.353 . S
C15 H71 0.930 . S
C16 N17 1.314 1_655 S
C16 C21 1.353 . S
C16 H22 0.930 . S
N17 Li0 1.990 . S
N17 C16 1.314 1_455 S
N17 C19 1.279 . S
C18 C19 1.358 . S
C18 C20 1.356 . S
C18 H72 0.930 . S
C19 N17 1.279 . S
C19 C18 1.358 . S
C19 H23 0.930 . S
C20 C18 1.356 . S
C20 C21 1.348 1_455 S
C21 C16 1.353 . S
C21 C20 1.348 1_655 S
C21 H73 0.929 . S
H22 C16 0.930 . S
H23 C19 0.930 . S
C24 N25 1.314 . S
C24 C26 1.353 . S
C24 H30 0.930 . S
N25 Li1 1.990 . S
N25 C24 1.314 . S
N25 C28 1.279 . S
C26 C24 1.353 . S
C26 C29 1.348 . S
C26 H74 0.929 . S
C27 C28 1.358 . S
C27 C29 1.356 . S
C27 H75 0.930 . S
C28 N25 1.279 . S
C28 C27 1.358 . S
C28 H31 0.930 . S
C29 C26 1.348 . S
C29 C27 1.356 . S
H30 C24 0.930 . S
H31 C28 0.930 . S
C32 C34 1.348 . S
C32 C35 1.356 . S
C32 O62 1.325 . S
N33 C36 1.314 . S
N33 C37 1.279 . S
C34 C32 1.348 . S
C34 C36 1.353 . S
C34 H76 0.929 . S
C35 C32 1.356 . S
C35 C37 1.358 . S
C35 H77 0.930 . S
C36 N33 1.314 . S
C36 C34 1.353 . S
C36 H78 0.930 . S
C37 N33 1.279 . S
C37 C35 1.358 . S
C37 H79 0.930 . S
C38 C39 1.348 1_455 S
C38 C40 1.356 . S
C38 O63 1.325 . S
C39 C38 1.348 1_655 S
C39 C41 1.353 . S
C39 H80 0.929 . S
C40 C38 1.356 . S
C40 C42 1.358 . S
C40 H81 0.930 . S
C41 C39 1.353 . S
C41 N43 1.314 1_655 S
C41 H82 0.930 . S
C42 C40 1.358 . S
C42 N43 1.279 . S
C42 H83 0.930 . S
N43 C41 1.314 1_455 S
N43 C42 1.279 . S
C44 C46 1.353 . S
C44 N47 1.314 . S
C44 H50 0.930 . S
C45 N47 1.279 1_655 S
C45 C48 1.358 . S
C45 H51 0.930 . S
C46 C44 1.353 . S
C46 C49 1.348 . S
C46 H84 0.929 . S
N47 Li2 1.990 . S
N47 C44 1.314 . S
N47 C45 1.279 1_455 S
C48 C45 1.358 . S
C48 C49 1.356 1_655 S
C48 H85 0.930 . S
C49 C46 1.348 . S
C49 C48 1.356 1_455 S
H50 C44 0.930 . S
H51 C45 0.930 . S
C52 N53 1.314 . S
C52 C54 1.353 . S
C52 H58 0.930 . S
N53 Li3 1.990 . S
N53 C52 1.314 . S
N53 C56 1.279 . S
C54 C52 1.353 . S
C54 C57 1.348 . S
C54 H86 0.929 . S
C55 C56 1.358 . S
C55 C57 1.356 . S
C55 H87 0.930 . S
C56 N53 1.279 . S
C56 C55 1.358 . S
C56 H59 0.930 . S
C57 C54 1.348 . S
C57 C55 1.356 . S
H58 C52 0.930 . S
H59 C56 0.930 . S
O60 Li0 1.956 . S
O60 Li1 1.970 . S
O60 Li2 1.961 . S
O60 C4 1.325 . S
O61 Li0 1.970 . S
O61 Li1 1.956 . S
O61 Li3 1.961 1_455 S
O61 C10 1.325 . S
O62 Li0 1.961 1_655 S
O62 Li2 1.956 1_655 S
O62 Li3 1.970 . S
O62 C32 1.325 . S
O63 Li1 1.961 . S
O63 Li2 1.970 . S
O63 Li3 1.956 1_455 S
O63 C38 1.325 . S
H64 C6 0.929 . S
H65 C7 0.930 . S
H66 C8 0.930 . S
H67 C9 0.930 . S
H68 C11 0.924 1_655 S
H69 C13 0.929 . S
H70 C14 0.929 . S
H71 C15 0.930 . S
H72 C18 0.930 . S
H73 C21 0.929 . S
H74 C26 0.929 . S
H75 C27 0.930 . S
H76 C34 0.929 . S
H77 C35 0.930 . S
H78 C36 0.930 . S
H79 C37 0.930 . S
H80 C39 0.929 . S
H81 C40 0.930 . S
H82 C41 0.930 . S
H83 C42 0.930 . S
H84 C46 0.929 . S
H85 C48 0.930 . S
H86 C54 0.929 . S
H87 C55 0.930 . S
Li88 N105 1.990 . S
Li88 O148 1.956 1_655 S
Li88 O149 1.970 . S
Li88 O150 1.961 1_655 S
Li89 N113 1.990 . S
Li89 O148 1.970 . S
Li89 O149 1.956 1_455 S
Li89 O151 1.961 . S
Li90 N135 1.990 . S
Li90 O148 1.961 . S
Li90 O150 1.956 . S
Li90 O151 1.970 . S
Li91 N141 1.990 . S
Li91 O149 1.961 1_455 S
Li91 O150 1.970 . S
Li91 O151 1.956 . S
C92 C94 1.363 . S
C92 C95 1.356 . S
C92 O148 1.325 . S
N93 C96 1.327 . S
N93 C97 1.279 . S
C94 C92 1.363 . S
C94 C96 1.353 . S
C94 H152 0.916 1_455 S
C95 C92 1.356 . S
C95 C97 1.358 . S
C95 H153 0.930 . S
C96 N93 1.327 . S
C96 C94 1.353 . S
C96 H154 0.918 1_455 S
C97 N93 1.279 . S
C97 C95 1.358 . S
C97 H155 0.930 . S
C98 C101 1.348 . S
C98 C102 1.356 . S
C98 O149 1.325 . S
C99 N100 1.279 . S
C99 C102 1.358 . S
C99 H156 0.930 . S
N100 C99 1.279 . S
N100 C103 1.314 . S
C101 C98 1.348 . S
C101 C103 1.353 . S
C101 H157 0.929 . S
C102 C98 1.356 . S
C102 C99 1.358 . S
C102 H158 0.930 . S
C103 N100 1.314 . S
C103 C101 1.353 . S
C103 H159 0.930 . S
C104 N105 1.314 . S
C104 C109 1.353 . S
C104 H110 0.930 . S
N105 Li88 1.990 . S
N105 C104 1.314 . S
N105 C107 1.279 . S
C106 C107 1.358 . S
C106 C108 1.356 . S
C106 H160 0.930 . S
C107 N105 1.279 . S
C107 C106 1.358 . S
C107 H111 0.930 . S
C108 C106 1.356 . S
C108 C109 1.348 . S
C109 C104 1.353 . S
C109 C108 1.348 . S
C109 H161 0.929 . S
H110 C104 0.930 . S
H111 C107 0.930 . S
C112 N113 1.314 . S
C112 C114 1.353 . S
C112 H118 0.930 . S
N113 Li89 1.990 . S
N113 C112 1.314 . S
N113 C116 1.279 1_455 S
C114 C112 1.353 . S
C114 C117 1.348 . S
C114 H162 0.929 . S
C115 C116 1.358 . S
C115 C117 1.356 1_655 S
C115 H163 0.930 . S
C116 N113 1.279 1_655 S
C116 C115 1.358 . S
C116 H119 0.930 . S
C117 C114 1.348 . S
C117 C115 1.356 1_455 S
H118 C112 0.930 . S
H119 C116 0.930 . S
C120 C122 1.348 . S
C120 C123 1.356 . S
C120 O150 1.325 . S
N121 C124 1.314 . S
N121 C125 1.279 . S
C122 C120 1.348 . S
C122 C124 1.353 . S
C122 H164 0.929 . S
C123 C120 1.356 . S
C123 C125 1.358 . S
C123 H165 0.926 1_455 S
C124 N121 1.314 . S
C124 C122 1.353 . S
C124 H166 0.930 . S
C125 N121 1.279 . S
C125 C123 1.358 . S
C125 H167 0.926 1_455 S
C126 C127 1.348 . S
C126 C128 1.356 . S
C126 O151 1.325 . S
C127 C126 1.348 . S
C127 C129 1.353 . S
C127 H168 0.929 . S
C128 C126 1.356 . S
C128 C130 1.358 . S
C128 H169 0.930 . S
C129 C127 1.353 . S
C129 N131 1.314 . S
C129 H170 0.930 . S
C130 C128 1.358 . S
C130 N131 1.279 . S
C130 H171 0.930 . S
N131 C129 1.314 . S
N131 C130 1.279 . S
C132 C134 1.353 . S
C132 N135 1.314 . S
C132 H138 0.930 . S
C133 N135 1.279 . S
C133 C136 1.358 . S
C133 H139 0.930 . S
C134 C132 1.353 . S
C134 C137 1.348 . S
C134 H172 0.929 . S
N135 Li90 1.990 . S
N135 C132 1.314 . S
N135 C133 1.279 . S
C136 C133 1.358 . S
C136 C137 1.356 . S
C136 H173 0.930 . S
C137 C134 1.348 . S
C137 C136 1.356 . S
H138 C132 0.930 . S
H139 C133 0.930 . S
C140 N141 1.314 1_655 S
C140 C142 1.353 . S
C140 H146 0.930 . S
N141 Li91 1.990 . S
N141 C140 1.314 1_455 S
N141 C144 1.279 . S
C142 C140 1.353 . S
C142 C145 1.348 1_655 S
C142 H174 0.929 . S
C143 C144 1.358 . S
C143 C145 1.356 . S
C143 H175 0.930 . S
C144 N141 1.279 . S
C144 C143 1.358 . S
C144 H147 0.930 . S
C145 C142 1.348 1_455 S
C145 C143 1.356 . S
H146 C140 0.930 . S
H147 C144 0.930 . S
O148 Li88 1.956 1_455 S
O148 Li89 1.970 . S
O148 Li90 1.961 . S
O148 C92 1.325 . S
O149 Li88 1.970 . S
O149 Li89 1.956 1_655 S
O149 Li91 1.961 1_655 S
O149 C98 1.325 . S
O150 Li88 1.961 1_455 S
O150 Li90 1.956 . S
O150 Li91 1.970 . S
O150 C120 1.325 . S
O151 Li89 1.961 . S
O151 Li90 1.970 . S
O151 Li91 1.956 . S
O151 C126 1.325 . S
H152 C94 0.916 1_655 S
H153 C95 0.930 . S
H154 C96 0.918 1_655 S
H155 C97 0.930 . S
H156 C99 0.930 . S
H157 C101 0.929 . S
H158 C102 0.930 . S
H159 C103 0.930 . S
H160 C106 0.930 . S
H161 C109 0.929 . S
H162 C114 0.929 . S
H163 C115 0.930 . S
H164 C122 0.929 . S
H165 C123 0.926 1_655 S
H166 C124 0.930 . S
H167 C125 0.926 1_655 S
H168 C127 0.929 . S
H169 C128 0.930 . S
H170 C129 0.930 . S
H171 C130 0.930 . S
H172 C134 0.929 . S
H173 C136 0.930 . S
H174 C142 0.929 . S
H175 C143 0.930 . S
Li176 N193 1.990 . S
Li176 O236 1.956 . S
Li176 O237 1.970 . S
Li176 O238 1.961 . S
Li177 N201 1.990 . S
Li177 O236 1.970 . S
Li177 O237 1.956 . S
Li177 O239 1.961 . S
Li178 N223 1.990 . S
Li178 O236 1.961 . S
Li178 O238 1.956 . S
Li178 O239 1.970 . S
Li179 N229 1.990 . S
Li179 O237 1.961 . S
Li179 O238 1.970 . S
Li179 O239 1.956 . S
C180 C182 1.348 . S
C180 C183 1.356 . S
C180 O236 1.325 . S
N181 C184 1.314 . S
N181 C185 1.279 . S
C182 C180 1.348 . S
C182 C184 1.353 . S
C182 H240 0.929 . S
C183 C180 1.356 . S
C183 C185 1.358 . S
C183 H241 0.930 . S
C184 N181 1.314 . S
C184 C182 1.353 . S
C184 H242 0.930 . S
C185 N181 1.279 . S
C185 C183 1.358 . S
C185 H243 0.930 . S
C186 C189 1.348 . S
C186 C190 1.356 . S
C186 O237 1.325 . S
C187 N188 1.279 . S
C187 C190 1.358 . S
C187 H244 0.930 . S
N188 C187 1.279 . S
N188 C191 1.314 . S
C189 C186 1.348 . S
C189 C191 1.353 . S
C189 H245 0.929 . S
C190 C186 1.356 . S
C190 C187 1.358 . S
C190 H246 0.930 . S
C191 N188 1.314 . S
C191 C189 1.353 . S
C191 H247 0.930 . S
C192 N193 1.314 . S
C192 C197 1.353 . S
C192 H198 0.930 . S
N193 Li176 1.990 . S
N193 C192 1.314 . S
N193 C195 1.279 . S
C194 C195 1.358 . S
C194 C196 1.356 . S
C194 H248 0.930 . S
C195 N193 1.279 . S
C195 C194 1.358 . S
C195 H199 0.930 . S
C196 C194 1.356 . S
C196 C197 1.348 . S
C197 C192 1.353 . S
C197 C196 1.348 . S
C197 H249 0.929 . S
H198 C192 0.930 . S
H199 C195 0.930 . S
C200 N201 1.314 . S
C200 C202 1.353 . S
C200 H206 0.930 . S
N201 Li177 1.990 . S
N201 C200 1.314 . S
N201 C204 1.279 . S
C202 C200 1.353 . S
C202 C205 1.348 . S
C202 H250 0.929 . S
C203 C204 1.358 . S
C203 C205 1.356 . S
C203 H251 0.930 . S
C204 N201 1.279 . S
C204 C203 1.358 . S
C204 H207 0.930 . S
C205 C202 1.348 . S
C205 C203 1.356 . S
H206 C200 0.930 . S
H207 C204 0.930 . S
C208 C210 1.348 . S
C208 C211 1.356 . S
C208 O238 1.325 . S
N209 C212 1.314 . S
N209 C213 1.279 . S
C210 C208 1.348 . S
C210 C212 1.353 . S
C210 H252 0.929 . S
C211 C208 1.356 . S
C211 C213 1.358 . S
C211 H253 0.930 . S
C212 N209 1.314 . S
C212 C210 1.353 . S
C212 H254 0.930 . S
C213 N209 1.279 . S
C213 C211 1.358 . S
C213 H255 0.930 . S
C214 C215 1.348 . S
C214 C216 1.356 . S
C214 O239 1.325 . S
C215 C214 1.348 . S
C215 C217 1.353 . S
C215 H256 0.929 . S
C216 C214 1.356 . S
C216 C218 1.358 . S
C216 H257 0.930 . S
C217 C215 1.353 . S
C217 N219 1.314 . S
C217 H258 0.930 . S
C218 C216 1.358 . S
C218 N219 1.279 . S
C218 H259 0.930 . S
N219 C217 1.314 . S
N219 C218 1.279 . S
C220 C222 1.353 . S
C220 N223 1.314 . S
C220 H226 0.930 . S
C221 N223 1.279 . S
C221 C224 1.358 . S
C221 H227 0.930 . S
C222 C220 1.353 . S
C222 C225 1.348 . S
C222 H260 0.929 . S
N223 Li178 1.990 . S
N223 C220 1.314 . S
N223 C221 1.279 . S
C224 C221 1.358 . S
C224 C225 1.356 . S
C224 H261 0.930 . S
C225 C222 1.348 . S
C225 C224 1.356 . S
H226 C220 0.930 . S
H227 C221 0.930 . S
C228 N229 1.314 . S
C228 C230 1.353 . S
C228 H234 0.930 . S
N229 Li179 1.990 . S
N229 C228 1.314 . S
N229 C232 1.279 . S
C230 C228 1.353 . S
C230 C233 1.348 . S
C230 H262 0.929 . S
C231 C232 1.358 . S
C231 C233 1.356 . S
C231 H263 0.930 . S
C232 N229 1.279 . S
C232 C231 1.358 . S
C232 H235 0.930 . S
C233 C230 1.348 . S
C233 C231 1.356 . S
H234 C228 0.930 . S
H235 C232 0.930 . S
O236 Li176 1.956 . S
O236 Li177 1.970 . S
O236 Li178 1.961 . S
O236 C180 1.325 . S
O237 Li176 1.970 . S
O237 Li177 1.956 . S
O237 Li179 1.961 . S
O237 C186 1.325 . S
O238 Li176 1.961 . S
O238 Li178 1.956 . S
O238 Li179 1.970 . S
O238 C208 1.325 . S
O239 Li177 1.961 . S
O239 Li178 1.970 . S
O239 Li179 1.956 . S
O239 C214 1.325 . S
H240 C182 0.929 . S
H241 C183 0.930 . S
H242 C184 0.930 . S
H243 C185 0.930 . S
H244 C187 0.930 . S
H245 C189 0.929 . S
H246 C190 0.930 . S
H247 C191 0.930 . S
H248 C194 0.930 . S
H249 C197 0.929 . S
H250 C202 0.929 . S
H251 C203 0.930 . S
H252 C210 0.929 . S
H253 C211 0.930 . S
H254 C212 0.930 . S
H255 C213 0.930 . S
H256 C215 0.929 . S
H257 C216 0.930 . S
H258 C217 0.930 . S
H259 C218 0.930 . S
H260 C222 0.929 . S
H261 C224 0.930 . S
H262 C230 0.929 . S
H263 C231 0.930 . S
Li264 N281 1.990 . S
Li264 O324 1.956 . S
Li264 O325 1.970 . S
Li264 O326 1.961 . S
Li265 N289 1.990 . S
Li265 O324 1.970 . S
Li265 O325 1.956 . S
Li265 O327 1.961 . S
Li266 N311 1.990 . S
Li266 O324 1.961 . S
Li266 O326 1.956 . S
Li266 O327 1.970 . S
Li267 N317 1.990 . S
Li267 O325 1.961 . S
Li267 O326 1.970 . S
Li267 O327 1.956 . S
C268 C270 1.348 . S
C268 C271 1.356 . S
C268 O324 1.325 . S
N269 C272 1.314 . S
N269 C273 1.279 . S
C270 C268 1.348 . S
C270 C272 1.353 . S
C270 H328 0.929 . S
C271 C268 1.356 . S
C271 C273 1.358 . S
C271 H329 0.930 . S
C272 N269 1.314 . S
C272 C270 1.353 . S
C272 H330 0.930 . S
C273 N269 1.279 . S
C273 C271 1.358 . S
C273 H331 0.930 . S
C274 C277 1.348 . S
C274 C278 1.356 . S
C274 O325 1.325 . S
C275 N276 1.279 . S
C275 C278 1.358 . S
C275 H332 0.930 . S
N276 C275 1.279 . S
N276 C279 1.314 . S
C277 C274 1.348 . S
C277 C279 1.353 . S
C277 H333 0.929 . S
C278 C274 1.356 . S
C278 C275 1.358 . S
C278 H334 0.930 . S
C279 N276 1.314 . S
C279 C277 1.353 . S
C279 H335 0.930 . S
C280 N281 1.314 . S
C280 C285 1.353 . S
C280 H286 0.930 . S
N281 Li264 1.990 . S
N281 C280 1.314 . S
N281 C283 1.279 . S
C282 C283 1.358 . S
C282 C284 1.356 . S
C282 H336 0.930 . S
C283 N281 1.279 . S
C283 C282 1.358 . S
C283 H287 0.930 . S
C284 C282 1.356 . S
C284 C285 1.348 . S
C285 C280 1.353 . S
C285 C284 1.348 . S
C285 H337 0.929 . S
H286 C280 0.930 . S
H287 C283 0.930 . S
C288 N289 1.314 . S
C288 C290 1.353 . S
C288 H294 0.930 . S
N289 Li265 1.990 . S
N289 C288 1.314 . S
N289 C292 1.279 . S
C290 C288 1.353 . S
C290 C293 1.348 . S
C290 H338 0.929 . S
C291 C292 1.358 . S
C291 C293 1.356 . S
C291 H339 0.930 . S
C292 N289 1.279 . S
C292 C291 1.358 . S
C292 H295 0.930 . S
C293 C290 1.348 . S
C293 C291 1.356 . S
H294 C288 0.930 . S
H295 C292 0.930 . S
C296 C298 1.348 . S
C296 C299 1.356 . S
C296 O326 1.325 . S
N297 C300 1.314 . S
N297 C301 1.279 . S
C298 C296 1.348 . S
C298 C300 1.353 . S
C298 H340 0.929 . S
C299 C296 1.356 . S
C299 C301 1.358 . S
C299 H341 0.930 . S
C300 N297 1.314 . S
C300 C298 1.353 . S
C300 H342 0.930 . S
C301 N297 1.279 . S
C301 C299 1.358 . S
C301 H343 0.930 . S
C302 C303 1.348 . S
C302 C304 1.356 . S
C302 O327 1.325 . S
C303 C302 1.348 . S
C303 C305 1.353 . S
C303 H344 0.929 . S
C304 C302 1.356 . S
C304 C306 1.358 . S
C304 H345 0.930 . S
C305 C303 1.353 . S
C305 N307 1.314 . S
C305 H346 0.930 . S
C306 C304 1.358 . S
C306 N307 1.279 . S
C306 H347 0.930 . S
N307 C305 1.314 . S
N307 C306 1.279 . S
C308 C310 1.353 . S
C308 N311 1.314 . S
C308 H314 0.930 . S
C309 N311 1.279 . S
C309 C312 1.358 . S
C309 H315 0.930 . S
C310 C308 1.353 . S
C310 C313 1.348 . S
C310 H348 0.929 . S
N311 Li266 1.990 . S
N311 C308 1.314 . S
N311 C309 1.279 . S
C312 C309 1.358 . S
C312 C313 1.356 . S
C312 H349 0.930 . S
C313 C310 1.348 . S
C313 C312 1.356 . S
H314 C308 0.930 . S
H315 C309 0.930 . S
C316 N317 1.314 . S
C316 C318 1.353 . S
C316 H322 0.930 . S
N317 Li267 1.990 . S
N317 C316 1.314 . S
N317 C320 1.279 . S
C318 C316 1.353 . S
C318 C321 1.348 . S
C318 H350 0.929 . S
C319 C320 1.358 . S
C319 C321 1.356 . S
C319 H351 0.930 . S
C320 N317 1.279 . S
C320 C319 1.358 . S
C320 H323 0.930 . S
C321 C318 1.348 . S
C321 C319 1.356 . S
H322 C316 0.930 . S
H323 C320 0.930 . S
O324 Li264 1.956 . S
O324 Li265 1.970 . S
O324 Li266 1.961 . S
O324 C268 1.325 . S
O325 Li264 1.970 . S
O325 Li265 1.956 . S
O325 Li267 1.961 . S
O325 C274 1.325 . S
O326 Li264 1.961 . S
O326 Li266 1.956 . S
O326 Li267 1.970 . S
O326 C296 1.325 . S
O327 Li265 1.961 . S
O327 Li266 1.970 . S
O327 Li267 1.956 . S
O327 C302 1.325 . S
H328 C270 0.929 . S
H329 C271 0.930 . S
H330 C272 0.930 . S
H331 C273 0.930 . S
H332 C275 0.930 . S
H333 C277 0.929 . S
H334 C278 0.930 . S
H335 C279 0.930 . S
H336 C282 0.930 . S
H337 C285 0.929 . S
H338 C290 0.929 . S
H339 C291 0.930 . S
H340 C298 0.929 . S
H341 C299 0.930 . S
H342 C300 0.930 . S
H343 C301 0.930 . S
H344 C303 0.929 . S
H345 C304 0.930 . S
H346 C305 0.930 . S
H347 C306 0.930 . S
H348 C310 0.929 . S
H349 C312 0.930 . S
H350 C318 0.929 . S
H351 C319 0.930 . S
Li352 N369 1.990 . S
Li352 O412 1.956 . S
Li352 O413 1.970 . S
Li352 O414 1.961 1_545 S
Li353 N377 1.990 . S
Li353 O412 1.970 . S
Li353 O413 1.956 . S
Li353 O415 1.961 . S
Li354 N399 1.990 . S
Li354 O412 1.961 . S
Li354 O414 1.956 1_545 S
Li354 O415 1.970 . S
Li355 N405 1.990 . S
Li355 O413 1.961 1_565 S
Li355 O414 1.970 . S
Li355 O415 1.956 1_565 S
C356 C358 1.348 . S
C356 C359 1.356 . S
C356 O412 1.325 . S
N357 C360 1.314 . S
N357 C361 1.279 . S
C358 C356 1.348 . S
C358 C360 1.353 . S
C358 H416 0.929 . S
C359 C356 1.356 . S
C359 C361 1.358 . S
C359 H417 0.930 . S
C360 N357 1.314 . S
C360 C358 1.353 . S
C360 H418 0.930 . S
C361 N357 1.279 . S
C361 C359 1.358 . S
C361 H419 0.930 . S
C362 C365 1.348 . S
C362 C366 1.356 1_545 S
C362 O413 1.325 . S
C363 N364 1.268 1_565 S
C363 C366 1.361 . S
C363 H420 0.944 . S
N364 C363 1.268 1_545 S
N364 C367 1.314 . S
C365 C362 1.348 . S
C365 C367 1.353 . S
C365 H421 0.929 . S
C366 C362 1.356 1_565 S
C366 C363 1.361 . S
C366 H422 0.930 . S
C367 N364 1.314 . S
C367 C365 1.353 . S
C367 H423 0.930 . S
C368 N369 1.314 1_565 S
C368 C373 1.353 . S
C368 H374 0.930 . S
N369 Li352 1.990 . S
N369 C368 1.314 1_545 S
N369 C371 1.279 . S
C370 C371 1.358 . S
C370 C372 1.356 . S
C370 H424 0.930 . S
C371 N369 1.279 . S
C371 C370 1.358 . S
C371 H375 0.930 . S
C372 C370 1.356 . S
C372 C373 1.348 1_545 S
C373 C368 1.353 . S
C373 C372 1.348 1_565 S
C373 H425 0.929 . S
H374 C368 0.930 . S
H375 C371 0.930 . S
C376 N377 1.314 . S
C376 C378 1.353 . S
C376 H382 0.930 . S
N377 Li353 1.990 . S
N377 C376 1.314 . S
N377 C380 1.279 . S
C378 C376 1.353 . S
C378 C381 1.348 . S
C378 H426 0.929 . S
C379 C380 1.358 . S
C379 C381 1.356 . S
C379 H427 0.930 . S
C380 N377 1.279 . S
C380 C379 1.358 . S
C380 H383 0.930 . S
C381 C378 1.348 . S
C381 C379 1.356 . S
H382 C376 0.930 . S
H383 C380 0.930 . S
C384 C386 1.348 . S
C384 C387 1.356 . S
C384 O414 1.325 . S
N385 C388 1.314 . S
N385 C389 1.279 . S
C386 C384 1.348 . S
C386 C388 1.353 . S
C386 H428 0.929 . S
C387 C384 1.356 . S
C387 C389 1.358 . S
C387 H429 0.930 . S
C388 N385 1.314 . S
C388 C386 1.353 . S
C388 H430 0.930 . S
C389 N385 1.279 . S
C389 C387 1.358 . S
C389 H431 0.930 . S
C390 C391 1.348 1_545 S
C390 C392 1.356 . S
C390 O415 1.325 . S
C391 C390 1.348 1_565 S
C391 C393 1.353 . S
C391 H432 0.929 . S
C392 C390 1.356 . S
C392 C394 1.358 . S
C392 H433 0.930 . S
C393 C391 1.353 . S
C393 N395 1.304 1_565 S
C393 H434 0.930 . S
C394 C392 1.358 . S
C394 N395 1.292 . S
C394 H435 0.930 . S
N395 C393 1.304 1_545 S
N395 C394 1.292 . S
C396 C398 1.353 . S
C396 N399 1.314 . S
C396 H402 0.930 . S
C397 N399 1.279 1_565 S
C397 C400 1.358 . S
C397 H403 0.930 . S
C398 C396 1.353 . S
C398 C401 1.348 . S
C398 H436 0.929 . S
N399 Li354 1.990 . S
N399 C396 1.314 . S
N399 C397 1.279 1_545 S
C400 C397 1.358 . S
C400 C401 1.356 1_565 S
C400 H437 0.930 . S
C401 C398 1.348 . S
C401 C400 1.356 1_545 S
H402 C396 0.930 . S
H403 C397 0.930 . S
C404 N405 1.314 . S
C404 C406 1.353 . S
C404 H410 0.930 . S
N405 Li355 1.990 . S
N405 C404 1.314 . S
N405 C408 1.279 . S
C406 C404 1.353 . S
C406 C409 1.348 . S
C406 H438 0.929 . S
C407 C408 1.358 . S
C407 C409 1.356 . S
C407 H439 0.930 . S
C408 N405 1.279 . S
C408 C407 1.358 . S
C408 H411 0.930 . S
C409 C406 1.348 . S
C409 C407 1.356 . S
H410 C404 0.930 . S
H411 C408 0.930 . S
O412 Li352 1.956 . S
O412 Li353 1.970 . S
O412 Li354 1.961 . S
O412 C356 1.325 . S
O413 Li352 1.970 . S
O413 Li353 1.956 . S
O413 Li355 1.961 1_545 S
O413 C362 1.325 . S
O414 Li352 1.961 1_565 S
O414 Li354 1.956 1_565 S
O414 Li355 1.970 . S
O414 C384 1.325 . S
O415 Li353 1.961 . S
O415 Li354 1.970 . S
O415 Li355 1.956 1_545 S
O415 C390 1.325 . S
H416 C358 0.929 . S
H417 C359 0.930 . S
H418 C360 0.930 . S
H419 C361 0.930 . S
H420 C363 0.944 . S
H421 C365 0.929 . S
H422 C366 0.930 . S
H423 C367 0.930 . S
H424 C370 0.930 . S
H425 C373 0.929 . S
H426 C378 0.929 . S
H427 C379 0.930 . S
H428 C386 0.929 . S
H429 C387 0.930 . S
H430 C388 0.930 . S
H431 C389 0.930 . S
H432 C391 0.929 . S
H433 C392 0.930 . S
H434 C393 0.930 . S
H435 C394 0.930 . S
H436 C398 0.929 . S
H437 C400 0.930 . S
H438 C406 0.929 . S
H439 C407 0.930 . S
Li440 N457 1.990 . S
Li440 O500 1.956 . S
Li440 O501 1.970 . S
Li440 O502 1.961 . S
Li441 N465 1.990 . S
Li441 O500 1.970 . S
Li441 O501 1.956 . S
Li441 O503 1.961 . S
Li442 N487 1.990 . S
Li442 O500 1.961 . S
Li442 O502 1.956 . S
Li442 O503 1.970 . S
Li443 N493 1.990 . S
Li443 O501 1.961 . S
Li443 O502 1.970 . S
Li443 O503 1.956 . S
C444 C446 1.348 . S
C444 C447 1.356 . S
C444 O500 1.325 . S
N445 C448 1.314 . S
N445 C449 1.279 . S
C446 C444 1.348 . S
C446 C448 1.353 . S
C446 H504 0.929 . S
C447 C444 1.356 . S
C447 C449 1.358 . S
C447 H505 0.930 . S
C448 N445 1.314 . S
C448 C446 1.353 . S
C448 H506 0.930 . S
C449 N445 1.279 . S
C449 C447 1.358 . S
C449 H507 0.930 . S
C450 C453 1.348 . S
C450 C454 1.356 . S
C450 O501 1.325 . S
C451 N452 1.279 . S
C451 C454 1.358 . S
C451 H508 0.930 . S
N452 C451 1.279 . S
N452 C455 1.314 . S
C453 C450 1.348 . S
C453 C455 1.353 . S
C453 H509 0.929 . S
C454 C450 1.356 . S
C454 C451 1.358 . S
C454 H510 0.930 . S
C455 N452 1.314 . S
C455 C453 1.353 . S
C455 H511 0.930 . S
C456 N457 1.314 . S
C456 C461 1.353 . S
C456 H462 0.930 . S
N457 Li440 1.990 . S
N457 C456 1.314 . S
N457 C459 1.279 . S
C458 C459 1.358 . S
C458 C460 1.356 . S
C458 H512 0.930 . S
C459 N457 1.279 . S
C459 C458 1.358 . S
C459 H463 0.930 . S
C460 C458 1.356 . S
C460 C461 1.348 . S
C461 C456 1.353 . S
C461 C460 1.348 . S
C461 H513 0.929 . S
H462 C456 0.930 . S
H463 C459 0.930 . S
C464 N465 1.314 . S
C464 C466 1.353 . S
C464 H470 0.930 . S
N465 Li441 1.990 . S
N465 C464 1.314 . S
N465 C468 1.279 . S
C466 C464 1.353 . S
C466 C469 1.348 . S
C466 H514 0.929 . S
C467 C468 1.358 . S
C467 C469 1.356 . S
C467 H515 0.930 . S
C468 N465 1.279 . S
C468 C467 1.358 . S
C468 H471 0.930 . S
C469 C466 1.348 . S
C469 C467 1.356 . S
H470 C464 0.930 . S
H471 C468 0.930 . S
C472 C474 1.348 . S
C472 C475 1.356 . S
C472 O502 1.325 . S
N473 C476 1.314 . S
N473 C477 1.279 . S
C474 C472 1.348 . S
C474 C476 1.353 . S
C474 H516 0.929 . S
C475 C472 1.356 . S
C475 C477 1.358 . S
C475 H517 0.930 . S
C476 N473 1.314 . S
C476 C474 1.353 . S
C476 H518 0.930 . S
C477 N473 1.279 . S
C477 C475 1.358 . S
C477 H519 0.930 . S
C478 C479 1.348 . S
C478 C480 1.356 . S
C478 O503 1.325 . S
C479 C478 1.348 . S
C479 C481 1.353 . S
C479 H520 0.929 . S
C480 C478 1.356 . S
C480 C482 1.358 . S
C480 H521 0.930 . S
C481 C479 1.353 . S
C481 N483 1.314 . S
C481 H522 0.930 . S
C482 C480 1.358 . S
C482 N483 1.279 . S
C482 H523 0.930 . S
N483 C481 1.314 . S
N483 C482 1.279 . S
C484 C486 1.353 . S
C484 N487 1.314 . S
C484 H490 0.930 . S
C485 N487 1.279 . S
C485 C488 1.358 . S
C485 H491 0.930 . S
C486 C484 1.353 . S
C486 C489 1.348 . S
C486 H524 0.929 . S
N487 Li442 1.990 . S
N487 C484 1.314 . S
N487 C485 1.279 . S
C488 C485 1.358 . S
C488 C489 1.356 . S
C488 H525 0.930 . S
C489 C486 1.348 . S
C489 C488 1.356 . S
H490 C484 0.930 . S
H491 C485 0.930 . S
C492 N493 1.314 . S
C492 C494 1.353 . S
C492 H498 0.930 . S
N493 Li443 1.990 . S
N493 C492 1.314 . S
N493 C496 1.279 . S
C494 C492 1.353 . S
C494 C497 1.348 . S
C494 H526 0.929 . S
C495 C496 1.358 . S
C495 C497 1.356 . S
C495 H527 0.930 . S
C496 N493 1.279 . S
C496 C495 1.358 . S
C496 H499 0.930 . S
C497 C494 1.348 . S
C497 C495 1.356 . S
H498 C492 0.930 . S
H499 C496 0.930 . S
O500 Li440 1.956 . S
O500 Li441 1.970 . S
O500 Li442 1.961 . S
O500 C444 1.325 . S
O501 Li440 1.970 . S
O501 Li441 1.956 . S
O501 Li443 1.961 . S
O501 C450 1.325 . S
O502 Li440 1.961 . S
O502 Li442 1.956 . S
O502 Li443 1.970 . S
O502 C472 1.325 . S
O503 Li441 1.961 . S
O503 Li442 1.970 . S
O503 Li443 1.956 . S
O503 C478 1.325 . S
H504 C446 0.929 . S
H505 C447 0.930 . S
H506 C448 0.930 . S
H507 C449 0.930 . S
H508 C451 0.930 . S
H509 C453 0.929 . S
H510 C454 0.930 . S
H511 C455 0.930 . S
H512 C458 0.930 . S
H513 C461 0.929 . S
H514 C466 0.929 . S
H515 C467 0.930 . S
H516 C474 0.929 . S
H517 C475 0.930 . S
H518 C476 0.930 . S
H519 C477 0.930 . S
H520 C479 0.929 . S
H521 C480 0.930 . S
H522 C481 0.930 . S
H523 C482 0.930 . S
H524 C486 0.929 . S
H525 C488 0.930 . S
H526 C494 0.929 . S
H527 C495 0.930 . S
Li528 N545 1.990 . S
Li528 O588 1.956 1_565 S
Li528 O589 1.970 . S
Li528 O590 1.961 1_565 S
Li529 N553 1.990 . S
Li529 O588 1.970 . S
Li529 O589 1.956 1_545 S
Li529 O591 1.961 . S
Li530 N575 1.990 . S
Li530 O588 1.961 . S
Li530 O590 1.956 . S
Li530 O591 1.970 . S
Li531 N581 1.990 . S
Li531 O589 1.961 1_545 S
Li531 O590 1.970 . S
Li531 O591 1.956 . S
C532 C534 1.353 . S
C532 C535 1.356 . S
C532 O588 1.325 . S
N533 C536 1.316 . S
N533 C537 1.279 . S
C534 C532 1.353 . S
C534 C536 1.353 . S
C534 H592 0.925 1_545 S
C535 C532 1.356 . S
C535 C537 1.358 . S
C535 H593 0.930 . S
C536 N533 1.316 . S
C536 C534 1.353 . S
C536 H594 0.927 1_545 S
C537 N533 1.279 . S
C537 C535 1.358 . S
C537 H595 0.930 . S
C538 C541 1.348 . S
C538 C542 1.356 . S
C538 O589 1.325 . S
C539 N540 1.279 . S
C539 C542 1.358 . S
C539 H596 0.930 . S
N540 C539 1.279 . S
N540 C543 1.314 . S
C541 C538 1.348 . S
C541 C543 1.353 . S
C541 H597 0.929 . S
C542 C538 1.356 . S
C542 C539 1.358 . S
C542 H598 0.930 . S
C543 N540 1.314 . S
C543 C541 1.353 . S
C543 H599 0.930 . S
C544 N545 1.314 . S
C544 C549 1.353 . S
C544 H550 0.930 . S
N545 Li528 1.990 . S
N545 C544 1.314 . S
N545 C547 1.279 . S
C546 C547 1.358 . S
C546 C548 1.356 . S
C546 H600 0.930 . S
C547 N545 1.279 . S
C547 C546 1.358 . S
C547 H551 0.930 . S
C548 C546 1.356 . S
C548 C549 1.348 . S
C549 C544 1.353 . S
C549 C548 1.348 . S
C549 H601 0.929 . S
H550 C544 0.930 . S
H551 C547 0.930 . S
C552 N553 1.314 . S
C552 C554 1.353 . S
C552 H558 0.930 . S
N553 Li529 1.990 . S
N553 C552 1.314 . S
N553 C556 1.279 1_545 S
C554 C552 1.353 . S
C554 C557 1.348 . S
C554 H602 0.929 . S
C555 C556 1.358 . S
C555 C557 1.356 1_565 S
C555 H603 0.930 . S
C556 N553 1.279 1_565 S
C556 C555 1.358 . S
C556 H559 0.930 . S
C557 C554 1.348 . S
C557 C555 1.356 1_545 S
H558 C552 0.930 . S
H559 C556 0.930 . S
C560 C562 1.348 . S
C560 C563 1.356 . S
C560 O590 1.325 . S
N561 C564 1.314 . S
N561 C565 1.279 . S
C562 C560 1.348 . S
C562 C564 1.353 . S
C562 H604 0.929 . S
C563 C560 1.356 . S
C563 C565 1.358 . S
C563 H605 0.928 1_545 S
C564 N561 1.314 . S
C564 C562 1.353 . S
C564 H606 0.930 . S
C565 N561 1.279 . S
C565 C563 1.358 . S
C565 H607 0.931 1_545 S
C566 C567 1.348 . S
C566 C568 1.356 . S
C566 O591 1.325 . S
C567 C566 1.348 . S
C567 C569 1.353 . S
C567 H608 0.929 . S
C568 C566 1.356 . S
C568 C570 1.358 . S
C568 H609 0.930 . S
C569 C567 1.353 . S
C569 N571 1.314 . S
C569 H610 0.930 . S
C570 C568 1.358 . S
C570 N571 1.279 . S
C570 H611 0.930 . S
N571 C569 1.314 . S
N571 C570 1.279 . S
C572 C574 1.353 . S
C572 N575 1.314 . S
C572 H578 0.930 . S
C573 N575 1.279 . S
C573 C576 1.358 . S
C573 H579 0.930 . S
C574 C572 1.353 . S
C574 C577 1.348 . S
C574 H612 0.929 . S
N575 Li530 1.990 . S
N575 C572 1.314 . S
N575 C573 1.279 . S
C576 C573 1.358 . S
C576 C577 1.356 . S
C576 H613 0.930 . S
C577 C574 1.348 . S
C577 C576 1.356 . S
H578 C572 0.930 . S
H579 C573 0.930 . S
C580 N581 1.314 1_565 S
C580 C582 1.353 . S
C580 H586 0.930 . S
N581 Li531 1.990 . S
N581 C580 1.314 1_545 S
N581 C584 1.279 . S
C582 C580 1.353 . S
C582 C585 1.348 1_565 S
C582 H614 0.929 . S
C583 C584 1.358 . S
C583 C585 1.356 . S
C583 H615 0.930 . S
C584 N581 1.279 . S
C584 C583 1.358 . S
C584 H587 0.930 . S
C585 C582 1.348 1_545 S
C585 C583 1.356 . S
H586 C580 0.930 . S
H587 C584 0.930 . S
O588 Li528 1.956 1_545 S
O588 Li529 1.970 . S
O588 Li530 1.961 . S
O588 C532 1.325 . S
O589 Li528 1.970 . S
O589 Li529 1.956 1_565 S
O589 Li531 1.961 1_565 S
O589 C538 1.325 . S
O590 Li528 1.961 1_545 S
O590 Li530 1.956 . S
O590 Li531 1.970 . S
O590 C560 1.325 . S
O591 Li529 1.961 . S
O591 Li530 1.970 . S
O591 Li531 1.956 . S
O591 C566 1.325 . S
H592 C534 0.925 1_565 S
H593 C535 0.930 . S
H594 C536 0.927 1_565 S
H595 C537 0.930 . S
H596 C539 0.930 . S
H597 C541 0.929 . S
H598 C542 0.930 . S
H599 C543 0.930 . S
H600 C546 0.930 . S
H601 C549 0.929 . S
H602 C554 0.929 . S
H603 C555 0.930 . S
H604 C562 0.929 . S
H605 C563 0.928 1_565 S
H606 C564 0.930 . S
H607 C565 0.931 1_565 S
H608 C567 0.929 . S
H609 C568 0.930 . S
H610 C569 0.930 . S
H611 C570 0.930 . S
H612 C574 0.929 . S
H613 C576 0.930 . S
H614 C582 0.929 . S
H615 C583 0.930 . S
Li616 N633 1.990 . S
Li616 O676 1.956 . S
Li616 O677 1.970 . S
Li616 O678 1.961 . S
Li617 N641 1.990 . S
Li617 O676 1.970 . S
Li617 O677 1.956 . S
Li617 O679 1.961 1_554 S
Li618 N663 1.990 . S
Li618 O676 1.961 1_556 S
Li618 O678 1.956 1_556 S
Li618 O679 1.970 . S
Li619 N669 1.990 . S
Li619 O677 1.961 . S
Li619 O678 1.970 . S
Li619 O679 1.956 1_554 S
C620 C622 1.348 . S
C620 C623 1.356 . S
C620 O676 1.325 . S
N621 C624 1.314 . S
N621 C625 1.279 . S
C622 C620 1.348 . S
C622 C624 1.353 . S
C622 H680 0.929 . S
C623 C620 1.356 . S
C623 C625 1.358 . S
C623 H681 0.920 1_554 S
C624 N621 1.314 . S
C624 C622 1.353 . S
C624 H682 0.930 . S
C625 N621 1.279 . S
C625 C623 1.358 . S
C625 H683 0.921 1_554 S
C626 C629 1.348 . S
C626 C630 1.356 . S
C626 O677 1.325 . S
C627 N628 1.279 . S
C627 C630 1.358 . S
C627 H684 0.930 . S
N628 C627 1.279 . S
N628 C631 1.314 . S
C629 C626 1.348 . S
C629 C631 1.353 . S
C629 H685 0.929 . S
C630 C626 1.356 . S
C630 C627 1.358 . S
C630 H686 0.930 . S
C631 N628 1.314 . S
C631 C629 1.353 . S
C631 H687 0.930 . S
C632 N633 1.314 . S
C632 C637 1.353 . S
C632 H638 0.930 . S
N633 Li616 1.990 . S
N633 C632 1.314 . S
N633 C635 1.279 . S
C634 C635 1.358 . S
C634 C636 1.356 . S
C634 H688 0.930 . S
C635 N633 1.279 . S
C635 C634 1.358 . S
C635 H639 0.930 . S
C636 C634 1.356 . S
C636 C637 1.348 . S
C637 C632 1.353 . S
C637 C636 1.348 . S
C637 H689 0.929 . S
H638 C632 0.930 . S
H639 C635 0.930 . S
C640 N641 1.314 1_556 S
C640 C642 1.353 . S
C640 H646 0.930 . S
N641 Li617 1.990 . S
N641 C640 1.314 1_554 S
N641 C644 1.279 . S
C642 C640 1.353 . S
C642 C645 1.348 1_556 S
C642 H690 0.929 . S
C643 C644 1.358 . S
C643 C645 1.356 . S
C643 H691 0.930 . S
C644 N641 1.279 . S
C644 C643 1.358 . S
C644 H647 0.930 . S
C645 C642 1.348 1_554 S
C645 C643 1.356 . S
H646 C640 0.930 . S
H647 C644 0.930 . S
C648 C650 1.344 1_554 S
C648 C651 1.356 . S
C648 O678 1.325 . S
N649 C652 1.312 1_554 S
N649 C653 1.279 . S
C650 C648 1.344 1_556 S
C650 C652 1.353 . S
C650 H692 0.933 . S
C651 C648 1.356 . S
C651 C653 1.358 . S
C651 H693 0.930 . S
C652 N649 1.312 1_556 S
C652 C650 1.353 . S
C652 H694 0.932 . S
C653 N649 1.279 . S
C653 C651 1.358 . S
C653 H695 0.930 . S
C654 C655 1.348 . S
C654 C656 1.356 . S
C654 O679 1.325 . S
C655 C654 1.348 . S
C655 C657 1.353 . S
C655 H696 0.929 . S
C656 C654 1.356 . S
C656 C658 1.358 . S
C656 H697 0.930 . S
C657 C655 1.353 . S
C657 N659 1.314 . S
C657 H698 0.930 . S
C658 C656 1.358 . S
C658 N659 1.279 . S
C658 H699 0.930 . S
N659 C657 1.314 . S
N659 C658 1.279 . S
C660 C662 1.353 . S
C660 N663 1.314 . S
C660 H666 0.930 . S
C661 N663 1.279 . S
C661 C664 1.358 . S
C661 H667 0.930 . S
C662 C660 1.353 . S
C662 C665 1.348 . S
C662 H700 0.929 . S
N663 Li618 1.990 . S
N663 C660 1.314 . S
N663 C661 1.279 . S
C664 C661 1.358 . S
C664 C665 1.356 . S
C664 H701 0.930 . S
C665 C662 1.348 . S
C665 C664 1.356 . S
H666 C660 0.930 . S
H667 C661 0.930 . S
C668 N669 1.314 . S
C668 C670 1.353 . S
C668 H674 0.930 . S
N669 Li619 1.990 . S
N669 C668 1.314 . S
N669 C672 1.279 1_554 S
C670 C668 1.353 . S
C670 C673 1.348 . S
C670 H702 0.929 . S
C671 C672 1.358 . S
C671 C673 1.356 1_556 S
C671 H703 0.930 . S
C672 N669 1.279 1_556 S
C672 C671 1.358 . S
C672 H675 0.930 . S
C673 C670 1.348 . S
C673 C671 1.356 1_554 S
H674 C668 0.930 . S
H675 C672 0.930 . S
O676 Li616 1.956 . S
O676 Li617 1.970 . S
O676 Li618 1.961 1_554 S
O676 C620 1.325 . S
O677 Li616 1.970 . S
O677 Li617 1.956 . S
O677 Li619 1.961 . S
O677 C626 1.325 . S
O678 Li616 1.961 . S
O678 Li618 1.956 1_554 S
O678 Li619 1.970 . S
O678 C648 1.325 . S
O679 Li617 1.961 1_556 S
O679 Li618 1.970 . S
O679 Li619 1.956 1_556 S
O679 C654 1.325 . S
H680 C622 0.929 . S
H681 C623 0.920 1_556 S
H682 C624 0.930 . S
H683 C625 0.921 1_556 S
H684 C627 0.930 . S
H685 C629 0.929 . S
H686 C630 0.930 . S
H687 C631 0.930 . S
H688 C634 0.930 . S
H689 C637 0.929 . S
H690 C642 0.929 . S
H691 C643 0.930 . S
H692 C650 0.933 . S
H693 C651 0.930 . S
H694 C652 0.932 . S
H695 C653 0.930 . S
H696 C655 0.929 . S
H697 C656 0.930 . S
H698 C657 0.930 . S
H699 C658 0.930 . S
H700 C662 0.929 . S
H701 C664 0.930 . S
H702 C670 0.929 . S
H703 C671 0.930 . S
Li704 N721 1.990 . S
Li704 O764 1.956 . S
Li704 O765 1.970 . S
Li704 O766 1.961 1_554 S
Li705 N729 1.990 . S
Li705 O764 1.970 . S
Li705 O765 1.956 . S
Li705 O767 1.961 . S
Li706 N751 1.990 . S
Li706 O764 1.961 . S
Li706 O766 1.956 1_554 S
Li706 O767 1.970 . S
Li707 N757 1.990 . S
Li707 O765 1.961 1_556 S
Li707 O766 1.970 . S
Li707 O767 1.956 1_556 S
C708 C710 1.348 . S
C708 C711 1.356 . S
C708 O764 1.325 . S
N709 C712 1.314 . S
N709 C713 1.279 . S
C710 C708 1.348 . S
C710 C712 1.353 . S
C710 H768 0.929 . S
C711 C708 1.356 . S
C711 C713 1.358 . S
C711 H769 0.930 . S
C712 N709 1.314 . S
C712 C710 1.353 . S
C712 H770 0.930 . S
C713 N709 1.279 . S
C713 C711 1.358 . S
C713 H771 0.930 . S
C714 C717 1.348 . S
C714 C718 1.356 . S
C714 O765 1.325 . S
C715 N716 1.279 . S
C715 C718 1.358 . S
C715 H772 0.930 1_554 S
N716 C715 1.279 . S
N716 C719 1.314 . S
C717 C714 1.348 . S
C717 C719 1.353 . S
C717 H773 0.929 . S
C718 C714 1.356 . S
C718 C715 1.358 . S
C718 H774 0.930 1_554 S
C719 N716 1.314 . S
C719 C717 1.353 . S
C719 H775 0.930 . S
C720 N721 1.314 1_556 S
C720 C725 1.353 . S
C720 H726 0.930 . S
N721 Li704 1.990 . S
N721 C720 1.314 1_554 S
N721 C723 1.279 . S
C722 C723 1.358 . S
C722 C724 1.356 . S
C722 H776 0.930 . S
C723 N721 1.279 . S
C723 C722 1.358 . S
C723 H727 0.930 . S
C724 C722 1.356 . S
C724 C725 1.348 1_554 S
C725 C720 1.353 . S
C725 C724 1.348 1_556 S
C725 H777 0.929 . S
H726 C720 0.930 . S
H727 C723 0.930 . S
C728 N729 1.314 . S
C728 C730 1.353 . S
C728 H734 0.930 . S
N729 Li705 1.990 . S
N729 C728 1.314 . S
N729 C732 1.279 . S
C730 C728 1.353 . S
C730 C733 1.348 . S
C730 H778 0.929 . S
C731 C732 1.358 . S
C731 C733 1.356 . S
C731 H779 0.930 . S
C732 N729 1.279 . S
C732 C731 1.358 . S
C732 H735 0.930 . S
C733 C730 1.348 . S
C733 C731 1.356 . S
H734 C728 0.930 . S
H735 C732 0.930 . S
C736 C738 1.348 . S
C736 C739 1.356 . S
C736 O766 1.325 . S
N737 C740 1.314 . S
N737 C741 1.279 . S
C738 C736 1.348 . S
C738 C740 1.353 . S
C738 H780 0.929 . S
C739 C736 1.356 . S
C739 C741 1.358 . S
C739 H781 0.930 . S
C740 N737 1.314 . S
C740 C738 1.353 . S
C740 H782 0.930 . S
C741 N737 1.279 . S
C741 C739 1.358 . S
C741 H783 0.930 . S
C742 C743 1.348 1_554 S
C742 C744 1.356 . S
C742 O767 1.325 . S
C743 C742 1.348 1_556 S
C743 C745 1.353 . S
C743 H784 0.929 . S
C744 C742 1.356 . S
C744 C746 1.358 . S
C744 H785 0.930 . S
C745 C743 1.353 . S
C745 N747 1.314 1_556 S
C745 H786 0.930 . S
C746 C744 1.358 . S
C746 N747 1.279 . S
C746 H787 0.930 . S
N747 C745 1.314 1_554 S
N747 C746 1.279 . S
C748 C750 1.353 . S
C748 N751 1.314 . S
C748 H754 0.930 . S
C749 N751 1.279 1_556 S
C749 C752 1.358 . S
C749 H755 0.930 . S
C750 C748 1.353 . S
C750 C753 1.348 . S
C750 H788 0.929 . S
N751 Li706 1.990 . S
N751 C748 1.314 . S
N751 C749 1.279 1_554 S
C752 C749 1.358 . S
C752 C753 1.356 1_556 S
C752 H789 0.930 . S
C753 C750 1.348 . S
C753 C752 1.356 1_554 S
H754 C748 0.930 . S
H755 C749 0.930 . S
C756 N757 1.314 . S
C756 C758 1.353 . S
C756 H762 0.930 . S
N757 Li707 1.990 . S
N757 C756 1.314 . S
N757 C760 1.279 . S
C758 C756 1.353 . S
C758 C761 1.348 . S
C758 H790 0.929 . S
C759 C760 1.358 . S
C759 C761 1.356 . S
C759 H791 0.930 . S
C760 N757 1.279 . S
C760 C759 1.358 . S
C760 H763 0.930 . S
C761 C758 1.348 . S
C761 C759 1.356 . S
H762 C756 0.930 . S
H763 C760 0.930 . S
O764 Li704 1.956 . S
O764 Li705 1.970 . S
O764 Li706 1.961 . S
O764 C708 1.325 . S
O765 Li704 1.970 . S
O765 Li705 1.956 . S
O765 Li707 1.961 1_554 S
O765 C714 1.325 . S
O766 Li704 1.961 1_556 S
O766 Li706 1.956 1_556 S
O766 Li707 1.970 . S
O766 C736 1.325 . S
O767 Li705 1.961 . S
O767 Li706 1.970 . S
O767 Li707 1.956 1_554 S
O767 C742 1.325 . S
H768 C710 0.929 . S
H769 C711 0.930 . S
H770 C712 0.930 . S
H771 C713 0.930 . S
H772 C715 0.930 1_556 S
H773 C717 0.929 . S
H774 C718 0.930 1_556 S
H775 C719 0.930 . S
H776 C722 0.930 . S
H777 C725 0.929 . S
H778 C730 0.929 . S
H779 C731 0.930 . S
H780 C738 0.929 . S
H781 C739 0.930 . S
H782 C740 0.930 . S
H783 C741 0.930 . S
H784 C743 0.929 . S
H785 C744 0.930 . S
H786 C745 0.930 . S
H787 C746 0.930 . S
H788 C750 0.929 . S
H789 C752 0.930 . S
H790 C758 0.929 . S
H791 C759 0.930 . S
Li792 N809 1.990 . S
Li792 O852 1.956 . S
Li792 O853 1.970 . S
Li792 O854 1.961 . S
Li793 N817 1.990 . S
Li793 O852 1.970 . S
Li793 O853 1.956 . S
Li793 O855 1.961 . S
Li794 N839 1.990 . S
Li794 O852 1.961 . S
Li794 O854 1.956 . S
Li794 O855 1.970 . S
Li795 N845 1.990 . S
Li795 O853 1.961 . S
Li795 O854 1.970 . S
Li795 O855 1.956 . S
C796 C798 1.348 . S
C796 C799 1.356 . S
C796 O852 1.325 . S
N797 C800 1.314 . S
N797 C801 1.279 . S
C798 C796 1.348 . S
C798 C800 1.353 . S
C798 H856 0.929 . S
C799 C796 1.356 . S
C799 C801 1.358 . S
C799 H857 0.930 . S
C800 N797 1.314 . S
C800 C798 1.353 . S
C800 H858 0.930 . S
C801 N797 1.279 . S
C801 C799 1.358 . S
C801 H859 0.930 . S
C802 C805 1.348 . S
C802 C806 1.356 . S
C802 O853 1.325 . S
C803 N804 1.279 . S
C803 C806 1.358 . S
C803 H860 0.930 . S
N804 C803 1.279 . S
N804 C807 1.314 . S
C805 C802 1.348 . S
C805 C807 1.353 . S
C805 H861 0.929 . S
C806 C802 1.356 . S
C806 C803 1.358 . S
C806 H862 0.930 . S
C807 N804 1.314 . S
C807 C805 1.353 . S
C807 H863 0.930 . S
C808 N809 1.314 . S
C808 C813 1.353 . S
C808 H814 0.930 . S
N809 Li792 1.990 . S
N809 C808 1.314 . S
N809 C811 1.279 . S
C810 C811 1.358 . S
C810 C812 1.356 . S
C810 H864 0.930 . S
C811 N809 1.279 . S
C811 C810 1.358 . S
C811 H815 0.930 . S
C812 C810 1.356 . S
C812 C813 1.348 . S
C813 C808 1.353 . S
C813 C812 1.348 . S
C813 H865 0.929 . S
H814 C808 0.930 . S
H815 C811 0.930 . S
C816 N817 1.314 . S
C816 C818 1.353 . S
C816 H822 0.930 . S
N817 Li793 1.990 . S
N817 C816 1.314 . S
N817 C820 1.279 . S
C818 C816 1.353 . S
C818 C821 1.348 . S
C818 H866 0.929 . S
C819 C820 1.358 . S
C819 C821 1.356 . S
C819 H867 0.930 . S
C820 N817 1.279 . S
C820 C819 1.358 . S
C820 H823 0.930 . S
C821 C818 1.348 . S
C821 C819 1.356 . S
H822 C816 0.930 . S
H823 C820 0.930 . S
C824 C826 1.348 . S
C824 C827 1.356 . S
C824 O854 1.325 . S
N825 C828 1.314 . S
N825 C829 1.279 . S
C826 C824 1.348 . S
C826 C828 1.353 . S
C826 H868 0.929 . S
C827 C824 1.356 . S
C827 C829 1.358 . S
C827 H869 0.930 . S
C828 N825 1.314 . S
C828 C826 1.353 . S
C828 H870 0.930 . S
C829 N825 1.279 . S
C829 C827 1.358 . S
C829 H871 0.930 . S
C830 C831 1.348 . S
C830 C832 1.356 . S
C830 O855 1.325 . S
C831 C830 1.348 . S
C831 C833 1.353 . S
C831 H872 0.929 . S
C832 C830 1.356 . S
C832 C834 1.358 . S
C832 H873 0.930 . S
C833 C831 1.353 . S
C833 N835 1.314 . S
C833 H874 0.930 . S
C834 C832 1.358 . S
C834 N835 1.279 . S
C834 H875 0.930 . S
N835 C833 1.314 . S
N835 C834 1.279 . S
C836 C838 1.353 . S
C836 N839 1.314 . S
C836 H842 0.930 . S
C837 N839 1.279 . S
C837 C840 1.358 . S
C837 H843 0.930 . S
C838 C836 1.353 . S
C838 C841 1.348 . S
C838 H876 0.929 . S
N839 Li794 1.990 . S
N839 C836 1.314 . S
N839 C837 1.279 . S
C840 C837 1.358 . S
C840 C841 1.356 . S
C840 H877 0.930 . S
C841 C838 1.348 . S
C841 C840 1.356 . S
H842 C836 0.930 . S
H843 C837 0.930 . S
C844 N845 1.314 . S
C844 C846 1.353 . S
C844 H850 0.930 . S
N845 Li795 1.990 . S
N845 C844 1.314 . S
N845 C848 1.279 . S
C846 C844 1.353 . S
C846 C849 1.348 . S
C846 H878 0.929 . S
C847 C848 1.358 . S
C847 C849 1.356 . S
C847 H879 0.930 . S
C848 N845 1.279 . S
C848 C847 1.358 . S
C848 H851 0.930 . S
C849 C846 1.348 . S
C849 C847 1.356 . S
H850 C844 0.930 . S
H851 C848 0.930 . S
O852 Li792 1.956 . S
O852 Li793 1.970 . S
O852 Li794 1.961 . S
O852 C796 1.325 . S
O853 Li792 1.970 . S
O853 Li793 1.956 . S
O853 Li795 1.961 . S
O853 C802 1.325 . S
O854 Li792 1.961 . S
O854 Li794 1.956 . S
O854 Li795 1.970 . S
O854 C824 1.325 . S
O855 Li793 1.961 . S
O855 Li794 1.970 . S
O855 Li795 1.956 . S
O855 C830 1.325 . S
H856 C798 0.929 . S
H857 C799 0.930 . S
H858 C800 0.930 . S
H859 C801 0.930 . S
H860 C803 0.930 . S
H861 C805 0.929 . S
H862 C806 0.930 . S
H863 C807 0.930 . S
H864 C810 0.930 . S
H865 C813 0.929 . S
H866 C818 0.929 . S
H867 C819 0.930 . S
H868 C826 0.929 . S
H869 C827 0.930 . S
H870 C828 0.930 . S
H871 C829 0.930 . S
H872 C831 0.929 . S
H873 C832 0.930 . S
H874 C833 0.930 . S
H875 C834 0.930 . S
H876 C838 0.929 . S
H877 C840 0.930 . S
H878 C846 0.929 . S
H879 C847 0.930 . S
Li880 N897 1.990 . S
Li880 O940 1.956 . S
Li880 O941 1.970 . S
Li880 O942 1.961 . S
Li881 N905 1.990 . S
Li881 O940 1.970 . S
Li881 O941 1.956 . S
Li881 O943 1.961 . S
Li882 N927 1.990 . S
Li882 O940 1.961 . S
Li882 O942 1.956 . S
Li882 O943 1.970 . S
Li883 N933 1.990 . S
Li883 O941 1.961 . S
Li883 O942 1.970 . S
Li883 O943 1.956 . S
C884 C886 1.348 . S
C884 C887 1.356 . S
C884 O940 1.325 . S
N885 C888 1.314 . S
N885 C889 1.279 . S
C886 C884 1.348 . S
C886 C888 1.353 . S
C886 H944 0.929 . S
C887 C884 1.356 . S
C887 C889 1.358 . S
C887 H945 0.930 . S
C888 N885 1.314 . S
C888 C886 1.353 . S
C888 H946 0.930 . S
C889 N885 1.279 . S
C889 C887 1.358 . S
C889 H947 0.930 . S
C890 C893 1.348 . S
C890 C894 1.356 . S
C890 O941 1.325 . S
C891 N892 1.279 . S
C891 C894 1.358 . S
C891 H948 0.930 . S
N892 C891 1.279 . S
N892 C895 1.314 . S
C893 C890 1.348 . S
C893 C895 1.353 . S
C893 H949 0.929 . S
C894 C890 1.356 . S
C894 C891 1.358 . S
C894 H950 0.930 . S
C895 N892 1.314 . S
C895 C893 1.353 . S
C895 H951 0.930 . S
C896 N897 1.314 . S
C896 C901 1.353 . S
C896 H902 0.930 . S
N897 Li880 1.990 . S
N897 C896 1.314 . S
N897 C899 1.279 . S
C898 C899 1.358 . S
C898 C900 1.356 . S
C898 H952 0.930 . S
C899 N897 1.279 . S
C899 C898 1.358 . S
C899 H903 0.930 . S
C900 C898 1.356 . S
C900 C901 1.348 . S
C901 C896 1.353 . S
C901 C900 1.348 . S
C901 H953 0.929 . S
H902 C896 0.930 . S
H903 C899 0.930 . S
C904 N905 1.314 . S
C904 C906 1.353 . S
C904 H910 0.930 . S
N905 Li881 1.990 . S
N905 C904 1.314 . S
N905 C908 1.279 . S
C906 C904 1.353 . S
C906 C909 1.348 . S
C906 H954 0.929 . S
C907 C908 1.358 . S
C907 C909 1.356 . S
C907 H955 0.930 . S
C908 N905 1.279 . S
C908 C907 1.358 . S
C908 H911 0.930 . S
C909 C906 1.348 . S
C909 C907 1.356 . S
H910 C904 0.930 . S
H911 C908 0.930 . S
C912 C914 1.348 . S
C912 C915 1.356 . S
C912 O942 1.325 . S
N913 C916 1.314 . S
N913 C917 1.279 . S
C914 C912 1.348 . S
C914 C916 1.353 . S
C914 H956 0.929 . S
C915 C912 1.356 . S
C915 C917 1.358 . S
C915 H957 0.930 . S
C916 N913 1.314 . S
C916 C914 1.353 . S
C916 H958 0.930 . S
C917 N913 1.279 . S
C917 C915 1.358 . S
C917 H959 0.930 . S
C918 C919 1.348 . S
C918 C920 1.356 . S
C918 O943 1.325 . S
C919 C918 1.348 . S
C919 C921 1.353 . S
C919 H960 0.929 . S
C920 C918 1.356 . S
C920 C922 1.358 . S
C920 H961 0.930 . S
C921 C919 1.353 . S
C921 N923 1.314 . S
C921 H962 0.930 . S
C922 C920 1.358 . S
C922 N923 1.279 . S
C922 H963 0.930 . S
N923 C921 1.314 . S
N923 C922 1.279 . S
C924 C926 1.353 . S
C924 N927 1.314 . S
C924 H930 0.930 . S
C925 N927 1.279 . S
C925 C928 1.358 . S
C925 H931 0.930 . S
C926 C924 1.353 . S
C926 C929 1.348 . S
C926 H964 0.929 . S
N927 Li882 1.990 . S
N927 C924 1.314 . S
N927 C925 1.279 . S
C928 C925 1.358 . S
C928 C929 1.356 . S
C928 H965 0.930 . S
C929 C926 1.348 . S
C929 C928 1.356 . S
H930 C924 0.930 . S
H931 C925 0.930 . S
C932 N933 1.314 . S
C932 C934 1.353 . S
C932 H938 0.930 . S
N933 Li883 1.990 . S
N933 C932 1.314 . S
N933 C936 1.279 . S
C934 C932 1.353 . S
C934 C937 1.348 . S
C934 H966 0.929 . S
C935 C936 1.358 . S
C935 C937 1.356 . S
C935 H967 0.930 . S
C936 N933 1.279 . S
C936 C935 1.358 . S
C936 H939 0.930 . S
C937 C934 1.348 . S
C937 C935 1.356 . S
H938 C932 0.930 . S
H939 C936 0.930 . S
O940 Li880 1.956 . S
O940 Li881 1.970 . S
O940 Li882 1.961 . S
O940 C884 1.325 . S
O941 Li880 1.970 . S
O941 Li881 1.956 . S
O941 Li883 1.961 . S
O941 C890 1.325 . S
O942 Li880 1.961 . S
O942 Li882 1.956 . S
O942 Li883 1.970 . S
O942 C912 1.325 . S
O943 Li881 1.961 . S
O943 Li882 1.970 . S
O943 Li883 1.956 . S
O943 C918 1.325 . S
H944 C886 0.929 . S
H945 C887 0.930 . S
H946 C888 0.930 . S
H947 C889 0.930 . S
H948 C891 0.930 . S
H949 C893 0.929 . S
H950 C894 0.930 . S
H951 C895 0.930 . S
H952 C898 0.930 . S
H953 C901 0.929 . S
H954 C906 0.929 . S
H955 C907 0.930 . S
H956 C914 0.929 . S
H957 C915 0.930 . S
H958 C916 0.930 . S
H959 C917 0.930 . S
H960 C919 0.929 . S
H961 C920 0.930 . S
H962 C921 0.930 . S
H963 C922 0.930 . S
H964 C926 0.929 . S
H965 C928 0.930 . S
H966 C934 0.929 . S
H967 C935 0.930 . S
Li968 N985 1.990 . S
Li968 O1028 1.956 . S
Li968 O1029 1.970 . S
Li968 O1030 1.961 . S
Li969 N993 1.990 . S
Li969 O1028 1.970 . S
Li969 O1029 1.956 . S
Li969 O1031 1.961 . S
Li970 N1015 1.990 . S
Li970 O1028 1.961 . S
Li970 O1030 1.956 . S
Li970 O1031 1.970 . S
Li971 N1021 1.990 . S
Li971 O1029 1.961 . S
Li971 O1030 1.970 . S
Li971 O1031 1.956 . S
C972 C974 1.348 . S
C972 C975 1.356 . S
C972 O1028 1.325 . S
N973 C976 1.314 . S
N973 C977 1.279 . S
C974 C972 1.348 . S
C974 C976 1.353 . S
C974 H1032 0.929 . S
C975 C972 1.356 . S
C975 C977 1.358 . S
C975 H1033 0.930 . S
C976 N973 1.314 . S
C976 C974 1.353 . S
C976 H1034 0.930 . S
C977 N973 1.279 . S
C977 C975 1.358 . S
C977 H1035 0.930 . S
C978 C981 1.348 . S
C978 C982 1.356 . S
C978 O1029 1.325 . S
C979 N980 1.279 . S
C979 C982 1.358 . S
C979 H1036 0.930 . S
N980 C979 1.279 . S
N980 C983 1.314 . S
C981 C978 1.348 . S
C981 C983 1.353 . S
C981 H1037 0.929 . S
C982 C978 1.356 . S
C982 C979 1.358 . S
C982 H1038 0.930 . S
C983 N980 1.314 . S
C983 C981 1.353 . S
C983 H1039 0.930 . S
C984 N985 1.314 . S
C984 C989 1.353 . S
C984 H990 0.930 . S
N985 Li968 1.990 . S
N985 C984 1.314 . S
N985 C987 1.279 . S
C986 C987 1.358 . S
C986 C988 1.356 . S
C986 H1040 0.930 . S
C987 N985 1.279 . S
C987 C986 1.358 . S
C987 H991 0.930 . S
C988 C986 1.356 . S
C988 C989 1.348 . S
C989 C984 1.353 . S
C989 C988 1.348 . S
C989 H1041 0.929 . S
H990 C984 0.930 . S
H991 C987 0.930 . S
C992 N993 1.314 . S
C992 C994 1.353 . S
C992 H998 0.930 . S
N993 Li969 1.990 . S
N993 C992 1.314 . S
N993 C996 1.279 . S
C994 C992 1.353 . S
C994 C997 1.348 . S
C994 H1042 0.929 . S
C995 C996 1.358 . S
C995 C997 1.356 . S
C995 H1043 0.930 . S
C996 N993 1.279 . S
C996 C995 1.358 . S
C996 H999 0.930 . S
C997 C994 1.348 . S
C997 C995 1.356 . S
H998 C992 0.930 . S
H999 C996 0.930 . S
C1000 C1002 1.348 . S
C1000 C1003 1.356 . S
C1000 O1030 1.325 . S
N1001 C1004 1.314 . S
N1001 C1005 1.279 . S
C1002 C1000 1.348 . S
C1002 C1004 1.353 . S
C1002 H1044 0.929 . S
C1003 C1000 1.356 . S
C1003 C1005 1.358 . S
C1003 H1045 0.930 . S
C1004 N1001 1.314 . S
C1004 C1002 1.353 . S
C1004 H1046 0.930 . S
C1005 N1001 1.279 . S
C1005 C1003 1.358 . S
C1005 H1047 0.930 . S
C1006 C1007 1.348 . S
C1006 C1008 1.356 . S
C1006 O1031 1.325 . S
C1007 C1006 1.348 . S
C1007 C1009 1.353 . S
C1007 H1048 0.929 . S
C1008 C1006 1.356 . S
C1008 C1010 1.358 . S
C1008 H1049 0.930 . S
C1009 C1007 1.353 . S
C1009 N1011 1.314 . S
C1009 H1050 0.930 . S
C1010 C1008 1.358 . S
C1010 N1011 1.279 . S
C1010 H1051 0.930 . S
N1011 C1009 1.314 . S
N1011 C1010 1.279 . S
C1012 C1014 1.353 . S
C1012 N1015 1.314 . S
C1012 H1018 0.930 . S
C1013 N1015 1.279 . S
C1013 C1016 1.358 . S
C1013 H1019 0.930 . S
C1014 C1012 1.353 . S
C1014 C1017 1.348 . S
C1014 H1052 0.929 . S
N1015 Li970 1.990 . S
N1015 C1012 1.314 . S
N1015 C1013 1.279 . S
C1016 C1013 1.358 . S
C1016 C1017 1.356 . S
C1016 H1053 0.930 . S
C1017 C1014 1.348 . S
C1017 C1016 1.356 . S
H1018 C1012 0.930 . S
H1019 C1013 0.930 . S
C1020 N1021 1.314 . S
C1020 C1022 1.353 . S
C1020 H1026 0.930 . S
N1021 Li971 1.990 . S
N1021 C1020 1.314 . S
N1021 C1024 1.279 . S
C1022 C1020 1.353 . S
C1022 C1025 1.348 . S
C1022 H1054 0.929 . S
C1023 C1024 1.358 . S
C1023 C1025 1.356 . S
C1023 H1055 0.930 . S
C1024 N1021 1.279 . S
C1024 C1023 1.358 . S
C1024 H1027 0.930 . S
C1025 C1022 1.348 . S
C1025 C1023 1.356 . S
H1026 C1020 0.930 . S
H1027 C1024 0.930 . S
O1028 Li968 1.956 . S
O1028 Li969 1.970 . S
O1028 Li970 1.961 . S
O1028 C972 1.325 . S
O1029 Li968 1.970 . S
O1029 Li969 1.956 . S
O1029 Li971 1.961 . S
O1029 C978 1.325 . S
O1030 Li968 1.961 . S
O1030 Li970 1.956 . S
O1030 Li971 1.970 . S
O1030 C1000 1.325 . S
O1031 Li969 1.961 . S
O1031 Li970 1.970 . S
O1031 Li971 1.956 . S
O1031 C1006 1.325 . S
H1032 C974 0.929 . S
H1033 C975 0.930 . S
H1034 C976 0.930 . S
H1035 C977 0.930 . S
H1036 C979 0.930 . S
H1037 C981 0.929 . S
H1038 C982 0.930 . S
H1039 C983 0.930 . S
H1040 C986 0.930 . S
H1041 C989 0.929 . S
H1042 C994 0.929 . S
H1043 C995 0.930 . S
H1044 C1002 0.929 . S
H1045 C1003 0.930 . S
H1046 C1004 0.930 . S
H1047 C1005 0.930 . S
H1048 C1007 0.929 . S
H1049 C1008 0.930 . S
H1050 C1009 0.930 . S
H1051 C1010 0.930 . S
H1052 C1014 0.929 . S
H1053 C1016 0.930 . S
H1054 C1022 0.929 . S
H1055 C1023 0.930 . S
Li1056 N1073 1.990 . S
Li1056 O1116 1.956 1_655 S
Li1056 O1117 1.970 . S
Li1056 O1118 1.961 1_655 S
Li1057 N1081 1.990 . S
Li1057 O1116 1.970 . S
Li1057 O1117 1.956 1_455 S
Li1057 O1119 1.961 . S
Li1058 N1103 1.990 . S
Li1058 O1116 1.961 . S
Li1058 O1118 1.956 . S
Li1058 O1119 1.970 . S
Li1059 N1109 1.990 . S
Li1059 O1117 1.961 1_455 S
Li1059 O1118 1.970 . S
Li1059 O1119 1.956 . S
C1060 C1062 1.359 . S
C1060 C1063 1.356 . S
C1060 O1116 1.325 . S
N1061 C1064 1.322 . S
N1061 C1065 1.279 . S
C1062 C1060 1.359 . S
C1062 C1064 1.353 . S
C1062 H1120 0.919 1_455 S
C1063 C1060 1.356 . S
C1063 C1065 1.358 . S
C1063 H1121 0.930 . S
C1064 N1061 1.322 . S
C1064 C1062 1.353 . S
C1064 H1122 0.922 1_455 S
C1065 N1061 1.279 . S
C1065 C1063 1.358 . S
C1065 H1123 0.930 . S
C1066 C1069 1.348 . S
C1066 C1070 1.356 . S
C1066 O1117 1.325 . S
C1067 N1068 1.279 . S
C1067 C1070 1.358 . S
C1067 H1124 0.930 . S
N1068 C1067 1.279 . S
N1068 C1071 1.314 . S
C1069 C1066 1.348 . S
C1069 C1071 1.353 . S
C1069 H1125 0.929 . S
C1070 C1066 1.356 . S
C1070 C1067 1.358 . S
C1070 H1126 0.930 . S
C1071 N1068 1.314 . S
C1071 C1069 1.353 . S
C1071 H1127 0.930 . S
C1072 N1073 1.314 . S
C1072 C1077 1.353 . S
C1072 H1078 0.930 . S
N1073 Li1056 1.990 . S
N1073 C1072 1.314 . S
N1073 C1075 1.279 . S
C1074 C1075 1.358 . S
C1074 C1076 1.356 . S
C1074 H1128 0.930 . S
C1075 N1073 1.279 . S
C1075 C1074 1.358 . S
C1075 H1079 0.930 . S
C1076 C1074 1.356 . S
C1076 C1077 1.348 . S
C1077 C1072 1.353 . S
C1077 C1076 1.348 . S
C1077 H1129 0.929 . S
H1078 C1072 0.930 . S
H1079 C1075 0.930 . S
C1080 N1081 1.314 . S
C1080 C1082 1.353 . S
C1080 H1086 0.930 . S
N1081 Li1057 1.990 . S
N1081 C1080 1.314 . S
N1081 C1084 1.279 1_455 S
C1082 C1080 1.353 . S
C1082 C1085 1.348 . S
C1082 H1130 0.929 . S
C1083 C1084 1.358 . S
C1083 C1085 1.356 1_655 S
C1083 H1131 0.930 . S
C1084 N1081 1.279 1_655 S
C1084 C1083 1.358 . S
C1084 H1087 0.930 . S
C1085 C1082 1.348 . S
C1085 C1083 1.356 1_455 S
H1086 C1080 0.930 . S
H1087 C1084 0.930 . S
C1088 C1090 1.348 . S
C1088 C1091 1.356 . S
C1088 O1118 1.325 . S
N1089 C1092 1.314 . S
N1089 C1093 1.279 . S
C1090 C1088 1.348 . S
C1090 C1092 1.353 . S
C1090 H1132 0.929 . S
C1091 C1088 1.356 . S
C1091 C1093 1.358 . S
C1091 H1133 0.931 1_455 S
C1092 N1089 1.314 . S
C1092 C1090 1.353 . S
C1092 H1134 0.930 . S
C1093 N1089 1.279 . S
C1093 C1091 1.358 . S
C1093 H1135 0.930 . S
C1094 C1095 1.348 . S
C1094 C1096 1.356 . S
C1094 O1119 1.325 . S
C1095 C1094 1.348 . S
C1095 C1097 1.353 . S
C1095 H1136 0.929 . S
C1096 C1094 1.356 . S
C1096 C1098 1.358 . S
C1096 H1137 0.930 . S
C1097 C1095 1.353 . S
C1097 N1099 1.314 . S
C1097 H1138 0.930 . S
C1098 C1096 1.358 . S
C1098 N1099 1.279 . S
C1098 H1139 0.930 . S
N1099 C1097 1.314 . S
N1099 C1098 1.279 . S
C1100 C1102 1.353 . S
C1100 N1103 1.314 . S
C1100 H1106 0.930 . S
C1101 N1103 1.279 . S
C1101 C1104 1.358 . S
C1101 H1107 0.930 . S
C1102 C1100 1.353 . S
C1102 C1105 1.348 . S
C1102 H1140 0.929 . S
N1103 Li1058 1.990 . S
N1103 C1100 1.314 . S
N1103 C1101 1.279 . S
C1104 C1101 1.358 . S
C1104 C1105 1.356 . S
C1104 H1141 0.930 . S
C1105 C1102 1.348 . S
C1105 C1104 1.356 . S
H1106 C1100 0.930 . S
H1107 C1101 0.930 . S
C1108 N1109 1.314 1_655 S
C1108 C1110 1.353 . S
C1108 H1114 0.930 . S
N1109 Li1059 1.990 . S
N1109 C1108 1.314 1_455 S
N1109 C1112 1.279 . S
C1110 C1108 1.353 . S
C1110 C1113 1.348 1_655 S
C1110 H1142 0.929 . S
C1111 C1112 1.358 . S
C1111 C1113 1.356 . S
C1111 H1143 0.930 . S
C1112 N1109 1.279 . S
C1112 C1111 1.358 . S
C1112 H1115 0.930 . S
C1113 C1110 1.348 1_455 S
C1113 C1111 1.356 . S
H1114 C1108 0.930 . S
H1115 C1112 0.930 . S
O1116 Li1056 1.956 1_455 S
O1116 Li1057 1.970 . S
O1116 Li1058 1.961 . S
O1116 C1060 1.325 . S
O1117 Li1056 1.970 . S
O1117 Li1057 1.956 1_655 S
O1117 Li1059 1.961 1_655 S
O1117 C1066 1.325 . S
O1118 Li1056 1.961 1_455 S
O1118 Li1058 1.956 . S
O1118 Li1059 1.970 . S
O1118 C1088 1.325 . S
O1119 Li1057 1.961 . S
O1119 Li1058 1.970 . S
O1119 Li1059 1.956 . S
O1119 C1094 1.325 . S
H1120 C1062 0.919 1_655 S
H1121 C1063 0.930 . S
H1122 C1064 0.922 1_655 S
H1123 C1065 0.930 . S
H1124 C1067 0.930 . S
H1125 C1069 0.929 . S
H1126 C1070 0.930 . S
H1127 C1071 0.930 . S
H1128 C1074 0.930 . S
H1129 C1077 0.929 . S
H1130 C1082 0.929 . S
H1131 C1083 0.930 . S
H1132 C1090 0.929 . S
H1133 C1091 0.931 1_655 S
H1134 C1092 0.930 . S
H1135 C1093 0.930 . S
H1136 C1095 0.929 . S
H1137 C1096 0.930 . S
H1138 C1097 0.930 . S
H1139 C1098 0.930 . S
H1140 C1102 0.929 . S
H1141 C1104 0.930 . S
H1142 C1110 0.929 . S
H1143 C1111 0.930 . S
Li1144 N1161 1.990 . S
Li1144 O1204 1.956 . S
Li1144 O1205 1.970 . S
Li1144 O1206 1.961 1_455 S
Li1145 N1169 1.990 . S
Li1145 O1204 1.970 . S
Li1145 O1205 1.956 . S
Li1145 O1207 1.961 . S
Li1146 N1191 1.990 . S
Li1146 O1204 1.961 . S
Li1146 O1206 1.956 1_455 S
Li1146 O1207 1.970 . S
Li1147 N1197 1.990 . S
Li1147 O1205 1.961 1_655 S
Li1147 O1206 1.970 . S
Li1147 O1207 1.956 1_655 S
C1148 C1150 1.348 . S
C1148 C1151 1.356 . S
C1148 O1204 1.325 . S
N1149 C1152 1.314 . S
N1149 C1153 1.279 . S
C1150 C1148 1.348 . S
C1150 C1152 1.353 . S
C1150 H1208 0.929 . S
C1151 C1148 1.356 . S
C1151 C1153 1.358 . S
C1151 H1209 0.930 . S
C1152 N1149 1.314 . S
C1152 C1150 1.353 . S
C1152 H1210 0.930 . S
C1153 N1149 1.279 . S
C1153 C1151 1.358 . S
C1153 H1211 0.930 . S
C1154 C1157 1.348 . S
C1154 C1158 1.356 . S
C1154 O1205 1.325 . S
C1155 N1156 1.279 . S
C1155 C1158 1.358 . S
C1155 H1212 0.930 1_455 S
N1156 C1155 1.279 . S
N1156 C1159 1.314 . S
C1157 C1154 1.348 . S
C1157 C1159 1.353 . S
C1157 H1213 0.929 . S
C1158 C1154 1.356 . S
C1158 C1155 1.358 . S
C1158 H1214 0.930 1_455 S
C1159 N1156 1.314 . S
C1159 C1157 1.353 . S
C1159 H1215 0.930 . S
C1160 N1161 1.314 1_655 S
C1160 C1165 1.353 . S
C1160 H1166 0.930 . S
N1161 Li1144 1.990 . S
N1161 C1160 1.314 1_455 S
N1161 C1163 1.279 . S
C1162 C1163 1.358 . S
C1162 C1164 1.356 . S
C1162 H1216 0.930 . S
C1163 N1161 1.279 . S
C1163 C1162 1.358 . S
C1163 H1167 0.930 . S
C1164 C1162 1.356 . S
C1164 C1165 1.348 1_455 S
C1165 C1160 1.353 . S
C1165 C1164 1.348 1_655 S
C1165 H1217 0.929 . S
H1166 C1160 0.930 . S
H1167 C1163 0.930 . S
C1168 N1169 1.314 . S
C1168 C1170 1.353 . S
C1168 H1174 0.930 . S
N1169 Li1145 1.990 . S
N1169 C1168 1.314 . S
N1169 C1172 1.279 . S
C1170 C1168 1.353 . S
C1170 C1173 1.348 . S
C1170 H1218 0.929 . S
C1171 C1172 1.358 . S
C1171 C1173 1.356 . S
C1171 H1219 0.930 . S
C1172 N1169 1.279 . S
C1172 C1171 1.358 . S
C1172 H1175 0.930 . S
C1173 C1170 1.348 . S
C1173 C1171 1.356 . S
H1174 C1168 0.930 . S
H1175 C1172 0.930 . S
C1176 C1178 1.348 . S
C1176 C1179 1.356 . S
C1176 O1206 1.325 . S
N1177 C1180 1.314 . S
N1177 C1181 1.279 . S
C1178 C1176 1.348 . S
C1178 C1180 1.353 . S
C1178 H1220 0.929 . S
C1179 C1176 1.356 . S
C1179 C1181 1.358 . S
C1179 H1221 0.930 . S
C1180 N1177 1.314 . S
C1180 C1178 1.353 . S
C1180 H1222 0.930 . S
C1181 N1177 1.279 . S
C1181 C1179 1.358 . S
C1181 H1223 0.930 . S
C1182 C1183 1.339 1_455 S
C1182 C1184 1.356 . S
C1182 O1207 1.325 . S
C1183 C1182 1.339 1_655 S
C1183 C1185 1.353 . S
C1183 H1224 0.938 . S
C1184 C1182 1.356 . S
C1184 C1186 1.358 . S
C1184 H1225 0.930 . S
C1185 C1183 1.353 . S
C1185 N1187 1.308 1_655 S
C1185 H1226 0.937 . S
C1186 C1184 1.358 . S
C1186 N1187 1.279 . S
C1186 H1227 0.930 . S
N1187 C1185 1.308 1_455 S
N1187 C1186 1.279 . S
C1188 C1190 1.353 . S
C1188 N1191 1.314 . S
C1188 H1194 0.930 . S
C1189 N1191 1.279 1_655 S
C1189 C1192 1.358 . S
C1189 H1195 0.930 . S
C1190 C1188 1.353 . S
C1190 C1193 1.348 . S
C1190 H1228 0.929 . S
N1191 Li1146 1.990 . S
N1191 C1188 1.314 . S
N1191 C1189 1.279 1_455 S
C1192 C1189 1.358 . S
C1192 C1193 1.356 1_655 S
C1192 H1229 0.930 . S
C1193 C1190 1.348 . S
C1193 C1192 1.356 1_455 S
H1194 C1188 0.930 . S
H1195 C1189 0.930 . S
C1196 N1197 1.314 . S
C1196 C1198 1.353 . S
C1196 H1202 0.930 . S
N1197 Li1147 1.990 . S
N1197 C1196 1.314 . S
N1197 C1200 1.279 . S
C1198 C1196 1.353 . S
C1198 C1201 1.348 . S
C1198 H1230 0.929 . S
C1199 C1200 1.358 . S
C1199 C1201 1.356 . S
C1199 H1231 0.930 . S
C1200 N1197 1.279 . S
C1200 C1199 1.358 . S
C1200 H1203 0.930 . S
C1201 C1198 1.348 . S
C1201 C1199 1.356 . S
H1202 C1196 0.930 . S
H1203 C1200 0.930 . S
O1204 Li1144 1.956 . S
O1204 Li1145 1.970 . S
O1204 Li1146 1.961 . S
O1204 C1148 1.325 . S
O1205 Li1144 1.970 . S
O1205 Li1145 1.956 . S
O1205 Li1147 1.961 1_455 S
O1205 C1154 1.325 . S
O1206 Li1144 1.961 1_655 S
O1206 Li1146 1.956 1_655 S
O1206 Li1147 1.970 . S
O1206 C1176 1.325 . S
O1207 Li1145 1.961 . S
O1207 Li1146 1.970 . S
O1207 Li1147 1.956 1_455 S
O1207 C1182 1.325 . S
H1208 C1150 0.929 . S
H1209 C1151 0.930 . S
H1210 C1152 0.930 . S
H1211 C1153 0.930 . S
H1212 C1155 0.930 1_655 S
H1213 C1157 0.929 . S
H1214 C1158 0.930 1_655 S
H1215 C1159 0.930 . S
H1216 C1162 0.930 . S
H1217 C1165 0.929 . S
H1218 C1170 0.929 . S
H1219 C1171 0.930 . S
H1220 C1178 0.929 . S
H1221 C1179 0.930 . S
H1222 C1180 0.930 . S
H1223 C1181 0.930 . S
H1224 C1183 0.938 . S
H1225 C1184 0.930 . S
H1226 C1185 0.937 . S
H1227 C1186 0.930 . S
H1228 C1190 0.929 . S
H1229 C1192 0.930 . S
H1230 C1198 0.929 . S
H1231 C1199 0.930 . S
Li1232 N1249 1.990 . S
Li1232 O1292 1.956 . S
Li1232 O1293 1.970 . S
Li1232 O1294 1.961 . S
Li1233 N1257 1.990 . S
Li1233 O1292 1.970 . S
Li1233 O1293 1.956 . S
Li1233 O1295 1.961 . S
Li1234 N1279 1.990 . S
Li1234 O1292 1.961 . S
Li1234 O1294 1.956 . S
Li1234 O1295 1.970 . S
Li1235 N1285 1.990 . S
Li1235 O1293 1.961 . S
Li1235 O1294 1.970 . S
Li1235 O1295 1.956 . S
C1236 C1238 1.348 . S
C1236 C1239 1.356 . S
C1236 O1292 1.325 . S
N1237 C1240 1.314 . S
N1237 C1241 1.279 . S
C1238 C1236 1.348 . S
C1238 C1240 1.353 . S
C1238 H1296 0.929 . S
C1239 C1236 1.356 . S
C1239 C1241 1.358 . S
C1239 H1297 0.930 . S
C1240 N1237 1.314 . S
C1240 C1238 1.353 . S
C1240 H1298 0.930 . S
C1241 N1237 1.279 . S
C1241 C1239 1.358 . S
C1241 H1299 0.930 . S
C1242 C1245 1.348 . S
C1242 C1246 1.356 . S
C1242 O1293 1.325 . S
C1243 N1244 1.279 . S
C1243 C1246 1.358 . S
C1243 H1300 0.930 . S
N1244 C1243 1.279 . S
N1244 C1247 1.314 . S
C1245 C1242 1.348 . S
C1245 C1247 1.353 . S
C1245 H1301 0.929 . S
C1246 C1242 1.356 . S
C1246 C1243 1.358 . S
C1246 H1302 0.930 . S
C1247 N1244 1.314 . S
C1247 C1245 1.353 . S
C1247 H1303 0.930 . S
C1248 N1249 1.314 . S
C1248 C1253 1.353 . S
C1248 H1254 0.930 . S
N1249 Li1232 1.990 . S
N1249 C1248 1.314 . S
N1249 C1251 1.279 . S
C1250 C1251 1.358 . S
C1250 C1252 1.356 . S
C1250 H1304 0.930 . S
C1251 N1249 1.279 . S
C1251 C1250 1.358 . S
C1251 H1255 0.930 . S
C1252 C1250 1.356 . S
C1252 C1253 1.348 . S
C1253 C1248 1.353 . S
C1253 C1252 1.348 . S
C1253 H1305 0.929 . S
H1254 C1248 0.930 . S
H1255 C1251 0.930 . S
C1256 N1257 1.314 . S
C1256 C1258 1.353 . S
C1256 H1262 0.930 . S
N1257 Li1233 1.990 . S
N1257 C1256 1.314 . S
N1257 C1260 1.279 . S
C1258 C1256 1.353 . S
C1258 C1261 1.348 . S
C1258 H1306 0.929 . S
C1259 C1260 1.358 . S
C1259 C1261 1.356 . S
C1259 H1307 0.930 . S
C1260 N1257 1.279 . S
C1260 C1259 1.358 . S
C1260 H1263 0.930 . S
C1261 C1258 1.348 . S
C1261 C1259 1.356 . S
H1262 C1256 0.930 . S
H1263 C1260 0.930 . S
C1264 C1266 1.348 . S
C1264 C1267 1.356 . S
C1264 O1294 1.325 . S
N1265 C1268 1.314 . S
N1265 C1269 1.279 . S
C1266 C1264 1.348 . S
C1266 C1268 1.353 . S
C1266 H1308 0.929 . S
C1267 C1264 1.356 . S
C1267 C1269 1.358 . S
C1267 H1309 0.930 . S
C1268 N1265 1.314 . S
C1268 C1266 1.353 . S
C1268 H1310 0.930 . S
C1269 N1265 1.279 . S
C1269 C1267 1.358 . S
C1269 H1311 0.930 . S
C1270 C1271 1.348 . S
C1270 C1272 1.356 . S
C1270 O1295 1.325 . S
C1271 C1270 1.348 . S
C1271 C1273 1.353 . S
C1271 H1312 0.929 . S
C1272 C1270 1.356 . S
C1272 C1274 1.358 . S
C1272 H1313 0.930 . S
C1273 C1271 1.353 . S
C1273 N1275 1.314 . S
C1273 H1314 0.930 . S
C1274 C1272 1.358 . S
C1274 N1275 1.279 . S
C1274 H1315 0.930 . S
N1275 C1273 1.314 . S
N1275 C1274 1.279 . S
C1276 C1278 1.353 . S
C1276 N1279 1.314 . S
C1276 H1282 0.930 . S
C1277 N1279 1.279 . S
C1277 C1280 1.358 . S
C1277 H1283 0.930 . S
C1278 C1276 1.353 . S
C1278 C1281 1.348 . S
C1278 H1316 0.929 . S
N1279 Li1234 1.990 . S
N1279 C1276 1.314 . S
N1279 C1277 1.279 . S
C1280 C1277 1.358 . S
C1280 C1281 1.356 . S
C1280 H1317 0.930 . S
C1281 C1278 1.348 . S
C1281 C1280 1.356 . S
H1282 C1276 0.930 . S
H1283 C1277 0.930 . S
C1284 N1285 1.314 . S
C1284 C1286 1.353 . S
C1284 H1290 0.930 . S
N1285 Li1235 1.990 . S
N1285 C1284 1.314 . S
N1285 C1288 1.279 . S
C1286 C1284 1.353 . S
C1286 C1289 1.348 . S
C1286 H1318 0.929 . S
C1287 C1288 1.358 . S
C1287 C1289 1.356 . S
C1287 H1319 0.930 . S
C1288 N1285 1.279 . S
C1288 C1287 1.358 . S
C1288 H1291 0.930 . S
C1289 C1286 1.348 . S
C1289 C1287 1.356 . S
H1290 C1284 0.930 . S
H1291 C1288 0.930 . S
O1292 Li1232 1.956 . S
O1292 Li1233 1.970 . S
O1292 Li1234 1.961 . S
O1292 C1236 1.325 . S
O1293 Li1232 1.970 . S
O1293 Li1233 1.956 . S
O1293 Li1235 1.961 . S
O1293 C1242 1.325 . S
O1294 Li1232 1.961 . S
O1294 Li1234 1.956 . S
O1294 Li1235 1.970 . S
O1294 C1264 1.325 . S
O1295 Li1233 1.961 . S
O1295 Li1234 1.970 . S
O1295 Li1235 1.956 . S
O1295 C1270 1.325 . S
H1296 C1238 0.929 . S
H1297 C1239 0.930 . S
H1298 C1240 0.930 . S
H1299 C1241 0.930 . S
H1300 C1243 0.930 . S
H1301 C1245 0.929 . S
H1302 C1246 0.930 . S
H1303 C1247 0.930 . S
H1304 C1250 0.930 . S
H1305 C1253 0.929 . S
H1306 C1258 0.929 . S
H1307 C1259 0.930 . S
H1308 C1266 0.929 . S
H1309 C1267 0.930 . S
H1310 C1268 0.930 . S
H1311 C1269 0.930 . S
H1312 C1271 0.929 . S
H1313 C1272 0.930 . S
H1314 C1273 0.930 . S
H1315 C1274 0.930 . S
H1316 C1278 0.929 . S
H1317 C1280 0.930 . S
H1318 C1286 0.929 . S
H1319 C1287 0.930 . S
Li1320 N1337 1.990 . S
Li1320 O1380 1.956 . S
Li1320 O1381 1.970 . S
Li1320 O1382 1.961 . S
Li1321 N1345 1.990 . S
Li1321 O1380 1.970 . S
Li1321 O1381 1.956 . S
Li1321 O1383 1.961 . S
Li1322 N1367 1.990 . S
Li1322 O1380 1.961 . S
Li1322 O1382 1.956 . S
Li1322 O1383 1.970 . S
Li1323 N1373 1.990 . S
Li1323 O1381 1.961 . S
Li1323 O1382 1.970 . S
Li1323 O1383 1.956 . S
C1324 C1326 1.348 . S
C1324 C1327 1.356 . S
C1324 O1380 1.325 . S
N1325 C1328 1.314 . S
N1325 C1329 1.279 . S
C1326 C1324 1.348 . S
C1326 C1328 1.353 . S
C1326 H1384 0.929 . S
C1327 C1324 1.356 . S
C1327 C1329 1.358 . S
C1327 H1385 0.930 . S
C1328 N1325 1.314 . S
C1328 C1326 1.353 . S
C1328 H1386 0.930 . S
C1329 N1325 1.279 . S
C1329 C1327 1.358 . S
C1329 H1387 0.930 . S
C1330 C1333 1.348 . S
C1330 C1334 1.356 . S
C1330 O1381 1.325 . S
C1331 N1332 1.279 . S
C1331 C1334 1.358 . S
C1331 H1388 0.930 . S
N1332 C1331 1.279 . S
N1332 C1335 1.314 . S
C1333 C1330 1.348 . S
C1333 C1335 1.353 . S
C1333 H1389 0.929 . S
C1334 C1330 1.356 . S
C1334 C1331 1.358 . S
C1334 H1390 0.930 . S
C1335 N1332 1.314 . S
C1335 C1333 1.353 . S
C1335 H1391 0.930 . S
C1336 N1337 1.314 . S
C1336 C1341 1.353 . S
C1336 H1342 0.930 . S
N1337 Li1320 1.990 . S
N1337 C1336 1.314 . S
N1337 C1339 1.279 . S
C1338 C1339 1.358 . S
C1338 C1340 1.356 . S
C1338 H1392 0.930 . S
C1339 N1337 1.279 . S
C1339 C1338 1.358 . S
C1339 H1343 0.930 . S
C1340 C1338 1.356 . S
C1340 C1341 1.348 . S
C1341 C1336 1.353 . S
C1341 C1340 1.348 . S
C1341 H1393 0.929 . S
H1342 C1336 0.930 . S
H1343 C1339 0.930 . S
C1344 N1345 1.314 . S
C1344 C1346 1.353 . S
C1344 H1350 0.930 . S
N1345 Li1321 1.990 . S
N1345 C1344 1.314 . S
N1345 C1348 1.279 . S
C1346 C1344 1.353 . S
C1346 C1349 1.348 . S
C1346 H1394 0.929 . S
C1347 C1348 1.358 . S
C1347 C1349 1.356 . S
C1347 H1395 0.930 . S
C1348 N1345 1.279 . S
C1348 C1347 1.358 . S
C1348 H1351 0.930 . S
C1349 C1346 1.348 . S
C1349 C1347 1.356 . S
H1350 C1344 0.930 . S
H1351 C1348 0.930 . S
C1352 C1354 1.348 . S
C1352 C1355 1.356 . S
C1352 O1382 1.325 . S
N1353 C1356 1.314 . S
N1353 C1357 1.279 . S
C1354 C1352 1.348 . S
C1354 C1356 1.353 . S
C1354 H1396 0.929 . S
C1355 C1352 1.356 . S
C1355 C1357 1.358 . S
C1355 H1397 0.930 . S
C1356 N1353 1.314 . S
C1356 C1354 1.353 . S
C1356 H1398 0.930 . S
C1357 N1353 1.279 . S
C1357 C1355 1.358 . S
C1357 H1399 0.930 . S
C1358 C1359 1.348 . S
C1358 C1360 1.356 . S
C1358 O1383 1.325 . S
C1359 C1358 1.348 . S
C1359 C1361 1.353 . S
C1359 H1400 0.929 . S
C1360 C1358 1.356 . S
C1360 C1362 1.358 . S
C1360 H1401 0.930 . S
C1361 C1359 1.353 . S
C1361 N1363 1.314 . S
C1361 H1402 0.930 . S
C1362 C1360 1.358 . S
C1362 N1363 1.279 . S
C1362 H1403 0.930 . S
N1363 C1361 1.314 . S
N1363 C1362 1.279 . S
C1364 C1366 1.353 . S
C1364 N1367 1.314 . S
C1364 H1370 0.930 . S
C1365 N1367 1.279 . S
C1365 C1368 1.358 . S
C1365 H1371 0.930 . S
C1366 C1364 1.353 . S
C1366 C1369 1.348 . S
C1366 H1404 0.929 . S
N1367 Li1322 1.990 . S
N1367 C1364 1.314 . S
N1367 C1365 1.279 . S
C1368 C1365 1.358 . S
C1368 C1369 1.356 . S
C1368 H1405 0.930 . S
C1369 C1366 1.348 . S
C1369 C1368 1.356 . S
H1370 C1364 0.930 . S
H1371 C1365 0.930 . S
C1372 N1373 1.314 . S
C1372 C1374 1.353 . S
C1372 H1378 0.930 . S
N1373 Li1323 1.990 . S
N1373 C1372 1.314 . S
N1373 C1376 1.279 . S
C1374 C1372 1.353 . S
C1374 C1377 1.348 . S
C1374 H1406 0.929 . S
C1375 C1376 1.358 . S
C1375 C1377 1.356 . S
C1375 H1407 0.930 . S
C1376 N1373 1.279 . S
C1376 C1375 1.358 . S
C1376 H1379 0.930 . S
C1377 C1374 1.348 . S
C1377 C1375 1.356 . S
H1378 C1372 0.930 . S
H1379 C1376 0.930 . S
O1380 Li1320 1.956 . S
O1380 Li1321 1.970 . S
O1380 Li1322 1.961 . S
O1380 C1324 1.325 . S
O1381 Li1320 1.970 . S
O1381 Li1321 1.956 . S
O1381 Li1323 1.961 . S
O1381 C1330 1.325 . S
O1382 Li1320 1.961 . S
O1382 Li1322 1.956 . S
O1382 Li1323 1.970 . S
O1382 C1352 1.325 . S
O1383 Li1321 1.961 . S
O1383 Li1322 1.970 . S
O1383 Li1323 1.956 . S
O1383 C1358 1.325 . S
H1384 C1326 0.929 . S
H1385 C1327 0.930 . S
H1386 C1328 0.930 . S
H1387 C1329 0.930 . S
H1388 C1331 0.930 . S
H1389 C1333 0.929 . S
H1390 C1334 0.930 . S
H1391 C1335 0.930 . S
H1392 C1338 0.930 . S
H1393 C1341 0.929 . S
H1394 C1346 0.929 . S
H1395 C1347 0.930 . S
H1396 C1354 0.929 . S
H1397 C1355 0.930 . S
H1398 C1356 0.930 . S
H1399 C1357 0.930 . S
H1400 C1359 0.929 . S
H1401 C1360 0.930 . S
H1402 C1361 0.930 . S
H1403 C1362 0.930 . S
H1404 C1366 0.929 . S
H1405 C1368 0.930 . S
H1406 C1374 0.929 . S
H1407 C1375 0.930 . S
Li1408 N1425 1.991 . S
Li1408 O1468 1.956 1_545 S
Li1408 O1469 1.970 . S
Li1408 O1470 1.961 . S
Li1409 N1433 1.990 . S
Li1409 O1468 1.970 . S
Li1409 O1469 1.956 1_565 S
Li1409 O1471 1.927 1_565 S
Li1410 N1455 1.990 . S
Li1410 O1468 1.961 1_545 S
Li1410 O1470 1.956 . S
Li1410 O1471 1.973 . S
Li1411 N1461 1.990 . S
Li1411 O1469 1.961 . S
Li1411 O1470 1.970 . S
Li1411 O1471 1.993 . S
C1412 C1414 1.348 . S
C1412 C1415 1.356 . S
C1412 O1468 1.325 . S
N1413 C1416 1.314 . S
N1413 C1417 1.279 . S
C1414 C1412 1.348 . S
C1414 C1416 1.353 . S
C1414 H1472 0.929 . S
C1415 C1412 1.356 . S
C1415 C1417 1.358 . S
C1415 H1473 0.930 . S
C1416 N1413 1.314 . S
C1416 C1414 1.353 . S
C1416 H1474 0.930 . S
C1417 N1413 1.279 . S
C1417 C1415 1.358 . S
C1417 H1475 0.930 . S
C1418 C1421 1.348 1_545 S
C1418 C1422 1.356 . S
C1418 O1469 1.325 . S
C1419 N1420 1.283 . S
C1419 C1422 1.358 . S
C1419 H1476 0.930 . S
N1420 C1419 1.283 . S
N1420 C1423 1.311 1_545 S
C1421 C1418 1.348 1_565 S
C1421 C1423 1.353 . S
C1421 H1477 0.929 . S
C1422 C1418 1.356 . S
C1422 C1419 1.358 . S
C1422 H1478 0.930 . S
C1423 N1420 1.311 1_565 S
C1423 C1421 1.353 . S
C1423 H1479 0.930 . S
C1424 N1425 1.353 . S
C1424 C1429 1.353 . S
C1424 H1430 0.930 . S
N1425 Li1408 1.991 . S
N1425 C1424 1.353 . S
N1425 C1427 1.242 1_545 S
C1426 C1427 1.358 . S
C1426 C1428 1.356 1_565 S
C1426 H1480 0.930 . S
C1427 N1425 1.242 1_565 S
C1427 C1426 1.358 . S
C1427 H1431 0.930 . S
C1428 C1426 1.356 1_545 S
C1428 C1429 1.348 . S
C1429 C1424 1.353 . S
C1429 C1428 1.348 . S
C1429 H1481 0.929 . S
H1430 C1424 0.930 . S
H1431 C1427 0.930 . S
C1432 N1433 1.314 . S
C1432 C1434 1.353 . S
C1432 H1438 0.930 . S
N1433 Li1409 1.990 . S
N1433 C1432 1.314 . S
N1433 C1436 1.279 . S
C1434 C1432 1.353 . S
C1434 C1437 1.348 . S
C1434 H1482 0.929 . S
C1435 C1436 1.358 . S
C1435 C1437 1.356 . S
C1435 H1483 0.930 . S
C1436 N1433 1.279 . S
C1436 C1435 1.358 . S
C1436 H1439 0.930 . S
C1437 C1434 1.348 . S
C1437 C1435 1.356 . S
H1438 C1432 0.930 . S
H1439 C1436 0.930 . S
C1440 C1442 1.348 . S
C1440 C1443 1.356 . S
C1440 O1470 1.325 . S
N1441 C1444 1.314 . S
N1441 C1445 1.279 . S
C1442 C1440 1.348 . S
C1442 C1444 1.353 . S
C1442 H1484 0.929 . S
C1443 C1440 1.356 . S
C1443 C1445 1.358 . S
C1443 H1485 0.930 . S
C1444 N1441 1.314 . S
C1444 C1442 1.353 . S
C1444 H1486 0.930 . S
C1445 N1441 1.279 . S
C1445 C1443 1.358 . S
C1445 H1487 0.930 . S
C1446 C1447 1.348 . S
C1446 C1448 1.356 1_545 S
C1446 O1471 1.327 . S
C1447 C1446 1.348 . S
C1447 C1449 1.353 . S
C1447 H1488 0.929 . S
C1448 C1446 1.356 1_565 S
C1448 C1450 1.358 . S
C1448 H1489 0.930 . S
C1449 C1447 1.353 . S
C1449 N1451 1.314 . S
C1449 H1490 0.930 . S
C1450 C1448 1.358 . S
C1450 N1451 1.279 1_565 S
C1450 H1491 0.930 . S
N1451 C1449 1.314 . S
N1451 C1450 1.279 1_545 S
C1452 C1454 1.353 . S
C1452 N1455 1.314 1_565 S
C1452 H1458 0.930 . S
C1453 N1455 1.279 . S
C1453 C1456 1.358 . S
C1453 H1459 0.930 . S
C1454 C1452 1.353 . S
C1454 C1457 1.348 1_565 S
C1454 H1492 0.929 . S
N1455 Li1410 1.990 . S
N1455 C1452 1.314 1_545 S
N1455 C1453 1.279 . S
C1456 C1453 1.358 . S
C1456 C1457 1.356 . S
C1456 H1493 0.930 . S
C1457 C1454 1.348 1_545 S
C1457 C1456 1.356 . S
H1458 C1452 0.930 . S
H1459 C1453 0.930 . S
C1460 N1461 1.314 . S
C1460 C1462 1.353 . S
C1460 H1466 0.930 . S
N1461 Li1411 1.990 . S
N1461 C1460 1.314 . S
N1461 C1464 1.279 . S
C1462 C1460 1.353 . S
C1462 C1465 1.348 . S
C1462 H1494 0.929 . S
C1463 C1464 1.358 . S
C1463 C1465 1.356 . S
C1463 H1495 0.930 . S
C1464 N1461 1.279 . S
C1464 C1463 1.358 . S
C1464 H1467 0.930 . S
C1465 C1462 1.348 . S
C1465 C1463 1.356 . S
H1466 C1460 0.930 . S
H1467 C1464 0.930 . S
O1468 Li1408 1.956 1_565 S
O1468 Li1409 1.970 . S
O1468 Li1410 1.961 1_565 S
O1468 C1412 1.325 . S
O1469 Li1408 1.970 . S
O1469 Li1409 1.956 1_545 S
O1469 Li1411 1.961 . S
O1469 C1418 1.325 . S
O1470 Li1408 1.961 . S
O1470 Li1410 1.956 . S
O1470 Li1411 1.970 . S
O1470 C1440 1.325 . S
O1471 Li1409 1.927 1_545 S
O1471 Li1410 1.973 . S
O1471 Li1411 1.993 . S
O1471 C1446 1.327 . S
H1472 C1414 0.929 . S
H1473 C1415 0.930 . S
H1474 C1416 0.930 . S
H1475 C1417 0.930 . S
H1476 C1419 0.930 . S
H1477 C1421 0.929 . S
H1478 C1422 0.930 . S
H1479 C1423 0.930 . S
H1480 C1426 0.930 . S
H1481 C1429 0.929 . S
H1482 C1434 0.929 . S
H1483 C1435 0.930 . S
H1484 C1442 0.929 . S
H1485 C1443 0.930 . S
H1486 C1444 0.930 . S
H1487 C1445 0.930 . S
H1488 C1447 0.929 . S
H1489 C1448 0.930 . S
H1490 C1449 0.930 . S
H1491 C1450 0.930 . S
H1492 C1454 0.929 . S
H1493 C1456 0.930 . S
H1494 C1462 0.929 . S
H1495 C1463 0.930 . S
Li1496 N1513 1.990 . S
Li1496 O1556 1.956 . S
Li1496 O1557 1.970 . S
Li1496 O1558 1.961 . S
Li1497 N1521 1.990 . S
Li1497 O1556 1.970 . S
Li1497 O1557 1.956 . S
Li1497 O1559 1.961 . S
Li1498 N1543 1.990 . S
Li1498 O1556 1.961 . S
Li1498 O1558 1.956 . S
Li1498 O1559 1.970 . S
Li1499 N1549 1.990 . S
Li1499 O1557 1.961 . S
Li1499 O1558 1.970 . S
Li1499 O1559 1.956 . S
C1500 C1502 1.348 . S
C1500 C1503 1.356 . S
C1500 O1556 1.325 . S
N1501 C1504 1.314 . S
N1501 C1505 1.279 . S
C1502 C1500 1.348 . S
C1502 C1504 1.353 . S
C1502 H1560 0.929 . S
C1503 C1500 1.356 . S
C1503 C1505 1.358 . S
C1503 H1561 0.930 . S
C1504 N1501 1.314 . S
C1504 C1502 1.353 . S
C1504 H1562 0.930 . S
C1505 N1501 1.279 . S
C1505 C1503 1.358 . S
C1505 H1563 0.930 . S
C1506 C1509 1.348 . S
C1506 C1510 1.356 . S
C1506 O1557 1.325 . S
C1507 N1508 1.279 . S
C1507 C1510 1.358 . S
C1507 H1564 0.930 . S
N1508 C1507 1.279 . S
N1508 C1511 1.314 . S
C1509 C1506 1.348 . S
C1509 C1511 1.353 . S
C1509 H1565 0.929 . S
C1510 C1506 1.356 . S
C1510 C1507 1.358 . S
C1510 H1566 0.930 . S
C1511 N1508 1.314 . S
C1511 C1509 1.353 . S
C1511 H1567 0.930 . S
C1512 N1513 1.314 . S
C1512 C1517 1.353 . S
C1512 H1518 0.930 . S
N1513 Li1496 1.990 . S
N1513 C1512 1.314 . S
N1513 C1515 1.279 . S
C1514 C1515 1.358 . S
C1514 C1516 1.356 . S
C1514 H1568 0.930 . S
C1515 N1513 1.279 . S
C1515 C1514 1.358 . S
C1515 H1519 0.930 . S
C1516 C1514 1.356 . S
C1516 C1517 1.348 . S
C1517 C1512 1.353 . S
C1517 C1516 1.348 . S
C1517 H1569 0.929 . S
H1518 C1512 0.930 . S
H1519 C1515 0.930 . S
C1520 N1521 1.314 . S
C1520 C1522 1.353 . S
C1520 H1526 0.930 . S
N1521 Li1497 1.990 . S
N1521 C1520 1.314 . S
N1521 C1524 1.279 . S
C1522 C1520 1.353 . S
C1522 C1525 1.348 . S
C1522 H1570 0.929 . S
C1523 C1524 1.358 . S
C1523 C1525 1.356 . S
C1523 H1571 0.930 . S
C1524 N1521 1.279 . S
C1524 C1523 1.358 . S
C1524 H1527 0.930 . S
C1525 C1522 1.348 . S
C1525 C1523 1.356 . S
H1526 C1520 0.930 . S
H1527 C1524 0.930 . S
C1528 C1530 1.348 . S
C1528 C1531 1.356 . S
C1528 O1558 1.325 . S
N1529 C1532 1.314 . S
N1529 C1533 1.279 . S
C1530 C1528 1.348 . S
C1530 C1532 1.353 . S
C1530 H1572 0.929 . S
C1531 C1528 1.356 . S
C1531 C1533 1.358 . S
C1531 H1573 0.930 . S
C1532 N1529 1.314 . S
C1532 C1530 1.353 . S
C1532 H1574 0.930 . S
C1533 N1529 1.279 . S
C1533 C1531 1.358 . S
C1533 H1575 0.930 . S
C1534 C1535 1.348 . S
C1534 C1536 1.356 . S
C1534 O1559 1.325 . S
C1535 C1534 1.348 . S
C1535 C1537 1.353 . S
C1535 H1576 0.929 . S
C1536 C1534 1.356 . S
C1536 C1538 1.358 . S
C1536 H1577 0.930 . S
C1537 C1535 1.353 . S
C1537 N1539 1.314 . S
C1537 H1578 0.930 . S
C1538 C1536 1.358 . S
C1538 N1539 1.279 . S
C1538 H1579 0.930 . S
N1539 C1537 1.314 . S
N1539 C1538 1.279 . S
C1540 C1542 1.353 . S
C1540 N1543 1.314 . S
C1540 H1546 0.930 . S
C1541 N1543 1.279 . S
C1541 C1544 1.358 . S
C1541 H1547 0.930 . S
C1542 C1540 1.353 . S
C1542 C1545 1.348 . S
C1542 H1580 0.929 . S
N1543 Li1498 1.990 . S
N1543 C1540 1.314 . S
N1543 C1541 1.279 . S
C1544 C1541 1.358 . S
C1544 C1545 1.356 . S
C1544 H1581 0.930 . S
C1545 C1542 1.348 . S
C1545 C1544 1.356 . S
H1546 C1540 0.930 . S
H1547 C1541 0.930 . S
C1548 N1549 1.314 . S
C1548 C1550 1.353 . S
C1548 H1554 0.930 . S
N1549 Li1499 1.990 . S
N1549 C1548 1.314 . S
N1549 C1552 1.279 . S
C1550 C1548 1.353 . S
C1550 C1553 1.348 . S
C1550 H1582 0.929 . S
C1551 C1552 1.358 . S
C1551 C1553 1.356 . S
C1551 H1583 0.930 . S
C1552 N1549 1.279 . S
C1552 C1551 1.358 . S
C1552 H1555 0.930 . S
C1553 C1550 1.348 . S
C1553 C1551 1.356 . S
H1554 C1548 0.930 . S
H1555 C1552 0.930 . S
O1556 Li1496 1.956 . S
O1556 Li1497 1.970 . S
O1556 Li1498 1.961 . S
O1556 C1500 1.325 . S
O1557 Li1496 1.970 . S
O1557 Li1497 1.956 . S
O1557 Li1499 1.961 . S
O1557 C1506 1.325 . S
O1558 Li1496 1.961 . S
O1558 Li1498 1.956 . S
O1558 Li1499 1.970 . S
O1558 C1528 1.325 . S
O1559 Li1497 1.961 . S
O1559 Li1498 1.970 . S
O1559 Li1499 1.956 . S
O1559 C1534 1.325 . S
H1560 C1502 0.929 . S
H1561 C1503 0.930 . S
H1562 C1504 0.930 . S
H1563 C1505 0.930 . S
H1564 C1507 0.930 . S
H1565 C1509 0.929 . S
H1566 C1510 0.930 . S
H1567 C1511 0.930 . S
H1568 C1514 0.930 . S
H1569 C1517 0.929 . S
H1570 C1522 0.929 . S
H1571 C1523 0.930 . S
H1572 C1530 0.929 . S
H1573 C1531 0.930 . S
H1574 C1532 0.930 . S
H1575 C1533 0.930 . S
H1576 C1535 0.929 . S
H1577 C1536 0.930 . S
H1578 C1537 0.930 . S
H1579 C1538 0.930 . S
H1580 C1542 0.929 . S
H1581 C1544 0.930 . S
H1582 C1550 0.929 . S
H1583 C1551 0.930 . S
Li1584 N1601 1.990 . S
Li1584 O1644 1.956 . S
Li1584 O1645 1.970 . S
Li1584 O1646 1.961 1_545 S
Li1585 N1609 1.990 . S
Li1585 O1644 1.970 . S
Li1585 O1645 1.956 . S
Li1585 O1647 1.961 . S
Li1586 N1631 1.990 . S
Li1586 O1644 1.961 . S
Li1586 O1646 1.956 1_545 S
Li1586 O1647 1.970 . S
Li1587 N1637 1.990 . S
Li1587 O1645 1.961 1_565 S
Li1587 O1646 1.970 . S
Li1587 O1647 1.956 1_565 S
C1588 C1590 1.348 . S
C1588 C1591 1.356 . S
C1588 O1644 1.325 . S
N1589 C1592 1.314 . S
N1589 C1593 1.279 . S
C1590 C1588 1.348 . S
C1590 C1592 1.353 . S
C1590 H1648 0.929 . S
C1591 C1588 1.356 . S
C1591 C1593 1.358 . S
C1591 H1649 0.930 . S
C1592 N1589 1.314 . S
C1592 C1590 1.353 . S
C1592 H1650 0.930 . S
C1593 N1589 1.279 . S
C1593 C1591 1.358 . S
C1593 H1651 0.930 . S
C1594 C1597 1.348 . S
C1594 C1598 1.356 . S
C1594 O1645 1.325 . S
C1595 N1596 1.279 . S
C1595 C1598 1.358 . S
C1595 H1652 0.930 1_545 S
N1596 C1595 1.279 . S
N1596 C1599 1.314 . S
C1597 C1594 1.348 . S
C1597 C1599 1.353 . S
C1597 H1653 0.929 . S
C1598 C1594 1.356 . S
C1598 C1595 1.358 . S
C1598 H1654 0.930 1_545 S
C1599 N1596 1.314 . S
C1599 C1597 1.353 . S
C1599 H1655 0.930 . S
C1600 N1601 1.314 1_565 S
C1600 C1605 1.353 . S
C1600 H1606 0.930 . S
N1601 Li1584 1.990 . S
N1601 C1600 1.314 1_545 S
N1601 C1603 1.279 . S
C1602 C1603 1.358 . S
C1602 C1604 1.356 . S
C1602 H1656 0.930 . S
C1603 N1601 1.279 . S
C1603 C1602 1.358 . S
C1603 H1607 0.930 . S
C1604 C1602 1.356 . S
C1604 C1605 1.348 1_545 S
C1605 C1600 1.353 . S
C1605 C1604 1.348 1_565 S
C1605 H1657 0.929 . S
H1606 C1600 0.930 . S
H1607 C1603 0.930 . S
C1608 N1609 1.314 . S
C1608 C1610 1.353 . S
C1608 H1614 0.930 . S
N1609 Li1585 1.990 . S
N1609 C1608 1.314 . S
N1609 C1612 1.279 . S
C1610 C1608 1.353 . S
C1610 C1613 1.348 . S
C1610 H1658 0.929 . S
C1611 C1612 1.358 . S
C1611 C1613 1.356 . S
C1611 H1659 0.930 . S
C1612 N1609 1.279 . S
C1612 C1611 1.358 . S
C1612 H1615 0.930 . S
C1613 C1610 1.348 . S
C1613 C1611 1.356 . S
H1614 C1608 0.930 . S
H1615 C1612 0.930 . S
C1616 C1618 1.348 . S
C1616 C1619 1.356 . S
C1616 O1646 1.325 . S
N1617 C1620 1.314 . S
N1617 C1621 1.279 . S
C1618 C1616 1.348 . S
C1618 C1620 1.353 . S
C1618 H1660 0.929 . S
C1619 C1616 1.356 . S
C1619 C1621 1.358 . S
C1619 H1661 0.930 . S
C1620 N1617 1.314 . S
C1620 C1618 1.353 . S
C1620 H1662 0.930 . S
C1621 N1617 1.279 . S
C1621 C1619 1.358 . S
C1621 H1663 0.930 . S
C1622 C1623 1.348 1_545 S
C1622 C1624 1.356 . S
C1622 O1647 1.325 . S
C1623 C1622 1.348 1_565 S
C1623 C1625 1.353 . S
C1623 H1664 0.929 . S
C1624 C1622 1.356 . S
C1624 C1626 1.358 . S
C1624 H1665 0.930 . S
C1625 C1623 1.353 . S
C1625 N1627 1.314 1_565 S
C1625 H1666 0.930 . S
C1626 C1624 1.358 . S
C1626 N1627 1.279 . S
C1626 H1667 0.930 . S
N1627 C1625 1.314 1_545 S
N1627 C1626 1.279 . S
C1628 C1630 1.353 . S
C1628 N1631 1.314 . S
C1628 H1634 0.930 . S
C1629 N1631 1.279 1_565 S
C1629 C1632 1.358 . S
C1629 H1635 0.930 . S
C1630 C1628 1.353 . S
C1630 C1633 1.348 . S
C1630 H1668 0.929 . S
N1631 Li1586 1.990 . S
N1631 C1628 1.314 . S
N1631 C1629 1.279 1_545 S
C1632 C1629 1.358 . S
C1632 C1633 1.356 1_565 S
C1632 H1669 0.930 . S
C1633 C1630 1.348 . S
C1633 C1632 1.356 1_545 S
H1634 C1628 0.930 . S
H1635 C1629 0.930 . S
C1636 N1637 1.314 . S
C1636 C1638 1.353 . S
C1636 H1642 0.930 . S
N1637 Li1587 1.990 . S
N1637 C1636 1.314 . S
N1637 C1640 1.279 . S
C1638 C1636 1.353 . S
C1638 C1641 1.348 . S
C1638 H1670 0.929 . S
C1639 C1640 1.358 . S
C1639 C1641 1.356 . S
C1639 H1671 0.930 . S
C1640 N1637 1.279 . S
C1640 C1639 1.358 . S
C1640 H1643 0.930 . S
C1641 C1638 1.348 . S
C1641 C1639 1.356 . S
H1642 C1636 0.930 . S
H1643 C1640 0.930 . S
O1644 Li1584 1.956 . S
O1644 Li1585 1.970 . S
O1644 Li1586 1.961 . S
O1644 C1588 1.325 . S
O1645 Li1584 1.970 . S
O1645 Li1585 1.956 . S
O1645 Li1587 1.961 1_545 S
O1645 C1594 1.325 . S
O1646 Li1584 1.961 1_565 S
O1646 Li1586 1.956 1_565 S
O1646 Li1587 1.970 . S
O1646 C1616 1.325 . S
O1647 Li1585 1.961 . S
O1647 Li1586 1.970 . S
O1647 Li1587 1.956 1_545 S
O1647 C1622 1.325 . S
H1648 C1590 0.929 . S
H1649 C1591 0.930 . S
H1650 C1592 0.930 . S
H1651 C1593 0.930 . S
H1652 C1595 0.930 1_565 S
H1653 C1597 0.929 . S
H1654 C1598 0.930 1_565 S
H1655 C1599 0.930 . S
H1656 C1602 0.930 . S
H1657 C1605 0.929 . S
H1658 C1610 0.929 . S
H1659 C1611 0.930 . S
H1660 C1618 0.929 . S
H1661 C1619 0.930 . S
H1662 C1620 0.930 . S
H1663 C1621 0.930 . S
H1664 C1623 0.929 . S
H1665 C1624 0.930 . S
H1666 C1625 0.930 . S
H1667 C1626 0.930 . S
H1668 C1630 0.929 . S
H1669 C1632 0.930 . S
H1670 C1638 0.929 . S
H1671 C1639 0.930 . S
Li1672 N1689 1.990 . S
Li1672 O1732 1.956 . S
Li1672 O1733 1.970 . S
Li1672 O1734 1.961 1_554 S
Li1673 N1697 1.990 . S
Li1673 O1732 1.970 . S
Li1673 O1733 1.956 . S
Li1673 O1735 1.961 . S
Li1674 N1719 1.990 . S
Li1674 O1732 1.961 . S
Li1674 O1734 1.956 1_554 S
Li1674 O1735 1.970 . S
Li1675 N1725 1.990 . S
Li1675 O1733 1.961 1_556 S
Li1675 O1734 1.970 . S
Li1675 O1735 1.956 1_556 S
C1676 C1678 1.348 . S
C1676 C1679 1.356 . S
C1676 O1732 1.325 . S
N1677 C1680 1.314 . S
N1677 C1681 1.279 . S
C1678 C1676 1.348 . S
C1678 C1680 1.353 . S
C1678 H1736 0.929 . S
C1679 C1676 1.356 . S
C1679 C1681 1.358 . S
C1679 H1737 0.930 . S
C1680 N1677 1.314 . S
C1680 C1678 1.353 . S
C1680 H1738 0.930 . S
C1681 N1677 1.279 . S
C1681 C1679 1.358 . S
C1681 H1739 0.930 . S
C1682 C1685 1.348 . S
C1682 C1686 1.356 . S
C1682 O1733 1.325 . S
C1683 N1684 1.279 . S
C1683 C1686 1.358 . S
C1683 H1740 0.930 . S
N1684 C1683 1.279 . S
N1684 C1687 1.314 . S
C1685 C1682 1.348 . S
C1685 C1687 1.353 . S
C1685 H1741 0.929 . S
C1686 C1682 1.356 . S
C1686 C1683 1.358 . S
C1686 H1742 0.930 . S
C1687 N1684 1.314 . S
C1687 C1685 1.353 . S
C1687 H1743 0.930 . S
C1688 N1689 1.314 1_556 S
C1688 C1693 1.353 . S
C1688 H1694 0.930 . S
N1689 Li1672 1.990 . S
N1689 C1688 1.314 1_554 S
N1689 C1691 1.279 . S
C1690 C1691 1.358 . S
C1690 C1692 1.356 . S
C1690 H1744 0.930 . S
C1691 N1689 1.279 . S
C1691 C1690 1.358 . S
C1691 H1695 0.930 . S
C1692 C1690 1.356 . S
C1692 C1693 1.348 1_554 S
C1693 C1688 1.353 . S
C1693 C1692 1.348 1_556 S
C1693 H1745 0.929 . S
H1694 C1688 0.930 . S
H1695 C1691 0.930 . S
C1696 N1697 1.314 . S
C1696 C1698 1.353 . S
C1696 H1702 0.930 . S
N1697 Li1673 1.990 . S
N1697 C1696 1.314 . S
N1697 C1700 1.279 . S
C1698 C1696 1.353 . S
C1698 C1701 1.348 . S
C1698 H1746 0.929 . S
C1699 C1700 1.358 . S
C1699 C1701 1.356 . S
C1699 H1747 0.930 . S
C1700 N1697 1.279 . S
C1700 C1699 1.358 . S
C1700 H1703 0.930 . S
C1701 C1698 1.348 . S
C1701 C1699 1.356 . S
H1702 C1696 0.930 . S
H1703 C1700 0.930 . S
C1704 C1706 1.348 . S
C1704 C1707 1.356 . S
C1704 O1734 1.325 . S
N1705 C1708 1.314 . S
N1705 C1709 1.279 . S
C1706 C1704 1.348 . S
C1706 C1708 1.353 . S
C1706 H1748 0.929 . S
C1707 C1704 1.356 . S
C1707 C1709 1.358 . S
C1707 H1749 0.930 . S
C1708 N1705 1.314 . S
C1708 C1706 1.353 . S
C1708 H1750 0.930 . S
C1709 N1705 1.279 . S
C1709 C1707 1.358 . S
C1709 H1751 0.930 . S
C1710 C1711 1.348 . S
C1710 C1712 1.356 . S
C1710 O1735 1.325 . S
C1711 C1710 1.348 . S
C1711 C1713 1.353 . S
C1711 H1752 0.929 1_554 S
C1712 C1710 1.356 . S
C1712 C1714 1.358 . S
C1712 H1753 0.930 . S
C1713 C1711 1.353 . S
C1713 N1715 1.314 . S
C1713 H1754 0.930 1_554 S
C1714 C1712 1.358 . S
C1714 N1715 1.279 . S
C1714 H1755 0.930 . S
N1715 C1713 1.314 . S
N1715 C1714 1.279 . S
C1716 C1718 1.353 . S
C1716 N1719 1.314 . S
C1716 H1722 0.930 . S
C1717 N1719 1.279 1_556 S
C1717 C1720 1.358 . S
C1717 H1723 0.930 . S
C1718 C1716 1.353 . S
C1718 C1721 1.348 . S
C1718 H1756 0.929 . S
N1719 Li1674 1.990 . S
N1719 C1716 1.314 . S
N1719 C1717 1.279 1_554 S
C1720 C1717 1.358 . S
C1720 C1721 1.356 1_556 S
C1720 H1757 0.930 . S
C1721 C1718 1.348 . S
C1721 C1720 1.356 1_554 S
H1722 C1716 0.930 . S
H1723 C1717 0.930 . S
C1724 N1725 1.314 . S
C1724 C1726 1.353 . S
C1724 H1730 0.930 . S
N1725 Li1675 1.990 . S
N1725 C1724 1.314 . S
N1725 C1728 1.279 . S
C1726 C1724 1.353 . S
C1726 C1729 1.348 . S
C1726 H1758 0.929 . S
C1727 C1728 1.358 . S
C1727 C1729 1.356 . S
C1727 H1759 0.930 . S
C1728 N1725 1.279 . S
C1728 C1727 1.358 . S
C1728 H1731 0.930 . S
C1729 C1726 1.348 . S
C1729 C1727 1.356 . S
H1730 C1724 0.930 . S
H1731 C1728 0.930 . S
O1732 Li1672 1.956 . S
O1732 Li1673 1.970 . S
O1732 Li1674 1.961 . S
O1732 C1676 1.325 . S
O1733 Li1672 1.970 . S
O1733 Li1673 1.956 . S
O1733 Li1675 1.961 1_554 S
O1733 C1682 1.325 . S
O1734 Li1672 1.961 1_556 S
O1734 Li1674 1.956 1_556 S
O1734 Li1675 1.970 . S
O1734 C1704 1.325 . S
O1735 Li1673 1.961 . S
O1735 Li1674 1.970 . S
O1735 Li1675 1.956 1_554 S
O1735 C1710 1.325 . S
H1736 C1678 0.929 . S
H1737 C1679 0.930 . S
H1738 C1680 0.930 . S
H1739 C1681 0.930 . S
H1740 C1683 0.930 . S
H1741 C1685 0.929 . S
H1742 C1686 0.930 . S
H1743 C1687 0.930 . S
H1744 C1690 0.930 . S
H1745 C1693 0.929 . S
H1746 C1698 0.929 . S
H1747 C1699 0.930 . S
H1748 C1706 0.929 . S
H1749 C1707 0.930 . S
H1750 C1708 0.930 . S
H1751 C1709 0.930 . S
H1752 C1711 0.929 1_556 S
H1753 C1712 0.930 . S
H1754 C1713 0.930 1_556 S
H1755 C1714 0.930 . S
H1756 C1718 0.929 . S
H1757 C1720 0.930 . S
H1758 C1726 0.929 . S
H1759 C1727 0.930 . S
Li1760 N1777 1.990 . S
Li1760 O1820 1.956 . S
Li1760 O1821 1.970 . S
Li1760 O1822 1.961 . S
Li1761 N1785 1.990 . S
Li1761 O1820 1.970 . S
Li1761 O1821 1.956 . S
Li1761 O1823 1.961 1_554 S
Li1762 N1807 1.990 . S
Li1762 O1820 1.961 1_556 S
Li1762 O1822 1.956 1_556 S
Li1762 O1823 1.970 . S
Li1763 N1813 1.990 . S
Li1763 O1821 1.961 . S
Li1763 O1822 1.970 . S
Li1763 O1823 1.956 1_554 S
C1764 C1766 1.348 . S
C1764 C1767 1.356 1_554 S
C1764 O1820 1.325 . S
N1765 C1768 1.314 . S
N1765 C1769 1.275 1_554 S
C1766 C1764 1.348 . S
C1766 C1768 1.353 . S
C1766 H1824 0.929 . S
C1767 C1764 1.356 1_556 S
C1767 C1769 1.359 . S
C1767 H1825 0.930 . S
C1768 N1765 1.314 . S
C1768 C1766 1.353 . S
C1768 H1826 0.930 . S
C1769 N1765 1.275 1_556 S
C1769 C1767 1.359 . S
C1769 H1827 0.935 . S
C1770 C1773 1.348 . S
C1770 C1774 1.356 . S
C1770 O1821 1.325 . S
C1771 N1772 1.279 . S
C1771 C1774 1.358 . S
C1771 H1828 0.930 . S
N1772 C1771 1.279 . S
N1772 C1775 1.314 . S
C1773 C1770 1.348 . S
C1773 C1775 1.353 . S
C1773 H1829 0.929 . S
C1774 C1770 1.356 . S
C1774 C1771 1.358 . S
C1774 H1830 0.930 . S
C1775 N1772 1.314 . S
C1775 C1773 1.353 . S
C1775 H1831 0.930 . S
C1776 N1777 1.314 . S
C1776 C1781 1.353 . S
C1776 H1782 0.930 . S
N1777 Li1760 1.990 . S
N1777 C1776 1.314 . S
N1777 C1779 1.279 . S
C1778 C1779 1.358 . S
C1778 C1780 1.356 . S
C1778 H1832 0.930 . S
C1779 N1777 1.279 . S
C1779 C1778 1.358 . S
C1779 H1783 0.930 . S
C1780 C1778 1.356 . S
C1780 C1781 1.348 . S
C1781 C1776 1.353 . S
C1781 C1780 1.348 . S
C1781 H1833 0.929 . S
H1782 C1776 0.930 . S
H1783 C1779 0.930 . S
C1784 N1785 1.314 1_556 S
C1784 C1786 1.353 . S
C1784 H1790 0.930 . S
N1785 Li1761 1.990 . S
N1785 C1784 1.314 1_554 S
N1785 C1788 1.279 . S
C1786 C1784 1.353 . S
C1786 C1789 1.348 1_556 S
C1786 H1834 0.929 . S
C1787 C1788 1.358 . S
C1787 C1789 1.356 . S
C1787 H1835 0.930 . S
C1788 N1785 1.279 . S
C1788 C1787 1.358 . S
C1788 H1791 0.930 . S
C1789 C1786 1.348 1_554 S
C1789 C1787 1.356 . S
H1790 C1784 0.930 . S
H1791 C1788 0.930 . S
C1792 C1794 1.348 1_554 S
C1792 C1795 1.356 . S
C1792 O1822 1.325 . S
N1793 C1796 1.314 1_554 S
N1793 C1797 1.279 . S
C1794 C1792 1.348 1_556 S
C1794 C1796 1.353 . S
C1794 H1836 0.929 . S
C1795 C1792 1.356 . S
C1795 C1797 1.358 . S
C1795 H1837 0.930 . S
C1796 N1793 1.314 1_556 S
C1796 C1794 1.353 . S
C1796 H1838 0.930 . S
C1797 N1793 1.279 . S
C1797 C1795 1.358 . S
C1797 H1839 0.930 . S
C1798 C1799 1.348 . S
C1798 C1800 1.356 . S
C1798 O1823 1.325 . S
C1799 C1798 1.348 . S
C1799 C1801 1.353 . S
C1799 H1840 0.929 . S
C1800 C1798 1.356 . S
C1800 C1802 1.358 . S
C1800 H1841 0.930 . S
C1801 C1799 1.353 . S
C1801 N1803 1.314 . S
C1801 H1842 0.930 . S
C1802 C1800 1.358 . S
C1802 N1803 1.279 . S
C1802 H1843 0.930 . S
N1803 C1801 1.314 . S
N1803 C1802 1.279 . S
C1804 C1806 1.353 . S
C1804 N1807 1.314 . S
C1804 H1810 0.930 . S
C1805 N1807 1.279 . S
C1805 C1808 1.358 . S
C1805 H1811 0.930 . S
C1806 C1804 1.353 . S
C1806 C1809 1.348 . S
C1806 H1844 0.929 . S
N1807 Li1762 1.990 . S
N1807 C1804 1.314 . S
N1807 C1805 1.279 . S
C1808 C1805 1.358 . S
C1808 C1809 1.356 . S
C1808 H1845 0.930 . S
C1809 C1806 1.348 . S
C1809 C1808 1.356 . S
H1810 C1804 0.930 . S
H1811 C1805 0.930 . S
C1812 N1813 1.314 . S
C1812 C1814 1.353 . S
C1812 H1818 0.930 . S
N1813 Li1763 1.990 . S
N1813 C1812 1.314 . S
N1813 C1816 1.279 1_554 S
C1814 C1812 1.353 . S
C1814 C1817 1.348 . S
C1814 H1846 0.929 . S
C1815 C1816 1.358 . S
C1815 C1817 1.356 1_556 S
C1815 H1847 0.930 . S
C1816 N1813 1.279 1_556 S
C1816 C1815 1.358 . S
C1816 H1819 0.930 . S
C1817 C1814 1.348 . S
C1817 C1815 1.356 1_554 S
H1818 C1812 0.930 . S
H1819 C1816 0.930 . S
O1820 Li1760 1.956 . S
O1820 Li1761 1.970 . S
O1820 Li1762 1.961 1_554 S
O1820 C1764 1.325 . S
O1821 Li1760 1.970 . S
O1821 Li1761 1.956 . S
O1821 Li1763 1.961 . S
O1821 C1770 1.325 . S
O1822 Li1760 1.961 . S
O1822 Li1762 1.956 1_554 S
O1822 Li1763 1.970 . S
O1822 C1792 1.325 . S
O1823 Li1761 1.961 1_556 S
O1823 Li1762 1.970 . S
O1823 Li1763 1.956 1_556 S
O1823 C1798 1.325 . S
H1824 C1766 0.929 . S
H1825 C1767 0.930 . S
H1826 C1768 0.930 . S
H1827 C1769 0.935 . S
H1828 C1771 0.930 . S
H1829 C1773 0.929 . S
H1830 C1774 0.930 . S
H1831 C1775 0.930 . S
H1832 C1778 0.930 . S
H1833 C1781 0.929 . S
H1834 C1786 0.929 . S
H1835 C1787 0.930 . S
H1836 C1794 0.929 . S
H1837 C1795 0.930 . S
H1838 C1796 0.930 . S
H1839 C1797 0.930 . S
H1840 C1799 0.929 . S
H1841 C1800 0.930 . S
H1842 C1801 0.930 . S
H1843 C1802 0.930 . S
H1844 C1806 0.929 . S
H1845 C1808 0.930 . S
H1846 C1814 0.929 . S
H1847 C1815 0.930 . S
Li1848 N1865 1.990 . S
Li1848 O1908 1.956 . S
Li1848 O1909 1.970 . S
Li1848 O1910 1.961 . S
Li1849 N1873 1.990 . S
Li1849 O1908 1.970 . S
Li1849 O1909 1.956 . S
Li1849 O1911 1.961 . S
Li1850 N1895 1.990 . S
Li1850 O1908 1.961 . S
Li1850 O1910 1.956 . S
Li1850 O1911 1.970 . S
Li1851 N1901 1.990 . S
Li1851 O1909 1.961 . S
Li1851 O1910 1.970 . S
Li1851 O1911 1.956 . S
C1852 C1854 1.348 . S
C1852 C1855 1.356 . S
C1852 O1908 1.325 . S
N1853 C1856 1.314 . S
N1853 C1857 1.279 . S
C1854 C1852 1.348 . S
C1854 C1856 1.353 . S
C1854 H1912 0.929 . S
C1855 C1852 1.356 . S
C1855 C1857 1.358 . S
C1855 H1913 0.930 . S
C1856 N1853 1.314 . S
C1856 C1854 1.353 . S
C1856 H1914 0.930 . S
C1857 N1853 1.279 . S
C1857 C1855 1.358 . S
C1857 H1915 0.930 . S
C1858 C1861 1.348 . S
C1858 C1862 1.356 . S
C1858 O1909 1.325 . S
C1859 N1860 1.279 . S
C1859 C1862 1.358 . S
C1859 H1916 0.930 . S
N1860 C1859 1.279 . S
N1860 C1863 1.314 . S
C1861 C1858 1.348 . S
C1861 C1863 1.353 . S
C1861 H1917 0.929 . S
C1862 C1858 1.356 . S
C1862 C1859 1.358 . S
C1862 H1918 0.930 . S
C1863 N1860 1.314 . S
C1863 C1861 1.353 . S
C1863 H1919 0.930 . S
C1864 N1865 1.314 . S
C1864 C1869 1.353 . S
C1864 H1870 0.930 . S
N1865 Li1848 1.990 . S
N1865 C1864 1.314 . S
N1865 C1867 1.279 . S
C1866 C1867 1.358 . S
C1866 C1868 1.356 . S
C1866 H1920 0.930 . S
C1867 N1865 1.279 . S
C1867 C1866 1.358 . S
C1867 H1871 0.930 . S
C1868 C1866 1.356 . S
C1868 C1869 1.348 . S
C1869 C1864 1.353 . S
C1869 C1868 1.348 . S
C1869 H1921 0.929 . S
H1870 C1864 0.930 . S
H1871 C1867 0.930 . S
C1872 N1873 1.314 . S
C1872 C1874 1.353 . S
C1872 H1878 0.930 . S
N1873 Li1849 1.990 . S
N1873 C1872 1.314 . S
N1873 C1876 1.279 . S
C1874 C1872 1.353 . S
C1874 C1877 1.348 . S
C1874 H1922 0.929 . S
C1875 C1876 1.358 . S
C1875 C1877 1.356 . S
C1875 H1923 0.930 . S
C1876 N1873 1.279 . S
C1876 C1875 1.358 . S
C1876 H1879 0.930 . S
C1877 C1874 1.348 . S
C1877 C1875 1.356 . S
H1878 C1872 0.930 . S
H1879 C1876 0.930 . S
C1880 C1882 1.348 . S
C1880 C1883 1.356 . S
C1880 O1910 1.325 . S
N1881 C1884 1.314 . S
N1881 C1885 1.279 . S
C1882 C1880 1.348 . S
C1882 C1884 1.353 . S
C1882 H1924 0.929 . S
C1883 C1880 1.356 . S
C1883 C1885 1.358 . S
C1883 H1925 0.930 . S
C1884 N1881 1.314 . S
C1884 C1882 1.353 . S
C1884 H1926 0.930 . S
C1885 N1881 1.279 . S
C1885 C1883 1.358 . S
C1885 H1927 0.930 . S
C1886 C1887 1.348 . S
C1886 C1888 1.356 . S
C1886 O1911 1.325 . S
C1887 C1886 1.348 . S
C1887 C1889 1.353 . S
C1887 H1928 0.929 . S
C1888 C1886 1.356 . S
C1888 C1890 1.358 . S
C1888 H1929 0.930 . S
C1889 C1887 1.353 . S
C1889 N1891 1.314 . S
C1889 H1930 0.930 . S
C1890 C1888 1.358 . S
C1890 N1891 1.279 . S
C1890 H1931 0.930 . S
N1891 C1889 1.314 . S
N1891 C1890 1.279 . S
C1892 C1894 1.353 . S
C1892 N1895 1.314 . S
C1892 H1898 0.930 . S
C1893 N1895 1.279 . S
C1893 C1896 1.358 . S
C1893 H1899 0.930 . S
C1894 C1892 1.353 . S
C1894 C1897 1.348 . S
C1894 H1932 0.929 . S
N1895 Li1850 1.990 . S
N1895 C1892 1.314 . S
N1895 C1893 1.279 . S
C1896 C1893 1.358 . S
C1896 C1897 1.356 . S
C1896 H1933 0.930 . S
C1897 C1894 1.348 . S
C1897 C1896 1.356 . S
H1898 C1892 0.930 . S
H1899 C1893 0.930 . S
C1900 N1901 1.314 . S
C1900 C1902 1.353 . S
C1900 H1906 0.930 . S
N1901 Li1851 1.990 . S
N1901 C1900 1.314 . S
N1901 C1904 1.279 . S
C1902 C1900 1.353 . S
C1902 C1905 1.348 . S
C1902 H1934 0.929 . S
C1903 C1904 1.358 . S
C1903 C1905 1.356 . S
C1903 H1935 0.930 . S
C1904 N1901 1.279 . S
C1904 C1903 1.358 . S
C1904 H1907 0.930 . S
C1905 C1902 1.348 . S
C1905 C1903 1.356 . S
H1906 C1900 0.930 . S
H1907 C1904 0.930 . S
O1908 Li1848 1.956 . S
O1908 Li1849 1.970 . S
O1908 Li1850 1.961 . S
O1908 C1852 1.325 . S
O1909 Li1848 1.970 . S
O1909 Li1849 1.956 . S
O1909 Li1851 1.961 . S
O1909 C1858 1.325 . S
O1910 Li1848 1.961 . S
O1910 Li1850 1.956 . S
O1910 Li1851 1.970 . S
O1910 C1880 1.325 . S
O1911 Li1849 1.961 . S
O1911 Li1850 1.970 . S
O1911 Li1851 1.956 . S
O1911 C1886 1.325 . S
H1912 C1854 0.929 . S
H1913 C1855 0.930 . S
H1914 C1856 0.930 . S
H1915 C1857 0.930 . S
H1916 C1859 0.930 . S
H1917 C1861 0.929 . S
H1918 C1862 0.930 . S
H1919 C1863 0.930 . S
H1920 C1866 0.930 . S
H1921 C1869 0.929 . S
H1922 C1874 0.929 . S
H1923 C1875 0.930 . S
H1924 C1882 0.929 . S
H1925 C1883 0.930 . S
H1926 C1884 0.930 . S
H1927 C1885 0.930 . S
H1928 C1887 0.929 . S
H1929 C1888 0.930 . S
H1930 C1889 0.930 . S
H1931 C1890 0.930 . S
H1932 C1894 0.929 . S
H1933 C1896 0.930 . S
H1934 C1902 0.929 . S
H1935 C1903 0.930 . S
Li1936 N1953 1.990 . S
Li1936 O1996 1.956 . S
Li1936 O1997 1.970 . S
Li1936 O1998 1.961 . S
Li1937 N1961 1.990 . S
Li1937 O1996 1.970 . S
Li1937 O1997 1.956 . S
Li1937 O1999 1.961 . S
Li1938 N1983 1.990 . S
Li1938 O1996 1.961 . S
Li1938 O1998 1.956 . S
Li1938 O1999 1.970 . S
Li1939 N1989 1.990 . S
Li1939 O1997 1.961 . S
Li1939 O1998 1.970 . S
Li1939 O1999 1.956 . S
C1940 C1942 1.348 . S
C1940 C1943 1.356 . S
C1940 O1996 1.325 . S
N1941 C1944 1.314 . S
N1941 C1945 1.279 . S
C1942 C1940 1.348 . S
C1942 C1944 1.353 . S
C1942 H2000 0.929 . S
C1943 C1940 1.356 . S
C1943 C1945 1.358 . S
C1943 H2001 0.930 . S
C1944 N1941 1.314 . S
C1944 C1942 1.353 . S
C1944 H2002 0.930 . S
C1945 N1941 1.279 . S
C1945 C1943 1.358 . S
C1945 H2003 0.930 . S
C1946 C1949 1.348 . S
C1946 C1950 1.356 . S
C1946 O1997 1.325 . S
C1947 N1948 1.279 . S
C1947 C1950 1.358 . S
C1947 H2004 0.930 . S
N1948 C1947 1.279 . S
N1948 C1951 1.314 . S
C1949 C1946 1.348 . S
C1949 C1951 1.353 . S
C1949 H2005 0.929 . S
C1950 C1946 1.356 . S
C1950 C1947 1.358 . S
C1950 H2006 0.930 . S
C1951 N1948 1.314 . S
C1951 C1949 1.353 . S
C1951 H2007 0.930 . S
C1952 N1953 1.314 . S
C1952 C1957 1.353 . S
C1952 H1958 0.930 . S
N1953 Li1936 1.990 . S
N1953 C1952 1.314 . S
N1953 C1955 1.279 . S
C1954 C1955 1.358 . S
C1954 C1956 1.356 . S
C1954 H2008 0.930 . S
C1955 N1953 1.279 . S
C1955 C1954 1.358 . S
C1955 H1959 0.930 . S
C1956 C1954 1.356 . S
C1956 C1957 1.348 . S
C1957 C1952 1.353 . S
C1957 C1956 1.348 . S
C1957 H2009 0.929 . S
H1958 C1952 0.930 . S
H1959 C1955 0.930 . S
C1960 N1961 1.314 . S
C1960 C1962 1.353 . S
C1960 H1966 0.930 . S
N1961 Li1937 1.990 . S
N1961 C1960 1.314 . S
N1961 C1964 1.279 . S
C1962 C1960 1.353 . S
C1962 C1965 1.348 . S
C1962 H2010 0.929 . S
C1963 C1964 1.358 . S
C1963 C1965 1.356 . S
C1963 H2011 0.930 . S
C1964 N1961 1.279 . S
C1964 C1963 1.358 . S
C1964 H1967 0.930 . S
C1965 C1962 1.348 . S
C1965 C1963 1.356 . S
H1966 C1960 0.930 . S
H1967 C1964 0.930 . S
C1968 C1970 1.348 . S
C1968 C1971 1.356 . S
C1968 O1998 1.325 . S
N1969 C1972 1.314 . S
N1969 C1973 1.279 . S
C1970 C1968 1.348 . S
C1970 C1972 1.353 . S
C1970 H2012 0.929 . S
C1971 C1968 1.356 . S
C1971 C1973 1.358 . S
C1971 H2013 0.930 . S
C1972 N1969 1.314 . S
C1972 C1970 1.353 . S
C1972 H2014 0.930 . S
C1973 N1969 1.279 . S
C1973 C1971 1.358 . S
C1973 H2015 0.930 . S
C1974 C1975 1.348 . S
C1974 C1976 1.356 . S
C1974 O1999 1.325 . S
C1975 C1974 1.348 . S
C1975 C1977 1.353 . S
C1975 H2016 0.929 . S
C1976 C1974 1.356 . S
C1976 C1978 1.358 . S
C1976 H2017 0.930 . S
C1977 C1975 1.353 . S
C1977 N1979 1.314 . S
C1977 H2018 0.930 . S
C1978 C1976 1.358 . S
C1978 N1979 1.279 . S
C1978 H2019 0.930 . S
N1979 C1977 1.314 . S
N1979 C1978 1.279 . S
C1980 C1982 1.353 . S
C1980 N1983 1.314 . S
C1980 H1986 0.930 . S
C1981 N1983 1.279 . S
C1981 C1984 1.358 . S
C1981 H1987 0.930 . S
C1982 C1980 1.353 . S
C1982 C1985 1.348 . S
C1982 H2020 0.929 . S
N1983 Li1938 1.990 . S
N1983 C1980 1.314 . S
N1983 C1981 1.279 . S
C1984 C1981 1.358 . S
C1984 C1985 1.356 . S
C1984 H2021 0.930 . S
C1985 C1982 1.348 . S
C1985 C1984 1.356 . S
H1986 C1980 0.930 . S
H1987 C1981 0.930 . S
C1988 N1989 1.314 . S
C1988 C1990 1.353 . S
C1988 H1994 0.930 . S
N1989 Li1939 1.990 . S
N1989 C1988 1.314 . S
N1989 C1992 1.279 . S
C1990 C1988 1.353 . S
C1990 C1993 1.348 . S
C1990 H2022 0.929 . S
C1991 C1992 1.358 . S
C1991 C1993 1.356 . S
C1991 H2023 0.930 . S
C1992 N1989 1.279 . S
C1992 C1991 1.358 . S
C1992 H1995 0.930 . S
C1993 C1990 1.348 . S
C1993 C1991 1.356 . S
H1994 C1988 0.930 . S
H1995 C1992 0.930 . S
O1996 Li1936 1.956 . S
O1996 Li1937 1.970 . S
O1996 Li1938 1.961 . S
O1996 C1940 1.325 . S
O1997 Li1936 1.970 . S
O1997 Li1937 1.956 . S
O1997 Li1939 1.961 . S
O1997 C1946 1.325 . S
O1998 Li1936 1.961 . S
O1998 Li1938 1.956 . S
O1998 Li1939 1.970 . S
O1998 C1968 1.325 . S
O1999 Li1937 1.961 . S
O1999 Li1938 1.970 . S
O1999 Li1939 1.956 . S
O1999 C1974 1.325 . S
H2000 C1942 0.929 . S
H2001 C1943 0.930 . S
H2002 C1944 0.930 . S
H2003 C1945 0.930 . S
H2004 C1947 0.930 . S
H2005 C1949 0.929 . S
H2006 C1950 0.930 . S
H2007 C1951 0.930 . S
H2008 C1954 0.930 . S
H2009 C1957 0.929 . S
H2010 C1962 0.929 . S
H2011 C1963 0.930 . S
H2012 C1970 0.929 . S
H2013 C1971 0.930 . S
H2014 C1972 0.930 . S
H2015 C1973 0.930 . S
H2016 C1975 0.929 . S
H2017 C1976 0.930 . S
H2018 C1977 0.930 . S
H2019 C1978 0.930 . S
H2020 C1982 0.929 . S
H2021 C1984 0.930 . S
H2022 C1990 0.929 . S
H2023 C1991 0.930 . S
Li2024 N2041 1.990 . S
Li2024 O2084 1.956 . S
Li2024 O2085 1.970 . S
Li2024 O2086 1.961 . S
Li2025 N2049 1.990 . S
Li2025 O2084 1.970 . S
Li2025 O2085 1.956 . S
Li2025 O2087 1.961 . S
Li2026 N2071 1.990 . S
Li2026 O2084 1.961 . S
Li2026 O2086 1.956 . S
Li2026 O2087 1.970 . S
Li2027 N2077 1.990 . S
Li2027 O2085 1.961 . S
Li2027 O2086 1.970 . S
Li2027 O2087 1.956 . S
C2028 C2030 1.348 . S
C2028 C2031 1.356 . S
C2028 O2084 1.325 . S
N2029 C2032 1.314 . S
N2029 C2033 1.279 . S
C2030 C2028 1.348 . S
C2030 C2032 1.353 . S
C2030 H2088 0.929 . S
C2031 C2028 1.356 . S
C2031 C2033 1.358 . S
C2031 H2089 0.930 . S
C2032 N2029 1.314 . S
C2032 C2030 1.353 . S
C2032 H2090 0.930 . S
C2033 N2029 1.279 . S
C2033 C2031 1.358 . S
C2033 H2091 0.930 . S
C2034 C2037 1.348 . S
C2034 C2038 1.356 . S
C2034 O2085 1.325 . S
C2035 N2036 1.279 . S
C2035 C2038 1.358 . S
C2035 H2092 0.930 . S
N2036 C2035 1.279 . S
N2036 C2039 1.314 . S
C2037 C2034 1.348 . S
C2037 C2039 1.353 . S
C2037 H2093 0.929 . S
C2038 C2034 1.356 . S
C2038 C2035 1.358 . S
C2038 H2094 0.930 . S
C2039 N2036 1.314 . S
C2039 C2037 1.353 . S
C2039 H2095 0.930 . S
C2040 N2041 1.314 . S
C2040 C2045 1.353 . S
C2040 H2046 0.930 . S
N2041 Li2024 1.990 . S
N2041 C2040 1.314 . S
N2041 C2043 1.279 . S
C2042 C2043 1.358 . S
C2042 C2044 1.356 . S
C2042 H2096 0.930 . S
C2043 N2041 1.279 . S
C2043 C2042 1.358 . S
C2043 H2047 0.930 . S
C2044 C2042 1.356 . S
C2044 C2045 1.348 . S
C2045 C2040 1.353 . S
C2045 C2044 1.348 . S
C2045 H2097 0.929 . S
H2046 C2040 0.930 . S
H2047 C2043 0.930 . S
C2048 N2049 1.314 . S
C2048 C2050 1.353 . S
C2048 H2054 0.930 . S
N2049 Li2025 1.990 . S
N2049 C2048 1.314 . S
N2049 C2052 1.279 . S
C2050 C2048 1.353 . S
C2050 C2053 1.348 . S
C2050 H2098 0.929 . S
C2051 C2052 1.358 . S
C2051 C2053 1.356 . S
C2051 H2099 0.930 . S
C2052 N2049 1.279 . S
C2052 C2051 1.358 . S
C2052 H2055 0.930 . S
C2053 C2050 1.348 . S
C2053 C2051 1.356 . S
H2054 C2048 0.930 . S
H2055 C2052 0.930 . S
C2056 C2058 1.348 . S
C2056 C2059 1.356 . S
C2056 O2086 1.325 . S
N2057 C2060 1.314 . S
N2057 C2061 1.279 . S
C2058 C2056 1.348 . S
C2058 C2060 1.353 . S
C2058 H2100 0.929 . S
C2059 C2056 1.356 . S
C2059 C2061 1.358 . S
C2059 H2101 0.930 . S
C2060 N2057 1.314 . S
C2060 C2058 1.353 . S
C2060 H2102 0.930 . S
C2061 N2057 1.279 . S
C2061 C2059 1.358 . S
C2061 H2103 0.930 . S
C2062 C2063 1.348 . S
C2062 C2064 1.356 . S
C2062 O2087 1.325 . S
C2063 C2062 1.348 . S
C2063 C2065 1.353 . S
C2063 H2104 0.929 . S
C2064 C2062 1.356 . S
C2064 C2066 1.358 . S
C2064 H2105 0.930 . S
C2065 C2063 1.353 . S
C2065 N2067 1.314 . S
C2065 H2106 0.930 . S
C2066 C2064 1.358 . S
C2066 N2067 1.279 . S
C2066 H2107 0.930 . S
N2067 C2065 1.314 . S
N2067 C2066 1.279 . S
C2068 C2070 1.353 . S
C2068 N2071 1.314 . S
C2068 H2074 0.930 . S
C2069 N2071 1.279 . S
C2069 C2072 1.358 . S
C2069 H2075 0.930 . S
C2070 C2068 1.353 . S
C2070 C2073 1.348 . S
C2070 H2108 0.929 . S
N2071 Li2026 1.990 . S
N2071 C2068 1.314 . S
N2071 C2069 1.279 . S
C2072 C2069 1.358 . S
C2072 C2073 1.356 . S
C2072 H2109 0.930 . S
C2073 C2070 1.348 . S
C2073 C2072 1.356 . S
H2074 C2068 0.930 . S
H2075 C2069 0.930 . S
C2076 N2077 1.314 . S
C2076 C2078 1.353 . S
C2076 H2082 0.930 . S
N2077 Li2027 1.990 . S
N2077 C2076 1.314 . S
N2077 C2080 1.279 . S
C2078 C2076 1.353 . S
C2078 C2081 1.348 . S
C2078 H2110 0.929 . S
C2079 C2080 1.358 . S
C2079 C2081 1.356 . S
C2079 H2111 0.930 . S
C2080 N2077 1.279 . S
C2080 C2079 1.358 . S
C2080 H2083 0.930 . S
C2081 C2078 1.348 . S
C2081 C2079 1.356 . S
H2082 C2076 0.930 . S
H2083 C2080 0.930 . S
O2084 Li2024 1.956 . S
O2084 Li2025 1.970 . S
O2084 Li2026 1.961 . S
O2084 C2028 1.325 . S
O2085 Li2024 1.970 . S
O2085 Li2025 1.956 . S
O2085 Li2027 1.961 . S
O2085 C2034 1.325 . S
O2086 Li2024 1.961 . S
O2086 Li2026 1.956 . S
O2086 Li2027 1.970 . S
O2086 C2056 1.325 . S
O2087 Li2025 1.961 . S
O2087 Li2026 1.970 . S
O2087 Li2027 1.956 . S
O2087 C2062 1.325 . S
H2088 C2030 0.929 . S
H2089 C2031 0.930 . S
H2090 C2032 0.930 . S
H2091 C2033 0.930 . S
H2092 C2035 0.930 . S
H2093 C2037 0.929 . S
H2094 C2038 0.930 . S
H2095 C2039 0.930 . S
H2096 C2042 0.930 . S
H2097 C2045 0.929 . S
H2098 C2050 0.929 . S
H2099 C2051 0.930 . S
H2100 C2058 0.929 . S
H2101 C2059 0.930 . S
H2102 C2060 0.930 . S
H2103 C2061 0.930 . S
H2104 C2063 0.929 . S
H2105 C2064 0.930 . S
H2106 C2065 0.930 . S
H2107 C2066 0.930 . S
H2108 C2070 0.929 . S
H2109 C2072 0.930 . S
H2110 C2078 0.929 . S
H2111 C2079 0.930 . S
O2112 Mn2113 2.163 . S
O2112 C2126 1.244 . S
Mn2113 O2112 2.163 . S
Mn2113 O2116 2.160 1_445 S
Mn2113 O2117 2.221 1_455 S
Mn2113 O2119 2.163 1_454 S
Mn2113 O2121 2.160 1_545 S
Mn2113 O2131 2.221 1_545 S
O2114 Mn2115 2.061 1_556 S
O2114 C2126 1.256 1_566 S
Mn2115 O2114 2.061 1_554 S
Mn2115 O2122 2.089 . S
Mn2115 O2131 2.290 . S
Mn2115 O2132 2.251 1_554 S
O2116 Mn2113 2.160 1_665 S
O2116 C2127 1.239 . S
O2117 Mn2113 2.221 1_655 S
O2117 Mn2118 2.275 1_554 S
O2117 C2128 1.278 . S
Mn2118 O2117 2.275 1_556 S
Mn2118 O2120 2.085 1_556 S
Mn2118 O2123 2.246 1_556 S
Mn2118 O2124 2.115 . S
O2119 Mn2113 2.163 1_656 S
O2119 C2129 1.244 . S
O2120 Mn2118 2.085 1_554 S
O2120 C2127 1.256 1_545 S
O2121 Mn2113 2.160 1_565 S
O2121 C2130 1.239 . S
O2122 Mn2115 2.089 . S
O2122 C2130 1.256 . S
O2123 Mn2118 2.246 1_554 S
O2123 C2128 1.241 . S
O2124 Mn2118 2.115 . S
O2124 C2129 1.256 . S
C2125 O2131 1.278 1_556 S
C2125 O2132 1.241 . S
C2126 O2112 1.244 . S
C2126 O2114 1.256 1_544 S
C2127 O2116 1.239 . S
C2127 O2120 1.256 1_565 S
C2128 O2117 1.278 . S
C2128 O2123 1.241 . S
C2129 O2119 1.244 . S
C2129 O2124 1.256 . S
C2130 O2121 1.239 . S
C2130 O2122 1.256 . S
O2131 Mn2113 2.221 1_565 S
O2131 Mn2115 2.290 . S
O2131 C2125 1.278 1_554 S
O2132 Mn2115 2.251 1_556 S
O2132 C2125 1.241 . S
O2133 Mn2134 2.163 . S
O2133 C2147 1.244 . S
Mn2134 O2133 2.163 . S
Mn2134 O2137 2.160 . S
Mn2134 O2138 2.221 . S
Mn2134 O2140 2.163 . S
Mn2134 O2142 2.160 . S
Mn2134 O2152 2.221 . S
O2135 Mn2136 2.087 . S
O2135 C2147 1.256 . S
Mn2136 O2135 2.087 . S
Mn2136 O2143 2.089 . S
Mn2136 O2152 2.290 . S
Mn2136 O2153 2.251 . S
O2137 Mn2134 2.160 . S
O2137 C2148 1.239 . S
O2138 Mn2134 2.221 . S
O2138 Mn2139 2.290 . S
O2138 C2149 1.278 . S
Mn2139 O2138 2.290 . S
Mn2139 O2141 2.089 . S
Mn2139 O2144 2.251 . S
Mn2139 O2145 2.087 . S
O2140 Mn2134 2.163 . S
O2140 C2150 1.244 . S
O2141 Mn2139 2.089 . S
O2141 C2148 1.256 . S
O2142 Mn2134 2.160 . S
O2142 C2151 1.239 . S
O2143 Mn2136 2.089 . S
O2143 C2151 1.256 . S
O2144 Mn2139 2.251 . S
O2144 C2149 1.241 . S
O2145 Mn2139 2.087 . S
O2145 C2150 1.256 . S
C2146 O2152 1.278 . S
C2146 O2153 1.241 . S
C2147 O2133 1.244 . S
C2147 O2135 1.256 . S
C2148 O2137 1.239 . S
C2148 O2141 1.256 . S
C2149 O2138 1.278 . S
C2149 O2144 1.241 . S
C2150 O2140 1.244 . S
C2150 O2145 1.256 . S
C2151 O2142 1.239 . S
C2151 O2143 1.256 . S
O2152 Mn2134 2.221 . S
O2152 Mn2136 2.290 . S
O2152 C2146 1.278 . S
O2153 Mn2136 2.251 . S
O2153 C2146 1.241 . S
O2154 Mn2155 2.163 1_565 S
O2154 C2168 1.244 . S
Mn2155 O2154 2.163 1_545 S
Mn2155 O2158 2.160 . S
Mn2155 O2159 2.221 1_545 S
Mn2155 O2161 2.163 . S
Mn2155 O2163 2.160 . S
Mn2155 O2173 2.221 . S
O2156 Mn2157 2.087 . S
O2156 C2168 1.256 1_545 S
Mn2157 O2156 2.087 . S
Mn2157 O2164 2.089 . S
Mn2157 O2173 2.290 . S
Mn2157 O2174 2.251 . S
O2158 Mn2155 2.160 . S
O2158 C2169 1.239 . S
O2159 Mn2155 2.221 1_565 S
O2159 Mn2160 2.290 . S
O2159 C2170 1.278 . S
Mn2160 O2159 2.290 . S
Mn2160 O2162 2.089 1_565 S
Mn2160 O2165 2.251 . S
Mn2160 O2166 2.087 . S
O2161 Mn2155 2.163 . S
O2161 C2171 1.244 1_545 S
O2162 Mn2160 2.089 1_545 S
O2162 C2169 1.256 . S
O2163 Mn2155 2.160 . S
O2163 C2172 1.239 . S
O2164 Mn2157 2.089 . S
O2164 C2172 1.256 . S
O2165 Mn2160 2.251 . S
O2165 C2170 1.241 . S
O2166 Mn2160 2.087 . S
O2166 C2171 1.256 . S
C2167 O2173 1.278 . S
C2167 O2174 1.241 . S
C2168 O2154 1.244 . S
C2168 O2156 1.256 1_565 S
C2169 O2158 1.239 . S
C2169 O2162 1.256 . S
C2170 O2159 1.278 . S
C2170 O2165 1.241 . S
C2171 O2161 1.244 1_565 S
C2171 O2166 1.256 . S
C2172 O2163 1.239 . S
C2172 O2164 1.256 . S
O2173 Mn2155 2.221 . S
O2173 Mn2157 2.290 . S
O2173 C2167 1.278 . S
O2174 Mn2157 2.251 . S
O2174 C2167 1.241 . S
O2175 Mn2176 2.163 . S
O2175 C2189 1.244 . S
Mn2176 O2175 2.163 . S
Mn2176 O2179 2.160 . S
Mn2176 O2180 2.221 . S
Mn2176 O2182 2.163 . S
Mn2176 O2184 2.160 . S
Mn2176 O2194 2.221 . S
O2177 Mn2178 2.087 . S
O2177 C2189 1.256 . S
Mn2178 O2177 2.087 . S
Mn2178 O2185 2.089 . S
Mn2178 O2194 2.290 . S
Mn2178 O2195 2.251 . S
O2179 Mn2176 2.160 . S
O2179 C2190 1.239 . S
O2180 Mn2176 2.221 . S
O2180 Mn2181 2.290 . S
O2180 C2191 1.278 . S
Mn2181 O2180 2.290 . S
Mn2181 O2183 2.089 . S
Mn2181 O2186 2.251 . S
Mn2181 O2187 2.087 . S
O2182 Mn2176 2.163 . S
O2182 C2192 1.244 . S
O2183 Mn2181 2.089 . S
O2183 C2190 1.256 . S
O2184 Mn2176 2.160 . S
O2184 C2193 1.239 . S
O2185 Mn2178 2.089 . S
O2185 C2193 1.256 . S
O2186 Mn2181 2.251 . S
O2186 C2191 1.241 . S
O2187 Mn2181 2.087 . S
O2187 C2192 1.256 . S
C2188 O2194 1.278 . S
C2188 O2195 1.241 . S
C2189 O2175 1.244 . S
C2189 O2177 1.256 . S
C2190 O2179 1.239 . S
C2190 O2183 1.256 . S
C2191 O2180 1.278 . S
C2191 O2186 1.241 . S
C2192 O2182 1.244 . S
C2192 O2187 1.256 . S
C2193 O2184 1.239 . S
C2193 O2185 1.256 . S
O2194 Mn2176 2.221 . S
O2194 Mn2178 2.290 . S
O2194 C2188 1.278 . S
O2195 Mn2178 2.251 . S
O2195 C2188 1.241 . S
O2196 Mn2197 2.163 1_565 S
O2196 C2210 1.244 . S
Mn2197 O2196 2.163 1_545 S
Mn2197 O2200 2.160 . S
Mn2197 O2201 2.221 . S
Mn2197 O2203 2.163 1_455 S
Mn2197 O2205 2.160 1_545 S
Mn2197 O2215 2.221 1_545 S
O2198 Mn2199 2.088 . S
O2198 C2210 1.256 . S
Mn2199 O2198 2.088 . S
Mn2199 O2206 2.089 . S
Mn2199 O2215 2.290 . S
Mn2199 O2216 2.251 1_455 S
O2200 Mn2197 2.160 . S
O2200 C2211 1.239 . S
O2201 Mn2197 2.221 . S
O2201 Mn2202 2.312 . S
O2201 C2212 1.278 . S
Mn2202 O2201 2.312 . S
Mn2202 O2204 2.095 . S
Mn2202 O2207 2.259 . S
Mn2202 O2208 2.049 1_455 S
O2203 Mn2197 2.163 1_655 S
O2203 C2213 1.244 . S
O2204 Mn2202 2.095 . S
O2204 C2211 1.256 . S
O2205 Mn2197 2.160 1_565 S
O2205 C2214 1.239 . S
O2206 Mn2199 2.089 . S
O2206 C2214 1.256 . S
O2207 Mn2202 2.259 . S
O2207 C2212 1.241 . S
O2208 Mn2202 2.049 1_655 S
O2208 C2213 1.256 . S
C2209 O2215 1.278 1_655 S
C2209 O2216 1.241 . S
C2210 O2196 1.244 . S
C2210 O2198 1.256 . S
C2211 O2200 1.239 . S
C2211 O2204 1.256 . S
C2212 O2201 1.278 . S
C2212 O2207 1.241 . S
C2213 O2203 1.244 . S
C2213 O2208 1.256 . S
C2214 O2205 1.239 . S
C2214 O2206 1.256 . S
O2215 Mn2197 2.221 1_565 S
O2215 Mn2199 2.290 . S
O2215 C2209 1.278 1_455 S
O2216 Mn2199 2.251 1_655 S
O2216 C2209 1.241 . S
O2217 Mn2218 2.163 . S
O2217 C2231 1.244 . S
Mn2218 O2217 2.163 . S
Mn2218 O2221 2.160 . S
Mn2218 O2222 2.221 . S
Mn2218 O2224 2.163 . S
Mn2218 O2226 2.160 . S
Mn2218 O2236 2.221 . S
O2219 Mn2220 2.087 . S
O2219 C2231 1.256 . S
Mn2220 O2219 2.087 . S
Mn2220 O2227 2.089 . S
Mn2220 O2236 2.290 . S
Mn2220 O2237 2.251 . S
O2221 Mn2218 2.160 . S
O2221 C2232 1.239 . S
O2222 Mn2218 2.221 . S
O2222 Mn2223 2.290 . S
O2222 C2233 1.278 . S
Mn2223 O2222 2.290 . S
Mn2223 O2225 2.089 . S
Mn2223 O2228 2.251 . S
Mn2223 O2229 2.087 . S
O2224 Mn2218 2.163 . S
O2224 C2234 1.244 . S
O2225 Mn2223 2.089 . S
O2225 C2232 1.256 . S
O2226 Mn2218 2.160 . S
O2226 C2235 1.239 . S
O2227 Mn2220 2.089 . S
O2227 C2235 1.256 . S
O2228 Mn2223 2.251 . S
O2228 C2233 1.241 . S
O2229 Mn2223 2.087 . S
O2229 C2234 1.256 . S
C2230 O2236 1.278 . S
C2230 O2237 1.241 . S
C2231 O2217 1.244 . S
C2231 O2219 1.256 . S
C2232 O2221 1.239 . S
C2232 O2225 1.256 . S
C2233 O2222 1.278 . S
C2233 O2228 1.241 . S
C2234 O2224 1.244 . S
C2234 O2229 1.256 . S
C2235 O2226 1.239 . S
C2235 O2227 1.256 . S
O2236 Mn2218 2.221 . S
O2236 Mn2220 2.290 . S
O2236 C2230 1.278 . S
O2237 Mn2220 2.251 . S
O2237 C2230 1.241 . S
O2238 Mn2239 2.163 1_556 S
O2238 C2252 1.239 1_545 S
Mn2239 O2238 2.163 1_554 S
Mn2239 O2242 2.160 . S
Mn2239 O2243 2.221 . S
Mn2239 O2245 2.163 1_545 S
Mn2239 O2247 2.160 1_554 S
Mn2239 O2257 2.225 1_554 S
O2240 Mn2241 2.087 1_565 S
O2240 C2252 1.260 . S
Mn2241 O2240 2.087 1_545 S
Mn2241 O2248 2.089 . S
Mn2241 O2257 2.296 . S
Mn2241 O2258 2.251 1_545 S
O2242 Mn2239 2.160 . S
O2242 C2253 1.239 . S
O2243 Mn2239 2.221 . S
O2243 Mn2244 2.290 1_545 S
O2243 C2254 1.278 . S
Mn2244 O2243 2.290 1_565 S
Mn2244 O2246 2.089 1_565 S
Mn2244 O2249 2.251 1_565 S
Mn2244 O2250 2.087 . S
O2245 Mn2239 2.163 1_565 S
O2245 C2255 1.244 . S
O2246 Mn2244 2.089 1_545 S
O2246 C2253 1.256 . S
O2247 Mn2239 2.160 1_556 S
O2247 C2256 1.239 . S
O2248 Mn2241 2.089 . S
O2248 C2256 1.256 . S
O2249 Mn2244 2.251 1_545 S
O2249 C2254 1.241 . S
O2250 Mn2244 2.087 . S
O2250 C2255 1.256 . S
C2251 O2257 1.264 1_565 S
C2251 O2258 1.241 . S
C2252 O2238 1.239 1_565 S
C2252 O2240 1.260 . S
C2253 O2242 1.239 . S
C2253 O2246 1.256 . S
C2254 O2243 1.278 . S
C2254 O2249 1.241 . S
C2255 O2245 1.244 . S
C2255 O2250 1.256 . S
C2256 O2247 1.239 . S
C2256 O2248 1.256 . S
O2257 Mn2239 2.225 1_556 S
O2257 Mn2241 2.296 . S
O2257 C2251 1.264 1_545 S
O2258 Mn2241 2.251 1_565 S
O2258 C2251 1.241 . S
O2259 Mn2260 2.163 . S
O2259 C2273 1.244 . S
Mn2260 O2259 2.163 . S
Mn2260 O2263 2.160 . S
Mn2260 O2264 2.221 . S
Mn2260 O2266 2.163 . S
Mn2260 O2268 2.160 . S
Mn2260 O2278 2.221 . S
O2261 Mn2262 2.087 . S
O2261 C2273 1.256 . S
Mn2262 O2261 2.087 . S
Mn2262 O2269 2.089 . S
Mn2262 O2278 2.290 . S
Mn2262 O2279 2.251 . S
O2263 Mn2260 2.160 . S
O2263 C2274 1.239 . S
O2264 Mn2260 2.221 . S
O2264 Mn2265 2.290 . S
O2264 C2275 1.278 . S
Mn2265 O2264 2.290 . S
Mn2265 O2267 2.089 . S
Mn2265 O2270 2.251 . S
Mn2265 O2271 2.087 . S
O2266 Mn2260 2.163 . S
O2266 C2276 1.244 . S
O2267 Mn2265 2.089 . S
O2267 C2274 1.256 . S
O2268 Mn2260 2.160 . S
O2268 C2277 1.239 . S
O2269 Mn2262 2.089 . S
O2269 C2277 1.256 . S
O2270 Mn2265 2.251 . S
O2270 C2275 1.241 . S
O2271 Mn2265 2.087 . S
O2271 C2276 1.256 . S
C2272 O2278 1.278 . S
C2272 O2279 1.241 . S
C2273 O2259 1.244 . S
C2273 O2261 1.256 . S
C2274 O2263 1.239 . S
C2274 O2267 1.256 . S
C2275 O2264 1.278 . S
C2275 O2270 1.241 . S
C2276 O2266 1.244 . S
C2276 O2271 1.256 . S
C2277 O2268 1.239 . S
C2277 O2269 1.256 . S
O2278 Mn2260 2.221 . S
O2278 Mn2262 2.290 . S
O2278 C2272 1.278 . S
O2279 Mn2262 2.251 . S
O2279 C2272 1.241 . S
O2280 Mn2281 2.163 1_556 S
O2280 C2294 1.244 . S
Mn2281 O2280 2.163 1_554 S
Mn2281 O2284 2.160 . S
Mn2281 O2285 2.221 1_554 S
Mn2281 O2287 2.163 . S
Mn2281 O2289 2.160 . S
Mn2281 O2299 2.221 . S
O2282 Mn2283 2.087 . S
O2282 C2294 1.256 1_554 S
Mn2283 O2282 2.087 . S
Mn2283 O2290 2.089 . S
Mn2283 O2299 2.290 . S
Mn2283 O2300 2.251 . S
O2284 Mn2281 2.160 . S
O2284 C2295 1.239 . S
O2285 Mn2281 2.221 1_556 S
O2285 Mn2286 2.290 . S
O2285 C2296 1.278 . S
Mn2286 O2285 2.290 . S
Mn2286 O2288 2.089 1_556 S
Mn2286 O2291 2.251 . S
Mn2286 O2292 2.087 . S
O2287 Mn2281 2.163 . S
O2287 C2297 1.244 1_554 S
O2288 Mn2286 2.089 1_554 S
O2288 C2295 1.256 . S
O2289 Mn2281 2.160 . S
O2289 C2298 1.239 . S
O2290 Mn2283 2.089 . S
O2290 C2298 1.256 . S
O2291 Mn2286 2.251 . S
O2291 C2296 1.241 . S
O2292 Mn2286 2.087 . S
O2292 C2297 1.256 . S
C2293 O2299 1.278 . S
C2293 O2300 1.241 . S
C2294 O2280 1.244 . S
C2294 O2282 1.256 1_556 S
C2295 O2284 1.239 . S
C2295 O2288 1.256 . S
C2296 O2285 1.278 . S
C2296 O2291 1.241 . S
C2297 O2287 1.244 1_556 S
C2297 O2292 1.256 . S
C2298 O2289 1.239 . S
C2298 O2290 1.256 . S
O2299 Mn2281 2.221 . S
O2299 Mn2283 2.290 . S
O2299 C2293 1.278 . S
O2300 Mn2283 2.251 . S
O2300 C2293 1.241 . S
O2301 Mn2302 2.163 . S
O2301 C2315 1.244 . S
Mn2302 O2301 2.163 . S
Mn2302 O2305 2.160 . S
Mn2302 O2306 2.221 . S
Mn2302 O2308 2.163 . S
Mn2302 O2310 2.160 . S
Mn2302 O2320 2.221 . S
O2303 Mn2304 2.087 . S
O2303 C2315 1.256 . S
Mn2304 O2303 2.087 . S
Mn2304 O2311 2.089 . S
Mn2304 O2320 2.290 . S
Mn2304 O2321 2.251 . S
O2305 Mn2302 2.160 . S
O2305 C2316 1.239 . S
O2306 Mn2302 2.221 . S
O2306 Mn2307 2.290 . S
O2306 C2317 1.278 . S
Mn2307 O2306 2.290 . S
Mn2307 O2309 2.089 . S
Mn2307 O2312 2.251 . S
Mn2307 O2313 2.087 . S
O2308 Mn2302 2.163 . S
O2308 C2318 1.244 . S
O2309 Mn2307 2.089 . S
O2309 C2316 1.256 . S
O2310 Mn2302 2.160 . S
O2310 C2319 1.239 . S
O2311 Mn2304 2.089 . S
O2311 C2319 1.256 . S
O2312 Mn2307 2.251 . S
O2312 C2317 1.241 . S
O2313 Mn2307 2.087 . S
O2313 C2318 1.256 . S
C2314 O2320 1.278 . S
C2314 O2321 1.241 . S
C2315 O2301 1.244 . S
C2315 O2303 1.256 . S
C2316 O2305 1.239 . S
C2316 O2309 1.256 . S
C2317 O2306 1.278 . S
C2317 O2312 1.241 . S
C2318 O2308 1.244 . S
C2318 O2313 1.256 . S
C2319 O2310 1.239 . S
C2319 O2311 1.256 . S
O2320 Mn2302 2.221 . S
O2320 Mn2304 2.290 . S
O2320 C2314 1.278 . S
O2321 Mn2304 2.251 . S
O2321 C2314 1.241 . S
O2322 Mn2323 2.163 1_655 S
O2322 C2336 1.244 . S
Mn2323 O2322 2.163 1_455 S
Mn2323 O2326 2.160 . S
Mn2323 O2327 2.221 1_455 S
Mn2323 O2329 2.163 . S
Mn2323 O2331 2.160 . S
Mn2323 O2341 2.221 . S
O2324 Mn2325 2.087 . S
O2324 C2336 1.256 1_455 S
Mn2325 O2324 2.087 . S
Mn2325 O2332 2.089 . S
Mn2325 O2341 2.290 . S
Mn2325 O2342 2.251 . S
O2326 Mn2323 2.160 . S
O2326 C2337 1.239 . S
O2327 Mn2323 2.221 1_655 S
O2327 Mn2328 2.290 . S
O2327 C2338 1.278 . S
Mn2328 O2327 2.290 . S
Mn2328 O2330 2.089 1_655 S
Mn2328 O2333 2.251 . S
Mn2328 O2334 2.087 . S
O2329 Mn2323 2.163 . S
O2329 C2339 1.244 1_455 S
O2330 Mn2328 2.089 1_455 S
O2330 C2337 1.256 . S
O2331 Mn2323 2.160 . S
O2331 C2340 1.239 . S
O2332 Mn2325 2.089 . S
O2332 C2340 1.256 . S
O2333 Mn2328 2.251 . S
O2333 C2338 1.241 . S
O2334 Mn2328 2.087 . S
O2334 C2339 1.256 . S
C2335 O2341 1.278 . S
C2335 O2342 1.241 . S
C2336 O2322 1.244 . S
C2336 O2324 1.256 1_655 S
C2337 O2326 1.239 . S
C2337 O2330 1.256 . S
C2338 O2327 1.278 . S
C2338 O2333 1.241 . S
C2339 O2329 1.244 1_655 S
C2339 O2334 1.256 . S
C2340 O2331 1.239 . S
C2340 O2332 1.256 . S
O2341 Mn2323 2.221 . S
O2341 Mn2325 2.290 . S
O2341 C2335 1.278 . S
O2342 Mn2325 2.251 . S
O2342 C2335 1.241 . S
O2343 Mn2344 2.163 . S
O2343 C2357 1.244 . S
Mn2344 O2343 2.163 . S
Mn2344 O2347 2.160 . S
Mn2344 O2348 2.221 . S
Mn2344 O2350 2.163 . S
Mn2344 O2352 2.160 . S
Mn2344 O2362 2.221 . S
O2345 Mn2346 2.087 . S
O2345 C2357 1.256 . S
Mn2346 O2345 2.087 . S
Mn2346 O2353 2.089 . S
Mn2346 O2362 2.290 . S
Mn2346 O2363 2.251 . S
O2347 Mn2344 2.160 . S
O2347 C2358 1.239 . S
O2348 Mn2344 2.221 . S
O2348 Mn2349 2.290 . S
O2348 C2359 1.278 . S
Mn2349 O2348 2.290 . S
Mn2349 O2351 2.089 . S
Mn2349 O2354 2.251 . S
Mn2349 O2355 2.087 . S
O2350 Mn2344 2.163 . S
O2350 C2360 1.244 . S
O2351 Mn2349 2.089 . S
O2351 C2358 1.256 . S
O2352 Mn2344 2.160 . S
O2352 C2361 1.239 . S
O2353 Mn2346 2.089 . S
O2353 C2361 1.256 . S
O2354 Mn2349 2.251 . S
O2354 C2359 1.241 . S
O2355 Mn2349 2.087 . S
O2355 C2360 1.256 . S
C2356 O2362 1.278 . S
C2356 O2363 1.241 . S
C2357 O2343 1.244 . S
C2357 O2345 1.256 . S
C2358 O2347 1.239 . S
C2358 O2351 1.256 . S
C2359 O2348 1.278 . S
C2359 O2354 1.241 . S
C2360 O2350 1.244 . S
C2360 O2355 1.256 . S
C2361 O2352 1.239 . S
C2361 O2353 1.256 . S
O2362 Mn2344 2.221 . S
O2362 Mn2346 2.290 . S
O2362 C2356 1.278 . S
O2363 Mn2346 2.251 . S
O2363 C2356 1.241 . S
O2364 Mn2365 2.163 . S
O2364 C2378 1.244 . S
Mn2365 O2364 2.163 . S
Mn2365 O2368 2.160 . S
Mn2365 O2369 2.221 . S
Mn2365 O2371 2.163 . S
Mn2365 O2373 2.160 . S
Mn2365 O2383 2.221 . S
O2366 Mn2367 2.087 . S
O2366 C2378 1.256 . S
Mn2367 O2366 2.087 . S
Mn2367 O2374 2.089 . S
Mn2367 O2383 2.290 . S
Mn2367 O2384 2.251 . S
O2368 Mn2365 2.160 . S
O2368 C2379 1.239 . S
O2369 Mn2365 2.221 . S
O2369 Mn2370 2.290 . S
O2369 C2380 1.278 . S
Mn2370 O2369 2.290 . S
Mn2370 O2372 2.089 . S
Mn2370 O2375 2.251 . S
Mn2370 O2376 2.087 . S
O2371 Mn2365 2.163 . S
O2371 C2381 1.244 . S
O2372 Mn2370 2.089 . S
O2372 C2379 1.256 . S
O2373 Mn2365 2.160 . S
O2373 C2382 1.239 . S
O2374 Mn2367 2.089 . S
O2374 C2382 1.256 . S
O2375 Mn2370 2.251 . S
O2375 C2380 1.241 . S
O2376 Mn2370 2.087 . S
O2376 C2381 1.256 . S
C2377 O2383 1.278 . S
C2377 O2384 1.241 . S
C2378 O2364 1.244 . S
C2378 O2366 1.256 . S
C2379 O2368 1.239 . S
C2379 O2372 1.256 . S
C2380 O2369 1.278 . S
C2380 O2375 1.241 . S
C2381 O2371 1.244 . S
C2381 O2376 1.256 . S
C2382 O2373 1.239 . S
C2382 O2374 1.256 . S
O2383 Mn2365 2.221 . S
O2383 Mn2367 2.290 . S
O2383 C2377 1.278 . S
O2384 Mn2367 2.251 . S
O2384 C2377 1.241 . S
O2385 Mn2386 2.163 . S
O2385 C2399 1.244 . S
Mn2386 O2385 2.163 . S
Mn2386 O2389 2.160 . S
Mn2386 O2390 2.221 . S
Mn2386 O2392 2.163 . S
Mn2386 O2394 2.160 . S
Mn2386 O2404 2.221 . S
O2387 Mn2388 2.087 . S
O2387 C2399 1.256 . S
Mn2388 O2387 2.087 . S
Mn2388 O2395 2.089 . S
Mn2388 O2404 2.290 . S
Mn2388 O2405 2.251 . S
O2389 Mn2386 2.160 . S
O2389 C2400 1.239 . S
O2390 Mn2386 2.221 . S
O2390 Mn2391 2.290 . S
O2390 C2401 1.278 . S
Mn2391 O2390 2.290 . S
Mn2391 O2393 2.089 . S
Mn2391 O2396 2.251 . S
Mn2391 O2397 2.087 . S
O2392 Mn2386 2.163 . S
O2392 C2402 1.244 . S
O2393 Mn2391 2.089 . S
O2393 C2400 1.256 . S
O2394 Mn2386 2.160 . S
O2394 C2403 1.239 . S
O2395 Mn2388 2.089 . S
O2395 C2403 1.256 . S
O2396 Mn2391 2.251 . S
O2396 C2401 1.241 . S
O2397 Mn2391 2.087 . S
O2397 C2402 1.256 . S
C2398 O2404 1.278 . S
C2398 O2405 1.241 . S
C2399 O2385 1.244 . S
C2399 O2387 1.256 . S
C2400 O2389 1.239 . S
C2400 O2393 1.256 . S
C2401 O2390 1.278 . S
C2401 O2396 1.241 . S
C2402 O2392 1.244 . S
C2402 O2397 1.256 . S
C2403 O2394 1.239 . S
C2403 O2395 1.256 . S
O2404 Mn2386 2.221 . S
O2404 Mn2388 2.290 . S
O2404 C2398 1.278 . S
O2405 Mn2388 2.251 . S
O2405 C2398 1.241 . S
O2406 Mn2407 2.163 . S
O2406 C2420 1.244 . S
Mn2407 O2406 2.163 . S
Mn2407 O2410 2.160 . S
Mn2407 O2411 2.221 . S
Mn2407 O2413 2.163 . S
Mn2407 O2415 2.160 . S
Mn2407 O2425 2.221 . S
O2408 Mn2409 2.087 . S
O2408 C2420 1.256 . S
Mn2409 O2408 2.087 . S
Mn2409 O2416 2.089 . S
Mn2409 O2425 2.290 . S
Mn2409 O2426 2.251 . S
O2410 Mn2407 2.160 . S
O2410 C2421 1.239 . S
O2411 Mn2407 2.221 . S
O2411 Mn2412 2.290 . S
O2411 C2422 1.278 . S
Mn2412 O2411 2.290 . S
Mn2412 O2414 2.089 . S
Mn2412 O2417 2.251 . S
Mn2412 O2418 2.087 . S
O2413 Mn2407 2.163 . S
O2413 C2423 1.244 . S
O2414 Mn2412 2.089 . S
O2414 C2421 1.256 . S
O2415 Mn2407 2.160 . S
O2415 C2424 1.239 . S
O2416 Mn2409 2.089 . S
O2416 C2424 1.256 . S
O2417 Mn2412 2.251 . S
O2417 C2422 1.241 . S
O2418 Mn2412 2.087 . S
O2418 C2423 1.256 . S
C2419 O2425 1.278 . S
C2419 O2426 1.241 . S
C2420 O2406 1.244 . S
C2420 O2408 1.256 . S
C2421 O2410 1.239 . S
C2421 O2414 1.256 . S
C2422 O2411 1.278 . S
C2422 O2417 1.241 . S
C2423 O2413 1.244 . S
C2423 O2418 1.256 . S
C2424 O2415 1.239 . S
C2424 O2416 1.256 . S
O2425 Mn2407 2.221 . S
O2425 Mn2409 2.290 . S
O2425 C2419 1.278 . S
O2426 Mn2409 2.251 . S
O2426 C2419 1.241 . S
O2427 Mn2428 2.170 1_655 S
O2427 C2441 1.240 1_554 S
Mn2428 O2427 2.170 1_455 S
Mn2428 O2431 2.160 . S
Mn2428 O2432 2.221 . S
Mn2428 O2434 2.163 1_554 S
Mn2428 O2436 2.160 1_455 S
Mn2428 O2446 2.219 1_454 S
O2429 Mn2430 2.087 1_556 S
O2429 C2441 1.256 . S
Mn2430 O2429 2.087 1_554 S
Mn2430 O2437 2.089 . S
Mn2430 O2446 2.286 1_554 S
Mn2430 O2447 2.251 1_554 S
O2431 Mn2428 2.160 . S
O2431 C2442 1.239 . S
O2432 Mn2428 2.221 . S
O2432 Mn2433 2.290 1_554 S
O2432 C2443 1.278 . S
Mn2433 O2432 2.290 1_556 S
Mn2433 O2435 2.089 1_556 S
Mn2433 O2438 2.251 1_556 S
Mn2433 O2439 2.087 . S
O2434 Mn2428 2.163 1_556 S
O2434 C2444 1.244 . S
O2435 Mn2433 2.089 1_554 S
O2435 C2442 1.256 . S
O2436 Mn2428 2.160 1_655 S
O2436 C2445 1.239 . S
O2437 Mn2430 2.089 . S
O2437 C2445 1.256 . S
O2438 Mn2433 2.251 1_554 S
O2438 C2443 1.241 . S
O2439 Mn2433 2.087 . S
O2439 C2444 1.256 . S
C2440 O2446 1.288 . S
C2440 O2447 1.241 . S
C2441 O2427 1.240 1_556 S
C2441 O2429 1.256 . S
C2442 O2431 1.239 . S
C2442 O2435 1.256 . S
C2443 O2432 1.278 . S
C2443 O2438 1.241 . S
C2444 O2434 1.244 . S
C2444 O2439 1.256 . S
C2445 O2436 1.239 . S
C2445 O2437 1.256 . S
O2446 Mn2428 2.219 1_656 S
O2446 Mn2430 2.286 1_556 S
O2446 C2440 1.288 . S
O2447 Mn2430 2.251 1_556 S
O2447 C2440 1.241 . S
H2448 C2454 0.930 . S
H2449 C2458 0.930 . S
H2450 C2463 0.929 . S
H2451 C2461 0.929 . S
H2452 C2456 0.929 . S
H2453 C2462 0.929 . S
C2454 H2448 0.930 . S
C2454 C2455 1.367 . S
C2454 C2462 1.378 . S
C2455 C2454 1.367 . S
C2455 C2463 1.433 1_455 S
C2456 H2452 0.929 . S
C2456 C2458 1.378 . S
C2456 C2460 1.346 . S
C2457 C2460 1.463 1_455 S
C2457 C2462 1.350 . S
C2457 N2465 1.427 1_455 S
C2458 H2449 0.930 . S
C2458 C2456 1.378 . S
C2458 C2459 1.367 . S
C2459 C2458 1.367 . S
C2459 C2461 1.433 1_655 S
C2460 C2456 1.346 . S
C2460 C2457 1.463 1_655 S
C2460 N2464 1.431 1_655 S
C2461 H2451 0.929 . S
C2461 C2459 1.433 1_455 S
C2461 N2464 1.384 . S
C2462 H2453 0.929 . S
C2462 C2454 1.378 . S
C2462 C2457 1.350 . S
C2463 H2450 0.929 . S
C2463 C2455 1.433 1_655 S
C2463 N2465 1.384 . S
N2464 C2460 1.431 1_455 S
N2464 C2461 1.384 . S
N2465 C2457 1.427 1_655 S
N2465 C2463 1.384 . S
H2466 C2472 0.930 . S
H2467 C2476 0.930 . S
H2468 C2481 0.929 . S
H2469 C2479 0.929 . S
H2470 C2474 0.929 . S
H2471 C2480 0.929 . S
C2472 H2466 0.930 . S
C2472 C2473 1.367 . S
C2472 C2480 1.378 . S
C2473 C2472 1.367 . S
C2473 C2481 1.433 . S
C2474 H2470 0.929 . S
C2474 C2476 1.378 . S
C2474 C2478 1.350 . S
C2475 C2478 1.463 . S
C2475 C2480 1.350 . S
C2475 N2483 1.427 . S
C2476 H2467 0.930 . S
C2476 C2474 1.378 . S
C2476 C2477 1.367 . S
C2477 C2476 1.367 . S
C2477 C2479 1.433 . S
C2478 C2474 1.350 . S
C2478 C2475 1.463 . S
C2478 N2482 1.427 . S
C2479 H2469 0.929 . S
C2479 C2477 1.433 . S
C2479 N2482 1.384 . S
C2480 H2471 0.929 . S
C2480 C2472 1.378 . S
C2480 C2475 1.350 . S
C2481 H2468 0.929 . S
C2481 C2473 1.433 . S
C2481 N2483 1.384 . S
N2482 C2478 1.427 . S
N2482 C2479 1.384 . S
N2483 C2475 1.427 . S
N2483 C2481 1.384 . S
H2484 C2490 0.930 . S
H2485 C2494 0.930 . S
H2486 C2499 0.929 . S
H2487 C2497 0.929 . S
H2488 C2492 0.929 . S
H2489 C2498 0.929 . S
C2490 H2484 0.930 . S
C2490 C2491 1.367 . S
C2490 C2498 1.378 . S
C2491 C2490 1.367 . S
C2491 C2499 1.433 . S
C2492 H2488 0.929 . S
C2492 C2494 1.378 . S
C2492 C2496 1.350 . S
C2493 C2496 1.463 . S
C2493 C2498 1.350 . S
C2493 N2501 1.427 . S
C2494 H2485 0.930 . S
C2494 C2492 1.378 . S
C2494 C2495 1.367 . S
C2495 C2494 1.367 . S
C2495 C2497 1.433 . S
C2496 C2492 1.350 . S
C2496 C2493 1.463 . S
C2496 N2500 1.427 . S
C2497 H2487 0.929 . S
C2497 C2495 1.433 . S
C2497 N2500 1.384 . S
C2498 H2489 0.929 . S
C2498 C2490 1.378 . S
C2498 C2493 1.350 . S
C2499 H2486 0.929 . S
C2499 C2491 1.433 . S
C2499 N2501 1.384 . S
N2500 C2496 1.427 . S
N2500 C2497 1.384 . S
N2501 C2493 1.427 . S
N2501 C2499 1.384 . S
H2502 C2508 0.930 . S
H2503 C2512 0.930 . S
H2504 C2517 0.929 . S
H2505 C2515 0.929 . S
H2506 C2510 0.929 . S
H2507 C2516 0.929 . S
C2508 H2502 0.930 . S
C2508 C2509 1.367 . S
C2508 C2516 1.378 . S
C2509 C2508 1.367 . S
C2509 C2517 1.433 . S
C2510 H2506 0.929 . S
C2510 C2512 1.378 . S
C2510 C2514 1.350 . S
C2511 C2514 1.463 . S
C2511 C2516 1.350 . S
C2511 N2519 1.427 . S
C2512 H2503 0.930 . S
C2512 C2510 1.378 . S
C2512 C2513 1.367 . S
C2513 C2512 1.367 . S
C2513 C2515 1.433 . S
C2514 C2510 1.350 . S
C2514 C2511 1.463 . S
C2514 N2518 1.427 . S
C2515 H2505 0.929 . S
C2515 C2513 1.433 . S
C2515 N2518 1.384 . S
C2516 H2507 0.929 . S
C2516 C2508 1.378 . S
C2516 C2511 1.350 . S
C2517 H2504 0.929 . S
C2517 C2509 1.433 . S
C2517 N2519 1.384 . S
N2518 C2514 1.427 . S
N2518 C2515 1.384 . S
N2519 C2511 1.427 . S
N2519 C2517 1.384 . S
H2520 C2526 0.930 . S
H2521 C2530 0.930 . S
H2522 C2535 0.929 . S
H2523 C2533 0.929 . S
H2524 C2528 0.929 . S
H2525 C2534 0.929 . S
C2526 H2520 0.930 . S
C2526 C2527 1.367 1_655 S
C2526 C2534 1.378 . S
C2527 C2526 1.367 1_455 S
C2527 C2535 1.433 . S
C2528 H2524 0.929 . S
C2528 C2530 1.378 . S
C2528 C2532 1.350 . S
C2529 C2532 1.463 . S
C2529 C2534 1.350 1_455 S
C2529 N2537 1.427 . S
C2530 H2521 0.930 . S
C2530 C2528 1.378 . S
C2530 C2531 1.367 . S
C2531 C2530 1.367 . S
C2531 C2533 1.433 1_455 S
C2532 C2528 1.350 . S
C2532 C2529 1.463 . S
C2532 N2536 1.427 1_455 S
C2533 H2523 0.929 . S
C2533 C2531 1.433 1_655 S
C2533 N2536 1.384 . S
C2534 H2525 0.929 . S
C2534 C2526 1.378 . S
C2534 C2529 1.350 1_655 S
C2535 H2522 0.929 . S
C2535 C2527 1.433 . S
C2535 N2537 1.384 . S
N2536 C2532 1.427 1_655 S
N2536 C2533 1.384 . S
N2537 C2529 1.427 . S
N2537 C2535 1.384 . S
H2538 C2544 0.930 . S
H2539 C2548 0.930 . S
H2540 C2553 0.929 . S
H2541 C2551 0.929 . S
H2542 C2546 0.929 . S
H2543 C2552 0.929 . S
C2544 H2538 0.930 . S
C2544 C2545 1.367 . S
C2544 C2552 1.378 . S
C2545 C2544 1.367 . S
C2545 C2553 1.433 . S
C2546 H2542 0.929 . S
C2546 C2548 1.378 . S
C2546 C2550 1.350 . S
C2547 C2550 1.463 . S
C2547 C2552 1.350 . S
C2547 N2555 1.427 . S
C2548 H2539 0.930 . S
C2548 C2546 1.378 . S
C2548 C2549 1.367 . S
C2549 C2548 1.367 . S
C2549 C2551 1.433 . S
C2550 C2546 1.350 . S
C2550 C2547 1.463 . S
C2550 N2554 1.427 . S
C2551 H2541 0.929 . S
C2551 C2549 1.433 . S
C2551 N2554 1.384 . S
C2552 H2543 0.929 . S
C2552 C2544 1.378 . S
C2552 C2547 1.350 . S
C2553 H2540 0.929 . S
C2553 C2545 1.433 . S
C2553 N2555 1.384 . S
N2554 C2550 1.427 . S
N2554 C2551 1.384 . S
N2555 C2547 1.427 . S
N2555 C2553 1.384 . S
H2556 C2562 0.930 . S
H2557 C2566 0.930 . S
H2558 C2571 0.929 . S
H2559 C2569 0.929 . S
H2560 C2564 0.929 . S
H2561 C2570 0.929 . S
C2562 H2556 0.930 . S
C2562 C2563 1.367 . S
C2562 C2570 1.378 . S
C2563 C2562 1.367 . S
C2563 C2571 1.433 . S
C2564 H2560 0.929 . S
C2564 C2566 1.378 . S
C2564 C2568 1.350 . S
C2565 C2568 1.463 . S
C2565 C2570 1.350 . S
C2565 N2573 1.427 . S
C2566 H2557 0.930 . S
C2566 C2564 1.378 . S
C2566 C2567 1.367 . S
C2567 C2566 1.367 . S
C2567 C2569 1.433 . S
C2568 C2564 1.350 . S
C2568 C2565 1.463 . S
C2568 N2572 1.427 . S
C2569 H2559 0.929 . S
C2569 C2567 1.433 . S
C2569 N2572 1.384 . S
C2570 H2561 0.929 . S
C2570 C2562 1.378 . S
C2570 C2565 1.350 . S
C2571 H2558 0.929 . S
C2571 C2563 1.433 . S
C2571 N2573 1.384 . S
N2572 C2568 1.427 . S
N2572 C2569 1.384 . S
N2573 C2565 1.427 . S
N2573 C2571 1.384 . S
H2574 C2580 0.930 . S
H2575 C2584 0.930 . S
H2576 C2589 0.929 . S
H2577 C2587 0.929 . S
H2578 C2582 0.929 . S
H2579 C2588 0.929 . S
C2580 H2574 0.930 . S
C2580 C2581 1.367 . S
C2580 C2588 1.378 . S
C2581 C2580 1.367 . S
C2581 C2589 1.433 . S
C2582 H2578 0.929 . S
C2582 C2584 1.378 . S
C2582 C2586 1.350 . S
C2583 C2586 1.463 . S
C2583 C2588 1.350 . S
C2583 N2591 1.427 . S
C2584 H2575 0.930 . S
C2584 C2582 1.378 . S
C2584 C2585 1.367 . S
C2585 C2584 1.367 . S
C2585 C2587 1.433 . S
C2586 C2582 1.350 . S
C2586 C2583 1.463 . S
C2586 N2590 1.427 . S
C2587 H2577 0.929 . S
C2587 C2585 1.433 . S
C2587 N2590 1.384 . S
C2588 H2579 0.929 . S
C2588 C2580 1.378 . S
C2588 C2583 1.350 . S
C2589 H2576 0.929 . S
C2589 C2581 1.433 . S
C2589 N2591 1.384 . S
N2590 C2586 1.427 . S
N2590 C2587 1.384 . S
N2591 C2583 1.427 . S
N2591 C2589 1.384 . S
H2592 C2598 0.930 . S
H2593 C2602 0.930 . S
H2594 C2607 0.929 . S
H2595 C2605 0.929 . S
H2596 C2600 0.929 . S
H2597 C2606 0.929 . S
C2598 H2592 0.930 . S
C2598 C2599 1.367 1_565 S
C2598 C2606 1.378 . S
C2599 C2598 1.367 1_545 S
C2599 C2607 1.433 . S
C2600 H2596 0.929 . S
C2600 C2602 1.378 . S
C2600 C2604 1.350 1_545 S
C2601 C2604 1.463 . S
C2601 C2606 1.350 . S
C2601 N2609 1.427 1_565 S
C2602 H2593 0.930 . S
C2602 C2600 1.378 . S
C2602 C2603 1.367 1_545 S
C2603 C2602 1.367 1_565 S
C2603 C2605 1.433 . S
C2604 C2600 1.350 1_565 S
C2604 C2601 1.463 . S
C2604 N2608 1.427 . S
C2605 H2595 0.929 . S
C2605 C2603 1.433 . S
C2605 N2608 1.384 . S
C2606 H2597 0.929 . S
C2606 C2598 1.378 . S
C2606 C2601 1.350 . S
C2607 H2594 0.929 . S
C2607 C2599 1.433 . S
C2607 N2609 1.384 . S
N2608 C2604 1.427 . S
N2608 C2605 1.384 . S
N2609 C2601 1.427 1_545 S
N2609 C2607 1.384 . S
H2610 C2616 0.930 . S
H2611 C2620 0.930 . S
H2612 C2625 0.929 . S
H2613 C2623 0.929 . S
H2614 C2618 0.929 . S
H2615 C2624 0.929 . S
C2616 H2610 0.930 . S
C2616 C2617 1.367 . S
C2616 C2624 1.378 . S
C2617 C2616 1.367 . S
C2617 C2625 1.433 . S
C2618 H2614 0.929 . S
C2618 C2620 1.378 . S
C2618 C2622 1.350 . S
C2619 C2622 1.463 . S
C2619 C2624 1.350 . S
C2619 N2627 1.427 . S
C2620 H2611 0.930 . S
C2620 C2618 1.378 . S
C2620 C2621 1.367 . S
C2621 C2620 1.367 . S
C2621 C2623 1.433 . S
C2622 C2618 1.350 . S
C2622 C2619 1.463 . S
C2622 N2626 1.427 . S
C2623 H2613 0.929 . S
C2623 C2621 1.433 . S
C2623 N2626 1.384 . S
C2624 H2615 0.929 . S
C2624 C2616 1.378 . S
C2624 C2619 1.350 . S
C2625 H2612 0.929 . S
C2625 C2617 1.433 . S
C2625 N2627 1.384 . S
N2626 C2622 1.427 . S
N2626 C2623 1.384 . S
N2627 C2619 1.427 . S
N2627 C2625 1.384 . S
H2628 C2634 0.930 . S
H2629 C2638 0.930 1_565 S
H2630 C2643 0.929 . S
H2631 C2641 0.929 . S
H2632 C2636 0.929 1_565 S
H2633 C2642 0.929 . S
C2634 H2628 0.930 . S
C2634 C2635 1.367 . S
C2634 C2642 1.378 . S
C2635 C2634 1.367 . S
C2635 C2643 1.433 1_545 S
C2636 H2632 0.929 1_545 S
C2636 C2638 1.378 . S
C2636 C2640 1.350 . S
C2637 C2640 1.463 . S
C2637 C2642 1.350 . S
C2637 N2645 1.423 1_545 S
C2638 H2629 0.930 1_545 S
C2638 C2636 1.378 . S
C2638 C2639 1.367 . S
C2639 C2638 1.367 . S
C2639 C2641 1.433 . S
C2640 C2636 1.350 . S
C2640 C2637 1.463 . S
C2640 N2644 1.427 . S
C2641 H2631 0.929 . S
C2641 C2639 1.433 . S
C2641 N2644 1.384 . S
C2642 H2633 0.929 . S
C2642 C2634 1.378 . S
C2642 C2637 1.350 . S
C2643 H2630 0.929 . S
C2643 C2635 1.433 1_565 S
C2643 N2645 1.384 . S
N2644 C2640 1.427 . S
N2644 C2641 1.384 . S
N2645 C2637 1.423 1_565 S
N2645 C2643 1.384 . S
H2646 C2652 0.930 . S
H2647 C2656 0.930 . S
H2648 C2661 0.929 . S
H2649 C2659 0.929 . S
H2650 C2654 0.929 . S
H2651 C2660 0.929 . S
C2652 H2646 0.930 . S
C2652 C2653 1.367 . S
C2652 C2660 1.378 . S
C2653 C2652 1.367 . S
C2653 C2661 1.433 . S
C2654 H2650 0.929 . S
C2654 C2656 1.378 . S
C2654 C2658 1.350 . S
C2655 C2658 1.463 . S
C2655 C2660 1.350 . S
C2655 N2663 1.427 . S
C2656 H2647 0.930 . S
C2656 C2654 1.378 . S
C2656 C2657 1.367 . S
C2657 C2656 1.367 . S
C2657 C2659 1.433 . S
C2658 C2654 1.350 . S
C2658 C2655 1.463 . S
C2658 N2662 1.427 . S
C2659 H2649 0.929 . S
C2659 C2657 1.433 . S
C2659 N2662 1.384 . S
C2660 H2651 0.929 . S
C2660 C2652 1.378 . S
C2660 C2655 1.350 . S
C2661 H2648 0.929 . S
C2661 C2653 1.433 . S
C2661 N2663 1.384 . S
N2662 C2658 1.427 . S
N2662 C2659 1.384 . S
N2663 C2655 1.427 . S
N2663 C2661 1.384 . S
H2664 C2670 0.930 . S
H2665 C2674 0.930 . S
H2666 C2679 0.929 . S
H2667 C2677 0.929 . S
H2668 C2672 0.929 . S
H2669 C2678 0.929 . S
C2670 H2664 0.930 . S
C2670 C2671 1.367 1_565 S
C2670 C2678 1.378 . S
C2671 C2670 1.367 1_545 S
C2671 C2679 1.433 . S
C2672 H2668 0.929 . S
C2672 C2674 1.378 . S
C2672 C2676 1.350 . S
C2673 C2676 1.463 . S
C2673 C2678 1.350 1_545 S
C2673 N2681 1.427 . S
C2674 H2665 0.930 . S
C2674 C2672 1.378 . S
C2674 C2675 1.367 . S
C2675 C2674 1.367 . S
C2675 C2677 1.433 1_545 S
C2676 C2672 1.350 . S
C2676 C2673 1.463 . S
C2676 N2680 1.427 1_545 S
C2677 H2667 0.929 . S
C2677 C2675 1.433 1_565 S
C2677 N2680 1.384 . S
C2678 H2669 0.929 . S
C2678 C2670 1.378 . S
C2678 C2673 1.350 1_565 S
C2679 H2666 0.929 . S
C2679 C2671 1.433 . S
C2679 N2681 1.384 . S
N2680 C2676 1.427 1_565 S
N2680 C2677 1.384 . S
N2681 C2673 1.427 . S
N2681 C2679 1.384 . S
H2682 C2688 0.930 . S
H2683 C2692 0.930 . S
H2684 C2697 0.929 . S
H2685 C2695 0.929 . S
H2686 C2690 0.929 . S
H2687 C2696 0.929 . S
C2688 H2682 0.930 . S
C2688 C2689 1.367 . S
C2688 C2696 1.378 . S
C2689 C2688 1.367 . S
C2689 C2697 1.433 . S
C2690 H2686 0.929 . S
C2690 C2692 1.378 . S
C2690 C2694 1.350 . S
C2691 C2694 1.463 . S
C2691 C2696 1.350 . S
C2691 N2699 1.427 . S
C2692 H2683 0.930 . S
C2692 C2690 1.378 . S
C2692 C2693 1.367 . S
C2693 C2692 1.367 . S
C2693 C2695 1.433 . S
C2694 C2690 1.350 . S
C2694 C2691 1.463 . S
C2694 N2698 1.427 . S
C2695 H2685 0.929 . S
C2695 C2693 1.433 . S
C2695 N2698 1.384 . S
C2696 H2687 0.929 . S
C2696 C2688 1.378 . S
C2696 C2691 1.350 . S
C2697 H2684 0.929 . S
C2697 C2689 1.433 . S
C2697 N2699 1.384 . S
N2698 C2694 1.427 . S
N2698 C2695 1.384 . S
N2699 C2691 1.427 . S
N2699 C2697 1.384 . S
H2700 C2706 0.930 . S
H2701 C2710 0.930 . S
H2702 C2715 0.929 . S
H2703 C2713 0.929 . S
H2704 C2708 0.929 . S
H2705 C2714 0.929 . S
C2706 H2700 0.930 . S
C2706 C2707 1.367 1_565 S
C2706 C2714 1.378 . S
C2707 C2706 1.367 1_545 S
C2707 C2715 1.433 . S
C2708 H2704 0.929 . S
C2708 C2710 1.378 . S
C2708 C2712 1.350 . S
C2709 C2712 1.463 . S
C2709 C2714 1.350 1_545 S
C2709 N2717 1.427 . S
C2710 H2701 0.930 . S
C2710 C2708 1.378 . S
C2710 C2711 1.346 1_545 S
C2711 C2710 1.346 1_565 S
C2711 C2713 1.453 . S
C2712 C2708 1.350 . S
C2712 C2709 1.463 . S
C2712 N2716 1.427 1_545 S
C2713 H2703 0.929 . S
C2713 C2711 1.453 . S
C2713 N2716 1.384 . S
C2714 H2705 0.929 . S
C2714 C2706 1.378 . S
C2714 C2709 1.350 1_565 S
C2715 H2702 0.929 . S
C2715 C2707 1.433 . S
C2715 N2717 1.384 . S
N2716 C2712 1.427 1_565 S
N2716 C2713 1.384 . S
N2717 C2709 1.427 . S
N2717 C2715 1.384 . S
H2718 C2724 0.930 . S
H2719 C2728 0.930 . S
H2720 C2733 0.929 . S
H2721 C2731 0.929 . S
H2722 C2726 0.929 . S
H2723 C2732 0.929 . S
C2724 H2718 0.930 . S
C2724 C2725 1.367 . S
C2724 C2732 1.378 . S
C2725 C2724 1.367 . S
C2725 C2733 1.433 . S
C2726 H2722 0.929 . S
C2726 C2728 1.378 . S
C2726 C2730 1.350 . S
C2727 C2730 1.463 . S
C2727 C2732 1.350 . S
C2727 N2735 1.427 . S
C2728 H2719 0.930 . S
C2728 C2726 1.378 . S
C2728 C2729 1.367 . S
C2729 C2728 1.367 . S
C2729 C2731 1.433 . S
C2730 C2726 1.350 . S
C2730 C2727 1.463 . S
C2730 N2734 1.427 . S
C2731 H2721 0.929 . S
C2731 C2729 1.433 . S
C2731 N2734 1.384 . S
C2732 H2723 0.929 . S
C2732 C2724 1.378 . S
C2732 C2727 1.350 . S
C2733 H2720 0.929 . S
C2733 C2725 1.433 . S
C2733 N2735 1.384 . S
N2734 C2730 1.427 . S
N2734 C2731 1.384 . S
N2735 C2727 1.427 . S
N2735 C2733 1.384 . S
H2736 C2742 0.930 . S
H2737 C2746 0.930 . S
H2738 C2751 0.929 . S
H2739 C2749 0.929 . S
H2740 C2744 0.929 . S
H2741 C2750 0.929 . S
C2742 H2736 0.930 . S
C2742 C2743 1.367 1_556 S
C2742 C2750 1.378 . S
C2743 C2742 1.367 1_554 S
C2743 C2751 1.433 . S
C2744 H2740 0.929 . S
C2744 C2746 1.378 . S
C2744 C2748 1.350 . S
C2745 C2748 1.463 . S
C2745 C2750 1.350 1_554 S
C2745 N2753 1.427 . S
C2746 H2737 0.930 . S
C2746 C2744 1.378 . S
C2746 C2747 1.366 1_554 S
C2747 C2746 1.366 1_556 S
C2747 C2749 1.434 . S
C2748 C2744 1.350 . S
C2748 C2745 1.463 . S
C2748 N2752 1.427 1_554 S
C2749 H2739 0.929 . S
C2749 C2747 1.434 . S
C2749 N2752 1.384 . S
C2750 H2741 0.929 . S
C2750 C2742 1.378 . S
C2750 C2745 1.350 1_556 S
C2751 H2738 0.929 . S
C2751 C2743 1.433 . S
C2751 N2753 1.384 . S
N2752 C2748 1.427 1_556 S
N2752 C2749 1.384 . S
N2753 C2745 1.427 . S
N2753 C2751 1.384 . S
H2754 C2760 0.930 . S
H2755 C2764 0.930 . S
H2756 C2769 0.929 . S
H2757 C2767 0.929 . S
H2758 C2762 0.929 . S
H2759 C2768 0.929 . S
C2760 H2754 0.930 . S
C2760 C2761 1.367 1_556 S
C2760 C2768 1.378 . S
C2761 C2760 1.367 1_554 S
C2761 C2769 1.433 . S
C2762 H2758 0.929 . S
C2762 C2764 1.378 . S
C2762 C2766 1.350 . S
C2763 C2766 1.463 . S
C2763 C2768 1.350 1_554 S
C2763 N2771 1.427 . S
C2764 H2755 0.930 . S
C2764 C2762 1.378 . S
C2764 C2765 1.367 . S
C2765 C2764 1.367 . S
C2765 C2767 1.433 1_554 S
C2766 C2762 1.350 . S
C2766 C2763 1.463 . S
C2766 N2770 1.427 1_554 S
C2767 H2757 0.929 . S
C2767 C2765 1.433 1_556 S
C2767 N2770 1.384 . S
C2768 H2759 0.929 . S
C2768 C2760 1.378 . S
C2768 C2763 1.350 1_556 S
C2769 H2756 0.929 . S
C2769 C2761 1.433 . S
C2769 N2771 1.384 . S
N2770 C2766 1.427 1_556 S
N2770 C2767 1.384 . S
N2771 C2763 1.427 . S
N2771 C2769 1.384 . S
H2772 C2778 0.930 . S
H2773 C2782 0.930 . S
H2774 C2787 0.929 . S
H2775 C2785 0.929 . S
H2776 C2780 0.929 . S
H2777 C2786 0.929 . S
C2778 H2772 0.930 . S
C2778 C2779 1.367 . S
C2778 C2786 1.378 . S
C2779 C2778 1.367 . S
C2779 C2787 1.433 . S
C2780 H2776 0.929 . S
C2780 C2782 1.378 . S
C2780 C2784 1.350 . S
C2781 C2784 1.463 . S
C2781 C2786 1.350 . S
C2781 N2789 1.427 . S
C2782 H2773 0.930 . S
C2782 C2780 1.378 . S
C2782 C2783 1.367 . S
C2783 C2782 1.367 . S
C2783 C2785 1.433 . S
C2784 C2780 1.350 . S
C2784 C2781 1.463 . S
C2784 N2788 1.427 . S
C2785 H2775 0.929 . S
C2785 C2783 1.433 . S
C2785 N2788 1.384 . S
C2786 H2777 0.929 . S
C2786 C2778 1.378 . S
C2786 C2781 1.350 . S
C2787 H2774 0.929 . S
C2787 C2779 1.433 . S
C2787 N2789 1.384 . S
N2788 C2784 1.427 . S
N2788 C2785 1.384 . S
N2789 C2781 1.427 . S
N2789 C2787 1.384 . S
H2790 C2796 0.930 . S
H2791 C2800 0.930 . S
H2792 C2805 0.929 . S
H2793 C2803 0.929 . S
H2794 C2798 0.929 . S
H2795 C2804 0.929 . S
C2796 H2790 0.930 . S
C2796 C2797 1.367 . S
C2796 C2804 1.378 . S
C2797 C2796 1.367 . S
C2797 C2805 1.433 . S
C2798 H2794 0.929 . S
C2798 C2800 1.378 . S
C2798 C2802 1.350 . S
C2799 C2802 1.463 . S
C2799 C2804 1.350 . S
C2799 N2807 1.427 . S
C2800 H2791 0.930 . S
C2800 C2798 1.378 . S
C2800 C2801 1.367 . S
C2801 C2800 1.367 . S
C2801 C2803 1.433 . S
C2802 C2798 1.350 . S
C2802 C2799 1.463 . S
C2802 N2806 1.427 . S
C2803 H2793 0.929 . S
C2803 C2801 1.433 . S
C2803 N2806 1.384 . S
C2804 H2795 0.929 . S
C2804 C2796 1.378 . S
C2804 C2799 1.350 . S
C2805 H2792 0.929 . S
C2805 C2797 1.433 . S
C2805 N2807 1.384 . S
N2806 C2802 1.427 . S
N2806 C2803 1.384 . S
N2807 C2799 1.427 . S
N2807 C2805 1.384 . S
H2808 C2814 0.930 . S
H2809 C2818 0.930 . S
H2810 C2823 0.929 . S
H2811 C2821 0.929 . S
H2812 C2816 0.929 . S
H2813 C2822 0.929 . S
C2814 H2808 0.930 . S
C2814 C2815 1.367 . S
C2814 C2822 1.378 . S
C2815 C2814 1.367 . S
C2815 C2823 1.433 . S
C2816 H2812 0.929 . S
C2816 C2818 1.378 . S
C2816 C2820 1.350 . S
C2817 C2820 1.463 . S
C2817 C2822 1.350 . S
C2817 N2825 1.427 . S
C2818 H2809 0.930 . S
C2818 C2816 1.378 . S
C2818 C2819 1.367 . S
C2819 C2818 1.367 . S
C2819 C2821 1.433 . S
C2820 C2816 1.350 . S
C2820 C2817 1.463 . S
C2820 N2824 1.427 . S
C2821 H2811 0.929 . S
C2821 C2819 1.433 . S
C2821 N2824 1.384 . S
C2822 H2813 0.929 . S
C2822 C2814 1.378 . S
C2822 C2817 1.350 . S
C2823 H2810 0.929 . S
C2823 C2815 1.433 . S
C2823 N2825 1.384 . S
N2824 C2820 1.427 . S
N2824 C2821 1.384 . S
N2825 C2817 1.427 . S
N2825 C2823 1.384 . S
H2826 C2832 0.930 . S
H2827 C2836 0.930 . S
H2828 C2841 0.929 . S
H2829 C2839 0.929 1_545 S
H2830 C2834 0.929 . S
H2831 C2840 0.929 . S
C2832 H2826 0.930 . S
C2832 C2833 1.367 . S
C2832 C2840 1.378 . S
C2833 C2832 1.367 . S
C2833 C2841 1.433 . S
C2834 H2830 0.929 . S
C2834 C2836 1.378 . S
C2834 C2838 1.350 . S
C2835 C2838 1.463 . S
C2835 C2840 1.350 . S
C2835 N2843 1.427 . S
C2836 H2827 0.930 . S
C2836 C2834 1.378 . S
C2836 C2837 1.367 . S
C2837 C2836 1.367 . S
C2837 C2839 1.433 . S
C2838 C2834 1.350 . S
C2838 C2835 1.463 . S
C2838 N2842 1.427 . S
C2839 H2829 0.929 1_565 S
C2839 C2837 1.433 . S
C2839 N2842 1.384 . S
C2840 H2831 0.929 . S
C2840 C2832 1.378 . S
C2840 C2835 1.350 . S
C2841 H2828 0.929 . S
C2841 C2833 1.433 . S
C2841 N2843 1.384 . S
N2842 C2838 1.427 . S
N2842 C2839 1.384 . S
N2843 C2835 1.427 . S
N2843 C2841 1.384 . S
H2844 C2850 0.930 . S
H2845 C2854 0.930 . S
H2846 C2859 0.929 . S
H2847 C2857 0.929 . S
H2848 C2852 0.929 . S
H2849 C2858 0.929 . S
C2850 H2844 0.930 . S
C2850 C2851 1.367 . S
C2850 C2858 1.378 . S
C2851 C2850 1.367 . S
C2851 C2859 1.433 . S
C2852 H2848 0.929 . S
C2852 C2854 1.378 . S
C2852 C2856 1.350 . S
C2853 C2856 1.463 . S
C2853 C2858 1.350 . S
C2853 N2861 1.427 . S
C2854 H2845 0.930 . S
C2854 C2852 1.378 . S
C2854 C2855 1.367 . S
C2855 C2854 1.367 . S
C2855 C2857 1.433 . S
C2856 C2852 1.350 . S
C2856 C2853 1.463 . S
C2856 N2860 1.427 . S
C2857 H2847 0.929 . S
C2857 C2855 1.433 . S
C2857 N2860 1.384 . S
C2858 H2849 0.929 . S
C2858 C2850 1.378 . S
C2858 C2853 1.350 . S
C2859 H2846 0.929 . S
C2859 C2851 1.433 . S
C2859 N2861 1.384 . S
N2860 C2856 1.427 . S
N2860 C2857 1.384 . S
N2861 C2853 1.427 . S
N2861 C2859 1.384 . S
H2862 C2868 0.930 . S
H2863 C2872 0.930 . S
H2864 C2877 0.929 . S
H2865 C2875 0.929 . S
H2866 C2870 0.929 . S
H2867 C2876 0.929 . S
C2868 H2862 0.930 . S
C2868 C2869 1.367 . S
C2868 C2876 1.378 . S
C2869 C2868 1.367 . S
C2869 C2877 1.433 . S
C2870 H2866 0.929 . S
C2870 C2872 1.378 . S
C2870 C2874 1.350 . S
C2871 C2874 1.463 . S
C2871 C2876 1.350 . S
C2871 N2879 1.427 . S
C2872 H2863 0.930 . S
C2872 C2870 1.378 . S
C2872 C2873 1.367 . S
C2873 C2872 1.367 . S
C2873 C2875 1.433 . S
C2874 C2870 1.350 . S
C2874 C2871 1.463 . S
C2874 N2878 1.427 . S
C2875 H2865 0.929 . S
C2875 C2873 1.433 . S
C2875 N2878 1.384 . S
C2876 H2867 0.929 . S
C2876 C2868 1.378 . S
C2876 C2871 1.350 . S
C2877 H2864 0.929 . S
C2877 C2869 1.433 . S
C2877 N2879 1.384 . S
N2878 C2874 1.427 . S
N2878 C2875 1.384 . S
N2879 C2871 1.427 . S
N2879 C2877 1.384 . S
H2880 C2886 0.921 1_655 S
H2881 C2890 0.930 . S
H2882 C2895 0.929 . S
H2883 C2893 0.929 1_554 S
H2884 C2888 0.929 . S
H2885 C2894 0.929 . S
C2886 H2880 0.921 1_455 S
C2886 C2887 1.367 . S
C2886 C2894 1.378 . S
C2887 C2886 1.367 . S
C2887 C2895 1.433 . S
C2888 H2884 0.929 . S
C2888 C2890 1.378 . S
C2888 C2892 1.350 . S
C2889 C2892 1.463 . S
C2889 C2894 1.350 . S
C2889 N2897 1.427 . S
C2890 H2881 0.930 . S
C2890 C2888 1.378 . S
C2890 C2891 1.367 . S
C2891 C2890 1.367 . S
C2891 C2893 1.433 . S
C2892 C2888 1.350 . S
C2892 C2889 1.463 . S
C2892 N2896 1.427 . S
C2893 H2883 0.929 1_556 S
C2893 C2891 1.433 . S
C2893 N2896 1.384 . S
C2894 H2885 0.929 . S
C2894 C2886 1.378 . S
C2894 C2889 1.350 . S
C2895 H2882 0.929 . S
C2895 C2887 1.433 . S
C2895 N2897 1.384 . S
N2896 C2892 1.427 . S
N2896 C2893 1.384 . S
N2897 C2889 1.427 . S
N2897 C2895 1.384 . S
H2898 C2904 0.930 . S
H2899 C2908 0.930 . S
H2900 C2913 0.929 . S
H2901 C2911 0.929 . S
H2902 C2906 0.929 . S
H2903 C2912 0.929 . S
C2904 H2898 0.930 . S
C2904 C2905 1.367 . S
C2904 C2912 1.378 . S
C2905 C2904 1.367 . S
C2905 C2913 1.433 . S
C2906 H2902 0.929 . S
C2906 C2908 1.378 . S
C2906 C2910 1.350 . S
C2907 C2910 1.463 . S
C2907 C2912 1.350 . S
C2907 N2915 1.427 . S
C2908 H2899 0.930 . S
C2908 C2906 1.378 . S
C2908 C2909 1.367 . S
C2909 C2908 1.367 . S
C2909 C2911 1.433 . S
C2910 C2906 1.350 . S
C2910 C2907 1.463 . S
C2910 N2914 1.427 . S
C2911 H2901 0.929 . S
C2911 C2909 1.433 . S
C2911 N2914 1.384 . S
C2912 H2903 0.929 . S
C2912 C2904 1.378 . S
C2912 C2907 1.350 . S
C2913 H2900 0.929 . S
C2913 C2905 1.433 . S
C2913 N2915 1.384 . S
N2914 C2910 1.427 . S
N2914 C2911 1.384 . S
N2915 C2907 1.427 . S
N2915 C2913 1.384 . S
H2916 C2922 0.930 . S
H2917 C2926 0.930 . S
H2918 C2931 0.929 . S
H2919 C2929 0.929 . S
H2920 C2924 0.929 . S
H2921 C2930 0.929 . S
C2922 H2916 0.930 . S
C2922 C2923 1.367 . S
C2922 C2930 1.378 . S
C2923 C2922 1.367 . S
C2923 C2931 1.433 . S
C2924 H2920 0.929 . S
C2924 C2926 1.378 . S
C2924 C2928 1.350 . S
C2925 C2928 1.463 . S
C2925 C2930 1.350 . S
C2925 N2933 1.427 . S
C2926 H2917 0.930 . S
C2926 C2924 1.378 . S
C2926 C2927 1.367 . S
C2927 C2926 1.367 . S
C2927 C2929 1.433 . S
C2928 C2924 1.350 . S
C2928 C2925 1.463 . S
C2928 N2932 1.427 . S
C2929 H2919 0.929 . S
C2929 C2927 1.433 . S
C2929 N2932 1.384 . S
C2930 H2921 0.929 . S
C2930 C2922 1.378 . S
C2930 C2925 1.350 . S
C2931 H2918 0.929 . S
C2931 C2923 1.433 . S
C2931 N2933 1.384 . S
N2932 C2928 1.427 . S
N2932 C2929 1.384 . S
N2933 C2925 1.427 . S
N2933 C2931 1.384 . S
H2934 C2940 0.930 . S
H2935 C2944 0.930 . S
H2936 C2949 0.929 . S
H2937 C2947 0.929 . S
H2938 C2942 0.929 . S
H2939 C2948 0.929 . S
C2940 H2934 0.930 . S
C2940 C2941 1.367 . S
C2940 C2948 1.378 . S
C2941 C2940 1.367 . S
C2941 C2949 1.433 . S
C2942 H2938 0.929 . S
C2942 C2944 1.378 . S
C2942 C2946 1.350 . S
C2943 C2946 1.463 . S
C2943 C2948 1.350 . S
C2943 N2951 1.427 . S
C2944 H2935 0.930 . S
C2944 C2942 1.378 . S
C2944 C2945 1.367 . S
C2945 C2944 1.367 . S
C2945 C2947 1.433 . S
C2946 C2942 1.350 . S
C2946 C2943 1.463 . S
C2946 N2950 1.427 . S
C2947 H2937 0.929 . S
C2947 C2945 1.433 . S
C2947 N2950 1.384 . S
C2948 H2939 0.929 . S
C2948 C2940 1.378 . S
C2948 C2943 1.350 . S
C2949 H2936 0.929 . S
C2949 C2941 1.433 . S
C2949 N2951 1.384 . S
N2950 C2946 1.427 . S
N2950 C2947 1.384 . S
N2951 C2943 1.427 . S
N2951 C2949 1.384 . S
H2952 C2958 0.930 . S
H2953 C2962 0.930 . S
H2954 C2967 0.929 . S
H2955 C2965 0.929 . S
H2956 C2960 0.929 . S
H2957 C2966 0.929 . S
C2958 H2952 0.930 . S
C2958 C2959 1.367 . S
C2958 C2966 1.378 . S
C2959 C2958 1.367 . S
C2959 C2967 1.433 . S
C2960 H2956 0.929 . S
C2960 C2962 1.378 . S
C2960 C2964 1.350 . S
C2961 C2964 1.463 . S
C2961 C2966 1.350 . S
C2961 N2969 1.427 . S
C2962 H2953 0.930 . S
C2962 C2960 1.378 . S
C2962 C2963 1.367 . S
C2963 C2962 1.367 . S
C2963 C2965 1.433 . S
C2964 C2960 1.350 . S
C2964 C2961 1.463 . S
C2964 N2968 1.427 . S
C2965 H2955 0.929 . S
C2965 C2963 1.433 . S
C2965 N2968 1.384 . S
C2966 H2957 0.929 . S
C2966 C2958 1.378 . S
C2966 C2961 1.350 . S
C2967 H2954 0.929 . S
C2967 C2959 1.433 . S
C2967 N2969 1.384 . S
N2968 C2964 1.427 . S
N2968 C2965 1.384 . S
N2969 C2961 1.427 . S
N2969 C2967 1.384 . S
H2970 C2976 0.930 . S
H2971 C2980 0.930 . S
H2972 C2985 0.929 . S
H2973 C2983 0.929 . S
H2974 C2978 0.929 . S
H2975 C2984 0.929 . S
C2976 H2970 0.930 . S
C2976 C2977 1.367 . S
C2976 C2984 1.378 . S
C2977 C2976 1.367 . S
C2977 C2985 1.433 . S
C2978 H2974 0.929 . S
C2978 C2980 1.378 . S
C2978 C2982 1.350 . S
C2979 C2982 1.463 . S
C2979 C2984 1.350 . S
C2979 N2987 1.427 . S
C2980 H2971 0.930 . S
C2980 C2978 1.378 . S
C2980 C2981 1.367 . S
C2981 C2980 1.367 . S
C2981 C2983 1.433 . S
C2982 C2978 1.350 . S
C2982 C2979 1.463 . S
C2982 N2986 1.427 . S
C2983 H2973 0.929 . S
C2983 C2981 1.433 . S
C2983 N2986 1.384 . S
C2984 H2975 0.929 . S
C2984 C2976 1.378 . S
C2984 C2979 1.350 . S
C2985 H2972 0.929 . S
C2985 C2977 1.433 . S
C2985 N2987 1.384 . S
N2986 C2982 1.427 . S
N2986 C2983 1.384 . S
N2987 C2979 1.427 . S
N2987 C2985 1.384 . S
H2988 C2994 0.930 . S
H2989 C2998 0.930 . S
H2990 C3003 0.929 . S
H2991 C3001 0.929 . S
H2992 C2996 0.929 . S
H2993 C3002 0.929 . S
C2994 H2988 0.930 . S
C2994 C2995 1.367 . S
C2994 C3002 1.378 . S
C2995 C2994 1.367 . S
C2995 C3003 1.433 . S
C2996 H2992 0.929 . S
C2996 C2998 1.378 . S
C2996 C3000 1.350 . S
C2997 C3000 1.463 . S
C2997 C3002 1.350 . S
C2997 N3005 1.427 . S
C2998 H2989 0.930 . S
C2998 C2996 1.378 . S
C2998 C2999 1.367 . S
C2999 C2998 1.367 . S
C2999 C3001 1.433 . S
C3000 C2996 1.350 . S
C3000 C2997 1.463 . S
C3000 N3004 1.427 . S
C3001 H2991 0.929 . S
C3001 C2999 1.433 . S
C3001 N3004 1.384 . S
C3002 H2993 0.929 . S
C3002 C2994 1.378 . S
C3002 C2997 1.350 . S
C3003 H2990 0.929 . S
C3003 C2995 1.433 . S
C3003 N3005 1.384 . S
N3004 C3000 1.427 . S
N3004 C3001 1.384 . S
N3005 C2997 1.427 . S
N3005 C3003 1.384 . S
H3006 C3012 0.930 . S
H3007 C3016 0.930 . S
H3008 C3021 0.929 . S
H3009 C3019 0.929 . S
H3010 C3014 0.929 . S
H3011 C3020 0.929 . S
C3012 H3006 0.930 . S
C3012 C3013 1.367 . S
C3012 C3020 1.378 . S
C3013 C3012 1.367 . S
C3013 C3021 1.433 . S
C3014 H3010 0.929 . S
C3014 C3016 1.378 . S
C3014 C3018 1.350 . S
C3015 C3018 1.463 . S
C3015 C3020 1.350 . S
C3015 N3023 1.427 . S
C3016 H3007 0.930 . S
C3016 C3014 1.378 . S
C3016 C3017 1.367 . S
C3017 C3016 1.367 . S
C3017 C3019 1.433 . S
C3018 C3014 1.350 . S
C3018 C3015 1.463 . S
C3018 N3022 1.427 . S
C3019 H3009 0.929 . S
C3019 C3017 1.433 . S
C3019 N3022 1.384 . S
C3020 H3011 0.929 . S
C3020 C3012 1.378 . S
C3020 C3015 1.350 . S
C3021 H3008 0.929 . S
C3021 C3013 1.433 . S
C3021 N3023 1.384 . S
N3022 C3018 1.427 . S
N3022 C3019 1.384 . S
N3023 C3015 1.427 . S
N3023 C3021 1.384 . S
H3024 C3030 0.930 . S
H3025 C3034 0.930 . S
H3026 C3039 0.929 . S
H3027 C3037 0.929 . S
H3028 C3032 0.929 . S
H3029 C3038 0.929 . S
C3030 H3024 0.930 . S
C3030 C3031 1.367 1_565 S
C3030 C3038 1.378 . S
C3031 C3030 1.367 1_545 S
C3031 C3039 1.433 . S
C3032 H3028 0.929 . S
C3032 C3034 1.378 . S
C3032 C3036 1.350 . S
C3033 C3036 1.463 . S
C3033 C3038 1.350 1_545 S
C3033 N3041 1.427 . S
C3034 H3025 0.930 . S
C3034 C3032 1.378 . S
C3034 C3035 1.367 . S
C3035 C3034 1.367 . S
C3035 C3037 1.433 1_545 S
C3036 C3032 1.350 . S
C3036 C3033 1.463 . S
C3036 N3040 1.427 1_545 S
C3037 H3027 0.929 . S
C3037 C3035 1.433 1_565 S
C3037 N3040 1.384 . S
C3038 H3029 0.929 . S
C3038 C3030 1.378 . S
C3038 C3033 1.350 1_565 S
C3039 H3026 0.929 . S
C3039 C3031 1.433 . S
C3039 N3041 1.384 . S
N3040 C3036 1.427 1_565 S
N3040 C3037 1.384 . S
N3041 C3033 1.427 . S
N3041 C3039 1.384 . S
H3042 C3048 0.930 . S
H3043 C3052 0.930 . S
H3044 C3057 0.929 . S
H3045 C3055 0.929 . S
H3046 C3050 0.929 . S
H3047 C3056 0.929 . S
C3048 H3042 0.930 . S
C3048 C3049 1.367 . S
C3048 C3056 1.378 . S
C3049 C3048 1.367 . S
C3049 C3057 1.433 . S
C3050 H3046 0.929 . S
C3050 C3052 1.378 . S
C3050 C3054 1.350 . S
C3051 C3054 1.463 . S
C3051 C3056 1.350 . S
C3051 N3059 1.427 . S
C3052 H3043 0.930 . S
C3052 C3050 1.378 . S
C3052 C3053 1.367 . S
C3053 C3052 1.367 . S
C3053 C3055 1.433 . S
C3054 C3050 1.350 . S
C3054 C3051 1.463 . S
C3054 N3058 1.427 . S
C3055 H3045 0.929 . S
C3055 C3053 1.433 . S
C3055 N3058 1.384 . S
C3056 H3047 0.929 . S
C3056 C3048 1.378 . S
C3056 C3051 1.350 . S
C3057 H3044 0.929 . S
C3057 C3049 1.433 . S
C3057 N3059 1.384 . S
N3058 C3054 1.427 . S
N3058 C3055 1.384 . S
N3059 C3051 1.427 . S
N3059 C3057 1.384 . S
H3060 C3066 0.930 . S
H3061 C3070 0.930 . S
H3062 C3075 0.929 . S
H3063 C3073 0.929 . S
H3064 C3068 0.929 . S
H3065 C3074 0.929 . S
C3066 H3060 0.930 . S
C3066 C3067 1.367 1_565 S
C3066 C3074 1.378 . S
C3067 C3066 1.367 1_545 S
C3067 C3075 1.433 . S
C3068 H3064 0.929 . S
C3068 C3070 1.378 . S
C3068 C3072 1.350 . S
C3069 C3072 1.463 . S
C3069 C3074 1.350 1_545 S
C3069 N3077 1.427 . S
C3070 H3061 0.930 . S
C3070 C3068 1.378 . S
C3070 C3071 1.378 . S
C3071 C3070 1.378 . S
C3071 C3073 1.422 1_545 S
C3072 C3068 1.350 . S
C3072 C3069 1.463 . S
C3072 N3076 1.427 1_545 S
C3073 H3063 0.929 . S
C3073 C3071 1.422 1_565 S
C3073 N3076 1.384 . S
C3074 H3065 0.929 . S
C3074 C3066 1.378 . S
C3074 C3069 1.350 1_565 S
C3075 H3062 0.929 . S
C3075 C3067 1.433 . S
C3075 N3077 1.384 . S
N3076 C3072 1.427 1_565 S
N3076 C3073 1.384 . S
N3077 C3069 1.427 . S
N3077 C3075 1.384 . S
H3078 C3084 0.930 . S
H3079 C3088 0.930 . S
H3080 C3093 0.929 . S
H3081 C3091 0.929 . S
H3082 C3086 0.929 . S
H3083 C3092 0.929 . S
C3084 H3078 0.930 . S
C3084 C3085 1.367 . S
C3084 C3092 1.378 . S
C3085 C3084 1.367 . S
C3085 C3093 1.433 . S
C3086 H3082 0.929 . S
C3086 C3088 1.378 . S
C3086 C3090 1.350 . S
C3087 C3090 1.463 . S
C3087 C3092 1.350 . S
C3087 N3095 1.427 . S
C3088 H3079 0.930 . S
C3088 C3086 1.378 . S
C3088 C3089 1.367 . S
C3089 C3088 1.367 . S
C3089 C3091 1.433 . S
C3090 C3086 1.350 . S
C3090 C3087 1.463 . S
C3090 N3094 1.427 . S
C3091 H3081 0.929 . S
C3091 C3089 1.433 . S
C3091 N3094 1.384 . S
C3092 H3083 0.929 . S
C3092 C3084 1.378 . S
C3092 C3087 1.350 . S
C3093 H3080 0.929 . S
C3093 C3085 1.433 . S
C3093 N3095 1.384 . S
N3094 C3090 1.427 . S
N3094 C3091 1.384 . S
N3095 C3087 1.427 . S
N3095 C3093 1.384 . S
H3096 C3102 0.930 . S
H3097 C3106 0.930 . S
H3098 C3111 0.929 . S
H3099 C3109 0.929 . S
H3100 C3104 0.929 . S
H3101 C3110 0.929 . S
C3102 H3096 0.930 . S
C3102 C3103 1.412 . S
C3102 C3110 1.378 . S
C3103 C3102 1.412 . S
C3103 C3111 1.385 1_545 S
C3104 H3100 0.929 . S
C3104 C3106 1.378 . S
C3104 C3108 1.350 . S
C3105 C3108 1.463 . S
C3105 C3110 1.350 1_565 S
C3105 N3113 1.427 . S
C3106 H3097 0.930 . S
C3106 C3104 1.378 . S
C3106 C3107 1.367 . S
C3107 C3106 1.367 . S
C3107 C3109 1.433 1_565 S
C3108 C3104 1.350 . S
C3108 C3105 1.463 . S
C3108 N3112 1.427 1_565 S
C3109 H3099 0.929 . S
C3109 C3107 1.433 1_545 S
C3109 N3112 1.384 . S
C3110 H3101 0.929 . S
C3110 C3102 1.378 . S
C3110 C3105 1.350 1_545 S
C3111 H3098 0.929 . S
C3111 C3103 1.385 1_565 S
C3111 N3113 1.384 . S
N3112 C3108 1.427 1_545 S
N3112 C3109 1.384 . S
N3113 C3105 1.427 . S
N3113 C3111 1.384 . S
H3114 C3120 0.930 . S
H3115 C3124 0.930 . S
H3116 C3129 0.929 . S
H3117 C3127 0.929 . S
H3118 C3122 0.929 . S
H3119 C3128 0.929 . S
C3120 H3114 0.930 . S
C3120 C3121 1.367 . S
C3120 C3128 1.378 . S
C3121 C3120 1.367 . S
C3121 C3129 1.433 . S
C3122 H3118 0.929 . S
C3122 C3124 1.378 . S
C3122 C3126 1.350 . S
C3123 C3126 1.463 . S
C3123 C3128 1.350 . S
C3123 N3131 1.427 . S
C3124 H3115 0.930 . S
C3124 C3122 1.378 . S
C3124 C3125 1.367 . S
C3125 C3124 1.367 . S
C3125 C3127 1.433 . S
C3126 C3122 1.350 . S
C3126 C3123 1.463 . S
C3126 N3130 1.427 . S
C3127 H3117 0.929 . S
C3127 C3125 1.433 . S
C3127 N3130 1.384 . S
C3128 H3119 0.929 . S
C3128 C3120 1.378 . S
C3128 C3123 1.350 . S
C3129 H3116 0.929 . S
C3129 C3121 1.433 . S
C3129 N3131 1.384 . S
N3130 C3126 1.427 . S
N3130 C3127 1.384 . S
N3131 C3123 1.427 . S
N3131 C3129 1.384 . S
H3132 C3138 0.930 . S
H3133 C3142 0.930 . S
H3134 C3147 0.929 . S
H3135 C3145 0.929 . S
H3136 C3140 0.929 . S
H3137 C3146 0.929 . S
C3138 H3132 0.930 . S
C3138 C3139 1.367 1_565 S
C3138 C3146 1.378 . S
C3139 C3138 1.367 1_545 S
C3139 C3147 1.433 . S
C3140 H3136 0.929 . S
C3140 C3142 1.378 . S
C3140 C3144 1.350 . S
C3141 C3144 1.463 . S
C3141 C3146 1.350 1_545 S
C3141 N3149 1.427 . S
C3142 H3133 0.930 . S
C3142 C3140 1.378 . S
C3142 C3143 1.367 . S
C3143 C3142 1.367 . S
C3143 C3145 1.433 1_545 S
C3144 C3140 1.350 . S
C3144 C3141 1.463 . S
C3144 N3148 1.427 1_545 S
C3145 H3135 0.929 . S
C3145 C3143 1.433 1_565 S
C3145 N3148 1.384 . S
C3146 H3137 0.929 . S
C3146 C3138 1.378 . S
C3146 C3141 1.350 1_565 S
C3147 H3134 0.929 . S
C3147 C3139 1.433 . S
C3147 N3149 1.384 . S
N3148 C3144 1.427 1_565 S
N3148 C3145 1.384 . S
N3149 C3141 1.427 . S
N3149 C3147 1.384 . S
H3150 C3156 0.930 . S
H3151 C3160 0.930 . S
H3152 C3165 0.929 . S
H3153 C3163 0.929 . S
H3154 C3158 0.929 . S
H3155 C3164 0.929 . S
C3156 H3150 0.930 . S
C3156 C3157 1.367 . S
C3156 C3164 1.378 . S
C3157 C3156 1.367 . S
C3157 C3165 1.433 . S
C3158 H3154 0.929 . S
C3158 C3160 1.378 . S
C3158 C3162 1.350 . S
C3159 C3162 1.463 . S
C3159 C3164 1.350 . S
C3159 N3167 1.427 . S
C3160 H3151 0.930 . S
C3160 C3158 1.378 . S
C3160 C3161 1.367 . S
C3161 C3160 1.367 . S
C3161 C3163 1.433 . S
C3162 C3158 1.350 . S
C3162 C3159 1.463 . S
C3162 N3166 1.427 . S
C3163 H3153 0.929 . S
C3163 C3161 1.433 . S
C3163 N3166 1.384 . S
C3164 H3155 0.929 . S
C3164 C3156 1.378 . S
C3164 C3159 1.350 . S
C3165 H3152 0.929 . S
C3165 C3157 1.433 . S
C3165 N3167 1.384 . S
N3166 C3162 1.427 . S
N3166 C3163 1.384 . S
N3167 C3159 1.427 . S
N3167 C3165 1.384 . S
H3168 C3174 0.930 . S
H3169 C3178 0.930 1_546 S
H3170 C3183 0.947 . S
H3171 C3181 0.929 . S
H3172 C3176 0.929 1_556 S
H3173 C3182 0.929 . S
C3174 H3168 0.930 . S
C3174 C3175 1.367 . S
C3174 C3182 1.378 . S
C3175 C3174 1.367 . S
C3175 C3183 1.418 1_554 S
C3176 H3172 0.929 1_554 S
C3176 C3178 1.378 . S
C3176 C3180 1.350 . S
C3177 C3180 1.463 . S
C3177 C3182 1.350 . S
C3177 N3185 1.446 . S
C3178 H3169 0.930 1_564 S
C3178 C3176 1.378 . S
C3178 C3179 1.367 . S
C3179 C3178 1.367 . S
C3179 C3181 1.433 . S
C3180 C3176 1.350 . S
C3180 C3177 1.463 . S
C3180 N3184 1.427 . S
C3181 H3171 0.929 . S
C3181 C3179 1.433 . S
C3181 N3184 1.384 . S
C3182 H3173 0.929 . S
C3182 C3174 1.378 . S
C3182 C3177 1.350 . S
C3183 H3170 0.947 . S
C3183 C3175 1.418 1_556 S
C3183 N3185 1.381 1_556 S
N3184 C3180 1.427 . S
N3184 C3181 1.384 . S
N3185 C3177 1.446 . S
N3185 C3183 1.381 1_554 S
H3186 C3192 0.930 . S
H3187 C3196 0.930 . S
H3188 C3201 0.929 . S
H3189 C3199 0.929 . S
H3190 C3194 0.929 . S
H3191 C3200 0.929 . S
C3192 H3186 0.930 . S
C3192 C3193 1.367 . S
C3192 C3200 1.378 . S
C3193 C3192 1.367 . S
C3193 C3201 1.433 1_554 S
C3194 H3190 0.929 . S
C3194 C3196 1.378 . S
C3194 C3198 1.350 . S
C3195 C3198 1.463 1_554 S
C3195 C3200 1.349 . S
C3195 N3203 1.428 1_554 S
C3196 H3187 0.930 . S
C3196 C3194 1.378 . S
C3196 C3197 1.367 . S
C3197 C3196 1.367 . S
C3197 C3199 1.433 1_556 S
C3198 C3194 1.350 . S
C3198 C3195 1.463 1_556 S
C3198 N3202 1.427 1_556 S
C3199 H3189 0.929 . S
C3199 C3197 1.433 1_554 S
C3199 N3202 1.384 . S
C3200 H3191 0.929 . S
C3200 C3192 1.378 . S
C3200 C3195 1.349 . S
C3201 H3188 0.929 . S
C3201 C3193 1.433 1_556 S
C3201 N3203 1.384 . S
N3202 C3198 1.427 1_554 S
N3202 C3199 1.384 . S
N3203 C3195 1.428 1_556 S
N3203 C3201 1.384 . S
H3204 C3210 0.930 . S
H3205 C3214 0.930 . S
H3206 C3219 0.929 . S
H3207 C3217 0.929 . S
H3208 C3212 0.929 . S
H3209 C3218 0.929 . S
C3210 H3204 0.930 . S
C3210 C3211 1.367 . S
C3210 C3218 1.378 . S
C3211 C3210 1.367 . S
C3211 C3219 1.433 . S
C3212 H3208 0.929 . S
C3212 C3214 1.378 . S
C3212 C3216 1.350 . S
C3213 C3216 1.463 . S
C3213 C3218 1.350 . S
C3213 N3221 1.427 . S
C3214 H3205 0.930 . S
C3214 C3212 1.378 . S
C3214 C3215 1.367 . S
C3215 C3214 1.367 . S
C3215 C3217 1.433 . S
C3216 C3212 1.350 . S
C3216 C3213 1.463 . S
C3216 N3220 1.427 . S
C3217 H3207 0.929 . S
C3217 C3215 1.433 . S
C3217 N3220 1.384 . S
C3218 H3209 0.929 . S
C3218 C3210 1.378 . S
C3218 C3213 1.350 . S
C3219 H3206 0.929 . S
C3219 C3211 1.433 . S
C3219 N3221 1.384 . S
N3220 C3216 1.427 . S
N3220 C3217 1.384 . S
N3221 C3213 1.427 . S
N3221 C3219 1.384 . S
H3222 C3228 0.930 . S
H3223 C3232 0.930 . S
H3224 C3237 0.929 . S
H3225 C3235 0.929 . S
H3226 C3230 0.929 . S
H3227 C3236 0.929 . S
C3228 H3222 0.930 . S
C3228 C3229 1.367 . S
C3228 C3236 1.378 . S
C3229 C3228 1.367 . S
C3229 C3237 1.433 . S
C3230 H3226 0.929 . S
C3230 C3232 1.378 . S
C3230 C3234 1.350 . S
C3231 C3234 1.463 . S
C3231 C3236 1.350 . S
C3231 N3239 1.427 . S
C3232 H3223 0.930 . S
C3232 C3230 1.378 . S
C3232 C3233 1.367 . S
C3233 C3232 1.367 . S
C3233 C3235 1.433 . S
C3234 C3230 1.350 . S
C3234 C3231 1.463 . S
C3234 N3238 1.427 . S
C3235 H3225 0.929 . S
C3235 C3233 1.433 . S
C3235 N3238 1.384 . S
C3236 H3227 0.929 . S
C3236 C3228 1.378 . S
C3236 C3231 1.350 . S
C3237 H3224 0.929 . S
C3237 C3229 1.433 . S
C3237 N3239 1.384 . S
N3238 C3234 1.427 . S
N3238 C3235 1.384 . S
N3239 C3231 1.427 . S
N3239 C3237 1.384 . S
H3240 C3246 0.930 . S
H3241 C3250 0.930 . S
H3242 C3255 0.929 . S
H3243 C3253 0.929 . S
H3244 C3248 0.929 . S
H3245 C3254 0.929 . S
C3246 H3240 0.930 . S
C3246 C3247 1.367 . S
C3246 C3254 1.378 . S
C3247 C3246 1.367 . S
C3247 C3255 1.433 . S
C3248 H3244 0.929 . S
C3248 C3250 1.378 . S
C3248 C3252 1.350 . S
C3249 C3252 1.463 . S
C3249 C3254 1.350 . S
C3249 N3257 1.427 . S
C3250 H3241 0.930 . S
C3250 C3248 1.378 . S
C3250 C3251 1.367 . S
C3251 C3250 1.367 . S
C3251 C3253 1.433 . S
C3252 C3248 1.350 . S
C3252 C3249 1.463 . S
C3252 N3256 1.427 . S
C3253 H3243 0.929 . S
C3253 C3251 1.433 . S
C3253 N3256 1.384 . S
C3254 H3245 0.929 . S
C3254 C3246 1.378 . S
C3254 C3249 1.350 . S
C3255 H3242 0.929 . S
C3255 C3247 1.433 . S
C3255 N3257 1.384 . S
N3256 C3252 1.427 . S
N3256 C3253 1.384 . S
N3257 C3249 1.427 . S
N3257 C3255 1.384 . S
H3258 C3264 0.930 . S
H3259 C3268 0.930 . S
H3260 C3273 0.929 . S
H3261 C3271 0.929 . S
H3262 C3266 0.929 . S
H3263 C3272 0.929 . S
C3264 H3258 0.930 . S
C3264 C3265 1.367 . S
C3264 C3272 1.378 . S
C3265 C3264 1.367 . S
C3265 C3273 1.433 . S
C3266 H3262 0.929 . S
C3266 C3268 1.378 . S
C3266 C3270 1.350 . S
C3267 C3270 1.463 . S
C3267 C3272 1.350 . S
C3267 N3275 1.427 . S
C3268 H3259 0.930 . S
C3268 C3266 1.378 . S
C3268 C3269 1.367 . S
C3269 C3268 1.367 . S
C3269 C3271 1.433 . S
C3270 C3266 1.350 . S
C3270 C3267 1.463 . S
C3270 N3274 1.427 . S
C3271 H3261 0.929 . S
C3271 C3269 1.433 . S
C3271 N3274 1.384 . S
C3272 H3263 0.929 . S
C3272 C3264 1.378 . S
C3272 C3267 1.350 . S
C3273 H3260 0.929 . S
C3273 C3265 1.433 . S
C3273 N3275 1.384 . S
N3274 C3270 1.427 . S
N3274 C3271 1.384 . S
N3275 C3267 1.427 . S
N3275 C3273 1.384 . S
H3276 C3282 0.930 . S
H3277 C3286 0.930 . S
H3278 C3291 0.929 . S
H3279 C3289 0.929 . S
H3280 C3284 0.929 . S
H3281 C3290 0.929 . S
C3282 H3276 0.930 . S
C3282 C3283 1.367 . S
C3282 C3290 1.378 . S
C3283 C3282 1.367 . S
C3283 C3291 1.433 . S
C3284 H3280 0.929 . S
C3284 C3286 1.378 . S
C3284 C3288 1.350 . S
C3285 C3288 1.463 . S
C3285 C3290 1.350 . S
C3285 N3293 1.427 . S
C3286 H3277 0.930 . S
C3286 C3284 1.378 . S
C3286 C3287 1.367 . S
C3287 C3286 1.367 . S
C3287 C3289 1.433 . S
C3288 C3284 1.350 . S
C3288 C3285 1.463 . S
C3288 N3292 1.427 . S
C3289 H3279 0.929 . S
C3289 C3287 1.433 . S
C3289 N3292 1.384 . S
C3290 H3281 0.929 . S
C3290 C3282 1.378 . S
C3290 C3285 1.350 . S
C3291 H3278 0.929 . S
C3291 C3283 1.433 . S
C3291 N3293 1.384 . S
N3292 C3288 1.427 . S
N3292 C3289 1.384 . S
N3293 C3285 1.427 . S
N3293 C3291 1.384 . S
H3294 C3300 0.930 . S
H3295 C3304 0.930 . S
H3296 C3309 0.929 . S
H3297 C3307 0.929 . S
H3298 C3302 0.929 . S
H3299 C3308 0.929 . S
C3300 H3294 0.930 . S
C3300 C3301 1.367 . S
C3300 C3308 1.378 . S
C3301 C3300 1.367 . S
C3301 C3309 1.433 . S
C3302 H3298 0.929 . S
C3302 C3304 1.378 . S
C3302 C3306 1.350 . S
C3303 C3306 1.463 . S
C3303 C3308 1.350 . S
C3303 N3311 1.427 . S
C3304 H3295 0.930 . S
C3304 C3302 1.378 . S
C3304 C3305 1.367 . S
C3305 C3304 1.367 . S
C3305 C3307 1.433 . S
C3306 C3302 1.350 . S
C3306 C3303 1.463 . S
C3306 N3310 1.427 . S
C3307 H3297 0.929 . S
C3307 C3305 1.433 . S
C3307 N3310 1.384 . S
C3308 H3299 0.929 . S
C3308 C3300 1.378 . S
C3308 C3303 1.350 . S
C3309 H3296 0.929 . S
C3309 C3301 1.433 . S
C3309 N3311 1.384 . S
N3310 C3306 1.427 . S
N3310 C3307 1.384 . S
N3311 C3303 1.427 . S
N3311 C3309 1.384 . S
H3312 C3318 0.930 . S
H3313 C3322 0.930 . S
H3314 C3327 0.929 . S
H3315 C3325 0.929 . S
H3316 C3320 0.929 . S
H3317 C3326 0.929 . S
C3318 H3312 0.930 . S
C3318 C3319 1.367 . S
C3318 C3326 1.378 . S
C3319 C3318 1.367 . S
C3319 C3327 1.433 . S
C3320 H3316 0.929 . S
C3320 C3322 1.378 . S
C3320 C3324 1.350 . S
C3321 C3324 1.463 . S
C3321 C3326 1.350 . S
C3321 N3329 1.427 . S
C3322 H3313 0.930 . S
C3322 C3320 1.378 . S
C3322 C3323 1.367 . S
C3323 C3322 1.367 . S
C3323 C3325 1.433 . S
C3324 C3320 1.350 . S
C3324 C3321 1.463 . S
C3324 N3328 1.427 . S
C3325 H3315 0.929 . S
C3325 C3323 1.433 . S
C3325 N3328 1.384 . S
C3326 H3317 0.929 . S
C3326 C3318 1.378 . S
C3326 C3321 1.350 . S
C3327 H3314 0.929 . S
C3327 C3319 1.433 . S
C3327 N3329 1.384 . S
N3328 C3324 1.427 . S
N3328 C3325 1.384 . S
N3329 C3321 1.427 . S
N3329 C3327 1.384 . S
H3330 C3336 0.930 . S
H3331 C3340 0.930 . S
H3332 C3345 0.929 . S
H3333 C3343 0.929 . S
H3334 C3338 0.929 . S
H3335 C3344 0.929 . S
C3336 H3330 0.930 . S
C3336 C3337 1.367 . S
C3336 C3344 1.378 . S
C3337 C3336 1.367 . S
C3337 C3345 1.433 . S
C3338 H3334 0.929 . S
C3338 C3340 1.378 . S
C3338 C3342 1.350 . S
C3339 C3342 1.463 . S
C3339 C3344 1.350 . S
C3339 N3347 1.427 . S
C3340 H3331 0.930 . S
C3340 C3338 1.378 . S
C3340 C3341 1.367 . S
C3341 C3340 1.367 . S
C3341 C3343 1.433 . S
C3342 C3338 1.350 . S
C3342 C3339 1.463 . S
C3342 N3346 1.427 . S
C3343 H3333 0.929 . S
C3343 C3341 1.433 . S
C3343 N3346 1.384 . S
C3344 H3335 0.929 . S
C3344 C3336 1.378 . S
C3344 C3339 1.350 . S
C3345 H3332 0.929 . S
C3345 C3337 1.433 . S
C3345 N3347 1.384 . S
N3346 C3342 1.427 . S
N3346 C3343 1.384 . S
N3347 C3339 1.427 . S
N3347 C3345 1.384 . S
H3348 C3354 0.943 . S
H3349 C3358 0.930 1_556 S
H3350 C3363 0.929 . S
H3351 C3361 0.943 . S
H3352 C3356 0.929 . S
H3353 C3362 0.922 1_655 S
C3354 H3348 0.943 . S
C3354 C3355 1.357 1_655 S
C3354 C3362 1.376 1_655 S
C3355 C3354 1.357 1_455 S
C3355 C3363 1.433 . S
C3356 H3352 0.929 . S
C3356 C3358 1.378 . S
C3356 C3360 1.350 . S
C3357 C3360 1.463 . S
C3357 C3362 1.359 . S
C3357 N3365 1.427 . S
C3358 H3349 0.930 1_554 S
C3358 C3356 1.378 . S
C3358 C3359 1.367 . S
C3359 C3358 1.367 . S
C3359 C3361 1.433 . S
C3360 C3356 1.350 . S
C3360 C3357 1.463 . S
C3360 N3364 1.427 . S
C3361 H3351 0.943 . S
C3361 C3359 1.433 . S
C3361 N3364 1.384 . S
C3362 H3353 0.922 1_455 S
C3362 C3354 1.376 1_455 S
C3362 C3357 1.359 . S
C3363 H3350 0.929 . S
C3363 C3355 1.433 . S
C3363 N3365 1.384 . S
N3364 C3360 1.427 . S
N3364 C3361 1.384 . S
N3365 C3357 1.427 . S
N3365 C3363 1.384 . S
H3366 C3372 0.930 . S
H3367 C3376 0.930 . S
H3368 C3381 0.929 . S
H3369 C3379 0.929 . S
H3370 C3374 0.929 . S
H3371 C3380 0.929 . S
C3372 H3366 0.930 . S
C3372 C3373 1.367 . S
C3372 C3380 1.378 . S
C3373 C3372 1.367 . S
C3373 C3381 1.433 . S
C3374 H3370 0.929 . S
C3374 C3376 1.378 . S
C3374 C3378 1.350 . S
C3375 C3378 1.463 . S
C3375 C3380 1.350 . S
C3375 N3383 1.427 . S
C3376 H3367 0.930 . S
C3376 C3374 1.378 . S
C3376 C3377 1.367 . S
C3377 C3376 1.367 . S
C3377 C3379 1.433 . S
C3378 C3374 1.350 . S
C3378 C3375 1.463 . S
C3378 N3382 1.427 . S
C3379 H3369 0.929 . S
C3379 C3377 1.433 . S
C3379 N3382 1.384 . S
C3380 H3371 0.929 . S
C3380 C3372 1.378 . S
C3380 C3375 1.350 . S
C3381 H3368 0.929 . S
C3381 C3373 1.433 . S
C3381 N3383 1.384 . S
N3382 C3378 1.427 . S
N3382 C3379 1.384 . S
N3383 C3375 1.427 . S
N3383 C3381 1.384 . S
H3384 C3390 0.930 . S
H3385 C3394 0.930 1_554 S
H3386 C3399 0.929 . S
H3387 C3397 0.929 . S
H3388 C3392 0.929 . S
H3389 C3398 0.929 . S
C3390 H3384 0.930 . S
C3390 C3391 1.367 . S
C3390 C3398 1.378 . S
C3391 C3390 1.367 . S
C3391 C3399 1.433 . S
C3392 H3388 0.929 . S
C3392 C3394 1.378 . S
C3392 C3396 1.350 . S
C3393 C3396 1.463 . S
C3393 C3398 1.350 . S
C3393 N3401 1.427 . S
C3394 H3385 0.930 1_556 S
C3394 C3392 1.378 . S
C3394 C3395 1.367 . S
C3395 C3394 1.367 . S
C3395 C3397 1.433 . S
C3396 C3392 1.350 . S
C3396 C3393 1.463 . S
C3396 N3400 1.427 . S
C3397 H3387 0.929 . S
C3397 C3395 1.433 . S
C3397 N3400 1.384 . S
C3398 H3389 0.929 . S
C3398 C3390 1.378 . S
C3398 C3393 1.350 . S
C3399 H3386 0.929 . S
C3399 C3391 1.433 . S
C3399 N3401 1.384 . S
N3400 C3396 1.427 . S
N3400 C3397 1.384 . S
N3401 C3393 1.427 . S
N3401 C3399 1.384 . S
H3402 C3408 0.930 . S
H3403 C3412 0.930 . S
H3404 C3417 0.929 . S
H3405 C3415 0.929 . S
H3406 C3410 0.929 . S
H3407 C3416 0.929 . S
C3408 H3402 0.930 . S
C3408 C3409 1.367 . S
C3408 C3416 1.378 . S
C3409 C3408 1.367 . S
C3409 C3417 1.433 . S
C3410 H3406 0.929 . S
C3410 C3412 1.378 . S
C3410 C3414 1.350 . S
C3411 C3414 1.463 . S
C3411 C3416 1.350 . S
C3411 N3419 1.427 . S
C3412 H3403 0.930 . S
C3412 C3410 1.378 . S
C3412 C3413 1.367 . S
C3413 C3412 1.367 . S
C3413 C3415 1.433 . S
C3414 C3410 1.350 . S
C3414 C3411 1.463 . S
C3414 N3418 1.427 . S
C3415 H3405 0.929 . S
C3415 C3413 1.433 . S
C3415 N3418 1.384 . S
C3416 H3407 0.929 . S
C3416 C3408 1.378 . S
C3416 C3411 1.350 . S
C3417 H3404 0.929 . S
C3417 C3409 1.433 . S
C3417 N3419 1.384 . S
N3418 C3414 1.427 . S
N3418 C3415 1.384 . S
N3419 C3411 1.427 . S
N3419 C3417 1.384 . S
H3420 C3426 0.930 . S
H3421 C3430 0.907 1_655 S
H3422 C3435 0.929 . S
H3423 C3433 0.929 . S
H3424 C3428 0.947 . S
H3425 C3434 0.929 . S
C3426 H3420 0.930 . S
C3426 C3427 1.367 . S
C3426 C3434 1.378 . S
C3427 C3426 1.367 . S
C3427 C3435 1.433 1_455 S
C3428 H3424 0.947 . S
C3428 C3430 1.375 1_655 S
C3428 C3432 1.334 1_655 S
C3429 C3432 1.463 . S
C3429 C3434 1.350 . S
C3429 N3437 1.427 1_455 S
C3430 H3421 0.907 1_455 S
C3430 C3428 1.375 1_455 S
C3430 C3431 1.394 . S
C3431 C3430 1.394 . S
C3431 C3433 1.433 . S
C3432 C3428 1.334 1_455 S
C3432 C3429 1.463 . S
C3432 N3436 1.427 . S
C3433 H3423 0.929 . S
C3433 C3431 1.433 . S
C3433 N3436 1.384 . S
C3434 H3425 0.929 . S
C3434 C3426 1.378 . S
C3434 C3429 1.350 . S
C3435 H3422 0.929 . S
C3435 C3427 1.433 1_655 S
C3435 N3437 1.384 . S
N3436 C3432 1.427 . S
N3436 C3433 1.384 . S
N3437 C3429 1.427 1_655 S
N3437 C3435 1.384 . S
H3438 C3444 0.930 . S
H3439 C3448 0.930 . S
H3440 C3453 0.929 . S
H3441 C3451 0.929 . S
H3442 C3446 0.929 . S
H3443 C3452 0.929 . S
C3444 H3438 0.930 . S
C3444 C3445 1.367 . S
C3444 C3452 1.378 . S
C3445 C3444 1.367 . S
C3445 C3453 1.433 . S
C3446 H3442 0.929 . S
C3446 C3448 1.378 . S
C3446 C3450 1.350 . S
C3447 C3450 1.463 . S
C3447 C3452 1.350 . S
C3447 N3455 1.427 . S
C3448 H3439 0.930 . S
C3448 C3446 1.378 . S
C3448 C3449 1.367 . S
C3449 C3448 1.367 . S
C3449 C3451 1.433 . S
C3450 C3446 1.350 . S
C3450 C3447 1.463 . S
C3450 N3454 1.427 . S
C3451 H3441 0.929 . S
C3451 C3449 1.433 . S
C3451 N3454 1.384 . S
C3452 H3443 0.929 . S
C3452 C3444 1.378 . S
C3452 C3447 1.350 . S
C3453 H3440 0.929 . S
C3453 C3445 1.433 . S
C3453 N3455 1.384 . S
N3454 C3450 1.427 . S
N3454 C3451 1.384 . S
N3455 C3447 1.427 . S
N3455 C3453 1.384 . S
H3456 C3462 0.930 . S
H3457 C3466 0.930 . S
H3458 C3471 0.929 . S
H3459 C3469 0.929 . S
H3460 C3464 0.929 . S
H3461 C3470 0.929 . S
C3462 H3456 0.930 . S
C3462 C3463 1.367 . S
C3462 C3470 1.378 . S
C3463 C3462 1.367 . S
C3463 C3471 1.433 . S
C3464 H3460 0.929 . S
C3464 C3466 1.378 . S
C3464 C3468 1.350 . S
C3465 C3468 1.463 . S
C3465 C3470 1.350 . S
C3465 N3473 1.427 . S
C3466 H3457 0.930 . S
C3466 C3464 1.378 . S
C3466 C3467 1.367 . S
C3467 C3466 1.367 . S
C3467 C3469 1.433 . S
C3468 C3464 1.350 . S
C3468 C3465 1.463 . S
C3468 N3472 1.427 . S
C3469 H3459 0.929 . S
C3469 C3467 1.433 . S
C3469 N3472 1.384 . S
C3470 H3461 0.929 . S
C3470 C3462 1.378 . S
C3470 C3465 1.350 . S
C3471 H3458 0.929 . S
C3471 C3463 1.433 . S
C3471 N3473 1.384 . S
N3472 C3468 1.427 . S
N3472 C3469 1.384 . S
N3473 C3465 1.427 . S
N3473 C3471 1.384 . S
H3474 C3480 0.930 . S
H3475 C3484 0.930 . S
H3476 C3489 0.929 . S
H3477 C3487 0.929 . S
H3478 C3482 0.929 . S
H3479 C3488 0.929 . S
C3480 H3474 0.930 . S
C3480 C3481 1.367 . S
C3480 C3488 1.378 . S
C3481 C3480 1.367 . S
C3481 C3489 1.433 . S
C3482 H3478 0.929 . S
C3482 C3484 1.378 . S
C3482 C3486 1.350 . S
C3483 C3486 1.463 . S
C3483 C3488 1.350 . S
C3483 N3491 1.427 . S
C3484 H3475 0.930 . S
C3484 C3482 1.378 . S
C3484 C3485 1.367 . S
C3485 C3484 1.367 . S
C3485 C3487 1.433 . S
C3486 C3482 1.350 . S
C3486 C3483 1.463 . S
C3486 N3490 1.427 . S
C3487 H3477 0.929 . S
C3487 C3485 1.433 . S
C3487 N3490 1.384 . S
C3488 H3479 0.929 . S
C3488 C3480 1.378 . S
C3488 C3483 1.350 . S
C3489 H3476 0.929 . S
C3489 C3481 1.433 . S
C3489 N3491 1.384 . S
N3490 C3486 1.427 . S
N3490 C3487 1.384 . S
N3491 C3483 1.427 . S
N3491 C3489 1.384 . S
H3492 C3498 0.930 . S
H3493 C3502 0.930 . S
H3494 C3507 0.929 . S
H3495 C3505 0.929 . S
H3496 C3500 0.929 . S
H3497 C3506 0.929 . S
C3498 H3492 0.930 . S
C3498 C3499 1.367 . S
C3498 C3506 1.378 . S
C3499 C3498 1.367 . S
C3499 C3507 1.433 . S
C3500 H3496 0.929 . S
C3500 C3502 1.378 . S
C3500 C3504 1.350 . S
C3501 C3504 1.463 . S
C3501 C3506 1.350 . S
C3501 N3509 1.427 . S
C3502 H3493 0.930 . S
C3502 C3500 1.378 . S
C3502 C3503 1.367 . S
C3503 C3502 1.367 . S
C3503 C3505 1.433 . S
C3504 C3500 1.350 . S
C3504 C3501 1.463 . S
C3504 N3508 1.427 . S
C3505 H3495 0.929 . S
C3505 C3503 1.433 . S
C3505 N3508 1.384 . S
C3506 H3497 0.929 . S
C3506 C3498 1.378 . S
C3506 C3501 1.350 . S
C3507 H3494 0.929 . S
C3507 C3499 1.433 . S
C3507 N3509 1.384 . S
N3508 C3504 1.427 . S
N3508 C3505 1.384 . S
N3509 C3501 1.427 . S
N3509 C3507 1.384 . S
H3510 C3516 0.930 . S
H3511 C3520 0.930 . S
H3512 C3525 0.929 . S
H3513 C3523 0.929 . S
H3514 C3518 0.929 . S
H3515 C3524 0.929 . S
C3516 H3510 0.930 . S
C3516 C3517 1.367 . S
C3516 C3524 1.378 . S
C3517 C3516 1.367 . S
C3517 C3525 1.433 . S
C3518 H3514 0.929 . S
C3518 C3520 1.378 . S
C3518 C3522 1.350 . S
C3519 C3522 1.463 . S
C3519 C3524 1.350 . S
C3519 N3527 1.427 . S
C3520 H3511 0.930 . S
C3520 C3518 1.378 . S
C3520 C3521 1.367 . S
C3521 C3520 1.367 . S
C3521 C3523 1.433 . S
C3522 C3518 1.350 . S
C3522 C3519 1.463 . S
C3522 N3526 1.427 . S
C3523 H3513 0.929 . S
C3523 C3521 1.433 . S
C3523 N3526 1.384 . S
C3524 H3515 0.929 . S
C3524 C3516 1.378 . S
C3524 C3519 1.350 . S
C3525 H3512 0.929 . S
C3525 C3517 1.433 . S
C3525 N3527 1.384 . S
N3526 C3522 1.427 . S
N3526 C3523 1.384 . S
N3527 C3519 1.427 . S
N3527 C3525 1.384 . S
H3528 C3534 0.930 . S
H3529 C3538 0.930 . S
H3530 C3543 0.929 . S
H3531 C3541 0.929 . S
H3532 C3536 0.929 . S
H3533 C3542 0.929 . S
C3534 H3528 0.930 . S
C3534 C3535 1.367 . S
C3534 C3542 1.378 . S
C3535 C3534 1.367 . S
C3535 C3543 1.433 . S
C3536 H3532 0.929 . S
C3536 C3538 1.378 . S
C3536 C3540 1.350 . S
C3537 C3540 1.463 . S
C3537 C3542 1.350 . S
C3537 N3545 1.427 . S
C3538 H3529 0.930 . S
C3538 C3536 1.378 . S
C3538 C3539 1.367 . S
C3539 C3538 1.367 . S
C3539 C3541 1.433 . S
C3540 C3536 1.350 . S
C3540 C3537 1.463 . S
C3540 N3544 1.427 . S
C3541 H3531 0.929 . S
C3541 C3539 1.433 . S
C3541 N3544 1.384 . S
C3542 H3533 0.929 . S
C3542 C3534 1.378 . S
C3542 C3537 1.350 . S
C3543 H3530 0.929 . S
C3543 C3535 1.433 . S
C3543 N3545 1.384 . S
N3544 C3540 1.427 . S
N3544 C3541 1.384 . S
N3545 C3537 1.427 . S
N3545 C3543 1.384 . S
H3546 C3552 0.930 . S
H3547 C3556 0.930 . S
H3548 C3561 0.929 . S
H3549 C3559 0.929 . S
H3550 C3554 0.929 . S
H3551 C3560 0.929 . S
C3552 H3546 0.930 . S
C3552 C3553 1.367 . S
C3552 C3560 1.378 . S
C3553 C3552 1.367 . S
C3553 C3561 1.433 . S
C3554 H3550 0.929 . S
C3554 C3556 1.378 . S
C3554 C3558 1.350 . S
C3555 C3558 1.463 . S
C3555 C3560 1.350 . S
C3555 N3563 1.427 . S
C3556 H3547 0.930 . S
C3556 C3554 1.378 . S
C3556 C3557 1.367 . S
C3557 C3556 1.367 . S
C3557 C3559 1.433 . S
C3558 C3554 1.350 . S
C3558 C3555 1.463 . S
C3558 N3562 1.427 . S
C3559 H3549 0.929 . S
C3559 C3557 1.433 . S
C3559 N3562 1.384 . S
C3560 H3551 0.929 . S
C3560 C3552 1.378 . S
C3560 C3555 1.350 . S
C3561 H3548 0.929 . S
C3561 C3553 1.433 . S
C3561 N3563 1.384 . S
N3562 C3558 1.427 . S
N3562 C3559 1.384 . S
N3563 C3555 1.427 . S
N3563 C3561 1.384 . S
H3564 C3570 0.930 . S
H3565 C3574 0.930 . S
H3566 C3579 0.929 . S
H3567 C3577 0.929 . S
H3568 C3572 0.929 . S
H3569 C3578 0.929 . S
C3570 H3564 0.930 . S
C3570 C3571 1.367 . S
C3570 C3578 1.378 . S
C3571 C3570 1.367 . S
C3571 C3579 1.433 . S
C3572 H3568 0.929 . S
C3572 C3574 1.378 . S
C3572 C3576 1.350 . S
C3573 C3576 1.463 . S
C3573 C3578 1.350 . S
C3573 N3581 1.427 . S
C3574 H3565 0.930 . S
C3574 C3572 1.378 . S
C3574 C3575 1.367 . S
C3575 C3574 1.367 . S
C3575 C3577 1.433 . S
C3576 C3572 1.350 . S
C3576 C3573 1.463 . S
C3576 N3580 1.427 . S
C3577 H3567 0.929 . S
C3577 C3575 1.433 . S
C3577 N3580 1.384 . S
C3578 H3569 0.929 . S
C3578 C3570 1.378 . S
C3578 C3573 1.350 . S
C3579 H3566 0.929 . S
C3579 C3571 1.433 . S
C3579 N3581 1.384 . S
N3580 C3576 1.427 . S
N3580 C3577 1.384 . S
N3581 C3573 1.427 . S
N3581 C3579 1.384 . S
H3582 C3588 0.930 . S
H3583 C3592 0.930 . S
H3584 C3597 0.929 . S
H3585 C3595 0.929 . S
H3586 C3590 0.929 . S
H3587 C3596 0.929 . S
C3588 H3582 0.930 . S
C3588 C3589 1.367 . S
C3588 C3596 1.378 . S
C3589 C3588 1.367 . S
C3589 C3597 1.433 . S
C3590 H3586 0.929 . S
C3590 C3592 1.378 . S
C3590 C3594 1.350 . S
C3591 C3594 1.463 . S
C3591 C3596 1.350 . S
C3591 N3599 1.427 . S
C3592 H3583 0.930 . S
C3592 C3590 1.378 . S
C3592 C3593 1.367 . S
C3593 C3592 1.367 . S
C3593 C3595 1.433 . S
C3594 C3590 1.350 . S
C3594 C3591 1.463 . S
C3594 N3598 1.427 . S
C3595 H3585 0.929 . S
C3595 C3593 1.433 . S
C3595 N3598 1.384 . S
C3596 H3587 0.929 . S
C3596 C3588 1.378 . S
C3596 C3591 1.350 . S
C3597 H3584 0.929 . S
C3597 C3589 1.433 . S
C3597 N3599 1.384 . S
N3598 C3594 1.427 . S
N3598 C3595 1.384 . S
N3599 C3591 1.427 . S
N3599 C3597 1.384 . S
H3600 C3606 0.930 . S
H3601 C3610 0.930 . S
H3602 C3615 0.929 . S
H3603 C3613 0.929 . S
H3604 C3608 0.929 . S
H3605 C3614 0.929 . S
C3606 H3600 0.930 . S
C3606 C3607 1.367 . S
C3606 C3614 1.378 . S
C3607 C3606 1.367 . S
C3607 C3615 1.433 . S
C3608 H3604 0.929 . S
C3608 C3610 1.378 . S
C3608 C3612 1.350 . S
C3609 C3612 1.463 . S
C3609 C3614 1.350 . S
C3609 N3617 1.427 . S
C3610 H3601 0.930 . S
C3610 C3608 1.378 . S
C3610 C3611 1.367 . S
C3611 C3610 1.367 . S
C3611 C3613 1.433 . S
C3612 C3608 1.350 . S
C3612 C3609 1.463 . S
C3612 N3616 1.427 . S
C3613 H3603 0.929 . S
C3613 C3611 1.433 . S
C3613 N3616 1.384 . S
C3614 H3605 0.929 . S
C3614 C3606 1.378 . S
C3614 C3609 1.350 . S
C3615 H3602 0.929 . S
C3615 C3607 1.433 . S
C3615 N3617 1.384 . S
N3616 C3612 1.427 . S
N3616 C3613 1.384 . S
N3617 C3609 1.427 . S
N3617 C3615 1.384 . S
H3618 C3624 0.930 . S
H3619 C3628 0.930 . S
H3620 C3633 0.929 . S
H3621 C3631 0.929 1_545 S
H3622 C3626 0.929 . S
H3623 C3632 0.929 . S
C3624 H3618 0.930 . S
C3624 C3625 1.367 . S
C3624 C3632 1.378 . S
C3625 C3624 1.367 . S
C3625 C3633 1.433 . S
C3626 H3622 0.929 . S
C3626 C3628 1.378 . S
C3626 C3630 1.350 . S
C3627 C3630 1.463 . S
C3627 C3632 1.350 . S
C3627 N3635 1.427 . S
C3628 H3619 0.930 . S
C3628 C3626 1.378 . S
C3628 C3629 1.367 . S
C3629 C3628 1.367 . S
C3629 C3631 1.433 . S
C3630 C3626 1.350 . S
C3630 C3627 1.463 . S
C3630 N3634 1.427 . S
C3631 H3621 0.929 1_565 S
C3631 C3629 1.433 . S
C3631 N3634 1.384 . S
C3632 H3623 0.929 . S
C3632 C3624 1.378 . S
C3632 C3627 1.350 . S
C3633 H3620 0.929 . S
C3633 C3625 1.433 . S
C3633 N3635 1.384 . S
N3634 C3630 1.427 . S
N3634 C3631 1.384 . S
N3635 C3627 1.427 . S
N3635 C3633 1.384 . S
H3636 C3642 0.930 . S
H3637 C3646 0.930 . S
H3638 C3651 0.929 . S
H3639 C3649 0.929 . S
H3640 C3644 0.929 . S
H3641 C3650 0.929 . S
C3642 H3636 0.930 . S
C3642 C3643 1.367 . S
C3642 C3650 1.378 . S
C3643 C3642 1.367 . S
C3643 C3651 1.433 . S
C3644 H3640 0.929 . S
C3644 C3646 1.378 . S
C3644 C3648 1.350 . S
C3645 C3648 1.463 . S
C3645 C3650 1.350 . S
C3645 N3653 1.427 . S
C3646 H3637 0.930 . S
C3646 C3644 1.378 . S
C3646 C3647 1.367 . S
C3647 C3646 1.367 . S
C3647 C3649 1.433 . S
C3648 C3644 1.350 . S
C3648 C3645 1.463 . S
C3648 N3652 1.427 . S
C3649 H3639 0.929 . S
C3649 C3647 1.433 . S
C3649 N3652 1.384 . S
C3650 H3641 0.929 . S
C3650 C3642 1.378 . S
C3650 C3645 1.350 . S
C3651 H3638 0.929 . S
C3651 C3643 1.433 . S
C3651 N3653 1.384 . S
N3652 C3648 1.427 . S
N3652 C3649 1.384 . S
N3653 C3645 1.427 . S
N3653 C3651 1.384 . S
H3654 C3660 0.930 . S
H3655 C3664 0.930 . S
H3656 C3669 0.929 . S
H3657 C3667 0.929 1_565 S
H3658 C3662 0.929 . S
H3659 C3668 0.929 . S
C3660 H3654 0.930 . S
C3660 C3661 1.367 . S
C3660 C3668 1.378 . S
C3661 C3660 1.367 . S
C3661 C3669 1.433 . S
C3662 H3658 0.929 . S
C3662 C3664 1.378 . S
C3662 C3666 1.350 . S
C3663 C3666 1.463 . S
C3663 C3668 1.350 . S
C3663 N3671 1.427 . S
C3664 H3655 0.930 . S
C3664 C3662 1.378 . S
C3664 C3665 1.367 . S
C3665 C3664 1.367 . S
C3665 C3667 1.433 . S
C3666 C3662 1.350 . S
C3666 C3663 1.463 . S
C3666 N3670 1.427 . S
C3667 H3657 0.929 1_545 S
C3667 C3665 1.433 . S
C3667 N3670 1.384 . S
C3668 H3659 0.929 . S
C3668 C3660 1.378 . S
C3668 C3663 1.350 . S
C3669 H3656 0.929 . S
C3669 C3661 1.433 . S
C3669 N3671 1.384 . S
N3670 C3666 1.427 . S
N3670 C3667 1.384 . S
N3671 C3663 1.427 . S
N3671 C3669 1.384 . S
H3672 C3678 0.930 . S
H3673 C3682 0.930 . S
H3674 C3687 0.929 . S
H3675 C3685 0.929 . S
H3676 C3680 0.929 . S
H3677 C3686 0.929 . S
C3678 H3672 0.930 . S
C3678 C3679 1.367 . S
C3678 C3686 1.378 . S
C3679 C3678 1.367 . S
C3679 C3687 1.433 . S
C3680 H3676 0.929 . S
C3680 C3682 1.378 . S
C3680 C3684 1.350 . S
C3681 C3684 1.463 . S
C3681 C3686 1.350 . S
C3681 N3689 1.427 . S
C3682 H3673 0.930 . S
C3682 C3680 1.378 . S
C3682 C3683 1.367 . S
C3683 C3682 1.367 . S
C3683 C3685 1.433 . S
C3684 C3680 1.350 . S
C3684 C3681 1.463 . S
C3684 N3688 1.427 . S
C3685 H3675 0.929 . S
C3685 C3683 1.433 . S
C3685 N3688 1.384 . S
C3686 H3677 0.929 . S
C3686 C3678 1.378 . S
C3686 C3681 1.350 . S
C3687 H3674 0.929 . S
C3687 C3679 1.433 . S
C3687 N3689 1.384 . S
N3688 C3684 1.427 . S
N3688 C3685 1.384 . S
N3689 C3681 1.427 . S
N3689 C3687 1.384 . S
H3690 C3696 0.930 . S
H3691 C3700 0.930 . S
H3692 C3705 0.929 . S
H3693 C3703 0.929 . S
H3694 C3698 0.929 . S
H3695 C3704 0.929 . S
C3696 H3690 0.930 . S
C3696 C3697 1.367 1_556 S
C3696 C3704 1.378 . S
C3697 C3696 1.367 1_554 S
C3697 C3705 1.433 . S
C3698 H3694 0.929 . S
C3698 C3700 1.378 . S
C3698 C3702 1.384 . S
C3699 C3702 1.465 . S
C3699 C3704 1.350 1_554 S
C3699 N3707 1.427 . S
C3700 H3691 0.930 . S
C3700 C3698 1.378 . S
C3700 C3701 1.367 1_554 S
C3701 C3700 1.367 1_556 S
C3701 C3703 1.433 . S
C3702 C3698 1.384 . S
C3702 C3699 1.465 . S
C3702 N3706 1.391 1_554 S
C3703 H3693 0.929 . S
C3703 C3701 1.433 . S
C3703 N3706 1.384 . S
C3704 H3695 0.929 . S
C3704 C3696 1.378 . S
C3704 C3699 1.350 1_556 S
C3705 H3692 0.929 . S
C3705 C3697 1.433 . S
C3705 N3707 1.384 . S
N3706 C3702 1.391 1_556 S
N3706 C3703 1.384 . S
N3707 C3699 1.427 . S
N3707 C3705 1.384 . S
H3708 C3714 0.930 . S
H3709 C3718 0.930 . S
H3710 C3723 0.929 . S
H3711 C3721 0.929 . S
H3712 C3716 0.929 . S
H3713 C3722 0.929 . S
C3714 H3708 0.930 . S
C3714 C3715 1.367 . S
C3714 C3722 1.378 . S
C3715 C3714 1.367 . S
C3715 C3723 1.433 . S
C3716 H3712 0.929 . S
C3716 C3718 1.378 . S
C3716 C3720 1.350 . S
C3717 C3720 1.463 . S
C3717 C3722 1.350 . S
C3717 N3725 1.427 . S
C3718 H3709 0.930 . S
C3718 C3716 1.378 . S
C3718 C3719 1.367 . S
C3719 C3718 1.367 . S
C3719 C3721 1.433 . S
C3720 C3716 1.350 . S
C3720 C3717 1.463 . S
C3720 N3724 1.427 . S
C3721 H3711 0.929 . S
C3721 C3719 1.433 . S
C3721 N3724 1.384 . S
C3722 H3713 0.929 . S
C3722 C3714 1.378 . S
C3722 C3717 1.350 . S
C3723 H3710 0.929 . S
C3723 C3715 1.433 . S
C3723 N3725 1.384 . S
N3724 C3720 1.427 . S
N3724 C3721 1.384 . S
N3725 C3717 1.427 . S
N3725 C3723 1.384 . S
H3726 C3732 0.930 . S
H3727 C3736 0.930 . S
H3728 C3741 0.929 . S
H3729 C3739 0.929 . S
H3730 C3734 0.929 . S
H3731 C3740 0.929 . S
C3732 H3726 0.930 . S
C3732 C3733 1.367 . S
C3732 C3740 1.378 . S
C3733 C3732 1.367 . S
C3733 C3741 1.433 . S
C3734 H3730 0.929 . S
C3734 C3736 1.378 . S
C3734 C3738 1.350 . S
C3735 C3738 1.463 . S
C3735 C3740 1.350 . S
C3735 N3743 1.427 . S
C3736 H3727 0.930 . S
C3736 C3734 1.378 . S
C3736 C3737 1.367 . S
C3737 C3736 1.367 . S
C3737 C3739 1.433 . S
C3738 C3734 1.350 . S
C3738 C3735 1.463 . S
C3738 N3742 1.427 . S
C3739 H3729 0.929 . S
C3739 C3737 1.433 . S
C3739 N3742 1.384 . S
C3740 H3731 0.929 . S
C3740 C3732 1.378 . S
C3740 C3735 1.350 . S
C3741 H3728 0.929 . S
C3741 C3733 1.433 . S
C3741 N3743 1.384 . S
N3742 C3738 1.427 . S
N3742 C3739 1.384 . S
N3743 C3735 1.427 . S
N3743 C3741 1.384 . S
H3744 C3750 0.930 . S
H3745 C3754 0.930 . S
H3746 C3759 0.929 . S
H3747 C3757 0.929 . S
H3748 C3752 0.929 . S
H3749 C3758 0.929 . S
C3750 H3744 0.930 . S
C3750 C3751 1.367 . S
C3750 C3758 1.378 . S
C3751 C3750 1.367 . S
C3751 C3759 1.433 . S
C3752 H3748 0.929 . S
C3752 C3754 1.378 . S
C3752 C3756 1.350 . S
C3753 C3756 1.463 . S
C3753 C3758 1.350 . S
C3753 N3761 1.427 . S
C3754 H3745 0.930 . S
C3754 C3752 1.378 . S
C3754 C3755 1.367 . S
C3755 C3754 1.367 . S
C3755 C3757 1.433 . S
C3756 C3752 1.350 . S
C3756 C3753 1.463 . S
C3756 N3760 1.427 . S
C3757 H3747 0.929 . S
C3757 C3755 1.433 . S
C3757 N3760 1.384 . S
C3758 H3749 0.929 . S
C3758 C3750 1.378 . S
C3758 C3753 1.350 . S
C3759 H3746 0.929 . S
C3759 C3751 1.433 . S
C3759 N3761 1.384 . S
N3760 C3756 1.427 . S
N3760 C3757 1.384 . S
N3761 C3753 1.427 . S
N3761 C3759 1.384 . S
H3762 C3768 0.930 . S
H3763 C3772 0.930 . S
H3764 C3777 0.929 . S
H3765 C3775 0.929 . S
H3766 C3770 0.929 . S
H3767 C3776 0.929 . S
C3768 H3762 0.930 . S
C3768 C3769 1.367 . S
C3768 C3776 1.378 . S
C3769 C3768 1.367 . S
C3769 C3777 1.433 . S
C3770 H3766 0.929 . S
C3770 C3772 1.378 . S
C3770 C3774 1.350 . S
C3771 C3774 1.463 . S
C3771 C3776 1.350 . S
C3771 N3779 1.427 . S
C3772 H3763 0.930 . S
C3772 C3770 1.378 . S
C3772 C3773 1.367 . S
C3773 C3772 1.367 . S
C3773 C3775 1.433 . S
C3774 C3770 1.350 . S
C3774 C3771 1.463 . S
C3774 N3778 1.427 . S
C3775 H3765 0.929 . S
C3775 C3773 1.433 . S
C3775 N3778 1.384 . S
C3776 H3767 0.929 . S
C3776 C3768 1.378 . S
C3776 C3771 1.350 . S
C3777 H3764 0.929 . S
C3777 C3769 1.433 . S
C3777 N3779 1.384 . S
N3778 C3774 1.427 . S
N3778 C3775 1.384 . S
N3779 C3771 1.427 . S
N3779 C3777 1.384 . S
H3780 C3786 0.930 . S
H3781 C3790 0.930 . S
H3782 C3795 0.929 . S
H3783 C3793 0.929 . S
H3784 C3788 0.929 . S
H3785 C3794 0.929 . S
C3786 H3780 0.930 . S
C3786 C3787 1.367 . S
C3786 C3794 1.378 . S
C3787 C3786 1.367 . S
C3787 C3795 1.433 1_455 S
C3788 H3784 0.929 . S
C3788 C3790 1.378 . S
C3788 C3792 1.365 . S
C3789 C3792 1.460 1_455 S
C3789 C3794 1.350 . S
C3789 N3797 1.427 1_455 S
C3790 H3781 0.930 . S
C3790 C3788 1.378 . S
C3790 C3791 1.367 . S
C3791 C3790 1.367 . S
C3791 C3793 1.433 1_655 S
C3792 C3788 1.365 . S
C3792 C3789 1.460 1_655 S
C3792 N3796 1.414 1_655 S
C3793 H3783 0.929 . S
C3793 C3791 1.433 1_455 S
C3793 N3796 1.384 . S
C3794 H3785 0.929 . S
C3794 C3786 1.378 . S
C3794 C3789 1.350 . S
C3795 H3782 0.929 . S
C3795 C3787 1.433 1_655 S
C3795 N3797 1.384 . S
N3796 C3792 1.414 1_455 S
N3796 C3793 1.384 . S
N3797 C3789 1.427 1_655 S
N3797 C3795 1.384 . S
H3798 C3804 0.930 . S
H3799 C3808 0.930 . S
H3800 C3813 0.929 . S
H3801 C3811 0.929 . S
H3802 C3806 0.929 . S
H3803 C3812 0.929 . S
C3804 H3798 0.930 . S
C3804 C3805 1.367 . S
C3804 C3812 1.378 . S
C3805 C3804 1.367 . S
C3805 C3813 1.433 . S
C3806 H3802 0.929 . S
C3806 C3808 1.378 . S
C3806 C3810 1.350 . S
C3807 C3810 1.463 . S
C3807 C3812 1.350 . S
C3807 N3815 1.427 . S
C3808 H3799 0.930 . S
C3808 C3806 1.378 . S
C3808 C3809 1.367 . S
C3809 C3808 1.367 . S
C3809 C3811 1.433 . S
C3810 C3806 1.350 . S
C3810 C3807 1.463 . S
C3810 N3814 1.427 . S
C3811 H3801 0.929 . S
C3811 C3809 1.433 . S
C3811 N3814 1.384 . S
C3812 H3803 0.929 . S
C3812 C3804 1.378 . S
C3812 C3807 1.350 . S
C3813 H3800 0.929 . S
C3813 C3805 1.433 . S
C3813 N3815 1.384 . S
N3814 C3810 1.427 . S
N3814 C3811 1.384 . S
N3815 C3807 1.427 . S
N3815 C3813 1.384 . S
H3816 C3822 0.930 . S
H3817 C3826 0.930 . S
H3818 C3831 0.929 . S
H3819 C3829 0.929 . S
H3820 C3824 0.929 . S
H3821 C3830 0.929 . S
C3822 H3816 0.930 . S
C3822 C3823 1.367 . S
C3822 C3830 1.378 . S
C3823 C3822 1.367 . S
C3823 C3831 1.433 . S
C3824 H3820 0.929 . S
C3824 C3826 1.378 . S
C3824 C3828 1.350 . S
C3825 C3828 1.463 . S
C3825 C3830 1.350 . S
C3825 N3833 1.427 . S
C3826 H3817 0.930 . S
C3826 C3824 1.378 . S
C3826 C3827 1.367 . S
C3827 C3826 1.367 . S
C3827 C3829 1.433 . S
C3828 C3824 1.350 . S
C3828 C3825 1.463 . S
C3828 N3832 1.427 . S
C3829 H3819 0.929 . S
C3829 C3827 1.433 . S
C3829 N3832 1.384 . S
C3830 H3821 0.929 . S
C3830 C3822 1.378 . S
C3830 C3825 1.350 . S
C3831 H3818 0.929 . S
C3831 C3823 1.433 . S
C3831 N3833 1.384 . S
N3832 C3828 1.427 . S
N3832 C3829 1.384 . S
N3833 C3825 1.427 . S
N3833 C3831 1.384 . S
H3834 C3840 0.930 . S
H3835 C3844 0.930 . S
H3836 C3849 0.929 . S
H3837 C3847 0.929 . S
H3838 C3842 0.929 . S
H3839 C3848 0.929 . S
C3840 H3834 0.930 . S
C3840 C3841 1.367 . S
C3840 C3848 1.378 . S
C3841 C3840 1.367 . S
C3841 C3849 1.433 . S
C3842 H3838 0.929 . S
C3842 C3844 1.378 . S
C3842 C3846 1.350 . S
C3843 C3846 1.463 . S
C3843 C3848 1.350 . S
C3843 N3851 1.427 . S
C3844 H3835 0.930 . S
C3844 C3842 1.378 . S
C3844 C3845 1.367 . S
C3845 C3844 1.367 . S
C3845 C3847 1.433 . S
C3846 C3842 1.350 . S
C3846 C3843 1.463 . S
C3846 N3850 1.427 . S
C3847 H3837 0.929 . S
C3847 C3845 1.433 . S
C3847 N3850 1.384 . S
C3848 H3839 0.929 . S
C3848 C3840 1.378 . S
C3848 C3843 1.350 . S
C3849 H3836 0.929 . S
C3849 C3841 1.433 . S
C3849 N3851 1.384 . S
N3850 C3846 1.427 . S
N3850 C3847 1.384 . S
N3851 C3843 1.427 . S
N3851 C3849 1.384 . S
H3852 C3858 0.930 . S
H3853 C3862 0.930 . S
H3854 C3867 0.929 . S
H3855 C3865 0.929 . S
H3856 C3860 0.929 . S
H3857 C3866 0.929 . S
C3858 H3852 0.930 . S
C3858 C3859 1.367 1_655 S
C3858 C3866 1.378 . S
C3859 C3858 1.367 1_455 S
C3859 C3867 1.433 . S
C3860 H3856 0.929 . S
C3860 C3862 1.378 . S
C3860 C3864 1.361 . S
C3861 C3864 1.464 . S
C3861 C3866 1.350 1_455 S
C3861 N3869 1.427 . S
C3862 H3853 0.930 . S
C3862 C3860 1.378 . S
C3862 C3863 1.367 1_455 S
C3863 C3862 1.367 1_655 S
C3863 C3865 1.433 . S
C3864 C3860 1.361 . S
C3864 C3861 1.464 . S
C3864 N3868 1.415 1_455 S
C3865 H3855 0.929 . S
C3865 C3863 1.433 . S
C3865 N3868 1.384 . S
C3866 H3857 0.929 . S
C3866 C3858 1.378 . S
C3866 C3861 1.350 1_655 S
C3867 H3854 0.929 . S
C3867 C3859 1.433 . S
C3867 N3869 1.384 . S
N3868 C3864 1.415 1_655 S
N3868 C3865 1.384 . S
N3869 C3861 1.427 . S
N3869 C3867 1.384 . S
H3870 C3876 0.930 . S
H3871 C3880 0.930 . S
H3872 C3885 0.929 . S
H3873 C3883 0.929 . S
H3874 C3878 0.929 . S
H3875 C3884 0.929 . S
C3876 H3870 0.930 . S
C3876 C3877 1.367 . S
C3876 C3884 1.378 . S
C3877 C3876 1.367 . S
C3877 C3885 1.433 . S
C3878 H3874 0.929 . S
C3878 C3880 1.378 . S
C3878 C3882 1.350 . S
C3879 C3882 1.463 . S
C3879 C3884 1.350 . S
C3879 N3887 1.427 . S
C3880 H3871 0.930 . S
C3880 C3878 1.378 . S
C3880 C3881 1.367 . S
C3881 C3880 1.367 . S
C3881 C3883 1.433 . S
C3882 C3878 1.350 . S
C3882 C3879 1.463 . S
C3882 N3886 1.427 . S
C3883 H3873 0.929 . S
C3883 C3881 1.433 . S
C3883 N3886 1.384 . S
C3884 H3875 0.929 . S
C3884 C3876 1.378 . S
C3884 C3879 1.350 . S
C3885 H3872 0.929 . S
C3885 C3877 1.433 . S
C3885 N3887 1.384 . S
N3886 C3882 1.427 . S
N3886 C3883 1.384 . S
N3887 C3879 1.427 . S
N3887 C3885 1.384 . S
H3888 C3894 0.930 . S
H3889 C3898 0.930 . S
H3890 C3903 0.929 . S
H3891 C3901 0.929 . S
H3892 C3896 0.929 . S
H3893 C3902 0.929 . S
C3894 H3888 0.930 . S
C3894 C3895 1.367 . S
C3894 C3902 1.378 . S
C3895 C3894 1.367 . S
C3895 C3903 1.433 . S
C3896 H3892 0.929 . S
C3896 C3898 1.378 . S
C3896 C3900 1.350 . S
C3897 C3900 1.463 . S
C3897 C3902 1.350 . S
C3897 N3905 1.427 . S
C3898 H3889 0.930 . S
C3898 C3896 1.378 . S
C3898 C3899 1.367 . S
C3899 C3898 1.367 . S
C3899 C3901 1.433 . S
C3900 C3896 1.350 . S
C3900 C3897 1.463 . S
C3900 N3904 1.427 . S
C3901 H3891 0.929 . S
C3901 C3899 1.433 . S
C3901 N3904 1.384 . S
C3902 H3893 0.929 . S
C3902 C3894 1.378 . S
C3902 C3897 1.350 . S
C3903 H3890 0.929 . S
C3903 C3895 1.433 . S
C3903 N3905 1.384 . S
N3904 C3900 1.427 . S
N3904 C3901 1.384 . S
N3905 C3897 1.427 . S
N3905 C3903 1.384 . S
H3906 C3912 0.930 . S
H3907 C3916 0.930 . S
H3908 C3921 0.929 . S
H3909 C3919 0.929 . S
H3910 C3914 0.929 . S
H3911 C3920 0.929 . S
C3912 H3906 0.930 . S
C3912 C3913 1.367 . S
C3912 C3920 1.378 . S
C3913 C3912 1.367 . S
C3913 C3921 1.433 . S
C3914 H3910 0.929 . S
C3914 C3916 1.378 . S
C3914 C3918 1.350 . S
C3915 C3918 1.463 . S
C3915 C3920 1.350 . S
C3915 N3923 1.427 . S
C3916 H3907 0.930 . S
C3916 C3914 1.378 . S
C3916 C3917 1.367 . S
C3917 C3916 1.367 . S
C3917 C3919 1.433 . S
C3918 C3914 1.350 . S
C3918 C3915 1.463 . S
C3918 N3922 1.427 . S
C3919 H3909 0.929 . S
C3919 C3917 1.433 . S
C3919 N3922 1.384 . S
C3920 H3911 0.929 . S
C3920 C3912 1.378 . S
C3920 C3915 1.350 . S
C3921 H3908 0.929 . S
C3921 C3913 1.433 . S
C3921 N3923 1.384 . S
N3922 C3918 1.427 . S
N3922 C3919 1.384 . S
N3923 C3915 1.427 . S
N3923 C3921 1.384 . S
H3924 C3930 0.930 . S
H3925 C3934 0.930 . S
H3926 C3939 0.929 . S
H3927 C3937 0.929 . S
H3928 C3932 0.929 . S
H3929 C3938 0.929 . S
C3930 H3924 0.930 . S
C3930 C3931 1.367 . S
C3930 C3938 1.378 . S
C3931 C3930 1.367 . S
C3931 C3939 1.433 . S
C3932 H3928 0.929 . S
C3932 C3934 1.378 . S
C3932 C3936 1.350 . S
C3933 C3936 1.463 . S
C3933 C3938 1.350 . S
C3933 N3941 1.427 . S
C3934 H3925 0.930 . S
C3934 C3932 1.378 . S
C3934 C3935 1.367 . S
C3935 C3934 1.367 . S
C3935 C3937 1.433 . S
C3936 C3932 1.350 . S
C3936 C3933 1.463 . S
C3936 N3940 1.427 . S
C3937 H3927 0.929 . S
C3937 C3935 1.433 . S
C3937 N3940 1.384 . S
C3938 H3929 0.929 . S
C3938 C3930 1.378 . S
C3938 C3933 1.350 . S
C3939 H3926 0.929 . S
C3939 C3931 1.433 . S
C3939 N3941 1.384 . S
N3940 C3936 1.427 . S
N3940 C3937 1.384 . S
N3941 C3933 1.427 . S
N3941 C3939 1.384 . S
H3942 C3948 0.930 . S
H3943 C3952 0.930 . S
H3944 C3957 0.929 . S
H3945 C3955 0.929 . S
H3946 C3950 0.929 . S
H3947 C3956 0.929 . S
C3948 H3942 0.930 . S
C3948 C3949 1.367 . S
C3948 C3956 1.378 . S
C3949 C3948 1.367 . S
C3949 C3957 1.433 . S
C3950 H3946 0.929 . S
C3950 C3952 1.378 . S
C3950 C3954 1.350 . S
C3951 C3954 1.463 . S
C3951 C3956 1.350 . S
C3951 N3959 1.427 . S
C3952 H3943 0.930 . S
C3952 C3950 1.378 . S
C3952 C3953 1.367 . S
C3953 C3952 1.367 . S
C3953 C3955 1.433 . S
C3954 C3950 1.350 . S
C3954 C3951 1.463 . S
C3954 N3958 1.427 . S
C3955 H3945 0.929 . S
C3955 C3953 1.433 . S
C3955 N3958 1.384 . S
C3956 H3947 0.929 . S
C3956 C3948 1.378 . S
C3956 C3951 1.350 . S
C3957 H3944 0.929 . S
C3957 C3949 1.433 . S
C3957 N3959 1.384 . S
N3958 C3954 1.427 . S
N3958 C3955 1.384 . S
N3959 C3951 1.427 . S
N3959 C3957 1.384 . S
H3960 C3966 0.930 . S
H3961 C3970 0.930 . S
H3962 C3975 0.929 . S
H3963 C3973 0.929 . S
H3964 C3968 0.929 . S
H3965 C3974 0.929 . S
C3966 H3960 0.930 . S
C3966 C3967 1.367 . S
C3966 C3974 1.378 . S
C3967 C3966 1.367 . S
C3967 C3975 1.433 . S
C3968 H3964 0.929 . S
C3968 C3970 1.378 . S
C3968 C3972 1.350 . S
C3969 C3972 1.463 . S
C3969 C3974 1.350 . S
C3969 N3977 1.427 . S
C3970 H3961 0.930 . S
C3970 C3968 1.378 . S
C3970 C3971 1.367 . S
C3971 C3970 1.367 . S
C3971 C3973 1.433 . S
C3972 C3968 1.350 . S
C3972 C3969 1.463 . S
C3972 N3976 1.427 . S
C3973 H3963 0.929 . S
C3973 C3971 1.433 . S
C3973 N3976 1.384 . S
C3974 H3965 0.929 . S
C3974 C3966 1.378 . S
C3974 C3969 1.350 . S
C3975 H3962 0.929 . S
C3975 C3967 1.433 . S
C3975 N3977 1.384 . S
N3976 C3972 1.427 . S
N3976 C3973 1.384 . S
N3977 C3969 1.427 . S
N3977 C3975 1.384 . S
H3978 C3984 0.930 . S
H3979 C3988 0.930 . S
H3980 C3993 0.929 . S
H3981 C3991 0.929 . S
H3982 C3986 0.929 . S
H3983 C3992 0.929 . S
C3984 H3978 0.930 . S
C3984 C3985 1.367 . S
C3984 C3992 1.378 . S
C3985 C3984 1.367 . S
C3985 C3993 1.433 . S
C3986 H3982 0.929 . S
C3986 C3988 1.378 . S
C3986 C3990 1.350 . S
C3987 C3990 1.463 . S
C3987 C3992 1.350 . S
C3987 N3995 1.427 . S
C3988 H3979 0.930 . S
C3988 C3986 1.378 . S
C3988 C3989 1.367 . S
C3989 C3988 1.367 . S
C3989 C3991 1.433 . S
C3990 C3986 1.350 . S
C3990 C3987 1.463 . S
C3990 N3994 1.427 . S
C3991 H3981 0.929 . S
C3991 C3989 1.433 . S
C3991 N3994 1.384 . S
C3992 H3983 0.929 . S
C3992 C3984 1.378 . S
C3992 C3987 1.350 . S
C3993 H3980 0.929 . S
C3993 C3985 1.433 . S
C3993 N3995 1.384 . S
N3994 C3990 1.427 . S
N3994 C3991 1.384 . S
N3995 C3987 1.427 . S
N3995 C3993 1.384 . S
H3996 C4002 0.930 . S
H3997 C4006 0.930 . S
H3998 C4011 0.929 . S
H3999 C4009 0.929 . S
H4000 C4004 0.929 . S
H4001 C4010 0.929 . S
C4002 H3996 0.930 . S
C4002 C4003 1.367 . S
C4002 C4010 1.378 . S
C4003 C4002 1.367 . S
C4003 C4011 1.433 . S
C4004 H4000 0.929 . S
C4004 C4006 1.378 . S
C4004 C4008 1.350 . S
C4005 C4008 1.463 . S
C4005 C4010 1.350 . S
C4005 N4013 1.427 . S
C4006 H3997 0.930 . S
C4006 C4004 1.378 . S
C4006 C4007 1.367 . S
C4007 C4006 1.367 . S
C4007 C4009 1.433 . S
C4008 C4004 1.350 . S
C4008 C4005 1.463 . S
C4008 N4012 1.427 . S
C4009 H3999 0.929 . S
C4009 C4007 1.433 . S
C4009 N4012 1.384 . S
C4010 H4001 0.929 . S
C4010 C4002 1.378 . S
C4010 C4005 1.350 . S
C4011 H3998 0.929 . S
C4011 C4003 1.433 . S
C4011 N4013 1.384 . S
N4012 C4008 1.427 . S
N4012 C4009 1.384 . S
N4013 C4005 1.427 . S
N4013 C4011 1.384 . S
H4014 C4020 0.930 . S
H4015 C4024 0.930 . S
H4016 C4029 0.929 . S
H4017 C4027 0.929 . S
H4018 C4022 0.929 . S
H4019 C4028 0.929 . S
C4020 H4014 0.930 . S
C4020 C4021 1.367 . S
C4020 C4028 1.378 . S
C4021 C4020 1.367 . S
C4021 C4029 1.433 . S
C4022 H4018 0.929 . S
C4022 C4024 1.378 . S
C4022 C4026 1.350 . S
C4023 C4026 1.463 . S
C4023 C4028 1.350 . S
C4023 N4031 1.427 . S
C4024 H4015 0.930 . S
C4024 C4022 1.378 . S
C4024 C4025 1.367 . S
C4025 C4024 1.367 . S
C4025 C4027 1.433 . S
C4026 C4022 1.350 . S
C4026 C4023 1.463 . S
C4026 N4030 1.427 . S
C4027 H4017 0.929 . S
C4027 C4025 1.433 . S
C4027 N4030 1.384 . S
C4028 H4019 0.929 . S
C4028 C4020 1.378 . S
C4028 C4023 1.350 . S
C4029 H4016 0.929 . S
C4029 C4021 1.433 . S
C4029 N4031 1.384 . S
N4030 C4026 1.427 . S
N4030 C4027 1.384 . S
N4031 C4023 1.427 . S
N4031 C4029 1.384 . S
H4032 C4038 0.930 . S
H4033 C4042 0.930 . S
H4034 C4047 0.929 . S
H4035 C4045 0.929 . S
H4036 C4040 0.929 . S
H4037 C4046 0.929 . S
C4038 H4032 0.930 . S
C4038 C4039 1.367 . S
C4038 C4046 1.378 . S
C4039 C4038 1.367 . S
C4039 C4047 1.433 . S
C4040 H4036 0.929 . S
C4040 C4042 1.378 . S
C4040 C4044 1.350 . S
C4041 C4044 1.463 . S
C4041 C4046 1.350 . S
C4041 N4049 1.427 . S
C4042 H4033 0.930 . S
C4042 C4040 1.378 . S
C4042 C4043 1.367 . S
C4043 C4042 1.367 . S
C4043 C4045 1.433 . S
C4044 C4040 1.350 . S
C4044 C4041 1.463 . S
C4044 N4048 1.427 . S
C4045 H4035 0.929 . S
C4045 C4043 1.433 . S
C4045 N4048 1.384 . S
C4046 H4037 0.929 . S
C4046 C4038 1.378 . S
C4046 C4041 1.350 . S
C4047 H4034 0.929 . S
C4047 C4039 1.433 . S
C4047 N4049 1.384 . S
N4048 C4044 1.427 . S
N4048 C4045 1.384 . S
N4049 C4041 1.427 . S
N4049 C4047 1.384 . S
H4050 C4056 0.930 . S
H4051 C4060 0.930 . S
H4052 C4065 0.929 . S
H4053 C4063 0.929 . S
H4054 C4058 0.929 . S
H4055 C4064 0.929 . S
C4056 H4050 0.930 . S
C4056 C4057 1.367 . S
C4056 C4064 1.378 . S
C4057 C4056 1.367 . S
C4057 C4065 1.433 . S
C4058 H4054 0.929 . S
C4058 C4060 1.378 . S
C4058 C4062 1.350 . S
C4059 C4062 1.463 . S
C4059 C4064 1.350 . S
C4059 N4067 1.427 . S
C4060 H4051 0.930 . S
C4060 C4058 1.378 . S
C4060 C4061 1.367 . S
C4061 C4060 1.367 . S
C4061 C4063 1.433 . S
C4062 C4058 1.350 . S
C4062 C4059 1.463 . S
C4062 N4066 1.427 . S
C4063 H4053 0.929 . S
C4063 C4061 1.433 . S
C4063 N4066 1.384 . S
C4064 H4055 0.929 . S
C4064 C4056 1.378 . S
C4064 C4059 1.350 . S
C4065 H4052 0.929 . S
C4065 C4057 1.433 . S
C4065 N4067 1.384 . S
N4066 C4062 1.427 . S
N4066 C4063 1.384 . S
N4067 C4059 1.427 . S
N4067 C4065 1.384 . S
H4068 C4074 0.930 . S
H4069 C4078 0.930 . S
H4070 C4083 0.929 . S
H4071 C4081 0.929 . S
H4072 C4076 0.929 . S
H4073 C4082 0.929 . S
C4074 H4068 0.930 . S
C4074 C4075 1.367 . S
C4074 C4082 1.378 . S
C4075 C4074 1.367 . S
C4075 C4083 1.433 . S
C4076 H4072 0.929 . S
C4076 C4078 1.378 . S
C4076 C4080 1.350 . S
C4077 C4080 1.463 . S
C4077 C4082 1.350 . S
C4077 N4085 1.427 . S
C4078 H4069 0.930 . S
C4078 C4076 1.378 . S
C4078 C4079 1.367 . S
C4079 C4078 1.367 . S
C4079 C4081 1.433 . S
C4080 C4076 1.350 . S
C4080 C4077 1.463 . S
C4080 N4084 1.427 . S
C4081 H4071 0.929 . S
C4081 C4079 1.433 . S
C4081 N4084 1.384 . S
C4082 H4073 0.929 . S
C4082 C4074 1.378 . S
C4082 C4077 1.350 . S
C4083 H4070 0.929 . S
C4083 C4075 1.433 . S
C4083 N4085 1.384 . S
N4084 C4080 1.427 . S
N4084 C4081 1.384 . S
N4085 C4077 1.427 . S
N4085 C4083 1.384 . S
H4086 C4092 0.930 . S
H4087 C4096 0.930 . S
H4088 C4101 0.929 . S
H4089 C4099 0.929 . S
H4090 C4094 0.929 . S
H4091 C4100 0.929 . S
C4092 H4086 0.930 . S
C4092 C4093 1.367 . S
C4092 C4100 1.378 . S
C4093 C4092 1.367 . S
C4093 C4101 1.433 1_554 S
C4094 H4090 0.929 . S
C4094 C4096 1.378 . S
C4094 C4098 1.353 . S
C4095 C4098 1.462 1_554 S
C4095 C4100 1.350 . S
C4095 N4103 1.427 1_554 S
C4096 H4087 0.930 . S
C4096 C4094 1.378 . S
C4096 C4097 1.367 . S
C4097 C4096 1.367 . S
C4097 C4099 1.433 1_556 S
C4098 C4094 1.353 . S
C4098 C4095 1.462 1_556 S
C4098 N4102 1.425 1_556 S
C4099 H4089 0.929 . S
C4099 C4097 1.433 1_554 S
C4099 N4102 1.384 . S
C4100 H4091 0.929 . S
C4100 C4092 1.378 . S
C4100 C4095 1.350 . S
C4101 H4088 0.929 . S
C4101 C4093 1.433 1_556 S
C4101 N4103 1.384 . S
N4102 C4098 1.425 1_554 S
N4102 C4099 1.384 . S
N4103 C4095 1.427 1_556 S
N4103 C4101 1.384 . S
H4104 C4110 0.930 . S
H4105 C4114 0.930 . S
H4106 C4119 0.929 . S
H4107 C4117 0.929 . S
H4108 C4112 0.929 . S
H4109 C4118 0.929 . S
C4110 H4104 0.930 . S
C4110 C4111 1.367 . S
C4110 C4118 1.378 . S
C4111 C4110 1.367 . S
C4111 C4119 1.433 . S
C4112 H4108 0.929 . S
C4112 C4114 1.378 . S
C4112 C4116 1.350 . S
C4113 C4116 1.463 . S
C4113 C4118 1.350 . S
C4113 N4121 1.427 . S
C4114 H4105 0.930 . S
C4114 C4112 1.378 . S
C4114 C4115 1.367 . S
C4115 C4114 1.367 . S
C4115 C4117 1.433 . S
C4116 C4112 1.350 . S
C4116 C4113 1.463 . S
C4116 N4120 1.427 . S
C4117 H4107 0.929 . S
C4117 C4115 1.433 . S
C4117 N4120 1.384 . S
C4118 H4109 0.929 . S
C4118 C4110 1.378 . S
C4118 C4113 1.350 . S
C4119 H4106 0.929 . S
C4119 C4111 1.433 . S
C4119 N4121 1.384 . S
N4120 C4116 1.427 . S
N4120 C4117 1.384 . S
N4121 C4113 1.427 . S
N4121 C4119 1.384 . S
H4122 C4128 0.930 . S
H4123 C4132 0.930 . S
H4124 C4137 0.929 . S
H4125 C4135 0.929 . S
H4126 C4130 0.929 1_556 S
H4127 C4136 0.929 . S
C4128 H4122 0.930 . S
C4128 C4129 1.367 . S
C4128 C4136 1.378 . S
C4129 C4128 1.367 . S
C4129 C4137 1.433 1_554 S
C4130 H4126 0.929 1_554 S
C4130 C4132 1.378 . S
C4130 C4134 1.350 . S
C4131 C4134 1.463 . S
C4131 C4136 1.350 . S
C4131 N4139 1.422 1_554 S
C4132 H4123 0.930 . S
C4132 C4130 1.378 . S
C4132 C4133 1.367 . S
C4133 C4132 1.367 . S
C4133 C4135 1.433 . S
C4134 C4130 1.350 . S
C4134 C4131 1.463 . S
C4134 N4138 1.427 . S
C4135 H4125 0.929 . S
C4135 C4133 1.433 . S
C4135 N4138 1.384 . S
C4136 H4127 0.929 . S
C4136 C4128 1.378 . S
C4136 C4131 1.350 . S
C4137 H4124 0.929 . S
C4137 C4129 1.433 1_556 S
C4137 N4139 1.385 . S
N4138 C4134 1.427 . S
N4138 C4135 1.384 . S
N4139 C4131 1.422 1_556 S
N4139 C4137 1.385 . S
H4140 C4146 0.930 . S
H4141 C4150 0.930 . S
H4142 C4155 0.929 . S
H4143 C4153 0.929 . S
H4144 C4148 0.929 . S
H4145 C4154 0.929 . S
C4146 H4140 0.930 . S
C4146 C4147 1.367 . S
C4146 C4154 1.378 . S
C4147 C4146 1.367 . S
C4147 C4155 1.433 . S
C4148 H4144 0.929 . S
C4148 C4150 1.378 . S
C4148 C4152 1.350 . S
C4149 C4152 1.463 . S
C4149 C4154 1.350 . S
C4149 N4157 1.427 . S
C4150 H4141 0.930 . S
C4150 C4148 1.378 . S
C4150 C4151 1.367 . S
C4151 C4150 1.367 . S
C4151 C4153 1.433 . S
C4152 C4148 1.350 . S
C4152 C4149 1.463 . S
C4152 N4156 1.427 . S
C4153 H4143 0.929 . S
C4153 C4151 1.433 . S
C4153 N4156 1.384 . S
C4154 H4145 0.929 . S
C4154 C4146 1.378 . S
C4154 C4149 1.350 . S
C4155 H4142 0.929 . S
C4155 C4147 1.433 . S
C4155 N4157 1.384 . S
N4156 C4152 1.427 . S
N4156 C4153 1.384 . S
N4157 C4149 1.427 . S
N4157 C4155 1.384 . S
H4158 C4164 0.930 . S
H4159 C4168 0.930 . S
H4160 C4173 0.929 . S
H4161 C4171 0.929 . S
H4162 C4166 0.929 . S
H4163 C4172 0.929 . S
C4164 H4158 0.930 . S
C4164 C4165 1.367 . S
C4164 C4172 1.378 . S
C4165 C4164 1.367 . S
C4165 C4173 1.433 . S
C4166 H4162 0.929 . S
C4166 C4168 1.378 . S
C4166 C4170 1.350 . S
C4167 C4170 1.463 . S
C4167 C4172 1.350 . S
C4167 N4175 1.427 . S
C4168 H4159 0.930 . S
C4168 C4166 1.378 . S
C4168 C4169 1.367 . S
C4169 C4168 1.367 . S
C4169 C4171 1.433 . S
C4170 C4166 1.350 . S
C4170 C4167 1.463 . S
C4170 N4174 1.427 . S
C4171 H4161 0.929 . S
C4171 C4169 1.433 . S
C4171 N4174 1.384 . S
C4172 H4163 0.929 . S
C4172 C4164 1.378 . S
C4172 C4167 1.350 . S
C4173 H4160 0.929 . S
C4173 C4165 1.433 . S
C4173 N4175 1.384 . S
N4174 C4170 1.427 . S
N4174 C4171 1.384 . S
N4175 C4167 1.427 . S
N4175 C4173 1.384 . S
C2459 C2128 1.127 . S
C2455 C49 1.237 . S
C2473 C137 1.092 . S
C2477 C2148 1.084 . S
C2491 C205 1.196 . S
C2495 C2170 1.105 . S
C2513 C2189 1.231 . S
C2509 C284 1.271 . S
C2527 C117 1.242 . S
C2531 C2210 1.209 . S
C2549 C2233 1.146 . S
C2545 C225 1.257 . S
C2567 C2256 1.052 . S
C2563 C321 1.065 . S
C2581 C29 1.196 . S
C2585 C2274 1.182 . S
C2599 C401 1.195 . S
C2603 C2130 1.182 . S
C2617 C497 1.270 . S
C2621 C2150 1.238 . S
C2639 C2172 1.078 . S
C2635 C585 1.096 . S
C2657 C2191 1.162 . S
C2653 C665 1.272 . S
C2671 C372 1.257 . S
C2675 C2212 1.147 . S
C2693 C2235 1.052 . S
C2689 C469 1.051 . S
C2711 C2252 1.236 . S
C2707 C557 1.273 . S
C2729 C2276 1.165 . S
C2725 C636 1.206 . S
C2747 C2126 1.163 1_556 S
C2743 C673 1.205 . S
C2765 C2298 1.043 . S
C2761 C724 1.058 . S
C2779 C821 1.239 . S
C2783 C2315 1.200 . S
C2801 C2338 1.163 . S
C2797 C909 1.272 . S
C2815 C381 1.236 . S
C2819 C2272 1.121 . S
C2837 C2168 1.236 . S
C2833 C489 1.269 . S
C2851 C849 1.062 . S
C2855 C2361 1.058 . S
C2873 C2377 1.090 . S
C2869 C1017 1.199 . S
C2887 C1085 1.211 . S
C2891 C2125 1.113 . S
C2909 C2378 1.199 . S
C2905 C1201 1.200 . S
C2923 C1289 1.321 . S
C2927 C2167 1.213 . S
C2941 C1349 1.111 . S
C2945 C2358 1.080 . S
C2963 C2211 1.087 . S
C2959 C1193 1.122 . S
C2981 C2314 1.166 . S
C2977 C1281 1.283 . S
C2999 C2255 1.229 . S
C2995 C1340 1.236 . S
C3017 C2399 1.292 . S
C3013 C1076 1.303 . S
C3035 C2129 1.292 . S
C3031 C1428 1.303 . S
C3049 C1516 1.125 . S
C3053 C2382 1.083 . S
C3071 C2171 1.195 1_545 S
C3067 C1604 1.201 . S
C3085 C1701 1.245 . S
C3089 C2356 1.154 . S
C3103 C1457 1.285 . S
C3107 C2209 1.164 . S
C3121 C1545 1.235 . S
C3125 C2318 1.232 . S
C3143 C2253 1.079 . S
C3139 C1633 1.111 . S
C3157 C1729 1.181 . S
C3161 C2403 1.135 . S
C3175 C1721 1.180 . S
C3179 C2127 1.128 . S
C3193 C1789 1.234 . S
C3197 C2297 1.233 . S
C3211 C1868 1.121 . S
C3215 C2232 1.087 . S
C3229 C1956 1.241 . S
C3233 C2335 1.134 . S
C3251 C2401 1.124 . S
C3247 C1437 1.208 . S
C3269 C2169 1.079 . S
C3265 C1553 1.126 . S
C3287 C2192 1.228 . S
C3283 C1897 1.237 . S
C3305 C2149 1.217 . S
C3301 C2081 1.314 . S
C3319 C233 1.230 . S
C3323 C2422 1.128 . S
C3341 C2379 1.090 . S
C3337 C313 1.088 . S
C3359 C2443 1.094 . S
C3355 C20 1.196 . S
C3373 C108 1.269 . S
C3377 C2357 1.227 . S
C3391 C293 1.235 . S
C3395 C2294 1.193 . S
C3413 C2317 1.146 . S
C3409 C57 1.255 . S
C3431 C2340 1.059 . S
C3427 C145 1.060 . S
C3449 C2400 1.173 . S
C3445 C196 1.199 . S
C3467 C2424 1.181 . S
C3463 C1025 1.196 . S
C3481 C761 1.263 . S
C3485 C2381 1.221 . S
C3499 C841 1.094 . S
C3503 C2445 1.083 . S
C3521 C2359 1.167 . S
C3517 C929 1.266 . S
C3539 C2296 1.151 . S
C3535 C997 1.258 . S
C3553 C733 1.050 . S
C3557 C2319 1.053 . S
C3575 C2336 1.228 . S
C3571 C812 1.270 . S
C3589 C900 1.205 . S
C3593 C2402 1.163 . S
C3611 C2420 1.180 . S
C3607 C937 1.213 . S
C3629 C2214 1.041 . S
C3625 C460 1.058 . S
C3647 C2231 1.194 . S
C3643 C548 1.236 . S
C3661 C645 1.272 . S
C3665 C2254 1.171 . S
C3683 C2398 1.145 . S
C3679 C988 1.235 . S
C3697 C753 1.268 . S
C3701 C2441 1.234 . S
C3719 C2193 1.060 . S
C3715 C577 1.060 . S
C3737 C2146 1.114 . S
C3733 C409 1.197 . S
C3751 C1261 1.203 . S
C3755 C2419 1.097 . S
C3773 C2147 1.194 . S
C3769 C1377 1.199 . S
C3791 C2440 1.198 . S
C3787 C1113 1.316 . S
C3805 C1173 1.109 . S
C3809 C2190 1.076 . S
C3823 C1369 1.115 . S
C3827 C2295 1.073 . S
C3841 C1105 1.281 . S
C3845 C2230 1.161 . S
C3859 C1164 1.239 . S
C3863 C2339 1.230 . S
C3877 C1252 1.300 . S
C3881 C2273 1.294 . S
C3899 C2423 1.300 . S
C3895 C2044 1.299 . S
C3913 C1780 1.125 . S
C3917 C2151 1.082 . S
C3935 C2444 1.197 . S
C3931 C1877 1.202 . S
C3949 C1965 1.240 . S
C3953 C2188 1.160 . S
C3967 C2073 1.278 . S
C3971 C2293 1.179 . S
C3989 C2234 1.228 . S
C3985 C1809 1.241 . S
C4003 C1905 1.110 . S
C4007 C2337 1.078 . S
C4025 C2277 1.147 . S
C4021 C1993 1.186 . S
C4043 C2421 1.149 . S
C4039 C1985 1.188 . S
C4061 C2213 1.235 . S
C4057 C1525 1.234 . S
C4075 C1613 1.122 . S
C4079 C2316 1.088 . S
C4097 C2251 1.143 . S
C4093 C1692 1.245 . S
C4115 C2275 1.114 . S
C4111 C2053 1.203 . S
C4129 C1817 1.122 . S
C4133 C2442 1.072 . S
C4151 C2360 1.236 . S
C4147 C1641 1.232 . S
C4169 C2380 1.200 . S
C4165 C1465 1.314 . S
