# Generated by pormake.
# Topology gar, (4,6)-cn, num edge types: 1
# Building blocks:
#     Node 0, Type 0, BuildingBlock: UXUYUI_clean_sbu_0, # of connection points: 4
#     Node 1, Type 0, BuildingBlock: UXUYUI_clean_sbu_0, # of connection points: 4
#     Node 2, Type 0, BuildingBlock: UXUYUI_clean_sbu_0, # of connection points: 4
#     Node 3, Type 0, BuildingBlock: UXUYUI_clean_sbu_0, # of connection points: 4
#     Node 4, Type 0, BuildingBlock: UXUYUI_clean_sbu_0, # of connection points: 4
#     Node 5, Type 0, BuildingBlock: UXUYUI_clean_sbu_0, # of connection points: 4
#     Node 6, Type 0, BuildingBlock: UXUYUI_clean_sbu_0, # of connection points: 4
#     Node 7, Type 0, BuildingBlock: UXUYUI_clean_sbu_0, # of connection points: 4
#     Node 8, Type 0, BuildingBlock: UXUYUI_clean_sbu_0, # of connection points: 4
#     Node 9, Type 0, BuildingBlock: UXUYUI_clean_sbu_0, # of connection points: 4
#     Node 10, Type 0, BuildingBlock: UXUYUI_clean_sbu_0, # of connection points: 4
#     Node 11, Type 0, BuildingBlock: UXUYUI_clean_sbu_0, # of connection points: 4
#     Node 12, Type 0, BuildingBlock: UXUYUI_clean_sbu_0, # of connection points: 4
#     Node 13, Type 0, BuildingBlock: UXUYUI_clean_sbu_0, # of connection points: 4
#     Node 14, Type 0, BuildingBlock: UXUYUI_clean_sbu_0, # of connection points: 4
#     Node 15, Type 0, BuildingBlock: UXUYUI_clean_sbu_0, # of connection points: 4
#     Node 16, Type 0, BuildingBlock: UXUYUI_clean_sbu_0, # of connection points: 4
#     Node 17, Type 0, BuildingBlock: UXUYUI_clean_sbu_0, # of connection points: 4
#     Node 18, Type 0, BuildingBlock: UXUYUI_clean_sbu_0, # of connection points: 4
#     Node 19, Type 0, BuildingBlock: UXUYUI_clean_sbu_0, # of connection points: 4
#     Node 20, Type 0, BuildingBlock: UXUYUI_clean_sbu_0, # of connection points: 4
#     Node 21, Type 0, BuildingBlock: UXUYUI_clean_sbu_0, # of connection points: 4
#     Node 22, Type 0, BuildingBlock: UXUYUI_clean_sbu_0, # of connection points: 4
#     Node 23, Type 0, BuildingBlock: UXUYUI_clean_sbu_0, # of connection points: 4
#     Node 24, Type 1, BuildingBlock: HISSIN_clean_sbu_0, # of connection points: 6
#     Node 25, Type 1, BuildingBlock: HISSIN_clean_sbu_0, # of connection points: 6
#     Node 26, Type 1, BuildingBlock: HISSIN_clean_sbu_0, # of connection points: 6
#     Node 27, Type 1, BuildingBlock: HISSIN_clean_sbu_0, # of connection points: 6
#     Node 28, Type 1, BuildingBlock: HISSIN_clean_sbu_0, # of connection points: 6
#     Node 29, Type 1, BuildingBlock: HISSIN_clean_sbu_0, # of connection points: 6
#     Node 30, Type 1, BuildingBlock: HISSIN_clean_sbu_0, # of connection points: 6
#     Node 31, Type 1, BuildingBlock: HISSIN_clean_sbu_0, # of connection points: 6
#     Node 32, Type 1, BuildingBlock: HISSIN_clean_sbu_0, # of connection points: 6
#     Node 33, Type 1, BuildingBlock: HISSIN_clean_sbu_0, # of connection points: 6
#     Node 34, Type 1, BuildingBlock: HISSIN_clean_sbu_0, # of connection points: 6
#     Node 35, Type 1, BuildingBlock: HISSIN_clean_sbu_0, # of connection points: 6
#     Node 36, Type 1, BuildingBlock: HISSIN_clean_sbu_0, # of connection points: 6
#     Node 37, Type 1, BuildingBlock: HISSIN_clean_sbu_0, # of connection points: 6
#     Node 38, Type 1, BuildingBlock: HISSIN_clean_sbu_0, # of connection points: 6
#     Node 39, Type 1, BuildingBlock: HISSIN_clean_sbu_0, # of connection points: 6
#     Edge 40, Type (0, 1), BuildingBlock: XIVTED_clean_linker_0, # of connection points: 2
#     Edge 41, Type (0, 1), BuildingBlock: XIVTED_clean_linker_0, # of connection points: 2
#     Edge 42, Type (0, 1), BuildingBlock: XIVTED_clean_linker_0, # of connection points: 2
#     Edge 43, Type (0, 1), BuildingBlock: XIVTED_clean_linker_0, # of connection points: 2
#     Edge 44, Type (0, 1), BuildingBlock: XIVTED_clean_linker_0, # of connection points: 2
#     Edge 45, Type (0, 1), BuildingBlock: XIVTED_clean_linker_0, # of connection points: 2
#     Edge 46, Type (0, 1), BuildingBlock: XIVTED_clean_linker_0, # of connection points: 2
#     Edge 47, Type (0, 1), BuildingBlock: XIVTED_clean_linker_0, # of connection points: 2
#     Edge 48, Type (0, 1), BuildingBlock: XIVTED_clean_linker_0, # of connection points: 2
#     Edge 49, Type (0, 1), BuildingBlock: XIVTED_clean_linker_0, # of connection points: 2
#     Edge 50, Type (0, 1), BuildingBlock: XIVTED_clean_linker_0, # of connection points: 2
#     Edge 51, Type (0, 1), BuildingBlock: XIVTED_clean_linker_0, # of connection points: 2
#     Edge 52, Type (0, 1), BuildingBlock: XIVTED_clean_linker_0, # of connection points: 2
#     Edge 53, Type (0, 1), BuildingBlock: XIVTED_clean_linker_0, # of connection points: 2
#     Edge 54, Type (0, 1), BuildingBlock: XIVTED_clean_linker_0, # of connection points: 2
#     Edge 55, Type (0, 1), BuildingBlock: XIVTED_clean_linker_0, # of connection points: 2
#     Edge 56, Type (0, 1), BuildingBlock: XIVTED_clean_linker_0, # of connection points: 2
#     Edge 57, Type (0, 1), BuildingBlock: XIVTED_clean_linker_0, # of connection points: 2
#     Edge 58, Type (0, 1), BuildingBlock: XIVTED_clean_linker_0, # of connection points: 2
#     Edge 59, Type (0, 1), BuildingBlock: XIVTED_clean_linker_0, # of connection points: 2
#     Edge 60, Type (0, 1), BuildingBlock: XIVTED_clean_linker_0, # of connection points: 2
#     Edge 61, Type (0, 1), BuildingBlock: XIVTED_clean_linker_0, # of connection points: 2
#     Edge 62, Type (0, 1), BuildingBlock: XIVTED_clean_linker_0, # of connection points: 2
#     Edge 63, Type (0, 1), BuildingBlock: XIVTED_clean_linker_0, # of connection points: 2
#     Edge 64, Type (0, 1), BuildingBlock: XIVTED_clean_linker_0, # of connection points: 2
#     Edge 65, Type (0, 1), BuildingBlock: XIVTED_clean_linker_0, # of connection points: 2
#     Edge 66, Type (0, 1), BuildingBlock: XIVTED_clean_linker_0, # of connection points: 2
#     Edge 67, Type (0, 1), BuildingBlock: XIVTED_clean_linker_0, # of connection points: 2
#     Edge 68, Type (0, 1), BuildingBlock: XIVTED_clean_linker_0, # of connection points: 2
#     Edge 69, Type (0, 1), BuildingBlock: XIVTED_clean_linker_0, # of connection points: 2
#     Edge 70, Type (0, 1), BuildingBlock: XIVTED_clean_linker_0, # of connection points: 2
#     Edge 71, Type (0, 1), BuildingBlock: XIVTED_clean_linker_0, # of connection points: 2
#     Edge 72, Type (0, 1), BuildingBlock: XIVTED_clean_linker_0, # of connection points: 2
#     Edge 73, Type (0, 1), BuildingBlock: XIVTED_clean_linker_0, # of connection points: 2
#     Edge 74, Type (0, 1), BuildingBlock: XIVTED_clean_linker_0, # of connection points: 2
#     Edge 75, Type (0, 1), BuildingBlock: XIVTED_clean_linker_0, # of connection points: 2
#     Edge 76, Type (0, 1), BuildingBlock: XIVTED_clean_linker_0, # of connection points: 2
#     Edge 77, Type (0, 1), BuildingBlock: XIVTED_clean_linker_0, # of connection points: 2
#     Edge 78, Type (0, 1), BuildingBlock: XIVTED_clean_linker_0, # of connection points: 2
#     Edge 79, Type (0, 1), BuildingBlock: XIVTED_clean_linker_0, # of connection points: 2
#     Edge 80, Type (0, 1), BuildingBlock: XIVTED_clean_linker_0, # of connection points: 2
#     Edge 81, Type (0, 1), BuildingBlock: XIVTED_clean_linker_0, # of connection points: 2
#     Edge 82, Type (0, 1), BuildingBlock: XIVTED_clean_linker_0, # of connection points: 2
#     Edge 83, Type (0, 1), BuildingBlock: XIVTED_clean_linker_0, # of connection points: 2
#     Edge 84, Type (0, 1), BuildingBlock: XIVTED_clean_linker_0, # of connection points: 2
#     Edge 85, Type (0, 1), BuildingBlock: XIVTED_clean_linker_0, # of connection points: 2
#     Edge 86, Type (0, 1), BuildingBlock: XIVTED_clean_linker_0, # of connection points: 2
#     Edge 87, Type (0, 1), BuildingBlock: XIVTED_clean_linker_0, # of connection points: 2
#     Edge 88, Type (0, 1), BuildingBlock: XIVTED_clean_linker_0, # of connection points: 2
#     Edge 89, Type (0, 1), BuildingBlock: XIVTED_clean_linker_0, # of connection points: 2
#     Edge 90, Type (0, 1), BuildingBlock: XIVTED_clean_linker_0, # of connection points: 2
#     Edge 91, Type (0, 1), BuildingBlock: XIVTED_clean_linker_0, # of connection points: 2
#     Edge 92, Type (0, 1), BuildingBlock: XIVTED_clean_linker_0, # of connection points: 2
#     Edge 93, Type (0, 1), BuildingBlock: XIVTED_clean_linker_0, # of connection points: 2
#     Edge 94, Type (0, 1), BuildingBlock: XIVTED_clean_linker_0, # of connection points: 2
#     Edge 95, Type (0, 1), BuildingBlock: XIVTED_clean_linker_0, # of connection points: 2
#     Edge 96, Type (0, 1), BuildingBlock: XIVTED_clean_linker_0, # of connection points: 2
#     Edge 97, Type (0, 1), BuildingBlock: XIVTED_clean_linker_0, # of connection points: 2
#     Edge 98, Type (0, 1), BuildingBlock: XIVTED_clean_linker_0, # of connection points: 2
#     Edge 99, Type (0, 1), BuildingBlock: XIVTED_clean_linker_0, # of connection points: 2
#     Edge 100, Type (0, 1), BuildingBlock: XIVTED_clean_linker_0, # of connection points: 2
#     Edge 101, Type (0, 1), BuildingBlock: XIVTED_clean_linker_0, # of connection points: 2
#     Edge 102, Type (0, 1), BuildingBlock: XIVTED_clean_linker_0, # of connection points: 2
#     Edge 103, Type (0, 1), BuildingBlock: XIVTED_clean_linker_0, # of connection points: 2
#     Edge 104, Type (0, 1), BuildingBlock: XIVTED_clean_linker_0, # of connection points: 2
#     Edge 105, Type (0, 1), BuildingBlock: XIVTED_clean_linker_0, # of connection points: 2
#     Edge 106, Type (0, 1), BuildingBlock: XIVTED_clean_linker_0, # of connection points: 2
#     Edge 107, Type (0, 1), BuildingBlock: XIVTED_clean_linker_0, # of connection points: 2
#     Edge 108, Type (0, 1), BuildingBlock: XIVTED_clean_linker_0, # of connection points: 2
#     Edge 109, Type (0, 1), BuildingBlock: XIVTED_clean_linker_0, # of connection points: 2
#     Edge 110, Type (0, 1), BuildingBlock: XIVTED_clean_linker_0, # of connection points: 2
#     Edge 111, Type (0, 1), BuildingBlock: XIVTED_clean_linker_0, # of connection points: 2
#     Edge 112, Type (0, 1), BuildingBlock: XIVTED_clean_linker_0, # of connection points: 2
#     Edge 113, Type (0, 1), BuildingBlock: XIVTED_clean_linker_0, # of connection points: 2
#     Edge 114, Type (0, 1), BuildingBlock: XIVTED_clean_linker_0, # of connection points: 2
#     Edge 115, Type (0, 1), BuildingBlock: XIVTED_clean_linker_0, # of connection points: 2
#     Edge 116, Type (0, 1), BuildingBlock: XIVTED_clean_linker_0, # of connection points: 2
#     Edge 117, Type (0, 1), BuildingBlock: XIVTED_clean_linker_0, # of connection points: 2
#     Edge 118, Type (0, 1), BuildingBlock: XIVTED_clean_linker_0, # of connection points: 2
#     Edge 119, Type (0, 1), BuildingBlock: XIVTED_clean_linker_0, # of connection points: 2
#     Edge 120, Type (0, 1), BuildingBlock: XIVTED_clean_linker_0, # of connection points: 2
#     Edge 121, Type (0, 1), BuildingBlock: XIVTED_clean_linker_0, # of connection points: 2
#     Edge 122, Type (0, 1), BuildingBlock: XIVTED_clean_linker_0, # of connection points: 2
#     Edge 123, Type (0, 1), BuildingBlock: XIVTED_clean_linker_0, # of connection points: 2
#     Edge 124, Type (0, 1), BuildingBlock: XIVTED_clean_linker_0, # of connection points: 2
#     Edge 125, Type (0, 1), BuildingBlock: XIVTED_clean_linker_0, # of connection points: 2
#     Edge 126, Type (0, 1), BuildingBlock: XIVTED_clean_linker_0, # of connection points: 2
#     Edge 127, Type (0, 1), BuildingBlock: XIVTED_clean_linker_0, # of connection points: 2
#     Edge 128, Type (0, 1), BuildingBlock: XIVTED_clean_linker_0, # of connection points: 2
#     Edge 129, Type (0, 1), BuildingBlock: XIVTED_clean_linker_0, # of connection points: 2
#     Edge 130, Type (0, 1), BuildingBlock: XIVTED_clean_linker_0, # of connection points: 2
#     Edge 131, Type (0, 1), BuildingBlock: XIVTED_clean_linker_0, # of connection points: 2
#     Edge 132, Type (0, 1), BuildingBlock: XIVTED_clean_linker_0, # of connection points: 2
#     Edge 133, Type (0, 1), BuildingBlock: XIVTED_clean_linker_0, # of connection points: 2
#     Edge 134, Type (0, 1), BuildingBlock: XIVTED_clean_linker_0, # of connection points: 2
#     Edge 135, Type (0, 1), BuildingBlock: XIVTED_clean_linker_0, # of connection points: 2
# Relax obj value: 0.182
# Max RMSD: 0.266
# Mean RMSD: 0.183
data_MOF--net-gar--node1-UXUYUI_clean_sbu_0--node2-HISSIN_clean_sbu_0--edge1-XIVTED_clean_linker_0
_symmetry_space_group_name_H-M    P1
_symmetry_Int_Tables_number       1
_symmetry_cell_setting            triclinic
loop_
_symmetry_equiv_pos_as_xyz
'x, y, z'
_cell_length_a     72.797353
_cell_length_b     72.602431
_cell_length_c     71.292564
_cell_angle_alpha  99.572027
_cell_angle_beta   93.186515
_cell_angle_gamma 100.34541
loop_
_atom_site_label
_atom_site_type_symbol
_atom_site_fract_x
_atom_site_fract_y
_atom_site_fract_z
_atom_type_partial_charge
Li0 Li 0.05389 0.28304 0.35486 0.0
Li1 Li 0.06449 0.30533 0.3826 0.0
Li2 Li 0.08693 0.29082 0.36343 0.0
Li3 Li 0.06436 0.27236 0.38377 0.0
C4 C 0.06504 0.31518 0.34138 0.0
N5 N 0.05273 0.32903 0.31006 0.0
C6 C 0.04827 0.32202 0.34124 0.0
C7 C 0.07568 0.31565 0.32567 0.0
C8 C 0.04224 0.32886 0.32525 0.0
C9 C 0.0692 0.32266 0.30996 0.0
C10 C 0.03003 0.2912 0.39074 0.0
C11 C 0.01636 0.29527 0.42088 0.0
N12 N 1.00501 0.30599 0.41391 0.0
C13 C 0.0181 0.30211 0.38384 0.0
C14 C 0.02907 0.28764 0.40938 0.0
C15 C 1.0056 0.30952 0.39579 0.0
C16 C 0.01781 0.27261 0.33502 0.0
N17 N 0.03643 0.27619 0.33273 0.0
C18 C 0.03022 0.27512 0.29928 0.0
C19 C 0.04277 0.27655 0.31517 0.0
C20 C 0.01099 0.27267 0.30148 0.0
C21 C 1.00472 0.27069 0.31943 0.0
H22 H 0.01315 0.27205 0.34908 0.0
H23 H 0.05764 0.27891 0.31365 0.0
C24 C 0.0641 0.3446 0.38977 0.0
N25 N 0.06184 0.32883 0.39797 0.0
C26 C 0.06192 0.36203 0.4001 0.0
C27 C 0.05591 0.34691 0.42746 0.0
C28 C 0.05815 0.32976 0.41657 0.0
C29 C 0.05761 0.36328 0.41916 0.0
H30 H 0.06771 0.34373 0.37522 0.0
H31 H 0.05697 0.31722 0.42301 0.0
C32 C 0.06375 0.25026 0.34242 0.0
N33 N 0.04803 0.2213 0.3126 0.0
C34 C 0.04745 0.23757 0.3445 0.0
C35 C 0.07213 0.24818 0.32521 0.0
C36 C 0.03969 0.22303 0.32924 0.0
C37 C 0.06395 0.23345 0.3103 0.0
C38 C 0.09383 0.30711 0.40745 0.0
C39 C 0.10512 0.32415 0.4051 0.0
C40 C 0.09064 0.30368 0.42582 0.0
C41 C 0.11288 0.33761 0.42123 0.0
C42 C 0.09869 0.31748 0.44159 0.0
N43 N 0.10953 0.33403 0.43898 0.0
C44 C 0.11879 0.31186 0.35168 0.0
C45 C 0.11826 0.27868 0.34793 0.0
C46 C 0.13509 0.31452 0.3423 0.0
N47 N 0.11061 0.29412 0.35396 0.0
C48 C 0.13455 0.28067 0.33845 0.0
C49 C 0.14297 0.29874 0.33524 0.0
H50 H 0.11219 0.32382 0.35645 0.0
H51 H 0.11139 0.26475 0.35 0.0
C52 C 0.04379 0.24354 0.40007 0.0
N53 N 0.06133 0.25335 0.39904 0.0
C54 C 0.04072 0.23079 0.4127 0.0
C55 C 0.07399 0.23787 0.42236 0.0
C56 C 0.07638 0.25059 0.40959 0.0
C57 C 0.05591 0.22799 0.42425 0.0
H58 H 0.03208 0.24614 0.39156 0.0
H59 H 0.09018 0.25859 0.40839 0.0
O60 O 0.07105 0.30817 0.35683 0.0
O61 O 0.04239 0.28384 0.37924 0.0
O62 O 0.07134 0.26477 0.35709 0.0
O63 O 0.08588 0.2939 0.39183 0.0
H64 H 0.03998 0.32199 0.35333 0.0
H65 H 0.08861 0.3103 0.32539 0.0
H66 H 0.02921 0.33405 0.32491 0.0
H67 H 0.07721 0.32294 0.29764 0.0
H68 H 0.01562 0.29278 0.43538 0.0
H69 H 0.01839 0.30478 0.36939 0.0
H70 H 0.03836 0.2795 0.41512 0.0
H71 H 0.99635 0.31805 0.39064 0.0
H72 H 0.03549 0.27661 0.28559 0.0
H73 H 0.98995 0.26888 0.32163 0.0
H74 H 0.0638 0.37443 0.39329 0.0
H75 H 0.05261 0.34726 0.44213 0.0
H76 H 0.04074 0.23907 0.35768 0.0
H77 H 0.08465 0.25799 0.3233 0.0
H78 H 0.02702 0.21317 0.33062 0.0
H79 H 0.07021 0.23173 0.29686 0.0
H80 H 0.10765 0.32705 0.39098 0.0
H81 H 0.08183 0.29061 0.42788 0.0
H82 H 0.12154 0.35092 0.41963 0.0
H83 H 0.09625 0.31507 0.45589 0.0
H84 H 0.14104 0.32866 0.33998 0.0
H85 H 0.14039 0.2682 0.33353 0.0
H86 H 0.02652 0.22371 0.41383 0.0
H87 H 0.08614 0.23592 0.43071 0.0
Li88 Li 1.00167 0.77546 0.62023 0.0
Li89 Li 0.0156 0.76044 0.6441 0.0
Li90 Li 0.99858 0.74179 0.61459 0.0
Li91 Li 0.98216 0.75682 0.63976 0.0
C92 C 0.03487 0.77141 0.60897 0.0
N93 N 0.06018 0.79499 0.59183 0.0
C94 C 0.05046 0.78324 0.6198 0.0
C95 C 0.03222 0.77146 0.58941 0.0
C96 C 0.0631 0.79506 0.61086 0.0
C97 C 0.04514 0.78354 0.58103 0.0
C98 C 0.99211 0.79166 0.66075 0.0
C99 C 0.97948 0.79829 0.6912 0.0
N100 N 0.97268 0.81291 0.68545 0.0
C101 C 0.98505 0.80678 0.65517 0.0
C102 C 0.9894 0.78742 0.67895 0.0
C103 C 0.97527 0.81735 0.66787 0.0
C104 C 0.99642 0.79738 0.59162 0.0
N105 N 1.00564 0.7973 0.60868 0.0
C106 C 0.02473 0.82754 0.60818 0.0
C107 C 0.01925 0.81212 0.61725 0.0
C108 C 0.01591 0.82782 0.59021 0.0
C109 C 1.00132 0.81262 0.58209 0.0
H110 H 0.9856 0.78541 0.58519 0.0
H111 H 0.02636 0.81156 0.63083 0.0
C112 C 0.04901 0.75081 0.65586 0.0
N113 N 0.03648 0.7619 0.66158 0.0
C114 C 0.06405 0.74992 0.66839 0.0
C115 C 0.05342 0.7725 0.69225 0.0
C116 C 0.03848 0.77285 0.67925 0.0
C117 C 0.06629 0.76072 0.68691 0.0
H118 H 0.0471 0.74241 0.64161 0.0
H119 H 0.02836 0.78165 0.68334 0.0
C120 C 0.96685 0.74456 0.59761 0.0
N121 N 0.94423 0.71908 0.56875 0.0
C122 C 0.95023 0.73358 0.60167 0.0
C123 C 0.97191 0.7427 0.57885 0.0
C124 C 0.93899 0.72075 0.58688 0.0
C125 C 0.96031 0.72969 0.56447 0.0
C126 C 1.0048 0.72644 0.652 0.0
C127 C 0.0141 0.71227 0.64376 0.0
C128 C 1.00474 0.7306 0.67187 0.0
C129 C 0.02328 0.70258 0.65555 0.0
C130 C 0.01413 0.72062 0.68316 0.0
N131 N 0.02313 0.70693 0.67484 0.0
C132 C 0.01301 0.71805 0.58645 0.0
C133 C 0.98464 0.70384 0.59745 0.0
C134 C 0.01507 0.70053 0.5763 0.0
N135 N 0.99817 0.71927 0.597 0.0
C136 C 0.9861 0.68603 0.58745 0.0
C137 C 1.00179 0.68414 0.57718 0.0
H138 H 0.02383 0.73044 0.58685 0.0
H139 H 0.97327 0.7052 0.60641 0.0
C140 C 0.94892 0.7671 0.65298 0.0
N141 N 0.96018 0.75407 0.6528 0.0
C142 C 0.93433 0.76682 0.66484 0.0
C143 C 0.94206 0.73856 0.67459 0.0
C144 C 0.95669 0.73958 0.66276 0.0
C145 C 0.93111 0.75267 0.67616 0.0
H146 H 0.95176 0.77817 0.64451 0.0
H147 H 0.96559 0.72913 0.66197 0.0
O148 O 0.0221 0.76005 0.61754 0.0
O149 O 1.00157 0.78103 0.64845 0.0
O150 O 0.97814 0.75704 0.61192 0.0
O151 O 0.99613 0.73646 0.64075 0.0
H152 H 0.05267 0.78348 0.63497 0.0
H153 H 0.02014 0.76251 0.58086 0.0
H154 H 0.07517 0.80437 0.61908 0.0
H155 H 0.04318 0.78386 0.56594 0.0
H156 H 0.97712 0.79505 0.70524 0.0
H157 H 0.98696 0.81023 0.64113 0.0
H158 H 0.99459 0.77565 0.68344 0.0
H159 H 0.96966 0.82905 0.66371 0.0
H160 H 0.0362 0.83876 0.6149 0.0
H161 H 0.99389 0.81241 0.56844 0.0
H162 H 0.07388 0.74096 0.66359 0.0
H163 H 0.05468 0.78102 0.70642 0.0
H164 H 0.9461 0.73484 0.6161 0.0
H165 H 0.98479 0.751 0.57549 0.0
H166 H 0.92613 0.7121 0.58982 0.0
H167 H 0.96412 0.728 0.54992 0.0
H168 H 0.01446 0.70895 0.62845 0.0
H169 H 0.99778 0.74164 0.67851 0.0
H170 H 0.03061 0.69165 0.64936 0.0
H171 H 0.01432 0.72381 0.69855 0.0
H172 H 0.02755 0.69968 0.56886 0.0
H173 H 0.97547 0.67377 0.58838 0.0
H174 H 0.92593 0.77777 0.66551 0.0
H175 H 0.9399 0.72742 0.68309 0.0
Li176 Li 0.56174 0.79295 0.86595 0.0
Li177 Li 0.57797 0.81415 0.89436 0.0
Li178 Li 0.59671 0.79883 0.87266 0.0
Li179 Li 0.57443 0.78138 0.89294 0.0
C180 C 0.57738 0.83457 0.86702 0.0
N181 N 0.5709 0.87115 0.86867 0.0
C182 C 0.55987 0.83872 0.87127 0.0
C183 C 0.59149 0.84898 0.86335 0.0
C184 C 0.5569 0.85731 0.87212 0.0
C185 C 0.58796 0.86739 0.86431 0.0
C186 C 0.5406 0.78723 0.90213 0.0
C187 C 0.53037 0.77888 0.93179 0.0
N188 N 0.51403 0.76865 0.92234 0.0
C189 C 0.52354 0.77692 0.89281 0.0
C190 C 0.54388 0.78849 0.92186 0.0
C191 C 0.51034 0.76753 0.90324 0.0
C192 C 0.53099 0.77009 0.84159 0.0
N193 N 0.54265 0.78738 0.84531 0.0
C194 C 0.52726 0.79724 0.81932 0.0
C195 C 0.54138 0.80066 0.83419 0.0
C196 C 0.51452 0.77977 0.81554 0.0
C197 C 0.51681 0.76593 0.82667 0.0
H198 H 0.53261 0.75957 0.85034 0.0
H199 H 0.55119 0.81402 0.83692 0.0
C200 C 0.59269 0.85257 0.91199 0.0
N201 N 0.57802 0.83775 0.9107 0.0
C202 C 0.59181 0.87032 0.92259 0.0
C203 C 0.56094 0.85706 0.9306 0.0
C204 C 0.56238 0.83964 0.9198 0.0
C205 C 0.57569 0.87273 0.93192 0.0
H206 H 0.60485 0.85072 0.90438 0.0
H207 H 0.55076 0.82779 0.91819 0.0
C208 C 0.57416 0.76248 0.84816 0.0
N209 N 0.56484 0.73964 0.81264 0.0
C210 C 0.56645 0.74318 0.84665 0.0
C211 C 0.57725 0.77016 0.83161 0.0
C212 C 0.56181 0.73186 0.82856 0.0
C213 C 0.5724 0.75838 0.81379 0.0
C214 C 0.60843 0.81277 0.916 0.0
C215 C 0.62638 0.82245 0.91381 0.0
C216 C 0.60126 0.81562 0.93382 0.0
C217 C 0.63659 0.83523 0.92929 0.0
C218 C 0.61188 0.82853 0.94895 0.0
N219 N 0.62917 0.83802 0.94639 0.0
C220 C 0.63079 0.81707 0.86127 0.0
C221 C 0.62266 0.78386 0.84989 0.0
C222 C 0.64667 0.81834 0.85111 0.0
N223 N 0.61916 0.80003 0.86041 0.0
C224 C 0.638 0.78455 0.83901 0.0
C225 C 0.65034 0.80198 0.83947 0.0
H226 H 0.62774 0.8297 0.86988 0.0
H227 H 0.61332 0.77045 0.84958 0.0
C228 C 0.55541 0.74666 0.90087 0.0
N229 N 0.57021 0.76119 0.90683 0.0
C230 C 0.55059 0.73274 0.912 0.0
C231 C 0.57668 0.74872 0.93489 0.0
C232 C 0.58099 0.76233 0.92331 0.0
C233 C 0.56116 0.7338 0.92939 0.0
H234 H 0.54696 0.74628 0.88779 0.0
H235 H 0.5927 0.77402 0.92765 0.0
O236 O 0.58069 0.81654 0.86669 0.0
O237 O 0.55383 0.7963 0.89207 0.0
O238 O 0.57847 0.77389 0.86573 0.0
O239 O 0.59819 0.80028 0.9009 0.0
H240 H 0.54879 0.82774 0.87416 0.0
H241 H 0.60504 0.84602 0.85984 0.0
H242 H 0.54349 0.86075 0.87558 0.0
H243 H 0.59879 0.8787 0.8616 0.0
H244 H 0.53289 0.77956 0.94701 0.0
H245 H 0.52042 0.77626 0.87773 0.0
H246 H 0.55679 0.79666 0.92942 0.0
H247 H 0.49715 0.7594 0.89614 0.0
H248 H 0.52603 0.80847 0.81134 0.0
H249 H 0.50763 0.75211 0.82406 0.0
H250 H 0.60352 0.88204 0.92335 0.0
H251 H 0.54812 0.8584 0.93726 0.0
H252 H 0.56404 0.737 0.85931 0.0
H253 H 0.58313 0.78511 0.83255 0.0
H254 H 0.55578 0.7169 0.82717 0.0
H255 H 0.57461 0.76414 0.80087 0.0
H256 H 0.63243 0.82005 0.90036 0.0
H257 H 0.5876 0.80806 0.93595 0.0
H258 H 0.65044 0.84289 0.92772 0.0
H259 H 0.60638 0.83099 0.96275 0.0
H260 H 0.65591 0.83203 0.85243 0.0
H261 H 0.63981 0.77155 0.83007 0.0
H262 H 0.53839 0.7216 0.90732 0.0
H263 H 0.58538 0.74989 0.94802 0.0
Li264 Li 0.51675 0.28314 0.13722 0.0
Li265 Li 0.52711 0.27275 0.16599 0.0
Li266 Li 0.51319 0.25013 0.13693 0.0
Li267 Li 0.49319 0.26765 0.15637 0.0
C268 C 0.55146 0.27875 0.1331 0.0
N269 N 0.58007 0.3003 0.11774 0.0
C270 C 0.56605 0.29097 0.14507 0.0
C271 C 0.5515 0.27738 0.1133 0.0
C272 C 0.58038 0.30175 0.13703 0.0
C273 C 0.56605 0.28844 0.10582 0.0
C274 C 0.50828 0.30278 0.18076 0.0
C275 C 0.49991 0.30471 0.21318 0.0
N276 N 0.50076 0.32376 0.21448 0.0
C277 C 0.50906 0.32235 0.18239 0.0
C278 C 0.50366 0.29387 0.19624 0.0
C279 C 0.50522 0.33272 0.19958 0.0
C280 C 0.51324 0.30115 0.10516 0.0
N281 N 0.52209 0.30293 0.12284 0.0
C282 C 0.54063 0.3328 0.1199 0.0
C283 C 0.53532 0.31849 0.13046 0.0
C284 C 0.53197 0.33127 0.10142 0.0
C285 C 0.51797 0.31523 0.09416 0.0
H286 H 0.50256 0.28877 0.09957 0.0
H287 H 0.54202 0.31956 0.14463 0.0
C288 C 0.55505 0.26242 0.18753 0.0
N289 N 0.54551 0.27681 0.18713 0.0
C290 C 0.5681 0.26309 0.20276 0.0
C291 C 0.56255 0.29421 0.21626 0.0
C292 C 0.54934 0.29279 0.20083 0.0
C293 C 0.57182 0.27904 0.21748 0.0
H294 H 0.55266 0.25049 0.17587 0.0
H295 H 0.54234 0.30453 0.19981 0.0
C296 C 0.48487 0.25008 0.11335 0.0
N297 N 0.4676 0.22129 0.084 0.0
C298 C 0.46777 0.2387 0.11556 0.0
C299 C 0.49311 0.24692 0.09614 0.0
C300 C 0.45927 0.2242 0.10057 0.0
C301 C 0.48419 0.23226 0.0815 0.0
C302 C 0.51024 0.23689 0.17538 0.0
C303 C 0.52172 0.22361 0.17054 0.0
C304 C 0.50132 0.23708 0.19226 0.0
C305 C 0.52434 0.21101 0.18282 0.0
C306 C 0.50428 0.22423 0.20416 0.0
N307 N 0.51565 0.21158 0.19924 0.0
C308 C 0.52747 0.22381 0.11092 0.0
C309 C 0.50069 0.21076 0.12532 0.0
C310 C 0.52855 0.20585 0.10104 0.0
N311 N 0.51371 0.22588 0.12275 0.0
C312 C 0.50142 0.19249 0.11594 0.0
C313 C 0.51553 0.18993 0.10368 0.0
H314 H 0.53774 0.23606 0.10937 0.0
H315 H 0.48997 0.21291 0.13492 0.0
C316 C 0.46231 0.28219 0.17033 0.0
N317 N 0.46951 0.26618 0.16599 0.0
C318 C 0.4458 0.28163 0.17938 0.0
C319 C 0.44384 0.24784 0.17824 0.0
C320 C 0.46057 0.24914 0.16946 0.0
C321 C 0.43639 0.26431 0.18363 0.0
H322 H 0.46969 0.29553 0.16729 0.0
H323 H 0.46661 0.2366 0.16565 0.0
O324 O 0.53715 0.26829 0.14072 0.0
O325 O 0.51167 0.29241 0.1639 0.0
O326 O 0.49361 0.26406 0.12804 0.0
O327 O 0.5073 0.24922 0.16341 0.0
H328 H 0.56626 0.29224 0.16042 0.0
H329 H 0.54023 0.26815 0.10381 0.0
H330 H 0.59172 0.31133 0.14614 0.0
H331 H 0.56616 0.28766 0.09054 0.0
H332 H 0.49633 0.29799 0.22528 0.0
H333 H 0.51254 0.32944 0.17048 0.0
H334 H 0.50308 0.27878 0.19519 0.0
H335 H 0.50577 0.34788 0.20105 0.0
H336 H 0.55164 0.34475 0.12605 0.0
H337 H 0.5106 0.31361 0.08019 0.0
H338 H 0.57551 0.25143 0.20281 0.0
H339 H 0.56537 0.30691 0.22717 0.0
H340 H 0.46116 0.24097 0.12874 0.0
H341 H 0.50641 0.25549 0.09423 0.0
H342 H 0.44607 0.21523 0.10212 0.0
H343 H 0.4905 0.22955 0.06818 0.0
H344 H 0.5288 0.22323 0.15759 0.0
H345 H 0.49209 0.24694 0.19614 0.0
H346 H 0.53331 0.20079 0.1793 0.0
H347 H 0.4975 0.22427 0.21728 0.0
H348 H 0.53974 0.20436 0.09183 0.0
H349 H 0.49109 0.18051 0.11821 0.0
H350 H 0.44086 0.29479 0.18353 0.0
H351 H 0.43694 0.23413 0.18088 0.0
Li352 Li 0.0789 0.80454 0.10258 0.0
Li353 Li 0.09189 0.79492 0.13103 0.0
Li354 Li 0.07628 0.77163 0.10351 0.0
Li355 Li 0.05853 0.79041 0.12472 0.0
C356 C 0.1112 0.77974 0.09604 0.0
N357 N 0.13326 0.75573 0.07883 0.0
C358 C 0.12482 0.7739 0.10704 0.0
C359 C 0.10888 0.77347 0.07626 0.0
C360 C 0.13583 0.76175 0.09807 0.0
C361 C 0.12014 0.76129 0.06784 0.0
C362 C 0.08553 0.83008 0.14265 0.0
C363 C 0.0946 0.84572 0.17528 0.0
N364 N 0.10468 0.86078 0.16895 0.0
C365 C 0.09592 0.84574 0.13646 0.0
C366 C 0.08478 0.83008 0.1622 0.0
C367 C 0.10552 0.86112 0.15 0.0
C368 C 0.06785 0.83362 0.08685 0.0
N369 N 0.08061 0.82204 0.08566 0.0
C370 C 0.08823 0.82913 0.05519 0.0
C371 C 0.09135 0.82028 0.07071 0.0
C372 C 0.07385 0.83966 0.05525 0.0
C373 C 0.06416 0.84258 0.07164 0.0
H374 H 0.05947 0.83459 0.09891 0.0
H375 H 0.1014 0.81097 0.07021 0.0
C376 C 0.11172 0.78541 0.16127 0.0
N377 N 0.11144 0.79943 0.15085 0.0
C378 C 0.12608 0.78708 0.17553 0.0
C379 C 0.13952 0.81779 0.16834 0.0
C380 C 0.12504 0.81536 0.15396 0.0
C381 C 0.14033 0.80339 0.17919 0.0
H382 H 0.10109 0.77262 0.15812 0.0
H383 H 0.12479 0.82606 0.14513 0.0
C384 C 0.04519 0.79005 0.08329 0.0
N385 N 0.02383 0.80259 0.05653 0.0
C386 C 0.02977 0.79811 0.08859 0.0
C387 C 0.04974 0.7884 0.06435 0.0
C388 C 0.01915 0.80435 0.07485 0.0
C389 C 0.03878 0.79483 0.05105 0.0
C390 C 0.06259 0.76129 0.14172 0.0
C391 C 0.05246 0.74315 0.13383 0.0
C392 C 0.06104 0.769 0.16075 0.0
C393 C 0.04077 0.73308 0.1451 0.0
C394 C 0.04916 0.7585 0.17153 0.0
N395 N 0.03936 0.74091 0.16354 0.0
C396 C 0.08572 0.73535 0.0958 0.0
C397 C 0.06541 0.7423 0.07188 0.0
C398 C 0.08531 0.71728 0.08524 0.0
N399 N 0.07581 0.74735 0.08897 0.0
C400 C 0.0647 0.72447 0.06079 0.0
C401 C 0.07456 0.7116 0.06754 0.0
H402 H 0.09376 0.73978 0.10955 0.0
H403 H 0.05751 0.75203 0.06693 0.0
C404 C 0.03419 0.80548 0.14957 0.0
N405 N 0.03593 0.79009 0.13659 0.0
C406 C 0.01854 0.80496 0.16001 0.0
C407 C 0.00648 0.77297 0.14297 0.0
C408 C 0.02227 0.77423 0.1327 0.0
C409 C 1.00462 0.78837 0.1571 0.0
H410 H 0.04508 0.81807 0.15204 0.0
H411 H 0.02393 0.76233 0.12203 0.0
O412 O 0.10005 0.79136 0.1046 0.0
O413 O 0.07601 0.81492 0.12962 0.0
O414 O 0.05574 0.7838 0.09655 0.0
O415 O 0.07392 0.77149 0.13085 0.0
H416 H 0.12683 0.77859 0.12234 0.0
H417 H 0.09821 0.77758 0.06755 0.0
H418 H 0.14638 0.75706 0.10642 0.0
H419 H 0.11837 0.75618 0.05259 0.0
H420 H 0.09424 0.84586 0.19045 0.0
H421 H 0.09665 0.84597 0.12139 0.0
H422 H 0.07685 0.81804 0.16722 0.0
H423 H 0.11367 0.87331 0.14543 0.0
H424 H 0.096 0.82668 0.04279 0.0
H425 H 0.05317 0.85087 0.07226 0.0
H426 H 0.12634 0.77533 0.18305 0.0
H427 H 0.15009 0.83069 0.17071 0.0
H428 H 0.02606 0.79963 0.10315 0.0
H429 H 0.06186 0.7826 0.06003 0.0
H430 H 0.0072 0.81064 0.07877 0.0
H431 H 0.04225 0.79379 0.0364 0.0
H432 H 0.05344 0.737 0.11911 0.0
H433 H 0.06878 0.78303 0.16706 0.0
H434 H 0.03277 0.71907 0.13916 0.0
H435 H 0.04771 0.76434 0.18623 0.0
H436 H 0.09286 0.70769 0.09114 0.0
H437 H 0.0564 0.72077 0.04715 0.0
H438 H 0.01747 0.81736 0.17037 0.0
H439 H 0.99619 0.75985 0.1403 0.0
Li440 Li 0.50797 0.8132 0.41568 0.0
Li441 Li 0.49746 0.79614 0.3851 0.0
Li442 Li 0.50619 0.77892 0.40894 0.0
Li443 Li 0.52995 0.801 0.39523 0.0
C444 C 0.46713 0.78586 0.40287 0.0
N445 N 0.43042 0.77144 0.38823 0.0
C446 C 0.455 0.79818 0.39981 0.0
C447 C 0.46048 0.76619 0.39874 0.0
C448 C 0.43653 0.79062 0.3923 0.0
C449 C 0.4419 0.75919 0.3913 0.0
C450 C 0.50875 0.83572 0.38601 0.0
C451 C 0.50974 0.85992 0.36641 0.0
N452 N 0.49522 0.86597 0.37517 0.0
C453 C 0.49381 0.84219 0.39479 0.0
C454 C 0.51679 0.84467 0.3717 0.0
C455 C 0.48719 0.8575 0.38913 0.0
C456 C 0.52161 0.84799 0.43847 0.0
N457 N 0.50692 0.83313 0.43576 0.0
C458 C 0.49292 0.84735 0.46254 0.0
C459 C 0.49267 0.83244 0.44732 0.0
C460 C 0.50815 0.86271 0.46586 0.0
C461 C 0.5226 0.86295 0.45363 0.0
H462 H 0.53263 0.84807 0.42889 0.0
H463 H 0.48121 0.82031 0.44471 0.0
C464 C 0.47278 0.77293 0.35669 0.0
N465 N 0.47994 0.79168 0.36323 0.0
C466 C 0.45788 0.76745 0.34261 0.0
C467 C 0.45891 0.80063 0.34108 0.0
C468 C 0.4737 0.80548 0.35535 0.0
C469 C 0.45047 0.78144 0.33506 0.0
H470 H 0.47803 0.76222 0.36314 0.0
H471 H 0.4795 0.82026 0.36055 0.0
C472 C 0.53518 0.80674 0.43962 0.0
N473 N 0.55029 0.82461 0.47586 0.0
C474 C 0.55243 0.81933 0.44214 0.0
C475 C 0.52569 0.80308 0.45551 0.0
C476 C 0.55982 0.82826 0.46059 0.0
C477 C 0.53354 0.81231 0.47372 0.0
C478 C 0.51832 0.77264 0.3641 0.0
C479 C 0.51948 0.75399 0.35616 0.0
C480 C 0.5222 0.78704 0.35326 0.0
C481 C 0.52458 0.75006 0.33752 0.0
C482 C 0.52727 0.78254 0.33469 0.0
N483 N 0.52835 0.76429 0.32726 0.0
C484 C 0.49398 0.75391 0.43421 0.0
C485 C 0.51487 0.74451 0.41168 0.0
C486 C 0.49543 0.73846 0.44315 0.0
N487 N 0.50391 0.75668 0.419 0.0
C488 C 0.51669 0.72893 0.42009 0.0
C489 C 0.50724 0.726 0.4363 0.0
H490 H 0.48559 0.76409 0.43981 0.0
H491 H 0.52294 0.74749 0.39988 0.0
C492 C 0.56215 0.81865 0.38023 0.0
N493 N 0.55445 0.80373 0.38827 0.0
C494 C 0.57955 0.81904 0.37294 0.0
C495 C 0.581 0.78916 0.38327 0.0
C496 C 0.56353 0.78931 0.39024 0.0
C497 C 0.589 0.80393 0.37407 0.0
H498 H 0.55448 0.82987 0.3789 0.0
H499 H 0.55689 0.77765 0.39671 0.0
O500 O 0.48544 0.79296 0.40967 0.0
O501 O 0.51572 0.82094 0.39147 0.0
O502 O 0.52752 0.79824 0.42165 0.0
O503 O 0.51345 0.77668 0.3824 0.0
H504 H 0.45976 0.81342 0.40307 0.0
H505 H 0.46965 0.75641 0.40086 0.0
H506 H 0.42706 0.8 0.38971 0.0
H507 H 0.43664 0.74401 0.38786 0.0
H508 H 0.51581 0.86692 0.35533 0.0
H509 H 0.48725 0.83539 0.40569 0.0
H510 H 0.52826 0.83981 0.36464 0.0
H511 H 0.47562 0.86261 0.39579 0.0
H512 H 0.4815 0.84686 0.47166 0.0
H513 H 0.53437 0.87479 0.45556 0.0
H514 H 0.45173 0.7525 0.33824 0.0
H515 H 0.4534 0.81183 0.33569 0.0
H516 H 0.55992 0.82231 0.42995 0.0
H517 H 0.51228 0.79344 0.45376 0.0
H518 H 0.57311 0.83813 0.46276 0.0
H519 H 0.52629 0.80974 0.48615 0.0
H520 H 0.51644 0.74266 0.36431 0.0
H521 H 0.52133 0.80154 0.35908 0.0
H522 H 0.52554 0.73568 0.33121 0.0
H523 H 0.53034 0.79355 0.32617 0.0
H524 H 0.48789 0.73662 0.45559 0.0
H525 H 0.52627 0.71995 0.4146 0.0
H526 H 0.58512 0.83059 0.36577 0.0
H527 H 0.58794 0.7774 0.38469 0.0
Li528 Li 0.57652 0.30822 0.6017 0.0
Li529 Li 0.58926 0.29948 0.6306 0.0
Li530 Li 0.57403 0.27546 0.60362 0.0
Li531 Li 0.55611 0.29484 0.62408 0.0
C532 C 0.60917 0.28402 0.59589 0.0
N533 N 0.63232 0.26111 0.57888 0.0
C534 C 0.62371 0.27952 0.60684 0.0
C535 C 0.60648 0.27695 0.57625 0.0
C536 C 0.63525 0.26791 0.59798 0.0
C537 C 0.6183 0.26535 0.56793 0.0
C538 C 0.58389 0.33449 0.64113 0.0
C539 C 0.59465 0.35018 0.67342 0.0
N540 N 0.605 0.36475 0.66657 0.0
C541 C 0.59458 0.34962 0.63441 0.0
C542 C 0.58385 0.33477 0.66079 0.0
C543 C 0.60516 0.3648 0.64751 0.0
C544 C 0.56563 0.33663 0.58468 0.0
N545 N 0.57828 0.32495 0.58401 0.0
C546 C 0.58608 0.33093 0.55322 0.0
C547 C 0.58905 0.3226 0.56914 0.0
C548 C 0.57185 0.3416 0.55279 0.0
C549 C 0.56212 0.34511 0.56908 0.0
H550 H 0.55725 0.33812 0.59671 0.0
H551 H 0.59905 0.31327 0.56907 0.0
C552 C 0.6086 0.29154 0.66207 0.0
N553 N 0.60903 0.30435 0.65015 0.0
C554 C 0.6237 0.29278 0.67536 0.0
C555 C 0.63922 0.32083 0.66432 0.0
C556 C 0.62386 0.31891 0.65106 0.0
C557 C 0.63946 0.30737 0.67639 0.0
H558 H 0.59689 0.27981 0.66069 0.0
H559 H 0.62401 0.32863 0.6411 0.0
C560 C 0.5435 0.29273 0.58178 0.0
N561 N 0.52344 0.30402 0.55312 0.0
C562 C 0.52837 0.30168 0.58598 0.0
C563 C 0.5484 0.28948 0.56299 0.0
C564 C 0.5184 0.30728 0.57128 0.0
C565 C 0.53811 0.29533 0.54871 0.0
C566 C 0.55895 0.26588 0.64099 0.0
C567 C 0.54847 0.24819 0.63217 0.0
C568 C 0.55649 0.27319 0.65991 0.0
C569 C 0.53556 0.23815 0.6424 0.0
C570 C 0.5434 0.26274 0.66963 0.0
N571 N 0.5333 0.24559 0.66074 0.0
C572 C 0.58556 0.24031 0.59667 0.0
C573 C 0.56165 0.24388 0.57429 0.0
C574 C 0.58524 0.2218 0.58731 0.0
N575 N 0.57387 0.25087 0.59002 0.0
C576 C 0.56076 0.2254 0.56457 0.0
C577 C 0.57251 0.21408 0.57122 0.0
H578 H 0.59486 0.24619 0.60945 0.0
H579 H 0.55228 0.25246 0.56958 0.0
C580 C 0.53189 0.30878 0.64999 0.0
N581 N 0.53319 0.29459 0.63539 0.0
C582 C 0.51586 0.30784 0.65987 0.0
C583 C 0.50254 0.27803 0.63901 0.0
C584 C 0.51882 0.27959 0.62949 0.0
C585 C 0.50105 0.29214 0.65462 0.0
H586 H 0.54349 0.32059 0.65427 0.0
H587 H 0.52025 0.2686 0.6177 0.0
O588 O 0.5976 0.29523 0.60434 0.0
O589 O 0.57347 0.3195 0.62853 0.0
O590 O 0.55353 0.28728 0.59601 0.0
O591 O 0.57137 0.27613 0.6311 0.0
H592 H 0.62603 0.28482 0.62204 0.0
H593 H 0.59511 0.28001 0.56759 0.0
H594 H 0.64652 0.26427 0.6063 0.0
H595 H 0.61626 0.25964 0.55279 0.0
H596 H 0.59487 0.35053 0.68866 0.0
H597 H 0.59477 0.34962 0.61924 0.0
H598 H 0.57581 0.32307 0.66623 0.0
H599 H 0.61355 0.37659 0.64252 0.0
H600 H 0.59391 0.32803 0.54094 0.0
H601 H 0.55127 0.35358 0.56937 0.0
H602 H 0.62339 0.28182 0.684 0.0
H603 H 0.651 0.33241 0.66472 0.0
H604 H 0.52446 0.30445 0.60044 0.0
H605 H 0.56023 0.28282 0.55952 0.0
H606 H 0.5067 0.31428 0.57433 0.0
H607 H 0.54185 0.29307 0.53415 0.0
H608 H 0.55011 0.24234 0.61752 0.0
H609 H 0.5644 0.28693 0.6669 0.0
H610 H 0.52729 0.22449 0.63572 0.0
H611 H 0.54123 0.2683 0.68421 0.0
H612 H 0.59424 0.21335 0.59308 0.0
H613 H 0.55073 0.21989 0.55224 0.0
H614 H 0.51535 0.31895 0.67192 0.0
H615 H 0.49134 0.26584 0.63433 0.0
Li616 Li 0.01094 0.31606 0.93013 0.0
Li617 Li 0.99671 0.30273 0.89939 0.0
Li618 Li 0.00927 0.28335 0.91854 0.0
Li619 Li 0.03047 0.30645 0.90348 0.0
C620 C 0.97763 0.30294 0.93757 0.0
N621 N 0.95742 0.31783 0.96614 0.0
C622 C 0.96483 0.31436 0.93368 0.0
C623 C 0.98013 0.29914 0.95604 0.0
C624 C 0.95474 0.32171 0.94829 0.0
C625 C 0.96981 0.3068 0.97028 0.0
C626 C 0.01054 0.33783 0.89371 0.0
C627 C 0.01668 0.35278 0.86629 0.0
N628 N 1.00072 0.35995 0.86816 0.0
C629 C 0.99423 0.34541 0.89538 0.0
C630 C 0.02188 0.34157 0.87906 0.0
C631 C 0.98949 0.35652 0.88231 0.0
C632 C 0.02171 0.33403 0.96863 0.0
N633 N 0.01124 0.33453 0.95239 0.0
C634 C 1.00111 0.36241 0.96726 0.0
C635 C 1.00098 0.34827 0.95148 0.0
C636 C 0.01217 0.3626 0.98409 0.0
C637 C 0.02238 0.34803 0.98478 0.0
H638 H 0.0299 0.32307 0.96892 0.0
H639 H 0.99292 0.34843 0.93839 0.0
C640 C 0.95964 0.2925 0.88521 0.0
N641 N 0.97655 0.30118 0.88078 0.0
C642 C 0.94366 0.29095 0.87307 0.0
C643 C 0.96292 0.30582 0.85108 0.0
C644 C 0.97859 0.30717 0.86378 0.0
C645 C 0.94516 0.29806 0.856 0.0
H646 H 0.95854 0.28681 0.89825 0.0
H647 H 0.99233 0.31306 0.86009 0.0
C648 C 0.04159 0.29134 0.93983 0.0
N649 N 0.06003 0.268 0.95773 0.0
C650 C 0.05778 0.28601 0.93282 0.0
C651 C 0.03495 0.28501 0.95613 0.0
C652 C 0.06688 0.27418 0.94204 0.0
C653 C 0.04441 0.27314 0.96491 0.0
C654 C 1.00307 0.27312 0.8751 0.0
C655 C 0.98787 0.25858 0.87596 0.0
C656 C 0.00821 0.27708 0.85738 0.0
C657 C 0.97793 0.24829 0.859 0.0
C658 C 0.99793 0.26645 0.84075 0.0
N659 N 0.98312 0.25241 0.8419 0.0
C660 C 0.99583 0.25201 0.93641 0.0
C661 C 0.02061 0.24922 0.91648 0.0
C662 C 0.99803 0.23547 0.94306 0.0
N663 N 0.00765 0.25887 0.92404 0.0
C664 C 0.02333 0.2327 0.92272 0.0
C665 C 0.01244 0.22608 0.93675 0.0
H666 H 0.98537 0.25982 0.9418 0.0
H667 H 0.0297 0.25512 0.90657 0.0
C668 C 0.06592 0.32676 0.89635 0.0
N669 N 0.05341 0.31001 0.89252 0.0
C670 C 0.08314 0.32826 0.88841 0.0
C671 C 0.07417 0.2952 0.87314 0.0
C672 C 0.05716 0.2944 0.88121 0.0
C673 C 0.08744 0.31226 0.87677 0.0
H674 H 0.06256 0.33886 0.90562 0.0
H675 H 0.04703 0.28121 0.87872 0.0
O676 O 0.98788 0.29582 0.9235 0.0
O677 O 0.01559 0.32709 0.90648 0.0
O678 O 0.03218 0.3025 0.93065 0.0
O679 O 0.01267 0.28366 0.89155 0.0
H680 H 0.96293 0.31785 0.91963 0.0
H681 H 0.99015 0.29064 0.95948 0.0
H682 H 0.94487 0.33063 0.94547 0.0
H683 H 0.97171 0.30405 0.98465 0.0
H684 H 0.0253 0.35573 0.85487 0.0
H685 H 0.98507 0.34241 0.90635 0.0
H686 H 0.03449 0.33578 0.87744 0.0
H687 H 0.97683 0.36233 0.88335 0.0
H688 H 0.9934 0.37364 0.96593 0.0
H689 H 0.03118 0.34778 0.99745 0.0
H690 H 0.93023 0.28431 0.87701 0.0
H691 H 0.96458 0.3112 0.83786 0.0
H692 H 0.06325 0.29085 0.92034 0.0
H693 H 0.02241 0.28887 0.96174 0.0
H694 H 0.07936 0.26986 0.93668 0.0
H695 H 0.03926 0.26794 0.97737 0.0
H696 H 0.98365 0.25544 0.88958 0.0
H697 H 0.01987 0.2884 0.85651 0.0
H698 H 0.96606 0.23707 0.85944 0.0
H699 H 1.00167 0.26941 0.82693 0.0
H700 H 0.98914 0.23056 0.95361 0.0
H701 H 0.0347 0.22602 0.91762 0.0
H702 H 0.09309 0.34161 0.8916 0.0
H703 H 0.07687 0.28263 0.86406 0.0
Li704 Li 0.41335 0.03442 0.32003 0.0
Li705 Li 0.38453 0.01428 0.30412 0.0
Li706 Li 0.40934 0.02776 0.286 0.0
Li707 Li 0.39004 0.04745 0.30357 0.0
C708 C 0.41845 0.99633 0.29275 0.0
N709 N 0.43456 0.97062 0.26923 0.0
C710 C 0.40726 0.97987 0.28201 0.0
C711 C 0.43784 0.99969 0.29158 0.0
C712 C 0.41568 0.96704 0.27022 0.0
C713 C 0.44571 0.98654 0.27957 0.0
C714 C 0.37608 0.02682 0.33819 0.0
C715 C 0.34529 0.01424 0.34666 0.0
N716 N 0.35327 0.00785 0.36141 0.0
C717 C 0.38397 0.02016 0.35346 0.0
C718 C 0.35658 0.0239 0.33478 0.0
C719 C 0.3722 0.0106 0.36503 0.0
C720 C 0.43201 0.05435 0.35521 0.0
N721 N 0.43072 0.03851 0.34166 0.0
C722 C 0.45385 0.02751 0.35955 0.0
C723 C 0.44123 0.02515 0.34353 0.0
C724 C 0.45562 0.04378 0.37378 0.0
C725 C 0.44457 0.05738 0.37139 0.0
H726 H 0.4232 0.06456 0.35345 0.0
H727 H 0.43954 0.01247 0.33277 0.0
C728 C 0.35101 0.9878 0.29215 0.0
N729 N 0.36659 0.99214 0.30462 0.0
C730 C 0.3388 0.9704 0.29069 0.0
C731 C 0.35865 0.96252 0.31533 0.0
C732 C 0.37046 0.98012 0.31635 0.0
C733 C 0.34286 0.95729 0.30198 0.0
H734 H 0.34845 0.99747 0.28278 0.0
H735 H 0.38316 0.98388 0.3259 0.0
C736 C 0.43155 0.06666 0.31212 0.0
N737 N 0.45982 0.0941 0.33313 0.0
C738 C 0.42772 0.08413 0.3208 0.0
C739 C 0.44979 0.06318 0.31407 0.0
C740 C 0.4422 0.09781 0.33136 0.0
C741 C 0.46387 0.07722 0.32478 0.0
C742 C 0.37089 0.0335 0.27006 0.0
C743 C 0.37779 0.04018 0.25402 0.0
C744 C 0.35274 0.03519 0.27458 0.0
C745 C 0.36643 0.04848 0.24281 0.0
C746 C 0.34184 0.04364 0.26304 0.0
N747 N 0.34885 0.05005 0.24753 0.0
C748 C 0.41298 0.00927 0.24881 0.0
C749 C 0.43901 0.03325 0.26261 0.0
C750 C 0.42209 1.00504 0.23237 0.0
N751 N 0.42159 0.0231 0.26348 0.0
C752 C 0.4487 0.02937 0.24657 0.0
C753 C 0.44024 0.01508 0.23123 0.0
H754 H 0.39909 1.00144 0.24997 0.0
H755 H 0.44541 0.04427 0.2744 0.0
C756 C 0.36417 0.07094 0.31442 0.0
N757 N 0.37807 0.06829 0.3029 0.0
C758 C 0.35275 0.08384 0.31138 0.0
C759 C 0.37092 0.09173 0.2854 0.0
C760 C 0.38208 0.07882 0.28907 0.0
C761 C 0.35572 0.09391 0.29629 0.0
H762 H 0.36142 0.06243 0.32537 0.0
H763 H 0.39332 0.07641 0.28022 0.0
O764 O 0.41043 0.00932 0.30402 0.0
O765 O 0.38736 0.03594 0.3265 0.0
O766 O 0.41753 0.05305 0.3018 0.0
O767 O 0.38193 0.02563 0.28142 0.0
H768 H 0.39222 0.97712 0.28255 0.0
H769 H 0.44668 0.01248 0.29958 0.0
H770 H 0.40719 0.95429 0.26176 0.0
H771 H 0.46067 0.98903 0.27841 0.0
H772 H 0.33019 0.01176 0.34409 0.0
H773 H 0.39901 0.02221 0.35628 0.0
H774 H 0.35022 0.02872 0.32288 0.0
H775 H 0.37811 1.00532 0.37686 0.0
H776 H 0.46172 0.01643 0.361 0.0
H777 H 0.44556 0.07019 0.38193 0.0
H778 H 0.32669 0.96695 0.28031 0.0
H779 H 0.36246 0.95271 0.32408 0.0
H780 H 0.4137 0.08706 0.3195 0.0
H781 H 0.45296 0.04964 0.30772 0.0
H782 H 0.43943 0.11137 0.33819 0.0
H783 H 0.47799 0.07465 0.32653 0.0
H784 H 0.39185 0.03921 0.25039 0.0
H785 H 0.34726 0.03042 0.28711 0.0
H786 H 0.37162 0.05378 0.23041 0.0
H787 H 0.32786 0.04521 0.26649 0.0
H788 H 0.41517 0.99388 0.22083 0.0
H789 H 0.46257 0.03761 0.24606 0.0
H790 H 0.34115 0.08517 0.32006 0.0
H791 H 0.37378 0.09949 0.27383 0.0
Li792 Li 0.28338 0.20468 0.52006 0.0
Li793 Li 0.2976 0.18001 0.50344 0.0
Li794 Li 0.28479 0.20326 0.48561 0.0
Li795 Li 0.26333 0.17863 0.49936 0.0
C796 C 0.31975 0.22176 0.5154 0.0
N797 N 0.34759 0.25013 0.5357 0.0
C798 C 0.32963 0.21855 0.53154 0.0
C799 C 0.32413 0.23932 0.50946 0.0
C800 C 0.34362 0.2331 0.54165 0.0
C801 C 0.33823 0.2535 0.51995 0.0
C802 C 0.27586 0.15938 0.52598 0.0
C803 C 0.27128 0.1255 0.51473 0.0
N804 N 0.26965 0.12253 0.53295 0.0
C805 C 0.27417 0.15597 0.54459 0.0
C806 C 0.27445 0.14401 0.51091 0.0
C807 C 0.27103 0.13725 0.54782 0.0
C808 C 0.27349 0.21113 0.55738 0.0
N809 N 0.28425 0.22013 0.54537 0.0
C810 C 0.29624 0.24622 0.571 0.0
C811 C 0.29511 0.23767 0.55169 0.0
C812 C 0.28578 0.23685 0.58385 0.0
C813 C 0.27402 0.21922 0.57665 0.0
H814 H 0.26469 0.19739 0.55202 0.0
H815 H 0.30314 0.24496 0.54192 0.0
C816 C 0.32601 0.15892 0.49077 0.0
N817 N 0.31735 0.16609 0.50598 0.0
C818 C 0.34071 0.14926 0.49345 0.0
C819 C 0.33716 0.15447 0.52729 0.0
C820 C 0.32264 0.16404 0.52398 0.0
C821 C 0.34656 0.14701 0.51196 0.0
H822 H 0.32162 0.16087 0.4766 0.0
H823 H 0.3156 0.16993 0.53585 0.0
C824 C 0.25896 0.22309 0.50962 0.0
N825 N 0.25229 0.25712 0.52908 0.0
C826 C 0.24438 0.22319 0.52156 0.0
C827 C 0.2701 0.2403 0.50751 0.0
C828 C 0.24125 0.24054 0.5313 0.0
C829 C 0.26651 0.25736 0.51747 0.0
C830 C 0.27252 0.16822 0.46091 0.0
C831 C 0.25693 0.1753 0.45509 0.0
C832 C 0.27944 0.15491 0.44812 0.0
C833 C 0.24852 0.16896 0.43648 0.0
C834 C 0.27062 0.14889 0.42964 0.0
N835 N 0.25548 0.15599 0.42425 0.0
C836 C 0.30431 0.21681 0.45518 0.0
C837 C 0.27325 0.22225 0.45603 0.0
C838 C 0.30626 0.22417 0.43824 0.0
N839 N 0.28793 0.21583 0.46364 0.0
C840 C 0.27454 0.22955 0.43904 0.0
C841 C 0.29115 0.23043 0.42973 0.0
H842 H 0.31574 0.21144 0.46136 0.0
H843 H 0.26033 0.22128 0.46291 0.0
C844 C 0.22836 0.16557 0.5117 0.0
N845 N 0.23913 0.16188 0.49708 0.0
C846 C 0.21072 0.15424 0.51194 0.0
C847 C 0.21563 0.13506 0.48228 0.0
C848 C 0.23325 0.14676 0.48264 0.0
C849 C 0.20401 0.13877 0.49702 0.0
H850 H 0.23363 0.17719 0.52339 0.0
H851 H 0.24222 0.14359 0.47147 0.0
O852 O 0.30606 0.20773 0.50526 0.0
O853 O 0.27898 0.17769 0.52268 0.0
O854 O 0.26275 0.20626 0.50049 0.0
O855 O 0.28113 0.17437 0.47897 0.0
H856 H 0.32637 0.20506 0.53633 0.0
H857 H 0.31669 0.24196 0.49691 0.0
H858 H 0.3513 0.23087 0.55425 0.0
H859 H 0.34174 0.26718 0.51557 0.0
H860 H 0.27014 0.1135 0.5032 0.0
H861 H 0.27536 0.16768 0.55645 0.0
H862 H 0.27579 0.14627 0.49641 0.0
H863 H 0.2697 0.13442 0.56216 0.0
H864 H 0.30523 0.26 0.57583 0.0
H865 H 0.26573 0.21141 0.58595 0.0
H866 H 0.34764 0.14395 0.4812 0.0
H867 H 0.34086 0.15283 0.54176 0.0
H868 H 0.23565 0.21002 0.5234 0.0
H869 H 0.28153 0.24046 0.49843 0.0
H870 H 0.23006 0.24083 0.54066 0.0
H871 H 0.27508 0.27077 0.51605 0.0
H872 H 0.25131 0.18549 0.46486 0.0
H873 H 0.2915 0.14929 0.45243 0.0
H874 H 0.23645 0.17432 0.43178 0.0
H875 H 0.27581 0.13859 0.41958 0.0
H876 H 0.31927 0.22436 0.43155 0.0
H877 H 0.26259 0.2344 0.43321 0.0
H878 H 0.20258 0.1574 0.52391 0.0
H879 H 0.21113 0.12333 0.47047 0.0
Li880 Li 0.18176 0.03854 0.77262 0.0
Li881 Li 0.15526 0.01702 0.78871 0.0
Li882 Li 0.17942 0.99737 0.76868 0.0
Li883 Li 0.15469 0.01448 0.7509 0.0
C884 C 0.18704 0.02298 0.81179 0.0
N885 N 0.19047 0.02807 0.85115 0.0
C886 C 0.1893 0.04125 0.82266 0.0
C887 C 0.18651 0.00729 0.82088 0.0
C888 C 0.19102 0.04352 0.84256 0.0
C889 C 0.18828 0.01017 0.84082 0.0
C890 C 0.14022 0.04682 0.77608 0.0
C891 C 0.10755 0.04902 0.77466 0.0
N892 N 0.11212 0.06676 0.78547 0.0
C893 C 0.14462 0.06506 0.78716 0.0
C894 C 0.12156 0.0387 0.76978 0.0
C895 C 0.1302 0.07492 0.79176 0.0
C896 C 0.18802 0.07822 0.76416 0.0
N897 N 0.19683 0.06661 0.77331 0.0
C898 C 0.22336 0.09322 0.78228 0.0
C899 C 0.21436 0.07403 0.78231 0.0
C900 C 0.21453 0.10564 0.77304 0.0
C901 C 0.19644 0.09745 0.76391 0.0
H902 H 0.1742 0.07259 0.75691 0.0
H903 H 0.22154 0.06515 0.78971 0.0
C904 C 0.13192 1.00242 0.82083 0.0
N905 N 0.14053 0.01845 0.81462 0.0
C906 C 0.12269 1.00329 0.83813 0.0
C907 C 0.1309 0.03712 0.84317 0.0
C908 C 0.14001 0.03564 0.82581 0.0
C909 C 0.12181 0.02085 0.85007 0.0
H910 H 0.13223 0.98863 0.81244 0.0
H911 H 0.14682 0.04855 0.82146 0.0
C912 C 0.18435 0.0149 0.73048 0.0
N913 N 0.18474 0.01066 0.69131 0.0
C914 C 0.18412 0.99698 0.71957 0.0
C915 C 0.18481 0.03067 0.72153 0.0
C916 C 0.18434 0.99514 0.69976 0.0
C917 C 0.18498 0.02823 0.70168 0.0
C918 C 0.1363 0.97955 0.75754 0.0
C919 C 0.14024 0.96493 0.7439 0.0
C920 C 0.11771 0.98061 0.76065 0.0
C921 C 0.12542 0.95157 0.73349 0.0
C922 C 0.10329 0.96697 0.74994 0.0
N923 N 0.10741 0.95286 0.73669 0.0
C924 C 0.18652 0.95733 0.77587 0.0
C925 C 0.20979 0.9712 0.7585 0.0
C926 C 0.19505 0.94084 0.77535 0.0
N927 N 0.19374 0.97254 0.76754 0.0
C928 C 0.21876 0.95495 0.75769 0.0
C929 C 0.21167 0.93893 0.76614 0.0
H930 H 0.1739 0.95778 0.78312 0.0
H931 H 0.21589 0.98279 0.75164 0.0
C932 C 0.13496 0.03149 0.72084 0.0
N933 N 0.13958 0.01471 0.72408 0.0
C934 C 0.12621 0.03332 0.70298 0.0
C935 C 0.12685 1.00071 0.69119 0.0
C936 C 0.13553 0.99944 0.70933 0.0
C937 C 0.12189 0.01788 0.68737 0.0
H938 H 0.13839 0.04387 0.73208 0.0
H939 H 0.13928 0.98611 0.71137 0.0
O940 O 0.18451 0.0204 0.79234 0.0
O941 O 0.15409 0.03686 0.77161 0.0
O942 O 0.18334 0.01683 0.74976 0.0
O943 O 0.15059 0.99295 0.76759 0.0
H944 H 0.1895 0.05349 0.81577 0.0
H945 H 0.18457 0.99305 0.81261 0.0
H946 H 0.1927 0.05756 0.85118 0.0
H947 H 0.18784 0.99816 0.84808 0.0
H948 H 0.09303 0.04293 0.76987 0.0
H949 H 0.15901 0.07146 0.79228 0.0
H950 H 0.11797 0.02458 0.76117 0.0
H951 H 0.13338 0.08903 0.80036 0.0
H952 H 0.23713 0.09832 0.78981 0.0
H953 H 0.18875 0.10574 0.75625 0.0
H954 H 0.1165 0.98998 0.84214 0.0
H955 H 0.13095 0.05123 0.85098 0.0
H956 H 0.18358 0.98461 0.72631 0.0
H957 H 0.18479 0.04459 0.7298 0.0
H958 H 0.1841 0.98135 0.6911 0.0
H959 H 0.18522 0.04028 0.69453 0.0
H960 H 0.1546 0.96401 0.74133 0.0
H961 H 0.11448 0.99185 0.7712 0.0
H962 H 0.12824 0.9402 0.72283 0.0
H963 H 0.08881 0.9676 0.75215 0.0
H964 H 0.18847 0.92969 0.78249 0.0
H965 H 0.23122 0.95503 0.75011 0.0
H966 H 0.12329 0.0471 0.70141 0.0
H967 H 0.12399 0.98807 0.68025 0.0
Li968 Li 0.26065 0.95602 1.00191 0.0
Li969 Li 0.2761 0.93431 0.01753 0.0
Li970 Li 0.29595 0.95878 1.0029 0.0
Li971 Li 0.27546 0.93065 0.98284 0.0
C972 C 0.27219 0.97446 0.03703 0.0
N973 N 0.25478 0.99849 0.06105 0.0
C974 C 0.25882 0.967 0.04847 0.0
C975 C 0.27681 0.99412 0.03787 0.0
C976 C 0.25014 0.97939 0.06051 0.0
C977 C 0.26783 1.00604 0.0501 0.0
C978 C 0.24133 0.91517 0.98572 0.0
C979 C 0.22844 0.8832 0.96944 0.0
N980 N 0.21739 0.89022 0.95748 0.0
C981 C 0.22994 0.92209 0.97319 0.0
C982 C 0.24065 0.89558 0.98379 0.0
C983 C 0.21789 0.90924 0.95904 0.0
C984 C 0.23512 0.98415 0.99949 0.0
N985 N 0.23771 0.96749 1.00472 0.0
C986 C 0.20663 0.96285 0.01544 0.0
C987 C 0.22381 0.95699 0.01269 0.0
C988 C 0.20336 0.97986 0.01007 0.0
C989 C 0.21809 0.99062 1.00211 0.0
H990 H 0.24618 0.99243 0.99317 0.0
H991 H 0.22604 0.9439 0.01697 0.0
C992 C 0.28868 0.92845 0.05392 0.0
N993 N 0.27549 0.92151 0.03895 0.0
C994 C 0.29017 0.91827 0.06877 0.0
C995 C 0.264 0.89439 0.05285 0.0
C996 C 0.26294 0.90509 0.03839 0.0
C997 C 0.27796 0.90078 0.06813 0.0
H998 H 0.2985 0.94155 0.05396 0.0
H999 H 0.25246 0.90001 0.02646 0.0
C1000 C 0.28689 0.97255 0.97271 0.0
N1001 N 0.30774 1.00179 0.9582 0.0
C1002 C 0.29665 0.9685 0.95667 0.0
C1003 C 0.28769 0.99144 0.98135 0.0
C1004 C 0.30712 0.98349 0.94955 0.0
C1005 C 0.29832 1.00603 0.97381 0.0
C1006 C 0.30723 0.92176 0.01128 0.0
C1007 C 0.32433 0.93103 0.02135 0.0
C1008 C 0.30033 0.90274 0.01241 0.0
C1009 C 0.33424 0.92112 0.03225 0.0
C1010 C 0.31062 0.89334 0.02352 0.0
N1011 N 0.32724 0.90265 0.03311 0.0
C1012 C 0.33015 0.9865 0.01938 0.0
C1013 C 0.33204 0.96693 0.98982 0.0
C1014 C 0.34965 0.99344 0.02097 0.0
N1015 N 0.32174 0.97329 1.00403 0.0
C1016 C 0.35146 0.97353 0.99079 0.0
C1017 C 0.36075 0.98676 0.00667 0.0
H1018 H 0.32191 0.99105 0.03081 0.0
H1019 H 0.32531 0.95589 0.97811 0.0
C1020 C 0.26932 0.91687 0.94196 0.0
N1021 N 0.2744 0.91252 0.95913 0.0
C1022 C 0.27018 0.9043 0.92492 0.0
C1023 C 0.28068 0.88266 0.9435 0.0
C1024 C 0.27986 0.89571 0.96009 0.0
C1025 C 0.2761 0.88695 0.92554 0.0
H1026 H 0.26495 0.93027 0.94146 0.0
H1027 H 0.28393 0.89249 0.97372 0.0
O1028 O 0.28037 0.96253 0.0247 0.0
O1029 O 0.2537 0.92757 0.99922 0.0
O1030 O 0.27692 0.95809 0.98017 0.0
O1031 O 0.29711 0.93134 1.00078 0.0
H1032 H 0.255 0.95179 0.04787 0.0
H1033 H 0.28716 1.0001 0.02911 0.0
H1034 H 0.23968 0.97382 0.06936 0.0
H1035 H 0.27121 0.02129 0.05086 0.0
H1036 H 0.22782 0.86801 0.96773 0.0
H1037 H 0.23057 0.93722 0.97418 0.0
H1038 H 0.24971 0.88998 0.99302 0.0
H1039 H 0.20901 0.91439 0.94924 0.0
H1040 H 0.19607 0.95413 0.02197 0.0
H1041 H 0.21638 1.00377 0.99758 0.0
H1042 H 0.30121 0.92365 0.08021 0.0
H1043 H 0.25413 0.88113 0.05197 0.0
H1044 H 0.29633 0.95394 0.94992 0.0
H1045 H 0.28032 0.99478 0.99386 0.0
H1046 H 0.31481 0.98057 0.93719 0.0
H1047 H 0.29912 0.02073 0.98039 0.0
H1048 H 0.3299 0.94575 0.02094 0.0
H1049 H 0.28681 0.89547 0.00542 0.0
H1050 H 0.34747 0.92816 0.0401 0.0
H1051 H 0.3053 0.87871 0.02468 0.0
H1052 H 0.356 1.00372 0.03345 0.0
H1053 H 0.35922 0.96755 0.97955 0.0
H1054 H 0.26634 0.90816 0.91141 0.0
H1055 H 0.28553 0.86962 0.94473 0.0
Li1056 Li 0.29329 0.39111 0.03143 0.0
Li1057 Li 0.30683 0.36785 0.04876 0.0
Li1058 Li 0.32796 0.39229 0.03269 0.0
Li1059 Li 0.30587 0.36602 0.01387 0.0
C1060 C 0.31073 0.40954 0.07012 0.0
N1061 N 0.30822 0.43547 0.10254 0.0
C1062 C 0.29822 0.40457 0.08343 0.0
C1063 C 0.32208 0.42767 0.07339 0.0
C1064 C 0.29712 0.41788 0.09971 0.0
C1065 C 0.32057 0.44059 0.08984 0.0
C1066 C 0.27404 0.34718 0.01949 0.0
C1067 C 0.26767 0.31303 0.01019 0.0
N1068 N 0.25458 0.31438 0.99636 0.0
C1069 C 0.26048 0.34826 1.00527 0.0
C1070 C 0.27766 0.32946 0.02205 0.0
C1071 C 0.25081 0.33149 0.99369 0.0
C1072 C 0.26683 0.40638 0.01229 0.0
N1073 N 0.2735 0.40531 0.03019 0.0
C1074 C 0.25111 0.4229 0.04375 0.0
C1075 C 0.26593 0.41327 0.04582 0.0
C1076 C 0.24397 0.42431 0.0254 0.0
C1077 C 0.25215 0.41594 0.00956 0.0
H1078 H 0.27288 0.39971 1.00005 0.0
H1079 H 0.27113 0.41196 0.05989 0.0
C1080 C 0.32125 0.35437 0.08109 0.0
N1081 N 0.30529 0.35649 0.0715 0.0
C1082 C 0.32059 0.34821 0.09872 0.0
C1083 C 0.2871 0.34651 0.09634 0.0
C1084 C 0.28836 0.35236 0.07861 0.0
C1085 C 0.30338 0.34451 0.10676 0.0
H1086 H 0.33458 0.35791 0.07526 0.0
H1087 H 0.27587 0.35425 0.07078 0.0
C1088 C 0.31329 0.41055 0.00584 0.0
N1089 N 0.31969 0.44628 0.99604 0.0
C1090 C 0.31608 0.41255 0.98698 0.0
C1091 C 0.31367 0.42672 0.01967 0.0
C1092 C 0.31933 0.43074 0.98232 0.0
C1093 C 0.31694 0.44465 0.01445 0.0
C1094 C 0.33693 0.35173 0.02278 0.0
C1095 C 0.34787 0.35638 0.00813 0.0
C1096 C 0.33578 0.33388 0.02803 0.0
C1097 C 0.35738 0.34294 0.9988 0.0
C1098 C 0.34553 0.32085 0.01837 0.0
N1099 N 0.35602 0.32561 1.00406 0.0
C1100 C 0.36312 0.41393 0.05118 0.0
C1101 C 0.35887 0.41269 0.01778 0.0
C1102 C 0.38084 0.42558 0.05207 0.0
N1103 N 0.35244 0.40796 0.03423 0.0
C1104 C 0.37629 0.42452 0.01806 0.0
C1105 C 0.38748 0.43122 0.03536 0.0
H1106 H 0.35781 0.40974 0.06403 0.0
H1107 H 0.35051 0.40723 1.00437 0.0
C1108 C 0.29434 0.35891 0.97519 0.0
N1109 N 0.30191 0.35024 0.9884 0.0
C1110 C 0.29185 0.35061 0.95588 0.0
C1111 C 0.30442 0.32404 0.96382 0.0
C1112 C 0.30654 0.33285 0.98313 0.0
C1113 C 0.29714 0.33304 0.94983 0.0
H1114 H 0.29038 0.37251 0.97965 0.0
H1115 H 0.31205 0.32584 0.99377 0.0
O1116 O 0.31227 0.39657 0.05426 0.0
O1117 O 0.28414 0.36342 0.03051 0.0
O1118 O 0.31017 0.3928 0.01059 0.0
O1119 O 0.32758 0.36468 0.03214 0.0
H1120 H 0.28922 0.39071 0.08108 0.0
H1121 H 0.33198 0.43176 0.06336 0.0
H1122 H 0.2874 0.41424 0.11006 0.0
H1123 H 0.32924 0.45467 0.09251 0.0
H1124 H 0.27038 0.29921 0.01192 0.0
H1125 H 0.25763 0.36191 1.00307 0.0
H1126 H 0.28823 0.32845 0.03294 0.0
H1127 H 0.24035 0.33209 0.98253 0.0
H1128 H 0.24509 0.42881 0.0564 0.0
H1129 H 0.24737 0.41683 0.99514 0.0
H1130 H 0.3335 0.34696 0.10628 0.0
H1131 H 0.27352 0.34362 0.10187 0.0
H1132 H 0.3159 0.40019 0.97608 0.0
H1133 H 0.31128 0.42543 0.03422 0.0
H1134 H 0.32159 0.43249 0.9678 0.0
H1135 H 0.31724 0.45727 0.02503 0.0
H1136 H 0.34887 0.37015 1.00392 0.0
H1137 H 0.32738 0.33013 0.03939 0.0
H1138 H 0.36582 0.34628 0.98735 0.0
H1139 H 0.34474 0.30695 0.02222 0.0
H1140 H 0.38909 0.43044 0.06569 0.0
H1141 H 0.38106 0.42824 1.0048 0.0
H1142 H 0.28631 0.35822 0.94573 0.0
H1143 H 0.30839 0.31033 0.9599 0.0
Li1144 Li 0.80892 0.13397 0.04778 0.0
Li1145 Li 0.8235 0.10889 0.02708 0.0
Li1146 Li 0.80607 0.13159 0.01247 0.0
Li1147 Li 0.78871 0.10748 0.02789 0.0
C1148 C 0.84672 0.1449 0.03988 0.0
N1149 N 0.88165 0.15891 0.0593 0.0
C1150 C 0.85239 0.13705 0.05536 0.0
C1151 C 0.85879 0.15986 0.03429 0.0
C1152 C 0.87012 0.14433 0.06498 0.0
C1153 C 0.8764 0.16676 0.0443 0.0
C1154 C 0.79786 0.09008 0.05385 0.0
C1155 C 0.78794 0.05595 0.04704 0.0
N1156 N 0.77642 0.05712 0.0614 0.0
C1157 C 0.78599 0.09095 0.06858 0.0
C1158 C 0.7989 0.07245 0.04302 0.0
C1159 C 0.77524 0.07412 0.07216 0.0
C1160 C 0.79462 0.14868 0.08177 0.0
N1161 N 0.80989 0.15171 0.07171 0.0
C1162 C 0.82252 0.18046 0.09396 0.0
C1163 C 0.8237 0.16732 0.07745 0.0
C1164 C 0.8069 0.17766 0.10471 0.0
C1165 C 0.7929 0.16137 0.09837 0.0
H1166 H 0.7835 0.13656 0.07663 0.0
H1167 H 0.83542 0.16998 0.06899 0.0
C1168 C 0.85882 0.10558 0.01201 0.0
N1169 N 0.84682 0.09802 0.02399 0.0
C1170 C 0.87636 0.10025 0.00987 0.0
C1171 C 0.86908 0.07898 0.03209 0.0
C1172 C 0.85171 0.0849 0.03399 0.0
C1173 C 0.8819 0.08677 0.02 0.0
H1174 H 0.8549 0.11611 1.00427 0.0
H1175 H 0.84232 0.07922 0.04376 0.0
C1176 C 0.78364 0.15268 0.03243 0.0
N1177 N 0.77696 0.18936 0.03585 0.0
C1178 C 0.76527 0.15592 0.03215 0.0
C1179 C 0.7986 0.16813 0.0343 0.0
C1180 C 0.76219 0.17456 0.03393 0.0
C1181 C 0.79494 0.18654 0.03606 0.0
C1182 C 0.79323 0.08902 0.99225 0.0
C1183 C 0.77736 0.09196 0.98209 0.0
C1184 C 0.79827 0.07114 0.9891 0.0
C1185 C 0.76663 0.07684 0.96904 0.0
C1186 C 0.78717 0.05639 0.97592 0.0
N1187 N 0.77171 0.05952 0.96626 0.0
C1188 C 0.82028 0.15322 0.9841 0.0
C1189 C 0.7873 0.14674 0.98489 0.0
C1190 C 0.81864 0.1631 0.96896 0.0
N1191 N 0.80469 0.14527 0.9917 0.0
C1192 C 0.78502 0.15647 0.96986 0.0
C1193 C 0.80079 0.16477 0.96156 0.0
H1194 H 0.83396 0.15182 0.98974 0.0
H1195 H 0.77511 0.1404 0.99122 0.0
C1196 C 0.75159 0.10383 0.03753 0.0
N1197 N 0.76257 0.09311 0.02752 0.0
C1198 C 0.73217 0.09756 0.03691 0.0
C1199 C 0.73538 0.06837 0.01687 0.0
C1200 C 0.75487 0.07536 0.01768 0.0
C1201 C 0.72361 0.07976 0.02616 0.0
H1202 H 0.75789 0.1176 0.04581 0.0
H1203 H 0.76366 0.06673 0.01006 0.0
O1204 O 0.82953 0.13788 0.03011 0.0
O1205 O 0.80796 0.1064 0.04958 0.0
O1206 O 0.78682 0.13445 0.03061 0.0
O1207 O 0.80394 0.10362 1.00504 0.0
H1208 H 0.84323 0.12546 0.05988 0.0
H1209 H 0.85458 0.16608 0.02234 0.0
H1210 H 0.8747 0.13839 0.07696 0.0
H1211 H 0.88589 0.17834 0.04014 0.0
H1212 H 0.78854 0.04222 0.0387 0.0
H1213 H 0.785 0.10445 0.07711 0.0
H1214 H 0.80794 0.07156 0.0315 0.0
H1215 H 0.76593 0.07458 0.08346 0.0
H1216 H 0.83351 0.19295 0.09792 0.0
H1217 H 0.78067 0.15837 0.10613 0.0
H1218 H 0.88545 0.10659 1.0002 0.0
H1219 H 0.87262 0.06874 0.04043 0.0
H1220 H 0.75348 0.14418 0.03046 0.0
H1221 H 0.81291 0.16601 0.03438 0.0
H1222 H 0.74805 0.17725 0.03375 0.0
H1223 H 0.8064 0.1986 0.03757 0.0
H1224 H 0.77325 0.10569 0.98441 0.0
H1225 H 0.81065 0.06872 0.99671 0.0
H1226 H 0.75423 0.07887 0.96116 0.0
H1227 H 0.79087 0.04246 0.97337 0.0
H1228 H 0.8312 0.1691 0.96295 0.0
H1229 H 0.771 0.15765 0.96496 0.0
H1230 H 0.7239 0.10669 0.04475 0.0
H1231 H 0.72951 0.05448 0.00849 0.0
Li1232 Li 0.19784 0.56023 0.24826 0.0
Li1233 Li 0.17325 0.56127 0.26862 0.0
Li1234 Li 0.18568 0.53277 0.26207 0.0
Li1235 Li 0.1661 0.54325 0.2368 0.0
C1236 C 0.21011 0.57388 0.28609 0.0
N1237 N 0.23287 0.60627 0.30685 0.0
C1238 C 0.20716 0.59187 0.28368 0.0
C1239 C 0.22464 0.57237 0.29906 0.0
C1240 C 0.21881 0.60808 0.2943 0.0
C1241 C 0.23599 0.58891 0.30943 0.0
C1242 C 0.16561 0.58434 0.24054 0.0
C1243 C 0.13692 0.59381 0.23082 0.0
N1244 N 0.14641 0.61198 0.23218 0.0
C1245 C 0.17508 0.6031 0.24171 0.0
C1246 C 0.14638 0.57963 0.23494 0.0
C1247 C 0.16512 0.61687 0.23749 0.0
C1248 C 0.21595 0.58453 0.22631 0.0
N1249 N 0.21918 0.57434 0.24004 0.0
C1250 C 0.25124 0.58986 0.24533 0.0
C1251 C 0.23655 0.57604 0.24891 0.0
C1252 C 0.24779 0.60214 0.23279 0.0
C1253 C 0.23011 0.59866 0.22247 0.0
H1254 H 0.20198 0.58262 0.21934 0.0
H1255 H 0.23874 0.56749 0.25958 0.0
C1256 C 0.16897 0.57355 0.30695 0.0
N1257 N 0.16364 0.57622 0.28918 0.0
C1258 C 0.16098 0.5817 0.3228 0.0
C1259 C 0.14281 0.59607 0.30196 0.0
C1260 C 0.15113 0.58759 0.2865 0.0
C1261 C 0.14734 0.59274 0.32034 0.0
H1262 H 0.17877 0.56426 0.30869 0.0
H1263 H 0.1469 0.58949 0.27239 0.0
C1264 C 0.20572 0.5302 0.22617 0.0
N1265 N 0.23767 0.52418 0.20883 0.0
C1266 C 0.20611 0.52912 0.20645 0.0
C1267 C 0.22157 0.5282 0.23707 0.0
C1268 C 0.2224 0.52608 0.19795 0.0
C1269 C 0.23758 0.52516 0.22804 0.0
C1270 C 0.14579 0.5346 0.27399 0.0
C1271 C 0.14923 0.52838 0.29114 0.0
C1272 C 0.12941 0.54153 0.27069 0.0
C1273 C 0.13631 0.52946 0.30488 0.0
C1274 C 0.11687 0.54242 0.2848 0.0
N1275 N 0.12056 0.53645 0.30146 0.0
C1276 C 0.20229 0.51471 0.28828 0.0
C1277 C 0.19186 0.49569 0.25784 0.0
C1278 C 0.21211 0.50109 0.2931 0.0
N1279 N 0.19298 0.51198 0.2707 0.0
C1280 C 0.20151 0.48175 0.26202 0.0
C1281 C 0.21239 0.48474 0.27955 0.0
H1282 H 0.20308 0.52798 0.29805 0.0
H1283 H 0.18455 0.49415 0.24388 0.0
C1284 C 0.15711 0.5428 0.19933 0.0
N1285 N 0.14985 0.53603 0.2145 0.0
C1286 C 0.14636 0.53947 0.18197 0.0
C1287 C 0.1206 0.52262 0.19631 0.0
C1288 C 0.13203 0.52603 0.21343 0.0
C1289 C 0.12787 0.52936 0.18036 0.0
H1290 H 0.17117 0.55116 0.20091 0.0
H1291 H 0.12663 0.52107 0.22591 0.0
O1292 O 0.19918 0.55776 0.27554 0.0
O1293 O 0.17528 0.57059 0.24417 0.0
O1294 O 0.19001 0.53348 0.23483 0.0
O1295 O 0.15857 0.53422 0.26066 0.0
H1296 H 0.19602 0.59333 0.27375 0.0
H1297 H 0.22721 0.55855 0.30099 0.0
H1298 H 0.21669 0.62208 0.29255 0.0
H1299 H 0.24731 0.58794 0.31949 0.0
H1300 H 0.12203 0.59037 0.22659 0.0
H1301 H 0.19 0.60702 0.2458 0.0
H1302 H 0.13873 0.5653 0.23409 0.0
H1303 H 0.17228 0.63143 0.2384 0.0
H1304 H 0.26476 0.59174 0.25328 0.0
H1305 H 0.22664 0.60778 0.21278 0.0
H1306 H 0.16465 0.57844 0.33664 0.0
H1307 H 0.13246 0.6046 0.29946 0.0
H1308 H 0.19398 0.53057 0.19777 0.0
H1309 H 0.22164 0.52928 0.25239 0.0
H1310 H 0.22291 0.52522 0.1827 0.0
H1311 H 0.24997 0.52367 0.23631 0.0
H1312 H 0.16187 0.52301 0.29391 0.0
H1313 H 0.12654 0.54639 0.25749 0.0
H1314 H 0.13886 0.52485 0.31829 0.0
H1315 H 0.10423 0.54793 0.28253 0.0
H1316 H 0.22045 0.50396 0.30669 0.0
H1317 H 0.20124 0.46921 0.2513 0.0
H1318 H 0.15228 0.54521 0.17005 0.0
H1319 H 0.10634 0.51482 0.19551 0.0
Li1320 Li 0.79344 0.89378 0.53112 0.0
Li1321 Li 0.80618 0.87059 0.5477 0.0
Li1322 Li 0.8267 0.89433 0.53254 0.0
Li1323 Li 0.80578 0.86789 0.51203 0.0
C1324 C 0.80344 0.91156 0.56605 0.0
N1325 N 0.78596 0.93666 0.58873 0.0
C1326 C 0.79287 0.90553 0.58045 0.0
C1327 C 0.80518 0.93037 0.56323 0.0
C1328 C 0.78415 0.91844 0.59177 0.0
C1329 C 0.7962 0.94283 0.57482 0.0
C1330 C 0.76864 0.85555 0.51731 0.0
C1331 C 0.74629 0.82629 0.50666 0.0
N1332 N 0.73764 0.83481 0.49405 0.0
C1333 C 0.75948 0.86403 0.50429 0.0
C1334 C 0.76197 0.83654 0.51855 0.0
C1335 C 0.74386 0.85331 0.49264 0.0
C1336 C 0.77392 0.92096 0.51897 0.0
N1337 N 0.77376 0.90834 0.53109 0.0
C1338 C 0.74453 0.91484 0.54167 0.0
C1339 C 0.75943 0.9051 0.54232 0.0
C1340 C 0.74425 0.92789 0.52916 0.0
C1341 C 0.75932 0.93097 0.51782 0.0
H1342 H 0.78523 0.92302 0.5099 0.0
H1343 H 0.75944 0.89471 0.55157 0.0
C1344 C 0.81988 0.86354 0.58322 0.0
N1345 N 0.8047 0.85871 0.57015 0.0
C1346 C 0.81926 0.85718 0.60073 0.0
C1347 C 0.7875 0.84058 0.59093 0.0
C1348 C 0.78869 0.84739 0.57365 0.0
C1349 C 0.80285 0.84565 0.60491 0.0
H1350 H 0.83238 0.87272 0.58021 0.0
H1351 H 0.77666 0.84404 0.56323 0.0
C1352 C 0.8219 0.90634 0.50085 0.0
N1353 N 0.84776 0.9289 0.48325 0.0
C1354 C 0.83148 0.89803 0.48626 0.0
C1355 C 0.82549 0.92612 0.50649 0.0
C1356 C 0.84447 0.90968 0.47752 0.0
C1357 C 0.83862 0.93728 0.49743 0.0
C1358 C 0.8302 0.84839 0.52899 0.0
C1359 C 0.84794 0.84464 0.52531 0.0
C1360 C 0.81579 0.83352 0.53107 0.0
C1361 C 0.85095 0.82598 0.52367 0.0
C1362 C 0.81935 0.81507 0.52936 0.0
N1363 N 0.83671 0.81171 0.52571 0.0
C1364 C 0.85587 0.92692 0.54641 0.0
C1365 C 0.8642 0.90306 0.52338 0.0
C1366 C 0.87366 0.93832 0.54703 0.0
N1367 N 0.85144 0.90974 0.53456 0.0
C1368 C 0.88213 0.91398 0.52353 0.0
C1369 C 0.88708 0.93195 0.53539 0.0
H1370 H 0.84557 0.93186 0.5553 0.0
H1371 H 0.86032 0.88936 0.51406 0.0
C1372 C 0.79213 0.85928 0.47352 0.0
N1373 N 0.80206 0.85228 0.48652 0.0
C1374 C 0.78973 0.85076 0.45424 0.0
C1375 C 0.80785 0.82779 0.46172 0.0
C1376 C 0.80982 0.83672 0.48097 0.0
C1377 C 0.79781 0.83489 0.44798 0.0
H1378 H 0.78658 0.87199 0.47802 0.0
H1379 H 0.81794 0.83143 0.49127 0.0
O1380 O 0.81176 0.89903 0.55455 0.0
O1381 O 0.78408 0.86577 0.52875 0.0
O1382 O 0.80949 0.89514 0.50995 0.0
O1383 O 0.82708 0.86659 0.53069 0.0
H1384 H 0.79128 0.89102 0.58279 0.0
H1385 H 0.81312 0.93523 0.55202 0.0
H1386 H 0.77588 0.91395 0.60292 0.0
H1387 H 0.79732 0.95739 0.57271 0.0
H1388 H 0.741 0.81156 0.50746 0.0
H1389 H 0.76451 0.87864 0.50296 0.0
H1390 H 0.76877 0.82971 0.52859 0.0
H1391 H 0.73671 0.85968 0.48243 0.0
H1392 H 0.73312 0.91178 0.55047 0.0
H1393 H 0.75985 0.94101 0.50812 0.0
H1394 H 0.83152 0.86129 0.6109 0.0
H1395 H 0.77449 0.83193 0.59355 0.0
H1396 H 0.82916 0.88275 0.48191 0.0
H1397 H 0.81846 0.9328 0.51795 0.0
H1398 H 0.85203 0.90344 0.46627 0.0
H1399 H 0.84162 0.95259 0.50174 0.0
H1400 H 0.85927 0.85601 0.52371 0.0
H1401 H 0.80201 0.83619 0.5339 0.0
H1402 H 0.8646 0.82285 0.52078 0.0
H1403 H 0.80831 0.80342 0.53091 0.0
H1404 H 0.87688 0.95192 0.55662 0.0
H1405 H 0.89185 0.90854 0.51411 0.0
H1406 H 0.78221 0.85705 0.44422 0.0
H1407 H 0.81426 0.81553 0.45764 0.0
Li1408 Li 0.93356 0.05492 0.28403 0.0
Li1409 Li 0.90629 0.03122 0.26243 0.0
Li1410 Li 0.93256 0.05268 0.24617 0.0
Li1411 Li 0.90879 0.07232 0.26503 0.0
C1412 C 0.94875 0.024 0.26562 0.0
N1413 N 0.97885 0.00678 0.27185 0.0
C1414 C 0.94614 0.00699 0.27273 0.0
C1415 C 0.96662 0.03221 0.26158 0.0
C1416 C 0.96155 0.99852 0.27582 0.0
C1417 C 0.98168 0.02329 0.26484 0.0
C1418 C 0.90301 0.05546 0.30394 0.0
C1419 C 0.90274 0.07576 0.3343 0.0
N1420 N 0.90069 0.06023 0.34292 0.0
C1421 C 0.90088 0.0397 0.31307 0.0
C1422 C 0.90395 0.07364 0.31459 0.0
C1423 C 0.89974 0.04241 0.3328 0.0
C1424 C 0.95877 0.0708 0.3226 0.0
N1425 N 0.94844 0.05486 0.31105 0.0
C1426 C 0.95578 0.03664 0.33561 0.0
C1427 C 0.94697 0.03798 0.31762 0.0
C1428 C 0.96656 0.05277 0.34794 0.0
C1429 C 0.96776 0.07007 0.34079 0.0
H1430 H 0.96006 0.08434 0.31785 0.0
H1431 H 0.93858 0.02528 0.30902 0.0
C1432 C 0.89746 0.98848 0.25029 0.0
N1433 N 0.89114 1.00313 0.26106 0.0
C1434 C 0.88935 0.96906 0.25007 0.0
C1435 C 0.86777 0.97933 0.27174 0.0
C1436 C 0.87636 0.99861 0.27163 0.0
C1437 C 0.8742 0.96382 0.261 0.0
H1438 H 0.90921 0.99176 0.24197 0.0
H1439 H 0.87131 0.00996 0.28043 0.0
C1440 C 0.9524 0.08924 0.26393 0.0
N1441 N 0.98233 0.11474 0.25537 0.0
C1442 C 0.94928 0.10329 0.25358 0.0
C1443 C 0.97069 0.08819 0.27004 0.0
C1444 C 0.96461 0.11605 0.24937 0.0
C1445 C 0.98565 0.10121 0.26553 0.0
C1446 C 0.90172 0.04732 0.22274 0.0
C1447 C 0.90245 0.06353 0.21443 0.0
C1448 C 0.90017 0.02949 0.21117 0.0
C1449 C 0.90158 0.0616 0.19455 0.0
C1450 C 0.89935 0.02816 0.19136 0.0
N1451 N 0.90008 0.04411 0.18353 0.0
C1452 C 0.95007 0.03321 0.21148 0.0
C1453 C 0.95279 0.06584 0.21146 0.0
C1454 C 0.95875 0.03075 0.19393 0.0
N1455 N 0.94707 0.0506 0.22027 0.0
C1456 C 0.96163 0.06399 0.19396 0.0
C1457 C 0.96489 0.0462 0.18446 0.0
H1458 H 0.94558 0.0209 0.21798 0.0
H1459 H 0.9503 0.07966 0.21778 0.0
C1460 C 0.904 0.11526 0.27431 0.0
N1461 N 0.89474 0.0973 0.26591 0.0
C1462 C 0.89568 0.13188 0.27482 0.0
C1463 C 0.86795 0.11224 0.25821 0.0
C1464 C 0.87679 0.09595 0.25791 0.0
C1465 C 0.87715 0.13105 0.26671 0.0
H1466 H 0.91814 0.11698 0.28078 0.0
H1467 H 0.86903 0.08212 0.25103 0.0
O1468 O 0.93389 0.03259 0.26258 0.0
O1469 O 0.90482 0.0532 0.28476 0.0
O1470 O 0.9376 0.07658 0.26809 0.0
O1471 O 0.90348 0.04904 0.24216 0.0
H1472 H 0.93238 1.0005 0.27598 0.0
H1473 H 0.96882 0.04531 0.25594 0.0
H1474 H 0.95977 0.9854 0.2814 0.0
H1475 H 0.9956 0.02949 0.26179 0.0
H1476 H 0.9035 0.08975 0.34275 0.0
H1477 H 0.90038 0.02557 0.30503 0.0
H1478 H 0.90575 0.08599 0.3077 0.0
H1479 H 0.89819 0.03036 0.34008 0.0
H1480 H 0.95369 0.02286 0.3399 0.0
H1481 H 0.97581 0.08315 0.34908 0.0
H1482 H 0.89501 0.95821 0.2412 0.0
H1483 H 0.85641 0.9767 0.28068 0.0
H1484 H 0.93517 0.10422 0.24872 0.0
H1485 H 0.97328 0.07746 0.27819 0.0
H1486 H 0.96244 0.12696 0.2413 0.0
H1487 H 0.9999 0.10056 0.27012 0.0
H1488 H 0.90389 0.07746 0.22326 0.0
H1489 H 0.89983 0.01685 0.21746 0.0
H1490 H 0.9022 0.07402 0.1879 0.0
H1491 H 0.89823 0.01447 0.1822 0.0
H1492 H 0.96075 0.01662 0.18798 0.0
H1493 H 0.96553 0.0766 0.18775 0.0
H1494 H 0.90396 0.14539 0.28189 0.0
H1495 H 0.85388 0.1099 0.2514 0.0
Li1496 Li 0.30752 0.63383 0.55128 0.0
Li1497 Li 0.32285 0.60955 0.53011 0.0
Li1498 Li 0.3063 0.63107 0.51606 0.0
Li1499 Li 0.2872 0.60533 0.52933 0.0
C1500 C 0.34456 0.64467 0.52633 0.0
N1501 N 0.37661 0.6569 0.50932 0.0
C1502 C 0.34724 0.63568 0.50806 0.0
C1503 C 0.35815 0.65991 0.53594 0.0
C1504 C 0.36355 0.64205 0.49971 0.0
C1505 C 0.37427 0.66588 0.5271 0.0
C1506 C 0.30153 0.58886 0.558 0.0
C1507 C 0.30249 0.55551 0.55557 0.0
N1508 N 0.29159 0.55462 0.5704 0.0
C1509 C 0.2905 0.58766 0.57334 0.0
C1510 C 0.30772 0.5727 0.54914 0.0
C1511 C 0.28556 0.57021 0.57935 0.0
C1512 C 0.29372 0.64655 0.58678 0.0
N1513 N 0.30721 0.65121 0.57499 0.0
C1514 C 0.31727 0.68185 0.59496 0.0
C1515 C 0.3189 0.6685 0.57879 0.0
C1516 C 0.30343 0.67748 0.60748 0.0
C1517 C 0.29167 0.65941 0.60317 0.0
H1518 H 0.28424 0.63295 0.58323 0.0
H1519 H 0.32917 0.67214 0.56896 0.0
C1520 C 0.34785 0.58345 0.51462 0.0
N1521 N 0.34643 0.5987 0.52814 0.0
C1522 C 0.36511 0.57757 0.51224 0.0
C1523 C 0.37947 0.60284 0.53785 0.0
C1524 C 0.3619 0.60821 0.5398 0.0
C1525 C 0.38144 0.58735 0.52379 0.0
H1526 H 0.33571 0.57588 0.50536 0.0
H1527 H 0.36074 0.62032 0.55046 0.0
C1528 C 0.27629 0.64466 0.52609 0.0
N1529 N 0.25814 0.66945 0.51025 0.0
C1530 C 0.26205 0.63766 0.51134 0.0
C1531 C 0.28127 0.66424 0.53287 0.0
C1532 C 0.25305 0.65043 0.50349 0.0
C1533 C 0.27193 0.67655 0.52465 0.0
C1534 C 0.30367 0.58719 0.49488 0.0
C1535 C 0.31163 0.58837 0.47761 0.0
C1536 C 0.29602 0.56938 0.49898 0.0
C1537 C 0.31206 0.57164 0.46485 0.0
C1538 C 0.2967 0.55299 0.48584 0.0
N1539 N 0.30466 0.55445 0.46921 0.0
C1540 C 0.31348 0.66437 0.49912 0.0
C1541 C 0.29592 0.63688 0.47894 0.0
C1542 C 0.31197 0.67522 0.48483 0.0
N1543 N 0.30545 0.64559 0.49596 0.0
C1544 C 0.29407 0.64718 0.46424 0.0
C1545 C 0.30207 0.66667 0.46709 0.0
H1546 H 0.32085 0.67099 0.51286 0.0
H1547 H 0.28942 0.622 0.47691 0.0
C1548 C 0.25178 0.59245 0.54288 0.0
N1549 N 0.26154 0.59043 0.52716 0.0
C1550 C 0.23245 0.5851 0.54171 0.0
C1551 C 0.23331 0.57352 0.50815 0.0
C1552 C 0.25263 0.58115 0.50996 0.0
C1553 C 0.22274 0.57564 0.5241 0.0
H1554 H 0.25881 0.60059 0.55624 0.0
H1555 H 0.26032 0.58032 0.4974 0.0
O1556 O 0.32875 0.63855 0.53483 0.0
O1557 O 0.30643 0.6058 0.55184 0.0
O1558 O 0.28573 0.63246 0.53347 0.0
O1559 O 0.30311 0.60342 0.50751 0.0
H1560 H 0.33689 0.62385 0.50046 0.0
H1561 H 0.35631 0.667 0.55012 0.0
H1562 H 0.36582 0.63518 0.48559 0.0
H1563 H 0.38492 0.67764 0.53438 0.0
H1564 H 0.30711 0.54288 0.54876 0.0
H1565 H 0.28575 0.60004 0.58052 0.0
H1566 H 0.31642 0.5734 0.5374 0.0
H1567 H 0.27694 0.56906 0.59115 0.0
H1568 H 0.32646 0.69565 0.5973 0.0
H1569 H 0.28093 0.65516 0.61234 0.0
H1570 H 0.36567 0.56569 0.50103 0.0
H1571 H 0.39139 0.61079 0.54738 0.0
H1572 H 0.25815 0.62254 0.50584 0.0
H1573 H 0.29237 0.66987 0.54419 0.0
H1574 H 0.24207 0.64523 0.49199 0.0
H1575 H 0.27569 0.69175 0.52967 0.0
H1576 H 0.31743 0.60204 0.47409 0.0
H1577 H 0.28954 0.56821 0.51212 0.0
H1578 H 0.31825 0.57233 0.45148 0.0
H1579 H 0.29088 0.53911 0.48886 0.0
H1580 H 0.31853 0.69013 0.48764 0.0
H1581 H 0.28606 0.64003 0.45097 0.0
H1582 H 0.22509 0.58759 0.55439 0.0
H1583 H 0.22669 0.56629 0.49426 0.0
Li1584 Li 0.40567 0.53205 0.7634 0.0
Li1585 Li 0.43352 0.55532 0.78541 0.0
Li1586 Li 0.40864 0.57311 0.76603 0.0
Li1587 Li 0.43211 0.55303 0.74703 0.0
C1588 C 0.3992 0.55325 0.80363 0.0
N1589 N 0.38827 0.55177 0.8399 0.0
C1590 C 0.39997 0.5371 0.81169 0.0
C1591 C 0.39284 0.56863 0.81394 0.0
C1592 C 0.39439 0.53664 0.83007 0.0
C1593 C 0.38738 0.5676 0.83228 0.0
C1594 C 0.44453 0.52059 0.76686 0.0
C1595 C 0.47305 0.50853 0.7624 0.0
N1596 N 0.46738 0.49542 0.77352 0.0
C1597 C 0.43901 0.50705 0.77829 0.0
C1598 C 0.46169 0.52141 0.75888 0.0
C1599 C 0.45075 0.49442 0.78146 0.0
C1600 C 0.39661 0.48912 0.75225 0.0
N1601 N 0.39003 0.5041 0.76214 0.0
C1602 C 0.36547 0.48091 0.77205 0.0
C1603 C 0.37455 0.50004 0.77191 0.0
C1604 C 0.37218 0.46511 0.76227 0.0
C1605 C 0.3881 0.46984 0.75222 0.0
H1606 H 0.40887 0.49203 0.74452 0.0
H1607 H 0.36926 0.51164 0.78002 0.0
C1608 C 0.44382 0.56469 0.82934 0.0
N1609 N 0.4487 0.55543 0.8125 0.0
C1610 C 0.45251 0.56359 0.84752 0.0
C1611 C 0.47169 0.54366 0.83161 0.0
C1612 C 0.46274 0.54522 0.81372 0.0
C1613 C 0.46675 0.55279 0.84928 0.0
H1614 H 0.43285 0.5729 0.82891 0.0
H1615 H 0.46716 0.53799 0.80077 0.0
C1616 C 0.4011 0.54784 0.72372 0.0
N1617 N 0.39905 0.54395 0.68444 0.0
C1618 C 0.40229 0.56391 0.71513 0.0
C1619 C 0.39888 0.5298 0.7124 0.0
C1620 C 0.40121 0.56164 0.69522 0.0
C1621 C 0.39786 0.52813 0.69254 0.0
C1622 C 0.45366 0.58791 0.76491 0.0
C1623 C 0.45282 0.60415 0.75703 0.0
C1624 C 0.47092 0.58264 0.76823 0.0
C1625 C 0.46939 0.61493 0.7526 0.0
C1626 C 0.48717 0.59379 0.76359 0.0
N1627 N 0.48607 0.60956 0.75593 0.0
C1628 C 0.40443 0.61627 0.77517 0.0
C1629 C 0.37679 0.59711 0.75958 0.0
C1630 C 0.3963 0.63301 0.77575 0.0
N1631 N 0.39488 0.59832 0.76712 0.0
C1632 C 0.36811 0.61352 0.75997 0.0
C1633 C 0.37764 0.63232 0.76809 0.0
H1634 H 0.41869 0.61789 0.78132 0.0
H1635 H 0.36877 0.58328 0.753 0.0
C1636 C 0.4481 0.53343 0.71124 0.0
N1637 N 0.44654 0.55096 0.72103 0.0
C1638 C 0.45674 0.53113 0.69365 0.0
C1639 C 0.46247 0.56481 0.69566 0.0
C1640 C 0.45364 0.5665 0.71318 0.0
C1641 C 0.4643 0.54689 0.68515 0.0
H1642 H 0.44247 0.52089 0.71695 0.0
H1643 H 0.45231 0.58048 0.7203 0.0
O1644 O 0.40488 0.5541 0.7858 0.0
O1645 O 0.43329 0.53312 0.76364 0.0
O1646 O 0.40302 0.54985 0.74316 0.0
O1647 O 0.43761 0.57698 0.76906 0.0
H1648 H 0.40494 0.52513 0.80389 0.0
H1649 H 0.39222 0.58124 0.80787 0.0
H1650 H 0.39497 0.52426 0.83654 0.0
H1651 H 0.38246 0.5794 0.84047 0.0
H1652 H 0.48637 0.50898 0.75632 0.0
H1653 H 0.42585 0.50637 0.78473 0.0
H1654 H 0.46623 0.53194 0.75015 0.0
H1655 H 0.44667 0.48387 0.79029 0.0
H1656 H 0.35348 0.47862 0.78027 0.0
H1657 H 0.39403 0.45869 0.74415 0.0
H1658 H 0.44764 0.57096 0.86019 0.0
H1659 H 0.48266 0.53538 0.83143 0.0
H1660 H 0.40423 0.57799 0.72376 0.0
H1661 H 0.39817 0.51726 0.7189 0.0
H1662 H 0.40218 0.57394 0.68835 0.0
H1663 H 0.39623 0.51426 0.68358 0.0
H1664 H 0.43952 0.60827 0.75421 0.0
H1665 H 0.47173 0.57003 0.77425 0.0
H1666 H 0.46899 0.62752 0.74645 0.0
H1667 H 0.50064 0.58988 0.76603 0.0
H1668 H 0.40482 0.64652 0.7825 0.0
H1669 H 0.3539 0.61128 0.75354 0.0
H1670 H 0.45758 0.51686 0.68691 0.0
H1671 H 0.4675 0.57769 0.69026 0.0
Li1672 Li 0.67927 0.03524 0.75191 0.0
Li1673 Li 0.69923 0.04666 0.72814 0.0
Li1674 Li 0.67506 0.01899 0.72005 0.0
Li1675 Li 0.70318 0.01777 0.74009 0.0
C1676 C 0.65899 0.04776 0.71603 0.0
N1677 N 0.63256 0.05085 0.68793 0.0
C1678 C 0.66464 0.05513 0.6999 0.0
C1679 C 0.63989 0.04204 0.71789 0.0
C1680 C 0.65106 0.05657 0.68586 0.0
C1681 C 0.62675 0.04368 0.70351 0.0
C1682 C 0.71657 0.06045 0.76484 0.0
C1683 C 0.74598 0.08086 0.77794 0.0
N1684 N 0.73659 0.09474 0.78495 0.0
C1685 C 0.70723 0.07486 0.77238 0.0
C1686 C 0.73612 0.06342 0.76782 0.0
C1687 C 0.71759 0.09211 0.78241 0.0
C1688 C 0.67683 0.03992 0.79108 0.0
N1689 N 0.6683 0.04268 0.77462 0.0
C1690 C 0.64388 0.054 0.79129 0.0
C1691 C 0.65238 0.04998 0.77443 0.0
C1692 C 0.65196 0.05056 0.80842 0.0
C1693 C 0.66884 0.04376 0.80824 0.0
H1694 H 0.68963 0.03432 0.79074 0.0
H1695 H 0.64611 0.05229 0.76116 0.0
C1696 C 0.72699 0.07229 0.71167 0.0
N1697 N 0.71172 0.0699 0.72185 0.0
C1698 C 0.73724 0.09055 0.71185 0.0
C1699 C 0.71487 0.10342 0.73147 0.0
C1700 C 0.70498 0.08504 0.73069 0.0
C1701 C 0.73156 0.1062 0.72259 0.0
H1702 H 0.73173 0.0602 0.70403 0.0
H1703 H 0.69244 0.08275 0.73809 0.0
C1704 C 0.66761 1.00047 0.75747 0.0
N1705 N 0.64996 0.98829 0.78779 0.0
C1706 C 0.6773 0.99274 0.77075 0.0
C1707 C 0.64888 1.00181 0.7595 0.0
C1708 C 0.66814 0.98669 0.78599 0.0
C1709 C 0.64023 0.99566 0.77496 0.0
C1710 C 0.71858 0.02221 0.70552 0.0
C1711 C 0.71958 0.01508 0.68622 0.0
C1712 C 0.73512 0.02912 0.71746 0.0
C1713 C 0.73712 0.01517 0.67917 0.0
C1714 C 0.75239 0.02892 0.70989 0.0
N1715 N 0.75302 0.02202 0.69105 0.0
C1716 C 0.66172 0.0087 0.68219 0.0
C1717 C 0.63979 0.99706 0.70286 0.0
C1718 C 0.64813 1.00359 0.66681 0.0
N1719 N 0.65719 1.00592 0.69984 0.0
C1720 C 0.62563 0.99188 0.68786 0.0
C1721 C 0.62966 0.99569 0.6697 0.0
H1722 H 0.67554 0.01622 0.68037 0.0
H1723 H 0.63656 0.99518 0.71709 0.0
C1724 C 0.73003 0.01012 0.7652 0.0
N1725 N 0.72099 1.004 0.74747 0.0
C1726 C 0.74442 1.00156 0.77116 0.0
C1727 C 0.73971 0.98039 0.74052 0.0
C1728 C 0.72535 0.98934 0.73518 0.0
C1729 C 0.7495 0.98658 0.75869 0.0
H1730 H 0.72617 0.02183 0.77462 0.0
H1731 H 0.71788 0.98487 0.72114 0.0
O1732 O 0.67211 0.04574 0.72968 0.0
O1733 O 0.70669 0.04349 0.75474 0.0
O1734 O 0.67649 0.00686 0.74269 0.0
O1735 O 0.70148 0.02162 0.71274 0.0
H1736 H 0.67934 0.0594 0.69807 0.0
H1737 H 0.63525 0.03597 0.73007 0.0
H1738 H 0.65524 0.06214 0.67326 0.0
H1739 H 0.61194 0.03912 0.70467 0.0
H1740 H 0.7611 0.08335 0.78026 0.0
H1741 H 0.69216 0.07298 0.77016 0.0
H1742 H 0.74366 0.05239 0.76246 0.0
H1743 H 0.71053 0.10344 0.78812 0.0
H1744 H 0.63081 0.05912 0.79079 0.0
H1745 H 0.6757 0.04122 0.82119 0.0
H1746 H 0.74997 0.09234 0.70462 0.0
H1747 H 0.70994 0.11529 0.73958 0.0
H1748 H 0.69176 0.9915 0.76938 0.0
H1749 H 0.64124 0.00805 0.74956 0.0
H1750 H 0.6755 0.98077 0.79643 0.0
H1751 H 0.62582 0.99685 0.77684 0.0
H1752 H 0.70694 0.00943 0.67679 0.0
H1753 H 0.73462 0.03472 0.73236 0.0
H1754 H 0.73808 0.00972 0.66425 0.0
H1755 H 0.76528 0.03428 0.719 0.0
H1756 H 0.65175 0.00713 0.65314 0.0
H1757 H 0.61155 0.9858 0.69061 0.0
H1758 H 0.75169 0.00681 0.78523 0.0
H1759 H 0.74302 0.96867 0.73062 0.0
Li1760 Li 0.78378 0.7038 0.01825 0.0
Li1761 Li 0.79715 0.67826 1.00085 0.0
Li1762 Li 0.7836 0.70151 0.98302 0.0
Li1763 Li 0.76275 0.67655 0.99781 0.0
C1764 C 0.81836 0.72268 0.00864 0.0
N1765 N 0.84421 0.75596 0.02104 0.0
C1766 C 0.83393 0.72281 0.02109 0.0
C1767 C 0.81604 0.73941 1.00233 0.0
C1768 C 0.84681 0.7398 0.02725 0.0
C1769 C 0.82924 0.7561 0.00881 0.0
C1770 C 0.78249 0.6633 0.03078 0.0
C1771 C 0.77978 0.63034 0.03374 0.0
N1772 N 0.78948 0.63579 0.05125 0.0
C1773 C 0.79231 0.66859 0.04885 0.0
C1774 C 0.77607 0.64404 0.02319 0.0
C1775 C 0.79576 0.65446 0.05895 0.0
C1776 C 0.77282 0.71139 0.05518 0.0
N1777 N 0.78517 0.71919 0.0437 0.0
C1778 C 0.79932 0.74364 0.07009 0.0
C1779 C 0.79804 0.73531 0.05071 0.0
C1780 C 0.78703 0.73554 0.08233 0.0
C1781 C 0.7734 0.71939 0.07451 0.0
H1782 H 0.76278 0.69851 0.04942 0.0
H1783 H 0.80761 0.74159 0.0415 0.0
C1784 C 0.82038 0.65168 0.98705 0.0
N1785 N 0.81694 0.66419 1.00227 0.0
C1786 C 0.83507 0.64177 0.98855 0.0
C1787 C 0.8424 0.65786 0.0213 0.0
C1788 C 0.82768 0.66749 0.01913 0.0
C1789 C 0.84637 0.64481 0.00588 0.0
H1790 H 0.81185 0.64952 0.97368 0.0
H1791 H 0.82484 0.67767 0.03095 0.0
C1792 C 0.7545 0.71794 0.00945 0.0
N1793 N 0.73979 0.74569 0.03172 0.0
C1794 C 0.7398 0.7128 0.0205 0.0
C1795 C 0.76161 0.73716 0.00957 0.0
C1796 C 0.73258 0.72706 0.0317 0.0
C1797 C 0.75401 0.75099 0.02096 0.0
C1798 C 0.77161 0.65837 0.96274 0.0
C1799 C 0.7638 0.66241 0.94589 0.0
C1800 C 0.77074 0.63945 0.96487 0.0
C1801 C 0.75503 0.64741 0.93151 0.0
C1802 C 0.76182 0.62485 0.95016 0.0
N1803 N 0.75421 0.6291 0.93393 0.0
C1804 C 0.8024 0.71498 0.95246 0.0
C1805 C 0.77084 0.71895 0.95268 0.0
C1806 C 0.80413 0.72198 0.93533 0.0
N1807 N 0.78591 0.71348 0.96071 0.0
C1808 C 0.77192 0.7259 0.93547 0.0
C1809 C 0.78869 0.72735 0.9264 0.0
H1810 H 0.81413 0.71034 0.95899 0.0
H1811 H 0.75783 0.7175 0.95942 0.0
C1812 C 0.73266 0.6564 0.01338 0.0
N1813 N 0.73859 0.65999 0.99636 0.0
C1814 C 0.71518 0.64503 0.0142 0.0
C1815 C 0.71003 0.64105 0.97991 0.0
C1816 C 0.7276 0.65269 0.97977 0.0
C1817 C 0.70354 0.6372 0.99733 0.0
H1818 H 0.74147 0.66258 0.02643 0.0
H1819 H 0.73227 0.65609 0.96643 0.0
O1820 O 0.80571 0.70615 1.0023 0.0
O1821 O 0.77911 0.67693 0.02062 0.0
O1822 O 0.76212 0.70421 0.99885 0.0
O1823 O 0.78025 0.67287 0.97697 0.0
H1824 H 0.83601 0.70998 0.02602 0.0
H1825 H 0.8042 0.73952 0.99254 0.0
H1826 H 0.85887 0.74014 0.03696 0.0
H1827 H 0.82759 0.76917 1.00409 0.0
H1828 H 0.77492 0.61538 0.02802 0.0
H1829 H 0.79742 0.68344 0.05492 0.0
H1830 H 0.76824 0.63973 0.00934 0.0
H1831 H 0.80344 0.65834 0.0729 0.0
H1832 H 0.80989 0.75623 0.07546 0.0
H1833 H 0.76372 0.71256 0.0834 0.0
H1834 H 0.83774 0.63208 0.97617 0.0
H1835 H 0.85047 0.66053 0.03502 0.0
H1836 H 0.73416 0.69798 0.02057 0.0
H1837 H 0.77292 0.74134 1.00102 0.0
H1838 H 0.72128 0.7233 0.04043 0.0
H1839 H 0.75944 0.76593 0.02127 0.0
H1840 H 0.76441 0.67697 0.94398 0.0
H1841 H 0.77693 0.63607 0.9777 0.0
H1842 H 0.74885 0.65033 0.91842 0.0
H1843 H 0.76099 0.61014 0.95164 0.0
H1844 H 0.81728 0.72259 0.92884 0.0
H1845 H 0.75969 0.73006 0.92932 0.0
H1846 H 0.71085 0.64235 0.02795 0.0
H1847 H 0.70141 0.63556 0.96659 0.0
Li1848 Li 0.87828 0.51214 0.80042 0.0
Li1849 Li 0.90868 0.53013 0.81344 0.0
Li1850 Li 0.88541 0.5444 0.79807 0.0
Li1851 Li 0.90161 0.52276 0.77906 0.0
C1852 C 0.87393 0.52625 0.8353 0.0
N1853 N 0.85343 0.50936 0.86152 0.0
C1854 C 0.88265 0.51749 0.84839 0.0
C1855 C 0.85478 0.52648 0.83562 0.0
C1856 C 0.87205 0.50903 0.86152 0.0
C1857 C 0.84466 0.51784 0.84896 0.0
C1858 C 0.90066 0.48616 0.78822 0.0
C1859 C 0.90674 0.45437 0.78662 0.0
N1860 N 0.89474 0.44843 0.77056 0.0
C1861 C 0.88832 0.47971 0.77172 0.0
C1862 C 0.90988 0.47337 0.79578 0.0
C1863 C 0.88555 0.4606 0.76299 0.0
C1864 C 0.84217 0.48873 0.79373 0.0
N1865 N 0.85931 0.4914 0.80341 0.0
C1866 C 0.85103 0.46198 0.81447 0.0
C1867 C 0.86379 0.47868 0.81404 0.0
C1868 C 0.83354 0.4584 0.80382 0.0
C1869 C 0.82893 0.47233 0.79388 0.0
H1870 H 0.83898 0.49886 0.78522 0.0
H1871 H 0.8776 0.4811 0.82147 0.0
C1872 C 0.92892 0.54868 0.84791 0.0
N1873 N 0.92793 0.53394 0.83318 0.0
C1874 C 0.94177 0.55078 0.86372 0.0
C1875 C 0.95288 0.52303 0.84839 0.0
C1876 C 0.93969 0.52136 0.83296 0.0
C1877 C 0.95372 0.53764 0.86419 0.0
H1878 H 0.91929 0.55839 0.84762 0.0
H1879 H 0.93849 0.50976 0.82104 0.0
C1880 C 0.86061 0.52902 0.76764 0.0
N1881 N 0.83314 0.54265 0.74871 0.0
C1882 C 0.86141 0.53025 0.74834 0.0
C1883 C 0.84555 0.5343 0.77717 0.0
C1884 C 0.84746 0.53727 0.73905 0.0
C1885 C 0.8319 0.54129 0.76741 0.0
C1886 C 0.93118 0.55286 0.79245 0.0
C1887 C 0.93886 0.57161 0.79111 0.0
C1888 C 0.94258 0.5392 0.79109 0.0
C1889 C 0.95789 0.57642 0.78848 0.0
C1890 C 0.96153 0.54456 0.78844 0.0
N1891 N 0.96873 0.5629 0.7872 0.0
C1892 C 0.86455 0.57223 0.81158 0.0
C1893 C 0.87706 0.57447 0.78182 0.0
C1894 C 0.8535 0.58558 0.80898 0.0
N1895 N 0.87544 0.56651 0.79773 0.0
C1896 C 0.86618 0.58775 0.77857 0.0
C1897 C 0.85375 0.59292 0.79196 0.0
H1898 H 0.86357 0.56558 0.82406 0.0
H1899 H 0.88583 0.5695 0.77106 0.0
C1900 C 0.92338 0.50457 0.75206 0.0
N1901 N 0.91305 0.51841 0.7558 0.0
C1902 C 0.93283 0.50284 0.73557 0.0
C1903 C 0.92112 0.5298 0.72721 0.0
C1904 C 0.91197 0.53105 0.74392 0.0
C1905 C 0.93183 0.5156 0.7229 0.0
H1906 H 0.92486 0.49526 0.76213 0.0
H1907 H 0.90429 0.54239 0.74766 0.0
O1908 O 0.88401 0.5343 0.82208 0.0
O1909 O 0.90322 0.50468 0.7974 0.0
O1910 O 0.87438 0.52251 0.77707 0.0
O1911 O 0.91252 0.54796 0.79481 0.0
H1912 H 0.89738 0.51695 0.84825 0.0
H1913 H 0.84775 0.5331 0.82557 0.0
H1914 H 0.87861 0.50212 0.87166 0.0
H1915 H 0.82982 0.51783 0.84929 0.0
H1916 H 0.91379 0.44433 0.79232 0.0
H1917 H 0.88094 0.48929 0.76568 0.0
H1918 H 0.91927 0.47803 0.80867 0.0
H1919 H 0.87607 0.45544 0.75022 0.0
H1920 H 0.85529 0.45151 0.82208 0.0
H1921 H 0.81554 0.47021 0.78562 0.0
H1922 H 0.94211 0.5623 0.87562 0.0
H1923 H 0.96171 0.5125 0.84833 0.0
H1924 H 0.87258 0.5257 0.74053 0.0
H1925 H 0.84461 0.53336 0.79206 0.0
H1926 H 0.84799 0.53838 0.72414 0.0
H1927 H 0.82036 0.54571 0.77472 0.0
H1928 H 0.93019 0.58233 0.79207 0.0
H1929 H 0.93685 0.52459 0.79192 0.0
H1930 H 0.96403 0.59088 0.78741 0.0
H1931 H 0.9705 0.53412 0.78733 0.0
H1932 H 0.84405 0.58921 0.81961 0.0
H1933 H 0.86694 0.59334 0.76541 0.0
H1934 H 0.94135 0.49203 0.73312 0.0
H1935 H 0.9199 0.53992 0.71786 0.0
Li1936 Li 0.77464 0.43555 0.51665 0.0
Li1937 Li 0.75864 0.45722 0.50232 0.0
Li1938 Li 0.77286 0.43044 0.48137 0.0
Li1939 Li 0.79485 0.45841 0.50248 0.0
C1940 C 0.73684 0.41633 0.50244 0.0
N1941 N 0.70647 0.39108 0.51074 0.0
C1942 C 0.72341 0.42295 0.51367 0.0
C1943 C 0.73468 0.39686 0.49527 0.0
C1944 C 0.70819 0.40997 0.51774 0.0
C1945 C 0.71928 0.38432 0.49969 0.0
C1946 C 0.77775 0.46627 0.54335 0.0
C1947 C 0.79241 0.47383 0.57561 0.0
N1948 N 0.77532 0.46958 0.5823 0.0
C1949 C 0.76033 0.46206 0.55059 0.0
C1950 C 0.79393 0.47227 0.55598 0.0
C1951 C 0.75938 0.46379 0.5703 0.0
C1952 C 0.79281 0.42653 0.54872 0.0
N1953 N 0.77583 0.42254 0.5384 0.0
C1954 C 0.76411 0.39997 0.55795 0.0
C1955 C 0.76147 0.40971 0.54296 0.0
C1956 C 0.78169 0.40345 0.56844 0.0
C1957 C 0.79606 0.41718 0.5638 0.0
H1958 H 0.80407 0.43677 0.54495 0.0
H1959 H 0.74804 0.40665 0.53487 0.0
C1960 C 0.7213 0.46191 0.49116 0.0
N1961 N 0.73652 0.46967 0.50383 0.0
C1962 C 0.70413 0.46799 0.49335 0.0
C1963 C 0.71852 0.49049 0.52125 0.0
C1964 C 0.73545 0.48398 0.51852 0.0
C1965 C 0.70232 0.48227 0.50878 0.0
H1966 H 0.72227 0.45043 0.47968 0.0
H1967 H 0.74756 0.48991 0.52861 0.0
C1968 C 0.8036 0.4181 0.50561 0.0
N1969 N 0.82177 0.39209 0.51936 0.0
C1970 C 0.82271 0.42304 0.51171 0.0
C1971 C 0.79373 0.39995 0.50661 0.0
C1972 C 0.83165 0.40968 0.51856 0.0
C1973 C 0.80316 0.38701 0.5136 0.0
C1974 C 0.78332 0.47497 0.47422 0.0
C1975 C 0.79535 0.47433 0.45962 0.0
C1976 C 0.77971 0.49246 0.48308 0.0
C1977 C 0.80358 0.49128 0.45409 0.0
C1978 C 0.7882 0.50909 0.47712 0.0
N1979 N 0.79986 0.50816 0.46287 0.0
C1980 C 0.77224 0.41957 0.44055 0.0
C1981 C 0.77164 0.39418 0.45756 0.0
C1982 C 0.77357 0.40743 0.42337 0.0
N1983 N 0.77152 0.41286 0.45728 0.0
C1984 C 0.77267 0.38153 0.44074 0.0
C1985 C 0.77393 0.38811 0.42334 0.0
H1986 H 0.7722 0.43446 0.44057 0.0
H1987 H 0.77143 0.38906 0.47087 0.0
C1988 C 0.82959 0.48589 0.51741 0.0
N1989 N 0.82073 0.47214 0.50272 0.0
C1990 C 0.84912 0.49228 0.51853 0.0
C1991 C 0.84998 0.4712 0.4888 0.0
C1992 C 0.83054 0.46504 0.4884 0.0
C1993 C 0.8597 0.48469 0.50425 0.0
H1994 H 0.82165 0.49152 0.52861 0.0
H1995 H 0.82337 0.45383 0.47706 0.0
O1996 O 0.75176 0.42883 0.49809 0.0
O1997 O 0.77892 0.46431 0.52403 0.0
O1998 O 0.79452 0.43115 0.49921 0.0
O1999 O 0.77546 0.45862 0.4802 0.0
H2000 H 0.72465 0.43792 0.51922 0.0
H2001 H 0.74478 0.39146 0.48646 0.0
H2002 H 0.69775 0.41492 0.52646 0.0
H2003 H 0.71751 0.36922 0.4943 0.0
H2004 H 0.80484 0.47831 0.58551 0.0
H2005 H 0.74769 0.45736 0.54108 0.0
H2006 H 0.80757 0.47529 0.55071 0.0
H2007 H 0.74598 0.46048 0.57605 0.0
H2008 H 0.75264 0.38942 0.5609 0.0
H2009 H 0.80975 0.42062 0.57167 0.0
H2010 H 0.69232 0.46136 0.48307 0.0
H2011 H 0.71803 0.50138 0.53348 0.0
H2012 H 0.83055 0.43709 0.51135 0.0
H2013 H 0.7788 0.39613 0.50275 0.0
H2014 H 0.84643 0.41333 0.52334 0.0
H2015 H 0.79564 0.37299 0.51462 0.0
H2016 H 0.79845 0.46092 0.45276 0.0
H2017 H 0.77055 0.49319 0.49452 0.0
H2018 H 0.81297 0.49102 0.44285 0.0
H2019 H 0.78556 0.52274 0.48385 0.0
H2020 H 0.77438 0.41312 0.41026 0.0
H2021 H 0.77316 0.36684 0.44149 0.0
H2022 H 0.85591 0.5029 0.53058 0.0
H2023 H 0.85743 0.46476 0.47754 0.0
Li2024 Li 0.65516 0.51698 0.28941 0.0
Li2025 Li 0.68287 0.53807 0.27291 0.0
Li2026 Li 0.65599 0.51441 0.25135 0.0
Li2027 Li 0.67987 0.49711 0.2699 0.0
C2028 C 0.63967 0.54365 0.266 0.0
N2029 N 0.60864 0.55569 0.25183 0.0
C2030 C 0.64137 0.55517 0.25208 0.0
C2031 C 0.62221 0.5383 0.27277 0.0
C2032 C 0.62552 0.56109 0.24507 0.0
C2033 C 0.60669 0.54454 0.26543 0.0
C2034 C 0.68723 0.52177 0.31264 0.0
C2035 C 0.68993 0.50743 0.34058 0.0
N2036 N 0.69079 0.52469 0.35184 0.0
C2037 C 0.68811 0.53937 0.32446 0.0
C2038 C 0.68809 0.50565 0.32071 0.0
C2039 C 0.68993 0.54055 0.34426 0.0
C2040 C 0.63316 0.50285 0.32273 0.0
N2041 N 0.64043 0.51864 0.31534 0.0
C2042 C 0.62958 0.53784 0.34279 0.0
C2043 C 0.6386 0.53597 0.32538 0.0
C2044 C 0.62188 0.52183 0.35089 0.0
C2045 C 0.62399 0.50411 0.3401 0.0
H2046 H 0.63451 0.48897 0.31527 0.0
H2047 H 0.64424 0.54871 0.31998 0.0
C2048 C 0.69638 0.5741 0.2577 0.0
N2049 N 0.69877 0.56582 0.27337 0.0
C2050 C 0.70508 0.5932 0.25718 0.0
C2051 C 0.71944 0.5956 0.28869 0.0
C2052 C 0.71027 0.57646 0.28873 0.0
C2053 C 0.7169 0.60467 0.27282 0.0
H2054 H 0.68751 0.56592 0.24537 0.0
H2055 H 0.71228 0.57029 0.30131 0.0
C2056 C 0.63599 0.48009 0.2585 0.0
N2057 N 0.60579 0.45455 0.23843 0.0
C2058 C 0.63893 0.46465 0.24525 0.0
C2059 C 0.61774 0.48252 0.26164 0.0
C2060 C 0.62346 0.45189 0.23522 0.0
C2061 C 0.60264 0.46946 0.25132 0.0
C2062 C 0.69179 0.51184 0.234 0.0
C2063 C 0.68721 0.49337 0.22345 0.0
C2064 C 0.70425 0.52576 0.22729 0.0
C2065 C 0.69507 0.48915 0.20619 0.0
C2066 C 0.7118 0.52097 0.20995 0.0
N2067 N 0.70709 0.50293 0.19984 0.0
C2068 C 0.65115 0.51944 0.20952 0.0
C2069 C 0.62185 0.5113 0.22111 0.0
C2070 C 0.64245 0.52084 0.19152 0.0
N2071 N 0.64105 0.51452 0.22422 0.0
C2072 C 0.61257 0.51287 0.20333 0.0
C2073 C 0.62272 0.51765 0.18781 0.0
H2074 H 0.66623 0.52275 0.21164 0.0
H2075 H 0.61348 0.50777 0.23254 0.0
C2076 C 0.68606 0.45625 0.27558 0.0
N2077 N 0.69403 0.47219 0.26873 0.0
C2078 C 0.6946 0.43974 0.27485 0.0
C2079 C 0.71984 0.45536 0.25999 0.0
C2080 C 0.71084 0.47159 0.26096 0.0
C2081 C 0.71202 0.43861 0.26696 0.0
H2082 H 0.67281 0.4561 0.28177 0.0
H2083 H 0.71753 0.48376 0.25526 0.0
O2084 O 0.65486 0.53717 0.27262 0.0
O2085 O 0.68463 0.52016 0.29327 0.0
O2086 O 0.65093 0.49294 0.26815 0.0
O2087 O 0.68424 0.5162 0.25091 0.0
H2088 H 0.65471 0.55925 0.24652 0.0
H2089 H 0.62064 0.52937 0.28352 0.0
H2090 H 0.6266 0.5699 0.23419 0.0
H2091 H 0.59308 0.54046 0.2705 0.0
H2092 H 0.69059 0.49507 0.34705 0.0
H2093 H 0.68714 0.5519 0.31839 0.0
H2094 H 0.68721 0.49189 0.31171 0.0
H2095 H 0.69055 0.55405 0.3536 0.0
H2096 H 0.62855 0.55201 0.34968 0.0
H2097 H 0.61887 0.49103 0.3451 0.0
H2098 H 0.70261 0.59882 0.24433 0.0
H2099 H 0.72813 0.60336 0.30134 0.0
H2100 H 0.65299 0.46254 0.24275 0.0
H2101 H 0.61527 0.49438 0.2719 0.0
H2102 H 0.6255 0.43988 0.22489 0.0
H2103 H 0.58843 0.47118 0.25355 0.0
H2104 H 0.67766 0.48243 0.22853 0.0
H2105 H 0.70804 0.54009 0.23538 0.0
H2106 H 0.69162 0.47492 0.19783 0.0
H2107 H 0.72143 0.5316 0.20454 0.0
H2108 H 0.65138 0.52497 0.18069 0.0
H2109 H 0.5974 0.51014 0.20179 0.0
H2110 H 0.68742 0.42795 0.28077 0.0
H2111 H 0.73293 0.45608 0.25345 0.0
Eu2112 Eu 0.05319 0.05305 0.02338 0.0
Eu2113 Eu 0.03113 0.00974 0.01031 0.0
C2114 C 0.05637 0.0307 0.97884 0.0
C2115 C 0.07037 0.10425 0.02247 0.0
C2116 C 0.06349 0.10042 1.0032 0.0
C2117 C 0.07138 0.13786 0.02322 0.0
C2118 C 0.06025 0.11515 0.99406 0.0
C2119 C 0.07465 0.12303 0.03238 0.0
C2120 C 0.06375 0.13397 1.00408 0.0
C2121 C 0.07077 0.0884 0.03255 0.0
O2122 O 0.06129 1.00637 0.0156 0.0
O2123 O 0.07513 0.03626 0.0311 0.0
C2124 C 0.07613 0.01854 0.02418 0.0
O2125 O 0.0407 0.0471 0.05141 0.0
O2126 O 0.01359 0.98771 0.98875 0.0
O2127 O 0.02211 0.98135 0.01631 0.0
O2128 O 0.02322 0.01711 0.04164 0.0
C2129 C 0.02834 0.03262 0.05501 0.0
O2130 O 0.02416 0.05707 0.01269 0.0
O2131 O 0.0079 0.02637 0.00831 0.0
O2132 O 0.04572 0.01533 0.983 0.0
O2133 O 0.05492 0.08194 0.0389 0.0
O2134 O 0.0783 0.07473 0.02394 0.0
O2135 O 0.05959 0.04675 0.99156 0.0
C2136 C 0.02054 0.95738 0.98963 0.0
C2137 C 0.03958 0.95633 0.99121 0.0
C2138 C 0.01294 0.92393 0.97542 0.0
C2139 C 0.04513 0.93892 0.98617 0.0
C2140 C 0.00735 0.94136 0.98085 0.0
C2141 C 0.03173 0.92225 0.97921 0.0
C2142 C 0.01439 0.97449 0.99897 0.0
C2143 C 0.00819 0.04466 0.00962 0.0
H2144 H 0.05983 0.08593 0.99543 0.0
H2145 H 0.07433 0.15227 0.03121 0.0
H2146 H 0.05403 0.11163 0.97945 0.0
H2147 H 0.07982 0.12612 0.04734 0.0
H2148 H 0.05001 0.96869 0.99767 0.0
H2149 H 1.00231 0.91155 0.9695 0.0
H2150 H 0.05971 0.93841 0.98942 0.0
H2151 H 0.99262 0.94206 0.97918 0.0
Eu2152 Eu 0.29493 0.78009 0.24192 0.0
Eu2153 Eu 0.28008 0.77657 0.28521 0.0
C2154 C 0.25442 0.7867 0.25215 0.0
C2155 C 0.30133 0.79595 0.19359 0.0
C2156 C 0.2913 0.78851 0.17577 0.0
C2157 C 0.30674 0.82737 0.1848 0.0
C2158 C 0.28891 0.80035 0.16261 0.0
C2159 C 0.30901 0.81552 0.19804 0.0
C2160 C 0.29666 0.81993 0.16689 0.0
C2161 C 0.30334 0.78302 0.20725 0.0
O2162 O 0.2867 0.74839 0.27272 0.0
O2163 O 0.28079 0.7497 0.24122 0.0
C2164 C 0.28333 0.74004 0.25481 0.0
O2165 O 0.3184 0.77095 0.25733 0.0
O2166 O 0.2606 0.76138 0.30218 0.0
O2167 O 0.28137 0.78579 0.31609 0.0
O2168 O 0.31145 0.77948 0.28849 0.0
C2169 C 0.32293 0.77435 0.27584 0.0
O2170 O 0.30472 0.80891 0.26017 0.0
O2171 O 0.28477 0.80788 0.28423 0.0
O2172 O 0.2547 0.7757 0.265 0.0
O2173 O 0.31519 0.78948 0.22236 0.0
O2174 O 0.2878 0.77285 0.21113 0.0
O2175 O 0.26969 0.7934 0.24473 0.0
C2176 C 0.2729 0.76097 0.33342 0.0
C2177 C 0.28685 0.74989 0.33157 0.0
C2178 C 0.26698 0.75174 0.36409 0.0
C2179 C 0.29083 0.73975 0.34592 0.0
C2180 C 0.26302 0.76183 0.34975 0.0
C2181 C 0.28094 0.74055 0.36239 0.0
C2182 C 0.26842 0.7716 0.31843 0.0
C2183 C 0.29688 0.81731 0.27455 0.0
H2184 H 0.28518 0.77349 0.17204 0.0
H2185 H 0.3131 0.84231 0.18853 0.0
H2186 H 0.28075 0.79413 0.14917 0.0
H2187 H 0.31678 0.82169 0.21171 0.0
H2188 H 0.29465 0.74909 0.31905 0.0
H2189 H 0.25888 0.75247 0.37639 0.0
H2190 H 0.3018 0.73148 0.3442 0.0
H2191 H 0.25215 0.77026 0.35138 0.0
Eu2192 Eu 0.56179 0.03285 0.52095 0.0
Eu2193 Eu 0.52109 0.03658 0.53989 0.0
C2194 C 0.55555 0.02749 0.56419 0.0
C2195 C 0.60885 0.01838 0.51012 0.0
C2196 C 0.60762 1.00555 0.52293 0.0
C2197 C 0.63899 0.01091 0.5021 0.0
C2198 C 0.62203 0.99543 0.52529 0.0
C2199 C 0.62463 0.02103 0.4998 0.0
C2200 C 0.63786 0.9979 0.5148 0.0
C2201 C 0.59376 0.02895 0.50718 0.0
O2202 O 0.54121 0.0643 0.54906 0.0
O2203 O 0.55951 0.06365 0.52388 0.0
C2204 C 0.55235 0.07303 0.5381 0.0
O2205 O 0.54021 0.03085 0.49643 0.0
O2206 O 0.50471 0.0502 0.56108 0.0
O2207 O 0.49075 0.02778 0.53823 0.0
O2208 O 0.52032 0.04775 0.51242 0.0
C2209 C 0.52669 0.04064 0.4965 0.0
O2210 O 0.5491 1.00387 0.52624 0.0
O2211 O 0.51821 1.00662 0.52397 0.0
O2212 O 0.53718 0.02418 0.56098 0.0
O2213 O 0.57759 0.01879 0.4997 0.0
O2214 O 0.59203 0.04244 0.52117 0.0
O2215 O 0.56669 0.03555 0.55274 0.0
C2216 C 0.47499 0.05298 0.54781 0.0
C2217 C 0.47366 0.05863 0.52995 0.0
C2218 C 0.44957 0.06916 0.55724 0.0
C2219 C 0.46025 0.06927 0.52568 0.0
C2220 C 0.46294 0.05841 0.56146 0.0
C2221 C 0.44797 0.0746 0.53924 0.0
C2222 C 0.48868 0.04119 0.55211 0.0
C2223 C 0.53121 0.99621 0.52381 0.0
H2224 H 0.59547 1.00328 0.53097 0.0
H2225 H 0.65108 0.01342 0.49402 0.0
H2226 H 0.6206 0.98542 0.53505 0.0
H2227 H 0.62584 0.03092 0.4899 0.0
H2228 H 0.48291 0.05469 0.51924 0.0
H2229 H 0.44023 0.07288 0.56795 0.0
H2230 H 0.4596 0.07343 0.5118 0.0
H2231 H 0.46374 0.05419 0.57531 0.0
Eu2232 Eu 0.27303 0.29089 0.76495 0.0
Eu2233 Eu 0.31406 0.27939 0.76865 0.0
C2234 C 0.2756 0.24659 0.76961 0.0
C2235 C 0.22556 0.30273 0.77513 0.0
C2236 C 0.22725 0.29784 0.79327 0.0
C2237 C 0.19607 0.31225 0.78198 0.0
C2238 C 0.2134 0.30016 0.80574 0.0
C2239 C 0.20995 0.30992 0.76952 0.0
C2240 C 0.19768 0.30742 0.80023 0.0
C2241 C 0.24044 0.30112 0.76237 0.0
O2242 O 0.30919 0.28066 0.73724 0.0
O2243 O 0.27739 0.27861 0.73483 0.0
C2244 C 0.29311 0.27783 0.7269 0.0
O2245 O 0.29318 0.31817 0.76079 0.0
O2246 O 0.33206 0.25916 0.75992 0.0
O2247 O 0.34299 0.28435 0.7811 0.0
O2248 O 0.32191 0.31178 0.76921 0.0
C2249 C 0.31153 0.32389 0.76468 0.0
O2250 O 0.28031 0.29685 0.79674 0.0
O2251 O 0.30665 0.28377 0.79927 0.0
O2252 O 0.2937 0.2507 0.76723 0.0
O2253 O 0.25617 0.31296 0.76799 0.0
O2254 O 0.24301 0.28395 0.75612 0.0
O2255 O 0.26554 0.26021 0.77103 0.0
C2256 C 0.36342 0.27326 0.75943 0.0
C2257 C 0.36378 0.28494 0.74559 0.0
C2258 C 0.39377 0.26665 0.7514 0.0
C2259 C 0.37901 0.28736 0.73459 0.0
C2260 C 0.37851 0.26425 0.76239 0.0
C2261 C 0.3941 0.27809 0.73726 0.0
C2262 C 0.34689 0.26964 0.77 0.0
C2263 C 0.29349 0.29192 0.80706 0.0
H2264 H 0.23935 0.2924 0.79782 0.0
H2265 H 0.18399 0.31762 0.77724 0.0
H2266 H 0.21513 0.29652 0.81978 0.0
H2267 H 0.20853 0.31381 0.75555 0.0
H2268 H 0.35211 0.29187 0.74306 0.0
H2269 H 0.40529 0.25954 0.75394 0.0
H2270 H 0.37873 0.29606 0.72367 0.0
H2271 H 0.37838 0.25516 0.77302 0.0
Eu2272 Eu 0.03815 0.05598 0.52755 0.0
Eu2273 Eu 0.05183 0.0176 0.50815 0.0
C2274 C 0.07818 0.05872 0.50859 0.0
C2275 C 0.03089 0.1064 0.53533 0.0
C2276 C 0.0486 0.11495 0.53079 0.0
C2277 C 0.01712 0.13015 0.52224 0.0
C2278 C 0.05047 0.13071 0.52173 0.0
C2279 C 0.01527 0.11444 0.53145 0.0
C2280 C 0.03467 0.13813 0.51687 0.0
C2281 C 0.0282 0.08788 0.54171 0.0
O2282 O 0.06484 0.02245 0.53941 0.0
O2283 O 0.04895 0.04463 0.55394 0.0
C2284 C 0.06059 0.03264 0.55522 0.0
O2285 O 0.0127 0.03306 0.52645 0.0
O2286 O 0.07317 1.00011 0.50335 0.0
O2287 O 0.04491 0.98938 0.49034 0.0
O2288 O 0.0266 0.00703 0.52323 0.0
C2289 C 0.01199 0.01493 0.52652 0.0
O2290 O 0.03151 0.05536 0.49517 0.0
O2291 O 0.03474 0.02498 0.48288 0.0
O2292 O 0.07406 0.04061 0.50084 0.0
O2293 O 0.01709 0.074 0.53026 0.0
O2294 O 0.04321 0.08262 0.5481 0.0
O2295 O 0.06727 0.06673 0.52008 0.0
C2296 C 0.05997 0.96837 0.50385 0.0
C2297 C 0.05458 0.96951 0.52251 0.0
C2298 C 0.06097 0.93498 0.50268 0.0
C2299 C 0.05226 0.95353 0.53116 0.0
C2300 C 0.06326 0.95109 0.49396 0.0
C2301 C 0.05535 0.93604 0.52136 0.0
C2302 C 0.06108 0.98517 0.49478 0.0
C2303 C 0.02934 0.04102 0.48051 0.0
H2304 H 0.06089 0.10897 0.53344 0.0
H2305 H 1.00475 0.13571 0.51883 0.0
H2306 H 0.06413 0.13641 0.51758 0.0
H2307 H 1.00149 0.10803 0.53477 0.0
H2308 H 0.0518 0.98272 0.53028 0.0
H2309 H 0.06355 0.92173 0.49481 0.0
H2310 H 0.04751 0.9548 0.54537 0.0
H2311 H 0.06735 0.95 0.4795 0.0
Eu2312 Eu 0.31528 0.79884 0.76372 0.0
Eu2313 Eu 0.27577 0.77336 0.76916 0.0
C2314 C 0.29808 0.80308 0.80428 0.0
C2315 C 0.36551 0.8116 0.75416 0.0
C2316 C 0.38273 0.82421 0.75848 0.0
C2317 C 0.38175 0.78545 0.74545 0.0
C2318 C 0.39944 0.81738 0.75688 0.0
C2319 C 0.36507 0.7923 0.74701 0.0
C2320 C 0.39909 0.7978 0.75108 0.0
C2321 C 0.3483 0.81786 0.75989 0.0
O2322 O 0.26737 0.80263 0.76671 0.0
O2323 O 0.29469 0.81927 0.75849 0.0
C2324 C 0.27683 0.81855 0.76221 0.0
O2325 O 0.30834 0.77809 0.73618 0.0
O2326 O 0.25262 0.76789 0.78688 0.0
O2327 O 0.25262 0.74927 0.75997 0.0
O2328 O 0.27679 0.7686 0.73691 0.0
C2329 C 0.29207 0.76886 0.72786 0.0
O2330 O 0.32407 0.77077 0.77043 0.0
O2331 O 0.29541 0.75128 0.76927 0.0
O2332 O 0.28942 0.78533 0.79913 0.0
O2333 O 0.33433 0.81444 0.74667 0.0
O2334 O 0.34311 0.81336 0.77606 0.0
O2335 O 0.30684 0.81193 0.79189 0.0
C2336 C 0.22367 0.75532 0.76937 0.0
C2337 C 0.21984 0.77025 0.76056 0.0
C2338 C 0.19038 0.74258 0.76781 0.0
C2339 C 0.20138 0.77129 0.75527 0.0
C2340 C 0.20889 0.74159 0.77313 0.0
C2341 C 0.18645 0.75737 0.75867 0.0
C2342 C 0.24307 0.75391 0.77432 0.0
C2343 C 0.31398 0.75344 0.77015 0.0
H2344 H 0.38326 0.83911 0.76419 0.0
H2345 H 0.38106 0.77034 0.74078 0.0
H2346 H 0.41255 0.82722 0.76156 0.0
H2347 H 0.35183 0.78235 0.74369 0.0
H2348 H 0.23115 0.78093 0.75751 0.0
H2349 H 0.17916 0.73175 0.77076 0.0
H2350 H 0.19884 0.78267 0.74798 0.0
H2351 H 0.21168 0.73001 0.78 0.0
Eu2352 Eu 0.54409 0.02207 0.03712 0.0
Eu2353 Eu 0.54089 0.0382 0.99723 0.0
C2354 C 0.53527 0.06367 0.03658 0.0
C2355 C 0.53438 0.00683 0.0848 0.0
C2356 C 0.54272 0.0127 0.10353 0.0
C2357 C 0.50415 0.99845 0.09711 0.0
C2358 C 0.53185 0.01163 0.11898 0.0
C2359 C 0.51499 0.9997 0.08168 0.0
C2360 C 0.51242 1.00452 0.11595 0.0
C2361 C 0.54602 0.0085 0.06873 0.0
O2362 O 0.57104 0.04965 0.00985 0.0
O2363 O 0.57391 0.02733 0.02848 0.0
C2364 C 0.58158 0.04093 0.01962 0.0
O2365 O 0.53991 0.99713 0.013 0.0
O2366 O 0.5446 0.06192 0.98186 0.0
O2367 O 0.53257 0.03345 0.96672 0.0
O2368 O 0.55384 0.0123 0.99052 0.0
C2369 C 0.54857 0.99674 0.99738 0.0
O2370 O 0.51304 0.02226 0.03203 0.0
O2371 O 0.51181 0.02138 0.99966 0.0
O2372 O 0.52918 0.05813 0.01856 0.0
O2373 O 0.5391 0.99823 0.05225 0.0
O2374 O 0.55412 0.02567 0.06725 0.0
O2375 O 0.54455 0.05347 0.04572 0.0
C2376 C 0.55225 0.05341 0.95058 0.0
C2377 C 0.57058 0.05037 0.95356 0.0
C2378 C 0.55851 0.05974 0.91903 0.0
C2379 C 0.5828 0.05188 0.93928 0.0
C2380 C 0.54629 0.05825 0.93336 0.0
C2381 C 0.57683 0.05637 0.92178 0.0
C2382 C 0.53925 0.05104 0.96527 0.0
C2383 C 0.50333 0.01953 0.0153 0.0
H2384 H 0.55764 0.01832 0.10621 0.0
H2385 H 0.48928 0.99267 0.09426 0.0
H2386 H 0.53863 0.01675 0.13327 0.0
H2387 H 0.50817 0.99514 0.06734 0.0
H2388 H 0.57535 0.04664 0.96685 0.0
H2389 H 0.55346 0.06299 0.90562 0.0
H2390 H 0.59689 0.04946 0.94191 0.0
H2391 H 0.53214 0.06058 0.9309 0.0
Eu2392 Eu 0.30647 0.3111 0.28075 0.0
Eu2393 Eu 0.28526 0.26893 0.25803 0.0
C2394 C 0.29531 0.30393 0.23547 0.0
C2395 C 0.31568 0.36369 0.2973 0.0
C2396 C 0.30709 0.3666 0.28021 0.0
C2397 C 0.30864 0.39337 0.31363 0.0
C2398 C 0.29919 0.38263 0.27986 0.0
C2399 C 0.31668 0.3773 0.31395 0.0
C2400 C 0.29956 0.39602 0.29663 0.0
C2401 C 0.32144 0.34547 0.2982 0.0
O2402 O 0.31551 0.26644 0.26314 0.0
O2403 O 0.32817 0.29803 0.26543 0.0
C2404 C 0.32966 0.28009 0.26189 0.0
O2405 O 0.31106 0.29091 0.30087 0.0
O2406 O 0.28356 0.24396 0.2358 0.0
O2407 O 0.26097 0.24578 0.25408 0.0
O2408 O 0.28524 0.26787 0.28956 0.0
C2409 C 0.29845 0.27622 0.3032 0.0
O2410 O 0.27619 0.30784 0.28626 0.0
O2411 O 0.26357 0.28745 0.25888 0.0
O2412 O 0.29452 0.28567 0.23518 0.0
O2413 O 0.30984 0.33361 0.30584 0.0
O2414 O 0.32731 0.33714 0.28264 0.0
O2415 O 0.29557 0.31581 0.25168 0.0
C2416 C 0.26945 0.21568 0.24542 0.0
C2417 C 0.26405 0.21025 0.26265 0.0
C2418 C 0.28202 0.18683 0.23772 0.0
C2419 C 0.26814 0.19354 0.26761 0.0
C2420 C 0.27778 0.20345 0.23269 0.0
C2421 C 0.27783 0.18204 0.25554 0.0
C2422 C 0.26842 0.2348 0.24153 0.0
C2423 C 0.2618 0.29978 0.274 0.0
H2424 H 0.30583 0.35611 0.26724 0.0
H2425 H 0.30921 0.40352 0.32674 0.0
H2426 H 0.29198 0.38405 0.26662 0.0
H2427 H 0.32308 0.37516 0.3273 0.0
H2428 H 0.25743 0.21927 0.27272 0.0
H2429 H 0.28962 0.1784 0.22813 0.0
H2430 H 0.26436 0.19002 0.28124 0.0
H2431 H 0.28197 0.20728 0.21928 0.0
Eu2432 Eu 0.53845 0.5545 0.02814 0.0
Eu2433 Eu 0.55184 0.51625 0.00924 0.0
C2434 C 0.57825 0.55654 0.00942 0.0
C2435 C 0.53221 0.60395 0.03157 0.0
C2436 C 0.54307 0.60381 0.01593 0.0
C2437 C 0.52505 0.63432 0.02679 0.0
C2438 C 0.54471 0.61859 0.00563 0.0
C2439 C 0.52332 0.61934 0.0371 0.0
C2440 C 0.53549 0.63385 0.01073 0.0
C2441 C 0.52935 0.58718 0.04079 0.0
O2442 O 0.566 0.52301 0.04023 0.0
O2443 O 0.54747 0.54243 0.05471 0.0
C2444 C 0.56043 0.53185 0.0561 0.0
O2445 O 0.51267 0.53186 0.02629 0.0
O2446 O 0.5735 0.49915 1.00451 0.0
O2447 O 0.54492 0.48732 0.99296 0.0
O2448 O 0.52707 0.50635 0.02528 0.0
C2449 C 0.51217 0.514 0.02749 0.0
O2450 O 0.53248 0.55379 0.99565 0.0
O2451 O 0.53426 0.5229 0.98385 0.0
O2452 O 0.57266 0.53919 0.99983 0.0
O2453 O 0.5175 0.57263 0.0312 0.0
O2454 O 0.54464 0.58228 0.04692 0.0
O2455 O 0.5686 0.5637 0.02281 0.0
C2456 C 0.56138 0.46767 0.00714 0.0
C2457 C 0.55602 0.46938 0.02584 0.0
C2458 C 0.56534 0.43535 0.00816 0.0
C2459 C 0.55525 0.45422 0.03561 0.0
C2460 C 0.56608 0.45062 0.99832 0.0
C2461 C 0.5599 0.43701 0.02693 0.0
C2462 C 0.56145 0.48373 0.99707 0.0
C2463 C 0.52955 0.53919 0.98121 0.0
H2464 H 0.55002 0.59201 0.01142 0.0
H2465 H 0.5178 0.64593 0.03098 0.0
H2466 H 0.55311 0.61802 0.99354 0.0
H2467 H 0.51478 0.61957 0.04908 0.0
H2468 H 0.55222 0.48242 0.03283 0.0
H2469 H 0.56912 0.42232 1.00113 0.0
H2470 H 0.55061 0.45589 0.04986 0.0
H2471 H 0.57022 0.4491 0.98386 0.0
Eu2472 Eu 0.81425 0.29723 0.26366 0.0
Eu2473 Eu 0.77379 0.27097 0.26497 0.0
C2474 C 0.7936 0.30176 0.30288 0.0
C2475 C 0.86406 0.31148 0.25299 0.0
C2476 C 0.86657 0.29278 0.2529 0.0
C2477 C 0.89571 0.3197 0.24394 0.0
C2478 C 0.88377 0.28777 0.24922 0.0
C2479 C 0.8785 0.32479 0.24796 0.0
C2480 C 0.89879 0.30129 0.2452 0.0
C2481 C 0.8468 0.31715 0.25947 0.0
O2482 O 0.76526 0.30034 0.26419 0.0
O2483 O 0.79358 0.31813 0.25991 0.0
C2484 C 0.77531 0.31692 0.26196 0.0
O2485 O 0.80983 0.27571 0.23635 0.0
O2486 O 0.75508 0.25233 0.27977 0.0
O2487 O 0.74609 0.25698 0.25172 0.0
O2488 O 0.77805 0.26685 0.23348 0.0
C2489 C 0.79424 0.26686 0.2263 0.0
O2490 O 0.82299 0.26898 0.26941 0.0
O2491 O 0.79412 0.24945 0.26617 0.0
O2492 O 0.77919 0.28881 0.29462 0.0
O2493 O 0.83256 0.3137 0.24658 0.0
O2494 O 0.84206 0.31224 0.27562 0.0
O2495 O 0.80879 0.30613 0.29424 0.0
C2496 C 0.72334 0.25386 0.27326 0.0
C2497 C 0.7069 0.24036 0.2674 0.0
C2498 C 0.70486 0.27693 0.2861 0.0
C2499 C 0.68948 0.24527 0.27032 0.0
C2500 C 0.7223 0.272 0.28313 0.0
C2501 C 0.68824 0.26382 0.27911 0.0
C2502 C 0.74114 0.24985 0.26671 0.0
C2503 C 0.81273 0.25161 0.26818 0.0
H2504 H 0.8555 0.28225 0.25656 0.0
H2505 H 0.90677 0.33038 0.24048 0.0
H2506 H 0.88549 0.27356 0.25067 0.0
H2507 H 0.87667 0.33923 0.24773 0.0
H2508 H 0.70751 0.22636 0.25962 0.0
H2509 H 0.70439 0.29125 0.29311 0.0
H2510 H 0.67702 0.23489 0.26447 0.0
H2511 H 0.73492 0.28264 0.28767 0.0
Eu2512 Eu 0.04306 0.51766 0.53197 0.0
Eu2513 Eu 0.03968 0.53126 0.49047 0.0
C2514 C 0.03814 0.55944 0.5286 0.0
C2515 C 0.03276 0.50733 0.5808 0.0
C2516 C 0.01804 0.51742 0.58104 0.0
C2517 C 0.02411 0.49754 0.6105 0.0
C2518 C 0.00652 0.51774 0.59604 0.0
C2519 C 0.0357 0.49732 0.59552 0.0
C2520 C 0.00947 0.50786 0.61095 0.0
C2521 C 0.04495 0.50717 0.56515 0.0
O2522 O 0.07092 0.53268 0.49636 0.0
O2523 O 0.07255 0.53277 0.52869 0.0
C2524 C 0.08073 0.53514 0.513 0.0
O2525 O 0.05177 0.49551 0.51017 0.0
O2526 O 0.03043 0.55069 0.47326 0.0
O2527 O 0.04361 0.52776 0.46016 0.0
O2528 O 0.03297 0.49933 0.48508 0.0
C2529 C 0.04282 0.48897 0.49326 0.0
O2530 O 0.01191 0.50874 0.5224 0.0
O2531 O 0.00964 0.52558 0.49798 0.0
O2532 O 0.04706 0.55739 0.51319 0.0
O2533 O 0.0381 0.49551 0.54935 0.0
O2534 O 0.05295 0.52388 0.56213 0.0
O2535 O 0.03177 0.54473 0.53639 0.0
C2536 C 0.04883 0.55639 0.4479 0.0
C2537 C 0.06825 0.55736 0.44784 0.0
C2538 C 0.05057 0.57942 0.42669 0.0
C2539 C 0.07865 0.56879 0.43675 0.0
C2540 C 0.04015 0.56782 0.43765 0.0
C2541 C 0.06986 0.57961 0.42567 0.0
C2542 C 0.03734 0.54311 0.458 0.0
C2543 C 1.00181 0.51512 0.50987 0.0
H2544 H 0.0155 0.52509 0.56964 0.0
H2545 H 0.02679 0.48993 0.62189 0.0
H2546 H 0.9952 0.5256 0.5959 0.0
H2547 H 0.047 0.48943 0.59546 0.0
H2548 H 0.0753 0.54882 0.45587 0.0
H2549 H 0.04343 0.58783 0.41862 0.0
H2550 H 0.0934 0.56836 0.43616 0.0
H2551 H 0.02521 0.56743 0.43775 0.0
Eu2552 Eu 0.77549 0.7894 0.26312 0.0
Eu2553 Eu 0.81643 0.77832 0.26813 0.0
C2554 C 0.77819 0.74525 0.26825 0.0
C2555 C 0.72615 0.79718 0.27041 0.0
C2556 C 0.72393 0.78476 0.28357 0.0
C2557 C 0.69836 0.80878 0.28008 0.0
C2558 C 0.70901 0.78444 0.29505 0.0
C2559 C 0.71322 0.80902 0.26854 0.0
C2560 C 0.69628 0.79668 0.29361 0.0
C2561 C 0.74281 0.79918 0.25991 0.0
O2562 O 0.80967 0.77196 0.23608 0.0
O2563 O 0.78363 0.78529 0.23294 0.0
C2564 C 0.7967 0.77688 0.22546 0.0
O2565 O 0.79583 0.81821 0.26584 0.0
O2566 O 0.83467 0.75768 0.26206 0.0
O2567 O 0.8452 0.78446 0.2811 0.0
O2568 O 0.82406 0.809 0.26196 0.0
C2569 C 0.81392 0.82254 0.26358 0.0
O2570 O 0.77915 0.78872 0.29467 0.0
O2571 O 0.81085 0.79004 0.29816 0.0
O2572 O 0.79636 0.75134 0.27322 0.0
O2573 O 0.75761 0.81021 0.26949 0.0
O2574 O 0.7466 0.78355 0.25042 0.0
O2575 O 0.76802 0.75695 0.26239 0.0
C2576 C 0.8663 0.77144 0.26102 0.0
C2577 C 0.87518 0.78943 0.25801 0.0
C2578 C 0.88846 0.75695 0.24218 0.0
C2579 C 0.89058 0.79115 0.24718 0.0
C2580 C 0.87319 0.75526 0.25319 0.0
C2581 C 0.89721 0.7749 0.239 0.0
C2582 C 0.84938 0.76911 0.27142 0.0
C2583 C 0.79488 0.7912 0.30551 0.0
H2584 H 0.73401 0.77572 0.28532 0.0
H2585 H 0.6886 0.81818 0.27855 0.0
H2586 H 0.70782 0.77512 0.30549 0.0
H2587 H 0.71489 0.81876 0.25851 0.0
H2588 H 0.87006 0.80216 0.26374 0.0
H2589 H 0.89344 0.74424 0.23616 0.0
H2590 H 0.89699 0.80512 0.24478 0.0
H2591 H 0.86655 0.74126 0.25535 0.0
Eu2592 Eu 0.79833 0.28454 0.74176 0.0
Eu2593 Eu 0.77822 0.27772 0.78193 0.0
C2594 C 0.75497 0.28635 0.74555 0.0
C2595 C 0.8102 0.30287 0.69633 0.0
C2596 C 0.79975 0.31725 0.70066 0.0
C2597 C 0.81492 0.31194 0.66542 0.0
C2598 C 0.79686 0.3289 0.68742 0.0
C2599 C 0.81781 0.30032 0.67869 0.0
C2600 C 0.80433 0.32632 0.66958 0.0
C2601 C 0.81246 0.28996 0.70976 0.0
O2602 O 0.7885 0.25135 0.76943 0.0
O2603 O 0.7843 0.25388 0.73818 0.0
C2604 C 0.78551 0.2435 0.75136 0.0
O2605 O 0.82042 0.27745 0.76113 0.0
O2606 O 0.75853 0.25916 0.79596 0.0
O2607 O 0.77579 0.28474 0.81254 0.0
O2608 O 0.80905 0.28789 0.78955 0.0
C2609 C 0.8228 0.28348 0.77966 0.0
O2610 O 0.80054 0.31357 0.75962 0.0
O2611 O 0.77871 0.30869 0.78162 0.0
O2612 O 0.75448 0.27663 0.75961 0.0
O2613 O 0.82086 0.29785 0.72658 0.0
O2614 O 0.79762 0.27723 0.71078 0.0
O2615 O 0.77071 0.29341 0.73906 0.0
C2616 C 0.76869 0.25803 0.82777 0.0
C2617 C 0.78702 0.25512 0.83143 0.0
C2618 C 0.75848 0.23975 0.85222 0.0
C2619 C 0.79107 0.24468 0.84549 0.0
C2620 C 0.75449 0.25026 0.83825 0.0
C2621 C 0.77682 0.23681 0.85604 0.0
C2622 C 0.76412 0.26896 0.81302 0.0
C2623 C 0.79015 0.3199 0.77286 0.0
H2624 H 0.7937 0.31936 0.71422 0.0
H2625 H 0.82064 0.30935 0.65174 0.0
H2626 H 0.78884 0.33996 0.69121 0.0
H2627 H 0.82577 0.28917 0.67506 0.0
H2628 H 0.79819 0.26088 0.82339 0.0
H2629 H 0.74722 0.23412 0.86022 0.0
H2630 H 0.80529 0.24252 0.84789 0.0
H2631 H 0.74026 0.25234 0.83565 0.0
Eu2632 Eu 0.80954 0.80524 0.77621 0.0
Eu2633 Eu 0.7842 0.76444 0.75384 0.0
C2634 C 0.79657 0.79926 0.73111 0.0
C2635 C 0.82934 0.85764 0.79125 0.0
C2636 C 0.82255 0.86148 0.77381 0.0
C2637 C 0.83276 0.891 0.80529 0.0
C2638 C 0.82062 0.87989 0.77218 0.0
C2639 C 0.83476 0.87251 0.80689 0.0
C2640 C 0.82532 0.89478 0.788 0.0
C2641 C 0.82931 0.83796 0.79349 0.0
O2642 O 0.81327 0.75848 0.75826 0.0
O2643 O 0.82907 0.78912 0.7605 0.0
C2644 C 0.82865 0.77076 0.75745 0.0
O2645 O 0.81148 0.78459 0.79643 0.0
O2646 O 0.77972 0.7391 0.73163 0.0
O2647 O 0.7582 0.74347 0.75076 0.0
O2648 O 0.78403 0.76376 0.78548 0.0
C2649 C 0.79772 0.77104 0.79895 0.0
O2650 O 0.77962 0.8052 0.78264 0.0
O2651 O 0.76519 0.78559 0.75545 0.0
O2652 O 0.79329 0.78074 0.73054 0.0
O2653 O 0.81426 0.8294 0.79985 0.0
O2654 O 0.83473 0.8272 0.77919 0.0
O2655 O 0.79973 0.81137 0.74746 0.0
C2656 C 0.76407 0.71222 0.74252 0.0
C2657 C 0.76023 0.70828 0.76072 0.0
C2658 C 0.77439 0.68207 0.73494 0.0
C2659 C 0.7641 0.69171 0.76619 0.0
C2660 C 0.77035 0.69857 0.72941 0.0
C2661 C 0.77205 0.67888 0.75367 0.0
C2662 C 0.76431 0.73138 0.7381 0.0
C2663 C 0.76464 0.79807 0.77082 0.0
H2664 H 0.81809 0.85012 0.76163 0.0
H2665 H 0.83654 0.90222 0.81769 0.0
H2666 H 0.81449 0.88222 0.75878 0.0
H2667 H 0.83998 0.86972 0.82046 0.0
H2668 H 0.75524 0.71845 0.77114 0.0
H2669 H 0.78059 0.67256 0.72496 0.0
H2670 H 0.76175 0.68943 0.78057 0.0
H2671 H 0.77336 0.70128 0.71529 0.0
Eu2672 Eu 0.55274 0.55458 0.52392 0.0
Eu2673 Eu 0.53013 0.51141 0.51077 0.0
C2674 C 0.55585 0.53187 0.47936 0.0
C2675 C 0.56761 0.60569 0.52285 0.0
C2676 C 0.55855 0.60133 0.50436 0.0
C2677 C 0.56769 0.63914 0.52331 0.0
C2678 C 0.55388 0.61568 0.49547 0.0
C2679 C 0.57237 0.62464 0.53226 0.0
C2680 C 0.55817 0.63472 0.50492 0.0
C2681 C 0.56988 0.59008 0.53275 0.0
O2682 O 0.56032 0.50803 0.51579 0.0
O2683 O 0.57423 0.53759 0.53212 0.0
C2684 C 0.57513 0.51995 0.52481 0.0
O2685 O 0.54007 0.54866 0.55194 0.0
O2686 O 0.51222 0.48956 0.48933 0.0
O2687 O 0.52111 0.48297 0.51667 0.0
O2688 O 0.52237 0.51876 0.54212 0.0
C2689 C 0.52763 0.53422 0.55552 0.0
O2690 O 0.52393 0.55884 0.51313 0.0
O2691 O 0.50717 0.52835 0.50884 0.0
O2692 O 0.54455 0.51681 0.48337 0.0
O2693 O 0.55504 0.58313 0.5405 0.0
O2694 O 0.57718 0.57672 0.52317 0.0
O2695 O 0.55968 0.54782 0.49224 0.0
C2696 C 0.5191 0.45913 0.48974 0.0
C2697 C 0.53803 0.45769 0.4915 0.0
C2698 C 0.51115 0.4261 0.47409 0.0
C2699 C 0.54332 0.44026 0.4858 0.0
C2700 C 0.50581 0.44354 0.48019 0.0
C2701 C 0.52979 0.42394 0.47795 0.0
C2702 C 0.51315 0.47624 0.4994 0.0
C2703 C 0.50782 0.54669 0.51012 0.0
H2704 H 0.55443 0.58669 0.49705 0.0
H2705 H 0.57124 0.65371 0.53086 0.0
H2706 H 0.54619 0.61173 0.48151 0.0
H2707 H 0.57917 0.62815 0.54664 0.0
H2708 H 0.54855 0.46972 0.49853 0.0
H2709 H 0.50044 0.41406 0.4675 0.0
H2710 H 0.55779 0.43941 0.48917 0.0
H2711 H 0.49118 0.44457 0.47835 0.0
Eu2712 Eu 0.06516 0.532 0.01032 0.0
Eu2713 Eu 0.02536 0.53807 0.03005 0.0
C2714 C 0.06231 0.53461 0.05546 0.0
C2715 C 0.11077 0.51543 0.99913 0.0
C2716 C 0.11324 0.50951 0.01672 0.0
C2717 C 0.13624 0.50024 0.98785 0.0
C2718 C 0.12728 0.49924 0.01994 0.0
C2719 C 0.12228 0.51063 0.9847 0.0
C2720 C 0.139 0.49454 0.00556 0.0
C2721 C 0.09645 0.5268 0.9958 0.0
O2722 O 0.03678 0.5641 0.01814 0.0
O2723 O 0.06781 0.56306 0.0224 0.0
C2724 C 0.05439 0.57266 0.02071 0.0
O2725 O 0.04568 0.53766 0.98718 0.0
O2726 O 0.01098 0.55631 0.04925 0.0
O2727 O 0.99541 0.5298 0.03262 0.0
O2728 O 0.01795 0.52642 0.99887 0.0
C2729 C 0.02745 0.53155 0.98488 0.0
O2730 O 0.04891 0.50278 0.01123 0.0
O2731 O 0.028 0.50858 0.03377 0.0
O2732 O 0.04774 0.54295 0.05453 0.0
O2733 O 0.07998 0.51733 0.98837 0.0
O2734 O 0.09531 0.54066 0.00964 0.0
O2735 O 0.06925 0.52685 0.04017 0.0
C2736 C 0.97948 0.55571 0.03882 0.0
C2737 C 0.97319 0.55518 0.0197 0.0
C2738 C 0.95756 0.57618 0.04904 0.0
C2739 C 0.95907 0.56499 0.01531 0.0
C2740 C 0.97155 0.56627 0.05341 0.0
C2741 C 0.95114 0.57567 0.02994 0.0
C2742 C 0.99448 0.5457 0.04387 0.0
C2743 C 0.037 0.49711 0.02329 0.0
H2744 H 0.10438 0.51293 0.02801 0.0
H2745 H 0.14512 0.49699 0.97654 0.0
H2746 H 0.12887 0.49485 0.03364 0.0
H2747 H 0.12057 0.51507 0.97103 0.0
H2748 H 0.97925 0.54729 0.00817 0.0
H2749 H 0.95161 0.58409 0.06065 0.0
H2750 H 0.95457 0.56448 1.00046 0.0
H2751 H 0.97623 0.56688 0.06824 0.0
H2752 H 0.02324 0.19324 0.92048 0.0
H2753 H 0.04582 0.16195 0.01999 0.0
H2754 H 0.01435 0.22514 0.97487 0.0
H2755 H 0.06724 0.13972 0.96736 0.0
H2756 H 0.03224 0.18394 1.00359 0.0
H2757 H 0.03644 0.1712 0.93722 0.0
C2758 C 0.02392 0.19549 0.93593 0.0
C2759 C 0.01774 0.21104 0.94631 0.0
C2760 C 0.04002 0.17433 0.99568 0.0
C2761 C 0.03285 0.18603 0.96549 0.0
C2762 C 0.04796 0.16193 1.00507 0.0
C2763 C 0.05765 0.14897 0.995 0.0
C2764 C 0.04169 0.17365 0.97607 0.0
C2765 C 0.05965 0.1493 0.97559 0.0
C2766 C 0.0315 0.18298 0.94546 0.0
C2767 C 0.01871 0.21319 0.96629 0.0
N2768 N 0.05162 0.16136 0.96671 0.0
N2769 N 0.02623 0.20086 0.97525 0.0
H2770 H 0.17706 0.81901 0.17668 0.0
H2771 H 0.21801 0.77122 0.2576 0.0
H2772 H 0.14109 0.79 0.21323 0.0
H2773 H 0.25078 0.81388 0.23105 0.0
H2774 H 0.18936 0.77812 0.24263 0.0
H2775 H 0.20406 0.81783 0.19755 0.0
C2776 C 0.17474 0.8127 0.18928 0.0
C2777 C 0.15667 0.80451 0.19307 0.0
C2778 C 0.20286 0.78608 0.24033 0.0
C2779 C 0.18783 0.80255 0.21684 0.0
C2780 C 0.21918 0.78214 0.24884 0.0
C2781 C 0.2368 0.79172 0.24528 0.0
C2782 C 0.20433 0.7996 0.2282 0.0
C2783 C 0.23753 0.80583 0.23391 0.0
C2784 C 0.19025 0.81189 0.20117 0.0
C2785 C 0.15476 0.79613 0.20947 0.0
N2786 N 0.22157 0.80919 0.22565 0.0
N2787 N 0.17018 0.79514 0.22064 0.0
H2788 H 0.53692 0.8794 0.4927 0.0
H2789 H 0.49615 0.97447 0.51323 0.0
H2790 H 0.48092 0.88359 0.47326 0.0
H2791 H 0.55359 0.97039 0.52735 0.0
H2792 H 0.48805 0.93977 0.50516 0.0
H2793 H 0.54061 0.91084 0.51264 0.0
C2794 C 0.52528 0.88686 0.49298 0.0
C2795 C 0.50874 0.87919 0.48114 0.0
C2796 C 0.50237 0.94649 0.51025 0.0
C2797 C 0.51293 0.91517 0.5035 0.0
C2798 C 0.50702 0.96629 0.5148 0.0
C2799 C 0.52566 0.97533 0.52055 0.0
C2800 C 0.51647 0.93573 0.51147 0.0
C2801 C 0.53912 0.96403 0.52258 0.0
C2802 C 0.52738 0.90478 0.5043 0.0
C2803 C 0.49393 0.88915 0.48215 0.0
N2804 N 0.53428 0.94483 0.51785 0.0
N2805 N 0.4965 0.90687 0.49285 0.0
H2806 H 0.48193 0.31978 0.66921 0.0
H2807 H 0.41203 0.25019 0.72096 0.0
H2808 H 0.48276 0.26003 0.66589 0.0
H2809 H 0.41191 0.3102 0.72541 0.0
H2810 H 0.43769 0.25345 0.70039 0.0
H2811 H 0.45579 0.31644 0.68923 0.0
C2812 C 0.4766 0.30595 0.6727 0.0
C2813 C 0.48454 0.29016 0.66588 0.0
C2814 C 0.43206 0.26591 0.70586 0.0
C2815 C 0.4546 0.28621 0.68872 0.0
C2816 C 0.4175 0.26409 0.71773 0.0
C2817 C 0.40985 0.27996 0.72497 0.0
C2818 C 0.43906 0.28374 0.70119 0.0
C2819 C 0.41726 0.29755 0.71999 0.0
C2820 C 0.46164 0.30404 0.68407 0.0
C2821 C 0.47692 0.27253 0.67063 0.0
N2822 N 0.43146 0.29897 0.70843 0.0
N2823 N 0.46241 0.27105 0.68181 0.0
H2824 H 0.02767 0.86577 0.60511 0.0
H2825 H 0.03861 0.89942 0.50504 0.0
H2826 H 0.01878 0.826 0.55167 0.0
H2827 H 0.06394 0.93379 0.5587 0.0
H2828 H 0.02993 0.87248 0.52144 0.0
H2829 H 0.03913 0.89133 0.58802 0.0
C2830 C 0.02821 0.86236 0.5898 0.0
C2831 C 0.02227 0.84364 0.57986 0.0
C2832 C 0.03752 0.8859 0.52956 0.0
C2833 C 0.03514 0.87299 0.56013 0.0
C2834 C 0.0426 0.90124 0.5202 0.0
C2835 C 0.05185 0.91897 0.53054 0.0
C2836 C 0.04159 0.88837 0.54941 0.0
C2837 C 0.05644 0.92053 0.55021 0.0
C2838 C 0.03473 0.87699 0.58004 0.0
C2839 C 0.02293 0.84023 0.55993 0.0
N2840 N 0.05111 0.9055 0.55902 0.0
N2841 N 0.0292 0.85478 0.55071 0.0
H2842 H 0.47878 0.76039 0.81713 0.0
H2843 H 0.43471 0.81163 0.74241 0.0
H2844 H 0.51266 0.79243 0.7812 0.0
H2845 H 0.40283 0.76678 0.7668 0.0
H2846 H 0.46364 0.80256 0.75363 0.0
H2847 H 0.45117 0.75979 0.79617 0.0
C2848 C 0.48055 0.76697 0.80462 0.0
C2849 C 0.49815 0.77677 0.80118 0.0
C2850 C 0.45029 0.79444 0.75614 0.0
C2851 C 0.46627 0.77662 0.77734 0.0
C2852 C 0.4338 0.79965 0.74979 0.0
C2853 C 0.41636 0.7901 0.75388 0.0
C2854 C 0.44929 0.77979 0.7669 0.0
C2855 C 0.41595 0.77453 0.76328 0.0
C2856 C 0.46468 0.76671 0.79267 0.0
C2857 C 0.49934 0.78522 0.7848 0.0
N2858 N 0.43217 0.77009 0.76978 0.0
N2859 N 0.48357 0.78525 0.77368 0.0
H2860 H 0.51491 0.15803 0.11944 0.0
H2861 H 0.52355 0.09161 0.02064 0.0
H2862 H 0.51975 0.17837 0.06608 0.0
H2863 H 0.53841 0.07727 0.07519 0.0
H2864 H 0.51763 0.12189 0.03705 0.0
H2865 H 0.51899 0.12662 0.10329 0.0
C2866 C 0.51667 0.1558 0.10429 0.0
C2867 C 0.51705 0.17073 0.09402 0.0
C2868 C 0.52219 0.11213 0.04543 0.0
C2869 C 0.5217 0.13508 0.07559 0.0
C2870 C 0.52552 0.0948 0.03609 0.0
C2871 C 0.53155 0.08192 0.04658 0.0
C2872 C 0.52471 0.11657 0.06542 0.0
C2873 C 0.53389 0.08686 0.06656 0.0
C2874 C 0.51912 0.13797 0.09515 0.0
C2875 C 0.51954 0.16723 0.07449 0.0
N2876 N 0.53041 0.10382 0.07538 0.0
N2877 N 0.52173 0.14974 0.06588 0.0
H2878 H 0.1742 0.32707 0.34247 0.0
H2879 H 0.22762 0.27865 0.25851 0.0
H2880 H 0.14951 0.2758 0.30274 0.0
H2881 H 0.25326 0.32743 0.30105 0.0
H2882 H 0.19734 0.28041 0.27122 0.0
H2883 H 0.20182 0.33012 0.32448 0.0
C2884 C 0.17453 0.31653 0.32987 0.0
C2885 C 0.15963 0.30104 0.32421 0.0
C2886 C 0.20957 0.29087 0.2776 0.0
C2887 C 0.19123 0.30436 0.30361 0.0
C2888 C 0.22683 0.28994 0.27028 0.0
C2889 C 0.24302 0.30272 0.27894 0.0
C2890 C 0.20855 0.30467 0.29366 0.0
C2891 C 0.24117 0.31708 0.29413 0.0
C2892 C 0.19032 0.31825 0.31962 0.0
C2893 C 0.16086 0.28774 0.30784 0.0
N2894 N 0.22429 0.31754 0.30114 0.0
N2895 N 0.17644 0.28965 0.29817 0.0
H2896 H 0.96193 0.01399 0.15511 0.0
H2897 H 0.03348 0.0634 0.08556 0.0
H2898 H 0.99002 0.07271 0.1684 0.0
H2899 H 1.00235 1.00602 0.06989 0.0
H2900 H 0.01864 0.06656 0.11583 0.0
H2901 H 0.97698 0.01051 0.12505 0.0
C2902 C 0.97129 0.02625 0.15204 0.0
C2903 C 0.97434 0.04377 0.16516 0.0
C2904 C 0.01501 0.0532 0.10588 0.0
C2905 C 0.99214 0.03967 0.12936 0.0
C2906 C 0.02364 0.05131 0.08835 0.0
C2907 C 0.01955 0.0343 0.07454 0.0
C2908 C 1.00189 0.03801 0.11034 0.0
C2909 C 0.00632 0.01945 0.07967 0.0
C2910 C 0.97992 0.0242 0.13449 0.0
C2911 C 0.98667 0.05888 0.15925 0.0
N2912 N 0.99818 0.02163 0.09682 0.0
N2913 N 0.99494 0.05647 0.14221 0.0
H2914 H 0.29573 0.70327 0.47092 0.0
H2915 H 0.2888 0.70447 0.35844 0.0
H2916 H 0.30305 0.65608 0.42829 0.0
H2917 H 0.28236 0.75184 0.40131 0.0
H2918 H 0.29476 0.68679 0.38377 0.0
H2919 H 0.29149 0.72147 0.44564 0.0
C2920 C 0.29661 0.69676 0.45626 0.0
C2921 C 0.29977 0.67806 0.45179 0.0
C2922 C 0.29207 0.70106 0.38764 0.0
C2923 C 0.29467 0.69884 0.42263 0.0
C2924 C 0.28877 0.71124 0.37317 0.0
C2925 C 0.28501 0.72971 0.37768 0.0
C2926 C 0.29164 0.70938 0.40684 0.0
C2927 C 0.2849 0.73756 0.39708 0.0
C2928 C 0.29406 0.70715 0.4418 0.0
C2929 C 0.30041 0.67033 0.43245 0.0
N2930 N 0.28813 0.72737 0.41089 0.0
N2931 N 0.29788 0.68073 0.41862 0.0
H2932 H 0.59583 0.00684 0.67285 0.0
H2933 H 0.58964 0.01769 0.56556 0.0
H2934 H 0.62949 0.98144 0.63173 0.0
H2935 H 0.54138 0.02004 0.59782 0.0
H2936 H 0.60444 1.00503 0.59058 0.0
H2937 H 0.57483 0.01117 0.64655 0.0
C2938 C 0.59847 1.00163 0.6583 0.0
C2939 C 0.61456 0.99401 0.65441 0.0
C2940 C 0.59056 0.00817 0.59221 0.0
C2941 C 0.59098 0.99939 0.62447 0.0
C2942 C 0.58217 0.01564 0.57801 0.0
C2943 C 0.56435 0.02017 0.57976 0.0
C2944 C 0.58127 1.00551 0.60853 0.0
C2945 C 0.55521 0.01684 0.59604 0.0
C2946 C 0.58656 1.00423 0.64333 0.0
C2947 C 0.61745 0.98773 0.63533 0.0
N2948 N 0.56391 0.00994 0.61002 0.0
N2949 N 0.60597 0.99087 0.62106 0.0
H2950 H 0.26866 0.33238 0.9226 0.0
H2951 H 0.31962 0.2867 0.83428 0.0
H2952 H 0.32173 0.31461 0.92937 0.0
H2953 H 0.26763 0.30679 0.82847 0.0
H2954 H 0.31992 0.29496 0.86907 0.0
H2955 H 0.26732 0.32121 0.88824 0.0
C2956 C 0.28006 0.32612 0.91689 0.0
C2957 C 0.29542 0.32463 0.92901 0.0
C2958 C 0.30842 0.29749 0.86017 0.0
C2959 C 0.29391 0.31162 0.88937 0.0
C2960 C 0.30822 0.29276 0.84026 0.0
C2961 C 0.29362 0.2961 0.82829 0.0
C2962 C 0.2939 0.30562 0.86827 0.0
C2963 C 0.27925 0.304 0.837 0.0
C2964 C 0.27924 0.31966 0.8972 0.0
C2965 C 0.30955 0.31598 0.92068 0.0
N2966 N 0.27979 0.30851 0.85636 0.0
N2967 N 0.30852 0.30993 0.90141 0.0
H2968 H 0.977 0.08075 0.3814 0.0
H2969 H 0.02076 0.01408 0.44664 0.0
H2970 H 0.97863 0.0218 0.36104 0.0
H2971 H 0.01688 0.0721 0.46835 0.0
H2972 H 1.00611 0.01694 0.41555 0.0
H2973 H 0.99194 0.07823 0.41242 0.0
C2974 C 0.98048 0.06723 0.38313 0.0
C2975 C 0.97615 0.05151 0.36777 0.0
C2976 C 0.00843 0.02912 0.42703 0.0
C2977 C 0.99372 0.04847 0.40458 0.0
C2978 C 0.01694 0.02751 0.44504 0.0
C2979 C 0.02037 0.04283 0.46075 0.0
C2980 C 1.00307 0.04627 0.42406 0.0
C2981 C 0.01475 0.05975 0.45708 0.0
C2982 C 0.98905 0.06579 0.4012 0.0
C2983 C 0.98114 0.03445 0.37195 0.0
N2984 N 0.00657 0.06096 0.43944 0.0
N2985 N 0.98951 0.03348 0.38956 0.0
H2986 H 0.33086 0.70397 0.63063 0.0
H2987 H 0.263 0.74218 0.70662 0.0
H2988 H 0.27095 0.68362 0.62403 0.0
H2989 H 0.32094 0.7682 0.70504 0.0
H2990 H 0.26505 0.72041 0.67672 0.0
H2991 H 0.32709 0.72708 0.65838 0.0
C2992 C 0.31686 0.70439 0.63485 0.0
C2993 C 0.30123 0.69168 0.62473 0.0
C2994 C 0.27723 0.73102 0.68288 0.0
C2995 C 0.29682 0.71822 0.65709 0.0
C2996 C 0.27604 0.74353 0.69991 0.0
C2997 C 0.29181 0.7571 0.70851 0.0
C2998 C 0.29435 0.73199 0.67445 0.0
C2999 C 0.30839 0.758 0.69913 0.0
C3000 C 0.31473 0.71761 0.65085 0.0
C3001 C 0.28351 0.69284 0.63141 0.0
N3002 N 0.30922 0.7456 0.68281 0.0
N3003 N 0.28181 0.70579 0.64714 0.0
H3004 H 0.63374 0.07932 0.82223 0.0
H3005 H 0.59979 0.03144 0.91075 0.0
H3006 H 0.64804 0.02721 0.83482 0.0
H3007 H 0.5823 0.08181 0.89717 0.0
H3008 H 0.61955 0.03128 0.8843 0.0
H3009 H 0.61648 0.08188 0.85075 0.0
C3010 C 0.63327 0.06845 0.83101 0.0
C3011 C 0.64233 0.05303 0.82615 0.0
C3012 C 0.61146 0.04243 0.88712 0.0
C3013 C 0.62276 0.05591 0.85877 0.0
C3014 C 0.60027 0.0426 0.90231 0.0
C3015 C 0.58939 0.05667 0.90617 0.0
C3016 C 0.61177 0.05639 0.87562 0.0
C3017 C 0.5903 0.07057 0.89454 0.0
C3018 C 0.6235 0.06995 0.84731 0.0
C3019 C 0.64149 0.03948 0.83815 0.0
N3020 N 0.60128 0.07006 0.87974 0.0
N3021 N 0.63182 0.04121 0.85385 0.0
H3022 H 0.32041 0.31811 0.12062 0.0
H3023 H 0.28834 0.33796 0.22669 0.0
H3024 H 0.28436 0.35807 0.13678 0.0
H3025 H 0.30522 0.28587 0.20195 0.0
H3026 H 0.29032 0.34835 0.19553 0.0
H3027 H 0.31871 0.30895 0.15213 0.0
C3028 C 0.3122 0.32502 0.13082 0.0
C3029 C 0.30246 0.33883 0.12597 0.0
C3030 C 0.29355 0.33464 0.19699 0.0
C3031 C 0.30054 0.32848 0.16225 0.0
C3032 C 0.29248 0.32874 0.21478 0.0
C3033 C 0.29649 0.31094 0.21698 0.0
C3034 C 0.29905 0.32285 0.18142 0.0
C3035 C 0.30182 0.29961 0.20098 0.0
C3036 C 0.31116 0.31972 0.14879 0.0
C3037 C 0.29193 0.34721 0.13981 0.0
N3038 N 0.30303 0.30578 0.18401 0.0
N3039 N 0.29132 0.34199 0.15732 0.0
H3040 H 0.196 0.0163 0.02039 0.0
H3041 H 0.08376 0.98249 0.01386 0.0
H3042 H 0.16775 0.95762 0.00576 0.0
H3043 H 0.11162 0.04064 0.03422 0.0
H3044 H 0.11436 0.97333 0.01088 0.0
H3045 H 0.16554 0.02566 0.02498 0.0
C3046 C 0.18346 1.00534 0.01803 0.0
C3047 C 0.18472 0.98605 0.0127 0.0
C3048 C 0.11384 0.98809 0.01614 0.0
C3049 C 0.14945 0.9968 0.01811 0.0
C3050 C 0.09627 0.99336 0.01792 0.0
C3051 C 0.09487 0.01243 0.02442 0.0
C3052 C 0.13041 1.00193 0.02068 0.0
C3053 C 0.11182 0.02575 0.0293 0.0
C3054 C 0.16601 0.01072 0.0208 0.0
C3055 C 0.16776 0.97263 0.01014 0.0
N3056 N 0.12876 0.02029 0.02723 0.0
N3057 N 0.151 0.97823 0.0128 0.0
H3058 H 0.67771 0.6442 0.0227 0.0
H3059 H 0.60392 0.54731 0.98397 0.0
H3060 H 0.68608 0.60382 0.97376 0.0
H3061 H 0.59371 0.59286 0.02695 0.0
H3062 H 0.63412 0.56705 0.97996 0.0
H3063 H 0.64711 0.62478 0.02464 0.0
C3064 C 0.67314 0.63118 0.01238 0.0
C3065 C 0.68458 0.62559 0.99812 0.0
C3066 C 0.62519 0.5727 0.9902 0.0
C3067 C 0.64929 0.60319 1.00019 0.0
C3068 C 0.60795 0.56144 0.9925 0.0
C3069 C 0.59623 0.56834 0.0059 0.0
C3070 C 0.63079 0.59094 1.00144 0.0
C3071 C 0.60223 0.58681 0.01652 0.0
C3072 C 0.65557 0.62012 0.01342 0.0
C3073 C 0.6777 0.60873 0.98494 0.0
N3074 N 0.61904 0.59735 0.01412 0.0
N3075 N 0.66055 0.59806 0.98635 0.0
H3076 H 0.74972 0.43432 0.26132 0.0
H3077 H 0.73785 0.32086 0.26681 0.0
H3078 H 0.69731 0.40008 0.27043 0.0
H3079 H 0.79033 0.35496 0.25803 0.0
H3080 H 0.72312 0.34907 0.26794 0.0
H3081 H 0.76431 0.40617 0.25982 0.0
C3082 C 0.74097 0.42108 0.26294 0.0
C3083 C 0.72171 0.42055 0.26603 0.0
C3084 C 0.73786 0.35053 0.26572 0.0
C3085 C 0.7393 0.3868 0.2644 0.0
C3086 C 0.74646 0.33415 0.26502 0.0
C3087 C 0.76574 0.33479 0.26219 0.0
C3088 C 0.74826 0.36846 0.26363 0.0
C3089 C 0.77556 0.3531 0.26016 0.0
C3090 C 0.7496 0.4047 0.26216 0.0
C3091 C 0.71204 0.40216 0.26822 0.0
N3092 N 0.76689 0.36876 0.2609 0.0
N3093 N 0.72074 0.38652 0.26735 0.0
H3094 H 0.88481 0.48941 0.53592 0.0
H3095 H 0.9763 0.51885 0.48155 0.0
H3096 H 0.88275 0.49207 0.47588 0.0
H3097 H 0.97922 0.50127 0.53637 0.0
H3098 H 0.94209 0.51196 0.48044 0.0
H3099 H 0.9192 0.49677 0.53759 0.0
C3100 C 0.89154 0.49172 0.52311 0.0
C3101 C 0.88073 0.4901 0.50572 0.0
C3102 C 0.95018 0.50957 0.49271 0.0
C3103 C 0.9203 0.49851 0.50755 0.0
C3104 C 0.96979 0.51355 0.4934 0.0
C3105 C 0.98083 0.51062 0.50907 0.0
C3106 C 0.94129 0.5028 0.50792 0.0
C3107 C 0.97139 0.50366 0.52393 0.0
C3108 C 0.91122 0.49577 0.52406 0.0
C3109 C 0.8904 0.49299 0.48957 0.0
N3110 N 0.95224 0.5001 0.52303 0.0
N3111 N 0.90952 0.49711 0.49091 0.0
H3112 H 0.34102 0.12008 0.32008 0.0
H3113 H 0.28054 0.14713 0.23512 0.0
H3114 H 0.33979 0.09414 0.26089 0.0
H3115 H 0.29305 0.18174 0.2914 0.0
H3116 H 0.29764 0.12407 0.24565 0.0
H3117 H 0.31895 0.13952 0.31096 0.0
C3118 C 0.33603 0.11846 0.30519 0.0
C3119 C 0.34237 0.10573 0.29117 0.0
C3120 C 0.29645 0.13663 0.25572 0.0
C3121 C 0.31715 0.12771 0.28067 0.0
C3122 C 0.28672 0.1498 0.24972 0.0
C3123 C 0.28549 0.16649 0.26233 0.0
C3124 C 0.30495 0.14016 0.27446 0.0
C3125 C 0.29346 0.16902 0.28121 0.0
C3126 C 0.32349 0.12954 0.29999 0.0
C3127 C 0.33551 0.10411 0.27207 0.0
N3128 N 0.30298 0.15607 0.28665 0.0
N3129 N 0.32328 0.11501 0.26736 0.0
H3130 H 0.37383 0.15593 0.54201 0.0
H3131 H 0.42541 0.06958 0.50589 0.0
H3132 H 0.35552 0.11541 0.48988 0.0
H3133 H 0.43735 0.10468 0.56188 0.0
H3134 H 0.40142 0.08765 0.4986 0.0
H3135 H 0.39864 0.13869 0.54836 0.0
C3136 C 0.37493 0.14335 0.53191 0.0
C3137 C 0.36235 0.13706 0.51545 0.0
C3138 C 0.40929 0.0914 0.51248 0.0
C3139 C 0.3911 0.11733 0.52256 0.0
C3140 C 0.42308 0.08117 0.51662 0.0
C3141 C 0.43343 0.08559 0.53455 0.0
C3142 C 0.40586 0.10629 0.52631 0.0
C3143 C 0.42959 0.1006 0.54796 0.0
C3144 C 0.3892 0.13355 0.53552 0.0
C3145 C 0.36491 0.12092 0.50268 0.0
N3146 N 0.41616 0.11041 0.54356 0.0
N3147 N 0.37894 0.11161 0.50653 0.0
H3148 H 0.75133 0.62628 0.29075 0.0
H3149 H 0.7419 0.72536 0.25524 0.0
H3150 H 0.70427 0.632 0.25425 0.0
H3151 H 0.79289 0.71698 0.28329 0.0
H3152 H 0.72748 0.69222 0.25633 0.0
H3153 H 0.76581 0.65944 0.28988 0.0
C3154 C 0.74384 0.63435 0.2826 0.0
C3155 C 0.72626 0.62562 0.27254 0.0
C3156 C 0.74182 0.69755 0.26229 0.0
C3157 C 0.74329 0.6647 0.27149 0.0
C3158 C 0.75017 0.7167 0.26171 0.0
C3159 C 0.7689 0.72454 0.26916 0.0
C3160 C 0.75196 0.6856 0.27059 0.0
C3161 C 0.77852 0.71201 0.27728 0.0
C3162 C 0.75231 0.65349 0.28203 0.0
C3163 C 0.71782 0.63746 0.26212 0.0
N3164 N 0.77004 0.69351 0.27782 0.0
N3165 N 0.72624 0.65605 0.26197 0.0
H3166 H 0.82515 0.43493 0.83009 0.0
H3167 H 0.79562 0.34504 0.74875 0.0
H3168 H 0.81483 0.43802 0.77056 0.0
H3169 H 0.78766 0.34158 0.80766 0.0
H3170 H 0.80116 0.37958 0.75695 0.0
H3171 H 0.80985 0.40128 0.82305 0.0
C3172 C 0.8194 0.42863 0.81563 0.0
C3173 C 0.82144 0.43926 0.80086 0.0
C3174 C 0.79797 0.37134 0.7681 0.0
C3175 C 0.80407 0.40094 0.79275 0.0
C3176 C 0.79493 0.35163 0.76343 0.0
C3177 C 0.79144 0.34057 0.77763 0.0
C3178 C 0.79796 0.3801 0.7872 0.0
C3179 C 0.79039 0.34972 0.79636 0.0
C3180 C 0.8106 0.40949 0.81165 0.0
C3181 C 0.81352 0.43048 0.78244 0.0
N3182 N 0.794 0.36907 0.80072 0.0
N3183 N 0.80545 0.41179 0.77887 0.0
H3184 H 0.03839 0.83403 0.03873 0.0
H3185 H 0.06526 0.91031 0.97243 0.0
H3186 H 0.09529 0.85955 0.03196 0.0
H3187 H 0.00967 0.89085 0.98849 0.0
H3188 H 0.07583 0.88447 0.98538 0.0
H3189 H 0.0275 0.84744 0.01204 0.0
C3190 C 0.0486 0.84242 0.03151 0.0
C3191 C 0.06769 0.84618 0.03783 0.0
C3192 C 0.06121 0.88564 0.98557 0.0
C3193 C 0.05535 0.86167 0.00731 0.0
C3194 C 0.05515 0.90042 0.97824 0.0
C3195 C 0.03669 0.90337 0.98006 0.0
C3196 C 0.04866 0.87365 0.99455 0.0
C3197 C 0.02408 0.88952 0.98693 0.0
C3198 C 0.0424 0.84997 0.01619 0.0
C3199 C 0.08041 0.85663 0.02766 0.0
N3200 N 0.0304 0.87555 0.99428 0.0
N3201 N 0.07397 0.86438 0.01308 0.0
H3202 H 0.91355 0.30946 0.86742 0.0
H3203 H 0.85564 0.27658 0.76506 0.0
H3204 H 0.93802 0.2862 0.81723 0.0
H3205 H 0.8325 0.29624 0.81758 0.0
H3206 H 0.88646 0.28158 0.78288 0.0
H3207 H 0.88428 0.30683 0.84818 0.0
C3208 C 0.91269 0.30378 0.85228 0.0
C3209 C 0.92804 0.29778 0.84389 0.0
C3210 C 0.87459 0.2848 0.79041 0.0
C3211 C 0.89459 0.29469 0.8217 0.0
C3212 C 0.85702 0.28192 0.78029 0.0
C3213 C 0.84147 0.28596 0.78985 0.0
C3214 C 0.87651 0.29179 0.81015 0.0
C3215 C 0.84404 0.29289 0.80957 0.0
C3216 C 0.896 0.3023 0.84128 0.0
C3217 C 0.92641 0.29093 0.82417 0.0
N3218 N 0.8612 0.29557 0.81902 0.0
N3219 N 0.90984 0.2894 0.81369 0.0
H3220 H 0.59973 0.19328 0.56181 0.0
H3221 H 0.52969 0.09559 0.55453 0.0
H3222 H 0.53978 0.18862 0.56188 0.0
H3223 H 0.58206 0.09785 0.52859 0.0
H3224 H 0.53463 0.13013 0.55981 0.0
H3225 H 0.59502 0.15862 0.5514 0.0
C3226 C 0.5856 0.18497 0.55943 0.0
C3227 C 0.57011 0.19373 0.56274 0.0
C3228 C 0.54502 0.1231 0.55289 0.0
C3229 C 0.5647 0.15443 0.55116 0.0
C3230 C 0.54231 0.1034 0.55003 0.0
C3231 C 0.55559 0.09392 0.54126 0.0
C3232 C 0.56129 0.13347 0.54724 0.0
C3233 C 0.57153 0.10471 0.53544 0.0
C3234 C 0.58294 0.1653 0.55343 0.0
C3235 C 0.55209 0.18244 0.55935 0.0
N3236 N 0.57408 0.12404 0.53873 0.0
N3237 N 0.5499 0.16334 0.55397 0.0
H3238 H 0.61843 0.83295 0.37235 0.0
H3239 H 0.67279 0.76672 0.30358 0.0
H3240 H 0.59894 0.77252 0.35354 0.0
H3241 H 0.68586 0.82811 0.31337 0.0
H3242 H 0.64788 0.76824 0.3251 0.0
H3243 H 0.64556 0.8311 0.35391 0.0
C3244 C 0.61988 0.8193 0.36441 0.0
C3245 C 0.60636 0.80289 0.36443 0.0
C3246 C 0.65621 0.78138 0.32255 0.0
C3247 C 0.63736 0.80065 0.34345 0.0
C3248 C 0.67044 0.7805 0.31034 0.0
C3249 C 0.68125 0.79731 0.30662 0.0
C3250 C 0.65288 0.79919 0.33116 0.0
C3251 C 0.67761 0.81482 0.31564 0.0
C3252 C 0.63538 0.81824 0.35393 0.0
C3253 C 0.60912 0.7855 0.35414 0.0
N3254 N 0.66371 0.81531 0.3275 0.0
N3255 N 0.62427 0.78486 0.34399 0.0
H3256 H 0.07324 0.23308 0.46047 0.0
H3257 H 0.01166 0.13904 0.48563 0.0
H3258 H 0.03125 0.19397 0.42079 0.0
H3259 H 0.06168 0.17042 0.51999 0.0
H3260 H 0.01625 0.16156 0.46364 0.0
H3261 H 0.06738 0.21222 0.48394 0.0
C3262 C 0.0629 0.22005 0.4566 0.0
C3263 C 0.05277 0.21527 0.43855 0.0
C3264 C 0.02617 0.16359 0.47605 0.0
C3265 C 0.04571 0.19156 0.46556 0.0
C3266 C 0.02345 0.15086 0.48871 0.0
C3267 C 0.03632 0.15288 0.50466 0.0
C3268 C 0.04184 0.17851 0.47936 0.0
C3269 C 0.05153 0.16827 0.50776 0.0
C3270 C 0.05946 0.20823 0.47008 0.0
C3271 C 0.03923 0.19839 0.43458 0.0
N3272 N 0.0539 0.18049 0.4952 0.0
N3273 N 0.0361 0.18717 0.44797 0.0
H3274 H 0.57529 0.25182 0.23886 0.0
H3275 H 0.681 0.29769 0.27145 0.0
H3276 H 0.60096 0.30831 0.23185 0.0
H3277 H 0.65356 0.24403 0.28449 0.0
H3278 H 0.65051 0.30468 0.2629 0.0
H3279 H 0.60202 0.25125 0.26086 0.0
C3280 C 0.58648 0.26421 0.24221 0.0
C3281 C 0.58614 0.27999 0.23331 0.0
C3282 C 0.6511 0.29153 0.26799 0.0
C3283 C 0.61684 0.27942 0.25829 0.0
C3284 C 0.66856 0.28757 0.27305 0.0
C3285 C 0.6699 0.27003 0.27834 0.0
C3286 C 0.63487 0.27776 0.26797 0.0
C3287 C 0.65322 0.25748 0.27996 0.0
C3288 C 0.6017 0.26393 0.25481 0.0
C3289 C 0.60077 0.29583 0.23836 0.0
N3290 N 0.63642 0.26143 0.27443 0.0
N3291 N 0.61573 0.295 0.25025 0.0
H3292 H 0.58535 0.90737 0.921 0.0
H3293 H 0.54076 0.96217 0.0085 0.0
H3294 H 0.56137 0.88098 0.9663 0.0
H3295 H 0.56651 0.98991 0.96479 0.0
H3296 H 0.54872 0.93243 0.99328 0.0
H3297 H 0.57965 0.938 0.93721 0.0
C3298 C 0.57911 0.90808 0.93448 0.0
C3299 C 0.57375 0.89161 0.94229 0.0
C3300 C 0.55265 0.945 0.98699 0.0
C3301 C 0.56692 0.92648 0.96071 0.0
C3302 C 0.54805 0.96201 0.99565 0.0
C3303 C 0.55292 0.97857 0.98787 0.0
C3304 C 0.56217 0.94447 0.97038 0.0
C3305 C 0.56243 0.97748 0.97125 0.0
C3306 C 0.57573 0.92553 0.94364 0.0
C3307 C 0.56547 0.89328 0.95964 0.0
N3308 N 0.56673 0.96069 0.96303 0.0
N3309 N 0.56224 0.91038 0.96822 0.0
H3310 H 0.92818 0.78311 0.70268 0.0
H3311 H 0.83089 0.7367 0.73498 0.0
H3312 H 0.9032 0.72409 0.68251 0.0
H3313 H 0.86449 0.79025 0.76344 0.0
H3314 H 0.85772 0.73009 0.7174 0.0
H3315 H 0.9052 0.78498 0.72612 0.0
C3316 C 0.91775 0.77055 0.7032 0.0
C3317 C 0.91733 0.75352 0.69053 0.0
C3318 C 0.8593 0.74309 0.72779 0.0
C3319 C 0.89101 0.75544 0.71738 0.0
C3320 C 0.84404 0.7468 0.7379 0.0
C3321 C 0.84542 0.7642 0.75039 0.0
C3322 C 0.87585 0.75694 0.73022 0.0
C3323 C 0.86273 0.77683 0.75365 0.0
C3324 C 0.90475 0.77154 0.7167 0.0
C3325 C 0.90384 0.73751 0.69202 0.0
N3326 N 0.87716 0.77307 0.74342 0.0
N3327 N 0.89099 0.73891 0.70508 0.0
H3328 H 0.0949 0.99357 0.86343 0.0
H3329 H 0.08089 0.05883 0.96472 0.0
H3330 H 0.12491 0.05124 0.88182 0.0
H3331 H 0.0536 1.00018 0.94791 0.0
H3332 H 0.0962 0.0566 0.93461 0.0
H3333 H 0.07963 0.99591 0.8933 0.0
C3334 C 0.09858 0.00679 0.87352 0.0
C3335 C 0.11175 0.02216 0.86916 0.0
C3336 C 0.08683 0.04417 0.93737 0.0
C3337 C 0.09327 0.02502 0.90471 0.0
C3338 C 0.07791 0.04544 0.95479 0.0
C3339 C 0.06553 0.02973 0.95947 0.0
C3340 C 0.08367 0.02701 0.92386 0.0
C3341 C 0.06277 0.01286 0.94543 0.0
C3342 C 0.08955 0.00812 0.89087 0.0
C3343 C 0.11498 0.03882 0.88362 0.0
N3344 N 0.07158 0.01201 0.92865 0.0
N3345 N 0.106 0.03972 0.90029 0.0
H3346 H 0.8133 0.38958 0.57656 0.0
H3347 H 0.77198 0.3389 0.66087 0.0
H3348 H 0.75819 0.39208 0.59508 0.0
H3349 H 0.82874 0.34117 0.64544 0.0
H3350 H 0.76649 0.35814 0.63682 0.0
H3351 H 0.81899 0.37157 0.60154 0.0
C3352 C 0.80243 0.3865 0.58598 0.0
C3353 C 0.78525 0.39248 0.58372 0.0
C3354 C 0.78016 0.35446 0.63872 0.0
C3355 C 0.79161 0.37149 0.61229 0.0
C3356 C 0.78335 0.34356 0.65255 0.0
C3357 C 0.80087 0.33835 0.65523 0.0
C3358 C 0.79456 0.36021 0.62741 0.0
C3359 C 0.81494 0.34456 0.64373 0.0
C3360 C 0.80566 0.37609 0.6002 0.0
C3361 C 0.77157 0.38762 0.59613 0.0
N3362 N 0.81147 0.35512 0.63035 0.0
N3363 N 0.77504 0.37743 0.60986 0.0
H3364 H 0.49049 0.03458 0.37753 0.0
H3365 H 0.4998 0.06161 0.49137 0.0
H3366 H 0.44919 0.05776 0.41042 0.0
H3367 H 0.53407 0.02664 0.46006 0.0
H3368 H 0.48416 0.06468 0.46132 0.0
H3369 H 0.50949 0.03575 0.40724 0.0
C3370 C 0.48543 0.03995 0.39097 0.0
C3371 C 0.46812 0.04595 0.39146 0.0
C3372 C 0.49514 0.05638 0.46101 0.0
C3373 C 0.48991 0.04754 0.42542 0.0
C3374 C 0.50407 0.05458 0.47818 0.0
C3375 C 0.51809 0.0436 0.47827 0.0
C3376 C 0.50027 0.0472 0.44374 0.0
C3377 C 0.52324 0.03511 0.46068 0.0
C3378 C 0.49632 0.04068 0.40789 0.0
C3379 C 0.46249 0.05317 0.40928 0.0
N3380 N 0.51424 0.03701 0.44409 0.0
N3381 N 0.47331 0.05368 0.42553 0.0
H3382 H 0.7589 0.74197 0.10522 0.0
H3383 H 0.82406 0.76542 0.20353 0.0
H3384 H 0.81889 0.74661 0.10717 0.0
H3385 H 0.76821 0.77745 0.19884 0.0
H3386 H 0.82221 0.75661 0.16862 0.0
H3387 H 0.7617 0.75301 0.13982 0.0
C3388 C 0.77268 0.74535 0.11293 0.0
C3389 C 0.78868 0.74335 0.10324 0.0
C3390 C 0.81041 0.76128 0.17525 0.0
C3391 C 0.79199 0.75589 0.143 0.0
C3392 C 0.81143 0.76627 0.1952 0.0
C3393 C 0.79627 0.77221 0.20424 0.0
C3394 C 0.794 0.76193 0.16421 0.0
C3395 C 0.78029 0.77304 0.1926 0.0
C3396 C 0.77428 0.75172 0.13269 0.0
C3397 C 0.80619 0.74809 0.114 0.0
N3398 N 0.77954 0.76784 0.17328 0.0
N3399 N 0.80737 0.75397 0.1333 0.0
H3400 H 0.12321 0.99696 0.65039 0.0
H3401 H 0.05759 0.05244 0.59203 0.0
H3402 H 0.0989 0.04321 0.67787 0.0
H3403 H 0.08389 0.00788 0.56444 0.0
H3404 H 0.0719 0.04896 0.62312 0.0
H3405 H 0.10863 1.00026 0.61954 0.0
C3406 C 0.11478 0.00778 0.65025 0.0
C3407 C 0.11264 0.01974 0.66758 0.0
C3408 C 0.0746 0.03989 0.61032 0.0
C3409 C 0.09548 0.02378 0.63094 0.0
C3410 C 0.06631 0.04187 0.59232 0.0
C3411 C 0.06928 0.03052 0.57498 0.0
C3412 C 0.08616 0.02634 0.61159 0.0
C3413 C 0.08096 0.01712 0.57701 0.0
C3414 C 0.10643 0.00974 0.63228 0.0
C3415 C 0.10151 0.03362 0.66542 0.0
N3416 N 0.08878 0.01546 0.59463 0.0
N3417 N 0.09351 0.03516 0.64783 0.0
H3418 H 0.75547 0.35129 0.41027 0.0
H3419 H 0.81746 0.33393 0.32191 0.0
H3420 H 0.79814 0.39487 0.39596 0.0
H3421 H 0.76561 0.29625 0.32704 0.0
H3422 H 0.81269 0.35466 0.35119 0.0
H3423 H 0.76078 0.32952 0.38179 0.0
C3424 C 0.76596 0.35629 0.40115 0.0
C3425 C 0.77635 0.37499 0.40554 0.0
C3426 C 0.80241 0.3418 0.34597 0.0
C3427 C 0.78261 0.35003 0.37293 0.0
C3428 C 0.80518 0.32983 0.32929 0.0
C3429 C 0.79194 0.31321 0.3219 0.0
C3430 C 0.78633 0.33715 0.35554 0.0
C3431 C 0.77624 0.30886 0.33214 0.0
C3432 C 0.76895 0.34386 0.38485 0.0
C3433 C 0.78966 0.38069 0.39306 0.0
N3434 N 0.77387 0.32073 0.3484 0.0
N3435 N 0.79247 0.36826 0.37743 0.0
H3436 H 0.47647 0.01024 0.22959 0.0
H3437 H 0.47694 0.01209 0.11847 0.0
H3438 H 0.42682 0.01078 0.19389 0.0
H3439 H 0.52129 0.99567 0.15092 0.0
H3440 H 0.45852 0.01222 0.146 0.0
H3441 H 0.4935 1.00567 0.20108 0.0
C3442 C 0.46917 0.00934 0.21571 0.0
C3443 C 0.45028 0.011 0.21404 0.0
C3444 C 0.47223 0.00846 0.14704 0.0
C3445 C 0.4696 1.00583 0.18144 0.0
C3446 C 0.48275 0.00829 0.13129 0.0
C3447 C 0.50076 1.00392 0.13236 0.0
C3448 C 0.47984 1.00445 0.16408 0.0
C3449 C 0.50764 0.99948 0.14953 0.0
C3450 C 0.47884 1.00663 0.19946 0.0
C3451 C 0.44136 0.00949 0.19575 0.0
N3452 N 0.49722 0.99999 0.16475 0.0
N3453 N 0.45116 0.00717 0.18014 0.0
H3454 H 0.76213 0.71892 0.89563 0.0
H3455 H 0.82361 0.7818 0.83039 0.0
H3456 H 0.81809 0.75053 0.91389 0.0
H3457 H 0.77036 0.74489 0.81033 0.0
H3458 H 0.82162 0.77126 0.86124 0.0
H3459 H 0.76451 0.72928 0.86479 0.0
C3460 C 0.77489 0.72816 0.89325 0.0
C3461 C 0.78991 0.73386 0.90754 0.0
C3462 C 0.81039 0.76543 0.85008 0.0
C3463 C 0.79281 0.7457 0.87192 0.0
C3464 C 0.81152 0.77145 0.8324 0.0
C3465 C 0.79713 0.76428 0.81762 0.0
C3466 C 0.79471 0.75219 0.85314 0.0
C3467 C 0.78182 0.75087 0.82121 0.0
C3468 C 0.77629 0.73397 0.87553 0.0
C3469 C 0.8062 0.74559 0.90334 0.0
N3470 N 0.781 0.74534 0.83855 0.0
N3471 N 0.80718 0.75114 0.886 0.0
H3472 H 0.91623 0.10913 0.01626 0.0
H3473 H 0.97274 0.02276 0.0056 0.0
H3474 H 0.89125 0.05126 0.01915 0.0
H3475 H 1.00072 0.08147 0.01308 0.0
H3476 H 0.94271 0.03303 0.00783 0.0
H3477 H 0.94666 0.09944 0.01272 0.0
C3478 C 0.91702 0.09435 0.01605 0.0
C3479 C 0.90085 0.08105 0.01801 0.0
C3480 C 0.95536 0.04372 0.0089 0.0
C3481 C 0.93611 0.06979 0.01393 0.0
C3482 C 0.97267 0.03786 0.00751 0.0
C3483 C 0.9896 0.05119 0.00908 0.0
C3484 C 0.95459 0.06319 0.01181 0.0
C3485 C 0.9882 0.07057 0.01168 0.0
C3486 C 0.93453 0.08886 0.01412 0.0
C3487 C 0.90315 0.06216 0.0179 0.0
N3488 N 0.97111 0.07594 0.01296 0.0
N3489 N 0.92027 0.05715 0.01582 0.0
H3490 H 0.39496 0.46323 0.01965 0.0
H3491 H 0.50607 0.47829 0.03702 0.0
H3492 H 0.42172 0.42859 0.0519 0.0
H3493 H 0.47714 0.52254 0.02496 0.0
H3494 H 0.47576 0.45851 0.04044 0.0
H3495 H 0.4254 0.48378 0.01912 0.0
C3496 C 0.40728 0.45997 0.02663 0.0
C3497 C 0.40584 0.44417 0.0358 0.0
C3498 C 0.47611 0.47261 0.03718 0.0
C3499 C 0.44079 0.46757 0.03514 0.0
C3500 C 0.49339 0.48389 0.03518 0.0
C3501 C 0.49418 0.50212 0.03067 0.0
C3502 C 0.45951 0.47948 0.03434 0.0
C3503 C 0.47727 0.50862 0.02848 0.0
C3504 C 0.42463 0.47175 0.0264 0.0
C3505 C 0.42223 0.4407 0.04477 0.0
N3506 N 0.46066 0.49726 0.03016 0.0
N3507 N 0.43908 0.4522 0.04406 0.0
H3508 H 0.39434 0.67168 0.77237 0.0
H3509 H 0.2978 0.7148 0.76833 0.0
H3510 H 0.33926 0.63635 0.76482 0.0
H3511 H 0.35251 0.75014 0.77212 0.0
H3512 H 0.31258 0.68673 0.76781 0.0
H3513 H 0.37981 0.69985 0.77315 0.0
C3514 C 0.3792 0.66949 0.77097 0.0
C3515 C 0.36847 0.65065 0.76854 0.0
C3516 C 0.3215 0.70056 0.76881 0.0
C3517 C 0.35107 0.68443 0.76936 0.0
C3518 C 0.31295 0.71692 0.76916 0.0
C3519 C 0.32354 0.73562 0.7704 0.0
C3520 C 0.34124 0.70217 0.76974 0.0
C3521 C 0.34331 0.73649 0.77127 0.0
C3522 C 0.37079 0.68597 0.77132 0.0
C3523 C 0.3487 0.64994 0.76655 0.0
N3524 N 0.35126 0.72039 0.77096 0.0
N3525 N 0.34093 0.66615 0.76706 0.0
H3526 H 0.20028 0.56128 0.55049 0.0
H3527 H 0.10317 0.54484 0.48477 0.0
H3528 H 0.19681 0.57439 0.49367 0.0
H3529 H 0.1064 0.53852 0.54392 0.0
H3530 H 0.13741 0.55417 0.48717 0.0
H3531 H 0.16617 0.55155 0.54778 0.0
C3532 C 0.19245 0.56221 0.53744 0.0
C3533 C 0.20175 0.5688 0.52232 0.0
C3534 C 0.13064 0.55074 0.49963 0.0
C3535 C 0.16224 0.5573 0.51903 0.0
C3536 C 0.11102 0.54536 0.49827 0.0
C3537 C 0.10169 0.54084 0.51416 0.0
C3538 C 0.14122 0.55155 0.51699 0.0
C3539 C 0.11282 0.54188 0.53126 0.0
C3540 C 0.17286 0.55653 0.53588 0.0
C3541 C 0.19054 0.5692 0.50566 0.0
N3542 N 0.13187 0.54706 0.53219 0.0
N3543 N 0.17151 0.56359 0.5045 0.0
H3544 H 0.77736 0.97549 0.73786 0.0
H3545 H 0.8088 0.91669 0.81441 0.0
H3546 H 0.75623 0.97645 0.79333 0.0
H3547 H 0.82979 0.91503 0.75882 0.0
H3548 H 0.79434 0.94345 0.80937 0.0
H3549 H 0.80066 0.95761 0.74728 0.0
C3550 C 0.77768 0.97198 0.75204 0.0
C3551 C 0.76468 0.97719 0.76473 0.0
C3552 C 0.80237 0.93745 0.79839 0.0
C3553 C 0.79135 0.95691 0.77567 0.0
C3554 C 0.81079 0.92227 0.80134 0.0
C3555 C 0.82024 0.91342 0.78686 0.0
C3556 C 0.80328 0.9437 0.78079 0.0
C3557 C 0.82223 0.92118 0.77016 0.0
C3558 C 0.79107 0.96192 0.75747 0.0
C3559 C 0.766 0.97271 0.7831 0.0
N3560 N 0.81355 0.93569 0.76744 0.0
N3561 N 0.77895 0.96262 0.78794 0.0
H3562 H 0.72426 0.94279 0.55775 0.0
H3563 H 0.65721 0.98158 0.48669 0.0
H3564 H 0.72734 0.93567 0.49675 0.0
H3565 H 0.65325 0.98899 0.54756 0.0
H3566 H 0.68272 0.96444 0.49029 0.0
H3567 H 0.69794 0.95916 0.55447 0.0
C3568 C 0.71937 0.94457 0.54366 0.0
C3569 C 0.72815 0.93787 0.52752 0.0
C3570 C 0.67629 0.96978 0.50288 0.0
C3571 C 0.69806 0.95678 0.52369 0.0
C3572 C 0.66176 0.9797 0.50085 0.0
C3573 C 0.65309 0.9869 0.51686 0.0
C3574 C 0.68233 0.96698 0.52108 0.0
C3575 C 0.65938 0.98359 0.53479 0.0
C3576 C 0.70439 0.95401 0.54181 0.0
C3577 C 0.72129 0.94084 0.50966 0.0
N3578 N 0.67364 0.97395 0.53642 0.0
N3579 N 0.70671 0.95004 0.50825 0.0
H3580 H 0.33448 0.44892 0.76505 0.0
H3581 H 0.34953 0.34079 0.76678 0.0
H3582 H 0.38822 0.43237 0.76034 0.0
H3583 H 0.29493 0.35533 0.76129 0.0
H3584 H 0.36387 0.37408 0.76609 0.0
H3585 H 0.32017 0.41564 0.76551 0.0
C3586 C 0.34345 0.43849 0.76421 0.0
C3587 C 0.36289 0.44415 0.76262 0.0
C3588 C 0.34874 0.37007 0.76502 0.0
C3589 C 0.34606 0.40491 0.76316 0.0
C3590 C 0.34043 0.35086 0.76544 0.0
C3591 C 0.32074 0.34467 0.76406 0.0
C3592 C 0.33752 0.38384 0.76344 0.0
C3593 C 0.31008 0.35895 0.76234 0.0
C3594 C 0.33511 0.41922 0.76436 0.0
C3595 C 0.37325 0.42923 0.76135 0.0
N3596 N 0.31849 0.37754 0.76217 0.0
N3597 N 0.36485 0.41069 0.76174 0.0
H3598 H 0.2556 0.6219 0.20333 0.0
H3599 H 0.29361 0.71705 0.2784 0.0
H3600 H 0.26929 0.62472 0.26363 0.0
H3601 H 0.27288 0.71619 0.22023 0.0
H3602 H 0.29172 0.68283 0.27098 0.0
H3603 H 0.26931 0.65577 0.20707 0.0
C3604 C 0.26183 0.62949 0.21725 0.0
C3605 C 0.26082 0.62049 0.23327 0.0
C3606 C 0.2877 0.69011 0.25977 0.0
C3607 C 0.27654 0.65912 0.23759 0.0
C3608 C 0.28866 0.70967 0.26403 0.0
C3609 C 0.28299 0.71943 0.25001 0.0
C3610 C 0.28085 0.68015 0.24141 0.0
C3611 C 0.27711 0.70915 0.23154 0.0
C3612 C 0.26964 0.64881 0.21936 0.0
C3613 C 0.26962 0.63092 0.25083 0.0
N3614 N 0.27595 0.68998 0.22783 0.0
N3615 N 0.2768 0.64973 0.25257 0.0
H3616 H 0.51116 0.68977 0.42177 0.0
H3617 H 0.54241 0.66425 0.52167 0.0
H3618 H 0.51332 0.7288 0.475 0.0
H3619 H 0.55838 0.63854 0.46746 0.0
H3620 H 0.5281 0.68607 0.50546 0.0
H3621 H 0.52356 0.66775 0.43911 0.0
C3622 C 0.51408 0.69362 0.43713 0.0
C3623 C 0.51143 0.71122 0.44694 0.0
C3624 C 0.53482 0.67567 0.49719 0.0
C3625 C 0.5256 0.68615 0.46681 0.0
C3626 C 0.54315 0.66337 0.50643 0.0
C3627 C 0.55149 0.64948 0.49586 0.0
C3628 C 0.53472 0.6739 0.47728 0.0
C3629 C 0.55179 0.64878 0.4761 0.0
C3630 C 0.5212 0.68109 0.44699 0.0
C3631 C 0.51507 0.71533 0.46689 0.0
N3632 N 0.54339 0.66072 0.46743 0.0
N3633 N 0.52212 0.70291 0.4762 0.0
H3634 H 0.6758 0.31598 0.6679 0.0
H3635 H 0.71879 0.27716 0.75555 0.0
H3636 H 0.64244 0.29783 0.71215 0.0
H3637 H 0.75145 0.30464 0.7156 0.0
H3638 H 0.69045 0.28428 0.74026 0.0
H3639 H 0.70369 0.31232 0.68601 0.0
C3640 C 0.67434 0.31157 0.68161 0.0
C3641 C 0.65668 0.30721 0.68846 0.0
C3642 C 0.70388 0.28879 0.73497 0.0
C3643 C 0.68869 0.30237 0.70911 0.0
C3644 C 0.72002 0.28465 0.74361 0.0
C3645 C 0.73751 0.2902 0.7368 0.0
C3646 C 0.70534 0.29843 0.71941 0.0
C3647 C 0.73831 0.29999 0.72136 0.0
C3648 C 0.69031 0.30928 0.69189 0.0
C3649 C 0.65573 0.30107 0.70615 0.0
N3650 N 0.72248 0.30371 0.71319 0.0
N3651 N 0.67151 0.29868 0.71581 0.0
H3652 H 0.98592 0.38207 0.99941 0.0
H3653 H 0.06253 0.47414 0.02002 0.0
H3654 H 0.04527 0.38197 1.00323 0.0
H3655 H 1.00497 0.47462 0.03116 0.0
H3656 H 0.05687 0.43996 0.0193 0.0
H3657 H 0.99242 0.4148 0.01691 0.0
C3658 C 1.00028 0.38878 1.00439 0.0
C3659 C 0.01512 0.37952 0.99943 0.0
C3660 C 0.04549 0.4475 0.02221 0.0
C3661 C 0.02267 0.41689 0.01917 0.0
C3662 C 0.0487 0.46699 0.02244 0.0
C3663 C 0.03404 0.477 0.02517 0.0
C3664 C 0.02736 0.43787 0.02419 0.0
C3665 C 0.01653 0.46725 0.02874 0.0
C3666 C 1.00398 0.40744 0.01441 0.0
C3667 C 0.03341 0.38864 0.00657 0.0
N3668 N 0.01353 0.44807 0.02771 0.0
N3669 N 0.0367 0.407 0.01568 0.0
H3670 H 1.00497 0.80257 0.19526 0.0
H3671 H 0.89941 0.75387 0.20399 0.0
H3672 H 0.96794 0.77059 0.14673 0.0
H3673 H 0.93067 0.79994 0.2463 0.0
H3674 H 0.92551 0.75725 0.1838 0.0
H3675 H 0.97879 0.79958 0.21512 0.0
C3676 C 0.99131 0.79509 0.18869 0.0
C3677 C 0.98867 0.7869 0.16921 0.0
C3678 C 0.92663 0.76664 0.19749 0.0
C3679 C 0.95874 0.78305 0.19206 0.0
C3680 C 0.91184 0.76462 0.20905 0.0
C3681 C 0.91297 0.77664 0.22681 0.0
C3682 C 0.94273 0.78062 0.20387 0.0
C3683 C 0.92924 0.7905 0.23263 0.0
C3684 C 0.9764 0.79329 0.2001 0.0
C3685 C 0.97072 0.77693 0.1617 0.0
N3686 N 0.94355 0.79205 0.22121 0.0
N3687 N 0.95644 0.77523 0.17315 0.0
H3688 H 0.53458 0.32715 0.06261 0.0
H3689 H 0.57001 0.43825 0.06476 0.0
H3690 H 0.54189 0.36989 0.11383 0.0
H3691 H 0.54655 0.39895 0.01318 0.0
H3692 H 0.56444 0.41222 0.08264 0.0
H3693 H 0.54303 0.35235 0.044 0.0
C3694 C 0.53787 0.3418 0.06997 0.0
C3695 C 0.53744 0.34635 0.08988 0.0
C3696 C 0.56057 0.40928 0.06739 0.0
C3697 C 0.54752 0.37519 0.06864 0.0
C3698 C 0.5637 0.42414 0.05717 0.0
C3699 C 0.55849 0.42086 0.03746 0.0
C3700 C 0.55228 0.39091 0.05787 0.0
C3701 C 0.55085 0.40214 0.02833 0.0
C3702 C 0.54281 0.35615 0.05932 0.0
C3703 C 0.54227 0.3656 0.0986 0.0
N3704 N 0.54787 0.38787 0.03864 0.0
N3705 N 0.5471 0.37927 0.08794 0.0
H3706 H 0.01306 0.30205 0.28215 0.0
H3707 H 0.90914 0.2669 0.2322 0.0
H3708 H 0.97852 0.24826 0.28624 0.0
H3709 H 0.93249 0.32527 0.25795 0.0
H3710 H 0.93925 0.25831 0.2401 0.0
H3711 H 0.98798 0.30843 0.26116 0.0
C3712 C 1.0004 0.29135 0.27812 0.0
C3713 C 0.99768 0.27468 0.28595 0.0
C3714 C 0.93778 0.27305 0.24355 0.0
C3715 C 0.96921 0.28182 0.26207 0.0
C3716 C 0.92059 0.27799 0.23921 0.0
C3717 C 0.91796 0.29677 0.24497 0.0
C3718 C 0.95254 0.28705 0.25329 0.0
C3719 C 0.93364 0.31061 0.25326 0.0
C3720 C 0.98614 0.29503 0.26627 0.0
C3721 C 0.981 0.26134 0.28055 0.0
N3722 N 0.95019 0.30541 0.2574 0.0
N3723 N 0.96727 0.26526 0.26901 0.0
H3724 H 0.99605 0.65208 0.59316 0.0
H3725 H 0.04576 0.59214 0.51378 0.0
H3726 H 0.0163 0.67292 0.54333 0.0
H3727 H 0.01993 0.56924 0.56022 0.0
H3728 H 0.03603 0.62222 0.525 0.0
H3729 H 1.0048 0.62168 0.58138 0.0
C3730 C 1.00205 0.65017 0.57957 0.0
C3731 C 1.0054 0.66508 0.56918 0.0
C3732 C 0.03252 0.61063 0.53275 0.0
C3733 C 0.01593 0.63041 0.55587 0.0
C3734 C 0.03817 0.59347 0.52643 0.0
C3735 C 0.03365 0.57814 0.53609 0.0
C3736 C 0.02233 0.61249 0.54889 0.0
C3737 C 0.02372 0.58068 0.55233 0.0
C3738 C 0.00723 0.63285 0.57295 0.0
C3739 C 0.01364 0.66189 0.5519 0.0
N3740 N 0.01837 0.59753 0.55821 0.0
N3741 N 0.0187 0.64492 0.54582 0.0
H3742 H 0.66774 0.83217 0.82359 0.0
H3743 H 0.73099 0.7741 0.76119 0.0
H3744 H 0.67079 0.77413 0.82849 0.0
H3745 H 0.75672 0.82878 0.79467 0.0
H3746 H 0.70197 0.77636 0.77638 0.0
H3747 H 0.69482 0.83317 0.80467 0.0
C3748 C 0.674 0.81966 0.82085 0.0
C3749 C 0.66675 0.803 0.8278 0.0
C3750 C 0.7139 0.78799 0.78005 0.0
C3751 C 0.69703 0.80396 0.80531 0.0
C3752 C 0.73038 0.78682 0.77133 0.0
C3753 C 0.74628 0.80124 0.77683 0.0
C3754 C 0.71323 0.80385 0.79397 0.0
C3755 C 0.74477 0.81732 0.79019 0.0
C3756 C 0.68932 0.82027 0.80987 0.0
C3757 C 0.67535 0.78715 0.82317 0.0
N3758 N 0.72846 0.8182 0.79842 0.0
N3759 N 0.68991 0.78798 0.81208 0.0
H3760 H 0.45976 0.51552 0.65456 0.0
H3761 H 0.53357 0.56453 0.58667 0.0
H3762 H 0.491 0.57296 0.67018 0.0
H3763 H 0.50093 0.5079 0.56988 0.0
H3764 H 0.51879 0.5675 0.61701 0.0
H3765 H 0.47482 0.5123 0.62451 0.0
C3766 C 0.46981 0.52755 0.65202 0.0
C3767 C 0.47373 0.54464 0.6658 0.0
C3768 C 0.51482 0.55435 0.60679 0.0
C3769 C 0.49152 0.54084 0.62996 0.0
C3770 C 0.5234 0.55257 0.58922 0.0
C3771 C 0.51888 0.53583 0.57508 0.0
C3772 C 0.50128 0.53932 0.61094 0.0
C3773 C 0.50525 0.52112 0.57992 0.0
C3774 C 0.47844 0.52565 0.63447 0.0
C3775 C 0.48694 0.55949 0.66053 0.0
N3776 N 0.49714 0.52321 0.59709 0.0
N3777 N 0.49516 0.55723 0.64344 0.0
H3778 H 0.82273 0.1976 0.9544 0.0
H3779 H 0.75582 0.20382 0.86333 0.0
H3780 H 0.77349 0.15542 0.93153 0.0
H3781 H 0.80729 0.244 0.88273 0.0
H3782 H 0.76223 0.18604 0.88836 0.0
H3783 H 0.81774 0.21466 0.92823 0.0
C3784 C 0.81096 0.19182 0.94383 0.0
C3785 C 0.79846 0.17505 0.94533 0.0
C3786 C 0.77217 0.19872 0.88715 0.0
C3787 C 0.79253 0.1947 0.91539 0.0
C3788 C 0.76845 0.20897 0.8729 0.0
C3789 C 0.78097 0.22553 0.87093 0.0
C3790 C 0.78851 0.20505 0.89969 0.0
C3791 C 0.7973 0.23125 0.88358 0.0
C3792 C 0.80806 0.20164 0.92893 0.0
C3793 C 0.78332 0.16844 0.93126 0.0
N3794 N 0.80055 0.2211 0.89746 0.0
N3795 N 0.78077 0.17829 0.91698 0.0
H3796 H 0.13688 0.51574 0.14495 0.0
H3797 H 0.05101 0.54602 0.09103 0.0
H3798 H 0.09288 0.53727 0.1745 0.0
H3799 H 0.09282 0.5191 0.06269 0.0
H3800 H 0.0653 0.54231 0.12177 0.0
H3801 H 0.11975 0.51556 0.11453 0.0
C3802 C 0.12347 0.52025 0.14495 0.0
C3803 C 0.11628 0.52664 0.16214 0.0
C3804 C 0.07126 0.53718 0.10878 0.0
C3805 C 0.09669 0.52675 0.12747 0.0
C3806 C 0.06318 0.53938 0.09125 0.0
C3807 C 0.07079 0.53298 0.07425 0.0
C3808 C 0.08705 0.52857 0.10925 0.0
C3809 C 0.08649 0.52435 0.07539 0.0
C3810 C 0.11369 0.52017 0.12762 0.0
C3811 C 0.0988 0.53218 0.16148 0.0
N3812 N 0.0941 0.52246 0.09256 0.0
N3813 N 0.08966 0.53233 0.14436 0.0
H3814 H 0.76756 0.82915 0.42123 0.0
H3815 H 0.82417 0.7949 0.33271 0.0
H3816 H 0.82494 0.82164 0.42703 0.0
H3817 H 0.76565 0.79854 0.32684 0.0
H3818 H 0.82441 0.80405 0.36727 0.0
H3819 H 0.76633 0.81748 0.38686 0.0
C3820 C 0.77991 0.82504 0.41531 0.0
C3821 C 0.79641 0.82649 0.42716 0.0
C3822 C 0.81148 0.80278 0.35846 0.0
C3823 C 0.79506 0.81299 0.38761 0.0
C3824 C 0.81132 0.79755 0.33865 0.0
C3825 C 0.79487 0.79596 0.3267 0.0
C3826 C 0.7951 0.80659 0.36656 0.0
C3827 C 0.77868 0.79957 0.33539 0.0
C3828 C 0.77916 0.81829 0.39565 0.0
C3829 C 0.81185 0.82063 0.4186 0.0
N3830 N 0.77923 0.80479 0.35473 0.0
N3831 N 0.81082 0.81427 0.3994 0.0
H3832 H 0.47182 0.57797 0.88481 0.0
H3833 H 0.52268 0.51314 0.94656 0.0
H3834 H 0.48384 0.52356 0.86009 0.0
H3835 H 0.51541 0.56971 0.96993 0.0
H3836 H 0.50806 0.51635 0.91553 0.0
H3837 H 0.48657 0.57483 0.91567 0.0
C3838 C 0.47737 0.56524 0.88562 0.0
C3839 C 0.4762 0.55107 0.86903 0.0
C3840 C 0.50963 0.52813 0.92738 0.0
C3841 C 0.49378 0.54738 0.9056 0.0
C3842 C 0.51808 0.5263 0.94535 0.0
C3843 C 0.52059 0.54112 0.96148 0.0
C3844 C 0.50322 0.54494 0.92495 0.0
C3845 C 0.51404 0.55774 0.95831 0.0
C3846 C 0.48603 0.56353 0.90353 0.0
C3847 C 0.48428 0.53518 0.87187 0.0
N3848 N 0.50579 0.55911 0.94076 0.0
N3849 N 0.49247 0.53381 0.88944 0.0
H3850 H 0.83478 0.19876 0.13163 0.0
H3851 H 0.76544 0.24535 0.20053 0.0
H3852 H 0.77487 0.18878 0.11802 0.0
H3853 H 0.82577 0.26145 0.20854 0.0
H3854 H 0.76831 0.22433 0.17053 0.0
H3855 H 0.83151 0.22141 0.16007 0.0
C3856 C 0.82093 0.20138 0.13447 0.0
C3857 C 0.8051 0.19168 0.12223 0.0
C3858 C 0.7809 0.23257 0.17881 0.0
C3859 C 0.80121 0.21761 0.15524 0.0
C3860 C 0.77927 0.24463 0.19594 0.0
C3861 C 0.79537 0.25527 0.20718 0.0
C3862 C 0.79876 0.23097 0.17289 0.0
C3863 C 0.81292 0.25361 0.20044 0.0
C3864 C 0.81906 0.2143 0.15085 0.0
C3865 C 0.7875 0.19557 0.12708 0.0
N3866 N 0.81412 0.24166 0.18388 0.0
N3867 N 0.78604 0.20814 0.14316 0.0
H3868 H 0.15987 0.60677 0.358 0.0
H3869 H 0.05712 0.58217 0.38949 0.0
H3870 H 0.10959 0.59158 0.31931 0.0
H3871 H 0.10658 0.59865 0.42937 0.0
H3872 H 0.07573 0.59247 0.3646 0.0
H3873 H 0.14052 0.61024 0.38486 0.0
C3874 C 0.14479 0.60446 0.35514 0.0
C3875 C 0.13633 0.59859 0.3364 0.0
C3876 C 0.0825 0.59412 0.37886 0.0
C3877 C 0.11413 0.6025 0.367 0.0
C3878 C 0.07181 0.58837 0.39319 0.0
C3879 C 0.08034 0.58919 0.41155 0.0
C3880 C 0.10193 0.60049 0.38277 0.0
C3881 C 0.09951 0.59722 0.4153 0.0
C3882 C 0.13375 0.60651 0.37047 0.0
C3883 C 0.11675 0.59616 0.33349 0.0
N3884 N 0.10974 0.60224 0.40095 0.0
N3885 N 0.10632 0.59783 0.34864 0.0
H3886 H 0.81644 0.86606 0.64062 0.0
H3887 H 0.78597 0.77873 0.69508 0.0
H3888 H 0.78656 0.81067 0.61252 0.0
H3889 H 0.80772 0.83604 0.72475 0.0
H3890 H 0.78714 0.7901 0.66478 0.0
H3891 H 0.8146 0.85525 0.67135 0.0
C3892 C 0.80957 0.85159 0.64086 0.0
C3893 C 0.8017 0.83926 0.62383 0.0
C3894 C 0.79162 0.80024 0.67789 0.0
C3895 C 0.79945 0.8268 0.65917 0.0
C3896 C 0.79099 0.79374 0.69528 0.0
C3897 C 0.79677 0.80641 0.71264 0.0
C3898 C 0.79824 0.81959 0.67764 0.0
C3899 C 0.80308 0.82572 0.71181 0.0
C3900 C 0.80842 0.84547 0.65847 0.0
C3901 C 0.7927 0.82077 0.6252 0.0
N3902 N 0.80372 0.83169 0.69463 0.0
N3903 N 0.7919 0.81511 0.64249 0.0
H3904 H 0.69493 0.51782 0.52371 0.0
H3905 H 0.58266 0.48426 0.51219 0.0
H3906 H 0.6666 0.46009 0.50173 0.0
H3907 H 0.61049 0.54143 0.53704 0.0
H3908 H 0.61324 0.47515 0.50902 0.0
H3909 H 0.66448 0.52664 0.52923 0.0
C3910 C 0.6824 0.50692 0.5201 0.0
C3911 C 0.68363 0.4881 0.51212 0.0
C3912 C 0.61271 0.48967 0.5153 0.0
C3913 C 0.64831 0.49831 0.51834 0.0
C3914 C 0.59515 0.49491 0.51721 0.0
C3915 C 0.59377 0.5137 0.52498 0.0
C3916 C 0.62927 0.50328 0.52108 0.0
C3917 C 0.61069 0.52676 0.53108 0.0
C3918 C 0.66492 0.51203 0.5232 0.0
C3919 C 0.66661 0.47484 0.50756 0.0
N3920 N 0.62762 0.52135 0.52891 0.0
N3921 N 0.64982 0.48018 0.5107 0.0
H3922 H 0.1931 0.09986 0.48563 0.0
H3923 H 0.08927 0.09741 0.51825 0.0
H3924 H 0.1716 0.14987 0.50845 0.0
H3925 H 0.10807 0.04732 0.49087 0.0
H3926 H 0.1193 0.11669 0.51421 0.0
H3927 H 0.16216 0.08035 0.48675 0.0
C3928 C 0.18188 0.1068 0.49073 0.0
C3929 C 0.1851 0.12662 0.49705 0.0
C3930 C 0.11688 0.1015 0.50899 0.0
C3931 C 0.1496 0.10422 0.49858 0.0
C3932 C 0.09967 0.09042 0.51131 0.0
C3933 C 0.09607 0.07062 0.50497 0.0
C3934 C 0.13079 0.0928 0.50036 0.0
C3935 C 0.11017 0.0625 0.49598 0.0
C3936 C 0.16422 0.0956 0.49145 0.0
C3937 C 0.16999 0.13466 0.50376 0.0
N3938 N 0.12694 0.0736 0.49405 0.0
N3939 N 0.153 0.12347 0.50439 0.0
H3940 H 0.19741 0.90146 0.7728 0.0
H3941 H 0.29123 0.85529 0.75464 0.0
H3942 H 0.24853 0.93333 0.75761 0.0
H3943 H 0.24002 0.8237 0.76967 0.0
H3944 H 0.27617 0.8833 0.75543 0.0
H3945 H 0.21248 0.8737 0.77175 0.0
C3946 C 0.2118 0.90304 0.76932 0.0
C3947 C 0.22122 0.92078 0.76537 0.0
C3948 C 0.26809 0.87029 0.75854 0.0
C3949 C 0.23924 0.88733 0.76393 0.0
C3950 C 0.2768 0.85398 0.75804 0.0
C3951 C 0.26724 0.83635 0.76199 0.0
C3952 C 0.24928 0.86969 0.76308 0.0
C3953 C 0.24838 0.83648 0.7664 0.0
C3954 C 0.22051 0.88673 0.76863 0.0
C3955 C 0.24004 0.92056 0.76068 0.0
N3956 N 0.2403 0.85248 0.76681 0.0
N3957 N 0.24814 0.90454 0.76015 0.0
H3958 H 0.3855 0.99418 0.03921 0.0
H3959 H 0.47832 0.01329 0.98339 0.0
H3960 H 0.38457 0.99284 0.97842 0.0
H3961 H 0.48 0.01475 0.04422 0.0
H3962 H 0.44407 1.00601 0.98152 0.0
H3963 H 0.41981 1.00231 0.04155 0.0
C3964 C 0.39241 0.99576 0.02634 0.0
C3965 C 0.38184 0.99273 0.00856 0.0
C3966 C 0.45189 0.00791 0.9953 0.0
C3967 C 0.42154 1.00186 0.01117 0.0
C3968 C 0.47155 0.01206 0.99639 0.0
C3969 C 0.48228 0.01467 0.014 0.0
C3970 C 0.44262 1.00631 0.01193 0.0
C3971 C 0.47246 0.01288 0.0303 0.0
C3972 C 0.4121 1.00028 0.0277 0.0
C3973 C 0.3919 0.99471 0.99243 0.0
N3974 N 0.4533 0.00884 0.02886 0.0
N3975 N 0.41103 0.99911 0.99413 0.0
H3976 H 0.84386 0.62281 0.81538 0.0
H3977 H 0.77216 0.64248 0.73516 0.0
H3978 H 0.83225 0.58939 0.75857 0.0
H3979 H 0.79125 0.68122 0.78829 0.0
H3980 H 0.79033 0.62014 0.74546 0.0
H3981 H 0.82098 0.64189 0.80747 0.0
C3982 C 0.83645 0.61949 0.80127 0.0
C3983 C 0.84011 0.60472 0.78751 0.0
C3984 C 0.79034 0.63345 0.75493 0.0
C3985 C 0.81394 0.62631 0.7784 0.0
C3986 C 0.77999 0.6462 0.74906 0.0
C3987 C 0.78027 0.66382 0.76079 0.0
C3988 C 0.80106 0.63837 0.77266 0.0
C3989 C 0.79042 0.66775 0.77881 0.0
C3990 C 0.82343 0.63036 0.79675 0.0
C3991 C 0.83013 0.60095 0.76944 0.0
N3992 N 0.80054 0.65521 0.78411 0.0
N3993 N 0.81753 0.61171 0.76539 0.0
H3994 H 0.84821 0.60775 0.99069 0.0
H3995 H 0.94803 0.61185 0.04596 0.0
H3996 H 0.88086 0.65855 0.02582 0.0
H3997 H 0.92043 0.56383 1.00363 0.0
H3998 H 0.92302 0.6288 0.03925 0.0
H3999 H 0.8741 0.59117 0.99537 0.0
C4000 C 0.86084 0.61549 0.99926 0.0
C4001 C 0.86222 0.6346 0.00797 0.0
C4002 C 0.92243 0.61458 0.03136 0.0
C4003 C 0.89186 0.61555 0.01361 0.0
C4004 C 0.93667 0.60484 0.03528 0.0
C4005 C 0.93629 0.58633 0.02542 0.0
C4006 C 0.90755 0.60575 0.01757 0.0
C4007 C 0.92135 0.57811 0.01149 0.0
C4008 C 0.8756 0.60597 1.002 0.0
C4009 C 0.87892 0.64375 0.01913 0.0
N4010 N 0.90753 0.58782 0.00806 0.0
N4011 N 0.89299 0.63414 0.02168 0.0
H4012 H 0.25274 0.12267 0.77488 0.0
H4013 H 0.23779 0.23063 0.7714 0.0
H4014 H 0.19821 0.13772 0.77076 0.0
H4015 H 0.2918 0.21438 0.76977 0.0
H4016 H 0.22335 0.1974 0.77229 0.0
H4017 H 0.26711 0.15588 0.77433 0.0
C4018 C 0.24362 0.13278 0.77398 0.0
C4019 C 0.2239 0.12664 0.77285 0.0
C4020 C 0.23838 0.20103 0.77176 0.0
C4021 C 0.24083 0.16582 0.77211 0.0
C4022 C 0.24675 0.22022 0.77127 0.0
C4023 C 0.2663 0.22589 0.7705 0.0
C4024 C 0.24941 0.18684 0.7716 0.0
C4025 C 0.27677 0.21116 0.77035 0.0
C4026 C 0.25198 0.15198 0.77354 0.0
C4027 C 0.21334 0.1411 0.77141 0.0
N4028 N 0.26832 0.19267 0.77092 0.0
N4029 N 0.22181 0.15964 0.77115 0.0
H4030 H 0.33062 0.93505 0.26735 0.0
H4031 H 0.29284 0.84056 0.30803 0.0
H4032 H 0.33122 0.93432 0.32783 0.0
H4033 H 0.31065 0.84165 0.25138 0.0
H4034 H 0.30105 0.8755 0.31507 0.0
H4035 H 0.31656 0.90139 0.26084 0.0
C4036 C 0.32745 0.9279 0.27929 0.0
C4037 C 0.33215 0.9375 0.29818 0.0
C4038 C 0.30307 0.868 0.30111 0.0
C4039 C 0.31644 0.89877 0.29077 0.0
C4040 C 0.29839 0.84814 0.29708 0.0
C4041 C 0.30127 0.83823 0.27917 0.0
C4042 C 0.31035 0.87789 0.287 0.0
C4043 C 0.30845 0.84869 0.26547 0.0
C4044 C 0.31961 0.90861 0.27555 0.0
C4045 C 0.32802 0.92736 0.31306 0.0
N4046 N 0.31272 0.86794 0.26967 0.0
N4047 N 0.32047 0.90846 0.30903 0.0
H4048 H 0.59401 0.35972 0.52879 0.0
H4049 H 0.50682 0.39167 0.4846 0.0
H4050 H 0.53646 0.33719 0.53633 0.0
H4051 H 0.56336 0.41192 0.47145 0.0
H4052 H 0.51701 0.36515 0.49549 0.0
H4053 H 0.58321 0.37315 0.50172 0.0
C4054 C 0.57913 0.35737 0.52454 0.0
C4055 C 0.56604 0.34789 0.5351 0.0
C4056 C 0.52719 0.37519 0.48992 0.0
C4057 C 0.55363 0.36297 0.50426 0.0
C4058 C 0.5213 0.39037 0.48338 0.0
C4059 C 0.5344 0.40473 0.47784 0.0
C4060 C 0.54637 0.37458 0.49141 0.0
C4061 C 0.55292 0.40181 0.47658 0.0
C4062 C 0.57297 0.36496 0.50908 0.0
C4063 C 0.54696 0.34497 0.52892 0.0
N4064 N 0.55852 0.38741 0.48396 0.0
N4065 N 0.54133 0.35271 0.5141 0.0
H4066 H 0.44161 0.79341 0.30182 0.0
H4067 H 0.33336 0.76607 0.31022 0.0
H4068 H 0.41861 0.7585 0.34151 0.0
H4069 H 0.35487 0.77767 0.25729 0.0
H4070 H 0.36485 0.76419 0.32235 0.0
H4071 H 0.41025 0.78852 0.28514 0.0
C4072 C 0.43 0.78448 0.30679 0.0
C4073 C 0.43259 0.77636 0.32301 0.0
C4074 C 0.36265 0.76695 0.308 0.0
C4075 C 0.39693 0.771 0.30437 0.0
C4076 C 0.34473 0.76818 0.30115 0.0
C4077 C 0.34163 0.7722 0.28283 0.0
C4078 C 0.37758 0.77015 0.29658 0.0
C4079 C 0.35676 0.77457 0.27153 0.0
C4080 C 0.41218 0.78165 0.29728 0.0
C4081 C 0.41718 0.76487 0.32894 0.0
N4082 N 0.37421 0.77378 0.27871 0.0
N4083 N 0.39993 0.76276 0.31978 0.0
H4084 H 0.04298 0.68873 0.04815 0.0
H4085 H 0.08863 0.59623 0.03089 0.0
H4086 H 0.10161 0.68965 0.06251 0.0
H4087 H 0.03036 0.59674 0.0162 0.0
H4088 H 0.09477 0.63098 0.03874 0.0
H4089 H 0.03927 0.65574 0.03255 0.0
C4090 C 0.05517 0.68209 0.04777 0.0
C4091 C 0.07262 0.69197 0.05676 0.0
C4092 C 0.08069 0.62347 0.0336 0.0
C4093 C 0.06834 0.65391 0.03926 0.0
C4094 C 0.07718 0.60364 0.02909 0.0
C4095 C 0.0589 0.59357 0.02317 0.0
C4096 C 0.0658 0.63322 0.03219 0.0
C4097 C 0.04463 0.6039 0.02097 0.0
C4098 C 0.053 0.66316 0.03895 0.0
C4099 C 0.08782 0.68246 0.05607 0.0
N4100 N 0.04836 0.62314 0.02566 0.0
N4101 N 0.08529 0.66388 0.04761 0.0
H4102 H 0.1104 0.28631 0.87506 0.0
H4103 H 0.17899 0.33711 0.8073 0.0
H4104 H 0.10559 0.34013 0.85906 0.0
H4105 H 0.18266 0.2829 0.82306 0.0
H4106 H 0.15359 0.33978 0.82803 0.0
H4107 H 0.13864 0.28628 0.85822 0.0
C4108 C 0.11535 0.29816 0.86803 0.0
C4109 C 0.10555 0.31314 0.86824 0.0
C4110 C 0.16003 0.32736 0.82703 0.0
C4111 C 0.13787 0.31323 0.84894 0.0
C4112 C 0.17444 0.32577 0.81511 0.0
C4113 C 0.18286 0.30969 0.81337 0.0
C4114 C 0.15397 0.31274 0.83721 0.0
C4115 C 0.17667 0.2956 0.82409 0.0
C4116 C 0.1315 0.29817 0.85847 0.0
C4117 C 0.11277 0.32832 0.85925 0.0
N4118 N 0.16253 0.29741 0.83546 0.0
N4119 N 0.12843 0.3279 0.84979 0.0
H4120 H 0.56102 0.73979 0.9684 0.0
H4121 H 0.53097 0.62903 0.97197 0.0
H4122 H 0.54931 0.69531 0.91857 0.0
H4123 H 0.54259 0.67265 0.02246 0.0
H4124 H 0.53575 0.65356 0.95224 0.0
H4125 H 0.55291 0.71584 0.98851 0.0
C4126 C 0.55681 0.72498 0.96169 0.0
C4127 C 0.55594 0.71952 0.94177 0.0
C4128 C 0.53718 0.65784 0.96762 0.0
C4129 C 0.54642 0.69211 0.96468 0.0
C4130 C 0.5345 0.64383 0.97889 0.0
C4131 C 0.53662 0.64884 0.99887 0.0
C4132 C 0.54211 0.67705 0.97636 0.0
C4133 C 0.54083 0.66822 0.0071 0.0
C4134 C 0.55205 0.71135 0.97318 0.0
C4135 C 0.55003 0.70019 0.93384 0.0
N4136 N 0.54361 0.68165 0.9958 0.0
N4137 N 0.54558 0.68719 0.94532 0.0
H4138 H 0.07905 0.72905 0.69355 0.0
H4139 H 0.1693 0.78821 0.76024 0.0
H4140 H 0.08945 0.7901 0.71099 0.0
H4141 H 0.1594 0.72739 0.74095 0.0
H4142 H 0.13841 0.78886 0.74535 0.0
H4143 H 0.10675 0.72783 0.71387 0.0
C4144 C 0.08718 0.7422 0.7017 0.0
C4145 C 0.08211 0.75973 0.70041 0.0
C4146 C 0.14292 0.77535 0.74454 0.0
C4147 C 0.11377 0.75845 0.72377 0.0
C4148 C 0.16057 0.77498 0.75296 0.0
C4149 C 0.167 0.75775 0.75167 0.0
C4150 C 0.13165 0.75837 0.73468 0.0
C4151 C 0.15499 0.74099 0.74239 0.0
C4152 C 0.10293 0.74149 0.71337 0.0
C4153 C 0.09287 0.77629 0.7116 0.0
N4154 N 0.13797 0.74175 0.7341 0.0
N4155 N 0.10831 0.77527 0.72268 0.0
H4156 H 0.03856 0.38902 0.40721 0.0
H4157 H 0.06152 0.46314 0.50578 0.0
H4158 H 0.07026 0.37912 0.45631 0.0
H4159 H 0.02766 0.47149 0.45734 0.0
H4160 H 0.06469 0.4322 0.48808 0.0
H4161 H 0.03443 0.41932 0.42548 0.0
C4162 C 0.04472 0.39328 0.42182 0.0
C4163 C 0.05483 0.38157 0.43023 0.0
C4164 C 0.05652 0.44079 0.48136 0.0
C4165 C 0.05001 0.41616 0.45131 0.0
C4166 C 0.05471 0.45846 0.49145 0.0
C4167 C 0.04434 0.46995 0.48302 0.0
C4168 C 0.04796 0.43459 0.46268 0.0
C4169 C 0.0358 0.46313 0.46442 0.0
C4170 C 0.04226 0.41052 0.43229 0.0
C4171 C 0.06223 0.38763 0.44932 0.0
N4172 N 0.03785 0.44592 0.45486 0.0
N4173 N 0.05972 0.40455 0.4592 0.0
H4174 H 0.4086 0.28493 0.18094 0.0
H4175 H 0.33875 0.24482 0.24988 0.0
H4176 H 0.42514 0.24235 0.21058 0.0
H4177 H 0.35921 0.30516 0.25372 0.0
H4178 H 0.36475 0.23858 0.23046 0.0
H4179 H 0.38313 0.28705 0.20147 0.0
C4180 C 0.40692 0.27599 0.1917 0.0
C4181 C 0.41938 0.26377 0.19428 0.0
C4182 C 0.36349 0.25311 0.23585 0.0
C4183 C 0.38982 0.26573 0.21732 0.0
C4184 C 0.34879 0.2567 0.24693 0.0
C4185 C 0.34666 0.27554 0.25328 0.0
C4186 C 0.37566 0.26846 0.23084 0.0
C4187 C 0.36008 0.2904 0.24903 0.0
C4188 C 0.39231 0.27715 0.2033 0.0
C4189 C 0.41591 0.25197 0.20803 0.0
N4190 N 0.37377 0.28653 0.2378 0.0
N4191 N 0.40143 0.25328 0.21915 0.0
H4192 H 0.62459 0.55316 0.38139 0.0
H4193 H 0.55246 0.50099 0.44892 0.0
H4194 H 0.59594 0.49474 0.36569 0.0
H4195 H 0.58089 0.55937 0.46461 0.0
H4196 H 0.56782 0.49861 0.41888 0.0
H4197 H 0.60888 0.55569 0.41103 0.0
C4198 C 0.61499 0.54075 0.3838 0.0
C4199 C 0.61201 0.52363 0.37007 0.0
C4200 C 0.57074 0.51202 0.42878 0.0
C4201 C 0.59344 0.52661 0.40557 0.0
C4202 C 0.56182 0.51345 0.44619 0.0
C4203 C 0.56497 0.5305 0.45994 0.0
C4204 C 0.5833 0.52771 0.42442 0.0
C4205 C 0.57763 0.54586 0.45488 0.0
C4206 C 0.60596 0.54227 0.40115 0.0
C4207 C 0.5993 0.50831 0.37526 0.0
N4208 N 0.58612 0.54409 0.4379 0.0
N4209 N 0.59071 0.51019 0.39217 0.0
H4210 H 0.27689 0.86242 0.06252 0.0
H4211 H 0.29112 0.85698 0.1734 0.0
H4212 H 0.28468 0.91196 0.10708 0.0
H4213 H 0.29658 0.81151 0.12784 0.0
H4214 H 0.2867 0.87691 0.14965 0.0
H4215 H 0.28143 0.84296 0.0866 0.0
C4216 C 0.2794 0.86918 0.07741 0.0
C4217 C 0.28033 0.88884 0.0828 0.0
C4218 C 0.28889 0.86257 0.14489 0.0
C4219 C 0.28572 0.86663 0.11049 0.0
C4220 C 0.29153 0.85119 0.15845 0.0
C4221 C 0.29419 0.83244 0.15269 0.0
C4222 C 0.28877 0.85515 0.12539 0.0
C4223 C 0.29423 0.8257 0.13303 0.0
C4224 C 0.28214 0.85808 0.09114 0.0
C4225 C 0.28397 0.89688 0.10228 0.0
N4226 N 0.29151 0.837 0.12013 0.0
N4227 N 0.28646 0.88573 0.11544 0.0
H4228 H 0.9905 0.53363 0.86737 0.0
H4229 H 0.9896 0.52676 0.9776 0.0
H4230 H 0.94408 0.54219 0.90074 0.0
H4231 H 0.04128 0.53706 0.95069 0.0
H4232 H 0.97231 0.52894 0.94817 0.0
H4233 H 0.00915 0.53203 0.89664 0.0
C4234 C 0.9843 0.53527 0.88087 0.0
C4235 C 0.96577 0.53811 0.8817 0.0
C4236 C 0.98743 0.53073 0.94868 0.0
C4237 C 0.98681 0.53609 0.91497 0.0
C4238 C 0.99734 0.52937 0.96546 0.0
C4239 C 0.01695 0.53176 0.96663 0.0
C4240 C 0.99714 0.53433 0.93282 0.0
C4241 C 0.02617 0.53518 0.95041 0.0
C4242 C 0.99493 0.53441 0.89751 0.0
C4243 C 0.95839 0.54023 0.89951 0.0
N4244 N 0.01616 0.53632 0.93409 0.0
N4245 N 0.96889 0.53903 0.91541 0.0
H4246 H 0.31757 0.25405 0.60755 0.0
H4247 H 0.26199 0.26877 0.70132 0.0
H4248 H 0.2576 0.23797 0.6078 0.0
H4249 H 0.32233 0.27626 0.7038 0.0
H4250 H 0.26048 0.26031 0.66669 0.0
H4251 H 0.31984 0.2652 0.64221 0.0
C4252 C 0.30486 0.25305 0.61483 0.0
C4253 C 0.28736 0.24496 0.60469 0.0
C4254 C 0.27408 0.26382 0.67476 0.0
C4255 C 0.2899 0.25761 0.64443 0.0
C4256 C 0.27498 0.26872 0.69462 0.0
C4257 C 0.29233 0.27322 0.70564 0.0
C4258 C 0.29064 0.26345 0.66561 0.0
C4259 C 0.30862 0.27286 0.69596 0.0
C4260 C 0.30619 0.25929 0.63465 0.0
C4261 C 0.27141 0.24385 0.61499 0.0
N4262 N 0.30738 0.26805 0.67652 0.0
N4263 N 0.27307 0.25007 0.63421 0.0
H4264 H 0.63463 0.51032 0.15089 0.0
H4265 H 0.55048 0.54404 0.09312 0.0
H4266 H 0.58855 0.52909 0.1788 0.0
H4267 H 0.5907 0.51487 0.06509 0.0
H4268 H 0.56474 0.54048 0.12425 0.0
H4269 H 0.61984 0.51365 0.12014 0.0
C4270 C 0.62147 0.51527 0.15081 0.0
C4271 C 0.61318 0.51941 0.16818 0.0
C4272 C 0.57051 0.53483 0.11133 0.0
C4273 C 0.59565 0.52338 0.13176 0.0
C4274 C 0.5623 0.5369 0.09333 0.0
C4275 C 0.56913 0.52981 0.07587 0.0
C4276 C 0.58608 0.52573 0.11247 0.0
C4277 C 0.58465 0.52066 0.07776 0.0
C4278 C 0.61288 0.51708 0.13293 0.0
C4279 C 0.59575 0.52547 0.16623 0.0
N4280 N 0.59247 0.51903 0.09538 0.0
N4281 N 0.58782 0.52735 0.14871 0.0
H4282 H 0.26666 0.84776 0.91729 0.0
H4283 H 0.314 0.84016 0.8183 0.0
H4284 H 0.29126 0.89614 0.89315 0.0
H4285 H 0.27766 0.79214 0.83368 0.0
H4286 H 0.30837 0.85996 0.84759 0.0
H4287 H 0.27254 0.82657 0.88856 0.0
C4288 C 0.27327 0.85394 0.90596 0.0
C4289 C 0.27845 0.87382 0.90769 0.0
C4290 C 0.30165 0.84509 0.84466 0.0
C4291 C 0.28535 0.84958 0.8748 0.0
C4292 C 0.30495 0.83366 0.82791 0.0
C4293 C 0.29627 0.81435 0.82336 0.0
C4294 C 0.28963 0.83729 0.85723 0.0
C4295 C 0.2847 0.80691 0.83656 0.0
C4296 C 0.27657 0.84182 0.88954 0.0
C4297 C 0.28682 0.88097 0.89242 0.0
N4298 N 0.28168 0.81839 0.85287 0.0
N4299 N 0.2901 0.8689 0.87675 0.0
H4300 H 0.95082 0.54514 0.70788 0.0
H4301 H 0.99364 0.47844 0.628 0.0
H4302 H 0.93744 0.48373 0.69891 0.0
H4303 H 0.99811 0.5389 0.63056 0.0
H4304 H 0.97416 0.48012 0.6549 0.0
H4305 H 0.96903 0.54316 0.6802 0.0
C4306 C 0.95153 0.53122 0.69999 0.0
C4307 C 0.94252 0.51457 0.70575 0.0
C4308 C 0.97936 0.493 0.64953 0.0
C4309 C 0.96371 0.51223 0.6742 0.0
C4310 C 0.99056 0.49207 0.63427 0.0
C4311 C 0.99748 0.50855 0.62707 0.0
C4312 C 0.9752 0.51058 0.65773 0.0
C4313 C 0.99289 0.52581 0.63555 0.0
C4314 C 0.96205 0.53012 0.68423 0.0
C4315 C 0.94433 0.49695 0.69517 0.0
N4316 N 0.9821 0.52639 0.65049 0.0
N4317 N 0.95476 0.49624 0.67994 0.0
H4318 H 0.2644 0.22286 0.39931 0.0
H4319 H 0.32424 0.28792 0.33482 0.0
H4320 H 0.32083 0.2533 0.4172 0.0
H4321 H 0.27243 0.24869 0.31422 0.0
H4322 H 0.32291 0.27682 0.36552 0.0
H4323 H 0.26658 0.23381 0.36876 0.0
C4324 C 0.27723 0.23197 0.3969 0.0
C4325 C 0.29242 0.23719 0.411 0.0
C4326 C 0.31188 0.27062 0.35425 0.0
C4327 C 0.29509 0.24975 0.37572 0.0
C4328 C 0.31262 0.27696 0.33668 0.0
C4329 C 0.29843 0.26928 0.3218 0.0
C4330 C 0.29675 0.2566 0.35708 0.0
C4331 C 0.28373 0.25508 0.32517 0.0
C4332 C 0.27852 0.23811 0.37934 0.0
C4333 C 0.3088 0.24877 0.40677 0.0
N4334 N 0.28324 0.24932 0.34239 0.0
N4335 N 0.30966 0.25471 0.38959 0.0
H4336 H 0.38909 0.55121 0.5131 0.0
H4337 H 0.50146 0.58376 0.5177 0.0
H4338 H 0.41716 0.60994 0.52824 0.0
H4339 H 0.47202 0.52553 0.50242 0.0
H4340 H 0.47112 0.59398 0.52053 0.0
H4341 H 0.41938 0.54201 0.50832 0.0
C4342 C 0.40154 0.56227 0.51532 0.0
C4343 C 0.40024 0.58149 0.52109 0.0
C4344 C 0.47131 0.57898 0.51643 0.0
C4345 C 0.43556 0.57081 0.51575 0.0
C4346 C 0.48869 0.57311 0.51468 0.0
C4347 C 0.48952 0.55368 0.50975 0.0
C4348 C 0.45448 0.56537 0.51325 0.0
C4349 C 0.4723 0.54065 0.50624 0.0
C4350 C 0.41897 0.55693 0.51267 0.0
C4351 C 0.41723 0.59493 0.52405 0.0
N4352 N 0.45568 0.5467 0.50811 0.0
N4353 N 0.43404 0.58937 0.52135 0.0
H4354 H 0.92127 0.92087 0.53287 0.0
H4355 H 0.9787 0.02621 0.53372 0.0
H4356 H 0.8961 0.97077 0.53774 0.0
H4357 H 1.004 0.97634 0.52635 0.0
H4358 H 0.94873 1.00622 0.53694 0.0
H4359 H 0.95186 0.94095 0.53182 0.0
C4360 C 0.92213 0.93603 0.53367 0.0
C4361 C 0.90597 0.94408 0.53535 0.0
C4362 C 0.96083 0.99963 0.53469 0.0
C4363 C 0.94114 0.96724 0.53435 0.0
C4364 C 0.97802 0.01106 0.53287 0.0
C4365 C 0.99397 1.00299 0.52969 0.0
C4366 C 0.95946 0.97989 0.53329 0.0
C4367 C 0.99211 0.98323 0.52876 0.0
C4368 C 0.93966 0.94751 0.53317 0.0
C4369 C 0.90812 0.9639 0.53667 0.0
N4370 N 0.97518 0.97238 0.53048 0.0
N4371 N 0.92531 0.97474 0.53609 0.0
H4372 H 0.89347 0.1706 0.27216 0.0
H4373 H 0.79653 0.21267 0.26463 0.0
H4374 H 0.83869 0.13462 0.26207 0.0
H4375 H 0.85119 0.24859 0.27204 0.0
H4376 H 0.81146 0.18468 0.26426 0.0
H4377 H 0.87866 0.19855 0.27282 0.0
C4378 C 0.87834 0.16822 0.27017 0.0
C4379 C 0.86779 0.14926 0.26707 0.0
C4380 C 0.82032 0.19862 0.26602 0.0
C4381 C 0.85006 0.1828 0.26773 0.0
C4382 C 0.81168 0.21492 0.26629 0.0
C4383 C 0.82223 0.23376 0.26849 0.0
C4384 C 0.84009 0.20043 0.26799 0.0
C4385 C 0.84202 0.23483 0.2704 0.0
C4386 C 0.86977 0.18458 0.27046 0.0
C4387 C 0.84802 0.14831 0.26434 0.0
N4388 N 0.85005 0.21879 0.27013 0.0
N4389 N 0.84009 0.16442 0.26478 0.0
H4390 H 0.6969 0.1011 0.02033 0.0
H4391 H 0.60813 0.02195 0.03224 0.0
H4392 H 0.70208 0.04451 0.0279 0.0
H4393 H 0.60323 0.072 0.00861 0.0
H4394 H 0.64237 0.03078 0.03318 0.0
H4395 H 0.66275 0.09158 0.01844 0.0
C4396 C 0.69089 0.08666 0.02167 0.0
C4397 C 0.70257 0.07365 0.02438 0.0
C4398 C 0.63381 0.03982 0.02777 0.0
C4399 C 0.66307 0.06259 0.02225 0.0
C4400 C 0.61419 0.03483 0.02729 0.0
C4401 C 0.60258 0.04624 0.02037 0.0
C4402 C 0.6421 0.05652 0.02154 0.0
C4403 C 0.61146 0.06271 0.01407 0.0
C4404 C 0.67131 0.0812 0.02048 0.0
C4405 C 0.69375 0.05504 0.02571 0.0
N4406 N 0.63057 0.06738 0.01492 0.0
N4407 N 0.67463 0.05014 0.0248 0.0
H4408 H 0.23559 0.47096 0.25452 0.0
H4409 H 0.27671 0.40902 0.32299 0.0
H4410 H 0.2198 0.47038 0.31191 0.0
H4411 H 0.29842 0.41851 0.26956 0.0
H4412 H 0.25625 0.43185 0.31992 0.0
H4413 H 0.25839 0.45124 0.25995 0.0
C4414 C 0.23679 0.46647 0.26822 0.0
C4415 C 0.22563 0.47209 0.28272 0.0
C4416 C 0.26564 0.42907 0.30898 0.0
C4417 C 0.25202 0.44979 0.28919 0.0
C4418 C 0.27743 0.41617 0.3108 0.0
C4419 C 0.28917 0.41175 0.29641 0.0
C4420 C 0.26554 0.4375 0.29263 0.0
C4421 C 0.28935 0.42124 0.28081 0.0
C4422 C 0.24997 0.4554 0.27139 0.0
C4423 C 0.22813 0.46632 0.30036 0.0
N4424 N 0.27758 0.43353 0.27925 0.0
N4425 N 0.24102 0.45536 0.30309 0.0
H4426 H 0.21484 0.41466 0.99714 0.0
H4427 H 0.16358 0.49995 0.03748 0.0
H4428 H 0.23641 0.45656 0.04754 0.0
H4429 H 0.14904 0.46497 0.98165 0.0
H4430 H 0.18874 0.4826 0.04277 0.0
H4431 H 0.18928 0.43148 0.99247 0.0
C4432 C 0.21432 0.42746 0.00719 0.0
C4433 C 0.22799 0.43422 0.02271 0.0
C4434 C 0.18004 0.47872 0.02936 0.0
C4435 C 0.19838 0.45342 0.01758 0.0
C4436 C 0.1656 0.48854 0.02638 0.0
C4437 C 0.15417 0.48393 0.00908 0.0
C4438 C 0.18303 0.46405 0.01501 0.0
C4439 C 0.15762 0.46916 0.99511 0.0
C4440 C 0.19961 0.437 1.00455 0.0
C4441 C 0.22617 0.45065 0.03548 0.0
N4442 N 0.17168 0.45974 0.9984 0.0
N4443 N 0.21167 0.45967 0.03262 0.0
H4444 H 0.89048 0.93114 0.25504 0.0
H4445 H 0.79766 0.8548 0.26792 0.0
H4446 H 0.83763 0.94702 0.26773 0.0
H4447 H 0.85097 0.83883 0.25808 0.0
H4448 H 0.81188 0.88804 0.26735 0.0
H4449 H 0.87644 0.89785 0.25541 0.0
C4450 C 0.87589 0.92787 0.25779 0.0
C4451 C 0.86551 0.94267 0.26129 0.0
C4452 C 0.82056 0.87735 0.26529 0.0
C4453 C 0.84897 0.90337 0.26192 0.0
C4454 C 0.81237 0.85812 0.2656 0.0
C4455 C 0.82289 0.8434 0.26304 0.0
C4456 C 0.83968 0.88253 0.26234 0.0
C4457 C 0.84202 0.84927 0.26014 0.0
C4458 C 0.86785 0.90857 0.25811 0.0
C4459 C 0.84663 0.9367 0.26512 0.0
N4460 N 0.84963 0.86807 0.25985 0.0
N4461 N 0.83915 0.91786 0.26526 0.0
H4462 H 0.74555 0.12729 0.75686 0.0
H4463 H 0.77742 0.22175 0.71554 0.0
H4464 H 0.74491 0.12786 0.69646 0.0
H4465 H 0.78598 0.21763 0.77503 0.0
H4466 H 0.7682 0.1871 0.70766 0.0
H4467 H 0.763 0.15995 0.76335 0.0
C4468 C 0.74924 0.13438 0.74497 0.0
C4469 C 0.74364 0.12517 0.72614 0.0
C4470 C 0.77233 0.19378 0.72239 0.0
C4471 C 0.76343 0.16251 0.73337 0.0
C4472 C 0.77757 0.21356 0.72691 0.0
C4473 C 0.78216 0.2226 0.74601 0.0
C4474 C 0.77159 0.18307 0.7371 0.0
C4475 C 0.7823 0.21129 0.76014 0.0
C4476 C 0.75925 0.15296 0.74865 0.0
C4477 C 0.74894 0.13468 0.71118 0.0
N4478 N 0.77686 0.19214 0.75541 0.0
N4479 N 0.75834 0.15303 0.71512 0.0
loop_
_geom_bond_atom_site_label_1
_geom_bond_atom_site_label_2
_geom_bond_distance
_geom_bond_site_symmetry_2
_ccdc_geom_bond_type
Li0 N17 1.990 . S
Li0 O60 1.956 . S
Li0 O61 1.970 . S
Li0 O62 1.961 . S
Li1 N25 1.990 . S
Li1 O60 1.970 . S
Li1 O61 1.956 . S
Li1 O63 1.961 . S
Li2 N47 1.990 . S
Li2 O60 1.961 . S
Li2 O62 1.956 . S
Li2 O63 1.970 . S
Li3 N53 1.990 . S
Li3 O61 1.961 . S
Li3 O62 1.970 . S
Li3 O63 1.956 . S
C4 C6 1.348 . S
C4 C7 1.356 . S
C4 O60 1.325 . S
N5 C8 1.314 . S
N5 C9 1.279 . S
C6 C4 1.348 . S
C6 C8 1.353 . S
C6 H64 0.929 . S
C7 C4 1.356 . S
C7 C9 1.358 . S
C7 H65 0.930 . S
C8 N5 1.314 . S
C8 C6 1.353 . S
C8 H66 0.930 . S
C9 N5 1.279 . S
C9 C7 1.358 . S
C9 H67 0.930 . S
C10 C13 1.348 . S
C10 C14 1.356 . S
C10 O61 1.325 . S
C11 N12 1.279 . S
C11 C14 1.358 . S
C11 H68 0.930 . S
N12 C11 1.279 . S
N12 C15 1.314 . S
C13 C10 1.348 . S
C13 C15 1.353 . S
C13 H69 0.929 . S
C14 C10 1.356 . S
C14 C11 1.358 . S
C14 H70 0.930 . S
C15 N12 1.314 . S
C15 C13 1.353 . S
C15 H71 0.930 1_455 S
C16 N17 1.314 . S
C16 C21 1.353 . S
C16 H22 0.930 . S
N17 Li0 1.990 . S
N17 C16 1.314 . S
N17 C19 1.279 . S
C18 C19 1.358 . S
C18 C20 1.356 1_455 S
C18 H72 0.930 . S
C19 N17 1.279 . S
C19 C18 1.358 . S
C19 H23 0.930 . S
C20 C18 1.356 1_655 S
C20 C21 1.348 1_655 S
C21 C16 1.353 . S
C21 C20 1.348 1_455 S
C21 H73 0.929 1_455 S
H22 C16 0.930 . S
H23 C19 0.930 . S
C24 N25 1.314 . S
C24 C26 1.353 . S
C24 H30 0.930 . S
N25 Li1 1.990 . S
N25 C24 1.314 . S
N25 C28 1.279 . S
C26 C24 1.353 . S
C26 C29 1.348 . S
C26 H74 0.929 . S
C27 C28 1.358 . S
C27 C29 1.356 . S
C27 H75 0.930 . S
C28 N25 1.279 . S
C28 C27 1.358 . S
C28 H31 0.930 . S
C29 C26 1.348 . S
C29 C27 1.356 . S
H30 C24 0.930 . S
H31 C28 0.930 . S
C32 C34 1.348 . S
C32 C35 1.356 . S
C32 O62 1.325 . S
N33 C36 1.314 . S
N33 C37 1.279 . S
C34 C32 1.348 . S
C34 C36 1.353 . S
C34 H76 0.929 . S
C35 C32 1.356 . S
C35 C37 1.358 . S
C35 H77 0.930 . S
C36 N33 1.314 . S
C36 C34 1.353 . S
C36 H78 0.930 . S
C37 N33 1.279 . S
C37 C35 1.358 . S
C37 H79 0.930 . S
C38 C39 1.348 . S
C38 C40 1.356 . S
C38 O63 1.325 . S
C39 C38 1.348 . S
C39 C41 1.353 . S
C39 H80 0.929 . S
C40 C38 1.356 . S
C40 C42 1.358 . S
C40 H81 0.930 . S
C41 C39 1.353 . S
C41 N43 1.314 . S
C41 H82 0.930 . S
C42 C40 1.358 . S
C42 N43 1.279 . S
C42 H83 0.930 . S
N43 C41 1.314 . S
N43 C42 1.279 . S
C44 C46 1.353 . S
C44 N47 1.314 . S
C44 H50 0.930 . S
C45 N47 1.279 . S
C45 C48 1.358 . S
C45 H51 0.930 . S
C46 C44 1.353 . S
C46 C49 1.348 . S
C46 H84 0.929 . S
N47 Li2 1.990 . S
N47 C44 1.314 . S
N47 C45 1.279 . S
C48 C45 1.358 . S
C48 C49 1.356 . S
C48 H85 0.930 . S
C49 C46 1.348 . S
C49 C48 1.356 . S
H50 C44 0.930 . S
H51 C45 0.930 . S
C52 N53 1.314 . S
C52 C54 1.353 . S
C52 H58 0.930 . S
N53 Li3 1.990 . S
N53 C52 1.314 . S
N53 C56 1.279 . S
C54 C52 1.353 . S
C54 C57 1.348 . S
C54 H86 0.929 . S
C55 C56 1.358 . S
C55 C57 1.356 . S
C55 H87 0.930 . S
C56 N53 1.279 . S
C56 C55 1.358 . S
C56 H59 0.930 . S
C57 C54 1.348 . S
C57 C55 1.356 . S
H58 C52 0.930 . S
H59 C56 0.930 . S
O60 Li0 1.956 . S
O60 Li1 1.970 . S
O60 Li2 1.961 . S
O60 C4 1.325 . S
O61 Li0 1.970 . S
O61 Li1 1.956 . S
O61 Li3 1.961 . S
O61 C10 1.325 . S
O62 Li0 1.961 . S
O62 Li2 1.956 . S
O62 Li3 1.970 . S
O62 C32 1.325 . S
O63 Li1 1.961 . S
O63 Li2 1.970 . S
O63 Li3 1.956 . S
O63 C38 1.325 . S
H64 C6 0.929 . S
H65 C7 0.930 . S
H66 C8 0.930 . S
H67 C9 0.930 . S
H68 C11 0.930 . S
H69 C13 0.929 . S
H70 C14 0.930 . S
H71 C15 0.930 1_655 S
H72 C18 0.930 . S
H73 C21 0.929 1_655 S
H74 C26 0.929 . S
H75 C27 0.930 . S
H76 C34 0.929 . S
H77 C35 0.930 . S
H78 C36 0.930 . S
H79 C37 0.930 . S
H80 C39 0.929 . S
H81 C40 0.930 . S
H82 C41 0.930 . S
H83 C42 0.930 . S
H84 C46 0.929 . S
H85 C48 0.930 . S
H86 C54 0.929 . S
H87 C55 0.930 . S
Li88 N105 1.990 . S
Li88 O148 1.956 . S
Li88 O149 1.970 . S
Li88 O150 1.961 1_455 S
Li89 N113 1.990 . S
Li89 O148 1.970 . S
Li89 O149 1.956 . S
Li89 O151 1.938 1_455 S
Li90 N135 1.990 . S
Li90 O148 1.961 1_655 S
Li90 O150 1.956 . S
Li90 O151 1.971 . S
Li91 N141 1.990 . S
Li91 O149 1.961 1_655 S
Li91 O150 1.970 . S
Li91 O151 1.987 . S
C92 C94 1.348 . S
C92 C95 1.356 . S
C92 O148 1.325 . S
N93 C96 1.314 . S
N93 C97 1.279 . S
C94 C92 1.348 . S
C94 C96 1.353 . S
C94 H152 0.929 . S
C95 C92 1.356 . S
C95 C97 1.358 . S
C95 H153 0.930 . S
C96 N93 1.314 . S
C96 C94 1.353 . S
C96 H154 0.930 . S
C97 N93 1.279 . S
C97 C95 1.358 . S
C97 H155 0.930 . S
C98 C101 1.348 . S
C98 C102 1.356 . S
C98 O149 1.325 . S
C99 N100 1.279 . S
C99 C102 1.358 . S
C99 H156 0.930 . S
N100 C99 1.279 . S
N100 C103 1.314 . S
C101 C98 1.348 . S
C101 C103 1.353 . S
C101 H157 0.929 . S
C102 C98 1.356 . S
C102 C99 1.358 . S
C102 H158 0.924 1_455 S
C103 N100 1.314 . S
C103 C101 1.353 . S
C103 H159 0.930 . S
C104 N105 1.314 1_655 S
C104 C109 1.353 . S
C104 H110 0.930 . S
N105 Li88 1.990 . S
N105 C104 1.314 1_455 S
N105 C107 1.279 . S
C106 C107 1.358 . S
C106 C108 1.356 . S
C106 H160 0.930 . S
C107 N105 1.279 . S
C107 C106 1.358 . S
C107 H111 0.930 . S
C108 C106 1.356 . S
C108 C109 1.348 1_455 S
C109 C104 1.353 . S
C109 C108 1.348 1_655 S
C109 H161 0.929 . S
H110 C104 0.930 . S
H111 C107 0.930 . S
C112 N113 1.314 . S
C112 C114 1.353 . S
C112 H118 0.930 . S
N113 Li89 1.990 . S
N113 C112 1.314 . S
N113 C116 1.279 . S
C114 C112 1.353 . S
C114 C117 1.348 . S
C114 H162 0.929 . S
C115 C116 1.358 . S
C115 C117 1.356 . S
C115 H163 0.930 . S
C116 N113 1.279 . S
C116 C115 1.358 . S
C116 H119 0.930 . S
C117 C114 1.348 . S
C117 C115 1.356 . S
H118 C112 0.930 . S
H119 C116 0.930 . S
C120 C122 1.348 . S
C120 C123 1.356 . S
C120 O150 1.325 . S
N121 C124 1.314 . S
N121 C125 1.279 . S
C122 C120 1.348 . S
C122 C124 1.353 . S
C122 H164 0.929 . S
C123 C120 1.356 . S
C123 C125 1.358 . S
C123 H165 0.930 . S
C124 N121 1.314 . S
C124 C122 1.353 . S
C124 H166 0.930 . S
C125 N121 1.279 . S
C125 C123 1.358 . S
C125 H167 0.930 . S
C126 C127 1.348 . S
C126 C128 1.356 1_655 S
C126 O151 1.324 . S
C127 C126 1.348 . S
C127 C129 1.353 . S
C127 H168 0.929 . S
C128 C126 1.356 1_455 S
C128 C130 1.358 . S
C128 H169 0.930 . S
C129 C127 1.353 . S
C129 N131 1.314 . S
C129 H170 0.930 . S
C130 C128 1.358 . S
C130 N131 1.272 1_455 S
C130 H171 0.945 . S
N131 C129 1.314 . S
N131 C130 1.272 1_655 S
C132 C134 1.353 . S
C132 N135 1.314 1_455 S
C132 H138 0.930 . S
C133 N135 1.279 . S
C133 C136 1.358 . S
C133 H139 0.930 . S
C134 C132 1.353 . S
C134 C137 1.348 1_455 S
C134 H172 0.929 . S
N135 Li90 1.990 . S
N135 C132 1.314 1_655 S
N135 C133 1.279 . S
C136 C133 1.358 . S
C136 C137 1.356 . S
C136 H173 0.930 . S
C137 C134 1.348 1_655 S
C137 C136 1.356 . S
H138 C132 0.930 . S
H139 C133 0.930 . S
C140 N141 1.314 . S
C140 C142 1.353 . S
C140 H146 0.930 . S
N141 Li91 1.990 . S
N141 C140 1.314 . S
N141 C144 1.279 . S
C142 C140 1.353 . S
C142 C145 1.348 . S
C142 H174 0.929 . S
C143 C144 1.358 . S
C143 C145 1.356 . S
C143 H175 0.930 . S
C144 N141 1.279 . S
C144 C143 1.358 . S
C144 H147 0.930 . S
C145 C142 1.348 . S
C145 C143 1.356 . S
H146 C140 0.930 . S
H147 C144 0.930 . S
O148 Li88 1.956 . S
O148 Li89 1.970 . S
O148 Li90 1.961 1_455 S
O148 C92 1.325 . S
O149 Li88 1.970 . S
O149 Li89 1.956 . S
O149 Li91 1.961 1_455 S
O149 C98 1.325 . S
O150 Li88 1.961 1_655 S
O150 Li90 1.956 . S
O150 Li91 1.970 . S
O150 C120 1.325 . S
O151 Li89 1.938 1_655 S
O151 Li90 1.971 . S
O151 Li91 1.987 . S
O151 C126 1.324 . S
H152 C94 0.929 . S
H153 C95 0.930 . S
H154 C96 0.930 . S
H155 C97 0.930 . S
H156 C99 0.930 . S
H157 C101 0.929 . S
H158 C102 0.924 1_655 S
H159 C103 0.930 . S
H160 C106 0.930 . S
H161 C109 0.929 . S
H162 C114 0.929 . S
H163 C115 0.930 . S
H164 C122 0.929 . S
H165 C123 0.930 . S
H166 C124 0.930 . S
H167 C125 0.930 . S
H168 C127 0.929 . S
H169 C128 0.930 . S
H170 C129 0.930 . S
H171 C130 0.945 . S
H172 C134 0.929 . S
H173 C136 0.930 . S
H174 C142 0.929 . S
H175 C143 0.930 . S
Li176 N193 1.990 . S
Li176 O236 1.956 . S
Li176 O237 1.970 . S
Li176 O238 1.961 . S
Li177 N201 1.990 . S
Li177 O236 1.970 . S
Li177 O237 1.956 . S
Li177 O239 1.961 . S
Li178 N223 1.990 . S
Li178 O236 1.961 . S
Li178 O238 1.956 . S
Li178 O239 1.970 . S
Li179 N229 1.990 . S
Li179 O237 1.961 . S
Li179 O238 1.970 . S
Li179 O239 1.956 . S
C180 C182 1.348 . S
C180 C183 1.356 . S
C180 O236 1.325 . S
N181 C184 1.314 . S
N181 C185 1.279 . S
C182 C180 1.348 . S
C182 C184 1.353 . S
C182 H240 0.929 . S
C183 C180 1.356 . S
C183 C185 1.358 . S
C183 H241 0.930 . S
C184 N181 1.314 . S
C184 C182 1.353 . S
C184 H242 0.930 . S
C185 N181 1.279 . S
C185 C183 1.358 . S
C185 H243 0.930 . S
C186 C189 1.348 . S
C186 C190 1.356 . S
C186 O237 1.325 . S
C187 N188 1.279 . S
C187 C190 1.358 . S
C187 H244 0.930 . S
N188 C187 1.279 . S
N188 C191 1.314 . S
C189 C186 1.348 . S
C189 C191 1.353 . S
C189 H245 0.929 . S
C190 C186 1.356 . S
C190 C187 1.358 . S
C190 H246 0.930 . S
C191 N188 1.314 . S
C191 C189 1.353 . S
C191 H247 0.930 . S
C192 N193 1.314 . S
C192 C197 1.353 . S
C192 H198 0.930 . S
N193 Li176 1.990 . S
N193 C192 1.314 . S
N193 C195 1.279 . S
C194 C195 1.358 . S
C194 C196 1.356 . S
C194 H248 0.930 . S
C195 N193 1.279 . S
C195 C194 1.358 . S
C195 H199 0.930 . S
C196 C194 1.356 . S
C196 C197 1.348 . S
C197 C192 1.353 . S
C197 C196 1.348 . S
C197 H249 0.929 . S
H198 C192 0.930 . S
H199 C195 0.930 . S
C200 N201 1.314 . S
C200 C202 1.353 . S
C200 H206 0.930 . S
N201 Li177 1.990 . S
N201 C200 1.314 . S
N201 C204 1.279 . S
C202 C200 1.353 . S
C202 C205 1.348 . S
C202 H250 0.929 . S
C203 C204 1.358 . S
C203 C205 1.356 . S
C203 H251 0.930 . S
C204 N201 1.279 . S
C204 C203 1.358 . S
C204 H207 0.930 . S
C205 C202 1.348 . S
C205 C203 1.356 . S
H206 C200 0.930 . S
H207 C204 0.930 . S
C208 C210 1.348 . S
C208 C211 1.356 . S
C208 O238 1.325 . S
N209 C212 1.314 . S
N209 C213 1.279 . S
C210 C208 1.348 . S
C210 C212 1.353 . S
C210 H252 0.929 . S
C211 C208 1.356 . S
C211 C213 1.358 . S
C211 H253 0.930 . S
C212 N209 1.314 . S
C212 C210 1.353 . S
C212 H254 0.930 . S
C213 N209 1.279 . S
C213 C211 1.358 . S
C213 H255 0.930 . S
C214 C215 1.348 . S
C214 C216 1.356 . S
C214 O239 1.325 . S
C215 C214 1.348 . S
C215 C217 1.353 . S
C215 H256 0.929 . S
C216 C214 1.356 . S
C216 C218 1.358 . S
C216 H257 0.930 . S
C217 C215 1.353 . S
C217 N219 1.314 . S
C217 H258 0.930 . S
C218 C216 1.358 . S
C218 N219 1.279 . S
C218 H259 0.930 . S
N219 C217 1.314 . S
N219 C218 1.279 . S
C220 C222 1.353 . S
C220 N223 1.314 . S
C220 H226 0.930 . S
C221 N223 1.279 . S
C221 C224 1.358 . S
C221 H227 0.930 . S
C222 C220 1.353 . S
C222 C225 1.348 . S
C222 H260 0.929 . S
N223 Li178 1.990 . S
N223 C220 1.314 . S
N223 C221 1.279 . S
C224 C221 1.358 . S
C224 C225 1.356 . S
C224 H261 0.930 . S
C225 C222 1.348 . S
C225 C224 1.356 . S
H226 C220 0.930 . S
H227 C221 0.930 . S
C228 N229 1.314 . S
C228 C230 1.353 . S
C228 H234 0.930 . S
N229 Li179 1.990 . S
N229 C228 1.314 . S
N229 C232 1.279 . S
C230 C228 1.353 . S
C230 C233 1.348 . S
C230 H262 0.929 . S
C231 C232 1.358 . S
C231 C233 1.356 . S
C231 H263 0.930 . S
C232 N229 1.279 . S
C232 C231 1.358 . S
C232 H235 0.930 . S
C233 C230 1.348 . S
C233 C231 1.356 . S
H234 C228 0.930 . S
H235 C232 0.930 . S
O236 Li176 1.956 . S
O236 Li177 1.970 . S
O236 Li178 1.961 . S
O236 C180 1.325 . S
O237 Li176 1.970 . S
O237 Li177 1.956 . S
O237 Li179 1.961 . S
O237 C186 1.325 . S
O238 Li176 1.961 . S
O238 Li178 1.956 . S
O238 Li179 1.970 . S
O238 C208 1.325 . S
O239 Li177 1.961 . S
O239 Li178 1.970 . S
O239 Li179 1.956 . S
O239 C214 1.325 . S
H240 C182 0.929 . S
H241 C183 0.930 . S
H242 C184 0.930 . S
H243 C185 0.930 . S
H244 C187 0.930 . S
H245 C189 0.929 . S
H246 C190 0.930 . S
H247 C191 0.930 . S
H248 C194 0.930 . S
H249 C197 0.929 . S
H250 C202 0.929 . S
H251 C203 0.930 . S
H252 C210 0.929 . S
H253 C211 0.930 . S
H254 C212 0.930 . S
H255 C213 0.930 . S
H256 C215 0.929 . S
H257 C216 0.930 . S
H258 C217 0.930 . S
H259 C218 0.930 . S
H260 C222 0.929 . S
H261 C224 0.930 . S
H262 C230 0.929 . S
H263 C231 0.930 . S
Li264 N281 1.990 . S
Li264 O324 1.956 . S
Li264 O325 1.970 . S
Li264 O326 1.961 . S
Li265 N289 1.990 . S
Li265 O324 1.970 . S
Li265 O325 1.956 . S
Li265 O327 1.961 . S
Li266 N311 1.990 . S
Li266 O324 1.961 . S
Li266 O326 1.956 . S
Li266 O327 1.970 . S
Li267 N317 1.990 . S
Li267 O325 1.961 . S
Li267 O326 1.970 . S
Li267 O327 1.956 . S
C268 C270 1.348 . S
C268 C271 1.356 . S
C268 O324 1.325 . S
N269 C272 1.314 . S
N269 C273 1.279 . S
C270 C268 1.348 . S
C270 C272 1.353 . S
C270 H328 0.929 . S
C271 C268 1.356 . S
C271 C273 1.358 . S
C271 H329 0.930 . S
C272 N269 1.314 . S
C272 C270 1.353 . S
C272 H330 0.930 . S
C273 N269 1.279 . S
C273 C271 1.358 . S
C273 H331 0.930 . S
C274 C277 1.348 . S
C274 C278 1.356 . S
C274 O325 1.325 . S
C275 N276 1.279 . S
C275 C278 1.358 . S
C275 H332 0.930 . S
N276 C275 1.279 . S
N276 C279 1.314 . S
C277 C274 1.348 . S
C277 C279 1.353 . S
C277 H333 0.929 . S
C278 C274 1.356 . S
C278 C275 1.358 . S
C278 H334 0.930 . S
C279 N276 1.314 . S
C279 C277 1.353 . S
C279 H335 0.930 . S
C280 N281 1.314 . S
C280 C285 1.353 . S
C280 H286 0.930 . S
N281 Li264 1.990 . S
N281 C280 1.314 . S
N281 C283 1.279 . S
C282 C283 1.358 . S
C282 C284 1.356 . S
C282 H336 0.930 . S
C283 N281 1.279 . S
C283 C282 1.358 . S
C283 H287 0.930 . S
C284 C282 1.356 . S
C284 C285 1.348 . S
C285 C280 1.353 . S
C285 C284 1.348 . S
C285 H337 0.929 . S
H286 C280 0.930 . S
H287 C283 0.930 . S
C288 N289 1.314 . S
C288 C290 1.353 . S
C288 H294 0.930 . S
N289 Li265 1.990 . S
N289 C288 1.314 . S
N289 C292 1.279 . S
C290 C288 1.353 . S
C290 C293 1.348 . S
C290 H338 0.929 . S
C291 C292 1.358 . S
C291 C293 1.356 . S
C291 H339 0.930 . S
C292 N289 1.279 . S
C292 C291 1.358 . S
C292 H295 0.930 . S
C293 C290 1.348 . S
C293 C291 1.356 . S
H294 C288 0.930 . S
H295 C292 0.930 . S
C296 C298 1.348 . S
C296 C299 1.356 . S
C296 O326 1.325 . S
N297 C300 1.314 . S
N297 C301 1.279 . S
C298 C296 1.348 . S
C298 C300 1.353 . S
C298 H340 0.929 . S
C299 C296 1.356 . S
C299 C301 1.358 . S
C299 H341 0.930 . S
C300 N297 1.314 . S
C300 C298 1.353 . S
C300 H342 0.930 . S
C301 N297 1.279 . S
C301 C299 1.358 . S
C301 H343 0.930 . S
C302 C303 1.348 . S
C302 C304 1.356 . S
C302 O327 1.325 . S
C303 C302 1.348 . S
C303 C305 1.353 . S
C303 H344 0.929 . S
C304 C302 1.356 . S
C304 C306 1.358 . S
C304 H345 0.930 . S
C305 C303 1.353 . S
C305 N307 1.314 . S
C305 H346 0.930 . S
C306 C304 1.358 . S
C306 N307 1.279 . S
C306 H347 0.930 . S
N307 C305 1.314 . S
N307 C306 1.279 . S
C308 C310 1.353 . S
C308 N311 1.314 . S
C308 H314 0.930 . S
C309 N311 1.279 . S
C309 C312 1.358 . S
C309 H315 0.930 . S
C310 C308 1.353 . S
C310 C313 1.348 . S
C310 H348 0.929 . S
N311 Li266 1.990 . S
N311 C308 1.314 . S
N311 C309 1.279 . S
C312 C309 1.358 . S
C312 C313 1.356 . S
C312 H349 0.930 . S
C313 C310 1.348 . S
C313 C312 1.356 . S
H314 C308 0.930 . S
H315 C309 0.930 . S
C316 N317 1.314 . S
C316 C318 1.353 . S
C316 H322 0.930 . S
N317 Li267 1.990 . S
N317 C316 1.314 . S
N317 C320 1.279 . S
C318 C316 1.353 . S
C318 C321 1.348 . S
C318 H350 0.929 . S
C319 C320 1.358 . S
C319 C321 1.356 . S
C319 H351 0.930 . S
C320 N317 1.279 . S
C320 C319 1.358 . S
C320 H323 0.930 . S
C321 C318 1.348 . S
C321 C319 1.356 . S
H322 C316 0.930 . S
H323 C320 0.930 . S
O324 Li264 1.956 . S
O324 Li265 1.970 . S
O324 Li266 1.961 . S
O324 C268 1.325 . S
O325 Li264 1.970 . S
O325 Li265 1.956 . S
O325 Li267 1.961 . S
O325 C274 1.325 . S
O326 Li264 1.961 . S
O326 Li266 1.956 . S
O326 Li267 1.970 . S
O326 C296 1.325 . S
O327 Li265 1.961 . S
O327 Li266 1.970 . S
O327 Li267 1.956 . S
O327 C302 1.325 . S
H328 C270 0.929 . S
H329 C271 0.930 . S
H330 C272 0.930 . S
H331 C273 0.930 . S
H332 C275 0.930 . S
H333 C277 0.929 . S
H334 C278 0.930 . S
H335 C279 0.930 . S
H336 C282 0.930 . S
H337 C285 0.929 . S
H338 C290 0.929 . S
H339 C291 0.930 . S
H340 C298 0.929 . S
H341 C299 0.930 . S
H342 C300 0.930 . S
H343 C301 0.930 . S
H344 C303 0.929 . S
H345 C304 0.930 . S
H346 C305 0.930 . S
H347 C306 0.930 . S
H348 C310 0.929 . S
H349 C312 0.930 . S
H350 C318 0.929 . S
H351 C319 0.930 . S
Li352 N369 1.990 . S
Li352 O412 1.956 . S
Li352 O413 1.970 . S
Li352 O414 1.961 . S
Li353 N377 1.990 . S
Li353 O412 1.970 . S
Li353 O413 1.956 . S
Li353 O415 1.961 . S
Li354 N399 1.990 . S
Li354 O412 1.961 . S
Li354 O414 1.956 . S
Li354 O415 1.970 . S
Li355 N405 1.990 . S
Li355 O413 1.961 . S
Li355 O414 1.970 . S
Li355 O415 1.956 . S
C356 C358 1.348 . S
C356 C359 1.356 . S
C356 O412 1.325 . S
N357 C360 1.314 . S
N357 C361 1.279 . S
C358 C356 1.348 . S
C358 C360 1.353 . S
C358 H416 0.929 . S
C359 C356 1.356 . S
C359 C361 1.358 . S
C359 H417 0.930 . S
C360 N357 1.314 . S
C360 C358 1.353 . S
C360 H418 0.930 . S
C361 N357 1.279 . S
C361 C359 1.358 . S
C361 H419 0.930 . S
C362 C365 1.348 . S
C362 C366 1.356 . S
C362 O413 1.325 . S
C363 N364 1.279 . S
C363 C366 1.358 . S
C363 H420 0.930 . S
N364 C363 1.279 . S
N364 C367 1.314 . S
C365 C362 1.348 . S
C365 C367 1.353 . S
C365 H421 0.929 . S
C366 C362 1.356 . S
C366 C363 1.358 . S
C366 H422 0.930 . S
C367 N364 1.314 . S
C367 C365 1.353 . S
C367 H423 0.930 . S
C368 N369 1.314 . S
C368 C373 1.353 . S
C368 H374 0.930 . S
N369 Li352 1.990 . S
N369 C368 1.314 . S
N369 C371 1.279 . S
C370 C371 1.358 . S
C370 C372 1.356 . S
C370 H424 0.930 . S
C371 N369 1.279 . S
C371 C370 1.358 . S
C371 H375 0.930 . S
C372 C370 1.356 . S
C372 C373 1.348 . S
C373 C368 1.353 . S
C373 C372 1.348 . S
C373 H425 0.929 . S
H374 C368 0.930 . S
H375 C371 0.930 . S
C376 N377 1.314 . S
C376 C378 1.353 . S
C376 H382 0.930 . S
N377 Li353 1.990 . S
N377 C376 1.314 . S
N377 C380 1.279 . S
C378 C376 1.353 . S
C378 C381 1.348 . S
C378 H426 0.929 . S
C379 C380 1.358 . S
C379 C381 1.356 . S
C379 H427 0.930 . S
C380 N377 1.279 . S
C380 C379 1.358 . S
C380 H383 0.930 . S
C381 C378 1.348 . S
C381 C379 1.356 . S
H382 C376 0.930 . S
H383 C380 0.930 . S
C384 C386 1.348 . S
C384 C387 1.356 . S
C384 O414 1.325 . S
N385 C388 1.314 . S
N385 C389 1.279 1_655 S
C386 C384 1.348 . S
C386 C388 1.353 1_455 S
C386 H428 0.929 . S
C387 C384 1.356 . S
C387 C389 1.358 . S
C387 H429 0.930 . S
C388 N385 1.314 . S
C388 C386 1.353 1_655 S
C388 H430 0.930 . S
C389 N385 1.279 1_455 S
C389 C387 1.358 . S
C389 H431 0.930 . S
C390 C391 1.348 . S
C390 C392 1.356 . S
C390 O415 1.325 . S
C391 C390 1.348 . S
C391 C393 1.353 . S
C391 H432 0.929 . S
C392 C390 1.356 . S
C392 C394 1.358 . S
C392 H433 0.930 . S
C393 C391 1.353 . S
C393 N395 1.314 . S
C393 H434 0.930 . S
C394 C392 1.358 . S
C394 N395 1.279 . S
C394 H435 0.930 . S
N395 C393 1.314 . S
N395 C394 1.279 . S
C396 C398 1.353 . S
C396 N399 1.314 . S
C396 H402 0.930 . S
C397 N399 1.279 . S
C397 C400 1.358 . S
C397 H403 0.930 . S
C398 C396 1.353 . S
C398 C401 1.348 . S
C398 H436 0.929 . S
N399 Li354 1.990 . S
N399 C396 1.314 . S
N399 C397 1.279 . S
C400 C397 1.358 . S
C400 C401 1.356 . S
C400 H437 0.930 . S
C401 C398 1.348 . S
C401 C400 1.356 . S
H402 C396 0.930 . S
H403 C397 0.930 . S
C404 N405 1.314 . S
C404 C406 1.410 . S
C404 H410 0.930 . S
N405 Li355 1.990 . S
N405 C404 1.314 . S
N405 C408 1.279 . S
C406 C404 1.410 . S
C406 C409 1.329 1_455 S
C406 H438 0.895 1_455 S
C407 C408 1.358 . S
C407 C409 1.356 1_455 S
C407 H439 0.930 1_455 S
C408 N405 1.279 . S
C408 C407 1.358 . S
C408 H411 0.930 . S
C409 C406 1.329 1_655 S
C409 C407 1.356 1_655 S
H410 C404 0.930 . S
H411 C408 0.930 . S
O412 Li352 1.956 . S
O412 Li353 1.970 . S
O412 Li354 1.961 . S
O412 C356 1.325 . S
O413 Li352 1.970 . S
O413 Li353 1.956 . S
O413 Li355 1.961 . S
O413 C362 1.325 . S
O414 Li352 1.961 . S
O414 Li354 1.956 . S
O414 Li355 1.970 . S
O414 C384 1.325 . S
O415 Li353 1.961 . S
O415 Li354 1.970 . S
O415 Li355 1.956 . S
O415 C390 1.325 . S
H416 C358 0.929 . S
H417 C359 0.930 . S
H418 C360 0.930 . S
H419 C361 0.930 . S
H420 C363 0.930 . S
H421 C365 0.929 . S
H422 C366 0.930 . S
H423 C367 0.930 . S
H424 C370 0.930 . S
H425 C373 0.929 . S
H426 C378 0.929 . S
H427 C379 0.930 . S
H428 C386 0.929 . S
H429 C387 0.930 . S
H430 C388 0.930 . S
H431 C389 0.930 . S
H432 C391 0.929 . S
H433 C392 0.930 . S
H434 C393 0.930 . S
H435 C394 0.930 . S
H436 C398 0.929 . S
H437 C400 0.930 . S
H438 C406 0.895 1_655 S
H439 C407 0.930 1_655 S
Li440 N457 1.990 . S
Li440 O500 1.956 . S
Li440 O501 1.970 . S
Li440 O502 1.961 . S
Li441 N465 1.990 . S
Li441 O500 1.970 . S
Li441 O501 1.956 . S
Li441 O503 1.961 . S
Li442 N487 1.990 . S
Li442 O500 1.961 . S
Li442 O502 1.956 . S
Li442 O503 1.970 . S
Li443 N493 1.990 . S
Li443 O501 1.961 . S
Li443 O502 1.970 . S
Li443 O503 1.956 . S
C444 C446 1.348 . S
C444 C447 1.356 . S
C444 O500 1.325 . S
N445 C448 1.314 . S
N445 C449 1.279 . S
C446 C444 1.348 . S
C446 C448 1.353 . S
C446 H504 0.929 . S
C447 C444 1.356 . S
C447 C449 1.358 . S
C447 H505 0.930 . S
C448 N445 1.314 . S
C448 C446 1.353 . S
C448 H506 0.930 . S
C449 N445 1.279 . S
C449 C447 1.358 . S
C449 H507 0.930 . S
C450 C453 1.348 . S
C450 C454 1.356 . S
C450 O501 1.325 . S
C451 N452 1.279 . S
C451 C454 1.358 . S
C451 H508 0.930 . S
N452 C451 1.279 . S
N452 C455 1.314 . S
C453 C450 1.348 . S
C453 C455 1.353 . S
C453 H509 0.929 . S
C454 C450 1.356 . S
C454 C451 1.358 . S
C454 H510 0.930 . S
C455 N452 1.314 . S
C455 C453 1.353 . S
C455 H511 0.930 . S
C456 N457 1.314 . S
C456 C461 1.353 . S
C456 H462 0.930 . S
N457 Li440 1.990 . S
N457 C456 1.314 . S
N457 C459 1.279 . S
C458 C459 1.358 . S
C458 C460 1.356 . S
C458 H512 0.930 . S
C459 N457 1.279 . S
C459 C458 1.358 . S
C459 H463 0.930 . S
C460 C458 1.356 . S
C460 C461 1.348 . S
C461 C456 1.353 . S
C461 C460 1.348 . S
C461 H513 0.929 . S
H462 C456 0.930 . S
H463 C459 0.930 . S
C464 N465 1.314 . S
C464 C466 1.353 . S
C464 H470 0.930 . S
N465 Li441 1.990 . S
N465 C464 1.314 . S
N465 C468 1.279 . S
C466 C464 1.353 . S
C466 C469 1.348 . S
C466 H514 0.929 . S
C467 C468 1.358 . S
C467 C469 1.356 . S
C467 H515 0.930 . S
C468 N465 1.279 . S
C468 C467 1.358 . S
C468 H471 0.930 . S
C469 C466 1.348 . S
C469 C467 1.356 . S
H470 C464 0.930 . S
H471 C468 0.930 . S
C472 C474 1.348 . S
C472 C475 1.356 . S
C472 O502 1.325 . S
N473 C476 1.314 . S
N473 C477 1.279 . S
C474 C472 1.348 . S
C474 C476 1.353 . S
C474 H516 0.929 . S
C475 C472 1.356 . S
C475 C477 1.358 . S
C475 H517 0.930 . S
C476 N473 1.314 . S
C476 C474 1.353 . S
C476 H518 0.930 . S
C477 N473 1.279 . S
C477 C475 1.358 . S
C477 H519 0.930 . S
C478 C479 1.348 . S
C478 C480 1.356 . S
C478 O503 1.325 . S
C479 C478 1.348 . S
C479 C481 1.353 . S
C479 H520 0.929 . S
C480 C478 1.356 . S
C480 C482 1.358 . S
C480 H521 0.930 . S
C481 C479 1.353 . S
C481 N483 1.314 . S
C481 H522 0.930 . S
C482 C480 1.358 . S
C482 N483 1.279 . S
C482 H523 0.930 . S
N483 C481 1.314 . S
N483 C482 1.279 . S
C484 C486 1.353 . S
C484 N487 1.314 . S
C484 H490 0.930 . S
C485 N487 1.279 . S
C485 C488 1.358 . S
C485 H491 0.930 . S
C486 C484 1.353 . S
C486 C489 1.348 . S
C486 H524 0.929 . S
N487 Li442 1.990 . S
N487 C484 1.314 . S
N487 C485 1.279 . S
C488 C485 1.358 . S
C488 C489 1.356 . S
C488 H525 0.930 . S
C489 C486 1.348 . S
C489 C488 1.356 . S
H490 C484 0.930 . S
H491 C485 0.930 . S
C492 N493 1.314 . S
C492 C494 1.353 . S
C492 H498 0.930 . S
N493 Li443 1.990 . S
N493 C492 1.314 . S
N493 C496 1.279 . S
C494 C492 1.353 . S
C494 C497 1.348 . S
C494 H526 0.929 . S
C495 C496 1.358 . S
C495 C497 1.356 . S
C495 H527 0.930 . S
C496 N493 1.279 . S
C496 C495 1.358 . S
C496 H499 0.930 . S
C497 C494 1.348 . S
C497 C495 1.356 . S
H498 C492 0.930 . S
H499 C496 0.930 . S
O500 Li440 1.956 . S
O500 Li441 1.970 . S
O500 Li442 1.961 . S
O500 C444 1.325 . S
O501 Li440 1.970 . S
O501 Li441 1.956 . S
O501 Li443 1.961 . S
O501 C450 1.325 . S
O502 Li440 1.961 . S
O502 Li442 1.956 . S
O502 Li443 1.970 . S
O502 C472 1.325 . S
O503 Li441 1.961 . S
O503 Li442 1.970 . S
O503 Li443 1.956 . S
O503 C478 1.325 . S
H504 C446 0.929 . S
H505 C447 0.930 . S
H506 C448 0.930 . S
H507 C449 0.930 . S
H508 C451 0.930 . S
H509 C453 0.929 . S
H510 C454 0.930 . S
H511 C455 0.930 . S
H512 C458 0.930 . S
H513 C461 0.929 . S
H514 C466 0.929 . S
H515 C467 0.930 . S
H516 C474 0.929 . S
H517 C475 0.930 . S
H518 C476 0.930 . S
H519 C477 0.930 . S
H520 C479 0.929 . S
H521 C480 0.930 . S
H522 C481 0.930 . S
H523 C482 0.930 . S
H524 C486 0.929 . S
H525 C488 0.930 . S
H526 C494 0.929 . S
H527 C495 0.930 . S
Li528 N545 1.990 . S
Li528 O588 1.956 . S
Li528 O589 1.970 . S
Li528 O590 1.961 . S
Li529 N553 1.990 . S
Li529 O588 1.970 . S
Li529 O589 1.956 . S
Li529 O591 1.961 . S
Li530 N575 1.990 . S
Li530 O588 1.961 . S
Li530 O590 1.956 . S
Li530 O591 1.970 . S
Li531 N581 1.990 . S
Li531 O589 1.961 . S
Li531 O590 1.970 . S
Li531 O591 1.956 . S
C532 C534 1.348 . S
C532 C535 1.356 . S
C532 O588 1.325 . S
N533 C536 1.314 . S
N533 C537 1.279 . S
C534 C532 1.348 . S
C534 C536 1.353 . S
C534 H592 0.929 . S
C535 C532 1.356 . S
C535 C537 1.358 . S
C535 H593 0.930 . S
C536 N533 1.314 . S
C536 C534 1.353 . S
C536 H594 0.930 . S
C537 N533 1.279 . S
C537 C535 1.358 . S
C537 H595 0.930 . S
C538 C541 1.348 . S
C538 C542 1.356 . S
C538 O589 1.325 . S
C539 N540 1.279 . S
C539 C542 1.358 . S
C539 H596 0.930 . S
N540 C539 1.279 . S
N540 C543 1.314 . S
C541 C538 1.348 . S
C541 C543 1.353 . S
C541 H597 0.929 . S
C542 C538 1.356 . S
C542 C539 1.358 . S
C542 H598 0.930 . S
C543 N540 1.314 . S
C543 C541 1.353 . S
C543 H599 0.930 . S
C544 N545 1.314 . S
C544 C549 1.353 . S
C544 H550 0.930 . S
N545 Li528 1.990 . S
N545 C544 1.314 . S
N545 C547 1.279 . S
C546 C547 1.358 . S
C546 C548 1.356 . S
C546 H600 0.930 . S
C547 N545 1.279 . S
C547 C546 1.358 . S
C547 H551 0.930 . S
C548 C546 1.356 . S
C548 C549 1.348 . S
C549 C544 1.353 . S
C549 C548 1.348 . S
C549 H601 0.929 . S
H550 C544 0.930 . S
H551 C547 0.930 . S
C552 N553 1.314 . S
C552 C554 1.353 . S
C552 H558 0.930 . S
N553 Li529 1.990 . S
N553 C552 1.314 . S
N553 C556 1.279 . S
C554 C552 1.353 . S
C554 C557 1.348 . S
C554 H602 0.929 . S
C555 C556 1.358 . S
C555 C557 1.356 . S
C555 H603 0.930 . S
C556 N553 1.279 . S
C556 C555 1.358 . S
C556 H559 0.930 . S
C557 C554 1.348 . S
C557 C555 1.356 . S
H558 C552 0.930 . S
H559 C556 0.930 . S
C560 C562 1.348 . S
C560 C563 1.356 . S
C560 O590 1.325 . S
N561 C564 1.314 . S
N561 C565 1.279 . S
C562 C560 1.348 . S
C562 C564 1.353 . S
C562 H604 0.929 . S
C563 C560 1.356 . S
C563 C565 1.358 . S
C563 H605 0.930 . S
C564 N561 1.314 . S
C564 C562 1.353 . S
C564 H606 0.930 . S
C565 N561 1.279 . S
C565 C563 1.358 . S
C565 H607 0.930 . S
C566 C567 1.348 . S
C566 C568 1.356 . S
C566 O591 1.325 . S
C567 C566 1.348 . S
C567 C569 1.353 . S
C567 H608 0.929 . S
C568 C566 1.356 . S
C568 C570 1.358 . S
C568 H609 0.930 . S
C569 C567 1.353 . S
C569 N571 1.314 . S
C569 H610 0.930 . S
C570 C568 1.358 . S
C570 N571 1.279 . S
C570 H611 0.930 . S
N571 C569 1.314 . S
N571 C570 1.279 . S
C572 C574 1.353 . S
C572 N575 1.314 . S
C572 H578 0.930 . S
C573 N575 1.279 . S
C573 C576 1.358 . S
C573 H579 0.930 . S
C574 C572 1.353 . S
C574 C577 1.348 . S
C574 H612 0.929 . S
N575 Li530 1.990 . S
N575 C572 1.314 . S
N575 C573 1.279 . S
C576 C573 1.358 . S
C576 C577 1.356 . S
C576 H613 0.930 . S
C577 C574 1.348 . S
C577 C576 1.356 . S
H578 C572 0.930 . S
H579 C573 0.930 . S
C580 N581 1.314 . S
C580 C582 1.353 . S
C580 H586 0.930 . S
N581 Li531 1.990 . S
N581 C580 1.314 . S
N581 C584 1.279 . S
C582 C580 1.353 . S
C582 C585 1.348 . S
C582 H614 0.929 . S
C583 C584 1.358 . S
C583 C585 1.356 . S
C583 H615 0.930 . S
C584 N581 1.279 . S
C584 C583 1.358 . S
C584 H587 0.930 . S
C585 C582 1.348 . S
C585 C583 1.356 . S
H586 C580 0.930 . S
H587 C584 0.930 . S
O588 Li528 1.956 . S
O588 Li529 1.970 . S
O588 Li530 1.961 . S
O588 C532 1.325 . S
O589 Li528 1.970 . S
O589 Li529 1.956 . S
O589 Li531 1.961 . S
O589 C538 1.325 . S
O590 Li528 1.961 . S
O590 Li530 1.956 . S
O590 Li531 1.970 . S
O590 C560 1.325 . S
O591 Li529 1.961 . S
O591 Li530 1.970 . S
O591 Li531 1.956 . S
O591 C566 1.325 . S
H592 C534 0.929 . S
H593 C535 0.930 . S
H594 C536 0.930 . S
H595 C537 0.930 . S
H596 C539 0.930 . S
H597 C541 0.929 . S
H598 C542 0.930 . S
H599 C543 0.930 . S
H600 C546 0.930 . S
H601 C549 0.929 . S
H602 C554 0.929 . S
H603 C555 0.930 . S
H604 C562 0.929 . S
H605 C563 0.930 . S
H606 C564 0.930 . S
H607 C565 0.930 . S
H608 C567 0.929 . S
H609 C568 0.930 . S
H610 C569 0.930 . S
H611 C570 0.930 . S
H612 C574 0.929 . S
H613 C576 0.930 . S
H614 C582 0.929 . S
H615 C583 0.930 . S
Li616 N633 1.990 . S
Li616 O676 1.956 1_455 S
Li616 O677 1.970 . S
Li616 O678 1.961 . S
Li617 N641 1.990 . S
Li617 O676 1.970 . S
Li617 O677 1.956 1_655 S
Li617 O679 1.961 1_655 S
Li618 N663 1.990 . S
Li618 O676 1.961 1_455 S
Li618 O678 1.956 . S
Li618 O679 1.970 . S
Li619 N669 1.990 . S
Li619 O677 1.961 . S
Li619 O678 1.970 . S
Li619 O679 1.956 . S
C620 C622 1.348 . S
C620 C623 1.356 . S
C620 O676 1.325 . S
N621 C624 1.314 . S
N621 C625 1.279 . S
C622 C620 1.348 . S
C622 C624 1.353 . S
C622 H680 0.929 . S
C623 C620 1.356 . S
C623 C625 1.358 . S
C623 H681 0.930 . S
C624 N621 1.314 . S
C624 C622 1.353 . S
C624 H682 0.930 . S
C625 N621 1.279 . S
C625 C623 1.358 . S
C625 H683 0.930 . S
C626 C629 1.348 . S
C626 C630 1.356 . S
C626 O677 1.325 . S
C627 N628 1.279 . S
C627 C630 1.358 . S
C627 H684 0.930 . S
N628 C627 1.279 . S
N628 C631 1.314 . S
C629 C626 1.348 . S
C629 C631 1.353 . S
C629 H685 0.929 . S
C630 C626 1.356 . S
C630 C627 1.358 . S
C630 H686 0.930 . S
C631 N628 1.314 . S
C631 C629 1.353 . S
C631 H687 0.930 . S
C632 N633 1.314 . S
C632 C637 1.353 . S
C632 H638 0.930 . S
N633 Li616 1.990 . S
N633 C632 1.314 . S
N633 C635 1.279 . S
C634 C635 1.358 . S
C634 C636 1.356 . S
C634 H688 0.930 1_455 S
C635 N633 1.279 . S
C635 C634 1.358 . S
C635 H639 0.930 1_455 S
C636 C634 1.356 . S
C636 C637 1.348 . S
C637 C632 1.353 . S
C637 C636 1.348 . S
C637 H689 0.929 . S
H638 C632 0.930 . S
H639 C635 0.930 1_655 S
C640 N641 1.314 . S
C640 C642 1.353 . S
C640 H646 0.930 . S
N641 Li617 1.990 . S
N641 C640 1.314 . S
N641 C644 1.279 . S
C642 C640 1.353 . S
C642 C645 1.348 . S
C642 H690 0.929 . S
C643 C644 1.358 . S
C643 C645 1.356 . S
C643 H691 0.930 . S
C644 N641 1.279 . S
C644 C643 1.358 . S
C644 H647 0.930 . S
C645 C642 1.348 . S
C645 C643 1.356 . S
H646 C640 0.930 . S
H647 C644 0.930 . S
C648 C650 1.348 . S
C648 C651 1.356 . S
C648 O678 1.325 . S
N649 C652 1.314 . S
N649 C653 1.279 . S
C650 C648 1.348 . S
C650 C652 1.353 . S
C650 H692 0.929 . S
C651 C648 1.356 . S
C651 C653 1.358 . S
C651 H693 0.930 . S
C652 N649 1.314 . S
C652 C650 1.353 . S
C652 H694 0.930 . S
C653 N649 1.279 . S
C653 C651 1.358 . S
C653 H695 0.930 . S
C654 C655 1.348 . S
C654 C656 1.361 . S
C654 O679 1.325 . S
C655 C654 1.348 . S
C655 C657 1.353 . S
C655 H696 0.929 . S
C656 C654 1.361 . S
C656 C658 1.362 1_455 S
C656 H697 0.922 1_455 S
C657 C655 1.353 . S
C657 N659 1.314 . S
C657 H698 0.930 . S
C658 C656 1.362 1_655 S
C658 N659 1.279 1_655 S
C658 H699 0.930 . S
N659 C657 1.314 . S
N659 C658 1.279 1_455 S
C660 C662 1.353 . S
C660 N663 1.314 1_655 S
C660 H666 0.930 . S
C661 N663 1.279 . S
C661 C664 1.358 . S
C661 H667 0.930 . S
C662 C660 1.353 . S
C662 C665 1.348 1_655 S
C662 H700 0.929 . S
N663 Li618 1.990 . S
N663 C660 1.314 1_455 S
N663 C661 1.279 . S
C664 C661 1.358 . S
C664 C665 1.356 . S
C664 H701 0.930 . S
C665 C662 1.348 1_455 S
C665 C664 1.356 . S
H666 C660 0.930 . S
H667 C661 0.930 . S
C668 N669 1.314 . S
C668 C670 1.353 . S
C668 H674 0.930 . S
N669 Li619 1.990 . S
N669 C668 1.314 . S
N669 C672 1.279 . S
C670 C668 1.353 . S
C670 C673 1.348 . S
C670 H702 0.929 . S
C671 C672 1.358 . S
C671 C673 1.356 . S
C671 H703 0.930 . S
C672 N669 1.279 . S
C672 C671 1.358 . S
C672 H675 0.930 . S
C673 C670 1.348 . S
C673 C671 1.356 . S
H674 C668 0.930 . S
H675 C672 0.930 . S
O676 Li616 1.956 1_655 S
O676 Li617 1.970 . S
O676 Li618 1.961 1_655 S
O676 C620 1.325 . S
O677 Li616 1.970 . S
O677 Li617 1.956 1_455 S
O677 Li619 1.961 . S
O677 C626 1.325 . S
O678 Li616 1.961 . S
O678 Li618 1.956 . S
O678 Li619 1.970 . S
O678 C648 1.325 . S
O679 Li617 1.961 1_455 S
O679 Li618 1.970 . S
O679 Li619 1.956 . S
O679 C654 1.325 . S
H680 C622 0.929 . S
H681 C623 0.930 . S
H682 C624 0.930 . S
H683 C625 0.930 . S
H684 C627 0.930 . S
H685 C629 0.929 . S
H686 C630 0.930 . S
H687 C631 0.930 . S
H688 C634 0.930 1_655 S
H689 C637 0.929 . S
H690 C642 0.929 . S
H691 C643 0.930 . S
H692 C650 0.929 . S
H693 C651 0.930 . S
H694 C652 0.930 . S
H695 C653 0.930 . S
H696 C655 0.929 . S
H697 C656 0.922 1_655 S
H698 C657 0.930 . S
H699 C658 0.930 . S
H700 C662 0.929 . S
H701 C664 0.930 . S
H702 C670 0.929 . S
H703 C671 0.930 . S
Li704 N721 1.990 . S
Li704 O764 1.956 1_545 S
Li704 O765 1.970 . S
Li704 O766 1.961 . S
Li705 N729 1.990 . S
Li705 O764 1.970 . S
Li705 O765 1.956 1_565 S
Li705 O767 1.956 . S
Li706 N751 1.990 . S
Li706 O764 1.961 1_545 S
Li706 O766 1.956 . S
Li706 O767 1.970 1_545 S
Li707 N757 1.990 . S
Li707 O765 1.961 . S
Li707 O766 1.970 . S
Li707 O767 1.960 1_545 S
C708 C710 1.348 . S
C708 C711 1.356 . S
C708 O764 1.325 . S
N709 C712 1.314 . S
N709 C713 1.279 . S
C710 C708 1.348 . S
C710 C712 1.353 . S
C710 H768 0.929 . S
C711 C708 1.356 . S
C711 C713 1.358 . S
C711 H769 0.930 . S
C712 N709 1.314 . S
C712 C710 1.353 . S
C712 H770 0.930 . S
C713 N709 1.279 . S
C713 C711 1.358 . S
C713 H771 0.930 . S
C714 C717 1.348 . S
C714 C718 1.356 . S
C714 O765 1.325 . S
C715 N716 1.279 . S
C715 C718 1.358 . S
C715 H772 0.930 . S
N716 C715 1.279 . S
N716 C719 1.314 . S
C717 C714 1.348 . S
C717 C719 1.353 . S
C717 H773 0.916 1_545 S
C718 C714 1.356 . S
C718 C715 1.358 . S
C718 H774 0.930 . S
C719 N716 1.314 . S
C719 C717 1.353 . S
C719 H775 0.923 1_545 S
C720 N721 1.314 . S
C720 C725 1.353 . S
C720 H726 0.930 . S
N721 Li704 1.990 . S
N721 C720 1.314 . S
N721 C723 1.279 1_545 S
C722 C723 1.358 1_545 S
C722 C724 1.356 . S
C722 H776 0.930 1_545 S
C723 N721 1.279 1_565 S
C723 C722 1.358 1_565 S
C723 H727 0.930 . S
C724 C722 1.356 . S
C724 C725 1.348 . S
C725 C720 1.353 . S
C725 C724 1.348 . S
C725 H777 0.929 . S
H726 C720 0.930 . S
H727 C723 0.930 . S
C728 N729 1.314 . S
C728 C730 1.353 . S
C728 H734 0.930 . S
N729 Li705 1.990 . S
N729 C728 1.314 . S
N729 C732 1.279 . S
C730 C728 1.353 . S
C730 C733 1.348 . S
C730 H778 0.929 . S
C731 C732 1.358 . S
C731 C733 1.356 . S
C731 H779 0.930 . S
C732 N729 1.279 . S
C732 C731 1.358 . S
C732 H735 0.930 . S
C733 C730 1.348 . S
C733 C731 1.356 . S
H734 C728 0.930 . S
H735 C732 0.930 . S
C736 C738 1.348 . S
C736 C739 1.356 . S
C736 O766 1.325 . S
N737 C740 1.314 . S
N737 C741 1.279 . S
C738 C736 1.348 . S
C738 C740 1.353 . S
C738 H780 0.929 . S
C739 C736 1.356 . S
C739 C741 1.358 . S
C739 H781 0.930 . S
C740 N737 1.314 . S
C740 C738 1.353 . S
C740 H782 0.930 . S
C741 N737 1.279 . S
C741 C739 1.358 . S
C741 H783 0.930 . S
C742 C743 1.348 1_565 S
C742 C744 1.356 . S
C742 O767 1.326 . S
C743 C742 1.348 1_545 S
C743 C745 1.359 1_545 S
C743 H784 0.929 . S
C744 C742 1.356 . S
C744 C746 1.358 . S
C744 H785 0.930 . S
C745 C743 1.359 1_565 S
C745 N747 1.322 . S
C745 H786 0.917 1_565 S
C746 C744 1.358 . S
C746 N747 1.279 . S
C746 H787 0.930 . S
N747 C745 1.322 . S
N747 C746 1.279 . S
C748 C750 1.353 . S
C748 N751 1.314 1_565 S
C748 H754 0.930 . S
C749 N751 1.279 . S
C749 C752 1.358 . S
C749 H755 0.930 . S
C750 C748 1.353 . S
C750 C753 1.348 1_565 S
C750 H788 0.929 . S
N751 Li706 1.990 . S
N751 C748 1.314 1_545 S
N751 C749 1.279 . S
C752 C749 1.358 . S
C752 C753 1.356 . S
C752 H789 0.930 . S
C753 C750 1.348 1_545 S
C753 C752 1.356 . S
H754 C748 0.930 . S
H755 C749 0.930 . S
C756 N757 1.314 . S
C756 C758 1.353 . S
C756 H762 0.930 . S
N757 Li707 1.990 . S
N757 C756 1.314 . S
N757 C760 1.279 . S
C758 C756 1.353 . S
C758 C761 1.348 . S
C758 H790 0.929 . S
C759 C760 1.358 . S
C759 C761 1.356 . S
C759 H791 0.930 . S
C760 N757 1.279 . S
C760 C759 1.358 . S
C760 H763 0.930 . S
C761 C758 1.348 . S
C761 C759 1.356 . S
H762 C756 0.930 . S
H763 C760 0.930 . S
O764 Li704 1.956 1_565 S
O764 Li705 1.970 . S
O764 Li706 1.961 1_565 S
O764 C708 1.325 . S
O765 Li704 1.970 . S
O765 Li705 1.956 1_545 S
O765 Li707 1.961 . S
O765 C714 1.325 . S
O766 Li704 1.961 . S
O766 Li706 1.956 . S
O766 Li707 1.970 . S
O766 C736 1.325 . S
O767 Li705 1.956 . S
O767 Li706 1.970 1_565 S
O767 Li707 1.960 1_565 S
O767 C742 1.326 . S
H768 C710 0.929 . S
H769 C711 0.930 . S
H770 C712 0.930 . S
H771 C713 0.930 . S
H772 C715 0.930 . S
H773 C717 0.916 1_565 S
H774 C718 0.930 . S
H775 C719 0.923 1_565 S
H776 C722 0.930 1_565 S
H777 C725 0.929 . S
H778 C730 0.929 . S
H779 C731 0.930 . S
H780 C738 0.929 . S
H781 C739 0.930 . S
H782 C740 0.930 . S
H783 C741 0.930 . S
H784 C743 0.929 . S
H785 C744 0.930 . S
H786 C745 0.917 1_545 S
H787 C746 0.930 . S
H788 C750 0.929 . S
H789 C752 0.930 . S
H790 C758 0.929 . S
H791 C759 0.930 . S
Li792 N809 1.990 . S
Li792 O852 1.956 . S
Li792 O853 1.970 . S
Li792 O854 1.961 . S
Li793 N817 1.990 . S
Li793 O852 1.970 . S
Li793 O853 1.956 . S
Li793 O855 1.961 . S
Li794 N839 1.990 . S
Li794 O852 1.961 . S
Li794 O854 1.956 . S
Li794 O855 1.970 . S
Li795 N845 1.990 . S
Li795 O853 1.961 . S
Li795 O854 1.970 . S
Li795 O855 1.956 . S
C796 C798 1.348 . S
C796 C799 1.356 . S
C796 O852 1.325 . S
N797 C800 1.314 . S
N797 C801 1.279 . S
C798 C796 1.348 . S
C798 C800 1.353 . S
C798 H856 0.929 . S
C799 C796 1.356 . S
C799 C801 1.358 . S
C799 H857 0.930 . S
C800 N797 1.314 . S
C800 C798 1.353 . S
C800 H858 0.930 . S
C801 N797 1.279 . S
C801 C799 1.358 . S
C801 H859 0.930 . S
C802 C805 1.348 . S
C802 C806 1.356 . S
C802 O853 1.325 . S
C803 N804 1.279 . S
C803 C806 1.358 . S
C803 H860 0.930 . S
N804 C803 1.279 . S
N804 C807 1.314 . S
C805 C802 1.348 . S
C805 C807 1.353 . S
C805 H861 0.929 . S
C806 C802 1.356 . S
C806 C803 1.358 . S
C806 H862 0.930 . S
C807 N804 1.314 . S
C807 C805 1.353 . S
C807 H863 0.930 . S
C808 N809 1.314 . S
C808 C813 1.353 . S
C808 H814 0.930 . S
N809 Li792 1.990 . S
N809 C808 1.314 . S
N809 C811 1.279 . S
C810 C811 1.358 . S
C810 C812 1.356 . S
C810 H864 0.930 . S
C811 N809 1.279 . S
C811 C810 1.358 . S
C811 H815 0.930 . S
C812 C810 1.356 . S
C812 C813 1.348 . S
C813 C808 1.353 . S
C813 C812 1.348 . S
C813 H865 0.929 . S
H814 C808 0.930 . S
H815 C811 0.930 . S
C816 N817 1.314 . S
C816 C818 1.353 . S
C816 H822 0.930 . S
N817 Li793 1.990 . S
N817 C816 1.314 . S
N817 C820 1.279 . S
C818 C816 1.353 . S
C818 C821 1.348 . S
C818 H866 0.929 . S
C819 C820 1.358 . S
C819 C821 1.356 . S
C819 H867 0.930 . S
C820 N817 1.279 . S
C820 C819 1.358 . S
C820 H823 0.930 . S
C821 C818 1.348 . S
C821 C819 1.356 . S
H822 C816 0.930 . S
H823 C820 0.930 . S
C824 C826 1.348 . S
C824 C827 1.356 . S
C824 O854 1.325 . S
N825 C828 1.314 . S
N825 C829 1.279 . S
C826 C824 1.348 . S
C826 C828 1.353 . S
C826 H868 0.929 . S
C827 C824 1.356 . S
C827 C829 1.358 . S
C827 H869 0.930 . S
C828 N825 1.314 . S
C828 C826 1.353 . S
C828 H870 0.930 . S
C829 N825 1.279 . S
C829 C827 1.358 . S
C829 H871 0.930 . S
C830 C831 1.348 . S
C830 C832 1.356 . S
C830 O855 1.325 . S
C831 C830 1.348 . S
C831 C833 1.353 . S
C831 H872 0.929 . S
C832 C830 1.356 . S
C832 C834 1.358 . S
C832 H873 0.930 . S
C833 C831 1.353 . S
C833 N835 1.314 . S
C833 H874 0.930 . S
C834 C832 1.358 . S
C834 N835 1.279 . S
C834 H875 0.930 . S
N835 C833 1.314 . S
N835 C834 1.279 . S
C836 C838 1.353 . S
C836 N839 1.314 . S
C836 H842 0.930 . S
C837 N839 1.279 . S
C837 C840 1.358 . S
C837 H843 0.930 . S
C838 C836 1.353 . S
C838 C841 1.348 . S
C838 H876 0.929 . S
N839 Li794 1.990 . S
N839 C836 1.314 . S
N839 C837 1.279 . S
C840 C837 1.358 . S
C840 C841 1.356 . S
C840 H877 0.930 . S
C841 C838 1.348 . S
C841 C840 1.356 . S
H842 C836 0.930 . S
H843 C837 0.930 . S
C844 N845 1.314 . S
C844 C846 1.353 . S
C844 H850 0.930 . S
N845 Li795 1.990 . S
N845 C844 1.314 . S
N845 C848 1.279 . S
C846 C844 1.353 . S
C846 C849 1.348 . S
C846 H878 0.929 . S
C847 C848 1.358 . S
C847 C849 1.356 . S
C847 H879 0.930 . S
C848 N845 1.279 . S
C848 C847 1.358 . S
C848 H851 0.930 . S
C849 C846 1.348 . S
C849 C847 1.356 . S
H850 C844 0.930 . S
H851 C848 0.930 . S
O852 Li792 1.956 . S
O852 Li793 1.970 . S
O852 Li794 1.961 . S
O852 C796 1.325 . S
O853 Li792 1.970 . S
O853 Li793 1.956 . S
O853 Li795 1.961 . S
O853 C802 1.325 . S
O854 Li792 1.961 . S
O854 Li794 1.956 . S
O854 Li795 1.970 . S
O854 C824 1.325 . S
O855 Li793 1.961 . S
O855 Li794 1.970 . S
O855 Li795 1.956 . S
O855 C830 1.325 . S
H856 C798 0.929 . S
H857 C799 0.930 . S
H858 C800 0.930 . S
H859 C801 0.930 . S
H860 C803 0.930 . S
H861 C805 0.929 . S
H862 C806 0.930 . S
H863 C807 0.930 . S
H864 C810 0.930 . S
H865 C813 0.929 . S
H866 C818 0.929 . S
H867 C819 0.930 . S
H868 C826 0.929 . S
H869 C827 0.930 . S
H870 C828 0.930 . S
H871 C829 0.930 . S
H872 C831 0.929 . S
H873 C832 0.930 . S
H874 C833 0.930 . S
H875 C834 0.930 . S
H876 C838 0.929 . S
H877 C840 0.930 . S
H878 C846 0.929 . S
H879 C847 0.930 . S
Li880 N897 1.990 . S
Li880 O940 1.956 . S
Li880 O941 1.970 . S
Li880 O942 1.961 . S
Li881 N905 1.990 . S
Li881 O940 1.970 . S
Li881 O941 1.956 . S
Li881 O943 1.961 1_545 S
Li882 N927 1.990 . S
Li882 O940 1.961 1_565 S
Li882 O942 1.956 1_565 S
Li882 O943 1.970 . S
Li883 N933 1.994 1_545 S
Li883 O941 1.985 . S
Li883 O942 1.970 . S
Li883 O943 1.930 1_545 S
C884 C886 1.348 . S
C884 C887 1.356 . S
C884 O940 1.325 . S
N885 C888 1.314 . S
N885 C889 1.279 . S
C886 C884 1.348 . S
C886 C888 1.353 . S
C886 H944 0.929 . S
C887 C884 1.356 . S
C887 C889 1.358 . S
C887 H945 0.930 . S
C888 N885 1.314 . S
C888 C886 1.353 . S
C888 H946 0.930 . S
C889 N885 1.279 . S
C889 C887 1.358 . S
C889 H947 0.930 . S
C890 C893 1.348 . S
C890 C894 1.356 . S
C890 O941 1.325 . S
C891 N892 1.279 . S
C891 C894 1.358 . S
C891 H948 0.930 . S
N892 C891 1.279 . S
N892 C895 1.314 . S
C893 C890 1.348 . S
C893 C895 1.353 . S
C893 H949 0.929 . S
C894 C890 1.356 . S
C894 C891 1.358 . S
C894 H950 0.930 . S
C895 N892 1.314 . S
C895 C893 1.353 . S
C895 H951 0.930 . S
C896 N897 1.314 . S
C896 C901 1.353 . S
C896 H902 0.930 . S
N897 Li880 1.990 . S
N897 C896 1.314 . S
N897 C899 1.279 . S
C898 C899 1.358 . S
C898 C900 1.356 . S
C898 H952 0.930 . S
C899 N897 1.279 . S
C899 C898 1.358 . S
C899 H903 0.930 . S
C900 C898 1.356 . S
C900 C901 1.348 . S
C901 C896 1.353 . S
C901 C900 1.348 . S
C901 H953 0.929 . S
H902 C896 0.930 . S
H903 C899 0.930 . S
C904 N905 1.314 1_565 S
C904 C906 1.353 . S
C904 H910 0.930 . S
N905 Li881 1.990 . S
N905 C904 1.314 1_545 S
N905 C908 1.279 . S
C906 C904 1.353 . S
C906 C909 1.348 1_565 S
C906 H954 0.929 . S
C907 C908 1.358 . S
C907 C909 1.356 . S
C907 H955 0.930 . S
C908 N905 1.279 . S
C908 C907 1.358 . S
C908 H911 0.930 . S
C909 C906 1.348 1_545 S
C909 C907 1.356 . S
H910 C904 0.930 . S
H911 C908 0.930 . S
C912 C914 1.348 1_545 S
C912 C915 1.356 . S
C912 O942 1.325 . S
N913 C916 1.314 1_545 S
N913 C917 1.279 . S
C914 C912 1.348 1_565 S
C914 C916 1.353 . S
C914 H956 0.929 . S
C915 C912 1.356 . S
C915 C917 1.358 . S
C915 H957 0.930 . S
C916 N913 1.314 1_565 S
C916 C914 1.353 . S
C916 H958 0.930 . S
C917 N913 1.279 . S
C917 C915 1.358 . S
C917 H959 0.930 . S
C918 C919 1.348 . S
C918 C920 1.356 . S
C918 O943 1.325 . S
C919 C918 1.348 . S
C919 C921 1.353 . S
C919 H960 0.929 . S
C920 C918 1.356 . S
C920 C922 1.358 . S
C920 H961 0.930 . S
C921 C919 1.353 . S
C921 N923 1.314 . S
C921 H962 0.930 . S
C922 C920 1.358 . S
C922 N923 1.279 . S
C922 H963 0.930 . S
N923 C921 1.314 . S
N923 C922 1.279 . S
C924 C926 1.353 . S
C924 N927 1.314 . S
C924 H930 0.930 . S
C925 N927 1.279 . S
C925 C928 1.358 . S
C925 H931 0.930 . S
C926 C924 1.353 . S
C926 C929 1.348 . S
C926 H964 0.929 . S
N927 Li882 1.990 . S
N927 C924 1.314 . S
N927 C925 1.279 . S
C928 C925 1.358 . S
C928 C929 1.356 . S
C928 H965 0.930 . S
C929 C926 1.348 . S
C929 C928 1.356 . S
H930 C924 0.930 . S
H931 C925 0.930 . S
C932 N933 1.314 1_545 S
C932 C934 1.353 . S
C932 H938 0.930 . S
N933 Li883 1.994 1_565 S
N933 C932 1.314 1_565 S
N933 C936 1.279 . S
C934 C932 1.353 . S
C934 C937 1.348 1_545 S
C934 H966 0.929 . S
C935 C936 1.358 . S
C935 C937 1.356 . S
C935 H967 0.930 . S
C936 N933 1.279 . S
C936 C935 1.358 . S
C936 H939 0.930 . S
C937 C934 1.348 1_565 S
C937 C935 1.356 . S
H938 C932 0.930 . S
H939 C936 0.930 . S
O940 Li880 1.956 . S
O940 Li881 1.970 . S
O940 Li882 1.961 1_545 S
O940 C884 1.325 . S
O941 Li880 1.970 . S
O941 Li881 1.956 . S
O941 Li883 1.985 . S
O941 C890 1.325 . S
O942 Li880 1.961 . S
O942 Li882 1.956 1_545 S
O942 Li883 1.970 . S
O942 C912 1.325 . S
O943 Li881 1.961 1_565 S
O943 Li882 1.970 . S
O943 Li883 1.930 1_565 S
O943 C918 1.325 . S
H944 C886 0.929 . S
H945 C887 0.930 . S
H946 C888 0.930 . S
H947 C889 0.930 . S
H948 C891 0.930 . S
H949 C893 0.929 . S
H950 C894 0.930 . S
H951 C895 0.930 . S
H952 C898 0.930 . S
H953 C901 0.929 . S
H954 C906 0.929 . S
H955 C907 0.930 . S
H956 C914 0.929 . S
H957 C915 0.930 . S
H958 C916 0.930 . S
H959 C917 0.930 . S
H960 C919 0.929 . S
H961 C920 0.930 . S
H962 C921 0.930 . S
H963 C922 0.930 . S
H964 C926 0.929 . S
H965 C928 0.930 . S
H966 C934 0.929 . S
H967 C935 0.930 . S
Li968 N985 1.990 . S
Li968 O1028 1.956 . S
Li968 O1029 1.970 . S
Li968 O1030 1.961 1_554 S
Li969 N993 1.990 . S
Li969 O1028 1.970 . S
Li969 O1029 1.956 . S
Li969 O1031 1.961 . S
Li970 N1015 1.990 . S
Li970 O1028 1.961 . S
Li970 O1030 1.956 1_554 S
Li970 O1031 1.970 . S
Li971 N1021 1.990 . S
Li971 O1029 1.961 1_556 S
Li971 O1030 1.970 . S
Li971 O1031 1.956 1_556 S
C972 C974 1.348 . S
C972 C975 1.356 . S
C972 O1028 1.325 . S
N973 C976 1.314 . S
N973 C977 1.279 . S
C974 C972 1.348 . S
C974 C976 1.353 . S
C974 H1032 0.929 . S
C975 C972 1.356 . S
C975 C977 1.358 . S
C975 H1033 0.930 . S
C976 N973 1.314 . S
C976 C974 1.353 . S
C976 H1034 0.930 . S
C977 N973 1.279 . S
C977 C975 1.358 . S
C977 H1035 0.913 1_565 S
C978 C981 1.348 . S
C978 C982 1.356 1_554 S
C978 O1029 1.325 . S
C979 N980 1.279 1_556 S
C979 C982 1.358 . S
C979 H1036 0.930 . S
N980 C979 1.279 1_554 S
N980 C983 1.314 . S
C981 C978 1.348 . S
C981 C983 1.353 . S
C981 H1037 0.929 . S
C982 C978 1.356 1_556 S
C982 C979 1.358 . S
C982 H1038 0.930 . S
C983 N980 1.314 . S
C983 C981 1.353 . S
C983 H1039 0.930 . S
C984 N985 1.314 1_556 S
C984 C989 1.353 . S
C984 H990 0.930 . S
N985 Li968 1.990 . S
N985 C984 1.314 1_554 S
N985 C987 1.279 . S
C986 C987 1.358 . S
C986 C988 1.356 . S
C986 H1040 0.930 . S
C987 N985 1.279 . S
C987 C986 1.358 . S
C987 H991 0.930 . S
C988 C986 1.356 . S
C988 C989 1.348 1_554 S
C989 C984 1.353 . S
C989 C988 1.348 1_556 S
C989 H1041 0.929 . S
H990 C984 0.930 . S
H991 C987 0.930 . S
C992 N993 1.314 . S
C992 C994 1.353 . S
C992 H998 0.930 . S
N993 Li969 1.990 . S
N993 C992 1.314 . S
N993 C996 1.279 . S
C994 C992 1.353 . S
C994 C997 1.348 . S
C994 H1042 0.929 . S
C995 C996 1.358 . S
C995 C997 1.356 . S
C995 H1043 0.930 . S
C996 N993 1.279 . S
C996 C995 1.358 . S
C996 H999 0.930 . S
C997 C994 1.348 . S
C997 C995 1.356 . S
H998 C992 0.930 . S
H999 C996 0.930 . S
C1000 C1002 1.348 . S
C1000 C1003 1.356 . S
C1000 O1030 1.325 . S
N1001 C1004 1.314 . S
N1001 C1005 1.279 . S
C1002 C1000 1.348 . S
C1002 C1004 1.353 . S
C1002 H1044 0.929 . S
C1003 C1000 1.356 . S
C1003 C1005 1.358 . S
C1003 H1045 0.930 . S
C1004 N1001 1.314 . S
C1004 C1002 1.353 . S
C1004 H1046 0.930 . S
C1005 N1001 1.279 . S
C1005 C1003 1.358 . S
C1005 H1047 0.930 . S
C1006 C1007 1.348 . S
C1006 C1008 1.356 . S
C1006 O1031 1.325 . S
C1007 C1006 1.348 . S
C1007 C1009 1.353 . S
C1007 H1048 0.929 . S
C1008 C1006 1.356 . S
C1008 C1010 1.358 . S
C1008 H1049 0.930 . S
C1009 C1007 1.353 . S
C1009 N1011 1.314 . S
C1009 H1050 0.939 . S
C1010 C1008 1.358 . S
C1010 N1011 1.279 . S
C1010 H1051 0.930 . S
N1011 C1009 1.314 . S
N1011 C1010 1.279 . S
C1012 C1014 1.353 . S
C1012 N1015 1.314 . S
C1012 H1018 0.930 . S
C1013 N1015 1.311 . S
C1013 C1016 1.356 . S
C1013 H1019 0.899 1_554 S
C1014 C1012 1.353 . S
C1014 C1017 1.348 . S
C1014 H1052 0.929 . S
N1015 Li970 1.990 . S
N1015 C1012 1.314 . S
N1015 C1013 1.311 . S
C1016 C1013 1.356 . S
C1016 C1017 1.356 . S
C1016 H1053 0.930 1_554 S
C1017 C1014 1.348 . S
C1017 C1016 1.356 . S
H1018 C1012 0.930 . S
H1019 C1013 0.899 1_556 S
C1020 N1021 1.314 . S
C1020 C1022 1.353 . S
C1020 H1026 0.930 . S
N1021 Li971 1.990 . S
N1021 C1020 1.314 . S
N1021 C1024 1.279 . S
C1022 C1020 1.353 . S
C1022 C1025 1.348 . S
C1022 H1054 0.929 . S
C1023 C1024 1.358 . S
C1023 C1025 1.356 . S
C1023 H1055 0.930 . S
C1024 N1021 1.279 . S
C1024 C1023 1.358 . S
C1024 H1027 0.930 . S
C1025 C1022 1.348 . S
C1025 C1023 1.356 . S
H1026 C1020 0.930 . S
H1027 C1024 0.930 . S
O1028 Li968 1.956 . S
O1028 Li969 1.970 . S
O1028 Li970 1.961 . S
O1028 C972 1.325 . S
O1029 Li968 1.970 . S
O1029 Li969 1.956 . S
O1029 Li971 1.961 1_554 S
O1029 C978 1.325 . S
O1030 Li968 1.961 1_556 S
O1030 Li970 1.956 1_556 S
O1030 Li971 1.970 . S
O1030 C1000 1.325 . S
O1031 Li969 1.961 . S
O1031 Li970 1.970 . S
O1031 Li971 1.956 1_554 S
O1031 C1006 1.325 . S
H1032 C974 0.929 . S
H1033 C975 0.930 . S
H1034 C976 0.930 . S
H1035 C977 0.913 1_545 S
H1036 C979 0.930 . S
H1037 C981 0.929 . S
H1038 C982 0.930 . S
H1039 C983 0.930 . S
H1040 C986 0.930 . S
H1041 C989 0.929 . S
H1042 C994 0.929 . S
H1043 C995 0.930 . S
H1044 C1002 0.929 . S
H1045 C1003 0.930 . S
H1046 C1004 0.930 . S
H1047 C1005 0.930 . S
H1048 C1007 0.929 . S
H1049 C1008 0.930 . S
H1050 C1009 0.939 . S
H1051 C1010 0.930 . S
H1052 C1014 0.929 . S
H1053 C1016 0.930 1_556 S
H1054 C1022 0.929 . S
H1055 C1023 0.930 . S
Li1056 N1073 1.990 . S
Li1056 O1116 1.956 . S
Li1056 O1117 1.970 . S
Li1056 O1118 1.961 1_554 S
Li1057 N1081 1.990 . S
Li1057 O1116 1.970 . S
Li1057 O1117 1.956 . S
Li1057 O1119 1.961 . S
Li1058 N1103 1.990 . S
Li1058 O1116 1.961 . S
Li1058 O1118 1.956 1_554 S
Li1058 O1119 1.970 . S
Li1059 N1109 1.990 . S
Li1059 O1117 1.961 1_556 S
Li1059 O1118 1.970 . S
Li1059 O1119 1.956 1_556 S
C1060 C1062 1.348 . S
C1060 C1063 1.356 . S
C1060 O1116 1.325 . S
N1061 C1064 1.314 . S
N1061 C1065 1.279 . S
C1062 C1060 1.348 . S
C1062 C1064 1.353 . S
C1062 H1120 0.929 . S
C1063 C1060 1.356 . S
C1063 C1065 1.358 . S
C1063 H1121 0.930 . S
C1064 N1061 1.314 . S
C1064 C1062 1.353 . S
C1064 H1122 0.930 . S
C1065 N1061 1.279 . S
C1065 C1063 1.358 . S
C1065 H1123 0.930 . S
C1066 C1069 1.348 . S
C1066 C1070 1.356 . S
C1066 O1117 1.325 . S
C1067 N1068 1.279 . S
C1067 C1070 1.358 . S
C1067 H1124 0.930 1_554 S
N1068 C1067 1.279 . S
N1068 C1071 1.314 . S
C1069 C1066 1.348 . S
C1069 C1071 1.353 . S
C1069 H1125 0.929 . S
C1070 C1066 1.356 . S
C1070 C1067 1.358 . S
C1070 H1126 0.930 . S
C1071 N1068 1.314 . S
C1071 C1069 1.353 . S
C1071 H1127 0.930 . S
C1072 N1073 1.314 . S
C1072 C1077 1.353 . S
C1072 H1078 0.930 1_554 S
N1073 Li1056 1.990 . S
N1073 C1072 1.314 . S
N1073 C1075 1.279 . S
C1074 C1075 1.358 . S
C1074 C1076 1.356 . S
C1074 H1128 0.930 . S
C1075 N1073 1.279 . S
C1075 C1074 1.358 . S
C1075 H1079 0.930 . S
C1076 C1074 1.356 . S
C1076 C1077 1.348 . S
C1077 C1072 1.353 . S
C1077 C1076 1.348 . S
C1077 H1129 0.929 1_554 S
H1078 C1072 0.930 1_556 S
H1079 C1075 0.930 . S
C1080 N1081 1.314 . S
C1080 C1082 1.353 . S
C1080 H1086 0.930 . S
N1081 Li1057 1.990 . S
N1081 C1080 1.314 . S
N1081 C1084 1.279 . S
C1082 C1080 1.353 . S
C1082 C1085 1.348 . S
C1082 H1130 0.929 . S
C1083 C1084 1.358 . S
C1083 C1085 1.356 . S
C1083 H1131 0.930 . S
C1084 N1081 1.279 . S
C1084 C1083 1.358 . S
C1084 H1087 0.930 . S
C1085 C1082 1.348 . S
C1085 C1083 1.356 . S
H1086 C1080 0.930 . S
H1087 C1084 0.930 . S
C1088 C1090 1.348 . S
C1088 C1091 1.356 . S
C1088 O1118 1.325 . S
N1089 C1092 1.314 . S
N1089 C1093 1.279 . S
C1090 C1088 1.348 . S
C1090 C1092 1.353 . S
C1090 H1132 0.929 . S
C1091 C1088 1.356 . S
C1091 C1093 1.358 . S
C1091 H1133 0.930 . S
C1092 N1089 1.314 . S
C1092 C1090 1.353 . S
C1092 H1134 0.930 . S
C1093 N1089 1.279 . S
C1093 C1091 1.358 . S
C1093 H1135 0.930 . S
C1094 C1095 1.348 . S
C1094 C1096 1.356 . S
C1094 O1119 1.325 . S
C1095 C1094 1.348 . S
C1095 C1097 1.353 . S
C1095 H1136 0.929 . S
C1096 C1094 1.356 . S
C1096 C1098 1.358 . S
C1096 H1137 0.930 . S
C1097 C1095 1.353 . S
C1097 N1099 1.314 . S
C1097 H1138 0.930 . S
C1098 C1096 1.358 . S
C1098 N1099 1.279 . S
C1098 H1139 0.930 . S
N1099 C1097 1.314 . S
N1099 C1098 1.279 . S
C1100 C1102 1.353 . S
C1100 N1103 1.314 . S
C1100 H1106 0.930 . S
C1101 N1103 1.279 . S
C1101 C1104 1.358 . S
C1101 H1107 0.930 1_554 S
C1102 C1100 1.353 . S
C1102 C1105 1.348 . S
C1102 H1140 0.929 . S
N1103 Li1058 1.990 . S
N1103 C1100 1.314 . S
N1103 C1101 1.279 . S
C1104 C1101 1.358 . S
C1104 C1105 1.356 . S
C1104 H1141 0.930 1_554 S
C1105 C1102 1.348 . S
C1105 C1104 1.356 . S
H1106 C1100 0.930 . S
H1107 C1101 0.930 1_556 S
C1108 N1109 1.314 . S
C1108 C1110 1.353 . S
C1108 H1114 0.930 . S
N1109 Li1059 1.990 . S
N1109 C1108 1.314 . S
N1109 C1112 1.279 . S
C1110 C1108 1.353 . S
C1110 C1113 1.348 . S
C1110 H1142 0.929 . S
C1111 C1112 1.358 . S
C1111 C1113 1.356 . S
C1111 H1143 0.930 . S
C1112 N1109 1.279 . S
C1112 C1111 1.358 . S
C1112 H1115 0.930 . S
C1113 C1110 1.348 . S
C1113 C1111 1.356 . S
H1114 C1108 0.930 . S
H1115 C1112 0.930 . S
O1116 Li1056 1.956 . S
O1116 Li1057 1.970 . S
O1116 Li1058 1.961 . S
O1116 C1060 1.325 . S
O1117 Li1056 1.970 . S
O1117 Li1057 1.956 . S
O1117 Li1059 1.961 1_554 S
O1117 C1066 1.325 . S
O1118 Li1056 1.961 1_556 S
O1118 Li1058 1.956 1_556 S
O1118 Li1059 1.970 . S
O1118 C1088 1.325 . S
O1119 Li1057 1.961 . S
O1119 Li1058 1.970 . S
O1119 Li1059 1.956 1_554 S
O1119 C1094 1.325 . S
H1120 C1062 0.929 . S
H1121 C1063 0.930 . S
H1122 C1064 0.930 . S
H1123 C1065 0.930 . S
H1124 C1067 0.930 1_556 S
H1125 C1069 0.929 . S
H1126 C1070 0.930 . S
H1127 C1071 0.930 . S
H1128 C1074 0.930 . S
H1129 C1077 0.929 1_556 S
H1130 C1082 0.929 . S
H1131 C1083 0.930 . S
H1132 C1090 0.929 . S
H1133 C1091 0.930 . S
H1134 C1092 0.930 . S
H1135 C1093 0.930 . S
H1136 C1095 0.929 . S
H1137 C1096 0.930 . S
H1138 C1097 0.930 . S
H1139 C1098 0.930 . S
H1140 C1102 0.929 . S
H1141 C1104 0.930 1_556 S
H1142 C1110 0.929 . S
H1143 C1111 0.930 . S
Li1144 N1161 1.990 . S
Li1144 O1204 1.956 . S
Li1144 O1205 1.970 . S
Li1144 O1206 1.961 . S
Li1145 N1169 1.990 . S
Li1145 O1204 1.970 . S
Li1145 O1205 1.956 . S
Li1145 O1207 1.961 1_554 S
Li1146 N1191 1.990 . S
Li1146 O1204 1.961 1_556 S
Li1146 O1206 1.956 1_556 S
Li1146 O1207 1.970 . S
Li1147 N1197 1.990 . S
Li1147 O1205 1.961 . S
Li1147 O1206 1.970 . S
Li1147 O1207 1.956 1_554 S
C1148 C1150 1.348 . S
C1148 C1151 1.356 . S
C1148 O1204 1.325 . S
N1149 C1152 1.314 . S
N1149 C1153 1.279 . S
C1150 C1148 1.348 . S
C1150 C1152 1.353 . S
C1150 H1208 0.929 . S
C1151 C1148 1.356 . S
C1151 C1153 1.358 . S
C1151 H1209 0.930 . S
C1152 N1149 1.314 . S
C1152 C1150 1.353 . S
C1152 H1210 0.930 . S
C1153 N1149 1.279 . S
C1153 C1151 1.358 . S
C1153 H1211 0.930 . S
C1154 C1157 1.348 . S
C1154 C1158 1.356 . S
C1154 O1205 1.325 . S
C1155 N1156 1.279 . S
C1155 C1158 1.358 . S
C1155 H1212 0.930 . S
N1156 C1155 1.279 . S
N1156 C1159 1.314 . S
C1157 C1154 1.348 . S
C1157 C1159 1.353 . S
C1157 H1213 0.929 . S
C1158 C1154 1.356 . S
C1158 C1155 1.358 . S
C1158 H1214 0.930 . S
C1159 N1156 1.314 . S
C1159 C1157 1.353 . S
C1159 H1215 0.930 . S
C1160 N1161 1.314 . S
C1160 C1165 1.353 . S
C1160 H1166 0.930 . S
N1161 Li1144 1.990 . S
N1161 C1160 1.314 . S
N1161 C1163 1.279 . S
C1162 C1163 1.358 . S
C1162 C1164 1.356 . S
C1162 H1216 0.930 . S
C1163 N1161 1.279 . S
C1163 C1162 1.358 . S
C1163 H1167 0.930 . S
C1164 C1162 1.356 . S
C1164 C1165 1.348 . S
C1165 C1160 1.353 . S
C1165 C1164 1.348 . S
C1165 H1217 0.929 . S
H1166 C1160 0.930 . S
H1167 C1163 0.930 . S
C1168 N1169 1.314 1_556 S
C1168 C1170 1.353 . S
C1168 H1174 0.930 . S
N1169 Li1145 1.990 . S
N1169 C1168 1.314 1_554 S
N1169 C1172 1.279 . S
C1170 C1168 1.353 . S
C1170 C1173 1.348 1_556 S
C1170 H1218 0.929 . S
C1171 C1172 1.358 . S
C1171 C1173 1.356 . S
C1171 H1219 0.930 . S
C1172 N1169 1.279 . S
C1172 C1171 1.358 . S
C1172 H1175 0.930 . S
C1173 C1170 1.348 1_554 S
C1173 C1171 1.356 . S
H1174 C1168 0.930 . S
H1175 C1172 0.930 . S
C1176 C1178 1.348 . S
C1176 C1179 1.356 . S
C1176 O1206 1.325 . S
N1177 C1180 1.314 . S
N1177 C1181 1.279 . S
C1178 C1176 1.348 . S
C1178 C1180 1.353 . S
C1178 H1220 0.940 . S
C1179 C1176 1.356 . S
C1179 C1181 1.358 . S
C1179 H1221 0.930 . S
C1180 N1177 1.314 . S
C1180 C1178 1.353 . S
C1180 H1222 0.930 . S
C1181 N1177 1.279 . S
C1181 C1179 1.358 . S
C1181 H1223 0.930 . S
C1182 C1183 1.348 . S
C1182 C1184 1.356 . S
C1182 O1207 1.325 . S
C1183 C1182 1.348 . S
C1183 C1185 1.353 . S
C1183 H1224 0.929 . S
C1184 C1182 1.356 . S
C1184 C1186 1.358 . S
C1184 H1225 0.930 . S
C1185 C1183 1.353 . S
C1185 N1187 1.314 . S
C1185 H1226 0.930 . S
C1186 C1184 1.358 . S
C1186 N1187 1.279 . S
C1186 H1227 0.930 . S
N1187 C1185 1.314 . S
N1187 C1186 1.279 . S
C1188 C1190 1.353 . S
C1188 N1191 1.314 . S
C1188 H1194 0.930 . S
C1189 N1191 1.279 . S
C1189 C1192 1.358 . S
C1189 H1195 0.930 . S
C1190 C1188 1.353 . S
C1190 C1193 1.348 . S
C1190 H1228 0.929 . S
N1191 Li1146 1.990 . S
N1191 C1188 1.314 . S
N1191 C1189 1.279 . S
C1192 C1189 1.358 . S
C1192 C1193 1.356 . S
C1192 H1229 0.930 . S
C1193 C1190 1.348 . S
C1193 C1192 1.356 . S
H1194 C1188 0.930 . S
H1195 C1189 0.930 . S
C1196 N1197 1.314 . S
C1196 C1198 1.353 . S
C1196 H1202 0.930 . S
N1197 Li1147 1.990 . S
N1197 C1196 1.314 . S
N1197 C1200 1.279 1_554 S
C1198 C1196 1.353 . S
C1198 C1201 1.348 . S
C1198 H1230 0.929 . S
C1199 C1200 1.358 . S
C1199 C1201 1.356 1_556 S
C1199 H1231 0.930 . S
C1200 N1197 1.279 1_556 S
C1200 C1199 1.358 . S
C1200 H1203 0.930 . S
C1201 C1198 1.348 . S
C1201 C1199 1.356 1_554 S
H1202 C1196 0.930 . S
H1203 C1200 0.930 . S
O1204 Li1144 1.956 . S
O1204 Li1145 1.970 . S
O1204 Li1146 1.961 1_554 S
O1204 C1148 1.325 . S
O1205 Li1144 1.970 . S
O1205 Li1145 1.956 . S
O1205 Li1147 1.961 . S
O1205 C1154 1.325 . S
O1206 Li1144 1.961 . S
O1206 Li1146 1.956 1_554 S
O1206 Li1147 1.970 . S
O1206 C1176 1.325 . S
O1207 Li1145 1.961 1_556 S
O1207 Li1146 1.970 . S
O1207 Li1147 1.956 1_556 S
O1207 C1182 1.325 . S
H1208 C1150 0.929 . S
H1209 C1151 0.930 . S
H1210 C1152 0.930 . S
H1211 C1153 0.930 . S
H1212 C1155 0.930 . S
H1213 C1157 0.929 . S
H1214 C1158 0.930 . S
H1215 C1159 0.930 . S
H1216 C1162 0.930 . S
H1217 C1165 0.929 . S
H1218 C1170 0.929 . S
H1219 C1171 0.930 . S
H1220 C1178 0.940 . S
H1221 C1179 0.930 . S
H1222 C1180 0.930 . S
H1223 C1181 0.930 . S
H1224 C1183 0.929 . S
H1225 C1184 0.930 . S
H1226 C1185 0.930 . S
H1227 C1186 0.930 . S
H1228 C1190 0.929 . S
H1229 C1192 0.930 . S
H1230 C1198 0.929 . S
H1231 C1199 0.930 . S
Li1232 N1249 1.990 . S
Li1232 O1292 1.956 . S
Li1232 O1293 1.970 . S
Li1232 O1294 1.961 . S
Li1233 N1257 1.990 . S
Li1233 O1292 1.970 . S
Li1233 O1293 1.956 . S
Li1233 O1295 1.961 . S
Li1234 N1279 1.990 . S
Li1234 O1292 1.961 . S
Li1234 O1294 1.956 . S
Li1234 O1295 1.970 . S
Li1235 N1285 1.990 . S
Li1235 O1293 1.961 . S
Li1235 O1294 1.970 . S
Li1235 O1295 1.956 . S
C1236 C1238 1.348 . S
C1236 C1239 1.356 . S
C1236 O1292 1.325 . S
N1237 C1240 1.314 . S
N1237 C1241 1.279 . S
C1238 C1236 1.348 . S
C1238 C1240 1.353 . S
C1238 H1296 0.929 . S
C1239 C1236 1.356 . S
C1239 C1241 1.358 . S
C1239 H1297 0.930 . S
C1240 N1237 1.314 . S
C1240 C1238 1.353 . S
C1240 H1298 0.930 . S
C1241 N1237 1.279 . S
C1241 C1239 1.358 . S
C1241 H1299 0.930 . S
C1242 C1245 1.348 . S
C1242 C1246 1.356 . S
C1242 O1293 1.325 . S
C1243 N1244 1.279 . S
C1243 C1246 1.358 . S
C1243 H1300 0.930 . S
N1244 C1243 1.279 . S
N1244 C1247 1.314 . S
C1245 C1242 1.348 . S
C1245 C1247 1.353 . S
C1245 H1301 0.929 . S
C1246 C1242 1.356 . S
C1246 C1243 1.358 . S
C1246 H1302 0.930 . S
C1247 N1244 1.314 . S
C1247 C1245 1.353 . S
C1247 H1303 0.930 . S
C1248 N1249 1.314 . S
C1248 C1253 1.353 . S
C1248 H1254 0.930 . S
N1249 Li1232 1.990 . S
N1249 C1248 1.314 . S
N1249 C1251 1.279 . S
C1250 C1251 1.358 . S
C1250 C1252 1.356 . S
C1250 H1304 0.930 . S
C1251 N1249 1.279 . S
C1251 C1250 1.358 . S
C1251 H1255 0.930 . S
C1252 C1250 1.356 . S
C1252 C1253 1.348 . S
C1253 C1248 1.353 . S
C1253 C1252 1.348 . S
C1253 H1305 0.929 . S
H1254 C1248 0.930 . S
H1255 C1251 0.930 . S
C1256 N1257 1.314 . S
C1256 C1258 1.353 . S
C1256 H1262 0.930 . S
N1257 Li1233 1.990 . S
N1257 C1256 1.314 . S
N1257 C1260 1.279 . S
C1258 C1256 1.353 . S
C1258 C1261 1.348 . S
C1258 H1306 0.929 . S
C1259 C1260 1.358 . S
C1259 C1261 1.356 . S
C1259 H1307 0.930 . S
C1260 N1257 1.279 . S
C1260 C1259 1.358 . S
C1260 H1263 0.930 . S
C1261 C1258 1.348 . S
C1261 C1259 1.356 . S
H1262 C1256 0.930 . S
H1263 C1260 0.930 . S
C1264 C1266 1.348 . S
C1264 C1267 1.356 . S
C1264 O1294 1.325 . S
N1265 C1268 1.314 . S
N1265 C1269 1.279 . S
C1266 C1264 1.348 . S
C1266 C1268 1.353 . S
C1266 H1308 0.929 . S
C1267 C1264 1.356 . S
C1267 C1269 1.358 . S
C1267 H1309 0.930 . S
C1268 N1265 1.314 . S
C1268 C1266 1.353 . S
C1268 H1310 0.930 . S
C1269 N1265 1.279 . S
C1269 C1267 1.358 . S
C1269 H1311 0.930 . S
C1270 C1271 1.348 . S
C1270 C1272 1.356 . S
C1270 O1295 1.325 . S
C1271 C1270 1.348 . S
C1271 C1273 1.353 . S
C1271 H1312 0.929 . S
C1272 C1270 1.356 . S
C1272 C1274 1.358 . S
C1272 H1313 0.930 . S
C1273 C1271 1.353 . S
C1273 N1275 1.314 . S
C1273 H1314 0.930 . S
C1274 C1272 1.358 . S
C1274 N1275 1.279 . S
C1274 H1315 0.930 . S
N1275 C1273 1.314 . S
N1275 C1274 1.279 . S
C1276 C1278 1.353 . S
C1276 N1279 1.314 . S
C1276 H1282 0.930 . S
C1277 N1279 1.279 . S
C1277 C1280 1.358 . S
C1277 H1283 0.930 . S
C1278 C1276 1.353 . S
C1278 C1281 1.348 . S
C1278 H1316 0.929 . S
N1279 Li1234 1.990 . S
N1279 C1276 1.314 . S
N1279 C1277 1.279 . S
C1280 C1277 1.358 . S
C1280 C1281 1.356 . S
C1280 H1317 0.930 . S
C1281 C1278 1.348 . S
C1281 C1280 1.356 . S
H1282 C1276 0.930 . S
H1283 C1277 0.930 . S
C1284 N1285 1.314 . S
C1284 C1286 1.353 . S
C1284 H1290 0.930 . S
N1285 Li1235 1.990 . S
N1285 C1284 1.314 . S
N1285 C1288 1.279 . S
C1286 C1284 1.353 . S
C1286 C1289 1.348 . S
C1286 H1318 0.929 . S
C1287 C1288 1.358 . S
C1287 C1289 1.356 . S
C1287 H1319 0.930 . S
C1288 N1285 1.279 . S
C1288 C1287 1.358 . S
C1288 H1291 0.930 . S
C1289 C1286 1.348 . S
C1289 C1287 1.356 . S
H1290 C1284 0.930 . S
H1291 C1288 0.930 . S
O1292 Li1232 1.956 . S
O1292 Li1233 1.970 . S
O1292 Li1234 1.961 . S
O1292 C1236 1.325 . S
O1293 Li1232 1.970 . S
O1293 Li1233 1.956 . S
O1293 Li1235 1.961 . S
O1293 C1242 1.325 . S
O1294 Li1232 1.961 . S
O1294 Li1234 1.956 . S
O1294 Li1235 1.970 . S
O1294 C1264 1.325 . S
O1295 Li1233 1.961 . S
O1295 Li1234 1.970 . S
O1295 Li1235 1.956 . S
O1295 C1270 1.325 . S
H1296 C1238 0.929 . S
H1297 C1239 0.930 . S
H1298 C1240 0.930 . S
H1299 C1241 0.930 . S
H1300 C1243 0.930 . S
H1301 C1245 0.929 . S
H1302 C1246 0.930 . S
H1303 C1247 0.930 . S
H1304 C1250 0.930 . S
H1305 C1253 0.929 . S
H1306 C1258 0.929 . S
H1307 C1259 0.930 . S
H1308 C1266 0.929 . S
H1309 C1267 0.930 . S
H1310 C1268 0.930 . S
H1311 C1269 0.930 . S
H1312 C1271 0.929 . S
H1313 C1272 0.930 . S
H1314 C1273 0.930 . S
H1315 C1274 0.930 . S
H1316 C1278 0.929 . S
H1317 C1280 0.930 . S
H1318 C1286 0.929 . S
H1319 C1287 0.930 . S
Li1320 N1337 1.990 . S
Li1320 O1380 1.956 . S
Li1320 O1381 1.970 . S
Li1320 O1382 1.961 . S
Li1321 N1345 1.990 . S
Li1321 O1380 1.970 . S
Li1321 O1381 1.956 . S
Li1321 O1383 1.961 . S
Li1322 N1367 1.990 . S
Li1322 O1380 1.961 . S
Li1322 O1382 1.956 . S
Li1322 O1383 1.970 . S
Li1323 N1373 1.990 . S
Li1323 O1381 1.961 . S
Li1323 O1382 1.970 . S
Li1323 O1383 1.956 . S
C1324 C1326 1.348 . S
C1324 C1327 1.356 . S
C1324 O1380 1.325 . S
N1325 C1328 1.314 . S
N1325 C1329 1.279 . S
C1326 C1324 1.348 . S
C1326 C1328 1.353 . S
C1326 H1384 0.929 . S
C1327 C1324 1.356 . S
C1327 C1329 1.358 . S
C1327 H1385 0.930 . S
C1328 N1325 1.314 . S
C1328 C1326 1.353 . S
C1328 H1386 0.930 . S
C1329 N1325 1.279 . S
C1329 C1327 1.358 . S
C1329 H1387 0.930 . S
C1330 C1333 1.348 . S
C1330 C1334 1.356 . S
C1330 O1381 1.325 . S
C1331 N1332 1.279 . S
C1331 C1334 1.358 . S
C1331 H1388 0.930 . S
N1332 C1331 1.279 . S
N1332 C1335 1.314 . S
C1333 C1330 1.348 . S
C1333 C1335 1.353 . S
C1333 H1389 0.929 . S
C1334 C1330 1.356 . S
C1334 C1331 1.358 . S
C1334 H1390 0.930 . S
C1335 N1332 1.314 . S
C1335 C1333 1.353 . S
C1335 H1391 0.930 . S
C1336 N1337 1.314 . S
C1336 C1341 1.353 . S
C1336 H1342 0.930 . S
N1337 Li1320 1.990 . S
N1337 C1336 1.314 . S
N1337 C1339 1.279 . S
C1338 C1339 1.358 . S
C1338 C1340 1.356 . S
C1338 H1392 0.930 . S
C1339 N1337 1.279 . S
C1339 C1338 1.358 . S
C1339 H1343 0.930 . S
C1340 C1338 1.356 . S
C1340 C1341 1.348 . S
C1341 C1336 1.353 . S
C1341 C1340 1.348 . S
C1341 H1393 0.929 . S
H1342 C1336 0.930 . S
H1343 C1339 0.930 . S
C1344 N1345 1.314 . S
C1344 C1346 1.353 . S
C1344 H1350 0.930 . S
N1345 Li1321 1.990 . S
N1345 C1344 1.314 . S
N1345 C1348 1.279 . S
C1346 C1344 1.353 . S
C1346 C1349 1.348 . S
C1346 H1394 0.929 . S
C1347 C1348 1.358 . S
C1347 C1349 1.356 . S
C1347 H1395 0.930 . S
C1348 N1345 1.279 . S
C1348 C1347 1.358 . S
C1348 H1351 0.930 . S
C1349 C1346 1.348 . S
C1349 C1347 1.356 . S
H1350 C1344 0.930 . S
H1351 C1348 0.930 . S
C1352 C1354 1.348 . S
C1352 C1355 1.356 . S
C1352 O1382 1.325 . S
N1353 C1356 1.314 . S
N1353 C1357 1.279 . S
C1354 C1352 1.348 . S
C1354 C1356 1.353 . S
C1354 H1396 0.929 . S
C1355 C1352 1.356 . S
C1355 C1357 1.358 . S
C1355 H1397 0.930 . S
C1356 N1353 1.314 . S
C1356 C1354 1.353 . S
C1356 H1398 0.930 . S
C1357 N1353 1.279 . S
C1357 C1355 1.358 . S
C1357 H1399 0.930 . S
C1358 C1359 1.348 . S
C1358 C1360 1.356 . S
C1358 O1383 1.325 . S
C1359 C1358 1.348 . S
C1359 C1361 1.353 . S
C1359 H1400 0.929 . S
C1360 C1358 1.356 . S
C1360 C1362 1.358 . S
C1360 H1401 0.930 . S
C1361 C1359 1.353 . S
C1361 N1363 1.314 . S
C1361 H1402 0.930 . S
C1362 C1360 1.358 . S
C1362 N1363 1.279 . S
C1362 H1403 0.930 . S
N1363 C1361 1.314 . S
N1363 C1362 1.279 . S
C1364 C1366 1.353 . S
C1364 N1367 1.314 . S
C1364 H1370 0.930 . S
C1365 N1367 1.279 . S
C1365 C1368 1.358 . S
C1365 H1371 0.930 . S
C1366 C1364 1.353 . S
C1366 C1369 1.348 . S
C1366 H1404 0.929 . S
N1367 Li1322 1.990 . S
N1367 C1364 1.314 . S
N1367 C1365 1.279 . S
C1368 C1365 1.358 . S
C1368 C1369 1.356 . S
C1368 H1405 0.930 . S
C1369 C1366 1.348 . S
C1369 C1368 1.356 . S
H1370 C1364 0.930 . S
H1371 C1365 0.930 . S
C1372 N1373 1.314 . S
C1372 C1374 1.353 . S
C1372 H1378 0.930 . S
N1373 Li1323 1.990 . S
N1373 C1372 1.314 . S
N1373 C1376 1.279 . S
C1374 C1372 1.353 . S
C1374 C1377 1.348 . S
C1374 H1406 0.929 . S
C1375 C1376 1.358 . S
C1375 C1377 1.356 . S
C1375 H1407 0.930 . S
C1376 N1373 1.279 . S
C1376 C1375 1.358 . S
C1376 H1379 0.930 . S
C1377 C1374 1.348 . S
C1377 C1375 1.356 . S
H1378 C1372 0.930 . S
H1379 C1376 0.930 . S
O1380 Li1320 1.956 . S
O1380 Li1321 1.970 . S
O1380 Li1322 1.961 . S
O1380 C1324 1.325 . S
O1381 Li1320 1.970 . S
O1381 Li1321 1.956 . S
O1381 Li1323 1.961 . S
O1381 C1330 1.325 . S
O1382 Li1320 1.961 . S
O1382 Li1322 1.956 . S
O1382 Li1323 1.970 . S
O1382 C1352 1.325 . S
O1383 Li1321 1.961 . S
O1383 Li1322 1.970 . S
O1383 Li1323 1.956 . S
O1383 C1358 1.325 . S
H1384 C1326 0.929 . S
H1385 C1327 0.930 . S
H1386 C1328 0.930 . S
H1387 C1329 0.930 . S
H1388 C1331 0.930 . S
H1389 C1333 0.929 . S
H1390 C1334 0.930 . S
H1391 C1335 0.930 . S
H1392 C1338 0.930 . S
H1393 C1341 0.929 . S
H1394 C1346 0.929 . S
H1395 C1347 0.930 . S
H1396 C1354 0.929 . S
H1397 C1355 0.930 . S
H1398 C1356 0.930 . S
H1399 C1357 0.930 . S
H1400 C1359 0.929 . S
H1401 C1360 0.930 . S
H1402 C1361 0.930 . S
H1403 C1362 0.930 . S
H1404 C1366 0.929 . S
H1405 C1368 0.930 . S
H1406 C1374 0.929 . S
H1407 C1375 0.930 . S
Li1408 N1425 1.990 . S
Li1408 O1468 1.956 . S
Li1408 O1469 1.970 . S
Li1408 O1470 1.961 . S
Li1409 N1433 1.990 . S
Li1409 O1468 1.970 . S
Li1409 O1469 1.956 . S
Li1409 O1471 1.961 . S
Li1410 N1455 1.990 . S
Li1410 O1468 1.961 . S
Li1410 O1470 1.956 . S
Li1410 O1471 1.970 . S
Li1411 N1461 1.990 . S
Li1411 O1469 1.961 . S
Li1411 O1470 1.970 . S
Li1411 O1471 1.956 . S
C1412 C1414 1.348 . S
C1412 C1415 1.356 . S
C1412 O1468 1.325 . S
N1413 C1416 1.314 . S
N1413 C1417 1.279 1_565 S
C1414 C1412 1.348 . S
C1414 C1416 1.353 1_545 S
C1414 H1472 0.926 1_545 S
C1415 C1412 1.356 . S
C1415 C1417 1.358 . S
C1415 H1473 0.930 . S
C1416 N1413 1.314 . S
C1416 C1414 1.353 1_565 S
C1416 H1474 0.930 . S
C1417 N1413 1.279 1_545 S
C1417 C1415 1.358 . S
C1417 H1475 0.930 . S
C1418 C1421 1.348 . S
C1418 C1422 1.356 . S
C1418 O1469 1.325 . S
C1419 N1420 1.279 . S
C1419 C1422 1.358 . S
C1419 H1476 0.930 . S
N1420 C1419 1.279 . S
N1420 C1423 1.314 . S
C1421 C1418 1.348 . S
C1421 C1423 1.353 . S
C1421 H1477 0.929 . S
C1422 C1418 1.356 . S
C1422 C1419 1.358 . S
C1422 H1478 0.930 . S
C1423 N1420 1.314 . S
C1423 C1421 1.353 . S
C1423 H1479 0.930 . S
C1424 N1425 1.314 . S
C1424 C1429 1.353 . S
C1424 H1430 0.930 . S
N1425 Li1408 1.990 . S
N1425 C1424 1.314 . S
N1425 C1427 1.279 . S
C1426 C1427 1.358 . S
C1426 C1428 1.356 . S
C1426 H1480 0.930 . S
C1427 N1425 1.279 . S
C1427 C1426 1.358 . S
C1427 H1431 0.930 . S
C1428 C1426 1.356 . S
C1428 C1429 1.348 . S
C1429 C1424 1.353 . S
C1429 C1428 1.348 . S
C1429 H1481 0.929 . S
H1430 C1424 0.930 . S
H1431 C1427 0.930 . S
C1432 N1433 1.314 1_565 S
C1432 C1434 1.353 . S
C1432 H1438 0.930 . S
N1433 Li1409 1.990 . S
N1433 C1432 1.314 1_545 S
N1433 C1436 1.304 . S
C1434 C1432 1.353 . S
C1434 C1437 1.348 . S
C1434 H1482 0.929 . S
C1435 C1436 1.314 1_565 S
C1435 C1437 1.356 . S
C1435 H1483 0.930 . S
C1436 N1433 1.304 . S
C1436 C1435 1.314 1_545 S
C1436 H1439 0.956 . S
C1437 C1434 1.348 . S
C1437 C1435 1.356 . S
H1438 C1432 0.930 . S
H1439 C1436 0.956 . S
C1440 C1442 1.348 . S
C1440 C1443 1.356 . S
C1440 O1470 1.325 . S
N1441 C1444 1.314 . S
N1441 C1445 1.279 . S
C1442 C1440 1.348 . S
C1442 C1444 1.353 . S
C1442 H1484 0.929 . S
C1443 C1440 1.356 . S
C1443 C1445 1.358 . S
C1443 H1485 0.930 . S
C1444 N1441 1.314 . S
C1444 C1442 1.353 . S
C1444 H1486 0.930 . S
C1445 N1441 1.279 . S
C1445 C1443 1.358 . S
C1445 H1487 0.930 . S
C1446 C1447 1.348 . S
C1446 C1448 1.356 . S
C1446 O1471 1.325 . S
C1447 C1446 1.348 . S
C1447 C1449 1.353 . S
C1447 H1488 0.929 . S
C1448 C1446 1.356 . S
C1448 C1450 1.358 . S
C1448 H1489 0.930 . S
C1449 C1447 1.353 . S
C1449 N1451 1.314 . S
C1449 H1490 0.930 . S
C1450 C1448 1.358 . S
C1450 N1451 1.279 . S
C1450 H1491 0.930 . S
N1451 C1449 1.314 . S
N1451 C1450 1.279 . S
C1452 C1454 1.353 . S
C1452 N1455 1.314 . S
C1452 H1458 0.930 . S
C1453 N1455 1.279 . S
C1453 C1456 1.358 . S
C1453 H1459 0.930 . S
C1454 C1452 1.353 . S
C1454 C1457 1.348 . S
C1454 H1492 0.929 . S
N1455 Li1410 1.990 . S
N1455 C1452 1.314 . S
N1455 C1453 1.279 . S
C1456 C1453 1.358 . S
C1456 C1457 1.356 . S
C1456 H1493 0.930 . S
C1457 C1454 1.348 . S
C1457 C1456 1.356 . S
H1458 C1452 0.930 . S
H1459 C1453 0.930 . S
C1460 N1461 1.314 . S
C1460 C1462 1.353 . S
C1460 H1466 0.930 . S
N1461 Li1411 1.990 . S
N1461 C1460 1.314 . S
N1461 C1464 1.279 . S
C1462 C1460 1.353 . S
C1462 C1465 1.348 . S
C1462 H1494 0.929 . S
C1463 C1464 1.358 . S
C1463 C1465 1.356 . S
C1463 H1495 0.930 . S
C1464 N1461 1.279 . S
C1464 C1463 1.358 . S
C1464 H1467 0.930 . S
C1465 C1462 1.348 . S
C1465 C1463 1.356 . S
H1466 C1460 0.930 . S
H1467 C1464 0.930 . S
O1468 Li1408 1.956 . S
O1468 Li1409 1.970 . S
O1468 Li1410 1.961 . S
O1468 C1412 1.325 . S
O1469 Li1408 1.970 . S
O1469 Li1409 1.956 . S
O1469 Li1411 1.961 . S
O1469 C1418 1.325 . S
O1470 Li1408 1.961 . S
O1470 Li1410 1.956 . S
O1470 Li1411 1.970 . S
O1470 C1440 1.325 . S
O1471 Li1409 1.961 . S
O1471 Li1410 1.970 . S
O1471 Li1411 1.956 . S
O1471 C1446 1.325 . S
H1472 C1414 0.926 1_565 S
H1473 C1415 0.930 . S
H1474 C1416 0.930 . S
H1475 C1417 0.930 . S
H1476 C1419 0.930 . S
H1477 C1421 0.929 . S
H1478 C1422 0.930 . S
H1479 C1423 0.930 . S
H1480 C1426 0.930 . S
H1481 C1429 0.929 . S
H1482 C1434 0.929 . S
H1483 C1435 0.930 . S
H1484 C1442 0.929 . S
H1485 C1443 0.930 . S
H1486 C1444 0.930 . S
H1487 C1445 0.930 . S
H1488 C1447 0.929 . S
H1489 C1448 0.930 . S
H1490 C1449 0.930 . S
H1491 C1450 0.930 . S
H1492 C1454 0.929 . S
H1493 C1456 0.930 . S
H1494 C1462 0.929 . S
H1495 C1463 0.930 . S
Li1496 N1513 1.990 . S
Li1496 O1556 1.956 . S
Li1496 O1557 1.970 . S
Li1496 O1558 1.961 . S
Li1497 N1521 1.990 . S
Li1497 O1556 1.970 . S
Li1497 O1557 1.956 . S
Li1497 O1559 1.961 . S
Li1498 N1543 1.990 . S
Li1498 O1556 1.961 . S
Li1498 O1558 1.956 . S
Li1498 O1559 1.970 . S
Li1499 N1549 1.990 . S
Li1499 O1557 1.961 . S
Li1499 O1558 1.970 . S
Li1499 O1559 1.956 . S
C1500 C1502 1.348 . S
C1500 C1503 1.356 . S
C1500 O1556 1.325 . S
N1501 C1504 1.314 . S
N1501 C1505 1.279 . S
C1502 C1500 1.348 . S
C1502 C1504 1.353 . S
C1502 H1560 0.929 . S
C1503 C1500 1.356 . S
C1503 C1505 1.358 . S
C1503 H1561 0.930 . S
C1504 N1501 1.314 . S
C1504 C1502 1.353 . S
C1504 H1562 0.930 . S
C1505 N1501 1.279 . S
C1505 C1503 1.358 . S
C1505 H1563 0.930 . S
C1506 C1509 1.348 . S
C1506 C1510 1.356 . S
C1506 O1557 1.325 . S
C1507 N1508 1.279 . S
C1507 C1510 1.358 . S
C1507 H1564 0.930 . S
N1508 C1507 1.279 . S
N1508 C1511 1.314 . S
C1509 C1506 1.348 . S
C1509 C1511 1.353 . S
C1509 H1565 0.929 . S
C1510 C1506 1.356 . S
C1510 C1507 1.358 . S
C1510 H1566 0.930 . S
C1511 N1508 1.314 . S
C1511 C1509 1.353 . S
C1511 H1567 0.930 . S
C1512 N1513 1.314 . S
C1512 C1517 1.353 . S
C1512 H1518 0.930 . S
N1513 Li1496 1.990 . S
N1513 C1512 1.314 . S
N1513 C1515 1.279 . S
C1514 C1515 1.358 . S
C1514 C1516 1.356 . S
C1514 H1568 0.930 . S
C1515 N1513 1.279 . S
C1515 C1514 1.358 . S
C1515 H1519 0.930 . S
C1516 C1514 1.356 . S
C1516 C1517 1.348 . S
C1517 C1512 1.353 . S
C1517 C1516 1.348 . S
C1517 H1569 0.929 . S
H1518 C1512 0.930 . S
H1519 C1515 0.930 . S
C1520 N1521 1.314 . S
C1520 C1522 1.353 . S
C1520 H1526 0.930 . S
N1521 Li1497 1.990 . S
N1521 C1520 1.314 . S
N1521 C1524 1.279 . S
C1522 C1520 1.353 . S
C1522 C1525 1.348 . S
C1522 H1570 0.929 . S
C1523 C1524 1.358 . S
C1523 C1525 1.356 . S
C1523 H1571 0.930 . S
C1524 N1521 1.279 . S
C1524 C1523 1.358 . S
C1524 H1527 0.930 . S
C1525 C1522 1.348 . S
C1525 C1523 1.356 . S
H1526 C1520 0.930 . S
H1527 C1524 0.930 . S
C1528 C1530 1.348 . S
C1528 C1531 1.356 . S
C1528 O1558 1.325 . S
N1529 C1532 1.314 . S
N1529 C1533 1.279 . S
C1530 C1528 1.348 . S
C1530 C1532 1.353 . S
C1530 H1572 0.929 . S
C1531 C1528 1.356 . S
C1531 C1533 1.358 . S
C1531 H1573 0.930 . S
C1532 N1529 1.314 . S
C1532 C1530 1.353 . S
C1532 H1574 0.930 . S
C1533 N1529 1.279 . S
C1533 C1531 1.358 . S
C1533 H1575 0.930 . S
C1534 C1535 1.348 . S
C1534 C1536 1.356 . S
C1534 O1559 1.325 . S
C1535 C1534 1.348 . S
C1535 C1537 1.353 . S
C1535 H1576 0.929 . S
C1536 C1534 1.356 . S
C1536 C1538 1.358 . S
C1536 H1577 0.930 . S
C1537 C1535 1.353 . S
C1537 N1539 1.314 . S
C1537 H1578 0.930 . S
C1538 C1536 1.358 . S
C1538 N1539 1.279 . S
C1538 H1579 0.930 . S
N1539 C1537 1.314 . S
N1539 C1538 1.279 . S
C1540 C1542 1.353 . S
C1540 N1543 1.314 . S
C1540 H1546 0.930 . S
C1541 N1543 1.279 . S
C1541 C1544 1.358 . S
C1541 H1547 0.930 . S
C1542 C1540 1.353 . S
C1542 C1545 1.348 . S
C1542 H1580 0.929 . S
N1543 Li1498 1.990 . S
N1543 C1540 1.314 . S
N1543 C1541 1.279 . S
C1544 C1541 1.358 . S
C1544 C1545 1.356 . S
C1544 H1581 0.930 . S
C1545 C1542 1.348 . S
C1545 C1544 1.356 . S
H1546 C1540 0.930 . S
H1547 C1541 0.930 . S
C1548 N1549 1.314 . S
C1548 C1550 1.353 . S
C1548 H1554 0.930 . S
N1549 Li1499 1.990 . S
N1549 C1548 1.314 . S
N1549 C1552 1.279 . S
C1550 C1548 1.353 . S
C1550 C1553 1.348 . S
C1550 H1582 0.929 . S
C1551 C1552 1.358 . S
C1551 C1553 1.356 . S
C1551 H1583 0.930 . S
C1552 N1549 1.279 . S
C1552 C1551 1.358 . S
C1552 H1555 0.930 . S
C1553 C1550 1.348 . S
C1553 C1551 1.356 . S
H1554 C1548 0.930 . S
H1555 C1552 0.930 . S
O1556 Li1496 1.956 . S
O1556 Li1497 1.970 . S
O1556 Li1498 1.961 . S
O1556 C1500 1.325 . S
O1557 Li1496 1.970 . S
O1557 Li1497 1.956 . S
O1557 Li1499 1.961 . S
O1557 C1506 1.325 . S
O1558 Li1496 1.961 . S
O1558 Li1498 1.956 . S
O1558 Li1499 1.970 . S
O1558 C1528 1.325 . S
O1559 Li1497 1.961 . S
O1559 Li1498 1.970 . S
O1559 Li1499 1.956 . S
O1559 C1534 1.325 . S
H1560 C1502 0.929 . S
H1561 C1503 0.930 . S
H1562 C1504 0.930 . S
H1563 C1505 0.930 . S
H1564 C1507 0.930 . S
H1565 C1509 0.929 . S
H1566 C1510 0.930 . S
H1567 C1511 0.930 . S
H1568 C1514 0.930 . S
H1569 C1517 0.929 . S
H1570 C1522 0.929 . S
H1571 C1523 0.930 . S
H1572 C1530 0.929 . S
H1573 C1531 0.930 . S
H1574 C1532 0.930 . S
H1575 C1533 0.930 . S
H1576 C1535 0.929 . S
H1577 C1536 0.930 . S
H1578 C1537 0.930 . S
H1579 C1538 0.930 . S
H1580 C1542 0.929 . S
H1581 C1544 0.930 . S
H1582 C1550 0.929 . S
H1583 C1551 0.930 . S
Li1584 N1601 1.990 . S
Li1584 O1644 1.956 . S
Li1584 O1645 1.970 . S
Li1584 O1646 1.961 . S
Li1585 N1609 1.990 . S
Li1585 O1644 1.970 . S
Li1585 O1645 1.956 . S
Li1585 O1647 1.961 . S
Li1586 N1631 1.990 . S
Li1586 O1644 1.961 . S
Li1586 O1646 1.956 . S
Li1586 O1647 1.970 . S
Li1587 N1637 1.990 . S
Li1587 O1645 1.961 . S
Li1587 O1646 1.970 . S
Li1587 O1647 1.956 . S
C1588 C1590 1.348 . S
C1588 C1591 1.356 . S
C1588 O1644 1.325 . S
N1589 C1592 1.314 . S
N1589 C1593 1.279 . S
C1590 C1588 1.348 . S
C1590 C1592 1.353 . S
C1590 H1648 0.929 . S
C1591 C1588 1.356 . S
C1591 C1593 1.358 . S
C1591 H1649 0.930 . S
C1592 N1589 1.314 . S
C1592 C1590 1.353 . S
C1592 H1650 0.930 . S
C1593 N1589 1.279 . S
C1593 C1591 1.358 . S
C1593 H1651 0.930 . S
C1594 C1597 1.348 . S
C1594 C1598 1.356 . S
C1594 O1645 1.325 . S
C1595 N1596 1.279 . S
C1595 C1598 1.358 . S
C1595 H1652 0.930 . S
N1596 C1595 1.279 . S
N1596 C1599 1.314 . S
C1597 C1594 1.348 . S
C1597 C1599 1.353 . S
C1597 H1653 0.929 . S
C1598 C1594 1.356 . S
C1598 C1595 1.358 . S
C1598 H1654 0.930 . S
C1599 N1596 1.314 . S
C1599 C1597 1.353 . S
C1599 H1655 0.930 . S
C1600 N1601 1.314 . S
C1600 C1605 1.353 . S
C1600 H1606 0.930 . S
N1601 Li1584 1.990 . S
N1601 C1600 1.314 . S
N1601 C1603 1.279 . S
C1602 C1603 1.358 . S
C1602 C1604 1.356 . S
C1602 H1656 0.930 . S
C1603 N1601 1.279 . S
C1603 C1602 1.358 . S
C1603 H1607 0.930 . S
C1604 C1602 1.356 . S
C1604 C1605 1.348 . S
C1605 C1600 1.353 . S
C1605 C1604 1.348 . S
C1605 H1657 0.929 . S
H1606 C1600 0.930 . S
H1607 C1603 0.930 . S
C1608 N1609 1.314 . S
C1608 C1610 1.353 . S
C1608 H1614 0.930 . S
N1609 Li1585 1.990 . S
N1609 C1608 1.314 . S
N1609 C1612 1.279 . S
C1610 C1608 1.353 . S
C1610 C1613 1.348 . S
C1610 H1658 0.929 . S
C1611 C1612 1.358 . S
C1611 C1613 1.356 . S
C1611 H1659 0.930 . S
C1612 N1609 1.279 . S
C1612 C1611 1.358 . S
C1612 H1615 0.930 . S
C1613 C1610 1.348 . S
C1613 C1611 1.356 . S
H1614 C1608 0.930 . S
H1615 C1612 0.930 . S
C1616 C1618 1.348 . S
C1616 C1619 1.356 . S
C1616 O1646 1.325 . S
N1617 C1620 1.314 . S
N1617 C1621 1.279 . S
C1618 C1616 1.348 . S
C1618 C1620 1.353 . S
C1618 H1660 0.929 . S
C1619 C1616 1.356 . S
C1619 C1621 1.358 . S
C1619 H1661 0.930 . S
C1620 N1617 1.314 . S
C1620 C1618 1.353 . S
C1620 H1662 0.930 . S
C1621 N1617 1.279 . S
C1621 C1619 1.358 . S
C1621 H1663 0.930 . S
C1622 C1623 1.348 . S
C1622 C1624 1.356 . S
C1622 O1647 1.325 . S
C1623 C1622 1.348 . S
C1623 C1625 1.353 . S
C1623 H1664 0.929 . S
C1624 C1622 1.356 . S
C1624 C1626 1.358 . S
C1624 H1665 0.930 . S
C1625 C1623 1.353 . S
C1625 N1627 1.314 . S
C1625 H1666 0.930 . S
C1626 C1624 1.358 . S
C1626 N1627 1.279 . S
C1626 H1667 0.930 . S
N1627 C1625 1.314 . S
N1627 C1626 1.279 . S
C1628 C1630 1.353 . S
C1628 N1631 1.314 . S
C1628 H1634 0.930 . S
C1629 N1631 1.279 . S
C1629 C1632 1.358 . S
C1629 H1635 0.930 . S
C1630 C1628 1.353 . S
C1630 C1633 1.348 . S
C1630 H1668 0.929 . S
N1631 Li1586 1.990 . S
N1631 C1628 1.314 . S
N1631 C1629 1.279 . S
C1632 C1629 1.358 . S
C1632 C1633 1.356 . S
C1632 H1669 0.930 . S
C1633 C1630 1.348 . S
C1633 C1632 1.356 . S
H1634 C1628 0.930 . S
H1635 C1629 0.930 . S
C1636 N1637 1.314 . S
C1636 C1638 1.353 . S
C1636 H1642 0.930 . S
N1637 Li1587 1.990 . S
N1637 C1636 1.314 . S
N1637 C1640 1.279 . S
C1638 C1636 1.353 . S
C1638 C1641 1.348 . S
C1638 H1670 0.929 . S
C1639 C1640 1.358 . S
C1639 C1641 1.356 . S
C1639 H1671 0.930 . S
C1640 N1637 1.279 . S
C1640 C1639 1.358 . S
C1640 H1643 0.930 . S
C1641 C1638 1.348 . S
C1641 C1639 1.356 . S
H1642 C1636 0.930 . S
H1643 C1640 0.930 . S
O1644 Li1584 1.956 . S
O1644 Li1585 1.970 . S
O1644 Li1586 1.961 . S
O1644 C1588 1.325 . S
O1645 Li1584 1.970 . S
O1645 Li1585 1.956 . S
O1645 Li1587 1.961 . S
O1645 C1594 1.325 . S
O1646 Li1584 1.961 . S
O1646 Li1586 1.956 . S
O1646 Li1587 1.970 . S
O1646 C1616 1.325 . S
O1647 Li1585 1.961 . S
O1647 Li1586 1.970 . S
O1647 Li1587 1.956 . S
O1647 C1622 1.325 . S
H1648 C1590 0.929 . S
H1649 C1591 0.930 . S
H1650 C1592 0.930 . S
H1651 C1593 0.930 . S
H1652 C1595 0.930 . S
H1653 C1597 0.929 . S
H1654 C1598 0.930 . S
H1655 C1599 0.930 . S
H1656 C1602 0.930 . S
H1657 C1605 0.929 . S
H1658 C1610 0.929 . S
H1659 C1611 0.930 . S
H1660 C1618 0.929 . S
H1661 C1619 0.930 . S
H1662 C1620 0.930 . S
H1663 C1621 0.930 . S
H1664 C1623 0.929 . S
H1665 C1624 0.930 . S
H1666 C1625 0.930 . S
H1667 C1626 0.930 . S
H1668 C1630 0.929 . S
H1669 C1632 0.930 . S
H1670 C1638 0.929 . S
H1671 C1639 0.930 . S
Li1672 N1689 1.990 . S
Li1672 O1732 1.956 . S
Li1672 O1733 1.970 . S
Li1672 O1734 1.961 . S
Li1673 N1697 1.990 . S
Li1673 O1732 1.970 . S
Li1673 O1733 1.956 . S
Li1673 O1735 1.961 . S
Li1674 N1719 1.990 . S
Li1674 O1732 1.961 . S
Li1674 O1734 1.956 . S
Li1674 O1735 1.970 . S
Li1675 N1725 1.990 . S
Li1675 O1733 1.961 . S
Li1675 O1734 1.970 . S
Li1675 O1735 1.956 . S
C1676 C1678 1.348 . S
C1676 C1679 1.356 . S
C1676 O1732 1.325 . S
N1677 C1680 1.314 . S
N1677 C1681 1.279 . S
C1678 C1676 1.348 . S
C1678 C1680 1.353 . S
C1678 H1736 0.929 . S
C1679 C1676 1.356 . S
C1679 C1681 1.358 . S
C1679 H1737 0.930 . S
C1680 N1677 1.314 . S
C1680 C1678 1.353 . S
C1680 H1738 0.930 . S
C1681 N1677 1.279 . S
C1681 C1679 1.358 . S
C1681 H1739 0.930 . S
C1682 C1685 1.348 . S
C1682 C1686 1.356 . S
C1682 O1733 1.325 . S
C1683 N1684 1.279 . S
C1683 C1686 1.358 . S
C1683 H1740 0.930 . S
N1684 C1683 1.279 . S
N1684 C1687 1.314 . S
C1685 C1682 1.348 . S
C1685 C1687 1.353 . S
C1685 H1741 0.929 . S
C1686 C1682 1.356 . S
C1686 C1683 1.358 . S
C1686 H1742 0.930 . S
C1687 N1684 1.314 . S
C1687 C1685 1.353 . S
C1687 H1743 0.930 . S
C1688 N1689 1.314 . S
C1688 C1693 1.353 . S
C1688 H1694 0.930 . S
N1689 Li1672 1.990 . S
N1689 C1688 1.314 . S
N1689 C1691 1.279 . S
C1690 C1691 1.358 . S
C1690 C1692 1.356 . S
C1690 H1744 0.930 . S
C1691 N1689 1.279 . S
C1691 C1690 1.358 . S
C1691 H1695 0.930 . S
C1692 C1690 1.356 . S
C1692 C1693 1.348 . S
C1693 C1688 1.353 . S
C1693 C1692 1.348 . S
C1693 H1745 0.929 . S
H1694 C1688 0.930 . S
H1695 C1691 0.930 . S
C1696 N1697 1.314 . S
C1696 C1698 1.353 . S
C1696 H1702 0.930 . S
N1697 Li1673 1.990 . S
N1697 C1696 1.314 . S
N1697 C1700 1.279 . S
C1698 C1696 1.353 . S
C1698 C1701 1.348 . S
C1698 H1746 0.929 . S
C1699 C1700 1.358 . S
C1699 C1701 1.356 . S
C1699 H1747 0.930 . S
C1700 N1697 1.279 . S
C1700 C1699 1.358 . S
C1700 H1703 0.930 . S
C1701 C1698 1.348 . S
C1701 C1699 1.356 . S
H1702 C1696 0.930 . S
H1703 C1700 0.930 . S
C1704 C1706 1.348 1_545 S
C1704 C1707 1.356 . S
C1704 O1734 1.325 . S
N1705 C1708 1.314 . S
N1705 C1709 1.279 . S
C1706 C1704 1.348 1_565 S
C1706 C1708 1.353 . S
C1706 H1748 0.929 . S
C1707 C1704 1.356 . S
C1707 C1709 1.358 1_545 S
C1707 H1749 0.930 . S
C1708 N1705 1.314 . S
C1708 C1706 1.353 . S
C1708 H1750 0.930 . S
C1709 N1705 1.279 . S
C1709 C1707 1.358 1_565 S
C1709 H1751 0.930 . S
C1710 C1711 1.348 . S
C1710 C1712 1.356 . S
C1710 O1735 1.325 . S
C1711 C1710 1.348 . S
C1711 C1713 1.353 . S
C1711 H1752 0.929 . S
C1712 C1710 1.356 . S
C1712 C1714 1.358 . S
C1712 H1753 0.930 . S
C1713 C1711 1.353 . S
C1713 N1715 1.314 . S
C1713 H1754 0.930 . S
C1714 C1712 1.358 . S
C1714 N1715 1.279 . S
C1714 H1755 0.930 . S
N1715 C1713 1.314 . S
N1715 C1714 1.279 . S
C1716 C1718 1.353 . S
C1716 N1719 1.314 . S
C1716 H1722 0.930 . S
C1717 N1719 1.279 . S
C1717 C1720 1.358 . S
C1717 H1723 0.930 . S
C1718 C1716 1.353 . S
C1718 C1721 1.348 . S
C1718 H1756 0.929 . S
N1719 Li1674 1.990 . S
N1719 C1716 1.314 . S
N1719 C1717 1.279 . S
C1720 C1717 1.358 . S
C1720 C1721 1.356 . S
C1720 H1757 0.930 . S
C1721 C1718 1.348 . S
C1721 C1720 1.356 . S
H1722 C1716 0.930 . S
H1723 C1717 0.930 . S
C1724 N1725 1.314 . S
C1724 C1726 1.353 1_545 S
C1724 H1730 0.930 . S
N1725 Li1675 1.990 . S
N1725 C1724 1.314 . S
N1725 C1728 1.279 . S
C1726 C1724 1.353 1_565 S
C1726 C1729 1.348 . S
C1726 H1758 0.929 . S
C1727 C1728 1.358 1_565 S
C1727 C1729 1.356 . S
C1727 H1759 0.930 . S
C1728 N1725 1.279 . S
C1728 C1727 1.358 1_545 S
C1728 H1731 0.930 . S
C1729 C1726 1.348 . S
C1729 C1727 1.356 . S
H1730 C1724 0.930 . S
H1731 C1728 0.930 . S
O1732 Li1672 1.956 . S
O1732 Li1673 1.970 . S
O1732 Li1674 1.961 . S
O1732 C1676 1.325 . S
O1733 Li1672 1.970 . S
O1733 Li1673 1.956 . S
O1733 Li1675 1.961 . S
O1733 C1682 1.325 . S
O1734 Li1672 1.961 . S
O1734 Li1674 1.956 . S
O1734 Li1675 1.970 . S
O1734 C1704 1.325 . S
O1735 Li1673 1.961 . S
O1735 Li1674 1.970 . S
O1735 Li1675 1.956 . S
O1735 C1710 1.325 . S
H1736 C1678 0.929 . S
H1737 C1679 0.930 . S
H1738 C1680 0.930 . S
H1739 C1681 0.930 . S
H1740 C1683 0.930 . S
H1741 C1685 0.929 . S
H1742 C1686 0.930 . S
H1743 C1687 0.930 . S
H1744 C1690 0.930 . S
H1745 C1693 0.929 . S
H1746 C1698 0.929 . S
H1747 C1699 0.930 . S
H1748 C1706 0.929 . S
H1749 C1707 0.930 . S
H1750 C1708 0.930 . S
H1751 C1709 0.930 . S
H1752 C1711 0.929 . S
H1753 C1712 0.930 . S
H1754 C1713 0.930 . S
H1755 C1714 0.930 . S
H1756 C1718 0.929 . S
H1757 C1720 0.930 . S
H1758 C1726 0.929 . S
H1759 C1727 0.930 . S
Li1760 N1777 1.990 . S
Li1760 O1820 1.956 . S
Li1760 O1821 1.970 . S
Li1760 O1822 1.961 . S
Li1761 N1785 1.990 . S
Li1761 O1820 1.970 . S
Li1761 O1821 1.956 . S
Li1761 O1823 1.961 1_554 S
Li1762 N1807 1.990 . S
Li1762 O1820 1.961 1_556 S
Li1762 O1822 1.956 1_556 S
Li1762 O1823 1.970 . S
Li1763 N1813 1.992 1_554 S
Li1763 O1821 1.961 . S
Li1763 O1822 1.970 . S
Li1763 O1823 1.956 1_554 S
C1764 C1766 1.348 . S
C1764 C1767 1.356 . S
C1764 O1820 1.325 . S
N1765 C1768 1.314 . S
N1765 C1769 1.279 . S
C1766 C1764 1.348 . S
C1766 C1768 1.353 . S
C1766 H1824 0.929 . S
C1767 C1764 1.356 . S
C1767 C1769 1.358 . S
C1767 H1825 0.930 . S
C1768 N1765 1.314 . S
C1768 C1766 1.353 . S
C1768 H1826 0.930 . S
C1769 N1765 1.279 . S
C1769 C1767 1.358 . S
C1769 H1827 0.930 . S
C1770 C1773 1.348 . S
C1770 C1774 1.356 . S
C1770 O1821 1.325 . S
C1771 N1772 1.279 . S
C1771 C1774 1.358 . S
C1771 H1828 0.930 . S
N1772 C1771 1.279 . S
N1772 C1775 1.314 . S
C1773 C1770 1.348 . S
C1773 C1775 1.353 . S
C1773 H1829 0.929 . S
C1774 C1770 1.356 . S
C1774 C1771 1.358 . S
C1774 H1830 0.930 . S
C1775 N1772 1.314 . S
C1775 C1773 1.353 . S
C1775 H1831 0.930 . S
C1776 N1777 1.314 . S
C1776 C1781 1.353 . S
C1776 H1782 0.930 . S
N1777 Li1760 1.990 . S
N1777 C1776 1.314 . S
N1777 C1779 1.279 . S
C1778 C1779 1.358 . S
C1778 C1780 1.356 . S
C1778 H1832 0.930 . S
C1779 N1777 1.279 . S
C1779 C1778 1.358 . S
C1779 H1783 0.930 . S
C1780 C1778 1.356 . S
C1780 C1781 1.348 . S
C1781 C1776 1.353 . S
C1781 C1780 1.348 . S
C1781 H1833 0.929 . S
H1782 C1776 0.930 . S
H1783 C1779 0.930 . S
C1784 N1785 1.314 1_556 S
C1784 C1786 1.353 . S
C1784 H1790 0.930 . S
N1785 Li1761 1.990 . S
N1785 C1784 1.314 1_554 S
N1785 C1788 1.279 . S
C1786 C1784 1.353 . S
C1786 C1789 1.348 1_556 S
C1786 H1834 0.929 . S
C1787 C1788 1.358 . S
C1787 C1789 1.356 . S
C1787 H1835 0.930 . S
C1788 N1785 1.279 . S
C1788 C1787 1.358 . S
C1788 H1791 0.930 . S
C1789 C1786 1.348 1_554 S
C1789 C1787 1.356 . S
H1790 C1784 0.930 . S
H1791 C1788 0.930 . S
C1792 C1794 1.354 . S
C1792 C1795 1.356 . S
C1792 O1822 1.325 . S
N1793 C1796 1.314 . S
N1793 C1797 1.279 . S
C1794 C1792 1.354 . S
C1794 C1796 1.353 . S
C1794 H1836 0.924 1_554 S
C1795 C1792 1.356 . S
C1795 C1797 1.358 . S
C1795 H1837 0.930 . S
C1796 N1793 1.314 . S
C1796 C1794 1.353 . S
C1796 H1838 0.930 1_554 S
C1797 N1793 1.279 . S
C1797 C1795 1.358 . S
C1797 H1839 0.930 . S
C1798 C1799 1.348 . S
C1798 C1800 1.356 . S
C1798 O1823 1.325 . S
C1799 C1798 1.348 . S
C1799 C1801 1.353 . S
C1799 H1840 0.929 . S
C1800 C1798 1.356 . S
C1800 C1802 1.358 . S
C1800 H1841 0.930 . S
C1801 C1799 1.353 . S
C1801 N1803 1.314 . S
C1801 H1842 0.930 . S
C1802 C1800 1.358 . S
C1802 N1803 1.279 . S
C1802 H1843 0.930 . S
N1803 C1801 1.314 . S
N1803 C1802 1.279 . S
C1804 C1806 1.353 . S
C1804 N1807 1.314 . S
C1804 H1810 0.930 . S
C1805 N1807 1.279 . S
C1805 C1808 1.358 . S
C1805 H1811 0.930 . S
C1806 C1804 1.353 . S
C1806 C1809 1.348 . S
C1806 H1844 0.929 . S
N1807 Li1762 1.990 . S
N1807 C1804 1.314 . S
N1807 C1805 1.279 . S
C1808 C1805 1.358 . S
C1808 C1809 1.356 . S
C1808 H1845 0.930 . S
C1809 C1806 1.348 . S
C1809 C1808 1.356 . S
H1810 C1804 0.930 . S
H1811 C1805 0.930 . S
C1812 N1813 1.294 1_554 S
C1812 C1814 1.353 . S
C1812 H1818 0.930 . S
N1813 Li1763 1.992 1_556 S
N1813 C1812 1.294 1_556 S
N1813 C1816 1.297 . S
C1814 C1812 1.353 . S
C1814 C1817 1.348 1_554 S
C1814 H1846 0.929 . S
C1815 C1816 1.358 . S
C1815 C1817 1.356 . S
C1815 H1847 0.930 . S
C1816 N1813 1.297 . S
C1816 C1815 1.358 . S
C1816 H1819 0.930 . S
C1817 C1814 1.348 1_556 S
C1817 C1815 1.356 . S
H1818 C1812 0.930 . S
H1819 C1816 0.930 . S
O1820 Li1760 1.956 . S
O1820 Li1761 1.970 . S
O1820 Li1762 1.961 1_554 S
O1820 C1764 1.325 . S
O1821 Li1760 1.970 . S
O1821 Li1761 1.956 . S
O1821 Li1763 1.961 . S
O1821 C1770 1.325 . S
O1822 Li1760 1.961 . S
O1822 Li1762 1.956 1_554 S
O1822 Li1763 1.970 . S
O1822 C1792 1.325 . S
O1823 Li1761 1.961 1_556 S
O1823 Li1762 1.970 . S
O1823 Li1763 1.956 1_556 S
O1823 C1798 1.325 . S
H1824 C1766 0.929 . S
H1825 C1767 0.930 . S
H1826 C1768 0.930 . S
H1827 C1769 0.930 . S
H1828 C1771 0.930 . S
H1829 C1773 0.929 . S
H1830 C1774 0.930 . S
H1831 C1775 0.930 . S
H1832 C1778 0.930 . S
H1833 C1781 0.929 . S
H1834 C1786 0.929 . S
H1835 C1787 0.930 . S
H1836 C1794 0.924 1_556 S
H1837 C1795 0.930 . S
H1838 C1796 0.930 1_556 S
H1839 C1797 0.930 . S
H1840 C1799 0.929 . S
H1841 C1800 0.930 . S
H1842 C1801 0.930 . S
H1843 C1802 0.930 . S
H1844 C1806 0.929 . S
H1845 C1808 0.930 . S
H1846 C1814 0.929 . S
H1847 C1815 0.930 . S
Li1848 N1865 1.990 . S
Li1848 O1908 1.956 . S
Li1848 O1909 1.970 . S
Li1848 O1910 1.961 . S
Li1849 N1873 1.990 . S
Li1849 O1908 1.970 . S
Li1849 O1909 1.956 . S
Li1849 O1911 1.961 . S
Li1850 N1895 1.990 . S
Li1850 O1908 1.961 . S
Li1850 O1910 1.956 . S
Li1850 O1911 1.970 . S
Li1851 N1901 1.990 . S
Li1851 O1909 1.961 . S
Li1851 O1910 1.970 . S
Li1851 O1911 1.956 . S
C1852 C1854 1.348 . S
C1852 C1855 1.356 . S
C1852 O1908 1.325 . S
N1853 C1856 1.314 . S
N1853 C1857 1.279 . S
C1854 C1852 1.348 . S
C1854 C1856 1.353 . S
C1854 H1912 0.929 . S
C1855 C1852 1.356 . S
C1855 C1857 1.358 . S
C1855 H1913 0.930 . S
C1856 N1853 1.314 . S
C1856 C1854 1.353 . S
C1856 H1914 0.930 . S
C1857 N1853 1.279 . S
C1857 C1855 1.358 . S
C1857 H1915 0.930 . S
C1858 C1861 1.348 . S
C1858 C1862 1.356 . S
C1858 O1909 1.325 . S
C1859 N1860 1.279 . S
C1859 C1862 1.358 . S
C1859 H1916 0.930 . S
N1860 C1859 1.279 . S
N1860 C1863 1.314 . S
C1861 C1858 1.348 . S
C1861 C1863 1.353 . S
C1861 H1917 0.929 . S
C1862 C1858 1.356 . S
C1862 C1859 1.358 . S
C1862 H1918 0.930 . S
C1863 N1860 1.314 . S
C1863 C1861 1.353 . S
C1863 H1919 0.930 . S
C1864 N1865 1.314 . S
C1864 C1869 1.353 . S
C1864 H1870 0.930 . S
N1865 Li1848 1.990 . S
N1865 C1864 1.314 . S
N1865 C1867 1.279 . S
C1866 C1867 1.358 . S
C1866 C1868 1.356 . S
C1866 H1920 0.930 . S
C1867 N1865 1.279 . S
C1867 C1866 1.358 . S
C1867 H1871 0.930 . S
C1868 C1866 1.356 . S
C1868 C1869 1.348 . S
C1869 C1864 1.353 . S
C1869 C1868 1.348 . S
C1869 H1921 0.929 . S
H1870 C1864 0.930 . S
H1871 C1867 0.930 . S
C1872 N1873 1.314 . S
C1872 C1874 1.353 . S
C1872 H1878 0.930 . S
N1873 Li1849 1.990 . S
N1873 C1872 1.314 . S
N1873 C1876 1.279 . S
C1874 C1872 1.353 . S
C1874 C1877 1.348 . S
C1874 H1922 0.929 . S
C1875 C1876 1.358 . S
C1875 C1877 1.356 . S
C1875 H1923 0.930 . S
C1876 N1873 1.279 . S
C1876 C1875 1.358 . S
C1876 H1879 0.930 . S
C1877 C1874 1.348 . S
C1877 C1875 1.356 . S
H1878 C1872 0.930 . S
H1879 C1876 0.930 . S
C1880 C1882 1.348 . S
C1880 C1883 1.356 . S
C1880 O1910 1.325 . S
N1881 C1884 1.314 . S
N1881 C1885 1.279 . S
C1882 C1880 1.348 . S
C1882 C1884 1.353 . S
C1882 H1924 0.929 . S
C1883 C1880 1.356 . S
C1883 C1885 1.358 . S
C1883 H1925 0.930 . S
C1884 N1881 1.314 . S
C1884 C1882 1.353 . S
C1884 H1926 0.930 . S
C1885 N1881 1.279 . S
C1885 C1883 1.358 . S
C1885 H1927 0.930 . S
C1886 C1887 1.348 . S
C1886 C1888 1.356 . S
C1886 O1911 1.325 . S
C1887 C1886 1.348 . S
C1887 C1889 1.353 . S
C1887 H1928 0.929 . S
C1888 C1886 1.356 . S
C1888 C1890 1.358 . S
C1888 H1929 0.930 . S
C1889 C1887 1.353 . S
C1889 N1891 1.314 . S
C1889 H1930 0.930 . S
C1890 C1888 1.358 . S
C1890 N1891 1.279 . S
C1890 H1931 0.930 . S
N1891 C1889 1.314 . S
N1891 C1890 1.279 . S
C1892 C1894 1.353 . S
C1892 N1895 1.314 . S
C1892 H1898 0.930 . S
C1893 N1895 1.279 . S
C1893 C1896 1.358 . S
C1893 H1899 0.930 . S
C1894 C1892 1.353 . S
C1894 C1897 1.348 . S
C1894 H1932 0.929 . S
N1895 Li1850 1.990 . S
N1895 C1892 1.314 . S
N1895 C1893 1.279 . S
C1896 C1893 1.358 . S
C1896 C1897 1.356 . S
C1896 H1933 0.930 . S
C1897 C1894 1.348 . S
C1897 C1896 1.356 . S
H1898 C1892 0.930 . S
H1899 C1893 0.930 . S
C1900 N1901 1.314 . S
C1900 C1902 1.353 . S
C1900 H1906 0.930 . S
N1901 Li1851 1.990 . S
N1901 C1900 1.314 . S
N1901 C1904 1.279 . S
C1902 C1900 1.353 . S
C1902 C1905 1.348 . S
C1902 H1934 0.929 . S
C1903 C1904 1.358 . S
C1903 C1905 1.356 . S
C1903 H1935 0.930 . S
C1904 N1901 1.279 . S
C1904 C1903 1.358 . S
C1904 H1907 0.930 . S
C1905 C1902 1.348 . S
C1905 C1903 1.356 . S
H1906 C1900 0.930 . S
H1907 C1904 0.930 . S
O1908 Li1848 1.956 . S
O1908 Li1849 1.970 . S
O1908 Li1850 1.961 . S
O1908 C1852 1.325 . S
O1909 Li1848 1.970 . S
O1909 Li1849 1.956 . S
O1909 Li1851 1.961 . S
O1909 C1858 1.325 . S
O1910 Li1848 1.961 . S
O1910 Li1850 1.956 . S
O1910 Li1851 1.970 . S
O1910 C1880 1.325 . S
O1911 Li1849 1.961 . S
O1911 Li1850 1.970 . S
O1911 Li1851 1.956 . S
O1911 C1886 1.325 . S
H1912 C1854 0.929 . S
H1913 C1855 0.930 . S
H1914 C1856 0.930 . S
H1915 C1857 0.930 . S
H1916 C1859 0.930 . S
H1917 C1861 0.929 . S
H1918 C1862 0.930 . S
H1919 C1863 0.930 . S
H1920 C1866 0.930 . S
H1921 C1869 0.929 . S
H1922 C1874 0.929 . S
H1923 C1875 0.930 . S
H1924 C1882 0.929 . S
H1925 C1883 0.930 . S
H1926 C1884 0.930 . S
H1927 C1885 0.930 . S
H1928 C1887 0.929 . S
H1929 C1888 0.930 . S
H1930 C1889 0.930 . S
H1931 C1890 0.930 . S
H1932 C1894 0.929 . S
H1933 C1896 0.930 . S
H1934 C1902 0.929 . S
H1935 C1903 0.930 . S
Li1936 N1953 1.990 . S
Li1936 O1996 1.956 . S
Li1936 O1997 1.970 . S
Li1936 O1998 1.961 . S
Li1937 N1961 1.990 . S
Li1937 O1996 1.970 . S
Li1937 O1997 1.956 . S
Li1937 O1999 1.961 . S
Li1938 N1983 1.990 . S
Li1938 O1996 1.961 . S
Li1938 O1998 1.956 . S
Li1938 O1999 1.970 . S
Li1939 N1989 1.990 . S
Li1939 O1997 1.961 . S
Li1939 O1998 1.970 . S
Li1939 O1999 1.956 . S
C1940 C1942 1.348 . S
C1940 C1943 1.356 . S
C1940 O1996 1.325 . S
N1941 C1944 1.314 . S
N1941 C1945 1.279 . S
C1942 C1940 1.348 . S
C1942 C1944 1.353 . S
C1942 H2000 0.929 . S
C1943 C1940 1.356 . S
C1943 C1945 1.358 . S
C1943 H2001 0.930 . S
C1944 N1941 1.314 . S
C1944 C1942 1.353 . S
C1944 H2002 0.930 . S
C1945 N1941 1.279 . S
C1945 C1943 1.358 . S
C1945 H2003 0.930 . S
C1946 C1949 1.348 . S
C1946 C1950 1.356 . S
C1946 O1997 1.325 . S
C1947 N1948 1.279 . S
C1947 C1950 1.358 . S
C1947 H2004 0.930 . S
N1948 C1947 1.279 . S
N1948 C1951 1.314 . S
C1949 C1946 1.348 . S
C1949 C1951 1.353 . S
C1949 H2005 0.929 . S
C1950 C1946 1.356 . S
C1950 C1947 1.358 . S
C1950 H2006 0.930 . S
C1951 N1948 1.314 . S
C1951 C1949 1.353 . S
C1951 H2007 0.930 . S
C1952 N1953 1.314 . S
C1952 C1957 1.353 . S
C1952 H1958 0.930 . S
N1953 Li1936 1.990 . S
N1953 C1952 1.314 . S
N1953 C1955 1.279 . S
C1954 C1955 1.358 . S
C1954 C1956 1.356 . S
C1954 H2008 0.930 . S
C1955 N1953 1.279 . S
C1955 C1954 1.358 . S
C1955 H1959 0.930 . S
C1956 C1954 1.356 . S
C1956 C1957 1.348 . S
C1957 C1952 1.353 . S
C1957 C1956 1.348 . S
C1957 H2009 0.929 . S
H1958 C1952 0.930 . S
H1959 C1955 0.930 . S
C1960 N1961 1.314 . S
C1960 C1962 1.353 . S
C1960 H1966 0.930 . S
N1961 Li1937 1.990 . S
N1961 C1960 1.314 . S
N1961 C1964 1.279 . S
C1962 C1960 1.353 . S
C1962 C1965 1.348 . S
C1962 H2010 0.929 . S
C1963 C1964 1.358 . S
C1963 C1965 1.356 . S
C1963 H2011 0.930 . S
C1964 N1961 1.279 . S
C1964 C1963 1.358 . S
C1964 H1967 0.930 . S
C1965 C1962 1.348 . S
C1965 C1963 1.356 . S
H1966 C1960 0.930 . S
H1967 C1964 0.930 . S
C1968 C1970 1.348 . S
C1968 C1971 1.356 . S
C1968 O1998 1.325 . S
N1969 C1972 1.314 . S
N1969 C1973 1.279 . S
C1970 C1968 1.348 . S
C1970 C1972 1.353 . S
C1970 H2012 0.929 . S
C1971 C1968 1.356 . S
C1971 C1973 1.358 . S
C1971 H2013 0.930 . S
C1972 N1969 1.314 . S
C1972 C1970 1.353 . S
C1972 H2014 0.930 . S
C1973 N1969 1.279 . S
C1973 C1971 1.358 . S
C1973 H2015 0.930 . S
C1974 C1975 1.348 . S
C1974 C1976 1.356 . S
C1974 O1999 1.325 . S
C1975 C1974 1.348 . S
C1975 C1977 1.353 . S
C1975 H2016 0.929 . S
C1976 C1974 1.356 . S
C1976 C1978 1.358 . S
C1976 H2017 0.930 . S
C1977 C1975 1.353 . S
C1977 N1979 1.314 . S
C1977 H2018 0.930 . S
C1978 C1976 1.358 . S
C1978 N1979 1.279 . S
C1978 H2019 0.930 . S
N1979 C1977 1.314 . S
N1979 C1978 1.279 . S
C1980 C1982 1.353 . S
C1980 N1983 1.314 . S
C1980 H1986 0.930 . S
C1981 N1983 1.279 . S
C1981 C1984 1.358 . S
C1981 H1987 0.930 . S
C1982 C1980 1.353 . S
C1982 C1985 1.348 . S
C1982 H2020 0.929 . S
N1983 Li1938 1.990 . S
N1983 C1980 1.314 . S
N1983 C1981 1.279 . S
C1984 C1981 1.358 . S
C1984 C1985 1.356 . S
C1984 H2021 0.930 . S
C1985 C1982 1.348 . S
C1985 C1984 1.356 . S
H1986 C1980 0.930 . S
H1987 C1981 0.930 . S
C1988 N1989 1.314 . S
C1988 C1990 1.353 . S
C1988 H1994 0.930 . S
N1989 Li1939 1.990 . S
N1989 C1988 1.314 . S
N1989 C1992 1.279 . S
C1990 C1988 1.353 . S
C1990 C1993 1.348 . S
C1990 H2022 0.929 . S
C1991 C1992 1.358 . S
C1991 C1993 1.356 . S
C1991 H2023 0.930 . S
C1992 N1989 1.279 . S
C1992 C1991 1.358 . S
C1992 H1995 0.930 . S
C1993 C1990 1.348 . S
C1993 C1991 1.356 . S
H1994 C1988 0.930 . S
H1995 C1992 0.930 . S
O1996 Li1936 1.956 . S
O1996 Li1937 1.970 . S
O1996 Li1938 1.961 . S
O1996 C1940 1.325 . S
O1997 Li1936 1.970 . S
O1997 Li1937 1.956 . S
O1997 Li1939 1.961 . S
O1997 C1946 1.325 . S
O1998 Li1936 1.961 . S
O1998 Li1938 1.956 . S
O1998 Li1939 1.970 . S
O1998 C1968 1.325 . S
O1999 Li1937 1.961 . S
O1999 Li1938 1.970 . S
O1999 Li1939 1.956 . S
O1999 C1974 1.325 . S
H2000 C1942 0.929 . S
H2001 C1943 0.930 . S
H2002 C1944 0.930 . S
H2003 C1945 0.930 . S
H2004 C1947 0.930 . S
H2005 C1949 0.929 . S
H2006 C1950 0.930 . S
H2007 C1951 0.930 . S
H2008 C1954 0.930 . S
H2009 C1957 0.929 . S
H2010 C1962 0.929 . S
H2011 C1963 0.930 . S
H2012 C1970 0.929 . S
H2013 C1971 0.930 . S
H2014 C1972 0.930 . S
H2015 C1973 0.930 . S
H2016 C1975 0.929 . S
H2017 C1976 0.930 . S
H2018 C1977 0.930 . S
H2019 C1978 0.930 . S
H2020 C1982 0.929 . S
H2021 C1984 0.930 . S
H2022 C1990 0.929 . S
H2023 C1991 0.930 . S
Li2024 N2041 1.990 . S
Li2024 O2084 1.956 . S
Li2024 O2085 1.970 . S
Li2024 O2086 1.961 . S
Li2025 N2049 1.990 . S
Li2025 O2084 1.970 . S
Li2025 O2085 1.956 . S
Li2025 O2087 1.961 . S
Li2026 N2071 1.990 . S
Li2026 O2084 1.961 . S
Li2026 O2086 1.956 . S
Li2026 O2087 1.970 . S
Li2027 N2077 1.990 . S
Li2027 O2085 1.961 . S
Li2027 O2086 1.970 . S
Li2027 O2087 1.956 . S
C2028 C2030 1.348 . S
C2028 C2031 1.356 . S
C2028 O2084 1.325 . S
N2029 C2032 1.314 . S
N2029 C2033 1.279 . S
C2030 C2028 1.348 . S
C2030 C2032 1.353 . S
C2030 H2088 0.929 . S
C2031 C2028 1.356 . S
C2031 C2033 1.358 . S
C2031 H2089 0.930 . S
C2032 N2029 1.314 . S
C2032 C2030 1.353 . S
C2032 H2090 0.930 . S
C2033 N2029 1.279 . S
C2033 C2031 1.358 . S
C2033 H2091 0.930 . S
C2034 C2037 1.348 . S
C2034 C2038 1.356 . S
C2034 O2085 1.325 . S
C2035 N2036 1.279 . S
C2035 C2038 1.358 . S
C2035 H2092 0.930 . S
N2036 C2035 1.279 . S
N2036 C2039 1.314 . S
C2037 C2034 1.348 . S
C2037 C2039 1.353 . S
C2037 H2093 0.929 . S
C2038 C2034 1.356 . S
C2038 C2035 1.358 . S
C2038 H2094 0.930 . S
C2039 N2036 1.314 . S
C2039 C2037 1.353 . S
C2039 H2095 0.930 . S
C2040 N2041 1.314 . S
C2040 C2045 1.353 . S
C2040 H2046 0.930 . S
N2041 Li2024 1.990 . S
N2041 C2040 1.314 . S
N2041 C2043 1.279 . S
C2042 C2043 1.358 . S
C2042 C2044 1.356 . S
C2042 H2096 0.930 . S
C2043 N2041 1.279 . S
C2043 C2042 1.358 . S
C2043 H2047 0.930 . S
C2044 C2042 1.356 . S
C2044 C2045 1.348 . S
C2045 C2040 1.353 . S
C2045 C2044 1.348 . S
C2045 H2097 0.929 . S
H2046 C2040 0.930 . S
H2047 C2043 0.930 . S
C2048 N2049 1.314 . S
C2048 C2050 1.353 . S
C2048 H2054 0.930 . S
N2049 Li2025 1.990 . S
N2049 C2048 1.314 . S
N2049 C2052 1.279 . S
C2050 C2048 1.353 . S
C2050 C2053 1.348 . S
C2050 H2098 0.929 . S
C2051 C2052 1.358 . S
C2051 C2053 1.356 . S
C2051 H2099 0.930 . S
C2052 N2049 1.279 . S
C2052 C2051 1.358 . S
C2052 H2055 0.930 . S
C2053 C2050 1.348 . S
C2053 C2051 1.356 . S
H2054 C2048 0.930 . S
H2055 C2052 0.930 . S
C2056 C2058 1.348 . S
C2056 C2059 1.356 . S
C2056 O2086 1.325 . S
N2057 C2060 1.314 . S
N2057 C2061 1.279 . S
C2058 C2056 1.348 . S
C2058 C2060 1.353 . S
C2058 H2100 0.929 . S
C2059 C2056 1.356 . S
C2059 C2061 1.358 . S
C2059 H2101 0.930 . S
C2060 N2057 1.314 . S
C2060 C2058 1.353 . S
C2060 H2102 0.930 . S
C2061 N2057 1.279 . S
C2061 C2059 1.358 . S
C2061 H2103 0.930 . S
C2062 C2063 1.348 . S
C2062 C2064 1.356 . S
C2062 O2087 1.325 . S
C2063 C2062 1.348 . S
C2063 C2065 1.353 . S
C2063 H2104 0.929 . S
C2064 C2062 1.356 . S
C2064 C2066 1.358 . S
C2064 H2105 0.930 . S
C2065 C2063 1.353 . S
C2065 N2067 1.314 . S
C2065 H2106 0.930 . S
C2066 C2064 1.358 . S
C2066 N2067 1.279 . S
C2066 H2107 0.930 . S
N2067 C2065 1.314 . S
N2067 C2066 1.279 . S
C2068 C2070 1.353 . S
C2068 N2071 1.314 . S
C2068 H2074 0.930 . S
C2069 N2071 1.279 . S
C2069 C2072 1.358 . S
C2069 H2075 0.930 . S
C2070 C2068 1.353 . S
C2070 C2073 1.348 . S
C2070 H2108 0.929 . S
N2071 Li2026 1.990 . S
N2071 C2068 1.314 . S
N2071 C2069 1.279 . S
C2072 C2069 1.358 . S
C2072 C2073 1.356 . S
C2072 H2109 0.930 . S
C2073 C2070 1.348 . S
C2073 C2072 1.356 . S
H2074 C2068 0.930 . S
H2075 C2069 0.930 . S
C2076 N2077 1.314 . S
C2076 C2078 1.353 . S
C2076 H2082 0.930 . S
N2077 Li2027 1.990 . S
N2077 C2076 1.314 . S
N2077 C2080 1.279 . S
C2078 C2076 1.353 . S
C2078 C2081 1.348 . S
C2078 H2110 0.929 . S
C2079 C2080 1.358 . S
C2079 C2081 1.356 . S
C2079 H2111 0.930 . S
C2080 N2077 1.279 . S
C2080 C2079 1.358 . S
C2080 H2083 0.930 . S
C2081 C2078 1.348 . S
C2081 C2079 1.356 . S
H2082 C2076 0.930 . S
H2083 C2080 0.930 . S
O2084 Li2024 1.956 . S
O2084 Li2025 1.970 . S
O2084 Li2026 1.961 . S
O2084 C2028 1.325 . S
O2085 Li2024 1.970 . S
O2085 Li2025 1.956 . S
O2085 Li2027 1.961 . S
O2085 C2034 1.325 . S
O2086 Li2024 1.961 . S
O2086 Li2026 1.956 . S
O2086 Li2027 1.970 . S
O2086 C2056 1.325 . S
O2087 Li2025 1.961 . S
O2087 Li2026 1.970 . S
O2087 Li2027 1.956 . S
O2087 C2062 1.325 . S
H2088 C2030 0.929 . S
H2089 C2031 0.930 . S
H2090 C2032 0.930 . S
H2091 C2033 0.930 . S
H2092 C2035 0.930 . S
H2093 C2037 0.929 . S
H2094 C2038 0.930 . S
H2095 C2039 0.930 . S
H2096 C2042 0.930 . S
H2097 C2045 0.929 . S
H2098 C2050 0.929 . S
H2099 C2051 0.930 . S
H2100 C2058 0.929 . S
H2101 C2059 0.930 . S
H2102 C2060 0.930 . S
H2103 C2061 0.930 . S
H2104 C2063 0.929 . S
H2105 C2064 0.930 . S
H2106 C2065 0.930 . S
H2107 C2066 0.930 . S
H2108 C2070 0.929 . S
H2109 C2072 0.930 . S
H2110 C2078 0.929 . S
H2111 C2079 0.930 . S
Eu2112 C2121 2.828 . S
Eu2112 O2123 2.392 . S
Eu2112 O2125 2.418 . S
Eu2112 O2130 2.373 . S
Eu2112 O2133 2.488 . S
Eu2112 O2134 2.471 1_554 S
Eu2112 O2135 2.349 1_554 S
Eu2113 O2122 2.370 . S
Eu2113 O2126 2.460 1_544 S
Eu2113 O2127 2.449 1_545 S
Eu2113 O2128 2.366 . S
Eu2113 O2131 2.416 1_554 S
Eu2113 O2132 2.415 1_554 S
Eu2113 C2142 2.799 1_545 S
C2114 O2132 1.297 . S
C2114 O2135 1.265 . S
C2115 C2116 1.413 . S
C2115 C2119 1.355 1_556 S
C2115 C2121 1.491 1_556 S
C2116 C2115 1.413 . S
C2116 C2118 1.369 . S
C2116 H2144 0.930 . S
C2117 C2119 1.383 . S
C2117 C2120 1.382 1_554 S
C2117 H2145 0.930 . S
C2118 C2116 1.369 . S
C2118 C2120 1.392 . S
C2118 H2146 0.930 . S
C2119 C2115 1.355 1_554 S
C2119 C2117 1.383 . S
C2119 H2147 0.931 . S
C2120 C2117 1.382 1_556 S
C2120 C2118 1.392 . S
C2121 Eu2112 2.828 . S
C2121 C2115 1.491 1_554 S
C2121 O2133 1.249 . S
C2121 O2134 1.244 1_554 S
O2122 Eu2113 2.370 . S
O2122 C2124 1.258 . S
O2123 Eu2112 2.392 . S
O2123 C2124 1.242 . S
C2124 O2122 1.258 . S
C2124 O2123 1.242 . S
O2125 Eu2112 2.418 . S
O2125 C2129 1.244 . S
O2126 Eu2113 2.460 1_566 S
O2126 C2142 1.249 1_556 S
O2127 Eu2113 2.449 1_565 S
O2127 C2142 1.244 . S
O2128 Eu2113 2.366 . S
O2128 C2129 1.265 . S
C2129 O2125 1.244 . S
C2129 O2128 1.265 . S
O2130 Eu2112 2.373 . S
O2130 C2143 1.268 . S
O2131 Eu2113 2.416 1_556 S
O2131 C2143 1.241 1_556 S
O2132 Eu2113 2.415 1_556 S
O2132 C2114 1.297 . S
O2133 Eu2112 2.488 . S
O2133 C2121 1.249 . S
O2134 Eu2112 2.471 1_556 S
O2134 C2121 1.244 1_556 S
O2135 Eu2112 2.349 1_556 S
O2135 C2114 1.265 . S
C2136 C2137 1.379 . S
C2136 C2140 1.373 . S
C2136 C2142 1.505 . S
C2137 C2136 1.379 . S
C2137 C2139 1.369 . S
C2137 H2148 0.930 . S
C2138 C2140 1.383 . S
C2138 C2141 1.382 . S
C2138 H2149 0.930 . S
C2139 C2137 1.369 . S
C2139 C2141 1.392 . S
C2139 H2150 0.930 . S
C2140 C2136 1.373 . S
C2140 C2138 1.383 . S
C2140 H2151 0.931 1_554 S
C2141 C2138 1.382 . S
C2141 C2139 1.392 . S
C2142 Eu2113 2.799 1_565 S
C2142 O2126 1.249 1_554 S
C2142 O2127 1.244 . S
C2142 C2136 1.505 . S
C2143 O2130 1.268 . S
C2143 O2131 1.241 1_554 S
H2144 C2116 0.930 . S
H2145 C2117 0.930 . S
H2146 C2118 0.930 . S
H2147 C2119 0.931 . S
H2148 C2137 0.930 . S
H2149 C2138 0.930 . S
H2150 C2139 0.930 . S
H2151 C2140 0.931 1_556 S
Eu2152 C2161 2.828 . S
Eu2152 O2163 2.392 . S
Eu2152 O2165 2.418 . S
Eu2152 O2170 2.373 . S
Eu2152 O2173 2.488 . S
Eu2152 O2174 2.471 . S
Eu2152 O2175 2.349 . S
Eu2153 O2162 2.373 . S
Eu2153 O2166 2.488 . S
Eu2153 O2167 2.471 . S
Eu2153 O2168 2.349 . S
Eu2153 O2171 2.392 . S
Eu2153 O2172 2.418 . S
Eu2153 C2182 2.828 . S
C2154 O2172 1.244 . S
C2154 O2175 1.265 . S
C2155 C2156 1.379 . S
C2155 C2159 1.373 . S
C2155 C2161 1.505 . S
C2156 C2155 1.379 . S
C2156 C2158 1.369 . S
C2156 H2184 0.930 . S
C2157 C2159 1.383 . S
C2157 C2160 1.382 . S
C2157 H2185 0.930 . S
C2158 C2156 1.369 . S
C2158 C2160 1.392 . S
C2158 H2186 0.930 . S
C2159 C2155 1.373 . S
C2159 C2157 1.383 . S
C2159 H2187 0.931 . S
C2160 C2157 1.382 . S
C2160 C2158 1.392 . S
C2161 Eu2152 2.828 . S
C2161 C2155 1.505 . S
C2161 O2173 1.249 . S
C2161 O2174 1.244 . S
O2162 Eu2153 2.373 . S
O2162 C2164 1.258 . S
O2163 Eu2152 2.392 . S
O2163 C2164 1.242 . S
C2164 O2162 1.258 . S
C2164 O2163 1.242 . S
O2165 Eu2152 2.418 . S
O2165 C2169 1.244 . S
O2166 Eu2153 2.488 . S
O2166 C2182 1.249 . S
O2167 Eu2153 2.471 . S
O2167 C2182 1.244 . S
O2168 Eu2153 2.349 . S
O2168 C2169 1.265 . S
C2169 O2165 1.244 . S
C2169 O2168 1.265 . S
O2170 Eu2152 2.373 . S
O2170 C2183 1.258 . S
O2171 Eu2153 2.392 . S
O2171 C2183 1.242 . S
O2172 Eu2153 2.418 . S
O2172 C2154 1.244 . S
O2173 Eu2152 2.488 . S
O2173 C2161 1.249 . S
O2174 Eu2152 2.471 . S
O2174 C2161 1.244 . S
O2175 Eu2152 2.349 . S
O2175 C2154 1.265 . S
C2176 C2177 1.379 . S
C2176 C2180 1.373 . S
C2176 C2182 1.505 . S
C2177 C2176 1.379 . S
C2177 C2179 1.369 . S
C2177 H2188 0.930 . S
C2178 C2180 1.383 . S
C2178 C2181 1.382 . S
C2178 H2189 0.930 . S
C2179 C2177 1.369 . S
C2179 C2181 1.392 . S
C2179 H2190 0.930 . S
C2180 C2176 1.373 . S
C2180 C2178 1.383 . S
C2180 H2191 0.931 . S
C2181 C2178 1.382 . S
C2181 C2179 1.392 . S
C2182 Eu2153 2.828 . S
C2182 O2166 1.249 . S
C2182 O2167 1.244 . S
C2182 C2176 1.505 . S
C2183 O2170 1.258 . S
C2183 O2171 1.242 . S
H2184 C2156 0.930 . S
H2185 C2157 0.930 . S
H2186 C2158 0.930 . S
H2187 C2159 0.931 . S
H2188 C2177 0.930 . S
H2189 C2178 0.930 . S
H2190 C2179 0.930 . S
H2191 C2180 0.931 . S
Eu2192 C2201 2.828 . S
Eu2192 O2203 2.392 . S
Eu2192 O2205 2.418 . S
Eu2192 O2210 2.372 . S
Eu2192 O2213 2.488 . S
Eu2192 O2214 2.471 . S
Eu2192 O2215 2.349 . S
Eu2193 O2202 2.373 . S
Eu2193 O2206 2.488 . S
Eu2193 O2207 2.471 . S
Eu2193 O2208 2.349 . S
Eu2193 O2211 2.392 1_545 S
Eu2193 O2212 2.418 . S
Eu2193 C2222 2.828 . S
C2194 O2212 1.244 . S
C2194 O2215 1.265 . S
C2195 C2196 1.379 . S
C2195 C2199 1.373 . S
C2195 C2201 1.505 1_565 S
C2196 C2195 1.379 . S
C2196 C2198 1.369 . S
C2196 H2224 0.930 . S
C2197 C2199 1.383 . S
C2197 C2200 1.382 . S
C2197 H2225 0.930 . S
C2198 C2196 1.369 . S
C2198 C2200 1.392 . S
C2198 H2226 0.930 . S
C2199 C2195 1.373 . S
C2199 C2197 1.383 . S
C2199 H2227 0.931 1_565 S
C2200 C2197 1.382 . S
C2200 C2198 1.392 . S
C2201 Eu2192 2.828 . S
C2201 C2195 1.505 1_545 S
C2201 O2213 1.249 . S
C2201 O2214 1.244 . S
O2202 Eu2193 2.373 . S
O2202 C2204 1.258 . S
O2203 Eu2192 2.392 . S
O2203 C2204 1.242 . S
C2204 O2202 1.258 . S
C2204 O2203 1.242 . S
O2205 Eu2192 2.418 . S
O2205 C2209 1.244 . S
O2206 Eu2193 2.488 . S
O2206 C2222 1.249 . S
O2207 Eu2193 2.471 . S
O2207 C2222 1.244 . S
O2208 Eu2193 2.349 . S
O2208 C2209 1.265 . S
C2209 O2205 1.244 . S
C2209 O2208 1.265 . S
O2210 Eu2192 2.372 . S
O2210 C2223 1.258 1_545 S
O2211 Eu2193 2.392 1_565 S
O2211 C2223 1.242 . S
O2212 Eu2193 2.418 . S
O2212 C2194 1.244 . S
O2213 Eu2192 2.488 . S
O2213 C2201 1.249 . S
O2214 Eu2192 2.471 . S
O2214 C2201 1.244 . S
O2215 Eu2192 2.349 . S
O2215 C2194 1.265 . S
C2216 C2217 1.379 . S
C2216 C2220 1.373 . S
C2216 C2222 1.505 . S
C2217 C2216 1.379 . S
C2217 C2219 1.369 . S
C2217 H2228 0.930 . S
C2218 C2220 1.383 . S
C2218 C2221 1.382 . S
C2218 H2229 0.930 . S
C2219 C2217 1.369 . S
C2219 C2221 1.392 . S
C2219 H2230 0.930 . S
C2220 C2216 1.373 . S
C2220 C2218 1.383 . S
C2220 H2231 0.931 . S
C2221 C2218 1.382 . S
C2221 C2219 1.392 . S
C2222 Eu2193 2.828 . S
C2222 O2206 1.249 . S
C2222 O2207 1.244 . S
C2222 C2216 1.505 . S
C2223 O2210 1.258 1_565 S
C2223 O2211 1.242 . S
H2224 C2196 0.930 . S
H2225 C2197 0.930 . S
H2226 C2198 0.930 . S
H2227 C2199 0.931 1_545 S
H2228 C2217 0.930 . S
H2229 C2218 0.930 . S
H2230 C2219 0.930 . S
H2231 C2220 0.931 . S
Eu2232 C2241 2.828 . S
Eu2232 O2243 2.392 . S
Eu2232 O2245 2.418 . S
Eu2232 O2250 2.373 . S
Eu2232 O2253 2.488 . S
Eu2232 O2254 2.471 . S
Eu2232 O2255 2.349 . S
Eu2233 O2242 2.373 . S
Eu2233 O2246 2.488 . S
Eu2233 O2247 2.471 . S
Eu2233 O2248 2.349 . S
Eu2233 O2251 2.392 . S
Eu2233 O2252 2.418 . S
Eu2233 C2262 2.828 . S
C2234 O2252 1.244 . S
C2234 O2255 1.265 . S
C2235 C2236 1.379 . S
C2235 C2239 1.373 . S
C2235 C2241 1.505 . S
C2236 C2235 1.379 . S
C2236 C2238 1.369 . S
C2236 H2264 0.930 . S
C2237 C2239 1.383 . S
C2237 C2240 1.382 . S
C2237 H2265 0.930 . S
C2238 C2236 1.369 . S
C2238 C2240 1.392 . S
C2238 H2266 0.930 . S
C2239 C2235 1.373 . S
C2239 C2237 1.383 . S
C2239 H2267 0.931 . S
C2240 C2237 1.382 . S
C2240 C2238 1.392 . S
C2241 Eu2232 2.828 . S
C2241 C2235 1.505 . S
C2241 O2253 1.249 . S
C2241 O2254 1.244 . S
O2242 Eu2233 2.373 . S
O2242 C2244 1.258 . S
O2243 Eu2232 2.392 . S
O2243 C2244 1.242 . S
C2244 O2242 1.258 . S
C2244 O2243 1.242 . S
O2245 Eu2232 2.418 . S
O2245 C2249 1.244 . S
O2246 Eu2233 2.488 . S
O2246 C2262 1.249 . S
O2247 Eu2233 2.471 . S
O2247 C2262 1.244 . S
O2248 Eu2233 2.349 . S
O2248 C2249 1.265 . S
C2249 O2245 1.244 . S
C2249 O2248 1.265 . S
O2250 Eu2232 2.373 . S
O2250 C2263 1.258 . S
O2251 Eu2233 2.392 . S
O2251 C2263 1.242 . S
O2252 Eu2233 2.418 . S
O2252 C2234 1.244 . S
O2253 Eu2232 2.488 . S
O2253 C2241 1.249 . S
O2254 Eu2232 2.471 . S
O2254 C2241 1.244 . S
O2255 Eu2232 2.349 . S
O2255 C2234 1.265 . S
C2256 C2257 1.379 . S
C2256 C2260 1.373 . S
C2256 C2262 1.505 . S
C2257 C2256 1.379 . S
C2257 C2259 1.369 . S
C2257 H2268 0.930 . S
C2258 C2260 1.383 . S
C2258 C2261 1.382 . S
C2258 H2269 0.930 . S
C2259 C2257 1.369 . S
C2259 C2261 1.392 . S
C2259 H2270 0.930 . S
C2260 C2256 1.373 . S
C2260 C2258 1.383 . S
C2260 H2271 0.931 . S
C2261 C2258 1.382 . S
C2261 C2259 1.392 . S
C2262 Eu2233 2.828 . S
C2262 O2246 1.249 . S
C2262 O2247 1.244 . S
C2262 C2256 1.505 . S
C2263 O2250 1.258 . S
C2263 O2251 1.242 . S
H2264 C2236 0.930 . S
H2265 C2237 0.930 . S
H2266 C2238 0.930 . S
H2267 C2239 0.931 . S
H2268 C2257 0.930 . S
H2269 C2258 0.930 . S
H2270 C2259 0.930 . S
H2271 C2260 0.931 . S
Eu2272 C2281 2.828 . S
Eu2272 O2283 2.392 . S
Eu2272 O2285 2.418 1_455 S
Eu2272 O2290 2.373 . S
Eu2272 O2293 2.488 . S
Eu2272 O2294 2.471 . S
Eu2272 O2295 2.349 . S
Eu2273 O2282 2.373 . S
Eu2273 O2286 2.488 1_545 S
Eu2273 O2287 2.471 1_545 S
Eu2273 O2288 2.349 . S
Eu2273 O2291 2.392 . S
Eu2273 O2292 2.418 . S
Eu2273 C2302 2.828 1_545 S
C2274 O2292 1.244 . S
C2274 O2295 1.265 . S
C2275 C2276 1.379 . S
C2275 C2279 1.373 . S
C2275 C2281 1.505 . S
C2276 C2275 1.379 . S
C2276 C2278 1.369 . S
C2276 H2304 0.930 . S
C2277 C2279 1.383 . S
C2277 C2280 1.382 . S
C2277 H2305 0.930 1_455 S
C2278 C2276 1.369 . S
C2278 C2280 1.392 . S
C2278 H2306 0.930 . S
C2279 C2275 1.373 . S
C2279 C2277 1.383 . S
C2279 H2307 0.931 1_455 S
C2280 C2277 1.382 . S
C2280 C2278 1.392 . S
C2281 Eu2272 2.828 . S
C2281 C2275 1.505 . S
C2281 O2293 1.249 . S
C2281 O2294 1.244 . S
O2282 Eu2273 2.373 . S
O2282 C2284 1.258 . S
O2283 Eu2272 2.392 . S
O2283 C2284 1.242 . S
C2284 O2282 1.258 . S
C2284 O2283 1.242 . S
O2285 Eu2272 2.418 1_655 S
O2285 C2289 1.228 1_655 S
O2286 Eu2273 2.488 1_565 S
O2286 C2302 1.249 . S
O2287 Eu2273 2.471 1_565 S
O2287 C2302 1.244 . S
O2288 Eu2273 2.349 . S
O2288 C2289 1.312 . S
C2289 O2285 1.228 1_455 S
C2289 O2288 1.312 . S
O2290 Eu2272 2.373 . S
O2290 C2303 1.258 . S
O2291 Eu2273 2.392 . S
O2291 C2303 1.242 . S
O2292 Eu2273 2.418 . S
O2292 C2274 1.244 . S
O2293 Eu2272 2.488 . S
O2293 C2281 1.249 . S
O2294 Eu2272 2.471 . S
O2294 C2281 1.244 . S
O2295 Eu2272 2.349 . S
O2295 C2274 1.265 . S
C2296 C2297 1.379 . S
C2296 C2300 1.373 . S
C2296 C2302 1.505 . S
C2297 C2296 1.379 . S
C2297 C2299 1.369 . S
C2297 H2308 0.930 . S
C2298 C2300 1.383 . S
C2298 C2301 1.382 . S
C2298 H2309 0.930 . S
C2299 C2297 1.369 . S
C2299 C2301 1.392 . S
C2299 H2310 0.930 . S
C2300 C2296 1.373 . S
C2300 C2298 1.383 . S
C2300 H2311 0.931 . S
C2301 C2298 1.382 . S
C2301 C2299 1.392 . S
C2302 Eu2273 2.828 1_565 S
C2302 O2286 1.249 . S
C2302 O2287 1.244 . S
C2302 C2296 1.505 . S
C2303 O2290 1.258 . S
C2303 O2291 1.242 . S
H2304 C2276 0.930 . S
H2305 C2277 0.930 1_655 S
H2306 C2278 0.930 . S
H2307 C2279 0.931 1_655 S
H2308 C2297 0.930 . S
H2309 C2298 0.930 . S
H2310 C2299 0.930 . S
H2311 C2300 0.931 . S
Eu2312 C2321 2.828 . S
Eu2312 O2323 2.392 . S
Eu2312 O2325 2.418 . S
Eu2312 O2330 2.373 . S
Eu2312 O2333 2.488 . S
Eu2312 O2334 2.471 . S
Eu2312 O2335 2.349 . S
Eu2313 O2322 2.373 . S
Eu2313 O2326 2.488 . S
Eu2313 O2327 2.471 . S
Eu2313 O2328 2.349 . S
Eu2313 O2331 2.392 . S
Eu2313 O2332 2.418 . S
Eu2313 C2342 2.828 . S
C2314 O2332 1.244 . S
C2314 O2335 1.265 . S
C2315 C2316 1.379 . S
C2315 C2319 1.373 . S
C2315 C2321 1.505 . S
C2316 C2315 1.379 . S
C2316 C2318 1.369 . S
C2316 H2344 0.930 . S
C2317 C2319 1.383 . S
C2317 C2320 1.382 . S
C2317 H2345 0.930 . S
C2318 C2316 1.369 . S
C2318 C2320 1.392 . S
C2318 H2346 0.930 . S
C2319 C2315 1.373 . S
C2319 C2317 1.383 . S
C2319 H2347 0.931 . S
C2320 C2317 1.382 . S
C2320 C2318 1.392 . S
C2321 Eu2312 2.828 . S
C2321 C2315 1.505 . S
C2321 O2333 1.249 . S
C2321 O2334 1.244 . S
O2322 Eu2313 2.373 . S
O2322 C2324 1.258 . S
O2323 Eu2312 2.392 . S
O2323 C2324 1.242 . S
C2324 O2322 1.258 . S
C2324 O2323 1.242 . S
O2325 Eu2312 2.418 . S
O2325 C2329 1.244 . S
O2326 Eu2313 2.488 . S
O2326 C2342 1.249 . S
O2327 Eu2313 2.471 . S
O2327 C2342 1.244 . S
O2328 Eu2313 2.349 . S
O2328 C2329 1.265 . S
C2329 O2325 1.244 . S
C2329 O2328 1.265 . S
O2330 Eu2312 2.373 . S
O2330 C2343 1.258 . S
O2331 Eu2313 2.392 . S
O2331 C2343 1.242 . S
O2332 Eu2313 2.418 . S
O2332 C2314 1.244 . S
O2333 Eu2312 2.488 . S
O2333 C2321 1.249 . S
O2334 Eu2312 2.471 . S
O2334 C2321 1.244 . S
O2335 Eu2312 2.349 . S
O2335 C2314 1.265 . S
C2336 C2337 1.379 . S
C2336 C2340 1.373 . S
C2336 C2342 1.505 . S
C2337 C2336 1.379 . S
C2337 C2339 1.369 . S
C2337 H2348 0.930 . S
C2338 C2340 1.383 . S
C2338 C2341 1.382 . S
C2338 H2349 0.930 . S
C2339 C2337 1.369 . S
C2339 C2341 1.392 . S
C2339 H2350 0.930 . S
C2340 C2336 1.373 . S
C2340 C2338 1.383 . S
C2340 H2351 0.931 . S
C2341 C2338 1.382 . S
C2341 C2339 1.392 . S
C2342 Eu2313 2.828 . S
C2342 O2326 1.249 . S
C2342 O2327 1.244 . S
C2342 C2336 1.505 . S
C2343 O2330 1.258 . S
C2343 O2331 1.242 . S
H2344 C2316 0.930 . S
H2345 C2317 0.930 . S
H2346 C2318 0.930 . S
H2347 C2319 0.931 . S
H2348 C2337 0.930 . S
H2349 C2338 0.930 . S
H2350 C2339 0.930 . S
H2351 C2340 0.931 . S
Eu2352 C2361 2.828 . S
Eu2352 O2363 2.392 . S
Eu2352 O2365 2.418 1_545 S
Eu2352 O2370 2.373 . S
Eu2352 O2373 2.505 . S
Eu2352 O2374 2.471 . S
Eu2352 O2375 2.349 . S
Eu2353 O2362 2.373 . S
Eu2353 O2366 2.488 . S
Eu2353 O2367 2.471 . S
Eu2353 O2368 2.349 . S
Eu2353 O2371 2.392 . S
Eu2353 O2372 2.418 1_556 S
Eu2353 C2382 2.828 . S
C2354 O2372 1.244 . S
C2354 O2375 1.265 . S
C2355 C2356 1.379 . S
C2355 C2359 1.373 1_545 S
C2355 C2361 1.505 . S
C2356 C2355 1.379 . S
C2356 C2358 1.369 . S
C2356 H2384 0.930 . S
C2357 C2359 1.383 . S
C2357 C2360 1.382 1_565 S
C2357 H2385 0.930 . S
C2358 C2356 1.369 . S
C2358 C2360 1.392 . S
C2358 H2386 0.930 . S
C2359 C2355 1.373 1_565 S
C2359 C2357 1.383 . S
C2359 H2387 0.931 . S
C2360 C2357 1.382 1_545 S
C2360 C2358 1.392 . S
C2361 Eu2352 2.828 . S
C2361 C2355 1.505 . S
C2361 O2373 1.268 . S
C2361 O2374 1.244 . S
O2362 Eu2353 2.373 . S
O2362 C2364 1.258 1_556 S
O2363 Eu2352 2.392 . S
O2363 C2364 1.242 . S
C2364 O2362 1.258 1_554 S
C2364 O2363 1.242 . S
O2365 Eu2352 2.418 1_565 S
O2365 C2369 1.224 1_554 S
O2366 Eu2353 2.488 . S
O2366 C2382 1.249 . S
O2367 Eu2353 2.471 . S
O2367 C2382 1.244 . S
O2368 Eu2353 2.349 . S
O2368 C2369 1.272 1_545 S
C2369 O2365 1.224 1_556 S
C2369 O2368 1.272 1_565 S
O2370 Eu2352 2.373 . S
O2370 C2383 1.258 . S
O2371 Eu2353 2.392 . S
O2371 C2383 1.242 1_556 S
O2372 Eu2353 2.418 1_554 S
O2372 C2354 1.244 . S
O2373 Eu2352 2.505 . S
O2373 C2361 1.268 . S
O2374 Eu2352 2.471 . S
O2374 C2361 1.244 . S
O2375 Eu2352 2.349 . S
O2375 C2354 1.265 . S
C2376 C2377 1.379 . S
C2376 C2380 1.373 . S
C2376 C2382 1.505 . S
C2377 C2376 1.379 . S
C2377 C2379 1.369 . S
C2377 H2388 0.930 . S
C2378 C2380 1.383 . S
C2378 C2381 1.382 . S
C2378 H2389 0.930 . S
C2379 C2377 1.369 . S
C2379 C2381 1.392 . S
C2379 H2390 0.930 . S
C2380 C2376 1.373 . S
C2380 C2378 1.383 . S
C2380 H2391 0.931 . S
C2381 C2378 1.382 . S
C2381 C2379 1.392 . S
C2382 Eu2353 2.828 . S
C2382 O2366 1.249 . S
C2382 O2367 1.244 . S
C2382 C2376 1.505 . S
C2383 O2370 1.258 . S
C2383 O2371 1.242 1_554 S
H2384 C2356 0.930 . S
H2385 C2357 0.930 . S
H2386 C2358 0.930 . S
H2387 C2359 0.931 . S
H2388 C2377 0.930 . S
H2389 C2378 0.930 . S
H2390 C2379 0.930 . S
H2391 C2380 0.931 . S
Eu2392 C2401 2.828 . S
Eu2392 O2403 2.392 . S
Eu2392 O2405 2.418 . S
Eu2392 O2410 2.373 . S
Eu2392 O2413 2.488 . S
Eu2392 O2414 2.471 . S
Eu2392 O2415 2.349 . S
Eu2393 O2402 2.373 . S
Eu2393 O2406 2.488 . S
Eu2393 O2407 2.471 . S
Eu2393 O2408 2.349 . S
Eu2393 O2411 2.392 . S
Eu2393 O2412 2.418 . S
Eu2393 C2422 2.828 . S
C2394 O2412 1.244 . S
C2394 O2415 1.265 . S
C2395 C2396 1.379 . S
C2395 C2399 1.373 . S
C2395 C2401 1.505 . S
C2396 C2395 1.379 . S
C2396 C2398 1.369 . S
C2396 H2424 0.930 . S
C2397 C2399 1.383 . S
C2397 C2400 1.382 . S
C2397 H2425 0.930 . S
C2398 C2396 1.369 . S
C2398 C2400 1.392 . S
C2398 H2426 0.930 . S
C2399 C2395 1.373 . S
C2399 C2397 1.383 . S
C2399 H2427 0.931 . S
C2400 C2397 1.382 . S
C2400 C2398 1.392 . S
C2401 Eu2392 2.828 . S
C2401 C2395 1.505 . S
C2401 O2413 1.249 . S
C2401 O2414 1.244 . S
O2402 Eu2393 2.373 . S
O2402 C2404 1.258 . S
O2403 Eu2392 2.392 . S
O2403 C2404 1.242 . S
C2404 O2402 1.258 . S
C2404 O2403 1.242 . S
O2405 Eu2392 2.418 . S
O2405 C2409 1.244 . S
O2406 Eu2393 2.488 . S
O2406 C2422 1.249 . S
O2407 Eu2393 2.471 . S
O2407 C2422 1.244 . S
O2408 Eu2393 2.349 . S
O2408 C2409 1.265 . S
C2409 O2405 1.244 . S
C2409 O2408 1.265 . S
O2410 Eu2392 2.373 . S
O2410 C2423 1.258 . S
O2411 Eu2393 2.392 . S
O2411 C2423 1.242 . S
O2412 Eu2393 2.418 . S
O2412 C2394 1.244 . S
O2413 Eu2392 2.488 . S
O2413 C2401 1.249 . S
O2414 Eu2392 2.471 . S
O2414 C2401 1.244 . S
O2415 Eu2392 2.349 . S
O2415 C2394 1.265 . S
C2416 C2417 1.379 . S
C2416 C2420 1.373 . S
C2416 C2422 1.505 . S
C2417 C2416 1.379 . S
C2417 C2419 1.369 . S
C2417 H2428 0.930 . S
C2418 C2420 1.383 . S
C2418 C2421 1.382 . S
C2418 H2429 0.930 . S
C2419 C2417 1.369 . S
C2419 C2421 1.392 . S
C2419 H2430 0.930 . S
C2420 C2416 1.373 . S
C2420 C2418 1.383 . S
C2420 H2431 0.931 . S
C2421 C2418 1.382 . S
C2421 C2419 1.392 . S
C2422 Eu2393 2.828 . S
C2422 O2406 1.249 . S
C2422 O2407 1.244 . S
C2422 C2416 1.505 . S
C2423 O2410 1.258 . S
C2423 O2411 1.242 . S
H2424 C2396 0.930 . S
H2425 C2397 0.930 . S
H2426 C2398 0.930 . S
H2427 C2399 0.931 . S
H2428 C2417 0.930 . S
H2429 C2418 0.930 . S
H2430 C2419 0.930 . S
H2431 C2420 0.931 . S
Eu2432 C2441 2.828 . S
Eu2432 O2443 2.392 . S
Eu2432 O2445 2.418 . S
Eu2432 O2450 2.373 1_554 S
Eu2432 O2453 2.488 . S
Eu2432 O2454 2.471 . S
Eu2432 O2455 2.349 . S
Eu2433 O2442 2.427 . S
Eu2433 O2446 2.510 . S
Eu2433 O2447 2.507 . S
Eu2433 O2448 2.369 . S
Eu2433 O2451 2.344 1_554 S
Eu2433 O2452 2.413 . S
Eu2433 C2462 2.861 . S
C2434 O2452 1.244 . S
C2434 O2455 1.265 . S
C2435 C2436 1.379 . S
C2435 C2439 1.373 . S
C2435 C2441 1.505 1_556 S
C2436 C2435 1.379 . S
C2436 C2438 1.369 . S
C2436 H2464 0.930 . S
C2437 C2439 1.383 . S
C2437 C2440 1.382 . S
C2437 H2465 0.930 . S
C2438 C2436 1.369 . S
C2438 C2440 1.392 . S
C2438 H2466 0.930 . S
C2439 C2435 1.373 . S
C2439 C2437 1.383 . S
C2439 H2467 0.931 1_556 S
C2440 C2437 1.382 . S
C2440 C2438 1.392 . S
C2441 Eu2432 2.828 . S
C2441 C2435 1.505 1_554 S
C2441 O2453 1.249 . S
C2441 O2454 1.244 . S
O2442 Eu2433 2.427 . S
O2442 C2444 1.258 . S
O2443 Eu2432 2.392 . S
O2443 C2444 1.242 . S
C2444 O2442 1.258 . S
C2444 O2443 1.242 . S
O2445 Eu2432 2.418 . S
O2445 C2449 1.244 . S
O2446 Eu2433 2.510 . S
O2446 C2462 1.249 . S
O2447 Eu2433 2.507 . S
O2447 C2462 1.244 . S
O2448 Eu2433 2.369 . S
O2448 C2449 1.265 . S
C2449 O2445 1.244 . S
C2449 O2448 1.265 . S
O2450 Eu2432 2.373 1_556 S
O2450 C2463 1.258 . S
O2451 Eu2433 2.344 1_556 S
O2451 C2463 1.242 . S
O2452 Eu2433 2.413 . S
O2452 C2434 1.244 . S
O2453 Eu2432 2.488 . S
O2453 C2441 1.249 . S
O2454 Eu2432 2.471 . S
O2454 C2441 1.244 . S
O2455 Eu2432 2.349 . S
O2455 C2434 1.265 . S
C2456 C2457 1.379 . S
C2456 C2460 1.373 . S
C2456 C2462 1.505 . S
C2457 C2456 1.379 . S
C2457 C2459 1.369 . S
C2457 H2468 0.930 . S
C2458 C2460 1.383 . S
C2458 C2461 1.382 . S
C2458 H2469 0.930 . S
C2459 C2457 1.369 . S
C2459 C2461 1.392 . S
C2459 H2470 0.930 . S
C2460 C2456 1.373 . S
C2460 C2458 1.383 . S
C2460 H2471 0.931 . S
C2461 C2458 1.382 . S
C2461 C2459 1.392 . S
C2462 Eu2433 2.861 . S
C2462 O2446 1.249 . S
C2462 O2447 1.244 . S
C2462 C2456 1.505 . S
C2463 O2450 1.258 . S
C2463 O2451 1.242 . S
H2464 C2436 0.930 . S
H2465 C2437 0.930 . S
H2466 C2438 0.930 . S
H2467 C2439 0.931 1_554 S
H2468 C2457 0.930 . S
H2469 C2458 0.930 . S
H2470 C2459 0.930 . S
H2471 C2460 0.931 . S
Eu2472 C2481 2.828 . S
Eu2472 O2483 2.392 . S
Eu2472 O2485 2.418 . S
Eu2472 O2490 2.373 . S
Eu2472 O2493 2.488 . S
Eu2472 O2494 2.471 . S
Eu2472 O2495 2.349 . S
Eu2473 O2482 2.373 . S
Eu2473 O2486 2.488 . S
Eu2473 O2487 2.471 . S
Eu2473 O2488 2.349 . S
Eu2473 O2491 2.392 . S
Eu2473 O2492 2.418 . S
Eu2473 C2502 2.828 . S
C2474 O2492 1.244 . S
C2474 O2495 1.265 . S
C2475 C2476 1.379 . S
C2475 C2479 1.373 . S
C2475 C2481 1.505 . S
C2476 C2475 1.379 . S
C2476 C2478 1.369 . S
C2476 H2504 0.930 . S
C2477 C2479 1.383 . S
C2477 C2480 1.382 . S
C2477 H2505 0.930 . S
C2478 C2476 1.369 . S
C2478 C2480 1.392 . S
C2478 H2506 0.930 . S
C2479 C2475 1.373 . S
C2479 C2477 1.383 . S
C2479 H2507 0.931 . S
C2480 C2477 1.382 . S
C2480 C2478 1.392 . S
C2481 Eu2472 2.828 . S
C2481 C2475 1.505 . S
C2481 O2493 1.249 . S
C2481 O2494 1.244 . S
O2482 Eu2473 2.373 . S
O2482 C2484 1.258 . S
O2483 Eu2472 2.392 . S
O2483 C2484 1.242 . S
C2484 O2482 1.258 . S
C2484 O2483 1.242 . S
O2485 Eu2472 2.418 . S
O2485 C2489 1.244 . S
O2486 Eu2473 2.488 . S
O2486 C2502 1.249 . S
O2487 Eu2473 2.471 . S
O2487 C2502 1.244 . S
O2488 Eu2473 2.349 . S
O2488 C2489 1.265 . S
C2489 O2485 1.244 . S
C2489 O2488 1.265 . S
O2490 Eu2472 2.373 . S
O2490 C2503 1.258 . S
O2491 Eu2473 2.392 . S
O2491 C2503 1.242 . S
O2492 Eu2473 2.418 . S
O2492 C2474 1.244 . S
O2493 Eu2472 2.488 . S
O2493 C2481 1.249 . S
O2494 Eu2472 2.471 . S
O2494 C2481 1.244 . S
O2495 Eu2472 2.349 . S
O2495 C2474 1.265 . S
C2496 C2497 1.379 . S
C2496 C2500 1.373 . S
C2496 C2502 1.505 . S
C2497 C2496 1.379 . S
C2497 C2499 1.369 . S
C2497 H2508 0.930 . S
C2498 C2500 1.383 . S
C2498 C2501 1.382 . S
C2498 H2509 0.930 . S
C2499 C2497 1.369 . S
C2499 C2501 1.392 . S
C2499 H2510 0.930 . S
C2500 C2496 1.373 . S
C2500 C2498 1.383 . S
C2500 H2511 0.931 . S
C2501 C2498 1.382 . S
C2501 C2499 1.392 . S
C2502 Eu2473 2.828 . S
C2502 O2486 1.249 . S
C2502 O2487 1.244 . S
C2502 C2496 1.505 . S
C2503 O2490 1.258 . S
C2503 O2491 1.242 . S
H2504 C2476 0.930 . S
H2505 C2477 0.930 . S
H2506 C2478 0.930 . S
H2507 C2479 0.931 . S
H2508 C2497 0.930 . S
H2509 C2498 0.930 . S
H2510 C2499 0.930 . S
H2511 C2500 0.931 . S
Eu2512 C2521 2.828 . S
Eu2512 O2523 2.392 . S
Eu2512 O2525 2.418 . S
Eu2512 O2530 2.373 . S
Eu2512 O2533 2.488 . S
Eu2512 O2534 2.471 . S
Eu2512 O2535 2.349 . S
Eu2513 O2522 2.373 . S
Eu2513 O2526 2.488 . S
Eu2513 O2527 2.471 . S
Eu2513 O2528 2.349 . S
Eu2513 O2531 2.392 . S
Eu2513 O2532 2.418 . S
Eu2513 C2542 2.828 . S
C2514 O2532 1.244 . S
C2514 O2535 1.265 . S
C2515 C2516 1.379 1_455 S
C2515 C2519 1.373 . S
C2515 C2521 1.505 . S
C2516 C2515 1.379 1_655 S
C2516 C2518 1.369 . S
C2516 H2544 0.930 . S
C2517 C2519 1.383 1_655 S
C2517 C2520 1.382 . S
C2517 H2545 0.930 . S
C2518 C2516 1.369 . S
C2518 C2520 1.392 . S
C2518 H2546 0.930 . S
C2519 C2515 1.373 . S
C2519 C2517 1.383 1_455 S
C2519 H2547 0.931 . S
C2520 C2517 1.382 . S
C2520 C2518 1.392 . S
C2521 Eu2512 2.828 . S
C2521 C2515 1.505 . S
C2521 O2533 1.249 . S
C2521 O2534 1.244 . S
O2522 Eu2513 2.373 . S
O2522 C2524 1.258 . S
O2523 Eu2512 2.392 . S
O2523 C2524 1.242 . S
C2524 O2522 1.258 . S
C2524 O2523 1.242 . S
O2525 Eu2512 2.418 . S
O2525 C2529 1.244 . S
O2526 Eu2513 2.488 . S
O2526 C2542 1.249 . S
O2527 Eu2513 2.471 . S
O2527 C2542 1.244 . S
O2528 Eu2513 2.349 . S
O2528 C2529 1.265 . S
C2529 O2525 1.244 . S
C2529 O2528 1.265 . S
O2530 Eu2512 2.373 . S
O2530 C2543 1.258 1_455 S
O2531 Eu2513 2.392 . S
O2531 C2543 1.242 1_455 S
O2532 Eu2513 2.418 . S
O2532 C2514 1.244 . S
O2533 Eu2512 2.488 . S
O2533 C2521 1.249 . S
O2534 Eu2512 2.471 . S
O2534 C2521 1.244 . S
O2535 Eu2512 2.349 . S
O2535 C2514 1.265 . S
C2536 C2537 1.379 . S
C2536 C2540 1.373 . S
C2536 C2542 1.505 . S
C2537 C2536 1.379 . S
C2537 C2539 1.369 . S
C2537 H2548 0.930 . S
C2538 C2540 1.383 . S
C2538 C2541 1.382 . S
C2538 H2549 0.930 . S
C2539 C2537 1.369 . S
C2539 C2541 1.392 . S
C2539 H2550 0.930 . S
C2540 C2536 1.373 . S
C2540 C2538 1.383 . S
C2540 H2551 0.931 . S
C2541 C2538 1.382 . S
C2541 C2539 1.392 . S
C2542 Eu2513 2.828 . S
C2542 O2526 1.249 . S
C2542 O2527 1.244 . S
C2542 C2536 1.505 . S
C2543 O2530 1.258 1_655 S
C2543 O2531 1.242 1_655 S
H2544 C2516 0.930 . S
H2545 C2517 0.930 . S
H2546 C2518 0.930 . S
H2547 C2519 0.931 . S
H2548 C2537 0.930 . S
H2549 C2538 0.930 . S
H2550 C2539 0.930 . S
H2551 C2540 0.931 . S
Eu2552 C2561 2.828 . S
Eu2552 O2563 2.392 . S
Eu2552 O2565 2.418 . S
Eu2552 O2570 2.373 . S
Eu2552 O2573 2.488 . S
Eu2552 O2574 2.471 . S
Eu2552 O2575 2.349 . S
Eu2553 O2562 2.373 . S
Eu2553 O2566 2.488 . S
Eu2553 O2567 2.471 . S
Eu2553 O2568 2.349 . S
Eu2553 O2571 2.392 . S
Eu2553 O2572 2.418 . S
Eu2553 C2582 2.828 . S
C2554 O2572 1.244 . S
C2554 O2575 1.265 . S
C2555 C2556 1.379 . S
C2555 C2559 1.373 . S
C2555 C2561 1.505 . S
C2556 C2555 1.379 . S
C2556 C2558 1.369 . S
C2556 H2584 0.930 . S
C2557 C2559 1.383 . S
C2557 C2560 1.382 . S
C2557 H2585 0.930 . S
C2558 C2556 1.369 . S
C2558 C2560 1.392 . S
C2558 H2586 0.930 . S
C2559 C2555 1.373 . S
C2559 C2557 1.383 . S
C2559 H2587 0.931 . S
C2560 C2557 1.382 . S
C2560 C2558 1.392 . S
C2561 Eu2552 2.828 . S
C2561 C2555 1.505 . S
C2561 O2573 1.249 . S
C2561 O2574 1.244 . S
O2562 Eu2553 2.373 . S
O2562 C2564 1.258 . S
O2563 Eu2552 2.392 . S
O2563 C2564 1.242 . S
C2564 O2562 1.258 . S
C2564 O2563 1.242 . S
O2565 Eu2552 2.418 . S
O2565 C2569 1.244 . S
O2566 Eu2553 2.488 . S
O2566 C2582 1.249 . S
O2567 Eu2553 2.471 . S
O2567 C2582 1.244 . S
O2568 Eu2553 2.349 . S
O2568 C2569 1.265 . S
C2569 O2565 1.244 . S
C2569 O2568 1.265 . S
O2570 Eu2552 2.373 . S
O2570 C2583 1.258 . S
O2571 Eu2553 2.392 . S
O2571 C2583 1.242 . S
O2572 Eu2553 2.418 . S
O2572 C2554 1.244 . S
O2573 Eu2552 2.488 . S
O2573 C2561 1.249 . S
O2574 Eu2552 2.471 . S
O2574 C2561 1.244 . S
O2575 Eu2552 2.349 . S
O2575 C2554 1.265 . S
C2576 C2577 1.379 . S
C2576 C2580 1.373 . S
C2576 C2582 1.505 . S
C2577 C2576 1.379 . S
C2577 C2579 1.369 . S
C2577 H2588 0.930 . S
C2578 C2580 1.383 . S
C2578 C2581 1.382 . S
C2578 H2589 0.930 . S
C2579 C2577 1.369 . S
C2579 C2581 1.392 . S
C2579 H2590 0.930 . S
C2580 C2576 1.373 . S
C2580 C2578 1.383 . S
C2580 H2591 0.931 . S
C2581 C2578 1.382 . S
C2581 C2579 1.392 . S
C2582 Eu2553 2.828 . S
C2582 O2566 1.249 . S
C2582 O2567 1.244 . S
C2582 C2576 1.505 . S
C2583 O2570 1.258 . S
C2583 O2571 1.242 . S
H2584 C2556 0.930 . S
H2585 C2557 0.930 . S
H2586 C2558 0.930 . S
H2587 C2559 0.931 . S
H2588 C2577 0.930 . S
H2589 C2578 0.930 . S
H2590 C2579 0.930 . S
H2591 C2580 0.931 . S
Eu2592 C2601 2.828 . S
Eu2592 O2603 2.392 . S
Eu2592 O2605 2.418 . S
Eu2592 O2610 2.373 . S
Eu2592 O2613 2.488 . S
Eu2592 O2614 2.471 . S
Eu2592 O2615 2.349 . S
Eu2593 O2602 2.373 . S
Eu2593 O2606 2.488 . S
Eu2593 O2607 2.471 . S
Eu2593 O2608 2.349 . S
Eu2593 O2611 2.392 . S
Eu2593 O2612 2.418 . S
Eu2593 C2622 2.828 . S
C2594 O2612 1.244 . S
C2594 O2615 1.265 . S
C2595 C2596 1.379 . S
C2595 C2599 1.373 . S
C2595 C2601 1.505 . S
C2596 C2595 1.379 . S
C2596 C2598 1.369 . S
C2596 H2624 0.930 . S
C2597 C2599 1.383 . S
C2597 C2600 1.382 . S
C2597 H2625 0.930 . S
C2598 C2596 1.369 . S
C2598 C2600 1.392 . S
C2598 H2626 0.930 . S
C2599 C2595 1.373 . S
C2599 C2597 1.383 . S
C2599 H2627 0.931 . S
C2600 C2597 1.382 . S
C2600 C2598 1.392 . S
C2601 Eu2592 2.828 . S
C2601 C2595 1.505 . S
C2601 O2613 1.249 . S
C2601 O2614 1.244 . S
O2602 Eu2593 2.373 . S
O2602 C2604 1.258 . S
O2603 Eu2592 2.392 . S
O2603 C2604 1.242 . S
C2604 O2602 1.258 . S
C2604 O2603 1.242 . S
O2605 Eu2592 2.418 . S
O2605 C2609 1.244 . S
O2606 Eu2593 2.488 . S
O2606 C2622 1.249 . S
O2607 Eu2593 2.471 . S
O2607 C2622 1.244 . S
O2608 Eu2593 2.349 . S
O2608 C2609 1.265 . S
C2609 O2605 1.244 . S
C2609 O2608 1.265 . S
O2610 Eu2592 2.373 . S
O2610 C2623 1.258 . S
O2611 Eu2593 2.392 . S
O2611 C2623 1.242 . S
O2612 Eu2593 2.418 . S
O2612 C2594 1.244 . S
O2613 Eu2592 2.488 . S
O2613 C2601 1.249 . S
O2614 Eu2592 2.471 . S
O2614 C2601 1.244 . S
O2615 Eu2592 2.349 . S
O2615 C2594 1.265 . S
C2616 C2617 1.379 . S
C2616 C2620 1.373 . S
C2616 C2622 1.505 . S
C2617 C2616 1.379 . S
C2617 C2619 1.369 . S
C2617 H2628 0.930 . S
C2618 C2620 1.383 . S
C2618 C2621 1.382 . S
C2618 H2629 0.930 . S
C2619 C2617 1.369 . S
C2619 C2621 1.392 . S
C2619 H2630 0.930 . S
C2620 C2616 1.373 . S
C2620 C2618 1.383 . S
C2620 H2631 0.931 . S
C2621 C2618 1.382 . S
C2621 C2619 1.392 . S
C2622 Eu2593 2.828 . S
C2622 O2606 1.249 . S
C2622 O2607 1.244 . S
C2622 C2616 1.505 . S
C2623 O2610 1.258 . S
C2623 O2611 1.242 . S
H2624 C2596 0.930 . S
H2625 C2597 0.930 . S
H2626 C2598 0.930 . S
H2627 C2599 0.931 . S
H2628 C2617 0.930 . S
H2629 C2618 0.930 . S
H2630 C2619 0.930 . S
H2631 C2620 0.931 . S
Eu2632 C2641 2.828 . S
Eu2632 O2643 2.392 . S
Eu2632 O2645 2.418 . S
Eu2632 O2650 2.373 . S
Eu2632 O2653 2.488 . S
Eu2632 O2654 2.471 . S
Eu2632 O2655 2.349 . S
Eu2633 O2642 2.373 . S
Eu2633 O2646 2.488 . S
Eu2633 O2647 2.471 . S
Eu2633 O2648 2.349 . S
Eu2633 O2651 2.392 . S
Eu2633 O2652 2.418 . S
Eu2633 C2662 2.828 . S
C2634 O2652 1.244 . S
C2634 O2655 1.265 . S
C2635 C2636 1.379 . S
C2635 C2639 1.373 . S
C2635 C2641 1.505 . S
C2636 C2635 1.379 . S
C2636 C2638 1.369 . S
C2636 H2664 0.930 . S
C2637 C2639 1.383 . S
C2637 C2640 1.382 . S
C2637 H2665 0.930 . S
C2638 C2636 1.369 . S
C2638 C2640 1.392 . S
C2638 H2666 0.930 . S
C2639 C2635 1.373 . S
C2639 C2637 1.383 . S
C2639 H2667 0.931 . S
C2640 C2637 1.382 . S
C2640 C2638 1.392 . S
C2641 Eu2632 2.828 . S
C2641 C2635 1.505 . S
C2641 O2653 1.249 . S
C2641 O2654 1.244 . S
O2642 Eu2633 2.373 . S
O2642 C2644 1.258 . S
O2643 Eu2632 2.392 . S
O2643 C2644 1.242 . S
C2644 O2642 1.258 . S
C2644 O2643 1.242 . S
O2645 Eu2632 2.418 . S
O2645 C2649 1.244 . S
O2646 Eu2633 2.488 . S
O2646 C2662 1.249 . S
O2647 Eu2633 2.471 . S
O2647 C2662 1.244 . S
O2648 Eu2633 2.349 . S
O2648 C2649 1.265 . S
C2649 O2645 1.244 . S
C2649 O2648 1.265 . S
O2650 Eu2632 2.373 . S
O2650 C2663 1.258 . S
O2651 Eu2633 2.392 . S
O2651 C2663 1.242 . S
O2652 Eu2633 2.418 . S
O2652 C2634 1.244 . S
O2653 Eu2632 2.488 . S
O2653 C2641 1.249 . S
O2654 Eu2632 2.471 . S
O2654 C2641 1.244 . S
O2655 Eu2632 2.349 . S
O2655 C2634 1.265 . S
C2656 C2657 1.379 . S
C2656 C2660 1.373 . S
C2656 C2662 1.505 . S
C2657 C2656 1.379 . S
C2657 C2659 1.369 . S
C2657 H2668 0.930 . S
C2658 C2660 1.383 . S
C2658 C2661 1.382 . S
C2658 H2669 0.930 . S
C2659 C2657 1.369 . S
C2659 C2661 1.392 . S
C2659 H2670 0.930 . S
C2660 C2656 1.373 . S
C2660 C2658 1.383 . S
C2660 H2671 0.931 . S
C2661 C2658 1.382 . S
C2661 C2659 1.392 . S
C2662 Eu2633 2.828 . S
C2662 O2646 1.249 . S
C2662 O2647 1.244 . S
C2662 C2656 1.505 . S
C2663 O2650 1.258 . S
C2663 O2651 1.242 . S
H2664 C2636 0.930 . S
H2665 C2637 0.930 . S
H2666 C2638 0.930 . S
H2667 C2639 0.931 . S
H2668 C2657 0.930 . S
H2669 C2658 0.930 . S
H2670 C2659 0.930 . S
H2671 C2660 0.931 . S
Eu2672 C2681 2.828 . S
Eu2672 O2683 2.392 . S
Eu2672 O2685 2.418 . S
Eu2672 O2690 2.373 . S
Eu2672 O2693 2.488 . S
Eu2672 O2694 2.471 . S
Eu2672 O2695 2.349 . S
Eu2673 O2682 2.373 . S
Eu2673 O2686 2.488 . S
Eu2673 O2687 2.471 . S
Eu2673 O2688 2.349 . S
Eu2673 O2691 2.392 . S
Eu2673 O2692 2.418 . S
Eu2673 C2702 2.828 . S
C2674 O2692 1.244 . S
C2674 O2695 1.265 . S
C2675 C2676 1.379 . S
C2675 C2679 1.373 . S
C2675 C2681 1.505 . S
C2676 C2675 1.379 . S
C2676 C2678 1.369 . S
C2676 H2704 0.930 . S
C2677 C2679 1.383 . S
C2677 C2680 1.382 . S
C2677 H2705 0.930 . S
C2678 C2676 1.369 . S
C2678 C2680 1.392 . S
C2678 H2706 0.930 . S
C2679 C2675 1.373 . S
C2679 C2677 1.383 . S
C2679 H2707 0.931 . S
C2680 C2677 1.382 . S
C2680 C2678 1.392 . S
C2681 Eu2672 2.828 . S
C2681 C2675 1.505 . S
C2681 O2693 1.249 . S
C2681 O2694 1.244 . S
O2682 Eu2673 2.373 . S
O2682 C2684 1.258 . S
O2683 Eu2672 2.392 . S
O2683 C2684 1.242 . S
C2684 O2682 1.258 . S
C2684 O2683 1.242 . S
O2685 Eu2672 2.418 . S
O2685 C2689 1.244 . S
O2686 Eu2673 2.488 . S
O2686 C2702 1.249 . S
O2687 Eu2673 2.471 . S
O2687 C2702 1.244 . S
O2688 Eu2673 2.349 . S
O2688 C2689 1.265 . S
C2689 O2685 1.244 . S
C2689 O2688 1.265 . S
O2690 Eu2672 2.373 . S
O2690 C2703 1.258 . S
O2691 Eu2673 2.392 . S
O2691 C2703 1.242 . S
O2692 Eu2673 2.418 . S
O2692 C2674 1.244 . S
O2693 Eu2672 2.488 . S
O2693 C2681 1.249 . S
O2694 Eu2672 2.471 . S
O2694 C2681 1.244 . S
O2695 Eu2672 2.349 . S
O2695 C2674 1.265 . S
C2696 C2697 1.379 . S
C2696 C2700 1.373 . S
C2696 C2702 1.505 . S
C2697 C2696 1.379 . S
C2697 C2699 1.369 . S
C2697 H2708 0.930 . S
C2698 C2700 1.383 . S
C2698 C2701 1.382 . S
C2698 H2709 0.930 . S
C2699 C2697 1.369 . S
C2699 C2701 1.392 . S
C2699 H2710 0.930 . S
C2700 C2696 1.373 . S
C2700 C2698 1.383 . S
C2700 H2711 0.931 . S
C2701 C2698 1.382 . S
C2701 C2699 1.392 . S
C2702 Eu2673 2.828 . S
C2702 O2686 1.249 . S
C2702 O2687 1.244 . S
C2702 C2696 1.505 . S
C2703 O2690 1.258 . S
C2703 O2691 1.242 . S
H2704 C2676 0.930 . S
H2705 C2677 0.930 . S
H2706 C2678 0.930 . S
H2707 C2679 0.931 . S
H2708 C2697 0.930 . S
H2709 C2698 0.930 . S
H2710 C2699 0.930 . S
H2711 C2700 0.931 . S
Eu2712 C2721 2.828 1_554 S
Eu2712 O2723 2.392 . S
Eu2712 O2725 2.418 1_554 S
Eu2712 O2730 2.373 1_554 S
Eu2712 O2733 2.488 1_554 S
Eu2712 O2734 2.471 . S
Eu2712 O2735 2.349 . S
Eu2713 O2722 2.373 . S
Eu2713 O2726 2.488 1_455 S
Eu2713 O2727 2.471 1_455 S
Eu2713 O2728 2.349 1_554 S
Eu2713 O2731 2.392 . S
Eu2713 O2732 2.418 . S
Eu2713 C2742 2.828 1_455 S
C2714 O2732 1.244 . S
C2714 O2735 1.265 . S
C2715 C2716 1.379 1_556 S
C2715 C2719 1.373 . S
C2715 C2721 1.505 . S
C2716 C2715 1.379 1_554 S
C2716 C2718 1.369 . S
C2716 H2744 0.930 . S
C2717 C2719 1.383 . S
C2717 C2720 1.382 . S
C2717 H2745 0.930 . S
C2718 C2716 1.369 . S
C2718 C2720 1.392 1_554 S
C2718 H2746 0.930 . S
C2719 C2715 1.373 . S
C2719 C2717 1.383 . S
C2719 H2747 0.931 . S
C2720 C2717 1.382 . S
C2720 C2718 1.392 1_556 S
C2721 Eu2712 2.828 1_556 S
C2721 C2715 1.505 . S
C2721 O2733 1.249 . S
C2721 O2734 1.244 1_556 S
O2722 Eu2713 2.373 . S
O2722 C2724 1.258 . S
O2723 Eu2712 2.392 . S
O2723 C2724 1.242 . S
C2724 O2722 1.258 . S
C2724 O2723 1.242 . S
O2725 Eu2712 2.418 1_556 S
O2725 C2729 1.244 . S
O2726 Eu2713 2.488 1_655 S
O2726 C2742 1.249 . S
O2727 Eu2713 2.471 1_655 S
O2727 C2742 1.244 . S
O2728 Eu2713 2.349 1_556 S
O2728 C2729 1.265 . S
C2729 O2725 1.244 . S
C2729 O2728 1.265 . S
O2730 Eu2712 2.373 1_556 S
O2730 C2743 1.270 . S
O2731 Eu2713 2.392 . S
O2731 C2743 1.228 1_554 S
O2732 Eu2713 2.418 . S
O2732 C2714 1.244 . S
O2733 Eu2712 2.488 1_556 S
O2733 C2721 1.249 . S
O2734 Eu2712 2.471 . S
O2734 C2721 1.244 1_554 S
O2735 Eu2712 2.349 . S
O2735 C2714 1.265 . S
C2736 C2737 1.379 . S
C2736 C2740 1.373 . S
C2736 C2742 1.505 . S
C2737 C2736 1.379 . S
C2737 C2739 1.369 . S
C2737 H2748 0.930 . S
C2738 C2740 1.383 . S
C2738 C2741 1.382 . S
C2738 H2749 0.930 . S
C2739 C2737 1.369 . S
C2739 C2741 1.392 . S
C2739 H2750 0.930 . S
C2740 C2736 1.373 . S
C2740 C2738 1.383 . S
C2740 H2751 0.931 . S
C2741 C2738 1.382 . S
C2741 C2739 1.392 . S
C2742 Eu2713 2.828 1_655 S
C2742 O2726 1.249 . S
C2742 O2727 1.244 . S
C2742 C2736 1.505 . S
C2743 O2730 1.270 . S
C2743 O2731 1.228 1_556 S
H2744 C2716 0.930 . S
H2745 C2717 0.930 . S
H2746 C2718 0.930 . S
H2747 C2719 0.931 . S
H2748 C2737 0.930 . S
H2749 C2738 0.930 . S
H2750 C2739 0.930 . S
H2751 C2740 0.931 . S
H2752 C2758 0.930 . S
H2753 C2762 0.930 1_554 S
H2754 C2767 0.929 1_655 S
H2755 C2765 0.929 . S
H2756 C2760 0.929 . S
H2757 C2766 0.929 . S
C2758 H2752 0.930 . S
C2758 C2759 1.367 . S
C2758 C2766 1.378 . S
C2759 C2758 1.367 . S
C2759 C2767 1.433 . S
C2760 H2756 0.929 . S
C2760 C2762 1.378 . S
C2760 C2764 1.350 . S
C2761 C2764 1.463 . S
C2761 C2766 1.350 . S
C2761 N2769 1.427 . S
C2762 H2753 0.930 1_556 S
C2762 C2760 1.378 . S
C2762 C2763 1.367 . S
C2763 C2762 1.367 . S
C2763 C2765 1.433 . S
C2764 C2760 1.350 . S
C2764 C2761 1.463 . S
C2764 N2768 1.427 . S
C2765 H2755 0.929 . S
C2765 C2763 1.433 . S
C2765 N2768 1.384 . S
C2766 H2757 0.929 . S
C2766 C2758 1.378 . S
C2766 C2761 1.350 . S
C2767 H2754 0.929 1_455 S
C2767 C2759 1.433 . S
C2767 N2769 1.384 . S
N2768 C2764 1.427 . S
N2768 C2765 1.384 . S
N2769 C2761 1.427 . S
N2769 C2767 1.384 . S
H2770 C2776 0.930 . S
H2771 C2780 0.930 . S
H2772 C2785 0.929 . S
H2773 C2783 0.929 . S
H2774 C2778 0.929 . S
H2775 C2784 0.929 . S
C2776 H2770 0.930 . S
C2776 C2777 1.367 . S
C2776 C2784 1.378 . S
C2777 C2776 1.367 . S
C2777 C2785 1.433 . S
C2778 H2774 0.929 . S
C2778 C2780 1.378 . S
C2778 C2782 1.350 . S
C2779 C2782 1.463 . S
C2779 C2784 1.350 . S
C2779 N2787 1.427 . S
C2780 H2771 0.930 . S
C2780 C2778 1.378 . S
C2780 C2781 1.367 . S
C2781 C2780 1.367 . S
C2781 C2783 1.433 . S
C2782 C2778 1.350 . S
C2782 C2779 1.463 . S
C2782 N2786 1.427 . S
C2783 H2773 0.929 . S
C2783 C2781 1.433 . S
C2783 N2786 1.384 . S
C2784 H2775 0.929 . S
C2784 C2776 1.378 . S
C2784 C2779 1.350 . S
C2785 H2772 0.929 . S
C2785 C2777 1.433 . S
C2785 N2787 1.384 . S
N2786 C2782 1.427 . S
N2786 C2783 1.384 . S
N2787 C2779 1.427 . S
N2787 C2785 1.384 . S
H2788 C2794 0.930 . S
H2789 C2798 0.930 . S
H2790 C2803 0.929 . S
H2791 C2801 0.929 . S
H2792 C2796 0.929 . S
H2793 C2802 0.929 . S
C2794 H2788 0.930 . S
C2794 C2795 1.367 . S
C2794 C2802 1.378 . S
C2795 C2794 1.367 . S
C2795 C2803 1.433 . S
C2796 H2792 0.929 . S
C2796 C2798 1.378 . S
C2796 C2800 1.350 . S
C2797 C2800 1.463 . S
C2797 C2802 1.350 . S
C2797 N2805 1.427 . S
C2798 H2789 0.930 . S
C2798 C2796 1.378 . S
C2798 C2799 1.367 . S
C2799 C2798 1.367 . S
C2799 C2801 1.433 . S
C2800 C2796 1.350 . S
C2800 C2797 1.463 . S
C2800 N2804 1.427 . S
C2801 H2791 0.929 . S
C2801 C2799 1.433 . S
C2801 N2804 1.384 . S
C2802 H2793 0.929 . S
C2802 C2794 1.378 . S
C2802 C2797 1.350 . S
C2803 H2790 0.929 . S
C2803 C2795 1.433 . S
C2803 N2805 1.384 . S
N2804 C2800 1.427 . S
N2804 C2801 1.384 . S
N2805 C2797 1.427 . S
N2805 C2803 1.384 . S
H2806 C2812 0.930 . S
H2807 C2816 0.930 . S
H2808 C2821 0.929 . S
H2809 C2819 0.929 . S
H2810 C2814 0.929 . S
H2811 C2820 0.929 . S
C2812 H2806 0.930 . S
C2812 C2813 1.367 . S
C2812 C2820 1.378 . S
C2813 C2812 1.367 . S
C2813 C2821 1.433 . S
C2814 H2810 0.929 . S
C2814 C2816 1.378 . S
C2814 C2818 1.350 . S
C2815 C2818 1.463 . S
C2815 C2820 1.350 . S
C2815 N2823 1.427 . S
C2816 H2807 0.930 . S
C2816 C2814 1.378 . S
C2816 C2817 1.367 . S
C2817 C2816 1.367 . S
C2817 C2819 1.433 . S
C2818 C2814 1.350 . S
C2818 C2815 1.463 . S
C2818 N2822 1.427 . S
C2819 H2809 0.929 . S
C2819 C2817 1.433 . S
C2819 N2822 1.384 . S
C2820 H2811 0.929 . S
C2820 C2812 1.378 . S
C2820 C2815 1.350 . S
C2821 H2808 0.929 . S
C2821 C2813 1.433 . S
C2821 N2823 1.384 . S
N2822 C2818 1.427 . S
N2822 C2819 1.384 . S
N2823 C2815 1.427 . S
N2823 C2821 1.384 . S
H2824 C2830 0.930 . S
H2825 C2834 0.930 . S
H2826 C2839 0.909 1_655 S
H2827 C2837 0.929 . S
H2828 C2832 0.929 . S
H2829 C2838 0.929 . S
C2830 H2824 0.930 . S
C2830 C2831 1.367 . S
C2830 C2838 1.378 . S
C2831 C2830 1.367 . S
C2831 C2839 1.433 . S
C2832 H2828 0.929 . S
C2832 C2834 1.378 . S
C2832 C2836 1.350 . S
C2833 C2836 1.463 . S
C2833 C2838 1.350 . S
C2833 N2841 1.427 . S
C2834 H2825 0.930 . S
C2834 C2832 1.378 . S
C2834 C2835 1.367 . S
C2835 C2834 1.367 . S
C2835 C2837 1.433 . S
C2836 C2832 1.350 . S
C2836 C2833 1.463 . S
C2836 N2840 1.427 . S
C2837 H2827 0.929 . S
C2837 C2835 1.433 . S
C2837 N2840 1.384 . S
C2838 H2829 0.929 . S
C2838 C2830 1.378 . S
C2838 C2833 1.350 . S
C2839 H2826 0.909 1_455 S
C2839 C2831 1.433 . S
C2839 N2841 1.384 . S
N2840 C2836 1.427 . S
N2840 C2837 1.384 . S
N2841 C2833 1.427 . S
N2841 C2839 1.384 . S
H2842 C2848 0.930 . S
H2843 C2852 0.930 . S
H2844 C2857 0.929 . S
H2845 C2855 0.929 . S
H2846 C2850 0.929 . S
H2847 C2856 0.929 . S
C2848 H2842 0.930 . S
C2848 C2849 1.367 . S
C2848 C2856 1.378 . S
C2849 C2848 1.367 . S
C2849 C2857 1.433 . S
C2850 H2846 0.929 . S
C2850 C2852 1.378 . S
C2850 C2854 1.350 . S
C2851 C2854 1.463 . S
C2851 C2856 1.350 . S
C2851 N2859 1.427 . S
C2852 H2843 0.930 . S
C2852 C2850 1.378 . S
C2852 C2853 1.367 . S
C2853 C2852 1.367 . S
C2853 C2855 1.433 . S
C2854 C2850 1.350 . S
C2854 C2851 1.463 . S
C2854 N2858 1.427 . S
C2855 H2845 0.929 . S
C2855 C2853 1.433 . S
C2855 N2858 1.384 . S
C2856 H2847 0.929 . S
C2856 C2848 1.378 . S
C2856 C2851 1.350 . S
C2857 H2844 0.929 . S
C2857 C2849 1.433 . S
C2857 N2859 1.384 . S
N2858 C2854 1.427 . S
N2858 C2855 1.384 . S
N2859 C2851 1.427 . S
N2859 C2857 1.384 . S
H2860 C2866 0.930 . S
H2861 C2870 0.930 . S
H2862 C2875 0.929 . S
H2863 C2873 0.929 . S
H2864 C2868 0.929 . S
H2865 C2874 0.929 . S
C2866 H2860 0.930 . S
C2866 C2867 1.367 . S
C2866 C2874 1.378 . S
C2867 C2866 1.367 . S
C2867 C2875 1.433 . S
C2868 H2864 0.929 . S
C2868 C2870 1.378 . S
C2868 C2872 1.350 . S
C2869 C2872 1.463 . S
C2869 C2874 1.350 . S
C2869 N2877 1.427 . S
C2870 H2861 0.930 . S
C2870 C2868 1.378 . S
C2870 C2871 1.367 . S
C2871 C2870 1.367 . S
C2871 C2873 1.433 . S
C2872 C2868 1.350 . S
C2872 C2869 1.463 . S
C2872 N2876 1.427 . S
C2873 H2863 0.929 . S
C2873 C2871 1.433 . S
C2873 N2876 1.384 . S
C2874 H2865 0.929 . S
C2874 C2866 1.378 . S
C2874 C2869 1.350 . S
C2875 H2862 0.929 . S
C2875 C2867 1.433 . S
C2875 N2877 1.384 . S
N2876 C2872 1.427 . S
N2876 C2873 1.384 . S
N2877 C2869 1.427 . S
N2877 C2875 1.384 . S
H2878 C2884 0.930 . S
H2879 C2888 0.930 . S
H2880 C2893 0.929 . S
H2881 C2891 0.929 . S
H2882 C2886 0.929 . S
H2883 C2892 0.929 . S
C2884 H2878 0.930 . S
C2884 C2885 1.367 . S
C2884 C2892 1.378 . S
C2885 C2884 1.367 . S
C2885 C2893 1.433 . S
C2886 H2882 0.929 . S
C2886 C2888 1.378 . S
C2886 C2890 1.350 . S
C2887 C2890 1.463 . S
C2887 C2892 1.350 . S
C2887 N2895 1.427 . S
C2888 H2879 0.930 . S
C2888 C2886 1.378 . S
C2888 C2889 1.367 . S
C2889 C2888 1.367 . S
C2889 C2891 1.433 . S
C2890 C2886 1.350 . S
C2890 C2887 1.463 . S
C2890 N2894 1.427 . S
C2891 H2881 0.929 . S
C2891 C2889 1.433 . S
C2891 N2894 1.384 . S
C2892 H2883 0.929 . S
C2892 C2884 1.378 . S
C2892 C2887 1.350 . S
C2893 H2880 0.929 . S
C2893 C2885 1.433 . S
C2893 N2895 1.384 . S
N2894 C2890 1.427 . S
N2894 C2891 1.384 . S
N2895 C2887 1.427 . S
N2895 C2893 1.384 . S
H2896 C2902 0.930 . S
H2897 C2906 0.930 . S
H2898 C2911 0.929 . S
H2899 C2909 0.929 1_655 S
H2900 C2904 0.929 . S
H2901 C2910 0.929 . S
C2902 H2896 0.930 . S
C2902 C2903 1.367 . S
C2902 C2910 1.378 . S
C2903 C2902 1.367 . S
C2903 C2911 1.433 1_655 S
C2904 H2900 0.929 . S
C2904 C2906 1.378 . S
C2904 C2908 1.350 . S
C2905 C2908 1.462 1_655 S
C2905 C2910 1.351 . S
C2905 N2913 1.427 1_655 S
C2906 H2897 0.930 . S
C2906 C2904 1.378 . S
C2906 C2907 1.367 . S
C2907 C2906 1.367 . S
C2907 C2909 1.433 . S
C2908 C2904 1.350 . S
C2908 C2905 1.462 1_455 S
C2908 N2912 1.427 1_455 S
C2909 H2899 0.929 1_455 S
C2909 C2907 1.433 . S
C2909 N2912 1.384 1_455 S
C2910 H2901 0.929 . S
C2910 C2902 1.378 . S
C2910 C2905 1.351 . S
C2911 H2898 0.929 . S
C2911 C2903 1.433 1_455 S
C2911 N2913 1.384 . S
N2912 C2908 1.427 1_655 S
N2912 C2909 1.384 1_655 S
N2913 C2905 1.427 1_455 S
N2913 C2911 1.384 . S
H2914 C2920 0.930 . S
H2915 C2924 0.930 . S
H2916 C2929 0.929 . S
H2917 C2927 0.929 . S
H2918 C2922 0.929 . S
H2919 C2928 0.929 . S
C2920 H2914 0.930 . S
C2920 C2921 1.367 . S
C2920 C2928 1.378 . S
C2921 C2920 1.367 . S
C2921 C2929 1.433 . S
C2922 H2918 0.929 . S
C2922 C2924 1.378 . S
C2922 C2926 1.350 . S
C2923 C2926 1.463 . S
C2923 C2928 1.350 . S
C2923 N2931 1.427 . S
C2924 H2915 0.930 . S
C2924 C2922 1.378 . S
C2924 C2925 1.367 . S
C2925 C2924 1.367 . S
C2925 C2927 1.433 . S
C2926 C2922 1.350 . S
C2926 C2923 1.463 . S
C2926 N2930 1.427 . S
C2927 H2917 0.929 . S
C2927 C2925 1.433 . S
C2927 N2930 1.384 . S
C2928 H2919 0.929 . S
C2928 C2920 1.378 . S
C2928 C2923 1.350 . S
C2929 H2916 0.929 . S
C2929 C2921 1.433 . S
C2929 N2931 1.384 . S
N2930 C2926 1.427 . S
N2930 C2927 1.384 . S
N2931 C2923 1.427 . S
N2931 C2929 1.384 . S
H2932 C2938 0.930 . S
H2933 C2942 0.930 . S
H2934 C2947 0.929 . S
H2935 C2945 0.929 . S
H2936 C2940 0.929 . S
H2937 C2946 0.929 . S
C2938 H2932 0.930 . S
C2938 C2939 1.367 . S
C2938 C2946 1.378 . S
C2939 C2938 1.367 . S
C2939 C2947 1.433 . S
C2940 H2936 0.929 . S
C2940 C2942 1.378 . S
C2940 C2944 1.350 . S
C2941 C2944 1.463 . S
C2941 C2946 1.350 . S
C2941 N2949 1.427 . S
C2942 H2933 0.930 . S
C2942 C2940 1.378 . S
C2942 C2943 1.367 . S
C2943 C2942 1.367 . S
C2943 C2945 1.433 . S
C2944 C2940 1.350 . S
C2944 C2941 1.463 . S
C2944 N2948 1.427 . S
C2945 H2935 0.929 . S
C2945 C2943 1.433 . S
C2945 N2948 1.384 . S
C2946 H2937 0.929 . S
C2946 C2938 1.378 . S
C2946 C2941 1.350 . S
C2947 H2934 0.929 . S
C2947 C2939 1.433 . S
C2947 N2949 1.384 . S
N2948 C2944 1.427 . S
N2948 C2945 1.384 . S
N2949 C2941 1.427 . S
N2949 C2947 1.384 . S
H2950 C2956 0.930 . S
H2951 C2960 0.930 . S
H2952 C2965 0.929 . S
H2953 C2963 0.929 . S
H2954 C2958 0.929 . S
H2955 C2964 0.929 . S
C2956 H2950 0.930 . S
C2956 C2957 1.367 . S
C2956 C2964 1.378 . S
C2957 C2956 1.367 . S
C2957 C2965 1.433 . S
C2958 H2954 0.929 . S
C2958 C2960 1.378 . S
C2958 C2962 1.350 . S
C2959 C2962 1.463 . S
C2959 C2964 1.350 . S
C2959 N2967 1.427 . S
C2960 H2951 0.930 . S
C2960 C2958 1.378 . S
C2960 C2961 1.367 . S
C2961 C2960 1.367 . S
C2961 C2963 1.433 . S
C2962 C2958 1.350 . S
C2962 C2959 1.463 . S
C2962 N2966 1.427 . S
C2963 H2953 0.929 . S
C2963 C2961 1.433 . S
C2963 N2966 1.384 . S
C2964 H2955 0.929 . S
C2964 C2956 1.378 . S
C2964 C2959 1.350 . S
C2965 H2952 0.929 . S
C2965 C2957 1.433 . S
C2965 N2967 1.384 . S
N2966 C2962 1.427 . S
N2966 C2963 1.384 . S
N2967 C2959 1.427 . S
N2967 C2965 1.384 . S
H2968 C2974 0.930 . S
H2969 C2978 0.930 . S
H2970 C2983 0.928 . S
H2971 C2981 0.929 . S
H2972 C2976 0.929 . S
H2973 C2982 0.929 . S
C2974 H2968 0.930 . S
C2974 C2975 1.367 . S
C2974 C2982 1.378 . S
C2975 C2974 1.367 . S
C2975 C2983 1.435 1_655 S
C2976 H2972 0.929 . S
C2976 C2978 1.378 . S
C2976 C2980 1.350 . S
C2977 C2980 1.463 . S
C2977 C2982 1.350 1_455 S
C2977 N2985 1.427 . S
C2978 H2969 0.930 . S
C2978 C2976 1.378 . S
C2978 C2979 1.367 . S
C2979 C2978 1.367 . S
C2979 C2981 1.433 . S
C2980 C2976 1.350 . S
C2980 C2977 1.463 . S
C2980 N2984 1.427 . S
C2981 H2971 0.929 . S
C2981 C2979 1.433 . S
C2981 N2984 1.384 . S
C2982 H2973 0.929 . S
C2982 C2974 1.378 . S
C2982 C2977 1.350 1_655 S
C2983 H2970 0.928 . S
C2983 C2975 1.435 1_455 S
C2983 N2985 1.383 . S
N2984 C2980 1.427 . S
N2984 C2981 1.384 . S
N2985 C2977 1.427 . S
N2985 C2983 1.383 . S
H2986 C2992 0.930 . S
H2987 C2996 0.930 . S
H2988 C3001 0.929 . S
H2989 C2999 0.929 . S
H2990 C2994 0.929 . S
H2991 C3000 0.929 . S
C2992 H2986 0.930 . S
C2992 C2993 1.367 . S
C2992 C3000 1.378 . S
C2993 C2992 1.367 . S
C2993 C3001 1.433 . S
C2994 H2990 0.929 . S
C2994 C2996 1.378 . S
C2994 C2998 1.350 . S
C2995 C2998 1.463 . S
C2995 C3000 1.350 . S
C2995 N3003 1.427 . S
C2996 H2987 0.930 . S
C2996 C2994 1.378 . S
C2996 C2997 1.367 . S
C2997 C2996 1.367 . S
C2997 C2999 1.433 . S
C2998 C2994 1.350 . S
C2998 C2995 1.463 . S
C2998 N3002 1.427 . S
C2999 H2989 0.929 . S
C2999 C2997 1.433 . S
C2999 N3002 1.384 . S
C3000 H2991 0.929 . S
C3000 C2992 1.378 . S
C3000 C2995 1.350 . S
C3001 H2988 0.929 . S
C3001 C2993 1.433 . S
C3001 N3003 1.384 . S
N3002 C2998 1.427 . S
N3002 C2999 1.384 . S
N3003 C2995 1.427 . S
N3003 C3001 1.384 . S
H3004 C3010 0.930 . S
H3005 C3014 0.930 . S
H3006 C3019 0.929 . S
H3007 C3017 0.929 . S
H3008 C3012 0.929 . S
H3009 C3018 0.929 . S
C3010 H3004 0.930 . S
C3010 C3011 1.367 . S
C3010 C3018 1.378 . S
C3011 C3010 1.367 . S
C3011 C3019 1.433 . S
C3012 H3008 0.929 . S
C3012 C3014 1.378 . S
C3012 C3016 1.350 . S
C3013 C3016 1.463 . S
C3013 C3018 1.350 . S
C3013 N3021 1.427 . S
C3014 H3005 0.930 . S
C3014 C3012 1.378 . S
C3014 C3015 1.367 . S
C3015 C3014 1.367 . S
C3015 C3017 1.433 . S
C3016 C3012 1.350 . S
C3016 C3013 1.463 . S
C3016 N3020 1.427 . S
C3017 H3007 0.929 . S
C3017 C3015 1.433 . S
C3017 N3020 1.384 . S
C3018 H3009 0.929 . S
C3018 C3010 1.378 . S
C3018 C3013 1.350 . S
C3019 H3006 0.929 . S
C3019 C3011 1.433 . S
C3019 N3021 1.384 . S
N3020 C3016 1.427 . S
N3020 C3017 1.384 . S
N3021 C3013 1.427 . S
N3021 C3019 1.384 . S
H3022 C3028 0.930 . S
H3023 C3032 0.930 . S
H3024 C3037 0.929 . S
H3025 C3035 0.929 . S
H3026 C3030 0.929 . S
H3027 C3036 0.929 . S
C3028 H3022 0.930 . S
C3028 C3029 1.367 . S
C3028 C3036 1.378 . S
C3029 C3028 1.367 . S
C3029 C3037 1.433 . S
C3030 H3026 0.929 . S
C3030 C3032 1.378 . S
C3030 C3034 1.350 . S
C3031 C3034 1.463 . S
C3031 C3036 1.350 . S
C3031 N3039 1.427 . S
C3032 H3023 0.930 . S
C3032 C3030 1.378 . S
C3032 C3033 1.367 . S
C3033 C3032 1.367 . S
C3033 C3035 1.433 . S
C3034 C3030 1.350 . S
C3034 C3031 1.463 . S
C3034 N3038 1.427 . S
C3035 H3025 0.929 . S
C3035 C3033 1.433 . S
C3035 N3038 1.384 . S
C3036 H3027 0.929 . S
C3036 C3028 1.378 . S
C3036 C3031 1.350 . S
C3037 H3024 0.929 . S
C3037 C3029 1.433 . S
C3037 N3039 1.384 . S
N3038 C3034 1.427 . S
N3038 C3035 1.384 . S
N3039 C3031 1.427 . S
N3039 C3037 1.384 . S
H3040 C3046 0.930 . S
H3041 C3050 0.930 . S
H3042 C3055 0.929 . S
H3043 C3053 0.929 1_556 S
H3044 C3048 0.923 1_565 S
H3045 C3054 0.980 . S
C3046 H3040 0.930 . S
C3046 C3047 1.367 1_556 S
C3046 C3054 1.385 . S
C3047 C3046 1.367 1_554 S
C3047 C3055 1.433 . S
C3048 H3044 0.923 1_545 S
C3048 C3050 1.378 . S
C3048 C3052 1.350 1_545 S
C3049 C3052 1.460 . S
C3049 C3054 1.293 1_554 S
C3049 N3057 1.427 . S
C3050 H3041 0.930 . S
C3050 C3048 1.378 . S
C3050 C3051 1.367 . S
C3051 C3050 1.367 . S
C3051 C3053 1.433 . S
C3052 C3048 1.350 1_565 S
C3052 C3049 1.460 . S
C3052 N3056 1.430 1_565 S
C3053 H3043 0.929 1_554 S
C3053 C3051 1.433 . S
C3053 N3056 1.384 . S
C3054 H3045 0.980 . S
C3054 C3046 1.385 . S
C3054 C3049 1.293 1_556 S
C3055 H3042 0.929 . S
C3055 C3047 1.433 . S
C3055 N3057 1.384 . S
N3056 C3052 1.430 1_545 S
N3056 C3053 1.384 . S
N3057 C3049 1.427 . S
N3057 C3055 1.384 . S
H3058 C3064 0.930 . S
H3059 C3068 0.930 . S
H3060 C3073 0.929 . S
H3061 C3071 0.929 . S
H3062 C3066 0.929 . S
H3063 C3072 0.929 . S
C3064 H3058 0.930 . S
C3064 C3065 1.367 1_554 S
C3064 C3072 1.378 . S
C3065 C3064 1.367 1_556 S
C3065 C3073 1.433 . S
C3066 H3062 0.929 . S
C3066 C3068 1.378 . S
C3066 C3070 1.350 1_556 S
C3067 C3070 1.470 . S
C3067 C3072 1.374 . S
C3067 N3075 1.394 1_554 S
C3068 H3059 0.930 . S
C3068 C3066 1.378 . S
C3068 C3069 1.367 1_556 S
C3069 C3068 1.367 1_554 S
C3069 C3071 1.433 . S
C3070 C3066 1.350 1_554 S
C3070 C3067 1.470 . S
C3070 N3074 1.427 . S
C3071 H3061 0.929 . S
C3071 C3069 1.433 . S
C3071 N3074 1.384 . S
C3072 H3063 0.929 . S
C3072 C3064 1.378 . S
C3072 C3067 1.374 . S
C3073 H3060 0.929 . S
C3073 C3065 1.433 . S
C3073 N3075 1.384 . S
N3074 C3070 1.427 . S
N3074 C3071 1.384 . S
N3075 C3067 1.394 1_556 S
N3075 C3073 1.384 . S
H3076 C3082 0.930 . S
H3077 C3086 0.930 . S
H3078 C3091 0.929 . S
H3079 C3089 0.929 . S
H3080 C3084 0.929 . S
H3081 C3090 0.929 . S
C3082 H3076 0.930 . S
C3082 C3083 1.367 . S
C3082 C3090 1.378 . S
C3083 C3082 1.367 . S
C3083 C3091 1.433 . S
C3084 H3080 0.929 . S
C3084 C3086 1.378 . S
C3084 C3088 1.350 . S
C3085 C3088 1.463 . S
C3085 C3090 1.350 . S
C3085 N3093 1.427 . S
C3086 H3077 0.930 . S
C3086 C3084 1.378 . S
C3086 C3087 1.367 . S
C3087 C3086 1.367 . S
C3087 C3089 1.433 . S
C3088 C3084 1.350 . S
C3088 C3085 1.463 . S
C3088 N3092 1.427 . S
C3089 H3079 0.929 . S
C3089 C3087 1.433 . S
C3089 N3092 1.384 . S
C3090 H3081 0.929 . S
C3090 C3082 1.378 . S
C3090 C3085 1.350 . S
C3091 H3078 0.929 . S
C3091 C3083 1.433 . S
C3091 N3093 1.384 . S
N3092 C3088 1.427 . S
N3092 C3089 1.384 . S
N3093 C3085 1.427 . S
N3093 C3091 1.384 . S
H3094 C3100 0.930 . S
H3095 C3104 0.930 . S
H3096 C3109 0.929 . S
H3097 C3107 0.929 . S
H3098 C3102 0.929 . S
H3099 C3108 0.929 . S
C3100 H3094 0.930 . S
C3100 C3101 1.367 . S
C3100 C3108 1.378 . S
C3101 C3100 1.367 . S
C3101 C3109 1.433 . S
C3102 H3098 0.929 . S
C3102 C3104 1.378 . S
C3102 C3106 1.350 . S
C3103 C3106 1.463 . S
C3103 C3108 1.350 . S
C3103 N3111 1.427 . S
C3104 H3095 0.930 . S
C3104 C3102 1.378 . S
C3104 C3105 1.367 . S
C3105 C3104 1.367 . S
C3105 C3107 1.433 . S
C3106 C3102 1.350 . S
C3106 C3103 1.463 . S
C3106 N3110 1.427 . S
C3107 H3097 0.929 . S
C3107 C3105 1.433 . S
C3107 N3110 1.384 . S
C3108 H3099 0.929 . S
C3108 C3100 1.378 . S
C3108 C3103 1.350 . S
C3109 H3096 0.929 . S
C3109 C3101 1.433 . S
C3109 N3111 1.384 . S
N3110 C3106 1.427 . S
N3110 C3107 1.384 . S
N3111 C3103 1.427 . S
N3111 C3109 1.384 . S
H3112 C3118 0.930 . S
H3113 C3122 0.930 . S
H3114 C3127 0.929 . S
H3115 C3125 0.929 . S
H3116 C3120 0.929 . S
H3117 C3126 0.929 . S
C3118 H3112 0.930 . S
C3118 C3119 1.367 . S
C3118 C3126 1.378 . S
C3119 C3118 1.367 . S
C3119 C3127 1.433 . S
C3120 H3116 0.929 . S
C3120 C3122 1.378 . S
C3120 C3124 1.350 . S
C3121 C3124 1.463 . S
C3121 C3126 1.350 . S
C3121 N3129 1.427 . S
C3122 H3113 0.930 . S
C3122 C3120 1.378 . S
C3122 C3123 1.367 . S
C3123 C3122 1.367 . S
C3123 C3125 1.433 . S
C3124 C3120 1.350 . S
C3124 C3121 1.463 . S
C3124 N3128 1.427 . S
C3125 H3115 0.929 . S
C3125 C3123 1.433 . S
C3125 N3128 1.384 . S
C3126 H3117 0.929 . S
C3126 C3118 1.378 . S
C3126 C3121 1.350 . S
C3127 H3114 0.929 . S
C3127 C3119 1.433 . S
C3127 N3129 1.384 . S
N3128 C3124 1.427 . S
N3128 C3125 1.384 . S
N3129 C3121 1.427 . S
N3129 C3127 1.384 . S
H3130 C3136 0.930 . S
H3131 C3140 0.930 . S
H3132 C3145 0.929 . S
H3133 C3143 0.929 . S
H3134 C3138 0.929 . S
H3135 C3144 0.929 . S
C3136 H3130 0.930 . S
C3136 C3137 1.367 . S
C3136 C3144 1.378 . S
C3137 C3136 1.367 . S
C3137 C3145 1.433 . S
C3138 H3134 0.929 . S
C3138 C3140 1.378 . S
C3138 C3142 1.350 . S
C3139 C3142 1.463 . S
C3139 C3144 1.350 . S
C3139 N3147 1.427 . S
C3140 H3131 0.930 . S
C3140 C3138 1.378 . S
C3140 C3141 1.367 . S
C3141 C3140 1.367 . S
C3141 C3143 1.433 . S
C3142 C3138 1.350 . S
C3142 C3139 1.463 . S
C3142 N3146 1.427 . S
C3143 H3133 0.929 . S
C3143 C3141 1.433 . S
C3143 N3146 1.384 . S
C3144 H3135 0.929 . S
C3144 C3136 1.378 . S
C3144 C3139 1.350 . S
C3145 H3132 0.929 . S
C3145 C3137 1.433 . S
C3145 N3147 1.384 . S
N3146 C3142 1.427 . S
N3146 C3143 1.384 . S
N3147 C3139 1.427 . S
N3147 C3145 1.384 . S
H3148 C3154 0.930 . S
H3149 C3158 0.930 . S
H3150 C3163 0.929 . S
H3151 C3161 0.929 . S
H3152 C3156 0.929 . S
H3153 C3162 0.929 . S
C3154 H3148 0.930 . S
C3154 C3155 1.367 . S
C3154 C3162 1.378 . S
C3155 C3154 1.367 . S
C3155 C3163 1.433 . S
C3156 H3152 0.929 . S
C3156 C3158 1.378 . S
C3156 C3160 1.350 . S
C3157 C3160 1.463 . S
C3157 C3162 1.350 . S
C3157 N3165 1.427 . S
C3158 H3149 0.930 . S
C3158 C3156 1.378 . S
C3158 C3159 1.367 . S
C3159 C3158 1.367 . S
C3159 C3161 1.433 . S
C3160 C3156 1.350 . S
C3160 C3157 1.463 . S
C3160 N3164 1.427 . S
C3161 H3151 0.929 . S
C3161 C3159 1.433 . S
C3161 N3164 1.384 . S
C3162 H3153 0.929 . S
C3162 C3154 1.378 . S
C3162 C3157 1.350 . S
C3163 H3150 0.929 . S
C3163 C3155 1.433 . S
C3163 N3165 1.384 . S
N3164 C3160 1.427 . S
N3164 C3161 1.384 . S
N3165 C3157 1.427 . S
N3165 C3163 1.384 . S
H3166 C3172 0.930 . S
H3167 C3176 0.930 . S
H3168 C3181 0.929 . S
H3169 C3179 0.929 . S
H3170 C3174 0.929 . S
H3171 C3180 0.929 . S
C3172 H3166 0.930 . S
C3172 C3173 1.367 . S
C3172 C3180 1.378 . S
C3173 C3172 1.367 . S
C3173 C3181 1.433 . S
C3174 H3170 0.929 . S
C3174 C3176 1.378 . S
C3174 C3178 1.350 . S
C3175 C3178 1.463 . S
C3175 C3180 1.350 . S
C3175 N3183 1.427 . S
C3176 H3167 0.930 . S
C3176 C3174 1.378 . S
C3176 C3177 1.367 . S
C3177 C3176 1.367 . S
C3177 C3179 1.433 . S
C3178 C3174 1.350 . S
C3178 C3175 1.463 . S
C3178 N3182 1.427 . S
C3179 H3169 0.929 . S
C3179 C3177 1.433 . S
C3179 N3182 1.384 . S
C3180 H3171 0.929 . S
C3180 C3172 1.378 . S
C3180 C3175 1.350 . S
C3181 H3168 0.929 . S
C3181 C3173 1.433 . S
C3181 N3183 1.384 . S
N3182 C3178 1.427 . S
N3182 C3179 1.384 . S
N3183 C3175 1.427 . S
N3183 C3181 1.384 . S
H3184 C3190 0.930 . S
H3185 C3194 0.930 . S
H3186 C3199 0.929 . S
H3187 C3197 0.929 . S
H3188 C3192 0.929 . S
H3189 C3198 0.929 . S
C3190 H3184 0.930 . S
C3190 C3191 1.367 . S
C3190 C3198 1.378 . S
C3191 C3190 1.367 . S
C3191 C3199 1.433 . S
C3192 H3188 0.929 . S
C3192 C3194 1.378 . S
C3192 C3196 1.350 . S
C3193 C3196 1.463 . S
C3193 C3198 1.350 . S
C3193 N3201 1.427 . S
C3194 H3185 0.930 . S
C3194 C3192 1.378 . S
C3194 C3195 1.367 . S
C3195 C3194 1.367 . S
C3195 C3197 1.433 . S
C3196 C3192 1.350 . S
C3196 C3193 1.463 . S
C3196 N3200 1.427 . S
C3197 H3187 0.929 . S
C3197 C3195 1.433 . S
C3197 N3200 1.384 . S
C3198 H3189 0.929 . S
C3198 C3190 1.378 . S
C3198 C3193 1.350 . S
C3199 H3186 0.929 . S
C3199 C3191 1.433 . S
C3199 N3201 1.384 . S
N3200 C3196 1.427 . S
N3200 C3197 1.384 . S
N3201 C3193 1.427 . S
N3201 C3199 1.384 . S
H3202 C3208 0.930 . S
H3203 C3212 0.930 . S
H3204 C3217 0.929 . S
H3205 C3215 0.929 . S
H3206 C3210 0.929 . S
H3207 C3216 0.929 . S
C3208 H3202 0.930 . S
C3208 C3209 1.367 . S
C3208 C3216 1.378 . S
C3209 C3208 1.367 . S
C3209 C3217 1.433 . S
C3210 H3206 0.929 . S
C3210 C3212 1.378 . S
C3210 C3214 1.350 . S
C3211 C3214 1.463 . S
C3211 C3216 1.350 . S
C3211 N3219 1.427 . S
C3212 H3203 0.930 . S
C3212 C3210 1.378 . S
C3212 C3213 1.367 . S
C3213 C3212 1.367 . S
C3213 C3215 1.433 . S
C3214 C3210 1.350 . S
C3214 C3211 1.463 . S
C3214 N3218 1.427 . S
C3215 H3205 0.929 . S
C3215 C3213 1.433 . S
C3215 N3218 1.384 . S
C3216 H3207 0.929 . S
C3216 C3208 1.378 . S
C3216 C3211 1.350 . S
C3217 H3204 0.929 . S
C3217 C3209 1.433 . S
C3217 N3219 1.384 . S
N3218 C3214 1.427 . S
N3218 C3215 1.384 . S
N3219 C3211 1.427 . S
N3219 C3217 1.384 . S
H3220 C3226 0.930 . S
H3221 C3230 0.930 . S
H3222 C3235 0.929 . S
H3223 C3233 0.929 . S
H3224 C3228 0.929 . S
H3225 C3234 0.929 . S
C3226 H3220 0.930 . S
C3226 C3227 1.367 . S
C3226 C3234 1.378 . S
C3227 C3226 1.367 . S
C3227 C3235 1.433 . S
C3228 H3224 0.929 . S
C3228 C3230 1.378 . S
C3228 C3232 1.350 . S
C3229 C3232 1.463 . S
C3229 C3234 1.350 . S
C3229 N3237 1.427 . S
C3230 H3221 0.930 . S
C3230 C3228 1.378 . S
C3230 C3231 1.367 . S
C3231 C3230 1.367 . S
C3231 C3233 1.433 . S
C3232 C3228 1.350 . S
C3232 C3229 1.463 . S
C3232 N3236 1.427 . S
C3233 H3223 0.929 . S
C3233 C3231 1.433 . S
C3233 N3236 1.384 . S
C3234 H3225 0.929 . S
C3234 C3226 1.378 . S
C3234 C3229 1.350 . S
C3235 H3222 0.929 . S
C3235 C3227 1.433 . S
C3235 N3237 1.384 . S
N3236 C3232 1.427 . S
N3236 C3233 1.384 . S
N3237 C3229 1.427 . S
N3237 C3235 1.384 . S
H3238 C3244 0.930 . S
H3239 C3248 0.930 . S
H3240 C3253 0.929 . S
H3241 C3251 0.929 . S
H3242 C3246 0.929 . S
H3243 C3252 0.929 . S
C3244 H3238 0.930 . S
C3244 C3245 1.367 . S
C3244 C3252 1.378 . S
C3245 C3244 1.367 . S
C3245 C3253 1.433 . S
C3246 H3242 0.929 . S
C3246 C3248 1.378 . S
C3246 C3250 1.350 . S
C3247 C3250 1.463 . S
C3247 C3252 1.350 . S
C3247 N3255 1.427 . S
C3248 H3239 0.930 . S
C3248 C3246 1.378 . S
C3248 C3249 1.367 . S
C3249 C3248 1.367 . S
C3249 C3251 1.433 . S
C3250 C3246 1.350 . S
C3250 C3247 1.463 . S
C3250 N3254 1.427 . S
C3251 H3241 0.929 . S
C3251 C3249 1.433 . S
C3251 N3254 1.384 . S
C3252 H3243 0.929 . S
C3252 C3244 1.378 . S
C3252 C3247 1.350 . S
C3253 H3240 0.929 . S
C3253 C3245 1.433 . S
C3253 N3255 1.384 . S
N3254 C3250 1.427 . S
N3254 C3251 1.384 . S
N3255 C3247 1.427 . S
N3255 C3253 1.384 . S
H3256 C3262 0.930 . S
H3257 C3266 0.930 . S
H3258 C3271 0.929 . S
H3259 C3269 0.929 . S
H3260 C3264 0.929 . S
H3261 C3270 0.929 . S
C3262 H3256 0.930 . S
C3262 C3263 1.367 . S
C3262 C3270 1.378 . S
C3263 C3262 1.367 . S
C3263 C3271 1.433 . S
C3264 H3260 0.929 . S
C3264 C3266 1.378 . S
C3264 C3268 1.350 . S
C3265 C3268 1.463 . S
C3265 C3270 1.350 . S
C3265 N3273 1.427 . S
C3266 H3257 0.930 . S
C3266 C3264 1.378 . S
C3266 C3267 1.367 . S
C3267 C3266 1.367 . S
C3267 C3269 1.433 . S
C3268 C3264 1.350 . S
C3268 C3265 1.463 . S
C3268 N3272 1.427 . S
C3269 H3259 0.929 . S
C3269 C3267 1.433 . S
C3269 N3272 1.384 . S
C3270 H3261 0.929 . S
C3270 C3262 1.378 . S
C3270 C3265 1.350 . S
C3271 H3258 0.929 . S
C3271 C3263 1.433 . S
C3271 N3273 1.384 . S
N3272 C3268 1.427 . S
N3272 C3269 1.384 . S
N3273 C3265 1.427 . S
N3273 C3271 1.384 . S
H3274 C3280 0.930 . S
H3275 C3284 0.930 . S
H3276 C3289 0.929 . S
H3277 C3287 0.929 . S
H3278 C3282 0.929 . S
H3279 C3288 0.929 . S
C3280 H3274 0.930 . S
C3280 C3281 1.367 . S
C3280 C3288 1.378 . S
C3281 C3280 1.367 . S
C3281 C3289 1.433 . S
C3282 H3278 0.929 . S
C3282 C3284 1.378 . S
C3282 C3286 1.350 . S
C3283 C3286 1.463 . S
C3283 C3288 1.350 . S
C3283 N3291 1.427 . S
C3284 H3275 0.930 . S
C3284 C3282 1.378 . S
C3284 C3285 1.367 . S
C3285 C3284 1.367 . S
C3285 C3287 1.433 . S
C3286 C3282 1.350 . S
C3286 C3283 1.463 . S
C3286 N3290 1.427 . S
C3287 H3277 0.929 . S
C3287 C3285 1.433 . S
C3287 N3290 1.384 . S
C3288 H3279 0.929 . S
C3288 C3280 1.378 . S
C3288 C3283 1.350 . S
C3289 H3276 0.929 . S
C3289 C3281 1.433 . S
C3289 N3291 1.384 . S
N3290 C3286 1.427 . S
N3290 C3287 1.384 . S
N3291 C3283 1.427 . S
N3291 C3289 1.384 . S
H3292 C3298 0.930 . S
H3293 C3302 0.930 1_554 S
H3294 C3307 0.929 . S
H3295 C3305 0.929 . S
H3296 C3300 0.929 . S
H3297 C3306 0.929 . S
C3298 H3292 0.930 . S
C3298 C3299 1.367 . S
C3298 C3306 1.378 . S
C3299 C3298 1.367 . S
C3299 C3307 1.433 . S
C3300 H3296 0.929 . S
C3300 C3302 1.378 . S
C3300 C3304 1.350 . S
C3301 C3304 1.463 . S
C3301 C3306 1.350 . S
C3301 N3309 1.427 . S
C3302 H3293 0.930 1_556 S
C3302 C3300 1.378 . S
C3302 C3303 1.367 . S
C3303 C3302 1.367 . S
C3303 C3305 1.433 . S
C3304 C3300 1.350 . S
C3304 C3301 1.463 . S
C3304 N3308 1.427 . S
C3305 H3295 0.929 . S
C3305 C3303 1.433 . S
C3305 N3308 1.384 . S
C3306 H3297 0.929 . S
C3306 C3298 1.378 . S
C3306 C3301 1.350 . S
C3307 H3294 0.929 . S
C3307 C3299 1.433 . S
C3307 N3309 1.384 . S
N3308 C3304 1.427 . S
N3308 C3305 1.384 . S
N3309 C3301 1.427 . S
N3309 C3307 1.384 . S
H3310 C3316 0.930 . S
H3311 C3320 0.930 . S
H3312 C3325 0.929 . S
H3313 C3323 0.929 . S
H3314 C3318 0.929 . S
H3315 C3324 0.929 . S
C3316 H3310 0.930 . S
C3316 C3317 1.367 . S
C3316 C3324 1.378 . S
C3317 C3316 1.367 . S
C3317 C3325 1.433 . S
C3318 H3314 0.929 . S
C3318 C3320 1.378 . S
C3318 C3322 1.350 . S
C3319 C3322 1.463 . S
C3319 C3324 1.350 . S
C3319 N3327 1.427 . S
C3320 H3311 0.930 . S
C3320 C3318 1.378 . S
C3320 C3321 1.367 . S
C3321 C3320 1.367 . S
C3321 C3323 1.433 . S
C3322 C3318 1.350 . S
C3322 C3319 1.463 . S
C3322 N3326 1.427 . S
C3323 H3313 0.929 . S
C3323 C3321 1.433 . S
C3323 N3326 1.384 . S
C3324 H3315 0.929 . S
C3324 C3316 1.378 . S
C3324 C3319 1.350 . S
C3325 H3312 0.929 . S
C3325 C3317 1.433 . S
C3325 N3327 1.384 . S
N3326 C3322 1.427 . S
N3326 C3323 1.384 . S
N3327 C3319 1.427 . S
N3327 C3325 1.384 . S
H3328 C3334 0.930 . S
H3329 C3338 0.930 . S
H3330 C3343 0.929 . S
H3331 C3341 0.929 1_565 S
H3332 C3336 0.929 . S
H3333 C3342 0.929 . S
C3334 H3328 0.930 . S
C3334 C3335 1.367 1_565 S
C3334 C3342 1.378 . S
C3335 C3334 1.367 1_545 S
C3335 C3343 1.433 . S
C3336 H3332 0.929 . S
C3336 C3338 1.378 . S
C3336 C3340 1.350 . S
C3337 C3340 1.463 . S
C3337 C3342 1.350 1_545 S
C3337 N3345 1.427 . S
C3338 H3329 0.930 . S
C3338 C3336 1.378 . S
C3338 C3339 1.367 . S
C3339 C3338 1.367 . S
C3339 C3341 1.433 . S
C3340 C3336 1.350 . S
C3340 C3337 1.463 . S
C3340 N3344 1.425 . S
C3341 H3331 0.929 1_545 S
C3341 C3339 1.433 . S
C3341 N3344 1.384 . S
C3342 H3333 0.929 . S
C3342 C3334 1.378 . S
C3342 C3337 1.350 1_565 S
C3343 H3330 0.929 . S
C3343 C3335 1.433 . S
C3343 N3345 1.384 . S
N3344 C3340 1.425 . S
N3344 C3341 1.384 . S
N3345 C3337 1.427 . S
N3345 C3343 1.384 . S
H3346 C3352 0.930 . S
H3347 C3356 0.930 . S
H3348 C3361 0.929 . S
H3349 C3359 0.929 . S
H3350 C3354 0.929 . S
H3351 C3360 0.929 . S
C3352 H3346 0.930 . S
C3352 C3353 1.367 . S
C3352 C3360 1.378 . S
C3353 C3352 1.367 . S
C3353 C3361 1.433 . S
C3354 H3350 0.929 . S
C3354 C3356 1.378 . S
C3354 C3358 1.350 . S
C3355 C3358 1.463 . S
C3355 C3360 1.350 . S
C3355 N3363 1.427 . S
C3356 H3347 0.930 . S
C3356 C3354 1.378 . S
C3356 C3357 1.367 . S
C3357 C3356 1.367 . S
C3357 C3359 1.433 . S
C3358 C3354 1.350 . S
C3358 C3355 1.463 . S
C3358 N3362 1.427 . S
C3359 H3349 0.929 . S
C3359 C3357 1.433 . S
C3359 N3362 1.384 . S
C3360 H3351 0.929 . S
C3360 C3352 1.378 . S
C3360 C3355 1.350 . S
C3361 H3348 0.929 . S
C3361 C3353 1.433 . S
C3361 N3363 1.384 . S
N3362 C3358 1.427 . S
N3362 C3359 1.384 . S
N3363 C3355 1.427 . S
N3363 C3361 1.384 . S
H3364 C3370 0.930 . S
H3365 C3374 0.930 . S
H3366 C3379 0.929 . S
H3367 C3377 0.929 . S
H3368 C3372 0.929 . S
H3369 C3378 0.929 . S
C3370 H3364 0.930 . S
C3370 C3371 1.367 . S
C3370 C3378 1.378 . S
C3371 C3370 1.367 . S
C3371 C3379 1.433 . S
C3372 H3368 0.929 . S
C3372 C3374 1.378 . S
C3372 C3376 1.350 . S
C3373 C3376 1.463 . S
C3373 C3378 1.350 . S
C3373 N3381 1.427 . S
C3374 H3365 0.930 . S
C3374 C3372 1.378 . S
C3374 C3375 1.367 . S
C3375 C3374 1.367 . S
C3375 C3377 1.433 . S
C3376 C3372 1.350 . S
C3376 C3373 1.463 . S
C3376 N3380 1.427 . S
C3377 H3367 0.929 . S
C3377 C3375 1.433 . S
C3377 N3380 1.384 . S
C3378 H3369 0.929 . S
C3378 C3370 1.378 . S
C3378 C3373 1.350 . S
C3379 H3366 0.929 . S
C3379 C3371 1.433 . S
C3379 N3381 1.384 . S
N3380 C3376 1.427 . S
N3380 C3377 1.384 . S
N3381 C3373 1.427 . S
N3381 C3379 1.384 . S
H3382 C3388 0.930 . S
H3383 C3392 0.930 . S
H3384 C3397 0.929 . S
H3385 C3395 0.929 . S
H3386 C3390 0.929 . S
H3387 C3396 0.929 . S
C3388 H3382 0.930 . S
C3388 C3389 1.367 . S
C3388 C3396 1.378 . S
C3389 C3388 1.367 . S
C3389 C3397 1.433 . S
C3390 H3386 0.929 . S
C3390 C3392 1.378 . S
C3390 C3394 1.350 . S
C3391 C3394 1.463 . S
C3391 C3396 1.350 . S
C3391 N3399 1.427 . S
C3392 H3383 0.930 . S
C3392 C3390 1.378 . S
C3392 C3393 1.367 . S
C3393 C3392 1.367 . S
C3393 C3395 1.433 . S
C3394 C3390 1.350 . S
C3394 C3391 1.463 . S
C3394 N3398 1.427 . S
C3395 H3385 0.929 . S
C3395 C3393 1.433 . S
C3395 N3398 1.384 . S
C3396 H3387 0.929 . S
C3396 C3388 1.378 . S
C3396 C3391 1.350 . S
C3397 H3384 0.929 . S
C3397 C3389 1.433 . S
C3397 N3399 1.384 . S
N3398 C3394 1.427 . S
N3398 C3395 1.384 . S
N3399 C3391 1.427 . S
N3399 C3397 1.384 . S
H3400 C3406 0.930 . S
H3401 C3410 0.930 . S
H3402 C3415 0.929 . S
H3403 C3413 0.929 1_565 S
H3404 C3408 0.929 . S
H3405 C3414 0.929 . S
C3406 H3400 0.930 . S
C3406 C3407 1.367 . S
C3406 C3414 1.378 . S
C3407 C3406 1.367 . S
C3407 C3415 1.433 1_565 S
C3408 H3404 0.929 . S
C3408 C3410 1.378 . S
C3408 C3412 1.350 . S
C3409 C3412 1.463 . S
C3409 C3414 1.350 1_545 S
C3409 N3417 1.427 . S
C3410 H3401 0.930 . S
C3410 C3408 1.378 . S
C3410 C3411 1.367 . S
C3411 C3410 1.367 . S
C3411 C3413 1.433 . S
C3412 C3408 1.350 . S
C3412 C3409 1.463 . S
C3412 N3416 1.427 1_545 S
C3413 H3403 0.929 1_545 S
C3413 C3411 1.433 . S
C3413 N3416 1.384 1_545 S
C3414 H3405 0.929 . S
C3414 C3406 1.378 . S
C3414 C3409 1.350 1_565 S
C3415 H3402 0.929 . S
C3415 C3407 1.433 1_545 S
C3415 N3417 1.384 . S
N3416 C3412 1.427 1_565 S
N3416 C3413 1.384 1_565 S
N3417 C3409 1.427 . S
N3417 C3415 1.384 . S
H3418 C3424 0.930 . S
H3419 C3428 0.930 . S
H3420 C3433 0.929 . S
H3421 C3431 0.929 . S
H3422 C3426 0.929 . S
H3423 C3432 0.929 . S
C3424 H3418 0.930 . S
C3424 C3425 1.367 . S
C3424 C3432 1.378 . S
C3425 C3424 1.367 . S
C3425 C3433 1.433 . S
C3426 H3422 0.929 . S
C3426 C3428 1.378 . S
C3426 C3430 1.350 . S
C3427 C3430 1.463 . S
C3427 C3432 1.350 . S
C3427 N3435 1.427 . S
C3428 H3419 0.930 . S
C3428 C3426 1.378 . S
C3428 C3429 1.367 . S
C3429 C3428 1.367 . S
C3429 C3431 1.433 . S
C3430 C3426 1.350 . S
C3430 C3427 1.463 . S
C3430 N3434 1.427 . S
C3431 H3421 0.929 . S
C3431 C3429 1.433 . S
C3431 N3434 1.384 . S
C3432 H3423 0.929 . S
C3432 C3424 1.378 . S
C3432 C3427 1.350 . S
C3433 H3420 0.929 . S
C3433 C3425 1.433 . S
C3433 N3435 1.384 . S
N3434 C3430 1.427 . S
N3434 C3431 1.384 . S
N3435 C3427 1.427 . S
N3435 C3433 1.384 . S
H3436 C3442 0.930 . S
H3437 C3446 0.930 . S
H3438 C3451 0.929 . S
H3439 C3449 0.929 . S
H3440 C3444 0.929 . S
H3441 C3450 0.929 . S
C3442 H3436 0.930 . S
C3442 C3443 1.367 . S
C3442 C3450 1.378 . S
C3443 C3442 1.367 . S
C3443 C3451 1.433 1_545 S
C3444 H3440 0.929 . S
C3444 C3446 1.378 . S
C3444 C3448 1.333 1_565 S
C3445 C3448 1.462 . S
C3445 C3450 1.350 . S
C3445 N3453 1.427 1_545 S
C3446 H3437 0.930 . S
C3446 C3444 1.378 . S
C3446 C3447 1.367 . S
C3447 C3446 1.367 . S
C3447 C3449 1.433 1_565 S
C3448 C3444 1.333 1_545 S
C3448 C3445 1.462 . S
C3448 N3452 1.447 . S
C3449 H3439 0.929 . S
C3449 C3447 1.433 1_545 S
C3449 N3452 1.384 . S
C3450 H3441 0.929 . S
C3450 C3442 1.378 . S
C3450 C3445 1.350 . S
C3451 H3438 0.929 . S
C3451 C3443 1.433 1_565 S
C3451 N3453 1.384 . S
N3452 C3448 1.447 . S
N3452 C3449 1.384 . S
N3453 C3445 1.427 1_565 S
N3453 C3451 1.384 . S
H3454 C3460 0.930 . S
H3455 C3464 0.930 . S
H3456 C3469 0.929 . S
H3457 C3467 0.929 . S
H3458 C3462 0.929 . S
H3459 C3468 0.929 . S
C3460 H3454 0.930 . S
C3460 C3461 1.367 . S
C3460 C3468 1.378 . S
C3461 C3460 1.367 . S
C3461 C3469 1.433 . S
C3462 H3458 0.929 . S
C3462 C3464 1.378 . S
C3462 C3466 1.350 . S
C3463 C3466 1.463 . S
C3463 C3468 1.350 . S
C3463 N3471 1.427 . S
C3464 H3455 0.930 . S
C3464 C3462 1.378 . S
C3464 C3465 1.367 . S
C3465 C3464 1.367 . S
C3465 C3467 1.433 . S
C3466 C3462 1.350 . S
C3466 C3463 1.463 . S
C3466 N3470 1.427 . S
C3467 H3457 0.929 . S
C3467 C3465 1.433 . S
C3467 N3470 1.384 . S
C3468 H3459 0.929 . S
C3468 C3460 1.378 . S
C3468 C3463 1.350 . S
C3469 H3456 0.929 . S
C3469 C3461 1.433 . S
C3469 N3471 1.384 . S
N3470 C3466 1.427 . S
N3470 C3467 1.384 . S
N3471 C3463 1.427 . S
N3471 C3469 1.384 . S
H3472 C3478 0.930 . S
H3473 C3482 0.929 . S
H3474 C3487 0.929 . S
H3475 C3485 0.928 . S
H3476 C3480 0.929 . S
H3477 C3486 0.929 . S
C3478 H3472 0.930 . S
C3478 C3479 1.367 . S
C3478 C3486 1.378 . S
C3479 C3478 1.367 . S
C3479 C3487 1.433 . S
C3480 H3476 0.929 . S
C3480 C3482 1.377 1_554 S
C3480 C3484 1.350 . S
C3481 C3484 1.463 . S
C3481 C3486 1.350 . S
C3481 N3489 1.427 . S
C3482 H3473 0.929 . S
C3482 C3480 1.377 1_556 S
C3482 C3483 1.366 . S
C3483 C3482 1.366 . S
C3483 C3485 1.444 1_556 S
C3484 C3480 1.350 . S
C3484 C3481 1.463 . S
C3484 N3488 1.427 . S
C3485 H3475 0.928 . S
C3485 C3483 1.444 1_554 S
C3485 N3488 1.390 . S
C3486 H3477 0.929 . S
C3486 C3478 1.378 . S
C3486 C3481 1.350 . S
C3487 H3474 0.929 . S
C3487 C3479 1.433 . S
C3487 N3489 1.384 . S
N3488 C3484 1.427 . S
N3488 C3485 1.390 . S
N3489 C3481 1.427 . S
N3489 C3487 1.384 . S
H3490 C3496 0.930 1_556 S
H3491 C3500 0.930 . S
H3492 C3505 0.929 . S
H3493 C3503 0.878 1_556 S
H3494 C3498 0.929 . S
H3495 C3504 0.929 1_556 S
C3496 H3490 0.930 1_554 S
C3496 C3497 1.367 . S
C3496 C3504 1.378 . S
C3497 C3496 1.367 . S
C3497 C3505 1.433 . S
C3498 H3494 0.929 . S
C3498 C3500 1.378 . S
C3498 C3502 1.350 . S
C3499 C3502 1.463 . S
C3499 C3504 1.350 . S
C3499 N3507 1.427 . S
C3500 H3491 0.930 . S
C3500 C3498 1.378 . S
C3500 C3501 1.367 . S
C3501 C3500 1.367 . S
C3501 C3503 1.472 . S
C3502 C3498 1.350 . S
C3502 C3499 1.463 . S
C3502 N3506 1.427 . S
C3503 H3493 0.878 1_554 S
C3503 C3501 1.472 . S
C3503 N3506 1.400 . S
C3504 H3495 0.929 1_554 S
C3504 C3496 1.378 . S
C3504 C3499 1.350 . S
C3505 H3492 0.929 . S
C3505 C3497 1.433 . S
C3505 N3507 1.384 . S
N3506 C3502 1.427 . S
N3506 C3503 1.400 . S
N3507 C3499 1.427 . S
N3507 C3505 1.384 . S
H3508 C3514 0.930 . S
H3509 C3518 0.930 . S
H3510 C3523 0.929 . S
H3511 C3521 0.929 . S
H3512 C3516 0.929 . S
H3513 C3522 0.929 . S
C3514 H3508 0.930 . S
C3514 C3515 1.367 . S
C3514 C3522 1.378 . S
C3515 C3514 1.367 . S
C3515 C3523 1.433 . S
C3516 H3512 0.929 . S
C3516 C3518 1.378 . S
C3516 C3520 1.350 . S
C3517 C3520 1.463 . S
C3517 C3522 1.350 . S
C3517 N3525 1.427 . S
C3518 H3509 0.930 . S
C3518 C3516 1.378 . S
C3518 C3519 1.367 . S
C3519 C3518 1.367 . S
C3519 C3521 1.433 . S
C3520 C3516 1.350 . S
C3520 C3517 1.463 . S
C3520 N3524 1.427 . S
C3521 H3511 0.929 . S
C3521 C3519 1.433 . S
C3521 N3524 1.384 . S
C3522 H3513 0.929 . S
C3522 C3514 1.378 . S
C3522 C3517 1.350 . S
C3523 H3510 0.929 . S
C3523 C3515 1.433 . S
C3523 N3525 1.384 . S
N3524 C3520 1.427 . S
N3524 C3521 1.384 . S
N3525 C3517 1.427 . S
N3525 C3523 1.384 . S
H3526 C3532 0.930 . S
H3527 C3536 0.930 . S
H3528 C3541 0.929 . S
H3529 C3539 0.929 . S
H3530 C3534 0.929 . S
H3531 C3540 0.929 . S
C3532 H3526 0.930 . S
C3532 C3533 1.367 . S
C3532 C3540 1.378 . S
C3533 C3532 1.367 . S
C3533 C3541 1.433 . S
C3534 H3530 0.929 . S
C3534 C3536 1.378 . S
C3534 C3538 1.350 . S
C3535 C3538 1.463 . S
C3535 C3540 1.350 . S
C3535 N3543 1.427 . S
C3536 H3527 0.930 . S
C3536 C3534 1.378 . S
C3536 C3537 1.367 . S
C3537 C3536 1.367 . S
C3537 C3539 1.433 . S
C3538 C3534 1.350 . S
C3538 C3535 1.463 . S
C3538 N3542 1.427 . S
C3539 H3529 0.929 . S
C3539 C3537 1.433 . S
C3539 N3542 1.384 . S
C3540 H3531 0.929 . S
C3540 C3532 1.378 . S
C3540 C3535 1.350 . S
C3541 H3528 0.929 . S
C3541 C3533 1.433 . S
C3541 N3543 1.384 . S
N3542 C3538 1.427 . S
N3542 C3539 1.384 . S
N3543 C3535 1.427 . S
N3543 C3541 1.384 . S
H3544 C3550 0.930 . S
H3545 C3554 0.930 . S
H3546 C3559 0.929 . S
H3547 C3557 0.929 . S
H3548 C3552 0.929 . S
H3549 C3558 0.929 . S
C3550 H3544 0.930 . S
C3550 C3551 1.367 . S
C3550 C3558 1.378 . S
C3551 C3550 1.367 . S
C3551 C3559 1.433 . S
C3552 H3548 0.929 . S
C3552 C3554 1.378 . S
C3552 C3556 1.350 . S
C3553 C3556 1.463 . S
C3553 C3558 1.350 . S
C3553 N3561 1.427 . S
C3554 H3545 0.930 . S
C3554 C3552 1.378 . S
C3554 C3555 1.367 . S
C3555 C3554 1.367 . S
C3555 C3557 1.433 . S
C3556 C3552 1.350 . S
C3556 C3553 1.463 . S
C3556 N3560 1.427 . S
C3557 H3547 0.929 . S
C3557 C3555 1.433 . S
C3557 N3560 1.384 . S
C3558 H3549 0.929 . S
C3558 C3550 1.378 . S
C3558 C3553 1.350 . S
C3559 H3546 0.929 . S
C3559 C3551 1.433 . S
C3559 N3561 1.384 . S
N3560 C3556 1.427 . S
N3560 C3557 1.384 . S
N3561 C3553 1.427 . S
N3561 C3559 1.384 . S
H3562 C3568 0.930 . S
H3563 C3572 0.930 . S
H3564 C3577 0.929 . S
H3565 C3575 0.929 . S
H3566 C3570 0.929 . S
H3567 C3576 0.929 . S
C3568 H3562 0.930 . S
C3568 C3569 1.367 . S
C3568 C3576 1.378 . S
C3569 C3568 1.367 . S
C3569 C3577 1.433 . S
C3570 H3566 0.929 . S
C3570 C3572 1.378 . S
C3570 C3574 1.350 . S
C3571 C3574 1.463 . S
C3571 C3576 1.350 . S
C3571 N3579 1.427 . S
C3572 H3563 0.930 . S
C3572 C3570 1.378 . S
C3572 C3573 1.367 . S
C3573 C3572 1.367 . S
C3573 C3575 1.433 . S
C3574 C3570 1.350 . S
C3574 C3571 1.463 . S
C3574 N3578 1.427 . S
C3575 H3565 0.929 . S
C3575 C3573 1.433 . S
C3575 N3578 1.384 . S
C3576 H3567 0.929 . S
C3576 C3568 1.378 . S
C3576 C3571 1.350 . S
C3577 H3564 0.929 . S
C3577 C3569 1.433 . S
C3577 N3579 1.384 . S
N3578 C3574 1.427 . S
N3578 C3575 1.384 . S
N3579 C3571 1.427 . S
N3579 C3577 1.384 . S
H3580 C3586 0.930 . S
H3581 C3590 0.930 . S
H3582 C3595 0.929 . S
H3583 C3593 0.929 . S
H3584 C3588 0.929 . S
H3585 C3594 0.929 . S
C3586 H3580 0.930 . S
C3586 C3587 1.367 . S
C3586 C3594 1.378 . S
C3587 C3586 1.367 . S
C3587 C3595 1.433 . S
C3588 H3584 0.929 . S
C3588 C3590 1.378 . S
C3588 C3592 1.350 . S
C3589 C3592 1.463 . S
C3589 C3594 1.350 . S
C3589 N3597 1.427 . S
C3590 H3581 0.930 . S
C3590 C3588 1.378 . S
C3590 C3591 1.367 . S
C3591 C3590 1.367 . S
C3591 C3593 1.433 . S
C3592 C3588 1.350 . S
C3592 C3589 1.463 . S
C3592 N3596 1.427 . S
C3593 H3583 0.929 . S
C3593 C3591 1.433 . S
C3593 N3596 1.384 . S
C3594 H3585 0.929 . S
C3594 C3586 1.378 . S
C3594 C3589 1.350 . S
C3595 H3582 0.929 . S
C3595 C3587 1.433 . S
C3595 N3597 1.384 . S
N3596 C3592 1.427 . S
N3596 C3593 1.384 . S
N3597 C3589 1.427 . S
N3597 C3595 1.384 . S
H3598 C3604 0.930 . S
H3599 C3608 0.930 . S
H3600 C3613 0.929 . S
H3601 C3611 0.929 . S
H3602 C3606 0.929 . S
H3603 C3612 0.929 . S
C3604 H3598 0.930 . S
C3604 C3605 1.367 . S
C3604 C3612 1.378 . S
C3605 C3604 1.367 . S
C3605 C3613 1.433 . S
C3606 H3602 0.929 . S
C3606 C3608 1.378 . S
C3606 C3610 1.350 . S
C3607 C3610 1.463 . S
C3607 C3612 1.350 . S
C3607 N3615 1.427 . S
C3608 H3599 0.930 . S
C3608 C3606 1.378 . S
C3608 C3609 1.367 . S
C3609 C3608 1.367 . S
C3609 C3611 1.433 . S
C3610 C3606 1.350 . S
C3610 C3607 1.463 . S
C3610 N3614 1.427 . S
C3611 H3601 0.929 . S
C3611 C3609 1.433 . S
C3611 N3614 1.384 . S
C3612 H3603 0.929 . S
C3612 C3604 1.378 . S
C3612 C3607 1.350 . S
C3613 H3600 0.929 . S
C3613 C3605 1.433 . S
C3613 N3615 1.384 . S
N3614 C3610 1.427 . S
N3614 C3611 1.384 . S
N3615 C3607 1.427 . S
N3615 C3613 1.384 . S
H3616 C3622 0.930 . S
H3617 C3626 0.930 . S
H3618 C3631 0.929 . S
H3619 C3629 0.929 . S
H3620 C3624 0.929 . S
H3621 C3630 0.929 . S
C3622 H3616 0.930 . S
C3622 C3623 1.367 . S
C3622 C3630 1.378 . S
C3623 C3622 1.367 . S
C3623 C3631 1.433 . S
C3624 H3620 0.929 . S
C3624 C3626 1.378 . S
C3624 C3628 1.350 . S
C3625 C3628 1.463 . S
C3625 C3630 1.350 . S
C3625 N3633 1.427 . S
C3626 H3617 0.930 . S
C3626 C3624 1.378 . S
C3626 C3627 1.367 . S
C3627 C3626 1.367 . S
C3627 C3629 1.433 . S
C3628 C3624 1.350 . S
C3628 C3625 1.463 . S
C3628 N3632 1.427 . S
C3629 H3619 0.929 . S
C3629 C3627 1.433 . S
C3629 N3632 1.384 . S
C3630 H3621 0.929 . S
C3630 C3622 1.378 . S
C3630 C3625 1.350 . S
C3631 H3618 0.929 . S
C3631 C3623 1.433 . S
C3631 N3633 1.384 . S
N3632 C3628 1.427 . S
N3632 C3629 1.384 . S
N3633 C3625 1.427 . S
N3633 C3631 1.384 . S
H3634 C3640 0.930 . S
H3635 C3644 0.930 . S
H3636 C3649 0.929 . S
H3637 C3647 0.929 . S
H3638 C3642 0.929 . S
H3639 C3648 0.929 . S
C3640 H3634 0.930 . S
C3640 C3641 1.367 . S
C3640 C3648 1.378 . S
C3641 C3640 1.367 . S
C3641 C3649 1.433 . S
C3642 H3638 0.929 . S
C3642 C3644 1.378 . S
C3642 C3646 1.350 . S
C3643 C3646 1.463 . S
C3643 C3648 1.350 . S
C3643 N3651 1.427 . S
C3644 H3635 0.930 . S
C3644 C3642 1.378 . S
C3644 C3645 1.367 . S
C3645 C3644 1.367 . S
C3645 C3647 1.433 . S
C3646 C3642 1.350 . S
C3646 C3643 1.463 . S
C3646 N3650 1.427 . S
C3647 H3637 0.929 . S
C3647 C3645 1.433 . S
C3647 N3650 1.384 . S
C3648 H3639 0.929 . S
C3648 C3640 1.378 . S
C3648 C3643 1.350 . S
C3649 H3636 0.929 . S
C3649 C3641 1.433 . S
C3649 N3651 1.384 . S
N3650 C3646 1.427 . S
N3650 C3647 1.384 . S
N3651 C3643 1.427 . S
N3651 C3649 1.384 . S
H3652 C3658 0.930 . S
H3653 C3662 0.930 . S
H3654 C3667 0.929 . S
H3655 C3665 0.929 . S
H3656 C3660 0.929 . S
H3657 C3666 0.929 . S
C3658 H3652 0.930 . S
C3658 C3659 1.367 . S
C3658 C3666 1.378 . S
C3659 C3658 1.367 . S
C3659 C3667 1.433 . S
C3660 H3656 0.929 . S
C3660 C3662 1.378 . S
C3660 C3664 1.350 . S
C3661 C3664 1.463 . S
C3661 C3666 1.350 . S
C3661 N3669 1.427 . S
C3662 H3653 0.930 . S
C3662 C3660 1.378 . S
C3662 C3663 1.367 . S
C3663 C3662 1.367 . S
C3663 C3665 1.433 1_556 S
C3664 C3660 1.350 . S
C3664 C3661 1.463 . S
C3664 N3668 1.427 1_556 S
C3665 H3655 0.929 . S
C3665 C3663 1.433 1_554 S
C3665 N3668 1.384 . S
C3666 H3657 0.929 . S
C3666 C3658 1.378 . S
C3666 C3661 1.350 . S
C3667 H3654 0.929 . S
C3667 C3659 1.433 . S
C3667 N3669 1.384 . S
N3668 C3664 1.427 1_554 S
N3668 C3665 1.384 . S
N3669 C3661 1.427 . S
N3669 C3667 1.384 . S
H3670 C3676 0.930 . S
H3671 C3680 0.930 . S
H3672 C3685 0.929 . S
H3673 C3683 0.929 . S
H3674 C3678 0.929 . S
H3675 C3684 0.929 . S
C3676 H3670 0.930 . S
C3676 C3677 1.367 . S
C3676 C3684 1.378 . S
C3677 C3676 1.367 . S
C3677 C3685 1.433 . S
C3678 H3674 0.929 . S
C3678 C3680 1.378 . S
C3678 C3682 1.350 . S
C3679 C3682 1.463 . S
C3679 C3684 1.350 . S
C3679 N3687 1.427 . S
C3680 H3671 0.930 . S
C3680 C3678 1.378 . S
C3680 C3681 1.367 . S
C3681 C3680 1.367 . S
C3681 C3683 1.433 . S
C3682 C3678 1.350 . S
C3682 C3679 1.463 . S
C3682 N3686 1.427 . S
C3683 H3673 0.929 . S
C3683 C3681 1.433 . S
C3683 N3686 1.384 . S
C3684 H3675 0.929 . S
C3684 C3676 1.378 . S
C3684 C3679 1.350 . S
C3685 H3672 0.929 . S
C3685 C3677 1.433 . S
C3685 N3687 1.384 . S
N3686 C3682 1.427 . S
N3686 C3683 1.384 . S
N3687 C3679 1.427 . S
N3687 C3685 1.384 . S
H3688 C3694 0.930 . S
H3689 C3698 0.930 . S
H3690 C3703 0.929 . S
H3691 C3701 0.929 . S
H3692 C3696 0.929 . S
H3693 C3702 0.929 . S
C3694 H3688 0.930 . S
C3694 C3695 1.367 . S
C3694 C3702 1.378 . S
C3695 C3694 1.367 . S
C3695 C3703 1.433 . S
C3696 H3692 0.929 . S
C3696 C3698 1.378 . S
C3696 C3700 1.350 . S
C3697 C3700 1.463 . S
C3697 C3702 1.350 . S
C3697 N3705 1.427 . S
C3698 H3689 0.930 . S
C3698 C3696 1.378 . S
C3698 C3699 1.367 . S
C3699 C3698 1.367 . S
C3699 C3701 1.433 . S
C3700 C3696 1.350 . S
C3700 C3697 1.463 . S
C3700 N3704 1.427 . S
C3701 H3691 0.929 . S
C3701 C3699 1.433 . S
C3701 N3704 1.384 . S
C3702 H3693 0.929 . S
C3702 C3694 1.378 . S
C3702 C3697 1.350 . S
C3703 H3690 0.929 . S
C3703 C3695 1.433 . S
C3703 N3705 1.384 . S
N3704 C3700 1.427 . S
N3704 C3701 1.384 . S
N3705 C3697 1.427 . S
N3705 C3703 1.384 . S
H3706 C3712 0.930 . S
H3707 C3716 0.930 . S
H3708 C3721 0.929 . S
H3709 C3719 0.929 . S
H3710 C3714 0.929 . S
H3711 C3720 0.929 . S
C3712 H3706 0.930 . S
C3712 C3713 1.367 . S
C3712 C3720 1.378 . S
C3713 C3712 1.367 . S
C3713 C3721 1.433 . S
C3714 H3710 0.929 . S
C3714 C3716 1.378 . S
C3714 C3718 1.350 . S
C3715 C3718 1.463 . S
C3715 C3720 1.350 . S
C3715 N3723 1.427 . S
C3716 H3707 0.930 . S
C3716 C3714 1.378 . S
C3716 C3717 1.367 . S
C3717 C3716 1.367 . S
C3717 C3719 1.433 . S
C3718 C3714 1.350 . S
C3718 C3715 1.463 . S
C3718 N3722 1.427 . S
C3719 H3709 0.929 . S
C3719 C3717 1.433 . S
C3719 N3722 1.384 . S
C3720 H3711 0.929 . S
C3720 C3712 1.378 . S
C3720 C3715 1.350 . S
C3721 H3708 0.929 . S
C3721 C3713 1.433 . S
C3721 N3723 1.384 . S
N3722 C3718 1.427 . S
N3722 C3719 1.384 . S
N3723 C3715 1.427 . S
N3723 C3721 1.384 . S
H3724 C3730 0.930 . S
H3725 C3734 0.930 . S
H3726 C3739 0.929 . S
H3727 C3737 0.929 . S
H3728 C3732 0.929 . S
H3729 C3738 0.929 . S
C3730 H3724 0.930 . S
C3730 C3731 1.367 . S
C3730 C3738 1.378 . S
C3731 C3730 1.367 . S
C3731 C3739 1.433 1_655 S
C3732 H3728 0.929 . S
C3732 C3734 1.378 . S
C3732 C3736 1.350 . S
C3733 C3736 1.463 . S
C3733 C3738 1.350 1_455 S
C3733 N3741 1.427 . S
C3734 H3725 0.930 . S
C3734 C3732 1.378 . S
C3734 C3735 1.367 . S
C3735 C3734 1.367 . S
C3735 C3737 1.433 . S
C3736 C3732 1.350 . S
C3736 C3733 1.463 . S
C3736 N3740 1.427 . S
C3737 H3727 0.929 . S
C3737 C3735 1.433 . S
C3737 N3740 1.384 . S
C3738 H3729 0.929 . S
C3738 C3730 1.378 . S
C3738 C3733 1.350 1_655 S
C3739 H3726 0.929 . S
C3739 C3731 1.433 1_455 S
C3739 N3741 1.384 . S
N3740 C3736 1.427 . S
N3740 C3737 1.384 . S
N3741 C3733 1.427 . S
N3741 C3739 1.384 . S
H3742 C3748 0.930 . S
H3743 C3752 0.930 . S
H3744 C3757 0.929 . S
H3745 C3755 0.929 . S
H3746 C3750 0.929 . S
H3747 C3756 0.929 . S
C3748 H3742 0.930 . S
C3748 C3749 1.367 . S
C3748 C3756 1.378 . S
C3749 C3748 1.367 . S
C3749 C3757 1.433 . S
C3750 H3746 0.929 . S
C3750 C3752 1.378 . S
C3750 C3754 1.350 . S
C3751 C3754 1.463 . S
C3751 C3756 1.350 . S
C3751 N3759 1.427 . S
C3752 H3743 0.930 . S
C3752 C3750 1.378 . S
C3752 C3753 1.367 . S
C3753 C3752 1.367 . S
C3753 C3755 1.433 . S
C3754 C3750 1.350 . S
C3754 C3751 1.463 . S
C3754 N3758 1.427 . S
C3755 H3745 0.929 . S
C3755 C3753 1.433 . S
C3755 N3758 1.384 . S
C3756 H3747 0.929 . S
C3756 C3748 1.378 . S
C3756 C3751 1.350 . S
C3757 H3744 0.929 . S
C3757 C3749 1.433 . S
C3757 N3759 1.384 . S
N3758 C3754 1.427 . S
N3758 C3755 1.384 . S
N3759 C3751 1.427 . S
N3759 C3757 1.384 . S
H3760 C3766 0.930 . S
H3761 C3770 0.930 . S
H3762 C3775 0.929 . S
H3763 C3773 0.929 . S
H3764 C3768 0.929 . S
H3765 C3774 0.929 . S
C3766 H3760 0.930 . S
C3766 C3767 1.367 . S
C3766 C3774 1.378 . S
C3767 C3766 1.367 . S
C3767 C3775 1.433 . S
C3768 H3764 0.929 . S
C3768 C3770 1.378 . S
C3768 C3772 1.350 . S
C3769 C3772 1.463 . S
C3769 C3774 1.350 . S
C3769 N3777 1.427 . S
C3770 H3761 0.930 . S
C3770 C3768 1.378 . S
C3770 C3771 1.367 . S
C3771 C3770 1.367 . S
C3771 C3773 1.433 . S
C3772 C3768 1.350 . S
C3772 C3769 1.463 . S
C3772 N3776 1.427 . S
C3773 H3763 0.929 . S
C3773 C3771 1.433 . S
C3773 N3776 1.384 . S
C3774 H3765 0.929 . S
C3774 C3766 1.378 . S
C3774 C3769 1.350 . S
C3775 H3762 0.929 . S
C3775 C3767 1.433 . S
C3775 N3777 1.384 . S
N3776 C3772 1.427 . S
N3776 C3773 1.384 . S
N3777 C3769 1.427 . S
N3777 C3775 1.384 . S
H3778 C3784 0.930 . S
H3779 C3788 0.930 . S
H3780 C3793 0.929 . S
H3781 C3791 0.929 . S
H3782 C3786 0.929 . S
H3783 C3792 0.929 . S
C3784 H3778 0.930 . S
C3784 C3785 1.367 . S
C3784 C3792 1.378 . S
C3785 C3784 1.367 . S
C3785 C3793 1.433 . S
C3786 H3782 0.929 . S
C3786 C3788 1.378 . S
C3786 C3790 1.350 . S
C3787 C3790 1.463 . S
C3787 C3792 1.350 . S
C3787 N3795 1.427 . S
C3788 H3779 0.930 . S
C3788 C3786 1.378 . S
C3788 C3789 1.367 . S
C3789 C3788 1.367 . S
C3789 C3791 1.433 . S
C3790 C3786 1.350 . S
C3790 C3787 1.463 . S
C3790 N3794 1.427 . S
C3791 H3781 0.929 . S
C3791 C3789 1.433 . S
C3791 N3794 1.384 . S
C3792 H3783 0.929 . S
C3792 C3784 1.378 . S
C3792 C3787 1.350 . S
C3793 H3780 0.929 . S
C3793 C3785 1.433 . S
C3793 N3795 1.384 . S
N3794 C3790 1.427 . S
N3794 C3791 1.384 . S
N3795 C3787 1.427 . S
N3795 C3793 1.384 . S
H3796 C3802 0.930 . S
H3797 C3806 0.930 . S
H3798 C3811 0.929 . S
H3799 C3809 0.929 . S
H3800 C3804 0.929 . S
H3801 C3810 0.929 . S
C3802 H3796 0.930 . S
C3802 C3803 1.367 . S
C3802 C3810 1.378 . S
C3803 C3802 1.367 . S
C3803 C3811 1.433 . S
C3804 H3800 0.929 . S
C3804 C3806 1.378 . S
C3804 C3808 1.350 . S
C3805 C3808 1.463 . S
C3805 C3810 1.350 . S
C3805 N3813 1.427 . S
C3806 H3797 0.930 . S
C3806 C3804 1.378 . S
C3806 C3807 1.367 . S
C3807 C3806 1.367 . S
C3807 C3809 1.433 . S
C3808 C3804 1.350 . S
C3808 C3805 1.463 . S
C3808 N3812 1.427 . S
C3809 H3799 0.929 . S
C3809 C3807 1.433 . S
C3809 N3812 1.384 . S
C3810 H3801 0.929 . S
C3810 C3802 1.378 . S
C3810 C3805 1.350 . S
C3811 H3798 0.929 . S
C3811 C3803 1.433 . S
C3811 N3813 1.384 . S
N3812 C3808 1.427 . S
N3812 C3809 1.384 . S
N3813 C3805 1.427 . S
N3813 C3811 1.384 . S
H3814 C3820 0.930 . S
H3815 C3824 0.930 . S
H3816 C3829 0.929 . S
H3817 C3827 0.929 . S
H3818 C3822 0.929 . S
H3819 C3828 0.929 . S
C3820 H3814 0.930 . S
C3820 C3821 1.367 . S
C3820 C3828 1.378 . S
C3821 C3820 1.367 . S
C3821 C3829 1.433 . S
C3822 H3818 0.929 . S
C3822 C3824 1.378 . S
C3822 C3826 1.350 . S
C3823 C3826 1.463 . S
C3823 C3828 1.350 . S
C3823 N3831 1.427 . S
C3824 H3815 0.930 . S
C3824 C3822 1.378 . S
C3824 C3825 1.367 . S
C3825 C3824 1.367 . S
C3825 C3827 1.433 . S
C3826 C3822 1.350 . S
C3826 C3823 1.463 . S
C3826 N3830 1.427 . S
C3827 H3817 0.929 . S
C3827 C3825 1.433 . S
C3827 N3830 1.384 . S
C3828 H3819 0.929 . S
C3828 C3820 1.378 . S
C3828 C3823 1.350 . S
C3829 H3816 0.929 . S
C3829 C3821 1.433 . S
C3829 N3831 1.384 . S
N3830 C3826 1.427 . S
N3830 C3827 1.384 . S
N3831 C3823 1.427 . S
N3831 C3829 1.384 . S
H3832 C3838 0.930 . S
H3833 C3842 0.930 . S
H3834 C3847 0.929 . S
H3835 C3845 0.929 . S
H3836 C3840 0.929 . S
H3837 C3846 0.929 . S
C3838 H3832 0.930 . S
C3838 C3839 1.367 . S
C3838 C3846 1.378 . S
C3839 C3838 1.367 . S
C3839 C3847 1.433 . S
C3840 H3836 0.929 . S
C3840 C3842 1.378 . S
C3840 C3844 1.350 . S
C3841 C3844 1.463 . S
C3841 C3846 1.350 . S
C3841 N3849 1.427 . S
C3842 H3833 0.930 . S
C3842 C3840 1.378 . S
C3842 C3843 1.367 . S
C3843 C3842 1.367 . S
C3843 C3845 1.433 . S
C3844 C3840 1.350 . S
C3844 C3841 1.463 . S
C3844 N3848 1.427 . S
C3845 H3835 0.929 . S
C3845 C3843 1.433 . S
C3845 N3848 1.384 . S
C3846 H3837 0.929 . S
C3846 C3838 1.378 . S
C3846 C3841 1.350 . S
C3847 H3834 0.929 . S
C3847 C3839 1.433 . S
C3847 N3849 1.384 . S
N3848 C3844 1.427 . S
N3848 C3845 1.384 . S
N3849 C3841 1.427 . S
N3849 C3847 1.384 . S
H3850 C3856 0.930 . S
H3851 C3860 0.930 . S
H3852 C3865 0.929 . S
H3853 C3863 0.929 . S
H3854 C3858 0.929 . S
H3855 C3864 0.929 . S
C3856 H3850 0.930 . S
C3856 C3857 1.367 . S
C3856 C3864 1.378 . S
C3857 C3856 1.367 . S
C3857 C3865 1.433 . S
C3858 H3854 0.929 . S
C3858 C3860 1.378 . S
C3858 C3862 1.350 . S
C3859 C3862 1.463 . S
C3859 C3864 1.350 . S
C3859 N3867 1.427 . S
C3860 H3851 0.930 . S
C3860 C3858 1.378 . S
C3860 C3861 1.367 . S
C3861 C3860 1.367 . S
C3861 C3863 1.433 . S
C3862 C3858 1.350 . S
C3862 C3859 1.463 . S
C3862 N3866 1.427 . S
C3863 H3853 0.929 . S
C3863 C3861 1.433 . S
C3863 N3866 1.384 . S
C3864 H3855 0.929 . S
C3864 C3856 1.378 . S
C3864 C3859 1.350 . S
C3865 H3852 0.929 . S
C3865 C3857 1.433 . S
C3865 N3867 1.384 . S
N3866 C3862 1.427 . S
N3866 C3863 1.384 . S
N3867 C3859 1.427 . S
N3867 C3865 1.384 . S
H3868 C3874 0.930 . S
H3869 C3878 0.930 . S
H3870 C3883 0.929 . S
H3871 C3881 0.929 . S
H3872 C3876 0.929 . S
H3873 C3882 0.929 . S
C3874 H3868 0.930 . S
C3874 C3875 1.367 . S
C3874 C3882 1.378 . S
C3875 C3874 1.367 . S
C3875 C3883 1.433 . S
C3876 H3872 0.929 . S
C3876 C3878 1.378 . S
C3876 C3880 1.350 . S
C3877 C3880 1.463 . S
C3877 C3882 1.350 . S
C3877 N3885 1.427 . S
C3878 H3869 0.930 . S
C3878 C3876 1.378 . S
C3878 C3879 1.367 . S
C3879 C3878 1.367 . S
C3879 C3881 1.433 . S
C3880 C3876 1.350 . S
C3880 C3877 1.463 . S
C3880 N3884 1.427 . S
C3881 H3871 0.929 . S
C3881 C3879 1.433 . S
C3881 N3884 1.384 . S
C3882 H3873 0.929 . S
C3882 C3874 1.378 . S
C3882 C3877 1.350 . S
C3883 H3870 0.929 . S
C3883 C3875 1.433 . S
C3883 N3885 1.384 . S
N3884 C3880 1.427 . S
N3884 C3881 1.384 . S
N3885 C3877 1.427 . S
N3885 C3883 1.384 . S
H3886 C3892 0.930 . S
H3887 C3896 0.930 . S
H3888 C3901 0.929 . S
H3889 C3899 0.929 . S
H3890 C3894 0.929 . S
H3891 C3900 0.929 . S
C3892 H3886 0.930 . S
C3892 C3893 1.367 . S
C3892 C3900 1.378 . S
C3893 C3892 1.367 . S
C3893 C3901 1.433 . S
C3894 H3890 0.929 . S
C3894 C3896 1.378 . S
C3894 C3898 1.350 . S
C3895 C3898 1.463 . S
C3895 C3900 1.350 . S
C3895 N3903 1.427 . S
C3896 H3887 0.930 . S
C3896 C3894 1.378 . S
C3896 C3897 1.367 . S
C3897 C3896 1.367 . S
C3897 C3899 1.433 . S
C3898 C3894 1.350 . S
C3898 C3895 1.463 . S
C3898 N3902 1.427 . S
C3899 H3889 0.929 . S
C3899 C3897 1.433 . S
C3899 N3902 1.384 . S
C3900 H3891 0.929 . S
C3900 C3892 1.378 . S
C3900 C3895 1.350 . S
C3901 H3888 0.929 . S
C3901 C3893 1.433 . S
C3901 N3903 1.384 . S
N3902 C3898 1.427 . S
N3902 C3899 1.384 . S
N3903 C3895 1.427 . S
N3903 C3901 1.384 . S
H3904 C3910 0.930 . S
H3905 C3914 0.930 . S
H3906 C3919 0.929 . S
H3907 C3917 0.929 . S
H3908 C3912 0.929 . S
H3909 C3918 0.929 . S
C3910 H3904 0.930 . S
C3910 C3911 1.367 . S
C3910 C3918 1.378 . S
C3911 C3910 1.367 . S
C3911 C3919 1.433 . S
C3912 H3908 0.929 . S
C3912 C3914 1.378 . S
C3912 C3916 1.350 . S
C3913 C3916 1.463 . S
C3913 C3918 1.350 . S
C3913 N3921 1.427 . S
C3914 H3905 0.930 . S
C3914 C3912 1.378 . S
C3914 C3915 1.367 . S
C3915 C3914 1.367 . S
C3915 C3917 1.433 . S
C3916 C3912 1.350 . S
C3916 C3913 1.463 . S
C3916 N3920 1.427 . S
C3917 H3907 0.929 . S
C3917 C3915 1.433 . S
C3917 N3920 1.384 . S
C3918 H3909 0.929 . S
C3918 C3910 1.378 . S
C3918 C3913 1.350 . S
C3919 H3906 0.929 . S
C3919 C3911 1.433 . S
C3919 N3921 1.384 . S
N3920 C3916 1.427 . S
N3920 C3917 1.384 . S
N3921 C3913 1.427 . S
N3921 C3919 1.384 . S
H3922 C3928 0.930 . S
H3923 C3932 0.930 . S
H3924 C3937 0.929 . S
H3925 C3935 0.929 . S
H3926 C3930 0.929 . S
H3927 C3936 0.929 . S
C3928 H3922 0.930 . S
C3928 C3929 1.367 . S
C3928 C3936 1.378 . S
C3929 C3928 1.367 . S
C3929 C3937 1.433 . S
C3930 H3926 0.929 . S
C3930 C3932 1.378 . S
C3930 C3934 1.350 . S
C3931 C3934 1.463 . S
C3931 C3936 1.350 . S
C3931 N3939 1.427 . S
C3932 H3923 0.930 . S
C3932 C3930 1.378 . S
C3932 C3933 1.367 . S
C3933 C3932 1.367 . S
C3933 C3935 1.433 . S
C3934 C3930 1.350 . S
C3934 C3931 1.463 . S
C3934 N3938 1.427 . S
C3935 H3925 0.929 . S
C3935 C3933 1.433 . S
C3935 N3938 1.384 . S
C3936 H3927 0.929 . S
C3936 C3928 1.378 . S
C3936 C3931 1.350 . S
C3937 H3924 0.929 . S
C3937 C3929 1.433 . S
C3937 N3939 1.384 . S
N3938 C3934 1.427 . S
N3938 C3935 1.384 . S
N3939 C3931 1.427 . S
N3939 C3937 1.384 . S
H3940 C3946 0.930 . S
H3941 C3950 0.930 . S
H3942 C3955 0.929 . S
H3943 C3953 0.929 . S
H3944 C3948 0.929 . S
H3945 C3954 0.929 . S
C3946 H3940 0.930 . S
C3946 C3947 1.367 . S
C3946 C3954 1.378 . S
C3947 C3946 1.367 . S
C3947 C3955 1.433 . S
C3948 H3944 0.929 . S
C3948 C3950 1.378 . S
C3948 C3952 1.350 . S
C3949 C3952 1.463 . S
C3949 C3954 1.350 . S
C3949 N3957 1.427 . S
C3950 H3941 0.930 . S
C3950 C3948 1.378 . S
C3950 C3951 1.367 . S
C3951 C3950 1.367 . S
C3951 C3953 1.433 . S
C3952 C3948 1.350 . S
C3952 C3949 1.463 . S
C3952 N3956 1.427 . S
C3953 H3943 0.929 . S
C3953 C3951 1.433 . S
C3953 N3956 1.384 . S
C3954 H3945 0.929 . S
C3954 C3946 1.378 . S
C3954 C3949 1.350 . S
C3955 H3942 0.929 . S
C3955 C3947 1.433 . S
C3955 N3957 1.384 . S
N3956 C3952 1.427 . S
N3956 C3953 1.384 . S
N3957 C3949 1.427 . S
N3957 C3955 1.384 . S
H3958 C3964 0.930 . S
H3959 C3968 0.930 . S
H3960 C3973 0.937 1_556 S
H3961 C3971 0.929 . S
H3962 C3966 0.929 . S
H3963 C3972 0.929 . S
C3964 H3958 0.930 . S
C3964 C3965 1.367 . S
C3964 C3972 1.378 . S
C3965 C3964 1.367 . S
C3965 C3973 1.427 1_565 S
C3966 H3962 0.929 . S
C3966 C3968 1.378 . S
C3966 C3970 1.350 1_556 S
C3967 C3970 1.462 . S
C3967 C3972 1.349 1_545 S
C3967 N3975 1.429 . S
C3968 H3959 0.930 . S
C3968 C3966 1.378 . S
C3968 C3969 1.367 1_556 S
C3969 C3968 1.367 1_554 S
C3969 C3971 1.433 . S
C3970 C3966 1.350 1_554 S
C3970 C3967 1.462 . S
C3970 N3974 1.437 . S
C3971 H3961 0.929 . S
C3971 C3969 1.433 . S
C3971 N3974 1.383 . S
C3972 H3963 0.929 . S
C3972 C3964 1.378 . S
C3972 C3967 1.349 1_565 S
C3973 H3960 0.937 1_554 S
C3973 C3965 1.427 1_545 S
C3973 N3975 1.383 . S
N3974 C3970 1.437 . S
N3974 C3971 1.383 . S
N3975 C3967 1.429 . S
N3975 C3973 1.383 . S
H3976 C3982 0.930 . S
H3977 C3986 0.930 . S
H3978 C3991 0.929 . S
H3979 C3989 0.929 . S
H3980 C3984 0.929 . S
H3981 C3990 0.929 . S
C3982 H3976 0.930 . S
C3982 C3983 1.367 . S
C3982 C3990 1.378 . S
C3983 C3982 1.367 . S
C3983 C3991 1.433 . S
C3984 H3980 0.929 . S
C3984 C3986 1.378 . S
C3984 C3988 1.350 . S
C3985 C3988 1.463 . S
C3985 C3990 1.350 . S
C3985 N3993 1.427 . S
C3986 H3977 0.930 . S
C3986 C3984 1.378 . S
C3986 C3987 1.367 . S
C3987 C3986 1.367 . S
C3987 C3989 1.433 . S
C3988 C3984 1.350 . S
C3988 C3985 1.463 . S
C3988 N3992 1.427 . S
C3989 H3979 0.929 . S
C3989 C3987 1.433 . S
C3989 N3992 1.384 . S
C3990 H3981 0.929 . S
C3990 C3982 1.378 . S
C3990 C3985 1.350 . S
C3991 H3978 0.929 . S
C3991 C3983 1.433 . S
C3991 N3993 1.384 . S
N3992 C3988 1.427 . S
N3992 C3989 1.384 . S
N3993 C3985 1.427 . S
N3993 C3991 1.384 . S
H3994 C4000 0.930 . S
H3995 C4004 0.930 . S
H3996 C4009 0.929 . S
H3997 C4007 0.929 . S
H3998 C4002 0.929 . S
H3999 C4008 0.929 . S
C4000 H3994 0.930 . S
C4000 C4001 1.367 1_556 S
C4000 C4008 1.378 . S
C4001 C4000 1.367 1_554 S
C4001 C4009 1.433 . S
C4002 H3998 0.929 . S
C4002 C4004 1.378 . S
C4002 C4006 1.350 . S
C4003 C4006 1.463 . S
C4003 C4008 1.350 1_554 S
C4003 N4011 1.427 . S
C4004 H3995 0.930 . S
C4004 C4002 1.378 . S
C4004 C4005 1.367 . S
C4005 C4004 1.367 . S
C4005 C4007 1.433 . S
C4006 C4002 1.350 . S
C4006 C4003 1.463 . S
C4006 N4010 1.427 . S
C4007 H3997 0.929 . S
C4007 C4005 1.433 . S
C4007 N4010 1.384 . S
C4008 H3999 0.929 . S
C4008 C4000 1.378 . S
C4008 C4003 1.350 1_556 S
C4009 H3996 0.929 . S
C4009 C4001 1.433 . S
C4009 N4011 1.384 . S
N4010 C4006 1.427 . S
N4010 C4007 1.384 . S
N4011 C4003 1.427 . S
N4011 C4009 1.384 . S
H4012 C4018 0.930 . S
H4013 C4022 0.930 . S
H4014 C4027 0.929 . S
H4015 C4025 0.929 . S
H4016 C4020 0.929 . S
H4017 C4026 0.929 . S
C4018 H4012 0.930 . S
C4018 C4019 1.367 . S
C4018 C4026 1.378 . S
C4019 C4018 1.367 . S
C4019 C4027 1.433 . S
C4020 H4016 0.929 . S
C4020 C4022 1.378 . S
C4020 C4024 1.350 . S
C4021 C4024 1.463 . S
C4021 C4026 1.350 . S
C4021 N4029 1.427 . S
C4022 H4013 0.930 . S
C4022 C4020 1.378 . S
C4022 C4023 1.367 . S
C4023 C4022 1.367 . S
C4023 C4025 1.433 . S
C4024 C4020 1.350 . S
C4024 C4021 1.463 . S
C4024 N4028 1.427 . S
C4025 H4015 0.929 . S
C4025 C4023 1.433 . S
C4025 N4028 1.384 . S
C4026 H4017 0.929 . S
C4026 C4018 1.378 . S
C4026 C4021 1.350 . S
C4027 H4014 0.929 . S
C4027 C4019 1.433 . S
C4027 N4029 1.384 . S
N4028 C4024 1.427 . S
N4028 C4025 1.384 . S
N4029 C4021 1.427 . S
N4029 C4027 1.384 . S
H4030 C4036 0.930 . S
H4031 C4040 0.930 . S
H4032 C4045 0.929 . S
H4033 C4043 0.929 . S
H4034 C4038 0.929 . S
H4035 C4044 0.929 . S
C4036 H4030 0.930 . S
C4036 C4037 1.367 . S
C4036 C4044 1.378 . S
C4037 C4036 1.367 . S
C4037 C4045 1.433 . S
C4038 H4034 0.929 . S
C4038 C4040 1.378 . S
C4038 C4042 1.350 . S
C4039 C4042 1.463 . S
C4039 C4044 1.350 . S
C4039 N4047 1.427 . S
C4040 H4031 0.930 . S
C4040 C4038 1.378 . S
C4040 C4041 1.367 . S
C4041 C4040 1.367 . S
C4041 C4043 1.433 . S
C4042 C4038 1.350 . S
C4042 C4039 1.463 . S
C4042 N4046 1.427 . S
C4043 H4033 0.929 . S
C4043 C4041 1.433 . S
C4043 N4046 1.384 . S
C4044 H4035 0.929 . S
C4044 C4036 1.378 . S
C4044 C4039 1.350 . S
C4045 H4032 0.929 . S
C4045 C4037 1.433 . S
C4045 N4047 1.384 . S
N4046 C4042 1.427 . S
N4046 C4043 1.384 . S
N4047 C4039 1.427 . S
N4047 C4045 1.384 . S
H4048 C4054 0.930 . S
H4049 C4058 0.930 . S
H4050 C4063 0.929 . S
H4051 C4061 0.929 . S
H4052 C4056 0.929 . S
H4053 C4062 0.929 . S
C4054 H4048 0.930 . S
C4054 C4055 1.367 . S
C4054 C4062 1.378 . S
C4055 C4054 1.367 . S
C4055 C4063 1.433 . S
C4056 H4052 0.929 . S
C4056 C4058 1.378 . S
C4056 C4060 1.350 . S
C4057 C4060 1.463 . S
C4057 C4062 1.350 . S
C4057 N4065 1.427 . S
C4058 H4049 0.930 . S
C4058 C4056 1.378 . S
C4058 C4059 1.367 . S
C4059 C4058 1.367 . S
C4059 C4061 1.433 . S
C4060 C4056 1.350 . S
C4060 C4057 1.463 . S
C4060 N4064 1.427 . S
C4061 H4051 0.929 . S
C4061 C4059 1.433 . S
C4061 N4064 1.384 . S
C4062 H4053 0.929 . S
C4062 C4054 1.378 . S
C4062 C4057 1.350 . S
C4063 H4050 0.929 . S
C4063 C4055 1.433 . S
C4063 N4065 1.384 . S
N4064 C4060 1.427 . S
N4064 C4061 1.384 . S
N4065 C4057 1.427 . S
N4065 C4063 1.384 . S
H4066 C4072 0.930 . S
H4067 C4076 0.930 . S
H4068 C4081 0.929 . S
H4069 C4079 0.929 . S
H4070 C4074 0.929 . S
H4071 C4080 0.929 . S
C4072 H4066 0.930 . S
C4072 C4073 1.367 . S
C4072 C4080 1.378 . S
C4073 C4072 1.367 . S
C4073 C4081 1.433 . S
C4074 H4070 0.929 . S
C4074 C4076 1.378 . S
C4074 C4078 1.350 . S
C4075 C4078 1.463 . S
C4075 C4080 1.350 . S
C4075 N4083 1.427 . S
C4076 H4067 0.930 . S
C4076 C4074 1.378 . S
C4076 C4077 1.367 . S
C4077 C4076 1.367 . S
C4077 C4079 1.433 . S
C4078 C4074 1.350 . S
C4078 C4075 1.463 . S
C4078 N4082 1.427 . S
C4079 H4069 0.929 . S
C4079 C4077 1.433 . S
C4079 N4082 1.384 . S
C4080 H4071 0.929 . S
C4080 C4072 1.378 . S
C4080 C4075 1.350 . S
C4081 H4068 0.929 . S
C4081 C4073 1.433 . S
C4081 N4083 1.384 . S
N4082 C4078 1.427 . S
N4082 C4079 1.384 . S
N4083 C4075 1.427 . S
N4083 C4081 1.384 . S
H4084 C4090 0.930 . S
H4085 C4094 0.930 1_556 S
H4086 C4099 0.929 . S
H4087 C4097 0.929 . S
H4088 C4092 0.929 . S
H4089 C4098 0.929 . S
C4090 H4084 0.930 . S
C4090 C4091 1.367 . S
C4090 C4098 1.378 . S
C4091 C4090 1.367 . S
C4091 C4099 1.433 . S
C4092 H4088 0.929 . S
C4092 C4094 1.378 . S
C4092 C4096 1.350 . S
C4093 C4096 1.463 . S
C4093 C4098 1.350 . S
C4093 N4101 1.427 . S
C4094 H4085 0.930 1_554 S
C4094 C4092 1.378 . S
C4094 C4095 1.367 . S
C4095 C4094 1.367 . S
C4095 C4097 1.433 . S
C4096 C4092 1.350 . S
C4096 C4093 1.463 . S
C4096 N4100 1.427 . S
C4097 H4087 0.929 . S
C4097 C4095 1.433 . S
C4097 N4100 1.384 . S
C4098 H4089 0.929 . S
C4098 C4090 1.378 . S
C4098 C4093 1.350 . S
C4099 H4086 0.929 . S
C4099 C4091 1.433 . S
C4099 N4101 1.384 . S
N4100 C4096 1.427 . S
N4100 C4097 1.384 . S
N4101 C4093 1.427 . S
N4101 C4099 1.384 . S
H4102 C4108 0.930 . S
H4103 C4112 0.930 . S
H4104 C4117 0.929 . S
H4105 C4115 0.929 . S
H4106 C4110 0.929 . S
H4107 C4116 0.929 . S
C4108 H4102 0.930 . S
C4108 C4109 1.367 . S
C4108 C4116 1.378 . S
C4109 C4108 1.367 . S
C4109 C4117 1.433 . S
C4110 H4106 0.929 . S
C4110 C4112 1.378 . S
C4110 C4114 1.350 . S
C4111 C4114 1.463 . S
C4111 C4116 1.350 . S
C4111 N4119 1.427 . S
C4112 H4103 0.930 . S
C4112 C4110 1.378 . S
C4112 C4113 1.367 . S
C4113 C4112 1.367 . S
C4113 C4115 1.433 . S
C4114 C4110 1.350 . S
C4114 C4111 1.463 . S
C4114 N4118 1.427 . S
C4115 H4105 0.929 . S
C4115 C4113 1.433 . S
C4115 N4118 1.384 . S
C4116 H4107 0.929 . S
C4116 C4108 1.378 . S
C4116 C4111 1.350 . S
C4117 H4104 0.929 . S
C4117 C4109 1.433 . S
C4117 N4119 1.384 . S
N4118 C4114 1.427 . S
N4118 C4115 1.384 . S
N4119 C4111 1.427 . S
N4119 C4117 1.384 . S
H4120 C4126 0.930 . S
H4121 C4130 0.930 . S
H4122 C4135 0.929 . S
H4123 C4133 0.929 . S
H4124 C4128 0.929 . S
H4125 C4134 0.929 . S
C4126 H4120 0.930 . S
C4126 C4127 1.367 . S
C4126 C4134 1.378 . S
C4127 C4126 1.367 . S
C4127 C4135 1.433 . S
C4128 H4124 0.929 . S
C4128 C4130 1.378 . S
C4128 C4132 1.350 . S
C4129 C4132 1.463 . S
C4129 C4134 1.350 . S
C4129 N4137 1.427 . S
C4130 H4121 0.930 . S
C4130 C4128 1.378 . S
C4130 C4131 1.367 . S
C4131 C4130 1.367 . S
C4131 C4133 1.433 . S
C4132 C4128 1.350 . S
C4132 C4129 1.463 . S
C4132 N4136 1.427 . S
C4133 H4123 0.929 . S
C4133 C4131 1.433 . S
C4133 N4136 1.384 . S
C4134 H4125 0.929 . S
C4134 C4126 1.378 . S
C4134 C4129 1.350 . S
C4135 H4122 0.929 . S
C4135 C4127 1.433 . S
C4135 N4137 1.384 . S
N4136 C4132 1.427 . S
N4136 C4133 1.384 . S
N4137 C4129 1.427 . S
N4137 C4135 1.384 . S
H4138 C4144 0.930 . S
H4139 C4148 0.930 . S
H4140 C4153 0.929 . S
H4141 C4151 0.929 . S
H4142 C4146 0.929 . S
H4143 C4152 0.929 . S
C4144 H4138 0.930 . S
C4144 C4145 1.367 . S
C4144 C4152 1.378 . S
C4145 C4144 1.367 . S
C4145 C4153 1.433 . S
C4146 H4142 0.929 . S
C4146 C4148 1.378 . S
C4146 C4150 1.350 . S
C4147 C4150 1.463 . S
C4147 C4152 1.350 . S
C4147 N4155 1.427 . S
C4148 H4139 0.930 . S
C4148 C4146 1.378 . S
C4148 C4149 1.367 . S
C4149 C4148 1.367 . S
C4149 C4151 1.433 . S
C4150 C4146 1.350 . S
C4150 C4147 1.463 . S
C4150 N4154 1.427 . S
C4151 H4141 0.929 . S
C4151 C4149 1.433 . S
C4151 N4154 1.384 . S
C4152 H4143 0.929 . S
C4152 C4144 1.378 . S
C4152 C4147 1.350 . S
C4153 H4140 0.929 . S
C4153 C4145 1.433 . S
C4153 N4155 1.384 . S
N4154 C4150 1.427 . S
N4154 C4151 1.384 . S
N4155 C4147 1.427 . S
N4155 C4153 1.384 . S
H4156 C4162 0.930 . S
H4157 C4166 0.930 . S
H4158 C4171 0.929 . S
H4159 C4169 0.929 . S
H4160 C4164 0.929 . S
H4161 C4170 0.929 . S
C4162 H4156 0.930 . S
C4162 C4163 1.367 . S
C4162 C4170 1.378 . S
C4163 C4162 1.367 . S
C4163 C4171 1.433 . S
C4164 H4160 0.929 . S
C4164 C4166 1.378 . S
C4164 C4168 1.350 . S
C4165 C4168 1.463 . S
C4165 C4170 1.350 . S
C4165 N4173 1.427 . S
C4166 H4157 0.930 . S
C4166 C4164 1.378 . S
C4166 C4167 1.367 . S
C4167 C4166 1.367 . S
C4167 C4169 1.433 . S
C4168 C4164 1.350 . S
C4168 C4165 1.463 . S
C4168 N4172 1.427 . S
C4169 H4159 0.929 . S
C4169 C4167 1.433 . S
C4169 N4172 1.384 . S
C4170 H4161 0.929 . S
C4170 C4162 1.378 . S
C4170 C4165 1.350 . S
C4171 H4158 0.929 . S
C4171 C4163 1.433 . S
C4171 N4173 1.384 . S
N4172 C4168 1.427 . S
N4172 C4169 1.384 . S
N4173 C4165 1.427 . S
N4173 C4171 1.384 . S
H4174 C4180 0.930 . S
H4175 C4184 0.930 . S
H4176 C4189 0.929 . S
H4177 C4187 0.929 . S
H4178 C4182 0.929 . S
H4179 C4188 0.929 . S
C4180 H4174 0.930 . S
C4180 C4181 1.367 . S
C4180 C4188 1.378 . S
C4181 C4180 1.367 . S
C4181 C4189 1.433 . S
C4182 H4178 0.929 . S
C4182 C4184 1.378 . S
C4182 C4186 1.350 . S
C4183 C4186 1.463 . S
C4183 C4188 1.350 . S
C4183 N4191 1.427 . S
C4184 H4175 0.930 . S
C4184 C4182 1.378 . S
C4184 C4185 1.367 . S
C4185 C4184 1.367 . S
C4185 C4187 1.433 . S
C4186 C4182 1.350 . S
C4186 C4183 1.463 . S
C4186 N4190 1.427 . S
C4187 H4177 0.929 . S
C4187 C4185 1.433 . S
C4187 N4190 1.384 . S
C4188 H4179 0.929 . S
C4188 C4180 1.378 . S
C4188 C4183 1.350 . S
C4189 H4176 0.929 . S
C4189 C4181 1.433 . S
C4189 N4191 1.384 . S
N4190 C4186 1.427 . S
N4190 C4187 1.384 . S
N4191 C4183 1.427 . S
N4191 C4189 1.384 . S
H4192 C4198 0.930 . S
H4193 C4202 0.930 . S
H4194 C4207 0.929 . S
H4195 C4205 0.929 . S
H4196 C4200 0.929 . S
H4197 C4206 0.929 . S
C4198 H4192 0.930 . S
C4198 C4199 1.367 . S
C4198 C4206 1.378 . S
C4199 C4198 1.367 . S
C4199 C4207 1.433 . S
C4200 H4196 0.929 . S
C4200 C4202 1.378 . S
C4200 C4204 1.350 . S
C4201 C4204 1.463 . S
C4201 C4206 1.350 . S
C4201 N4209 1.427 . S
C4202 H4193 0.930 . S
C4202 C4200 1.378 . S
C4202 C4203 1.367 . S
C4203 C4202 1.367 . S
C4203 C4205 1.433 . S
C4204 C4200 1.350 . S
C4204 C4201 1.463 . S
C4204 N4208 1.427 . S
C4205 H4195 0.929 . S
C4205 C4203 1.433 . S
C4205 N4208 1.384 . S
C4206 H4197 0.929 . S
C4206 C4198 1.378 . S
C4206 C4201 1.350 . S
C4207 H4194 0.929 . S
C4207 C4199 1.433 . S
C4207 N4209 1.384 . S
N4208 C4204 1.427 . S
N4208 C4205 1.384 . S
N4209 C4201 1.427 . S
N4209 C4207 1.384 . S
H4210 C4216 0.930 . S
H4211 C4220 0.930 . S
H4212 C4225 0.929 . S
H4213 C4223 0.929 . S
H4214 C4218 0.929 . S
H4215 C4224 0.929 . S
C4216 H4210 0.930 . S
C4216 C4217 1.367 . S
C4216 C4224 1.378 . S
C4217 C4216 1.367 . S
C4217 C4225 1.433 . S
C4218 H4214 0.929 . S
C4218 C4220 1.378 . S
C4218 C4222 1.350 . S
C4219 C4222 1.463 . S
C4219 C4224 1.350 . S
C4219 N4227 1.427 . S
C4220 H4211 0.930 . S
C4220 C4218 1.378 . S
C4220 C4221 1.367 . S
C4221 C4220 1.367 . S
C4221 C4223 1.433 . S
C4222 C4218 1.350 . S
C4222 C4219 1.463 . S
C4222 N4226 1.427 . S
C4223 H4213 0.929 . S
C4223 C4221 1.433 . S
C4223 N4226 1.384 . S
C4224 H4215 0.929 . S
C4224 C4216 1.378 . S
C4224 C4219 1.350 . S
C4225 H4212 0.929 . S
C4225 C4217 1.433 . S
C4225 N4227 1.384 . S
N4226 C4222 1.427 . S
N4226 C4223 1.384 . S
N4227 C4219 1.427 . S
N4227 C4225 1.384 . S
H4228 C4234 0.930 . S
H4229 C4238 0.930 . S
H4230 C4243 0.929 . S
H4231 C4241 0.929 . S
H4232 C4236 0.928 1_655 S
H4233 C4242 0.928 1_455 S
C4234 H4228 0.930 . S
C4234 C4235 1.367 . S
C4234 C4242 1.378 . S
C4235 C4234 1.367 . S
C4235 C4243 1.433 . S
C4236 H4232 0.928 1_455 S
C4236 C4238 1.378 . S
C4236 C4240 1.350 . S
C4237 C4240 1.463 1_655 S
C4237 C4242 1.350 . S
C4237 N4245 1.427 . S
C4238 H4229 0.930 . S
C4238 C4236 1.378 . S
C4238 C4239 1.367 . S
C4239 C4238 1.367 . S
C4239 C4241 1.433 . S
C4240 C4236 1.350 . S
C4240 C4237 1.463 1_455 S
C4240 N4244 1.427 . S
C4241 H4231 0.929 . S
C4241 C4239 1.433 . S
C4241 N4244 1.384 . S
C4242 H4233 0.928 1_655 S
C4242 C4234 1.378 . S
C4242 C4237 1.350 . S
C4243 H4230 0.929 . S
C4243 C4235 1.433 . S
C4243 N4245 1.384 . S
N4244 C4240 1.427 . S
N4244 C4241 1.384 . S
N4245 C4237 1.427 . S
N4245 C4243 1.384 . S
H4246 C4252 0.930 . S
H4247 C4256 0.930 . S
H4248 C4261 0.929 . S
H4249 C4259 0.929 . S
H4250 C4254 0.929 . S
H4251 C4260 0.929 . S
C4252 H4246 0.930 . S
C4252 C4253 1.367 . S
C4252 C4260 1.378 . S
C4253 C4252 1.367 . S
C4253 C4261 1.433 . S
C4254 H4250 0.929 . S
C4254 C4256 1.378 . S
C4254 C4258 1.350 . S
C4255 C4258 1.463 . S
C4255 C4260 1.350 . S
C4255 N4263 1.427 . S
C4256 H4247 0.930 . S
C4256 C4254 1.378 . S
C4256 C4257 1.367 . S
C4257 C4256 1.367 . S
C4257 C4259 1.433 . S
C4258 C4254 1.350 . S
C4258 C4255 1.463 . S
C4258 N4262 1.427 . S
C4259 H4249 0.929 . S
C4259 C4257 1.433 . S
C4259 N4262 1.384 . S
C4260 H4251 0.929 . S
C4260 C4252 1.378 . S
C4260 C4255 1.350 . S
C4261 H4248 0.929 . S
C4261 C4253 1.433 . S
C4261 N4263 1.384 . S
N4262 C4258 1.427 . S
N4262 C4259 1.384 . S
N4263 C4255 1.427 . S
N4263 C4261 1.384 . S
H4264 C4270 0.930 . S
H4265 C4274 0.930 . S
H4266 C4279 0.929 . S
H4267 C4277 0.929 . S
H4268 C4272 0.929 . S
H4269 C4278 0.929 . S
C4270 H4264 0.930 . S
C4270 C4271 1.367 . S
C4270 C4278 1.378 . S
C4271 C4270 1.367 . S
C4271 C4279 1.433 . S
C4272 H4268 0.929 . S
C4272 C4274 1.378 . S
C4272 C4276 1.350 . S
C4273 C4276 1.463 . S
C4273 C4278 1.350 . S
C4273 N4281 1.427 . S
C4274 H4265 0.930 . S
C4274 C4272 1.378 . S
C4274 C4275 1.367 . S
C4275 C4274 1.367 . S
C4275 C4277 1.433 . S
C4276 C4272 1.350 . S
C4276 C4273 1.463 . S
C4276 N4280 1.427 . S
C4277 H4267 0.929 . S
C4277 C4275 1.433 . S
C4277 N4280 1.384 . S
C4278 H4269 0.929 . S
C4278 C4270 1.378 . S
C4278 C4273 1.350 . S
C4279 H4266 0.929 . S
C4279 C4271 1.433 . S
C4279 N4281 1.384 . S
N4280 C4276 1.427 . S
N4280 C4277 1.384 . S
N4281 C4273 1.427 . S
N4281 C4279 1.384 . S
H4282 C4288 0.930 . S
H4283 C4292 0.930 . S
H4284 C4297 0.929 . S
H4285 C4295 0.929 . S
H4286 C4290 0.929 . S
H4287 C4296 0.929 . S
C4288 H4282 0.930 . S
C4288 C4289 1.367 . S
C4288 C4296 1.378 . S
C4289 C4288 1.367 . S
C4289 C4297 1.433 . S
C4290 H4286 0.929 . S
C4290 C4292 1.378 . S
C4290 C4294 1.350 . S
C4291 C4294 1.463 . S
C4291 C4296 1.350 . S
C4291 N4299 1.427 . S
C4292 H4283 0.930 . S
C4292 C4290 1.378 . S
C4292 C4293 1.367 . S
C4293 C4292 1.367 . S
C4293 C4295 1.433 . S
C4294 C4290 1.350 . S
C4294 C4291 1.463 . S
C4294 N4298 1.427 . S
C4295 H4285 0.929 . S
C4295 C4293 1.433 . S
C4295 N4298 1.384 . S
C4296 H4287 0.929 . S
C4296 C4288 1.378 . S
C4296 C4291 1.350 . S
C4297 H4284 0.929 . S
C4297 C4289 1.433 . S
C4297 N4299 1.384 . S
N4298 C4294 1.427 . S
N4298 C4295 1.384 . S
N4299 C4291 1.427 . S
N4299 C4297 1.384 . S
H4300 C4306 0.930 . S
H4301 C4310 0.930 . S
H4302 C4315 0.929 . S
H4303 C4313 0.929 . S
H4304 C4308 0.929 . S
H4305 C4314 0.929 . S
C4306 H4300 0.930 . S
C4306 C4307 1.367 . S
C4306 C4314 1.378 . S
C4307 C4306 1.367 . S
C4307 C4315 1.433 . S
C4308 H4304 0.929 . S
C4308 C4310 1.378 . S
C4308 C4312 1.350 . S
C4309 C4312 1.463 . S
C4309 C4314 1.350 . S
C4309 N4317 1.427 . S
C4310 H4301 0.930 . S
C4310 C4308 1.378 . S
C4310 C4311 1.367 . S
C4311 C4310 1.367 . S
C4311 C4313 1.433 . S
C4312 C4308 1.350 . S
C4312 C4309 1.463 . S
C4312 N4316 1.427 . S
C4313 H4303 0.929 . S
C4313 C4311 1.433 . S
C4313 N4316 1.384 . S
C4314 H4305 0.929 . S
C4314 C4306 1.378 . S
C4314 C4309 1.350 . S
C4315 H4302 0.929 . S
C4315 C4307 1.433 . S
C4315 N4317 1.384 . S
N4316 C4312 1.427 . S
N4316 C4313 1.384 . S
N4317 C4309 1.427 . S
N4317 C4315 1.384 . S
H4318 C4324 0.930 . S
H4319 C4328 0.930 . S
H4320 C4333 0.929 . S
H4321 C4331 0.929 . S
H4322 C4326 0.929 . S
H4323 C4332 0.929 . S
C4324 H4318 0.930 . S
C4324 C4325 1.367 . S
C4324 C4332 1.378 . S
C4325 C4324 1.367 . S
C4325 C4333 1.433 . S
C4326 H4322 0.929 . S
C4326 C4328 1.378 . S
C4326 C4330 1.350 . S
C4327 C4330 1.463 . S
C4327 C4332 1.350 . S
C4327 N4335 1.427 . S
C4328 H4319 0.930 . S
C4328 C4326 1.378 . S
C4328 C4329 1.367 . S
C4329 C4328 1.367 . S
C4329 C4331 1.433 . S
C4330 C4326 1.350 . S
C4330 C4327 1.463 . S
C4330 N4334 1.427 . S
C4331 H4321 0.929 . S
C4331 C4329 1.433 . S
C4331 N4334 1.384 . S
C4332 H4323 0.929 . S
C4332 C4324 1.378 . S
C4332 C4327 1.350 . S
C4333 H4320 0.929 . S
C4333 C4325 1.433 . S
C4333 N4335 1.384 . S
N4334 C4330 1.427 . S
N4334 C4331 1.384 . S
N4335 C4327 1.427 . S
N4335 C4333 1.384 . S
H4336 C4342 0.930 . S
H4337 C4346 0.930 . S
H4338 C4351 0.929 . S
H4339 C4349 0.929 . S
H4340 C4344 0.929 . S
H4341 C4350 0.929 . S
C4342 H4336 0.930 . S
C4342 C4343 1.367 . S
C4342 C4350 1.378 . S
C4343 C4342 1.367 . S
C4343 C4351 1.433 . S
C4344 H4340 0.929 . S
C4344 C4346 1.378 . S
C4344 C4348 1.350 . S
C4345 C4348 1.463 . S
C4345 C4350 1.350 . S
C4345 N4353 1.427 . S
C4346 H4337 0.930 . S
C4346 C4344 1.378 . S
C4346 C4347 1.367 . S
C4347 C4346 1.367 . S
C4347 C4349 1.433 . S
C4348 C4344 1.350 . S
C4348 C4345 1.463 . S
C4348 N4352 1.427 . S
C4349 H4339 0.929 . S
C4349 C4347 1.433 . S
C4349 N4352 1.384 . S
C4350 H4341 0.929 . S
C4350 C4342 1.378 . S
C4350 C4345 1.350 . S
C4351 H4338 0.929 . S
C4351 C4343 1.433 . S
C4351 N4353 1.384 . S
N4352 C4348 1.427 . S
N4352 C4349 1.384 . S
N4353 C4345 1.427 . S
N4353 C4351 1.384 . S
H4354 C4360 0.930 . S
H4355 C4364 0.930 1_545 S
H4356 C4369 0.929 . S
H4357 C4367 0.929 . S
H4358 C4362 0.929 . S
H4359 C4368 0.929 . S
C4360 H4354 0.930 . S
C4360 C4361 1.367 . S
C4360 C4368 1.378 . S
C4361 C4360 1.367 . S
C4361 C4369 1.433 . S
C4362 H4358 0.929 . S
C4362 C4364 1.378 . S
C4362 C4366 1.350 . S
C4363 C4366 1.463 . S
C4363 C4368 1.350 . S
C4363 N4371 1.427 . S
C4364 H4355 0.930 1_565 S
C4364 C4362 1.378 . S
C4364 C4365 1.377 . S
C4365 C4364 1.377 . S
C4365 C4367 1.440 . S
C4366 C4362 1.350 . S
C4366 C4363 1.463 . S
C4366 N4370 1.427 . S
C4367 H4357 0.929 . S
C4367 C4365 1.440 . S
C4367 N4370 1.384 . S
C4368 H4359 0.929 . S
C4368 C4360 1.378 . S
C4368 C4363 1.350 . S
C4369 H4356 0.929 . S
C4369 C4361 1.433 . S
C4369 N4371 1.384 . S
N4370 C4366 1.427 . S
N4370 C4367 1.384 . S
N4371 C4363 1.427 . S
N4371 C4369 1.384 . S
H4372 C4378 0.930 . S
H4373 C4382 0.930 . S
H4374 C4387 0.929 . S
H4375 C4385 0.929 . S
H4376 C4380 0.929 . S
H4377 C4386 0.929 . S
C4378 H4372 0.930 . S
C4378 C4379 1.367 . S
C4378 C4386 1.378 . S
C4379 C4378 1.367 . S
C4379 C4387 1.433 . S
C4380 H4376 0.929 . S
C4380 C4382 1.378 . S
C4380 C4384 1.350 . S
C4381 C4384 1.463 . S
C4381 C4386 1.350 . S
C4381 N4389 1.427 . S
C4382 H4373 0.930 . S
C4382 C4380 1.378 . S
C4382 C4383 1.367 . S
C4383 C4382 1.367 . S
C4383 C4385 1.433 . S
C4384 C4380 1.350 . S
C4384 C4381 1.463 . S
C4384 N4388 1.427 . S
C4385 H4375 0.929 . S
C4385 C4383 1.433 . S
C4385 N4388 1.384 . S
C4386 H4377 0.929 . S
C4386 C4378 1.378 . S
C4386 C4381 1.350 . S
C4387 H4374 0.929 . S
C4387 C4379 1.433 . S
C4387 N4389 1.384 . S
N4388 C4384 1.427 . S
N4388 C4385 1.384 . S
N4389 C4381 1.427 . S
N4389 C4387 1.384 . S
H4390 C4396 0.930 . S
H4391 C4400 0.930 1_556 S
H4392 C4405 0.929 . S
H4393 C4403 0.929 . S
H4394 C4398 0.925 1_556 S
H4395 C4404 0.929 . S
C4396 H4390 0.930 . S
C4396 C4397 1.367 . S
C4396 C4404 1.378 . S
C4397 C4396 1.367 . S
C4397 C4405 1.433 1_554 S
C4398 H4394 0.925 1_554 S
C4398 C4400 1.381 . S
C4398 C4402 1.351 . S
C4399 C4402 1.463 . S
C4399 C4404 1.350 . S
C4399 N4407 1.427 1_554 S
C4400 H4391 0.930 1_554 S
C4400 C4398 1.381 . S
C4400 C4401 1.367 . S
C4401 C4400 1.367 . S
C4401 C4403 1.433 . S
C4402 C4398 1.351 . S
C4402 C4399 1.463 . S
C4402 N4406 1.427 . S
C4403 H4393 0.929 . S
C4403 C4401 1.433 . S
C4403 N4406 1.384 . S
C4404 H4395 0.929 . S
C4404 C4396 1.378 . S
C4404 C4399 1.350 . S
C4405 H4392 0.929 . S
C4405 C4397 1.433 1_556 S
C4405 N4407 1.384 . S
N4406 C4402 1.427 . S
N4406 C4403 1.384 . S
N4407 C4399 1.427 1_556 S
N4407 C4405 1.384 . S
H4408 C4414 0.930 . S
H4409 C4418 0.930 . S
H4410 C4423 0.929 . S
H4411 C4421 0.929 . S
H4412 C4416 0.929 . S
H4413 C4422 0.929 . S
C4414 H4408 0.930 . S
C4414 C4415 1.367 . S
C4414 C4422 1.378 . S
C4415 C4414 1.367 . S
C4415 C4423 1.433 . S
C4416 H4412 0.929 . S
C4416 C4418 1.378 . S
C4416 C4420 1.350 . S
C4417 C4420 1.463 . S
C4417 C4422 1.350 . S
C4417 N4425 1.427 . S
C4418 H4409 0.930 . S
C4418 C4416 1.378 . S
C4418 C4419 1.367 . S
C4419 C4418 1.367 . S
C4419 C4421 1.433 . S
C4420 C4416 1.350 . S
C4420 C4417 1.463 . S
C4420 N4424 1.427 . S
C4421 H4411 0.929 . S
C4421 C4419 1.433 . S
C4421 N4424 1.384 . S
C4422 H4413 0.929 . S
C4422 C4414 1.378 . S
C4422 C4417 1.350 . S
C4423 H4410 0.929 . S
C4423 C4415 1.433 . S
C4423 N4425 1.384 . S
N4424 C4420 1.427 . S
N4424 C4421 1.384 . S
N4425 C4417 1.427 . S
N4425 C4423 1.384 . S
H4426 C4432 0.930 . S
H4427 C4436 0.930 . S
H4428 C4441 0.929 . S
H4429 C4439 0.929 . S
H4430 C4434 0.929 . S
H4431 C4440 0.929 . S
C4432 H4426 0.930 . S
C4432 C4433 1.367 1_556 S
C4432 C4440 1.378 . S
C4433 C4432 1.367 1_554 S
C4433 C4441 1.433 . S
C4434 H4430 0.929 . S
C4434 C4436 1.378 . S
C4434 C4438 1.350 1_554 S
C4435 C4438 1.463 1_554 S
C4435 C4440 1.350 1_554 S
C4435 N4443 1.427 . S
C4436 H4427 0.930 . S
C4436 C4434 1.378 . S
C4436 C4437 1.367 1_554 S
C4437 C4436 1.367 1_556 S
C4437 C4439 1.433 . S
C4438 C4434 1.350 1_556 S
C4438 C4435 1.463 1_556 S
C4438 N4442 1.427 . S
C4439 H4429 0.929 . S
C4439 C4437 1.433 . S
C4439 N4442 1.384 . S
C4440 H4431 0.929 . S
C4440 C4432 1.378 . S
C4440 C4435 1.350 1_556 S
C4441 H4428 0.929 . S
C4441 C4433 1.433 . S
C4441 N4443 1.384 . S
N4442 C4438 1.427 . S
N4442 C4439 1.384 . S
N4443 C4435 1.427 . S
N4443 C4441 1.384 . S
H4444 C4450 0.930 . S
H4445 C4454 0.930 . S
H4446 C4459 0.929 . S
H4447 C4457 0.929 . S
H4448 C4452 0.929 . S
H4449 C4458 0.929 . S
C4450 H4444 0.930 . S
C4450 C4451 1.367 . S
C4450 C4458 1.378 . S
C4451 C4450 1.367 . S
C4451 C4459 1.433 . S
C4452 H4448 0.929 . S
C4452 C4454 1.378 . S
C4452 C4456 1.350 . S
C4453 C4456 1.463 . S
C4453 C4458 1.350 . S
C4453 N4461 1.427 . S
C4454 H4445 0.930 . S
C4454 C4452 1.378 . S
C4454 C4455 1.367 . S
C4455 C4454 1.367 . S
C4455 C4457 1.433 . S
C4456 C4452 1.350 . S
C4456 C4453 1.463 . S
C4456 N4460 1.427 . S
C4457 H4447 0.929 . S
C4457 C4455 1.433 . S
C4457 N4460 1.384 . S
C4458 H4449 0.929 . S
C4458 C4450 1.378 . S
C4458 C4453 1.350 . S
C4459 H4446 0.929 . S
C4459 C4451 1.433 . S
C4459 N4461 1.384 . S
N4460 C4456 1.427 . S
N4460 C4457 1.384 . S
N4461 C4453 1.427 . S
N4461 C4459 1.384 . S
H4462 C4468 0.930 . S
H4463 C4472 0.930 . S
H4464 C4477 0.929 . S
H4465 C4475 0.929 . S
H4466 C4470 0.929 . S
H4467 C4476 0.929 . S
C4468 H4462 0.930 . S
C4468 C4469 1.367 . S
C4468 C4476 1.378 . S
C4469 C4468 1.367 . S
C4469 C4477 1.433 . S
C4470 H4466 0.929 . S
C4470 C4472 1.378 . S
C4470 C4474 1.350 . S
C4471 C4474 1.463 . S
C4471 C4476 1.350 . S
C4471 N4479 1.427 . S
C4472 H4463 0.930 . S
C4472 C4470 1.378 . S
C4472 C4473 1.367 . S
C4473 C4472 1.367 . S
C4473 C4475 1.433 . S
C4474 C4470 1.350 . S
C4474 C4471 1.463 . S
C4474 N4478 1.427 . S
C4475 H4465 0.929 . S
C4475 C4473 1.433 . S
C4475 N4478 1.384 . S
C4476 H4467 0.929 . S
C4476 C4468 1.378 . S
C4476 C4471 1.350 . S
C4477 H4464 0.929 . S
C4477 C4469 1.433 . S
C4477 N4479 1.384 . S
N4478 C4474 1.427 . S
N4478 C4475 1.384 . S
N4479 C4471 1.427 . S
N4479 C4477 1.384 . S
C2759 C665 0.983 . S
C2763 C2120 1.001 . S
C2777 C381 1.278 . S
C2781 C2154 1.267 . S
C2795 C460 0.442 . S
C2799 C2223 0.411 . S
C2817 C2261 0.911 . S
C2813 C585 0.912 . S
C2831 C108 1.346 . S
C2835 C2301 1.323 . S
C2853 C2320 0.133 . S
C2849 C196 0.241 . S
C2871 C2354 1.232 . S
C2867 C313 1.233 . S
C2885 C49 1.564 . S
C2889 C2423 1.563 . S
C2907 C2129 2.419 . S
C2903 C1457 2.446 . S
C2921 C1545 0.923 . S
C2925 C2181 0.917 . S
C2943 C2194 1.387 . S
C2939 C1721 1.398 . S
C2961 C2263 1.457 . S
C2957 C1113 1.413 . S
C2975 C1428 1.911 . S
C2979 C2303 1.959 . S
C2997 C2329 1.852 . S
C2993 C1516 1.892 . S
C3015 C2381 0.332 . S
C3011 C1692 0.275 . S
C3033 C2394 2.183 . S
C3029 C1085 2.198 . S
C3051 C2124 2.459 . S
C3047 C988 2.468 . S
C3065 C1817 1.946 . S
C3069 C2434 1.945 . S
C3087 C2484 2.630 . S
C3083 C2081 2.650 . S
C3105 C2543 1.591 . S
C3101 C1993 1.544 . S
C3119 C761 1.410 . S
C3123 C2421 1.395 . S
C3137 C821 1.371 . S
C3141 C2221 1.352 . S
C3155 C2053 2.499 . S
C3159 C2554 2.462 . S
C3177 C2623 0.678 . S
C3173 C1868 0.680 . S
C3195 C2141 0.996 . S
C3191 C372 0.989 . S
C3213 C2609 1.262 . S
C3209 C645 1.274 . S
C3227 C577 0.436 . S
C3231 C2204 0.411 . S
C3245 C497 0.913 . S
C3249 C2560 0.906 . S
C3267 C2280 1.333 . S
C3263 C57 1.358 . S
C3281 C293 0.229 . S
C3285 C2501 0.150 . S
C3303 C2369 1.237 . S
C3299 C205 1.224 . S
C3321 C2644 1.552 . S
C3317 C145 1.568 . S
C3339 C2114 2.422 . S
C3335 C909 2.445 . S
C3357 C2600 0.895 . S
C3353 C1956 0.909 . S
C3371 C724 1.394 . S
C3375 C2209 1.383 . S
C3389 C1780 1.402 . S
C3393 C2564 1.451 . S
C3407 C937 1.913 . S
C3411 C2284 1.954 . S
C3429 C2474 1.845 . S
C3425 C1985 1.886 . S
C3443 C753 0.289 . S
C3447 C2360 0.368 1_565 S
C3461 C1809 2.190 . S
C3465 C2649 2.174 . S
C3479 C1173 2.461 . S
C3483 C2143 2.450 1_656 S
C3497 C1105 1.940 . S
C3501 C2449 1.944 . S
C3515 C1633 2.646 . S
C3519 C2343 2.625 . S
C3533 C1553 1.549 . S
C3537 C2524 1.589 . S
C3555 C2640 1.397 . S
C3551 C1729 1.417 . S
C3569 C1340 1.379 . S
C3573 C2200 1.362 . S
C3591 C2249 2.461 . S
C3587 C1604 2.493 . S
C3609 C2164 0.675 . S
C3605 C1252 0.672 . S
C3623 C489 0.982 . S
C3627 C2680 1.001 . S
C3645 C2594 1.265 . S
C3641 C557 1.277 . S
C3659 C636 0.443 . S
C3663 C2743 0.418 . S
C3677 C409 0.923 . S
C3681 C2581 0.922 . S
C3695 C284 1.356 . S
C3699 C2461 1.334 . S
C3717 C2480 0.155 . S
C3713 C20 0.237 . S
C3735 C2514 1.231 . S
C3731 C137 1.230 . S
C3753 C2663 1.560 . S
C3749 C225 1.568 . S
C3771 C2689 2.419 . S
C3767 C1641 2.446 . S
C3785 C1193 0.926 . S
C3789 C2621 0.920 . S
C3807 C2714 1.383 . S
C3803 C1289 1.395 . S
C3825 C2583 1.456 . S
C3821 C1377 1.411 . S
C3843 C2463 1.959 . S
C3839 C1613 1.914 . S
C3857 C1164 1.892 . S
C3861 C2489 1.852 . S
C3879 C2541 0.335 . S
C3875 C1261 0.261 . S
C3893 C1349 2.193 . S
C3897 C2634 2.177 . S
C3915 C2684 2.456 . S
C3911 C1965 2.469 . S
C3929 C849 1.949 . S
C3933 C2274 1.948 . S
C3951 C2324 2.633 . S
C3947 C929 2.649 . S
C3969 C2383 1.592 . S
C3965 C1017 1.550 . S
C3987 C2661 1.392 . S
C3983 C1897 1.409 . S
C4001 C1789 1.379 . S
C4005 C2741 1.364 . S
C4023 C2234 2.463 . S
C4019 C900 2.499 . S
C4041 C2183 0.685 . S
C4037 C733 0.681 . S
C4055 C548 0.988 . S
C4059 C2701 0.997 . S
C4077 C2169 1.269 . S
C4073 C469 1.274 . S
C4091 C401 0.414 . S
C4095 C2724 0.417 . S
C4109 C673 0.909 . S
C4113 C2240 0.910 . S
C4127 C233 1.356 . S
C4131 C2440 1.329 . S
C4149 C2341 0.157 . S
C4145 C117 0.264 . S
C4163 C29 1.223 . S
C4167 C2529 1.227 . S
C4181 C321 1.562 . S
C4185 C2404 1.557 . S
C4203 C2674 2.417 . S
C4199 C2044 2.445 . S
C4217 C997 0.926 . S
C4221 C2160 0.919 . S
C4239 C2729 1.382 . S
C4235 C1877 1.392 . S
C4253 C812 1.396 . S
C4257 C2244 1.447 . S
C4271 C2073 1.905 . S
C4275 C2444 1.952 . S
C4293 C2314 1.841 . S
C4289 C1025 1.884 . S
C4307 C1905 0.288 . S
C4311 C2520 0.367 . S
C4329 C2409 2.174 . S
C4325 C841 2.191 . S
C4347 C2703 2.449 . S
C4343 C1525 2.464 . S
C4365 C2289 1.889 1_665 S
C4361 C1369 1.940 . S
C4379 C1465 2.646 . S
C4383 C2503 2.625 . S
C4401 C2364 1.583 . S
C4397 C1201 1.538 . S
C4415 C1281 1.418 . S
C4419 C2400 1.398 . S
C4433 C1076 1.371 . S
C4437 C2720 1.349 . S
C4455 C2569 2.455 . S
C4451 C1437 2.491 . S
C4473 C2604 0.671 . S
C4469 C1701 0.679 . S
