# Generated by pormake.
# Topology zzz, (3,6)-cn, num edge types: 1
# Building blocks:
#     Node 0, Type 0, BuildingBlock: OLANEW_clean_sbu_2, # of connection points: 3
#     Node 1, Type 0, BuildingBlock: OLANEW_clean_sbu_2, # of connection points: 3
#     Node 2, Type 0, BuildingBlock: OLANEW_clean_sbu_2, # of connection points: 3
#     Node 3, Type 0, BuildingBlock: OLANEW_clean_sbu_2, # of connection points: 3
#     Node 4, Type 0, BuildingBlock: OLANEW_clean_sbu_2, # of connection points: 3
#     Node 5, Type 0, BuildingBlock: OLANEW_clean_sbu_2, # of connection points: 3
#     Node 6, Type 0, BuildingBlock: OLANEW_clean_sbu_2, # of connection points: 3
#     Node 7, Type 0, BuildingBlock: OLANEW_clean_sbu_2, # of connection points: 3
#     Node 8, Type 1, BuildingBlock: INOVEN_clean_sbu_0, # of connection points: 6
#     Node 9, Type 1, BuildingBlock: INOVEN_clean_sbu_0, # of connection points: 6
#     Node 10, Type 1, BuildingBlock: INOVEN_clean_sbu_0, # of connection points: 6
#     Node 11, Type 1, BuildingBlock: INOVEN_clean_sbu_0, # of connection points: 6
#     Edge 12, Type (0, 1), None
#     Edge 13, Type (0, 1), None
#     Edge 14, Type (0, 1), None
#     Edge 15, Type (0, 1), None
#     Edge 16, Type (0, 1), None
#     Edge 17, Type (0, 1), None
#     Edge 18, Type (0, 1), None
#     Edge 19, Type (0, 1), None
#     Edge 20, Type (0, 1), None
#     Edge 21, Type (0, 1), None
#     Edge 22, Type (0, 1), None
#     Edge 23, Type (0, 1), None
#     Edge 24, Type (0, 1), None
#     Edge 25, Type (0, 1), None
#     Edge 26, Type (0, 1), None
#     Edge 27, Type (0, 1), None
#     Edge 28, Type (0, 1), None
#     Edge 29, Type (0, 1), None
#     Edge 30, Type (0, 1), None
#     Edge 31, Type (0, 1), None
#     Edge 32, Type (0, 1), None
#     Edge 33, Type (0, 1), None
#     Edge 34, Type (0, 1), None
#     Edge 35, Type (0, 1), None
# Relax obj value: 0.449
# Max RMSD: 0.240
# Mean RMSD: 0.167
data_MOF--net-zzz--node1-OLANEW_clean_sbu_2--node2-INOVEN_clean_sbu_0--edge1-none
_symmetry_space_group_name_H-M    P1
_symmetry_Int_Tables_number       1
_symmetry_cell_setting            triclinic
loop_
_symmetry_equiv_pos_as_xyz
'x, y, z'
_cell_length_a     27.951196
_cell_length_b     27.906136
_cell_length_c     8.4793346
_cell_angle_alpha  89.056833
_cell_angle_beta   89.9884
_cell_angle_gamma 89.997425
loop_
_atom_site_label
_atom_site_type_symbol
_atom_site_fract_x
_atom_site_fract_y
_atom_site_fract_z
_atom_type_partial_charge
O0 O 0.70256 0.45396 0.30903 0.0
Cd1 Cd 0.6398 0.49941 0.44369 0.0
O2 O 0.72122 0.42651 0.54065 0.0
Cd3 Cd 0.77726 0.4293 0.70911 0.0
O4 O 0.82564 0.4926 0.76017 0.0
C5 C 0.85548 0.5111 0.66116 0.0
O6 O 0.82567 0.49333 0.76551 0.0
C7 C 0.73174 0.43118 0.39584 0.0
C8 C 0.58067 0.48885 0.13758 0.0
O9 O 0.59019 0.52447 0.22315 0.0
O10 O 0.59024 0.5244 0.22337 0.0
O11 O 0.02681 0.69863 0.30328 0.0
Cd12 Cd 0.98306 0.62929 0.40876 0.0
O13 O 0.05071 0.7159 0.53868 0.0
Cd14 Cd 0.05092 0.77218 0.70415 0.0
O15 O 0.99202 0.8254 0.75892 0.0
C16 C 0.97501 0.85658 0.66083 0.0
O17 O 0.99138 0.82547 0.76411 0.0
C18 C 0.04771 0.72735 0.39385 0.0
C19 C 0.98082 0.58035 0.13328 0.0
O20 O 0.94991 0.61312 0.15869 0.0
O21 O 0.00799 0.56634 0.2458 0.0
O22 O 0.79223 0.0264 0.30979 0.0
Cd23 Cd 0.86407 0.98702 0.41453 0.0
O24 O 0.77319 0.05121 0.54257 0.0
Cd25 Cd 0.71686 0.0519 0.71102 0.0
O26 O 0.66772 0.98976 0.77504 0.0
C27 C 0.63802 0.97109 0.67814 0.0
O28 O 0.66761 0.98897 0.78097 0.0
C29 C 0.76246 0.04688 0.39831 0.0
C30 C 0.91298 0.98496 0.13553 0.0
O31 O 0.88201 0.95251 0.16731 0.0
O32 O 0.92506 0.01395 0.24261 0.0
O33 O 0.45022 0.79112 0.31039 0.0
Cd34 Cd 0.4932 0.8552 0.44981 0.0
O35 O 0.4277 0.76913 0.54336 0.0
Cd36 Cd 0.4467 0.71501 0.71035 0.0
O37 O 0.50056 0.6632 0.64445 0.0
C38 C 0.51794 0.63755 0.75346 0.0
O39 O 0.51059 0.65204 0.89843 0.0
C40 C 0.43002 0.75996 0.39739 0.0
C41 C 0.4843 0.90854 0.12988 0.0
O42 O 0.51743 0.90721 0.2322 0.0
O43 O 0.51736 0.90714 0.23241 0.0
O44 O 0.29458 0.55156 0.25795 0.0
Cd45 Cd 0.35654 0.49297 0.19255 0.0
O46 O 0.269 0.50376 0.08255 0.0
Cd47 Cd 0.22944 0.46364 0.91559 0.0
O48 O 0.16652 0.47277 0.78024 0.0
C49 C 0.13422 0.44335 0.82011 0.0
O50 O 0.13361 0.40156 0.75131 0.0
C51 C 0.2597 0.5372 0.17799 0.0
C52 C 0.40305 0.48645 0.47832 0.0
O53 O 0.37762 0.52207 0.43755 0.0
O54 O 0.40892 0.4524 0.3813 0.0
O55 O 0.95773 0.29957 0.26705 0.0
Cd56 Cd 0.00922 0.36659 0.19725 0.0
O57 O 0.00022 0.27486 0.07421 0.0
Cd58 Cd 0.03702 0.23781 0.88939 0.0
O59 O 0.02326 0.16795 0.81246 0.0
C60 C 0.05371 0.13549 0.84084 0.0
O61 O 0.09939 0.14574 0.85093 0.0
C62 C 0.96913 0.26534 0.18034 0.0
C63 C 0.00891 0.40848 0.48901 0.0
O64 O 0.97338 0.38575 0.43585 0.0
O65 O 0.04604 0.41377 0.40224 0.0
O66 O 0.19693 0.95665 0.26956 0.0
Cd67 Cd 0.12715 0.00278 0.18868 0.0
O68 O 0.22143 0.00444 0.08693 0.0
Cd69 Cd 0.25601 0.04708 0.90752 0.0
O70 O 0.3235 0.03352 0.80936 0.0
C71 C 0.3571 0.06293 0.83066 0.0
O72 O 0.34923 0.10928 0.82438 0.0
C73 C 0.23178 0.97284 0.19162 0.0
C74 C 0.08452 0.00443 0.47959 0.0
O75 O 0.10219 0.96665 0.42271 0.0
O76 O 0.08453 0.04313 0.39638 0.0
O77 O 0.55416 0.2026 0.26346 0.0
Cd78 Cd 0.502 0.13619 0.18668 0.0
O79 O 0.50108 0.22724 0.10082 0.0
Cd80 Cd 0.45704 0.26672 0.94511 0.0
O81 O 0.45663 0.32098 0.76982 0.0
C82 C 0.43101 0.35638 0.80622 0.0
O83 O 0.39261 0.36362 0.72037 0.0
C84 C 0.53469 0.23776 0.19459 0.0
C85 C 0.49464 0.08936 0.47337 0.0
O86 O 0.53265 0.10988 0.42694 0.0
O87 O 0.45839 0.0885 0.38142 0.0
Gd88 Gd 0.03734 0.97849 0.92819 0.0
Gd89 Gd 0.95851 0.01966 0.68967 0.0
C90 C 0.97451 0.90691 0.70533 0.0
C91 C 0.06654 0.92331 0.15705 0.0
C92 C 0.06114 0.87275 0.21638 0.0
C93 C 0.10122 0.84207 0.22185 0.0
C94 C 0.01723 0.85512 0.2748 0.0
C95 C 0.05352 0.77773 0.33999 0.0
C96 C 0.0135 0.80805 0.33462 0.0
C97 C 0.09747 0.79502 0.28282 0.0
C98 C 0.06713 0.00248 0.63945 0.0
C99 C 0.03603 0.08726 0.86193 0.0
C100 C 0.93536 0.07957 0.46391 0.0
C101 C 0.93496 0.126 0.37187 0.0
C102 C 0.90395 0.16466 0.40043 0.0
C103 C 0.9694 0.13165 0.25141 0.0
C104 C 0.95109 0.21625 0.22014 0.0
C105 C 0.97781 0.17614 0.1787 0.0
C106 C 0.91204 0.2095 0.32489 0.0
C107 C 0.9294 0.99361 -0.02446 0.0
O108 O 0.00102 0.91513 0.83025 0.0
O109 O 0.9563 0.94183 0.61441 0.0
O110 O 0.09134 0.93056 0.02746 0.0
O111 O 0.0299 0.95263 0.16966 0.0
O112 O 0.09614 -0.00017 0.76 0.0
O113 O 0.02741 0.984 0.6741 0.0
O114 O 0.9915 0.08053 0.81702 0.0
O115 O 0.06109 0.05421 0.93843 0.0
O116 O 0.90323 0.06521 0.56829 0.0
O117 O 0.97761 0.06058 0.48652 0.0
O118 O 0.90134 0.99139 0.85205 0.0
O119 O 0.96826 0.01473 0.94432 0.0
H120 H 0.13563 0.8546 0.17921 0.0
H121 H 0.98564 0.87758 0.27413 0.0
H122 H 0.97912 0.79515 0.37637 0.0
H123 H 0.12873 0.77205 0.28376 0.0
H124 H 0.87564 0.16122 0.48709 0.0
H125 H 0.99256 0.10211 0.22066 0.0
H126 H 0.00832 0.17991 0.10178 0.0
H127 H 0.88985 0.23967 0.3569 0.0
Gd128 Gd 0.51278 0.03814 0.92221 0.0
Gd129 Gd 0.47433 0.96131 0.67819 0.0
C130 C 0.58694 0.97401 0.712 0.0
C131 C 0.56804 0.06413 0.15259 0.0
C132 C 0.61843 0.05907 0.21319 0.0
C133 C 0.64879 0.09945 0.21839 0.0
C134 C 0.6359 0.0153 0.27553 0.0
C135 C 0.71239 0.05221 0.34273 0.0
C136 C 0.68241 0.01193 0.33799 0.0
C137 C 0.69524 0.09608 0.28224 0.0
C138 C 0.49329 0.07021 0.63206 0.0
C139 C 0.40482 0.04369 0.83828 0.0
C140 C 0.42137 0.92948 0.44795 0.0
C141 C 0.37328 0.93806 0.3715 0.0
C142 C 0.33397 0.90776 0.40311 0.0
C143 C 0.36656 0.97593 0.26101 0.0
C144 C 0.28148 0.95749 0.23499 0.0
C145 C 0.32135 0.98559 0.19453 0.0
C146 C 0.28876 0.91742 0.33631 0.0
C147 C 0.49152 0.93022 -0.02511 0.0
O148 O 0.57712 0.00498 0.82211 0.0
O149 O 0.55352 0.95239 0.62705 0.0
O150 O 0.56098 0.09046 0.02507 0.0
O151 O 0.53926 0.02691 0.16136 0.0
O152 O 0.49384 0.0982 0.75418 0.0
O153 O 0.51095 0.02991 0.66701 0.0
O154 O 0.41235 0.00741 0.74376 0.0
O155 O 0.43671 0.06059 0.93888 0.0
O156 O 0.4233 0.90848 0.58754 0.0
O157 O 0.4534 0.96352 0.43266 0.0
O158 O 0.49506 0.90321 0.85139 0.0
O159 O 0.47346 0.97012 0.93611 0.0
H160 H 0.63647 0.13386 0.17351 0.0
H161 H 0.61371 0.98351 0.27597 0.0
H162 H 0.69516 0.97759 0.38222 0.0
H163 H 0.71789 0.12759 0.28265 0.0
H164 H 0.33783 0.87723 0.48263 0.0
H165 H 0.39606 -0.00076 0.22885 0.0
H166 H 0.31718 0.01672 0.11837 0.0
H167 H 0.25902 0.89436 0.36878 0.0
Gd168 Gd 0.45152 0.50883 0.92174 0.0
Gd169 Gd 0.5327 0.47612 0.68774 0.0
C170 C 0.51153 0.58668 0.73194 0.0
C171 C 0.42561 0.56477 0.15162 0.0
C172 C 0.42695 0.61566 0.21002 0.0
C173 C 0.38437 0.6425 0.22587 0.0
C174 C 0.46987 0.63687 0.26159 0.0
C175 C 0.42792 0.70977 0.33988 0.0
C176 C 0.47038 0.68357 0.32178 0.0
C177 C 0.38478 0.68883 0.29072 0.0
C178 C 0.42279 0.48535 0.63537 0.0
C179 C 0.456 0.39961 0.85289 0.0
C180 C 0.56828 0.42773 0.45371 0.0
C181 C 0.56238 0.37989 0.37482 0.0
C182 C 0.59472 0.3419 0.40315 0.0
C183 C 0.5251 0.37207 0.2659 0.0
C184 C 0.54789 0.28797 0.237 0.0
C185 C 0.51795 0.32689 0.19845 0.0
C186 C 0.58751 0.29663 0.33566 0.0
C187 C 0.56035 0.49505 -0.01847 0.0
O188 O 0.46941 0.57241 0.77855 0.0
O189 O 0.54413 0.55692 0.67489 0.0
O190 O 0.39786 0.55461 0.03188 0.0
O191 O 0.46554 0.53997 0.1509 0.0
O192 O 0.39458 0.48306 0.75922 0.0
O193 O 0.46142 0.50693 0.66651 0.0
O194 O 0.49456 0.40914 0.76769 0.0
O195 O 0.43355 0.43137 0.94138 0.0
O196 O 0.58827 0.42893 0.59374 0.0
O197 O 0.53321 0.45881 0.43947 0.0
O198 O 0.58834 0.50041 0.85913 0.0
O199 O 0.52204 0.47441 0.94272 0.0
H200 H 0.35056 0.62754 0.18874 0.0
H201 H 0.50337 0.61758 0.25428 0.0
H202 H 0.50426 0.69929 0.35522 0.0
H203 H 0.35151 0.70851 0.30017 0.0
H204 H 0.62496 0.34677 0.48111 0.0
H205 H 0.50032 0.40059 0.23583 0.0
H206 H 0.4873 0.32218 0.12302 0.0
H207 H 0.61201 0.26784 0.36616 0.0
Gd208 Gd 0.9809 0.45505 0.93438 0.0
Gd209 Gd 0.01778 0.53585 0.69209 0.0
C210 C 0.90596 0.51375 0.70498 0.0
C211 C 0.9277 0.42284 0.16335 0.0
C212 C 0.87706 0.42541 0.22135 0.0
C213 C 0.84849 0.38371 0.22712 0.0
C214 C 0.85732 0.46824 0.27829 0.0
C215 C 0.78208 0.42787 0.34224 0.0
C216 C 0.81031 0.46942 0.33655 0.0
C217 C 0.8015 0.38488 0.287 0.0
C218 C 0.0063 0.42611 0.64782 0.0
C219 C 0.08908 0.46299 0.87338 0.0
C220 C 0.07801 0.56144 0.47329 0.0
C221 C 0.12081 0.56658 0.36761 0.0
C222 C 0.15821 0.59929 0.39288 0.0
C223 C 0.12653 0.53279 0.24737 0.0
C224 C 0.21027 0.55411 0.2147 0.0
C225 C 0.17061 0.52648 0.17263 0.0
C226 C 0.20277 0.59289 0.31741 0.0
C227 C 0.99006 0.56409 -0.02552 0.0
O228 O 0.9158 0.48756 0.83121 0.0
O229 O 0.93967 0.53382 0.61382 0.0
O230 O 0.93588 0.39865 0.03472 0.0
O231 O 0.955 0.46104 0.17482 0.0
O232 O 0.00525 0.39721 0.77052 0.0
O233 O 0.98587 0.46496 0.67913 0.0
O234 O 0.07985 0.50779 0.83287 0.0
O235 O 0.05768 0.43551 0.94783 0.0
O236 O 0.0598 0.5937 0.56804 0.0
O237 O 0.06276 0.51778 0.50041 0.0
O238 O 0.9865 0.59187 0.84875 0.0
O239 O 0.01305 0.52623 0.94689 0.0
H240 H 0.86264 0.35005 0.18565 0.0
H241 H 0.87808 0.501 0.27759 0.0
H242 H 0.79579 0.50306 0.37706 0.0
H243 H 0.78024 0.35241 0.2884 0.0
H244 H 0.15459 0.62683 0.48054 0.0
H245 H 0.09785 0.50812 0.22028 0.0
H246 H 0.17442 0.49674 0.09412 0.0
H247 H 0.23236 0.61582 0.34961 0.0
loop_
_geom_bond_atom_site_label_1
_geom_bond_atom_site_label_2
_geom_bond_distance
_geom_bond_site_symmetry_2
_ccdc_geom_bond_type
O0 Cd1 2.300 . S
O0 C7 1.275 . S
Cd1 O0 2.300 . S
Cd1 O9 2.381 . S
Cd1 O10 2.378 . S
O2 Cd3 2.385 . S
O2 C7 1.255 . S
Cd3 O2 2.385 . S
Cd3 O4 2.317 . S
O4 Cd3 2.317 . S
O4 C5 1.232 . S
C5 O4 1.232 . S
C5 O6 1.218 . S
O6 C5 1.218 . S
C7 O0 1.275 . S
C7 O2 1.255 . S
C8 O9 1.258 . S
C8 O10 1.256 . S
O9 Cd1 2.381 . S
O9 C8 1.258 . S
O10 Cd1 2.378 . S
O10 C8 1.256 . S
O11 Cd12 2.300 1_655 S
O11 C18 1.275 1_655 S
Cd12 O11 2.300 1_455 S
Cd12 O20 2.381 1_455 S
Cd12 O21 2.378 . S
O13 Cd14 2.385 . S
O13 C18 1.255 . S
Cd14 O13 2.385 . S
Cd14 O15 2.317 . S
O15 Cd14 2.317 . S
O15 C16 1.232 . S
C16 O15 1.232 . S
C16 O17 1.218 . S
O17 C16 1.218 . S
C18 O11 1.275 1_455 S
C18 O13 1.255 . S
C19 O20 1.258 1_455 S
C19 O21 1.256 . S
O20 Cd12 2.381 1_655 S
O20 C19 1.258 1_655 S
O21 Cd12 2.378 . S
O21 C19 1.256 . S
O22 Cd23 2.300 1_565 S
O22 C29 1.275 1_565 S
Cd23 O22 2.300 1_545 S
Cd23 O31 2.381 1_545 S
Cd23 O32 2.378 . S
O24 Cd25 2.385 . S
O24 C29 1.255 . S
Cd25 O24 2.385 . S
Cd25 O26 2.317 . S
O26 Cd25 2.317 . S
O26 C27 1.232 . S
C27 O26 1.232 . S
C27 O28 1.218 . S
O28 C27 1.218 . S
C29 O22 1.275 1_545 S
C29 O24 1.255 . S
C30 O31 1.258 1_545 S
C30 O32 1.256 . S
O31 Cd23 2.381 1_565 S
O31 C30 1.258 1_565 S
O32 Cd23 2.378 . S
O32 C30 1.256 . S
O33 Cd34 2.300 . S
O33 C40 1.275 . S
Cd34 O33 2.300 . S
Cd34 O42 2.381 . S
Cd34 O43 2.378 . S
O35 Cd36 2.385 . S
O35 C40 1.255 . S
Cd36 O35 2.385 . S
Cd36 O37 2.317 . S
O37 Cd36 2.317 . S
O37 C38 1.232 . S
C38 O37 1.232 . S
C38 O39 1.218 . S
O39 C38 1.218 . S
C40 O33 1.275 . S
C40 O35 1.255 . S
C41 O42 1.258 . S
C41 O43 1.256 . S
O42 Cd34 2.381 . S
O42 C41 1.258 . S
O43 Cd34 2.378 . S
O43 C41 1.256 . S
O44 Cd45 2.300 . S
O44 C51 1.275 . S
Cd45 O44 2.300 . S
Cd45 O53 2.381 . S
Cd45 O54 2.378 . S
O46 Cd47 2.385 1_554 S
O46 C51 1.255 . S
Cd47 O46 2.385 1_556 S
Cd47 O48 2.317 . S
O48 Cd47 2.317 . S
O48 C49 1.232 . S
C49 O48 1.232 . S
C49 O50 1.218 . S
O50 C49 1.218 . S
C51 O44 1.275 . S
C51 O46 1.255 . S
C52 O53 1.258 . S
C52 O54 1.256 . S
O53 Cd45 2.381 . S
O53 C52 1.258 . S
O54 Cd45 2.378 . S
O54 C52 1.256 . S
O55 Cd56 2.300 1_655 S
O55 C62 1.275 1_655 S
Cd56 O55 2.300 1_455 S
Cd56 O64 2.381 1_455 S
Cd56 O65 2.378 . S
O57 Cd58 2.385 1_554 S
O57 C62 1.255 . S
Cd58 O57 2.385 1_556 S
Cd58 O59 2.317 . S
O59 Cd58 2.317 . S
O59 C60 1.232 . S
C60 O59 1.232 . S
C60 O61 1.218 . S
O61 C60 1.218 . S
C62 O55 1.275 1_455 S
C62 O57 1.255 . S
C63 O64 1.258 1_455 S
C63 O65 1.256 . S
O64 Cd56 2.381 1_655 S
O64 C63 1.258 1_655 S
O65 Cd56 2.378 . S
O65 C63 1.256 . S
O66 Cd67 2.300 1_565 S
O66 C73 1.275 1_565 S
Cd67 O66 2.300 1_545 S
Cd67 O75 2.381 1_545 S
Cd67 O76 2.378 . S
O68 Cd69 2.385 1_554 S
O68 C73 1.255 . S
Cd69 O68 2.385 1_556 S
Cd69 O70 2.317 . S
O70 Cd69 2.317 . S
O70 C71 1.232 . S
C71 O70 1.232 . S
C71 O72 1.218 . S
O72 C71 1.218 . S
C73 O66 1.275 1_545 S
C73 O68 1.255 . S
C74 O75 1.258 1_545 S
C74 O76 1.256 . S
O75 Cd67 2.381 1_565 S
O75 C74 1.258 1_565 S
O76 Cd67 2.378 . S
O76 C74 1.256 . S
O77 Cd78 2.300 . S
O77 C84 1.275 . S
Cd78 O77 2.300 . S
Cd78 O86 2.381 . S
Cd78 O87 2.378 . S
O79 Cd80 2.385 1_554 S
O79 C84 1.255 . S
Cd80 O79 2.385 1_556 S
Cd80 O81 2.317 . S
O81 Cd80 2.317 . S
O81 C82 1.232 . S
C82 O81 1.232 . S
C82 O83 1.218 . S
O83 C82 1.218 . S
C84 O77 1.275 . S
C84 O79 1.255 . S
C85 O86 1.258 . S
C85 O87 1.256 . S
O86 Cd78 2.381 . S
O86 C85 1.258 . S
O87 Cd78 2.378 . S
O87 C85 1.256 . S
Gd88 C91 2.818 . S
Gd88 O108 2.377 1_554 S
Gd88 O110 2.448 . S
Gd88 O111 2.506 . S
Gd88 O112 2.435 1_554 S
Gd88 O113 2.717 1_564 S
Gd88 O115 2.395 1_564 S
Gd88 O119 2.327 1_454 S
Gd89 C100 2.818 . S
Gd89 O109 2.395 1_545 S
Gd89 O113 2.327 1_655 S
Gd89 O114 2.377 . S
Gd89 O116 2.448 . S
Gd89 O117 2.506 . S
Gd89 O118 2.435 . S
Gd89 O119 2.717 1_545 S
C90 O108 1.240 1_655 S
C90 O109 1.240 . S
C91 Gd88 2.818 . S
C91 C92 1.510 . S
C91 O110 1.249 . S
C91 O111 1.252 . S
C92 C91 1.510 . S
C92 C93 1.404 . S
C92 C94 1.352 . S
C93 C92 1.404 . S
C93 C97 1.389 . S
C93 H120 0.930 . S
C94 C92 1.352 . S
C94 C96 1.374 . S
C94 H121 0.931 1_455 S
C95 C96 1.359 . S
C95 C97 1.364 . S
C96 C94 1.374 . S
C96 C95 1.359 . S
C96 H122 0.931 . S
C97 C93 1.389 . S
C97 C95 1.364 . S
C97 H123 0.931 . S
C98 O112 1.256 . S
C98 O113 1.257 1_565 S
C99 O114 1.240 1_455 S
C99 O115 1.240 . S
C100 Gd89 2.818 . S
C100 C101 1.510 . S
C100 O116 1.249 . S
C100 O117 1.252 . S
C101 C100 1.510 . S
C101 C102 1.404 . S
C101 C103 1.352 . S
C102 C101 1.404 . S
C102 C106 1.389 . S
C102 H124 0.930 . S
C103 C101 1.352 . S
C103 C105 1.374 . S
C103 H125 0.931 1_655 S
C104 C105 1.359 . S
C104 C106 1.364 . S
C105 C103 1.374 . S
C105 C104 1.359 . S
C105 H126 0.931 . S
C106 C102 1.389 . S
C106 C104 1.364 . S
C106 H127 0.931 . S
C107 O118 1.256 . S
C107 O119 1.257 1_545 S
O108 Gd88 2.377 1_556 S
O108 C90 1.240 1_455 S
O109 Gd89 2.395 1_565 S
O109 C90 1.240 . S
O110 Gd88 2.448 . S
O110 C91 1.249 . S
O111 Gd88 2.506 . S
O111 C91 1.252 . S
O112 Gd88 2.435 1_556 S
O112 C98 1.256 . S
O113 Gd88 2.717 1_546 S
O113 Gd89 2.327 1_455 S
O113 C98 1.257 1_545 S
O114 Gd89 2.377 . S
O114 C99 1.240 1_655 S
O115 Gd88 2.395 1_546 S
O115 C99 1.240 . S
O116 Gd89 2.448 . S
O116 C100 1.249 . S
O117 Gd89 2.506 . S
O117 C100 1.252 . S
O118 Gd89 2.435 . S
O118 C107 1.256 . S
O119 Gd88 2.327 1_656 S
O119 Gd89 2.717 1_565 S
O119 C107 1.257 1_565 S
H120 C93 0.930 . S
H121 C94 0.931 1_655 S
H122 C96 0.931 . S
H123 C97 0.931 . S
H124 C102 0.930 . S
H125 C103 0.931 1_455 S
H126 C105 0.931 . S
H127 C106 0.931 . S
Gd128 C131 2.818 . S
Gd128 O148 2.377 1_554 S
Gd128 O150 2.448 . S
Gd128 O151 2.506 . S
Gd128 O152 2.435 1_554 S
Gd128 O153 2.717 1_554 S
Gd128 O155 2.395 1_554 S
Gd128 O159 2.327 1_544 S
Gd129 C140 2.818 . S
Gd129 O149 2.395 . S
Gd129 O153 2.327 1_565 S
Gd129 O154 2.377 . S
Gd129 O156 2.448 . S
Gd129 O157 2.506 . S
Gd129 O158 2.435 . S
Gd129 O159 2.717 . S
C130 O148 1.240 1_565 S
C130 O149 1.240 . S
C131 Gd128 2.818 . S
C131 C132 1.510 . S
C131 O150 1.249 . S
C131 O151 1.252 . S
C132 C131 1.510 . S
C132 C133 1.404 . S
C132 C134 1.352 . S
C133 C132 1.404 . S
C133 C137 1.389 . S
C133 H160 0.930 . S
C134 C132 1.352 . S
C134 C136 1.374 . S
C134 H161 0.931 1_545 S
C135 C136 1.359 . S
C135 C137 1.364 . S
C136 C134 1.374 . S
C136 C135 1.359 . S
C136 H162 0.931 . S
C137 C133 1.389 . S
C137 C135 1.364 . S
C137 H163 0.931 . S
C138 O152 1.256 . S
C138 O153 1.257 . S
C139 O154 1.240 1_545 S
C139 O155 1.240 . S
C140 Gd129 2.818 . S
C140 C141 1.510 . S
C140 O156 1.249 . S
C140 O157 1.252 . S
C141 C140 1.510 . S
C141 C142 1.404 . S
C141 C143 1.352 . S
C142 C141 1.404 . S
C142 C146 1.389 . S
C142 H164 0.930 . S
C143 C141 1.352 . S
C143 C145 1.374 . S
C143 H165 0.931 1_565 S
C144 C145 1.359 . S
C144 C146 1.364 . S
C145 C143 1.374 . S
C145 C144 1.359 . S
C145 H166 0.931 . S
C146 C142 1.389 . S
C146 C144 1.364 . S
C146 H167 0.931 . S
C147 O158 1.256 . S
C147 O159 1.257 . S
O148 Gd128 2.377 1_556 S
O148 C130 1.240 1_545 S
O149 Gd129 2.395 . S
O149 C130 1.240 . S
O150 Gd128 2.448 . S
O150 C131 1.249 . S
O151 Gd128 2.506 . S
O151 C131 1.252 . S
O152 Gd128 2.435 1_556 S
O152 C138 1.256 . S
O153 Gd128 2.717 1_556 S
O153 Gd129 2.327 1_545 S
O153 C138 1.257 . S
O154 Gd129 2.377 . S
O154 C139 1.240 1_565 S
O155 Gd128 2.395 1_556 S
O155 C139 1.240 . S
O156 Gd129 2.448 . S
O156 C140 1.249 . S
O157 Gd129 2.506 . S
O157 C140 1.252 . S
O158 Gd129 2.435 . S
O158 C147 1.256 . S
O159 Gd128 2.327 1_566 S
O159 Gd129 2.717 . S
O159 C147 1.257 . S
H160 C133 0.930 . S
H161 C134 0.931 1_565 S
H162 C136 0.931 . S
H163 C137 0.931 . S
H164 C142 0.930 . S
H165 C143 0.931 1_545 S
H166 C145 0.931 . S
H167 C146 0.931 . S
Gd168 C171 2.818 . S
Gd168 O188 2.377 1_554 S
Gd168 O190 2.448 . S
Gd168 O191 2.506 . S
Gd168 O192 2.435 1_554 S
Gd168 O193 2.717 1_554 S
Gd168 O195 2.395 1_554 S
Gd168 O199 2.327 1_554 S
Gd169 C180 2.818 . S
Gd169 O189 2.395 . S
Gd169 O193 2.327 . S
Gd169 O194 2.377 . S
Gd169 O196 2.448 . S
Gd169 O197 2.506 . S
Gd169 O198 2.435 . S
Gd169 O199 2.717 . S
C170 O188 1.240 . S
C170 O189 1.240 . S
C171 Gd168 2.818 . S
C171 C172 1.510 . S
C171 O190 1.249 . S
C171 O191 1.252 . S
C172 C171 1.510 . S
C172 C173 1.404 . S
C172 C174 1.352 . S
C173 C172 1.404 . S
C173 C177 1.389 . S
C173 H200 0.930 . S
C174 C172 1.352 . S
C174 C176 1.374 . S
C174 H201 0.931 . S
C175 C176 1.359 . S
C175 C177 1.364 . S
C176 C174 1.374 . S
C176 C175 1.359 . S
C176 H202 0.931 . S
C177 C173 1.389 . S
C177 C175 1.364 . S
C177 H203 0.931 . S
C178 O192 1.256 . S
C178 O193 1.257 . S
C179 O194 1.240 . S
C179 O195 1.240 . S
C180 Gd169 2.818 . S
C180 C181 1.510 . S
C180 O196 1.249 . S
C180 O197 1.252 . S
C181 C180 1.510 . S
C181 C182 1.404 . S
C181 C183 1.352 . S
C182 C181 1.404 . S
C182 C186 1.389 . S
C182 H204 0.930 . S
C183 C181 1.352 . S
C183 C185 1.374 . S
C183 H205 0.931 . S
C184 C185 1.359 . S
C184 C186 1.364 . S
C185 C183 1.374 . S
C185 C184 1.359 . S
C185 H206 0.931 . S
C186 C182 1.389 . S
C186 C184 1.364 . S
C186 H207 0.931 . S
C187 O198 1.256 . S
C187 O199 1.257 . S
O188 Gd168 2.377 1_556 S
O188 C170 1.240 . S
O189 Gd169 2.395 . S
O189 C170 1.240 . S
O190 Gd168 2.448 . S
O190 C171 1.249 . S
O191 Gd168 2.506 . S
O191 C171 1.252 . S
O192 Gd168 2.435 1_556 S
O192 C178 1.256 . S
O193 Gd168 2.717 1_556 S
O193 Gd169 2.327 . S
O193 C178 1.257 . S
O194 Gd169 2.377 . S
O194 C179 1.240 . S
O195 Gd168 2.395 1_556 S
O195 C179 1.240 . S
O196 Gd169 2.448 . S
O196 C180 1.249 . S
O197 Gd169 2.506 . S
O197 C180 1.252 . S
O198 Gd169 2.435 . S
O198 C187 1.256 . S
O199 Gd168 2.327 1_556 S
O199 Gd169 2.717 . S
O199 C187 1.257 . S
H200 C173 0.930 . S
H201 C174 0.931 . S
H202 C176 0.931 . S
H203 C177 0.931 . S
H204 C182 0.930 . S
H205 C183 0.931 . S
H206 C185 0.931 . S
H207 C186 0.931 . S
Gd208 C211 2.818 . S
Gd208 O228 2.377 1_554 S
Gd208 O230 2.448 . S
Gd208 O231 2.506 . S
Gd208 O232 2.435 1_554 S
Gd208 O233 2.717 1_654 S
Gd208 O235 2.395 1_654 S
Gd208 O239 2.327 1_554 S
Gd209 C220 2.818 . S
Gd209 O229 2.395 1_455 S
Gd209 O233 2.327 . S
Gd209 O234 2.377 . S
Gd209 O236 2.448 . S
Gd209 O237 2.506 . S
Gd209 O238 2.435 . S
Gd209 O239 2.717 1_455 S
C210 O228 1.240 . S
C210 O229 1.240 . S
C211 Gd208 2.818 . S
C211 C212 1.510 . S
C211 O230 1.249 . S
C211 O231 1.252 . S
C212 C211 1.510 . S
C212 C213 1.404 . S
C212 C214 1.352 . S
C213 C212 1.404 . S
C213 C217 1.389 . S
C213 H240 0.930 . S
C214 C212 1.352 . S
C214 C216 1.374 . S
C214 H241 0.931 . S
C215 C216 1.359 . S
C215 C217 1.364 . S
C216 C214 1.374 . S
C216 C215 1.359 . S
C216 H242 0.931 . S
C217 C213 1.389 . S
C217 C215 1.364 . S
C217 H243 0.931 . S
C218 O232 1.263 . S
C218 O233 1.254 1_655 S
C219 O234 1.240 . S
C219 O235 1.240 . S
C220 Gd209 2.818 . S
C220 C221 1.510 . S
C220 O236 1.249 . S
C220 O237 1.252 . S
C221 C220 1.510 . S
C221 C222 1.404 . S
C221 C223 1.352 . S
C222 C221 1.404 . S
C222 C226 1.389 . S
C222 H244 0.930 . S
C223 C221 1.352 . S
C223 C225 1.374 . S
C223 H245 0.931 . S
C224 C225 1.359 . S
C224 C226 1.364 . S
C225 C223 1.374 . S
C225 C224 1.359 . S
C225 H246 0.931 . S
C226 C222 1.389 . S
C226 C224 1.364 . S
C226 H247 0.931 . S
C227 O238 1.265 . S
C227 O239 1.252 1_455 S
O228 Gd208 2.377 1_556 S
O228 C210 1.240 . S
O229 Gd209 2.395 1_655 S
O229 C210 1.240 . S
O230 Gd208 2.448 . S
O230 C211 1.249 . S
O231 Gd208 2.506 . S
O231 C211 1.252 . S
O232 Gd208 2.435 1_556 S
O232 C218 1.263 . S
O233 Gd208 2.717 1_456 S
O233 Gd209 2.327 . S
O233 C218 1.254 1_455 S
O234 Gd209 2.377 . S
O234 C219 1.240 . S
O235 Gd208 2.395 1_456 S
O235 C219 1.240 . S
O236 Gd209 2.448 . S
O236 C220 1.249 . S
O237 Gd209 2.506 . S
O237 C220 1.252 . S
O238 Gd209 2.435 . S
O238 C227 1.265 . S
O239 Gd208 2.327 1_556 S
O239 Gd209 2.717 1_655 S
O239 C227 1.252 1_655 S
H240 C213 0.930 . S
H241 C214 0.931 . S
H242 C216 0.931 . S
H243 C217 0.931 . S
H244 C222 0.930 . S
H245 C223 0.931 . S
H246 C225 0.931 . S
H247 C226 0.931 . S
C74 C98 3.677 1_545 S
C138 C85 3.684 . S
C178 C52 3.694 . S
C218 C63 3.682 1_655 S
C107 C30 3.669 1_556 S
C41 C147 3.706 1_554 S
C8 C187 3.722 1_554 S
C19 C227 3.680 1_554 S
C104 C62 2.495 1_655 S
C144 C73 2.413 1_565 S
C184 C84 2.319 . S
C51 C224 2.391 . S
C18 C95 2.017 . S
C135 C29 1.937 . S
C175 C40 1.839 . S
C7 C215 1.909 . S
C60 C99 3.916 . S
C71 C139 3.874 . S
C179 C82 3.839 . S
C219 C49 3.881 . S
C16 C90 4.092 1_455 S
C130 C27 4.057 1_565 S
C170 C38 4.119 . S
C5 C210 4.152 . S
