# Generated by pormake.
# Topology pth, (4,4)-cn, num edge types: 1
# Building blocks:
#     Node 0, Type 0, BuildingBlock: AZAVOO_clean_sbu_0, # of connection points: 4
#     Node 1, Type 0, BuildingBlock: AZAVOO_clean_sbu_0, # of connection points: 4
#     Node 2, Type 0, BuildingBlock: AZAVOO_clean_sbu_0, # of connection points: 4
#     Node 3, Type 1, BuildingBlock: NAWXER_clean_sbu_0, # of connection points: 4
#     Node 4, Type 1, BuildingBlock: NAWXER_clean_sbu_0, # of connection points: 4
#     Node 5, Type 1, BuildingBlock: NAWXER_clean_sbu_0, # of connection points: 4
#     Edge 6, Type (0, 1), BuildingBlock: FUNLAD_clean_linker_1, # of connection points: 2
#     Edge 7, Type (0, 1), BuildingBlock: FUNLAD_clean_linker_1, # of connection points: 2
#     Edge 8, Type (0, 1), BuildingBlock: FUNLAD_clean_linker_1, # of connection points: 2
#     Edge 9, Type (0, 1), BuildingBlock: FUNLAD_clean_linker_1, # of connection points: 2
#     Edge 10, Type (0, 1), BuildingBlock: FUNLAD_clean_linker_1, # of connection points: 2
#     Edge 11, Type (0, 1), BuildingBlock: FUNLAD_clean_linker_1, # of connection points: 2
#     Edge 12, Type (0, 1), BuildingBlock: FUNLAD_clean_linker_1, # of connection points: 2
#     Edge 13, Type (0, 1), BuildingBlock: FUNLAD_clean_linker_1, # of connection points: 2
#     Edge 14, Type (0, 1), BuildingBlock: FUNLAD_clean_linker_1, # of connection points: 2
#     Edge 15, Type (0, 1), BuildingBlock: FUNLAD_clean_linker_1, # of connection points: 2
#     Edge 16, Type (0, 1), BuildingBlock: FUNLAD_clean_linker_1, # of connection points: 2
#     Edge 17, Type (0, 1), BuildingBlock: FUNLAD_clean_linker_1, # of connection points: 2
# Relax obj value: 0.079
# Max RMSD: 0.220
# Mean RMSD: 0.117
data_MOF--net-pth--node1-AZAVOO_clean_sbu_0--node2-NAWXER_clean_sbu_0--edge1-FUNLAD_clean_linker_1
_symmetry_space_group_name_H-M    P1
_symmetry_Int_Tables_number       1
_symmetry_cell_setting            triclinic
loop_
_symmetry_equiv_pos_as_xyz
'x, y, z'
_cell_length_a     23.649043
_cell_length_b     24.201799
_cell_length_c     58.95226
_cell_angle_alpha  90.828227
_cell_angle_beta   92.934743
_cell_angle_gamma 122.00699
loop_
_atom_site_label
_atom_site_type_symbol
_atom_site_fract_x
_atom_site_fract_y
_atom_site_fract_z
_atom_type_partial_charge
Mg0 Mg 0.11083 0.09736 0.06924 0.0
O1 O 0.02032 0.02783 0.0448 0.0
O2 O 1.00088 0.08798 0.02107 0.0
Mg3 Mg 0.0796 0.19563 0.02976 0.0
C4 C 0.98707 0.03286 0.02809 0.0
C5 C 0.12964 0.00902 0.1027 0.0
O6 O 0.19222 0.0544 0.10018 0.0
O7 O 0.05277 0.13033 0.08938 0.0
O8 O 0.04003 0.19322 0.06474 0.0
O9 O 0.17975 0.09768 0.04425 0.0
O10 O 0.14787 0.16842 0.0452 0.0
C11 C 0.03338 0.16915 0.08427 0.0
C12 C 0.18094 0.14724 0.03571 0.0
O13 O 0.08338 0.01243 0.0922 0.0
Mg14 Mg 0.95858 0.01858 0.39416 0.0
O15 O 0.05001 0.05599 0.41934 0.0
O16 O 0.05722 0.13489 0.4419 0.0
Mg17 Mg 0.97133 0.14919 0.43099 0.0
C18 C 0.07854 0.0987 0.4358 0.0
C19 C 0.952 0.91227 0.36202 0.0
O20 O 0.88817 0.88947 0.36349 0.0
O21 O 0.01333 0.10949 0.37342 0.0
O22 O 0.00963 0.18314 0.39568 0.0
O23 O 0.89068 0.94802 0.41958 0.0
O24 O 0.91474 0.04889 0.41671 0.0
C25 C 0.02298 0.16612 0.37706 0.0
C26 C 0.88517 0.99548 0.42701 0.0
O27 O 0.99498 0.96513 0.37293 0.0
Mg28 Mg 0.00824 0.04543 0.72488 0.0
O29 O 0.07817 0.12751 0.75114 0.0
O30 O 0.01536 0.1402 0.77515 0.0
Mg31 Mg 0.90527 0.0619 0.76552 0.0
C32 C 0.07223 0.15608 0.76837 0.0
C33 C 0.11431 0.0428 0.69607 0.0
O34 O 0.08418 0.98326 0.70331 0.0
O35 O 0.97461 0.10772 0.70711 0.0
O36 O 0.90454 0.10672 0.73147 0.0
O37 O 0.00978 0.9722 0.74754 0.0
O38 O 0.93578 1.00123 0.74836 0.0
C39 C 0.93136 0.12117 0.71246 0.0
C40 C 0.95881 0.96758 0.7566 0.0
O41 O 0.09501 0.08047 0.70203 0.0
C42 C 0.10483 0.67012 0.26063 0.0
C43 C 0.09491 0.51644 0.20325 0.0
O44 O 0.15432 0.67219 0.25221 0.0
Zn45 Zn 0.10265 0.59553 0.23159 0.0
O46 O 0.04522 0.62425 0.25404 0.0
Zn47 Zn 0.99574 0.54092 0.2308 0.0
O48 O 0.94972 0.47012 0.25104 0.0
O49 O 0.05955 0.51758 0.25439 0.0
O50 O 0.03717 0.50257 0.20872 0.0
O51 O 0.14716 0.5674 0.21203 0.0
O52 O 0.05472 0.62726 0.20815 0.0
O53 O 0.9455 0.56355 0.21 0.0
C54 C 1.00147 0.47351 0.26012 0.0
C55 C 0.99534 0.6118 0.2016 0.0
C56 C 0.63804 0.12913 0.58105 0.0
C57 C 0.46843 0.09321 0.52256 0.0
O58 O 0.58944 0.06917 0.57967 0.0
Zn59 Zn 0.49553 0.01092 0.55914 0.0
O60 O 0.63625 0.16966 0.56813 0.0
Zn61 Zn 0.55253 0.10893 0.55188 0.0
O62 O 0.47908 0.08492 0.57721 0.0
O63 O 0.43118 0.97897 0.58127 0.0
O64 O 0.52526 0.14387 0.52776 0.0
O65 O 0.45037 0.04045 0.53282 0.0
O66 O 0.50563 0.94598 0.54421 0.0
O67 O 0.57656 0.04576 0.53398 0.0
C68 C 0.43651 0.03248 0.58663 0.0
C69 C 0.55432 0.98444 0.53284 0.0
C70 C 0.46691 0.50721 0.92385 0.0
C71 C 0.61545 0.66426 0.87092 0.0
O72 O 0.46539 0.55559 0.91654 0.0
Zn73 Zn 0.54021 0.58724 0.89759 0.0
O74 O 0.51205 0.49705 0.91778 0.0
Zn75 Zn 0.59415 0.53891 0.8965 0.0
O76 O 0.67072 0.56686 0.918 0.0
O77 O 0.62367 0.62419 0.92201 0.0
O78 O 0.62977 0.62146 0.87588 0.0
O79 O 0.56616 0.66221 0.87947 0.0
O80 O 0.5021 0.50894 0.87243 0.0
O81 O 0.56574 0.46742 0.87421 0.0
C82 C 0.66928 0.61286 0.92807 0.0
C83 C 0.51547 0.46712 0.86528 0.0
H84 H 0.98248 0.21609 0.09716 0.0
C85 C 0.01422 0.19778 0.10223 0.0
H86 H 0.08391 0.20308 0.12748 0.0
H87 H 0.09283 0.48006 0.1429 0.0
H88 H 0.14167 0.50623 0.1065 0.0
H89 H 0.15356 0.42616 0.08433 0.0
H90 H 0.1148 0.31895 0.09814 0.0
C91 C 0.04945 0.21826 0.12249 0.0
C92 C 0.05012 0.26938 0.13716 0.0
C93 C 0.07725 0.33357 0.12948 0.0
C94 C 0.07465 0.38132 0.14296 0.0
C95 C 0.09677 0.44304 0.13398 0.0
C96 C 0.12452 0.45862 0.11299 0.0
C97 C 0.1309 0.41345 0.10047 0.0
C98 C 0.10775 0.3517 0.10852 0.0
H99 H 0.14968 0.48316 0.18353 0.0
C100 C 0.10031 0.47139 0.18763 0.0
H101 H 0.99635 0.40239 0.18387 0.0
H102 H 0.9983 0.15292 0.15747 0.0
H103 H 0.95734 0.1292 0.19526 0.0
H104 H 0.95916 0.21388 0.21966 0.0
H105 H 1.00129 0.32252 0.20643 0.0
C106 C 0.04561 0.41544 0.17911 0.0
C107 C 0.04951 0.36638 0.16484 0.0
C108 C 0.02535 0.3032 0.17295 0.0
C109 C 0.02531 0.2546 0.15904 0.0
C110 C 0.99998 0.19173 0.16744 0.0
C111 C 0.97631 0.17747 0.18908 0.0
C112 C 0.97724 0.22511 0.20281 0.0
C113 C 1.00139 0.28728 0.19495 0.0
H114 H 0.85465 0.03714 0.45324 0.0
C115 C 0.84767 0.99149 0.44669 0.0
H116 H 0.78867 0.88881 0.44752 0.0
H117 H 0.74053 0.03078 0.53798 0.0
H118 H 0.84966 0.05545 0.55275 0.0
H119 H 0.91537 0.025 0.5304 0.0
H120 H 0.87233 0.96982 0.49302 0.0
C121 C 0.79989 0.93535 0.45479 0.0
C122 C 0.75404 0.93752 0.47072 0.0
C123 C 0.77903 0.96833 0.49268 0.0
C124 C 0.74094 0.9855 0.50558 0.0
C125 C 0.76761 0.0171 0.52735 0.0
C126 C 0.83003 0.03128 0.53608 0.0
C127 C 0.86708 0.0142 0.52349 0.0
C128 C 0.84208 0.983 0.50203 0.0
H129 H 0.56426 0.90583 0.51805 0.0
C130 C 0.58626 0.95832 0.51915 0.0
H131 H 0.6668 0.05009 0.51076 0.0
H132 H 0.68733 0.86927 0.43087 0.0
H133 H 0.57719 0.84199 0.41634 0.0
H134 H 0.51221 0.87455 0.4381 0.0
H135 H 0.55664 0.93412 0.4745 0.0
C136 C 0.64255 0.99741 0.50884 0.0
C137 C 0.67763 0.9713 0.49656 0.0
C138 C 0.65048 0.93616 0.47529 0.0
C139 C 0.68847 0.91843 0.46252 0.0
C140 C 0.66079 0.88426 0.44119 0.0
C141 C 0.59761 0.86825 0.43266 0.0
C142 C 0.56098 0.88649 0.44493 0.0
C143 C 0.58699 0.92037 0.46592 0.0
H144 H 0.94688 0.89507 0.78147 0.0
C145 C 0.92692 0.92391 0.77532 0.0
H146 H 0.85034 0.94389 0.77748 0.0
H147 H 0.6744 0.64824 0.8111 0.0
H148 H 0.66893 0.61722 0.77136 0.0
H149 H 0.73765 0.69939 0.74423 0.0
H150 H 0.81243 0.81294 0.75668 0.0
C151 C 0.87096 0.91553 0.7835 0.0
C152 C 0.83285 0.86541 0.80008 0.0
C153 C 0.78936 0.79922 0.79246 0.0
C154 C 0.74942 0.75194 0.80806 0.0
C155 C 0.70611 0.68617 0.8 0.0
C156 C 0.70233 0.66769 0.77722 0.0
C157 C 0.74102 0.71395 0.76194 0.0
C158 C 0.78393 0.77901 0.76935 0.0
H159 H 0.6434 0.75119 0.85105 0.0
C160 C 0.65705 0.71617 0.85558 0.0
H161 H 0.72459 0.68525 0.85131 0.0
H162 H 0.91124 0.988 0.82005 0.0
H163 H 0.91819 0.01882 0.85998 0.0
H164 H 0.85054 0.9364 0.88722 0.0
H165 H 0.77495 0.8229 0.8747 0.0
C166 C 0.71138 0.72089 0.84732 0.0
C167 C 0.7525 0.77107 0.83115 0.0
C168 C 0.7967 0.83708 0.83884 0.0
C169 C 0.83651 0.88442 0.82321 0.0
C170 C 0.87996 0.95011 0.83124 0.0
C171 C 0.88453 0.96841 0.85411 0.0
C172 C 0.84639 0.92201 0.86945 0.0
C173 C 0.80298 0.85704 0.86201 0.0
H174 H 0.15645 0.95576 0.12643 0.0
C175 C 0.11449 0.95529 0.11775 0.0
H176 H 0.00927 0.90398 0.11207 0.0
H177 H 0.98312 0.63775 0.13954 0.0
H178 H 0.94663 0.61517 0.09946 0.0
H179 H 0.95162 0.70061 0.07576 0.0
H180 H 0.99352 0.80935 0.09197 0.0
C181 C 0.05185 0.90653 0.12111 0.0
C182 C 0.03977 0.85272 0.13613 0.0
C183 C 0.01317 0.78884 0.12655 0.0
C184 C 0.00962 0.73929 0.1403 0.0
C185 C 0.98584 0.67685 0.13003 0.0
C186 C 0.96493 0.66328 0.107 0.0
C187 C 0.96778 0.71141 0.09365 0.0
C188 C 0.99187 0.77362 0.10318 0.0
H189 H 0.93521 0.64042 0.18055 0.0
C190 C 0.98565 0.65255 0.18535 0.0
H191 H 0.0889 0.71972 0.18297 0.0
H192 H 0.08072 0.96612 0.16075 0.0
H193 H 0.11469 0.98811 0.20105 0.0
H194 H 0.11123 0.90322 0.22468 0.0
H195 H 0.07239 0.79539 0.20827 0.0
C196 C 0.03836 0.7061 0.17748 0.0
C197 C 0.0318 0.75362 0.16366 0.0
C198 C 0.05456 0.8164 0.17351 0.0
C199 C 0.05789 0.86577 0.1598 0.0
C200 C 0.07921 0.92748 0.17023 0.0
C201 C 0.09835 0.94059 0.19339 0.0
C202 C 0.09626 0.89276 0.2067 0.0
C203 C 0.07427 0.83119 0.19702 0.0
H204 H 0.14474 0.12394 0.4669 0.0
C205 C 0.13467 0.10301 0.44963 0.0
H206 H 0.1614 0.05945 0.4247 0.0
H207 H 0.38945 0.17985 0.51536 0.0
H208 H 0.40384 0.28483 0.50862 0.0
H209 H 0.34003 0.29739 0.47686 0.0
H210 H 0.25915 0.20414 0.45241 0.0
C211 C 0.17164 0.08031 0.44197 0.0
C212 C 0.22211 0.07682 0.45725 0.0
C213 C 0.27391 0.13305 0.4699 0.0
C214 C 0.31554 0.12708 0.48671 0.0
C215 C 0.36045 0.18241 0.50112 0.0
C216 C 0.36865 0.24296 0.49762 0.0
C217 C 0.3324 0.24993 0.47985 0.0
C218 C 0.28556 0.19582 0.46611 0.0
H219 H 0.44561 0.13371 0.49274 0.0
C220 C 0.42336 0.09658 0.5052 0.0
H221 H 0.33421 0.02312 0.51832 0.0
H222 H 0.12942 0.95885 0.4356 0.0
H223 H 0.12338 0.85661 0.43949 0.0
H224 H 0.20377 0.84907 0.46552 0.0
H225 H 0.29016 0.94372 0.48807 0.0
C226 C 0.35649 0.05984 0.50571 0.0
C227 C 0.31084 0.06638 0.489 0.0
C228 C 0.2617 0.011 0.47538 0.0
C229 C 0.21661 0.01589 0.45981 0.0
C230 C 0.16622 0.95883 0.44724 0.0
C231 C 0.16193 0.8995 0.44936 0.0
C232 C 0.2071 0.89523 0.46404 0.0
C233 C 0.25639 0.95004 0.47695 0.0
H234 H 0.12672 0.23447 0.79521 0.0
C235 C 0.13274 0.20664 0.78196 0.0
H236 H 0.20043 0.18848 0.76649 0.0
H237 H 0.45971 0.45802 0.80021 0.0
H238 H 0.45763 0.46883 0.75931 0.0
H239 H 0.36196 0.38595 0.73424 0.0
H240 H 0.26781 0.29182 0.74983 0.0
C241 C 0.19343 0.21566 0.7797 0.0
C242 C 0.25292 0.26356 0.79479 0.0
C243 C 0.30781 0.31798 0.78533 0.0
C244 C 0.36284 0.36606 0.79978 0.0
C245 C 0.41657 0.42035 0.78997 0.0
C246 C 0.41605 0.42707 0.76654 0.0
C247 C 0.3622 0.38036 0.75242 0.0
C248 C 0.3085 0.32647 0.76161 0.0
H249 H 0.47856 0.37821 0.84297 0.0
C250 C 0.46962 0.41631 0.84778 0.0
H251 H 0.40546 0.45219 0.84364 0.0
H252 H 0.16276 0.15885 0.81815 0.0
H253 H 0.16558 0.14831 0.85896 0.0
H254 H 0.25811 0.23465 0.88412 0.0
H255 H 0.34881 0.33169 0.86857 0.0
C256 C 0.41497 0.41442 0.83892 0.0
C257 C 0.36294 0.35966 0.82362 0.0
C258 C 0.30956 0.30393 0.83302 0.0
C259 C 0.25506 0.25521 0.81857 0.0
C260 C 0.20395 0.1987 0.82837 0.0
C261 C 0.20524 0.19173 0.85178 0.0
C262 C 0.25738 0.24028 0.86594 0.0
C263 C 0.30913 0.29577 0.85678 0.0
H264 H 0.85675 0.14208 0.69928 0.0
C265 C 0.90167 0.1434 0.69506 0.0
H266 H 0.96425 0.15433 0.66913 0.0
H267 H 0.73104 0.03714 0.59162 0.0
H268 H 0.78143 0.97321 0.58684 0.0
H269 H 0.87368 0.98961 0.61338 0.0
H270 H 0.91669 0.07037 0.64457 0.0
C271 C 0.92022 0.15423 0.67357 0.0
C272 C 0.87369 0.15291 0.65507 0.0
C273 C 0.84891 0.10478 0.63694 0.0
C274 C 0.79441 0.09396 0.62198 0.0
C275 C 0.77121 0.0463 0.60382 0.0
C276 C 0.79984 0.00938 0.60081 0.0
C277 C 0.85184 0.01871 0.61572 0.0
C278 C 0.87613 0.06553 0.63362 0.0
H279 H 0.74055 0.20006 0.59547 0.0
C280 C 0.69762 0.15086 0.59668 0.0
H281 H 0.65893 0.06126 0.61237 0.0
H282 H 0.92215 0.26147 0.68322 0.0
H283 H 0.87169 0.32568 0.68817 0.0
H284 H 0.76893 0.29852 0.66539 0.0
H285 H 0.71735 0.20875 0.63711 0.0
C286 C 0.70092 0.11118 0.61164 0.0
C287 C 0.76368 0.12998 0.62545 0.0
C288 C 0.79111 0.18084 0.64266 0.0
C289 C 0.84778 0.19386 0.65686 0.0
C290 C 0.87702 0.24756 0.67287 0.0
C291 C 0.8489 0.28503 0.67574 0.0
C292 C 0.79123 0.26992 0.66284 0.0
C293 C 0.76235 0.21841 0.64652 0.0
H294 H 0.9059 0.97985 1.00121 0.0
C295 C 0.93399 0.97364 0.01504 0.0
H296 H 0.95001 0.90607 0.03203 0.0
H297 H 0.66545 0.66587 0.99346 0.0
H298 H 0.64528 0.67024 0.03324 0.0
H299 H 0.72982 0.75987 0.0595 0.0
H300 H 0.83512 0.8457 0.04618 0.0
C301 C 0.92314 0.9139 0.01823 0.0
C302 C 0.87446 0.85705 0.00279 0.0
C303 C 0.81366 0.80691 0.0109 0.0
C304 C 0.7647 0.75548 0.99571 0.0
C305 C 0.70406 0.70637 0.00423 0.0
C306 C 0.69194 0.7082 0.02702 0.0
C307 C 0.73956 0.75864 0.04182 0.0
C308 C 0.79979 0.80758 0.03395 0.0
H309 H 0.76309 0.64887 0.94965 0.0
C310 C 0.72196 0.65591 0.94579 0.0
H311 H 0.67983 0.71207 0.95279 0.0
H312 H 0.99031 0.9391 0.98258 0.0
H313 H 0.00986 0.93594 0.94273 0.0
H314 H 0.92229 0.85093 0.91584 0.0
H315 H 0.81543 0.7678 0.92872 0.0
C316 C 0.7216 0.70571 0.95614 0.0
C317 C 0.77667 0.75415 0.97245 0.0
C318 C 0.83848 0.80319 0.96447 0.0
C319 C 0.88792 0.85391 0.97977 0.0
C320 C 0.95009 0.90089 0.97154 0.0
C321 C 0.96214 0.89943 0.94872 0.0
C322 C 0.91294 0.85144 0.93361 0.0
C323 C 0.85178 0.8038 0.94127 0.0
H324 H 0.93287 0.8329 0.33795 0.0
C325 C 0.9723 0.87708 0.34717 0.0
H326 H 0.07679 0.94067 0.35378 0.0
H327 H 0.12183 0.71291 0.32318 0.0
H328 H 0.15685 0.72825 0.36339 0.0
H329 H 0.14576 0.80465 0.38812 0.0
H330 H 0.09923 0.86595 0.37282 0.0
C331 C 0.03652 0.89772 0.34428 0.0
C332 C 0.05352 0.86023 0.32874 0.0
C333 C 0.08283 0.82643 0.3378 0.0
C334 C 0.08977 0.78275 0.32348 0.0
C335 C 0.11625 0.7473 0.3332 0.0
C336 C 0.13642 0.75556 0.35627 0.0
C337 C 0.13015 0.79855 0.3702 0.0
C338 C 0.10341 0.83348 0.3612 0.0
H339 H 0.16535 0.76269 0.28166 0.0
C340 C 0.11499 0.72166 0.27719 0.0
H341 H 0.01185 0.67954 0.28083 0.0
H342 H 0.00901 0.92811 0.3051 0.0
H343 H 0.9769 0.91519 0.26469 0.0
H344 H 0.98614 0.83748 0.24004 0.0
H345 H 0.02898 0.77329 0.25556 0.0
C346 C 0.06234 0.71953 0.28587 0.0
C347 C 0.0681 0.77374 0.3001 0.0
C348 C 0.04337 0.81117 0.29075 0.0
C349 C 0.03672 0.85495 0.30503 0.0
C350 C 0.01313 0.89266 0.29514 0.0
C351 C 0.99502 0.8861 0.27194 0.0
C352 C 1.00036 0.84245 0.25805 0.0
C353 C 0.0246 0.80559 0.26722 0.0
H354 H 0.19197 0.1152 0.67487 0.0
C355 C 0.16887 0.06576 0.6806 0.0
H356 H 0.16504 0.97671 0.67803 0.0
H357 H 0.28121 0.02533 0.5814 0.0
H358 H 0.16279 0.9554 0.57032 0.0
H359 H 0.07853 0.92709 0.59833 0.0
H360 H 0.11217 0.969 0.63752 0.0
C361 C 0.18929 0.02696 0.67309 0.0
C362 C 0.2403 0.04839 0.65602 0.0
C363 C 0.21981 0.02287 0.63326 0.0
C364 C 0.26837 0.03818 0.61723 0.0
C365 C 0.24644 0.01358 0.59444 0.0
C366 C 0.17862 0.97382 0.58781 0.0
C367 C 0.13118 0.95795 0.60357 0.0
C368 C 0.1512 0.98218 0.62603 0.0
H369 H 0.35684 0.98558 0.61019 0.0
C370 C 0.39126 0.03199 0.603 0.0
H371 H 0.42261 0.13164 0.60203 0.0
H372 H 0.29648 0.10829 0.69798 0.0
H373 H 0.41479 0.18092 0.70865 0.0
H374 H 0.49894 0.2074 0.68076 0.0
H375 H 0.46524 0.1613 0.64199 0.0
C376 C 0.38814 0.08426 0.60854 0.0
C377 C 0.33744 0.07761 0.62413 0.0
C378 C 0.35784 0.10627 0.6465 0.0
C379 C 0.30921 0.09137 0.66254 0.0
C380 C 0.33114 0.11867 0.68503 0.0
C381 C 0.39894 0.16027 0.6914 0.0
C382 C 0.44634 0.17515 0.6757 0.0
C383 C 0.42634 0.14837 0.65351 0.0
H384 H 0.25065 0.16279 0.00929 0.0
C385 C 0.22113 0.18036 0.01635 0.0
H386 H 0.19737 0.25325 0.01582 0.0
H387 H 0.49423 0.43583 0.98003 0.0
H388 H 0.53267 0.43321 0.01869 0.0
H389 H 0.45367 0.35945 0.04581 0.0
H390 H 0.33598 0.28765 0.0344 0.0
C391 C 0.2266 0.23518 0.00892 0.0
C392 C 0.27501 0.27579 0.99215 0.0
C393 C 0.34373 0.31755 0.99919 0.0
C394 C 0.38916 0.36055 0.98365 0.0
C395 C 0.45752 0.40201 0.99111 0.0
C396 C 0.48028 0.40116 0.01329 0.0
C397 C 0.43581 0.35962 0.02854 0.0
C398 C 0.3683 0.31841 0.02172 0.0
H399 H 0.38032 0.47258 0.94494 0.0
C400 C 0.41628 0.46175 0.93895 0.0
H401 H 0.45037 0.39666 0.93963 0.0
H402 H 0.14687 0.20153 0.97332 0.0
H403 H 0.10859 0.20321 0.93443 0.0
H404 H 0.18773 0.2767 0.90728 0.0
H405 H 0.30545 0.34933 0.91884 0.0
C406 C 0.41385 0.40729 0.94518 0.0
C407 C 0.36564 0.3624 0.96124 0.0
C408 C 0.29717 0.31991 0.95408 0.0
C409 C 0.25169 0.2769 0.96964 0.0
C410 C 0.18347 0.2352 0.96216 0.0
C411 C 0.1609 0.23555 0.93989 0.0
C412 C 0.20545 0.27698 0.92461 0.0
C413 C 0.27287 0.31865 0.9315 0.0
H414 H 0.06189 0.20087 0.34332 0.0
C415 C 0.04204 0.21049 0.35806 0.0
H416 H 0.00654 0.26623 0.37222 0.0
H417 H 0.13089 0.50917 0.31389 0.0
H418 H 0.1981 0.55538 0.34941 0.0
H419 H 0.19344 0.48443 0.37982 0.0
H420 H 0.12106 0.36676 0.37494 0.0
C421 C 0.02693 0.25687 0.35758 0.0
C422 C 0.03675 0.29769 0.33774 0.0
C423 C 0.08051 0.3663 0.34061 0.0
C424 C 0.0842 0.4071 0.3229 0.0
C425 C 0.12686 0.47565 0.32658 0.0
C426 C 0.16566 0.50293 0.34694 0.0
C427 C 0.16295 0.463 0.36407 0.0
C428 C 0.12097 0.39551 0.36106 0.0
H429 H 0.94708 0.39479 0.28387 0.0
C430 C 0.99535 0.42667 0.27707 0.0
H431 H 0.09668 0.45498 0.27738 0.0
H432 H 0.94318 0.16813 0.32689 0.0
H433 H 0.88221 0.12176 0.29046 0.0
H434 H 0.89747 0.192 0.25849 0.0
H435 H 0.97261 0.30935 0.26305 0.0
C436 C 0.04822 0.42272 0.284 0.0
C437 C 0.04484 0.37916 0.30216 0.0
C438 C 1.00367 0.31036 0.29879 0.0
C439 C 0.99798 0.26959 0.31684 0.0
C440 C 0.95227 0.2014 0.31354 0.0
C441 C 0.91644 0.17404 0.2927 0.0
C442 C 0.92482 0.21359 0.27474 0.0
C443 C 0.96778 0.28097 0.27764 0.0
loop_
_geom_bond_atom_site_label_1
_geom_bond_atom_site_label_2
_geom_bond_distance
_geom_bond_site_symmetry_2
_ccdc_geom_bond_type
Mg0 O1 2.028 . S
Mg0 O7 1.986 . S
Mg0 O9 2.114 . S
Mg0 O10 2.251 . S
Mg0 O13 2.010 . S
O1 Mg0 2.028 . S
O1 C4 1.250 1_455 S
O2 Mg3 2.028 1_655 S
O2 C4 1.248 . S
Mg3 O2 2.028 1_455 S
Mg3 O8 2.032 . S
Mg3 O10 2.079 . S
C4 O1 1.250 1_655 S
C4 O2 1.248 . S
C5 O6 1.264 1_565 S
C5 O13 1.249 1_565 S
O6 C5 1.264 1_545 S
O7 Mg0 1.986 . S
O7 C11 1.246 . S
O8 Mg3 2.032 . S
O8 C11 1.259 . S
O9 Mg0 2.114 . S
O9 C12 1.252 . S
O10 Mg0 2.251 . S
O10 Mg3 2.079 . S
O10 C12 1.273 . S
C11 O7 1.246 . S
C11 O8 1.259 . S
C12 O9 1.252 . S
C12 O10 1.273 . S
O13 Mg0 2.010 . S
O13 C5 1.249 1_545 S
Mg14 O15 2.028 1_655 S
Mg14 O21 1.986 1_655 S
Mg14 O23 2.114 1_545 S
Mg14 O24 2.251 . S
Mg14 O27 2.010 1_545 S
O15 Mg14 2.028 1_455 S
O15 C18 1.250 . S
O16 Mg17 2.028 . S
O16 C18 1.248 . S
Mg17 O16 2.028 . S
Mg17 O22 2.032 . S
Mg17 O24 2.079 1_455 S
C18 O15 1.250 . S
C18 O16 1.248 . S
C19 O20 1.264 . S
C19 O27 1.249 . S
O20 C19 1.264 . S
O21 Mg14 1.986 1_455 S
O21 C25 1.246 . S
O22 Mg17 2.032 . S
O22 C25 1.259 . S
O23 Mg14 2.114 1_565 S
O23 C26 1.252 1_565 S
O24 Mg14 2.251 . S
O24 Mg17 2.079 1_655 S
O24 C26 1.273 . S
C25 O21 1.246 . S
C25 O22 1.259 . S
C26 O23 1.252 1_545 S
C26 O24 1.273 . S
O27 Mg14 2.010 1_565 S
O27 C19 1.249 . S
Mg28 O29 2.028 . S
Mg28 O35 1.986 1_455 S
Mg28 O37 2.114 1_545 S
Mg28 O38 2.251 1_445 S
Mg28 O41 2.010 . S
O29 Mg28 2.028 . S
O29 C32 1.250 . S
O30 Mg31 2.028 1_455 S
O30 C32 1.248 . S
Mg31 O30 2.028 1_655 S
Mg31 O36 2.032 . S
Mg31 O38 2.079 1_545 S
C32 O29 1.250 . S
C32 O30 1.248 . S
C33 O34 1.259 1_545 S
C33 O41 1.253 . S
O34 C33 1.259 1_565 S
O35 Mg28 1.986 1_655 S
O35 C39 1.246 . S
O36 Mg31 2.032 . S
O36 C39 1.259 . S
O37 Mg28 2.114 1_565 S
O37 C40 1.252 1_455 S
O38 Mg28 2.251 1_665 S
O38 Mg31 2.079 1_565 S
O38 C40 1.273 . S
C39 O35 1.246 . S
C39 O36 1.259 . S
C40 O37 1.252 1_655 S
C40 O38 1.273 . S
O41 Mg28 2.010 . S
O41 C33 1.253 . S
C42 O44 1.247 . S
C42 O46 1.258 1_455 S
C43 O50 1.247 1_455 S
C43 O51 1.258 . S
O44 C42 1.247 . S
O44 Zn45 2.028 . S
Zn45 O44 2.028 . S
Zn45 O49 2.035 . S
Zn45 O51 2.035 . S
Zn45 O52 2.028 . S
O46 C42 1.258 1_655 S
O46 Zn47 2.035 . S
Zn47 O46 2.035 . S
Zn47 O48 2.028 . S
Zn47 O50 2.028 . S
Zn47 O53 2.035 . S
O48 Zn47 2.028 . S
O48 C54 1.247 1_655 S
O49 Zn45 2.035 . S
O49 C54 1.258 . S
O50 C43 1.247 1_655 S
O50 Zn47 2.028 . S
O51 C43 1.258 . S
O51 Zn45 2.035 . S
O52 Zn45 2.028 . S
O52 C55 1.247 . S
O53 Zn47 2.035 . S
O53 C55 1.258 1_655 S
C54 O48 1.247 1_455 S
C54 O49 1.258 . S
C55 O52 1.247 . S
C55 O53 1.258 1_455 S
C56 O58 1.247 . S
C56 O60 1.258 . S
C57 O64 1.247 . S
C57 O65 1.258 . S
O58 C56 1.247 . S
O58 Zn59 2.028 . S
Zn59 O58 2.028 . S
Zn59 O63 2.035 . S
Zn59 O65 2.035 . S
Zn59 O66 2.028 . S
O60 C56 1.258 . S
O60 Zn61 2.035 . S
Zn61 O60 2.035 . S
Zn61 O62 2.028 . S
Zn61 O64 2.028 . S
Zn61 O67 2.035 . S
O62 Zn61 2.028 . S
O62 C68 1.247 . S
O63 Zn59 2.035 . S
O63 C68 1.258 . S
O64 C57 1.247 . S
O64 Zn61 2.028 . S
O65 C57 1.258 . S
O65 Zn59 2.035 . S
O66 Zn59 2.028 . S
O66 C69 1.247 . S
O67 Zn61 2.035 . S
O67 C69 1.258 . S
C68 O62 1.247 . S
C68 O63 1.258 . S
C69 O66 1.247 . S
C69 O67 1.258 . S
C70 O72 1.247 . S
C70 O74 1.258 . S
C71 O78 1.247 . S
C71 O79 1.258 . S
O72 C70 1.247 . S
O72 Zn73 2.028 . S
Zn73 O72 2.028 . S
Zn73 O77 2.035 . S
Zn73 O79 2.035 . S
Zn73 O80 2.028 . S
O74 C70 1.258 . S
O74 Zn75 2.035 . S
Zn75 O74 2.035 . S
Zn75 O76 2.028 . S
Zn75 O78 2.028 . S
Zn75 O81 2.035 . S
O76 Zn75 2.028 . S
O76 C82 1.247 . S
O77 Zn73 2.035 . S
O77 C82 1.258 . S
O78 C71 1.247 . S
O78 Zn75 2.028 . S
O79 C71 1.258 . S
O79 Zn73 2.035 . S
O80 Zn73 2.028 . S
O80 C83 1.247 . S
O81 Zn75 2.035 . S
O81 C83 1.258 . S
C82 O76 1.247 . S
C82 O77 1.258 . S
C83 O80 1.247 . S
C83 O81 1.258 . S
H84 C85 0.951 1_655 S
C85 H84 0.951 1_455 S
C85 C91 1.265 . S
H86 C91 0.950 . S
H87 C95 0.949 . S
H88 C96 0.950 . S
H89 C97 0.951 . S
H90 C98 0.951 . S
C91 C85 1.265 . S
C91 H86 0.950 . S
C91 C92 1.478 . S
C92 C91 1.478 . S
C92 C93 1.397 . S
C92 C109 1.394 1_455 S
C93 C92 1.397 . S
C93 C94 1.438 . S
C93 C98 1.429 . S
C94 C93 1.438 . S
C94 C95 1.428 . S
C94 C107 1.394 . S
C95 H87 0.949 . S
C95 C94 1.428 . S
C95 C96 1.345 . S
C96 H88 0.950 . S
C96 C95 1.345 . S
C96 C97 1.424 . S
C97 H89 0.951 . S
C97 C96 1.424 . S
C97 C98 1.347 . S
C98 H90 0.951 . S
C98 C93 1.429 . S
C98 C97 1.347 . S
H99 C100 0.951 . S
C100 H99 0.951 . S
C100 C106 1.265 . S
H101 C106 0.950 1_655 S
H102 C110 0.949 . S
H103 C111 0.950 . S
H104 C112 0.951 . S
H105 C113 0.951 . S
C106 C100 1.265 . S
C106 H101 0.950 1_455 S
C106 C107 1.478 . S
C107 C94 1.394 . S
C107 C106 1.478 . S
C107 C108 1.397 1_455 S
C108 C107 1.397 1_655 S
C108 C109 1.438 . S
C108 C113 1.429 . S
C109 C92 1.394 1_655 S
C109 C108 1.438 . S
C109 C110 1.428 . S
C110 H102 0.949 . S
C110 C109 1.428 . S
C110 C111 1.345 . S
C111 H103 0.950 . S
C111 C110 1.345 . S
C111 C112 1.424 . S
C112 H104 0.951 . S
C112 C111 1.424 . S
C112 C113 1.347 . S
C113 H105 0.951 . S
C113 C108 1.429 . S
C113 C112 1.347 . S
H114 C115 0.951 . S
C115 H114 0.951 . S
C115 C121 1.265 . S
H116 C121 0.950 . S
H117 C125 0.949 . S
H118 C126 0.950 . S
H119 C127 0.951 . S
H120 C128 0.951 . S
C121 C115 1.265 . S
C121 H116 0.950 . S
C121 C122 1.478 . S
C122 C121 1.478 . S
C122 C123 1.397 . S
C122 C139 1.394 1_545 S
C123 C122 1.397 . S
C123 C124 1.438 . S
C123 C128 1.429 . S
C124 C123 1.438 . S
C124 C125 1.428 . S
C124 C137 1.394 . S
C125 H117 0.949 . S
C125 C124 1.428 . S
C125 C126 1.345 . S
C126 H118 0.950 . S
C126 C125 1.345 . S
C126 C127 1.424 . S
C127 H119 0.951 . S
C127 C126 1.424 . S
C127 C128 1.347 . S
C128 H120 0.951 . S
C128 C123 1.429 . S
C128 C127 1.347 . S
H129 C130 0.951 . S
C130 H129 0.951 . S
C130 C136 1.265 . S
H131 C136 0.950 . S
H132 C140 0.949 . S
H133 C141 0.950 . S
H134 C142 0.951 . S
H135 C143 0.951 . S
C136 C130 1.265 . S
C136 H131 0.950 . S
C136 C137 1.478 . S
C137 C124 1.394 . S
C137 C136 1.478 . S
C137 C138 1.397 1_545 S
C138 C137 1.397 1_565 S
C138 C139 1.438 . S
C138 C143 1.429 . S
C139 C122 1.394 1_565 S
C139 C138 1.438 . S
C139 C140 1.428 . S
C140 H132 0.949 . S
C140 C139 1.428 . S
C140 C141 1.345 . S
C141 H133 0.950 . S
C141 C140 1.345 . S
C141 C142 1.424 . S
C142 H134 0.951 . S
C142 C141 1.424 . S
C142 C143 1.347 . S
C143 H135 0.951 . S
C143 C138 1.429 . S
C143 C142 1.347 . S
H144 C145 0.951 . S
C145 H144 0.951 . S
C145 C151 1.265 . S
H146 C151 0.950 . S
H147 C155 0.949 . S
H148 C156 0.950 . S
H149 C157 0.951 . S
H150 C158 0.951 . S
C151 C145 1.265 . S
C151 H146 0.950 . S
C151 C152 1.478 . S
C152 C151 1.478 . S
C152 C153 1.397 . S
C152 C169 1.394 . S
C153 C152 1.397 . S
C153 C154 1.438 . S
C153 C158 1.429 . S
C154 C153 1.438 . S
C154 C155 1.428 . S
C154 C167 1.394 . S
C155 H147 0.949 . S
C155 C154 1.428 . S
C155 C156 1.345 . S
C156 H148 0.950 . S
C156 C155 1.345 . S
C156 C157 1.424 . S
C157 H149 0.951 . S
C157 C156 1.424 . S
C157 C158 1.347 . S
C158 H150 0.951 . S
C158 C153 1.429 . S
C158 C157 1.347 . S
H159 C160 0.951 . S
C160 H159 0.951 . S
C160 C166 1.265 . S
H161 C166 0.950 . S
H162 C170 0.949 . S
H163 C171 0.963 . S
H164 C172 0.951 . S
H165 C173 0.951 . S
C166 C160 1.265 . S
C166 H161 0.950 . S
C166 C167 1.478 . S
C167 C154 1.394 . S
C167 C166 1.478 . S
C167 C168 1.397 . S
C168 C167 1.397 . S
C168 C169 1.438 . S
C168 C173 1.429 . S
C169 C152 1.394 . S
C169 C168 1.438 . S
C169 C170 1.428 . S
C170 H162 0.949 . S
C170 C169 1.428 . S
C170 C171 1.345 . S
C171 H163 0.963 . S
C171 C170 1.345 . S
C171 C172 1.424 . S
C172 H164 0.951 . S
C172 C171 1.424 . S
C172 C173 1.347 . S
C173 H165 0.951 . S
C173 C168 1.429 . S
C173 C172 1.347 . S
H174 C175 0.951 . S
C175 H174 0.951 . S
C175 C181 1.265 . S
H176 C181 0.950 . S
H177 C185 0.949 . S
H178 C186 0.950 . S
H179 C187 0.951 . S
H180 C188 0.951 . S
C181 C175 1.265 . S
C181 H176 0.950 . S
C181 C182 1.478 . S
C182 C181 1.478 . S
C182 C183 1.397 . S
C182 C199 1.394 . S
C183 C182 1.397 . S
C183 C184 1.438 . S
C183 C188 1.429 . S
C184 C183 1.438 . S
C184 C185 1.428 . S
C184 C197 1.394 . S
C185 H177 0.949 . S
C185 C184 1.428 . S
C185 C186 1.345 1_455 S
C186 H178 0.950 . S
C186 C185 1.345 1_655 S
C186 C187 1.424 . S
C187 H179 0.951 . S
C187 C186 1.424 . S
C187 C188 1.347 1_655 S
C188 H180 0.951 . S
C188 C183 1.429 . S
C188 C187 1.347 1_455 S
H189 C190 0.951 1_655 S
C190 H189 0.951 1_455 S
C190 C196 1.265 . S
H191 C196 0.950 . S
H192 C200 0.949 . S
H193 C201 0.950 1_545 S
H194 C202 0.951 . S
H195 C203 0.951 . S
C196 C190 1.265 . S
C196 H191 0.950 . S
C196 C197 1.478 . S
C197 C184 1.394 . S
C197 C196 1.478 . S
C197 C198 1.397 . S
C198 C197 1.397 . S
C198 C199 1.438 . S
C198 C203 1.429 . S
C199 C182 1.394 . S
C199 C198 1.438 . S
C199 C200 1.428 . S
C200 H192 0.949 . S
C200 C199 1.428 . S
C200 C201 1.345 . S
C201 H193 0.950 1_565 S
C201 C200 1.345 . S
C201 C202 1.424 . S
C202 H194 0.951 . S
C202 C201 1.424 . S
C202 C203 1.347 . S
C203 H195 0.951 . S
C203 C198 1.429 . S
C203 C202 1.347 . S
H204 C205 0.951 . S
C205 H204 0.951 . S
C205 C211 1.265 . S
H206 C211 0.950 . S
H207 C215 0.949 . S
H208 C216 0.950 . S
H209 C217 0.951 . S
H210 C218 0.951 . S
C211 C205 1.265 . S
C211 H206 0.950 . S
C211 C212 1.478 . S
C212 C211 1.478 . S
C212 C213 1.397 . S
C212 C229 1.394 . S
C213 C212 1.397 . S
C213 C214 1.438 . S
C213 C218 1.429 . S
C214 C213 1.438 . S
C214 C215 1.428 . S
C214 C227 1.394 . S
C215 H207 0.949 . S
C215 C214 1.428 . S
C215 C216 1.345 . S
C216 H208 0.950 . S
C216 C215 1.345 . S
C216 C217 1.424 . S
C217 H209 0.951 . S
C217 C216 1.424 . S
C217 C218 1.347 . S
C218 H210 0.951 . S
C218 C213 1.429 . S
C218 C217 1.347 . S
H219 C220 0.951 . S
C220 H219 0.951 . S
C220 C226 1.265 . S
H221 C226 0.950 . S
H222 C230 0.949 . S
H223 C231 0.950 . S
H224 C232 0.951 . S
H225 C233 0.951 . S
C226 C220 1.265 . S
C226 H221 0.950 . S
C226 C227 1.478 . S
C227 C214 1.394 . S
C227 C226 1.478 . S
C227 C228 1.397 . S
C228 C227 1.397 . S
C228 C229 1.438 . S
C228 C233 1.429 1_545 S
C229 C212 1.394 . S
C229 C228 1.438 . S
C229 C230 1.428 1_545 S
C230 H222 0.949 . S
C230 C229 1.428 1_565 S
C230 C231 1.345 . S
C231 H223 0.950 . S
C231 C230 1.345 . S
C231 C232 1.424 . S
C232 H224 0.951 . S
C232 C231 1.424 . S
C232 C233 1.347 . S
C233 H225 0.951 . S
C233 C228 1.429 1_565 S
C233 C232 1.347 . S
H234 C235 0.951 . S
C235 H234 0.951 . S
C235 C241 1.265 . S
H236 C241 0.950 . S
H237 C245 0.949 . S
H238 C246 0.950 . S
H239 C247 0.951 . S
H240 C248 0.951 . S
C241 C235 1.265 . S
C241 H236 0.950 . S
C241 C242 1.478 . S
C242 C241 1.478 . S
C242 C243 1.397 . S
C242 C259 1.394 . S
C243 C242 1.397 . S
C243 C244 1.438 . S
C243 C248 1.429 . S
C244 C243 1.438 . S
C244 C245 1.428 . S
C244 C257 1.394 . S
C245 H237 0.949 . S
C245 C244 1.428 . S
C245 C246 1.345 . S
C246 H238 0.950 . S
C246 C245 1.345 . S
C246 C247 1.424 . S
C247 H239 0.951 . S
C247 C246 1.424 . S
C247 C248 1.347 . S
C248 H240 0.951 . S
C248 C243 1.429 . S
C248 C247 1.347 . S
H249 C250 0.951 . S
C250 H249 0.951 . S
C250 C256 1.265 . S
H251 C256 0.950 . S
H252 C260 0.949 . S
H253 C261 0.950 . S
H254 C262 0.951 . S
H255 C263 0.951 . S
C256 C250 1.265 . S
C256 H251 0.950 . S
C256 C257 1.478 . S
C257 C244 1.394 . S
C257 C256 1.478 . S
C257 C258 1.397 . S
C258 C257 1.397 . S
C258 C259 1.438 . S
C258 C263 1.429 . S
C259 C242 1.394 . S
C259 C258 1.438 . S
C259 C260 1.428 . S
C260 H252 0.949 . S
C260 C259 1.428 . S
C260 C261 1.345 . S
C261 H253 0.950 . S
C261 C260 1.345 . S
C261 C262 1.424 . S
C262 H254 0.951 . S
C262 C261 1.424 . S
C262 C263 1.347 . S
C263 H255 0.951 . S
C263 C258 1.429 . S
C263 C262 1.347 . S
H264 C265 0.951 . S
C265 H264 0.951 . S
C265 C271 1.265 . S
H266 C271 0.950 . S
H267 C275 0.949 . S
H268 C276 0.950 . S
H269 C277 0.951 . S
H270 C278 0.951 . S
C271 C265 1.265 . S
C271 H266 0.950 . S
C271 C272 1.478 . S
C272 C271 1.478 . S
C272 C273 1.397 . S
C272 C289 1.394 . S
C273 C272 1.397 . S
C273 C274 1.438 . S
C273 C278 1.429 . S
C274 C273 1.438 . S
C274 C275 1.428 . S
C274 C287 1.394 . S
C275 H267 0.949 . S
C275 C274 1.428 . S
C275 C276 1.345 1_545 S
C276 H268 0.950 . S
C276 C275 1.345 1_565 S
C276 C277 1.424 . S
C277 H269 0.951 . S
C277 C276 1.424 . S
C277 C278 1.347 1_565 S
C278 H270 0.951 . S
C278 C273 1.429 . S
C278 C277 1.347 1_545 S
H279 C280 0.951 . S
C280 H279 0.951 . S
C280 C286 1.265 . S
H281 C286 0.950 . S
H282 C290 0.949 . S
H283 C291 0.950 . S
H284 C292 0.951 . S
H285 C293 0.951 . S
C286 C280 1.265 . S
C286 H281 0.950 . S
C286 C287 1.478 . S
C287 C274 1.394 . S
C287 C286 1.478 . S
C287 C288 1.397 . S
C288 C287 1.397 . S
C288 C289 1.438 . S
C288 C293 1.429 . S
C289 C272 1.394 . S
C289 C288 1.438 . S
C289 C290 1.428 . S
C290 H282 0.949 . S
C290 C289 1.428 . S
C290 C291 1.345 . S
C291 H283 0.950 . S
C291 C290 1.345 . S
C291 C292 1.424 . S
C292 H284 0.951 . S
C292 C291 1.424 . S
C292 C293 1.347 . S
C293 H285 0.951 . S
C293 C288 1.429 . S
C293 C292 1.347 . S
H294 C295 0.951 . S
C295 H294 0.951 . S
C295 C301 1.265 . S
H296 C301 0.950 . S
H297 C305 0.949 . S
H298 C306 0.950 . S
H299 C307 0.951 . S
H300 C308 0.951 . S
C301 C295 1.265 . S
C301 H296 0.950 . S
C301 C302 1.478 . S
C302 C301 1.478 . S
C302 C303 1.397 1_554 S
C302 C319 1.394 1_554 S
C303 C302 1.397 1_556 S
C303 C304 1.438 . S
C303 C308 1.429 1_556 S
C304 C303 1.438 . S
C304 C305 1.428 . S
C304 C317 1.394 . S
C305 H297 0.949 . S
C305 C304 1.428 . S
C305 C306 1.345 . S
C306 H298 0.950 . S
C306 C305 1.345 . S
C306 C307 1.424 1_556 S
C307 H299 0.951 . S
C307 C306 1.424 1_554 S
C307 C308 1.347 . S
C308 H300 0.951 . S
C308 C303 1.429 1_554 S
C308 C307 1.347 . S
H309 C310 0.951 . S
C310 H309 0.951 . S
C310 C316 1.265 . S
H311 C316 0.950 . S
H312 C320 0.949 1_554 S
H313 C321 0.950 1_455 S
H314 C322 0.951 . S
H315 C323 0.951 . S
C316 C310 1.265 . S
C316 H311 0.950 . S
C316 C317 1.478 . S
C317 C304 1.394 . S
C317 C316 1.478 . S
C317 C318 1.397 . S
C318 C317 1.397 . S
C318 C319 1.438 . S
C318 C323 1.429 . S
C319 C302 1.394 1_556 S
C319 C318 1.438 . S
C319 C320 1.428 . S
C320 H312 0.949 1_556 S
C320 C319 1.428 . S
C320 C321 1.345 . S
C321 H313 0.950 1_655 S
C321 C320 1.345 . S
C321 C322 1.424 . S
C322 H314 0.951 . S
C322 C321 1.424 . S
C322 C323 1.347 . S
C323 H315 0.951 . S
C323 C318 1.429 . S
C323 C322 1.347 . S
H324 C325 0.951 . S
C325 H324 0.951 . S
C325 C331 1.265 1_655 S
H326 C331 0.950 . S
H327 C335 0.949 . S
H328 C336 0.950 . S
H329 C337 0.951 . S
H330 C338 0.951 . S
C331 C325 1.265 1_455 S
C331 H326 0.950 . S
C331 C332 1.478 . S
C332 C331 1.478 . S
C332 C333 1.397 . S
C332 C349 1.394 1_455 S
C333 C332 1.397 . S
C333 C334 1.438 . S
C333 C338 1.429 . S
C334 C333 1.438 . S
C334 C335 1.428 . S
C334 C347 1.391 1_455 S
C335 H327 0.949 . S
C335 C334 1.428 . S
C335 C336 1.345 . S
C336 H328 0.950 . S
C336 C335 1.345 . S
C336 C337 1.424 . S
C337 H329 0.951 . S
C337 C336 1.424 . S
C337 C338 1.347 . S
C338 H330 0.951 . S
C338 C333 1.429 . S
C338 C337 1.347 . S
H339 C340 0.951 . S
C340 H339 0.951 . S
C340 C346 1.265 1_455 S
H341 C346 0.950 . S
H342 C350 0.949 . S
H343 C351 0.950 . S
H344 C352 0.951 . S
H345 C353 0.951 . S
C346 C340 1.265 1_655 S
C346 H341 0.950 . S
C346 C347 1.476 . S
C347 C334 1.391 1_655 S
C347 C346 1.476 . S
C347 C348 1.402 . S
C348 C347 1.402 . S
C348 C349 1.438 . S
C348 C353 1.429 . S
C349 C332 1.394 1_655 S
C349 C348 1.438 . S
C349 C350 1.428 . S
C350 H342 0.949 . S
C350 C349 1.428 . S
C350 C351 1.345 . S
C351 H343 0.950 . S
C351 C350 1.345 . S
C351 C352 1.424 . S
C352 H344 0.951 . S
C352 C351 1.424 . S
C352 C353 1.347 . S
C353 H345 0.951 . S
C353 C348 1.429 . S
C353 C352 1.347 . S
H354 C355 0.951 . S
C355 H354 0.951 . S
C355 C361 1.265 . S
H356 C361 0.950 . S
H357 C365 0.949 . S
H358 C366 0.950 . S
H359 C367 0.951 . S
H360 C368 0.951 . S
C361 C355 1.265 . S
C361 H356 0.950 . S
C361 C362 1.478 . S
C362 C361 1.478 . S
C362 C363 1.397 1_545 S
C362 C379 1.394 . S
C363 C362 1.397 1_565 S
C363 C364 1.438 1_565 S
C363 C368 1.429 . S
C364 C363 1.438 1_545 S
C364 C365 1.428 1_545 S
C364 C377 1.394 . S
C365 H357 0.949 . S
C365 C364 1.428 1_565 S
C365 C366 1.345 . S
C366 H358 0.950 . S
C366 C365 1.345 . S
C366 C367 1.424 . S
C367 H359 0.951 . S
C367 C366 1.424 . S
C367 C368 1.347 . S
C368 H360 0.951 . S
C368 C363 1.429 . S
C368 C367 1.347 . S
H369 C370 0.951 . S
C370 H369 0.951 . S
C370 C376 1.265 . S
H371 C376 0.950 . S
H372 C380 0.949 . S
H373 C381 0.950 . S
H374 C382 0.951 . S
H375 C383 0.951 . S
C376 C370 1.265 . S
C376 H371 0.950 . S
C376 C377 1.478 . S
C377 C364 1.394 . S
C377 C376 1.478 . S
C377 C378 1.397 . S
C378 C377 1.397 . S
C378 C379 1.438 . S
C378 C383 1.429 . S
C379 C362 1.394 . S
C379 C378 1.438 . S
C379 C380 1.428 . S
C380 H372 0.949 . S
C380 C379 1.428 . S
C380 C381 1.345 . S
C381 H373 0.950 . S
C381 C380 1.345 . S
C381 C382 1.424 . S
C382 H374 0.951 . S
C382 C381 1.424 . S
C382 C383 1.347 . S
C383 H375 0.951 . S
C383 C378 1.429 . S
C383 C382 1.347 . S
H384 C385 0.951 . S
C385 H384 0.951 . S
C385 C391 1.265 . S
H386 C391 0.950 . S
H387 C395 0.949 . S
H388 C396 0.950 . S
H389 C397 0.951 . S
H390 C398 0.951 1_554 S
C391 C385 1.265 . S
C391 H386 0.950 . S
C391 C392 1.478 1_554 S
C392 C391 1.478 1_556 S
C392 C393 1.397 . S
C392 C409 1.394 . S
C393 C392 1.397 . S
C393 C394 1.438 . S
C393 C398 1.429 . S
C394 C393 1.438 . S
C394 C395 1.428 . S
C394 C407 1.394 . S
C395 H387 0.949 . S
C395 C394 1.428 . S
C395 C396 1.345 . S
C396 H388 0.950 . S
C396 C395 1.345 . S
C396 C397 1.424 . S
C397 H389 0.951 . S
C397 C396 1.424 . S
C397 C398 1.347 . S
C398 H390 0.951 1_556 S
C398 C393 1.429 . S
C398 C397 1.347 . S
H399 C400 0.951 . S
C400 H399 0.951 . S
C400 C406 1.265 . S
H401 C406 0.950 . S
H402 C410 0.955 . S
H403 C411 0.950 . S
H404 C412 0.951 . S
H405 C413 0.951 . S
C406 C400 1.265 . S
C406 H401 0.950 . S
C406 C407 1.478 . S
C407 C394 1.394 . S
C407 C406 1.478 . S
C407 C408 1.397 . S
C408 C407 1.397 . S
C408 C409 1.438 . S
C408 C413 1.429 . S
C409 C392 1.394 . S
C409 C408 1.438 . S
C409 C410 1.424 1_556 S
C410 H402 0.955 . S
C410 C409 1.424 1_554 S
C410 C411 1.342 1_554 S
C411 H403 0.950 . S
C411 C410 1.342 1_556 S
C411 C412 1.424 . S
C412 H404 0.951 . S
C412 C411 1.424 . S
C412 C413 1.347 . S
C413 H405 0.951 . S
C413 C408 1.429 . S
C413 C412 1.347 . S
H414 C415 0.951 . S
C415 H414 0.951 . S
C415 C421 1.265 . S
H416 C421 0.950 . S
H417 C425 0.949 . S
H418 C426 0.950 . S
H419 C427 0.951 . S
H420 C428 0.951 . S
C421 C415 1.265 . S
C421 H416 0.950 . S
C421 C422 1.478 . S
C422 C421 1.478 . S
C422 C423 1.397 . S
C422 C439 1.394 . S
C423 C422 1.397 . S
C423 C424 1.438 . S
C423 C428 1.429 . S
C424 C423 1.438 . S
C424 C425 1.428 . S
C424 C437 1.394 . S
C425 H417 0.949 . S
C425 C424 1.428 . S
C425 C426 1.345 . S
C426 H418 0.950 . S
C426 C425 1.345 . S
C426 C427 1.424 . S
C427 H419 0.951 . S
C427 C426 1.424 . S
C427 C428 1.347 . S
C428 H420 0.951 . S
C428 C423 1.429 . S
C428 C427 1.347 . S
H429 C430 0.951 . S
C430 H429 0.951 . S
C430 C436 1.265 . S
H431 C436 0.950 . S
H432 C440 0.949 . S
H433 C441 0.950 . S
H434 C442 0.951 . S
H435 C443 0.951 . S
C436 C430 1.265 . S
C436 H431 0.950 . S
C436 C437 1.478 . S
C437 C424 1.394 . S
C437 C436 1.478 . S
C437 C438 1.397 . S
C438 C437 1.397 . S
C438 C439 1.438 . S
C438 C443 1.429 1_455 S
C439 C422 1.394 . S
C439 C438 1.438 . S
C439 C440 1.428 1_455 S
C440 H432 0.949 . S
C440 C439 1.428 1_655 S
C440 C441 1.345 . S
C441 H433 0.950 . S
C441 C440 1.345 . S
C441 C442 1.424 . S
C442 H434 0.951 . S
C442 C441 1.424 . S
C442 C443 1.347 . S
C443 H435 0.951 . S
C443 C438 1.429 1_655 S
C443 C442 1.347 . S
C100 C43 1.396 . S
C85 C11 1.375 . S
C115 C26 1.490 . S
C130 C69 1.506 . S
C145 C40 1.402 . S
C160 C71 1.396 . S
C175 C5 1.153 . S
C190 C55 1.385 . S
C220 C57 1.499 . S
C205 C18 1.461 . S
C235 C32 1.348 . S
C250 C83 1.392 . S
C280 C56 1.283 . S
C265 C39 1.236 . S
C295 C4 1.351 1_565 S
C310 C82 1.394 . S
C340 C42 1.396 . S
C325 C19 1.222 . S
C370 C68 1.293 . S
C355 C33 1.100 . S
C400 C70 1.396 . S
C385 C12 1.385 . S
C415 C25 1.410 . S
C430 C54 1.393 . S
