# Generated by pormake.
# Topology pth, (4,4)-cn, num edge types: 1
# Building blocks:
#     Node 0, Type 0, BuildingBlock: QUQFOY_clean_sbu_1, # of connection points: 4
#     Node 1, Type 0, BuildingBlock: QUQFOY_clean_sbu_1, # of connection points: 4
#     Node 2, Type 0, BuildingBlock: QUQFOY_clean_sbu_1, # of connection points: 4
#     Node 3, Type 1, BuildingBlock: MUDLON_clean_sbu_0, # of connection points: 4
#     Node 4, Type 1, BuildingBlock: MUDLON_clean_sbu_0, # of connection points: 4
#     Node 5, Type 1, BuildingBlock: MUDLON_clean_sbu_0, # of connection points: 4
#     Edge 6, Type (0, 1), BuildingBlock: XUDNAN_clean_linker_2, # of connection points: 2
#     Edge 7, Type (0, 1), BuildingBlock: XUDNAN_clean_linker_2, # of connection points: 2
#     Edge 8, Type (0, 1), BuildingBlock: XUDNAN_clean_linker_2, # of connection points: 2
#     Edge 9, Type (0, 1), BuildingBlock: XUDNAN_clean_linker_2, # of connection points: 2
#     Edge 10, Type (0, 1), BuildingBlock: XUDNAN_clean_linker_2, # of connection points: 2
#     Edge 11, Type (0, 1), BuildingBlock: XUDNAN_clean_linker_2, # of connection points: 2
#     Edge 12, Type (0, 1), BuildingBlock: XUDNAN_clean_linker_2, # of connection points: 2
#     Edge 13, Type (0, 1), BuildingBlock: XUDNAN_clean_linker_2, # of connection points: 2
#     Edge 14, Type (0, 1), BuildingBlock: XUDNAN_clean_linker_2, # of connection points: 2
#     Edge 15, Type (0, 1), BuildingBlock: XUDNAN_clean_linker_2, # of connection points: 2
#     Edge 16, Type (0, 1), BuildingBlock: XUDNAN_clean_linker_2, # of connection points: 2
#     Edge 17, Type (0, 1), BuildingBlock: XUDNAN_clean_linker_2, # of connection points: 2
# Relax obj value: 0.038
# Max RMSD: 0.129
# Mean RMSD: 0.076
data_MOF--net-pth--node1-QUQFOY_clean_sbu_1--node2-MUDLON_clean_sbu_0--edge1-XUDNAN_clean_linker_2
_symmetry_space_group_name_H-M    P1
_symmetry_Int_Tables_number       1
_symmetry_cell_setting            triclinic
loop_
_symmetry_equiv_pos_as_xyz
'x, y, z'
_cell_length_a     21.915145
_cell_length_b     24.106376
_cell_length_c     61.83426
_cell_angle_alpha  90.152099
_cell_angle_beta   89.890951
_cell_angle_gamma 120.26092
loop_
_atom_site_label
_atom_site_type_symbol
_atom_site_fract_x
_atom_site_fract_y
_atom_site_fract_z
_atom_type_partial_charge
O0 O 0.06107 0.10462 0.06174 0.0
Cd1 Cd 0.97569 0.03746 0.07945 0.0
Cd2 Cd 0.06449 0.98827 0.08638 0.0
O3 O 0.13755 0.07906 0.07471 0.0
O4 O 0.91828 0.07829 0.08731 0.0
O5 O 0.97708 0.05576 0.11139 0.0
C6 C 0.93876 0.08118 0.10705 0.0
C7 C 0.09246 0.93973 0.11478 0.0
C8 C 0.12416 0.11607 0.06354 0.0
C9 C 0.93407 0.91154 0.05846 0.0
O10 O 0.99458 0.9221 0.06436 0.0
O11 O 0.91211 0.94905 0.0645 0.0
O12 O 0.12166 0.94884 0.09603 0.0
O13 O 0.04975 0.96124 0.11789 0.0
O14 O 0.92546 0.02367 0.43323 0.0
Cd15 Cd 0.01848 0.06106 0.4156 0.0
Cd16 Cd 0.98091 0.93268 0.41642 0.0
O17 O 0.89514 0.92137 0.43435 0.0
O18 O 0.03743 0.14787 0.40616 0.0
O19 O 0.02304 0.07204 0.38309 0.0
C20 C 0.03471 0.12953 0.38641 0.0
C21 C 0.96241 0.86303 0.38727 0.0
C22 C 0.8838 0.9665 0.43961 0.0
C23 C 0.11864 0.03033 0.43826 0.0
O24 O 0.07629 0.97222 0.43289 0.0
O25 O 0.10626 0.07447 0.43265 0.0
O26 O 0.96127 0.84547 0.40701 0.0
O27 O 0.97344 0.92028 0.38394 0.0
O28 O 0.92156 0.9918 0.73335 0.0
Cd29 Cd 0.96435 0.95069 0.75292 0.0
Cd30 Cd 0.08021 0.07696 0.74855 0.0
O31 O 1.00634 0.09365 0.73332 0.0
O32 O 0.87989 0.86985 0.76369 0.0
O33 O 0.94971 0.94998 0.78528 0.0
C34 C 0.89362 0.89431 0.78286 0.0
C35 C 0.16797 0.15412 0.77157 0.0
C36 C 0.94479 0.04975 0.72765 0.0
C37 C 0.08939 0.96469 0.72864 0.0
O38 O 0.11404 0.02478 0.73075 0.0
O39 O 0.03144 0.92485 0.73775 0.0
O40 O 0.16924 0.1622 0.75096 0.0
O41 O 0.11458 0.10323 0.7795 0.0
Mg42 Mg 1.00166 0.49827 0.24563 0.0
C43 C 0.01961 0.43031 0.28321 0.0
O44 O 0.95798 0.42503 0.28714 0.0
C45 C 0.02905 0.60937 0.21914 0.0
O46 O 0.9632 0.58387 0.22561 0.0
C47 C 0.97787 0.39001 0.21756 0.0
O48 O 0.04108 0.41168 0.22583 0.0
O49 O 0.94322 0.41741 0.22306 0.0
O50 O 0.05507 0.46292 0.26688 0.0
O51 O 0.94542 0.53146 0.26676 0.0
C52 C 0.98038 0.56429 0.28315 0.0
O53 O 0.04247 0.57055 0.28702 0.0
O54 O 0.06419 0.58298 0.22514 0.0
Mg55 Mg 0.50752 0.01283 0.58639 0.0
C56 C 0.42881 0.0212 0.55067 0.0
O57 O 0.40689 0.96013 0.55395 0.0
C58 C 0.60401 0.02775 0.62028 0.0
O59 O 0.55546 0.96665 0.61908 0.0
C60 C 0.38094 0.91519 0.61744 0.0
O61 O 0.38934 0.86724 0.61131 0.0
O62 O 0.4194 0.97062 0.60927 0.0
O63 O 0.47698 0.0624 0.56301 0.0
O64 O 0.53649 0.95629 0.56544 0.0
C65 C 0.5865 0.99528 0.55313 0.0
O66 O 0.61009 0.05701 0.55558 0.0
O67 O 0.59987 0.06647 0.60719 0.0
Mg68 Mg 0.50562 0.51284 0.92156 0.0
C69 C 0.51051 0.43904 0.88086 0.0
O70 O 0.5739 0.48918 0.87815 0.0
C71 C 0.60393 0.59846 0.95257 0.0
O72 O 0.55032 0.60838 0.95125 0.0
C73 C 0.44495 0.43457 0.95887 0.0
O74 O 0.50071 0.43148 0.95287 0.0
O75 O 0.42721 0.46838 0.94756 0.0
O76 O 0.47623 0.43544 0.89793 0.0
O77 O 0.52706 0.59975 0.90385 0.0
C78 C 0.52283 0.60059 0.88332 0.0
O79 O 0.48428 0.54614 0.87301 0.0
O80 O 0.60334 0.55513 0.94051 0.0
H81 H 0.00662 0.12924 0.14573 0.0
H82 H 0.83905 0.11794 0.1054 0.0
H83 H 0.82291 0.18858 0.13099 0.0
H84 H 0.93235 0.13731 0.19856 0.0
H85 H 0.01796 0.19433 0.20927 0.0
H86 H 0.00997 0.13667 0.18921 0.0
H87 H 0.10028 0.22923 0.16487 0.0
H88 H 0.1083 0.28707 0.18478 0.0
H89 H 0.08399 0.29287 0.1574 0.0
H90 H 0.83106 0.26757 0.16013 0.0
H91 H 0.8661 0.34959 0.18909 0.0
H92 H 0.03064 0.31101 0.20921 0.0
C93 C 0.96529 0.14024 0.14256 0.0
C94 C 0.92349 0.1173 0.12367 0.0
C95 C 0.87136 0.13446 0.11984 0.0
C96 C 0.86173 0.17455 0.13431 0.0
C97 C 0.90485 0.19749 0.15256 0.0
C98 C 0.95561 0.18084 0.15669 0.0
C99 C 0.99901 0.21585 0.17642 0.0
C100 C 0.98921 0.16819 0.19443 0.0
C101 C 0.07752 0.2588 0.17051 0.0
C102 C 0.96567 0.25559 0.18254 0.0
C103 C 0.9108 0.24387 0.16882 0.0
C104 C 0.87366 0.2767 0.17106 0.0
C105 C 0.89379 0.32315 0.18757 0.0
C106 C 0.95111 0.33692 0.20143 0.0
C107 C 0.98657 0.30181 0.19892 0.0
H108 H 0.85703 0.05524 0.45811 0.0
H109 H 0.78045 0.85053 0.45633 0.0
H110 H 0.69168 0.83325 0.48439 0.0
H111 H 0.84556 0.06667 0.51444 0.0
H112 H 0.81925 0.12639 0.51325 0.0
H113 H 0.87205 0.12126 0.49189 0.0
H114 H 0.77842 0.10828 0.46364 0.0
H115 H 0.72553 0.11387 0.48491 0.0
H116 H 0.68782 0.0454 0.46703 0.0
H117 H 0.61418 0.8405 0.51464 0.0
H118 H 0.55712 0.87187 0.54315 0.0
H119 H 0.68875 0.07144 0.52447 0.0
C120 C 0.82096 1.0065 0.46328 0.0
C121 C 0.82563 0.95422 0.45484 0.0
C122 C 0.77779 0.89141 0.46243 0.0
C123 C 0.72719 0.88113 0.4784 0.0
C124 C 0.72511 0.93412 0.48665 0.0
C125 C 0.77078 0.99552 0.47922 0.0
C126 C 0.76072 0.04501 0.49122 0.0
C127 C 0.8284 0.09261 0.50342 0.0
C128 C 0.73667 0.08019 0.47578 0.0
C129 C 0.70245 1.00216 0.5067 0.0
C130 C 0.68207 0.93827 0.50389 0.0
C131 C 0.62968 0.89045 0.51685 0.0
C132 C 0.59759 0.90863 0.53302 0.0
C133 C 0.61834 0.97407 0.53611 0.0
C134 C 0.67135 0.02093 0.52263 0.0
H135 H 0.77194 0.77649 0.78222 0.0
H136 H 0.90308 0.93618 0.8248 0.0
H137 H 0.81784 0.88219 0.85458 0.0
H138 H 0.60351 0.74584 0.8026 0.0
H139 H 0.56246 0.65984 0.80016 0.0
H140 H 0.63322 0.71135 0.78215 0.0
H141 H 0.70374 0.6563 0.79351 0.0
H142 H 0.63285 0.60416 0.81133 0.0
H143 H 0.7212 0.65225 0.82177 0.0
H144 H 0.71803 0.80899 0.88001 0.0
H145 H 0.61722 0.72047 0.89932 0.0
H146 H 0.55125 0.6098 0.83978 0.0
C147 C 0.78295 0.8002 0.79781 0.0
C148 C 0.84442 0.86072 0.80113 0.0
C149 C 0.85657 0.88984 0.82183 0.0
C150 C 0.80822 0.85963 0.83883 0.0
C151 C 0.74779 0.80031 0.83491 0.0
C152 C 0.73532 0.77077 0.81492 0.0
C153 C 0.66741 0.7063 0.815 0.0
C154 C 0.61347 0.70584 0.79903 0.0
C155 C 0.68221 0.65153 0.81012 0.0
C156 C 0.64374 0.70384 0.8382 0.0
C157 C 0.69052 0.75863 0.84942 0.0
C158 C 0.6809 0.76608 0.87132 0.0
C159 C 0.62319 0.71557 0.88215 0.0
C160 C 0.57568 0.65814 0.87111 0.0
C161 C 0.58569 0.65323 0.8487 0.0
H162 H 0.01013 0.87924 0.15028 0.0
H163 H 0.19791 0.9104 0.11618 0.0
H164 H 0.20877 0.83596 0.14116 0.0
H165 H 0.06492 0.86047 0.2051 0.0
H166 H 0.97694 0.79798 0.21214 0.0
H167 H 0.98938 0.85979 0.19331 0.0
H168 H 0.91358 0.77268 0.16497 0.0
H169 H 0.90123 0.71074 0.18363 0.0
H170 H 0.93783 0.7142 0.1572 0.0
H171 H 0.19373 0.75098 0.16852 0.0
H172 H 0.15181 0.66179 0.19494 0.0
H173 H 0.97234 0.68473 0.21006 0.0
C174 C 0.05459 0.87173 0.14842 0.0
C175 C 0.10364 0.90131 0.13141 0.0
C176 C 0.15995 0.8887 0.12918 0.0
C177 C 0.16662 0.84649 0.14332 0.0
C178 C 0.11644 0.81693 0.15963 0.0
C179 C 0.06155 0.82915 0.16225 0.0
C180 C 0.01144 0.7875 0.1799 0.0
C181 C 0.01066 0.82892 0.19873 0.0
C182 C 0.93663 0.74369 0.17088 0.0
C183 C 0.04583 0.74912 0.1865 0.0
C184 C 0.10686 0.76722 0.17488 0.0
C185 C 0.14625 0.73681 0.17783 0.0
C186 C 0.12215 0.68623 0.19287 0.0
C187 C 0.05879 0.66608 0.20457 0.0
C188 C 0.02099 0.69877 0.20141 0.0
H189 H 0.15324 0.94577 0.45597 0.0
H190 H 0.21968 0.14845 0.4541 0.0
H191 H 0.31191 0.17056 0.48132 0.0
H192 H 0.16941 0.93644 0.51183 0.0
H193 H 0.20058 0.88015 0.51039 0.0
H194 H 0.14505 0.88169 0.4893 0.0
H195 H 0.23955 0.89906 0.46063 0.0
H196 H 0.29525 0.89711 0.48165 0.0
H197 H 0.32866 0.96509 0.46371 0.0
H198 H 0.39226 0.16845 0.51118 0.0
H199 H 0.45236 0.14194 0.53993 0.0
H200 H 0.33036 0.94093 0.52165 0.0
C201 C 0.18789 0.99508 0.46093 0.0
C202 C 0.1792 0.04537 0.45275 0.0
C203 C 0.22538 0.10905 0.45999 0.0
C204 C 0.27796 0.12209 0.47549 0.0
C205 C 0.28392 0.07103 0.48356 0.0
C206 C 0.24025 0.00885 0.47636 0.0
C207 C 0.25445 0.96177 0.48825 0.0
C208 C 0.18846 0.91212 0.50068 0.0
C209 C 0.28108 0.92884 0.47263 0.0
C210 C 0.31217 0.00685 0.50352 0.0
C211 C 0.32908 0.06979 0.50058 0.0
C212 C 0.3797 0.11931 0.51346 0.0
C213 C 0.41354 0.10387 0.52977 0.0
C214 C 0.3962 0.03941 0.53309 0.0
C215 C 0.34516 0.99076 0.51959 0.0
H216 H 0.17356 0.16929 0.81613 0.0
H217 H 0.29947 0.24314 0.75778 0.0
H218 H 0.40241 0.31768 0.77969 0.0
H219 H 0.2477 0.32273 0.84293 0.0
H220 H 0.24529 0.29103 0.86948 0.0
H221 H 0.18211 0.24102 0.84931 0.0
H222 H 0.22059 0.15634 0.85425 0.0
H223 H 0.2844 0.20646 0.8743 0.0
H224 H 0.31229 0.17992 0.85097 0.0
H225 H 0.49218 0.38457 0.80765 0.0
H226 H 0.5594 0.44684 0.83954 0.0
H227 H 0.3756 0.33352 0.88004 0.0
C228 C 0.22287 0.20104 0.808 0.0
C229 C 0.22835 0.20012 0.7852 0.0
C230 C 0.2937 0.24296 0.77519 0.0
C231 C 0.35275 0.28531 0.78751 0.0
C232 C 0.34582 0.28489 0.8099 0.0
C233 C 0.2824 0.24451 0.82009 0.0
C234 C 0.2886 0.25642 0.84433 0.0
C235 C 0.23793 0.27916 0.85196 0.0
C236 C 0.27571 0.19619 0.85669 0.0
C237 C 0.36522 0.30978 0.84611 0.0
C238 C 0.39739 0.32486 0.82606 0.0
C239 C 0.4676 0.37316 0.82346 0.0
C240 C 0.50552 0.40814 0.84173 0.0
C241 C 0.47314 0.3952 0.86239 0.0
C242 C 0.40225 0.34448 0.86454 0.0
H243 H 0.81112 0.96641 0.71344 0.0
H244 H 0.97903 0.16515 0.70821 0.0
H245 H 0.90819 0.18441 0.68123 0.0
H246 H 0.76927 0.94189 0.65839 0.0
H247 H 0.67568 0.89048 0.66262 0.0
H248 H 0.73714 0.89466 0.68271 0.0
H249 H 0.67459 0.92597 0.71186 0.0
H250 H 0.61258 0.9215 0.69187 0.0
H251 H 0.66322 0.99409 0.70736 0.0
H252 H 0.81917 0.17859 0.65257 0.0
H253 H 0.72215 0.14832 0.62609 0.0
H254 H 0.61655 0.95366 0.65099 0.0
C255 C 0.83295 0.01439 0.70692 0.0
C256 C 0.90076 0.0643 0.71305 0.0
C257 C 0.92708 0.12614 0.70389 0.0
C258 C 0.88721 0.1375 0.68852 0.0
C259 C 0.82103 0.08663 0.68255 0.0
C260 C 0.79418 0.02641 0.69164 0.0
C261 C 0.72343 0.97874 0.68202 0.0
C262 C 0.72663 0.9232 0.67077 0.0
C263 C 0.66501 0.95363 0.69931 0.0
C264 C 0.71472 0.02106 0.66582 0.0
C265 C 0.77107 0.08328 0.66632 0.0
C266 C 0.77465 0.13004 0.6522 0.0
C267 C 0.71938 0.11249 0.63721 0.0
C268 C 0.66166 0.04866 0.63642 0.0
C269 C 0.65968 1.00294 0.6511 0.0
H270 H 0.80738 0.87922 0.03884 0.0
H271 H 0.96376 0.81986 0.0442 0.0
H272 H 0.89669 0.73248 0.01805 0.0
H273 H 0.65433 0.71906 0.03396 0.0
H274 H 0.61089 0.74365 0.01473 0.0
H275 H 0.67023 0.80008 0.03445 0.0
H276 H 0.74331 0.8786 1.00368 0.0
H277 H 0.68442 0.82225 0.98387 0.0
H278 H 0.77788 0.85138 0.98226 0.0
H279 H 0.81346 0.6527 0.98992 0.0
H280 H 0.71943 0.58672 0.96338 0.0
H281 H 0.61914 0.69906 0.97689 0.0
C282 C 0.82727 0.84755 0.0347 0.0
C283 C 0.89097 0.85665 0.04367 0.0
C284 C 0.91515 0.81412 0.03762 0.0
C285 C 0.87742 0.76421 0.02273 0.0
C286 C 0.81536 0.75713 0.01399 0.0
C287 C 0.79032 0.7975 0.01985 0.0
C288 C 0.72291 0.7804 1.00786 0.0
C289 C 0.66093 0.75954 0.0237 0.0
C290 C 0.73276 0.83649 0.99357 0.0
C291 C 0.71414 0.7244 0.99431 0.0
C292 C 0.76785 0.71152 0.99799 0.0
C293 C 0.77096 0.66226 0.98698 0.0
C294 C 0.71751 0.62512 0.9719 0.0
C295 C 0.66181 0.63748 0.96804 0.0
C296 C 0.66069 0.68795 0.97945 0.0
H297 H 0.99646 0.76859 0.38649 0.0
H298 H 0.90792 0.85892 0.34697 0.0
H299 H 0.89156 0.78445 0.31686 0.0
H300 H 0.09665 0.75317 0.3441 0.0
H301 H 0.08514 0.67795 0.35371 0.0
H302 H 0.08312 0.73411 0.37251 0.0
H303 H 0.95985 0.64584 0.3859 0.0
H304 H 0.96126 0.58953 0.36697 0.0
H305 H 0.88897 0.60507 0.3667 0.0
H306 H 0.88533 0.69873 0.29091 0.0
H307 H 0.90529 0.62123 0.27003 0.0
H308 H 0.00659 0.59421 0.32589 0.0
C309 C 0.9728 0.77216 0.37158 0.0
C310 C 0.95254 0.81891 0.36913 0.0
C311 C 0.9235 0.82323 0.34919 0.0
C312 C 0.91366 0.78089 0.33207 0.0
C313 C 0.93415 0.73516 0.33503 0.0
C314 C 0.9642 0.73138 0.35421 0.0
C315 C 0.98749 0.68204 0.35276 0.0
C316 C 0.06786 0.71372 0.35595 0.0
C317 C 0.94695 0.62738 0.36905 0.0
C318 C 0.96626 0.65874 0.32974 0.0
C319 C 0.9342 0.68885 0.31987 0.0
C320 C 0.91038 0.67495 0.29851 0.0
C321 C 0.92142 0.63053 0.28682 0.0
C322 C 0.95722 0.60166 0.29638 0.0
C323 C 0.97885 0.61544 0.3182 0.0
H324 H 0.20219 0.0382 0.70243 0.0
H325 H 0.06093 0.84047 0.72148 0.0
H326 H 0.12078 0.8049 0.69551 0.0
H327 H 0.20417 0.00729 0.64651 0.0
H328 H 0.29561 0.06785 0.64289 0.0
H329 H 0.24412 0.07716 0.66377 0.0
H330 H 0.33574 0.08867 0.69254 0.0
H331 H 0.38778 0.07979 0.67172 0.0
H332 H 0.35894 0.02701 0.69479 0.0
H333 H 0.19716 0.79193 0.66631 0.0
H334 H 0.28029 0.80303 0.63709 0.0
H335 H 0.3665 0.00934 0.63731 0.0
C336 C 0.18404 0.98736 0.70141 0.0
C337 C 0.12697 0.94219 0.71417 0.0
C338 C 0.10469 0.87609 0.71199 0.0
C339 C 0.13837 0.85545 0.69725 0.0
C340 C 0.194 0.90145 0.68475 0.0
C341 C 0.21645 0.96605 0.68675 0.0
C342 C 0.27559 1.00611 0.6711 0.0
C343 C 0.25351 0.04167 0.65512 0.0
C344 C 0.34353 0.05315 0.68327 0.0
C345 C 0.28316 0.95414 0.65986 0.0
C346 C 0.23609 0.894 0.66794 0.0
C347 C 0.23412 0.83889 0.65991 0.0
C348 C 0.28151 0.84562 0.64329 0.0
C349 C 0.32985 0.90697 0.63477 0.0
C350 C 0.33013 0.96161 0.64329 0.0
H351 H 0.11375 0.1849 0.02961 0.0
H352 H 0.26599 0.17208 0.07101 0.0
H353 H 0.36322 0.26068 0.05081 0.0
H354 H 0.209 0.2104 0.98119 0.0
H355 H 0.18543 0.26565 0.96965 0.0
H356 H 0.12723 0.20612 0.98874 0.0
H357 H 0.13049 0.29556 0.01286 0.0
H358 H 0.18893 0.35549 0.99383 0.0
H359 H 0.21436 0.36101 0.02181 0.0
H360 H 0.44347 0.34371 0.02499 0.0
H361 H 0.50343 0.4138 0.99391 0.0
H362 H 0.30136 0.37456 0.96821 0.0
C363 C 0.16754 0.20155 0.03468 0.0
C364 C 0.18221 0.17176 0.05205 0.0
C365 C 0.25336 0.1941 0.05784 0.0
C366 C 0.30897 0.24466 0.04651 0.0
C367 C 0.29276 0.27245 0.02937 0.0
C368 C 0.2239 0.25175 0.02338 0.0
C369 C 0.22153 0.28683 1.00327 0.0
C370 C 0.18356 0.23942 0.98461 0.0
C371 C 0.18676 0.32712 1.00825 0.0
C372 C 0.29988 0.32946 0.99863 0.0
C373 C 0.33971 0.32069 0.01413 0.0
C374 C 0.41295 0.3515 0.0129 0.0
C375 C 0.44649 0.39116 0.99513 0.0
C376 C 0.40712 0.39995 0.97872 0.0
C377 C 0.33283 0.36975 0.98074 0.0
H378 H 1.00128 0.22434 0.38595 0.0
H379 H 0.08763 0.13253 0.3459 0.0
H380 H 0.10419 0.20709 0.31593 0.0
H381 H 0.90113 0.2409 0.34385 0.0
H382 H 0.91377 0.31646 0.35368 0.0
H383 H 0.91515 0.25985 0.37229 0.0
H384 H 0.03901 0.3472 0.38561 0.0
H385 H 0.03825 0.40394 0.36686 0.0
H386 H 0.10982 0.38742 0.36634 0.0
H387 H 0.1115 0.29338 0.29028 0.0
H388 H 0.09295 0.37191 0.26973 0.0
H389 H 0.9929 0.4 0.3259 0.0
C390 C 0.0244 0.2204 0.37094 0.0
C391 C 0.04404 0.17326 0.36829 0.0
C392 C 0.07247 0.16851 0.34826 0.0
C393 C 0.08245 0.21089 0.33122 0.0
C394 C 0.06267 0.25707 0.33438 0.0
C395 C 0.03311 0.26121 0.35366 0.0
C396 C 0.01068 0.31116 0.35243 0.0
C397 C 0.93043 0.28023 0.35575 0.0
C398 C 0.05192 0.36566 0.36878 0.0
C399 C 0.03186 0.3344 0.32942 0.0
C400 C 0.06317 0.30372 0.31937 0.0
C401 C 0.08699 0.31758 0.29802 0.0
C402 C 0.07675 0.36256 0.28651 0.0
C403 C 0.04169 0.39203 0.29626 0.0
C404 C 0.02002 0.37826 0.31807 0.0
loop_
_geom_bond_atom_site_label_1
_geom_bond_atom_site_label_2
_geom_bond_distance
_geom_bond_site_symmetry_2
_ccdc_geom_bond_type
O0 Cd1 2.223 1_455 S
O0 C8 1.315 . S
Cd1 O0 2.223 1_655 S
Cd1 O4 2.297 . S
Cd1 O5 2.439 . S
Cd1 O11 2.240 1_545 S
Cd2 O3 2.240 1_565 S
Cd2 O10 2.223 1_455 S
Cd2 O12 2.297 . S
Cd2 O13 2.439 . S
O3 Cd2 2.240 1_545 S
O3 C8 1.279 . S
O4 Cd1 2.297 . S
O4 C6 1.247 . S
O5 Cd1 2.439 . S
O5 C6 1.208 . S
C6 O4 1.247 . S
C6 O5 1.208 . S
C7 O12 1.247 . S
C7 O13 1.208 . S
C8 O0 1.315 . S
C8 O3 1.279 . S
C9 O10 1.315 . S
C9 O11 1.279 . S
O10 Cd2 2.223 1_655 S
O10 C9 1.315 . S
O11 Cd1 2.240 1_565 S
O11 C9 1.279 . S
O12 Cd2 2.297 . S
O12 C7 1.247 . S
O13 Cd2 2.439 . S
O13 C7 1.208 . S
O14 Cd15 2.223 1_655 S
O14 C22 1.315 . S
Cd15 O14 2.223 1_455 S
Cd15 O18 2.297 . S
Cd15 O19 2.439 . S
Cd15 O25 2.240 . S
Cd16 O17 2.240 . S
Cd16 O24 2.223 1_655 S
Cd16 O26 2.297 . S
Cd16 O27 2.439 . S
O17 Cd16 2.240 . S
O17 C22 1.279 1_565 S
O18 Cd15 2.297 . S
O18 C20 1.247 . S
O19 Cd15 2.439 . S
O19 C20 1.208 . S
C20 O18 1.247 . S
C20 O19 1.208 . S
C21 O26 1.247 . S
C21 O27 1.208 . S
C22 O14 1.315 . S
C22 O17 1.279 1_545 S
C23 O24 1.315 . S
C23 O25 1.279 1_565 S
O24 Cd16 2.223 1_455 S
O24 C23 1.315 . S
O25 Cd15 2.240 . S
O25 C23 1.279 1_545 S
O26 Cd16 2.297 . S
O26 C21 1.247 . S
O27 Cd16 2.439 . S
O27 C21 1.208 . S
O28 Cd29 2.223 . S
O28 C36 1.315 . S
Cd29 O28 2.223 . S
Cd29 O32 2.297 . S
Cd29 O33 2.439 . S
Cd29 O39 2.240 1_655 S
Cd30 O31 2.240 1_455 S
Cd30 O38 2.223 . S
Cd30 O40 2.297 . S
Cd30 O41 2.439 . S
O31 Cd30 2.240 1_655 S
O31 C36 1.279 1_545 S
O32 Cd29 2.297 . S
O32 C34 1.247 . S
O33 Cd29 2.439 . S
O33 C34 1.208 . S
C34 O32 1.247 . S
C34 O33 1.208 . S
C35 O40 1.247 . S
C35 O41 1.208 . S
C36 O28 1.315 . S
C36 O31 1.279 1_565 S
C37 O38 1.315 . S
C37 O39 1.279 1_545 S
O38 Cd30 2.223 . S
O38 C37 1.315 . S
O39 Cd29 2.240 1_455 S
O39 C37 1.279 1_565 S
O40 Cd30 2.297 . S
O40 C35 1.247 . S
O41 Cd30 2.439 . S
O41 C35 1.208 . S
Mg42 O49 2.141 . S
Mg42 O50 2.048 . S
Mg42 O51 2.048 . S
Mg42 O54 2.141 . S
C43 O44 1.313 . S
C43 O50 1.195 1_655 S
O44 C43 1.313 . S
C45 O46 1.245 . S
C45 O54 1.289 1_655 S
O46 C45 1.245 . S
C47 O48 1.245 . S
C47 O49 1.289 1_655 S
O48 C47 1.245 . S
O49 Mg42 2.141 . S
O49 C47 1.289 1_455 S
O50 Mg42 2.048 . S
O50 C43 1.195 1_455 S
O51 Mg42 2.048 . S
O51 C52 1.195 1_455 S
C52 O51 1.195 1_655 S
C52 O53 1.313 . S
O53 C52 1.313 . S
O54 Mg42 2.141 . S
O54 C45 1.289 1_455 S
Mg55 O62 2.141 . S
Mg55 O63 2.048 . S
Mg55 O64 2.048 . S
Mg55 O67 2.141 . S
C56 O57 1.313 . S
C56 O63 1.195 1_565 S
O57 C56 1.313 . S
C58 O59 1.245 . S
C58 O67 1.289 1_565 S
O59 C58 1.245 . S
C60 O61 1.245 . S
C60 O62 1.289 1_565 S
O61 C60 1.245 . S
O62 Mg55 2.141 . S
O62 C60 1.289 1_545 S
O63 Mg55 2.048 . S
O63 C56 1.195 1_545 S
O64 Mg55 2.048 . S
O64 C65 1.195 1_545 S
C65 O64 1.195 1_565 S
C65 O66 1.313 . S
O66 C65 1.313 . S
O67 Mg55 2.141 . S
O67 C58 1.289 1_545 S
Mg68 O75 2.141 . S
Mg68 O76 2.048 . S
Mg68 O77 2.048 . S
Mg68 O80 2.141 . S
C69 O70 1.313 . S
C69 O76 1.195 . S
O70 C69 1.313 . S
C71 O72 1.245 . S
C71 O80 1.289 . S
O72 C71 1.245 . S
C73 O74 1.245 . S
C73 O75 1.289 . S
O74 C73 1.245 . S
O75 Mg68 2.141 . S
O75 C73 1.289 . S
O76 Mg68 2.048 . S
O76 C69 1.195 . S
O77 Mg68 2.048 . S
O77 C78 1.195 . S
C78 O77 1.195 . S
C78 O79 1.313 . S
O79 C78 1.313 . S
O80 Mg68 2.141 . S
O80 C71 1.289 . S
H81 C93 0.930 . S
H82 C95 0.930 . S
H83 C96 0.930 . S
H84 C100 0.959 . S
H85 C100 0.959 . S
H86 C100 0.961 . S
H87 C101 0.960 . S
H88 C101 0.961 . S
H89 C101 0.959 . S
H90 C104 0.929 . S
H91 C105 0.931 . S
H92 C107 0.930 . S
C93 H81 0.930 . S
C93 C94 1.399 . S
C93 C98 1.399 . S
C94 C93 1.399 . S
C94 C95 1.376 1_455 S
C95 H82 0.930 . S
C95 C94 1.376 1_655 S
C95 C96 1.388 . S
C96 H83 0.930 . S
C96 C95 1.388 . S
C96 C97 1.390 1_655 S
C97 C96 1.390 1_455 S
C97 C98 1.394 . S
C97 C103 1.465 . S
C98 C93 1.399 . S
C98 C97 1.394 . S
C98 C99 1.516 . S
C99 C98 1.516 . S
C99 C100 1.502 1_455 S
C99 C101 1.561 . S
C99 C102 1.526 . S
C100 H84 0.959 . S
C100 H85 0.959 . S
C100 H86 0.961 . S
C100 C99 1.502 1_655 S
C101 H87 0.960 . S
C101 H88 0.961 . S
C101 H89 0.959 . S
C101 C99 1.561 . S
C102 C99 1.526 . S
C102 C103 1.396 . S
C102 C107 1.390 . S
C103 C97 1.465 . S
C103 C102 1.396 . S
C103 C104 1.399 1_455 S
C104 H90 0.929 . S
C104 C103 1.399 1_655 S
C104 C105 1.385 . S
C105 H91 0.931 . S
C105 C104 1.385 . S
C105 C106 1.389 1_655 S
C106 C105 1.389 1_455 S
C106 C107 1.387 . S
C107 H92 0.930 . S
C107 C102 1.390 . S
C107 C106 1.387 . S
H108 C120 0.930 . S
H109 C122 0.930 . S
H110 C123 0.930 . S
H111 C127 0.959 . S
H112 C127 0.959 . S
H113 C127 0.961 . S
H114 C128 0.960 . S
H115 C128 0.961 . S
H116 C128 0.959 . S
H117 C131 0.929 . S
H118 C132 0.931 . S
H119 C134 0.930 . S
C120 H108 0.930 . S
C120 C121 1.399 1_565 S
C120 C125 1.399 . S
C121 C120 1.399 1_545 S
C121 C122 1.376 . S
C122 H109 0.930 . S
C122 C121 1.376 . S
C122 C123 1.388 . S
C123 H110 0.930 . S
C123 C122 1.388 . S
C123 C124 1.390 . S
C124 C123 1.390 . S
C124 C125 1.394 1_545 S
C124 C130 1.465 . S
C125 C120 1.399 . S
C125 C124 1.394 1_565 S
C125 C126 1.516 . S
C126 C125 1.516 . S
C126 C127 1.502 . S
C126 C128 1.561 . S
C126 C129 1.526 . S
C127 H111 0.959 . S
C127 H112 0.959 . S
C127 H113 0.961 . S
C127 C126 1.502 . S
C128 H114 0.960 . S
C128 H115 0.961 . S
C128 H116 0.959 . S
C128 C126 1.561 . S
C129 C126 1.526 . S
C129 C130 1.396 1_565 S
C129 C134 1.390 . S
C130 C124 1.465 . S
C130 C129 1.396 1_545 S
C130 C131 1.399 . S
C131 H117 0.929 . S
C131 C130 1.399 . S
C131 C132 1.385 . S
C132 H118 0.931 . S
C132 C131 1.385 . S
C132 C133 1.389 . S
C133 C132 1.389 . S
C133 C134 1.387 1_545 S
C134 H119 0.930 . S
C134 C129 1.390 . S
C134 C133 1.387 1_565 S
H135 C147 0.930 . S
H136 C149 0.930 . S
H137 C150 0.930 . S
H138 C154 0.959 . S
H139 C154 0.959 . S
H140 C154 0.961 . S
H141 C155 0.960 . S
H142 C155 0.961 . S
H143 C155 0.959 . S
H144 C158 0.929 . S
H145 C159 0.931 . S
H146 C161 0.930 . S
C147 H135 0.930 . S
C147 C148 1.399 . S
C147 C152 1.399 . S
C148 C147 1.399 . S
C148 C149 1.376 . S
C149 H136 0.930 . S
C149 C148 1.376 . S
C149 C150 1.388 . S
C150 H137 0.930 . S
C150 C149 1.388 . S
C150 C151 1.390 . S
C151 C150 1.390 . S
C151 C152 1.394 . S
C151 C157 1.465 . S
C152 C147 1.399 . S
C152 C151 1.394 . S
C152 C153 1.516 . S
C153 C152 1.516 . S
C153 C154 1.502 . S
C153 C155 1.561 . S
C153 C156 1.526 . S
C154 H138 0.959 . S
C154 H139 0.959 . S
C154 H140 0.961 . S
C154 C153 1.502 . S
C155 H141 0.960 . S
C155 H142 0.961 . S
C155 H143 0.959 . S
C155 C153 1.561 . S
C156 C153 1.526 . S
C156 C157 1.396 . S
C156 C161 1.390 . S
C157 C151 1.465 . S
C157 C156 1.396 . S
C157 C158 1.399 . S
C158 H144 0.929 . S
C158 C157 1.399 . S
C158 C159 1.385 . S
C159 H145 0.931 . S
C159 C158 1.385 . S
C159 C160 1.389 . S
C160 C159 1.389 . S
C160 C161 1.387 . S
C161 H146 0.930 . S
C161 C156 1.390 . S
C161 C160 1.387 . S
H162 C174 0.930 . S
H163 C176 0.930 . S
H164 C177 0.930 . S
H165 C181 0.959 . S
H166 C181 0.959 . S
H167 C181 0.961 . S
H168 C182 0.960 . S
H169 C182 0.961 . S
H170 C182 0.959 . S
H171 C185 0.929 . S
H172 C186 0.931 . S
H173 C188 0.930 . S
C174 H162 0.930 . S
C174 C175 1.399 1_455 S
C174 C179 1.399 . S
C175 C174 1.399 1_655 S
C175 C176 1.376 . S
C176 H163 0.930 . S
C176 C175 1.376 . S
C176 C177 1.388 . S
C177 H164 0.930 . S
C177 C176 1.388 . S
C177 C178 1.390 . S
C178 C177 1.390 . S
C178 C179 1.394 1_655 S
C178 C184 1.465 . S
C179 C174 1.399 . S
C179 C178 1.394 1_455 S
C179 C180 1.516 . S
C180 C179 1.516 . S
C180 C181 1.502 . S
C180 C182 1.561 . S
C180 C183 1.526 . S
C181 H165 0.959 . S
C181 H166 0.959 . S
C181 H167 0.961 . S
C181 C180 1.502 . S
C182 H168 0.960 . S
C182 H169 0.961 . S
C182 H170 0.959 . S
C182 C180 1.561 . S
C183 C180 1.526 . S
C183 C184 1.396 1_455 S
C183 C188 1.390 . S
C184 C178 1.465 . S
C184 C183 1.396 1_655 S
C184 C185 1.399 . S
C185 H171 0.929 . S
C185 C184 1.399 . S
C185 C186 1.385 . S
C186 H172 0.931 . S
C186 C185 1.385 . S
C186 C187 1.389 . S
C187 C186 1.389 . S
C187 C188 1.387 1_655 S
C188 H173 0.930 . S
C188 C183 1.390 . S
C188 C187 1.387 1_455 S
H189 C201 0.930 . S
H190 C203 0.930 . S
H191 C204 0.930 . S
H192 C208 0.959 . S
H193 C208 0.959 . S
H194 C208 0.961 . S
H195 C209 0.960 . S
H196 C209 0.961 . S
H197 C209 0.959 . S
H198 C212 0.929 . S
H199 C213 0.931 . S
H200 C215 0.930 . S
C201 H189 0.930 . S
C201 C202 1.399 1_565 S
C201 C206 1.399 . S
C202 C201 1.399 1_545 S
C202 C203 1.376 . S
C203 H190 0.930 . S
C203 C202 1.376 . S
C203 C204 1.388 . S
C204 H191 0.930 . S
C204 C203 1.388 . S
C204 C205 1.390 . S
C205 C204 1.390 . S
C205 C206 1.394 1_545 S
C205 C211 1.465 . S
C206 C201 1.399 . S
C206 C205 1.394 1_565 S
C206 C207 1.516 . S
C207 C206 1.516 . S
C207 C208 1.502 . S
C207 C209 1.561 . S
C207 C210 1.526 . S
C208 H192 0.959 . S
C208 H193 0.959 . S
C208 H194 0.961 . S
C208 C207 1.502 . S
C209 H195 0.960 . S
C209 H196 0.961 . S
C209 H197 0.959 . S
C209 C207 1.561 . S
C210 C207 1.526 . S
C210 C211 1.396 1_565 S
C210 C215 1.390 . S
C211 C205 1.465 . S
C211 C210 1.396 1_545 S
C211 C212 1.399 . S
C212 H198 0.929 . S
C212 C211 1.399 . S
C212 C213 1.385 . S
C213 H199 0.931 . S
C213 C212 1.385 . S
C213 C214 1.389 . S
C214 C213 1.389 . S
C214 C215 1.387 1_545 S
C215 H200 0.930 . S
C215 C210 1.390 . S
C215 C214 1.387 1_565 S
H216 C228 0.930 . S
H217 C230 0.930 . S
H218 C231 0.930 . S
H219 C235 0.959 . S
H220 C235 0.959 . S
H221 C235 0.961 . S
H222 C236 0.960 . S
H223 C236 0.961 . S
H224 C236 0.959 . S
H225 C239 0.929 . S
H226 C240 0.931 . S
H227 C242 0.930 . S
C228 H216 0.930 . S
C228 C229 1.399 . S
C228 C233 1.399 . S
C229 C228 1.399 . S
C229 C230 1.376 . S
C230 H217 0.930 . S
C230 C229 1.376 . S
C230 C231 1.388 . S
C231 H218 0.930 . S
C231 C230 1.388 . S
C231 C232 1.390 . S
C232 C231 1.390 . S
C232 C233 1.394 . S
C232 C238 1.465 . S
C233 C228 1.399 . S
C233 C232 1.394 . S
C233 C234 1.516 . S
C234 C233 1.516 . S
C234 C235 1.502 . S
C234 C236 1.561 . S
C234 C237 1.526 . S
C235 H219 0.959 . S
C235 H220 0.959 . S
C235 H221 0.961 . S
C235 C234 1.502 . S
C236 H222 0.960 . S
C236 H223 0.961 . S
C236 H224 0.959 . S
C236 C234 1.561 . S
C237 C234 1.526 . S
C237 C238 1.396 . S
C237 C242 1.390 . S
C238 C232 1.465 . S
C238 C237 1.396 . S
C238 C239 1.399 . S
C239 H225 0.929 . S
C239 C238 1.399 . S
C239 C240 1.385 . S
C240 H226 0.931 . S
C240 C239 1.385 . S
C240 C241 1.389 . S
C241 C240 1.389 . S
C241 C242 1.387 . S
C242 H227 0.930 . S
C242 C237 1.390 . S
C242 C241 1.387 . S
H243 C255 0.930 . S
H244 C257 0.930 . S
H245 C258 0.930 . S
H246 C262 0.959 . S
H247 C262 0.959 . S
H248 C262 0.961 . S
H249 C263 0.960 . S
H250 C263 0.961 . S
H251 C263 0.959 . S
H252 C266 0.929 . S
H253 C267 0.931 . S
H254 C269 0.930 . S
C255 H243 0.930 . S
C255 C256 1.399 . S
C255 C260 1.399 . S
C256 C255 1.399 . S
C256 C257 1.376 1_565 S
C257 H244 0.930 . S
C257 C256 1.376 1_545 S
C257 C258 1.388 . S
C258 H245 0.930 . S
C258 C257 1.388 . S
C258 C259 1.390 . S
C259 C258 1.390 . S
C259 C260 1.394 1_545 S
C259 C265 1.465 . S
C260 C255 1.399 . S
C260 C259 1.394 1_565 S
C260 C261 1.516 . S
C261 C260 1.516 . S
C261 C262 1.502 . S
C261 C263 1.561 . S
C261 C264 1.526 . S
C262 H246 0.959 . S
C262 H247 0.959 . S
C262 H248 0.961 . S
C262 C261 1.502 . S
C263 H249 0.960 . S
C263 H250 0.961 . S
C263 H251 0.959 . S
C263 C261 1.561 . S
C264 C261 1.526 . S
C264 C265 1.396 1_565 S
C264 C269 1.390 . S
C265 C259 1.465 . S
C265 C264 1.396 1_545 S
C265 C266 1.399 . S
C266 H252 0.929 . S
C266 C265 1.399 . S
C266 C267 1.385 . S
C267 H253 0.931 . S
C267 C266 1.385 . S
C267 C268 1.389 . S
C268 C267 1.389 . S
C268 C269 1.387 1_545 S
C269 H254 0.930 . S
C269 C264 1.390 . S
C269 C268 1.387 1_565 S
H270 C282 0.930 . S
H271 C284 0.930 . S
H272 C285 0.930 . S
H273 C289 0.959 . S
H274 C289 0.959 . S
H275 C289 0.961 . S
H276 C290 0.960 . S
H277 C290 0.961 . S
H278 C290 0.959 . S
H279 C293 0.929 . S
H280 C294 0.931 . S
H281 C296 0.930 . S
C282 H270 0.930 . S
C282 C283 1.399 . S
C282 C287 1.399 1_554 S
C283 C282 1.399 . S
C283 C284 1.376 . S
C284 H271 0.930 . S
C284 C283 1.376 . S
C284 C285 1.388 . S
C285 H272 0.930 . S
C285 C284 1.388 . S
C285 C286 1.390 . S
C286 C285 1.390 . S
C286 C287 1.394 1_554 S
C286 C292 1.465 1_554 S
C287 C282 1.399 1_556 S
C287 C286 1.394 1_556 S
C287 C288 1.516 . S
C288 C287 1.516 . S
C288 C289 1.502 . S
C288 C290 1.561 . S
C288 C291 1.526 . S
C289 H273 0.959 . S
C289 H274 0.959 . S
C289 H275 0.961 . S
C289 C288 1.502 . S
C290 H276 0.960 . S
C290 H277 0.961 . S
C290 H278 0.959 . S
C290 C288 1.561 . S
C291 C288 1.526 . S
C291 C292 1.396 . S
C291 C296 1.390 . S
C292 C286 1.465 1_556 S
C292 C291 1.396 . S
C292 C293 1.399 . S
C293 H279 0.929 . S
C293 C292 1.399 . S
C293 C294 1.385 . S
C294 H280 0.931 . S
C294 C293 1.385 . S
C294 C295 1.389 . S
C295 C294 1.389 . S
C295 C296 1.387 . S
C296 H281 0.930 . S
C296 C291 1.390 . S
C296 C295 1.387 . S
H297 C309 0.930 . S
H298 C311 0.930 . S
H299 C312 0.930 . S
H300 C316 0.959 . S
H301 C316 0.959 . S
H302 C316 0.961 . S
H303 C317 0.960 . S
H304 C317 0.961 . S
H305 C317 0.959 1_655 S
H306 C320 0.929 . S
H307 C321 0.931 . S
H308 C323 0.930 . S
C309 H297 0.930 . S
C309 C310 1.391 1_455 S
C309 C314 1.399 . S
C310 C309 1.391 1_655 S
C310 C311 1.383 . S
C311 H298 0.930 . S
C311 C310 1.383 . S
C311 C312 1.388 . S
C312 H299 0.930 . S
C312 C311 1.388 . S
C312 C313 1.390 . S
C313 C312 1.390 . S
C313 C314 1.394 1_655 S
C313 C319 1.465 . S
C314 C309 1.399 . S
C314 C313 1.394 1_455 S
C314 C315 1.516 . S
C315 C314 1.516 . S
C315 C316 1.502 . S
C315 C317 1.561 . S
C315 C318 1.526 . S
C316 H300 0.959 . S
C316 H301 0.959 . S
C316 H302 0.961 . S
C316 C315 1.502 . S
C317 H303 0.960 . S
C317 H304 0.961 . S
C317 H305 0.959 1_455 S
C317 C315 1.561 . S
C318 C315 1.526 . S
C318 C319 1.396 1_455 S
C318 C323 1.390 . S
C319 C313 1.465 . S
C319 C318 1.396 1_655 S
C319 C320 1.399 . S
C320 H306 0.929 . S
C320 C319 1.399 . S
C320 C321 1.385 . S
C321 H307 0.931 . S
C321 C320 1.385 . S
C321 C322 1.389 . S
C322 C321 1.389 . S
C322 C323 1.387 1_655 S
C323 H308 0.930 . S
C323 C318 1.390 . S
C323 C322 1.387 1_455 S
H324 C336 0.930 . S
H325 C338 0.930 . S
H326 C339 0.930 . S
H327 C343 0.959 . S
H328 C343 0.959 . S
H329 C343 0.961 . S
H330 C344 0.960 . S
H331 C344 0.961 . S
H332 C344 0.959 . S
H333 C347 0.929 . S
H334 C348 0.931 . S
H335 C350 0.930 . S
C336 H324 0.930 . S
C336 C337 1.399 . S
C336 C341 1.399 . S
C337 C336 1.399 . S
C337 C338 1.376 1_545 S
C338 H325 0.930 . S
C338 C337 1.376 1_565 S
C338 C339 1.388 . S
C339 H326 0.930 . S
C339 C338 1.388 . S
C339 C340 1.390 . S
C340 C339 1.390 . S
C340 C341 1.394 1_565 S
C340 C346 1.465 . S
C341 C336 1.399 . S
C341 C340 1.394 1_545 S
C341 C342 1.516 . S
C342 C341 1.516 . S
C342 C343 1.502 . S
C342 C344 1.561 . S
C342 C345 1.526 . S
C343 H327 0.959 . S
C343 H328 0.959 . S
C343 H329 0.961 . S
C343 C342 1.502 . S
C344 H330 0.960 . S
C344 H331 0.961 . S
C344 H332 0.959 . S
C344 C342 1.561 . S
C345 C342 1.526 . S
C345 C346 1.396 1_545 S
C345 C350 1.390 . S
C346 C340 1.465 . S
C346 C345 1.396 1_565 S
C346 C347 1.399 . S
C347 H333 0.929 . S
C347 C346 1.399 . S
C347 C348 1.385 . S
C348 H334 0.931 . S
C348 C347 1.385 . S
C348 C349 1.389 . S
C349 C348 1.389 . S
C349 C350 1.387 1_565 S
C350 H335 0.930 . S
C350 C345 1.390 . S
C350 C349 1.387 1_545 S
H351 C363 0.930 . S
H352 C365 0.930 . S
H353 C366 0.930 . S
H354 C370 0.959 . S
H355 C370 0.959 . S
H356 C370 0.961 . S
H357 C371 0.960 . S
H358 C371 0.961 . S
H359 C371 0.959 . S
H360 C374 0.929 . S
H361 C375 0.931 . S
H362 C377 0.930 . S
C363 H351 0.930 . S
C363 C364 1.399 . S
C363 C368 1.399 . S
C364 C363 1.399 . S
C364 C365 1.376 . S
C365 H352 0.930 . S
C365 C364 1.376 . S
C365 C366 1.388 1_554 S
C366 H353 0.930 . S
C366 C365 1.388 1_556 S
C366 C367 1.390 . S
C367 C366 1.390 . S
C367 C368 1.394 1_556 S
C367 C373 1.465 . S
C368 C363 1.399 . S
C368 C367 1.394 1_554 S
C368 C369 1.516 . S
C369 C368 1.516 . S
C369 C370 1.502 . S
C369 C371 1.561 . S
C369 C372 1.526 1_554 S
C370 H354 0.959 . S
C370 H355 0.959 . S
C370 H356 0.961 . S
C370 C369 1.502 . S
C371 H357 0.960 . S
C371 H358 0.961 . S
C371 H359 0.959 . S
C371 C369 1.561 . S
C372 C369 1.526 1_556 S
C372 C373 1.396 . S
C372 C377 1.390 . S
C373 C367 1.465 . S
C373 C372 1.396 . S
C373 C374 1.399 . S
C374 H360 0.929 . S
C374 C373 1.399 . S
C374 C375 1.385 . S
C375 H361 0.931 . S
C375 C374 1.385 . S
C375 C376 1.389 . S
C376 C375 1.389 . S
C376 C377 1.387 . S
C377 H362 0.930 . S
C377 C372 1.390 . S
C377 C376 1.387 . S
H378 C390 0.930 . S
H379 C392 0.930 . S
H380 C393 0.930 . S
H381 C397 0.959 1_655 S
H382 C397 0.959 . S
H383 C397 0.961 . S
H384 C398 0.960 . S
H385 C398 0.961 . S
H386 C398 0.959 . S
H387 C401 0.929 . S
H388 C402 0.931 . S
H389 C404 0.930 . S
C390 H378 0.930 . S
C390 C391 1.399 1_455 S
C390 C395 1.399 . S
C391 C390 1.399 1_655 S
C391 C392 1.376 . S
C392 H379 0.930 . S
C392 C391 1.376 . S
C392 C393 1.388 . S
C393 H380 0.930 . S
C393 C392 1.388 . S
C393 C394 1.390 . S
C394 C393 1.390 . S
C394 C395 1.394 1_655 S
C394 C400 1.465 . S
C395 C390 1.399 . S
C395 C394 1.394 1_455 S
C395 C396 1.516 . S
C396 C395 1.516 . S
C396 C397 1.502 . S
C396 C398 1.561 . S
C396 C399 1.526 . S
C397 H381 0.959 1_455 S
C397 H382 0.959 . S
C397 H383 0.961 . S
C397 C396 1.502 . S
C398 H384 0.960 . S
C398 H385 0.961 . S
C398 H386 0.959 . S
C398 C396 1.561 . S
C399 C396 1.526 . S
C399 C400 1.396 1_455 S
C399 C404 1.390 . S
C400 C394 1.465 . S
C400 C399 1.396 1_655 S
C400 C401 1.399 . S
C401 H387 0.929 . S
C401 C400 1.399 . S
C401 C402 1.385 . S
C402 H388 0.931 . S
C402 C401 1.385 . S
C402 C403 1.389 . S
C403 C402 1.389 . S
C403 C404 1.387 1_655 S
C404 H389 0.930 . S
C404 C399 1.390 . S
C404 C403 1.387 1_455 S
C106 C47 1.414 1_455 S
C94 C6 1.406 1_455 S
C121 C22 1.516 . S
C133 C65 1.564 1_545 S
C148 C34 1.310 . S
C160 C78 1.323 . S
C175 C7 1.430 1_655 S
C187 C45 1.400 . S
C214 C56 1.560 1_545 S
C202 C23 1.547 1_545 S
C229 C35 1.317 . S
C241 C69 1.287 . S
C268 C58 1.497 1_545 S
C256 C36 1.493 . S
C283 C9 1.641 . S
C295 C71 1.673 . S
C322 C52 1.479 . S
C310 C21 1.466 . S
C349 C60 1.469 . S
C337 C37 1.491 . S
C376 C73 1.674 . S
C364 C8 1.688 . S
C391 C20 1.485 1_655 S
C403 C43 1.478 . S
