# Generated by pormake.
# Topology iac, (4,6)-cn, num edge types: 1
# Building blocks:
#     Node 0, Type 0, BuildingBlock: TATPOV_clean_sbu_0, # of connection points: 4
#     Node 1, Type 0, BuildingBlock: TATPOV_clean_sbu_0, # of connection points: 4
#     Node 2, Type 0, BuildingBlock: TATPOV_clean_sbu_0, # of connection points: 4
#     Node 3, Type 0, BuildingBlock: TATPOV_clean_sbu_0, # of connection points: 4
#     Node 4, Type 0, BuildingBlock: TATPOV_clean_sbu_0, # of connection points: 4
#     Node 5, Type 0, BuildingBlock: TATPOV_clean_sbu_0, # of connection points: 4
#     Node 6, Type 0, BuildingBlock: TATPOV_clean_sbu_0, # of connection points: 4
#     Node 7, Type 0, BuildingBlock: TATPOV_clean_sbu_0, # of connection points: 4
#     Node 8, Type 0, BuildingBlock: TATPOV_clean_sbu_0, # of connection points: 4
#     Node 9, Type 0, BuildingBlock: TATPOV_clean_sbu_0, # of connection points: 4
#     Node 10, Type 0, BuildingBlock: TATPOV_clean_sbu_0, # of connection points: 4
#     Node 11, Type 0, BuildingBlock: TATPOV_clean_sbu_0, # of connection points: 4
#     Node 12, Type 0, BuildingBlock: TATPOV_clean_sbu_0, # of connection points: 4
#     Node 13, Type 0, BuildingBlock: TATPOV_clean_sbu_0, # of connection points: 4
#     Node 14, Type 0, BuildingBlock: TATPOV_clean_sbu_0, # of connection points: 4
#     Node 15, Type 0, BuildingBlock: TATPOV_clean_sbu_0, # of connection points: 4
#     Node 16, Type 0, BuildingBlock: TATPOV_clean_sbu_0, # of connection points: 4
#     Node 17, Type 0, BuildingBlock: TATPOV_clean_sbu_0, # of connection points: 4
#     Node 18, Type 0, BuildingBlock: TATPOV_clean_sbu_0, # of connection points: 4
#     Node 19, Type 0, BuildingBlock: TATPOV_clean_sbu_0, # of connection points: 4
#     Node 20, Type 0, BuildingBlock: TATPOV_clean_sbu_0, # of connection points: 4
#     Node 21, Type 0, BuildingBlock: TATPOV_clean_sbu_0, # of connection points: 4
#     Node 22, Type 0, BuildingBlock: TATPOV_clean_sbu_0, # of connection points: 4
#     Node 23, Type 0, BuildingBlock: TATPOV_clean_sbu_0, # of connection points: 4
#     Node 24, Type 1, BuildingBlock: VOLQOD_clean_sbu_1, # of connection points: 6
#     Node 25, Type 1, BuildingBlock: VOLQOD_clean_sbu_1, # of connection points: 6
#     Node 26, Type 1, BuildingBlock: VOLQOD_clean_sbu_1, # of connection points: 6
#     Node 27, Type 1, BuildingBlock: VOLQOD_clean_sbu_1, # of connection points: 6
#     Node 28, Type 1, BuildingBlock: VOLQOD_clean_sbu_1, # of connection points: 6
#     Node 29, Type 1, BuildingBlock: VOLQOD_clean_sbu_1, # of connection points: 6
#     Node 30, Type 1, BuildingBlock: VOLQOD_clean_sbu_1, # of connection points: 6
#     Node 31, Type 1, BuildingBlock: VOLQOD_clean_sbu_1, # of connection points: 6
#     Node 32, Type 1, BuildingBlock: VOLQOD_clean_sbu_1, # of connection points: 6
#     Node 33, Type 1, BuildingBlock: VOLQOD_clean_sbu_1, # of connection points: 6
#     Node 34, Type 1, BuildingBlock: VOLQOD_clean_sbu_1, # of connection points: 6
#     Node 35, Type 1, BuildingBlock: VOLQOD_clean_sbu_1, # of connection points: 6
#     Node 36, Type 1, BuildingBlock: VOLQOD_clean_sbu_1, # of connection points: 6
#     Node 37, Type 1, BuildingBlock: VOLQOD_clean_sbu_1, # of connection points: 6
#     Node 38, Type 1, BuildingBlock: VOLQOD_clean_sbu_1, # of connection points: 6
#     Node 39, Type 1, BuildingBlock: VOLQOD_clean_sbu_1, # of connection points: 6
#     Edge 40, Type (0, 1), BuildingBlock: KIFKEQ_clean_linker_1, # of connection points: 2
#     Edge 41, Type (0, 1), BuildingBlock: KIFKEQ_clean_linker_1, # of connection points: 2
#     Edge 42, Type (0, 1), BuildingBlock: KIFKEQ_clean_linker_1, # of connection points: 2
#     Edge 43, Type (0, 1), BuildingBlock: KIFKEQ_clean_linker_1, # of connection points: 2
#     Edge 44, Type (0, 1), BuildingBlock: KIFKEQ_clean_linker_1, # of connection points: 2
#     Edge 45, Type (0, 1), BuildingBlock: KIFKEQ_clean_linker_1, # of connection points: 2
#     Edge 46, Type (0, 1), BuildingBlock: KIFKEQ_clean_linker_1, # of connection points: 2
#     Edge 47, Type (0, 1), BuildingBlock: KIFKEQ_clean_linker_1, # of connection points: 2
#     Edge 48, Type (0, 1), BuildingBlock: KIFKEQ_clean_linker_1, # of connection points: 2
#     Edge 49, Type (0, 1), BuildingBlock: KIFKEQ_clean_linker_1, # of connection points: 2
#     Edge 50, Type (0, 1), BuildingBlock: KIFKEQ_clean_linker_1, # of connection points: 2
#     Edge 51, Type (0, 1), BuildingBlock: KIFKEQ_clean_linker_1, # of connection points: 2
#     Edge 52, Type (0, 1), BuildingBlock: KIFKEQ_clean_linker_1, # of connection points: 2
#     Edge 53, Type (0, 1), BuildingBlock: KIFKEQ_clean_linker_1, # of connection points: 2
#     Edge 54, Type (0, 1), BuildingBlock: KIFKEQ_clean_linker_1, # of connection points: 2
#     Edge 55, Type (0, 1), BuildingBlock: KIFKEQ_clean_linker_1, # of connection points: 2
#     Edge 56, Type (0, 1), BuildingBlock: KIFKEQ_clean_linker_1, # of connection points: 2
#     Edge 57, Type (0, 1), BuildingBlock: KIFKEQ_clean_linker_1, # of connection points: 2
#     Edge 58, Type (0, 1), BuildingBlock: KIFKEQ_clean_linker_1, # of connection points: 2
#     Edge 59, Type (0, 1), BuildingBlock: KIFKEQ_clean_linker_1, # of connection points: 2
#     Edge 60, Type (0, 1), BuildingBlock: KIFKEQ_clean_linker_1, # of connection points: 2
#     Edge 61, Type (0, 1), BuildingBlock: KIFKEQ_clean_linker_1, # of connection points: 2
#     Edge 62, Type (0, 1), BuildingBlock: KIFKEQ_clean_linker_1, # of connection points: 2
#     Edge 63, Type (0, 1), BuildingBlock: KIFKEQ_clean_linker_1, # of connection points: 2
#     Edge 64, Type (0, 1), BuildingBlock: KIFKEQ_clean_linker_1, # of connection points: 2
#     Edge 65, Type (0, 1), BuildingBlock: KIFKEQ_clean_linker_1, # of connection points: 2
#     Edge 66, Type (0, 1), BuildingBlock: KIFKEQ_clean_linker_1, # of connection points: 2
#     Edge 67, Type (0, 1), BuildingBlock: KIFKEQ_clean_linker_1, # of connection points: 2
#     Edge 68, Type (0, 1), BuildingBlock: KIFKEQ_clean_linker_1, # of connection points: 2
#     Edge 69, Type (0, 1), BuildingBlock: KIFKEQ_clean_linker_1, # of connection points: 2
#     Edge 70, Type (0, 1), BuildingBlock: KIFKEQ_clean_linker_1, # of connection points: 2
#     Edge 71, Type (0, 1), BuildingBlock: KIFKEQ_clean_linker_1, # of connection points: 2
#     Edge 72, Type (0, 1), BuildingBlock: KIFKEQ_clean_linker_1, # of connection points: 2
#     Edge 73, Type (0, 1), BuildingBlock: KIFKEQ_clean_linker_1, # of connection points: 2
#     Edge 74, Type (0, 1), BuildingBlock: KIFKEQ_clean_linker_1, # of connection points: 2
#     Edge 75, Type (0, 1), BuildingBlock: KIFKEQ_clean_linker_1, # of connection points: 2
#     Edge 76, Type (0, 1), BuildingBlock: KIFKEQ_clean_linker_1, # of connection points: 2
#     Edge 77, Type (0, 1), BuildingBlock: KIFKEQ_clean_linker_1, # of connection points: 2
#     Edge 78, Type (0, 1), BuildingBlock: KIFKEQ_clean_linker_1, # of connection points: 2
#     Edge 79, Type (0, 1), BuildingBlock: KIFKEQ_clean_linker_1, # of connection points: 2
#     Edge 80, Type (0, 1), BuildingBlock: KIFKEQ_clean_linker_1, # of connection points: 2
#     Edge 81, Type (0, 1), BuildingBlock: KIFKEQ_clean_linker_1, # of connection points: 2
#     Edge 82, Type (0, 1), BuildingBlock: KIFKEQ_clean_linker_1, # of connection points: 2
#     Edge 83, Type (0, 1), BuildingBlock: KIFKEQ_clean_linker_1, # of connection points: 2
#     Edge 84, Type (0, 1), BuildingBlock: KIFKEQ_clean_linker_1, # of connection points: 2
#     Edge 85, Type (0, 1), BuildingBlock: KIFKEQ_clean_linker_1, # of connection points: 2
#     Edge 86, Type (0, 1), BuildingBlock: KIFKEQ_clean_linker_1, # of connection points: 2
#     Edge 87, Type (0, 1), BuildingBlock: KIFKEQ_clean_linker_1, # of connection points: 2
#     Edge 88, Type (0, 1), BuildingBlock: KIFKEQ_clean_linker_1, # of connection points: 2
#     Edge 89, Type (0, 1), BuildingBlock: KIFKEQ_clean_linker_1, # of connection points: 2
#     Edge 90, Type (0, 1), BuildingBlock: KIFKEQ_clean_linker_1, # of connection points: 2
#     Edge 91, Type (0, 1), BuildingBlock: KIFKEQ_clean_linker_1, # of connection points: 2
#     Edge 92, Type (0, 1), BuildingBlock: KIFKEQ_clean_linker_1, # of connection points: 2
#     Edge 93, Type (0, 1), BuildingBlock: KIFKEQ_clean_linker_1, # of connection points: 2
#     Edge 94, Type (0, 1), BuildingBlock: KIFKEQ_clean_linker_1, # of connection points: 2
#     Edge 95, Type (0, 1), BuildingBlock: KIFKEQ_clean_linker_1, # of connection points: 2
#     Edge 96, Type (0, 1), BuildingBlock: KIFKEQ_clean_linker_1, # of connection points: 2
#     Edge 97, Type (0, 1), BuildingBlock: KIFKEQ_clean_linker_1, # of connection points: 2
#     Edge 98, Type (0, 1), BuildingBlock: KIFKEQ_clean_linker_1, # of connection points: 2
#     Edge 99, Type (0, 1), BuildingBlock: KIFKEQ_clean_linker_1, # of connection points: 2
#     Edge 100, Type (0, 1), BuildingBlock: KIFKEQ_clean_linker_1, # of connection points: 2
#     Edge 101, Type (0, 1), BuildingBlock: KIFKEQ_clean_linker_1, # of connection points: 2
#     Edge 102, Type (0, 1), BuildingBlock: KIFKEQ_clean_linker_1, # of connection points: 2
#     Edge 103, Type (0, 1), BuildingBlock: KIFKEQ_clean_linker_1, # of connection points: 2
#     Edge 104, Type (0, 1), BuildingBlock: KIFKEQ_clean_linker_1, # of connection points: 2
#     Edge 105, Type (0, 1), BuildingBlock: KIFKEQ_clean_linker_1, # of connection points: 2
#     Edge 106, Type (0, 1), BuildingBlock: KIFKEQ_clean_linker_1, # of connection points: 2
#     Edge 107, Type (0, 1), BuildingBlock: KIFKEQ_clean_linker_1, # of connection points: 2
#     Edge 108, Type (0, 1), BuildingBlock: KIFKEQ_clean_linker_1, # of connection points: 2
#     Edge 109, Type (0, 1), BuildingBlock: KIFKEQ_clean_linker_1, # of connection points: 2
#     Edge 110, Type (0, 1), BuildingBlock: KIFKEQ_clean_linker_1, # of connection points: 2
#     Edge 111, Type (0, 1), BuildingBlock: KIFKEQ_clean_linker_1, # of connection points: 2
#     Edge 112, Type (0, 1), BuildingBlock: KIFKEQ_clean_linker_1, # of connection points: 2
#     Edge 113, Type (0, 1), BuildingBlock: KIFKEQ_clean_linker_1, # of connection points: 2
#     Edge 114, Type (0, 1), BuildingBlock: KIFKEQ_clean_linker_1, # of connection points: 2
#     Edge 115, Type (0, 1), BuildingBlock: KIFKEQ_clean_linker_1, # of connection points: 2
#     Edge 116, Type (0, 1), BuildingBlock: KIFKEQ_clean_linker_1, # of connection points: 2
#     Edge 117, Type (0, 1), BuildingBlock: KIFKEQ_clean_linker_1, # of connection points: 2
#     Edge 118, Type (0, 1), BuildingBlock: KIFKEQ_clean_linker_1, # of connection points: 2
#     Edge 119, Type (0, 1), BuildingBlock: KIFKEQ_clean_linker_1, # of connection points: 2
#     Edge 120, Type (0, 1), BuildingBlock: KIFKEQ_clean_linker_1, # of connection points: 2
#     Edge 121, Type (0, 1), BuildingBlock: KIFKEQ_clean_linker_1, # of connection points: 2
#     Edge 122, Type (0, 1), BuildingBlock: KIFKEQ_clean_linker_1, # of connection points: 2
#     Edge 123, Type (0, 1), BuildingBlock: KIFKEQ_clean_linker_1, # of connection points: 2
#     Edge 124, Type (0, 1), BuildingBlock: KIFKEQ_clean_linker_1, # of connection points: 2
#     Edge 125, Type (0, 1), BuildingBlock: KIFKEQ_clean_linker_1, # of connection points: 2
#     Edge 126, Type (0, 1), BuildingBlock: KIFKEQ_clean_linker_1, # of connection points: 2
#     Edge 127, Type (0, 1), BuildingBlock: KIFKEQ_clean_linker_1, # of connection points: 2
#     Edge 128, Type (0, 1), BuildingBlock: KIFKEQ_clean_linker_1, # of connection points: 2
#     Edge 129, Type (0, 1), BuildingBlock: KIFKEQ_clean_linker_1, # of connection points: 2
#     Edge 130, Type (0, 1), BuildingBlock: KIFKEQ_clean_linker_1, # of connection points: 2
#     Edge 131, Type (0, 1), BuildingBlock: KIFKEQ_clean_linker_1, # of connection points: 2
#     Edge 132, Type (0, 1), BuildingBlock: KIFKEQ_clean_linker_1, # of connection points: 2
#     Edge 133, Type (0, 1), BuildingBlock: KIFKEQ_clean_linker_1, # of connection points: 2
#     Edge 134, Type (0, 1), BuildingBlock: KIFKEQ_clean_linker_1, # of connection points: 2
#     Edge 135, Type (0, 1), BuildingBlock: KIFKEQ_clean_linker_1, # of connection points: 2
# Relax obj value: 0.317
# Max RMSD: 0.297
# Mean RMSD: 0.179
data_MOF--net-iac--node1-TATPOV_clean_sbu_0--node2-VOLQOD_clean_sbu_1--edge1-KIFKEQ_clean_linker_1
_symmetry_space_group_name_H-M    P1
_symmetry_Int_Tables_number       1
_symmetry_cell_setting            triclinic
loop_
_symmetry_equiv_pos_as_xyz
'x, y, z'
_cell_length_a     54.86338
_cell_length_b     54.992554
_cell_length_c     55.447793
_cell_angle_alpha  90.422667
_cell_angle_beta   90.777309
_cell_angle_gamma 92.250918
loop_
_atom_site_label
_atom_site_type_symbol
_atom_site_fract_x
_atom_site_fract_y
_atom_site_fract_z
_atom_type_partial_charge
Zn0 Zn 0.99622 0.23805 0.06472 0.0
Zn1 Zn 0.96839 0.25947 0.09812 0.0
O2 O 0.97034 0.28429 0.07084 0.0
O3 O 0.99273 0.26713 0.04329 0.0
O4 O 0.94466 0.27297 0.12134 0.0
O5 O 0.97198 0.20948 0.06229 0.0
O6 O 0.95127 0.22652 0.09111 0.0
C7 C 0.98087 0.28504 0.05049 0.0
C8 C 0.02118 0.25016 0.11048 0.0
O9 O 0.00075 0.25842 0.11645 0.0
O10 O 0.02355 0.24005 0.09004 0.0
C11 C 0.9429 0.26385 0.14226 0.0
O12 O 0.95862 0.24776 0.14911 0.0
C13 C 0.95409 0.20901 0.07647 0.0
Zn14 Zn 0.98099 0.74562 0.46651 0.0
Zn15 Zn 0.01723 0.74612 0.43297 0.0
O16 O 0.02087 0.77986 0.44813 0.0
O17 O 0.99438 0.77888 0.47775 0.0
O18 O 0.04363 0.74495 0.40843 0.0
O19 O 0.99428 0.71454 0.48033 0.0
O20 O 0.02375 0.71677 0.45385 0.0
C21 C 0.01074 0.79015 0.4658 0.0
C22 C 0.96413 0.74419 0.41643 0.0
O23 O 0.98679 0.74352 0.41228 0.0
O24 O 0.9567 0.74497 0.43799 0.0
C25 C 0.04142 0.75595 0.3885 0.0
O26 O 0.02229 0.76913 0.38473 0.0
C27 C 0.01343 0.70613 0.4715 0.0
Zn28 Zn 0.49866 0.73011 0.70242 0.0
Zn29 Zn 0.49247 0.75826 0.66216 0.0
O30 O 0.46335 0.76752 0.68152 0.0
O31 O 0.46749 0.74537 0.71421 0.0
O32 O 0.49228 0.77864 0.6325 0.0
O33 O 0.53224 0.7468 0.70842 0.0
O34 O 0.52581 0.76815 0.6758 0.0
C35 C 0.45554 0.76031 0.70185 0.0
C36 C 0.48835 0.70282 0.6583 0.0
O37 O 0.48748 0.72405 0.64951 0.0
O38 O 0.494 0.7 0.68034 0.0
C39 C 0.50994 0.77569 0.61829 0.0
O40 O 0.52532 0.75855 0.62297 0.0
C41 C 0.53941 0.76283 0.69352 0.0
Zn42 Zn 0.50564 0.25336 0.96197 0.0
Zn43 Zn 0.53816 0.25589 0.92597 0.0
O44 O 0.5437 0.28821 0.94443 0.0
O45 O 0.51852 0.28585 0.97497 0.0
O46 O 0.5651 0.25596 0.90186 0.0
O47 O 0.51849 0.22152 0.97375 0.0
O48 O 0.5431 0.22342 0.94283 0.0
C49 C 0.53461 0.29764 0.96318 0.0
C50 C 0.48474 0.2547 0.91288 0.0
O51 O 0.50682 0.25585 0.90611 0.0
O52 O 0.47981 0.25322 0.93514 0.0
C53 C 0.56744 0.27134 0.88501 0.0
O54 O 0.55144 0.28836 0.88275 0.0
C55 C 0.53467 0.21209 0.96103 0.0
Zn56 Zn 0.07319 0.05721 0.21695 0.0
Zn57 Zn 0.10029 0.01796 0.22426 0.0
O58 O 0.09501 0.02872 0.25897 0.0
O59 O 0.07395 0.0616 0.25331 0.0
O60 O 0.12133 0.98904 0.22612 0.0
O61 O 0.04653 0.03556 0.20214 0.0
O62 O 0.06914 0.00388 0.20784 0.0
C63 C 0.08416 0.04693 0.2674 0.0
C64 C 0.12015 0.06291 0.19647 0.0
O65 O 0.12228 0.04226 0.20628 0.0
O66 O 0.09994 0.07323 0.19706 0.0
C67 C 0.14344 0.99138 0.23314 0.0
O68 O 0.15209 0.0128 0.24057 0.0
C69 C 0.0493 0.01285 0.20066 0.0
Zn70 Zn 0.3266 0.85604 0.53485 0.0
Zn71 Zn 0.29036 0.88794 0.53015 0.0
O72 O 0.29663 0.87885 0.49515 0.0
O73 O 0.32807 0.85526 0.49839 0.0
O74 O 0.26286 0.9108 0.52961 0.0
O75 O 0.30274 0.83191 0.54994 0.0
O76 O 0.27489 0.85969 0.54864 0.0
C77 C 0.31253 0.86579 0.48543 0.0
C78 C 0.33851 0.9032 0.55555 0.0
O79 O 0.3179 0.90802 0.54639 0.0
O80 O 0.34609 0.88176 0.55436 0.0
C81 C 0.25734 0.9249 0.51253 0.0
O82 O 0.27049 0.92539 0.49289 0.0
C83 C 0.28134 0.83846 0.55411 0.0
Zn84 Zn 0.35929 0.93034 0.71361 0.0
Zn85 Zn 0.34703 0.97577 0.71623 0.0
O86 O 0.3582 0.96976 0.75102 0.0
O87 O 0.3651 0.93059 0.7496 0.0
O88 O 0.33679 0.01077 0.71624 0.0
O89 O 0.38817 0.93843 0.6936 0.0
O90 O 0.37721 0.97652 0.69378 0.0
C91 C 0.36465 0.95037 0.76141 0.0
C92 C 0.31034 0.9342 0.70006 0.0
O93 O 0.31508 0.95603 0.70708 0.0
O94 O 0.32721 0.91922 0.6991 0.0
C95 C 0.31812 0.01756 0.72744 0.0
O96 O 0.305 0.00139 0.73949 0.0
C97 C 0.39209 0.96036 0.68766 0.0
Zn98 Zn 0.18517 0.1474 0.01157 0.0
Zn99 Zn 0.22028 0.11595 0.01343 0.0
O100 O 0.21716 0.12517 0.97779 0.0
O101 O 0.18389 0.14607 0.97531 0.0
O102 O 0.2489 0.09399 0.01328 0.0
O103 O 0.20735 0.17298 0.02734 0.0
O104 O 0.23323 0.14435 0.03501 0.0
C105 C 0.20162 0.13632 0.96518 0.0
C106 C 0.17066 0.10237 0.03421 0.0
O107 O 0.19117 0.09551 0.02672 0.0
O108 O 0.16463 0.12419 0.03151 0.0
C109 C 0.2688 0.10397 0.00613 0.0
O110 O 0.26897 0.12689 -0.00044 0.0
C111 C 0.22693 0.1663 0.03709 0.0
Zn112 Zn 0.846 0.38541 0.05939 0.0
Zn113 Zn 0.81068 0.4157 0.04356 0.0
O114 O 0.82264 0.40121 0.01232 0.0
O115 O 0.85083 0.37616 0.02408 0.0
O116 O 0.78276 0.43613 0.03385 0.0
O117 O 0.82031 0.36604 0.07795 0.0
O118 O 0.79281 0.39082 0.06451 0.0
C119 C 0.83846 0.38565 0.00737 0.0
C120 C 0.85556 0.43662 0.07094 0.0
O121 O 0.83547 0.43921 0.05972 0.0
O122 O 0.86373 0.41556 0.07378 0.0
C123 C 0.78285 0.45916 0.0321 0.0
O124 O 0.80329 0.472 0.0356 0.0
C125 C 0.79833 0.37223 0.0766 0.0
Zn126 Zn 0.87404 0.4497 0.21176 0.0
Zn127 Zn 0.86311 0.49574 0.22017 0.0
O128 O 0.87722 0.48775 0.253 0.0
O129 O 0.88685 0.44971 0.24649 0.0
O130 O 0.85376 0.53077 0.22223 0.0
O131 O 0.89745 0.45862 0.18576 0.0
O132 O 0.89069 0.4967 0.19514 0.0
C133 C 0.88629 0.46813 0.26037 0.0
C134 C 0.82342 0.45577 0.20781 0.0
O135 O 0.83004 0.4773 0.21433 0.0
O136 O 0.83921 0.4401 0.204 0.0
C137 C 0.83634 0.53737 0.23534 0.0
O138 O 0.82455 0.52105 0.24842 0.0
C139 C 0.90239 0.4811 0.18327 0.0
Zn140 Zn 0.70291 0.67458 0.52264 0.0
Zn141 Zn 0.73777 0.64256 0.51855 0.0
O142 O 0.73705 0.65753 0.48503 0.0
O143 O 0.70562 0.68119 0.48705 0.0
O144 O 0.76416 0.61828 0.51669 0.0
O145 O 0.72376 0.69479 0.5456 0.0
O146 O 0.75162 0.66717 0.54381 0.0
C147 C 0.72272 0.67227 0.47514 0.0
C148 C 0.68541 0.62661 0.53269 0.0
O149 O 0.70682 0.62152 0.52617 0.0
O150 O 0.67953 0.64857 0.53432 0.0
C151 C 0.78592 0.62608 0.51319 0.0
O152 O 0.79027 0.64958 0.51055 0.0
C153 C 0.7444 0.68735 0.5519 0.0
Zn154 Zn 0.60644 0.5593 0.70774 0.0
Zn155 Zn 0.63575 0.52217 0.71269 0.0
O156 O 0.62675 0.5302 0.7475 0.0
O157 O 0.60607 0.56354 0.7438 0.0
O158 O 0.65924 0.49532 0.71629 0.0
O159 O 0.58157 0.53641 0.69204 0.0
O160 O 0.60701 0.50646 0.69333 0.0
C161 C 0.61549 0.54761 0.75697 0.0
C162 C 0.65266 0.56955 0.68729 0.0
O163 O 0.65681 0.54886 0.6963 0.0
O164 O 0.63153 0.57788 0.68842 0.0
C165 C 0.67879 0.49941 0.72846 0.0
O166 O 0.68287 0.52096 0.73845 0.0
C167 C 0.58629 0.5145 0.68754 0.0
Zn168 Zn 0.95994 0.73854 0.94668 0.0
Zn169 Zn 0.99057 0.73881 0.90843 0.0
O170 O 0.99013 0.77499 0.9162 0.0
O171 O 0.96182 0.77532 0.94408 0.0
O172 O 0.01052 0.73625 0.87868 0.0
O173 O 0.98619 0.72145 0.96565 0.0
O174 O 0.00886 0.71922 0.93325 0.0
C175 C 0.9766 0.78658 0.93032 0.0
C176 C 0.93755 0.71763 0.90473 0.0
O177 O 0.95808 0.72451 0.89628 0.0
O178 O 0.93352 0.72011 0.92704 0.0
C179 C 0.01198 0.75263 0.86266 0.0
O180 O 0.00101 0.77319 0.86582 0.0
C181 C 0.00533 0.71468 0.95542 0.0
Zn182 Zn 0.07579 0.30961 0.60097 0.0
Zn183 Zn 0.04327 0.28847 0.63253 0.0
O184 O 0.02267 0.3047 0.60715 0.0
O185 O 0.04773 0.32351 0.58221 0.0
O186 O 0.01791 0.28071 0.65751 0.0
O187 O 0.08391 0.27448 0.59379 0.0
O188 O 0.05789 0.25782 0.61966 0.0
C189 C 0.02622 0.31756 0.58852 0.0
C190 C 0.08702 0.32189 0.64957 0.0
O191 O 0.06852 0.30764 0.65229 0.0
O192 O 0.09392 0.32742 0.62853 0.0
C193 C 0.01022 0.30037 0.66636 0.0
O194 O 0.01971 0.32118 0.65871 0.0
C195 C 0.07438 0.25582 0.60384 0.0
Zn196 Zn 0.43675 0.23429 0.43658 0.0
Zn197 Zn 0.47283 0.23493 0.40328 0.0
O198 O 0.47307 0.27015 0.414 0.0
O199 O 0.44334 0.27081 0.44028 0.0
O200 O 0.49986 0.2349 0.37957 0.0
O201 O 0.45581 0.21064 0.45655 0.0
O202 O 0.48434 0.21162 0.42899 0.0
C203 C 0.46007 0.2818 0.42856 0.0
C204 C 0.42032 0.22026 0.38858 0.0
O205 O 0.44258 0.22464 0.38342 0.0
O206 O 0.41332 0.2222 0.41018 0.0
C207 C 0.49895 0.24625 0.35973 0.0
O208 O 0.4793 0.25799 0.35407 0.0
C209 C 0.47616 0.20386 0.449 0.0
Zn210 Zn 0.52013 0.7289 0.17331 0.0
Zn211 Zn 0.51719 0.76972 0.14571 0.0
O212 O 0.48428 0.76186 0.15985 0.0
O213 O 0.48378 0.72778 0.18017 0.0
O214 O 0.50772 0.79623 0.12361 0.0
O215 O 0.5427 0.75104 0.19392 0.0
O216 O 0.5422 0.78294 0.16994 0.0
C217 C 0.47282 0.74593 0.17217 0.0
C218 C 0.53812 0.72369 0.12479 0.0
O219 O 0.53181 0.74558 0.12315 0.0
O220 O 0.53465 0.712 0.14415 0.0
C221 C 0.49222 0.78879 0.10766 0.0
O222 O 0.4859 0.76551 0.10654 0.0
C223 C 0.54999 0.77258 0.18883 0.0
Zn224 Zn 0.94821 -0.00259 0.78684 0.0
Zn225 Zn 0.91379 0.03034 0.77495 0.0
O226 O 0.93395 0.04458 0.80313 0.0
O227 O 0.96216 0.01928 0.81348 0.0
O228 O 0.88952 0.05674 0.77119 0.0
O229 O 0.96031 0.00179 0.75281 0.0
O230 O 0.93221 0.02794 0.74343 0.0
C231 C 0.952 0.03934 0.81642 0.0
C232 C 0.89808 0.97826 0.78835 0.0
O233 O 0.89306 -0.0005 0.78131 0.0
O234 O 0.92001 0.97309 0.79276 0.0
C235 C 0.87916 0.06265 0.79067 0.0
O236 O 0.88333 0.05003 0.81023 0.0
C237 C 0.95042 0.01555 0.73761 0.0
Zn238 Zn 0.7328 0.18185 0.51286 0.0
Zn239 Zn 0.77853 0.16528 0.51404 0.0
O240 O 0.77574 0.18377 0.48196 0.0
O241 O 0.73933 0.19926 0.48192 0.0
O242 O 0.8119 0.15168 0.51196 0.0
O243 O 0.74103 0.19934 0.54408 0.0
O244 O 0.77861 0.18636 0.54468 0.0
C245 C 0.75971 0.19669 0.47203 0.0
C246 C 0.73441 0.12984 0.51653 0.0
O247 O 0.75727 0.13439 0.51783 0.0
O248 O 0.71984 0.14682 0.51309 0.0
C249 C 0.81567 0.13731 0.49442 0.0
O250 O 0.79798 0.13253 0.47867 0.0
C251 C 0.76186 0.19859 0.55411 0.0
Zn252 Zn 0.5648 0.0154 0.2509 0.0
Zn253 Zn 0.60252 0.98491 0.25165 0.0
O254 O 0.58614 0.98114 0.28451 0.0
O255 O 0.55679 0.00728 0.28524 0.0
O256 O 0.63084 0.96276 0.25439 0.0
O257 O 0.54974 0.99497 0.22405 0.0
O258 O 0.58262 0.97324 0.22181 0.0
C259 C 0.56886 0.99108 0.29552 0.0
C260 C 0.61194 0.0389 0.24196 0.0
O261 O 0.61959 0.01775 0.24593 0.0
O262 O 0.58932 0.04271 0.24267 0.0
C263 C 0.64461 0.96452 0.27304 0.0
O264 O 0.63968 0.98035 0.28998 0.0
C265 C 0.56165 0.97867 0.21381 0.0
Zn266 Zn 0.76001 0.78738 0.97652 0.0
Zn267 Zn 0.71963 0.81089 0.98927 0.0
O268 O 0.70885 0.78638 0.96278 0.0
O269 O 0.74078 0.76548 0.95355 0.0
O270 O 0.68875 0.82957 0.99292 0.0
O271 O 0.76331 0.77873 0.01153 0.0
O272 O 0.72993 0.79708 0.02206 0.0
C273 C 0.7184 0.76955 0.95069 0.0
C274 C 0.76545 0.83886 0.97093 0.0
O275 O 0.74431 0.8378 0.98008 0.0
O276 O 0.77604 0.81943 0.96589 0.0
C277 C 0.6839 0.84217 0.97439 0.0
O278 O 0.69883 0.84188 0.95607 0.0
C279 C 0.74866 0.7851 0.02766 0.0
Zn280 Zn 0.2319 0.64533 -0.00248 0.0
Zn281 Zn 0.27953 0.64086 0.00238 0.0
O282 O 0.27453 0.66016 0.97081 0.0
O283 O 0.23515 0.66639 0.96887 0.0
O284 O 0.31538 0.63402 0.00114 0.0
O285 O 0.23272 0.66183 0.02983 0.0
O286 O 0.27279 0.66041 0.03347 0.0
C287 C 0.25632 0.66965 0.96053 0.0
C288 C 0.24441 0.59603 -0.00051 0.0
O289 O 0.26525 0.60591 0.00425 0.0
O290 O 0.22663 0.60903 -0.00586 0.0
C291 C 0.32103 0.62077 0.98326 0.0
O292 O 0.3039 0.61401 0.96754 0.0
C293 C 0.25229 0.66691 0.04149 0.0
Zn294 Zn 0.07509 0.50106 0.74309 0.0
Zn295 Zn 0.1065 0.46617 0.7499 0.0
O296 O 0.09303 0.47371 0.78366 0.0
O297 O 0.06915 0.50451 0.77836 0.0
O298 O 0.13017 0.43966 0.75706 0.0
O299 O 0.05337 0.47858 0.72338 0.0
O300 O 0.08231 0.45188 0.72378 0.0
C301 C 0.07909 0.48957 0.79224 0.0
C302 C 0.12373 0.51432 0.72779 0.0
O303 O 0.12858 0.49386 0.73692 0.0
O304 O 0.10197 0.52121 0.72719 0.0
C305 C 0.14913 0.44554 0.76961 0.0
O306 O 0.15237 0.4682 0.77704 0.0
C307 C 0.06159 0.45867 0.71621 0.0
Zn308 Zn 0.27109 0.30409 0.49085 0.0
Zn309 Zn 0.23013 0.32504 0.5059 0.0
O310 O 0.22118 0.30427 0.47592 0.0
O311 O 0.25344 0.28506 0.46443 0.0
O312 O 0.198 0.34127 0.51056 0.0
O313 O 0.27365 0.29063 0.52446 0.0
O314 O 0.23982 0.30704 0.53671 0.0
C315 C 0.23113 0.28947 0.46171 0.0
C316 C 0.27523 0.35637 0.49248 0.0
O317 O 0.25403 0.35397 0.50136 0.0
O318 O 0.28604 0.3379 0.48494 0.0
C319 C 0.19294 0.35481 0.49278 0.0
O320 O 0.20874 0.35712 0.47526 0.0
C321 C 0.25854 0.29457 0.54099 0.0
Zn322 Zn 0.42171 0.49134 0.25045 0.0
Zn323 Zn 0.39121 0.5271 0.23923 0.0
O324 O 0.40653 0.53683 0.27172 0.0
O325 O 0.43384 0.50983 0.28009 0.0
O326 O 0.36842 0.55467 0.23555 0.0
O327 O 0.43813 0.49793 0.21882 0.0
O328 O 0.41552 0.52946 0.21146 0.0
C329 C 0.42339 0.52925 0.28533 0.0
C330 C 0.37165 0.47444 0.24483 0.0
O331 O 0.36858 0.49636 0.23856 0.0
O332 O 0.39248 0.46796 0.25181 0.0
C333 C 0.35073 0.55482 0.25016 0.0
O334 O 0.34726 0.53626 0.26467 0.0
C335 C 0.43288 0.51585 0.20578 0.0
O336 O 0.93756 0.05077 0.05111 0.0
Zn337 Zn 0.95859 0.03329 0.02853 0.0
O338 O 0.94619 3e-05 0.02472 0.0
Zn339 Zn 0.97287 0.97876 0.03158 0.0
Zn340 Zn 0.91874 0.99357 0.04638 0.0
Zn341 Zn 0.93479 0.99488 0.99192 0.0
O342 O 0.97806 0.95581 0.00417 0.0
O343 O 0.95437 0.96991 0.97511 0.0
O344 O 0.99308 0.03545 0.0406 0.0
O345 O 0.00484 -0.00254 0.03807 0.0
O346 O 0.96577 0.96031 0.06171 0.0
O347 O 0.93018 0.97326 0.07423 0.0
O348 O 0.89065 0.97572 0.02888 0.0
O349 O 0.95811 0.0515 -0.00286 0.0
O350 O 0.9007 0.98091 0.99059 0.0
O351 O 0.93672 0.0257 0.97328 0.0
C352 C 0.9174 0.04608 0.06145 0.0
C353 C 0.97013 0.95519 0.98249 0.0
C354 C 0.94899 0.96065 0.07735 0.0
C355 C 0.00959 0.01994 0.04232 0.0
C356 C 0.88584 0.97312 0.00642 0.0
C357 C 0.94736 0.04635 0.9772 0.0
O358 O 0.90658 0.02518 0.06016 0.0
O359 O 0.22643 0.73809 0.21971 0.0
Zn360 Zn 0.22971 0.74405 0.25554 0.0
O361 O 0.24923 0.77424 0.26162 0.0
Zn362 Zn 0.27921 0.76662 0.27864 0.0
Zn363 Zn 0.25643 0.79114 0.23122 0.0
Zn364 Zn 0.23158 0.79574 0.28197 0.0
O365 O 0.28337 0.78388 0.31061 0.0
O366 O 0.24867 0.80294 0.31336 0.0
O367 O 0.24727 0.71475 0.26726 0.0
O368 O 0.28191 0.73058 0.2827 0.0
O369 O 0.30763 0.77623 0.25881 0.0
O370 O 0.29275 0.79319 0.22582 0.0
O371 O 0.2428 0.82501 0.22986 0.0
O372 O 0.19635 0.745 0.27111 0.0
O373 O 0.22732 0.82773 0.2665 0.0
O374 O 0.19856 0.78161 0.28846 0.0
C375 C 0.23286 0.75027 0.20123 0.0
C376 C 0.26933 0.79763 0.32203 0.0
C377 C 0.3107 0.78613 0.23839 0.0
C378 C 0.26815 0.7122 0.27703 0.0
C379 C 0.23213 0.83698 0.24611 0.0
C380 C 0.18686 0.76178 0.28344 0.0
O381 O 0.24346 0.77121 0.20319 0.0
O382 O 0.53601 0.94251 0.5304 0.0
Zn383 Zn 0.53056 0.97717 0.52192 0.0
O384 O 0.55368 -0.00211 0.53993 0.0
Zn385 Zn 0.53667 0.02119 0.55936 0.0
Zn386 Zn 0.57309 0.97925 0.56218 0.0
Zn387 Zn 0.57409 0.01471 0.51754 0.0
O388 O 0.53975 0.05463 0.54549 0.0
O389 O 0.56546 0.04986 0.51538 0.0
O390 O 0.49627 0.98403 0.53118 0.0
O391 O 0.50107 0.0114 0.56079 0.0
O392 O 0.54804 0.02128 0.59371 0.0
O393 O 0.55759 0.98277 0.59466 0.0
O394 O 0.60904 0.99042 0.56169 0.0
O395 O 0.53493 0.97954 0.48594 0.0
O396 O 0.60852 0.01217 0.5279 0.0
O397 O 0.57021 0.00058 0.48447 0.0
C398 C 0.55217 0.93162 0.54245 0.0
C399 C 0.55165 0.06314 0.52768 0.0
C400 C 0.54868 0.00119 0.60485 0.0
C401 C 0.48758 0.99709 0.54781 0.0
C402 C 0.61997 0.00273 0.54536 0.0
C403 C 0.55302 0.98812 0.47413 0.0
O404 O 0.56893 0.94343 0.55428 0.0
O405 O 0.2696 0.24123 0.82348 0.0
Zn406 Zn 0.28539 0.26715 0.80317 0.0
O407 O 0.28234 0.25786 0.77011 0.0
Zn408 Zn 0.31112 0.24514 0.75691 0.0
Zn409 Zn 0.25467 0.23534 0.76515 0.0
Zn410 Zn 0.2782 0.28877 0.75566 0.0
O411 O 0.31598 0.25816 0.72304 0.0
O412 O 0.29464 0.29154 0.72426 0.0
O413 O 0.32109 0.27009 0.81125 0.0
O414 O 0.33944 0.25321 0.7799 0.0
O415 O 0.30567 0.20914 0.75269 0.0
O416 O 0.2654 0.20495 0.74708 0.0
O417 O 0.22611 0.25353 0.75054 0.0
O418 O 0.26809 0.29885 0.80795 0.0
O419 O 0.24324 0.29081 0.74852 0.0
O420 O 0.28596 0.31717 0.77748 0.0
C421 C 0.25293 0.22507 0.81866 0.0
C422 C 0.30808 0.27714 0.71299 0.0
C423 C 0.2867 0.1962 0.74672 0.0
C424 C 0.34031 0.26338 0.80074 0.0
C425 C 0.22472 0.27634 0.74652 0.0
C426 C 0.27258 0.31816 0.79596 0.0
O427 O 0.24439 0.22197 0.79734 0.0
O428 O 0.03358 0.03534 0.44941 0.0
Zn429 Zn 0.01707 0.02406 0.47955 0.0
O430 O 0.03791 0.0339 0.50707 0.0
Zn431 Zn 0.04489 0.00634 0.52763 0.0
Zn432 Zn 0.06842 0.05046 0.49707 0.0
Zn433 Zn 0.0201 0.05624 0.52555 0.0
O434 O 0.0308 0.00939 0.56107 0.0
O435 O 0.00901 0.04214 0.55632 0.0
O436 O 0.0132 0.98728 0.47792 0.0
O437 O 0.03004 0.97605 0.51272 0.0
O438 O 0.08114 0.00115 0.52925 0.0
O439 O 0.09655 0.02975 0.50511 0.0
O440 O 0.07507 0.08287 0.51456 0.0
O441 O 0.98379 0.0399 0.47976 0.0
O442 O 0.04077 0.0845 0.53497 0.0
O443 O 0.99126 0.06787 0.5082 0.0
C444 C 0.05322 0.04734 0.44455 0.0
C445 C 0.01564 0.02439 0.56898 0.0
C446 C 0.09919 0.0113 0.51848 0.0
C447 C 0.01883 0.97096 0.493 0.0
C448 C 0.06175 0.09327 0.52986 0.0
C449 C 0.97779 0.05883 0.49136 0.0
O450 O 0.06819 0.05482 0.46102 0.0
O451 O 0.26491 0.75667 0.74086 0.0
Zn452 Zn 0.23046 0.75765 0.75163 0.0
O453 O 0.21056 0.73454 0.73224 0.0
Zn454 Zn 0.18453 0.75184 0.71609 0.0
Zn455 Zn 0.22996 0.71759 0.70881 0.0
Zn456 Zn 0.1971 0.71062 0.75369 0.0
O457 O 0.15194 0.74413 0.73164 0.0
O458 O 0.16197 0.71649 0.75873 0.0
O459 O 0.2206 0.79208 0.74672 0.0
O460 O 0.19148 0.78813 0.71861 0.0
O461 O 0.18398 0.74525 0.68017 0.0
O462 O 0.21916 0.72708 0.67606 0.0
O463 O 0.22523 0.68084 0.7102 0.0
O464 O 0.23221 0.74903 0.78685 0.0
O465 O 0.2004 0.67694 0.74131 0.0
O466 O 0.21446 0.7121 0.7854 0.0
C467 C 0.27644 0.74413 0.72577 0.0
C468 C 0.14626 0.72982 0.74886 0.0
C469 C 0.20051 0.73675 0.66692 0.0
C470 C 0.20574 0.80142 0.73192 0.0
C471 C 0.21243 0.66766 0.72438 0.0
C472 C 0.22678 0.72873 0.79665 0.0
O473 O 0.2656 0.72794 0.71246 0.0
O474 O 0.51517 0.98028 0.02801 0.0
Zn475 Zn 0.5123 0.98474 0.99238 0.0
O476 O 0.47915 0.97646 0.98163 0.0
Zn477 Zn 0.47887 0.94554 0.96409 0.0
Zn478 Zn 0.45788 0.97403 0.00964 0.0
Zn479 Zn 0.46788 0.00193 0.96076 0.0
O480 O 0.46227 0.94866 0.93163 0.0
O481 O 0.45886 0.98865 0.92797 0.0
O482 O 0.53639 0.96232 0.97822 0.0
O483 O 0.51309 0.93336 0.9604 0.0
O484 O 0.46093 0.91973 0.98287 0.0
O485 O 0.44453 0.93989 0.01297 0.0
O486 O 0.42979 0.99652 0.00777 0.0
O487 O 0.52197 0.01947 0.98454 0.0
O488 O 0.43709 0.01588 0.97353 0.0
O489 O 0.49282 0.0296 0.95868 0.0
C490 C 0.49975 0.97952 0.04492 0.0
C491 C 0.45614 0.96711 0.91949 0.0
C492 C 0.448 0.92009 0.00174 0.0
C493 C 0.53404 0.94214 0.96689 0.0
C494 C 0.42402 0.0121 0.99203 0.0
C495 C 0.51276 0.03457 0.97005 0.0
O496 O 0.47689 0.97962 0.04065 0.0
O497 O 0.17825 0.26061 0.22393 0.0
Zn498 Zn 0.20684 0.24866 0.24251 0.0
O499 O 0.23599 0.26726 0.23312 0.0
Zn500 Zn 0.26061 0.24516 0.22203 0.0
Zn501 Zn 0.22933 0.29059 0.20783 0.0
Zn502 Zn 0.24766 0.28451 0.26134 0.0
O503 O 0.28741 0.24169 0.24691 0.0
O504 O 0.27705 0.26862 0.27462 0.0
O505 O 0.20939 0.21348 0.23373 0.0
O506 O 0.24526 0.21183 0.21572 0.0
O507 O 0.27402 0.255 0.18995 0.0
O508 O 0.24592 0.28021 0.17754 0.0
O509 O 0.24274 0.32468 0.21664 0.0
O510 O 0.19955 0.25151 0.27799 0.0
O511 O 0.25643 0.31899 0.25396 0.0
O512 O 0.22323 0.28382 0.28767 0.0
C513 C 0.17523 0.27673 0.2079 0.0
C514 C 0.29093 0.25216 0.26731 0.0
C515 C 0.2641 0.26717 0.1733 0.0
C516 C 0.22517 0.20181 0.22227 0.0
C517 C 0.2533 0.33271 0.23591 0.0
C518 C 0.2064 0.26825 0.29281 0.0
O519 O 0.19307 0.28999 0.20022 0.0
O520 O 0.55127 0.53669 0.93766 0.0
Zn521 Zn 0.53527 0.5291 0.96935 0.0
O522 O 0.5548 0.54508 -0.00454 0.0
Zn523 Zn 0.56415 0.52163 0.01986 0.0
Zn524 Zn 0.58422 0.56196 0.98337 0.0
Zn525 Zn 0.53525 0.56894 0.01037 0.0
O526 O 0.54805 0.52735 0.05191 0.0
O527 O 0.52946 0.56166 0.0448 0.0
O528 O 0.53548 0.49244 0.97329 0.0
O529 O 0.55447 0.48795 0.00856 0.0
O530 O 0.60061 0.52158 0.02425 0.0
O531 O 0.61444 0.54644 -0.00425 0.0
O532 O 0.58693 0.59742 0.99362 0.0
O533 O 0.49974 0.54015 0.96819 0.0
O534 O 0.54999 0.60216 0.00832 0.0
O535 O 0.50222 0.56892 -0.00353 0.0
C536 C 0.57041 0.54898 0.93167 0.0
C537 C 0.53479 0.54449 0.05885 0.0
C538 C 0.61821 0.5314 0.0126 0.0
C539 C 0.54377 0.47891 0.98985 0.0
C540 C 0.57077 0.61084 0.00225 0.0
C541 C 0.49004 0.55671 0.98067 0.0
O542 O 0.58428 0.55981 0.94729 0.0
O543 O 0.77476 0.27192 0.23934 0.0
Zn544 Zn 0.74391 0.2773 0.25766 0.0
O545 O 0.71656 0.25881 0.24234 0.0
Zn546 Zn 0.69067 0.28075 0.23311 0.0
Zn547 Zn 0.72708 0.24111 0.21394 0.0
Zn548 Zn 0.70431 0.23512 0.2649 0.0
O549 O 0.65877 0.27185 0.24941 0.0
O550 O 0.66967 0.2412 0.27262 0.0
O551 O 0.73801 0.31318 0.25687 0.0
O552 O 0.70063 0.31538 0.2413 0.0
O553 O 0.68674 0.28224 0.19695 0.0
O554 O 0.714 0.25645 0.18436 0.0
O555 O 0.71662 0.20537 0.21381 0.0
O556 O 0.75022 0.26699 0.29207 0.0
O557 O 0.70448 0.20155 0.25162 0.0
O558 O 0.72416 0.23529 0.29516 0.0
C559 C 0.77982 0.25832 0.22154 0.0
C560 C 0.65371 0.25562 0.26507 0.0
C561 C 0.69835 0.27235 0.17999 0.0
C562 C 0.72009 0.32557 0.24995 0.0
C563 C 0.70888 0.19231 0.23117 0.0
C564 C 0.74134 0.249 0.30382 0.0
O565 O 0.76348 0.24491 0.21089 0.0
O566 O 0.00737 0.46999 0.54084 0.0
Zn567 Zn 0.00863 0.48046 0.50657 0.0
O568 O 0.97744 0.47285 0.49104 0.0
Zn569 Zn 0.98008 0.4438 0.47108 0.0
Zn570 Zn 0.9524 0.4681 0.51574 0.0
Zn571 Zn 0.96972 0.49997 0.47098 0.0
O572 O 0.96969 0.44995 0.43665 0.0
O573 O 0.9641 0.48973 0.43671 0.0
O574 O 0.03497 0.46098 0.49243 0.0
O575 O 0.01467 0.43147 0.47214 0.0
O576 O 0.95774 0.41757 0.48385 0.0
O577 O 0.93532 0.43528 0.51147 0.0
O578 O 0.92744 0.49428 0.5146 0.0
O579 O 0.01837 0.51622 0.50456 0.0
O580 O 0.93916 0.51501 0.48228 0.0
O581 O 0.99579 0.52633 0.47288 0.0
C582 C 0.99024 0.46542 0.55552 0.0
C583 C 0.96416 0.46933 0.42574 0.0
C584 C 0.94055 0.41665 0.49907 0.0
C585 C 0.03459 0.44106 0.48059 0.0
C586 C 0.92454 0.51148 0.49965 0.0
C587 C 0.01262 0.53134 0.48835 0.0
O588 O 0.96788 0.46607 0.54914 0.0
O589 O 0.77476 0.77284 0.31903 0.0
Zn590 Zn 0.78937 0.79362 0.29283 0.0
O591 O 0.78347 0.77816 0.26176 0.0
Zn592 Zn 0.81267 0.76634 0.24711 0.0
Zn593 Zn 0.75954 0.75133 0.26405 0.0
Zn594 Zn 0.77092 0.80342 0.24221 0.0
O595 O 0.81493 0.77691 0.212 0.0
O596 O 0.78426 0.80203 0.20952 0.0
O597 O 0.82534 0.7949 0.29922 0.0
O598 O 0.84193 0.77571 0.26828 0.0
O599 O 0.81075 0.72981 0.2455 0.0
O600 O 0.77142 0.72 0.24974 0.0
O601 O 0.72718 0.76067 0.2505 0.0
O602 O 0.77507 0.82733 0.29452 0.0
O603 O 0.73478 0.79884 0.23917 0.0
O604 O 0.77669 0.8367 0.25587 0.0
C605 C 0.76108 0.75359 0.31847 0.0
C606 C 0.80152 0.79093 0.19984 0.0
C607 C 0.79315 0.714 0.24535 0.0
C608 C 0.84384 0.78662 0.28869 0.0
C609 C 0.71996 0.78087 0.24251 0.0
C610 C 0.77322 0.84281 0.27765 0.0
O611 O 0.75388 0.74381 0.29866 0.0
O612 O 0.76789 0.25828 0.73838 0.0
Zn613 Zn 0.77153 0.26247 0.77435 0.0
O614 O 0.79281 0.29111 0.78205 0.0
Zn615 Zn 0.82219 0.28117 0.79956 0.0
Zn616 Zn 0.80183 0.30847 0.75262 0.0
Zn617 Zn 0.77524 0.31322 0.80191 0.0
O618 O 0.82586 0.29789 0.83239 0.0
O619 O 0.7926 0.31957 0.833 0.0
O620 O 0.78709 0.23193 0.78541 0.0
O621 O 0.82172 0.2446 0.80349 0.0
O622 O 0.8522 0.28959 0.78022 0.0
O623 O 0.83822 0.31061 0.74924 0.0
O624 O 0.78828 0.34209 0.75066 0.0
O625 O 0.73797 0.26453 0.7894 0.0
O626 O 0.77072 0.34532 0.78621 0.0
O627 O 0.74188 0.29989 0.80886 0.0
C628 C 0.77621 0.27043 0.72062 0.0
C629 C 0.81218 0.31277 0.84292 0.0
C630 C 0.85579 0.30157 0.76093 0.0
C631 C 0.80689 0.22748 0.79646 0.0
C632 C 0.77638 0.3542 0.76585 0.0
C633 C 0.72922 0.28092 0.80278 0.0
O634 O 0.78921 0.28989 0.72371 0.0
O635 O 0.71201 0.77352 0.72251 0.0
Zn636 Zn 0.73564 0.75272 0.73862 0.0
O637 O 0.76669 0.76997 0.74067 0.0
Zn638 Zn 0.79186 0.74761 0.73238 0.0
Zn639 Zn 0.76733 0.79779 0.71938 0.0
Zn640 Zn 0.77075 0.78129 0.7732 0.0
O641 O 0.81222 0.73953 0.7615 0.0
O642 O 0.79501 0.76099 0.79033 0.0
O643 O 0.73752 0.72212 0.7194 0.0
O644 O 0.77729 0.71586 0.71895 0.0
O645 O 0.81171 0.76101 0.705 0.0
O646 O 0.78672 0.78844 0.69044 0.0
O647 O 0.78357 0.82707 0.73602 0.0
O648 O 0.72169 0.74584 0.77139 0.0
O649 O 0.78372 0.81593 0.77445 0.0
O650 O 0.73924 0.7775 0.7909 0.0
C651 C 0.71282 0.79396 0.71202 0.0
C652 C 0.8104 0.74567 0.78359 0.0
C653 C 0.80467 0.77457 0.68789 0.0
C654 C 0.75537 0.70932 0.71368 0.0
C655 C 0.78835 0.83164 0.75821 0.0
C656 C 0.72293 0.76039 0.78936 0.0
O657 O 0.73275 0.80625 0.70922 0.0
O658 O 0.46357 0.5653 0.52663 0.0
Zn659 Zn 0.47568 0.54403 0.50071 0.0
O660 O 0.46471 0.51059 0.50652 0.0
Zn661 Zn 0.4933 0.4904 0.50838 0.0
Zn662 Zn 0.44539 0.50787 0.53622 0.0
Zn663 Zn 0.44447 0.50021 0.47948 0.0
O664 O 0.49191 0.46388 0.48332 0.0
O665 O 0.45729 0.47057 0.46379 0.0
O666 O 0.51192 0.5475 0.503 0.0
O667 O 0.52513 0.51013 0.50664 0.0
O668 O 0.49447 0.47427 0.54041 0.0
O669 O 0.46196 0.48611 0.56003 0.0
O670 O 0.41088 0.49383 0.52958 0.0
O671 O 0.46536 0.55689 0.46831 0.0
O672 O 0.41106 0.49097 0.48968 0.0
O673 O 0.44158 0.526 0.45494 0.0
C674 C 0.45218 0.56206 0.54625 0.0
C675 C 0.47609 0.45811 0.46705 0.0
C676 C 0.48134 0.4741 0.55914 0.0
C677 C 0.52929 0.533 0.50519 0.0
C678 C 0.40007 0.48863 0.50958 0.0
C679 C 0.45088 0.54733 0.45253 0.0
O680 O 0.44417 0.54099 0.55255 0.0
O681 O 0.03072 0.46959 0.01728 0.0
Zn682 Zn 0.03691 0.50555 0.01625 0.0
O683 O 0.06438 0.51411 0.03714 0.0
Zn684 Zn 0.05429 0.53713 0.06096 0.0
Zn685 Zn 0.07576 0.48618 0.0546 0.0
Zn686 Zn 0.08973 0.5288 0.01836 0.0
O687 O 0.06451 0.57094 0.05178 0.0
O688 O 0.0898 0.56545 0.02148 0.0
O689 O 0.00591 0.51989 0.0278 0.0
O690 O 0.0178 0.53542 0.0633 0.0
O691 O 0.06653 0.52856 0.09372 0.0
O692 O 0.06257 0.48885 0.08824 0.0
O693 O 0.11272 0.48518 0.0544 0.0
O694 O 0.04408 0.51264 0.98147 0.0
O695 O 0.12139 0.51553 0.02894 0.0
O696 O 0.08408 0.5206 0.98336 0.0
C697 C 0.04176 0.4519 0.02645 0.0
C698 C 0.07848 0.57948 0.03549 0.0
C699 C 0.06078 0.50753 0.10175 0.0
C700 C 0.001 0.52926 0.04817 0.0
C701 C 0.12796 0.49848 0.04274 0.0
C702 C 0.06455 0.51605 0.97119 0.0
O703 O 0.0605 0.45533 0.04011 0.0
H704 H 0.92779 0.19138 0.11448 0.0
H705 H 0.94259 0.17814 0.03931 0.0
H706 H 0.90541 0.15196 0.11649 0.0
H707 H 0.91992 0.13932 0.04117 0.0
H708 H 0.92987 0.06717 0.10409 0.0
H709 H 0.92712 0.11065 0.11168 0.0
H710 H 0.87893 0.1161 0.04993 0.0
H711 H 0.8815 0.07239 0.04264 0.0
C712 C 0.92564 0.18038 0.09825 0.0
C713 C 0.93723 0.18752 0.07682 0.0
C714 C 0.91277 0.15794 0.09941 0.0
C715 C 0.9108 0.14271 0.07898 0.0
C716 C 0.92077 0.15085 0.05711 0.0
C717 C 0.93405 0.17292 0.0561 0.0
C718 C 0.91735 0.07739 0.09322 0.0
C719 C 0.9059 0.06666 0.07282 0.0
C720 C 0.91581 0.10231 0.09749 0.0
C721 C 0.9032 0.11674 0.08106 0.0
C722 C 0.88886 0.10533 0.06275 0.0
C723 C 0.89017 0.08032 0.05868 0.0
H724 H 0.04317 0.77859 0.34486 0.0
H725 H 0.08181 0.72841 0.38964 0.0
H726 H 0.07521 0.77688 0.31489 0.0
H727 H 0.11392 0.72697 0.35977 0.0
H728 H 0.16243 0.71904 0.29508 0.0
H729 H 0.12412 0.71483 0.31731 0.0
H730 H 0.11792 0.7929 0.31639 0.0
H731 H 0.15573 0.79705 0.29433 0.0
C732 C 0.0584 0.76709 0.34825 0.0
C733 C 0.06013 0.75391 0.36977 0.0
C734 C 0.07671 0.7661 0.33108 0.0
C735 C 0.09706 0.75183 0.33503 0.0
C736 C 0.09831 0.73789 0.3561 0.0
C737 C 0.08004 0.73894 0.37333 0.0
C738 C 0.15253 0.73517 0.29921 0.0
C739 C 0.16213 0.75837 0.29323 0.0
C740 C 0.13076 0.7328 0.31203 0.0
C741 C 0.11814 0.75356 0.31867 0.0
C742 C 0.12708 0.77656 0.31136 0.0
C743 C 0.14886 0.77894 0.29888 0.0
H744 H 0.48083 0.8112 0.60167 0.0
H745 H 0.55209 0.78167 0.59302 0.0
H746 H 0.49291 0.84556 0.57647 0.0
H747 H 0.56413 0.81613 0.56774 0.0
H748 H 0.516 0.90119 0.52372 0.0
H749 H 0.5063 0.85943 0.53562 0.0
H750 H 0.5716 0.85993 0.58001 0.0
H751 H 0.58147 0.90166 0.56812 0.0
C752 C 0.49888 0.81177 0.59395 0.0
C753 C 0.5156 0.79392 0.59958 0.0
C754 C 0.50575 0.83137 0.57938 0.0
C755 C 0.52953 0.83356 0.57029 0.0
C756 C 0.54576 0.81495 0.57469 0.0
C757 C 0.53881 0.79521 0.58909 0.0
C758 C 0.52864 0.89225 0.53558 0.0
C759 C 0.54929 0.90495 0.54536 0.0
C760 C 0.523 0.86835 0.54241 0.0
C761 C 0.53801 0.8566 0.55897 0.0
C762 C 0.55975 0.86852 0.56712 0.0
C763 C 0.56533 0.89249 0.5604 0.0
H764 H 0.43591 0.25241 0.92135 0.0
H765 H 0.48808 0.26018 0.86387 0.0
H766 H 0.40273 0.25638 0.89242 0.0
H767 H 0.4546 0.26452 0.83484 0.0
H768 H 0.38328 0.24182 0.79048 0.0
H769 H 0.41951 0.24052 0.81649 0.0
H770 H 0.38643 0.28861 0.86739 0.0
H771 H 0.35022 0.28964 0.84178 0.0
C772 C 0.44033 0.25498 0.90254 0.0
C773 C 0.46466 0.25606 0.89495 0.0
C774 C 0.42129 0.25745 0.88597 0.0
C775 C 0.42609 0.26109 0.86141 0.0
C776 C 0.45038 0.26169 0.85366 0.0
C777 C 0.46951 0.25925 0.87029 0.0
C778 C 0.38392 0.25243 0.80703 0.0
C779 C 0.36372 0.26555 0.81424 0.0
C780 C 0.40468 0.25169 0.8219 0.0
C781 C 0.40559 0.2641 0.84417 0.0
C782 C 0.386 0.27838 0.85061 0.0
C783 C 0.3653 0.27907 0.83585 0.0
H784 H 0.01926 0.82446 0.43194 0.0
H785 H 0.01063 0.81498 0.50855 0.0
H786 H 0.01916 0.86826 0.43713 0.0
H787 H 0.01274 0.85896 0.51434 0.0
H788 H 0.99261 0.93685 0.51758 0.0
H789 H 0.99099 0.89305 0.51042 0.0
H790 H 0.03829 0.90352 0.44908 0.0
H791 H 0.03775 0.94733 0.45525 0.0
C792 C 0.01815 0.83187 0.45004 0.0
C793 C 0.01502 0.81643 0.46988 0.0
C794 C 0.01814 0.85708 0.45309 0.0
C795 C 0.01572 0.86747 0.47618 0.0
C796 C 0.01383 0.85182 0.49617 0.0
C797 C 0.01304 0.82658 0.49298 0.0
C798 C 0.00204 0.92961 0.50222 0.0
C799 C 0.01494 0.94521 0.48669 0.0
C800 C 0.00157 0.90449 0.49832 0.0
C801 C 0.01484 0.8944 0.47935 0.0
C802 C 0.02745 0.91035 0.46361 0.0
C803 C 0.02721 0.93552 0.46709 0.0
H804 H 0.43282 0.74951 0.74435 0.0
H805 H 0.42099 0.78218 0.67464 0.0
H806 H 0.38893 0.74865 0.75127 0.0
H807 H 0.37723 0.78104 0.68162 0.0
H808 H 0.30538 0.73271 0.68796 0.0
H809 H 0.34908 0.74188 0.68406 0.0
H810 H 0.35106 0.77566 0.75462 0.0
H811 H 0.30731 0.76674 0.75854 0.0
C812 C 0.42097 0.75708 0.73079 0.0
C813 C 0.43037 0.76557 0.7088 0.0
C814 C 0.39587 0.75657 0.73477 0.0
C815 C 0.37981 0.76433 0.71674 0.0
C816 C 0.3893 0.77458 0.6956 0.0
C817 C 0.41438 0.77539 0.69173 0.0
C818 C 0.31513 0.74207 0.70263 0.0
C819 C 0.30295 0.74899 0.72354 0.0
C820 C 0.34004 0.74752 0.70031 0.0
C821 C 0.35327 0.75967 0.71898 0.0
C822 C 0.3412 0.76634 0.73999 0.0
C823 C 0.31621 0.76124 0.74217 0.0
H824 H 0.55822 0.18221 0.93032 0.0
H825 H 0.52461 0.18387 0.00037 0.0
H826 H 0.55994 0.13803 0.93272 0.0
H827 H 0.52664 0.13969 0.00275 0.0
H828 H 0.5418 0.05924 0.00317 0.0
H829 H 0.55466 0.10238 0.00236 0.0
H830 H 0.52182 0.10866 0.9316 0.0
H831 H 0.50866 0.06582 0.9325 0.0
C832 C 0.55185 0.17327 0.94654 0.0
C833 C 0.54091 0.1865 0.96501 0.0
C834 C 0.5528 0.14797 0.94783 0.0
C835 C 0.54321 0.13551 0.96779 0.0
C836 C 0.53426 0.1489 0.9872 0.0
C837 C 0.53299 0.17417 0.98577 0.0
C838 C 0.53782 0.06973 0.98723 0.0
C839 C 0.52406 0.05926 0.96796 0.0
C840 C 0.5451 0.09438 0.98684 0.0
C841 C 0.53921 0.10877 0.96694 0.0
C842 C 0.52681 0.0979 0.94706 0.0
C843 C 0.51914 0.07343 0.94764 0.0
H844 H 0.02262 0.26662 0.1573 0.0
H845 H 0.06877 0.2436 0.09949 0.0
H846 H 0.05888 0.27645 0.18223 0.0
H847 H 0.10475 0.25348 0.12435 0.0
H848 H 0.16407 0.29686 0.16437 0.0
H849 H 0.12565 0.29187 0.14181 0.0
H850 H 0.09333 0.25334 0.20172 0.0
H851 H 0.13166 0.25829 0.22435 0.0
C852 C 0.04044 0.26353 0.14997 0.0
C853 C 0.0428 0.2543 0.12642 0.0
C854 C 0.06115 0.26918 0.16423 0.0
C855 C 0.08458 0.26602 0.15507 0.0
C856 C 0.08691 0.25651 0.13169 0.0
C857 C 0.06627 0.2506 0.11757 0.0
C858 C 0.14864 0.28779 0.17294 0.0
C859 C 0.15098 0.27778 0.19606 0.0
C860 C 0.12672 0.28476 0.15995 0.0
C861 C 0.10667 0.27193 0.16993 0.0
C862 C 0.1085 0.26332 0.19362 0.0
C863 C 0.13048 0.26611 0.20652 0.0
H864 H 0.00447 0.0262 0.18547 0.0
H865 H 0.04888 0.96342 0.19297 0.0
H866 H 0.97382 0.00179 0.16387 0.0
H867 H 0.01753 0.93847 0.17168 0.0
H868 H 0.92385 0.96717 0.11928 0.0
H869 H 0.94344 0.97004 0.15887 0.0
H870 H 0.00744 0.93763 0.12995 0.0
H871 H 0.98754 0.93369 0.09098 0.0
C872 C 0.00749 0.00701 0.18292 0.0
C873 C 0.02944 0.99693 0.19032 0.0
C874 C 0.98961 0.99279 0.17085 0.0
C875 C 0.99317 0.96806 0.16587 0.0
C876 C 0.01433 0.95751 0.17496 0.0
C877 C 0.03233 0.97183 0.18705 0.0
C878 C 0.9416 0.9595 0.12166 0.0
C879 C 0.95476 0.95154 0.10172 0.0
C880 C 0.95292 0.96131 0.14436 0.0
C881 C 0.97753 0.95545 0.14719 0.0
C882 C 0.98868 0.9429 0.1284 0.0
C883 C 0.97726 0.94079 0.10583 0.0
H884 H 0.33634 0.83098 0.46088 0.0
H885 H 0.28448 0.8874 0.45118 0.0
H886 H 0.32755 0.81614 0.42027 0.0
H887 H 0.27641 0.87315 0.41002 0.0
H888 H 0.31576 0.80148 0.34064 0.0
H889 H 0.32931 0.82175 0.378 0.0
H890 H 0.25473 0.8387 0.3932 0.0
H891 H 0.24141 0.81935 0.35554 0.0
C892 C 0.32353 0.84065 0.44984 0.0
C893 C 0.31081 0.86014 0.45938 0.0
C894 C 0.31855 0.83217 0.42646 0.0
C895 C 0.30096 0.84319 0.412 0.0
C896 C 0.28958 0.86384 0.42093 0.0
C897 C 0.29436 0.87215 0.44444 0.0
C898 C 0.30229 0.80951 0.35202 0.0
C899 C 0.27751 0.80875 0.3452 0.0
C900 C 0.31005 0.82114 0.37342 0.0
C901 C 0.29315 0.83202 0.38855 0.0
C902 C 0.26835 0.83107 0.38173 0.0
C903 C 0.26065 0.8197 0.36025 0.0
H904 H 0.40403 -0.00065 0.65859 0.0
H905 H 0.43423 0.93746 0.69402 0.0
H906 H 0.44434 0.01035 0.64256 0.0
H907 H 0.47436 0.94917 0.67971 0.0
H908 H 0.53442 0.9576 0.62434 0.0
H909 H 0.49693 0.94876 0.64528 0.0
H910 H 0.48441 0.02574 0.65101 0.0
H911 H 0.52159 0.03456 0.62862 0.0
C912 C 0.41929 0.98822 0.66302 0.0
C913 C 0.41591 0.96732 0.67712 0.0
C914 C 0.44247 0.99466 0.65416 0.0
C915 C 0.46275 0.98063 0.65978 0.0
C916 C 0.45922 0.96009 0.67442 0.0
C917 C 0.43611 0.95337 0.68268 0.0
C918 C 0.5241 0.97276 0.63057 0.0
C919 C 0.53093 0.99679 0.62441 0.0
C920 C 0.50241 0.96767 0.64267 0.0
C921 C 0.48724 0.98651 0.64952 0.0
C922 C 0.49523 0.01071 0.64538 0.0
C923 C 0.51681 0.01581 0.63291 0.0
H924 H 0.17138 0.15718 0.93239 0.0
H925 H 0.24296 0.12769 0.94017 0.0
H926 H 0.18315 0.17484 0.89385 0.0
H927 H 0.25458 0.14535 0.9016 0.0
H928 H 0.27453 0.21808 0.8624 0.0
H929 H 0.26085 0.19085 0.89425 0.0
H930 H 0.19821 0.16758 0.85077 0.0
H931 H 0.21196 0.19488 0.81856 0.0
C932 C 0.18938 0.1539 0.92558 0.0
C933 C 0.20641 0.14146 0.93954 0.0
C934 C 0.19606 0.16393 0.90347 0.0
C935 C 0.21989 0.1618 0.89506 0.0
C936 C 0.2362 0.14755 0.90795 0.0
C937 C 0.22948 0.13734 0.92996 0.0
C938 C 0.25784 0.20718 0.85955 0.0
C939 C 0.24425 0.20874 0.83802 0.0
C940 C 0.25018 0.19136 0.87769 0.0
C941 C 0.22864 0.17694 0.87481 0.0
C942 C 0.21494 0.17847 0.85334 0.0
C943 C 0.2228 0.1941 0.83499 0.0
H944 H 0.0556 0.07846 0.29113 0.0
H945 H 0.10864 0.02353 0.3032 0.0
H946 H 0.04991 0.08207 0.33449 0.0
H947 H 0.10291 0.02735 0.3467 0.0
H948 H 0.0982 0.05602 0.42497 0.0
H949 H 0.10789 0.05892 0.38204 0.0
H950 H 0.0312 0.05089 0.36387 0.0
H951 H 0.0215 0.04777 0.4065 0.0
C952 C 0.06626 0.06736 0.30302 0.0
C953 C 0.0824 0.05052 0.29373 0.0
C954 C 0.06295 0.06943 0.32782 0.0
C955 C 0.07591 0.05493 0.34382 0.0
C956 C 0.09284 0.03885 0.33468 0.0
C957 C 0.09597 0.03656 0.30981 0.0
C958 C 0.08342 0.05521 0.41179 0.0
C959 C 0.0591 0.05157 0.41902 0.0
C960 C 0.08899 0.05673 0.3873 0.0
C961 C 0.07028 0.05511 0.36977 0.0
C962 C 0.04594 0.05239 0.37708 0.0
C963 C 0.04041 0.05047 0.40145 0.0
H964 H 0.24502 0.84794 0.58516 0.0
H965 H 0.27668 0.78999 0.54484 0.0
H966 H 0.21731 0.81871 0.60423 0.0
H967 H 0.24767 0.76069 0.56231 0.0
H968 H 0.23113 0.71959 0.63321 0.0
H969 H 0.24497 0.74207 0.59867 0.0
H970 H 0.18512 0.79043 0.6062 0.0
H971 H 0.17224 0.76864 0.64218 0.0
C972 C 0.24563 0.82892 0.58006 0.0
C973 C 0.26336 0.82102 0.56419 0.0
C974 C 0.22944 0.81211 0.59064 0.0
C975 C 0.23025 0.7871 0.58505 0.0
C976 C 0.24689 0.77962 0.56764 0.0
C977 C 0.26357 0.79635 0.55764 0.0
C978 C 0.22044 0.73458 0.62712 0.0
C979 C 0.20136 0.74309 0.64112 0.0
C980 C 0.22831 0.74752 0.60703 0.0
C981 C 0.21688 0.76892 0.60022 0.0
C982 C 0.19508 0.77474 0.61167 0.0
C983 C 0.18745 0.76201 0.63213 0.0
H984 H 0.3886 0.91499 0.78503 0.0
H985 H 0.36383 0.98814 0.79387 0.0
H986 H 0.41063 0.91855 0.82314 0.0
H987 H 0.38507 0.99133 0.83275 0.0
H988 H 0.44977 0.00074 0.88428 0.0
H989 H 0.42587 0.99587 0.84717 0.0
H990 H 0.40838 0.92092 0.8654 0.0
H991 H 0.43318 0.92556 0.90199 0.0
C992 C 0.38738 0.93167 0.79539 0.0
C993 C 0.3746 0.95137 0.78631 0.0
C994 C 0.4 0.93368 0.81735 0.0
C995 C 0.3999 0.95533 0.83095 0.0
C996 C 0.38606 0.9746 0.82245 0.0
C997 C 0.37365 0.9727 0.8003 0.0
C998 C 0.441 0.98316 0.88023 0.0
C999 C 0.44343 0.96351 0.89601 0.0
C1000 C 0.42704 0.98043 0.85909 0.0
C1001 C 0.41492 0.95808 0.85339 0.0
C1002 C 0.41766 0.93833 0.86905 0.0
C1003 C 0.4319 0.94097 0.89005 0.0
H1004 H 0.25566 0.15732 0.07622 0.0
H1005 H 0.23173 0.21513 0.03047 0.0
H1006 H 0.2738 0.1872 0.10428 0.0
H1007 H 0.25122 0.2452 0.05766 0.0
H1008 H 0.23995 0.28111 0.13269 0.0
H1009 H 0.23902 0.25965 0.09464 0.0
H1010 H 0.30083 0.21867 0.11756 0.0
H1011 H 0.30092 0.23952 0.15645 0.0
C1012 C 0.25498 0.17645 0.07183 0.0
C1013 C 0.24178 0.18399 0.0516 0.0
C1014 C 0.26562 0.19368 0.08778 0.0
C1015 C 0.26367 0.21878 0.08351 0.0
C1016 C 0.25249 0.2261 0.06192 0.0
C1017 C 0.24135 0.20889 0.04631 0.0
C1018 C 0.25388 0.2681 0.12943 0.0
C1019 C 0.26988 0.26136 0.14797 0.0
C1020 C 0.25345 0.25576 0.10738 0.0
C1021 C 0.26932 0.23671 0.10325 0.0
C1022 C 0.28773 0.23258 0.12048 0.0
C1023 C 0.28793 0.24472 0.14272 0.0
H1024 H 0.15939 0.05642 0.0178 0.0
H1025 H 0.14011 0.10936 0.07132 0.0
H1026 H 0.12168 0.03288 0.02559 0.0
H1027 H 0.10315 0.08528 0.08023 0.0
H1028 H 0.02552 0.06637 0.05268 0.0
H1029 H 0.06706 0.08208 0.05688 0.0
H1030 H 0.09323 0.0093 0.04937 0.0
H1031 H 0.05116 0.99349 0.04434 0.0
C1032 C 0.14756 0.06242 0.03196 0.0
C1033 C 0.15233 0.08483 0.0437 0.0
C1034 C 0.12594 0.04894 0.03649 0.0
C1035 C 0.10902 0.05753 0.0531 0.0
C1036 C 0.11536 0.07855 0.06675 0.0
C1037 C 0.13662 0.09225 0.06184 0.0
C1038 C 0.04003 0.05358 0.0522 0.0
C1039 C 0.03495 0.02868 0.04788 0.0
C1040 C 0.06398 0.06259 0.05489 0.0
C1041 C 0.08363 0.04697 0.05353 0.0
C1042 C 0.07856 0.02187 0.05027 0.0
C1043 C 0.05445 0.0128 0.04749 0.0
H1044 H 0.73758 0.43747 0.02704 0.0
H1045 H 0.77517 0.50808 0.02892 0.0
H1046 H 0.69873 0.4569 0.02353 0.0
H1047 H 0.73592 0.52759 0.02556 0.0
H1048 H 0.66048 0.54767 0.99115 0.0
H1049 H 0.70106 0.53156 -0.00392 0.0
H1050 H 0.67347 0.48181 0.05004 0.0
H1051 H 0.63292 0.4976 0.04503 0.0
C1052 C 0.73759 0.45716 0.02664 0.0
C1053 C 0.7595 0.47123 0.02836 0.0
C1054 C 0.71527 0.46829 0.02482 0.0
C1055 C 0.71428 0.49375 0.0246 0.0
C1056 C 0.73617 0.50791 0.02567 0.0
C1057 C 0.7586 0.49674 0.02763 0.0
C1058 C 0.6631 0.53347 0.00426 0.0
C1059 C 0.64336 0.52374 0.01751 0.0
C1060 C 0.68638 0.52433 0.00712 0.0
C1061 C 0.69032 0.50523 0.02321 0.0
C1062 C 0.67084 0.49624 0.03718 0.0
C1063 C 0.64763 0.5054 0.03439 0.0
H1064 H 0.79876 0.42297 0.17887 0.0
H1065 H 0.79128 0.46802 0.2422 0.0
H1066 H 0.76301 0.39828 0.19049 0.0
H1067 H 0.75591 0.4427 0.25431 0.0
H1068 H 0.74951 0.35605 0.2775 0.0
H1069 H 0.76493 0.39649 0.26606 0.0
H1070 H 0.71633 0.39484 0.20417 0.0
H1071 H 0.70033 0.35463 0.21595 0.0
C1072 C 0.78878 0.42822 0.19469 0.0
C1073 C 0.7978 0.44721 0.20974 0.0
C1074 C 0.76829 0.41414 0.20134 0.0
C1075 C 0.75692 0.4185 0.22342 0.0
C1076 C 0.76439 0.43906 0.2372 0.0
C1077 C 0.78454 0.45357 0.2302 0.0
C1078 C 0.74138 0.36477 0.26206 0.0
C1079 C 0.72395 0.35213 0.2475 0.0
C1080 C 0.75008 0.38797 0.25558 0.0
C1081 C 0.74185 0.39865 0.23416 0.0
C1082 C 0.72284 0.38698 0.2208 0.0
C1083 C 0.71371 0.36399 0.2276 0.0
H1084 H 0.78351 0.57656 0.51863 0.0
H1085 H 0.83409 0.63711 0.50549 0.0
H1086 H 0.8169 0.5486 0.51608 0.0
H1087 H 0.86739 0.60925 0.50333 0.0
H1088 H 0.91413 0.55057 0.47187 0.0
H1089 H 0.88056 0.57771 0.47582 0.0
H1090 H 0.85464 0.53727 0.5375 0.0
H1091 H 0.88822 0.50966 0.53336 0.0
C1092 C 0.80175 0.58392 0.5153 0.0
C1093 C 0.80612 0.60905 0.51212 0.0
C1094 C 0.82089 0.56791 0.514 0.0
C1095 C 0.84477 0.5767 0.50942 0.0
C1096 C 0.84914 0.60186 0.50653 0.0
C1097 C 0.83005 0.61785 0.50787 0.0
C1098 C 0.90133 0.54737 0.48631 0.0
C1099 C 0.90394 0.5279 0.50233 0.0
C1100 C 0.88214 0.56307 0.48865 0.0
C1101 C 0.86502 0.55974 0.50705 0.0
C1102 C 0.86745 0.54019 0.52301 0.0
C1103 C 0.88676 0.52446 0.52072 0.0
H1104 H 0.12304 0.10436 0.16951 0.0
H1105 H 0.1673 0.05408 0.20852 0.0
H1106 H 0.15706 0.13436 0.17037 0.0
H1107 H 0.20091 0.08443 0.20988 0.0
H1108 H 0.20755 0.16527 0.25014 0.0
H1109 H 0.18936 0.12626 0.2363 0.0
H1110 H 0.20792 0.14402 0.16294 0.0
H1111 H 0.22723 0.1828 0.17703 0.0
C1112 C 0.14029 0.09936 0.1774 0.0
C1113 C 0.1423 0.07711 0.18944 0.0
C1114 C 0.15978 0.11648 0.17778 0.0
C1115 C 0.18135 0.11166 0.19045 0.0
C1116 C 0.18437 0.08844 0.20003 0.0
C1117 C 0.16508 0.07113 0.19923 0.0
C1118 C 0.2085 0.16041 0.23121 0.0
C1119 C 0.21875 0.17678 0.21462 0.0
C1120 C 0.19824 0.13813 0.2233 0.0
C1121 C 0.19745 0.13223 0.19861 0.0
C1122 C 0.20863 0.14816 0.18208 0.0
C1123 C 0.21963 0.17019 0.19012 0.0
H1124 H 0.33516 0.95169 0.54669 0.0
H1125 H 0.37989 0.9 0.58316 0.0
H1126 H 0.36807 0.98264 0.55079 0.0
H1127 H 0.41255 0.93119 0.58759 0.0
H1128 H 0.44935 0.99107 0.51671 0.0
H1129 H 0.40846 0.97529 0.5262 0.0
H1130 H 0.42737 0.97624 0.60207 0.0
H1131 H 0.46825 0.99293 0.59257 0.0
C1132 C 0.35162 0.94717 0.55639 0.0
C1133 C 0.35521 0.92325 0.5641 0.0
C1134 C 0.3704 0.96494 0.55876 0.0
C1135 C 0.39281 0.95916 0.56928 0.0
C1136 C 0.39535 0.9361 0.57951 0.0
C1137 C 0.37674 0.9182 0.57678 0.0
C1138 C 0.44444 0.98875 0.53544 0.0
C1139 C 0.46179 0.99308 0.55389 0.0
C1140 C 0.42105 0.97988 0.54091 0.0
C1141 C 0.41486 0.97461 0.56486 0.0
C1142 C 0.43174 0.98034 0.5835 0.0
C1143 C 0.45501 0.98989 0.57806 0.0
H1144 H 0.85453 0.57476 0.20783 0.0
H1145 H 0.80186 0.55817 0.26317 0.0
H1146 H 0.84286 0.61702 0.20813 0.0
H1147 H 0.79063 0.60062 0.26392 0.0
H1148 H 0.76107 0.67434 0.24481 0.0
H1149 H 0.77066 0.63153 0.24086 0.0
H1150 H 0.84703 0.65217 0.23389 0.0
H1151 H 0.83746 0.69476 0.23719 0.0
C1152 C 0.84052 0.58014 0.22014 0.0
C1153 C 0.8292 0.56309 0.23555 0.0
C1154 C 0.83389 0.60441 0.22037 0.0
C1155 C 0.81584 0.61227 0.2361 0.0
C1156 C 0.80436 0.59515 0.25135 0.0
C1157 C 0.81094 0.57083 0.25106 0.0
C1158 C 0.77987 0.66974 0.2422 0.0
C1159 C 0.79848 0.68804 0.24136 0.0
C1160 C 0.78539 0.64518 0.24011 0.0
C1161 C 0.80964 0.63837 0.23715 0.0
C1162 C 0.82813 0.65672 0.23583 0.0
C1163 C 0.82262 0.68121 0.23786 0.0
H1164 H 0.6788 0.45495 0.70609 0.0
H1165 H 0.71849 0.49991 0.75877 0.0
H1166 H 0.70633 0.422 0.71371 0.0
H1167 H 0.74602 0.4669 0.76631 0.0
H1168 H 0.76032 0.38907 0.79622 0.0
H1169 H 0.73978 0.42599 0.7855 0.0
H1170 H 0.75034 0.41049 0.70999 0.0
H1171 H 0.77099 0.37334 0.7207 0.0
C1172 C 0.6935 0.45788 0.71915 0.0
C1173 C 0.69633 0.47997 0.73198 0.0
C1174 C 0.70939 0.43908 0.72335 0.0
C1175 C 0.7283 0.44191 0.74061 0.0
C1176 C 0.73149 0.46419 0.75302 0.0
C1177 C 0.71575 0.48308 0.74866 0.0
C1178 C 0.7586 0.39369 0.77733 0.0
C1179 C 0.76712 0.37819 0.75929 0.0
C1180 C 0.74696 0.41492 0.77121 0.0
C1181 C 0.74335 0.42102 0.74691 0.0
C1182 C 0.75271 0.40607 0.72886 0.0
C1183 C 0.76465 0.38492 0.735 0.0
H1184 H 0.93987 0.81627 0.94028 0.0
H1185 H 0.01607 0.817 0.92155 0.0
H1186 H 0.94224 0.86034 0.945 0.0
H1187 H 0.01859 0.86145 0.92691 0.0
H1188 H 0.94728 0.93956 0.94083 0.0
H1189 H 0.9519 0.90043 0.92077 0.0
H1190 H 0.01248 0.88572 0.9682 0.0
H1191 H 0.00786 0.92474 0.98851 0.0
C1192 C 0.95706 0.82594 0.93693 0.0
C1193 C 0.97785 0.81332 0.93082 0.0
C1194 C 0.95836 0.85115 0.93936 0.0
C1195 C 0.98057 0.86418 0.93616 0.0
C1196 C 0.00125 0.85171 0.92932 0.0
C1197 C -0.00019 0.82641 0.92631 0.0
C1198 C 0.96208 0.92836 0.94652 0.0
C1199 C 0.97686 0.93494 0.96662 0.0
C1200 C 0.96469 0.906 0.93501 0.0
C1201 C 0.98234 0.89009 0.94318 0.0
C1202 C -0.00121 0.89776 0.96154 0.0
C1203 C 0.996 0.92 0.97327 0.0
H1204 H 0.98398 0.26125 0.6847 0.0
H1205 H 0.99059 0.33984 0.68716 0.0
H1206 H 0.9482 0.26245 0.71057 0.0
H1207 H 0.95518 0.34092 0.71293 0.0
H1208 H 0.87206 0.33166 0.72523 0.0
H1209 H 0.91111 0.3313 0.70497 0.0
H1210 H 0.93449 0.27457 0.75243 0.0
H1211 H 0.89523 0.27481 0.77281 0.0
C1212 C 0.978 0.27871 0.69096 0.0
C1213 C 0.98996 0.30044 0.68367 0.0
C1214 C 0.95762 0.27939 0.70586 0.0
C1215 C 0.94883 0.3018 0.71357 0.0
C1216 C 0.96135 0.32341 0.70697 0.0
C1217 C 0.98169 0.32274 0.69224 0.0
C1218 C 0.8856 0.3193 0.73157 0.0
C1219 C 0.88051 0.30324 0.7506 0.0
C1220 C 0.90801 0.31916 0.72001 0.0
C1221 C 0.92579 0.30285 0.72709 0.0
C1222 C 0.921 0.28717 0.74649 0.0
C1223 C 0.89862 0.28748 0.75826 0.0
H1224 H 0.52391 0.19297 0.44356 0.0
H1225 H 0.46056 0.17603 0.4867 0.0
H1226 H 0.54675 0.16308 0.46573 0.0
H1227 H 0.48298 0.14551 0.50818 0.0
H1228 H 0.56252 0.08297 0.484 0.0
H1229 H 0.54715 0.1201 0.46728 0.0
H1230 H 0.51488 0.13702 0.53581 0.0
H1231 H 0.52947 0.09922 0.55228 0.0
C1232 C 0.51486 0.18285 0.45778 0.0
C1233 C 0.49036 0.18666 0.46324 0.0
C1234 C 0.52794 0.16569 0.47046 0.0
C1235 C 0.51671 0.15178 0.48867 0.0
C1236 C 0.49239 0.15615 0.49456 0.0
C1237 C 0.47942 0.1735 0.48208 0.0
C1238 C 0.55257 0.09483 0.49567 0.0
C1239 C 0.54685 0.08795 0.51933 0.0
C1240 C 0.54382 0.11625 0.4861 0.0
C1241 C 0.52941 0.13138 0.50008 0.0
C1242 C 0.52538 0.12544 0.52436 0.0
C1243 C 0.53389 0.10387 0.53386 0.0
H1244 H 0.58399 0.80621 0.17347 0.0
H1245 H 0.56321 0.7629 0.23511 0.0
H1246 H 0.62466 0.81302 0.19082 0.0
H1247 H 0.60368 0.77037 0.25288 0.0
H1248 H 0.68306 0.74648 0.24617 0.0
H1249 H 0.63992 0.75128 0.23845 0.0
H1250 H 0.65394 0.82718 0.22183 0.0
H1251 H 0.69742 0.82229 0.22909 0.0
C1252 C 0.58779 0.79904 0.19121 0.0
C1253 C 0.57074 0.78348 0.20267 0.0
C1254 C 0.61111 0.80295 0.20119 0.0
C1255 C 0.61753 0.79157 0.22286 0.0
C1256 C 0.59941 0.77873 0.23578 0.0
C1257 C 0.57622 0.77458 0.2257 0.0
C1258 C 0.677 0.76423 0.24096 0.0
C1259 C 0.69371 0.78391 0.23799 0.0
C1260 C 0.65219 0.76709 0.23686 0.0
C1261 C 0.64351 0.78971 0.22979 0.0
C1262 C 0.66014 0.80954 0.2272 0.0
C1263 C 0.68502 0.80667 0.23128 0.0
H1264 H 0.07337 0.214 0.62977 0.0
H1265 H 0.09113 0.24309 0.55977 0.0
H1266 H 0.07891 0.17293 0.61451 0.0
H1267 H 0.09521 0.20204 0.54404 0.0
H1268 H 0.10161 0.124 0.52057 0.0
H1269 H 0.11274 0.16241 0.54161 0.0
H1270 H 0.05153 0.15066 0.58905 0.0
H1271 H 0.04114 0.11281 0.56904 0.0
C1272 C 0.07865 0.21157 0.61118 0.0
C1273 C 0.08126 0.23155 0.59578 0.0
C1274 C 0.08182 0.18811 0.60241 0.0
C1275 C 0.08687 0.18418 0.57788 0.0
C1276 C 0.09143 0.20438 0.56302 0.0
C1277 C 0.08884 0.2279 0.57197 0.0
C1278 C 0.09087 0.12959 0.53574 0.0
C1279 C 0.0703 0.11557 0.54288 0.0
C1280 C 0.09719 0.15153 0.54775 0.0
C1281 C 0.0831 0.15956 0.5671 0.0
C1282 C 0.06318 0.14491 0.57464 0.0
C1283 C 0.05694 0.12325 0.56279 0.0
H1284 H 0.50305 0.26661 0.31485 0.0
H1285 H 0.54333 0.22768 0.36877 0.0
H1286 H 0.53899 0.26808 0.28918 0.0
H1287 H 0.57911 0.22975 0.34364 0.0
H1288 H 0.63285 0.21612 0.28678 0.0
H1289 H 0.59393 0.21305 0.30703 0.0
H1290 H 0.57993 0.2872 0.28747 0.0
H1291 H 0.61881 0.29 0.26636 0.0
C1292 C 0.51954 0.25839 0.32122 0.0
C1293 C 0.52032 0.24694 0.34379 0.0
C1294 C 0.54013 0.25934 0.30658 0.0
C1295 C 0.56185 0.24889 0.31429 0.0
C1296 C 0.56254 0.23752 0.33689 0.0
C1297 C 0.54202 0.23647 0.3514 0.0
C1298 C 0.62141 0.23174 0.28662 0.0
C1299 C 0.62903 0.25343 0.27528 0.0
C1300 C 0.59913 0.23 0.29832 0.0
C1301 C 0.58404 0.25002 0.29926 0.0
C1302 C 0.59111 0.27141 0.28699 0.0
C1303 C 0.6134 0.27306 0.27499 0.0
H1304 H 0.49279 0.83822 0.11164 0.0
H1305 H 0.46427 0.77815 0.06761 0.0
H1306 H 0.47286 0.86665 0.08512 0.0
H1307 H 0.44433 0.80678 0.04097 0.0
H1308 H 0.45702 0.87394 0.98629 0.0
H1309 H 0.46156 0.83904 0.01241 0.0
H1310 H 0.43056 0.87863 0.07131 0.0
H1311 H 0.42602 0.91367 0.04532 0.0
C1312 C 0.4822 0.8311 0.09635 0.0
C1313 C 0.48024 0.80601 0.09159 0.0
C1314 C 0.47051 0.84733 0.08136 0.0
C1315 C 0.4568 0.83882 0.0612 0.0
C1316 C 0.45469 0.81373 0.05648 0.0
C1317 C 0.46617 0.79744 0.07167 0.0
C1318 C 0.45028 0.87494 0.00453 0.0
C1319 C 0.44196 0.89689 0.01396 0.0
C1320 C 0.45286 0.85489 0.01949 0.0
C1321 C 0.44709 0.85652 0.04401 0.0
C1322 C 0.43567 0.87721 0.05255 0.0
C1323 C 0.43297 0.89722 0.0376 0.0
H1324 H 0.94049 0.71065 0.85619 0.0
H1325 H 0.88908 0.70942 0.91462 0.0
H1326 H 0.9071 0.71094 0.82721 0.0
H1327 H 0.85543 0.70885 0.88539 0.0
H1328 H 0.8139 0.75713 0.83148 0.0
H1329 H 0.84225 0.74199 0.86111 0.0
H1330 H 0.87121 0.69404 0.80741 0.0
H1331 H 0.84315 0.70979 0.77735 0.0
C1332 C 0.92201 0.70965 0.86286 0.0
C1333 C 0.91745 0.71069 0.88773 0.0
C1334 C 0.90279 0.70964 0.84617 0.0
C1335 C 0.87859 0.71048 0.854 0.0
C1336 C 0.87394 0.70883 0.87884 0.0
C1337 C 0.89321 0.70896 0.89558 0.0
C1338 C 0.82614 0.7432 0.82596 0.0
C1339 C 0.82652 0.73498 0.80193 0.0
C1340 C 0.84223 0.73426 0.84309 0.0
C1341 C 0.85902 0.71676 0.83666 0.0
C1342 C 0.85868 0.70771 0.81287 0.0
C1343 C 0.84263 0.71677 0.79565 0.0
H1344 H 0.92992 0.08049 0.83127 0.0
H1345 H 0.98929 0.03403 0.84887 0.0
H1346 H 0.93303 0.09861 0.87145 0.0
H1347 H 0.99222 0.052 0.88892 0.0
H1348 H 0.98838 0.07086 0.96231 0.0
H1349 H 0.99525 0.08451 0.92094 0.0
H1350 H 0.91846 0.07195 0.90483 0.0
H1351 H 0.91189 0.05808 0.94571 0.0
C1352 C 0.94419 0.07471 0.84339 0.0
C1353 C 0.95874 0.05513 0.8373 0.0
C1354 C 0.94604 0.08525 0.86635 0.0
C1355 C 0.96244 0.07634 0.88349 0.0
C1356 C 0.97935 0.05928 0.87615 0.0
C1357 C 0.97746 0.0487 0.85324 0.0
C1358 C 0.97286 0.07224 0.95018 0.0
C1359 C 0.94971 0.063 0.95679 0.0
C1360 C 0.97679 0.08 0.92654 0.0
C1361 C 0.95751 0.07883 0.90954 0.0
C1362 C 0.93372 0.07313 0.91743 0.0
C1363 C 0.92992 0.06499 0.94082 0.0
H1364 H 0.73835 0.23756 0.57118 0.0
H1365 H 0.79404 0.18729 0.58995 0.0
H1366 H 0.74182 0.25572 0.61146 0.0
H1367 H 0.79716 0.20532 0.63049 0.0
H1368 H 0.76656 0.22327 0.70695 0.0
H1369 H 0.76465 0.20679 0.66585 0.0
H1370 H 0.77609 0.27917 0.63752 0.0
H1371 H 0.7784 0.29573 0.67858 0.0
C1372 C 0.75146 0.23054 0.58387 0.0
C1373 C 0.76591 0.21101 0.57751 0.0
C1374 C 0.75345 0.24095 0.60684 0.0
C1375 C 0.76959 0.23173 0.62397 0.0
C1376 C 0.78443 0.21255 0.61754 0.0
C1377 C 0.78279 0.20241 0.59436 0.0
C1378 C 0.76842 0.23569 0.69195 0.0
C1379 C 0.77259 0.26078 0.69592 0.0
C1380 C 0.76759 0.22623 0.66852 0.0
C1381 C 0.77046 0.24175 0.6487 0.0
C1382 C 0.77388 0.26689 0.65259 0.0
C1383 C 0.77517 0.27632 0.67603 0.0
H1384 H 0.53053 0.00476 0.32272 0.0
H1385 H 0.59616 0.96375 0.32581 0.0
H1386 H 0.52534 -0.0007 0.36594 0.0
H1387 H 0.59078 0.95823 0.36906 0.0
H1388 H 0.59287 0.99379 0.44583 0.0
H1389 H 0.59485 0.98949 0.40228 0.0
H1390 H 0.51817 0.96853 0.39921 0.0
H1391 H 0.51607 0.97286 0.44312 0.0
C1392 C 0.54363 0.99426 0.33254 0.0
C1393 C 0.56394 0.98498 0.32092 0.0
C1394 C 0.54053 0.99098 0.35725 0.0
C1395 C 0.55776 0.9785 0.37081 0.0
C1396 C 0.57738 0.96814 0.35901 0.0
C1397 C 0.58039 0.97126 0.33426 0.0
C1398 C 0.57643 0.98808 0.43595 0.0
C1399 C 0.55425 0.98387 0.44788 0.0
C1400 C 0.57764 0.98539 0.41101 0.0
C1401 C 0.55668 0.97861 0.39742 0.0
C1402 C 0.53457 0.97385 0.40933 0.0
C1403 C 0.5334 0.97628 0.4344 0.0
H1404 H 0.72706 0.80316 0.06792 0.0
H1405 H 0.78717 0.76032 0.04514 0.0
H1406 H 0.74382 0.80434 0.10886 0.0
H1407 H 0.80421 0.76214 0.08585 0.0
H1408 H 0.79129 0.82835 0.17043 0.0
H1409 H 0.77906 0.82499 0.12814 0.0
H1410 H 0.79856 0.74961 0.12747 0.0
H1411 H 0.81141 0.75323 0.16976 0.0
C1412 C 0.74362 0.7937 0.07168 0.0
C1413 C 0.75586 0.78186 0.0532 0.0
C1414 C 0.75343 0.79467 0.09506 0.0
C1415 C 0.7757 0.78387 0.10041 0.0
C1416 C 0.78712 0.77073 0.08229 0.0
C1417 C 0.77729 0.76971 0.05894 0.0
C1418 C 0.79373 0.8113 0.16099 0.0
C1419 C 0.80217 0.79102 0.17333 0.0
C1420 C 0.78634 0.80925 0.13691 0.0
C1421 C 0.78706 0.78681 0.12473 0.0
C1422 C 0.79764 0.7671 0.13643 0.0
C1423 C 0.80523 0.76923 0.16057 0.0
H1424 H 0.99319 -0.00175 0.72139 0.0
H1425 H 0.92878 0.03474 0.69782 0.0
H1426 H 0.00866 -0.00052 0.68049 0.0
H1427 H 0.94386 0.03521 0.65673 0.0
H1428 H 0.99088 0.05805 0.59376 0.0
H1429 H 0.97523 0.05533 0.63426 0.0
H1430 H 0.00196 0.9827 0.64053 0.0
H1431 H 0.01852 0.98575 0.59988 0.0
C1432 C 0.98226 0.00641 0.70744 0.0
C1433 C 0.95983 0.01655 0.71284 0.0
C1434 C 0.99105 0.00692 0.68396 0.0
C1435 C 0.9775 0.01742 0.66535 0.0
C1436 C 0.95494 0.02734 0.67074 0.0
C1437 C 0.94626 0.02703 0.69426 0.0
C1438 C 0.9934 0.04142 0.60367 0.0
C1439 C 0.00592 0.02206 0.59357 0.0
C1440 C 0.98426 0.03982 0.62689 0.0
C1441 C 0.98717 0.01874 0.64057 0.0
C1442 C -0.00035 -0.0007 0.63051 0.0
C1443 C 0.00903 0.00098 0.60722 0.0
H1444 H 0.79065 0.18218 0.43697 0.0
H1445 H 0.73873 0.23667 0.45388 0.0
H1446 H 0.79299 0.19746 0.39562 0.0
H1447 H 0.7414 0.25206 0.41284 0.0
H1448 H 0.75972 0.28075 0.3384 0.0
H1449 H 0.77103 0.27082 0.38013 0.0
H1450 H 0.75653 0.19453 0.36454 0.0
H1451 H 0.74483 0.20439 0.32335 0.0
C1452 C 0.78023 0.19776 0.43202 0.0
C1453 C 0.76422 0.20803 0.44844 0.0
C1454 C 0.78159 0.20648 0.40844 0.0
C1455 C 0.76736 0.22589 0.40116 0.0
C1456 C 0.75273 0.23723 0.41809 0.0
C1457 C 0.75102 0.22826 0.44147 0.0
C1458 C 0.75939 0.26188 0.34388 0.0
C1459 C 0.75112 0.24335 0.32787 0.0
C1460 C 0.76584 0.25622 0.36763 0.0
C1461 C 0.76471 0.23193 0.3754 0.0
C1462 C 0.75784 0.21336 0.35891 0.0
C1463 C 0.7509 0.21903 0.33545 0.0
H1464 H 0.51472 0.9675 0.20045 0.0
H1465 H 0.58834 0.97062 0.174 0.0
H1466 H 0.49897 0.96282 0.15932 0.0
H1467 H 0.57286 0.96781 0.13281 0.0
H1468 H 0.53995 0.95608 0.05935 0.0
H1469 H 0.55382 0.9487 0.10037 0.0
H1470 H 0.49367 0.98903 0.12758 0.0
H1471 H 0.47899 0.99478 0.0865 0.0
C1472 C 0.52751 0.9667 0.18577 0.0
C1473 C 0.55268 0.96947 0.19026 0.0
C1474 C 0.51853 0.96444 0.16217 0.0
C1475 C 0.53455 0.96568 0.14256 0.0
C1476 C 0.55987 0.96661 0.14731 0.0
C1477 C 0.56884 0.96821 0.17097 0.0
C1478 C 0.52975 0.96336 0.07418 0.0
C1479 C 0.50855 0.97622 0.06983 0.0
C1480 C 0.5377 0.95915 0.09773 0.0
C1481 C 0.52497 0.96825 0.11748 0.0
C1482 C 0.5037 0.98117 0.11297 0.0
C1483 C 0.49541 0.98482 0.08941 0.0
H1484 H 0.67485 0.78244 0.93086 0.0
H1485 H 0.73109 0.73001 0.92444 0.0
H1486 H 0.66103 0.77281 0.88981 0.0
H1487 H 0.71755 0.72069 0.88354 0.0
H1488 H 0.70623 0.71696 0.80765 0.0
H1489 H 0.69048 0.71074 0.84838 0.0
H1490 H 0.68845 0.7887 0.85818 0.0
H1491 H 0.70419 0.7947 0.81798 0.0
C1492 C 0.68364 0.76816 0.92109 0.0
C1493 C 0.70472 0.75771 0.93042 0.0
C1494 C 0.67566 0.76261 0.89758 0.0
C1495 C 0.6887 0.74662 0.8832 0.0
C1496 C 0.70717 0.73325 0.89403 0.0
C1497 C 0.71518 0.73882 0.91746 0.0
C1498 C 0.70144 0.73264 0.81826 0.0
C1499 C 0.70697 0.75631 0.81012 0.0
C1500 C 0.69242 0.7291 0.84151 0.0
C1501 C 0.68859 0.7492 0.85663 0.0
C1502 C 0.69108 0.77277 0.84706 0.0
C1503 C 0.70041 0.77628 0.82409 0.0
H1504 H 0.75209 0.88254 0.98928 0.0
H1505 H 0.80987 0.84872 0.9506 0.0
H1506 H 0.77805 0.91921 -0.00502 0.0
H1507 H 0.8357 0.88544 0.95628 0.0
H1508 H 0.8734 0.95908 0.96037 0.0
H1509 H 0.84086 0.93027 0.9476 0.0
H1510 H 0.81619 0.92513 0.02106 0.0
H1511 H 0.84877 0.95399 0.034 0.0
C1512 C 0.7701 0.88311 0.98149 0.0
C1513 C 0.77905 0.86257 0.96975 0.0
C1514 C 0.78498 0.90407 0.98489 0.0
C1515 C 0.80894 0.90504 0.97633 0.0
C1516 C 0.81724 0.88524 0.963 0.0
C1517 C 0.80247 0.86417 0.95981 0.0
C1518 C 0.86082 0.95217 0.9738 0.0
C1519 C 0.86389 0.95863 -0.00169 0.0
C1520 C 0.84223 0.93561 0.96643 0.0
C1521 C 0.82615 0.92536 0.98334 0.0
C1522 C 0.82824 0.93291 0.00759 0.0
C1523 C 0.84699 0.94933 0.01503 0.0
H1524 H 0.33684 0.58819 0.95003 0.0
H1525 H 0.3615 0.63241 0.01101 0.0
H1526 H 0.37687 0.5706 0.94783 0.0
H1527 H 0.40168 0.61537 0.00837 0.0
H1528 H 0.4599 0.56215 0.01773 0.0
H1529 H 0.41886 0.57701 0.01692 0.0
H1530 H 0.4201 0.57844 0.93901 0.0
H1531 H 0.46147 0.56263 0.93996 0.0
C1532 C 0.35088 0.59437 0.96282 0.0
C1533 C 0.3459 0.61155 0.98088 0.0
C1534 C 0.37387 0.58434 0.96145 0.0
C1535 C 0.39241 0.5913 0.9781 0.0
C1536 C 0.38764 0.60913 -0.00439 0.0
C1537 C 0.36464 0.61906 -0.00295 0.0
C1538 C 0.45125 0.56527 0.00038 0.0
C1539 C 0.46382 0.56139 0.97889 0.0
C1540 C 0.42783 0.57406 -7e-05 0.0
C1541 C 0.41641 0.57958 0.97794 0.0
C1542 C 0.42844 0.57442 0.95626 0.0
C1543 C 0.45202 0.5653 0.95674 0.0
H1544 H 0.17173 0.51518 0.7418 0.0
H1545 H 0.12034 0.55202 0.6966 0.0
H1546 H 0.20183 0.54858 0.73601 0.0
H1547 H 0.15039 0.58512 0.69069 0.0
H1548 H 0.20763 0.64274 0.68168 0.0
H1549 H 0.19283 0.60026 0.67667 0.0
H1550 H 0.19623 0.59099 0.75391 0.0
H1551 H 0.21047 0.63323 0.75884 0.0
C1552 C 0.16714 0.53001 0.73003 0.0
C1553 C 0.14355 0.53129 0.72003 0.0
C1554 C 0.18436 0.54908 0.72672 0.0
C1555 C 0.17837 0.56947 0.71303 0.0
C1556 C 0.1556 0.56955 0.70116 0.0
C1557 C 0.13829 0.55072 0.70476 0.0
C1558 C 0.20599 0.63129 0.69744 0.0
C1559 C 0.20986 0.64117 0.72065 0.0
C1560 C 0.19749 0.60709 0.69459 0.0
C1561 C 0.1933 0.59242 0.71491 0.0
C1562 C 0.19951 0.60176 0.73791 0.0
C1563 C 0.20748 0.62599 0.74077 0.0
H1564 H 0.18225 0.392 0.463 0.0
H1565 H 0.15069 0.3456 0.51786 0.0
H1566 H 0.14367 0.41195 0.45822 0.0
H1567 H 0.11177 0.36568 0.51287 0.0
H1568 H 0.04021 0.39193 0.47628 0.0
H1569 H 0.07844 0.37037 0.47921 0.0
H1570 H 0.11885 0.43916 0.48494 0.0
H1571 H 0.08087 0.46064 0.48227 0.0
C1572 C 0.16707 0.38605 0.47408 0.0
C1573 C 0.16956 0.36727 0.49089 0.0
C1574 C 0.14499 0.39754 0.47133 0.0
C1575 C 0.12474 0.39032 0.48511 0.0
C1576 C 0.12707 0.37143 0.50186 0.0
C1577 C 0.14937 0.36012 0.50487 0.0
C1578 C 0.05731 0.40241 0.47776 0.0
C1579 C 0.05757 0.42798 0.47895 0.0
C1580 C 0.07911 0.39008 0.47972 0.0
C1581 C 0.10156 0.40311 0.48244 0.0
C1582 C 0.10183 0.42866 0.48277 0.0
C1583 C 0.08008 0.44094 0.48123 0.0
H1584 H 0.90119 0.93237 0.80639 0.0
H1585 H 0.85125 0.97991 0.77096 0.0
H1586 H 0.87154 0.8985 0.80153 0.0
H1587 H 0.82154 0.94592 0.76623 0.0
H1588 H 0.80689 0.84519 0.80256 0.0
H1589 H 0.83032 0.88239 0.81322 0.0
H1590 H 0.82148 0.90835 0.74044 0.0
H1591 H 0.79791 0.87125 0.7297 0.0
C1592 C 0.88373 0.9357 0.79795 0.0
C1593 C 0.87869 0.95879 0.78886 0.0
C1594 C 0.86669 0.9163 0.79527 0.0
C1595 C 0.84432 0.91954 0.78331 0.0
C1596 C 0.83878 0.94287 0.77526 0.0
C1597 C 0.85574 0.96234 0.77812 0.0
C1598 C 0.80968 0.85893 0.78887 0.0
C1599 C 0.80068 0.85514 0.7652 0.0
C1600 C 0.82318 0.8802 0.795 0.0
C1601 C 0.8278 0.89822 0.77766 0.0
C1602 C 0.818 0.89488 0.75426 0.0
C1603 C 0.80465 0.87353 0.74807 0.0
H1604 H 0.69468 0.10817 0.49493 0.0
H1605 H 0.75169 0.09592 0.54741 0.0
H1606 H 0.67544 0.06873 0.50443 0.0
H1607 H 0.73174 0.0565 0.5576 0.0
H1608 H 0.64586 0.0251 0.582 0.0
H1609 H 0.68261 0.05088 0.57553 0.0
H1610 H 0.68883 0.02045 0.50406 0.0
H1611 H 0.6523 0.99478 0.51052 0.0
C1612 C 0.70323 0.09685 0.50826 0.0
C1613 C 0.72458 0.10496 0.52044 0.0
C1614 C 0.69235 0.07428 0.5136 0.0
C1615 C 0.70233 0.05964 0.53159 0.0
C1616 C 0.72396 0.06745 0.54351 0.0
C1617 C 0.73528 0.08987 0.53766 0.0
C1618 C 0.65603 0.0228 0.56558 0.0
C1619 C 0.64629 0.00827 0.54664 0.0
C1620 C 0.67699 0.03759 0.56183 0.0
C1621 C 0.68814 0.03779 0.53916 0.0
C1622 C 0.68043 0.02057 0.52164 0.0
C1623 C 0.6596 0.00588 0.52537 0.0
H1624 H 0.19434 0.45407 0.78977 0.0
H1625 H 0.14546 0.39596 0.7635 0.0
H1626 H 0.22484 0.42447 0.79977 0.0
H1627 H 0.17607 0.36635 0.77362 0.0
H1628 H 0.22734 0.31852 0.81592 0.0
H1629 H 0.19735 0.34988 0.81131 0.0
H1630 H 0.25087 0.39597 0.77554 0.0
H1631 H 0.28085 0.36453 0.77988 0.0
C1632 C 0.19005 0.43498 0.7862 0.0
C1633 C 0.16745 0.42738 0.7758 0.0
C1634 C 0.20756 0.41806 0.79189 0.0
C1635 C 0.20279 0.39313 0.78759 0.0
C1636 C 0.18012 0.38545 0.77743 0.0
C1637 C 0.16267 0.40241 0.77147 0.0
C1638 C 0.23295 0.3356 0.80767 0.0
C1639 C 0.25654 0.33907 0.79832 0.0
C1640 C 0.21565 0.35341 0.80475 0.0
C1641 C 0.2217 0.37524 0.79284 0.0
C1642 C 0.24571 0.37935 0.78486 0.0
C1643 C 0.26289 0.36138 0.7874 0.0
H1644 H 0.30823 0.55889 0.27469 0.0
H1645 H 0.36114 0.60057 0.23331 0.0
H1646 H 0.28698 0.5961 0.28369 0.0
H1647 H 0.33995 0.63767 0.24247 0.0
H1648 H 0.31499 0.70067 0.28788 0.0
H1649 H 0.33362 0.66173 0.28151 0.0
H1650 H 0.26346 0.62905 0.26122 0.0
H1651 H 0.24461 0.66812 0.26743 0.0
C1652 C 0.31519 0.57594 0.26734 0.0
C1653 C 0.3364 0.57681 0.25333 0.0
C1654 C 0.30301 0.59719 0.27249 0.0
C1655 C 0.31202 0.61975 0.26403 0.0
C1656 C 0.33285 0.62054 0.24953 0.0
C1657 C 0.34483 0.59927 0.2441 0.0
C1658 C 0.30336 0.68514 0.28251 0.0
C1659 C 0.2783 0.68762 0.27797 0.0
C1660 C 0.31412 0.66289 0.27864 0.0
C1661 C 0.30004 0.64255 0.27045 0.0
C1662 C 0.27473 0.6445 0.26746 0.0
C1663 C 0.26396 0.66688 0.27106 0.0
H1664 H 0.49559 0.65427 0.66601 0.0
H1665 H 0.46277 0.70389 0.61619 0.0
H1666 H 0.48257 0.62005 0.63976 0.0
H1667 H 0.44898 0.66997 0.59076 0.0
H1668 H 0.46109 0.60972 0.53596 0.0
H1669 H 0.46778 0.64309 0.56414 0.0
H1670 H 0.44811 0.59564 0.62318 0.0
H1671 H 0.44218 0.56161 0.59471 0.0
C1672 C 0.4855 0.65783 0.64958 0.0
C1673 C 0.48063 0.68178 0.64294 0.0
C1674 C 0.4778 0.63825 0.63469 0.0
C1675 C 0.46486 0.6423 0.61307 0.0
C1676 C 0.45935 0.66622 0.60698 0.0
C1677 C 0.46731 0.6857 0.6216 0.0
C1678 C 0.45781 0.60638 0.55489 0.0
C1679 C 0.45128 0.58294 0.56309 0.0
C1680 C 0.46153 0.62562 0.5711 0.0
C1681 C 0.45862 0.62203 0.59598 0.0
C1682 C 0.45086 0.59888 0.60415 0.0
C1683 C 0.44716 0.57948 0.58783 0.0
H1684 H 0.58144 0.30451 0.85084 0.0
H1685 H 0.60213 0.23706 0.88343 0.0
H1686 H 0.61885 0.30546 0.82747 0.0
H1687 H 0.63959 0.23821 0.86027 0.0
H1688 H 0.69837 0.24018 0.80236 0.0
H1689 H 0.65718 0.23651 0.8189 0.0
H1690 H 0.66202 0.31244 0.83958 0.0
H1691 H 0.70267 0.31619 0.82309 0.0
C1692 C 0.59383 0.28978 0.85286 0.0
C1693 C 0.58894 0.27087 0.8692 0.0
C1694 C 0.61528 0.29036 0.83953 0.0
C1695 C 0.63222 0.27199 0.84217 0.0
C1696 C 0.6268 0.25252 0.85769 0.0
C1697 C 0.60542 0.25199 0.8711 0.0
C1698 C 0.69051 0.25609 0.81026 0.0
C1699 C 0.70388 0.27842 0.81154 0.0
C1700 C 0.667 0.25398 0.81979 0.0
C1701 C 0.65635 0.27422 0.83046 0.0
C1702 C 0.66954 0.2966 0.83117 0.0
C1703 C 0.69299 0.29866 0.8219 0.0
H1704 H 0.95696 0.3269 0.05914 0.0
H1705 H 0.01115 0.29623 0.01319 0.0
H1706 H 0.96985 0.36762 0.04614 0.0
H1707 H 0.0241 0.337 0.00053 0.0
H1708 H 0.06454 0.40906 0.03244 0.0
H1709 H 0.04593 0.36805 0.03035 0.0
H1710 H 0.97684 0.39749 0.01016 0.0
H1711 H 0.99544 0.43858 0.0119 0.0
C1712 C 0.97106 0.32876 0.04572 0.0
C1713 C 0.98338 0.30839 0.0376 0.0
C1714 C 0.97839 0.35207 0.03823 0.0
C1715 C -0.00177 0.35533 0.0227 0.0
C1716 C 0.00894 0.33488 0.01277 0.0
C1717 C 0.00142 0.31156 0.01998 0.0
C1718 C 0.0455 0.40676 0.02716 0.0
C1719 C 0.03143 0.42701 0.02252 0.0
C1720 C 0.03491 0.38331 0.02575 0.0
C1721 C 0.00999 0.37973 0.02003 0.0
C1722 C 0.99609 0.39986 0.01456 0.0
C1723 C 0.00678 0.42331 0.01556 0.0
H1724 H 0.91545 0.75298 0.41819 0.0
H1725 H 0.9745 0.74422 0.36836 0.0
H1726 H 0.88932 0.76539 0.38499 0.0
H1727 H 0.94844 0.75711 0.33531 0.0
H1728 H 0.85703 0.81243 0.32928 0.0
H1729 H 0.88754 0.80146 0.35911 0.0
H1730 H 0.91177 0.74511 0.31143 0.0
H1731 H 0.88147 0.75629 0.28136 0.0
C1732 C 0.92278 0.75341 0.40014 0.0
C1733 C 0.9471 0.74775 0.39598 0.0
C1734 C 0.90791 0.76085 0.38117 0.0
C1735 C 0.91703 0.76275 0.35764 0.0
C1736 C 0.94095 0.75591 0.35325 0.0
C1737 C 0.95583 0.74849 0.37222 0.0
C1738 C 0.86929 0.79813 0.32487 0.0
C1739 C 0.86658 0.78501 0.30309 0.0
C1740 C 0.88656 0.79165 0.34209 0.0
C1741 C 0.90149 0.77193 0.33789 0.0
C1742 C 0.90038 0.76028 0.31524 0.0
C1743 C 0.8831 0.76681 0.29794 0.0
H1744 H 0.559 0.33177 0.93599 0.0
H1745 H 0.522 0.32229 0.00383 0.0
H1746 H 0.56197 0.37566 0.94307 0.0
H1747 H 0.52488 0.36612 0.01074 0.0
H1748 H 0.53091 0.4524 0.94927 0.0
H1749 H 0.53128 0.40829 0.94394 0.0
H1750 H 0.55459 0.40074 0.01811 0.0
H1751 H 0.55407 0.4447 0.02358 0.0
C1752 C 0.55189 0.33897 0.9526 0.0
C1753 C 0.54016 0.32353 0.9693 0.0
C1754 C 0.55336 0.36413 0.95651 0.0
C1755 C 0.54337 0.37432 0.9773 0.0
C1756 C 0.5328 0.35879 -0.00542 0.0
C1757 C 0.53114 0.33367 0.99059 0.0
C1758 C 0.53594 0.44133 0.96449 0.0
C1759 C 0.54242 0.4521 0.98685 0.0
C1760 C 0.53641 0.4161 0.96136 0.0
C1761 C 0.54315 0.40111 0.98057 0.0
C1762 C 0.54922 0.41182 0.00302 0.0
C1763 C 0.54895 0.43703 0.0061 0.0
H1764 H 0.93407 0.24951 0.18859 0.0
H1765 H 0.90153 0.28611 0.12813 0.0
H1766 H 0.89508 0.24966 0.20952 0.0
H1767 H 0.86271 0.28596 0.14899 0.0
H1768 H 0.79408 0.24395 0.17698 0.0
H1769 H 0.83456 0.24836 0.15967 0.0
H1770 H 0.8627 0.2798 0.22645 0.0
H1771 H 0.82194 0.2757 0.24391 0.0
C1772 C 0.91876 0.25795 0.17996 0.0
C1773 C 0.92082 0.26759 0.15661 0.0
C1774 C 0.8965 0.25806 0.19196 0.0
C1775 C 0.87592 0.26752 0.18067 0.0
C1776 C 0.87829 0.27827 0.1579 0.0
C1777 C 0.90057 0.27847 0.14606 0.0
C1778 C 0.80887 0.25165 0.18809 0.0
C1779 C 0.8048 0.25948 0.21183 0.0
C1780 C 0.83199 0.25437 0.17808 0.0
C1781 C 0.85161 0.26463 0.19169 0.0
C1782 C 0.8478 0.27187 0.21563 0.0
C1783 C 0.82452 0.26953 0.22556 0.0
H1784 H 0.05106 0.68086 0.45334 0.0
H1785 H 0.99571 0.6777 0.50814 0.0
H1786 H 0.05994 0.63854 0.46111 0.0
H1787 H 0.00464 0.63537 0.51577 0.0
H1788 H 0.02217 0.55975 0.44976 0.0
H1789 H 0.03082 0.60346 0.45003 0.0
H1790 H 0.03499 0.60329 0.52788 0.0
H1791 H 0.02657 0.55913 0.52755 0.0
C1792 C 0.04118 0.67136 0.46744 0.0
C1793 C 0.02226 0.68248 0.47975 0.0
C1794 C 0.04632 0.64713 0.47188 0.0
C1795 C 0.0328 0.63364 0.48883 0.0
C1796 C 0.01546 0.64539 0.5027 0.0
C1797 C 0.0102 0.66959 0.49817 0.0
C1798 C 0.02569 0.56894 0.46689 0.0
C1799 C 0.02352 0.55621 0.48863 0.0
C1800 C 0.0308 0.59394 0.46706 0.0
C1801 C 0.03344 0.60677 0.489 0.0
C1802 C 0.03295 0.59379 0.51074 0.0
C1803 C 0.02827 0.56858 0.51055 0.0
H1804 H 0.57113 0.76177 0.73197 0.0
H1805 H 0.56327 0.79086 0.66017 0.0
H1806 H 0.6128 0.77883 0.73425 0.0
H1807 H 0.60501 0.80785 0.66253 0.0
H1808 H 0.68265 0.81872 0.73992 0.0
H1809 H 0.63831 0.8181 0.7347 0.0
H1810 H 0.64531 0.78668 0.66362 0.0
H1811 H 0.68962 0.78738 0.66902 0.0
C1812 C 0.57818 0.77204 0.71681 0.0
C1813 C 0.56397 0.77477 0.69585 0.0
C1814 C 0.60196 0.78204 0.7182 0.0
C1815 C 0.61208 0.79478 0.69858 0.0
C1816 C 0.59765 0.79812 0.67789 0.0
C1817 C 0.57377 0.78837 0.67659 0.0
C1818 C 0.6747 0.81299 0.7227 0.0
C1819 C 0.68936 0.80343 0.7047 0.0
C1820 C 0.64937 0.81229 0.71984 0.0
C1821 C 0.63839 0.80196 0.69894 0.0
C1822 C 0.65328 0.79488 0.67987 0.0
C1823 C 0.67864 0.79544 0.68283 0.0
H1824 H 0.591 0.46858 0.66852 0.0
H1825 H 0.53907 0.52473 0.6787 0.0
H1826 H 0.56117 0.44571 0.64316 0.0
H1827 H 0.50995 0.50266 0.65316 0.0
H1828 H 0.52563 0.45395 0.56552 0.0
H1829 H 0.54826 0.45351 0.6031 0.0
H1830 H 0.48302 0.46991 0.64191 0.0
H1831 H 0.46049 0.47167 0.60386 0.0
C1832 C 0.57314 0.47585 0.66565 0.0
C1833 C 0.56762 0.49877 0.67503 0.0
C1834 C 0.55604 0.46275 0.65117 0.0
C1835 C 0.53319 0.47238 0.64586 0.0
C1836 C 0.52714 0.49436 0.65698 0.0
C1837 C 0.5441 0.50734 0.67137 0.0
C1838 C 0.51582 0.4567 0.58209 0.0
C1839 C 0.49157 0.46411 0.58162 0.0
C1840 C 0.52885 0.45621 0.60382 0.0
C1841 C 0.51772 0.46277 0.62547 0.0
C1842 C 0.49235 0.46577 0.62537 0.0
C1843 C 0.47939 0.46667 0.60356 0.0
H1844 H 0.85841 0.34373 0.99131 0.0
H1845 H 0.82334 0.40818 0.96662 0.0
H1846 H 0.85522 0.32649 0.9506 0.0
H1847 H 0.82087 0.39134 0.92594 0.0
H1848 H 0.78406 0.33981 0.87175 0.0
H1849 H 0.79465 0.35848 0.91021 0.0
H1850 H 0.86625 0.32865 0.90736 0.0
H1851 H 0.85542 0.30927 0.86846 0.0
C1852 C 0.85057 0.35446 0.97708 0.0
C1853 C 0.84068 0.3771 0.98222 0.0
C1854 C 0.84884 0.34461 0.95375 0.0
C1855 C 0.83734 0.35734 0.9352 0.0
C1856 C 0.82924 0.3808 0.94002 0.0
C1857 C 0.83074 0.3905 0.9633 0.0
C1858 C 0.80213 0.33716 0.87916 0.0
C1859 C 0.81895 0.32312 0.8669 0.0
C1860 C 0.80827 0.3481 0.90119 0.0
C1861 C 0.83146 0.34546 0.91162 0.0
C1862 C 0.84825 0.33104 0.89971 0.0
C1863 C 0.84205 0.31996 0.87748 0.0
H1864 H 0.9313 0.52206 0.19064 0.0
H1865 H 0.92439 0.4564 0.14746 0.0
H1866 H 0.97269 0.52937 0.17618 0.0
H1867 H 0.96527 0.46416 0.13221 0.0
H1868 H 0.03627 0.5444 0.12268 0.0
H1869 H 0.99762 0.53974 0.14311 0.0
H1870 H 0.00612 0.46204 0.1465 0.0
H1871 H 0.04444 0.46659 0.12512 0.0
C1872 C 0.93838 0.50957 0.17751 0.0
C1873 C 0.92469 0.48857 0.17028 0.0
C1874 C 0.96218 0.51367 0.16934 0.0
C1875 C 0.97262 0.49698 0.15358 0.0
C1876 C 0.95821 0.47688 0.14512 0.0
C1877 C 0.9346 0.47263 0.1535 0.0
C1878 C 0.03036 0.52637 0.12846 0.0
C1879 C 0.04318 0.50576 0.1217 0.0
C1880 C 0.00804 0.5237 0.14015 0.0
C1881 C -0.00173 0.50042 0.14558 0.0
C1882 C 0.01262 0.48016 0.14158 0.0
C1883 C 0.03482 0.48279 0.1297 0.0
H1884 H 0.76513 0.67103 0.45021 0.0
H1885 H 0.69061 0.69341 0.44469 0.0
H1886 H 0.77398 0.69023 0.4115 0.0
H1887 H 0.69949 0.71231 0.40589 0.0
H1888 H 0.72318 0.72109 0.32575 0.0
H1889 H 0.71339 0.69926 0.36282 0.0
H1890 H 0.77431 0.7364 0.39921 0.0
H1891 H 0.78405 0.7585 0.36227 0.0
C1892 C 0.75056 0.67966 0.44054 0.0
C1893 C 0.72722 0.68085 0.45046 0.0
C1894 C 0.75569 0.69077 0.41855 0.0
C1895 C 0.73744 0.70285 0.40598 0.0
C1896 C 0.71382 0.70305 0.41531 0.0
C1897 C 0.70878 0.6923 0.43747 0.0
C1898 C 0.73442 0.72467 0.34169 0.0
C1899 C 0.75436 0.74151 0.34117 0.0
C1900 C 0.72879 0.71221 0.36283 0.0
C1901 C 0.74325 0.71608 0.38365 0.0
C1902 C 0.76309 0.73296 0.38322 0.0
C1903 C 0.7685 0.74573 0.36219 0.0
H1904 H 0.61949 0.51065 0.78921 0.0
H1905 H 0.60314 0.58672 0.78397 0.0
H1906 H 0.6094 0.51141 0.83203 0.0
H1907 H 0.59333 0.58742 0.82677 0.0
H1908 H 0.60209 0.58134 0.91016 0.0
H1909 H 0.61509 0.58128 0.86817 0.0
H1910 H 0.56814 0.51788 0.85367 0.0
H1911 H 0.5549 0.51796 0.89553 0.0
C1912 C 0.61408 0.52758 0.79726 0.0
C1913 C 0.61196 0.54859 0.78325 0.0
C1914 C 0.60818 0.52795 0.82167 0.0
C1915 C 0.60047 0.54943 0.83251 0.0
C1916 C 0.5993 0.57067 0.81878 0.0
C1917 C 0.60483 0.57022 0.79431 0.0
C1918 C 0.59448 0.56744 0.89799 0.0
C1919 C 0.57744 0.54968 0.9061 0.0
C1920 C 0.60191 0.56745 0.87402 0.0
C1921 C 0.59272 0.54948 0.85787 0.0
C1922 C 0.57567 0.53176 0.86592 0.0
C1923 C 0.56796 0.53196 0.88978 0.0
H1924 H 0.74962 0.38116 0.07894 0.0
H1925 H 0.80275 0.32862 0.09898 0.0
H1926 H 0.71733 0.35527 0.09647 0.0
H1927 H 0.77068 0.30307 0.11655 0.0
H1928 H 0.68662 0.31882 0.16909 0.0
H1929 H 0.70674 0.34293 0.13813 0.0
H1930 H 0.73379 0.27756 0.10627 0.0
H1931 H 0.71406 0.25337 0.1376 0.0
C1932 C 0.75441 0.3641 0.08704 0.0
C1933 C 0.7788 0.357 0.08772 0.0
C1934 C 0.7359 0.34927 0.09696 0.0
C1935 C 0.74138 0.32698 0.10752 0.0
C1936 C 0.76573 0.31985 0.10798 0.0
C1937 C 0.78421 0.33468 0.09823 0.0
C1938 C 0.6958 0.3094 0.15482 0.0
C1939 C 0.69947 0.28427 0.15624 0.0
C1940 C 0.70746 0.3233 0.13707 0.0
C1941 C 0.72262 0.31217 0.12039 0.0
C1942 C 0.72284 0.28665 0.11943 0.0
C1943 C 0.71132 0.27278 0.13723 0.0
H1944 H 0.88284 0.50109 0.29711 0.0
H1945 H 0.9151 0.43308 0.27861 0.0
H1946 H 0.90279 0.50047 0.33655 0.0
H1947 H 0.93575 0.43289 0.31774 0.0
H1948 H 0.94794 0.4291 0.40004 0.0
H1949 H 0.92896 0.42812 0.36001 0.0
H1950 H 0.94261 0.5058 0.35404 0.0
H1951 H 0.96076 0.50687 0.39428 0.0
C1952 C 0.89424 0.48604 0.30144 0.0
C1953 C 0.89741 0.46716 0.28473 0.0
C1954 C 0.90585 0.48577 0.32398 0.0
C1955 C 0.9211 0.46675 0.33022 0.0
C1956 C 0.92397 0.44768 0.31361 0.0
C1957 C 0.91217 0.44784 0.29115 0.0
C1958 C 0.94714 0.4459 0.39003 0.0
C1959 C 0.95566 0.46808 0.40037 0.0
C1960 C 0.93628 0.44535 0.36708 0.0
C1961 C 0.93396 0.46694 0.35395 0.0
C1962 C 0.94352 0.48893 0.36391 0.0
C1963 C 0.95412 0.48951 0.3869 0.0
H1964 H 0.79229 0.68101 0.56476 0.0
H1965 H 0.73278 0.72922 0.57448 0.0
H1966 H 0.81813 0.70714 0.59128 0.0
H1967 H 0.758 0.75464 0.60113 0.0
H1968 H 0.79816 0.8009 0.64672 0.0
H1969 H 0.79189 0.78249 0.60694 0.0
H1970 H 0.8195 0.71511 0.63363 0.0
H1971 H 0.82701 0.7338 0.67271 0.0
C1972 C 0.78474 0.69715 0.57252 0.0
C1973 C 0.76039 0.70288 0.56778 0.0
C1974 C 0.79958 0.71219 0.58757 0.0
C1975 C 0.79029 0.73317 0.59817 0.0
C1976 C 0.76611 0.73907 0.59282 0.0
C1977 C 0.75142 0.72419 0.5778 0.0
C1978 C 0.80406 0.78256 0.64373 0.0
C1979 C 0.812 0.76846 0.6631 0.0
C1980 C 0.80024 0.77191 0.621 0.0
C1981 C 0.80391 0.74694 0.61753 0.0
C1982 C 0.81603 0.73425 0.63571 0.0
C1983 C 0.82031 0.74505 0.65829 0.0
H1984 H 0.68338 0.58109 0.51209 0.0
H1985 H 0.64332 0.62917 0.55748 0.0
H1986 H 0.64655 0.55483 0.50654 0.0
H1987 H 0.60688 0.60293 0.55215 0.0
H1988 H 0.54403 0.58059 0.50184 0.0
H1989 H 0.58362 0.59907 0.5122 0.0
H1990 H 0.61146 0.52825 0.52676 0.0
H1991 H 0.57134 0.50935 0.51637 0.0
C1992 C 0.66699 0.58558 0.52155 0.0
C1993 C 0.66604 0.60741 0.53483 0.0
C1994 C 0.64594 0.57058 0.51833 0.0
C1995 C 0.62381 0.57726 0.52842 0.0
C1996 C 0.62361 0.59771 0.54371 0.0
C1997 C 0.64449 0.61266 0.54684 0.0
C1998 C 0.55852 0.5688 0.50708 0.0
C1999 C 0.55439 0.54348 0.50849 0.0
C2000 C 0.58118 0.57945 0.51321 0.0
C2001 C 0.60039 0.56511 0.52083 0.0
C2002 C 0.59683 0.53968 0.52113 0.0
C2003 C 0.57393 0.52893 0.51512 0.0
H2004 H 0.22878 0.93023 0.55194 0.0
H2005 H 0.23657 0.95303 0.4779 0.0
H2006 H 0.19177 0.95289 0.55508 0.0
H2007 H 0.19912 0.97529 0.48091 0.0
H2008 H 0.14218 0.02937 0.50015 0.0
H2009 H 0.18142 0.0102 0.50003 0.0
H2010 H 0.15033 0.94947 0.53972 0.0
H2011 H 0.1112 0.96884 0.54034 0.0
C2012 C 0.22261 0.94009 0.53631 0.0
C2013 C 0.23556 0.93972 0.5146 0.0
C2014 C 0.2013 0.95299 0.5381 0.0
C2015 C 0.1924 0.96576 0.51822 0.0
C2016 C 0.20564 0.96584 0.49665 0.0
C2017 C 0.22703 0.95298 0.49488 0.0
C2018 C 0.14374 0.01203 0.50906 0.0
C2019 C 0.12349 0.0006 0.52019 0.0
C2020 C 0.16622 0.00098 0.50883 0.0
C2021 C 0.16896 0.97824 0.5197 0.0
C2022 C 0.1489 0.96712 0.5314 0.0
C2023 C 0.12643 0.97819 0.53168 0.0
H2024 H 0.2714 0.94614 0.72703 0.0
H2025 H 0.2928 0.89931 0.6689 0.0
H2026 H 0.23509 0.91976 0.73335 0.0
H2027 H 0.2565 0.87332 0.67484 0.0
H2028 H 0.22419 0.83706 0.76222 0.0
H2029 H 0.24001 0.87713 0.75045 0.0
H2030 H 0.21064 0.86528 0.67851 0.0
H2031 H 0.19451 0.82516 0.69035 0.0
C2032 C 0.26769 0.93094 0.71481 0.0
C2033 C 0.28499 0.92452 0.69768 0.0
C2034 C 0.247 0.91578 0.71852 0.0
C2035 C 0.24315 0.89432 0.70482 0.0
C2036 C 0.25887 0.88977 0.68563 0.0
C2037 C 0.27973 0.90461 0.68224 0.0
C2038 C 0.22029 0.84336 0.74416 0.0
C2039 C 0.2085 0.8278 0.72712 0.0
C2040 C 0.2292 0.86642 0.73744 0.0
C2041 C 0.22679 0.87422 0.71346 0.0
C2042 C 0.21284 0.85966 0.69707 0.0
C2043 C 0.20356 0.83671 0.70391 0.0
H2044 H 0.31378 0.12106 0.99259 0.0
H2045 H 0.27523 0.05601 0.01714 0.0
H2046 H 0.35117 0.09897 0.99017 0.0
H2047 H 0.31277 0.03368 0.01424 0.0
H2048 H 0.39094 0.00888 0.0287 0.0
H2049 H 0.35344 0.03092 0.03279 0.0
H2050 H 0.36801 0.06747 0.96552 0.0
H2051 H 0.4056 0.04591 0.96162 0.0
C2052 C 0.31324 0.102 -0.00259 0.0
C2053 C 0.29147 0.09028 0.00499 0.0
C2054 C 0.33469 0.08929 -0.00411 0.0
C2055 C 0.33494 0.06452 0.00186 0.0
C2056 C 0.31324 0.05282 0.00972 0.0
C2057 C 0.2917 0.06557 0.01125 0.0
C2058 C 0.38619 0.02168 0.01482 0.0
C2059 C 0.40138 0.02567 -0.00513 0.0
C2060 C 0.3646 0.03419 0.0171 0.0
C2061 C 0.35774 0.05099 -0.00049 0.0
C2062 C 0.37293 0.05494 0.97958 0.0
C2063 C 0.39446 0.04246 0.9773 0.0
H2064 H 0.64975 0.61382 0.6661 0.0
H2065 H 0.7018 0.56221 0.6908 0.0
H2066 H 0.68169 0.6451 0.66458 0.0
H2067 H 0.73439 0.59353 0.68826 0.0
H2068 H 0.76262 0.66404 0.73042 0.0
H2069 H 0.74331 0.62643 0.71474 0.0
H2070 H 0.7173 0.66518 0.65239 0.0
H2071 H 0.73531 0.703 0.66924 0.0
C2072 C 0.66824 0.60892 0.6704 0.0
C2073 C 0.67309 0.58575 0.67931 0.0
C2074 C 0.68676 0.6269 0.6693 0.0
C2075 C 0.71068 0.62208 0.67687 0.0
C2076 C 0.71606 0.59806 0.68295 0.0
C2077 C 0.6974 0.58004 0.68423 0.0
C2078 C 0.75335 0.66421 0.71304 0.0
C2079 C 0.75 0.68619 0.70113 0.0
C2080 C 0.74239 0.64265 0.70388 0.0
C2081 C 0.72819 0.64279 0.68249 0.0
C2082 C 0.72742 0.6645 0.66926 0.0
C2083 C 0.73785 0.68612 0.67875 0.0
H2084 H 0.84958 0.48365 0.057 0.0
H2085 H 0.8975 0.43864 0.09821 0.0
H2086 H 0.88104 0.51622 0.05704 0.0
H2087 H 0.92883 0.47115 0.0981 0.0
H2088 H 0.98427 0.52941 0.0943 0.0
H2089 H 0.9439 0.51488 0.10708 0.0
H2090 H 0.9196 0.51184 0.03268 0.0
H2091 H 0.95988 0.52608 0.01991 0.0
C2092 C 0.86646 0.48097 0.06678 0.0
C2093 C 0.87131 0.45831 0.07705 0.0
C2094 C 0.88446 0.49966 0.06678 0.0
C2095 C 0.90744 0.49609 0.07731 0.0
C2096 C 0.91121 0.47451 0.09001 0.0
C2097 C 0.89332 0.45575 0.08985 0.0
C2098 C 0.97006 0.52651 0.08075 0.0
C2099 C 0.97537 0.52834 0.05605 0.0
C2100 C 0.94698 0.51813 0.0881 0.0
C2101 C 0.92877 0.51191 0.07087 0.0
C2102 C 0.93325 0.51658 0.0464 0.0
C2103 C 0.95639 0.5246 0.03904 0.0
H2104 H 0.34012 0.05521 0.7029 0.0
H2105 H 0.28143 0.03874 0.75206 0.0
H2106 H 0.33076 0.09812 0.70441 0.0
H2107 H 0.27243 0.08179 0.75402 0.0
H2108 H 0.25123 0.15986 0.73932 0.0
H2109 H 0.2573 0.11656 0.73206 0.0
H2110 H 0.33535 0.13052 0.7335 0.0
H2111 H 0.32938 0.17344 0.74014 0.0
C2112 C 0.3252 0.06072 0.71402 0.0
C2113 C 0.31167 0.04353 0.72751 0.0
C2114 C 0.31988 0.08537 0.71496 0.0
C2115 C 0.30094 0.09349 0.72948 0.0
C2116 C 0.28697 0.07619 0.74245 0.0
C2117 C 0.29226 0.0515 0.74147 0.0
C2118 C 0.26966 0.1537 0.73777 0.0
C2119 C 0.28979 0.17019 0.74039 0.0
C2120 C 0.27315 0.12886 0.73379 0.0
C2121 C 0.29683 0.12001 0.73221 0.0
C2122 C 0.31685 0.13665 0.73424 0.0
C2123 C 0.3134 0.16135 0.73825 0.0
H2124 H 0.18908 0.98803 0.25289 0.0
H2125 H 0.13378 0.94715 0.21166 0.0
H2126 H 0.21456 0.95256 0.25307 0.0
H2127 H 0.1593 0.91181 0.21186 0.0
H2128 H 0.2189 0.85715 0.20299 0.0
H2129 H 0.20018 0.89657 0.19724 0.0
H2130 H 0.2087 0.91188 0.27346 0.0
H2131 H 0.2271 0.87279 0.2792 0.0
C2132 C 0.18244 0.97156 0.24373 0.0
C2133 C 0.15931 0.97029 0.2325 0.0
C2134 C 0.19704 0.9513 0.24382 0.0
C2135 C 0.1889 0.92949 0.23244 0.0
C2136 C 0.16614 0.92848 0.22052 0.0
C2137 C 0.15144 0.94864 0.22065 0.0
C2138 C 0.21717 0.8692 0.21836 0.0
C2139 C 0.22423 0.86188 0.24155 0.0
C2140 C 0.20636 0.89162 0.21511 0.0
C2141 C 0.20294 0.90718 0.23494 0.0
C2142 C 0.21128 0.90036 0.25784 0.0
C2143 C 0.22166 0.8779 0.26113 0.0
H2144 H 0.42921 0.31388 0.44807 0.0
H2145 H 0.49977 0.30967 0.4148 0.0
H2146 H 0.43536 0.35785 0.45197 0.0
H2147 H 0.50594 0.35386 0.41899 0.0
H2148 H 0.44232 0.43682 0.43618 0.0
H2149 H 0.44002 0.39443 0.42313 0.0
H2150 H 0.51031 0.38328 0.45623 0.0
H2151 H 0.51276 0.42575 0.46949 0.0
C2152 C 0.44603 0.32234 0.44162 0.0
C2153 C 0.46403 0.30835 0.4312 0.0
C2154 C 0.44943 0.34751 0.44363 0.0
C2155 C 0.47101 0.35915 0.43554 0.0
C2156 C 0.48913 0.34523 0.42527 0.0
C2157 C 0.48557 0.32002 0.42291 0.0
C2158 C 0.4576 0.42556 0.44022 0.0
C2159 C 0.47752 0.43454 0.45431 0.0
C2160 C 0.45618 0.40128 0.43282 0.0
C2161 C 0.47478 0.38563 0.43909 0.0
C2162 C 0.49573 0.39506 0.45122 0.0
C2163 C 0.49707 0.41934 0.45885 0.0
H2164 H 0.44502 0.72218 0.20595 0.0
H2165 H 0.44356 0.78028 0.15385 0.0
H2166 H 0.40555 0.73408 0.22093 0.0
H2167 H 0.40451 0.7924 0.16918 0.0
H2168 H 0.32271 0.78996 0.19081 0.0
H2169 H 0.36134 0.77938 0.17292 0.0
H2170 H 0.39228 0.7696 0.2441 0.0
H2171 H 0.35374 0.7798 0.26196 0.0
C2172 C 0.43616 0.73725 0.19751 0.0
C2173 C 0.44749 0.75043 0.17892 0.0
C2174 C 0.41372 0.74424 0.20625 0.0
C2175 C 0.40224 0.76446 0.19649 0.0
C2176 C 0.41295 0.77678 0.17704 0.0
C2177 C 0.43536 0.76984 0.16834 0.0
C2178 C 0.33794 0.78612 0.20263 0.0
C2179 C 0.33513 0.78547 0.22777 0.0
C2180 C 0.36 0.77992 0.19238 0.0
C2181 C 0.37956 0.77308 0.20714 0.0
C2182 C 0.37724 0.77409 0.23229 0.0
C2183 C 0.35526 0.78022 0.24251 0.0
H2184 H 0.01494 0.71661 0.00375 0.0
H2185 H 0.03614 0.68158 0.93779 0.0
H2186 H 0.04157 0.69071 0.0268 0.0
H2187 H 0.06139 0.65455 0.96068 0.0
H2188 H 0.10466 0.60533 0.00168 0.0
H2189 H 0.09421 0.64448 0.98494 0.0
H2190 H 0.03838 0.65087 0.03875 0.0
H2191 H 0.04979 0.61293 0.05614 0.0
C2192 C 0.02536 0.70335 -0.00578 0.0
C2193 C 0.02318 0.70074 0.96908 0.0
C2194 C 0.04059 0.68845 0.00739 0.0
C2195 C 0.0534 0.67013 -0.00424 0.0
C2196 C 0.05218 0.66856 0.97039 0.0
C2197 C 0.03743 0.68389 0.9572 0.0
C2198 C 0.09074 0.61557 0.0104 0.0
C2199 C 0.07758 0.60567 0.02981 0.0
C2200 C 0.08455 0.63791 0.00065 0.0
C2201 C 0.06484 0.65054 0.00989 0.0
C2202 C 0.05364 0.64186 0.03099 0.0
C2203 C 0.0601 0.61982 0.04096 0.0
H2204 H 0.13258 0.34418 0.65031 0.0
H2205 H 0.07901 0.30896 0.69628 0.0
H2206 H 0.16413 0.3373 0.68055 0.0
H2207 H 0.11076 0.30171 0.72616 0.0
H2208 H 0.21569 0.32444 0.74209 0.0
H2209 H 0.17969 0.3424 0.72492 0.0
H2210 H 0.14497 0.27093 0.71703 0.0
H2211 H 0.18125 0.25261 0.73404 0.0
C2212 C 0.12734 0.33585 0.6672 0.0
C2213 C 0.10346 0.32644 0.67055 0.0
C2214 C 0.14542 0.33186 0.68451 0.0
C2215 C 0.13985 0.31838 0.70529 0.0
C2216 C 0.11549 0.31172 0.71002 0.0
C2217 C 0.09736 0.31601 0.69291 0.0
C2218 C 0.20036 0.31244 0.73688 0.0
C2219 C 0.20155 0.28694 0.73888 0.0
C2220 C 0.17972 0.32285 0.7272 0.0
C2221 C 0.15972 0.30805 0.71962 0.0
C2222 C 0.16017 0.28273 0.723 0.0
C2223 C 0.18097 0.27223 0.73253 0.0
H2224 H 0.56023 0.68006 0.12351 0.0
H2225 H 0.54319 0.74174 0.07929 0.0
H2226 H 0.57751 0.66024 0.08866 0.0
H2227 H 0.56063 0.72183 0.04442 0.0
H2228 H 0.61035 0.62688 0.02839 0.0
H2229 H 0.60993 0.66138 0.05646 0.0
H2230 H 0.54336 0.68463 0.02285 0.0
H2231 H 0.54377 0.65019 -0.00484 0.0
C2232 C 0.56043 0.6895 0.10643 0.0
C2233 C 0.54995 0.71224 0.10407 0.0
C2234 C 0.57071 0.67834 0.08655 0.0
C2235 C 0.57057 0.68962 0.06387 0.0
C2236 C 0.56102 0.71281 0.06171 0.0
C2237 C 0.55091 0.72407 0.08165 0.0
C2238 C 0.59648 0.64021 0.02615 0.0
C2239 C 0.5769 0.63588 0.00996 0.0
C2240 C 0.59608 0.65976 0.04236 0.0
C2241 C 0.57629 0.67525 0.04218 0.0
C2242 C 0.55883 0.67298 0.02346 0.0
C2243 C 0.55905 0.65329 0.00754 0.0
H2244 H 0.03481 0.78669 0.83437 0.0
H2245 H 0.02144 0.70925 0.8419 0.0
H2246 H 0.06308 0.77932 0.80176 0.0
H2247 H 0.04857 0.70181 0.80853 0.0
H2248 H 0.10952 0.76112 0.73923 0.0
H2249 H 0.07205 0.76529 0.76201 0.0
H2250 H 0.09114 0.70411 0.80604 0.0
H2251 H 0.1276 0.69941 0.78294 0.0
C2252 C 0.03751 0.76813 0.82864 0.0
C2253 C 0.02645 0.74852 0.84095 0.0
C2254 C 0.05353 0.76387 0.80981 0.0
C2255 C 0.0584 0.73993 0.80273 0.0
C2256 C 0.04578 0.72044 0.81394 0.0
C2257 C 0.0302 0.72468 0.83303 0.0
C2258 C 0.10534 0.74824 0.75341 0.0
C2259 C 0.12171 0.73015 0.75949 0.0
C2260 C 0.08398 0.75074 0.76658 0.0
C2261 C 0.07866 0.73521 0.78604 0.0
C2262 C 0.09437 0.71625 0.79103 0.0
C2263 C 0.11552 0.71368 0.77787 0.0
H2264 H 0.02708 0.33536 0.54295 0.0
H2265 H 0.97778 0.31438 0.6 0.0
H2266 H 0.99294 0.34788 0.5186 0.0
H2267 H 0.94323 0.32703 0.57533 0.0
H2268 H 0.92057 0.40494 0.54256 0.0
H2269 H 0.9329 0.36914 0.56379 0.0
H2270 H 0.95407 0.33666 0.49653 0.0
H2271 H 0.94236 0.37298 0.47521 0.0
C2272 C 0.00889 0.33319 0.5502 0.0
C2273 C 0.00518 0.32432 0.57354 0.0
C2274 C 0.98918 0.3399 0.53603 0.0
C2275 C 0.96526 0.33808 0.5449 0.0
C2276 C 0.96142 0.3284 0.56796 0.0
C2277 C 0.98121 0.32142 0.58211 0.0
C2278 C 0.92647 0.38965 0.53201 0.0
C2279 C 0.93221 0.39236 0.50751 0.0
C2280 C 0.93355 0.36896 0.54428 0.0
C2281 C 0.94588 0.35087 0.53191 0.0
C2282 C 0.94554 0.35094 0.50656 0.0
C2283 C 0.93874 0.37173 0.49434 0.0
H2284 H 0.42717 0.22357 0.33985 0.0
H2285 H 0.37173 0.20899 0.39311 0.0
H2286 H 0.39548 0.22718 0.30891 0.0
H2287 H 0.34023 0.21236 0.36212 0.0
H2288 H 0.32783 0.22125 0.25744 0.0
H2289 H 0.35918 0.20746 0.28559 0.0
H2290 H 0.3292 0.2512 0.34209 0.0
H2291 H 0.29817 0.26489 0.3144 0.0
C2292 C 0.40829 0.22045 0.34484 0.0
C2293 C 0.40193 0.21652 0.36904 0.0
C2294 C 0.39017 0.22245 0.32708 0.0
C2295 C 0.36544 0.22055 0.33328 0.0
C2296 C 0.35918 0.21441 0.357 0.0
C2297 C 0.37724 0.2124 0.37472 0.0
C2298 C 0.32799 0.22789 0.27588 0.0
C2299 C 0.31053 0.2442 0.28366 0.0
C2300 C 0.34588 0.21998 0.29194 0.0
C2301 C 0.34635 0.22799 0.31606 0.0
C2302 C 0.32896 0.24431 0.32373 0.0
C2303 C 0.31133 0.25237 0.30774 0.0
H2304 H 0.46378 0.52402 0.31363 0.0
H2305 H 0.39819 0.56475 0.30761 0.0
H2306 H 0.4717 0.54131 0.35356 0.0
H2307 H 0.40619 0.58207 0.34779 0.0
H2308 H 0.40795 0.54959 0.42856 0.0
H2309 H 0.40297 0.55669 0.3856 0.0
H2310 H 0.47938 0.57816 0.38116 0.0
H2311 H 0.48422 0.5713 0.42456 0.0
C2312 C 0.45132 0.53705 0.32065 0.0
C2313 C 0.43008 0.54258 0.30777 0.0
C2314 C 0.45606 0.54726 0.34338 0.0
C2315 C 0.43951 0.56301 0.35376 0.0
C2316 C 0.4192 0.56995 0.34016 0.0
C2317 C 0.41459 0.55993 0.31726 0.0
C2318 C 0.4234 0.5569 0.41858 0.0
C2319 C 0.44651 0.55958 0.42959 0.0
C2320 C 0.42055 0.56111 0.39401 0.0
C2321 C 0.4409 0.56761 0.38003 0.0
C2322 C 0.46347 0.57299 0.39159 0.0
C2323 C 0.46621 0.56918 0.41636 0.0
H2324 H 0.28134 0.66459 0.08203 0.0
H2325 H 0.21891 0.70002 0.0523 0.0
H2326 H 0.27509 0.68501 0.12094 0.0
H2327 H 0.21304 0.72059 0.09077 0.0
H2328 H 0.23298 0.77203 0.15712 0.0
H2329 H 0.23848 0.75241 0.11793 0.0
H2330 H 0.23799 0.6822 0.1522 0.0
H2331 H 0.23203 0.70163 0.19135 0.0
C2332 C 0.26657 0.67696 0.08373 0.0
C2333 C 0.25056 0.68067 0.06427 0.0
C2334 C 0.26287 0.68844 0.10594 0.0
C2335 C 0.2435 0.7042 0.10874 0.0
C2336 C 0.2281 0.70854 0.08902 0.0
C2337 C 0.23145 0.69673 0.06708 0.0
C2338 C 0.23358 0.75237 0.15622 0.0
C2339 C 0.23193 0.73836 0.17727 0.0
C2340 C 0.23684 0.7412 0.13386 0.0
C2341 C 0.23901 0.71589 0.13223 0.0
C2342 C 0.2367 0.70179 0.15312 0.0
C2343 C 0.23294 0.7129 0.17542 0.0
H2344 H 0.10394 0.46721 0.82847 0.0
H2345 H 0.04606 0.51682 0.8154 0.0
H2346 H 0.09973 0.47338 0.87189 0.0
H2347 H 0.04209 0.52307 0.85863 0.0
H2348 H 0.02684 0.5087 0.93878 0.0
H2349 H 0.02952 0.50077 0.89558 0.0
H2350 H 0.10808 0.50818 0.90057 0.0
H2351 H 0.10554 0.51593 0.94374 0.0
C2352 C 0.09021 0.47924 0.83484 0.0
C2353 C 0.0754 0.49159 0.81851 0.0
C2354 C 0.08793 0.48291 0.85967 0.0
C2355 C 0.07069 0.49882 0.86859 0.0
C2356 C 0.05542 0.51059 0.85227 0.0
C2357 C 0.0578 0.50707 0.8275 0.0
C2358 C 0.04468 0.50877 0.93066 0.0
C2359 C 0.06597 0.51295 0.94473 0.0
C2360 C 0.0462 0.50425 0.90592 0.0
C2361 C 0.06902 0.50368 0.89479 0.0
C2362 C 0.09027 0.50814 0.90876 0.0
C2363 C 0.08877 0.51281 0.93346 0.0
H2364 H 0.29496 0.26532 0.55553 0.0
H2365 H 0.23759 0.30915 0.58294 0.0
H2366 H 0.31126 0.26107 0.5963 0.0
H2367 H 0.25372 0.30448 0.62376 0.0
H2368 H 0.31451 0.24167 0.67909 0.0
H2369 H 0.30259 0.24378 0.63658 0.0
H2370 H 0.29111 0.32063 0.64481 0.0
H2371 H 0.30272 0.31851 0.68724 0.0
C2372 C 0.28553 0.27366 0.5703 0.0
C2373 C 0.26509 0.2878 0.56595 0.0
C2374 C 0.29493 0.27121 0.59365 0.0
C2375 C 0.28412 0.28291 0.61311 0.0
C2376 C 0.26282 0.2958 0.60897 0.0
C2377 C 0.25336 0.29819 0.58564 0.0
C2378 C 0.3103 0.25918 0.67161 0.0
C2379 C 0.30925 0.27987 0.68656 0.0
C2380 C 0.30324 0.26034 0.64731 0.0
C2381 C 0.29515 0.28221 0.63763 0.0
C2382 C 0.29649 0.30335 0.65201 0.0
C2383 C 0.30348 0.30221 0.67622 0.0
H2384 H 0.4588 0.48403 0.17988 0.0
H2385 H 0.44123 0.55979 0.18414 0.0
H2386 H 0.48513 0.49269 0.14592 0.0
H2387 H 0.46869 0.56888 0.15088 0.0
H2388 H 0.49608 0.56993 0.07341 0.0
H2389 H 0.47223 0.56394 0.10936 0.0
H2390 H 0.52252 0.51066 0.13438 0.0
H2391 H 0.54578 0.51576 0.09745 0.0
C2392 C 0.46073 0.50261 0.1736 0.0
C2393 C 0.44789 0.52123 0.18452 0.0
C2394 C 0.47608 0.50765 0.1543 0.0
C2395 C 0.4793 0.53154 0.14573 0.0
C2396 C 0.46642 0.5502 0.15675 0.0
C2397 C 0.45068 0.54505 0.17581 0.0
C2398 C 0.50229 0.55713 0.08669 0.0
C2399 C 0.52275 0.54315 0.08248 0.0
C2400 C 0.48861 0.55379 0.10746 0.0
C2401 C 0.49525 0.53666 0.12477 0.0
C2402 C 0.5165 0.52358 0.12115 0.0
C2403 C 0.52999 0.52664 0.10011 0.0
H2404 H 0.22974 0.70756 0.94653 0.0
H2405 H 0.28909 0.66344 0.92456 0.0
H2406 H 0.22877 0.72613 0.90678 0.0
H2407 H 0.28782 0.68187 0.88441 0.0
H2408 H 0.23931 0.76094 0.83317 0.0
H2409 H 0.25336 0.75094 0.87405 0.0
H2410 H 0.25045 0.67462 0.8549 0.0
H2411 H 0.23613 0.6844 0.81459 0.0
C2412 C 0.24293 0.70225 0.93331 0.0
C2413 C 0.25924 0.68385 0.93835 0.0
C2414 C 0.24252 0.71304 0.91068 0.0
C2415 C 0.25813 0.70529 0.89262 0.0
C2416 C 0.2756 0.68807 0.89815 0.0
C2417 C 0.27633 0.67757 0.92102 0.0
C2418 C 0.2419 0.74209 0.83773 0.0
C2419 C 0.23628 0.72341 0.82092 0.0
C2420 C 0.25001 0.73641 0.86097 0.0
C2421 C 0.25319 0.71206 0.86741 0.0
C2422 C 0.24853 0.69356 0.85025 0.0
C2423 C 0.23998 0.69915 0.8273 0.0
H2424 H 0.0128 0.45052 0.70967 0.0
H2425 H 0.08212 0.4414 0.67574 0.0
H2426 H 0.99191 0.44417 0.67095 0.0
H2427 H 0.0618 0.43689 0.63682 0.0
H2428 H 0.02357 0.43247 0.56692 0.0
H2429 H 0.03731 0.42056 0.60687 0.0
H2430 H 0.98651 0.46946 0.6387 0.0
H2431 H 0.9716 0.47962 0.59857 0.0
C2432 C 0.02347 0.44643 0.69395 0.0
C2433 C 0.04903 0.44657 0.69556 0.0
C2434 C 0.01158 0.44323 0.67166 0.0
C2435 C 0.0251 0.4409 0.65043 0.0
C2436 C 0.05056 0.43855 0.65258 0.0
C2437 C 0.06236 0.44109 0.67499 0.0
C2438 C 0.01518 0.44034 0.58259 0.0
C2439 C 0.99685 0.45724 0.57984 0.0
C2440 C 0.02311 0.43363 0.60551 0.0
C2441 C 0.01345 0.44429 0.62625 0.0
C2442 C 0.99426 0.46048 0.62334 0.0
C2443 C 0.98582 0.46661 0.60034 0.0
H2444 H 0.1884 0.30527 0.44274 0.0
H2445 H 0.24336 0.25215 0.43213 0.0
H2446 H 0.17154 0.29589 0.40261 0.0
H2447 H 0.22643 0.24279 0.39219 0.0
H2448 H 0.199 0.30745 0.32118 0.0
H2449 H 0.195 0.3076 0.36481 0.0
H2450 H 0.19062 0.229 0.36447 0.0
H2451 H 0.19426 0.2289 0.32045 0.0
C2452 C 0.19641 0.29106 0.43218 0.0
C2453 C 0.21755 0.27982 0.44032 0.0
C2454 C 0.18672 0.2857 0.40924 0.0
C2455 C 0.19781 0.2688 0.39426 0.0
C2456 C 0.21738 0.25578 0.40341 0.0
C2457 C 0.22725 0.26133 0.4262 0.0
C2458 C 0.19627 0.29024 0.33034 0.0
C2459 C 0.19723 0.26818 0.31761 0.0
C2460 C 0.1938 0.2903 0.35531 0.0
C2461 C 0.19271 0.26829 0.36801 0.0
C2462 C 0.1915 0.2462 0.35505 0.0
C2463 C 0.1935 0.24615 0.32992 0.0
H2464 H 0.31298 0.37187 0.46443 0.0
H2465 H 0.26755 0.39453 0.52288 0.0
H2466 H 0.33817 0.40915 0.46928 0.0
H2467 H 0.2932 0.43178 0.528 0.0
H2468 H 0.36929 0.48426 0.47089 0.0
H2469 H 0.33429 0.45602 0.46623 0.0
H2470 H 0.33991 0.43733 0.54149 0.0
H2471 H 0.37535 0.46557 0.54627 0.0
C2472 C 0.30818 0.38499 0.47806 0.0
C2473 C 0.28835 0.3803 0.49327 0.0
C2474 C 0.32252 0.40636 0.48078 0.0
C2475 C 0.31756 0.42328 0.49902 0.0
C2476 C 0.29735 0.41897 0.51384 0.0
C2477 C 0.28266 0.39777 0.51079 0.0
C2478 C 0.36279 0.47458 0.48664 0.0
C2479 C 0.37543 0.47673 0.50886 0.0
C2480 C 0.34274 0.45843 0.48391 0.0
C2481 C 0.33475 0.44426 0.50337 0.0
C2482 C 0.34578 0.44811 0.5262 0.0
C2483 C 0.36604 0.46426 0.52894 0.0
H2484 H 0.85515 0.14153 0.52485 0.0
H2485 H 0.82993 0.1069 0.45836 0.0
H2486 H 0.89409 0.12237 0.52103 0.0
H2487 H 0.86929 0.08807 0.45427 0.0
H2488 H 0.93445 0.03805 0.47412 0.0
H2489 H 0.89476 0.05717 0.47297 0.0
H2490 H 0.92961 0.12541 0.49603 0.0
H2491 H 0.9687 0.10632 0.49777 0.0
C2492 C 0.85796 0.12996 0.50932 0.0
C2493 C 0.83946 0.12583 0.49188 0.0
C2494 C 0.88036 0.11906 0.50704 0.0
C2495 C 0.88489 0.10386 0.4872 0.0
C2496 C 0.86632 0.09956 0.46982 0.0
C2497 C 0.84384 0.11046 0.47213 0.0
C2498 C 0.93357 0.05722 0.47852 0.0
C2499 C 0.95454 0.0706 0.48639 0.0
C2500 C 0.9109 0.06817 0.47788 0.0
C2501 C 0.90898 0.09269 0.48494 0.0
C2502 C 0.93032 0.10634 0.49119 0.0
C2503 C 0.95276 0.09541 0.49203 0.0
H2504 H 0.66149 0.04025 0.24824 0.0
H2505 H 0.60206 0.08282 0.22235 0.0
H2506 H 0.69014 0.0744 0.24052 0.0
H2507 H 0.63072 0.11675 0.21457 0.0
H2508 H 0.68848 0.1704 0.19102 0.0
H2509 H 0.66808 0.1299 0.1893 0.0
H2510 H 0.69355 0.11588 0.26173 0.0
H2511 H 0.71353 0.1562 0.26353 0.0
C2512 C 0.65458 0.05678 0.24067 0.0
C2513 C 0.62948 0.05899 0.23619 0.0
C2514 C 0.67099 0.07624 0.2362 0.0
C2515 C 0.66263 0.09809 0.22683 0.0
C2516 C 0.63769 0.09996 0.22146 0.0
C2517 C 0.62125 0.08065 0.22622 0.0
C2518 C 0.69036 0.15829 0.2062 0.0
C2519 C 0.70233 0.16637 0.22748 0.0
C2520 C 0.67858 0.13526 0.20529 0.0
C2521 C 0.67909 0.11994 0.22547 0.0
C2522 C 0.69297 0.12726 0.24588 0.0
C2523 C 0.70433 0.15035 0.24694 0.0
H2524 H 0.67571 0.87942 0.94378 0.0
H2525 H 0.64227 0.83794 0.00127 0.0
H2526 H 0.63928 0.90319 0.93998 0.0
H2527 H 0.60552 0.8617 -0.00283 0.0
H2528 H 0.53569 0.89269 0.96225 0.0
H2529 H 0.57194 0.86812 0.96382 0.0
H2530 H 0.61785 0.93362 0.96747 0.0
H2531 H 0.58172 0.95821 0.96626 0.0
C2532 C 0.66056 0.87535 0.95561 0.0
C2533 C 0.66187 0.85682 0.97288 0.0
C2534 C 0.63974 0.88902 0.95344 0.0
C2535 C 0.61958 0.88421 0.9682 0.0
C2536 C 0.62076 0.86561 0.98541 0.0
C2537 C 0.64182 0.85217 0.98788 0.0
C2538 C 0.55353 0.90185 0.96297 0.0
C2539 C 0.55586 0.9274 0.96408 0.0
C2540 C 0.57423 0.88778 0.96414 0.0
C2541 C 0.59764 0.89899 0.96596 0.0
C2542 C 0.60001 0.92452 0.96603 0.0
C2543 C 0.57934 0.93857 0.96531 0.0
H2544 H 0.36922 0.43049 0.2668 0.0
H2545 H 0.32773 0.47716 0.22074 0.0
H2546 H 0.3364 0.3996 0.26461 0.0
H2547 H 0.29463 0.44578 0.21847 0.0
H2548 H 0.26736 0.35812 0.27625 0.0
H2549 H 0.29266 0.39534 0.27861 0.0
H2550 H 0.28995 0.40125 0.20105 0.0
H2551 H 0.26433 0.36373 0.19854 0.0
C2552 C 0.35303 0.4342 0.25626 0.0
C2553 C 0.35108 0.45627 0.24393 0.0
C2554 C 0.33415 0.41655 0.25514 0.0
C2555 C 0.31292 0.4204 0.24151 0.0
C2556 C 0.31084 0.44242 0.2291 0.0
C2557 C 0.3297 0.46034 0.23049 0.0
C2558 C 0.27175 0.36752 0.25966 0.0
C2559 C 0.26424 0.35771 0.23716 0.0
C2560 C 0.28626 0.38883 0.26106 0.0
C2561 C 0.2936 0.40087 0.24 0.0
C2562 C 0.28451 0.39227 0.21756 0.0
C2563 C 0.2699 0.3708 0.21614 0.0
H2564 H 0.26312 0.56813 0.03511 0.0
H2565 H 0.21449 0.56551 0.97327 0.0
H2566 H 0.24487 0.52951 0.0492 0.0
H2567 H 0.19671 0.52705 0.9868 0.0
H2568 H 0.15405 0.47224 0.01187 0.0
H2569 H 0.19581 0.48406 0.00115 0.0
H2570 H 0.20176 0.52996 0.06467 0.0
H2571 H 0.16025 0.51785 0.07531 0.0
C2572 C 0.24937 0.55869 0.02395 0.0
C2573 C 0.23974 0.56988 0.00342 0.0
C2574 C 0.23897 0.53661 0.032 0.0
C2575 C 0.21918 0.52537 0.01931 0.0
C2576 C 0.21202 0.53506 -0.00301 0.0
C2577 C 0.22201 0.55728 0.98928 0.0
C2578 C 0.16496 0.48349 0.02437 0.0
C2579 C 0.15409 0.49443 0.04422 0.0
C2580 C 0.18883 0.49035 0.01819 0.0
C2581 C 0.20172 0.50855 0.03161 0.0
C2582 C 0.1923 0.51598 0.05386 0.0
C2583 C 0.16845 0.50907 0.06003 0.0
H2584 H 0.66407 0.93535 0.23884 0.0
H2585 H 0.67385 0.95918 0.31291 0.0
H2586 H 0.69932 0.91008 0.24294 0.0
H2587 H 0.70931 0.9338 0.31695 0.0
H2588 H 0.77323 0.88215 0.24812 0.0
H2589 H 0.74446 0.91473 0.24882 0.0
H2590 H 0.71699 0.88873 0.31692 0.0
H2591 H 0.74594 0.85608 0.31634 0.0
C2592 C 0.67378 0.93526 0.25598 0.0
C2593 C 0.66613 0.94926 0.27554 0.0
C2594 C 0.69414 0.92096 0.25827 0.0
C2595 C 0.70724 0.92016 0.28021 0.0
C2596 C 0.69957 0.93407 0.29984 0.0
C2597 C 0.6793 0.94861 0.29748 0.0
C2598 C 0.76155 0.88376 0.26361 0.0
C2599 C 0.76159 0.86626 0.28198 0.0
C2600 C 0.74494 0.90232 0.26389 0.0
C2601 C 0.72806 0.90386 0.28259 0.0
C2602 C 0.72974 0.88793 0.30222 0.0
C2603 C 0.7464 0.86927 0.30193 0.0
H2604 H 0.86186 0.09022 0.75365 0.0
H2605 H 0.86518 0.08597 0.83143 0.0
H2606 H 0.84172 0.12902 0.75686 0.0
H2607 H 0.84527 0.12472 0.83452 0.0
H2608 H 0.78682 0.18748 0.77302 0.0
H2609 H 0.80199 0.14637 0.7724 0.0
H2610 H 0.85865 0.16835 0.8237 0.0
H2611 H 0.84367 0.2096 0.82427 0.0
C2612 C 0.85809 0.09743 0.77139 0.0
C2613 C 0.86514 0.08504 0.79226 0.0
C2614 C 0.84649 0.11957 0.77322 0.0
C2615 C 0.84203 0.12988 0.79595 0.0
C2616 C 0.84866 0.11726 0.81679 0.0
C2617 C 0.85993 0.095 0.81497 0.0
C2618 C 0.80229 0.18351 0.78447 0.0
C2619 C 0.81409 0.20188 0.79866 0.0
C2620 C 0.81106 0.16 0.78395 0.0
C2621 C 0.83156 0.15425 0.79787 0.0
C2622 C 0.84272 0.17228 0.81287 0.0
C2623 C 0.83417 0.1959 0.81315 0.0
loop_
_geom_bond_atom_site_label_1
_geom_bond_atom_site_label_2
_geom_bond_distance
_geom_bond_site_symmetry_2
_ccdc_geom_bond_type
Zn0 O3 2.031 . S
Zn0 O5 2.049 . S
Zn0 O10 2.067 . S
Zn1 O2 1.962 . S
Zn1 O4 1.986 . S
Zn1 O6 1.996 1_655 S
Zn1 O9 1.943 1_655 S
O2 Zn1 1.962 . S
O2 C7 1.254 1_655 S
O3 Zn0 2.031 . S
O3 C7 1.269 . S
O4 Zn1 1.986 . S
O4 C11 1.262 . S
O5 Zn0 2.049 . S
O5 C13 1.260 . S
O6 Zn1 1.996 1_455 S
O6 C13 1.257 . S
C7 O2 1.254 1_455 S
C7 O3 1.269 . S
C8 O9 1.249 . S
C8 O10 1.270 . S
O9 Zn1 1.943 1_455 S
O9 C8 1.249 . S
O10 Zn0 2.067 . S
O10 C8 1.270 . S
C11 O4 1.262 . S
C11 O12 1.232 . S
O12 C11 1.232 . S
C13 O5 1.260 . S
C13 O6 1.257 . S
Zn14 O17 2.031 . S
Zn14 O19 2.049 . S
Zn14 O24 2.067 . S
Zn15 O16 1.962 . S
Zn15 O18 1.986 . S
Zn15 O20 1.996 . S
Zn15 O23 1.943 1_455 S
O16 Zn15 1.962 . S
O16 C21 1.254 . S
O17 Zn14 2.031 . S
O17 C21 1.269 1_655 S
O18 Zn15 1.986 . S
O18 C25 1.262 . S
O19 Zn14 2.049 . S
O19 C27 1.261 . S
O20 Zn15 1.996 . S
O20 C27 1.257 1_455 S
C21 O16 1.254 . S
C21 O17 1.269 1_455 S
C22 O23 1.249 . S
C22 O24 1.270 . S
O23 Zn15 1.943 1_655 S
O23 C22 1.249 . S
O24 Zn14 2.067 . S
O24 C22 1.270 . S
C25 O18 1.262 . S
C25 O26 1.232 . S
O26 C25 1.232 . S
C27 O19 1.261 . S
C27 O20 1.257 1_655 S
Zn28 O31 2.031 . S
Zn28 O33 2.049 . S
Zn28 O38 2.067 . S
Zn29 O30 1.962 . S
Zn29 O32 1.986 . S
Zn29 O34 1.996 . S
Zn29 O37 1.943 . S
O30 Zn29 1.962 . S
O30 C35 1.254 . S
O31 Zn28 2.031 . S
O31 C35 1.269 . S
O32 Zn29 1.986 . S
O32 C39 1.262 . S
O33 Zn28 2.049 . S
O33 C41 1.260 . S
O34 Zn29 1.996 . S
O34 C41 1.257 . S
C35 O30 1.254 . S
C35 O31 1.269 . S
C36 O37 1.249 . S
C36 O38 1.270 . S
O37 Zn29 1.943 . S
O37 C36 1.249 . S
O38 Zn28 2.067 . S
O38 C36 1.270 . S
C39 O32 1.262 . S
C39 O40 1.232 . S
O40 C39 1.232 . S
C41 O33 1.260 . S
C41 O34 1.257 . S
Zn42 O45 2.031 . S
Zn42 O47 2.049 . S
Zn42 O52 2.067 . S
Zn43 O44 1.962 . S
Zn43 O46 1.986 . S
Zn43 O48 1.996 . S
Zn43 O51 1.943 . S
O44 Zn43 1.962 . S
O44 C49 1.254 . S
O45 Zn42 2.031 . S
O45 C49 1.269 . S
O46 Zn43 1.986 . S
O46 C53 1.262 . S
O47 Zn42 2.049 . S
O47 C55 1.260 . S
O48 Zn43 1.996 . S
O48 C55 1.257 . S
C49 O44 1.254 . S
C49 O45 1.269 . S
C50 O51 1.249 . S
C50 O52 1.270 . S
O51 Zn43 1.943 . S
O51 C50 1.249 . S
O52 Zn42 2.067 . S
O52 C50 1.270 . S
C53 O46 1.262 . S
C53 O54 1.232 . S
O54 C53 1.232 . S
C55 O47 1.260 . S
C55 O48 1.257 . S
Zn56 O59 2.031 . S
Zn56 O61 2.049 . S
Zn56 O66 2.067 . S
Zn57 O58 1.962 . S
Zn57 O60 1.986 1_545 S
Zn57 O62 1.996 . S
Zn57 O65 1.943 . S
O58 Zn57 1.962 . S
O58 C63 1.254 . S
O59 Zn56 2.031 . S
O59 C63 1.269 . S
O60 Zn57 1.986 1_565 S
O60 C67 1.262 . S
O61 Zn56 2.049 . S
O61 C69 1.260 . S
O62 Zn57 1.996 . S
O62 C69 1.257 . S
C63 O58 1.254 . S
C63 O59 1.269 . S
C64 O65 1.249 . S
C64 O66 1.270 . S
O65 Zn57 1.943 . S
O65 C64 1.249 . S
O66 Zn56 2.067 . S
O66 C64 1.270 . S
C67 O60 1.262 . S
C67 O68 1.232 . S
O68 C67 1.232 . S
C69 O61 1.260 . S
C69 O62 1.257 . S
Zn70 O73 2.031 . S
Zn70 O75 2.049 . S
Zn70 O80 2.067 . S
Zn71 O72 1.962 . S
Zn71 O74 1.986 . S
Zn71 O76 1.996 . S
Zn71 O79 1.943 . S
O72 Zn71 1.962 . S
O72 C77 1.254 . S
O73 Zn70 2.031 . S
O73 C77 1.269 . S
O74 Zn71 1.986 . S
O74 C81 1.262 . S
O75 Zn70 2.049 . S
O75 C83 1.260 . S
O76 Zn71 1.996 . S
O76 C83 1.257 . S
C77 O72 1.254 . S
C77 O73 1.269 . S
C78 O79 1.249 . S
C78 O80 1.270 . S
O79 Zn71 1.943 . S
O79 C78 1.249 . S
O80 Zn70 2.067 . S
O80 C78 1.270 . S
C81 O74 1.262 . S
C81 O82 1.232 . S
O82 C81 1.232 . S
C83 O75 1.260 . S
C83 O76 1.257 . S
Zn84 O87 2.031 . S
Zn84 O89 2.049 . S
Zn84 O94 2.067 . S
Zn85 O86 1.962 . S
Zn85 O88 1.986 . S
Zn85 O90 1.996 . S
Zn85 O93 1.943 1_545 S
O86 Zn85 1.962 . S
O86 C91 1.254 1_545 S
O87 Zn84 2.031 . S
O87 C91 1.269 . S
O88 Zn85 1.986 . S
O88 C95 1.262 . S
O89 Zn84 2.049 . S
O89 C97 1.260 . S
O90 Zn85 1.996 . S
O90 C97 1.257 1_545 S
C91 O86 1.254 1_565 S
C91 O87 1.269 . S
C92 O93 1.249 . S
C92 O94 1.270 . S
O93 Zn85 1.943 1_565 S
O93 C92 1.249 . S
O94 Zn84 2.067 . S
O94 C92 1.270 . S
C95 O88 1.262 . S
C95 O96 1.232 . S
O96 C95 1.232 . S
C97 O89 1.260 . S
C97 O90 1.257 1_565 S
Zn98 O101 2.031 1_554 S
Zn98 O103 2.049 . S
Zn98 O108 2.067 . S
Zn99 O100 1.962 1_554 S
Zn99 O102 1.986 . S
Zn99 O104 1.996 . S
Zn99 O107 1.943 . S
O100 Zn99 1.962 1_556 S
O100 C105 1.254 . S
O101 Zn98 2.031 1_556 S
O101 C105 1.269 . S
O102 Zn99 1.986 . S
O102 C109 1.262 . S
O103 Zn98 2.049 . S
O103 C111 1.260 . S
O104 Zn99 1.996 . S
O104 C111 1.257 . S
C105 O100 1.254 . S
C105 O101 1.269 . S
C106 O107 1.249 . S
C106 O108 1.270 . S
O107 Zn99 1.943 . S
O107 C106 1.249 . S
O108 Zn98 2.067 . S
O108 C106 1.270 . S
C109 O102 1.262 . S
C109 O110 1.232 1_554 S
O110 C109 1.232 1_556 S
C111 O103 1.260 . S
C111 O104 1.257 . S
Zn112 O115 2.031 1_554 S
Zn112 O117 2.049 . S
Zn112 O122 2.067 . S
Zn113 O114 1.962 1_554 S
Zn113 O116 1.986 . S
Zn113 O118 1.996 . S
Zn113 O121 1.943 . S
O114 Zn113 1.962 1_556 S
O114 C119 1.254 . S
O115 Zn112 2.031 1_556 S
O115 C119 1.269 . S
O116 Zn113 1.986 . S
O116 C123 1.262 . S
O117 Zn112 2.049 . S
O117 C125 1.260 . S
O118 Zn113 1.996 . S
O118 C125 1.257 . S
C119 O114 1.254 . S
C119 O115 1.269 . S
C120 O121 1.249 . S
C120 O122 1.270 . S
O121 Zn113 1.943 . S
O121 C120 1.249 . S
O122 Zn112 2.067 . S
O122 C120 1.270 . S
C123 O116 1.262 . S
C123 O124 1.232 1_554 S
O124 C123 1.232 1_556 S
C125 O117 1.260 . S
C125 O118 1.257 . S
Zn126 O129 2.031 . S
Zn126 O131 2.049 . S
Zn126 O136 2.067 . S
Zn127 O128 1.962 . S
Zn127 O130 1.986 . S
Zn127 O132 1.996 . S
Zn127 O135 1.943 . S
O128 Zn127 1.962 . S
O128 C133 1.254 . S
O129 Zn126 2.031 . S
O129 C133 1.269 . S
O130 Zn127 1.986 . S
O130 C137 1.262 . S
O131 Zn126 2.049 . S
O131 C139 1.260 . S
O132 Zn127 1.996 . S
O132 C139 1.257 . S
C133 O128 1.254 . S
C133 O129 1.269 . S
C134 O135 1.249 . S
C134 O136 1.270 . S
O135 Zn127 1.943 . S
O135 C134 1.249 . S
O136 Zn126 2.067 . S
O136 C134 1.270 . S
C137 O130 1.262 . S
C137 O138 1.232 . S
O138 C137 1.232 . S
C139 O131 1.260 . S
C139 O132 1.257 . S
Zn140 O143 2.031 . S
Zn140 O145 2.049 . S
Zn140 O150 2.067 . S
Zn141 O142 1.962 . S
Zn141 O144 1.986 . S
Zn141 O146 1.996 . S
Zn141 O149 1.943 . S
O142 Zn141 1.962 . S
O142 C147 1.254 . S
O143 Zn140 2.031 . S
O143 C147 1.269 . S
O144 Zn141 1.986 . S
O144 C151 1.262 . S
O145 Zn140 2.049 . S
O145 C153 1.260 . S
O146 Zn141 1.996 . S
O146 C153 1.257 . S
C147 O142 1.254 . S
C147 O143 1.269 . S
C148 O149 1.249 . S
C148 O150 1.270 . S
O149 Zn141 1.943 . S
O149 C148 1.249 . S
O150 Zn140 2.067 . S
O150 C148 1.270 . S
C151 O144 1.262 . S
C151 O152 1.232 . S
O152 C151 1.232 . S
C153 O145 1.260 . S
C153 O146 1.257 . S
Zn154 O157 2.031 . S
Zn154 O159 2.049 . S
Zn154 O164 2.067 . S
Zn155 O156 1.962 . S
Zn155 O158 1.986 . S
Zn155 O160 1.996 . S
Zn155 O163 1.943 . S
O156 Zn155 1.962 . S
O156 C161 1.254 . S
O157 Zn154 2.031 . S
O157 C161 1.269 . S
O158 Zn155 1.986 . S
O158 C165 1.262 . S
O159 Zn154 2.049 . S
O159 C167 1.260 . S
O160 Zn155 1.996 . S
O160 C167 1.257 . S
C161 O156 1.254 . S
C161 O157 1.269 . S
C162 O163 1.249 . S
C162 O164 1.270 . S
O163 Zn155 1.943 . S
O163 C162 1.249 . S
O164 Zn154 2.067 . S
O164 C162 1.270 . S
C165 O158 1.262 . S
C165 O166 1.232 . S
O166 C165 1.232 . S
C167 O159 1.260 . S
C167 O160 1.257 . S
Zn168 O171 2.031 . S
Zn168 O173 2.049 . S
Zn168 O178 2.067 . S
Zn169 O170 1.962 . S
Zn169 O172 1.986 . S
Zn169 O174 1.996 . S
Zn169 O177 1.943 1_455 S
O170 Zn169 1.962 . S
O170 C175 1.254 . S
O171 Zn168 2.031 . S
O171 C175 1.269 1_655 S
O172 Zn169 1.986 . S
O172 C179 1.262 . S
O173 Zn168 2.049 . S
O173 C181 1.223 1_655 S
O174 Zn169 1.996 . S
O174 C181 1.276 . S
C175 O170 1.254 . S
C175 O171 1.269 1_455 S
C176 O177 1.249 . S
C176 O178 1.270 . S
O177 Zn169 1.943 1_655 S
O177 C176 1.249 . S
O178 Zn168 2.067 . S
O178 C176 1.270 . S
C179 O172 1.262 . S
C179 O180 1.232 . S
O180 C179 1.232 . S
C181 O173 1.223 1_455 S
C181 O174 1.276 . S
Zn182 O185 2.031 . S
Zn182 O187 2.049 . S
Zn182 O192 2.067 . S
Zn183 O184 1.962 . S
Zn183 O186 1.986 . S
Zn183 O188 1.996 1_655 S
Zn183 O191 1.943 1_655 S
O184 Zn183 1.962 . S
O184 C189 1.254 1_655 S
O185 Zn182 2.031 . S
O185 C189 1.269 . S
O186 Zn183 1.986 . S
O186 C193 1.262 . S
O187 Zn182 2.049 . S
O187 C195 1.260 . S
O188 Zn183 1.996 1_455 S
O188 C195 1.257 . S
C189 O184 1.254 1_455 S
C189 O185 1.269 . S
C190 O191 1.249 . S
C190 O192 1.270 . S
O191 Zn183 1.943 1_455 S
O191 C190 1.249 . S
O192 Zn182 2.067 . S
O192 C190 1.270 . S
C193 O186 1.262 . S
C193 O194 1.232 . S
O194 C193 1.232 . S
C195 O187 1.260 . S
C195 O188 1.257 . S
Zn196 O199 2.031 . S
Zn196 O201 2.049 . S
Zn196 O206 2.067 . S
Zn197 O198 1.962 . S
Zn197 O200 1.986 . S
Zn197 O202 1.996 . S
Zn197 O205 1.943 . S
O198 Zn197 1.962 . S
O198 C203 1.254 . S
O199 Zn196 2.031 . S
O199 C203 1.269 . S
O200 Zn197 1.986 . S
O200 C207 1.262 . S
O201 Zn196 2.049 . S
O201 C209 1.260 . S
O202 Zn197 1.996 . S
O202 C209 1.257 . S
C203 O198 1.254 . S
C203 O199 1.269 . S
C204 O205 1.249 . S
C204 O206 1.270 . S
O205 Zn197 1.943 . S
O205 C204 1.249 . S
O206 Zn196 2.067 . S
O206 C204 1.270 . S
C207 O200 1.262 . S
C207 O208 1.232 . S
O208 C207 1.232 . S
C209 O201 1.260 . S
C209 O202 1.257 . S
Zn210 O213 2.031 . S
Zn210 O215 2.049 . S
Zn210 O220 2.067 . S
Zn211 O212 1.962 . S
Zn211 O214 1.986 . S
Zn211 O216 1.996 . S
Zn211 O219 1.943 . S
O212 Zn211 1.962 . S
O212 C217 1.254 . S
O213 Zn210 2.031 . S
O213 C217 1.269 . S
O214 Zn211 1.986 . S
O214 C221 1.262 . S
O215 Zn210 2.049 . S
O215 C223 1.260 . S
O216 Zn211 1.996 . S
O216 C223 1.257 . S
C217 O212 1.254 . S
C217 O213 1.269 . S
C218 O219 1.249 . S
C218 O220 1.270 . S
O219 Zn211 1.943 . S
O219 C218 1.249 . S
O220 Zn210 2.067 . S
O220 C218 1.270 . S
C221 O214 1.262 . S
C221 O222 1.232 . S
O222 C221 1.232 . S
C223 O215 1.260 . S
C223 O216 1.257 . S
Zn224 O227 2.031 . S
Zn224 O229 2.049 . S
Zn224 O234 2.067 . S
Zn225 O226 1.962 . S
Zn225 O228 1.986 . S
Zn225 O230 1.996 . S
Zn225 O233 1.943 . S
O226 Zn225 1.962 . S
O226 C231 1.254 . S
O227 Zn224 2.031 . S
O227 C231 1.269 1_565 S
O228 Zn225 1.986 . S
O228 C235 1.262 . S
O229 Zn224 2.049 . S
O229 C237 1.260 1_565 S
O230 Zn225 1.996 . S
O230 C237 1.257 . S
C231 O226 1.254 . S
C231 O227 1.269 1_545 S
C232 O233 1.249 1_565 S
C232 O234 1.270 . S
O233 Zn225 1.943 . S
O233 C232 1.249 1_545 S
O234 Zn224 2.067 . S
O234 C232 1.270 . S
C235 O228 1.262 . S
C235 O236 1.232 . S
O236 C235 1.232 . S
C237 O229 1.260 1_545 S
C237 O230 1.257 . S
Zn238 O241 2.031 . S
Zn238 O243 2.049 . S
Zn238 O248 2.067 . S
Zn239 O240 1.962 . S
Zn239 O242 1.986 . S
Zn239 O244 1.996 . S
Zn239 O247 1.943 . S
O240 Zn239 1.962 . S
O240 C245 1.254 . S
O241 Zn238 2.031 . S
O241 C245 1.269 . S
O242 Zn239 1.986 . S
O242 C249 1.262 . S
O243 Zn238 2.049 . S
O243 C251 1.260 . S
O244 Zn239 1.996 . S
O244 C251 1.257 . S
C245 O240 1.254 . S
C245 O241 1.269 . S
C246 O247 1.249 . S
C246 O248 1.270 . S
O247 Zn239 1.943 . S
O247 C246 1.249 . S
O248 Zn238 2.067 . S
O248 C246 1.270 . S
C249 O242 1.262 . S
C249 O250 1.232 . S
O250 C249 1.232 . S
C251 O243 1.260 . S
C251 O244 1.257 . S
Zn252 O255 2.031 . S
Zn252 O257 2.049 . S
Zn252 O262 2.067 . S
Zn253 O254 1.962 . S
Zn253 O256 1.986 . S
Zn253 O258 1.996 . S
Zn253 O261 1.943 1_565 S
O254 Zn253 1.962 . S
O254 C259 1.254 1_565 S
O255 Zn252 2.031 . S
O255 C259 1.269 . S
O256 Zn253 1.986 . S
O256 C263 1.262 . S
O257 Zn252 2.049 . S
O257 C265 1.260 . S
O258 Zn253 1.996 . S
O258 C265 1.257 1_565 S
C259 O254 1.254 1_545 S
C259 O255 1.269 . S
C260 O261 1.249 . S
C260 O262 1.270 . S
O261 Zn253 1.943 1_545 S
O261 C260 1.249 . S
O262 Zn252 2.067 . S
O262 C260 1.270 . S
C263 O256 1.262 . S
C263 O264 1.232 . S
O264 C263 1.232 . S
C265 O257 1.260 . S
C265 O258 1.257 1_545 S
Zn266 O269 2.031 1_554 S
Zn266 O271 2.049 . S
Zn266 O276 2.067 . S
Zn267 O268 1.962 1_554 S
Zn267 O270 1.986 . S
Zn267 O272 1.996 . S
Zn267 O275 1.943 . S
O268 Zn267 1.962 1_556 S
O268 C273 1.254 . S
O269 Zn266 2.031 1_556 S
O269 C273 1.269 . S
O270 Zn267 1.986 . S
O270 C277 1.262 . S
O271 Zn266 2.049 . S
O271 C279 1.260 . S
O272 Zn267 1.996 . S
O272 C279 1.257 . S
C273 O268 1.254 . S
C273 O269 1.269 . S
C274 O275 1.249 . S
C274 O276 1.270 . S
O275 Zn267 1.943 . S
O275 C274 1.249 . S
O276 Zn266 2.067 . S
O276 C274 1.270 . S
C277 O270 1.262 . S
C277 O278 1.232 1_554 S
O278 C277 1.232 1_556 S
C279 O271 1.260 . S
C279 O272 1.257 . S
Zn280 O283 2.031 1_554 S
Zn280 O285 2.049 . S
Zn280 O290 2.067 . S
Zn281 O282 1.965 . S
Zn281 O284 1.984 1_556 S
Zn281 O286 1.993 1_556 S
Zn281 O289 1.943 1_556 S
O282 Zn281 1.965 . S
O282 C287 1.254 . S
O283 Zn280 2.031 1_556 S
O283 C287 1.269 . S
O284 Zn281 1.984 1_554 S
O284 C291 1.277 . S
O285 Zn280 2.049 . S
O285 C293 1.260 . S
O286 Zn281 1.993 1_554 S
O286 C293 1.257 . S
C287 O282 1.254 . S
C287 O283 1.269 . S
C288 O289 1.249 . S
C288 O290 1.270 . S
O289 Zn281 1.943 1_554 S
O289 C288 1.249 . S
O290 Zn280 2.067 . S
O290 C288 1.270 . S
C291 O284 1.277 . S
C291 O292 1.214 1_554 S
O292 C291 1.214 1_556 S
C293 O285 1.260 . S
C293 O286 1.257 . S
Zn294 O297 2.031 . S
Zn294 O299 2.049 . S
Zn294 O304 2.067 . S
Zn295 O296 1.962 . S
Zn295 O298 1.986 . S
Zn295 O300 1.996 . S
Zn295 O303 1.943 . S
O296 Zn295 1.962 . S
O296 C301 1.254 . S
O297 Zn294 2.031 . S
O297 C301 1.269 . S
O298 Zn295 1.986 . S
O298 C305 1.262 . S
O299 Zn294 2.049 . S
O299 C307 1.260 . S
O300 Zn295 1.996 . S
O300 C307 1.257 . S
C301 O296 1.254 . S
C301 O297 1.269 . S
C302 O303 1.249 . S
C302 O304 1.270 . S
O303 Zn295 1.943 . S
O303 C302 1.249 . S
O304 Zn294 2.067 . S
O304 C302 1.270 . S
C305 O298 1.262 . S
C305 O306 1.232 . S
O306 C305 1.232 . S
C307 O299 1.260 . S
C307 O300 1.257 . S
Zn308 O311 2.031 . S
Zn308 O313 2.049 . S
Zn308 O318 2.067 . S
Zn309 O310 1.962 . S
Zn309 O312 1.986 . S
Zn309 O314 1.996 . S
Zn309 O317 1.943 . S
O310 Zn309 1.962 . S
O310 C315 1.254 . S
O311 Zn308 2.031 . S
O311 C315 1.269 . S
O312 Zn309 1.986 . S
O312 C319 1.262 . S
O313 Zn308 2.049 . S
O313 C321 1.260 . S
O314 Zn309 1.996 . S
O314 C321 1.257 . S
C315 O310 1.254 . S
C315 O311 1.269 . S
C316 O317 1.249 . S
C316 O318 1.270 . S
O317 Zn309 1.943 . S
O317 C316 1.249 . S
O318 Zn308 2.067 . S
O318 C316 1.270 . S
C319 O312 1.262 . S
C319 O320 1.232 . S
O320 C319 1.232 . S
C321 O313 1.260 . S
C321 O314 1.257 . S
Zn322 O325 2.031 . S
Zn322 O327 2.049 . S
Zn322 O332 2.067 . S
Zn323 O324 1.962 . S
Zn323 O326 1.986 . S
Zn323 O328 1.996 . S
Zn323 O331 1.943 . S
O324 Zn323 1.962 . S
O324 C329 1.254 . S
O325 Zn322 2.031 . S
O325 C329 1.269 . S
O326 Zn323 1.986 . S
O326 C333 1.262 . S
O327 Zn322 2.049 . S
O327 C335 1.260 . S
O328 Zn323 1.996 . S
O328 C335 1.257 . S
C329 O324 1.254 . S
C329 O325 1.269 . S
C330 O331 1.249 . S
C330 O332 1.270 . S
O331 Zn323 1.943 . S
O331 C330 1.249 . S
O332 Zn322 2.067 . S
O332 C330 1.270 . S
C333 O326 1.262 . S
C333 O334 1.232 . S
O334 C333 1.232 . S
C335 O327 1.260 . S
C335 O328 1.257 . S
O336 Zn337 1.953 . S
O336 C352 1.225 1_455 S
Zn337 O336 1.953 . S
Zn337 O338 1.949 . S
Zn337 O344 1.919 1_554 S
Zn337 O349 1.924 1_454 S
O338 Zn337 1.949 . S
O338 Zn339 1.923 1_545 S
O338 Zn340 1.950 1_455 S
O338 Zn341 1.945 1_444 S
Zn339 O338 1.923 1_565 S
Zn339 O342 1.933 . S
Zn339 O345 1.941 1_565 S
Zn339 O346 1.965 . S
Zn340 O338 1.950 1_655 S
Zn340 O347 1.938 . S
Zn340 O348 1.906 1_545 S
Zn340 O358 1.953 . S
Zn341 O338 1.945 1_666 S
Zn341 O343 1.932 . S
Zn341 O350 1.977 1_556 S
Zn341 O351 1.910 1_565 S
O342 Zn339 1.933 . S
O342 C353 1.226 1_554 S
O343 Zn341 1.932 . S
O343 C353 1.307 1_655 S
O344 Zn337 1.919 1_556 S
O344 C355 1.253 1_556 S
O345 Zn339 1.941 1_545 S
O345 C355 1.283 . S
O346 Zn339 1.965 . S
O346 C354 1.301 . S
O347 Zn340 1.938 . S
O347 C354 1.248 1_645 S
O348 Zn340 1.906 1_565 S
O348 C356 1.304 . S
O349 Zn337 1.924 1_656 S
O349 C357 1.311 . S
O350 Zn341 1.977 1_554 S
O350 C356 1.272 . S
O351 Zn341 1.910 1_545 S
O351 C357 1.231 . S
C352 O336 1.225 1_655 S
C352 O358 1.298 . S
C353 O342 1.226 1_556 S
C353 O343 1.307 1_455 S
C354 O346 1.301 . S
C354 O347 1.248 1_465 S
C355 O344 1.253 1_554 S
C355 O345 1.283 . S
C356 O348 1.304 . S
C356 O350 1.272 . S
C357 O349 1.311 . S
C357 O351 1.231 . S
O358 Zn340 1.953 . S
O358 C352 1.298 . S
O359 Zn360 1.953 . S
O359 C375 1.225 . S
Zn360 O359 1.953 . S
Zn360 O361 1.949 . S
Zn360 O367 1.919 . S
Zn360 O372 1.924 . S
O361 Zn360 1.949 . S
O361 Zn362 1.923 . S
O361 Zn363 1.950 . S
O361 Zn364 1.945 . S
Zn362 O361 1.923 . S
Zn362 O365 1.933 . S
Zn362 O368 1.941 . S
Zn362 O369 1.965 . S
Zn363 O361 1.950 . S
Zn363 O370 1.938 . S
Zn363 O371 1.906 . S
Zn363 O381 1.953 . S
Zn364 O361 1.945 . S
Zn364 O366 1.932 . S
Zn364 O373 1.977 . S
Zn364 O374 1.910 . S
O365 Zn362 1.933 . S
O365 C376 1.226 . S
O366 Zn364 1.932 . S
O366 C376 1.307 . S
O367 Zn360 1.919 . S
O367 C378 1.253 . S
O368 Zn362 1.941 . S
O368 C378 1.283 . S
O369 Zn362 1.965 . S
O369 C377 1.303 . S
O370 Zn363 1.938 . S
O370 C377 1.247 . S
O371 Zn363 1.906 . S
O371 C379 1.304 . S
O372 Zn360 1.924 . S
O372 C380 1.311 . S
O373 Zn364 1.977 . S
O373 C379 1.272 . S
O374 Zn364 1.910 . S
O374 C380 1.231 . S
C375 O359 1.225 . S
C375 O381 1.298 . S
C376 O365 1.226 . S
C376 O366 1.307 . S
C377 O369 1.303 . S
C377 O370 1.247 . S
C378 O367 1.253 . S
C378 O368 1.283 . S
C379 O371 1.304 . S
C379 O373 1.272 . S
C380 O372 1.311 . S
C380 O374 1.231 . S
O381 Zn363 1.953 . S
O381 C375 1.298 . S
O382 Zn383 1.953 . S
O382 C398 1.225 . S
Zn383 O382 1.953 . S
Zn383 O384 1.949 1_565 S
Zn383 O390 1.919 . S
Zn383 O395 1.924 . S
O384 Zn383 1.949 1_545 S
O384 Zn385 1.923 . S
O384 Zn386 1.950 . S
O384 Zn387 1.945 . S
Zn385 O384 1.923 . S
Zn385 O388 1.933 . S
Zn385 O391 1.941 . S
Zn385 O392 1.965 . S
Zn386 O384 1.950 . S
Zn386 O393 1.938 . S
Zn386 O394 1.906 . S
Zn386 O404 1.953 1_545 S
Zn387 O384 1.945 . S
Zn387 O389 1.932 . S
Zn387 O396 1.977 . S
Zn387 O397 1.910 . S
O388 Zn385 1.933 . S
O388 C399 1.226 . S
O389 Zn387 1.932 . S
O389 C399 1.307 . S
O390 Zn383 1.919 . S
O390 C401 1.217 1_565 S
O391 Zn385 1.941 . S
O391 C401 1.317 . S
O392 Zn385 1.965 . S
O392 C400 1.303 . S
O393 Zn386 1.938 . S
O393 C400 1.247 . S
O394 Zn386 1.906 . S
O394 C402 1.304 . S
O395 Zn383 1.924 . S
O395 C403 1.311 . S
O396 Zn387 1.977 . S
O396 C402 1.272 . S
O397 Zn387 1.910 . S
O397 C403 1.231 1_545 S
C398 O382 1.225 . S
C398 O404 1.298 . S
C399 O388 1.226 . S
C399 O389 1.307 . S
C400 O392 1.303 . S
C400 O393 1.247 . S
C401 O390 1.217 1_545 S
C401 O391 1.317 . S
C402 O394 1.304 . S
C402 O396 1.272 . S
C403 O395 1.311 . S
C403 O397 1.231 1_565 S
O404 Zn386 1.953 1_565 S
O404 C398 1.298 . S
O405 Zn406 1.953 . S
O405 C421 1.225 . S
Zn406 O405 1.953 . S
Zn406 O407 1.949 . S
Zn406 O413 1.919 . S
Zn406 O418 1.924 . S
O407 Zn406 1.949 . S
O407 Zn408 1.923 . S
O407 Zn409 1.950 . S
O407 Zn410 1.945 . S
Zn408 O407 1.923 . S
Zn408 O411 1.933 . S
Zn408 O414 1.941 . S
Zn408 O415 1.965 . S
Zn409 O407 1.950 . S
Zn409 O416 1.938 . S
Zn409 O417 1.906 . S
Zn409 O427 1.953 . S
Zn410 O407 1.945 . S
Zn410 O412 1.932 . S
Zn410 O419 1.977 . S
Zn410 O420 1.910 . S
O411 Zn408 1.933 . S
O411 C422 1.226 . S
O412 Zn410 1.932 . S
O412 C422 1.307 . S
O413 Zn406 1.919 . S
O413 C424 1.253 . S
O414 Zn408 1.941 . S
O414 C424 1.283 . S
O415 Zn408 1.965 . S
O415 C423 1.303 . S
O416 Zn409 1.938 . S
O416 C423 1.247 . S
O417 Zn409 1.906 . S
O417 C425 1.304 . S
O418 Zn406 1.924 . S
O418 C426 1.311 . S
O419 Zn410 1.977 . S
O419 C425 1.272 . S
O420 Zn410 1.910 . S
O420 C426 1.231 . S
C421 O405 1.225 . S
C421 O427 1.298 . S
C422 O411 1.226 . S
C422 O412 1.307 . S
C423 O415 1.303 . S
C423 O416 1.247 . S
C424 O413 1.253 . S
C424 O414 1.283 . S
C425 O417 1.304 . S
C425 O419 1.272 . S
C426 O418 1.311 . S
C426 O420 1.231 . S
O427 Zn409 1.953 . S
O427 C421 1.298 . S
O428 Zn429 1.953 1_455 S
O428 C444 1.225 . S
Zn429 O428 1.953 1_655 S
Zn429 O430 1.949 1_655 S
Zn429 O436 1.919 1_545 S
Zn429 O441 1.924 . S
O430 Zn429 1.949 1_455 S
O430 Zn431 1.923 1_545 S
O430 Zn432 1.950 . S
O430 Zn433 1.945 1_455 S
Zn431 O430 1.923 1_565 S
Zn431 O434 1.933 . S
Zn431 O437 1.941 . S
Zn431 O438 1.965 . S
Zn432 O430 1.950 . S
Zn432 O439 1.938 . S
Zn432 O440 1.906 . S
Zn432 O450 1.953 . S
Zn433 O430 1.945 1_655 S
Zn433 O435 1.932 . S
Zn433 O442 1.974 1_655 S
Zn433 O443 1.910 . S
O434 Zn431 1.933 . S
O434 C445 1.226 1_455 S
O435 Zn433 1.932 . S
O435 C445 1.307 1_545 S
O436 Zn429 1.919 1_565 S
O436 C447 1.253 . S
O437 Zn431 1.941 . S
O437 C447 1.283 1_455 S
O438 Zn431 1.965 . S
O438 C446 1.303 . S
O439 Zn432 1.938 . S
O439 C446 1.247 1_545 S
O440 Zn432 1.906 . S
O440 C448 1.304 . S
O441 Zn429 1.924 . S
O441 C449 1.311 . S
O442 Zn433 1.974 1_455 S
O442 C448 1.278 . S
O443 Zn433 1.910 . S
O443 C449 1.231 . S
C444 O428 1.225 . S
C444 O450 1.298 . S
C445 O434 1.226 1_655 S
C445 O435 1.307 1_565 S
C446 O438 1.303 . S
C446 O439 1.247 1_565 S
C447 O436 1.253 . S
C447 O437 1.283 1_655 S
C448 O440 1.304 . S
C448 O442 1.278 . S
C449 O441 1.311 . S
C449 O443 1.231 . S
O450 Zn432 1.953 . S
O450 C444 1.298 . S
O451 Zn452 1.953 . S
O451 C467 1.225 . S
Zn452 O451 1.953 . S
Zn452 O453 1.949 . S
Zn452 O459 1.919 . S
Zn452 O464 1.924 . S
O453 Zn452 1.949 . S
O453 Zn454 1.923 . S
O453 Zn455 1.950 . S
O453 Zn456 1.945 . S
Zn454 O453 1.923 . S
Zn454 O457 1.933 . S
Zn454 O460 1.941 . S
Zn454 O461 1.965 . S
Zn455 O453 1.950 . S
Zn455 O462 1.938 . S
Zn455 O463 1.906 . S
Zn455 O473 1.953 . S
Zn456 O453 1.945 . S
Zn456 O458 1.932 . S
Zn456 O465 1.977 . S
Zn456 O466 1.910 . S
O457 Zn454 1.933 . S
O457 C468 1.226 . S
O458 Zn456 1.932 . S
O458 C468 1.307 . S
O459 Zn452 1.919 . S
O459 C470 1.253 . S
O460 Zn454 1.941 . S
O460 C470 1.283 . S
O461 Zn454 1.965 . S
O461 C469 1.303 . S
O462 Zn455 1.938 . S
O462 C469 1.247 . S
O463 Zn455 1.906 . S
O463 C471 1.304 . S
O464 Zn452 1.924 . S
O464 C472 1.311 . S
O465 Zn456 1.977 . S
O465 C471 1.272 . S
O466 Zn456 1.910 . S
O466 C472 1.231 . S
C467 O451 1.225 . S
C467 O473 1.298 . S
C468 O457 1.226 . S
C468 O458 1.307 . S
C469 O461 1.303 . S
C469 O462 1.247 . S
C470 O459 1.253 . S
C470 O460 1.283 . S
C471 O463 1.304 . S
C471 O465 1.272 . S
C472 O464 1.311 . S
C472 O466 1.231 . S
O473 Zn455 1.953 . S
O473 C467 1.298 . S
O474 Zn475 1.953 . S
O474 C490 1.225 . S
Zn475 O474 1.953 . S
Zn475 O476 1.949 . S
Zn475 O482 1.896 1_545 S
Zn475 O487 1.924 . S
O476 Zn475 1.949 . S
O476 Zn477 1.923 1_544 S
O476 Zn478 1.950 . S
O476 Zn479 1.945 1_554 S
Zn477 O476 1.923 1_566 S
Zn477 O480 1.933 . S
Zn477 O483 1.941 . S
Zn477 O484 1.965 1_556 S
Zn478 O476 1.950 . S
Zn478 O485 1.938 1_545 S
Zn478 O486 1.906 . S
Zn478 O496 1.953 . S
Zn479 O476 1.945 1_556 S
Zn479 O481 1.932 . S
Zn479 O488 1.977 1_556 S
Zn479 O489 1.910 . S
O480 Zn477 1.933 . S
O480 C491 1.226 . S
O481 Zn479 1.932 . S
O481 C491 1.307 1_545 S
O482 Zn475 1.896 1_565 S
O482 C493 1.288 1_554 S
O483 Zn477 1.941 . S
O483 C493 1.283 . S
O484 Zn477 1.965 1_554 S
O484 C492 1.303 . S
O485 Zn478 1.938 1_565 S
O485 C492 1.247 . S
O486 Zn478 1.906 . S
O486 C494 1.304 . S
O487 Zn475 1.924 . S
O487 C495 1.312 . S
O488 Zn479 1.977 1_554 S
O488 C494 1.272 . S
O489 Zn479 1.910 . S
O489 C495 1.230 1_556 S
C490 O474 1.225 . S
C490 O496 1.298 . S
C491 O480 1.226 . S
C491 O481 1.307 1_565 S
C492 O484 1.303 . S
C492 O485 1.247 . S
C493 O482 1.288 1_556 S
C493 O483 1.283 . S
C494 O486 1.304 . S
C494 O488 1.272 . S
C495 O487 1.312 . S
C495 O489 1.230 1_554 S
O496 Zn478 1.953 . S
O496 C490 1.298 . S
O497 Zn498 1.953 . S
O497 C513 1.225 . S
Zn498 O497 1.953 . S
Zn498 O499 1.949 . S
Zn498 O505 1.919 . S
Zn498 O510 1.924 . S
O499 Zn498 1.949 . S
O499 Zn500 1.923 . S
O499 Zn501 1.950 . S
O499 Zn502 1.945 . S
Zn500 O499 1.923 . S
Zn500 O503 1.933 . S
Zn500 O506 1.941 . S
Zn500 O507 1.965 . S
Zn501 O499 1.950 . S
Zn501 O508 1.938 . S
Zn501 O509 1.906 . S
Zn501 O519 1.953 . S
Zn502 O499 1.945 . S
Zn502 O504 1.932 . S
Zn502 O511 1.977 . S
Zn502 O512 1.910 . S
O503 Zn500 1.933 . S
O503 C514 1.226 . S
O504 Zn502 1.932 . S
O504 C514 1.307 . S
O505 Zn498 1.919 . S
O505 C516 1.253 . S
O506 Zn500 1.941 . S
O506 C516 1.283 . S
O507 Zn500 1.965 . S
O507 C515 1.303 . S
O508 Zn501 1.938 . S
O508 C515 1.247 . S
O509 Zn501 1.906 . S
O509 C517 1.304 . S
O510 Zn498 1.924 . S
O510 C518 1.311 . S
O511 Zn502 1.977 . S
O511 C517 1.272 . S
O512 Zn502 1.910 . S
O512 C518 1.231 . S
C513 O497 1.225 . S
C513 O519 1.298 . S
C514 O503 1.226 . S
C514 O504 1.307 . S
C515 O507 1.303 . S
C515 O508 1.247 . S
C516 O505 1.253 . S
C516 O506 1.283 . S
C517 O509 1.304 . S
C517 O511 1.272 . S
C518 O510 1.311 . S
C518 O512 1.231 . S
O519 Zn501 1.953 . S
O519 C513 1.298 . S
O520 Zn521 1.953 . S
O520 C536 1.225 . S
Zn521 O520 1.953 . S
Zn521 O522 1.949 1_556 S
Zn521 O528 1.919 . S
Zn521 O533 1.924 . S
O522 Zn521 1.949 1_554 S
O522 Zn523 1.923 . S
O522 Zn524 1.950 . S
O522 Zn525 1.945 . S
Zn523 O522 1.923 . S
Zn523 O526 1.933 . S
Zn523 O529 1.941 . S
Zn523 O530 1.965 . S
Zn524 O522 1.950 . S
Zn524 O531 1.938 . S
Zn524 O532 1.906 . S
Zn524 O542 1.953 1_554 S
Zn525 O522 1.945 . S
Zn525 O527 1.932 . S
Zn525 O534 1.977 . S
Zn525 O535 1.910 . S
O526 Zn523 1.933 . S
O526 C537 1.226 . S
O527 Zn525 1.932 . S
O527 C537 1.307 . S
O528 Zn521 1.919 . S
O528 C539 1.253 1_556 S
O529 Zn523 1.941 . S
O529 C539 1.283 . S
O530 Zn523 1.965 . S
O530 C538 1.303 . S
O531 Zn524 1.938 . S
O531 C538 1.247 . S
O532 Zn524 1.906 . S
O532 C540 1.304 . S
O533 Zn521 1.924 . S
O533 C541 1.311 . S
O534 Zn525 1.977 . S
O534 C540 1.272 . S
O535 Zn525 1.910 . S
O535 C541 1.231 1_554 S
C536 O520 1.225 . S
C536 O542 1.298 . S
C537 O526 1.226 . S
C537 O527 1.307 . S
C538 O530 1.303 . S
C538 O531 1.247 . S
C539 O528 1.253 1_554 S
C539 O529 1.283 . S
C540 O532 1.304 . S
C540 O534 1.272 . S
C541 O533 1.311 . S
C541 O535 1.231 1_556 S
O542 Zn524 1.953 1_556 S
O542 C536 1.298 . S
O543 Zn544 1.953 . S
O543 C559 1.225 . S
Zn544 O543 1.953 . S
Zn544 O545 1.949 . S
Zn544 O551 1.919 . S
Zn544 O556 1.924 . S
O545 Zn544 1.949 . S
O545 Zn546 1.923 . S
O545 Zn547 1.950 . S
O545 Zn548 1.945 . S
Zn546 O545 1.923 . S
Zn546 O549 1.933 . S
Zn546 O552 1.941 . S
Zn546 O553 1.965 . S
Zn547 O545 1.950 . S
Zn547 O554 1.938 . S
Zn547 O555 1.906 . S
Zn547 O565 1.953 . S
Zn548 O545 1.945 . S
Zn548 O550 1.932 . S
Zn548 O557 1.977 . S
Zn548 O558 1.910 . S
O549 Zn546 1.933 . S
O549 C560 1.226 . S
O550 Zn548 1.932 . S
O550 C560 1.307 . S
O551 Zn544 1.919 . S
O551 C562 1.253 . S
O552 Zn546 1.941 . S
O552 C562 1.283 . S
O553 Zn546 1.965 . S
O553 C561 1.303 . S
O554 Zn547 1.938 . S
O554 C561 1.247 . S
O555 Zn547 1.906 . S
O555 C563 1.304 . S
O556 Zn544 1.924 . S
O556 C564 1.311 . S
O557 Zn548 1.977 . S
O557 C563 1.272 . S
O558 Zn548 1.910 . S
O558 C564 1.231 . S
C559 O543 1.225 . S
C559 O565 1.298 . S
C560 O549 1.226 . S
C560 O550 1.307 . S
C561 O553 1.303 . S
C561 O554 1.247 . S
C562 O551 1.253 . S
C562 O552 1.283 . S
C563 O555 1.304 . S
C563 O557 1.272 . S
C564 O556 1.311 . S
C564 O558 1.231 . S
O565 Zn547 1.953 . S
O565 C559 1.298 . S
O566 Zn567 1.953 . S
O566 C582 1.225 . S
Zn567 O566 1.953 . S
Zn567 O568 1.947 . S
Zn567 O574 1.919 . S
Zn567 O579 1.924 . S
O568 Zn567 1.947 . S
O568 Zn569 1.922 . S
O568 Zn570 1.951 1_455 S
O568 Zn571 1.945 1_455 S
Zn569 O568 1.922 . S
Zn569 O572 1.927 1_455 S
Zn569 O575 1.956 . S
Zn569 O576 1.961 1_455 S
Zn570 O568 1.951 1_655 S
Zn570 O577 1.938 . S
Zn570 O578 1.906 . S
Zn570 O588 1.953 1_655 S
Zn571 O568 1.945 1_655 S
Zn571 O573 1.932 . S
Zn571 O580 1.977 . S
Zn571 O581 1.910 1_655 S
O572 Zn569 1.927 1_655 S
O572 C583 1.226 . S
O573 Zn571 1.932 . S
O573 C583 1.307 . S
O574 Zn567 1.919 . S
O574 C585 1.253 . S
O575 Zn569 1.956 . S
O575 C585 1.283 . S
O576 Zn569 1.961 1_655 S
O576 C584 1.303 . S
O577 Zn570 1.938 . S
O577 C584 1.247 . S
O578 Zn570 1.906 . S
O578 C586 1.304 . S
O579 Zn567 1.924 . S
O579 C587 1.311 . S
O580 Zn571 1.977 . S
O580 C586 1.272 . S
O581 Zn571 1.910 1_455 S
O581 C587 1.231 . S
C582 O566 1.225 . S
C582 O588 1.298 . S
C583 O572 1.226 . S
C583 O573 1.307 . S
C584 O576 1.303 . S
C584 O577 1.247 . S
C585 O574 1.253 . S
C585 O575 1.283 . S
C586 O578 1.304 . S
C586 O580 1.272 . S
C587 O579 1.311 . S
C587 O581 1.231 . S
O588 Zn570 1.953 1_455 S
O588 C582 1.298 . S
O589 Zn590 1.953 . S
O589 C605 1.225 . S
Zn590 O589 1.953 . S
Zn590 O591 1.949 . S
Zn590 O597 1.919 . S
Zn590 O602 1.924 . S
O591 Zn590 1.949 . S
O591 Zn592 1.923 . S
O591 Zn593 1.950 . S
O591 Zn594 1.945 . S
Zn592 O591 1.923 . S
Zn592 O595 1.933 . S
Zn592 O598 1.941 . S
Zn592 O599 1.965 . S
Zn593 O591 1.950 . S
Zn593 O600 1.938 . S
Zn593 O601 1.906 . S
Zn593 O611 1.953 . S
Zn594 O591 1.945 . S
Zn594 O596 1.932 . S
Zn594 O603 1.977 . S
Zn594 O604 1.910 . S
O595 Zn592 1.933 . S
O595 C606 1.226 . S
O596 Zn594 1.932 . S
O596 C606 1.307 . S
O597 Zn590 1.919 . S
O597 C608 1.253 . S
O598 Zn592 1.941 . S
O598 C608 1.283 . S
O599 Zn592 1.965 . S
O599 C607 1.303 . S
O600 Zn593 1.938 . S
O600 C607 1.247 . S
O601 Zn593 1.906 . S
O601 C609 1.304 . S
O602 Zn590 1.924 . S
O602 C610 1.311 . S
O603 Zn594 1.977 . S
O603 C609 1.272 . S
O604 Zn594 1.910 . S
O604 C610 1.231 . S
C605 O589 1.225 . S
C605 O611 1.298 . S
C606 O595 1.226 . S
C606 O596 1.307 . S
C607 O599 1.303 . S
C607 O600 1.247 . S
C608 O597 1.253 . S
C608 O598 1.283 . S
C609 O601 1.304 . S
C609 O603 1.272 . S
C610 O602 1.311 . S
C610 O604 1.231 . S
O611 Zn593 1.953 . S
O611 C605 1.298 . S
O612 Zn613 1.953 . S
O612 C628 1.225 . S
Zn613 O612 1.953 . S
Zn613 O614 1.949 . S
Zn613 O620 1.919 . S
Zn613 O625 1.924 . S
O614 Zn613 1.949 . S
O614 Zn615 1.923 . S
O614 Zn616 1.950 . S
O614 Zn617 1.945 . S
Zn615 O614 1.923 . S
Zn615 O618 1.933 . S
Zn615 O621 1.941 . S
Zn615 O622 1.965 . S
Zn616 O614 1.950 . S
Zn616 O623 1.938 . S
Zn616 O624 1.906 . S
Zn616 O634 1.953 . S
Zn617 O614 1.945 . S
Zn617 O619 1.932 . S
Zn617 O626 1.977 . S
Zn617 O627 1.910 . S
O618 Zn615 1.933 . S
O618 C629 1.226 . S
O619 Zn617 1.932 . S
O619 C629 1.307 . S
O620 Zn613 1.919 . S
O620 C631 1.253 . S
O621 Zn615 1.941 . S
O621 C631 1.283 . S
O622 Zn615 1.965 . S
O622 C630 1.303 . S
O623 Zn616 1.938 . S
O623 C630 1.247 . S
O624 Zn616 1.906 . S
O624 C632 1.304 . S
O625 Zn613 1.924 . S
O625 C633 1.311 . S
O626 Zn617 1.977 . S
O626 C632 1.272 . S
O627 Zn617 1.910 . S
O627 C633 1.231 . S
C628 O612 1.225 . S
C628 O634 1.298 . S
C629 O618 1.226 . S
C629 O619 1.307 . S
C630 O622 1.303 . S
C630 O623 1.247 . S
C631 O620 1.253 . S
C631 O621 1.283 . S
C632 O624 1.304 . S
C632 O626 1.272 . S
C633 O625 1.311 . S
C633 O627 1.231 . S
O634 Zn616 1.953 . S
O634 C628 1.298 . S
O635 Zn636 1.953 . S
O635 C651 1.225 . S
Zn636 O635 1.953 . S
Zn636 O637 1.949 . S
Zn636 O643 1.919 . S
Zn636 O648 1.924 . S
O637 Zn636 1.949 . S
O637 Zn638 1.923 . S
O637 Zn639 1.950 . S
O637 Zn640 1.945 . S
Zn638 O637 1.923 . S
Zn638 O641 1.933 . S
Zn638 O644 1.941 . S
Zn638 O645 1.965 . S
Zn639 O637 1.950 . S
Zn639 O646 1.938 . S
Zn639 O647 1.906 . S
Zn639 O657 1.953 . S
Zn640 O637 1.945 . S
Zn640 O642 1.932 . S
Zn640 O649 1.977 . S
Zn640 O650 1.910 . S
O641 Zn638 1.933 . S
O641 C652 1.226 . S
O642 Zn640 1.932 . S
O642 C652 1.307 . S
O643 Zn636 1.919 . S
O643 C654 1.253 . S
O644 Zn638 1.941 . S
O644 C654 1.283 . S
O645 Zn638 1.965 . S
O645 C653 1.303 . S
O646 Zn639 1.938 . S
O646 C653 1.247 . S
O647 Zn639 1.906 . S
O647 C655 1.304 . S
O648 Zn636 1.924 . S
O648 C656 1.311 . S
O649 Zn640 1.977 . S
O649 C655 1.272 . S
O650 Zn640 1.910 . S
O650 C656 1.231 . S
C651 O635 1.225 . S
C651 O657 1.298 . S
C652 O641 1.226 . S
C652 O642 1.307 . S
C653 O645 1.303 . S
C653 O646 1.247 . S
C654 O643 1.253 . S
C654 O644 1.283 . S
C655 O647 1.304 . S
C655 O649 1.272 . S
C656 O648 1.311 . S
C656 O650 1.231 . S
O657 Zn639 1.953 . S
O657 C651 1.298 . S
O658 Zn659 1.953 . S
O658 C674 1.225 . S
Zn659 O658 1.953 . S
Zn659 O660 1.949 . S
Zn659 O666 1.919 . S
Zn659 O671 1.924 . S
O660 Zn659 1.949 . S
O660 Zn661 1.923 . S
O660 Zn662 1.950 . S
O660 Zn663 1.945 . S
Zn661 O660 1.923 . S
Zn661 O664 1.933 . S
Zn661 O667 1.941 . S
Zn661 O668 1.965 . S
Zn662 O660 1.950 . S
Zn662 O669 1.938 . S
Zn662 O670 1.906 . S
Zn662 O680 1.953 . S
Zn663 O660 1.945 . S
Zn663 O665 1.932 . S
Zn663 O672 1.977 . S
Zn663 O673 1.910 . S
O664 Zn661 1.933 . S
O664 C675 1.226 . S
O665 Zn663 1.932 . S
O665 C675 1.307 . S
O666 Zn659 1.919 . S
O666 C677 1.253 . S
O667 Zn661 1.941 . S
O667 C677 1.283 . S
O668 Zn661 1.965 . S
O668 C676 1.303 . S
O669 Zn662 1.938 . S
O669 C676 1.247 . S
O670 Zn662 1.906 . S
O670 C678 1.304 . S
O671 Zn659 1.924 . S
O671 C679 1.311 . S
O672 Zn663 1.977 . S
O672 C678 1.272 . S
O673 Zn663 1.910 . S
O673 C679 1.231 . S
C674 O658 1.225 . S
C674 O680 1.298 . S
C675 O664 1.226 . S
C675 O665 1.307 . S
C676 O668 1.303 . S
C676 O669 1.247 . S
C677 O666 1.253 . S
C677 O667 1.283 . S
C678 O670 1.304 . S
C678 O672 1.272 . S
C679 O671 1.311 . S
C679 O673 1.231 . S
O680 Zn662 1.953 . S
O680 C674 1.298 . S
O681 Zn682 1.953 . S
O681 C697 1.225 . S
Zn682 O681 1.953 . S
Zn682 O683 1.949 . S
Zn682 O689 1.919 1_454 S
Zn682 O694 1.924 1_554 S
O683 Zn682 1.949 . S
O683 Zn684 1.923 1_455 S
O683 Zn685 1.950 . S
O683 Zn686 1.945 1_554 S
Zn684 O683 1.923 1_655 S
Zn684 O687 1.933 . S
Zn684 O690 1.941 . S
Zn684 O691 1.965 . S
Zn685 O683 1.950 . S
Zn685 O692 1.938 . S
Zn685 O693 1.906 . S
Zn685 O703 1.953 . S
Zn686 O683 1.945 1_556 S
Zn686 O688 1.932 . S
Zn686 O695 1.977 1_556 S
Zn686 O696 1.910 . S
O687 Zn684 1.933 . S
O687 C698 1.253 1_554 S
O688 Zn686 1.932 . S
O688 C698 1.269 1_455 S
O689 Zn682 1.919 1_656 S
O689 C700 1.253 1_556 S
O690 Zn684 1.941 . S
O690 C700 1.283 . S
O691 Zn684 1.965 . S
O691 C699 1.303 . S
O692 Zn685 1.938 . S
O692 C699 1.247 1_455 S
O693 Zn685 1.906 . S
O693 C701 1.304 . S
O694 Zn682 1.924 1_556 S
O694 C702 1.311 . S
O695 Zn686 1.977 1_554 S
O695 C701 1.272 . S
O696 Zn686 1.910 . S
O696 C702 1.231 . S
C697 O681 1.225 . S
C697 O703 1.298 . S
C698 O687 1.253 1_556 S
C698 O688 1.269 1_655 S
C699 O691 1.303 . S
C699 O692 1.247 1_655 S
C700 O689 1.253 1_554 S
C700 O690 1.283 . S
C701 O693 1.304 . S
C701 O695 1.272 . S
C702 O694 1.311 . S
C702 O696 1.231 . S
O703 Zn685 1.953 . S
O703 C697 1.298 . S
H704 C712 0.947 1_655 S
H705 C717 0.950 . S
H706 C714 0.950 . S
H707 C716 0.950 . S
H708 C718 0.950 . S
H709 C720 0.950 1_455 S
H710 C722 0.950 . S
H711 C723 0.950 . S
C712 H704 0.947 1_455 S
C712 C713 1.390 . S
C712 C714 1.389 1_455 S
C713 C712 1.390 . S
C713 C717 1.393 . S
C714 H706 0.950 . S
C714 C712 1.389 1_655 S
C714 C715 1.407 . S
C715 C714 1.407 . S
C715 C716 1.386 1_655 S
C715 C721 1.497 . S
C716 H707 0.950 . S
C716 C715 1.386 1_455 S
C716 C717 1.391 . S
C717 H705 0.950 . S
C717 C713 1.393 . S
C717 C716 1.391 . S
C718 H708 0.950 . S
C718 C719 1.386 . S
C718 C720 1.391 . S
C719 C718 1.386 . S
C719 C723 1.393 . S
C720 H709 0.950 1_655 S
C720 C718 1.391 . S
C720 C721 1.400 . S
C721 C715 1.497 . S
C721 C720 1.400 . S
C721 C722 1.398 . S
C722 H710 0.950 . S
C722 C721 1.398 . S
C722 C723 1.391 . S
C723 H711 0.950 . S
C723 C719 1.393 . S
C723 C722 1.391 . S
H724 C732 0.950 . S
H725 C737 0.950 . S
H726 C734 0.950 . S
H727 C736 0.950 . S
H728 C738 0.950 . S
H729 C740 0.950 . S
H730 C742 0.950 . S
H731 C743 0.950 . S
C732 H724 0.950 . S
C732 C733 1.386 . S
C732 C734 1.391 . S
C733 C732 1.386 . S
C733 C737 1.393 . S
C734 H726 0.950 . S
C734 C732 1.391 . S
C734 C735 1.400 . S
C735 C734 1.400 . S
C735 C736 1.398 . S
C735 C741 1.491 . S
C736 H727 0.950 . S
C736 C735 1.398 . S
C736 C737 1.391 . S
C737 H725 0.950 . S
C737 C733 1.393 . S
C737 C736 1.391 . S
C738 H728 0.950 . S
C738 C739 1.386 . S
C738 C740 1.391 . S
C739 C738 1.386 . S
C739 C743 1.393 . S
C740 H729 0.950 . S
C740 C738 1.391 . S
C740 C741 1.400 . S
C741 C735 1.491 . S
C741 C740 1.400 . S
C741 C742 1.398 . S
C742 H730 0.950 . S
C742 C741 1.398 . S
C742 C743 1.391 . S
C743 H731 0.950 . S
C743 C739 1.393 . S
C743 C742 1.391 . S
H744 C752 0.950 . S
H745 C757 0.950 . S
H746 C754 0.950 . S
H747 C756 0.950 . S
H748 C758 0.950 . S
H749 C760 0.950 . S
H750 C762 0.950 . S
H751 C763 0.950 . S
C752 H744 0.950 . S
C752 C753 1.386 . S
C752 C754 1.391 . S
C753 C752 1.386 . S
C753 C757 1.393 . S
C754 H746 0.950 . S
C754 C752 1.391 . S
C754 C755 1.400 . S
C755 C754 1.400 . S
C755 C756 1.398 . S
C755 C761 1.491 . S
C756 H747 0.950 . S
C756 C755 1.398 . S
C756 C757 1.391 . S
C757 H745 0.950 . S
C757 C753 1.393 . S
C757 C756 1.391 . S
C758 H748 0.950 . S
C758 C759 1.386 . S
C758 C760 1.391 . S
C759 C758 1.386 . S
C759 C763 1.393 . S
C760 H749 0.950 . S
C760 C758 1.391 . S
C760 C761 1.400 . S
C761 C755 1.491 . S
C761 C760 1.400 . S
C761 C762 1.398 . S
C762 H750 0.950 . S
C762 C761 1.398 . S
C762 C763 1.391 . S
C763 H751 0.950 . S
C763 C759 1.393 . S
C763 C762 1.391 . S
H764 C772 0.950 . S
H765 C777 0.950 . S
H766 C774 0.950 . S
H767 C776 0.950 . S
H768 C778 0.950 . S
H769 C780 0.950 . S
H770 C782 0.950 . S
H771 C783 0.950 . S
C772 H764 0.950 . S
C772 C773 1.386 . S
C772 C774 1.391 . S
C773 C772 1.386 . S
C773 C777 1.393 . S
C774 H766 0.950 . S
C774 C772 1.391 . S
C774 C775 1.400 . S
C775 C774 1.400 . S
C775 C776 1.398 . S
C775 C781 1.491 . S
C776 H767 0.950 . S
C776 C775 1.398 . S
C776 C777 1.391 . S
C777 H765 0.950 . S
C777 C773 1.393 . S
C777 C776 1.391 . S
C778 H768 0.950 . S
C778 C779 1.386 . S
C778 C780 1.391 . S
C779 C778 1.386 . S
C779 C783 1.393 . S
C780 H769 0.950 . S
C780 C778 1.391 . S
C780 C781 1.400 . S
C781 C775 1.491 . S
C781 C780 1.400 . S
C781 C782 1.398 . S
C782 H770 0.950 . S
C782 C781 1.398 . S
C782 C783 1.391 . S
C783 H771 0.950 . S
C783 C779 1.393 . S
C783 C782 1.391 . S
H784 C792 0.950 . S
H785 C797 0.950 . S
H786 C794 0.950 . S
H787 C796 0.950 . S
H788 C798 0.950 . S
H789 C800 0.950 . S
H790 C802 0.950 . S
H791 C803 0.950 . S
C792 H784 0.950 . S
C792 C793 1.386 . S
C792 C794 1.391 . S
C793 C792 1.386 . S
C793 C797 1.393 1_455 S
C794 H786 0.950 . S
C794 C792 1.391 . S
C794 C795 1.400 1_455 S
C795 C794 1.400 1_655 S
C795 C796 1.398 . S
C795 C801 1.491 . S
C796 H787 0.950 . S
C796 C795 1.398 . S
C796 C797 1.391 . S
C797 H785 0.950 . S
C797 C793 1.393 1_655 S
C797 C796 1.391 . S
C798 H788 0.950 . S
C798 C799 1.386 . S
C798 C800 1.391 . S
C799 C798 1.386 . S
C799 C803 1.393 1_655 S
C800 H789 0.950 . S
C800 C798 1.391 . S
C800 C801 1.400 . S
C801 C795 1.491 . S
C801 C800 1.400 . S
C801 C802 1.398 1_655 S
C802 H790 0.950 . S
C802 C801 1.398 1_455 S
C802 C803 1.391 . S
C803 H791 0.950 . S
C803 C799 1.393 1_455 S
C803 C802 1.391 . S
H804 C812 0.950 . S
H805 C817 0.950 . S
H806 C814 0.950 . S
H807 C816 0.950 . S
H808 C818 0.950 . S
H809 C820 0.950 . S
H810 C822 0.950 . S
H811 C823 0.950 . S
C812 H804 0.950 . S
C812 C813 1.386 . S
C812 C814 1.391 . S
C813 C812 1.386 . S
C813 C817 1.393 . S
C814 H806 0.950 . S
C814 C812 1.391 . S
C814 C815 1.400 . S
C815 C814 1.400 . S
C815 C816 1.398 . S
C815 C821 1.491 . S
C816 H807 0.950 . S
C816 C815 1.398 . S
C816 C817 1.391 . S
C817 H805 0.950 . S
C817 C813 1.393 . S
C817 C816 1.391 . S
C818 H808 0.950 . S
C818 C819 1.386 . S
C818 C820 1.391 . S
C819 C818 1.386 . S
C819 C823 1.393 . S
C820 H809 0.950 . S
C820 C818 1.391 . S
C820 C821 1.400 . S
C821 C815 1.491 . S
C821 C820 1.400 . S
C821 C822 1.398 . S
C822 H810 0.950 . S
C822 C821 1.398 . S
C822 C823 1.391 . S
C823 H811 0.950 . S
C823 C819 1.393 . S
C823 C822 1.391 . S
H824 C832 0.950 . S
H825 C837 0.950 . S
H826 C834 0.950 . S
H827 C836 0.950 . S
H828 C838 0.950 1_554 S
H829 C840 0.950 . S
H830 C842 0.950 . S
H831 C843 0.950 . S
C832 H824 0.950 . S
C832 C833 1.386 . S
C832 C834 1.391 . S
C833 C832 1.386 . S
C833 C837 1.393 . S
C834 H826 0.950 . S
C834 C832 1.391 . S
C834 C835 1.400 . S
C835 C834 1.400 . S
C835 C836 1.398 . S
C835 C841 1.491 . S
C836 H827 0.950 . S
C836 C835 1.398 . S
C836 C837 1.391 . S
C837 H825 0.950 . S
C837 C833 1.393 . S
C837 C836 1.391 . S
C838 H828 0.950 1_556 S
C838 C839 1.386 . S
C838 C840 1.391 . S
C839 C838 1.386 . S
C839 C843 1.393 . S
C840 H829 0.950 . S
C840 C838 1.391 . S
C840 C841 1.400 . S
C841 C835 1.491 . S
C841 C840 1.400 . S
C841 C842 1.398 . S
C842 H830 0.950 . S
C842 C841 1.398 . S
C842 C843 1.391 . S
C843 H831 0.950 . S
C843 C839 1.393 . S
C843 C842 1.391 . S
H844 C852 0.950 . S
H845 C857 0.950 . S
H846 C854 0.950 . S
H847 C856 0.950 . S
H848 C858 0.950 . S
H849 C860 0.950 . S
H850 C862 0.950 . S
H851 C863 0.950 . S
C852 H844 0.950 . S
C852 C853 1.386 . S
C852 C854 1.391 . S
C853 C852 1.386 . S
C853 C857 1.393 . S
C854 H846 0.950 . S
C854 C852 1.391 . S
C854 C855 1.400 . S
C855 C854 1.400 . S
C855 C856 1.398 . S
C855 C861 1.491 . S
C856 H847 0.950 . S
C856 C855 1.398 . S
C856 C857 1.391 . S
C857 H845 0.950 . S
C857 C853 1.393 . S
C857 C856 1.391 . S
C858 H848 0.950 . S
C858 C859 1.386 . S
C858 C860 1.391 . S
C859 C858 1.386 . S
C859 C863 1.393 . S
C860 H849 0.950 . S
C860 C858 1.391 . S
C860 C861 1.400 . S
C861 C855 1.491 . S
C861 C860 1.400 . S
C861 C862 1.398 . S
C862 H850 0.950 . S
C862 C861 1.398 . S
C862 C863 1.391 . S
C863 H851 0.950 . S
C863 C859 1.393 . S
C863 C862 1.391 . S
H864 C872 0.950 . S
H865 C877 0.950 . S
H866 C874 0.950 . S
H867 C876 0.950 . S
H868 C878 0.950 1_565 S
H869 C880 0.950 . S
H870 C882 0.950 . S
H871 C883 0.950 . S
C872 H864 0.950 . S
C872 C873 1.386 . S
C872 C874 1.391 . S
C873 C872 1.386 . S
C873 C877 1.393 . S
C874 H866 0.950 . S
C874 C872 1.391 . S
C874 C875 1.400 . S
C875 C874 1.400 . S
C875 C876 1.398 . S
C875 C881 1.491 . S
C876 H867 0.950 . S
C876 C875 1.398 . S
C876 C877 1.391 . S
C877 H865 0.950 . S
C877 C873 1.393 . S
C877 C876 1.391 . S
C878 H868 0.950 1_545 S
C878 C879 1.386 . S
C878 C880 1.391 . S
C879 C878 1.386 . S
C879 C883 1.393 . S
C880 H869 0.950 . S
C880 C878 1.391 . S
C880 C881 1.400 . S
C881 C875 1.491 . S
C881 C880 1.400 . S
C881 C882 1.398 . S
C882 H870 0.950 . S
C882 C881 1.398 . S
C882 C883 1.391 . S
C883 H871 0.950 . S
C883 C879 1.393 . S
C883 C882 1.391 . S
H884 C892 0.950 . S
H885 C897 0.950 . S
H886 C894 0.950 . S
H887 C896 0.950 . S
H888 C898 0.950 . S
H889 C900 0.950 . S
H890 C902 0.950 . S
H891 C903 0.950 . S
C892 H884 0.950 . S
C892 C893 1.386 . S
C892 C894 1.391 . S
C893 C892 1.386 . S
C893 C897 1.393 . S
C894 H886 0.950 . S
C894 C892 1.391 . S
C894 C895 1.400 . S
C895 C894 1.400 . S
C895 C896 1.398 . S
C895 C901 1.491 . S
C896 H887 0.950 . S
C896 C895 1.398 . S
C896 C897 1.391 . S
C897 H885 0.950 . S
C897 C893 1.393 . S
C897 C896 1.391 . S
C898 H888 0.950 . S
C898 C899 1.386 . S
C898 C900 1.391 . S
C899 C898 1.386 . S
C899 C903 1.393 . S
C900 H889 0.950 . S
C900 C898 1.391 . S
C900 C901 1.400 . S
C901 C895 1.491 . S
C901 C900 1.400 . S
C901 C902 1.398 . S
C902 H890 0.950 . S
C902 C901 1.398 . S
C902 C903 1.391 . S
C903 H891 0.950 . S
C903 C899 1.393 . S
C903 C902 1.391 . S
H904 C912 0.950 . S
H905 C917 0.950 . S
H906 C914 0.950 . S
H907 C916 0.950 . S
H908 C918 0.950 . S
H909 C920 0.950 . S
H910 C922 0.950 . S
H911 C923 0.950 . S
C912 H904 0.950 . S
C912 C913 1.386 . S
C912 C914 1.391 . S
C913 C912 1.386 . S
C913 C917 1.393 . S
C914 H906 0.950 . S
C914 C912 1.391 . S
C914 C915 1.400 . S
C915 C914 1.400 . S
C915 C916 1.398 . S
C915 C921 1.491 . S
C916 H907 0.950 . S
C916 C915 1.398 . S
C916 C917 1.391 . S
C917 H905 0.950 . S
C917 C913 1.393 . S
C917 C916 1.391 . S
C918 H908 0.950 . S
C918 C919 1.386 . S
C918 C920 1.391 . S
C919 C918 1.386 . S
C919 C923 1.393 . S
C920 H909 0.950 . S
C920 C918 1.391 . S
C920 C921 1.400 . S
C921 C915 1.491 . S
C921 C920 1.400 . S
C921 C922 1.398 . S
C922 H910 0.950 . S
C922 C921 1.398 . S
C922 C923 1.391 . S
C923 H911 0.950 . S
C923 C919 1.393 . S
C923 C922 1.391 . S
H924 C932 0.950 . S
H925 C937 0.950 . S
H926 C934 0.950 . S
H927 C936 0.950 . S
H928 C938 0.950 . S
H929 C940 0.950 . S
H930 C942 0.950 . S
H931 C943 0.950 . S
C932 H924 0.950 . S
C932 C933 1.386 . S
C932 C934 1.391 . S
C933 C932 1.386 . S
C933 C937 1.393 . S
C934 H926 0.950 . S
C934 C932 1.391 . S
C934 C935 1.400 . S
C935 C934 1.400 . S
C935 C936 1.398 . S
C935 C941 1.491 . S
C936 H927 0.950 . S
C936 C935 1.398 . S
C936 C937 1.391 . S
C937 H925 0.950 . S
C937 C933 1.393 . S
C937 C936 1.391 . S
C938 H928 0.950 . S
C938 C939 1.386 . S
C938 C940 1.391 . S
C939 C938 1.386 . S
C939 C943 1.393 . S
C940 H929 0.950 . S
C940 C938 1.391 . S
C940 C941 1.400 . S
C941 C935 1.491 . S
C941 C940 1.400 . S
C941 C942 1.398 . S
C942 H930 0.950 . S
C942 C941 1.398 . S
C942 C943 1.391 . S
C943 H931 0.950 . S
C943 C939 1.393 . S
C943 C942 1.391 . S
H944 C952 0.950 . S
H945 C957 0.950 1_565 S
H946 C954 0.950 . S
H947 C956 0.950 1_565 S
H948 C958 0.950 1_565 S
H949 C960 0.950 1_565 S
H950 C962 0.950 . S
H951 C963 0.950 . S
C952 H944 0.950 . S
C952 C953 1.386 . S
C952 C954 1.391 . S
C953 C952 1.386 . S
C953 C957 1.393 . S
C954 H946 0.950 . S
C954 C952 1.391 . S
C954 C955 1.400 . S
C955 C954 1.400 . S
C955 C956 1.398 . S
C955 C961 1.491 . S
C956 H947 0.950 1_545 S
C956 C955 1.398 . S
C956 C957 1.391 . S
C957 H945 0.950 1_545 S
C957 C953 1.393 . S
C957 C956 1.391 . S
C958 H948 0.950 1_545 S
C958 C959 1.386 . S
C958 C960 1.391 . S
C959 C958 1.386 . S
C959 C963 1.393 . S
C960 H949 0.950 1_545 S
C960 C958 1.391 . S
C960 C961 1.400 . S
C961 C955 1.491 . S
C961 C960 1.400 . S
C961 C962 1.398 . S
C962 H950 0.950 . S
C962 C961 1.398 . S
C962 C963 1.391 . S
C963 H951 0.950 . S
C963 C959 1.393 . S
C963 C962 1.391 . S
H964 C972 0.950 . S
H965 C977 0.950 . S
H966 C974 0.950 . S
H967 C976 0.950 . S
H968 C978 0.950 . S
H969 C980 0.950 . S
H970 C982 0.950 . S
H971 C983 0.950 . S
C972 H964 0.950 . S
C972 C973 1.386 . S
C972 C974 1.391 . S
C973 C972 1.386 . S
C973 C977 1.393 . S
C974 H966 0.950 . S
C974 C972 1.391 . S
C974 C975 1.400 . S
C975 C974 1.400 . S
C975 C976 1.398 . S
C975 C981 1.491 . S
C976 H967 0.950 . S
C976 C975 1.398 . S
C976 C977 1.391 . S
C977 H965 0.950 . S
C977 C973 1.393 . S
C977 C976 1.391 . S
C978 H968 0.950 . S
C978 C979 1.386 . S
C978 C980 1.391 . S
C979 C978 1.386 . S
C979 C983 1.393 . S
C980 H969 0.950 . S
C980 C978 1.391 . S
C980 C981 1.400 . S
C981 C975 1.491 . S
C981 C980 1.400 . S
C981 C982 1.398 . S
C982 H970 0.950 . S
C982 C981 1.398 . S
C982 C983 1.391 . S
C983 H971 0.950 . S
C983 C979 1.393 . S
C983 C982 1.391 . S
H984 C992 0.950 . S
H985 C997 0.950 . S
H986 C994 0.950 . S
H987 C996 0.950 . S
H988 C998 0.950 . S
H989 C1000 0.950 . S
H990 C1002 0.950 . S
H991 C1003 0.950 . S
C992 H984 0.950 . S
C992 C993 1.386 . S
C992 C994 1.391 . S
C993 C992 1.386 . S
C993 C997 1.393 . S
C994 H986 0.950 . S
C994 C992 1.391 . S
C994 C995 1.400 . S
C995 C994 1.400 . S
C995 C996 1.398 . S
C995 C1001 1.491 . S
C996 H987 0.950 . S
C996 C995 1.398 . S
C996 C997 1.391 . S
C997 H985 0.950 . S
C997 C993 1.393 . S
C997 C996 1.391 . S
C998 H988 0.950 . S
C998 C999 1.386 . S
C998 C1000 1.391 . S
C999 C998 1.386 . S
C999 C1003 1.393 . S
C1000 H989 0.950 . S
C1000 C998 1.391 . S
C1000 C1001 1.400 . S
C1001 C995 1.491 . S
C1001 C1000 1.400 . S
C1001 C1002 1.398 . S
C1002 H990 0.950 . S
C1002 C1001 1.398 . S
C1002 C1003 1.391 . S
C1003 H991 0.950 . S
C1003 C999 1.393 . S
C1003 C1002 1.391 . S
H1004 C1012 0.950 . S
H1005 C1017 0.950 . S
H1006 C1014 0.950 . S
H1007 C1016 0.950 . S
H1008 C1018 0.950 . S
H1009 C1020 0.950 . S
H1010 C1022 0.950 . S
H1011 C1023 0.950 . S
C1012 H1004 0.950 . S
C1012 C1013 1.386 . S
C1012 C1014 1.391 . S
C1013 C1012 1.386 . S
C1013 C1017 1.393 . S
C1014 H1006 0.950 . S
C1014 C1012 1.391 . S
C1014 C1015 1.400 . S
C1015 C1014 1.400 . S
C1015 C1016 1.398 . S
C1015 C1021 1.491 . S
C1016 H1007 0.950 . S
C1016 C1015 1.398 . S
C1016 C1017 1.391 . S
C1017 H1005 0.950 . S
C1017 C1013 1.393 . S
C1017 C1016 1.391 . S
C1018 H1008 0.950 . S
C1018 C1019 1.386 . S
C1018 C1020 1.391 . S
C1019 C1018 1.386 . S
C1019 C1023 1.393 . S
C1020 H1009 0.950 . S
C1020 C1018 1.391 . S
C1020 C1021 1.400 . S
C1021 C1015 1.491 . S
C1021 C1020 1.400 . S
C1021 C1022 1.398 . S
C1022 H1010 0.950 . S
C1022 C1021 1.398 . S
C1022 C1023 1.391 . S
C1023 H1011 0.950 . S
C1023 C1019 1.393 . S
C1023 C1022 1.391 . S
H1024 C1032 0.950 . S
H1025 C1037 0.950 . S
H1026 C1034 0.944 1_556 S
H1027 C1036 0.950 . S
H1028 C1038 0.951 . S
H1029 C1040 0.958 . S
H1030 C1042 0.950 . S
H1031 C1043 0.950 1_565 S
C1032 H1024 0.950 . S
C1032 C1033 1.386 . S
C1032 C1034 1.391 . S
C1033 C1032 1.386 . S
C1033 C1037 1.393 . S
C1034 H1026 0.944 1_554 S
C1034 C1032 1.391 . S
C1034 C1035 1.400 . S
C1035 C1034 1.400 . S
C1035 C1036 1.398 . S
C1035 C1041 1.489 1_554 S
C1036 H1027 0.950 . S
C1036 C1035 1.398 . S
C1036 C1037 1.391 . S
C1037 H1025 0.950 . S
C1037 C1033 1.393 . S
C1037 C1036 1.391 . S
C1038 H1028 0.951 . S
C1038 C1039 1.386 . S
C1038 C1040 1.388 1_556 S
C1039 C1038 1.386 . S
C1039 C1043 1.393 . S
C1040 H1029 0.958 . S
C1040 C1038 1.388 1_554 S
C1040 C1041 1.398 1_554 S
C1041 C1035 1.489 1_556 S
C1041 C1040 1.398 1_556 S
C1041 C1042 1.400 . S
C1042 H1030 0.950 . S
C1042 C1041 1.400 . S
C1042 C1043 1.391 . S
C1043 H1031 0.950 1_545 S
C1043 C1039 1.393 . S
C1043 C1042 1.391 . S
H1044 C1052 0.950 1_556 S
H1045 C1057 0.950 . S
H1046 C1054 0.963 . S
H1047 C1056 0.950 . S
H1048 C1058 0.950 . S
H1049 C1060 0.950 . S
H1050 C1062 0.950 . S
H1051 C1063 0.950 . S
C1052 H1044 0.950 1_554 S
C1052 C1053 1.386 . S
C1052 C1054 1.391 . S
C1053 C1052 1.386 . S
C1053 C1057 1.393 . S
C1054 H1046 0.963 . S
C1054 C1052 1.391 . S
C1054 C1055 1.400 . S
C1055 C1054 1.400 . S
C1055 C1056 1.398 . S
C1055 C1061 1.491 . S
C1056 H1047 0.950 . S
C1056 C1055 1.398 . S
C1056 C1057 1.391 . S
C1057 H1045 0.950 . S
C1057 C1053 1.393 . S
C1057 C1056 1.391 . S
C1058 H1048 0.950 . S
C1058 C1059 1.386 . S
C1058 C1060 1.391 . S
C1059 C1058 1.386 . S
C1059 C1063 1.393 . S
C1060 H1049 0.950 . S
C1060 C1058 1.391 . S
C1060 C1061 1.400 . S
C1061 C1055 1.491 . S
C1061 C1060 1.400 . S
C1061 C1062 1.398 . S
C1062 H1050 0.950 . S
C1062 C1061 1.398 . S
C1062 C1063 1.391 . S
C1063 H1051 0.950 . S
C1063 C1059 1.393 . S
C1063 C1062 1.391 . S
H1064 C1072 0.950 . S
H1065 C1077 0.950 . S
H1066 C1074 0.950 . S
H1067 C1076 0.950 . S
H1068 C1078 0.950 . S
H1069 C1080 0.950 . S
H1070 C1082 0.950 . S
H1071 C1083 0.950 . S
C1072 H1064 0.950 . S
C1072 C1073 1.386 . S
C1072 C1074 1.391 . S
C1073 C1072 1.386 . S
C1073 C1077 1.393 . S
C1074 H1066 0.950 . S
C1074 C1072 1.391 . S
C1074 C1075 1.400 . S
C1075 C1074 1.400 . S
C1075 C1076 1.398 . S
C1075 C1081 1.491 . S
C1076 H1067 0.950 . S
C1076 C1075 1.398 . S
C1076 C1077 1.391 . S
C1077 H1065 0.950 . S
C1077 C1073 1.393 . S
C1077 C1076 1.391 . S
C1078 H1068 0.950 . S
C1078 C1079 1.386 . S
C1078 C1080 1.391 . S
C1079 C1078 1.386 . S
C1079 C1083 1.393 . S
C1080 H1069 0.950 . S
C1080 C1078 1.391 . S
C1080 C1081 1.400 . S
C1081 C1075 1.491 . S
C1081 C1080 1.400 . S
C1081 C1082 1.398 . S
C1082 H1070 0.950 . S
C1082 C1081 1.398 . S
C1082 C1083 1.391 . S
C1083 H1071 0.950 . S
C1083 C1079 1.393 . S
C1083 C1082 1.391 . S
H1084 C1092 0.950 . S
H1085 C1097 0.950 . S
H1086 C1094 0.950 . S
H1087 C1096 0.950 . S
H1088 C1098 0.950 . S
H1089 C1100 0.950 . S
H1090 C1102 0.950 . S
H1091 C1103 0.950 . S
C1092 H1084 0.950 . S
C1092 C1093 1.386 . S
C1092 C1094 1.391 . S
C1093 C1092 1.386 . S
C1093 C1097 1.393 . S
C1094 H1086 0.950 . S
C1094 C1092 1.391 . S
C1094 C1095 1.400 . S
C1095 C1094 1.400 . S
C1095 C1096 1.398 . S
C1095 C1101 1.491 . S
C1096 H1087 0.950 . S
C1096 C1095 1.398 . S
C1096 C1097 1.391 . S
C1097 H1085 0.950 . S
C1097 C1093 1.393 . S
C1097 C1096 1.391 . S
C1098 H1088 0.950 . S
C1098 C1099 1.386 . S
C1098 C1100 1.391 . S
C1099 C1098 1.386 . S
C1099 C1103 1.393 . S
C1100 H1089 0.950 . S
C1100 C1098 1.391 . S
C1100 C1101 1.400 . S
C1101 C1095 1.491 . S
C1101 C1100 1.400 . S
C1101 C1102 1.398 . S
C1102 H1090 0.950 . S
C1102 C1101 1.398 . S
C1102 C1103 1.391 . S
C1103 H1091 0.950 . S
C1103 C1099 1.393 . S
C1103 C1102 1.391 . S
H1104 C1112 0.950 . S
H1105 C1117 0.950 . S
H1106 C1114 0.950 . S
H1107 C1116 0.950 . S
H1108 C1118 0.950 . S
H1109 C1120 0.950 . S
H1110 C1122 0.950 . S
H1111 C1123 0.950 . S
C1112 H1104 0.950 . S
C1112 C1113 1.386 . S
C1112 C1114 1.391 . S
C1113 C1112 1.386 . S
C1113 C1117 1.393 . S
C1114 H1106 0.950 . S
C1114 C1112 1.391 . S
C1114 C1115 1.400 . S
C1115 C1114 1.400 . S
C1115 C1116 1.398 . S
C1115 C1121 1.491 . S
C1116 H1107 0.950 . S
C1116 C1115 1.398 . S
C1116 C1117 1.391 . S
C1117 H1105 0.950 . S
C1117 C1113 1.393 . S
C1117 C1116 1.391 . S
C1118 H1108 0.950 . S
C1118 C1119 1.386 . S
C1118 C1120 1.391 . S
C1119 C1118 1.386 . S
C1119 C1123 1.393 . S
C1120 H1109 0.950 . S
C1120 C1118 1.391 . S
C1120 C1121 1.400 . S
C1121 C1115 1.491 . S
C1121 C1120 1.400 . S
C1121 C1122 1.398 . S
C1122 H1110 0.950 . S
C1122 C1121 1.398 . S
C1122 C1123 1.391 . S
C1123 H1111 0.950 . S
C1123 C1119 1.393 . S
C1123 C1122 1.391 . S
H1124 C1132 0.950 . S
H1125 C1137 0.950 . S
H1126 C1134 0.950 . S
H1127 C1136 0.950 . S
H1128 C1138 0.950 . S
H1129 C1140 0.950 . S
H1130 C1142 0.931 1_545 S
H1131 C1143 0.950 . S
C1132 H1124 0.950 . S
C1132 C1133 1.386 . S
C1132 C1134 1.391 . S
C1133 C1132 1.386 . S
C1133 C1137 1.393 . S
C1134 H1126 0.950 . S
C1134 C1132 1.391 . S
C1134 C1135 1.400 . S
C1135 C1134 1.400 . S
C1135 C1136 1.398 . S
C1135 C1141 1.491 . S
C1136 H1127 0.950 . S
C1136 C1135 1.398 . S
C1136 C1137 1.391 . S
C1137 H1125 0.950 . S
C1137 C1133 1.393 . S
C1137 C1136 1.391 . S
C1138 H1128 0.950 . S
C1138 C1139 1.386 . S
C1138 C1140 1.391 . S
C1139 C1138 1.386 . S
C1139 C1143 1.393 1_565 S
C1140 H1129 0.950 . S
C1140 C1138 1.391 . S
C1140 C1141 1.400 . S
C1141 C1135 1.491 . S
C1141 C1140 1.400 . S
C1141 C1142 1.398 . S
C1142 H1130 0.931 1_565 S
C1142 C1141 1.398 . S
C1142 C1143 1.391 1_565 S
C1143 H1131 0.950 . S
C1143 C1139 1.393 1_545 S
C1143 C1142 1.391 1_545 S
H1144 C1152 0.950 . S
H1145 C1157 0.950 . S
H1146 C1154 0.950 . S
H1147 C1156 0.950 . S
H1148 C1158 0.950 . S
H1149 C1160 0.950 . S
H1150 C1162 0.950 . S
H1151 C1163 0.950 . S
C1152 H1144 0.950 . S
C1152 C1153 1.386 . S
C1152 C1154 1.391 . S
C1153 C1152 1.386 . S
C1153 C1157 1.393 . S
C1154 H1146 0.950 . S
C1154 C1152 1.391 . S
C1154 C1155 1.400 . S
C1155 C1154 1.400 . S
C1155 C1156 1.398 . S
C1155 C1161 1.491 . S
C1156 H1147 0.950 . S
C1156 C1155 1.398 . S
C1156 C1157 1.391 . S
C1157 H1145 0.950 . S
C1157 C1153 1.393 . S
C1157 C1156 1.391 . S
C1158 H1148 0.950 . S
C1158 C1159 1.386 . S
C1158 C1160 1.391 . S
C1159 C1158 1.386 . S
C1159 C1163 1.393 . S
C1160 H1149 0.950 . S
C1160 C1158 1.391 . S
C1160 C1161 1.400 . S
C1161 C1155 1.491 . S
C1161 C1160 1.400 . S
C1161 C1162 1.398 . S
C1162 H1150 0.950 . S
C1162 C1161 1.398 . S
C1162 C1163 1.391 . S
C1163 H1151 0.950 . S
C1163 C1159 1.393 . S
C1163 C1162 1.391 . S
H1164 C1172 0.950 . S
H1165 C1177 0.950 . S
H1166 C1174 0.950 . S
H1167 C1176 0.950 . S
H1168 C1178 0.950 . S
H1169 C1180 0.950 . S
H1170 C1182 0.950 . S
H1171 C1183 0.950 . S
C1172 H1164 0.950 . S
C1172 C1173 1.386 . S
C1172 C1174 1.391 . S
C1173 C1172 1.386 . S
C1173 C1177 1.393 . S
C1174 H1166 0.950 . S
C1174 C1172 1.391 . S
C1174 C1175 1.400 . S
C1175 C1174 1.400 . S
C1175 C1176 1.398 . S
C1175 C1181 1.491 . S
C1176 H1167 0.950 . S
C1176 C1175 1.398 . S
C1176 C1177 1.391 . S
C1177 H1165 0.950 . S
C1177 C1173 1.393 . S
C1177 C1176 1.391 . S
C1178 H1168 0.950 . S
C1178 C1179 1.386 . S
C1178 C1180 1.391 . S
C1179 C1178 1.386 . S
C1179 C1183 1.393 . S
C1180 H1169 0.950 . S
C1180 C1178 1.391 . S
C1180 C1181 1.400 . S
C1181 C1175 1.491 . S
C1181 C1180 1.400 . S
C1181 C1182 1.398 . S
C1182 H1170 0.950 . S
C1182 C1181 1.398 . S
C1182 C1183 1.391 . S
C1183 H1171 0.950 . S
C1183 C1179 1.393 . S
C1183 C1182 1.391 . S
H1184 C1192 0.950 . S
H1185 C1197 0.950 . S
H1186 C1194 0.950 . S
H1187 C1196 0.950 . S
H1188 C1198 0.950 . S
H1189 C1200 0.950 . S
H1190 C1202 0.950 . S
H1191 C1203 0.950 . S
C1192 H1184 0.950 . S
C1192 C1193 1.386 1_655 S
C1192 C1194 1.391 . S
C1193 C1192 1.386 1_455 S
C1193 C1197 1.393 . S
C1194 H1186 0.950 . S
C1194 C1192 1.391 . S
C1194 C1195 1.400 1_655 S
C1195 C1194 1.400 1_455 S
C1195 C1196 1.398 . S
C1195 C1201 1.491 . S
C1196 H1187 0.950 . S
C1196 C1195 1.398 . S
C1196 C1197 1.391 . S
C1197 H1185 0.950 . S
C1197 C1193 1.393 . S
C1197 C1196 1.391 . S
C1198 H1188 0.950 . S
C1198 C1199 1.386 . S
C1198 C1200 1.391 . S
C1199 C1198 1.386 . S
C1199 C1203 1.393 1_455 S
C1200 H1189 0.950 . S
C1200 C1198 1.391 . S
C1200 C1201 1.400 . S
C1201 C1195 1.491 . S
C1201 C1200 1.400 . S
C1201 C1202 1.398 1_455 S
C1202 H1190 0.950 . S
C1202 C1201 1.398 1_655 S
C1202 C1203 1.391 . S
C1203 H1191 0.950 . S
C1203 C1199 1.393 1_655 S
C1203 C1202 1.391 . S
H1204 C1212 0.950 . S
H1205 C1217 0.950 . S
H1206 C1214 0.950 . S
H1207 C1216 0.950 . S
H1208 C1218 0.950 . S
H1209 C1220 0.950 . S
H1210 C1222 0.950 . S
H1211 C1223 0.950 . S
C1212 H1204 0.950 . S
C1212 C1213 1.386 . S
C1212 C1214 1.391 . S
C1213 C1212 1.386 . S
C1213 C1217 1.393 . S
C1214 H1206 0.950 . S
C1214 C1212 1.391 . S
C1214 C1215 1.400 . S
C1215 C1214 1.400 . S
C1215 C1216 1.398 . S
C1215 C1221 1.491 . S
C1216 H1207 0.950 . S
C1216 C1215 1.398 . S
C1216 C1217 1.391 . S
C1217 H1205 0.950 . S
C1217 C1213 1.393 . S
C1217 C1216 1.391 . S
C1218 H1208 0.950 . S
C1218 C1219 1.386 . S
C1218 C1220 1.391 . S
C1219 C1218 1.386 . S
C1219 C1223 1.393 . S
C1220 H1209 0.950 . S
C1220 C1218 1.391 . S
C1220 C1221 1.400 . S
C1221 C1215 1.491 . S
C1221 C1220 1.400 . S
C1221 C1222 1.398 . S
C1222 H1210 0.950 . S
C1222 C1221 1.398 . S
C1222 C1223 1.391 . S
C1223 H1211 0.950 . S
C1223 C1219 1.393 . S
C1223 C1222 1.391 . S
H1224 C1232 0.950 . S
H1225 C1237 0.950 . S
H1226 C1234 0.950 . S
H1227 C1236 0.950 . S
H1228 C1238 0.950 . S
H1229 C1240 0.950 . S
H1230 C1242 0.950 . S
H1231 C1243 0.950 . S
C1232 H1224 0.950 . S
C1232 C1233 1.386 . S
C1232 C1234 1.391 . S
C1233 C1232 1.386 . S
C1233 C1237 1.393 . S
C1234 H1226 0.950 . S
C1234 C1232 1.391 . S
C1234 C1235 1.400 . S
C1235 C1234 1.400 . S
C1235 C1236 1.398 . S
C1235 C1241 1.491 . S
C1236 H1227 0.950 . S
C1236 C1235 1.398 . S
C1236 C1237 1.391 . S
C1237 H1225 0.950 . S
C1237 C1233 1.393 . S
C1237 C1236 1.391 . S
C1238 H1228 0.950 . S
C1238 C1239 1.386 . S
C1238 C1240 1.391 . S
C1239 C1238 1.386 . S
C1239 C1243 1.393 . S
C1240 H1229 0.950 . S
C1240 C1238 1.391 . S
C1240 C1241 1.400 . S
C1241 C1235 1.491 . S
C1241 C1240 1.400 . S
C1241 C1242 1.398 . S
C1242 H1230 0.950 . S
C1242 C1241 1.398 . S
C1242 C1243 1.391 . S
C1243 H1231 0.950 . S
C1243 C1239 1.393 . S
C1243 C1242 1.391 . S
H1244 C1252 0.950 . S
H1245 C1257 0.950 . S
H1246 C1254 0.950 . S
H1247 C1256 0.950 . S
H1248 C1258 0.950 . S
H1249 C1260 0.950 . S
H1250 C1262 0.950 . S
H1251 C1263 0.950 . S
C1252 H1244 0.950 . S
C1252 C1253 1.386 . S
C1252 C1254 1.391 . S
C1253 C1252 1.386 . S
C1253 C1257 1.393 . S
C1254 H1246 0.950 . S
C1254 C1252 1.391 . S
C1254 C1255 1.400 . S
C1255 C1254 1.400 . S
C1255 C1256 1.398 . S
C1255 C1261 1.491 . S
C1256 H1247 0.950 . S
C1256 C1255 1.398 . S
C1256 C1257 1.391 . S
C1257 H1245 0.950 . S
C1257 C1253 1.393 . S
C1257 C1256 1.391 . S
C1258 H1248 0.950 . S
C1258 C1259 1.386 . S
C1258 C1260 1.391 . S
C1259 C1258 1.386 . S
C1259 C1263 1.393 . S
C1260 H1249 0.950 . S
C1260 C1258 1.391 . S
C1260 C1261 1.400 . S
C1261 C1255 1.491 . S
C1261 C1260 1.400 . S
C1261 C1262 1.398 . S
C1262 H1250 0.950 . S
C1262 C1261 1.398 . S
C1262 C1263 1.391 . S
C1263 H1251 0.950 . S
C1263 C1259 1.393 . S
C1263 C1262 1.391 . S
H1264 C1272 0.950 . S
H1265 C1277 0.950 . S
H1266 C1274 0.948 1_655 S
H1267 C1276 0.950 . S
H1268 C1278 0.950 . S
H1269 C1280 0.950 . S
H1270 C1282 0.947 1_655 S
H1271 C1283 0.950 . S
C1272 H1264 0.950 . S
C1272 C1273 1.386 1_655 S
C1272 C1274 1.390 1_655 S
C1273 C1272 1.386 1_455 S
C1273 C1277 1.393 . S
C1274 H1266 0.948 1_455 S
C1274 C1272 1.390 1_455 S
C1274 C1275 1.403 . S
C1275 C1274 1.403 . S
C1275 C1276 1.398 . S
C1275 C1281 1.491 . S
C1276 H1267 0.950 . S
C1276 C1275 1.398 . S
C1276 C1277 1.391 . S
C1277 H1265 0.950 . S
C1277 C1273 1.393 . S
C1277 C1276 1.391 . S
C1278 H1268 0.950 . S
C1278 C1279 1.386 . S
C1278 C1280 1.391 . S
C1279 C1278 1.386 . S
C1279 C1283 1.393 . S
C1280 H1269 0.950 . S
C1280 C1278 1.391 . S
C1280 C1281 1.400 . S
C1281 C1275 1.491 . S
C1281 C1280 1.400 . S
C1281 C1282 1.398 . S
C1282 H1270 0.947 1_455 S
C1282 C1281 1.398 . S
C1282 C1283 1.391 . S
C1283 H1271 0.950 . S
C1283 C1279 1.393 . S
C1283 C1282 1.391 . S
H1284 C1292 0.950 . S
H1285 C1297 0.950 . S
H1286 C1294 0.950 . S
H1287 C1296 0.950 . S
H1288 C1298 0.950 . S
H1289 C1300 0.950 . S
H1290 C1302 0.950 . S
H1291 C1303 0.950 . S
C1292 H1284 0.950 . S
C1292 C1293 1.386 . S
C1292 C1294 1.391 . S
C1293 C1292 1.386 . S
C1293 C1297 1.393 . S
C1294 H1286 0.950 . S
C1294 C1292 1.391 . S
C1294 C1295 1.400 . S
C1295 C1294 1.400 . S
C1295 C1296 1.398 . S
C1295 C1301 1.491 . S
C1296 H1287 0.950 . S
C1296 C1295 1.398 . S
C1296 C1297 1.391 . S
C1297 H1285 0.950 . S
C1297 C1293 1.393 . S
C1297 C1296 1.391 . S
C1298 H1288 0.950 . S
C1298 C1299 1.386 . S
C1298 C1300 1.391 . S
C1299 C1298 1.386 . S
C1299 C1303 1.393 . S
C1300 H1289 0.950 . S
C1300 C1298 1.391 . S
C1300 C1301 1.400 . S
C1301 C1295 1.491 . S
C1301 C1300 1.400 . S
C1301 C1302 1.398 . S
C1302 H1290 0.950 . S
C1302 C1301 1.398 . S
C1302 C1303 1.391 . S
C1303 H1291 0.950 . S
C1303 C1299 1.393 . S
C1303 C1302 1.391 . S
H1304 C1312 0.950 . S
H1305 C1317 0.950 . S
H1306 C1314 0.950 . S
H1307 C1316 0.950 . S
H1308 C1318 0.950 . S
H1309 C1320 0.950 . S
H1310 C1322 0.950 . S
H1311 C1323 0.950 . S
C1312 H1304 0.950 . S
C1312 C1313 1.386 . S
C1312 C1314 1.391 . S
C1313 C1312 1.386 . S
C1313 C1317 1.393 . S
C1314 H1306 0.950 . S
C1314 C1312 1.391 . S
C1314 C1315 1.400 . S
C1315 C1314 1.400 . S
C1315 C1316 1.398 . S
C1315 C1321 1.491 . S
C1316 H1307 0.950 . S
C1316 C1315 1.398 . S
C1316 C1317 1.391 . S
C1317 H1305 0.950 . S
C1317 C1313 1.393 . S
C1317 C1316 1.391 . S
C1318 H1308 0.950 . S
C1318 C1319 1.386 . S
C1318 C1320 1.391 . S
C1319 C1318 1.386 . S
C1319 C1323 1.393 . S
C1320 H1309 0.950 . S
C1320 C1318 1.391 . S
C1320 C1321 1.400 . S
C1321 C1315 1.491 . S
C1321 C1320 1.400 . S
C1321 C1322 1.398 . S
C1322 H1310 0.950 . S
C1322 C1321 1.398 . S
C1322 C1323 1.391 . S
C1323 H1311 0.950 . S
C1323 C1319 1.393 . S
C1323 C1322 1.391 . S
H1324 C1332 0.950 . S
H1325 C1337 0.950 . S
H1326 C1334 0.950 . S
H1327 C1336 0.950 . S
H1328 C1338 0.950 . S
H1329 C1340 0.950 . S
H1330 C1342 0.950 . S
H1331 C1343 0.950 . S
C1332 H1324 0.950 . S
C1332 C1333 1.386 . S
C1332 C1334 1.391 . S
C1333 C1332 1.386 . S
C1333 C1337 1.393 . S
C1334 H1326 0.950 . S
C1334 C1332 1.391 . S
C1334 C1335 1.400 . S
C1335 C1334 1.400 . S
C1335 C1336 1.398 . S
C1335 C1341 1.491 . S
C1336 H1327 0.950 . S
C1336 C1335 1.398 . S
C1336 C1337 1.391 . S
C1337 H1325 0.950 . S
C1337 C1333 1.393 . S
C1337 C1336 1.391 . S
C1338 H1328 0.950 . S
C1338 C1339 1.386 . S
C1338 C1340 1.391 . S
C1339 C1338 1.386 . S
C1339 C1343 1.393 . S
C1340 H1329 0.950 . S
C1340 C1338 1.391 . S
C1340 C1341 1.400 . S
C1341 C1335 1.491 . S
C1341 C1340 1.400 . S
C1341 C1342 1.398 . S
C1342 H1330 0.950 . S
C1342 C1341 1.398 . S
C1342 C1343 1.391 . S
C1343 H1331 0.950 . S
C1343 C1339 1.393 . S
C1343 C1342 1.391 . S
H1344 C1352 0.950 . S
H1345 C1357 0.950 . S
H1346 C1354 0.950 . S
H1347 C1356 0.950 . S
H1348 C1358 0.950 1_455 S
H1349 C1360 0.950 . S
H1350 C1362 0.950 . S
H1351 C1363 0.950 . S
C1352 H1344 0.950 . S
C1352 C1353 1.386 . S
C1352 C1354 1.391 . S
C1353 C1352 1.386 . S
C1353 C1357 1.393 . S
C1354 H1346 0.950 . S
C1354 C1352 1.391 . S
C1354 C1355 1.400 . S
C1355 C1354 1.400 . S
C1355 C1356 1.398 . S
C1355 C1361 1.491 . S
C1356 H1347 0.950 . S
C1356 C1355 1.398 . S
C1356 C1357 1.391 . S
C1357 H1345 0.950 . S
C1357 C1353 1.393 . S
C1357 C1356 1.391 . S
C1358 H1348 0.950 1_655 S
C1358 C1359 1.386 . S
C1358 C1360 1.391 . S
C1359 C1358 1.386 . S
C1359 C1363 1.393 . S
C1360 H1349 0.950 . S
C1360 C1358 1.391 . S
C1360 C1361 1.400 . S
C1361 C1355 1.491 . S
C1361 C1360 1.400 . S
C1361 C1362 1.398 . S
C1362 H1350 0.950 . S
C1362 C1361 1.398 . S
C1362 C1363 1.391 . S
C1363 H1351 0.950 . S
C1363 C1359 1.393 . S
C1363 C1362 1.391 . S
H1364 C1372 0.950 . S
H1365 C1377 0.950 . S
H1366 C1374 0.950 . S
H1367 C1376 0.950 . S
H1368 C1378 0.950 . S
H1369 C1380 0.950 . S
H1370 C1382 0.950 . S
H1371 C1383 0.950 . S
C1372 H1364 0.950 . S
C1372 C1373 1.386 . S
C1372 C1374 1.391 . S
C1373 C1372 1.386 . S
C1373 C1377 1.393 . S
C1374 H1366 0.950 . S
C1374 C1372 1.391 . S
C1374 C1375 1.400 . S
C1375 C1374 1.400 . S
C1375 C1376 1.398 . S
C1375 C1381 1.491 . S
C1376 H1367 0.950 . S
C1376 C1375 1.398 . S
C1376 C1377 1.391 . S
C1377 H1365 0.950 . S
C1377 C1373 1.393 . S
C1377 C1376 1.391 . S
C1378 H1368 0.950 . S
C1378 C1379 1.386 . S
C1378 C1380 1.391 . S
C1379 C1378 1.386 . S
C1379 C1383 1.393 . S
C1380 H1369 0.950 . S
C1380 C1378 1.391 . S
C1380 C1381 1.400 . S
C1381 C1375 1.491 . S
C1381 C1380 1.400 . S
C1381 C1382 1.398 . S
C1382 H1370 0.950 . S
C1382 C1381 1.398 . S
C1382 C1383 1.391 . S
C1383 H1371 0.950 . S
C1383 C1379 1.393 . S
C1383 C1382 1.391 . S
H1384 C1392 0.950 . S
H1385 C1397 0.950 . S
H1386 C1394 0.950 . S
H1387 C1396 0.950 . S
H1388 C1398 0.950 . S
H1389 C1400 0.950 . S
H1390 C1402 0.950 . S
H1391 C1403 0.950 . S
C1392 H1384 0.950 . S
C1392 C1393 1.386 . S
C1392 C1394 1.391 . S
C1393 C1392 1.386 . S
C1393 C1397 1.400 . S
C1394 H1386 0.950 . S
C1394 C1392 1.391 . S
C1394 C1395 1.400 1_545 S
C1395 C1394 1.400 1_565 S
C1395 C1396 1.398 . S
C1395 C1401 1.491 . S
C1396 H1387 0.950 . S
C1396 C1395 1.398 . S
C1396 C1397 1.386 1_565 S
C1397 H1385 0.950 . S
C1397 C1393 1.400 . S
C1397 C1396 1.386 1_545 S
C1398 H1388 0.950 . S
C1398 C1399 1.386 . S
C1398 C1400 1.391 . S
C1399 C1398 1.386 . S
C1399 C1403 1.393 . S
C1400 H1389 0.950 . S
C1400 C1398 1.391 . S
C1400 C1401 1.400 . S
C1401 C1395 1.491 . S
C1401 C1400 1.400 . S
C1401 C1402 1.398 . S
C1402 H1390 0.950 . S
C1402 C1401 1.398 . S
C1402 C1403 1.391 . S
C1403 H1391 0.950 . S
C1403 C1399 1.393 . S
C1403 C1402 1.391 . S
H1404 C1412 0.950 . S
H1405 C1417 0.950 . S
H1406 C1414 0.950 . S
H1407 C1416 0.950 . S
H1408 C1418 0.950 . S
H1409 C1420 0.950 . S
H1410 C1422 0.950 . S
H1411 C1423 0.950 . S
C1412 H1404 0.950 . S
C1412 C1413 1.386 . S
C1412 C1414 1.391 . S
C1413 C1412 1.386 . S
C1413 C1417 1.393 . S
C1414 H1406 0.950 . S
C1414 C1412 1.391 . S
C1414 C1415 1.400 . S
C1415 C1414 1.400 . S
C1415 C1416 1.398 . S
C1415 C1421 1.491 . S
C1416 H1407 0.950 . S
C1416 C1415 1.398 . S
C1416 C1417 1.391 . S
C1417 H1405 0.950 . S
C1417 C1413 1.393 . S
C1417 C1416 1.391 . S
C1418 H1408 0.950 . S
C1418 C1419 1.386 . S
C1418 C1420 1.391 . S
C1419 C1418 1.386 . S
C1419 C1423 1.393 . S
C1420 H1409 0.950 . S
C1420 C1418 1.391 . S
C1420 C1421 1.400 . S
C1421 C1415 1.491 . S
C1421 C1420 1.400 . S
C1421 C1422 1.398 . S
C1422 H1410 0.950 . S
C1422 C1421 1.398 . S
C1422 C1423 1.391 . S
C1423 H1411 0.950 . S
C1423 C1419 1.393 . S
C1423 C1422 1.391 . S
H1424 C1432 0.950 . S
H1425 C1437 0.950 . S
H1426 C1434 0.950 . S
H1427 C1436 0.950 1_565 S
H1428 C1438 0.950 . S
H1429 C1440 0.950 . S
H1430 C1442 0.950 . S
H1431 C1443 0.950 1_455 S
C1432 H1424 0.950 . S
C1432 C1433 1.386 . S
C1432 C1434 1.391 . S
C1433 C1432 1.386 . S
C1433 C1437 1.393 . S
C1434 H1426 0.950 . S
C1434 C1432 1.391 . S
C1434 C1435 1.400 . S
C1435 C1434 1.400 . S
C1435 C1436 1.398 . S
C1435 C1441 1.491 . S
C1436 H1427 0.950 1_545 S
C1436 C1435 1.398 . S
C1436 C1437 1.391 . S
C1437 H1425 0.950 . S
C1437 C1433 1.393 . S
C1437 C1436 1.391 . S
C1438 H1428 0.950 . S
C1438 C1439 1.386 . S
C1438 C1440 1.391 . S
C1439 C1438 1.386 . S
C1439 C1443 1.393 1_565 S
C1440 H1429 0.950 . S
C1440 C1438 1.391 . S
C1440 C1441 1.400 1_565 S
C1441 C1435 1.491 . S
C1441 C1440 1.400 1_545 S
C1441 C1442 1.398 . S
C1442 H1430 0.950 . S
C1442 C1441 1.398 . S
C1442 C1443 1.391 . S
C1443 H1431 0.950 1_655 S
C1443 C1439 1.393 1_545 S
C1443 C1442 1.391 . S
H1444 C1452 0.950 . S
H1445 C1457 0.950 . S
H1446 C1454 0.950 . S
H1447 C1456 0.950 . S
H1448 C1458 0.950 . S
H1449 C1460 0.950 . S
H1450 C1462 0.950 . S
H1451 C1463 0.950 . S
C1452 H1444 0.950 . S
C1452 C1453 1.386 . S
C1452 C1454 1.391 . S
C1453 C1452 1.386 . S
C1453 C1457 1.393 . S
C1454 H1446 0.950 . S
C1454 C1452 1.391 . S
C1454 C1455 1.400 . S
C1455 C1454 1.400 . S
C1455 C1456 1.398 . S
C1455 C1461 1.491 . S
C1456 H1447 0.950 . S
C1456 C1455 1.398 . S
C1456 C1457 1.391 . S
C1457 H1445 0.950 . S
C1457 C1453 1.393 . S
C1457 C1456 1.391 . S
C1458 H1448 0.950 . S
C1458 C1459 1.386 . S
C1458 C1460 1.391 . S
C1459 C1458 1.386 . S
C1459 C1463 1.393 . S
C1460 H1449 0.950 . S
C1460 C1458 1.391 . S
C1460 C1461 1.400 . S
C1461 C1455 1.491 . S
C1461 C1460 1.400 . S
C1461 C1462 1.398 . S
C1462 H1450 0.950 . S
C1462 C1461 1.398 . S
C1462 C1463 1.391 . S
C1463 H1451 0.950 . S
C1463 C1459 1.393 . S
C1463 C1462 1.391 . S
H1464 C1472 0.957 . S
H1465 C1477 0.950 . S
H1466 C1474 0.953 . S
H1467 C1476 0.950 . S
H1468 C1478 0.950 . S
H1469 C1480 0.950 . S
H1470 C1482 0.950 . S
H1471 C1483 0.950 . S
C1472 H1464 0.957 . S
C1472 C1473 1.384 1_565 S
C1472 C1474 1.387 1_565 S
C1473 C1472 1.384 1_545 S
C1473 C1477 1.393 . S
C1474 H1466 0.953 . S
C1474 C1472 1.387 1_545 S
C1474 C1475 1.400 . S
C1475 C1474 1.400 . S
C1475 C1476 1.398 . S
C1475 C1481 1.491 . S
C1476 H1467 0.950 . S
C1476 C1475 1.398 . S
C1476 C1477 1.391 . S
C1477 H1465 0.950 . S
C1477 C1473 1.393 . S
C1477 C1476 1.391 . S
C1478 H1468 0.950 . S
C1478 C1479 1.386 . S
C1478 C1480 1.391 . S
C1479 C1478 1.386 . S
C1479 C1483 1.393 . S
C1480 H1469 0.950 . S
C1480 C1478 1.391 . S
C1480 C1481 1.400 . S
C1481 C1475 1.491 . S
C1481 C1480 1.400 . S
C1481 C1482 1.398 . S
C1482 H1470 0.950 . S
C1482 C1481 1.398 . S
C1482 C1483 1.391 . S
C1483 H1471 0.950 . S
C1483 C1479 1.393 . S
C1483 C1482 1.391 . S
H1484 C1492 0.950 . S
H1485 C1497 0.950 . S
H1486 C1494 0.950 . S
H1487 C1496 0.950 . S
H1488 C1498 0.950 . S
H1489 C1500 0.950 . S
H1490 C1502 0.950 . S
H1491 C1503 0.950 . S
C1492 H1484 0.950 . S
C1492 C1493 1.386 . S
C1492 C1494 1.391 . S
C1493 C1492 1.386 . S
C1493 C1497 1.393 . S
C1494 H1486 0.950 . S
C1494 C1492 1.391 . S
C1494 C1495 1.400 . S
C1495 C1494 1.400 . S
C1495 C1496 1.398 . S
C1495 C1501 1.491 . S
C1496 H1487 0.950 . S
C1496 C1495 1.398 . S
C1496 C1497 1.391 . S
C1497 H1485 0.950 . S
C1497 C1493 1.393 . S
C1497 C1496 1.391 . S
C1498 H1488 0.950 . S
C1498 C1499 1.386 . S
C1498 C1500 1.391 . S
C1499 C1498 1.386 . S
C1499 C1503 1.393 . S
C1500 H1489 0.950 . S
C1500 C1498 1.391 . S
C1500 C1501 1.400 . S
C1501 C1495 1.491 . S
C1501 C1500 1.400 . S
C1501 C1502 1.398 . S
C1502 H1490 0.950 . S
C1502 C1501 1.398 . S
C1502 C1503 1.391 . S
C1503 H1491 0.950 . S
C1503 C1499 1.393 . S
C1503 C1502 1.391 . S
H1504 C1512 0.950 . S
H1505 C1517 0.950 . S
H1506 C1514 0.950 . S
H1507 C1516 0.950 . S
H1508 C1518 0.950 1_556 S
H1509 C1520 0.985 . S
H1510 C1522 0.950 . S
H1511 C1523 0.950 . S
C1512 H1504 0.950 . S
C1512 C1513 1.386 . S
C1512 C1514 1.391 . S
C1513 C1512 1.386 . S
C1513 C1517 1.393 1_554 S
C1514 H1506 0.950 . S
C1514 C1512 1.391 . S
C1514 C1515 1.400 . S
C1515 C1514 1.400 . S
C1515 C1516 1.398 1_554 S
C1515 C1521 1.491 . S
C1516 H1507 0.950 . S
C1516 C1515 1.398 1_556 S
C1516 C1517 1.391 . S
C1517 H1505 0.950 . S
C1517 C1513 1.393 1_556 S
C1517 C1516 1.391 . S
C1518 H1508 0.950 1_554 S
C1518 C1519 1.386 . S
C1518 C1520 1.386 1_554 S
C1519 C1518 1.386 . S
C1519 C1523 1.393 . S
C1520 H1509 0.985 . S
C1520 C1518 1.386 1_556 S
C1520 C1521 1.372 1_556 S
C1521 C1515 1.491 . S
C1521 C1520 1.372 1_554 S
C1521 C1522 1.398 . S
C1522 H1510 0.950 . S
C1522 C1521 1.398 . S
C1522 C1523 1.391 . S
C1523 H1511 0.950 . S
C1523 C1519 1.393 . S
C1523 C1522 1.391 . S
H1524 C1532 0.950 . S
H1525 C1537 0.950 . S
H1526 C1534 0.950 . S
H1527 C1536 0.950 . S
H1528 C1538 0.950 . S
H1529 C1540 0.950 . S
H1530 C1542 0.950 . S
H1531 C1543 0.950 . S
C1532 H1524 0.950 . S
C1532 C1533 1.386 1_556 S
C1532 C1534 1.391 . S
C1533 C1532 1.386 1_554 S
C1533 C1537 1.393 . S
C1534 H1526 0.950 . S
C1534 C1532 1.391 . S
C1534 C1535 1.400 . S
C1535 C1534 1.400 . S
C1535 C1536 1.398 1_556 S
C1535 C1541 1.491 . S
C1536 H1527 0.950 . S
C1536 C1535 1.398 1_554 S
C1536 C1537 1.391 . S
C1537 H1525 0.950 . S
C1537 C1533 1.393 . S
C1537 C1536 1.391 . S
C1538 H1528 0.950 . S
C1538 C1539 1.386 1_554 S
C1538 C1540 1.391 . S
C1539 C1538 1.386 1_556 S
C1539 C1543 1.393 . S
C1540 H1529 0.950 . S
C1540 C1538 1.391 . S
C1540 C1541 1.400 1_554 S
C1541 C1535 1.491 . S
C1541 C1540 1.400 1_556 S
C1541 C1542 1.398 . S
C1542 H1530 0.950 . S
C1542 C1541 1.398 . S
C1542 C1543 1.391 . S
C1543 H1531 0.950 . S
C1543 C1539 1.393 . S
C1543 C1542 1.391 . S
H1544 C1552 0.950 . S
H1545 C1557 0.950 . S
H1546 C1554 0.950 . S
H1547 C1556 0.950 . S
H1548 C1558 0.950 . S
H1549 C1560 0.950 . S
H1550 C1562 0.950 . S
H1551 C1563 0.950 . S
C1552 H1544 0.950 . S
C1552 C1553 1.386 . S
C1552 C1554 1.391 . S
C1553 C1552 1.386 . S
C1553 C1557 1.393 . S
C1554 H1546 0.950 . S
C1554 C1552 1.391 . S
C1554 C1555 1.400 . S
C1555 C1554 1.400 . S
C1555 C1556 1.398 . S
C1555 C1561 1.491 . S
C1556 H1547 0.950 . S
C1556 C1555 1.398 . S
C1556 C1557 1.391 . S
C1557 H1545 0.950 . S
C1557 C1553 1.393 . S
C1557 C1556 1.391 . S
C1558 H1548 0.950 . S
C1558 C1559 1.386 . S
C1558 C1560 1.391 . S
C1559 C1558 1.386 . S
C1559 C1563 1.393 . S
C1560 H1549 0.950 . S
C1560 C1558 1.391 . S
C1560 C1561 1.400 . S
C1561 C1555 1.491 . S
C1561 C1560 1.400 . S
C1561 C1562 1.398 . S
C1562 H1550 0.950 . S
C1562 C1561 1.398 . S
C1562 C1563 1.391 . S
C1563 H1551 0.950 . S
C1563 C1559 1.393 . S
C1563 C1562 1.391 . S
H1564 C1572 0.950 . S
H1565 C1577 0.950 . S
H1566 C1574 0.950 . S
H1567 C1576 0.950 . S
H1568 C1578 0.950 . S
H1569 C1580 0.950 . S
H1570 C1582 0.950 . S
H1571 C1583 0.950 . S
C1572 H1564 0.950 . S
C1572 C1573 1.386 . S
C1572 C1574 1.391 . S
C1573 C1572 1.386 . S
C1573 C1577 1.393 . S
C1574 H1566 0.950 . S
C1574 C1572 1.391 . S
C1574 C1575 1.400 . S
C1575 C1574 1.400 . S
C1575 C1576 1.398 . S
C1575 C1581 1.491 . S
C1576 H1567 0.950 . S
C1576 C1575 1.398 . S
C1576 C1577 1.391 . S
C1577 H1565 0.950 . S
C1577 C1573 1.393 . S
C1577 C1576 1.391 . S
C1578 H1568 0.950 . S
C1578 C1579 1.386 . S
C1578 C1580 1.391 . S
C1579 C1578 1.386 . S
C1579 C1583 1.393 . S
C1580 H1569 0.950 . S
C1580 C1578 1.391 . S
C1580 C1581 1.400 . S
C1581 C1575 1.491 . S
C1581 C1580 1.400 . S
C1581 C1582 1.398 . S
C1582 H1570 0.950 . S
C1582 C1581 1.398 . S
C1582 C1583 1.391 . S
C1583 H1571 0.950 . S
C1583 C1579 1.393 . S
C1583 C1582 1.391 . S
H1584 C1592 0.950 . S
H1585 C1597 0.950 . S
H1586 C1594 0.950 . S
H1587 C1596 0.950 . S
H1588 C1598 0.950 . S
H1589 C1600 0.950 . S
H1590 C1602 0.950 . S
H1591 C1603 0.950 . S
C1592 H1584 0.950 . S
C1592 C1593 1.386 . S
C1592 C1594 1.391 . S
C1593 C1592 1.386 . S
C1593 C1597 1.393 . S
C1594 H1586 0.950 . S
C1594 C1592 1.391 . S
C1594 C1595 1.400 . S
C1595 C1594 1.400 . S
C1595 C1596 1.398 . S
C1595 C1601 1.491 . S
C1596 H1587 0.950 . S
C1596 C1595 1.398 . S
C1596 C1597 1.391 . S
C1597 H1585 0.950 . S
C1597 C1593 1.393 . S
C1597 C1596 1.391 . S
C1598 H1588 0.950 . S
C1598 C1599 1.386 . S
C1598 C1600 1.391 . S
C1599 C1598 1.386 . S
C1599 C1603 1.393 . S
C1600 H1589 0.950 . S
C1600 C1598 1.391 . S
C1600 C1601 1.400 . S
C1601 C1595 1.491 . S
C1601 C1600 1.400 . S
C1601 C1602 1.398 . S
C1602 H1590 0.950 . S
C1602 C1601 1.398 . S
C1602 C1603 1.391 . S
C1603 H1591 0.950 . S
C1603 C1599 1.393 . S
C1603 C1602 1.391 . S
H1604 C1612 0.950 . S
H1605 C1617 0.950 . S
H1606 C1614 0.950 . S
H1607 C1616 0.950 . S
H1608 C1618 0.950 . S
H1609 C1620 0.950 . S
H1610 C1622 0.950 . S
H1611 C1623 0.950 . S
C1612 H1604 0.950 . S
C1612 C1613 1.386 . S
C1612 C1614 1.391 . S
C1613 C1612 1.386 . S
C1613 C1617 1.393 . S
C1614 H1606 0.950 . S
C1614 C1612 1.391 . S
C1614 C1615 1.400 . S
C1615 C1614 1.400 . S
C1615 C1616 1.398 . S
C1615 C1621 1.491 . S
C1616 H1607 0.950 . S
C1616 C1615 1.398 . S
C1616 C1617 1.391 . S
C1617 H1605 0.950 . S
C1617 C1613 1.393 . S
C1617 C1616 1.391 . S
C1618 H1608 0.950 . S
C1618 C1619 1.386 . S
C1618 C1620 1.391 . S
C1619 C1618 1.386 . S
C1619 C1623 1.393 . S
C1620 H1609 0.950 . S
C1620 C1618 1.391 . S
C1620 C1621 1.400 . S
C1621 C1615 1.491 . S
C1621 C1620 1.400 . S
C1621 C1622 1.398 . S
C1622 H1610 0.950 . S
C1622 C1621 1.398 . S
C1622 C1623 1.391 . S
C1623 H1611 0.950 . S
C1623 C1619 1.393 . S
C1623 C1622 1.391 . S
H1624 C1632 0.950 . S
H1625 C1637 0.950 . S
H1626 C1634 0.950 . S
H1627 C1636 0.950 . S
H1628 C1638 0.950 . S
H1629 C1640 0.950 . S
H1630 C1642 0.950 . S
H1631 C1643 0.950 . S
C1632 H1624 0.950 . S
C1632 C1633 1.386 . S
C1632 C1634 1.391 . S
C1633 C1632 1.386 . S
C1633 C1637 1.393 . S
C1634 H1626 0.950 . S
C1634 C1632 1.391 . S
C1634 C1635 1.400 . S
C1635 C1634 1.400 . S
C1635 C1636 1.398 . S
C1635 C1641 1.491 . S
C1636 H1627 0.950 . S
C1636 C1635 1.398 . S
C1636 C1637 1.391 . S
C1637 H1625 0.950 . S
C1637 C1633 1.393 . S
C1637 C1636 1.391 . S
C1638 H1628 0.950 . S
C1638 C1639 1.386 . S
C1638 C1640 1.391 . S
C1639 C1638 1.386 . S
C1639 C1643 1.393 . S
C1640 H1629 0.950 . S
C1640 C1638 1.391 . S
C1640 C1641 1.400 . S
C1641 C1635 1.491 . S
C1641 C1640 1.400 . S
C1641 C1642 1.398 . S
C1642 H1630 0.950 . S
C1642 C1641 1.398 . S
C1642 C1643 1.391 . S
C1643 H1631 0.950 . S
C1643 C1639 1.393 . S
C1643 C1642 1.391 . S
H1644 C1652 0.950 . S
H1645 C1657 0.950 . S
H1646 C1654 0.950 . S
H1647 C1656 0.950 . S
H1648 C1658 0.950 . S
H1649 C1660 0.950 . S
H1650 C1662 0.950 . S
H1651 C1663 0.950 . S
C1652 H1644 0.950 . S
C1652 C1653 1.386 . S
C1652 C1654 1.391 . S
C1653 C1652 1.386 . S
C1653 C1657 1.393 . S
C1654 H1646 0.950 . S
C1654 C1652 1.391 . S
C1654 C1655 1.400 . S
C1655 C1654 1.400 . S
C1655 C1656 1.398 . S
C1655 C1661 1.491 . S
C1656 H1647 0.950 . S
C1656 C1655 1.398 . S
C1656 C1657 1.391 . S
C1657 H1645 0.950 . S
C1657 C1653 1.393 . S
C1657 C1656 1.391 . S
C1658 H1648 0.950 . S
C1658 C1659 1.386 . S
C1658 C1660 1.391 . S
C1659 C1658 1.386 . S
C1659 C1663 1.393 . S
C1660 H1649 0.950 . S
C1660 C1658 1.391 . S
C1660 C1661 1.400 . S
C1661 C1655 1.491 . S
C1661 C1660 1.400 . S
C1661 C1662 1.398 . S
C1662 H1650 0.950 . S
C1662 C1661 1.398 . S
C1662 C1663 1.391 . S
C1663 H1651 0.950 . S
C1663 C1659 1.393 . S
C1663 C1662 1.391 . S
H1664 C1672 0.950 . S
H1665 C1677 0.950 . S
H1666 C1674 0.950 . S
H1667 C1676 0.950 . S
H1668 C1678 0.950 . S
H1669 C1680 0.950 . S
H1670 C1682 0.950 . S
H1671 C1683 0.950 . S
C1672 H1664 0.950 . S
C1672 C1673 1.386 . S
C1672 C1674 1.391 . S
C1673 C1672 1.386 . S
C1673 C1677 1.393 . S
C1674 H1666 0.950 . S
C1674 C1672 1.391 . S
C1674 C1675 1.400 . S
C1675 C1674 1.400 . S
C1675 C1676 1.398 . S
C1675 C1681 1.491 . S
C1676 H1667 0.950 . S
C1676 C1675 1.398 . S
C1676 C1677 1.391 . S
C1677 H1665 0.950 . S
C1677 C1673 1.393 . S
C1677 C1676 1.391 . S
C1678 H1668 0.950 . S
C1678 C1679 1.386 . S
C1678 C1680 1.391 . S
C1679 C1678 1.386 . S
C1679 C1683 1.393 . S
C1680 H1669 0.950 . S
C1680 C1678 1.391 . S
C1680 C1681 1.400 . S
C1681 C1675 1.491 . S
C1681 C1680 1.400 . S
C1681 C1682 1.398 . S
C1682 H1670 0.950 . S
C1682 C1681 1.398 . S
C1682 C1683 1.391 . S
C1683 H1671 0.950 . S
C1683 C1679 1.393 . S
C1683 C1682 1.391 . S
H1684 C1692 0.950 . S
H1685 C1697 0.950 . S
H1686 C1694 0.950 . S
H1687 C1696 0.950 . S
H1688 C1698 0.950 . S
H1689 C1700 0.950 . S
H1690 C1702 0.950 . S
H1691 C1703 0.950 . S
C1692 H1684 0.950 . S
C1692 C1693 1.386 . S
C1692 C1694 1.391 . S
C1693 C1692 1.386 . S
C1693 C1697 1.393 . S
C1694 H1686 0.950 . S
C1694 C1692 1.391 . S
C1694 C1695 1.400 . S
C1695 C1694 1.400 . S
C1695 C1696 1.398 . S
C1695 C1701 1.491 . S
C1696 H1687 0.950 . S
C1696 C1695 1.398 . S
C1696 C1697 1.391 . S
C1697 H1685 0.950 . S
C1697 C1693 1.393 . S
C1697 C1696 1.391 . S
C1698 H1688 0.950 . S
C1698 C1699 1.386 . S
C1698 C1700 1.391 . S
C1699 C1698 1.386 . S
C1699 C1703 1.393 . S
C1700 H1689 0.950 . S
C1700 C1698 1.391 . S
C1700 C1701 1.400 . S
C1701 C1695 1.491 . S
C1701 C1700 1.400 . S
C1701 C1702 1.398 . S
C1702 H1690 0.950 . S
C1702 C1701 1.398 . S
C1702 C1703 1.391 . S
C1703 H1691 0.950 . S
C1703 C1699 1.393 . S
C1703 C1702 1.391 . S
H1704 C1712 0.950 . S
H1705 C1717 0.950 . S
H1706 C1714 0.950 . S
H1707 C1716 0.950 . S
H1708 C1718 0.950 . S
H1709 C1720 0.950 . S
H1710 C1722 0.950 1_655 S
H1711 C1723 0.950 1_655 S
C1712 H1704 0.950 . S
C1712 C1713 1.386 1_655 S
C1712 C1714 1.391 . S
C1713 C1712 1.386 1_455 S
C1713 C1717 1.393 . S
C1714 H1706 0.950 . S
C1714 C1712 1.391 . S
C1714 C1715 1.400 1_655 S
C1715 C1714 1.400 1_455 S
C1715 C1716 1.398 . S
C1715 C1721 1.491 . S
C1716 H1707 0.950 . S
C1716 C1715 1.398 . S
C1716 C1717 1.391 . S
C1717 H1705 0.950 . S
C1717 C1713 1.393 . S
C1717 C1716 1.391 . S
C1718 H1708 0.950 . S
C1718 C1719 1.386 . S
C1718 C1720 1.391 . S
C1719 C1718 1.386 . S
C1719 C1723 1.393 . S
C1720 H1709 0.950 . S
C1720 C1718 1.391 . S
C1720 C1721 1.400 . S
C1721 C1715 1.491 . S
C1721 C1720 1.400 . S
C1721 C1722 1.398 . S
C1722 H1710 0.950 1_455 S
C1722 C1721 1.398 . S
C1722 C1723 1.391 . S
C1723 H1711 0.950 1_455 S
C1723 C1719 1.393 . S
C1723 C1722 1.391 . S
H1724 C1732 0.950 . S
H1725 C1737 0.950 . S
H1726 C1734 0.950 . S
H1727 C1736 0.950 . S
H1728 C1738 0.950 . S
H1729 C1740 0.950 . S
H1730 C1742 0.950 . S
H1731 C1743 0.950 . S
C1732 H1724 0.950 . S
C1732 C1733 1.386 . S
C1732 C1734 1.391 . S
C1733 C1732 1.386 . S
C1733 C1737 1.393 . S
C1734 H1726 0.950 . S
C1734 C1732 1.391 . S
C1734 C1735 1.400 . S
C1735 C1734 1.400 . S
C1735 C1736 1.398 . S
C1735 C1741 1.491 . S
C1736 H1727 0.950 . S
C1736 C1735 1.398 . S
C1736 C1737 1.391 . S
C1737 H1725 0.950 . S
C1737 C1733 1.393 . S
C1737 C1736 1.391 . S
C1738 H1728 0.950 . S
C1738 C1739 1.386 . S
C1738 C1740 1.391 . S
C1739 C1738 1.386 . S
C1739 C1743 1.393 . S
C1740 H1729 0.950 . S
C1740 C1738 1.391 . S
C1740 C1741 1.400 . S
C1741 C1735 1.491 . S
C1741 C1740 1.400 . S
C1741 C1742 1.398 . S
C1742 H1730 0.950 . S
C1742 C1741 1.398 . S
C1742 C1743 1.391 . S
C1743 H1731 0.950 . S
C1743 C1739 1.393 . S
C1743 C1742 1.391 . S
H1744 C1752 0.950 . S
H1745 C1757 0.950 . S
H1746 C1754 0.950 . S
H1747 C1756 0.950 . S
H1748 C1758 0.950 . S
H1749 C1760 0.950 . S
H1750 C1762 0.950 . S
H1751 C1763 0.950 . S
C1752 H1744 0.950 . S
C1752 C1753 1.386 . S
C1752 C1754 1.391 . S
C1753 C1752 1.386 . S
C1753 C1757 1.393 . S
C1754 H1746 0.950 . S
C1754 C1752 1.391 . S
C1754 C1755 1.400 . S
C1755 C1754 1.400 . S
C1755 C1756 1.398 . S
C1755 C1761 1.491 . S
C1756 H1747 0.950 . S
C1756 C1755 1.398 . S
C1756 C1757 1.391 . S
C1757 H1745 0.950 . S
C1757 C1753 1.393 . S
C1757 C1756 1.391 . S
C1758 H1748 0.950 . S
C1758 C1759 1.386 1_554 S
C1758 C1760 1.391 1_554 S
C1759 C1758 1.386 1_556 S
C1759 C1763 1.393 . S
C1760 H1749 0.950 . S
C1760 C1758 1.391 1_556 S
C1760 C1761 1.400 . S
C1761 C1755 1.491 . S
C1761 C1760 1.400 . S
C1761 C1762 1.398 . S
C1762 H1750 0.950 . S
C1762 C1761 1.398 . S
C1762 C1763 1.391 . S
C1763 H1751 0.950 . S
C1763 C1759 1.393 . S
C1763 C1762 1.391 . S
H1764 C1772 0.950 . S
H1765 C1777 0.950 . S
H1766 C1774 0.950 . S
H1767 C1776 0.950 . S
H1768 C1778 0.950 . S
H1769 C1780 0.950 . S
H1770 C1782 0.950 . S
H1771 C1783 0.950 . S
C1772 H1764 0.950 . S
C1772 C1773 1.386 . S
C1772 C1774 1.391 . S
C1773 C1772 1.386 . S
C1773 C1777 1.393 . S
C1774 H1766 0.950 . S
C1774 C1772 1.391 . S
C1774 C1775 1.400 . S
C1775 C1774 1.400 . S
C1775 C1776 1.398 . S
C1775 C1781 1.491 . S
C1776 H1767 0.950 . S
C1776 C1775 1.398 . S
C1776 C1777 1.391 . S
C1777 H1765 0.950 . S
C1777 C1773 1.393 . S
C1777 C1776 1.391 . S
C1778 H1768 0.950 . S
C1778 C1779 1.386 . S
C1778 C1780 1.391 . S
C1779 C1778 1.386 . S
C1779 C1783 1.393 . S
C1780 H1769 0.950 . S
C1780 C1778 1.391 . S
C1780 C1781 1.400 . S
C1781 C1775 1.491 . S
C1781 C1780 1.400 . S
C1781 C1782 1.398 . S
C1782 H1770 0.950 . S
C1782 C1781 1.398 . S
C1782 C1783 1.391 . S
C1783 H1771 0.950 . S
C1783 C1779 1.393 . S
C1783 C1782 1.391 . S
H1784 C1792 0.950 . S
H1785 C1797 0.950 . S
H1786 C1794 0.950 . S
H1787 C1796 0.952 1_655 S
H1788 C1798 0.950 . S
H1789 C1800 0.944 1_655 S
H1790 C1802 0.950 . S
H1791 C1803 0.950 . S
C1792 H1784 0.950 . S
C1792 C1793 1.386 . S
C1792 C1794 1.391 . S
C1793 C1792 1.386 . S
C1793 C1797 1.393 1_455 S
C1794 H1786 0.950 . S
C1794 C1792 1.391 . S
C1794 C1795 1.400 . S
C1795 C1794 1.400 . S
C1795 C1796 1.396 . S
C1795 C1801 1.491 . S
C1796 H1787 0.952 1_455 S
C1796 C1795 1.396 . S
C1796 C1797 1.391 1_455 S
C1797 H1785 0.950 . S
C1797 C1793 1.393 1_655 S
C1797 C1796 1.391 1_655 S
C1798 H1788 0.950 . S
C1798 C1799 1.386 . S
C1798 C1800 1.391 . S
C1799 C1798 1.386 . S
C1799 C1803 1.393 . S
C1800 H1789 0.944 1_455 S
C1800 C1798 1.391 . S
C1800 C1801 1.400 . S
C1801 C1795 1.491 . S
C1801 C1800 1.400 . S
C1801 C1802 1.398 . S
C1802 H1790 0.950 . S
C1802 C1801 1.398 . S
C1802 C1803 1.391 . S
C1803 H1791 0.950 . S
C1803 C1799 1.393 . S
C1803 C1802 1.391 . S
H1804 C1812 0.950 . S
H1805 C1817 0.950 . S
H1806 C1814 0.950 . S
H1807 C1816 0.950 . S
H1808 C1818 0.950 . S
H1809 C1820 0.950 . S
H1810 C1822 0.950 . S
H1811 C1823 0.950 . S
C1812 H1804 0.950 . S
C1812 C1813 1.386 . S
C1812 C1814 1.391 . S
C1813 C1812 1.386 . S
C1813 C1817 1.393 . S
C1814 H1806 0.950 . S
C1814 C1812 1.391 . S
C1814 C1815 1.400 . S
C1815 C1814 1.400 . S
C1815 C1816 1.398 . S
C1815 C1821 1.491 . S
C1816 H1807 0.950 . S
C1816 C1815 1.398 . S
C1816 C1817 1.391 . S
C1817 H1805 0.950 . S
C1817 C1813 1.393 . S
C1817 C1816 1.391 . S
C1818 H1808 0.950 . S
C1818 C1819 1.386 . S
C1818 C1820 1.391 . S
C1819 C1818 1.386 . S
C1819 C1823 1.393 . S
C1820 H1809 0.950 . S
C1820 C1818 1.391 . S
C1820 C1821 1.400 . S
C1821 C1815 1.491 . S
C1821 C1820 1.400 . S
C1821 C1822 1.398 . S
C1822 H1810 0.950 . S
C1822 C1821 1.398 . S
C1822 C1823 1.391 . S
C1823 H1811 0.950 . S
C1823 C1819 1.393 . S
C1823 C1822 1.391 . S
H1824 C1832 0.950 . S
H1825 C1837 0.950 . S
H1826 C1834 0.950 . S
H1827 C1836 0.950 . S
H1828 C1838 0.950 . S
H1829 C1840 0.950 . S
H1830 C1842 0.950 . S
H1831 C1843 0.950 . S
C1832 H1824 0.950 . S
C1832 C1833 1.386 . S
C1832 C1834 1.391 . S
C1833 C1832 1.386 . S
C1833 C1837 1.393 . S
C1834 H1826 0.950 . S
C1834 C1832 1.391 . S
C1834 C1835 1.400 . S
C1835 C1834 1.400 . S
C1835 C1836 1.398 . S
C1835 C1841 1.491 . S
C1836 H1827 0.950 . S
C1836 C1835 1.398 . S
C1836 C1837 1.391 . S
C1837 H1825 0.950 . S
C1837 C1833 1.393 . S
C1837 C1836 1.391 . S
C1838 H1828 0.950 . S
C1838 C1839 1.386 . S
C1838 C1840 1.391 . S
C1839 C1838 1.386 . S
C1839 C1843 1.393 . S
C1840 H1829 0.950 . S
C1840 C1838 1.391 . S
C1840 C1841 1.400 . S
C1841 C1835 1.491 . S
C1841 C1840 1.400 . S
C1841 C1842 1.398 . S
C1842 H1830 0.950 . S
C1842 C1841 1.398 . S
C1842 C1843 1.391 . S
C1843 H1831 0.950 . S
C1843 C1839 1.393 . S
C1843 C1842 1.391 . S
H1844 C1852 0.950 . S
H1845 C1857 0.950 . S
H1846 C1854 0.950 . S
H1847 C1856 0.950 . S
H1848 C1858 0.950 . S
H1849 C1860 0.950 . S
H1850 C1862 0.950 . S
H1851 C1863 0.950 . S
C1852 H1844 0.950 . S
C1852 C1853 1.386 . S
C1852 C1854 1.391 . S
C1853 C1852 1.386 . S
C1853 C1857 1.393 . S
C1854 H1846 0.950 . S
C1854 C1852 1.391 . S
C1854 C1855 1.400 . S
C1855 C1854 1.400 . S
C1855 C1856 1.398 . S
C1855 C1861 1.491 . S
C1856 H1847 0.950 . S
C1856 C1855 1.398 . S
C1856 C1857 1.391 . S
C1857 H1845 0.950 . S
C1857 C1853 1.393 . S
C1857 C1856 1.391 . S
C1858 H1848 0.950 . S
C1858 C1859 1.386 . S
C1858 C1860 1.391 . S
C1859 C1858 1.386 . S
C1859 C1863 1.393 . S
C1860 H1849 0.950 . S
C1860 C1858 1.391 . S
C1860 C1861 1.400 . S
C1861 C1855 1.491 . S
C1861 C1860 1.400 . S
C1861 C1862 1.398 . S
C1862 H1850 0.950 . S
C1862 C1861 1.398 . S
C1862 C1863 1.391 . S
C1863 H1851 0.950 . S
C1863 C1859 1.393 . S
C1863 C1862 1.391 . S
H1864 C1872 0.950 . S
H1865 C1877 0.950 . S
H1866 C1874 0.950 . S
H1867 C1876 0.950 . S
H1868 C1878 0.950 . S
H1869 C1880 0.950 . S
H1870 C1882 0.950 . S
H1871 C1883 0.950 1_455 S
C1872 H1864 0.950 . S
C1872 C1873 1.386 . S
C1872 C1874 1.391 . S
C1873 C1872 1.386 . S
C1873 C1877 1.393 . S
C1874 H1866 0.950 . S
C1874 C1872 1.391 . S
C1874 C1875 1.400 . S
C1875 C1874 1.400 . S
C1875 C1876 1.398 . S
C1875 C1881 1.491 . S
C1876 H1867 0.950 . S
C1876 C1875 1.398 . S
C1876 C1877 1.391 . S
C1877 H1865 0.950 . S
C1877 C1873 1.393 . S
C1877 C1876 1.391 . S
C1878 H1868 0.950 . S
C1878 C1879 1.386 . S
C1878 C1880 1.391 . S
C1879 C1878 1.386 . S
C1879 C1883 1.393 . S
C1880 H1869 0.950 . S
C1880 C1878 1.391 . S
C1880 C1881 1.400 . S
C1881 C1875 1.491 . S
C1881 C1880 1.400 . S
C1881 C1882 1.398 . S
C1882 H1870 0.950 . S
C1882 C1881 1.398 . S
C1882 C1883 1.391 . S
C1883 H1871 0.950 1_655 S
C1883 C1879 1.393 . S
C1883 C1882 1.391 . S
H1884 C1892 0.950 . S
H1885 C1897 0.950 . S
H1886 C1894 0.950 . S
H1887 C1896 0.950 . S
H1888 C1898 0.950 . S
H1889 C1900 0.950 . S
H1890 C1902 0.950 . S
H1891 C1903 0.950 . S
C1892 H1884 0.950 . S
C1892 C1893 1.386 . S
C1892 C1894 1.391 . S
C1893 C1892 1.386 . S
C1893 C1897 1.393 . S
C1894 H1886 0.950 . S
C1894 C1892 1.391 . S
C1894 C1895 1.400 . S
C1895 C1894 1.400 . S
C1895 C1896 1.398 . S
C1895 C1901 1.491 . S
C1896 H1887 0.950 . S
C1896 C1895 1.398 . S
C1896 C1897 1.391 . S
C1897 H1885 0.950 . S
C1897 C1893 1.393 . S
C1897 C1896 1.391 . S
C1898 H1888 0.950 . S
C1898 C1899 1.386 . S
C1898 C1900 1.391 . S
C1899 C1898 1.386 . S
C1899 C1903 1.393 . S
C1900 H1889 0.950 . S
C1900 C1898 1.391 . S
C1900 C1901 1.400 . S
C1901 C1895 1.491 . S
C1901 C1900 1.400 . S
C1901 C1902 1.398 . S
C1902 H1890 0.950 . S
C1902 C1901 1.398 . S
C1902 C1903 1.391 . S
C1903 H1891 0.950 . S
C1903 C1899 1.393 . S
C1903 C1902 1.391 . S
H1904 C1912 0.950 . S
H1905 C1917 0.950 . S
H1906 C1914 0.950 . S
H1907 C1916 0.950 . S
H1908 C1918 0.950 . S
H1909 C1920 0.950 . S
H1910 C1922 0.950 . S
H1911 C1923 0.950 . S
C1912 H1904 0.950 . S
C1912 C1913 1.386 . S
C1912 C1914 1.391 . S
C1913 C1912 1.386 . S
C1913 C1917 1.393 . S
C1914 H1906 0.950 . S
C1914 C1912 1.391 . S
C1914 C1915 1.400 . S
C1915 C1914 1.400 . S
C1915 C1916 1.398 . S
C1915 C1921 1.491 . S
C1916 H1907 0.950 . S
C1916 C1915 1.398 . S
C1916 C1917 1.391 . S
C1917 H1905 0.950 . S
C1917 C1913 1.393 . S
C1917 C1916 1.391 . S
C1918 H1908 0.950 . S
C1918 C1919 1.386 . S
C1918 C1920 1.391 . S
C1919 C1918 1.386 . S
C1919 C1923 1.393 . S
C1920 H1909 0.950 . S
C1920 C1918 1.391 . S
C1920 C1921 1.400 . S
C1921 C1915 1.491 . S
C1921 C1920 1.400 . S
C1921 C1922 1.398 . S
C1922 H1910 0.950 . S
C1922 C1921 1.398 . S
C1922 C1923 1.391 . S
C1923 H1911 0.950 . S
C1923 C1919 1.393 . S
C1923 C1922 1.391 . S
H1924 C1932 0.950 . S
H1925 C1937 0.950 . S
H1926 C1934 0.950 . S
H1927 C1936 0.950 . S
H1928 C1938 0.950 . S
H1929 C1940 0.950 . S
H1930 C1942 0.950 . S
H1931 C1943 0.950 . S
C1932 H1924 0.950 . S
C1932 C1933 1.386 . S
C1932 C1934 1.391 . S
C1933 C1932 1.386 . S
C1933 C1937 1.393 . S
C1934 H1926 0.950 . S
C1934 C1932 1.391 . S
C1934 C1935 1.400 . S
C1935 C1934 1.400 . S
C1935 C1936 1.398 . S
C1935 C1941 1.491 . S
C1936 H1927 0.950 . S
C1936 C1935 1.398 . S
C1936 C1937 1.391 . S
C1937 H1925 0.950 . S
C1937 C1933 1.393 . S
C1937 C1936 1.391 . S
C1938 H1928 0.950 . S
C1938 C1939 1.386 . S
C1938 C1940 1.391 . S
C1939 C1938 1.386 . S
C1939 C1943 1.393 . S
C1940 H1929 0.950 . S
C1940 C1938 1.391 . S
C1940 C1941 1.400 . S
C1941 C1935 1.491 . S
C1941 C1940 1.400 . S
C1941 C1942 1.398 . S
C1942 H1930 0.950 . S
C1942 C1941 1.398 . S
C1942 C1943 1.391 . S
C1943 H1931 0.950 . S
C1943 C1939 1.393 . S
C1943 C1942 1.391 . S
H1944 C1952 0.950 . S
H1945 C1957 0.950 . S
H1946 C1954 0.950 . S
H1947 C1956 0.950 . S
H1948 C1958 0.950 . S
H1949 C1960 0.950 . S
H1950 C1962 0.950 . S
H1951 C1963 0.930 1_455 S
C1952 H1944 0.950 . S
C1952 C1953 1.386 . S
C1952 C1954 1.391 . S
C1953 C1952 1.386 . S
C1953 C1957 1.393 . S
C1954 H1946 0.950 . S
C1954 C1952 1.391 . S
C1954 C1955 1.400 . S
C1955 C1954 1.400 . S
C1955 C1956 1.398 . S
C1955 C1961 1.491 . S
C1956 H1947 0.950 . S
C1956 C1955 1.398 . S
C1956 C1957 1.391 . S
C1957 H1945 0.950 . S
C1957 C1953 1.393 . S
C1957 C1956 1.391 . S
C1958 H1948 0.950 . S
C1958 C1959 1.386 . S
C1958 C1960 1.391 . S
C1959 C1958 1.386 . S
C1959 C1963 1.393 . S
C1960 H1949 0.950 . S
C1960 C1958 1.391 . S
C1960 C1961 1.400 . S
C1961 C1955 1.491 . S
C1961 C1960 1.400 . S
C1961 C1962 1.398 . S
C1962 H1950 0.950 . S
C1962 C1961 1.398 . S
C1962 C1963 1.391 . S
C1963 H1951 0.930 1_655 S
C1963 C1959 1.393 . S
C1963 C1962 1.391 . S
H1964 C1972 0.950 . S
H1965 C1977 0.950 . S
H1966 C1974 0.950 . S
H1967 C1976 0.950 . S
H1968 C1978 0.950 . S
H1969 C1980 0.950 . S
H1970 C1982 0.950 . S
H1971 C1983 0.950 . S
C1972 H1964 0.950 . S
C1972 C1973 1.386 . S
C1972 C1974 1.391 . S
C1973 C1972 1.386 . S
C1973 C1977 1.393 . S
C1974 H1966 0.950 . S
C1974 C1972 1.391 . S
C1974 C1975 1.400 . S
C1975 C1974 1.400 . S
C1975 C1976 1.398 . S
C1975 C1981 1.491 . S
C1976 H1967 0.950 . S
C1976 C1975 1.398 . S
C1976 C1977 1.391 . S
C1977 H1965 0.950 . S
C1977 C1973 1.393 . S
C1977 C1976 1.391 . S
C1978 H1968 0.950 . S
C1978 C1979 1.386 . S
C1978 C1980 1.391 . S
C1979 C1978 1.386 . S
C1979 C1983 1.393 . S
C1980 H1969 0.950 . S
C1980 C1978 1.391 . S
C1980 C1981 1.400 . S
C1981 C1975 1.491 . S
C1981 C1980 1.400 . S
C1981 C1982 1.398 . S
C1982 H1970 0.950 . S
C1982 C1981 1.398 . S
C1982 C1983 1.391 . S
C1983 H1971 0.950 . S
C1983 C1979 1.393 . S
C1983 C1982 1.391 . S
H1984 C1992 0.950 . S
H1985 C1997 0.950 . S
H1986 C1994 0.950 . S
H1987 C1996 0.950 . S
H1988 C1998 0.950 . S
H1989 C2000 0.950 . S
H1990 C2002 0.950 . S
H1991 C2003 0.950 . S
C1992 H1984 0.950 . S
C1992 C1993 1.386 . S
C1992 C1994 1.391 . S
C1993 C1992 1.386 . S
C1993 C1997 1.393 . S
C1994 H1986 0.950 . S
C1994 C1992 1.391 . S
C1994 C1995 1.400 . S
C1995 C1994 1.400 . S
C1995 C1996 1.398 . S
C1995 C2001 1.491 . S
C1996 H1987 0.950 . S
C1996 C1995 1.398 . S
C1996 C1997 1.391 . S
C1997 H1985 0.950 . S
C1997 C1993 1.393 . S
C1997 C1996 1.391 . S
C1998 H1988 0.950 . S
C1998 C1999 1.386 . S
C1998 C2000 1.391 . S
C1999 C1998 1.386 . S
C1999 C2003 1.393 . S
C2000 H1989 0.950 . S
C2000 C1998 1.391 . S
C2000 C2001 1.400 . S
C2001 C1995 1.491 . S
C2001 C2000 1.400 . S
C2001 C2002 1.398 . S
C2002 H1990 0.950 . S
C2002 C2001 1.398 . S
C2002 C2003 1.391 . S
C2003 H1991 0.950 . S
C2003 C1999 1.393 . S
C2003 C2002 1.391 . S
H2004 C2012 0.950 . S
H2005 C2017 0.950 . S
H2006 C2014 0.950 . S
H2007 C2016 0.950 . S
H2008 C2018 0.950 1_545 S
H2009 C2020 0.950 . S
H2010 C2022 0.950 . S
H2011 C2023 0.950 . S
C2012 H2004 0.950 . S
C2012 C2013 1.386 . S
C2012 C2014 1.391 . S
C2013 C2012 1.386 . S
C2013 C2017 1.393 . S
C2014 H2006 0.950 . S
C2014 C2012 1.391 . S
C2014 C2015 1.400 . S
C2015 C2014 1.400 . S
C2015 C2016 1.398 . S
C2015 C2021 1.491 . S
C2016 H2007 0.950 . S
C2016 C2015 1.398 . S
C2016 C2017 1.391 . S
C2017 H2005 0.950 . S
C2017 C2013 1.393 . S
C2017 C2016 1.391 . S
C2018 H2008 0.950 1_565 S
C2018 C2019 1.386 . S
C2018 C2020 1.391 . S
C2019 C2018 1.386 . S
C2019 C2023 1.393 . S
C2020 H2009 0.950 . S
C2020 C2018 1.391 . S
C2020 C2021 1.400 . S
C2021 C2015 1.491 . S
C2021 C2020 1.400 . S
C2021 C2022 1.398 . S
C2022 H2010 0.950 . S
C2022 C2021 1.398 . S
C2022 C2023 1.391 . S
C2023 H2011 0.950 . S
C2023 C2019 1.393 . S
C2023 C2022 1.391 . S
H2024 C2032 0.950 . S
H2025 C2037 0.950 . S
H2026 C2034 0.950 . S
H2027 C2036 0.950 . S
H2028 C2038 0.950 . S
H2029 C2040 0.950 . S
H2030 C2042 0.950 . S
H2031 C2043 0.950 . S
C2032 H2024 0.950 . S
C2032 C2033 1.386 . S
C2032 C2034 1.391 . S
C2033 C2032 1.386 . S
C2033 C2037 1.393 . S
C2034 H2026 0.950 . S
C2034 C2032 1.391 . S
C2034 C2035 1.400 . S
C2035 C2034 1.400 . S
C2035 C2036 1.398 . S
C2035 C2041 1.491 . S
C2036 H2027 0.950 . S
C2036 C2035 1.398 . S
C2036 C2037 1.391 . S
C2037 H2025 0.950 . S
C2037 C2033 1.393 . S
C2037 C2036 1.391 . S
C2038 H2028 0.950 . S
C2038 C2039 1.386 . S
C2038 C2040 1.391 . S
C2039 C2038 1.386 . S
C2039 C2043 1.393 . S
C2040 H2029 0.950 . S
C2040 C2038 1.391 . S
C2040 C2041 1.400 . S
C2041 C2035 1.491 . S
C2041 C2040 1.400 . S
C2041 C2042 1.398 . S
C2042 H2030 0.950 . S
C2042 C2041 1.398 . S
C2042 C2043 1.391 . S
C2043 H2031 0.950 . S
C2043 C2039 1.393 . S
C2043 C2042 1.391 . S
H2044 C2052 0.950 . S
H2045 C2057 0.950 . S
H2046 C2054 0.950 . S
H2047 C2056 0.950 . S
H2048 C2058 0.950 . S
H2049 C2060 0.950 . S
H2050 C2062 0.950 . S
H2051 C2063 0.980 . S
C2052 H2044 0.950 . S
C2052 C2053 1.386 1_556 S
C2052 C2054 1.391 . S
C2053 C2052 1.386 1_554 S
C2053 C2057 1.393 . S
C2054 H2046 0.950 . S
C2054 C2052 1.391 . S
C2054 C2055 1.400 1_556 S
C2055 C2054 1.400 1_554 S
C2055 C2056 1.398 . S
C2055 C2061 1.491 . S
C2056 H2047 0.950 . S
C2056 C2055 1.398 . S
C2056 C2057 1.391 . S
C2057 H2045 0.950 . S
C2057 C2053 1.393 . S
C2057 C2056 1.391 . S
C2058 H2048 0.950 . S
C2058 C2059 1.386 . S
C2058 C2060 1.391 . S
C2059 C2058 1.386 . S
C2059 C2063 1.361 1_554 S
C2060 H2049 0.950 . S
C2060 C2058 1.391 . S
C2060 C2061 1.400 . S
C2061 C2055 1.491 . S
C2061 C2060 1.400 . S
C2061 C2062 1.398 1_554 S
C2062 H2050 0.950 . S
C2062 C2061 1.398 1_556 S
C2062 C2063 1.393 . S
C2063 H2051 0.980 . S
C2063 C2059 1.361 1_556 S
C2063 C2062 1.393 . S
H2064 C2072 0.950 . S
H2065 C2077 0.950 . S
H2066 C2074 0.950 . S
H2067 C2076 0.950 . S
H2068 C2078 0.950 . S
H2069 C2080 0.950 . S
H2070 C2082 0.950 . S
H2071 C2083 0.950 . S
C2072 H2064 0.950 . S
C2072 C2073 1.386 . S
C2072 C2074 1.391 . S
C2073 C2072 1.386 . S
C2073 C2077 1.393 . S
C2074 H2066 0.950 . S
C2074 C2072 1.391 . S
C2074 C2075 1.400 . S
C2075 C2074 1.400 . S
C2075 C2076 1.398 . S
C2075 C2081 1.491 . S
C2076 H2067 0.950 . S
C2076 C2075 1.398 . S
C2076 C2077 1.391 . S
C2077 H2065 0.950 . S
C2077 C2073 1.393 . S
C2077 C2076 1.391 . S
C2078 H2068 0.950 . S
C2078 C2079 1.386 . S
C2078 C2080 1.391 . S
C2079 C2078 1.386 . S
C2079 C2083 1.393 . S
C2080 H2069 0.950 . S
C2080 C2078 1.391 . S
C2080 C2081 1.400 . S
C2081 C2075 1.491 . S
C2081 C2080 1.400 . S
C2081 C2082 1.398 . S
C2082 H2070 0.950 . S
C2082 C2081 1.398 . S
C2082 C2083 1.391 . S
C2083 H2071 0.950 . S
C2083 C2079 1.393 . S
C2083 C2082 1.391 . S
H2084 C2092 0.950 . S
H2085 C2097 0.950 . S
H2086 C2094 0.950 . S
H2087 C2096 0.950 . S
H2088 C2098 0.950 . S
H2089 C2100 0.950 . S
H2090 C2102 0.950 . S
H2091 C2103 0.950 . S
C2092 H2084 0.950 . S
C2092 C2093 1.386 1_556 S
C2092 C2094 1.391 . S
C2093 C2092 1.386 1_554 S
C2093 C2097 1.393 . S
C2094 H2086 0.950 . S
C2094 C2092 1.391 . S
C2094 C2095 1.400 1_556 S
C2095 C2094 1.400 1_554 S
C2095 C2096 1.398 . S
C2095 C2101 1.491 . S
C2096 H2087 0.950 . S
C2096 C2095 1.398 . S
C2096 C2097 1.391 . S
C2097 H2085 0.950 . S
C2097 C2093 1.393 . S
C2097 C2096 1.391 . S
C2098 H2088 0.950 . S
C2098 C2099 1.386 1_554 S
C2098 C2100 1.391 . S
C2099 C2098 1.386 1_556 S
C2099 C2103 1.393 . S
C2100 H2089 0.950 . S
C2100 C2098 1.391 . S
C2100 C2101 1.400 . S
C2101 C2095 1.491 . S
C2101 C2100 1.400 . S
C2101 C2102 1.398 1_554 S
C2102 H2090 0.950 . S
C2102 C2101 1.398 1_556 S
C2102 C2103 1.391 . S
C2103 H2091 0.950 . S
C2103 C2099 1.393 . S
C2103 C2102 1.391 . S
H2104 C2112 0.950 . S
H2105 C2117 0.950 . S
H2106 C2114 0.950 . S
H2107 C2116 0.950 . S
H2108 C2118 0.950 . S
H2109 C2120 0.950 . S
H2110 C2122 0.950 . S
H2111 C2123 0.950 . S
C2112 H2104 0.950 . S
C2112 C2113 1.386 . S
C2112 C2114 1.391 . S
C2113 C2112 1.386 . S
C2113 C2117 1.393 . S
C2114 H2106 0.950 . S
C2114 C2112 1.391 . S
C2114 C2115 1.400 . S
C2115 C2114 1.400 . S
C2115 C2116 1.398 . S
C2115 C2121 1.491 . S
C2116 H2107 0.950 . S
C2116 C2115 1.398 . S
C2116 C2117 1.391 . S
C2117 H2105 0.950 . S
C2117 C2113 1.393 . S
C2117 C2116 1.391 . S
C2118 H2108 0.950 . S
C2118 C2119 1.386 . S
C2118 C2120 1.391 . S
C2119 C2118 1.386 . S
C2119 C2123 1.393 . S
C2120 H2109 0.950 . S
C2120 C2118 1.391 . S
C2120 C2121 1.400 . S
C2121 C2115 1.491 . S
C2121 C2120 1.400 . S
C2121 C2122 1.398 . S
C2122 H2110 0.950 . S
C2122 C2121 1.398 . S
C2122 C2123 1.391 . S
C2123 H2111 0.950 . S
C2123 C2119 1.393 . S
C2123 C2122 1.391 . S
H2124 C2132 0.950 . S
H2125 C2137 0.950 . S
H2126 C2134 0.950 . S
H2127 C2136 0.950 . S
H2128 C2138 0.950 . S
H2129 C2140 0.950 . S
H2130 C2142 0.950 . S
H2131 C2143 0.950 . S
C2132 H2124 0.950 . S
C2132 C2133 1.386 . S
C2132 C2134 1.391 . S
C2133 C2132 1.386 . S
C2133 C2137 1.393 . S
C2134 H2126 0.950 . S
C2134 C2132 1.391 . S
C2134 C2135 1.400 . S
C2135 C2134 1.400 . S
C2135 C2136 1.398 . S
C2135 C2141 1.491 . S
C2136 H2127 0.950 . S
C2136 C2135 1.398 . S
C2136 C2137 1.391 . S
C2137 H2125 0.950 . S
C2137 C2133 1.393 . S
C2137 C2136 1.391 . S
C2138 H2128 0.950 . S
C2138 C2139 1.386 . S
C2138 C2140 1.391 . S
C2139 C2138 1.386 . S
C2139 C2143 1.393 . S
C2140 H2129 0.950 . S
C2140 C2138 1.391 . S
C2140 C2141 1.400 . S
C2141 C2135 1.491 . S
C2141 C2140 1.400 . S
C2141 C2142 1.398 . S
C2142 H2130 0.950 . S
C2142 C2141 1.398 . S
C2142 C2143 1.391 . S
C2143 H2131 0.950 . S
C2143 C2139 1.393 . S
C2143 C2142 1.391 . S
H2144 C2152 0.950 . S
H2145 C2157 0.950 . S
H2146 C2154 0.950 . S
H2147 C2156 0.950 . S
H2148 C2158 0.950 . S
H2149 C2160 0.950 . S
H2150 C2162 0.950 . S
H2151 C2163 0.950 . S
C2152 H2144 0.950 . S
C2152 C2153 1.386 . S
C2152 C2154 1.391 . S
C2153 C2152 1.386 . S
C2153 C2157 1.393 . S
C2154 H2146 0.950 . S
C2154 C2152 1.391 . S
C2154 C2155 1.400 . S
C2155 C2154 1.400 . S
C2155 C2156 1.398 . S
C2155 C2161 1.491 . S
C2156 H2147 0.950 . S
C2156 C2155 1.398 . S
C2156 C2157 1.391 . S
C2157 H2145 0.950 . S
C2157 C2153 1.393 . S
C2157 C2156 1.391 . S
C2158 H2148 0.950 . S
C2158 C2159 1.386 . S
C2158 C2160 1.391 . S
C2159 C2158 1.386 . S
C2159 C2163 1.393 . S
C2160 H2149 0.950 . S
C2160 C2158 1.391 . S
C2160 C2161 1.400 . S
C2161 C2155 1.491 . S
C2161 C2160 1.400 . S
C2161 C2162 1.398 . S
C2162 H2150 0.950 . S
C2162 C2161 1.398 . S
C2162 C2163 1.391 . S
C2163 H2151 0.950 . S
C2163 C2159 1.393 . S
C2163 C2162 1.391 . S
H2164 C2172 0.950 . S
H2165 C2177 0.950 . S
H2166 C2174 0.950 . S
H2167 C2176 0.950 . S
H2168 C2178 0.950 . S
H2169 C2180 0.950 . S
H2170 C2182 0.950 . S
H2171 C2183 0.950 . S
C2172 H2164 0.950 . S
C2172 C2173 1.386 . S
C2172 C2174 1.391 . S
C2173 C2172 1.386 . S
C2173 C2177 1.393 . S
C2174 H2166 0.950 . S
C2174 C2172 1.391 . S
C2174 C2175 1.400 . S
C2175 C2174 1.400 . S
C2175 C2176 1.398 . S
C2175 C2181 1.491 . S
C2176 H2167 0.950 . S
C2176 C2175 1.398 . S
C2176 C2177 1.391 . S
C2177 H2165 0.950 . S
C2177 C2173 1.393 . S
C2177 C2176 1.391 . S
C2178 H2168 0.950 . S
C2178 C2179 1.386 . S
C2178 C2180 1.391 . S
C2179 C2178 1.386 . S
C2179 C2183 1.393 . S
C2180 H2169 0.950 . S
C2180 C2178 1.391 . S
C2180 C2181 1.400 . S
C2181 C2175 1.491 . S
C2181 C2180 1.400 . S
C2181 C2182 1.398 . S
C2182 H2170 0.950 . S
C2182 C2181 1.398 . S
C2182 C2183 1.391 . S
C2183 H2171 0.950 . S
C2183 C2179 1.393 . S
C2183 C2182 1.391 . S
H2184 C2192 0.950 . S
H2185 C2197 0.950 . S
H2186 C2194 0.950 . S
H2187 C2196 0.950 . S
H2188 C2198 0.950 . S
H2189 C2200 0.950 . S
H2190 C2202 0.950 . S
H2191 C2203 0.950 1_554 S
C2192 H2184 0.950 . S
C2192 C2193 1.386 1_655 S
C2192 C2194 1.391 . S
C2193 C2192 1.386 1_455 S
C2193 C2197 1.393 . S
C2194 H2186 0.950 . S
C2194 C2192 1.391 . S
C2194 C2195 1.400 1_655 S
C2195 C2194 1.400 1_455 S
C2195 C2196 1.398 . S
C2195 C2201 1.491 . S
C2196 H2187 0.950 . S
C2196 C2195 1.398 . S
C2196 C2197 1.391 . S
C2197 H2185 0.950 . S
C2197 C2193 1.393 . S
C2197 C2196 1.391 . S
C2198 H2188 0.950 . S
C2198 C2199 1.386 1_455 S
C2198 C2200 1.391 . S
C2199 C2198 1.386 1_655 S
C2199 C2203 1.393 . S
C2200 H2189 0.950 . S
C2200 C2198 1.391 . S
C2200 C2201 1.414 . S
C2201 C2195 1.491 . S
C2201 C2200 1.414 . S
C2201 C2202 1.384 1_455 S
C2202 H2190 0.950 . S
C2202 C2201 1.384 1_655 S
C2202 C2203 1.391 . S
C2203 H2191 0.950 1_556 S
C2203 C2199 1.393 . S
C2203 C2202 1.391 . S
H2204 C2212 0.950 . S
H2205 C2217 0.950 . S
H2206 C2214 0.950 . S
H2207 C2216 0.950 . S
H2208 C2218 0.950 . S
H2209 C2220 0.950 . S
H2210 C2222 0.950 . S
H2211 C2223 0.950 . S
C2212 H2204 0.950 . S
C2212 C2213 1.386 . S
C2212 C2214 1.391 . S
C2213 C2212 1.386 . S
C2213 C2217 1.393 . S
C2214 H2206 0.950 . S
C2214 C2212 1.391 . S
C2214 C2215 1.400 . S
C2215 C2214 1.400 . S
C2215 C2216 1.398 . S
C2215 C2221 1.491 . S
C2216 H2207 0.950 . S
C2216 C2215 1.398 . S
C2216 C2217 1.391 . S
C2217 H2205 0.950 . S
C2217 C2213 1.393 . S
C2217 C2216 1.391 . S
C2218 H2208 0.950 . S
C2218 C2219 1.386 . S
C2218 C2220 1.391 . S
C2219 C2218 1.386 . S
C2219 C2223 1.393 . S
C2220 H2209 0.950 . S
C2220 C2218 1.391 . S
C2220 C2221 1.400 . S
C2221 C2215 1.491 . S
C2221 C2220 1.400 . S
C2221 C2222 1.398 . S
C2222 H2210 0.950 . S
C2222 C2221 1.398 . S
C2222 C2223 1.391 . S
C2223 H2211 0.950 . S
C2223 C2219 1.393 . S
C2223 C2222 1.391 . S
H2224 C2232 0.950 . S
H2225 C2237 0.950 . S
H2226 C2234 0.950 . S
H2227 C2236 0.950 . S
H2228 C2238 0.950 . S
H2229 C2240 0.950 . S
H2230 C2242 0.950 . S
H2231 C2243 0.950 . S
C2232 H2224 0.950 . S
C2232 C2233 1.386 . S
C2232 C2234 1.391 . S
C2233 C2232 1.386 . S
C2233 C2237 1.393 . S
C2234 H2226 0.950 . S
C2234 C2232 1.391 . S
C2234 C2235 1.400 . S
C2235 C2234 1.400 . S
C2235 C2236 1.398 . S
C2235 C2241 1.491 . S
C2236 H2227 0.950 . S
C2236 C2235 1.398 . S
C2236 C2237 1.391 . S
C2237 H2225 0.950 . S
C2237 C2233 1.393 . S
C2237 C2236 1.391 . S
C2238 H2228 0.950 . S
C2238 C2239 1.386 . S
C2238 C2240 1.391 . S
C2239 C2238 1.386 . S
C2239 C2243 1.393 . S
C2240 H2229 0.950 . S
C2240 C2238 1.391 . S
C2240 C2241 1.400 . S
C2241 C2235 1.491 . S
C2241 C2240 1.400 . S
C2241 C2242 1.398 . S
C2242 H2230 0.950 . S
C2242 C2241 1.398 . S
C2242 C2243 1.391 . S
C2243 H2231 0.950 . S
C2243 C2239 1.393 . S
C2243 C2242 1.391 . S
H2244 C2252 0.950 . S
H2245 C2257 0.950 . S
H2246 C2254 0.950 . S
H2247 C2256 0.950 . S
H2248 C2258 0.950 . S
H2249 C2260 0.950 . S
H2250 C2262 0.950 . S
H2251 C2263 0.950 . S
C2252 H2244 0.950 . S
C2252 C2253 1.386 . S
C2252 C2254 1.391 . S
C2253 C2252 1.386 . S
C2253 C2257 1.393 . S
C2254 H2246 0.950 . S
C2254 C2252 1.391 . S
C2254 C2255 1.400 . S
C2255 C2254 1.400 . S
C2255 C2256 1.398 . S
C2255 C2261 1.491 . S
C2256 H2247 0.950 . S
C2256 C2255 1.398 . S
C2256 C2257 1.391 . S
C2257 H2245 0.950 . S
C2257 C2253 1.393 . S
C2257 C2256 1.391 . S
C2258 H2248 0.950 . S
C2258 C2259 1.386 . S
C2258 C2260 1.391 . S
C2259 C2258 1.386 . S
C2259 C2263 1.393 . S
C2260 H2249 0.950 . S
C2260 C2258 1.391 . S
C2260 C2261 1.400 . S
C2261 C2255 1.491 . S
C2261 C2260 1.400 . S
C2261 C2262 1.398 . S
C2262 H2250 0.950 . S
C2262 C2261 1.398 . S
C2262 C2263 1.391 . S
C2263 H2251 0.950 . S
C2263 C2259 1.393 . S
C2263 C2262 1.391 . S
H2264 C2272 0.950 . S
H2265 C2277 0.950 1_655 S
H2266 C2274 0.950 . S
H2267 C2276 0.950 . S
H2268 C2278 0.950 . S
H2269 C2280 0.950 . S
H2270 C2282 0.950 . S
H2271 C2283 0.952 . S
C2272 H2264 0.950 . S
C2272 C2273 1.386 . S
C2272 C2274 1.391 . S
C2273 C2272 1.386 . S
C2273 C2277 1.393 . S
C2274 H2266 0.950 . S
C2274 C2272 1.391 . S
C2274 C2275 1.400 . S
C2275 C2274 1.400 . S
C2275 C2276 1.398 1_455 S
C2275 C2281 1.491 1_455 S
C2276 H2267 0.950 . S
C2276 C2275 1.398 1_655 S
C2276 C2277 1.391 1_655 S
C2277 H2265 0.950 1_455 S
C2277 C2273 1.393 . S
C2277 C2276 1.391 1_455 S
C2278 H2268 0.950 . S
C2278 C2279 1.386 . S
C2278 C2280 1.391 . S
C2279 C2278 1.386 . S
C2279 C2283 1.388 1_655 S
C2280 H2269 0.950 . S
C2280 C2278 1.391 . S
C2280 C2281 1.400 . S
C2281 C2275 1.491 1_655 S
C2281 C2280 1.400 . S
C2281 C2282 1.398 1_655 S
C2282 H2270 0.950 . S
C2282 C2281 1.398 1_455 S
C2282 C2283 1.393 . S
C2283 H2271 0.952 . S
C2283 C2279 1.388 1_455 S
C2283 C2282 1.393 . S
H2284 C2292 0.950 . S
H2285 C2297 0.950 . S
H2286 C2294 0.950 . S
H2287 C2296 0.950 . S
H2288 C2298 0.950 . S
H2289 C2300 0.950 . S
H2290 C2302 0.950 . S
H2291 C2303 0.950 . S
C2292 H2284 0.950 . S
C2292 C2293 1.386 . S
C2292 C2294 1.391 . S
C2293 C2292 1.386 . S
C2293 C2297 1.393 . S
C2294 H2286 0.950 . S
C2294 C2292 1.391 . S
C2294 C2295 1.400 . S
C2295 C2294 1.400 . S
C2295 C2296 1.398 . S
C2295 C2301 1.491 . S
C2296 H2287 0.950 . S
C2296 C2295 1.398 . S
C2296 C2297 1.391 . S
C2297 H2285 0.950 . S
C2297 C2293 1.393 . S
C2297 C2296 1.391 . S
C2298 H2288 0.950 . S
C2298 C2299 1.386 . S
C2298 C2300 1.391 . S
C2299 C2298 1.386 . S
C2299 C2303 1.393 . S
C2300 H2289 0.950 . S
C2300 C2298 1.391 . S
C2300 C2301 1.400 . S
C2301 C2295 1.491 . S
C2301 C2300 1.400 . S
C2301 C2302 1.398 . S
C2302 H2290 0.950 . S
C2302 C2301 1.398 . S
C2302 C2303 1.391 . S
C2303 H2291 0.950 . S
C2303 C2299 1.393 . S
C2303 C2302 1.391 . S
H2304 C2312 0.950 . S
H2305 C2317 0.950 . S
H2306 C2314 0.950 . S
H2307 C2316 0.950 . S
H2308 C2318 0.950 . S
H2309 C2320 0.950 . S
H2310 C2322 0.950 . S
H2311 C2323 0.950 . S
C2312 H2304 0.950 . S
C2312 C2313 1.386 . S
C2312 C2314 1.391 . S
C2313 C2312 1.386 . S
C2313 C2317 1.393 . S
C2314 H2306 0.950 . S
C2314 C2312 1.391 . S
C2314 C2315 1.400 . S
C2315 C2314 1.400 . S
C2315 C2316 1.398 . S
C2315 C2321 1.491 . S
C2316 H2307 0.950 . S
C2316 C2315 1.398 . S
C2316 C2317 1.391 . S
C2317 H2305 0.950 . S
C2317 C2313 1.393 . S
C2317 C2316 1.391 . S
C2318 H2308 0.950 . S
C2318 C2319 1.386 . S
C2318 C2320 1.391 . S
C2319 C2318 1.386 . S
C2319 C2323 1.393 . S
C2320 H2309 0.950 . S
C2320 C2318 1.391 . S
C2320 C2321 1.400 . S
C2321 C2315 1.491 . S
C2321 C2320 1.400 . S
C2321 C2322 1.398 . S
C2322 H2310 0.950 . S
C2322 C2321 1.398 . S
C2322 C2323 1.391 . S
C2323 H2311 0.950 . S
C2323 C2319 1.393 . S
C2323 C2322 1.391 . S
H2324 C2332 0.950 . S
H2325 C2337 0.950 . S
H2326 C2334 0.950 . S
H2327 C2336 0.950 . S
H2328 C2338 0.950 . S
H2329 C2340 0.950 . S
H2330 C2342 0.950 . S
H2331 C2343 0.950 . S
C2332 H2324 0.950 . S
C2332 C2333 1.386 . S
C2332 C2334 1.391 . S
C2333 C2332 1.386 . S
C2333 C2337 1.393 . S
C2334 H2326 0.950 . S
C2334 C2332 1.391 . S
C2334 C2335 1.400 . S
C2335 C2334 1.400 . S
C2335 C2336 1.398 . S
C2335 C2341 1.491 . S
C2336 H2327 0.950 . S
C2336 C2335 1.398 . S
C2336 C2337 1.391 . S
C2337 H2325 0.950 . S
C2337 C2333 1.393 . S
C2337 C2336 1.391 . S
C2338 H2328 0.950 . S
C2338 C2339 1.386 . S
C2338 C2340 1.391 . S
C2339 C2338 1.386 . S
C2339 C2343 1.393 . S
C2340 H2329 0.950 . S
C2340 C2338 1.391 . S
C2340 C2341 1.400 . S
C2341 C2335 1.491 . S
C2341 C2340 1.400 . S
C2341 C2342 1.398 . S
C2342 H2330 0.950 . S
C2342 C2341 1.398 . S
C2342 C2343 1.391 . S
C2343 H2331 0.950 . S
C2343 C2339 1.393 . S
C2343 C2342 1.391 . S
H2344 C2352 0.950 . S
H2345 C2357 0.950 . S
H2346 C2354 0.950 . S
H2347 C2356 0.950 . S
H2348 C2358 0.950 . S
H2349 C2360 0.950 . S
H2350 C2362 0.950 . S
H2351 C2363 0.950 . S
C2352 H2344 0.950 . S
C2352 C2353 1.386 . S
C2352 C2354 1.391 . S
C2353 C2352 1.386 . S
C2353 C2357 1.393 . S
C2354 H2346 0.950 . S
C2354 C2352 1.391 . S
C2354 C2355 1.400 . S
C2355 C2354 1.400 . S
C2355 C2356 1.398 . S
C2355 C2361 1.491 . S
C2356 H2347 0.950 . S
C2356 C2355 1.398 . S
C2356 C2357 1.391 . S
C2357 H2345 0.950 . S
C2357 C2353 1.393 . S
C2357 C2356 1.391 . S
C2358 H2348 0.950 . S
C2358 C2359 1.386 . S
C2358 C2360 1.391 . S
C2359 C2358 1.386 . S
C2359 C2363 1.393 . S
C2360 H2349 0.950 . S
C2360 C2358 1.391 . S
C2360 C2361 1.400 . S
C2361 C2355 1.491 . S
C2361 C2360 1.400 . S
C2361 C2362 1.398 . S
C2362 H2350 0.950 . S
C2362 C2361 1.398 . S
C2362 C2363 1.391 . S
C2363 H2351 0.950 . S
C2363 C2359 1.393 . S
C2363 C2362 1.391 . S
H2364 C2372 0.950 . S
H2365 C2377 0.950 . S
H2366 C2374 0.950 . S
H2367 C2376 0.950 . S
H2368 C2378 0.950 . S
H2369 C2380 0.950 . S
H2370 C2382 0.950 . S
H2371 C2383 0.950 . S
C2372 H2364 0.950 . S
C2372 C2373 1.386 . S
C2372 C2374 1.391 . S
C2373 C2372 1.386 . S
C2373 C2377 1.393 . S
C2374 H2366 0.950 . S
C2374 C2372 1.391 . S
C2374 C2375 1.400 . S
C2375 C2374 1.400 . S
C2375 C2376 1.398 . S
C2375 C2381 1.491 . S
C2376 H2367 0.950 . S
C2376 C2375 1.398 . S
C2376 C2377 1.391 . S
C2377 H2365 0.950 . S
C2377 C2373 1.393 . S
C2377 C2376 1.391 . S
C2378 H2368 0.950 . S
C2378 C2379 1.386 . S
C2378 C2380 1.391 . S
C2379 C2378 1.386 . S
C2379 C2383 1.393 . S
C2380 H2369 0.950 . S
C2380 C2378 1.391 . S
C2380 C2381 1.400 . S
C2381 C2375 1.491 . S
C2381 C2380 1.400 . S
C2381 C2382 1.398 . S
C2382 H2370 0.950 . S
C2382 C2381 1.398 . S
C2382 C2383 1.391 . S
C2383 H2371 0.950 . S
C2383 C2379 1.393 . S
C2383 C2382 1.391 . S
H2384 C2392 0.950 . S
H2385 C2397 0.950 . S
H2386 C2394 0.950 . S
H2387 C2396 0.950 . S
H2388 C2398 0.950 . S
H2389 C2400 0.950 . S
H2390 C2402 0.950 . S
H2391 C2403 0.950 . S
C2392 H2384 0.950 . S
C2392 C2393 1.386 . S
C2392 C2394 1.391 . S
C2393 C2392 1.386 . S
C2393 C2397 1.393 . S
C2394 H2386 0.950 . S
C2394 C2392 1.391 . S
C2394 C2395 1.400 . S
C2395 C2394 1.400 . S
C2395 C2396 1.398 . S
C2395 C2401 1.491 . S
C2396 H2387 0.950 . S
C2396 C2395 1.398 . S
C2396 C2397 1.391 . S
C2397 H2385 0.950 . S
C2397 C2393 1.393 . S
C2397 C2396 1.391 . S
C2398 H2388 0.950 . S
C2398 C2399 1.386 . S
C2398 C2400 1.391 . S
C2399 C2398 1.386 . S
C2399 C2403 1.393 . S
C2400 H2389 0.950 . S
C2400 C2398 1.391 . S
C2400 C2401 1.400 . S
C2401 C2395 1.491 . S
C2401 C2400 1.400 . S
C2401 C2402 1.398 . S
C2402 H2390 0.950 . S
C2402 C2401 1.398 . S
C2402 C2403 1.391 . S
C2403 H2391 0.950 . S
C2403 C2399 1.393 . S
C2403 C2402 1.391 . S
H2404 C2412 0.950 . S
H2405 C2417 0.950 . S
H2406 C2414 0.950 . S
H2407 C2416 0.950 . S
H2408 C2418 0.950 . S
H2409 C2420 0.950 . S
H2410 C2422 0.950 . S
H2411 C2423 0.950 . S
C2412 H2404 0.950 . S
C2412 C2413 1.386 . S
C2412 C2414 1.391 . S
C2413 C2412 1.386 . S
C2413 C2417 1.393 . S
C2414 H2406 0.950 . S
C2414 C2412 1.391 . S
C2414 C2415 1.400 . S
C2415 C2414 1.400 . S
C2415 C2416 1.398 . S
C2415 C2421 1.491 . S
C2416 H2407 0.950 . S
C2416 C2415 1.398 . S
C2416 C2417 1.391 . S
C2417 H2405 0.950 . S
C2417 C2413 1.393 . S
C2417 C2416 1.391 . S
C2418 H2408 0.950 . S
C2418 C2419 1.386 . S
C2418 C2420 1.391 . S
C2419 C2418 1.386 . S
C2419 C2423 1.393 . S
C2420 H2409 0.950 . S
C2420 C2418 1.391 . S
C2420 C2421 1.400 . S
C2421 C2415 1.491 . S
C2421 C2420 1.400 . S
C2421 C2422 1.398 . S
C2422 H2410 0.950 . S
C2422 C2421 1.398 . S
C2422 C2423 1.391 . S
C2423 H2411 0.950 . S
C2423 C2419 1.393 . S
C2423 C2422 1.391 . S
H2424 C2432 0.950 . S
H2425 C2437 0.950 . S
H2426 C2434 0.950 . S
H2427 C2436 0.950 . S
H2428 C2438 0.950 . S
H2429 C2440 0.950 . S
H2430 C2442 0.950 . S
H2431 C2443 0.950 . S
C2432 H2424 0.950 . S
C2432 C2433 1.386 . S
C2432 C2434 1.391 . S
C2433 C2432 1.386 . S
C2433 C2437 1.393 . S
C2434 H2426 0.950 . S
C2434 C2432 1.391 . S
C2434 C2435 1.400 . S
C2435 C2434 1.400 . S
C2435 C2436 1.398 . S
C2435 C2441 1.491 . S
C2436 H2427 0.950 . S
C2436 C2435 1.398 . S
C2436 C2437 1.391 . S
C2437 H2425 0.950 . S
C2437 C2433 1.393 . S
C2437 C2436 1.391 . S
C2438 H2428 0.950 . S
C2438 C2439 1.386 . S
C2438 C2440 1.391 . S
C2439 C2438 1.386 . S
C2439 C2443 1.393 . S
C2440 H2429 0.950 . S
C2440 C2438 1.391 . S
C2440 C2441 1.400 . S
C2441 C2435 1.491 . S
C2441 C2440 1.400 . S
C2441 C2442 1.398 . S
C2442 H2430 0.950 . S
C2442 C2441 1.398 . S
C2442 C2443 1.391 . S
C2443 H2431 0.950 . S
C2443 C2439 1.393 . S
C2443 C2442 1.391 . S
H2444 C2452 0.950 . S
H2445 C2457 0.950 . S
H2446 C2454 0.950 . S
H2447 C2456 0.950 . S
H2448 C2458 0.950 . S
H2449 C2460 0.950 . S
H2450 C2462 0.950 . S
H2451 C2463 0.950 . S
C2452 H2444 0.950 . S
C2452 C2453 1.386 . S
C2452 C2454 1.391 . S
C2453 C2452 1.386 . S
C2453 C2457 1.393 . S
C2454 H2446 0.950 . S
C2454 C2452 1.391 . S
C2454 C2455 1.400 . S
C2455 C2454 1.400 . S
C2455 C2456 1.398 . S
C2455 C2461 1.491 . S
C2456 H2447 0.950 . S
C2456 C2455 1.398 . S
C2456 C2457 1.391 . S
C2457 H2445 0.950 . S
C2457 C2453 1.393 . S
C2457 C2456 1.391 . S
C2458 H2448 0.950 . S
C2458 C2459 1.386 . S
C2458 C2460 1.391 . S
C2459 C2458 1.386 . S
C2459 C2463 1.393 . S
C2460 H2449 0.950 . S
C2460 C2458 1.391 . S
C2460 C2461 1.400 . S
C2461 C2455 1.491 . S
C2461 C2460 1.400 . S
C2461 C2462 1.398 . S
C2462 H2450 0.950 . S
C2462 C2461 1.398 . S
C2462 C2463 1.391 . S
C2463 H2451 0.950 . S
C2463 C2459 1.393 . S
C2463 C2462 1.391 . S
H2464 C2472 0.950 . S
H2465 C2477 0.950 . S
H2466 C2474 0.950 . S
H2467 C2476 0.950 . S
H2468 C2478 0.950 . S
H2469 C2480 0.950 . S
H2470 C2482 0.950 . S
H2471 C2483 0.950 . S
C2472 H2464 0.950 . S
C2472 C2473 1.386 . S
C2472 C2474 1.391 . S
C2473 C2472 1.386 . S
C2473 C2477 1.393 . S
C2474 H2466 0.950 . S
C2474 C2472 1.391 . S
C2474 C2475 1.400 . S
C2475 C2474 1.400 . S
C2475 C2476 1.398 . S
C2475 C2481 1.491 . S
C2476 H2467 0.950 . S
C2476 C2475 1.398 . S
C2476 C2477 1.391 . S
C2477 H2465 0.950 . S
C2477 C2473 1.393 . S
C2477 C2476 1.391 . S
C2478 H2468 0.950 . S
C2478 C2479 1.386 . S
C2478 C2480 1.391 . S
C2479 C2478 1.386 . S
C2479 C2483 1.393 . S
C2480 H2469 0.950 . S
C2480 C2478 1.391 . S
C2480 C2481 1.400 . S
C2481 C2475 1.491 . S
C2481 C2480 1.400 . S
C2481 C2482 1.398 . S
C2482 H2470 0.950 . S
C2482 C2481 1.398 . S
C2482 C2483 1.391 . S
C2483 H2471 0.950 . S
C2483 C2479 1.393 . S
C2483 C2482 1.391 . S
H2484 C2492 0.950 . S
H2485 C2497 0.950 . S
H2486 C2494 0.950 . S
H2487 C2496 0.950 . S
H2488 C2498 0.950 . S
H2489 C2500 0.950 . S
H2490 C2502 0.950 . S
H2491 C2503 0.950 . S
C2492 H2484 0.950 . S
C2492 C2493 1.386 . S
C2492 C2494 1.391 . S
C2493 C2492 1.386 . S
C2493 C2497 1.393 . S
C2494 H2486 0.950 . S
C2494 C2492 1.391 . S
C2494 C2495 1.400 . S
C2495 C2494 1.400 . S
C2495 C2496 1.398 . S
C2495 C2501 1.491 . S
C2496 H2487 0.950 . S
C2496 C2495 1.398 . S
C2496 C2497 1.391 . S
C2497 H2485 0.950 . S
C2497 C2493 1.393 . S
C2497 C2496 1.391 . S
C2498 H2488 0.950 . S
C2498 C2499 1.386 . S
C2498 C2500 1.391 . S
C2499 C2498 1.386 . S
C2499 C2503 1.393 . S
C2500 H2489 0.950 . S
C2500 C2498 1.391 . S
C2500 C2501 1.400 . S
C2501 C2495 1.491 . S
C2501 C2500 1.400 . S
C2501 C2502 1.398 . S
C2502 H2490 0.950 . S
C2502 C2501 1.398 . S
C2502 C2503 1.391 . S
C2503 H2491 0.950 . S
C2503 C2499 1.393 . S
C2503 C2502 1.391 . S
H2504 C2512 0.950 . S
H2505 C2517 0.950 . S
H2506 C2514 0.950 . S
H2507 C2516 0.950 . S
H2508 C2518 0.950 . S
H2509 C2520 0.950 . S
H2510 C2522 0.950 . S
H2511 C2523 0.950 . S
C2512 H2504 0.950 . S
C2512 C2513 1.386 . S
C2512 C2514 1.391 . S
C2513 C2512 1.386 . S
C2513 C2517 1.393 . S
C2514 H2506 0.950 . S
C2514 C2512 1.391 . S
C2514 C2515 1.400 . S
C2515 C2514 1.400 . S
C2515 C2516 1.398 . S
C2515 C2521 1.491 . S
C2516 H2507 0.950 . S
C2516 C2515 1.398 . S
C2516 C2517 1.391 . S
C2517 H2505 0.950 . S
C2517 C2513 1.393 . S
C2517 C2516 1.391 . S
C2518 H2508 0.950 . S
C2518 C2519 1.386 . S
C2518 C2520 1.391 . S
C2519 C2518 1.386 . S
C2519 C2523 1.393 . S
C2520 H2509 0.950 . S
C2520 C2518 1.391 . S
C2520 C2521 1.400 . S
C2521 C2515 1.491 . S
C2521 C2520 1.400 . S
C2521 C2522 1.398 . S
C2522 H2510 0.950 . S
C2522 C2521 1.398 . S
C2522 C2523 1.391 . S
C2523 H2511 0.950 . S
C2523 C2519 1.393 . S
C2523 C2522 1.391 . S
H2524 C2532 0.950 . S
H2525 C2537 0.950 . S
H2526 C2534 0.950 . S
H2527 C2536 0.950 . S
H2528 C2538 0.948 1_554 S
H2529 C2540 0.950 . S
H2530 C2542 0.950 . S
H2531 C2543 0.950 . S
C2532 H2524 0.950 . S
C2532 C2533 1.386 1_556 S
C2532 C2534 1.391 . S
C2533 C2532 1.386 1_554 S
C2533 C2537 1.393 . S
C2534 H2526 0.950 . S
C2534 C2532 1.391 . S
C2534 C2535 1.400 . S
C2535 C2534 1.400 . S
C2535 C2536 1.398 1_556 S
C2535 C2541 1.491 . S
C2536 H2527 0.950 . S
C2536 C2535 1.398 1_554 S
C2536 C2537 1.391 . S
C2537 H2525 0.950 . S
C2537 C2533 1.393 . S
C2537 C2536 1.391 . S
C2538 H2528 0.948 1_556 S
C2538 C2539 1.388 . S
C2538 C2540 1.391 1_556 S
C2539 C2538 1.388 . S
C2539 C2543 1.393 . S
C2540 H2529 0.950 . S
C2540 C2538 1.391 1_554 S
C2540 C2541 1.400 1_554 S
C2541 C2535 1.491 . S
C2541 C2540 1.400 1_556 S
C2541 C2542 1.398 . S
C2542 H2530 0.950 . S
C2542 C2541 1.398 . S
C2542 C2543 1.391 . S
C2543 H2531 0.950 . S
C2543 C2539 1.393 . S
C2543 C2542 1.391 . S
H2544 C2552 0.950 . S
H2545 C2557 0.950 . S
H2546 C2554 0.950 . S
H2547 C2556 0.950 . S
H2548 C2558 0.950 . S
H2549 C2560 0.950 . S
H2550 C2562 0.950 . S
H2551 C2563 0.950 . S
C2552 H2544 0.950 . S
C2552 C2553 1.386 . S
C2552 C2554 1.391 . S
C2553 C2552 1.386 . S
C2553 C2557 1.393 . S
C2554 H2546 0.950 . S
C2554 C2552 1.391 . S
C2554 C2555 1.400 . S
C2555 C2554 1.400 . S
C2555 C2556 1.398 . S
C2555 C2561 1.491 . S
C2556 H2547 0.950 . S
C2556 C2555 1.398 . S
C2556 C2557 1.391 . S
C2557 H2545 0.950 . S
C2557 C2553 1.393 . S
C2557 C2556 1.391 . S
C2558 H2548 0.950 . S
C2558 C2559 1.386 . S
C2558 C2560 1.391 . S
C2559 C2558 1.386 . S
C2559 C2563 1.393 . S
C2560 H2549 0.950 . S
C2560 C2558 1.391 . S
C2560 C2561 1.400 . S
C2561 C2555 1.491 . S
C2561 C2560 1.400 . S
C2561 C2562 1.398 . S
C2562 H2550 0.950 . S
C2562 C2561 1.398 . S
C2562 C2563 1.391 . S
C2563 H2551 0.950 . S
C2563 C2559 1.393 . S
C2563 C2562 1.391 . S
H2564 C2572 0.950 . S
H2565 C2577 0.950 . S
H2566 C2574 0.950 . S
H2567 C2576 0.950 . S
H2568 C2578 0.950 1_556 S
H2569 C2580 0.923 1_556 S
H2570 C2582 0.950 . S
H2571 C2583 0.950 . S
C2572 H2564 0.950 . S
C2572 C2573 1.386 . S
C2572 C2574 1.391 . S
C2573 C2572 1.386 . S
C2573 C2577 1.393 1_554 S
C2574 H2566 0.950 . S
C2574 C2572 1.391 . S
C2574 C2575 1.400 . S
C2575 C2574 1.400 . S
C2575 C2576 1.398 1_554 S
C2575 C2581 1.491 . S
C2576 H2567 0.950 . S
C2576 C2575 1.398 1_556 S
C2576 C2577 1.391 . S
C2577 H2565 0.950 . S
C2577 C2573 1.393 1_556 S
C2577 C2576 1.391 . S
C2578 H2568 0.950 1_554 S
C2578 C2579 1.386 . S
C2578 C2580 1.398 . S
C2579 C2578 1.386 . S
C2579 C2583 1.393 . S
C2580 H2569 0.923 1_554 S
C2580 C2578 1.398 . S
C2580 C2581 1.420 . S
C2581 C2575 1.491 . S
C2581 C2580 1.420 . S
C2581 C2582 1.398 . S
C2582 H2570 0.950 . S
C2582 C2581 1.398 . S
C2582 C2583 1.391 . S
C2583 H2571 0.950 . S
C2583 C2579 1.393 . S
C2583 C2582 1.391 . S
H2584 C2592 0.950 . S
H2585 C2597 0.950 . S
H2586 C2594 0.950 . S
H2587 C2596 0.950 . S
H2588 C2598 0.950 . S
H2589 C2600 0.950 . S
H2590 C2602 0.950 . S
H2591 C2603 0.950 . S
C2592 H2584 0.950 . S
C2592 C2593 1.386 . S
C2592 C2594 1.391 . S
C2593 C2592 1.386 . S
C2593 C2597 1.393 . S
C2594 H2586 0.950 . S
C2594 C2592 1.391 . S
C2594 C2595 1.400 . S
C2595 C2594 1.400 . S
C2595 C2596 1.398 . S
C2595 C2601 1.491 . S
C2596 H2587 0.950 . S
C2596 C2595 1.398 . S
C2596 C2597 1.391 . S
C2597 H2585 0.950 . S
C2597 C2593 1.393 . S
C2597 C2596 1.391 . S
C2598 H2588 0.950 . S
C2598 C2599 1.386 . S
C2598 C2600 1.391 . S
C2599 C2598 1.386 . S
C2599 C2603 1.393 . S
C2600 H2589 0.950 . S
C2600 C2598 1.391 . S
C2600 C2601 1.400 . S
C2601 C2595 1.491 . S
C2601 C2600 1.400 . S
C2601 C2602 1.398 . S
C2602 H2590 0.950 . S
C2602 C2601 1.398 . S
C2602 C2603 1.391 . S
C2603 H2591 0.950 . S
C2603 C2599 1.393 . S
C2603 C2602 1.391 . S
H2604 C2612 0.950 . S
H2605 C2617 0.950 . S
H2606 C2614 0.950 . S
H2607 C2616 0.950 . S
H2608 C2618 0.950 . S
H2609 C2620 0.950 . S
H2610 C2622 0.950 . S
H2611 C2623 0.950 . S
C2612 H2604 0.950 . S
C2612 C2613 1.386 . S
C2612 C2614 1.391 . S
C2613 C2612 1.386 . S
C2613 C2617 1.393 . S
C2614 H2606 0.950 . S
C2614 C2612 1.391 . S
C2614 C2615 1.400 . S
C2615 C2614 1.400 . S
C2615 C2616 1.398 . S
C2615 C2621 1.491 . S
C2616 H2607 0.950 . S
C2616 C2615 1.398 . S
C2616 C2617 1.391 . S
C2617 H2605 0.950 . S
C2617 C2613 1.393 . S
C2617 C2616 1.391 . S
C2618 H2608 0.950 . S
C2618 C2619 1.386 . S
C2618 C2620 1.391 . S
C2619 C2618 1.386 . S
C2619 C2623 1.393 . S
C2620 H2609 0.950 . S
C2620 C2618 1.391 . S
C2620 C2621 1.400 . S
C2621 C2615 1.491 . S
C2621 C2620 1.400 . S
C2621 C2622 1.398 . S
C2622 H2610 0.950 . S
C2622 C2621 1.398 . S
C2622 C2623 1.391 . S
C2623 H2611 0.950 . S
C2623 C2619 1.393 . S
C2623 C2622 1.391 . S
C719 C352 1.074 . S
C713 C13 1.033 . S
C733 C25 1.321 . S
C739 C380 1.230 . S
C753 C39 1.045 . S
C759 C398 1.022 . S
C779 C424 1.383 . S
C773 C50 1.501 . S
C793 C21 1.390 . S
C799 C447 1.262 . S
C819 C467 1.089 . S
C813 C35 1.099 . S
C839 C495 1.244 1_556 S
C833 C55 1.294 . S
C853 C8 1.154 . S
C859 C513 1.174 . S
C873 C69 1.247 . S
C879 C354 1.299 1_545 S
C893 C77 1.076 . S
C899 C376 1.071 . S
C919 C400 1.344 . S
C913 C97 1.289 1_545 S
C939 C421 1.096 . S
C933 C105 1.113 . S
C953 C63 1.155 . S
C959 C444 1.149 . S
C979 C469 1.354 . S
C973 C83 1.283 . S
C999 C491 1.028 . S
C993 C91 1.044 . S
C1019 C515 1.334 . S
C1013 C111 1.259 . S
C1039 C355 0.982 1_556 S
C1033 C106 1.004 . S
C1059 C538 1.144 . S
C1053 C123 1.138 . S
C1073 C134 1.035 . S
C1079 C562 1.015 . S
C1099 C586 1.055 . S
C1093 C151 1.085 . S
C1113 C64 1.027 . S
C1119 C516 1.014 . S
C1139 C401 1.005 1_565 S
C1133 C78 1.030 . S
C1153 C137 1.088 . S
C1159 C607 1.086 . S
C1179 C632 1.064 . S
C1173 C165 1.095 . S
C1193 C175 1.034 . S
C1199 C353 1.022 . S
C1219 C630 0.897 . S
C1213 C193 0.881 . S
C1233 C209 0.919 . S
C1239 C399 0.965 . S
C1253 C223 0.837 . S
C1259 C609 0.877 . S
C1279 C448 0.905 . S
C1273 C195 0.879 . S
C1299 C560 0.924 . S
C1293 C207 0.932 . S
C1319 C492 0.879 . S
C1313 C221 0.883 . S
C1339 C652 1.073 . S
C1333 C176 1.038 . S
C1359 C357 0.864 . S
C1353 C231 0.868 . S
C1373 C251 1.209 . S
C1379 C628 1.261 . S
C1399 C403 0.853 . S
C1393 C259 0.915 . S
C1413 C279 1.185 . S
C1419 C606 1.253 . S
C1433 C237 1.185 . S
C1439 C445 1.249 . S
C1453 C245 0.923 . S
C1459 C564 0.900 . S
C1479 C490 1.245 . S
C1473 C265 1.176 . S
C1493 C273 0.870 . S
C1499 C656 0.860 . S
C1513 C274 1.234 . S
C1519 C356 1.257 . S
C1533 C291 1.042 . S
C1539 C541 1.005 . S
C1553 C302 1.244 . S
C1559 C471 1.265 . S
C1573 C319 1.047 . S
C1579 C585 0.965 . S
C1599 C655 1.292 . S
C1593 C232 1.274 . S
C1619 C402 1.319 . S
C1613 C246 1.301 . S
C1639 C426 0.977 . S
C1633 C305 1.036 . S
C1659 C378 0.965 . S
C1653 C333 1.037 . S
C1673 C36 1.139 . S
C1679 C674 1.139 . S
C1699 C633 1.208 . S
C1693 C53 1.288 . S
C1719 C697 1.108 . S
C1713 C7 1.122 . S
C1733 C22 1.450 . S
C1739 C608 1.359 . S
C1753 C49 1.437 . S
C1759 C539 1.306 1_556 S
C1779 C559 1.006 . S
C1773 C11 1.018 . S
C1799 C587 1.293 . S
C1793 C27 1.314 1_455 S
C1819 C651 1.075 . S
C1813 C41 1.084 . S
C1839 C676 1.321 . S
C1833 C167 1.242 . S
C1853 C119 1.072 . S
C1859 C629 1.056 . S
C1873 C139 1.287 . S
C1879 C699 1.362 . S
C1899 C605 1.129 . S
C1893 C147 1.137 . S
C1919 C536 1.141 . S
C1913 C161 1.154 . S
C1933 C125 1.261 . S
C1939 C561 1.327 . S
C1959 C583 1.042 . S
C1953 C133 1.045 . S
C1973 C153 1.235 . S
C1979 C653 1.306 . S
C1999 C677 0.986 . S
C1993 C148 1.053 . S
C2019 C446 1.112 . S
C2013 C81 1.113 . S
C2039 C470 1.047 . S
C2033 C92 1.065 . S
C2053 C109 1.047 . S
C2059 C494 1.054 . S
C2079 C654 0.975 . S
C2073 C162 1.000 . S
C2093 C120 1.083 . S
C2099 C700 0.986 1_556 S
C2119 C423 1.120 . S
C2113 C95 1.119 . S
C2139 C379 1.112 . S
C2133 C67 1.109 . S
C2153 C203 1.049 . S
C2159 C675 1.033 . S
C2179 C377 1.022 . S
C2173 C217 1.016 . S
C2199 C698 0.985 . S
C2193 C181 0.964 . S
C2213 C190 1.023 . S
C2219 C425 1.033 . S
C2233 C218 1.012 . S
C2239 C540 1.023 . S
C2253 C179 0.943 . S
C2259 C468 0.949 . S
C2273 C189 1.008 . S
C2279 C584 1.015 . S
C2293 C204 1.085 . S
C2299 C514 1.096 . S
C2319 C679 0.854 . S
C2313 C329 0.908 . S
C2333 C293 1.130 . S
C2339 C375 1.191 . S
C2359 C702 0.912 . S
C2353 C301 0.964 . S
C2373 C321 1.176 . S
C2379 C422 1.223 . S
C2393 C335 1.160 . S
C2399 C537 1.203 . S
C2419 C472 0.934 . S
C2413 C287 0.965 . S
C2433 C307 1.133 . S
C2439 C582 1.191 . S
C2459 C518 0.841 . S
C2453 C315 0.906 . S
C2479 C678 1.254 . S
C2473 C316 1.238 . S
C2499 C449 1.086 . S
C2493 C249 1.131 . S
C2513 C260 1.271 . S
C2519 C563 1.288 . S
C2539 C493 1.043 . S
C2533 C277 1.134 . S
C2559 C517 1.268 . S
C2553 C330 1.250 . S
C2573 C288 1.259 . S
C2579 C701 1.282 . S
C2599 C610 1.099 . S
C2593 C263 1.149 . S
C2619 C631 1.075 . S
C2613 C235 1.146 . S
