# Generated by pormake.
# Topology pth, (4,4)-cn, num edge types: 1
# Building blocks:
#     Node 0, Type 0, BuildingBlock: GALJAG_clean_sbu_0, # of connection points: 4
#     Node 1, Type 0, BuildingBlock: GALJAG_clean_sbu_0, # of connection points: 4
#     Node 2, Type 0, BuildingBlock: GALJAG_clean_sbu_0, # of connection points: 4
#     Node 3, Type 1, BuildingBlock: MUDLON_clean_sbu_0, # of connection points: 4
#     Node 4, Type 1, BuildingBlock: MUDLON_clean_sbu_0, # of connection points: 4
#     Node 5, Type 1, BuildingBlock: MUDLON_clean_sbu_0, # of connection points: 4
#     Edge 6, Type (0, 1), BuildingBlock: TEMPAE_clean_linker_10, # of connection points: 2
#     Edge 7, Type (0, 1), BuildingBlock: TEMPAE_clean_linker_10, # of connection points: 2
#     Edge 8, Type (0, 1), BuildingBlock: TEMPAE_clean_linker_10, # of connection points: 2
#     Edge 9, Type (0, 1), BuildingBlock: TEMPAE_clean_linker_10, # of connection points: 2
#     Edge 10, Type (0, 1), BuildingBlock: TEMPAE_clean_linker_10, # of connection points: 2
#     Edge 11, Type (0, 1), BuildingBlock: TEMPAE_clean_linker_10, # of connection points: 2
#     Edge 12, Type (0, 1), BuildingBlock: TEMPAE_clean_linker_10, # of connection points: 2
#     Edge 13, Type (0, 1), BuildingBlock: TEMPAE_clean_linker_10, # of connection points: 2
#     Edge 14, Type (0, 1), BuildingBlock: TEMPAE_clean_linker_10, # of connection points: 2
#     Edge 15, Type (0, 1), BuildingBlock: TEMPAE_clean_linker_10, # of connection points: 2
#     Edge 16, Type (0, 1), BuildingBlock: TEMPAE_clean_linker_10, # of connection points: 2
#     Edge 17, Type (0, 1), BuildingBlock: TEMPAE_clean_linker_10, # of connection points: 2
# Relax obj value: 0.043
# Max RMSD: 0.088
# Mean RMSD: 0.080
data_MOF--net-pth--node1-GALJAG_clean_sbu_0--node2-MUDLON_clean_sbu_0--edge1-TEMPAE_clean_linker_10
_symmetry_space_group_name_H-M    P1
_symmetry_Int_Tables_number       1
_symmetry_cell_setting            triclinic
loop_
_symmetry_equiv_pos_as_xyz
'x, y, z'
_cell_length_a     23.308999
_cell_length_b     23.312825
_cell_length_c     58.88792
_cell_angle_alpha  90.10091
_cell_angle_beta   90.153037
_cell_angle_gamma 120.16682
loop_
_atom_site_label
_atom_site_type_symbol
_atom_site_fract_x
_atom_site_fract_y
_atom_site_fract_z
_atom_type_partial_charge
In0 In 1.00843 0.01118 0.09437 0.0
O1 O 0.93635 0.04133 0.10906 0.0
O2 O 0.03525 0.08984 0.12171 0.0
C3 C 0.92572 0.91094 0.06637 0.0
C4 C 0.08624 0.10696 0.06444 0.0
C5 C 0.04186 0.94572 0.12481 0.0
O6 O 0.9052 0.93706 0.0806 0.0
O7 O 0.98784 0.93569 0.06617 0.0
O8 O 0.08432 0.99063 0.11215 0.0
O9 O 0.98339 0.93434 0.12205 0.0
C10 C 0.97864 0.0845 0.12239 0.0
O11 O 0.10616 0.0733 0.07519 0.0
O12 O 0.02727 0.09181 0.06865 0.0
In13 In 0.02152 0.01863 0.42227 0.0
O14 O 0.08892 0.10854 0.40032 0.0
O15 O 0.98592 0.07524 0.4001 0.0
C16 C 0.12258 0.04014 0.45052 0.0
C17 C 0.92796 0.99732 0.45365 0.0
C18 C 0.99341 0.92119 0.39148 0.0
O19 O 0.11668 0.08664 0.44212 0.0
O20 O 0.07742 0.98282 0.44476 0.0
O21 O 0.94908 0.92871 0.40087 0.0
O22 O 0.05174 0.96238 0.39773 0.0
C23 C 0.04272 0.11634 0.39269 0.0
O24 O 0.93239 0.95081 0.44446 0.0
O25 O 0.97073 0.05455 0.44705 0.0
In26 In 0.01522 1.003 0.75353 0.0
O27 O 0.94014 0.89738 0.76472 0.0
O28 O 0.94256 0.97739 0.78285 0.0
C29 C 0.08695 0.97876 0.72293 0.0
C30 C 0.9454 0.04008 0.72642 0.0
C31 C 0.11092 0.07443 0.78463 0.0
O32 O 0.04458 0.93413 0.73568 0.0
O33 O 0.09274 0.03518 0.72559 0.0
O34 O 0.07984 0.09779 0.77413 0.0
O35 O 0.09376 0.01544 0.77938 0.0
C36 C 0.91613 0.91541 0.78054 0.0
O37 O 0.99122 0.08076 0.73937 0.0
O38 O 0.93584 0.98189 0.72708 0.0
Mg39 Mg 1.00954 0.51457 0.25645 0.0
C40 C 0.07129 0.43572 0.27292 0.0
O41 O 0.05403 0.41142 0.25228 0.0
C42 C 0.09189 0.65723 0.23961 0.0
O43 O 0.09238 0.67085 0.26129 0.0
C44 C 0.95167 0.43088 0.2144 0.0
O45 O 0.98354 0.48998 0.20511 0.0
O46 O 0.94778 0.4267 0.23593 0.0
O47 O 0.06493 0.48493 0.27858 0.0
O48 O 0.95767 0.54645 0.27925 0.0
C49 C 0.93931 0.58701 0.27306 0.0
O50 O 0.9423 0.60205 0.25144 0.0
O51 O 0.06704 0.59698 0.23348 0.0
Mg52 Mg 0.52847 0.02657 0.59063 0.0
C53 C 0.49332 0.07545 0.54825 0.0
O54 O 0.52677 0.05002 0.53895 0.0
C55 C 0.61172 0.08452 0.63295 0.0
O56 O 0.5524 0.05485 0.64212 0.0
C57 C 0.38776 0.95088 0.60764 0.0
O58 O 0.37646 0.95997 0.58645 0.0
O59 O 0.44665 0.96745 0.61355 0.0
O60 O 0.492 0.07879 0.56979 0.0
O61 O 0.5583 0.97269 0.56782 0.0
C62 C 0.60672 0.96487 0.57338 0.0
O63 O 0.63019 0.97982 0.5942 0.0
O64 O 0.61634 0.08714 0.61141 0.0
Mg65 Mg 0.5023 0.49043 0.92306 0.0
C66 C 0.42758 0.34677 0.90913 0.0
O67 O 0.40049 0.34213 0.92907 0.0
C68 C 0.60508 0.59318 0.95107 0.0
O69 O 0.57667 0.6211 0.93991 0.0
C70 C 0.41136 0.4692 0.96265 0.0
O71 O 0.46876 0.50506 0.97291 0.0
O72 O 0.41029 0.46299 0.94115 0.0
O73 O 0.47887 0.4013 0.90381 0.0
O74 O 0.53852 0.56628 0.8967 0.0
C75 C 0.59563 0.57765 0.89052 0.0
O76 O 0.61925 0.54235 0.8997 0.0
O77 O 0.58346 0.53151 0.94794 0.0
C78 C 0.90121 0.12131 0.13704 0.0
C79 C 0.96439 0.12776 0.13691 0.0
C80 C 0.88867 0.16477 0.14988 0.0
C81 C 0.94065 0.216 0.16274 0.0
C82 C 1.00409 0.2217 0.16303 0.0
C83 C 0.0151 0.17748 0.15017 0.0
C84 C 0.82028 0.15678 0.14931 0.0
C85 C 0.06097 0.27567 0.17649 0.0
C86 C 0.94715 0.37777 0.17701 0.0
C87 C 0.93519 0.37136 0.20047 0.0
C88 C 0.94515 0.32593 0.16422 0.0
C89 C 0.93046 0.26599 0.17511 0.0
C90 C 0.91342 0.25735 0.19842 0.0
C91 C 0.91604 0.31017 0.21084 0.0
C92 C 0.96343 0.33718 0.13939 0.0
C93 C 0.89676 0.19396 0.21061 0.0
H94 H 0.86176 0.08284 0.12687 0.0
H95 H 0.06401 0.18269 0.15018 0.0
H96 H 0.80166 0.15371 0.16685 0.0
H97 H 0.82259 0.20084 0.14124 0.0
H98 H 0.78416 0.11179 0.13975 0.0
H99 H 0.10664 0.27206 0.17546 0.0
H100 H 0.07247 0.32502 0.17005 0.0
H101 H 0.0469 0.27307 0.1946 0.0
H102 H 0.96148 0.42461 0.16878 0.0
H103 H 0.90642 0.30453 0.22893 0.0
H104 H 0.92659 0.29476 0.12902 0.0
H105 H 0.0123 0.34074 0.13691 0.0
H106 H 0.96658 0.38342 0.13292 0.0
H107 H 0.86117 0.15011 0.2005 0.0
H108 H 0.87523 0.19125 0.22766 0.0
H109 H 0.94251 0.19101 0.21278 0.0
C110 C 0.82912 0.92108 0.47711 0.0
C111 C 0.87689 0.98579 0.47081 0.0
C112 C 0.78071 0.90971 0.49347 0.0
C113 C 0.78024 0.96436 0.5038 0.0
C114 C 0.82824 0.02977 0.49741 0.0
C115 C 0.87587 0.03966 0.48099 0.0
C116 C 0.7303 0.83931 0.49979 0.0
C117 C 0.82957 0.08943 0.50805 0.0
C118 C 0.62787 0.95005 0.53262 0.0
C119 C 0.6448 0.95297 0.55566 0.0
C120 C 0.67 0.95047 0.51551 0.0
C121 C 0.73046 0.95382 0.52158 0.0
C122 C 0.74585 0.95273 0.54479 0.0
C123 C 0.70284 0.95224 0.56154 0.0
C124 C 0.65152 0.95105 0.49096 0.0
C125 C 0.80959 0.95585 0.55199 0.0
H126 H 0.82956 0.87921 0.46927 0.0
H127 H 0.91261 0.08978 0.47619 0.0
H128 H 0.73461 0.83129 0.51813 0.0
H129 H 0.67938 0.8303 0.49685 0.0
H130 H 0.73663 0.80225 0.48989 0.0
H131 H 0.86974 0.13695 0.50107 0.0
H132 H 0.78136 0.08708 0.5052 0.0
H133 H 0.8368 0.08938 0.52668 0.0
H134 H 0.58308 0.9504 0.52788 0.0
H135 H 0.71627 0.95414 0.57927 0.0
H136 H 0.65665 0.91333 0.48107 0.0
H137 H 0.68587 1.00019 0.48344 0.0
H138 H 0.59994 0.94126 0.48902 0.0
H139 H 0.8159 0.91779 0.54282 0.0
H140 H 0.81127 0.94825 0.57054 0.0
H141 H 0.85236 1.00504 0.54752 0.0
C142 C 0.84491 0.8903 0.81497 0.0
C143 C 0.86207 0.86787 0.79543 0.0
C144 C 0.79643 0.84546 0.82998 0.0
C145 C 0.76385 0.77659 0.8252 0.0
C146 C 0.779 0.75396 0.80499 0.0
C147 C 0.82824 0.79985 0.79042 0.0
C148 C 0.78235 0.87156 0.85147 0.0
C149 C 0.74498 0.68101 0.79918 0.0
C150 C 0.70608 0.65549 0.87422 0.0
C151 C 0.63742 0.63092 0.87434 0.0
C152 C 0.74758 0.70383 0.85866 0.0
C153 C 0.71981 0.72784 0.8425 0.0
C154 C 0.6506 0.70408 0.84268 0.0
C155 C 0.61012 0.65613 0.85878 0.0
C156 C 0.82122 0.72856 0.85935 0.0
C157 C 0.61924 0.72818 0.82557 0.0
H158 H 0.87077 0.94289 0.81889 0.0
H159 H 0.84085 0.7823 0.77522 0.0
H160 H 0.72819 0.85083 0.85353 0.0
H161 H 0.79998 0.85551 0.86636 0.0
H162 H 0.80722 0.92658 0.85167 0.0
H163 H 0.75716 0.67209 0.78177 0.0
H164 H 0.76044 0.65522 0.81145 0.0
H165 H 0.69036 0.6583 0.80055 0.0
H166 H 0.72771 0.63688 0.88639 0.0
H167 H 0.55708 0.63718 0.8588 0.0
H168 H 0.84944 0.78338 0.8611 0.0
H169 H 0.83681 0.71593 0.84321 0.0
H170 H 0.83521 0.70683 0.87361 0.0
H171 H 0.64355 0.78305 0.82627 0.0
H172 H 0.56519 0.70665 0.82845 0.0
H173 H 0.6267 0.71472 0.80818 0.0
C174 C 1.00795 0.85872 0.1546 0.0
C175 C 0.05843 0.9087 0.14151 0.0
C176 C 0.02181 0.82224 0.17036 0.0
C177 C 0.0879 0.836 0.1732 0.0
C178 C 0.1393 0.88673 0.16016 0.0
C179 C 0.12393 0.92249 0.14443 0.0
C180 C 0.96545 0.76856 0.18389 0.0
C181 C 0.21033 0.90294 0.16277 0.0
C182 C 0.11504 0.77088 0.22885 0.0
C183 C 0.1045 0.7084 0.22226 0.0
C184 C 0.11392 0.81492 0.21283 0.0
C185 C 0.10213 0.79611 0.18965 0.0
C186 C 0.09621 0.73518 0.18269 0.0
C187 C 0.09749 0.6921 0.19907 0.0
C188 C 0.12081 0.87955 0.22096 0.0
C189 C 0.08391 0.71333 0.15814 0.0
H190 H 0.95722 0.84778 0.15246 0.0
H191 H 0.16319 0.96113 0.13439 0.0
H192 H 0.96165 0.71995 0.18046 0.0
H193 H 0.97525 0.77878 0.20233 0.0
H194 H 0.91697 0.76445 0.17981 0.0
H195 H 0.2447 0.94457 0.15168 0.0
H196 H 0.22662 0.91631 0.18068 0.0
H197 H 0.21434 0.85868 0.15856 0.0
H198 H 0.12067 0.78413 0.2467 0.0
H199 H 0.08975 0.64416 0.19375 0.0
H200 H 0.07192 0.87671 0.21986 0.0
H201 H 0.15571 0.92116 0.21001 0.0
H202 H 0.13859 0.89092 0.23882 0.0
H203 H 0.03317 0.70152 0.15314 0.0
H204 H 0.0884 0.6687 0.15511 0.0
H205 H 0.11934 0.75382 0.14694 0.0
C206 C 0.18045 0.99812 0.47542 0.0
C207 C 0.17852 0.05181 0.46557 0.0
C208 C 0.23383 1.00812 0.48929 0.0
C209 C 0.28685 0.07342 0.49332 0.0
C210 C 0.28489 0.12793 0.4836 0.0
C211 C 0.23065 0.11648 0.46988 0.0
C212 C 0.23379 0.94863 0.49943 0.0
C213 C 0.34051 0.19821 0.48744 0.0
C214 C 0.39573 0.09251 0.54428 0.0
C215 C 0.44685 0.08641 0.53413 0.0
C216 C 0.34464 0.09113 0.53113 0.0
C217 C 0.34493 0.084 0.50724 0.0
C218 C 0.39846 0.0818 0.49681 0.0
C219 C 0.44864 0.08287 0.51037 0.0
C220 C 0.28847 0.09361 0.54291 0.0
C221 C 0.40103 0.07487 0.47139 0.0
H222 H 0.14025 0.94805 0.47222 0.0
H223 H 0.22946 0.15821 0.4623 0.0
H224 H 0.27716 0.94589 0.49312 0.0
H225 H 0.23848 0.95371 0.51818 0.0
H226 H 0.18794 0.90131 0.49519 0.0
H227 H 0.33066 0.23524 0.47919 0.0
H228 H 0.34809 0.20919 0.5059 0.0
H229 H 0.38753 0.20417 0.48062 0.0
H230 H 0.39375 0.0951 0.56262 0.0
H231 H 0.48809 0.07849 0.50236 0.0
H232 H 0.24231 0.0448 0.5412 0.0
H233 H 0.27911 0.13111 0.53484 0.0
H234 H 0.29871 0.1056 0.56127 0.0
H235 H 0.36019 0.02546 0.46593 0.0
H236 H 0.44885 0.08002 0.46576 0.0
H237 H 0.3937 0.11277 0.4626 0.0
C238 C 0.19973 0.08622 0.8115 0.0
C239 C 0.16231 0.11232 0.80208 0.0
C240 C 0.24727 0.12058 0.82855 0.0
C241 C 0.25716 0.18222 0.83655 0.0
C242 C 0.22 0.20912 0.82691 0.0
C243 C 0.17328 0.17401 0.80973 0.0
C244 C 0.28631 0.09057 0.83819 0.0
C245 C 0.22873 0.27452 0.83505 0.0
C246 C 0.32458 0.24513 0.89581 0.0
C247 C 0.38904 0.29707 0.8912 0.0
C248 C 0.28203 0.20566 0.87826 0.0
C249 C 0.30457 0.21781 0.85552 0.0
C250 C 0.37096 0.26717 0.8509 0.0
C251 C 0.41236 0.30634 0.86878 0.0
C252 C 0.21167 0.15351 0.88396 0.0
C253 C 0.39724 0.28101 0.82694 0.0
H254 H 0.19172 0.03867 0.80559 0.0
H255 H 0.14452 0.19442 0.80254 0.0
H256 H 0.34029 0.12631 0.83684 0.0
H257 H 0.27495 0.07982 0.8565 0.0
H258 H 0.27505 0.04385 0.82938 0.0
H259 H 0.19688 0.28918 0.82555 0.0
H260 H 0.21633 0.27122 0.85336 0.0
H261 H 0.28126 0.31426 0.83319 0.0
H262 H 0.30597 0.23733 0.91304 0.0
H263 H 0.4621 0.34613 0.86501 0.0
H264 H 0.19931 0.10515 0.87627 0.0
H265 H 0.17676 0.16797 0.87672 0.0
H266 H 0.20333 0.14682 0.90257 0.0
H267 H 0.3859 0.23419 0.81824 0.0
H268 H 0.45169 0.31569 0.82643 0.0
H269 H 0.37246 0.30318 0.81717 0.0
C270 C 0.9148 0.12249 0.71171 0.0
C271 C 0.90417 0.05768 0.71208 0.0
C272 C 0.87358 0.1381 0.69877 0.0
C273 C 0.82043 0.0876 0.68605 0.0
C274 C 0.81037 0.02242 0.6861 0.0
C275 C 0.85235 1.00837 0.69904 0.0
C276 C 0.88618 0.20823 0.69899 0.0
C277 C 0.75426 0.96698 0.67283 0.0
C278 C 0.66349 0.08974 0.67074 0.0
C279 C 0.6705 0.09983 0.64718 0.0
C280 C 0.71398 0.09016 0.68392 0.0
C281 C 0.77316 0.10123 0.67333 0.0
C282 C 0.78269 0.1167 0.64989 0.0
C283 C 0.73124 0.11579 0.63709 0.0
C284 C 0.70177 0.07366 0.70886 0.0
C285 C 0.84526 0.12945 0.63798 0.0
H286 H 0.95487 0.16086 0.72171 0.0
H287 H 0.84385 0.95818 0.6992 0.0
H288 H 0.89094 0.22681 0.68136 0.0
H289 H 0.8434 0.20923 0.70677 0.0
H290 H 0.93181 0.24258 0.70863 0.0
H291 H 0.75416 0.91941 0.67424 0.0
H292 H 0.70599 0.95917 0.67908 0.0
H293 H 0.75797 0.98046 0.65462 0.0
H294 H 0.61704 0.07795 0.67876 0.0
H295 H 0.7374 0.12399 0.61892 0.0
H296 H 0.74529 0.10915 0.71912 0.0
H297 H 0.69448 0.02341 0.71179 0.0
H298 H 0.65719 0.07442 0.71507 0.0
H299 H 0.88975 0.16369 0.6481 0.0
H300 H 0.84952 0.15084 0.6208 0.0
H301 H 0.84523 0.08206 0.63614 0.0
C302 C 0.81189 0.82928 0.0523 0.0
C303 C 0.88079 0.85671 0.05082 0.0
C304 C 0.7689 0.7805 0.03684 0.0
C305 C 0.79546 0.75886 0.0194 0.0
C306 C 0.86485 0.78467 0.01834 0.0
C307 C 0.90669 0.83324 0.03408 0.0
C308 C 0.69518 0.75411 0.03862 0.0
C309 C 0.89515 0.76313 0.99997 0.0
C310 C 0.67342 0.60493 0.98582 0.0
C311 C 0.65862 0.63369 0.9675 0.0
C312 C 0.71929 0.64494 1.00267 0.0
C313 C 0.75125 0.71501 1.00094 0.0
C314 C 0.73848 0.74394 0.98192 0.0
C315 C 0.69226 0.70301 0.96554 0.0
C316 C 0.73167 0.61236 0.02272 0.0
C317 C 0.772 0.81835 0.9792 0.0
H318 H 0.79152 0.84684 0.0653 0.0
H319 H 0.95992 0.85401 0.03292 0.0
H320 H 0.67808 0.77073 0.02374 0.0
H321 H 0.66775 0.69907 0.03841 0.0
H322 H 0.68198 0.77133 0.05431 0.0
H323 H 0.94896 0.78264 1.00285 0.0
H324 H 0.86954 0.70822 0.99897 0.0
H325 H 0.88871 0.78122 0.98327 0.0
H326 H 0.64741 0.55139 0.98743 0.0
H327 H 0.68165 0.72559 0.95126 0.0
H328 H 0.71253 0.62334 0.03838 0.0
H329 H 0.78571 0.63275 0.0252 0.0
H330 H 0.70721 0.55766 0.02067 0.0
H331 H 0.75672 0.83974 0.99318 0.0
H332 H 0.75947 0.83283 0.96277 0.0
H333 H 0.82667 0.84088 0.9803 0.0
C334 C 0.91259 0.82249 0.36855 0.0
C335 C 0.97844 0.86893 0.37431 0.0
C336 C 0.89804 0.77302 0.35216 0.0
C337 C 0.9506 0.77017 0.34124 0.0
C338 C 0.01715 0.81706 0.34699 0.0
C339 C 0.03023 0.86573 0.36348 0.0
C340 C 0.82651 0.7238 0.34654 0.0
C341 C 0.07467 0.81588 0.3357 0.0
C342 C 0.92936 0.61336 0.31362 0.0
C343 C 0.92998 0.62774 0.29045 0.0
C344 C 0.93255 0.65777 0.33039 0.0
C345 C 0.93667 0.71815 0.32387 0.0
C346 C 0.93336 0.73115 0.30056 0.0
C347 C 0.92986 0.68571 0.28413 0.0
C348 C 0.93533 0.64174 0.35506 0.0
C349 C 0.93751 0.79489 0.29289 0.0
H350 H 0.87234 0.82471 0.37688 0.0
H351 H 0.08122 0.90154 0.36782 0.0
H352 H 0.81703 0.72653 0.32822 0.0
H353 H 0.81604 0.67262 0.34991 0.0
H354 H 0.79139 0.73271 0.35656 0.0
H355 H 0.12346 0.85616 0.34195 0.0
H356 H 0.07168 0.76754 0.33884 0.0
H357 H 0.07221 0.82107 0.31705 0.0
H358 H 0.92908 0.56854 0.31868 0.0
H359 H 0.93039 0.69737 0.2663 0.0
H360 H 0.89931 0.64897 0.36515 0.0
H361 H 0.9855 0.67604 0.36202 0.0
H362 H 0.92458 0.59 0.35743 0.0
H363 H 0.9017 0.80382 0.3024 0.0
H364 H 0.92744 0.7945 0.27442 0.0
H365 H 0.9879 0.83718 0.29652 0.0
C366 C 0.11762 0.90255 0.70313 0.0
C367 C 0.12731 0.9665 0.70634 0.0
C368 C 0.15612 0.89087 0.68746 0.0
C369 C 0.20559 0.94447 0.67481 0.0
C370 C 0.21552 0.00909 0.67803 0.0
C371 C 0.17622 0.01925 0.6937 0.0
C372 C 0.14386 0.82129 0.68442 0.0
C373 C 0.26786 0.06769 0.66494 0.0
C374 C 0.35313 0.94284 0.64833 0.0
C375 C 0.33654 0.93623 0.62517 0.0
C376 C 0.30934 0.94192 0.66487 0.0
C377 C 0.24731 0.9338 0.65811 0.0
C378 C 0.2284 0.92237 0.63494 0.0
C379 C 0.27325 0.92382 0.61875 0.0
C380 C 0.33135 0.95405 0.68941 0.0
C381 C 0.16246 0.9128 0.62703 0.0
H382 H 0.07984 0.86156 0.71284 0.0
H383 H 0.18406 0.0688 0.69611 0.0
H384 H 0.13065 0.8054 0.66647 0.0
H385 H 0.18979 0.82001 0.68832 0.0
H386 H 0.10339 0.785 0.69549 0.0
H387 H 0.26958 0.11477 0.66954 0.0
H388 H 0.31742 0.07355 0.66823 0.0
H389 H 0.25803 0.05905 0.64645 0.0
H390 H 0.40177 0.95223 0.65351 0.0
H391 H 0.25971 0.91817 0.60092 0.0
H392 H 0.29177 0.91704 0.70054 0.0
H393 H 0.34085 1.0038 0.6947 0.0
H394 H 0.37736 0.95187 0.69223 0.0
H395 H 0.12162 0.87559 0.63773 0.0
H396 H 0.15186 0.89649 0.60901 0.0
H397 H 0.16256 0.96025 0.62877 0.0
C398 C 0.19017 0.16961 0.04165 0.0
C399 C 0.12876 0.16083 0.04852 0.0
C400 C 0.23131 0.2212 0.02685 0.0
C401 C 0.21098 0.2657 0.01897 0.0
C402 C 0.1489 0.25691 0.0258 0.0
C403 C 0.10835 0.20434 0.04037 0.0
C404 C 0.29684 0.2284 0.01978 0.0
C405 C 0.12583 0.30371 0.01802 0.0
C406 C 0.35339 0.43218 0.99996 0.0
C407 C 0.35269 0.42336 0.97636 0.0
C408 C 0.30537 0.38262 0.01392 0.0
C409 C 0.25584 0.32234 1.00409 0.0
C410 C 0.25251 0.31469 0.98017 0.0
C411 C 0.3006 0.36558 0.96657 0.0
C412 C 0.30993 0.39338 0.0393 0.0
C413 C 0.20074 0.25111 0.96901 0.0
H414 H 0.20607 0.13601 0.04782 0.0
H415 H 0.06101 0.19796 0.04569 0.0
H416 H 0.29984 0.22792 1.00098 0.0
H417 H 0.33821 0.27677 0.0258 0.0
H418 H 0.30419 0.18821 0.02667 0.0
H419 H 0.07564 0.28931 0.02449 0.0
H420 H 0.16125 0.3548 0.02396 0.0
H421 H 0.12483 0.30506 0.99921 0.0
H422 H 0.39316 0.47685 1.00766 0.0
H423 H 0.29951 0.35825 0.94836 0.0
H424 H 0.32477 0.35996 0.04749 0.0
H425 H 0.26086 0.38097 0.04628 0.0
H426 H 0.34669 0.44535 0.04405 0.0
H427 H 0.20981 0.21022 0.97366 0.0
H428 H 0.20139 0.25502 0.9502 0.0
H429 H 0.15049 0.23727 0.97516 0.0
C430 C 1.00015 0.1725 0.36726 0.0
C431 C 0.05394 0.16833 0.37597 0.0
C432 C 1.00955 0.21998 0.35083 0.0
C433 C 0.0744 0.26456 0.34293 0.0
C434 C 0.12907 0.26125 0.3519 0.0
C435 C 0.11818 0.21306 0.3683 0.0
C436 C 0.94988 0.22177 0.34167 0.0
C437 C 0.19891 0.30803 0.34397 0.0
C438 C 0.07972 0.33724 0.28482 0.0
C439 C 0.08386 0.39772 0.2905 0.0
C440 C 0.07964 0.29473 0.30169 0.0
C441 C 0.08418 0.31322 0.32482 0.0
C442 C 0.09255 0.37598 0.3306 0.0
C443 C 0.09223 0.41748 0.31337 0.0
C444 C 0.07088 0.22835 0.29479 0.0
C445 C 0.09822 0.39781 0.35506 0.0
H446 H 0.9504 0.1381 0.37312 0.0
H447 H 0.16 0.21014 0.37499 0.0
H448 H 0.95618 0.27175 0.34432 0.0
H449 H 0.94532 0.2121 0.32311 0.0
H450 H 0.90297 0.18452 0.3499 0.0
H451 H 0.23627 0.30066 0.35324 0.0
H452 H 0.20295 0.30058 0.32556 0.0
H453 H 0.21112 0.36021 0.34632 0.0
H454 H 0.07352 0.32155 0.26721 0.0
H455 H 0.09576 0.4642 0.31795 0.0
H456 H 0.0217 0.18811 0.30055 0.0
H457 H 0.1091 0.22036 0.30305 0.0
H458 H 0.07403 0.22391 0.27611 0.0
H459 H 0.05012 0.36671 0.36373 0.0
H460 H 0.11166 0.45062 0.3566 0.0
H461 H 0.13604 0.39086 0.36413 0.0
loop_
_geom_bond_atom_site_label_1
_geom_bond_atom_site_label_2
_geom_bond_distance
_geom_bond_site_symmetry_2
_ccdc_geom_bond_type
In0 O1 2.294 1_455 S
In0 O2 2.326 . S
In0 O6 2.266 1_445 S
In0 O7 2.326 1_445 S
In0 O8 2.266 1_545 S
In0 O9 2.326 1_445 S
In0 O11 2.294 . S
In0 O12 2.326 . S
O1 In0 2.294 1_655 S
O1 C10 1.240 1_655 S
O2 In0 2.326 . S
O2 C10 1.252 . S
C3 O6 1.252 . S
C3 O7 1.260 . S
C4 O11 1.240 . S
C4 O12 1.252 . S
C5 O8 1.244 1_655 S
C5 O9 1.273 . S
O6 In0 2.266 1_665 S
O6 C3 1.252 . S
O7 In0 2.326 1_665 S
O7 C3 1.260 . S
O8 In0 2.266 1_565 S
O8 C5 1.244 1_455 S
O9 In0 2.326 1_665 S
O9 C5 1.273 . S
C10 O1 1.240 1_455 S
C10 O2 1.252 . S
O11 In0 2.294 . S
O11 C4 1.240 . S
O12 In0 2.326 . S
O12 C4 1.252 . S
In13 O14 2.294 . S
In13 O15 2.326 1_455 S
In13 O19 2.266 . S
In13 O20 2.326 1_545 S
In13 O21 2.266 1_445 S
In13 O22 2.326 1_545 S
In13 O24 2.294 1_445 S
In13 O25 2.326 1_455 S
O14 In13 2.294 . S
O14 C23 1.240 1_455 S
O15 In13 2.326 1_655 S
O15 C23 1.252 . S
C16 O19 1.252 1_565 S
C16 O20 1.260 . S
C17 O24 1.240 1_545 S
C17 O25 1.252 . S
C18 O21 1.252 1_455 S
C18 O22 1.260 . S
O19 In13 2.266 . S
O19 C16 1.252 1_545 S
O20 In13 2.326 1_565 S
O20 C16 1.260 . S
O21 In13 2.266 1_665 S
O21 C18 1.252 1_655 S
O22 In13 2.326 1_565 S
O22 C18 1.260 . S
C23 O14 1.240 1_655 S
C23 O15 1.252 . S
O24 In13 2.294 1_665 S
O24 C17 1.240 1_565 S
O25 In13 2.326 1_655 S
O25 C17 1.252 . S
In26 O27 2.294 1_445 S
In26 O28 2.326 1_445 S
In26 O32 2.266 1_545 S
In26 O33 2.326 . S
In26 O34 2.266 . S
In26 O35 2.326 . S
In26 O37 2.294 1_455 S
In26 O38 2.326 1_445 S
O27 In26 2.294 1_665 S
O27 C36 1.240 . S
O28 In26 2.326 1_665 S
O28 C36 1.252 . S
C29 O32 1.252 1_545 S
C29 O33 1.260 . S
C30 O37 1.240 1_565 S
C30 O38 1.252 . S
C31 O34 1.252 . S
C31 O35 1.260 . S
O32 In26 2.266 1_565 S
O32 C29 1.252 1_565 S
O33 In26 2.326 . S
O33 C29 1.260 . S
O34 In26 2.266 . S
O34 C31 1.252 . S
O35 In26 2.326 . S
O35 C31 1.260 . S
C36 O27 1.240 . S
C36 O28 1.252 . S
O37 In26 2.294 1_655 S
O37 C30 1.240 1_545 S
O38 In26 2.326 1_665 S
O38 C30 1.252 . S
Mg39 O46 2.141 . S
Mg39 O47 2.048 . S
Mg39 O48 2.048 . S
Mg39 O51 2.141 . S
C40 O41 1.313 . S
C40 O47 1.195 1_655 S
O41 C40 1.313 . S
C42 O43 1.245 . S
C42 O51 1.289 1_655 S
O43 C42 1.245 . S
C44 O45 1.245 . S
C44 O46 1.289 1_655 S
O45 C44 1.245 . S
O46 Mg39 2.141 . S
O46 C44 1.289 1_455 S
O47 Mg39 2.048 . S
O47 C40 1.195 1_455 S
O48 Mg39 2.048 . S
O48 C49 1.195 1_455 S
C49 O48 1.195 1_655 S
C49 O50 1.313 . S
O50 C49 1.313 . S
O51 Mg39 2.141 . S
O51 C42 1.289 1_455 S
Mg52 O59 2.141 . S
Mg52 O60 2.048 . S
Mg52 O61 2.048 . S
Mg52 O64 2.141 . S
C53 O54 1.313 . S
C53 O60 1.195 1_565 S
O54 C53 1.313 . S
C55 O56 1.245 . S
C55 O64 1.289 1_565 S
O56 C55 1.245 . S
C57 O58 1.245 . S
C57 O59 1.289 1_565 S
O58 C57 1.245 . S
O59 Mg52 2.141 . S
O59 C57 1.289 1_545 S
O60 Mg52 2.048 . S
O60 C53 1.195 1_545 S
O61 Mg52 2.048 . S
O61 C62 1.195 1_545 S
C62 O61 1.195 1_565 S
C62 O63 1.313 . S
O63 C62 1.313 . S
O64 Mg52 2.141 . S
O64 C55 1.289 1_545 S
Mg65 O72 2.141 . S
Mg65 O73 2.048 . S
Mg65 O74 2.048 . S
Mg65 O77 2.141 . S
C66 O67 1.313 . S
C66 O73 1.195 . S
O67 C66 1.313 . S
C68 O69 1.245 . S
C68 O77 1.289 . S
O69 C68 1.245 . S
C70 O71 1.245 . S
C70 O72 1.289 . S
O71 C70 1.245 . S
O72 Mg65 2.141 . S
O72 C70 1.289 . S
O73 Mg65 2.048 . S
O73 C66 1.195 . S
O74 Mg65 2.048 . S
O74 C75 1.195 . S
C75 O74 1.195 . S
C75 O76 1.313 . S
O76 C75 1.313 . S
O77 Mg65 2.141 . S
O77 C68 1.289 . S
C78 C79 1.391 1_655 S
C78 C80 1.394 . S
C78 H94 0.931 . S
C79 C78 1.391 1_455 S
C79 C83 1.376 . S
C80 C78 1.394 . S
C80 C81 1.369 1_655 S
C80 C84 1.531 . S
C81 C80 1.369 1_455 S
C81 C82 1.410 . S
C81 C89 1.503 . S
C82 C81 1.410 . S
C82 C83 1.392 . S
C82 C85 1.511 . S
C83 C79 1.376 . S
C83 C82 1.392 . S
C83 H95 0.929 . S
C84 C80 1.531 . S
C84 H96 0.960 . S
C84 H97 0.962 . S
C84 H98 0.960 . S
C85 C82 1.511 . S
C85 H99 0.961 . S
C85 H100 0.961 . S
C85 H101 0.961 . S
C86 C87 1.370 1_655 S
C86 C88 1.363 . S
C86 H102 0.931 . S
C87 C86 1.370 1_455 S
C87 C91 1.408 . S
C88 C86 1.363 . S
C88 C89 1.370 1_655 S
C88 C92 1.524 . S
C89 C81 1.503 . S
C89 C88 1.370 1_455 S
C89 C90 1.403 . S
C90 C89 1.403 . S
C90 C91 1.404 . S
C90 C93 1.539 . S
C91 C87 1.408 . S
C91 C90 1.404 . S
C91 H103 0.930 . S
C92 C88 1.524 . S
C92 H104 0.956 . S
C92 H105 0.961 1_655 S
C92 H106 0.961 . S
C93 C90 1.539 . S
C93 H107 0.958 1_455 S
C93 H108 0.961 . S
C93 H109 0.960 . S
H94 C78 0.931 . S
H95 C83 0.929 . S
H96 C84 0.960 . S
H97 C84 0.962 . S
H98 C84 0.960 . S
H99 C85 0.961 . S
H100 C85 0.961 . S
H101 C85 0.961 . S
H102 C86 0.931 . S
H103 C91 0.930 . S
H104 C92 0.956 . S
H105 C92 0.961 1_455 S
H106 C92 0.961 . S
H107 C93 0.958 1_655 S
H108 C93 0.961 . S
H109 C93 0.960 . S
C110 C111 1.391 1_565 S
C110 C112 1.394 . S
C110 H126 0.931 . S
C111 C110 1.391 1_545 S
C111 C115 1.376 . S
C112 C110 1.394 . S
C112 C113 1.369 . S
C112 C116 1.531 . S
C113 C112 1.369 . S
C113 C114 1.410 1_565 S
C113 C121 1.503 . S
C114 C113 1.410 1_545 S
C114 C115 1.392 . S
C114 C117 1.511 . S
C115 C111 1.376 . S
C115 C114 1.392 . S
C115 H127 0.929 . S
C116 C112 1.531 . S
C116 H128 0.960 . S
C116 H129 0.962 . S
C116 H130 0.960 . S
C117 C114 1.511 . S
C117 H131 0.961 . S
C117 H132 0.961 . S
C117 H133 0.961 . S
C118 C119 1.370 . S
C118 C120 1.363 . S
C118 H134 0.931 . S
C119 C118 1.370 . S
C119 C123 1.408 1_545 S
C120 C118 1.363 . S
C120 C121 1.370 1_545 S
C120 C124 1.524 . S
C121 C113 1.503 . S
C121 C120 1.370 1_565 S
C121 C122 1.403 . S
C122 C121 1.403 . S
C122 C123 1.404 . S
C122 C125 1.539 . S
C123 C119 1.408 1_565 S
C123 C122 1.404 . S
C123 H135 0.930 . S
C124 C120 1.524 . S
C124 H136 0.956 . S
C124 H137 0.961 . S
C124 H138 0.961 . S
C125 C122 1.539 . S
C125 H139 0.958 . S
C125 H140 0.961 . S
C125 H141 0.960 . S
H126 C110 0.931 . S
H127 C115 0.929 . S
H128 C116 0.960 . S
H129 C116 0.962 . S
H130 C116 0.960 . S
H131 C117 0.961 . S
H132 C117 0.961 . S
H133 C117 0.961 . S
H134 C118 0.931 . S
H135 C123 0.930 . S
H136 C124 0.956 . S
H137 C124 0.961 . S
H138 C124 0.961 . S
H139 C125 0.958 . S
H140 C125 0.961 . S
H141 C125 0.960 . S
C142 C143 1.391 . S
C142 C144 1.394 . S
C142 H158 0.931 . S
C143 C142 1.391 . S
C143 C147 1.376 . S
C144 C142 1.394 . S
C144 C145 1.369 . S
C144 C148 1.531 . S
C145 C144 1.369 . S
C145 C146 1.410 . S
C145 C153 1.503 . S
C146 C145 1.410 . S
C146 C147 1.392 . S
C146 C149 1.511 . S
C147 C143 1.376 . S
C147 C146 1.392 . S
C147 H159 0.929 . S
C148 C144 1.531 . S
C148 H160 0.960 . S
C148 H161 0.962 . S
C148 H162 0.960 . S
C149 C146 1.511 . S
C149 H163 0.961 . S
C149 H164 0.961 . S
C149 H165 0.961 . S
C150 C151 1.370 . S
C150 C152 1.363 . S
C150 H166 0.931 . S
C151 C150 1.370 . S
C151 C155 1.408 . S
C152 C150 1.363 . S
C152 C153 1.370 . S
C152 C156 1.524 . S
C153 C145 1.503 . S
C153 C152 1.370 . S
C153 C154 1.403 . S
C154 C153 1.403 . S
C154 C155 1.404 . S
C154 C157 1.539 . S
C155 C151 1.408 . S
C155 C154 1.404 . S
C155 H167 0.930 . S
C156 C152 1.524 . S
C156 H168 0.956 . S
C156 H169 0.961 . S
C156 H170 0.961 . S
C157 C154 1.539 . S
C157 H171 0.958 . S
C157 H172 0.961 . S
C157 H173 0.960 . S
H158 C142 0.931 . S
H159 C147 0.929 . S
H160 C148 0.960 . S
H161 C148 0.962 . S
H162 C148 0.960 . S
H163 C149 0.961 . S
H164 C149 0.961 . S
H165 C149 0.961 . S
H166 C150 0.931 . S
H167 C155 0.930 . S
H168 C156 0.956 . S
H169 C156 0.961 . S
H170 C156 0.961 . S
H171 C157 0.958 . S
H172 C157 0.961 . S
H173 C157 0.960 . S
C174 C175 1.391 1_655 S
C174 C176 1.394 . S
C174 H190 0.931 . S
C175 C174 1.391 1_455 S
C175 C179 1.376 . S
C176 C174 1.394 . S
C176 C177 1.369 1_655 S
C176 C180 1.531 . S
C177 C176 1.369 1_455 S
C177 C178 1.410 . S
C177 C185 1.503 . S
C178 C177 1.410 . S
C178 C179 1.392 . S
C178 C181 1.511 . S
C179 C175 1.376 . S
C179 C178 1.392 . S
C179 H191 0.929 . S
C180 C176 1.531 . S
C180 H192 0.960 . S
C180 H193 0.962 . S
C180 H194 0.960 . S
C181 C178 1.511 . S
C181 H195 0.961 . S
C181 H196 0.961 . S
C181 H197 0.961 . S
C182 C183 1.370 1_655 S
C182 C184 1.363 . S
C182 H198 0.931 . S
C183 C182 1.370 1_455 S
C183 C187 1.408 . S
C184 C182 1.363 . S
C184 C185 1.370 1_655 S
C184 C188 1.524 . S
C185 C177 1.503 . S
C185 C184 1.370 1_455 S
C185 C186 1.403 . S
C186 C185 1.403 . S
C186 C187 1.404 . S
C186 C189 1.539 . S
C187 C183 1.408 . S
C187 C186 1.404 . S
C187 H199 0.930 . S
C188 C184 1.524 . S
C188 H200 0.956 . S
C188 H201 0.961 . S
C188 H202 0.961 . S
C189 C186 1.539 . S
C189 H203 0.958 . S
C189 H204 0.961 . S
C189 H205 0.960 . S
H190 C174 0.931 . S
H191 C179 0.929 . S
H192 C180 0.960 . S
H193 C180 0.962 . S
H194 C180 0.960 . S
H195 C181 0.961 . S
H196 C181 0.961 . S
H197 C181 0.961 . S
H198 C182 0.931 . S
H199 C187 0.930 . S
H200 C188 0.956 . S
H201 C188 0.961 . S
H202 C188 0.961 . S
H203 C189 0.958 . S
H204 C189 0.961 . S
H205 C189 0.960 . S
C206 C207 1.391 . S
C206 C208 1.394 . S
C206 H222 0.931 . S
C207 C206 1.391 . S
C207 C211 1.376 1_565 S
C208 C206 1.394 . S
C208 C209 1.369 . S
C208 C212 1.531 . S
C209 C208 1.369 . S
C209 C210 1.410 1_565 S
C209 C217 1.503 . S
C210 C209 1.410 1_545 S
C210 C211 1.392 . S
C210 C213 1.511 . S
C211 C207 1.376 1_545 S
C211 C210 1.392 . S
C211 H223 0.929 . S
C212 C208 1.531 . S
C212 H224 0.960 . S
C212 H225 0.962 . S
C212 H226 0.960 . S
C213 C210 1.511 . S
C213 H227 0.961 . S
C213 H228 0.961 . S
C213 H229 0.961 1_545 S
C214 C215 1.370 . S
C214 C216 1.363 . S
C214 H230 0.931 . S
C215 C214 1.370 . S
C215 C219 1.408 1_545 S
C216 C214 1.363 . S
C216 C217 1.370 1_545 S
C216 C220 1.524 . S
C217 C209 1.503 . S
C217 C216 1.370 1_565 S
C217 C218 1.403 . S
C218 C217 1.403 . S
C218 C219 1.404 . S
C218 C221 1.539 . S
C219 C215 1.408 1_565 S
C219 C218 1.404 . S
C219 H231 0.930 . S
C220 C216 1.524 . S
C220 H232 0.956 . S
C220 H233 0.961 . S
C220 H234 0.961 . S
C221 C218 1.539 . S
C221 H235 0.958 . S
C221 H236 0.961 . S
C221 H237 0.960 . S
H222 C206 0.931 . S
H223 C211 0.929 . S
H224 C212 0.960 . S
H225 C212 0.962 . S
H226 C212 0.960 . S
H227 C213 0.961 . S
H228 C213 0.961 . S
H229 C213 0.961 1_565 S
H230 C214 0.931 . S
H231 C219 0.930 . S
H232 C220 0.956 . S
H233 C220 0.961 . S
H234 C220 0.961 . S
H235 C221 0.958 . S
H236 C221 0.961 . S
H237 C221 0.960 . S
C238 C239 1.391 . S
C238 C240 1.394 . S
C238 H254 0.931 . S
C239 C238 1.391 . S
C239 C243 1.376 . S
C240 C238 1.394 . S
C240 C241 1.369 . S
C240 C244 1.531 . S
C241 C240 1.369 . S
C241 C242 1.410 . S
C241 C249 1.503 . S
C242 C241 1.410 . S
C242 C243 1.392 . S
C242 C245 1.511 . S
C243 C239 1.376 . S
C243 C242 1.392 . S
C243 H255 0.929 . S
C244 C240 1.531 . S
C244 H256 0.960 . S
C244 H257 0.962 . S
C244 H258 0.960 . S
C245 C242 1.511 . S
C245 H259 0.961 . S
C245 H260 0.961 . S
C245 H261 0.961 . S
C246 C247 1.370 . S
C246 C248 1.363 . S
C246 H262 0.931 . S
C247 C246 1.370 . S
C247 C251 1.408 . S
C248 C246 1.363 . S
C248 C249 1.370 . S
C248 C252 1.524 . S
C249 C241 1.503 . S
C249 C248 1.370 . S
C249 C250 1.403 . S
C250 C249 1.403 . S
C250 C251 1.404 . S
C250 C253 1.539 . S
C251 C247 1.408 . S
C251 C250 1.404 . S
C251 H263 0.930 . S
C252 C248 1.524 . S
C252 H264 0.956 . S
C252 H265 0.961 . S
C252 H266 0.961 . S
C253 C250 1.539 . S
C253 H267 0.958 . S
C253 H268 0.961 . S
C253 H269 0.960 . S
H254 C238 0.931 . S
H255 C243 0.929 . S
H256 C244 0.960 . S
H257 C244 0.962 . S
H258 C244 0.960 . S
H259 C245 0.961 . S
H260 C245 0.961 . S
H261 C245 0.961 . S
H262 C246 0.931 . S
H263 C251 0.930 . S
H264 C252 0.956 . S
H265 C252 0.961 . S
H266 C252 0.961 . S
H267 C253 0.958 . S
H268 C253 0.961 . S
H269 C253 0.960 . S
C270 C271 1.409 . S
C270 C272 1.394 . S
C270 H286 0.931 . S
C271 C270 1.409 . S
C271 C275 1.367 1_545 S
C272 C270 1.394 . S
C272 C273 1.369 . S
C272 C276 1.531 . S
C273 C272 1.369 . S
C273 C274 1.410 1_545 S
C273 C281 1.503 . S
C274 C273 1.410 1_565 S
C274 C275 1.392 . S
C274 C277 1.511 . S
C275 C271 1.367 1_565 S
C275 C274 1.392 . S
C275 H287 0.929 . S
C276 C272 1.531 . S
C276 H288 0.960 . S
C276 H289 0.962 . S
C276 H290 0.960 . S
C277 C274 1.511 . S
C277 H291 0.961 . S
C277 H292 0.961 . S
C277 H293 0.961 . S
C278 C279 1.370 1_565 S
C278 C280 1.363 . S
C278 H294 0.931 . S
C279 C278 1.370 1_545 S
C279 C283 1.408 . S
C280 C278 1.363 . S
C280 C281 1.370 1_565 S
C280 C284 1.524 . S
C281 C273 1.503 . S
C281 C280 1.370 1_545 S
C281 C282 1.403 . S
C282 C281 1.403 . S
C282 C283 1.404 . S
C282 C285 1.539 . S
C283 C279 1.408 . S
C283 C282 1.404 . S
C283 H295 0.930 . S
C284 C280 1.524 . S
C284 H296 0.956 . S
C284 H297 0.961 . S
C284 H298 0.961 . S
C285 C282 1.539 . S
C285 H299 0.958 . S
C285 H300 0.961 . S
C285 H301 0.960 . S
H286 C270 0.931 . S
H287 C275 0.929 . S
H288 C276 0.960 . S
H289 C276 0.962 . S
H290 C276 0.960 . S
H291 C277 0.961 . S
H292 C277 0.961 . S
H293 C277 0.961 . S
H294 C278 0.931 . S
H295 C283 0.930 . S
H296 C284 0.956 . S
H297 C284 0.961 . S
H298 C284 0.961 . S
H299 C285 0.958 . S
H300 C285 0.961 . S
H301 C285 0.960 . S
C302 C303 1.391 . S
C302 C304 1.394 . S
C302 H318 0.931 . S
C303 C302 1.391 . S
C303 C307 1.376 . S
C304 C302 1.394 . S
C304 C305 1.369 . S
C304 C308 1.531 1_554 S
C305 C304 1.369 . S
C305 C306 1.410 . S
C305 C313 1.503 1_554 S
C306 C305 1.410 . S
C306 C307 1.392 . S
C306 C309 1.511 . S
C307 C303 1.376 . S
C307 C306 1.392 . S
C307 H319 0.929 . S
C308 C304 1.531 1_556 S
C308 H320 0.960 . S
C308 H321 0.962 1_556 S
C308 H322 0.960 . S
C309 C306 1.511 . S
C309 H323 0.961 . S
C309 H324 0.961 . S
C309 H325 0.961 1_554 S
C310 C311 1.370 . S
C310 C312 1.363 . S
C310 H326 0.931 . S
C311 C310 1.370 . S
C311 C315 1.408 . S
C312 C310 1.363 . S
C312 C313 1.370 . S
C312 C316 1.524 1_556 S
C313 C305 1.503 1_556 S
C313 C312 1.370 . S
C313 C314 1.403 . S
C314 C313 1.403 . S
C314 C315 1.404 . S
C314 C317 1.539 . S
C315 C311 1.408 . S
C315 C314 1.404 . S
C315 H327 0.930 . S
C316 C312 1.524 1_554 S
C316 H328 0.956 . S
C316 H329 0.961 . S
C316 H330 0.961 . S
C317 C314 1.539 . S
C317 H331 0.958 . S
C317 H332 0.961 . S
C317 H333 0.960 . S
H318 C302 0.931 . S
H319 C307 0.929 . S
H320 C308 0.960 . S
H321 C308 0.962 1_554 S
H322 C308 0.960 . S
H323 C309 0.961 . S
H324 C309 0.961 . S
H325 C309 0.961 1_556 S
H326 C310 0.931 . S
H327 C315 0.930 . S
H328 C316 0.956 . S
H329 C316 0.961 . S
H330 C316 0.961 . S
H331 C317 0.958 . S
H332 C317 0.961 . S
H333 C317 0.960 . S
C334 C335 1.391 1_655 S
C334 C336 1.394 . S
C334 H350 0.931 . S
C335 C334 1.391 1_455 S
C335 C339 1.376 . S
C336 C334 1.394 . S
C336 C337 1.369 . S
C336 C340 1.531 . S
C337 C336 1.369 . S
C337 C338 1.410 1_655 S
C337 C345 1.503 . S
C338 C337 1.410 1_455 S
C338 C339 1.392 . S
C338 C341 1.511 . S
C339 C335 1.376 . S
C339 C338 1.392 . S
C339 H351 0.929 . S
C340 C336 1.531 . S
C340 H352 0.960 . S
C340 H353 0.962 . S
C340 H354 0.960 . S
C341 C338 1.511 . S
C341 H355 0.961 . S
C341 H356 0.961 . S
C341 H357 0.961 . S
C342 C343 1.370 . S
C342 C344 1.363 . S
C342 H358 0.931 . S
C343 C342 1.370 . S
C343 C347 1.408 1_455 S
C344 C342 1.363 . S
C344 C345 1.370 1_455 S
C344 C348 1.524 . S
C345 C337 1.503 . S
C345 C344 1.370 1_655 S
C345 C346 1.403 . S
C346 C345 1.403 . S
C346 C347 1.404 . S
C346 C349 1.539 . S
C347 C343 1.408 1_655 S
C347 C346 1.404 . S
C347 H359 0.930 . S
C348 C344 1.524 . S
C348 H360 0.956 . S
C348 H361 0.961 . S
C348 H362 0.961 . S
C349 C346 1.539 . S
C349 H363 0.958 . S
C349 H364 0.961 . S
C349 H365 0.960 . S
H350 C334 0.931 . S
H351 C339 0.929 . S
H352 C340 0.960 . S
H353 C340 0.962 . S
H354 C340 0.960 . S
H355 C341 0.961 . S
H356 C341 0.961 . S
H357 C341 0.961 . S
H358 C342 0.931 . S
H359 C347 0.930 . S
H360 C348 0.956 . S
H361 C348 0.961 . S
H362 C348 0.961 . S
H363 C349 0.958 . S
H364 C349 0.961 . S
H365 C349 0.960 . S
C366 C367 1.391 1_565 S
C366 C368 1.394 . S
C366 H382 0.931 . S
C367 C366 1.391 1_545 S
C367 C371 1.376 . S
C368 C366 1.394 . S
C368 C369 1.369 1_565 S
C368 C372 1.531 . S
C369 C368 1.369 1_545 S
C369 C370 1.409 . S
C369 C377 1.512 . S
C370 C369 1.409 . S
C370 C371 1.392 . S
C370 C373 1.511 . S
C371 C367 1.376 . S
C371 C370 1.392 . S
C371 H383 0.929 . S
C372 C368 1.531 . S
C372 H384 0.960 . S
C372 H385 0.962 . S
C372 H386 0.960 . S
C373 C370 1.511 . S
C373 H387 0.961 . S
C373 H388 0.961 . S
C373 H389 0.961 . S
C374 C375 1.370 . S
C374 C376 1.363 . S
C374 H390 0.931 . S
C375 C374 1.370 . S
C375 C379 1.408 1_545 S
C376 C374 1.363 . S
C376 C377 1.366 . S
C376 C380 1.524 . S
C377 C369 1.512 . S
C377 C376 1.366 . S
C377 C378 1.399 1_545 S
C378 C377 1.399 1_565 S
C378 C379 1.404 . S
C378 C381 1.539 . S
C379 C375 1.408 1_565 S
C379 C378 1.404 . S
C379 H391 0.930 . S
C380 C376 1.524 . S
C380 H392 0.956 . S
C380 H393 0.961 . S
C380 H394 0.961 . S
C381 C378 1.539 . S
C381 H395 0.958 . S
C381 H396 0.961 . S
C381 H397 0.960 . S
H382 C366 0.931 . S
H383 C371 0.929 . S
H384 C372 0.960 . S
H385 C372 0.962 . S
H386 C372 0.960 . S
H387 C373 0.961 . S
H388 C373 0.961 . S
H389 C373 0.961 . S
H390 C374 0.931 . S
H391 C379 0.930 . S
H392 C380 0.956 . S
H393 C380 0.961 . S
H394 C380 0.961 . S
H395 C381 0.958 . S
H396 C381 0.961 . S
H397 C381 0.960 . S
C398 C399 1.391 . S
C398 C400 1.394 . S
C398 H414 0.931 . S
C399 C398 1.391 . S
C399 C403 1.376 . S
C400 C398 1.394 . S
C400 C401 1.369 . S
C400 C404 1.531 1_554 S
C401 C400 1.369 . S
C401 C402 1.410 . S
C401 C409 1.503 1_554 S
C402 C401 1.410 . S
C402 C403 1.392 . S
C402 C405 1.511 . S
C403 C399 1.376 . S
C403 C402 1.392 . S
C403 H415 0.929 . S
C404 C400 1.531 1_556 S
C404 H416 0.960 . S
C404 H417 0.962 . S
C404 H418 0.960 . S
C405 C402 1.511 . S
C405 H419 0.961 . S
C405 H420 0.961 . S
C405 H421 0.961 . S
C406 C407 1.370 . S
C406 C408 1.363 . S
C406 H422 0.931 . S
C407 C406 1.370 . S
C407 C411 1.408 . S
C408 C406 1.363 . S
C408 C409 1.370 . S
C408 C412 1.524 1_556 S
C409 C401 1.503 1_556 S
C409 C408 1.370 . S
C409 C410 1.403 . S
C410 C409 1.403 . S
C410 C411 1.404 . S
C410 C413 1.539 . S
C411 C407 1.408 . S
C411 C410 1.404 . S
C411 H423 0.930 . S
C412 C408 1.524 1_554 S
C412 H424 0.956 . S
C412 H425 0.961 . S
C412 H426 0.961 . S
C413 C410 1.539 . S
C413 H427 0.958 . S
C413 H428 0.961 . S
C413 H429 0.960 . S
H414 C398 0.931 . S
H415 C403 0.929 . S
H416 C404 0.960 . S
H417 C404 0.962 . S
H418 C404 0.960 . S
H419 C405 0.961 . S
H420 C405 0.961 . S
H421 C405 0.961 . S
H422 C406 0.931 . S
H423 C411 0.930 . S
H424 C412 0.956 . S
H425 C412 0.961 . S
H426 C412 0.961 . S
H427 C413 0.958 . S
H428 C413 0.961 . S
H429 C413 0.960 . S
C430 C431 1.391 1_655 S
C430 C432 1.394 . S
C430 H446 0.931 . S
C431 C430 1.391 1_455 S
C431 C435 1.376 . S
C432 C430 1.394 . S
C432 C433 1.369 1_655 S
C432 C436 1.531 . S
C433 C432 1.369 1_455 S
C433 C434 1.410 . S
C433 C441 1.503 . S
C434 C433 1.410 . S
C434 C435 1.392 . S
C434 C437 1.511 . S
C435 C431 1.376 . S
C435 C434 1.392 . S
C435 H447 0.929 . S
C436 C432 1.531 . S
C436 H448 0.960 . S
C436 H449 0.962 . S
C436 H450 0.960 . S
C437 C434 1.511 . S
C437 H451 0.961 . S
C437 H452 0.961 . S
C437 H453 0.961 . S
C438 C439 1.370 1_655 S
C438 C440 1.363 . S
C438 H454 0.931 . S
C439 C438 1.370 1_455 S
C439 C443 1.408 . S
C440 C438 1.363 . S
C440 C441 1.370 1_655 S
C440 C444 1.524 . S
C441 C433 1.503 . S
C441 C440 1.370 1_455 S
C441 C442 1.403 . S
C442 C441 1.403 . S
C442 C443 1.404 . S
C442 C445 1.539 . S
C443 C439 1.408 . S
C443 C442 1.404 . S
C443 H455 0.930 . S
C444 C440 1.524 . S
C444 H456 0.956 . S
C444 H457 0.961 . S
C444 H458 0.961 . S
C445 C442 1.539 . S
C445 H459 0.958 . S
C445 H460 0.961 . S
C445 H461 0.960 . S
H446 C430 0.931 . S
H447 C435 0.929 . S
H448 C436 0.960 . S
H449 C436 0.962 . S
H450 C436 0.960 . S
H451 C437 0.961 . S
H452 C437 0.961 . S
H453 C437 0.961 . S
H454 C438 0.931 . S
H455 C443 0.930 . S
H456 C444 0.956 . S
H457 C444 0.961 . S
H458 C444 0.961 . S
H459 C445 0.958 . S
H460 C445 0.961 . S
H461 C445 0.960 . S
C87 C44 1.445 1_455 S
C79 C10 1.446 . S
C111 C17 1.512 . S
C119 C62 1.510 1_545 S
C143 C36 1.521 . S
C151 C75 1.524 . S
C175 C5 1.449 1_455 S
C183 C42 1.447 1_455 S
C215 C53 1.510 1_545 S
C207 C16 1.518 . S
C239 C31 1.524 . S
C247 C66 1.525 . S
C279 C55 1.441 1_545 S
C271 C30 1.432 1_545 S
C303 C3 1.446 . S
C311 C68 1.443 . S
C343 C49 1.515 1_455 S
C335 C18 1.514 . S
C375 C57 1.440 1_545 S
C367 C29 1.439 . S
C407 C70 1.450 . S
C399 C4 1.449 . S
C431 C23 1.516 1_455 S
C439 C40 1.517 1_455 S
