# Generated by pormake.
# Topology zzz, (3,6)-cn, num edge types: 1
# Building blocks:
#     Node 0, Type 0, BuildingBlock: OLANEW_clean_sbu_2, # of connection points: 3
#     Node 1, Type 0, BuildingBlock: OLANEW_clean_sbu_2, # of connection points: 3
#     Node 2, Type 0, BuildingBlock: OLANEW_clean_sbu_2, # of connection points: 3
#     Node 3, Type 0, BuildingBlock: OLANEW_clean_sbu_2, # of connection points: 3
#     Node 4, Type 0, BuildingBlock: OLANEW_clean_sbu_2, # of connection points: 3
#     Node 5, Type 0, BuildingBlock: OLANEW_clean_sbu_2, # of connection points: 3
#     Node 6, Type 0, BuildingBlock: OLANEW_clean_sbu_2, # of connection points: 3
#     Node 7, Type 0, BuildingBlock: OLANEW_clean_sbu_2, # of connection points: 3
#     Node 8, Type 1, BuildingBlock: CIFDUS_clean_sbu_1, # of connection points: 6
#     Node 9, Type 1, BuildingBlock: CIFDUS_clean_sbu_1, # of connection points: 6
#     Node 10, Type 1, BuildingBlock: CIFDUS_clean_sbu_1, # of connection points: 6
#     Node 11, Type 1, BuildingBlock: CIFDUS_clean_sbu_1, # of connection points: 6
#     Edge 12, Type (0, 1), BuildingBlock: XIVTED_clean_linker_0, # of connection points: 2
#     Edge 13, Type (0, 1), BuildingBlock: XIVTED_clean_linker_0, # of connection points: 2
#     Edge 14, Type (0, 1), BuildingBlock: XIVTED_clean_linker_0, # of connection points: 2
#     Edge 15, Type (0, 1), BuildingBlock: XIVTED_clean_linker_0, # of connection points: 2
#     Edge 16, Type (0, 1), BuildingBlock: XIVTED_clean_linker_0, # of connection points: 2
#     Edge 17, Type (0, 1), BuildingBlock: XIVTED_clean_linker_0, # of connection points: 2
#     Edge 18, Type (0, 1), BuildingBlock: XIVTED_clean_linker_0, # of connection points: 2
#     Edge 19, Type (0, 1), BuildingBlock: XIVTED_clean_linker_0, # of connection points: 2
#     Edge 20, Type (0, 1), BuildingBlock: XIVTED_clean_linker_0, # of connection points: 2
#     Edge 21, Type (0, 1), BuildingBlock: XIVTED_clean_linker_0, # of connection points: 2
#     Edge 22, Type (0, 1), BuildingBlock: XIVTED_clean_linker_0, # of connection points: 2
#     Edge 23, Type (0, 1), BuildingBlock: XIVTED_clean_linker_0, # of connection points: 2
#     Edge 24, Type (0, 1), BuildingBlock: XIVTED_clean_linker_0, # of connection points: 2
#     Edge 25, Type (0, 1), BuildingBlock: XIVTED_clean_linker_0, # of connection points: 2
#     Edge 26, Type (0, 1), BuildingBlock: XIVTED_clean_linker_0, # of connection points: 2
#     Edge 27, Type (0, 1), BuildingBlock: XIVTED_clean_linker_0, # of connection points: 2
#     Edge 28, Type (0, 1), BuildingBlock: XIVTED_clean_linker_0, # of connection points: 2
#     Edge 29, Type (0, 1), BuildingBlock: XIVTED_clean_linker_0, # of connection points: 2
#     Edge 30, Type (0, 1), BuildingBlock: XIVTED_clean_linker_0, # of connection points: 2
#     Edge 31, Type (0, 1), BuildingBlock: XIVTED_clean_linker_0, # of connection points: 2
#     Edge 32, Type (0, 1), BuildingBlock: XIVTED_clean_linker_0, # of connection points: 2
#     Edge 33, Type (0, 1), BuildingBlock: XIVTED_clean_linker_0, # of connection points: 2
#     Edge 34, Type (0, 1), BuildingBlock: XIVTED_clean_linker_0, # of connection points: 2
#     Edge 35, Type (0, 1), BuildingBlock: XIVTED_clean_linker_0, # of connection points: 2
# Relax obj value: 0.135
# Max RMSD: 0.185
# Mean RMSD: 0.111
data_MOF--net-zzz--node1-OLANEW_clean_sbu_2--node2-CIFDUS_clean_sbu_1--edge1-XIVTED_clean_linker_0
_symmetry_space_group_name_H-M    P1
_symmetry_Int_Tables_number       1
_symmetry_cell_setting            triclinic
loop_
_symmetry_equiv_pos_as_xyz
'x, y, z'
_cell_length_a     52.5352
_cell_length_b     52.498016
_cell_length_c     17.74312
_cell_angle_alpha  90.177896
_cell_angle_beta   89.934802
_cell_angle_gamma 89.981312
loop_
_atom_site_label
_atom_site_type_symbol
_atom_site_fract_x
_atom_site_fract_y
_atom_site_fract_z
_atom_type_partial_charge
O0 O 0.79617 0.60688 0.0338 0.0
Cd1 Cd 0.75519 0.62366 0.07816 0.0
O2 O 0.78569 0.56895 0.075 0.0
Cd3 Cd 0.79822 0.53144 0.11116 0.0
O4 O 0.82366 0.52221 0.20341 0.0
C5 C 0.84756 0.52377 0.19352 0.0
O6 O 0.85644 0.52766 0.12535 0.0
C7 C 0.80182 0.58364 0.04418 0.0
C8 C 0.71223 0.6023 0.01008 0.0
O9 O 0.72408 0.621 0.97984 0.0
O10 O 0.72094 0.59332 0.07204 0.0
O11 O 0.91407 0.79748 0.01112 0.0
Cd12 Cd 0.89518 0.75645 0.04688 0.0
O13 O 0.94793 0.78703 0.07577 0.0
Cd14 Cd 0.98249 0.7983 0.13386 0.0
O15 O 0.99538 0.82703 0.21278 0.0
C16 C 0.97801 0.84212 0.23514 0.0
O17 O 0.95477 0.83909 0.20932 0.0
C18 C 0.936 0.80317 0.03586 0.0
C19 C 0.91706 0.71345 0.97984 0.0
O20 O 0.90029 0.72682 0.94557 0.0
O21 O 0.924 0.72062 0.04583 0.0
O22 O 0.72771 0.91707 0.01979 0.0
Cd23 Cd 0.76828 0.90553 0.07963 0.0
O24 O 0.73395 0.95137 0.08669 0.0
Cd25 Cd 0.72167 0.98467 0.14965 0.0
O26 O 0.69167 0.99532 0.22675 0.0
C27 C 0.67994 0.97637 0.25442 0.0
O28 O 0.68721 0.95327 0.23544 0.0
C29 C 0.71965 0.93853 0.04289 0.0
C30 C 0.81154 0.92378 0.00673 0.0
O31 O 0.79726 0.93868 0.04541 0.0
O32 O 0.80536 0.90024 0.0017 0.0
O33 O 0.60673 0.72486 0.03117 0.0
Cd34 Cd 0.62501 0.76562 0.07166 0.0
O35 O 0.57019 0.73698 0.07897 0.0
Cd36 Cd 0.5327 0.72681 0.12185 0.0
O37 O 0.52229 0.69525 0.19417 0.0
C38 C 0.54082 0.68805 0.23482 0.0
O39 O 0.56248 0.70047 0.23026 0.0
C40 C 0.58354 0.72015 0.04556 0.0
C41 C 0.60184 0.80814 0.00689 0.0
O42 O 0.61944 0.7958 0.97253 0.0
O43 O 0.59486 0.80024 0.07202 0.0
O44 O 0.23332 0.43298 0.46424 0.0
Cd45 Cd 0.26977 0.40999 0.4113 0.0
O46 O 0.21204 0.40504 0.39896 0.0
Cd47 Cd 0.18037 0.39016 0.33414 0.0
O48 O 0.15674 0.40427 0.24405 0.0
C49 C 0.16009 0.42792 0.23298 0.0
O50 O 0.17659 0.44023 0.27513 0.0
C51 C 0.21198 0.42459 0.44158 0.0
C52 C 0.31667 0.42586 0.46682 0.0
O53 O 0.30712 0.43624 0.40795 0.0
O54 O 0.30388 0.40826 0.49945 0.0
O55 O 0.07513 0.23185 0.41207 0.0
Cd56 Cd 0.09207 0.26985 0.3496 0.0
O57 O 0.10934 0.20995 0.38282 0.0
Cd58 Cd 0.11155 0.22828 0.27304 0.0
O59 O 0.0956 0.20529 0.18067 0.0
C60 C 0.08798 0.18348 0.20238 0.0
O61 O 0.09057 0.17744 0.27366 0.0
C62 C 0.08877 0.212 0.42 0.0
C63 C 0.0803 0.31464 0.42845 0.0
O64 O 0.06671 0.30724 0.37257 0.0
O65 O 0.09942 0.3009 0.44721 0.0
O66 O 0.29278 0.06849 0.38794 0.0
Cd67 Cd 0.25311 0.08127 0.32515 0.0
O68 O 0.31213 0.1054 0.37779 0.0
Cd69 Cd 0.29061 0.11295 0.27574 0.0
O70 O 0.31292 0.09711 0.18235 0.0
C71 C 0.33691 0.09881 0.19109 0.0
O72 O 0.34569 0.11125 0.24994 0.0
C73 C 0.3114 0.08298 0.40427 0.0
C74 C 0.21117 0.07021 0.41729 0.0
O75 O 0.22195 0.05301 0.37705 0.0
O76 O 0.21984 0.09298 0.41344 0.0
O77 O 0.43996 0.28725 0.46324 0.0
Cd78 Cd 0.41753 0.24999 0.41244 0.0
O79 O 0.41074 0.30775 0.40102 0.0
Cd80 Cd 0.39456 0.33927 0.3383 0.0
O81 O 0.40674 0.36326 0.24634 0.0
C82 C 0.4304 0.36083 0.2336 0.0
O83 O 0.44366 0.34499 0.27525 0.0
C84 C 0.43068 0.30836 0.4417 0.0
C85 C 0.43114 0.20361 0.47691 0.0
O86 O 0.44266 0.21177 0.41798 0.0
O87 O 0.41353 0.21754 0.50545 0.0
O88 O 0.01537 0.03817 0.83692 0.0
Mn89 Mn 0.01128 0.01195 0.74971 0.0
O90 O 0.98489 0.06754 0.81496 0.0
Mn91 Mn 0.96847 0.05088 0.73601 0.0
O92 O 0.00738 0.98612 0.6612 0.0
O93 O 0.05071 0.00702 0.7495 0.0
Mn94 Mn 0.05125 0.97396 0.76955 0.0
O95 O 0.00255 0.98208 0.82719 0.0
O96 O 0.03728 0.95692 0.68784 0.0
O97 O 0.0185 0.04173 0.67163 0.0
O98 O 0.98087 0.05859 0.64252 0.0
O99 O 0.08423 0.98136 0.76554 0.0
O100 O 0.03928 0.96637 0.86338 0.0
C101 C 0.94824 0.01671 0.75275 0.0
C102 C 0.0044 0.05957 0.85084 0.0
C103 C 0.01928 0.96531 0.64664 0.0
C104 C 0.07564 0.00385 0.74943 0.0
C105 C 0.0155 0.96733 0.87025 0.0
C106 C 0.00464 0.05693 0.6321 0.0
O107 O 0.97296 0.01794 0.74929 0.0
O108 O 0.93636 0.03815 0.74449 0.0
O109 O 0.53622 0.99642 0.84129 0.0
Mn110 Mn 0.50727 0.00541 0.76293 0.0
O111 O 0.55794 0.03242 0.86511 0.0
Mn112 Mn 0.54895 0.04749 0.77512 0.0
O113 O 0.47872 0.01436 0.68378 0.0
O114 O 0.49794 0.96847 0.7614 0.0
Mn115 Mn 0.46503 0.96423 0.75002 0.0
O116 O 0.48084 0.0115 0.84848 0.0
O117 O 0.45767 0.97825 0.65742 0.0
O118 O 0.53335 0.9999 0.67589 0.0
O119 O 0.56189 0.03199 0.68877 0.0
O120 O 0.47887 0.93202 0.76253 0.0
O121 O 0.45032 0.98177 0.83075 0.0
C122 C 0.51344 0.06636 0.75418 0.0
C123 C 0.55343 0.00897 0.87763 0.0
C124 C 0.46226 1.00167 0.64503 0.0
C125 C 0.50003 0.94426 0.77079 0.0
C126 C 0.45919 1.00141 0.86471 0.0
C127 C 0.55311 0.01241 0.65442 0.0
O128 O 0.51623 0.04237 0.76615 0.0
O129 O 0.5341 0.0793 0.76424 0.0
O130 O 0.52222 0.54242 0.81129 0.0
Mn131 Mn 0.51568 0.5118 0.73477 0.0
O132 O 0.48483 0.5625 0.82606 0.0
Mn133 Mn 0.47235 0.55204 0.73449 0.0
O134 O 0.50905 0.48118 0.65906 0.0
O135 O 0.55307 0.50381 0.73958 0.0
Mn136 Mn 0.55816 0.47069 0.73983 0.0
O137 O 0.50892 0.48719 0.82363 0.0
O138 O 0.54521 0.45853 0.65018 0.0
O139 O 0.52187 0.53657 0.64498 0.0
O140 O 0.48908 0.56459 0.64999 0.0
O141 O 0.58984 0.48549 0.74986 0.0
O142 O 0.54127 0.4589 0.82531 0.0
C143 C 0.45445 0.51611 0.71624 0.0
C144 C 0.50808 0.55942 0.84366 0.0
C145 C 0.52232 0.46281 0.63035 0.0
C146 C 0.57714 0.5066 0.75159 0.0
C147 C 0.52033 0.46771 0.85132 0.0
C148 C 0.50943 0.55588 0.61989 0.0
O149 O 0.47829 0.51934 0.7305 0.0
O150 O 0.44109 0.53674 0.72122 0.0
O151 O 0.03534 0.50826 0.82244 0.0
Mn152 Mn 0.01063 0.5148 0.7342 0.0
O153 O 0.06349 0.54064 0.82617 0.0
Mn154 Mn 0.05212 0.55718 0.73952 0.0
O155 O 0.98519 0.52015 0.64592 0.0
O156 O 0.00219 0.47746 0.73315 0.0
Mn157 Mn 0.96962 0.47337 0.75068 0.0
O158 O 0.98068 0.52356 0.80986 0.0
O159 O 0.95429 0.49128 0.67201 0.0
O160 O 0.04101 0.50714 0.6584 0.0
O161 O 0.06416 0.54317 0.65104 0.0
O162 O 0.98263 0.44112 0.73498 0.0
O163 O 0.96384 0.48665 0.84519 0.0
C164 C 0.01585 0.57598 0.74618 0.0
C165 C 0.05473 0.51955 0.85094 0.0
C166 C 0.96339 0.50974 0.63316 0.0
C167 C 0.00367 0.45318 0.72259 0.0
C168 C 0.96561 0.51063 0.85212 0.0
C169 C 0.05971 0.52025 0.63106 0.0
O170 O 0.01917 0.55189 0.73684 0.0
O171 O 0.0368 0.58891 0.74607 0.0
H172 H 0.20373 0.02497 0.48703 0.0
H173 H 0.06811 0.0462 0.65941 0.0
H174 H 0.17132 0.10013 0.46677 0.0
H175 H 0.12654 0.00292 0.77017 0.0
H176 H 0.10126 0.066 0.57879 0.0
H177 H 0.17048 0.01398 0.57741 0.0
C178 C 0.18947 0.03911 0.50126 0.0
C179 C 0.1903 0.0635 0.46966 0.0
C180 C 0.10668 0.05247 0.62181 0.0
C181 C 0.152 0.05098 0.57272 0.0
C182 C 0.08782 0.04132 0.66752 0.0
C183 C 0.09439 0.02232 0.7192 0.0
C184 C 0.13205 0.04415 0.62826 0.0
C185 C 0.12038 0.01697 0.72952 0.0
C186 C 0.17061 0.03291 0.55324 0.0
C187 C 0.17138 0.08116 0.49047 0.0
N188 N 0.1381 0.02729 0.68332 0.0
N189 N 0.15274 0.07449 0.54034 0.0
H190 H 0.4131 0.18349 0.60835 0.0
H191 H 0.51002 0.06621 0.60307 0.0
H192 H 0.46513 0.16775 0.42554 0.0
H193 H 0.47286 0.09401 0.80349 0.0
H194 H 0.4852 0.09632 0.52748 0.0
H195 H 0.42699 0.14443 0.67036 0.0
C196 C 0.42732 0.17174 0.58093 0.0
C197 C 0.43824 0.17911 0.51216 0.0
C198 C 0.48197 0.0954 0.58771 0.0
C199 C 0.45411 0.13427 0.58285 0.0
C200 C 0.49584 0.07802 0.6306 0.0
C201 C 0.49297 0.07744 0.70915 0.0
C202 C 0.46537 0.11246 0.62399 0.0
C203 C 0.4751 0.09361 0.74282 0.0
C204 C 0.43521 0.14942 0.61639 0.0
C205 C 0.45643 0.16297 0.47901 0.0
N206 N 0.46207 0.11065 0.70006 0.0
N207 N 0.46393 0.14138 0.51494 0.0
H208 H 0.34063 0.40908 0.59405 0.0
H209 H 0.44955 0.51427 0.5667 0.0
H210 H 0.34939 0.46148 0.40877 0.0
H211 H 0.43333 0.47203 0.76875 0.0
H212 H 0.41972 0.48737 0.49714 0.0
H213 H 0.38032 0.42502 0.64812 0.0
C214 C 0.35098 0.42382 0.56443 0.0
C215 C 0.34149 0.43421 0.4973 0.0
C216 C 0.42309 0.48349 0.55621 0.0
C217 C 0.38699 0.45241 0.55879 0.0
C218 C 0.44032 0.49861 0.59559 0.0
C219 C 0.44414 0.49485 0.67287 0.0
C220 C 0.40913 0.46489 0.59499 0.0
C221 C 0.43127 0.47497 0.70869 0.0
C222 C 0.37367 0.43285 0.59531 0.0
C223 C 0.35583 0.45311 0.46106 0.0
N224 N 0.41403 0.46084 0.66954 0.0
N225 N 0.37777 0.46173 0.4926 0.0
H226 H 0.09646 0.32897 0.56912 0.0
H227 H 0.0121 0.45588 0.57371 0.0
H228 H 0.04956 0.35385 0.3839 0.0
H229 H 0.0381 0.419 0.77576 0.0
H230 H 0.03534 0.4244 0.49814 0.0
H231 H 0.08371 0.36699 0.64038 0.0
C232 C 0.08368 0.34254 0.54317 0.0
C233 C 0.07387 0.33813 0.4707 0.0
C234 C 0.03651 0.42352 0.55901 0.0
C235 C 0.05952 0.38173 0.55148 0.0
C236 C 0.02362 0.4417 0.60201 0.0
C237 C 0.02398 0.44038 0.68071 0.0
C238 C 0.04947 0.40364 0.59523 0.0
C239 C 0.03814 0.42103 0.71504 0.0
C240 C 0.07642 0.36419 0.58389 0.0
C241 C 0.05737 0.35634 0.43987 0.0
N242 N 0.05025 0.40326 0.67205 0.0
N243 N 0.05069 0.37731 0.48044 0.0
H244 H 0.85909 0.9026 0.99592 0.0
H245 H 0.90528 1.00006 0.68668 0.0
H246 H 0.81469 0.96757 0.92707 0.0
H247 H 0.95562 0.98543 0.8718 0.0
H248 H 0.87285 0.97342 0.7465 0.0
H249 H 0.89601 0.92013 0.92681 0.0
C250 C 0.85713 0.92042 0.96582 0.0
C251 C 0.83395 0.93375 0.96673 0.0
C252 C 0.8914 0.97522 0.77265 0.0
C253 C 0.87529 0.95307 0.88649 0.0
C254 C 0.90996 0.99011 0.73828 0.0
C255 C 0.93341 0.99413 0.77382 0.0
C256 C 0.89639 0.96421 0.84289 0.0
C257 C 0.93829 0.98151 0.84158 0.0
C258 C 0.87808 0.93033 0.92684 0.0
C259 C 0.83228 0.95681 0.92773 0.0
N260 N 0.91979 0.9672 0.87482 0.0
N261 N 0.85259 0.96559 0.8883 0.0
H262 H 0.60495 0.82332 0.86019 0.0
H263 H 0.51521 0.94525 0.91636 0.0
H264 H 0.57197 0.84468 0.07413 0.0
H265 H 0.53235 0.91189 0.70026 0.0
H266 H 0.54328 0.91391 0.97665 0.0
H267 H 0.58488 0.8604 0.80247 0.0
C268 C 0.59359 0.83589 0.89515 0.0
C269 C 0.59001 0.83081 0.97201 0.0
C270 C 0.54134 0.91378 0.91589 0.0
C271 C 0.56717 0.87349 0.90631 0.0
C272 C 0.52567 0.93186 0.88152 0.0
C273 C 0.52215 0.9314 0.80329 0.0
C274 C 0.55327 0.89505 0.87148 0.0
C275 C 0.53522 0.91317 0.76058 0.0
C276 C 0.58215 0.85707 0.86213 0.0
C277 C 0.57506 0.84777 0.01452 0.0
N278 N 0.55015 0.89562 0.79525 0.0
N279 N 0.56417 0.86836 0.98109 0.0
H280 H 0.67851 0.56804 0.06989 0.0
H281 H 0.60369 0.54544 0.68654 0.0
H282 H 0.69308 0.61223 0.86971 0.0
H283 H 0.57954 0.51512 0.90003 0.0
H284 H 0.63453 0.57268 0.75269 0.0
H285 H 0.64086 0.55 0.00924 0.0
C286 C 0.67378 0.57398 0.01319 0.0
C287 C 0.68909 0.59154 0.97461 0.0
C288 C 0.62193 0.56067 0.78533 0.0
C289 C 0.64596 0.57093 0.90464 0.0
C290 C 0.60415 0.54543 0.74759 0.0
C291 C 0.58864 0.52875 0.78839 0.0
C292 C 0.62455 0.55856 0.86402 0.0
C293 C 0.5908 0.52829 0.86701 0.0
C294 C 0.65217 0.56379 0.9787 0.0
C295 C 0.68188 0.59868 0.90144 0.0
N296 N 0.60858 0.54279 0.90229 0.0
N297 N 0.66098 0.58818 0.86856 0.0
H298 H 0.91495 0.69988 0.83157 0.0
H299 H 0.99419 0.57099 0.8837 0.0
H300 H 0.94347 0.67431 0.04645 0.0
H301 H 0.98713 0.61063 0.67278 0.0
H302 H 0.96596 0.60258 0.94291 0.0
H303 H 0.93298 0.66191 0.77221 0.0
C304 C 0.92489 0.6862 0.86638 0.0
C305 C 0.92785 0.69035 0.94399 0.0
C306 C 0.97001 0.60394 0.88318 0.0
C307 C 0.94824 0.64664 0.8764 0.0
C308 C 0.98564 0.58566 0.84913 0.0
C309 C 0.99237 0.588 0.77301 0.0
C310 C 0.96119 0.62463 0.84047 0.0
C311 C 0.98186 0.60795 0.73125 0.0
C312 C 0.93515 0.66452 0.83243 0.0
C313 C 0.94095 0.67196 0.98628 0.0
N314 N 0.96692 0.62563 0.76562 0.0
N315 N 0.95069 0.65087 0.95191 0.0
H316 H 0.11024 0.16452 0.43201 0.0
H317 H 0.98594 0.10472 0.62026 0.0
H318 H 0.04351 0.20762 0.49558 0.0
H319 H 0.04989 0.0587 0.55047 0.0
H320 H 0.00705 0.14217 0.57213 0.0
H321 H 0.08976 0.12581 0.47848 0.0
C322 C 0.09144 0.16595 0.4568 0.0
C323 C 0.07854 0.18942 0.45961 0.0
C324 C 0.01663 0.12396 0.56727 0.0
C325 C 0.05491 0.14506 0.51181 0.0
C326 C 0.00444 0.10237 0.59411 0.0
C327 C 0.01649 0.07846 0.59131 0.0
C328 C 0.04117 0.1219 0.53696 0.0
C329 C 0.04046 0.07687 0.55685 0.0
C330 C 0.0797 0.14377 0.48269 0.0
C331 C 0.0542 0.19002 0.49209 0.0
N332 N 0.05216 0.09838 0.53138 0.0
N333 N 0.04316 0.16817 0.51648 0.0
H334 H 0.35333 0.10872 0.45695 0.0
H335 H 0.43155 0.9814 0.53588 0.0
H336 H 0.32124 0.03323 0.43854 0.0
H337 H 0.45006 0.05237 0.64572 0.0
H338 H 0.39518 0.00209 0.47614 0.0
H339 H 0.39254 0.09001 0.50741 0.0
C340 C 0.3544 0.08828 0.46426 0.0
C341 C 0.33389 0.07254 0.44376 0.0
C342 C 0.40752 0.01325 0.51226 0.0
C343 C 0.37885 0.0511 0.49925 0.0
C344 C 0.42843 1.00153 0.54589 0.0
C345 C 0.44418 0.01528 0.59535 0.0
C346 C 0.40237 0.03896 0.52765 0.0
C347 C 0.43903 0.04128 0.60634 0.0
C348 C 0.37681 0.07765 0.49264 0.0
C349 C 0.33645 0.04614 0.45394 0.0
N350 N 0.41848 0.05228 0.5731 0.0
N351 N 0.35858 0.03626 0.48035 0.0
H352 H 0.4108 0.35702 0.45049 0.0
H353 H 0.54356 0.41912 0.57327 0.0
H354 H 0.48078 0.315 0.47698 0.0
H355 H 0.47255 0.46002 0.582 0.0
H356 H 0.52153 0.38275 0.51926 0.0
H357 H 0.43357 0.39637 0.48108 0.0
C358 C 0.43103 0.35607 0.46113 0.0
C359 C 0.44396 0.33263 0.45956 0.0
C360 C 0.51071 0.39979 0.53206 0.0
C361 C 0.47003 0.37761 0.49692 0.0
C362 C 0.52333 0.42077 0.5626 0.0
C363 C 0.50981 0.44288 0.58315 0.0
C364 C 0.48427 0.40073 0.52127 0.0
C365 C 0.48364 0.44352 0.56752 0.0
C366 C 0.44397 0.37856 0.47951 0.0
C367 C 0.47 0.33258 0.47725 0.0
N368 N 0.47165 0.42272 0.53814 0.0
N369 N 0.48212 0.35465 0.49513 0.0
H370 H 0.1623 0.40689 0.44338 0.0
H371 H 0.1074 0.53826 0.60226 0.0
H372 H 0.20736 0.47405 0.48642 0.0
H373 H 0.05928 0.47351 0.55778 0.0
H374 H 0.14314 0.51551 0.54911 0.0
H375 H 0.12386 0.43099 0.47506 0.0
C376 C 0.16414 0.4268 0.45776 0.0
C377 C 0.18817 0.43856 0.46037 0.0
C378 C 0.12477 0.50617 0.5502 0.0
C379 C 0.14421 0.46603 0.49964 0.0
C380 C 0.10409 0.51928 0.58026 0.0
C381 C 0.08006 0.50759 0.58594 0.0
C382 C 0.1217 0.48103 0.52498 0.0
C383 C 0.07745 0.48291 0.5564 0.0
C384 C 0.14214 0.44048 0.4768 0.0
C385 C 0.18932 0.46415 0.48323 0.0
N386 N 0.09804 0.47031 0.5277 0.0
N387 N 0.16774 0.47693 0.50201 0.0
H388 H 0.91205 0.84963 0.03181 0.0
H389 H 0.03183 0.91918 0.85543 0.0
H390 H 0.98534 0.81403 0.00186 0.0
H391 H 0.97279 0.9629 0.96482 0.0
H392 H 0.01287 0.88039 0.90256 0.0
H393 H 0.93131 0.8911 0.00077 0.0
C394 C 0.9322 0.85059 0.01907 0.0
C395 C 0.94722 0.82844 0.01992 0.0
C396 C 0.00393 0.8984 0.91648 0.0
C397 C 0.96915 0.87549 0.98373 0.0
C398 C 0.0148 0.92069 0.88972 0.0
C399 C 0.0036 0.94449 0.90467 0.0
C400 C 0.98135 0.89952 0.95836 0.0
C401 C 0.98141 0.94501 0.9489 0.0
C402 C 0.94316 0.87423 0.0019 0.0
C403 C 0.97317 0.83067 0.00317 0.0
N404 N 0.97082 0.92277 0.97378 0.0
N405 N 0.98323 0.85368 0.9852 0.0
H406 H 0.67816 0.9094 0.00611 0.0
H407 H 0.58285 0.02801 0.99144 0.0
H408 H 0.70156 0.98759 0.03402 0.0
H409 H 0.56975 0.95969 0.86183 0.0
H410 H 0.62227 0.00938 0.03957 0.0
H411 H 0.63471 0.92417 0.97939 0.0
C412 C 0.67416 0.92963 0.00735 0.0
C413 C 0.69346 0.94724 0.02466 0.0
C414 C 0.61042 0.99823 0.002 0.0
C415 C 0.64379 0.96413 0.99551 0.0
C416 C 0.58779 0.00873 0.97506 0.0
C417 C 0.57271 0.99525 0.92315 0.0
C418 C 0.61806 0.974 0.97722 0.0
C419 C 0.58025 0.97042 0.90349 0.0
C420 C 0.64936 0.938 0.99249 0.0
C421 C 0.68717 0.97323 0.0249 0.0
N422 N 0.60252 0.96066 0.93 0.0
N423 N 0.6629 0.98086 0.01104 0.0
H424 H 0.53566 0.71075 0.99466 0.0
H425 H 0.55723 0.56388 0.89954 0.0
H426 H 0.60638 0.67304 0.04653 0.0
H427 H 0.48455 0.60201 0.89766 0.0
H428 H 0.57619 0.6019 0.95835 0.0
H429 H 0.51713 0.66991 0.96053 0.0
C430 C 0.54713 0.69373 0.00042 0.0
C431 C 0.57237 0.6952 0.02522 0.0
C432 C 0.55604 0.60172 0.94557 0.0
C433 C 0.55153 0.64814 0.98369 0.0
C434 C 0.54525 0.57997 0.91221 0.0
C435 C 0.5194 0.57963 0.89232 0.0
C436 C 0.54081 0.62338 0.95805 0.0
C437 C 0.50463 0.60113 0.91101 0.0
C438 C 0.53662 0.67035 0.9803 0.0
C439 C 0.58676 0.67264 0.02794 0.0
N440 N 0.51559 0.62208 0.94156 0.0
N441 N 0.57615 0.64997 0.00727 0.0
H442 H 0.84892 0.60438 0.07119 0.0
H443 H 0.91813 0.50357 0.80438 0.0
H444 H 0.81161 0.5407 0.9646 0.0
H445 H 0.96118 0.54659 0.96762 0.0
H446 H 0.87905 0.52201 0.85301 0.0
H447 H 0.89035 0.58764 0.02773 0.0
C448 C 0.84952 0.58692 0.03853 0.0
C449 C 0.82696 0.57381 0.02124 0.0
C450 C 0.89693 0.52739 0.8789 0.0
C451 C 0.8738 0.55503 0.97047 0.0
C452 C 0.91926 0.51687 0.85111 0.0
C453 C 0.94281 0.52331 0.88288 0.0
C454 C 0.8979 0.54463 0.93927 0.0
C455 C 0.94331 0.54113 0.94195 0.0
C456 C 0.87307 0.57738 0.0141 0.0
C457 C 0.8286 0.55126 0.97939 0.0
N458 N 0.92104 0.55118 0.96874 0.0
N459 N 0.85156 0.54273 0.95489 0.0
H460 H 0.06961 0.13632 0.23596 0.0
H461 H 0.01082 0.11009 0.83092 0.0
H462 H 0.0795 0.18821 0.04981 0.0
H463 H 0.02647 0.04965 0.98825 0.0
H464 H 0.0323 0.1402 0.91463 0.0
H465 H 0.04995 0.10568 0.15056 0.0
C466 C 0.06775 0.14127 0.177 0.0
C467 C 0.07626 0.16493 0.14997 0.0
C468 C 0.03097 0.12039 0.93108 0.0
C469 C 0.05363 0.12981 0.05203 0.0
C470 C 0.01853 0.10326 0.88376 0.0
C471 C 0.01661 0.07748 0.90351 0.0
C472 C 0.04112 0.1118 -0.00055 0.0
C473 C 0.02746 0.06943 0.97144 0.0
C474 C 0.05658 0.12369 0.12832 0.0
C475 C 0.07318 0.17026 0.0731 0.0
N476 N 0.03906 0.08663 0.01758 0.0
N477 N 0.062 0.15285 0.0268 0.0
H478 H 0.32582 0.06753 0.07112 0.0
H479 H 0.47127 0.03957 0.9655 0.0
H480 H 0.3889 0.09897 0.1964 0.0
H481 H 0.40825 0.99398 0.88625 0.0
H482 H 0.44158 0.06388 0.0445 0.0
H483 H 0.35603 0.04335 0.99395 0.0
C484 C 0.346 0.06946 0.08216 0.0
C485 C 0.35481 0.08528 0.1404 0.0
C486 C 0.43435 0.04842 0.01013 0.0
C487 C 0.38947 0.05756 0.05267 0.0
C488 C 0.45129 0.03449 0.96522 0.0
C489 C 0.44232 0.01458 0.91935 0.0
C490 C 0.40823 0.04265 0.00824 0.0
C491 C 0.41615 0.00898 0.92106 0.0
C492 C 0.36323 0.05555 0.03838 0.0
C493 C 0.38122 0.08702 0.15213 0.0
N494 N 0.40005 0.02305 0.9642 0.0
N495 N 0.3976 0.07333 0.1087 0.0
H496 H 0.40864 0.38789 0.11867 0.0
H497 H 0.54219 0.43753 0.95865 0.0
H498 H 0.48132 0.36845 0.21618 0.0
H499 H 0.46943 0.46472 0.87975 0.0
H500 H 0.5202 0.41092 0.05095 0.0
H501 H 0.43062 0.41429 0.02561 0.0
C502 C 0.4292 0.38926 0.1206 0.0
C503 C 0.44319 0.37617 0.17546 0.0
C504 C 0.50904 0.42278 0.01364 0.0
C505 C 0.46839 0.40636 0.06989 0.0
C506 C 0.52159 0.43799 0.96113 0.0
C507 C 0.50759 0.45341 0.91189 0.0
C508 C 0.48231 0.42275 0.01615 0.0
C509 C 0.48094 0.45334 0.9174 0.0
C510 C 0.44173 0.40431 0.06758 0.0
C511 C 0.4698 0.37826 0.17484 0.0
N512 N 0.46915 0.43809 0.96827 0.0
N513 N 0.48153 0.39317 0.12309 0.0
H514 H 0.15567 0.4793 0.21576 0.0
H515 H 0.05822 0.4684 0.87141 0.0
H516 H 0.13086 0.40783 0.11987 0.0
H517 H 0.08458 0.54004 0.96226 0.0
H518 H 0.08464 0.44593 0.96245 0.0
H519 H 0.12995 0.50192 0.12316 0.0
C520 C 0.1449 0.46837 0.17493 0.0
C521 C 0.14525 0.44165 0.1757 0.0
C522 C 0.08451 0.46655 0.96303 0.0
C523 C 0.11579 0.46741 0.06964 0.0
C524 C 0.06927 0.4794 0.91147 0.0
C525 C 0.06907 0.50612 0.90994 0.0
C526 C 0.09945 0.48051 0.01401 0.0
C527 C 0.08421 0.51942 0.96177 0.0
C528 C 0.13018 0.4813 0.12218 0.0
C529 C 0.13091 0.42845 0.12167 0.0
N530 N 0.09875 0.50645 0.01199 0.0
N531 N 0.11673 0.44148 0.07078 0.0
H532 H 0.94475 0.87621 0.29872 0.0
H533 H 0.05184 0.93766 0.56175 0.0
H534 H 0.02395 0.85417 0.2978 0.0
H535 H 0.97276 0.95929 0.57673 0.0
H536 H 0.04184 0.90984 0.45637 0.0
H537 H 0.95439 0.90888 0.39321 0.0
C538 C 0.96418 0.8783 0.31814 0.0
C539 C 0.98359 0.86238 0.29052 0.0
C540 C 0.02658 0.92063 0.48232 0.0
C541 C 0.99468 0.89971 0.39822 0.0
C542 C 0.03229 0.93651 0.54264 0.0
C543 C 0.01302 0.95047 0.57857 0.0
C544 C 1.0013 0.91836 0.4579 0.0
C545 C 0.98812 0.94872 0.55053 0.0
C546 C 0.96964 0.89696 0.37202 0.0
C547 C 0.00838 0.86594 0.31758 0.0
N548 N 0.98288 0.93265 0.49214 0.0
N549 N 0.01317 0.88417 0.36999 0.0
H550 H 0.65462 0.94019 0.33612 0.0
H551 H 0.56586 0.04316 0.53949 0.0
H552 H 0.65644 0.02102 0.29217 0.0
H553 H 0.57063 0.96513 0.61302 0.0
H554 H 0.59373 0.03312 0.43358 0.0
H555 H 0.61969 0.94711 0.42532 0.0
C556 C 0.6476 0.95937 0.34496 0.0
C557 C 0.65854 0.98011 0.30705 0.0
C558 C 0.58863 0.01808 0.47239 0.0
C559 C 0.61856 0.98805 0.40829 0.0
C560 C 0.57266 0.02379 0.53257 0.0
C561 C 0.56629 0.00495 0.58492 0.0
C562 C 0.59867 0.99343 0.46526 0.0
C563 C 0.57522 0.9801 0.57344 0.0
C564 C 0.62767 0.96327 0.3958 0.0
C565 C 0.6487 0.00451 0.32052 0.0
N566 N 0.59136 0.97508 0.51516 0.0
N567 N 0.62932 0.00779 0.37013 0.0
H568 H 0.57386 0.6734 0.345 0.0
H569 H 0.48566 0.55899 0.48563 0.0
H570 H 0.50257 0.6526 0.24089 0.0
H571 H 0.55254 0.58418 0.60454 0.0
H572 H 0.49553 0.58871 0.38369 0.0
H573 H 0.56955 0.63738 0.43076 0.0
C574 C 0.55733 0.66118 0.33995 0.0
C575 C 0.53843 0.66611 0.28611 0.0
C576 C 0.50828 0.58755 0.43146 0.0
C577 C 0.53351 0.62472 0.38375 0.0
C578 C 0.50276 0.57047 0.48913 0.0
C579 C 0.51847 0.56918 0.55264 0.0
C580 C 0.52936 0.60382 0.43838 0.0
C581 C 0.54023 0.5845 0.55562 0.0
C582 C 0.55492 0.64059 0.3889 0.0
C583 C 0.51746 0.64965 0.28208 0.0
N584 N 0.5449 0.6015 0.49958 0.0
N585 N 0.51554 0.62971 0.33041 0.0
H586 H 0.83464 0.52518 0.34251 0.0
H587 H 0.97841 0.52564 0.49225 0.0
H588 H 0.89978 0.52467 0.19386 0.0
H589 H 0.91217 0.51401 0.63176 0.0
H590 H 0.95024 0.53295 0.38361 0.0
H591 H 0.8632 0.52783 0.45015 0.0
C592 C 0.85498 0.52542 0.33248 0.0
C593 C 0.86485 0.52433 0.25908 0.0
C594 C 0.94194 0.5291 0.43829 0.0
C595 C 0.89775 0.52751 0.38246 0.0
C596 C 0.95797 0.52514 0.50019 0.0
C597 C 0.94751 0.51882 0.57042 0.0
C598 C 0.91542 0.52691 0.44748 0.0
C599 C 0.92096 0.51837 0.57807 0.0
C600 C 0.8713 0.5271 0.39405 0.0
C601 C 0.89138 0.52521 0.24959 0.0
N602 N 0.90586 0.52215 0.5173 0.0
N603 N 0.90696 0.5266 0.31067 0.0
loop_
_geom_bond_atom_site_label_1
_geom_bond_atom_site_label_2
_geom_bond_distance
_geom_bond_site_symmetry_2
_ccdc_geom_bond_type
O0 Cd1 2.300 1_556 S
O0 C7 1.275 1_556 S
Cd1 O0 2.300 1_554 S
Cd1 O9 2.381 1_554 S
Cd1 O10 2.378 . S
O2 Cd3 2.385 . S
O2 C7 1.255 . S
Cd3 O2 2.385 . S
Cd3 O4 2.317 . S
O4 Cd3 2.317 . S
O4 C5 1.232 . S
C5 O4 1.232 . S
C5 O6 1.218 . S
O6 C5 1.218 . S
C7 O0 1.275 1_554 S
C7 O2 1.255 . S
C8 O9 1.258 1_554 S
C8 O10 1.256 . S
O9 Cd1 2.381 1_556 S
O9 C8 1.258 1_556 S
O10 Cd1 2.378 . S
O10 C8 1.256 . S
O11 Cd12 2.300 1_556 S
O11 C18 1.275 1_556 S
Cd12 O11 2.300 1_554 S
Cd12 O20 2.381 1_554 S
Cd12 O21 2.378 . S
O13 Cd14 2.385 1_655 S
O13 C18 1.255 . S
Cd14 O13 2.385 1_455 S
Cd14 O15 2.317 1_455 S
O15 Cd14 2.317 1_655 S
O15 C16 1.232 . S
C16 O15 1.232 . S
C16 O17 1.218 . S
O17 C16 1.218 . S
C18 O11 1.275 1_554 S
C18 O13 1.255 . S
C19 O20 1.258 1_554 S
C19 O21 1.256 . S
O20 Cd12 2.381 1_556 S
O20 C19 1.258 1_556 S
O21 Cd12 2.378 . S
O21 C19 1.256 . S
O22 Cd23 2.300 1_556 S
O22 C29 1.275 1_556 S
Cd23 O22 2.300 1_554 S
Cd23 O31 2.381 1_554 S
Cd23 O32 2.378 . S
O24 Cd25 2.385 1_565 S
O24 C29 1.255 . S
Cd25 O24 2.385 1_545 S
Cd25 O26 2.317 1_545 S
O26 Cd25 2.317 1_565 S
O26 C27 1.232 . S
C27 O26 1.232 . S
C27 O28 1.218 . S
O28 C27 1.218 . S
C29 O22 1.275 1_554 S
C29 O24 1.255 . S
C30 O31 1.258 1_554 S
C30 O32 1.256 . S
O31 Cd23 2.381 1_556 S
O31 C30 1.258 1_556 S
O32 Cd23 2.378 . S
O32 C30 1.256 . S
O33 Cd34 2.300 1_556 S
O33 C40 1.275 1_556 S
Cd34 O33 2.300 1_554 S
Cd34 O42 2.381 1_554 S
Cd34 O43 2.378 . S
O35 Cd36 2.385 . S
O35 C40 1.255 . S
Cd36 O35 2.385 . S
Cd36 O37 2.317 . S
O37 Cd36 2.317 . S
O37 C38 1.232 . S
C38 O37 1.232 . S
C38 O39 1.218 . S
O39 C38 1.218 . S
C40 O33 1.275 1_554 S
C40 O35 1.255 . S
C41 O42 1.258 1_554 S
C41 O43 1.256 . S
O42 Cd34 2.381 1_556 S
O42 C41 1.258 1_556 S
O43 Cd34 2.378 . S
O43 C41 1.256 . S
O44 Cd45 2.300 . S
O44 C51 1.275 . S
Cd45 O44 2.300 . S
Cd45 O53 2.381 . S
Cd45 O54 2.378 . S
O46 Cd47 2.385 . S
O46 C51 1.255 . S
Cd47 O46 2.385 . S
Cd47 O48 2.317 . S
O48 Cd47 2.317 . S
O48 C49 1.232 . S
C49 O48 1.232 . S
C49 O50 1.218 . S
O50 C49 1.218 . S
C51 O44 1.275 . S
C51 O46 1.255 . S
C52 O53 1.258 . S
C52 O54 1.256 . S
O53 Cd45 2.381 . S
O53 C52 1.258 . S
O54 Cd45 2.378 . S
O54 C52 1.256 . S
O55 Cd56 2.300 . S
O55 C62 1.275 . S
Cd56 O55 2.300 . S
Cd56 O64 2.381 . S
Cd56 O65 2.378 . S
O57 Cd58 2.385 . S
O57 C62 1.255 . S
Cd58 O57 2.385 . S
Cd58 O59 2.317 . S
O59 Cd58 2.317 . S
O59 C60 1.232 . S
C60 O59 1.232 . S
C60 O61 1.218 . S
O61 C60 1.218 . S
C62 O55 1.275 . S
C62 O57 1.255 . S
C63 O64 1.258 . S
C63 O65 1.256 . S
O64 Cd56 2.381 . S
O64 C63 1.258 . S
O65 Cd56 2.378 . S
O65 C63 1.256 . S
O66 Cd67 2.300 . S
O66 C73 1.275 . S
Cd67 O66 2.300 . S
Cd67 O75 2.381 . S
Cd67 O76 2.378 . S
O68 Cd69 2.385 . S
O68 C73 1.255 . S
Cd69 O68 2.385 . S
Cd69 O70 2.317 . S
O70 Cd69 2.317 . S
O70 C71 1.232 . S
C71 O70 1.232 . S
C71 O72 1.218 . S
O72 C71 1.218 . S
C73 O66 1.275 . S
C73 O68 1.255 . S
C74 O75 1.258 . S
C74 O76 1.256 . S
O75 Cd67 2.381 . S
O75 C74 1.258 . S
O76 Cd67 2.378 . S
O76 C74 1.256 . S
O77 Cd78 2.300 . S
O77 C84 1.275 . S
Cd78 O77 2.300 . S
Cd78 O86 2.381 . S
Cd78 O87 2.378 . S
O79 Cd80 2.385 . S
O79 C84 1.255 . S
Cd80 O79 2.385 . S
Cd80 O81 2.317 . S
O81 Cd80 2.317 . S
O81 C82 1.232 . S
C82 O81 1.232 . S
C82 O83 1.218 . S
O83 C82 1.218 . S
C84 O77 1.275 . S
C84 O79 1.255 . S
C85 O86 1.258 . S
C85 O87 1.256 . S
O86 Cd78 2.381 . S
O86 C85 1.258 . S
O87 Cd78 2.378 . S
O87 C85 1.256 . S
O88 Mn89 2.163 . S
O88 C102 1.244 . S
Mn89 O88 2.163 . S
Mn89 O92 2.160 1_445 S
Mn89 O93 2.219 1_545 S
Mn89 O95 2.163 1_545 S
Mn89 O97 2.160 . S
Mn89 O107 2.221 1_455 S
O90 Mn91 2.087 . S
O90 C102 1.256 1_655 S
Mn91 O90 2.087 . S
Mn91 O98 2.089 . S
Mn91 O107 2.290 . S
Mn91 O108 2.251 . S
O92 Mn89 2.160 1_665 S
O92 C103 1.239 . S
O93 Mn89 2.219 1_565 S
O93 Mn94 2.300 . S
O93 C104 1.277 1_565 S
Mn94 O93 2.300 . S
Mn94 O96 2.089 . S
Mn94 O99 2.251 . S
Mn94 O100 2.087 . S
O95 Mn89 2.163 1_565 S
O95 C105 1.244 . S
O96 Mn94 2.089 . S
O96 C103 1.256 1_455 S
O97 Mn89 2.160 . S
O97 C106 1.239 . S
O98 Mn91 2.089 . S
O98 C106 1.256 1_655 S
O99 Mn94 2.251 . S
O99 C104 1.227 1_565 S
O100 Mn94 2.087 . S
O100 C105 1.256 . S
C101 O107 1.278 . S
C101 O108 1.241 . S
C102 O88 1.244 . S
C102 O90 1.256 1_455 S
C103 O92 1.239 . S
C103 O96 1.256 1_655 S
C104 O93 1.277 1_545 S
C104 O99 1.227 1_545 S
C105 O95 1.244 . S
C105 O100 1.256 . S
C106 O97 1.239 . S
C106 O98 1.256 1_455 S
O107 Mn89 2.221 1_655 S
O107 Mn91 2.290 . S
O107 C101 1.278 . S
O108 Mn91 2.251 . S
O108 C101 1.241 . S
O109 Mn110 2.163 . S
O109 C123 1.244 . S
Mn110 O109 2.163 . S
Mn110 O113 2.160 . S
Mn110 O114 2.221 1_545 S
Mn110 O116 2.163 . S
Mn110 O118 2.160 1_545 S
Mn110 O128 2.221 . S
O111 Mn112 2.087 . S
O111 C123 1.256 . S
Mn112 O111 2.087 . S
Mn112 O119 2.089 . S
Mn112 O128 2.290 . S
Mn112 O129 2.251 . S
O113 Mn110 2.160 . S
O113 C124 1.239 . S
O114 Mn110 2.221 1_565 S
O114 Mn115 2.290 . S
O114 C125 1.278 . S
Mn115 O114 2.290 . S
Mn115 O117 2.089 . S
Mn115 O120 2.251 . S
Mn115 O121 2.087 . S
O116 Mn110 2.163 . S
O116 C126 1.244 . S
O117 Mn115 2.089 . S
O117 C124 1.256 1_565 S
O118 Mn110 2.160 1_565 S
O118 C127 1.239 . S
O119 Mn112 2.089 . S
O119 C127 1.256 1_545 S
O120 Mn115 2.251 . S
O120 C125 1.241 . S
O121 Mn115 2.087 . S
O121 C126 1.256 1_565 S
C122 O128 1.278 . S
C122 O129 1.241 . S
C123 O109 1.244 . S
C123 O111 1.256 . S
C124 O113 1.239 . S
C124 O117 1.256 1_545 S
C125 O114 1.278 . S
C125 O120 1.241 . S
C126 O116 1.244 . S
C126 O121 1.256 1_545 S
C127 O118 1.239 . S
C127 O119 1.256 1_565 S
O128 Mn110 2.221 . S
O128 Mn112 2.290 . S
O128 C122 1.278 . S
O129 Mn112 2.251 . S
O129 C122 1.241 . S
O130 Mn131 2.163 . S
O130 C144 1.244 . S
Mn131 O130 2.163 . S
Mn131 O134 2.160 . S
Mn131 O135 2.221 . S
Mn131 O137 2.163 . S
Mn131 O139 2.160 . S
Mn131 O149 2.221 . S
O132 Mn133 2.087 . S
O132 C144 1.256 . S
Mn133 O132 2.087 . S
Mn133 O140 2.089 . S
Mn133 O149 2.290 . S
Mn133 O150 2.251 . S
O134 Mn131 2.160 . S
O134 C145 1.239 . S
O135 Mn131 2.221 . S
O135 Mn136 2.290 . S
O135 C146 1.278 . S
Mn136 O135 2.290 . S
Mn136 O138 2.089 . S
Mn136 O141 2.251 . S
Mn136 O142 2.087 . S
O137 Mn131 2.163 . S
O137 C147 1.244 . S
O138 Mn136 2.089 . S
O138 C145 1.256 . S
O139 Mn131 2.160 . S
O139 C148 1.239 . S
O140 Mn133 2.089 . S
O140 C148 1.256 . S
O141 Mn136 2.251 . S
O141 C146 1.241 . S
O142 Mn136 2.087 . S
O142 C147 1.256 . S
C143 O149 1.278 . S
C143 O150 1.241 . S
C144 O130 1.244 . S
C144 O132 1.256 . S
C145 O134 1.239 . S
C145 O138 1.256 . S
C146 O135 1.278 . S
C146 O141 1.241 . S
C147 O137 1.244 . S
C147 O142 1.256 . S
C148 O139 1.239 . S
C148 O140 1.256 . S
O149 Mn131 2.221 . S
O149 Mn133 2.290 . S
O149 C143 1.278 . S
O150 Mn133 2.251 . S
O150 C143 1.241 . S
O151 Mn152 2.163 . S
O151 C165 1.244 . S
Mn152 O151 2.163 . S
Mn152 O155 2.160 1_455 S
Mn152 O156 2.221 1_455 S
Mn152 O158 2.163 1_455 S
Mn152 O160 2.160 . S
Mn152 O170 2.221 . S
O153 Mn154 2.087 . S
O153 C165 1.256 . S
Mn154 O153 2.087 . S
Mn154 O161 2.089 . S
Mn154 O170 2.290 . S
Mn154 O171 2.251 . S
O155 Mn152 2.160 1_655 S
O155 C166 1.239 . S
O156 Mn152 2.221 1_655 S
O156 Mn157 2.293 . S
O156 C167 1.277 1_655 S
Mn157 O156 2.293 . S
Mn157 O159 2.089 . S
Mn157 O162 2.251 . S
Mn157 O163 2.087 . S
O158 Mn152 2.163 1_655 S
O158 C168 1.244 . S
O159 Mn157 2.089 . S
O159 C166 1.256 . S
O160 Mn152 2.160 . S
O160 C169 1.239 . S
O161 Mn154 2.089 . S
O161 C169 1.256 . S
O162 Mn157 2.251 . S
O162 C167 1.220 1_655 S
O163 Mn157 2.087 . S
O163 C168 1.256 . S
C164 O170 1.278 . S
C164 O171 1.241 . S
C165 O151 1.244 . S
C165 O153 1.256 . S
C166 O155 1.239 . S
C166 O159 1.256 . S
C167 O156 1.277 1_455 S
C167 O162 1.220 1_455 S
C168 O158 1.244 . S
C168 O163 1.256 . S
C169 O160 1.239 . S
C169 O161 1.256 . S
O170 Mn152 2.221 . S
O170 Mn154 2.290 . S
O170 C164 1.278 . S
O171 Mn154 2.251 . S
O171 C164 1.241 . S
H172 C178 0.930 . S
H173 C182 0.930 . S
H174 C187 0.929 . S
H175 C185 0.929 1_565 S
H176 C180 0.929 . S
H177 C186 0.929 . S
C178 H172 0.930 . S
C178 C179 1.367 . S
C178 C186 1.378 . S
C179 C178 1.367 . S
C179 C187 1.433 . S
C180 H176 0.929 . S
C180 C182 1.378 . S
C180 C184 1.350 . S
C181 C184 1.463 . S
C181 C186 1.350 . S
C181 N189 1.427 . S
C182 H173 0.930 . S
C182 C180 1.378 . S
C182 C183 1.367 . S
C183 C182 1.367 . S
C183 C185 1.433 . S
C184 C180 1.350 . S
C184 C181 1.463 . S
C184 N188 1.427 . S
C185 H175 0.929 1_545 S
C185 C183 1.433 . S
C185 N188 1.384 . S
C186 H177 0.929 . S
C186 C178 1.378 . S
C186 C181 1.350 . S
C187 H174 0.929 . S
C187 C179 1.433 . S
C187 N189 1.384 . S
N188 C184 1.427 . S
N188 C185 1.384 . S
N189 C181 1.427 . S
N189 C187 1.384 . S
H190 C196 0.930 . S
H191 C200 0.930 . S
H192 C205 0.929 . S
H193 C203 0.929 . S
H194 C198 0.929 . S
H195 C204 0.929 . S
C196 H190 0.930 . S
C196 C197 1.367 . S
C196 C204 1.378 . S
C197 C196 1.367 . S
C197 C205 1.433 . S
C198 H194 0.929 . S
C198 C200 1.378 . S
C198 C202 1.350 . S
C199 C202 1.463 . S
C199 C204 1.350 . S
C199 N207 1.427 . S
C200 H191 0.930 . S
C200 C198 1.378 . S
C200 C201 1.367 . S
C201 C200 1.367 . S
C201 C203 1.433 . S
C202 C198 1.350 . S
C202 C199 1.463 . S
C202 N206 1.427 . S
C203 H193 0.929 . S
C203 C201 1.433 . S
C203 N206 1.384 . S
C204 H195 0.929 . S
C204 C196 1.378 . S
C204 C199 1.350 . S
C205 H192 0.929 . S
C205 C197 1.433 . S
C205 N207 1.384 . S
N206 C202 1.427 . S
N206 C203 1.384 . S
N207 C199 1.427 . S
N207 C205 1.384 . S
H208 C214 0.930 . S
H209 C218 0.930 . S
H210 C223 0.929 . S
H211 C221 0.929 . S
H212 C216 0.929 . S
H213 C222 0.929 . S
C214 H208 0.930 . S
C214 C215 1.367 . S
C214 C222 1.378 . S
C215 C214 1.367 . S
C215 C223 1.433 . S
C216 H212 0.929 . S
C216 C218 1.378 . S
C216 C220 1.350 . S
C217 C220 1.463 . S
C217 C222 1.350 . S
C217 N225 1.427 . S
C218 H209 0.930 . S
C218 C216 1.378 . S
C218 C219 1.367 . S
C219 C218 1.367 . S
C219 C221 1.433 . S
C220 C216 1.350 . S
C220 C217 1.463 . S
C220 N224 1.427 . S
C221 H211 0.929 . S
C221 C219 1.433 . S
C221 N224 1.384 . S
C222 H213 0.929 . S
C222 C214 1.378 . S
C222 C217 1.350 . S
C223 H210 0.929 . S
C223 C215 1.433 . S
C223 N225 1.384 . S
N224 C220 1.427 . S
N224 C221 1.384 . S
N225 C217 1.427 . S
N225 C223 1.384 . S
H226 C232 0.930 . S
H227 C236 0.930 . S
H228 C241 0.929 . S
H229 C239 0.929 . S
H230 C234 0.929 . S
H231 C240 0.929 . S
C232 H226 0.930 . S
C232 C233 1.367 . S
C232 C240 1.378 . S
C233 C232 1.367 . S
C233 C241 1.433 . S
C234 H230 0.929 . S
C234 C236 1.378 . S
C234 C238 1.350 . S
C235 C238 1.463 . S
C235 C240 1.350 . S
C235 N243 1.427 . S
C236 H227 0.930 . S
C236 C234 1.378 . S
C236 C237 1.367 . S
C237 C236 1.367 . S
C237 C239 1.433 . S
C238 C234 1.350 . S
C238 C235 1.463 . S
C238 N242 1.427 . S
C239 H229 0.929 . S
C239 C237 1.433 . S
C239 N242 1.384 . S
C240 H231 0.929 . S
C240 C232 1.378 . S
C240 C235 1.350 . S
C241 H228 0.929 . S
C241 C233 1.433 . S
C241 N243 1.384 . S
N242 C238 1.427 . S
N242 C239 1.384 . S
N243 C235 1.427 . S
N243 C241 1.384 . S
H244 C250 0.930 . S
H245 C254 0.930 . S
H246 C259 0.929 1_545 S
H247 C257 0.929 . S
H248 C252 0.929 . S
H249 C258 0.929 . S
C250 H244 0.930 . S
C250 C251 1.367 1_554 S
C250 C258 1.378 1_554 S
C251 C250 1.367 1_556 S
C251 C259 1.433 . S
C252 H248 0.929 . S
C252 C254 1.378 . S
C252 C256 1.350 1_545 S
C253 C256 1.463 . S
C253 C258 1.350 . S
C253 N261 1.427 . S
C254 H245 0.930 . S
C254 C252 1.378 . S
C254 C255 1.354 1_545 S
C255 C254 1.354 1_565 S
C255 C257 1.451 . S
C256 C252 1.350 1_565 S
C256 C253 1.463 . S
C256 N260 1.427 . S
C257 H247 0.929 . S
C257 C255 1.451 . S
C257 N260 1.384 . S
C258 H249 0.929 . S
C258 C250 1.378 1_556 S
C258 C253 1.350 . S
C259 H246 0.929 1_565 S
C259 C251 1.433 . S
C259 N261 1.384 . S
N260 C256 1.427 . S
N260 C257 1.384 . S
N261 C253 1.427 . S
N261 C259 1.384 . S
H262 C268 0.930 . S
H263 C272 0.930 . S
H264 C277 0.929 . S
H265 C275 0.929 . S
H266 C270 0.929 . S
H267 C276 0.929 . S
C268 H262 0.930 . S
C268 C269 1.367 . S
C268 C276 1.378 . S
C269 C268 1.367 . S
C269 C277 1.433 1_556 S
C270 H266 0.929 . S
C270 C272 1.378 . S
C270 C274 1.350 . S
C271 C274 1.463 . S
C271 C276 1.350 . S
C271 N279 1.427 1_556 S
C272 H263 0.930 . S
C272 C270 1.378 . S
C272 C273 1.367 . S
C273 C272 1.367 . S
C273 C275 1.433 . S
C274 C270 1.350 . S
C274 C271 1.463 . S
C274 N278 1.427 . S
C275 H265 0.929 . S
C275 C273 1.433 . S
C275 N278 1.384 . S
C276 H267 0.929 . S
C276 C268 1.378 . S
C276 C271 1.350 . S
C277 H264 0.929 . S
C277 C269 1.433 1_554 S
C277 N279 1.384 . S
N278 C274 1.427 . S
N278 C275 1.384 . S
N279 C271 1.427 1_554 S
N279 C277 1.384 . S
H280 C286 0.930 . S
H281 C290 0.930 . S
H282 C295 0.929 . S
H283 C293 0.929 . S
H284 C288 0.929 . S
H285 C294 0.929 . S
C286 H280 0.930 . S
C286 C287 1.367 1_554 S
C286 C294 1.378 . S
C287 C286 1.367 1_556 S
C287 C295 1.433 . S
C288 H284 0.929 . S
C288 C290 1.378 . S
C288 C292 1.350 . S
C289 C292 1.463 . S
C289 C294 1.350 1_556 S
C289 N297 1.427 . S
C290 H281 0.930 . S
C290 C288 1.378 . S
C290 C291 1.367 . S
C291 C290 1.367 . S
C291 C293 1.433 . S
C292 C288 1.350 . S
C292 C289 1.463 . S
C292 N296 1.427 . S
C293 H283 0.929 . S
C293 C291 1.433 . S
C293 N296 1.384 . S
C294 H285 0.929 . S
C294 C286 1.378 . S
C294 C289 1.350 1_554 S
C295 H282 0.929 . S
C295 C287 1.433 . S
C295 N297 1.384 . S
N296 C292 1.427 . S
N296 C293 1.384 . S
N297 C289 1.427 . S
N297 C295 1.384 . S
H298 C304 0.930 . S
H299 C308 0.930 . S
H300 C313 0.929 . S
H301 C311 0.929 1_455 S
H302 C306 0.929 . S
H303 C312 0.929 . S
C304 H298 0.930 . S
C304 C305 1.367 . S
C304 C312 1.378 . S
C305 C304 1.367 . S
C305 C313 1.433 1_556 S
C306 H302 0.929 . S
C306 C308 1.378 . S
C306 C310 1.350 . S
C307 C310 1.463 . S
C307 C312 1.350 . S
C307 N315 1.427 1_556 S
C308 H299 0.930 . S
C308 C306 1.378 . S
C308 C309 1.375 . S
C309 C308 1.375 . S
C309 C311 1.436 . S
C310 C306 1.350 . S
C310 C307 1.463 . S
C310 N314 1.427 . S
C311 H301 0.929 1_655 S
C311 C309 1.436 . S
C311 N314 1.384 . S
C312 H303 0.929 . S
C312 C304 1.378 . S
C312 C307 1.350 . S
C313 H300 0.929 . S
C313 C305 1.433 1_554 S
C313 N315 1.384 . S
N314 C310 1.427 . S
N314 C311 1.384 . S
N315 C307 1.427 1_554 S
N315 C313 1.384 . S
H316 C322 0.930 . S
H317 C326 0.930 . S
H318 C331 0.929 . S
H319 C329 0.929 . S
H320 C324 0.929 . S
H321 C330 0.929 . S
C322 H316 0.930 . S
C322 C323 1.367 . S
C322 C330 1.378 . S
C323 C322 1.367 . S
C323 C331 1.433 . S
C324 H320 0.929 . S
C324 C326 1.378 1_455 S
C324 C328 1.350 . S
C325 C328 1.463 . S
C325 C330 1.350 . S
C325 N333 1.427 . S
C326 H317 0.930 . S
C326 C324 1.378 1_655 S
C326 C327 1.367 1_655 S
C327 C326 1.367 1_455 S
C327 C329 1.433 . S
C328 C324 1.350 . S
C328 C325 1.463 . S
C328 N332 1.427 . S
C329 H319 0.929 . S
C329 C327 1.433 . S
C329 N332 1.384 . S
C330 H321 0.929 . S
C330 C322 1.378 . S
C330 C325 1.350 . S
C331 H318 0.929 . S
C331 C323 1.433 . S
C331 N333 1.384 . S
N332 C328 1.427 . S
N332 C329 1.384 . S
N333 C325 1.427 . S
N333 C331 1.384 . S
H334 C340 0.930 . S
H335 C344 0.930 . S
H336 C349 0.929 . S
H337 C347 0.929 . S
H338 C342 0.923 1_565 S
H339 C348 0.929 . S
C340 H334 0.930 . S
C340 C341 1.367 . S
C340 C348 1.378 . S
C341 C340 1.367 . S
C341 C349 1.433 . S
C342 H338 0.923 1_545 S
C342 C344 1.374 1_545 S
C342 C346 1.360 . S
C343 C346 1.463 . S
C343 C348 1.350 . S
C343 N351 1.427 . S
C344 H335 0.930 . S
C344 C342 1.374 1_565 S
C344 C345 1.367 1_565 S
C345 C344 1.367 1_545 S
C345 C347 1.433 . S
C346 C342 1.360 . S
C346 C343 1.463 . S
C346 N350 1.427 . S
C347 H337 0.929 . S
C347 C345 1.433 . S
C347 N350 1.384 . S
C348 H339 0.929 . S
C348 C340 1.378 . S
C348 C343 1.350 . S
C349 H336 0.929 . S
C349 C341 1.433 . S
C349 N351 1.384 . S
N350 C346 1.427 . S
N350 C347 1.384 . S
N351 C343 1.427 . S
N351 C349 1.384 . S
H352 C358 0.930 . S
H353 C362 0.930 . S
H354 C367 0.929 . S
H355 C365 0.929 . S
H356 C360 0.929 . S
H357 C366 0.929 . S
C358 H352 0.930 . S
C358 C359 1.367 . S
C358 C366 1.378 . S
C359 C358 1.367 . S
C359 C367 1.433 . S
C360 H356 0.929 . S
C360 C362 1.378 . S
C360 C364 1.350 . S
C361 C364 1.463 . S
C361 C366 1.350 . S
C361 N369 1.427 . S
C362 H353 0.930 . S
C362 C360 1.378 . S
C362 C363 1.367 . S
C363 C362 1.367 . S
C363 C365 1.433 . S
C364 C360 1.350 . S
C364 C361 1.463 . S
C364 N368 1.427 . S
C365 H355 0.929 . S
C365 C363 1.433 . S
C365 N368 1.384 . S
C366 H357 0.929 . S
C366 C358 1.378 . S
C366 C361 1.350 . S
C367 H354 0.929 . S
C367 C359 1.433 . S
C367 N369 1.384 . S
N368 C364 1.427 . S
N368 C365 1.384 . S
N369 C361 1.427 . S
N369 C367 1.384 . S
H370 C376 0.930 . S
H371 C380 0.930 . S
H372 C385 0.929 . S
H373 C383 0.929 . S
H374 C378 0.929 . S
H375 C384 0.929 . S
C376 H370 0.930 . S
C376 C377 1.367 . S
C376 C384 1.378 . S
C377 C376 1.367 . S
C377 C385 1.433 . S
C378 H374 0.929 . S
C378 C380 1.378 . S
C378 C382 1.350 . S
C379 C382 1.463 . S
C379 C384 1.350 . S
C379 N387 1.427 . S
C380 H371 0.930 . S
C380 C378 1.378 . S
C380 C381 1.367 . S
C381 C380 1.367 . S
C381 C383 1.433 . S
C382 C378 1.350 . S
C382 C379 1.463 . S
C382 N386 1.427 . S
C383 H373 0.929 . S
C383 C381 1.433 . S
C383 N386 1.384 . S
C384 H375 0.929 . S
C384 C376 1.378 . S
C384 C379 1.350 . S
C385 H372 0.929 . S
C385 C377 1.433 . S
C385 N387 1.384 . S
N386 C382 1.427 . S
N386 C383 1.384 . S
N387 C379 1.427 . S
N387 C385 1.384 . S
H388 C394 0.930 . S
H389 C398 0.930 . S
H390 C403 0.929 . S
H391 C401 0.929 . S
H392 C396 0.929 . S
H393 C402 0.929 1_554 S
C394 H388 0.930 . S
C394 C395 1.362 1_554 S
C394 C402 1.378 1_554 S
C395 C394 1.362 1_556 S
C395 C403 1.444 . S
C396 H392 0.929 . S
C396 C398 1.378 . S
C396 C400 1.350 1_455 S
C397 C400 1.463 . S
C397 C402 1.350 . S
C397 N405 1.427 . S
C398 H389 0.930 . S
C398 C396 1.378 . S
C398 C399 1.367 . S
C399 C398 1.367 . S
C399 C401 1.433 1_455 S
C400 C396 1.350 1_655 S
C400 C397 1.463 . S
C400 N404 1.427 . S
C401 H391 0.929 . S
C401 C399 1.433 1_655 S
C401 N404 1.384 . S
C402 H393 0.929 1_556 S
C402 C394 1.378 1_556 S
C402 C397 1.350 . S
C403 H390 0.929 . S
C403 C395 1.444 . S
C403 N405 1.384 . S
N404 C400 1.427 . S
N404 C401 1.384 . S
N405 C397 1.427 . S
N405 C403 1.384 . S
H406 C412 0.930 . S
H407 C416 0.930 . S
H408 C421 0.929 1_545 S
H409 C419 0.929 . S
H410 C414 0.929 . S
H411 C420 0.929 . S
C412 H406 0.930 . S
C412 C413 1.367 . S
C412 C420 1.378 . S
C413 C412 1.367 . S
C413 C421 1.433 1_556 S
C414 H410 0.929 . S
C414 C416 1.378 . S
C414 C418 1.350 1_545 S
C415 C418 1.463 . S
C415 C420 1.350 . S
C415 N423 1.415 1_565 S
C416 H407 0.930 . S
C416 C414 1.378 . S
C416 C417 1.367 . S
C417 C416 1.367 . S
C417 C419 1.433 1_545 S
C418 C414 1.350 1_565 S
C418 C415 1.463 . S
C418 N422 1.427 . S
C419 H409 0.929 . S
C419 C417 1.433 1_565 S
C419 N422 1.384 . S
C420 H411 0.929 . S
C420 C412 1.378 . S
C420 C415 1.350 . S
C421 H408 0.929 1_565 S
C421 C413 1.433 1_554 S
C421 N423 1.378 1_564 S
N422 C418 1.427 . S
N422 C419 1.384 . S
N423 C415 1.415 1_545 S
N423 C421 1.378 1_546 S
H424 C430 0.930 . S
H425 C434 0.930 . S
H426 C439 0.929 . S
H427 C437 0.929 . S
H428 C432 0.929 . S
H429 C438 0.929 . S
C430 H424 0.930 . S
C430 C431 1.367 . S
C430 C438 1.378 . S
C431 C430 1.367 . S
C431 C439 1.433 1_556 S
C432 H428 0.929 . S
C432 C434 1.378 . S
C432 C436 1.350 . S
C433 C436 1.463 . S
C433 C438 1.350 . S
C433 N441 1.427 . S
C434 H425 0.930 . S
C434 C432 1.378 . S
C434 C435 1.367 . S
C435 C434 1.367 . S
C435 C437 1.433 . S
C436 C432 1.350 . S
C436 C433 1.463 . S
C436 N440 1.427 . S
C437 H427 0.929 . S
C437 C435 1.433 . S
C437 N440 1.384 . S
C438 H429 0.929 . S
C438 C430 1.378 . S
C438 C433 1.350 . S
C439 H426 0.929 . S
C439 C431 1.433 1_554 S
C439 N441 1.384 1_554 S
N440 C436 1.427 . S
N440 C437 1.384 . S
N441 C433 1.427 . S
N441 C439 1.384 1_556 S
H442 C448 0.930 . S
H443 C452 0.930 . S
H444 C457 0.929 . S
H445 C455 0.929 . S
H446 C450 0.929 . S
H447 C456 0.929 . S
C448 H442 0.930 . S
C448 C449 1.363 1_554 S
C448 C456 1.378 . S
C449 C448 1.363 1_556 S
C449 C457 1.440 . S
C450 H446 0.929 . S
C450 C452 1.378 . S
C450 C454 1.350 . S
C451 C454 1.463 . S
C451 C456 1.350 1_556 S
C451 N459 1.427 . S
C452 H443 0.930 . S
C452 C450 1.378 . S
C452 C453 1.367 . S
C453 C452 1.367 . S
C453 C455 1.433 . S
C454 C450 1.350 . S
C454 C451 1.463 . S
C454 N458 1.427 . S
C455 H445 0.929 . S
C455 C453 1.433 . S
C455 N458 1.384 . S
C456 H447 0.929 . S
C456 C448 1.378 . S
C456 C451 1.350 1_554 S
C457 H444 0.929 . S
C457 C449 1.440 . S
C457 N459 1.384 . S
N458 C454 1.427 . S
N458 C455 1.384 . S
N459 C451 1.427 . S
N459 C457 1.384 . S
H460 C466 0.930 . S
H461 C470 0.930 . S
H462 C475 0.929 . S
H463 C473 0.929 1_554 S
H464 C468 0.929 . S
H465 C474 0.929 . S
C466 H460 0.930 . S
C466 C467 1.367 . S
C466 C474 1.378 . S
C467 C466 1.367 . S
C467 C475 1.433 . S
C468 H464 0.929 . S
C468 C470 1.378 . S
C468 C472 1.350 1_556 S
C469 C472 1.463 . S
C469 C474 1.350 . S
C469 N477 1.427 . S
C470 H461 0.930 . S
C470 C468 1.378 . S
C470 C471 1.367 . S
C471 C470 1.367 . S
C471 C473 1.433 . S
C472 C468 1.350 1_554 S
C472 C469 1.463 . S
C472 N476 1.427 . S
C473 H463 0.929 1_556 S
C473 C471 1.433 . S
C473 N476 1.384 1_556 S
C474 H465 0.929 . S
C474 C466 1.378 . S
C474 C469 1.350 . S
C475 H462 0.929 . S
C475 C467 1.433 . S
C475 N477 1.384 . S
N476 C472 1.427 . S
N476 C473 1.384 1_554 S
N477 C469 1.427 . S
N477 C475 1.384 . S
H478 C484 0.930 . S
H479 C488 0.930 . S
H480 C493 0.929 . S
H481 C491 0.929 . S
H482 C486 0.929 . S
H483 C492 0.929 1_556 S
C484 H478 0.930 . S
C484 C485 1.367 . S
C484 C492 1.378 . S
C485 C484 1.367 . S
C485 C493 1.433 . S
C486 H482 0.929 . S
C486 C488 1.378 1_554 S
C486 C490 1.350 . S
C487 C490 1.463 . S
C487 C492 1.350 . S
C487 N495 1.427 . S
C488 H479 0.930 . S
C488 C486 1.378 1_556 S
C488 C489 1.367 . S
C489 C488 1.367 . S
C489 C491 1.433 . S
C490 C486 1.350 . S
C490 C487 1.463 . S
C490 N494 1.427 1_554 S
C491 H481 0.929 . S
C491 C489 1.433 . S
C491 N494 1.384 . S
C492 H483 0.929 1_554 S
C492 C484 1.378 . S
C492 C487 1.350 . S
C493 H480 0.929 . S
C493 C485 1.433 . S
C493 N495 1.384 . S
N494 C490 1.427 1_556 S
N494 C491 1.384 . S
N495 C487 1.427 . S
N495 C493 1.384 . S
H496 C502 0.930 . S
H497 C506 0.930 . S
H498 C511 0.929 . S
H499 C509 0.929 . S
H500 C504 0.929 . S
H501 C510 0.929 1_556 S
C502 H496 0.930 . S
C502 C503 1.367 . S
C502 C510 1.378 . S
C503 C502 1.367 . S
C503 C511 1.433 . S
C504 H500 0.929 . S
C504 C506 1.378 1_554 S
C504 C508 1.350 . S
C505 C508 1.463 . S
C505 C510 1.350 . S
C505 N513 1.427 . S
C506 H497 0.930 . S
C506 C504 1.378 1_556 S
C506 C507 1.367 . S
C507 C506 1.367 . S
C507 C509 1.433 . S
C508 C504 1.350 . S
C508 C505 1.463 . S
C508 N512 1.427 1_554 S
C509 H499 0.929 . S
C509 C507 1.433 . S
C509 N512 1.384 . S
C510 H501 0.929 1_554 S
C510 C502 1.378 . S
C510 C505 1.350 . S
C511 H498 0.929 . S
C511 C503 1.433 . S
C511 N513 1.384 . S
N512 C508 1.427 1_556 S
N512 C509 1.384 . S
N513 C505 1.427 . S
N513 C511 1.384 . S
H514 C520 0.930 . S
H515 C524 0.930 . S
H516 C529 0.929 . S
H517 C527 0.929 . S
H518 C522 0.929 . S
H519 C528 0.929 . S
C520 H514 0.930 . S
C520 C521 1.367 . S
C520 C528 1.378 . S
C521 C520 1.367 . S
C521 C529 1.433 . S
C522 H518 0.929 . S
C522 C524 1.378 . S
C522 C526 1.350 1_556 S
C523 C526 1.463 . S
C523 C528 1.350 . S
C523 N531 1.427 . S
C524 H515 0.930 . S
C524 C522 1.378 . S
C524 C525 1.367 . S
C525 C524 1.367 . S
C525 C527 1.433 . S
C526 C522 1.350 1_554 S
C526 C523 1.463 . S
C526 N530 1.427 . S
C527 H517 0.929 . S
C527 C525 1.433 . S
C527 N530 1.384 1_556 S
C528 H519 0.929 . S
C528 C520 1.378 . S
C528 C523 1.350 . S
C529 H516 0.929 . S
C529 C521 1.433 . S
C529 N531 1.384 . S
N530 C526 1.427 . S
N530 C527 1.384 1_554 S
N531 C523 1.427 . S
N531 C529 1.384 . S
H532 C538 0.930 . S
H533 C542 0.930 . S
H534 C547 0.929 1_455 S
H535 C545 0.929 . S
H536 C540 0.929 . S
H537 C546 0.929 . S
C538 H532 0.930 . S
C538 C539 1.367 . S
C538 C546 1.378 . S
C539 C538 1.367 . S
C539 C547 1.433 . S
C540 H536 0.929 . S
C540 C542 1.378 . S
C540 C544 1.350 1_455 S
C541 C544 1.463 . S
C541 C546 1.350 . S
C541 N549 1.427 . S
C542 H533 0.930 . S
C542 C540 1.378 . S
C542 C543 1.367 1_455 S
C543 C542 1.367 1_655 S
C543 C545 1.433 . S
C544 C540 1.350 1_655 S
C544 C541 1.463 . S
C544 N548 1.427 . S
C545 H535 0.929 . S
C545 C543 1.433 . S
C545 N548 1.384 . S
C546 H537 0.929 . S
C546 C538 1.378 . S
C546 C541 1.350 . S
C547 H534 0.929 1_655 S
C547 C539 1.433 . S
C547 N549 1.384 . S
N548 C544 1.427 . S
N548 C545 1.384 . S
N549 C541 1.427 . S
N549 C547 1.384 . S
H550 C556 0.930 . S
H551 C560 0.930 . S
H552 C565 0.929 1_545 S
H553 C563 0.929 . S
H554 C558 0.929 . S
H555 C564 0.929 . S
C556 H550 0.930 . S
C556 C557 1.367 . S
C556 C564 1.378 . S
C557 C556 1.367 . S
C557 C565 1.433 . S
C558 H554 0.929 . S
C558 C560 1.378 . S
C558 C562 1.350 1_545 S
C559 C562 1.463 . S
C559 C564 1.350 . S
C559 N567 1.427 . S
C560 H551 0.930 . S
C560 C558 1.378 . S
C560 C561 1.367 1_545 S
C561 C560 1.367 1_565 S
C561 C563 1.433 . S
C562 C558 1.350 1_565 S
C562 C559 1.463 . S
C562 N566 1.427 . S
C563 H553 0.929 . S
C563 C561 1.433 . S
C563 N566 1.384 . S
C564 H555 0.929 . S
C564 C556 1.378 . S
C564 C559 1.350 . S
C565 H552 0.929 1_565 S
C565 C557 1.433 . S
C565 N567 1.384 . S
N566 C562 1.427 . S
N566 C563 1.384 . S
N567 C559 1.427 . S
N567 C565 1.384 . S
H568 C574 0.930 . S
H569 C578 0.930 . S
H570 C583 0.929 . S
H571 C581 0.929 . S
H572 C576 0.929 . S
H573 C582 0.929 . S
C574 H568 0.930 . S
C574 C575 1.367 . S
C574 C582 1.378 . S
C575 C574 1.367 . S
C575 C583 1.433 . S
C576 H572 0.929 . S
C576 C578 1.378 . S
C576 C580 1.350 . S
C577 C580 1.463 . S
C577 C582 1.350 . S
C577 N585 1.427 . S
C578 H569 0.930 . S
C578 C576 1.378 . S
C578 C579 1.367 . S
C579 C578 1.367 . S
C579 C581 1.433 . S
C580 C576 1.350 . S
C580 C577 1.463 . S
C580 N584 1.427 . S
C581 H571 0.929 . S
C581 C579 1.433 . S
C581 N584 1.384 . S
C582 H573 0.929 . S
C582 C574 1.378 . S
C582 C577 1.350 . S
C583 H570 0.929 . S
C583 C575 1.433 . S
C583 N585 1.384 . S
N584 C580 1.427 . S
N584 C581 1.384 . S
N585 C577 1.427 . S
N585 C583 1.384 . S
H586 C592 0.930 . S
H587 C596 0.930 . S
H588 C601 0.929 . S
H589 C599 0.929 . S
H590 C594 0.929 . S
H591 C600 0.929 . S
C592 H586 0.930 . S
C592 C593 1.367 . S
C592 C600 1.378 . S
C593 C592 1.367 . S
C593 C601 1.433 . S
C594 H590 0.929 . S
C594 C596 1.378 . S
C594 C598 1.350 . S
C595 C598 1.463 . S
C595 C600 1.350 . S
C595 N603 1.427 . S
C596 H587 0.930 . S
C596 C594 1.378 . S
C596 C597 1.367 . S
C597 C596 1.367 . S
C597 C599 1.433 . S
C598 C594 1.350 . S
C598 C595 1.463 . S
C598 N602 1.427 . S
C599 H589 0.929 . S
C599 C597 1.433 . S
C599 N602 1.384 . S
C600 H591 0.929 . S
C600 C592 1.378 . S
C600 C595 1.350 . S
C601 H588 0.929 . S
C601 C593 1.433 . S
C601 N603 1.384 . S
N602 C598 1.427 . S
N602 C599 1.384 . S
N603 C595 1.427 . S
N603 C601 1.384 . S
C179 C74 1.587 . S
C183 C104 1.446 . S
C201 C122 1.420 . S
C197 C85 1.586 . S
C219 C143 1.418 . S
C215 C52 1.587 . S
C237 C167 1.436 . S
C233 C63 1.586 . S
C255 C101 1.321 1_565 S
C251 C30 1.464 1_556 S
C269 C41 1.454 1_556 S
C273 C125 1.337 . S
C287 C8 1.458 1_556 S
C291 C146 1.349 . S
C305 C19 1.453 1_556 S
C309 C164 1.312 1_655 S
C327 C106 0.658 . S
C323 C62 0.658 . S
C345 C124 0.663 . S
C341 C73 0.658 . S
C363 C145 0.657 . S
C359 C84 0.658 . S
C377 C51 0.658 . S
C381 C169 0.655 . S
C395 C18 0.770 1_556 S
C399 C105 0.755 . S
C417 C123 0.764 . S
C413 C29 0.778 1_556 S
C435 C144 0.774 . S
C431 C40 0.751 1_556 S
C449 C7 0.767 1_556 S
C453 C168 0.755 . S
C467 C60 1.424 . S
C471 C102 1.569 . S
C485 C71 1.441 . S
C489 C126 1.576 . S
C507 C147 1.566 . S
C503 C82 1.427 . S
C525 C165 1.574 . S
C521 C49 1.432 . S
C539 C16 1.209 . S
C543 C103 1.424 . S
C561 C127 1.426 . S
C557 C27 1.214 . S
C579 C148 1.430 . S
C575 C38 1.214 . S
C593 C5 1.210 . S
C597 C166 1.435 . S
