# Generated by pormake.
# Topology soc, (4,6)-cn, num edge types: 1
# Building blocks:
#     Node 0, Type 0, BuildingBlock: ESEHIV_clean_sbu_0, # of connection points: 4
#     Node 1, Type 0, BuildingBlock: ESEHIV_clean_sbu_0, # of connection points: 4
#     Node 2, Type 0, BuildingBlock: ESEHIV_clean_sbu_0, # of connection points: 4
#     Node 3, Type 0, BuildingBlock: ESEHIV_clean_sbu_0, # of connection points: 4
#     Node 4, Type 0, BuildingBlock: ESEHIV_clean_sbu_0, # of connection points: 4
#     Node 5, Type 0, BuildingBlock: ESEHIV_clean_sbu_0, # of connection points: 4
#     Node 6, Type 0, BuildingBlock: ESEHIV_clean_sbu_0, # of connection points: 4
#     Node 7, Type 0, BuildingBlock: ESEHIV_clean_sbu_0, # of connection points: 4
#     Node 8, Type 0, BuildingBlock: ESEHIV_clean_sbu_0, # of connection points: 4
#     Node 9, Type 0, BuildingBlock: ESEHIV_clean_sbu_0, # of connection points: 4
#     Node 10, Type 0, BuildingBlock: ESEHIV_clean_sbu_0, # of connection points: 4
#     Node 11, Type 0, BuildingBlock: ESEHIV_clean_sbu_0, # of connection points: 4
#     Node 12, Type 1, BuildingBlock: INOVEN_clean_sbu_0, # of connection points: 6
#     Node 13, Type 1, BuildingBlock: INOVEN_clean_sbu_0, # of connection points: 6
#     Node 14, Type 1, BuildingBlock: INOVEN_clean_sbu_0, # of connection points: 6
#     Node 15, Type 1, BuildingBlock: INOVEN_clean_sbu_0, # of connection points: 6
#     Node 16, Type 1, BuildingBlock: INOVEN_clean_sbu_0, # of connection points: 6
#     Node 17, Type 1, BuildingBlock: INOVEN_clean_sbu_0, # of connection points: 6
#     Node 18, Type 1, BuildingBlock: INOVEN_clean_sbu_0, # of connection points: 6
#     Node 19, Type 1, BuildingBlock: INOVEN_clean_sbu_0, # of connection points: 6
#     Edge 20, Type (0, 1), BuildingBlock: MIFKUJ_clean_linker_0, # of connection points: 2
#     Edge 21, Type (0, 1), BuildingBlock: MIFKUJ_clean_linker_0, # of connection points: 2
#     Edge 22, Type (0, 1), BuildingBlock: MIFKUJ_clean_linker_0, # of connection points: 2
#     Edge 23, Type (0, 1), BuildingBlock: MIFKUJ_clean_linker_0, # of connection points: 2
#     Edge 24, Type (0, 1), BuildingBlock: MIFKUJ_clean_linker_0, # of connection points: 2
#     Edge 25, Type (0, 1), BuildingBlock: MIFKUJ_clean_linker_0, # of connection points: 2
#     Edge 26, Type (0, 1), BuildingBlock: MIFKUJ_clean_linker_0, # of connection points: 2
#     Edge 27, Type (0, 1), BuildingBlock: MIFKUJ_clean_linker_0, # of connection points: 2
#     Edge 28, Type (0, 1), BuildingBlock: MIFKUJ_clean_linker_0, # of connection points: 2
#     Edge 29, Type (0, 1), BuildingBlock: MIFKUJ_clean_linker_0, # of connection points: 2
#     Edge 30, Type (0, 1), BuildingBlock: MIFKUJ_clean_linker_0, # of connection points: 2
#     Edge 31, Type (0, 1), BuildingBlock: MIFKUJ_clean_linker_0, # of connection points: 2
#     Edge 32, Type (0, 1), BuildingBlock: MIFKUJ_clean_linker_0, # of connection points: 2
#     Edge 33, Type (0, 1), BuildingBlock: MIFKUJ_clean_linker_0, # of connection points: 2
#     Edge 34, Type (0, 1), BuildingBlock: MIFKUJ_clean_linker_0, # of connection points: 2
#     Edge 35, Type (0, 1), BuildingBlock: MIFKUJ_clean_linker_0, # of connection points: 2
#     Edge 36, Type (0, 1), BuildingBlock: MIFKUJ_clean_linker_0, # of connection points: 2
#     Edge 37, Type (0, 1), BuildingBlock: MIFKUJ_clean_linker_0, # of connection points: 2
#     Edge 38, Type (0, 1), BuildingBlock: MIFKUJ_clean_linker_0, # of connection points: 2
#     Edge 39, Type (0, 1), BuildingBlock: MIFKUJ_clean_linker_0, # of connection points: 2
#     Edge 40, Type (0, 1), BuildingBlock: MIFKUJ_clean_linker_0, # of connection points: 2
#     Edge 41, Type (0, 1), BuildingBlock: MIFKUJ_clean_linker_0, # of connection points: 2
#     Edge 42, Type (0, 1), BuildingBlock: MIFKUJ_clean_linker_0, # of connection points: 2
#     Edge 43, Type (0, 1), BuildingBlock: MIFKUJ_clean_linker_0, # of connection points: 2
#     Edge 44, Type (0, 1), BuildingBlock: MIFKUJ_clean_linker_0, # of connection points: 2
#     Edge 45, Type (0, 1), BuildingBlock: MIFKUJ_clean_linker_0, # of connection points: 2
#     Edge 46, Type (0, 1), BuildingBlock: MIFKUJ_clean_linker_0, # of connection points: 2
#     Edge 47, Type (0, 1), BuildingBlock: MIFKUJ_clean_linker_0, # of connection points: 2
#     Edge 48, Type (0, 1), BuildingBlock: MIFKUJ_clean_linker_0, # of connection points: 2
#     Edge 49, Type (0, 1), BuildingBlock: MIFKUJ_clean_linker_0, # of connection points: 2
#     Edge 50, Type (0, 1), BuildingBlock: MIFKUJ_clean_linker_0, # of connection points: 2
#     Edge 51, Type (0, 1), BuildingBlock: MIFKUJ_clean_linker_0, # of connection points: 2
#     Edge 52, Type (0, 1), BuildingBlock: MIFKUJ_clean_linker_0, # of connection points: 2
#     Edge 53, Type (0, 1), BuildingBlock: MIFKUJ_clean_linker_0, # of connection points: 2
#     Edge 54, Type (0, 1), BuildingBlock: MIFKUJ_clean_linker_0, # of connection points: 2
#     Edge 55, Type (0, 1), BuildingBlock: MIFKUJ_clean_linker_0, # of connection points: 2
#     Edge 56, Type (0, 1), BuildingBlock: MIFKUJ_clean_linker_0, # of connection points: 2
#     Edge 57, Type (0, 1), BuildingBlock: MIFKUJ_clean_linker_0, # of connection points: 2
#     Edge 58, Type (0, 1), BuildingBlock: MIFKUJ_clean_linker_0, # of connection points: 2
#     Edge 59, Type (0, 1), BuildingBlock: MIFKUJ_clean_linker_0, # of connection points: 2
#     Edge 60, Type (0, 1), BuildingBlock: MIFKUJ_clean_linker_0, # of connection points: 2
#     Edge 61, Type (0, 1), BuildingBlock: MIFKUJ_clean_linker_0, # of connection points: 2
#     Edge 62, Type (0, 1), BuildingBlock: MIFKUJ_clean_linker_0, # of connection points: 2
#     Edge 63, Type (0, 1), BuildingBlock: MIFKUJ_clean_linker_0, # of connection points: 2
#     Edge 64, Type (0, 1), BuildingBlock: MIFKUJ_clean_linker_0, # of connection points: 2
#     Edge 65, Type (0, 1), BuildingBlock: MIFKUJ_clean_linker_0, # of connection points: 2
#     Edge 66, Type (0, 1), BuildingBlock: MIFKUJ_clean_linker_0, # of connection points: 2
#     Edge 67, Type (0, 1), BuildingBlock: MIFKUJ_clean_linker_0, # of connection points: 2
# Relax obj value: 0.148
# Max RMSD: 0.246
# Mean RMSD: 0.164
data_MOF--net-soc--node1-ESEHIV_clean_sbu_0--node2-INOVEN_clean_sbu_0--edge1-MIFKUJ_clean_linker_0
_symmetry_space_group_name_H-M    P1
_symmetry_Int_Tables_number       1
_symmetry_cell_setting            triclinic
loop_
_symmetry_equiv_pos_as_xyz
'x, y, z'
_cell_length_a     64.847632
_cell_length_b     62.573388
_cell_length_c     55.388411
_cell_angle_alpha  84.095208
_cell_angle_beta   84.625114
_cell_angle_gamma 73.957173
loop_
_atom_site_label
_atom_site_type_symbol
_atom_site_fract_x
_atom_site_fract_y
_atom_site_fract_z
_atom_type_partial_charge
Cu0 Cu 0.0378 0.02718 0.3401 0.0
N1 N 0.05209 0.04091 0.35899 0.0
N2 N 0.07353 0.06138 0.36715 0.0
C3 C 0.06762 0.05066 0.35015 0.0
C4 C 0.06128 0.05813 0.38754 0.0
C5 C 0.04806 0.04553 0.38245 0.0
O6 O 0.05995 0.00651 0.32086 0.0
C7 C 1.00277 0.06295 0.33701 0.0
O8 O 1.00429 0.058 0.36052 0.0
H9 H 0.07363 0.05084 0.33125 0.0
H10 H 0.03572 0.04101 0.39474 0.0
N11 N 0.02195 0.00974 0.35874 0.0
N12 N 1.00037 0.9871 0.36578 0.0
C13 C 1.00827 1.00073 0.34924 0.0
C14 C 0.02275 1.00162 0.38221 0.0
C15 C 1.00937 0.98771 0.38663 0.0
C16 C 0.07126 0.99036 0.33404 0.0
O17 O 0.06748 0.99004 0.35777 0.0
H18 H 1.00456 1.00388 0.33035 0.0
H19 H 0.03307 0.00464 0.39494 0.0
O20 O 1.01675 0.051 0.3226 0.0
H21 H 0.06147 0.06479 0.40476 0.0
H22 H 1.00724 0.97803 0.40356 0.0
Cu23 Cu 0.03778 0.02195 0.77642 0.0
N24 N 0.02538 0.00644 0.75747 0.0
N25 N 1.00548 0.9852 0.74741 0.0
C26 C 1.01049 0.99552 0.76535 0.0
C27 C 1.0177 0.98974 0.72751 0.0
C28 C 0.02991 1.00293 0.73376 0.0
O29 O 1.0153 0.04107 0.79698 0.0
C30 C 0.07662 0.99057 0.77705 0.0
O31 O 0.07469 0.9969 0.75382 0.0
H32 H 1.00375 0.99488 0.78396 0.0
H33 H 0.04143 0.00935 0.72191 0.0
N34 N 0.05013 0.04183 0.75705 0.0
N35 N 0.07093 0.06494 0.74789 0.0
C36 C 0.06694 0.04819 0.76322 0.0
C37 C 0.04308 0.05503 0.7371 0.0
C38 C 0.05593 0.0694 0.73139 0.0
C39 C 0.99788 0.051 0.78691 0.0
O40 O 0.9956 0.04655 0.76483 0.0
H41 H 0.07526 0.0415 0.77954 0.0
H42 H 0.02907 0.05486 0.72802 0.0
O43 O 0.06141 0.99969 0.7922 0.0
H44 H 1.01767 0.98407 0.7097 0.0
H45 H 0.05402 0.08246 0.7167 0.0
Cu46 Cu 0.28181 0.04908 0.07274 0.0
N47 N 0.25733 0.04348 0.06251 0.0
N48 N 0.23738 0.02346 0.04993 0.0
C49 C 0.25586 0.02294 0.05949 0.0
C50 C 0.22667 0.0452 0.04673 0.0
C51 C 0.23893 0.05756 0.05482 0.0
O52 O 0.29987 0.01912 0.08224 0.0
C53 C 0.28288 0.0855 0.03944 0.0
O54 O 0.26514 0.09412 0.05257 0.0
H55 H 0.26869 0.00792 0.06286 0.0
H56 H 0.23492 0.07553 0.05439 0.0
N57 N 0.2738 0.06566 0.09989 0.0
N58 N 0.27488 0.08534 0.13096 0.0
C59 C 0.28478 0.07763 0.10976 0.0
C60 C 0.25631 0.06608 0.11511 0.0
C61 C 0.25691 0.0782 0.13426 0.0
C62 C 0.30675 0.01299 0.10337 0.0
O63 O 0.30559 0.02817 0.1185 0.0
H64 H 0.30013 0.07976 0.10211 0.0
H65 H 0.24425 0.05763 0.11272 0.0
O66 O 0.29396 0.06575 0.04569 0.0
H67 H 0.21144 0.05166 0.03852 0.0
H68 H 0.24507 0.08139 0.14952 0.0
Cu69 Cu 0.06285 0.29954 0.08904 0.0
N70 N 0.07676 0.31639 0.0666 0.0
N71 N 0.09707 0.3244 0.03378 0.0
C72 C 0.0867 0.30977 0.04511 0.0
C73 C 0.09336 0.34094 0.04885 0.0
C74 C 0.08092 0.33591 0.06908 0.0
O75 O 0.08308 0.28511 0.11419 0.0
C76 C 0.03749 0.29404 0.05509 0.0
O77 O 0.03555 0.31559 0.05345 0.0
H78 H 0.08711 0.29394 0.03856 0.0
H79 H 0.07582 0.34546 0.08481 0.0
N80 N 0.03872 0.31758 0.10526 0.0
N81 N 1.00647 0.32563 0.12568 0.0
C82 C 0.02459 0.30957 0.12036 0.0
C83 C 0.02928 0.33954 0.101 0.0
C84 C 1.00935 0.34454 0.11357 0.0
C85 C 0.10347 0.28069 0.10991 0.0
O86 O 0.11134 0.28168 0.08723 0.0
H87 H 0.02689 0.292 0.12586 0.0
H88 H 0.03576 0.35082 0.08841 0.0
O89 O 0.05048 0.2816 0.07009 0.0
H90 H 0.09942 0.35552 0.04575 0.0
H91 H 0.99757 0.36064 0.1131 0.0
Cu92 Cu 0.79936 0.99246 0.0169 0.0
N93 N 0.81674 0.00787 0.99775 0.0
N94 N 0.82387 0.03573 0.97277 0.0
C95 C 0.80862 0.02597 0.98278 0.0
C96 C 0.84241 0.02316 0.98184 0.0
C97 C 0.83796 0.00593 0.99726 0.0
O98 O 0.7829 0.01377 0.03958 0.0
C99 C 0.79621 0.96997 0.9788 0.0
O100 O 0.81696 0.96756 0.97908 0.0
H101 H 0.7916 0.03246 0.98031 0.0
H102 H 0.84923 0.99343 1.00799 0.0
N103 N 0.81459 0.96753 0.03573 0.0
N104 N 0.81973 0.94009 0.06558 0.0
C105 C 0.8064 0.95931 0.05673 0.0
C106 C 0.83388 0.95304 0.0311 0.0
C107 C 0.83706 0.93601 0.04949 0.0
C108 C 0.79526 0.01869 0.05345 0.0
O109 O 0.81594 0.00867 0.05115 0.0
H110 H 0.79052 0.96685 0.06481 0.0
H111 H 0.84458 0.95437 0.01519 0.0
O112 O 0.78366 0.98149 0.99469 0.0
H113 H 0.858 0.02638 0.97797 0.0
H114 H 0.85088 0.92162 0.05075 0.0
Cu115 Cu 0.02735 0.74509 1.01134 0.0
N116 N 1.01419 0.73292 0.98966 0.0
N117 N 0.99169 0.7301 0.96264 0.0
C118 C 0.99516 0.74228 0.97989 0.0
C119 C 1.00917 0.7124 0.96164 0.0
C120 C 0.023 0.71419 0.97831 0.0
O121 O 1.00433 0.76099 0.03429 0.0
C122 C 0.05869 0.7713 0.9966 0.0
O123 O 0.0575 0.77652 0.01916 0.0
H124 H 0.98451 0.75814 0.98463 0.0
H125 H 0.03868 0.70298 0.98148 0.0
N126 N 0.04552 0.72189 0.02953 0.0
N127 N 0.07248 0.70537 0.05318 0.0
C128 C 0.06523 0.72155 0.03556 0.0
C129 C 0.04023 0.70501 0.04343 0.0
C130 C 0.05682 0.69482 0.05814 0.0
C131 C 1.00721 0.76167 0.0567 0.0
O132 O 0.02695 0.75558 0.06366 0.0
H133 H 0.07328 0.73416 0.02885 0.0
H134 H 0.02477 0.70147 0.04411 0.0
O135 O 0.04595 0.76073 0.99057 0.0
H136 H 1.01186 0.69918 0.9496 0.0
H137 H 0.0568 0.68159 0.07236 0.0
Cu138 Cu 0.53982 0.51597 0.84463 0.0
N139 N 0.55153 0.53282 0.86264 0.0
N140 N 0.57085 0.55508 0.87144 0.0
C141 C 0.56408 0.54604 0.85364 0.0
C142 C 0.56206 0.54743 0.89244 0.0
C143 C 0.55004 0.53377 0.88694 0.0
O144 O 0.56272 0.49816 0.82326 0.0
C145 C 0.50058 0.54716 0.84437 0.0
O146 O 0.50347 0.54244 0.86769 0.0
H147 H 0.56871 0.54837 0.83446 0.0
H148 H 0.54095 0.52508 0.89977 0.0
N149 N 0.5296 0.49533 0.86544 0.0
N150 N 0.51025 0.47154 0.87906 0.0
C151 C 0.51251 0.48803 0.86214 0.0
C152 C 0.53862 0.483 0.885 0.0
C153 C 0.52666 0.46835 0.89352 0.0
C154 C 0.58131 0.49032 0.83153 0.0
O155 O 0.58455 0.49554 0.85295 0.0
H156 H 0.50257 0.49405 0.84691 0.0
H157 H 0.55323 0.48411 0.89211 0.0
O158 O 0.51511 0.53686 0.82922 0.0
H159 H 0.56411 0.55148 0.91044 0.0
H160 H 0.53005 0.45608 0.9089 0.0
Cu161 Cu 0.54367 0.5367 0.25771 0.0
N162 N 0.53144 0.52018 0.23965 0.0
N163 N 0.51148 0.49798 0.23196 0.0
C164 C 0.51583 0.51045 0.24832 0.0
C165 C 0.52487 0.5 0.2122 0.0
C166 C 0.53714 0.51372 0.21698 0.0
O167 O 0.52017 0.55835 0.2742 0.0
C168 C 0.58019 0.50344 0.26414 0.0
O169 O 0.58021 0.50809 0.24047 0.0
H170 H 0.50842 0.51182 0.26664 0.0
H171 H 0.54975 0.51813 0.20502 0.0
N172 N 0.55928 0.55381 0.23818 0.0
N173 N 0.5827 0.57429 0.22909 0.0
C174 C 0.57438 0.56167 0.24646 0.0
C175 C 0.55785 0.56174 0.21469 0.0
C176 C 0.57237 0.57432 0.209 0.0
C177 C 0.50661 0.57016 0.25952 0.0
O178 O 0.50948 0.56583 0.23655 0.0
H179 H 0.57918 0.55803 0.26495 0.0
H180 H 0.5468 0.55894 0.20269 0.0
O181 O 0.56457 0.5147 0.27739 0.0
H182 H 0.52589 0.49198 0.19556 0.0
H183 H 0.57472 0.58323 0.1916 0.0
Cu184 Cu 0.78699 0.55477 0.56756 0.0
N185 N 0.79185 0.57045 0.53767 0.0
N186 N 0.8048 0.58745 0.5046 0.0
C187 C 0.80896 0.57707 0.52701 0.0
C188 C 0.78448 0.58758 0.50124 0.0
C189 C 0.77654 0.57734 0.52161 0.0
O190 O 0.77987 0.57411 0.5945 0.0
C191 C 0.76979 0.5284 0.54429 0.0
O192 O 0.78832 0.52701 0.53187 0.0
H193 H 0.82401 0.57434 0.53536 0.0
H194 H 0.76055 0.57501 0.52459 0.0
N195 N 0.80989 0.53057 0.57647 0.0
N196 N 0.82469 0.49677 0.59441 0.0
C197 C 0.80642 0.51164 0.58761 0.0
C198 C 0.83123 0.5278 0.57625 0.0
C199 C 0.84045 0.50687 0.58742 0.0
C200 C 0.78042 0.59443 0.59203 0.0
O201 O 0.78377 0.60364 0.57015 0.0
H202 H 0.79051 0.50926 0.59163 0.0
H203 H 0.8394 0.54027 0.56914 0.0
O204 O 0.76468 0.54056 0.56221 0.0
H205 H 0.77583 0.5951 0.48534 0.0
H206 H 0.85732 0.4998 0.59039 0.0
Cu207 Cu 0.5661 0.7782 0.57699 0.0
N208 N 0.58735 0.7614 0.55506 0.0
N209 N 0.61276 0.75397 0.52406 0.0
C210 C 0.6007 0.76958 0.53866 0.0
C211 C 0.60682 0.7352 0.53186 0.0
C212 C 0.59123 0.73982 0.55077 0.0
O213 O 0.58133 0.79091 0.59802 0.0
C214 C 0.54164 0.79515 0.53736 0.0
O215 O 0.55256 0.77584 0.52966 0.0
H216 H 0.60087 0.78692 0.53688 0.0
H217 H 0.58286 0.72834 0.56014 0.0
N218 N 0.54962 0.76172 0.59714 0.0
N219 N 0.52206 0.75445 0.62145 0.0
C220 C 0.52955 0.77014 0.60743 0.0
C221 C 0.55506 0.74 0.60525 0.0
C222 C 0.53813 0.73547 0.62 0.0
C223 C 0.59738 0.77687 0.60733 0.0
O224 O 0.60154 0.75589 0.6026 0.0
H225 H 0.52061 0.78748 0.60461 0.0
H226 H 0.57044 0.72832 0.60124 0.0
O227 O 0.54533 0.80042 0.55784 0.0
H228 H 0.61311 0.7192 0.52436 0.0
H229 H 0.53792 0.71951 0.62949 0.0
Cu230 Cu 0.29186 0.50173 0.52146 0.0
N231 N 0.30751 0.52073 0.50512 0.0
N232 N 0.31298 0.55164 0.48414 0.0
C233 C 0.29839 0.54047 0.49309 0.0
C234 C 0.33208 0.53821 0.49096 0.0
C235 C 0.32865 0.51929 0.50395 0.0
O236 O 0.27184 0.52036 0.54385 0.0
C237 C 0.28922 0.48349 0.47891 0.0
O238 O 0.30928 0.48451 0.47613 0.0
H239 H 0.28122 0.54669 0.49162 0.0
H240 H 0.34071 0.50572 0.5123 0.0
N241 N 0.30833 0.4767 0.53952 0.0
N242 N 0.3162 0.44856 0.56877 0.0
C243 C 0.30098 0.46637 0.55976 0.0
C244 C 0.32883 0.46485 0.53524 0.0
C245 C 0.33376 0.44762 0.55324 0.0
C246 C 0.28007 0.5242 0.56237 0.0
O247 O 0.30046 0.51444 0.56551 0.0
H248 H 0.28461 0.47179 0.56743 0.0
H249 H 0.33941 0.46825 0.51995 0.0
O250 O 0.27781 0.49078 0.49783 0.0
H251 H 0.34753 0.54169 0.487 0.0
H252 H 0.34919 0.43544 0.55466 0.0
Cu253 Cu 0.51511 0.25826 0.51863 0.0
N254 N 0.53784 0.2432 0.49792 0.0
N255 N 0.56825 0.23691 0.4739 0.0
C256 C 0.55313 0.25203 0.48632 0.0
C257 C 0.5621 0.21785 0.47774 0.0
C258 C 0.54339 0.22176 0.49261 0.0
O259 O 0.52707 0.2776 0.53606 0.0
C260 C 0.48542 0.25996 0.48469 0.0
O261 O 0.49668 0.23902 0.48479 0.0
H262 H 0.55323 0.26919 0.48727 0.0
H263 H 0.53465 0.20969 0.49935 0.0
N264 N 0.50672 0.23837 0.54248 0.0
N265 N 0.48877 0.22661 0.57526 0.0
C266 C 0.4887 0.24305 0.55743 0.0
C267 C 0.51853 0.21825 0.5511 0.0
C268 C 0.5075 0.21095 0.57131 0.0
C269 C 0.54474 0.2677 0.54576 0.0
O270 O 0.55313 0.24632 0.54343 0.0
H271 H 0.47645 0.25882 0.55615 0.0
H272 H 0.53455 0.20998 0.54404 0.0
O273 O 0.49035 0.27251 0.49878 0.0
H274 H 0.57082 0.202 0.47095 0.0
H275 H 0.51313 0.19564 0.58266 0.0
Gd276 Gd 0.26947 0.27804 0.32193 0.0
Gd277 Gd 0.30166 0.29232 0.28647 0.0
C278 C 0.2996 0.24275 0.28543 0.0
C279 C 0.24004 0.26188 0.34547 0.0
C280 C 0.22873 0.24477 0.34382 0.0
C281 C 0.22009 0.23575 0.36528 0.0
C282 C 0.22619 0.23751 0.3214 0.0
C283 C 0.20553 0.21296 0.34206 0.0
C284 C 0.21466 0.2217 0.32053 0.0
C285 C 0.20865 0.21999 0.36445 0.0
C286 C 0.30488 0.28112 0.34246 0.0
C287 C 0.27021 0.32794 0.32181 0.0
C288 C 0.33224 0.30784 0.26467 0.0
C289 C 0.34505 0.32364 0.26733 0.0
C290 C 0.33585 0.34686 0.26579 0.0
C291 C 0.36729 0.31537 0.26953 0.0
C292 C 0.37121 0.35318 0.26708 0.0
C293 C 0.3802 0.32994 0.26951 0.0
C294 C 0.34881 0.36147 0.26569 0.0
C295 C 0.26632 0.28942 0.26559 0.0
O296 O 0.28139 0.2488 0.29894 0.0
O297 O 0.31237 0.25598 0.28047 0.0
O298 O 0.26041 0.25462 0.34967 0.0
O299 O 0.23586 0.27921 0.32954 0.0
O300 O 0.28554 0.28644 0.35258 0.0
O301 O 0.30493 0.27321 0.3223 0.0
O302 O 0.28899 0.32171 0.30934 0.0
O303 O 0.25752 0.31458 0.32613 0.0
O304 O 0.31195 0.31611 0.26029 0.0
O305 O 0.3357 0.28969 0.27948 0.0
O306 O 0.28557 0.28508 0.25515 0.0
O307 O 0.26623 0.29698 0.28598 0.0
H308 H 0.22207 0.24103 0.38276 0.0
H309 H 0.23288 0.24423 0.30461 0.0
H310 H 0.21247 0.21672 0.30299 0.0
H311 H 0.20224 0.21328 0.38141 0.0
H312 H 0.31876 0.3538 0.26402 0.0
H313 H 0.37481 0.29757 0.2707 0.0
H314 H 0.39732 0.32295 0.27107 0.0
H315 H 0.34134 0.37925 0.2636 0.0
Gd316 Gd 0.79501 0.29022 0.32045 0.0
Gd317 Gd 0.78029 0.26959 0.28215 0.0
C318 C 0.75842 0.26684 0.33724 0.0
C319 C 0.80344 0.31769 0.34747 0.0
C320 C 0.79237 0.33218 0.36686 0.0
C321 C 0.80211 0.3303 0.38884 0.0
C322 C 0.77263 0.34829 0.36359 0.0
C323 C 0.77314 0.361 0.40362 0.0
C324 C 0.76314 0.36258 0.3818 0.0
C325 C 0.79258 0.3445 0.40706 0.0
C326 C 0.81702 0.24673 0.31663 0.0
C327 C 0.81838 0.29135 0.26569 0.0
C328 C 0.76765 0.24379 0.25647 0.0
C329 C 0.77244 0.2277 0.23756 0.0
C330 C 0.76215 0.23375 0.2157 0.0
C331 C 0.78436 0.20544 0.24244 0.0
C332 C 0.77407 0.19528 0.20485 0.0
C333 C 0.78519 0.18943 0.22624 0.0
C334 C 0.76301 0.21776 0.19948 0.0
C335 C 0.75807 0.31297 0.28695 0.0
O336 O 0.76601 0.28348 0.34137 0.0
O337 O 0.76409 0.25699 0.31674 0.0
O338 O 0.80795 0.29615 0.35313 0.0
O339 O 0.79686 0.32345 0.32549 0.0
O340 O 0.8119 0.25607 0.33698 0.0
O341 O 0.81116 0.26108 0.29921 0.0
O342 O 0.80977 0.27549 0.26109 0.0
O343 O 0.81301 0.30119 0.28629 0.0
O344 O 0.76611 0.2648 0.24976 0.0
O345 O 0.77584 0.23729 0.27756 0.0
O346 O 0.76359 0.30419 0.26636 0.0
O347 O 0.76401 0.29821 0.3039 0.0
H348 H 0.81734 0.31807 0.39175 0.0
H349 H 0.76464 0.35008 0.34689 0.0
H350 H 0.74803 0.37494 0.37879 0.0
H351 H 0.8008 0.34304 0.42355 0.0
H352 H 0.75264 0.25072 0.21158 0.0
H353 H 0.79228 0.20015 0.25926 0.0
H354 H 0.79371 0.17225 0.23109 0.0
H355 H 0.75458 0.22294 0.18299 0.0
Gd356 Gd 0.80611 0.74146 0.28269 0.0
Gd357 Gd 0.81045 0.78573 0.2975 0.0
C358 C 0.77251 0.76713 0.32487 0.0
C359 C 0.80172 0.70183 0.28049 0.0
C360 C 0.78393 0.69259 0.276 0.0
C361 C 0.77004 0.70227 0.25746 0.0
C362 C 0.78064 0.67395 0.29054 0.0
C363 C 0.7501 0.67446 0.26776 0.0
C364 C 0.76383 0.66499 0.28653 0.0
C365 C 0.75337 0.69322 0.25331 0.0
C366 C 0.78594 0.77788 0.25444 0.0
C367 C 0.8433 0.76042 0.25458 0.0
C368 C 0.81329 0.8259 0.30002 0.0
C369 C 0.82952 0.83651 0.30597 0.0
C370 C 0.82279 0.85665 0.31705 0.0
C371 C 0.85159 0.82663 0.30126 0.0
C372 C 0.85996 0.85734 0.31828 0.0
C373 C 0.86672 0.83709 0.3072 0.0
C374 C 0.83788 0.86696 0.32326 0.0
C375 C 0.83237 0.74947 0.32468 0.0
O376 O 0.78228 0.748 0.31552 0.0
O377 O 0.77838 0.78552 0.31746 0.0
O378 O 0.80907 0.71309 0.26209 0.0
O379 O 0.7999 0.71116 0.30093 0.0
O380 O 0.79274 0.75793 0.24734 0.0
O381 O 0.78719 0.77683 0.27712 0.0
O382 O 0.83317 0.77962 0.26367 0.0
O383 O 0.83825 0.74172 0.26292 0.0
O384 O 0.80579 0.81449 0.3181 0.0
O385 O 0.81696 0.81595 0.2798 0.0
O386 O 0.82518 0.76919 0.33227 0.0
O387 O 0.83008 0.75043 0.30225 0.0
H388 H 0.77204 0.71685 0.24616 0.0
H389 H 0.79111 0.66628 0.30498 0.0
H390 H 0.7618 0.65044 0.29785 0.0
H391 H 0.74288 0.70106 0.23895 0.0
H392 H 0.80582 0.86444 0.32089 0.0
H393 H 0.8571 0.81096 0.29287 0.0
H394 H 0.88367 0.82933 0.30327 0.0
H395 H 0.83227 0.88265 0.33159 0.0
Gd396 Gd 0.27928 0.77896 0.2791 0.0
Gd397 Gd 0.3089 0.79784 0.30842 0.0
C398 C 0.3056 0.81351 0.25195 0.0
C399 C 0.24487 0.77559 0.26167 0.0
C400 C 0.23519 0.77024 0.24095 0.0
C401 C 0.24723 0.75584 0.2238 0.0
C402 C 0.21288 0.7783 0.23972 0.0
C403 C 0.21429 0.7562 0.20571 0.0
C404 C 0.20251 0.77133 0.22232 0.0
C405 C 0.23682 0.74895 0.20615 0.0
C406 C 0.32079 0.75364 0.2741 0.0
C407 C 0.29003 0.7573 0.33325 0.0
C408 C 0.33342 0.80968 0.33541 0.0
C409 C 0.34654 0.80563 0.35658 0.0
C410 C 0.34045 0.82085 0.37455 0.0
C411 C 0.36611 0.78899 0.35781 0.0
C412 C 0.37405 0.80419 0.39365 0.0
C413 C 0.37972 0.78822 0.37628 0.0
C414 C 0.35401 0.82017 0.39285 0.0
C415 C 0.26845 0.82354 0.30182 0.0
O416 O 0.28886 0.80507 0.25202 0.0
O417 O 0.31799 0.80969 0.27049 0.0
O418 O 0.25809 0.75901 0.27355 0.0
O419 O 0.25057 0.79427 0.25969 0.0
O420 O 0.30526 0.75024 0.26307 0.0
O421 O 0.31324 0.77066 0.28562 0.0
O422 O 0.3056 0.76736 0.33243 0.0
O423 O 0.27565 0.76215 0.31665 0.0
O424 O 0.31253 0.81383 0.33978 0.0
O425 O 0.34086 0.79887 0.31591 0.0
O426 O 0.28514 0.83119 0.30034 0.0
O427 O 0.27382 0.80278 0.30714 0.0
H428 H 0.2645 0.74942 0.22453 0.0
H429 H 0.20336 0.78945 0.25281 0.0
H430 H 0.18517 0.77745 0.22213 0.0
H431 H 0.24625 0.73728 0.19354 0.0
H432 H 0.32557 0.83405 0.37378 0.0
H433 H 0.37122 0.77707 0.34413 0.0
H434 H 0.39492 0.7755 0.37659 0.0
H435 H 0.34921 0.83296 0.40559 0.0
Gd436 Gd 0.29922 0.77489 0.82678 0.0
Gd437 Gd 0.27875 0.76161 0.78956 0.0
C438 C 0.25497 0.76395 0.84397 0.0
C439 C 0.31478 0.79652 0.8544 0.0
C440 C 0.30471 0.81247 0.8725 0.0
C441 C 0.31654 0.81527 0.89125 0.0
C442 C 0.28302 0.82459 0.87151 0.0
C443 C 0.28526 0.84266 0.90759 0.0
C444 C 0.27341 0.83966 0.88883 0.0
C445 C 0.30689 0.83022 0.90873 0.0
C446 C 0.31301 0.72995 0.8231 0.0
C447 C 0.32355 0.77123 0.77246 0.0
C448 C 0.25893 0.74351 0.7625 0.0
C449 C 0.26146 0.72952 0.74219 0.0
C450 C 0.24392 0.73249 0.72808 0.0
C451 C 0.28036 0.71266 0.73743 0.0
C452 C 0.26342 0.70083 0.70559 0.0
C453 C 0.28133 0.69839 0.71923 0.0
C454 C 0.24486 0.7183 0.70995 0.0
C455 C 0.26508 0.80647 0.79444 0.0
O456 O 0.26748 0.77644 0.84796 0.0
O457 O 0.25839 0.75375 0.82362 0.0
O458 O 0.31365 0.77607 0.8602 0.0
O459 O 0.31056 0.80342 0.83182 0.0
O460 O 0.30899 0.73941 0.84338 0.0
O461 O 0.30959 0.74479 0.80567 0.0
O462 O 0.31065 0.75914 0.76833 0.0
O463 O 0.3203 0.78155 0.79276 0.0
O464 O 0.2616 0.76344 0.75732 0.0
O465 O 0.26679 0.73385 0.78301 0.0
O466 O 0.27009 0.79761 0.77386 0.0
O467 O 0.26822 0.79112 0.81126 0.0
H468 H 0.33325 0.80592 0.89235 0.0
H469 H 0.27355 0.8224 0.85731 0.0
H470 H 0.25666 0.84884 0.88768 0.0
H471 H 0.31644 0.83237 0.92287 0.0
H472 H 0.22919 0.74543 0.73158 0.0
H473 H 0.29413 0.71024 0.74809 0.0
H474 H 0.29595 0.68525 0.71609 0.0
H475 H 0.23069 0.72047 0.70006 0.0
Gd476 Gd 0.28374 0.25047 0.79234 0.0
Gd477 Gd 0.30259 0.28526 0.81525 0.0
C478 C 0.25423 0.28307 0.83197 0.0
C479 C 0.26669 0.22047 0.78121 0.0
C480 C 0.24835 0.21074 0.78706 0.0
C481 C 0.23238 0.21523 0.7704 0.0
C482 C 0.24735 0.19568 0.80754 0.0
C483 C 0.21504 0.18928 0.7939 0.0
C484 C 0.2308 0.18502 0.81091 0.0
C485 C 0.21592 0.2047 0.77379 0.0
C486 C 0.2865 0.28738 0.76375 0.0
C487 C 0.33287 0.24984 0.77874 0.0
C488 C 0.31425 0.32053 0.82076 0.0
C489 C 0.33269 0.32771 0.82737 0.0
C490 C 0.33824 0.32562 0.85162 0.0
C491 C 0.3438 0.33858 0.8094 0.0
C492 C 0.36464 0.34651 0.83993 0.0
C493 C 0.35956 0.34796 0.81561 0.0
C494 C 0.35417 0.33484 0.85781 0.0
C495 C 0.31034 0.24531 0.84269 0.0
O496 O 0.25748 0.26464 0.82065 0.0
O497 O 0.26809 0.29532 0.82969 0.0
O498 O 0.26213 0.24096 0.7711 0.0
O499 O 0.28193 0.21614 0.79649 0.0
O500 O 0.28977 0.26783 0.75593 0.0
O501 O 0.28091 0.28681 0.78627 0.0
O502 O 0.3292 0.26923 0.78833 0.0
O503 O 0.31893 0.23761 0.78159 0.0
O504 O 0.30393 0.31077 0.83804 0.0
O505 O 0.31626 0.31187 0.79978 0.0
O506 O 0.31728 0.26182 0.84776 0.0
O507 O 0.3011 0.25117 0.82332 0.0
H508 H 0.23296 0.22643 0.75422 0.0
H509 H 0.25954 0.19178 0.82061 0.0
H510 H 0.23047 0.17324 0.8266 0.0
H511 H 0.20437 0.20797 0.76003 0.0
H512 H 0.32992 0.3174 0.86592 0.0
H513 H 0.33992 0.34029 0.79058 0.0
H514 H 0.36758 0.35662 0.80143 0.0
H515 H 0.3577 0.3336 0.87672 0.0
Gd516 Gd 0.78092 0.27214 0.78001 0.0
Gd517 Gd 0.81204 0.28523 0.81088 0.0
C518 C 0.80729 0.30798 0.75726 0.0
C519 C 0.75074 0.2687 0.75405 0.0
C520 C 0.73491 0.27701 0.73506 0.0
C521 C 0.73825 0.26631 0.71337 0.0
C522 C 0.71514 0.29292 0.73956 0.0
C523 C 0.70207 0.28623 0.70163 0.0
C524 C 0.69897 0.29753 0.72302 0.0
C525 C 0.72214 0.27083 0.69693 0.0
C526 C 0.81972 0.24191 0.78299 0.0
C527 C 0.7892 0.24648 0.8324 0.0
C528 C 0.84069 0.28941 0.83865 0.0
C529 C 0.85513 0.28023 0.85887 0.0
C530 C 0.84889 0.28772 0.88223 0.0
C531 C 0.87632 0.26698 0.85442 0.0
C532 C 0.88509 0.27071 0.89553 0.0
C533 C 0.8911 0.26222 0.87257 0.0
C534 C 0.86362 0.28299 0.90029 0.0
C535 C 0.77272 0.31492 0.8074 0.0
O536 O 0.78978 0.30096 0.7571 0.0
O537 O 0.8206 0.30127 0.77487 0.0
O538 O 0.77126 0.26221 0.74728 0.0
O539 O 0.74695 0.27714 0.77523 0.0
O540 O 0.80188 0.23703 0.7808 0.0
O541 O 0.81666 0.26288 0.78134 0.0
O542 O 0.80556 0.25518 0.83262 0.0
O543 O 0.7751 0.25296 0.8155 0.0
O544 O 0.81992 0.296 0.844 0.0
O545 O 0.84557 0.28109 0.81744 0.0
O546 O 0.79047 0.32038 0.80828 0.0
O547 O 0.77634 0.29395 0.80986 0.0
H548 H 0.75307 0.25361 0.70956 0.0
H549 H 0.71189 0.30134 0.75621 0.0
H550 H 0.68391 0.30973 0.72721 0.0
H551 H 0.72517 0.26143 0.68102 0.0
H552 H 0.83282 0.29815 0.8863 0.0
H553 H 0.8818 0.26112 0.83659 0.0
H554 H 0.90752 0.25284 0.86819 0.0
H555 H 0.85831 0.28953 0.91785 0.0
Gd556 Gd 0.76484 0.77173 0.81334 0.0
Gd557 Gd 0.79577 0.78514 0.77583 0.0
C558 C 0.79098 0.73668 0.77403 0.0
C559 C 0.73492 0.75812 0.83923 0.0
C560 C 0.72373 0.74061 0.84039 0.0
C561 C 0.71755 0.73163 0.86325 0.0
C562 C 0.71932 0.73258 0.81926 0.0
C563 C 0.7022 0.70696 0.84401 0.0
C564 C 0.70854 0.71593 0.82109 0.0
C565 C 0.70691 0.7149 0.86508 0.0
C566 C 0.803 0.76996 0.8305 0.0
C567 C 0.77083 0.81956 0.81564 0.0
C568 C 0.82494 0.79996 0.7499 0.0
C569 C 0.83772 0.81573 0.75126 0.0
C570 C 0.85052 0.82043 0.73076 0.0
C571 C 0.83713 0.82631 0.77254 0.0
C572 C 0.86254 0.84597 0.75279 0.0
C573 C 0.84937 0.84144 0.77326 0.0
C574 C 0.86283 0.8354 0.73148 0.0
C575 C 0.7574 0.78673 0.75925 0.0
O576 O 0.7738 0.74271 0.78928 0.0
O577 O 0.80421 0.74934 0.76845 0.0
O578 O 0.75517 0.75142 0.84394 0.0
O579 O 0.73108 0.77361 0.82117 0.0
O580 O 0.78457 0.7762 0.84256 0.0
O581 O 0.80071 0.76377 0.8101 0.0
O582 O 0.7885 0.8124 0.80156 0.0
O583 O 0.75652 0.80799 0.81991 0.0
O584 O 0.80432 0.80873 0.74805 0.0
O585 O 0.82934 0.78196 0.76488 0.0
O586 O 0.77569 0.78003 0.74708 0.0
O587 O 0.75998 0.79331 0.77926 0.0
H588 H 0.72089 0.73764 0.87974 0.0
H589 H 0.72415 0.73916 0.80141 0.0
H590 H 0.70528 0.70998 0.80462 0.0
H591 H 0.70202 0.70847 0.88296 0.0
H592 H 0.851 0.81249 0.71414 0.0
H593 H 0.82731 0.8228 0.78855 0.0
H594 H 0.84882 0.84926 0.78994 0.0
H595 H 0.87246 0.83884 0.71525 0.0
H596 H 0.10815 0.05702 0.33467 0.0
H597 H 0.13176 0.08188 0.32703 0.0
H598 H 0.09573 0.12206 0.38361 0.0
H599 H 0.07189 0.09759 0.39099 0.0
H600 H 0.1026 0.1473 0.34176 0.0
H601 H 0.14442 0.08669 0.39329 0.0
H602 H 0.16283 0.04732 0.40457 0.0
H603 H 0.20334 0.04484 0.33842 0.0
H604 H 0.18496 0.08413 0.3266 0.0
H605 H 0.16803 0.21248 0.36866 0.0
H606 H 0.14701 0.18564 0.3692 0.0
H607 H 0.19143 0.15083 0.3141 0.0
H608 H 0.21314 0.17734 0.31409 0.0
H609 H 0.18139 0.12194 0.34983 0.0
H610 H 0.14218 0.18284 0.29943 0.0
H611 H 0.124 0.22206 0.28722 0.0
H612 H 0.07868 0.22385 0.34919 0.0
H613 H 0.09678 0.18473 0.36198 0.0
C614 C 0.10525 0.07117 0.34544 0.0
C615 C 0.08814 0.0753 0.36345 0.0
C616 C 0.11884 0.08527 0.34117 0.0
C617 C 0.11555 0.10377 0.35483 0.0
C618 C 0.09856 0.10787 0.37287 0.0
C619 C 0.08506 0.09374 0.37723 0.0
C620 C 0.12948 0.1192 0.35011 0.0
C621 C 0.1198 0.14181 0.34374 0.0
C622 C 0.15203 0.11185 0.35178 0.0
C623 C 0.16315 0.08827 0.35894 0.0
C624 C 0.15713 0.0777 0.38106 0.0
C625 C 0.16758 0.05541 0.38757 0.0
C626 C 0.1842 0.04356 0.37218 0.0
C627 C 0.19044 0.05402 0.3503 0.0
C628 C 0.18002 0.0763 0.34369 0.0
C629 C 0.17347 0.19904 0.35676 0.0
C630 C 0.19235 0.19701 0.34142 0.0
C631 C 0.16128 0.18383 0.35689 0.0
C632 C 0.16748 0.16636 0.34149 0.0
C633 C 0.1863 0.16424 0.32608 0.0
C634 C 0.19858 0.1795 0.32595 0.0
C635 C 0.15441 0.15018 0.34207 0.0
C636 C 0.16423 0.12743 0.34759 0.0
C637 C 0.13198 0.15735 0.33943 0.0
C638 C 0.12095 0.18088 0.33175 0.0
C639 C 0.12843 0.19164 0.31055 0.0
C640 C 0.11812 0.21385 0.30351 0.0
C641 C 0.10022 0.22545 0.31744 0.0
C642 C 0.09256 0.21485 0.33842 0.0
C643 C 0.10282 0.19264 0.34556 0.0
H644 H 0.09226 0.24265 0.31196 0.0
H645 H 0.19227 0.02631 0.37725 0.0
H646 H 0.97459 0.09232 0.36501 0.0
H647 H 0.94299 0.12136 0.35336 0.0
H648 H 0.95723 0.10598 0.27851 0.0
H649 H 0.9895 0.07628 0.29018 0.0
H650 H 0.9425 0.15424 0.2868 0.0
H651 H 0.91969 0.08796 0.3053 0.0
H652 H 0.91775 0.05283 0.32883 0.0
H653 H 0.88896 0.08894 0.39079 0.0
H654 H 0.89104 0.12426 0.36777 0.0
H655 H 0.83619 0.22847 0.2745 0.0
H656 H 0.86687 0.19541 0.2704 0.0
H657 H 0.86754 0.18485 0.34858 0.0
H658 H 0.8368 0.21753 0.35272 0.0
H659 H 0.87375 0.14628 0.32907 0.0
H660 H 0.90168 0.21132 0.31236 0.0
H661 H 0.90392 0.24665 0.28943 0.0
H662 H 0.92321 0.21295 0.22394 0.0
H663 H 0.92068 0.17746 0.24642 0.0
C664 C 0.97123 0.095 0.34598 0.0
C665 C 0.98455 0.0817 0.32857 0.0
C666 C 0.95306 0.11173 0.33936 0.0
C667 C 0.94755 0.11568 0.31514 0.0
C668 C 0.96117 0.10314 0.29735 0.0
C669 C 0.97955 0.08617 0.30403 0.0
C670 C 0.92694 0.13234 0.30938 0.0
C671 C 0.92734 0.15232 0.29548 0.0
C672 C 0.90719 0.12994 0.32094 0.0
C673 C 0.90561 0.10877 0.33481 0.0
C674 C 0.91306 0.0884 0.32399 0.0
C675 C 0.91192 0.06845 0.33723 0.0
C676 C 0.90325 0.06865 0.3613 0.0
C677 C 0.89566 0.08881 0.37215 0.0
C678 C 0.89678 0.10881 0.35899 0.0
C679 C 0.84278 0.21893 0.29079 0.0
C680 C 0.83419 0.22567 0.31395 0.0
C681 C 0.86039 0.20012 0.28842 0.0
C682 C 0.86977 0.18777 0.30917 0.0
C683 C 0.86066 0.19408 0.33228 0.0
C684 C 0.84308 0.21281 0.33464 0.0
C685 C 0.88936 0.16856 0.30724 0.0
C686 C 0.88875 0.14807 0.3198 0.0
C687 C 0.90883 0.17055 0.2944 0.0
C688 C 0.91071 0.1918 0.281 0.0
C689 C 0.90624 0.21147 0.29303 0.0
C690 C 0.90757 0.23152 0.28012 0.0
C691 C 0.9136 0.23206 0.25523 0.0
C692 C 0.91845 0.21252 0.24321 0.0
C693 C 0.91707 0.19243 0.25603 0.0
H694 H 0.91457 0.24761 0.24527 0.0
H695 H 0.9024 0.05319 0.37153 0.0
H696 H 0.97385 0.97077 0.39898 0.0
H697 H 0.95078 0.94743 0.39158 0.0
H698 H 0.97237 0.94927 0.31553 0.0
H699 H 0.99556 0.97232 0.32277 0.0
H700 H 0.92964 0.95648 0.32112 0.0
H701 H 0.99099 0.90318 0.35297 0.0
H702 H 1.0186 0.88665 0.38223 0.0
H703 H 0.96949 0.87948 0.43764 0.0
H704 H 0.94154 0.89628 0.40878 0.0
H705 H 0.89238 0.86731 0.2883 0.0
H706 H 0.91705 0.88851 0.29728 0.0
H707 H 0.88777 0.89438 0.37035 0.0
H708 H 0.86293 0.87337 0.36139 0.0
H709 H 0.93429 0.88287 0.36657 0.0
H710 H 0.87301 0.93668 0.3334 0.0
H711 H 0.84625 0.95216 0.30294 0.0
H712 H 0.89675 0.95724 0.24852 0.0
H713 H 0.92385 0.94142 0.27859 0.0
C714 C 0.97382 0.96607 0.38073 0.0
C715 C 0.98656 0.9735 0.36149 0.0
C716 C 0.96061 0.95274 0.37651 0.0
C717 C 0.95998 0.94648 0.35302 0.0
C718 C 0.97255 0.95398 0.33378 0.0
C719 C 0.98574 0.96727 0.33797 0.0
C720 C 0.94607 0.93229 0.34837 0.0
C721 C 0.93086 0.94027 0.33086 0.0
C722 C 0.94741 0.91129 0.36135 0.0
C723 C 0.96416 0.90123 0.37878 0.0
C724 C 0.98606 0.89827 0.37146 0.0
C725 C 1.00178 0.88881 0.38796 0.0
C726 C 0.9958 0.88208 0.4118 0.0
C727 C 0.97409 0.88474 0.41918 0.0
C728 C 0.95831 0.89422 0.40275 0.0
C729 C 0.89141 0.87292 0.30634 0.0
C730 C 0.87578 0.8688 0.32416 0.0
C731 C 0.9054 0.88507 0.31141 0.0
C732 C 0.90411 0.89306 0.33443 0.0
C733 C 0.88898 0.88833 0.35249 0.0
C734 C 0.87478 0.87647 0.34733 0.0
C735 C 0.91799 0.9071 0.33935 0.0
C736 C 0.93314 0.89909 0.35689 0.0
C737 C 0.91674 0.92799 0.32626 0.0
C738 C 0.90047 0.93763 0.30818 0.0
C739 C 0.87842 0.9409 0.31488 0.0
C740 C 0.86319 0.94977 0.2977 0.0
C741 C 0.8698 0.95562 0.27379 0.0
C742 C 0.89166 0.95266 0.26703 0.0
C743 C 0.90696 0.94375 0.28414 0.0
H744 H 0.85798 0.9625 0.26051 0.0
H745 H 1.00799 0.87475 0.42455 0.0
H746 H 0.08224 0.94765 0.35282 0.0
H747 H 0.1137 0.91786 0.3416 0.0
H748 H 0.1312 0.96099 0.28209 0.0
H749 H 0.09901 0.99107 0.29305 0.0
H750 H 0.14096 0.91644 0.27069 0.0
H751 H 0.15413 0.95628 0.33422 0.0
H752 H 0.14661 0.97344 0.37335 0.0
H753 H 0.14947 0.90945 0.41141 0.0
H754 H 0.1567 0.89194 0.37245 0.0
H755 H 0.25634 0.86356 0.27575 0.0
H756 H 0.22031 0.88962 0.27518 0.0
H757 H 0.19484 0.84239 0.32233 0.0
H758 H 0.23081 0.81585 0.3222 0.0
H759 H 0.18921 0.88903 0.33824 0.0
H760 H 0.17883 0.84901 0.27347 0.0
H761 H 0.18656 0.83282 0.23385 0.0
H762 H 0.17911 0.89815 0.19729 0.0
H763 H 0.17218 0.91468 0.23674 0.0
C764 C 0.09256 0.95074 0.33707 0.0
C765 C 0.08833 0.97178 0.32398 0.0
C766 C 0.11058 0.93367 0.3307 0.0
C767 C 0.12512 0.93731 0.31138 0.0
C768 C 0.12025 0.95785 0.29717 0.0
C769 C 0.10189 0.975 0.3034 0.0
C770 C 0.14607 0.92023 0.30766 0.0
C771 C 0.15168 0.91065 0.2853 0.0
C772 C 0.15993 0.91241 0.32689 0.0
C773 C 0.15577 0.92284 0.35039 0.0
C774 C 0.15301 0.94589 0.35092 0.0
C775 C 0.14881 0.95568 0.37307 0.0
C776 C 0.14751 0.94255 0.39485 0.0
C777 C 0.15046 0.9196 0.39452 0.0
C778 C 0.15463 0.90973 0.37241 0.0
C779 C 0.24296 0.85858 0.28561 0.0
C780 C 0.24631 0.83778 0.29915 0.0
C781 C 0.22241 0.87343 0.28519 0.0
C782 C 0.20494 0.86793 0.29871 0.0
C783 C 0.20813 0.84688 0.31169 0.0
C784 C 0.22862 0.83175 0.31159 0.0
C785 C 0.18402 0.88506 0.30137 0.0
C786 C 0.1785 0.89478 0.32358 0.0
C787 C 0.1705 0.89309 0.28191 0.0
C788 C 0.1753 0.88308 0.25816 0.0
C789 C 0.17927 0.85991 0.25704 0.0
C790 C 0.18346 0.85066 0.23458 0.0
C791 C 0.18342 0.86443 0.21307 0.0
C792 C 0.17922 0.88748 0.21397 0.0
C793 C 0.17524 0.8968 0.23639 0.0
H794 H 0.18659 0.85725 0.19569 0.0
H795 H 0.14426 0.95016 0.41198 0.0
H796 H 0.08464 0.96544 0.82128 0.0
H797 H 0.11643 0.93411 0.83017 0.0
H798 H 0.14434 0.94495 0.75772 0.0
H799 H 0.11313 0.97564 0.74879 0.0
H800 H 0.14472 0.90168 0.7684 0.0
H801 H 0.16485 0.95928 0.80837 0.0
H802 H 0.15739 0.98729 0.83863 0.0
H803 H 0.15037 0.9373 0.89562 0.0
H804 H 0.15809 0.90899 0.86575 0.0
H805 H 0.25127 0.84002 0.7592 0.0
H806 H 0.21944 0.87187 0.76187 0.0
H807 H 0.20807 0.85242 0.83786 0.0
H808 H 0.24016 0.82086 0.83542 0.0
H809 H 0.19596 0.8964 0.8313 0.0
H810 H 0.18133 0.83773 0.79418 0.0
H811 H 0.18686 0.80859 0.76566 0.0
H812 H 0.17939 0.85841 0.70534 0.0
H813 H 0.17414 0.88784 0.73351 0.0
C814 C 0.09769 0.96124 0.80741 0.0
C815 C 0.09619 0.97295 0.78426 0.0
C816 C 0.11586 0.94335 0.81249 0.0
C817 C 0.13278 0.93706 0.79453 0.0
C818 C 0.13147 0.94927 0.7718 0.0
C819 C 0.11351 0.96691 0.76675 0.0
C820 C 0.15163 0.9173 0.79841 0.0
C821 C 0.156 0.90063 0.78205 0.0
C822 C 0.16588 0.91528 0.81687 0.0
C823 C 0.16197 0.93209 0.83487 0.0
C824 C 0.16178 0.95429 0.82738 0.0
C825 C 0.15757 0.97019 0.84447 0.0
C826 C 0.15351 0.96406 0.86906 0.0
C827 C 0.15374 0.94199 0.87662 0.0
C828 C 0.15811 0.926 0.85964 0.0
C829 C 0.24221 0.84276 0.77657 0.0
C830 C 0.24812 0.82776 0.79699 0.0
C831 C 0.2239 0.8609 0.77807 0.0
C832 C 0.21086 0.86421 0.79991 0.0
C833 C 0.2176 0.85012 0.82074 0.0
C834 C 0.23603 0.83207 0.81931 0.0
C835 C 0.18963 0.88143 0.80037 0.0
C836 C 0.18468 0.89737 0.81769 0.0
C837 C 0.17454 0.88261 0.78301 0.0
C838 C 0.17748 0.86499 0.76597 0.0
C839 C 0.18098 0.84247 0.77484 0.0
C840 C 0.18406 0.8259 0.75873 0.0
C841 C 0.18351 0.83164 0.7337 0.0
C842 C 0.17982 0.85398 0.72474 0.0
C843 C 0.17677 0.87062 0.74077 0.0
H844 H 0.18591 0.81879 0.72125 0.0
H845 H 0.15015 0.9764 0.88226 0.0
H846 H 0.1097 0.04833 0.76641 0.0
H847 H 0.13404 0.06944 0.77596 0.0
H848 H 0.09116 0.13018 0.74621 0.0
H849 H 0.06681 0.10903 0.73646 0.0
H850 H 0.13224 0.1291 0.7334 0.0
H851 H 0.09123 0.11672 0.80761 0.0
H852 H 0.07625 0.09424 0.84016 0.0
H853 H 0.14005 0.05768 0.85833 0.0
H854 H 0.15543 0.07977 0.82565 0.0
H855 H 0.17247 0.20536 0.78548 0.0
H856 H 0.14747 0.1836 0.78003 0.0
H857 H 0.19524 0.12294 0.80075 0.0
H858 H 0.22059 0.14457 0.80576 0.0
H859 H 0.15187 0.1239 0.81877 0.0
H860 H 0.19258 0.13643 0.74397 0.0
H861 H 0.20717 0.1595 0.71173 0.0
H862 H 0.14308 0.19638 0.69497 0.0
H863 H 0.1281 0.17376 0.72744 0.0
C864 C 0.10552 0.06617 0.76184 0.0
C865 C 0.08627 0.07707 0.75092 0.0
C866 C 0.1194 0.07822 0.76734 0.0
C867 C 0.11417 0.10145 0.76228 0.0
C868 C 0.09544 0.11227 0.75039 0.0
C869 C 0.08159 0.10017 0.74472 0.0
C870 C 0.12805 0.11447 0.76985 0.0
C871 C 0.13628 0.12818 0.75212 0.0
C872 C 0.13367 0.11293 0.79422 0.0
C873 C 0.12448 0.09976 0.81403 0.0
C874 C 0.10207 0.10379 0.81844 0.0
C875 C 0.0935 0.09113 0.83693 0.0
C876 C 0.10719 0.07451 0.85127 0.0
C877 C 0.12947 0.07055 0.84719 0.0
C878 C 0.13812 0.08315 0.8287 0.0
C879 C 0.17758 0.18741 0.78917 0.0
C880 C 0.19862 0.17664 0.79564 0.0
C881 C 0.16326 0.17503 0.78612 0.0
C882 C 0.16969 0.15169 0.78959 0.0
C883 C 0.19005 0.14097 0.79793 0.0
C884 C 0.20447 0.15335 0.80087 0.0
C885 C 0.15589 0.13852 0.78234 0.0
C886 C 0.14775 0.12479 0.80009 0.0
C887 C 0.15026 0.14009 0.75802 0.0
C888 C 0.15922 0.15355 0.73831 0.0
C889 C 0.1816 0.14958 0.73355 0.0
C890 C 0.18994 0.16256 0.71522 0.0
C891 C 0.17606 0.17944 0.70135 0.0
C892 C 0.15381 0.18333 0.70576 0.0
C893 C 0.14539 0.17043 0.72412 0.0
H894 H 0.18255 0.18947 0.68716 0.0
H895 H 0.10053 0.06472 0.86557 0.0
H896 H 0.95501 0.05696 0.78939 0.0
H897 H 0.92729 0.09189 0.79473 0.0
H898 H 0.97544 0.12303 0.81091 0.0
H899 H 1.00332 0.08756 0.80631 0.0
H900 H 0.93444 0.14107 0.83577 0.0
H901 H 0.96384 0.12792 0.75484 0.0
H902 H 0.97616 0.10595 0.71921 0.0
H903 H 0.9121 0.10075 0.71403 0.0
H904 H 0.89946 0.12235 0.74992 0.0
H905 H 0.85984 0.24696 0.79016 0.0
H906 H 0.89327 0.21689 0.79607 0.0
H907 H 0.85917 0.16796 0.78877 0.0
H908 H 0.82609 0.19746 0.78355 0.0
H909 H 0.89806 0.16336 0.75856 0.0
H910 H 0.86998 0.17538 0.84233 0.0
H911 H 0.85862 0.19871 0.877 0.0
H912 H 0.92177 0.20845 0.87512 0.0
H913 H 0.93336 0.1856 0.84008 0.0
C914 C 0.95957 0.07099 0.79508 0.0
C915 C 0.98126 0.06956 0.79753 0.0
C916 C 0.94374 0.09101 0.79797 0.0
C917 C 0.94932 0.11027 0.80267 0.0
C918 C 0.97074 0.10843 0.80724 0.0
C919 C 0.98665 0.08814 0.80473 0.0
C920 C 0.93328 0.13245 0.79933 0.0
C921 C 0.92672 0.14614 0.81878 0.0
C922 C 0.92331 0.13929 0.77707 0.0
C923 C 0.93073 0.12664 0.75518 0.0
C924 C 0.9524 0.12198 0.74619 0.0
C925 C 0.95944 0.10959 0.72595 0.0
C926 C 0.94493 0.10193 0.71438 0.0
C927 C 0.92332 0.10669 0.72301 0.0
C928 C 0.91621 0.11902 0.7433 0.0
C929 C 0.85953 0.22978 0.79002 0.0
C930 C 0.84034 0.22461 0.78638 0.0
C931 C 0.87859 0.21264 0.79339 0.0
C932 C 0.87868 0.19017 0.79284 0.0
C933 C 0.85951 0.18514 0.7892 0.0
C934 C 0.84058 0.20209 0.78619 0.0
C935 C 0.89861 0.17155 0.79523 0.0
C936 C 0.90599 0.1585 0.77545 0.0
C937 C 0.9094 0.16562 0.81702 0.0
C938 C 0.90248 0.179 0.83838 0.0
C939 C 0.88139 0.18267 0.84915 0.0
C940 C 0.8749 0.1958 0.8689 0.0
C941 C 0.88944 0.20513 0.87822 0.0
C942 C 0.9105 0.20128 0.86786 0.0
C943 C 0.91704 0.18825 0.84805 0.0
H944 H 0.88439 0.2153 0.8935 0.0
H945 H 0.95041 0.09234 0.69872 0.0
H946 H 1.00932 0.9482 0.72443 0.0
H947 H 0.98362 0.92578 0.72699 0.0
H948 H 0.94156 0.97005 0.77655 0.0
H949 H 0.96772 0.99206 0.77462 0.0
H950 H 0.94162 0.92915 0.79125 0.0
H951 H 0.93205 0.97236 0.71486 0.0
H952 H 0.94304 0.98793 0.67455 0.0
H953 H 0.96721 0.92191 0.65063 0.0
H954 H 0.95662 0.90591 0.69091 0.0
H955 H 0.85249 0.88579 0.77388 0.0
H956 H 0.87535 0.91104 0.77439 0.0
H957 H 0.92629 0.86616 0.73392 0.0
H958 H 0.90383 0.84071 0.73373 0.0
H959 H 0.91869 0.9102 0.71502 0.0
H960 H 0.92863 0.8676 0.7932 0.0
H961 H 0.91507 0.85323 0.83288 0.0
H962 H 0.88745 0.92023 0.85288 0.0
H963 H 0.90053 0.93501 0.81311 0.0
C964 C 0.99455 0.95315 0.73578 0.0
C965 C 0.99041 0.97193 0.74917 0.0
C966 C 0.97984 0.94039 0.73722 0.0
C967 C 0.96039 0.94648 0.75157 0.0
C968 C 0.9564 0.96504 0.76531 0.0
C969 C 0.97132 0.9776 0.7642 0.0
C970 C 0.94426 0.93353 0.75203 0.0
C971 C 0.93637 0.92532 0.77457 0.0
C972 C 0.93743 0.92835 0.7303 0.0
C973 C 0.94368 0.93793 0.70597 0.0
C974 C 0.93983 0.96115 0.70105 0.0
C975 C 0.94597 0.97006 0.6782 0.0
C976 C 0.95585 0.95592 0.66005 0.0
C977 C 0.95956 0.93284 0.6647 0.0
C978 C 0.95347 0.92385 0.68753 0.0
C979 C 0.86863 0.8812 0.7653 0.0
C980 C 0.87628 0.86131 0.7536 0.0
C981 C 0.88163 0.89568 0.76553 0.0
C982 C 0.90249 0.89044 0.75415 0.0
C983 C 0.91017 0.87058 0.7426 0.0
C984 C 0.89726 0.85611 0.74243 0.0
C985 C 0.91648 0.90556 0.75412 0.0
C986 C 0.92388 0.91421 0.73166 0.0
C987 C 0.92262 0.91132 0.77588 0.0
C988 C 0.91541 0.90242 0.8001 0.0
C989 C 0.91958 0.87927 0.80601 0.0
C990 C 0.91198 0.87105 0.82852 0.0
C991 C 0.90037 0.88581 0.84537 0.0
C992 C 0.89643 0.90882 0.83979 0.0
C993 C 0.90395 0.91713 0.81728 0.0
H994 H 0.89447 0.87942 0.86277 0.0
H995 H 0.96061 0.96285 0.64238 0.0
H996 H 0.26766 0.08403 0.17991 0.0
H997 H 0.27715 0.10745 0.20728 0.0
H998 H 0.30833 0.13827 0.14676 0.0
H999 H 0.29887 0.11471 0.11916 0.0
H1000 H 0.3305 0.13125 0.1893 0.0
H1001 H 0.25853 0.16064 0.16467 0.0
H1002 H 0.22221 0.15781 0.1593 0.0
H1003 H 0.2099 0.1498 0.23676 0.0
H1004 H 0.24681 0.15089 0.24259 0.0
H1005 H 0.32403 0.23269 0.243 0.0
H1006 H 0.32455 0.20263 0.21786 0.0
H1007 H 0.28466 0.17659 0.27344 0.0
H1008 H 0.28345 0.20705 0.2982 0.0
H1009 H 0.26789 0.18097 0.23248 0.0
H1010 H 0.33934 0.14899 0.25804 0.0
H1011 H 0.37664 0.14822 0.26458 0.0
H1012 H 0.38933 0.16117 0.18777 0.0
H1013 H 0.352 0.16231 0.1808 0.0
C1014 C 0.27656 0.09575 0.17239 0.0
C1015 C 0.28215 0.09782 0.14728 0.0
C1016 C 0.28212 0.109 0.1881 0.0
C1017 C 0.29316 0.12484 0.179 0.0
C1018 C 0.29979 0.12616 0.15414 0.0
C1019 C 0.29434 0.11275 0.1384 0.0
C1020 C 0.296 0.14125 0.19507 0.0
C1021 C 0.31684 0.14229 0.1986 0.0
C1022 C 0.27814 0.15537 0.2075 0.0
C1023 C 0.25562 0.15554 0.20405 0.0
C1024 C 0.24822 0.15798 0.18058 0.0
C1025 C 0.22751 0.15662 0.17745 0.0
C1026 C 0.21367 0.15378 0.19768 0.0
C1027 C 0.22063 0.15201 0.2211 0.0
C1028 C 0.24153 0.15279 0.22432 0.0
C1029 C 0.31584 0.22022 0.25013 0.0
C1030 C 0.30367 0.22225 0.27257 0.0
C1031 C 0.31616 0.203 0.23572 0.0
C1032 C 0.30468 0.18725 0.24372 0.0
C1033 C 0.29355 0.18858 0.26678 0.0
C1034 C 0.29295 0.20595 0.28099 0.0
C1035 C 0.30248 0.17071 0.22731 0.0
C1036 C 0.28165 0.16983 0.22343 0.0
C1037 C 0.32035 0.15665 0.21479 0.0
C1038 C 0.34281 0.15595 0.21893 0.0
C1039 C 0.35003 0.15185 0.24257 0.0
C1040 C 0.37119 0.15131 0.24634 0.0
C1041 C 0.38533 0.1547 0.22661 0.0
C1042 C 0.37835 0.15858 0.20304 0.0
C1043 C 0.3572 0.15915 0.19916 0.0
H1044 H 0.40171 0.15428 0.22958 0.0
H1045 H 0.19756 0.15294 0.19519 0.0
H1046 H 1.00379 0.29774 0.16575 0.0
H1047 H 0.97099 0.29194 0.18784 0.0
H1048 H 0.93266 0.33974 0.13662 0.0
H1049 H 0.96543 0.34613 0.11519 0.0
H1050 H 0.91491 0.34692 0.17884 0.0
H1051 H 0.94264 0.28047 0.137 0.0
H1052 H 0.96918 0.24607 0.1247 0.0
H1053 H 0.97111 0.21876 0.19904 0.0
H1054 H 0.94497 0.25312 0.21189 0.0
H1055 H 0.83332 0.27566 0.22112 0.0
H1056 H 0.8641 0.28205 0.19523 0.0
H1057 H 0.87534 0.32327 0.24771 0.0
H1058 H 0.84433 0.31751 0.27327 0.0
H1059 H 0.90503 0.27148 0.20179 0.0
H1060 H 0.89747 0.36288 0.22074 0.0
H1061 H 0.86907 0.39696 0.23011 0.0
H1062 H 0.82366 0.3742 0.19502 0.0
H1063 H 0.85184 0.34013 0.18516 0.0
C1064 C 0.98833 0.30697 0.15927 0.0
C1065 C 0.98714 0.32245 0.13885 0.0
C1066 C 0.96958 0.30356 0.17179 0.0
C1067 C 0.94924 0.31513 0.16374 0.0
C1068 C 0.94809 0.33063 0.1433 0.0
C1069 C 0.96682 0.33433 0.13107 0.0
C1070 C 0.92914 0.31161 0.17693 0.0
C1071 C 0.9128 0.33039 0.18378 0.0
C1072 C 0.92608 0.29008 0.18317 0.0
C1073 C 0.94199 0.26949 0.17544 0.0
C1074 C 0.94888 0.26722 0.15076 0.0
C1075 C 0.96383 0.24772 0.14368 0.0
C1076 C 0.97185 0.23029 0.16107 0.0
C1077 C 0.96492 0.2323 0.18559 0.0
C1078 C 0.95005 0.25178 0.19278 0.0
C1079 C 0.84219 0.2863 0.22701 0.0
C1080 C 0.83622 0.29621 0.2492 0.0
C1081 C 0.85987 0.28985 0.21224 0.0
C1082 C 0.87196 0.30334 0.21934 0.0
C1083 C 0.86605 0.31318 0.24153 0.0
C1084 C 0.84828 0.30981 0.25619 0.0
C1085 C 0.89104 0.30675 0.20387 0.0
C1086 C 0.90718 0.28798 0.19671 0.0
C1087 C 0.89374 0.32828 0.19686 0.0
C1088 C 0.87673 0.34886 0.20241 0.0
C1089 C 0.88145 0.3652 0.21493 0.0
C1090 C 0.86538 0.3845 0.22034 0.0
C1091 C 0.84456 0.38771 0.21323 0.0
C1092 C 0.83977 0.37166 0.2006 0.0
C1093 C 0.85578 0.35233 0.19512 0.0
H1094 H 0.83215 0.40266 0.21746 0.0
H1095 H 0.98339 0.2152 0.15553 0.0
H1096 H 0.83193 0.89495 0.0713 0.0
H1097 H 0.82243 0.87124 0.1062 0.0
H1098 H 0.78795 0.92975 0.14248 0.0
H1099 H 0.79734 0.95357 0.10753 0.0
H1100 H 0.81637 0.89421 0.17222 0.0
H1101 H 0.75856 0.90599 0.1195 0.0
H1102 H 0.74365 0.90679 0.07996 0.0
H1103 H 0.77416 0.83679 0.07673 0.0
H1104 H 0.78953 0.83564 0.1161 0.0
H1105 H 0.77571 0.82223 0.26399 0.0
H1106 H 0.7781 0.85408 0.2348 0.0
H1107 H 0.79851 0.80952 0.17741 0.0
H1108 H 0.79577 0.77824 0.20598 0.0
H1109 H 0.77156 0.84389 0.16067 0.0
H1110 H 0.83536 0.83317 0.20691 0.0
H1111 H 0.85635 0.83303 0.24203 0.0
H1112 H 0.81815 0.89909 0.25546 0.0
H1113 H 0.79706 0.89974 0.2204 0.0
C1114 C 0.82253 0.90275 0.08681 0.0
C1115 C 0.81531 0.92611 0.08667 0.0
C1116 C 0.81699 0.88921 0.10665 0.0
C1117 C 0.80432 0.89879 0.12678 0.0
C1118 C 0.79765 0.92208 0.12705 0.0
C1119 C 0.80293 0.93563 0.10707 0.0
C1120 C 0.79784 0.88436 0.14733 0.0
C1121 C 0.80626 0.88344 0.16991 0.0
C1122 C 0.78485 0.87022 0.14413 0.0
C1123 C 0.77528 0.87077 0.12069 0.0
C1124 C 0.76219 0.8908 0.1103 0.0
C1125 C 0.75364 0.8913 0.08792 0.0
C1126 C 0.75798 0.87186 0.07582 0.0
C1127 C 0.77081 0.85184 0.08612 0.0
C1128 C 0.77942 0.85124 0.10849 0.0
C1129 C 0.7806 0.81939 0.24509 0.0
C1130 C 0.78559 0.79775 0.2373 0.0
C1131 C 0.78213 0.83753 0.22846 0.0
C1132 C 0.78878 0.83423 0.20384 0.0
C1133 C 0.79337 0.81262 0.1962 0.0
C1134 C 0.79174 0.79468 0.21263 0.0
C1135 C 0.79086 0.8529 0.18558 0.0
C1136 C 0.7814 0.85483 0.16331 0.0
C1137 C 0.80319 0.86772 0.18897 0.0
C1138 C 0.81449 0.86639 0.21128 0.0
C1139 C 0.83123 0.8475 0.21762 0.0
C1140 C 0.84321 0.84739 0.23738 0.0
C1141 C 0.83857 0.86603 0.25088 0.0
C1142 C 0.82173 0.88469 0.24494 0.0
C1143 C 0.80979 0.88496 0.22514 0.0
H1144 H 0.84812 0.86613 0.26581 0.0
H1145 H 0.75137 0.87229 0.05848 0.0
H1146 H 0.11029 0.71384 0.03702 0.0
H1147 H 0.13785 0.71812 0.06209 0.0
H1148 H 0.10254 0.69864 0.12659 0.0
H1149 H 0.07489 0.69457 0.10166 0.0
H1150 H 0.11135 0.73916 0.12842 0.0
H1151 H 0.1499 0.6648 0.10837 0.0
H1152 H 0.16629 0.63556 0.08038 0.0
H1153 H 0.20826 0.67418 0.04699 0.0
H1154 H 0.19192 0.7038 0.07459 0.0
H1155 H 0.18031 0.73889 0.21748 0.0
H1156 H 0.15941 0.72639 0.19018 0.0
H1157 H 0.20095 0.74096 0.12889 0.0
H1158 H 0.22236 0.75308 0.15646 0.0
H1159 H 0.18995 0.70335 0.12364 0.0
H1160 H 0.15246 0.77748 0.14158 0.0
H1161 H 0.13605 0.80842 0.16743 0.0
H1162 H 0.09178 0.77285 0.20169 0.0
H1163 H 0.10815 0.74152 0.17629 0.0
C1164 C 0.10864 0.71008 0.05651 0.0
C1165 C 0.0904 0.70394 0.06737 0.0
C1166 C 0.12443 0.71243 0.07079 0.0
C1167 C 0.12222 0.70871 0.09621 0.0
C1168 C 0.10455 0.70157 0.107 0.0
C1169 C 0.08884 0.69906 0.09271 0.0
C1170 C 0.13712 0.71435 0.11168 0.0
C1171 C 0.12849 0.73106 0.12768 0.0
C1172 C 0.15959 0.70448 0.10986 0.0
C1173 C 0.16955 0.68661 0.09341 0.0
C1174 C 0.16251 0.66714 0.09494 0.0
C1175 C 0.17182 0.65048 0.07917 0.0
C1176 C 0.18827 0.65304 0.06188 0.0
C1177 C 0.1955 0.67223 0.06038 0.0
C1178 C 0.18625 0.68894 0.0761 0.0
C1179 C 0.18502 0.73939 0.19819 0.0
C1180 C 0.20273 0.74728 0.189 0.0
C1181 C 0.17308 0.73224 0.1826 0.0
C1182 C 0.17831 0.73321 0.15741 0.0
C1183 C 0.19656 0.74018 0.14825 0.0
C1184 C 0.20873 0.74712 0.16396 0.0
C1185 C 0.16408 0.72782 0.14079 0.0
C1186 C 0.17281 0.71137 0.12445 0.0
C1187 C 0.14166 0.73818 0.14195 0.0
C1188 C 0.13167 0.75705 0.15718 0.0
C1189 C 0.13933 0.77618 0.15475 0.0
C1190 C 0.13002 0.7938 0.16931 0.0
C1191 C 0.11291 0.79258 0.18623 0.0
C1192 C 0.10505 0.77376 0.18859 0.0
C1193 C 0.11433 0.75607 0.17411 0.0
H1194 H 0.10573 0.80625 0.19748 0.0
H1195 H 0.19545 0.64013 0.04968 0.0
H1196 H 0.2429 0.98241 0.07268 0.0
H1197 H 0.24316 0.94858 0.05386 0.0
H1198 H 0.2232 0.98827 0.9874 0.0
H1199 H 0.22215 0.02215 1.0066 0.0
H1200 H 0.20774 0.95195 0.9931 0.0
H1201 H 0.27675 0.96741 0.99827 0.0
H1202 H 0.30495 0.97459 0.02073 0.0
H1203 H 0.31214 0.91147 0.06232 0.0
H1204 H 0.28374 0.90406 0.04032 0.0
H1205 H 0.26086 0.88536 0.89863 0.0
H1206 H 0.24626 0.91334 0.92784 0.0
H1207 H 0.27236 0.86518 0.9863 0.0
H1208 H 0.28739 0.8372 0.95698 0.0
H1209 H 0.28214 0.90229 0.98968 0.0
H1210 H 0.21718 0.88404 0.97871 0.0
H1211 H 0.18932 0.87719 0.95549 0.0
H1212 H 0.17438 0.94505 0.92457 0.0
H1213 H 0.2024 0.95218 0.9472 0.0
C1214 C 0.23792 0.98387 0.05431 0.0
C1215 C 0.23274 0.00472 0.04093 0.0
C1216 C 0.23812 0.9646 0.04356 0.0
C1217 C 0.23377 0.96587 0.01902 0.0
C1218 C 0.22671 0.9869 1.00633 0.0
C1219 C 0.2261 0.00624 0.01727 0.0
C1220 C 0.23948 0.94548 1.00562 0.0
C1221 C 0.22398 0.94106 0.99228 0.0
C1222 C 0.2606 0.93104 1.005 0.0
C1223 C 0.27802 0.93527 0.01781 0.0
C1224 C 0.2843 0.9551 1.01226 0.0
C1225 C 0.30031 0.95921 0.0249 0.0
C1226 C 0.31033 0.94349 0.04293 0.0
C1227 C 0.30437 0.92362 0.04833 0.0
C1228 C 0.28833 0.91945 0.03579 0.0
C1229 C 0.26319 0.88065 0.91776 0.0
C1230 C 0.27527 0.85913 0.92555 0.0
C1231 C 0.25477 0.89663 0.93446 0.0
C1232 C 0.25794 0.89129 0.95934 0.0
C1233 C 0.26968 0.86966 0.96721 0.0
C1234 C 0.2783 0.85373 0.95046 0.0
C1235 C 0.25047 0.90878 0.97677 0.0
C1236 C 0.26572 0.91277 0.99083 0.0
C1237 C 0.22915 0.92277 0.97797 0.0
C1238 C 0.21202 0.91861 0.96457 0.0
C1239 C 0.20805 0.89747 0.96683 0.0
C1240 C 0.19222 0.89352 0.95377 0.0
C1241 C 0.18011 0.91064 0.9385 0.0
C1242 C 0.18377 0.93177 0.93634 0.0
C1243 C 0.19962 0.93578 0.94932 0.0
H1244 H 0.16788 0.90753 0.9284 0.0
H1245 H 0.32273 0.94669 0.05268 0.0
H1246 H 0.09636 0.29836 0.99755 0.0
H1247 H 0.12068 0.29238 0.96101 0.0
H1248 H 0.15274 0.3388 0.9819 0.0
H1249 H 0.12881 0.3446 0.01873 0.0
H1250 H 0.14542 0.34494 0.93307 0.0
H1251 H 0.175 0.28396 0.99141 0.0
H1252 H 0.17413 0.25164 0.0206 0.0
H1253 H 0.15902 0.21752 0.96405 0.0
H1254 H 0.15949 0.24979 0.93458 0.0
H1255 H 0.24425 0.3168 0.86243 0.0
H1256 H 0.21494 0.32485 0.89383 0.0
H1257 H 0.19117 0.27214 0.87248 0.0
H1258 H 0.22091 0.26352 0.8413 0.0
H1259 H 0.19207 0.26903 0.9198 0.0
H1260 H 0.16455 0.32869 0.86065 0.0
H1261 H 0.16518 0.36088 0.83119 0.0
H1262 H 0.17567 0.39742 0.88827 0.0
H1263 H 0.1754 0.36532 0.91804 0.0
C1264 C 0.10864 0.30723 0.99456 0.0
C1265 C 0.11064 0.32184 1.01139 0.0
C1266 C 0.1225 0.30383 0.97354 0.0
C1267 C 0.13868 0.31497 0.96883 0.0
C1268 C 0.14035 0.33005 0.98514 0.0
C1269 C 0.12656 0.33339 1.00623 0.0
C1270 C 0.1542 0.31054 0.94721 0.0
C1271 C 0.15577 0.32839 0.93025 0.0
C1272 C 0.16727 0.28883 0.94318 0.0
C1273 C 0.16704 0.26939 0.96086 0.0
C1274 C 0.1713 0.26964 0.98525 0.0
C1275 C 0.17092 0.25132 1.00183 0.0
C1276 C 0.16646 0.23256 0.9942 0.0
C1277 C 0.16243 0.23207 0.96995 0.0
C1278 C 0.16276 0.25037 0.95329 0.0
C1279 C 0.23266 0.30707 0.86411 0.0
C1280 C 0.23499 0.28951 0.84922 0.0
C1281 C 0.21579 0.31178 0.88209 0.0
C1282 C 0.20062 0.29929 0.88543 0.0
C1283 C 0.20263 0.28204 0.87027 0.0
C1284 C 0.21962 0.27719 0.85236 0.0
C1285 C 0.18345 0.30348 0.9056 0.0
C1286 C 0.18159 0.28557 0.92238 0.0
C1287 C 0.17003 0.32513 0.90938 0.0
C1288 C 0.17012 0.34452 0.89155 0.0
C1289 C 0.16715 0.34353 0.8669 0.0
C1290 C 0.16742 0.36177 0.85014 0.0
C1291 C 0.17051 0.38116 0.85784 0.0
C1292 C 0.17329 0.38238 0.88233 0.0
C1293 C 0.17305 0.36417 0.89916 0.0
H1294 H 0.17072 0.39527 0.84484 0.0
H1295 H 0.16618 0.21839 1.00707 0.0
H1296 H 0.79212 0.05271 0.94203 0.0
H1297 H 0.78429 0.08903 0.91881 0.0
H1298 H 0.83978 0.10203 0.94523 0.0
H1299 H 0.84736 0.06592 0.96911 0.0
H1300 H 0.8048 0.13732 0.94903 0.0
H1301 H 0.84013 0.08893 0.88681 0.0
H1302 H 0.8461 0.05686 0.86212 0.0
H1303 H 0.78266 0.0828 0.83685 0.0
H1304 H 0.77621 0.11489 0.86165 0.0
H1305 H 0.81652 0.22824 0.86815 0.0
H1306 H 0.81968 0.19314 0.89255 0.0
H1307 H 0.76474 0.18436 0.86053 0.0
H1308 H 0.76174 0.21952 0.83529 0.0
H1309 H 0.79685 0.1472 0.86005 0.0
H1310 H 0.76202 0.1966 0.9207 0.0
H1311 H 0.75608 0.22877 0.94521 0.0
H1312 H 0.81816 0.20113 0.97352 0.0
H1313 H 0.82461 0.16892 0.94892 0.0
C1314 C 0.80266 0.06329 0.94295 0.0
C1315 C 0.82033 0.0564 0.95754 0.0
C1316 C 0.79826 0.08399 0.92948 0.0
C1317 C 0.81151 0.09822 0.93015 0.0
C1318 C 0.82934 0.09131 0.94443 0.0
C1319 C 0.83377 0.07056 0.9579 0.0
C1320 C 0.80639 0.12059 0.91655 0.0
C1321 C 0.80332 0.13948 0.92953 0.0
C1322 C 0.80374 0.12345 0.89123 0.0
C1323 C 0.80761 0.10419 0.87629 0.0
C1324 C 0.82739 0.0877 0.87615 0.0
C1325 C 0.83088 0.06954 0.8621 0.0
C1326 C 0.81475 0.06776 0.84798 0.0
C1327 C 0.79513 0.08418 0.84783 0.0
C1328 C 0.79155 0.10237 0.86186 0.0
C1329 C 0.80482 0.21913 0.86646 0.0
C1330 C 0.7888 0.22682 0.84971 0.0
C1331 C 0.80664 0.199 0.88058 0.0
C1332 C 0.79233 0.18616 0.87861 0.0
C1333 C 0.77595 0.19402 0.8624 0.0
C1334 C 0.77416 0.2142 0.8481 0.0
C1335 C 0.79544 0.16397 0.89249 0.0
C1336 C 0.79815 0.14509 0.87959 0.0
C1337 C 0.79771 0.16112 0.9179 0.0
C1338 C 0.79385 0.18041 0.93283 0.0
C1339 C 0.77447 0.19745 0.93203 0.0
C1340 C 0.771 0.21568 0.94596 0.0
C1341 C 0.78675 0.21701 0.96088 0.0
C1342 C 0.80598 0.20008 0.96194 0.0
C1343 C 0.80954 0.18182 0.94804 0.0
H1344 H 0.78403 0.23115 0.97164 0.0
H1345 H 0.81748 0.05369 0.83712 0.0
H1346 H 0.95036 0.75162 0.97528 0.0
H1347 H 0.91949 0.75944 0.95022 0.0
H1348 H 0.96111 0.72835 0.89097 0.0
H1349 H 0.99202 0.72049 0.91596 0.0
H1350 H 0.93043 0.76988 0.87682 0.0
H1351 H 0.93284 0.69926 0.92221 0.0
H1352 H 0.93441 0.67382 0.95948 0.0
H1353 H 0.87507 0.71598 0.98843 0.0
H1354 H 0.87331 0.74185 0.95146 0.0
H1355 H 0.84441 0.7555 0.80985 0.0
H1356 H 0.87807 0.75059 0.82972 0.0
H1357 H 0.84135 0.77489 0.89508 0.0
H1358 H 0.80806 0.77996 0.87548 0.0
H1359 H 0.87101 0.73552 0.9044 0.0
H1360 H 0.8683 0.80685 0.86288 0.0
H1361 H 0.86669 0.83583 0.8289 0.0
H1362 H 0.92477 0.79581 0.79489 0.0
H1363 H 0.92674 0.76654 0.82875 0.0
C1364 C 0.95295 0.74663 0.95686 0.0
C1365 C 0.9736 0.73531 0.94767 0.0
C1366 C 0.93531 0.75102 0.94259 0.0
C1367 C 0.938 0.74437 0.91876 0.0
C1368 C 0.95867 0.73361 0.9093 0.0
C1369 C 0.97627 0.72895 0.92368 0.0
C1370 C 0.91909 0.74793 0.90411 0.0
C1371 C 0.91758 0.76209 0.88257 0.0
C1372 C 0.9021 0.73822 0.91199 0.0
C1373 C 0.90305 0.72259 0.93416 0.0
C1374 C 0.92021 0.7032 0.93661 0.0
C1375 C 0.92112 0.68868 0.95766 0.0
C1376 C 0.90488 0.6933 0.97634 0.0
C1377 C 0.88766 0.71243 0.97396 0.0
C1378 C 0.88669 0.72701 0.95295 0.0
C1379 C 0.84361 0.75994 0.82837 0.0
C1380 C 0.82362 0.76787 0.8412 0.0
C1381 C 0.86281 0.75722 0.83967 0.0
C1382 C 0.86221 0.7623 0.86394 0.0
C1383 C 0.84223 0.77073 0.87642 0.0
C1384 C 0.82319 0.7736 0.86516 0.0
C1385 C 0.88216 0.75765 0.8771 0.0
C1386 C 0.88391 0.74319 0.89842 0.0
C1387 C 0.89916 0.76737 0.86917 0.0
C1388 C 0.8975 0.78436 0.84818 0.0
C1389 C 0.88056 0.80407 0.84798 0.0
C1390 C 0.87963 0.8206 0.8288 0.0
C1391 C 0.89556 0.81762 0.80968 0.0
C1392 C 0.91242 0.79807 0.80969 0.0
C1393 C 0.91347 0.78152 0.8289 0.0
H1394 H 0.89494 0.83051 0.79497 0.0
H1395 H 0.90561 0.68205 0.99263 0.0
H1396 H 0.14737 0.26916 0.10635 0.0
H1397 H 0.17164 0.26897 0.13741 0.0
H1398 H 0.11771 0.28647 0.19011 0.0
H1399 H 0.09306 0.28703 0.15875 0.0
H1400 H 0.14609 0.31163 0.19268 0.0
H1401 H 0.15158 0.23373 0.19449 0.0
H1402 H 0.15487 0.19942 0.17444 0.0
H1403 H 0.21688 0.20216 0.14172 0.0
H1404 H 0.21394 0.23654 0.16153 0.0
H1405 H 0.22341 0.29886 0.28273 0.0
H1406 H 0.193 0.29492 0.26167 0.0
H1407 H 0.23639 0.27133 0.20024 0.0
H1408 H 0.26652 0.27464 0.22131 0.0
H1409 H 0.20939 0.24722 0.2079 0.0
H1410 H 0.20224 0.32681 0.20228 0.0
H1411 H 0.19777 0.36307 0.21881 0.0
H1412 H 0.13843 0.35809 0.25732 0.0
H1413 H 0.1427 0.32165 0.24122 0.0
C1414 C 0.14057 0.27272 0.12459 0.0
C1415 C 0.11816 0.27797 0.12996 0.0
C1416 C 0.15456 0.27258 0.14244 0.0
C1417 C 0.14665 0.27752 0.16631 0.0
C1418 C 0.12429 0.28256 0.17189 0.0
C1419 C 0.1102 0.28267 0.15396 0.0
C1420 C 0.16192 0.27774 0.185 0.0
C1421 C 0.15968 0.29738 0.19643 0.0
C1422 C 0.17987 0.25932 0.18979 0.0
C1423 C 0.18247 0.23777 0.17935 0.0
C1424 C 0.16594 0.22697 0.18306 0.0
C1425 C 0.16772 0.20755 0.17171 0.0
C1426 C 0.18597 0.19875 0.15664 0.0
C1427 C 0.20269 0.20909 0.15329 0.0
C1428 C 0.20104 0.22847 0.16469 0.0
C1429 C 0.22639 0.2928 0.26476 0.0
C1430 C 0.24739 0.28725 0.25365 0.0
C1431 C 0.20898 0.29062 0.25265 0.0
C1432 C 0.21221 0.28303 0.22909 0.0
C1433 C 0.23328 0.27718 0.21832 0.0
C1434 C 0.25057 0.27923 0.23039 0.0
C1435 C 0.19395 0.28137 0.21518 0.0
C1436 C 0.19562 0.26139 0.2046 0.0
C1437 C 0.1755 0.29952 0.21119 0.0
C1438 C 0.17291 0.32141 0.2208 0.0
C1439 C 0.18832 0.33338 0.21442 0.0
C1440 C 0.18581 0.35397 0.22368 0.0
C1441 C 0.16786 0.36285 0.23917 0.0
C1442 C 0.15235 0.35117 0.24536 0.0
C1443 C 0.1548 0.33056 0.23617 0.0
H1444 H 0.16595 0.37879 0.24632 0.0
H1445 H 0.18718 0.18386 0.14764 0.0
H1446 H 0.07154 0.75363 0.95252 0.0
H1447 H 0.10436 0.7537 0.92694 0.0
H1448 H 0.12138 0.79428 0.97596 0.0
H1449 H 0.08857 0.79412 1.00189 0.0
H1450 H 0.12991 0.80753 0.92637 0.0
H1451 H 0.14546 0.74101 0.98011 0.0
H1452 H 0.13944 0.70614 1.00058 0.0
H1453 H 0.14453 0.67902 0.93145 0.0
H1454 H 0.15036 0.71386 0.91053 0.0
H1455 H 0.24033 0.78759 0.8841 0.0
H1456 H 0.20695 0.79005 0.90947 0.0
H1457 H 0.19103 0.7439 0.86651 0.0
H1458 H 0.22458 0.74118 0.84114 0.0
H1459 H 0.18187 0.7341 0.91368 0.0
H1460 H 0.16667 0.80087 0.85987 0.0
H1461 H 0.17226 0.83603 0.83965 0.0
H1462 H 0.16652 0.86299 0.90893 0.0
H1463 H 0.1611 0.82789 0.92963 0.0
C1464 C 0.08205 0.76286 0.95778 0.0
C1465 C 0.07729 0.77385 0.97941 0.0
C1466 C 0.10094 0.76278 0.94313 0.0
C1467 C 0.11557 0.7738 0.94956 0.0
C1468 C 0.11043 0.78562 0.97055 0.0
C1469 C 0.09162 0.7855 0.9854 0.0
C1470 C 0.13657 0.77207 0.93496 0.0
C1471 C 0.1414 0.7915 0.92386 0.0
C1472 C 0.1515 0.75116 0.93124 0.0
C1473 C 0.14813 0.73013 0.94374 0.0
C1474 C 0.14512 0.72768 0.96926 0.0
C1475 C 0.14177 0.70791 0.98095 0.0
C1476 C 0.14152 0.69041 0.96732 0.0
C1477 C 0.14469 0.69261 0.94198 0.0
C1478 C 0.14805 0.71236 0.93019 0.0
C1479 C 0.22985 0.77779 0.8801 0.0
C1480 C 0.23528 0.76414 0.86048 0.0
C1481 C 0.2106 0.77938 0.89457 0.0
C1482 C 0.19614 0.76744 0.88981 0.0
C1483 C 0.20178 0.75337 0.87061 0.0
C1484 C 0.22103 0.75182 0.85607 0.0
C1485 C 0.17525 0.76957 0.90485 0.0
C1486 C 0.17043 0.75017 0.91611 0.0
C1487 C 0.16037 0.79054 0.90871 0.0
C1488 C 0.16368 0.81165 0.89633 0.0
C1489 C 0.16676 0.81423 0.87082 0.0
C1490 C 0.16985 0.83416 0.85926 0.0
C1491 C 0.16978 0.8517 0.87299 0.0
C1492 C 0.16658 0.84937 0.89832 0.0
C1493 C 0.16347 0.82947 0.90998 0.0
H1494 H 0.17218 0.8671 0.86399 0.0
H1495 H 0.13891 0.67512 0.9764 0.0
H1496 H 0.32287 0.08362 0.01616 0.0
H1497 H 0.33106 0.10702 0.97987 0.0
H1498 H 0.26342 0.13906 0.9752 0.0
H1499 H 0.25523 0.11646 1.01153 0.0
H1500 H 0.28855 0.12496 0.92861 0.0
H1501 H 0.28785 0.1662 0.99922 0.0
H1502 H 0.30044 0.17018 0.03876 0.0
H1503 H 0.36514 0.15902 1.00697 0.0
H1504 H 0.35294 0.15465 0.9673 0.0
H1505 H 0.27864 0.22412 0.85137 0.0
H1506 H 0.27672 0.19397 0.88246 0.0
H1507 H 0.34113 0.18971 0.90087 0.0
H1508 H 0.34198 0.22148 0.87141 0.0
H1509 H 0.32151 0.1857 0.93952 0.0
H1510 H 0.32355 0.14853 0.86788 0.0
H1511 H 0.31275 0.14319 0.82788 0.0
H1512 H 0.2497 0.14311 0.85935 0.0
H1513 H 0.25997 0.14887 0.89944 0.0
C1514 C 0.30979 0.09558 1.00727 0.0
C1515 C 0.28843 0.09831 0.01682 0.0
C1516 C 0.31447 0.10891 0.98657 0.0
C1517 C 0.29782 0.12476 0.9748 0.0
C1518 C 0.2765 0.12691 0.98389 0.0
C1519 C 0.27188 0.11405 1.00479 0.0
C1520 C 0.30236 0.14007 0.95381 0.0
C1521 C 0.29576 0.13828 0.93086 0.0
C1522 C 0.31227 0.15704 0.95664 0.0
C1523 C 0.31953 0.15983 0.98041 0.0
C1524 C 0.30479 0.16439 1.00073 0.0
C1525 C 0.31184 0.16676 0.02314 0.0
C1526 C 0.33359 0.16478 0.0254 0.0
C1527 C 0.34831 0.1605 1.00521 0.0
C1528 C 0.34133 0.15808 0.98277 0.0
C1529 C 0.29247 0.21649 0.86187 0.0
C1530 C 0.31053 0.22496 0.85891 0.0
C1531 C 0.29148 0.19905 0.87959 0.0
C1532 C 0.30898 0.1889 0.89395 0.0
C1533 C 0.32732 0.19707 0.89029 0.0
C1534 C 0.32792 0.21513 0.87328 0.0
C1535 C 0.30769 0.17087 0.91375 0.0
C1536 C 0.31475 0.17218 0.93672 0.0
C1537 C 0.29864 0.15313 0.9107 0.0
C1538 C 0.29251 0.14928 0.88666 0.0
C1539 C 0.30735 0.14748 0.86625 0.0
C1540 C 0.30131 0.14439 0.84355 0.0
C1541 C 0.28054 0.14286 0.84106 0.0
C1542 C 0.26577 0.14433 0.86129 0.0
C1543 C 0.2717 0.14749 0.88402 0.0
H1544 H 0.27587 0.14053 0.82346 0.0
H1545 H 0.33902 0.16662 0.04276 0.0
H1546 H 1.0048 0.31935 0.02912 0.0
H1547 H 0.98084 0.30781 1.00546 0.0
H1548 H 1.01341 0.23879 0.02336 0.0
H1549 H 0.03795 0.25036 0.04779 0.0
H1550 H 1.00356 0.25212 0.97099 0.0
H1551 H 0.96794 0.255 0.05053 0.0
H1552 H 0.95491 0.27151 0.08949 0.0
H1553 H 0.91427 0.32888 0.05196 0.0
H1554 H 0.92735 0.31295 1.01267 0.0
H1555 H 0.91741 0.23353 0.90946 0.0
H1556 H 0.94417 0.23047 0.93909 0.0
H1557 H 0.9166 0.29972 0.9521 0.0
H1558 H 0.88981 0.30269 0.92301 0.0
H1559 H 0.92526 0.2775 0.99343 0.0
H1560 H 0.96499 0.27903 0.91496 0.0
H1561 H 0.97921 0.26543 0.87484 0.0
H1562 H 1.01247 0.20222 0.90929 0.0
H1563 H 0.99821 0.21538 0.94962 0.0
C1564 C 1.00712 0.30163 0.02817 0.0
C1565 C 0.02343 0.28579 0.04053 0.0
C1566 C 0.99324 0.29508 0.01456 0.0
C1567 C 0.99515 0.27246 1.0127 0.0
C1568 C 1.01162 0.25638 0.02457 0.0
C1569 C 0.02557 0.26299 0.03858 0.0
C1570 C 0.97943 0.26637 0.99849 0.0
C1571 C 0.98646 0.25707 0.97617 0.0
C1572 C 0.95706 0.27335 1.00494 0.0
C1573 C 0.94872 0.28279 0.0286 0.0
C1574 C 0.95631 0.27119 0.05055 0.0
C1575 C 0.94891 0.28045 0.07271 0.0
C1576 C 0.93379 0.30123 0.07322 0.0
C1577 C 0.92598 0.31278 0.05155 0.0
C1578 C 0.93336 0.30362 0.02932 0.0
C1579 C 0.91711 0.24809 0.91862 0.0
C1580 C 0.90136 0.26833 0.91385 0.0
C1581 C 0.93246 0.24634 0.93558 0.0
C1582 C 0.93266 0.26491 0.94785 0.0
C1583 C 0.91684 0.28505 0.94314 0.0
C1584 C 0.90143 0.28673 0.92644 0.0
C1585 C 0.94926 0.26382 0.96544 0.0
C1586 C 0.94236 0.27194 0.98842 0.0
C1587 C 0.97171 0.25595 0.95946 0.0
C1588 C 0.98033 0.24808 0.93526 0.0
C1589 C 0.97521 0.26218 0.91396 0.0
C1590 C 0.98329 0.25456 0.89119 0.0
C1591 C 0.99668 0.23295 0.88951 0.0
C1592 C 1.00206 0.21893 0.91061 0.0
C1593 C 0.99399 0.22646 0.93343 0.0
H1594 H 1.00292 0.22708 0.87187 0.0
H1595 H 0.92812 0.30837 0.09041 0.0
H1596 H 0.75468 0.96856 0.97247 0.0
H1597 H 0.74362 0.94813 0.94249 0.0
H1598 H 0.80973 0.92504 0.91478 0.0
H1599 H 0.82065 0.94544 0.94378 0.0
H1600 H 0.7853 0.93715 0.87842 0.0
H1601 H 0.7841 0.89234 0.95532 0.0
H1602 H 0.77168 0.88528 0.99813 0.0
H1603 H 0.70678 0.89896 0.97759 0.0
H1604 H 0.71881 0.90635 0.93468 0.0
H1605 H 0.8029 0.83717 0.82482 0.0
H1606 H 0.80093 0.86692 0.85052 0.0
H1607 H 0.73252 0.87621 0.86412 0.0
H1608 H 0.7346 0.84542 0.839 0.0
H1609 H 0.74981 0.87709 0.90498 0.0
H1610 H 0.75494 0.91473 0.82522 0.0
H1611 H 0.77056 0.9183 0.78312 0.0
H1612 H 0.83142 0.91542 0.8098 0.0
H1613 H 0.81623 0.91166 0.85203 0.0
C1614 C 0.76676 0.95923 0.95984 0.0
C1615 C 0.78854 0.95863 0.9606 0.0
C1616 C 0.76045 0.94751 0.94278 0.0
C1617 C 0.77587 0.93493 0.92639 0.0
C1618 C 0.79748 0.93468 0.92704 0.0
C1619 C 0.80372 0.94634 0.94384 0.0
C1620 C 0.77016 0.92141 0.90876 0.0
C1621 C 0.77747 0.92405 0.88423 0.0
C1622 C 0.75952 0.90463 0.91613 0.0
C1623 C 0.7523 0.90019 0.94188 0.0
C1624 C 0.76716 0.89402 0.95998 0.0
C1625 C 0.7602 0.88992 0.98424 0.0
C1626 C 0.73844 0.89175 0.99059 0.0
C1627 C 0.72362 0.89761 0.97266 0.0
C1628 C 0.73049 0.90175 0.94837 0.0
C1629 C 0.78733 0.84574 0.83289 0.0
C1630 C 0.76884 0.83911 0.82956 0.0
C1631 C 0.78621 0.86287 0.8476 0.0
C1632 C 0.76647 0.8743 0.85883 0.0
C1633 C 0.74791 0.86779 0.85549 0.0
C1634 C 0.74909 0.85028 0.84106 0.0
C1635 C 0.76568 0.8923 0.87483 0.0
C1636 C 0.75709 0.89056 0.89899 0.0
C1637 C 0.7755 0.90972 0.86722 0.0
C1638 C 0.78442 0.91289 0.84181 0.0
C1639 C 0.77165 0.91487 0.8221 0.0
C1640 C 0.78043 0.91691 0.79822 0.0
C1641 C 0.80197 0.91708 0.79379 0.0
C1642 C 0.81473 0.91534 0.81325 0.0
C1643 C 0.80602 0.91332 0.83717 0.0
H1644 H 0.80876 0.91856 0.77529 0.0
H1645 H 0.73309 0.88857 1.00939 0.0
H1646 H 1.00816 0.76648 0.1051 0.0
H1647 H 0.97958 0.76735 0.13725 0.0
H1648 H 0.93586 0.76521 0.08409 0.0
H1649 H 0.96445 0.76471 0.0516 0.0
H1650 H 0.91476 0.79188 0.1182 0.0
H1651 H 0.96118 0.71783 0.11887 0.0
H1652 H 0.99587 0.68898 0.11987 0.0
H1653 H 1.00547 0.70729 0.18975 0.0
H1654 H 0.97097 0.73649 0.189 0.0
H1655 H 0.86683 0.72535 0.22829 0.0
H1656 H 0.89312 0.72641 0.19362 0.0
H1657 H 0.88455 0.79648 0.2001 0.0
H1658 H 0.85808 0.79558 0.23418 0.0
H1659 H 0.93061 0.7341 0.18734 0.0
H1660 H 0.89201 0.82405 0.14744 0.0
H1661 H 0.85597 0.85015 0.14297 0.0
H1662 H 0.82823 0.79494 0.14681 0.0
H1663 H 0.86399 0.76856 0.15148 0.0
C1664 C 0.99241 0.7665 0.1001 0.0
C1665 C 0.98876 0.76541 0.07562 0.0
C1666 C 0.97604 0.76684 0.11862 0.0
C1667 C 0.95554 0.76586 0.11335 0.0
C1668 C 0.9515 0.76587 0.08879 0.0
C1669 C 0.9679 0.76562 0.07016 0.0
C1670 C 0.93875 0.76395 0.13351 0.0
C1671 C 0.91829 0.77928 0.13333 0.0
C1672 C 0.94295 0.74719 0.15313 0.0
C1673 C 0.96358 0.72948 0.15378 0.0
C1674 C 0.97075 0.7158 0.13439 0.0
C1675 C 0.99037 0.69937 0.13491 0.0
C1676 C 1.00289 0.69634 0.15483 0.0
C1677 C 0.99577 0.70968 0.17431 0.0
C1678 C 0.97618 0.72616 0.17386 0.0
C1679 C 0.87057 0.74098 0.22237 0.0
C1680 C 0.86023 0.76039 0.23418 0.0
C1681 C 0.88566 0.74158 0.20248 0.0
C1682 C 0.89076 0.76161 0.19377 0.0
C1683 C 0.88071 0.78088 0.20588 0.0
C1684 C 0.86562 0.78029 0.22564 0.0
C1685 C 0.90673 0.76235 0.17235 0.0
C1686 C 0.92707 0.74678 0.17228 0.0
C1687 C 0.90225 0.77857 0.15226 0.0
C1688 C 0.88065 0.79436 0.14994 0.0
C1689 C 0.8782 0.8175 0.14736 0.0
C1690 C 0.85782 0.83234 0.14487 0.0
C1691 C 0.83985 0.82418 0.14467 0.0
C1692 C 0.84215 0.80122 0.14715 0.0
C1693 C 0.86245 0.78633 0.1498 0.0
H1694 H 0.82419 0.83564 0.1424 0.0
H1695 H 1.01808 0.68362 0.1552 0.0
H1696 H 0.32558 0.99404 0.14529 0.0
H1697 H 0.32891 0.95632 0.16402 0.0
H1698 H 0.30243 0.93992 0.10203 0.0
H1699 H 0.29895 0.97784 0.08313 0.0
H1700 H 0.28237 0.92786 0.14407 0.0
H1701 H 0.35506 0.91628 0.11277 0.0
H1702 H 0.39028 0.92437 0.10455 0.0
H1703 H 0.39836 0.91872 0.18122 0.0
H1704 H 0.36304 0.9109 0.18993 0.0
H1705 H 0.29209 0.81963 0.20533 0.0
H1706 H 0.29621 0.84885 0.17364 0.0
H1707 H 0.33019 0.87469 0.22207 0.0
H1708 H 0.32724 0.84497 0.25296 0.0
H1709 H 0.34794 0.87856 0.17982 0.0
H1710 H 0.27237 0.89607 0.21064 0.0
H1711 H 0.23728 0.88745 0.21853 0.0
H1712 H 0.23484 0.88203 0.14225 0.0
H1713 H 0.27 0.89035 0.13396 0.0
C1714 C 0.32084 0.98232 0.13537 0.0
C1715 C 0.31203 0.98904 0.11265 0.0
C1716 C 0.3228 0.96068 0.14611 0.0
C1717 C 0.31603 0.94514 0.13444 0.0
C1718 C 0.30781 0.95156 0.1114 0.0
C1719 C 0.30597 0.97323 0.10053 0.0
C1720 C 0.31626 0.92284 0.14717 0.0
C1721 C 0.29681 0.91688 0.15152 0.0
C1722 C 0.335 0.90854 0.15715 0.0
C1723 C 0.35632 0.91313 0.152 0.0
C1724 C 0.36427 0.91691 0.12789 0.0
C1725 C 0.38427 0.92143 0.12314 0.0
C1726 C 0.39653 0.92209 0.14235 0.0
C1727 C 0.38884 0.9182 0.16636 0.0
C1728 C 0.36884 0.91369 0.17121 0.0
C1729 C 0.30067 0.83139 0.20905 0.0
C1730 C 0.30931 0.82991 0.23172 0.0
C1731 C 0.30288 0.84825 0.19097 0.0
C1732 C 0.31311 0.86446 0.1955 0.0
C1733 C 0.32223 0.86252 0.21792 0.0
C1734 C 0.3205 0.84543 0.23569 0.0
C1735 C 0.31386 0.88395 0.17758 0.0
C1736 C 0.33353 0.8894 0.1722 0.0
C1737 C 0.2953 0.89784 0.16673 0.0
C1738 C 0.27388 0.89358 0.17173 0.0
C1739 C 0.26435 0.89299 0.19558 0.0
C1740 C 0.24447 0.88815 0.20012 0.0
C1741 C 0.23392 0.88411 0.18089 0.0
C1742 C 0.24309 0.88511 0.1571 0.0
C1743 C 0.26296 0.88989 0.15248 0.0
H1744 H 0.21867 0.88017 0.18438 0.0
H1745 H 0.41201 0.9256 0.13864 0.0
H1746 H 0.81868 0.02844 0.08656 0.0
H1747 H 0.80847 0.0583 0.11337 0.0
H1748 H 0.74454 0.07848 0.08788 0.0
H1749 H 0.75498 0.04841 0.05998 0.0
H1750 H 0.76029 0.11401 0.08961 0.0
H1751 H 0.75288 0.05374 0.14566 0.0
H1752 H 0.7627 0.0157 0.16593 0.0
H1753 H 0.81888 0.02759 0.1911 0.0
H1754 H 0.8096 0.06558 0.17068 0.0
H1755 H 0.73929 0.19198 0.18232 0.0
H1756 H 0.73715 0.1625 0.1577 0.0
H1757 H 0.80393 0.12925 0.16736 0.0
H1758 H 0.80632 0.15881 0.1917 0.0
H1759 H 0.77839 0.10065 0.17593 0.0
H1760 H 0.78782 0.15881 0.11405 0.0
H1761 H 0.77785 0.19668 0.09333 0.0
H1762 H 0.71648 0.18846 0.07976 0.0
H1763 H 0.726 0.15063 0.10069 0.0
C1764 C 0.80234 0.03902 0.08664 0.0
C1765 C 0.78763 0.03598 0.07107 0.0
C1766 C 0.79648 0.05608 0.10222 0.0
C1767 C 0.77563 0.07044 0.10303 0.0
C1768 C 0.76069 0.06746 0.08768 0.0
C1769 C 0.76662 0.05025 0.07186 0.0
C1770 C 0.77032 0.08909 0.11914 0.0
C1771 C 0.7637 0.11109 0.10866 0.0
C1772 C 0.775 0.08533 0.14395 0.0
C1773 C 0.78055 0.06253 0.15655 0.0
C1774 C 0.76739 0.04822 0.15541 0.0
C1775 C 0.77286 0.02665 0.16694 0.0
C1776 C 0.79141 0.01923 0.17978 0.0
C1777 C 0.80451 0.03337 0.18116 0.0
C1778 C 0.79912 0.05494 0.16965 0.0
C1779 C 0.75364 0.1786 0.17889 0.0
C1780 C 0.77302 0.17784 0.18896 0.0
C1781 C 0.75233 0.1617 0.16489 0.0
C1782 C 0.77039 0.14371 0.16062 0.0
C1783 C 0.78976 0.14293 0.17054 0.0
C1784 C 0.79109 0.15983 0.18449 0.0
C1785 C 0.76919 0.12543 0.14614 0.0
C1786 C 0.77454 0.10353 0.15702 0.0
C1787 C 0.76318 0.12931 0.12181 0.0
C1788 C 0.75752 0.15201 0.10919 0.0
C1789 C 0.77213 0.16516 0.10683 0.0
C1790 C 0.76658 0.1866 0.09501 0.0
C1791 C 0.74652 0.195 0.0853 0.0
C1792 C 0.732 0.18195 0.08733 0.0
C1793 C 0.73747 0.16051 0.09915 0.0
H1794 H 0.74225 0.2116 0.07615 0.0
H1795 H 0.79562 1.00252 0.18867 0.0
H1796 H 0.57378 0.58566 0.83409 0.0
H1797 H 0.59812 0.60969 0.82914 0.0
H1798 H 0.62489 0.58026 0.89718 0.0
H1799 H 0.60018 0.55658 0.90239 0.0
H1800 H 0.61854 0.62305 0.8952 0.0
H1801 H 0.6522 0.56729 0.84105 0.0
H1802 H 0.6549 0.54303 0.80788 0.0
H1803 H 0.63838 0.60059 0.75689 0.0
H1804 H 0.63526 0.62523 0.78984 0.0
H1805 H 0.70914 0.66854 0.8741 0.0
H1806 H 0.68831 0.64092 0.87846 0.0
H1807 H 0.64798 0.67864 0.82258 0.0
H1808 H 0.66797 0.7069 0.81917 0.0
H1809 H 0.66354 0.62996 0.81876 0.0
H1810 H 0.62827 0.68512 0.87552 0.0
H1811 H 0.62749 0.70799 0.90946 0.0
H1812 H 0.65001 0.64864 0.95652 0.0
H1813 H 0.65123 0.62542 0.92271 0.0
C1814 C 0.58496 0.58425 0.84788 0.0
C1815 C 0.58513 0.56925 0.8686 0.0
C1816 C 0.59891 0.59792 0.84502 0.0
C1817 C 0.6136 0.59653 0.86259 0.0
C1818 C 0.61371 0.58162 0.88337 0.0
C1819 C 0.59957 0.56815 0.88638 0.0
C1820 C 0.62839 0.61109 0.85963 0.0
C1821 C 0.62863 0.62424 0.87862 0.0
C1822 C 0.64141 0.61288 0.83789 0.0
C1823 C 0.6433 0.59812 0.81798 0.0
C1824 C 0.64897 0.57479 0.82281 0.0
C1825 C 0.65061 0.56097 0.80404 0.0
C1826 C 0.64676 0.57027 0.78031 0.0
C1827 C 0.64133 0.59341 0.77529 0.0
C1828 C 0.63964 0.60732 0.79401 0.0
C1829 C 0.69581 0.67094 0.86279 0.0
C1830 C 0.69034 0.68969 0.84598 0.0
C1831 C 0.68405 0.65512 0.8652 0.0
C1832 C 0.66675 0.65776 0.85073 0.0
C1833 C 0.66148 0.67622 0.83365 0.0
C1834 C 0.67302 0.6922 0.83153 0.0
C1835 C 0.65344 0.64184 0.85421 0.0
C1836 C 0.65352 0.62852 0.83533 0.0
C1837 C 0.64097 0.63961 0.87616 0.0
C1838 C 0.64007 0.65355 0.89653 0.0
C1839 C 0.63324 0.67695 0.89305 0.0
C1840 C 0.63268 0.68998 0.91227 0.0
C1841 C 0.63876 0.67978 0.93512 0.0
C1842 C 0.64534 0.65652 0.9388 0.0
C1843 C 0.64596 0.64342 0.91962 0.0
H1844 H 0.63831 0.68989 0.94998 0.0
H1845 H 0.64804 0.55953 0.7658 0.0
H1846 H 0.46795 0.56971 0.87412 0.0
H1847 H 0.43547 0.59796 0.8635 0.0
H1848 H 0.45486 0.59256 0.78727 0.0
H1849 H 0.48814 0.56394 0.7979 0.0
H1850 H 0.43787 0.63689 0.79833 0.0
H1851 H 0.41552 0.5704 0.81115 0.0
H1852 H 0.41264 0.53444 0.83189 0.0
H1853 H 0.3803 0.5676 0.89447 0.0
H1854 H 0.38329 0.60373 0.87428 0.0
H1855 H 0.33317 0.71138 0.78147 0.0
H1856 H 0.36336 0.6778 0.77838 0.0
H1857 H 0.35996 0.66588 0.85657 0.0
H1858 H 0.32963 0.69912 0.85971 0.0
H1859 H 0.36801 0.62748 0.83576 0.0
H1860 H 0.39608 0.69287 0.8242 0.0
H1861 H 0.39842 0.72882 0.80285 0.0
H1862 H 0.41916 0.69721 0.73625 0.0
H1863 H 0.4167 0.66109 0.75717 0.0
C1864 C 0.46548 0.57435 0.85501 0.0
C1865 C 0.48074 0.56433 0.83686 0.0
C1866 C 0.44673 0.59056 0.84897 0.0
C1867 C 0.44244 0.59723 0.82458 0.0
C1868 C 0.45774 0.58762 0.80624 0.0
C1869 C 0.4767 0.5712 0.81233 0.0
C1870 C 0.42188 0.61424 0.8189 0.0
C1871 C 0.42253 0.63463 0.80602 0.0
C1872 C 0.40178 0.61147 0.82902 0.0
C1873 C 0.39972 0.58979 0.84121 0.0
C1874 C 0.40791 0.57002 0.82939 0.0
C1875 C 0.40624 0.5496 0.84105 0.0
C1876 C 0.39632 0.54873 0.86449 0.0
C1877 C 0.38799 0.5683 0.87631 0.0
C1878 C 0.38963 0.58876 0.86475 0.0
C1879 C 0.33865 0.70138 0.79798 0.0
C1880 C 0.3291 0.70801 0.82087 0.0
C1881 C 0.35602 0.68227 0.79619 0.0
C1882 C 0.36428 0.66946 0.81727 0.0
C1883 C 0.35401 0.67547 0.84003 0.0
C1884 C 0.33664 0.69452 0.84182 0.0
C1885 C 0.3841 0.65038 0.81603 0.0
C1886 C 0.38328 0.62958 0.82764 0.0
C1887 C 0.40395 0.65277 0.80458 0.0
C1888 C 0.40603 0.67433 0.7922 0.0
C1889 C 0.40108 0.69361 0.80499 0.0
C1890 C 0.40242 0.71401 0.79296 0.0
C1891 C 0.40891 0.7153 0.7682 0.0
C1892 C 0.41413 0.69618 0.75543 0.0
C1893 C 0.41279 0.67573 0.76736 0.0
H1894 H 0.40995 0.7311 0.75894 0.0
H1895 H 0.39505 0.5329 0.87349 0.0
H1896 H 0.51432 0.42914 0.899 0.0
H1897 H 0.48914 0.40673 0.89747 0.0
H1898 H 0.44631 0.462 0.85851 0.0
H1899 H 0.47091 0.48483 0.86092 0.0
H1900 H 0.42404 0.44131 0.89067 0.0
H1901 H 0.48134 0.41938 0.82882 0.0
H1902 H 0.51906 0.40581 0.81292 0.0
H1903 H 0.52571 0.34487 0.85861 0.0
H1904 H 0.48808 0.35822 0.87503 0.0
H1905 H 0.36583 0.38906 0.82555 0.0
H1906 H 0.3906 0.40882 0.83711 0.0
H1907 H 0.42251 0.35043 0.8815 0.0
H1908 H 0.39774 0.33042 0.86986 0.0
H1909 H 0.45073 0.37021 0.8511 0.0
H1910 H 0.39091 0.39181 0.90927 0.0
H1911 H 0.35268 0.40609 0.9229 0.0
H1912 H 0.35023 0.4686 0.8816 0.0
H1913 H 0.38838 0.45457 0.86742 0.0
C1914 C 0.49938 0.4367 0.8905 0.0
C1915 C 0.49478 0.45875 0.87982 0.0
C1916 C 0.48509 0.42377 0.88944 0.0
C1917 C 0.46604 0.43256 0.87748 0.0
C1918 C 0.46099 0.45483 0.86769 0.0
C1919 C 0.47519 0.46779 0.86886 0.0
C1920 C 0.45172 0.41842 0.87425 0.0
C1921 C 0.42985 0.42584 0.88189 0.0
C1922 C 0.4594 0.39798 0.86324 0.0
C1923 C 0.48199 0.38991 0.85336 0.0
C1924 C 0.49091 0.40316 0.83562 0.0
C1925 C 0.51226 0.3955 0.82649 0.0
C1926 C 0.5248 0.37452 0.83481 0.0
C1927 C 0.51599 0.36113 0.85222 0.0
C1928 C 0.49465 0.36873 0.86144 0.0
C1929 C 0.37822 0.38038 0.83764 0.0
C1930 C 0.37994 0.3582 0.84676 0.0
C1931 C 0.39222 0.39174 0.84438 0.0
C1932 C 0.40821 0.38112 0.86033 0.0
C1933 C 0.41018 0.35889 0.86926 0.0
C1934 C 0.39602 0.34755 0.86269 0.0
C1935 C 0.42306 0.3933 0.8672 0.0
C1936 C 0.445 0.38552 0.86021 0.0
C1937 C 0.41541 0.41352 0.87854 0.0
C1938 C 0.39248 0.42206 0.88713 0.0
C1939 C 0.38218 0.40854 0.90294 0.0
C1940 C 0.36053 0.4166 0.91079 0.0
C1941 C 0.34902 0.43822 0.90308 0.0
C1942 C 0.35916 0.45185 0.88755 0.0
C1943 C 0.38081 0.44386 0.87962 0.0
H1944 H 0.33226 0.44443 0.90918 0.0
H1945 H 0.54132 0.36861 0.82771 0.0
H1946 H 0.62369 0.48809 0.82808 0.0
H1947 H 0.65369 0.45697 0.8157 0.0
H1948 H 0.60895 0.42266 0.79686 0.0
H1949 H 0.57868 0.45428 0.80873 0.0
H1950 H 0.63997 0.39772 0.8306 0.0
H1951 H 0.63866 0.43852 0.75285 0.0
H1952 H 0.63805 0.47113 0.72362 0.0
H1953 H 0.69874 0.47412 0.74605 0.0
H1954 H 0.69954 0.4418 0.77576 0.0
H1955 H 0.73289 0.30734 0.80612 0.0
H1956 H 0.69818 0.33532 0.80214 0.0
H1957 H 0.72981 0.38775 0.80148 0.0
H1958 H 0.7644 0.35997 0.80374 0.0
H1959 H 0.70151 0.40076 0.77139 0.0
H1960 H 0.69975 0.3671 0.85413 0.0
H1961 H 0.70117 0.33605 0.88578 0.0
H1962 H 0.64773 0.32159 0.85696 0.0
H1963 H 0.64616 0.35243 0.82497 0.0
C1964 C 0.62025 0.47421 0.8206 0.0
C1965 C 0.59887 0.47369 0.81915 0.0
C1966 C 0.63741 0.45641 0.81357 0.0
C1967 C 0.63361 0.43745 0.80534 0.0
C1968 C 0.61226 0.43716 0.80307 0.0
C1969 C 0.595 0.45529 0.80963 0.0
C1970 C 0.65199 0.4174 0.80137 0.0
C1971 C 0.65325 0.39817 0.81728 0.0
C1972 C 0.66957 0.4182 0.78445 0.0
C1973 C 0.66905 0.43781 0.76672 0.0
C1974 C 0.65177 0.44626 0.75176 0.0
C1975 C 0.65141 0.46469 0.73506 0.0
C1976 C 0.66832 0.47473 0.73302 0.0
C1977 C 0.68563 0.46635 0.74767 0.0
C1978 C 0.68605 0.44797 0.76444 0.0
C1979 C 0.73241 0.32484 0.80475 0.0
C1980 C 0.75141 0.33141 0.80517 0.0
C1981 C 0.7125 0.34088 0.80279 0.0
C1982 C 0.71111 0.36383 0.80193 0.0
C1983 C 0.73022 0.37027 0.80209 0.0
C1984 C 0.75007 0.35431 0.80356 0.0
C1985 C 0.68999 0.38134 0.80131 0.0
C1986 C 0.68817 0.40011 0.7845 0.0
C1987 C 0.6721 0.38036 0.8178 0.0
C1988 C 0.67302 0.36187 0.83701 0.0
C1989 C 0.68841 0.3572 0.85446 0.0
C1990 C 0.68922 0.33966 0.87247 0.0
C1991 C 0.6746 0.32681 0.87333 0.0
C1992 C 0.65908 0.33152 0.85623 0.0
C1993 C 0.65821 0.34903 0.83817 0.0
H1994 H 0.67525 0.31324 0.88728 0.0
H1995 H 0.66802 0.48897 0.72006 0.0
H1996 H 0.61552 0.48043 0.2386 0.0
H1997 H 0.64345 0.44809 0.25219 0.0
H1998 H 0.61404 0.45127 0.32526 0.0
H1999 H 0.58526 0.48418 0.31159 0.0
H2000 H 0.66466 0.44195 0.3165 0.0
H2001 H 0.60543 0.41389 0.30326 0.0
H2002 H 0.57468 0.41179 0.28147 0.0
H2003 H 0.61681 0.39217 0.21835 0.0
H2004 H 0.64777 0.39451 0.23963 0.0
H2005 H 0.73834 0.3299 0.32954 0.0
H2006 H 0.7067 0.36198 0.33427 0.0
H2007 H 0.70592 0.374 0.25623 0.0
H2008 H 0.73742 0.34215 0.25142 0.0
H2009 H 0.66622 0.37314 0.27826 0.0
H2010 H 0.72358 0.4066 0.28859 0.0
H2011 H 0.75483 0.41017 0.3084 0.0
H2012 H 0.71676 0.42 0.37611 0.0
H2013 H 0.68533 0.41611 0.35675 0.0
C2014 C 0.61484 0.47451 0.25766 0.0
C2015 C 0.5979 0.48487 0.27396 0.0
C2016 C 0.63097 0.45597 0.26539 0.0
C2017 C 0.63077 0.44718 0.28965 0.0
C2018 C 0.61446 0.45785 0.30641 0.0
C2019 C 0.59803 0.47658 0.29859 0.0
C2020 C 0.64713 0.42603 0.29627 0.0
C2021 C 0.66476 0.42665 0.30885 0.0
C2022 C 0.64743 0.40623 0.28584 0.0
C2023 C 0.62891 0.40449 0.27303 0.0
C2024 C 0.60812 0.40928 0.28468 0.0
C2025 C 0.59065 0.40802 0.27242 0.0
C2026 C 0.59379 0.40187 0.24853 0.0
C2027 C 0.61441 0.39692 0.23686 0.0
C2028 C 0.63193 0.39818 0.24903 0.0
C2029 C 0.73155 0.33958 0.31342 0.0
C2030 C 0.74034 0.33351 0.29008 0.0
C2031 C 0.71347 0.35787 0.31616 0.0
C2032 C 0.70388 0.37036 0.2956 0.0
C2033 C 0.71295 0.36454 0.27235 0.0
C2034 C 0.73103 0.34639 0.26961 0.0
C2035 C 0.68409 0.38918 0.29788 0.0
C2036 C 0.66588 0.38812 0.28674 0.0
C2037 C 0.68333 0.40848 0.30966 0.0
C2038 C 0.70218 0.4108 0.3213 0.0
C2039 C 0.72192 0.4093 0.30776 0.0
C2040 C 0.73965 0.41143 0.31889 0.0
C2041 C 0.73778 0.4153 0.34349 0.0
C2042 C 0.71817 0.41702 0.35704 0.0
C2043 C 0.7004 0.41484 0.34601 0.0
H2044 H 0.75153 0.41698 0.35203 0.0
H2045 H 0.58024 0.40092 0.23906 0.0
H2046 H 0.59206 0.58788 0.27075 0.0
H2047 H 0.62009 0.60581 0.27572 0.0
H2048 H 0.63786 0.60525 0.19872 0.0
H2049 H 0.61021 0.58648 0.19372 0.0
H2050 H 0.67282 0.59208 0.22444 0.0
H2051 H 0.60971 0.65341 0.22369 0.0
H2052 H 0.57259 0.67405 0.23592 0.0
H2053 H 0.59006 0.67263 0.30907 0.0
H2054 H 0.62724 0.65167 0.29736 0.0
H2055 H 0.73885 0.66626 0.22396 0.0
H2056 H 0.70986 0.65023 0.21635 0.0
H2057 H 0.69267 0.64452 0.29341 0.0
H2058 H 0.72152 0.66078 0.30113 0.0
H2059 H 0.6572 0.66196 0.26598 0.0
H2060 H 0.72002 0.59937 0.26663 0.0
H2061 H 0.75709 0.5788 0.2541 0.0
H2062 H 0.73991 0.58315 0.18039 0.0
H2063 H 0.70278 0.60405 0.19243 0.0
C2064 C 0.60199 0.59136 0.25485 0.0
C2065 C 0.59887 0.58561 0.23182 0.0
C2066 C 0.6179 0.60188 0.2577 0.0
C2067 C 0.63094 0.60714 0.23755 0.0
C2068 C 0.62792 0.60144 0.21452 0.0
C2069 C 0.61199 0.59086 0.21165 0.0
C2070 C 0.64801 0.61811 0.24076 0.0
C2071 C 0.66934 0.60757 0.23314 0.0
C2072 C 0.64355 0.63808 0.25259 0.0
C2073 C 0.62123 0.65079 0.25968 0.0
C2074 C 0.6056 0.65734 0.24243 0.0
C2075 C 0.58456 0.66913 0.24926 0.0
C2076 C 0.57896 0.67461 0.27327 0.0
C2077 C 0.59442 0.66836 0.29048 0.0
C2078 C 0.61549 0.65654 0.28375 0.0
C2079 C 0.7288 0.66173 0.23927 0.0
C2080 C 0.73249 0.66474 0.26316 0.0
C2081 C 0.71235 0.65244 0.23491 0.0
C2082 C 0.69922 0.64605 0.25433 0.0
C2083 C 0.70265 0.64931 0.27817 0.0
C2084 C 0.71922 0.65844 0.28256 0.0
C2085 C 0.68196 0.63585 0.24978 0.0
C2086 C 0.66061 0.64655 0.25716 0.0
C2087 C 0.68638 0.61608 0.23765 0.0
C2088 C 0.70868 0.60349 0.23038 0.0
C2089 C 0.72419 0.59612 0.24771 0.0
C2090 C 0.7452 0.58436 0.2407 0.0
C2091 C 0.75087 0.57973 0.21645 0.0
C2092 C 0.73551 0.58679 0.19916 0.0
C2093 C 0.71447 0.59857 0.20607 0.0
H2094 H 0.76714 0.57062 0.21106 0.0
H2095 H 0.56265 0.68373 0.27852 0.0
H2096 H 0.47307 0.59226 0.23303 0.0
H2097 H 0.44537 0.62613 0.24144 0.0
H2098 H 0.47097 0.62644 0.31044 0.0
H2099 H 0.49927 0.59193 0.30205 0.0
H2100 H 0.42491 0.63774 0.31219 0.0
H2101 H 0.48119 0.66222 0.26728 0.0
H2102 H 0.50985 0.66221 0.23473 0.0
H2103 H 0.46323 0.67737 0.18094 0.0
H2104 H 0.43431 0.67712 0.21314 0.0
H2105 H 0.34999 0.74914 0.30837 0.0
H2106 H 0.3847 0.72063 0.31162 0.0
H2107 H 0.37533 0.69504 0.24531 0.0
H2108 H 0.34057 0.72295 0.24237 0.0
H2109 H 0.41819 0.70105 0.24888 0.0
H2110 H 0.36668 0.66366 0.29229 0.0
H2111 H 0.33777 0.66058 0.32334 0.0
H2112 H 0.37527 0.67072 0.37898 0.0
H2113 H 0.4047 0.6734 0.34802 0.0
C2114 C 0.47291 0.59934 0.25011 0.0
C2115 C 0.48861 0.58944 0.26676 0.0
C2116 C 0.45702 0.61883 0.25484 0.0
C2117 C 0.45634 0.62914 0.2763 0.0
C2118 C 0.47132 0.61886 0.29363 0.0
C2119 C 0.48743 0.59915 0.28886 0.0
C2120 C 0.43995 0.65077 0.27983 0.0
C2121 C 0.42384 0.65186 0.29879 0.0
C2122 C 0.43829 0.66915 0.26216 0.0
C2123 C 0.45557 0.66957 0.24266 0.0
C2124 C 0.47705 0.66542 0.2485 0.0
C2125 C 0.49335 0.66547 0.23011 0.0
C2126 C 0.48836 0.66977 0.20578 0.0
C2127 C 0.46706 0.67406 0.1998 0.0
C2128 C 0.4507 0.67401 0.21813 0.0
C2129 C 0.35552 0.73758 0.29436 0.0
C2130 C 0.34267 0.73829 0.27504 0.0
C2131 C 0.37526 0.72126 0.2963 0.0
C2132 C 0.38259 0.70572 0.27869 0.0
C2133 C 0.37003 0.70691 0.25904 0.0
C2134 C 0.35018 0.72285 0.25737 0.0
C2135 C 0.40299 0.68767 0.2808 0.0
C2136 C 0.41976 0.68726 0.26278 0.0
C2137 C 0.40533 0.67003 0.29934 0.0
C2138 C 0.38769 0.66894 0.31791 0.0
C2139 C 0.36866 0.66538 0.31114 0.0
C2140 C 0.35221 0.66366 0.32874 0.0
C2141 C 0.35455 0.66563 0.35319 0.0
C2142 C 0.37345 0.66924 0.36005 0.0
C2143 C 0.39007 0.67075 0.34249 0.0
H2144 H 0.34182 0.66421 0.36685 0.0
H2145 H 0.501 0.66979 0.19156 0.0
H2146 H 0.47403 0.50574 0.25997 0.0
H2147 H 0.44919 0.4822 0.26659 0.0
H2148 H 0.49061 0.4355 0.21901 0.0
H2149 H 0.51524 0.45919 0.21205 0.0
H2150 H 0.45065 0.44141 0.20959 0.0
H2151 H 0.48846 0.42606 0.28282 0.0
H2152 H 0.50182 0.43549 0.31948 0.0
H2153 H 0.43696 0.46415 0.3471 0.0
H2154 H 0.42321 0.45515 0.31043 0.0
H2155 H 0.41039 0.34797 0.24181 0.0
H2156 H 0.4332 0.37345 0.23698 0.0
H2157 H 0.38667 0.4193 0.28114 0.0
H2158 H 0.36398 0.39344 0.28681 0.0
H2159 H 0.42752 0.41526 0.29267 0.0
H2160 H 0.38995 0.42901 0.21963 0.0
H2161 H 0.37707 0.41875 0.18311 0.0
H2162 H 0.44227 0.39222 0.15525 0.0
H2163 H 0.45555 0.40205 0.19178 0.0
C2164 C 0.47787 0.4904 0.25103 0.0
C2165 C 0.49663 0.48431 0.23553 0.0
C2166 C 0.46368 0.47692 0.25485 0.0
C2167 C 0.46814 0.45685 0.24359 0.0
C2168 C 0.48677 0.45089 0.2279 0.0
C2169 C 0.50083 0.46448 0.22387 0.0
C2170 C 0.4534 0.44212 0.24794 0.0
C2171 C 0.44583 0.43549 0.22777 0.0
C2172 C 0.44659 0.4348 0.27167 0.0
C2173 C 0.45482 0.44014 0.29377 0.0
C2174 C 0.47705 0.43452 0.29663 0.0
C2175 C 0.4847 0.43976 0.31743 0.0
C2176 C 0.47025 0.45047 0.33558 0.0
C2177 C 0.44813 0.45589 0.33301 0.0
C2178 C 0.4404 0.45071 0.31223 0.0
C2179 C 0.40509 0.36331 0.25083 0.0
C2180 C 0.3853 0.36862 0.26473 0.0
C2181 C 0.41807 0.378 0.2478 0.0
C2182 C 0.41152 0.39846 0.25839 0.0
C2183 C 0.392 0.40366 0.27269 0.0
C2184 C 0.37897 0.38894 0.27576 0.0
C2185 C 0.42504 0.4144 0.25432 0.0
C2186 C 0.43232 0.42126 0.27452 0.0
C2187 C 0.43168 0.42186 0.23062 0.0
C2188 C 0.42374 0.41611 0.20854 0.0
C2189 C 0.40154 0.42085 0.2058 0.0
C2190 C 0.39417 0.41513 0.18508 0.0
C2191 C 0.40884 0.4048 0.1669 0.0
C2192 C 0.43092 0.40022 0.16936 0.0
C2193 C 0.43838 0.40588 0.19005 0.0
H2194 H 0.40311 0.40038 0.15088 0.0
H2195 H 0.4762 0.45452 0.35167 0.0
H2196 H 0.78248 0.63736 0.59239 0.0
H2197 H 0.78559 0.65683 0.62722 0.0
H2198 H 0.7808 0.59956 0.67553 0.0
H2199 H 0.77758 0.57981 0.64058 0.0
H2200 H 0.75757 0.63973 0.69405 0.0
H2201 H 0.82889 0.60728 0.66159 0.0
H2202 H 0.85822 0.5983 0.62948 0.0
H2203 H 0.85364 0.66799 0.61334 0.0
H2204 H 0.82405 0.67742 0.64513 0.0
H2205 H 0.78452 0.69542 0.78841 0.0
H2206 H 0.786 0.66557 0.76212 0.0
H2207 H 0.80154 0.707 0.69962 0.0
H2208 H 0.802 0.73558 0.72598 0.0
H2209 H 0.82209 0.66789 0.69262 0.0
H2210 H 0.74824 0.70007 0.72459 0.0
H2211 H 0.72132 0.70766 0.75918 0.0
H2212 H 0.72997 0.63734 0.77631 0.0
H2213 H 0.75819 0.6293 0.74286 0.0
C2214 C 0.78187 0.62889 0.6104 0.0
C2215 C 0.77993 0.60691 0.61361 0.0
C2216 C 0.78374 0.64006 0.63032 0.0
C2217 C 0.7838 0.62953 0.65396 0.0
C2218 C 0.78091 0.60797 0.65744 0.0
C2219 C 0.77908 0.59671 0.63743 0.0
C2220 C 0.78762 0.64097 0.67472 0.0
C2221 C 0.77178 0.64568 0.69395 0.0
C2222 C 0.8062 0.64867 0.67464 0.0
C2223 C 0.82415 0.64306 0.65565 0.0
C2224 C 0.83404 0.6207 0.65109 0.0
C2225 C 0.85073 0.61553 0.63296 0.0
C2226 C 0.85777 0.63256 0.61935 0.0
C2227 C 0.84817 0.65481 0.62389 0.0
C2228 C 0.83145 0.66008 0.64198 0.0
C2229 C 0.78865 0.69782 0.76911 0.0
C2230 C 0.79325 0.71771 0.75922 0.0
C2231 C 0.78931 0.68088 0.75402 0.0
C2232 C 0.79335 0.68412 0.72862 0.0
C2233 C 0.79841 0.70388 0.71903 0.0
C2234 C 0.79863 0.7203 0.73416 0.0
C2235 C 0.7915 0.66779 0.71153 0.0
C2236 C 0.80785 0.66195 0.69293 0.0
C2237 C 0.77335 0.65911 0.71224 0.0
C2238 C 0.75553 0.66408 0.7314 0.0
C2239 C 0.74449 0.68621 0.7358 0.0
C2240 C 0.72907 0.69059 0.75531 0.0
C2241 C 0.72378 0.67297 0.76985 0.0
C2242 C 0.73408 0.65095 0.76504 0.0
C2243 C 0.74996 0.64648 0.74596 0.0
H2244 H 0.71173 0.6763 0.78486 0.0
H2245 H 0.87068 0.62852 0.60531 0.0
H2246 H 0.49838 0.79113 0.64374 0.0
H2247 H 0.46447 0.79498 0.66893 0.0
H2248 H 0.46519 0.72792 0.65648 0.0
H2249 H 0.49909 0.72395 0.63151 0.0
H2250 H 0.42447 0.75863 0.65138 0.0
H2251 H 0.47906 0.73722 0.70934 0.0
H2252 H 0.51025 0.74082 0.72927 0.0
H2253 H 0.47451 0.80591 0.74943 0.0
H2254 H 0.44319 0.80281 0.72931 0.0
H2255 H 0.34334 0.74062 0.73981 0.0
H2256 H 0.37655 0.73848 0.71434 0.0
H2257 H 0.38185 0.79868 0.74179 0.0
H2258 H 0.34908 0.80021 0.76829 0.0
H2259 H 0.4195 0.77266 0.73852 0.0
H2260 H 0.36509 0.79545 0.68151 0.0
H2261 H 0.33361 0.79377 0.66077 0.0
H2262 H 0.36804 0.72941 0.63741 0.0
H2263 H 0.39965 0.73058 0.65829 0.0
C2264 C 0.49125 0.77726 0.64623 0.0
C2265 C 0.50158 0.7572 0.6356 0.0
C2266 C 0.47189 0.77943 0.66079 0.0
C2267 C 0.46221 0.76169 0.66482 0.0
C2268 C 0.47226 0.74185 0.65377 0.0
C2269 C 0.49175 0.73955 0.63957 0.0
C2270 C 0.44175 0.76367 0.68064 0.0
C2271 C 0.42345 0.76147 0.6705 0.0
C2272 C 0.44008 0.76802 0.70546 0.0
C2273 C 0.45887 0.76988 0.71759 0.0
C2274 C 0.47792 0.75238 0.71783 0.0
C2275 C 0.49561 0.75431 0.7292 0.0
C2276 C 0.49438 0.77361 0.74055 0.0
C2277 C 0.47544 0.79099 0.7406 0.0
C2278 C 0.45772 0.78915 0.72923 0.0
C2279 C 0.35143 0.75356 0.74028 0.0
C2280 C 0.34327 0.77078 0.75593 0.0
C2281 C 0.37049 0.75238 0.72554 0.0
C2282 C 0.38172 0.76871 0.72545 0.0
C2283 C 0.37363 0.78586 0.74124 0.0
C2284 C 0.35476 0.78681 0.75636 0.0
C2285 C 0.402 0.76767 0.70932 0.0
C2286 C 0.42035 0.76997 0.71938 0.0
C2287 C 0.40361 0.76376 0.68429 0.0
C2288 C 0.38467 0.76302 0.67165 0.0
C2289 C 0.3659 0.78088 0.67209 0.0
C2290 C 0.34804 0.78002 0.66029 0.0
C2291 C 0.34881 0.76147 0.64783 0.0
C2292 C 0.36746 0.74376 0.64709 0.0
C2293 C 0.38536 0.74452 0.65888 0.0
H2294 H 0.33496 0.76084 0.63871 0.0
H2295 H 0.50809 0.77507 0.74934 0.0
H2296 H 0.34307 0.40762 0.58128 0.0
H2297 H 0.33915 0.38244 0.61681 0.0
H2298 H 0.28016 0.42922 0.64048 0.0
H2299 H 0.28446 0.45511 0.60561 0.0
H2300 H 0.30272 0.41132 0.67859 0.0
H2301 H 0.28093 0.38189 0.61095 0.0
H2302 H 0.28545 0.36829 0.57 0.0
H2303 H 0.34114 0.31628 0.59059 0.0
H2304 H 0.33708 0.32972 0.63156 0.0
H2305 H 0.26515 0.33199 0.76266 0.0
H2306 H 0.27091 0.36137 0.7319 0.0
H2307 H 0.32632 0.31431 0.7004 0.0
H2308 H 0.31963 0.2849 0.72996 0.0
H2309 H 0.30438 0.33352 0.66625 0.0
H2310 H 0.32782 0.36325 0.73307 0.0
H2311 H 0.32489 0.37774 0.77343 0.0
H2312 H 0.26759 0.4283 0.755 0.0
H2313 H 0.27029 0.41434 0.71443 0.0
C2314 C 0.32934 0.41283 0.59404 0.0
C2315 C 0.31401 0.43356 0.59012 0.0
C2316 C 0.32701 0.3982 0.61437 0.0
C2317 C 0.30912 0.40366 0.6312 0.0
C2318 C 0.29404 0.42449 0.62773 0.0
C2319 C 0.29644 0.43925 0.60749 0.0
C2320 C 0.30596 0.38749 0.65212 0.0
C2321 C 0.30287 0.39435 0.67589 0.0
C2322 C 0.30653 0.36519 0.64879 0.0
C2323 C 0.3088 0.35693 0.62424 0.0
C2324 C 0.29419 0.36762 0.60669 0.0
C2325 C 0.29667 0.35993 0.58349 0.0
C2326 C 0.31359 0.34146 0.57768 0.0
C2327 C 0.32804 0.33059 0.5951 0.0
C2328 C 0.32565 0.33822 0.61832 0.0
C2329 C 0.27874 0.32815 0.74938 0.0
C2330 C 0.29186 0.30621 0.74853 0.0
C2331 C 0.28214 0.34497 0.73182 0.0
C2332 C 0.29913 0.34025 0.71362 0.0
C2333 C 0.31294 0.3185 0.7139 0.0
C2334 C 0.30918 0.30167 0.73092 0.0
C2335 C 0.30164 0.35707 0.69301 0.0
C2336 C 0.3044 0.3504 0.66914 0.0
C2337 C 0.30093 0.37945 0.69633 0.0
C2338 C 0.29913 0.38761 0.72083 0.0
C2339 C 0.31451 0.37735 0.7377 0.0
C2340 C 0.31292 0.38548 0.76059 0.0
C2341 C 0.29598 0.40377 0.76685 0.0
C2342 C 0.28067 0.41409 0.75016 0.0
C2343 C 0.28227 0.40615 0.72719 0.0
H2344 H 0.29477 0.41 0.78459 0.0
H2345 H 0.31548 0.33554 0.5597 0.0
H2346 H 0.58366 0.27413 0.53171 0.0
H2347 H 0.60844 0.28294 0.55737 0.0
H2348 H 0.55921 0.29307 0.61632 0.0
H2349 H 0.5341 0.28497 0.59014 0.0
H2350 H 0.58457 0.3208 0.61809 0.0
H2351 H 0.59648 0.24252 0.61169 0.0
H2352 H 0.60274 0.20849 0.59012 0.0
H2353 H 0.66182 0.21899 0.55614 0.0
H2354 H 0.65576 0.25328 0.57726 0.0
H2355 H 0.65847 0.29337 0.71337 0.0
H2356 H 0.6301 0.29567 0.68628 0.0
H2357 H 0.67676 0.28796 0.62484 0.0
H2358 H 0.70512 0.28621 0.65162 0.0
H2359 H 0.65187 0.25965 0.62514 0.0
H2360 H 0.63997 0.33785 0.6332 0.0
H2361 H 0.63318 0.3716 0.65535 0.0
H2362 H 0.57379 0.36056 0.68767 0.0
H2363 H 0.58039 0.32653 0.66596 0.0
C2364 C 0.57788 0.27911 0.54983 0.0
C2365 C 0.55687 0.27924 0.55881 0.0
C2366 C 0.59214 0.28387 0.56464 0.0
C2367 C 0.58596 0.28815 0.58908 0.0
C2368 C 0.56446 0.28977 0.5976 0.0
C2369 C 0.55004 0.2853 0.58259 0.0
C2370 C 0.60244 0.28884 0.60607 0.0
C2371 C 0.59916 0.30731 0.61983 0.0
C2372 C 0.62169 0.27138 0.60831 0.0
C2373 C 0.62557 0.25057 0.59589 0.0
C2374 C 0.61075 0.23763 0.59952 0.0
C2375 C 0.61427 0.2183 0.58738 0.0
C2376 C 0.63264 0.21161 0.57172 0.0
C2377 C 0.64758 0.2242 0.56825 0.0
C2378 C 0.64413 0.24358 0.58032 0.0
C2379 C 0.66271 0.29264 0.69404 0.0
C2380 C 0.68429 0.28949 0.68486 0.0
C2381 C 0.6464 0.29388 0.67853 0.0
C2382 C 0.65118 0.29202 0.65341 0.0
C2383 C 0.67259 0.28931 0.64413 0.0
C2384 C 0.68887 0.2882 0.65957 0.0
C2385 C 0.6342 0.29175 0.63694 0.0
C2386 C 0.63732 0.27321 0.62337 0.0
C2387 C 0.6148 0.30906 0.6351 0.0
C2388 C 0.61079 0.32951 0.64815 0.0
C2389 C 0.62556 0.3425 0.6452 0.0
C2390 C 0.62172 0.36171 0.65764 0.0
C2391 C 0.60309 0.36819 0.67297 0.0
C2392 C 0.58823 0.3555 0.67582 0.0
C2393 C 0.592 0.33626 0.66344 0.0
H2394 H 0.60015 0.38306 0.68258 0.0
H2395 H 0.63532 0.19665 0.56232 0.0
H2396 H 0.75341 0.53101 0.50103 0.0
H2397 H 0.74262 0.50144 0.4844 0.0
H2398 H 0.74771 0.46403 0.55454 0.0
H2399 H 0.75847 0.49396 0.57126 0.0
H2400 H 0.77364 0.44125 0.51975 0.0
H2401 H 0.69961 0.47936 0.52777 0.0
H2402 H 0.6673 0.51122 0.52512 0.0
H2403 H 0.67818 0.51766 0.44737 0.0
H2404 H 0.71074 0.48605 0.44955 0.0
H2405 H 0.76822 0.35265 0.45308 0.0
H2406 H 0.7573 0.38 0.48367 0.0
H2407 H 0.74757 0.43346 0.42657 0.0
H2408 H 0.75803 0.40622 0.39605 0.0
H2409 H 0.71806 0.4445 0.46273 0.0
H2410 H 0.79551 0.41377 0.4558 0.0
H2411 H 0.82927 0.38356 0.45716 0.0
H2412 H 0.81295 0.36521 0.53189 0.0
H2413 H 0.77894 0.39515 0.53085 0.0
C2414 C 0.75116 0.51698 0.51316 0.0
C2415 C 0.75639 0.51484 0.53745 0.0
C2416 C 0.74501 0.50004 0.50366 0.0
C2417 C 0.74425 0.4805 0.51822 0.0
C2418 C 0.74802 0.47904 0.54303 0.0
C2419 C 0.75394 0.4962 0.55263 0.0
C2420 C 0.74335 0.46053 0.50636 0.0
C2421 C 0.76111 0.44169 0.50787 0.0
C2422 C 0.72735 0.46132 0.49032 0.0
C2423 C 0.7077 0.48034 0.48885 0.0
C2424 C 0.69521 0.48765 0.51011 0.0
C2425 C 0.67682 0.50566 0.50869 0.0
C2426 C 0.6707 0.51647 0.48609 0.0
C2427 C 0.68293 0.50926 0.46486 0.0
C2428 C 0.70134 0.49126 0.46618 0.0
C2429 C 0.76352 0.37025 0.4471 0.0
C2430 C 0.76415 0.3773 0.42216 0.0
C2431 C 0.75727 0.38586 0.46458 0.0
C2432 C 0.75198 0.40883 0.45747 0.0
C2433 C 0.75156 0.41585 0.43255 0.0
C2434 C 0.75754 0.40025 0.41509 0.0
C2435 C 0.74862 0.42561 0.47568 0.0
C2436 C 0.73019 0.44383 0.47521 0.0
C2437 C 0.76414 0.42444 0.49251 0.0
C2438 C 0.78458 0.40648 0.49315 0.0
C2439 C 0.79906 0.40317 0.47246 0.0
C2440 C 0.81824 0.38612 0.47318 0.0
C2441 C 0.82321 0.37242 0.49457 0.0
C2442 C 0.80904 0.37579 0.51531 0.0
C2443 C 0.78982 0.3928 0.51467 0.0
H2444 H 0.83808 0.35923 0.4951 0.0
H2445 H 0.65646 0.53041 0.48503 0.0
H2446 H 0.63486 0.78574 0.5158 0.0
H2447 H 0.66108 0.78951 0.48189 0.0
H2448 H 0.65155 0.73234 0.45186 0.0
H2449 H 0.62546 0.72851 0.48547 0.0
H2450 H 0.69282 0.72868 0.45081 0.0
H2451 H 0.63121 0.78752 0.4269 0.0
H2452 H 0.60167 0.8217 0.43195 0.0
H2453 H 0.64732 0.85831 0.44022 0.0
H2454 H 0.67714 0.82425 0.43554 0.0
H2455 H 0.74747 0.73807 0.33406 0.0
H2456 H 0.72016 0.73697 0.3672 0.0
H2457 H 0.73114 0.79462 0.3946 0.0
H2458 H 0.75773 0.79661 0.36041 0.0
H2459 H 0.68975 0.79827 0.39796 0.0
H2460 H 0.74495 0.73419 0.4436 0.0
H2461 H 0.77343 0.69857 0.44487 0.0
H2462 H 0.74007 0.67276 0.39633 0.0
H2463 H 0.71078 0.70777 0.39603 0.0
C2464 C 0.63815 0.77409 0.50188 0.0
C2465 C 0.62797 0.75673 0.50368 0.0
C2466 C 0.6532 0.77628 0.48238 0.0
C2467 C 0.65835 0.7613 0.46402 0.0
C2468 C 0.64807 0.74409 0.46573 0.0
C2469 C 0.63312 0.74187 0.48516 0.0
C2470 C 0.67488 0.76289 0.44345 0.0
C2471 C 0.69189 0.74388 0.4391 0.0
C2472 C 0.67428 0.78278 0.42838 0.0
C2473 C 0.65639 0.80328 0.43111 0.0
C2474 C 0.63494 0.80282 0.42998 0.0
C2475 C 0.61815 0.82218 0.43274 0.0
C2476 C 0.62261 0.84215 0.43647 0.0
C2477 C 0.64388 0.84282 0.43737 0.0
C2478 C 0.66074 0.82349 0.43464 0.0
C2479 C 0.74408 0.75058 0.34709 0.0
C2480 C 0.75492 0.76742 0.34449 0.0
C2481 C 0.72867 0.74965 0.36645 0.0
C2482 C 0.72401 0.76509 0.38429 0.0
C2483 C 0.73448 0.78226 0.3814 0.0
C2484 C 0.74965 0.78348 0.36171 0.0
C2485 C 0.70757 0.76395 0.40515 0.0
C2486 C 0.69062 0.78308 0.40965 0.0
C2487 C 0.70813 0.74417 0.42043 0.0
C2488 C 0.72622 0.72385 0.41897 0.0
C2489 C 0.74389 0.721 0.43295 0.0
C2490 C 0.76001 0.70083 0.43375 0.0
C2491 C 0.75882 0.68358 0.42027 0.0
C2492 C 0.74116 0.68625 0.40648 0.0
C2493 C 0.72471 0.70616 0.40616 0.0
H2494 H 0.77144 0.66808 0.42073 0.0
H2495 H 0.60959 0.85712 0.43861 0.0
H2496 H 0.33982 0.57887 0.476 0.0
H2497 H 0.33314 0.6151 0.45299 0.0
H2498 H 0.26988 0.61133 0.43946 0.0
H2499 H 0.27679 0.57457 0.46141 0.0
H2500 H 0.28669 0.62628 0.39992 0.0
H2501 H 0.27835 0.64659 0.48105 0.0
H2502 H 0.28741 0.64635 0.52335 0.0
H2503 H 0.34349 0.66802 0.4978 0.0
H2504 H 0.33492 0.66814 0.45531 0.0
H2505 H 0.25695 0.73827 0.34751 0.0
H2506 H 0.2576 0.70565 0.3762 0.0
H2507 H 0.32307 0.70116 0.39011 0.0
H2508 H 0.32229 0.73412 0.36208 0.0
H2509 H 0.30184 0.69151 0.43108 0.0
H2510 H 0.30662 0.67189 0.34837 0.0
H2511 H 0.29458 0.67264 0.30733 0.0
H2512 H 0.23975 0.65104 0.33819 0.0
H2513 H 0.25149 0.65031 0.37942 0.0
C2514 C 0.32451 0.58553 0.46805 0.0
C2515 C 0.30889 0.57347 0.47078 0.0
C2516 C 0.32059 0.60654 0.45508 0.0
C2517 C 0.30084 0.61629 0.44472 0.0
C2518 C 0.28523 0.60433 0.44732 0.0
C2519 C 0.28919 0.58324 0.46014 0.0
C2520 C 0.29677 0.63855 0.43047 0.0
C2521 C 0.28963 0.64065 0.40694 0.0
C2522 C 0.30075 0.65737 0.43943 0.0
C2523 C 0.30609 0.65717 0.46496 0.0
C2524 C 0.29272 0.65112 0.48443 0.0
C2525 C 0.29774 0.65105 0.50845 0.0
C2526 C 0.31604 0.65711 0.51326 0.0
C2527 C 0.32933 0.6633 0.49405 0.0
C2528 C 0.32438 0.66341 0.46999 0.0
C2529 C 0.27141 0.7305 0.35688 0.0
C2530 C 0.28959 0.73882 0.35236 0.0
C2531 C 0.27179 0.71175 0.37324 0.0
C2532 C 0.29054 0.70055 0.38503 0.0
C2533 C 0.30842 0.70937 0.38125 0.0
C2534 C 0.30795 0.72828 0.36515 0.0
C2535 C 0.29202 0.67913 0.40042 0.0
C2536 C 0.29871 0.67719 0.42416 0.0
C2537 C 0.28709 0.6606 0.39185 0.0
C2538 C 0.27998 0.66112 0.36701 0.0
C2539 C 0.29205 0.66728 0.34639 0.0
C2540 C 0.28524 0.66775 0.32309 0.0
C2541 C 0.26639 0.6619 0.32014 0.0
C2542 C 0.25434 0.65557 0.34049 0.0
C2543 C 0.2611 0.65512 0.36383 0.0
H2544 H 0.26113 0.66227 0.30209 0.0
H2545 H 0.31991 0.65703 0.53186 0.0
H2546 H 0.48342 0.24501 0.44107 0.0
H2547 H 0.45296 0.25351 0.4157 0.0
H2548 H 0.4157 0.30033 0.46566 0.0
H2549 H 0.44661 0.29204 0.4912 0.0
H2550 H 0.3945 0.26918 0.45424 0.0
H2551 H 0.43051 0.31992 0.4111 0.0
H2552 H 0.46101 0.3321 0.38998 0.0
H2553 H 0.46751 0.28508 0.33662 0.0
H2554 H 0.43724 0.27236 0.35763 0.0
H2555 H 0.30493 0.30222 0.38276 0.0
H2556 H 0.33542 0.30275 0.40511 0.0
H2557 H 0.37876 0.26264 0.35297 0.0
H2558 H 0.34802 0.26264 0.33 0.0
H2559 H 0.39635 0.29298 0.36598 0.0
H2560 H 0.36308 0.23997 0.41011 0.0
H2561 H 0.3333 0.22641 0.43108 0.0
H2562 H 0.32268 0.27588 0.48252 0.0
H2563 H 0.35223 0.28993 0.46164 0.0
C2564 C 0.46888 0.25741 0.44653 0.0
C2565 C 0.46748 0.26787 0.46818 0.0
C2566 C 0.45145 0.26231 0.4319 0.0
C2567 C 0.43197 0.27762 0.43862 0.0
C2568 C 0.43058 0.28849 0.46002 0.0
C2569 C 0.44827 0.28387 0.47453 0.0
C2570 C 0.41289 0.28091 0.42399 0.0
C2571 C 0.39473 0.27485 0.43506 0.0
C2572 C 0.41341 0.28753 0.39872 0.0
C2573 C 0.43171 0.29504 0.38609 0.0
C2574 C 0.43857 0.31201 0.395 0.0
C2575 C 0.45579 0.31905 0.38301 0.0
C2576 C 0.46622 0.30933 0.36201 0.0
C2577 C 0.45943 0.29258 0.35292 0.0
C2578 C 0.44222 0.28546 0.36484 0.0
C2579 C 0.32095 0.29353 0.37596 0.0
C2580 C 0.32401 0.28212 0.35476 0.0
C2581 C 0.33843 0.29377 0.38886 0.0
C2582 C 0.35949 0.28227 0.3812 0.0
C2583 C 0.3627 0.27151 0.35946 0.0
C2584 C 0.34513 0.27145 0.34634 0.0
C2585 C 0.37793 0.28118 0.39621 0.0
C2586 C 0.39601 0.28752 0.3852 0.0
C2587 C 0.37746 0.27459 0.42153 0.0
C2588 C 0.35972 0.26615 0.43416 0.0
C2589 C 0.35429 0.24806 0.42578 0.0
C2590 C 0.33747 0.24027 0.43767 0.0
C2591 C 0.32607 0.25031 0.45808 0.0
C2592 C 0.3315 0.26814 0.46669 0.0
C2593 C 0.34829 0.27601 0.45484 0.0
H2594 H 0.31305 0.24425 0.46726 0.0
H2595 H 0.47954 0.31482 0.35274 0.0
H2596 H 0.58931 0.81468 0.6325 0.0
H2597 H 0.6121 0.82195 0.66226 0.0
H2598 H 0.65995 0.76072 0.64719 0.0
H2599 H 0.6375 0.75332 0.61815 0.0
H2600 H 0.64774 0.76273 0.69493 0.0
H2601 H 0.66766 0.81164 0.62828 0.0
H2602 H 0.66025 0.84401 0.59788 0.0
H2603 H 0.63585 0.88792 0.65482 0.0
H2604 H 0.64285 0.85574 0.68555 0.0
H2605 H 0.75081 0.75856 0.72894 0.0
H2606 H 0.71799 0.76083 0.70926 0.0
H2607 H 0.68463 0.81854 0.74748 0.0
H2608 H 0.71755 0.81584 0.76798 0.0
H2609 H 0.68187 0.82442 0.69533 0.0
H2610 H 0.66771 0.77487 0.76201 0.0
H2611 H 0.66977 0.74242 0.79185 0.0
H2612 H 0.6819 0.69899 0.73393 0.0
H2613 H 0.68045 0.73104 0.70377 0.0
C2614 C 0.60483 0.80299 0.63538 0.0
C2615 C 0.61146 0.78326 0.62326 0.0
C2616 C 0.61784 0.80718 0.65231 0.0
C2617 C 0.63767 0.79178 0.65708 0.0
C2618 C 0.64464 0.77273 0.64402 0.0
C2619 C 0.63171 0.7685 0.62742 0.0
C2620 C 0.65073 0.7939 0.67694 0.0
C2621 C 0.65538 0.77613 0.69491 0.0
C2622 C 0.65973 0.81198 0.67765 0.0
C2623 C 0.6555 0.83126 0.65917 0.0
C2624 C 0.6605 0.82817 0.6343 0.0
C2625 C 0.65643 0.84649 0.61701 0.0
C2626 C 0.64751 0.868 0.6244 0.0
C2627 C 0.64271 0.87124 0.64911 0.0
C2628 C 0.64673 0.85297 0.66647 0.0
C2629 C 0.73638 0.77153 0.73345 0.0
C2630 C 0.73669 0.7871 0.74986 0.0
C2631 C 0.71761 0.77276 0.72227 0.0
C2632 C 0.69884 0.78985 0.72688 0.0
C2633 C 0.69893 0.80519 0.74372 0.0
C2634 C 0.71767 0.8036 0.75545 0.0
C2635 C 0.67997 0.7924 0.71242 0.0
C2636 C 0.67409 0.81111 0.69557 0.0
C2637 C 0.66997 0.77498 0.71245 0.0
C2638 C 0.67399 0.75541 0.73062 0.0
C2639 C 0.67129 0.75836 0.75565 0.0
C2640 C 0.67219 0.74002 0.77262 0.0
C2641 C 0.67571 0.71871 0.76474 0.0
C2642 C 0.67893 0.71555 0.73996 0.0
C2643 C 0.6782 0.73377 0.72295 0.0
H2644 H 0.67613 0.70452 0.77774 0.0
H2645 H 0.64437 0.88216 0.611 0.0
H2646 H 0.5907 0.21378 0.43668 0.0
H2647 H 0.62391 0.21842 0.41486 0.0
H2648 H 0.62275 0.27198 0.45858 0.0
H2649 H 0.58965 0.26731 0.48066 0.0
H2650 H 0.63292 0.28222 0.41079 0.0
H2651 H 0.65627 0.22136 0.47058 0.0
H2652 H 0.65694 0.18511 0.49313 0.0
H2653 H 0.67664 0.15224 0.42714 0.0
H2654 H 0.67579 0.18836 0.40412 0.0
H2655 H 0.73958 0.28691 0.37834 0.0
H2656 H 0.70825 0.28081 0.40319 0.0
H2657 H 0.70643 0.2287 0.35882 0.0
H2658 H 0.73791 0.23453 0.33393 0.0
H2659 H 0.69813 0.21806 0.40782 0.0
H2660 H 0.6744 0.27958 0.34808 0.0
H2661 H 0.67505 0.31583 0.32629 0.0
H2662 H 0.65666 0.34771 0.393 0.0
H2663 H 0.65629 0.31156 0.4153 0.0
C2664 C 0.59756 0.22645 0.44178 0.0
C2665 C 0.5875 0.2401 0.4605 0.0
C2666 C 0.61652 0.22912 0.42925 0.0
C2667 C 0.62592 0.2454 0.43527 0.0
C2668 C 0.61574 0.25935 0.45361 0.0
C2669 C 0.59676 0.25669 0.46616 0.0
C2670 C 0.64651 0.24766 0.4226 0.0
C2671 C 0.64725 0.26828 0.41041 0.0
C2672 C 0.66512 0.22937 0.42179 0.0
C2673 C 0.66576 0.2076 0.43559 0.0
C2674 C 0.66058 0.20642 0.46084 0.0
C2675 C 0.66102 0.1859 0.47371 0.0
C2676 C 0.66677 0.16639 0.46156 0.0
C2677 C 0.67216 0.16737 0.43652 0.0
C2678 C 0.67172 0.18786 0.42356 0.0
C2679 C 0.73272 0.27393 0.37403 0.0
C2680 C 0.74114 0.26133 0.354 0.0
C2681 C 0.71476 0.27054 0.38821 0.0
C2682 C 0.70483 0.25456 0.38259 0.0
C2683 C 0.71382 0.24119 0.36339 0.0
C2684 C 0.73178 0.24458 0.34915 0.0
C2685 C 0.68448 0.25255 0.39596 0.0
C2686 C 0.68379 0.23199 0.40825 0.0
C2687 C 0.66594 0.27092 0.39691 0.0
C2688 C 0.66551 0.29281 0.38341 0.0
C2689 C 0.6706 0.29429 0.35814 0.0
C2690 C 0.67093 0.31482 0.34569 0.0
C2691 C 0.66596 0.33405 0.35825 0.0
C2692 C 0.66054 0.33279 0.38329 0.0
C2693 C 0.66026 0.31229 0.39584 0.0
H2694 H 0.66626 0.34992 0.34859 0.0
H2695 H 0.6671 0.15051 0.47156 0.0
H2696 H 0.81151 0.58315 0.45665 0.0
H2697 H 0.82647 0.60716 0.4264 0.0
H2698 H 0.84131 0.64083 0.48397 0.0
H2699 H 0.82642 0.61647 0.51435 0.0
H2700 H 0.81524 0.6691 0.45021 0.0
H2701 H 0.8816 0.61178 0.44863 0.0
H2702 H 0.90491 0.57351 0.44577 0.0
H2703 H 0.88527 0.5729 0.37399 0.0
H2704 H 0.86159 0.61106 0.37654 0.0
H2705 H 0.8459 0.74759 0.36969 0.0
H2706 H 0.85209 0.71588 0.40014 0.0
H2707 H 0.84172 0.67414 0.34768 0.0
H2708 H 0.83723 0.70568 0.31645 0.0
H2709 H 0.8691 0.64954 0.3806 0.0
H2710 H 0.80033 0.70316 0.38312 0.0
H2711 H 0.77599 0.74096 0.3842 0.0
H2712 H 0.7977 0.74747 0.45321 0.0
H2713 H 0.82269 0.70974 0.45233 0.0
C2714 C 0.81861 0.59523 0.46279 0.0
C2715 C 0.81791 0.59799 0.48773 0.0
C2716 C 0.82718 0.6089 0.44555 0.0
C2717 C 0.83506 0.62577 0.45291 0.0
C2718 C 0.83541 0.62782 0.47792 0.0
C2719 C 0.82708 0.61386 0.49524 0.0
C2720 C 0.84019 0.64286 0.43445 0.0
C2721 C 0.82743 0.66491 0.43536 0.0
C2722 C 0.85544 0.63721 0.41448 0.0
C2723 C 0.86969 0.61425 0.41286 0.0
C2724 C 0.88211 0.60343 0.43231 0.0
C2725 C 0.89542 0.58176 0.43073 0.0
C2726 C 0.89654 0.57077 0.40973 0.0
C2727 C 0.88438 0.58144 0.39025 0.0
C2728 C 0.87103 0.6031 0.39174 0.0
C2729 C 0.84551 0.73151 0.36444 0.0
C2730 C 0.84031 0.72921 0.34098 0.0
C2731 C 0.84903 0.71339 0.38188 0.0
C2732 C 0.84657 0.69283 0.37648 0.0
C2733 C 0.84339 0.68992 0.35239 0.0
C2734 C 0.84054 0.70799 0.33463 0.0
C2735 C 0.8443 0.67574 0.39658 0.0
C2736 C 0.85729 0.65375 0.39578 0.0
C2737 C 0.829 0.68129 0.41654 0.0
C2738 C 0.81359 0.70373 0.41751 0.0
C2739 C 0.80011 0.71273 0.39841 0.0
C2740 C 0.78622 0.73419 0.39895 0.0
C2741 C 0.78539 0.74673 0.41864 0.0
C2742 C 0.79843 0.73778 0.43791 0.0
C2743 C 0.81249 0.71635 0.4374 0.0
H2744 H 0.7745 0.76331 0.41904 0.0
H2745 H 0.90686 0.55399 0.40854 0.0
H2746 H 0.53906 0.79896 0.48882 0.0
H2747 H 0.50637 0.81046 0.46717 0.0
H2748 H 0.46924 0.83099 0.53371 0.0
H2749 H 0.50228 0.81918 0.55566 0.0
H2750 H 0.45507 0.80096 0.51381 0.0
H2751 H 0.46996 0.86931 0.48453 0.0
H2752 H 0.49192 0.8943 0.46699 0.0
H2753 H 0.50442 0.86117 0.40089 0.0
H2754 H 0.4828 0.83576 0.41813 0.0
H2755 H 0.36559 0.81448 0.44128 0.0
H2756 H 0.39042 0.82131 0.46822 0.0
H2757 H 0.44241 0.80349 0.41313 0.0
H2758 H 0.41751 0.79783 0.38563 0.0
H2759 H 0.44329 0.84046 0.43187 0.0
H2760 H 0.43529 0.76788 0.46437 0.0
H2761 H 0.41492 0.74138 0.48198 0.0
H2762 H 0.39079 0.7817 0.54201 0.0
H2763 H 0.41083 0.8086 0.52457 0.0
C2764 C 0.52403 0.80667 0.49867 0.0
C2765 C 0.52313 0.80814 0.52388 0.0
C2766 C 0.50533 0.81335 0.48625 0.0
C2767 C 0.48532 0.82165 0.49878 0.0
C2768 C 0.48454 0.8247 0.52369 0.0
C2769 C 0.5034 0.81813 0.53616 0.0
C2770 C 0.46545 0.8236 0.48648 0.0
C2771 C 0.45209 0.81015 0.4962 0.0
C2772 C 0.46186 0.83517 0.46328 0.0
C2773 C 0.47476 0.85057 0.45268 0.0
C2774 C 0.47748 0.86726 0.4663 0.0
C2775 C 0.48986 0.88152 0.4564 0.0
C2776 C 0.49956 0.87932 0.43284 0.0
C2777 C 0.49687 0.86288 0.41912 0.0
C2778 C 0.4845 0.84857 0.42893 0.0
C2779 C 0.3823 0.81205 0.43486 0.0
C2780 C 0.38952 0.80561 0.41123 0.0
C2781 C 0.39651 0.81582 0.45038 0.0
C2782 C 0.4183 0.81287 0.44273 0.0
C2783 C 0.42564 0.80596 0.41939 0.0
C2784 C 0.41143 0.80239 0.4038 0.0
C2785 C 0.43357 0.81712 0.4588 0.0
C2786 C 0.44596 0.83176 0.44975 0.0
C2787 C 0.43637 0.80654 0.48256 0.0
C2788 C 0.42433 0.79038 0.49301 0.0
C2789 C 0.42549 0.77119 0.48121 0.0
C2790 C 0.41404 0.75608 0.49119 0.0
C2791 C 0.40151 0.75989 0.51306 0.0
C2792 C 0.40046 0.7788 0.52504 0.0
C2793 C 0.41187 0.79397 0.51513 0.0
H2794 H 0.39266 0.74817 0.52075 0.0
H2795 H 0.50916 0.89036 0.42522 0.0
H2796 H 0.25247 0.4692 0.4834 0.0
H2797 H 0.24135 0.44738 0.45515 0.0
H2798 H 0.29637 0.45073 0.4062 0.0
H2799 H 0.30746 0.47248 0.43409 0.0
H2800 H 0.26051 0.45601 0.38156 0.0
H2801 H 0.29827 0.40589 0.44573 0.0
H2802 H 0.30412 0.39135 0.48837 0.0
H2803 H 0.24181 0.37902 0.49645 0.0
H2804 H 0.23548 0.39378 0.45391 0.0
H2805 H 0.29194 0.36001 0.31651 0.0
H2806 H 0.287 0.39109 0.34155 0.0
H2807 H 0.23211 0.37434 0.38064 0.0
H2808 H 0.23709 0.34292 0.35579 0.0
H2809 H 0.26008 0.37857 0.41124 0.0
H2810 H 0.22548 0.42272 0.34397 0.0
H2811 H 0.22081 0.43636 0.30093 0.0
H2812 H 0.27754 0.45946 0.29807 0.0
H2813 H 0.28274 0.44568 0.34101 0.0
C2814 C 0.262 0.46555 0.46645 0.0
C2815 C 0.28095 0.4724 0.46107 0.0
C2816 C 0.25567 0.45303 0.45038 0.0
C2817 C 0.26815 0.44727 0.42867 0.0
C2818 C 0.28649 0.45499 0.42282 0.0
C2819 C 0.29287 0.46733 0.43887 0.0
C2820 C 0.26317 0.432 0.41266 0.0
C2821 C 0.2604 0.43907 0.388 0.0
C2822 C 0.26249 0.41008 0.42122 0.0
C2823 C 0.26628 0.40121 0.44677 0.0
C2824 C 0.28574 0.40026 0.45667 0.0
C2825 C 0.28916 0.39195 0.4808 0.0
C2826 C 0.27332 0.38434 0.49514 0.0
C2827 C 0.25404 0.38497 0.48534 0.0
C2828 C 0.25053 0.39331 0.46123 0.0
C2829 C 0.27855 0.36314 0.3301 0.0
C2830 C 0.26497 0.34888 0.33418 0.0
C2831 C 0.27568 0.38102 0.34437 0.0
C2832 C 0.2591 0.38514 0.36292 0.0
C2833 C 0.24499 0.37149 0.36641 0.0
C2834 C 0.24781 0.35359 0.3521 0.0
C2835 C 0.25789 0.40239 0.37993 0.0
C2836 C 0.25959 0.39567 0.40481 0.0
C2837 C 0.25766 0.4246 0.37153 0.0
C2838 C 0.25456 0.43304 0.34571 0.0
C2839 C 0.23704 0.43057 0.33412 0.0
C2840 C 0.23429 0.43835 0.30975 0.0
C2841 C 0.24888 0.44874 0.29676 0.0
C2842 C 0.26625 0.45141 0.30815 0.0
C2843 C 0.26909 0.44365 0.33253 0.0
H2844 H 0.24672 0.45475 0.27789 0.0
H2845 H 0.276 0.3779 0.51381 0.0
H2846 H 0.44572 0.24468 0.57601 0.0
H2847 H 0.41984 0.24645 0.61146 0.0
H2848 H 0.47149 0.21209 0.65681 0.0
H2849 H 0.49715 0.20969 0.62132 0.0
H2850 H 0.43911 0.19664 0.66997 0.0
H2851 H 0.44793 0.27091 0.65348 0.0
H2852 H 0.44751 0.30617 0.62883 0.0
H2853 H 0.38023 0.31745 0.61952 0.0
H2854 H 0.38031 0.28212 0.64385 0.0
H2855 H 0.36647 0.26869 0.77015 0.0
H2856 H 0.39449 0.26229 0.73705 0.0
H2857 H 0.36987 0.21093 0.71379 0.0
H2858 H 0.342 0.21693 0.74715 0.0
H2859 H 0.3892 0.26918 0.69028 0.0
H2860 H 0.41009 0.17381 0.68351 0.0
H2861 H 0.41235 0.13939 0.71042 0.0
H2862 H 0.42408 0.1718 0.7704 0.0
H2863 H 0.42216 0.2063 0.74378 0.0
C2864 C 0.45147 0.2375 0.59357 0.0
C2865 C 0.47343 0.22706 0.59591 0.0
C2866 C 0.43671 0.23857 0.61384 0.0
C2867 C 0.44372 0.22972 0.63697 0.0
C2868 C 0.46563 0.219 0.63921 0.0
C2869 C 0.4803 0.2176 0.6189 0.0
C2870 C 0.4284 0.23178 0.65893 0.0
C2871 C 0.4282 0.21252 0.67437 0.0
C2872 C 0.41425 0.25251 0.66494 0.0
C2873 C 0.41419 0.27374 0.65026 0.0
C2874 C 0.43309 0.28083 0.64602 0.0
C2875 C 0.4329 0.30084 0.63213 0.0
C2876 C 0.41387 0.31401 0.62256 0.0
C2877 C 0.39497 0.30722 0.62691 0.0
C2878 C 0.39507 0.28721 0.64075 0.0
C2879 C 0.36724 0.2557 0.75832 0.0
C2880 C 0.35194 0.24333 0.76136 0.0
C2881 C 0.38322 0.25216 0.73929 0.0
C2882 C 0.3843 0.23617 0.72287 0.0
C2883 C 0.36955 0.22319 0.72638 0.0
C2884 C 0.35361 0.22664 0.74552 0.0
C2885 C 0.40001 0.23408 0.70131 0.0
C2886 C 0.40015 0.25331 0.68587 0.0
C2887 C 0.41436 0.21343 0.69556 0.0
C2888 C 0.41576 0.1927 0.71169 0.0
C2889 C 0.41322 0.17356 0.70242 0.0
C2890 C 0.41443 0.15404 0.71763 0.0
C2891 C 0.41828 0.15343 0.74212 0.0
C2892 C 0.42101 0.17232 0.75145 0.0
C2893 C 0.41983 0.19187 0.73632 0.0
H2894 H 0.4192 0.13831 0.75387 0.0
H2895 H 0.41376 0.3295 0.61183 0.0
H2896 H 0.85412 0.47484 0.62673 0.0
H2897 H 0.85354 0.44085 0.65289 0.0
H2898 H 0.79751 0.43678 0.61933 0.0
H2899 H 0.79818 0.47036 0.59306 0.0
H2900 H 0.79176 0.43352 0.66866 0.0
H2901 H 0.84589 0.40053 0.60754 0.0
H2902 H 0.87988 0.3961 0.58211 0.0
H2903 H 0.91535 0.38198 0.64621 0.0
H2904 H 0.88152 0.38662 0.67205 0.0
H2905 H 0.78269 0.32802 0.71926 0.0
H2906 H 0.78777 0.35856 0.69015 0.0
H2907 H 0.84547 0.35802 0.72339 0.0
H2908 H 0.84075 0.32727 0.75231 0.0
H2909 H 0.85117 0.36391 0.67509 0.0
H2910 H 0.79814 0.39594 0.7364 0.0
H2911 H 0.76461 0.40122 0.7628 0.0
H2912 H 0.72748 0.41859 0.69999 0.0
H2913 H 0.76081 0.41292 0.67315 0.0
C2914 C 0.84195 0.46646 0.62463 0.0
C2915 C 0.82605 0.47549 0.60799 0.0
C2916 C 0.84158 0.44707 0.63964 0.0
C2917 C 0.8254 0.43632 0.63816 0.0
C2918 C 0.81 0.4449 0.62099 0.0
C2919 C 0.81039 0.46416 0.60602 0.0
C2920 C 0.82376 0.41673 0.65513 0.0
C2921 C 0.80463 0.41818 0.66983 0.0
C2922 C 0.84082 0.39699 0.65723 0.0
C2923 C 0.86116 0.39416 0.64172 0.0
C2924 C 0.86092 0.39667 0.61622 0.0
C2925 C 0.88016 0.39408 0.60173 0.0
C2926 C 0.89976 0.38883 0.61254 0.0
C2927 C 0.90016 0.38609 0.63786 0.0
C2928 C 0.88096 0.38867 0.65244 0.0
C2929 C 0.79659 0.33423 0.72026 0.0
C2930 C 0.81123 0.32522 0.73826 0.0
C2931 C 0.7994 0.35179 0.70366 0.0
C2932 C 0.81682 0.36084 0.70481 0.0
C2933 C 0.83188 0.35137 0.72218 0.0
C2934 C 0.8291 0.33379 0.73876 0.0
C2935 C 0.81902 0.38057 0.68838 0.0
C2936 C 0.83826 0.37922 0.67389 0.0
C2937 C 0.80212 0.40052 0.68662 0.0
C2938 C 0.78201 0.40377 0.70273 0.0
C2939 C 0.78284 0.40065 0.72819 0.0
C2940 C 0.76387 0.40374 0.74324 0.0
C2941 C 0.74394 0.41021 0.73307 0.0
C2942 C 0.74294 0.41355 0.70783 0.0
C2943 C 0.76187 0.41038 0.69269 0.0
H2944 H 0.72928 0.41271 0.74474 0.0
H2945 H 0.91464 0.38683 0.60129 0.0
H2946 H 0.28567 0.52607 0.60968 0.0
H2947 H 0.27394 0.55884 0.63289 0.0
H2948 H 0.23794 0.59585 0.5732 0.0
H2949 H 0.24967 0.56278 0.54979 0.0
H2950 H 0.26749 0.61558 0.58668 0.0
H2951 H 0.21111 0.58787 0.62647 0.0
H2952 H 0.19397 0.55997 0.64775 0.0
H2953 H 0.23471 0.55128 0.70681 0.0
H2954 H 0.25233 0.57888 0.68574 0.0
H2955 H 0.24676 0.70864 0.66074 0.0
H2956 H 0.24288 0.68091 0.63461 0.0
H2957 H 0.27606 0.62809 0.68492 0.0
H2958 H 0.27931 0.65559 0.71147 0.0
H2959 H 0.23976 0.6207 0.67301 0.0
H2960 H 0.29979 0.64327 0.63049 0.0
H2961 H 0.31902 0.66904 0.60834 0.0
H2962 H 0.27303 0.6857 0.55378 0.0
H2963 H 0.25327 0.66034 0.57587 0.0
C2964 C 0.2747 0.54098 0.60181 0.0
C2965 C 0.2686 0.54199 0.57799 0.0
C2966 C 0.26793 0.55968 0.61511 0.0
C2967 C 0.25504 0.57976 0.60477 0.0
C2968 C 0.24782 0.58045 0.5815 0.0
C2969 C 0.25439 0.56156 0.56824 0.0
C2970 C 0.2519 0.60043 0.61708 0.0
C2971 C 0.26085 0.61709 0.60535 0.0
C2972 C 0.24372 0.60201 0.64158 0.0
C2973 C 0.23311 0.58542 0.65444 0.0
C2974 C 0.21652 0.57991 0.64392 0.0
C2975 C 0.2067 0.56416 0.65596 0.0
C2976 C 0.21326 0.55385 0.67861 0.0
C2977 C 0.22963 0.5593 0.68927 0.0
C2978 C 0.23952 0.57503 0.6773 0.0
C2979 C 0.25327 0.69111 0.66619 0.0
C2980 C 0.26331 0.68431 0.68822 0.0
C2981 C 0.25116 0.67531 0.65117 0.0
C2982 C 0.25917 0.65245 0.65784 0.0
C2983 C 0.26969 0.64566 0.67948 0.0
C2984 C 0.27177 0.66141 0.6945 0.0
C2985 C 0.25606 0.63542 0.64288 0.0
C2986 C 0.24591 0.61951 0.65415 0.0
C2987 C 0.26328 0.63446 0.61799 0.0
C2988 C 0.27482 0.65019 0.60509 0.0
C2989 C 0.29358 0.65268 0.61398 0.0
C2990 C 0.30461 0.66717 0.60139 0.0
C2991 C 0.29718 0.6791 0.57974 0.0
C2992 C 0.2787 0.67655 0.57063 0.0
C2993 C 0.26757 0.66214 0.58318 0.0
H2994 H 0.30579 0.69023 0.56997 0.0
H2995 H 0.20564 0.54165 0.6879 0.0
loop_
_geom_bond_atom_site_label_1
_geom_bond_atom_site_label_2
_geom_bond_distance
_geom_bond_site_symmetry_2
_ccdc_geom_bond_type
Cu0 N1 1.999 . S
Cu0 O6 1.974 1_545 S
Cu0 N11 1.985 1_545 S
Cu0 O20 1.959 . S
N1 Cu0 1.999 . S
N1 C3 1.263 . S
N1 C5 1.389 . S
N2 C3 1.358 . S
N2 C4 1.400 . S
C3 N1 1.263 . S
C3 N2 1.358 . S
C3 H9 0.930 . S
C4 N2 1.400 . S
C4 C5 1.351 . S
C4 H21 0.930 . S
C5 N1 1.389 . S
C5 C4 1.351 . S
C5 H10 0.930 . S
O6 Cu0 1.974 1_565 S
O6 C16 1.282 . S
C7 O8 1.261 1_655 S
C7 O20 1.251 1_655 S
O8 C7 1.261 1_455 S
H9 C3 0.930 . S
H10 C5 0.930 . S
N11 Cu0 1.985 1_565 S
N11 C13 1.335 1_455 S
N11 C14 1.390 . S
N12 C13 1.345 . S
N12 C15 1.336 1_655 S
C13 N11 1.335 1_655 S
C13 N12 1.345 . S
C13 H18 0.930 . S
C14 N11 1.390 . S
C14 C15 1.346 . S
C14 H19 0.930 . S
C15 N12 1.336 1_455 S
C15 C14 1.346 . S
C15 H22 0.929 . S
C16 O6 1.282 . S
C16 O17 1.216 . S
O17 C16 1.216 . S
H18 C13 0.930 . S
H19 C14 0.930 . S
O20 Cu0 1.959 . S
O20 C7 1.251 1_455 S
H21 C4 0.930 . S
H22 C15 0.929 . S
Cu23 N24 1.999 1_455 S
Cu23 O29 1.974 1_455 S
Cu23 N34 1.985 . S
Cu23 O43 1.959 . S
N24 Cu23 1.999 1_655 S
N24 C26 1.263 . S
N24 C28 1.389 1_645 S
N25 C26 1.358 1_565 S
N25 C27 1.400 . S
C26 N24 1.263 . S
C26 N25 1.358 1_545 S
C26 H32 0.930 . S
C27 N25 1.400 . S
C27 C28 1.351 1_655 S
C27 H44 0.930 . S
C28 N24 1.389 1_465 S
C28 C27 1.351 1_455 S
C28 H33 0.930 . S
O29 Cu23 1.974 1_655 S
O29 C39 1.282 . S
C30 O31 1.261 . S
C30 O43 1.251 . S
O31 C30 1.261 . S
H32 C26 0.930 . S
H33 C28 0.930 . S
N34 Cu23 1.985 . S
N34 C36 1.335 . S
N34 C37 1.390 . S
N35 C36 1.345 . S
N35 C38 1.336 . S
C36 N34 1.335 . S
C36 N35 1.345 . S
C36 H41 0.930 . S
C37 N34 1.390 . S
C37 C38 1.346 . S
C37 H42 0.930 . S
C38 N35 1.336 . S
C38 C37 1.346 . S
C38 H45 0.929 . S
C39 O29 1.282 . S
C39 O40 1.216 . S
O40 C39 1.216 . S
H41 C36 0.930 . S
H42 C37 0.930 . S
O43 Cu23 1.959 . S
O43 C30 1.251 . S
H44 C27 0.930 . S
H45 C38 0.929 . S
Cu46 N47 1.999 . S
Cu46 O52 1.974 . S
Cu46 N57 1.985 . S
Cu46 O66 1.959 . S
N47 Cu46 1.999 . S
N47 C49 1.275 . S
N47 C51 1.389 . S
N48 C49 1.351 1_565 S
N48 C50 1.400 1_565 S
C49 N47 1.275 . S
C49 N48 1.351 1_545 S
C49 H55 0.925 1_545 S
C50 N48 1.400 1_545 S
C50 C51 1.351 . S
C50 H67 0.930 1_544 S
C51 N47 1.389 . S
C51 C50 1.351 . S
C51 H56 0.930 . S
O52 Cu46 1.974 . S
O52 C62 1.282 . S
C53 O54 1.261 . S
C53 O66 1.251 . S
O54 C53 1.261 . S
H55 C49 0.925 1_565 S
H56 C51 0.930 . S
N57 Cu46 1.985 . S
N57 C59 1.335 . S
N57 C60 1.390 . S
N58 C59 1.345 . S
N58 C61 1.336 . S
C59 N57 1.335 . S
C59 N58 1.345 . S
C59 H64 0.930 . S
C60 N57 1.390 . S
C60 C61 1.346 . S
C60 H65 0.930 . S
C61 N58 1.336 . S
C61 C60 1.346 . S
C61 H68 0.929 . S
C62 O52 1.282 . S
C62 O63 1.216 . S
O63 C62 1.216 . S
H64 C59 0.930 . S
H65 C60 0.930 . S
O66 Cu46 1.959 . S
O66 C53 1.251 . S
H67 C50 0.930 1_566 S
H68 C61 0.929 . S
Cu69 N70 1.999 . S
Cu69 O75 1.974 . S
Cu69 N80 1.985 . S
Cu69 O89 1.959 . S
N70 Cu69 1.999 . S
N70 C72 1.263 . S
N70 C74 1.389 . S
N71 C72 1.358 . S
N71 C73 1.400 1_554 S
C72 N70 1.263 . S
C72 N71 1.358 . S
C72 H78 0.930 . S
C73 N71 1.400 1_556 S
C73 C74 1.351 1_556 S
C73 H90 0.930 . S
C74 N70 1.389 . S
C74 C73 1.351 1_554 S
C74 H79 0.930 . S
O75 Cu69 1.974 . S
O75 C85 1.282 . S
C76 O77 1.261 . S
C76 O89 1.251 . S
O77 C76 1.261 . S
H78 C72 0.930 . S
H79 C74 0.930 . S
N80 Cu69 1.985 . S
N80 C82 1.335 1_455 S
N80 C83 1.390 . S
N81 C82 1.345 . S
N81 C84 1.362 . S
C82 N80 1.335 1_655 S
C82 N81 1.345 . S
C82 H87 0.930 . S
C83 N80 1.390 . S
C83 C84 1.317 1_455 S
C83 H88 0.930 . S
C84 N81 1.362 . S
C84 C83 1.317 1_655 S
C84 H91 0.933 . S
C85 O75 1.282 . S
C85 O86 1.216 . S
O86 C85 1.216 . S
H87 C82 0.930 . S
H88 C83 0.930 . S
O89 Cu69 1.959 . S
O89 C76 1.251 . S
H90 C73 0.930 . S
H91 C84 0.933 . S
Cu92 N93 1.999 1_554 S
Cu92 O98 1.974 . S
Cu92 N103 1.985 1_545 S
Cu92 O112 1.959 1_544 S
N93 Cu92 1.999 1_556 S
N93 C95 1.263 . S
N93 C97 1.389 . S
N94 C95 1.358 . S
N94 C96 1.400 . S
C95 N93 1.263 . S
C95 N94 1.358 . S
C95 H101 0.930 . S
C96 N94 1.400 . S
C96 C97 1.351 . S
C96 H113 0.930 . S
C97 N93 1.389 . S
C97 C96 1.351 . S
C97 H102 0.930 . S
O98 Cu92 1.974 . S
O98 C108 1.282 . S
C99 O100 1.261 . S
C99 O112 1.251 . S
O100 C99 1.261 . S
H101 C95 0.930 . S
H102 C97 0.930 . S
N103 Cu92 1.985 1_565 S
N103 C105 1.335 . S
N103 C106 1.390 . S
N104 C105 1.345 . S
N104 C107 1.336 . S
C105 N103 1.335 . S
C105 N104 1.345 . S
C105 H110 0.930 . S
C106 N103 1.390 . S
C106 C107 1.346 . S
C106 H111 0.930 . S
C107 N104 1.336 . S
C107 C106 1.346 . S
C107 H114 0.929 . S
C108 O98 1.282 . S
C108 O109 1.216 . S
O109 C108 1.216 . S
H110 C105 0.930 . S
H111 C106 0.930 . S
O112 Cu92 1.959 1_566 S
O112 C99 1.251 . S
H113 C96 0.930 . S
H114 C107 0.929 . S
Cu115 N116 1.999 1_454 S
Cu115 O121 1.974 1_455 S
Cu115 N126 1.985 . S
Cu115 O135 1.959 1_554 S
N116 Cu115 1.999 1_656 S
N116 C118 1.263 . S
N116 C120 1.392 . S
N117 C118 1.358 . S
N117 C119 1.400 . S
C118 N116 1.263 . S
C118 N117 1.358 . S
C118 H124 0.954 . S
C119 N117 1.400 . S
C119 C120 1.372 . S
C119 H136 0.930 . S
C120 N116 1.392 . S
C120 C119 1.372 . S
C120 H125 0.909 1_655 S
O121 Cu115 1.974 1_655 S
O121 C131 1.282 . S
C122 O123 1.261 . S
C122 O135 1.251 . S
O123 C122 1.261 . S
H124 C118 0.954 . S
H125 C120 0.909 1_455 S
N126 Cu115 1.985 . S
N126 C128 1.335 . S
N126 C129 1.390 . S
N127 C128 1.345 . S
N127 C130 1.336 . S
C128 N126 1.335 . S
C128 N127 1.345 . S
C128 H133 0.930 . S
C129 N126 1.390 . S
C129 C130 1.346 . S
C129 H134 0.930 . S
C130 N127 1.336 . S
C130 C129 1.346 . S
C130 H137 0.929 . S
C131 O121 1.282 . S
C131 O132 1.216 . S
O132 C131 1.216 . S
H133 C128 0.930 . S
H134 C129 0.930 . S
O135 Cu115 1.959 1_556 S
O135 C122 1.251 . S
H136 C119 0.930 . S
H137 C130 0.929 . S
Cu138 N139 1.999 . S
Cu138 O144 1.974 . S
Cu138 N149 1.985 . S
Cu138 O158 1.959 . S
N139 Cu138 1.999 . S
N139 C141 1.263 . S
N139 C143 1.389 . S
N140 C141 1.358 . S
N140 C142 1.400 . S
C141 N139 1.263 . S
C141 N140 1.358 . S
C141 H147 0.930 . S
C142 N140 1.400 . S
C142 C143 1.351 . S
C142 H159 0.930 . S
C143 N139 1.389 . S
C143 C142 1.351 . S
C143 H148 0.930 . S
O144 Cu138 1.974 . S
O144 C154 1.282 . S
C145 O146 1.261 . S
C145 O158 1.251 . S
O146 C145 1.261 . S
H147 C141 0.930 . S
H148 C143 0.930 . S
N149 Cu138 1.985 . S
N149 C151 1.335 . S
N149 C152 1.390 . S
N150 C151 1.345 . S
N150 C153 1.336 . S
C151 N149 1.335 . S
C151 N150 1.345 . S
C151 H156 0.930 . S
C152 N149 1.390 . S
C152 C153 1.346 . S
C152 H157 0.930 . S
C153 N150 1.336 . S
C153 C152 1.346 . S
C153 H160 0.929 . S
C154 O144 1.282 . S
C154 O155 1.216 . S
O155 C154 1.216 . S
H156 C151 0.930 . S
H157 C152 0.930 . S
O158 Cu138 1.959 . S
O158 C145 1.251 . S
H159 C142 0.930 . S
H160 C153 0.929 . S
Cu161 N162 1.999 . S
Cu161 O167 1.974 . S
Cu161 N172 1.985 . S
Cu161 O181 1.959 . S
N162 Cu161 1.999 . S
N162 C164 1.263 . S
N162 C166 1.389 . S
N163 C164 1.358 . S
N163 C165 1.400 . S
C164 N162 1.263 . S
C164 N163 1.358 . S
C164 H170 0.930 . S
C165 N163 1.400 . S
C165 C166 1.351 . S
C165 H182 0.930 . S
C166 N162 1.389 . S
C166 C165 1.351 . S
C166 H171 0.930 . S
O167 Cu161 1.974 . S
O167 C177 1.282 . S
C168 O169 1.261 . S
C168 O181 1.251 . S
O169 C168 1.261 . S
H170 C164 0.930 . S
H171 C166 0.930 . S
N172 Cu161 1.985 . S
N172 C174 1.335 . S
N172 C175 1.390 . S
N173 C174 1.345 . S
N173 C176 1.336 . S
C174 N172 1.335 . S
C174 N173 1.345 . S
C174 H179 0.930 . S
C175 N172 1.390 . S
C175 C176 1.346 . S
C175 H180 0.930 . S
C176 N173 1.336 . S
C176 C175 1.346 . S
C176 H183 0.929 . S
C177 O167 1.282 . S
C177 O178 1.216 . S
O178 C177 1.216 . S
H179 C174 0.930 . S
H180 C175 0.930 . S
O181 Cu161 1.959 . S
O181 C168 1.251 . S
H182 C165 0.930 . S
H183 C176 0.929 . S
Cu184 N185 1.999 . S
Cu184 O190 1.974 . S
Cu184 N195 1.985 . S
Cu184 O204 1.959 . S
N185 Cu184 1.999 . S
N185 C187 1.263 . S
N185 C189 1.389 . S
N186 C187 1.358 . S
N186 C188 1.400 . S
C187 N185 1.263 . S
C187 N186 1.358 . S
C187 H193 0.930 . S
C188 N186 1.400 . S
C188 C189 1.351 . S
C188 H205 0.930 . S
C189 N185 1.389 . S
C189 C188 1.351 . S
C189 H194 0.930 . S
O190 Cu184 1.974 . S
O190 C200 1.282 . S
C191 O192 1.261 . S
C191 O204 1.251 . S
O192 C191 1.261 . S
H193 C187 0.930 . S
H194 C189 0.930 . S
N195 Cu184 1.985 . S
N195 C197 1.335 . S
N195 C198 1.390 . S
N196 C197 1.345 . S
N196 C199 1.336 . S
C197 N195 1.335 . S
C197 N196 1.345 . S
C197 H202 0.930 . S
C198 N195 1.390 . S
C198 C199 1.346 . S
C198 H203 0.930 . S
C199 N196 1.336 . S
C199 C198 1.346 . S
C199 H206 0.929 . S
C200 O190 1.282 . S
C200 O201 1.216 . S
O201 C200 1.216 . S
H202 C197 0.930 . S
H203 C198 0.930 . S
O204 Cu184 1.959 . S
O204 C191 1.251 . S
H205 C188 0.930 . S
H206 C199 0.929 . S
Cu207 N208 1.999 . S
Cu207 O213 1.974 . S
Cu207 N218 1.985 . S
Cu207 O227 1.959 . S
N208 Cu207 1.999 . S
N208 C210 1.263 . S
N208 C212 1.389 . S
N209 C210 1.358 . S
N209 C211 1.400 . S
C210 N208 1.263 . S
C210 N209 1.358 . S
C210 H216 0.930 . S
C211 N209 1.400 . S
C211 C212 1.351 . S
C211 H228 0.930 . S
C212 N208 1.389 . S
C212 C211 1.351 . S
C212 H217 0.930 . S
O213 Cu207 1.974 . S
O213 C223 1.282 . S
C214 O215 1.261 . S
C214 O227 1.251 . S
O215 C214 1.261 . S
H216 C210 0.930 . S
H217 C212 0.930 . S
N218 Cu207 1.985 . S
N218 C220 1.335 . S
N218 C221 1.390 . S
N219 C220 1.345 . S
N219 C222 1.336 . S
C220 N218 1.335 . S
C220 N219 1.345 . S
C220 H225 0.930 . S
C221 N218 1.390 . S
C221 C222 1.346 . S
C221 H226 0.930 . S
C222 N219 1.336 . S
C222 C221 1.346 . S
C222 H229 0.929 . S
C223 O213 1.282 . S
C223 O224 1.216 . S
O224 C223 1.216 . S
H225 C220 0.930 . S
H226 C221 0.930 . S
O227 Cu207 1.959 . S
O227 C214 1.251 . S
H228 C211 0.930 . S
H229 C222 0.929 . S
Cu230 N231 1.999 . S
Cu230 O236 1.974 . S
Cu230 N241 1.985 . S
Cu230 O250 1.959 . S
N231 Cu230 1.999 . S
N231 C233 1.263 . S
N231 C235 1.389 . S
N232 C233 1.358 . S
N232 C234 1.400 . S
C233 N231 1.263 . S
C233 N232 1.358 . S
C233 H239 0.930 . S
C234 N232 1.400 . S
C234 C235 1.351 . S
C234 H251 0.930 . S
C235 N231 1.389 . S
C235 C234 1.351 . S
C235 H240 0.930 . S
O236 Cu230 1.974 . S
O236 C246 1.282 . S
C237 O238 1.261 . S
C237 O250 1.251 . S
O238 C237 1.261 . S
H239 C233 0.930 . S
H240 C235 0.930 . S
N241 Cu230 1.985 . S
N241 C243 1.335 . S
N241 C244 1.390 . S
N242 C243 1.345 . S
N242 C245 1.336 . S
C243 N241 1.335 . S
C243 N242 1.345 . S
C243 H248 0.930 . S
C244 N241 1.390 . S
C244 C245 1.346 . S
C244 H249 0.930 . S
C245 N242 1.336 . S
C245 C244 1.346 . S
C245 H252 0.929 . S
C246 O236 1.282 . S
C246 O247 1.216 . S
O247 C246 1.216 . S
H248 C243 0.930 . S
H249 C244 0.930 . S
O250 Cu230 1.959 . S
O250 C237 1.251 . S
H251 C234 0.930 . S
H252 C245 0.929 . S
Cu253 N254 1.999 . S
Cu253 O259 1.974 . S
Cu253 N264 1.985 . S
Cu253 O273 1.959 . S
N254 Cu253 1.999 . S
N254 C256 1.263 . S
N254 C258 1.389 . S
N255 C256 1.358 . S
N255 C257 1.400 . S
C256 N254 1.263 . S
C256 N255 1.358 . S
C256 H262 0.930 . S
C257 N255 1.400 . S
C257 C258 1.351 . S
C257 H274 0.930 . S
C258 N254 1.389 . S
C258 C257 1.351 . S
C258 H263 0.930 . S
O259 Cu253 1.974 . S
O259 C269 1.282 . S
C260 O261 1.261 . S
C260 O273 1.251 . S
O261 C260 1.261 . S
H262 C256 0.930 . S
H263 C258 0.930 . S
N264 Cu253 1.985 . S
N264 C266 1.335 . S
N264 C267 1.390 . S
N265 C266 1.345 . S
N265 C268 1.336 . S
C266 N264 1.335 . S
C266 N265 1.345 . S
C266 H271 0.930 . S
C267 N264 1.390 . S
C267 C268 1.346 . S
C267 H272 0.930 . S
C268 N265 1.336 . S
C268 C267 1.346 . S
C268 H275 0.929 . S
C269 O259 1.282 . S
C269 O270 1.216 . S
O270 C269 1.216 . S
H271 C266 0.930 . S
H272 C267 0.930 . S
O273 Cu253 1.959 . S
O273 C260 1.251 . S
H274 C257 0.930 . S
H275 C268 0.929 . S
Gd276 C279 2.818 . S
Gd276 O296 2.377 . S
Gd276 O298 2.448 . S
Gd276 O299 2.506 . S
Gd276 O300 2.435 . S
Gd276 O301 2.717 . S
Gd276 O303 2.395 . S
Gd276 O307 2.327 . S
Gd277 C288 2.818 . S
Gd277 O297 2.395 . S
Gd277 O301 2.327 . S
Gd277 O302 2.377 . S
Gd277 O304 2.448 . S
Gd277 O305 2.506 . S
Gd277 O306 2.435 . S
Gd277 O307 2.717 . S
C278 O296 1.240 . S
C278 O297 1.240 . S
C279 Gd276 2.818 . S
C279 C280 1.510 . S
C279 O298 1.249 . S
C279 O299 1.252 . S
C280 C279 1.510 . S
C280 C281 1.404 . S
C280 C282 1.352 . S
C281 C280 1.404 . S
C281 C285 1.389 . S
C281 H308 0.930 . S
C282 C280 1.352 . S
C282 C284 1.374 . S
C282 H309 0.931 . S
C283 C284 1.359 . S
C283 C285 1.364 . S
C284 C282 1.374 . S
C284 C283 1.359 . S
C284 H310 0.931 . S
C285 C281 1.389 . S
C285 C283 1.364 . S
C285 H311 0.931 . S
C286 O300 1.256 . S
C286 O301 1.257 . S
C287 O302 1.240 . S
C287 O303 1.240 . S
C288 Gd277 2.818 . S
C288 C289 1.510 . S
C288 O304 1.249 . S
C288 O305 1.252 . S
C289 C288 1.510 . S
C289 C290 1.404 . S
C289 C291 1.352 . S
C290 C289 1.404 . S
C290 C294 1.389 . S
C290 H312 0.930 . S
C291 C289 1.352 . S
C291 C293 1.374 . S
C291 H313 0.931 . S
C292 C293 1.359 . S
C292 C294 1.364 . S
C293 C291 1.374 . S
C293 C292 1.359 . S
C293 H314 0.931 . S
C294 C290 1.389 . S
C294 C292 1.364 . S
C294 H315 0.931 . S
C295 O306 1.256 . S
C295 O307 1.257 . S
O296 Gd276 2.377 . S
O296 C278 1.240 . S
O297 Gd277 2.395 . S
O297 C278 1.240 . S
O298 Gd276 2.448 . S
O298 C279 1.249 . S
O299 Gd276 2.506 . S
O299 C279 1.252 . S
O300 Gd276 2.435 . S
O300 C286 1.256 . S
O301 Gd276 2.717 . S
O301 Gd277 2.327 . S
O301 C286 1.257 . S
O302 Gd277 2.377 . S
O302 C287 1.240 . S
O303 Gd276 2.395 . S
O303 C287 1.240 . S
O304 Gd277 2.448 . S
O304 C288 1.249 . S
O305 Gd277 2.506 . S
O305 C288 1.252 . S
O306 Gd277 2.435 . S
O306 C295 1.256 . S
O307 Gd276 2.327 . S
O307 Gd277 2.717 . S
O307 C295 1.257 . S
H308 C281 0.930 . S
H309 C282 0.931 . S
H310 C284 0.931 . S
H311 C285 0.931 . S
H312 C290 0.930 . S
H313 C291 0.931 . S
H314 C293 0.931 . S
H315 C294 0.931 . S
Gd316 C319 2.818 . S
Gd316 O336 2.377 . S
Gd316 O338 2.448 . S
Gd316 O339 2.506 . S
Gd316 O340 2.435 . S
Gd316 O341 2.717 . S
Gd316 O343 2.395 . S
Gd316 O347 2.327 . S
Gd317 C328 2.818 . S
Gd317 O337 2.395 . S
Gd317 O341 2.327 . S
Gd317 O342 2.377 . S
Gd317 O344 2.448 . S
Gd317 O345 2.506 . S
Gd317 O346 2.435 . S
Gd317 O347 2.717 . S
C318 O336 1.240 . S
C318 O337 1.240 . S
C319 Gd316 2.818 . S
C319 C320 1.510 . S
C319 O338 1.249 . S
C319 O339 1.252 . S
C320 C319 1.510 . S
C320 C321 1.404 . S
C320 C322 1.352 . S
C321 C320 1.404 . S
C321 C325 1.389 . S
C321 H348 0.930 . S
C322 C320 1.352 . S
C322 C324 1.374 . S
C322 H349 0.931 . S
C323 C324 1.359 . S
C323 C325 1.364 . S
C324 C322 1.374 . S
C324 C323 1.359 . S
C324 H350 0.931 . S
C325 C321 1.389 . S
C325 C323 1.364 . S
C325 H351 0.931 . S
C326 O340 1.256 . S
C326 O341 1.257 . S
C327 O342 1.240 . S
C327 O343 1.240 . S
C328 Gd317 2.818 . S
C328 C329 1.510 . S
C328 O344 1.249 . S
C328 O345 1.252 . S
C329 C328 1.510 . S
C329 C330 1.404 . S
C329 C331 1.352 . S
C330 C329 1.404 . S
C330 C334 1.389 . S
C330 H352 0.930 . S
C331 C329 1.352 . S
C331 C333 1.374 . S
C331 H353 0.931 . S
C332 C333 1.359 . S
C332 C334 1.364 . S
C333 C331 1.374 . S
C333 C332 1.359 . S
C333 H354 0.931 . S
C334 C330 1.389 . S
C334 C332 1.364 . S
C334 H355 0.931 . S
C335 O346 1.256 . S
C335 O347 1.257 . S
O336 Gd316 2.377 . S
O336 C318 1.240 . S
O337 Gd317 2.395 . S
O337 C318 1.240 . S
O338 Gd316 2.448 . S
O338 C319 1.249 . S
O339 Gd316 2.506 . S
O339 C319 1.252 . S
O340 Gd316 2.435 . S
O340 C326 1.256 . S
O341 Gd316 2.717 . S
O341 Gd317 2.327 . S
O341 C326 1.257 . S
O342 Gd317 2.377 . S
O342 C327 1.240 . S
O343 Gd316 2.395 . S
O343 C327 1.240 . S
O344 Gd317 2.448 . S
O344 C328 1.249 . S
O345 Gd317 2.506 . S
O345 C328 1.252 . S
O346 Gd317 2.435 . S
O346 C335 1.256 . S
O347 Gd316 2.327 . S
O347 Gd317 2.717 . S
O347 C335 1.257 . S
H348 C321 0.930 . S
H349 C322 0.931 . S
H350 C324 0.931 . S
H351 C325 0.931 . S
H352 C330 0.930 . S
H353 C331 0.931 . S
H354 C333 0.931 . S
H355 C334 0.931 . S
Gd356 C359 2.818 . S
Gd356 O376 2.377 . S
Gd356 O378 2.448 . S
Gd356 O379 2.506 . S
Gd356 O380 2.435 . S
Gd356 O381 2.717 . S
Gd356 O383 2.395 . S
Gd356 O387 2.327 . S
Gd357 C368 2.818 . S
Gd357 O377 2.395 . S
Gd357 O381 2.327 . S
Gd357 O382 2.377 . S
Gd357 O384 2.448 . S
Gd357 O385 2.506 . S
Gd357 O386 2.435 . S
Gd357 O387 2.717 . S
C358 O376 1.240 . S
C358 O377 1.240 . S
C359 Gd356 2.818 . S
C359 C360 1.510 . S
C359 O378 1.249 . S
C359 O379 1.252 . S
C360 C359 1.510 . S
C360 C361 1.404 . S
C360 C362 1.352 . S
C361 C360 1.404 . S
C361 C365 1.389 . S
C361 H388 0.930 . S
C362 C360 1.352 . S
C362 C364 1.374 . S
C362 H389 0.931 . S
C363 C364 1.359 . S
C363 C365 1.364 . S
C364 C362 1.374 . S
C364 C363 1.359 . S
C364 H390 0.931 . S
C365 C361 1.389 . S
C365 C363 1.364 . S
C365 H391 0.931 . S
C366 O380 1.256 . S
C366 O381 1.257 . S
C367 O382 1.240 . S
C367 O383 1.240 . S
C368 Gd357 2.818 . S
C368 C369 1.510 . S
C368 O384 1.249 . S
C368 O385 1.252 . S
C369 C368 1.510 . S
C369 C370 1.404 . S
C369 C371 1.352 . S
C370 C369 1.404 . S
C370 C374 1.389 . S
C370 H392 0.930 . S
C371 C369 1.352 . S
C371 C373 1.374 . S
C371 H393 0.931 . S
C372 C373 1.359 . S
C372 C374 1.364 . S
C373 C371 1.374 . S
C373 C372 1.359 . S
C373 H394 0.931 . S
C374 C370 1.389 . S
C374 C372 1.364 . S
C374 H395 0.931 . S
C375 O386 1.256 . S
C375 O387 1.257 . S
O376 Gd356 2.377 . S
O376 C358 1.240 . S
O377 Gd357 2.395 . S
O377 C358 1.240 . S
O378 Gd356 2.448 . S
O378 C359 1.249 . S
O379 Gd356 2.506 . S
O379 C359 1.252 . S
O380 Gd356 2.435 . S
O380 C366 1.256 . S
O381 Gd356 2.717 . S
O381 Gd357 2.327 . S
O381 C366 1.257 . S
O382 Gd357 2.377 . S
O382 C367 1.240 . S
O383 Gd356 2.395 . S
O383 C367 1.240 . S
O384 Gd357 2.448 . S
O384 C368 1.249 . S
O385 Gd357 2.506 . S
O385 C368 1.252 . S
O386 Gd357 2.435 . S
O386 C375 1.256 . S
O387 Gd356 2.327 . S
O387 Gd357 2.717 . S
O387 C375 1.257 . S
H388 C361 0.930 . S
H389 C362 0.931 . S
H390 C364 0.931 . S
H391 C365 0.931 . S
H392 C370 0.930 . S
H393 C371 0.931 . S
H394 C373 0.931 . S
H395 C374 0.931 . S
Gd396 C399 2.818 . S
Gd396 O416 2.377 . S
Gd396 O418 2.448 . S
Gd396 O419 2.506 . S
Gd396 O420 2.435 . S
Gd396 O421 2.717 . S
Gd396 O423 2.395 . S
Gd396 O427 2.327 . S
Gd397 C408 2.818 . S
Gd397 O417 2.395 . S
Gd397 O421 2.327 . S
Gd397 O422 2.377 . S
Gd397 O424 2.448 . S
Gd397 O425 2.506 . S
Gd397 O426 2.435 . S
Gd397 O427 2.717 . S
C398 O416 1.240 . S
C398 O417 1.240 . S
C399 Gd396 2.818 . S
C399 C400 1.510 . S
C399 O418 1.249 . S
C399 O419 1.252 . S
C400 C399 1.510 . S
C400 C401 1.404 . S
C400 C402 1.352 . S
C401 C400 1.404 . S
C401 C405 1.389 . S
C401 H428 0.930 . S
C402 C400 1.352 . S
C402 C404 1.374 . S
C402 H429 0.931 . S
C403 C404 1.359 . S
C403 C405 1.364 . S
C404 C402 1.374 . S
C404 C403 1.359 . S
C404 H430 0.931 . S
C405 C401 1.389 . S
C405 C403 1.364 . S
C405 H431 0.931 . S
C406 O420 1.256 . S
C406 O421 1.257 . S
C407 O422 1.240 . S
C407 O423 1.240 . S
C408 Gd397 2.818 . S
C408 C409 1.510 . S
C408 O424 1.249 . S
C408 O425 1.252 . S
C409 C408 1.510 . S
C409 C410 1.404 . S
C409 C411 1.352 . S
C410 C409 1.404 . S
C410 C414 1.389 . S
C410 H432 0.930 . S
C411 C409 1.352 . S
C411 C413 1.374 . S
C411 H433 0.931 . S
C412 C413 1.359 . S
C412 C414 1.364 . S
C413 C411 1.374 . S
C413 C412 1.359 . S
C413 H434 0.931 . S
C414 C410 1.389 . S
C414 C412 1.364 . S
C414 H435 0.931 . S
C415 O426 1.256 . S
C415 O427 1.257 . S
O416 Gd396 2.377 . S
O416 C398 1.240 . S
O417 Gd397 2.395 . S
O417 C398 1.240 . S
O418 Gd396 2.448 . S
O418 C399 1.249 . S
O419 Gd396 2.506 . S
O419 C399 1.252 . S
O420 Gd396 2.435 . S
O420 C406 1.256 . S
O421 Gd396 2.717 . S
O421 Gd397 2.327 . S
O421 C406 1.257 . S
O422 Gd397 2.377 . S
O422 C407 1.240 . S
O423 Gd396 2.395 . S
O423 C407 1.240 . S
O424 Gd397 2.448 . S
O424 C408 1.249 . S
O425 Gd397 2.506 . S
O425 C408 1.252 . S
O426 Gd397 2.435 . S
O426 C415 1.256 . S
O427 Gd396 2.327 . S
O427 Gd397 2.717 . S
O427 C415 1.257 . S
H428 C401 0.930 . S
H429 C402 0.931 . S
H430 C404 0.931 . S
H431 C405 0.931 . S
H432 C410 0.930 . S
H433 C411 0.931 . S
H434 C413 0.931 . S
H435 C414 0.931 . S
Gd436 C439 2.818 . S
Gd436 O456 2.377 . S
Gd436 O458 2.448 . S
Gd436 O459 2.506 . S
Gd436 O460 2.435 . S
Gd436 O461 2.717 . S
Gd436 O463 2.395 . S
Gd436 O467 2.327 . S
Gd437 C448 2.818 . S
Gd437 O457 2.395 . S
Gd437 O461 2.327 . S
Gd437 O462 2.377 . S
Gd437 O464 2.448 . S
Gd437 O465 2.506 . S
Gd437 O466 2.435 . S
Gd437 O467 2.717 . S
C438 O456 1.240 . S
C438 O457 1.240 . S
C439 Gd436 2.818 . S
C439 C440 1.510 . S
C439 O458 1.249 . S
C439 O459 1.252 . S
C440 C439 1.510 . S
C440 C441 1.404 . S
C440 C442 1.352 . S
C441 C440 1.404 . S
C441 C445 1.389 . S
C441 H468 0.930 . S
C442 C440 1.352 . S
C442 C444 1.374 . S
C442 H469 0.931 . S
C443 C444 1.359 . S
C443 C445 1.364 . S
C444 C442 1.374 . S
C444 C443 1.359 . S
C444 H470 0.931 . S
C445 C441 1.389 . S
C445 C443 1.364 . S
C445 H471 0.931 . S
C446 O460 1.256 . S
C446 O461 1.257 . S
C447 O462 1.240 . S
C447 O463 1.240 . S
C448 Gd437 2.818 . S
C448 C449 1.510 . S
C448 O464 1.249 . S
C448 O465 1.252 . S
C449 C448 1.510 . S
C449 C450 1.404 . S
C449 C451 1.352 . S
C450 C449 1.404 . S
C450 C454 1.389 . S
C450 H472 0.930 . S
C451 C449 1.352 . S
C451 C453 1.374 . S
C451 H473 0.931 . S
C452 C453 1.359 . S
C452 C454 1.364 . S
C453 C451 1.374 . S
C453 C452 1.359 . S
C453 H474 0.931 . S
C454 C450 1.389 . S
C454 C452 1.364 . S
C454 H475 0.931 . S
C455 O466 1.256 . S
C455 O467 1.257 . S
O456 Gd436 2.377 . S
O456 C438 1.240 . S
O457 Gd437 2.395 . S
O457 C438 1.240 . S
O458 Gd436 2.448 . S
O458 C439 1.249 . S
O459 Gd436 2.506 . S
O459 C439 1.252 . S
O460 Gd436 2.435 . S
O460 C446 1.256 . S
O461 Gd436 2.717 . S
O461 Gd437 2.327 . S
O461 C446 1.257 . S
O462 Gd437 2.377 . S
O462 C447 1.240 . S
O463 Gd436 2.395 . S
O463 C447 1.240 . S
O464 Gd437 2.448 . S
O464 C448 1.249 . S
O465 Gd437 2.506 . S
O465 C448 1.252 . S
O466 Gd437 2.435 . S
O466 C455 1.256 . S
O467 Gd436 2.327 . S
O467 Gd437 2.717 . S
O467 C455 1.257 . S
H468 C441 0.930 . S
H469 C442 0.931 . S
H470 C444 0.931 . S
H471 C445 0.931 . S
H472 C450 0.930 . S
H473 C451 0.931 . S
H474 C453 0.931 . S
H475 C454 0.931 . S
Gd476 C479 2.818 . S
Gd476 O496 2.377 . S
Gd476 O498 2.448 . S
Gd476 O499 2.506 . S
Gd476 O500 2.435 . S
Gd476 O501 2.717 . S
Gd476 O503 2.395 . S
Gd476 O507 2.327 . S
Gd477 C488 2.818 . S
Gd477 O497 2.395 . S
Gd477 O501 2.327 . S
Gd477 O502 2.377 . S
Gd477 O504 2.448 . S
Gd477 O505 2.506 . S
Gd477 O506 2.435 . S
Gd477 O507 2.717 . S
C478 O496 1.240 . S
C478 O497 1.240 . S
C479 Gd476 2.818 . S
C479 C480 1.510 . S
C479 O498 1.249 . S
C479 O499 1.252 . S
C480 C479 1.510 . S
C480 C481 1.404 . S
C480 C482 1.352 . S
C481 C480 1.404 . S
C481 C485 1.389 . S
C481 H508 0.930 . S
C482 C480 1.352 . S
C482 C484 1.374 . S
C482 H509 0.931 . S
C483 C484 1.359 . S
C483 C485 1.364 . S
C484 C482 1.374 . S
C484 C483 1.359 . S
C484 H510 0.931 . S
C485 C481 1.389 . S
C485 C483 1.364 . S
C485 H511 0.931 . S
C486 O500 1.256 . S
C486 O501 1.257 . S
C487 O502 1.240 . S
C487 O503 1.240 . S
C488 Gd477 2.818 . S
C488 C489 1.510 . S
C488 O504 1.249 . S
C488 O505 1.252 . S
C489 C488 1.510 . S
C489 C490 1.404 . S
C489 C491 1.352 . S
C490 C489 1.404 . S
C490 C494 1.389 . S
C490 H512 0.930 . S
C491 C489 1.352 . S
C491 C493 1.374 . S
C491 H513 0.931 . S
C492 C493 1.359 . S
C492 C494 1.364 . S
C493 C491 1.374 . S
C493 C492 1.359 . S
C493 H514 0.931 . S
C494 C490 1.389 . S
C494 C492 1.364 . S
C494 H515 0.931 . S
C495 O506 1.256 . S
C495 O507 1.257 . S
O496 Gd476 2.377 . S
O496 C478 1.240 . S
O497 Gd477 2.395 . S
O497 C478 1.240 . S
O498 Gd476 2.448 . S
O498 C479 1.249 . S
O499 Gd476 2.506 . S
O499 C479 1.252 . S
O500 Gd476 2.435 . S
O500 C486 1.256 . S
O501 Gd476 2.717 . S
O501 Gd477 2.327 . S
O501 C486 1.257 . S
O502 Gd477 2.377 . S
O502 C487 1.240 . S
O503 Gd476 2.395 . S
O503 C487 1.240 . S
O504 Gd477 2.448 . S
O504 C488 1.249 . S
O505 Gd477 2.506 . S
O505 C488 1.252 . S
O506 Gd477 2.435 . S
O506 C495 1.256 . S
O507 Gd476 2.327 . S
O507 Gd477 2.717 . S
O507 C495 1.257 . S
H508 C481 0.930 . S
H509 C482 0.931 . S
H510 C484 0.931 . S
H511 C485 0.931 . S
H512 C490 0.930 . S
H513 C491 0.931 . S
H514 C493 0.931 . S
H515 C494 0.931 . S
Gd516 C519 2.818 . S
Gd516 O536 2.377 . S
Gd516 O538 2.448 . S
Gd516 O539 2.506 . S
Gd516 O540 2.435 . S
Gd516 O541 2.717 . S
Gd516 O543 2.395 . S
Gd516 O547 2.327 . S
Gd517 C528 2.818 . S
Gd517 O537 2.395 . S
Gd517 O541 2.327 . S
Gd517 O542 2.377 . S
Gd517 O544 2.448 . S
Gd517 O545 2.506 . S
Gd517 O546 2.435 . S
Gd517 O547 2.717 . S
C518 O536 1.240 . S
C518 O537 1.240 . S
C519 Gd516 2.818 . S
C519 C520 1.510 . S
C519 O538 1.249 . S
C519 O539 1.252 . S
C520 C519 1.510 . S
C520 C521 1.404 . S
C520 C522 1.352 . S
C521 C520 1.404 . S
C521 C525 1.389 . S
C521 H548 0.930 . S
C522 C520 1.352 . S
C522 C524 1.374 . S
C522 H549 0.931 . S
C523 C524 1.359 . S
C523 C525 1.364 . S
C524 C522 1.374 . S
C524 C523 1.359 . S
C524 H550 0.931 . S
C525 C521 1.389 . S
C525 C523 1.364 . S
C525 H551 0.931 . S
C526 O540 1.256 . S
C526 O541 1.257 . S
C527 O542 1.240 . S
C527 O543 1.240 . S
C528 Gd517 2.818 . S
C528 C529 1.510 . S
C528 O544 1.249 . S
C528 O545 1.252 . S
C529 C528 1.510 . S
C529 C530 1.404 . S
C529 C531 1.352 . S
C530 C529 1.404 . S
C530 C534 1.389 . S
C530 H552 0.930 . S
C531 C529 1.352 . S
C531 C533 1.374 . S
C531 H553 0.931 . S
C532 C533 1.359 . S
C532 C534 1.364 . S
C533 C531 1.374 . S
C533 C532 1.359 . S
C533 H554 0.931 . S
C534 C530 1.389 . S
C534 C532 1.364 . S
C534 H555 0.931 . S
C535 O546 1.256 . S
C535 O547 1.257 . S
O536 Gd516 2.377 . S
O536 C518 1.240 . S
O537 Gd517 2.395 . S
O537 C518 1.240 . S
O538 Gd516 2.448 . S
O538 C519 1.249 . S
O539 Gd516 2.506 . S
O539 C519 1.252 . S
O540 Gd516 2.435 . S
O540 C526 1.256 . S
O541 Gd516 2.717 . S
O541 Gd517 2.327 . S
O541 C526 1.257 . S
O542 Gd517 2.377 . S
O542 C527 1.240 . S
O543 Gd516 2.395 . S
O543 C527 1.240 . S
O544 Gd517 2.448 . S
O544 C528 1.249 . S
O545 Gd517 2.506 . S
O545 C528 1.252 . S
O546 Gd517 2.435 . S
O546 C535 1.256 . S
O547 Gd516 2.327 . S
O547 Gd517 2.717 . S
O547 C535 1.257 . S
H548 C521 0.930 . S
H549 C522 0.931 . S
H550 C524 0.931 . S
H551 C525 0.931 . S
H552 C530 0.930 . S
H553 C531 0.931 . S
H554 C533 0.931 . S
H555 C534 0.931 . S
Gd556 C559 2.818 . S
Gd556 O576 2.377 . S
Gd556 O578 2.448 . S
Gd556 O579 2.506 . S
Gd556 O580 2.435 . S
Gd556 O581 2.717 . S
Gd556 O583 2.395 . S
Gd556 O587 2.327 . S
Gd557 C568 2.818 . S
Gd557 O577 2.395 . S
Gd557 O581 2.327 . S
Gd557 O582 2.377 . S
Gd557 O584 2.448 . S
Gd557 O585 2.506 . S
Gd557 O586 2.435 . S
Gd557 O587 2.717 . S
C558 O576 1.240 . S
C558 O577 1.240 . S
C559 Gd556 2.818 . S
C559 C560 1.510 . S
C559 O578 1.249 . S
C559 O579 1.252 . S
C560 C559 1.510 . S
C560 C561 1.404 . S
C560 C562 1.352 . S
C561 C560 1.404 . S
C561 C565 1.389 . S
C561 H588 0.930 . S
C562 C560 1.352 . S
C562 C564 1.374 . S
C562 H589 0.931 . S
C563 C564 1.359 . S
C563 C565 1.364 . S
C564 C562 1.374 . S
C564 C563 1.359 . S
C564 H590 0.931 . S
C565 C561 1.389 . S
C565 C563 1.364 . S
C565 H591 0.931 . S
C566 O580 1.256 . S
C566 O581 1.257 . S
C567 O582 1.240 . S
C567 O583 1.240 . S
C568 Gd557 2.818 . S
C568 C569 1.510 . S
C568 O584 1.249 . S
C568 O585 1.252 . S
C569 C568 1.510 . S
C569 C570 1.404 . S
C569 C571 1.352 . S
C570 C569 1.404 . S
C570 C574 1.389 . S
C570 H592 0.930 . S
C571 C569 1.352 . S
C571 C573 1.374 . S
C571 H593 0.931 . S
C572 C573 1.359 . S
C572 C574 1.364 . S
C573 C571 1.374 . S
C573 C572 1.359 . S
C573 H594 0.931 . S
C574 C570 1.389 . S
C574 C572 1.364 . S
C574 H595 0.931 . S
C575 O586 1.256 . S
C575 O587 1.257 . S
O576 Gd556 2.377 . S
O576 C558 1.240 . S
O577 Gd557 2.395 . S
O577 C558 1.240 . S
O578 Gd556 2.448 . S
O578 C559 1.249 . S
O579 Gd556 2.506 . S
O579 C559 1.252 . S
O580 Gd556 2.435 . S
O580 C566 1.256 . S
O581 Gd556 2.717 . S
O581 Gd557 2.327 . S
O581 C566 1.257 . S
O582 Gd557 2.377 . S
O582 C567 1.240 . S
O583 Gd556 2.395 . S
O583 C567 1.240 . S
O584 Gd557 2.448 . S
O584 C568 1.249 . S
O585 Gd557 2.506 . S
O585 C568 1.252 . S
O586 Gd557 2.435 . S
O586 C575 1.256 . S
O587 Gd556 2.327 . S
O587 Gd557 2.717 . S
O587 C575 1.257 . S
H588 C561 0.930 . S
H589 C562 0.931 . S
H590 C564 0.931 . S
H591 C565 0.931 . S
H592 C570 0.930 . S
H593 C571 0.931 . S
H594 C573 0.931 . S
H595 C574 0.931 . S
H596 C614 0.951 . S
H597 C616 0.951 . S
H598 C618 0.950 . S
H599 C619 0.950 . S
H600 C621 0.950 . S
H601 C624 0.950 . S
H602 C625 0.950 . S
H603 C627 0.950 . S
H604 C628 0.950 . S
H605 C629 0.951 . S
H606 C631 0.951 . S
H607 C633 0.950 . S
H608 C634 0.950 . S
H609 C636 0.950 . S
H610 C639 0.950 . S
H611 C640 0.950 . S
H612 C642 0.950 . S
H613 C643 0.950 . S
C614 H596 0.951 . S
C614 C615 1.366 . S
C614 C616 1.388 . S
C615 C614 1.366 . S
C615 C619 1.385 . S
C616 H597 0.951 . S
C616 C614 1.388 . S
C616 C617 1.366 . S
C617 C616 1.366 . S
C617 C618 1.414 . S
C617 C620 1.499 . S
C618 H598 0.950 . S
C618 C617 1.414 . S
C618 C619 1.374 . S
C619 H599 0.950 . S
C619 C615 1.385 . S
C619 C618 1.374 . S
C620 C617 1.499 . S
C620 C621 1.373 . S
C620 C622 1.389 . S
C621 H600 0.950 . S
C621 C620 1.373 . S
C621 C637 1.377 . S
C622 C620 1.389 . S
C622 C623 1.524 . S
C622 C636 1.377 . S
C623 C622 1.524 . S
C623 C624 1.397 . S
C623 C628 1.363 . S
C624 H601 0.950 . S
C624 C623 1.397 . S
C624 C625 1.334 . S
C625 H602 0.950 . S
C625 C624 1.334 . S
C625 C626 1.287 . S
C626 C625 1.287 . S
C626 C627 1.524 . S
C626 H645 0.913 . S
C627 H603 0.950 . S
C627 C626 1.524 . S
C627 C628 1.415 . S
C628 H604 0.950 . S
C628 C623 1.363 . S
C628 C627 1.415 . S
C629 H605 0.951 . S
C629 C630 1.366 . S
C629 C631 1.388 . S
C630 C629 1.366 . S
C630 C634 1.385 . S
C631 H606 0.951 . S
C631 C629 1.388 . S
C631 C632 1.366 . S
C632 C631 1.366 . S
C632 C633 1.414 . S
C632 C635 1.499 . S
C633 H607 0.950 . S
C633 C632 1.414 . S
C633 C634 1.374 . S
C634 H608 0.950 . S
C634 C630 1.385 . S
C634 C633 1.374 . S
C635 C632 1.499 . S
C635 C636 1.373 . S
C635 C637 1.389 . S
C636 H609 0.950 . S
C636 C622 1.377 . S
C636 C635 1.373 . S
C637 C621 1.377 . S
C637 C635 1.389 . S
C637 C638 1.524 . S
C638 C637 1.524 . S
C638 C639 1.397 . S
C638 C643 1.363 . S
C639 H610 0.950 . S
C639 C638 1.397 . S
C639 C640 1.334 . S
C640 H611 0.950 . S
C640 C639 1.334 . S
C640 C641 1.287 . S
C641 C640 1.287 . S
C641 C642 1.524 . S
C641 H644 0.999 . S
C642 H612 0.950 . S
C642 C641 1.524 . S
C642 C643 1.415 . S
C643 H613 0.950 . S
C643 C638 1.363 . S
C643 C642 1.415 . S
H644 C641 0.999 . S
H645 C626 0.913 . S
H646 C664 0.951 . S
H647 C666 0.951 . S
H648 C668 0.950 . S
H649 C669 0.950 . S
H650 C671 0.950 . S
H651 C674 0.950 . S
H652 C675 0.950 . S
H653 C677 0.950 . S
H654 C678 0.950 . S
H655 C679 0.951 . S
H656 C681 0.951 . S
H657 C683 0.950 . S
H658 C684 0.950 . S
H659 C686 0.950 . S
H660 C689 0.950 . S
H661 C690 0.950 . S
H662 C692 0.950 . S
H663 C693 0.950 . S
C664 H646 0.951 . S
C664 C665 1.366 . S
C664 C666 1.388 . S
C665 C664 1.366 . S
C665 C669 1.385 . S
C666 H647 0.951 . S
C666 C664 1.388 . S
C666 C667 1.366 . S
C667 C666 1.366 . S
C667 C668 1.414 . S
C667 C670 1.499 . S
C668 H648 0.950 . S
C668 C667 1.414 . S
C668 C669 1.374 . S
C669 H649 0.950 . S
C669 C665 1.385 . S
C669 C668 1.374 . S
C670 C667 1.499 . S
C670 C671 1.373 . S
C670 C672 1.389 . S
C671 H650 0.950 . S
C671 C670 1.373 . S
C671 C687 1.377 . S
C672 C670 1.389 . S
C672 C673 1.524 . S
C672 C686 1.377 . S
C673 C672 1.524 . S
C673 C674 1.397 . S
C673 C678 1.363 . S
C674 H651 0.950 . S
C674 C673 1.397 . S
C674 C675 1.334 . S
C675 H652 0.950 . S
C675 C674 1.334 . S
C675 C676 1.287 . S
C676 C675 1.287 . S
C676 C677 1.524 . S
C676 H695 0.913 . S
C677 H653 0.950 . S
C677 C676 1.524 . S
C677 C678 1.415 . S
C678 H654 0.950 . S
C678 C673 1.363 . S
C678 C677 1.415 . S
C679 H655 0.951 . S
C679 C680 1.366 . S
C679 C681 1.388 . S
C680 C679 1.366 . S
C680 C684 1.385 . S
C681 H656 0.951 . S
C681 C679 1.388 . S
C681 C682 1.366 . S
C682 C681 1.366 . S
C682 C683 1.414 . S
C682 C685 1.499 . S
C683 H657 0.950 . S
C683 C682 1.414 . S
C683 C684 1.374 . S
C684 H658 0.950 . S
C684 C680 1.385 . S
C684 C683 1.374 . S
C685 C682 1.499 . S
C685 C686 1.373 . S
C685 C687 1.389 . S
C686 H659 0.950 . S
C686 C672 1.377 . S
C686 C685 1.373 . S
C687 C671 1.377 . S
C687 C685 1.389 . S
C687 C688 1.524 . S
C688 C687 1.524 . S
C688 C689 1.397 . S
C688 C693 1.363 . S
C689 H660 0.950 . S
C689 C688 1.397 . S
C689 C690 1.334 . S
C690 H661 0.950 . S
C690 C689 1.334 . S
C690 C691 1.287 . S
C691 C690 1.287 . S
C691 C692 1.524 . S
C691 H694 0.999 . S
C692 H662 0.950 . S
C692 C691 1.524 . S
C692 C693 1.415 . S
C693 H663 0.950 . S
C693 C688 1.363 . S
C693 C692 1.415 . S
H694 C691 0.999 . S
H695 C676 0.913 . S
H696 C714 0.951 . S
H697 C716 0.951 . S
H698 C718 0.950 . S
H699 C719 0.950 . S
H700 C721 0.950 . S
H701 C724 0.950 . S
H702 C725 0.950 . S
H703 C727 0.950 . S
H704 C728 0.950 . S
H705 C729 0.951 . S
H706 C731 0.951 . S
H707 C733 0.950 . S
H708 C734 0.950 . S
H709 C736 0.950 . S
H710 C739 0.950 . S
H711 C740 0.950 . S
H712 C742 0.950 . S
H713 C743 0.950 . S
C714 H696 0.951 . S
C714 C715 1.366 . S
C714 C716 1.388 . S
C715 C714 1.366 . S
C715 C719 1.385 . S
C716 H697 0.951 . S
C716 C714 1.388 . S
C716 C717 1.366 . S
C717 C716 1.366 . S
C717 C718 1.414 . S
C717 C720 1.499 . S
C718 H698 0.950 . S
C718 C717 1.414 . S
C718 C719 1.374 . S
C719 H699 0.950 . S
C719 C715 1.385 . S
C719 C718 1.374 . S
C720 C717 1.499 . S
C720 C721 1.373 . S
C720 C722 1.389 . S
C721 H700 0.950 . S
C721 C720 1.373 . S
C721 C737 1.377 . S
C722 C720 1.389 . S
C722 C723 1.524 . S
C722 C736 1.377 . S
C723 C722 1.524 . S
C723 C724 1.397 . S
C723 C728 1.363 . S
C724 H701 0.950 . S
C724 C723 1.397 . S
C724 C725 1.334 1_655 S
C725 H702 0.950 . S
C725 C724 1.334 1_455 S
C725 C726 1.287 . S
C726 C725 1.287 . S
C726 C727 1.524 1_455 S
C726 H745 0.913 . S
C727 H703 0.950 . S
C727 C726 1.524 1_655 S
C727 C728 1.415 . S
C728 H704 0.950 . S
C728 C723 1.363 . S
C728 C727 1.415 . S
C729 H705 0.951 . S
C729 C730 1.366 . S
C729 C731 1.388 . S
C730 C729 1.366 . S
C730 C734 1.385 . S
C731 H706 0.951 . S
C731 C729 1.388 . S
C731 C732 1.366 . S
C732 C731 1.366 . S
C732 C733 1.414 . S
C732 C735 1.499 . S
C733 H707 0.950 . S
C733 C732 1.414 . S
C733 C734 1.374 . S
C734 H708 0.950 . S
C734 C730 1.385 . S
C734 C733 1.374 . S
C735 C732 1.499 . S
C735 C736 1.373 . S
C735 C737 1.389 . S
C736 H709 0.950 . S
C736 C722 1.377 . S
C736 C735 1.373 . S
C737 C721 1.377 . S
C737 C735 1.389 . S
C737 C738 1.524 . S
C738 C737 1.524 . S
C738 C739 1.397 . S
C738 C743 1.363 . S
C739 H710 0.950 . S
C739 C738 1.397 . S
C739 C740 1.334 . S
C740 H711 0.950 . S
C740 C739 1.334 . S
C740 C741 1.287 . S
C741 C740 1.287 . S
C741 C742 1.524 . S
C741 H744 0.999 . S
C742 H712 0.950 . S
C742 C741 1.524 . S
C742 C743 1.415 . S
C743 H713 0.950 . S
C743 C738 1.363 . S
C743 C742 1.415 . S
H744 C741 0.999 . S
H745 C726 0.913 . S
H746 C764 0.951 . S
H747 C766 0.951 . S
H748 C768 0.950 . S
H749 C769 0.950 . S
H750 C771 0.950 . S
H751 C774 0.950 . S
H752 C775 0.950 . S
H753 C777 0.950 . S
H754 C778 0.950 . S
H755 C779 0.951 . S
H756 C781 0.951 . S
H757 C783 0.950 . S
H758 C784 0.950 . S
H759 C786 0.950 . S
H760 C789 0.950 . S
H761 C790 0.950 . S
H762 C792 0.950 . S
H763 C793 0.950 . S
C764 H746 0.951 . S
C764 C765 1.366 . S
C764 C766 1.388 . S
C765 C764 1.366 . S
C765 C769 1.385 . S
C766 H747 0.951 . S
C766 C764 1.388 . S
C766 C767 1.366 . S
C767 C766 1.366 . S
C767 C768 1.414 . S
C767 C770 1.499 . S
C768 H748 0.950 . S
C768 C767 1.414 . S
C768 C769 1.374 . S
C769 H749 0.950 . S
C769 C765 1.385 . S
C769 C768 1.374 . S
C770 C767 1.499 . S
C770 C771 1.373 . S
C770 C772 1.389 . S
C771 H750 0.950 . S
C771 C770 1.373 . S
C771 C787 1.377 . S
C772 C770 1.389 . S
C772 C773 1.524 . S
C772 C786 1.377 . S
C773 C772 1.524 . S
C773 C774 1.397 . S
C773 C778 1.363 . S
C774 H751 0.950 . S
C774 C773 1.397 . S
C774 C775 1.334 . S
C775 H752 0.950 . S
C775 C774 1.334 . S
C775 C776 1.287 . S
C776 C775 1.287 . S
C776 C777 1.524 . S
C776 H795 0.913 . S
C777 H753 0.950 . S
C777 C776 1.524 . S
C777 C778 1.415 . S
C778 H754 0.950 . S
C778 C773 1.363 . S
C778 C777 1.415 . S
C779 H755 0.951 . S
C779 C780 1.366 . S
C779 C781 1.388 . S
C780 C779 1.366 . S
C780 C784 1.385 . S
C781 H756 0.951 . S
C781 C779 1.388 . S
C781 C782 1.366 . S
C782 C781 1.366 . S
C782 C783 1.414 . S
C782 C785 1.499 . S
C783 H757 0.950 . S
C783 C782 1.414 . S
C783 C784 1.374 . S
C784 H758 0.950 . S
C784 C780 1.385 . S
C784 C783 1.374 . S
C785 C782 1.499 . S
C785 C786 1.373 . S
C785 C787 1.389 . S
C786 H759 0.950 . S
C786 C772 1.377 . S
C786 C785 1.373 . S
C787 C771 1.377 . S
C787 C785 1.389 . S
C787 C788 1.524 . S
C788 C787 1.524 . S
C788 C789 1.397 . S
C788 C793 1.363 . S
C789 H760 0.950 . S
C789 C788 1.397 . S
C789 C790 1.334 . S
C790 H761 0.950 . S
C790 C789 1.334 . S
C790 C791 1.287 . S
C791 C790 1.287 . S
C791 C792 1.524 . S
C791 H794 0.999 . S
C792 H762 0.950 . S
C792 C791 1.524 . S
C792 C793 1.415 . S
C793 H763 0.950 . S
C793 C788 1.363 . S
C793 C792 1.415 . S
H794 C791 0.999 . S
H795 C776 0.913 . S
H796 C814 0.951 . S
H797 C816 0.951 . S
H798 C818 0.950 . S
H799 C819 0.950 . S
H800 C821 0.950 . S
H801 C824 0.950 . S
H802 C825 0.950 . S
H803 C827 0.950 . S
H804 C828 0.950 . S
H805 C829 0.951 . S
H806 C831 0.951 . S
H807 C833 0.950 . S
H808 C834 0.950 . S
H809 C836 0.950 . S
H810 C839 0.950 . S
H811 C840 0.950 . S
H812 C842 0.950 . S
H813 C843 0.950 . S
C814 H796 0.951 . S
C814 C815 1.366 . S
C814 C816 1.388 . S
C815 C814 1.366 . S
C815 C819 1.385 . S
C816 H797 0.951 . S
C816 C814 1.388 . S
C816 C817 1.366 . S
C817 C816 1.366 . S
C817 C818 1.414 . S
C817 C820 1.499 . S
C818 H798 0.950 . S
C818 C817 1.414 . S
C818 C819 1.374 . S
C819 H799 0.950 . S
C819 C815 1.385 . S
C819 C818 1.374 . S
C820 C817 1.499 . S
C820 C821 1.373 . S
C820 C822 1.389 . S
C821 H800 0.950 . S
C821 C820 1.373 . S
C821 C837 1.377 . S
C822 C820 1.389 . S
C822 C823 1.524 . S
C822 C836 1.377 . S
C823 C822 1.524 . S
C823 C824 1.397 . S
C823 C828 1.363 . S
C824 H801 0.950 . S
C824 C823 1.397 . S
C824 C825 1.334 . S
C825 H802 0.950 . S
C825 C824 1.334 . S
C825 C826 1.287 . S
C826 C825 1.287 . S
C826 C827 1.524 . S
C826 H845 0.913 . S
C827 H803 0.950 . S
C827 C826 1.524 . S
C827 C828 1.415 . S
C828 H804 0.950 . S
C828 C823 1.363 . S
C828 C827 1.415 . S
C829 H805 0.951 . S
C829 C830 1.366 . S
C829 C831 1.388 . S
C830 C829 1.366 . S
C830 C834 1.385 . S
C831 H806 0.951 . S
C831 C829 1.388 . S
C831 C832 1.366 . S
C832 C831 1.366 . S
C832 C833 1.414 . S
C832 C835 1.499 . S
C833 H807 0.950 . S
C833 C832 1.414 . S
C833 C834 1.374 . S
C834 H808 0.950 . S
C834 C830 1.385 . S
C834 C833 1.374 . S
C835 C832 1.499 . S
C835 C836 1.373 . S
C835 C837 1.389 . S
C836 H809 0.950 . S
C836 C822 1.377 . S
C836 C835 1.373 . S
C837 C821 1.377 . S
C837 C835 1.389 . S
C837 C838 1.524 . S
C838 C837 1.524 . S
C838 C839 1.397 . S
C838 C843 1.363 . S
C839 H810 0.950 . S
C839 C838 1.397 . S
C839 C840 1.334 . S
C840 H811 0.950 . S
C840 C839 1.334 . S
C840 C841 1.287 . S
C841 C840 1.287 . S
C841 C842 1.524 . S
C841 H844 0.999 . S
C842 H812 0.950 . S
C842 C841 1.524 . S
C842 C843 1.415 . S
C843 H813 0.950 . S
C843 C838 1.363 . S
C843 C842 1.415 . S
H844 C841 0.999 . S
H845 C826 0.913 . S
H846 C864 0.951 . S
H847 C866 0.951 . S
H848 C868 0.950 . S
H849 C869 0.950 . S
H850 C871 0.950 . S
H851 C874 0.950 . S
H852 C875 0.950 . S
H853 C877 0.950 . S
H854 C878 0.950 . S
H855 C879 0.951 . S
H856 C881 0.951 . S
H857 C883 0.950 . S
H858 C884 0.950 . S
H859 C886 0.950 . S
H860 C889 0.950 . S
H861 C890 0.950 . S
H862 C892 0.950 . S
H863 C893 0.950 . S
C864 H846 0.951 . S
C864 C865 1.366 . S
C864 C866 1.388 . S
C865 C864 1.366 . S
C865 C869 1.385 . S
C866 H847 0.951 . S
C866 C864 1.388 . S
C866 C867 1.366 . S
C867 C866 1.366 . S
C867 C868 1.414 . S
C867 C870 1.499 . S
C868 H848 0.950 . S
C868 C867 1.414 . S
C868 C869 1.374 . S
C869 H849 0.950 . S
C869 C865 1.385 . S
C869 C868 1.374 . S
C870 C867 1.499 . S
C870 C871 1.373 . S
C870 C872 1.389 . S
C871 H850 0.950 . S
C871 C870 1.373 . S
C871 C887 1.377 . S
C872 C870 1.389 . S
C872 C873 1.524 . S
C872 C886 1.377 . S
C873 C872 1.524 . S
C873 C874 1.397 . S
C873 C878 1.363 . S
C874 H851 0.950 . S
C874 C873 1.397 . S
C874 C875 1.334 . S
C875 H852 0.950 . S
C875 C874 1.334 . S
C875 C876 1.287 . S
C876 C875 1.287 . S
C876 C877 1.524 . S
C876 H895 0.913 . S
C877 H853 0.950 . S
C877 C876 1.524 . S
C877 C878 1.415 . S
C878 H854 0.950 . S
C878 C873 1.363 . S
C878 C877 1.415 . S
C879 H855 0.951 . S
C879 C880 1.366 . S
C879 C881 1.388 . S
C880 C879 1.366 . S
C880 C884 1.385 . S
C881 H856 0.951 . S
C881 C879 1.388 . S
C881 C882 1.366 . S
C882 C881 1.366 . S
C882 C883 1.414 . S
C882 C885 1.499 . S
C883 H857 0.950 . S
C883 C882 1.414 . S
C883 C884 1.374 . S
C884 H858 0.950 . S
C884 C880 1.385 . S
C884 C883 1.374 . S
C885 C882 1.499 . S
C885 C886 1.373 . S
C885 C887 1.389 . S
C886 H859 0.950 . S
C886 C872 1.377 . S
C886 C885 1.373 . S
C887 C871 1.377 . S
C887 C885 1.389 . S
C887 C888 1.524 . S
C888 C887 1.524 . S
C888 C889 1.397 . S
C888 C893 1.363 . S
C889 H860 0.950 . S
C889 C888 1.397 . S
C889 C890 1.334 . S
C890 H861 0.950 . S
C890 C889 1.334 . S
C890 C891 1.287 . S
C891 C890 1.287 . S
C891 C892 1.524 . S
C891 H894 0.999 . S
C892 H862 0.950 . S
C892 C891 1.524 . S
C892 C893 1.415 . S
C893 H863 0.950 . S
C893 C888 1.363 . S
C893 C892 1.415 . S
H894 C891 0.999 . S
H895 C876 0.913 . S
H896 C914 0.951 . S
H897 C916 0.951 . S
H898 C918 0.950 . S
H899 C919 0.950 . S
H900 C921 0.950 . S
H901 C924 0.950 . S
H902 C925 0.950 . S
H903 C927 0.950 . S
H904 C928 0.950 . S
H905 C929 0.951 . S
H906 C931 0.951 . S
H907 C933 0.950 . S
H908 C934 0.950 . S
H909 C936 0.950 . S
H910 C939 0.950 . S
H911 C940 0.950 . S
H912 C942 0.950 . S
H913 C943 0.950 . S
C914 H896 0.951 . S
C914 C915 1.366 . S
C914 C916 1.388 . S
C915 C914 1.366 . S
C915 C919 1.385 . S
C916 H897 0.951 . S
C916 C914 1.388 . S
C916 C917 1.366 . S
C917 C916 1.366 . S
C917 C918 1.414 . S
C917 C920 1.499 . S
C918 H898 0.950 . S
C918 C917 1.414 . S
C918 C919 1.374 . S
C919 H899 0.950 . S
C919 C915 1.385 . S
C919 C918 1.374 . S
C920 C917 1.499 . S
C920 C921 1.373 . S
C920 C922 1.389 . S
C921 H900 0.950 . S
C921 C920 1.373 . S
C921 C937 1.377 . S
C922 C920 1.389 . S
C922 C923 1.524 . S
C922 C936 1.377 . S
C923 C922 1.524 . S
C923 C924 1.397 . S
C923 C928 1.363 . S
C924 H901 0.950 . S
C924 C923 1.397 . S
C924 C925 1.334 . S
C925 H902 0.950 . S
C925 C924 1.334 . S
C925 C926 1.287 . S
C926 C925 1.287 . S
C926 C927 1.524 . S
C926 H945 0.913 . S
C927 H903 0.950 . S
C927 C926 1.524 . S
C927 C928 1.415 . S
C928 H904 0.950 . S
C928 C923 1.363 . S
C928 C927 1.415 . S
C929 H905 0.951 . S
C929 C930 1.366 . S
C929 C931 1.388 . S
C930 C929 1.366 . S
C930 C934 1.385 . S
C931 H906 0.951 . S
C931 C929 1.388 . S
C931 C932 1.366 . S
C932 C931 1.366 . S
C932 C933 1.414 . S
C932 C935 1.499 . S
C933 H907 0.950 . S
C933 C932 1.414 . S
C933 C934 1.374 . S
C934 H908 0.950 . S
C934 C930 1.385 . S
C934 C933 1.374 . S
C935 C932 1.499 . S
C935 C936 1.373 . S
C935 C937 1.389 . S
C936 H909 0.950 . S
C936 C922 1.377 . S
C936 C935 1.373 . S
C937 C921 1.377 . S
C937 C935 1.389 . S
C937 C938 1.524 . S
C938 C937 1.524 . S
C938 C939 1.397 . S
C938 C943 1.363 . S
C939 H910 0.950 . S
C939 C938 1.397 . S
C939 C940 1.334 . S
C940 H911 0.950 . S
C940 C939 1.334 . S
C940 C941 1.287 . S
C941 C940 1.287 . S
C941 C942 1.524 . S
C941 H944 0.999 . S
C942 H912 0.950 . S
C942 C941 1.524 . S
C942 C943 1.415 . S
C943 H913 0.950 . S
C943 C938 1.363 . S
C943 C942 1.415 . S
H944 C941 0.999 . S
H945 C926 0.913 . S
H946 C964 0.951 . S
H947 C966 0.951 . S
H948 C968 0.950 . S
H949 C969 0.950 1_545 S
H950 C971 0.950 . S
H951 C974 0.950 . S
H952 C975 0.950 . S
H953 C977 0.950 . S
H954 C978 0.950 . S
H955 C979 0.951 . S
H956 C981 0.951 . S
H957 C983 0.950 . S
H958 C984 0.950 . S
H959 C986 0.950 . S
H960 C989 0.950 . S
H961 C990 0.950 . S
H962 C992 0.950 1_545 S
H963 C993 0.950 . S
C964 H946 0.951 . S
C964 C965 1.366 . S
C964 C966 1.388 . S
C965 C964 1.366 . S
C965 C969 1.385 . S
C966 H947 0.951 . S
C966 C964 1.388 . S
C966 C967 1.366 . S
C967 C966 1.366 . S
C967 C968 1.414 . S
C967 C970 1.499 . S
C968 H948 0.950 . S
C968 C967 1.414 . S
C968 C969 1.374 . S
C969 H949 0.950 1_565 S
C969 C965 1.385 . S
C969 C968 1.374 . S
C970 C967 1.499 . S
C970 C971 1.373 . S
C970 C972 1.389 . S
C971 H950 0.950 . S
C971 C970 1.373 . S
C971 C987 1.377 . S
C972 C970 1.389 . S
C972 C973 1.524 . S
C972 C986 1.377 . S
C973 C972 1.524 . S
C973 C974 1.397 . S
C973 C978 1.363 . S
C974 H951 0.950 . S
C974 C973 1.397 . S
C974 C975 1.334 . S
C975 H952 0.950 . S
C975 C974 1.334 . S
C975 C976 1.287 . S
C976 C975 1.287 . S
C976 C977 1.524 . S
C976 H995 0.913 . S
C977 H953 0.950 . S
C977 C976 1.524 . S
C977 C978 1.415 . S
C978 H954 0.950 . S
C978 C973 1.363 . S
C978 C977 1.415 . S
C979 H955 0.951 . S
C979 C980 1.366 . S
C979 C981 1.388 . S
C980 C979 1.366 . S
C980 C984 1.385 . S
C981 H956 0.951 . S
C981 C979 1.388 . S
C981 C982 1.366 . S
C982 C981 1.366 . S
C982 C983 1.414 . S
C982 C985 1.499 . S
C983 H957 0.950 . S
C983 C982 1.414 . S
C983 C984 1.374 . S
C984 H958 0.950 . S
C984 C980 1.385 . S
C984 C983 1.374 . S
C985 C982 1.499 . S
C985 C986 1.373 . S
C985 C987 1.389 . S
C986 H959 0.950 . S
C986 C972 1.377 . S
C986 C985 1.373 . S
C987 C971 1.377 . S
C987 C985 1.389 . S
C987 C988 1.524 . S
C988 C987 1.524 . S
C988 C989 1.397 . S
C988 C993 1.363 . S
C989 H960 0.950 . S
C989 C988 1.397 . S
C989 C990 1.334 . S
C990 H961 0.950 . S
C990 C989 1.334 . S
C990 C991 1.287 . S
C991 C990 1.287 . S
C991 C992 1.524 . S
C991 H994 0.999 . S
C992 H962 0.950 1_565 S
C992 C991 1.524 . S
C992 C993 1.415 . S
C993 H963 0.950 . S
C993 C988 1.363 . S
C993 C992 1.415 . S
H994 C991 0.999 . S
H995 C976 0.913 . S
H996 C1014 0.951 . S
H997 C1016 0.951 . S
H998 C1018 0.950 . S
H999 C1019 0.950 . S
H1000 C1021 0.950 . S
H1001 C1024 0.950 . S
H1002 C1025 0.950 . S
H1003 C1027 0.950 . S
H1004 C1028 0.950 . S
H1005 C1029 0.951 . S
H1006 C1031 0.951 . S
H1007 C1033 0.950 . S
H1008 C1034 0.950 . S
H1009 C1036 0.950 . S
H1010 C1039 0.950 . S
H1011 C1040 0.950 . S
H1012 C1042 0.950 . S
H1013 C1043 0.950 . S
C1014 H996 0.951 . S
C1014 C1015 1.366 . S
C1014 C1016 1.388 . S
C1015 C1014 1.366 . S
C1015 C1019 1.385 . S
C1016 H997 0.951 . S
C1016 C1014 1.388 . S
C1016 C1017 1.366 . S
C1017 C1016 1.366 . S
C1017 C1018 1.414 . S
C1017 C1020 1.499 . S
C1018 H998 0.950 . S
C1018 C1017 1.414 . S
C1018 C1019 1.374 . S
C1019 H999 0.950 . S
C1019 C1015 1.385 . S
C1019 C1018 1.374 . S
C1020 C1017 1.499 . S
C1020 C1021 1.373 . S
C1020 C1022 1.389 . S
C1021 H1000 0.950 . S
C1021 C1020 1.373 . S
C1021 C1037 1.377 . S
C1022 C1020 1.389 . S
C1022 C1023 1.524 . S
C1022 C1036 1.377 . S
C1023 C1022 1.524 . S
C1023 C1024 1.397 . S
C1023 C1028 1.363 . S
C1024 H1001 0.950 . S
C1024 C1023 1.397 . S
C1024 C1025 1.334 . S
C1025 H1002 0.950 . S
C1025 C1024 1.334 . S
C1025 C1026 1.287 . S
C1026 C1025 1.287 . S
C1026 C1027 1.524 . S
C1026 H1045 0.913 . S
C1027 H1003 0.950 . S
C1027 C1026 1.524 . S
C1027 C1028 1.415 . S
C1028 H1004 0.950 . S
C1028 C1023 1.363 . S
C1028 C1027 1.415 . S
C1029 H1005 0.951 . S
C1029 C1030 1.366 . S
C1029 C1031 1.388 . S
C1030 C1029 1.366 . S
C1030 C1034 1.385 . S
C1031 H1006 0.951 . S
C1031 C1029 1.388 . S
C1031 C1032 1.366 . S
C1032 C1031 1.366 . S
C1032 C1033 1.414 . S
C1032 C1035 1.499 . S
C1033 H1007 0.950 . S
C1033 C1032 1.414 . S
C1033 C1034 1.374 . S
C1034 H1008 0.950 . S
C1034 C1030 1.385 . S
C1034 C1033 1.374 . S
C1035 C1032 1.499 . S
C1035 C1036 1.373 . S
C1035 C1037 1.389 . S
C1036 H1009 0.950 . S
C1036 C1022 1.377 . S
C1036 C1035 1.373 . S
C1037 C1021 1.377 . S
C1037 C1035 1.389 . S
C1037 C1038 1.524 . S
C1038 C1037 1.524 . S
C1038 C1039 1.397 . S
C1038 C1043 1.363 . S
C1039 H1010 0.950 . S
C1039 C1038 1.397 . S
C1039 C1040 1.334 . S
C1040 H1011 0.950 . S
C1040 C1039 1.334 . S
C1040 C1041 1.287 . S
C1041 C1040 1.287 . S
C1041 C1042 1.524 . S
C1041 H1044 0.999 . S
C1042 H1012 0.950 . S
C1042 C1041 1.524 . S
C1042 C1043 1.415 . S
C1043 H1013 0.950 . S
C1043 C1038 1.363 . S
C1043 C1042 1.415 . S
H1044 C1041 0.999 . S
H1045 C1026 0.913 . S
H1046 C1064 0.951 . S
H1047 C1066 0.951 . S
H1048 C1068 0.950 . S
H1049 C1069 0.950 . S
H1050 C1071 0.950 . S
H1051 C1074 0.950 . S
H1052 C1075 0.950 . S
H1053 C1077 0.950 . S
H1054 C1078 0.950 . S
H1055 C1079 0.951 . S
H1056 C1081 0.951 . S
H1057 C1083 0.950 . S
H1058 C1084 0.950 . S
H1059 C1086 0.950 . S
H1060 C1089 0.950 . S
H1061 C1090 0.950 . S
H1062 C1092 0.950 . S
H1063 C1093 0.950 . S
C1064 H1046 0.951 . S
C1064 C1065 1.366 . S
C1064 C1066 1.388 . S
C1065 C1064 1.366 . S
C1065 C1069 1.385 . S
C1066 H1047 0.951 . S
C1066 C1064 1.388 . S
C1066 C1067 1.366 . S
C1067 C1066 1.366 . S
C1067 C1068 1.414 . S
C1067 C1070 1.499 . S
C1068 H1048 0.950 . S
C1068 C1067 1.414 . S
C1068 C1069 1.374 . S
C1069 H1049 0.950 . S
C1069 C1065 1.385 . S
C1069 C1068 1.374 . S
C1070 C1067 1.499 . S
C1070 C1071 1.373 . S
C1070 C1072 1.389 . S
C1071 H1050 0.950 . S
C1071 C1070 1.373 . S
C1071 C1087 1.377 . S
C1072 C1070 1.389 . S
C1072 C1073 1.524 . S
C1072 C1086 1.377 . S
C1073 C1072 1.524 . S
C1073 C1074 1.397 . S
C1073 C1078 1.363 . S
C1074 H1051 0.950 . S
C1074 C1073 1.397 . S
C1074 C1075 1.334 . S
C1075 H1052 0.950 . S
C1075 C1074 1.334 . S
C1075 C1076 1.287 . S
C1076 C1075 1.287 . S
C1076 C1077 1.524 . S
C1076 H1095 0.913 . S
C1077 H1053 0.950 . S
C1077 C1076 1.524 . S
C1077 C1078 1.415 . S
C1078 H1054 0.950 . S
C1078 C1073 1.363 . S
C1078 C1077 1.415 . S
C1079 H1055 0.951 . S
C1079 C1080 1.366 . S
C1079 C1081 1.388 . S
C1080 C1079 1.366 . S
C1080 C1084 1.385 . S
C1081 H1056 0.951 . S
C1081 C1079 1.388 . S
C1081 C1082 1.366 . S
C1082 C1081 1.366 . S
C1082 C1083 1.414 . S
C1082 C1085 1.499 . S
C1083 H1057 0.950 . S
C1083 C1082 1.414 . S
C1083 C1084 1.374 . S
C1084 H1058 0.950 . S
C1084 C1080 1.385 . S
C1084 C1083 1.374 . S
C1085 C1082 1.499 . S
C1085 C1086 1.373 . S
C1085 C1087 1.389 . S
C1086 H1059 0.950 . S
C1086 C1072 1.377 . S
C1086 C1085 1.373 . S
C1087 C1071 1.377 . S
C1087 C1085 1.389 . S
C1087 C1088 1.524 . S
C1088 C1087 1.524 . S
C1088 C1089 1.397 . S
C1088 C1093 1.363 . S
C1089 H1060 0.950 . S
C1089 C1088 1.397 . S
C1089 C1090 1.334 . S
C1090 H1061 0.950 . S
C1090 C1089 1.334 . S
C1090 C1091 1.287 . S
C1091 C1090 1.287 . S
C1091 C1092 1.524 . S
C1091 H1094 0.999 . S
C1092 H1062 0.950 . S
C1092 C1091 1.524 . S
C1092 C1093 1.415 . S
C1093 H1063 0.950 . S
C1093 C1088 1.363 . S
C1093 C1092 1.415 . S
H1094 C1091 0.999 . S
H1095 C1076 0.913 . S
H1096 C1114 0.951 . S
H1097 C1116 0.951 . S
H1098 C1118 0.950 . S
H1099 C1119 0.950 . S
H1100 C1121 0.950 . S
H1101 C1124 0.950 . S
H1102 C1125 0.950 . S
H1103 C1127 0.950 . S
H1104 C1128 0.950 . S
H1105 C1129 0.951 . S
H1106 C1131 0.951 . S
H1107 C1133 0.950 . S
H1108 C1134 0.950 . S
H1109 C1136 0.950 . S
H1110 C1139 0.950 . S
H1111 C1140 0.950 . S
H1112 C1142 0.950 . S
H1113 C1143 0.950 . S
C1114 H1096 0.951 . S
C1114 C1115 1.366 . S
C1114 C1116 1.388 . S
C1115 C1114 1.366 . S
C1115 C1119 1.385 . S
C1116 H1097 0.951 . S
C1116 C1114 1.388 . S
C1116 C1117 1.366 . S
C1117 C1116 1.366 . S
C1117 C1118 1.414 . S
C1117 C1120 1.499 . S
C1118 H1098 0.950 . S
C1118 C1117 1.414 . S
C1118 C1119 1.374 . S
C1119 H1099 0.950 . S
C1119 C1115 1.385 . S
C1119 C1118 1.374 . S
C1120 C1117 1.499 . S
C1120 C1121 1.373 . S
C1120 C1122 1.389 . S
C1121 H1100 0.950 . S
C1121 C1120 1.373 . S
C1121 C1137 1.377 . S
C1122 C1120 1.389 . S
C1122 C1123 1.524 . S
C1122 C1136 1.377 . S
C1123 C1122 1.524 . S
C1123 C1124 1.397 . S
C1123 C1128 1.363 . S
C1124 H1101 0.950 . S
C1124 C1123 1.397 . S
C1124 C1125 1.334 . S
C1125 H1102 0.950 . S
C1125 C1124 1.334 . S
C1125 C1126 1.287 . S
C1126 C1125 1.287 . S
C1126 C1127 1.524 . S
C1126 H1145 0.913 . S
C1127 H1103 0.950 . S
C1127 C1126 1.524 . S
C1127 C1128 1.415 . S
C1128 H1104 0.950 . S
C1128 C1123 1.363 . S
C1128 C1127 1.415 . S
C1129 H1105 0.951 . S
C1129 C1130 1.366 . S
C1129 C1131 1.388 . S
C1130 C1129 1.366 . S
C1130 C1134 1.385 . S
C1131 H1106 0.951 . S
C1131 C1129 1.388 . S
C1131 C1132 1.366 . S
C1132 C1131 1.366 . S
C1132 C1133 1.414 . S
C1132 C1135 1.499 . S
C1133 H1107 0.950 . S
C1133 C1132 1.414 . S
C1133 C1134 1.374 . S
C1134 H1108 0.950 . S
C1134 C1130 1.385 . S
C1134 C1133 1.374 . S
C1135 C1132 1.499 . S
C1135 C1136 1.373 . S
C1135 C1137 1.389 . S
C1136 H1109 0.950 . S
C1136 C1122 1.377 . S
C1136 C1135 1.373 . S
C1137 C1121 1.377 . S
C1137 C1135 1.389 . S
C1137 C1138 1.524 . S
C1138 C1137 1.524 . S
C1138 C1139 1.397 . S
C1138 C1143 1.363 . S
C1139 H1110 0.950 . S
C1139 C1138 1.397 . S
C1139 C1140 1.334 . S
C1140 H1111 0.950 . S
C1140 C1139 1.334 . S
C1140 C1141 1.287 . S
C1141 C1140 1.287 . S
C1141 C1142 1.524 . S
C1141 H1144 0.999 . S
C1142 H1112 0.950 . S
C1142 C1141 1.524 . S
C1142 C1143 1.415 . S
C1143 H1113 0.950 . S
C1143 C1138 1.363 . S
C1143 C1142 1.415 . S
H1144 C1141 0.999 . S
H1145 C1126 0.913 . S
H1146 C1164 0.951 . S
H1147 C1166 0.951 . S
H1148 C1168 0.950 . S
H1149 C1169 0.950 . S
H1150 C1171 0.950 . S
H1151 C1174 0.950 . S
H1152 C1175 0.950 . S
H1153 C1177 0.950 . S
H1154 C1178 0.950 . S
H1155 C1179 0.951 . S
H1156 C1181 0.951 . S
H1157 C1183 0.950 . S
H1158 C1184 0.950 . S
H1159 C1186 0.950 . S
H1160 C1189 0.950 . S
H1161 C1190 0.950 . S
H1162 C1192 0.950 . S
H1163 C1193 0.950 . S
C1164 H1146 0.951 . S
C1164 C1165 1.366 . S
C1164 C1166 1.388 . S
C1165 C1164 1.366 . S
C1165 C1169 1.385 . S
C1166 H1147 0.951 . S
C1166 C1164 1.388 . S
C1166 C1167 1.366 . S
C1167 C1166 1.366 . S
C1167 C1168 1.414 . S
C1167 C1170 1.499 . S
C1168 H1148 0.950 . S
C1168 C1167 1.414 . S
C1168 C1169 1.374 . S
C1169 H1149 0.950 . S
C1169 C1165 1.385 . S
C1169 C1168 1.374 . S
C1170 C1167 1.499 . S
C1170 C1171 1.373 . S
C1170 C1172 1.389 . S
C1171 H1150 0.950 . S
C1171 C1170 1.373 . S
C1171 C1187 1.377 . S
C1172 C1170 1.389 . S
C1172 C1173 1.524 . S
C1172 C1186 1.377 . S
C1173 C1172 1.524 . S
C1173 C1174 1.397 . S
C1173 C1178 1.363 . S
C1174 H1151 0.950 . S
C1174 C1173 1.397 . S
C1174 C1175 1.334 . S
C1175 H1152 0.950 . S
C1175 C1174 1.334 . S
C1175 C1176 1.287 . S
C1176 C1175 1.287 . S
C1176 C1177 1.524 . S
C1176 H1195 0.913 . S
C1177 H1153 0.950 . S
C1177 C1176 1.524 . S
C1177 C1178 1.415 . S
C1178 H1154 0.950 . S
C1178 C1173 1.363 . S
C1178 C1177 1.415 . S
C1179 H1155 0.951 . S
C1179 C1180 1.366 . S
C1179 C1181 1.388 . S
C1180 C1179 1.366 . S
C1180 C1184 1.385 . S
C1181 H1156 0.951 . S
C1181 C1179 1.388 . S
C1181 C1182 1.366 . S
C1182 C1181 1.366 . S
C1182 C1183 1.414 . S
C1182 C1185 1.499 . S
C1183 H1157 0.950 . S
C1183 C1182 1.414 . S
C1183 C1184 1.374 . S
C1184 H1158 0.950 . S
C1184 C1180 1.385 . S
C1184 C1183 1.374 . S
C1185 C1182 1.499 . S
C1185 C1186 1.373 . S
C1185 C1187 1.389 . S
C1186 H1159 0.950 . S
C1186 C1172 1.377 . S
C1186 C1185 1.373 . S
C1187 C1171 1.377 . S
C1187 C1185 1.389 . S
C1187 C1188 1.524 . S
C1188 C1187 1.524 . S
C1188 C1189 1.397 . S
C1188 C1193 1.363 . S
C1189 H1160 0.950 . S
C1189 C1188 1.397 . S
C1189 C1190 1.334 . S
C1190 H1161 0.950 . S
C1190 C1189 1.334 . S
C1190 C1191 1.287 . S
C1191 C1190 1.287 . S
C1191 C1192 1.524 . S
C1191 H1194 0.999 . S
C1192 H1162 0.950 . S
C1192 C1191 1.524 . S
C1192 C1193 1.415 . S
C1193 H1163 0.950 . S
C1193 C1188 1.363 . S
C1193 C1192 1.415 . S
H1194 C1191 0.999 . S
H1195 C1176 0.913 . S
H1196 C1214 0.951 . S
H1197 C1216 0.951 . S
H1198 C1218 0.950 . S
H1199 C1219 0.950 1_556 S
H1200 C1221 0.950 . S
H1201 C1224 0.950 . S
H1202 C1225 0.950 . S
H1203 C1227 0.950 . S
H1204 C1228 0.950 . S
H1205 C1229 0.951 . S
H1206 C1231 0.951 . S
H1207 C1233 0.950 . S
H1208 C1234 0.950 . S
H1209 C1236 0.950 . S
H1210 C1239 0.950 . S
H1211 C1240 0.950 . S
H1212 C1242 0.950 . S
H1213 C1243 0.950 . S
C1214 H1196 0.951 . S
C1214 C1215 1.366 . S
C1214 C1216 1.388 . S
C1215 C1214 1.366 . S
C1215 C1219 1.385 . S
C1216 H1197 0.951 . S
C1216 C1214 1.388 . S
C1216 C1217 1.366 1_554 S
C1217 C1216 1.366 1_556 S
C1217 C1218 1.414 . S
C1217 C1220 1.499 . S
C1218 H1198 0.950 . S
C1218 C1217 1.414 . S
C1218 C1219 1.374 1_556 S
C1219 H1199 0.950 1_554 S
C1219 C1215 1.385 . S
C1219 C1218 1.374 1_554 S
C1220 C1217 1.499 . S
C1220 C1221 1.373 . S
C1220 C1222 1.389 . S
C1221 H1200 0.950 . S
C1221 C1220 1.373 . S
C1221 C1237 1.377 . S
C1222 C1220 1.389 . S
C1222 C1223 1.524 1_556 S
C1222 C1236 1.377 . S
C1223 C1222 1.524 1_554 S
C1223 C1224 1.397 . S
C1223 C1228 1.363 . S
C1224 H1201 0.950 . S
C1224 C1223 1.397 . S
C1224 C1225 1.334 . S
C1225 H1202 0.950 . S
C1225 C1224 1.334 . S
C1225 C1226 1.287 . S
C1226 C1225 1.287 . S
C1226 C1227 1.524 . S
C1226 H1245 0.913 . S
C1227 H1203 0.950 . S
C1227 C1226 1.524 . S
C1227 C1228 1.415 . S
C1228 H1204 0.950 . S
C1228 C1223 1.363 . S
C1228 C1227 1.415 . S
C1229 H1205 0.951 . S
C1229 C1230 1.366 . S
C1229 C1231 1.388 . S
C1230 C1229 1.366 . S
C1230 C1234 1.385 . S
C1231 H1206 0.951 . S
C1231 C1229 1.388 . S
C1231 C1232 1.366 . S
C1232 C1231 1.366 . S
C1232 C1233 1.414 . S
C1232 C1235 1.499 . S
C1233 H1207 0.950 . S
C1233 C1232 1.414 . S
C1233 C1234 1.374 . S
C1234 H1208 0.950 . S
C1234 C1230 1.385 . S
C1234 C1233 1.374 . S
C1235 C1232 1.499 . S
C1235 C1236 1.373 . S
C1235 C1237 1.389 . S
C1236 H1209 0.950 . S
C1236 C1222 1.377 . S
C1236 C1235 1.373 . S
C1237 C1221 1.377 . S
C1237 C1235 1.389 . S
C1237 C1238 1.524 . S
C1238 C1237 1.524 . S
C1238 C1239 1.397 . S
C1238 C1243 1.363 . S
C1239 H1210 0.950 . S
C1239 C1238 1.397 . S
C1239 C1240 1.334 . S
C1240 H1211 0.950 . S
C1240 C1239 1.334 . S
C1240 C1241 1.287 . S
C1241 C1240 1.287 . S
C1241 C1242 1.524 . S
C1241 H1244 0.999 . S
C1242 H1212 0.950 . S
C1242 C1241 1.524 . S
C1242 C1243 1.415 . S
C1243 H1213 0.950 . S
C1243 C1238 1.363 . S
C1243 C1242 1.415 . S
H1244 C1241 0.999 . S
H1245 C1226 0.913 . S
H1246 C1264 0.951 . S
H1247 C1266 0.951 . S
H1248 C1268 0.950 . S
H1249 C1269 0.950 1_554 S
H1250 C1271 0.950 . S
H1251 C1274 0.950 . S
H1252 C1275 0.950 . S
H1253 C1277 0.950 . S
H1254 C1278 0.950 . S
H1255 C1279 0.951 . S
H1256 C1281 0.951 . S
H1257 C1283 0.950 . S
H1258 C1284 0.950 . S
H1259 C1286 0.950 . S
H1260 C1289 0.950 . S
H1261 C1290 0.950 . S
H1262 C1292 0.950 . S
H1263 C1293 0.950 . S
C1264 H1246 0.951 . S
C1264 C1265 1.366 . S
C1264 C1266 1.388 . S
C1265 C1264 1.366 . S
C1265 C1269 1.385 . S
C1266 H1247 0.951 . S
C1266 C1264 1.388 . S
C1266 C1267 1.366 . S
C1267 C1266 1.366 . S
C1267 C1268 1.414 . S
C1267 C1270 1.499 . S
C1268 H1248 0.950 . S
C1268 C1267 1.414 . S
C1268 C1269 1.374 . S
C1269 H1249 0.950 1_556 S
C1269 C1265 1.385 . S
C1269 C1268 1.374 . S
C1270 C1267 1.499 . S
C1270 C1271 1.373 . S
C1270 C1272 1.389 . S
C1271 H1250 0.950 . S
C1271 C1270 1.373 . S
C1271 C1287 1.377 . S
C1272 C1270 1.389 . S
C1272 C1273 1.524 . S
C1272 C1286 1.377 . S
C1273 C1272 1.524 . S
C1273 C1274 1.397 . S
C1273 C1278 1.363 . S
C1274 H1251 0.950 . S
C1274 C1273 1.397 . S
C1274 C1275 1.334 . S
C1275 H1252 0.950 . S
C1275 C1274 1.334 . S
C1275 C1276 1.287 . S
C1276 C1275 1.287 . S
C1276 C1277 1.524 . S
C1276 H1295 0.913 . S
C1277 H1253 0.950 . S
C1277 C1276 1.524 . S
C1277 C1278 1.415 . S
C1278 H1254 0.950 . S
C1278 C1273 1.363 . S
C1278 C1277 1.415 . S
C1279 H1255 0.951 . S
C1279 C1280 1.366 . S
C1279 C1281 1.388 . S
C1280 C1279 1.366 . S
C1280 C1284 1.385 . S
C1281 H1256 0.951 . S
C1281 C1279 1.388 . S
C1281 C1282 1.366 . S
C1282 C1281 1.366 . S
C1282 C1283 1.414 . S
C1282 C1285 1.499 . S
C1283 H1257 0.950 . S
C1283 C1282 1.414 . S
C1283 C1284 1.374 . S
C1284 H1258 0.950 . S
C1284 C1280 1.385 . S
C1284 C1283 1.374 . S
C1285 C1282 1.499 . S
C1285 C1286 1.373 . S
C1285 C1287 1.389 . S
C1286 H1259 0.950 . S
C1286 C1272 1.377 . S
C1286 C1285 1.373 . S
C1287 C1271 1.377 . S
C1287 C1285 1.389 . S
C1287 C1288 1.524 . S
C1288 C1287 1.524 . S
C1288 C1289 1.397 . S
C1288 C1293 1.363 . S
C1289 H1260 0.950 . S
C1289 C1288 1.397 . S
C1289 C1290 1.334 . S
C1290 H1261 0.950 . S
C1290 C1289 1.334 . S
C1290 C1291 1.287 . S
C1291 C1290 1.287 . S
C1291 C1292 1.524 . S
C1291 H1294 0.999 . S
C1292 H1262 0.950 . S
C1292 C1291 1.524 . S
C1292 C1293 1.415 . S
C1293 H1263 0.950 . S
C1293 C1288 1.363 . S
C1293 C1292 1.415 . S
H1294 C1291 0.999 . S
H1295 C1276 0.913 . S
H1296 C1314 0.951 . S
H1297 C1316 0.951 . S
H1298 C1318 0.950 . S
H1299 C1319 0.950 . S
H1300 C1321 0.950 . S
H1301 C1324 0.950 . S
H1302 C1325 0.950 . S
H1303 C1327 0.950 . S
H1304 C1328 0.950 . S
H1305 C1329 0.951 . S
H1306 C1331 0.951 . S
H1307 C1333 0.950 . S
H1308 C1334 0.950 . S
H1309 C1336 0.950 . S
H1310 C1339 0.950 . S
H1311 C1340 0.950 . S
H1312 C1342 0.950 . S
H1313 C1343 0.950 . S
C1314 H1296 0.951 . S
C1314 C1315 1.366 . S
C1314 C1316 1.388 . S
C1315 C1314 1.366 . S
C1315 C1319 1.385 . S
C1316 H1297 0.951 . S
C1316 C1314 1.388 . S
C1316 C1317 1.366 . S
C1317 C1316 1.366 . S
C1317 C1318 1.414 . S
C1317 C1320 1.499 . S
C1318 H1298 0.950 . S
C1318 C1317 1.414 . S
C1318 C1319 1.374 . S
C1319 H1299 0.950 . S
C1319 C1315 1.385 . S
C1319 C1318 1.374 . S
C1320 C1317 1.499 . S
C1320 C1321 1.373 . S
C1320 C1322 1.389 . S
C1321 H1300 0.950 . S
C1321 C1320 1.373 . S
C1321 C1337 1.377 . S
C1322 C1320 1.389 . S
C1322 C1323 1.524 . S
C1322 C1336 1.377 . S
C1323 C1322 1.524 . S
C1323 C1324 1.397 . S
C1323 C1328 1.363 . S
C1324 H1301 0.950 . S
C1324 C1323 1.397 . S
C1324 C1325 1.334 . S
C1325 H1302 0.950 . S
C1325 C1324 1.334 . S
C1325 C1326 1.287 . S
C1326 C1325 1.287 . S
C1326 C1327 1.524 . S
C1326 H1345 0.913 . S
C1327 H1303 0.950 . S
C1327 C1326 1.524 . S
C1327 C1328 1.415 . S
C1328 H1304 0.950 . S
C1328 C1323 1.363 . S
C1328 C1327 1.415 . S
C1329 H1305 0.951 . S
C1329 C1330 1.366 . S
C1329 C1331 1.388 . S
C1330 C1329 1.366 . S
C1330 C1334 1.385 . S
C1331 H1306 0.951 . S
C1331 C1329 1.388 . S
C1331 C1332 1.366 . S
C1332 C1331 1.366 . S
C1332 C1333 1.414 . S
C1332 C1335 1.499 . S
C1333 H1307 0.950 . S
C1333 C1332 1.414 . S
C1333 C1334 1.374 . S
C1334 H1308 0.950 . S
C1334 C1330 1.385 . S
C1334 C1333 1.374 . S
C1335 C1332 1.499 . S
C1335 C1336 1.373 . S
C1335 C1337 1.389 . S
C1336 H1309 0.950 . S
C1336 C1322 1.377 . S
C1336 C1335 1.373 . S
C1337 C1321 1.377 . S
C1337 C1335 1.389 . S
C1337 C1338 1.524 . S
C1338 C1337 1.524 . S
C1338 C1339 1.397 . S
C1338 C1343 1.363 . S
C1339 H1310 0.950 . S
C1339 C1338 1.397 . S
C1339 C1340 1.334 . S
C1340 H1311 0.950 . S
C1340 C1339 1.334 . S
C1340 C1341 1.287 . S
C1341 C1340 1.287 . S
C1341 C1342 1.524 . S
C1341 H1344 0.999 . S
C1342 H1312 0.950 . S
C1342 C1341 1.524 . S
C1342 C1343 1.415 . S
C1343 H1313 0.950 . S
C1343 C1338 1.363 . S
C1343 C1342 1.415 . S
H1344 C1341 0.999 . S
H1345 C1326 0.913 . S
H1346 C1364 0.951 . S
H1347 C1366 0.951 . S
H1348 C1368 0.950 . S
H1349 C1369 0.950 . S
H1350 C1371 0.950 . S
H1351 C1374 0.950 . S
H1352 C1375 0.950 . S
H1353 C1377 0.950 . S
H1354 C1378 0.950 . S
H1355 C1379 0.951 . S
H1356 C1381 0.951 . S
H1357 C1383 0.950 . S
H1358 C1384 0.950 . S
H1359 C1386 0.950 . S
H1360 C1389 0.950 . S
H1361 C1390 0.950 . S
H1362 C1392 0.950 . S
H1363 C1393 0.950 . S
C1364 H1346 0.951 . S
C1364 C1365 1.366 . S
C1364 C1366 1.388 . S
C1365 C1364 1.366 . S
C1365 C1369 1.385 . S
C1366 H1347 0.951 . S
C1366 C1364 1.388 . S
C1366 C1367 1.366 . S
C1367 C1366 1.366 . S
C1367 C1368 1.414 . S
C1367 C1370 1.499 . S
C1368 H1348 0.950 . S
C1368 C1367 1.414 . S
C1368 C1369 1.374 . S
C1369 H1349 0.950 . S
C1369 C1365 1.385 . S
C1369 C1368 1.374 . S
C1370 C1367 1.499 . S
C1370 C1371 1.373 . S
C1370 C1372 1.389 . S
C1371 H1350 0.950 . S
C1371 C1370 1.373 . S
C1371 C1387 1.377 . S
C1372 C1370 1.389 . S
C1372 C1373 1.524 . S
C1372 C1386 1.377 . S
C1373 C1372 1.524 . S
C1373 C1374 1.397 . S
C1373 C1378 1.363 . S
C1374 H1351 0.950 . S
C1374 C1373 1.397 . S
C1374 C1375 1.334 . S
C1375 H1352 0.950 . S
C1375 C1374 1.334 . S
C1375 C1376 1.287 . S
C1376 C1375 1.287 . S
C1376 C1377 1.524 . S
C1376 H1395 0.913 . S
C1377 H1353 0.950 . S
C1377 C1376 1.524 . S
C1377 C1378 1.415 . S
C1378 H1354 0.950 . S
C1378 C1373 1.363 . S
C1378 C1377 1.415 . S
C1379 H1355 0.951 . S
C1379 C1380 1.366 . S
C1379 C1381 1.388 . S
C1380 C1379 1.366 . S
C1380 C1384 1.385 . S
C1381 H1356 0.951 . S
C1381 C1379 1.388 . S
C1381 C1382 1.366 . S
C1382 C1381 1.366 . S
C1382 C1383 1.414 . S
C1382 C1385 1.499 . S
C1383 H1357 0.950 . S
C1383 C1382 1.414 . S
C1383 C1384 1.374 . S
C1384 H1358 0.950 . S
C1384 C1380 1.385 . S
C1384 C1383 1.374 . S
C1385 C1382 1.499 . S
C1385 C1386 1.373 . S
C1385 C1387 1.389 . S
C1386 H1359 0.950 . S
C1386 C1372 1.377 . S
C1386 C1385 1.373 . S
C1387 C1371 1.377 . S
C1387 C1385 1.389 . S
C1387 C1388 1.524 . S
C1388 C1387 1.524 . S
C1388 C1389 1.397 . S
C1388 C1393 1.363 . S
C1389 H1360 0.950 . S
C1389 C1388 1.397 . S
C1389 C1390 1.334 . S
C1390 H1361 0.950 . S
C1390 C1389 1.334 . S
C1390 C1391 1.287 . S
C1391 C1390 1.287 . S
C1391 C1392 1.524 . S
C1391 H1394 0.999 . S
C1392 H1362 0.950 . S
C1392 C1391 1.524 . S
C1392 C1393 1.415 . S
C1393 H1363 0.950 . S
C1393 C1388 1.363 . S
C1393 C1392 1.415 . S
H1394 C1391 0.999 . S
H1395 C1376 0.913 . S
H1396 C1414 0.951 . S
H1397 C1416 0.951 . S
H1398 C1418 0.950 . S
H1399 C1419 0.950 . S
H1400 C1421 0.950 . S
H1401 C1424 0.950 . S
H1402 C1425 0.950 . S
H1403 C1427 0.950 . S
H1404 C1428 0.950 . S
H1405 C1429 0.951 . S
H1406 C1431 0.951 . S
H1407 C1433 0.950 . S
H1408 C1434 0.950 . S
H1409 C1436 0.950 . S
H1410 C1439 0.950 . S
H1411 C1440 0.950 . S
H1412 C1442 0.950 . S
H1413 C1443 0.950 . S
C1414 H1396 0.951 . S
C1414 C1415 1.366 . S
C1414 C1416 1.388 . S
C1415 C1414 1.366 . S
C1415 C1419 1.385 . S
C1416 H1397 0.951 . S
C1416 C1414 1.388 . S
C1416 C1417 1.366 . S
C1417 C1416 1.366 . S
C1417 C1418 1.414 . S
C1417 C1420 1.499 . S
C1418 H1398 0.950 . S
C1418 C1417 1.414 . S
C1418 C1419 1.374 . S
C1419 H1399 0.950 . S
C1419 C1415 1.385 . S
C1419 C1418 1.374 . S
C1420 C1417 1.499 . S
C1420 C1421 1.373 . S
C1420 C1422 1.389 . S
C1421 H1400 0.950 . S
C1421 C1420 1.373 . S
C1421 C1437 1.377 . S
C1422 C1420 1.389 . S
C1422 C1423 1.524 . S
C1422 C1436 1.377 . S
C1423 C1422 1.524 . S
C1423 C1424 1.397 . S
C1423 C1428 1.363 . S
C1424 H1401 0.950 . S
C1424 C1423 1.397 . S
C1424 C1425 1.334 . S
C1425 H1402 0.950 . S
C1425 C1424 1.334 . S
C1425 C1426 1.287 . S
C1426 C1425 1.287 . S
C1426 C1427 1.524 . S
C1426 H1445 0.913 . S
C1427 H1403 0.950 . S
C1427 C1426 1.524 . S
C1427 C1428 1.415 . S
C1428 H1404 0.950 . S
C1428 C1423 1.363 . S
C1428 C1427 1.415 . S
C1429 H1405 0.951 . S
C1429 C1430 1.366 . S
C1429 C1431 1.388 . S
C1430 C1429 1.366 . S
C1430 C1434 1.385 . S
C1431 H1406 0.951 . S
C1431 C1429 1.388 . S
C1431 C1432 1.366 . S
C1432 C1431 1.366 . S
C1432 C1433 1.414 . S
C1432 C1435 1.499 . S
C1433 H1407 0.950 . S
C1433 C1432 1.414 . S
C1433 C1434 1.374 . S
C1434 H1408 0.950 . S
C1434 C1430 1.385 . S
C1434 C1433 1.374 . S
C1435 C1432 1.499 . S
C1435 C1436 1.373 . S
C1435 C1437 1.389 . S
C1436 H1409 0.950 . S
C1436 C1422 1.377 . S
C1436 C1435 1.373 . S
C1437 C1421 1.377 . S
C1437 C1435 1.389 . S
C1437 C1438 1.524 . S
C1438 C1437 1.524 . S
C1438 C1439 1.397 . S
C1438 C1443 1.363 . S
C1439 H1410 0.950 . S
C1439 C1438 1.397 . S
C1439 C1440 1.334 . S
C1440 H1411 0.950 . S
C1440 C1439 1.334 . S
C1440 C1441 1.287 . S
C1441 C1440 1.287 . S
C1441 C1442 1.524 . S
C1441 H1444 0.999 . S
C1442 H1412 0.950 . S
C1442 C1441 1.524 . S
C1442 C1443 1.415 . S
C1443 H1413 0.950 . S
C1443 C1438 1.363 . S
C1443 C1442 1.415 . S
H1444 C1441 0.999 . S
H1445 C1426 0.913 . S
H1446 C1464 0.951 . S
H1447 C1466 0.951 . S
H1448 C1468 0.950 . S
H1449 C1469 0.950 . S
H1450 C1471 0.950 . S
H1451 C1474 0.950 . S
H1452 C1475 0.950 1_554 S
H1453 C1477 0.950 . S
H1454 C1478 0.950 . S
H1455 C1479 0.951 . S
H1456 C1481 0.951 . S
H1457 C1483 0.950 . S
H1458 C1484 0.950 . S
H1459 C1486 0.950 . S
H1460 C1489 0.950 . S
H1461 C1490 0.950 . S
H1462 C1492 0.950 . S
H1463 C1493 0.950 . S
C1464 H1446 0.951 . S
C1464 C1465 1.366 . S
C1464 C1466 1.388 . S
C1465 C1464 1.366 . S
C1465 C1469 1.385 . S
C1466 H1447 0.951 . S
C1466 C1464 1.388 . S
C1466 C1467 1.366 . S
C1467 C1466 1.366 . S
C1467 C1468 1.414 . S
C1467 C1470 1.499 . S
C1468 H1448 0.950 . S
C1468 C1467 1.414 . S
C1468 C1469 1.374 . S
C1469 H1449 0.950 . S
C1469 C1465 1.385 . S
C1469 C1468 1.374 . S
C1470 C1467 1.499 . S
C1470 C1471 1.373 . S
C1470 C1472 1.389 . S
C1471 H1450 0.950 . S
C1471 C1470 1.373 . S
C1471 C1487 1.377 . S
C1472 C1470 1.389 . S
C1472 C1473 1.524 . S
C1472 C1486 1.377 . S
C1473 C1472 1.524 . S
C1473 C1474 1.397 . S
C1473 C1478 1.363 . S
C1474 H1451 0.950 . S
C1474 C1473 1.397 . S
C1474 C1475 1.334 . S
C1475 H1452 0.950 1_556 S
C1475 C1474 1.334 . S
C1475 C1476 1.287 . S
C1476 C1475 1.287 . S
C1476 C1477 1.524 . S
C1476 H1495 0.913 1_556 S
C1477 H1453 0.950 . S
C1477 C1476 1.524 . S
C1477 C1478 1.415 . S
C1478 H1454 0.950 . S
C1478 C1473 1.363 . S
C1478 C1477 1.415 . S
C1479 H1455 0.951 . S
C1479 C1480 1.366 . S
C1479 C1481 1.388 . S
C1480 C1479 1.366 . S
C1480 C1484 1.385 . S
C1481 H1456 0.951 . S
C1481 C1479 1.388 . S
C1481 C1482 1.366 . S
C1482 C1481 1.366 . S
C1482 C1483 1.414 . S
C1482 C1485 1.499 . S
C1483 H1457 0.950 . S
C1483 C1482 1.414 . S
C1483 C1484 1.374 . S
C1484 H1458 0.950 . S
C1484 C1480 1.385 . S
C1484 C1483 1.374 . S
C1485 C1482 1.499 . S
C1485 C1486 1.373 . S
C1485 C1487 1.389 . S
C1486 H1459 0.950 . S
C1486 C1472 1.377 . S
C1486 C1485 1.373 . S
C1487 C1471 1.377 . S
C1487 C1485 1.389 . S
C1487 C1488 1.524 . S
C1488 C1487 1.524 . S
C1488 C1489 1.397 . S
C1488 C1493 1.363 . S
C1489 H1460 0.950 . S
C1489 C1488 1.397 . S
C1489 C1490 1.334 . S
C1490 H1461 0.950 . S
C1490 C1489 1.334 . S
C1490 C1491 1.287 . S
C1491 C1490 1.287 . S
C1491 C1492 1.524 . S
C1491 H1494 0.999 . S
C1492 H1462 0.950 . S
C1492 C1491 1.524 . S
C1492 C1493 1.415 . S
C1493 H1463 0.950 . S
C1493 C1488 1.363 . S
C1493 C1492 1.415 . S
H1494 C1491 0.999 . S
H1495 C1476 0.913 1_554 S
H1496 C1514 0.951 . S
H1497 C1516 0.951 . S
H1498 C1518 0.950 . S
H1499 C1519 0.950 . S
H1500 C1521 0.950 . S
H1501 C1524 0.950 . S
H1502 C1525 0.950 . S
H1503 C1527 0.950 . S
H1504 C1528 0.950 . S
H1505 C1529 0.951 . S
H1506 C1531 0.951 . S
H1507 C1533 0.950 . S
H1508 C1534 0.950 . S
H1509 C1536 0.950 . S
H1510 C1539 0.950 . S
H1511 C1540 0.950 . S
H1512 C1542 0.950 . S
H1513 C1543 0.950 . S
C1514 H1496 0.951 . S
C1514 C1515 1.366 . S
C1514 C1516 1.388 1_554 S
C1515 C1514 1.366 . S
C1515 C1519 1.385 . S
C1516 H1497 0.951 . S
C1516 C1514 1.388 1_556 S
C1516 C1517 1.366 . S
C1517 C1516 1.366 . S
C1517 C1518 1.414 . S
C1517 C1520 1.499 . S
C1518 H1498 0.950 . S
C1518 C1517 1.414 . S
C1518 C1519 1.374 1_556 S
C1519 H1499 0.950 . S
C1519 C1515 1.385 . S
C1519 C1518 1.374 1_554 S
C1520 C1517 1.499 . S
C1520 C1521 1.373 . S
C1520 C1522 1.389 . S
C1521 H1500 0.950 . S
C1521 C1520 1.373 . S
C1521 C1537 1.377 . S
C1522 C1520 1.389 . S
C1522 C1523 1.524 . S
C1522 C1536 1.377 . S
C1523 C1522 1.524 . S
C1523 C1524 1.397 . S
C1523 C1528 1.363 . S
C1524 H1501 0.950 . S
C1524 C1523 1.397 . S
C1524 C1525 1.334 1_556 S
C1525 H1502 0.950 . S
C1525 C1524 1.334 1_554 S
C1525 C1526 1.287 . S
C1526 C1525 1.287 . S
C1526 C1527 1.524 1_554 S
C1526 H1545 0.913 . S
C1527 H1503 0.950 . S
C1527 C1526 1.524 1_556 S
C1527 C1528 1.415 . S
C1528 H1504 0.950 . S
C1528 C1523 1.363 . S
C1528 C1527 1.415 . S
C1529 H1505 0.951 . S
C1529 C1530 1.366 . S
C1529 C1531 1.388 . S
C1530 C1529 1.366 . S
C1530 C1534 1.385 . S
C1531 H1506 0.951 . S
C1531 C1529 1.388 . S
C1531 C1532 1.366 . S
C1532 C1531 1.366 . S
C1532 C1533 1.414 . S
C1532 C1535 1.499 . S
C1533 H1507 0.950 . S
C1533 C1532 1.414 . S
C1533 C1534 1.374 . S
C1534 H1508 0.950 . S
C1534 C1530 1.385 . S
C1534 C1533 1.374 . S
C1535 C1532 1.499 . S
C1535 C1536 1.373 . S
C1535 C1537 1.389 . S
C1536 H1509 0.950 . S
C1536 C1522 1.377 . S
C1536 C1535 1.373 . S
C1537 C1521 1.377 . S
C1537 C1535 1.389 . S
C1537 C1538 1.524 . S
C1538 C1537 1.524 . S
C1538 C1539 1.397 . S
C1538 C1543 1.363 . S
C1539 H1510 0.950 . S
C1539 C1538 1.397 . S
C1539 C1540 1.334 . S
C1540 H1511 0.950 . S
C1540 C1539 1.334 . S
C1540 C1541 1.287 . S
C1541 C1540 1.287 . S
C1541 C1542 1.524 . S
C1541 H1544 0.999 . S
C1542 H1512 0.950 . S
C1542 C1541 1.524 . S
C1542 C1543 1.415 . S
C1543 H1513 0.950 . S
C1543 C1538 1.363 . S
C1543 C1542 1.415 . S
H1544 C1541 0.999 . S
H1545 C1526 0.913 . S
H1546 C1564 0.951 . S
H1547 C1566 0.951 . S
H1548 C1568 0.950 . S
H1549 C1569 0.950 1_455 S
H1550 C1571 0.950 . S
H1551 C1574 0.950 . S
H1552 C1575 0.950 . S
H1553 C1577 0.950 . S
H1554 C1578 0.950 1_556 S
H1555 C1579 0.951 . S
H1556 C1581 0.951 . S
H1557 C1583 0.950 . S
H1558 C1584 0.950 . S
H1559 C1586 0.950 . S
H1560 C1589 0.950 . S
H1561 C1590 0.950 . S
H1562 C1592 0.950 . S
H1563 C1593 0.950 . S
C1564 H1546 0.951 . S
C1564 C1565 1.366 . S
C1564 C1566 1.388 1_554 S
C1565 C1564 1.366 . S
C1565 C1569 1.385 . S
C1566 H1547 0.951 . S
C1566 C1564 1.388 1_556 S
C1566 C1567 1.366 . S
C1567 C1566 1.366 . S
C1567 C1568 1.414 . S
C1567 C1570 1.499 . S
C1568 H1548 0.950 . S
C1568 C1567 1.414 . S
C1568 C1569 1.374 1_556 S
C1569 H1549 0.950 1_655 S
C1569 C1565 1.385 . S
C1569 C1568 1.374 1_554 S
C1570 C1567 1.499 . S
C1570 C1571 1.373 . S
C1570 C1572 1.389 . S
C1571 H1550 0.950 . S
C1571 C1570 1.373 . S
C1571 C1587 1.377 . S
C1572 C1570 1.389 . S
C1572 C1573 1.524 1_556 S
C1572 C1586 1.377 . S
C1573 C1572 1.524 1_554 S
C1573 C1574 1.397 . S
C1573 C1578 1.363 . S
C1574 H1551 0.950 . S
C1574 C1573 1.397 . S
C1574 C1575 1.334 . S
C1575 H1552 0.950 . S
C1575 C1574 1.334 . S
C1575 C1576 1.287 . S
C1576 C1575 1.287 . S
C1576 C1577 1.524 . S
C1576 H1595 0.913 . S
C1577 H1553 0.950 . S
C1577 C1576 1.524 . S
C1577 C1578 1.415 . S
C1578 H1554 0.950 1_554 S
C1578 C1573 1.363 . S
C1578 C1577 1.415 . S
C1579 H1555 0.951 . S
C1579 C1580 1.366 . S
C1579 C1581 1.388 . S
C1580 C1579 1.366 . S
C1580 C1584 1.385 . S
C1581 H1556 0.951 . S
C1581 C1579 1.388 . S
C1581 C1582 1.366 . S
C1582 C1581 1.366 . S
C1582 C1583 1.414 . S
C1582 C1585 1.499 . S
C1583 H1557 0.950 . S
C1583 C1582 1.414 . S
C1583 C1584 1.374 . S
C1584 H1558 0.950 . S
C1584 C1580 1.385 . S
C1584 C1583 1.374 . S
C1585 C1582 1.499 . S
C1585 C1586 1.373 . S
C1585 C1587 1.389 . S
C1586 H1559 0.950 . S
C1586 C1572 1.377 . S
C1586 C1585 1.373 . S
C1587 C1571 1.377 . S
C1587 C1585 1.389 . S
C1587 C1588 1.524 . S
C1588 C1587 1.524 . S
C1588 C1589 1.397 . S
C1588 C1593 1.363 . S
C1589 H1560 0.950 . S
C1589 C1588 1.397 . S
C1589 C1590 1.334 . S
C1590 H1561 0.950 . S
C1590 C1589 1.334 . S
C1590 C1591 1.287 . S
C1591 C1590 1.287 . S
C1591 C1592 1.524 . S
C1591 H1594 0.999 . S
C1592 H1562 0.950 . S
C1592 C1591 1.524 . S
C1592 C1593 1.415 . S
C1593 H1563 0.950 . S
C1593 C1588 1.363 . S
C1593 C1592 1.415 . S
H1594 C1591 0.999 . S
H1595 C1576 0.913 . S
H1596 C1614 0.951 . S
H1597 C1616 0.951 . S
H1598 C1618 0.950 . S
H1599 C1619 0.950 . S
H1600 C1621 0.950 . S
H1601 C1624 0.950 . S
H1602 C1625 0.950 . S
H1603 C1627 0.950 . S
H1604 C1628 0.950 . S
H1605 C1629 0.951 . S
H1606 C1631 0.951 . S
H1607 C1633 0.950 . S
H1608 C1634 0.950 . S
H1609 C1636 0.950 . S
H1610 C1639 0.950 . S
H1611 C1640 0.950 . S
H1612 C1642 0.950 . S
H1613 C1643 0.950 . S
C1614 H1596 0.951 . S
C1614 C1615 1.366 . S
C1614 C1616 1.388 . S
C1615 C1614 1.366 . S
C1615 C1619 1.385 . S
C1616 H1597 0.951 . S
C1616 C1614 1.388 . S
C1616 C1617 1.366 . S
C1617 C1616 1.366 . S
C1617 C1618 1.414 . S
C1617 C1620 1.499 . S
C1618 H1598 0.950 . S
C1618 C1617 1.414 . S
C1618 C1619 1.374 . S
C1619 H1599 0.950 . S
C1619 C1615 1.385 . S
C1619 C1618 1.374 . S
C1620 C1617 1.499 . S
C1620 C1621 1.373 . S
C1620 C1622 1.389 . S
C1621 H1600 0.950 . S
C1621 C1620 1.373 . S
C1621 C1637 1.377 . S
C1622 C1620 1.389 . S
C1622 C1623 1.524 . S
C1622 C1636 1.377 . S
C1623 C1622 1.524 . S
C1623 C1624 1.397 . S
C1623 C1628 1.363 . S
C1624 H1601 0.950 . S
C1624 C1623 1.397 . S
C1624 C1625 1.334 . S
C1625 H1602 0.950 . S
C1625 C1624 1.334 . S
C1625 C1626 1.287 . S
C1626 C1625 1.287 . S
C1626 C1627 1.524 . S
C1626 H1645 0.913 . S
C1627 H1603 0.950 . S
C1627 C1626 1.524 . S
C1627 C1628 1.415 . S
C1628 H1604 0.950 . S
C1628 C1623 1.363 . S
C1628 C1627 1.415 . S
C1629 H1605 0.951 . S
C1629 C1630 1.366 . S
C1629 C1631 1.388 . S
C1630 C1629 1.366 . S
C1630 C1634 1.385 . S
C1631 H1606 0.951 . S
C1631 C1629 1.388 . S
C1631 C1632 1.366 . S
C1632 C1631 1.366 . S
C1632 C1633 1.414 . S
C1632 C1635 1.499 . S
C1633 H1607 0.950 . S
C1633 C1632 1.414 . S
C1633 C1634 1.374 . S
C1634 H1608 0.950 . S
C1634 C1630 1.385 . S
C1634 C1633 1.374 . S
C1635 C1632 1.499 . S
C1635 C1636 1.373 . S
C1635 C1637 1.389 . S
C1636 H1609 0.950 . S
C1636 C1622 1.377 . S
C1636 C1635 1.373 . S
C1637 C1621 1.377 . S
C1637 C1635 1.389 . S
C1637 C1638 1.524 . S
C1638 C1637 1.524 . S
C1638 C1639 1.397 . S
C1638 C1643 1.363 . S
C1639 H1610 0.950 . S
C1639 C1638 1.397 . S
C1639 C1640 1.334 . S
C1640 H1611 0.950 . S
C1640 C1639 1.334 . S
C1640 C1641 1.287 . S
C1641 C1640 1.287 . S
C1641 C1642 1.524 . S
C1641 H1644 0.999 . S
C1642 H1612 0.950 . S
C1642 C1641 1.524 . S
C1642 C1643 1.415 . S
C1643 H1613 0.950 . S
C1643 C1638 1.363 . S
C1643 C1642 1.415 . S
H1644 C1641 0.999 . S
H1645 C1626 0.913 . S
H1646 C1664 0.951 . S
H1647 C1666 0.951 . S
H1648 C1668 0.950 . S
H1649 C1669 0.950 . S
H1650 C1671 0.950 . S
H1651 C1674 0.950 . S
H1652 C1675 0.950 . S
H1653 C1677 0.950 . S
H1654 C1678 0.950 . S
H1655 C1679 0.951 . S
H1656 C1681 0.951 . S
H1657 C1683 0.950 . S
H1658 C1684 0.950 . S
H1659 C1686 0.950 . S
H1660 C1689 0.950 . S
H1661 C1690 0.950 . S
H1662 C1692 0.950 . S
H1663 C1693 0.950 . S
C1664 H1646 0.951 . S
C1664 C1665 1.366 . S
C1664 C1666 1.388 . S
C1665 C1664 1.366 . S
C1665 C1669 1.385 . S
C1666 H1647 0.951 . S
C1666 C1664 1.388 . S
C1666 C1667 1.366 . S
C1667 C1666 1.366 . S
C1667 C1668 1.414 . S
C1667 C1670 1.499 . S
C1668 H1648 0.950 . S
C1668 C1667 1.414 . S
C1668 C1669 1.374 . S
C1669 H1649 0.950 . S
C1669 C1665 1.385 . S
C1669 C1668 1.374 . S
C1670 C1667 1.499 . S
C1670 C1671 1.373 . S
C1670 C1672 1.389 . S
C1671 H1650 0.950 . S
C1671 C1670 1.373 . S
C1671 C1687 1.377 . S
C1672 C1670 1.389 . S
C1672 C1673 1.524 . S
C1672 C1686 1.377 . S
C1673 C1672 1.524 . S
C1673 C1674 1.397 . S
C1673 C1678 1.363 . S
C1674 H1651 0.950 . S
C1674 C1673 1.397 . S
C1674 C1675 1.334 . S
C1675 H1652 0.950 . S
C1675 C1674 1.334 . S
C1675 C1676 1.287 . S
C1676 C1675 1.287 . S
C1676 C1677 1.524 . S
C1676 H1695 0.913 . S
C1677 H1653 0.950 . S
C1677 C1676 1.524 . S
C1677 C1678 1.415 . S
C1678 H1654 0.950 . S
C1678 C1673 1.363 . S
C1678 C1677 1.415 . S
C1679 H1655 0.951 . S
C1679 C1680 1.366 . S
C1679 C1681 1.388 . S
C1680 C1679 1.366 . S
C1680 C1684 1.385 . S
C1681 H1656 0.951 . S
C1681 C1679 1.388 . S
C1681 C1682 1.366 . S
C1682 C1681 1.366 . S
C1682 C1683 1.414 . S
C1682 C1685 1.499 . S
C1683 H1657 0.950 . S
C1683 C1682 1.414 . S
C1683 C1684 1.374 . S
C1684 H1658 0.950 . S
C1684 C1680 1.385 . S
C1684 C1683 1.374 . S
C1685 C1682 1.499 . S
C1685 C1686 1.373 . S
C1685 C1687 1.389 . S
C1686 H1659 0.950 . S
C1686 C1672 1.377 . S
C1686 C1685 1.373 . S
C1687 C1671 1.377 . S
C1687 C1685 1.389 . S
C1687 C1688 1.524 . S
C1688 C1687 1.524 . S
C1688 C1689 1.397 . S
C1688 C1693 1.363 . S
C1689 H1660 0.950 . S
C1689 C1688 1.397 . S
C1689 C1690 1.334 . S
C1690 H1661 0.950 . S
C1690 C1689 1.334 . S
C1690 C1691 1.287 . S
C1691 C1690 1.287 . S
C1691 C1692 1.524 . S
C1691 H1694 0.999 . S
C1692 H1662 0.950 . S
C1692 C1691 1.524 . S
C1692 C1693 1.415 . S
C1693 H1663 0.950 . S
C1693 C1688 1.363 . S
C1693 C1692 1.415 . S
H1694 C1691 0.999 . S
H1695 C1676 0.913 . S
H1696 C1714 0.951 . S
H1697 C1716 0.951 . S
H1698 C1718 0.950 . S
H1699 C1719 0.950 . S
H1700 C1721 0.950 . S
H1701 C1724 0.950 . S
H1702 C1725 0.950 . S
H1703 C1727 0.950 . S
H1704 C1728 0.950 . S
H1705 C1729 0.951 . S
H1706 C1731 0.951 . S
H1707 C1733 0.950 . S
H1708 C1734 0.950 . S
H1709 C1736 0.950 . S
H1710 C1739 0.950 . S
H1711 C1740 0.950 . S
H1712 C1742 0.950 . S
H1713 C1743 0.950 . S
C1714 H1696 0.951 . S
C1714 C1715 1.366 . S
C1714 C1716 1.388 . S
C1715 C1714 1.366 . S
C1715 C1719 1.385 . S
C1716 H1697 0.951 . S
C1716 C1714 1.388 . S
C1716 C1717 1.366 . S
C1717 C1716 1.366 . S
C1717 C1718 1.414 . S
C1717 C1720 1.499 . S
C1718 H1698 0.950 . S
C1718 C1717 1.414 . S
C1718 C1719 1.374 . S
C1719 H1699 0.950 . S
C1719 C1715 1.385 . S
C1719 C1718 1.374 . S
C1720 C1717 1.499 . S
C1720 C1721 1.373 . S
C1720 C1722 1.389 . S
C1721 H1700 0.950 . S
C1721 C1720 1.373 . S
C1721 C1737 1.377 . S
C1722 C1720 1.389 . S
C1722 C1723 1.524 . S
C1722 C1736 1.377 . S
C1723 C1722 1.524 . S
C1723 C1724 1.397 . S
C1723 C1728 1.363 . S
C1724 H1701 0.950 . S
C1724 C1723 1.397 . S
C1724 C1725 1.334 . S
C1725 H1702 0.950 . S
C1725 C1724 1.334 . S
C1725 C1726 1.287 . S
C1726 C1725 1.287 . S
C1726 C1727 1.524 . S
C1726 H1745 0.913 . S
C1727 H1703 0.950 . S
C1727 C1726 1.524 . S
C1727 C1728 1.415 . S
C1728 H1704 0.950 . S
C1728 C1723 1.363 . S
C1728 C1727 1.415 . S
C1729 H1705 0.951 . S
C1729 C1730 1.366 . S
C1729 C1731 1.388 . S
C1730 C1729 1.366 . S
C1730 C1734 1.385 . S
C1731 H1706 0.951 . S
C1731 C1729 1.388 . S
C1731 C1732 1.366 . S
C1732 C1731 1.366 . S
C1732 C1733 1.414 . S
C1732 C1735 1.499 . S
C1733 H1707 0.950 . S
C1733 C1732 1.414 . S
C1733 C1734 1.374 . S
C1734 H1708 0.950 . S
C1734 C1730 1.385 . S
C1734 C1733 1.374 . S
C1735 C1732 1.499 . S
C1735 C1736 1.373 . S
C1735 C1737 1.389 . S
C1736 H1709 0.950 . S
C1736 C1722 1.377 . S
C1736 C1735 1.373 . S
C1737 C1721 1.377 . S
C1737 C1735 1.389 . S
C1737 C1738 1.524 . S
C1738 C1737 1.524 . S
C1738 C1739 1.397 . S
C1738 C1743 1.363 . S
C1739 H1710 0.950 . S
C1739 C1738 1.397 . S
C1739 C1740 1.334 . S
C1740 H1711 0.950 . S
C1740 C1739 1.334 . S
C1740 C1741 1.287 . S
C1741 C1740 1.287 . S
C1741 C1742 1.524 . S
C1741 H1744 0.999 . S
C1742 H1712 0.950 . S
C1742 C1741 1.524 . S
C1742 C1743 1.415 . S
C1743 H1713 0.950 . S
C1743 C1738 1.363 . S
C1743 C1742 1.415 . S
H1744 C1741 0.999 . S
H1745 C1726 0.913 . S
H1746 C1764 0.951 . S
H1747 C1766 0.951 . S
H1748 C1768 0.950 . S
H1749 C1769 0.950 . S
H1750 C1771 0.950 . S
H1751 C1774 0.950 . S
H1752 C1775 0.950 . S
H1753 C1777 0.950 . S
H1754 C1778 0.950 . S
H1755 C1779 0.951 . S
H1756 C1781 0.951 . S
H1757 C1783 0.950 . S
H1758 C1784 0.950 . S
H1759 C1786 0.950 . S
H1760 C1789 0.950 . S
H1761 C1790 0.950 . S
H1762 C1792 0.950 . S
H1763 C1793 0.950 . S
C1764 H1746 0.951 . S
C1764 C1765 1.366 . S
C1764 C1766 1.388 . S
C1765 C1764 1.366 . S
C1765 C1769 1.385 . S
C1766 H1747 0.951 . S
C1766 C1764 1.388 . S
C1766 C1767 1.366 . S
C1767 C1766 1.366 . S
C1767 C1768 1.414 . S
C1767 C1770 1.499 . S
C1768 H1748 0.950 . S
C1768 C1767 1.414 . S
C1768 C1769 1.374 . S
C1769 H1749 0.950 . S
C1769 C1765 1.385 . S
C1769 C1768 1.374 . S
C1770 C1767 1.499 . S
C1770 C1771 1.373 . S
C1770 C1772 1.389 . S
C1771 H1750 0.950 . S
C1771 C1770 1.373 . S
C1771 C1787 1.377 . S
C1772 C1770 1.389 . S
C1772 C1773 1.524 . S
C1772 C1786 1.377 . S
C1773 C1772 1.524 . S
C1773 C1774 1.397 . S
C1773 C1778 1.363 . S
C1774 H1751 0.950 . S
C1774 C1773 1.397 . S
C1774 C1775 1.334 . S
C1775 H1752 0.950 . S
C1775 C1774 1.334 . S
C1775 C1776 1.287 . S
C1776 C1775 1.287 . S
C1776 C1777 1.524 . S
C1776 H1795 0.913 . S
C1777 H1753 0.950 . S
C1777 C1776 1.524 . S
C1777 C1778 1.415 . S
C1778 H1754 0.950 . S
C1778 C1773 1.363 . S
C1778 C1777 1.415 . S
C1779 H1755 0.951 . S
C1779 C1780 1.366 . S
C1779 C1781 1.388 . S
C1780 C1779 1.366 . S
C1780 C1784 1.385 . S
C1781 H1756 0.951 . S
C1781 C1779 1.388 . S
C1781 C1782 1.366 . S
C1782 C1781 1.366 . S
C1782 C1783 1.414 . S
C1782 C1785 1.499 . S
C1783 H1757 0.950 . S
C1783 C1782 1.414 . S
C1783 C1784 1.374 . S
C1784 H1758 0.950 . S
C1784 C1780 1.385 . S
C1784 C1783 1.374 . S
C1785 C1782 1.499 . S
C1785 C1786 1.373 . S
C1785 C1787 1.389 . S
C1786 H1759 0.950 . S
C1786 C1772 1.377 . S
C1786 C1785 1.373 . S
C1787 C1771 1.377 . S
C1787 C1785 1.389 . S
C1787 C1788 1.524 . S
C1788 C1787 1.524 . S
C1788 C1789 1.397 . S
C1788 C1793 1.363 . S
C1789 H1760 0.950 . S
C1789 C1788 1.397 . S
C1789 C1790 1.334 . S
C1790 H1761 0.950 . S
C1790 C1789 1.334 . S
C1790 C1791 1.287 . S
C1791 C1790 1.287 . S
C1791 C1792 1.524 . S
C1791 H1794 0.999 . S
C1792 H1762 0.950 . S
C1792 C1791 1.524 . S
C1792 C1793 1.415 . S
C1793 H1763 0.950 . S
C1793 C1788 1.363 . S
C1793 C1792 1.415 . S
H1794 C1791 0.999 . S
H1795 C1776 0.913 . S
H1796 C1814 0.951 . S
H1797 C1816 0.951 . S
H1798 C1818 0.950 . S
H1799 C1819 0.950 . S
H1800 C1821 0.950 . S
H1801 C1824 0.950 . S
H1802 C1825 0.950 . S
H1803 C1827 0.950 . S
H1804 C1828 0.950 . S
H1805 C1829 0.951 . S
H1806 C1831 0.951 . S
H1807 C1833 0.950 . S
H1808 C1834 0.950 . S
H1809 C1836 0.950 . S
H1810 C1839 0.950 . S
H1811 C1840 0.950 . S
H1812 C1842 0.950 . S
H1813 C1843 0.950 . S
C1814 H1796 0.951 . S
C1814 C1815 1.366 . S
C1814 C1816 1.388 . S
C1815 C1814 1.366 . S
C1815 C1819 1.385 . S
C1816 H1797 0.951 . S
C1816 C1814 1.388 . S
C1816 C1817 1.366 . S
C1817 C1816 1.366 . S
C1817 C1818 1.414 . S
C1817 C1820 1.499 . S
C1818 H1798 0.950 . S
C1818 C1817 1.414 . S
C1818 C1819 1.374 . S
C1819 H1799 0.950 . S
C1819 C1815 1.385 . S
C1819 C1818 1.374 . S
C1820 C1817 1.499 . S
C1820 C1821 1.373 . S
C1820 C1822 1.389 . S
C1821 H1800 0.950 . S
C1821 C1820 1.373 . S
C1821 C1837 1.377 . S
C1822 C1820 1.389 . S
C1822 C1823 1.524 . S
C1822 C1836 1.377 . S
C1823 C1822 1.524 . S
C1823 C1824 1.397 . S
C1823 C1828 1.363 . S
C1824 H1801 0.950 . S
C1824 C1823 1.397 . S
C1824 C1825 1.334 . S
C1825 H1802 0.950 . S
C1825 C1824 1.334 . S
C1825 C1826 1.287 . S
C1826 C1825 1.287 . S
C1826 C1827 1.524 . S
C1826 H1845 0.913 . S
C1827 H1803 0.950 . S
C1827 C1826 1.524 . S
C1827 C1828 1.415 . S
C1828 H1804 0.950 . S
C1828 C1823 1.363 . S
C1828 C1827 1.415 . S
C1829 H1805 0.951 . S
C1829 C1830 1.366 . S
C1829 C1831 1.388 . S
C1830 C1829 1.366 . S
C1830 C1834 1.385 . S
C1831 H1806 0.951 . S
C1831 C1829 1.388 . S
C1831 C1832 1.366 . S
C1832 C1831 1.366 . S
C1832 C1833 1.414 . S
C1832 C1835 1.499 . S
C1833 H1807 0.950 . S
C1833 C1832 1.414 . S
C1833 C1834 1.374 . S
C1834 H1808 0.950 . S
C1834 C1830 1.385 . S
C1834 C1833 1.374 . S
C1835 C1832 1.499 . S
C1835 C1836 1.373 . S
C1835 C1837 1.389 . S
C1836 H1809 0.950 . S
C1836 C1822 1.377 . S
C1836 C1835 1.373 . S
C1837 C1821 1.377 . S
C1837 C1835 1.389 . S
C1837 C1838 1.524 . S
C1838 C1837 1.524 . S
C1838 C1839 1.397 . S
C1838 C1843 1.363 . S
C1839 H1810 0.950 . S
C1839 C1838 1.397 . S
C1839 C1840 1.334 . S
C1840 H1811 0.950 . S
C1840 C1839 1.334 . S
C1840 C1841 1.287 . S
C1841 C1840 1.287 . S
C1841 C1842 1.524 . S
C1841 H1844 0.999 . S
C1842 H1812 0.950 . S
C1842 C1841 1.524 . S
C1842 C1843 1.415 . S
C1843 H1813 0.950 . S
C1843 C1838 1.363 . S
C1843 C1842 1.415 . S
H1844 C1841 0.999 . S
H1845 C1826 0.913 . S
H1846 C1864 0.951 . S
H1847 C1866 0.951 . S
H1848 C1868 0.950 . S
H1849 C1869 0.950 . S
H1850 C1871 0.950 . S
H1851 C1874 0.950 . S
H1852 C1875 0.950 . S
H1853 C1877 0.950 . S
H1854 C1878 0.950 . S
H1855 C1879 0.951 . S
H1856 C1881 0.951 . S
H1857 C1883 0.950 . S
H1858 C1884 0.950 . S
H1859 C1886 0.950 . S
H1860 C1889 0.950 . S
H1861 C1890 0.950 . S
H1862 C1892 0.950 . S
H1863 C1893 0.950 . S
C1864 H1846 0.951 . S
C1864 C1865 1.366 . S
C1864 C1866 1.388 . S
C1865 C1864 1.366 . S
C1865 C1869 1.385 . S
C1866 H1847 0.951 . S
C1866 C1864 1.388 . S
C1866 C1867 1.366 . S
C1867 C1866 1.366 . S
C1867 C1868 1.414 . S
C1867 C1870 1.499 . S
C1868 H1848 0.950 . S
C1868 C1867 1.414 . S
C1868 C1869 1.374 . S
C1869 H1849 0.950 . S
C1869 C1865 1.385 . S
C1869 C1868 1.374 . S
C1870 C1867 1.499 . S
C1870 C1871 1.373 . S
C1870 C1872 1.389 . S
C1871 H1850 0.950 . S
C1871 C1870 1.373 . S
C1871 C1887 1.377 . S
C1872 C1870 1.389 . S
C1872 C1873 1.524 . S
C1872 C1886 1.377 . S
C1873 C1872 1.524 . S
C1873 C1874 1.397 . S
C1873 C1878 1.363 . S
C1874 H1851 0.950 . S
C1874 C1873 1.397 . S
C1874 C1875 1.334 . S
C1875 H1852 0.950 . S
C1875 C1874 1.334 . S
C1875 C1876 1.287 . S
C1876 C1875 1.287 . S
C1876 C1877 1.524 . S
C1876 H1895 0.913 . S
C1877 H1853 0.950 . S
C1877 C1876 1.524 . S
C1877 C1878 1.415 . S
C1878 H1854 0.950 . S
C1878 C1873 1.363 . S
C1878 C1877 1.415 . S
C1879 H1855 0.951 . S
C1879 C1880 1.366 . S
C1879 C1881 1.388 . S
C1880 C1879 1.366 . S
C1880 C1884 1.385 . S
C1881 H1856 0.951 . S
C1881 C1879 1.388 . S
C1881 C1882 1.366 . S
C1882 C1881 1.366 . S
C1882 C1883 1.414 . S
C1882 C1885 1.499 . S
C1883 H1857 0.950 . S
C1883 C1882 1.414 . S
C1883 C1884 1.374 . S
C1884 H1858 0.950 . S
C1884 C1880 1.385 . S
C1884 C1883 1.374 . S
C1885 C1882 1.499 . S
C1885 C1886 1.373 . S
C1885 C1887 1.389 . S
C1886 H1859 0.950 . S
C1886 C1872 1.377 . S
C1886 C1885 1.373 . S
C1887 C1871 1.377 . S
C1887 C1885 1.389 . S
C1887 C1888 1.524 . S
C1888 C1887 1.524 . S
C1888 C1889 1.397 . S
C1888 C1893 1.363 . S
C1889 H1860 0.950 . S
C1889 C1888 1.397 . S
C1889 C1890 1.334 . S
C1890 H1861 0.950 . S
C1890 C1889 1.334 . S
C1890 C1891 1.287 . S
C1891 C1890 1.287 . S
C1891 C1892 1.524 . S
C1891 H1894 0.999 . S
C1892 H1862 0.950 . S
C1892 C1891 1.524 . S
C1892 C1893 1.415 . S
C1893 H1863 0.950 . S
C1893 C1888 1.363 . S
C1893 C1892 1.415 . S
H1894 C1891 0.999 . S
H1895 C1876 0.913 . S
H1896 C1914 0.951 . S
H1897 C1916 0.951 . S
H1898 C1918 0.950 . S
H1899 C1919 0.950 . S
H1900 C1921 0.950 . S
H1901 C1924 0.950 . S
H1902 C1925 0.950 . S
H1903 C1927 0.950 . S
H1904 C1928 0.950 . S
H1905 C1929 0.951 . S
H1906 C1931 0.951 . S
H1907 C1933 0.950 . S
H1908 C1934 0.950 . S
H1909 C1936 0.950 . S
H1910 C1939 0.950 . S
H1911 C1940 0.950 . S
H1912 C1942 0.950 . S
H1913 C1943 0.950 . S
C1914 H1896 0.951 . S
C1914 C1915 1.366 . S
C1914 C1916 1.388 . S
C1915 C1914 1.366 . S
C1915 C1919 1.385 . S
C1916 H1897 0.951 . S
C1916 C1914 1.388 . S
C1916 C1917 1.366 . S
C1917 C1916 1.366 . S
C1917 C1918 1.414 . S
C1917 C1920 1.499 . S
C1918 H1898 0.950 . S
C1918 C1917 1.414 . S
C1918 C1919 1.374 . S
C1919 H1899 0.950 . S
C1919 C1915 1.385 . S
C1919 C1918 1.374 . S
C1920 C1917 1.499 . S
C1920 C1921 1.373 . S
C1920 C1922 1.389 . S
C1921 H1900 0.950 . S
C1921 C1920 1.373 . S
C1921 C1937 1.377 . S
C1922 C1920 1.389 . S
C1922 C1923 1.524 . S
C1922 C1936 1.377 . S
C1923 C1922 1.524 . S
C1923 C1924 1.397 . S
C1923 C1928 1.363 . S
C1924 H1901 0.950 . S
C1924 C1923 1.397 . S
C1924 C1925 1.334 . S
C1925 H1902 0.950 . S
C1925 C1924 1.334 . S
C1925 C1926 1.287 . S
C1926 C1925 1.287 . S
C1926 C1927 1.524 . S
C1926 H1945 0.913 . S
C1927 H1903 0.950 . S
C1927 C1926 1.524 . S
C1927 C1928 1.415 . S
C1928 H1904 0.950 . S
C1928 C1923 1.363 . S
C1928 C1927 1.415 . S
C1929 H1905 0.951 . S
C1929 C1930 1.366 . S
C1929 C1931 1.388 . S
C1930 C1929 1.366 . S
C1930 C1934 1.385 . S
C1931 H1906 0.951 . S
C1931 C1929 1.388 . S
C1931 C1932 1.366 . S
C1932 C1931 1.366 . S
C1932 C1933 1.414 . S
C1932 C1935 1.499 . S
C1933 H1907 0.950 . S
C1933 C1932 1.414 . S
C1933 C1934 1.374 . S
C1934 H1908 0.950 . S
C1934 C1930 1.385 . S
C1934 C1933 1.374 . S
C1935 C1932 1.499 . S
C1935 C1936 1.373 . S
C1935 C1937 1.389 . S
C1936 H1909 0.950 . S
C1936 C1922 1.377 . S
C1936 C1935 1.373 . S
C1937 C1921 1.377 . S
C1937 C1935 1.389 . S
C1937 C1938 1.524 . S
C1938 C1937 1.524 . S
C1938 C1939 1.397 . S
C1938 C1943 1.363 . S
C1939 H1910 0.950 . S
C1939 C1938 1.397 . S
C1939 C1940 1.334 . S
C1940 H1911 0.950 . S
C1940 C1939 1.334 . S
C1940 C1941 1.287 . S
C1941 C1940 1.287 . S
C1941 C1942 1.524 . S
C1941 H1944 0.999 . S
C1942 H1912 0.950 . S
C1942 C1941 1.524 . S
C1942 C1943 1.415 . S
C1943 H1913 0.950 . S
C1943 C1938 1.363 . S
C1943 C1942 1.415 . S
H1944 C1941 0.999 . S
H1945 C1926 0.913 . S
H1946 C1964 0.951 . S
H1947 C1966 0.951 . S
H1948 C1968 0.950 . S
H1949 C1969 0.950 . S
H1950 C1971 0.950 . S
H1951 C1974 0.950 . S
H1952 C1975 0.950 . S
H1953 C1977 0.950 . S
H1954 C1978 0.950 . S
H1955 C1979 0.951 . S
H1956 C1981 0.951 . S
H1957 C1983 0.950 . S
H1958 C1984 0.950 . S
H1959 C1986 0.950 . S
H1960 C1989 0.950 . S
H1961 C1990 0.950 . S
H1962 C1992 0.950 . S
H1963 C1993 0.950 . S
C1964 H1946 0.951 . S
C1964 C1965 1.366 . S
C1964 C1966 1.388 . S
C1965 C1964 1.366 . S
C1965 C1969 1.385 . S
C1966 H1947 0.951 . S
C1966 C1964 1.388 . S
C1966 C1967 1.366 . S
C1967 C1966 1.366 . S
C1967 C1968 1.414 . S
C1967 C1970 1.499 . S
C1968 H1948 0.950 . S
C1968 C1967 1.414 . S
C1968 C1969 1.374 . S
C1969 H1949 0.950 . S
C1969 C1965 1.385 . S
C1969 C1968 1.374 . S
C1970 C1967 1.499 . S
C1970 C1971 1.373 . S
C1970 C1972 1.389 . S
C1971 H1950 0.950 . S
C1971 C1970 1.373 . S
C1971 C1987 1.377 . S
C1972 C1970 1.389 . S
C1972 C1973 1.524 . S
C1972 C1986 1.377 . S
C1973 C1972 1.524 . S
C1973 C1974 1.397 . S
C1973 C1978 1.363 . S
C1974 H1951 0.950 . S
C1974 C1973 1.397 . S
C1974 C1975 1.334 . S
C1975 H1952 0.950 . S
C1975 C1974 1.334 . S
C1975 C1976 1.287 . S
C1976 C1975 1.287 . S
C1976 C1977 1.524 . S
C1976 H1995 0.913 . S
C1977 H1953 0.950 . S
C1977 C1976 1.524 . S
C1977 C1978 1.415 . S
C1978 H1954 0.950 . S
C1978 C1973 1.363 . S
C1978 C1977 1.415 . S
C1979 H1955 0.951 . S
C1979 C1980 1.366 . S
C1979 C1981 1.388 . S
C1980 C1979 1.366 . S
C1980 C1984 1.385 . S
C1981 H1956 0.951 . S
C1981 C1979 1.388 . S
C1981 C1982 1.366 . S
C1982 C1981 1.366 . S
C1982 C1983 1.414 . S
C1982 C1985 1.499 . S
C1983 H1957 0.950 . S
C1983 C1982 1.414 . S
C1983 C1984 1.374 . S
C1984 H1958 0.950 . S
C1984 C1980 1.385 . S
C1984 C1983 1.374 . S
C1985 C1982 1.499 . S
C1985 C1986 1.373 . S
C1985 C1987 1.389 . S
C1986 H1959 0.950 . S
C1986 C1972 1.377 . S
C1986 C1985 1.373 . S
C1987 C1971 1.377 . S
C1987 C1985 1.389 . S
C1987 C1988 1.524 . S
C1988 C1987 1.524 . S
C1988 C1989 1.397 . S
C1988 C1993 1.363 . S
C1989 H1960 0.950 . S
C1989 C1988 1.397 . S
C1989 C1990 1.334 . S
C1990 H1961 0.950 . S
C1990 C1989 1.334 . S
C1990 C1991 1.287 . S
C1991 C1990 1.287 . S
C1991 C1992 1.524 . S
C1991 H1994 0.999 . S
C1992 H1962 0.950 . S
C1992 C1991 1.524 . S
C1992 C1993 1.415 . S
C1993 H1963 0.950 . S
C1993 C1988 1.363 . S
C1993 C1992 1.415 . S
H1994 C1991 0.999 . S
H1995 C1976 0.913 . S
H1996 C2014 0.951 . S
H1997 C2016 0.951 . S
H1998 C2018 0.950 . S
H1999 C2019 0.950 . S
H2000 C2021 0.950 . S
H2001 C2024 0.950 . S
H2002 C2025 0.950 . S
H2003 C2027 0.950 . S
H2004 C2028 0.950 . S
H2005 C2029 0.951 . S
H2006 C2031 0.951 . S
H2007 C2033 0.950 . S
H2008 C2034 0.950 . S
H2009 C2036 0.950 . S
H2010 C2039 0.950 . S
H2011 C2040 0.950 . S
H2012 C2042 0.950 . S
H2013 C2043 0.950 . S
C2014 H1996 0.951 . S
C2014 C2015 1.366 . S
C2014 C2016 1.388 . S
C2015 C2014 1.366 . S
C2015 C2019 1.385 . S
C2016 H1997 0.951 . S
C2016 C2014 1.388 . S
C2016 C2017 1.366 . S
C2017 C2016 1.366 . S
C2017 C2018 1.414 . S
C2017 C2020 1.499 . S
C2018 H1998 0.950 . S
C2018 C2017 1.414 . S
C2018 C2019 1.374 . S
C2019 H1999 0.950 . S
C2019 C2015 1.385 . S
C2019 C2018 1.374 . S
C2020 C2017 1.499 . S
C2020 C2021 1.373 . S
C2020 C2022 1.389 . S
C2021 H2000 0.950 . S
C2021 C2020 1.373 . S
C2021 C2037 1.377 . S
C2022 C2020 1.389 . S
C2022 C2023 1.524 . S
C2022 C2036 1.377 . S
C2023 C2022 1.524 . S
C2023 C2024 1.397 . S
C2023 C2028 1.363 . S
C2024 H2001 0.950 . S
C2024 C2023 1.397 . S
C2024 C2025 1.334 . S
C2025 H2002 0.950 . S
C2025 C2024 1.334 . S
C2025 C2026 1.287 . S
C2026 C2025 1.287 . S
C2026 C2027 1.524 . S
C2026 H2045 0.913 . S
C2027 H2003 0.950 . S
C2027 C2026 1.524 . S
C2027 C2028 1.415 . S
C2028 H2004 0.950 . S
C2028 C2023 1.363 . S
C2028 C2027 1.415 . S
C2029 H2005 0.951 . S
C2029 C2030 1.366 . S
C2029 C2031 1.388 . S
C2030 C2029 1.366 . S
C2030 C2034 1.385 . S
C2031 H2006 0.951 . S
C2031 C2029 1.388 . S
C2031 C2032 1.366 . S
C2032 C2031 1.366 . S
C2032 C2033 1.414 . S
C2032 C2035 1.499 . S
C2033 H2007 0.950 . S
C2033 C2032 1.414 . S
C2033 C2034 1.374 . S
C2034 H2008 0.950 . S
C2034 C2030 1.385 . S
C2034 C2033 1.374 . S
C2035 C2032 1.499 . S
C2035 C2036 1.373 . S
C2035 C2037 1.389 . S
C2036 H2009 0.950 . S
C2036 C2022 1.377 . S
C2036 C2035 1.373 . S
C2037 C2021 1.377 . S
C2037 C2035 1.389 . S
C2037 C2038 1.524 . S
C2038 C2037 1.524 . S
C2038 C2039 1.397 . S
C2038 C2043 1.363 . S
C2039 H2010 0.950 . S
C2039 C2038 1.397 . S
C2039 C2040 1.334 . S
C2040 H2011 0.950 . S
C2040 C2039 1.334 . S
C2040 C2041 1.287 . S
C2041 C2040 1.287 . S
C2041 C2042 1.524 . S
C2041 H2044 0.999 . S
C2042 H2012 0.950 . S
C2042 C2041 1.524 . S
C2042 C2043 1.415 . S
C2043 H2013 0.950 . S
C2043 C2038 1.363 . S
C2043 C2042 1.415 . S
H2044 C2041 0.999 . S
H2045 C2026 0.913 . S
H2046 C2064 0.951 . S
H2047 C2066 0.951 . S
H2048 C2068 0.950 . S
H2049 C2069 0.950 . S
H2050 C2071 0.950 . S
H2051 C2074 0.950 . S
H2052 C2075 0.950 . S
H2053 C2077 0.950 . S
H2054 C2078 0.950 . S
H2055 C2079 0.951 . S
H2056 C2081 0.951 . S
H2057 C2083 0.950 . S
H2058 C2084 0.950 . S
H2059 C2086 0.950 . S
H2060 C2089 0.950 . S
H2061 C2090 0.950 . S
H2062 C2092 0.950 . S
H2063 C2093 0.950 . S
C2064 H2046 0.951 . S
C2064 C2065 1.366 . S
C2064 C2066 1.388 . S
C2065 C2064 1.366 . S
C2065 C2069 1.385 . S
C2066 H2047 0.951 . S
C2066 C2064 1.388 . S
C2066 C2067 1.366 . S
C2067 C2066 1.366 . S
C2067 C2068 1.414 . S
C2067 C2070 1.499 . S
C2068 H2048 0.950 . S
C2068 C2067 1.414 . S
C2068 C2069 1.374 . S
C2069 H2049 0.950 . S
C2069 C2065 1.385 . S
C2069 C2068 1.374 . S
C2070 C2067 1.499 . S
C2070 C2071 1.373 . S
C2070 C2072 1.389 . S
C2071 H2050 0.950 . S
C2071 C2070 1.373 . S
C2071 C2087 1.377 . S
C2072 C2070 1.389 . S
C2072 C2073 1.524 . S
C2072 C2086 1.377 . S
C2073 C2072 1.524 . S
C2073 C2074 1.397 . S
C2073 C2078 1.363 . S
C2074 H2051 0.950 . S
C2074 C2073 1.397 . S
C2074 C2075 1.334 . S
C2075 H2052 0.950 . S
C2075 C2074 1.334 . S
C2075 C2076 1.287 . S
C2076 C2075 1.287 . S
C2076 C2077 1.524 . S
C2076 H2095 0.913 . S
C2077 H2053 0.950 . S
C2077 C2076 1.524 . S
C2077 C2078 1.415 . S
C2078 H2054 0.950 . S
C2078 C2073 1.363 . S
C2078 C2077 1.415 . S
C2079 H2055 0.951 . S
C2079 C2080 1.366 . S
C2079 C2081 1.388 . S
C2080 C2079 1.366 . S
C2080 C2084 1.385 . S
C2081 H2056 0.951 . S
C2081 C2079 1.388 . S
C2081 C2082 1.366 . S
C2082 C2081 1.366 . S
C2082 C2083 1.414 . S
C2082 C2085 1.499 . S
C2083 H2057 0.950 . S
C2083 C2082 1.414 . S
C2083 C2084 1.374 . S
C2084 H2058 0.950 . S
C2084 C2080 1.385 . S
C2084 C2083 1.374 . S
C2085 C2082 1.499 . S
C2085 C2086 1.373 . S
C2085 C2087 1.389 . S
C2086 H2059 0.950 . S
C2086 C2072 1.377 . S
C2086 C2085 1.373 . S
C2087 C2071 1.377 . S
C2087 C2085 1.389 . S
C2087 C2088 1.524 . S
C2088 C2087 1.524 . S
C2088 C2089 1.397 . S
C2088 C2093 1.363 . S
C2089 H2060 0.950 . S
C2089 C2088 1.397 . S
C2089 C2090 1.334 . S
C2090 H2061 0.950 . S
C2090 C2089 1.334 . S
C2090 C2091 1.287 . S
C2091 C2090 1.287 . S
C2091 C2092 1.524 . S
C2091 H2094 0.999 . S
C2092 H2062 0.950 . S
C2092 C2091 1.524 . S
C2092 C2093 1.415 . S
C2093 H2063 0.950 . S
C2093 C2088 1.363 . S
C2093 C2092 1.415 . S
H2094 C2091 0.999 . S
H2095 C2076 0.913 . S
H2096 C2114 0.951 . S
H2097 C2116 0.951 . S
H2098 C2118 0.950 . S
H2099 C2119 0.950 . S
H2100 C2121 0.950 . S
H2101 C2124 0.950 . S
H2102 C2125 0.950 . S
H2103 C2127 0.950 . S
H2104 C2128 0.950 . S
H2105 C2129 0.951 . S
H2106 C2131 0.951 . S
H2107 C2133 0.950 . S
H2108 C2134 0.950 . S
H2109 C2136 0.950 . S
H2110 C2139 0.950 . S
H2111 C2140 0.950 . S
H2112 C2142 0.950 . S
H2113 C2143 0.950 . S
C2114 H2096 0.951 . S
C2114 C2115 1.366 . S
C2114 C2116 1.388 . S
C2115 C2114 1.366 . S
C2115 C2119 1.385 . S
C2116 H2097 0.951 . S
C2116 C2114 1.388 . S
C2116 C2117 1.366 . S
C2117 C2116 1.366 . S
C2117 C2118 1.414 . S
C2117 C2120 1.499 . S
C2118 H2098 0.950 . S
C2118 C2117 1.414 . S
C2118 C2119 1.374 . S
C2119 H2099 0.950 . S
C2119 C2115 1.385 . S
C2119 C2118 1.374 . S
C2120 C2117 1.499 . S
C2120 C2121 1.373 . S
C2120 C2122 1.389 . S
C2121 H2100 0.950 . S
C2121 C2120 1.373 . S
C2121 C2137 1.377 . S
C2122 C2120 1.389 . S
C2122 C2123 1.524 . S
C2122 C2136 1.377 . S
C2123 C2122 1.524 . S
C2123 C2124 1.397 . S
C2123 C2128 1.363 . S
C2124 H2101 0.950 . S
C2124 C2123 1.397 . S
C2124 C2125 1.334 . S
C2125 H2102 0.950 . S
C2125 C2124 1.334 . S
C2125 C2126 1.287 . S
C2126 C2125 1.287 . S
C2126 C2127 1.524 . S
C2126 H2145 0.913 . S
C2127 H2103 0.950 . S
C2127 C2126 1.524 . S
C2127 C2128 1.415 . S
C2128 H2104 0.950 . S
C2128 C2123 1.363 . S
C2128 C2127 1.415 . S
C2129 H2105 0.951 . S
C2129 C2130 1.366 . S
C2129 C2131 1.388 . S
C2130 C2129 1.366 . S
C2130 C2134 1.385 . S
C2131 H2106 0.951 . S
C2131 C2129 1.388 . S
C2131 C2132 1.366 . S
C2132 C2131 1.366 . S
C2132 C2133 1.414 . S
C2132 C2135 1.499 . S
C2133 H2107 0.950 . S
C2133 C2132 1.414 . S
C2133 C2134 1.374 . S
C2134 H2108 0.950 . S
C2134 C2130 1.385 . S
C2134 C2133 1.374 . S
C2135 C2132 1.499 . S
C2135 C2136 1.373 . S
C2135 C2137 1.389 . S
C2136 H2109 0.950 . S
C2136 C2122 1.377 . S
C2136 C2135 1.373 . S
C2137 C2121 1.377 . S
C2137 C2135 1.389 . S
C2137 C2138 1.524 . S
C2138 C2137 1.524 . S
C2138 C2139 1.397 . S
C2138 C2143 1.363 . S
C2139 H2110 0.950 . S
C2139 C2138 1.397 . S
C2139 C2140 1.334 . S
C2140 H2111 0.950 . S
C2140 C2139 1.334 . S
C2140 C2141 1.287 . S
C2141 C2140 1.287 . S
C2141 C2142 1.524 . S
C2141 H2144 0.999 . S
C2142 H2112 0.950 . S
C2142 C2141 1.524 . S
C2142 C2143 1.415 . S
C2143 H2113 0.950 . S
C2143 C2138 1.363 . S
C2143 C2142 1.415 . S
H2144 C2141 0.999 . S
H2145 C2126 0.913 . S
H2146 C2164 0.951 . S
H2147 C2166 0.951 . S
H2148 C2168 0.950 . S
H2149 C2169 0.950 . S
H2150 C2171 0.950 . S
H2151 C2174 0.950 . S
H2152 C2175 0.950 . S
H2153 C2177 0.950 . S
H2154 C2178 0.950 . S
H2155 C2179 0.951 . S
H2156 C2181 0.951 . S
H2157 C2183 0.950 . S
H2158 C2184 0.950 . S
H2159 C2186 0.950 . S
H2160 C2189 0.950 . S
H2161 C2190 0.950 . S
H2162 C2192 0.950 . S
H2163 C2193 0.950 . S
C2164 H2146 0.951 . S
C2164 C2165 1.366 . S
C2164 C2166 1.388 . S
C2165 C2164 1.366 . S
C2165 C2169 1.385 . S
C2166 H2147 0.951 . S
C2166 C2164 1.388 . S
C2166 C2167 1.366 . S
C2167 C2166 1.366 . S
C2167 C2168 1.414 . S
C2167 C2170 1.499 . S
C2168 H2148 0.950 . S
C2168 C2167 1.414 . S
C2168 C2169 1.374 . S
C2169 H2149 0.950 . S
C2169 C2165 1.385 . S
C2169 C2168 1.374 . S
C2170 C2167 1.499 . S
C2170 C2171 1.373 . S
C2170 C2172 1.389 . S
C2171 H2150 0.950 . S
C2171 C2170 1.373 . S
C2171 C2187 1.377 . S
C2172 C2170 1.389 . S
C2172 C2173 1.524 . S
C2172 C2186 1.377 . S
C2173 C2172 1.524 . S
C2173 C2174 1.397 . S
C2173 C2178 1.363 . S
C2174 H2151 0.950 . S
C2174 C2173 1.397 . S
C2174 C2175 1.334 . S
C2175 H2152 0.950 . S
C2175 C2174 1.334 . S
C2175 C2176 1.287 . S
C2176 C2175 1.287 . S
C2176 C2177 1.524 . S
C2176 H2195 0.913 . S
C2177 H2153 0.950 . S
C2177 C2176 1.524 . S
C2177 C2178 1.415 . S
C2178 H2154 0.950 . S
C2178 C2173 1.363 . S
C2178 C2177 1.415 . S
C2179 H2155 0.951 . S
C2179 C2180 1.366 . S
C2179 C2181 1.388 . S
C2180 C2179 1.366 . S
C2180 C2184 1.385 . S
C2181 H2156 0.951 . S
C2181 C2179 1.388 . S
C2181 C2182 1.366 . S
C2182 C2181 1.366 . S
C2182 C2183 1.414 . S
C2182 C2185 1.499 . S
C2183 H2157 0.950 . S
C2183 C2182 1.414 . S
C2183 C2184 1.374 . S
C2184 H2158 0.950 . S
C2184 C2180 1.385 . S
C2184 C2183 1.374 . S
C2185 C2182 1.499 . S
C2185 C2186 1.373 . S
C2185 C2187 1.389 . S
C2186 H2159 0.950 . S
C2186 C2172 1.377 . S
C2186 C2185 1.373 . S
C2187 C2171 1.377 . S
C2187 C2185 1.389 . S
C2187 C2188 1.524 . S
C2188 C2187 1.524 . S
C2188 C2189 1.397 . S
C2188 C2193 1.363 . S
C2189 H2160 0.950 . S
C2189 C2188 1.397 . S
C2189 C2190 1.334 . S
C2190 H2161 0.950 . S
C2190 C2189 1.334 . S
C2190 C2191 1.287 . S
C2191 C2190 1.287 . S
C2191 C2192 1.524 . S
C2191 H2194 0.999 . S
C2192 H2162 0.950 . S
C2192 C2191 1.524 . S
C2192 C2193 1.415 . S
C2193 H2163 0.950 . S
C2193 C2188 1.363 . S
C2193 C2192 1.415 . S
H2194 C2191 0.999 . S
H2195 C2176 0.913 . S
H2196 C2214 0.951 . S
H2197 C2216 0.951 . S
H2198 C2218 0.950 . S
H2199 C2219 0.950 . S
H2200 C2221 0.950 . S
H2201 C2224 0.950 . S
H2202 C2225 0.950 . S
H2203 C2227 0.950 . S
H2204 C2228 0.950 . S
H2205 C2229 0.951 . S
H2206 C2231 0.951 . S
H2207 C2233 0.950 . S
H2208 C2234 0.950 . S
H2209 C2236 0.950 . S
H2210 C2239 0.950 . S
H2211 C2240 0.950 . S
H2212 C2242 0.950 . S
H2213 C2243 0.950 . S
C2214 H2196 0.951 . S
C2214 C2215 1.366 . S
C2214 C2216 1.388 . S
C2215 C2214 1.366 . S
C2215 C2219 1.385 . S
C2216 H2197 0.951 . S
C2216 C2214 1.388 . S
C2216 C2217 1.366 . S
C2217 C2216 1.366 . S
C2217 C2218 1.414 . S
C2217 C2220 1.499 . S
C2218 H2198 0.950 . S
C2218 C2217 1.414 . S
C2218 C2219 1.374 . S
C2219 H2199 0.950 . S
C2219 C2215 1.385 . S
C2219 C2218 1.374 . S
C2220 C2217 1.499 . S
C2220 C2221 1.373 . S
C2220 C2222 1.389 . S
C2221 H2200 0.950 . S
C2221 C2220 1.373 . S
C2221 C2237 1.377 . S
C2222 C2220 1.389 . S
C2222 C2223 1.524 . S
C2222 C2236 1.377 . S
C2223 C2222 1.524 . S
C2223 C2224 1.397 . S
C2223 C2228 1.363 . S
C2224 H2201 0.950 . S
C2224 C2223 1.397 . S
C2224 C2225 1.334 . S
C2225 H2202 0.950 . S
C2225 C2224 1.334 . S
C2225 C2226 1.287 . S
C2226 C2225 1.287 . S
C2226 C2227 1.524 . S
C2226 H2245 0.913 . S
C2227 H2203 0.950 . S
C2227 C2226 1.524 . S
C2227 C2228 1.415 . S
C2228 H2204 0.950 . S
C2228 C2223 1.363 . S
C2228 C2227 1.415 . S
C2229 H2205 0.951 . S
C2229 C2230 1.366 . S
C2229 C2231 1.388 . S
C2230 C2229 1.366 . S
C2230 C2234 1.385 . S
C2231 H2206 0.951 . S
C2231 C2229 1.388 . S
C2231 C2232 1.366 . S
C2232 C2231 1.366 . S
C2232 C2233 1.414 . S
C2232 C2235 1.499 . S
C2233 H2207 0.950 . S
C2233 C2232 1.414 . S
C2233 C2234 1.374 . S
C2234 H2208 0.950 . S
C2234 C2230 1.385 . S
C2234 C2233 1.374 . S
C2235 C2232 1.499 . S
C2235 C2236 1.373 . S
C2235 C2237 1.389 . S
C2236 H2209 0.950 . S
C2236 C2222 1.377 . S
C2236 C2235 1.373 . S
C2237 C2221 1.377 . S
C2237 C2235 1.389 . S
C2237 C2238 1.524 . S
C2238 C2237 1.524 . S
C2238 C2239 1.397 . S
C2238 C2243 1.363 . S
C2239 H2210 0.950 . S
C2239 C2238 1.397 . S
C2239 C2240 1.334 . S
C2240 H2211 0.950 . S
C2240 C2239 1.334 . S
C2240 C2241 1.287 . S
C2241 C2240 1.287 . S
C2241 C2242 1.524 . S
C2241 H2244 0.999 . S
C2242 H2212 0.950 . S
C2242 C2241 1.524 . S
C2242 C2243 1.415 . S
C2243 H2213 0.950 . S
C2243 C2238 1.363 . S
C2243 C2242 1.415 . S
H2244 C2241 0.999 . S
H2245 C2226 0.913 . S
H2246 C2264 0.951 . S
H2247 C2266 0.951 . S
H2248 C2268 0.950 . S
H2249 C2269 0.950 . S
H2250 C2271 0.950 . S
H2251 C2274 0.950 . S
H2252 C2275 0.950 . S
H2253 C2277 0.950 . S
H2254 C2278 0.950 . S
H2255 C2279 0.951 . S
H2256 C2281 0.951 . S
H2257 C2283 0.950 . S
H2258 C2284 0.950 . S
H2259 C2286 0.950 . S
H2260 C2289 0.950 . S
H2261 C2290 0.950 . S
H2262 C2292 0.950 . S
H2263 C2293 0.950 . S
C2264 H2246 0.951 . S
C2264 C2265 1.366 . S
C2264 C2266 1.388 . S
C2265 C2264 1.366 . S
C2265 C2269 1.385 . S
C2266 H2247 0.951 . S
C2266 C2264 1.388 . S
C2266 C2267 1.366 . S
C2267 C2266 1.366 . S
C2267 C2268 1.414 . S
C2267 C2270 1.499 . S
C2268 H2248 0.950 . S
C2268 C2267 1.414 . S
C2268 C2269 1.374 . S
C2269 H2249 0.950 . S
C2269 C2265 1.385 . S
C2269 C2268 1.374 . S
C2270 C2267 1.499 . S
C2270 C2271 1.373 . S
C2270 C2272 1.389 . S
C2271 H2250 0.950 . S
C2271 C2270 1.373 . S
C2271 C2287 1.377 . S
C2272 C2270 1.389 . S
C2272 C2273 1.524 . S
C2272 C2286 1.377 . S
C2273 C2272 1.524 . S
C2273 C2274 1.397 . S
C2273 C2278 1.363 . S
C2274 H2251 0.950 . S
C2274 C2273 1.397 . S
C2274 C2275 1.334 . S
C2275 H2252 0.950 . S
C2275 C2274 1.334 . S
C2275 C2276 1.287 . S
C2276 C2275 1.287 . S
C2276 C2277 1.524 . S
C2276 H2295 0.913 . S
C2277 H2253 0.950 . S
C2277 C2276 1.524 . S
C2277 C2278 1.415 . S
C2278 H2254 0.950 . S
C2278 C2273 1.363 . S
C2278 C2277 1.415 . S
C2279 H2255 0.951 . S
C2279 C2280 1.366 . S
C2279 C2281 1.388 . S
C2280 C2279 1.366 . S
C2280 C2284 1.385 . S
C2281 H2256 0.951 . S
C2281 C2279 1.388 . S
C2281 C2282 1.366 . S
C2282 C2281 1.366 . S
C2282 C2283 1.414 . S
C2282 C2285 1.499 . S
C2283 H2257 0.950 . S
C2283 C2282 1.414 . S
C2283 C2284 1.374 . S
C2284 H2258 0.950 . S
C2284 C2280 1.385 . S
C2284 C2283 1.374 . S
C2285 C2282 1.499 . S
C2285 C2286 1.373 . S
C2285 C2287 1.389 . S
C2286 H2259 0.950 . S
C2286 C2272 1.377 . S
C2286 C2285 1.373 . S
C2287 C2271 1.377 . S
C2287 C2285 1.389 . S
C2287 C2288 1.524 . S
C2288 C2287 1.524 . S
C2288 C2289 1.397 . S
C2288 C2293 1.363 . S
C2289 H2260 0.950 . S
C2289 C2288 1.397 . S
C2289 C2290 1.334 . S
C2290 H2261 0.950 . S
C2290 C2289 1.334 . S
C2290 C2291 1.287 . S
C2291 C2290 1.287 . S
C2291 C2292 1.524 . S
C2291 H2294 0.999 . S
C2292 H2262 0.950 . S
C2292 C2291 1.524 . S
C2292 C2293 1.415 . S
C2293 H2263 0.950 . S
C2293 C2288 1.363 . S
C2293 C2292 1.415 . S
H2294 C2291 0.999 . S
H2295 C2276 0.913 . S
H2296 C2314 0.951 . S
H2297 C2316 0.951 . S
H2298 C2318 0.950 . S
H2299 C2319 0.950 . S
H2300 C2321 0.950 . S
H2301 C2324 0.950 . S
H2302 C2325 0.950 . S
H2303 C2327 0.950 . S
H2304 C2328 0.950 . S
H2305 C2329 0.951 . S
H2306 C2331 0.951 . S
H2307 C2333 0.950 . S
H2308 C2334 0.950 . S
H2309 C2336 0.950 . S
H2310 C2339 0.950 . S
H2311 C2340 0.950 . S
H2312 C2342 0.950 . S
H2313 C2343 0.950 . S
C2314 H2296 0.951 . S
C2314 C2315 1.366 . S
C2314 C2316 1.388 . S
C2315 C2314 1.366 . S
C2315 C2319 1.385 . S
C2316 H2297 0.951 . S
C2316 C2314 1.388 . S
C2316 C2317 1.366 . S
C2317 C2316 1.366 . S
C2317 C2318 1.414 . S
C2317 C2320 1.499 . S
C2318 H2298 0.950 . S
C2318 C2317 1.414 . S
C2318 C2319 1.374 . S
C2319 H2299 0.950 . S
C2319 C2315 1.385 . S
C2319 C2318 1.374 . S
C2320 C2317 1.499 . S
C2320 C2321 1.373 . S
C2320 C2322 1.389 . S
C2321 H2300 0.950 . S
C2321 C2320 1.373 . S
C2321 C2337 1.377 . S
C2322 C2320 1.389 . S
C2322 C2323 1.524 . S
C2322 C2336 1.377 . S
C2323 C2322 1.524 . S
C2323 C2324 1.397 . S
C2323 C2328 1.363 . S
C2324 H2301 0.950 . S
C2324 C2323 1.397 . S
C2324 C2325 1.334 . S
C2325 H2302 0.950 . S
C2325 C2324 1.334 . S
C2325 C2326 1.287 . S
C2326 C2325 1.287 . S
C2326 C2327 1.524 . S
C2326 H2345 0.913 . S
C2327 H2303 0.950 . S
C2327 C2326 1.524 . S
C2327 C2328 1.415 . S
C2328 H2304 0.950 . S
C2328 C2323 1.363 . S
C2328 C2327 1.415 . S
C2329 H2305 0.951 . S
C2329 C2330 1.366 . S
C2329 C2331 1.388 . S
C2330 C2329 1.366 . S
C2330 C2334 1.385 . S
C2331 H2306 0.951 . S
C2331 C2329 1.388 . S
C2331 C2332 1.366 . S
C2332 C2331 1.366 . S
C2332 C2333 1.414 . S
C2332 C2335 1.499 . S
C2333 H2307 0.950 . S
C2333 C2332 1.414 . S
C2333 C2334 1.374 . S
C2334 H2308 0.950 . S
C2334 C2330 1.385 . S
C2334 C2333 1.374 . S
C2335 C2332 1.499 . S
C2335 C2336 1.373 . S
C2335 C2337 1.389 . S
C2336 H2309 0.950 . S
C2336 C2322 1.377 . S
C2336 C2335 1.373 . S
C2337 C2321 1.377 . S
C2337 C2335 1.389 . S
C2337 C2338 1.524 . S
C2338 C2337 1.524 . S
C2338 C2339 1.397 . S
C2338 C2343 1.363 . S
C2339 H2310 0.950 . S
C2339 C2338 1.397 . S
C2339 C2340 1.334 . S
C2340 H2311 0.950 . S
C2340 C2339 1.334 . S
C2340 C2341 1.287 . S
C2341 C2340 1.287 . S
C2341 C2342 1.524 . S
C2341 H2344 0.999 . S
C2342 H2312 0.950 . S
C2342 C2341 1.524 . S
C2342 C2343 1.415 . S
C2343 H2313 0.950 . S
C2343 C2338 1.363 . S
C2343 C2342 1.415 . S
H2344 C2341 0.999 . S
H2345 C2326 0.913 . S
H2346 C2364 0.951 . S
H2347 C2366 0.951 . S
H2348 C2368 0.950 . S
H2349 C2369 0.950 . S
H2350 C2371 0.950 . S
H2351 C2374 0.950 . S
H2352 C2375 0.950 . S
H2353 C2377 0.950 . S
H2354 C2378 0.950 . S
H2355 C2379 0.951 . S
H2356 C2381 0.951 . S
H2357 C2383 0.950 . S
H2358 C2384 0.950 . S
H2359 C2386 0.950 . S
H2360 C2389 0.950 . S
H2361 C2390 0.950 . S
H2362 C2392 0.950 . S
H2363 C2393 0.950 . S
C2364 H2346 0.951 . S
C2364 C2365 1.366 . S
C2364 C2366 1.388 . S
C2365 C2364 1.366 . S
C2365 C2369 1.385 . S
C2366 H2347 0.951 . S
C2366 C2364 1.388 . S
C2366 C2367 1.366 . S
C2367 C2366 1.366 . S
C2367 C2368 1.414 . S
C2367 C2370 1.499 . S
C2368 H2348 0.950 . S
C2368 C2367 1.414 . S
C2368 C2369 1.374 . S
C2369 H2349 0.950 . S
C2369 C2365 1.385 . S
C2369 C2368 1.374 . S
C2370 C2367 1.499 . S
C2370 C2371 1.373 . S
C2370 C2372 1.389 . S
C2371 H2350 0.950 . S
C2371 C2370 1.373 . S
C2371 C2387 1.377 . S
C2372 C2370 1.389 . S
C2372 C2373 1.524 . S
C2372 C2386 1.377 . S
C2373 C2372 1.524 . S
C2373 C2374 1.397 . S
C2373 C2378 1.363 . S
C2374 H2351 0.950 . S
C2374 C2373 1.397 . S
C2374 C2375 1.334 . S
C2375 H2352 0.950 . S
C2375 C2374 1.334 . S
C2375 C2376 1.287 . S
C2376 C2375 1.287 . S
C2376 C2377 1.524 . S
C2376 H2395 0.913 . S
C2377 H2353 0.950 . S
C2377 C2376 1.524 . S
C2377 C2378 1.415 . S
C2378 H2354 0.950 . S
C2378 C2373 1.363 . S
C2378 C2377 1.415 . S
C2379 H2355 0.951 . S
C2379 C2380 1.366 . S
C2379 C2381 1.388 . S
C2380 C2379 1.366 . S
C2380 C2384 1.385 . S
C2381 H2356 0.951 . S
C2381 C2379 1.388 . S
C2381 C2382 1.366 . S
C2382 C2381 1.366 . S
C2382 C2383 1.414 . S
C2382 C2385 1.499 . S
C2383 H2357 0.950 . S
C2383 C2382 1.414 . S
C2383 C2384 1.374 . S
C2384 H2358 0.950 . S
C2384 C2380 1.385 . S
C2384 C2383 1.374 . S
C2385 C2382 1.499 . S
C2385 C2386 1.373 . S
C2385 C2387 1.389 . S
C2386 H2359 0.950 . S
C2386 C2372 1.377 . S
C2386 C2385 1.373 . S
C2387 C2371 1.377 . S
C2387 C2385 1.389 . S
C2387 C2388 1.524 . S
C2388 C2387 1.524 . S
C2388 C2389 1.397 . S
C2388 C2393 1.363 . S
C2389 H2360 0.950 . S
C2389 C2388 1.397 . S
C2389 C2390 1.334 . S
C2390 H2361 0.950 . S
C2390 C2389 1.334 . S
C2390 C2391 1.287 . S
C2391 C2390 1.287 . S
C2391 C2392 1.524 . S
C2391 H2394 0.999 . S
C2392 H2362 0.950 . S
C2392 C2391 1.524 . S
C2392 C2393 1.415 . S
C2393 H2363 0.950 . S
C2393 C2388 1.363 . S
C2393 C2392 1.415 . S
H2394 C2391 0.999 . S
H2395 C2376 0.913 . S
H2396 C2414 0.951 . S
H2397 C2416 0.951 . S
H2398 C2418 0.950 . S
H2399 C2419 0.950 . S
H2400 C2421 0.950 . S
H2401 C2424 0.950 . S
H2402 C2425 0.950 . S
H2403 C2427 0.950 . S
H2404 C2428 0.950 . S
H2405 C2429 0.951 . S
H2406 C2431 0.951 . S
H2407 C2433 0.950 . S
H2408 C2434 0.950 . S
H2409 C2436 0.950 . S
H2410 C2439 0.950 . S
H2411 C2440 0.950 . S
H2412 C2442 0.950 . S
H2413 C2443 0.950 . S
C2414 H2396 0.951 . S
C2414 C2415 1.366 . S
C2414 C2416 1.388 . S
C2415 C2414 1.366 . S
C2415 C2419 1.385 . S
C2416 H2397 0.951 . S
C2416 C2414 1.388 . S
C2416 C2417 1.366 . S
C2417 C2416 1.366 . S
C2417 C2418 1.414 . S
C2417 C2420 1.499 . S
C2418 H2398 0.950 . S
C2418 C2417 1.414 . S
C2418 C2419 1.374 . S
C2419 H2399 0.950 . S
C2419 C2415 1.385 . S
C2419 C2418 1.374 . S
C2420 C2417 1.499 . S
C2420 C2421 1.373 . S
C2420 C2422 1.389 . S
C2421 H2400 0.950 . S
C2421 C2420 1.373 . S
C2421 C2437 1.377 . S
C2422 C2420 1.389 . S
C2422 C2423 1.524 . S
C2422 C2436 1.377 . S
C2423 C2422 1.524 . S
C2423 C2424 1.397 . S
C2423 C2428 1.363 . S
C2424 H2401 0.950 . S
C2424 C2423 1.397 . S
C2424 C2425 1.334 . S
C2425 H2402 0.950 . S
C2425 C2424 1.334 . S
C2425 C2426 1.287 . S
C2426 C2425 1.287 . S
C2426 C2427 1.524 . S
C2426 H2445 0.913 . S
C2427 H2403 0.950 . S
C2427 C2426 1.524 . S
C2427 C2428 1.415 . S
C2428 H2404 0.950 . S
C2428 C2423 1.363 . S
C2428 C2427 1.415 . S
C2429 H2405 0.951 . S
C2429 C2430 1.366 . S
C2429 C2431 1.388 . S
C2430 C2429 1.366 . S
C2430 C2434 1.385 . S
C2431 H2406 0.951 . S
C2431 C2429 1.388 . S
C2431 C2432 1.366 . S
C2432 C2431 1.366 . S
C2432 C2433 1.414 . S
C2432 C2435 1.499 . S
C2433 H2407 0.950 . S
C2433 C2432 1.414 . S
C2433 C2434 1.374 . S
C2434 H2408 0.950 . S
C2434 C2430 1.385 . S
C2434 C2433 1.374 . S
C2435 C2432 1.499 . S
C2435 C2436 1.373 . S
C2435 C2437 1.389 . S
C2436 H2409 0.950 . S
C2436 C2422 1.377 . S
C2436 C2435 1.373 . S
C2437 C2421 1.377 . S
C2437 C2435 1.389 . S
C2437 C2438 1.524 . S
C2438 C2437 1.524 . S
C2438 C2439 1.397 . S
C2438 C2443 1.363 . S
C2439 H2410 0.950 . S
C2439 C2438 1.397 . S
C2439 C2440 1.334 . S
C2440 H2411 0.950 . S
C2440 C2439 1.334 . S
C2440 C2441 1.287 . S
C2441 C2440 1.287 . S
C2441 C2442 1.524 . S
C2441 H2444 0.999 . S
C2442 H2412 0.950 . S
C2442 C2441 1.524 . S
C2442 C2443 1.415 . S
C2443 H2413 0.950 . S
C2443 C2438 1.363 . S
C2443 C2442 1.415 . S
H2444 C2441 0.999 . S
H2445 C2426 0.913 . S
H2446 C2464 0.951 . S
H2447 C2466 0.951 . S
H2448 C2468 0.950 . S
H2449 C2469 0.950 . S
H2450 C2471 0.950 . S
H2451 C2474 0.950 . S
H2452 C2475 0.950 . S
H2453 C2477 0.950 . S
H2454 C2478 0.950 . S
H2455 C2479 0.951 . S
H2456 C2481 0.951 . S
H2457 C2483 0.950 . S
H2458 C2484 0.950 . S
H2459 C2486 0.950 . S
H2460 C2489 0.950 . S
H2461 C2490 0.950 . S
H2462 C2492 0.950 . S
H2463 C2493 0.950 . S
C2464 H2446 0.951 . S
C2464 C2465 1.366 . S
C2464 C2466 1.388 . S
C2465 C2464 1.366 . S
C2465 C2469 1.385 . S
C2466 H2447 0.951 . S
C2466 C2464 1.388 . S
C2466 C2467 1.366 . S
C2467 C2466 1.366 . S
C2467 C2468 1.414 . S
C2467 C2470 1.499 . S
C2468 H2448 0.950 . S
C2468 C2467 1.414 . S
C2468 C2469 1.374 . S
C2469 H2449 0.950 . S
C2469 C2465 1.385 . S
C2469 C2468 1.374 . S
C2470 C2467 1.499 . S
C2470 C2471 1.373 . S
C2470 C2472 1.389 . S
C2471 H2450 0.950 . S
C2471 C2470 1.373 . S
C2471 C2487 1.377 . S
C2472 C2470 1.389 . S
C2472 C2473 1.524 . S
C2472 C2486 1.377 . S
C2473 C2472 1.524 . S
C2473 C2474 1.397 . S
C2473 C2478 1.363 . S
C2474 H2451 0.950 . S
C2474 C2473 1.397 . S
C2474 C2475 1.334 . S
C2475 H2452 0.950 . S
C2475 C2474 1.334 . S
C2475 C2476 1.287 . S
C2476 C2475 1.287 . S
C2476 C2477 1.524 . S
C2476 H2495 0.913 . S
C2477 H2453 0.950 . S
C2477 C2476 1.524 . S
C2477 C2478 1.415 . S
C2478 H2454 0.950 . S
C2478 C2473 1.363 . S
C2478 C2477 1.415 . S
C2479 H2455 0.951 . S
C2479 C2480 1.366 . S
C2479 C2481 1.388 . S
C2480 C2479 1.366 . S
C2480 C2484 1.385 . S
C2481 H2456 0.951 . S
C2481 C2479 1.388 . S
C2481 C2482 1.366 . S
C2482 C2481 1.366 . S
C2482 C2483 1.414 . S
C2482 C2485 1.499 . S
C2483 H2457 0.950 . S
C2483 C2482 1.414 . S
C2483 C2484 1.374 . S
C2484 H2458 0.950 . S
C2484 C2480 1.385 . S
C2484 C2483 1.374 . S
C2485 C2482 1.499 . S
C2485 C2486 1.373 . S
C2485 C2487 1.389 . S
C2486 H2459 0.950 . S
C2486 C2472 1.377 . S
C2486 C2485 1.373 . S
C2487 C2471 1.377 . S
C2487 C2485 1.389 . S
C2487 C2488 1.524 . S
C2488 C2487 1.524 . S
C2488 C2489 1.397 . S
C2488 C2493 1.363 . S
C2489 H2460 0.950 . S
C2489 C2488 1.397 . S
C2489 C2490 1.334 . S
C2490 H2461 0.950 . S
C2490 C2489 1.334 . S
C2490 C2491 1.287 . S
C2491 C2490 1.287 . S
C2491 C2492 1.524 . S
C2491 H2494 0.999 . S
C2492 H2462 0.950 . S
C2492 C2491 1.524 . S
C2492 C2493 1.415 . S
C2493 H2463 0.950 . S
C2493 C2488 1.363 . S
C2493 C2492 1.415 . S
H2494 C2491 0.999 . S
H2495 C2476 0.913 . S
H2496 C2514 0.951 . S
H2497 C2516 0.951 . S
H2498 C2518 0.950 . S
H2499 C2519 0.950 . S
H2500 C2521 0.950 . S
H2501 C2524 0.950 . S
H2502 C2525 0.950 . S
H2503 C2527 0.950 . S
H2504 C2528 0.950 . S
H2505 C2529 0.951 . S
H2506 C2531 0.951 . S
H2507 C2533 0.950 . S
H2508 C2534 0.950 . S
H2509 C2536 0.950 . S
H2510 C2539 0.950 . S
H2511 C2540 0.950 . S
H2512 C2542 0.950 . S
H2513 C2543 0.950 . S
C2514 H2496 0.951 . S
C2514 C2515 1.366 . S
C2514 C2516 1.388 . S
C2515 C2514 1.366 . S
C2515 C2519 1.385 . S
C2516 H2497 0.951 . S
C2516 C2514 1.388 . S
C2516 C2517 1.366 . S
C2517 C2516 1.366 . S
C2517 C2518 1.414 . S
C2517 C2520 1.499 . S
C2518 H2498 0.950 . S
C2518 C2517 1.414 . S
C2518 C2519 1.374 . S
C2519 H2499 0.950 . S
C2519 C2515 1.385 . S
C2519 C2518 1.374 . S
C2520 C2517 1.499 . S
C2520 C2521 1.373 . S
C2520 C2522 1.389 . S
C2521 H2500 0.950 . S
C2521 C2520 1.373 . S
C2521 C2537 1.377 . S
C2522 C2520 1.389 . S
C2522 C2523 1.524 . S
C2522 C2536 1.377 . S
C2523 C2522 1.524 . S
C2523 C2524 1.397 . S
C2523 C2528 1.363 . S
C2524 H2501 0.950 . S
C2524 C2523 1.397 . S
C2524 C2525 1.334 . S
C2525 H2502 0.950 . S
C2525 C2524 1.334 . S
C2525 C2526 1.287 . S
C2526 C2525 1.287 . S
C2526 C2527 1.524 . S
C2526 H2545 0.913 . S
C2527 H2503 0.950 . S
C2527 C2526 1.524 . S
C2527 C2528 1.415 . S
C2528 H2504 0.950 . S
C2528 C2523 1.363 . S
C2528 C2527 1.415 . S
C2529 H2505 0.951 . S
C2529 C2530 1.366 . S
C2529 C2531 1.388 . S
C2530 C2529 1.366 . S
C2530 C2534 1.385 . S
C2531 H2506 0.951 . S
C2531 C2529 1.388 . S
C2531 C2532 1.366 . S
C2532 C2531 1.366 . S
C2532 C2533 1.414 . S
C2532 C2535 1.499 . S
C2533 H2507 0.950 . S
C2533 C2532 1.414 . S
C2533 C2534 1.374 . S
C2534 H2508 0.950 . S
C2534 C2530 1.385 . S
C2534 C2533 1.374 . S
C2535 C2532 1.499 . S
C2535 C2536 1.373 . S
C2535 C2537 1.389 . S
C2536 H2509 0.950 . S
C2536 C2522 1.377 . S
C2536 C2535 1.373 . S
C2537 C2521 1.377 . S
C2537 C2535 1.389 . S
C2537 C2538 1.524 . S
C2538 C2537 1.524 . S
C2538 C2539 1.397 . S
C2538 C2543 1.363 . S
C2539 H2510 0.950 . S
C2539 C2538 1.397 . S
C2539 C2540 1.334 . S
C2540 H2511 0.950 . S
C2540 C2539 1.334 . S
C2540 C2541 1.287 . S
C2541 C2540 1.287 . S
C2541 C2542 1.524 . S
C2541 H2544 0.999 . S
C2542 H2512 0.950 . S
C2542 C2541 1.524 . S
C2542 C2543 1.415 . S
C2543 H2513 0.950 . S
C2543 C2538 1.363 . S
C2543 C2542 1.415 . S
H2544 C2541 0.999 . S
H2545 C2526 0.913 . S
H2546 C2564 0.951 . S
H2547 C2566 0.951 . S
H2548 C2568 0.950 . S
H2549 C2569 0.950 . S
H2550 C2571 0.950 . S
H2551 C2574 0.950 . S
H2552 C2575 0.950 . S
H2553 C2577 0.950 . S
H2554 C2578 0.950 . S
H2555 C2579 0.951 . S
H2556 C2581 0.951 . S
H2557 C2583 0.950 . S
H2558 C2584 0.950 . S
H2559 C2586 0.950 . S
H2560 C2589 0.950 . S
H2561 C2590 0.950 . S
H2562 C2592 0.950 . S
H2563 C2593 0.950 . S
C2564 H2546 0.951 . S
C2564 C2565 1.366 . S
C2564 C2566 1.388 . S
C2565 C2564 1.366 . S
C2565 C2569 1.385 . S
C2566 H2547 0.951 . S
C2566 C2564 1.388 . S
C2566 C2567 1.366 . S
C2567 C2566 1.366 . S
C2567 C2568 1.414 . S
C2567 C2570 1.499 . S
C2568 H2548 0.950 . S
C2568 C2567 1.414 . S
C2568 C2569 1.374 . S
C2569 H2549 0.950 . S
C2569 C2565 1.385 . S
C2569 C2568 1.374 . S
C2570 C2567 1.499 . S
C2570 C2571 1.373 . S
C2570 C2572 1.389 . S
C2571 H2550 0.950 . S
C2571 C2570 1.373 . S
C2571 C2587 1.377 . S
C2572 C2570 1.389 . S
C2572 C2573 1.524 . S
C2572 C2586 1.377 . S
C2573 C2572 1.524 . S
C2573 C2574 1.397 . S
C2573 C2578 1.363 . S
C2574 H2551 0.950 . S
C2574 C2573 1.397 . S
C2574 C2575 1.334 . S
C2575 H2552 0.950 . S
C2575 C2574 1.334 . S
C2575 C2576 1.287 . S
C2576 C2575 1.287 . S
C2576 C2577 1.524 . S
C2576 H2595 0.913 . S
C2577 H2553 0.950 . S
C2577 C2576 1.524 . S
C2577 C2578 1.415 . S
C2578 H2554 0.950 . S
C2578 C2573 1.363 . S
C2578 C2577 1.415 . S
C2579 H2555 0.951 . S
C2579 C2580 1.366 . S
C2579 C2581 1.388 . S
C2580 C2579 1.366 . S
C2580 C2584 1.385 . S
C2581 H2556 0.951 . S
C2581 C2579 1.388 . S
C2581 C2582 1.366 . S
C2582 C2581 1.366 . S
C2582 C2583 1.414 . S
C2582 C2585 1.499 . S
C2583 H2557 0.950 . S
C2583 C2582 1.414 . S
C2583 C2584 1.374 . S
C2584 H2558 0.950 . S
C2584 C2580 1.385 . S
C2584 C2583 1.374 . S
C2585 C2582 1.499 . S
C2585 C2586 1.373 . S
C2585 C2587 1.389 . S
C2586 H2559 0.950 . S
C2586 C2572 1.377 . S
C2586 C2585 1.373 . S
C2587 C2571 1.377 . S
C2587 C2585 1.389 . S
C2587 C2588 1.524 . S
C2588 C2587 1.524 . S
C2588 C2589 1.397 . S
C2588 C2593 1.363 . S
C2589 H2560 0.950 . S
C2589 C2588 1.397 . S
C2589 C2590 1.334 . S
C2590 H2561 0.950 . S
C2590 C2589 1.334 . S
C2590 C2591 1.287 . S
C2591 C2590 1.287 . S
C2591 C2592 1.524 . S
C2591 H2594 0.999 . S
C2592 H2562 0.950 . S
C2592 C2591 1.524 . S
C2592 C2593 1.415 . S
C2593 H2563 0.950 . S
C2593 C2588 1.363 . S
C2593 C2592 1.415 . S
H2594 C2591 0.999 . S
H2595 C2576 0.913 . S
H2596 C2614 0.951 . S
H2597 C2616 0.951 . S
H2598 C2618 0.950 . S
H2599 C2619 0.950 . S
H2600 C2621 0.950 . S
H2601 C2624 0.950 . S
H2602 C2625 0.950 . S
H2603 C2627 0.950 . S
H2604 C2628 0.950 . S
H2605 C2629 0.951 . S
H2606 C2631 0.951 . S
H2607 C2633 0.950 . S
H2608 C2634 0.950 . S
H2609 C2636 0.950 . S
H2610 C2639 0.950 . S
H2611 C2640 0.950 . S
H2612 C2642 0.950 . S
H2613 C2643 0.950 . S
C2614 H2596 0.951 . S
C2614 C2615 1.366 . S
C2614 C2616 1.388 . S
C2615 C2614 1.366 . S
C2615 C2619 1.385 . S
C2616 H2597 0.951 . S
C2616 C2614 1.388 . S
C2616 C2617 1.366 . S
C2617 C2616 1.366 . S
C2617 C2618 1.414 . S
C2617 C2620 1.499 . S
C2618 H2598 0.950 . S
C2618 C2617 1.414 . S
C2618 C2619 1.374 . S
C2619 H2599 0.950 . S
C2619 C2615 1.385 . S
C2619 C2618 1.374 . S
C2620 C2617 1.499 . S
C2620 C2621 1.373 . S
C2620 C2622 1.389 . S
C2621 H2600 0.950 . S
C2621 C2620 1.373 . S
C2621 C2637 1.377 . S
C2622 C2620 1.389 . S
C2622 C2623 1.524 . S
C2622 C2636 1.377 . S
C2623 C2622 1.524 . S
C2623 C2624 1.397 . S
C2623 C2628 1.363 . S
C2624 H2601 0.950 . S
C2624 C2623 1.397 . S
C2624 C2625 1.334 . S
C2625 H2602 0.950 . S
C2625 C2624 1.334 . S
C2625 C2626 1.287 . S
C2626 C2625 1.287 . S
C2626 C2627 1.524 . S
C2626 H2645 0.913 . S
C2627 H2603 0.950 . S
C2627 C2626 1.524 . S
C2627 C2628 1.415 . S
C2628 H2604 0.950 . S
C2628 C2623 1.363 . S
C2628 C2627 1.415 . S
C2629 H2605 0.951 . S
C2629 C2630 1.366 . S
C2629 C2631 1.388 . S
C2630 C2629 1.366 . S
C2630 C2634 1.385 . S
C2631 H2606 0.951 . S
C2631 C2629 1.388 . S
C2631 C2632 1.366 . S
C2632 C2631 1.366 . S
C2632 C2633 1.414 . S
C2632 C2635 1.499 . S
C2633 H2607 0.950 . S
C2633 C2632 1.414 . S
C2633 C2634 1.374 . S
C2634 H2608 0.950 . S
C2634 C2630 1.385 . S
C2634 C2633 1.374 . S
C2635 C2632 1.499 . S
C2635 C2636 1.373 . S
C2635 C2637 1.389 . S
C2636 H2609 0.950 . S
C2636 C2622 1.377 . S
C2636 C2635 1.373 . S
C2637 C2621 1.377 . S
C2637 C2635 1.389 . S
C2637 C2638 1.524 . S
C2638 C2637 1.524 . S
C2638 C2639 1.397 . S
C2638 C2643 1.363 . S
C2639 H2610 0.950 . S
C2639 C2638 1.397 . S
C2639 C2640 1.334 . S
C2640 H2611 0.950 . S
C2640 C2639 1.334 . S
C2640 C2641 1.287 . S
C2641 C2640 1.287 . S
C2641 C2642 1.524 . S
C2641 H2644 0.999 . S
C2642 H2612 0.950 . S
C2642 C2641 1.524 . S
C2642 C2643 1.415 . S
C2643 H2613 0.950 . S
C2643 C2638 1.363 . S
C2643 C2642 1.415 . S
H2644 C2641 0.999 . S
H2645 C2626 0.913 . S
H2646 C2664 0.951 . S
H2647 C2666 0.951 . S
H2648 C2668 0.950 . S
H2649 C2669 0.950 . S
H2650 C2671 0.950 . S
H2651 C2674 0.950 . S
H2652 C2675 0.950 . S
H2653 C2677 0.950 . S
H2654 C2678 0.950 . S
H2655 C2679 0.951 . S
H2656 C2681 0.951 . S
H2657 C2683 0.950 . S
H2658 C2684 0.950 . S
H2659 C2686 0.950 . S
H2660 C2689 0.950 . S
H2661 C2690 0.950 . S
H2662 C2692 0.950 . S
H2663 C2693 0.950 . S
C2664 H2646 0.951 . S
C2664 C2665 1.366 . S
C2664 C2666 1.388 . S
C2665 C2664 1.366 . S
C2665 C2669 1.385 . S
C2666 H2647 0.951 . S
C2666 C2664 1.388 . S
C2666 C2667 1.366 . S
C2667 C2666 1.366 . S
C2667 C2668 1.414 . S
C2667 C2670 1.499 . S
C2668 H2648 0.950 . S
C2668 C2667 1.414 . S
C2668 C2669 1.374 . S
C2669 H2649 0.950 . S
C2669 C2665 1.385 . S
C2669 C2668 1.374 . S
C2670 C2667 1.499 . S
C2670 C2671 1.373 . S
C2670 C2672 1.389 . S
C2671 H2650 0.950 . S
C2671 C2670 1.373 . S
C2671 C2687 1.377 . S
C2672 C2670 1.389 . S
C2672 C2673 1.524 . S
C2672 C2686 1.377 . S
C2673 C2672 1.524 . S
C2673 C2674 1.397 . S
C2673 C2678 1.363 . S
C2674 H2651 0.950 . S
C2674 C2673 1.397 . S
C2674 C2675 1.334 . S
C2675 H2652 0.950 . S
C2675 C2674 1.334 . S
C2675 C2676 1.287 . S
C2676 C2675 1.287 . S
C2676 C2677 1.524 . S
C2676 H2695 0.913 . S
C2677 H2653 0.950 . S
C2677 C2676 1.524 . S
C2677 C2678 1.415 . S
C2678 H2654 0.950 . S
C2678 C2673 1.363 . S
C2678 C2677 1.415 . S
C2679 H2655 0.951 . S
C2679 C2680 1.366 . S
C2679 C2681 1.388 . S
C2680 C2679 1.366 . S
C2680 C2684 1.385 . S
C2681 H2656 0.951 . S
C2681 C2679 1.388 . S
C2681 C2682 1.366 . S
C2682 C2681 1.366 . S
C2682 C2683 1.414 . S
C2682 C2685 1.499 . S
C2683 H2657 0.950 . S
C2683 C2682 1.414 . S
C2683 C2684 1.374 . S
C2684 H2658 0.950 . S
C2684 C2680 1.385 . S
C2684 C2683 1.374 . S
C2685 C2682 1.499 . S
C2685 C2686 1.373 . S
C2685 C2687 1.389 . S
C2686 H2659 0.950 . S
C2686 C2672 1.377 . S
C2686 C2685 1.373 . S
C2687 C2671 1.377 . S
C2687 C2685 1.389 . S
C2687 C2688 1.524 . S
C2688 C2687 1.524 . S
C2688 C2689 1.397 . S
C2688 C2693 1.363 . S
C2689 H2660 0.950 . S
C2689 C2688 1.397 . S
C2689 C2690 1.334 . S
C2690 H2661 0.950 . S
C2690 C2689 1.334 . S
C2690 C2691 1.287 . S
C2691 C2690 1.287 . S
C2691 C2692 1.524 . S
C2691 H2694 0.999 . S
C2692 H2662 0.950 . S
C2692 C2691 1.524 . S
C2692 C2693 1.415 . S
C2693 H2663 0.950 . S
C2693 C2688 1.363 . S
C2693 C2692 1.415 . S
H2694 C2691 0.999 . S
H2695 C2676 0.913 . S
H2696 C2714 0.951 . S
H2697 C2716 0.951 . S
H2698 C2718 0.950 . S
H2699 C2719 0.950 . S
H2700 C2721 0.950 . S
H2701 C2724 0.950 . S
H2702 C2725 0.950 . S
H2703 C2727 0.950 . S
H2704 C2728 0.950 . S
H2705 C2729 0.951 . S
H2706 C2731 0.951 . S
H2707 C2733 0.950 . S
H2708 C2734 0.950 . S
H2709 C2736 0.950 . S
H2710 C2739 0.950 . S
H2711 C2740 0.950 . S
H2712 C2742 0.950 . S
H2713 C2743 0.950 . S
C2714 H2696 0.951 . S
C2714 C2715 1.366 . S
C2714 C2716 1.388 . S
C2715 C2714 1.366 . S
C2715 C2719 1.385 . S
C2716 H2697 0.951 . S
C2716 C2714 1.388 . S
C2716 C2717 1.366 . S
C2717 C2716 1.366 . S
C2717 C2718 1.414 . S
C2717 C2720 1.499 . S
C2718 H2698 0.950 . S
C2718 C2717 1.414 . S
C2718 C2719 1.374 . S
C2719 H2699 0.950 . S
C2719 C2715 1.385 . S
C2719 C2718 1.374 . S
C2720 C2717 1.499 . S
C2720 C2721 1.373 . S
C2720 C2722 1.389 . S
C2721 H2700 0.950 . S
C2721 C2720 1.373 . S
C2721 C2737 1.377 . S
C2722 C2720 1.389 . S
C2722 C2723 1.524 . S
C2722 C2736 1.377 . S
C2723 C2722 1.524 . S
C2723 C2724 1.397 . S
C2723 C2728 1.363 . S
C2724 H2701 0.950 . S
C2724 C2723 1.397 . S
C2724 C2725 1.334 . S
C2725 H2702 0.950 . S
C2725 C2724 1.334 . S
C2725 C2726 1.287 . S
C2726 C2725 1.287 . S
C2726 C2727 1.524 . S
C2726 H2745 0.913 . S
C2727 H2703 0.950 . S
C2727 C2726 1.524 . S
C2727 C2728 1.415 . S
C2728 H2704 0.950 . S
C2728 C2723 1.363 . S
C2728 C2727 1.415 . S
C2729 H2705 0.951 . S
C2729 C2730 1.366 . S
C2729 C2731 1.388 . S
C2730 C2729 1.366 . S
C2730 C2734 1.385 . S
C2731 H2706 0.951 . S
C2731 C2729 1.388 . S
C2731 C2732 1.366 . S
C2732 C2731 1.366 . S
C2732 C2733 1.414 . S
C2732 C2735 1.499 . S
C2733 H2707 0.950 . S
C2733 C2732 1.414 . S
C2733 C2734 1.374 . S
C2734 H2708 0.950 . S
C2734 C2730 1.385 . S
C2734 C2733 1.374 . S
C2735 C2732 1.499 . S
C2735 C2736 1.373 . S
C2735 C2737 1.389 . S
C2736 H2709 0.950 . S
C2736 C2722 1.377 . S
C2736 C2735 1.373 . S
C2737 C2721 1.377 . S
C2737 C2735 1.389 . S
C2737 C2738 1.524 . S
C2738 C2737 1.524 . S
C2738 C2739 1.397 . S
C2738 C2743 1.363 . S
C2739 H2710 0.950 . S
C2739 C2738 1.397 . S
C2739 C2740 1.334 . S
C2740 H2711 0.950 . S
C2740 C2739 1.334 . S
C2740 C2741 1.287 . S
C2741 C2740 1.287 . S
C2741 C2742 1.524 . S
C2741 H2744 0.999 . S
C2742 H2712 0.950 . S
C2742 C2741 1.524 . S
C2742 C2743 1.415 . S
C2743 H2713 0.950 . S
C2743 C2738 1.363 . S
C2743 C2742 1.415 . S
H2744 C2741 0.999 . S
H2745 C2726 0.913 . S
H2746 C2764 0.951 . S
H2747 C2766 0.951 . S
H2748 C2768 0.950 . S
H2749 C2769 0.950 . S
H2750 C2771 0.950 . S
H2751 C2774 0.950 . S
H2752 C2775 0.950 . S
H2753 C2777 0.950 . S
H2754 C2778 0.950 . S
H2755 C2779 0.951 . S
H2756 C2781 0.951 . S
H2757 C2783 0.950 . S
H2758 C2784 0.950 . S
H2759 C2786 0.950 . S
H2760 C2789 0.950 . S
H2761 C2790 0.950 . S
H2762 C2792 0.950 . S
H2763 C2793 0.950 . S
C2764 H2746 0.951 . S
C2764 C2765 1.366 . S
C2764 C2766 1.388 . S
C2765 C2764 1.366 . S
C2765 C2769 1.385 . S
C2766 H2747 0.951 . S
C2766 C2764 1.388 . S
C2766 C2767 1.366 . S
C2767 C2766 1.366 . S
C2767 C2768 1.414 . S
C2767 C2770 1.499 . S
C2768 H2748 0.950 . S
C2768 C2767 1.414 . S
C2768 C2769 1.374 . S
C2769 H2749 0.950 . S
C2769 C2765 1.385 . S
C2769 C2768 1.374 . S
C2770 C2767 1.499 . S
C2770 C2771 1.373 . S
C2770 C2772 1.389 . S
C2771 H2750 0.950 . S
C2771 C2770 1.373 . S
C2771 C2787 1.377 . S
C2772 C2770 1.389 . S
C2772 C2773 1.524 . S
C2772 C2786 1.377 . S
C2773 C2772 1.524 . S
C2773 C2774 1.397 . S
C2773 C2778 1.363 . S
C2774 H2751 0.950 . S
C2774 C2773 1.397 . S
C2774 C2775 1.334 . S
C2775 H2752 0.950 . S
C2775 C2774 1.334 . S
C2775 C2776 1.287 . S
C2776 C2775 1.287 . S
C2776 C2777 1.524 . S
C2776 H2795 0.913 . S
C2777 H2753 0.950 . S
C2777 C2776 1.524 . S
C2777 C2778 1.415 . S
C2778 H2754 0.950 . S
C2778 C2773 1.363 . S
C2778 C2777 1.415 . S
C2779 H2755 0.951 . S
C2779 C2780 1.366 . S
C2779 C2781 1.388 . S
C2780 C2779 1.366 . S
C2780 C2784 1.385 . S
C2781 H2756 0.951 . S
C2781 C2779 1.388 . S
C2781 C2782 1.366 . S
C2782 C2781 1.366 . S
C2782 C2783 1.414 . S
C2782 C2785 1.499 . S
C2783 H2757 0.950 . S
C2783 C2782 1.414 . S
C2783 C2784 1.374 . S
C2784 H2758 0.950 . S
C2784 C2780 1.385 . S
C2784 C2783 1.374 . S
C2785 C2782 1.499 . S
C2785 C2786 1.373 . S
C2785 C2787 1.389 . S
C2786 H2759 0.950 . S
C2786 C2772 1.377 . S
C2786 C2785 1.373 . S
C2787 C2771 1.377 . S
C2787 C2785 1.389 . S
C2787 C2788 1.524 . S
C2788 C2787 1.524 . S
C2788 C2789 1.397 . S
C2788 C2793 1.363 . S
C2789 H2760 0.950 . S
C2789 C2788 1.397 . S
C2789 C2790 1.334 . S
C2790 H2761 0.950 . S
C2790 C2789 1.334 . S
C2790 C2791 1.287 . S
C2791 C2790 1.287 . S
C2791 C2792 1.524 . S
C2791 H2794 0.999 . S
C2792 H2762 0.950 . S
C2792 C2791 1.524 . S
C2792 C2793 1.415 . S
C2793 H2763 0.950 . S
C2793 C2788 1.363 . S
C2793 C2792 1.415 . S
H2794 C2791 0.999 . S
H2795 C2776 0.913 . S
H2796 C2814 0.951 . S
H2797 C2816 0.951 . S
H2798 C2818 0.950 . S
H2799 C2819 0.950 . S
H2800 C2821 0.950 . S
H2801 C2824 0.950 . S
H2802 C2825 0.950 . S
H2803 C2827 0.950 . S
H2804 C2828 0.950 . S
H2805 C2829 0.951 . S
H2806 C2831 0.951 . S
H2807 C2833 0.950 . S
H2808 C2834 0.950 . S
H2809 C2836 0.950 . S
H2810 C2839 0.950 . S
H2811 C2840 0.950 . S
H2812 C2842 0.950 . S
H2813 C2843 0.950 . S
C2814 H2796 0.951 . S
C2814 C2815 1.366 . S
C2814 C2816 1.388 . S
C2815 C2814 1.366 . S
C2815 C2819 1.385 . S
C2816 H2797 0.951 . S
C2816 C2814 1.388 . S
C2816 C2817 1.366 . S
C2817 C2816 1.366 . S
C2817 C2818 1.414 . S
C2817 C2820 1.499 . S
C2818 H2798 0.950 . S
C2818 C2817 1.414 . S
C2818 C2819 1.374 . S
C2819 H2799 0.950 . S
C2819 C2815 1.385 . S
C2819 C2818 1.374 . S
C2820 C2817 1.499 . S
C2820 C2821 1.373 . S
C2820 C2822 1.389 . S
C2821 H2800 0.950 . S
C2821 C2820 1.373 . S
C2821 C2837 1.377 . S
C2822 C2820 1.389 . S
C2822 C2823 1.524 . S
C2822 C2836 1.377 . S
C2823 C2822 1.524 . S
C2823 C2824 1.397 . S
C2823 C2828 1.363 . S
C2824 H2801 0.950 . S
C2824 C2823 1.397 . S
C2824 C2825 1.334 . S
C2825 H2802 0.950 . S
C2825 C2824 1.334 . S
C2825 C2826 1.287 . S
C2826 C2825 1.287 . S
C2826 C2827 1.524 . S
C2826 H2845 0.913 . S
C2827 H2803 0.950 . S
C2827 C2826 1.524 . S
C2827 C2828 1.415 . S
C2828 H2804 0.950 . S
C2828 C2823 1.363 . S
C2828 C2827 1.415 . S
C2829 H2805 0.951 . S
C2829 C2830 1.366 . S
C2829 C2831 1.388 . S
C2830 C2829 1.366 . S
C2830 C2834 1.385 . S
C2831 H2806 0.951 . S
C2831 C2829 1.388 . S
C2831 C2832 1.366 . S
C2832 C2831 1.366 . S
C2832 C2833 1.414 . S
C2832 C2835 1.499 . S
C2833 H2807 0.950 . S
C2833 C2832 1.414 . S
C2833 C2834 1.374 . S
C2834 H2808 0.950 . S
C2834 C2830 1.385 . S
C2834 C2833 1.374 . S
C2835 C2832 1.499 . S
C2835 C2836 1.373 . S
C2835 C2837 1.389 . S
C2836 H2809 0.950 . S
C2836 C2822 1.377 . S
C2836 C2835 1.373 . S
C2837 C2821 1.377 . S
C2837 C2835 1.389 . S
C2837 C2838 1.524 . S
C2838 C2837 1.524 . S
C2838 C2839 1.397 . S
C2838 C2843 1.363 . S
C2839 H2810 0.950 . S
C2839 C2838 1.397 . S
C2839 C2840 1.334 . S
C2840 H2811 0.950 . S
C2840 C2839 1.334 . S
C2840 C2841 1.287 . S
C2841 C2840 1.287 . S
C2841 C2842 1.524 . S
C2841 H2844 0.999 . S
C2842 H2812 0.950 . S
C2842 C2841 1.524 . S
C2842 C2843 1.415 . S
C2843 H2813 0.950 . S
C2843 C2838 1.363 . S
C2843 C2842 1.415 . S
H2844 C2841 0.999 . S
H2845 C2826 0.913 . S
H2846 C2864 0.951 . S
H2847 C2866 0.951 . S
H2848 C2868 0.950 . S
H2849 C2869 0.950 . S
H2850 C2871 0.950 . S
H2851 C2874 0.950 . S
H2852 C2875 0.950 . S
H2853 C2877 0.950 . S
H2854 C2878 0.950 . S
H2855 C2879 0.951 . S
H2856 C2881 0.951 . S
H2857 C2883 0.950 . S
H2858 C2884 0.950 . S
H2859 C2886 0.950 . S
H2860 C2889 0.950 . S
H2861 C2890 0.950 . S
H2862 C2892 0.950 . S
H2863 C2893 0.950 . S
C2864 H2846 0.951 . S
C2864 C2865 1.366 . S
C2864 C2866 1.388 . S
C2865 C2864 1.366 . S
C2865 C2869 1.385 . S
C2866 H2847 0.951 . S
C2866 C2864 1.388 . S
C2866 C2867 1.366 . S
C2867 C2866 1.366 . S
C2867 C2868 1.414 . S
C2867 C2870 1.499 . S
C2868 H2848 0.950 . S
C2868 C2867 1.414 . S
C2868 C2869 1.374 . S
C2869 H2849 0.950 . S
C2869 C2865 1.385 . S
C2869 C2868 1.374 . S
C2870 C2867 1.499 . S
C2870 C2871 1.373 . S
C2870 C2872 1.389 . S
C2871 H2850 0.950 . S
C2871 C2870 1.373 . S
C2871 C2887 1.377 . S
C2872 C2870 1.389 . S
C2872 C2873 1.524 . S
C2872 C2886 1.377 . S
C2873 C2872 1.524 . S
C2873 C2874 1.397 . S
C2873 C2878 1.363 . S
C2874 H2851 0.950 . S
C2874 C2873 1.397 . S
C2874 C2875 1.334 . S
C2875 H2852 0.950 . S
C2875 C2874 1.334 . S
C2875 C2876 1.287 . S
C2876 C2875 1.287 . S
C2876 C2877 1.524 . S
C2876 H2895 0.913 . S
C2877 H2853 0.950 . S
C2877 C2876 1.524 . S
C2877 C2878 1.415 . S
C2878 H2854 0.950 . S
C2878 C2873 1.363 . S
C2878 C2877 1.415 . S
C2879 H2855 0.951 . S
C2879 C2880 1.366 . S
C2879 C2881 1.388 . S
C2880 C2879 1.366 . S
C2880 C2884 1.385 . S
C2881 H2856 0.951 . S
C2881 C2879 1.388 . S
C2881 C2882 1.366 . S
C2882 C2881 1.366 . S
C2882 C2883 1.414 . S
C2882 C2885 1.499 . S
C2883 H2857 0.950 . S
C2883 C2882 1.414 . S
C2883 C2884 1.374 . S
C2884 H2858 0.950 . S
C2884 C2880 1.385 . S
C2884 C2883 1.374 . S
C2885 C2882 1.499 . S
C2885 C2886 1.373 . S
C2885 C2887 1.389 . S
C2886 H2859 0.950 . S
C2886 C2872 1.377 . S
C2886 C2885 1.373 . S
C2887 C2871 1.377 . S
C2887 C2885 1.389 . S
C2887 C2888 1.524 . S
C2888 C2887 1.524 . S
C2888 C2889 1.397 . S
C2888 C2893 1.363 . S
C2889 H2860 0.950 . S
C2889 C2888 1.397 . S
C2889 C2890 1.334 . S
C2890 H2861 0.950 . S
C2890 C2889 1.334 . S
C2890 C2891 1.287 . S
C2891 C2890 1.287 . S
C2891 C2892 1.524 . S
C2891 H2894 0.999 . S
C2892 H2862 0.950 . S
C2892 C2891 1.524 . S
C2892 C2893 1.415 . S
C2893 H2863 0.950 . S
C2893 C2888 1.363 . S
C2893 C2892 1.415 . S
H2894 C2891 0.999 . S
H2895 C2876 0.913 . S
H2896 C2914 0.951 . S
H2897 C2916 0.951 . S
H2898 C2918 0.950 . S
H2899 C2919 0.950 . S
H2900 C2921 0.950 . S
H2901 C2924 0.950 . S
H2902 C2925 0.950 . S
H2903 C2927 0.950 . S
H2904 C2928 0.950 . S
H2905 C2929 0.951 . S
H2906 C2931 0.951 . S
H2907 C2933 0.950 . S
H2908 C2934 0.950 . S
H2909 C2936 0.950 . S
H2910 C2939 0.950 . S
H2911 C2940 0.950 . S
H2912 C2942 0.950 . S
H2913 C2943 0.950 . S
C2914 H2896 0.951 . S
C2914 C2915 1.366 . S
C2914 C2916 1.388 . S
C2915 C2914 1.366 . S
C2915 C2919 1.385 . S
C2916 H2897 0.951 . S
C2916 C2914 1.388 . S
C2916 C2917 1.366 . S
C2917 C2916 1.366 . S
C2917 C2918 1.414 . S
C2917 C2920 1.499 . S
C2918 H2898 0.950 . S
C2918 C2917 1.414 . S
C2918 C2919 1.374 . S
C2919 H2899 0.950 . S
C2919 C2915 1.385 . S
C2919 C2918 1.374 . S
C2920 C2917 1.499 . S
C2920 C2921 1.373 . S
C2920 C2922 1.389 . S
C2921 H2900 0.950 . S
C2921 C2920 1.373 . S
C2921 C2937 1.377 . S
C2922 C2920 1.389 . S
C2922 C2923 1.524 . S
C2922 C2936 1.377 . S
C2923 C2922 1.524 . S
C2923 C2924 1.397 . S
C2923 C2928 1.363 . S
C2924 H2901 0.950 . S
C2924 C2923 1.397 . S
C2924 C2925 1.334 . S
C2925 H2902 0.950 . S
C2925 C2924 1.334 . S
C2925 C2926 1.287 . S
C2926 C2925 1.287 . S
C2926 C2927 1.524 . S
C2926 H2945 0.913 . S
C2927 H2903 0.950 . S
C2927 C2926 1.524 . S
C2927 C2928 1.415 . S
C2928 H2904 0.950 . S
C2928 C2923 1.363 . S
C2928 C2927 1.415 . S
C2929 H2905 0.951 . S
C2929 C2930 1.366 . S
C2929 C2931 1.388 . S
C2930 C2929 1.366 . S
C2930 C2934 1.385 . S
C2931 H2906 0.951 . S
C2931 C2929 1.388 . S
C2931 C2932 1.366 . S
C2932 C2931 1.366 . S
C2932 C2933 1.414 . S
C2932 C2935 1.499 . S
C2933 H2907 0.950 . S
C2933 C2932 1.414 . S
C2933 C2934 1.374 . S
C2934 H2908 0.950 . S
C2934 C2930 1.385 . S
C2934 C2933 1.374 . S
C2935 C2932 1.499 . S
C2935 C2936 1.373 . S
C2935 C2937 1.389 . S
C2936 H2909 0.950 . S
C2936 C2922 1.377 . S
C2936 C2935 1.373 . S
C2937 C2921 1.377 . S
C2937 C2935 1.389 . S
C2937 C2938 1.524 . S
C2938 C2937 1.524 . S
C2938 C2939 1.397 . S
C2938 C2943 1.363 . S
C2939 H2910 0.950 . S
C2939 C2938 1.397 . S
C2939 C2940 1.334 . S
C2940 H2911 0.950 . S
C2940 C2939 1.334 . S
C2940 C2941 1.287 . S
C2941 C2940 1.287 . S
C2941 C2942 1.524 . S
C2941 H2944 0.999 . S
C2942 H2912 0.950 . S
C2942 C2941 1.524 . S
C2942 C2943 1.415 . S
C2943 H2913 0.950 . S
C2943 C2938 1.363 . S
C2943 C2942 1.415 . S
H2944 C2941 0.999 . S
H2945 C2926 0.913 . S
H2946 C2964 0.951 . S
H2947 C2966 0.951 . S
H2948 C2968 0.950 . S
H2949 C2969 0.950 . S
H2950 C2971 0.950 . S
H2951 C2974 0.950 . S
H2952 C2975 0.950 . S
H2953 C2977 0.950 . S
H2954 C2978 0.950 . S
H2955 C2979 0.951 . S
H2956 C2981 0.951 . S
H2957 C2983 0.950 . S
H2958 C2984 0.950 . S
H2959 C2986 0.950 . S
H2960 C2989 0.950 . S
H2961 C2990 0.950 . S
H2962 C2992 0.950 . S
H2963 C2993 0.950 . S
C2964 H2946 0.951 . S
C2964 C2965 1.366 . S
C2964 C2966 1.388 . S
C2965 C2964 1.366 . S
C2965 C2969 1.385 . S
C2966 H2947 0.951 . S
C2966 C2964 1.388 . S
C2966 C2967 1.366 . S
C2967 C2966 1.366 . S
C2967 C2968 1.414 . S
C2967 C2970 1.499 . S
C2968 H2948 0.950 . S
C2968 C2967 1.414 . S
C2968 C2969 1.374 . S
C2969 H2949 0.950 . S
C2969 C2965 1.385 . S
C2969 C2968 1.374 . S
C2970 C2967 1.499 . S
C2970 C2971 1.373 . S
C2970 C2972 1.389 . S
C2971 H2950 0.950 . S
C2971 C2970 1.373 . S
C2971 C2987 1.377 . S
C2972 C2970 1.389 . S
C2972 C2973 1.524 . S
C2972 C2986 1.377 . S
C2973 C2972 1.524 . S
C2973 C2974 1.397 . S
C2973 C2978 1.363 . S
C2974 H2951 0.950 . S
C2974 C2973 1.397 . S
C2974 C2975 1.334 . S
C2975 H2952 0.950 . S
C2975 C2974 1.334 . S
C2975 C2976 1.287 . S
C2976 C2975 1.287 . S
C2976 C2977 1.524 . S
C2976 H2995 0.913 . S
C2977 H2953 0.950 . S
C2977 C2976 1.524 . S
C2977 C2978 1.415 . S
C2978 H2954 0.950 . S
C2978 C2973 1.363 . S
C2978 C2977 1.415 . S
C2979 H2955 0.951 . S
C2979 C2980 1.366 . S
C2979 C2981 1.388 . S
C2980 C2979 1.366 . S
C2980 C2984 1.385 . S
C2981 H2956 0.951 . S
C2981 C2979 1.388 . S
C2981 C2982 1.366 . S
C2982 C2981 1.366 . S
C2982 C2983 1.414 . S
C2982 C2985 1.499 . S
C2983 H2957 0.950 . S
C2983 C2982 1.414 . S
C2983 C2984 1.374 . S
C2984 H2958 0.950 . S
C2984 C2980 1.385 . S
C2984 C2983 1.374 . S
C2985 C2982 1.499 . S
C2985 C2986 1.373 . S
C2985 C2987 1.389 . S
C2986 H2959 0.950 . S
C2986 C2972 1.377 . S
C2986 C2985 1.373 . S
C2987 C2971 1.377 . S
C2987 C2985 1.389 . S
C2987 C2988 1.524 . S
C2988 C2987 1.524 . S
C2988 C2989 1.397 . S
C2988 C2993 1.363 . S
C2989 H2960 0.950 . S
C2989 C2988 1.397 . S
C2989 C2990 1.334 . S
C2990 H2961 0.950 . S
C2990 C2989 1.334 . S
C2990 C2991 1.287 . S
C2991 C2990 1.287 . S
C2991 C2992 1.524 . S
C2991 H2994 0.999 . S
C2992 H2962 0.950 . S
C2992 C2991 1.524 . S
C2992 C2993 1.415 . S
C2993 H2963 0.950 . S
C2993 C2988 1.363 . S
C2993 C2992 1.415 . S
H2994 C2991 0.999 . S
H2995 C2976 0.913 . S
C630 C283 1.408 . S
C615 N2 1.391 . S
C680 C326 2.775 . S
C665 C7 2.801 . S
C730 C372 1.679 . S
C715 N12 1.587 . S
C765 C16 1.881 . S
C780 C415 1.906 . S
C830 C455 2.856 . S
C815 C30 2.868 1_565 S
C880 C483 1.481 . S
C865 N35 1.443 . S
C915 C39 2.043 . S
C930 C526 2.002 . S
C980 C572 1.266 . S
C965 N25 1.200 . S
C1030 C278 1.148 . S
C1015 N58 1.115 . S
C1065 N81 1.854 . S
C1080 C327 1.860 . S
C1130 C366 1.377 . S
C1115 N104 1.355 . S
C1165 N127 1.056 . S
C1180 C403 1.057 . S
C1230 C443 0.677 . S
C1215 N48 0.671 . S
C1280 C478 1.584 . S
C1265 N71 1.550 1_556 S
C1315 N94 1.084 . S
C1330 C527 1.071 . S
C1380 C566 1.970 . S
C1365 N117 1.976 . S
C1415 C85 2.514 . S
C1430 C295 2.467 . S
C1465 C122 2.345 . S
C1480 C438 2.318 . S
C1515 C53 1.997 . S
C1530 C495 1.946 . S
C1580 C532 1.308 . S
C1565 C76 1.337 1_655 S
C1630 C567 1.736 . S
C1615 C99 1.743 . S
C1680 C367 1.992 . S
C1665 C131 1.983 . S
C1730 C398 1.460 . S
C1715 C62 1.477 1_565 S
C1765 C108 0.952 . S
C1780 C332 0.940 . S
C1830 C563 1.469 . S
C1815 N140 1.455 . S
C1865 C145 2.797 . S
C1880 C446 2.769 . S
C1930 C492 1.576 . S
C1915 N150 1.486 . S
C1965 C154 1.888 . S
C1980 C535 1.912 . S
C2030 C335 2.858 . S
C2015 C168 2.872 . S
C2065 N173 1.334 . S
C2080 C363 1.372 . S
C2130 C406 2.004 . S
C2115 C177 2.048 . S
C2180 C292 1.335 . S
C2165 N163 1.260 . S
C2230 C558 1.608 . S
C2215 C200 1.602 . S
C2280 C447 2.157 . S
C2265 N219 2.150 . S
C2315 N242 1.598 . S
C2330 C486 1.628 . S
C2380 C523 1.304 . S
C2365 C269 1.350 . S
C2430 C323 0.957 . S
C2415 C191 0.975 . S
C2465 N209 1.799 . S
C2480 C358 1.838 . S
C2515 N232 1.395 . S
C2530 C407 1.384 . S
C2565 C260 2.517 . S
C2580 C286 2.474 . S
C2615 C223 2.223 . S
C2630 C575 2.181 . S
C2665 N255 1.883 . S
C2680 C318 1.905 . S
C2715 N186 1.481 . S
C2730 C375 1.481 . S
C2780 C412 1.007 . S
C2765 C214 1.026 . S
C2830 C287 1.425 . S
C2815 C237 1.426 . S
C2880 C487 1.562 . S
C2865 N265 1.505 . S
C2930 C518 1.101 . S
C2915 N196 1.099 . S
C2980 C452 0.652 . S
C2965 C246 0.647 . S
