# Generated by pormake.
# Topology gar, (4,6)-cn, num edge types: 1
# Building blocks:
#     Node 0, Type 0, BuildingBlock: NAHDIM_clean_sbu_0, # of connection points: 4
#     Node 1, Type 0, BuildingBlock: NAHDIM_clean_sbu_0, # of connection points: 4
#     Node 2, Type 0, BuildingBlock: NAHDIM_clean_sbu_0, # of connection points: 4
#     Node 3, Type 0, BuildingBlock: NAHDIM_clean_sbu_0, # of connection points: 4
#     Node 4, Type 0, BuildingBlock: NAHDIM_clean_sbu_0, # of connection points: 4
#     Node 5, Type 0, BuildingBlock: NAHDIM_clean_sbu_0, # of connection points: 4
#     Node 6, Type 0, BuildingBlock: NAHDIM_clean_sbu_0, # of connection points: 4
#     Node 7, Type 0, BuildingBlock: NAHDIM_clean_sbu_0, # of connection points: 4
#     Node 8, Type 0, BuildingBlock: NAHDIM_clean_sbu_0, # of connection points: 4
#     Node 9, Type 0, BuildingBlock: NAHDIM_clean_sbu_0, # of connection points: 4
#     Node 10, Type 0, BuildingBlock: NAHDIM_clean_sbu_0, # of connection points: 4
#     Node 11, Type 0, BuildingBlock: NAHDIM_clean_sbu_0, # of connection points: 4
#     Node 12, Type 0, BuildingBlock: NAHDIM_clean_sbu_0, # of connection points: 4
#     Node 13, Type 0, BuildingBlock: NAHDIM_clean_sbu_0, # of connection points: 4
#     Node 14, Type 0, BuildingBlock: NAHDIM_clean_sbu_0, # of connection points: 4
#     Node 15, Type 0, BuildingBlock: NAHDIM_clean_sbu_0, # of connection points: 4
#     Node 16, Type 0, BuildingBlock: NAHDIM_clean_sbu_0, # of connection points: 4
#     Node 17, Type 0, BuildingBlock: NAHDIM_clean_sbu_0, # of connection points: 4
#     Node 18, Type 0, BuildingBlock: NAHDIM_clean_sbu_0, # of connection points: 4
#     Node 19, Type 0, BuildingBlock: NAHDIM_clean_sbu_0, # of connection points: 4
#     Node 20, Type 0, BuildingBlock: NAHDIM_clean_sbu_0, # of connection points: 4
#     Node 21, Type 0, BuildingBlock: NAHDIM_clean_sbu_0, # of connection points: 4
#     Node 22, Type 0, BuildingBlock: NAHDIM_clean_sbu_0, # of connection points: 4
#     Node 23, Type 0, BuildingBlock: NAHDIM_clean_sbu_0, # of connection points: 4
#     Node 24, Type 1, BuildingBlock: BETDAH_clean_sbu_0, # of connection points: 6
#     Node 25, Type 1, BuildingBlock: BETDAH_clean_sbu_0, # of connection points: 6
#     Node 26, Type 1, BuildingBlock: BETDAH_clean_sbu_0, # of connection points: 6
#     Node 27, Type 1, BuildingBlock: BETDAH_clean_sbu_0, # of connection points: 6
#     Node 28, Type 1, BuildingBlock: BETDAH_clean_sbu_0, # of connection points: 6
#     Node 29, Type 1, BuildingBlock: BETDAH_clean_sbu_0, # of connection points: 6
#     Node 30, Type 1, BuildingBlock: BETDAH_clean_sbu_0, # of connection points: 6
#     Node 31, Type 1, BuildingBlock: BETDAH_clean_sbu_0, # of connection points: 6
#     Node 32, Type 1, BuildingBlock: BETDAH_clean_sbu_0, # of connection points: 6
#     Node 33, Type 1, BuildingBlock: BETDAH_clean_sbu_0, # of connection points: 6
#     Node 34, Type 1, BuildingBlock: BETDAH_clean_sbu_0, # of connection points: 6
#     Node 35, Type 1, BuildingBlock: BETDAH_clean_sbu_0, # of connection points: 6
#     Node 36, Type 1, BuildingBlock: BETDAH_clean_sbu_0, # of connection points: 6
#     Node 37, Type 1, BuildingBlock: BETDAH_clean_sbu_0, # of connection points: 6
#     Node 38, Type 1, BuildingBlock: BETDAH_clean_sbu_0, # of connection points: 6
#     Node 39, Type 1, BuildingBlock: BETDAH_clean_sbu_0, # of connection points: 6
#     Edge 40, Type (0, 1), None
#     Edge 41, Type (0, 1), None
#     Edge 42, Type (0, 1), None
#     Edge 43, Type (0, 1), None
#     Edge 44, Type (0, 1), None
#     Edge 45, Type (0, 1), None
#     Edge 46, Type (0, 1), None
#     Edge 47, Type (0, 1), None
#     Edge 48, Type (0, 1), None
#     Edge 49, Type (0, 1), None
#     Edge 50, Type (0, 1), None
#     Edge 51, Type (0, 1), None
#     Edge 52, Type (0, 1), None
#     Edge 53, Type (0, 1), None
#     Edge 54, Type (0, 1), None
#     Edge 55, Type (0, 1), None
#     Edge 56, Type (0, 1), None
#     Edge 57, Type (0, 1), None
#     Edge 58, Type (0, 1), None
#     Edge 59, Type (0, 1), None
#     Edge 60, Type (0, 1), None
#     Edge 61, Type (0, 1), None
#     Edge 62, Type (0, 1), None
#     Edge 63, Type (0, 1), None
#     Edge 64, Type (0, 1), None
#     Edge 65, Type (0, 1), None
#     Edge 66, Type (0, 1), None
#     Edge 67, Type (0, 1), None
#     Edge 68, Type (0, 1), None
#     Edge 69, Type (0, 1), None
#     Edge 70, Type (0, 1), None
#     Edge 71, Type (0, 1), None
#     Edge 72, Type (0, 1), None
#     Edge 73, Type (0, 1), None
#     Edge 74, Type (0, 1), None
#     Edge 75, Type (0, 1), None
#     Edge 76, Type (0, 1), None
#     Edge 77, Type (0, 1), None
#     Edge 78, Type (0, 1), None
#     Edge 79, Type (0, 1), None
#     Edge 80, Type (0, 1), None
#     Edge 81, Type (0, 1), None
#     Edge 82, Type (0, 1), None
#     Edge 83, Type (0, 1), None
#     Edge 84, Type (0, 1), None
#     Edge 85, Type (0, 1), None
#     Edge 86, Type (0, 1), None
#     Edge 87, Type (0, 1), None
#     Edge 88, Type (0, 1), None
#     Edge 89, Type (0, 1), None
#     Edge 90, Type (0, 1), None
#     Edge 91, Type (0, 1), None
#     Edge 92, Type (0, 1), None
#     Edge 93, Type (0, 1), None
#     Edge 94, Type (0, 1), None
#     Edge 95, Type (0, 1), None
#     Edge 96, Type (0, 1), None
#     Edge 97, Type (0, 1), None
#     Edge 98, Type (0, 1), None
#     Edge 99, Type (0, 1), None
#     Edge 100, Type (0, 1), None
#     Edge 101, Type (0, 1), None
#     Edge 102, Type (0, 1), None
#     Edge 103, Type (0, 1), None
#     Edge 104, Type (0, 1), None
#     Edge 105, Type (0, 1), None
#     Edge 106, Type (0, 1), None
#     Edge 107, Type (0, 1), None
#     Edge 108, Type (0, 1), None
#     Edge 109, Type (0, 1), None
#     Edge 110, Type (0, 1), None
#     Edge 111, Type (0, 1), None
#     Edge 112, Type (0, 1), None
#     Edge 113, Type (0, 1), None
#     Edge 114, Type (0, 1), None
#     Edge 115, Type (0, 1), None
#     Edge 116, Type (0, 1), None
#     Edge 117, Type (0, 1), None
#     Edge 118, Type (0, 1), None
#     Edge 119, Type (0, 1), None
#     Edge 120, Type (0, 1), None
#     Edge 121, Type (0, 1), None
#     Edge 122, Type (0, 1), None
#     Edge 123, Type (0, 1), None
#     Edge 124, Type (0, 1), None
#     Edge 125, Type (0, 1), None
#     Edge 126, Type (0, 1), None
#     Edge 127, Type (0, 1), None
#     Edge 128, Type (0, 1), None
#     Edge 129, Type (0, 1), None
#     Edge 130, Type (0, 1), None
#     Edge 131, Type (0, 1), None
#     Edge 132, Type (0, 1), None
#     Edge 133, Type (0, 1), None
#     Edge 134, Type (0, 1), None
#     Edge 135, Type (0, 1), None
# Relax obj value: 0.437
# Max RMSD: 0.437
# Mean RMSD: 0.237
data_MOF--net-gar--node1-NAHDIM_clean_sbu_0--node2-BETDAH_clean_sbu_0--edge1-none
_symmetry_space_group_name_H-M    P1
_symmetry_Int_Tables_number       1
_symmetry_cell_setting            triclinic
loop_
_symmetry_equiv_pos_as_xyz
'x, y, z'
_cell_length_a     32.950713
_cell_length_b     26.331739
_cell_length_c     26.084271
_cell_angle_alpha  102.84429
_cell_angle_beta   96.602494
_cell_angle_gamma 104.56769
loop_
_atom_site_label
_atom_site_type_symbol
_atom_site_fract_x
_atom_site_fract_y
_atom_site_fract_z
_atom_type_partial_charge
C0 C 0.28729 0.40901 0.30809 0.0
O1 O 0.24905 0.37683 0.28546 0.0
O2 O 0.22431 0.39253 0.4271 0.0
Zn3 Zn 0.23669 0.44618 0.38169 0.0
O4 O 0.2329 0.51687 0.43074 0.0
C5 C 0.15396 0.38984 0.31818 0.0
O6 O 0.1537 0.35672 0.34919 0.0
O7 O 0.29145 0.44517 0.35159 0.0
C8 C 0.1957 0.52253 0.43337 0.0
O9 O 0.16281 0.48856 0.39908 0.0
C10 C 0.22657 0.40928 0.47743 0.0
O11 O 0.24295 0.46116 0.50136 0.0
O12 O 0.18827 0.426 0.32028 0.0
C13 C 1.01386 0.81289 0.77284 0.0
O14 O 0.04987 0.84796 0.79977 0.0
O15 O 0.09001 0.71694 0.68141 0.0
Zn16 Zn 0.07256 0.78587 0.70611 0.0
O17 O 0.07878 0.82749 0.64885 0.0
C18 C 0.12904 0.79196 0.79342 0.0
O19 O 0.09711 0.75225 0.7972 0.0
O20 O 1.01461 0.77885 0.73004 0.0
C21 C 0.1128 0.83245 0.62921 0.0
O22 O 0.14251 0.81286 0.64794 0.0
C23 C 0.08914 0.69761 0.63225 0.0
O24 O 0.06632 0.71276 0.59698 0.0
O25 O 0.12102 0.82411 0.76644 0.0
C26 C 0.7853 0.90762 0.80542 0.0
O27 O 0.74715 0.87487 0.78336 0.0
O28 O 0.72349 0.89166 0.92589 0.0
Zn29 Zn 0.73542 0.94449 0.87948 0.0
O30 O 0.73246 1.01602 0.92714 0.0
C31 C 0.65252 0.88758 0.8167 0.0
O32 O 0.65232 0.855 0.84827 0.0
O33 O 0.78964 0.94373 0.84895 0.0
C34 C 0.69552 1.02279 0.92889 0.0
O35 O 0.66253 0.98876 0.8948 0.0
C36 C 0.72529 0.90888 0.97608 0.0
O37 O 0.74079 0.961 0.99941 0.0
O38 O 0.68683 0.92346 0.81825 0.0
C39 C 0.51421 0.31019 0.27144 0.0
O40 O 0.55031 0.34436 0.29922 0.0
O41 O 0.59065 0.21604 0.17783 0.0
Zn42 Zn 0.57303 0.2847 0.204 0.0
O43 O 0.57945 0.3274 0.14774 0.0
C44 C 0.6294 0.29008 0.29137 0.0
O45 O 0.59755 0.24988 0.29446 0.0
O46 O 0.51494 0.27733 0.22781 0.0
C47 C 0.61369 0.33278 0.12857 0.0
O48 O 0.6433 0.31304 0.14731 0.0
C49 C 0.58968 0.19773 0.12842 0.0
O50 O 0.56675 0.21364 0.09393 0.0
O51 O 0.62141 0.32238 0.26458 0.0
C52 C 0.13575 0.87707 0.15567 0.0
O53 O 0.12626 0.87401 0.10465 0.0
O54 O 0.19556 0.81915 0.08058 0.0
Zn55 Zn 0.21846 0.89789 0.13021 0.0
O56 O 0.20867 0.96519 0.10138 0.0
C57 C 0.31461 0.90387 0.18213 0.0
O58 O 0.32804 0.89137 0.1368 0.0
O59 O 0.17464 0.88911 0.17778 0.0
C60 C 0.18179 0.96294 0.06047 0.0
O61 O 0.16177 0.9153 0.02742 0.0
C62 C 0.21173 0.78199 0.08977 0.0
O63 O 0.24811 0.79587 0.12291 0.0
O64 O 0.27655 0.90834 0.18201 0.0
C65 C 0.65358 0.83403 0.41893 0.0
O66 O 0.66178 0.837 0.47008 0.0
O67 O 0.57992 0.74788 0.47209 0.0
Zn68 Zn 0.5715 0.81638 0.44367 0.0
O69 O 0.59667 0.89475 0.49433 0.0
C70 C 0.47634 0.81585 0.3907 0.0
O71 O 0.4621 0.82855 0.43539 0.0
O72 O 0.61511 0.82317 0.39582 0.0
C73 C 0.58408 0.93367 0.48273 0.0
O74 O 0.55019 0.92213 0.44578 0.0
C75 C 0.60601 0.74985 0.5137 0.0
O76 O 0.62539 0.79737 0.54732 0.0
O77 O 0.51399 0.80958 0.39195 0.0
C78 C 0.63884 0.3792 0.66276 0.0
O79 O 0.63022 0.376 0.6116 0.0
O80 O 0.69767 0.31766 0.59019 0.0
Zn81 Zn 0.72068 0.39848 0.63758 0.0
O82 O 0.70952 0.46467 0.60597 0.0
C83 C 0.81432 0.39864 0.68109 0.0
O84 O 0.81703 0.37449 0.63235 0.0
O85 O 0.67747 0.3911 0.68576 0.0
C86 C 0.68318 0.46235 0.56435 0.0
O87 O 0.6635 0.41461 0.53127 0.0
C88 C 0.70783 0.27982 0.60762 0.0
O89 O 0.73812 0.29316 0.6496 0.0
O90 O 0.78037 0.41258 0.6891 0.0
C91 C 0.155 0.33405 0.91791 0.0
O92 O 0.16274 0.33754 0.96922 0.0
O93 O 0.08109 0.24995 0.97105 0.0
Zn94 Zn 0.07239 0.3171 0.9405 0.0
O95 O 0.09924 0.39649 0.99065 0.0
C96 C 0.97664 0.31217 0.88993 0.0
O97 O 0.96763 0.32688 0.93775 0.0
O98 O 0.1167 0.32287 0.89401 0.0
C99 C 0.0854 0.43589 0.98302 0.0
O100 O 0.04882 0.42474 0.95098 0.0
C101 C 0.10668 0.25198 0.01315 0.0
O102 O 0.126 0.29948 0.04687 0.0
O103 O 1.01386 0.30602 0.88576 0.0
C104 C 0.48543 0.14455 0.28187 0.0
O105 O 0.5104 0.12706 0.25086 0.0
O106 O 0.53388 0.05278 0.29168 0.0
Zn107 Zn 0.52271 0.10017 0.35543 0.0
O108 O 0.57844 0.13878 0.4019 0.0
C109 C 0.47808 1.00258 0.37461 0.0
O110 O 0.5132 0.98928 0.36819 0.0
O111 O 0.49268 0.1481 0.33148 0.0
C112 C 0.58803 0.11197 0.43345 0.0
O113 O 0.55953 0.07027 0.43898 0.0
C114 C 0.56177 1.02723 0.29119 0.0
O115 O 0.58646 1.03084 0.33585 0.0
O116 O 0.47858 0.05196 0.38327 0.0
C117 C 0.41978 0.24075 0.52171 0.0
O118 O 0.43141 0.2937 0.54159 0.0
O119 O 0.36358 0.30065 0.59036 0.0
Zn120 Zn 0.34488 0.26559 0.50857 0.0
O121 O 0.37106 0.31725 0.4617 0.0
C122 C 0.26217 0.19674 0.52305 0.0
O123 O 0.28233 0.21326 0.57281 0.0
O124 O 0.38104 0.2158 0.50127 0.0
C125 C 0.36768 0.30107 0.41095 0.0
O126 O 0.34088 0.25363 0.38565 0.0
C127 C 0.34638 0.3243 0.62607 0.0
O128 O 0.30963 0.33301 0.61221 0.0
O129 O 0.28089 0.21467 0.48741 0.0
C130 C 0.30452 0.96101 0.76886 0.0
O131 O 0.26543 0.93087 0.74752 0.0
O132 O 0.2259 0.06933 0.71275 0.0
Zn133 Zn 0.2665 0.07856 0.79472 0.0
O134 O 0.22243 0.07541 0.86476 0.0
C135 C 0.31698 0.21233 0.8058 0.0
O136 O 0.28294 0.22882 0.81132 0.0
O137 O 0.30956 1.01383 0.78792 0.0
C138 C 0.21576 0.10718 0.90847 0.0
O139 O 0.23929 0.15804 0.92276 0.0
C140 C 0.20743 0.10431 0.69969 0.0
O141 O 0.20958 0.14723 0.73801 0.0
O142 O 0.3143 0.16107 0.80204 0.0
C143 C 0.36796 0.07981 1.01214 0.0
O144 O 0.35594 1.02677 1.0048 0.0
O145 O 0.43139 1.00181 0.02928 0.0
Zn146 Zn 0.42881 0.04378 0.97513 0.0
O147 O 0.39218 0.98538 0.91479 0.0
C148 C 0.51345 0.0722 1.00432 0.0
O149 O 0.50166 0.07726 0.05114 0.0
O150 O 0.40318 0.10209 1.0007 0.0
C151 C 0.41397 0.95913 0.88917 0.0
O152 O 0.45439 0.982 0.89084 0.0
C153 C 0.45069 0.96534 0.02251 0.0
O154 O 0.46798 0.95522 0.98004 0.0
O155 O 0.48777 0.07018 0.96358 0.0
C156 C 0.38032 0.48331 0.06845 0.0
O157 O 0.36628 0.4308 0.06265 0.0
O158 O 0.44315 0.42574 0.14688 0.0
Zn159 Zn 0.45746 0.45836 0.08011 0.0
O160 O 0.43316 0.41335 0.99963 0.0
C161 C 0.53833 0.52345 0.05389 0.0
O162 O 0.51983 0.4982 1.0043 0.0
O163 O 0.42015 0.50684 0.08007 0.0
C164 C 0.44967 0.38964 0.96281 0.0
O165 O 0.48752 0.38333 0.9753 0.0
C166 C 0.41223 0.38411 0.14491 0.0
O167 O 0.39094 0.35375 0.09781 0.0
O168 O 0.51943 0.51195 0.09187 0.0
C169 C 0.9204 0.13531 0.06947 0.0
O170 O 0.9317 0.18817 0.07549 0.0
O171 O 0.87454 0.23453 0.13757 0.0
Zn172 Zn 0.84923 0.16497 0.0817 0.0
O173 O 0.84817 0.18774 0.01551 0.0
C174 C 0.77032 0.16713 0.11339 0.0
O175 O 0.79122 0.21721 0.13839 0.0
O176 O 0.88316 0.11216 0.07503 0.0
C177 C 0.8133 0.17876 0.98462 0.0
O178 O 0.77864 0.14477 0.99033 0.0
C179 C 0.86953 0.27969 0.13203 0.0
O180 O 0.85027 0.28332 0.08665 0.0
O181 O 0.78957 0.13509 0.09008 0.0
C182 C 0.34068 0.58892 0.27338 0.0
O183 O 0.33138 0.63111 0.30125 0.0
O184 O 0.23171 0.57817 0.15091 0.0
Zn185 Zn 0.27817 0.60315 0.21341 0.0
O186 O 0.24798 0.61671 0.27429 0.0
C187 C 0.33068 0.70534 0.18981 0.0
O188 O 0.32286 0.69027 0.13737 0.0
O189 O 0.3174 0.56143 0.22843 0.0
C190 C 0.25133 0.66513 0.29984 0.0
O191 O 0.2784 0.70659 0.29098 0.0
C192 C 0.21266 0.61496 0.1569 0.0
O193 O 0.23066 0.66227 0.19107 0.0
O194 O 0.31536 0.67389 0.21687 0.0
C195 C 0.8803 0.98167 0.56891 0.0
O196 O 0.86674 0.9288 0.56069 0.0
O197 O 0.94307 0.92481 0.64626 0.0
Zn198 Zn 0.95754 0.95772 0.57987 0.0
O199 O 0.9332 0.91326 0.49933 0.0
C200 C 1.03811 1.02339 0.55389 0.0
O201 O 1.01967 0.99802 0.5043 0.0
O202 O 0.92001 1.00581 0.58089 0.0
C203 C 0.94954 0.88946 0.4624 0.0
O204 O 0.98733 0.88289 0.47471 0.0
C205 C 0.91192 0.88338 0.64407 0.0
O206 O 0.89086 0.85292 0.5969 0.0
O207 O 1.0193 1.01174 0.59186 0.0
C208 C 0.98522 0.24789 0.28403 0.0
O209 O 1.02395 0.27571 0.28246 0.0
O210 O 0.06659 0.13725 0.2084 0.0
Zn211 Zn 1.0241 0.13363 0.27883 0.0
O212 O 0.06652 0.14619 0.3603 0.0
C213 C 0.97583 1.00061 0.27426 0.0
O214 O 1.00962 0.98401 0.26721 0.0
O215 O 0.9799 0.19609 0.28299 0.0
C216 C 0.08575 0.11194 0.37346 0.0
O217 O 0.08315 0.06845 0.3356 0.0
C218 C 0.07546 0.10501 0.16699 0.0
O219 O 0.05655 0.05273 0.15701 0.0
O220 O 0.97787 0.05138 0.27614 0.0
C221 C 0.42068 0.63352 0.56892 0.0
O222 O 0.43202 0.68632 0.57451 0.0
O223 O 0.37456 0.73342 0.63487 0.0
Zn224 Zn 0.34947 0.66323 0.57867 0.0
O225 O 0.34879 0.68438 0.51164 0.0
C226 C 0.2715 0.66448 0.61231 0.0
O227 O 0.29383 0.71166 0.64297 0.0
O228 O 0.38323 0.61044 0.57382 0.0
C229 C 0.31431 0.6741 0.4794 0.0
O230 O 0.27958 0.64 0.48493 0.0
C231 C 0.36813 0.77817 0.63017 0.0
O232 O 0.34751 0.78128 0.58537 0.0
O233 O 0.28947 0.63342 0.58498 0.0
C234 C 0.4845 0.74706 0.78316 0.0
O235 O 0.523 0.77476 0.78059 0.0
O236 O 0.56682 0.63702 0.70876 0.0
Zn237 Zn 0.5242 0.6335 0.77895 0.0
O238 O 0.56656 0.64617 0.86046 0.0
C239 C 0.47659 0.50046 0.77416 0.0
O240 O 0.51048 0.4841 0.76709 0.0
O241 O 0.47952 0.6955 0.78292 0.0
C242 C 0.5859 0.612 0.87358 0.0
O243 O 0.58342 0.5686 0.83568 0.0
C244 C 0.5759 0.60453 0.66774 0.0
O245 O 0.55719 0.55225 0.65824 0.0
O246 O 0.4784 0.55116 0.77613 0.0
C247 C 0.85149 0.11823 0.77846 0.0
O248 O 0.8499 0.1672 0.80129 0.0
O249 O 0.72603 0.07516 0.67655 0.0
Zn250 Zn 0.78302 0.12473 0.71451 0.0
O251 O 0.76811 0.16749 0.77739 0.0
C252 C 0.83494 0.20685 0.66177 0.0
O253 O 0.84219 0.2105 0.61404 0.0
O254 O 0.82308 0.08816 0.73893 0.0
C255 C 0.74673 0.20152 0.78108 0.0
O256 O 0.74236 0.2269 0.74377 0.0
C257 C 0.70728 0.10659 0.66007 0.0
O258 O 0.72936 0.15507 0.65976 0.0
O259 O 0.8096 0.16333 0.66488 0.0
C260 C 0.92001 0.74297 0.02368 0.0
O261 O 0.93108 0.79572 0.04472 0.0
O262 O 0.86301 0.80195 0.09043 0.0
Zn263 Zn 0.84487 0.76689 1.00861 0.0
O264 O 0.87084 0.81877 0.9617 0.0
C265 C 0.76246 0.69734 0.02301 0.0
O266 O 0.7827 0.71384 0.07273 0.0
O267 O 0.88162 0.71776 1.00166 0.0
C268 C 0.86684 0.80308 0.91082 0.0
O269 O 0.83963 0.75595 0.88545 0.0
C270 C 0.84564 0.82517 0.1262 0.0
O271 O 0.80872 0.83348 0.11242 0.0
O272 O 0.78105 0.71544 0.98735 0.0
C273 C 0.97739 0.63114 0.78174 0.0
O274 O 1.00467 0.61738 0.75247 0.0
O275 O 1.02731 0.54035 0.7942 0.0
Zn276 Zn 1.01515 0.58773 0.85731 0.0
O277 O 0.07139 0.63303 0.89918 0.0
C278 C 0.97095 0.49214 0.88452 0.0
O279 O 1.00493 0.47543 0.88032 0.0
O280 O 0.98162 0.63045 0.83041 0.0
C281 C 0.0864 0.60483 0.92512 0.0
O282 O 0.06151 0.56042 0.93107 0.0
C283 C 0.05454 0.51371 0.79319 0.0
O284 O 0.07564 0.5109 0.83769 0.0
O285 O 0.97427 0.54225 0.89177 0.0
C286 C 0.86771 0.57948 0.51187 0.0
O287 O 0.85487 0.52632 0.50323 0.0
O288 O 0.92855 0.49938 0.53209 0.0
Zn289 Zn 0.92909 0.5424 0.47808 0.0
O290 O 0.89342 0.48553 0.41596 0.0
C291 C 1.01399 0.56663 0.50838 0.0
O292 O 1.00172 0.569 0.55474 0.0
O293 O 0.90382 0.60155 0.50248 0.0
C294 C 0.91535 0.45896 0.39104 0.0
O295 O 0.9563 0.48063 0.39508 0.0
C296 C 0.94569 0.46075 0.526 0.0
O297 O 0.96261 0.44826 0.48359 0.0
O298 O 0.98892 0.56796 0.46859 0.0
C299 C 0.80506 0.46141 0.26926 0.0
O300 O 0.76606 0.43117 0.24757 0.0
O301 O 0.72604 0.56935 0.21298 0.0
Zn302 Zn 0.76667 0.57861 0.29504 0.0
O303 O 0.72267 0.57483 0.36521 0.0
C304 C 0.81695 0.71257 0.30597 0.0
O305 O 0.7829 0.72901 0.31158 0.0
O306 O 0.80994 0.51418 0.2884 0.0
C307 C 0.71576 0.60642 0.40887 0.0
O308 O 0.73878 0.65751 0.42292 0.0
C309 C 0.70763 0.60436 0.19984 0.0
O310 O 0.70979 0.64731 0.23813 0.0
O311 O 0.81432 0.66132 0.30225 0.0
Ho312 Ho 0.11319 0.07398 1.0 0.0
Ho313 Ho 0.17567 0.14133 0.07414 0.0
C314 C 0.11891 0.20299 0.02262 0.0
C315 C 1.03288 1.02852 0.96843 0.0
C316 C 1.00288 0.05168 0.99688 0.0
C317 C 1.01878 0.10417 0.03122 0.0
C318 C 0.99213 0.13034 0.05633 0.0
C319 C 0.94879 0.1037 0.0494 0.0
C320 C 0.93313 0.04887 0.01972 0.0
C321 C 0.96041 1.02263 0.99424 0.0
C322 C 0.18223 0.09119 0.94579 0.0
C323 C 0.16947 1.01194 0.05136 0.0
C324 C 0.25544 0.18903 0.10706 0.0
C325 C 0.28574 0.16566 0.07994 0.0
C326 C 0.27002 0.1124 0.04755 0.0
C327 C 0.29686 0.08496 0.02539 0.0
C328 C 0.34009 0.11161 0.03213 0.0
C329 C 0.35547 0.16746 0.05802 0.0
C330 C 0.32803 0.19473 0.08152 0.0
C331 C 0.10688 0.12231 0.12807 0.0
O332 O 0.10262 0.1544 0.98911 0.0
O333 O 0.1482 0.20908 0.06388 0.0
O334 O 0.05537 0.05962 0.94298 0.0
O335 O 0.05671 1.00912 0.99755 0.0
O336 O 0.15166 0.04579 0.93578 0.0
O337 O 0.17287 0.12562 0.98338 0.0
O338 O 0.18596 0.06057 0.08492 0.0
O339 O 0.13997 1.0058 1.0103 0.0
O340 O 0.23296 0.15845 0.133 0.0
O341 O 0.23156 0.20685 0.07638 0.0
O342 O 0.1364 0.16854 0.13759 0.0
O343 O 0.11688 0.08853 0.09069 0.0
H344 H 0.05208 0.12521 0.03935 0.0
H345 H 1.00551 0.17181 0.08068 0.0
H346 H 0.89978 1.02697 0.01485 0.0
H347 H 0.94832 0.98026 0.97241 0.0
H348 H 0.2367 0.09191 0.03824 0.0
H349 H 0.28354 1.04288 1.00263 0.0
H350 H 0.38867 0.18935 0.06162 0.0
H351 H 0.33995 0.23768 0.10134 0.0
Ho352 Ho 0.4307 0.85785 0.25415 0.0
Ho353 Ho 0.36287 0.86356 0.31673 0.0
C354 C 0.44028 0.96305 0.3431 0.0
C355 C 0.48385 0.8724 0.19192 0.0
C356 C 0.47954 0.89941 0.15053 0.0
C357 C 0.45225 0.93268 0.15399 0.0
C358 C 0.44261 0.95384 0.11196 0.0
C359 C 0.45986 0.94145 0.06582 0.0
C360 C 0.48726 0.90804 0.06238 0.0
C361 C 0.49698 0.88679 0.10484 0.0
C362 C 0.45404 0.82111 0.33971 0.0
C363 C 0.35331 0.76033 0.21989 0.0
C364 C 0.31302 0.84504 0.38267 0.0
C365 C 0.31416 0.80501 0.41212 0.0
C366 C 0.34552 0.77794 0.40521 0.0
C367 C 0.34419 0.73311 0.42479 0.0
C368 C 0.31125 0.71473 0.45121 0.0
C369 C 0.28048 0.74269 0.4597 0.0
C370 C 0.28201 0.78816 0.44021 0.0
C371 C 0.3388 0.9006 0.23277 0.0
O372 O 0.44137 0.9455 0.29234 0.0
O373 O 0.41456 0.93374 0.36654 0.0
O374 O 0.4901 0.90414 0.24025 0.0
O375 O 0.45367 0.82674 0.18337 0.0
O376 O 0.47206 0.8203 0.29887 0.0
O377 O 0.42081 0.83658 0.33142 0.0
O378 O 0.34935 0.7765 0.27028 0.0
O379 O 0.38003 0.79101 0.19887 0.0
O380 O 0.30166 0.82318 0.33122 0.0
O381 O 0.34731 0.88652 0.39521 0.0
O382 O 0.32253 0.90394 0.27532 0.0
O383 O 0.37226 0.88484 0.23884 0.0
H384 H 0.43759 0.94138 0.18877 0.0
H385 H 0.42142 0.97945 0.11555 0.0
H386 H 0.50121 0.89843 0.02714 0.0
H387 H 0.51745 0.86026 0.10187 0.0
H388 H 0.37046 0.79069 0.38341 0.0
H389 H 0.36904 0.71312 0.41978 0.0
H390 H 0.25612 0.73022 0.48251 0.0
H391 H 0.25782 0.80912 0.44582 0.0
Ho392 Ho 0.68676 0.09706 0.52585 0.0
Ho393 Ho 0.60647 0.11459 0.5688 0.0
C394 C 0.60748 0.99174 0.50749 0.0
C395 C 0.76333 0.09625 0.51629 0.0
C396 C 0.79171 0.0644 0.52726 0.0
C397 C 0.77985 1.02376 0.55394 0.0
C398 C 0.80894 0.99663 0.56786 0.0
C399 C 0.85012 1.01092 0.55607 0.0
C400 C 0.86159 0.05118 0.52889 0.0
C401 C 0.83234 0.07764 0.51429 0.0
C402 C 0.63101 0.12243 0.45902 0.0
C403 C 0.68515 0.22114 0.58415 0.0
C404 C 0.53006 0.11773 0.5768 0.0
C405 C 0.50263 0.14999 0.56175 0.0
C406 C 0.49251 0.15172 0.50831 0.0
C407 C 0.46519 0.18129 0.49486 0.0
C408 C 0.44863 0.21017 0.53485 0.0
C409 C 0.4593 0.20954 0.58818 0.0
C410 C 0.48587 0.17915 0.60152 0.0
C411 C 0.66301 0.0895 0.63626 0.0
O412 O 0.64983 1.00872 0.51562 0.0
O413 O 0.58483 1.02669 0.51802 0.0
O414 O 0.7307 0.07206 0.47721 0.0
O415 O 0.75348 0.12381 0.55886 0.0
O416 O 0.65366 0.0903 0.44296 0.0
O417 O 0.64087 0.13983 0.50835 0.0
O418 O 0.64288 0.20316 0.57764 0.0
O419 O 0.70819 0.18667 0.57303 0.0
O420 O 0.56273 0.14332 0.61554 0.0
O421 O 0.53923 0.08476 0.53741 0.0
O422 O 0.63898 0.12 0.65164 0.0
O423 O 0.65264 0.07177 0.58685 0.0
H424 H 0.74848 1.01368 0.56451 0.0
H425 H 0.7996 0.96525 0.58847 0.0
H426 H 0.89291 0.06162 0.5183 0.0
H427 H 0.84162 0.109 0.49363 0.0
H428 H 0.50545 0.13017 0.47692 0.0
H429 H 0.45726 0.18196 0.45356 0.0
H430 H 0.44645 0.23181 0.61928 0.0
H431 H 0.49328 0.1783 0.64284 0.0
Ho432 Ho 0.3669 0.39082 0.80755 0.0
Ho433 Ho 0.42927 0.32381 0.78001 0.0
C434 C 0.42987 0.37668 0.90509 0.0
C435 C 0.29804 0.41581 0.82438 0.0
C436 C 0.26158 0.39362 0.84769 0.0
C437 C 0.26623 0.36709 0.88809 0.0
C438 C 0.23109 0.34626 0.91003 0.0
C439 C 0.19083 0.35071 0.89097 0.0
C440 C 0.18604 0.37556 0.84921 0.0
C441 C 0.22134 0.39717 0.82787 0.0
C442 C 0.43751 0.46048 0.78454 0.0
C443 C 0.36538 0.33671 0.68346 0.0
C444 C 0.49802 0.29915 0.76116 0.0
C445 C 0.53385 0.32048 0.73627 0.0
C446 C 0.52943 0.35049 0.69885 0.0
C447 C 0.56407 0.37074 0.67571 0.0
C448 C 0.60366 0.36222 0.69065 0.0
C449 C 0.60822 0.33332 0.72909 0.0
C450 C 0.57337 0.31228 0.75153 0.0
C451 C 0.35739 0.25313 0.79934 0.0
O452 O 0.39394 0.3882 0.89093 0.0
O453 O 0.45096 0.35707 0.86915 0.0
O454 O 0.3346 0.43846 0.8573 0.0
O455 O 0.30118 0.38426 0.77958 0.0
O456 O 0.40461 0.47379 0.7991 0.0
O457 O 0.43092 0.41017 0.78414 0.0
O458 O 0.40209 0.3271 0.69745 0.0
O459 O 0.34385 0.35522 0.71922 0.0
O460 O 0.461 0.27611 0.72933 0.0
O461 O 0.49558 0.33142 0.80597 0.0
O462 O 0.3907 0.2401 0.78582 0.0
O463 O 0.36455 0.30389 0.80135 0.0
H464 H 0.29701 0.36298 0.90298 0.0
H465 H 0.23546 0.32706 0.94212 0.0
H466 H 0.15538 0.37997 0.83432 0.0
H467 H 0.21731 0.41699 0.79618 0.0
H468 H 0.49922 0.35788 0.68729 0.0
H469 H 0.55992 0.39295 0.64609 0.0
H470 H 0.63829 0.32552 0.74051 0.0
H471 H 0.57721 0.28941 0.78063 0.0
Ho472 Ho 0.13875 0.15937 0.56319 0.0
Ho473 Ho 0.15943 0.06154 0.5094 0.0
C474 C 0.10919 0.11486 0.42983 0.0
C475 C 0.14403 0.26116 0.59079 0.0
C476 C 0.16367 0.29999 0.56208 0.0
C477 C 0.17979 0.28057 0.51643 0.0
C478 C 0.20042 0.31606 0.48906 0.0
C479 C 0.20632 0.37197 0.50768 0.0
C480 C 0.19108 0.39173 0.55425 0.0
C481 C 0.16959 0.35582 0.58118 0.0
C482 C 0.07901 0.06718 0.56361 0.0
C483 C 0.18563 0.10298 0.64297 0.0
C484 C 0.1574 0.96089 0.48247 0.0
C485 C 0.14141 0.92227 0.51339 0.0
C486 C 0.11294 0.93371 0.54752 0.0
C487 C 0.10182 0.90279 0.58339 0.0
C488 C 0.11979 0.86051 0.5866 0.0
C489 C 0.14706 0.84767 0.55105 0.0
C490 C 0.15765 0.87821 0.51439 0.0
C491 C 0.21959 0.15519 0.51056 0.0
O492 O 0.11394 0.15505 0.47361 0.0
O493 O 0.12392 0.07313 0.43433 0.0
O494 O 0.10893 0.22421 0.56446 0.0
O495 O 0.17097 0.24021 0.61299 0.0
O496 O 0.08917 0.1118 0.60193 0.0
O497 O 0.09875 0.07599 0.52625 0.0
O498 O 0.18055 0.06285 0.59902 0.0
O499 O 0.17241 0.14582 0.63847 0.0
O500 O 0.19229 0.99941 0.50656 0.0
O501 O 0.1285 0.97967 0.46096 0.0
O502 O 0.20909 0.11113 0.47154 0.0
O503 O 0.19946 0.14476 0.5471 0.0
H504 H 0.17696 0.23784 0.50223 0.0
H505 H 0.21218 0.2998 0.45371 0.0
H506 H 0.19521 0.43482 0.56933 0.0
H507 H 0.15802 0.37152 0.61686 0.0
H508 H 0.10064 0.96811 0.54798 0.0
H509 H 0.08098 0.91381 0.61045 0.0
H510 H 0.16102 0.81484 0.55257 0.0
H511 H 0.17971 0.86884 0.48851 0.0
Ho512 Ho 0.42957 0.89741 0.76226 0.0
Ho513 Ho 0.35854 0.81088 0.78888 0.0
C514 C 0.44985 0.77994 0.78301 0.0
C515 C 0.50489 0.95521 0.76252 0.0
C516 C 0.54404 0.94117 0.77806 0.0
C517 C 0.54655 0.91487 0.8192 0.0
C518 C 0.58032 0.89346 0.82886 0.0
C519 C 0.61277 0.89899 0.79834 0.0
C520 C 0.61052 0.92569 0.7575 0.0
C521 C 0.57611 0.94618 0.74708 0.0
C522 C 0.37783 0.82264 0.67811 0.0
C523 C 0.33907 0.92806 0.77119 0.0
C524 C 0.28891 0.74066 0.78774 0.0
C525 C 0.24768 0.75305 0.79015 0.0
C526 C 0.2362 0.7872 0.7601 0.0
C527 C 0.19937 0.80314 0.76453 0.0
C528 C 0.17185 0.78359 0.79747 0.0
C529 C 0.18299 0.74924 0.82751 0.0
C530 C 0.22096 0.73464 0.8244 0.0
C531 C 0.39678 0.90147 0.86584 0.0
O532 O 0.46214 0.82915 0.77274 0.0
O533 O 0.41005 0.76296 0.79276 0.0
O534 O 0.4802 0.92187 0.71906 0.0
O535 O 0.48376 0.96707 0.80081 0.0
O536 O 0.39185 0.87352 0.67839 0.0
O537 O 0.39149 0.81545 0.72182 0.0
O538 O 0.32473 0.87387 0.76538 0.0
O539 O 0.38115 0.94957 0.77468 0.0
O540 O 0.31825 0.76205 0.83128 0.0
O541 O 0.30408 0.74607 0.74441 0.0
O542 O 0.35723 0.87529 0.86123 0.0
O543 O 0.41407 0.87532 0.8337 0.0
H544 H 0.52201 0.91001 0.84352 0.0
H545 H 0.58186 0.87463 0.86171 0.0
H546 H 0.63574 0.93146 0.73428 0.0
H547 H 0.57434 0.96551 0.71464 0.0
H548 H 0.25543 0.8015 0.73247 0.0
H549 H 0.19173 0.82905 0.74027 0.0
H550 H 0.16204 0.73304 0.85276 0.0
H551 H 0.22921 0.70867 0.84826 0.0
Ho552 Ho 0.64525 0.06421 0.0625 0.0
Ho553 Ho 0.64698 0.1496 1.01275 0.0
C554 C 0.55651 0.07184 1.00111 0.0
C555 C 0.63298 0.98773 0.11047 0.0
C556 C 0.60382 0.97708 0.14695 0.0
C557 C 0.57094 1.00194 0.1476 0.0
C558 C 0.55444 1.01403 0.19371 0.0
C559 C 0.57083 1.00159 0.23987 0.0
C560 C 0.60009 0.97089 0.23736 0.0
C561 C 0.61669 0.95874 0.19082 0.0
C562 C 0.68702 0.05525 0.97739 0.0
C563 C 0.72591 0.15617 0.09309 0.0
C564 C 0.64957 0.21005 0.9473 0.0
C565 C 0.67251 0.20827 0.90334 0.0
C566 C 0.69439 0.16897 0.89383 0.0
C567 C 0.71909 0.16775 0.8546 0.0
C568 C 0.72182 0.20546 0.82371 0.0
C569 C 0.69876 0.24389 0.83215 0.0
C570 C 0.67421 0.24546 0.87233 0.0
C571 C 0.62438 0.17661 0.11079 0.0
O572 O 0.5751 0.05066 0.03518 0.0
O573 O 0.57859 0.10885 0.98144 0.0
O574 O 0.61582 0.98018 0.06054 0.0
O575 O 0.66209 1.03445 0.12972 0.0
O576 O 0.69969 0.04787 0.02279 0.0
O577 O 0.65251 0.06726 0.97935 0.0
O578 O 0.71477 0.15933 0.04418 0.0
O579 O 0.6979 0.1303 0.11677 0.0
O580 O 0.67405 0.22545 0.99416 0.0
O581 O 0.61881 0.16597 0.9416 0.0
O582 O 0.651 0.2084 0.09102 0.0
O583 O 0.61417 0.13029 0.07892 0.0
H584 H 0.56072 1.01675 0.11439 0.0
H585 H 0.53133 1.03692 0.19414 0.0
H586 H 0.61263 0.96014 0.27241 0.0
H587 H 0.64262 0.94034 0.19115 0.0
H588 H 0.69326 0.1401 0.91783 0.0
H589 H 0.73612 0.13726 0.84881 0.0
H590 H 0.70007 0.27287 0.80827 0.0
H591 H 0.6571 0.27575 0.87955 0.0
Ho592 Ho 0.42558 0.40525 0.32237 0.0
Ho593 Ho 0.37066 0.30275 0.25419 0.0
C594 C 0.32438 0.39239 0.29199 0.0
C595 C 0.46551 0.50668 0.35226 0.0
C596 C 0.44916 0.54639 0.33195 0.0
C597 C 0.43498 0.53461 0.27641 0.0
C598 C 0.39982 0.5492 0.25704 0.0
C599 C 0.37963 0.57747 0.29282 0.0
C600 C 0.39748 0.59603 0.34751 0.0
C601 C 0.43244 0.5809 0.36701 0.0
C602 C 0.39158 0.33516 0.37924 0.0
C603 C 0.47412 0.32059 0.28422 0.0
C604 C 0.33887 0.19937 0.22802 0.0
C605 C 0.3657 0.16237 0.22381 0.0
C606 C 0.36944 0.13701 0.26533 0.0
C607 C 0.40847 0.12999 0.28346 0.0
C608 C 0.44334 0.14539 0.25828 0.0
C609 C 0.43736 0.16126 0.21099 0.0
C610 C 0.39874 0.17019 0.19398 0.0
C611 C 0.39599 0.37129 0.1935 0.0
O612 O 0.36317 0.42656 0.30851 0.0
O613 O 0.3183 0.34028 0.26997 0.0
O614 O 0.44072 0.48223 0.38031 0.0
O615 O 0.47752 0.47237 0.3172 0.0
O616 O 0.42955 0.36932 0.39451 0.0
O617 O 0.37408 0.34296 0.33751 0.0
O618 O 0.43686 0.28999 0.2551 0.0
O619 O 0.47757 0.36648 0.31882 0.0
O620 O 0.33962 0.22827 0.19329 0.0
O621 O 0.34382 0.22927 0.27671 0.0
O622 O 0.35786 0.33796 0.18628 0.0
O623 O 0.41932 0.36716 0.23434 0.0
H624 H 0.4476 0.50864 0.24815 0.0
H625 H 0.3874 0.53637 0.21444 0.0
H626 H 0.38273 0.61902 0.37566 0.0
H627 H 0.44275 0.59024 0.4099 0.0
H628 H 0.34439 0.1302 0.28872 0.0
H629 H 0.4119 0.11515 0.31882 0.0
H630 H 0.46354 0.17133 0.18996 0.0
H631 H 0.39715 0.18997 0.16202 0.0
Ho632 Ho 0.63901 0.65938 0.06323 0.0
Ho633 Ho 0.65993 0.56196 1.00947 0.0
C634 C 0.60936 0.61494 0.92993 0.0
C635 C 0.64401 0.76109 0.09067 0.0
C636 C 0.66347 0.79985 0.06177 0.0
C637 C 0.67977 0.78044 0.01627 0.0
C638 C 0.70008 0.81584 0.9886 0.0
C639 C 0.70548 0.87168 1.00674 0.0
C640 C 0.69012 0.89146 0.05321 0.0
C641 C 0.66894 0.85562 0.08044 0.0
C642 C 0.57934 0.56709 0.06364 0.0
C643 C 0.68588 0.60308 0.14308 0.0
C644 C 0.65853 0.46157 0.98231 0.0
C645 C 0.64249 0.42281 0.01304 0.0
C646 C 0.61384 0.43405 0.04696 0.0
C647 C 0.6027 0.40311 0.08279 0.0
C648 C 0.62087 0.36103 0.08617 0.0
C649 C 0.64837 0.34843 0.05088 0.0
C650 C 0.65894 0.37896 0.01422 0.0
C651 C 0.71991 0.65575 1.0106 0.0
O652 O 0.6141 0.65511 0.9737 0.0
O653 O 0.62417 0.57328 0.93443 0.0
O654 O 0.60895 0.724 0.06448 0.0
O655 O 0.67107 0.74033 0.11291 0.0
O656 O 0.58954 0.6117 0.10198 0.0
O657 O 0.59906 0.57592 0.02625 0.0
O658 O 0.68087 0.56302 0.09908 0.0
O659 O 0.67264 0.6459 0.13858 0.0
O660 O 0.69321 0.50027 1.00677 0.0
O661 O 0.62959 0.48013 0.96057 0.0
O662 O 0.70938 0.61176 0.97153 0.0
O663 O 0.69988 0.64522 0.04719 0.0
H664 H 0.67727 0.73777 1.00238 0.0
H665 H 0.71196 0.79954 0.95336 0.0
H666 H 0.69392 0.93449 0.06798 0.0
H667 H 0.65723 0.87134 0.116 0.0
H668 H 0.60139 0.46832 0.04729 0.0
H669 H 0.5817 0.41394 0.10967 0.0
H670 H 0.66253 0.31584 0.05263 0.0
H671 H 0.68117 0.36978 0.98852 0.0
Ho672 Ho 0.93069 0.39882 0.26378 0.0
Ho673 Ho 0.85925 0.31148 0.28924 0.0
C674 C 0.9507 0.28091 0.28378 0.0
C675 C 1.00596 0.45702 0.26465 0.0
C676 C 0.04516 0.44298 0.27991 0.0
C677 C 0.0477 0.41628 0.32073 0.0
C678 C 0.08159 0.39505 0.33022 0.0
C679 C 0.11415 0.40117 0.2999 0.0
C680 C 0.11182 0.42815 0.2593 0.0
C681 C 0.07726 0.44842 0.24899 0.0
C682 C 0.87939 0.32433 0.17952 0.0
C683 C 0.8397 0.42864 0.27185 0.0
C684 C 0.7899 0.24047 0.2871 0.0
C685 C 0.74851 0.25244 0.28922 0.0
C686 C 0.73703 0.28659 0.25919 0.0
C687 C 0.70007 0.30223 0.26339 0.0
C688 C 0.67242 0.28238 0.29607 0.0
C689 C 0.68366 0.24825 0.3263 0.0
C690 C 0.72177 0.23396 0.32344 0.0
C691 C 0.89752 0.4016 0.36668 0.0
O692 O 0.96317 0.33034 0.27399 0.0
O693 O 0.9108 0.26373 0.2931 0.0
O694 O 0.98138 0.42397 0.22095 0.0
O695 O 0.98474 0.46839 0.30301 0.0
O696 O 0.89347 0.37515 0.17965 0.0
O697 O 0.89288 0.31712 0.22319 0.0
O698 O 0.8254 0.37437 0.26568 0.0
O699 O 0.88185 0.45042 0.27601 0.0
O700 O 0.81892 0.26201 0.33094 0.0
O701 O 0.80531 0.24601 0.24384 0.0
O702 O 0.85781 0.37576 0.36166 0.0
O703 O 0.91481 0.37555 0.33454 0.0
H704 H 1.02311 0.41102 0.34493 0.0
H705 H 0.08315 0.37593 0.36286 0.0
H706 H 0.13708 0.43428 0.23617 0.0
H707 H 0.07542 0.46797 0.21672 0.0
H708 H 0.75639 0.30111 0.23176 0.0
H709 H 0.69241 0.3281 0.2391 0.0
H710 H 0.66266 0.23193 0.35143 0.0
H711 H 0.73012 0.20817 0.34745 0.0
Ho712 Ho 0.14698 0.56536 0.56856 0.0
Ho713 Ho 0.14622 0.64897 0.51757 0.0
C714 C 0.05745 0.56783 0.50557 0.0
C715 C 0.13636 0.49053 0.61833 0.0
C716 C 0.10616 0.4792 0.65327 0.0
C717 C 0.07436 0.50582 0.65456 0.0
C718 C 0.05524 0.51362 0.69889 0.0
C719 C 0.06763 0.4947 0.74258 0.0
C720 C 0.0964 0.46325 0.73914 0.0
C721 C 0.11588 0.45576 0.69448 0.0
C722 C 0.18711 0.55452 0.48225 0.0
C723 C 0.22715 0.65684 0.59471 0.0
C724 C 0.14778 0.70718 0.45078 0.0
C725 C 0.16692 0.69443 0.40437 0.0
C726 C 0.17822 0.64575 0.39539 0.0
C727 C 0.20559 0.63609 0.36091 0.0
C728 C 0.22129 0.67478 0.33404 0.0
C729 C 0.20774 0.72202 0.3397 0.0
C730 C 0.18067 0.73218 0.37555 0.0
C731 C 0.12411 0.67654 0.6156 0.0
O732 O 0.07677 0.54903 0.54107 0.0
O733 O 0.07882 0.60366 0.48399 0.0
O734 O 0.12004 0.48128 0.56783 0.0
O735 O 0.16416 0.53832 0.63755 0.0
O736 O 0.20069 0.54801 0.52774 0.0
O737 O 0.15256 0.56652 0.48475 0.0
O738 O 0.21465 0.65861 0.5457 0.0
O739 O 0.19975 0.63303 0.62034 0.0
O740 O 0.17517 0.72227 0.49538 0.0
O741 O 0.11385 0.66928 0.45135 0.0
O742 O 0.15079 0.70812 0.59574 0.0
O743 O 0.11421 0.62997 0.58427 0.0
H744 H 0.06681 0.52487 0.62364 0.0
H745 H 1.0327 0.5373 0.69997 0.0
H746 H 0.10597 0.44773 0.77228 0.0
H747 H 0.14102 0.43601 0.69432 0.0
H748 H 0.16749 0.61638 0.41726 0.0
H749 H 0.21562 0.59941 0.35675 0.0
H750 H 0.21907 0.75161 0.31783 0.0
H751 H 0.17228 0.77004 0.38256 0.0
Ho752 Ho 0.86599 0.8909 0.30776 0.0
Ho753 Ho 0.92898 0.82423 0.27957 0.0
C754 C 0.9296 0.87665 0.40478 0.0
C755 C 0.79665 0.91484 0.32455 0.0
C756 C 0.75999 0.89234 0.34755 0.0
C757 C 0.76454 0.86588 0.38801 0.0
C758 C 0.7294 0.84534 0.4101 0.0
C759 C 0.68918 0.85006 0.39127 0.0
C760 C 0.68439 0.8746 0.34925 0.0
C761 C 0.71972 0.8959 0.3277 0.0
C762 C 0.93661 0.96073 0.28462 0.0
C763 C 0.86467 0.83737 0.18353 0.0
C764 C 0.9978 0.80011 0.26004 0.0
C765 C 1.03289 0.82065 0.23364 0.0
C766 C 1.02763 0.84996 0.19578 0.0
C767 C 0.06151 0.86927 0.17103 0.0
C768 C 0.10123 0.86053 0.18476 0.0
C769 C 0.10662 0.83229 0.22357 0.0
C770 C 0.07251 0.81216 0.24762 0.0
C771 C 0.85727 0.75341 0.29928 0.0
O772 O 0.89362 0.88821 0.3909 0.0
O773 O 0.95061 0.85704 0.36871 0.0
O774 O 0.83313 0.93759 0.35767 0.0
O775 O 0.8001 0.88362 0.27973 0.0
O776 O 0.90375 0.97406 0.29939 0.0
O777 O 0.92986 0.91039 0.28416 0.0
O778 O 0.90148 0.8279 0.1973 0.0
O779 O 0.84306 0.8555 0.21939 0.0
O780 O 0.96048 0.77595 0.22918 0.0
O781 O 0.99576 0.83343 0.3044 0.0
O782 O 0.89058 0.74044 0.28558 0.0
O783 O 0.86443 0.80417 0.30129 0.0
H784 H 0.79529 0.86173 0.40296 0.0
H785 H 0.73379 0.82626 0.44228 0.0
H786 H 0.65375 0.8791 0.3344 0.0
H787 H 0.71572 0.91564 0.29593 0.0
H788 H 0.99732 0.85751 0.18514 0.0
H789 H 0.0567 0.89102 0.1412 0.0
H790 H 0.13678 0.82437 0.23413 0.0
H791 H 0.077 0.78978 0.27698 0.0
Ho792 Ho 0.92797 0.35839 0.7602 0.0
Ho793 Ho 0.862 0.3497 0.80737 0.0
C794 C 0.93268 0.4549 0.8508 0.0
C795 C 0.98645 0.38568 0.70753 0.0
C796 C 0.97852 0.40674 0.66185 0.0
C797 C 0.94805 0.43562 0.66109 0.0
C798 C 0.93647 0.45182 0.61614 0.0
C799 C 0.95494 0.43899 0.57113 0.0
C800 C 0.98473 0.40896 0.57134 0.0
C801 C 0.99635 0.39261 0.61668 0.0
C802 C 0.94629 0.31244 0.84202 0.0
C803 C 0.85679 0.25364 0.70752 0.0
C804 C 0.80545 0.3318 0.86602 0.0
C805 C 0.80869 0.29765 0.90158 0.0
C806 C 0.8395 0.26949 0.89595 0.0
C807 C 0.84044 0.23001 0.92261 0.0
C808 C 0.81043 0.21811 0.95484 0.0
C809 C 0.78169 0.24912 0.96404 0.0
C810 C 0.78074 0.28917 0.93716 0.0
C811 C 0.84584 0.39783 0.72712 0.0
O812 O 0.93241 0.44446 0.79957 0.0
O813 O 0.91224 0.41486 0.86785 0.0
O814 O 0.98418 0.41669 0.75303 0.0
O815 O 0.9648 0.33518 0.70023 0.0
O816 O 0.95317 0.29795 0.79417 0.0
O817 O 0.92706 0.34867 0.84365 0.0
O818 O 0.84777 0.2617 0.75632 0.0
O819 O 0.88355 0.2931 0.69602 0.0
O820 O 0.80031 0.30595 0.81621 0.0
O821 O 0.836 0.3769 0.87807 0.0
O822 O 0.84099 0.41414 0.77575 0.0
O823 O 0.86297 0.35954 0.7245 0.0
H824 H 0.93277 0.4453 0.6951 0.0
H825 H 0.91326 0.47461 0.61683 0.0
H826 H 0.99959 0.39891 0.537 0.0
H827 H 1.0191 0.36921 0.61657 0.0
H828 H 0.86193 0.27678 0.86932 0.0
H829 H 0.86426 0.20845 0.9177 0.0
H830 H 0.76006 0.24213 0.99167 0.0
H831 H 0.75765 0.31187 0.94269 0.0
Ho832 Ho 0.92364 0.90723 0.82135 0.0
Ho833 Ho 0.8701 0.80309 0.75405 0.0
C834 C 0.82243 0.89153 0.78924 0.0
C835 C 0.9619 1.00945 0.85184 0.0
C836 C 0.94644 0.05047 0.83283 0.0
C837 C 0.93184 1.04072 0.77771 0.0
C838 C 0.90183 0.0645 0.75997 0.0
C839 C 0.88677 0.09912 0.79694 0.0
C840 C 0.9044 0.11331 0.85146 0.0
C841 C 0.93419 0.08896 0.86943 0.0
C842 C 0.89038 0.83743 0.879 0.0
C843 C 0.97365 0.82326 0.78506 0.0
C844 C 0.83779 0.6997 0.7277 0.0
C845 C 0.86326 0.66128 0.72204 0.0
C846 C 0.86323 0.63127 0.76013 0.0
C847 C 0.90036 0.61984 0.77827 0.0
C848 C 0.93716 0.63605 0.75669 0.0
C849 C 0.93502 0.65773 0.71253 0.0
C850 C 0.89817 0.67065 0.69537 0.0
C851 C 0.8953 0.87085 0.69248 0.0
O852 O 0.86087 0.92661 0.80462 0.0
O853 O 0.81708 0.8393 0.7692 0.0
O854 O 0.93665 0.98421 0.87887 0.0
O855 O 0.97418 0.97587 0.81633 0.0
O856 O 0.92808 0.87225 0.89415 0.0
O857 O 0.87274 0.84432 0.83685 0.0
O858 O 0.9365 0.79097 0.75706 0.0
O859 O 0.97674 0.87024 0.81771 0.0
O860 O 0.8386 0.72884 0.69324 0.0
O861 O 0.84423 0.72948 0.77672 0.0
O862 O 0.8574 0.83703 0.68511 0.0
O863 O 0.91844 0.86775 0.73395 0.0
H864 H 0.94046 1.01096 0.74842 0.0
H865 H 0.88907 0.05399 0.71755 0.0
H866 H 0.89299 0.13999 0.88043 0.0
H867 H 0.94448 0.0962 0.91208 0.0
H868 H 0.83675 0.62364 0.78122 0.0
H869 H 0.90091 0.60104 0.81124 0.0
H870 H 0.96281 0.66903 0.69447 0.0
H871 H 0.89931 0.6941 0.66611 0.0
Ho872 Ho 0.61384 0.57213 0.50116 0.0
Ho873 Ho 0.67616 0.64044 0.5749 0.0
C874 C 0.61859 0.70098 0.52304 0.0
C875 C 0.53355 0.52599 0.46999 0.0
C876 C 0.50346 0.54928 0.49819 0.0
C877 C 0.51928 0.60193 0.5322 0.0
C878 C 0.49254 0.62835 0.55674 0.0
C879 C 0.44917 0.60177 0.54961 0.0
C880 C 0.43357 0.5468 0.52036 0.0
C881 C 0.46094 0.52032 0.49542 0.0
C882 C 0.68254 0.59 0.44647 0.0
C883 C 0.67085 0.5113 0.55431 0.0
C884 C 0.75576 0.68939 0.60724 0.0
C885 C 0.786 0.66606 0.57996 0.0
C886 C 0.77005 0.61292 0.54736 0.0
C887 C 0.7967 0.58539 0.52486 0.0
C888 C 0.84005 0.61166 0.53186 0.0
C889 C 0.85576 0.66734 0.55841 0.0
C890 C 0.82842 0.69484 0.58183 0.0
C891 C 0.60739 0.62155 0.62884 0.0
O892 O 0.6025 0.6522 0.48976 0.0
O893 O 0.64805 0.70752 0.56425 0.0
O894 O 0.55583 0.55675 0.44408 0.0
O895 O 0.5576 0.50719 0.49944 0.0
O896 O 0.65238 0.54426 0.43684 0.0
O897 O 0.67302 0.62427 0.48403 0.0
O898 O 0.68739 0.56039 0.58707 0.0
O899 O 0.64121 0.50458 0.5131 0.0
O900 O 0.73373 0.65897 0.63369 0.0
O901 O 0.73142 0.70653 0.57641 0.0
O902 O 0.6367 0.66789 0.638 0.0
O903 O 0.61761 0.58761 0.59188 0.0
H904 H 0.55257 0.62292 0.54047 0.0
H905 H 0.50585 0.66996 0.58078 0.0
H906 H 0.40019 0.52497 0.51534 0.0
H907 H 0.44884 0.47788 0.47383 0.0
H908 H 0.73667 0.59254 0.53834 0.0
H909 H 0.78316 0.54343 0.50185 0.0
H910 H 0.88907 0.68895 0.5624 0.0
H911 H 0.84053 0.73773 0.60182 0.0
Ho912 Ho 0.18881 0.59798 0.01516 0.0
Ho913 Ho 0.11072 0.62011 0.05965 0.0
C914 C 0.11019 0.49412 1.00603 0.0
C915 C 0.26504 0.59593 1.00428 0.0
C916 C 0.29318 0.56462 0.018 0.0
C917 C 0.28012 0.52476 0.04523 0.0
C918 C 0.30872 0.49827 0.06215 0.0
C919 C 0.35066 0.51226 0.05272 0.0
C920 C 0.36335 0.55166 0.02484 0.0
C921 C 0.33461 0.57758 1.00735 0.0
C922 C 0.13075 0.61915 0.94694 0.0
C923 C 0.18858 0.72338 0.06901 0.0
C924 C 1.035 0.62341 0.07154 0.0
C925 C 1.00631 0.65479 0.05842 0.0
C926 C 0.99333 0.6552 1.00519 0.0
C927 C 0.96462 0.6836 0.99352 0.0
C928 C 0.9496 0.71275 0.03502 0.0
C929 C 0.96302 0.71331 0.08811 0.0
C930 C 0.99092 0.68393 0.09973 0.0
C931 C 0.17041 0.60563 0.12862 0.0
O932 O 0.15236 0.51052 1.01037 0.0
O933 O 0.08823 0.52975 0.01705 0.0
O934 O 0.23173 0.56975 0.96668 0.0
O935 O 0.25609 0.62675 0.0455 0.0
O936 O 0.15307 0.58618 0.93225 0.0
O937 O 0.14272 0.64017 0.99556 0.0
O938 O 0.14626 0.7065 0.0611 0.0
O939 O 0.2111 0.68784 0.06139 0.0
O940 O 0.06862 0.64957 0.10876 0.0
O941 O 0.04318 0.59071 0.03104 0.0
O942 O 0.14735 0.63781 0.14239 0.0
O943 O 0.15813 0.57989 0.08082 0.0
H944 H 0.24811 0.51475 0.05388 0.0
H945 H 0.29834 0.46753 0.08318 0.0
H946 H 0.39526 0.56184 0.01592 0.0
H947 H 0.34487 0.60829 0.98625 0.0
H948 H 1.00517 0.63358 0.97261 0.0
H949 H 0.95459 0.68341 0.9524 0.0
H950 H 0.95135 0.73577 0.12038 0.0
H951 H 1.00044 0.68391 0.14091 0.0
loop_
_geom_bond_atom_site_label_1
_geom_bond_atom_site_label_2
_geom_bond_distance
_geom_bond_site_symmetry_2
_ccdc_geom_bond_type
C0 O1 1.160 . S
C0 O7 1.185 . S
O1 C0 1.160 . S
O2 Zn3 1.899 . S
O2 C10 1.284 . S
Zn3 O2 1.899 . S
Zn3 O4 2.032 . S
Zn3 O7 2.086 . S
Zn3 O12 1.977 . S
O4 Zn3 2.032 . S
O4 C8 1.278 . S
C5 O6 1.203 . S
C5 O12 1.267 . S
O6 C5 1.203 . S
O7 C0 1.185 . S
O7 Zn3 2.086 . S
C8 O4 1.278 . S
C8 O9 1.211 . S
O9 C8 1.211 . S
C10 O2 1.284 . S
C10 O11 1.273 . S
O11 C10 1.273 . S
O12 Zn3 1.977 . S
O12 C5 1.267 . S
C13 O14 1.160 . S
C13 O20 1.185 . S
O14 C13 1.160 . S
O15 Zn16 1.896 . S
O15 C23 1.284 . S
Zn16 O15 1.896 . S
Zn16 O17 2.040 . S
Zn16 O20 2.104 . S
Zn16 O25 1.961 1_655 S
O17 Zn16 2.040 . S
O17 C21 1.278 1_655 S
C18 O19 1.203 . S
C18 O25 1.267 . S
O19 C18 1.203 . S
O20 C13 1.185 . S
O20 Zn16 2.104 . S
C21 O17 1.278 1_455 S
C21 O22 1.211 . S
O22 C21 1.211 . S
C23 O15 1.284 . S
C23 O24 1.269 1_655 S
O24 C23 1.269 1_455 S
O25 Zn16 1.961 1_455 S
O25 C18 1.267 . S
C26 O27 1.160 . S
C26 O33 1.185 . S
O27 C26 1.160 . S
O28 Zn29 1.899 . S
O28 C36 1.284 . S
Zn29 O28 1.899 . S
Zn29 O30 2.032 . S
Zn29 O33 2.086 . S
Zn29 O38 1.977 . S
O30 Zn29 2.032 . S
O30 C34 1.278 1_565 S
C31 O32 1.203 . S
C31 O38 1.267 . S
O32 C31 1.203 . S
O33 C26 1.185 . S
O33 Zn29 2.086 . S
C34 O30 1.278 1_545 S
C34 O35 1.211 . S
O35 C34 1.211 . S
C36 O28 1.284 . S
C36 O37 1.273 1_556 S
O37 C36 1.273 1_554 S
O38 Zn29 1.977 . S
O38 C31 1.267 . S
C39 O40 1.160 . S
C39 O46 1.185 . S
O40 C39 1.160 . S
O41 Zn42 1.899 . S
O41 C49 1.284 . S
Zn42 O41 1.899 . S
Zn42 O43 2.032 . S
Zn42 O46 2.086 . S
Zn42 O51 1.977 . S
O43 Zn42 2.032 . S
O43 C47 1.278 . S
C44 O45 1.203 . S
C44 O51 1.267 . S
O45 C44 1.203 . S
O46 C39 1.185 . S
O46 Zn42 2.086 . S
C47 O43 1.278 . S
C47 O48 1.211 . S
O48 C47 1.211 . S
C49 O41 1.284 . S
C49 O50 1.273 . S
O50 C49 1.273 . S
O51 Zn42 1.977 . S
O51 C44 1.267 . S
C52 O53 1.160 . S
C52 O59 1.185 . S
O53 C52 1.160 . S
O54 Zn55 1.899 . S
O54 C62 1.284 . S
Zn55 O54 1.899 . S
Zn55 O56 2.032 . S
Zn55 O59 2.086 . S
Zn55 O64 1.977 . S
O56 Zn55 2.032 . S
O56 C60 1.278 . S
C57 O58 1.203 . S
C57 O64 1.267 . S
O58 C57 1.203 . S
O59 C52 1.185 . S
O59 Zn55 2.086 . S
C60 O56 1.278 . S
C60 O61 1.211 . S
O61 C60 1.211 . S
C62 O54 1.284 . S
C62 O63 1.273 . S
O63 C62 1.273 . S
O64 Zn55 1.977 . S
O64 C57 1.267 . S
C65 O66 1.160 . S
C65 O72 1.185 . S
O66 C65 1.160 . S
O67 Zn68 1.899 . S
O67 C75 1.284 . S
Zn68 O67 1.899 . S
Zn68 O69 2.032 . S
Zn68 O72 2.086 . S
Zn68 O77 1.977 . S
O69 Zn68 2.032 . S
O69 C73 1.278 . S
C70 O71 1.203 . S
C70 O77 1.267 . S
O71 C70 1.203 . S
O72 C65 1.185 . S
O72 Zn68 2.086 . S
C73 O69 1.278 . S
C73 O74 1.211 . S
O74 C73 1.211 . S
C75 O67 1.284 . S
C75 O76 1.273 . S
O76 C75 1.273 . S
O77 Zn68 1.977 . S
O77 C70 1.267 . S
C78 O79 1.160 . S
C78 O85 1.185 . S
O79 C78 1.160 . S
O80 Zn81 1.899 . S
O80 C88 1.284 . S
Zn81 O80 1.899 . S
Zn81 O82 2.032 . S
Zn81 O85 2.086 . S
Zn81 O90 1.977 . S
O82 Zn81 2.032 . S
O82 C86 1.278 . S
C83 O84 1.203 . S
C83 O90 1.267 . S
O84 C83 1.203 . S
O85 C78 1.185 . S
O85 Zn81 2.086 . S
C86 O82 1.278 . S
C86 O87 1.211 . S
O87 C86 1.211 . S
C88 O80 1.284 . S
C88 O89 1.273 . S
O89 C88 1.273 . S
O90 Zn81 1.977 . S
O90 C83 1.267 . S
C91 O92 1.160 . S
C91 O98 1.185 . S
O92 C91 1.160 . S
O93 Zn94 1.899 . S
O93 C101 1.284 1_556 S
Zn94 O93 1.899 . S
Zn94 O95 2.032 . S
Zn94 O98 2.086 . S
Zn94 O103 1.977 . S
O95 Zn94 2.032 . S
O95 C99 1.278 1_556 S
C96 O97 1.203 . S
C96 O103 1.267 1_655 S
O97 C96 1.203 . S
O98 C91 1.185 . S
O98 Zn94 2.086 . S
C99 O95 1.278 1_554 S
C99 O100 1.211 . S
O100 C99 1.211 . S
C101 O93 1.284 1_554 S
C101 O102 1.273 . S
O102 C101 1.273 . S
O103 Zn94 1.977 . S
O103 C96 1.267 1_455 S
C104 O105 1.160 . S
C104 O111 1.185 . S
O105 C104 1.160 . S
O106 Zn107 1.902 1_565 S
O106 C114 1.284 . S
Zn107 O106 1.902 1_545 S
Zn107 O108 2.033 . S
Zn107 O111 2.104 . S
Zn107 O116 1.962 1_545 S
O108 Zn107 2.033 . S
O108 C112 1.278 . S
C109 O110 1.203 . S
C109 O116 1.267 . S
O110 C109 1.203 . S
O111 C104 1.185 . S
O111 Zn107 2.104 . S
C112 O108 1.278 . S
C112 O113 1.211 1_545 S
O113 C112 1.211 1_565 S
C114 O106 1.284 . S
C114 O115 1.273 . S
O115 C114 1.273 . S
O116 Zn107 1.962 1_565 S
O116 C109 1.267 . S
C117 O118 1.160 . S
C117 O124 1.185 . S
O118 C117 1.160 . S
O119 Zn120 1.899 . S
O119 C127 1.284 . S
Zn120 O119 1.899 . S
Zn120 O121 2.032 . S
Zn120 O124 2.086 . S
Zn120 O129 1.977 . S
O121 Zn120 2.032 . S
O121 C125 1.278 . S
C122 O123 1.203 . S
C122 O129 1.267 . S
O123 C122 1.203 . S
O124 C117 1.185 . S
O124 Zn120 2.086 . S
C125 O121 1.278 . S
C125 O126 1.211 . S
O126 C125 1.211 . S
C127 O119 1.284 . S
C127 O128 1.273 . S
O128 C127 1.273 . S
O129 Zn120 1.977 . S
O129 C122 1.267 . S
C130 O131 1.160 . S
C130 O137 1.185 . S
O131 C130 1.160 . S
O132 Zn133 1.899 . S
O132 C140 1.284 . S
Zn133 O132 1.899 . S
Zn133 O134 2.032 . S
Zn133 O137 2.086 1_545 S
Zn133 O142 1.977 . S
O134 Zn133 2.032 . S
O134 C138 1.278 . S
C135 O136 1.203 . S
C135 O142 1.267 . S
O136 C135 1.203 . S
O137 C130 1.185 . S
O137 Zn133 2.086 1_565 S
C138 O134 1.278 . S
C138 O139 1.211 . S
O139 C138 1.211 . S
C140 O132 1.284 . S
C140 O141 1.273 . S
O141 C140 1.273 . S
O142 Zn133 1.977 . S
O142 C135 1.267 . S
C143 O144 1.160 . S
C143 O150 1.185 . S
O144 C143 1.160 . S
O145 Zn146 1.899 1_565 S
O145 C153 1.284 . S
Zn146 O145 1.899 1_545 S
Zn146 O147 2.032 1_544 S
Zn146 O150 2.086 . S
Zn146 O155 1.977 . S
O147 Zn146 2.032 1_566 S
O147 C151 1.278 . S
C148 O149 1.203 . S
C148 O155 1.267 . S
O149 C148 1.203 . S
O150 C143 1.185 . S
O150 Zn146 2.086 . S
C151 O147 1.278 . S
C151 O152 1.211 . S
O152 C151 1.211 . S
C153 O145 1.284 . S
C153 O154 1.273 . S
O154 C153 1.273 . S
O155 Zn146 1.977 . S
O155 C148 1.267 . S
C156 O157 1.160 . S
C156 O163 1.185 . S
O157 C156 1.160 . S
O158 Zn159 1.899 . S
O158 C166 1.284 . S
Zn159 O158 1.899 . S
Zn159 O160 2.032 1_554 S
Zn159 O163 2.086 . S
Zn159 O168 1.977 . S
O160 Zn159 2.032 1_556 S
O160 C164 1.278 . S
C161 O162 1.203 . S
C161 O168 1.267 . S
O162 C161 1.203 . S
O163 C156 1.185 . S
O163 Zn159 2.086 . S
C164 O160 1.278 . S
C164 O165 1.211 . S
O165 C164 1.211 . S
C166 O158 1.284 . S
C166 O167 1.273 . S
O167 C166 1.273 . S
O168 Zn159 1.977 . S
O168 C161 1.267 . S
C169 O170 1.160 . S
C169 O176 1.185 . S
O170 C169 1.160 . S
O171 Zn172 1.899 . S
O171 C179 1.284 . S
Zn172 O171 1.899 . S
Zn172 O173 2.050 . S
Zn172 O176 2.086 . S
Zn172 O181 1.977 . S
O173 Zn172 2.050 . S
O173 C177 1.267 1_554 S
C174 O175 1.203 . S
C174 O181 1.267 . S
O175 C174 1.203 . S
O176 C169 1.185 . S
O176 Zn172 2.086 . S
C177 O173 1.267 1_556 S
C177 O178 1.211 . S
O178 C177 1.211 . S
C179 O171 1.284 . S
C179 O180 1.273 . S
O180 C179 1.273 . S
O181 Zn172 1.977 . S
O181 C174 1.267 . S
C182 O183 1.160 . S
C182 O189 1.185 . S
O183 C182 1.160 . S
O184 Zn185 1.899 . S
O184 C192 1.284 . S
Zn185 O184 1.899 . S
Zn185 O186 2.032 . S
Zn185 O189 2.086 . S
Zn185 O194 1.977 . S
O186 Zn185 2.032 . S
O186 C190 1.278 . S
C187 O188 1.203 . S
C187 O194 1.267 . S
O188 C187 1.203 . S
O189 C182 1.185 . S
O189 Zn185 2.086 . S
C190 O186 1.278 . S
C190 O191 1.211 . S
O191 C190 1.211 . S
C192 O184 1.284 . S
C192 O193 1.273 . S
O193 C192 1.273 . S
O194 Zn185 1.977 . S
O194 C187 1.267 . S
C195 O196 1.160 . S
C195 O202 1.185 . S
O196 C195 1.160 . S
O197 Zn198 1.899 . S
O197 C205 1.284 . S
Zn198 O197 1.899 . S
Zn198 O199 2.032 . S
Zn198 O202 2.086 . S
Zn198 O207 1.977 . S
O199 Zn198 2.032 . S
O199 C203 1.278 . S
C200 O201 1.203 . S
C200 O207 1.267 . S
O201 C200 1.203 . S
O202 C195 1.185 . S
O202 Zn198 2.086 . S
C203 O199 1.278 . S
C203 O204 1.211 . S
O204 C203 1.211 . S
C205 O197 1.284 . S
C205 O206 1.273 . S
O206 C205 1.273 . S
O207 Zn198 1.977 . S
O207 C200 1.267 . S
C208 O209 1.160 . S
C208 O215 1.185 . S
O209 C208 1.160 . S
O210 Zn211 1.899 1_455 S
O210 C218 1.284 . S
Zn211 O210 1.899 1_655 S
Zn211 O212 2.032 1_655 S
Zn211 O215 2.086 . S
Zn211 O220 1.977 . S
O212 Zn211 2.032 1_455 S
O212 C216 1.278 . S
C213 O214 1.203 . S
C213 O220 1.267 1_565 S
O214 C213 1.203 . S
O215 C208 1.185 . S
O215 Zn211 2.086 . S
C216 O212 1.278 . S
C216 O217 1.211 . S
O217 C216 1.211 . S
C218 O210 1.284 . S
C218 O219 1.273 . S
O219 C218 1.273 . S
O220 Zn211 1.977 . S
O220 C213 1.267 1_545 S
C221 O222 1.160 . S
C221 O228 1.185 . S
O222 C221 1.160 . S
O223 Zn224 1.899 . S
O223 C231 1.284 . S
Zn224 O223 1.899 . S
Zn224 O225 2.032 . S
Zn224 O228 2.086 . S
Zn224 O233 1.977 . S
O225 Zn224 2.032 . S
O225 C229 1.278 . S
C226 O227 1.203 . S
C226 O233 1.267 . S
O227 C226 1.203 . S
O228 C221 1.185 . S
O228 Zn224 2.086 . S
C229 O225 1.278 . S
C229 O230 1.211 . S
O230 C229 1.211 . S
C231 O223 1.284 . S
C231 O232 1.273 . S
O232 C231 1.273 . S
O233 Zn224 1.977 . S
O233 C226 1.267 . S
C234 O235 1.160 . S
C234 O241 1.185 . S
O235 C234 1.160 . S
O236 Zn237 1.899 . S
O236 C244 1.284 . S
Zn237 O236 1.899 . S
Zn237 O238 2.032 . S
Zn237 O241 2.086 . S
Zn237 O246 1.977 . S
O238 Zn237 2.032 . S
O238 C242 1.278 . S
C239 O240 1.203 . S
C239 O246 1.267 . S
O240 C239 1.203 . S
O241 C234 1.185 . S
O241 Zn237 2.086 . S
C242 O238 1.278 . S
C242 O243 1.211 . S
O243 C242 1.211 . S
C244 O236 1.284 . S
C244 O245 1.273 . S
O245 C244 1.273 . S
O246 Zn237 1.977 . S
O246 C239 1.267 . S
C247 O248 1.160 . S
C247 O254 1.185 . S
O248 C247 1.160 . S
O249 Zn250 1.899 . S
O249 C257 1.284 . S
Zn250 O249 1.899 . S
Zn250 O251 2.032 . S
Zn250 O254 2.086 . S
Zn250 O259 1.977 . S
O251 Zn250 2.032 . S
O251 C255 1.278 . S
C252 O253 1.203 . S
C252 O259 1.267 . S
O253 C252 1.203 . S
O254 C247 1.185 . S
O254 Zn250 2.086 . S
C255 O251 1.278 . S
C255 O256 1.211 . S
O256 C255 1.211 . S
C257 O249 1.284 . S
C257 O258 1.273 . S
O258 C257 1.273 . S
O259 Zn250 1.977 . S
O259 C252 1.267 . S
C260 O261 1.160 . S
C260 O267 1.185 1_554 S
O261 C260 1.160 . S
O262 Zn263 1.899 . S
O262 C270 1.284 . S
Zn263 O262 1.899 . S
Zn263 O264 2.032 1_554 S
Zn263 O267 2.086 1_554 S
Zn263 O272 1.977 1_554 S
O264 Zn263 2.032 1_556 S
O264 C268 1.278 . S
C265 O266 1.203 1_556 S
C265 O272 1.267 . S
O266 C265 1.203 1_554 S
O267 C260 1.185 1_556 S
O267 Zn263 2.086 1_556 S
C268 O264 1.278 . S
C268 O269 1.211 . S
O269 C268 1.211 . S
C270 O262 1.284 . S
C270 O271 1.273 . S
O271 C270 1.273 . S
O272 Zn263 1.977 1_556 S
O272 C265 1.267 . S
C273 O274 1.160 . S
C273 O280 1.185 . S
O274 C273 1.160 . S
O275 Zn276 1.899 . S
O275 C283 1.284 1_655 S
Zn276 O275 1.899 . S
Zn276 O277 2.032 1_655 S
Zn276 O280 2.086 . S
Zn276 O285 1.977 . S
O277 Zn276 2.032 1_455 S
O277 C281 1.278 . S
C278 O279 1.203 . S
C278 O285 1.267 . S
O279 C278 1.203 . S
O280 C273 1.185 . S
O280 Zn276 2.086 . S
C281 O277 1.278 . S
C281 O282 1.211 . S
O282 C281 1.211 . S
C283 O275 1.284 1_455 S
C283 O284 1.273 . S
O284 C283 1.273 . S
O285 Zn276 1.977 . S
O285 C278 1.267 . S
C286 O287 1.160 . S
C286 O293 1.185 . S
O287 C286 1.160 . S
O288 Zn289 1.899 . S
O288 C296 1.284 . S
Zn289 O288 1.899 . S
Zn289 O290 2.032 . S
Zn289 O293 2.086 . S
Zn289 O298 1.977 . S
O290 Zn289 2.032 . S
O290 C294 1.278 . S
C291 O292 1.203 . S
C291 O298 1.267 1_455 S
O292 C291 1.203 . S
O293 C286 1.185 . S
O293 Zn289 2.086 . S
C294 O290 1.278 . S
C294 O295 1.211 . S
O295 C294 1.211 . S
C296 O288 1.284 . S
C296 O297 1.273 . S
O297 C296 1.273 . S
O298 Zn289 1.977 . S
O298 C291 1.267 1_655 S
C299 O300 1.160 . S
C299 O306 1.185 . S
O300 C299 1.160 . S
O301 Zn302 1.899 . S
O301 C309 1.284 . S
Zn302 O301 1.899 . S
Zn302 O303 2.032 . S
Zn302 O306 2.086 . S
Zn302 O311 1.977 . S
O303 Zn302 2.032 . S
O303 C307 1.278 . S
C304 O305 1.203 . S
C304 O311 1.267 . S
O305 C304 1.203 . S
O306 C299 1.185 . S
O306 Zn302 2.086 . S
C307 O303 1.278 . S
C307 O308 1.211 . S
O308 C307 1.211 . S
C309 O301 1.284 . S
C309 O310 1.273 . S
O310 C309 1.273 . S
O311 Zn302 1.977 . S
O311 C304 1.267 . S
Ho312 C315 2.811 1_455 S
Ho312 O332 2.322 . S
Ho312 O334 2.378 1_455 S
Ho312 O335 2.524 1_456 S
Ho312 O336 2.381 . S
Ho312 O337 2.669 . S
Ho312 O339 2.346 1_546 S
Ho312 O343 2.305 1_556 S
Ho313 C324 2.811 . S
Ho313 O333 2.346 . S
Ho313 O337 2.305 1_554 S
Ho313 O338 2.322 . S
Ho313 O340 2.378 . S
Ho313 O341 2.524 . S
Ho313 O342 2.381 . S
Ho313 O343 2.669 . S
C314 O332 1.259 1_554 S
C314 O333 1.268 . S
C315 Ho312 2.811 1_655 S
C315 C316 1.488 . S
C315 O334 1.215 . S
C315 O335 1.289 1_556 S
C316 C315 1.488 . S
C316 C317 1.348 . S
C316 C321 1.413 . S
C317 C316 1.348 . S
C317 C318 1.442 . S
C317 H344 0.930 1_556 S
C318 C317 1.442 . S
C318 C319 1.381 . S
C318 H345 0.931 . S
C319 C318 1.381 . S
C319 C320 1.321 . S
C320 C319 1.321 . S
C320 C321 1.403 . S
C320 H346 0.934 . S
C321 C316 1.413 . S
C321 C320 1.403 . S
C321 H347 0.930 . S
C322 O336 1.275 . S
C322 O337 1.256 . S
C323 O338 1.259 1_565 S
C323 O339 1.268 . S
C324 Ho313 2.811 . S
C324 C325 1.488 . S
C324 O340 1.215 . S
C324 O341 1.289 . S
C325 C324 1.488 . S
C325 C326 1.348 . S
C325 C330 1.413 . S
C326 C325 1.348 . S
C326 C327 1.442 . S
C326 H348 0.930 . S
C327 C326 1.442 . S
C327 C328 1.381 . S
C327 H349 0.931 . S
C328 C327 1.381 . S
C328 C329 1.321 . S
C329 C328 1.321 . S
C329 C330 1.403 . S
C329 H350 0.934 . S
C330 C325 1.413 . S
C330 C329 1.403 . S
C330 H351 0.930 . S
C331 O342 1.275 . S
C331 O343 1.256 . S
O332 Ho312 2.322 . S
O332 C314 1.259 1_556 S
O333 Ho313 2.346 . S
O333 C314 1.268 . S
O334 Ho312 2.378 1_655 S
O334 C315 1.215 . S
O335 Ho312 2.524 1_654 S
O335 C315 1.289 1_554 S
O336 Ho312 2.381 . S
O336 C322 1.275 . S
O337 Ho312 2.669 . S
O337 Ho313 2.305 1_556 S
O337 C322 1.256 . S
O338 Ho313 2.322 . S
O338 C323 1.259 1_545 S
O339 Ho312 2.346 1_564 S
O339 C323 1.268 . S
O340 Ho313 2.378 . S
O340 C324 1.215 . S
O341 Ho313 2.524 . S
O341 C324 1.289 . S
O342 Ho313 2.381 . S
O342 C331 1.275 . S
O343 Ho312 2.305 1_554 S
O343 Ho313 2.669 . S
O343 C331 1.256 . S
H344 C317 0.930 1_554 S
H345 C318 0.931 . S
H346 C320 0.934 . S
H347 C321 0.930 . S
H348 C326 0.930 . S
H349 C327 0.931 . S
H350 C329 0.934 . S
H351 C330 0.930 . S
Ho352 C355 2.811 . S
Ho352 O372 2.322 . S
Ho352 O374 2.378 . S
Ho352 O375 2.524 . S
Ho352 O376 2.381 . S
Ho352 O377 2.669 . S
Ho352 O379 2.346 . S
Ho352 O383 2.305 . S
Ho353 C364 2.811 . S
Ho353 O373 2.346 . S
Ho353 O377 2.305 . S
Ho353 O378 2.322 . S
Ho353 O380 2.378 . S
Ho353 O381 2.524 . S
Ho353 O382 2.381 . S
Ho353 O383 2.669 . S
C354 O372 1.259 . S
C354 O373 1.268 . S
C355 Ho352 2.811 . S
C355 C356 1.488 . S
C355 O374 1.215 . S
C355 O375 1.289 . S
C356 C355 1.488 . S
C356 C357 1.348 . S
C356 C361 1.413 . S
C357 C356 1.348 . S
C357 C358 1.442 . S
C357 H384 0.930 . S
C358 C357 1.442 . S
C358 C359 1.381 . S
C358 H385 0.931 . S
C359 C358 1.381 . S
C359 C360 1.321 . S
C360 C359 1.321 . S
C360 C361 1.403 . S
C360 H386 0.934 . S
C361 C356 1.413 . S
C361 C360 1.403 . S
C361 H387 0.930 . S
C362 O376 1.275 . S
C362 O377 1.256 . S
C363 O378 1.259 . S
C363 O379 1.268 . S
C364 Ho353 2.811 . S
C364 C365 1.488 . S
C364 O380 1.215 . S
C364 O381 1.289 . S
C365 C364 1.488 . S
C365 C366 1.348 . S
C365 C370 1.413 . S
C366 C365 1.348 . S
C366 C367 1.442 . S
C366 H388 0.930 . S
C367 C366 1.442 . S
C367 C368 1.381 . S
C367 H389 0.931 . S
C368 C367 1.381 . S
C368 C369 1.321 . S
C369 C368 1.321 . S
C369 C370 1.403 . S
C369 H390 0.934 . S
C370 C365 1.413 . S
C370 C369 1.403 . S
C370 H391 0.930 . S
C371 O382 1.275 . S
C371 O383 1.256 . S
O372 Ho352 2.322 . S
O372 C354 1.259 . S
O373 Ho353 2.346 . S
O373 C354 1.268 . S
O374 Ho352 2.378 . S
O374 C355 1.215 . S
O375 Ho352 2.524 . S
O375 C355 1.289 . S
O376 Ho352 2.381 . S
O376 C362 1.275 . S
O377 Ho352 2.669 . S
O377 Ho353 2.305 . S
O377 C362 1.256 . S
O378 Ho353 2.322 . S
O378 C363 1.259 . S
O379 Ho352 2.346 . S
O379 C363 1.268 . S
O380 Ho353 2.378 . S
O380 C364 1.215 . S
O381 Ho353 2.524 . S
O381 C364 1.289 . S
O382 Ho353 2.381 . S
O382 C371 1.275 . S
O383 Ho352 2.305 . S
O383 Ho353 2.669 . S
O383 C371 1.256 . S
H384 C357 0.930 . S
H385 C358 0.931 . S
H386 C360 0.934 . S
H387 C361 0.930 . S
H388 C366 0.930 . S
H389 C367 0.931 . S
H390 C369 0.934 . S
H391 C370 0.930 . S
Ho392 C395 2.811 . S
Ho392 O412 2.322 1_545 S
Ho392 O414 2.378 . S
Ho392 O415 2.524 . S
Ho392 O416 2.381 . S
Ho392 O417 2.669 . S
Ho392 O419 2.346 . S
Ho392 O423 2.305 . S
Ho393 C404 2.811 . S
Ho393 O413 2.346 1_545 S
Ho393 O417 2.305 . S
Ho393 O418 2.322 . S
Ho393 O420 2.378 . S
Ho393 O421 2.524 . S
Ho393 O422 2.381 . S
Ho393 O423 2.669 . S
C394 O412 1.259 . S
C394 O413 1.268 . S
C395 Ho392 2.811 . S
C395 C396 1.488 1_545 S
C395 O414 1.215 . S
C395 O415 1.289 . S
C396 C395 1.488 1_565 S
C396 C397 1.348 . S
C396 C401 1.413 . S
C397 C396 1.348 . S
C397 C398 1.442 . S
C397 H424 0.930 . S
C398 C397 1.442 . S
C398 C399 1.381 . S
C398 H425 0.931 . S
C399 C398 1.381 . S
C399 C400 1.321 . S
C400 C399 1.321 . S
C400 C401 1.403 . S
C400 H426 0.934 . S
C401 C396 1.413 . S
C401 C400 1.403 . S
C401 H427 0.930 . S
C402 O416 1.275 . S
C402 O417 1.256 . S
C403 O418 1.259 . S
C403 O419 1.268 . S
C404 Ho393 2.811 . S
C404 C405 1.488 . S
C404 O420 1.215 . S
C404 O421 1.289 . S
C405 C404 1.488 . S
C405 C406 1.348 . S
C405 C410 1.413 . S
C406 C405 1.348 . S
C406 C407 1.442 . S
C406 H428 0.930 . S
C407 C406 1.442 . S
C407 C408 1.381 . S
C407 H429 0.931 . S
C408 C407 1.381 . S
C408 C409 1.321 . S
C409 C408 1.321 . S
C409 C410 1.403 . S
C409 H430 0.934 . S
C410 C405 1.413 . S
C410 C409 1.403 . S
C410 H431 0.930 . S
C411 O422 1.275 . S
C411 O423 1.256 . S
O412 Ho392 2.322 1_565 S
O412 C394 1.259 . S
O413 Ho393 2.346 1_565 S
O413 C394 1.268 . S
O414 Ho392 2.378 . S
O414 C395 1.215 . S
O415 Ho392 2.524 . S
O415 C395 1.289 . S
O416 Ho392 2.381 . S
O416 C402 1.275 . S
O417 Ho392 2.669 . S
O417 Ho393 2.305 . S
O417 C402 1.256 . S
O418 Ho393 2.322 . S
O418 C403 1.259 . S
O419 Ho392 2.346 . S
O419 C403 1.268 . S
O420 Ho393 2.378 . S
O420 C404 1.215 . S
O421 Ho393 2.524 . S
O421 C404 1.289 . S
O422 Ho393 2.381 . S
O422 C411 1.275 . S
O423 Ho392 2.305 . S
O423 Ho393 2.669 . S
O423 C411 1.256 . S
H424 C397 0.930 . S
H425 C398 0.931 . S
H426 C400 0.934 . S
H427 C401 0.930 . S
H428 C406 0.930 . S
H429 C407 0.931 . S
H430 C409 0.934 . S
H431 C410 0.930 . S
Ho432 C435 2.811 . S
Ho432 O452 2.322 . S
Ho432 O454 2.378 . S
Ho432 O455 2.524 . S
Ho432 O456 2.381 . S
Ho432 O457 2.669 . S
Ho432 O459 2.346 . S
Ho432 O463 2.305 . S
Ho433 C444 2.811 . S
Ho433 O453 2.346 . S
Ho433 O457 2.305 . S
Ho433 O458 2.322 . S
Ho433 O460 2.378 . S
Ho433 O461 2.524 . S
Ho433 O462 2.381 . S
Ho433 O463 2.669 . S
C434 O452 1.259 . S
C434 O453 1.268 . S
C435 Ho432 2.811 . S
C435 C436 1.488 . S
C435 O454 1.215 . S
C435 O455 1.289 . S
C436 C435 1.488 . S
C436 C437 1.348 . S
C436 C441 1.413 . S
C437 C436 1.348 . S
C437 C438 1.442 . S
C437 H464 0.930 . S
C438 C437 1.442 . S
C438 C439 1.381 . S
C438 H465 0.931 . S
C439 C438 1.381 . S
C439 C440 1.321 . S
C440 C439 1.321 . S
C440 C441 1.403 . S
C440 H466 0.934 . S
C441 C436 1.413 . S
C441 C440 1.403 . S
C441 H467 0.930 . S
C442 O456 1.275 . S
C442 O457 1.256 . S
C443 O458 1.259 . S
C443 O459 1.268 . S
C444 Ho433 2.811 . S
C444 C445 1.488 . S
C444 O460 1.215 . S
C444 O461 1.289 . S
C445 C444 1.488 . S
C445 C446 1.348 . S
C445 C450 1.413 . S
C446 C445 1.348 . S
C446 C447 1.442 . S
C446 H468 0.930 . S
C447 C446 1.442 . S
C447 C448 1.381 . S
C447 H469 0.931 . S
C448 C447 1.381 . S
C448 C449 1.321 . S
C449 C448 1.321 . S
C449 C450 1.403 . S
C449 H470 0.934 . S
C450 C445 1.413 . S
C450 C449 1.403 . S
C450 H471 0.930 . S
C451 O462 1.275 . S
C451 O463 1.256 . S
O452 Ho432 2.322 . S
O452 C434 1.259 . S
O453 Ho433 2.346 . S
O453 C434 1.268 . S
O454 Ho432 2.378 . S
O454 C435 1.215 . S
O455 Ho432 2.524 . S
O455 C435 1.289 . S
O456 Ho432 2.381 . S
O456 C442 1.275 . S
O457 Ho432 2.669 . S
O457 Ho433 2.305 . S
O457 C442 1.256 . S
O458 Ho433 2.322 . S
O458 C443 1.259 . S
O459 Ho432 2.346 . S
O459 C443 1.268 . S
O460 Ho433 2.378 . S
O460 C444 1.215 . S
O461 Ho433 2.524 . S
O461 C444 1.289 . S
O462 Ho433 2.381 . S
O462 C451 1.275 . S
O463 Ho432 2.305 . S
O463 Ho433 2.669 . S
O463 C451 1.256 . S
H464 C437 0.930 . S
H465 C438 0.931 . S
H466 C440 0.934 . S
H467 C441 0.930 . S
H468 C446 0.930 . S
H469 C447 0.931 . S
H470 C449 0.934 . S
H471 C450 0.930 . S
Ho472 C475 2.811 . S
Ho472 O492 2.322 . S
Ho472 O494 2.378 . S
Ho472 O495 2.524 . S
Ho472 O496 2.381 . S
Ho472 O497 2.669 . S
Ho472 O499 2.346 . S
Ho472 O503 2.305 . S
Ho473 C484 2.811 . S
Ho473 O493 2.346 1_565 S
Ho473 O497 2.305 1_565 S
Ho473 O498 2.322 1_565 S
Ho473 O500 2.378 . S
Ho473 O501 2.524 . S
Ho473 O502 2.381 1_565 S
Ho473 O503 2.669 1_565 S
C474 O492 1.259 . S
C474 O493 1.268 . S
C475 Ho472 2.811 . S
C475 C476 1.488 . S
C475 O494 1.215 . S
C475 O495 1.289 . S
C476 C475 1.488 . S
C476 C477 1.348 . S
C476 C481 1.413 . S
C477 C476 1.348 . S
C477 C478 1.442 . S
C477 H504 0.930 . S
C478 C477 1.442 . S
C478 C479 1.381 . S
C478 H505 0.931 . S
C479 C478 1.381 . S
C479 C480 1.321 . S
C480 C479 1.321 . S
C480 C481 1.403 . S
C480 H506 0.934 . S
C481 C476 1.413 . S
C481 C480 1.403 . S
C481 H507 0.930 . S
C482 O496 1.275 . S
C482 O497 1.256 . S
C483 O498 1.259 . S
C483 O499 1.268 . S
C484 Ho473 2.811 . S
C484 C485 1.488 . S
C484 O500 1.215 . S
C484 O501 1.289 . S
C485 C484 1.488 . S
C485 C486 1.348 . S
C485 C490 1.413 . S
C486 C485 1.348 . S
C486 C487 1.442 . S
C486 H508 0.930 . S
C487 C486 1.442 . S
C487 C488 1.381 . S
C487 H509 0.931 . S
C488 C487 1.381 . S
C488 C489 1.321 . S
C489 C488 1.321 . S
C489 C490 1.403 . S
C489 H510 0.934 . S
C490 C485 1.413 . S
C490 C489 1.403 . S
C490 H511 0.930 . S
C491 O502 1.275 . S
C491 O503 1.256 . S
O492 Ho472 2.322 . S
O492 C474 1.259 . S
O493 Ho473 2.346 1_545 S
O493 C474 1.268 . S
O494 Ho472 2.378 . S
O494 C475 1.215 . S
O495 Ho472 2.524 . S
O495 C475 1.289 . S
O496 Ho472 2.381 . S
O496 C482 1.275 . S
O497 Ho472 2.669 . S
O497 Ho473 2.305 1_545 S
O497 C482 1.256 . S
O498 Ho473 2.322 1_545 S
O498 C483 1.259 . S
O499 Ho472 2.346 . S
O499 C483 1.268 . S
O500 Ho473 2.378 . S
O500 C484 1.215 . S
O501 Ho473 2.524 . S
O501 C484 1.289 . S
O502 Ho473 2.381 1_545 S
O502 C491 1.275 . S
O503 Ho472 2.305 . S
O503 Ho473 2.669 1_545 S
O503 C491 1.256 . S
H504 C477 0.930 . S
H505 C478 0.931 . S
H506 C480 0.934 . S
H507 C481 0.930 . S
H508 C486 0.930 . S
H509 C487 0.931 . S
H510 C489 0.934 . S
H511 C490 0.930 . S
Ho512 C515 2.811 . S
Ho512 O532 2.322 . S
Ho512 O534 2.378 . S
Ho512 O535 2.524 . S
Ho512 O536 2.381 . S
Ho512 O537 2.669 . S
Ho512 O539 2.346 . S
Ho512 O543 2.305 . S
Ho513 C524 2.811 . S
Ho513 O533 2.346 . S
Ho513 O537 2.305 . S
Ho513 O538 2.322 . S
Ho513 O540 2.378 . S
Ho513 O541 2.524 . S
Ho513 O542 2.381 . S
Ho513 O543 2.669 . S
C514 O532 1.259 . S
C514 O533 1.268 . S
C515 Ho512 2.811 . S
C515 C516 1.488 . S
C515 O534 1.215 . S
C515 O535 1.289 . S
C516 C515 1.488 . S
C516 C517 1.348 . S
C516 C521 1.413 . S
C517 C516 1.348 . S
C517 C518 1.442 . S
C517 H544 0.930 . S
C518 C517 1.442 . S
C518 C519 1.381 . S
C518 H545 0.931 . S
C519 C518 1.381 . S
C519 C520 1.321 . S
C520 C519 1.321 . S
C520 C521 1.403 . S
C520 H546 0.934 . S
C521 C516 1.413 . S
C521 C520 1.403 . S
C521 H547 0.930 . S
C522 O536 1.275 . S
C522 O537 1.256 . S
C523 O538 1.259 . S
C523 O539 1.268 . S
C524 Ho513 2.811 . S
C524 C525 1.488 . S
C524 O540 1.215 . S
C524 O541 1.289 . S
C525 C524 1.488 . S
C525 C526 1.348 . S
C525 C530 1.413 . S
C526 C525 1.348 . S
C526 C527 1.442 . S
C526 H548 0.930 . S
C527 C526 1.442 . S
C527 C528 1.381 . S
C527 H549 0.931 . S
C528 C527 1.381 . S
C528 C529 1.321 . S
C529 C528 1.321 . S
C529 C530 1.403 . S
C529 H550 0.934 . S
C530 C525 1.413 . S
C530 C529 1.403 . S
C530 H551 0.930 . S
C531 O542 1.275 . S
C531 O543 1.256 . S
O532 Ho512 2.322 . S
O532 C514 1.259 . S
O533 Ho513 2.346 . S
O533 C514 1.268 . S
O534 Ho512 2.378 . S
O534 C515 1.215 . S
O535 Ho512 2.524 . S
O535 C515 1.289 . S
O536 Ho512 2.381 . S
O536 C522 1.275 . S
O537 Ho512 2.669 . S
O537 Ho513 2.305 . S
O537 C522 1.256 . S
O538 Ho513 2.322 . S
O538 C523 1.259 . S
O539 Ho512 2.346 . S
O539 C523 1.268 . S
O540 Ho513 2.378 . S
O540 C524 1.215 . S
O541 Ho513 2.524 . S
O541 C524 1.289 . S
O542 Ho513 2.381 . S
O542 C531 1.275 . S
O543 Ho512 2.305 . S
O543 Ho513 2.669 . S
O543 C531 1.256 . S
H544 C517 0.930 . S
H545 C518 0.931 . S
H546 C520 0.934 . S
H547 C521 0.930 . S
H548 C526 0.930 . S
H549 C527 0.931 . S
H550 C529 0.934 . S
H551 C530 0.930 . S
Ho552 C555 2.811 . S
Ho552 O572 2.322 1_545 S
Ho552 O574 2.378 1_545 S
Ho552 O575 2.524 . S
Ho552 O576 2.381 1_545 S
Ho552 O577 2.669 1_554 S
Ho552 O579 2.346 . S
Ho552 O583 2.305 . S
Ho553 C564 2.811 . S
Ho553 O573 2.346 . S
Ho553 O577 2.305 . S
Ho553 O578 2.322 1_556 S
Ho553 O580 2.378 . S
Ho553 O581 2.524 . S
Ho553 O582 2.381 1_556 S
Ho553 O583 2.669 1_556 S
C554 O572 1.269 . S
C554 O573 1.253 1_564 S
C555 Ho552 2.811 . S
C555 C556 1.488 1_545 S
C555 O574 1.215 1_545 S
C555 O575 1.289 . S
C556 C555 1.488 1_565 S
C556 C557 1.348 1_565 S
C556 C561 1.413 . S
C557 C556 1.348 1_545 S
C557 C558 1.442 1_545 S
C557 H584 0.930 . S
C558 C557 1.442 1_565 S
C558 C559 1.381 . S
C558 H585 0.931 . S
C559 C558 1.381 . S
C559 C560 1.321 . S
C560 C559 1.321 . S
C560 C561 1.403 . S
C560 H586 0.934 . S
C561 C556 1.413 . S
C561 C560 1.403 . S
C561 H587 0.930 . S
C562 O576 1.275 1_556 S
C562 O577 1.256 1_565 S
C563 O578 1.259 . S
C563 O579 1.268 . S
C564 Ho553 2.811 . S
C564 C565 1.488 . S
C564 O580 1.215 . S
C564 O581 1.289 . S
C565 C564 1.488 . S
C565 C566 1.348 . S
C565 C570 1.413 . S
C566 C565 1.348 . S
C566 C567 1.442 . S
C566 H588 0.930 . S
C567 C566 1.442 . S
C567 C568 1.381 . S
C567 H589 0.931 . S
C568 C567 1.381 . S
C568 C569 1.321 . S
C569 C568 1.321 . S
C569 C570 1.403 . S
C569 H590 0.934 . S
C570 C565 1.413 . S
C570 C569 1.403 . S
C570 H591 0.930 . S
C571 O582 1.275 . S
C571 O583 1.256 . S
O572 Ho552 2.322 1_565 S
O572 C554 1.269 . S
O573 Ho553 2.346 . S
O573 C554 1.253 1_546 S
O574 Ho552 2.378 1_565 S
O574 C555 1.215 1_565 S
O575 Ho552 2.524 . S
O575 C555 1.289 . S
O576 Ho552 2.381 1_565 S
O576 C562 1.275 1_554 S
O577 Ho552 2.669 1_556 S
O577 Ho553 2.305 . S
O577 C562 1.256 1_545 S
O578 Ho553 2.322 1_554 S
O578 C563 1.259 . S
O579 Ho552 2.346 . S
O579 C563 1.268 . S
O580 Ho553 2.378 . S
O580 C564 1.215 . S
O581 Ho553 2.524 . S
O581 C564 1.289 . S
O582 Ho553 2.381 1_554 S
O582 C571 1.275 . S
O583 Ho552 2.305 . S
O583 Ho553 2.669 1_554 S
O583 C571 1.256 . S
H584 C557 0.930 . S
H585 C558 0.931 . S
H586 C560 0.934 . S
H587 C561 0.930 . S
H588 C566 0.930 . S
H589 C567 0.931 . S
H590 C569 0.934 . S
H591 C570 0.930 . S
Ho592 C595 2.811 . S
Ho592 O612 2.322 . S
Ho592 O614 2.378 . S
Ho592 O615 2.524 . S
Ho592 O616 2.381 . S
Ho592 O617 2.669 . S
Ho592 O619 2.346 . S
Ho592 O623 2.305 . S
Ho593 C604 2.811 . S
Ho593 O613 2.346 . S
Ho593 O617 2.305 . S
Ho593 O618 2.322 . S
Ho593 O620 2.378 . S
Ho593 O621 2.524 . S
Ho593 O622 2.381 . S
Ho593 O623 2.669 . S
C594 O612 1.259 . S
C594 O613 1.268 . S
C595 Ho592 2.811 . S
C595 C596 1.488 . S
C595 O614 1.215 . S
C595 O615 1.289 . S
C596 C595 1.488 . S
C596 C597 1.348 . S
C596 C601 1.413 . S
C597 C596 1.348 . S
C597 C598 1.442 . S
C597 H624 0.930 . S
C598 C597 1.442 . S
C598 C599 1.381 . S
C598 H625 0.931 . S
C599 C598 1.381 . S
C599 C600 1.321 . S
C600 C599 1.321 . S
C600 C601 1.403 . S
C600 H626 0.934 . S
C601 C596 1.413 . S
C601 C600 1.403 . S
C601 H627 0.930 . S
C602 O616 1.275 . S
C602 O617 1.256 . S
C603 O618 1.259 . S
C603 O619 1.268 . S
C604 Ho593 2.811 . S
C604 C605 1.488 . S
C604 O620 1.215 . S
C604 O621 1.289 . S
C605 C604 1.488 . S
C605 C606 1.348 . S
C605 C610 1.413 . S
C606 C605 1.348 . S
C606 C607 1.442 . S
C606 H628 0.930 . S
C607 C606 1.442 . S
C607 C608 1.381 . S
C607 H629 0.931 . S
C608 C607 1.381 . S
C608 C609 1.321 . S
C609 C608 1.321 . S
C609 C610 1.403 . S
C609 H630 0.934 . S
C610 C605 1.413 . S
C610 C609 1.403 . S
C610 H631 0.930 . S
C611 O622 1.275 . S
C611 O623 1.256 . S
O612 Ho592 2.322 . S
O612 C594 1.259 . S
O613 Ho593 2.346 . S
O613 C594 1.268 . S
O614 Ho592 2.378 . S
O614 C595 1.215 . S
O615 Ho592 2.524 . S
O615 C595 1.289 . S
O616 Ho592 2.381 . S
O616 C602 1.275 . S
O617 Ho592 2.669 . S
O617 Ho593 2.305 . S
O617 C602 1.256 . S
O618 Ho593 2.322 . S
O618 C603 1.259 . S
O619 Ho592 2.346 . S
O619 C603 1.268 . S
O620 Ho593 2.378 . S
O620 C604 1.215 . S
O621 Ho593 2.524 . S
O621 C604 1.289 . S
O622 Ho593 2.381 . S
O622 C611 1.275 . S
O623 Ho592 2.305 . S
O623 Ho593 2.669 . S
O623 C611 1.256 . S
H624 C597 0.930 . S
H625 C598 0.931 . S
H626 C600 0.934 . S
H627 C601 0.930 . S
H628 C606 0.930 . S
H629 C607 0.931 . S
H630 C609 0.934 . S
H631 C610 0.930 . S
Ho632 C635 2.811 . S
Ho632 O652 2.322 1_554 S
Ho632 O654 2.378 . S
Ho632 O655 2.524 . S
Ho632 O656 2.381 . S
Ho632 O657 2.669 . S
Ho632 O659 2.346 . S
Ho632 O663 2.305 . S
Ho633 C644 2.811 1_556 S
Ho633 O653 2.346 . S
Ho633 O657 2.305 1_556 S
Ho633 O658 2.322 1_556 S
Ho633 O660 2.378 . S
Ho633 O661 2.524 1_556 S
Ho633 O662 2.381 . S
Ho633 O663 2.669 1_556 S
C634 O652 1.259 . S
C634 O653 1.268 . S
C635 Ho632 2.811 . S
C635 C636 1.488 . S
C635 O654 1.215 . S
C635 O655 1.289 . S
C636 C635 1.488 . S
C636 C637 1.348 1_554 S
C636 C641 1.413 . S
C637 C636 1.348 1_556 S
C637 C638 1.442 . S
C637 H664 0.930 . S
C638 C637 1.442 . S
C638 C639 1.381 . S
C638 H665 0.931 . S
C639 C638 1.381 . S
C639 C640 1.321 1_556 S
C640 C639 1.321 1_554 S
C640 C641 1.403 . S
C640 H666 0.934 . S
C641 C636 1.413 . S
C641 C640 1.403 . S
C641 H667 0.930 . S
C642 O656 1.275 . S
C642 O657 1.256 . S
C643 O658 1.259 . S
C643 O659 1.268 . S
C644 Ho633 2.811 1_554 S
C644 C645 1.488 . S
C644 O660 1.215 1_554 S
C644 O661 1.289 . S
C645 C644 1.488 . S
C645 C646 1.348 . S
C645 C650 1.413 . S
C646 C645 1.348 . S
C646 C647 1.442 . S
C646 H668 0.930 . S
C647 C646 1.442 . S
C647 C648 1.381 . S
C647 H669 0.931 . S
C648 C647 1.381 . S
C648 C649 1.321 . S
C649 C648 1.321 . S
C649 C650 1.403 . S
C649 H670 0.934 . S
C650 C645 1.413 . S
C650 C649 1.403 . S
C650 H671 0.930 . S
C651 O662 1.275 1_554 S
C651 O663 1.256 . S
O652 Ho632 2.322 1_556 S
O652 C634 1.259 . S
O653 Ho633 2.346 . S
O653 C634 1.268 . S
O654 Ho632 2.378 . S
O654 C635 1.215 . S
O655 Ho632 2.524 . S
O655 C635 1.289 . S
O656 Ho632 2.381 . S
O656 C642 1.275 . S
O657 Ho632 2.669 . S
O657 Ho633 2.305 1_554 S
O657 C642 1.256 . S
O658 Ho633 2.322 1_554 S
O658 C643 1.259 . S
O659 Ho632 2.346 . S
O659 C643 1.268 . S
O660 Ho633 2.378 . S
O660 C644 1.215 1_556 S
O661 Ho633 2.524 1_554 S
O661 C644 1.289 . S
O662 Ho633 2.381 . S
O662 C651 1.275 1_556 S
O663 Ho632 2.305 . S
O663 Ho633 2.669 1_554 S
O663 C651 1.256 . S
H664 C637 0.930 . S
H665 C638 0.931 . S
H666 C640 0.934 . S
H667 C641 0.930 . S
H668 C646 0.930 . S
H669 C647 0.931 . S
H670 C649 0.934 . S
H671 C650 0.930 . S
Ho672 C675 2.811 . S
Ho672 O692 2.322 . S
Ho672 O694 2.378 . S
Ho672 O695 2.524 . S
Ho672 O696 2.381 . S
Ho672 O697 2.669 . S
Ho672 O699 2.346 . S
Ho672 O703 2.305 . S
Ho673 C684 2.811 . S
Ho673 O693 2.346 . S
Ho673 O697 2.305 . S
Ho673 O698 2.322 . S
Ho673 O700 2.378 . S
Ho673 O701 2.524 . S
Ho673 O702 2.381 . S
Ho673 O703 2.669 . S
C674 O692 1.259 . S
C674 O693 1.268 . S
C675 Ho672 2.811 . S
C675 C676 1.488 1_655 S
C675 O694 1.215 . S
C675 O695 1.289 . S
C676 C675 1.488 1_455 S
C676 C677 1.348 . S
C676 C681 1.413 . S
C677 C676 1.348 . S
C677 C678 1.442 . S
C677 H704 0.930 . S
C678 C677 1.442 . S
C678 C679 1.381 . S
C678 H705 0.931 . S
C679 C678 1.381 . S
C679 C680 1.321 . S
C680 C679 1.321 . S
C680 C681 1.403 . S
C680 H706 0.934 . S
C681 C676 1.413 . S
C681 C680 1.403 . S
C681 H707 0.930 . S
C682 O696 1.275 . S
C682 O697 1.256 . S
C683 O698 1.259 . S
C683 O699 1.268 . S
C684 Ho673 2.811 . S
C684 C685 1.488 . S
C684 O700 1.215 . S
C684 O701 1.289 . S
C685 C684 1.488 . S
C685 C686 1.348 . S
C685 C690 1.413 . S
C686 C685 1.348 . S
C686 C687 1.442 . S
C686 H708 0.930 . S
C687 C686 1.442 . S
C687 C688 1.381 . S
C687 H709 0.931 . S
C688 C687 1.381 . S
C688 C689 1.321 . S
C689 C688 1.321 . S
C689 C690 1.403 . S
C689 H710 0.934 . S
C690 C685 1.413 . S
C690 C689 1.403 . S
C690 H711 0.930 . S
C691 O702 1.275 . S
C691 O703 1.256 . S
O692 Ho672 2.322 . S
O692 C674 1.259 . S
O693 Ho673 2.346 . S
O693 C674 1.268 . S
O694 Ho672 2.378 . S
O694 C675 1.215 . S
O695 Ho672 2.524 . S
O695 C675 1.289 . S
O696 Ho672 2.381 . S
O696 C682 1.275 . S
O697 Ho672 2.669 . S
O697 Ho673 2.305 . S
O697 C682 1.256 . S
O698 Ho673 2.322 . S
O698 C683 1.259 . S
O699 Ho672 2.346 . S
O699 C683 1.268 . S
O700 Ho673 2.378 . S
O700 C684 1.215 . S
O701 Ho673 2.524 . S
O701 C684 1.289 . S
O702 Ho673 2.381 . S
O702 C691 1.275 . S
O703 Ho672 2.305 . S
O703 Ho673 2.669 . S
O703 C691 1.256 . S
H704 C677 0.930 . S
H705 C678 0.931 . S
H706 C680 0.934 . S
H707 C681 0.930 . S
H708 C686 0.930 . S
H709 C687 0.931 . S
H710 C689 0.934 . S
H711 C690 0.930 . S
Ho712 C715 2.811 . S
Ho712 O732 2.322 . S
Ho712 O734 2.378 . S
Ho712 O735 2.524 . S
Ho712 O736 2.381 . S
Ho712 O737 2.669 . S
Ho712 O739 2.346 . S
Ho712 O743 2.305 . S
Ho713 C724 2.811 . S
Ho713 O733 2.346 . S
Ho713 O737 2.305 . S
Ho713 O738 2.322 . S
Ho713 O740 2.378 . S
Ho713 O741 2.524 . S
Ho713 O742 2.381 . S
Ho713 O743 2.669 . S
C714 O732 1.259 . S
C714 O733 1.268 . S
C715 Ho712 2.811 . S
C715 C716 1.488 . S
C715 O734 1.215 . S
C715 O735 1.289 . S
C716 C715 1.488 . S
C716 C717 1.348 . S
C716 C721 1.413 . S
C717 C716 1.348 . S
C717 C718 1.442 1_455 S
C717 H744 0.930 . S
C718 C717 1.442 1_655 S
C718 C719 1.381 . S
C718 H745 0.931 . S
C719 C718 1.381 . S
C719 C720 1.321 1_655 S
C720 C719 1.321 1_455 S
C720 C721 1.403 . S
C720 H746 0.934 . S
C721 C716 1.413 . S
C721 C720 1.403 . S
C721 H747 0.930 . S
C722 O736 1.275 . S
C722 O737 1.256 . S
C723 O738 1.259 . S
C723 O739 1.268 . S
C724 Ho713 2.811 . S
C724 C725 1.488 . S
C724 O740 1.215 . S
C724 O741 1.289 . S
C725 C724 1.488 . S
C725 C726 1.348 . S
C725 C730 1.413 . S
C726 C725 1.348 . S
C726 C727 1.442 . S
C726 H748 0.930 . S
C727 C726 1.442 . S
C727 C728 1.381 . S
C727 H749 0.931 . S
C728 C727 1.381 . S
C728 C729 1.321 . S
C729 C728 1.321 . S
C729 C730 1.403 . S
C729 H750 0.934 . S
C730 C725 1.413 . S
C730 C729 1.403 . S
C730 H751 0.930 . S
C731 O742 1.275 . S
C731 O743 1.256 . S
O732 Ho712 2.322 . S
O732 C714 1.259 . S
O733 Ho713 2.346 . S
O733 C714 1.268 . S
O734 Ho712 2.378 . S
O734 C715 1.215 . S
O735 Ho712 2.524 . S
O735 C715 1.289 . S
O736 Ho712 2.381 . S
O736 C722 1.275 . S
O737 Ho712 2.669 . S
O737 Ho713 2.305 . S
O737 C722 1.256 . S
O738 Ho713 2.322 . S
O738 C723 1.259 . S
O739 Ho712 2.346 . S
O739 C723 1.268 . S
O740 Ho713 2.378 . S
O740 C724 1.215 . S
O741 Ho713 2.524 . S
O741 C724 1.289 . S
O742 Ho713 2.381 . S
O742 C731 1.275 . S
O743 Ho712 2.305 . S
O743 Ho713 2.669 . S
O743 C731 1.256 . S
H744 C717 0.930 . S
H745 C718 0.931 . S
H746 C720 0.934 . S
H747 C721 0.930 . S
H748 C726 0.930 . S
H749 C727 0.931 . S
H750 C729 0.934 . S
H751 C730 0.930 . S
Ho752 C755 2.811 . S
Ho752 O772 2.322 . S
Ho752 O774 2.378 . S
Ho752 O775 2.524 . S
Ho752 O776 2.381 . S
Ho752 O777 2.669 . S
Ho752 O779 2.346 . S
Ho752 O783 2.305 . S
Ho753 C764 2.811 . S
Ho753 O773 2.346 . S
Ho753 O777 2.305 . S
Ho753 O778 2.322 . S
Ho753 O780 2.378 . S
Ho753 O781 2.524 . S
Ho753 O782 2.381 . S
Ho753 O783 2.669 . S
C754 O772 1.259 . S
C754 O773 1.268 . S
C755 Ho752 2.811 . S
C755 C756 1.488 . S
C755 O774 1.215 . S
C755 O775 1.289 . S
C756 C755 1.488 . S
C756 C757 1.348 . S
C756 C761 1.413 . S
C757 C756 1.348 . S
C757 C758 1.442 . S
C757 H784 0.930 . S
C758 C757 1.442 . S
C758 C759 1.381 . S
C758 H785 0.931 . S
C759 C758 1.381 . S
C759 C760 1.321 . S
C760 C759 1.321 . S
C760 C761 1.403 . S
C760 H786 0.934 . S
C761 C756 1.413 . S
C761 C760 1.403 . S
C761 H787 0.930 . S
C762 O776 1.275 . S
C762 O777 1.256 . S
C763 O778 1.259 . S
C763 O779 1.268 . S
C764 Ho753 2.811 . S
C764 C765 1.488 . S
C764 O780 1.215 . S
C764 O781 1.289 . S
C765 C764 1.488 . S
C765 C766 1.348 1_655 S
C765 C770 1.413 . S
C766 C765 1.348 1_455 S
C766 C767 1.442 . S
C766 H788 0.930 1_455 S
C767 C766 1.442 . S
C767 C768 1.381 . S
C767 H789 0.931 . S
C768 C767 1.381 . S
C768 C769 1.321 . S
C769 C768 1.321 . S
C769 C770 1.403 1_455 S
C769 H790 0.934 . S
C770 C765 1.413 . S
C770 C769 1.403 1_655 S
C770 H791 0.930 . S
C771 O782 1.275 . S
C771 O783 1.256 . S
O772 Ho752 2.322 . S
O772 C754 1.259 . S
O773 Ho753 2.346 . S
O773 C754 1.268 . S
O774 Ho752 2.378 . S
O774 C755 1.215 . S
O775 Ho752 2.524 . S
O775 C755 1.289 . S
O776 Ho752 2.381 . S
O776 C762 1.275 . S
O777 Ho752 2.669 . S
O777 Ho753 2.305 . S
O777 C762 1.256 . S
O778 Ho753 2.322 . S
O778 C763 1.259 . S
O779 Ho752 2.346 . S
O779 C763 1.268 . S
O780 Ho753 2.378 . S
O780 C764 1.215 . S
O781 Ho753 2.524 . S
O781 C764 1.289 . S
O782 Ho753 2.381 . S
O782 C771 1.275 . S
O783 Ho752 2.305 . S
O783 Ho753 2.669 . S
O783 C771 1.256 . S
H784 C757 0.930 . S
H785 C758 0.931 . S
H786 C760 0.934 . S
H787 C761 0.930 . S
H788 C766 0.930 1_655 S
H789 C767 0.931 . S
H790 C769 0.934 . S
H791 C770 0.930 . S
Ho792 C795 2.811 . S
Ho792 O812 2.322 . S
Ho792 O814 2.378 . S
Ho792 O815 2.524 . S
Ho792 O816 2.381 . S
Ho792 O817 2.669 . S
Ho792 O819 2.346 . S
Ho792 O823 2.305 . S
Ho793 C804 2.811 . S
Ho793 O813 2.346 . S
Ho793 O817 2.305 . S
Ho793 O818 2.322 . S
Ho793 O820 2.378 . S
Ho793 O821 2.524 . S
Ho793 O822 2.381 . S
Ho793 O823 2.669 . S
C794 O812 1.259 . S
C794 O813 1.268 . S
C795 Ho792 2.811 . S
C795 C796 1.488 . S
C795 O814 1.215 . S
C795 O815 1.289 . S
C796 C795 1.488 . S
C796 C797 1.348 . S
C796 C801 1.413 . S
C797 C796 1.348 . S
C797 C798 1.442 . S
C797 H824 0.930 . S
C798 C797 1.442 . S
C798 C799 1.381 . S
C798 H825 0.931 . S
C799 C798 1.381 . S
C799 C800 1.321 . S
C800 C799 1.321 . S
C800 C801 1.403 . S
C800 H826 0.934 1_655 S
C801 C796 1.413 . S
C801 C800 1.403 . S
C801 H827 0.930 . S
C802 O816 1.275 . S
C802 O817 1.256 . S
C803 O818 1.259 . S
C803 O819 1.268 . S
C804 Ho793 2.811 . S
C804 C805 1.488 . S
C804 O820 1.215 . S
C804 O821 1.289 . S
C805 C804 1.488 . S
C805 C806 1.348 . S
C805 C810 1.413 . S
C806 C805 1.348 . S
C806 C807 1.442 . S
C806 H828 0.930 . S
C807 C806 1.442 . S
C807 C808 1.381 . S
C807 H829 0.931 . S
C808 C807 1.381 . S
C808 C809 1.321 . S
C809 C808 1.321 . S
C809 C810 1.403 . S
C809 H830 0.934 . S
C810 C805 1.413 . S
C810 C809 1.403 . S
C810 H831 0.930 . S
C811 O822 1.275 . S
C811 O823 1.256 . S
O812 Ho792 2.322 . S
O812 C794 1.259 . S
O813 Ho793 2.346 . S
O813 C794 1.268 . S
O814 Ho792 2.378 . S
O814 C795 1.215 . S
O815 Ho792 2.524 . S
O815 C795 1.289 . S
O816 Ho792 2.381 . S
O816 C802 1.275 . S
O817 Ho792 2.669 . S
O817 Ho793 2.305 . S
O817 C802 1.256 . S
O818 Ho793 2.322 . S
O818 C803 1.259 . S
O819 Ho792 2.346 . S
O819 C803 1.268 . S
O820 Ho793 2.378 . S
O820 C804 1.215 . S
O821 Ho793 2.524 . S
O821 C804 1.289 . S
O822 Ho793 2.381 . S
O822 C811 1.275 . S
O823 Ho792 2.305 . S
O823 Ho793 2.669 . S
O823 C811 1.256 . S
H824 C797 0.930 . S
H825 C798 0.931 . S
H826 C800 0.934 1_455 S
H827 C801 0.930 . S
H828 C806 0.930 . S
H829 C807 0.931 . S
H830 C809 0.934 . S
H831 C810 0.930 . S
Ho832 C835 2.811 . S
Ho832 O852 2.322 . S
Ho832 O854 2.378 . S
Ho832 O855 2.524 . S
Ho832 O856 2.381 . S
Ho832 O857 2.669 . S
Ho832 O859 2.346 . S
Ho832 O863 2.305 . S
Ho833 C844 2.811 . S
Ho833 O853 2.346 . S
Ho833 O857 2.305 . S
Ho833 O858 2.322 . S
Ho833 O860 2.378 . S
Ho833 O861 2.524 . S
Ho833 O862 2.381 . S
Ho833 O863 2.669 . S
C834 O852 1.259 . S
C834 O853 1.268 . S
C835 Ho832 2.811 . S
C835 C836 1.488 1_565 S
C835 O854 1.215 . S
C835 O855 1.289 . S
C836 C835 1.488 1_545 S
C836 C837 1.348 . S
C836 C841 1.413 . S
C837 C836 1.348 . S
C837 C838 1.442 . S
C837 H864 0.930 . S
C838 C837 1.442 . S
C838 C839 1.381 . S
C838 H865 0.931 . S
C839 C838 1.381 . S
C839 C840 1.321 . S
C840 C839 1.321 . S
C840 C841 1.403 . S
C840 H866 0.934 . S
C841 C836 1.413 . S
C841 C840 1.403 . S
C841 H867 0.930 . S
C842 O856 1.275 . S
C842 O857 1.256 . S
C843 O858 1.259 . S
C843 O859 1.268 . S
C844 Ho833 2.811 . S
C844 C845 1.488 . S
C844 O860 1.215 . S
C844 O861 1.289 . S
C845 C844 1.488 . S
C845 C846 1.348 . S
C845 C850 1.413 . S
C846 C845 1.348 . S
C846 C847 1.442 . S
C846 H868 0.930 . S
C847 C846 1.442 . S
C847 C848 1.381 . S
C847 H869 0.931 . S
C848 C847 1.381 . S
C848 C849 1.321 . S
C849 C848 1.321 . S
C849 C850 1.403 . S
C849 H870 0.934 . S
C850 C845 1.413 . S
C850 C849 1.403 . S
C850 H871 0.930 . S
C851 O862 1.275 . S
C851 O863 1.256 . S
O852 Ho832 2.322 . S
O852 C834 1.259 . S
O853 Ho833 2.346 . S
O853 C834 1.268 . S
O854 Ho832 2.378 . S
O854 C835 1.215 . S
O855 Ho832 2.524 . S
O855 C835 1.289 . S
O856 Ho832 2.381 . S
O856 C842 1.275 . S
O857 Ho832 2.669 . S
O857 Ho833 2.305 . S
O857 C842 1.256 . S
O858 Ho833 2.322 . S
O858 C843 1.259 . S
O859 Ho832 2.346 . S
O859 C843 1.268 . S
O860 Ho833 2.378 . S
O860 C844 1.215 . S
O861 Ho833 2.524 . S
O861 C844 1.289 . S
O862 Ho833 2.381 . S
O862 C851 1.275 . S
O863 Ho832 2.305 . S
O863 Ho833 2.669 . S
O863 C851 1.256 . S
H864 C837 0.930 . S
H865 C838 0.931 . S
H866 C840 0.934 . S
H867 C841 0.930 . S
H868 C846 0.930 . S
H869 C847 0.931 . S
H870 C849 0.934 . S
H871 C850 0.930 . S
Ho872 C875 2.811 . S
Ho872 O892 2.322 . S
Ho872 O894 2.378 . S
Ho872 O895 2.524 . S
Ho872 O896 2.381 . S
Ho872 O897 2.669 . S
Ho872 O899 2.346 . S
Ho872 O903 2.305 . S
Ho873 C884 2.811 . S
Ho873 O893 2.346 . S
Ho873 O897 2.305 . S
Ho873 O898 2.322 . S
Ho873 O900 2.378 . S
Ho873 O901 2.524 . S
Ho873 O902 2.381 . S
Ho873 O903 2.669 . S
C874 O892 1.259 . S
C874 O893 1.268 . S
C875 Ho872 2.811 . S
C875 C876 1.488 . S
C875 O894 1.215 . S
C875 O895 1.289 . S
C876 C875 1.488 . S
C876 C877 1.348 . S
C876 C881 1.413 . S
C877 C876 1.348 . S
C877 C878 1.442 . S
C877 H904 0.930 . S
C878 C877 1.442 . S
C878 C879 1.381 . S
C878 H905 0.931 . S
C879 C878 1.381 . S
C879 C880 1.321 . S
C880 C879 1.321 . S
C880 C881 1.403 . S
C880 H906 0.934 . S
C881 C876 1.413 . S
C881 C880 1.403 . S
C881 H907 0.930 . S
C882 O896 1.275 . S
C882 O897 1.256 . S
C883 O898 1.259 . S
C883 O899 1.268 . S
C884 Ho873 2.811 . S
C884 C885 1.488 . S
C884 O900 1.215 . S
C884 O901 1.289 . S
C885 C884 1.488 . S
C885 C886 1.348 . S
C885 C890 1.413 . S
C886 C885 1.348 . S
C886 C887 1.442 . S
C886 H908 0.930 . S
C887 C886 1.442 . S
C887 C888 1.381 . S
C887 H909 0.931 . S
C888 C887 1.381 . S
C888 C889 1.321 . S
C889 C888 1.321 . S
C889 C890 1.403 . S
C889 H910 0.934 . S
C890 C885 1.413 . S
C890 C889 1.403 . S
C890 H911 0.930 . S
C891 O902 1.275 . S
C891 O903 1.256 . S
O892 Ho872 2.322 . S
O892 C874 1.259 . S
O893 Ho873 2.346 . S
O893 C874 1.268 . S
O894 Ho872 2.378 . S
O894 C875 1.215 . S
O895 Ho872 2.524 . S
O895 C875 1.289 . S
O896 Ho872 2.381 . S
O896 C882 1.275 . S
O897 Ho872 2.669 . S
O897 Ho873 2.305 . S
O897 C882 1.256 . S
O898 Ho873 2.322 . S
O898 C883 1.259 . S
O899 Ho872 2.346 . S
O899 C883 1.268 . S
O900 Ho873 2.378 . S
O900 C884 1.215 . S
O901 Ho873 2.524 . S
O901 C884 1.289 . S
O902 Ho873 2.381 . S
O902 C891 1.275 . S
O903 Ho872 2.305 . S
O903 Ho873 2.669 . S
O903 C891 1.256 . S
H904 C877 0.930 . S
H905 C878 0.931 . S
H906 C880 0.934 . S
H907 C881 0.930 . S
H908 C886 0.930 . S
H909 C887 0.931 . S
H910 C889 0.934 . S
H911 C890 0.930 . S
Ho912 C915 2.811 . S
Ho912 O932 2.322 . S
Ho912 O934 2.378 . S
Ho912 O935 2.524 1_556 S
Ho912 O936 2.381 . S
Ho912 O937 2.669 . S
Ho912 O939 2.346 1_556 S
Ho912 O943 2.305 1_556 S
Ho913 C924 2.811 . S
Ho913 O933 2.346 . S
Ho913 O937 2.305 1_554 S
Ho913 O938 2.322 . S
Ho913 O940 2.378 . S
Ho913 O941 2.524 . S
Ho913 O942 2.381 . S
Ho913 O943 2.669 . S
C914 O932 1.259 1_554 S
C914 O933 1.268 . S
C915 Ho912 2.811 . S
C915 C916 1.488 . S
C915 O934 1.215 . S
C915 O935 1.289 1_556 S
C916 C915 1.488 . S
C916 C917 1.348 1_556 S
C916 C921 1.413 . S
C917 C916 1.348 1_554 S
C917 C918 1.442 1_554 S
C917 H944 0.930 . S
C918 C917 1.442 1_556 S
C918 C919 1.381 . S
C918 H945 0.931 1_556 S
C919 C918 1.381 . S
C919 C920 1.321 . S
C920 C919 1.321 . S
C920 C921 1.403 . S
C920 H946 0.934 . S
C921 C916 1.413 . S
C921 C920 1.403 . S
C921 H947 0.930 . S
C922 O936 1.275 . S
C922 O937 1.256 . S
C923 O938 1.259 . S
C923 O939 1.268 . S
C924 Ho913 2.811 . S
C924 C925 1.488 1_455 S
C924 O940 1.215 . S
C924 O941 1.289 . S
C925 C924 1.488 1_655 S
C925 C926 1.348 . S
C925 C930 1.413 . S
C926 C925 1.348 . S
C926 C927 1.442 . S
C926 H948 0.930 1_554 S
C927 C926 1.442 . S
C927 C928 1.381 . S
C927 H949 0.931 . S
C928 C927 1.381 . S
C928 C929 1.321 . S
C929 C928 1.321 . S
C929 C930 1.403 . S
C929 H950 0.934 . S
C930 C925 1.413 . S
C930 C929 1.403 . S
C930 H951 0.930 . S
C931 O942 1.275 . S
C931 O943 1.256 . S
O932 Ho912 2.322 . S
O932 C914 1.259 1_556 S
O933 Ho913 2.346 . S
O933 C914 1.268 . S
O934 Ho912 2.378 . S
O934 C915 1.215 . S
O935 Ho912 2.524 1_554 S
O935 C915 1.289 1_554 S
O936 Ho912 2.381 . S
O936 C922 1.275 . S
O937 Ho912 2.669 . S
O937 Ho913 2.305 1_556 S
O937 C922 1.256 . S
O938 Ho913 2.322 . S
O938 C923 1.259 . S
O939 Ho912 2.346 1_554 S
O939 C923 1.268 . S
O940 Ho913 2.378 . S
O940 C924 1.215 . S
O941 Ho913 2.524 . S
O941 C924 1.289 . S
O942 Ho913 2.381 . S
O942 C931 1.275 . S
O943 Ho912 2.305 1_554 S
O943 Ho913 2.669 . S
O943 C931 1.256 . S
H944 C917 0.930 . S
H945 C918 0.931 1_554 S
H946 C920 0.934 . S
H947 C921 0.930 . S
H948 C926 0.930 1_556 S
H949 C927 0.931 . S
H950 C929 0.934 . S
H951 C930 0.930 . S
C101 C314 3.732 . S
C57 C371 3.250 . S
C73 C394 2.110 . S
C448 C78 1.678 . S
C21 C488 3.142 . S
C519 C31 1.359 . S
C571 C49 3.431 . S
C0 C594 3.257 . S
C331 C218 3.713 . S
C229 C368 1.346 . S
C411 C257 0.901 . S
C434 C164 2.270 . S
C216 C474 2.729 . S
C522 C231 1.942 . S
C568 C255 0.732 . S
C611 C166 3.342 . S
C328 C143 3.150 . S
C265 C651 2.621 1_556 S
C683 C299 3.804 . S
C714 C291 2.060 . S
C104 C608 4.484 . S
C117 C408 2.593 . S
C304 C771 2.840 . S
C794 C278 1.280 . S
C323 C60 3.717 . S
C802 C96 3.326 . S
C88 C403 2.020 . S
C65 C759 2.004 . S
C479 C10 3.351 . S
C44 C688 1.645 . S
C562 C34 3.356 1_565 S
C843 C13 3.773 . S
C322 C138 3.719 . S
C799 C296 1.766 . S
C112 C402 1.308 . S
C270 C763 2.338 . S
C140 C483 2.857 . S
C691 C294 2.219 . S
C114 C559 1.431 . S
C268 C842 3.499 . S
C169 C319 3.606 1_554 S
C161 C642 2.722 . S
C234 C514 3.801 . S
C226 C723 1.472 . S
C839 C247 5.070 . S
C195 C399 3.174 . S
C442 C239 2.910 . S
C363 C187 1.739 . S
C75 C874 3.730 . S
C811 C83 3.243 . S
C99 C914 2.101 . S
C52 C768 1.673 . S
C47 C648 3.137 . S
C679 C5 1.366 . S
C731 C23 3.439 1_455 S
C834 C26 3.262 . S
C891 C244 3.710 . S
C177 C808 1.331 . S
C931 C192 0.913 . S
C754 C203 2.273 . S
C634 C242 2.729 . S
C179 C682 1.944 . S
C728 C190 0.737 . S
C205 C851 3.352 . S
C888 C286 3.122 . S
C122 C491 2.623 . S
C523 C130 3.812 . S
C554 C148 1.960 1_565 S
C848 C273 4.450 . S
C260 C928 2.574 . S
C451 C135 2.841 . S
C354 C109 1.292 . S
C86 C883 3.720 . S
C362 C70 3.314 . S
C62 C923 2.025 . S
C91 C439 1.996 . S
C36 C639 3.351 . S
C528 C18 1.647 . S
C8 C722 3.378 . S
C39 C603 3.783 . S
C882 C307 3.719 . S
C153 C359 1.745 . S
C922 C281 1.351 . S
C127 C443 2.341 . S
C309 C643 2.858 . S
C531 C151 2.159 . S
C283 C719 1.363 1_455 S
C602 C125 3.516 . S
C879 C221 3.601 . S
C482 C200 2.727 1_445 S
C208 C674 3.812 . S
C563 C174 1.467 . S
C182 C599 5.070 . S
C156 C919 3.172 1_554 S
C762 C213 2.911 . S
C803 C252 1.742 . S
