# Generated by pormake.
# Topology zzz, (3,6)-cn, num edge types: 1
# Building blocks:
#     Node 0, Type 0, BuildingBlock: WUSLED_clean_sbu_0, # of connection points: 3
#     Node 1, Type 0, BuildingBlock: WUSLED_clean_sbu_0, # of connection points: 3
#     Node 2, Type 0, BuildingBlock: WUSLED_clean_sbu_0, # of connection points: 3
#     Node 3, Type 0, BuildingBlock: WUSLED_clean_sbu_0, # of connection points: 3
#     Node 4, Type 0, BuildingBlock: WUSLED_clean_sbu_0, # of connection points: 3
#     Node 5, Type 0, BuildingBlock: WUSLED_clean_sbu_0, # of connection points: 3
#     Node 6, Type 0, BuildingBlock: WUSLED_clean_sbu_0, # of connection points: 3
#     Node 7, Type 0, BuildingBlock: WUSLED_clean_sbu_0, # of connection points: 3
#     Node 8, Type 1, BuildingBlock: JUFBIX_clean_sbu_0, # of connection points: 6
#     Node 9, Type 1, BuildingBlock: JUFBIX_clean_sbu_0, # of connection points: 6
#     Node 10, Type 1, BuildingBlock: JUFBIX_clean_sbu_0, # of connection points: 6
#     Node 11, Type 1, BuildingBlock: JUFBIX_clean_sbu_0, # of connection points: 6
#     Edge 12, Type (0, 1), BuildingBlock: EZIPEK_clean_linker_0, # of connection points: 2
#     Edge 13, Type (0, 1), BuildingBlock: EZIPEK_clean_linker_0, # of connection points: 2
#     Edge 14, Type (0, 1), BuildingBlock: EZIPEK_clean_linker_0, # of connection points: 2
#     Edge 15, Type (0, 1), BuildingBlock: EZIPEK_clean_linker_0, # of connection points: 2
#     Edge 16, Type (0, 1), BuildingBlock: EZIPEK_clean_linker_0, # of connection points: 2
#     Edge 17, Type (0, 1), BuildingBlock: EZIPEK_clean_linker_0, # of connection points: 2
#     Edge 18, Type (0, 1), BuildingBlock: EZIPEK_clean_linker_0, # of connection points: 2
#     Edge 19, Type (0, 1), BuildingBlock: EZIPEK_clean_linker_0, # of connection points: 2
#     Edge 20, Type (0, 1), BuildingBlock: EZIPEK_clean_linker_0, # of connection points: 2
#     Edge 21, Type (0, 1), BuildingBlock: EZIPEK_clean_linker_0, # of connection points: 2
#     Edge 22, Type (0, 1), BuildingBlock: EZIPEK_clean_linker_0, # of connection points: 2
#     Edge 23, Type (0, 1), BuildingBlock: EZIPEK_clean_linker_0, # of connection points: 2
#     Edge 24, Type (0, 1), BuildingBlock: EZIPEK_clean_linker_0, # of connection points: 2
#     Edge 25, Type (0, 1), BuildingBlock: EZIPEK_clean_linker_0, # of connection points: 2
#     Edge 26, Type (0, 1), BuildingBlock: EZIPEK_clean_linker_0, # of connection points: 2
#     Edge 27, Type (0, 1), BuildingBlock: EZIPEK_clean_linker_0, # of connection points: 2
#     Edge 28, Type (0, 1), BuildingBlock: EZIPEK_clean_linker_0, # of connection points: 2
#     Edge 29, Type (0, 1), BuildingBlock: EZIPEK_clean_linker_0, # of connection points: 2
#     Edge 30, Type (0, 1), BuildingBlock: EZIPEK_clean_linker_0, # of connection points: 2
#     Edge 31, Type (0, 1), BuildingBlock: EZIPEK_clean_linker_0, # of connection points: 2
#     Edge 32, Type (0, 1), BuildingBlock: EZIPEK_clean_linker_0, # of connection points: 2
#     Edge 33, Type (0, 1), BuildingBlock: EZIPEK_clean_linker_0, # of connection points: 2
#     Edge 34, Type (0, 1), BuildingBlock: EZIPEK_clean_linker_0, # of connection points: 2
#     Edge 35, Type (0, 1), BuildingBlock: EZIPEK_clean_linker_0, # of connection points: 2
# Relax obj value: 0.266
# Max RMSD: 0.219
# Mean RMSD: 0.180
data_MOF--net-zzz--node1-WUSLED_clean_sbu_0--node2-JUFBIX_clean_sbu_0--edge1-EZIPEK_clean_linker_0
_symmetry_space_group_name_H-M    P1
_symmetry_Int_Tables_number       1
_symmetry_cell_setting            triclinic
loop_
_symmetry_equiv_pos_as_xyz
'x, y, z'
_cell_length_a     48.738955
_cell_length_b     50.903248
_cell_length_c     19.17477
_cell_angle_alpha  81.807502
_cell_angle_beta   90.277962
_cell_angle_gamma 86.739302
loop_
_atom_site_label
_atom_site_type_symbol
_atom_site_fract_x
_atom_site_fract_y
_atom_site_fract_z
_atom_type_partial_charge
C0 C 0.83685 0.58326 0.42894 0.0
C1 C 0.86131 0.58297 0.3902 0.0
C2 C 0.88862 0.5736 0.49939 0.0
C3 C 0.887 0.57835 0.42518 0.0
C4 C 0.86412 0.57437 0.5376 0.0
C5 C 0.8386 0.57916 0.50279 0.0
U6 U 0.78783 0.58854 0.26703 0.0
O7 O 0.75038 0.56674 0.26171 0.0
O8 O 0.74775 0.6102 0.23922 0.0
C9 C 0.73481 0.58819 0.23925 0.0
C10 C 0.80925 0.58611 0.39458 0.0
C11 C 0.71716 0.58622 0.17713 0.0
C12 C 0.67286 0.57595 0.131 0.0
C13 C 0.68937 0.58095 0.18725 0.0
C14 C 0.71136 0.58258 0.05246 0.0
C15 C 0.68376 0.5763 0.06322 0.0
C16 C 0.72799 0.5873 0.10901 0.0
C17 C 0.84043 0.58464 0.10481 0.0
C18 C 0.86644 0.55636 0.03481 0.0
C19 C 0.87633 0.60284 0.02822 0.0
C20 C 0.85532 0.60639 0.07601 0.0
C21 C 0.88256 0.57748 1.00992 0.0
C22 C 0.84548 0.5599 0.08181 0.0
C23 C 0.82155 0.58666 0.1633 0.0
O24 O 0.80247 0.60866 0.35396 0.0
O25 O 0.80177 0.56525 0.36774 0.0
O26 O 0.81256 0.56522 0.20049 0.0
O27 O 0.81239 0.60947 0.1817 0.0
H28 H 0.8605 0.58593 0.33313 0.0
H29 H 0.90558 0.578 0.39448 0.0
H30 H 0.86475 0.57089 0.59467 0.0
H31 H 0.82007 0.57918 0.53379 0.0
H32 H 0.65173 0.57113 0.14073 0.0
H33 H 0.68062 0.57989 0.23933 0.0
H34 H 0.72029 0.58287 1.00075 0.0
H35 H 0.74943 0.59108 0.09997 0.0
H36 H 0.8709 0.53678 0.02017 0.0
H37 H 0.88859 0.61933 1.00857 0.0
H38 H 0.85163 0.6257 0.09283 0.0
H39 H 0.83404 0.54293 0.10239 0.0
C40 C 0.9974 0.81781 0.39913 0.0
C41 C 0.97959 0.84015 0.37537 0.0
C42 C 0.99751 0.86436 0.46525 0.0
C43 C 0.9796 0.86312 0.40826 0.0
C44 C 0.01534 0.84217 0.48876 0.0
C45 C 0.01521 0.81916 0.45631 0.0
U46 U 1.01011 0.77545 0.24871 0.0
O47 O 0.02587 0.73388 0.25234 0.0
O48 O 0.98423 0.74594 0.21166 0.0
C49 C 1.00396 0.72703 0.22051 0.0
C50 C 0.99668 0.79255 0.36807 0.0
C51 C 1.00909 0.71246 0.15998 0.0
C52 C 1.00141 0.67388 0.10219 0.0
C53 C 0.9959 0.68886 0.15686 0.0
C54 C 0.03293 0.70626 0.05144 0.0
C55 C 0.02019 0.68227 0.04953 0.0
C56 C 0.02737 0.7213 0.10625 0.0
C57 C 0.04056 0.82904 0.09557 0.0
C58 C 0.02997 0.86253 0.99475 0.0
C59 C 0.0695 0.86623 0.06934 0.0
C60 C 0.06419 0.84204 0.10954 0.0
C61 C 0.05137 0.8773 0.0147 0.0
C62 C 0.0245 0.83849 0.03532 0.0
C63 C 0.0296 0.80971 0.15087 0.0
O64 O 0.97908 0.79203 0.31615 0.0
O65 O 0.02056 0.78036 0.35808 0.0
O66 O 0.04564 0.79482 0.19793 0.0
O67 O 1.00316 0.806 0.15597 0.0
H68 H 0.96544 0.83986 0.33182 0.0
H69 H 0.96561 0.87995 0.38931 0.0
H70 H 0.02928 0.84259 0.53272 0.0
H71 H 0.02893 0.80227 0.47647 0.0
H72 H 0.99143 0.65542 0.10169 0.0
H73 H 0.98166 0.68175 0.19752 0.0
H74 H 0.04754 0.71301 1.01139 0.0
H75 H 0.03766 0.73956 0.10739 0.0
H76 H 0.01587 0.87089 0.95241 0.0
H77 H 0.0861 0.87748 0.08512 0.0
H78 H 0.07689 0.83502 0.15569 0.0
H79 H 1.00633 0.82858 0.02326 0.0
C80 C 0.71405 0.96955 0.35056 0.0
C81 C 0.68901 0.97443 0.31286 0.0
C82 C 0.66377 0.97609 0.4226 0.0
C83 C 0.66407 0.97763 0.34859 0.0
C84 C 0.68879 0.97081 0.45996 0.0
C85 C 0.71356 0.96757 0.42438 0.0
U86 U 0.76731 0.96417 0.1966 0.0
O87 O 0.80519 0.98578 0.1854 0.0
O88 O 0.80797 0.94227 0.20176 0.0
C89 C 0.8212 0.96411 0.18601 0.0
C90 C 0.74122 0.96784 0.31577 0.0
C91 C 0.84094 0.96475 0.12719 0.0
C92 C 0.88832 0.96639 0.08728 0.0
C93 C 0.86928 0.96275 0.14195 0.0
C94 C 0.85103 0.97312 1.00157 0.0
C95 C 0.87939 0.97215 0.0167 0.0
C96 C 0.83196 0.96946 0.05639 0.0
C97 C 0.71138 0.96476 0.05343 0.0
C98 C 0.68 0.96062 0.95776 0.0
C99 C 0.66483 0.98406 0.05373 0.0
C100 C 0.69061 0.97868 0.08597 0.0
C101 C 0.65974 0.97569 0.98862 0.0
C102 C 0.70578 0.95517 0.99018 0.0
C103 C 0.7397 0.96286 0.07972 0.0
O104 O 0.74955 0.94505 0.29586 0.0
O105 O 0.74778 0.98851 0.27105 0.0
O106 O 0.74749 0.94128 0.12297 0.0
O107 O 0.74831 0.98478 0.09893 0.0
H108 H 0.68875 0.97603 0.25606 0.0
H109 H 0.64505 0.98157 0.31852 0.0
H110 H 0.68918 0.96944 0.51686 0.0
H111 H 0.73254 0.96388 0.45475 0.0
H112 H 0.91004 0.96565 0.10019 0.0
H113 H 0.87669 0.95923 0.19603 0.0
H114 H 0.84368 0.97764 0.94756 0.0
H115 H 0.81019 0.97115 0.04368 0.0
H116 H 0.67618 0.95399 0.90754 0.0
H117 H 0.64923 0.99567 0.07799 0.0
H118 H 0.69477 0.98648 0.13432 0.0
H119 H 0.7217 0.94449 0.96437 0.0
C120 C 0.49498 0.69288 0.365 0.0
C121 C 0.51401 0.67229 0.35223 0.0
C122 C 0.50205 0.6456 0.463 0.0
C123 C 0.51747 0.64882 0.40081 0.0
C124 C 0.48243 0.66577 0.4744 0.0
C125 C 0.47895 0.6891 0.42598 0.0
U126 U 0.49012 0.74808 0.19586 0.0
O127 O 0.46817 0.78756 0.18919 0.0
O128 O 0.5131 0.7844 0.18412 0.0
C129 C 0.49082 0.80036 0.17948 0.0
C130 C 0.49387 0.71973 0.32229 0.0
C131 C 0.49023 0.82335 0.12254 0.0
C132 C 0.48762 0.87144 0.08899 0.0
C133 C 0.48661 0.84908 0.14055 0.0
C134 C 0.49541 0.84274 0.99972 0.0
C135 C 0.49231 0.86851 0.01828 0.0
C136 C 0.4944 0.82028 0.05153 0.0
C137 C 0.48636 0.69838 0.05981 0.0
C138 C 0.49831 0.67082 0.96991 0.0
C139 C 0.47332 0.65255 0.07297 0.0
C140 C 0.47373 0.67695 0.09877 0.0
C141 C 0.48572 0.64938 1.00843 0.0
C142 C 0.49858 0.69512 0.99537 0.0
C143 C 0.48663 0.72469 0.08294 0.0
O144 O 0.51528 0.72653 0.28376 0.0
O145 O 0.47031 0.72909 0.29227 0.0
O146 O 0.46502 0.73257 0.11701 0.0
O147 O 0.51007 0.73075 0.10891 0.0
H148 H 0.52683 0.67465 0.30603 0.0
H149 H 0.53273 0.63352 0.39096 0.0
H150 H 0.47035 0.66377 0.52194 0.0
H151 H 0.4644 0.70473 0.43767 0.0
H152 H 0.48517 0.89109 0.10444 0.0
H153 H 0.48343 0.85192 0.19493 0.0
H154 H 0.499 0.84006 0.94541 0.0
H155 H 0.49726 0.80061 0.03643 0.0
H156 H 0.5079 0.66872 0.91998 0.0
H157 H 0.46347 0.63615 0.10319 0.0
H158 H 0.46415 0.6791 0.14865 0.0
H159 H 0.50827 0.71148 0.96446 0.0
C160 C 0.17847 0.4526 0.18465 0.0
C161 C 0.1539 0.45923 0.21795 0.0
C162 C 0.12856 0.46285 0.10604 0.0
C163 C 0.1291 0.46411 0.17904 0.0
C164 C 0.15302 0.45549 0.0736 0.0
C165 C 0.17761 0.45029 0.11255 0.0
U166 U 0.23255 0.44495 0.34192 0.0
O167 O 0.2682 0.46949 0.33753 0.0
O168 O 0.27482 0.42616 0.35055 0.0
C169 C 0.28589 0.44902 0.35268 0.0
C170 C 0.20575 0.45089 0.22029 0.0
C171 C 0.30461 0.45075 0.4129 0.0
C172 C 0.35128 0.45012 0.45959 0.0
C173 C 0.33292 0.44475 0.4075 0.0
C174 C 0.31318 0.46655 0.52493 0.0
C175 C 0.34163 0.46184 0.51766 0.0
C176 C 0.29482 0.46094 0.47323 0.0
C177 C 0.18042 0.439 0.49672 0.0
C178 C 0.15706 0.4462 0.60375 0.0
C179 C 0.13185 0.45221 0.49257 0.0
C180 C 0.15574 0.44485 0.45826 0.0
C181 C 0.13293 0.45442 0.56478 0.0
C182 C 0.18062 0.43835 0.56989 0.0
C183 C 0.207 0.439 0.46238 0.0
O184 O 0.21135 0.47072 0.25402 0.0
O185 O 0.2154 0.42761 0.25258 0.0
O186 O 0.2145 0.4188 0.42964 0.0
O187 O 0.21328 0.46215 0.42881 0.0
H188 H 0.15404 0.46142 0.27327 0.0
H189 H 0.11051 0.46978 0.20526 0.0
H190 H 0.1532 0.45439 0.0176 0.0
H191 H 0.19629 0.4454 0.08558 0.0
H192 H 0.37313 0.44628 0.45302 0.0
H193 H 0.34094 0.43688 0.36161 0.0
H194 H 0.30528 0.47553 0.56927 0.0
H195 H 0.27306 0.46563 0.4789 0.0
H196 H 0.15814 0.44749 0.65962 0.0
H197 H 0.11318 0.45817 0.46212 0.0
H198 H 0.15541 0.44545 0.40161 0.0
H199 H 0.19959 0.43387 0.60011 0.0
C200 C 0.03096 0.21457 0.21803 0.0
C201 C 0.0462 0.19115 0.24705 0.0
C202 C 0.03102 0.16818 0.15149 0.0
C203 C 0.04624 0.16819 0.214 0.0
C204 C 0.01539 0.19133 0.12347 0.0
C205 C 0.01542 0.21423 0.15621 0.0
U206 U 0.02198 0.26525 0.35421 0.0
O207 O 0.05112 0.29476 0.37497 0.0
O208 O 1.0101 0.30813 0.33204 0.0
C209 C 0.03257 0.31468 0.36199 0.0
C210 C 0.03335 0.24033 0.24546 0.0
C211 C 0.02821 0.33156 0.41855 0.0
C212 C 1.0066 0.37106 0.45823 0.0
C213 C 1.01209 0.35552 0.4047 0.0
C214 C 0.0338 0.33933 0.54046 0.0
C215 C 0.01726 0.36301 0.52662 0.0
C216 C 0.03909 0.32365 0.48709 0.0
C217 C 0.99058 0.21338 0.49119 0.0
C218 C 0.98127 0.18065 0.59147 0.0
C219 C 0.98699 0.16736 0.47543 0.0
C220 C 0.99091 0.19366 0.44702 0.0
C221 C 0.98303 0.16068 0.54813 0.0
C222 C 0.98499 0.20693 0.56299 0.0
C223 C 0.99897 0.24002 0.4655 0.0
O224 O 1.01047 0.2549 0.25055 0.0
O225 O 0.05079 0.24106 0.29769 0.0
O226 O 0.02564 0.24186 0.45932 0.0
O227 O 0.98477 0.25326 0.41201 0.0
H228 H 0.05863 0.19073 0.29419 0.0
H229 H 0.0585 0.15057 0.23646 0.0
H230 H 1.00357 0.19184 0.07525 0.0
H231 H 1.00382 0.232 0.13192 0.0
H232 H 0.99389 0.38934 0.44644 0.0
H233 H 1.00344 0.36207 0.35255 0.0
H234 H 0.04232 0.33286 0.59278 0.0
H235 H 0.05149 0.30523 0.49983 0.0
H236 H 0.97849 0.17567 0.64774 0.0
H237 H 0.98866 0.15202 0.44166 0.0
H238 H 0.99545 0.19841 0.39153 0.0
H239 H 0.98486 0.22202 0.5976 0.0
C240 C 0.30527 0.08637 0.20658 0.0
C241 C 0.33058 0.08554 0.24264 0.0
C242 C 0.35513 0.07783 0.13622 0.0
C243 C 0.35535 0.08133 0.20764 0.0
C244 C 0.32987 0.07942 0.09988 0.0
C245 C 0.30516 0.08365 0.1348 0.0
U246 U 0.26514 0.08963 0.37597 0.0
O247 O 0.22391 0.10685 0.39768 0.0
O248 O 0.23278 0.06359 0.41779 0.0
C249 C 0.2145 0.08344 0.42001 0.0
C250 C 0.27893 0.08728 0.2444 0.0
C251 C 0.19552 0.08117 0.48022 0.0
C252 C 0.14872 0.07458 0.51988 0.0
C253 C 0.16748 0.07968 0.46548 0.0
C254 C 0.18548 0.07364 0.6058 0.0
C255 C 0.15753 0.07101 0.59047 0.0
C256 C 0.20446 0.07844 0.55088 0.0
C257 C 0.31768 0.09303 0.53276 0.0
C258 C 0.33428 0.06198 0.63363 0.0
C259 C 0.36116 0.09916 0.58835 0.0
C260 C 0.34038 0.10834 0.53907 0.0
C261 C 0.35912 0.07468 0.63137 0.0
C262 C 0.31346 0.07124 0.58455 0.0
C263 C 0.30584 0.09408 0.46191 0.0
O264 O 0.27533 0.06627 0.29087 0.0
O265 O 0.27144 0.10969 0.26761 0.0
O266 O 0.2903 0.11486 0.43351 0.0
O267 O 0.29884 0.07137 0.444 0.0
H268 H 0.33113 0.08733 0.29825 0.0
H269 H 0.37461 0.08003 0.23669 0.0
H270 H 0.32926 0.07665 0.04494 0.0
H271 H 0.28589 0.08397 0.10623 0.0
H272 H 0.12731 0.07279 0.50683 0.0
H273 H 0.16015 0.08167 0.41142 0.0
H274 H 0.19269 0.07103 0.66 0.0
H275 H 0.22604 0.07941 0.56344 0.0
H276 H 0.33235 0.04319 0.66723 0.0
H277 H 0.38017 0.10927 0.58654 0.0
H278 H 0.34396 0.12527 0.49972 0.0
H279 H 0.29593 0.0593 0.58113 0.0
C280 C 0.51601 0.34819 0.23295 0.0
C281 C 0.49039 0.36078 0.21027 0.0
C282 C 0.51277 0.39537 0.13376 0.0
C283 C 0.48878 0.38409 0.1613 0.0
C284 C 0.53841 0.38354 0.1585 0.0
C285 C 0.54004 0.36015 0.20726 0.0
U286 U 0.5263 0.29223 0.39795 0.0
O287 O 0.50183 0.25704 0.41998 0.0
O288 O 0.54581 0.2519 0.39877 0.0
C289 C 0.52303 0.24016 0.41663 0.0
C290 C 0.51721 0.3208 0.27318 0.0
C291 C 0.52522 0.21663 0.47206 0.0
C292 C 0.52837 0.16836 0.50113 0.0
C293 C 0.52862 0.1913 0.45135 0.0
C294 C 0.52211 0.1956 0.59419 0.0
C295 C 0.52481 0.17025 0.57284 0.0
C296 C 0.52227 0.21867 0.5441 0.0
C297 C 0.54092 0.34344 0.52254 0.0
C298 C 0.55909 0.37122 0.60278 0.0
C299 C 0.52397 0.38956 0.51665 0.0
C300 C 0.52398 0.36519 0.49082 0.0
C301 C 0.54098 0.39243 0.57406 0.0
C302 C 0.55903 0.34687 0.57716 0.0
C303 C 0.53806 0.31644 0.50542 0.0
O304 O 0.54143 0.3098 0.29461 0.0
O305 O 0.49767 0.31482 0.31879 0.0
O306 O 0.51304 0.31049 0.48999 0.0
O307 O 0.55698 0.30728 0.46506 0.0
H308 H 0.47149 0.35192 0.22794 0.0
H309 H 0.46879 0.39277 0.1428 0.0
H310 H 0.5572 0.39182 0.13774 0.0
H311 H 0.56014 0.35088 0.22247 0.0
H312 H 0.53039 0.14905 0.48352 0.0
H313 H 0.53081 0.18924 0.39615 0.0
H314 H 0.51922 0.19748 0.64926 0.0
H315 H 0.51953 0.238 0.56133 0.0
H316 H 0.57212 0.37307 0.64755 0.0
H317 H 0.5097 0.40571 0.49442 0.0
H318 H 0.50988 0.36298 0.44847 0.0
H319 H 0.57219 0.33031 0.60234 0.0
Co320 Co 0.01768 0.03377 0.83634 0.0
C321 C 0.96984 1.00364 0.83433 0.0
Co322 Co 0.01587 1.00707 0.75301 0.0
C323 C 0.0298 0.06845 0.94593 0.0
C324 C 0.98831 0.07135 0.90754 0.0
N325 N 0.01292 0.05834 0.90108 0.0
N326 N 0.01635 0.08713 0.97928 0.0
C327 C 0.99032 0.08877 0.95527 0.0
H328 H 0.05149 0.06278 0.9528 0.0
H329 H 0.96997 0.06885 0.87789 0.0
C330 C 0.06387 0.03738 0.75707 0.0
N331 N 0.02022 0.98257 0.68739 0.0
C332 C 1.00217 0.96878 0.65462 0.0
C333 C 0.04512 0.97341 0.66736 0.0
N334 N 0.01517 0.9516 0.61579 0.0
C335 C 0.04209 0.95472 0.62363 0.0
C336 C 0.99569 0.05623 0.70178 0.0
O337 O 0.0532 0.04577 0.81086 0.0
O338 O 0.05114 0.02083 0.72683 0.0
O339 O 0.99922 0.03319 0.68394 0.0
O340 O 1.00175 0.06001 0.76409 0.0
O341 O 0.98044 0.99439 0.78146 0.0
H342 H 0.0646 0.97918 0.68491 0.0
H343 H 0.98011 0.97067 0.66058 0.0
O344 O 0.98237 0.02094 0.86181 0.0
O345 O 0.03377 0.00715 0.90582 0.0
O346 O 0.03263 0.98124 0.82295 0.0
C347 C 0.03818 0.98447 0.8859 0.0
H348 H 0.97404 0.10215 0.97025 0.0
H349 H 0.05847 0.94367 0.60056 0.0
Co350 Co 0.50147 0.02559 0.84134 0.0
C351 C 0.50206 0.97011 0.84281 0.0
Co352 Co 0.51773 0.01138 0.74374 0.0
C353 C 0.46164 0.04862 0.93306 0.0
C354 C 0.49619 0.02821 0.99031 0.0
N355 N 0.48632 0.03588 0.92411 0.0
N356 N 0.45583 0.04885 1.00181 0.0
C357 C 0.47751 0.0361 0.03799 0.0
H358 H 0.44748 0.05636 0.89048 0.0
H359 H 0.51505 0.01629 1.00355 0.0
C360 C 0.51698 0.06695 0.7422 0.0
N361 N 0.5332 1.00047 0.66147 0.0
C362 C 0.55913 1.00324 0.63666 0.0
C363 C 0.52125 0.98615 0.61689 0.0
N364 N 0.56366 0.99121 0.57878 0.0
C365 C 0.53982 0.98053 0.56615 0.0
C366 C 0.46149 0.02331 0.73899 0.0
O367 O 0.50665 0.06188 0.80327 0.0
O368 O 0.52401 0.04787 0.70829 0.0
O369 O 0.48159 0.01613 0.70241 0.0
O370 O 0.46658 0.02863 0.8001 0.0
O371 O 0.51111 0.97524 0.78041 0.0
H372 H 0.50065 0.97939 0.6223 0.0
H373 H 0.57469 0.01323 0.66159 0.0
O374 O 0.49626 0.98915 0.87769 0.0
O375 O 0.53718 0.02206 0.88194 0.0
O376 O 0.55275 1.00642 0.78763 0.0
C377 C 0.55673 0.01181 0.84936 0.0
H378 H 0.47902 0.03162 0.09483 0.0
H379 H 0.53639 0.96876 0.52448 0.0
Co380 Co 0.53362 0.52174 0.80711 0.0
C381 C 0.50861 0.48371 0.90322 0.0
Co382 Co 0.4889 0.51806 0.78587 0.0
C383 C 0.58542 0.54374 0.84966 0.0
C384 C 0.58856 0.50226 0.84239 0.0
N385 N 0.57104 0.52378 0.83027 0.0
N386 N 0.61187 0.53581 0.87048 0.0
C387 C 0.61291 0.50929 0.86805 0.0
H388 H 0.57562 0.56301 0.85339 0.0
H389 H 0.58333 0.4822 0.83792 0.0
C390 C 0.51381 0.55622 0.68993 0.0
N391 N 0.45153 0.51517 0.76289 0.0
C392 C 0.44044 0.49707 0.72703 0.0
C393 C 0.43052 0.53321 0.76859 0.0
N394 N 0.41374 0.50334 0.70991 0.0
C395 C 0.40737 0.52604 0.73598 0.0
C396 C 0.49881 0.55583 0.87168 0.0
O397 O 0.53582 0.54827 0.72513 0.0
O398 O 0.49137 0.54562 0.70783 0.0
O399 O 0.47976 0.5441 0.84532 0.0
O400 O 0.52381 0.54896 0.86164 0.0
O401 O 0.48712 0.49034 0.86508 0.0
H402 H 0.43217 0.55134 0.7912 0.0
H403 H 0.45192 0.48041 0.70983 0.0
O404 O 0.5306 0.49545 0.88812 0.0
O405 O 0.54267 0.49395 0.75147 0.0
O406 O 0.49887 0.49251 0.72728 0.0
C407 C 0.52344 0.48371 0.72138 0.0
H408 H 0.62932 0.49507 0.88846 0.0
H409 H 0.38785 0.53737 0.72842 0.0
Co410 Co 0.02127 0.53877 0.79322 0.0
C411 C 0.03943 0.49827 0.90444 0.0
Co412 Co 1.00114 0.5005 0.79546 0.0
C413 C 0.02491 0.58989 0.84352 0.0
C414 C 0.06089 0.58021 0.78701 0.0
N415 N 0.03577 0.5716 0.80475 0.0
N416 N 0.04217 0.60905 0.85104 0.0
C417 C 0.06489 0.60316 0.81555 0.0
H418 H 1.00534 0.5887 0.86965 0.0
H419 H 0.07608 0.56975 0.75865 0.0
C420 C 0.98219 0.54119 0.68703 0.0
N421 N 0.98682 0.46801 0.7841 0.0
C422 C 1.0013 0.4468 0.76463 0.0
C423 C 0.9606 0.46482 0.76554 0.0
N424 N 0.98557 0.43177 0.73006 0.0
C425 C 0.95982 0.44269 0.73184 0.0
C426 C 0.97181 0.53215 0.86886 0.0
O427 O 1.00017 0.55495 0.71114 0.0
O428 O 0.98024 0.51716 0.71503 0.0
O429 O 0.97181 0.50881 0.85306 0.0
O430 O 0.99133 0.54678 0.84981 0.0
O431 O 0.02236 0.48454 0.87698 0.0
H432 H 0.9438 0.47951 0.76765 0.0
H433 H 0.02346 0.44445 0.76637 0.0
O434 O 0.04199 0.52209 0.87496 0.0
O435 O 0.05092 0.52972 0.73535 0.0
O436 O 0.03015 0.49259 0.73741 0.0
C437 C 0.04984 0.50676 0.71713 0.0
H438 H 0.08352 0.61384 0.81378 0.0
H439 H 0.94232 0.43682 0.70399 0.0
C440 C 0.13541 0.03614 0.67471 0.0
C441 C 0.1371 0.06333 0.6468 0.0
C442 C 0.0942 0.07448 0.70684 0.0
C443 C 0.09067 0.04682 0.72742 0.0
N444 N 0.10864 1.00134 0.73521 0.0
N445 N 0.11969 0.10879 0.63789 0.0
C446 C 0.11171 0.02773 0.71316 0.0
C447 C 0.11715 0.08265 0.6645 0.0
N448 N 0.15656 0.01832 0.66415 0.0
N449 N 0.07536 0.09298 0.7262 0.0
H450 H 0.13702 0.11547 0.61064 0.0
H451 H 0.10456 0.12385 0.64043 0.0
H452 H 0.05688 0.08831 0.75041 0.0
H453 H 0.07827 0.11324 0.72083 0.0
H454 H 0.15838 0.99873 0.68875 0.0
H455 H 0.17362 0.02347 0.63378 0.0
H456 H 0.12081 0.98591 0.71916 0.0
H457 H 0.09296 0.99459 0.76837 0.0
C458 C 0.54594 0.13225 0.65971 0.0
C459 C 0.52228 0.14546 0.62418 0.0
C460 C 0.49459 0.10817 0.67131 0.0
C461 C 0.51823 0.09499 0.70711 0.0
N462 N 0.56456 0.09676 0.74882 0.0
N463 N 0.47317 0.14876 0.60677 0.0
C464 C 0.54339 0.10776 0.70533 0.0
C465 C 0.4963 0.13424 0.63345 0.0
N466 N 0.57098 0.14279 0.64823 0.0
N467 N 0.47069 0.09535 0.67156 0.0
H468 H 0.47369 0.16769 0.57778 0.0
H469 H 0.45329 0.1431 0.61781 0.0
H470 H 0.4682 0.07696 0.70164 0.0
H471 H 0.45376 0.10215 0.63937 0.0
H472 H 0.5895 0.13283 0.66589 0.0
H473 H 0.5734 0.16108 0.61727 0.0
H474 H 0.58273 0.10602 0.75509 0.0
H475 H 0.56287 0.07929 0.78387 0.0
C476 C 0.36442 0.45876 0.63795 0.0
C477 C 0.36134 0.47152 0.56713 0.0
C478 C 0.39607 0.50269 0.58925 0.0
C479 C 0.39711 0.49163 0.66129 0.0
N480 N 0.38117 0.46092 0.75682 0.0
N481 N 0.37102 0.50831 0.4782 0.0
C482 C 0.381 0.47006 0.68632 0.0
C483 C 0.37644 0.49414 0.54339 0.0
N484 N 0.35207 0.4355 0.6583 0.0
N485 N 0.41423 0.5212 0.56466 0.0
H486 H 0.3565 0.50311 0.44327 0.0
H487 H 0.37914 0.52655 0.46089 0.0
H488 H 0.42851 0.52813 0.59734 0.0
H489 H 0.41675 0.528 0.51137 0.0
H490 H 0.35547 0.42385 0.70707 0.0
H491 H 0.33991 0.42673 0.62418 0.0
H492 H 0.36786 0.44712 0.78045 0.0
H493 H 0.39369 0.46852 0.79254 0.0
C494 C 0.02192 0.4051 0.57897 0.0
C495 C 1.01106 0.37966 0.5833 0.0
C496 C 0.9873 0.3873 0.69205 0.0
C497 C 0.99511 0.41391 0.68196 0.0
N498 N 0.01511 0.44982 0.60676 0.0
N499 N 0.98066 0.34746 0.63964 0.0
C500 C 1.01131 0.42328 0.62319 0.0
C501 C 0.9931 0.37089 0.639 0.0
N502 N 0.04269 0.41176 0.53336 0.0
N503 N 0.97472 0.3777 0.75309 0.0
H504 H 0.98418 0.33498 0.60157 0.0
H505 H 0.96523 0.3414 0.67466 0.0
H506 H 0.97033 0.38943 0.79253 0.0
H507 H 0.97083 0.35775 0.76718 0.0
H508 H 0.05334 0.42894 0.53338 0.0
H509 H 0.05112 0.39884 0.50049 0.0
H510 H 0.02471 0.45799 0.56096 0.0
H511 H 1.006 0.46409 0.63451 0.0
C512 C 0.91707 0.95965 0.93489 0.0
C513 C 0.89975 0.97957 0.95993 0.0
C514 C 0.92338 0.01385 0.88343 0.0
C515 C 0.94357 0.99438 0.86741 0.0
N516 N 0.9606 0.94832 0.88264 0.0
N517 N 0.88773 0.02604 0.96244 0.0
C518 C 0.94045 0.96706 0.89336 0.0
C519 C 0.90308 1.00678 0.93478 0.0
N520 N 0.91102 0.93361 0.9506 0.0
N521 N 0.92335 0.03916 0.8484 0.0
H522 H 0.87239 0.02186 0.99939 0.0
H523 H 0.8916 0.04614 0.95286 0.0
H524 H 0.9378 0.04493 0.81034 0.0
H525 H 0.9076 0.0536 0.85189 0.0
H526 H 0.92101 0.91829 0.92813 0.0
H527 H 0.89427 0.92762 0.98138 0.0
H528 H 0.96114 0.92874 0.90763 0.0
H529 H 0.97809 0.95259 0.8532 0.0
C530 C 0.52098 0.90122 0.94349 0.0
C531 C 0.49464 0.8927 0.96465 0.0
C532 C 0.47289 0.93356 0.89798 0.0
C533 C 0.49924 0.94213 0.87702 0.0
N534 N 0.54793 0.93183 0.86728 0.0
N535 N 0.4454 0.89791 0.95228 0.0
C536 C 0.52312 0.92512 0.8954 0.0
C537 C 0.47053 0.90806 0.93885 0.0
N538 N 0.54404 0.8872 0.97244 0.0
N539 N 0.45012 0.94998 0.87895 0.0
H540 H 0.44305 0.87935 0.98193 0.0
H541 H 0.42704 0.90676 0.93004 0.0
H542 H 0.45091 0.9674 0.84328 0.0
H543 H 0.43068 0.94688 0.89962 0.0
H544 H 0.56374 0.89403 0.96667 0.0
H545 H 0.5434 0.8694 1.00672 0.0
H546 H 0.56543 0.91897 0.87202 0.0
H547 H 0.55079 0.94964 0.83477 0.0
C548 C 0.67417 0.54398 0.97891 0.0
C549 C 0.66693 0.56816 1.0049 0.0
C550 C 0.62858 0.57631 0.9182 0.0
C551 C 0.6332 0.55005 0.90198 0.0
N552 N 0.67141 0.52069 0.87844 0.0
N553 N 0.63792 0.60856 0.9962 0.0
C554 C 0.6593 0.53713 0.92101 0.0
C555 C 0.64432 0.58475 0.9735 0.0
N556 N 0.69446 0.5268 1.01107 0.0
N557 N 0.61278 0.59435 0.87358 0.0
H558 H 0.65006 0.61622 0.03256 0.0
H559 H 0.61988 0.62002 0.98166 0.0
H560 H 0.60692 0.5903 0.82401 0.0
H561 H 0.60975 0.61433 0.87934 0.0
H562 H 0.6984 0.50778 0.99787 0.0
H563 H 0.70554 0.53045 0.055 0.0
H564 H 0.69144 0.51242 0.88661 0.0
H565 H 0.66283 0.5187 0.82959 0.0
C566 C 0.04615 0.64223 1.01442 0.0
C567 C 0.02774 0.6648 0.99545 0.0
C568 C 0.02242 0.65235 0.87695 0.0
C569 C 0.03861 0.62858 0.89844 0.0
N570 N 0.06339 0.59899 0.9889 0.0
N571 N 0.99676 0.69085 0.91079 0.0
C572 C 0.04993 0.62308 0.96749 0.0
C573 C 0.01555 0.66985 0.92699 0.0
N574 N 0.06046 0.63944 0.07682 0.0
N575 N 0.01398 0.65816 0.80819 0.0
H576 H 0.9917 0.70427 0.9457 0.0
H577 H 0.98499 0.69419 0.86462 0.0
H578 H 0.01857 0.64537 0.77132 0.0
H579 H 1.00424 0.67621 0.78646 0.0
H580 H 0.07627 0.62498 0.09062 0.0
H581 H 0.05815 0.653 0.11266 0.0
H582 H 0.06948 0.59234 0.04082 0.0
H583 H 0.06678 0.58472 0.95541 0.0
C584 C 0.96109 0.11986 0.60647 0.0
C585 C 0.98494 0.13253 0.58049 0.0
C586 C 0.0129 0.09127 0.6129 0.0
C587 C 0.99013 0.07976 0.64817 0.0
N588 N 0.94222 0.0815 0.67621 0.0
N589 N 0.03438 0.13187 0.56979 0.0
C590 C 0.96401 0.0936 0.64402 0.0
C591 C 1.01108 0.11864 0.58619 0.0
N592 N 0.93582 0.13284 0.59432 0.0
N593 N 0.03618 0.07593 0.60413 0.0
H594 H 0.03417 0.15215 0.55104 0.0
H595 H 0.05411 0.1233 0.58104 0.0
H596 H 0.03769 0.05549 0.62022 0.0
H597 H 0.05266 0.08282 0.57373 0.0
H598 H 0.91736 0.12412 0.60701 0.0
H599 H 0.93318 0.15213 0.5673 0.0
H600 H 0.92329 0.09121 0.68326 0.0
H601 H 0.94348 0.06134 0.69643 0.0
C602 C 0.3895 0.05364 0.73204 0.0
C603 C 0.38443 0.05915 0.65883 0.0
C604 C 0.427 0.03362 0.63635 0.0
C605 C 0.43277 0.02928 0.71008 0.0
N606 N 0.4122 0.02344 0.82553 0.0
N607 N 0.39374 0.04809 0.54241 0.0
C608 C 0.41173 0.03568 0.75731 0.0
C609 C 0.40189 0.04738 0.61114 0.0
N610 N 0.37347 0.0659 0.77751 0.0
N611 N 0.44506 0.02436 0.59016 0.0
H612 H 0.3753 0.05745 0.52172 0.0
H613 H 0.40401 0.03747 0.50691 0.0
H614 H 0.45907 0.00833 0.6047 0.0
H615 H 0.44511 0.03172 0.53661 0.0
H616 H 0.37819 0.06466 0.83101 0.0
H617 H 0.35683 0.07915 0.76063 0.0
H618 H 0.39636 0.026 0.86069 0.0
H619 H 0.4266 0.00809 0.84406 0.0
C620 C 0.51769 0.41487 0.66721 0.0
C621 C 0.53673 0.41596 0.61127 0.0
C622 C 0.54746 0.46125 0.62773 0.0
C623 C 0.52887 0.46009 0.68483 0.0
N624 N 0.49556 0.43631 0.75884 0.0
N625 N 0.57285 0.43763 0.5447 0.0
C626 C 0.51382 0.43698 0.70462 0.0
C627 C 0.55252 0.43843 0.59338 0.0
N628 N 0.50421 0.39207 0.68631 0.0
N629 N 0.55887 0.4847 0.60326 0.0
H630 H 0.57648 0.42159 0.51698 0.0
H631 H 0.58737 0.45189 0.5352 0.0
H632 H 0.55519 0.50205 0.62561 0.0
H633 H 0.57013 0.48776 0.55714 0.0
H634 H 0.49226 0.38832 0.73094 0.0
H635 H 0.50571 0.37582 0.65874 0.0
H636 H 0.48108 0.42216 0.77009 0.0
H637 H 0.4943 0.45031 0.79334 0.0
C638 C 0.09762 0.45377 0.65855 0.0
C639 C 0.11017 0.46784 0.59934 0.0
C640 C 0.08165 0.50798 0.61331 0.0
C641 C 0.07186 0.49472 0.67738 0.0
N642 N 0.07511 0.4579 0.76951 0.0
N643 N 0.11859 0.51013 0.5296 0.0
C644 C 0.08129 0.46826 0.70232 0.0
C645 C 0.10343 0.49548 0.57897 0.0
N646 N 0.10061 0.42666 0.67155 0.0
N647 N 0.06962 0.53189 0.58378 0.0
H648 H 0.13542 0.50217 0.50474 0.0
H649 H 0.11612 0.53078 0.51844 0.0
H650 H 0.05321 0.54139 0.60666 0.0
H651 H 0.07424 0.54097 0.53335 0.0
H652 H 0.08942 0.41528 0.70965 0.0
H653 H 0.11201 0.41544 0.63916 0.0
H654 H 0.08276 0.4394 0.79476 0.0
H655 H 0.08276 0.4394 0.79476 0.0
C656 C 0.02989 0.9228 0.01597 0.0
C657 C 0.05071 0.90615 0.99017 0.0
C658 C 0.06952 0.94493 0.92194 0.0
C659 C 0.04576 0.96044 0.93612 0.0
N660 N 1.00239 0.96424 0.9954 0.0
N661 N 0.08969 0.90075 0.91555 0.0
C662 C 0.02586 0.94958 0.98379 0.0
C663 C 0.07056 0.91703 0.94266 0.0
N664 N 0.01423 0.91312 0.07179 0.0
N665 N 0.09124 0.95722 0.89017 0.0
H666 H 0.09102 0.88016 0.93008 0.0
H667 H 0.10282 0.90747 0.87499 0.0
H668 H 0.09136 0.97792 0.88127 0.0
H669 H 0.10995 0.94735 0.88154 0.0
H670 H 1.00062 0.92505 0.09707 0.0
H671 H 0.01665 0.89362 0.09741 0.0
H672 H 0.98547 0.95612 0.02153 0.0
H673 H 0.99909 0.98431 0.9757 0.0
C674 C 0.63281 1.0063 0.89626 0.0
C675 C 0.63365 0.98429 0.95081 0.0
C676 C 0.58387 0.9821 0.94346 0.0
C677 C 0.58311 1.0031 0.88567 0.0
N678 N 0.60714 0.0322 0.79912 0.0
N679 N 0.61158 0.94771 0.01673 0.0
C680 C 0.6077 0.01424 0.85944 0.0
C681 C 0.60962 0.97117 0.97173 0.0
N682 N 0.65579 0.02019 0.88136 0.0
N683 N 0.56008 0.97256 0.97168 0.0
H684 H 0.6302 0.93919 0.03869 0.0
H685 H 0.59526 0.93545 0.02732 0.0
H686 H 0.5407 0.97861 0.95063 0.0
H687 H 0.55936 0.95968 0.01889 0.0
H688 H 0.65568 0.03822 0.84797 0.0
H689 H 0.67472 0.01479 0.90646 0.0
H690 H 0.62476 0.03856 0.7729 0.0
H691 H 0.58905 0.03944 0.77216 0.0
C692 C 0.50366 0.60199 1.00937 0.0
C693 C 0.48579 0.62375 0.9799 0.0
C694 C 0.4757 0.60077 0.87974 0.0
C695 C 0.4923 0.5783 0.91127 0.0
N696 N 0.51675 0.55516 1.01369 0.0
N697 N 0.44974 0.64132 0.89695 0.0
C698 C 0.50462 0.57818 0.97855 0.0
C699 C 0.47009 0.62224 0.91835 0.0
N700 N 0.52071 0.60445 0.06459 0.0
N701 N 0.46688 0.6026 0.81131 0.0
H702 H 0.44507 0.65729 0.92428 0.0
H703 H 0.43583 0.63986 0.85644 0.0
H704 H 0.47137 0.58796 0.77961 0.0
H705 H 0.45739 0.61984 0.7836 0.0
H706 H 0.53645 0.59039 0.08265 0.0
H707 H 0.52061 0.62151 0.08895 0.0
H708 H 0.52365 0.55325 0.06577 0.0
H709 H 0.51748 0.53721 0.99328 0.0
C710 C 0.93229 0.56426 1.00587 0.0
C711 C 0.90707 0.57153 0.9692 0.0
C712 C 0.92408 0.55253 0.86658 0.0
C713 C 0.94866 0.54365 0.90508 0.0
N714 N 0.97576 0.53827 1.0119 0.0
N715 N 0.88055 0.57866 0.86178 0.0
C716 C 0.95284 0.5491 0.97461 0.0
C717 C 0.90349 0.56751 0.89838 0.0
N718 N 0.93646 0.57202 0.07034 0.0
N719 N 0.92021 0.54589 0.80071 0.0
H720 H 0.86556 0.59017 0.88431 0.0
H721 H 0.8772 0.57848 0.80827 0.0
H722 H 0.9348 0.53479 0.77602 0.0
H723 H 0.90206 0.54991 0.77149 0.0
H724 H 0.95524 0.56974 0.09712 0.0
H725 H 0.92157 0.58279 0.09516 0.0
H726 H 0.97939 0.5396 0.06472 0.0
H727 H 0.99033 0.52576 0.99141 0.0
C728 C 0.04574 0.14566 0.04764 0.0
C729 C 0.03194 0.14447 0.11309 0.0
C730 C 0.01649 0.10047 0.09777 0.0
C731 C 0.02639 0.10376 0.02793 0.0
N732 N 0.04884 0.1302 0.93368 0.0
N733 N 1.00291 0.12121 0.19974 0.0
C734 C 0.041 0.12637 1.00247 0.0
C735 C 0.0173 0.12177 0.13859 0.0
N736 N 0.06355 0.16517 0.02903 0.0
N737 N 1.0061 0.07682 0.12436 0.0
H738 H 1.00305 0.13635 0.23106 0.0
H739 H 0.98939 0.10665 0.21724 0.0
H740 H 1.00543 0.06113 0.09485 0.0
H741 H 1.00056 0.0719 0.17676 0.0
H742 H 0.0762 0.16571 0.98531 0.0
H743 H 0.06754 0.1795 0.06103 0.0
H744 H 0.05659 0.14777 0.90919 0.0
H745 H 0.04592 0.11634 0.89961 0.0
C746 C 0.39899 0.09066 0.07345 0.0
C747 C 0.38112 0.07063 0.10048 0.0
C748 C 0.41108 0.03701 0.05338 0.0
C749 C 0.42995 0.05659 0.03155 0.0
N750 N 0.44388 0.10122 0.0255 0.0
N751 N 0.37184 0.0242 0.12515 0.0
C752 C 0.42439 0.08325 0.04274 0.0
C753 C 0.3876 0.04363 0.09272 0.0
N754 N 0.39133 0.11677 0.0758 0.0
N755 N 0.41546 0.01217 0.03495 0.0
H756 H 0.35444 0.02824 0.15413 0.0
H757 H 0.37713 1.00397 0.12812 0.0
H758 H 0.43258 1.00681 1.00654 0.0
H759 H 0.40119 0.9976 0.04257 0.0
H760 H 0.40199 0.13256 0.05101 0.0
H761 H 0.37313 0.1228 0.09888 0.0
H762 H 0.4427 0.1204 0.03855 0.0
H763 H 0.46226 0.09626 1.00151 0.0
C764 C 0.5199 0.414 1.00652 0.0
C765 C 0.51108 0.41817 0.07476 0.0
C766 C 0.4974 0.46476 0.02823 0.0
C767 C 0.50894 0.46114 0.96216 0.0
N768 N 0.53648 0.43359 0.89338 0.0
N769 N 0.49537 0.44859 0.15354 0.0
C770 C 0.5218 0.43615 0.95282 0.0
C771 C 0.5008 0.44387 0.08644 0.0
N772 N 0.52546 0.38873 0.99198 0.0
N773 N 0.4832 0.48813 0.03539 0.0
H774 H 0.49786 0.43387 0.19727 0.0
H775 H 0.49066 0.46747 0.16666 0.0
H776 H 0.48095 0.50402 0.99452 0.0
H777 H 0.47196 0.49109 0.07994 0.0
H778 H 0.52899 0.38435 0.94122 0.0
H779 H 0.5238 0.37187 0.02927 0.0
H780 H 0.54866 0.4166 0.88721 0.0
H781 H 0.53851 0.44921 0.85268 0.0
C782 C 0.09337 0.49785 0.04922 0.0
C783 C 0.10292 0.47075 0.06231 0.0
C784 C 0.06541 0.45947 0.98608 0.0
C785 C 0.05749 0.48717 0.9681 0.0
N786 N 0.05558 0.52944 1.01184 0.0
N787 N 0.09841 0.42538 0.04449 0.0
C788 C 0.06904 0.50539 1.00831 0.0
C789 C 0.08889 0.45144 0.03134 0.0
N790 N 0.10841 0.51688 0.07226 0.0
N791 N 0.04949 0.44066 0.96509 0.0
H792 H 0.11378 0.41855 0.08179 0.0
H793 H 0.09224 0.41062 0.01655 0.0
H794 H 0.03023 0.44485 0.94164 0.0
H795 H 0.0532 0.4203 0.97936 0.0
H796 H 0.10426 0.53718 0.05645 0.0
H797 H 0.12655 0.51255 0.10172 0.0
H798 H 0.06132 0.54217 0.04662 0.0
H799 H 0.03652 0.53503 0.98786 0.0
C800 C 0.98879 0.88743 0.57211 0.0
C801 C 0.99766 0.88869 0.50121 0.0
C802 C 1.0089 0.9351 0.50252 0.0
C803 C 1.00433 0.9323 0.57601 0.0
N804 N 0.9924 0.90489 0.68296 0.0
N805 N 0.0187 0.91322 0.40031 0.0
C806 C 0.99456 0.90832 0.61132 0.0
C807 C 1.00807 0.91255 0.46634 0.0
N808 N 0.97452 0.86639 0.60166 0.0
N809 N 0.01424 0.95955 0.46774 0.0
H810 H 0.01892 0.89707 0.37241 0.0
H811 H 0.02929 0.92904 0.37533 0.0
H812 H 0.01482 0.97622 0.49366 0.0
H813 H 0.01545 0.96379 0.41312 0.0
H814 H 0.96524 0.86555 0.65067 0.0
H815 H 0.96974 0.85091 0.57426 0.0
H816 H 0.98857 0.88675 0.7128 0.0
H817 H 0.99638 0.91975 0.71316 0.0
C818 C 0.62446 1.006 0.45934 0.0
C819 C 0.63748 0.98012 0.46175 0.0
C820 C 0.60357 0.96261 0.54884 0.0
C821 C 0.58924 0.9879 0.54164 0.0
N822 N 0.58365 0.03288 0.48377 0.0
N823 N 0.63692 0.93298 0.50074 0.0
C824 C 0.5991 0.0094 0.49519 0.0
C825 C 0.62632 0.95819 0.50442 0.0
N826 N 0.6368 0.02747 0.4248 0.0
N827 N 0.59584 0.94304 0.59999 0.0
H828 H 0.65336 0.92895 0.46852 0.0
H829 H 0.62799 0.91595 0.52475 0.0
H830 H 0.57956 0.94591 0.63374 0.0
H831 H 0.60696 0.92492 0.61324 0.0
H832 H 0.62997 0.04707 0.42721 0.0
H833 H 0.65523 0.02582 0.39794 0.0
H834 H 0.58793 0.04857 0.44506 0.0
H835 H 0.56524 0.03588 0.50981 0.0
C836 C 0.49699 0.59701 0.51003 0.0
C837 C 0.50729 0.62191 0.51852 0.0
C838 C 0.52214 0.60384 0.63968 0.0
C839 C 0.51358 0.57839 0.62956 0.0
N840 N 0.49796 0.54951 0.5501 0.0
N841 N 0.53478 0.64746 0.58578 0.0
C842 C 0.50248 0.57463 0.56317 0.0
C843 C 0.52149 0.62479 0.58164 0.0
N844 N 0.48112 0.59493 0.45234 0.0
N845 N 0.52931 0.6086 0.70558 0.0
H846 H 0.53472 0.66324 0.54456 0.0
H847 H 0.54791 0.6496 0.62736 0.0
H848 H 0.52952 0.59417 0.74998 0.0
H849 H 0.53259 0.62751 0.71754 0.0
H850 H 0.47032 0.57823 0.44707 0.0
H851 H 0.47697 0.61073 0.41201 0.0
H852 H 0.4924 0.54513 0.50072 0.0
H853 H 0.50241 0.53262 0.5869 0.0
C854 C 0.93105 0.54315 0.53583 0.0
C855 C 0.91564 0.56755 0.53835 0.0
C856 C 0.94574 0.57662 0.63466 0.0
C857 C 0.96196 0.55275 0.62997 0.0
N858 N 0.9744 0.51767 0.56188 0.0
N859 N 0.91328 0.61072 0.57625 0.0
C860 C 0.95597 0.53745 0.57585 0.0
C861 C 0.92469 0.58533 0.58318 0.0
N862 N 0.92126 0.5247 0.49833 0.0
N863 N 0.94882 0.59008 0.69074 0.0
H864 H 0.89805 0.6178 0.5387 0.0
H865 H 0.92089 0.6254 0.60251 0.0
H866 H 0.9631 0.58429 0.7313 0.0
H867 H 0.93528 0.60566 0.70068 0.0
H868 H 0.93003 0.50543 0.50122 0.0
H869 H 0.903 0.52782 0.46905 0.0
H870 H 0.97232 0.50729 0.51928 0.0
H871 H 0.9933 0.51373 0.58821 0.0
loop_
_geom_bond_atom_site_label_1
_geom_bond_atom_site_label_2
_geom_bond_distance
_geom_bond_site_symmetry_2
_ccdc_geom_bond_type
C0 C1 1.264 . S
C0 C5 1.479 . S
C0 C10 1.465 . S
C1 C0 1.264 . S
C1 C3 1.339 . S
C1 H28 0.931 . S
C2 C3 1.395 . S
C2 C4 1.320 . S
C3 C1 1.339 . S
C3 C2 1.395 . S
C3 H29 0.929 . S
C4 C2 1.320 . S
C4 C5 1.405 . S
C4 H30 0.930 . S
C5 C0 1.479 . S
C5 C4 1.405 . S
C5 H31 0.931 . S
U6 O7 2.454 . S
U6 O8 2.458 . S
U6 C9 2.984 . S
U6 C10 2.847 . S
U6 C23 2.882 . S
U6 O24 2.441 . S
U6 O25 2.420 . S
U6 O26 2.455 . S
U6 O27 2.449 . S
O7 U6 2.454 . S
O7 C9 1.353 . S
O8 U6 2.458 . S
O8 C9 1.286 . S
C9 U6 2.984 . S
C9 O7 1.353 . S
C9 O8 1.286 . S
C9 C11 1.363 . S
C10 C0 1.465 . S
C10 U6 2.847 . S
C10 O24 1.249 . S
C10 O25 1.202 . S
C11 C9 1.363 . S
C11 C13 1.408 . S
C11 C16 1.342 . S
C12 C13 1.310 . S
C12 C15 1.461 . S
C12 H32 0.932 . S
C13 C11 1.408 . S
C13 C12 1.310 . S
C13 H33 0.930 . S
C14 C15 1.474 1_556 S
C14 C16 1.285 1_556 S
C14 H34 0.929 . S
C15 C12 1.461 . S
C15 C14 1.474 1_554 S
C16 C11 1.342 . S
C16 C14 1.285 1_554 S
C16 H35 0.930 1_554 S
C17 C20 1.424 1_556 S
C17 C22 1.245 . S
C17 C23 1.428 1_556 S
C18 C21 1.260 . S
C18 C22 1.477 . S
C18 H36 0.932 . S
C19 C20 1.384 1_556 S
C19 C21 1.479 . S
C19 H37 0.929 . S
C20 C17 1.424 1_554 S
C20 C19 1.384 1_554 S
C20 H38 0.928 . S
C21 C18 1.260 . S
C21 C19 1.479 . S
C22 C17 1.245 . S
C22 C18 1.477 . S
C22 H39 0.932 . S
C23 U6 2.882 . S
C23 C17 1.428 1_554 S
C23 O26 1.301 . S
C23 O27 1.282 . S
O24 U6 2.441 . S
O24 C10 1.249 . S
O25 U6 2.420 . S
O25 C10 1.202 . S
O26 U6 2.455 . S
O26 C23 1.301 . S
O27 U6 2.449 . S
O27 C23 1.282 . S
H28 C1 0.931 . S
H29 C3 0.929 . S
H30 C4 0.930 . S
H31 C5 0.931 . S
H32 C12 0.932 . S
H33 C13 0.930 . S
H34 C14 0.929 . S
H35 C16 0.930 1_556 S
H36 C18 0.932 . S
H37 C19 0.929 . S
H38 C20 0.928 . S
H39 C22 0.932 . S
C40 C41 1.264 . S
C40 C45 1.479 . S
C40 C50 1.465 . S
C41 C40 1.264 . S
C41 C43 1.339 . S
C41 H68 0.931 . S
C42 C43 1.395 . S
C42 C44 1.320 . S
C43 C41 1.339 . S
C43 C42 1.395 . S
C43 H69 0.929 . S
C44 C42 1.320 . S
C44 C45 1.405 . S
C44 H70 0.930 1_455 S
C45 C40 1.479 . S
C45 C44 1.405 . S
C45 H71 0.931 . S
U46 O47 2.454 . S
U46 O48 2.458 . S
U46 C49 2.984 . S
U46 C50 2.847 . S
U46 C63 2.882 . S
U46 O64 2.441 . S
U46 O65 2.420 . S
U46 O66 2.455 . S
U46 O67 2.449 . S
O47 U46 2.454 . S
O47 C49 1.353 . S
O48 U46 2.458 . S
O48 C49 1.286 . S
C49 U46 2.984 . S
C49 O47 1.353 . S
C49 O48 1.286 . S
C49 C51 1.363 . S
C50 C40 1.465 . S
C50 U46 2.847 . S
C50 O64 1.249 . S
C50 O65 1.202 . S
C51 C49 1.363 . S
C51 C53 1.408 . S
C51 C56 1.342 . S
C52 C53 1.310 . S
C52 C55 1.461 . S
C52 H72 0.932 . S
C53 C51 1.408 . S
C53 C52 1.310 . S
C53 H73 0.930 . S
C54 C55 1.480 1_655 S
C54 C56 1.288 1_655 S
C54 H74 0.922 1_554 S
C55 C52 1.461 . S
C55 C54 1.480 1_455 S
C56 C51 1.342 . S
C56 C54 1.288 1_455 S
C56 H75 0.930 1_554 S
C57 C60 1.424 . S
C57 C62 1.245 . S
C57 C63 1.428 1_556 S
C58 C61 1.260 . S
C58 C62 1.477 . S
C58 H76 0.932 . S
C59 C60 1.384 . S
C59 C61 1.479 . S
C59 H77 0.929 . S
C60 C57 1.424 . S
C60 C59 1.384 . S
C60 H78 0.928 1_556 S
C61 C58 1.260 . S
C61 C59 1.479 . S
C62 C57 1.245 . S
C62 C58 1.477 . S
C62 H79 0.932 . S
C63 U46 2.882 . S
C63 C57 1.428 1_554 S
C63 O66 1.301 . S
C63 O67 1.282 . S
O64 U46 2.441 . S
O64 C50 1.249 . S
O65 U46 2.420 . S
O65 C50 1.202 . S
O66 U46 2.455 . S
O66 C63 1.301 . S
O67 U46 2.449 . S
O67 C63 1.282 . S
H68 C41 0.931 . S
H69 C43 0.929 . S
H70 C44 0.930 1_655 S
H71 C45 0.931 . S
H72 C52 0.932 . S
H73 C53 0.930 . S
H74 C54 0.922 1_556 S
H75 C56 0.930 1_556 S
H76 C58 0.932 . S
H77 C59 0.929 . S
H78 C60 0.928 1_554 S
H79 C62 0.932 . S
C80 C81 1.264 . S
C80 C85 1.479 . S
C80 C90 1.465 . S
C81 C80 1.264 . S
C81 C83 1.339 . S
C81 H108 0.931 . S
C82 C83 1.395 . S
C82 C84 1.320 . S
C83 C81 1.339 . S
C83 C82 1.395 . S
C83 H109 0.929 . S
C84 C82 1.320 . S
C84 C85 1.405 . S
C84 H110 0.930 . S
C85 C80 1.479 . S
C85 C84 1.405 . S
C85 H111 0.931 . S
U86 O87 2.454 . S
U86 O88 2.458 . S
U86 C89 2.984 . S
U86 C90 2.847 . S
U86 C103 2.882 1_554 S
U86 O104 2.441 . S
U86 O105 2.420 . S
U86 O106 2.455 1_554 S
U86 O107 2.449 . S
O87 U86 2.454 . S
O87 C89 1.353 . S
O88 U86 2.458 . S
O88 C89 1.286 . S
C89 U86 2.984 . S
C89 O87 1.353 . S
C89 O88 1.286 . S
C89 C91 1.363 . S
C90 C80 1.465 . S
C90 U86 2.847 . S
C90 O104 1.249 . S
C90 O105 1.202 . S
C91 C89 1.363 . S
C91 C93 1.408 . S
C91 C96 1.342 1_554 S
C92 C93 1.310 . S
C92 C95 1.461 . S
C92 H112 0.932 . S
C93 C91 1.408 . S
C93 C92 1.310 . S
C93 H113 0.930 . S
C94 C95 1.474 1_556 S
C94 C96 1.285 . S
C94 H114 0.929 . S
C95 C92 1.461 . S
C95 C94 1.474 1_554 S
C96 C91 1.342 1_556 S
C96 C94 1.285 . S
C96 H115 0.930 . S
C97 C100 1.424 . S
C97 C102 1.245 . S
C97 C103 1.428 . S
C98 C101 1.260 . S
C98 C102 1.477 . S
C98 H116 0.932 . S
C99 C100 1.384 . S
C99 C101 1.479 . S
C99 H117 0.929 . S
C100 C97 1.424 . S
C100 C99 1.384 . S
C100 H118 0.928 1_556 S
C101 C98 1.260 . S
C101 C99 1.479 . S
C102 C97 1.245 . S
C102 C98 1.477 . S
C102 H119 0.932 . S
C103 U86 2.882 1_556 S
C103 C97 1.428 . S
C103 O106 1.301 . S
C103 O107 1.282 1_556 S
O104 U86 2.441 . S
O104 C90 1.249 . S
O105 U86 2.420 . S
O105 C90 1.202 . S
O106 U86 2.455 1_556 S
O106 C103 1.301 . S
O107 U86 2.449 . S
O107 C103 1.282 1_554 S
H108 C81 0.931 . S
H109 C83 0.929 . S
H110 C84 0.930 . S
H111 C85 0.931 . S
H112 C92 0.932 . S
H113 C93 0.930 . S
H114 C94 0.929 . S
H115 C96 0.930 . S
H116 C98 0.932 . S
H117 C99 0.929 . S
H118 C100 0.928 1_554 S
H119 C102 0.932 . S
C120 C121 1.264 . S
C120 C125 1.479 . S
C120 C130 1.465 . S
C121 C120 1.264 . S
C121 C123 1.339 . S
C121 H148 0.931 . S
C122 C123 1.395 . S
C122 C124 1.320 . S
C123 C121 1.339 . S
C123 C122 1.395 . S
C123 H149 0.929 . S
C124 C122 1.320 . S
C124 C125 1.405 . S
C124 H150 0.930 . S
C125 C120 1.479 . S
C125 C124 1.405 . S
C125 H151 0.931 . S
U126 O127 2.454 . S
U126 O128 2.458 . S
U126 C129 2.984 . S
U126 C130 2.847 . S
U126 C143 2.882 . S
U126 O144 2.441 . S
U126 O145 2.420 . S
U126 O146 2.455 . S
U126 O147 2.449 . S
O127 U126 2.454 . S
O127 C129 1.353 . S
O128 U126 2.458 . S
O128 C129 1.286 . S
C129 U126 2.984 . S
C129 O127 1.353 . S
C129 O128 1.286 . S
C129 C131 1.363 . S
C130 C120 1.465 . S
C130 U126 2.847 . S
C130 O144 1.249 . S
C130 O145 1.202 . S
C131 C129 1.363 . S
C131 C133 1.408 . S
C131 C136 1.342 1_554 S
C132 C133 1.310 . S
C132 C135 1.461 . S
C132 H152 0.932 . S
C133 C131 1.408 . S
C133 C132 1.310 . S
C133 H153 0.930 . S
C134 C135 1.474 1_556 S
C134 C136 1.285 . S
C134 H154 0.929 . S
C135 C132 1.461 . S
C135 C134 1.474 1_554 S
C136 C131 1.342 1_556 S
C136 C134 1.285 . S
C136 H155 0.930 . S
C137 C140 1.424 1_556 S
C137 C142 1.245 . S
C137 C143 1.428 1_556 S
C138 C141 1.260 . S
C138 C142 1.477 . S
C138 H156 0.932 . S
C139 C140 1.384 1_556 S
C139 C141 1.479 . S
C139 H157 0.929 . S
C140 C137 1.424 1_554 S
C140 C139 1.384 1_554 S
C140 H158 0.928 . S
C141 C138 1.260 . S
C141 C139 1.479 . S
C142 C137 1.245 . S
C142 C138 1.477 . S
C142 H159 0.932 . S
C143 U126 2.882 . S
C143 C137 1.428 1_554 S
C143 O146 1.301 . S
C143 O147 1.282 . S
O144 U126 2.441 . S
O144 C130 1.249 . S
O145 U126 2.420 . S
O145 C130 1.202 . S
O146 U126 2.455 . S
O146 C143 1.301 . S
O147 U126 2.449 . S
O147 C143 1.282 . S
H148 C121 0.931 . S
H149 C123 0.929 . S
H150 C124 0.930 . S
H151 C125 0.931 . S
H152 C132 0.932 . S
H153 C133 0.930 . S
H154 C134 0.929 . S
H155 C136 0.930 . S
H156 C138 0.932 . S
H157 C139 0.929 . S
H158 C140 0.928 . S
H159 C142 0.932 . S
C160 C161 1.264 . S
C160 C165 1.479 . S
C160 C170 1.465 . S
C161 C160 1.264 . S
C161 C163 1.339 . S
C161 H188 0.931 . S
C162 C163 1.395 . S
C162 C164 1.320 . S
C163 C161 1.339 . S
C163 C162 1.395 . S
C163 H189 0.929 . S
C164 C162 1.320 . S
C164 C165 1.405 . S
C164 H190 0.930 . S
C165 C160 1.479 . S
C165 C164 1.405 . S
C165 H191 0.931 . S
U166 O167 2.454 . S
U166 O168 2.458 . S
U166 C169 2.984 . S
U166 C170 2.847 . S
U166 C183 2.882 . S
U166 O184 2.441 . S
U166 O185 2.420 . S
U166 O186 2.455 . S
U166 O187 2.449 . S
O167 U166 2.454 . S
O167 C169 1.353 . S
O168 U166 2.458 . S
O168 C169 1.286 . S
C169 U166 2.984 . S
C169 O167 1.353 . S
C169 O168 1.286 . S
C169 C171 1.363 . S
C170 C160 1.465 . S
C170 U166 2.847 . S
C170 O184 1.249 . S
C170 O185 1.202 . S
C171 C169 1.363 . S
C171 C173 1.408 . S
C171 C176 1.342 . S
C172 C173 1.310 . S
C172 C175 1.461 . S
C172 H192 0.932 . S
C173 C171 1.408 . S
C173 C172 1.310 . S
C173 H193 0.930 . S
C174 C175 1.474 . S
C174 C176 1.285 . S
C174 H194 0.929 . S
C175 C172 1.461 . S
C175 C174 1.474 . S
C176 C171 1.342 . S
C176 C174 1.285 . S
C176 H195 0.930 . S
C177 C180 1.424 . S
C177 C182 1.245 . S
C177 C183 1.428 . S
C178 C181 1.260 . S
C178 C182 1.477 . S
C178 H196 0.932 . S
C179 C180 1.384 . S
C179 C181 1.479 . S
C179 H197 0.929 . S
C180 C177 1.424 . S
C180 C179 1.384 . S
C180 H198 0.928 . S
C181 C178 1.260 . S
C181 C179 1.479 . S
C182 C177 1.245 . S
C182 C178 1.477 . S
C182 H199 0.932 . S
C183 U166 2.882 . S
C183 C177 1.428 . S
C183 O186 1.301 . S
C183 O187 1.282 . S
O184 U166 2.441 . S
O184 C170 1.249 . S
O185 U166 2.420 . S
O185 C170 1.202 . S
O186 U166 2.455 . S
O186 C183 1.301 . S
O187 U166 2.449 . S
O187 C183 1.282 . S
H188 C161 0.931 . S
H189 C163 0.929 . S
H190 C164 0.930 . S
H191 C165 0.931 . S
H192 C172 0.932 . S
H193 C173 0.930 . S
H194 C174 0.929 . S
H195 C176 0.930 . S
H196 C178 0.932 . S
H197 C179 0.929 . S
H198 C180 0.928 . S
H199 C182 0.932 . S
C200 C201 1.264 . S
C200 C205 1.479 . S
C200 C210 1.465 . S
C201 C200 1.264 . S
C201 C203 1.339 . S
C201 H228 0.931 . S
C202 C203 1.395 . S
C202 C204 1.320 . S
C203 C201 1.339 . S
C203 C202 1.395 . S
C203 H229 0.929 . S
C204 C202 1.320 . S
C204 C205 1.405 . S
C204 H230 0.924 1_455 S
C205 C200 1.479 . S
C205 C204 1.405 . S
C205 H231 0.931 . S
U206 O207 2.454 . S
U206 O208 2.458 . S
U206 C209 2.984 . S
U206 C210 2.847 . S
U206 C223 2.882 . S
U206 O224 2.441 . S
U206 O225 2.420 . S
U206 O226 2.455 . S
U206 O227 2.449 . S
O207 U206 2.454 . S
O207 C209 1.353 . S
O208 U206 2.458 . S
O208 C209 1.286 . S
C209 U206 2.984 . S
C209 O207 1.353 . S
C209 O208 1.286 . S
C209 C211 1.363 . S
C210 C200 1.465 . S
C210 U206 2.847 . S
C210 O224 1.249 . S
C210 O225 1.202 . S
C211 C209 1.363 . S
C211 C213 1.408 . S
C211 C216 1.342 . S
C212 C213 1.310 . S
C212 C215 1.462 . S
C212 H232 0.932 . S
C213 C211 1.408 . S
C213 C212 1.310 . S
C213 H233 0.930 . S
C214 C215 1.473 1_655 S
C214 C216 1.285 1_655 S
C214 H234 0.929 . S
C215 C212 1.462 . S
C215 C214 1.473 1_455 S
C216 C211 1.342 . S
C216 C214 1.285 1_455 S
C216 H235 0.930 . S
C217 C220 1.424 . S
C217 C222 1.245 . S
C217 C223 1.428 . S
C218 C221 1.260 . S
C218 C222 1.477 . S
C218 H236 0.932 . S
C219 C220 1.384 . S
C219 C221 1.479 . S
C219 H237 0.929 . S
C220 C217 1.424 . S
C220 C219 1.384 . S
C220 H238 0.928 . S
C221 C218 1.260 . S
C221 C219 1.479 . S
C222 C217 1.245 . S
C222 C218 1.477 . S
C222 H239 0.932 . S
C223 U206 2.882 . S
C223 C217 1.428 . S
C223 O226 1.301 . S
C223 O227 1.282 . S
O224 U206 2.441 . S
O224 C210 1.249 . S
O225 U206 2.420 . S
O225 C210 1.202 . S
O226 U206 2.455 . S
O226 C223 1.301 . S
O227 U206 2.449 . S
O227 C223 1.282 . S
H228 C201 0.931 . S
H229 C203 0.929 . S
H230 C204 0.924 1_655 S
H231 C205 0.931 . S
H232 C212 0.932 . S
H233 C213 0.930 . S
H234 C214 0.929 . S
H235 C216 0.930 . S
H236 C218 0.932 . S
H237 C219 0.929 . S
H238 C220 0.928 . S
H239 C222 0.932 . S
C240 C241 1.264 . S
C240 C245 1.479 . S
C240 C250 1.465 . S
C241 C240 1.264 . S
C241 C243 1.339 . S
C241 H268 0.931 . S
C242 C243 1.395 . S
C242 C244 1.320 . S
C243 C241 1.339 . S
C243 C242 1.395 . S
C243 H269 0.929 . S
C244 C242 1.320 . S
C244 C245 1.405 . S
C244 H270 0.930 . S
C245 C240 1.479 . S
C245 C244 1.405 . S
C245 H271 0.931 . S
U246 O247 2.454 . S
U246 O248 2.458 . S
U246 C249 2.984 . S
U246 C250 2.847 . S
U246 C263 2.882 . S
U246 O264 2.441 . S
U246 O265 2.420 . S
U246 O266 2.455 . S
U246 O267 2.449 . S
O247 U246 2.454 . S
O247 C249 1.353 . S
O248 U246 2.458 . S
O248 C249 1.286 . S
C249 U246 2.984 . S
C249 O247 1.353 . S
C249 O248 1.286 . S
C249 C251 1.363 . S
C250 C240 1.465 . S
C250 U246 2.847 . S
C250 O264 1.249 . S
C250 O265 1.202 . S
C251 C249 1.363 . S
C251 C253 1.408 . S
C251 C256 1.342 . S
C252 C253 1.310 . S
C252 C255 1.461 . S
C252 H272 0.932 . S
C253 C251 1.408 . S
C253 C252 1.310 . S
C253 H273 0.930 . S
C254 C255 1.474 . S
C254 C256 1.285 . S
C254 H274 0.929 . S
C255 C252 1.461 . S
C255 C254 1.474 . S
C256 C251 1.342 . S
C256 C254 1.285 . S
C256 H275 0.930 . S
C257 C260 1.424 . S
C257 C262 1.245 . S
C257 C263 1.428 . S
C258 C261 1.260 . S
C258 C262 1.477 . S
C258 H276 0.932 . S
C259 C260 1.384 . S
C259 C261 1.479 . S
C259 H277 0.929 . S
C260 C257 1.424 . S
C260 C259 1.384 . S
C260 H278 0.928 . S
C261 C258 1.260 . S
C261 C259 1.479 . S
C262 C257 1.245 . S
C262 C258 1.477 . S
C262 H279 0.932 . S
C263 U246 2.882 . S
C263 C257 1.428 . S
C263 O266 1.301 . S
C263 O267 1.282 . S
O264 U246 2.441 . S
O264 C250 1.249 . S
O265 U246 2.420 . S
O265 C250 1.202 . S
O266 U246 2.455 . S
O266 C263 1.301 . S
O267 U246 2.449 . S
O267 C263 1.282 . S
H268 C241 0.931 . S
H269 C243 0.929 . S
H270 C244 0.930 . S
H271 C245 0.931 . S
H272 C252 0.932 . S
H273 C253 0.930 . S
H274 C254 0.929 . S
H275 C256 0.930 . S
H276 C258 0.932 . S
H277 C259 0.929 . S
H278 C260 0.928 . S
H279 C262 0.932 . S
C280 C281 1.264 . S
C280 C285 1.479 . S
C280 C290 1.465 . S
C281 C280 1.264 . S
C281 C283 1.339 . S
C281 H308 0.931 . S
C282 C283 1.395 . S
C282 C284 1.320 . S
C283 C281 1.339 . S
C283 C282 1.395 . S
C283 H309 0.929 . S
C284 C282 1.320 . S
C284 C285 1.405 . S
C284 H310 0.930 . S
C285 C280 1.479 . S
C285 C284 1.405 . S
C285 H311 0.931 . S
U286 O287 2.454 . S
U286 O288 2.458 . S
U286 C289 2.984 . S
U286 C290 2.847 . S
U286 C303 2.882 . S
U286 O304 2.441 . S
U286 O305 2.420 . S
U286 O306 2.455 . S
U286 O307 2.449 . S
O287 U286 2.454 . S
O287 C289 1.353 . S
O288 U286 2.458 . S
O288 C289 1.286 . S
C289 U286 2.984 . S
C289 O287 1.353 . S
C289 O288 1.286 . S
C289 C291 1.363 . S
C290 C280 1.465 . S
C290 U286 2.847 . S
C290 O304 1.249 . S
C290 O305 1.202 . S
C291 C289 1.363 . S
C291 C293 1.408 . S
C291 C296 1.342 . S
C292 C293 1.310 . S
C292 C295 1.461 . S
C292 H312 0.932 . S
C293 C291 1.408 . S
C293 C292 1.310 . S
C293 H313 0.930 . S
C294 C295 1.474 . S
C294 C296 1.285 . S
C294 H314 0.929 . S
C295 C292 1.461 . S
C295 C294 1.474 . S
C296 C291 1.342 . S
C296 C294 1.285 . S
C296 H315 0.930 . S
C297 C300 1.424 . S
C297 C302 1.245 . S
C297 C303 1.428 . S
C298 C301 1.260 . S
C298 C302 1.477 . S
C298 H316 0.932 . S
C299 C300 1.384 . S
C299 C301 1.479 . S
C299 H317 0.929 . S
C300 C297 1.424 . S
C300 C299 1.384 . S
C300 H318 0.928 . S
C301 C298 1.260 . S
C301 C299 1.479 . S
C302 C297 1.245 . S
C302 C298 1.477 . S
C302 H319 0.932 . S
C303 U286 2.882 . S
C303 C297 1.428 . S
C303 O306 1.301 . S
C303 O307 1.282 . S
O304 U286 2.441 . S
O304 C290 1.249 . S
O305 U286 2.420 . S
O305 C290 1.202 . S
O306 U286 2.455 . S
O306 C303 1.301 . S
O307 U286 2.449 . S
O307 C303 1.282 . S
H308 C281 0.931 . S
H309 C283 0.929 . S
H310 C284 0.930 . S
H311 C285 0.931 . S
H312 C292 0.932 . S
H313 C293 0.930 . S
H314 C294 0.929 . S
H315 C296 0.930 . S
H316 C298 0.932 . S
H317 C299 0.929 . S
H318 C300 0.928 . S
H319 C302 0.932 . S
Co320 N325 2.057 . S
Co320 O337 2.021 . S
Co320 O340 2.062 1_455 S
Co320 O344 2.117 1_455 S
Co320 O345 2.020 1_545 S
C321 O341 1.259 1_545 S
C321 O344 1.258 . S
Co322 N331 2.045 1_545 S
Co322 O338 2.123 1_655 S
Co322 O339 2.044 . S
Co322 O341 2.018 1_545 S
Co322 O346 2.043 1_645 S
C323 N325 1.316 . S
C323 N326 1.347 . S
C323 H328 0.931 . S
C324 N325 1.375 1_655 S
C324 C327 1.350 1_556 S
C324 H329 0.930 . S
N325 Co320 2.057 . S
N325 C323 1.316 . S
N325 C324 1.375 1_455 S
N326 C323 1.347 . S
N326 C327 1.373 1_456 S
C327 C324 1.350 1_554 S
C327 N326 1.373 1_654 S
C327 H348 0.931 . S
H328 C323 0.931 . S
H329 C324 0.930 . S
C330 O337 1.259 . S
C330 O338 1.258 . S
N331 Co322 2.045 1_565 S
N331 C332 1.344 . S
N331 C333 1.342 1_655 S
C332 N331 1.344 . S
C332 N334 1.347 . S
C332 H343 0.931 . S
C333 N331 1.342 1_455 S
C333 C335 1.350 . S
C333 H342 0.930 . S
N334 C332 1.347 . S
N334 C335 1.373 1_655 S
C335 C333 1.350 . S
C335 N334 1.373 1_455 S
C335 H349 0.931 . S
C336 O339 1.256 . S
C336 O340 1.255 . S
O337 Co320 2.021 . S
O337 C330 1.259 . S
O338 Co322 2.123 1_455 S
O338 C330 1.258 . S
O339 Co322 2.044 . S
O339 C336 1.256 . S
O340 Co320 2.062 1_655 S
O340 C336 1.255 . S
O341 C321 1.259 1_565 S
O341 Co322 2.018 1_565 S
H342 C333 0.930 . S
H343 C332 0.931 . S
O344 Co320 2.117 1_655 S
O344 C321 1.258 . S
O345 Co320 2.020 1_565 S
O345 C347 1.256 . S
O346 Co322 2.043 1_465 S
O346 C347 1.255 . S
C347 O345 1.256 . S
C347 O346 1.255 . S
H348 C327 0.931 . S
H349 C335 0.931 . S
Co350 N355 2.057 . S
Co350 O367 2.021 . S
Co350 O370 2.062 . S
Co350 O374 2.117 1_545 S
Co350 O375 2.020 . S
C351 O371 1.259 . S
C351 O374 1.258 . S
Co352 N361 2.057 . S
Co352 O368 2.117 . S
Co352 O369 2.020 . S
Co352 O371 2.021 1_545 S
Co352 O376 2.062 1_545 S
C353 N355 1.316 . S
C353 N356 1.356 . S
C353 H358 0.931 . S
C354 N355 1.375 . S
C354 C357 1.350 1_556 S
C354 H359 0.930 1_545 S
N355 Co350 2.057 . S
N355 C353 1.316 . S
N355 C354 1.375 . S
N356 C353 1.356 . S
N356 C357 1.372 1_556 S
C357 C354 1.350 1_554 S
C357 N356 1.372 1_554 S
C357 H378 0.931 . S
H358 C353 0.931 . S
H359 C354 0.930 1_565 S
C360 O367 1.259 . S
C360 O368 1.258 . S
N361 Co352 2.057 . S
N361 C362 1.316 1_545 S
N361 C363 1.375 . S
C362 N361 1.316 1_565 S
C362 N364 1.347 . S
C362 H373 0.931 . S
C363 N361 1.375 . S
C363 C365 1.350 . S
C363 H372 0.930 . S
N364 C362 1.347 . S
N364 C365 1.373 1_565 S
C365 C363 1.350 . S
C365 N364 1.373 1_545 S
C365 H379 0.931 . S
C366 O369 1.256 . S
C366 O370 1.255 . S
O367 Co350 2.021 . S
O367 C360 1.259 . S
O368 Co352 2.117 . S
O368 C360 1.258 . S
O369 Co352 2.020 . S
O369 C366 1.256 . S
O370 Co350 2.062 . S
O370 C366 1.255 . S
O371 C351 1.259 . S
O371 Co352 2.021 1_565 S
H372 C363 0.930 . S
H373 C362 0.931 . S
O374 Co350 2.117 1_565 S
O374 C351 1.258 . S
O375 Co350 2.020 . S
O375 C377 1.256 . S
O376 Co352 2.062 1_565 S
O376 C377 1.255 1_565 S
C377 O375 1.256 . S
C377 O376 1.255 1_545 S
H378 C357 0.931 . S
H379 C365 0.931 . S
Co380 N385 2.057 . S
Co380 O397 2.021 . S
Co380 O400 2.062 . S
Co380 O404 2.117 . S
Co380 O405 2.020 . S
C381 O401 1.259 . S
C381 O404 1.258 . S
Co382 N391 2.057 . S
Co382 O398 2.117 . S
Co382 O399 2.020 . S
Co382 O401 2.021 . S
Co382 O406 2.062 . S
C383 N385 1.316 . S
C383 N386 1.347 . S
C383 H388 0.931 . S
C384 N385 1.375 . S
C384 C387 1.350 . S
C384 H389 0.930 . S
N385 Co380 2.057 . S
N385 C383 1.316 . S
N385 C384 1.375 . S
N386 C383 1.347 . S
N386 C387 1.373 . S
C387 C384 1.350 . S
C387 N386 1.373 . S
C387 H408 0.931 . S
H388 C383 0.931 . S
H389 C384 0.930 . S
C390 O397 1.259 . S
C390 O398 1.258 . S
N391 Co382 2.057 . S
N391 C392 1.316 . S
N391 C393 1.375 . S
C392 N391 1.316 . S
C392 N394 1.347 . S
C392 H403 0.931 . S
C393 N391 1.375 . S
C393 C395 1.350 . S
C393 H402 0.930 . S
N394 C392 1.347 . S
N394 C395 1.373 . S
C395 C393 1.350 . S
C395 N394 1.373 . S
C395 H409 0.931 . S
C396 O399 1.256 . S
C396 O400 1.255 . S
O397 Co380 2.021 . S
O397 C390 1.259 . S
O398 Co382 2.117 . S
O398 C390 1.258 . S
O399 Co382 2.020 . S
O399 C396 1.256 . S
O400 Co380 2.062 . S
O400 C396 1.255 . S
O401 C381 1.259 . S
O401 Co382 2.021 . S
H402 C393 0.930 . S
H403 C392 0.931 . S
O404 Co380 2.117 . S
O404 C381 1.258 . S
O405 Co380 2.020 . S
O405 C407 1.256 . S
O406 Co382 2.062 . S
O406 C407 1.255 . S
C407 O405 1.256 . S
C407 O406 1.255 . S
H408 C387 0.931 . S
H409 C395 0.931 . S
Co410 N415 2.057 . S
Co410 O427 2.021 1_455 S
Co410 O430 2.062 1_455 S
Co410 O434 2.117 . S
Co410 O435 2.020 . S
C411 O431 1.259 . S
C411 O434 1.258 . S
Co412 N421 2.057 . S
Co412 O428 2.117 . S
Co412 O429 2.020 . S
Co412 O431 2.021 1_655 S
Co412 O436 2.062 1_655 S
C413 N415 1.316 . S
C413 N416 1.347 . S
C413 H418 0.931 1_455 S
C414 N415 1.375 . S
C414 C417 1.350 . S
C414 H419 0.930 . S
N415 Co410 2.057 . S
N415 C413 1.316 . S
N415 C414 1.375 . S
N416 C413 1.347 . S
N416 C417 1.373 . S
C417 C414 1.350 . S
C417 N416 1.373 . S
C417 H438 0.931 . S
H418 C413 0.931 1_655 S
H419 C414 0.930 . S
C420 O427 1.259 . S
C420 O428 1.258 . S
N421 Co412 2.057 . S
N421 C422 1.316 . S
N421 C423 1.375 . S
C422 N421 1.316 . S
C422 N424 1.347 . S
C422 H433 0.931 1_655 S
C423 N421 1.375 . S
C423 C425 1.350 . S
C423 H432 0.930 . S
N424 C422 1.347 . S
N424 C425 1.373 . S
C425 C423 1.350 . S
C425 N424 1.373 . S
C425 H439 0.931 . S
C426 O429 1.256 . S
C426 O430 1.255 . S
O427 Co410 2.021 1_655 S
O427 C420 1.259 . S
O428 Co412 2.117 . S
O428 C420 1.258 . S
O429 Co412 2.020 . S
O429 C426 1.256 . S
O430 Co410 2.062 1_655 S
O430 C426 1.255 . S
O431 C411 1.259 . S
O431 Co412 2.021 1_455 S
H432 C423 0.930 . S
H433 C422 0.931 1_455 S
O434 Co410 2.117 . S
O434 C411 1.258 . S
O435 Co410 2.020 . S
O435 C437 1.256 . S
O436 Co412 2.062 1_455 S
O436 C437 1.255 . S
C437 O435 1.256 . S
C437 O436 1.255 . S
H438 C417 0.931 . S
H439 C425 0.931 . S
C440 C441 1.363 . S
C440 C446 1.379 . S
C440 N448 1.356 . S
C441 C440 1.363 . S
C441 C447 1.363 . S
C442 C443 1.363 . S
C442 C447 1.379 . S
C442 N449 1.356 . S
C443 C442 1.363 . S
C443 C446 1.363 . S
N444 C446 1.356 . S
N444 H456 0.984 1_545 S
N444 H457 0.982 1_545 S
N445 C447 1.356 . S
N445 H450 0.984 . S
N445 H451 0.985 . S
C446 C440 1.379 . S
C446 C443 1.363 . S
C446 N444 1.356 . S
C447 C441 1.363 . S
C447 C442 1.379 . S
C447 N445 1.356 . S
N448 C440 1.356 . S
N448 H454 0.984 . S
N448 H455 0.984 . S
N449 C442 1.356 . S
N449 H452 0.984 . S
N449 H453 0.985 . S
H450 N445 0.984 . S
H451 N445 0.985 . S
H452 N449 0.984 . S
H453 N449 0.985 . S
H454 N448 0.984 . S
H455 N448 0.984 . S
H456 N444 0.984 1_565 S
H457 N444 0.982 1_565 S
C458 C459 1.363 . S
C458 C464 1.379 . S
C458 N466 1.356 . S
C459 C458 1.363 . S
C459 C465 1.363 . S
C460 C461 1.363 . S
C460 C465 1.379 . S
C460 N467 1.356 . S
C461 C460 1.363 . S
C461 C464 1.363 . S
N462 C464 1.356 . S
N462 H474 0.984 . S
N462 H475 0.985 . S
N463 C465 1.356 . S
N463 H468 0.984 . S
N463 H469 0.985 . S
C464 C458 1.379 . S
C464 C461 1.363 . S
C464 N462 1.356 . S
C465 C459 1.363 . S
C465 C460 1.379 . S
C465 N463 1.356 . S
N466 C458 1.356 . S
N466 H472 0.984 . S
N466 H473 0.984 . S
N467 C460 1.356 . S
N467 H470 0.984 . S
N467 H471 0.985 . S
H468 N463 0.984 . S
H469 N463 0.985 . S
H470 N467 0.984 . S
H471 N467 0.985 . S
H472 N466 0.984 . S
H473 N466 0.984 . S
H474 N462 0.984 . S
H475 N462 0.985 . S
C476 C477 1.363 . S
C476 C482 1.379 . S
C476 N484 1.356 . S
C477 C476 1.363 . S
C477 C483 1.363 . S
C478 C479 1.363 . S
C478 C483 1.379 . S
C478 N485 1.356 . S
C479 C478 1.363 . S
C479 C482 1.363 . S
N480 C482 1.356 . S
N480 H492 0.984 . S
N480 H493 0.985 . S
N481 C483 1.356 . S
N481 H486 0.984 . S
N481 H487 0.985 . S
C482 C476 1.379 . S
C482 C479 1.363 . S
C482 N480 1.356 . S
C483 C477 1.363 . S
C483 C478 1.379 . S
C483 N481 1.356 . S
N484 C476 1.356 . S
N484 H490 0.984 . S
N484 H491 0.984 . S
N485 C478 1.356 . S
N485 H488 0.984 . S
N485 H489 0.985 . S
H486 N481 0.984 . S
H487 N481 0.985 . S
H488 N485 0.984 . S
H489 N485 0.985 . S
H490 N484 0.984 . S
H491 N484 0.984 . S
H492 N480 0.984 . S
H493 N480 0.985 . S
C494 C495 1.363 . S
C494 C500 1.379 . S
C494 N502 1.356 1_655 S
C495 C494 1.363 . S
C495 C501 1.363 . S
C496 C497 1.363 . S
C496 C501 1.379 . S
C496 N503 1.356 . S
C497 C496 1.363 . S
C497 C500 1.363 . S
N498 C500 1.356 . S
N498 H510 0.984 . S
N498 H511 0.985 . S
N499 C501 1.356 . S
N499 H504 0.984 . S
N499 H505 0.985 . S
C500 C494 1.379 . S
C500 C497 1.363 . S
C500 N498 1.356 . S
C501 C495 1.363 . S
C501 C496 1.379 . S
C501 N499 1.356 . S
N502 C494 1.356 1_455 S
N502 H508 0.984 . S
N502 H509 0.984 . S
N503 C496 1.356 . S
N503 H506 0.984 . S
N503 H507 0.985 . S
H504 N499 0.984 . S
H505 N499 0.985 . S
H506 N503 0.984 . S
H507 N503 0.985 . S
H508 N502 0.984 . S
H509 N502 0.984 . S
H510 N498 0.984 . S
H511 N498 0.985 . S
C512 C513 1.363 . S
C512 C518 1.379 . S
C512 N520 1.356 . S
C513 C512 1.363 . S
C513 C519 1.363 . S
C514 C515 1.363 . S
C514 C519 1.379 . S
C514 N521 1.356 1_565 S
C515 C514 1.363 . S
C515 C518 1.363 . S
N516 C518 1.356 . S
N516 H528 0.984 . S
N516 H529 0.985 . S
N517 C519 1.356 . S
N517 H522 0.984 1_556 S
N517 H523 0.985 1_565 S
C518 C512 1.379 . S
C518 C515 1.363 . S
C518 N516 1.356 . S
C519 C513 1.363 . S
C519 C514 1.379 . S
C519 N517 1.356 . S
N520 C512 1.356 . S
N520 H526 0.984 . S
N520 H527 0.984 . S
N521 C514 1.356 1_545 S
N521 H524 0.984 . S
N521 H525 0.985 . S
H522 N517 0.984 1_554 S
H523 N517 0.985 1_545 S
H524 N521 0.984 . S
H525 N521 0.985 . S
H526 N520 0.984 . S
H527 N520 0.984 . S
H528 N516 0.984 . S
H529 N516 0.985 . S
C530 C531 1.363 . S
C530 C536 1.379 . S
C530 N538 1.356 . S
C531 C530 1.363 . S
C531 C537 1.363 . S
C532 C533 1.363 . S
C532 C537 1.379 . S
C532 N539 1.356 . S
C533 C532 1.363 . S
C533 C536 1.363 . S
N534 C536 1.356 . S
N534 H546 0.984 . S
N534 H547 0.985 . S
N535 C537 1.356 . S
N535 H540 0.984 . S
N535 H541 0.985 . S
C536 C530 1.379 . S
C536 C533 1.363 . S
C536 N534 1.356 . S
C537 C531 1.363 . S
C537 C532 1.379 . S
C537 N535 1.356 . S
N538 C530 1.356 . S
N538 H544 0.984 . S
N538 H545 0.984 1_556 S
N539 C532 1.356 . S
N539 H542 0.984 . S
N539 H543 0.985 . S
H540 N535 0.984 . S
H541 N535 0.985 . S
H542 N539 0.984 . S
H543 N539 0.985 . S
H544 N538 0.984 . S
H545 N538 0.984 1_554 S
H546 N534 0.984 . S
H547 N534 0.985 . S
C548 C549 1.363 1_554 S
C548 C554 1.379 1_554 S
C548 N556 1.356 . S
C549 C548 1.363 1_556 S
C549 C555 1.363 . S
C550 C551 1.363 . S
C550 C555 1.379 . S
C550 N557 1.356 . S
C551 C550 1.363 . S
C551 C554 1.363 . S
N552 C554 1.356 . S
N552 H564 0.984 . S
N552 H565 0.985 . S
N553 C555 1.356 . S
N553 H558 0.984 . S
N553 H559 0.985 . S
C554 C548 1.379 1_556 S
C554 C551 1.363 . S
C554 N552 1.356 . S
C555 C549 1.363 . S
C555 C550 1.379 . S
C555 N553 1.356 . S
N556 C548 1.356 . S
N556 H562 0.984 . S
N556 H563 0.984 . S
N557 C550 1.356 . S
N557 H560 0.984 . S
N557 H561 0.985 . S
H558 N553 0.984 . S
H559 N553 0.985 . S
H560 N557 0.984 . S
H561 N557 0.985 . S
H562 N556 0.984 . S
H563 N556 0.984 . S
H564 N552 0.984 . S
H565 N552 0.985 . S
C566 C567 1.363 1_556 S
C566 C572 1.379 . S
C566 N574 1.356 1_556 S
C567 C566 1.363 1_554 S
C567 C573 1.361 1_454 S
C568 C569 1.363 1_655 S
C568 C573 1.379 . S
C568 N575 1.356 . S
C569 C568 1.363 1_455 S
C569 C572 1.363 . S
N570 C572 1.356 . S
N570 H582 0.984 . S
N570 H583 0.985 . S
N571 C573 1.356 . S
N571 H576 0.984 1_556 S
N571 H577 0.985 . S
C572 C566 1.379 . S
C572 C569 1.363 . S
C572 N570 1.356 . S
C573 C567 1.361 1_656 S
C573 C568 1.379 . S
C573 N571 1.356 . S
N574 C566 1.356 1_554 S
N574 H580 0.984 . S
N574 H581 0.984 . S
N575 C568 1.356 . S
N575 H578 0.984 . S
N575 H579 0.985 . S
H576 N571 0.984 1_554 S
H577 N571 0.985 . S
H578 N575 0.984 . S
H579 N575 0.985 . S
H580 N574 0.984 . S
H581 N574 0.984 . S
H582 N570 0.984 . S
H583 N570 0.985 . S
C584 C585 1.363 1_655 S
C584 C590 1.379 . S
C584 N592 1.356 . S
C585 C584 1.363 1_455 S
C585 C591 1.363 . S
C586 C587 1.363 1_455 S
C586 C591 1.379 . S
C586 N593 1.356 . S
C587 C586 1.363 1_655 S
C587 C590 1.363 . S
N588 C590 1.356 . S
N588 H600 0.984 . S
N588 H601 0.985 . S
N589 C591 1.356 . S
N589 H594 0.984 . S
N589 H595 0.985 . S
C590 C584 1.379 . S
C590 C587 1.363 . S
C590 N588 1.356 . S
C591 C585 1.363 . S
C591 C586 1.379 . S
C591 N589 1.356 . S
N592 C584 1.356 . S
N592 H598 0.984 . S
N592 H599 0.984 . S
N593 C586 1.356 . S
N593 H596 0.984 . S
N593 H597 0.985 . S
H594 N589 0.984 . S
H595 N589 0.985 . S
H596 N593 0.984 . S
H597 N593 0.985 . S
H598 N592 0.984 . S
H599 N592 0.984 . S
H600 N588 0.984 . S
H601 N588 0.985 . S
C602 C603 1.363 . S
C602 C608 1.379 . S
C602 N610 1.356 . S
C603 C602 1.363 . S
C603 C609 1.363 . S
C604 C605 1.363 . S
C604 C609 1.379 . S
C604 N611 1.356 . S
C605 C604 1.363 . S
C605 C608 1.363 . S
N606 C608 1.356 . S
N606 H618 0.984 . S
N606 H619 0.985 . S
N607 C609 1.356 . S
N607 H612 0.984 . S
N607 H613 0.985 . S
C608 C602 1.379 . S
C608 C605 1.363 . S
C608 N606 1.356 . S
C609 C603 1.363 . S
C609 C604 1.379 . S
C609 N607 1.356 . S
N610 C602 1.356 . S
N610 H616 0.984 . S
N610 H617 0.984 . S
N611 C604 1.356 . S
N611 H614 0.984 . S
N611 H615 0.985 . S
H612 N607 0.984 . S
H613 N607 0.985 . S
H614 N611 0.984 . S
H615 N611 0.985 . S
H616 N610 0.984 . S
H617 N610 0.984 . S
H618 N606 0.984 . S
H619 N606 0.985 . S
C620 C621 1.363 . S
C620 C626 1.379 . S
C620 N628 1.356 . S
C621 C620 1.363 . S
C621 C627 1.363 . S
C622 C623 1.363 . S
C622 C627 1.379 . S
C622 N629 1.356 . S
C623 C622 1.363 . S
C623 C626 1.363 . S
N624 C626 1.356 . S
N624 H636 0.984 . S
N624 H637 0.985 . S
N625 C627 1.356 . S
N625 H630 0.984 . S
N625 H631 0.985 . S
C626 C620 1.379 . S
C626 C623 1.363 . S
C626 N624 1.356 . S
C627 C621 1.363 . S
C627 C622 1.379 . S
C627 N625 1.356 . S
N628 C620 1.356 . S
N628 H634 0.984 . S
N628 H635 0.984 . S
N629 C622 1.356 . S
N629 H632 0.984 . S
N629 H633 0.985 . S
H630 N625 0.984 . S
H631 N625 0.985 . S
H632 N629 0.984 . S
H633 N629 0.985 . S
H634 N628 0.984 . S
H635 N628 0.984 . S
H636 N624 0.984 . S
H637 N624 0.985 . S
C638 C639 1.363 . S
C638 C644 1.379 . S
C638 N646 1.356 . S
C639 C638 1.363 . S
C639 C645 1.363 . S
C640 C641 1.363 . S
C640 C645 1.379 . S
C640 N647 1.356 . S
C641 C640 1.363 . S
C641 C644 1.363 . S
N642 C644 1.356 . S
N642 H654 0.984 . S
N642 H655 0.985 . S
N643 C645 1.356 . S
N643 H648 0.984 . S
N643 H649 0.985 . S
C644 C638 1.379 . S
C644 C641 1.363 . S
C644 N642 1.356 . S
C645 C639 1.363 . S
C645 C640 1.379 . S
C645 N643 1.356 . S
N646 C638 1.356 . S
N646 H652 0.984 . S
N646 H653 0.984 . S
N647 C640 1.356 . S
N647 H650 0.984 . S
N647 H651 0.985 . S
H648 N643 0.984 . S
H649 N643 0.985 . S
H650 N647 0.984 . S
H651 N647 0.985 . S
H652 N646 0.984 . S
H653 N646 0.984 . S
H654 N642 0.984 . S
H655 N642 0.985 . S
C656 C657 1.363 . S
C656 C662 1.379 . S
C656 N664 1.356 . S
C657 C656 1.363 . S
C657 C663 1.363 1_655 S
C658 C659 1.363 . S
C658 C663 1.379 . S
C658 N665 1.356 . S
C659 C658 1.363 . S
C659 C662 1.363 1_455 S
N660 C662 1.356 . S
N660 H672 0.984 . S
N660 H673 0.993 . S
N661 C663 1.356 . S
N661 H666 0.984 . S
N661 H667 0.985 . S
C662 C656 1.379 . S
C662 C659 1.363 1_655 S
C662 N660 1.356 . S
C663 C657 1.363 1_455 S
C663 C658 1.379 . S
C663 N661 1.356 . S
N664 C656 1.356 . S
N664 H670 0.984 . S
N664 H671 0.984 . S
N665 C658 1.356 . S
N665 H668 0.984 . S
N665 H669 0.985 . S
H666 N661 0.984 . S
H667 N661 0.985 . S
H668 N665 0.984 . S
H669 N665 0.985 . S
H670 N664 0.984 . S
H671 N664 0.984 . S
H672 N660 0.984 . S
H673 N660 0.993 . S
C674 C675 1.363 . S
C674 C680 1.379 . S
C674 N682 1.356 . S
C675 C674 1.363 . S
C675 C681 1.363 . S
C676 C677 1.363 . S
C676 C681 1.379 . S
C676 N683 1.356 . S
C677 C676 1.363 . S
C677 C680 1.363 . S
N678 C680 1.356 1_545 S
N678 H690 0.984 . S
N678 H691 0.985 . S
N679 C681 1.356 . S
N679 H684 0.984 . S
N679 H685 0.985 . S
C680 C674 1.379 . S
C680 C677 1.363 . S
C680 N678 1.356 1_565 S
C681 C675 1.363 . S
C681 C676 1.379 . S
C681 N679 1.356 . S
N682 C674 1.356 . S
N682 H688 0.984 . S
N682 H689 0.984 . S
N683 C676 1.356 . S
N683 H686 0.984 . S
N683 H687 0.985 . S
H684 N679 0.984 . S
H685 N679 0.985 . S
H686 N683 0.984 . S
H687 N683 0.985 . S
H688 N682 0.984 . S
H689 N682 0.984 . S
H690 N678 0.984 . S
H691 N678 0.985 . S
C692 C693 1.363 . S
C692 C698 1.379 . S
C692 N700 1.356 . S
C693 C692 1.363 . S
C693 C699 1.363 . S
C694 C695 1.363 . S
C694 C699 1.379 . S
C694 N701 1.356 . S
C695 C694 1.363 . S
C695 C698 1.363 . S
N696 C698 1.356 . S
N696 H708 0.984 . S
N696 H709 0.985 . S
N697 C699 1.356 . S
N697 H702 0.984 . S
N697 H703 0.985 . S
C698 C692 1.379 . S
C698 C695 1.363 . S
C698 N696 1.356 . S
C699 C693 1.363 . S
C699 C694 1.379 . S
C699 N697 1.356 . S
N700 C692 1.356 . S
N700 H706 0.984 . S
N700 H707 0.984 . S
N701 C694 1.356 . S
N701 H704 0.984 . S
N701 H705 0.985 . S
H702 N697 0.984 . S
H703 N697 0.985 . S
H704 N701 0.984 . S
H705 N701 0.985 . S
H706 N700 0.984 . S
H707 N700 0.984 . S
H708 N696 0.984 . S
H709 N696 0.985 . S
C710 C711 1.363 . S
C710 C716 1.379 . S
C710 N718 1.356 . S
C711 C710 1.363 . S
C711 C717 1.363 . S
C712 C713 1.363 . S
C712 C717 1.379 . S
C712 N719 1.356 . S
C713 C712 1.363 . S
C713 C716 1.363 . S
N714 C716 1.356 . S
N714 H726 0.984 . S
N714 H727 0.985 . S
N715 C717 1.356 . S
N715 H720 0.984 . S
N715 H721 0.985 . S
C716 C710 1.379 . S
C716 C713 1.363 . S
C716 N714 1.356 . S
C717 C711 1.363 . S
C717 C712 1.379 . S
C717 N715 1.356 . S
N718 C710 1.356 . S
N718 H724 0.984 . S
N718 H725 0.984 . S
N719 C712 1.356 . S
N719 H722 0.984 . S
N719 H723 0.985 . S
H720 N715 0.984 . S
H721 N715 0.985 . S
H722 N719 0.984 . S
H723 N719 0.985 . S
H724 N718 0.984 . S
H725 N718 0.984 . S
H726 N714 0.984 . S
H727 N714 0.985 . S
C728 C729 1.363 . S
C728 C734 1.379 1_554 S
C728 N736 1.356 1_554 S
C729 C728 1.363 . S
C729 C735 1.363 1_455 S
C730 C731 1.363 1_655 S
C730 C735 1.379 . S
C730 N737 1.356 . S
C731 C730 1.363 1_455 S
C731 C734 1.363 1_554 S
N732 C734 1.356 . S
N732 H744 0.984 . S
N732 H745 0.985 . S
N733 C735 1.356 . S
N733 H738 0.984 . S
N733 H739 0.985 . S
C734 C728 1.379 1_556 S
C734 C731 1.363 1_556 S
C734 N732 1.356 . S
C735 C729 1.363 1_655 S
C735 C730 1.379 . S
C735 N733 1.356 . S
N736 C728 1.356 1_556 S
N736 H742 0.984 . S
N736 H743 0.984 1_556 S
N737 C730 1.356 . S
N737 H740 0.984 . S
N737 H741 0.985 . S
H738 N733 0.984 . S
H739 N733 0.985 . S
H740 N737 0.984 . S
H741 N737 0.985 . S
H742 N736 0.984 . S
H743 N736 0.984 1_554 S
H744 N732 0.984 . S
H745 N732 0.985 . S
C746 C747 1.363 . S
C746 C752 1.379 . S
C746 N754 1.356 . S
C747 C746 1.363 . S
C747 C753 1.363 . S
C748 C749 1.363 . S
C748 C753 1.379 . S
C748 N755 1.356 . S
C749 C748 1.363 . S
C749 C752 1.363 . S
N750 C752 1.356 1_556 S
N750 H762 0.984 . S
N750 H763 0.985 . S
N751 C753 1.356 . S
N751 H756 0.984 . S
N751 H757 0.985 . S
C752 C746 1.379 . S
C752 C749 1.363 . S
C752 N750 1.356 1_554 S
C753 C747 1.363 . S
C753 C748 1.379 . S
C753 N751 1.356 . S
N754 C746 1.356 . S
N754 H760 0.984 . S
N754 H761 0.984 . S
N755 C748 1.356 . S
N755 H758 0.984 . S
N755 H759 0.985 . S
H756 N751 0.984 . S
H757 N751 0.985 . S
H758 N755 0.984 . S
H759 N755 0.985 . S
H760 N754 0.984 . S
H761 N754 0.984 . S
H762 N750 0.984 . S
H763 N750 0.985 . S
C764 C765 1.363 1_556 S
C764 C770 1.379 . S
C764 N772 1.356 . S
C765 C764 1.363 1_554 S
C765 C771 1.363 . S
C766 C767 1.363 1_554 S
C766 C771 1.379 . S
C766 N773 1.356 . S
C767 C766 1.363 1_556 S
C767 C770 1.363 . S
N768 C770 1.356 . S
N768 H780 0.984 . S
N768 H781 0.985 . S
N769 C771 1.356 . S
N769 H774 0.984 . S
N769 H775 0.985 . S
C770 C764 1.379 . S
C770 C767 1.363 . S
C770 N768 1.356 . S
C771 C765 1.363 . S
C771 C766 1.379 . S
C771 N769 1.356 . S
N772 C764 1.356 . S
N772 H778 0.984 . S
N772 H779 0.984 . S
N773 C766 1.356 . S
N773 H776 0.984 . S
N773 H777 0.985 . S
H774 N769 0.984 . S
H775 N769 0.985 . S
H776 N773 0.984 . S
H777 N773 0.985 . S
H778 N772 0.984 . S
H779 N772 0.984 . S
H780 N768 0.984 . S
H781 N768 0.985 . S
C782 C783 1.363 1_556 S
C782 C788 1.379 . S
C782 N790 1.356 1_556 S
C783 C782 1.363 1_554 S
C783 C789 1.363 1_554 S
C784 C785 1.363 . S
C784 C789 1.379 . S
C784 N791 1.356 . S
C785 C784 1.363 . S
C785 C788 1.363 . S
N786 C788 1.356 . S
N786 H798 0.984 . S
N786 H799 0.985 . S
N787 C789 1.356 1_554 S
N787 H792 0.984 . S
N787 H793 0.985 . S
C788 C782 1.379 . S
C788 C785 1.363 . S
C788 N786 1.356 . S
C789 C783 1.363 1_556 S
C789 C784 1.379 . S
C789 N787 1.356 1_556 S
N790 C782 1.356 1_554 S
N790 H796 0.984 . S
N790 H797 0.984 . S
N791 C784 1.356 . S
N791 H794 0.984 . S
N791 H795 0.985 . S
H792 N787 0.984 . S
H793 N787 0.985 . S
H794 N791 0.984 . S
H795 N791 0.985 . S
H796 N790 0.984 . S
H797 N790 0.984 . S
H798 N786 0.984 . S
H799 N786 0.985 . S
C800 C801 1.363 . S
C800 C806 1.379 . S
C800 N808 1.356 . S
C801 C800 1.363 . S
C801 C807 1.363 1_655 S
C802 C803 1.363 1_455 S
C802 C807 1.379 . S
C802 N809 1.356 . S
C803 C802 1.363 1_655 S
C803 C806 1.363 . S
N804 C806 1.356 . S
N804 H816 0.984 . S
N804 H817 0.985 . S
N805 C807 1.356 . S
N805 H810 0.984 . S
N805 H811 0.985 . S
C806 C800 1.379 . S
C806 C803 1.363 . S
C806 N804 1.356 . S
C807 C801 1.363 1_455 S
C807 C802 1.379 . S
C807 N805 1.356 . S
N808 C800 1.356 . S
N808 H814 0.984 . S
N808 H815 0.984 . S
N809 C802 1.356 . S
N809 H812 0.984 . S
N809 H813 0.985 . S
H810 N805 0.984 . S
H811 N805 0.985 . S
H812 N809 0.984 . S
H813 N809 0.985 . S
H814 N808 0.984 . S
H815 N808 0.984 . S
H816 N804 0.984 . S
H817 N804 0.985 . S
C818 C819 1.363 . S
C818 C824 1.379 . S
C818 N826 1.356 . S
C819 C818 1.363 . S
C819 C825 1.363 . S
C820 C821 1.363 . S
C820 C825 1.379 . S
C820 N827 1.356 . S
C821 C820 1.363 . S
C821 C824 1.363 . S
N822 C824 1.356 1_545 S
N822 H834 0.984 . S
N822 H835 0.985 . S
N823 C825 1.356 . S
N823 H828 0.984 . S
N823 H829 0.985 . S
C824 C818 1.379 . S
C824 C821 1.363 . S
C824 N822 1.356 1_565 S
C825 C819 1.363 . S
C825 C820 1.379 . S
C825 N823 1.356 . S
N826 C818 1.356 . S
N826 H832 0.984 1_565 S
N826 H833 0.984 . S
N827 C820 1.356 . S
N827 H830 0.984 . S
N827 H831 0.985 . S
H828 N823 0.984 . S
H829 N823 0.985 . S
H830 N827 0.984 . S
H831 N827 0.985 . S
H832 N826 0.984 1_545 S
H833 N826 0.984 . S
H834 N822 0.984 . S
H835 N822 0.985 . S
C836 C837 1.363 . S
C836 C842 1.379 . S
C836 N844 1.356 . S
C837 C836 1.363 . S
C837 C843 1.363 . S
C838 C839 1.363 . S
C838 C843 1.379 . S
C838 N845 1.356 . S
C839 C838 1.363 . S
C839 C842 1.363 . S
N840 C842 1.356 . S
N840 H852 0.984 . S
N840 H853 0.985 . S
N841 C843 1.356 . S
N841 H846 0.984 . S
N841 H847 0.985 . S
C842 C836 1.379 . S
C842 C839 1.363 . S
C842 N840 1.356 . S
C843 C837 1.363 . S
C843 C838 1.379 . S
C843 N841 1.356 . S
N844 C836 1.356 . S
N844 H850 0.984 . S
N844 H851 0.984 . S
N845 C838 1.356 . S
N845 H848 0.984 . S
N845 H849 0.985 . S
H846 N841 0.984 . S
H847 N841 0.985 . S
H848 N845 0.984 . S
H849 N845 0.985 . S
H850 N844 0.984 . S
H851 N844 0.984 . S
H852 N840 0.984 . S
H853 N840 0.985 . S
C854 C855 1.363 . S
C854 C860 1.379 . S
C854 N862 1.356 . S
C855 C854 1.363 . S
C855 C861 1.363 . S
C856 C857 1.363 . S
C856 C861 1.379 . S
C856 N863 1.356 . S
C857 C856 1.363 . S
C857 C860 1.363 . S
N858 C860 1.356 . S
N858 H870 0.984 . S
N858 H871 0.985 . S
N859 C861 1.356 . S
N859 H864 0.984 . S
N859 H865 0.985 . S
C860 C854 1.379 . S
C860 C857 1.363 . S
C860 N858 1.356 . S
C861 C855 1.363 . S
C861 C856 1.379 . S
C861 N859 1.356 . S
N862 C854 1.356 . S
N862 H868 0.984 . S
N862 H869 0.984 . S
N863 C856 1.356 . S
N863 H866 0.984 . S
N863 H867 0.985 . S
H864 N859 0.984 . S
H865 N859 0.985 . S
H866 N863 0.984 . S
H867 N863 0.985 . S
H868 N862 0.984 . S
H869 N862 0.984 . S
H870 N858 0.984 . S
H871 N858 0.985 . S
C441 C255 1.995 . S
C443 C330 2.032 . S
C461 C360 1.829 . S
C459 C295 1.797 . S
C479 N394 2.005 . S
C477 C175 1.940 . S
C497 N424 1.530 . S
C495 C215 1.604 1_655 S
C515 C321 2.035 1_565 S
C513 C95 1.985 1_556 S
C531 C135 1.800 1_556 S
C533 C351 1.829 . S
C549 C15 1.927 1_556 S
C551 N386 2.005 . S
C567 C55 1.604 . S
C569 N416 1.532 . S
C587 C336 0.687 . S
C585 C221 0.722 . S
C605 C366 1.309 . S
C603 C261 1.249 . S
C623 C407 0.950 . S
C621 C301 0.915 . S
C639 C181 1.207 . S
C641 C437 1.172 . S
C657 C61 0.764 1_655 S
C659 C347 0.684 . S
C677 C377 1.309 1_565 S
C675 C101 1.073 . S
C695 C396 0.950 . S
C693 C141 0.928 . S
C711 C21 0.996 . S
C713 C426 1.178 . S
C729 C202 1.845 . S
C731 N326 1.962 1_554 S
C747 C242 2.030 . S
C749 N356 2.115 1_554 S
C767 C381 2.103 . S
C765 C282 1.986 . S
C785 C411 2.366 . S
C783 C162 2.290 . S
C801 C42 1.873 1_655 S
C803 N334 1.963 . S
C821 N364 2.120 . S
C819 C82 1.950 . S
C839 C390 2.103 . S
C837 C122 2.042 . S
C855 C2 2.166 . S
C857 C420 2.370 . S
