# Generated by pormake.
# Topology apo, (3,6)-cn, num edge types: 1
# Building blocks:
#     Node 0, Type 0, BuildingBlock: WUSLED_clean_sbu_0, # of connection points: 3
#     Node 1, Type 0, BuildingBlock: WUSLED_clean_sbu_0, # of connection points: 3
#     Node 2, Type 0, BuildingBlock: WUSLED_clean_sbu_0, # of connection points: 3
#     Node 3, Type 0, BuildingBlock: WUSLED_clean_sbu_0, # of connection points: 3
#     Node 4, Type 0, BuildingBlock: WUSLED_clean_sbu_0, # of connection points: 3
#     Node 5, Type 0, BuildingBlock: WUSLED_clean_sbu_0, # of connection points: 3
#     Node 6, Type 0, BuildingBlock: WUSLED_clean_sbu_0, # of connection points: 3
#     Node 7, Type 0, BuildingBlock: WUSLED_clean_sbu_0, # of connection points: 3
#     Node 8, Type 1, BuildingBlock: KUMBUR_clean_sbu_1, # of connection points: 6
#     Node 9, Type 1, BuildingBlock: KUMBUR_clean_sbu_1, # of connection points: 6
#     Node 10, Type 1, BuildingBlock: KUMBUR_clean_sbu_1, # of connection points: 6
#     Node 11, Type 1, BuildingBlock: KUMBUR_clean_sbu_1, # of connection points: 6
#     Edge 12, Type (0, 1), BuildingBlock: XIVTED_clean_linker_0, # of connection points: 2
#     Edge 13, Type (0, 1), BuildingBlock: XIVTED_clean_linker_0, # of connection points: 2
#     Edge 14, Type (0, 1), BuildingBlock: XIVTED_clean_linker_0, # of connection points: 2
#     Edge 15, Type (0, 1), BuildingBlock: XIVTED_clean_linker_0, # of connection points: 2
#     Edge 16, Type (0, 1), BuildingBlock: XIVTED_clean_linker_0, # of connection points: 2
#     Edge 17, Type (0, 1), BuildingBlock: XIVTED_clean_linker_0, # of connection points: 2
#     Edge 18, Type (0, 1), BuildingBlock: XIVTED_clean_linker_0, # of connection points: 2
#     Edge 19, Type (0, 1), BuildingBlock: XIVTED_clean_linker_0, # of connection points: 2
#     Edge 20, Type (0, 1), BuildingBlock: XIVTED_clean_linker_0, # of connection points: 2
#     Edge 21, Type (0, 1), BuildingBlock: XIVTED_clean_linker_0, # of connection points: 2
#     Edge 22, Type (0, 1), BuildingBlock: XIVTED_clean_linker_0, # of connection points: 2
#     Edge 23, Type (0, 1), BuildingBlock: XIVTED_clean_linker_0, # of connection points: 2
#     Edge 24, Type (0, 1), BuildingBlock: XIVTED_clean_linker_0, # of connection points: 2
#     Edge 25, Type (0, 1), BuildingBlock: XIVTED_clean_linker_0, # of connection points: 2
#     Edge 26, Type (0, 1), BuildingBlock: XIVTED_clean_linker_0, # of connection points: 2
#     Edge 27, Type (0, 1), BuildingBlock: XIVTED_clean_linker_0, # of connection points: 2
#     Edge 28, Type (0, 1), BuildingBlock: XIVTED_clean_linker_0, # of connection points: 2
#     Edge 29, Type (0, 1), BuildingBlock: XIVTED_clean_linker_0, # of connection points: 2
#     Edge 30, Type (0, 1), BuildingBlock: XIVTED_clean_linker_0, # of connection points: 2
#     Edge 31, Type (0, 1), BuildingBlock: XIVTED_clean_linker_0, # of connection points: 2
#     Edge 32, Type (0, 1), BuildingBlock: XIVTED_clean_linker_0, # of connection points: 2
#     Edge 33, Type (0, 1), BuildingBlock: XIVTED_clean_linker_0, # of connection points: 2
#     Edge 34, Type (0, 1), BuildingBlock: XIVTED_clean_linker_0, # of connection points: 2
#     Edge 35, Type (0, 1), BuildingBlock: XIVTED_clean_linker_0, # of connection points: 2
# Relax obj value: 0.009
# Max RMSD: 0.098
# Mean RMSD: 0.074
data_MOF--net-apo--node1-WUSLED_clean_sbu_0--node2-KUMBUR_clean_sbu_1--edge1-XIVTED_clean_linker_0
_symmetry_space_group_name_H-M    P1
_symmetry_Int_Tables_number       1
_symmetry_cell_setting            triclinic
loop_
_symmetry_equiv_pos_as_xyz
'x, y, z'
_cell_length_a     31.535041
_cell_length_b     55.108033
_cell_length_c     66.218609
_cell_angle_alpha  90.414698
_cell_angle_beta   89.88669
_cell_angle_gamma 90.469605
loop_
_atom_site_label
_atom_site_type_symbol
_atom_site_fract_x
_atom_site_fract_y
_atom_site_fract_z
_atom_type_partial_charge
C0 C 0.30377 0.44346 0.38259 0.0
C1 C 0.34327 0.45196 0.38958 0.0
C2 C 0.34097 0.48554 0.36584 0.0
C3 C 0.36177 0.47277 0.38122 0.0
C4 C 0.30076 0.4774 0.35945 0.0
C5 C 0.28242 0.45655 0.36773 0.0
U6 U 0.2807 0.39715 0.42421 0.0
O7 O 0.22265 0.37571 0.42995 0.0
O8 O 0.28254 0.35732 0.4231 0.0
C9 C 0.24137 0.35504 0.42576 0.0
C10 C 0.28495 0.42058 0.38992 0.0
C11 C 0.2192 0.33908 0.41122 0.0
C12 C 0.20816 0.32377 0.37705 0.0
C13 C 0.2282 0.33995 0.39045 0.0
C14 C 0.16901 0.30625 0.40494 0.0
C15 C 0.17866 0.30651 0.38418 0.0
C16 C 0.18915 0.32233 0.4183 0.0
C17 C 0.32365 0.41112 0.47772 0.0
C18 C 0.31151 0.38678 0.50766 0.0
C19 C 0.35798 0.42198 0.50931 0.0
C20 C 0.35056 0.42639 0.4889 0.0
C21 C 0.3385 0.40217 0.519 0.0
C22 C 0.30414 0.39122 0.48716 0.0
C23 C 0.31675 0.4165 0.45629 0.0
O24 O 0.3118 0.40356 0.39501 0.0
O25 O 0.25304 0.42276 0.40258 0.0
O26 O 0.27744 0.42093 0.45097 0.0
O27 O 0.33702 0.40266 0.4433 0.0
H28 H 0.36014 0.4423 0.40123 0.0
H29 H 0.39248 0.47879 0.38669 0.0
H30 H 0.28404 0.48666 0.34754 0.0
H31 H 0.25188 0.45032 0.36219 0.0
H32 H 0.21659 0.32441 0.3612 0.0
H33 H 0.25118 0.35287 0.38465 0.0
H34 H 0.14581 0.2936 0.41092 0.0
H35 H 0.18152 0.32153 0.43425 0.0
H36 H 0.29568 0.3715 0.51469 0.0
H37 H 0.37951 0.43394 0.51743 0.0
H38 H 0.36602 0.44177 0.48181 0.0
H39 H 0.28323 0.37924 0.4787 0.0
C40 C 0.21544 0.15544 0.98295 0.0
C41 C 0.17313 0.14916 0.98741 0.0
C42 C 0.18976 0.14743 0.02329 0.0
C43 C 0.16039 0.14532 1.0074 0.0
C44 C 0.23214 0.15334 1.01874 0.0
C45 C 0.24478 0.15739 0.99879 0.0
U46 U 0.22401 0.13752 0.92721 0.0
O47 O 0.2186 0.1593 0.89967 0.0
O48 O 0.27799 0.14027 0.90616 0.0
C49 C 0.25817 0.15545 0.89429 0.0
C50 C 0.22972 0.16021 0.96206 0.0
C51 C 0.28307 0.17651 0.88707 0.0
C52 C 0.29275 0.21994 0.88188 0.0
C53 C 0.27118 0.2006 0.89114 0.0
C54 C 0.33929 0.19138 0.86516 0.0
C55 C 0.3264 0.21547 0.86838 0.0
C56 C 0.3178 0.17217 0.87436 0.0
C57 C 0.17425 0.07668 0.91023 0.0
C58 C 0.14955 0.0643 0.87689 0.0
C59 C 0.16467 0.03395 0.90209 0.0
C60 C 0.17625 0.05223 0.91576 0.0
C61 C 0.1505 0.03972 0.88258 0.0
C62 C 0.16142 0.08262 0.89058 0.0
C63 C 0.18447 0.09546 0.92548 0.0
O64 O 0.25943 0.14577 0.95511 0.0
O65 O 0.20001 0.16473 0.94871 0.0
O66 O 0.16505 0.11636 0.92373 0.0
O67 O 0.22475 0.09774 0.93021 0.0
H68 H 0.14984 0.14726 0.97549 0.0
H69 H 0.12764 0.14045 1.01042 0.0
H70 H 0.25543 0.15529 0.03065 0.0
H71 H 0.27754 0.16219 0.99573 0.0
H72 H 0.28199 0.23827 0.88467 0.0
H73 H 0.24454 0.20448 0.90096 0.0
H74 H 0.36565 0.18731 0.85522 0.0
H75 H 0.32763 0.15376 0.87105 0.0
H76 H 0.13856 0.06945 0.86206 0.0
H77 H 0.16677 0.01524 0.90687 0.0
H78 H 0.18638 0.04726 0.93079 0.0
H79 H 0.15988 0.10139 0.88591 0.0
C80 C 0.81352 0.09095 0.65782 0.0
C81 C 0.81016 0.068 0.64852 0.0
C82 C 0.84787 0.04967 0.67665 0.0
C83 C 0.8272 0.04752 0.65787 0.0
C84 C 0.8523 0.07285 0.68547 0.0
C85 C 0.8352 0.09319 0.67618 0.0
U86 U 0.78304 0.13497 0.61493 0.0
O87 O 0.72373 0.15515 0.6111 0.0
O88 O 0.78363 0.17492 0.61585 0.0
C89 C 0.74216 0.17628 0.6145 0.0
C90 C 0.79322 0.11271 0.64948 0.0
C91 C 0.72153 0.19207 0.62958 0.0
C92 C 0.68929 0.19884 0.66257 0.0
C93 C 0.70922 0.18339 0.64863 0.0
C94 C 0.69458 0.23181 0.63869 0.0
C95 C 0.68142 0.22324 0.6577 0.0
C96 C 0.7143 0.21638 0.6248 0.0
C97 C 0.8183 0.12239 0.55998 0.0
C98 C 0.81996 0.15153 0.53257 0.0
C99 C 0.8339 0.10911 0.52569 0.0
C100 C 0.82786 0.10388 0.54613 0.0
C101 C 0.83051 0.13304 0.51865 0.0
C102 C 0.8139 0.14625 0.55305 0.0
C103 C 0.815 0.11642 0.58158 0.0
O104 O 0.81903 0.12982 0.64301 0.0
O105 O 0.75999 0.10927 0.6378 0.0
O106 O 0.77689 0.11093 0.58831 0.0
O107 O 0.83662 0.13051 0.59401 0.0
H108 H 0.79372 0.06581 0.63426 0.0
H109 H 0.82311 0.02995 0.65068 0.0
H110 H 0.86889 0.07532 0.69965 0.0
H111 H 0.83837 0.11074 0.68356 0.0
H112 H 0.67938 0.19157 0.677 0.0
H113 H 0.71479 0.16466 0.65265 0.0
H114 H 0.68996 0.25058 0.63455 0.0
H115 H 0.72395 0.22347 0.61026 0.0
H116 H 0.81642 0.1701 0.52764 0.0
H117 H 0.84246 0.09446 0.51553 0.0
H118 H 0.83148 0.08536 0.55121 0.0
H119 H 0.80632 0.1608 0.56351 0.0
C120 C 0.70709 0.36749 0.05873 0.0
C121 C 0.70735 0.38988 0.04868 0.0
C122 C 0.68206 0.37013 1.01777 0.0
C123 C 0.6951 0.39117 0.02836 0.0
C124 C 0.68139 0.34787 0.02807 0.0
C125 C 0.69375 0.3466 0.04829 0.0
U126 U 0.71806 0.39075 0.11348 0.0
O127 O 0.70924 0.37119 0.14209 0.0
O128 O 0.77119 0.38748 0.13475 0.0
C129 C 0.74895 0.37435 0.14753 0.0
C130 C 0.72121 0.36516 0.07989 0.0
C131 C 0.76999 0.35331 0.15664 0.0
C132 C 0.82105 0.32041 0.15611 0.0
C133 C 0.79963 0.33907 0.14614 0.0
C134 C 0.78249 0.32971 0.18684 0.0
C135 C 0.81317 0.31578 0.17671 0.0
C136 C 0.76131 0.34826 0.17693 0.0
C137 C 0.67292 0.45226 0.12909 0.0
C138 C 0.67642 0.46779 0.16355 0.0
C139 C 0.6424 0.49132 0.13749 0.0
C140 C 0.65135 0.47317 0.12333 0.0
C141 C 0.65501 0.48897 0.15777 0.0
C142 C 0.68535 0.44958 0.1493 0.0
C143 C 0.68166 0.43343 0.11382 0.0
O144 O 0.75194 0.37982 0.08585 0.0
O145 O 0.69094 0.36261 0.0934 0.0
O146 O 0.66065 0.41294 0.11606 0.0
O147 O 0.72182 0.43028 0.10922 0.0
H148 H 0.71724 0.40631 0.05648 0.0
H149 H 0.69558 0.40864 0.02097 0.0
H150 H 0.67221 0.33124 0.02038 0.0
H151 H 0.69335 0.32915 0.05573 0.0
H152 H 0.84455 0.31009 0.14785 0.0
H153 H 0.80675 0.34264 0.13043 0.0
H154 H 0.77479 0.32634 0.20252 0.0
H155 H 0.73844 0.35898 0.18526 0.0
H156 H 0.68683 0.46546 0.17898 0.0
H157 H 0.62511 0.50709 0.13257 0.0
H158 H 0.64125 0.47545 0.10783 0.0
H159 H 0.70201 0.43347 0.15401 0.0
C160 C 0.71247 0.59183 0.65992 0.0
C161 C 0.70394 0.57071 0.64855 0.0
C162 C 0.67617 0.55071 0.67863 0.0
C163 C 0.68608 0.55024 0.65788 0.0
C164 C 0.68477 0.57196 0.68981 0.0
C165 C 0.70273 0.59226 0.68055 0.0
U166 U 0.73789 0.63458 0.61551 0.0
O167 O 0.73777 0.67444 0.61506 0.0
O168 O 0.79702 0.65487 0.60942 0.0
C169 C 0.77912 0.67599 0.61273 0.0
C170 C 0.73182 0.61362 0.65091 0.0
C171 C 0.80141 0.69226 0.62701 0.0
C172 C 0.81218 0.70854 0.6609 0.0
C173 C 0.79182 0.69221 0.64774 0.0
C174 C 0.8528 0.72459 0.63286 0.0
C175 C 0.84263 0.72514 0.65357 0.0
C176 C 0.83233 0.70836 0.61974 0.0
C177 C 0.69555 0.6174 0.56217 0.0
C178 C 0.69068 0.64278 0.53232 0.0
C179 C 0.67231 0.60006 0.53027 0.0
C180 C 0.68209 0.59741 0.55064 0.0
C181 C 0.67567 0.62283 0.52092 0.0
C182 C 0.70042 0.6401 0.55288 0.0
C183 C 0.70214 0.61388 0.58394 0.0
O184 O 0.76364 0.61006 0.6384 0.0
O185 O 0.70525 0.63021 0.6447 0.0
O186 O 0.68215 0.62886 0.59613 0.0
O187 O 0.74106 0.60918 0.58971 0.0
H188 H 0.71106 0.57007 0.63255 0.0
H189 H 0.67945 0.53421 0.64883 0.0
H190 H 0.67808 0.57283 0.70585 0.0
H191 H 0.7092 0.60836 0.68956 0.0
H192 H 0.80331 0.70854 0.6767 0.0
H193 H 0.76816 0.67979 0.65369 0.0
H194 H 0.8767 0.73672 0.62674 0.0
H195 H 0.84043 0.7085 0.60383 0.0
H196 H 0.69355 0.66055 0.52554 0.0
H197 H 0.66169 0.58423 0.52183 0.0
H198 H 0.67836 0.57974 0.55753 0.0
H199 H 0.71089 0.65576 0.56158 0.0
C200 C 0.7989 0.87768 0.05611 0.0
C201 C 0.81614 0.90026 0.05063 0.0
C202 C 0.82863 0.88525 1.01639 0.0
C203 C 0.83084 0.90403 0.03092 0.0
C204 C 0.81145 0.86266 0.0221 0.0
C205 C 0.79671 0.85895 0.04176 0.0
U206 U 0.78718 0.89624 0.11154 0.0
O207 O 0.73241 0.89278 0.13205 0.0
O208 O 0.79215 0.87435 0.13903 0.0
C209 C 0.75222 0.87771 0.14403 0.0
C210 C 0.78343 0.87324 0.07673 0.0
C211 C 0.72776 0.85632 0.15088 0.0
C212 C 0.72063 0.81288 0.15674 0.0
C213 C 0.74175 0.83244 0.14761 0.0
C214 C 0.67029 0.84073 0.17167 0.0
C215 C 0.68531 0.81692 0.16933 0.0
C216 C 0.69135 0.86017 0.1626 0.0
C217 C 0.83504 0.95623 0.13057 0.0
C218 C 0.85857 0.96623 0.16462 0.0
C219 C 0.84229 0.99837 0.14119 0.0
C220 C 0.83185 0.98106 0.12645 0.0
C221 C 0.85636 0.99116 0.16036 0.0
C222 C 0.84784 0.94891 0.1499 0.0
C223 C 0.82601 0.93841 0.11436 0.0
O224 O 0.81295 0.86926 0.09026 0.0
O225 O 0.75359 0.8879 0.08322 0.0
O226 O 0.786 0.93612 0.10911 0.0
O227 O 0.84576 0.91755 0.11556 0.0
H228 H 0.81814 0.91494 0.06157 0.0
H229 H 0.84345 0.92172 0.02701 0.0
H230 H 0.80992 0.84767 1.01145 0.0
H231 H 0.78374 0.84137 0.04578 0.0
H232 H 0.73306 0.79478 0.15465 0.0
H233 H 0.76972 0.82892 0.13856 0.0
H234 H 0.64264 0.84442 0.18089 0.0
H235 H 0.6799 0.8784 0.16528 0.0
H236 H 0.86871 0.96009 0.17933 0.0
H237 H 0.84061 0.01741 0.13735 0.0
H238 H 0.82194 0.98708 0.11166 0.0
H239 H 0.85008 0.92984 0.15356 0.0
C240 C 0.19701 0.9366 0.38224 0.0
C241 C 0.20241 0.95946 0.39148 0.0
C242 C 0.16375 0.97855 0.36401 0.0
C243 C 0.18591 0.98027 0.38242 0.0
C244 C 0.15722 0.95548 0.35529 0.0
C245 C 0.1738 0.93479 0.36427 0.0
U246 U 0.22645 0.89138 0.42436 0.0
O247 O 0.22565 0.85147 0.42279 0.0
O248 O 0.28554 0.87101 0.42815 0.0
C249 C 0.26706 0.84999 0.4244 0.0
C250 C 0.21692 0.91449 0.39017 0.0
C251 C 0.28808 0.83451 0.40927 0.0
C252 C 0.31815 0.82786 0.37581 0.0
C253 C 0.29739 0.84293 0.38977 0.0
C254 C 0.31965 0.7958 0.40063 0.0
C255 C 0.32991 0.80416 0.38117 0.0
C256 C 0.29906 0.81084 0.41452 0.0
C257 C 0.19179 0.90233 0.47951 0.0
C258 C 0.18052 0.8725 0.50594 0.0
C259 C 0.18741 0.91509 0.51467 0.0
C260 C 0.19283 0.92068 0.49426 0.0
C261 C 0.18053 0.89096 0.52079 0.0
C262 C 0.18624 0.87811 0.48551 0.0
C263 C 0.1947 0.90909 0.45802 0.0
O264 O 0.25016 0.91743 0.40193 0.0
O265 O 0.19081 0.89734 0.3963 0.0
O266 O 0.1728 0.89558 0.44526 0.0
O267 O 0.23271 0.91487 0.45132 0.0
H268 H 0.22006 0.96134 0.40542 0.0
H269 H 0.19165 0.99775 0.38953 0.0
H270 H 0.13945 0.95336 0.3414 0.0
H271 H 0.16906 0.91733 0.35695 0.0
H272 H 0.32577 0.83492 0.36101 0.0
H273 H 0.28895 0.86118 0.38542 0.0
H274 H 0.32739 0.77752 0.40516 0.0
H275 H 0.2918 0.80397 0.42943 0.0
H276 H 0.17491 0.85374 0.50999 0.0
H277 H 0.18854 0.92974 0.52564 0.0
H278 H 0.19729 0.93946 0.48995 0.0
H279 H 0.18549 0.8636 0.4744 0.0
C280 C 0.30058 0.66004 0.98258 0.0
C281 C 0.30544 0.63738 0.99187 0.0
C282 C 0.32784 0.65739 0.02314 0.0
C283 C 0.31878 0.63607 1.01205 0.0
C284 C 0.32291 0.67995 1.01365 0.0
C285 C 0.30947 0.68123 0.99361 0.0
U286 U 0.29019 0.63677 0.92786 0.0
O287 O 0.2378 0.64063 0.90627 0.0
O288 O 0.30042 0.65638 0.8994 0.0
C289 C 0.26072 0.65375 0.89375 0.0
C290 C 0.28659 0.6623 0.96144 0.0
C291 C 0.24065 0.6752 0.88479 0.0
C292 C 0.18724 0.70685 0.88436 0.0
C293 C 0.20774 0.68792 0.89439 0.0
C294 C 0.23319 0.70092 0.85542 0.0
C295 C 0.19929 0.71326 0.86458 0.0
C296 C 0.25349 0.6821 0.86539 0.0
C297 C 0.33474 0.5755 0.91151 0.0
C298 C 0.36149 0.56404 0.87829 0.0
C299 C 0.33877 0.53301 0.90175 0.0
C300 C 0.32833 0.55092 0.91591 0.0
C301 C 0.35628 0.53929 0.8829 0.0
C302 C 0.35066 0.58197 0.89242 0.0
C303 C 0.32571 0.59393 0.92719 0.0
O304 O 0.31707 0.66479 0.94805 0.0
O305 O 0.256 0.64756 0.95546 0.0
O306 O 0.28548 0.5971 0.93163 0.0
O307 O 0.34731 0.61437 0.92591 0.0
H308 H 0.29902 0.62076 0.98355 0.0
H309 H 0.32255 0.61842 1.01886 0.0
H310 H 0.32888 0.69674 0.0218 0.0
H311 H 0.30588 0.69887 0.98672 0.0
H312 H 0.16119 0.71594 0.89184 0.0
H313 H 0.19733 0.68294 0.90941 0.0
H314 H 0.24401 0.70572 0.84043 0.0
H315 H 0.27888 0.67258 0.85775 0.0
H316 H 0.37512 0.56959 0.86402 0.0
H317 H 0.33332 0.5142 0.90567 0.0
H318 H 0.31569 0.54554 0.93045 0.0
H319 H 0.35552 0.60086 0.88855 0.0
Tb320 Tb 0.05222 0.15649 0.25189 0.0
C321 C 0.876 0.12093 0.2777 0.0
N322 N 0.89166 0.1439 0.27676 0.0
C323 C 0.82885 0.15685 0.25972 0.0
C324 C 0.83679 0.11473 0.26883 0.0
C325 C 0.86811 0.16205 0.26863 0.0
C326 C 0.81332 0.13303 0.25961 0.0
C327 C 0.88472 0.07958 0.28889 0.0
C328 C 0.89971 0.10369 0.28758 0.0
C329 C 0.84629 0.07302 0.27952 0.0
C330 C 0.8223 0.09058 0.26956 0.0
Tb331 Tb 0.95563 0.15068 0.29176 0.0
N332 N 0.93654 0.11082 0.29659 0.0
C333 C 0.90821 0.06297 0.30004 0.0
C334 C 0.95744 0.09516 0.3089 0.0
C335 C 0.94433 0.07091 0.31038 0.0
H336 H 0.87931 0.18059 0.26911 0.0
H337 H 0.96163 0.0585 0.31984 0.0
H338 H 0.12364 0.11516 0.26648 0.0
H339 H 0.07299 0.25135 0.23566 0.0
H340 H 0.98337 0.10131 0.31817 0.0
H341 H 0.89786 0.04425 0.3014 0.0
H342 H 0.03684 0.21128 0.23426 0.0
H343 H 0.81051 0.17124 0.25306 0.0
H344 H 0.83442 0.05454 0.28024 0.0
H345 H 0.7924 0.08537 0.26269 0.0
H346 H 0.19207 0.11533 0.28413 0.0
H347 H 0.78294 0.12904 0.25267 0.0
H348 H 0.14044 0.25608 0.25444 0.0
N349 N 0.11746 0.15368 0.26695 0.0
C350 C 0.13837 0.1751 0.26979 0.0
C351 C 0.17694 0.13232 0.28056 0.0
C352 C 0.17863 0.17606 0.27899 0.0
C353 C 0.13742 0.13232 0.27101 0.0
C354 C 0.1973 0.15431 0.28493 0.0
N355 N 0.0825 0.1941 0.25276 0.0
C356 C 0.06603 0.21336 0.24263 0.0
C357 C 0.14252 0.21832 0.26323 0.0
C358 C 0.12073 0.19596 0.26204 0.0
C359 C 0.12464 0.23856 0.25391 0.0
C360 C 0.08653 0.23597 0.24332 0.0
H361 H 0.22821 0.15424 0.29205 0.0
H362 H 0.23046 0.19964 0.28836 0.0
H363 H 0.19877 0.23668 0.27455 0.0
O364 O 0.03948 0.15905 0.22079 0.0
O365 O 0.03955 0.1851 0.27433 0.0
O366 O 0.01712 0.16439 0.30216 0.0
O367 O 0.10043 0.14775 0.23119 0.0
O368 O 0.99125 0.17198 0.24327 0.0
O369 O 0.9578 0.18365 0.2731 0.0
O370 O 0.92716 0.14566 0.32057 0.0
O371 O 0.94939 0.13725 0.26049 0.0
O372 O 0.01519 0.12281 0.25227 0.0
O373 O 0.9279 0.18093 0.30579 0.0
O374 O 0.01632 0.1341 0.30049 0.0
O375 O 0.0503 0.12345 0.27053 0.0
C376 C 0.03842 0.18231 0.29395 0.0
C377 C 0.07712 0.13179 0.2002 0.0
C378 C 0.09297 0.11889 0.16575 0.0
C379 C 0.08186 0.09496 0.17093 0.0
C380 C 0.06602 0.10786 0.20513 0.0
C381 C 0.0682 0.08956 0.19049 0.0
C382 C 0.09016 0.13729 0.18048 0.0
C383 C 0.96477 0.18584 0.25349 0.0
C384 C 0.07656 0.15108 0.21554 0.0
C385 C 0.19967 0.19851 0.28117 0.0
C386 C 0.18169 0.2196 0.27325 0.0
C387 C 0.97364 0.12101 0.25176 0.0
C388 C 0.89324 0.17937 0.33856 0.0
C389 C 0.87362 0.18085 0.37427 0.0
C390 C 0.85211 0.20266 0.37081 0.0
C391 C 0.87148 0.20118 0.33553 0.0
C392 C 0.89367 0.16897 0.35797 0.0
C393 C 0.85085 0.21262 0.35155 0.0
C394 C 0.04326 0.12066 0.29006 0.0
C395 C 0.91658 0.16838 0.3215 0.0
H396 H 0.08347 0.08048 0.15981 0.0
H397 H 0.05619 0.10334 0.22032 0.0
H398 H 0.05959 0.07111 0.19435 0.0
H399 H 0.09913 0.15577 0.17675 0.0
H400 H 0.83612 0.21199 0.38307 0.0
H401 H 0.8705 0.20946 0.32075 0.0
H402 H 0.91072 0.15228 0.36055 0.0
H403 H 0.83414 0.22941 0.34907 0.0
Tb404 Tb 0.45755 0.37893 0.75051 0.0
C405 C 0.63867 0.40588 0.77559 0.0
N406 N 0.62118 0.38337 0.77399 0.0
C407 C 0.68225 0.36938 0.75588 0.0
C408 C 0.67802 0.41135 0.76655 0.0
C409 C 0.64286 0.36493 0.76494 0.0
C410 C 0.69972 0.39277 0.75649 0.0
C411 C 0.63321 0.44717 0.78795 0.0
C412 C 0.61646 0.42346 0.78613 0.0
C413 C 0.67189 0.45299 0.77849 0.0
C414 C 0.69432 0.4351 0.76787 0.0
Tb415 Tb 0.55707 0.37781 0.78917 0.0
N416 N 0.57911 0.41708 0.79506 0.0
C417 C 0.6111 0.46413 0.79962 0.0
C418 C 0.55959 0.43301 0.80789 0.0
C419 C 0.57454 0.45688 0.80993 0.0
H420 H 0.63002 0.34674 0.7648 0.0
H421 H 0.55832 0.46952 0.81979 0.0
H422 H 0.39135 0.42044 0.76965 0.0
H423 H 0.42545 0.28704 0.72674 0.0
H424 H 0.53338 0.42736 0.81718 0.0
H425 H 0.62283 0.48255 0.80138 0.0
H426 H 0.46535 0.32591 0.72794 0.0
H427 H 0.69916 0.35477 0.74851 0.0
H428 H 0.68509 0.47116 0.7796 0.0
H429 H 0.72437 0.43976 0.76088 0.0
H430 H 0.32428 0.42074 0.78862 0.0
H431 H 0.73015 0.39619 0.74939 0.0
H432 H 0.35942 0.28227 0.74669 0.0
N433 N 0.39383 0.38191 0.76718 0.0
C434 C 0.37114 0.36095 0.76889 0.0
C435 C 0.33749 0.40369 0.78351 0.0
C436 C 0.33148 0.36035 0.77875 0.0
C437 C 0.37625 0.40338 0.77321 0.0
C438 C 0.31535 0.38201 0.78665 0.0
N439 N 0.42343 0.34229 0.74906 0.0
C440 C 0.43695 0.32377 0.7369 0.0
C441 C 0.36211 0.31882 0.7589 0.0
C442 C 0.38609 0.34048 0.75919 0.0
C443 C 0.37699 0.29923 0.74738 0.0
C444 C 0.41427 0.30185 0.7361 0.0
H445 H 0.28497 0.38235 0.79431 0.0
H446 H 0.27801 0.33757 0.78719 0.0
H447 H 0.30489 0.30116 0.76976 0.0
O448 O 0.46554 0.37783 0.71881 0.0
O449 O 0.46817 0.34784 0.77046 0.0
O450 O 0.49537 0.36426 0.79955 0.0
O451 O 0.41209 0.39546 0.73213 0.0
O452 O 0.5163 0.36171 0.74005 0.0
O453 O 0.55071 0.34651 0.76839 0.0
O454 O 0.586 0.38127 0.81784 0.0
O455 O 0.56346 0.39298 0.75864 0.0
O456 O 0.49929 0.41067 0.75287 0.0
O457 O 0.58439 0.34655 0.80176 0.0
O458 O 0.49815 0.39467 0.8 0.0
O459 O 0.46474 0.40982 0.7716 0.0
C460 C 0.47127 0.34828 0.7902 0.0
C461 C 0.4009 0.37595 0.70088 0.0
C462 C 0.37799 0.36844 0.66618 0.0
C463 C 0.34667 0.35238 0.67339 0.0
C464 C 0.36853 0.36038 0.70769 0.0
C465 C 0.34197 0.34846 0.69402 0.0
C466 C 0.40527 0.38016 0.68005 0.0
C467 C 0.5415 0.3459 0.74887 0.0
C468 C 0.42943 0.3882 0.7154 0.0
C469 C 0.30838 0.33844 0.77954 0.0
C470 C 0.32363 0.31772 0.76958 0.0
C471 C 0.54078 0.4107 0.75135 0.0
C472 C 0.61879 0.34703 0.83476 0.0
C473 C 0.63803 0.34527 0.87043 0.0
C474 C 0.65965 0.32355 0.86667 0.0
C475 C 0.64065 0.32528 0.83136 0.0
C476 C 0.61789 0.35717 0.8544 0.0
C477 C 0.66112 0.31372 0.84722 0.0
C478 C 0.47161 0.40972 0.79125 0.0
C479 C 0.59595 0.35844 0.81793 0.0
H480 H 0.32497 0.34334 0.66308 0.0
H481 H 0.3632 0.35766 0.72358 0.0
H482 H 0.31724 0.33643 0.69946 0.0
H483 H 0.42972 0.39248 0.67468 0.0
H484 H 0.67525 0.31414 0.87886 0.0
H485 H 0.64186 0.31718 0.81641 0.0
H486 H 0.60071 0.3738 0.85732 0.0
H487 H 0.67787 0.29695 0.84447 0.0
Tb488 Tb 0.06509 0.87927 0.74812 0.0
C489 C 0.88294 0.85272 0.76959 0.0
N490 N 0.9028 0.87456 0.77192 0.0
C491 C 0.84301 0.89434 0.75701 0.0
C492 C 0.84315 0.85072 0.76002 0.0
C493 C 0.88212 0.89538 0.76692 0.0
C494 C 0.82378 0.87187 0.7532 0.0
C495 C 0.88079 0.8097 0.77717 0.0
C496 C 0.90131 0.83248 0.77804 0.0
C497 C 0.84205 0.8074 0.76688 0.0
C498 C 0.82331 0.82786 0.75828 0.0
Tb499 Tb 0.96752 0.87342 0.78769 0.0
N500 N 0.93928 0.83527 0.78742 0.0
C501 C 0.89961 0.79007 0.78693 0.0
C502 C 0.95666 0.81659 0.79793 0.0
C503 C 0.93743 0.79362 0.79758 0.0
H504 H 0.8949 0.91293 0.771 0.0
H505 H 0.95171 0.7787 0.80557 0.0
H506 H 0.13945 0.84945 0.77262 0.0
H507 H 0.06296 0.97012 0.7172 0.0
H508 H 0.9855 0.81942 0.8064 0.0
H509 H 0.88482 0.77225 0.78665 0.0
H510 H 0.03765 0.92825 0.72125 0.0
H511 H 0.82729 0.9109 0.75272 0.0
H512 H 0.82595 0.78999 0.76583 0.0
H513 H 0.79291 0.82594 0.75082 0.0
H514 H 0.20851 0.85854 0.78833 0.0
H515 H 0.7932 0.87114 0.74578 0.0
H516 H 0.12939 0.98363 0.73375 0.0
N517 N 0.12885 0.88582 0.76344 0.0
C518 C 0.14596 0.90835 0.76135 0.0
C519 C 0.19097 0.87282 0.78104 0.0
C520 C 0.18571 0.91431 0.7698 0.0
C521 C 0.15141 0.8678 0.77239 0.0
C522 C 0.20801 0.89625 0.77995 0.0
N523 N 0.08565 0.91862 0.74223 0.0
C524 C 0.0649 0.93416 0.72973 0.0
C525 C 0.14035 0.9489 0.74781 0.0
C526 C 0.12347 0.92536 0.75053 0.0
C527 C 0.1176 0.96535 0.73615 0.0
C528 C 0.07996 0.95784 0.72689 0.0
H529 H 0.23875 0.90006 0.78658 0.0
H530 H 0.23257 0.94287 0.77402 0.0
H531 H 0.1928 0.97321 0.7548 0.0
O532 O 0.09407 0.88409 0.71971 0.0
O533 O 0.07111 0.89451 0.77879 0.0
O534 O 0.00412 0.90725 0.78772 0.0
O535 O 0.0944 0.84938 0.73425 0.0
O536 O 0.0046 0.89589 0.73925 0.0
O537 O 0.96901 0.90632 0.76889 0.0
O538 O 0.9777 0.87 0.81892 0.0
O539 O 0.98094 0.84482 0.76534 0.0
O540 O 0.00375 0.86546 0.73754 0.0
O541 O 0.91881 0.8835 0.80772 0.0
O542 O 0.02951 0.85957 0.79657 0.0
O543 O 0.06232 0.84661 0.76704 0.0
C544 C 0.04558 0.9097 0.78802 0.0
C545 C 0.08901 0.84972 0.69852 0.0
C546 C 0.09417 0.84687 0.66176 0.0
C547 C 0.06453 0.82768 0.66197 0.0
C548 C 0.05922 0.83059 0.69835 0.0
C549 C 0.04701 0.81975 0.68015 0.0
C550 C 0.10604 0.85798 0.68012 0.0
C551 C 0.97717 0.90925 0.74946 0.0
C552 C 0.10254 0.86119 0.7177 0.0
C553 C 0.20214 0.9379 0.76756 0.0
C554 C 0.17949 0.95516 0.75661 0.0
C555 C 0.98236 0.84756 0.74572 0.0
C556 C 0.9422 0.89855 0.83909 0.0
C557 C 0.9305 0.91135 0.87401 0.0
C558 C 0.94449 0.93485 0.8689 0.0
C559 C 0.95573 0.9221 0.83426 0.0
C560 C 0.92962 0.89323 0.85891 0.0
C561 C 0.95704 0.94012 0.84916 0.0
C562 C 0.05514 0.84493 0.78666 0.0
C563 C 0.94129 0.87928 0.82369 0.0
H564 H 0.05462 0.81899 0.64801 0.0
H565 H 0.04544 0.82393 0.71225 0.0
H566 H 0.02398 0.80507 0.68014 0.0
H567 H 0.12903 0.87273 0.68012 0.0
H568 H 0.94506 0.94929 0.88007 0.0
H569 H 0.96522 0.92656 0.81902 0.0
H570 H 0.91957 0.87492 0.86258 0.0
H571 H 0.96759 0.95827 0.84538 0.0
Tb572 Tb 0.46618 0.65102 0.2501 0.0
C573 C 0.6507 0.6697 0.27045 0.0
N574 N 0.62802 0.64899 0.2736 0.0
C575 C 0.68444 0.62564 0.25896 0.0
C576 C 0.69028 0.66931 0.26052 0.0
C577 C 0.64575 0.62698 0.26926 0.0
C578 C 0.70641 0.64694 0.25418 0.0
C579 C 0.65986 0.71265 0.27755 0.0
C580 C 0.63588 0.69105 0.27881 0.0
C581 C 0.69814 0.7127 0.26667 0.0
C582 C 0.71329 0.69106 0.25813 0.0
Tb583 Tb 0.56389 0.65395 0.28953 0.0
N584 N 0.59856 0.69034 0.289 0.0
C585 C 0.64518 0.73329 0.28778 0.0
C586 C 0.58535 0.7099 0.30006 0.0
C587 C 0.60813 0.73178 0.29938 0.0
H588 H 0.63058 0.61031 0.27394 0.0
H589 H 0.59711 0.74745 0.30775 0.0
H590 H 0.38864 0.67822 0.27431 0.0
H591 H 0.47607 0.56091 0.21683 0.0
H592 H 0.55678 0.70866 0.30905 0.0
H593 H 0.66275 0.75025 0.28725 0.0
H594 H 0.49524 0.604 0.22049 0.0
H595 H 0.69768 0.60815 0.25507 0.0
H596 H 0.71685 0.72918 0.26528 0.0
H597 H 0.74355 0.69118 0.25035 0.0
H598 H 0.32001 0.66693 0.28983 0.0
H599 H 0.73671 0.64583 0.2465 0.0
H600 H 0.41396 0.54433 0.23516 0.0
N601 N 0.40265 0.64226 0.26483 0.0
C602 C 0.3883 0.61909 0.26286 0.0
C603 C 0.33912 0.65323 0.28247 0.0
C604 C 0.3494 0.61176 0.27144 0.0
C605 C 0.37816 0.65955 0.27383 0.0
C606 C 0.32486 0.62917 0.28148 0.0
N607 N 0.44913 0.61117 0.24328 0.0
C608 C 0.47019 0.59674 0.22978 0.0
C609 C 0.39921 0.57859 0.24964 0.0
C610 C 0.41292 0.60284 0.25213 0.0
C611 C 0.4233 0.56312 0.23744 0.0
C612 C 0.45849 0.57238 0.22715 0.0
H613 H 0.29469 0.6243 0.28824 0.0
H614 H 0.30673 0.58132 0.27632 0.0
H615 H 0.3504 0.55223 0.25722 0.0
O616 O 0.43706 0.64711 0.22142 0.0
O617 O 0.4595 0.63745 0.28117 0.0
O618 O 0.5243 0.62124 0.28844 0.0
O619 O 0.43777 0.68182 0.23746 0.0
O620 O 0.52725 0.63546 0.2406 0.0
O621 O 0.5583 0.62154 0.26994 0.0
O622 O 0.55177 0.6565 0.32072 0.0
O623 O 0.5514 0.68395 0.26873 0.0
O624 O 0.52748 0.66533 0.23993 0.0
O625 O 0.61136 0.64341 0.30988 0.0
O626 O 0.50452 0.67116 0.2989 0.0
O627 O 0.46805 0.68324 0.27007 0.0
C628 C 0.48273 0.62067 0.28959 0.0
C629 C 0.40249 0.68106 0.20479 0.0
C630 C 0.38159 0.68271 0.16936 0.0
C631 C 0.35983 0.70433 0.17334 0.0
C632 C 0.38042 0.7027 0.20843 0.0
C633 C 0.35904 0.71415 0.1928 0.0
C634 C 0.40259 0.67089 0.18517 0.0
C635 C 0.55265 0.62058 0.25023 0.0
C636 C 0.42616 0.66978 0.2214 0.0
C637 C 0.33631 0.58742 0.26964 0.0
C638 C 0.36126 0.57084 0.25882 0.0
C639 C 0.54911 0.68264 0.249 0.0
C640 C 0.58591 0.62746 0.34041 0.0
C641 C 0.59244 0.61373 0.37519 0.0
C642 C 0.57994 0.59029 0.36887 0.0
C643 C 0.57372 0.60399 0.3344 0.0
C644 C 0.59545 0.63228 0.36076 0.0
C645 C 0.5707 0.5855 0.34861 0.0
C646 C 0.47742 0.68533 0.2895 0.0
C647 C 0.58789 0.64717 0.32568 0.0
H648 H 0.34356 0.71368 0.16131 0.0
H649 H 0.37973 0.7108 0.22338 0.0
H650 H 0.34214 0.73083 0.19573 0.0
H651 H 0.41989 0.65435 0.18208 0.0
H652 H 0.57778 0.57555 0.37957 0.0
H653 H 0.56666 0.6 0.31874 0.0
H654 H 0.60445 0.65052 0.36538 0.0
H655 H 0.56122 0.56741 0.3439 0.0
H656 H 0.12837 0.01972 0.38062 0.0
H657 H 0.07486 0.07876 0.27376 0.0
H658 H 0.16442 0.98788 0.32341 0.0
H659 H 0.06012 0.11692 0.33043 0.0
H660 H 0.10682 0.04497 0.29177 0.0
H661 H 0.10211 0.05524 0.36269 0.0
C662 C 0.13105 0.02023 0.36432 0.0
C663 C 0.14837 1.00062 0.35353 0.0
C664 C 0.09682 0.06079 0.30028 0.0
C665 C 0.11793 0.04115 0.33289 0.0
C666 C 0.07874 0.08013 0.28998 0.0
C667 C 0.06479 0.10066 0.30062 0.0
C668 C 0.1007 0.06189 0.32141 0.0
C669 C 0.07019 0.10134 0.32166 0.0
C670 C 0.11589 0.04048 0.35409 0.0
C671 C 0.15052 1.00227 0.33237 0.0
N672 N 0.08747 0.08217 0.33138 0.0
N673 N 0.13535 0.02208 0.32278 0.0
H674 H 0.35193 0.53857 0.8412 0.0
H675 H 0.45471 0.4067 0.83144 0.0
H676 H 0.39423 0.49613 0.89181 0.0
H677 H 0.44147 0.45449 0.78055 0.0
H678 H 0.42461 0.43791 0.85331 0.0
H679 H 0.3777 0.50682 0.81828 0.0
C680 C 0.36664 0.52266 0.84753 0.0
C681 C 0.37066 0.52006 0.86856 0.0
C682 C 0.4281 0.44159 0.83735 0.0
C683 C 0.39961 0.48354 0.84238 0.0
C684 C 0.44525 0.42376 0.82486 0.0
C685 C 0.45067 0.42805 0.80417 0.0
C686 C 0.41604 0.46391 0.82914 0.0
C687 C 0.43756 0.45041 0.79641 0.0
C688 C 0.38114 0.5045 0.83442 0.0
C689 C 0.38953 0.49882 0.8758 0.0
N690 N 0.42089 0.46757 0.80893 0.0
N691 N 0.40319 0.48145 0.86277 0.0
H692 H 0.69688 0.50244 0.67465 0.0
H693 H 0.51284 0.45706 0.74892 0.0
H694 H 0.61079 0.55042 0.70576 0.0
H695 H 0.61629 0.4111 0.73065 0.0
H696 H 0.54626 0.49091 0.73125 0.0
H697 H 0.66527 0.46799 0.69276 0.0
C698 C 0.67121 0.50571 0.68519 0.0
C699 C 0.65657 0.52937 0.68876 0.0
C700 C 0.56182 0.47347 0.73113 0.0
C701 C 0.6205 0.49015 0.70954 0.0
C702 C 0.54264 0.45412 0.74115 0.0
C703 C 0.56183 0.43128 0.74119 0.0
C704 C 0.60026 0.46993 0.72081 0.0
C705 C 0.60065 0.42851 0.73106 0.0
C706 C 0.65345 0.48609 0.69563 0.0
C707 C 0.62348 0.53256 0.70272 0.0
N708 N 0.61852 0.44759 0.72115 0.0
N709 N 0.60656 0.51322 0.71253 0.0
H710 H 0.81924 0.0347 0.17003 0.0
H711 H 0.00809 0.07705 0.24304 0.0
H712 H 0.926 0.98978 0.18497 0.0
H713 H 0.89581 0.11956 0.23337 0.0
H714 H 0.97783 0.04472 0.22205 0.0
H715 H 0.84583 0.06579 0.19348 0.0
C716 C 0.84823 0.03136 0.17827 0.0
C717 C 0.87047 1.0096 0.17548 0.0
C718 C 0.95958 0.06102 0.22463 0.0
C719 C 0.90104 0.0451 0.20237 0.0
C720 C 0.97695 0.07953 0.23653 0.0
C721 C 0.95441 0.101 0.23992 0.0
C722 C 0.91937 0.064 0.21594 0.0
C723 C 0.91402 0.10317 0.2313 0.0
C724 C 0.86328 0.04907 0.19172 0.0
C725 C 0.90755 1.00614 0.18677 0.0
N726 N 0.89785 0.08493 0.21962 0.0
N727 N 0.92178 0.02374 0.19959 0.0
H728 H 0.84483 0.04025 0.71722 0.0
H729 H 0.96205 0.91233 0.70891 0.0
H730 H 0.88729 1.00935 0.66067 0.0
H731 H 0.94203 0.9506 0.76516 0.0
H732 H 0.92849 0.94569 0.69094 0.0
H733 H 0.87406 1.00558 0.73491 0.0
C734 C 0.86051 0.02625 0.70849 0.0
C735 C 0.86401 0.02796 0.68739 0.0
C736 C 0.93132 0.94676 0.70721 0.0
C737 C 0.897 0.98783 0.70765 0.0
C738 C 0.95048 0.92774 0.71748 0.0
C739 C 0.95502 0.92875 0.73856 0.0
C740 C 0.91624 0.96688 0.7181 0.0
C741 C 0.93905 0.94902 0.74892 0.0
C742 C 0.877 1.00636 0.71863 0.0
C743 C 0.88362 1.00882 0.67691 0.0
N744 N 0.92043 0.96729 0.73858 0.0
N745 N 0.89949 0.9896 0.68715 0.0
H746 H 0.65964 0.53806 0.15197 0.0
H747 H 0.5728 0.57443 0.26181 0.0
H748 H 0.62935 0.48497 0.19751 0.0
H749 H 0.58041 0.62345 0.21146 0.0
H750 H 0.60238 0.54213 0.24034 0.0
H751 H 0.63933 0.57019 0.17539 0.0
C752 C 0.64861 0.53311 0.1669 0.0
C753 C 0.64565 0.50867 0.17262 0.0
C754 C 0.59784 0.56001 0.23406 0.0
C755 C 0.62281 0.54562 0.19976 0.0
C756 C 0.58125 0.57843 0.24632 0.0
C757 C 0.57405 0.60153 0.2383 0.0
C758 C 0.60762 0.56488 0.21375 0.0
C759 C 0.58519 0.60581 0.21814 0.0
C760 C 0.63721 0.55153 0.18032 0.0
C761 C 0.63227 0.50352 0.19242 0.0
N762 N 0.60129 0.58766 0.20656 0.0
N763 N 0.6211 0.52183 0.20525 0.0
H764 H 0.30532 0.52857 0.35419 0.0
H765 H 0.5146 0.57605 0.29805 0.0
H766 H 0.42407 0.49018 0.35423 0.0
H767 H 0.40435 0.62054 0.30754 0.0
H768 H 0.48071 0.54369 0.31741 0.0
H769 H 0.33955 0.56168 0.3357 0.0
C770 C 0.3386 0.52712 0.35035 0.0
C771 C 0.36184 0.50653 0.35578 0.0
C772 C 0.46384 0.56051 0.31524 0.0
C773 C 0.40123 0.54441 0.33466 0.0
C774 C 0.48325 0.57902 0.30425 0.0
C775 C 0.46215 0.60097 0.30111 0.0
C776 C 0.42286 0.56386 0.32306 0.0
C777 C 0.42139 0.60373 0.30929 0.0
C778 C 0.35816 0.54607 0.33987 0.0
C779 C 0.40501 0.50579 0.35059 0.0
N780 N 0.40298 0.58535 0.31983 0.0
N781 N 0.42322 0.52438 0.34025 0.0
H782 H 0.10498 0.99858 0.89171 0.0
H783 H 0.07716 0.95386 0.77765 0.0
H784 H 0.16176 0.03624 0.84134 0.0
H785 H 0.05171 0.90827 0.8288 0.0
H786 H 0.10541 0.9853 0.80042 0.0
H787 H 0.08149 0.9665 0.86872 0.0
C788 C 0.11292 1.00004 0.87585 0.0
C789 C 0.13576 0.02016 0.86854 0.0
C790 C 0.09408 0.96834 0.80668 0.0
C791 C 0.1081 0.98351 0.84199 0.0
C792 C 0.07856 0.95033 0.79366 0.0
C793 C 0.06358 0.92835 0.80142 0.0
C794 C 0.09346 0.96444 0.82763 0.0
C795 C 0.06367 0.92498 0.82234 0.0
C796 C 0.09927 0.98172 0.8627 0.0
C797 C 0.14395 0.02125 0.84769 0.0
N798 N 0.07826 0.94291 0.83477 0.0
N799 N 0.13009 1.00321 0.83515 0.0
H800 H 0.23059 0.12182 0.05261 0.0
H801 H 0.06682 0.15518 0.14071 0.0
H802 H 0.11857 0.16445 0.04243 0.0
H803 H 0.15393 0.09543 0.14401 0.0
H804 H 0.0912 0.16313 0.10612 0.0
H805 H 0.20854 0.11617 0.0877 0.0
C806 C 0.20142 0.13007 0.05778 0.0
C807 C 0.17634 0.1436 0.04456 0.0
C808 C 0.10494 0.14829 0.11444 0.0
C809 C 0.1509 0.13717 0.0847 0.0
C810 C 0.09122 0.14384 0.13416 0.0
C811 C 0.10815 0.12448 0.1451 0.0
C812 C 0.13624 0.13349 0.10575 0.0
C813 C 0.13964 0.1103 0.13595 0.0
C814 C 0.18875 0.12673 0.07777 0.0
C815 C 0.13861 0.15366 0.05205 0.0
N816 N 0.15273 0.11511 0.11683 0.0
N817 N 0.1271 0.15032 0.07165 0.0
H818 H 0.34608 0.43554 0.54985 0.0
H819 H 0.37809 0.33556 0.63523 0.0
H820 H 0.3501 0.35847 0.53785 0.0
H821 H 0.3824 0.41253 0.64731 0.0
H822 H 0.37155 0.34386 0.59921 0.0
H823 H 0.36186 0.42777 0.58529 0.0
C824 C 0.35052 0.41697 0.55462 0.0
C825 C 0.34681 0.39763 0.54076 0.0
C826 C 0.37426 0.35898 0.60967 0.0
C827 C 0.36453 0.38861 0.58147 0.0
C828 C 0.37802 0.35423 0.63023 0.0
C829 C 0.3804 0.37339 0.64424 0.0
C830 C 0.37249 0.38309 0.60304 0.0
C831 C 0.38075 0.39725 0.63697 0.0
C832 C 0.35942 0.41257 0.5749 0.0
C833 C 0.3521 0.37395 0.54797 0.0
N834 N 0.37634 0.40144 0.61686 0.0
N835 N 0.36065 0.37013 0.56779 0.0
H836 H 0.71952 0.39651 0.98724 0.0
H837 H 0.5873 0.32867 0.90043 0.0
H838 H 0.61743 0.34571 0.99849 0.0
H839 H 0.68498 0.38156 0.88804 0.0
H840 H 0.5927 0.33835 0.93648 0.0
H841 H 0.70285 0.39482 0.95115 0.0
C842 C 0.69325 0.38525 0.9822 0.0
C843 C 0.67015 0.37103 0.99599 0.0
C844 C 0.61258 0.34816 0.92593 0.0
C845 C 0.65119 0.36883 0.95458 0.0
C846 C 0.60927 0.34272 0.90537 0.0
C847 C 0.63561 0.35445 0.89141 0.0
C848 C 0.643 0.3652 0.93261 0.0
C849 C 0.66396 0.37229 0.89844 0.0
C850 C 0.68388 0.38421 0.96155 0.0
C851 C 0.63672 0.35661 0.98845 0.0
N852 N 0.66729 0.37696 0.91862 0.0
N853 N 0.62849 0.35576 0.96831 0.0
H854 H 0.8091 0.10629 0.48476 0.0
H855 H 0.90147 0.20463 0.40778 0.0
H856 H 0.87248 0.17258 0.50308 0.0
H857 H 0.84908 0.13596 0.3882 0.0
H858 H 0.89456 0.19179 0.44284 0.0
H859 H 0.82552 0.11565 0.44952 0.0
C860 C 0.82665 0.12275 0.48143 0.0
C861 C 0.83927 0.1387 0.49702 0.0
C862 C 0.88485 0.17937 0.43094 0.0
C863 C 0.85793 0.14959 0.45658 0.0
C864 C 0.88889 0.18669 0.41093 0.0
C865 C 0.87547 0.1714 0.39515 0.0
C866 C 0.8667 0.15664 0.43531 0.0
C867 C 0.85976 0.14826 0.39999 0.0
C868 C 0.83594 0.12809 0.46127 0.0
C869 C 0.8614 0.15992 0.49165 0.0
N870 N 0.85529 0.14167 0.41969 0.0
N871 N 0.86991 0.16473 0.47194 0.0
H872 H 0.8994 0.91057 1.00402 0.0
H873 H 0.86268 0.88341 0.88625 0.0
H874 H 0.79389 0.86851 0.98084 0.0
H875 H 0.96626 0.92688 0.90959 0.0
H876 H 0.83863 0.87622 0.92083 0.0
H877 H 0.92502 0.91607 0.96953 0.0
C878 C 0.88144 0.9026 0.99169 0.0
C879 C 0.84439 0.88904 0.99542 0.0
C880 C 0.86664 0.88732 0.91839 0.0
C881 C 0.87398 0.89498 0.95579 0.0
C882 C 0.88058 0.8913 0.89864 0.0
C883 C 0.91642 0.90593 0.89497 0.0
C884 C 0.88867 0.89803 0.93463 0.0
C885 C 0.93803 0.91587 0.91165 0.0
C886 C 0.89628 0.9056 0.97198 0.0
C887 C 0.82292 0.87881 0.97878 0.0
N888 N 0.92377 0.91179 0.93071 0.0
N889 N 0.838 0.882 0.95973 0.0
H890 H 0.7148 0.64777 0.48988 0.0
H891 H 0.54737 0.59864 0.40803 0.0
H892 H 0.60446 0.604 0.50346 0.0
H893 H 0.65869 0.64009 0.39161 0.0
H894 H 0.56553 0.60395 0.4435 0.0
H895 H 0.69256 0.64882 0.45431 0.0
C896 C 0.68576 0.63858 0.48543 0.0
C897 C 0.66177 0.62547 0.49961 0.0
C898 C 0.58604 0.61199 0.4322 0.0
C899 C 0.63628 0.62655 0.45909 0.0
C900 C 0.57573 0.60886 0.41191 0.0
C901 C 0.60187 0.61861 0.39682 0.0
C902 C 0.62298 0.6249 0.43759 0.0
C903 C 0.63768 0.63223 0.40278 0.0
C904 C 0.6732 0.6391 0.46513 0.0
C905 C 0.62446 0.61388 0.493 0.0
N906 N 0.64744 0.63479 0.42272 0.0
N907 N 0.61306 0.6146 0.47329 0.0
H908 H 0.29845 0.62799 0.05375 0.0
H909 H 0.42674 0.70181 0.13849 0.0
H910 H 0.38978 0.68474 0.04143 0.0
H911 H 0.3391 0.64402 0.15258 0.0
H912 H 0.41983 0.69192 0.1026 0.0
H913 H 0.31831 0.62984 0.08954 0.0
C914 C 0.32304 0.64061 0.0585 0.0
C915 C 0.34206 0.65647 0.04457 0.0
C916 C 0.40248 0.6811 0.11347 0.0
C917 C 0.36471 0.65879 0.08551 0.0
C918 C 0.40666 0.68669 0.13394 0.0
C919 C 0.38349 0.67366 0.14834 0.0
C920 C 0.37431 0.66259 0.10731 0.0
C921 C 0.3576 0.65436 0.14181 0.0
C922 C 0.33424 0.64172 0.07896 0.0
C923 C 0.37356 0.67253 0.05165 0.0
N924 N 0.35324 0.64957 0.12169 0.0
N925 N 0.38361 0.67338 0.07157 0.0
H926 H 0.20606 0.85109 0.54237 0.0
H927 H 0.09739 0.89289 0.64632 0.0
H928 H 0.13584 0.91768 0.54883 0.0
H929 H 0.13236 0.81903 0.63298 0.0
H930 H 0.12232 0.90481 0.61257 0.0
H931 H 0.18932 0.84138 0.57744 0.0
C932 C 0.18707 0.86368 0.55108 0.0
C933 C 0.17223 0.88522 0.54246 0.0
C934 C 0.12476 0.88603 0.6171 0.0
C935 C 0.1536 0.87434 0.58286 0.0
C936 C 0.1108 0.87928 0.63636 0.0
C937 C 0.11255 0.85493 0.64229 0.0
C938 C 0.14109 0.86833 0.60388 0.0
C939 C 0.13002 0.83794 0.62884 0.0
C940 C 0.17774 0.85816 0.57117 0.0
C941 C 0.14854 0.90103 0.55479 0.0
N942 N 0.14358 0.84495 0.61027 0.0
N943 N 0.13992 0.89526 0.57432 0.0
H944 H 0.15044 0.31316 0.34521 0.0
H945 H 0.06677 0.17608 0.33244 0.0
H946 H 0.16164 0.25842 0.39118 0.0
H947 H 0.05691 0.22983 0.28574 0.0
H948 H 0.10177 0.2062 0.35413 0.0
H949 H 0.11737 0.28294 0.32288 0.0
C950 C 0.14616 0.2948 0.35061 0.0
C951 C 0.15869 0.28843 0.37021 0.0
C952 C 0.09217 0.21142 0.3391 0.0
C953 C 0.12038 0.25378 0.34476 0.0
C954 C 0.07206 0.19424 0.32675 0.0
C955 C 0.05942 0.20041 0.30718 0.0
C956 C 0.09949 0.23502 0.33188 0.0
C957 C 0.06703 0.22418 0.30055 0.0
C958 C 0.12704 0.27757 0.33787 0.0
C959 C 0.15182 0.26436 0.37638 0.0
N960 N 0.08659 0.24063 0.31286 0.0
N961 N 0.13313 0.24799 0.36374 0.0
H962 H 0.3497 0.21542 0.82859 0.0
H963 H 0.44592 0.35049 0.82972 0.0
H964 H 0.34903 0.26139 0.88163 0.0
H965 H 0.44846 0.30261 0.77797 0.0
H966 H 0.40952 0.31868 0.84902 0.0
H967 H 0.38442 0.24778 0.80978 0.0
C968 C 0.35715 0.23228 0.83636 0.0
C969 C 0.34682 0.23553 0.85683 0.0
C970 C 0.41784 0.31519 0.8334 0.0
C971 C 0.3863 0.273 0.83518 0.0
C972 C 0.43874 0.33329 0.82242 0.0
C973 C 0.44967 0.32927 0.80213 0.0
C974 C 0.40806 0.29287 0.82404 0.0
C975 C 0.43968 0.30669 0.7934 0.0
C976 C 0.37678 0.25085 0.82554 0.0
C977 C 0.35628 0.25808 0.86588 0.0
N978 N 0.41943 0.28938 0.80438 0.0
N979 N 0.37564 0.27592 0.85501 0.0
H980 H 0.68943 0.22645 0.69921 0.0
H981 H 0.53783 0.34186 0.70776 0.0
H982 H 0.62231 0.2578 0.64912 0.0
H983 H 0.58985 0.30667 0.76015 0.0
H984 H 0.57018 0.31124 0.68633 0.0
H985 H 0.65433 0.25527 0.72203 0.0
C986 C 0.66716 0.23924 0.693 0.0
C987 C 0.65924 0.2398 0.67211 0.0
C988 C 0.57457 0.31012 0.70251 0.0
C989 C 0.61936 0.27301 0.69814 0.0
C990 C 0.55605 0.32769 0.71483 0.0
C991 C 0.56117 0.327 0.73587 0.0
C992 C 0.59872 0.29161 0.71116 0.0
C993 C 0.58525 0.30807 0.744 0.0
C994 C 0.6473 0.25577 0.70604 0.0
C995 C 0.63027 0.25696 0.66498 0.0
N996 N 0.60327 0.29116 0.73163 0.0
N997 N 0.61164 0.27286 0.67792 0.0
H998 H 0.8431 0.31802 0.21556 0.0
H999 H 0.95142 0.18765 0.21282 0.0
H1000 H 0.83822 0.27051 0.16346 0.0
H1001 H 0.9262 0.2269 0.26814 0.0
H1002 H 0.91529 0.21921 0.19394 0.0
H1003 H 0.879 0.28636 0.23436 0.0
C1004 C 0.84928 0.30088 0.20807 0.0
C1005 C 0.83704 0.2969 0.1879 0.0
C1006 C 0.91757 0.22092 0.2102 0.0
C1007 C 0.87901 0.26062 0.20938 0.0
C1008 C 0.93832 0.20294 0.22101 0.0
C1009 C 0.94191 0.20466 0.24211 0.0
C1010 C 0.90066 0.24097 0.2205 0.0
C1011 C 0.92404 0.22481 0.2519 0.0
C1012 C 0.86998 0.28283 0.21883 0.0
C1013 C 0.8472 0.27451 0.1789 0.0
N1014 N 0.90438 0.24225 0.241 0.0
N1015 N 0.86753 0.25722 0.18971 0.0
H1016 H 0.86226 0.77271 0.64563 0.0
H1017 H 0.964 0.80014 0.7542 0.0
H1018 H 0.86937 0.71933 0.69288 0.0
H1019 H 0.95539 0.85316 0.70686 0.0
H1020 H 0.92882 0.77035 0.73227 0.0
H1021 H 0.89655 0.80223 0.66791 0.0
C1022 C 0.87127 0.7671 0.66064 0.0
C1023 C 0.86307 0.74335 0.66727 0.0
C1024 C 0.93451 0.7885 0.72667 0.0
C1025 C 0.9019 0.7774 0.69311 0.0
C1026 C 0.95425 0.80558 0.73926 0.0
C1027 C 0.96188 0.82926 0.73247 0.0
C1028 C 0.92272 0.79509 0.70703 0.0
C1029 C 0.94991 0.83511 0.71273 0.0
C1030 C 0.89062 0.78407 0.67343 0.0
C1031 C 0.87466 0.73743 0.68712 0.0
N1032 N 0.9309 0.81815 0.70071 0.0
N1033 N 0.89353 0.75431 0.69931 0.0
H1034 H 0.65849 0.81782 0.20859 0.0
H1035 H 0.57648 0.67983 0.2098 0.0
H1036 H 0.6678 0.76999 0.15689 0.0
H1037 H 0.56614 0.7294 0.2602 0.0
H1038 H 0.61044 0.71212 0.19006 0.0
H1039 H 0.62551 0.78514 0.22768 0.0
C1040 C 0.65326 0.80047 0.20116 0.0
C1041 C 0.66554 0.79677 0.18099 0.0
C1042 C 0.60092 0.71588 0.20547 0.0
C1043 C 0.62816 0.75896 0.20299 0.0
C1044 C 0.58142 0.69751 0.21671 0.0
C1045 C 0.56907 0.7019 0.23675 0.0
C1046 C 0.60782 0.73882 0.21435 0.0
C1047 C 0.57614 0.72507 0.24498 0.0
C1048 C 0.63465 0.78173 0.21215 0.0
C1049 C 0.65897 0.77365 0.17241 0.0
N1050 N 0.59507 0.74263 0.23377 0.0
N1051 N 0.64058 0.75563 0.18344 0.0
H1052 H 0.3956 0.77389 0.38965 0.0
H1053 H 0.42133 0.72072 0.27736 0.0
H1054 H 0.31851 0.79812 0.34004 0.0
H1055 H 0.48456 0.693 0.33011 0.0
H1056 H 0.38604 0.7509 0.29893 0.0
H1057 H 0.43156 0.74606 0.36689 0.0
C1058 C 0.38603 0.77329 0.37396 0.0
C1059 C 0.35347 0.78818 0.36687 0.0
C1060 C 0.4077 0.73818 0.3057 0.0
C1061 C 0.39524 0.75634 0.34044 0.0
C1062 C 0.42782 0.72092 0.29341 0.0
C1063 C 0.45588 0.70413 0.30189 0.0
C1064 C 0.41598 0.73872 0.32655 0.0
C1065 C 0.46324 0.70544 0.32278 0.0
C1066 C 0.4068 0.75743 0.36089 0.0
C1067 C 0.34345 0.78702 0.34618 0.0
N1068 N 0.44348 0.72235 0.33431 0.0
N1069 N 0.36412 0.77127 0.33369 0.0
H1070 H 0.17744 0.71288 0.82454 0.0
H1071 H 0.06462 0.84223 0.82759 0.0
H1072 H 0.16834 0.75694 0.87853 0.0
H1073 H 0.09417 0.80389 0.77232 0.0
H1074 H 0.09848 0.8101 0.84675 0.0
H1075 H 0.14285 0.74484 0.80555 0.0
C1076 C 0.16842 0.72935 0.83241 0.0
C1077 C 0.17635 0.73229 0.85318 0.0
C1078 C 0.09764 0.80872 0.83044 0.0
C1079 C 0.13597 0.76892 0.83145 0.0
C1080 C 0.07823 0.82704 0.81946 0.0
C1081 C 0.07656 0.82576 0.79829 0.0
C1082 C 0.1153 0.78882 0.82022 0.0
C1083 C 0.0949 0.80568 0.7886 0.0
C1084 C 0.14846 0.74756 0.82154 0.0
C1085 C 0.16275 0.75378 0.8626 0.0
N1086 N 0.11339 0.78796 0.79965 0.0
N1087 N 0.14333 0.77129 0.85166 0.0
loop_
_geom_bond_atom_site_label_1
_geom_bond_atom_site_label_2
_geom_bond_distance
_geom_bond_site_symmetry_2
_ccdc_geom_bond_type
C0 C1 1.264 . S
C0 C5 1.479 . S
C0 C10 1.465 . S
C1 C0 1.264 . S
C1 C3 1.339 . S
C1 H28 0.931 . S
C2 C3 1.395 . S
C2 C4 1.320 . S
C3 C1 1.339 . S
C3 C2 1.395 . S
C3 H29 0.929 . S
C4 C2 1.320 . S
C4 C5 1.405 . S
C4 H30 0.930 . S
C5 C0 1.479 . S
C5 C4 1.405 . S
C5 H31 0.931 . S
U6 O7 2.454 . S
U6 O8 2.458 . S
U6 C9 2.984 . S
U6 C10 2.847 . S
U6 C23 2.882 . S
U6 O24 2.441 . S
U6 O25 2.420 . S
U6 O26 2.455 . S
U6 O27 2.449 . S
O7 U6 2.454 . S
O7 C9 1.353 . S
O8 U6 2.458 . S
O8 C9 1.286 . S
C9 U6 2.984 . S
C9 O7 1.353 . S
C9 O8 1.286 . S
C9 C11 1.363 . S
C10 C0 1.465 . S
C10 U6 2.847 . S
C10 O24 1.249 . S
C10 O25 1.202 . S
C11 C9 1.363 . S
C11 C13 1.408 . S
C11 C16 1.342 . S
C12 C13 1.310 . S
C12 C15 1.461 . S
C12 H32 0.932 . S
C13 C11 1.408 . S
C13 C12 1.310 . S
C13 H33 0.930 . S
C14 C15 1.474 . S
C14 C16 1.285 . S
C14 H34 0.929 . S
C15 C12 1.461 . S
C15 C14 1.474 . S
C16 C11 1.342 . S
C16 C14 1.285 . S
C16 H35 0.930 . S
C17 C20 1.424 . S
C17 C22 1.245 . S
C17 C23 1.428 . S
C18 C21 1.260 . S
C18 C22 1.477 . S
C18 H36 0.932 . S
C19 C20 1.384 . S
C19 C21 1.479 . S
C19 H37 0.929 . S
C20 C17 1.424 . S
C20 C19 1.384 . S
C20 H38 0.928 . S
C21 C18 1.260 . S
C21 C19 1.479 . S
C22 C17 1.245 . S
C22 C18 1.477 . S
C22 H39 0.932 . S
C23 U6 2.882 . S
C23 C17 1.428 . S
C23 O26 1.301 . S
C23 O27 1.282 . S
O24 U6 2.441 . S
O24 C10 1.249 . S
O25 U6 2.420 . S
O25 C10 1.202 . S
O26 U6 2.455 . S
O26 C23 1.301 . S
O27 U6 2.449 . S
O27 C23 1.282 . S
H28 C1 0.931 . S
H29 C3 0.929 . S
H30 C4 0.930 . S
H31 C5 0.931 . S
H32 C12 0.932 . S
H33 C13 0.930 . S
H34 C14 0.929 . S
H35 C16 0.930 . S
H36 C18 0.932 . S
H37 C19 0.929 . S
H38 C20 0.928 . S
H39 C22 0.932 . S
C40 C41 1.264 . S
C40 C45 1.479 . S
C40 C50 1.465 . S
C41 C40 1.264 . S
C41 C43 1.339 . S
C41 H68 0.931 . S
C42 C43 1.395 1_554 S
C42 C44 1.320 . S
C43 C41 1.339 . S
C43 C42 1.395 1_556 S
C43 H69 0.911 1_556 S
C44 C42 1.320 . S
C44 C45 1.405 1_554 S
C44 H70 0.930 . S
C45 C40 1.479 . S
C45 C44 1.405 1_556 S
C45 H71 0.931 . S
U46 O47 2.454 . S
U46 O48 2.458 . S
U46 C49 2.984 . S
U46 C50 2.847 . S
U46 C63 2.882 . S
U46 O64 2.441 . S
U46 O65 2.420 . S
U46 O66 2.455 . S
U46 O67 2.449 . S
O47 U46 2.454 . S
O47 C49 1.353 . S
O48 U46 2.458 . S
O48 C49 1.286 . S
C49 U46 2.984 . S
C49 O47 1.353 . S
C49 O48 1.286 . S
C49 C51 1.363 . S
C50 C40 1.465 . S
C50 U46 2.847 . S
C50 O64 1.249 . S
C50 O65 1.202 . S
C51 C49 1.363 . S
C51 C53 1.408 . S
C51 C56 1.342 . S
C52 C53 1.310 . S
C52 C55 1.461 . S
C52 H72 0.932 . S
C53 C51 1.408 . S
C53 C52 1.310 . S
C53 H73 0.930 . S
C54 C55 1.474 . S
C54 C56 1.285 . S
C54 H74 0.929 . S
C55 C52 1.461 . S
C55 C54 1.474 . S
C56 C51 1.342 . S
C56 C54 1.285 . S
C56 H75 0.930 . S
C57 C60 1.424 . S
C57 C62 1.245 . S
C57 C63 1.428 . S
C58 C61 1.260 . S
C58 C62 1.477 . S
C58 H76 0.932 . S
C59 C60 1.384 . S
C59 C61 1.479 . S
C59 H77 0.929 . S
C60 C57 1.424 . S
C60 C59 1.384 . S
C60 H78 0.928 . S
C61 C58 1.260 . S
C61 C59 1.479 . S
C62 C57 1.245 . S
C62 C58 1.477 . S
C62 H79 0.932 . S
C63 U46 2.882 . S
C63 C57 1.428 . S
C63 O66 1.301 . S
C63 O67 1.282 . S
O64 U46 2.441 . S
O64 C50 1.249 . S
O65 U46 2.420 . S
O65 C50 1.202 . S
O66 U46 2.455 . S
O66 C63 1.301 . S
O67 U46 2.449 . S
O67 C63 1.282 . S
H68 C41 0.931 . S
H69 C43 0.911 1_554 S
H70 C44 0.930 . S
H71 C45 0.931 . S
H72 C52 0.932 . S
H73 C53 0.930 . S
H74 C54 0.929 . S
H75 C56 0.930 . S
H76 C58 0.932 . S
H77 C59 0.929 . S
H78 C60 0.928 . S
H79 C62 0.932 . S
C80 C81 1.264 . S
C80 C85 1.479 . S
C80 C90 1.465 . S
C81 C80 1.264 . S
C81 C83 1.339 . S
C81 H108 0.931 . S
C82 C83 1.395 . S
C82 C84 1.320 . S
C83 C81 1.339 . S
C83 C82 1.395 . S
C83 H109 0.929 . S
C84 C82 1.320 . S
C84 C85 1.405 . S
C84 H110 0.930 . S
C85 C80 1.479 . S
C85 C84 1.405 . S
C85 H111 0.931 . S
U86 O87 2.454 . S
U86 O88 2.458 . S
U86 C89 2.984 . S
U86 C90 2.847 . S
U86 C103 2.882 . S
U86 O104 2.441 . S
U86 O105 2.420 . S
U86 O106 2.455 . S
U86 O107 2.449 . S
O87 U86 2.454 . S
O87 C89 1.353 . S
O88 U86 2.458 . S
O88 C89 1.286 . S
C89 U86 2.984 . S
C89 O87 1.353 . S
C89 O88 1.286 . S
C89 C91 1.363 . S
C90 C80 1.465 . S
C90 U86 2.847 . S
C90 O104 1.249 . S
C90 O105 1.202 . S
C91 C89 1.363 . S
C91 C93 1.408 . S
C91 C96 1.342 . S
C92 C93 1.310 . S
C92 C95 1.461 . S
C92 H112 0.932 . S
C93 C91 1.408 . S
C93 C92 1.310 . S
C93 H113 0.930 . S
C94 C95 1.474 . S
C94 C96 1.285 . S
C94 H114 0.929 . S
C95 C92 1.461 . S
C95 C94 1.474 . S
C96 C91 1.342 . S
C96 C94 1.285 . S
C96 H115 0.930 . S
C97 C100 1.424 . S
C97 C102 1.245 . S
C97 C103 1.428 . S
C98 C101 1.260 . S
C98 C102 1.477 . S
C98 H116 0.932 . S
C99 C100 1.384 . S
C99 C101 1.479 . S
C99 H117 0.929 . S
C100 C97 1.424 . S
C100 C99 1.384 . S
C100 H118 0.928 . S
C101 C98 1.260 . S
C101 C99 1.479 . S
C102 C97 1.245 . S
C102 C98 1.477 . S
C102 H119 0.932 . S
C103 U86 2.882 . S
C103 C97 1.428 . S
C103 O106 1.301 . S
C103 O107 1.282 . S
O104 U86 2.441 . S
O104 C90 1.249 . S
O105 U86 2.420 . S
O105 C90 1.202 . S
O106 U86 2.455 . S
O106 C103 1.301 . S
O107 U86 2.449 . S
O107 C103 1.282 . S
H108 C81 0.931 . S
H109 C83 0.929 . S
H110 C84 0.930 . S
H111 C85 0.931 . S
H112 C92 0.932 . S
H113 C93 0.930 . S
H114 C94 0.929 . S
H115 C96 0.930 . S
H116 C98 0.932 . S
H117 C99 0.929 . S
H118 C100 0.928 . S
H119 C102 0.932 . S
C120 C121 1.264 . S
C120 C125 1.479 . S
C120 C130 1.465 . S
C121 C120 1.264 . S
C121 C123 1.339 . S
C121 H148 0.931 . S
C122 C123 1.395 1_556 S
C122 C124 1.320 1_556 S
C123 C121 1.339 . S
C123 C122 1.395 1_554 S
C123 H149 0.929 . S
C124 C122 1.320 1_554 S
C124 C125 1.405 . S
C124 H150 0.930 1_554 S
C125 C120 1.479 . S
C125 C124 1.405 . S
C125 H151 0.931 . S
U126 O127 2.454 . S
U126 O128 2.458 . S
U126 C129 2.984 . S
U126 C130 2.847 . S
U126 C143 2.882 . S
U126 O144 2.441 . S
U126 O145 2.420 . S
U126 O146 2.455 . S
U126 O147 2.449 . S
O127 U126 2.454 . S
O127 C129 1.353 . S
O128 U126 2.458 . S
O128 C129 1.286 . S
C129 U126 2.984 . S
C129 O127 1.353 . S
C129 O128 1.286 . S
C129 C131 1.363 . S
C130 C120 1.465 . S
C130 U126 2.847 . S
C130 O144 1.249 . S
C130 O145 1.202 . S
C131 C129 1.363 . S
C131 C133 1.408 . S
C131 C136 1.342 . S
C132 C133 1.310 . S
C132 C135 1.461 . S
C132 H152 0.932 . S
C133 C131 1.408 . S
C133 C132 1.310 . S
C133 H153 0.930 . S
C134 C135 1.474 . S
C134 C136 1.285 . S
C134 H154 0.929 . S
C135 C132 1.461 . S
C135 C134 1.474 . S
C136 C131 1.342 . S
C136 C134 1.285 . S
C136 H155 0.930 . S
C137 C140 1.424 . S
C137 C142 1.245 . S
C137 C143 1.428 . S
C138 C141 1.260 . S
C138 C142 1.477 . S
C138 H156 0.932 . S
C139 C140 1.384 . S
C139 C141 1.479 . S
C139 H157 0.929 . S
C140 C137 1.424 . S
C140 C139 1.384 . S
C140 H158 0.928 . S
C141 C138 1.260 . S
C141 C139 1.479 . S
C142 C137 1.245 . S
C142 C138 1.477 . S
C142 H159 0.932 . S
C143 U126 2.882 . S
C143 C137 1.428 . S
C143 O146 1.301 . S
C143 O147 1.282 . S
O144 U126 2.441 . S
O144 C130 1.249 . S
O145 U126 2.420 . S
O145 C130 1.202 . S
O146 U126 2.455 . S
O146 C143 1.301 . S
O147 U126 2.449 . S
O147 C143 1.282 . S
H148 C121 0.931 . S
H149 C123 0.929 . S
H150 C124 0.930 1_556 S
H151 C125 0.931 . S
H152 C132 0.932 . S
H153 C133 0.930 . S
H154 C134 0.929 . S
H155 C136 0.930 . S
H156 C138 0.932 . S
H157 C139 0.929 . S
H158 C140 0.928 . S
H159 C142 0.932 . S
C160 C161 1.264 . S
C160 C165 1.479 . S
C160 C170 1.465 . S
C161 C160 1.264 . S
C161 C163 1.339 . S
C161 H188 0.931 . S
C162 C163 1.395 . S
C162 C164 1.320 . S
C163 C161 1.339 . S
C163 C162 1.395 . S
C163 H189 0.929 . S
C164 C162 1.320 . S
C164 C165 1.405 . S
C164 H190 0.930 . S
C165 C160 1.479 . S
C165 C164 1.405 . S
C165 H191 0.931 . S
U166 O167 2.454 . S
U166 O168 2.458 . S
U166 C169 2.984 . S
U166 C170 2.847 . S
U166 C183 2.882 . S
U166 O184 2.441 . S
U166 O185 2.420 . S
U166 O186 2.455 . S
U166 O187 2.449 . S
O167 U166 2.454 . S
O167 C169 1.353 . S
O168 U166 2.458 . S
O168 C169 1.286 . S
C169 U166 2.984 . S
C169 O167 1.353 . S
C169 O168 1.286 . S
C169 C171 1.363 . S
C170 C160 1.465 . S
C170 U166 2.847 . S
C170 O184 1.249 . S
C170 O185 1.202 . S
C171 C169 1.363 . S
C171 C173 1.408 . S
C171 C176 1.342 . S
C172 C173 1.310 . S
C172 C175 1.461 . S
C172 H192 0.932 . S
C173 C171 1.408 . S
C173 C172 1.310 . S
C173 H193 0.930 . S
C174 C175 1.474 . S
C174 C176 1.285 . S
C174 H194 0.929 . S
C175 C172 1.461 . S
C175 C174 1.474 . S
C176 C171 1.342 . S
C176 C174 1.285 . S
C176 H195 0.930 . S
C177 C180 1.424 . S
C177 C182 1.245 . S
C177 C183 1.428 . S
C178 C181 1.260 . S
C178 C182 1.477 . S
C178 H196 0.932 . S
C179 C180 1.384 . S
C179 C181 1.479 . S
C179 H197 0.929 . S
C180 C177 1.424 . S
C180 C179 1.384 . S
C180 H198 0.928 . S
C181 C178 1.260 . S
C181 C179 1.479 . S
C182 C177 1.245 . S
C182 C178 1.477 . S
C182 H199 0.932 . S
C183 U166 2.882 . S
C183 C177 1.428 . S
C183 O186 1.301 . S
C183 O187 1.282 . S
O184 U166 2.441 . S
O184 C170 1.249 . S
O185 U166 2.420 . S
O185 C170 1.202 . S
O186 U166 2.455 . S
O186 C183 1.301 . S
O187 U166 2.449 . S
O187 C183 1.282 . S
H188 C161 0.931 . S
H189 C163 0.929 . S
H190 C164 0.930 . S
H191 C165 0.931 . S
H192 C172 0.932 . S
H193 C173 0.930 . S
H194 C174 0.929 . S
H195 C176 0.930 . S
H196 C178 0.932 . S
H197 C179 0.929 . S
H198 C180 0.928 . S
H199 C182 0.932 . S
C200 C201 1.264 . S
C200 C205 1.479 . S
C200 C210 1.465 . S
C201 C200 1.264 . S
C201 C203 1.339 . S
C201 H228 0.931 . S
C202 C203 1.395 1_556 S
C202 C204 1.320 . S
C203 C201 1.339 . S
C203 C202 1.395 1_554 S
C203 H229 0.929 1_554 S
C204 C202 1.320 . S
C204 C205 1.405 1_556 S
C204 H230 0.930 . S
C205 C200 1.479 . S
C205 C204 1.405 1_554 S
C205 H231 0.931 . S
U206 O207 2.454 . S
U206 O208 2.458 . S
U206 C209 2.984 . S
U206 C210 2.847 . S
U206 C223 2.882 . S
U206 O224 2.441 . S
U206 O225 2.420 . S
U206 O226 2.455 . S
U206 O227 2.449 . S
O207 U206 2.454 . S
O207 C209 1.353 . S
O208 U206 2.458 . S
O208 C209 1.286 . S
C209 U206 2.984 . S
C209 O207 1.353 . S
C209 O208 1.286 . S
C209 C211 1.363 . S
C210 C200 1.465 . S
C210 U206 2.847 . S
C210 O224 1.249 . S
C210 O225 1.202 . S
C211 C209 1.363 . S
C211 C213 1.408 . S
C211 C216 1.342 . S
C212 C213 1.310 . S
C212 C215 1.461 . S
C212 H232 0.932 . S
C213 C211 1.408 . S
C213 C212 1.310 . S
C213 H233 0.930 . S
C214 C215 1.474 . S
C214 C216 1.285 . S
C214 H234 0.929 . S
C215 C212 1.461 . S
C215 C214 1.474 . S
C216 C211 1.342 . S
C216 C214 1.285 . S
C216 H235 0.930 . S
C217 C220 1.424 . S
C217 C222 1.245 . S
C217 C223 1.428 . S
C218 C221 1.260 . S
C218 C222 1.477 . S
C218 H236 0.932 . S
C219 C220 1.384 . S
C219 C221 1.479 . S
C219 H237 0.929 . S
C220 C217 1.424 . S
C220 C219 1.384 . S
C220 H238 0.928 . S
C221 C218 1.260 . S
C221 C219 1.479 . S
C222 C217 1.245 . S
C222 C218 1.477 . S
C222 H239 0.932 . S
C223 U206 2.882 . S
C223 C217 1.428 . S
C223 O226 1.301 . S
C223 O227 1.282 . S
O224 U206 2.441 . S
O224 C210 1.249 . S
O225 U206 2.420 . S
O225 C210 1.202 . S
O226 U206 2.455 . S
O226 C223 1.301 . S
O227 U206 2.449 . S
O227 C223 1.282 . S
H228 C201 0.931 . S
H229 C203 0.929 1_556 S
H230 C204 0.930 . S
H231 C205 0.931 . S
H232 C212 0.932 . S
H233 C213 0.930 . S
H234 C214 0.929 . S
H235 C216 0.930 . S
H236 C218 0.932 . S
H237 C219 0.929 . S
H238 C220 0.928 . S
H239 C222 0.932 . S
C240 C241 1.264 . S
C240 C245 1.479 . S
C240 C250 1.465 . S
C241 C240 1.264 . S
C241 C243 1.339 . S
C241 H268 0.931 . S
C242 C243 1.395 . S
C242 C244 1.320 . S
C243 C241 1.339 . S
C243 C242 1.395 . S
C243 H269 0.929 . S
C244 C242 1.320 . S
C244 C245 1.405 . S
C244 H270 0.930 . S
C245 C240 1.479 . S
C245 C244 1.405 . S
C245 H271 0.931 . S
U246 O247 2.454 . S
U246 O248 2.458 . S
U246 C249 2.984 . S
U246 C250 2.847 . S
U246 C263 2.882 . S
U246 O264 2.441 . S
U246 O265 2.420 . S
U246 O266 2.455 . S
U246 O267 2.449 . S
O247 U246 2.454 . S
O247 C249 1.353 . S
O248 U246 2.458 . S
O248 C249 1.286 . S
C249 U246 2.984 . S
C249 O247 1.353 . S
C249 O248 1.286 . S
C249 C251 1.363 . S
C250 C240 1.465 . S
C250 U246 2.847 . S
C250 O264 1.249 . S
C250 O265 1.202 . S
C251 C249 1.363 . S
C251 C253 1.408 . S
C251 C256 1.342 . S
C252 C253 1.310 . S
C252 C255 1.461 . S
C252 H272 0.932 . S
C253 C251 1.408 . S
C253 C252 1.310 . S
C253 H273 0.930 . S
C254 C255 1.474 . S
C254 C256 1.285 . S
C254 H274 0.929 . S
C255 C252 1.461 . S
C255 C254 1.474 . S
C256 C251 1.342 . S
C256 C254 1.285 . S
C256 H275 0.930 . S
C257 C260 1.424 . S
C257 C262 1.245 . S
C257 C263 1.428 . S
C258 C261 1.260 . S
C258 C262 1.477 . S
C258 H276 0.932 . S
C259 C260 1.384 . S
C259 C261 1.479 . S
C259 H277 0.929 . S
C260 C257 1.424 . S
C260 C259 1.384 . S
C260 H278 0.928 . S
C261 C258 1.260 . S
C261 C259 1.479 . S
C262 C257 1.245 . S
C262 C258 1.477 . S
C262 H279 0.932 . S
C263 U246 2.882 . S
C263 C257 1.428 . S
C263 O266 1.301 . S
C263 O267 1.282 . S
O264 U246 2.441 . S
O264 C250 1.249 . S
O265 U246 2.420 . S
O265 C250 1.202 . S
O266 U246 2.455 . S
O266 C263 1.301 . S
O267 U246 2.449 . S
O267 C263 1.282 . S
H268 C241 0.931 . S
H269 C243 0.929 . S
H270 C244 0.930 . S
H271 C245 0.931 . S
H272 C252 0.932 . S
H273 C253 0.930 . S
H274 C254 0.929 . S
H275 C256 0.930 . S
H276 C258 0.932 . S
H277 C259 0.929 . S
H278 C260 0.928 . S
H279 C262 0.932 . S
C280 C281 1.264 . S
C280 C285 1.479 . S
C280 C290 1.465 . S
C281 C280 1.264 . S
C281 C283 1.339 . S
C281 H308 0.931 . S
C282 C283 1.395 1_554 S
C282 C284 1.307 1_554 S
C283 C281 1.339 . S
C283 C282 1.395 1_556 S
C283 H309 0.929 1_556 S
C284 C282 1.307 1_556 S
C284 C285 1.437 . S
C284 H310 0.912 1_556 S
C285 C280 1.479 . S
C285 C284 1.437 . S
C285 H311 0.931 . S
U286 O287 2.454 . S
U286 O288 2.458 . S
U286 C289 2.984 . S
U286 C290 2.847 . S
U286 C303 2.882 . S
U286 O304 2.441 . S
U286 O305 2.420 . S
U286 O306 2.455 . S
U286 O307 2.449 . S
O287 U286 2.454 . S
O287 C289 1.353 . S
O288 U286 2.458 . S
O288 C289 1.286 . S
C289 U286 2.984 . S
C289 O287 1.353 . S
C289 O288 1.286 . S
C289 C291 1.363 . S
C290 C280 1.465 . S
C290 U286 2.847 . S
C290 O304 1.249 . S
C290 O305 1.202 . S
C291 C289 1.363 . S
C291 C293 1.408 . S
C291 C296 1.342 . S
C292 C293 1.310 . S
C292 C295 1.461 . S
C292 H312 0.932 . S
C293 C291 1.408 . S
C293 C292 1.310 . S
C293 H313 0.930 . S
C294 C295 1.474 . S
C294 C296 1.285 . S
C294 H314 0.929 . S
C295 C292 1.461 . S
C295 C294 1.474 . S
C296 C291 1.342 . S
C296 C294 1.285 . S
C296 H315 0.930 . S
C297 C300 1.424 . S
C297 C302 1.245 . S
C297 C303 1.428 . S
C298 C301 1.260 . S
C298 C302 1.477 . S
C298 H316 0.932 . S
C299 C300 1.384 . S
C299 C301 1.479 . S
C299 H317 0.929 . S
C300 C297 1.424 . S
C300 C299 1.384 . S
C300 H318 0.928 . S
C301 C298 1.260 . S
C301 C299 1.479 . S
C302 C297 1.245 . S
C302 C298 1.477 . S
C302 H319 0.932 . S
C303 U286 2.882 . S
C303 C297 1.428 . S
C303 O306 1.301 . S
C303 O307 1.282 . S
O304 U286 2.441 . S
O304 C290 1.249 . S
O305 U286 2.420 . S
O305 C290 1.202 . S
O306 U286 2.455 . S
O306 C303 1.301 . S
O307 U286 2.449 . S
O307 C303 1.282 . S
H308 C281 0.931 . S
H309 C283 0.929 1_554 S
H310 C284 0.912 1_554 S
H311 C285 0.931 . S
H312 C292 0.932 . S
H313 C293 0.930 . S
H314 C294 0.929 . S
H315 C296 0.930 . S
H316 C298 0.932 . S
H317 C299 0.929 . S
H318 C300 0.928 . S
H319 C302 0.932 . S
Tb320 N349 2.617 . S
Tb320 N355 2.572 . S
Tb320 O364 2.465 . S
Tb320 O365 2.387 . S
Tb320 O367 2.428 . S
Tb320 O368 2.324 . S
Tb320 O372 2.349 . S
Tb320 O375 2.393 . S
Tb320 C384 2.802 . S
C321 N322 1.379 . S
C321 C324 1.416 . S
C321 C328 1.424 . S
N322 C321 1.379 . S
N322 C325 1.334 . S
N322 Tb331 2.617 . S
C323 C325 1.390 . S
C323 C326 1.339 . S
C323 H343 0.930 . S
C324 C321 1.416 . S
C324 C326 1.416 . S
C324 C330 1.448 . S
C325 N322 1.334 . S
C325 C323 1.390 . S
C325 H336 0.930 . S
C326 C323 1.339 . S
C326 C324 1.416 . S
C326 H347 0.930 . S
C327 C328 1.413 . S
C327 C329 1.427 . S
C327 C333 1.416 . S
C328 C321 1.424 . S
C328 C327 1.413 . S
C328 N332 1.361 . S
C329 C327 1.427 . S
C329 C330 1.328 . S
C329 H344 0.929 . S
C330 C324 1.448 . S
C330 C329 1.328 . S
C330 H345 0.930 . S
Tb331 N322 2.617 . S
Tb331 N332 2.572 . S
Tb331 O366 2.340 1_655 S
Tb331 O369 2.393 . S
Tb331 O370 2.465 . S
Tb331 O371 2.387 . S
Tb331 O373 2.428 . S
Tb331 O374 2.308 1_655 S
Tb331 C395 2.802 . S
N332 C328 1.361 . S
N332 Tb331 2.572 . S
N332 C334 1.340 . S
C333 C327 1.416 . S
C333 C335 1.332 . S
C333 H341 0.931 . S
C334 N332 1.340 . S
C334 C335 1.407 . S
C334 H340 0.930 . S
C335 C333 1.332 . S
C335 C334 1.407 . S
C335 H337 0.929 . S
H336 C325 0.930 . S
H337 C335 0.929 . S
H338 C353 0.930 . S
H339 C360 0.929 . S
H340 C334 0.930 . S
H341 C333 0.931 . S
H342 C356 0.930 . S
H343 C323 0.930 . S
H344 C329 0.929 . S
H345 C330 0.930 . S
H346 C351 0.930 . S
H347 C326 0.930 . S
H348 C359 0.931 . S
N349 Tb320 2.617 . S
N349 C350 1.379 . S
N349 C353 1.334 . S
C350 N349 1.379 . S
C350 C352 1.416 . S
C350 C358 1.424 . S
C351 H346 0.930 . S
C351 C353 1.390 . S
C351 C354 1.339 . S
C352 C350 1.416 . S
C352 C354 1.416 . S
C352 C385 1.448 . S
C353 H338 0.930 . S
C353 N349 1.334 . S
C353 C351 1.390 . S
C354 C351 1.339 . S
C354 C352 1.416 . S
C354 H361 0.930 . S
N355 Tb320 2.572 . S
N355 C356 1.340 . S
N355 C358 1.361 . S
C356 H342 0.930 . S
C356 N355 1.340 . S
C356 C360 1.407 . S
C357 C358 1.413 . S
C357 C359 1.416 . S
C357 C386 1.427 . S
C358 C350 1.424 . S
C358 N355 1.361 . S
C358 C357 1.413 . S
C359 H348 0.931 . S
C359 C357 1.416 . S
C359 C360 1.332 . S
C360 H339 0.929 . S
C360 C356 1.407 . S
C360 C359 1.332 . S
H361 C354 0.930 . S
H362 C385 0.930 . S
H363 C386 0.929 . S
O364 Tb320 2.465 . S
O364 C384 1.264 . S
O365 Tb320 2.387 . S
O365 C376 1.264 . S
O366 Tb331 2.340 1_455 S
O366 C376 1.255 . S
O367 Tb320 2.428 . S
O367 C384 1.256 . S
O368 Tb320 2.324 . S
O368 C383 1.247 1_455 S
O369 Tb331 2.393 . S
O369 C383 1.248 . S
O370 Tb331 2.465 . S
O370 C395 1.264 . S
O371 Tb331 2.387 . S
O371 C387 1.264 . S
O372 Tb320 2.349 . S
O372 C387 1.243 1_455 S
O373 Tb331 2.428 . S
O373 C395 1.256 . S
O374 Tb331 2.308 1_455 S
O374 C394 1.266 . S
O375 Tb320 2.393 . S
O375 C394 1.248 . S
C376 O365 1.264 . S
C376 O366 1.255 . S
C377 C380 1.399 . S
C377 C382 1.383 . S
C377 C384 1.496 . S
C378 C379 1.399 . S
C378 C382 1.389 . S
C379 C378 1.399 . S
C379 C381 1.380 . S
C379 H396 0.929 . S
C380 C377 1.399 . S
C380 C381 1.392 . S
C380 H397 0.929 . S
C381 C379 1.380 . S
C381 C380 1.392 . S
C381 H398 0.929 . S
C382 C377 1.383 . S
C382 C378 1.389 . S
C382 H399 0.931 . S
C383 O368 1.247 1_655 S
C383 O369 1.248 . S
C384 Tb320 2.802 . S
C384 O364 1.264 . S
C384 O367 1.256 . S
C384 C377 1.496 . S
C385 C352 1.448 . S
C385 H362 0.930 . S
C385 C386 1.328 . S
C386 C357 1.427 . S
C386 H363 0.929 . S
C386 C385 1.328 . S
C387 O371 1.264 . S
C387 O372 1.243 1_655 S
C388 C391 1.399 . S
C388 C392 1.383 . S
C388 C395 1.496 . S
C389 C390 1.399 . S
C389 C392 1.389 . S
C390 C389 1.399 . S
C390 C393 1.380 . S
C390 H400 0.929 . S
C391 C388 1.399 . S
C391 C393 1.392 . S
C391 H401 0.929 . S
C392 C388 1.383 . S
C392 C389 1.389 . S
C392 H402 0.931 . S
C393 C390 1.380 . S
C393 C391 1.392 . S
C393 H403 0.929 . S
C394 O374 1.266 . S
C394 O375 1.248 . S
C395 Tb331 2.802 . S
C395 O370 1.264 . S
C395 O373 1.256 . S
C395 C388 1.496 . S
H396 C379 0.929 . S
H397 C380 0.929 . S
H398 C381 0.929 . S
H399 C382 0.931 . S
H400 C390 0.929 . S
H401 C391 0.929 . S
H402 C392 0.931 . S
H403 C393 0.929 . S
Tb404 N433 2.617 . S
Tb404 N439 2.572 . S
Tb404 O448 2.465 . S
Tb404 O449 2.387 . S
Tb404 O451 2.428 . S
Tb404 O452 2.308 . S
Tb404 O456 2.349 . S
Tb404 O459 2.393 . S
Tb404 C468 2.802 . S
C405 N406 1.379 . S
C405 C408 1.416 . S
C405 C412 1.424 . S
N406 C405 1.379 . S
N406 C409 1.334 . S
N406 Tb415 2.617 . S
C407 C409 1.390 . S
C407 C410 1.339 . S
C407 H427 0.930 . S
C408 C405 1.416 . S
C408 C410 1.416 . S
C408 C414 1.448 . S
C409 N406 1.334 . S
C409 C407 1.390 . S
C409 H420 0.930 . S
C410 C407 1.339 . S
C410 C408 1.416 . S
C410 H431 0.930 . S
C411 C412 1.413 . S
C411 C413 1.427 . S
C411 C417 1.416 . S
C412 C405 1.424 . S
C412 C411 1.413 . S
C412 N416 1.361 . S
C413 C411 1.427 . S
C413 C414 1.328 . S
C413 H428 0.929 . S
C414 C408 1.448 . S
C414 C413 1.328 . S
C414 H429 0.930 . S
Tb415 N406 2.617 . S
Tb415 N416 2.572 . S
Tb415 O450 2.349 . S
Tb415 O453 2.393 . S
Tb415 O454 2.465 . S
Tb415 O455 2.387 . S
Tb415 O457 2.428 . S
Tb415 O458 2.308 . S
Tb415 C479 2.802 . S
N416 C412 1.361 . S
N416 Tb415 2.572 . S
N416 C418 1.340 . S
C417 C411 1.416 . S
C417 C419 1.332 . S
C417 H425 0.931 . S
C418 N416 1.340 . S
C418 C419 1.407 . S
C418 H424 0.930 . S
C419 C417 1.332 . S
C419 C418 1.407 . S
C419 H421 0.929 . S
H420 C409 0.930 . S
H421 C419 0.929 . S
H422 C437 0.930 . S
H423 C444 0.929 . S
H424 C418 0.930 . S
H425 C417 0.931 . S
H426 C440 0.930 . S
H427 C407 0.930 . S
H428 C413 0.929 . S
H429 C414 0.930 . S
H430 C435 0.930 . S
H431 C410 0.930 . S
H432 C443 0.931 . S
N433 Tb404 2.617 . S
N433 C434 1.379 . S
N433 C437 1.334 . S
C434 N433 1.379 . S
C434 C436 1.416 . S
C434 C442 1.424 . S
C435 H430 0.930 . S
C435 C437 1.390 . S
C435 C438 1.339 . S
C436 C434 1.416 . S
C436 C438 1.416 . S
C436 C469 1.448 . S
C437 H422 0.930 . S
C437 N433 1.334 . S
C437 C435 1.390 . S
C438 C435 1.339 . S
C438 C436 1.416 . S
C438 H445 0.930 . S
N439 Tb404 2.572 . S
N439 C440 1.340 . S
N439 C442 1.361 . S
C440 H426 0.930 . S
C440 N439 1.340 . S
C440 C444 1.407 . S
C441 C442 1.413 . S
C441 C443 1.416 . S
C441 C470 1.427 . S
C442 C434 1.424 . S
C442 N439 1.361 . S
C442 C441 1.413 . S
C443 H432 0.931 . S
C443 C441 1.416 . S
C443 C444 1.332 . S
C444 H423 0.929 . S
C444 C440 1.407 . S
C444 C443 1.332 . S
H445 C438 0.930 . S
H446 C469 0.930 . S
H447 C470 0.929 . S
O448 Tb404 2.465 . S
O448 C468 1.264 . S
O449 Tb404 2.387 . S
O449 C460 1.264 . S
O450 Tb415 2.349 . S
O450 C460 1.243 . S
O451 Tb404 2.428 . S
O451 C468 1.256 . S
O452 Tb404 2.308 . S
O452 C467 1.266 . S
O453 Tb415 2.393 . S
O453 C467 1.248 . S
O454 Tb415 2.465 . S
O454 C479 1.264 . S
O455 Tb415 2.387 . S
O455 C471 1.264 . S
O456 Tb404 2.349 . S
O456 C471 1.243 . S
O457 Tb415 2.428 . S
O457 C479 1.256 . S
O458 Tb415 2.308 . S
O458 C478 1.266 . S
O459 Tb404 2.393 . S
O459 C478 1.248 . S
C460 O449 1.264 . S
C460 O450 1.243 . S
C461 C464 1.399 . S
C461 C466 1.383 . S
C461 C468 1.496 . S
C462 C463 1.399 . S
C462 C466 1.389 . S
C463 C462 1.399 . S
C463 C465 1.380 . S
C463 H480 0.929 . S
C464 C461 1.399 . S
C464 C465 1.392 . S
C464 H481 0.929 . S
C465 C463 1.380 . S
C465 C464 1.392 . S
C465 H482 0.929 . S
C466 C461 1.383 . S
C466 C462 1.389 . S
C466 H483 0.931 . S
C467 O452 1.266 . S
C467 O453 1.248 . S
C468 Tb404 2.802 . S
C468 O448 1.264 . S
C468 O451 1.256 . S
C468 C461 1.496 . S
C469 C436 1.448 . S
C469 H446 0.930 . S
C469 C470 1.328 . S
C470 C441 1.427 . S
C470 H447 0.929 . S
C470 C469 1.328 . S
C471 O455 1.264 . S
C471 O456 1.243 . S
C472 C475 1.399 . S
C472 C476 1.383 . S
C472 C479 1.496 . S
C473 C474 1.399 . S
C473 C476 1.389 . S
C474 C473 1.399 . S
C474 C477 1.380 . S
C474 H484 0.929 . S
C475 C472 1.399 . S
C475 C477 1.392 . S
C475 H485 0.929 . S
C476 C472 1.383 . S
C476 C473 1.389 . S
C476 H486 0.931 . S
C477 C474 1.380 . S
C477 C475 1.392 . S
C477 H487 0.929 . S
C478 O458 1.266 . S
C478 O459 1.248 . S
C479 Tb415 2.802 . S
C479 O454 1.264 . S
C479 O457 1.256 . S
C479 C472 1.496 . S
H480 C463 0.929 . S
H481 C464 0.929 . S
H482 C465 0.929 . S
H483 C466 0.931 . S
H484 C474 0.929 . S
H485 C475 0.929 . S
H486 C476 0.931 . S
H487 C477 0.929 . S
Tb488 N517 2.617 . S
Tb488 N523 2.572 . S
Tb488 O532 2.465 . S
Tb488 O533 2.387 . S
Tb488 O535 2.428 . S
Tb488 O536 2.308 . S
Tb488 O540 2.349 . S
Tb488 O543 2.393 . S
Tb488 C552 2.802 . S
C489 N490 1.379 . S
C489 C492 1.416 . S
C489 C496 1.424 . S
N490 C489 1.379 . S
N490 C493 1.334 . S
N490 Tb499 2.617 . S
C491 C493 1.390 . S
C491 C494 1.339 . S
C491 H511 0.930 . S
C492 C489 1.416 . S
C492 C494 1.416 . S
C492 C498 1.448 . S
C493 N490 1.334 . S
C493 C491 1.390 . S
C493 H504 0.930 . S
C494 C491 1.339 . S
C494 C492 1.416 . S
C494 H515 0.930 . S
C495 C496 1.413 . S
C495 C497 1.427 . S
C495 C501 1.416 . S
C496 C489 1.424 . S
C496 C495 1.413 . S
C496 N500 1.361 . S
C497 C495 1.427 . S
C497 C498 1.328 . S
C497 H512 0.929 . S
C498 C492 1.448 . S
C498 C497 1.328 . S
C498 H513 0.930 . S
Tb499 N490 2.617 . S
Tb499 N500 2.572 . S
Tb499 O534 2.349 1_655 S
Tb499 O537 2.393 . S
Tb499 O538 2.465 . S
Tb499 O539 2.387 . S
Tb499 O541 2.428 . S
Tb499 O542 2.308 1_655 S
Tb499 C563 2.802 . S
N500 C496 1.361 . S
N500 Tb499 2.572 . S
N500 C502 1.340 . S
C501 C495 1.416 . S
C501 C503 1.332 . S
C501 H509 0.931 . S
C502 N500 1.340 . S
C502 C503 1.407 . S
C502 H508 0.930 . S
C503 C501 1.332 . S
C503 C502 1.407 . S
C503 H505 0.929 . S
H504 C493 0.930 . S
H505 C503 0.929 . S
H506 C521 0.930 . S
H507 C528 0.929 . S
H508 C502 0.930 . S
H509 C501 0.931 . S
H510 C524 0.930 . S
H511 C491 0.930 . S
H512 C497 0.929 . S
H513 C498 0.930 . S
H514 C519 0.930 . S
H515 C494 0.930 . S
H516 C527 0.931 . S
N517 Tb488 2.617 . S
N517 C518 1.379 . S
N517 C521 1.334 . S
C518 N517 1.379 . S
C518 C520 1.416 . S
C518 C526 1.424 . S
C519 H514 0.930 . S
C519 C521 1.390 . S
C519 C522 1.339 . S
C520 C518 1.416 . S
C520 C522 1.416 . S
C520 C553 1.448 . S
C521 H506 0.930 . S
C521 N517 1.334 . S
C521 C519 1.390 . S
C522 C519 1.339 . S
C522 C520 1.416 . S
C522 H529 0.930 . S
N523 Tb488 2.572 . S
N523 C524 1.340 . S
N523 C526 1.361 . S
C524 H510 0.930 . S
C524 N523 1.340 . S
C524 C528 1.407 . S
C525 C526 1.413 . S
C525 C527 1.416 . S
C525 C554 1.427 . S
C526 C518 1.424 . S
C526 N523 1.361 . S
C526 C525 1.413 . S
C527 H516 0.931 . S
C527 C525 1.416 . S
C527 C528 1.332 . S
C528 H507 0.929 . S
C528 C524 1.407 . S
C528 C527 1.332 . S
H529 C522 0.930 . S
H530 C553 0.930 . S
H531 C554 0.929 . S
O532 Tb488 2.465 . S
O532 C552 1.264 . S
O533 Tb488 2.387 . S
O533 C544 1.264 . S
O534 Tb499 2.349 1_455 S
O534 C544 1.243 . S
O535 Tb488 2.428 . S
O535 C552 1.256 . S
O536 Tb488 2.308 . S
O536 C551 1.266 1_455 S
O537 Tb499 2.393 . S
O537 C551 1.248 . S
O538 Tb499 2.465 . S
O538 C563 1.264 . S
O539 Tb499 2.387 . S
O539 C555 1.264 . S
O540 Tb488 2.349 . S
O540 C555 1.243 1_455 S
O541 Tb499 2.428 . S
O541 C563 1.256 . S
O542 Tb499 2.308 1_455 S
O542 C562 1.266 . S
O543 Tb488 2.393 . S
O543 C562 1.248 . S
C544 O533 1.264 . S
C544 O534 1.243 . S
C545 C548 1.399 . S
C545 C550 1.383 . S
C545 C552 1.496 . S
C546 C547 1.399 . S
C546 C550 1.389 . S
C547 C546 1.399 . S
C547 C549 1.380 . S
C547 H564 0.929 . S
C548 C545 1.399 . S
C548 C549 1.392 . S
C548 H565 0.929 . S
C549 C547 1.380 . S
C549 C548 1.392 . S
C549 H566 0.929 . S
C550 C545 1.383 . S
C550 C546 1.389 . S
C550 H567 0.931 . S
C551 O536 1.266 1_655 S
C551 O537 1.248 . S
C552 Tb488 2.802 . S
C552 O532 1.264 . S
C552 O535 1.256 . S
C552 C545 1.496 . S
C553 C520 1.448 . S
C553 H530 0.930 . S
C553 C554 1.328 . S
C554 C525 1.427 . S
C554 H531 0.929 . S
C554 C553 1.328 . S
C555 O539 1.264 . S
C555 O540 1.243 1_655 S
C556 C559 1.399 . S
C556 C560 1.383 . S
C556 C563 1.496 . S
C557 C558 1.399 . S
C557 C560 1.389 . S
C558 C557 1.399 . S
C558 C561 1.380 . S
C558 H568 0.929 . S
C559 C556 1.399 . S
C559 C561 1.392 . S
C559 H569 0.929 . S
C560 C556 1.383 . S
C560 C557 1.389 . S
C560 H570 0.931 . S
C561 C558 1.380 . S
C561 C559 1.392 . S
C561 H571 0.929 . S
C562 O542 1.266 . S
C562 O543 1.248 . S
C563 Tb499 2.802 . S
C563 O538 1.264 . S
C563 O541 1.256 . S
C563 C556 1.496 . S
H564 C547 0.929 . S
H565 C548 0.929 . S
H566 C549 0.929 . S
H567 C550 0.931 . S
H568 C558 0.929 . S
H569 C559 0.929 . S
H570 C560 0.931 . S
H571 C561 0.929 . S
Tb572 N601 2.617 . S
Tb572 N607 2.572 . S
Tb572 O616 2.465 . S
Tb572 O617 2.387 . S
Tb572 O619 2.428 . S
Tb572 O620 2.308 . S
Tb572 O624 2.349 . S
Tb572 O627 2.393 . S
Tb572 C636 2.802 . S
C573 N574 1.379 . S
C573 C576 1.416 . S
C573 C580 1.424 . S
N574 C573 1.379 . S
N574 C577 1.334 . S
N574 Tb583 2.617 . S
C575 C577 1.390 . S
C575 C578 1.339 . S
C575 H595 0.930 . S
C576 C573 1.416 . S
C576 C578 1.416 . S
C576 C582 1.448 . S
C577 N574 1.334 . S
C577 C575 1.390 . S
C577 H588 0.930 . S
C578 C575 1.339 . S
C578 C576 1.416 . S
C578 H599 0.930 . S
C579 C580 1.413 . S
C579 C581 1.427 . S
C579 C585 1.416 . S
C580 C573 1.424 . S
C580 C579 1.413 . S
C580 N584 1.361 . S
C581 C579 1.427 . S
C581 C582 1.328 . S
C581 H596 0.929 . S
C582 C576 1.448 . S
C582 C581 1.328 . S
C582 H597 0.930 . S
Tb583 N574 2.617 . S
Tb583 N584 2.572 . S
Tb583 O618 2.349 . S
Tb583 O621 2.393 . S
Tb583 O622 2.465 . S
Tb583 O623 2.387 . S
Tb583 O625 2.428 . S
Tb583 O626 2.308 . S
Tb583 C647 2.802 . S
N584 C580 1.361 . S
N584 Tb583 2.572 . S
N584 C586 1.340 . S
C585 C579 1.416 . S
C585 C587 1.332 . S
C585 H593 0.931 . S
C586 N584 1.340 . S
C586 C587 1.407 . S
C586 H592 0.930 . S
C587 C585 1.332 . S
C587 C586 1.407 . S
C587 H589 0.929 . S
H588 C577 0.930 . S
H589 C587 0.929 . S
H590 C605 0.930 . S
H591 C612 0.929 . S
H592 C586 0.930 . S
H593 C585 0.931 . S
H594 C608 0.930 . S
H595 C575 0.930 . S
H596 C581 0.929 . S
H597 C582 0.930 . S
H598 C603 0.930 . S
H599 C578 0.930 . S
H600 C611 0.931 . S
N601 Tb572 2.617 . S
N601 C602 1.379 . S
N601 C605 1.334 . S
C602 N601 1.379 . S
C602 C604 1.416 . S
C602 C610 1.424 . S
C603 H598 0.930 . S
C603 C605 1.390 . S
C603 C606 1.339 . S
C604 C602 1.416 . S
C604 C606 1.416 . S
C604 C637 1.448 . S
C605 H590 0.930 . S
C605 N601 1.334 . S
C605 C603 1.390 . S
C606 C603 1.339 . S
C606 C604 1.416 . S
C606 H613 0.930 . S
N607 Tb572 2.572 . S
N607 C608 1.340 . S
N607 C610 1.361 . S
C608 H594 0.930 . S
C608 N607 1.340 . S
C608 C612 1.407 . S
C609 C610 1.413 . S
C609 C611 1.416 . S
C609 C638 1.427 . S
C610 C602 1.424 . S
C610 N607 1.361 . S
C610 C609 1.413 . S
C611 H600 0.931 . S
C611 C609 1.416 . S
C611 C612 1.332 . S
C612 H591 0.929 . S
C612 C608 1.407 . S
C612 C611 1.332 . S
H613 C606 0.930 . S
H614 C637 0.930 . S
H615 C638 0.929 . S
O616 Tb572 2.465 . S
O616 C636 1.264 . S
O617 Tb572 2.387 . S
O617 C628 1.264 . S
O618 Tb583 2.349 . S
O618 C628 1.243 . S
O619 Tb572 2.428 . S
O619 C636 1.256 . S
O620 Tb572 2.308 . S
O620 C635 1.266 . S
O621 Tb583 2.393 . S
O621 C635 1.248 . S
O622 Tb583 2.465 . S
O622 C647 1.264 . S
O623 Tb583 2.387 . S
O623 C639 1.264 . S
O624 Tb572 2.349 . S
O624 C639 1.243 . S
O625 Tb583 2.428 . S
O625 C647 1.256 . S
O626 Tb583 2.308 . S
O626 C646 1.266 . S
O627 Tb572 2.393 . S
O627 C646 1.248 . S
C628 O617 1.264 . S
C628 O618 1.243 . S
C629 C632 1.399 . S
C629 C634 1.383 . S
C629 C636 1.496 . S
C630 C631 1.399 . S
C630 C634 1.389 . S
C631 C630 1.399 . S
C631 C633 1.380 . S
C631 H648 0.929 . S
C632 C629 1.399 . S
C632 C633 1.392 . S
C632 H649 0.929 . S
C633 C631 1.380 . S
C633 C632 1.392 . S
C633 H650 0.929 . S
C634 C629 1.383 . S
C634 C630 1.389 . S
C634 H651 0.931 . S
C635 O620 1.266 . S
C635 O621 1.248 . S
C636 Tb572 2.802 . S
C636 O616 1.264 . S
C636 O619 1.256 . S
C636 C629 1.496 . S
C637 C604 1.448 . S
C637 H614 0.930 . S
C637 C638 1.328 . S
C638 C609 1.427 . S
C638 H615 0.929 . S
C638 C637 1.328 . S
C639 O623 1.264 . S
C639 O624 1.243 . S
C640 C643 1.399 . S
C640 C644 1.383 . S
C640 C647 1.496 . S
C641 C642 1.399 . S
C641 C644 1.389 . S
C642 C641 1.399 . S
C642 C645 1.380 . S
C642 H652 0.929 . S
C643 C640 1.399 . S
C643 C645 1.392 . S
C643 H653 0.929 . S
C644 C640 1.383 . S
C644 C641 1.389 . S
C644 H654 0.931 . S
C645 C642 1.380 . S
C645 C643 1.392 . S
C645 H655 0.929 . S
C646 O626 1.266 . S
C646 O627 1.248 . S
C647 Tb583 2.802 . S
C647 O622 1.264 . S
C647 O625 1.256 . S
C647 C640 1.496 . S
H648 C631 0.929 . S
H649 C632 0.929 . S
H650 C633 0.929 . S
H651 C634 0.931 . S
H652 C642 0.929 . S
H653 C643 0.929 . S
H654 C644 0.931 . S
H655 C645 0.929 . S
H656 C662 0.930 . S
H657 C666 0.930 . S
H658 C671 0.929 . S
H659 C669 0.929 . S
H660 C664 0.929 . S
H661 C670 0.929 . S
C662 H656 0.930 . S
C662 C663 1.367 . S
C662 C670 1.378 . S
C663 C662 1.367 . S
C663 C671 1.433 . S
C664 H660 0.929 . S
C664 C666 1.378 . S
C664 C668 1.350 . S
C665 C668 1.463 . S
C665 C670 1.350 . S
C665 N673 1.427 . S
C666 H657 0.930 . S
C666 C664 1.378 . S
C666 C667 1.367 . S
C667 C666 1.367 . S
C667 C669 1.433 . S
C668 C664 1.350 . S
C668 C665 1.463 . S
C668 N672 1.427 . S
C669 H659 0.929 . S
C669 C667 1.433 . S
C669 N672 1.384 . S
C670 H661 0.929 . S
C670 C662 1.378 . S
C670 C665 1.350 . S
C671 H658 0.929 . S
C671 C663 1.433 . S
C671 N673 1.384 . S
N672 C668 1.427 . S
N672 C669 1.384 . S
N673 C665 1.427 . S
N673 C671 1.384 . S
H674 C680 0.930 . S
H675 C684 0.930 . S
H676 C689 0.929 . S
H677 C687 0.929 . S
H678 C682 0.929 . S
H679 C688 0.929 . S
C680 H674 0.930 . S
C680 C681 1.367 . S
C680 C688 1.378 . S
C681 C680 1.367 . S
C681 C689 1.433 . S
C682 H678 0.929 . S
C682 C684 1.378 . S
C682 C686 1.350 . S
C683 C686 1.463 . S
C683 C688 1.350 . S
C683 N691 1.427 . S
C684 H675 0.930 . S
C684 C682 1.378 . S
C684 C685 1.367 . S
C685 C684 1.367 . S
C685 C687 1.433 . S
C686 C682 1.350 . S
C686 C683 1.463 . S
C686 N690 1.427 . S
C687 H677 0.929 . S
C687 C685 1.433 . S
C687 N690 1.384 . S
C688 H679 0.929 . S
C688 C680 1.378 . S
C688 C683 1.350 . S
C689 H676 0.929 . S
C689 C681 1.433 . S
C689 N691 1.384 . S
N690 C686 1.427 . S
N690 C687 1.384 . S
N691 C683 1.427 . S
N691 C689 1.384 . S
H692 C698 0.930 . S
H693 C702 0.930 . S
H694 C707 0.929 . S
H695 C705 0.929 . S
H696 C700 0.929 . S
H697 C706 0.929 . S
C698 H692 0.930 . S
C698 C699 1.367 . S
C698 C706 1.378 . S
C699 C698 1.367 . S
C699 C707 1.433 . S
C700 H696 0.929 . S
C700 C702 1.378 . S
C700 C704 1.350 . S
C701 C704 1.463 . S
C701 C706 1.350 . S
C701 N709 1.427 . S
C702 H693 0.930 . S
C702 C700 1.378 . S
C702 C703 1.367 . S
C703 C702 1.367 . S
C703 C705 1.433 . S
C704 C700 1.350 . S
C704 C701 1.463 . S
C704 N708 1.427 . S
C705 H695 0.929 . S
C705 C703 1.433 . S
C705 N708 1.384 . S
C706 H697 0.929 . S
C706 C698 1.378 . S
C706 C701 1.350 . S
C707 H694 0.929 . S
C707 C699 1.433 . S
C707 N709 1.384 . S
N708 C704 1.427 . S
N708 C705 1.384 . S
N709 C701 1.427 . S
N709 C707 1.384 . S
H710 C716 0.930 . S
H711 C720 0.930 . S
H712 C725 0.929 . S
H713 C723 0.929 . S
H714 C718 0.929 . S
H715 C724 0.929 . S
C716 H710 0.930 . S
C716 C717 1.367 . S
C716 C724 1.378 . S
C717 C716 1.367 . S
C717 C725 1.433 1_545 S
C718 H714 0.929 . S
C718 C720 1.378 . S
C718 C722 1.350 . S
C719 C722 1.463 . S
C719 C724 1.350 . S
C719 N727 1.427 . S
C720 H711 0.930 . S
C720 C718 1.378 . S
C720 C721 1.367 . S
C721 C720 1.367 . S
C721 C723 1.433 . S
C722 C718 1.350 . S
C722 C719 1.463 . S
C722 N726 1.427 . S
C723 H713 0.929 . S
C723 C721 1.433 . S
C723 N726 1.384 . S
C724 H715 0.929 . S
C724 C716 1.378 . S
C724 C719 1.350 . S
C725 H712 0.929 . S
C725 C717 1.433 1_565 S
C725 N727 1.384 1_565 S
N726 C722 1.427 . S
N726 C723 1.384 . S
N727 C719 1.427 . S
N727 C725 1.384 1_545 S
H728 C734 0.930 . S
H729 C738 0.930 1_455 S
H730 C743 0.929 . S
H731 C741 0.929 . S
H732 C736 0.929 . S
H733 C742 0.929 . S
C734 H728 0.930 . S
C734 C735 1.367 . S
C734 C742 1.378 . S
C735 C734 1.367 . S
C735 C743 1.433 . S
C736 H732 0.929 . S
C736 C738 1.378 . S
C736 C740 1.350 . S
C737 C740 1.463 . S
C737 C742 1.350 . S
C737 N745 1.427 . S
C738 H729 0.930 1_655 S
C738 C736 1.378 . S
C738 C739 1.367 . S
C739 C738 1.367 . S
C739 C741 1.433 . S
C740 C736 1.350 . S
C740 C737 1.463 . S
C740 N744 1.427 . S
C741 H731 0.929 . S
C741 C739 1.433 . S
C741 N744 1.384 . S
C742 H733 0.929 . S
C742 C734 1.378 . S
C742 C737 1.350 . S
C743 H730 0.929 . S
C743 C735 1.433 . S
C743 N745 1.384 . S
N744 C740 1.427 . S
N744 C741 1.384 . S
N745 C737 1.427 . S
N745 C743 1.384 . S
H746 C752 0.930 . S
H747 C756 0.930 . S
H748 C761 0.929 . S
H749 C759 0.929 . S
H750 C754 0.929 . S
H751 C760 0.929 . S
C752 H746 0.930 . S
C752 C753 1.367 . S
C752 C760 1.378 . S
C753 C752 1.367 . S
C753 C761 1.433 . S
C754 H750 0.929 . S
C754 C756 1.378 . S
C754 C758 1.350 . S
C755 C758 1.463 . S
C755 C760 1.350 . S
C755 N763 1.427 . S
C756 H747 0.930 . S
C756 C754 1.378 . S
C756 C757 1.367 . S
C757 C756 1.367 . S
C757 C759 1.433 . S
C758 C754 1.350 . S
C758 C755 1.463 . S
C758 N762 1.427 . S
C759 H749 0.929 . S
C759 C757 1.433 . S
C759 N762 1.384 . S
C760 H751 0.929 . S
C760 C752 1.378 . S
C760 C755 1.350 . S
C761 H748 0.929 . S
C761 C753 1.433 . S
C761 N763 1.384 . S
N762 C758 1.427 . S
N762 C759 1.384 . S
N763 C755 1.427 . S
N763 C761 1.384 . S
H764 C770 0.930 . S
H765 C774 0.930 . S
H766 C779 0.929 . S
H767 C777 0.929 . S
H768 C772 0.929 . S
H769 C778 0.929 . S
C770 H764 0.930 . S
C770 C771 1.367 . S
C770 C778 1.378 . S
C771 C770 1.367 . S
C771 C779 1.433 . S
C772 H768 0.929 . S
C772 C774 1.378 . S
C772 C776 1.350 . S
C773 C776 1.463 . S
C773 C778 1.350 . S
C773 N781 1.427 . S
C774 H765 0.930 . S
C774 C772 1.378 . S
C774 C775 1.367 . S
C775 C774 1.367 . S
C775 C777 1.433 . S
C776 C772 1.350 . S
C776 C773 1.463 . S
C776 N780 1.427 . S
C777 H767 0.929 . S
C777 C775 1.433 . S
C777 N780 1.384 . S
C778 H769 0.929 . S
C778 C770 1.378 . S
C778 C773 1.350 . S
C779 H766 0.929 . S
C779 C771 1.433 . S
C779 N781 1.384 . S
N780 C776 1.427 . S
N780 C777 1.384 . S
N781 C773 1.427 . S
N781 C779 1.384 . S
H782 C788 0.930 . S
H783 C792 0.930 . S
H784 C797 0.929 . S
H785 C795 0.929 . S
H786 C790 0.929 . S
H787 C796 0.929 . S
C788 H782 0.930 . S
C788 C789 1.367 . S
C788 C796 1.378 . S
C789 C788 1.367 . S
C789 C797 1.433 1_565 S
C790 H786 0.929 . S
C790 C792 1.378 . S
C790 C794 1.350 . S
C791 C794 1.463 . S
C791 C796 1.350 . S
C791 N799 1.427 . S
C792 H783 0.930 . S
C792 C790 1.378 . S
C792 C793 1.367 . S
C793 C792 1.367 . S
C793 C795 1.433 . S
C794 C790 1.350 . S
C794 C791 1.463 . S
C794 N798 1.427 . S
C795 H785 0.929 . S
C795 C793 1.433 . S
C795 N798 1.384 . S
C796 H787 0.929 . S
C796 C788 1.378 . S
C796 C791 1.350 . S
C797 H784 0.929 . S
C797 C789 1.433 1_545 S
C797 N799 1.384 1_545 S
N798 C794 1.427 . S
N798 C795 1.384 . S
N799 C791 1.427 . S
N799 C797 1.384 1_565 S
H800 C806 0.930 . S
H801 C810 0.930 . S
H802 C815 0.929 . S
H803 C813 0.929 . S
H804 C808 0.929 . S
H805 C814 0.929 . S
C806 H800 0.930 . S
C806 C807 1.367 . S
C806 C814 1.378 . S
C807 C806 1.367 . S
C807 C815 1.433 . S
C808 H804 0.929 . S
C808 C810 1.378 . S
C808 C812 1.350 . S
C809 C812 1.463 . S
C809 C814 1.350 . S
C809 N817 1.427 . S
C810 H801 0.930 . S
C810 C808 1.378 . S
C810 C811 1.367 . S
C811 C810 1.367 . S
C811 C813 1.433 . S
C812 C808 1.350 . S
C812 C809 1.463 . S
C812 N816 1.427 . S
C813 H803 0.929 . S
C813 C811 1.433 . S
C813 N816 1.384 . S
C814 H805 0.929 . S
C814 C806 1.378 . S
C814 C809 1.350 . S
C815 H802 0.929 . S
C815 C807 1.433 . S
C815 N817 1.384 . S
N816 C812 1.427 . S
N816 C813 1.384 . S
N817 C809 1.427 . S
N817 C815 1.384 . S
H818 C824 0.930 . S
H819 C828 0.930 . S
H820 C833 0.929 . S
H821 C831 0.929 . S
H822 C826 0.929 . S
H823 C832 0.929 . S
C824 H818 0.930 . S
C824 C825 1.367 . S
C824 C832 1.378 . S
C825 C824 1.367 . S
C825 C833 1.433 . S
C826 H822 0.929 . S
C826 C828 1.378 . S
C826 C830 1.350 . S
C827 C830 1.463 . S
C827 C832 1.350 . S
C827 N835 1.427 . S
C828 H819 0.930 . S
C828 C826 1.378 . S
C828 C829 1.367 . S
C829 C828 1.367 . S
C829 C831 1.433 . S
C830 C826 1.350 . S
C830 C827 1.463 . S
C830 N834 1.427 . S
C831 H821 0.929 . S
C831 C829 1.433 . S
C831 N834 1.384 . S
C832 H823 0.929 . S
C832 C824 1.378 . S
C832 C827 1.350 . S
C833 H820 0.929 . S
C833 C825 1.433 . S
C833 N835 1.384 . S
N834 C830 1.427 . S
N834 C831 1.384 . S
N835 C827 1.427 . S
N835 C833 1.384 . S
H836 C842 0.930 . S
H837 C846 0.930 . S
H838 C851 0.929 . S
H839 C849 0.929 . S
H840 C844 0.929 . S
H841 C850 0.929 . S
C842 H836 0.930 . S
C842 C843 1.367 . S
C842 C850 1.378 . S
C843 C842 1.367 . S
C843 C851 1.433 . S
C844 H840 0.929 . S
C844 C846 1.378 . S
C844 C848 1.350 . S
C845 C848 1.463 . S
C845 C850 1.350 . S
C845 N853 1.427 . S
C846 H837 0.930 . S
C846 C844 1.378 . S
C846 C847 1.367 . S
C847 C846 1.367 . S
C847 C849 1.433 . S
C848 C844 1.350 . S
C848 C845 1.463 . S
C848 N852 1.427 . S
C849 H839 0.929 . S
C849 C847 1.433 . S
C849 N852 1.384 . S
C850 H841 0.929 . S
C850 C842 1.378 . S
C850 C845 1.350 . S
C851 H838 0.929 . S
C851 C843 1.433 . S
C851 N853 1.384 . S
N852 C848 1.427 . S
N852 C849 1.384 . S
N853 C845 1.427 . S
N853 C851 1.384 . S
H854 C860 0.930 . S
H855 C864 0.930 . S
H856 C869 0.929 . S
H857 C867 0.929 . S
H858 C862 0.929 . S
H859 C868 0.929 . S
C860 H854 0.930 . S
C860 C861 1.367 . S
C860 C868 1.378 . S
C861 C860 1.367 . S
C861 C869 1.433 . S
C862 H858 0.929 . S
C862 C864 1.378 . S
C862 C866 1.350 . S
C863 C866 1.463 . S
C863 C868 1.350 . S
C863 N871 1.427 . S
C864 H855 0.930 . S
C864 C862 1.378 . S
C864 C865 1.367 . S
C865 C864 1.367 . S
C865 C867 1.433 . S
C866 C862 1.350 . S
C866 C863 1.463 . S
C866 N870 1.427 . S
C867 H857 0.929 . S
C867 C865 1.433 . S
C867 N870 1.384 . S
C868 H859 0.929 . S
C868 C860 1.378 . S
C868 C863 1.350 . S
C869 H856 0.929 . S
C869 C861 1.433 . S
C869 N871 1.384 . S
N870 C866 1.427 . S
N870 C867 1.384 . S
N871 C863 1.427 . S
N871 C869 1.384 . S
H872 C878 0.930 . S
H873 C882 0.930 . S
H874 C887 0.929 . S
H875 C885 0.929 . S
H876 C880 0.929 . S
H877 C886 0.929 . S
C878 H872 0.930 . S
C878 C879 1.367 . S
C878 C886 1.378 . S
C879 C878 1.367 . S
C879 C887 1.433 . S
C880 H876 0.929 . S
C880 C882 1.378 . S
C880 C884 1.350 . S
C881 C884 1.463 . S
C881 C886 1.350 . S
C881 N889 1.427 . S
C882 H873 0.930 . S
C882 C880 1.378 . S
C882 C883 1.367 . S
C883 C882 1.367 . S
C883 C885 1.433 . S
C884 C880 1.350 . S
C884 C881 1.463 . S
C884 N888 1.427 . S
C885 H875 0.929 . S
C885 C883 1.433 . S
C885 N888 1.384 . S
C886 H877 0.929 . S
C886 C878 1.378 . S
C886 C881 1.350 . S
C887 H874 0.929 . S
C887 C879 1.433 . S
C887 N889 1.384 . S
N888 C884 1.427 . S
N888 C885 1.384 . S
N889 C881 1.427 . S
N889 C887 1.384 . S
H890 C896 0.930 . S
H891 C900 0.930 . S
H892 C905 0.929 . S
H893 C903 0.929 . S
H894 C898 0.929 . S
H895 C904 0.929 . S
C896 H890 0.930 . S
C896 C897 1.367 . S
C896 C904 1.378 . S
C897 C896 1.367 . S
C897 C905 1.433 . S
C898 H894 0.929 . S
C898 C900 1.378 . S
C898 C902 1.350 . S
C899 C902 1.463 . S
C899 C904 1.350 . S
C899 N907 1.427 . S
C900 H891 0.930 . S
C900 C898 1.378 . S
C900 C901 1.367 . S
C901 C900 1.367 . S
C901 C903 1.433 . S
C902 C898 1.350 . S
C902 C899 1.463 . S
C902 N906 1.427 . S
C903 H893 0.929 . S
C903 C901 1.433 . S
C903 N906 1.384 . S
C904 H895 0.929 . S
C904 C896 1.378 . S
C904 C899 1.350 . S
C905 H892 0.929 . S
C905 C897 1.433 . S
C905 N907 1.384 . S
N906 C902 1.427 . S
N906 C903 1.384 . S
N907 C899 1.427 . S
N907 C905 1.384 . S
H908 C914 0.930 . S
H909 C918 0.930 . S
H910 C923 0.929 . S
H911 C921 0.929 . S
H912 C916 0.929 . S
H913 C922 0.929 . S
C914 H908 0.930 . S
C914 C915 1.367 . S
C914 C922 1.378 . S
C915 C914 1.367 . S
C915 C923 1.433 . S
C916 H912 0.929 . S
C916 C918 1.378 . S
C916 C920 1.350 . S
C917 C920 1.463 . S
C917 C922 1.350 . S
C917 N925 1.427 . S
C918 H909 0.930 . S
C918 C916 1.378 . S
C918 C919 1.367 . S
C919 C918 1.367 . S
C919 C921 1.433 . S
C920 C916 1.350 . S
C920 C917 1.463 . S
C920 N924 1.427 . S
C921 H911 0.929 . S
C921 C919 1.433 . S
C921 N924 1.384 . S
C922 H913 0.929 . S
C922 C914 1.378 . S
C922 C917 1.350 . S
C923 H910 0.929 . S
C923 C915 1.433 . S
C923 N925 1.384 . S
N924 C920 1.427 . S
N924 C921 1.384 . S
N925 C917 1.427 . S
N925 C923 1.384 . S
H926 C932 0.930 . S
H927 C936 0.930 . S
H928 C941 0.929 . S
H929 C939 0.929 . S
H930 C934 0.929 . S
H931 C940 0.929 . S
C932 H926 0.930 . S
C932 C933 1.367 . S
C932 C940 1.378 . S
C933 C932 1.367 . S
C933 C941 1.433 . S
C934 H930 0.929 . S
C934 C936 1.378 . S
C934 C938 1.350 . S
C935 C938 1.463 . S
C935 C940 1.350 . S
C935 N943 1.427 . S
C936 H927 0.930 . S
C936 C934 1.378 . S
C936 C937 1.367 . S
C937 C936 1.367 . S
C937 C939 1.433 . S
C938 C934 1.350 . S
C938 C935 1.463 . S
C938 N942 1.427 . S
C939 H929 0.929 . S
C939 C937 1.433 . S
C939 N942 1.384 . S
C940 H931 0.929 . S
C940 C932 1.378 . S
C940 C935 1.350 . S
C941 H928 0.929 . S
C941 C933 1.433 . S
C941 N943 1.384 . S
N942 C938 1.427 . S
N942 C939 1.384 . S
N943 C935 1.427 . S
N943 C941 1.384 . S
H944 C950 0.930 . S
H945 C954 0.930 . S
H946 C959 0.929 . S
H947 C957 0.929 . S
H948 C952 0.929 . S
H949 C958 0.929 . S
C950 H944 0.930 . S
C950 C951 1.367 . S
C950 C958 1.378 . S
C951 C950 1.367 . S
C951 C959 1.433 . S
C952 H948 0.929 . S
C952 C954 1.378 . S
C952 C956 1.350 . S
C953 C956 1.463 . S
C953 C958 1.350 . S
C953 N961 1.427 . S
C954 H945 0.930 . S
C954 C952 1.378 . S
C954 C955 1.367 . S
C955 C954 1.367 . S
C955 C957 1.433 . S
C956 C952 1.350 . S
C956 C953 1.463 . S
C956 N960 1.427 . S
C957 H947 0.929 . S
C957 C955 1.433 . S
C957 N960 1.384 . S
C958 H949 0.929 . S
C958 C950 1.378 . S
C958 C953 1.350 . S
C959 H946 0.929 . S
C959 C951 1.433 . S
C959 N961 1.384 . S
N960 C956 1.427 . S
N960 C957 1.384 . S
N961 C953 1.427 . S
N961 C959 1.384 . S
H962 C968 0.930 . S
H963 C972 0.930 . S
H964 C977 0.929 . S
H965 C975 0.929 . S
H966 C970 0.929 . S
H967 C976 0.929 . S
C968 H962 0.930 . S
C968 C969 1.367 . S
C968 C976 1.378 . S
C969 C968 1.367 . S
C969 C977 1.433 . S
C970 H966 0.929 . S
C970 C972 1.378 . S
C970 C974 1.350 . S
C971 C974 1.463 . S
C971 C976 1.350 . S
C971 N979 1.427 . S
C972 H963 0.930 . S
C972 C970 1.378 . S
C972 C973 1.367 . S
C973 C972 1.367 . S
C973 C975 1.433 . S
C974 C970 1.350 . S
C974 C971 1.463 . S
C974 N978 1.427 . S
C975 H965 0.929 . S
C975 C973 1.433 . S
C975 N978 1.384 . S
C976 H967 0.929 . S
C976 C968 1.378 . S
C976 C971 1.350 . S
C977 H964 0.929 . S
C977 C969 1.433 . S
C977 N979 1.384 . S
N978 C974 1.427 . S
N978 C975 1.384 . S
N979 C971 1.427 . S
N979 C977 1.384 . S
H980 C986 0.930 . S
H981 C990 0.930 . S
H982 C995 0.929 . S
H983 C993 0.929 . S
H984 C988 0.929 . S
H985 C994 0.929 . S
C986 H980 0.930 . S
C986 C987 1.367 . S
C986 C994 1.378 . S
C987 C986 1.367 . S
C987 C995 1.433 . S
C988 H984 0.929 . S
C988 C990 1.378 . S
C988 C992 1.350 . S
C989 C992 1.463 . S
C989 C994 1.350 . S
C989 N997 1.427 . S
C990 H981 0.930 . S
C990 C988 1.378 . S
C990 C991 1.367 . S
C991 C990 1.367 . S
C991 C993 1.433 . S
C992 C988 1.350 . S
C992 C989 1.463 . S
C992 N996 1.427 . S
C993 H983 0.929 . S
C993 C991 1.433 . S
C993 N996 1.384 . S
C994 H985 0.929 . S
C994 C986 1.378 . S
C994 C989 1.350 . S
C995 H982 0.929 . S
C995 C987 1.433 . S
C995 N997 1.384 . S
N996 C992 1.427 . S
N996 C993 1.384 . S
N997 C989 1.427 . S
N997 C995 1.384 . S
H998 C1004 0.930 . S
H999 C1008 0.930 . S
H1000 C1013 0.929 . S
H1001 C1011 0.929 . S
H1002 C1006 0.929 . S
H1003 C1012 0.929 . S
C1004 H998 0.930 . S
C1004 C1005 1.367 . S
C1004 C1012 1.378 . S
C1005 C1004 1.367 . S
C1005 C1013 1.433 . S
C1006 H1002 0.929 . S
C1006 C1008 1.378 . S
C1006 C1010 1.350 . S
C1007 C1010 1.463 . S
C1007 C1012 1.350 . S
C1007 N1015 1.427 . S
C1008 H999 0.930 . S
C1008 C1006 1.378 . S
C1008 C1009 1.367 . S
C1009 C1008 1.367 . S
C1009 C1011 1.433 . S
C1010 C1006 1.350 . S
C1010 C1007 1.463 . S
C1010 N1014 1.427 . S
C1011 H1001 0.929 . S
C1011 C1009 1.433 . S
C1011 N1014 1.384 . S
C1012 H1003 0.929 . S
C1012 C1004 1.378 . S
C1012 C1007 1.350 . S
C1013 H1000 0.929 . S
C1013 C1005 1.433 . S
C1013 N1015 1.384 . S
N1014 C1010 1.427 . S
N1014 C1011 1.384 . S
N1015 C1007 1.427 . S
N1015 C1013 1.384 . S
H1016 C1022 0.930 . S
H1017 C1026 0.930 . S
H1018 C1031 0.929 . S
H1019 C1029 0.929 . S
H1020 C1024 0.929 . S
H1021 C1030 0.929 . S
C1022 H1016 0.930 . S
C1022 C1023 1.367 . S
C1022 C1030 1.378 . S
C1023 C1022 1.367 . S
C1023 C1031 1.433 . S
C1024 H1020 0.929 . S
C1024 C1026 1.378 . S
C1024 C1028 1.350 . S
C1025 C1028 1.463 . S
C1025 C1030 1.350 . S
C1025 N1033 1.427 . S
C1026 H1017 0.930 . S
C1026 C1024 1.378 . S
C1026 C1027 1.367 . S
C1027 C1026 1.367 . S
C1027 C1029 1.433 . S
C1028 C1024 1.350 . S
C1028 C1025 1.463 . S
C1028 N1032 1.427 . S
C1029 H1019 0.929 . S
C1029 C1027 1.433 . S
C1029 N1032 1.384 . S
C1030 H1021 0.929 . S
C1030 C1022 1.378 . S
C1030 C1025 1.350 . S
C1031 H1018 0.929 . S
C1031 C1023 1.433 . S
C1031 N1033 1.384 . S
N1032 C1028 1.427 . S
N1032 C1029 1.384 . S
N1033 C1025 1.427 . S
N1033 C1031 1.384 . S
H1034 C1040 0.930 . S
H1035 C1044 0.930 . S
H1036 C1049 0.929 . S
H1037 C1047 0.929 . S
H1038 C1042 0.929 . S
H1039 C1048 0.929 . S
C1040 H1034 0.930 . S
C1040 C1041 1.367 . S
C1040 C1048 1.378 . S
C1041 C1040 1.367 . S
C1041 C1049 1.433 . S
C1042 H1038 0.929 . S
C1042 C1044 1.378 . S
C1042 C1046 1.350 . S
C1043 C1046 1.463 . S
C1043 C1048 1.350 . S
C1043 N1051 1.427 . S
C1044 H1035 0.930 . S
C1044 C1042 1.378 . S
C1044 C1045 1.367 . S
C1045 C1044 1.367 . S
C1045 C1047 1.433 . S
C1046 C1042 1.350 . S
C1046 C1043 1.463 . S
C1046 N1050 1.427 . S
C1047 H1037 0.929 . S
C1047 C1045 1.433 . S
C1047 N1050 1.384 . S
C1048 H1039 0.929 . S
C1048 C1040 1.378 . S
C1048 C1043 1.350 . S
C1049 H1036 0.929 . S
C1049 C1041 1.433 . S
C1049 N1051 1.384 . S
N1050 C1046 1.427 . S
N1050 C1047 1.384 . S
N1051 C1043 1.427 . S
N1051 C1049 1.384 . S
H1052 C1058 0.930 . S
H1053 C1062 0.930 . S
H1054 C1067 0.929 . S
H1055 C1065 0.929 . S
H1056 C1060 0.929 . S
H1057 C1066 0.929 . S
C1058 H1052 0.930 . S
C1058 C1059 1.367 . S
C1058 C1066 1.378 . S
C1059 C1058 1.367 . S
C1059 C1067 1.433 . S
C1060 H1056 0.929 . S
C1060 C1062 1.378 . S
C1060 C1064 1.350 . S
C1061 C1064 1.463 . S
C1061 C1066 1.350 . S
C1061 N1069 1.427 . S
C1062 H1053 0.930 . S
C1062 C1060 1.378 . S
C1062 C1063 1.367 . S
C1063 C1062 1.367 . S
C1063 C1065 1.433 . S
C1064 C1060 1.350 . S
C1064 C1061 1.463 . S
C1064 N1068 1.427 . S
C1065 H1055 0.929 . S
C1065 C1063 1.433 . S
C1065 N1068 1.384 . S
C1066 H1057 0.929 . S
C1066 C1058 1.378 . S
C1066 C1061 1.350 . S
C1067 H1054 0.929 . S
C1067 C1059 1.433 . S
C1067 N1069 1.384 . S
N1068 C1064 1.427 . S
N1068 C1065 1.384 . S
N1069 C1061 1.427 . S
N1069 C1067 1.384 . S
H1070 C1076 0.930 . S
H1071 C1080 0.930 . S
H1072 C1085 0.929 . S
H1073 C1083 0.929 . S
H1074 C1078 0.929 . S
H1075 C1084 0.929 . S
C1076 H1070 0.930 . S
C1076 C1077 1.367 . S
C1076 C1084 1.378 . S
C1077 C1076 1.367 . S
C1077 C1085 1.433 . S
C1078 H1074 0.929 . S
C1078 C1080 1.378 . S
C1078 C1082 1.350 . S
C1079 C1082 1.463 . S
C1079 C1084 1.350 . S
C1079 N1087 1.427 . S
C1080 H1071 0.930 . S
C1080 C1078 1.378 . S
C1080 C1081 1.367 . S
C1081 C1080 1.367 . S
C1081 C1083 1.433 . S
C1082 C1078 1.350 . S
C1082 C1079 1.463 . S
C1082 N1086 1.427 . S
C1083 H1073 0.929 . S
C1083 C1081 1.433 . S
C1083 N1086 1.384 . S
C1084 H1075 0.929 . S
C1084 C1076 1.378 . S
C1084 C1079 1.350 . S
C1085 H1072 0.929 . S
C1085 C1077 1.433 . S
C1085 N1087 1.384 . S
N1086 C1082 1.427 . S
N1086 C1083 1.384 . S
N1087 C1079 1.427 . S
N1087 C1085 1.384 . S
C663 C242 1.464 1_545 S
C667 C394 1.478 . S
C685 C478 1.481 . S
C681 C301 1.493 . S
C703 C471 1.492 . S
C699 C162 1.461 . S
C717 C221 1.489 1_545 S
C721 C387 1.487 . S
C739 C551 1.485 . S
C735 C82 1.489 1_565 S
C757 C635 1.477 . S
C753 C141 1.475 . S
C771 C2 1.487 . S
C775 C628 1.491 . S
C789 C61 1.461 1_565 S
C793 C544 1.487 . S
C811 C378 1.356 . S
C807 C42 1.505 . S
C829 C462 1.354 . S
C825 C21 1.532 . S
C847 C473 1.400 . S
C843 C122 1.525 . S
C865 C389 1.402 . S
C861 C101 1.549 . S
C883 C557 1.339 . S
C879 C202 1.531 . S
C897 C181 1.498 . S
C901 C641 1.337 . S
C919 C630 1.396 . S
C915 C282 1.547 . S
C933 C261 1.521 . S
C937 C546 1.416 . S
C955 C376 1.610 . S
C951 C15 1.602 . S
C973 C460 1.595 . S
C969 C55 1.587 . S
C987 C95 1.587 . S
C991 C467 1.590 . S
C1009 C383 1.577 . S
C1005 C135 1.578 . S
C1027 C555 1.615 . S
C1023 C175 1.604 . S
C1041 C215 1.590 . S
C1045 C639 1.596 . S
C1059 C255 1.590 . S
C1063 C646 1.584 . S
C1077 C295 1.579 . S
C1081 C562 1.577 . S
