# Generated by pormake.
# Topology eea, (3,6)-cn, num edge types: 1
# Building blocks:
#     Node 0, Type 0, BuildingBlock: WUSLED_clean_sbu_0, # of connection points: 3
#     Node 1, Type 0, BuildingBlock: WUSLED_clean_sbu_0, # of connection points: 3
#     Node 2, Type 0, BuildingBlock: WUSLED_clean_sbu_0, # of connection points: 3
#     Node 3, Type 0, BuildingBlock: WUSLED_clean_sbu_0, # of connection points: 3
#     Node 4, Type 0, BuildingBlock: WUSLED_clean_sbu_0, # of connection points: 3
#     Node 5, Type 0, BuildingBlock: WUSLED_clean_sbu_0, # of connection points: 3
#     Node 6, Type 0, BuildingBlock: WUSLED_clean_sbu_0, # of connection points: 3
#     Node 7, Type 0, BuildingBlock: WUSLED_clean_sbu_0, # of connection points: 3
#     Node 8, Type 0, BuildingBlock: WUSLED_clean_sbu_0, # of connection points: 3
#     Node 9, Type 0, BuildingBlock: WUSLED_clean_sbu_0, # of connection points: 3
#     Node 10, Type 0, BuildingBlock: WUSLED_clean_sbu_0, # of connection points: 3
#     Node 11, Type 0, BuildingBlock: WUSLED_clean_sbu_0, # of connection points: 3
#     Node 12, Type 0, BuildingBlock: WUSLED_clean_sbu_0, # of connection points: 3
#     Node 13, Type 0, BuildingBlock: WUSLED_clean_sbu_0, # of connection points: 3
#     Node 14, Type 0, BuildingBlock: WUSLED_clean_sbu_0, # of connection points: 3
#     Node 15, Type 0, BuildingBlock: WUSLED_clean_sbu_0, # of connection points: 3
#     Node 16, Type 0, BuildingBlock: WUSLED_clean_sbu_0, # of connection points: 3
#     Node 17, Type 0, BuildingBlock: WUSLED_clean_sbu_0, # of connection points: 3
#     Node 18, Type 1, BuildingBlock: CIFDUS_clean_sbu_1, # of connection points: 6
#     Node 19, Type 1, BuildingBlock: CIFDUS_clean_sbu_1, # of connection points: 6
#     Node 20, Type 1, BuildingBlock: CIFDUS_clean_sbu_1, # of connection points: 6
#     Node 21, Type 1, BuildingBlock: CIFDUS_clean_sbu_1, # of connection points: 6
#     Node 22, Type 1, BuildingBlock: CIFDUS_clean_sbu_1, # of connection points: 6
#     Node 23, Type 1, BuildingBlock: CIFDUS_clean_sbu_1, # of connection points: 6
#     Node 24, Type 1, BuildingBlock: CIFDUS_clean_sbu_1, # of connection points: 6
#     Node 25, Type 1, BuildingBlock: CIFDUS_clean_sbu_1, # of connection points: 6
#     Node 26, Type 1, BuildingBlock: CIFDUS_clean_sbu_1, # of connection points: 6
#     Edge 27, Type (0, 1), BuildingBlock: XUDNAN_clean_linker_2, # of connection points: 2
#     Edge 28, Type (0, 1), BuildingBlock: XUDNAN_clean_linker_2, # of connection points: 2
#     Edge 29, Type (0, 1), BuildingBlock: XUDNAN_clean_linker_2, # of connection points: 2
#     Edge 30, Type (0, 1), BuildingBlock: XUDNAN_clean_linker_2, # of connection points: 2
#     Edge 31, Type (0, 1), BuildingBlock: XUDNAN_clean_linker_2, # of connection points: 2
#     Edge 32, Type (0, 1), BuildingBlock: XUDNAN_clean_linker_2, # of connection points: 2
#     Edge 33, Type (0, 1), BuildingBlock: XUDNAN_clean_linker_2, # of connection points: 2
#     Edge 34, Type (0, 1), BuildingBlock: XUDNAN_clean_linker_2, # of connection points: 2
#     Edge 35, Type (0, 1), BuildingBlock: XUDNAN_clean_linker_2, # of connection points: 2
#     Edge 36, Type (0, 1), BuildingBlock: XUDNAN_clean_linker_2, # of connection points: 2
#     Edge 37, Type (0, 1), BuildingBlock: XUDNAN_clean_linker_2, # of connection points: 2
#     Edge 38, Type (0, 1), BuildingBlock: XUDNAN_clean_linker_2, # of connection points: 2
#     Edge 39, Type (0, 1), BuildingBlock: XUDNAN_clean_linker_2, # of connection points: 2
#     Edge 40, Type (0, 1), BuildingBlock: XUDNAN_clean_linker_2, # of connection points: 2
#     Edge 41, Type (0, 1), BuildingBlock: XUDNAN_clean_linker_2, # of connection points: 2
#     Edge 42, Type (0, 1), BuildingBlock: XUDNAN_clean_linker_2, # of connection points: 2
#     Edge 43, Type (0, 1), BuildingBlock: XUDNAN_clean_linker_2, # of connection points: 2
#     Edge 44, Type (0, 1), BuildingBlock: XUDNAN_clean_linker_2, # of connection points: 2
#     Edge 45, Type (0, 1), BuildingBlock: XUDNAN_clean_linker_2, # of connection points: 2
#     Edge 46, Type (0, 1), BuildingBlock: XUDNAN_clean_linker_2, # of connection points: 2
#     Edge 47, Type (0, 1), BuildingBlock: XUDNAN_clean_linker_2, # of connection points: 2
#     Edge 48, Type (0, 1), BuildingBlock: XUDNAN_clean_linker_2, # of connection points: 2
#     Edge 49, Type (0, 1), BuildingBlock: XUDNAN_clean_linker_2, # of connection points: 2
#     Edge 50, Type (0, 1), BuildingBlock: XUDNAN_clean_linker_2, # of connection points: 2
#     Edge 51, Type (0, 1), BuildingBlock: XUDNAN_clean_linker_2, # of connection points: 2
#     Edge 52, Type (0, 1), BuildingBlock: XUDNAN_clean_linker_2, # of connection points: 2
#     Edge 53, Type (0, 1), BuildingBlock: XUDNAN_clean_linker_2, # of connection points: 2
#     Edge 54, Type (0, 1), BuildingBlock: XUDNAN_clean_linker_2, # of connection points: 2
#     Edge 55, Type (0, 1), BuildingBlock: XUDNAN_clean_linker_2, # of connection points: 2
#     Edge 56, Type (0, 1), BuildingBlock: XUDNAN_clean_linker_2, # of connection points: 2
#     Edge 57, Type (0, 1), BuildingBlock: XUDNAN_clean_linker_2, # of connection points: 2
#     Edge 58, Type (0, 1), BuildingBlock: XUDNAN_clean_linker_2, # of connection points: 2
#     Edge 59, Type (0, 1), BuildingBlock: XUDNAN_clean_linker_2, # of connection points: 2
#     Edge 60, Type (0, 1), BuildingBlock: XUDNAN_clean_linker_2, # of connection points: 2
#     Edge 61, Type (0, 1), BuildingBlock: XUDNAN_clean_linker_2, # of connection points: 2
#     Edge 62, Type (0, 1), BuildingBlock: XUDNAN_clean_linker_2, # of connection points: 2
#     Edge 63, Type (0, 1), BuildingBlock: XUDNAN_clean_linker_2, # of connection points: 2
#     Edge 64, Type (0, 1), BuildingBlock: XUDNAN_clean_linker_2, # of connection points: 2
#     Edge 65, Type (0, 1), BuildingBlock: XUDNAN_clean_linker_2, # of connection points: 2
#     Edge 66, Type (0, 1), BuildingBlock: XUDNAN_clean_linker_2, # of connection points: 2
#     Edge 67, Type (0, 1), BuildingBlock: XUDNAN_clean_linker_2, # of connection points: 2
#     Edge 68, Type (0, 1), BuildingBlock: XUDNAN_clean_linker_2, # of connection points: 2
#     Edge 69, Type (0, 1), BuildingBlock: XUDNAN_clean_linker_2, # of connection points: 2
#     Edge 70, Type (0, 1), BuildingBlock: XUDNAN_clean_linker_2, # of connection points: 2
#     Edge 71, Type (0, 1), BuildingBlock: XUDNAN_clean_linker_2, # of connection points: 2
#     Edge 72, Type (0, 1), BuildingBlock: XUDNAN_clean_linker_2, # of connection points: 2
#     Edge 73, Type (0, 1), BuildingBlock: XUDNAN_clean_linker_2, # of connection points: 2
#     Edge 74, Type (0, 1), BuildingBlock: XUDNAN_clean_linker_2, # of connection points: 2
#     Edge 75, Type (0, 1), BuildingBlock: XUDNAN_clean_linker_2, # of connection points: 2
#     Edge 76, Type (0, 1), BuildingBlock: XUDNAN_clean_linker_2, # of connection points: 2
#     Edge 77, Type (0, 1), BuildingBlock: XUDNAN_clean_linker_2, # of connection points: 2
#     Edge 78, Type (0, 1), BuildingBlock: XUDNAN_clean_linker_2, # of connection points: 2
#     Edge 79, Type (0, 1), BuildingBlock: XUDNAN_clean_linker_2, # of connection points: 2
#     Edge 80, Type (0, 1), BuildingBlock: XUDNAN_clean_linker_2, # of connection points: 2
# Relax obj value: 0.097
# Max RMSD: 0.179
# Mean RMSD: 0.091
data_MOF--net-eea--node1-WUSLED_clean_sbu_0--node2-CIFDUS_clean_sbu_1--edge1-XUDNAN_clean_linker_2
_symmetry_space_group_name_H-M    P1
_symmetry_Int_Tables_number       1
_symmetry_cell_setting            triclinic
loop_
_symmetry_equiv_pos_as_xyz
'x, y, z'
_cell_length_a     71.097061
_cell_length_b     70.857199
_cell_length_c     70.691095
_cell_angle_alpha  89.83431
_cell_angle_beta   90.153233
_cell_angle_gamma 119.86392
loop_
_atom_site_label
_atom_site_type_symbol
_atom_site_fract_x
_atom_site_fract_y
_atom_site_fract_z
_atom_type_partial_charge
C0 C 0.23839 0.16113 0.38272 0.0
C1 C 0.25163 0.1834 0.38691 0.0
C2 C 0.22587 0.19176 0.37113 0.0
C3 C 0.24541 0.1986 0.38116 0.0
C4 C 0.2126 0.16933 0.36756 0.0
C5 C 0.21886 0.15437 0.37309 0.0
U6 U 0.26074 0.13206 0.41518 0.0
O7 O 0.24565 0.09719 0.42155 0.0
O8 O 0.27692 0.11355 0.40686 0.0
C9 C 0.26091 0.095 0.41315 0.0
C10 C 0.24409 0.14424 0.38767 0.0
C11 C 0.25322 0.07572 0.40081 0.0
C12 C 0.22771 0.05047 0.37771 0.0
C13 C 0.23671 0.07034 0.38742 0.0
C14 C 0.25225 0.04155 0.394 0.0
C15 C 0.23506 0.03556 0.3811 0.0
C16 C 0.26113 0.06134 0.40377 0.0
C17 C 0.28502 0.15519 0.46424 0.0
C18 C 0.29126 0.13553 0.48957 0.0
C19 C 0.30576 0.17445 0.49205 0.0
C20 C 0.2967 0.17452 0.47451 0.0
C21 C 0.3032 0.155 0.49976 0.0
C22 C 0.28234 0.13565 0.47185 0.0
C23 C 0.27558 0.15595 0.44585 0.0
O24 O 0.26474 0.14994 0.38849 0.0
O25 O 0.23241 0.13056 0.40109 0.0
O26 O 0.25506 0.14141 0.4433 0.0
O27 O 0.28764 0.15874 0.43088 0.0
H28 H 0.26679 0.18904 0.39443 0.0
H29 H 0.25608 0.21568 0.38421 0.0
H30 H 0.19712 0.16313 0.36047 0.0
H31 H 0.20832 0.13732 0.36977 0.0
H32 H 0.21441 0.04653 0.36806 0.0
H33 H 0.2303 0.08116 0.38495 0.0
H34 H 0.25879 0.0309 0.39672 0.0
H35 H 0.27387 0.06518 0.41405 0.0
H36 H 0.28918 0.12036 0.49515 0.0
H37 H 0.31469 0.18965 0.49968 0.0
H38 H 0.29882 0.18972 0.46894 0.0
H39 H 0.27339 0.12054 0.4641 0.0
C40 C 0.93209 0.17001 0.37485 0.0
C41 C 0.94342 0.1851 0.38923 0.0
C42 C 0.97642 0.20152 0.37006 0.0
C43 C 0.96537 0.2007 0.38686 0.0
C44 C 0.96461 0.18725 0.35527 0.0
C45 C 0.94269 0.17159 0.35769 0.0
U46 U 0.88132 0.13624 0.40569 0.0
O47 O 0.8469 0.11563 0.39733 0.0
O48 O 0.86428 0.10118 0.41146 0.0
C49 C 0.84619 0.09769 0.40332 0.0
C50 C 0.91018 0.15124 0.37819 0.0
C51 C 0.83515 0.07808 0.39124 0.0
C52 C 0.83588 0.0494 0.37285 0.0
C53 C 0.84676 0.0701 0.3812 0.0
C54 C 0.80158 0.04496 0.38345 0.0
C55 C 0.81316 0.03623 0.37437 0.0
C56 C 0.81246 0.06558 0.39182 0.0
C57 C 0.87885 0.15644 0.45598 0.0
C58 C 0.84813 0.14067 0.47772 0.0
C59 C 0.88403 0.16619 0.4893 0.0
C60 C 0.89241 0.16814 0.47109 0.0
C61 C 0.86176 0.15251 0.49293 0.0
C62 C 0.8566 0.14261 0.4594 0.0
C63 C 0.88866 0.15877 0.43708 0.0
O64 O 0.90919 0.13747 0.39117 0.0
O65 O 0.89406 0.15529 0.37932 0.0
O66 O 0.8782 0.16071 0.42251 0.0
O67 O 0.89668 0.14595 0.43374 0.0
H68 H 0.93555 0.18423 0.40257 0.0
H69 H 0.97392 0.21165 0.39844 0.0
H70 H 0.97264 0.18734 0.34223 0.0
H71 H 0.93425 0.16006 0.34643 0.0
H72 H 0.84544 0.04335 0.36603 0.0
H73 H 0.8643 0.07944 0.38052 0.0
H74 H 0.78407 0.03566 0.38448 0.0
H75 H 0.80315 0.07139 0.39946 0.0
H76 H 0.8309 0.13012 0.47992 0.0
H77 H 0.89517 0.17524 0.50063 0.0
H78 H 0.90964 0.17876 0.46882 0.0
H79 H 0.84583 0.13333 0.44794 0.0
C80 C 0.84738 0.76544 0.37548 0.0
C81 C 0.83277 0.76556 0.38878 0.0
C82 C 0.81534 0.776 0.36414 0.0
C83 C 0.81687 0.77074 0.38316 0.0
C84 C 0.82986 0.77541 0.35094 0.0
C85 C 0.84555 0.77013 0.35654 0.0
U86 U 0.87885 0.74676 0.40876 0.0
O87 O 0.89943 0.7328 0.40103 0.0
O88 O 0.91376 0.76438 0.4154 0.0
C89 C 0.91719 0.74954 0.40764 0.0
C90 C 0.86566 0.76214 0.38092 0.0
C91 C 0.93722 0.75748 0.39636 0.0
C92 C 0.95927 0.77376 0.36819 0.0
C93 C 0.93957 0.7661 0.37802 0.0
C94 C 0.9742 0.76416 0.39491 0.0
C95 C 0.97686 0.77283 0.37653 0.0
C96 C 0.95466 0.75657 0.40462 0.0
C97 C 0.85565 0.72099 0.45773 0.0
C98 C 0.87559 0.72376 0.48664 0.0
C99 C 0.8366 0.70045 0.48586 0.0
C100 C 0.83638 0.70604 0.46685 0.0
C101 C 0.85611 0.70987 0.49618 0.0
C102 C 0.87538 0.72922 0.46758 0.0
C103 C 0.85446 0.72961 0.43892 0.0
O104 O 0.87786 0.7741 0.39498 0.0
O105 O 0.86188 0.74199 0.38144 0.0
O106 O 0.85344 0.71806 0.42403 0.0
O107 O 0.86733 0.75062 0.43646 0.0
H108 H 0.83389 0.76199 0.40352 0.0
H109 H 0.80585 0.77067 0.39374 0.0
H110 H 0.82966 0.77973 0.33628 0.0
H111 H 0.85673 0.77029 0.34606 0.0
H112 H 0.96068 0.78025 0.35405 0.0
H113 H 0.92627 0.76696 0.37138 0.0
H114 H 0.98741 0.76362 0.40205 0.0
H115 H 0.95326 0.75012 0.41879 0.0
H116 H 0.89093 0.73103 0.49411 0.0
H117 H 0.82131 0.68979 0.49277 0.0
H118 H 0.82098 0.69947 0.45953 0.0
H119 H 0.8905 0.74063 0.46082 0.0
C120 C 0.08916 0.2471 0.64112 0.0
C121 C 0.07859 0.25702 0.63225 0.0
C122 C 0.04599 0.23515 0.65137 0.0
C123 C 0.05721 0.25113 0.63735 0.0
C124 C 0.0569 0.22545 0.66015 0.0
C125 C 0.07815 0.2314 0.65514 0.0
U126 U 0.14039 0.26848 0.60874 0.0
O127 O 0.17462 0.28292 0.6176 0.0
O128 O 0.15875 0.25181 0.60241 0.0
C129 C 0.17636 0.2665 0.61103 0.0
C130 C 0.11131 0.25199 0.63597 0.0
C131 C 0.18769 0.25804 0.62292 0.0
C132 C 0.19458 0.24524 0.6528 0.0
C133 C 0.18368 0.25385 0.64237 0.0
C134 C 0.21364 0.24521 0.62449 0.0
C135 C 0.20952 0.24054 0.6439 0.0
C136 C 0.20284 0.25379 0.61418 0.0
C137 C 0.14395 0.29337 0.55941 0.0
C138 C 0.16839 0.29527 0.53443 0.0
C139 C 0.14446 0.30987 0.529 0.0
C140 C 0.13642 0.30401 0.54745 0.0
C141 C 0.16024 0.30517 0.52205 0.0
C142 C 0.16032 0.28943 0.5529 0.0
C143 C 0.13323 0.28489 0.57788 0.0
O144 O 0.11263 0.24038 0.62213 0.0
O145 O 0.1267 0.27254 0.63542 0.0
O146 O 0.14299 0.29665 0.59291 0.0
O147 O 0.12559 0.26398 0.58061 0.0
H148 H 0.08678 0.26918 0.62135 0.0
H149 H 0.04955 0.25917 0.63036 0.0
H150 H 0.04887 0.21279 0.67066 0.0
H151 H 0.08593 0.22344 0.6621 0.0
H152 H 0.19097 0.24181 0.6677 0.0
H153 H 0.17202 0.25702 0.64942 0.0
H154 H 0.22536 0.24234 0.61721 0.0
H155 H 0.20629 0.25702 0.59922 0.0
H156 H 0.18081 0.29175 0.52975 0.0
H157 H 0.1376 0.31725 0.51994 0.0
H158 H 0.12375 0.30716 0.55216 0.0
H159 H 0.16643 0.2813 0.56192 0.0
C160 C 0.77137 0.84615 0.63994 0.0
C161 C 0.75981 0.82402 0.63489 0.0
C162 C 0.78681 0.81766 0.65102 0.0
C163 C 0.76744 0.80986 0.64045 0.0
C164 C 0.79815 0.83993 0.65577 0.0
C165 C 0.79043 0.8538 0.6505 0.0
U166 U 0.74742 0.87288 0.60626 0.0
O167 O 0.73346 0.89362 0.6136 0.0
O168 O 0.7638 0.90717 0.59744 0.0
C169 C 0.74958 0.91103 0.60575 0.0
C170 C 0.76508 0.86233 0.6341 0.0
C171 C 0.75866 0.93186 0.61603 0.0
C172 C 0.76792 0.95347 0.64482 0.0
C173 C 0.76004 0.93324 0.63586 0.0
C174 C 0.77384 0.97108 0.61426 0.0
C175 C 0.77478 0.97258 0.63406 0.0
C176 C 0.76578 0.95094 0.60538 0.0
C177 C 0.72227 0.84957 0.55803 0.0
C178 C 0.70915 0.86731 0.53634 0.0
C179 C 0.7156 0.83879 0.52505 0.0
C180 C 0.72208 0.8365 0.54317 0.0
C181 C 0.70901 0.85419 0.52134 0.0
C182 C 0.71576 0.86504 0.55455 0.0
C183 C 0.73075 0.84771 0.57658 0.0
O184 O 0.77613 0.8749 0.61988 0.0
O185 O 0.74436 0.85647 0.63369 0.0
O186 O 0.71922 0.84648 0.59155 0.0
O187 O 0.75164 0.86079 0.57893 0.0
H188 H 0.74506 0.81774 0.62661 0.0
H189 H 0.7581 0.79287 0.63654 0.0
H190 H 0.81344 0.84702 0.66327 0.0
H191 H 0.79971 0.87082 0.65444 0.0
H192 H 0.76844 0.95418 0.66013 0.0
H193 H 0.75475 0.91873 0.64438 0.0
H194 H 0.77857 0.98541 0.60563 0.0
H195 H 0.76476 0.95021 0.59007 0.0
H196 H 0.70407 0.87922 0.53403 0.0
H197 H 0.71621 0.82874 0.51383 0.0
H198 H 0.72734 0.82471 0.54549 0.0
H199 H 0.71601 0.87546 0.56584 0.0
C200 C 0.0875 0.84504 0.63783 0.0
C201 C 0.07682 0.82435 0.62941 0.0
C202 C 0.04512 0.8135 0.64975 0.0
C203 C 0.05584 0.80871 0.63533 0.0
C204 C 0.05611 0.83429 0.65807 0.0
C205 C 0.07697 0.84975 0.65223 0.0
U206 U 0.1371 0.87564 0.60368 0.0
O207 O 0.15531 0.91066 0.59779 0.0
O208 O 0.17181 0.89512 0.61157 0.0
C209 C 0.17319 0.91344 0.60584 0.0
C210 C 0.10935 0.86236 0.632 0.0
C211 C 0.18463 0.93274 0.61825 0.0
C212 C 0.18481 0.96188 0.63661 0.0
C213 C 0.17344 0.94145 0.62788 0.0
C214 C 0.21878 0.96453 0.62738 0.0
C215 C 0.20768 0.97406 0.63602 0.0
C216 C 0.20738 0.9442 0.61852 0.0
C217 C 0.1388 0.85598 0.5534 0.0
C218 C 0.16436 0.87902 0.52918 0.0
C219 C 0.13832 0.84145 0.52215 0.0
C220 C 0.13014 0.83863 0.54057 0.0
C221 C 0.15539 0.86175 0.51609 0.0
C222 C 0.15616 0.87616 0.54767 0.0
C223 C 0.12859 0.85307 0.57218 0.0
O224 O 0.12465 0.85717 0.63029 0.0
O225 O 0.10999 0.87563 0.61868 0.0
O226 O 0.12117 0.86632 0.5759 0.0
O227 O 0.13876 0.85043 0.58663 0.0
H228 H 0.08464 0.82033 0.61825 0.0
H229 H 0.04808 0.79286 0.62868 0.0
H230 H 0.04842 0.83893 0.66886 0.0
H231 H 0.08485 0.86563 0.65888 0.0
H232 H 0.17554 0.96851 0.64299 0.0
H233 H 0.15587 0.93293 0.62794 0.0
H234 H 0.23633 0.97296 0.62706 0.0
H235 H 0.21639 0.93779 0.61124 0.0
H236 H 0.17768 0.89479 0.52513 0.0
H237 H 0.13079 0.82783 0.51247 0.0
H238 H 0.11667 0.82297 0.54467 0.0
H239 H 0.16311 0.88978 0.55738 0.0
C240 C 0.9064 0.49572 0.71917 0.0
C241 C 0.91687 0.51457 0.73034 0.0
C242 C 0.89612 0.52936 0.71494 0.0
C243 C 0.91182 0.53128 0.72821 0.0
C244 C 0.8858 0.51036 0.70381 0.0
C245 C 0.89094 0.49383 0.70587 0.0
U246 U 0.92751 0.46422 0.74803 0.0
O247 O 0.91257 0.4293 0.75395 0.0
O248 O 0.94347 0.44585 0.73861 0.0
C249 C 0.9275 0.42722 0.74481 0.0
C250 C 0.91051 0.47739 0.72166 0.0
C251 C 0.9195 0.40812 0.73217 0.0
C252 C 0.89032 0.37921 0.71393 0.0
C253 C 0.89936 0.39946 0.72297 0.0
C254 C 0.92212 0.37672 0.72194 0.0
C255 C 0.90127 0.36719 0.71377 0.0
C256 C 0.93104 0.39687 0.73112 0.0
C257 C 0.95287 0.48723 0.79704 0.0
C258 C 0.95465 0.46799 0.82501 0.0
C259 C 0.9774 0.50714 0.82283 0.0
C260 C 0.96864 0.50688 0.80505 0.0
C261 C 0.97045 0.48773 0.83305 0.0
C262 C 0.94602 0.46771 0.80708 0.0
C263 C 0.94314 0.48784 0.77874 0.0
O264 O 0.93093 0.48222 0.72159 0.0
O265 O 0.899 0.46339 0.73494 0.0
O266 O 0.92253 0.4734 0.77642 0.0
O267 O 0.95491 0.49065 0.76356 0.0
H268 H 0.92883 0.51631 0.74076 0.0
H269 H 0.92032 0.54571 0.73686 0.0
H270 H 0.87334 0.50798 0.6937 0.0
H271 H 0.88256 0.47935 0.69723 0.0
H272 H 0.87425 0.37256 0.70791 0.0
H273 H 0.89015 0.40787 0.72351 0.0
H274 H 0.93142 0.36841 0.72166 0.0
H275 H 0.94665 0.40328 0.73803 0.0
H276 H 0.94913 0.45279 0.83253 0.0
H277 H 0.98936 0.52263 0.82875 0.0
H278 H 0.97401 0.52212 0.79763 0.0
H279 H 0.93387 0.45232 0.80116 0.0
C280 C 0.59809 0.5008 0.70908 0.0
C281 C 0.60821 0.51844 0.72159 0.0
C282 C 0.64204 0.53301 0.70374 0.0
C283 C 0.62998 0.53442 0.71893 0.0
C284 C 0.63144 0.51588 0.69073 0.0
C285 C 0.60972 0.49992 0.69344 0.0
U286 U 0.54731 0.46906 0.74031 0.0
O287 O 0.51302 0.44767 0.73215 0.0
O288 O 0.53051 0.43447 0.74804 0.0
C289 C 0.51223 0.43042 0.73997 0.0
C290 C 0.57629 0.48219 0.71299 0.0
C291 C 0.50019 0.40939 0.73012 0.0
C292 C 0.49703 0.38304 0.70642 0.0
C293 C 0.50788 0.40437 0.71366 0.0
C294 C 0.47077 0.37197 0.73178 0.0
C295 C 0.47873 0.36655 0.7158 0.0
C296 C 0.48133 0.39317 0.73879 0.0
C297 C 0.54225 0.49041 0.78859 0.0
C298 C 0.51974 0.46732 0.81437 0.0
C299 C 0.53714 0.5065 0.81707 0.0
C300 C 0.54608 0.50878 0.79901 0.0
C301 C 0.52426 0.48576 0.82523 0.0
C302 C 0.52861 0.46963 0.79623 0.0
C303 C 0.55359 0.49323 0.7704 0.0
O304 O 0.57542 0.46953 0.72697 0.0
O305 O 0.56003 0.48611 0.71311 0.0
O306 O 0.54364 0.49446 0.75514 0.0
O307 O 0.56239 0.4809 0.76812 0.0
H308 H 0.5995 0.51945 0.73375 0.0
H309 H 0.63756 0.54757 0.72906 0.0
H310 H 0.64024 0.51417 0.679 0.0
H311 H 0.60223 0.48638 0.68366 0.0
H312 H 0.50339 0.37923 0.694 0.0
H313 H 0.52249 0.4167 0.70681 0.0
H314 H 0.45653 0.35965 0.73909 0.0
H315 H 0.47514 0.39672 0.75148 0.0
H316 H 0.51003 0.4511 0.82013 0.0
H317 H 0.54059 0.52109 0.82475 0.0
H318 H 0.55641 0.52496 0.79334 0.0
H319 H 0.52534 0.45519 0.78839 0.0
C320 C 0.49868 0.0872 0.72436 0.0
C321 C 0.47603 0.07709 0.72545 0.0
C322 C 0.47598 0.10465 0.70474 0.0
C323 C 0.46481 0.08571 0.7158 0.0
C324 C 0.49856 0.11395 0.70256 0.0
C325 C 0.50987 0.10536 0.71239 0.0
U326 U 0.54599 0.07843 0.74216 0.0
O327 O 0.55984 0.07245 0.71647 0.0
O328 O 0.57405 0.10542 0.72797 0.0
C329 C 0.57557 0.09279 0.71523 0.0
C330 C 0.51002 0.08 0.73764 0.0
C331 C 0.59769 0.09651 0.71188 0.0
C332 C 0.63128 0.11473 0.69373 0.0
C333 C 0.60961 0.10927 0.69639 0.0
C334 C 0.62924 0.09409 0.72175 0.0
C335 C 0.64155 0.10763 0.70661 0.0
C336 C 0.60755 0.08862 0.72438 0.0
C337 C 0.54322 0.05611 0.79325 0.0
C338 C 0.54835 0.05078 0.82654 0.0
C339 C 0.51237 0.03992 0.81486 0.0
C340 C 0.52088 0.04705 0.7966 0.0
C341 C 0.52605 0.04185 0.83014 0.0
C342 C 0.55678 0.05779 0.80837 0.0
C343 C 0.55309 0.0641 0.77437 0.0
O344 O 0.52752 0.09541 0.74588 0.0
O345 O 0.51176 0.06302 0.73284 0.0
O346 O 0.54347 0.05146 0.75974 0.0
O347 O 0.5601 0.08475 0.77082 0.0
H348 H 0.46705 0.06308 0.73455 0.0
H349 H 0.4474 0.07802 0.71758 0.0
H350 H 0.5076 0.12857 0.69417 0.0
H351 H 0.52737 0.11345 0.7113 0.0
H352 H 0.64027 0.12536 0.68208 0.0
H353 H 0.60231 0.11558 0.6866 0.0
H354 H 0.63655 0.0881 0.73182 0.0
H355 H 0.59866 0.07871 0.73642 0.0
H356 H 0.55937 0.05215 0.83776 0.0
H357 H 0.49514 0.03326 0.81707 0.0
H358 H 0.51007 0.04561 0.78516 0.0
H359 H 0.57403 0.0646 0.80611 0.0
C360 C 0.75513 0.58017 0.97252 0.0
C361 C 0.7408 0.57997 0.9587 0.0
C362 C 0.71155 0.56695 0.98204 0.0
C363 C 0.71922 0.5735 0.96344 0.0
C364 C 0.72632 0.56813 0.99593 0.0
C365 C 0.74782 0.57466 0.99121 0.0
U366 U 0.80624 0.60013 0.94051 0.0
O367 O 0.84052 0.6149 0.94969 0.0
O368 O 0.82486 0.58373 0.93464 0.0
C369 C 0.84225 0.59829 0.94364 0.0
C370 C 0.77712 0.58425 0.96776 0.0
C371 C 0.85255 0.58948 0.95646 0.0
C372 C 0.84987 0.56031 0.97666 0.0
C373 C 0.84006 0.57079 0.96749 0.0
C374 C 0.88499 0.58799 0.96524 0.0
C375 C 0.87234 0.56852 0.97522 0.0
C376 C 0.87515 0.59831 0.95586 0.0
C377 C 0.8085 0.62576 0.89107 0.0
C378 C 0.82775 0.62649 0.86226 0.0
C379 C 0.81204 0.64981 0.86496 0.0
C380 C 0.80454 0.6416 0.8831 0.0
C381 C 0.82363 0.64229 0.85423 0.0
C382 C 0.82035 0.61837 0.88056 0.0
C383 C 0.79873 0.61632 0.90968 0.0
O384 O 0.77828 0.57241 0.95403 0.0
O385 O 0.79282 0.60464 0.96721 0.0
O386 O 0.80829 0.6281 0.92476 0.0
O387 O 0.79191 0.59551 0.91213 0.0
H388 H 0.7461 0.58418 0.94417 0.0
H389 H 0.70832 0.57278 0.95237 0.0
H390 H 0.72117 0.56367 0.01045 0.0
H391 H 0.75863 0.5748 1.00212 0.0
H392 H 0.8398 0.54532 0.9843 0.0
H393 H 0.82261 0.5637 0.96824 0.0
H394 H 0.90231 0.59452 0.96377 0.0
H395 H 0.88509 0.61263 0.94736 0.0
H396 H 0.83681 0.62052 0.85445 0.0
H397 H 0.80834 0.66175 0.85915 0.0
H398 H 0.79527 0.6474 0.89083 0.0
H399 H 0.82363 0.60614 0.88637 0.0
C400 C 0.43138 0.17448 0.97047 0.0
C401 C 0.42326 0.15711 0.95756 0.0
C402 C 0.44268 0.14149 0.97398 0.0
C403 C 0.42881 0.14072 0.95934 0.0
C404 C 0.45045 0.1589 0.98694 0.0
C405 C 0.44478 0.17508 0.98524 0.0
U406 U 0.4119 0.20686 0.94107 0.0
O407 O 0.39782 0.22731 0.94947 0.0
O408 O 0.42876 0.24161 0.93412 0.0
C409 C 0.41416 0.24504 0.94229 0.0
C410 C 0.42776 0.19311 0.96793 0.0
C411 C 0.42269 0.26554 0.95298 0.0
C412 C 0.44946 0.29305 0.97404 0.0
C413 C 0.43873 0.27163 0.96703 0.0
C414 C 0.42761 0.30199 0.95361 0.0
C415 C 0.44452 0.3086 0.9668 0.0
C416 C 0.41675 0.28066 0.94685 0.0
C417 C 0.38813 0.18508 0.89175 0.0
C418 C 0.37567 0.20286 0.86952 0.0
C419 C 0.38195 0.174 0.85885 0.0
C420 C 0.38804 0.17178 0.87713 0.0
C421 C 0.37565 0.18952 0.85475 0.0
C422 C 0.38191 0.20067 0.8879 0.0
C423 C 0.39611 0.18313 0.91047 0.0
O424 O 0.43971 0.20697 0.95475 0.0
O425 O 0.40749 0.1888 0.96771 0.0
O426 O 0.38409 0.18148 0.92518 0.0
O427 O 0.4169 0.1963 0.9133 0.0
H428 H 0.41297 0.15645 0.94595 0.0
H429 H 0.42229 0.12751 0.94922 0.0
H430 H 0.46152 0.16049 0.99817 0.0
H431 H 0.45141 0.18846 0.99521 0.0
H432 H 0.46241 0.29777 0.98427 0.0
H433 H 0.44361 0.26018 0.97189 0.0
H434 H 0.42333 0.3136 0.94798 0.0
H435 H 0.40447 0.27631 0.93601 0.0
H436 H 0.37078 0.21486 0.86689 0.0
H437 H 0.38261 0.16376 0.84783 0.0
H438 H 0.39306 0.15987 0.87979 0.0
H439 H 0.38206 0.21123 0.89902 0.0
C440 C 0.75439 0.17782 0.97124 0.0
C441 C 0.74088 0.1599 0.95984 0.0
C442 C 0.7124 0.14636 0.98406 0.0
C443 C 0.72009 0.14428 0.9662 0.0
C444 C 0.72627 0.1643 0.99538 0.0
C445 C 0.74695 0.17973 0.98907 0.0
U446 U 0.80342 0.20881 0.93644 0.0
O447 O 0.82114 0.24381 0.93034 0.0
O448 O 0.83813 0.2288 0.94417 0.0
C449 C 0.83917 0.24695 0.93836 0.0
C450 C 0.77587 0.19543 0.96493 0.0
C451 C 0.85055 0.2664 0.95065 0.0
C452 C 0.8512 0.29674 0.96736 0.0
C453 C 0.8396 0.27627 0.95877 0.0
C454 C 0.88483 0.2972 0.96108 0.0
C455 C 0.87407 0.30784 0.96822 0.0
C456 C 0.87322 0.27681 0.95231 0.0
C457 C 0.80582 0.18916 0.88647 0.0
C458 C 0.83223 0.21244 0.86287 0.0
C459 C 0.80546 0.17539 0.85491 0.0
C460 C 0.79695 0.17223 0.87323 0.0
C461 C 0.82308 0.19561 0.84938 0.0
C462 C 0.8237 0.20924 0.88125 0.0
C463 C 0.79536 0.186 0.90515 0.0
O464 O 0.79153 0.19076 0.96332 0.0
O465 O 0.77589 0.20808 0.9513 0.0
O466 O 0.7875 0.19892 0.90868 0.0
O467 O 0.80563 0.18371 0.9197 0.0
H468 H 0.7463 0.15811 0.946 0.0
H469 H 0.71008 0.13061 0.95712 0.0
H470 H 0.72098 0.16688 0.00899 0.0
H471 H 0.75704 0.1935 0.99806 0.0
H472 H 0.84215 0.30424 0.9725 0.0
H473 H 0.82211 0.26863 0.95776 0.0
H474 H 0.90232 0.30477 0.96188 0.0
H475 H 0.88205 0.26952 0.94619 0.0
H476 H 0.84596 0.22811 0.85921 0.0
H477 H 0.79777 0.16212 0.84491 0.0
H478 H 0.78308 0.15666 0.87693 0.0
H479 H 0.8308 0.22253 0.89128 0.0
C480 C 0.57309 0.82985 0.05123 0.0
C481 C 0.58066 0.84744 0.06384 0.0
C482 C 0.56121 0.86228 0.04627 0.0
C483 C 0.57482 0.86354 0.06136 0.0
C484 C 0.55399 0.84467 0.0336 0.0
C485 C 0.55991 0.82873 0.03604 0.0
U486 U 0.59421 0.7991 0.08126 0.0
O487 O 0.61206 0.78227 0.0728 0.0
O488 O 0.58013 0.76412 0.08642 0.0
C489 C 0.59633 0.7632 0.07845 0.0
C490 C 0.57782 0.81197 0.05408 0.0
C491 C 0.59063 0.74404 0.06639 0.0
C492 C 0.56346 0.71148 0.05008 0.0
C493 C 0.57026 0.73224 0.05755 0.0
C494 C 0.59787 0.71476 0.05894 0.0
C495 C 0.57685 0.70213 0.05148 0.0
C496 C 0.60466 0.73547 0.0663 0.0
C497 C 0.61703 0.82194 0.13102 0.0
C498 C 0.62631 0.80401 0.15587 0.0
C499 C 0.63552 0.84165 0.15944 0.0
C500 C 0.62616 0.84095 0.1419 0.0
C501 C 0.63586 0.82329 0.16657 0.0
C502 C 0.61704 0.80337 0.13811 0.0
C503 C 0.60758 0.82216 0.1125 0.0
O504 O 0.59841 0.81749 0.0549 0.0
O505 O 0.56595 0.79755 0.06697 0.0
O506 O 0.5874 0.80687 0.10963 0.0
O507 O 0.6201 0.82586 0.09768 0.0
H508 H 0.59087 0.84859 0.07569 0.0
H509 H 0.58101 0.87696 0.07124 0.0
H510 H 0.54323 0.84281 0.022 0.0
H511 H 0.55383 0.81524 0.0262 0.0
H512 H 0.54722 0.70221 0.04435 0.0
H513 H 0.55913 0.73851 0.05737 0.0
H514 H 0.60874 0.70821 0.05985 0.0
H515 H 0.62047 0.74427 0.07296 0.0
H516 H 0.6265 0.7897 0.16101 0.0
H517 H 0.64259 0.85665 0.16747 0.0
H518 H 0.62617 0.85538 0.13674 0.0
H519 H 0.61005 0.78852 0.12988 0.0
C520 C 0.26421 0.83058 0.04106 0.0
C521 C 0.27688 0.84806 0.05323 0.0
C522 C 0.30809 0.86037 0.03212 0.0
C523 C 0.29864 0.86293 0.04872 0.0
C524 C 0.295 0.84329 0.01974 0.0
C525 C 0.27334 0.82863 0.02415 0.0
U526 U 0.21355 0.80042 0.07374 0.0
O527 O 0.17904 0.78052 0.06545 0.0
O528 O 0.19543 0.76555 0.08036 0.0
C529 C 0.17762 0.76244 0.07193 0.0
C530 C 0.24212 0.81312 0.04608 0.0
C531 C 0.16646 0.74276 0.05998 0.0
C532 C 0.16729 0.71533 0.03985 0.0
C533 C 0.17799 0.73585 0.04855 0.0
C534 C 0.13323 0.70893 0.05303 0.0
C535 C 0.14482 0.7013 0.04239 0.0
C536 C 0.14395 0.72936 0.06176 0.0
C537 C 0.21147 0.8222 0.12317 0.0
C538 C 0.18106 0.80495 0.14513 0.0
C539 C 0.21607 0.83337 0.15611 0.0
C540 C 0.22452 0.83539 0.13792 0.0
C541 C 0.19422 0.81813 0.16003 0.0
C542 C 0.18962 0.80696 0.12684 0.0
C543 C 0.2215 0.82406 0.10448 0.0
O544 O 0.241 0.8001 0.05983 0.0
O545 O 0.2267 0.81822 0.04689 0.0
O546 O 0.21137 0.82601 0.08965 0.0
O547 O 0.229 0.81071 0.10166 0.0
H548 H 0.27015 0.84984 0.06639 0.0
H549 H 0.30828 0.8759 0.05858 0.0
H550 H 0.30162 0.84106 0.0067 0.0
H551 H 0.26385 0.81532 0.01454 0.0
H552 H 0.17686 0.71014 0.03184 0.0
H553 H 0.1954 0.74592 0.04696 0.0
H554 H 0.11587 0.69897 0.05492 0.0
H555 H 0.13471 0.73438 0.07047 0.0
H556 H 0.16415 0.79318 0.14757 0.0
H557 H 0.22687 0.84352 0.16721 0.0
H558 H 0.24146 0.8471 0.13544 0.0
H559 H 0.17927 0.79652 0.11564 0.0
C560 C 0.18149 0.43256 0.04167 0.0
C561 C 0.1622 0.42486 0.05204 0.0
C562 C 0.15026 0.44452 0.03105 0.0
C563 C 0.1467 0.43075 0.04675 0.0
C564 C 0.16964 0.45198 0.02077 0.0
C565 C 0.18495 0.44602 0.02599 0.0
U566 U 0.2113 0.41142 0.07466 0.0
O567 O 0.23083 0.39636 0.0662 0.0
O568 O 0.24612 0.42768 0.08105 0.0
C569 C 0.24898 0.41282 0.07258 0.0
C570 C 0.19881 0.42775 0.04701 0.0
C571 C 0.2686 0.42098 0.06061 0.0
C572 C 0.29717 0.44978 0.04169 0.0
C573 C 0.27638 0.4401 0.04977 0.0
C574 C 0.30209 0.42067 0.05414 0.0
C575 C 0.31041 0.44044 0.04429 0.0
C576 C 0.28134 0.41099 0.06216 0.0
C577 C 0.18877 0.38718 0.12423 0.0
C578 C 0.20935 0.38917 0.15251 0.0
C579 C 0.17012 0.36865 0.15321 0.0
C580 C 0.16953 0.37381 0.13414 0.0
C581 C 0.19002 0.37691 0.16284 0.0
C582 C 0.20873 0.39422 0.13339 0.0
C583 C 0.18752 0.3956 0.10534 0.0
O584 O 0.21167 0.43947 0.06084 0.0
O585 O 0.1937 0.40719 0.04779 0.0
O586 O 0.18565 0.38354 0.09057 0.0
O587 O 0.20097 0.41643 0.10251 0.0
H588 H 0.15921 0.41447 0.06425 0.0
H589 H 0.13193 0.42445 0.05494 0.0
H590 H 0.17335 0.46294 0.00889 0.0
H591 H 0.19978 0.45227 0.01786 0.0
H592 H 0.30339 0.46518 0.03434 0.0
H593 H 0.26689 0.44816 0.04839 0.0
H594 H 0.31211 0.41333 0.05652 0.0
H595 H 0.27575 0.39632 0.07052 0.0
H596 H 0.22496 0.39547 0.1594 0.0
H597 H 0.15494 0.35929 0.1607 0.0
H598 H 0.15394 0.36821 0.12737 0.0
H599 H 0.22382 0.40442 0.12602 0.0
C600 C 0.42236 0.91315 0.30626 0.0
C601 C 0.41091 0.92146 0.29634 0.0
C602 C 0.37973 0.90205 0.31757 0.0
C603 C 0.3898 0.91599 0.30196 0.0
C604 C 0.39152 0.894 0.32741 0.0
C605 C 0.41251 0.89954 0.32186 0.0
U606 U 0.47322 0.93332 0.27329 0.0
O607 O 0.50746 0.94761 0.28245 0.0
O608 O 0.49136 0.91639 0.26752 0.0
C609 C 0.50884 0.93077 0.27652 0.0
C610 C 0.44426 0.91762 0.30068 0.0
C611 C 0.51884 0.92172 0.28946 0.0
C612 C 0.51567 0.89247 0.30986 0.0
C613 C 0.5061 0.90302 0.3004 0.0
C614 C 0.55103 0.92007 0.29885 0.0
C615 C 0.53817 0.90061 0.3088 0.0
C616 C 0.54143 0.93044 0.28917 0.0
C617 C 0.4761 0.95813 0.22353 0.0
C618 C 0.50721 0.97444 0.20225 0.0
C619 C 0.47166 0.9654 0.19057 0.0
C620 C 0.46291 0.95776 0.20856 0.0
C621 C 0.4939 0.97383 0.18719 0.0
C622 C 0.49835 0.96649 0.22024 0.0
C623 C 0.46601 0.94941 0.2422 0.0
O624 O 0.44514 0.9057 0.2869 0.0
O625 O 0.45982 0.93806 0.29985 0.0
O626 O 0.47586 0.96127 0.25718 0.0
O627 O 0.45868 0.92855 0.24491 0.0
H628 H 0.41821 0.93202 0.28423 0.0
H629 H 0.38143 0.92276 0.29412 0.0
H630 H 0.38438 0.8829 0.3392 0.0
H631 H 0.421 0.89286 0.32967 0.0
H632 H 0.50542 0.87757 0.31754 0.0
H633 H 0.48865 0.89602 0.30093 0.0
H634 H 0.56838 0.92661 0.29768 0.0
H635 H 0.55157 0.94477 0.28076 0.0
H636 H 0.52439 0.98078 0.20002 0.0
H637 H 0.46108 0.96496 0.17931 0.0
H638 H 0.44572 0.95147 0.21078 0.0
H639 H 0.50884 0.96682 0.23154 0.0
C640 C 0.10204 0.50919 0.30622 0.0
C641 C 0.10068 0.49403 0.29275 0.0
C642 C 0.1178 0.48032 0.31478 0.0
C643 C 0.10845 0.47972 0.29698 0.0
C644 C 0.11775 0.49465 0.32857 0.0
C645 C 0.11009 0.50895 0.32429 0.0
U646 U 0.08024 0.53871 0.27403 0.0
O647 O 0.06748 0.56031 0.28189 0.0
O648 O 0.09745 0.57309 0.26526 0.0
C649 C 0.08367 0.57744 0.2738 0.0
C650 C 0.09773 0.52699 0.30125 0.0
C651 C 0.09305 0.59856 0.28372 0.0
C652 C 0.09953 0.62071 0.31189 0.0
C653 C 0.09231 0.60029 0.30348 0.0
C654 C 0.10911 0.63786 0.28105 0.0
C655 C 0.10777 0.63968 0.3007 0.0
C656 C 0.10173 0.61754 0.27268 0.0
C657 C 0.05185 0.51577 0.22683 0.0
C658 C 0.05124 0.53836 0.20102 0.0
C659 C 0.0305 0.4991 0.19856 0.0
C660 C 0.03757 0.49717 0.21659 0.0
C661 C 0.03772 0.51971 0.19028 0.0
C662 C 0.05822 0.5364 0.21913 0.0
C663 C 0.06111 0.51341 0.24482 0.0
O664 O 0.10857 0.53893 0.28665 0.0
O665 O 0.07747 0.5227 0.30165 0.0
O666 O 0.05066 0.51278 0.26035 0.0
O667 O 0.08224 0.52572 0.24643 0.0
H668 H 0.09449 0.4939 0.2787 0.0
H669 H 0.10812 0.469 0.28595 0.0
H670 H 0.12414 0.49524 0.34261 0.0
H671 H 0.11122 0.52044 0.33494 0.0
H672 H 0.09831 0.62166 0.3271 0.0
H673 H 0.08571 0.58589 0.31232 0.0
H674 H 0.11497 0.65208 0.27204 0.0
H675 H 0.10224 0.61657 0.2574 0.0
H676 H 0.05721 0.55447 0.19514 0.0
H677 H 0.01966 0.48436 0.19095 0.0
H678 H 0.03232 0.48111 0.22232 0.0
H679 H 0.06916 0.551 0.22686 0.0
C680 C 0.42142 0.51047 0.3039 0.0
C681 C 0.40781 0.49344 0.29171 0.0
C682 C 0.3793 0.47843 0.31588 0.0
C683 C 0.38695 0.47753 0.29766 0.0
C684 C 0.39328 0.49548 0.32798 0.0
C685 C 0.41403 0.51118 0.32208 0.0
U686 U 0.47041 0.54152 0.2695 0.0
O687 O 0.48819 0.57648 0.26312 0.0
O688 O 0.50518 0.56147 0.27692 0.0
C689 C 0.5063 0.5796 0.27096 0.0
C690 C 0.44291 0.52839 0.298 0.0
C691 C 0.51778 0.59907 0.28316 0.0
C692 C 0.51761 0.62695 0.30311 0.0
C693 C 0.50647 0.6067 0.29406 0.0
C694 C 0.55166 0.63169 0.29146 0.0
C695 C 0.54036 0.64004 0.30161 0.0
C696 C 0.54048 0.61152 0.2823 0.0
C697 C 0.47192 0.52011 0.21996 0.0
C698 C 0.49895 0.54171 0.19619 0.0
C699 C 0.47005 0.50546 0.1885 0.0
C700 C 0.46184 0.50313 0.20686 0.0
C701 C 0.4886 0.52487 0.18281 0.0
C702 C 0.49067 0.53936 0.21458 0.0
C703 C 0.46186 0.51786 0.23868 0.0
O704 O 0.45874 0.52395 0.29662 0.0
O705 O 0.44296 0.54098 0.2843 0.0
O706 O 0.45434 0.53115 0.24184 0.0
O707 O 0.47228 0.51593 0.25329 0.0
H708 H 0.4132 0.49258 0.27759 0.0
H709 H 0.37687 0.46456 0.28798 0.0
H710 H 0.38804 0.49717 0.34192 0.0
H711 H 0.42421 0.52425 0.33167 0.0
H712 H 0.50818 0.63269 0.31061 0.0
H713 H 0.48895 0.5974 0.29498 0.0
H714 H 0.56916 0.64086 0.29032 0.0
H715 H 0.54956 0.60594 0.27401 0.0
H716 H 0.5134 0.55677 0.19243 0.0
H717 H 0.46139 0.49225 0.1786 0.0
H718 H 0.44727 0.4882 0.2107 0.0
H719 H 0.49869 0.55267 0.22451 0.0
O720 O 0.47748 0.97951 0.0102 0.0
Mn721 Mn 0.50938 0.00675 0.00939 0.0
O722 O 0.46144 0.98849 0.03279 0.0
Mn723 Mn 0.48474 0.01587 0.03627 0.0
O724 O 0.54135 0.03416 0.00905 0.0
O725 O 0.52064 0.98516 1.00351 0.0
Mn726 Mn 0.5369 0.99888 0.9833 0.0
O727 O 0.50399 0.01148 0.98036 0.0
O728 O 0.56037 0.02501 0.98969 0.0
O729 O 0.51522 1.00193 0.03838 0.0
O730 O 0.50334 0.01988 0.05548 0.0
O731 O 0.54041 0.97591 0.98507 0.0
O732 O 0.52169 0.9994 0.96273 0.0
C733 C 0.4893 0.04086 0.019 0.0
C734 C 0.4608 0.97531 0.02037 0.0
C735 C 0.55921 0.03833 1.00084 0.0
C736 C 0.52785 0.97162 0.99965 0.0
C737 C 0.50908 0.007 0.96415 0.0
C738 C 0.51399 0.01018 0.05421 0.0
O739 O 0.49749 0.02828 0.01438 0.0
O740 O 0.47857 0.03692 0.0347 0.0
O741 O 0.03408 0.49954 0.00983 0.0
Mn742 Mn 1.00676 0.5039 0.01018 0.0
O743 O 0.02711 0.47576 0.03312 0.0
Mn744 Mn 0.99785 0.46605 0.035 0.0
O745 O 0.97848 0.50716 0.01024 0.0
O746 O 0.02863 0.53713 0.00554 0.0
Mn747 Mn 0.01236 0.54232 0.98938 0.0
O748 O 1.00326 0.49691 0.98099 0.0
O749 O 0.98864 0.54078 1.00079 0.0
O750 O 0.01034 0.51072 0.03993 0.0
O751 O 0.99134 0.47848 0.05453 0.0
O752 O 0.03612 0.56821 0.99052 0.0
O753 O 0.00785 0.52733 0.96707 0.0
C754 C 0.97881 0.4512 0.01053 0.0
C755 C 0.03975 0.48868 0.0207 0.0
C756 C 0.97455 0.52287 0.0077 0.0
C757 C 0.04203 0.55808 1.0023 0.0
C758 C 1.00423 0.50793 0.9662 0.0
C759 C 1.00182 0.49916 0.05503 0.0
O760 O 0.98541 0.47137 0.01533 0.0
O761 O 0.98233 0.44013 0.02323 0.0
O762 O 0.54077 0.51176 1.00265 0.0
Mn763 Mn 0.50845 0.50579 1.00441 0.0
O764 O 0.55546 0.53792 0.98047 0.0
Mn765 Mn 0.5318 0.54174 0.9773 0.0
O766 O 0.47695 0.50245 0.0058 0.0
O767 O 0.49822 0.47244 0.00953 0.0
Mn768 Mn 0.47754 0.46933 0.02575 0.0
O769 O 0.5134 0.51439 0.03347 0.0
O770 O 0.45428 0.46862 0.01407 0.0
O771 O 0.50341 0.49619 0.97528 0.0
O772 O 0.51251 0.52605 0.95882 0.0
O773 O 0.4753 0.44373 0.02779 0.0
O774 O 0.48709 0.48507 0.04767 0.0
C775 C 0.52607 0.55955 0.99688 0.0
C776 C 0.55699 0.52518 0.99233 0.0
C777 C 0.45748 0.48668 0.00807 0.0
C778 C 0.49011 0.45175 0.01478 0.0
C779 C 0.50307 0.50418 0.04846 0.0
C780 C 0.50442 0.50573 0.95949 0.0
O781 O 0.51932 0.53871 0.99958 0.0
O782 O 0.5358 0.56833 0.9811 0.0
O783 O 0.14468 0.31415 0.34166 0.0
Mn784 Mn 0.17664 0.34071 0.34261 0.0
O785 O 0.12809 0.32166 0.3647 0.0
Mn786 Mn 0.14871 0.35052 0.36779 0.0
O787 O 0.20904 0.36655 0.34345 0.0
O788 O 0.18697 0.31798 0.33778 0.0
Mn789 Mn 0.20109 0.33038 0.31632 0.0
O790 O 0.17421 0.34764 0.3136 0.0
O791 O 0.22415 0.35812 0.31964 0.0
O792 O 0.17899 0.33539 0.37225 0.0
O793 O 0.1669 0.3549 0.38766 0.0
O794 O 0.20709 0.30912 0.319 0.0
O795 O 0.18262 0.3268 0.29684 0.0
C796 C 0.15419 0.3709 0.34414 0.0
C797 C 0.12822 0.30891 0.35231 0.0
C798 C 0.2252 0.37102 0.33252 0.0
C799 C 0.19454 0.30478 0.33357 0.0
C800 C 0.17483 0.33926 0.29768 0.0
C801 C 0.1765 0.34381 0.38769 0.0
O802 O 0.16704 0.36326 0.34861 0.0
O803 O 0.13981 0.36773 0.35683 0.0
O804 O 0.70265 0.83507 0.34147 0.0
Mn805 Mn 0.67439 0.83818 0.34223 0.0
O806 O 0.69448 0.80519 0.35826 0.0
Mn807 Mn 0.66717 0.7998 0.36392 0.0
O808 O 0.64552 0.84057 0.34273 0.0
O809 O 0.69557 0.87171 0.33928 0.0
Mn810 Mn 0.67984 0.87781 0.32341 0.0
O811 O 0.67195 0.83322 0.3126 0.0
O812 O 0.6554 0.8746 0.33462 0.0
O813 O 0.6775 0.84418 0.37197 0.0
O814 O 0.66475 0.81191 0.38575 0.0
O815 O 0.70325 0.9038 0.32633 0.0
O816 O 0.67681 0.86455 0.30043 0.0
C817 C 0.64092 0.78313 0.34668 0.0
C818 C 0.70766 0.82135 0.34851 0.0
C819 C 0.64138 0.85625 0.34088 0.0
C820 C 0.7089 0.89287 0.3374 0.0
C821 C 0.67364 0.8454 0.29842 0.0
C822 C 0.672 0.83215 0.3869 0.0
O823 O 0.65361 0.80442 0.34471 0.0
O824 O 0.64586 0.77303 0.35935 0.0
O825 O 0.20896 0.84677 0.33953 0.0
Mn826 Mn 0.17637 0.84015 0.33895 0.0
O827 O 0.22508 0.87233 0.31757 0.0
Mn828 Mn 0.20134 0.87573 0.31431 0.0
O829 O 0.14378 0.83202 0.3399 0.0
O830 O 0.16588 0.80679 0.34277 0.0
Mn831 Mn 0.15783 0.80655 0.36651 0.0
O832 O 0.17951 0.85022 0.3679 0.0
O833 O 0.13291 0.80904 0.36477 0.0
O834 O 0.17297 0.83099 0.30954 0.0
O835 O 0.18426 0.86188 0.29423 0.0
O836 O 0.15489 0.7803 0.36458 0.0
O837 O 0.17917 0.82347 0.38319 0.0
C838 C 0.19353 0.89417 0.33034 0.0
C839 C 0.22567 0.8594 0.32956 0.0
C840 C 0.12907 0.8193 0.35174 0.0
C841 C 0.15956 0.78628 0.34708 0.0
C842 C 0.1828 0.84263 0.38323 0.0
C843 C 0.17545 0.84151 0.29398 0.0
O844 O 0.18573 0.87334 0.33484 0.0
O845 O 0.20702 0.90268 0.31638 0.0
O846 O 0.81124 0.6451 0.67634 0.0
Mn847 Mn 0.84258 0.67336 0.67519 0.0
O848 O 0.78775 0.65587 0.68312 0.0
Mn849 Mn 0.80979 0.6795 0.69484 0.0
O850 O 0.87458 0.69999 0.67408 0.0
O851 O 0.85396 0.65129 0.67167 0.0
Mn852 Mn 0.86558 0.66178 0.6489 0.0
O853 O 0.83839 0.67787 0.64606 0.0
O854 O 0.88862 0.68986 0.65057 0.0
O855 O 0.84648 0.6709 0.70461 0.0
O856 O 0.81983 0.67482 0.71747 0.0
O857 O 0.87228 0.64115 0.65204 0.0
O858 O 0.84596 0.65621 0.62991 0.0
C859 C 0.82402 0.70907 0.68166 0.0
C860 C 0.79161 0.64116 0.67798 0.0
C861 C 0.89033 0.70368 0.66286 0.0
C862 C 0.86192 0.63836 0.66782 0.0
C863 C 0.83831 0.66877 0.63039 0.0
C864 C 0.83586 0.67169 0.71904 0.0
O865 O 0.83145 0.69549 0.67895 0.0
O866 O 0.80801 0.70353 0.69326 0.0
O867 O 0.36734 0.16655 0.67511 0.0
Mn868 Mn 0.34001 0.171 0.67584 0.0
O869 O 0.36018 0.14335 0.69887 0.0
Mn870 Mn 0.33097 0.1335 0.70065 0.0
O871 O 0.31199 0.17471 0.67741 0.0
O872 O 0.36214 0.20464 0.67089 0.0
Mn873 Mn 0.3444 0.20649 0.65357 0.0
O874 O 0.33594 0.1625 0.64672 0.0
O875 O 0.32076 0.20613 0.66359 0.0
O876 O 0.3442 0.17819 0.70562 0.0
O877 O 0.32424 0.14598 0.71989 0.0
O878 O 0.36661 0.23273 0.65232 0.0
O879 O 0.34054 0.19187 0.63149 0.0
C880 C 0.3116 0.11824 0.67656 0.0
C881 C 0.37293 0.15591 0.68633 0.0
C882 C 0.30782 0.18992 0.67322 0.0
C883 C 0.3739 0.22541 0.6656 0.0
C884 C 0.3371 0.17266 0.63134 0.0
C885 C 0.33522 0.16662 0.72065 0.0
O886 O 0.31828 0.13852 0.68111 0.0
O887 O 0.31567 0.10747 0.68916 0.0
O888 O 0.87501 0.18005 0.67145 0.0
Mn889 Mn 0.84229 0.17285 0.67168 0.0
O890 O 0.88953 0.20309 0.64745 0.0
Mn891 Mn 0.86801 0.21039 0.6459 0.0
O892 O 0.8093 0.16466 0.6735 0.0
O893 O 0.83301 0.13973 0.67578 0.0
Mn894 Mn 0.82289 0.13833 0.69882 0.0
O895 O 0.8465 0.18353 0.70066 0.0
O896 O 0.79704 0.13845 0.6958 0.0
O897 O 0.83863 0.16491 0.64188 0.0
O898 O 0.84883 0.19648 0.62692 0.0
O899 O 0.82325 0.11367 0.69809 0.0
O900 O 0.84107 0.15523 0.71726 0.0
C901 C 0.86307 0.22507 0.6699 0.0
C902 C 0.89089 0.19127 0.66017 0.0
C903 C 0.79403 0.15063 0.68428 0.0
C904 C 0.82762 0.11949 0.68053 0.0
C905 C 0.84702 0.17504 0.71658 0.0
C906 C 0.84051 0.17593 0.62655 0.0
O907 O 0.85037 0.20454 0.66568 0.0
O908 O 0.87699 0.23639 0.65691 0.0
H909 H 0.33299 0.90515 0.03475 0.0
H910 H 0.33673 0.84765 0.0204 0.0
H911 H 0.37581 0.87065 0.01355 0.0
H912 H 0.37121 0.94032 0.99855 0.0
H913 H 0.38275 0.96406 0.01348 0.0
H914 H 0.35487 0.94315 0.01655 0.0
H915 H 0.36231 0.93927 0.05185 0.0
H916 H 0.39011 0.96026 0.0489 0.0
H917 H 0.3839 0.93399 0.05799 0.0
H918 H 0.41551 0.90043 0.00921 0.0
H919 H 0.45175 0.93404 0.00922 0.0
H920 H 0.42137 0.97137 0.02608 0.0
C921 C 0.34204 0.89741 0.03017 0.0
C922 C 0.33171 0.87457 0.02803 0.0
C923 C 0.34417 0.86513 0.02189 0.0
C924 C 0.36643 0.87806 0.01799 0.0
C925 C 0.3761 0.90053 0.02012 0.0
C926 C 0.36425 0.91012 0.02603 0.0
C927 C 0.37853 0.93457 0.02747 0.0
C928 C 0.37141 0.9462 0.01316 0.0
C929 C 0.37872 0.94248 0.04776 0.0
C930 C 0.40031 0.93713 0.02212 0.0
C931 C 0.39866 0.91743 0.01764 0.0
C932 C 0.41695 0.91597 0.0126 0.0
C933 C 0.43745 0.93511 0.01254 0.0
C934 C 0.43944 0.95529 0.01773 0.0
C935 C 0.42047 0.95617 0.02218 0.0
H936 H 0.12448 0.45365 0.05433 0.0
H937 H 0.1396 0.45158 0.99515 0.0
H938 H 0.11606 0.46649 0.98615 0.0
H939 H 0.06774 0.43631 0.04604 0.0
H940 H 0.06683 0.45308 0.06473 0.0
H941 H 0.08538 0.44278 0.06628 0.0
H942 H 0.11719 0.48222 0.07054 0.0
H943 H 0.09875 0.49264 0.06854 0.0
H944 H 0.12174 0.50249 0.0529 0.0
H945 H 0.09052 0.48218 0.98354 0.0
H946 H 0.06189 0.49219 0.98764 0.0
H947 H 0.06316 0.48298 0.04818 0.0
C948 C 0.12274 0.45608 0.03944 0.0
C949 C 0.13439 0.45174 0.02554 0.0
C950 C 0.13147 0.45531 0.00622 0.0
C951 C 0.11801 0.46373 1.00091 0.0
C952 C 0.10729 0.46839 0.01501 0.0
C953 C 0.10922 0.4643 0.03386 0.0
C954 C 0.0952 0.46974 0.04622 0.0
C955 C 0.07776 0.44926 0.05641 0.0
C956 C 0.10906 0.48786 0.06039 0.0
C957 C 0.08524 0.47766 0.03143 0.0
C958 C 0.09246 0.47694 0.01349 0.0
C959 C 0.08483 0.48288 0.99756 0.0
C960 C 0.06877 0.48883 1.00001 0.0
C961 C 0.06044 0.48858 0.01821 0.0
C962 C 0.06936 0.48355 0.03408 0.0
H963 H 0.55317 0.67861 0.02035 0.0
H964 H 0.58102 0.67247 0.07309 0.0
H965 H 0.56631 0.63334 0.067 0.0
H966 H 0.50371 0.62629 0.02142 0.0
H967 H 0.5041 0.6214 0.99645 0.0
H968 H 0.51605 0.64888 0.00514 0.0
H969 H 0.55266 0.65866 0.98935 0.0
H970 H 0.54064 0.6314 0.98024 0.0
H971 H 0.56497 0.64226 0.99434 0.0
H972 H 0.55103 0.59532 0.05398 0.0
H973 H 0.53876 0.56278 0.03365 0.0
H974 H 0.51821 0.59252 0.991 0.0
C975 C 0.55596 0.66896 0.03069 0.0
C976 C 0.56826 0.67864 0.04721 0.0
C977 C 0.57188 0.6655 0.06023 0.0
C978 C 0.56339 0.64318 0.057 0.0
C979 C 0.55122 0.63409 0.04068 0.0
C980 C 0.54768 0.64661 0.02764 0.0
C981 C 0.53537 0.63316 0.01061 0.0
C982 C 0.51351 0.63239 0.00828 0.0
C983 C 0.54924 0.64189 0.99258 0.0
C984 C 0.53229 0.61112 0.01624 0.0
C985 C 0.5416 0.61195 0.03361 0.0
C986 C 0.54301 0.59423 0.04066 0.0
C987 C 0.53549 0.57553 0.02931 0.0
C988 C 0.52632 0.57458 0.01137 0.0
C989 C 0.52416 0.5924 0.00511 0.0
H990 H 0.91428 0.34128 0.95663 0.0
H991 H 0.86261 0.32678 0.99677 0.0
H992 H 0.88156 0.36512 0.00685 0.0
H993 H 0.95717 0.37592 0.98783 0.0
H994 H 0.97375 0.39392 0.96921 0.0
H995 H 0.9548 0.36588 0.96403 0.0
H996 H 0.93752 0.37847 0.93813 0.0
H997 H 0.95597 0.40661 0.94377 0.0
H998 H 0.92712 0.39618 0.94442 0.0
H999 H 0.90611 0.40537 0.01256 0.0
H1000 H 0.93813 0.44106 0.01956 0.0
H1001 H 0.97552 0.42845 0.97849 0.0
C1002 C 0.90689 0.34597 0.96764 0.0
C1003 C 0.8865 0.33078 0.9755 0.0
C1004 C 0.87772 0.33801 0.98992 0.0
C1005 C 0.88841 0.35986 0.9958 0.0
C1006 C 0.90807 0.37444 0.98731 0.0
C1007 C 0.91751 0.36764 0.97392 0.0
C1008 C 0.93977 0.38607 0.96835 0.0
C1009 C 0.95741 0.3801 0.97263 0.0
C1010 C 0.94011 0.39219 0.94742 0.0
C1011 C 0.94168 0.40413 0.98116 0.0
C1012 C 0.92285 0.39731 0.99142 0.0
C1013 C 0.92087 0.41091 1.0045 0.0
C1014 C 0.93904 0.43142 0.0081 0.0
C1015 C 0.95916 0.43784 0.99919 0.0
C1016 C 0.96015 0.42436 0.98496 0.0
H1017 H 0.68378 0.58151 0.97048 0.0
H1018 H 0.68602 0.5315 1.00432 0.0
H1019 H 0.64709 0.51559 0.0117 0.0
H1020 H 0.6459 0.58785 1.00083 0.0
H1021 H 0.63226 0.59222 0.98121 0.0
H1022 H 0.66049 0.6001 0.9793 0.0
H1023 H 0.65212 0.57645 0.94917 0.0
H1024 H 0.62388 0.5685 0.95102 0.0
H1025 H 0.63183 0.54801 0.95013 0.0
H1026 H 0.60665 0.50421 0.01449 0.0
H1027 H 0.56952 0.49925 0.01236 0.0
H1028 H 0.59469 0.55668 0.97661 0.0
C1029 C 0.6761 0.5672 0.97943 0.0
C1030 C 0.6881 0.55784 0.98684 0.0
C1031 C 0.67735 0.53921 0.99866 0.0
C1032 C 0.65516 0.52996 1.00288 0.0
C1033 C 0.64379 0.53952 0.99527 0.0
C1034 C 0.65399 0.55783 0.98388 0.0
C1035 C 0.63819 0.56494 0.97734 0.0
C1036 C 0.64459 0.58762 0.98514 0.0
C1037 C 0.6364 0.56443 0.95563 0.0
C1038 C 0.61745 0.54749 0.98638 0.0
C1039 C 0.62088 0.53302 0.99683 0.0
C1040 C 0.60383 0.51552 0.00634 0.0
C1041 C 0.58276 0.51277 0.00505 0.0
C1042 C 0.57894 0.52738 0.99422 0.0
C1043 C 0.59673 0.54496 0.98491 0.0
H1044 H 0.44968 0.12491 0.0066 0.0
H1045 H 0.45145 0.1199 0.94556 0.0
H1046 H 0.46586 0.09462 0.9493 0.0
H1047 H 0.49973 0.12793 0.01586 0.0
H1048 H 0.49062 0.11235 0.03744 0.0
H1049 H 0.47856 0.12814 0.02969 0.0
H1050 H 0.44031 0.09376 0.03042 0.0
H1051 H 0.45219 0.07795 0.03858 0.0
H1052 H 0.43558 0.06983 0.01759 0.0
H1053 H 0.48013 0.06833 0.9611 0.0
H1054 H 0.49098 0.04505 0.9794 0.0
H1055 H 0.48499 0.07409 0.03129 0.0
C1056 C 0.45326 0.11879 0.99391 0.0
C1057 C 0.4496 0.12474 0.97579 0.0
C1058 C 0.4539 0.11554 0.95967 0.0
C1059 C 0.4623 0.10128 0.96165 0.0
C1060 C 0.4665 0.09648 0.97982 0.0
C1061 C 0.462 0.10507 0.9956 0.0
C1062 C 0.46812 0.0981 0.01364 0.0
C1063 C 0.48528 0.11781 0.0248 0.0
C1064 C 0.44785 0.08408 0.02576 0.0
C1065 C 0.47735 0.08469 0.00568 0.0
C1066 C 0.4759 0.08327 0.98621 0.0
C1067 C 0.48164 0.06971 0.97634 0.0
C1068 C 0.48811 0.05675 0.98678 0.0
C1069 C 0.48911 0.05787 0.00679 0.0
C1070 C 0.48463 0.07287 0.016 0.0
H1071 H 0.67473 0.12467 0.96286 0.0
H1072 H 0.69863 0.13181 0.02049 0.0
H1073 H 0.6612 0.10844 0.03183 0.0
H1074 H 0.62537 0.1241 0.97252 0.0
H1075 H 0.6096 0.10321 0.95548 0.0
H1076 H 0.63824 0.12094 0.95178 0.0
H1077 H 0.64404 0.08766 0.94925 0.0
H1078 H 0.61534 0.06988 0.95238 0.0
H1079 H 0.63427 0.06764 0.96793 0.0
H1080 H 0.62015 0.08347 0.03691 0.0
H1081 H 0.58094 0.05602 0.03421 0.0
H1082 H 0.58478 0.06517 0.97349 0.0
C1083 C 0.67225 0.12122 0.97786 0.0
C1084 C 0.68985 0.13057 0.99073 0.0
C1085 C 0.68553 0.12547 0.01028 0.0
C1086 C 0.66425 0.11209 0.01691 0.0
C1087 C 0.64727 0.10369 1.00387 0.0
C1088 C 0.65115 0.10777 0.98471 0.0
C1089 C 0.63031 0.09594 0.97346 0.0
C1090 C 0.62561 0.11202 0.96268 0.0
C1091 C 0.63104 0.0793 0.95997 0.0
C1092 C 0.61408 0.08474 0.98922 0.0
C1093 C 0.62403 0.08941 0.00674 0.0
C1094 C 0.6122 0.07991 0.02326 0.0
C1095 C 0.58987 0.06459 0.02168 0.0
C1096 C 0.57977 0.05895 1.0037 0.0
C1097 C 0.59199 0.06967 0.98745 0.0
H1098 H 0.90345 0.57862 1.00283 0.0
H1099 H 0.86384 0.5293 0.96185 0.0
H1100 H 0.88186 0.50825 0.97031 0.0
H1101 H 0.95162 0.57956 0.99546 0.0
H1102 H 0.95984 0.58224 0.01991 0.0
H1103 H 0.94185 0.59172 0.01233 0.0
H1104 H 0.91406 0.56736 0.03775 0.0
H1105 H 0.93193 0.55751 0.04516 0.0
H1106 H 0.90452 0.53855 0.03806 0.0
H1107 H 0.90681 0.49456 0.9807 0.0
H1108 H 0.93866 0.49135 0.99006 0.0
H1109 H 0.9618 0.549 0.02469 0.0
C1110 C 0.89832 0.56314 0.996 0.0
C1111 C 0.88208 0.55536 0.98186 0.0
C1112 C 0.87596 0.53526 0.97296 0.0
C1113 C 0.88607 0.52319 0.97771 0.0
C1114 C 0.902 0.53118 0.99174 0.0
C1115 C 0.908 0.55064 1.00087 0.0
C1116 C 0.92649 0.55621 0.01458 0.0
C1117 C 0.94611 0.57876 0.01029 0.0
C1118 C 0.91879 0.55483 0.0351 0.0
C1119 C 0.93121 0.53794 0.01047 0.0
C1120 C 0.91636 0.52319 0.99781 0.0
C1121 C 0.91822 0.50571 0.99097 0.0
C1122 C 0.93623 0.50381 0.99654 0.0
C1123 C 0.95235 0.51958 0.00848 0.0
C1124 C 0.94933 0.53635 0.01603 0.0
H1125 H 0.45171 0.32836 1.00165 0.0
H1126 H 0.46682 0.34172 0.94212 0.0
H1127 H 0.48652 0.38125 0.94862 0.0
H1128 H 0.44025 0.37065 0.0082 0.0
H1129 H 0.45077 0.377 0.03197 0.0
H1130 H 0.44055 0.34996 0.02288 0.0
H1131 H 0.47721 0.35221 0.03069 0.0
H1132 H 0.48763 0.37942 0.03963 0.0
H1133 H 0.502 0.37427 0.02123 0.0
H1134 H 0.49996 0.41952 0.96098 0.0
H1135 H 0.50462 0.45212 0.97819 0.0
H1136 H 0.48343 0.41389 0.02978 0.0
C1137 C 0.45972 0.33965 0.99013 0.0
C1138 C 0.45798 0.33207 0.97141 0.0
C1139 C 0.46807 0.34729 0.95656 0.0
C1140 C 0.47937 0.36975 0.96013 0.0
C1141 C 0.4805 0.37684 0.97868 0.0
C1142 C 0.47096 0.3622 0.99345 0.0
C1143 C 0.47248 0.37396 0.01171 0.0
C1144 C 0.44967 0.36752 0.01911 0.0
C1145 C 0.48563 0.36971 0.0267 0.0
C1146 C 0.48442 0.39741 0.00491 0.0
C1147 C 0.48884 0.39886 0.98581 0.0
C1148 C 0.4971 0.41868 0.97607 0.0
C1149 C 0.49996 0.43724 0.98595 0.0
C1150 C 0.49464 0.43573 0.00535 0.0
C1151 C 0.48796 0.41577 0.01498 0.0
H1152 H 0.11155 0.66411 0.05864 0.0
H1153 H 0.15243 0.68659 0.0087 0.0
H1154 H 0.1347 0.6489 0.99672 0.0
H1155 H 0.10807 0.61074 0.06264 0.0
H1156 H 0.08 0.59719 0.06971 0.0
H1157 H 0.09765 0.62543 0.0756 0.0
H1158 H 0.07163 0.63597 0.05893 0.0
H1159 H 0.05368 0.60776 0.05357 0.0
H1160 H 0.06361 0.62766 0.03479 0.0
H1161 H 0.11132 0.60896 0.98943 0.0
H1162 H 0.07971 0.5726 0.98402 0.0
H1163 H 0.05225 0.57642 0.03741 0.0
C1164 C 0.11684 0.66123 0.04515 0.0
C1165 C 0.13372 0.67852 0.03479 0.0
C1166 C 0.14002 0.67372 0.01723 0.0
C1167 C 0.13001 0.65229 0.01029 0.0
C1168 C 0.1137 0.63567 0.02104 0.0
C1169 C 0.10691 0.63998 0.03794 0.0
C1170 C 0.08763 0.61962 0.04588 0.0
C1171 C 0.0937 0.61285 0.06457 0.0
C1172 C 0.06797 0.62295 0.04842 0.0
C1173 C 0.08388 0.60335 0.03035 0.0
C1174 C 0.09967 0.61276 0.01653 0.0
C1175 C 0.09909 0.60137 1.0003 0.0
C1176 C 0.08123 0.58048 0.99751 0.0
C1177 C 0.06381 0.57132 0.01057 0.0
C1178 C 0.06574 0.58251 0.02763 0.0
H1179 H 0.33127 0.44221 0.01074 0.0
H1180 H 0.34232 0.46611 0.06833 0.0
H1181 H 0.38186 0.48636 0.06257 0.0
H1182 H 0.37438 0.43211 0.00813 0.0
H1183 H 0.38176 0.44096 0.98398 0.0
H1184 H 0.35437 0.43104 0.99176 0.0
H1185 H 0.35675 0.46701 0.9805 0.0
H1186 H 0.3844 0.47717 0.97302 0.0
H1187 H 0.37807 0.49259 0.98946 0.0
H1188 H 0.41991 0.50272 0.05132 0.0
H1189 H 0.45413 0.50827 0.03757 0.0
H1190 H 0.41936 0.4715 0.98805 0.0
C1191 C 0.3421 0.45209 0.02193 0.0
C1192 C 0.33389 0.45304 0.03989 0.0
C1193 C 0.34841 0.46559 0.05442 0.0
C1194 C 0.37084 0.47721 0.05123 0.0
C1195 C 0.37855 0.47619 0.03337 0.0
C1196 C 0.36469 0.46375 0.019 0.0
C1197 C 0.3775 0.46385 1.00176 0.0
C1198 C 0.37166 0.44061 0.9961 0.0
C1199 C 0.37396 0.47586 0.9852 0.0
C1200 C 0.40058 0.47687 0.00922 0.0
C1201 C 0.40077 0.48475 0.02714 0.0
C1202 C 0.42 0.4969 0.0372 0.0
C1203 C 0.43943 0.50025 0.02916 0.0
C1204 C 0.43947 0.49089 0.01152 0.0
C1205 C 0.41985 0.47948 1.00123 0.0
H1206 H 0.55497 0.87855 0.01296 0.0
H1207 H 0.55154 0.88389 0.07384 0.0
H1208 H 0.53857 0.91017 0.06923 0.0
H1209 H 0.57291 0.934 1.00212 0.0
H1210 H 0.55741 0.92748 0.98052 0.0
H1211 H 0.5667 0.90966 0.98923 0.0
H1212 H 0.52708 0.87757 0.98856 0.0
H1213 H 0.51763 0.89547 0.9803 0.0
H1214 H 0.50638 0.87966 1.00153 0.0
H1215 H 0.52746 0.93817 0.05707 0.0
H1216 H 0.52172 0.96496 0.03868 0.0
H1217 H 0.52802 0.9363 0.9867 0.0
C1218 C 0.55119 0.88487 0.02541 0.0
C1219 C 0.55418 0.87886 0.04377 0.0
C1220 C 0.54964 0.88829 0.05958 0.0
C1221 C 0.54202 0.9031 0.05711 0.0
C1222 C 0.53879 0.90823 0.03875 0.0
C1223 C 0.54332 0.89933 0.02322 0.0
C1224 C 0.53914 0.90763 0.00492 0.0
C1225 C 0.56029 0.92045 0.99354 0.0
C1226 C 0.5215 0.88896 0.99314 0.0
C1227 C 0.53133 0.92248 0.01247 0.0
C1228 C 0.53142 0.923 0.03199 0.0
C1229 C 0.52699 0.93755 0.04177 0.0
C1230 C 0.52345 0.95255 0.03126 0.0
C1231 C 0.52422 0.95262 0.01126 0.0
C1232 C 0.52708 0.93657 1.00198 0.0
H1233 H 1.00183 0.22831 0.3407 0.0
H1234 H 1.00563 0.2056 0.39691 0.0
H1235 H 0.04549 0.2264 0.39533 0.0
H1236 H 0.0506 0.22911 0.32141 0.0
H1237 H 0.05918 0.25375 0.30804 0.0
H1238 H 0.03072 0.23558 0.31244 0.0
H1239 H 0.02738 0.267 0.32762 0.0
H1240 H 0.05563 0.28527 0.32285 0.0
H1241 H 0.04544 0.28245 0.34663 0.0
H1242 H 0.08445 0.24932 0.38829 0.0
H1243 H 0.12037 0.27941 0.37915 0.0
H1244 H 0.09273 0.29014 0.32838 0.0
C1245 C 0.01111 0.22763 0.35259 0.0
C1246 C 1.00053 0.21522 0.36894 0.0
C1247 C 0.01327 0.21505 0.38431 0.0
C1248 C 0.03596 0.2266 0.38345 0.0
C1249 C 0.04587 0.23839 0.36712 0.0
C1250 C 0.03396 0.23942 0.35209 0.0
C1251 C 0.04892 0.25497 0.33696 0.0
C1252 C 0.04725 0.24261 0.31862 0.0
C1253 C 0.04405 0.27353 0.33332 0.0
C1254 C 0.07098 0.26318 0.34628 0.0
C1255 C 0.06874 0.25263 0.36333 0.0
C1256 C 0.08646 0.25756 0.3749 0.0
C1257 C 0.10687 0.2745 0.36948 0.0
C1258 C 0.10943 0.28666 0.35283 0.0
C1259 C 0.09136 0.28055 0.34079 0.0
H1260 H 0.80007 0.79937 0.38419 0.0
H1261 H 0.79356 0.76764 0.33012 0.0
H1262 H 0.76996 0.78146 0.3187 0.0
H1263 H 0.74411 0.78589 0.3865 0.0
H1264 H 0.75027 0.81098 0.39803 0.0
H1265 H 0.76784 0.79975 0.4013 0.0
H1266 H 0.80029 0.83625 0.38985 0.0
H1267 H 0.7826 0.84731 0.386 0.0
H1268 H 0.79912 0.84683 0.36692 0.0
H1269 H 0.74676 0.79867 0.3129 0.0
H1270 H 0.72029 0.81158 0.31558 0.0
H1271 H 0.7397 0.82992 0.37376 0.0
C1272 C 0.79362 0.79514 0.36998 0.0
C1273 C 0.79933 0.78279 0.35796 0.0
C1274 C 0.79025 0.77769 0.33948 0.0
C1275 C 0.77671 0.78544 0.33282 0.0
C1276 C 0.77205 0.79814 0.34481 0.0
C1277 C 0.7798 0.80251 0.36315 0.0
C1278 C 0.77095 0.81509 0.37362 0.0
C1279 C 0.75749 0.80215 0.39087 0.0
C1280 C 0.78934 0.83771 0.37944 0.0
C1281 C 0.75679 0.81683 0.35837 0.0
C1282 C 0.75807 0.8074 0.3417 0.0
C1283 C 0.74582 0.8063 0.32583 0.0
C1284 C 0.73107 0.81401 0.32734 0.0
C1285 C 0.72852 0.82242 0.34464 0.0
C1286 C 0.74199 0.82437 0.36015 0.0
H1287 H 0.22852 0.9961 0.39529 0.0
H1288 H 0.21803 0.02521 0.34507 0.0
H1289 H 0.19915 0.98919 0.32998 0.0
H1290 H 0.24206 0.96106 0.37095 0.0
H1291 H 0.22897 0.93895 0.38763 0.0
H1292 H 0.23904 0.9665 0.39533 0.0
H1293 H 0.20075 0.95543 0.40811 0.0
H1294 H 0.19049 0.92795 0.39984 0.0
H1295 H 0.17781 0.94329 0.3923 0.0
H1296 H 0.18131 0.9503 0.32021 0.0
H1297 H 0.17487 0.91374 0.3126 0.0
H1298 H 0.20139 0.91034 0.36688 0.0
C1299 C 0.22233 0.99502 0.3811 0.0
C1300 C 0.22445 0.0137 0.37163 0.0
C1301 C 0.21603 0.01125 0.35302 0.0
C1302 C 0.20525 0.99077 0.34427 0.0
C1303 C 0.20302 0.97274 0.3542 0.0
C1304 C 0.2118 0.97471 0.372 0.0
C1305 C 0.20905 0.95305 0.37873 0.0
C1306 C 0.2311 0.95501 0.38342 0.0
C1307 C 0.19362 0.94443 0.39576 0.0
C1308 C 0.19857 0.93894 0.36143 0.0
C1309 C 0.1942 0.95042 0.34792 0.0
C1310 C 0.1846 0.94116 0.3307 0.0
C1311 C 0.18068 0.92019 0.32664 0.0
C1312 C 0.18717 0.90895 0.3393 0.0
C1313 C 0.19544 0.9181 0.35727 0.0
H1314 H 0.57688 0.67677 0.28788 0.0
H1315 H 0.53087 0.65471 0.33438 0.0
H1316 H 0.54829 0.69215 0.34666 0.0
H1317 H 0.62274 0.71233 0.31589 0.0
H1318 H 0.63525 0.73236 0.2974 0.0
H1319 H 0.61759 0.70426 0.29141 0.0
H1320 H 0.59441 0.71566 0.27115 0.0
H1321 H 0.61165 0.74376 0.27771 0.0
H1322 H 0.58289 0.73058 0.28201 0.0
H1323 H 0.57056 0.732 0.35402 0.0
H1324 H 0.60127 0.7685 0.36083 0.0
H1325 H 0.63525 0.76425 0.31181 0.0
C1326 C 0.57044 0.67965 0.30071 0.0
C1327 C 0.552 0.66257 0.30983 0.0
C1328 C 0.54437 0.66742 0.32663 0.0
C1329 C 0.55421 0.68873 0.33377 0.0
C1330 C 0.57186 0.70518 0.3241 0.0
C1331 C 0.58028 0.7008 0.30823 0.0
C1332 C 0.60069 0.72104 0.30157 0.0
C1333 C 0.62022 0.71727 0.30159 0.0
C1334 C 0.5972 0.72817 0.28194 0.0
C1335 C 0.60289 0.73732 0.3166 0.0
C1336 C 0.58555 0.728 0.32898 0.0
C1337 C 0.5841 0.7395 0.34432 0.0
C1338 C 0.60147 0.76047 0.34787 0.0
C1339 C 0.62039 0.76956 0.33654 0.0
C1340 C 0.62065 0.75817 0.32022 0.0
H1341 H 0.34478 0.89433 0.29483 0.0
H1342 H 0.36261 0.8945 0.35366 0.0
H1343 H 0.32454 0.8803 0.36307 0.0
H1344 H 0.30655 0.91291 0.30429 0.0
H1345 H 0.28848 0.89677 0.28556 0.0
H1346 H 0.31708 0.90638 0.28369 0.0
H1347 H 0.30864 0.86668 0.27866 0.0
H1348 H 0.28002 0.85693 0.28096 0.0
H1349 H 0.29295 0.84626 0.29612 0.0
H1350 H 0.28346 0.8652 0.36606 0.0
H1351 H 0.24488 0.85558 0.36234 0.0
H1352 H 0.25494 0.86686 0.30198 0.0
C1353 C 0.34086 0.89166 0.30973 0.0
C1354 C 0.35691 0.89526 0.3234 0.0
C1355 C 0.3507 0.89135 0.34275 0.0
C1356 C 0.32904 0.88334 0.3483 0.0
C1357 C 0.3136 0.87944 0.33441 0.0
C1358 C 0.31935 0.88386 0.31555 0.0
C1359 C 0.2999 0.87918 0.30344 0.0
C1360 C 0.3032 0.90005 0.29368 0.0
C1361 C 0.2951 0.86119 0.28894 0.0
C1362 C 0.28234 0.8714 0.31838 0.0
C1363 C 0.29039 0.87141 0.33617 0.0
C1364 C 0.27701 0.86514 0.35216 0.0
C1365 C 0.25507 0.85947 0.34994 0.0
C1366 C 0.2469 0.86039 0.3319 0.0
C1367 C 0.26069 0.86593 0.31597 0.0
H1368 H 0.10648 0.43884 0.3021 0.0
H1369 H 0.15454 0.4922 0.33604 0.0
H1370 H 0.1733 0.47152 0.34199 0.0
H1371 H 0.10239 0.3959 0.32971 0.0
H1372 H 0.09995 0.37881 0.30992 0.0
H1373 H 0.09142 0.39868 0.30752 0.0
H1374 H 0.11698 0.41505 0.27863 0.0
H1375 H 0.12611 0.39558 0.28141 0.0
H1376 H 0.14548 0.4243 0.28128 0.0
H1377 H 0.18641 0.44448 0.34534 0.0
H1378 H 0.18822 0.41098 0.35071 0.0
H1379 H 0.13222 0.37528 0.31467 0.0
C1380 C 0.12114 0.44639 0.31053 0.0
C1381 C 0.12887 0.46731 0.31855 0.0
C1382 C 0.14791 0.47616 0.32989 0.0
C1383 C 0.15898 0.46465 0.33313 0.0
C1384 C 0.15112 0.4443 0.32478 0.0
C1385 C 0.1325 0.43514 0.31386 0.0
C1386 C 0.12671 0.41243 0.3075 0.0
C1387 C 0.10377 0.39546 0.31408 0.0
C1388 C 0.12895 0.4118 0.28592 0.0
C1389 C 0.14417 0.40972 0.31752 0.0
C1390 C 0.1586 0.42862 0.3268 0.0
C1391 C 0.17542 0.42972 0.33786 0.0
C1392 C 0.17665 0.41067 0.34053 0.0
C1393 C 0.16078 0.39063 0.33266 0.0
C1394 C 0.14508 0.39052 0.32022 0.0
H1395 H 0.34153 0.45807 0.29453 0.0
H1396 H 0.36559 0.46165 0.35172 0.0
H1397 H 0.32821 0.43786 0.36286 0.0
H1398 H 0.29206 0.45688 0.30608 0.0
H1399 H 0.27618 0.43712 0.28827 0.0
H1400 H 0.3048 0.45509 0.28466 0.0
H1401 H 0.3105 0.42206 0.2796 0.0
H1402 H 0.28184 0.40406 0.28272 0.0
H1403 H 0.30095 0.40089 0.29727 0.0
H1404 H 0.28747 0.41381 0.36803 0.0
H1405 H 0.24807 0.38719 0.36552 0.0
H1406 H 0.25127 0.39783 0.30496 0.0
C1407 C 0.33909 0.45373 0.30937 0.0
C1408 C 0.35674 0.46229 0.32224 0.0
C1409 C 0.35247 0.45601 0.34157 0.0
C1410 C 0.33122 0.44238 0.34808 0.0
C1411 C 0.31422 0.43482 0.33512 0.0
C1412 C 0.31799 0.43992 0.3161 0.0
C1413 C 0.29702 0.42874 0.3049 0.0
C1414 C 0.29224 0.44546 0.29542 0.0
C1415 C 0.29762 0.413 0.29027 0.0
C1416 C 0.28092 0.41657 0.32056 0.0
C1417 C 0.29104 0.4205 0.33797 0.0
C1418 C 0.27938 0.41068 0.35446 0.0
C1419 C 0.25697 0.3958 0.35298 0.0
C1420 C 0.24663 0.39074 0.33511 0.0
C1421 C 0.25874 0.40169 0.31884 0.0
H1422 H 0.57205 0.91334 0.334 0.0
H1423 H 0.52674 0.85902 0.29964 0.0
H1424 H 0.54478 0.83827 0.30909 0.0
H1425 H 0.61819 0.91105 0.32425 0.0
H1426 H 0.62941 0.91731 0.34781 0.0
H1427 H 0.61119 0.92646 0.34014 0.0
H1428 H 0.58646 0.90707 0.36893 0.0
H1429 H 0.60453 0.89752 0.37647 0.0
H1430 H 0.57622 0.8784 0.37254 0.0
H1431 H 0.57083 0.82539 0.31892 0.0
H1432 H 0.60341 0.82277 0.32692 0.0
H1433 H 0.63048 0.88436 0.35633 0.0
C1434 C 0.56569 0.89689 0.32884 0.0
C1435 C 0.54787 0.88766 0.31624 0.0
C1436 C 0.54013 0.86621 0.30956 0.0
C1437 C 0.55027 0.8543 0.31487 0.0
C1438 C 0.56786 0.86382 0.32728 0.0
C1439 C 0.57535 0.88457 0.33436 0.0
C1440 C 0.59528 0.89155 0.34659 0.0
C1441 C 0.61465 0.91284 0.33924 0.0
C1442 C 0.59032 0.89377 0.36736 0.0
C1443 C 0.59879 0.87225 0.3441 0.0
C1444 C 0.5825 0.85613 0.33334 0.0
C1445 C 0.58338 0.83765 0.32777 0.0
C1446 C 0.60183 0.83611 0.33258 0.0
C1447 C 0.61923 0.8531 0.34259 0.0
C1448 C 0.61713 0.87084 0.34911 0.0
H1449 H 0.14453 0.6798 0.29561 0.0
H1450 H 0.08232 0.64773 0.32421 0.0
H1451 H 0.08784 0.68349 0.33429 0.0
H1452 H 0.17289 0.72073 0.33117 0.0
H1453 H 0.18896 0.74188 0.31438 0.0
H1454 H 0.17944 0.71386 0.30852 0.0
H1455 H 0.16153 0.7185 0.27822 0.0
H1456 H 0.17048 0.74642 0.28431 0.0
H1457 H 0.14211 0.72769 0.28023 0.0
H1458 H 0.09776 0.72241 0.33747 0.0
H1459 H 0.11694 0.76127 0.34533 0.0
H1460 H 0.17598 0.76862 0.32057 0.0
C1461 C 0.13217 0.68037 0.3041 0.0
C1462 C 0.11284 0.661 0.30895 0.0
C1463 C 0.09718 0.66232 0.32031 0.0
C1464 C 0.10005 0.68258 0.32586 0.0
C1465 C 0.11883 0.70137 0.32018 0.0
C1466 C 0.13504 0.7005 0.31024 0.0
C1467 C 0.15439 0.72323 0.3074 0.0
C1468 C 0.17515 0.72503 0.31589 0.0
C1469 C 0.15731 0.72931 0.28629 0.0
C1470 C 0.14694 0.73689 0.31816 0.0
C1471 C 0.12579 0.72393 0.32424 0.0
C1472 C 0.11445 0.73263 0.33314 0.0
C1473 C 0.12545 0.75486 0.33724 0.0
C1474 C 0.14801 0.76802 0.33368 0.0
C1475 C 0.15875 0.75911 0.3233 0.0
H1476 H 0.77827 1.00049 0.39059 0.0
H1477 H 0.82182 0.0194 0.34247 0.0
H1478 H 0.80361 0.98111 0.33194 0.0
H1479 H 0.77268 0.94683 0.39859 0.0
H1480 H 0.74427 0.93434 0.40431 0.0
H1481 H 0.76222 0.96275 0.40936 0.0
H1482 H 0.73804 0.97334 0.38961 0.0
H1483 H 0.71974 0.94499 0.38513 0.0
H1484 H 0.7312 0.96375 0.36561 0.0
H1485 H 0.7793 0.94091 0.3257 0.0
H1486 H 0.74706 0.90483 0.32065 0.0
H1487 H 0.71827 0.91239 0.37177 0.0
C1488 C 0.78405 0.9967 0.3778 0.0
C1489 C 0.80177 0.01314 0.36753 0.0
C1490 C 0.80869 0.00718 0.35091 0.0
C1491 C 0.79843 0.9854 0.34481 0.0
C1492 C 0.78127 0.96962 0.35548 0.0
C1493 C 0.77392 0.9751 0.37145 0.0
C1494 C 0.75388 0.95551 0.37941 0.0
C1495 C 0.75855 0.94951 0.39909 0.0
C1496 C 0.73458 0.95965 0.37995 0.0
C1497 C 0.7505 0.93828 0.36498 0.0
C1498 C 0.76692 0.94657 0.35165 0.0
C1499 C 0.76659 0.93417 0.33624 0.0
C1500 C 0.74837 0.91343 0.33368 0.0
C1501 C 0.73046 0.90544 0.34617 0.0
C1502 C 0.73212 0.91759 0.36253 0.0
H1503 H 1.00377 0.75539 0.37677 0.0
H1504 H 0.99875 0.80978 0.35441 0.0
H1505 H 0.03626 0.8261 0.34215 0.0
H1506 H 0.05545 0.7855 0.3945 0.0
H1507 H 0.06386 0.76598 0.38901 0.0
H1508 H 0.03566 0.75694 0.3929 0.0
H1509 H 0.02615 0.73825 0.36005 0.0
H1510 H 0.0544 0.74719 0.35609 0.0
H1511 H 0.03956 0.75392 0.33925 0.0
H1512 H 0.0765 0.83848 0.33551 0.0
H1513 H 0.11437 0.84536 0.33572 0.0
H1514 H 0.09241 0.78348 0.364 0.0
C1515 C 0.0104 0.77063 0.36912 0.0
C1516 C 0.99823 0.78131 0.3667 0.0
C1517 C 0.00756 0.80109 0.35632 0.0
C1518 C 0.02894 0.81055 0.34936 0.0
C1519 C 0.04077 0.79997 0.35272 0.0
C1520 C 0.03165 0.78029 0.36223 0.0
C1521 C 0.04804 0.77292 0.36548 0.0
C1522 C 0.05092 0.77019 0.38673 0.0
C1523 C 0.04165 0.75182 0.35456 0.0
C1524 C 0.06812 0.79196 0.35714 0.0
C1525 C 0.06365 0.80723 0.34942 0.0
C1526 C 0.08007 0.82651 0.34143 0.0
C1527 C 0.10155 0.83033 0.34163 0.0
C1528 C 0.10645 0.81514 0.35011 0.0
C1529 C 0.08933 0.7956 0.35763 0.0
H1530 H 0.23184 0.23063 0.38727 0.0
H1531 H 0.20523 0.18929 0.33778 0.0
H1532 H 0.18868 0.21071 0.32748 0.0
H1533 H 0.1882 0.24234 0.39489 0.0
H1534 H 0.20559 0.27074 0.40029 0.0
H1535 H 0.21443 0.25142 0.40543 0.0
H1536 H 0.24905 0.2736 0.38531 0.0
H1537 H 0.24068 0.29333 0.38073 0.0
H1538 H 0.24652 0.28065 0.36128 0.0
H1539 H 0.17226 0.23389 0.32352 0.0
H1540 H 0.16802 0.26595 0.31902 0.0
H1541 H 0.20976 0.29708 0.36726 0.0
C1542 C 0.22262 0.22613 0.37423 0.0
C1543 C 0.21894 0.20735 0.36393 0.0
C1544 C 0.20729 0.20264 0.34663 0.0
C1545 C 0.19781 0.21478 0.34056 0.0
C1546 C 0.20052 0.23218 0.35159 0.0
C1547 C 0.21344 0.23858 0.36756 0.0
C1548 C 0.21552 0.25959 0.37539 0.0
C1549 C 0.20534 0.25579 0.39518 0.0
C1550 C 0.23936 0.27788 0.37568 0.0
C1551 C 0.20218 0.26408 0.361 0.0
C1552 C 0.19288 0.24735 0.34802 0.0
C1553 C 0.17953 0.24718 0.33352 0.0
C1554 C 0.17685 0.26532 0.33131 0.0
C1555 C 0.18815 0.28384 0.34298 0.0
C1556 C 0.20033 0.28289 0.35852 0.0
H1557 H 0.6669 0.55338 0.67201 0.0
H1558 H 0.67143 0.54643 0.73263 0.0
H1559 H 0.71122 0.56894 0.7308 0.0
H1560 H 0.71701 0.55298 0.6596 0.0
H1561 H 0.72443 0.57312 0.64122 0.0
H1562 H 0.69623 0.55506 0.64669 0.0
H1563 H 0.69066 0.58805 0.65252 0.0
H1564 H 0.71863 0.60607 0.64659 0.0
H1565 H 0.70817 0.60889 0.66897 0.0
H1566 H 0.75035 0.59112 0.72261 0.0
H1567 H 0.78566 0.61928 0.71013 0.0
H1568 H 0.75631 0.61522 0.65543 0.0
C1569 C 0.6763 0.5565 0.68487 0.0
C1570 C 0.66597 0.54797 0.70247 0.0
C1571 C 0.67886 0.55281 0.71901 0.0
C1572 C 0.70153 0.56535 0.71808 0.0
C1573 C 0.7112 0.57305 0.7005 0.0
C1574 C 0.69903 0.56929 0.68424 0.0
C1575 C 0.71354 0.58102 0.66744 0.0
C1576 C 0.71275 0.56456 0.65287 0.0
C1577 C 0.70738 0.59696 0.65836 0.0
C1578 C 0.7356 0.59281 0.67702 0.0
C1579 C 0.7339 0.58708 0.69592 0.0
C1580 C 0.75191 0.59565 0.70782 0.0
C1581 C 0.77198 0.61139 0.70053 0.0
C1582 C 0.7738 0.61896 0.68171 0.0
C1583 C 0.75549 0.60916 0.66966 0.0
H1584 H 0.44951 0.11439 0.72476 0.0
H1585 H 0.47614 0.12025 0.66863 0.0
H1586 H 0.45529 0.13784 0.6574 0.0
H1587 H 0.39665 0.10127 0.71062 0.0
H1588 H 0.39338 0.1162 0.72971 0.0
H1589 H 0.41097 0.10495 0.73261 0.0
H1590 H 0.4427 0.14326 0.74129 0.0
H1591 H 0.42522 0.15467 0.73815 0.0
H1592 H 0.45026 0.16561 0.72511 0.0
H1593 H 0.42798 0.1525 0.65238 0.0
H1594 H 0.39853 0.16181 0.65453 0.0
H1595 H 0.39367 0.14843 0.71472 0.0
C1596 C 0.45099 0.11936 0.71008 0.0
C1597 C 0.46427 0.11578 0.69753 0.0
C1598 C 0.46603 0.12285 0.6785 0.0
C1599 C 0.45424 0.13284 0.67202 0.0
C1600 C 0.44112 0.13601 0.68487 0.0
C1601 C 0.4397 0.12954 0.70355 0.0
C1602 C 0.4244 0.13415 0.7147 0.0
C1603 C 0.40522 0.11289 0.72235 0.0
C1604 C 0.43637 0.1504 0.73076 0.0
C1605 C 0.41718 0.14415 0.69947 0.0
C1606 C 0.42673 0.14508 0.68224 0.0
C1607 C 0.42076 0.15216 0.66593 0.0
C1608 C 0.40418 0.15766 0.66727 0.0
C1609 C 0.39389 0.15607 0.68481 0.0
C1610 C 0.40127 0.15004 0.70109 0.0
H1611 H 0.90522 0.33236 0.72657 0.0
H1612 H 0.87296 0.35002 0.68353 0.0
H1613 H 0.85336 0.31193 0.67265 0.0
H1614 H 0.91499 0.29796 0.69712 0.0
H1615 H 0.91116 0.27896 0.71577 0.0
H1616 H 0.92028 0.30693 0.72138 0.0
H1617 H 0.88793 0.29416 0.74464 0.0
H1618 H 0.87849 0.26616 0.73849 0.0
H1619 H 0.86065 0.27726 0.73605 0.0
H1620 H 0.83718 0.27171 0.66635 0.0
H1621 H 0.83359 0.23603 0.65916 0.0
H1622 H 0.8799 0.24593 0.70325 0.0
C1623 C 0.89415 0.3284 0.71478 0.0
C1624 C 0.89044 0.34439 0.70623 0.0
C1625 C 0.87568 0.33814 0.69083 0.0
C1626 C 0.86441 0.31646 0.68452 0.0
C1627 C 0.86807 0.30109 0.69364 0.0
C1628 C 0.88303 0.30693 0.7081 0.0
C1629 C 0.88574 0.28786 0.71416 0.0
C1630 C 0.90944 0.29325 0.71195 0.0
C1631 C 0.87773 0.28096 0.73455 0.0
C1632 C 0.87076 0.27063 0.70022 0.0
C1633 C 0.85991 0.27829 0.68915 0.0
C1634 C 0.84547 0.26552 0.67505 0.0
C1635 C 0.84317 0.24502 0.67131 0.0
C1636 C 0.85596 0.23789 0.68103 0.0
C1637 C 0.86922 0.2505 0.69618 0.0
H1638 H 0.24556 0.00894 0.62225 0.0
H1639 H 0.19759 0.9915 0.66672 0.0
H1640 H 0.21606 0.02971 0.6773 0.0
H1641 H 0.29067 0.04427 0.65069 0.0
H1642 H 0.30478 0.063 0.63165 0.0
H1643 H 0.28622 0.03485 0.62655 0.0
H1644 H 0.26521 0.04666 0.60379 0.0
H1645 H 0.28354 0.07484 0.60936 0.0
H1646 H 0.25475 0.06348 0.61258 0.0
H1647 H 0.23988 0.07012 0.68309 0.0
H1648 H 0.2716 0.10632 0.68907 0.0
H1649 H 0.30613 0.09647 0.64337 0.0
C1650 C 0.23889 0.01297 0.6343 0.0
C1651 C 0.21971 0.99698 0.64335 0.0
C1652 C 0.21177 1.00335 0.65906 0.0
C1653 C 0.22218 0.0251 0.66521 0.0
C1654 C 0.24067 0.04045 0.65562 0.0
C1655 C 0.24925 0.03453 0.64082 0.0
C1656 C 0.27049 0.05367 0.63411 0.0
C1657 C 0.28914 0.04865 0.63587 0.0
C1658 C 0.26836 0.06003 0.61375 0.0
C1659 C 0.27299 0.07113 0.64794 0.0
C1660 C 0.25513 0.0634 0.6597 0.0
C1661 C 0.25384 0.07635 0.67386 0.0
C1662 C 0.2718 0.09715 0.6769 0.0
C1663 C 0.29114 0.10451 0.66635 0.0
C1664 C 0.29132 0.09166 0.65116 0.0
H1665 H 0.01262 0.23124 0.62827 0.0
H1666 H 0.02675 0.22297 0.68652 0.0
H1667 H 0.98823 0.20807 0.69469 0.0
H1668 H 0.97404 0.24891 0.64018 0.0
H1669 H 0.95707 0.23562 0.61998 0.0
H1670 H 0.98574 0.24524 0.61889 0.0
H1671 H 0.97747 0.20653 0.60954 0.0
H1672 H 0.94877 0.19668 0.611 0.0
H1673 H 0.96069 0.18381 0.62473 0.0
H1674 H 0.94719 0.19302 0.69643 0.0
H1675 H 0.90886 0.18379 0.69213 0.0
H1676 H 0.92229 0.20324 0.63324 0.0
C1677 C 0.00778 0.22658 0.64281 0.0
C1678 C 0.02292 0.228 0.65661 0.0
C1679 C 0.01555 0.22153 0.67546 0.0
C1680 C 0.99363 0.2131 0.68032 0.0
C1681 C 0.97909 0.21138 0.66626 0.0
C1682 C 0.98597 0.21831 0.64796 0.0
C1683 C 0.96727 0.21548 0.63563 0.0
C1684 C 0.97127 0.23763 0.62824 0.0
C1685 C 0.96332 0.19968 0.61926 0.0
C1686 C 0.94879 0.20574 0.64979 0.0
C1687 C 0.95582 0.20333 0.66737 0.0
C1688 C 0.94154 0.19489 0.6827 0.0
C1689 C 0.91973 0.18949 0.68011 0.0
C1690 C 0.91245 0.19274 0.66239 0.0
C1691 C 0.92723 0.20052 0.64701 0.0
H1692 H 0.78337 0.78071 0.63316 0.0
H1693 H 0.80981 0.82082 0.68336 0.0
H1694 H 0.82943 0.80164 0.69124 0.0
H1695 H 0.77315 0.73144 0.65768 0.0
H1696 H 0.77859 0.71988 0.63716 0.0
H1697 H 0.76855 0.73853 0.63429 0.0
H1698 H 0.8015 0.7624 0.6128 0.0
H1699 H 0.81209 0.74422 0.61635 0.0
H1700 H 0.82859 0.77271 0.62189 0.0
H1701 H 0.84747 0.77947 0.69357 0.0
H1702 H 0.85219 0.74749 0.69687 0.0
H1703 H 0.81073 0.71791 0.64828 0.0
C1704 C 0.79322 0.7855 0.64584 0.0
C1705 C 0.79586 0.80333 0.65698 0.0
C1706 C 0.80846 0.80832 0.67378 0.0
C1707 C 0.81971 0.79742 0.67849 0.0
C1708 C 0.81782 0.78094 0.66665 0.0
C1709 C 0.80414 0.77426 0.65116 0.0
C1710 C 0.80283 0.75402 0.64243 0.0
C1711 C 0.77939 0.73483 0.64294 0.0
C1712 C 0.81178 0.75862 0.62216 0.0
C1713 C 0.81765 0.75031 0.65565 0.0
C1714 C 0.82678 0.76663 0.66901 0.0
C1715 C 0.84048 0.76661 0.68315 0.0
C1716 C 0.84351 0.74857 0.68466 0.0
C1717 C 0.83231 0.73044 0.67258 0.0
C1718 C 0.82021 0.7319 0.65723 0.0
H1719 H 0.01097 0.78346 0.62784 0.0
H1720 H 0.02753 0.80677 0.68559 0.0
H1721 H 0.98941 0.78314 0.69503 0.0
H1722 H 0.95939 0.77912 0.62575 0.0
H1723 H 0.94675 0.75411 0.61247 0.0
H1724 H 0.97542 0.77266 0.61016 0.0
H1725 H 0.9836 0.74206 0.61949 0.0
H1726 H 0.95493 0.72331 0.62144 0.0
H1727 H 0.97259 0.72716 0.64117 0.0
H1728 H 0.94832 0.75745 0.69794 0.0
H1729 H 0.90958 0.72904 0.69449 0.0
H1730 H 0.92085 0.72217 0.63528 0.0
C1731 C 1.00677 0.78343 0.64255 0.0
C1732 C 0.02243 0.79743 0.65583 0.0
C1733 C 0.01589 0.79676 0.67493 0.0
C1734 C 0.99422 0.78326 0.6805 0.0
C1735 C 0.97912 0.77021 0.66692 0.0
C1736 C 0.98524 0.7699 0.64841 0.0
C1737 C 0.96605 0.75401 0.63662 0.0
C1738 C 0.96165 0.76568 0.62029 0.0
C1739 C 0.9695 0.73554 0.62925 0.0
C1740 C 0.94814 0.74575 0.65126 0.0
C1741 C 0.95588 0.75525 0.66867 0.0
C1742 C 0.94213 0.74989 0.68434 0.0
C1743 C 0.92008 0.73392 0.68223 0.0
C1744 C 0.9121 0.72343 0.66463 0.0
C1745 C 0.92637 0.72988 0.64895 0.0
H1746 H 0.21807 0.20894 0.63151 0.0
H1747 H 0.2269 0.24993 0.68 0.0
H1748 H 0.2479 0.23521 0.69607 0.0
H1749 H 0.21476 0.16213 0.65706 0.0
H1750 H 0.23003 0.15749 0.63918 0.0
H1751 H 0.21334 0.16905 0.63273 0.0
H1752 H 0.24657 0.20231 0.6175 0.0
H1753 H 0.2631 0.19056 0.62353 0.0
H1754 H 0.27084 0.21765 0.63137 0.0
H1755 H 0.27211 0.21926 0.70492 0.0
H1756 H 0.29848 0.20605 0.70442 0.0
H1757 H 0.27318 0.17541 0.65038 0.0
C1758 C 0.22421 0.21472 0.64559 0.0
C1759 C 0.22073 0.2306 0.65446 0.0
C1760 C 0.22902 0.23755 0.67297 0.0
C1761 C 0.241 0.22928 0.68221 0.0
C1762 C 0.24436 0.21384 0.67288 0.0
C1763 C 0.23616 0.20669 0.65494 0.0
C1764 C 0.24361 0.19166 0.64709 0.0
C1765 C 0.22428 0.16872 0.64382 0.0
C1766 C 0.25681 0.20111 0.62881 0.0
C1767 C 0.25774 0.19175 0.66317 0.0
C1768 C 0.25782 0.20441 0.67808 0.0
C1769 C 0.27163 0.2088 0.69357 0.0
C1770 C 0.28635 0.20095 0.69334 0.0
C1771 C 0.28711 0.18883 0.67777 0.0
C1772 C 0.27206 0.18356 0.66291 0.0
H1773 H 0.81055 0.01292 0.62706 0.0
H1774 H 0.75242 0.98001 0.6614 0.0
H1775 H 0.75875 0.01554 0.67299 0.0
H1776 H 0.84298 0.05471 0.66143 0.0
H1777 H 0.85639 0.07585 0.64394 0.0
H1778 H 0.84696 0.04791 0.63777 0.0
H1779 H 0.82478 0.05124 0.6101 0.0
H1780 H 0.8338 0.0791 0.61647 0.0
H1781 H 0.80523 0.05973 0.61495 0.0
H1782 H 0.76723 0.05396 0.67559 0.0
H1783 H 0.7853 0.09315 0.6815 0.0
H1784 H 0.84289 0.10206 0.65245 0.0
C1785 C 0.79933 0.01325 0.63719 0.0
C1786 C 0.78081 0.99372 0.64317 0.0
C1787 C 0.76662 0.99473 0.65661 0.0
C1788 C 0.76994 0.01483 0.66306 0.0
C1789 C 0.78773 0.03376 0.6562 0.0
C1790 C 0.80275 0.03323 0.64426 0.0
C1791 C 0.82123 0.05618 0.64019 0.0
C1792 C 0.84319 0.05882 0.64621 0.0
C1793 C 0.82128 0.06189 0.61918 0.0
C1794 C 0.81464 0.06956 0.65238 0.0
C1795 C 0.79448 0.05619 0.66032 0.0
C1796 C 0.78331 0.06451 0.67 0.0
C1797 C 0.79363 0.08692 0.67292 0.0
C1798 C 0.81569 0.10069 0.66777 0.0
C1799 C 0.82611 0.09205 0.65661 0.0
H1800 H 0.45963 0.34905 0.68164 0.0
H1801 H 0.47304 0.33196 0.73691 0.0
H1802 H 0.45128 0.29284 0.72891 0.0
H1803 H 0.40521 0.30789 0.68096 0.0
H1804 H 0.40421 0.30285 0.65591 0.0
H1805 H 0.42314 0.32926 0.66511 0.0
H1806 H 0.45481 0.32703 0.64934 0.0
H1807 H 0.43594 0.30055 0.64009 0.0
H1808 H 0.45857 0.30415 0.65432 0.0
H1809 H 0.42339 0.25511 0.71623 0.0
H1810 H 0.39311 0.2235 0.69971 0.0
H1811 H 0.40063 0.26598 0.65244 0.0
C1812 C 0.45852 0.33705 0.69178 0.0
C1813 C 0.46817 0.34343 0.70979 0.0
C1814 C 0.4658 0.32729 0.72298 0.0
C1815 C 0.45351 0.30506 0.71855 0.0
C1816 C 0.44365 0.29916 0.70084 0.0
C1817 C 0.44616 0.31476 0.68762 0.0
C1818 C 0.43229 0.30431 0.67035 0.0
C1819 C 0.41521 0.3115 0.66795 0.0
C1820 C 0.44625 0.3093 0.65247 0.0
C1821 C 0.42179 0.28051 0.67584 0.0
C1822 C 0.42824 0.27766 0.69351 0.0
C1823 C 0.41855 0.2571 0.70217 0.0
C1824 C 0.40145 0.23917 0.6927 0.0
C1825 C 0.39442 0.24204 0.67474 0.0
C1826 C 0.40549 0.26291 0.66611 0.0
H1827 H 0.66702 0.11267 0.67487 0.0
H1828 H 0.67037 0.12212 0.73575 0.0
H1829 H 0.7099 0.13795 0.73465 0.0
H1830 H 0.70748 0.09683 0.67186 0.0
H1831 H 0.71917 0.11107 0.65002 0.0
H1832 H 0.6911 0.10171 0.65519 0.0
H1833 H 0.69797 0.14084 0.65051 0.0
H1834 H 0.72617 0.15034 0.64557 0.0
H1835 H 0.71879 0.16276 0.66417 0.0
H1836 H 0.7482 0.15375 0.72776 0.0
H1837 H 0.784 0.1617 0.71665 0.0
H1838 H 0.75806 0.13985 0.66026 0.0
C1839 C 0.67614 0.11819 0.68793 0.0
C1840 C 0.66545 0.11611 0.70545 0.0
C1841 C 0.67798 0.12327 0.72222 0.0
C1842 C 0.70054 0.13258 0.72171 0.0
C1843 C 0.71055 0.13469 0.70432 0.0
C1844 C 0.69889 0.12736 0.68774 0.0
C1845 C 0.71403 0.13051 0.67123 0.0
C1846 C 0.70756 0.10872 0.66152 0.0
C1847 C 0.71425 0.1471 0.65702 0.0
C1848 C 0.73583 0.13975 0.68145 0.0
C1849 C 0.73323 0.14281 0.70038 0.0
C1850 C 0.75048 0.15136 0.71302 0.0
C1851 C 0.77081 0.15596 0.70653 0.0
C1852 C 0.7739 0.1515 0.68767 0.0
C1853 C 0.75628 0.14378 0.67469 0.0
H1854 H 0.88612 0.54304 0.68202 0.0
H1855 H 0.89299 0.55557 0.7424 0.0
H1856 H 0.88178 0.58329 0.73808 0.0
H1857 H 0.90542 0.59754 0.66712 0.0
H1858 H 0.88663 0.5896 0.64762 0.0
H1859 H 0.8956 0.5714 0.65602 0.0
H1860 H 0.8555 0.54139 0.66086 0.0
H1861 H 0.84643 0.55967 0.65282 0.0
H1862 H 0.83812 0.5468 0.67567 0.0
H1863 H 0.87041 0.61129 0.72601 0.0
H1864 H 0.86267 0.63659 0.70732 0.0
H1865 H 0.85997 0.60155 0.65631 0.0
C1866 C 0.88498 0.55128 0.69447 0.0
C1867 C 0.89028 0.54683 0.71259 0.0
C1868 C 0.8892 0.55871 0.72831 0.0
C1869 C 0.88264 0.57437 0.72602 0.0
C1870 C 0.87702 0.57792 0.70795 0.0
C1871 C 0.87824 0.56663 0.69249 0.0
C1872 C 0.87185 0.57341 0.67445 0.0
C1873 C 0.89101 0.58359 0.66049 0.0
C1874 C 0.85178 0.55417 0.66543 0.0
C1875 C 0.8667 0.59021 0.68206 0.0
C1876 C 0.86986 0.59292 0.70137 0.0
C1877 C 0.86763 0.60903 0.71092 0.0
C1878 C 0.86297 0.62319 0.70028 0.0
C1879 C 0.86055 0.62094 0.6804 0.0
C1880 C 0.86156 0.60363 0.67152 0.0
H1881 H 0.48049 0.95248 0.15318 0.0
H1882 H 0.52763 0.01403 0.17793 0.0
H1883 H 0.54177 0.02854 0.14596 0.0
H1884 H 0.51661 0.95281 0.11535 0.0
H1885 H 0.49489 0.94032 0.09835 0.0
H1886 H 0.48936 0.93437 0.1232 0.0
H1887 H 0.4605 0.94654 0.12194 0.0
H1888 H 0.46566 0.95211 0.09709 0.0
H1889 H 0.46797 0.97315 0.11282 0.0
H1890 H 0.54845 0.03723 0.11103 0.0
H1891 H 0.54595 0.03992 0.07634 0.0
H1892 H 0.49587 0.97223 0.07411 0.0
C1893 C 0.49395 0.96894 0.15184 0.0
C1894 C 0.50309 0.98212 0.16803 0.0
C1895 C 0.52062 0.00359 0.16574 0.0
C1896 C 0.52874 0.01193 0.14763 0.0
C1897 C 0.51947 0.99846 0.13194 0.0
C1898 C 0.50252 0.97737 0.13389 0.0
C1899 C 0.49494 0.9665 0.11473 0.0
C1900 C 0.4992 0.94736 0.1128 0.0
C1901 C 0.47084 0.95916 0.11145 0.0
C1902 C 0.50958 0.98503 0.10161 0.0
C1903 C 0.52386 1.00324 0.11185 0.0
C1904 C 0.53778 0.0229 0.1029 0.0
C1905 C 0.53649 0.02422 0.08313 0.0
C1906 C 0.52149 0.00601 0.07243 0.0
C1907 C 0.50832 0.98602 0.08179 0.0
H1908 H 0.03552 0.49408 0.16054 0.0
H1909 H 0.02815 0.54971 0.17416 0.0
H1910 H 0.02014 0.55262 0.14045 0.0
H1911 H 0.06047 0.51261 0.11526 0.0
H1912 H 0.04647 0.48582 0.10496 0.0
H1913 H 0.05237 0.48893 0.12991 0.0
H1914 H 0.01158 0.46358 0.13747 0.0
H1915 H 1.00564 0.4602 0.11255 0.0
H1916 H 0.99182 0.46979 0.12771 0.0
H1917 H 0.0124 0.54857 0.10398 0.0
H1918 H 1.0038 0.53637 0.07038 0.0
H1919 H 0.01557 0.48321 0.08277 0.0
C1920 C 0.03198 0.50677 0.1566 0.0
C1921 C 0.03237 0.52157 0.17013 0.0
C1922 C 0.02814 0.53823 0.16408 0.0
C1923 C 0.02352 0.53999 0.14494 0.0
C1924 C 0.02326 0.52501 0.13199 0.0
C1925 C 0.02732 0.50869 0.13773 0.0
C1926 C 0.02562 0.49417 0.12147 0.0
C1927 C 0.04754 0.49548 0.11768 0.0
C1928 C 0.00759 0.47055 0.12502 0.0
C1929 C 0.01966 0.50459 0.10567 0.0
C1930 C 0.01856 0.52253 0.11173 0.0
C1931 C 0.01319 0.53449 0.09918 0.0
C1932 C 0.00842 0.52757 0.08014 0.0
C1933 C 0.00875 0.50872 0.07411 0.0
C1934 C 0.01485 0.49751 0.08704 0.0
H1935 H 0.4897 0.49432 0.15948 0.0
H1936 H 0.50467 0.56164 0.16053 0.0
H1937 H 0.51476 0.56537 0.12676 0.0
H1938 H 0.53176 0.50097 0.12576 0.0
H1939 H 0.51416 0.4754 0.1143 0.0
H1940 H 0.51061 0.47884 0.13904 0.0
H1941 H 0.47044 0.46769 0.13282 0.0
H1942 H 0.47386 0.46409 0.10814 0.0
H1943 H 0.46415 0.48215 0.11519 0.0
H1944 H 0.51896 0.56029 0.09156 0.0
H1945 H 0.51642 0.5465 0.05897 0.0
H1946 H 0.49983 0.4832 0.08138 0.0
C1947 C 0.49526 0.50994 0.15271 0.0
C1948 C 0.49644 0.5277 0.16282 0.0
C1949 C 0.50396 0.54785 0.15329 0.0
C1950 C 0.50965 0.55012 0.13404 0.0
C1951 C 0.50791 0.53215 0.12444 0.0
C1952 C 0.50097 0.51247 0.13353 0.0
C1953 C 0.499 0.49518 0.11986 0.0
C1954 C 0.51484 0.48713 0.12505 0.0
C1955 C 0.47547 0.47617 0.11895 0.0
C1956 C 0.50554 0.50806 0.10158 0.0
C1957 C 0.51077 0.5294 0.10443 0.0
C1958 C 0.5155 0.54377 0.08926 0.0
C1959 C 0.51441 0.53596 0.07074 0.0
C1960 C 0.50876 0.51408 0.06758 0.0
C1961 C 0.50471 0.5002 0.08332 0.0
H1962 H 0.9488 0.46866 0.86613 0.0
H1963 H 0.01318 0.50899 0.84288 0.0
H1964 H 0.029 0.51306 0.87472 0.0
H1965 H 0.95659 0.49921 0.90647 0.0
H1966 H 0.94101 0.47666 0.92221 0.0
H1967 H 0.93495 0.47391 0.89733 0.0
H1968 H 0.93994 0.44011 0.89613 0.0
H1969 H 0.9462 0.44289 0.92106 0.0
H1970 H 0.96497 0.44229 0.90434 0.0
H1971 H 0.03766 0.51609 0.90879 0.0
H1972 H 0.03843 0.52055 0.94342 0.0
H1973 H 0.96867 0.47906 0.94558 0.0
C1974 C 0.96626 0.47781 0.86773 0.0
C1975 C 0.97981 0.48836 0.85202 0.0
C1976 C 1.00253 0.50076 0.85471 0.0
C1977 C 0.01167 0.50301 0.87272 0.0
C1978 C 0.9979 0.49269 0.88796 0.0
C1979 C 0.97567 0.48037 0.88572 0.0
C1980 C 0.96445 0.47298 0.90478 0.0
C1981 C 0.94831 0.4812 0.90787 0.0
C1982 C 0.95322 0.44809 0.90668 0.0
C1983 C 0.98376 0.48398 0.91807 0.0
C1984 C 1.00293 0.49471 0.90797 0.0
C1985 C 0.02285 0.50735 0.91687 0.0
C1986 C 0.02316 0.50967 0.93654 0.0
C1987 C 1.00373 0.49955 0.94711 0.0
C1988 C 0.98381 0.48617 0.93784 0.0
H1989 H 0.54643 0.51169 0.85535 0.0
H1990 H 0.48515 0.4547 0.84084 0.0
H1991 H 0.47362 0.45117 0.87434 0.0
H1992 H 0.55351 0.49394 0.90077 0.0
H1993 H 0.56478 0.52059 0.9112 0.0
H1994 H 0.56817 0.51792 0.8863 0.0
H1995 H 0.55078 0.54164 0.87839 0.0
H1996 H 0.54764 0.54464 0.90325 0.0
H1997 H 0.52441 0.5341 0.88779 0.0
H1998 H 0.46878 0.45501 0.91063 0.0
H1999 H 0.47087 0.46733 0.94404 0.0
H2000 H 0.53517 0.52146 0.93294 0.0
C2001 C 0.53046 0.49854 0.85905 0.0
C2002 C 0.51673 0.48353 0.8453 0.0
C2003 C 0.49614 0.46633 0.85107 0.0
C2004 C 0.48941 0.46422 0.8701 0.0
C2005 C 0.50345 0.47938 0.88327 0.0
C2006 C 0.52352 0.49625 0.87783 0.0
C2007 C 0.53554 0.51092 0.89426 0.0
C2008 C 0.55675 0.51082 0.89837 0.0
C2009 C 0.53983 0.53419 0.89071 0.0
C2010 C 0.51916 0.49979 0.90986 0.0
C2011 C 0.5007 0.48154 0.9035 0.0
C2012 C 0.48323 0.46925 0.9157 0.0
C2013 C 0.48455 0.47621 0.93467 0.0
C2014 C 0.50313 0.49533 0.94101 0.0
C2015 C 0.52069 0.50678 0.92847 0.0
H2016 H 0.54453 0.06186 0.86399 0.0
H2017 H 0.48803 0.00531 0.84094 0.0
H2018 H 0.47462 0.99279 0.87341 0.0
H2019 H 0.55307 0.03467 0.90204 0.0
H2020 H 0.56188 0.0571 0.91827 0.0
H2021 H 0.56566 0.0622 0.89325 0.0
H2022 H 0.54462 0.08333 0.89495 0.0
H2023 H 0.54053 0.07796 0.91998 0.0
H2024 H 0.51757 0.07013 0.90458 0.0
H2025 H 0.46897 0.98489 0.90885 0.0
H2026 H 0.47289 0.98149 0.94337 0.0
H2027 H 0.53282 0.04312 0.9431 0.0
C2028 C 0.52928 0.04686 0.8657 0.0
C2029 C 0.51732 0.03466 0.84975 0.0
C2030 C 0.49736 0.0152 0.8528 0.0
C2031 C 0.48963 0.00792 0.87125 0.0
C2032 C 0.50188 0.02034 0.88661 0.0
C2033 C 0.52132 0.0394 0.88398 0.0
C2034 C 0.53208 0.04919 0.90276 0.0
C2035 C 0.55449 0.05087 0.90416 0.0
C2036 C 0.5338 0.07148 0.90574 0.0
C2037 C 0.51597 0.0324 0.91643 0.0
C2038 C 0.49848 0.016 0.90689 0.0
C2039 C 0.48232 0.99792 0.91647 0.0
C2040 C 0.48447 0.99623 0.93614 0.0
C2041 C 0.50257 0.01253 0.94604 0.0
C2042 C 0.51824 0.031 0.93604 0.0
H2043 H 0.16698 0.34001 0.49954 0.0
H2044 H 0.16845 0.27952 0.49817 0.0
H2045 H 0.17725 0.28497 0.46415 0.0
H2046 H 0.14038 0.33263 0.45592 0.0
H2047 H 0.15505 0.36096 0.4493 0.0
H2048 H 0.15123 0.35341 0.47389 0.0
H2049 H 0.1928 0.37556 0.47916 0.0
H2050 H 0.19673 0.38306 0.4545 0.0
H2051 H 0.21037 0.36987 0.46489 0.0
H2052 H 0.18284 0.29555 0.42919 0.0
H2053 H 0.18328 0.30969 0.39698 0.0
H2054 H 0.17822 0.36305 0.42155 0.0
C2055 C 0.1693 0.32795 0.49217 0.0
C2056 C 0.16715 0.30939 0.50174 0.0
C2057 C 0.17043 0.29412 0.4914 0.0
C2058 C 0.17535 0.29702 0.47198 0.0
C2059 C 0.1771 0.31536 0.46298 0.0
C2060 C 0.17422 0.33059 0.47279 0.0
C2061 C 0.17565 0.34819 0.45966 0.0
C2062 C 0.15431 0.34882 0.45969 0.0
C2063 C 0.19505 0.37049 0.46487 0.0
C2064 C 0.17928 0.34022 0.44088 0.0
C2065 C 0.1803 0.32139 0.44302 0.0
C2066 C 0.18235 0.31047 0.4274 0.0
C2067 C 0.18274 0.31869 0.40913 0.0
C2068 C 0.18092 0.33757 0.40663 0.0
C2069 C 0.17981 0.34868 0.42286 0.0
H2070 H 0.68476 0.82144 0.49657 0.0
H2071 H 0.71812 0.89171 0.50169 0.0
H2072 H 0.70972 0.8946 0.46807 0.0
H2073 H 0.70546 0.82114 0.45157 0.0
H2074 H 0.68118 0.79715 0.44384 0.0
H2075 H 0.68799 0.80107 0.46857 0.0
H2076 H 0.65052 0.79721 0.47613 0.0
H2077 H 0.6436 0.79324 0.45139 0.0
H2078 H 0.64238 0.81455 0.46424 0.0
H2079 H 0.70053 0.88906 0.43178 0.0
H2080 H 0.69067 0.87551 0.39871 0.0
H2081 H 0.66337 0.80932 0.41961 0.0
C2082 C 0.69026 0.83749 0.49074 0.0
C2083 C 0.70224 0.85633 0.5018 0.0
C2084 C 0.70877 0.87698 0.49357 0.0
C2085 C 0.70416 0.87879 0.47443 0.0
C2086 C 0.69288 0.85979 0.46376 0.0
C2087 C 0.68593 0.83956 0.47182 0.0
C2088 C 0.67534 0.82156 0.45747 0.0
C2089 C 0.68826 0.80954 0.45523 0.0
C2090 C 0.65154 0.80572 0.46262 0.0
C2091 C 0.67713 0.83466 0.44002 0.0
C2092 C 0.68742 0.85671 0.44363 0.0
C2093 C 0.69215 0.87176 0.42894 0.0
C2094 C 0.68646 0.86396 0.41019 0.0
C2095 C 0.67605 0.84133 0.4064 0.0
C2096 C 0.67107 0.82673 0.42175 0.0
H2097 H 0.16125 0.83329 0.49384 0.0
H2098 H 0.16693 0.89713 0.49274 0.0
H2099 H 0.17744 0.90106 0.45898 0.0
H2100 H 0.20584 0.84505 0.46234 0.0
H2101 H 0.19167 0.81872 0.45119 0.0
H2102 H 0.18592 0.82179 0.47542 0.0
H2103 H 0.14517 0.80515 0.46716 0.0
H2104 H 0.15079 0.80203 0.44293 0.0
H2105 H 0.13723 0.81708 0.44844 0.0
H2106 H 0.18415 0.89609 0.42372 0.0
H2107 H 0.18754 0.88312 0.39195 0.0
H2108 H 0.17894 0.82363 0.41763 0.0
C2109 C 0.16476 0.84816 0.48658 0.0
C2110 C 0.16322 0.86488 0.49606 0.0
C2111 C 0.16822 0.88416 0.48593 0.0
C2112 C 0.1741 0.8865 0.46668 0.0
C2113 C 0.17511 0.8695 0.45771 0.0
C2114 C 0.1707 0.85078 0.46746 0.0
C2115 C 0.17214 0.83452 0.45463 0.0
C2116 C 0.18996 0.82975 0.4613 0.0
C2117 C 0.15002 0.81346 0.4532 0.0
C2118 C 0.17815 0.84698 0.43614 0.0
C2119 C 0.17961 0.86705 0.43798 0.0
C2120 C 0.18341 0.88053 0.42225 0.0
C2121 C 0.18544 0.87312 0.40423 0.0
C2122 C 0.18394 0.85253 0.40214 0.0
C2123 C 0.18066 0.83967 0.41853 0.0
H2124 H 0.61995 0.79785 0.19875 0.0
H2125 H 0.67706 0.8535 0.17547 0.0
H2126 H 0.69517 0.86031 0.20646 0.0
H2127 H 0.6191 0.82077 0.24081 0.0
H2128 H 0.61108 0.7973 0.25574 0.0
H2129 H 0.60406 0.79372 0.23106 0.0
H2130 H 0.62299 0.77083 0.22711 0.0
H2131 H 0.63015 0.77443 0.25187 0.0
H2132 H 0.65092 0.78212 0.23418 0.0
H2133 H 0.70532 0.86449 0.23972 0.0
H2134 H 0.70616 0.86767 0.27434 0.0
H2135 H 0.64251 0.81014 0.27794 0.0
C2136 C 0.63653 0.81098 0.20013 0.0
C2137 C 0.64724 0.82507 0.1847 0.0
C2138 C 0.66866 0.8425 0.18709 0.0
C2139 C 0.67912 0.84638 0.2046 0.0
C2140 C 0.66804 0.83261 0.21967 0.0
C2141 C 0.64724 0.81521 0.21772 0.0
C2142 C 0.63827 0.80459 0.23685 0.0
C2143 C 0.61687 0.80409 0.24138 0.0
C2144 C 0.63541 0.78163 0.23754 0.0
C2145 C 0.65655 0.8199 0.24993 0.0
C2146 C 0.67386 0.83535 0.23949 0.0
C2147 C 0.69211 0.85222 0.24805 0.0
C2148 C 0.69245 0.85386 0.26773 0.0
C2149 C 0.67461 0.83894 0.27878 0.0
C2150 C 0.65663 0.82132 0.26984 0.0
H2151 H 0.20331 0.85101 0.18503 0.0
H2152 H 0.16586 0.78078 0.17977 0.0
H2153 H 0.15476 0.77799 0.21337 0.0
H2154 H 0.22395 0.8512 0.2306 0.0
H2155 H 0.22351 0.87526 0.23808 0.0
H2156 H 0.22678 0.87132 0.21344 0.0
H2157 H 0.19341 0.8754 0.2051 0.0
H2158 H 0.19013 0.87947 0.22972 0.0
H2159 H 0.16786 0.85821 0.21668 0.0
H2160 H 0.15072 0.78367 0.24981 0.0
H2161 H 0.15272 0.79759 0.28263 0.0
H2162 H 0.19272 0.86344 0.26151 0.0
C2163 C 0.19275 0.83497 0.19084 0.0
C2164 C 0.18565 0.81613 0.17969 0.0
C2165 C 0.17146 0.79553 0.18793 0.0
C2166 C 0.16517 0.79378 0.20708 0.0
C2167 C 0.17309 0.81276 0.21782 0.0
C2168 C 0.18645 0.83295 0.20977 0.0
C2169 C 0.19362 0.85098 0.22407 0.0
C2170 C 0.21842 0.86288 0.2267 0.0
C2171 C 0.18577 0.86694 0.21856 0.0
C2172 C 0.18208 0.83794 0.24143 0.0
C2173 C 0.17042 0.81589 0.2379 0.0
C2174 C 0.15959 0.80099 0.25257 0.0
C2175 C 0.16078 0.80897 0.27118 0.0
C2176 C 0.1725 0.83164 0.27479 0.0
C2177 C 0.18311 0.84601 0.2595 0.0
H2178 H 0.16539 0.34065 0.18531 0.0
H2179 H 0.21547 0.40863 0.18806 0.0
H2180 H 0.21418 0.40687 0.2229 0.0
H2181 H 0.13436 0.34105 0.22542 0.0
H2182 H 0.12801 0.31449 0.23384 0.0
H2183 H 0.13252 0.32079 0.20897 0.0
H2184 H 0.16261 0.31032 0.20869 0.0
H2185 H 0.15784 0.30355 0.23343 0.0
H2186 H 0.18471 0.32295 0.22535 0.0
H2187 H 0.20593 0.39856 0.25748 0.0
H2188 H 0.19683 0.38224 0.28945 0.0
H2189 H 0.15403 0.3191 0.26477 0.0
C2190 C 0.1761 0.35515 0.19326 0.0
C2191 C 0.19048 0.37483 0.18386 0.0
C2192 C 0.20444 0.39333 0.19484 0.0
C2193 C 0.20365 0.39256 0.21468 0.0
C2194 C 0.18891 0.37313 0.22346 0.0
C2195 C 0.17574 0.3546 0.21315 0.0
C2196 C 0.16209 0.33553 0.22619 0.0
C2197 C 0.1378 0.32749 0.22343 0.0
C2198 C 0.16713 0.317 0.22324 0.0
C2199 C 0.16983 0.34622 0.24541 0.0
C2200 C 0.18487 0.36807 0.24348 0.0
C2201 C 0.19416 0.38147 0.25917 0.0
C2202 C 0.18863 0.37215 0.2773 0.0
C2203 C 0.17435 0.34954 0.27959 0.0
C2204 C 0.16458 0.33652 0.26342 0.0
H2205 H 0.82042 0.61959 0.82144 0.0
H2206 H 0.84347 0.6848 0.8429 0.0
H2207 H 0.85383 0.69954 0.81058 0.0
H2208 H 0.86194 0.63518 0.78341 0.0
H2209 H 0.84282 0.61558 0.76697 0.0
H2210 H 0.83947 0.61014 0.79204 0.0
H2211 H 0.80056 0.6044 0.79023 0.0
H2212 H 0.80374 0.60962 0.76519 0.0
H2213 H 0.79644 0.62549 0.78019 0.0
H2214 H 0.85928 0.70713 0.77608 0.0
H2215 H 0.85641 0.70672 0.74127 0.0
H2216 H 0.82921 0.6368 0.7412 0.0
C2217 C 0.82812 0.63702 0.81937 0.0
C2218 C 0.83127 0.65106 0.83478 0.0
C2219 C 0.84086 0.67371 0.83137 0.0
C2220 C 0.84696 0.68226 0.81306 0.0
C2221 C 0.84347 0.66801 0.79818 0.0
C2222 C 0.83418 0.64585 0.80106 0.0
C2223 C 0.83056 0.63401 0.78231 0.0
C2224 C 0.84453 0.62307 0.78112 0.0
C2225 C 0.80639 0.61741 0.77931 0.0
C2226 C 0.83849 0.65288 0.76844 0.0
C2227 C 0.84637 0.67239 0.778 0.0
C2228 C 0.85356 0.69202 0.76844 0.0
C2229 C 0.85206 0.69167 0.74866 0.0
C2230 C 0.84335 0.67187 0.73856 0.0
C2231 C 0.8368 0.65224 0.74855 0.0
H2232 H 0.35158 0.15663 0.83001 0.0
H2233 H 0.3854 0.22697 0.83476 0.0
H2234 H 0.37714 0.22972 0.80108 0.0
H2235 H 0.37182 0.15575 0.7845 0.0
H2236 H 0.34724 0.13186 0.7771 0.0
H2237 H 0.35456 0.1359 0.80174 0.0
H2238 H 0.31744 0.1325 0.80993 0.0
H2239 H 0.30999 0.12841 0.7853 0.0
H2240 H 0.3093 0.14995 0.79822 0.0
H2241 H 0.36747 0.22399 0.76494 0.0
H2242 H 0.35595 0.21019 0.73211 0.0
H2243 H 0.32861 0.14411 0.75332 0.0
C2244 C 0.35728 0.17268 0.82406 0.0
C2245 C 0.36926 0.19158 0.83506 0.0
C2246 C 0.37603 0.21221 0.82668 0.0
C2247 C 0.37153 0.21393 0.80751 0.0
C2248 C 0.36015 0.19488 0.79694 0.0
C2249 C 0.35305 0.17467 0.8051 0.0
C2250 C 0.34201 0.15657 0.7909 0.0
C2251 C 0.35466 0.14431 0.78842 0.0
C2252 C 0.31828 0.14095 0.79642 0.0
C2253 C 0.34359 0.16961 0.77346 0.0
C2254 C 0.3543 0.1917 0.77691 0.0
C2255 C 0.35875 0.20667 0.76222 0.0
C2256 C 0.35214 0.19873 0.74362 0.0
C2257 C 0.34097 0.17605 0.74003 0.0
C2258 C 0.33661 0.16156 0.75536 0.0
H2259 H 0.82841 0.16711 0.82688 0.0
H2260 H 0.83614 0.23179 0.82661 0.0
H2261 H 0.84693 0.23602 0.79287 0.0
H2262 H 0.87257 0.17742 0.79549 0.0
H2263 H 0.85744 0.15135 0.78403 0.0
H2264 H 0.85192 0.15441 0.80833 0.0
H2265 H 0.8114 0.13967 0.80006 0.0
H2266 H 0.81679 0.13648 0.77579 0.0
H2267 H 0.8044 0.15257 0.7815 0.0
H2268 H 0.85232 0.23053 0.75704 0.0
H2269 H 0.85365 0.21659 0.72503 0.0
H2270 H 0.8452 0.1573 0.75099 0.0
C2271 C 0.83249 0.18226 0.81983 0.0
C2272 C 0.83135 0.19908 0.82949 0.0
C2273 C 0.83707 0.2187 0.81963 0.0
C2274 C 0.84313 0.22122 0.8004 0.0
C2275 C 0.84362 0.20406 0.7912 0.0
C2276 C 0.83863 0.18506 0.80078 0.0
C2277 C 0.83926 0.16852 0.78779 0.0
C2278 C 0.85633 0.1626 0.7943 0.0
C2279 C 0.81663 0.14812 0.7862 0.0
C2280 C 0.84572 0.1812 0.76945 0.0
C2281 C 0.84781 0.20153 0.77137 0.0
C2282 C 0.85127 0.21484 0.75553 0.0
C2283 C 0.85217 0.2069 0.73737 0.0
C2284 C 0.84999 0.18602 0.73528 0.0
C2285 C 0.84736 0.17352 0.75179 0.0
H2286 H 0.28431 0.13002 0.53154 0.0
H2287 H 0.34524 0.1818 0.50966 0.0
H2288 H 0.36221 0.18565 0.54092 0.0
H2289 H 0.28569 0.15365 0.57379 0.0
H2290 H 0.27446 0.12942 0.5882 0.0
H2291 H 0.26826 0.12733 0.56339 0.0
H2292 H 0.28257 0.10031 0.55937 0.0
H2293 H 0.28882 0.10249 0.58429 0.0
H2294 H 0.30965 0.10809 0.56711 0.0
H2295 H 0.37166 0.18694 0.57438 0.0
H2296 H 0.37174 0.18981 0.60901 0.0
H2297 H 0.30435 0.13899 0.61088 0.0
C2298 C 0.3014 0.14165 0.53327 0.0
C2299 C 0.31358 0.15545 0.51815 0.0
C2300 C 0.33569 0.171 0.52103 0.0
C2301 C 0.34551 0.17315 0.53868 0.0
C2302 C 0.33305 0.15957 0.5534 0.0
C2303 C 0.31143 0.14419 0.55099 0.0
C2304 C 0.30112 0.13376 0.56983 0.0
C2305 C 0.28123 0.13622 0.57405 0.0
C2306 C 0.29518 0.10973 0.57016 0.0
C2307 C 0.31979 0.14704 0.58332 0.0
C2308 C 0.33832 0.16099 0.57332 0.0
C2309 C 0.35741 0.17582 0.58236 0.0
C2310 C 0.35735 0.17722 0.60206 0.0
C2311 C 0.33822 0.16429 0.61258 0.0
C2312 C 0.31936 0.14847 0.60319 0.0
H2313 H 0.87364 0.1854 0.51865 0.0
H2314 H 0.83046 0.11601 0.51183 0.0
H2315 H 0.8186 0.11356 0.54517 0.0
H2316 H 0.89116 0.18225 0.56505 0.0
H2317 H 0.89308 0.20743 0.57256 0.0
H2318 H 0.89686 0.20343 0.54804 0.0
H2319 H 0.86642 0.21172 0.53859 0.0
H2320 H 0.8626 0.2158 0.56308 0.0
H2321 H 0.83996 0.19627 0.5492 0.0
H2322 H 0.81388 0.11911 0.58136 0.0
H2323 H 0.81539 0.13271 0.61421 0.0
H2324 H 0.86156 0.19791 0.59507 0.0
C2325 C 0.86171 0.16961 0.52407 0.0
C2326 C 0.85316 0.15088 0.51255 0.0
C2327 C 0.83721 0.13067 0.52029 0.0
C2328 C 0.83047 0.1291 0.53928 0.0
C2329 C 0.83972 0.14789 0.55038 0.0
C2330 C 0.8549 0.16777 0.54286 0.0
C2331 C 0.86298 0.18559 0.55747 0.0
C2332 C 0.88746 0.19523 0.56099 0.0
C2333 C 0.85766 0.20338 0.55174 0.0
C2334 C 0.84987 0.17281 0.5744 0.0
C2335 C 0.83664 0.15103 0.57036 0.0
C2336 C 0.82401 0.13623 0.58453 0.0
C2337 C 0.82494 0.14403 0.60315 0.0
C2338 C 0.83817 0.16645 0.60728 0.0
C2339 C 0.85071 0.18075 0.59253 0.0
H2340 H 0.83374 0.67224 0.5176 0.0
H2341 H 0.87749 0.74184 0.52231 0.0
H2342 H 0.87468 0.73893 0.55707 0.0
H2343 H 0.79893 0.66692 0.5567 0.0
H2344 H 0.79555 0.64127 0.56481 0.0
H2345 H 0.80056 0.6485 0.54013 0.0
H2346 H 0.83401 0.64309 0.54079 0.0
H2347 H 0.82882 0.63543 0.56534 0.0
H2348 H 0.85497 0.65736 0.55819 0.0
H2349 H 0.86542 0.72908 0.59122 0.0
H2350 H 0.85648 0.71185 0.62279 0.0
H2351 H 0.82096 0.64827 0.59658 0.0
C2352 C 0.84275 0.68684 0.52597 0.0
C2353 C 0.85579 0.70731 0.51717 0.0
C2354 C 0.86754 0.72597 0.52866 0.0
C2355 C 0.86586 0.72453 0.54844 0.0
C2356 C 0.85249 0.70426 0.55664 0.0
C2357 C 0.84153 0.68564 0.54583 0.0
C2358 C 0.82913 0.66573 0.55835 0.0
C2359 C 0.80459 0.65497 0.55477 0.0
C2360 C 0.83723 0.64945 0.5555 0.0
C2361 C 0.835 0.67609 0.57784 0.0
C2362 C 0.84801 0.69841 0.57647 0.0
C2363 C 0.85526 0.71161 0.59248 0.0
C2364 C 0.84982 0.7017 0.61037 0.0
C2365 C 0.83771 0.67876 0.61215 0.0
C2366 C 0.8299 0.66586 0.59563 0.0
loop_
_geom_bond_atom_site_label_1
_geom_bond_atom_site_label_2
_geom_bond_distance
_geom_bond_site_symmetry_2
_ccdc_geom_bond_type
C0 C1 1.264 . S
C0 C5 1.479 . S
C0 C10 1.465 . S
C1 C0 1.264 . S
C1 C3 1.339 . S
C1 H28 0.931 . S
C2 C3 1.395 . S
C2 C4 1.320 . S
C3 C1 1.339 . S
C3 C2 1.395 . S
C3 H29 0.929 . S
C4 C2 1.320 . S
C4 C5 1.405 . S
C4 H30 0.930 . S
C5 C0 1.479 . S
C5 C4 1.405 . S
C5 H31 0.931 . S
U6 O7 2.454 . S
U6 O8 2.458 . S
U6 C9 2.984 . S
U6 C10 2.847 . S
U6 C23 2.882 . S
U6 O24 2.441 . S
U6 O25 2.420 . S
U6 O26 2.455 . S
U6 O27 2.449 . S
O7 U6 2.454 . S
O7 C9 1.353 . S
O8 U6 2.458 . S
O8 C9 1.286 . S
C9 U6 2.984 . S
C9 O7 1.353 . S
C9 O8 1.286 . S
C9 C11 1.363 . S
C10 C0 1.465 . S
C10 U6 2.847 . S
C10 O24 1.249 . S
C10 O25 1.202 . S
C11 C9 1.363 . S
C11 C13 1.408 . S
C11 C16 1.342 . S
C12 C13 1.310 . S
C12 C15 1.461 . S
C12 H32 0.932 . S
C13 C11 1.408 . S
C13 C12 1.310 . S
C13 H33 0.930 . S
C14 C15 1.474 . S
C14 C16 1.285 . S
C14 H34 0.929 . S
C15 C12 1.461 . S
C15 C14 1.474 . S
C16 C11 1.342 . S
C16 C14 1.285 . S
C16 H35 0.930 . S
C17 C20 1.424 . S
C17 C22 1.245 . S
C17 C23 1.428 . S
C18 C21 1.260 . S
C18 C22 1.477 . S
C18 H36 0.932 . S
C19 C20 1.384 . S
C19 C21 1.479 . S
C19 H37 0.929 . S
C20 C17 1.424 . S
C20 C19 1.384 . S
C20 H38 0.928 . S
C21 C18 1.260 . S
C21 C19 1.479 . S
C22 C17 1.245 . S
C22 C18 1.477 . S
C22 H39 0.932 . S
C23 U6 2.882 . S
C23 C17 1.428 . S
C23 O26 1.301 . S
C23 O27 1.282 . S
O24 U6 2.441 . S
O24 C10 1.249 . S
O25 U6 2.420 . S
O25 C10 1.202 . S
O26 U6 2.455 . S
O26 C23 1.301 . S
O27 U6 2.449 . S
O27 C23 1.282 . S
H28 C1 0.931 . S
H29 C3 0.929 . S
H30 C4 0.930 . S
H31 C5 0.931 . S
H32 C12 0.932 . S
H33 C13 0.930 . S
H34 C14 0.929 . S
H35 C16 0.930 . S
H36 C18 0.932 . S
H37 C19 0.929 . S
H38 C20 0.928 . S
H39 C22 0.932 . S
C40 C41 1.264 . S
C40 C45 1.479 . S
C40 C50 1.465 . S
C41 C40 1.264 . S
C41 C43 1.339 . S
C41 H68 0.931 . S
C42 C43 1.395 . S
C42 C44 1.320 . S
C43 C41 1.339 . S
C43 C42 1.395 . S
C43 H69 0.929 . S
C44 C42 1.320 . S
C44 C45 1.405 . S
C44 H70 0.930 . S
C45 C40 1.479 . S
C45 C44 1.405 . S
C45 H71 0.931 . S
U46 O47 2.454 . S
U46 O48 2.458 . S
U46 C49 2.984 . S
U46 C50 2.847 . S
U46 C63 2.882 . S
U46 O64 2.441 . S
U46 O65 2.420 . S
U46 O66 2.455 . S
U46 O67 2.449 . S
O47 U46 2.454 . S
O47 C49 1.353 . S
O48 U46 2.458 . S
O48 C49 1.286 . S
C49 U46 2.984 . S
C49 O47 1.353 . S
C49 O48 1.286 . S
C49 C51 1.363 . S
C50 C40 1.465 . S
C50 U46 2.847 . S
C50 O64 1.249 . S
C50 O65 1.202 . S
C51 C49 1.363 . S
C51 C53 1.408 . S
C51 C56 1.342 . S
C52 C53 1.310 . S
C52 C55 1.461 . S
C52 H72 0.932 . S
C53 C51 1.408 . S
C53 C52 1.310 . S
C53 H73 0.930 . S
C54 C55 1.474 . S
C54 C56 1.285 . S
C54 H74 0.929 . S
C55 C52 1.461 . S
C55 C54 1.474 . S
C56 C51 1.342 . S
C56 C54 1.285 . S
C56 H75 0.930 . S
C57 C60 1.424 . S
C57 C62 1.245 . S
C57 C63 1.428 . S
C58 C61 1.260 . S
C58 C62 1.477 . S
C58 H76 0.932 . S
C59 C60 1.384 . S
C59 C61 1.479 . S
C59 H77 0.929 . S
C60 C57 1.424 . S
C60 C59 1.384 . S
C60 H78 0.928 . S
C61 C58 1.260 . S
C61 C59 1.479 . S
C62 C57 1.245 . S
C62 C58 1.477 . S
C62 H79 0.932 . S
C63 U46 2.882 . S
C63 C57 1.428 . S
C63 O66 1.301 . S
C63 O67 1.282 . S
O64 U46 2.441 . S
O64 C50 1.249 . S
O65 U46 2.420 . S
O65 C50 1.202 . S
O66 U46 2.455 . S
O66 C63 1.301 . S
O67 U46 2.449 . S
O67 C63 1.282 . S
H68 C41 0.931 . S
H69 C43 0.929 . S
H70 C44 0.930 . S
H71 C45 0.931 . S
H72 C52 0.932 . S
H73 C53 0.930 . S
H74 C54 0.929 . S
H75 C56 0.930 . S
H76 C58 0.932 . S
H77 C59 0.929 . S
H78 C60 0.928 . S
H79 C62 0.932 . S
C80 C81 1.264 . S
C80 C85 1.479 . S
C80 C90 1.465 . S
C81 C80 1.264 . S
C81 C83 1.339 . S
C81 H108 0.931 . S
C82 C83 1.395 . S
C82 C84 1.320 . S
C83 C81 1.339 . S
C83 C82 1.395 . S
C83 H109 0.929 . S
C84 C82 1.320 . S
C84 C85 1.405 . S
C84 H110 0.930 . S
C85 C80 1.479 . S
C85 C84 1.405 . S
C85 H111 0.931 . S
U86 O87 2.454 . S
U86 O88 2.458 . S
U86 C89 2.984 . S
U86 C90 2.847 . S
U86 C103 2.882 . S
U86 O104 2.441 . S
U86 O105 2.420 . S
U86 O106 2.455 . S
U86 O107 2.449 . S
O87 U86 2.454 . S
O87 C89 1.353 . S
O88 U86 2.458 . S
O88 C89 1.286 . S
C89 U86 2.984 . S
C89 O87 1.353 . S
C89 O88 1.286 . S
C89 C91 1.363 . S
C90 C80 1.465 . S
C90 U86 2.847 . S
C90 O104 1.249 . S
C90 O105 1.202 . S
C91 C89 1.363 . S
C91 C93 1.408 . S
C91 C96 1.342 . S
C92 C93 1.310 . S
C92 C95 1.461 . S
C92 H112 0.932 . S
C93 C91 1.408 . S
C93 C92 1.310 . S
C93 H113 0.930 . S
C94 C95 1.474 . S
C94 C96 1.285 . S
C94 H114 0.929 . S
C95 C92 1.461 . S
C95 C94 1.474 . S
C96 C91 1.342 . S
C96 C94 1.285 . S
C96 H115 0.930 . S
C97 C100 1.424 . S
C97 C102 1.245 . S
C97 C103 1.428 . S
C98 C101 1.260 . S
C98 C102 1.477 . S
C98 H116 0.932 . S
C99 C100 1.384 . S
C99 C101 1.479 . S
C99 H117 0.929 . S
C100 C97 1.424 . S
C100 C99 1.384 . S
C100 H118 0.928 . S
C101 C98 1.260 . S
C101 C99 1.479 . S
C102 C97 1.245 . S
C102 C98 1.477 . S
C102 H119 0.932 . S
C103 U86 2.882 . S
C103 C97 1.428 . S
C103 O106 1.301 . S
C103 O107 1.282 . S
O104 U86 2.441 . S
O104 C90 1.249 . S
O105 U86 2.420 . S
O105 C90 1.202 . S
O106 U86 2.455 . S
O106 C103 1.301 . S
O107 U86 2.449 . S
O107 C103 1.282 . S
H108 C81 0.931 . S
H109 C83 0.929 . S
H110 C84 0.930 . S
H111 C85 0.931 . S
H112 C92 0.932 . S
H113 C93 0.930 . S
H114 C94 0.929 . S
H115 C96 0.930 . S
H116 C98 0.932 . S
H117 C99 0.929 . S
H118 C100 0.928 . S
H119 C102 0.932 . S
C120 C121 1.264 . S
C120 C125 1.479 . S
C120 C130 1.465 . S
C121 C120 1.264 . S
C121 C123 1.339 . S
C121 H148 0.931 . S
C122 C123 1.395 . S
C122 C124 1.320 . S
C123 C121 1.339 . S
C123 C122 1.395 . S
C123 H149 0.929 . S
C124 C122 1.320 . S
C124 C125 1.405 . S
C124 H150 0.930 . S
C125 C120 1.479 . S
C125 C124 1.405 . S
C125 H151 0.931 . S
U126 O127 2.454 . S
U126 O128 2.458 . S
U126 C129 2.984 . S
U126 C130 2.847 . S
U126 C143 2.882 . S
U126 O144 2.441 . S
U126 O145 2.420 . S
U126 O146 2.455 . S
U126 O147 2.449 . S
O127 U126 2.454 . S
O127 C129 1.353 . S
O128 U126 2.458 . S
O128 C129 1.286 . S
C129 U126 2.984 . S
C129 O127 1.353 . S
C129 O128 1.286 . S
C129 C131 1.363 . S
C130 C120 1.465 . S
C130 U126 2.847 . S
C130 O144 1.249 . S
C130 O145 1.202 . S
C131 C129 1.363 . S
C131 C133 1.408 . S
C131 C136 1.342 . S
C132 C133 1.310 . S
C132 C135 1.461 . S
C132 H152 0.932 . S
C133 C131 1.408 . S
C133 C132 1.310 . S
C133 H153 0.930 . S
C134 C135 1.474 . S
C134 C136 1.285 . S
C134 H154 0.929 . S
C135 C132 1.461 . S
C135 C134 1.474 . S
C136 C131 1.342 . S
C136 C134 1.285 . S
C136 H155 0.930 . S
C137 C140 1.424 . S
C137 C142 1.245 . S
C137 C143 1.428 . S
C138 C141 1.260 . S
C138 C142 1.477 . S
C138 H156 0.932 . S
C139 C140 1.384 . S
C139 C141 1.479 . S
C139 H157 0.929 . S
C140 C137 1.424 . S
C140 C139 1.384 . S
C140 H158 0.928 . S
C141 C138 1.260 . S
C141 C139 1.479 . S
C142 C137 1.245 . S
C142 C138 1.477 . S
C142 H159 0.932 . S
C143 U126 2.882 . S
C143 C137 1.428 . S
C143 O146 1.301 . S
C143 O147 1.282 . S
O144 U126 2.441 . S
O144 C130 1.249 . S
O145 U126 2.420 . S
O145 C130 1.202 . S
O146 U126 2.455 . S
O146 C143 1.301 . S
O147 U126 2.449 . S
O147 C143 1.282 . S
H148 C121 0.931 . S
H149 C123 0.929 . S
H150 C124 0.930 . S
H151 C125 0.931 . S
H152 C132 0.932 . S
H153 C133 0.930 . S
H154 C134 0.929 . S
H155 C136 0.930 . S
H156 C138 0.932 . S
H157 C139 0.929 . S
H158 C140 0.928 . S
H159 C142 0.932 . S
C160 C161 1.264 . S
C160 C165 1.479 . S
C160 C170 1.465 . S
C161 C160 1.264 . S
C161 C163 1.339 . S
C161 H188 0.931 . S
C162 C163 1.395 . S
C162 C164 1.320 . S
C163 C161 1.339 . S
C163 C162 1.395 . S
C163 H189 0.929 . S
C164 C162 1.320 . S
C164 C165 1.405 . S
C164 H190 0.930 . S
C165 C160 1.479 . S
C165 C164 1.405 . S
C165 H191 0.931 . S
U166 O167 2.454 . S
U166 O168 2.458 . S
U166 C169 2.984 . S
U166 C170 2.847 . S
U166 C183 2.882 . S
U166 O184 2.441 . S
U166 O185 2.420 . S
U166 O186 2.455 . S
U166 O187 2.449 . S
O167 U166 2.454 . S
O167 C169 1.353 . S
O168 U166 2.458 . S
O168 C169 1.286 . S
C169 U166 2.984 . S
C169 O167 1.353 . S
C169 O168 1.286 . S
C169 C171 1.363 . S
C170 C160 1.465 . S
C170 U166 2.847 . S
C170 O184 1.249 . S
C170 O185 1.202 . S
C171 C169 1.363 . S
C171 C173 1.408 . S
C171 C176 1.342 . S
C172 C173 1.310 . S
C172 C175 1.461 . S
C172 H192 0.932 . S
C173 C171 1.408 . S
C173 C172 1.310 . S
C173 H193 0.930 . S
C174 C175 1.474 . S
C174 C176 1.285 . S
C174 H194 0.929 . S
C175 C172 1.461 . S
C175 C174 1.474 . S
C176 C171 1.342 . S
C176 C174 1.285 . S
C176 H195 0.930 . S
C177 C180 1.424 . S
C177 C182 1.245 . S
C177 C183 1.428 . S
C178 C181 1.260 . S
C178 C182 1.477 . S
C178 H196 0.932 . S
C179 C180 1.384 . S
C179 C181 1.479 . S
C179 H197 0.929 . S
C180 C177 1.424 . S
C180 C179 1.384 . S
C180 H198 0.928 . S
C181 C178 1.260 . S
C181 C179 1.479 . S
C182 C177 1.245 . S
C182 C178 1.477 . S
C182 H199 0.932 . S
C183 U166 2.882 . S
C183 C177 1.428 . S
C183 O186 1.301 . S
C183 O187 1.282 . S
O184 U166 2.441 . S
O184 C170 1.249 . S
O185 U166 2.420 . S
O185 C170 1.202 . S
O186 U166 2.455 . S
O186 C183 1.301 . S
O187 U166 2.449 . S
O187 C183 1.282 . S
H188 C161 0.931 . S
H189 C163 0.929 . S
H190 C164 0.930 . S
H191 C165 0.931 . S
H192 C172 0.932 . S
H193 C173 0.930 . S
H194 C174 0.929 . S
H195 C176 0.930 . S
H196 C178 0.932 . S
H197 C179 0.929 . S
H198 C180 0.928 . S
H199 C182 0.932 . S
C200 C201 1.264 . S
C200 C205 1.479 . S
C200 C210 1.465 . S
C201 C200 1.264 . S
C201 C203 1.339 . S
C201 H228 0.931 . S
C202 C203 1.395 . S
C202 C204 1.320 . S
C203 C201 1.339 . S
C203 C202 1.395 . S
C203 H229 0.929 . S
C204 C202 1.320 . S
C204 C205 1.405 . S
C204 H230 0.930 . S
C205 C200 1.479 . S
C205 C204 1.405 . S
C205 H231 0.931 . S
U206 O207 2.454 . S
U206 O208 2.458 . S
U206 C209 2.984 . S
U206 C210 2.847 . S
U206 C223 2.882 . S
U206 O224 2.441 . S
U206 O225 2.420 . S
U206 O226 2.455 . S
U206 O227 2.449 . S
O207 U206 2.454 . S
O207 C209 1.353 . S
O208 U206 2.458 . S
O208 C209 1.286 . S
C209 U206 2.984 . S
C209 O207 1.353 . S
C209 O208 1.286 . S
C209 C211 1.363 . S
C210 C200 1.465 . S
C210 U206 2.847 . S
C210 O224 1.249 . S
C210 O225 1.202 . S
C211 C209 1.363 . S
C211 C213 1.408 . S
C211 C216 1.342 . S
C212 C213 1.310 . S
C212 C215 1.461 . S
C212 H232 0.932 . S
C213 C211 1.408 . S
C213 C212 1.310 . S
C213 H233 0.930 . S
C214 C215 1.474 . S
C214 C216 1.285 . S
C214 H234 0.929 . S
C215 C212 1.461 . S
C215 C214 1.474 . S
C216 C211 1.342 . S
C216 C214 1.285 . S
C216 H235 0.930 . S
C217 C220 1.424 . S
C217 C222 1.245 . S
C217 C223 1.428 . S
C218 C221 1.260 . S
C218 C222 1.477 . S
C218 H236 0.932 . S
C219 C220 1.384 . S
C219 C221 1.479 . S
C219 H237 0.929 . S
C220 C217 1.424 . S
C220 C219 1.384 . S
C220 H238 0.928 . S
C221 C218 1.260 . S
C221 C219 1.479 . S
C222 C217 1.245 . S
C222 C218 1.477 . S
C222 H239 0.932 . S
C223 U206 2.882 . S
C223 C217 1.428 . S
C223 O226 1.301 . S
C223 O227 1.282 . S
O224 U206 2.441 . S
O224 C210 1.249 . S
O225 U206 2.420 . S
O225 C210 1.202 . S
O226 U206 2.455 . S
O226 C223 1.301 . S
O227 U206 2.449 . S
O227 C223 1.282 . S
H228 C201 0.931 . S
H229 C203 0.929 . S
H230 C204 0.930 . S
H231 C205 0.931 . S
H232 C212 0.932 . S
H233 C213 0.930 . S
H234 C214 0.929 . S
H235 C216 0.930 . S
H236 C218 0.932 . S
H237 C219 0.929 . S
H238 C220 0.928 . S
H239 C222 0.932 . S
C240 C241 1.264 . S
C240 C245 1.479 . S
C240 C250 1.465 . S
C241 C240 1.264 . S
C241 C243 1.339 . S
C241 H268 0.931 . S
C242 C243 1.395 . S
C242 C244 1.320 . S
C243 C241 1.339 . S
C243 C242 1.395 . S
C243 H269 0.929 . S
C244 C242 1.320 . S
C244 C245 1.405 . S
C244 H270 0.930 . S
C245 C240 1.479 . S
C245 C244 1.405 . S
C245 H271 0.931 . S
U246 O247 2.454 . S
U246 O248 2.458 . S
U246 C249 2.984 . S
U246 C250 2.847 . S
U246 C263 2.882 . S
U246 O264 2.441 . S
U246 O265 2.420 . S
U246 O266 2.455 . S
U246 O267 2.449 . S
O247 U246 2.454 . S
O247 C249 1.353 . S
O248 U246 2.458 . S
O248 C249 1.286 . S
C249 U246 2.984 . S
C249 O247 1.353 . S
C249 O248 1.286 . S
C249 C251 1.363 . S
C250 C240 1.465 . S
C250 U246 2.847 . S
C250 O264 1.249 . S
C250 O265 1.202 . S
C251 C249 1.363 . S
C251 C253 1.408 . S
C251 C256 1.342 . S
C252 C253 1.310 . S
C252 C255 1.461 . S
C252 H272 0.932 . S
C253 C251 1.408 . S
C253 C252 1.310 . S
C253 H273 0.930 . S
C254 C255 1.474 . S
C254 C256 1.285 . S
C254 H274 0.929 . S
C255 C252 1.461 . S
C255 C254 1.474 . S
C256 C251 1.342 . S
C256 C254 1.285 . S
C256 H275 0.930 . S
C257 C260 1.424 . S
C257 C262 1.245 . S
C257 C263 1.428 . S
C258 C261 1.260 . S
C258 C262 1.477 . S
C258 H276 0.932 . S
C259 C260 1.384 . S
C259 C261 1.479 . S
C259 H277 0.929 . S
C260 C257 1.424 . S
C260 C259 1.384 . S
C260 H278 0.928 . S
C261 C258 1.260 . S
C261 C259 1.479 . S
C262 C257 1.245 . S
C262 C258 1.477 . S
C262 H279 0.932 . S
C263 U246 2.882 . S
C263 C257 1.428 . S
C263 O266 1.301 . S
C263 O267 1.282 . S
O264 U246 2.441 . S
O264 C250 1.249 . S
O265 U246 2.420 . S
O265 C250 1.202 . S
O266 U246 2.455 . S
O266 C263 1.301 . S
O267 U246 2.449 . S
O267 C263 1.282 . S
H268 C241 0.931 . S
H269 C243 0.929 . S
H270 C244 0.930 . S
H271 C245 0.931 . S
H272 C252 0.932 . S
H273 C253 0.930 . S
H274 C254 0.929 . S
H275 C256 0.930 . S
H276 C258 0.932 . S
H277 C259 0.929 . S
H278 C260 0.928 . S
H279 C262 0.932 . S
C280 C281 1.264 . S
C280 C285 1.479 . S
C280 C290 1.465 . S
C281 C280 1.264 . S
C281 C283 1.339 . S
C281 H308 0.931 . S
C282 C283 1.395 . S
C282 C284 1.320 . S
C283 C281 1.339 . S
C283 C282 1.395 . S
C283 H309 0.929 . S
C284 C282 1.320 . S
C284 C285 1.405 . S
C284 H310 0.930 . S
C285 C280 1.479 . S
C285 C284 1.405 . S
C285 H311 0.931 . S
U286 O287 2.454 . S
U286 O288 2.458 . S
U286 C289 2.984 . S
U286 C290 2.847 . S
U286 C303 2.882 . S
U286 O304 2.441 . S
U286 O305 2.420 . S
U286 O306 2.455 . S
U286 O307 2.449 . S
O287 U286 2.454 . S
O287 C289 1.353 . S
O288 U286 2.458 . S
O288 C289 1.286 . S
C289 U286 2.984 . S
C289 O287 1.353 . S
C289 O288 1.286 . S
C289 C291 1.363 . S
C290 C280 1.465 . S
C290 U286 2.847 . S
C290 O304 1.249 . S
C290 O305 1.202 . S
C291 C289 1.363 . S
C291 C293 1.408 . S
C291 C296 1.342 . S
C292 C293 1.310 . S
C292 C295 1.461 . S
C292 H312 0.932 . S
C293 C291 1.408 . S
C293 C292 1.310 . S
C293 H313 0.930 . S
C294 C295 1.474 . S
C294 C296 1.285 . S
C294 H314 0.929 . S
C295 C292 1.461 . S
C295 C294 1.474 . S
C296 C291 1.342 . S
C296 C294 1.285 . S
C296 H315 0.930 . S
C297 C300 1.424 . S
C297 C302 1.245 . S
C297 C303 1.428 . S
C298 C301 1.260 . S
C298 C302 1.477 . S
C298 H316 0.932 . S
C299 C300 1.384 . S
C299 C301 1.479 . S
C299 H317 0.929 . S
C300 C297 1.424 . S
C300 C299 1.384 . S
C300 H318 0.928 . S
C301 C298 1.260 . S
C301 C299 1.479 . S
C302 C297 1.245 . S
C302 C298 1.477 . S
C302 H319 0.932 . S
C303 U286 2.882 . S
C303 C297 1.428 . S
C303 O306 1.301 . S
C303 O307 1.282 . S
O304 U286 2.441 . S
O304 C290 1.249 . S
O305 U286 2.420 . S
O305 C290 1.202 . S
O306 U286 2.455 . S
O306 C303 1.301 . S
O307 U286 2.449 . S
O307 C303 1.282 . S
H308 C281 0.931 . S
H309 C283 0.929 . S
H310 C284 0.930 . S
H311 C285 0.931 . S
H312 C292 0.932 . S
H313 C293 0.930 . S
H314 C294 0.929 . S
H315 C296 0.930 . S
H316 C298 0.932 . S
H317 C299 0.929 . S
H318 C300 0.928 . S
H319 C302 0.932 . S
C320 C321 1.264 . S
C320 C325 1.479 . S
C320 C330 1.465 . S
C321 C320 1.264 . S
C321 C323 1.339 . S
C321 H348 0.931 . S
C322 C323 1.395 . S
C322 C324 1.320 . S
C323 C321 1.339 . S
C323 C322 1.395 . S
C323 H349 0.929 . S
C324 C322 1.320 . S
C324 C325 1.405 . S
C324 H350 0.930 . S
C325 C320 1.479 . S
C325 C324 1.405 . S
C325 H351 0.931 . S
U326 O327 2.454 . S
U326 O328 2.458 . S
U326 C329 2.984 . S
U326 C330 2.847 . S
U326 C343 2.882 . S
U326 O344 2.441 . S
U326 O345 2.420 . S
U326 O346 2.455 . S
U326 O347 2.449 . S
O327 U326 2.454 . S
O327 C329 1.353 . S
O328 U326 2.458 . S
O328 C329 1.286 . S
C329 U326 2.984 . S
C329 O327 1.353 . S
C329 O328 1.286 . S
C329 C331 1.363 . S
C330 C320 1.465 . S
C330 U326 2.847 . S
C330 O344 1.249 . S
C330 O345 1.202 . S
C331 C329 1.363 . S
C331 C333 1.408 . S
C331 C336 1.342 . S
C332 C333 1.310 . S
C332 C335 1.461 . S
C332 H352 0.932 . S
C333 C331 1.408 . S
C333 C332 1.310 . S
C333 H353 0.930 . S
C334 C335 1.474 . S
C334 C336 1.285 . S
C334 H354 0.929 . S
C335 C332 1.461 . S
C335 C334 1.474 . S
C336 C331 1.342 . S
C336 C334 1.285 . S
C336 H355 0.930 . S
C337 C340 1.424 . S
C337 C342 1.245 . S
C337 C343 1.428 . S
C338 C341 1.260 . S
C338 C342 1.477 . S
C338 H356 0.932 . S
C339 C340 1.384 . S
C339 C341 1.479 . S
C339 H357 0.929 . S
C340 C337 1.424 . S
C340 C339 1.384 . S
C340 H358 0.928 . S
C341 C338 1.260 . S
C341 C339 1.479 . S
C342 C337 1.245 . S
C342 C338 1.477 . S
C342 H359 0.932 . S
C343 U326 2.882 . S
C343 C337 1.428 . S
C343 O346 1.301 . S
C343 O347 1.282 . S
O344 U326 2.441 . S
O344 C330 1.249 . S
O345 U326 2.420 . S
O345 C330 1.202 . S
O346 U326 2.455 . S
O346 C343 1.301 . S
O347 U326 2.449 . S
O347 C343 1.282 . S
H348 C321 0.931 . S
H349 C323 0.929 . S
H350 C324 0.930 . S
H351 C325 0.931 . S
H352 C332 0.932 . S
H353 C333 0.930 . S
H354 C334 0.929 . S
H355 C336 0.930 . S
H356 C338 0.932 . S
H357 C339 0.929 . S
H358 C340 0.928 . S
H359 C342 0.932 . S
C360 C361 1.264 . S
C360 C365 1.479 . S
C360 C370 1.465 . S
C361 C360 1.264 . S
C361 C363 1.339 . S
C361 H388 0.931 . S
C362 C363 1.395 . S
C362 C364 1.320 . S
C363 C361 1.339 . S
C363 C362 1.395 . S
C363 H389 0.929 . S
C364 C362 1.320 . S
C364 C365 1.405 . S
C364 H390 0.930 1_556 S
C365 C360 1.479 . S
C365 C364 1.405 . S
C365 H391 0.931 . S
U366 O367 2.454 . S
U366 O368 2.458 . S
U366 C369 2.984 . S
U366 C370 2.847 . S
U366 C383 2.882 . S
U366 O384 2.441 . S
U366 O385 2.420 . S
U366 O386 2.455 . S
U366 O387 2.449 . S
O367 U366 2.454 . S
O367 C369 1.353 . S
O368 U366 2.458 . S
O368 C369 1.286 . S
C369 U366 2.984 . S
C369 O367 1.353 . S
C369 O368 1.286 . S
C369 C371 1.363 . S
C370 C360 1.465 . S
C370 U366 2.847 . S
C370 O384 1.249 . S
C370 O385 1.202 . S
C371 C369 1.363 . S
C371 C373 1.408 . S
C371 C376 1.342 . S
C372 C373 1.310 . S
C372 C375 1.461 . S
C372 H392 0.932 1_556 S
C373 C371 1.408 . S
C373 C372 1.310 . S
C373 H393 0.930 . S
C374 C375 1.474 . S
C374 C376 1.285 . S
C374 H394 0.929 . S
C375 C372 1.461 . S
C375 C374 1.474 . S
C376 C371 1.342 . S
C376 C374 1.285 . S
C376 H395 0.930 . S
C377 C380 1.424 . S
C377 C382 1.245 . S
C377 C383 1.428 . S
C378 C381 1.260 . S
C378 C382 1.477 . S
C378 H396 0.932 . S
C379 C380 1.384 . S
C379 C381 1.479 . S
C379 H397 0.929 . S
C380 C377 1.424 . S
C380 C379 1.384 . S
C380 H398 0.928 . S
C381 C378 1.260 . S
C381 C379 1.479 . S
C382 C377 1.245 . S
C382 C378 1.477 . S
C382 H399 0.932 . S
C383 U366 2.882 . S
C383 C377 1.428 . S
C383 O386 1.301 . S
C383 O387 1.282 . S
O384 U366 2.441 . S
O384 C370 1.249 . S
O385 U366 2.420 . S
O385 C370 1.202 . S
O386 U366 2.455 . S
O386 C383 1.301 . S
O387 U366 2.449 . S
O387 C383 1.282 . S
H388 C361 0.931 . S
H389 C363 0.929 . S
H390 C364 0.930 1_554 S
H391 C365 0.931 . S
H392 C372 0.932 1_554 S
H393 C373 0.930 . S
H394 C374 0.929 . S
H395 C376 0.930 . S
H396 C378 0.932 . S
H397 C379 0.929 . S
H398 C380 0.928 . S
H399 C382 0.932 . S
C400 C401 1.264 . S
C400 C405 1.479 . S
C400 C410 1.465 . S
C401 C400 1.264 . S
C401 C403 1.339 . S
C401 H428 0.931 . S
C402 C403 1.395 . S
C402 C404 1.320 . S
C403 C401 1.339 . S
C403 C402 1.395 . S
C403 H429 0.929 . S
C404 C402 1.320 . S
C404 C405 1.405 . S
C404 H430 0.930 1_556 S
C405 C400 1.479 . S
C405 C404 1.405 . S
C405 H431 0.931 . S
U406 O407 2.454 . S
U406 O408 2.458 . S
U406 C409 2.984 . S
U406 C410 2.847 . S
U406 C423 2.882 . S
U406 O424 2.441 . S
U406 O425 2.420 . S
U406 O426 2.455 . S
U406 O427 2.449 . S
O407 U406 2.454 . S
O407 C409 1.353 . S
O408 U406 2.458 . S
O408 C409 1.286 . S
C409 U406 2.984 . S
C409 O407 1.353 . S
C409 O408 1.286 . S
C409 C411 1.363 . S
C410 C400 1.465 . S
C410 U406 2.847 . S
C410 O424 1.249 . S
C410 O425 1.202 . S
C411 C409 1.363 . S
C411 C413 1.408 . S
C411 C416 1.342 . S
C412 C413 1.310 . S
C412 C415 1.461 . S
C412 H432 0.932 1_556 S
C413 C411 1.408 . S
C413 C412 1.310 . S
C413 H433 0.930 . S
C414 C415 1.474 . S
C414 C416 1.285 . S
C414 H434 0.929 . S
C415 C412 1.461 . S
C415 C414 1.474 . S
C416 C411 1.342 . S
C416 C414 1.285 . S
C416 H435 0.930 . S
C417 C420 1.424 . S
C417 C422 1.245 . S
C417 C423 1.428 . S
C418 C421 1.260 . S
C418 C422 1.477 . S
C418 H436 0.932 . S
C419 C420 1.384 . S
C419 C421 1.479 . S
C419 H437 0.929 . S
C420 C417 1.424 . S
C420 C419 1.384 . S
C420 H438 0.928 . S
C421 C418 1.260 . S
C421 C419 1.479 . S
C422 C417 1.245 . S
C422 C418 1.477 . S
C422 H439 0.932 . S
C423 U406 2.882 . S
C423 C417 1.428 . S
C423 O426 1.301 . S
C423 O427 1.282 . S
O424 U406 2.441 . S
O424 C410 1.249 . S
O425 U406 2.420 . S
O425 C410 1.202 . S
O426 U406 2.455 . S
O426 C423 1.301 . S
O427 U406 2.449 . S
O427 C423 1.282 . S
H428 C401 0.931 . S
H429 C403 0.929 . S
H430 C404 0.930 1_554 S
H431 C405 0.931 . S
H432 C412 0.932 1_554 S
H433 C413 0.930 . S
H434 C414 0.929 . S
H435 C416 0.930 . S
H436 C418 0.932 . S
H437 C419 0.929 . S
H438 C420 0.928 . S
H439 C422 0.932 . S
C440 C441 1.264 . S
C440 C445 1.479 . S
C440 C450 1.465 . S
C441 C440 1.264 . S
C441 C443 1.339 . S
C441 H468 0.931 . S
C442 C443 1.395 . S
C442 C444 1.320 . S
C443 C441 1.339 . S
C443 C442 1.395 . S
C443 H469 0.929 . S
C444 C442 1.320 . S
C444 C445 1.405 . S
C444 H470 0.930 1_556 S
C445 C440 1.479 . S
C445 C444 1.405 . S
C445 H471 0.931 . S
U446 O447 2.454 . S
U446 O448 2.458 . S
U446 C449 2.984 . S
U446 C450 2.847 . S
U446 C463 2.882 . S
U446 O464 2.441 . S
U446 O465 2.420 . S
U446 O466 2.455 . S
U446 O467 2.449 . S
O447 U446 2.454 . S
O447 C449 1.353 . S
O448 U446 2.458 . S
O448 C449 1.286 . S
C449 U446 2.984 . S
C449 O447 1.353 . S
C449 O448 1.286 . S
C449 C451 1.363 . S
C450 C440 1.465 . S
C450 U446 2.847 . S
C450 O464 1.249 . S
C450 O465 1.202 . S
C451 C449 1.363 . S
C451 C453 1.408 . S
C451 C456 1.342 . S
C452 C453 1.310 . S
C452 C455 1.461 . S
C452 H472 0.932 1_556 S
C453 C451 1.408 . S
C453 C452 1.310 . S
C453 H473 0.930 . S
C454 C455 1.474 . S
C454 C456 1.285 . S
C454 H474 0.929 . S
C455 C452 1.461 . S
C455 C454 1.474 . S
C456 C451 1.342 . S
C456 C454 1.285 . S
C456 H475 0.930 . S
C457 C460 1.424 . S
C457 C462 1.245 . S
C457 C463 1.428 . S
C458 C461 1.260 . S
C458 C462 1.477 . S
C458 H476 0.932 . S
C459 C460 1.384 . S
C459 C461 1.479 . S
C459 H477 0.929 . S
C460 C457 1.424 . S
C460 C459 1.384 . S
C460 H478 0.928 . S
C461 C458 1.260 . S
C461 C459 1.479 . S
C462 C457 1.245 . S
C462 C458 1.477 . S
C462 H479 0.932 . S
C463 U446 2.882 . S
C463 C457 1.428 . S
C463 O466 1.301 . S
C463 O467 1.282 . S
O464 U446 2.441 . S
O464 C450 1.249 . S
O465 U446 2.420 . S
O465 C450 1.202 . S
O466 U446 2.455 . S
O466 C463 1.301 . S
O467 U446 2.449 . S
O467 C463 1.282 . S
H468 C441 0.931 . S
H469 C443 0.929 . S
H470 C444 0.930 1_554 S
H471 C445 0.931 . S
H472 C452 0.932 1_554 S
H473 C453 0.930 . S
H474 C454 0.929 . S
H475 C456 0.930 . S
H476 C458 0.932 . S
H477 C459 0.929 . S
H478 C460 0.928 . S
H479 C462 0.932 . S
C480 C481 1.264 . S
C480 C485 1.479 . S
C480 C490 1.465 . S
C481 C480 1.264 . S
C481 C483 1.339 . S
C481 H508 0.931 . S
C482 C483 1.395 . S
C482 C484 1.320 . S
C483 C481 1.339 . S
C483 C482 1.395 . S
C483 H509 0.929 . S
C484 C482 1.320 . S
C484 C485 1.405 . S
C484 H510 0.930 . S
C485 C480 1.479 . S
C485 C484 1.405 . S
C485 H511 0.931 . S
U486 O487 2.454 . S
U486 O488 2.458 . S
U486 C489 2.984 . S
U486 C490 2.847 . S
U486 C503 2.882 . S
U486 O504 2.441 . S
U486 O505 2.420 . S
U486 O506 2.455 . S
U486 O507 2.449 . S
O487 U486 2.454 . S
O487 C489 1.353 . S
O488 U486 2.458 . S
O488 C489 1.286 . S
C489 U486 2.984 . S
C489 O487 1.353 . S
C489 O488 1.286 . S
C489 C491 1.363 . S
C490 C480 1.465 . S
C490 U486 2.847 . S
C490 O504 1.249 . S
C490 O505 1.202 . S
C491 C489 1.363 . S
C491 C493 1.408 . S
C491 C496 1.342 . S
C492 C493 1.310 . S
C492 C495 1.461 . S
C492 H512 0.932 . S
C493 C491 1.408 . S
C493 C492 1.310 . S
C493 H513 0.930 . S
C494 C495 1.474 . S
C494 C496 1.285 . S
C494 H514 0.929 . S
C495 C492 1.461 . S
C495 C494 1.474 . S
C496 C491 1.342 . S
C496 C494 1.285 . S
C496 H515 0.930 . S
C497 C500 1.424 . S
C497 C502 1.245 . S
C497 C503 1.428 . S
C498 C501 1.260 . S
C498 C502 1.477 . S
C498 H516 0.932 . S
C499 C500 1.384 . S
C499 C501 1.479 . S
C499 H517 0.929 . S
C500 C497 1.424 . S
C500 C499 1.384 . S
C500 H518 0.928 . S
C501 C498 1.260 . S
C501 C499 1.479 . S
C502 C497 1.245 . S
C502 C498 1.477 . S
C502 H519 0.932 . S
C503 U486 2.882 . S
C503 C497 1.428 . S
C503 O506 1.301 . S
C503 O507 1.282 . S
O504 U486 2.441 . S
O504 C490 1.249 . S
O505 U486 2.420 . S
O505 C490 1.202 . S
O506 U486 2.455 . S
O506 C503 1.301 . S
O507 U486 2.449 . S
O507 C503 1.282 . S
H508 C481 0.931 . S
H509 C483 0.929 . S
H510 C484 0.930 . S
H511 C485 0.931 . S
H512 C492 0.932 . S
H513 C493 0.930 . S
H514 C494 0.929 . S
H515 C496 0.930 . S
H516 C498 0.932 . S
H517 C499 0.929 . S
H518 C500 0.928 . S
H519 C502 0.932 . S
C520 C521 1.264 . S
C520 C525 1.479 . S
C520 C530 1.465 . S
C521 C520 1.264 . S
C521 C523 1.339 . S
C521 H548 0.931 . S
C522 C523 1.395 . S
C522 C524 1.320 . S
C523 C521 1.339 . S
C523 C522 1.395 . S
C523 H549 0.929 . S
C524 C522 1.320 . S
C524 C525 1.405 . S
C524 H550 0.930 . S
C525 C520 1.479 . S
C525 C524 1.405 . S
C525 H551 0.931 . S
U526 O527 2.454 . S
U526 O528 2.458 . S
U526 C529 2.984 . S
U526 C530 2.847 . S
U526 C543 2.882 . S
U526 O544 2.441 . S
U526 O545 2.420 . S
U526 O546 2.455 . S
U526 O547 2.449 . S
O527 U526 2.454 . S
O527 C529 1.353 . S
O528 U526 2.458 . S
O528 C529 1.286 . S
C529 U526 2.984 . S
C529 O527 1.353 . S
C529 O528 1.286 . S
C529 C531 1.363 . S
C530 C520 1.465 . S
C530 U526 2.847 . S
C530 O544 1.249 . S
C530 O545 1.202 . S
C531 C529 1.363 . S
C531 C533 1.408 . S
C531 C536 1.342 . S
C532 C533 1.310 . S
C532 C535 1.461 . S
C532 H552 0.969 . S
C533 C531 1.408 . S
C533 C532 1.310 . S
C533 H553 0.930 . S
C534 C535 1.474 . S
C534 C536 1.285 . S
C534 H554 0.929 . S
C535 C532 1.461 . S
C535 C534 1.474 . S
C536 C531 1.342 . S
C536 C534 1.285 . S
C536 H555 0.930 . S
C537 C540 1.424 . S
C537 C542 1.245 . S
C537 C543 1.428 . S
C538 C541 1.260 . S
C538 C542 1.477 . S
C538 H556 0.932 . S
C539 C540 1.384 . S
C539 C541 1.479 . S
C539 H557 0.929 . S
C540 C537 1.424 . S
C540 C539 1.384 . S
C540 H558 0.928 . S
C541 C538 1.260 . S
C541 C539 1.479 . S
C542 C537 1.245 . S
C542 C538 1.477 . S
C542 H559 0.932 . S
C543 U526 2.882 . S
C543 C537 1.428 . S
C543 O546 1.301 . S
C543 O547 1.282 . S
O544 U526 2.441 . S
O544 C530 1.249 . S
O545 U526 2.420 . S
O545 C530 1.202 . S
O546 U526 2.455 . S
O546 C543 1.301 . S
O547 U526 2.449 . S
O547 C543 1.282 . S
H548 C521 0.931 . S
H549 C523 0.929 . S
H550 C524 0.930 . S
H551 C525 0.931 . S
H552 C532 0.969 . S
H553 C533 0.930 . S
H554 C534 0.929 . S
H555 C536 0.930 . S
H556 C538 0.932 . S
H557 C539 0.929 . S
H558 C540 0.928 . S
H559 C542 0.932 . S
C560 C561 1.264 . S
C560 C565 1.479 . S
C560 C570 1.465 . S
C561 C560 1.264 . S
C561 C563 1.339 . S
C561 H588 0.931 . S
C562 C563 1.395 . S
C562 C564 1.320 . S
C563 C561 1.339 . S
C563 C562 1.395 . S
C563 H589 0.929 . S
C564 C562 1.320 . S
C564 C565 1.405 . S
C564 H590 0.930 . S
C565 C560 1.479 . S
C565 C564 1.405 . S
C565 H591 0.931 . S
U566 O567 2.454 . S
U566 O568 2.458 . S
U566 C569 2.984 . S
U566 C570 2.847 . S
U566 C583 2.882 . S
U566 O584 2.441 . S
U566 O585 2.420 . S
U566 O586 2.455 . S
U566 O587 2.449 . S
O567 U566 2.454 . S
O567 C569 1.353 . S
O568 U566 2.458 . S
O568 C569 1.286 . S
C569 U566 2.984 . S
C569 O567 1.353 . S
C569 O568 1.286 . S
C569 C571 1.363 . S
C570 C560 1.465 . S
C570 U566 2.847 . S
C570 O584 1.249 . S
C570 O585 1.202 . S
C571 C569 1.363 . S
C571 C573 1.408 . S
C571 C576 1.342 . S
C572 C573 1.310 . S
C572 C575 1.461 . S
C572 H592 0.932 . S
C573 C571 1.408 . S
C573 C572 1.310 . S
C573 H593 0.930 . S
C574 C575 1.474 . S
C574 C576 1.285 . S
C574 H594 0.929 . S
C575 C572 1.461 . S
C575 C574 1.474 . S
C576 C571 1.342 . S
C576 C574 1.285 . S
C576 H595 0.930 . S
C577 C580 1.424 . S
C577 C582 1.245 . S
C577 C583 1.428 . S
C578 C581 1.260 . S
C578 C582 1.477 . S
C578 H596 0.932 . S
C579 C580 1.384 . S
C579 C581 1.479 . S
C579 H597 0.929 . S
C580 C577 1.424 . S
C580 C579 1.384 . S
C580 H598 0.928 . S
C581 C578 1.260 . S
C581 C579 1.479 . S
C582 C577 1.245 . S
C582 C578 1.477 . S
C582 H599 0.932 . S
C583 U566 2.882 . S
C583 C577 1.428 . S
C583 O586 1.301 . S
C583 O587 1.282 . S
O584 U566 2.441 . S
O584 C570 1.249 . S
O585 U566 2.420 . S
O585 C570 1.202 . S
O586 U566 2.455 . S
O586 C583 1.301 . S
O587 U566 2.449 . S
O587 C583 1.282 . S
H588 C561 0.931 . S
H589 C563 0.929 . S
H590 C564 0.930 . S
H591 C565 0.931 . S
H592 C572 0.932 . S
H593 C573 0.930 . S
H594 C574 0.929 . S
H595 C576 0.930 . S
H596 C578 0.932 . S
H597 C579 0.929 . S
H598 C580 0.928 . S
H599 C582 0.932 . S
C600 C601 1.264 . S
C600 C605 1.479 . S
C600 C610 1.465 . S
C601 C600 1.264 . S
C601 C603 1.339 . S
C601 H628 0.931 . S
C602 C603 1.395 . S
C602 C604 1.320 . S
C603 C601 1.339 . S
C603 C602 1.395 . S
C603 H629 0.929 . S
C604 C602 1.320 . S
C604 C605 1.405 . S
C604 H630 0.930 . S
C605 C600 1.479 . S
C605 C604 1.405 . S
C605 H631 0.931 . S
U606 O607 2.454 . S
U606 O608 2.458 . S
U606 C609 2.984 . S
U606 C610 2.847 . S
U606 C623 2.882 . S
U606 O624 2.441 . S
U606 O625 2.420 . S
U606 O626 2.455 . S
U606 O627 2.449 . S
O607 U606 2.454 . S
O607 C609 1.353 . S
O608 U606 2.458 . S
O608 C609 1.286 . S
C609 U606 2.984 . S
C609 O607 1.353 . S
C609 O608 1.286 . S
C609 C611 1.363 . S
C610 C600 1.465 . S
C610 U606 2.847 . S
C610 O624 1.249 . S
C610 O625 1.202 . S
C611 C609 1.363 . S
C611 C613 1.408 . S
C611 C616 1.342 . S
C612 C613 1.310 . S
C612 C615 1.461 . S
C612 H632 0.932 . S
C613 C611 1.408 . S
C613 C612 1.310 . S
C613 H633 0.930 . S
C614 C615 1.474 . S
C614 C616 1.285 . S
C614 H634 0.929 . S
C615 C612 1.461 . S
C615 C614 1.474 . S
C616 C611 1.342 . S
C616 C614 1.285 . S
C616 H635 0.930 . S
C617 C620 1.424 . S
C617 C622 1.245 . S
C617 C623 1.428 . S
C618 C621 1.260 . S
C618 C622 1.477 . S
C618 H636 0.932 . S
C619 C620 1.384 . S
C619 C621 1.479 . S
C619 H637 0.929 . S
C620 C617 1.424 . S
C620 C619 1.384 . S
C620 H638 0.928 . S
C621 C618 1.260 . S
C621 C619 1.479 . S
C622 C617 1.245 . S
C622 C618 1.477 . S
C622 H639 0.932 . S
C623 U606 2.882 . S
C623 C617 1.428 . S
C623 O626 1.301 . S
C623 O627 1.282 . S
O624 U606 2.441 . S
O624 C610 1.249 . S
O625 U606 2.420 . S
O625 C610 1.202 . S
O626 U606 2.455 . S
O626 C623 1.301 . S
O627 U606 2.449 . S
O627 C623 1.282 . S
H628 C601 0.931 . S
H629 C603 0.929 . S
H630 C604 0.930 . S
H631 C605 0.931 . S
H632 C612 0.932 . S
H633 C613 0.930 . S
H634 C614 0.929 . S
H635 C616 0.930 . S
H636 C618 0.932 . S
H637 C619 0.929 . S
H638 C620 0.928 . S
H639 C622 0.932 . S
C640 C641 1.264 . S
C640 C645 1.479 . S
C640 C650 1.465 . S
C641 C640 1.264 . S
C641 C643 1.339 . S
C641 H668 0.931 . S
C642 C643 1.395 . S
C642 C644 1.320 . S
C643 C641 1.339 . S
C643 C642 1.395 . S
C643 H669 0.929 . S
C644 C642 1.320 . S
C644 C645 1.405 . S
C644 H670 0.930 . S
C645 C640 1.479 . S
C645 C644 1.405 . S
C645 H671 0.931 . S
U646 O647 2.454 . S
U646 O648 2.458 . S
U646 C649 2.984 . S
U646 C650 2.847 . S
U646 C663 2.882 . S
U646 O664 2.441 . S
U646 O665 2.420 . S
U646 O666 2.455 . S
U646 O667 2.449 . S
O647 U646 2.454 . S
O647 C649 1.353 . S
O648 U646 2.458 . S
O648 C649 1.286 . S
C649 U646 2.984 . S
C649 O647 1.353 . S
C649 O648 1.286 . S
C649 C651 1.363 . S
C650 C640 1.465 . S
C650 U646 2.847 . S
C650 O664 1.249 . S
C650 O665 1.202 . S
C651 C649 1.363 . S
C651 C653 1.408 . S
C651 C656 1.342 . S
C652 C653 1.310 . S
C652 C655 1.461 . S
C652 H672 0.932 . S
C653 C651 1.408 . S
C653 C652 1.310 . S
C653 H673 0.930 . S
C654 C655 1.474 . S
C654 C656 1.285 . S
C654 H674 0.929 . S
C655 C652 1.461 . S
C655 C654 1.474 . S
C656 C651 1.342 . S
C656 C654 1.285 . S
C656 H675 0.930 . S
C657 C660 1.424 . S
C657 C662 1.245 . S
C657 C663 1.428 . S
C658 C661 1.260 . S
C658 C662 1.477 . S
C658 H676 0.932 . S
C659 C660 1.384 . S
C659 C661 1.479 . S
C659 H677 0.929 . S
C660 C657 1.424 . S
C660 C659 1.384 . S
C660 H678 0.928 . S
C661 C658 1.260 . S
C661 C659 1.479 . S
C662 C657 1.245 . S
C662 C658 1.477 . S
C662 H679 0.932 . S
C663 U646 2.882 . S
C663 C657 1.428 . S
C663 O666 1.301 . S
C663 O667 1.282 . S
O664 U646 2.441 . S
O664 C650 1.249 . S
O665 U646 2.420 . S
O665 C650 1.202 . S
O666 U646 2.455 . S
O666 C663 1.301 . S
O667 U646 2.449 . S
O667 C663 1.282 . S
H668 C641 0.931 . S
H669 C643 0.929 . S
H670 C644 0.930 . S
H671 C645 0.931 . S
H672 C652 0.932 . S
H673 C653 0.930 . S
H674 C654 0.929 . S
H675 C656 0.930 . S
H676 C658 0.932 . S
H677 C659 0.929 . S
H678 C660 0.928 . S
H679 C662 0.932 . S
C680 C681 1.264 . S
C680 C685 1.479 . S
C680 C690 1.465 . S
C681 C680 1.264 . S
C681 C683 1.339 . S
C681 H708 0.931 . S
C682 C683 1.395 . S
C682 C684 1.320 . S
C683 C681 1.339 . S
C683 C682 1.395 . S
C683 H709 0.929 . S
C684 C682 1.320 . S
C684 C685 1.405 . S
C684 H710 0.930 . S
C685 C680 1.479 . S
C685 C684 1.405 . S
C685 H711 0.931 . S
U686 O687 2.454 . S
U686 O688 2.458 . S
U686 C689 2.984 . S
U686 C690 2.847 . S
U686 C703 2.882 . S
U686 O704 2.441 . S
U686 O705 2.420 . S
U686 O706 2.455 . S
U686 O707 2.449 . S
O687 U686 2.454 . S
O687 C689 1.353 . S
O688 U686 2.458 . S
O688 C689 1.286 . S
C689 U686 2.984 . S
C689 O687 1.353 . S
C689 O688 1.286 . S
C689 C691 1.363 . S
C690 C680 1.465 . S
C690 U686 2.847 . S
C690 O704 1.249 . S
C690 O705 1.202 . S
C691 C689 1.363 . S
C691 C693 1.408 . S
C691 C696 1.342 . S
C692 C693 1.310 . S
C692 C695 1.461 . S
C692 H712 0.932 . S
C693 C691 1.408 . S
C693 C692 1.310 . S
C693 H713 0.930 . S
C694 C695 1.474 . S
C694 C696 1.285 . S
C694 H714 0.929 . S
C695 C692 1.461 . S
C695 C694 1.474 . S
C696 C691 1.342 . S
C696 C694 1.285 . S
C696 H715 0.930 . S
C697 C700 1.424 . S
C697 C702 1.245 . S
C697 C703 1.428 . S
C698 C701 1.260 . S
C698 C702 1.477 . S
C698 H716 0.932 . S
C699 C700 1.384 . S
C699 C701 1.479 . S
C699 H717 0.929 . S
C700 C697 1.424 . S
C700 C699 1.384 . S
C700 H718 0.928 . S
C701 C698 1.260 . S
C701 C699 1.479 . S
C702 C697 1.245 . S
C702 C698 1.477 . S
C702 H719 0.932 . S
C703 U686 2.882 . S
C703 C697 1.428 . S
C703 O706 1.301 . S
C703 O707 1.282 . S
O704 U686 2.441 . S
O704 C690 1.249 . S
O705 U686 2.420 . S
O705 C690 1.202 . S
O706 U686 2.455 . S
O706 C703 1.301 . S
O707 U686 2.449 . S
O707 C703 1.282 . S
H708 C681 0.931 . S
H709 C683 0.929 . S
H710 C684 0.930 . S
H711 C685 0.931 . S
H712 C692 0.932 . S
H713 C693 0.930 . S
H714 C694 0.929 . S
H715 C696 0.930 . S
H716 C698 0.932 . S
H717 C699 0.929 . S
H718 C700 0.928 . S
H719 C702 0.932 . S
O720 Mn721 2.163 1_565 S
O720 C734 1.244 . S
Mn721 O720 2.163 1_545 S
Mn721 O724 2.160 . S
Mn721 O725 2.221 1_545 S
Mn721 O727 2.163 1_554 S
Mn721 O729 2.160 . S
Mn721 O739 2.221 . S
O722 Mn723 2.087 1_565 S
O722 C734 1.256 . S
Mn723 O722 2.087 1_545 S
Mn723 O730 2.089 . S
Mn723 O739 2.290 . S
Mn723 O740 2.251 . S
O724 Mn721 2.160 . S
O724 C735 1.239 1_554 S
O725 Mn721 2.221 1_565 S
O725 Mn726 2.290 1_554 S
O725 C736 1.289 . S
Mn726 O725 2.290 1_556 S
Mn726 O728 2.089 1_565 S
Mn726 O731 2.251 . S
Mn726 O732 2.087 . S
O727 Mn721 2.163 1_556 S
O727 C737 1.244 . S
O728 Mn726 2.089 1_545 S
O728 C735 1.256 . S
O729 Mn721 2.160 . S
O729 C738 1.239 . S
O730 Mn723 2.089 . S
O730 C738 1.256 . S
O731 Mn726 2.251 . S
O731 C736 1.196 1_556 S
O732 Mn726 2.087 . S
O732 C737 1.256 1_565 S
C733 O739 1.278 . S
C733 O740 1.241 . S
C734 O720 1.244 . S
C734 O722 1.256 . S
C735 O724 1.239 1_556 S
C735 O728 1.256 . S
C736 O725 1.289 . S
C736 O731 1.196 1_554 S
C737 O727 1.244 . S
C737 O732 1.256 1_545 S
C738 O729 1.239 . S
C738 O730 1.256 . S
O739 Mn721 2.221 . S
O739 Mn723 2.290 . S
O739 C733 1.278 . S
O740 Mn723 2.251 . S
O740 C733 1.241 . S
O741 Mn742 2.117 1_455 S
O741 C755 1.244 . S
Mn742 O741 2.117 1_655 S
Mn742 O745 2.206 . S
Mn742 O746 2.217 1_655 S
Mn742 O748 2.163 1_554 S
Mn742 O750 2.163 . S
Mn742 O760 2.229 . S
O743 Mn744 2.087 1_455 S
O743 C755 1.256 . S
Mn744 O743 2.087 1_655 S
Mn744 O751 2.089 1_655 S
Mn744 O760 2.290 . S
Mn744 O761 2.251 . S
O745 Mn742 2.206 . S
O745 C756 1.239 1_554 S
O746 Mn742 2.217 1_455 S
O746 Mn747 2.290 1_554 S
O746 C757 1.278 . S
Mn747 O746 2.290 1_556 S
Mn747 O749 2.089 1_455 S
Mn747 O752 2.251 . S
Mn747 O753 2.087 . S
O748 Mn742 2.163 1_556 S
O748 C758 1.244 1_655 S
O749 Mn747 2.089 1_655 S
O749 C756 1.256 . S
O750 Mn742 2.163 . S
O750 C759 1.239 1_655 S
O751 Mn744 2.089 1_455 S
O751 C759 1.256 . S
O752 Mn747 2.251 . S
O752 C757 1.241 1_556 S
O753 Mn747 2.087 . S
O753 C758 1.256 . S
C754 O760 1.278 . S
C754 O761 1.241 . S
C755 O741 1.244 . S
C755 O743 1.256 . S
C756 O745 1.239 1_556 S
C756 O749 1.256 . S
C757 O746 1.278 . S
C757 O752 1.241 1_554 S
C758 O748 1.244 1_455 S
C758 O753 1.256 . S
C759 O750 1.239 1_455 S
C759 O751 1.256 . S
O760 Mn742 2.229 . S
O760 Mn744 2.290 . S
O760 C754 1.278 . S
O761 Mn744 2.251 . S
O761 C754 1.241 . S
O762 Mn763 2.164 . S
O762 C776 1.244 . S
Mn763 O762 2.164 . S
Mn763 O766 2.159 1_556 S
Mn763 O767 2.220 1_556 S
Mn763 O769 2.153 1_556 S
Mn763 O771 2.170 . S
Mn763 O781 2.223 . S
O764 Mn765 2.087 . S
O764 C776 1.256 . S
Mn765 O764 2.087 . S
Mn765 O772 2.089 . S
Mn765 O781 2.290 . S
Mn765 O782 2.251 1_556 S
O766 Mn763 2.159 1_554 S
O766 C777 1.246 . S
O767 Mn763 2.220 1_554 S
O767 Mn768 2.290 . S
O767 C778 1.278 . S
Mn768 O767 2.290 . S
Mn768 O770 2.089 . S
Mn768 O773 2.251 . S
Mn768 O774 2.087 . S
O769 Mn763 2.153 1_554 S
O769 C779 1.244 . S
O770 Mn768 2.089 . S
O770 C777 1.256 . S
O771 Mn763 2.170 . S
O771 C780 1.239 . S
O772 Mn765 2.089 . S
O772 C780 1.256 . S
O773 Mn768 2.251 . S
O773 C778 1.241 . S
O774 Mn768 2.087 . S
O774 C779 1.256 . S
C775 O781 1.278 1_554 S
C775 O782 1.241 . S
C776 O762 1.244 . S
C776 O764 1.256 . S
C777 O766 1.246 . S
C777 O770 1.256 . S
C778 O767 1.278 . S
C778 O773 1.241 . S
C779 O769 1.244 . S
C779 O774 1.256 . S
C780 O771 1.239 . S
C780 O772 1.256 . S
O781 Mn763 2.223 . S
O781 Mn765 2.290 . S
O781 C775 1.278 1_556 S
O782 Mn765 2.251 1_554 S
O782 C775 1.241 . S
O783 Mn784 2.163 . S
O783 C797 1.244 . S
Mn784 O783 2.163 . S
Mn784 O787 2.160 . S
Mn784 O788 2.221 . S
Mn784 O790 2.163 . S
Mn784 O792 2.160 . S
Mn784 O802 2.221 . S
O785 Mn786 2.087 . S
O785 C797 1.256 . S
Mn786 O785 2.087 . S
Mn786 O793 2.089 . S
Mn786 O802 2.290 . S
Mn786 O803 2.251 . S
O787 Mn784 2.160 . S
O787 C798 1.239 . S
O788 Mn784 2.221 . S
O788 Mn789 2.290 . S
O788 C799 1.278 . S
Mn789 O788 2.290 . S
Mn789 O791 2.089 . S
Mn789 O794 2.251 . S
Mn789 O795 2.087 . S
O790 Mn784 2.163 . S
O790 C800 1.244 . S
O791 Mn789 2.089 . S
O791 C798 1.256 . S
O792 Mn784 2.160 . S
O792 C801 1.239 . S
O793 Mn786 2.089 . S
O793 C801 1.256 . S
O794 Mn789 2.251 . S
O794 C799 1.241 . S
O795 Mn789 2.087 . S
O795 C800 1.256 . S
C796 O802 1.278 . S
C796 O803 1.241 . S
C797 O783 1.244 . S
C797 O785 1.256 . S
C798 O787 1.239 . S
C798 O791 1.256 . S
C799 O788 1.278 . S
C799 O794 1.241 . S
C800 O790 1.244 . S
C800 O795 1.256 . S
C801 O792 1.239 . S
C801 O793 1.256 . S
O802 Mn784 2.221 . S
O802 Mn786 2.290 . S
O802 C796 1.278 . S
O803 Mn786 2.251 . S
O803 C796 1.241 . S
O804 Mn805 2.163 . S
O804 C818 1.244 . S
Mn805 O804 2.163 . S
Mn805 O808 2.160 . S
Mn805 O809 2.221 . S
Mn805 O811 2.163 . S
Mn805 O813 2.160 . S
Mn805 O823 2.221 . S
O806 Mn807 2.087 . S
O806 C818 1.256 . S
Mn807 O806 2.087 . S
Mn807 O814 2.089 . S
Mn807 O823 2.290 . S
Mn807 O824 2.251 . S
O808 Mn805 2.160 . S
O808 C819 1.239 . S
O809 Mn805 2.221 . S
O809 Mn810 2.290 . S
O809 C820 1.278 . S
Mn810 O809 2.290 . S
Mn810 O812 2.089 . S
Mn810 O815 2.251 . S
Mn810 O816 2.087 . S
O811 Mn805 2.163 . S
O811 C821 1.244 . S
O812 Mn810 2.089 . S
O812 C819 1.256 . S
O813 Mn805 2.160 . S
O813 C822 1.239 . S
O814 Mn807 2.089 . S
O814 C822 1.256 . S
O815 Mn810 2.251 . S
O815 C820 1.241 . S
O816 Mn810 2.087 . S
O816 C821 1.256 . S
C817 O823 1.278 . S
C817 O824 1.241 . S
C818 O804 1.244 . S
C818 O806 1.256 . S
C819 O808 1.239 . S
C819 O812 1.256 . S
C820 O809 1.278 . S
C820 O815 1.241 . S
C821 O811 1.244 . S
C821 O816 1.256 . S
C822 O813 1.239 . S
C822 O814 1.256 . S
O823 Mn805 2.221 . S
O823 Mn807 2.290 . S
O823 C817 1.278 . S
O824 Mn807 2.251 . S
O824 C817 1.241 . S
O825 Mn826 2.163 . S
O825 C839 1.244 . S
Mn826 O825 2.163 . S
Mn826 O829 2.160 . S
Mn826 O830 2.221 . S
Mn826 O832 2.163 . S
Mn826 O834 2.160 . S
Mn826 O844 2.221 . S
O827 Mn828 2.087 . S
O827 C839 1.256 . S
Mn828 O827 2.087 . S
Mn828 O835 2.089 . S
Mn828 O844 2.290 . S
Mn828 O845 2.251 . S
O829 Mn826 2.160 . S
O829 C840 1.239 . S
O830 Mn826 2.221 . S
O830 Mn831 2.290 . S
O830 C841 1.278 . S
Mn831 O830 2.290 . S
Mn831 O833 2.089 . S
Mn831 O836 2.251 . S
Mn831 O837 2.087 . S
O832 Mn826 2.163 . S
O832 C842 1.244 . S
O833 Mn831 2.089 . S
O833 C840 1.256 . S
O834 Mn826 2.160 . S
O834 C843 1.239 . S
O835 Mn828 2.089 . S
O835 C843 1.256 . S
O836 Mn831 2.251 . S
O836 C841 1.241 . S
O837 Mn831 2.087 . S
O837 C842 1.256 . S
C838 O844 1.278 . S
C838 O845 1.241 . S
C839 O825 1.244 . S
C839 O827 1.256 . S
C840 O829 1.239 . S
C840 O833 1.256 . S
C841 O830 1.278 . S
C841 O836 1.241 . S
C842 O832 1.244 . S
C842 O837 1.256 . S
C843 O834 1.239 . S
C843 O835 1.256 . S
O844 Mn826 2.221 . S
O844 Mn828 2.290 . S
O844 C838 1.278 . S
O845 Mn828 2.251 . S
O845 C838 1.241 . S
O846 Mn847 2.163 . S
O846 C860 1.244 . S
Mn847 O846 2.163 . S
Mn847 O850 2.160 . S
Mn847 O851 2.221 . S
Mn847 O853 2.163 . S
Mn847 O855 2.160 . S
Mn847 O865 2.221 . S
O848 Mn849 2.087 . S
O848 C860 1.256 . S
Mn849 O848 2.087 . S
Mn849 O856 2.089 . S
Mn849 O865 2.290 . S
Mn849 O866 2.251 . S
O850 Mn847 2.160 . S
O850 C861 1.239 . S
O851 Mn847 2.221 . S
O851 Mn852 2.290 . S
O851 C862 1.278 . S
Mn852 O851 2.290 . S
Mn852 O854 2.089 . S
Mn852 O857 2.251 . S
Mn852 O858 2.087 . S
O853 Mn847 2.163 . S
O853 C863 1.244 . S
O854 Mn852 2.089 . S
O854 C861 1.256 . S
O855 Mn847 2.160 . S
O855 C864 1.239 . S
O856 Mn849 2.089 . S
O856 C864 1.256 . S
O857 Mn852 2.251 . S
O857 C862 1.241 . S
O858 Mn852 2.087 . S
O858 C863 1.256 . S
C859 O865 1.278 . S
C859 O866 1.241 . S
C860 O846 1.244 . S
C860 O848 1.256 . S
C861 O850 1.239 . S
C861 O854 1.256 . S
C862 O851 1.278 . S
C862 O857 1.241 . S
C863 O853 1.244 . S
C863 O858 1.256 . S
C864 O855 1.239 . S
C864 O856 1.256 . S
O865 Mn847 2.221 . S
O865 Mn849 2.290 . S
O865 C859 1.278 . S
O866 Mn849 2.251 . S
O866 C859 1.241 . S
O867 Mn868 2.163 . S
O867 C881 1.244 . S
Mn868 O867 2.163 . S
Mn868 O871 2.160 . S
Mn868 O872 2.221 . S
Mn868 O874 2.163 . S
Mn868 O876 2.160 . S
Mn868 O886 2.221 . S
O869 Mn870 2.087 . S
O869 C881 1.256 . S
Mn870 O869 2.087 . S
Mn870 O877 2.089 . S
Mn870 O886 2.290 . S
Mn870 O887 2.251 . S
O871 Mn868 2.160 . S
O871 C882 1.239 . S
O872 Mn868 2.221 . S
O872 Mn873 2.290 . S
O872 C883 1.278 . S
Mn873 O872 2.290 . S
Mn873 O875 2.089 . S
Mn873 O878 2.251 . S
Mn873 O879 2.087 . S
O874 Mn868 2.163 . S
O874 C884 1.244 . S
O875 Mn873 2.089 . S
O875 C882 1.256 . S
O876 Mn868 2.160 . S
O876 C885 1.239 . S
O877 Mn870 2.089 . S
O877 C885 1.256 . S
O878 Mn873 2.251 . S
O878 C883 1.241 . S
O879 Mn873 2.087 . S
O879 C884 1.256 . S
C880 O886 1.278 . S
C880 O887 1.241 . S
C881 O867 1.244 . S
C881 O869 1.256 . S
C882 O871 1.239 . S
C882 O875 1.256 . S
C883 O872 1.278 . S
C883 O878 1.241 . S
C884 O874 1.244 . S
C884 O879 1.256 . S
C885 O876 1.239 . S
C885 O877 1.256 . S
O886 Mn868 2.221 . S
O886 Mn870 2.290 . S
O886 C880 1.278 . S
O887 Mn870 2.251 . S
O887 C880 1.241 . S
O888 Mn889 2.163 . S
O888 C902 1.244 . S
Mn889 O888 2.163 . S
Mn889 O892 2.160 . S
Mn889 O893 2.221 . S
Mn889 O895 2.163 . S
Mn889 O897 2.160 . S
Mn889 O907 2.221 . S
O890 Mn891 2.087 . S
O890 C902 1.256 . S
Mn891 O890 2.087 . S
Mn891 O898 2.089 . S
Mn891 O907 2.290 . S
Mn891 O908 2.251 . S
O892 Mn889 2.160 . S
O892 C903 1.239 . S
O893 Mn889 2.221 . S
O893 Mn894 2.290 . S
O893 C904 1.278 . S
Mn894 O893 2.290 . S
Mn894 O896 2.089 . S
Mn894 O899 2.251 . S
Mn894 O900 2.087 . S
O895 Mn889 2.163 . S
O895 C905 1.244 . S
O896 Mn894 2.089 . S
O896 C903 1.256 . S
O897 Mn889 2.160 . S
O897 C906 1.239 . S
O898 Mn891 2.089 . S
O898 C906 1.256 . S
O899 Mn894 2.251 . S
O899 C904 1.241 . S
O900 Mn894 2.087 . S
O900 C905 1.256 . S
C901 O907 1.278 . S
C901 O908 1.241 . S
C902 O888 1.244 . S
C902 O890 1.256 . S
C903 O892 1.239 . S
C903 O896 1.256 . S
C904 O893 1.278 . S
C904 O899 1.241 . S
C905 O895 1.244 . S
C905 O900 1.256 . S
C906 O897 1.239 . S
C906 O898 1.256 . S
O907 Mn889 2.221 . S
O907 Mn891 2.290 . S
O907 C901 1.278 . S
O908 Mn891 2.251 . S
O908 C901 1.241 . S
H909 C921 0.930 . S
H910 C923 0.930 . S
H911 C924 0.930 . S
H912 C928 0.959 1_556 S
H913 C928 0.959 . S
H914 C928 0.961 . S
H915 C929 0.960 . S
H916 C929 0.961 . S
H917 C929 0.959 . S
H918 C932 0.929 . S
H919 C933 0.931 . S
H920 C935 0.930 . S
C921 H909 0.930 . S
C921 C922 1.399 . S
C921 C926 1.399 . S
C922 C921 1.399 . S
C922 C923 1.376 . S
C923 H910 0.930 . S
C923 C922 1.376 . S
C923 C924 1.388 . S
C924 H911 0.930 . S
C924 C923 1.388 . S
C924 C925 1.390 . S
C925 C924 1.390 . S
C925 C926 1.394 . S
C925 C931 1.465 . S
C926 C921 1.399 . S
C926 C925 1.394 . S
C926 C927 1.516 . S
C927 C926 1.516 . S
C927 C928 1.502 . S
C927 C929 1.561 . S
C927 C930 1.526 . S
C928 H912 0.959 1_554 S
C928 H913 0.959 . S
C928 H914 0.961 . S
C928 C927 1.502 . S
C929 H915 0.960 . S
C929 H916 0.961 . S
C929 H917 0.959 . S
C929 C927 1.561 . S
C930 C927 1.526 . S
C930 C931 1.396 . S
C930 C935 1.390 . S
C931 C925 1.465 . S
C931 C930 1.396 . S
C931 C932 1.399 . S
C932 H918 0.929 . S
C932 C931 1.399 . S
C932 C933 1.385 . S
C933 H919 0.931 . S
C933 C932 1.385 . S
C933 C934 1.389 . S
C934 C933 1.389 . S
C934 C935 1.387 . S
C935 H920 0.930 . S
C935 C930 1.390 . S
C935 C934 1.387 . S
H936 C948 0.930 . S
H937 C950 0.930 1_556 S
H938 C951 0.930 . S
H939 C955 0.959 . S
H940 C955 0.959 . S
H941 C955 0.961 . S
H942 C956 0.960 . S
H943 C956 0.961 . S
H944 C956 0.959 . S
H945 C959 0.929 . S
H946 C960 0.931 . S
H947 C962 0.930 . S
C948 H936 0.930 . S
C948 C949 1.399 . S
C948 C953 1.399 . S
C949 C948 1.399 . S
C949 C950 1.376 . S
C950 H937 0.930 1_554 S
C950 C949 1.376 . S
C950 C951 1.388 1_554 S
C951 H938 0.930 . S
C951 C950 1.388 1_556 S
C951 C952 1.390 1_556 S
C952 C951 1.390 1_554 S
C952 C953 1.394 . S
C952 C958 1.465 . S
C953 C948 1.399 . S
C953 C952 1.394 . S
C953 C954 1.516 . S
C954 C953 1.516 . S
C954 C955 1.502 . S
C954 C956 1.561 . S
C954 C957 1.526 . S
C955 H939 0.959 . S
C955 H940 0.959 . S
C955 H941 0.961 . S
C955 C954 1.502 . S
C956 H942 0.960 . S
C956 H943 0.961 . S
C956 H944 0.959 . S
C956 C954 1.561 . S
C957 C954 1.526 . S
C957 C958 1.396 . S
C957 C962 1.390 . S
C958 C952 1.465 . S
C958 C957 1.396 . S
C958 C959 1.399 1_554 S
C959 H945 0.929 . S
C959 C958 1.399 1_556 S
C959 C960 1.385 . S
C960 H946 0.931 . S
C960 C959 1.385 . S
C960 C961 1.389 1_556 S
C961 C960 1.389 1_554 S
C961 C962 1.387 . S
C962 H947 0.930 . S
C962 C957 1.390 . S
C962 C961 1.387 . S
H963 C975 0.930 1_556 S
H964 C977 0.930 . S
H965 C978 0.930 . S
H966 C982 0.959 . S
H967 C982 0.959 . S
H968 C982 0.961 . S
H969 C983 0.960 . S
H970 C983 0.961 . S
H971 C983 0.959 . S
H972 C986 0.929 . S
H973 C987 0.931 . S
H974 C989 0.930 1_556 S
C975 H963 0.930 1_554 S
C975 C976 1.399 . S
C975 C980 1.399 . S
C976 C975 1.399 . S
C976 C977 1.376 . S
C977 H964 0.930 . S
C977 C976 1.376 . S
C977 C978 1.388 . S
C978 H965 0.930 . S
C978 C977 1.388 . S
C978 C979 1.390 . S
C979 C978 1.390 . S
C979 C980 1.394 . S
C979 C985 1.465 . S
C980 C975 1.399 . S
C980 C979 1.394 . S
C980 C981 1.516 1_554 S
C981 C980 1.516 1_556 S
C981 C982 1.502 . S
C981 C983 1.561 . S
C981 C984 1.526 1_556 S
C982 H966 0.959 . S
C982 H967 0.959 . S
C982 H968 0.961 . S
C982 C981 1.502 . S
C983 H969 0.960 . S
C983 H970 0.961 . S
C983 H971 0.959 . S
C983 C981 1.561 . S
C984 C981 1.526 1_554 S
C984 C985 1.396 . S
C984 C989 1.390 . S
C985 C979 1.465 . S
C985 C984 1.396 . S
C985 C986 1.399 . S
C986 H972 0.929 . S
C986 C985 1.399 . S
C986 C987 1.385 . S
C987 H973 0.931 . S
C987 C986 1.385 . S
C987 C988 1.389 . S
C988 C987 1.389 . S
C988 C989 1.387 . S
C989 H974 0.930 1_554 S
C989 C984 1.390 . S
C989 C988 1.387 . S
H990 C1002 0.930 . S
H991 C1004 0.930 . S
H992 C1005 0.930 . S
H993 C1009 0.959 . S
H994 C1009 0.959 . S
H995 C1009 0.961 . S
H996 C1010 0.960 . S
H997 C1010 0.961 . S
H998 C1010 0.959 . S
H999 C1013 0.929 . S
H1000 C1014 0.931 . S
H1001 C1016 0.930 . S
C1002 H990 0.930 . S
C1002 C1003 1.399 . S
C1002 C1007 1.399 . S
C1003 C1002 1.399 . S
C1003 C1004 1.376 1_556 S
C1004 H991 0.930 . S
C1004 C1003 1.376 1_554 S
C1004 C1005 1.388 . S
C1005 H992 0.930 . S
C1005 C1004 1.388 . S
C1005 C1006 1.390 1_554 S
C1006 C1005 1.390 1_556 S
C1006 C1007 1.394 . S
C1006 C1012 1.465 . S
C1007 C1002 1.399 . S
C1007 C1006 1.394 . S
C1007 C1008 1.516 . S
C1008 C1007 1.516 . S
C1008 C1009 1.502 . S
C1008 C1010 1.561 . S
C1008 C1011 1.526 . S
C1009 H993 0.959 . S
C1009 H994 0.959 . S
C1009 H995 0.961 . S
C1009 C1008 1.502 . S
C1010 H996 0.960 . S
C1010 H997 0.961 . S
C1010 H998 0.959 . S
C1010 C1008 1.561 . S
C1011 C1008 1.526 . S
C1011 C1012 1.396 . S
C1011 C1016 1.390 . S
C1012 C1006 1.465 . S
C1012 C1011 1.396 . S
C1012 C1013 1.399 1_556 S
C1013 H999 0.929 . S
C1013 C1012 1.399 1_554 S
C1013 C1014 1.385 . S
C1014 H1000 0.931 . S
C1014 C1013 1.385 . S
C1014 C1015 1.389 1_554 S
C1015 C1014 1.389 1_556 S
C1015 C1016 1.387 . S
C1016 H1001 0.930 . S
C1016 C1011 1.390 . S
C1016 C1015 1.387 . S
H1017 C1029 0.930 . S
H1018 C1031 0.930 . S
H1019 C1032 0.930 1_554 S
H1020 C1036 0.959 . S
H1021 C1036 0.959 . S
H1022 C1036 0.961 . S
H1023 C1037 0.960 . S
H1024 C1037 0.961 . S
H1025 C1037 0.959 . S
H1026 C1040 0.942 . S
H1027 C1041 0.951 . S
H1028 C1043 0.930 . S
C1029 H1017 0.930 . S
C1029 C1030 1.399 . S
C1029 C1034 1.399 . S
C1030 C1029 1.399 . S
C1030 C1031 1.376 . S
C1031 H1018 0.930 . S
C1031 C1030 1.376 . S
C1031 C1032 1.388 . S
C1032 H1019 0.930 1_556 S
C1032 C1031 1.388 . S
C1032 C1033 1.390 . S
C1033 C1032 1.390 . S
C1033 C1034 1.394 . S
C1033 C1039 1.465 . S
C1034 C1029 1.399 . S
C1034 C1033 1.394 . S
C1034 C1035 1.516 . S
C1035 C1034 1.516 . S
C1035 C1036 1.502 . S
C1035 C1037 1.561 . S
C1035 C1038 1.526 . S
C1036 H1020 0.959 . S
C1036 H1021 0.959 . S
C1036 H1022 0.961 . S
C1036 C1035 1.502 . S
C1037 H1023 0.960 . S
C1037 H1024 0.961 . S
C1037 H1025 0.959 . S
C1037 C1035 1.561 . S
C1038 C1035 1.526 . S
C1038 C1039 1.396 . S
C1038 C1043 1.390 . S
C1039 C1033 1.465 . S
C1039 C1038 1.396 . S
C1039 C1040 1.386 1_556 S
C1040 H1026 0.942 . S
C1040 C1039 1.386 1_554 S
C1040 C1041 1.385 . S
C1041 H1027 0.951 . S
C1041 C1040 1.385 . S
C1041 C1042 1.372 1_554 S
C1042 C1041 1.372 1_556 S
C1042 C1043 1.387 . S
C1043 H1028 0.930 . S
C1043 C1038 1.390 . S
C1043 C1042 1.387 . S
H1044 C1056 0.930 . S
H1045 C1058 0.930 . S
H1046 C1059 0.930 . S
H1047 C1063 0.959 . S
H1048 C1063 0.959 . S
H1049 C1063 0.961 . S
H1050 C1064 0.960 . S
H1051 C1064 0.961 . S
H1052 C1064 0.959 . S
H1053 C1067 0.929 . S
H1054 C1068 0.931 . S
H1055 C1070 0.930 . S
C1056 H1044 0.930 . S
C1056 C1057 1.399 1_554 S
C1056 C1061 1.394 1_554 S
C1057 C1056 1.399 1_556 S
C1057 C1058 1.376 . S
C1058 H1045 0.930 . S
C1058 C1057 1.376 . S
C1058 C1059 1.388 . S
C1059 H1046 0.930 . S
C1059 C1058 1.388 . S
C1059 C1060 1.390 . S
C1060 C1059 1.390 . S
C1060 C1061 1.425 . S
C1060 C1066 1.465 . S
C1061 C1056 1.394 1_556 S
C1061 C1060 1.425 . S
C1061 C1062 1.494 1_556 S
C1062 C1061 1.494 1_554 S
C1062 C1063 1.502 . S
C1062 C1064 1.561 . S
C1062 C1065 1.564 . S
C1063 H1047 0.959 . S
C1063 H1048 0.959 . S
C1063 H1049 0.961 . S
C1063 C1062 1.502 . S
C1064 H1050 0.960 . S
C1064 H1051 0.961 . S
C1064 H1052 0.959 . S
C1064 C1062 1.561 . S
C1065 C1062 1.564 . S
C1065 C1066 1.335 1_554 S
C1065 C1070 1.407 . S
C1066 C1060 1.465 . S
C1066 C1065 1.335 1_556 S
C1066 C1067 1.399 . S
C1067 H1053 0.929 . S
C1067 C1066 1.399 . S
C1067 C1068 1.385 . S
C1068 H1054 0.931 . S
C1068 C1067 1.385 . S
C1068 C1069 1.389 . S
C1069 C1068 1.389 . S
C1069 C1070 1.387 1_556 S
C1070 H1055 0.930 . S
C1070 C1065 1.407 . S
C1070 C1069 1.387 1_554 S
H1071 C1083 0.930 . S
H1072 C1085 0.930 . S
H1073 C1086 0.930 . S
H1074 C1090 0.959 . S
H1075 C1090 0.959 . S
H1076 C1090 0.961 . S
H1077 C1091 0.960 . S
H1078 C1091 0.961 . S
H1079 C1091 0.959 . S
H1080 C1094 0.929 . S
H1081 C1095 0.931 . S
H1082 C1097 0.930 . S
C1083 H1071 0.930 . S
C1083 C1084 1.399 . S
C1083 C1088 1.399 . S
C1084 C1083 1.399 . S
C1084 C1085 1.376 1_556 S
C1085 H1072 0.930 . S
C1085 C1084 1.376 1_554 S
C1085 C1086 1.388 . S
C1086 H1073 0.930 . S
C1086 C1085 1.388 . S
C1086 C1087 1.390 1_554 S
C1087 C1086 1.390 1_556 S
C1087 C1088 1.394 . S
C1087 C1093 1.465 1_556 S
C1088 C1083 1.399 . S
C1088 C1087 1.394 . S
C1088 C1089 1.516 . S
C1089 C1088 1.516 . S
C1089 C1090 1.502 . S
C1089 C1091 1.561 . S
C1089 C1092 1.526 . S
C1090 H1074 0.959 . S
C1090 H1075 0.959 . S
C1090 H1076 0.961 . S
C1090 C1089 1.502 . S
C1091 H1077 0.960 . S
C1091 H1078 0.961 . S
C1091 H1079 0.959 . S
C1091 C1089 1.561 . S
C1092 C1089 1.526 . S
C1092 C1093 1.396 1_556 S
C1092 C1097 1.390 . S
C1093 C1087 1.465 1_554 S
C1093 C1092 1.396 1_554 S
C1093 C1094 1.399 . S
C1094 H1080 0.929 . S
C1094 C1093 1.399 . S
C1094 C1095 1.385 . S
C1095 H1081 0.931 . S
C1095 C1094 1.385 . S
C1095 C1096 1.389 1_554 S
C1096 C1095 1.389 1_556 S
C1096 C1097 1.387 . S
C1097 H1082 0.930 . S
C1097 C1092 1.390 . S
C1097 C1096 1.387 . S
H1098 C1110 0.930 . S
H1099 C1112 0.930 . S
H1100 C1113 0.930 . S
H1101 C1117 0.959 . S
H1102 C1117 0.959 . S
H1103 C1117 0.961 . S
H1104 C1118 0.960 . S
H1105 C1118 0.961 . S
H1106 C1118 0.959 . S
H1107 C1121 0.929 . S
H1108 C1122 0.931 . S
H1109 C1124 0.930 . S
C1110 H1098 0.930 . S
C1110 C1111 1.399 1_554 S
C1110 C1115 1.402 . S
C1111 C1110 1.399 1_556 S
C1111 C1112 1.376 . S
C1112 H1099 0.930 . S
C1112 C1111 1.376 . S
C1112 C1113 1.388 . S
C1113 H1100 0.930 . S
C1113 C1112 1.388 . S
C1113 C1114 1.390 . S
C1114 C1113 1.390 . S
C1114 C1115 1.366 1_556 S
C1114 C1120 1.465 . S
C1115 C1110 1.402 . S
C1115 C1114 1.366 1_554 S
C1115 C1116 1.538 . S
C1116 C1115 1.538 . S
C1116 C1117 1.502 . S
C1116 C1118 1.561 . S
C1116 C1119 1.526 . S
C1117 H1101 0.959 . S
C1117 H1102 0.959 . S
C1117 H1103 0.961 . S
C1117 C1116 1.502 . S
C1118 H1104 0.960 . S
C1118 H1105 0.961 . S
C1118 H1106 0.959 . S
C1118 C1116 1.561 . S
C1119 C1116 1.526 . S
C1119 C1120 1.396 1_554 S
C1119 C1124 1.390 . S
C1120 C1114 1.465 . S
C1120 C1119 1.396 1_556 S
C1120 C1121 1.399 . S
C1121 H1107 0.929 . S
C1121 C1120 1.399 . S
C1121 C1122 1.385 . S
C1122 H1108 0.931 . S
C1122 C1121 1.385 . S
C1122 C1123 1.389 . S
C1123 C1122 1.389 . S
C1123 C1124 1.387 1_556 S
C1124 H1109 0.930 . S
C1124 C1119 1.390 . S
C1124 C1123 1.387 1_554 S
H1125 C1137 0.930 . S
H1126 C1139 0.930 . S
H1127 C1140 0.930 . S
H1128 C1144 0.959 . S
H1129 C1144 0.959 . S
H1130 C1144 0.961 . S
H1131 C1145 0.960 . S
H1132 C1145 0.961 . S
H1133 C1145 0.959 . S
H1134 C1148 0.929 . S
H1135 C1149 0.931 . S
H1136 C1151 0.930 . S
C1137 H1125 0.930 . S
C1137 C1138 1.399 1_554 S
C1137 C1142 1.399 . S
C1138 C1137 1.399 1_556 S
C1138 C1139 1.376 . S
C1139 H1126 0.930 . S
C1139 C1138 1.376 . S
C1139 C1140 1.388 . S
C1140 H1127 0.930 . S
C1140 C1139 1.388 . S
C1140 C1141 1.390 . S
C1141 C1140 1.390 . S
C1141 C1142 1.394 1_556 S
C1141 C1147 1.465 . S
C1142 C1137 1.399 . S
C1142 C1141 1.394 1_554 S
C1142 C1143 1.516 . S
C1143 C1142 1.516 . S
C1143 C1144 1.502 . S
C1143 C1145 1.561 . S
C1143 C1146 1.526 . S
C1144 H1128 0.959 . S
C1144 H1129 0.959 . S
C1144 H1130 0.961 . S
C1144 C1143 1.502 . S
C1145 H1131 0.960 . S
C1145 H1132 0.961 . S
C1145 H1133 0.959 . S
C1145 C1143 1.561 . S
C1146 C1143 1.526 . S
C1146 C1147 1.396 1_554 S
C1146 C1151 1.390 . S
C1147 C1141 1.465 . S
C1147 C1146 1.396 1_556 S
C1147 C1148 1.399 . S
C1148 H1134 0.929 . S
C1148 C1147 1.399 . S
C1148 C1149 1.385 . S
C1149 H1135 0.931 . S
C1149 C1148 1.385 . S
C1149 C1150 1.389 . S
C1150 C1149 1.389 . S
C1150 C1151 1.387 1_556 S
C1151 H1136 0.930 . S
C1151 C1146 1.390 . S
C1151 C1150 1.387 1_554 S
H1152 C1164 0.930 . S
H1153 C1166 0.930 . S
H1154 C1167 0.930 . S
H1155 C1171 0.959 . S
H1156 C1171 0.959 . S
H1157 C1171 0.961 . S
H1158 C1172 0.960 . S
H1159 C1172 0.961 . S
H1160 C1172 0.959 . S
H1161 C1175 0.929 . S
H1162 C1176 0.931 . S
H1163 C1178 0.930 . S
C1164 H1152 0.930 . S
C1164 C1165 1.399 . S
C1164 C1169 1.399 . S
C1165 C1164 1.399 . S
C1165 C1166 1.376 1_554 S
C1166 H1153 0.930 . S
C1166 C1165 1.376 1_556 S
C1166 C1167 1.388 . S
C1167 H1154 0.930 . S
C1167 C1166 1.388 . S
C1167 C1168 1.390 1_556 S
C1168 C1167 1.390 1_554 S
C1168 C1169 1.394 . S
C1168 C1174 1.465 . S
C1169 C1164 1.399 . S
C1169 C1168 1.394 . S
C1169 C1170 1.516 . S
C1170 C1169 1.516 . S
C1170 C1171 1.502 . S
C1170 C1172 1.561 . S
C1170 C1173 1.526 . S
C1171 H1155 0.959 . S
C1171 H1156 0.959 . S
C1171 H1157 0.961 . S
C1171 C1170 1.502 . S
C1172 H1158 0.960 . S
C1172 H1159 0.961 . S
C1172 H1160 0.959 . S
C1172 C1170 1.561 . S
C1173 C1170 1.526 . S
C1173 C1174 1.396 . S
C1173 C1178 1.390 . S
C1174 C1168 1.465 . S
C1174 C1173 1.396 . S
C1174 C1175 1.399 1_554 S
C1175 H1161 0.929 . S
C1175 C1174 1.399 1_556 S
C1175 C1176 1.385 . S
C1176 H1162 0.931 . S
C1176 C1175 1.385 . S
C1176 C1177 1.389 1_556 S
C1177 C1176 1.389 1_554 S
C1177 C1178 1.387 . S
C1178 H1163 0.930 . S
C1178 C1173 1.390 . S
C1178 C1177 1.387 . S
H1179 C1191 0.930 1_556 S
H1180 C1193 0.930 . S
H1181 C1194 0.930 . S
H1182 C1198 0.959 . S
H1183 C1198 0.959 . S
H1184 C1198 0.961 . S
H1185 C1199 0.960 . S
H1186 C1199 0.961 . S
H1187 C1199 0.959 . S
H1188 C1202 0.929 . S
H1189 C1203 0.931 . S
H1190 C1205 0.930 . S
C1191 H1179 0.930 1_554 S
C1191 C1192 1.399 . S
C1191 C1196 1.399 . S
C1192 C1191 1.399 . S
C1192 C1193 1.376 . S
C1193 H1180 0.930 . S
C1193 C1192 1.376 . S
C1193 C1194 1.388 . S
C1194 H1181 0.930 . S
C1194 C1193 1.388 . S
C1194 C1195 1.390 . S
C1195 C1194 1.390 . S
C1195 C1196 1.394 . S
C1195 C1201 1.465 . S
C1196 C1191 1.399 . S
C1196 C1195 1.394 . S
C1196 C1197 1.516 1_554 S
C1197 C1196 1.516 1_556 S
C1197 C1198 1.502 . S
C1197 C1199 1.561 . S
C1197 C1200 1.526 1_556 S
C1198 H1182 0.959 . S
C1198 H1183 0.959 . S
C1198 H1184 0.961 . S
C1198 C1197 1.502 . S
C1199 H1185 0.960 . S
C1199 H1186 0.961 . S
C1199 H1187 0.959 . S
C1199 C1197 1.561 . S
C1200 C1197 1.526 1_554 S
C1200 C1201 1.396 . S
C1200 C1205 1.390 1_554 S
C1201 C1195 1.465 . S
C1201 C1200 1.396 . S
C1201 C1202 1.399 . S
C1202 H1188 0.929 . S
C1202 C1201 1.399 . S
C1202 C1203 1.385 . S
C1203 H1189 0.931 . S
C1203 C1202 1.385 . S
C1203 C1204 1.389 . S
C1204 C1203 1.389 . S
C1204 C1205 1.387 1_554 S
C1205 H1190 0.930 . S
C1205 C1200 1.390 1_556 S
C1205 C1204 1.387 1_556 S
H1206 C1218 0.930 1_556 S
H1207 C1220 0.930 . S
H1208 C1221 0.930 . S
H1209 C1225 0.959 . S
H1210 C1225 0.959 . S
H1211 C1225 0.961 . S
H1212 C1226 0.960 . S
H1213 C1226 0.961 . S
H1214 C1226 0.959 . S
H1215 C1229 0.929 . S
H1216 C1230 0.931 . S
H1217 C1232 0.930 . S
C1218 H1206 0.930 1_554 S
C1218 C1219 1.399 . S
C1218 C1223 1.399 . S
C1219 C1218 1.399 . S
C1219 C1220 1.376 . S
C1220 H1207 0.930 . S
C1220 C1219 1.376 . S
C1220 C1221 1.388 . S
C1221 H1208 0.930 . S
C1221 C1220 1.388 . S
C1221 C1222 1.390 . S
C1222 C1221 1.390 . S
C1222 C1223 1.394 . S
C1222 C1228 1.465 . S
C1223 C1218 1.399 . S
C1223 C1222 1.394 . S
C1223 C1224 1.516 1_554 S
C1224 C1223 1.516 1_556 S
C1224 C1225 1.502 . S
C1224 C1226 1.561 . S
C1224 C1227 1.526 1_556 S
C1225 H1209 0.959 . S
C1225 H1210 0.959 . S
C1225 H1211 0.961 . S
C1225 C1224 1.502 . S
C1226 H1212 0.960 . S
C1226 H1213 0.961 . S
C1226 H1214 0.959 . S
C1226 C1224 1.561 . S
C1227 C1224 1.526 1_554 S
C1227 C1228 1.396 . S
C1227 C1232 1.390 1_554 S
C1228 C1222 1.465 . S
C1228 C1227 1.396 . S
C1228 C1229 1.399 . S
C1229 H1215 0.929 . S
C1229 C1228 1.399 . S
C1229 C1230 1.385 . S
C1230 H1216 0.931 . S
C1230 C1229 1.385 . S
C1230 C1231 1.389 . S
C1231 C1230 1.389 . S
C1231 C1232 1.387 1_554 S
C1232 H1217 0.930 . S
C1232 C1227 1.390 1_556 S
C1232 C1231 1.387 1_556 S
H1233 C1245 0.944 . S
H1234 C1247 0.896 1_655 S
H1235 C1248 0.930 . S
H1236 C1252 0.959 . S
H1237 C1252 0.959 . S
H1238 C1252 0.961 . S
H1239 C1253 0.960 . S
H1240 C1253 0.961 . S
H1241 C1253 0.959 . S
H1242 C1256 0.929 . S
H1243 C1257 0.931 . S
H1244 C1259 0.930 . S
C1245 H1233 0.944 . S
C1245 C1246 1.399 1_455 S
C1245 C1250 1.399 . S
C1246 C1245 1.399 1_655 S
C1246 C1247 1.363 1_655 S
C1247 H1234 0.896 1_455 S
C1247 C1246 1.363 1_455 S
C1247 C1248 1.439 . S
C1248 H1235 0.930 . S
C1248 C1247 1.439 . S
C1248 C1249 1.390 . S
C1249 C1248 1.390 . S
C1249 C1250 1.394 . S
C1249 C1255 1.465 . S
C1250 C1245 1.399 . S
C1250 C1249 1.394 . S
C1250 C1251 1.516 . S
C1251 C1250 1.516 . S
C1251 C1252 1.502 . S
C1251 C1253 1.561 . S
C1251 C1254 1.526 . S
C1252 H1236 0.959 . S
C1252 H1237 0.959 . S
C1252 H1238 0.961 . S
C1252 C1251 1.502 . S
C1253 H1239 0.960 . S
C1253 H1240 0.961 . S
C1253 H1241 0.959 . S
C1253 C1251 1.561 . S
C1254 C1251 1.526 . S
C1254 C1255 1.396 . S
C1254 C1259 1.390 . S
C1255 C1249 1.465 . S
C1255 C1254 1.396 . S
C1255 C1256 1.399 . S
C1256 H1242 0.929 . S
C1256 C1255 1.399 . S
C1256 C1257 1.385 . S
C1257 H1243 0.931 . S
C1257 C1256 1.385 . S
C1257 C1258 1.389 . S
C1258 C1257 1.389 . S
C1258 C1259 1.387 . S
C1259 H1244 0.930 . S
C1259 C1254 1.390 . S
C1259 C1258 1.387 . S
H1260 C1272 0.930 . S
H1261 C1274 0.930 . S
H1262 C1275 0.930 . S
H1263 C1279 0.959 . S
H1264 C1279 0.959 . S
H1265 C1279 0.961 . S
H1266 C1280 0.960 . S
H1267 C1280 0.961 . S
H1268 C1280 0.959 . S
H1269 C1283 0.929 . S
H1270 C1284 0.931 . S
H1271 C1286 0.930 . S
C1272 H1260 0.930 . S
C1272 C1273 1.399 . S
C1272 C1277 1.399 . S
C1273 C1272 1.399 . S
C1273 C1274 1.376 . S
C1274 H1261 0.930 . S
C1274 C1273 1.376 . S
C1274 C1275 1.388 . S
C1275 H1262 0.930 . S
C1275 C1274 1.388 . S
C1275 C1276 1.390 . S
C1276 C1275 1.390 . S
C1276 C1277 1.394 . S
C1276 C1282 1.465 . S
C1277 C1272 1.399 . S
C1277 C1276 1.394 . S
C1277 C1278 1.516 . S
C1278 C1277 1.516 . S
C1278 C1279 1.502 . S
C1278 C1280 1.561 . S
C1278 C1281 1.526 . S
C1279 H1263 0.959 . S
C1279 H1264 0.959 . S
C1279 H1265 0.961 . S
C1279 C1278 1.502 . S
C1280 H1266 0.960 . S
C1280 H1267 0.961 . S
C1280 H1268 0.959 . S
C1280 C1278 1.561 . S
C1281 C1278 1.526 . S
C1281 C1282 1.396 . S
C1281 C1286 1.390 . S
C1282 C1276 1.465 . S
C1282 C1281 1.396 . S
C1282 C1283 1.399 . S
C1283 H1269 0.929 . S
C1283 C1282 1.399 . S
C1283 C1284 1.385 . S
C1284 H1270 0.931 . S
C1284 C1283 1.385 . S
C1284 C1285 1.389 . S
C1285 C1284 1.389 . S
C1285 C1286 1.387 . S
C1286 H1271 0.930 . S
C1286 C1281 1.390 . S
C1286 C1285 1.387 . S
H1287 C1299 0.923 1_545 S
H1288 C1301 0.930 . S
H1289 C1302 0.930 . S
H1290 C1306 0.959 . S
H1291 C1306 0.959 . S
H1292 C1306 0.961 . S
H1293 C1307 0.960 . S
H1294 C1307 0.961 . S
H1295 C1307 0.959 . S
H1296 C1310 0.929 . S
H1297 C1311 0.931 . S
H1298 C1313 0.930 . S
C1299 H1287 0.923 1_565 S
C1299 C1300 1.399 1_565 S
C1299 C1304 1.399 . S
C1300 C1299 1.399 1_545 S
C1300 C1301 1.376 . S
C1301 H1288 0.930 . S
C1301 C1300 1.376 . S
C1301 C1302 1.388 1_545 S
C1302 H1289 0.930 . S
C1302 C1301 1.388 1_565 S
C1302 C1303 1.390 . S
C1303 C1302 1.390 . S
C1303 C1304 1.394 . S
C1303 C1309 1.465 . S
C1304 C1299 1.399 . S
C1304 C1303 1.394 . S
C1304 C1305 1.516 . S
C1305 C1304 1.516 . S
C1305 C1306 1.502 . S
C1305 C1307 1.561 . S
C1305 C1308 1.526 . S
C1306 H1290 0.959 . S
C1306 H1291 0.959 . S
C1306 H1292 0.961 . S
C1306 C1305 1.502 . S
C1307 H1293 0.960 . S
C1307 H1294 0.961 . S
C1307 H1295 0.959 . S
C1307 C1305 1.561 . S
C1308 C1305 1.526 . S
C1308 C1309 1.396 . S
C1308 C1313 1.390 . S
C1309 C1303 1.465 . S
C1309 C1308 1.396 . S
C1309 C1310 1.399 . S
C1310 H1296 0.929 . S
C1310 C1309 1.399 . S
C1310 C1311 1.385 . S
C1311 H1297 0.931 . S
C1311 C1310 1.385 . S
C1311 C1312 1.389 . S
C1312 C1311 1.389 . S
C1312 C1313 1.387 . S
C1313 H1298 0.930 . S
C1313 C1308 1.390 . S
C1313 C1312 1.387 . S
H1314 C1326 0.930 . S
H1315 C1328 0.930 . S
H1316 C1329 0.930 . S
H1317 C1333 0.959 . S
H1318 C1333 0.959 . S
H1319 C1333 0.961 . S
H1320 C1334 0.960 . S
H1321 C1334 0.961 . S
H1322 C1334 0.959 . S
H1323 C1337 0.929 . S
H1324 C1338 0.931 . S
H1325 C1340 0.930 . S
C1326 H1314 0.930 . S
C1326 C1327 1.399 . S
C1326 C1331 1.399 . S
C1327 C1326 1.399 . S
C1327 C1328 1.376 . S
C1328 H1315 0.930 . S
C1328 C1327 1.376 . S
C1328 C1329 1.388 . S
C1329 H1316 0.930 . S
C1329 C1328 1.388 . S
C1329 C1330 1.390 . S
C1330 C1329 1.390 . S
C1330 C1331 1.394 . S
C1330 C1336 1.465 . S
C1331 C1326 1.399 . S
C1331 C1330 1.394 . S
C1331 C1332 1.516 . S
C1332 C1331 1.516 . S
C1332 C1333 1.502 . S
C1332 C1334 1.561 . S
C1332 C1335 1.526 . S
C1333 H1317 0.959 . S
C1333 H1318 0.959 . S
C1333 H1319 0.961 . S
C1333 C1332 1.502 . S
C1334 H1320 0.960 . S
C1334 H1321 0.961 . S
C1334 H1322 0.959 . S
C1334 C1332 1.561 . S
C1335 C1332 1.526 . S
C1335 C1336 1.396 . S
C1335 C1340 1.390 . S
C1336 C1330 1.465 . S
C1336 C1335 1.396 . S
C1336 C1337 1.399 . S
C1337 H1323 0.929 . S
C1337 C1336 1.399 . S
C1337 C1338 1.385 . S
C1338 H1324 0.931 . S
C1338 C1337 1.385 . S
C1338 C1339 1.389 . S
C1339 C1338 1.389 . S
C1339 C1340 1.387 . S
C1340 H1325 0.930 . S
C1340 C1335 1.390 . S
C1340 C1339 1.387 . S
H1341 C1353 0.930 . S
H1342 C1355 0.930 . S
H1343 C1356 0.930 . S
H1344 C1360 0.959 . S
H1345 C1360 0.959 . S
H1346 C1360 0.961 . S
H1347 C1361 0.960 . S
H1348 C1361 0.961 . S
H1349 C1361 0.959 . S
H1350 C1364 0.929 . S
H1351 C1365 0.931 . S
H1352 C1367 0.930 . S
C1353 H1341 0.930 . S
C1353 C1354 1.399 . S
C1353 C1358 1.399 . S
C1354 C1353 1.399 . S
C1354 C1355 1.376 . S
C1355 H1342 0.930 . S
C1355 C1354 1.376 . S
C1355 C1356 1.388 . S
C1356 H1343 0.930 . S
C1356 C1355 1.388 . S
C1356 C1357 1.390 . S
C1357 C1356 1.390 . S
C1357 C1358 1.394 . S
C1357 C1363 1.465 . S
C1358 C1353 1.399 . S
C1358 C1357 1.394 . S
C1358 C1359 1.516 . S
C1359 C1358 1.516 . S
C1359 C1360 1.502 . S
C1359 C1361 1.561 . S
C1359 C1362 1.526 . S
C1360 H1344 0.959 . S
C1360 H1345 0.959 . S
C1360 H1346 0.961 . S
C1360 C1359 1.502 . S
C1361 H1347 0.960 . S
C1361 H1348 0.961 . S
C1361 H1349 0.959 . S
C1361 C1359 1.561 . S
C1362 C1359 1.526 . S
C1362 C1363 1.396 . S
C1362 C1367 1.390 . S
C1363 C1357 1.465 . S
C1363 C1362 1.396 . S
C1363 C1364 1.399 . S
C1364 H1350 0.929 . S
C1364 C1363 1.399 . S
C1364 C1365 1.385 . S
C1365 H1351 0.931 . S
C1365 C1364 1.385 . S
C1365 C1366 1.389 . S
C1366 C1365 1.389 . S
C1366 C1367 1.387 . S
C1367 H1352 0.930 . S
C1367 C1362 1.390 . S
C1367 C1366 1.387 . S
H1368 C1380 0.930 . S
H1369 C1382 0.930 . S
H1370 C1383 0.930 . S
H1371 C1387 0.959 . S
H1372 C1387 0.959 . S
H1373 C1387 0.961 . S
H1374 C1388 0.960 . S
H1375 C1388 0.961 . S
H1376 C1388 0.959 . S
H1377 C1391 0.929 . S
H1378 C1392 0.931 . S
H1379 C1394 0.930 . S
C1380 H1368 0.930 . S
C1380 C1381 1.399 . S
C1380 C1385 1.399 . S
C1381 C1380 1.399 . S
C1381 C1382 1.376 . S
C1382 H1369 0.930 . S
C1382 C1381 1.376 . S
C1382 C1383 1.388 . S
C1383 H1370 0.930 . S
C1383 C1382 1.388 . S
C1383 C1384 1.390 . S
C1384 C1383 1.390 . S
C1384 C1385 1.394 . S
C1384 C1390 1.465 . S
C1385 C1380 1.399 . S
C1385 C1384 1.394 . S
C1385 C1386 1.516 . S
C1386 C1385 1.516 . S
C1386 C1387 1.502 . S
C1386 C1388 1.561 . S
C1386 C1389 1.526 . S
C1387 H1371 0.959 . S
C1387 H1372 0.959 . S
C1387 H1373 0.961 . S
C1387 C1386 1.502 . S
C1388 H1374 0.960 . S
C1388 H1375 0.961 . S
C1388 H1376 0.959 . S
C1388 C1386 1.561 . S
C1389 C1386 1.526 . S
C1389 C1390 1.396 . S
C1389 C1394 1.390 . S
C1390 C1384 1.465 . S
C1390 C1389 1.396 . S
C1390 C1391 1.399 . S
C1391 H1377 0.929 . S
C1391 C1390 1.399 . S
C1391 C1392 1.385 . S
C1392 H1378 0.931 . S
C1392 C1391 1.385 . S
C1392 C1393 1.389 . S
C1393 C1392 1.389 . S
C1393 C1394 1.387 . S
C1394 H1379 0.930 . S
C1394 C1389 1.390 . S
C1394 C1393 1.387 . S
H1395 C1407 0.930 . S
H1396 C1409 0.930 . S
H1397 C1410 0.930 . S
H1398 C1414 0.959 . S
H1399 C1414 0.959 . S
H1400 C1414 0.961 . S
H1401 C1415 0.960 . S
H1402 C1415 0.961 . S
H1403 C1415 0.959 . S
H1404 C1418 0.929 . S
H1405 C1419 0.931 . S
H1406 C1421 0.930 . S
C1407 H1395 0.930 . S
C1407 C1408 1.399 . S
C1407 C1412 1.399 . S
C1408 C1407 1.399 . S
C1408 C1409 1.376 . S
C1409 H1396 0.930 . S
C1409 C1408 1.376 . S
C1409 C1410 1.388 . S
C1410 H1397 0.930 . S
C1410 C1409 1.388 . S
C1410 C1411 1.390 . S
C1411 C1410 1.390 . S
C1411 C1412 1.394 . S
C1411 C1417 1.465 . S
C1412 C1407 1.399 . S
C1412 C1411 1.394 . S
C1412 C1413 1.516 . S
C1413 C1412 1.516 . S
C1413 C1414 1.502 . S
C1413 C1415 1.561 . S
C1413 C1416 1.526 . S
C1414 H1398 0.959 . S
C1414 H1399 0.959 . S
C1414 H1400 0.961 . S
C1414 C1413 1.502 . S
C1415 H1401 0.960 . S
C1415 H1402 0.961 . S
C1415 H1403 0.959 . S
C1415 C1413 1.561 . S
C1416 C1413 1.526 . S
C1416 C1417 1.396 . S
C1416 C1421 1.390 . S
C1417 C1411 1.465 . S
C1417 C1416 1.396 . S
C1417 C1418 1.399 . S
C1418 H1404 0.929 . S
C1418 C1417 1.399 . S
C1418 C1419 1.385 . S
C1419 H1405 0.931 . S
C1419 C1418 1.385 . S
C1419 C1420 1.389 . S
C1420 C1419 1.389 . S
C1420 C1421 1.387 . S
C1421 H1406 0.930 . S
C1421 C1416 1.390 . S
C1421 C1420 1.387 . S
H1422 C1434 0.930 . S
H1423 C1436 0.930 . S
H1424 C1437 0.930 . S
H1425 C1441 0.959 . S
H1426 C1441 0.959 . S
H1427 C1441 0.961 . S
H1428 C1442 0.960 . S
H1429 C1442 0.961 . S
H1430 C1442 0.959 . S
H1431 C1445 0.929 . S
H1432 C1446 0.931 . S
H1433 C1448 0.930 . S
C1434 H1422 0.930 . S
C1434 C1435 1.399 . S
C1434 C1439 1.399 . S
C1435 C1434 1.399 . S
C1435 C1436 1.376 . S
C1436 H1423 0.930 . S
C1436 C1435 1.376 . S
C1436 C1437 1.388 . S
C1437 H1424 0.930 . S
C1437 C1436 1.388 . S
C1437 C1438 1.390 . S
C1438 C1437 1.390 . S
C1438 C1439 1.394 . S
C1438 C1444 1.465 . S
C1439 C1434 1.399 . S
C1439 C1438 1.394 . S
C1439 C1440 1.516 . S
C1440 C1439 1.516 . S
C1440 C1441 1.502 . S
C1440 C1442 1.561 . S
C1440 C1443 1.526 . S
C1441 H1425 0.959 . S
C1441 H1426 0.959 . S
C1441 H1427 0.961 . S
C1441 C1440 1.502 . S
C1442 H1428 0.960 . S
C1442 H1429 0.961 . S
C1442 H1430 0.959 . S
C1442 C1440 1.561 . S
C1443 C1440 1.526 . S
C1443 C1444 1.396 . S
C1443 C1448 1.390 . S
C1444 C1438 1.465 . S
C1444 C1443 1.396 . S
C1444 C1445 1.399 . S
C1445 H1431 0.929 . S
C1445 C1444 1.399 . S
C1445 C1446 1.385 . S
C1446 H1432 0.931 . S
C1446 C1445 1.385 . S
C1446 C1447 1.389 . S
C1447 C1446 1.389 . S
C1447 C1448 1.387 . S
C1448 H1433 0.930 . S
C1448 C1443 1.390 . S
C1448 C1447 1.387 . S
H1449 C1461 0.930 . S
H1450 C1463 0.930 . S
H1451 C1464 0.930 . S
H1452 C1468 0.959 . S
H1453 C1468 0.959 . S
H1454 C1468 0.961 . S
H1455 C1469 0.960 . S
H1456 C1469 0.961 . S
H1457 C1469 0.959 . S
H1458 C1472 0.929 . S
H1459 C1473 0.931 . S
H1460 C1475 0.930 . S
C1461 H1449 0.930 . S
C1461 C1462 1.399 . S
C1461 C1466 1.399 . S
C1462 C1461 1.399 . S
C1462 C1463 1.376 . S
C1463 H1450 0.930 . S
C1463 C1462 1.376 . S
C1463 C1464 1.388 . S
C1464 H1451 0.930 . S
C1464 C1463 1.388 . S
C1464 C1465 1.390 . S
C1465 C1464 1.390 . S
C1465 C1466 1.394 . S
C1465 C1471 1.465 . S
C1466 C1461 1.399 . S
C1466 C1465 1.394 . S
C1466 C1467 1.516 . S
C1467 C1466 1.516 . S
C1467 C1468 1.502 . S
C1467 C1469 1.561 . S
C1467 C1470 1.526 . S
C1468 H1452 0.959 . S
C1468 H1453 0.959 . S
C1468 H1454 0.961 . S
C1468 C1467 1.502 . S
C1469 H1455 0.960 . S
C1469 H1456 0.961 . S
C1469 H1457 0.959 . S
C1469 C1467 1.561 . S
C1470 C1467 1.526 . S
C1470 C1471 1.396 . S
C1470 C1475 1.390 . S
C1471 C1465 1.465 . S
C1471 C1470 1.396 . S
C1471 C1472 1.399 . S
C1472 H1458 0.929 . S
C1472 C1471 1.399 . S
C1472 C1473 1.385 . S
C1473 H1459 0.931 . S
C1473 C1472 1.385 . S
C1473 C1474 1.389 . S
C1474 C1473 1.389 . S
C1474 C1475 1.387 . S
C1475 H1460 0.930 . S
C1475 C1470 1.390 . S
C1475 C1474 1.387 . S
H1476 C1488 0.930 . S
H1477 C1490 0.930 . S
H1478 C1491 0.930 . S
H1479 C1495 0.959 . S
H1480 C1495 0.959 . S
H1481 C1495 0.961 . S
H1482 C1496 0.960 . S
H1483 C1496 0.961 . S
H1484 C1496 0.959 . S
H1485 C1499 0.929 . S
H1486 C1500 0.931 . S
H1487 C1502 0.930 . S
C1488 H1476 0.930 . S
C1488 C1489 1.399 1_565 S
C1488 C1493 1.399 . S
C1489 C1488 1.399 1_545 S
C1489 C1490 1.376 . S
C1490 H1477 0.930 . S
C1490 C1489 1.376 . S
C1490 C1491 1.388 1_545 S
C1491 H1478 0.930 . S
C1491 C1490 1.388 1_565 S
C1491 C1492 1.390 . S
C1492 C1491 1.390 . S
C1492 C1493 1.394 . S
C1492 C1498 1.465 . S
C1493 C1488 1.399 . S
C1493 C1492 1.394 . S
C1493 C1494 1.516 . S
C1494 C1493 1.516 . S
C1494 C1495 1.502 . S
C1494 C1496 1.561 . S
C1494 C1497 1.526 . S
C1495 H1479 0.959 . S
C1495 H1480 0.959 . S
C1495 H1481 0.961 . S
C1495 C1494 1.502 . S
C1496 H1482 0.960 . S
C1496 H1483 0.961 . S
C1496 H1484 0.959 . S
C1496 C1494 1.561 . S
C1497 C1494 1.526 . S
C1497 C1498 1.396 . S
C1497 C1502 1.390 . S
C1498 C1492 1.465 . S
C1498 C1497 1.396 . S
C1498 C1499 1.399 . S
C1499 H1485 0.929 . S
C1499 C1498 1.399 . S
C1499 C1500 1.385 . S
C1500 H1486 0.931 . S
C1500 C1499 1.385 . S
C1500 C1501 1.389 . S
C1501 C1500 1.389 . S
C1501 C1502 1.387 . S
C1502 H1487 0.930 . S
C1502 C1497 1.390 . S
C1502 C1501 1.387 . S
H1503 C1515 0.934 1_655 S
H1504 C1517 0.930 . S
H1505 C1518 0.930 . S
H1506 C1522 0.959 . S
H1507 C1522 0.959 . S
H1508 C1522 0.961 . S
H1509 C1523 0.960 . S
H1510 C1523 0.961 . S
H1511 C1523 0.959 . S
H1512 C1526 0.929 . S
H1513 C1527 0.931 . S
H1514 C1529 0.930 . S
C1515 H1503 0.934 1_455 S
C1515 C1516 1.399 1_455 S
C1515 C1520 1.399 . S
C1516 C1515 1.399 1_655 S
C1516 C1517 1.376 . S
C1517 H1504 0.930 . S
C1517 C1516 1.376 . S
C1517 C1518 1.388 1_655 S
C1518 H1505 0.930 . S
C1518 C1517 1.388 1_455 S
C1518 C1519 1.390 . S
C1519 C1518 1.390 . S
C1519 C1520 1.394 . S
C1519 C1525 1.465 . S
C1520 C1515 1.399 . S
C1520 C1519 1.394 . S
C1520 C1521 1.516 . S
C1521 C1520 1.516 . S
C1521 C1522 1.502 . S
C1521 C1523 1.561 . S
C1521 C1524 1.526 . S
C1522 H1506 0.959 . S
C1522 H1507 0.959 . S
C1522 H1508 0.961 . S
C1522 C1521 1.502 . S
C1523 H1509 0.960 . S
C1523 H1510 0.961 . S
C1523 H1511 0.959 . S
C1523 C1521 1.561 . S
C1524 C1521 1.526 . S
C1524 C1525 1.396 . S
C1524 C1529 1.390 . S
C1525 C1519 1.465 . S
C1525 C1524 1.396 . S
C1525 C1526 1.399 . S
C1526 H1512 0.929 . S
C1526 C1525 1.399 . S
C1526 C1527 1.385 . S
C1527 H1513 0.931 . S
C1527 C1526 1.385 . S
C1527 C1528 1.389 . S
C1528 C1527 1.389 . S
C1528 C1529 1.387 . S
C1529 H1514 0.930 . S
C1529 C1524 1.390 . S
C1529 C1528 1.387 . S
H1530 C1542 0.930 . S
H1531 C1544 0.930 . S
H1532 C1545 0.930 . S
H1533 C1549 0.959 . S
H1534 C1549 0.959 . S
H1535 C1549 0.961 . S
H1536 C1550 0.960 . S
H1537 C1550 0.961 . S
H1538 C1550 0.959 . S
H1539 C1553 0.929 . S
H1540 C1554 0.931 . S
H1541 C1556 0.930 . S
C1542 H1530 0.930 . S
C1542 C1543 1.399 . S
C1542 C1547 1.399 . S
C1543 C1542 1.399 . S
C1543 C1544 1.376 . S
C1544 H1531 0.930 . S
C1544 C1543 1.376 . S
C1544 C1545 1.388 . S
C1545 H1532 0.930 . S
C1545 C1544 1.388 . S
C1545 C1546 1.390 . S
C1546 C1545 1.390 . S
C1546 C1547 1.394 . S
C1546 C1552 1.465 . S
C1547 C1542 1.399 . S
C1547 C1546 1.394 . S
C1547 C1548 1.516 . S
C1548 C1547 1.516 . S
C1548 C1549 1.502 . S
C1548 C1550 1.561 . S
C1548 C1551 1.526 . S
C1549 H1533 0.959 . S
C1549 H1534 0.959 . S
C1549 H1535 0.961 . S
C1549 C1548 1.502 . S
C1550 H1536 0.960 . S
C1550 H1537 0.961 . S
C1550 H1538 0.959 . S
C1550 C1548 1.561 . S
C1551 C1548 1.526 . S
C1551 C1552 1.396 . S
C1551 C1556 1.390 . S
C1552 C1546 1.465 . S
C1552 C1551 1.396 . S
C1552 C1553 1.399 . S
C1553 H1539 0.929 . S
C1553 C1552 1.399 . S
C1553 C1554 1.385 . S
C1554 H1540 0.931 . S
C1554 C1553 1.385 . S
C1554 C1555 1.389 . S
C1555 C1554 1.389 . S
C1555 C1556 1.387 . S
C1556 H1541 0.930 . S
C1556 C1551 1.390 . S
C1556 C1555 1.387 . S
H1557 C1569 0.930 . S
H1558 C1571 0.930 . S
H1559 C1572 0.930 . S
H1560 C1576 0.959 . S
H1561 C1576 0.959 . S
H1562 C1576 0.961 . S
H1563 C1577 0.960 . S
H1564 C1577 0.961 . S
H1565 C1577 0.959 . S
H1566 C1580 0.929 . S
H1567 C1581 0.931 . S
H1568 C1583 0.930 . S
C1569 H1557 0.930 . S
C1569 C1570 1.399 . S
C1569 C1574 1.399 . S
C1570 C1569 1.399 . S
C1570 C1571 1.376 . S
C1571 H1558 0.930 . S
C1571 C1570 1.376 . S
C1571 C1572 1.388 . S
C1572 H1559 0.930 . S
C1572 C1571 1.388 . S
C1572 C1573 1.390 . S
C1573 C1572 1.390 . S
C1573 C1574 1.394 . S
C1573 C1579 1.465 . S
C1574 C1569 1.399 . S
C1574 C1573 1.394 . S
C1574 C1575 1.516 . S
C1575 C1574 1.516 . S
C1575 C1576 1.502 . S
C1575 C1577 1.561 . S
C1575 C1578 1.526 . S
C1576 H1560 0.959 . S
C1576 H1561 0.959 . S
C1576 H1562 0.961 . S
C1576 C1575 1.502 . S
C1577 H1563 0.960 . S
C1577 H1564 0.961 . S
C1577 H1565 0.959 . S
C1577 C1575 1.561 . S
C1578 C1575 1.526 . S
C1578 C1579 1.396 . S
C1578 C1583 1.390 . S
C1579 C1573 1.465 . S
C1579 C1578 1.396 . S
C1579 C1580 1.399 . S
C1580 H1566 0.929 . S
C1580 C1579 1.399 . S
C1580 C1581 1.385 . S
C1581 H1567 0.931 . S
C1581 C1580 1.385 . S
C1581 C1582 1.389 . S
C1582 C1581 1.389 . S
C1582 C1583 1.387 . S
C1583 H1568 0.930 . S
C1583 C1578 1.390 . S
C1583 C1582 1.387 . S
H1584 C1596 0.930 . S
H1585 C1598 0.930 . S
H1586 C1599 0.930 . S
H1587 C1603 0.959 . S
H1588 C1603 0.959 . S
H1589 C1603 0.961 . S
H1590 C1604 0.960 . S
H1591 C1604 0.961 . S
H1592 C1604 0.959 . S
H1593 C1607 0.929 . S
H1594 C1608 0.931 . S
H1595 C1610 0.930 . S
C1596 H1584 0.930 . S
C1596 C1597 1.399 . S
C1596 C1601 1.399 . S
C1597 C1596 1.399 . S
C1597 C1598 1.376 . S
C1598 H1585 0.930 . S
C1598 C1597 1.376 . S
C1598 C1599 1.388 . S
C1599 H1586 0.930 . S
C1599 C1598 1.388 . S
C1599 C1600 1.390 . S
C1600 C1599 1.390 . S
C1600 C1601 1.394 . S
C1600 C1606 1.465 . S
C1601 C1596 1.399 . S
C1601 C1600 1.394 . S
C1601 C1602 1.516 . S
C1602 C1601 1.516 . S
C1602 C1603 1.502 . S
C1602 C1604 1.561 . S
C1602 C1605 1.526 . S
C1603 H1587 0.959 . S
C1603 H1588 0.959 . S
C1603 H1589 0.961 . S
C1603 C1602 1.502 . S
C1604 H1590 0.960 . S
C1604 H1591 0.961 . S
C1604 H1592 0.959 . S
C1604 C1602 1.561 . S
C1605 C1602 1.526 . S
C1605 C1606 1.396 . S
C1605 C1610 1.390 . S
C1606 C1600 1.465 . S
C1606 C1605 1.396 . S
C1606 C1607 1.399 . S
C1607 H1593 0.929 . S
C1607 C1606 1.399 . S
C1607 C1608 1.385 . S
C1608 H1594 0.931 . S
C1608 C1607 1.385 . S
C1608 C1609 1.389 . S
C1609 C1608 1.389 . S
C1609 C1610 1.387 . S
C1610 H1595 0.930 . S
C1610 C1605 1.390 . S
C1610 C1609 1.387 . S
H1611 C1623 0.930 . S
H1612 C1625 0.930 . S
H1613 C1626 0.930 . S
H1614 C1630 0.959 . S
H1615 C1630 0.959 . S
H1616 C1630 0.961 . S
H1617 C1631 0.960 . S
H1618 C1631 0.961 . S
H1619 C1631 0.959 . S
H1620 C1634 0.929 . S
H1621 C1635 0.931 . S
H1622 C1637 0.930 . S
C1623 H1611 0.930 . S
C1623 C1624 1.399 . S
C1623 C1628 1.399 . S
C1624 C1623 1.399 . S
C1624 C1625 1.376 . S
C1625 H1612 0.930 . S
C1625 C1624 1.376 . S
C1625 C1626 1.388 . S
C1626 H1613 0.930 . S
C1626 C1625 1.388 . S
C1626 C1627 1.390 . S
C1627 C1626 1.390 . S
C1627 C1628 1.394 . S
C1627 C1633 1.465 . S
C1628 C1623 1.399 . S
C1628 C1627 1.394 . S
C1628 C1629 1.516 . S
C1629 C1628 1.516 . S
C1629 C1630 1.502 . S
C1629 C1631 1.561 . S
C1629 C1632 1.526 . S
C1630 H1614 0.959 . S
C1630 H1615 0.959 . S
C1630 H1616 0.961 . S
C1630 C1629 1.502 . S
C1631 H1617 0.960 . S
C1631 H1618 0.961 . S
C1631 H1619 0.959 . S
C1631 C1629 1.561 . S
C1632 C1629 1.526 . S
C1632 C1633 1.396 . S
C1632 C1637 1.390 . S
C1633 C1627 1.465 . S
C1633 C1632 1.396 . S
C1633 C1634 1.399 . S
C1634 H1620 0.929 . S
C1634 C1633 1.399 . S
C1634 C1635 1.385 . S
C1635 H1621 0.931 . S
C1635 C1634 1.385 . S
C1635 C1636 1.389 . S
C1636 C1635 1.389 . S
C1636 C1637 1.387 . S
C1637 H1622 0.930 . S
C1637 C1632 1.390 . S
C1637 C1636 1.387 . S
H1638 C1650 0.930 . S
H1639 C1652 0.930 . S
H1640 C1653 0.930 . S
H1641 C1657 0.959 . S
H1642 C1657 0.959 . S
H1643 C1657 0.961 . S
H1644 C1658 0.960 . S
H1645 C1658 0.961 . S
H1646 C1658 0.959 . S
H1647 C1661 0.929 . S
H1648 C1662 0.931 . S
H1649 C1664 0.930 . S
C1650 H1638 0.930 . S
C1650 C1651 1.399 1_545 S
C1650 C1655 1.399 . S
C1651 C1650 1.399 1_565 S
C1651 C1652 1.376 . S
C1652 H1639 0.930 . S
C1652 C1651 1.376 . S
C1652 C1653 1.388 1_565 S
C1653 H1640 0.930 . S
C1653 C1652 1.388 1_545 S
C1653 C1654 1.390 . S
C1654 C1653 1.390 . S
C1654 C1655 1.394 . S
C1654 C1660 1.465 . S
C1655 C1650 1.399 . S
C1655 C1654 1.394 . S
C1655 C1656 1.516 . S
C1656 C1655 1.516 . S
C1656 C1657 1.502 . S
C1656 C1658 1.561 . S
C1656 C1659 1.526 . S
C1657 H1641 0.959 . S
C1657 H1642 0.959 . S
C1657 H1643 0.961 . S
C1657 C1656 1.502 . S
C1658 H1644 0.960 . S
C1658 H1645 0.961 . S
C1658 H1646 0.959 . S
C1658 C1656 1.561 . S
C1659 C1656 1.526 . S
C1659 C1660 1.396 . S
C1659 C1664 1.390 . S
C1660 C1654 1.465 . S
C1660 C1659 1.396 . S
C1660 C1661 1.399 . S
C1661 H1647 0.929 . S
C1661 C1660 1.399 . S
C1661 C1662 1.385 . S
C1662 H1648 0.931 . S
C1662 C1661 1.385 . S
C1662 C1663 1.389 . S
C1663 C1662 1.389 . S
C1663 C1664 1.387 . S
C1664 H1649 0.930 . S
C1664 C1659 1.390 . S
C1664 C1663 1.387 . S
H1665 C1677 0.930 1_455 S
H1666 C1679 0.930 . S
H1667 C1680 0.930 . S
H1668 C1684 0.959 . S
H1669 C1684 0.959 . S
H1670 C1684 0.961 . S
H1671 C1685 0.960 . S
H1672 C1685 0.961 . S
H1673 C1685 0.959 . S
H1674 C1688 0.929 . S
H1675 C1689 0.931 . S
H1676 C1691 0.930 . S
C1677 H1665 0.930 1_655 S
C1677 C1678 1.399 1_655 S
C1677 C1682 1.399 . S
C1678 C1677 1.399 1_455 S
C1678 C1679 1.376 . S
C1679 H1666 0.930 . S
C1679 C1678 1.376 . S
C1679 C1680 1.388 1_455 S
C1680 H1667 0.930 . S
C1680 C1679 1.388 1_655 S
C1680 C1681 1.390 . S
C1681 C1680 1.390 . S
C1681 C1682 1.394 . S
C1681 C1687 1.465 . S
C1682 C1677 1.399 . S
C1682 C1681 1.394 . S
C1682 C1683 1.516 . S
C1683 C1682 1.516 . S
C1683 C1684 1.502 . S
C1683 C1685 1.561 . S
C1683 C1686 1.526 . S
C1684 H1668 0.959 . S
C1684 H1669 0.959 . S
C1684 H1670 0.961 . S
C1684 C1683 1.502 . S
C1685 H1671 0.960 . S
C1685 H1672 0.961 . S
C1685 H1673 0.959 . S
C1685 C1683 1.561 . S
C1686 C1683 1.526 . S
C1686 C1687 1.396 . S
C1686 C1691 1.390 . S
C1687 C1681 1.465 . S
C1687 C1686 1.396 . S
C1687 C1688 1.399 . S
C1688 H1674 0.929 . S
C1688 C1687 1.399 . S
C1688 C1689 1.385 . S
C1689 H1675 0.931 . S
C1689 C1688 1.385 . S
C1689 C1690 1.389 . S
C1690 C1689 1.389 . S
C1690 C1691 1.387 . S
C1691 H1676 0.930 . S
C1691 C1686 1.390 . S
C1691 C1690 1.387 . S
H1692 C1704 0.930 . S
H1693 C1706 0.930 . S
H1694 C1707 0.930 . S
H1695 C1711 0.959 . S
H1696 C1711 0.959 . S
H1697 C1711 0.961 . S
H1698 C1712 0.960 . S
H1699 C1712 0.961 . S
H1700 C1712 0.959 . S
H1701 C1715 0.929 . S
H1702 C1716 0.931 . S
H1703 C1718 0.930 . S
C1704 H1692 0.930 . S
C1704 C1705 1.399 . S
C1704 C1709 1.399 . S
C1705 C1704 1.399 . S
C1705 C1706 1.376 . S
C1706 H1693 0.930 . S
C1706 C1705 1.376 . S
C1706 C1707 1.388 . S
C1707 H1694 0.930 . S
C1707 C1706 1.388 . S
C1707 C1708 1.390 . S
C1708 C1707 1.390 . S
C1708 C1709 1.394 . S
C1708 C1714 1.465 . S
C1709 C1704 1.399 . S
C1709 C1708 1.394 . S
C1709 C1710 1.516 . S
C1710 C1709 1.516 . S
C1710 C1711 1.502 . S
C1710 C1712 1.561 . S
C1710 C1713 1.526 . S
C1711 H1695 0.959 . S
C1711 H1696 0.959 . S
C1711 H1697 0.961 . S
C1711 C1710 1.502 . S
C1712 H1698 0.960 . S
C1712 H1699 0.961 . S
C1712 H1700 0.959 . S
C1712 C1710 1.561 . S
C1713 C1710 1.526 . S
C1713 C1714 1.396 . S
C1713 C1718 1.390 . S
C1714 C1708 1.465 . S
C1714 C1713 1.396 . S
C1714 C1715 1.399 . S
C1715 H1701 0.929 . S
C1715 C1714 1.399 . S
C1715 C1716 1.385 . S
C1716 H1702 0.931 . S
C1716 C1715 1.385 . S
C1716 C1717 1.389 . S
C1717 C1716 1.389 . S
C1717 C1718 1.387 . S
C1718 H1703 0.930 . S
C1718 C1713 1.390 . S
C1718 C1717 1.387 . S
H1719 C1731 0.947 . S
H1720 C1733 0.930 . S
H1721 C1734 0.930 . S
H1722 C1738 0.959 . S
H1723 C1738 0.959 . S
H1724 C1738 0.961 . S
H1725 C1739 0.960 . S
H1726 C1739 0.961 . S
H1727 C1739 0.959 . S
H1728 C1742 0.929 . S
H1729 C1743 0.931 . S
H1730 C1745 0.930 . S
C1731 H1719 0.947 . S
C1731 C1732 1.430 . S
C1731 C1736 1.353 1_455 S
C1732 C1731 1.430 . S
C1732 C1733 1.376 . S
C1733 H1720 0.930 . S
C1733 C1732 1.376 . S
C1733 C1734 1.388 1_455 S
C1734 H1721 0.930 . S
C1734 C1733 1.388 1_655 S
C1734 C1735 1.390 . S
C1735 C1734 1.390 . S
C1735 C1736 1.394 . S
C1735 C1741 1.465 . S
C1736 C1731 1.353 1_655 S
C1736 C1735 1.394 . S
C1736 C1737 1.516 . S
C1737 C1736 1.516 . S
C1737 C1738 1.502 . S
C1737 C1739 1.561 . S
C1737 C1740 1.526 . S
C1738 H1722 0.959 . S
C1738 H1723 0.959 . S
C1738 H1724 0.961 . S
C1738 C1737 1.502 . S
C1739 H1725 0.960 . S
C1739 H1726 0.961 . S
C1739 H1727 0.959 . S
C1739 C1737 1.561 . S
C1740 C1737 1.526 . S
C1740 C1741 1.396 . S
C1740 C1745 1.390 . S
C1741 C1735 1.465 . S
C1741 C1740 1.396 . S
C1741 C1742 1.399 . S
C1742 H1728 0.929 . S
C1742 C1741 1.399 . S
C1742 C1743 1.385 . S
C1743 H1729 0.931 . S
C1743 C1742 1.385 . S
C1743 C1744 1.389 . S
C1744 C1743 1.389 . S
C1744 C1745 1.387 . S
C1745 H1730 0.930 . S
C1745 C1740 1.390 . S
C1745 C1744 1.387 . S
H1746 C1758 0.930 . S
H1747 C1760 0.930 . S
H1748 C1761 0.930 . S
H1749 C1765 0.959 . S
H1750 C1765 0.959 . S
H1751 C1765 0.961 . S
H1752 C1766 0.960 . S
H1753 C1766 0.961 . S
H1754 C1766 0.959 . S
H1755 C1769 0.929 . S
H1756 C1770 0.931 . S
H1757 C1772 0.930 . S
C1758 H1746 0.930 . S
C1758 C1759 1.399 . S
C1758 C1763 1.399 . S
C1759 C1758 1.399 . S
C1759 C1760 1.376 . S
C1760 H1747 0.930 . S
C1760 C1759 1.376 . S
C1760 C1761 1.388 . S
C1761 H1748 0.930 . S
C1761 C1760 1.388 . S
C1761 C1762 1.390 . S
C1762 C1761 1.390 . S
C1762 C1763 1.394 . S
C1762 C1768 1.465 . S
C1763 C1758 1.399 . S
C1763 C1762 1.394 . S
C1763 C1764 1.516 . S
C1764 C1763 1.516 . S
C1764 C1765 1.502 . S
C1764 C1766 1.561 . S
C1764 C1767 1.526 . S
C1765 H1749 0.959 . S
C1765 H1750 0.959 . S
C1765 H1751 0.961 . S
C1765 C1764 1.502 . S
C1766 H1752 0.960 . S
C1766 H1753 0.961 . S
C1766 H1754 0.959 . S
C1766 C1764 1.561 . S
C1767 C1764 1.526 . S
C1767 C1768 1.396 . S
C1767 C1772 1.390 . S
C1768 C1762 1.465 . S
C1768 C1767 1.396 . S
C1768 C1769 1.399 . S
C1769 H1755 0.929 . S
C1769 C1768 1.399 . S
C1769 C1770 1.385 . S
C1770 H1756 0.931 . S
C1770 C1769 1.385 . S
C1770 C1771 1.389 . S
C1771 C1770 1.389 . S
C1771 C1772 1.387 . S
C1772 H1757 0.930 . S
C1772 C1767 1.390 . S
C1772 C1771 1.387 . S
H1773 C1785 0.930 . S
H1774 C1787 0.930 . S
H1775 C1788 0.930 . S
H1776 C1792 0.959 . S
H1777 C1792 0.959 . S
H1778 C1792 0.961 . S
H1779 C1793 0.960 . S
H1780 C1793 0.961 . S
H1781 C1793 0.959 . S
H1782 C1796 0.929 . S
H1783 C1797 0.931 . S
H1784 C1799 0.930 . S
C1785 H1773 0.930 . S
C1785 C1786 1.399 1_545 S
C1785 C1790 1.399 . S
C1786 C1785 1.399 1_565 S
C1786 C1787 1.376 . S
C1787 H1774 0.930 . S
C1787 C1786 1.376 . S
C1787 C1788 1.388 1_565 S
C1788 H1775 0.930 . S
C1788 C1787 1.388 1_545 S
C1788 C1789 1.390 . S
C1789 C1788 1.390 . S
C1789 C1790 1.394 . S
C1789 C1795 1.465 . S
C1790 C1785 1.399 . S
C1790 C1789 1.394 . S
C1790 C1791 1.516 . S
C1791 C1790 1.516 . S
C1791 C1792 1.502 . S
C1791 C1793 1.561 . S
C1791 C1794 1.526 . S
C1792 H1776 0.959 . S
C1792 H1777 0.959 . S
C1792 H1778 0.961 . S
C1792 C1791 1.502 . S
C1793 H1779 0.960 . S
C1793 H1780 0.961 . S
C1793 H1781 0.959 . S
C1793 C1791 1.561 . S
C1794 C1791 1.526 . S
C1794 C1795 1.396 . S
C1794 C1799 1.390 . S
C1795 C1789 1.465 . S
C1795 C1794 1.396 . S
C1795 C1796 1.399 . S
C1796 H1782 0.929 . S
C1796 C1795 1.399 . S
C1796 C1797 1.385 . S
C1797 H1783 0.931 . S
C1797 C1796 1.385 . S
C1797 C1798 1.389 . S
C1798 C1797 1.389 . S
C1798 C1799 1.387 . S
C1799 H1784 0.930 . S
C1799 C1794 1.390 . S
C1799 C1798 1.387 . S
H1800 C1812 0.930 . S
H1801 C1814 0.930 . S
H1802 C1815 0.930 . S
H1803 C1819 0.959 . S
H1804 C1819 0.959 . S
H1805 C1819 0.961 . S
H1806 C1820 0.960 . S
H1807 C1820 0.961 . S
H1808 C1820 0.959 . S
H1809 C1823 0.929 . S
H1810 C1824 0.931 . S
H1811 C1826 0.930 . S
C1812 H1800 0.930 . S
C1812 C1813 1.399 . S
C1812 C1817 1.399 . S
C1813 C1812 1.399 . S
C1813 C1814 1.376 . S
C1814 H1801 0.930 . S
C1814 C1813 1.376 . S
C1814 C1815 1.388 . S
C1815 H1802 0.930 . S
C1815 C1814 1.388 . S
C1815 C1816 1.390 . S
C1816 C1815 1.390 . S
C1816 C1817 1.394 . S
C1816 C1822 1.465 . S
C1817 C1812 1.399 . S
C1817 C1816 1.394 . S
C1817 C1818 1.516 . S
C1818 C1817 1.516 . S
C1818 C1819 1.502 . S
C1818 C1820 1.561 . S
C1818 C1821 1.526 . S
C1819 H1803 0.959 . S
C1819 H1804 0.959 . S
C1819 H1805 0.961 . S
C1819 C1818 1.502 . S
C1820 H1806 0.960 . S
C1820 H1807 0.961 . S
C1820 H1808 0.959 . S
C1820 C1818 1.561 . S
C1821 C1818 1.526 . S
C1821 C1822 1.396 . S
C1821 C1826 1.390 . S
C1822 C1816 1.465 . S
C1822 C1821 1.396 . S
C1822 C1823 1.399 . S
C1823 H1809 0.929 . S
C1823 C1822 1.399 . S
C1823 C1824 1.385 . S
C1824 H1810 0.931 . S
C1824 C1823 1.385 . S
C1824 C1825 1.389 . S
C1825 C1824 1.389 . S
C1825 C1826 1.387 . S
C1826 H1811 0.930 . S
C1826 C1821 1.390 . S
C1826 C1825 1.387 . S
H1827 C1839 0.930 . S
H1828 C1841 0.930 . S
H1829 C1842 0.930 . S
H1830 C1846 0.959 . S
H1831 C1846 0.959 . S
H1832 C1846 0.961 . S
H1833 C1847 0.960 . S
H1834 C1847 0.961 . S
H1835 C1847 0.959 . S
H1836 C1850 0.929 . S
H1837 C1851 0.931 . S
H1838 C1853 0.930 . S
C1839 H1827 0.930 . S
C1839 C1840 1.399 . S
C1839 C1844 1.399 . S
C1840 C1839 1.399 . S
C1840 C1841 1.376 . S
C1841 H1828 0.930 . S
C1841 C1840 1.376 . S
C1841 C1842 1.388 . S
C1842 H1829 0.930 . S
C1842 C1841 1.388 . S
C1842 C1843 1.390 . S
C1843 C1842 1.390 . S
C1843 C1844 1.394 . S
C1843 C1849 1.465 . S
C1844 C1839 1.399 . S
C1844 C1843 1.394 . S
C1844 C1845 1.516 . S
C1845 C1844 1.516 . S
C1845 C1846 1.502 . S
C1845 C1847 1.561 . S
C1845 C1848 1.526 . S
C1846 H1830 0.959 . S
C1846 H1831 0.959 . S
C1846 H1832 0.961 . S
C1846 C1845 1.502 . S
C1847 H1833 0.960 . S
C1847 H1834 0.961 . S
C1847 H1835 0.959 . S
C1847 C1845 1.561 . S
C1848 C1845 1.526 . S
C1848 C1849 1.396 . S
C1848 C1853 1.390 . S
C1849 C1843 1.465 . S
C1849 C1848 1.396 . S
C1849 C1850 1.399 . S
C1850 H1836 0.929 . S
C1850 C1849 1.399 . S
C1850 C1851 1.385 . S
C1851 H1837 0.931 . S
C1851 C1850 1.385 . S
C1851 C1852 1.389 . S
C1852 C1851 1.389 . S
C1852 C1853 1.387 . S
C1853 H1838 0.930 . S
C1853 C1848 1.390 . S
C1853 C1852 1.387 . S
H1854 C1866 0.930 . S
H1855 C1868 0.930 . S
H1856 C1869 0.930 . S
H1857 C1873 0.959 . S
H1858 C1873 0.959 . S
H1859 C1873 0.961 . S
H1860 C1874 0.960 . S
H1861 C1874 0.961 . S
H1862 C1874 0.959 . S
H1863 C1877 0.929 . S
H1864 C1878 0.931 . S
H1865 C1880 0.930 . S
C1866 H1854 0.930 . S
C1866 C1867 1.399 . S
C1866 C1871 1.399 . S
C1867 C1866 1.399 . S
C1867 C1868 1.376 . S
C1868 H1855 0.930 . S
C1868 C1867 1.376 . S
C1868 C1869 1.388 . S
C1869 H1856 0.930 . S
C1869 C1868 1.388 . S
C1869 C1870 1.390 . S
C1870 C1869 1.390 . S
C1870 C1871 1.394 . S
C1870 C1876 1.465 . S
C1871 C1866 1.399 . S
C1871 C1870 1.394 . S
C1871 C1872 1.516 . S
C1872 C1871 1.516 . S
C1872 C1873 1.502 . S
C1872 C1874 1.561 . S
C1872 C1875 1.526 . S
C1873 H1857 0.959 . S
C1873 H1858 0.959 . S
C1873 H1859 0.961 . S
C1873 C1872 1.502 . S
C1874 H1860 0.960 . S
C1874 H1861 0.961 . S
C1874 H1862 0.959 . S
C1874 C1872 1.561 . S
C1875 C1872 1.526 . S
C1875 C1876 1.396 . S
C1875 C1880 1.390 . S
C1876 C1870 1.465 . S
C1876 C1875 1.396 . S
C1876 C1877 1.399 . S
C1877 H1863 0.929 . S
C1877 C1876 1.399 . S
C1877 C1878 1.385 . S
C1878 H1864 0.931 . S
C1878 C1877 1.385 . S
C1878 C1879 1.389 . S
C1879 C1878 1.389 . S
C1879 C1880 1.387 . S
C1880 H1865 0.930 . S
C1880 C1875 1.390 . S
C1880 C1879 1.387 . S
H1881 C1893 0.930 . S
H1882 C1895 0.930 . S
H1883 C1896 0.930 . S
H1884 C1900 0.959 . S
H1885 C1900 0.959 . S
H1886 C1900 0.961 . S
H1887 C1901 0.960 . S
H1888 C1901 0.961 . S
H1889 C1901 0.959 . S
H1890 C1904 0.929 . S
H1891 C1905 0.931 . S
H1892 C1907 0.930 . S
C1893 H1881 0.930 . S
C1893 C1894 1.399 . S
C1893 C1898 1.399 . S
C1894 C1893 1.399 . S
C1894 C1895 1.376 1_565 S
C1895 H1882 0.930 . S
C1895 C1894 1.376 1_545 S
C1895 C1896 1.388 . S
C1896 H1883 0.930 . S
C1896 C1895 1.388 . S
C1896 C1897 1.386 1_545 S
C1897 C1896 1.386 1_565 S
C1897 C1898 1.400 . S
C1897 C1903 1.464 1_565 S
C1898 C1893 1.399 . S
C1898 C1897 1.400 . S
C1898 C1899 1.516 . S
C1899 C1898 1.516 . S
C1899 C1900 1.502 . S
C1899 C1901 1.561 . S
C1899 C1902 1.526 . S
C1900 H1884 0.959 . S
C1900 H1885 0.959 . S
C1900 H1886 0.961 . S
C1900 C1899 1.502 . S
C1901 H1887 0.960 . S
C1901 H1888 0.961 . S
C1901 H1889 0.959 . S
C1901 C1899 1.561 . S
C1902 C1899 1.526 . S
C1902 C1903 1.396 1_565 S
C1902 C1907 1.390 . S
C1903 C1897 1.464 1_545 S
C1903 C1902 1.396 1_545 S
C1903 C1904 1.399 . S
C1904 H1890 0.929 . S
C1904 C1903 1.399 . S
C1904 C1905 1.385 . S
C1905 H1891 0.931 . S
C1905 C1904 1.385 . S
C1905 C1906 1.389 . S
C1906 C1905 1.389 . S
C1906 C1907 1.387 1_545 S
C1907 H1892 0.930 . S
C1907 C1902 1.390 . S
C1907 C1906 1.387 1_565 S
H1908 C1920 0.930 . S
H1909 C1922 0.930 . S
H1910 C1923 0.930 . S
H1911 C1927 0.959 . S
H1912 C1927 0.959 . S
H1913 C1927 0.961 . S
H1914 C1928 0.980 . S
H1915 C1928 0.961 . S
H1916 C1928 0.959 . S
H1917 C1931 0.907 1_655 S
H1918 C1932 0.911 1_655 S
H1919 C1934 0.930 . S
C1920 H1908 0.930 . S
C1920 C1921 1.399 . S
C1920 C1925 1.399 . S
C1921 C1920 1.399 . S
C1921 C1922 1.376 . S
C1922 H1909 0.930 . S
C1922 C1921 1.376 . S
C1922 C1923 1.388 . S
C1923 H1910 0.930 . S
C1923 C1922 1.388 . S
C1923 C1924 1.390 . S
C1924 C1923 1.390 . S
C1924 C1925 1.394 . S
C1924 C1930 1.465 . S
C1925 C1920 1.399 . S
C1925 C1924 1.394 . S
C1925 C1926 1.516 . S
C1926 C1925 1.516 . S
C1926 C1927 1.502 . S
C1926 C1928 1.561 1_455 S
C1926 C1929 1.526 . S
C1927 H1911 0.959 . S
C1927 H1912 0.959 . S
C1927 H1913 0.961 . S
C1927 C1926 1.502 . S
C1928 H1914 0.980 . S
C1928 H1915 0.961 . S
C1928 H1916 0.959 . S
C1928 C1926 1.561 1_655 S
C1929 C1926 1.526 . S
C1929 C1930 1.396 . S
C1929 C1934 1.390 . S
C1930 C1924 1.465 . S
C1930 C1929 1.396 . S
C1930 C1931 1.399 . S
C1931 H1917 0.907 1_455 S
C1931 C1930 1.399 . S
C1931 C1932 1.384 . S
C1932 H1918 0.911 1_455 S
C1932 C1931 1.384 . S
C1932 C1933 1.411 . S
C1933 C1932 1.411 . S
C1933 C1934 1.387 . S
C1934 H1919 0.930 . S
C1934 C1929 1.390 . S
C1934 C1933 1.387 . S
H1935 C1947 0.930 . S
H1936 C1949 0.930 . S
H1937 C1950 0.930 . S
H1938 C1954 0.959 . S
H1939 C1954 0.959 . S
H1940 C1954 0.961 . S
H1941 C1955 0.960 . S
H1942 C1955 0.961 . S
H1943 C1955 0.959 . S
H1944 C1958 0.929 . S
H1945 C1959 0.931 . S
H1946 C1961 0.930 . S
C1947 H1935 0.930 . S
C1947 C1948 1.399 . S
C1947 C1952 1.399 . S
C1948 C1947 1.399 . S
C1948 C1949 1.376 . S
C1949 H1936 0.930 . S
C1949 C1948 1.376 . S
C1949 C1950 1.388 . S
C1950 H1937 0.930 . S
C1950 C1949 1.388 . S
C1950 C1951 1.390 . S
C1951 C1950 1.390 . S
C1951 C1952 1.394 . S
C1951 C1957 1.465 . S
C1952 C1947 1.399 . S
C1952 C1951 1.394 . S
C1952 C1953 1.516 . S
C1953 C1952 1.516 . S
C1953 C1954 1.502 . S
C1953 C1955 1.561 . S
C1953 C1956 1.526 . S
C1954 H1938 0.959 . S
C1954 H1939 0.959 . S
C1954 H1940 0.961 . S
C1954 C1953 1.502 . S
C1955 H1941 0.960 . S
C1955 H1942 0.961 . S
C1955 H1943 0.959 . S
C1955 C1953 1.561 . S
C1956 C1953 1.526 . S
C1956 C1957 1.396 . S
C1956 C1961 1.390 . S
C1957 C1951 1.465 . S
C1957 C1956 1.396 . S
C1957 C1958 1.399 . S
C1958 H1944 0.929 . S
C1958 C1957 1.399 . S
C1958 C1959 1.385 . S
C1959 H1945 0.931 . S
C1959 C1958 1.385 . S
C1959 C1960 1.389 . S
C1960 C1959 1.389 . S
C1960 C1961 1.387 . S
C1961 H1946 0.930 . S
C1961 C1956 1.390 . S
C1961 C1960 1.387 . S
H1962 C1974 0.930 . S
H1963 C1976 0.930 . S
H1964 C1977 0.930 . S
H1965 C1981 0.959 . S
H1966 C1981 0.959 . S
H1967 C1981 0.961 . S
H1968 C1982 0.960 . S
H1969 C1982 0.961 . S
H1970 C1982 0.959 . S
H1971 C1985 0.929 . S
H1972 C1986 0.931 . S
H1973 C1988 0.930 . S
C1974 H1962 0.930 . S
C1974 C1975 1.399 . S
C1974 C1979 1.399 . S
C1975 C1974 1.399 . S
C1975 C1976 1.376 1_655 S
C1976 H1963 0.930 . S
C1976 C1975 1.376 1_455 S
C1976 C1977 1.388 . S
C1977 H1964 0.930 . S
C1977 C1976 1.388 . S
C1977 C1978 1.390 1_455 S
C1978 C1977 1.390 1_655 S
C1978 C1979 1.394 . S
C1978 C1984 1.474 . S
C1979 C1974 1.399 . S
C1979 C1978 1.394 . S
C1979 C1980 1.516 . S
C1980 C1979 1.516 . S
C1980 C1981 1.502 . S
C1980 C1982 1.561 . S
C1980 C1983 1.526 . S
C1981 H1965 0.959 . S
C1981 H1966 0.959 . S
C1981 H1967 0.961 . S
C1981 C1980 1.502 . S
C1982 H1968 0.960 . S
C1982 H1969 0.961 . S
C1982 H1970 0.959 . S
C1982 C1980 1.561 . S
C1983 C1980 1.526 . S
C1983 C1984 1.437 . S
C1983 C1988 1.390 . S
C1984 C1978 1.474 . S
C1984 C1983 1.437 . S
C1984 C1985 1.361 1_655 S
C1985 H1971 0.929 . S
C1985 C1984 1.361 1_455 S
C1985 C1986 1.385 . S
C1986 H1972 0.931 . S
C1986 C1985 1.385 . S
C1986 C1987 1.389 1_455 S
C1987 C1986 1.389 1_655 S
C1987 C1988 1.387 . S
C1988 H1973 0.930 . S
C1988 C1983 1.390 . S
C1988 C1987 1.387 . S
H1989 C2001 0.930 . S
H1990 C2003 0.930 . S
H1991 C2004 0.930 . S
H1992 C2008 0.959 . S
H1993 C2008 0.959 . S
H1994 C2008 0.961 . S
H1995 C2009 0.960 . S
H1996 C2009 0.961 . S
H1997 C2009 0.959 . S
H1998 C2012 0.929 . S
H1999 C2013 0.931 . S
H2000 C2015 0.930 . S
C2001 H1989 0.930 . S
C2001 C2002 1.399 . S
C2001 C2006 1.399 . S
C2002 C2001 1.399 . S
C2002 C2003 1.376 . S
C2003 H1990 0.930 . S
C2003 C2002 1.376 . S
C2003 C2004 1.388 . S
C2004 H1991 0.930 . S
C2004 C2003 1.388 . S
C2004 C2005 1.390 . S
C2005 C2004 1.390 . S
C2005 C2006 1.394 . S
C2005 C2011 1.465 . S
C2006 C2001 1.399 . S
C2006 C2005 1.394 . S
C2006 C2007 1.516 . S
C2007 C2006 1.516 . S
C2007 C2008 1.502 . S
C2007 C2009 1.561 . S
C2007 C2010 1.526 . S
C2008 H1992 0.959 . S
C2008 H1993 0.959 . S
C2008 H1994 0.961 . S
C2008 C2007 1.502 . S
C2009 H1995 0.960 . S
C2009 H1996 0.961 . S
C2009 H1997 0.959 . S
C2009 C2007 1.561 . S
C2010 C2007 1.526 . S
C2010 C2011 1.396 . S
C2010 C2015 1.390 . S
C2011 C2005 1.465 . S
C2011 C2010 1.396 . S
C2011 C2012 1.399 . S
C2012 H1998 0.929 . S
C2012 C2011 1.399 . S
C2012 C2013 1.385 . S
C2013 H1999 0.931 . S
C2013 C2012 1.385 . S
C2013 C2014 1.389 . S
C2014 C2013 1.389 . S
C2014 C2015 1.387 . S
C2015 H2000 0.930 . S
C2015 C2010 1.390 . S
C2015 C2014 1.387 . S
H2016 C2028 0.930 . S
H2017 C2030 0.930 1_565 S
H2018 C2031 0.930 . S
H2019 C2035 0.959 . S
H2020 C2035 0.959 . S
H2021 C2035 0.961 . S
H2022 C2036 0.960 . S
H2023 C2036 0.961 . S
H2024 C2036 0.959 . S
H2025 C2039 0.929 . S
H2026 C2040 0.931 . S
H2027 C2042 0.930 . S
C2028 H2016 0.930 . S
C2028 C2029 1.399 . S
C2028 C2033 1.399 . S
C2029 C2028 1.399 . S
C2029 C2030 1.376 . S
C2030 H2017 0.930 1_545 S
C2030 C2029 1.376 . S
C2030 C2031 1.388 1_545 S
C2031 H2018 0.930 . S
C2031 C2030 1.388 1_565 S
C2031 C2032 1.390 1_565 S
C2032 C2031 1.390 1_545 S
C2032 C2033 1.394 . S
C2032 C2038 1.465 . S
C2033 C2028 1.399 . S
C2033 C2032 1.394 . S
C2033 C2034 1.516 . S
C2034 C2033 1.516 . S
C2034 C2035 1.502 . S
C2034 C2036 1.561 . S
C2034 C2037 1.526 . S
C2035 H2019 0.959 . S
C2035 H2020 0.959 . S
C2035 H2021 0.961 . S
C2035 C2034 1.502 . S
C2036 H2022 0.960 . S
C2036 H2023 0.961 . S
C2036 H2024 0.959 . S
C2036 C2034 1.561 . S
C2037 C2034 1.526 . S
C2037 C2038 1.396 . S
C2037 C2042 1.390 . S
C2038 C2032 1.465 . S
C2038 C2037 1.396 . S
C2038 C2039 1.399 1_545 S
C2039 H2025 0.929 . S
C2039 C2038 1.399 1_565 S
C2039 C2040 1.385 . S
C2040 H2026 0.931 . S
C2040 C2039 1.385 . S
C2040 C2041 1.389 1_565 S
C2041 C2040 1.389 1_545 S
C2041 C2042 1.387 . S
C2042 H2027 0.930 . S
C2042 C2037 1.390 . S
C2042 C2041 1.387 . S
H2043 C2055 0.930 . S
H2044 C2057 0.930 . S
H2045 C2058 0.930 . S
H2046 C2062 0.959 . S
H2047 C2062 0.959 . S
H2048 C2062 0.961 . S
H2049 C2063 0.960 . S
H2050 C2063 0.961 . S
H2051 C2063 0.959 . S
H2052 C2066 0.929 . S
H2053 C2067 0.931 . S
H2054 C2069 0.930 . S
C2055 H2043 0.930 . S
C2055 C2056 1.399 . S
C2055 C2060 1.399 . S
C2056 C2055 1.399 . S
C2056 C2057 1.376 . S
C2057 H2044 0.930 . S
C2057 C2056 1.376 . S
C2057 C2058 1.388 . S
C2058 H2045 0.930 . S
C2058 C2057 1.388 . S
C2058 C2059 1.390 . S
C2059 C2058 1.390 . S
C2059 C2060 1.394 . S
C2059 C2065 1.465 . S
C2060 C2055 1.399 . S
C2060 C2059 1.394 . S
C2060 C2061 1.516 . S
C2061 C2060 1.516 . S
C2061 C2062 1.502 . S
C2061 C2063 1.561 . S
C2061 C2064 1.526 . S
C2062 H2046 0.959 . S
C2062 H2047 0.959 . S
C2062 H2048 0.961 . S
C2062 C2061 1.502 . S
C2063 H2049 0.960 . S
C2063 H2050 0.961 . S
C2063 H2051 0.959 . S
C2063 C2061 1.561 . S
C2064 C2061 1.526 . S
C2064 C2065 1.396 . S
C2064 C2069 1.390 . S
C2065 C2059 1.465 . S
C2065 C2064 1.396 . S
C2065 C2066 1.399 . S
C2066 H2052 0.929 . S
C2066 C2065 1.399 . S
C2066 C2067 1.385 . S
C2067 H2053 0.931 . S
C2067 C2066 1.385 . S
C2067 C2068 1.389 . S
C2068 C2067 1.389 . S
C2068 C2069 1.387 . S
C2069 H2054 0.930 . S
C2069 C2064 1.390 . S
C2069 C2068 1.387 . S
H2070 C2082 0.930 . S
H2071 C2084 0.930 . S
H2072 C2085 0.930 . S
H2073 C2089 0.959 . S
H2074 C2089 0.959 . S
H2075 C2089 0.961 . S
H2076 C2090 0.960 . S
H2077 C2090 0.961 . S
H2078 C2090 0.959 . S
H2079 C2093 0.929 . S
H2080 C2094 0.931 . S
H2081 C2096 0.930 . S
C2082 H2070 0.930 . S
C2082 C2083 1.399 . S
C2082 C2087 1.399 . S
C2083 C2082 1.399 . S
C2083 C2084 1.376 . S
C2084 H2071 0.930 . S
C2084 C2083 1.376 . S
C2084 C2085 1.388 . S
C2085 H2072 0.930 . S
C2085 C2084 1.388 . S
C2085 C2086 1.390 . S
C2086 C2085 1.390 . S
C2086 C2087 1.394 . S
C2086 C2092 1.465 . S
C2087 C2082 1.399 . S
C2087 C2086 1.394 . S
C2087 C2088 1.516 . S
C2088 C2087 1.516 . S
C2088 C2089 1.502 . S
C2088 C2090 1.561 . S
C2088 C2091 1.526 . S
C2089 H2073 0.959 . S
C2089 H2074 0.959 . S
C2089 H2075 0.961 . S
C2089 C2088 1.502 . S
C2090 H2076 0.960 . S
C2090 H2077 0.961 . S
C2090 H2078 0.959 . S
C2090 C2088 1.561 . S
C2091 C2088 1.526 . S
C2091 C2092 1.396 . S
C2091 C2096 1.390 . S
C2092 C2086 1.465 . S
C2092 C2091 1.396 . S
C2092 C2093 1.399 . S
C2093 H2079 0.929 . S
C2093 C2092 1.399 . S
C2093 C2094 1.385 . S
C2094 H2080 0.931 . S
C2094 C2093 1.385 . S
C2094 C2095 1.389 . S
C2095 C2094 1.389 . S
C2095 C2096 1.387 . S
C2096 H2081 0.930 . S
C2096 C2091 1.390 . S
C2096 C2095 1.387 . S
H2097 C2109 0.930 . S
H2098 C2111 0.930 . S
H2099 C2112 0.930 . S
H2100 C2116 0.959 . S
H2101 C2116 0.959 . S
H2102 C2116 0.961 . S
H2103 C2117 0.960 . S
H2104 C2117 0.961 . S
H2105 C2117 0.959 . S
H2106 C2120 0.929 . S
H2107 C2121 0.931 . S
H2108 C2123 0.930 . S
C2109 H2097 0.930 . S
C2109 C2110 1.399 . S
C2109 C2114 1.399 . S
C2110 C2109 1.399 . S
C2110 C2111 1.376 . S
C2111 H2098 0.930 . S
C2111 C2110 1.376 . S
C2111 C2112 1.388 . S
C2112 H2099 0.930 . S
C2112 C2111 1.388 . S
C2112 C2113 1.390 . S
C2113 C2112 1.390 . S
C2113 C2114 1.394 . S
C2113 C2119 1.465 . S
C2114 C2109 1.399 . S
C2114 C2113 1.394 . S
C2114 C2115 1.516 . S
C2115 C2114 1.516 . S
C2115 C2116 1.502 . S
C2115 C2117 1.561 . S
C2115 C2118 1.526 . S
C2116 H2100 0.959 . S
C2116 H2101 0.959 . S
C2116 H2102 0.961 . S
C2116 C2115 1.502 . S
C2117 H2103 0.960 . S
C2117 H2104 0.961 . S
C2117 H2105 0.959 . S
C2117 C2115 1.561 . S
C2118 C2115 1.526 . S
C2118 C2119 1.396 . S
C2118 C2123 1.390 . S
C2119 C2113 1.465 . S
C2119 C2118 1.396 . S
C2119 C2120 1.399 . S
C2120 H2106 0.929 . S
C2120 C2119 1.399 . S
C2120 C2121 1.385 . S
C2121 H2107 0.931 . S
C2121 C2120 1.385 . S
C2121 C2122 1.389 . S
C2122 C2121 1.389 . S
C2122 C2123 1.387 . S
C2123 H2108 0.930 . S
C2123 C2118 1.390 . S
C2123 C2122 1.387 . S
H2124 C2136 0.930 . S
H2125 C2138 0.930 . S
H2126 C2139 0.930 . S
H2127 C2143 0.959 . S
H2128 C2143 0.959 . S
H2129 C2143 0.961 . S
H2130 C2144 0.960 . S
H2131 C2144 0.961 . S
H2132 C2144 0.959 . S
H2133 C2147 0.929 . S
H2134 C2148 0.931 . S
H2135 C2150 0.930 . S
C2136 H2124 0.930 . S
C2136 C2137 1.399 . S
C2136 C2141 1.399 . S
C2137 C2136 1.399 . S
C2137 C2138 1.376 . S
C2138 H2125 0.930 . S
C2138 C2137 1.376 . S
C2138 C2139 1.388 . S
C2139 H2126 0.930 . S
C2139 C2138 1.388 . S
C2139 C2140 1.390 . S
C2140 C2139 1.390 . S
C2140 C2141 1.394 . S
C2140 C2146 1.465 . S
C2141 C2136 1.399 . S
C2141 C2140 1.394 . S
C2141 C2142 1.516 . S
C2142 C2141 1.516 . S
C2142 C2143 1.502 . S
C2142 C2144 1.561 . S
C2142 C2145 1.526 . S
C2143 H2127 0.959 . S
C2143 H2128 0.959 . S
C2143 H2129 0.961 . S
C2143 C2142 1.502 . S
C2144 H2130 0.960 . S
C2144 H2131 0.961 . S
C2144 H2132 0.959 . S
C2144 C2142 1.561 . S
C2145 C2142 1.526 . S
C2145 C2146 1.396 . S
C2145 C2150 1.390 . S
C2146 C2140 1.465 . S
C2146 C2145 1.396 . S
C2146 C2147 1.399 . S
C2147 H2133 0.929 . S
C2147 C2146 1.399 . S
C2147 C2148 1.385 . S
C2148 H2134 0.931 . S
C2148 C2147 1.385 . S
C2148 C2149 1.389 . S
C2149 C2148 1.389 . S
C2149 C2150 1.387 . S
C2150 H2135 0.930 . S
C2150 C2145 1.390 . S
C2150 C2149 1.387 . S
H2151 C2163 0.930 . S
H2152 C2165 0.930 . S
H2153 C2166 0.930 . S
H2154 C2170 0.959 . S
H2155 C2170 0.959 . S
H2156 C2170 0.961 . S
H2157 C2171 0.960 . S
H2158 C2171 0.961 . S
H2159 C2171 0.959 . S
H2160 C2174 0.929 . S
H2161 C2175 0.931 . S
H2162 C2177 0.930 . S
C2163 H2151 0.930 . S
C2163 C2164 1.399 . S
C2163 C2168 1.399 . S
C2164 C2163 1.399 . S
C2164 C2165 1.376 . S
C2165 H2152 0.930 . S
C2165 C2164 1.376 . S
C2165 C2166 1.388 . S
C2166 H2153 0.930 . S
C2166 C2165 1.388 . S
C2166 C2167 1.390 . S
C2167 C2166 1.390 . S
C2167 C2168 1.394 . S
C2167 C2173 1.465 . S
C2168 C2163 1.399 . S
C2168 C2167 1.394 . S
C2168 C2169 1.516 . S
C2169 C2168 1.516 . S
C2169 C2170 1.502 . S
C2169 C2171 1.561 . S
C2169 C2172 1.526 . S
C2170 H2154 0.959 . S
C2170 H2155 0.959 . S
C2170 H2156 0.961 . S
C2170 C2169 1.502 . S
C2171 H2157 0.960 . S
C2171 H2158 0.961 . S
C2171 H2159 0.959 . S
C2171 C2169 1.561 . S
C2172 C2169 1.526 . S
C2172 C2173 1.396 . S
C2172 C2177 1.390 . S
C2173 C2167 1.465 . S
C2173 C2172 1.396 . S
C2173 C2174 1.399 . S
C2174 H2160 0.929 . S
C2174 C2173 1.399 . S
C2174 C2175 1.385 . S
C2175 H2161 0.931 . S
C2175 C2174 1.385 . S
C2175 C2176 1.389 . S
C2176 C2175 1.389 . S
C2176 C2177 1.387 . S
C2177 H2162 0.930 . S
C2177 C2172 1.390 . S
C2177 C2176 1.387 . S
H2178 C2190 0.930 . S
H2179 C2192 0.930 . S
H2180 C2193 0.930 . S
H2181 C2197 0.959 . S
H2182 C2197 0.959 . S
H2183 C2197 0.961 . S
H2184 C2198 0.960 . S
H2185 C2198 0.961 . S
H2186 C2198 0.959 . S
H2187 C2201 0.929 . S
H2188 C2202 0.931 . S
H2189 C2204 0.930 . S
C2190 H2178 0.930 . S
C2190 C2191 1.399 . S
C2190 C2195 1.399 . S
C2191 C2190 1.399 . S
C2191 C2192 1.376 . S
C2192 H2179 0.930 . S
C2192 C2191 1.376 . S
C2192 C2193 1.388 . S
C2193 H2180 0.930 . S
C2193 C2192 1.388 . S
C2193 C2194 1.390 . S
C2194 C2193 1.390 . S
C2194 C2195 1.394 . S
C2194 C2200 1.465 . S
C2195 C2190 1.399 . S
C2195 C2194 1.394 . S
C2195 C2196 1.516 . S
C2196 C2195 1.516 . S
C2196 C2197 1.502 . S
C2196 C2198 1.561 . S
C2196 C2199 1.526 . S
C2197 H2181 0.959 . S
C2197 H2182 0.959 . S
C2197 H2183 0.961 . S
C2197 C2196 1.502 . S
C2198 H2184 0.960 . S
C2198 H2185 0.961 . S
C2198 H2186 0.959 . S
C2198 C2196 1.561 . S
C2199 C2196 1.526 . S
C2199 C2200 1.396 . S
C2199 C2204 1.390 . S
C2200 C2194 1.465 . S
C2200 C2199 1.396 . S
C2200 C2201 1.399 . S
C2201 H2187 0.929 . S
C2201 C2200 1.399 . S
C2201 C2202 1.385 . S
C2202 H2188 0.931 . S
C2202 C2201 1.385 . S
C2202 C2203 1.389 . S
C2203 C2202 1.389 . S
C2203 C2204 1.387 . S
C2204 H2189 0.930 . S
C2204 C2199 1.390 . S
C2204 C2203 1.387 . S
H2205 C2217 0.930 . S
H2206 C2219 0.930 . S
H2207 C2220 0.930 . S
H2208 C2224 0.959 . S
H2209 C2224 0.959 . S
H2210 C2224 0.961 . S
H2211 C2225 0.960 . S
H2212 C2225 0.961 . S
H2213 C2225 0.959 . S
H2214 C2228 0.929 . S
H2215 C2229 0.931 . S
H2216 C2231 0.930 . S
C2217 H2205 0.930 . S
C2217 C2218 1.399 . S
C2217 C2222 1.399 . S
C2218 C2217 1.399 . S
C2218 C2219 1.376 . S
C2219 H2206 0.930 . S
C2219 C2218 1.376 . S
C2219 C2220 1.388 . S
C2220 H2207 0.930 . S
C2220 C2219 1.388 . S
C2220 C2221 1.390 . S
C2221 C2220 1.390 . S
C2221 C2222 1.394 . S
C2221 C2227 1.465 . S
C2222 C2217 1.399 . S
C2222 C2221 1.394 . S
C2222 C2223 1.516 . S
C2223 C2222 1.516 . S
C2223 C2224 1.502 . S
C2223 C2225 1.561 . S
C2223 C2226 1.526 . S
C2224 H2208 0.959 . S
C2224 H2209 0.959 . S
C2224 H2210 0.961 . S
C2224 C2223 1.502 . S
C2225 H2211 0.960 . S
C2225 H2212 0.961 . S
C2225 H2213 0.959 . S
C2225 C2223 1.561 . S
C2226 C2223 1.526 . S
C2226 C2227 1.396 . S
C2226 C2231 1.390 . S
C2227 C2221 1.465 . S
C2227 C2226 1.396 . S
C2227 C2228 1.399 . S
C2228 H2214 0.929 . S
C2228 C2227 1.399 . S
C2228 C2229 1.385 . S
C2229 H2215 0.931 . S
C2229 C2228 1.385 . S
C2229 C2230 1.389 . S
C2230 C2229 1.389 . S
C2230 C2231 1.387 . S
C2231 H2216 0.930 . S
C2231 C2226 1.390 . S
C2231 C2230 1.387 . S
H2232 C2244 0.930 . S
H2233 C2246 0.930 . S
H2234 C2247 0.930 . S
H2235 C2251 0.959 . S
H2236 C2251 0.959 . S
H2237 C2251 0.961 . S
H2238 C2252 0.960 . S
H2239 C2252 0.961 . S
H2240 C2252 0.959 . S
H2241 C2255 0.929 . S
H2242 C2256 0.931 . S
H2243 C2258 0.930 . S
C2244 H2232 0.930 . S
C2244 C2245 1.399 . S
C2244 C2249 1.399 . S
C2245 C2244 1.399 . S
C2245 C2246 1.376 . S
C2246 H2233 0.930 . S
C2246 C2245 1.376 . S
C2246 C2247 1.388 . S
C2247 H2234 0.930 . S
C2247 C2246 1.388 . S
C2247 C2248 1.390 . S
C2248 C2247 1.390 . S
C2248 C2249 1.394 . S
C2248 C2254 1.465 . S
C2249 C2244 1.399 . S
C2249 C2248 1.394 . S
C2249 C2250 1.516 . S
C2250 C2249 1.516 . S
C2250 C2251 1.502 . S
C2250 C2252 1.561 . S
C2250 C2253 1.526 . S
C2251 H2235 0.959 . S
C2251 H2236 0.959 . S
C2251 H2237 0.961 . S
C2251 C2250 1.502 . S
C2252 H2238 0.960 . S
C2252 H2239 0.961 . S
C2252 H2240 0.959 . S
C2252 C2250 1.561 . S
C2253 C2250 1.526 . S
C2253 C2254 1.396 . S
C2253 C2258 1.390 . S
C2254 C2248 1.465 . S
C2254 C2253 1.396 . S
C2254 C2255 1.399 . S
C2255 H2241 0.929 . S
C2255 C2254 1.399 . S
C2255 C2256 1.385 . S
C2256 H2242 0.931 . S
C2256 C2255 1.385 . S
C2256 C2257 1.389 . S
C2257 C2256 1.389 . S
C2257 C2258 1.387 . S
C2258 H2243 0.930 . S
C2258 C2253 1.390 . S
C2258 C2257 1.387 . S
H2259 C2271 0.930 . S
H2260 C2273 0.930 . S
H2261 C2274 0.930 . S
H2262 C2278 0.959 . S
H2263 C2278 0.959 . S
H2264 C2278 0.961 . S
H2265 C2279 0.960 . S
H2266 C2279 0.961 . S
H2267 C2279 0.959 . S
H2268 C2282 0.929 . S
H2269 C2283 0.931 . S
H2270 C2285 0.930 . S
C2271 H2259 0.930 . S
C2271 C2272 1.399 . S
C2271 C2276 1.399 . S
C2272 C2271 1.399 . S
C2272 C2273 1.376 . S
C2273 H2260 0.930 . S
C2273 C2272 1.376 . S
C2273 C2274 1.388 . S
C2274 H2261 0.930 . S
C2274 C2273 1.388 . S
C2274 C2275 1.390 . S
C2275 C2274 1.390 . S
C2275 C2276 1.394 . S
C2275 C2281 1.465 . S
C2276 C2271 1.399 . S
C2276 C2275 1.394 . S
C2276 C2277 1.516 . S
C2277 C2276 1.516 . S
C2277 C2278 1.502 . S
C2277 C2279 1.561 . S
C2277 C2280 1.526 . S
C2278 H2262 0.959 . S
C2278 H2263 0.959 . S
C2278 H2264 0.961 . S
C2278 C2277 1.502 . S
C2279 H2265 0.960 . S
C2279 H2266 0.961 . S
C2279 H2267 0.959 . S
C2279 C2277 1.561 . S
C2280 C2277 1.526 . S
C2280 C2281 1.396 . S
C2280 C2285 1.390 . S
C2281 C2275 1.465 . S
C2281 C2280 1.396 . S
C2281 C2282 1.399 . S
C2282 H2268 0.929 . S
C2282 C2281 1.399 . S
C2282 C2283 1.385 . S
C2283 H2269 0.931 . S
C2283 C2282 1.385 . S
C2283 C2284 1.389 . S
C2284 C2283 1.389 . S
C2284 C2285 1.387 . S
C2285 H2270 0.930 . S
C2285 C2280 1.390 . S
C2285 C2284 1.387 . S
H2286 C2298 0.930 . S
H2287 C2300 0.930 . S
H2288 C2301 0.930 . S
H2289 C2305 0.959 . S
H2290 C2305 0.959 . S
H2291 C2305 0.961 . S
H2292 C2306 0.960 . S
H2293 C2306 0.961 . S
H2294 C2306 0.959 . S
H2295 C2309 0.929 . S
H2296 C2310 0.931 . S
H2297 C2312 0.930 . S
C2298 H2286 0.930 . S
C2298 C2299 1.399 . S
C2298 C2303 1.399 . S
C2299 C2298 1.399 . S
C2299 C2300 1.376 . S
C2300 H2287 0.930 . S
C2300 C2299 1.376 . S
C2300 C2301 1.388 . S
C2301 H2288 0.930 . S
C2301 C2300 1.388 . S
C2301 C2302 1.390 . S
C2302 C2301 1.390 . S
C2302 C2303 1.394 . S
C2302 C2308 1.465 . S
C2303 C2298 1.399 . S
C2303 C2302 1.394 . S
C2303 C2304 1.516 . S
C2304 C2303 1.516 . S
C2304 C2305 1.502 . S
C2304 C2306 1.561 . S
C2304 C2307 1.526 . S
C2305 H2289 0.959 . S
C2305 H2290 0.959 . S
C2305 H2291 0.961 . S
C2305 C2304 1.502 . S
C2306 H2292 0.960 . S
C2306 H2293 0.961 . S
C2306 H2294 0.959 . S
C2306 C2304 1.561 . S
C2307 C2304 1.526 . S
C2307 C2308 1.396 . S
C2307 C2312 1.390 . S
C2308 C2302 1.465 . S
C2308 C2307 1.396 . S
C2308 C2309 1.399 . S
C2309 H2295 0.929 . S
C2309 C2308 1.399 . S
C2309 C2310 1.385 . S
C2310 H2296 0.931 . S
C2310 C2309 1.385 . S
C2310 C2311 1.389 . S
C2311 C2310 1.389 . S
C2311 C2312 1.387 . S
C2312 H2297 0.930 . S
C2312 C2307 1.390 . S
C2312 C2311 1.387 . S
H2313 C2325 0.930 . S
H2314 C2327 0.930 . S
H2315 C2328 0.930 . S
H2316 C2332 0.959 . S
H2317 C2332 0.959 . S
H2318 C2332 0.961 . S
H2319 C2333 0.960 . S
H2320 C2333 0.961 . S
H2321 C2333 0.959 . S
H2322 C2336 0.929 . S
H2323 C2337 0.931 . S
H2324 C2339 0.930 . S
C2325 H2313 0.930 . S
C2325 C2326 1.399 . S
C2325 C2330 1.399 . S
C2326 C2325 1.399 . S
C2326 C2327 1.376 . S
C2327 H2314 0.930 . S
C2327 C2326 1.376 . S
C2327 C2328 1.388 . S
C2328 H2315 0.930 . S
C2328 C2327 1.388 . S
C2328 C2329 1.390 . S
C2329 C2328 1.390 . S
C2329 C2330 1.394 . S
C2329 C2335 1.465 . S
C2330 C2325 1.399 . S
C2330 C2329 1.394 . S
C2330 C2331 1.516 . S
C2331 C2330 1.516 . S
C2331 C2332 1.502 . S
C2331 C2333 1.561 . S
C2331 C2334 1.526 . S
C2332 H2316 0.959 . S
C2332 H2317 0.959 . S
C2332 H2318 0.961 . S
C2332 C2331 1.502 . S
C2333 H2319 0.960 . S
C2333 H2320 0.961 . S
C2333 H2321 0.959 . S
C2333 C2331 1.561 . S
C2334 C2331 1.526 . S
C2334 C2335 1.396 . S
C2334 C2339 1.390 . S
C2335 C2329 1.465 . S
C2335 C2334 1.396 . S
C2335 C2336 1.399 . S
C2336 H2322 0.929 . S
C2336 C2335 1.399 . S
C2336 C2337 1.385 . S
C2337 H2323 0.931 . S
C2337 C2336 1.385 . S
C2337 C2338 1.389 . S
C2338 C2337 1.389 . S
C2338 C2339 1.387 . S
C2339 H2324 0.930 . S
C2339 C2334 1.390 . S
C2339 C2338 1.387 . S
H2340 C2352 0.930 . S
H2341 C2354 0.930 . S
H2342 C2355 0.930 . S
H2343 C2359 0.959 . S
H2344 C2359 0.959 . S
H2345 C2359 0.961 . S
H2346 C2360 0.960 . S
H2347 C2360 0.961 . S
H2348 C2360 0.959 . S
H2349 C2363 0.929 . S
H2350 C2364 0.931 . S
H2351 C2366 0.930 . S
C2352 H2340 0.930 . S
C2352 C2353 1.399 . S
C2352 C2357 1.399 . S
C2353 C2352 1.399 . S
C2353 C2354 1.376 . S
C2354 H2341 0.930 . S
C2354 C2353 1.376 . S
C2354 C2355 1.388 . S
C2355 H2342 0.930 . S
C2355 C2354 1.388 . S
C2355 C2356 1.390 . S
C2356 C2355 1.390 . S
C2356 C2357 1.394 . S
C2356 C2362 1.465 . S
C2357 C2352 1.399 . S
C2357 C2356 1.394 . S
C2357 C2358 1.516 . S
C2358 C2357 1.516 . S
C2358 C2359 1.502 . S
C2358 C2360 1.561 . S
C2358 C2361 1.526 . S
C2359 H2343 0.959 . S
C2359 H2344 0.959 . S
C2359 H2345 0.961 . S
C2359 C2358 1.502 . S
C2360 H2346 0.960 . S
C2360 H2347 0.961 . S
C2360 H2348 0.959 . S
C2360 C2358 1.561 . S
C2361 C2358 1.526 . S
C2361 C2362 1.396 . S
C2361 C2366 1.390 . S
C2362 C2356 1.465 . S
C2362 C2361 1.396 . S
C2362 C2363 1.399 . S
C2363 H2349 0.929 . S
C2363 C2362 1.399 . S
C2363 C2364 1.385 . S
C2364 H2350 0.931 . S
C2364 C2363 1.385 . S
C2364 C2365 1.389 . S
C2365 C2364 1.389 . S
C2365 C2366 1.387 . S
C2366 H2351 0.930 . S
C2366 C2361 1.390 . S
C2366 C2365 1.387 . S
C922 C522 1.486 . S
C934 C734 1.453 . S
C949 C562 1.488 . S
C961 C755 1.407 . S
C976 C495 1.395 . S
C988 C775 1.204 . S
C1003 C455 1.435 . S
C1015 C754 1.184 1_556 S
C1042 C776 1.464 . S
C1030 C362 1.512 . S
C1057 C402 1.453 . S
C1069 C733 1.252 1_556 S
C1096 C735 1.369 . S
C1084 C442 1.445 . S
C1123 C756 1.336 . S
C1111 C375 1.350 . S
C1138 C415 1.447 . S
C1150 C778 1.300 1_556 S
C1165 C535 1.452 . S
C1177 C757 1.113 . S
C1192 C575 1.311 . S
C1204 C777 1.259 . S
C1231 C736 1.315 . S
C1219 C482 1.377 . S
C1258 C797 1.390 . S
C1246 C42 1.487 . S
C1273 C82 1.495 . S
C1285 C818 1.368 . S
C1300 C15 1.433 . S
C1312 C838 1.111 . S
C1327 C695 1.448 . S
C1339 C817 1.152 . S
C1354 C602 1.523 . S
C1366 C839 1.437 . S
C1381 C642 1.468 . S
C1393 C796 1.183 . S
C1408 C682 1.448 . S
C1420 C798 1.362 . S
C1435 C615 1.355 . S
C1447 C819 1.350 . S
C1474 C841 1.135 . S
C1462 C655 1.507 . S
C1489 C55 1.452 . S
C1501 C820 1.128 . S
C1528 C840 1.333 . S
C1516 C95 1.357 . S
C1543 C2 1.452 . S
C1555 C799 1.154 . S
C1582 C860 1.373 . S
C1570 C282 1.490 . S
C1597 C322 1.487 . S
C1609 C881 1.413 . S
C1636 C901 1.149 . S
C1624 C255 1.418 . S
C1663 C880 1.164 . S
C1651 C215 1.443 . S
C1690 C902 1.445 . S
C1678 C122 1.521 . S
C1705 C162 1.470 . S
C1717 C859 1.170 . S
C1732 C202 1.435 . S
C1744 C861 1.392 . S
C1759 C135 1.405 . S
C1771 C882 1.291 . S
C1798 C904 1.136 . S
C1786 C175 1.507 . S
C1813 C295 1.396 . S
C1825 C883 1.269 . S
C1840 C335 1.312 . S
C1852 C903 1.254 . S
C1867 C242 1.382 . S
C1879 C862 1.273 . S
C1894 C621 1.421 . S
C1906 C738 1.365 . S
C1933 C759 1.454 . S
C1921 C661 1.465 . S
C1948 C701 1.459 . S
C1960 C779 1.536 . S
C1975 C261 1.573 . S
C1987 C758 1.533 1_655 S
C2002 C301 1.472 . S
C2014 C780 1.463 . S
C2041 C737 1.486 . S
C2029 C341 1.522 . S
C2056 C141 1.420 . S
C2068 C801 1.394 . S
C2083 C181 1.465 . S
C2095 C822 1.456 . S
C2110 C221 1.458 . S
C2122 C842 1.536 . S
C2137 C501 1.570 . S
C2149 C821 1.519 . S
C2176 C843 1.462 . S
C2164 C541 1.472 . S
C2191 C581 1.523 . S
C2203 C800 1.476 . S
C2218 C381 1.421 . S
C2230 C864 1.357 . S
C2245 C421 1.465 . S
C2257 C885 1.455 . S
C2284 C905 1.535 . S
C2272 C461 1.458 . S
C2299 C21 1.571 . S
C2311 C884 1.520 . S
C2326 C61 1.472 . S
C2338 C906 1.463 . S
C2353 C101 1.523 . S
C2365 C863 1.481 . S
