# Generated by pormake.
# Topology pth, (4,4)-cn, num edge types: 1
# Building blocks:
#     Node 0, Type 0, BuildingBlock: GALJAG_clean_sbu_0, # of connection points: 4
#     Node 1, Type 0, BuildingBlock: GALJAG_clean_sbu_0, # of connection points: 4
#     Node 2, Type 0, BuildingBlock: GALJAG_clean_sbu_0, # of connection points: 4
#     Node 3, Type 1, BuildingBlock: NAWXER_clean_sbu_0, # of connection points: 4
#     Node 4, Type 1, BuildingBlock: NAWXER_clean_sbu_0, # of connection points: 4
#     Node 5, Type 1, BuildingBlock: NAWXER_clean_sbu_0, # of connection points: 4
#     Edge 6, Type (0, 1), BuildingBlock: MIFKUJ_clean_linker_0, # of connection points: 2
#     Edge 7, Type (0, 1), BuildingBlock: MIFKUJ_clean_linker_0, # of connection points: 2
#     Edge 8, Type (0, 1), BuildingBlock: MIFKUJ_clean_linker_0, # of connection points: 2
#     Edge 9, Type (0, 1), BuildingBlock: MIFKUJ_clean_linker_0, # of connection points: 2
#     Edge 10, Type (0, 1), BuildingBlock: MIFKUJ_clean_linker_0, # of connection points: 2
#     Edge 11, Type (0, 1), BuildingBlock: MIFKUJ_clean_linker_0, # of connection points: 2
#     Edge 12, Type (0, 1), BuildingBlock: MIFKUJ_clean_linker_0, # of connection points: 2
#     Edge 13, Type (0, 1), BuildingBlock: MIFKUJ_clean_linker_0, # of connection points: 2
#     Edge 14, Type (0, 1), BuildingBlock: MIFKUJ_clean_linker_0, # of connection points: 2
#     Edge 15, Type (0, 1), BuildingBlock: MIFKUJ_clean_linker_0, # of connection points: 2
#     Edge 16, Type (0, 1), BuildingBlock: MIFKUJ_clean_linker_0, # of connection points: 2
#     Edge 17, Type (0, 1), BuildingBlock: MIFKUJ_clean_linker_0, # of connection points: 2
# Relax obj value: 0.017
# Max RMSD: 0.060
# Mean RMSD: 0.053
data_MOF--net-pth--node1-GALJAG_clean_sbu_0--node2-NAWXER_clean_sbu_0--edge1-MIFKUJ_clean_linker_0
_symmetry_space_group_name_H-M    P1
_symmetry_Int_Tables_number       1
_symmetry_cell_setting            triclinic
loop_
_symmetry_equiv_pos_as_xyz
'x, y, z'
_cell_length_a     30.407353
_cell_length_b     30.405818
_cell_length_c     72.608718
_cell_angle_alpha  90.111301
_cell_angle_beta   90.05707
_cell_angle_gamma 119.99352
loop_
_atom_site_label
_atom_site_type_symbol
_atom_site_fract_x
_atom_site_fract_y
_atom_site_fract_z
_atom_type_partial_charge
In0 In 0.01008 0.00639 0.0723 0.0
O1 O 0.97348 0.04828 0.08594 0.0
O2 O 0.04728 0.06509 0.09476 0.0
C3 C 0.94561 0.94015 0.04727 0.0
C4 C 0.07794 0.07681 0.04938 0.0
C5 C 0.00618 0.93641 0.09591 0.0
O6 O 0.93232 0.96412 0.05811 0.0
O7 O 0.99111 0.95047 0.04898 0.0
O8 O 0.04493 0.96291 0.08603 0.0
O9 O 0.97066 0.94616 0.09401 0.0
C10 C 0.0114 0.07446 0.09631 0.0
O11 O 0.08901 0.04906 0.0591 0.0
O12 O 0.03292 0.06799 0.05108 0.0
In13 In 1.00307 0.00384 0.4059 0.0
O14 O 0.03861 0.08274 0.39275 0.0
O15 O 0.96516 0.02524 0.38377 0.0
C16 C 0.06887 1.00096 0.43 0.0
C17 C 0.93513 0.00495 0.42928 0.0
C18 C 0.00685 0.93915 0.38152 0.0
O19 O 0.08122 0.03935 0.41989 0.0
O20 O 0.02361 0.96541 0.42811 0.0
O21 O 0.96898 0.92574 0.39203 0.0
O22 O 0.04152 0.9849 0.38317 0.0
C23 C 1.00059 0.07074 0.3824 0.0
O24 O 0.92406 0.96688 0.41908 0.0
O25 O 0.98028 0.04107 0.42788 0.0
In26 In 0.00529 1.00168 0.73981 0.0
O27 O 0.9612 0.92121 0.75192 0.0
O28 O 0.95396 0.9805 0.76461 0.0
C29 C 0.0731 0.00485 0.71531 0.0
C30 C 0.93416 1.00039 0.71734 0.0
C31 C 0.07748 0.07063 0.76211 0.0
O32 O 0.04938 0.96753 0.72611 0.0
O33 O 0.06129 0.0391 0.71664 0.0
O34 O 0.04838 0.08091 0.75285 0.0
O35 O 0.06906 0.02575 0.76032 0.0
C36 C 0.94084 0.93406 0.76445 0.0
O37 O 0.95768 0.03559 0.72901 0.0
O38 O 0.94734 0.9671 0.71691 0.0
C39 C 0.04742 0.58326 0.26337 0.0
C40 C 0.04312 0.46642 0.21578 0.0
O41 O 0.08593 0.58562 0.25548 0.0
Zn42 Zn 0.04848 0.52671 0.23946 0.0
O43 O 1.00269 0.54857 0.25871 0.0
Zn44 Zn 0.96641 0.48671 0.23992 0.0
O45 O 0.93045 0.42904 0.25645 0.0
O46 O 0.01392 0.4658 0.25864 0.0
O47 O 0.99931 0.45794 0.22097 0.0
O48 O 0.08288 0.50285 0.22301 0.0
O49 O 0.0139 0.554 0.22073 0.0
O50 O 0.93058 0.50972 0.22376 0.0
C51 C 0.96964 0.43154 0.26385 0.0
C52 C 0.96969 0.54535 0.21599 0.0
C53 C 0.5428 0.96475 0.59628 0.0
C54 C 0.42398 0.96542 0.55068 0.0
O55 O 0.5026 0.92577 0.59055 0.0
Zn56 Zn 0.48064 0.96193 0.57411 0.0
O57 O 0.55365 0.00905 0.59079 0.0
Zn58 Zn 0.52404 0.0439 0.5731 0.0
O59 O 0.50532 0.08229 0.58989 0.0
O60 O 0.4578 0.99937 0.5932 0.0
O61 O 0.46046 0.00952 0.55506 0.0
O62 O 0.42028 0.92631 0.55855 0.0
O63 O 0.54082 0.99363 0.55429 0.0
O64 O 0.57989 0.07743 0.5558 0.0
C65 C 0.46919 0.04437 0.59798 0.0
C66 C 0.5757 0.0372 0.54865 0.0
C67 C 0.43456 0.46917 0.93004 0.0
C68 C 0.5421 0.58606 0.88188 0.0
O69 O 0.43074 0.50577 0.92331 0.0
Zn70 Zn 0.48714 0.52943 0.90613 0.0
O71 O 0.46922 0.46051 0.92413 0.0
Zn72 Zn 0.52906 0.48951 0.90437 0.0
O73 O 0.58978 0.51263 0.91957 0.0
O74 O 0.5507 0.55644 0.92406 0.0
O75 O 0.55249 0.55123 0.88582 0.0
O76 O 0.50714 0.58868 0.89057 0.0
O77 O 0.45867 0.46841 0.88676 0.0
O78 O 0.50605 0.43221 0.88753 0.0
C79 C 0.58686 0.54792 0.92792 0.0
C80 C 0.46835 0.43435 0.88092 0.0
H81 H 0.09275 0.13937 0.1171 0.0
H82 H 0.10175 0.20884 0.13655 0.0
H83 H 0.94838 0.17092 0.12327 0.0
H84 H 0.93954 0.10172 0.1033 0.0
H85 H 0.01029 0.27066 0.12152 0.0
H86 H 0.97959 0.1411 0.16546 0.0
H87 H 0.99314 0.07638 0.18067 0.0
H88 H 0.14503 0.19056 0.19518 0.0
H89 H 0.13261 0.25588 0.17982 0.0
H90 H 0.96664 0.39914 0.19378 0.0
H91 H 0.96718 0.3374 0.1726 0.0
H92 H 0.12518 0.39301 0.18489 0.0
H93 H 0.12493 0.45538 0.20645 0.0
H94 H 0.06625 0.28802 0.18667 0.0
H95 H 0.09279 0.41875 0.14392 0.0
H96 H 0.07538 0.48188 0.12952 0.0
H97 H 0.92683 0.36335 0.11356 0.0
H98 H 0.94303 0.29955 0.12811 0.0
C99 C 0.06075 0.14555 0.11838 0.0
C100 C 0.01529 0.11489 0.10873 0.0
C101 C 0.06594 0.18525 0.12957 0.0
C102 C 0.02556 0.19478 0.13158 0.0
C103 C 0.98005 0.16423 0.12195 0.0
C104 C 0.97493 0.12458 0.11062 0.0
C105 C 0.03129 0.23718 0.14348 0.0
C106 C 0.02194 0.2741 0.13583 0.0
C107 C 0.0478 0.24248 0.16203 0.0
C108 C 0.05534 0.20329 0.17132 0.0
C109 C 0.01602 0.15234 0.17176 0.0
C110 C 0.02347 0.11556 0.18044 0.0
C111 C 0.06996 0.12933 0.18884 0.0
C112 C 0.10906 0.17994 0.18864 0.0
C113 C 0.10182 0.21686 0.17996 0.0
C114 C 1.00176 0.3987 0.19193 0.0
C115 C 0.0458 0.43221 0.20184 0.0
C116 C 1.00201 0.36345 0.17971 0.0
C117 C 0.04629 0.36086 0.17704 0.0
C118 C 0.09063 0.39456 0.18673 0.0
C119 C 0.09052 0.43028 0.19895 0.0
C120 C 0.04498 0.32122 0.16472 0.0
C121 C 0.05505 0.28477 0.17231 0.0
C122 C 0.02868 0.31611 0.14617 0.0
C123 C 0.01903 0.35438 0.13723 0.0
C124 C 0.05628 0.40616 0.13745 0.0
C125 C 0.04664 0.44207 0.12925 0.0
C126 C 1.0 0.42664 0.12067 0.0
C127 C 0.96294 0.37525 0.12023 0.0
C128 C 0.97235 0.33918 0.12843 0.0
H129 H 0.9926 0.45449 0.11433 0.0
H130 H 0.07566 0.10079 0.19555 0.0
H131 H 0.95001 0.08672 0.44944 0.0
H132 H 0.88892 0.09514 0.46864 0.0
H133 H 0.77536 0.94049 0.456 0.0
H134 H 0.83636 0.93221 0.43628 0.0
H135 H 0.73562 1.00094 0.45406 0.0
H136 H 0.83701 0.97373 0.49801 0.0
H137 H 0.91613 0.98895 0.51309 0.0
H138 H 0.95202 0.14065 0.52703 0.0
H139 H 0.87343 0.12657 0.5118 0.0
H140 H 0.56514 0.95972 0.52685 0.0
H141 H 0.62645 0.95936 0.50544 0.0
H142 H 0.72929 0.1179 0.51677 0.0
H143 H 0.66773 0.11856 0.53852 0.0
H144 H 0.77551 0.05962 0.51891 0.0
H145 H 0.66913 0.08287 0.476 0.0
H146 H 0.58797 0.06396 0.46165 0.0
H147 H 0.55922 0.91528 0.44654 0.0
H148 H 0.63985 0.93298 0.46105 0.0
C149 C 0.91211 0.05434 0.4508 0.0
C150 C 0.89806 0.00865 0.44143 0.0
C151 C 0.87723 0.05919 0.46184 0.0
C152 C 0.8277 0.01826 0.46399 0.0
C153 C 0.81342 0.97257 0.45458 0.0
C154 C 0.84832 0.96779 0.44339 0.0
C155 C 0.79082 0.02353 0.47589 0.0
C156 C 0.7441 0.01316 0.4683 0.0
C157 C 0.80235 0.04072 0.49436 0.0
C158 C 0.84957 0.04925 0.50359 0.0
C159 C 0.86197 0.01047 0.50416 0.0
C160 C 0.90669 0.01887 0.51276 0.0
C161 C 0.93915 0.06578 0.52097 0.0
C162 C 0.92688 0.10435 0.52064 0.0
C163 C 0.88223 0.09617 0.51204 0.0
C164 C 0.60057 0.99477 0.52471 0.0
C165 C 0.61158 0.03922 0.53443 0.0
C166 C 0.63551 0.99449 0.51237 0.0
C167 C 0.68228 0.03866 0.50939 0.0
C168 C 0.69328 0.08342 0.51884 0.0
C169 C 0.65804 0.08382 0.53118 0.0
C170 C 0.72033 0.03687 0.49709 0.0
C171 C 0.76724 0.04778 0.50462 0.0
C172 C 0.70875 0.01972 0.47864 0.0
C173 C 0.66041 0.00914 0.46974 0.0
C174 C 0.64534 0.046 0.46973 0.0
C175 C 0.59945 0.03552 0.46155 0.0
C176 C 0.56842 0.98842 0.45322 0.0
C177 C 0.58328 0.95174 0.45301 0.0
C178 C 0.62911 0.962 0.46119 0.0
H179 H 0.53292 0.98037 0.44688 0.0
H180 H 0.97375 0.07221 0.52762 0.0
H181 H 0.90529 0.95642 0.7953 0.0
H182 H 0.83585 0.89792 0.81514 0.0
H183 H 0.81825 0.7714 0.7825 0.0
H184 H 0.88817 0.83006 0.76251 0.0
H185 H 0.72764 0.76826 0.7883 0.0
H186 H 0.86804 0.79014 0.8243 0.0
H187 H 0.94927 0.83503 0.84111 0.0
H188 H 0.88633 0.90036 0.87764 0.0
H189 H 0.80496 0.85667 0.86081 0.0
H190 H 0.57853 0.56798 0.85064 0.0
H191 H 0.64214 0.63045 0.82987 0.0
H192 H 0.64244 0.75143 0.8611 0.0
H193 H 0.57758 0.6885 0.88185 0.0
H194 H 0.73999 0.75957 0.8562 0.0
H195 H 0.5978 0.73419 0.81991 0.0
H196 H 0.51604 0.68389 0.80378 0.0
H197 H 0.58274 0.61985 0.76842 0.0
H198 H 0.66479 0.66926 0.78451 0.0
C199 C 0.88705 0.91608 0.79245 0.0
C200 C 0.90215 0.89777 0.77735 0.0
C201 C 0.84743 0.88269 0.80384 0.0
C202 C 0.82195 0.8303 0.80034 0.0
C203 C 0.83744 0.81174 0.78543 0.0
C204 C 0.87752 0.84519 0.7741 0.0
C205 C 0.77775 0.79538 0.81179 0.0
C206 C 0.73049 0.76591 0.80312 0.0
C207 C 0.78122 0.79333 0.83119 0.0
C208 C 0.83055 0.82069 0.84109 0.0
C209 C 0.87169 0.81466 0.83574 0.0
C210 C 0.91775 0.83978 0.84531 0.0
C211 C 0.92303 0.87071 0.86038 0.0
C212 C 0.88224 0.87654 0.86592 0.0
C213 C 0.83615 0.85163 0.85636 0.0
C214 C 0.59128 0.60786 0.85282 0.0
C215 C 0.57317 0.62356 0.86778 0.0
C216 C 0.62756 0.64345 0.84095 0.0
C217 C 0.64693 0.69548 0.84396 0.0
C218 C 0.62774 0.71135 0.85854 0.0
C219 C 0.59053 0.67551 0.87027 0.0
C220 C 0.6901 0.73276 0.83271 0.0
C221 C 0.73717 0.76246 0.8414 0.0
C222 C 0.68657 0.73469 0.81334 0.0
C223 C 0.63737 0.70514 0.80353 0.0
C224 C 0.59495 0.70907 0.80879 0.0
C225 C 0.54857 0.68078 0.79964 0.0
C226 C 0.54416 0.64859 0.78512 0.0
C227 C 0.5862 0.64477 0.77969 0.0
C228 C 0.63268 0.67297 0.7888 0.0
H229 H 0.5082 0.6267 0.77805 0.0
H230 H 0.95868 0.89001 0.86781 0.0
H231 H 0.92621 0.87652 0.11803 0.0
H232 H 0.91552 0.80692 0.13769 0.0
H233 H 0.06359 0.83394 0.12169 0.0
H234 H 0.07431 0.90359 0.10169 0.0
H235 H 0.99405 0.73395 0.12075 0.0
H236 H 0.04452 0.8705 0.16383 0.0
H237 H 0.04084 0.94062 0.17948 0.0
H238 H 0.88964 0.8369 0.19807 0.0
H239 H 0.89214 0.76623 0.1823 0.0
H240 H 0.04224 0.60565 0.19157 0.0
H241 H 0.04116 0.66676 0.17029 0.0
H242 H 0.88872 0.62282 0.18719 0.0
H243 H 0.88955 0.56101 0.20882 0.0
H244 H 0.95395 0.7275 0.18727 0.0
H245 H 0.90721 0.5894 0.14545 0.0
H246 H 0.91432 0.52036 0.13048 0.0
H247 H 0.06202 0.62827 0.11007 0.0
H248 H 0.05617 0.69793 0.12515 0.0
C249 C 0.95668 0.86789 0.11874 0.0
C250 C 1.00124 0.89568 0.10835 0.0
C251 C 0.95054 0.82813 0.13005 0.0
C252 C 0.98893 0.81549 0.13132 0.0
C253 C 0.03348 0.8431 0.12093 0.0
C254 C 0.03967 0.88299 0.10958 0.0
C255 C 0.98209 0.77292 0.14328 0.0
C256 C 0.98585 0.73281 0.13533 0.0
C257 C 0.96995 0.77074 0.16221 0.0
C258 C 0.96831 0.81317 0.1717 0.0
C259 C 0.01031 0.86271 0.17111 0.0
C260 C 0.00847 0.90255 0.18004 0.0
C261 C 0.96497 0.89325 0.18972 0.0
C262 C 0.92327 0.84406 0.19054 0.0
C263 C 0.92489 0.8041 0.18162 0.0
C264 C 0.00817 0.60849 0.19069 0.0
C265 C 0.96594 0.57849 0.20192 0.0
C266 C 0.00758 0.64336 0.17843 0.0
C267 C 0.96477 0.64911 0.17705 0.0
C268 C 0.9221 0.61879 0.18802 0.0
C269 C 0.92249 0.58336 0.20027 0.0
C270 C 0.96624 0.68875 0.16475 0.0
C271 C 0.9616 0.72839 0.17264 0.0
C272 C 0.9779 0.69066 0.14579 0.0
C273 C 0.98137 0.64888 0.13655 0.0
C274 C 0.94137 0.59839 0.13788 0.0
C275 C 0.94515 0.55914 0.12936 0.0
C276 C 0.98863 0.56991 0.11936 0.0
C277 C 0.02837 0.61998 0.11783 0.0
C278 C 0.02481 0.65938 0.12634 0.0
H279 H 0.99148 0.53949 0.11277 0.0
H280 H 0.96363 0.92414 0.19662 0.0
H281 H 0.0488 0.92137 0.45232 0.0
H282 H 0.10773 0.91085 0.4721 0.0
H283 H 0.22877 0.05873 0.456 0.0
H284 H 0.16981 0.06924 0.43585 0.0
H285 H 0.25936 0.98934 0.45532 0.0
H286 H 0.17306 0.03997 0.49811 0.0
H287 H 0.09908 0.0363 0.51352 0.0
H288 H 0.05141 0.88511 0.53219 0.0
H289 H 0.12477 0.8876 0.51665 0.0
H290 H 0.43566 0.03807 0.52638 0.0
H291 H 0.37334 0.03685 0.50507 0.0
H292 H 0.26508 0.88442 0.52198 0.0
H293 H 0.32787 0.88537 0.54365 0.0
H294 H 0.22535 0.94948 0.52182 0.0
H295 H 0.31713 0.90277 0.48034 0.0
H296 H 0.39341 0.90993 0.46556 0.0
H297 H 0.43304 0.05745 0.44497 0.0
H298 H 0.3574 0.05155 0.45986 0.0
C299 C 0.0879 0.95185 0.45304 0.0
C300 C 0.10464 0.99628 0.44257 0.0
C301 C 0.12153 0.94579 0.46441 0.0
C302 C 0.17258 0.98418 0.46569 0.0
C303 C 0.1895 0.02862 0.45524 0.0
C304 C 0.15578 0.03471 0.44381 0.0
C305 C 0.20829 0.97745 0.47775 0.0
C306 C 0.25221 0.98121 0.46991 0.0
C307 C 0.19825 0.96538 0.49667 0.0
C308 C 0.15411 0.96377 0.50605 0.0
C309 C 0.14657 0.00577 0.50537 0.0
C310 C 0.10479 0.00393 0.51415 0.0
C311 C 0.07048 0.96044 0.52378 0.0
C312 C 0.07797 0.91874 0.52469 0.0
C313 C 0.11966 0.92036 0.51591 0.0
C314 C 0.39876 0.00399 0.52553 0.0
C315 C 0.38666 0.96179 0.53676 0.0
C316 C 0.36323 0.00332 0.51323 0.0
C317 C 0.31471 0.96044 0.51182 0.0
C318 C 0.30245 0.91785 0.52283 0.0
C319 C 0.33835 0.91833 0.53512 0.0
C320 C 0.27655 0.96176 0.49942 0.0
C321 C 0.2322 0.95709 0.5072 0.0
C322 C 0.28639 0.97334 0.48047 0.0
C323 C 0.33173 0.97684 0.47134 0.0
C324 C 0.34229 0.9369 0.47277 0.0
C325 C 0.3854 0.94071 0.46436 0.0
C326 C 0.4181 0.98416 0.45437 0.0
C327 C 0.40769 0.02383 0.45273 0.0
C328 C 0.36466 0.02024 0.46113 0.0
H329 H 0.45144 0.98704 0.44786 0.0
H330 H 0.03817 0.9591 0.53058 0.0
H331 H 0.15135 0.05936 0.77872 0.0
H332 H 0.22202 0.12105 0.79745 0.0
H333 H 0.16947 0.22826 0.79083 0.0
H334 H 0.09914 0.16685 0.77151 0.0
H335 H 0.26941 0.27458 0.78705 0.0
H336 H 0.15005 0.15956 0.83122 0.0
H337 H 0.09292 0.07607 0.8451 0.0
H338 H 0.21883 0.05137 0.85318 0.0
H339 H 0.27663 0.13446 0.83912 0.0
H340 H 0.39407 0.4386 0.86156 0.0
H341 H 0.33377 0.3766 0.83997 0.0
H342 H 0.40397 0.28454 0.84665 0.0
H343 H 0.46485 0.34678 0.86867 0.0
H344 H 0.30003 0.22923 0.8495 0.0
H345 H 0.42042 0.34914 0.80715 0.0
H346 H 0.47615 0.43418 0.79416 0.0
H347 H 0.34662 0.45131 0.78345 0.0
H348 H 0.29014 0.36665 0.79663 0.0
C349 C 0.15468 0.09601 0.78129 0.0
C350 C 0.11948 0.10818 0.77375 0.0
C351 C 0.19507 0.13121 0.79206 0.0
C352 C 0.20068 0.17905 0.79582 0.0
C353 C 0.16583 0.19152 0.78816 0.0
C354 C 0.12557 0.15639 0.77719 0.0
C355 C 0.24303 0.21601 0.80767 0.0
C356 C 0.27574 0.26483 0.80078 0.0
C357 C 0.25222 0.20289 0.8254 0.0
C358 C 0.21757 0.153 0.83394 0.0
C359 C 0.16549 0.13616 0.83583 0.0
C360 C 0.133 0.08893 0.84375 0.0
C361 C 0.15221 0.05837 0.84997 0.0
C362 C 0.20399 0.07505 0.84833 0.0
C363 C 0.23664 0.12222 0.8404 0.0
C364 C 0.39713 0.4054 0.85841 0.0
C365 C 0.43433 0.39762 0.86689 0.0
C366 C 0.36269 0.37008 0.84594 0.0
C367 C 0.36468 0.32623 0.84153 0.0
C368 C 0.40197 0.31832 0.84982 0.0
C369 C 0.43678 0.35393 0.86233 0.0
C370 C 0.32603 0.28786 0.82894 0.0
C371 C 0.29396 0.23878 0.83569 0.0
C372 C 0.31722 0.30089 0.81115 0.0
C373 C 0.35106 0.35163 0.803 0.0
C374 C 0.40383 0.37116 0.80214 0.0
C375 C 0.43556 0.41929 0.79472 0.0
C376 C 0.41496 0.44817 0.78802 0.0
C377 C 0.36254 0.4289 0.78866 0.0
C378 C 0.33064 0.38081 0.79608 0.0
H379 H 0.4396 0.48545 0.7823 0.0
H380 H 0.12699 0.02182 0.8561 0.0
H381 H 0.89641 0.94358 0.68632 0.0
H382 H 0.82728 0.93521 0.66679 0.0
H383 H 0.80761 0.03781 0.70248 0.0
H384 H 0.87863 0.04811 0.72161 0.0
H385 H 0.73242 0.89903 0.67121 0.0
H386 H 0.76209 0.10164 0.67882 0.0
H387 H 0.83151 0.18929 0.68439 0.0
H388 H 0.93899 0.15184 0.6616 0.0
H389 H 0.87014 0.0642 0.65569 0.0
H390 H 0.5235 0.90446 0.6268 0.0
H391 H 0.5866 0.90751 0.64878 0.0
H392 H 0.70717 0.01791 0.61446 0.0
H393 H 0.64449 0.017 0.59333 0.0
H394 H 0.72869 0.04921 0.64674 0.0
H395 H 0.67317 0.88616 0.61868 0.0
H396 H 0.61117 0.79873 0.60909 0.0
H397 H 0.56852 0.75739 0.66551 0.0
H398 H 0.62989 0.84478 0.6754 0.0
C399 C 0.87759 0.96468 0.68992 0.0
C400 C 0.89316 0.99686 0.70539 0.0
C401 C 0.83781 0.95959 0.67881 0.0
C402 C 0.81225 0.98608 0.68302 0.0
C403 C 0.82728 0.01771 0.69868 0.0
C404 C 0.86782 0.02356 0.70963 0.0
C405 C 0.77045 0.98083 0.67083 0.0
C406 C 0.73159 0.93191 0.66588 0.0
C407 C 0.76942 0.02355 0.66365 0.0
C408 C 0.81105 0.07624 0.66703 0.0
C409 C 0.80053 0.11218 0.67497 0.0
C410 C 0.83977 0.16184 0.67819 0.0
C411 C 0.88965 0.17607 0.67342 0.0
C412 C 0.90037 0.14072 0.66536 0.0
C413 C 0.86127 0.09104 0.66209 0.0
C414 C 0.56354 0.92881 0.62396 0.0
C415 C 0.57931 0.96057 0.60847 0.0
C416 C 0.59962 0.93055 0.63647 0.0
C417 C 0.65193 0.96294 0.63332 0.0
C418 C 0.66725 0.99309 0.6174 0.0
C419 C 0.63141 0.99233 0.60526 0.0
C420 C 0.69118 0.96737 0.64671 0.0
C421 C 0.72932 0.01623 0.65208 0.0
C422 C 0.69259 0.92462 0.65367 0.0
C423 C 0.65569 0.87211 0.64775 0.0
C424 C 0.65029 0.8585 0.62902 0.0
C425 C 0.61532 0.80895 0.62354 0.0
C426 C 0.58581 0.77257 0.63668 0.0
C427 C 0.59133 0.78563 0.65534 0.0
C428 C 0.62622 0.83515 0.66089 0.0
H429 H 0.55876 0.73422 0.6324 0.0
H430 H 0.91998 0.21452 0.67593 0.0
H431 H 0.84322 0.90214 0.04326 0.0
H432 H 0.78499 0.83292 0.02288 0.0
H433 H 0.91049 0.82013 1.00154 0.0
H434 H 0.96879 0.88934 0.02171 0.0
H435 H 0.84594 0.81304 0.97418 0.0
H436 H 0.83406 0.73766 0.0333 0.0
H437 H 0.82136 0.72863 0.06692 0.0
H438 H 0.6703 0.70397 0.06035 0.0
H439 H 0.68237 0.7136 0.0267 0.0
H440 H 0.68646 0.5713 0.9311 0.0
H441 H 0.75138 0.63547 0.95164 0.0
H442 H 0.63826 0.66386 0.97573 0.0
H443 H 0.57388 0.60053 0.95541 0.0
H444 H 0.70099 0.66006 1.00174 0.0
H445 H 0.71389 0.73996 0.94317 0.0
H446 H 0.72629 0.75128 0.90958 0.0
H447 H 0.87478 0.76863 0.91505 0.0
H448 H 0.86291 0.75655 0.94866 0.0
C449 C 0.8584 0.88484 0.03411 0.0
C450 C 0.91049 0.90098 0.03415 0.0
C451 C 0.82511 0.84517 0.02254 0.0
C452 C 0.84336 0.82094 0.01086 0.0
C453 C 0.89558 0.83818 0.01046 0.0
C454 C 0.9288 0.87766 0.02204 0.0
C455 C 0.80791 0.77678 0.9994 0.0
C456 C 0.81469 0.77925 0.98022 0.0
C457 C 0.7668 0.73297 0.00727 0.0
C458 C 0.7593 0.72681 0.02749 0.0
C459 C 0.79827 0.73069 0.03903 0.0
C460 C 0.79116 0.72541 0.05809 0.0
C461 C 0.74509 0.71585 0.06577 0.0
C462 C 0.70598 0.71143 0.05439 0.0
C463 C 0.71292 0.71675 0.03532 0.0
C464 C 0.67546 0.59071 0.941 0.0
C465 C 0.62524 0.58115 0.9416 0.0
C466 C 0.71254 0.62753 0.95261 0.0
C467 C 0.69965 0.65476 0.96506 0.0
C468 C 0.64906 0.64341 0.96621 0.0
C469 C 0.61234 0.60727 0.95454 0.0
C470 C 0.73866 0.69653 0.97652 0.0
C471 C 0.73256 0.69362 0.99571 0.0
C472 C 0.78026 0.73994 0.96864 0.0
C473 C 0.78723 0.74665 0.94841 0.0
C474 C 0.74896 0.7456 0.93719 0.0
C475 C 0.75594 0.75228 0.91815 0.0
C476 C 0.80124 0.76052 0.91018 0.0
C477 C 0.83966 0.76213 0.92124 0.0
C478 C 0.83282 0.75535 0.94028 0.0
H479 H 0.80663 0.76584 0.89544 0.0
H480 H 0.73966 0.71177 0.08053 0.0
H481 H 0.94393 0.83637 0.37786 0.0
H482 H 0.95692 0.77814 0.35822 0.0
H483 H 0.09522 0.90422 0.33728 0.0
H484 H 0.0823 0.96247 0.35669 0.0
H485 H 0.03989 0.8395 0.30992 0.0
H486 H 0.10074 0.82828 0.36959 0.0
H487 H 0.096 0.81585 0.40323 0.0
H488 H 0.97088 0.66416 0.39637 0.0
H489 H 0.97438 0.67595 0.36268 0.0
H490 H 0.12467 0.68186 0.26789 0.0
H491 H 0.12511 0.74572 0.28888 0.0
H492 H 0.98136 0.63233 0.31128 0.0
H493 H 0.98056 0.56897 0.29046 0.0
H494 H 0.04718 0.6948 0.33819 0.0
H495 H 0.98251 0.70829 0.27895 0.0
H496 H 0.98612 0.72046 0.24531 0.0
H497 H 0.11833 0.86797 0.25145 0.0
H498 H 0.11594 0.85631 0.28515 0.0
C499 C 0.97685 0.85165 0.36896 0.0
C500 C 0.01217 0.90392 0.36886 0.0
C501 C 0.9844 0.81837 0.35782 0.0
C502 C 0.02743 0.83681 0.34646 0.0
C503 C 0.06186 0.88916 0.34596 0.0
C504 C 0.05444 0.92236 0.3571 0.0
C505 C 0.03702 0.80151 0.33529 0.0
C506 C 0.04228 0.80834 0.31614 0.0
C507 C 0.03958 0.76051 0.34337 0.0
C508 C 0.03753 0.75318 0.36362 0.0
C509 C 0.07196 0.7924 0.37526 0.0
C510 C 0.06954 0.78545 0.39434 0.0
C511 C 0.03309 0.73929 0.40194 0.0
C512 C 0.99906 0.69993 0.39047 0.0
C513 C 1.00127 0.70671 0.37138 0.0
C514 C 0.09372 0.67052 0.27753 0.0
C515 C 0.05243 0.62061 0.27746 0.0
C516 C 0.09384 0.70699 0.28942 0.0
C517 C 0.05297 0.69377 0.3015 0.0
C518 C 0.0132 0.64334 0.30208 0.0
C519 C 0.01274 0.60724 0.29011 0.0
C520 C 0.04955 0.73255 0.31284 0.0
C521 C 0.04537 0.72633 0.33202 0.0
C522 C 0.04796 0.77408 0.30479 0.0
C523 C 0.04944 0.78116 0.28454 0.0
C524 C 0.01264 0.74312 0.27312 0.0
C525 C 0.0144 0.74995 0.25404 0.0
C526 C 0.05253 0.79489 0.24624 0.0
C527 C 0.08889 0.83313 0.25751 0.0
C528 C 0.08735 0.82643 0.2766 0.0
H529 H 0.0538 0.80014 0.23147 0.0
H530 H 0.03127 0.73398 0.41671 0.0
H531 H 0.12762 0.08184 0.69131 0.0
H532 H 0.19895 0.09462 0.67217 0.0
H533 H 0.18303 0.95364 0.6919 0.0
H534 H 0.11175 0.94094 0.71138 0.0
H535 H 0.28087 0.02839 0.69253 0.0
H536 H 0.14458 0.96309 0.6486 0.0
H537 H 0.07232 0.95914 0.63169 0.0
H538 H 0.16907 0.10948 0.61081 0.0
H539 H 0.24181 0.11461 0.62782 0.0
H540 H 0.41477 0.97698 0.62468 0.0
H541 H 0.35386 0.97951 0.64575 0.0
H542 H 0.39014 0.12639 0.62468 0.0
H543 H 0.45185 0.1241 0.60335 0.0
H544 H 0.28643 0.05707 0.62511 0.0
H545 H 0.42469 0.11866 0.66747 0.0
H546 H 0.49635 0.12002 0.68389 0.0
H547 H 0.3953 0.9741 0.70734 0.0
H548 H 0.32309 0.9715 0.69085 0.0
C549 C 0.13898 0.05329 0.69149 0.0
C550 C 0.11394 0.01025 0.70282 0.0
C551 C 0.17975 0.06063 0.68049 0.0
C552 C 0.19615 0.02492 0.68047 0.0
C553 C 0.17101 0.9817 0.69169 0.0
C554 C 0.13014 0.97433 0.70273 0.0
C555 C 0.24022 0.03333 0.66905 0.0
C556 C 0.28184 0.03409 0.67776 0.0
C557 C 0.24221 0.0424 0.64986 0.0
C558 C 0.19851 0.03945 0.63965 0.0
C559 C 0.15035 0.99549 0.64053 0.0
C560 C 0.10933 0.993 0.63091 0.0
C561 C 0.11606 0.03409 0.62023 0.0
C562 C 0.16389 0.07771 0.61912 0.0
C563 C 0.20503 0.08042 0.62874 0.0
C564 C 0.41045 0.01026 0.62468 0.0
C565 C 0.43802 0.05033 0.61232 0.0
C566 C 0.37571 0.01171 0.63681 0.0
C567 C 0.36759 0.0532 0.63686 0.0
C568 C 0.396 0.09406 0.62489 0.0
C569 C 0.4314 0.09288 0.61281 0.0
C570 C 0.32679 0.05156 0.64856 0.0
C571 C 0.2857 0.05196 0.63992 0.0
C572 C 0.32518 0.04328 0.66779 0.0
C573 C 0.3685 0.04474 0.6778 0.0
C574 C 0.41778 0.08667 0.67601 0.0
C575 C 0.45851 0.0877 0.68536 0.0
C576 C 0.4504 0.04713 0.69663 0.0
C577 C 0.40152 0.00549 0.6986 0.0
C578 C 0.36067 0.00425 0.68928 0.0
H579 H 0.48198 0.048 0.70385 0.0
H580 H 0.08426 0.03208 0.61278 0.0
H581 H 0.06318 0.14529 0.03039 0.0
H582 H 0.1237 0.21495 0.01119 0.0
H583 H 0.23639 0.17136 0.02169 0.0
H584 H 0.17599 0.10191 0.04143 0.0
H585 H 0.2774 0.27162 0.0243 0.0
H586 H 0.17189 0.14482 0.98022 0.0
H587 H 0.09143 0.08234 0.96548 0.0
H588 H 0.05729 0.20033 0.95352 0.0
H589 H 0.13726 0.26345 0.96842 0.0
H590 H 0.44442 0.40043 0.95085 0.0
H591 H 0.38354 0.33879 0.97231 0.0
H592 H 0.2824 0.39746 0.96281 0.0
H593 H 0.34354 0.45969 0.94101 0.0
H594 H 0.23436 0.29292 0.96022 0.0
H595 H 0.34401 0.42059 1.00314 0.0
H596 H 0.42605 0.48186 0.01722 0.0
H597 H 0.45407 0.36055 0.03065 0.0
H598 H 0.37251 0.29859 0.01641 0.0
C599 C 0.10077 0.15031 0.02857 0.0
C600 C 0.11477 0.11792 0.03734 0.0
C601 C 0.1353 0.19012 0.01752 0.0
C602 C 0.18439 0.19802 0.01476 0.0
C603 C 0.19865 0.1659 0.02359 0.0
C604 C 0.16411 0.12615 0.03479 0.0
C605 C 0.22087 0.24022 1.00285 0.0
C606 C 0.26822 0.2759 0.01021 0.0
C607 C 0.2084 0.24664 0.98461 0.0
C608 C 0.16033 0.20877 0.97561 0.0
C609 C 0.14704 0.15738 0.97458 0.0
C610 C 0.10155 0.12186 0.96617 0.0
C611 C 0.0692 0.13733 0.95861 0.0
C612 C 0.08235 0.18839 0.95941 0.0
C613 C 0.12777 0.22406 0.96782 0.0
C614 C 0.40945 0.40068 0.95339 0.0
C615 C 0.39879 0.43498 0.94418 0.0
C616 C 0.37477 0.36549 0.96577 0.0
C617 C 0.32863 0.36378 0.96928 0.0
C618 C 0.31794 0.39832 0.96032 0.0
C619 C 0.35293 0.43394 0.94795 0.0
C620 C 0.29088 0.32408 0.98165 0.0
C621 C 0.24333 0.28881 0.97436 0.0
C622 C 0.30332 0.31784 0.99989 0.0
C623 C 0.35228 0.35498 0.00858 0.0
C624 C 0.36783 0.407 0.00898 0.0
C625 C 0.41422 0.44186 0.01701 0.0
C626 C 0.4453 0.42512 0.02479 0.0
C627 C 0.42997 0.37347 0.0246 0.0
C628 C 0.38363 0.33845 0.01658 0.0
H629 H 0.48121 0.45217 0.031 0.0
H630 H 0.03401 0.10977 0.95211 0.0
H631 H 0.07038 0.1711 0.37655 0.0
H632 H 0.06019 0.23135 0.35716 0.0
H633 H 0.9099 0.113 0.34175 0.0
H634 H 0.92024 0.05261 0.36071 0.0
H635 H 0.95826 0.16716 0.31255 0.0
H636 H 0.92827 0.20399 0.37397 0.0
H637 H 0.94773 0.22518 0.40687 0.0
H638 H 0.08136 0.36506 0.39248 0.0
H639 H 0.06308 0.34436 0.35948 0.0
H640 H 0.88806 0.33746 0.27186 0.0
H641 H 0.88704 0.27435 0.29326 0.0
H642 H 0.04187 0.37985 0.30881 0.0
H643 H 0.04314 0.44258 0.28772 0.0
H644 H 0.9845 0.3296 0.33855 0.0
H645 H 0.01723 0.2898 0.27739 0.0
H646 H 0.99828 0.26866 0.24445 0.0
H647 H 0.85888 0.13413 0.25858 0.0
H648 H 0.87671 0.15489 0.29161 0.0
C649 C 0.03532 0.15795 0.36895 0.0
C650 C 0.9961 0.10719 0.37019 0.0
C651 C 0.02938 0.19244 0.35796 0.0
C652 C 0.98393 0.17686 0.3482 0.0
C653 C 0.94522 0.12594 0.34917 0.0
C654 C 0.9512 0.09148 0.36005 0.0
C655 C 0.97652 0.2135 0.33698 0.0
C656 C 0.96323 0.2023 0.31833 0.0
C657 C 0.98361 0.2597 0.34442 0.0
C658 C 0.99453 0.2724 0.36425 0.0
C659 C 0.962 0.2391 0.37782 0.0
C660 C 0.97279 0.25105 0.39649 0.0
C661 C 0.01581 0.29638 0.40176 0.0
C662 C 0.04807 0.32993 0.38837 0.0
C663 C 0.03749 0.31813 0.36969 0.0
C664 C 0.92154 0.34732 0.28005 0.0
C665 C 0.96578 0.3948 0.27799 0.0
C666 C 0.92102 0.31122 0.29218 0.0
C667 C 0.96461 0.32229 0.30247 0.0
C668 C 0.00787 0.37046 0.301 0.0
C669 C 0.00856 0.40621 0.28885 0.0
C670 C 0.96665 0.28335 0.31415 0.0
C671 C 0.97901 0.29417 0.33287 0.0
C672 C 0.95867 0.2368 0.30678 0.0
C673 C 0.948 0.22421 0.28695 0.0
C674 C 0.98234 0.25594 0.27346 0.0
C675 C 0.97184 0.24399 0.25478 0.0
C676 C 0.92733 0.20016 0.24943 0.0
C677 C 0.89329 0.16812 0.26275 0.0
C678 C 0.90358 0.17995 0.28145 0.0
H679 H 0.91928 0.19096 0.23496 0.0
H680 H 0.0241 0.30557 0.41622 0.0
loop_
_geom_bond_atom_site_label_1
_geom_bond_atom_site_label_2
_geom_bond_distance
_geom_bond_site_symmetry_2
_ccdc_geom_bond_type
In0 O1 2.294 1_455 S
In0 O2 2.326 . S
In0 O6 2.266 1_445 S
In0 O7 2.326 1_445 S
In0 O8 2.266 1_545 S
In0 O9 2.326 1_445 S
In0 O11 2.294 . S
In0 O12 2.326 . S
O1 In0 2.294 1_655 S
O1 C10 1.240 1_655 S
O2 In0 2.326 . S
O2 C10 1.252 . S
C3 O6 1.252 . S
C3 O7 1.260 . S
C4 O11 1.240 . S
C4 O12 1.252 . S
C5 O8 1.250 1_655 S
C5 O9 1.263 . S
O6 In0 2.266 1_665 S
O6 C3 1.252 . S
O7 In0 2.326 1_665 S
O7 C3 1.260 . S
O8 In0 2.266 1_565 S
O8 C5 1.250 1_455 S
O9 In0 2.326 1_665 S
O9 C5 1.263 . S
C10 O1 1.240 1_455 S
C10 O2 1.252 . S
O11 In0 2.294 . S
O11 C4 1.240 . S
O12 In0 2.326 . S
O12 C4 1.252 . S
In13 O14 2.294 . S
In13 O15 2.326 1_455 S
In13 O19 2.266 . S
In13 O20 2.326 1_545 S
In13 O21 2.266 1_445 S
In13 O22 2.326 1_545 S
In13 O24 2.294 1_445 S
In13 O25 2.326 1_455 S
O14 In13 2.294 . S
O14 C23 1.240 1_455 S
O15 In13 2.326 1_655 S
O15 C23 1.252 . S
C16 O19 1.245 1_565 S
C16 O20 1.263 . S
C17 O24 1.240 1_545 S
C17 O25 1.252 . S
C18 O21 1.252 1_455 S
C18 O22 1.260 . S
O19 In13 2.266 . S
O19 C16 1.245 1_545 S
O20 In13 2.326 1_565 S
O20 C16 1.263 . S
O21 In13 2.266 1_665 S
O21 C18 1.252 1_655 S
O22 In13 2.326 1_565 S
O22 C18 1.260 . S
C23 O14 1.240 1_655 S
C23 O15 1.252 . S
O24 In13 2.294 1_665 S
O24 C17 1.240 1_565 S
O25 In13 2.326 1_655 S
O25 C17 1.252 . S
In26 O27 2.294 1_445 S
In26 O28 2.326 1_445 S
In26 O32 2.266 1_545 S
In26 O33 2.326 . S
In26 O34 2.266 . S
In26 O35 2.326 . S
In26 O37 2.294 1_455 S
In26 O38 2.326 1_445 S
O27 In26 2.294 1_665 S
O27 C36 1.240 . S
O28 In26 2.326 1_665 S
O28 C36 1.252 . S
C29 O32 1.252 1_545 S
C29 O33 1.260 . S
C30 O37 1.240 1_565 S
C30 O38 1.252 . S
C31 O34 1.252 . S
C31 O35 1.260 . S
O32 In26 2.266 1_565 S
O32 C29 1.252 1_565 S
O33 In26 2.326 . S
O33 C29 1.260 . S
O34 In26 2.266 . S
O34 C31 1.252 . S
O35 In26 2.326 . S
O35 C31 1.260 . S
C36 O27 1.240 . S
C36 O28 1.252 . S
O37 In26 2.294 1_655 S
O37 C30 1.240 1_545 S
O38 In26 2.326 1_665 S
O38 C30 1.252 . S
C39 O41 1.247 . S
C39 O43 1.258 1_455 S
C40 O47 1.247 1_455 S
C40 O48 1.258 . S
O41 C39 1.247 . S
O41 Zn42 2.028 . S
Zn42 O41 2.028 . S
Zn42 O46 2.035 . S
Zn42 O48 2.035 . S
Zn42 O49 2.028 . S
O43 C39 1.258 1_655 S
O43 Zn44 2.035 . S
Zn44 O43 2.035 . S
Zn44 O45 2.028 . S
Zn44 O47 2.028 . S
Zn44 O50 2.035 . S
O45 Zn44 2.028 . S
O45 C51 1.247 1_655 S
O46 Zn42 2.035 . S
O46 C51 1.258 . S
O47 C40 1.247 1_655 S
O47 Zn44 2.028 . S
O48 C40 1.258 . S
O48 Zn42 2.035 . S
O49 Zn42 2.028 . S
O49 C52 1.247 . S
O50 Zn44 2.035 . S
O50 C52 1.258 1_655 S
C51 O45 1.247 1_455 S
C51 O46 1.258 . S
C52 O49 1.247 . S
C52 O50 1.258 1_455 S
C53 O55 1.247 1_545 S
C53 O57 1.258 . S
C54 O61 1.247 . S
C54 O62 1.258 1_545 S
O55 C53 1.247 1_565 S
O55 Zn56 2.028 . S
Zn56 O55 2.028 . S
Zn56 O60 2.035 . S
Zn56 O62 2.035 . S
Zn56 O63 2.028 . S
O57 C53 1.258 . S
O57 Zn58 2.035 . S
Zn58 O57 2.035 . S
Zn58 O59 2.028 . S
Zn58 O61 2.028 . S
Zn58 O64 2.035 . S
O59 Zn58 2.028 . S
O59 C65 1.247 . S
O60 Zn56 2.035 . S
O60 C65 1.258 1_565 S
O61 C54 1.247 . S
O61 Zn58 2.028 . S
O62 C54 1.258 1_565 S
O62 Zn56 2.035 . S
O63 Zn56 2.028 . S
O63 C66 1.247 1_565 S
O64 Zn58 2.035 . S
O64 C66 1.258 . S
C65 O59 1.247 . S
C65 O60 1.258 1_545 S
C66 O63 1.247 1_545 S
C66 O64 1.258 . S
C67 O69 1.247 . S
C67 O71 1.258 . S
C68 O75 1.247 . S
C68 O76 1.258 . S
O69 C67 1.247 . S
O69 Zn70 2.028 . S
Zn70 O69 2.028 . S
Zn70 O74 2.035 . S
Zn70 O76 2.035 . S
Zn70 O77 2.028 . S
O71 C67 1.258 . S
O71 Zn72 2.035 . S
Zn72 O71 2.035 . S
Zn72 O73 2.028 . S
Zn72 O75 2.028 . S
Zn72 O78 2.035 . S
O73 Zn72 2.028 . S
O73 C79 1.247 . S
O74 Zn70 2.035 . S
O74 C79 1.258 . S
O75 C68 1.247 . S
O75 Zn72 2.028 . S
O76 C68 1.258 . S
O76 Zn70 2.035 . S
O77 Zn70 2.028 . S
O77 C80 1.247 . S
O78 Zn72 2.035 . S
O78 C80 1.258 . S
C79 O73 1.247 . S
C79 O74 1.258 . S
C80 O77 1.247 . S
C80 O78 1.258 . S
H81 C99 0.951 . S
H82 C101 0.951 . S
H83 C103 0.950 . S
H84 C104 0.950 . S
H85 C106 0.950 . S
H86 C109 0.950 1_655 S
H87 C110 0.950 . S
H88 C112 0.950 . S
H89 C113 0.950 . S
H90 C114 0.951 . S
H91 C116 0.951 . S
H92 C118 0.950 . S
H93 C119 0.950 . S
H94 C121 0.950 . S
H95 C124 0.950 1_455 S
H96 C125 0.950 . S
H97 C127 0.950 . S
H98 C128 0.950 . S
C99 H81 0.951 . S
C99 C100 1.366 . S
C99 C101 1.388 . S
C100 C99 1.366 . S
C100 C104 1.385 1_455 S
C101 H82 0.951 . S
C101 C99 1.388 . S
C101 C102 1.366 . S
C102 C101 1.366 . S
C102 C103 1.414 1_455 S
C102 C105 1.499 . S
C103 H83 0.950 . S
C103 C102 1.414 1_655 S
C103 C104 1.374 . S
C104 H84 0.950 . S
C104 C100 1.385 1_655 S
C104 C103 1.374 . S
C105 C102 1.499 . S
C105 C106 1.373 1_455 S
C105 C107 1.389 . S
C106 H85 0.950 . S
C106 C105 1.373 1_655 S
C106 C122 1.377 . S
C107 C105 1.389 . S
C107 C108 1.524 . S
C107 C121 1.377 . S
C108 C107 1.524 . S
C108 C109 1.397 . S
C108 C113 1.363 . S
C109 H86 0.950 1_455 S
C109 C108 1.397 . S
C109 C110 1.334 . S
C110 H87 0.950 . S
C110 C109 1.334 . S
C110 C111 1.287 . S
C111 C110 1.287 . S
C111 C112 1.524 . S
C111 H130 0.913 . S
C112 H88 0.950 . S
C112 C111 1.524 . S
C112 C113 1.415 . S
C113 H89 0.950 . S
C113 C108 1.363 . S
C113 C112 1.415 . S
C114 H90 0.951 . S
C114 C115 1.366 1_655 S
C114 C116 1.388 . S
C115 C114 1.366 1_455 S
C115 C119 1.385 . S
C116 H91 0.951 . S
C116 C114 1.388 . S
C116 C117 1.366 1_655 S
C117 C116 1.366 1_455 S
C117 C118 1.414 . S
C117 C120 1.499 . S
C118 H92 0.950 . S
C118 C117 1.414 . S
C118 C119 1.374 . S
C119 H93 0.950 . S
C119 C115 1.385 . S
C119 C118 1.374 . S
C120 C117 1.499 . S
C120 C121 1.373 . S
C120 C122 1.389 1_455 S
C121 H94 0.950 . S
C121 C107 1.377 . S
C121 C120 1.373 . S
C122 C106 1.377 . S
C122 C120 1.389 1_655 S
C122 C123 1.524 . S
C123 C122 1.524 . S
C123 C124 1.397 . S
C123 C128 1.363 . S
C124 H95 0.950 1_655 S
C124 C123 1.397 . S
C124 C125 1.334 . S
C125 H96 0.950 . S
C125 C124 1.334 . S
C125 C126 1.287 . S
C126 C125 1.287 . S
C126 C127 1.524 . S
C126 H129 0.999 . S
C127 H97 0.950 . S
C127 C126 1.524 . S
C127 C128 1.415 . S
C128 H98 0.950 . S
C128 C123 1.363 . S
C128 C127 1.415 . S
H129 C126 0.999 . S
H130 C111 0.913 . S
H131 C149 0.951 . S
H132 C151 0.951 . S
H133 C153 0.950 . S
H134 C154 0.950 . S
H135 C156 0.950 . S
H136 C159 0.950 . S
H137 C160 0.958 . S
H138 C162 0.950 . S
H139 C163 0.950 . S
H140 C164 0.951 . S
H141 C166 0.951 . S
H142 C168 0.950 . S
H143 C169 0.950 . S
H144 C171 0.950 . S
H145 C174 0.950 . S
H146 C175 0.950 . S
H147 C177 0.950 . S
H148 C178 0.950 . S
C149 H131 0.951 . S
C149 C150 1.366 . S
C149 C151 1.388 . S
C150 C149 1.366 . S
C150 C154 1.385 1_545 S
C151 H132 0.951 . S
C151 C149 1.388 . S
C151 C152 1.366 . S
C152 C151 1.366 . S
C152 C153 1.414 1_545 S
C152 C155 1.499 . S
C153 H133 0.950 . S
C153 C152 1.414 1_565 S
C153 C154 1.374 . S
C154 H134 0.950 . S
C154 C150 1.385 1_565 S
C154 C153 1.374 . S
C155 C152 1.499 . S
C155 C156 1.373 1_545 S
C155 C157 1.389 . S
C156 H135 0.950 . S
C156 C155 1.373 1_565 S
C156 C172 1.377 . S
C157 C155 1.389 . S
C157 C158 1.524 . S
C157 C171 1.377 . S
C158 C157 1.524 . S
C158 C159 1.397 1_545 S
C158 C163 1.363 . S
C159 H136 0.950 . S
C159 C158 1.397 1_565 S
C159 C160 1.331 . S
C160 H137 0.958 . S
C160 C159 1.331 . S
C160 C161 1.282 1_565 S
C161 C160 1.282 1_545 S
C161 C162 1.524 . S
C161 H180 0.913 . S
C162 H138 0.950 . S
C162 C161 1.524 . S
C162 C163 1.415 . S
C163 H139 0.950 . S
C163 C158 1.363 . S
C163 C162 1.415 . S
C164 H140 0.951 . S
C164 C165 1.366 1_565 S
C164 C166 1.388 . S
C165 C164 1.366 1_545 S
C165 C169 1.385 . S
C166 H141 0.951 . S
C166 C164 1.388 . S
C166 C167 1.366 1_565 S
C167 C166 1.366 1_545 S
C167 C168 1.414 . S
C167 C170 1.499 . S
C168 H142 0.950 . S
C168 C167 1.414 . S
C168 C169 1.374 . S
C169 H143 0.950 . S
C169 C165 1.385 . S
C169 C168 1.374 . S
C170 C167 1.499 . S
C170 C171 1.373 . S
C170 C172 1.389 1_545 S
C171 H144 0.950 . S
C171 C157 1.377 . S
C171 C170 1.373 . S
C172 C156 1.377 . S
C172 C170 1.389 1_565 S
C172 C173 1.524 . S
C173 C172 1.524 . S
C173 C174 1.397 1_565 S
C173 C178 1.363 . S
C174 H145 0.950 . S
C174 C173 1.397 1_545 S
C174 C175 1.334 . S
C175 H146 0.950 . S
C175 C174 1.334 . S
C175 C176 1.287 1_545 S
C176 C175 1.287 1_565 S
C176 C177 1.524 . S
C176 H179 0.999 . S
C177 H147 0.950 . S
C177 C176 1.524 . S
C177 C178 1.415 . S
C178 H148 0.950 . S
C178 C173 1.363 . S
C178 C177 1.415 . S
H179 C176 0.999 . S
H180 C161 0.913 . S
H181 C199 0.951 . S
H182 C201 0.951 . S
H183 C203 0.950 . S
H184 C204 0.950 . S
H185 C206 0.950 . S
H186 C209 0.950 . S
H187 C210 0.950 . S
H188 C212 0.950 . S
H189 C213 0.950 . S
H190 C214 0.951 . S
H191 C216 0.951 . S
H192 C218 0.950 . S
H193 C219 0.950 . S
H194 C221 0.950 . S
H195 C224 0.950 . S
H196 C225 0.950 . S
H197 C227 0.950 . S
H198 C228 0.950 . S
C199 H181 0.951 . S
C199 C200 1.366 . S
C199 C201 1.388 . S
C200 C199 1.366 . S
C200 C204 1.385 . S
C201 H182 0.951 . S
C201 C199 1.388 . S
C201 C202 1.366 . S
C202 C201 1.366 . S
C202 C203 1.414 . S
C202 C205 1.499 . S
C203 H183 0.950 . S
C203 C202 1.414 . S
C203 C204 1.374 . S
C204 H184 0.950 . S
C204 C200 1.385 . S
C204 C203 1.374 . S
C205 C202 1.499 . S
C205 C206 1.373 . S
C205 C207 1.389 . S
C206 H185 0.950 . S
C206 C205 1.373 . S
C206 C222 1.377 . S
C207 C205 1.389 . S
C207 C208 1.524 . S
C207 C221 1.377 . S
C208 C207 1.524 . S
C208 C209 1.397 . S
C208 C213 1.363 . S
C209 H186 0.950 . S
C209 C208 1.397 . S
C209 C210 1.334 . S
C210 H187 0.950 . S
C210 C209 1.334 . S
C210 C211 1.287 . S
C211 C210 1.287 . S
C211 C212 1.524 . S
C211 H230 0.913 . S
C212 H188 0.950 . S
C212 C211 1.524 . S
C212 C213 1.415 . S
C213 H189 0.950 . S
C213 C208 1.363 . S
C213 C212 1.415 . S
C214 H190 0.951 . S
C214 C215 1.366 . S
C214 C216 1.388 . S
C215 C214 1.366 . S
C215 C219 1.385 . S
C216 H191 0.951 . S
C216 C214 1.388 . S
C216 C217 1.366 . S
C217 C216 1.366 . S
C217 C218 1.414 . S
C217 C220 1.499 . S
C218 H192 0.950 . S
C218 C217 1.414 . S
C218 C219 1.374 . S
C219 H193 0.950 . S
C219 C215 1.385 . S
C219 C218 1.374 . S
C220 C217 1.499 . S
C220 C221 1.373 . S
C220 C222 1.389 . S
C221 H194 0.950 . S
C221 C207 1.377 . S
C221 C220 1.373 . S
C222 C206 1.377 . S
C222 C220 1.389 . S
C222 C223 1.524 . S
C223 C222 1.524 . S
C223 C224 1.397 . S
C223 C228 1.363 . S
C224 H195 0.950 . S
C224 C223 1.397 . S
C224 C225 1.334 . S
C225 H196 0.950 . S
C225 C224 1.334 . S
C225 C226 1.287 . S
C226 C225 1.287 . S
C226 C227 1.524 . S
C226 H229 0.999 . S
C227 H197 0.950 . S
C227 C226 1.524 . S
C227 C228 1.415 . S
C228 H198 0.950 . S
C228 C223 1.363 . S
C228 C227 1.415 . S
H229 C226 0.999 . S
H230 C211 0.913 . S
H231 C249 0.951 . S
H232 C251 0.951 . S
H233 C253 0.950 . S
H234 C254 0.950 . S
H235 C256 0.950 . S
H236 C259 0.950 . S
H237 C260 0.950 . S
H238 C262 0.950 1_655 S
H239 C263 0.950 . S
H240 C264 0.951 . S
H241 C266 0.951 . S
H242 C268 0.950 . S
H243 C269 0.950 . S
H244 C271 0.950 . S
H245 C274 0.950 . S
H246 C275 0.950 . S
H247 C277 0.950 1_455 S
H248 C278 0.950 . S
C249 H231 0.951 . S
C249 C250 1.365 1_655 S
C249 C251 1.388 . S
C250 C249 1.365 1_455 S
C250 C254 1.385 . S
C251 H232 0.951 . S
C251 C249 1.388 . S
C251 C252 1.366 1_655 S
C252 C251 1.366 1_455 S
C252 C253 1.414 . S
C252 C255 1.499 . S
C253 H233 0.950 . S
C253 C252 1.414 . S
C253 C254 1.374 . S
C254 H234 0.950 . S
C254 C250 1.385 . S
C254 C253 1.374 . S
C255 C252 1.499 . S
C255 C256 1.373 1_455 S
C255 C257 1.389 . S
C256 H235 0.950 . S
C256 C255 1.373 1_655 S
C256 C272 1.377 . S
C257 C255 1.389 . S
C257 C258 1.524 . S
C257 C271 1.377 . S
C258 C257 1.524 . S
C258 C259 1.397 . S
C258 C263 1.363 1_455 S
C259 H236 0.950 . S
C259 C258 1.397 . S
C259 C260 1.334 . S
C260 H237 0.950 . S
C260 C259 1.334 . S
C260 C261 1.287 . S
C261 C260 1.287 . S
C261 C262 1.524 . S
C261 H280 0.913 . S
C262 H238 0.950 1_455 S
C262 C261 1.524 . S
C262 C263 1.415 1_455 S
C263 H239 0.950 . S
C263 C258 1.363 1_655 S
C263 C262 1.415 1_655 S
C264 H240 0.951 . S
C264 C265 1.366 . S
C264 C266 1.388 . S
C265 C264 1.366 . S
C265 C269 1.385 1_455 S
C266 H241 0.951 . S
C266 C264 1.388 . S
C266 C267 1.373 . S
C267 C266 1.373 . S
C267 C268 1.410 1_455 S
C267 C270 1.495 1_455 S
C268 H242 0.950 . S
C268 C267 1.410 1_655 S
C268 C269 1.374 . S
C269 H243 0.950 . S
C269 C265 1.385 1_655 S
C269 C268 1.374 . S
C270 C267 1.495 1_655 S
C270 C271 1.373 1_655 S
C270 C272 1.389 . S
C271 H244 0.950 . S
C271 C257 1.377 . S
C271 C270 1.373 1_455 S
C272 C256 1.377 . S
C272 C270 1.389 . S
C272 C273 1.524 . S
C273 C272 1.524 . S
C273 C274 1.397 . S
C273 C278 1.363 1_655 S
C274 H245 0.950 . S
C274 C273 1.397 . S
C274 C275 1.334 . S
C275 H246 0.950 . S
C275 C274 1.334 . S
C275 C276 1.287 . S
C276 C275 1.287 . S
C276 C277 1.524 . S
C276 H279 0.999 . S
C277 H247 0.950 1_655 S
C277 C276 1.524 . S
C277 C278 1.415 1_655 S
C278 H248 0.950 . S
C278 C273 1.363 1_455 S
C278 C277 1.415 1_455 S
H279 C276 0.999 . S
H280 C261 0.913 . S
H281 C299 0.951 . S
H282 C301 0.951 . S
H283 C303 0.950 . S
H284 C304 0.950 . S
H285 C306 0.950 . S
H286 C309 0.950 . S
H287 C310 0.950 . S
H288 C312 0.950 . S
H289 C313 0.950 . S
H290 C314 0.951 . S
H291 C316 0.951 . S
H292 C318 0.950 . S
H293 C319 0.950 . S
H294 C321 0.950 . S
H295 C324 0.950 . S
H296 C325 0.950 . S
H297 C327 0.950 . S
H298 C328 0.950 . S
C299 H281 0.951 . S
C299 C300 1.366 . S
C299 C301 1.388 . S
C300 C299 1.366 . S
C300 C304 1.385 1_565 S
C301 H282 0.951 . S
C301 C299 1.388 . S
C301 C302 1.366 1_565 S
C302 C301 1.366 1_545 S
C302 C303 1.414 . S
C302 C305 1.499 . S
C303 H283 0.950 . S
C303 C302 1.414 . S
C303 C304 1.374 . S
C304 H284 0.950 . S
C304 C300 1.385 1_545 S
C304 C303 1.374 . S
C305 C302 1.499 . S
C305 C306 1.373 1_545 S
C305 C307 1.389 . S
C306 H285 0.950 . S
C306 C305 1.373 1_565 S
C306 C322 1.377 . S
C307 C305 1.389 . S
C307 C308 1.524 . S
C307 C321 1.377 . S
C308 C307 1.524 . S
C308 C309 1.397 . S
C308 C313 1.363 . S
C309 H286 0.950 . S
C309 C308 1.397 . S
C309 C310 1.334 . S
C310 H287 0.950 . S
C310 C309 1.334 . S
C310 C311 1.287 . S
C311 C310 1.287 . S
C311 C312 1.524 . S
C311 H330 0.913 . S
C312 H288 0.950 . S
C312 C311 1.524 . S
C312 C313 1.415 . S
C313 H289 0.950 . S
C313 C308 1.363 . S
C313 C312 1.415 . S
C314 H290 0.951 . S
C314 C315 1.366 . S
C314 C316 1.388 . S
C315 C314 1.366 . S
C315 C319 1.385 1_545 S
C316 H291 0.951 . S
C316 C314 1.388 . S
C316 C317 1.369 1_545 S
C317 C316 1.369 1_565 S
C317 C318 1.414 . S
C317 C320 1.495 . S
C318 H292 0.950 . S
C318 C317 1.414 . S
C318 C319 1.374 . S
C319 H293 0.950 . S
C319 C315 1.385 1_565 S
C319 C318 1.374 . S
C320 C317 1.495 . S
C320 C321 1.373 1_565 S
C320 C322 1.389 . S
C321 H294 0.950 . S
C321 C307 1.377 . S
C321 C320 1.373 1_545 S
C322 C306 1.377 . S
C322 C320 1.389 . S
C322 C323 1.524 . S
C323 C322 1.524 . S
C323 C324 1.397 . S
C323 C328 1.363 . S
C324 H295 0.950 . S
C324 C323 1.397 . S
C324 C325 1.334 . S
C325 H296 0.950 . S
C325 C324 1.334 . S
C325 C326 1.287 . S
C326 C325 1.287 . S
C326 C327 1.524 . S
C326 H329 0.999 . S
C327 H297 0.950 . S
C327 C326 1.524 . S
C327 C328 1.415 . S
C328 H298 0.950 . S
C328 C323 1.363 . S
C328 C327 1.415 . S
H329 C326 0.999 . S
H330 C311 0.913 . S
H331 C349 0.951 . S
H332 C351 0.951 . S
H333 C353 0.950 . S
H334 C354 0.950 . S
H335 C356 0.950 . S
H336 C359 0.950 . S
H337 C360 0.950 . S
H338 C362 0.950 . S
H339 C363 0.950 . S
H340 C364 0.951 . S
H341 C366 0.951 . S
H342 C368 0.950 . S
H343 C369 0.950 . S
H344 C371 0.950 . S
H345 C374 0.950 . S
H346 C375 0.950 . S
H347 C377 0.950 . S
H348 C378 0.950 . S
C349 H331 0.951 . S
C349 C350 1.366 . S
C349 C351 1.388 . S
C350 C349 1.366 . S
C350 C354 1.385 . S
C351 H332 0.951 . S
C351 C349 1.388 . S
C351 C352 1.366 . S
C352 C351 1.366 . S
C352 C353 1.414 . S
C352 C355 1.499 . S
C353 H333 0.950 . S
C353 C352 1.414 . S
C353 C354 1.374 . S
C354 H334 0.950 . S
C354 C350 1.385 . S
C354 C353 1.374 . S
C355 C352 1.499 . S
C355 C356 1.373 . S
C355 C357 1.389 . S
C356 H335 0.950 . S
C356 C355 1.373 . S
C356 C372 1.377 . S
C357 C355 1.389 . S
C357 C358 1.524 . S
C357 C371 1.377 . S
C358 C357 1.524 . S
C358 C359 1.397 . S
C358 C363 1.363 . S
C359 H336 0.950 . S
C359 C358 1.397 . S
C359 C360 1.334 . S
C360 H337 0.950 . S
C360 C359 1.334 . S
C360 C361 1.287 . S
C361 C360 1.287 . S
C361 C362 1.524 . S
C361 H380 0.913 . S
C362 H338 0.950 . S
C362 C361 1.524 . S
C362 C363 1.415 . S
C363 H339 0.950 . S
C363 C358 1.363 . S
C363 C362 1.415 . S
C364 H340 0.951 . S
C364 C365 1.366 . S
C364 C366 1.388 . S
C365 C364 1.366 . S
C365 C369 1.385 . S
C366 H341 0.951 . S
C366 C364 1.388 . S
C366 C367 1.366 . S
C367 C366 1.366 . S
C367 C368 1.414 . S
C367 C370 1.499 . S
C368 H342 0.950 . S
C368 C367 1.414 . S
C368 C369 1.374 . S
C369 H343 0.950 . S
C369 C365 1.385 . S
C369 C368 1.374 . S
C370 C367 1.499 . S
C370 C371 1.373 . S
C370 C372 1.389 . S
C371 H344 0.950 . S
C371 C357 1.377 . S
C371 C370 1.373 . S
C372 C356 1.377 . S
C372 C370 1.389 . S
C372 C373 1.524 . S
C373 C372 1.524 . S
C373 C374 1.397 . S
C373 C378 1.363 . S
C374 H345 0.950 . S
C374 C373 1.397 . S
C374 C375 1.334 . S
C375 H346 0.950 . S
C375 C374 1.334 . S
C375 C376 1.287 . S
C376 C375 1.287 . S
C376 C377 1.524 . S
C376 H379 0.999 . S
C377 H347 0.950 . S
C377 C376 1.524 . S
C377 C378 1.415 . S
C378 H348 0.950 . S
C378 C373 1.363 . S
C378 C377 1.415 . S
H379 C376 0.999 . S
H380 C361 0.913 . S
H381 C399 0.951 . S
H382 C401 0.951 . S
H383 C403 0.950 . S
H384 C404 0.950 . S
H385 C406 0.950 . S
H386 C409 0.950 . S
H387 C410 0.950 . S
H388 C412 0.950 . S
H389 C413 0.950 . S
H390 C414 0.951 . S
H391 C416 0.951 . S
H392 C418 0.950 . S
H393 C419 0.950 . S
H394 C421 0.950 . S
H395 C424 0.950 . S
H396 C425 0.950 . S
H397 C427 0.950 . S
H398 C428 0.950 . S
C399 H381 0.951 . S
C399 C400 1.366 1_545 S
C399 C401 1.388 . S
C400 C399 1.366 1_565 S
C400 C404 1.385 . S
C401 H382 0.951 . S
C401 C399 1.388 . S
C401 C402 1.358 . S
C402 C401 1.358 . S
C402 C403 1.411 1_545 S
C402 C405 1.509 . S
C403 H383 0.950 . S
C403 C402 1.411 1_565 S
C403 C404 1.374 . S
C404 H384 0.950 . S
C404 C400 1.385 . S
C404 C403 1.374 . S
C405 C402 1.509 . S
C405 C406 1.373 1_545 S
C405 C407 1.389 . S
C406 H385 0.950 . S
C406 C405 1.373 1_565 S
C406 C422 1.377 . S
C407 C405 1.389 . S
C407 C408 1.524 . S
C407 C421 1.377 . S
C408 C407 1.524 . S
C408 C409 1.397 . S
C408 C413 1.363 . S
C409 H386 0.950 . S
C409 C408 1.397 . S
C409 C410 1.334 . S
C410 H387 0.950 . S
C410 C409 1.334 . S
C410 C411 1.287 . S
C411 C410 1.287 . S
C411 C412 1.524 . S
C411 H430 0.913 . S
C412 H388 0.950 . S
C412 C411 1.524 . S
C412 C413 1.415 . S
C413 H389 0.950 . S
C413 C408 1.363 . S
C413 C412 1.415 . S
C414 H390 0.951 . S
C414 C415 1.366 1_565 S
C414 C416 1.388 . S
C415 C414 1.366 1_545 S
C415 C419 1.385 . S
C416 H391 0.951 . S
C416 C414 1.388 . S
C416 C417 1.366 . S
C417 C416 1.366 . S
C417 C418 1.414 1_565 S
C417 C420 1.499 . S
C418 H392 0.950 . S
C418 C417 1.414 1_545 S
C418 C419 1.374 . S
C419 H393 0.950 . S
C419 C415 1.385 . S
C419 C418 1.374 . S
C420 C417 1.499 . S
C420 C421 1.373 1_565 S
C420 C422 1.389 . S
C421 H394 0.950 . S
C421 C407 1.377 . S
C421 C420 1.373 1_545 S
C422 C406 1.377 . S
C422 C420 1.389 . S
C422 C423 1.524 . S
C423 C422 1.524 . S
C423 C424 1.397 . S
C423 C428 1.363 . S
C424 H395 0.950 . S
C424 C423 1.397 . S
C424 C425 1.334 . S
C425 H396 0.950 . S
C425 C424 1.334 . S
C425 C426 1.287 . S
C426 C425 1.287 . S
C426 C427 1.524 . S
C426 H429 0.999 . S
C427 H397 0.950 . S
C427 C426 1.524 . S
C427 C428 1.415 . S
C428 H398 0.950 . S
C428 C423 1.363 . S
C428 C427 1.415 . S
H429 C426 0.999 . S
H430 C411 0.913 . S
H431 C449 0.951 . S
H432 C451 0.951 . S
H433 C453 0.950 . S
H434 C454 0.950 . S
H435 C456 0.950 . S
H436 C459 0.950 . S
H437 C460 0.950 . S
H438 C462 0.950 . S
H439 C463 0.950 . S
H440 C464 0.951 . S
H441 C466 0.951 . S
H442 C468 0.950 . S
H443 C469 0.950 . S
H444 C471 0.950 . S
H445 C474 0.950 . S
H446 C475 0.950 . S
H447 C477 0.950 . S
H448 C478 0.950 . S
C449 H431 0.951 . S
C449 C450 1.366 . S
C449 C451 1.388 . S
C450 C449 1.366 . S
C450 C454 1.385 . S
C451 H432 0.951 . S
C451 C449 1.388 . S
C451 C452 1.366 . S
C452 C451 1.366 . S
C452 C453 1.414 . S
C452 C455 1.463 1_554 S
C453 H433 0.950 . S
C453 C452 1.414 . S
C453 C454 1.374 . S
C454 H434 0.950 . S
C454 C450 1.385 . S
C454 C453 1.374 . S
C455 C452 1.463 1_556 S
C455 C456 1.427 . S
C455 C457 1.376 1_556 S
C456 H435 0.950 . S
C456 C455 1.427 . S
C456 C472 1.377 . S
C457 C455 1.376 1_554 S
C457 C458 1.524 . S
C457 C471 1.377 1_554 S
C458 C457 1.524 . S
C458 C459 1.397 . S
C458 C463 1.363 . S
C459 H436 0.950 . S
C459 C458 1.397 . S
C459 C460 1.334 . S
C460 H437 0.950 . S
C460 C459 1.334 . S
C460 C461 1.287 . S
C461 C460 1.287 . S
C461 C462 1.524 . S
C461 H480 0.913 . S
C462 H438 0.950 . S
C462 C461 1.524 . S
C462 C463 1.415 . S
C463 H439 0.950 . S
C463 C458 1.363 . S
C463 C462 1.415 . S
C464 H440 0.951 . S
C464 C465 1.366 . S
C464 C466 1.388 . S
C465 C464 1.366 . S
C465 C469 1.385 . S
C466 H441 0.951 . S
C466 C464 1.388 . S
C466 C467 1.366 . S
C467 C466 1.366 . S
C467 C468 1.414 . S
C467 C470 1.499 . S
C468 H442 0.950 . S
C468 C467 1.414 . S
C468 C469 1.374 . S
C469 H443 0.950 . S
C469 C465 1.385 . S
C469 C468 1.374 . S
C470 C467 1.499 . S
C470 C471 1.373 . S
C470 C472 1.389 . S
C471 H444 0.950 . S
C471 C457 1.377 1_556 S
C471 C470 1.373 . S
C472 C456 1.377 . S
C472 C470 1.389 . S
C472 C473 1.524 . S
C473 C472 1.524 . S
C473 C474 1.397 . S
C473 C478 1.363 . S
C474 H445 0.950 . S
C474 C473 1.397 . S
C474 C475 1.334 . S
C475 H446 0.950 . S
C475 C474 1.334 . S
C475 C476 1.287 . S
C476 C475 1.287 . S
C476 C477 1.524 . S
C476 H479 0.999 . S
C477 H447 0.950 . S
C477 C476 1.524 . S
C477 C478 1.415 . S
C478 H448 0.950 . S
C478 C473 1.363 . S
C478 C477 1.415 . S
H479 C476 0.999 . S
H480 C461 0.913 . S
H481 C499 0.951 . S
H482 C501 0.951 . S
H483 C503 0.950 . S
H484 C504 0.950 . S
H485 C506 0.950 . S
H486 C509 0.950 . S
H487 C510 0.950 . S
H488 C512 0.950 . S
H489 C513 0.950 1_655 S
H490 C514 0.951 . S
H491 C516 0.951 . S
H492 C518 0.950 . S
H493 C519 0.950 . S
H494 C521 0.950 . S
H495 C524 0.950 . S
H496 C525 0.950 . S
H497 C527 0.950 . S
H498 C528 0.950 1_455 S
C499 H481 0.951 . S
C499 C500 1.366 1_655 S
C499 C501 1.388 . S
C500 C499 1.366 1_455 S
C500 C504 1.385 . S
C501 H482 0.951 . S
C501 C499 1.388 . S
C501 C502 1.366 1_655 S
C502 C501 1.366 1_455 S
C502 C503 1.414 . S
C502 C505 1.499 . S
C503 H483 0.950 . S
C503 C502 1.414 . S
C503 C504 1.374 . S
C504 H484 0.950 . S
C504 C500 1.385 . S
C504 C503 1.374 . S
C505 C502 1.499 . S
C505 C506 1.373 1_455 S
C505 C507 1.389 . S
C506 H485 0.950 . S
C506 C505 1.373 1_655 S
C506 C522 1.377 . S
C507 C505 1.389 . S
C507 C508 1.524 . S
C507 C521 1.377 . S
C508 C507 1.524 . S
C508 C509 1.397 . S
C508 C513 1.363 . S
C509 H486 0.950 . S
C509 C508 1.397 . S
C509 C510 1.334 . S
C510 H487 0.950 . S
C510 C509 1.334 . S
C510 C511 1.287 . S
C511 C510 1.287 . S
C511 C512 1.524 . S
C511 H530 0.913 . S
C512 H488 0.950 . S
C512 C511 1.524 . S
C512 C513 1.415 . S
C513 H489 0.950 1_455 S
C513 C508 1.363 . S
C513 C512 1.415 . S
C514 H490 0.951 . S
C514 C515 1.366 . S
C514 C516 1.388 . S
C515 C514 1.366 . S
C515 C519 1.385 1_455 S
C516 H491 0.951 . S
C516 C514 1.388 . S
C516 C517 1.366 . S
C517 C516 1.366 . S
C517 C518 1.414 1_455 S
C517 C520 1.509 . S
C518 H492 0.950 . S
C518 C517 1.414 1_655 S
C518 C519 1.374 . S
C519 H493 0.950 . S
C519 C515 1.385 1_655 S
C519 C518 1.374 . S
C520 C517 1.509 . S
C520 C521 1.381 . S
C520 C522 1.373 1_455 S
C521 H494 0.950 . S
C521 C507 1.377 . S
C521 C520 1.381 . S
C522 C506 1.377 . S
C522 C520 1.373 1_655 S
C522 C523 1.524 . S
C523 C522 1.524 . S
C523 C524 1.397 . S
C523 C528 1.363 . S
C524 H495 0.950 . S
C524 C523 1.397 . S
C524 C525 1.334 . S
C525 H496 0.950 . S
C525 C524 1.334 . S
C525 C526 1.287 . S
C526 C525 1.287 . S
C526 C527 1.524 . S
C526 H529 0.999 . S
C527 H497 0.950 . S
C527 C526 1.524 . S
C527 C528 1.415 . S
C528 H498 0.950 1_655 S
C528 C523 1.363 . S
C528 C527 1.415 . S
H529 C526 0.999 . S
H530 C511 0.913 . S
H531 C549 0.951 . S
H532 C551 0.951 . S
H533 C553 0.950 . S
H534 C554 0.950 . S
H535 C556 0.950 . S
H536 C559 0.950 . S
H537 C560 0.950 . S
H538 C562 0.950 . S
H539 C563 0.950 . S
H540 C564 0.951 . S
H541 C566 0.951 . S
H542 C568 0.950 . S
H543 C569 0.950 . S
H544 C571 0.950 . S
H545 C574 0.950 . S
H546 C575 0.950 . S
H547 C577 0.950 . S
H548 C578 0.950 . S
C549 H531 0.951 . S
C549 C550 1.366 . S
C549 C551 1.388 . S
C550 C549 1.366 . S
C550 C554 1.385 1_545 S
C551 H532 0.951 . S
C551 C549 1.388 . S
C551 C552 1.366 . S
C552 C551 1.366 . S
C552 C553 1.414 1_545 S
C552 C555 1.499 . S
C553 H533 0.950 . S
C553 C552 1.414 1_565 S
C553 C554 1.374 . S
C554 H534 0.950 . S
C554 C550 1.385 1_565 S
C554 C553 1.374 . S
C555 C552 1.499 . S
C555 C556 1.373 . S
C555 C557 1.389 1_545 S
C556 H535 0.950 . S
C556 C555 1.373 . S
C556 C572 1.377 . S
C557 C555 1.389 1_565 S
C557 C558 1.524 . S
C557 C571 1.377 . S
C558 C557 1.524 . S
C558 C559 1.397 . S
C558 C563 1.363 . S
C559 H536 0.950 . S
C559 C558 1.397 . S
C559 C560 1.334 . S
C560 H537 0.950 . S
C560 C559 1.334 . S
C560 C561 1.287 . S
C561 C560 1.287 . S
C561 C562 1.524 . S
C561 H580 0.913 . S
C562 H538 0.950 . S
C562 C561 1.524 . S
C562 C563 1.415 . S
C563 H539 0.950 . S
C563 C558 1.363 . S
C563 C562 1.415 . S
C564 H540 0.951 . S
C564 C565 1.366 1_565 S
C564 C566 1.388 . S
C565 C564 1.366 1_545 S
C565 C569 1.385 . S
C566 H541 0.951 . S
C566 C564 1.388 . S
C566 C567 1.366 1_565 S
C567 C566 1.366 1_545 S
C567 C568 1.414 . S
C567 C570 1.499 . S
C568 H542 0.950 . S
C568 C567 1.414 . S
C568 C569 1.374 . S
C569 H543 0.950 . S
C569 C565 1.385 . S
C569 C568 1.374 . S
C570 C567 1.499 . S
C570 C571 1.373 1_545 S
C570 C572 1.389 . S
C571 H544 0.950 . S
C571 C557 1.377 . S
C571 C570 1.373 1_565 S
C572 C556 1.377 . S
C572 C570 1.389 . S
C572 C573 1.524 . S
C573 C572 1.524 . S
C573 C574 1.397 . S
C573 C578 1.363 . S
C574 H545 0.950 . S
C574 C573 1.397 . S
C574 C575 1.334 . S
C575 H546 0.950 . S
C575 C574 1.334 . S
C575 C576 1.287 . S
C576 C575 1.287 . S
C576 C577 1.524 . S
C576 H579 0.999 . S
C577 H547 0.950 . S
C577 C576 1.524 . S
C577 C578 1.415 . S
C578 H548 0.950 . S
C578 C573 1.363 . S
C578 C577 1.415 . S
H579 C576 0.999 . S
H580 C561 0.913 . S
H581 C599 0.951 . S
H582 C601 0.951 . S
H583 C603 0.950 . S
H584 C604 0.950 . S
H585 C606 0.950 . S
H586 C609 0.950 . S
H587 C610 0.950 . S
H588 C612 0.950 . S
H589 C613 0.950 . S
H590 C614 0.951 . S
H591 C616 0.951 . S
H592 C618 0.950 . S
H593 C619 0.950 . S
H594 C621 0.950 . S
H595 C624 0.948 . S
H596 C625 0.950 . S
H597 C627 0.950 . S
H598 C628 0.952 . S
C599 H581 0.951 . S
C599 C600 1.366 . S
C599 C601 1.388 . S
C600 C599 1.366 . S
C600 C604 1.385 . S
C601 H582 0.951 . S
C601 C599 1.388 . S
C601 C602 1.366 . S
C602 C601 1.366 . S
C602 C603 1.414 . S
C602 C605 1.499 1_554 S
C603 H583 0.950 . S
C603 C602 1.414 . S
C603 C604 1.374 . S
C604 H584 0.950 . S
C604 C600 1.385 . S
C604 C603 1.374 . S
C605 C602 1.499 1_556 S
C605 C606 1.373 1_556 S
C605 C607 1.389 . S
C606 H585 0.950 . S
C606 C605 1.373 1_554 S
C606 C622 1.377 1_554 S
C607 C605 1.389 . S
C607 C608 1.524 . S
C607 C621 1.377 . S
C608 C607 1.524 . S
C608 C609 1.397 . S
C608 C613 1.363 . S
C609 H586 0.950 . S
C609 C608 1.397 . S
C609 C610 1.334 . S
C610 H587 0.950 . S
C610 C609 1.334 . S
C610 C611 1.287 . S
C611 C610 1.287 . S
C611 C612 1.524 . S
C611 H630 0.913 . S
C612 H588 0.950 . S
C612 C611 1.524 . S
C612 C613 1.415 . S
C613 H589 0.950 . S
C613 C608 1.363 . S
C613 C612 1.415 . S
C614 H590 0.951 . S
C614 C615 1.366 . S
C614 C616 1.388 . S
C615 C614 1.366 . S
C615 C619 1.385 . S
C616 H591 0.951 . S
C616 C614 1.388 . S
C616 C617 1.366 . S
C617 C616 1.366 . S
C617 C618 1.414 . S
C617 C620 1.499 . S
C618 H592 0.950 . S
C618 C617 1.414 . S
C618 C619 1.374 . S
C619 H593 0.950 . S
C619 C615 1.385 . S
C619 C618 1.374 . S
C620 C617 1.499 . S
C620 C621 1.373 . S
C620 C622 1.389 . S
C621 H594 0.950 . S
C621 C607 1.377 . S
C621 C620 1.373 . S
C622 C606 1.377 1_556 S
C622 C620 1.389 . S
C622 C623 1.524 . S
C623 C622 1.524 . S
C623 C624 1.396 . S
C623 C628 1.363 1_556 S
C624 H595 0.948 . S
C624 C623 1.396 . S
C624 C625 1.336 1_556 S
C625 H596 0.950 . S
C625 C624 1.336 1_554 S
C625 C626 1.287 . S
C626 C625 1.287 . S
C626 C627 1.524 . S
C626 H629 0.999 . S
C627 H597 0.950 . S
C627 C626 1.524 . S
C627 C628 1.415 . S
C628 H598 0.952 . S
C628 C623 1.363 1_554 S
C628 C627 1.415 . S
H629 C626 0.999 . S
H630 C611 0.913 . S
H631 C649 0.951 . S
H632 C651 0.951 . S
H633 C653 0.950 . S
H634 C654 0.950 . S
H635 C656 0.950 . S
H636 C659 0.950 . S
H637 C660 0.950 . S
H638 C662 0.950 . S
H639 C663 0.950 . S
H640 C664 0.951 . S
H641 C666 0.951 . S
H642 C668 0.950 . S
H643 C669 0.950 . S
H644 C671 0.950 . S
H645 C674 0.950 . S
H646 C675 0.950 . S
H647 C677 0.950 . S
H648 C678 0.950 . S
C649 H631 0.951 . S
C649 C650 1.366 1_455 S
C649 C651 1.388 . S
C650 C649 1.366 1_655 S
C650 C654 1.385 . S
C651 H632 0.951 . S
C651 C649 1.388 . S
C651 C652 1.346 1_455 S
C652 C651 1.346 1_655 S
C652 C653 1.426 . S
C652 C655 1.507 . S
C653 H633 0.950 . S
C653 C652 1.426 . S
C653 C654 1.374 . S
C654 H634 0.950 . S
C654 C650 1.385 . S
C654 C653 1.374 . S
C655 C652 1.507 . S
C655 C656 1.373 . S
C655 C657 1.389 1_655 S
C656 H635 0.950 . S
C656 C655 1.373 . S
C656 C672 1.377 . S
C657 C655 1.389 1_455 S
C657 C658 1.524 . S
C657 C671 1.377 . S
C658 C657 1.524 . S
C658 C659 1.397 . S
C658 C663 1.363 . S
C659 H636 0.950 . S
C659 C658 1.397 . S
C659 C660 1.334 . S
C660 H637 0.950 . S
C660 C659 1.334 . S
C660 C661 1.287 . S
C661 C660 1.287 . S
C661 C662 1.524 . S
C661 H680 0.913 . S
C662 H638 0.950 . S
C662 C661 1.524 . S
C662 C663 1.415 . S
C663 H639 0.950 . S
C663 C658 1.363 . S
C663 C662 1.415 . S
C664 H640 0.951 . S
C664 C665 1.366 1_655 S
C664 C666 1.388 . S
C665 C664 1.366 1_455 S
C665 C669 1.385 . S
C666 H641 0.951 . S
C666 C664 1.388 . S
C666 C667 1.344 1_655 S
C667 C666 1.344 1_455 S
C667 C668 1.427 . S
C667 C670 1.508 . S
C668 H642 0.950 . S
C668 C667 1.427 . S
C668 C669 1.374 . S
C669 H643 0.950 . S
C669 C665 1.385 . S
C669 C668 1.374 . S
C670 C667 1.508 . S
C670 C671 1.373 . S
C670 C672 1.389 1_455 S
C671 H644 0.950 . S
C671 C657 1.377 . S
C671 C670 1.373 . S
C672 C656 1.377 . S
C672 C670 1.389 1_655 S
C672 C673 1.524 . S
C673 C672 1.524 . S
C673 C674 1.397 . S
C673 C678 1.363 . S
C674 H645 0.950 . S
C674 C673 1.397 . S
C674 C675 1.334 . S
C675 H646 0.950 . S
C675 C674 1.334 . S
C675 C676 1.287 . S
C676 C675 1.287 . S
C676 C677 1.524 . S
C676 H679 0.999 . S
C677 H647 0.950 . S
C677 C676 1.524 . S
C677 C678 1.415 . S
C678 H648 0.950 . S
C678 C673 1.363 . S
C678 C677 1.415 . S
H679 C676 0.999 . S
H680 C661 0.913 . S
C115 C40 1.494 . S
C100 C10 1.495 . S
C150 C17 1.495 . S
C165 C66 1.495 . S
C200 C36 1.496 . S
C215 C68 1.495 . S
C250 C5 1.496 1_455 S
C265 C52 1.497 . S
C315 C54 1.497 . S
C300 C16 1.500 . S
C350 C31 1.496 . S
C365 C80 1.496 . S
C415 C53 1.495 . S
C400 C30 1.495 . S
C450 C3 1.496 . S
C465 C79 1.496 . S
C515 C39 1.497 . S
C500 C18 1.497 . S
C565 C65 1.497 . S
C550 C29 1.497 . S
C615 C67 1.495 . S
C600 C4 1.495 . S
C650 C23 1.495 . S
C665 C51 1.494 . S
