# Generated by pormake.
# Topology wbl, (4,4)-cn, num edge types: 1
# Building blocks:
#     Node 0, Type 0, BuildingBlock: MUDLON_clean_sbu_0, # of connection points: 4
#     Node 1, Type 0, BuildingBlock: MUDLON_clean_sbu_0, # of connection points: 4
#     Node 2, Type 0, BuildingBlock: MUDLON_clean_sbu_0, # of connection points: 4
#     Node 3, Type 0, BuildingBlock: MUDLON_clean_sbu_0, # of connection points: 4
#     Node 4, Type 0, BuildingBlock: MUDLON_clean_sbu_0, # of connection points: 4
#     Node 5, Type 0, BuildingBlock: MUDLON_clean_sbu_0, # of connection points: 4
#     Node 6, Type 0, BuildingBlock: MUDLON_clean_sbu_0, # of connection points: 4
#     Node 7, Type 0, BuildingBlock: MUDLON_clean_sbu_0, # of connection points: 4
#     Node 8, Type 1, BuildingBlock: QUQFOY_clean_sbu_1, # of connection points: 4
#     Node 9, Type 1, BuildingBlock: QUQFOY_clean_sbu_1, # of connection points: 4
#     Node 10, Type 1, BuildingBlock: QUQFOY_clean_sbu_1, # of connection points: 4
#     Node 11, Type 1, BuildingBlock: QUQFOY_clean_sbu_1, # of connection points: 4
#     Node 12, Type 1, BuildingBlock: QUQFOY_clean_sbu_1, # of connection points: 4
#     Node 13, Type 1, BuildingBlock: QUQFOY_clean_sbu_1, # of connection points: 4
#     Node 14, Type 1, BuildingBlock: QUQFOY_clean_sbu_1, # of connection points: 4
#     Node 15, Type 1, BuildingBlock: QUQFOY_clean_sbu_1, # of connection points: 4
#     Edge 16, Type (0, 1), BuildingBlock: XIVTED_clean_linker_0, # of connection points: 2
#     Edge 17, Type (0, 1), BuildingBlock: XIVTED_clean_linker_0, # of connection points: 2
#     Edge 18, Type (0, 1), BuildingBlock: XIVTED_clean_linker_0, # of connection points: 2
#     Edge 19, Type (0, 1), BuildingBlock: XIVTED_clean_linker_0, # of connection points: 2
#     Edge 20, Type (0, 1), BuildingBlock: XIVTED_clean_linker_0, # of connection points: 2
#     Edge 21, Type (0, 1), BuildingBlock: XIVTED_clean_linker_0, # of connection points: 2
#     Edge 22, Type (0, 1), BuildingBlock: XIVTED_clean_linker_0, # of connection points: 2
#     Edge 23, Type (0, 1), BuildingBlock: XIVTED_clean_linker_0, # of connection points: 2
#     Edge 24, Type (0, 1), BuildingBlock: XIVTED_clean_linker_0, # of connection points: 2
#     Edge 25, Type (0, 1), BuildingBlock: XIVTED_clean_linker_0, # of connection points: 2
#     Edge 26, Type (0, 1), BuildingBlock: XIVTED_clean_linker_0, # of connection points: 2
#     Edge 27, Type (0, 1), BuildingBlock: XIVTED_clean_linker_0, # of connection points: 2
#     Edge 28, Type (0, 1), BuildingBlock: XIVTED_clean_linker_0, # of connection points: 2
#     Edge 29, Type (0, 1), BuildingBlock: XIVTED_clean_linker_0, # of connection points: 2
#     Edge 30, Type (0, 1), BuildingBlock: XIVTED_clean_linker_0, # of connection points: 2
#     Edge 31, Type (0, 1), BuildingBlock: XIVTED_clean_linker_0, # of connection points: 2
#     Edge 32, Type (0, 1), BuildingBlock: XIVTED_clean_linker_0, # of connection points: 2
#     Edge 33, Type (0, 1), BuildingBlock: XIVTED_clean_linker_0, # of connection points: 2
#     Edge 34, Type (0, 1), BuildingBlock: XIVTED_clean_linker_0, # of connection points: 2
#     Edge 35, Type (0, 1), BuildingBlock: XIVTED_clean_linker_0, # of connection points: 2
#     Edge 36, Type (0, 1), BuildingBlock: XIVTED_clean_linker_0, # of connection points: 2
#     Edge 37, Type (0, 1), BuildingBlock: XIVTED_clean_linker_0, # of connection points: 2
#     Edge 38, Type (0, 1), BuildingBlock: XIVTED_clean_linker_0, # of connection points: 2
#     Edge 39, Type (0, 1), BuildingBlock: XIVTED_clean_linker_0, # of connection points: 2
#     Edge 40, Type (0, 1), BuildingBlock: XIVTED_clean_linker_0, # of connection points: 2
#     Edge 41, Type (0, 1), BuildingBlock: XIVTED_clean_linker_0, # of connection points: 2
#     Edge 42, Type (0, 1), BuildingBlock: XIVTED_clean_linker_0, # of connection points: 2
#     Edge 43, Type (0, 1), BuildingBlock: XIVTED_clean_linker_0, # of connection points: 2
#     Edge 44, Type (0, 1), BuildingBlock: XIVTED_clean_linker_0, # of connection points: 2
#     Edge 45, Type (0, 1), BuildingBlock: XIVTED_clean_linker_0, # of connection points: 2
#     Edge 46, Type (0, 1), BuildingBlock: XIVTED_clean_linker_0, # of connection points: 2
#     Edge 47, Type (0, 1), BuildingBlock: XIVTED_clean_linker_0, # of connection points: 2
# Relax obj value: 0.235
# Max RMSD: 0.253
# Mean RMSD: 0.183
data_MOF--net-wbl--node1-MUDLON_clean_sbu_0--node2-QUQFOY_clean_sbu_1--edge1-XIVTED_clean_linker_0
_symmetry_space_group_name_H-M    P1
_symmetry_Int_Tables_number       1
_symmetry_cell_setting            triclinic
loop_
_symmetry_equiv_pos_as_xyz
'x, y, z'
_cell_length_a     34.956765
_cell_length_b     34.926573
_cell_length_c     76.712087
_cell_angle_alpha  92.99683
_cell_angle_beta   93.012731
_cell_angle_gamma 90.767413
loop_
_atom_site_label
_atom_site_type_symbol
_atom_site_fract_x
_atom_site_fract_y
_atom_site_fract_z
_atom_type_partial_charge
Mg0 Mg 0.2332 0.18248 0.37251 0.0
C1 C 0.25714 0.12953 0.40051 0.0
O2 O 0.28905 0.13065 0.39222 0.0
C3 C 0.14875 0.17005 0.3647 0.0
O4 O 0.15382 0.14914 0.37835 0.0
C5 C 0.26553 0.12249 0.34976 0.0
O6 O 0.23226 0.10819 0.35366 0.0
O7 O 0.27485 0.15625 0.35565 0.0
O8 O 0.22793 0.14658 0.39442 0.0
O9 O 0.24875 0.23596 0.38694 0.0
C10 C 0.22285 0.26089 0.38871 0.0
O11 O 0.19318 0.25945 0.37744 0.0
O12 O 0.17749 0.18703 0.35893 0.0
Mg13 Mg 0.03746 0.72913 0.62298 0.0
C14 C 0.10711 0.7379 0.64833 0.0
O15 O 0.11716 0.7636 0.63747 0.0
C16 C 0.05895 0.6571 0.60224 0.0
O17 O 0.09212 0.66453 0.61068 0.0
C18 C 0.08527 0.77449 0.60022 0.0
O19 O 0.09468 0.73923 0.59569 0.0
O20 O 0.05913 0.77969 0.61098 0.0
O21 O 0.07723 0.71739 0.6446 0.0
O22 O 0.98604 0.73769 0.6373 0.0
C23 C 0.96274 0.70963 0.6381 0.0
O24 O 0.96557 0.67987 0.62707 0.0
O25 O 0.03117 0.67951 0.60473 0.0
Mg26 Mg 0.52803 0.54409 0.86219 0.0
C27 C 0.55792 0.55471 0.9 0.0
O28 O 0.56559 0.51825 0.89737 0.0
C29 C 0.60697 0.52699 0.85029 0.0
O30 O 0.6111 0.51796 0.86668 0.0
C31 C 0.48538 0.61347 0.85245 0.0
O32 O 0.51843 0.62852 0.85847 0.0
O33 O 0.48107 0.5772 0.85167 0.0
O34 O 0.54511 0.57341 0.88719 0.0
O35 O 0.5083 0.48883 0.87024 0.0
C36 C 0.52856 0.45894 0.86905 0.0
O37 O 0.55532 0.45742 0.85766 0.0
O38 O 0.57498 0.53962 0.84464 0.0
Mg39 Mg 0.68076 0.06078 0.11935 0.0
C40 C 0.73318 0.02817 0.14551 0.0
O41 O 0.70271 0.00584 0.14591 0.0
C42 C 0.62783 0.00682 0.09696 0.0
O43 O 0.60804 0.03837 0.09564 0.0
C44 C 0.68367 0.10822 0.08658 0.0
O45 O 0.67179 0.0762 0.07816 0.0
O46 O 0.68842 0.10938 0.10316 0.0
O47 O 0.73459 0.05146 0.13337 0.0
O48 O 0.64638 0.07346 0.14177 0.0
C49 C 0.61802 0.05263 0.14533 0.0
O50 O 0.60461 0.02622 0.13372 0.0
O51 O 0.66005 0.00829 0.10546 0.0
Mg52 Mg 0.04324 0.68468 0.96206 0.0
C53 C 0.01501 0.73803 0.93587 0.0
O54 O 0.99334 0.7074 0.93208 0.0
C55 C 0.96009 0.66934 0.97225 0.0
O56 O 0.95112 0.69655 0.96166 0.0
C57 C 0.11216 0.71604 0.98391 0.0
O58 O 0.09707 0.74845 0.97924 0.0
O59 O 0.09548 0.68462 0.97872 0.0
O60 O 0.0361 0.73928 0.94994 0.0
O61 O 0.04986 0.64814 0.93877 0.0
C62 C 0.02681 0.62042 0.93447 0.0
O63 O 0.00219 0.60975 0.9457 0.0
O64 O 0.99514 0.66146 0.9753 0.0
Mg65 Mg 0.55775 0.504 0.20289 0.0
C66 C 0.47118 0.48326 0.19158 0.0
O67 O 0.43914 0.46484 0.1942 0.0
C68 C 0.58959 0.44866 0.22986 0.0
O69 O 0.55407 0.44782 0.23466 0.0
C70 C 0.53179 0.57452 0.2233 0.0
O71 O 0.50202 0.55198 0.22507 0.0
O72 O 0.55961 0.5618 0.2148 0.0
O73 O 0.49933 0.48069 0.20273 0.0
O74 O 0.57788 0.50551 0.17674 0.0
C75 C 0.56701 0.48057 0.1648 0.0
O76 O 0.54348 0.45279 0.16842 0.0
O77 O 0.59818 0.4692 0.21739 0.0
Mg78 Mg 0.68143 0.07441 0.4611 0.0
C79 C 0.64393 0.09785 0.42746 0.0
O80 O 0.62885 0.06337 0.42822 0.0
C81 C 0.63179 0.08263 0.49297 0.0
O82 O 0.65234 0.11409 0.49655 0.0
C83 C 0.73518 0.13594 0.47548 0.0
O84 O 0.70502 0.15585 0.47087 0.0
O85 O 0.73332 0.09959 0.47361 0.0
O86 O 0.66334 0.11226 0.44075 0.0
O87 O 0.69435 0.02323 0.44555 0.0
C88 C 0.67094 0.99499 0.44415 0.0
O89 O 0.64312 0.99396 0.45499 0.0
O90 O 0.63775 0.06202 0.47925 0.0
Mg91 Mg 0.19983 0.21534 0.714 0.0
C92 C 0.28082 0.20332 0.70434 0.0
O93 O 0.27554 0.17245 0.71306 0.0
C94 C 0.16444 0.29277 0.71883 0.0
O95 O 0.18068 0.29711 0.70399 0.0
C96 C 0.1829 0.1582 0.74221 0.0
O97 O 0.15246 0.17901 0.74475 0.0
O98 O 0.20538 0.1668 0.73046 0.0
O99 O 0.25678 0.2302 0.70579 0.0
O100 O 0.16649 0.20124 0.68947 0.0
C101 C 0.18051 0.21431 0.67596 0.0
O102 O 0.21227 0.23474 0.67772 0.0
O103 O 0.16968 0.26193 0.72667 0.0
O104 O 0.47275 0.67856 0.02085 0.0
Cd105 Cd 0.44556 0.70341 0.04167 0.0
Cd106 Cd 0.50506 0.6639 0.05884 0.0
O107 O 0.51499 0.64168 0.03395 0.0
O108 O 0.4026 0.72989 0.02944 0.0
O109 O 0.39295 0.68326 0.04707 0.0
C110 C 0.37895 0.70788 0.0366 0.0
C111 C 0.49811 0.62427 0.08211 0.0
C112 C 0.4991 0.65389 0.02005 0.0
C113 C 0.50567 0.75019 0.06316 0.0
O114 O 0.5239 0.71941 0.06534 0.0
O115 O 0.47288 0.7493 0.05517 0.0
O116 O 0.53137 0.63184 0.07648 0.0
O117 O 0.46841 0.63826 0.07409 0.0
O118 O 0.55072 0.90588 0.32146 0.0
Cd119 Cd 0.51476 0.90653 0.29935 0.0
Cd120 Cd 0.58028 0.9204 0.28468 0.0
O121 O 0.6018 0.93022 0.31019 0.0
O122 O 0.46234 0.91336 0.30804 0.0
O123 O 0.4919 0.9573 0.29367 0.0
C124 C 0.46257 0.94713 0.30199 0.0
C125 C 0.58414 0.96512 0.26335 0.0
C126 C 0.58486 0.91898 0.32332 0.0
C127 C 0.54175 0.84471 0.27505 0.0
O128 O 0.57278 0.8642 0.27532 0.0
O129 O 0.51299 0.85805 0.28269 0.0
O130 O 0.61382 0.94624 0.26846 0.0
O131 O 0.5526 0.95988 0.27102 0.0
O132 O 0.30781 0.02713 0.52829 0.0
Cd133 Cd 0.33074 0.01354 0.55227 0.0
Cd134 Cd 0.28275 0.06665 0.5628 0.0
O135 O 0.27934 0.08024 0.53679 0.0
O136 O 0.37846 0.98641 0.54625 0.0
O137 O 0.37861 0.043 0.56061 0.0
C138 C 0.39743 0.01613 0.55283 0.0
C139 C 0.30238 0.10987 0.58577 0.0
C140 C 0.28981 0.05723 0.52462 0.0
C141 C 0.26441 0.98574 0.57091 0.0
O142 O 0.25156 0.0194 0.56944 0.0
O143 O 0.29807 0.97788 0.56641 0.0
O144 O 0.26873 0.11173 0.5781 0.0
O145 O 0.32555 0.08441 0.57984 0.0
O146 O 0.22097 0.81977 0.77662 0.0
Cd147 Cd 0.23557 0.84687 0.80053 0.0
Cd148 Cd 0.18461 0.7978 0.811 0.0
O149 O 0.16916 0.79052 0.78467 0.0
O150 O 0.26113 0.89501 0.79428 0.0
O151 O 0.20583 0.89405 0.80703 0.0
C152 C 0.23199 0.91333 0.79982 0.0
C153 C 0.13811 0.80599 0.83155 0.0
C154 C 0.19092 0.79966 0.77275 0.0
C155 C 0.26729 0.78533 0.82155 0.0
O156 O 0.23376 0.77066 0.81948 0.0
O157 O 0.27388 0.81882 0.81656 0.0
O158 O 0.1421 0.7737 0.82297 0.0
O159 O 0.16 0.83444 0.82815 0.0
O160 O 0.04037 0.3001 0.5602 0.0
Cd161 Cd 0.02156 0.3307 0.53923 0.0
Cd162 Cd 0.06504 0.28107 0.52165 0.0
O163 O 0.08438 0.26772 0.54644 0.0
O164 O 0.99879 0.37757 0.54994 0.0
O165 O 0.05036 0.37905 0.53444 0.0
C166 C 0.02597 0.39716 0.54376 0.0
C167 C 0.10904 0.29353 0.50071 0.0
C168 C 0.06797 0.27682 0.56042 0.0
C169 C 0.98027 0.27477 0.51407 0.0
O170 O 0.0123 0.25842 0.51259 0.0
O171 O 0.97829 0.30626 0.52301 0.0
O172 O 0.10343 0.25937 0.50577 0.0
O173 O 0.08996 0.32115 0.50778 0.0
O174 O 0.93421 0.52143 0.80486 0.0
Cd175 Cd 0.90756 0.50471 0.78118 0.0
Cd176 Cd 0.94933 0.56251 0.77088 0.0
O177 O 0.95791 0.57654 0.79737 0.0
O178 O 0.86437 0.47234 0.78814 0.0
O179 O 0.85591 0.52754 0.77572 0.0
C180 C 0.84148 0.49883 0.78325 0.0
C181 C 0.93104 0.60761 0.75081 0.0
C182 C 0.95156 0.55299 0.80902 0.0
C183 C 0.97077 0.48263 0.75882 0.0
O184 O 0.98091 0.51776 0.76081 0.0
O185 O 0.93944 0.47118 0.76465 0.0
O186 O 0.96481 0.60839 0.75846 0.0
O187 O 0.90674 0.58206 0.75517 0.0
O188 O 0.70871 0.44823 0.04798 0.0
Cd189 Cd 0.73372 0.41977 0.02756 0.0
Cd190 Cd 0.67908 0.45413 0.0088 0.0
O191 O 0.6553 0.45989 0.03287 0.0
O192 O 0.76187 0.37781 0.03884 0.0
O193 O 0.71195 0.36749 0.02013 0.0
C194 C 0.73711 0.3541 0.03108 0.0
C195 C 0.63759 0.43695 0.98475 0.0
C196 C 0.67429 0.4593 0.04742 0.0
C197 C 0.76128 0.48073 0.00614 0.0
O198 O 0.72594 0.48842 0.00385 0.0
O199 O 0.77131 0.451 0.01399 0.0
O200 O 0.63724 0.47059 0.99247 0.0
O201 O 0.66162 0.41247 0.99077 0.0
O202 O 0.82897 0.18057 0.25995 0.0
Cd203 Cd 0.83018 0.22112 0.28042 0.0
Cd204 Cd 0.80764 0.1621 0.29841 0.0
O205 O 0.80096 0.13507 0.27379 0.0
O206 O 0.8226 0.27179 0.27004 0.0
O207 O 0.78026 0.24491 0.2863 0.0
C208 C 0.78947 0.27264 0.27673 0.0
C209 C 0.7598 0.15623 0.3183 0.0
C210 C 0.81401 0.14722 0.25991 0.0
C211 C 0.88634 0.19646 0.30766 0.0
O212 O 0.86263 0.16914 0.30935 0.0
O213 O 0.87815 0.22281 0.29733 0.0
O214 O 0.7812 0.12782 0.31408 0.0
O215 O 0.76483 0.18807 0.31083 0.0
H216 H 0.25536 0.04761 0.33835 0.0
H217 H 0.46251 0.02528 0.29954 0.0
H218 H 0.33715 0.14148 0.33904 0.0
H219 H 0.39182 0.93037 0.31326 0.0
H220 H 0.41294 0.06964 0.3091 0.0
H221 H 0.30121 0.00597 0.32428 0.0
C222 C 0.28289 0.05962 0.33544 0.0
C223 C 0.29248 0.09812 0.34003 0.0
C224 C 0.40823 0.03908 0.30987 0.0
C225 C 0.3453 0.0503 0.32384 0.0
C226 C 0.43636 0.01374 0.30432 0.0
C227 C 0.43134 0.97407 0.30569 0.0
C228 C 0.37472 0.02455 0.31662 0.0
C229 C 0.397 0.96072 0.31207 0.0
C230 C 0.30912 0.03571 0.32742 0.0
C231 C 0.32861 0.11195 0.33583 0.0
N232 N 0.37009 0.98588 0.31732 0.0
N233 N 0.3538 0.088 0.32801 0.0
H234 H 0.07611 0.85171 0.60764 0.0
H235 H 0.27753 0.90859 0.57043 0.0
H236 H 0.14956 0.77123 0.58155 0.0
H237 H 0.19307 0.9926 0.58401 0.0
H238 H 0.23306 0.85783 0.57735 0.0
H239 H 0.12001 0.9039 0.60123 0.0
C240 C 0.10123 0.84504 0.60045 0.0
C241 C 0.10913 0.807 0.59513 0.0
C242 C 0.22427 0.88738 0.57885 0.0
C243 C 0.15968 0.8664 0.58803 0.0
C244 C 0.24977 0.91643 0.57501 0.0
C245 C 0.23902 0.95497 0.57657 0.0
C246 C 0.18777 0.89682 0.58443 0.0
C247 C 0.20255 0.96328 0.58254 0.0
C248 C 0.12631 0.87481 0.59684 0.0
C249 C 0.14221 0.80005 0.58591 0.0
N250 N 0.17821 0.93445 0.58624 0.0
N251 N 0.16633 0.82938 0.58276 0.0
H252 H 0.41055 0.59273 0.84386 0.0
H253 H 0.34278 0.80668 0.82819 0.0
H254 H 0.48635 0.69157 0.85088 0.0
H255 H 0.2649 0.71003 0.82972 0.0
H256 H 0.39599 0.76517 0.83615 0.0
H257 H 0.35714 0.63524 0.83766 0.0
C258 C 0.41602 0.62335 0.84402 0.0
C259 C 0.45301 0.6386 0.84788 0.0
C260 C 0.36721 0.75313 0.83486 0.0
C261 C 0.39193 0.68747 0.84087 0.0
C262 C 0.33679 0.77685 0.83036 0.0
C263 C 0.29928 0.76183 0.82821 0.0
C264 C 0.36014 0.71404 0.8371 0.0
C265 C 0.2933 0.72291 0.8312 0.0
C266 C 0.38545 0.64764 0.84057 0.0
C267 C 0.45833 0.67855 0.84798 0.0
N268 N 0.32342 0.70034 0.83535 0.0
N269 N 0.42814 0.70158 0.8445 0.0
H270 H 0.55768 0.99262 0.08011 0.0
H271 H 0.57667 0.76421 0.07943 0.0
H272 H 0.6585 0.9355 0.09987 0.0
H273 H 0.4759 0.82175 0.05983 0.0
H274 H 0.60715 0.82662 0.08708 0.0
H275 H 0.52775 0.93016 0.0721 0.0
C276 C 0.57366 0.96696 0.08265 0.0
C277 C 0.61065 0.96933 0.09071 0.0
C278 C 0.57833 0.82558 0.08114 0.0
C279 C 0.57639 0.89766 0.08171 0.0
C280 C 0.56084 0.78992 0.07683 0.0
C281 C 0.52364 0.78766 0.06896 0.0
C282 C 0.55853 0.85926 0.07756 0.0
C283 C 0.5046 0.82202 0.06587 0.0
C284 C 0.55648 0.93128 0.07813 0.0
C285 C 0.62994 0.93508 0.0937 0.0
N286 N 0.52229 0.85635 0.07014 0.0
N287 N 0.61252 0.90067 0.08925 0.0
H288 H 0.15952 0.77736 0.99343 0.0
H289 H 0.32239 0.65401 0.04065 0.0
H290 H 0.1492 0.65501 0.99798 0.0
H291 H 0.34112 0.76691 0.0221 0.0
H292 H 0.25497 0.65668 0.02998 0.0
H293 H 0.22234 0.77659 0.00885 0.0
C294 C 0.17032 0.75034 0.99777 0.0
C295 C 0.14917 0.71613 0.99424 0.0
C296 C 0.27386 0.68094 0.0284 0.0
C297 C 0.22119 0.7151 0.01198 0.0
C298 C 0.31221 0.67952 0.03456 0.0
C299 C 0.33741 0.71016 0.03213 0.0
C300 C 0.26067 0.71343 0.01998 0.0
C301 C 0.32278 0.74248 0.0241 0.0
C302 C 0.20626 0.74992 0.00655 0.0
C303 C 0.16466 0.68202 0.00028 0.0
N304 N 0.28547 0.74322 0.01829 0.0
N305 N 0.19981 0.68233 0.0088 0.0
H306 H 0.47612 0.61158 0.24113 0.0
H307 H 0.597 0.80781 0.25682 0.0
H308 H 0.58903 0.62865 0.22232 0.0
H309 H 0.48208 0.79258 0.27368 0.0
H310 H 0.59432 0.74245 0.24388 0.0
H311 H 0.47768 0.67781 0.2531 0.0
C312 C 0.50126 0.62922 0.23952 0.0
C313 C 0.53251 0.61448 0.23072 0.0
C314 C 0.56963 0.75343 0.25036 0.0
C315 C 0.53446 0.69044 0.24438 0.0
C316 C 0.57112 0.79081 0.25775 0.0
C317 C 0.53974 0.80576 0.2664 0.0
C318 C 0.53657 0.73068 0.25164 0.0
C319 C 0.50698 0.7823 0.26715 0.0
C320 C 0.50211 0.66708 0.24634 0.0
C321 C 0.56428 0.63876 0.22902 0.0
N322 N 0.50631 0.74591 0.25993 0.0
N323 N 0.56446 0.67549 0.23579 0.0
H324 H 0.60387 0.12402 0.52085 0.0
H325 H 0.44424 0.96498 0.53667 0.0
H326 H 0.59112 0.01503 0.49174 0.0
H327 H 0.44301 0.08038 0.55968 0.0
H328 H 0.50575 0.97912 0.52464 0.0
H329 H 0.55184 0.1052 0.539 0.0
C330 C 0.59032 0.09606 0.51833 0.0
C331 C 0.60163 0.07123 0.50462 0.0
C332 C 0.4923 0.00124 0.53251 0.0
C333 C 0.54234 0.04944 0.52542 0.0
C334 C 0.45725 0.9931 0.53949 0.0
C335 C 0.43816 0.02169 0.54902 0.0
C336 C 0.50843 0.03829 0.535 0.0
C337 C 0.45657 0.05753 0.55232 0.0
C338 C 0.56065 0.08535 0.52871 0.0
C339 C 0.58314 0.03529 0.50203 0.0
N340 N 0.49047 0.06499 0.54512 0.0
N341 N 0.55438 0.02558 0.51227 0.0
H342 H 0.24832 0.1165 0.7434 0.0
H343 H 0.16835 0.95786 0.8038 0.0
H344 H 0.13765 0.12459 0.76567 0.0
H345 H 0.28368 0.96126 0.78635 0.0
H346 H 0.15733 0.0209 0.79196 0.0
H347 H 0.26219 0.0611 0.76045 0.0
C348 C 0.22689 0.10665 0.75191 0.0
C349 C 0.19161 0.1251 0.75299 0.0
C350 C 0.1852 0.00804 0.79096 0.0
C351 C 0.2074 0.0613 0.77266 0.0
C352 C 0.19158 0.97215 0.7978 0.0
C353 C 0.22688 0.95406 0.79591 0.0
C354 C 0.21428 0.02577 0.78212 0.0
C355 C 0.25589 0.97389 0.78797 0.0
C356 C 0.23492 0.07503 0.76173 0.0
C357 C 0.16515 0.11115 0.76438 0.0
N358 N 0.24881 0.00838 0.78122 0.0
N359 N 0.17344 0.07985 0.77367 0.0
H360 H 0.66734 0.47958 0.85476 0.0
H361 H 0.78633 0.5534 0.77819 0.0
H362 H 0.61842 0.55907 0.81893 0.0
H363 H 0.80558 0.44442 0.80099 0.0
H364 H 0.72532 0.55795 0.79259 0.0
H365 H 0.72005 0.46906 0.8356 0.0
C366 C 0.66772 0.49488 0.84285 0.0
C367 C 0.63857 0.52038 0.83847 0.0
C368 C 0.74268 0.53278 0.79415 0.0
C369 C 0.69903 0.50855 0.81643 0.0
C370 C 0.77741 0.53008 0.7859 0.0
C371 C 0.80135 0.49868 0.78854 0.0
C372 C 0.73225 0.50416 0.80528 0.0
C373 C 0.78832 0.46935 0.79869 0.0
C374 C 0.69768 0.48863 0.83183 0.0
C375 C 0.64038 0.53915 0.82277 0.0
N376 N 0.75503 0.47311 0.8069 0.0
N377 N 0.6704 0.53321 0.81237 0.0
H378 H 0.66307 0.12289 0.05253 0.0
H379 H 0.78171 0.32064 0.05607 0.0
H380 H 0.72642 0.17112 0.0985 0.0
H381 H 0.68685 0.29641 0.0186 0.0
H382 H 0.77103 0.25863 0.06831 0.0
H383 H 0.6796 0.18008 0.03698 0.0
C384 C 0.68051 0.14541 0.05933 0.0
C385 C 0.69318 0.14234 0.07688 0.0
C386 C 0.75276 0.26672 0.0573 0.0
C387 C 0.71262 0.20727 0.05911 0.0
C388 C 0.75899 0.30204 0.05021 0.0
C389 C 0.73489 0.31397 0.03637 0.0
C390 C 0.72238 0.24287 0.05048 0.0
C391 C 0.70598 0.28847 0.02932 0.0
C392 C 0.68987 0.17797 0.05045 0.0
C393 C 0.71573 0.17236 0.08504 0.0
N394 N 0.70034 0.25415 0.03653 0.0
N395 N 0.72481 0.20344 0.07608 0.0
H396 H 0.08254 0.13409 0.37265 0.0
H397 H 0.9492 0.24265 0.3036 0.0
H398 H 0.12623 0.21681 0.33848 0.0
H399 H 0.91043 0.14883 0.33303 0.0
H400 H 0.01316 0.23759 0.31783 0.0
H401 H 0.01832 0.14265 0.35963 0.0
C402 C 0.07866 0.15405 0.36239 0.0
C403 C 0.10986 0.17468 0.35662 0.0
C404 C 0.99058 0.21823 0.3212 0.0
C405 C 0.0362 0.18477 0.34167 0.0
C406 C 0.95401 0.22121 0.31315 0.0
C407 C 0.9244 0.19602 0.31707 0.0
C408 C 0.99751 0.19 0.33332 0.0
C409 C 0.93237 0.16875 0.32952 0.0
C410 C 0.04193 0.15894 0.35495 0.0
C411 C 0.10302 0.20019 0.34328 0.0
N412 N 0.96812 0.16643 0.33716 0.0
N413 N 0.0669 0.20455 0.33626 0.0
H414 H 0.99159 0.62564 0.5879 0.0
H415 H 0.08989 0.44313 0.54245 0.0
H416 H 0.11384 0.60874 0.59015 0.0
H417 H 0.97161 0.44535 0.55594 0.0
H418 H 0.09788 0.5097 0.55413 0.0
H419 H 0.9829 0.56519 0.57049 0.0
C420 C 0.01664 0.6094 0.58461 0.0
C421 C 0.05349 0.62206 0.59064 0.0
C422 C 0.07011 0.49566 0.55434 0.0
C423 C 0.0437 0.55298 0.57067 0.0
C424 C 0.06547 0.45781 0.54759 0.0
C425 C 0.03013 0.43864 0.54839 0.0
C426 C 0.03904 0.51447 0.5617 0.0
C427 C 0.99946 0.45895 0.55523 0.0
C428 C 0.01163 0.57487 0.5747 0.0
C429 C 0.08489 0.59986 0.58593 0.0
N430 N 0.00466 0.4957 0.56168 0.0
N431 N 0.07928 0.56631 0.57626 0.0
H432 H 0.80595 0.10459 0.48124 0.0
H433 H 0.90848 0.30483 0.51132 0.0
H434 H 0.74731 0.21264 0.4829 0.0
H435 H 0.97056 0.20108 0.50022 0.0
H436 H 0.84889 0.27112 0.50171 0.0
H437 H 0.86622 0.1388 0.48952 0.0
C438 C 0.8057 0.13547 0.48344 0.0
C439 C 0.77153 0.1558 0.48139 0.0
C440 C 0.87556 0.25578 0.50127 0.0
C441 C 0.84038 0.19508 0.49077 0.0
C442 C 0.90964 0.27503 0.50674 0.0
C443 C 0.94459 0.25573 0.50663 0.0
C444 C 0.87632 0.21682 0.4958 0.0
C445 C 0.9443 0.21712 0.50051 0.0
C446 C 0.84015 0.155 0.48806 0.0
C447 C 0.77296 0.1958 0.48432 0.0
N448 N 0.91064 0.19884 0.49546 0.0
N449 N 0.80679 0.21411 0.48889 0.0
H450 H 0.11235 0.28479 0.74389 0.0
H451 H 0.03268 0.497 0.73959 0.0
H452 H 0.15315 0.36549 0.70808 0.0
H453 H 0.97 0.40457 0.76092 0.0
H454 H 0.08013 0.45101 0.72969 0.0
H455 H 0.06378 0.33061 0.75266 0.0
C456 C 0.11133 0.31227 0.73798 0.0
C457 C 0.13688 0.32134 0.72523 0.0
C458 C 0.05583 0.44079 0.73642 0.0
C459 C 0.08125 0.37381 0.73517 0.0
C460 C 0.02872 0.46699 0.74207 0.0
C461 C 0.99733 0.45462 0.75112 0.0
C462 C 0.05188 0.40202 0.74009 0.0
C463 C 0.99365 0.41538 0.75394 0.0
C464 C 0.08339 0.33828 0.74289 0.0
C465 C 0.134 0.35729 0.71793 0.0
N466 N 0.02081 0.39053 0.7486 0.0
N467 N 0.10675 0.38228 0.72305 0.0
H468 H 0.88214 0.67378 0.96638 0.0
H469 H 0.83934 0.4765 0.01109 0.0
H470 H 0.9691 0.60676 0.99205 0.0
H471 H 0.75071 0.54704 0.98892 0.0
H472 H 0.88729 0.52344 0.00359 0.0
H473 H 0.83345 0.62794 0.97445 0.0
C474 C 0.89099 0.64966 0.97385 0.0
C475 C 0.92983 0.64414 0.97851 0.0
C476 C 0.85736 0.52865 0.00034 0.0
C477 C 0.87425 0.59128 0.98762 0.0
C478 C 0.82992 0.50174 0.00455 0.0
C479 C 0.79085 0.50778 0.00065 0.0
C480 C 0.84576 0.56191 0.99211 0.0
C481 C 0.78047 0.54114 0.9922 0.0
C482 C 0.86317 0.6234 0.9784 0.0
C483 C 0.93956 0.61224 0.98815 0.0
N484 N 0.80774 0.56694 0.98824 0.0
N485 N 0.91201 0.58698 0.9923 0.0
H486 H 0.5811 0.39793 0.25565 0.0
H487 H 0.80055 0.3342 0.25687 0.0
H488 H 0.6661 0.4461 0.22392 0.0
H489 H 0.71511 0.27966 0.28625 0.0
H490 H 0.75272 0.37958 0.24695 0.0
H491 H 0.63058 0.35814 0.26899 0.0
C492 C 0.61016 0.40028 0.25153 0.0
C493 C 0.61935 0.42528 0.23856 0.0
C494 C 0.74443 0.35787 0.25567 0.0
C495 C 0.67617 0.37985 0.25381 0.0
C496 C 0.77181 0.33199 0.26139 0.0
C497 C 0.76181 0.3029 0.27234 0.0
C498 C 0.70663 0.35471 0.26086 0.0
C499 C 0.72409 0.30156 0.27778 0.0
C500 C 0.63841 0.37754 0.25915 0.0
C501 C 0.65756 0.42713 0.23379 0.0
N502 N 0.6978 0.32691 0.27189 0.0
N503 N 0.68445 0.40468 0.24136 0.0
H504 H 0.20609 0.14363 0.42587 0.0
H505 H 0.31915 0.02071 0.49613 0.0
H506 H 0.3087 0.08106 0.41524 0.0
H507 H 0.24295 0.11191 0.51069 0.0
H508 H 0.30777 0.03471 0.46554 0.0
H509 H 0.21127 0.1239 0.45606 0.0
C510 C 0.22937 0.12526 0.42981 0.0
C511 C 0.25713 0.11404 0.41805 0.0
C512 C 0.29348 0.05161 0.47542 0.0
C513 C 0.26317 0.09157 0.4525 0.0
C514 C 0.29986 0.04362 0.49291 0.0
C515 C 0.2821 0.06532 0.50604 0.0
C516 C 0.26887 0.08131 0.47092 0.0
C517 C 0.25742 0.09463 0.50101 0.0
C518 C 0.23244 0.11429 0.44706 0.0
C519 C 0.28681 0.09051 0.4239 0.0
N520 N 0.25149 0.10178 0.48382 0.0
N521 N 0.28907 0.08008 0.44072 0.0
H522 H 0.08385 0.69999 0.67644 0.0
H523 H 0.22943 0.81704 0.74399 0.0
H524 H 0.1709 0.77851 0.66112 0.0
H525 H 0.13179 0.75241 0.75947 0.0
H526 H 0.21365 0.79615 0.71362 0.0
H527 H 0.10726 0.71086 0.70687 0.0
C528 C 0.10831 0.71901 0.67942 0.0
C529 C 0.12519 0.73872 0.66621 0.0
C530 C 0.19574 0.78643 0.72366 0.0
C531 C 0.15181 0.75155 0.70106 0.0
C532 C 0.20468 0.79839 0.74103 0.0
C533 C 0.18172 0.78671 0.75432 0.0
C534 C 0.16362 0.76251 0.71949 0.0
C535 C 0.15014 0.76237 0.74965 0.0
C536 C 0.12149 0.72539 0.69683 0.0
C537 C 0.15679 0.76297 0.67088 0.0
N538 N 0.14195 0.75117 0.73261 0.0
N539 N 0.16887 0.76896 0.68793 0.0
H540 H 0.57825 0.52118 0.93062 0.0
H541 H 0.48133 0.68451 0.98876 0.0
H542 H 0.53527 0.62656 0.91063 0.0
H543 H 0.54547 0.59308 0.01156 0.0
H544 H 0.50099 0.66267 0.96006 0.0
H545 H 0.56785 0.5464 0.96033 0.0
C546 C 0.56716 0.54983 0.93247 0.0
C547 C 0.55735 0.57169 0.91807 0.0
C548 C 0.51098 0.64741 0.97131 0.0
C549 C 0.54498 0.60046 0.95202 0.0
C550 C 0.49957 0.65975 0.98775 0.0
C551 C 0.51158 0.64048 0.00264 0.0
C552 C 0.53435 0.61522 0.96958 0.0
C553 C 0.53548 0.60876 0.00045 0.0
C554 C 0.56117 0.56416 0.94945 0.0
C555 C 0.5431 0.60859 0.9213 0.0
N556 N 0.54587 0.59691 0.98419 0.0
N557 N 0.537 0.62162 0.93789 0.0
H558 H 0.55154 0.02375 0.15698 0.0
H559 H 0.5239 0.99429 0.24423 0.0
H560 H 0.65934 0.07713 0.17522 0.0
H561 H 0.6474 0.9901 0.24742 0.0
H562 H 0.52659 0.02512 0.21637 0.0
H563 H 0.5386 0.01086 0.18712 0.0
C564 C 0.57201 0.03366 0.16739 0.0
C565 C 0.60649 0.05161 0.16358 0.0
C566 C 0.55307 0.01748 0.22319 0.0
C567 C 0.59202 0.03683 0.19815 0.0
C568 C 0.5516 1.00026 0.23919 0.0
C569 C 0.58547 0.98905 0.24803 0.0
C570 C 0.5887 0.02363 0.21604 0.0
C571 C 0.62056 0.99776 0.24093 0.0
C572 C 0.56452 0.02649 0.18463 0.0
C573 C 0.63222 0.06351 0.17757 0.0
N574 N 0.62125 0.01436 0.22531 0.0
N575 N 0.62482 0.05519 0.19419 0.0
H576 H 0.07181 0.79342 0.93531 0.0
H577 H 0.07139 0.76613 0.8335 0.0
H578 H 0.97767 0.74032 0.90382 0.0
H579 H 0.1442 0.85108 0.86197 0.0
H580 H 0.03304 0.76182 0.85899 0.0
H581 H 0.09486 0.82144 0.90912 0.0
C582 C 0.05537 0.78848 0.92301 0.0
C583 C 0.02322 0.76373 0.9217 0.0
C584 C 0.05693 0.78199 0.85963 0.0
C585 C 0.04983 0.79513 0.89169 0.0
C586 C 0.07888 0.78437 0.84507 0.0
C587 C 0.11113 0.80874 0.84572 0.0
C588 C 0.06791 0.80336 0.87516 0.0
C589 C 0.1195 0.83191 0.86098 0.0
C590 C 0.06864 0.80441 0.90804 0.0
C591 C 0.00301 0.75858 0.90542 0.0
N592 N 0.09851 0.82804 0.87528 0.0
N593 N 0.01709 0.77343 0.89102 0.0
H594 H 0.43228 0.46838 0.16021 0.0
H595 H 0.5541 0.60919 0.1069 0.0
H596 H 0.5151 0.54723 0.18628 0.0
H597 H 0.43406 0.5883 0.09312 0.0
H598 H 0.54711 0.57495 0.13367 0.0
H599 H 0.43838 0.50194 0.13318 0.0
C600 C 0.45185 0.49269 0.16026 0.0
C601 C 0.47409 0.5044 0.17544 0.0
C602 C 0.52238 0.57795 0.12476 0.0
C603 C 0.48141 0.54244 0.14455 0.0
C604 C 0.52633 0.5972 0.10944 0.0
C605 C 0.49453 0.60176 0.09779 0.0
C606 C 0.48656 0.56249 0.1283 0.0
C607 C 0.45924 0.58564 0.10178 0.0
C608 C 0.4553 0.51172 0.14484 0.0
C609 C 0.49854 0.53638 0.17478 0.0
N610 N 0.45623 0.56649 0.11667 0.0
N611 N 0.502 0.55401 0.15952 0.0
H612 H 0.62014 0.9362 0.43478 0.0
H613 H 0.65471 0.95243 0.3335 0.0
H614 H 0.71364 0.00076 0.41538 0.0
H615 H 0.55909 0.89211 0.35348 0.0
H616 H 0.68304 0.96133 0.36332 0.0
H617 H 0.60481 0.90946 0.40518 0.0
C618 C 0.63799 0.94414 0.42438 0.0
C619 C 0.66776 0.97134 0.42754 0.0
C620 C 0.65605 0.94579 0.36113 0.0
C621 C 0.64991 0.94138 0.39354 0.0
C622 C 0.63983 0.94076 0.34411 0.0
C623 C 0.60417 0.92201 0.341 0.0
C624 C 0.63647 0.93196 0.37513 0.0
C625 C 0.58636 0.90723 0.35526 0.0
C626 C 0.62907 0.92901 0.40743 0.0
C627 C 0.69011 0.98024 0.41355 0.0
N628 N 0.60253 0.91282 0.37169 0.0
N629 N 0.6803 0.96584 0.3971 0.0
H630 H 0.32738 0.14483 0.69397 0.0
H631 H 0.2685 0.17571 0.59761 0.0
H632 H 0.28554 0.25414 0.67818 0.0
H633 H 0.35829 0.09722 0.61105 0.0
H634 H 0.27773 0.20753 0.62671 0.0
H635 H 0.34494 0.12972 0.66406 0.0
C636 C 0.32271 0.16612 0.68434 0.0
C637 C 0.30338 0.20013 0.68847 0.0
C638 C 0.29603 0.18391 0.62317 0.0
C639 C 0.32265 0.18255 0.6541 0.0
C640 C 0.29066 0.16563 0.60658 0.0
C641 C 0.31238 0.13353 0.60198 0.0
C642 C 0.32266 0.16938 0.6354 0.0
C643 C 0.3408 0.12178 0.61409 0.0
C644 C 0.33267 0.15738 0.66721 0.0
C645 C 0.29896 0.22688 0.67547 0.0
N646 N 0.34454 0.13915 0.63039 0.0
N647 N 0.30728 0.21701 0.65872 0.0
H648 H 0.479 0.45382 0.89535 0.0
H649 H 0.57247 0.47338 0.9748 0.0
H650 H 0.58807 0.41289 0.87893 0.0
H651 H 0.64565 0.38102 0.95871 0.0
H652 H 0.53604 0.46529 0.947 0.0
H653 H 0.49674 0.43651 0.92507 0.0
C654 C 0.50631 0.44032 0.89789 0.0
C655 C 0.53263 0.43604 0.88474 0.0
C656 C 0.55915 0.44578 0.94967 0.0
C657 C 0.55373 0.41772 0.91885 0.0
C658 C 0.58035 0.45077 0.96552 0.0
C659 C 0.61227 0.42799 0.96901 0.0
C660 C 0.57021 0.41807 0.93704 0.0
C661 C 0.62119 0.39917 0.9565 0.0
C662 C 0.51667 0.431 0.91494 0.0
C663 C 0.5672 0.41755 0.88873 0.0
N664 N 0.60077 0.39558 0.94088 0.0
N665 N 0.57718 0.40991 0.90555 0.0
H666 H 0.79402 0.07855 0.15104 0.0
H667 H 0.78069 0.07574 0.25427 0.0
H668 H 0.7286 0.99451 0.17678 0.0
H669 H 0.84053 0.16318 0.22808 0.0
H670 H 0.77147 0.03869 0.22643 0.0
H671 H 0.82265 0.10162 0.17941 0.0
C672 C 0.78631 0.06433 0.1626 0.0
C673 C 0.7582 0.03511 0.16156 0.0
C674 C 0.78697 0.0658 0.22681 0.0
C675 C 0.79037 0.06185 0.19411 0.0
C676 C 0.79217 0.08704 0.2427 0.0
C677 C 0.81086 0.12296 0.24347 0.0
C678 C 0.80049 0.0806 0.21156 0.0
C679 C 0.82547 0.13591 0.22808 0.0
C680 C 0.80252 0.07769 0.17883 0.0
C681 C 0.7497 0.01751 0.17697 0.0
N682 N 0.81964 0.11492 0.21274 0.0
N683 N 0.76517 0.03164 0.19265 0.0
H684 H 0.2635 0.24874 0.41945 0.0
H685 H 0.10714 0.35085 0.47756 0.0
H686 H 0.17178 0.31633 0.39789 0.0
H687 H 0.16945 0.25008 0.49135 0.0
H688 H 0.14427 0.35414 0.45131 0.0
H689 H 0.24359 0.26645 0.44878 0.0
C690 C 0.2399 0.26825 0.42085 0.0
C691 C 0.21876 0.28043 0.40613 0.0
C692 C 0.15021 0.33178 0.46028 0.0
C693 C 0.19573 0.3005 0.43972 0.0
C694 C 0.12918 0.32995 0.47526 0.0
C695 C 0.13494 0.29985 0.48648 0.0
C696 C 0.17756 0.3037 0.45675 0.0
C697 C 0.16376 0.27345 0.4829 0.0
C698 C 0.22838 0.27809 0.43763 0.0
C699 C 0.18852 0.30578 0.40886 0.0
N700 N 0.18383 0.27586 0.4683 0.0
N701 N 0.17749 0.31451 0.42532 0.0
H702 H 0.90981 0.65429 0.64459 0.0
H703 H 0.9656 0.67565 0.74465 0.0
H704 H 0.96945 0.754 0.66873 0.0
H705 H 0.87791 0.59579 0.72343 0.0
H706 H 0.96078 0.70952 0.71762 0.0
H707 H 0.89022 0.63726 0.67334 0.0
C708 C 0.918 0.67315 0.65587 0.0
C709 C 0.942 0.70519 0.65426 0.0
C710 C 0.94197 0.68508 0.71896 0.0
C711 C 0.92032 0.68542 0.68727 0.0
C712 C 0.94477 0.66569 0.7344 0.0
C713 C 0.92245 0.63261 0.73619 0.0
C714 C 0.91733 0.67075 0.705 0.0
C715 C 0.89575 0.62112 0.72255 0.0
C716 C 0.90684 0.66336 0.67231 0.0
C717 C 0.95138 0.72875 0.66933 0.0
N718 N 0.89452 0.63966 0.70736 0.0
N719 N 0.94128 0.71791 0.68524 0.0
H720 H 0.67218 0.16889 0.42052 0.0
H721 H 0.72681 0.21376 0.33783 0.0
H722 H 0.62635 0.06365 0.39513 0.0
H723 H 0.73049 0.09058 0.33037 0.0
H724 H 0.68833 0.20634 0.36333 0.0
H725 H 0.69201 0.18901 0.39229 0.0
C726 C 0.6653 0.1505 0.40894 0.0
C727 C 0.64784 0.1144 0.41024 0.0
C728 C 0.69754 0.18099 0.35608 0.0
C729 C 0.67052 0.13718 0.37786 0.0
C730 C 0.71915 0.1852 0.34144 0.0
C731 C 0.73234 0.15271 0.33215 0.0
C732 C 0.68892 0.14403 0.36133 0.0
C733 C 0.72142 0.11639 0.33732 0.0
C734 C 0.67649 0.1621 0.39277 0.0
C735 C 0.6398 0.09168 0.39479 0.0
N736 N 0.70048 0.11304 0.35158 0.0
N737 N 0.65198 0.10308 0.37933 0.0
H738 H 0.21328 0.20457 0.64501 0.0
H739 H 0.03326 0.2808 0.59167 0.0
H740 H 0.10339 0.21733 0.66748 0.0
H741 H 0.13243 0.23515 0.56705 0.0
H742 H 0.0571 0.25595 0.61933 0.0
H743 H 0.18301 0.21232 0.61608 0.0
C744 C 0.18254 0.20823 0.64375 0.0
C745 C 0.16071 0.21046 0.65856 0.0
C746 C 0.07341 0.25102 0.60783 0.0
C747 C 0.12599 0.22048 0.62559 0.0
C748 C 0.05997 0.26543 0.59205 0.0
C749 C 0.08111 0.26044 0.57705 0.0
C750 C 0.10847 0.23191 0.60867 0.0
C751 C 0.1153 0.23992 0.5783 0.0
C752 C 0.16526 0.21274 0.62724 0.0
C753 C 0.12107 0.21525 0.6563 0.0
N754 N 0.12811 0.2268 0.59387 0.0
N755 N 0.10499 0.22087 0.6401 0.0
H756 H 0.0588 0.65001 0.90612 0.0
H757 H 0.9369 0.51154 0.83718 0.0
H758 H 0.98311 0.55964 0.92059 0.0
H759 H 0.99656 0.61345 0.82296 0.0
H760 H 0.9593 0.52488 0.8675 0.0
H761 H 0.04292 0.6323 0.87533 0.0
C762 C 0.03935 0.626 0.90284 0.0
C763 C 0.02215 0.60631 0.91597 0.0
C764 C 0.96754 0.54434 0.85776 0.0
C765 C 0.00357 0.58625 0.88075 0.0
C766 C 0.95474 0.53678 0.84042 0.0
C767 C 0.96475 0.56151 0.82747 0.0
C768 C 0.99071 0.57681 0.86229 0.0
C769 C 0.98798 0.59371 0.83251 0.0
C770 C 0.03007 0.61613 0.88525 0.0
C771 C 0.99694 0.57568 0.91091 0.0
N772 N 1.00019 0.60044 0.84953 0.0
N773 N 0.98828 0.56671 0.89371 0.0
H774 H 0.62934 0.52006 0.15484 0.0
H775 H 0.59774 0.45869 0.05337 0.0
H776 H 0.53462 0.4478 0.13429 0.0
H777 H 0.70916 0.4824 0.0789 0.0
H778 H 0.56875 0.46928 0.08163 0.0
H779 H 0.65322 0.52111 0.12545 0.0
C780 C 0.61345 0.50462 0.14412 0.0
C781 C 0.58036 0.48322 0.14701 0.0
C782 C 0.5995 0.47246 0.08095 0.0
C783 C 0.60721 0.48475 0.11346 0.0
C784 C 0.61602 0.46663 0.06486 0.0
C785 C 0.65592 0.46936 0.06387 0.0
C786 C 0.62304 0.48172 0.096 0.0
C787 C 0.67831 0.47962 0.07915 0.0
C788 C 0.62711 0.5052 0.1274 0.0
C789 C 0.56067 0.46402 0.13265 0.0
N790 N 0.66156 0.48541 0.0946 0.0
N791 N 0.57445 0.46516 0.11644 0.0
loop_
_geom_bond_atom_site_label_1
_geom_bond_atom_site_label_2
_geom_bond_distance
_geom_bond_site_symmetry_2
_ccdc_geom_bond_type
Mg0 O7 2.141 . S
Mg0 O8 2.048 . S
Mg0 O9 2.048 . S
Mg0 O12 2.141 . S
C1 O2 1.313 . S
C1 O8 1.195 . S
O2 C1 1.313 . S
C3 O4 1.245 . S
C3 O12 1.289 . S
O4 C3 1.245 . S
C5 O6 1.245 . S
C5 O7 1.289 . S
O6 C5 1.245 . S
O7 Mg0 2.141 . S
O7 C5 1.289 . S
O8 Mg0 2.048 . S
O8 C1 1.195 . S
O9 Mg0 2.048 . S
O9 C10 1.195 . S
C10 O9 1.195 . S
C10 O11 1.313 . S
O11 C10 1.313 . S
O12 Mg0 2.141 . S
O12 C3 1.289 . S
Mg13 O20 2.141 . S
Mg13 O21 2.048 . S
Mg13 O22 2.048 . S
Mg13 O25 2.141 . S
C14 O15 1.313 . S
C14 O21 1.195 . S
O15 C14 1.313 . S
C16 O17 1.245 . S
C16 O25 1.289 . S
O17 C16 1.245 . S
C18 O19 1.245 . S
C18 O20 1.289 . S
O19 C18 1.245 . S
O20 Mg13 2.141 . S
O20 C18 1.289 . S
O21 Mg13 2.048 . S
O21 C14 1.195 . S
O22 Mg13 2.048 . S
O22 C23 1.195 . S
C23 O22 1.195 . S
C23 O24 1.313 . S
O24 C23 1.313 . S
O25 Mg13 2.141 . S
O25 C16 1.289 . S
Mg26 O33 2.141 . S
Mg26 O34 2.048 . S
Mg26 O35 2.048 . S
Mg26 O38 2.141 . S
C27 O28 1.313 . S
C27 O34 1.195 . S
O28 C27 1.313 . S
C29 O30 1.245 . S
C29 O38 1.289 . S
O30 C29 1.245 . S
C31 O32 1.245 . S
C31 O33 1.289 . S
O32 C31 1.245 . S
O33 Mg26 2.141 . S
O33 C31 1.289 . S
O34 Mg26 2.048 . S
O34 C27 1.195 . S
O35 Mg26 2.048 . S
O35 C36 1.195 . S
C36 O35 1.195 . S
C36 O37 1.313 . S
O37 C36 1.313 . S
O38 Mg26 2.141 . S
O38 C29 1.289 . S
Mg39 O46 2.141 . S
Mg39 O47 2.048 . S
Mg39 O48 2.048 1_545 S
Mg39 O51 2.141 1_545 S
C40 O41 1.313 . S
C40 O47 1.195 . S
O41 C40 1.313 . S
C42 O43 1.245 . S
C42 O51 1.289 . S
O43 C42 1.245 . S
C44 O45 1.245 . S
C44 O46 1.289 . S
O45 C44 1.245 . S
O46 Mg39 2.141 . S
O46 C44 1.289 . S
O47 Mg39 2.048 . S
O47 C40 1.195 . S
O48 Mg39 2.048 1_565 S
O48 C49 1.195 . S
C49 O48 1.195 . S
C49 O50 1.313 . S
O50 C49 1.313 . S
O51 Mg39 2.141 1_565 S
O51 C42 1.289 . S
Mg52 O59 2.141 . S
Mg52 O60 2.048 . S
Mg52 O61 2.048 1_455 S
Mg52 O64 2.141 1_455 S
C53 O54 1.313 . S
C53 O60 1.195 . S
O54 C53 1.313 . S
C55 O56 1.245 . S
C55 O64 1.289 . S
O56 C55 1.245 . S
C57 O58 1.245 . S
C57 O59 1.289 . S
O58 C57 1.245 . S
O59 Mg52 2.141 . S
O59 C57 1.289 . S
O60 Mg52 2.048 . S
O60 C53 1.195 . S
O61 Mg52 2.048 1_655 S
O61 C62 1.195 . S
C62 O61 1.195 . S
C62 O63 1.313 . S
O63 C62 1.313 . S
O64 Mg52 2.141 1_655 S
O64 C55 1.289 . S
Mg65 O72 2.141 . S
Mg65 O73 2.048 . S
Mg65 O74 2.048 . S
Mg65 O77 2.141 . S
C66 O67 1.313 . S
C66 O73 1.195 . S
O67 C66 1.313 . S
C68 O69 1.245 . S
C68 O77 1.289 . S
O69 C68 1.245 . S
C70 O71 1.245 . S
C70 O72 1.289 . S
O71 C70 1.245 . S
O72 Mg65 2.141 . S
O72 C70 1.289 . S
O73 Mg65 2.048 . S
O73 C66 1.195 . S
O74 Mg65 2.048 . S
O74 C75 1.195 . S
C75 O74 1.195 . S
C75 O76 1.313 . S
O76 C75 1.313 . S
O77 Mg65 2.141 . S
O77 C68 1.289 . S
Mg78 O85 2.141 . S
Mg78 O86 2.048 . S
Mg78 O87 2.048 1_545 S
Mg78 O90 2.141 . S
C79 O80 1.313 . S
C79 O86 1.195 . S
O80 C79 1.313 . S
C81 O82 1.245 . S
C81 O90 1.289 . S
O82 C81 1.245 . S
C83 O84 1.245 . S
C83 O85 1.289 . S
O84 C83 1.245 . S
O85 Mg78 2.141 . S
O85 C83 1.289 . S
O86 Mg78 2.048 . S
O86 C79 1.195 . S
O87 Mg78 2.048 1_565 S
O87 C88 1.195 . S
C88 O87 1.195 . S
C88 O89 1.313 1_565 S
O89 C88 1.313 1_545 S
O90 Mg78 2.141 . S
O90 C81 1.289 . S
Mg91 O98 2.141 . S
Mg91 O99 2.048 . S
Mg91 O100 2.048 . S
Mg91 O103 2.141 . S
C92 O93 1.313 . S
C92 O99 1.195 . S
O93 C92 1.313 . S
C94 O95 1.245 . S
C94 O103 1.289 . S
O95 C94 1.245 . S
C96 O97 1.245 . S
C96 O98 1.289 . S
O97 C96 1.245 . S
O98 Mg91 2.141 . S
O98 C96 1.289 . S
O99 Mg91 2.048 . S
O99 C92 1.195 . S
O100 Mg91 2.048 . S
O100 C101 1.195 . S
C101 O100 1.195 . S
C101 O102 1.313 . S
O102 C101 1.313 . S
O103 Mg91 2.141 . S
O103 C94 1.289 . S
O104 Cd105 2.223 . S
O104 C112 1.315 . S
Cd105 O104 2.223 . S
Cd105 O108 2.297 . S
Cd105 O109 2.439 . S
Cd105 O115 2.240 . S
Cd106 O107 2.240 . S
Cd106 O114 2.223 . S
Cd106 O116 2.297 . S
Cd106 O117 2.439 . S
O107 Cd106 2.240 . S
O107 C112 1.279 . S
O108 Cd105 2.297 . S
O108 C110 1.247 . S
O109 Cd105 2.439 . S
O109 C110 1.208 . S
C110 O108 1.247 . S
C110 O109 1.208 . S
C111 O116 1.247 . S
C111 O117 1.208 . S
C112 O104 1.315 . S
C112 O107 1.279 . S
C113 O114 1.315 . S
C113 O115 1.279 . S
O114 Cd106 2.223 . S
O114 C113 1.315 . S
O115 Cd105 2.240 . S
O115 C113 1.279 . S
O116 Cd106 2.297 . S
O116 C111 1.247 . S
O117 Cd106 2.439 . S
O117 C111 1.208 . S
O118 Cd119 2.223 . S
O118 C126 1.315 . S
Cd119 O118 2.223 . S
Cd119 O122 2.297 . S
Cd119 O123 2.439 . S
Cd119 O129 2.240 . S
Cd120 O121 2.240 . S
Cd120 O128 2.223 . S
Cd120 O130 2.297 . S
Cd120 O131 2.439 . S
O121 Cd120 2.240 . S
O121 C126 1.279 . S
O122 Cd119 2.297 . S
O122 C124 1.247 . S
O123 Cd119 2.439 . S
O123 C124 1.208 . S
C124 O122 1.247 . S
C124 O123 1.208 . S
C125 O130 1.247 . S
C125 O131 1.208 . S
C126 O118 1.315 . S
C126 O121 1.279 . S
C127 O128 1.315 . S
C127 O129 1.279 . S
O128 Cd120 2.223 . S
O128 C127 1.315 . S
O129 Cd119 2.240 . S
O129 C127 1.279 . S
O130 Cd120 2.297 . S
O130 C125 1.247 . S
O131 Cd120 2.439 . S
O131 C125 1.208 . S
O132 Cd133 2.223 . S
O132 C140 1.315 . S
Cd133 O132 2.223 . S
Cd133 O136 2.297 . S
Cd133 O137 2.439 1_565 S
Cd133 O143 2.240 . S
Cd134 O135 2.240 . S
Cd134 O142 2.223 1_545 S
Cd134 O144 2.297 . S
Cd134 O145 2.439 . S
O135 Cd134 2.240 . S
O135 C140 1.279 1_545 S
O136 Cd133 2.297 . S
O136 C138 1.247 . S
O137 Cd133 2.439 1_545 S
O137 C138 1.208 1_545 S
C138 O136 1.247 . S
C138 O137 1.208 1_565 S
C139 O144 1.247 . S
C139 O145 1.208 . S
C140 O132 1.315 . S
C140 O135 1.279 1_565 S
C141 O142 1.315 . S
C141 O143 1.279 . S
O142 Cd134 2.223 1_565 S
O142 C141 1.315 . S
O143 Cd133 2.240 . S
O143 C141 1.279 . S
O144 Cd134 2.297 . S
O144 C139 1.247 . S
O145 Cd134 2.439 . S
O145 C139 1.208 . S
O146 Cd147 2.223 . S
O146 C154 1.315 . S
Cd147 O146 2.223 . S
Cd147 O150 2.297 . S
Cd147 O151 2.439 . S
Cd147 O157 2.240 . S
Cd148 O149 2.240 . S
Cd148 O156 2.223 . S
Cd148 O158 2.297 . S
Cd148 O159 2.439 . S
O149 Cd148 2.240 . S
O149 C154 1.279 . S
O150 Cd147 2.297 . S
O150 C152 1.247 . S
O151 Cd147 2.439 . S
O151 C152 1.208 . S
C152 O150 1.247 . S
C152 O151 1.208 . S
C153 O158 1.247 . S
C153 O159 1.208 . S
C154 O146 1.315 . S
C154 O149 1.279 . S
C155 O156 1.315 . S
C155 O157 1.279 . S
O156 Cd148 2.223 . S
O156 C155 1.315 . S
O157 Cd147 2.240 . S
O157 C155 1.279 . S
O158 Cd148 2.297 . S
O158 C153 1.247 . S
O159 Cd148 2.439 . S
O159 C153 1.208 . S
O160 Cd161 2.223 . S
O160 C168 1.315 1_655 S
Cd161 O160 2.223 . S
Cd161 O164 2.297 . S
Cd161 O165 2.439 1_655 S
Cd161 O171 2.240 . S
Cd162 O163 2.240 . S
Cd162 O170 2.223 1_455 S
Cd162 O172 2.297 . S
Cd162 O173 2.439 . S
O163 Cd162 2.240 . S
O163 C168 1.279 . S
O164 Cd161 2.297 . S
O164 C166 1.247 1_655 S
O165 Cd161 2.439 1_455 S
O165 C166 1.208 . S
C166 O164 1.247 1_455 S
C166 O165 1.208 . S
C167 O172 1.247 . S
C167 O173 1.208 . S
C168 O160 1.315 1_455 S
C168 O163 1.279 . S
C169 O170 1.315 . S
C169 O171 1.279 . S
O170 Cd162 2.223 1_655 S
O170 C169 1.315 . S
O171 Cd161 2.240 . S
O171 C169 1.279 . S
O172 Cd162 2.297 . S
O172 C167 1.247 . S
O173 Cd162 2.439 . S
O173 C167 1.208 . S
O174 Cd175 2.223 . S
O174 C182 1.315 . S
Cd175 O174 2.223 . S
Cd175 O178 2.297 . S
Cd175 O179 2.439 . S
Cd175 O185 2.240 . S
Cd176 O177 2.240 . S
Cd176 O184 2.223 . S
Cd176 O186 2.297 . S
Cd176 O187 2.439 . S
O177 Cd176 2.240 . S
O177 C182 1.279 . S
O178 Cd175 2.297 . S
O178 C180 1.247 . S
O179 Cd175 2.439 . S
O179 C180 1.208 . S
C180 O178 1.247 . S
C180 O179 1.208 . S
C181 O186 1.247 . S
C181 O187 1.208 . S
C182 O174 1.315 . S
C182 O177 1.279 . S
C183 O184 1.315 . S
C183 O185 1.279 . S
O184 Cd176 2.223 . S
O184 C183 1.315 . S
O185 Cd175 2.240 . S
O185 C183 1.279 . S
O186 Cd176 2.297 . S
O186 C181 1.247 . S
O187 Cd176 2.439 . S
O187 C181 1.208 . S
O188 Cd189 2.223 . S
O188 C196 1.315 . S
Cd189 O188 2.223 . S
Cd189 O192 2.297 . S
Cd189 O193 2.439 . S
Cd189 O199 2.240 . S
Cd190 O191 2.240 . S
Cd190 O198 2.223 . S
Cd190 O200 2.297 1_554 S
Cd190 O201 2.439 1_554 S
O191 Cd190 2.240 . S
O191 C196 1.279 . S
O192 Cd189 2.297 . S
O192 C194 1.247 . S
O193 Cd189 2.439 . S
O193 C194 1.208 . S
C194 O192 1.247 . S
C194 O193 1.208 . S
C195 O200 1.247 . S
C195 O201 1.208 . S
C196 O188 1.315 . S
C196 O191 1.279 . S
C197 O198 1.315 . S
C197 O199 1.279 . S
O198 Cd190 2.223 . S
O198 C197 1.315 . S
O199 Cd189 2.240 . S
O199 C197 1.279 . S
O200 Cd190 2.297 1_556 S
O200 C195 1.247 . S
O201 Cd190 2.439 1_556 S
O201 C195 1.208 . S
O202 Cd203 2.223 . S
O202 C210 1.315 . S
Cd203 O202 2.223 . S
Cd203 O206 2.297 . S
Cd203 O207 2.439 . S
Cd203 O213 2.240 . S
Cd204 O205 2.240 . S
Cd204 O212 2.223 . S
Cd204 O214 2.297 . S
Cd204 O215 2.439 . S
O205 Cd204 2.240 . S
O205 C210 1.279 . S
O206 Cd203 2.297 . S
O206 C208 1.247 . S
O207 Cd203 2.439 . S
O207 C208 1.208 . S
C208 O206 1.247 . S
C208 O207 1.208 . S
C209 O214 1.247 . S
C209 O215 1.208 . S
C210 O202 1.315 . S
C210 O205 1.279 . S
C211 O212 1.315 . S
C211 O213 1.279 . S
O212 Cd204 2.223 . S
O212 C211 1.315 . S
O213 Cd203 2.240 . S
O213 C211 1.279 . S
O214 Cd204 2.297 . S
O214 C209 1.247 . S
O215 Cd204 2.439 . S
O215 C209 1.208 . S
H216 C222 0.930 . S
H217 C226 0.930 . S
H218 C231 0.929 . S
H219 C229 0.929 . S
H220 C224 0.929 1_545 S
H221 C230 0.929 . S
C222 H216 0.930 . S
C222 C223 1.367 . S
C222 C230 1.378 1_545 S
C223 C222 1.367 . S
C223 C231 1.433 . S
C224 H220 0.929 1_565 S
C224 C226 1.378 . S
C224 C228 1.350 . S
C225 C228 1.465 . S
C225 C230 1.351 . S
C225 N233 1.424 1_565 S
C226 H217 0.930 . S
C226 C224 1.378 . S
C226 C227 1.367 . S
C227 C226 1.367 . S
C227 C229 1.433 . S
C228 C224 1.350 . S
C228 C225 1.465 . S
C228 N232 1.427 . S
C229 H219 0.929 . S
C229 C227 1.433 . S
C229 N232 1.384 . S
C230 H221 0.929 . S
C230 C222 1.378 1_565 S
C230 C225 1.351 . S
C231 H218 0.929 . S
C231 C223 1.433 . S
C231 N233 1.384 . S
N232 C228 1.427 . S
N232 C229 1.384 . S
N233 C225 1.424 1_545 S
N233 C231 1.384 . S
H234 C240 0.930 . S
H235 C244 0.930 . S
H236 C249 0.929 . S
H237 C247 0.929 . S
H238 C242 0.929 . S
H239 C248 0.929 . S
C240 H234 0.930 . S
C240 C241 1.367 . S
C240 C248 1.378 . S
C241 C240 1.367 . S
C241 C249 1.433 . S
C242 H238 0.929 . S
C242 C244 1.378 . S
C242 C246 1.350 . S
C243 C246 1.463 . S
C243 C248 1.350 . S
C243 N251 1.427 . S
C244 H235 0.930 . S
C244 C242 1.378 . S
C244 C245 1.367 . S
C245 C244 1.367 . S
C245 C247 1.433 . S
C246 C242 1.350 . S
C246 C243 1.463 . S
C246 N250 1.427 . S
C247 H237 0.929 . S
C247 C245 1.433 . S
C247 N250 1.384 . S
C248 H239 0.929 . S
C248 C240 1.378 . S
C248 C243 1.350 . S
C249 H236 0.929 . S
C249 C241 1.433 . S
C249 N251 1.384 . S
N250 C246 1.427 . S
N250 C247 1.384 . S
N251 C243 1.427 . S
N251 C249 1.384 . S
H252 C258 0.930 . S
H253 C262 0.930 . S
H254 C267 0.929 . S
H255 C265 0.929 . S
H256 C260 0.929 . S
H257 C266 0.929 . S
C258 H252 0.930 . S
C258 C259 1.367 . S
C258 C266 1.378 . S
C259 C258 1.367 . S
C259 C267 1.433 . S
C260 H256 0.929 . S
C260 C262 1.378 . S
C260 C264 1.350 . S
C261 C264 1.463 . S
C261 C266 1.350 . S
C261 N269 1.427 . S
C262 H253 0.930 . S
C262 C260 1.378 . S
C262 C263 1.367 . S
C263 C262 1.367 . S
C263 C265 1.433 . S
C264 C260 1.350 . S
C264 C261 1.463 . S
C264 N268 1.427 . S
C265 H255 0.929 . S
C265 C263 1.433 . S
C265 N268 1.384 . S
C266 H257 0.929 . S
C266 C258 1.378 . S
C266 C261 1.350 . S
C267 H254 0.929 . S
C267 C259 1.433 . S
C267 N269 1.384 . S
N268 C264 1.427 . S
N268 C265 1.384 . S
N269 C261 1.427 . S
N269 C267 1.384 . S
H270 C276 0.930 . S
H271 C280 0.930 . S
H272 C285 0.929 . S
H273 C283 0.929 . S
H274 C278 0.929 . S
H275 C284 0.929 . S
C276 H270 0.930 . S
C276 C277 1.367 . S
C276 C284 1.378 . S
C277 C276 1.367 . S
C277 C285 1.433 . S
C278 H274 0.929 . S
C278 C280 1.378 . S
C278 C282 1.350 . S
C279 C282 1.463 . S
C279 C284 1.350 . S
C279 N287 1.427 . S
C280 H271 0.930 . S
C280 C278 1.378 . S
C280 C281 1.367 . S
C281 C280 1.367 . S
C281 C283 1.433 . S
C282 C278 1.350 . S
C282 C279 1.463 . S
C282 N286 1.427 . S
C283 H273 0.929 . S
C283 C281 1.433 . S
C283 N286 1.384 . S
C284 H275 0.929 . S
C284 C276 1.378 . S
C284 C279 1.350 . S
C285 H272 0.929 . S
C285 C277 1.433 . S
C285 N287 1.384 . S
N286 C282 1.427 . S
N286 C283 1.384 . S
N287 C279 1.427 . S
N287 C285 1.384 . S
H288 C294 0.933 . S
H289 C298 0.930 . S
H290 C303 0.929 . S
H291 C301 0.929 . S
H292 C296 0.929 . S
H293 C302 0.929 . S
C294 H288 0.933 . S
C294 C295 1.380 . S
C294 C302 1.363 1_556 S
C295 C294 1.380 . S
C295 C303 1.433 . S
C296 H292 0.929 . S
C296 C298 1.378 . S
C296 C300 1.350 . S
C297 C300 1.463 . S
C297 C302 1.350 . S
C297 N305 1.448 . S
C298 H289 0.930 . S
C298 C296 1.378 . S
C298 C299 1.367 . S
C299 C298 1.367 . S
C299 C301 1.433 . S
C300 C296 1.350 . S
C300 C297 1.463 . S
C300 N304 1.427 . S
C301 H291 0.929 . S
C301 C299 1.433 . S
C301 N304 1.384 . S
C302 H293 0.929 . S
C302 C294 1.363 1_554 S
C302 C297 1.350 . S
C303 H290 0.929 . S
C303 C295 1.433 . S
C303 N305 1.361 1_556 S
N304 C300 1.427 . S
N304 C301 1.384 . S
N305 C297 1.448 . S
N305 C303 1.361 1_554 S
H306 C312 0.930 . S
H307 C316 0.930 . S
H308 C321 0.929 . S
H309 C319 0.929 . S
H310 C314 0.929 . S
H311 C320 0.929 . S
C312 H306 0.930 . S
C312 C313 1.367 . S
C312 C320 1.378 . S
C313 C312 1.367 . S
C313 C321 1.433 . S
C314 H310 0.929 . S
C314 C316 1.378 . S
C314 C318 1.350 . S
C315 C318 1.463 . S
C315 C320 1.350 . S
C315 N323 1.427 . S
C316 H307 0.930 . S
C316 C314 1.378 . S
C316 C317 1.367 . S
C317 C316 1.367 . S
C317 C319 1.433 . S
C318 C314 1.350 . S
C318 C315 1.463 . S
C318 N322 1.427 . S
C319 H309 0.929 . S
C319 C317 1.433 . S
C319 N322 1.384 . S
C320 H311 0.929 . S
C320 C312 1.378 . S
C320 C315 1.350 . S
C321 H308 0.929 . S
C321 C313 1.433 . S
C321 N323 1.384 . S
N322 C318 1.427 . S
N322 C319 1.384 . S
N323 C315 1.427 . S
N323 C321 1.384 . S
H324 C330 0.930 . S
H325 C334 0.930 . S
H326 C339 0.929 . S
H327 C337 0.929 . S
H328 C332 0.929 . S
H329 C338 0.929 . S
C330 H324 0.930 . S
C330 C331 1.367 . S
C330 C338 1.378 . S
C331 C330 1.367 . S
C331 C339 1.433 1_545 S
C332 H328 0.929 . S
C332 C334 1.378 . S
C332 C336 1.350 1_565 S
C333 C336 1.463 . S
C333 C338 1.350 . S
C333 N341 1.427 1_545 S
C334 H325 0.930 . S
C334 C332 1.378 . S
C334 C335 1.367 1_565 S
C335 C334 1.367 1_545 S
C335 C337 1.433 . S
C336 C332 1.350 1_545 S
C336 C333 1.463 . S
C336 N340 1.427 . S
C337 H327 0.929 . S
C337 C335 1.433 . S
C337 N340 1.384 . S
C338 H329 0.929 . S
C338 C330 1.378 . S
C338 C333 1.350 . S
C339 H326 0.929 . S
C339 C331 1.433 1_565 S
C339 N341 1.384 . S
N340 C336 1.427 . S
N340 C337 1.384 . S
N341 C333 1.427 1_565 S
N341 C339 1.384 . S
H342 C348 0.930 . S
H343 C352 0.930 . S
H344 C357 0.929 . S
H345 C355 0.929 1_565 S
H346 C350 0.929 . S
H347 C356 0.929 . S
C348 H342 0.930 . S
C348 C349 1.367 . S
C348 C356 1.378 . S
C349 C348 1.367 . S
C349 C357 1.433 . S
C350 H346 0.929 . S
C350 C352 1.378 . S
C350 C354 1.350 . S
C351 C354 1.463 . S
C351 C356 1.350 . S
C351 N359 1.427 . S
C352 H343 0.930 . S
C352 C350 1.378 . S
C352 C353 1.367 . S
C353 C352 1.367 . S
C353 C355 1.433 . S
C354 C350 1.350 . S
C354 C351 1.463 . S
C354 N358 1.427 . S
C355 H345 0.929 1_545 S
C355 C353 1.433 . S
C355 N358 1.384 . S
C356 H347 0.929 . S
C356 C348 1.378 . S
C356 C351 1.350 . S
C357 H344 0.929 . S
C357 C349 1.433 . S
C357 N359 1.384 . S
N358 C354 1.427 . S
N358 C355 1.384 . S
N359 C351 1.427 . S
N359 C357 1.384 . S
H360 C366 0.930 . S
H361 C370 0.930 . S
H362 C375 0.929 . S
H363 C373 0.929 . S
H364 C368 0.929 . S
H365 C374 0.929 . S
C366 H360 0.930 . S
C366 C367 1.367 . S
C366 C374 1.378 . S
C367 C366 1.367 . S
C367 C375 1.433 . S
C368 H364 0.929 . S
C368 C370 1.378 . S
C368 C372 1.350 . S
C369 C372 1.463 . S
C369 C374 1.350 . S
C369 N377 1.427 . S
C370 H361 0.930 . S
C370 C368 1.378 . S
C370 C371 1.367 . S
C371 C370 1.367 . S
C371 C373 1.433 . S
C372 C368 1.350 . S
C372 C369 1.463 . S
C372 N376 1.427 . S
C373 H363 0.929 . S
C373 C371 1.433 . S
C373 N376 1.384 . S
C374 H365 0.929 . S
C374 C366 1.378 . S
C374 C369 1.350 . S
C375 H362 0.929 . S
C375 C367 1.433 . S
C375 N377 1.384 . S
N376 C372 1.427 . S
N376 C373 1.384 . S
N377 C369 1.427 . S
N377 C375 1.384 . S
H378 C384 0.930 . S
H379 C388 0.930 . S
H380 C393 0.929 . S
H381 C391 0.929 . S
H382 C386 0.929 . S
H383 C392 0.929 . S
C384 H378 0.930 . S
C384 C385 1.367 . S
C384 C392 1.378 . S
C385 C384 1.367 . S
C385 C393 1.433 . S
C386 H382 0.929 . S
C386 C388 1.378 . S
C386 C390 1.350 . S
C387 C390 1.463 . S
C387 C392 1.350 . S
C387 N395 1.427 . S
C388 H379 0.930 . S
C388 C386 1.378 . S
C388 C389 1.367 . S
C389 C388 1.367 . S
C389 C391 1.433 . S
C390 C386 1.350 . S
C390 C387 1.463 . S
C390 N394 1.427 . S
C391 H381 0.929 . S
C391 C389 1.433 . S
C391 N394 1.384 . S
C392 H383 0.929 . S
C392 C384 1.378 . S
C392 C387 1.350 . S
C393 H380 0.929 . S
C393 C385 1.433 . S
C393 N395 1.384 . S
N394 C390 1.427 . S
N394 C391 1.384 . S
N395 C387 1.427 . S
N395 C393 1.384 . S
H396 C402 0.930 . S
H397 C406 0.930 . S
H398 C411 0.929 . S
H399 C409 0.929 . S
H400 C404 0.929 . S
H401 C410 0.929 . S
C402 H396 0.930 . S
C402 C403 1.367 . S
C402 C410 1.378 . S
C403 C402 1.367 . S
C403 C411 1.433 . S
C404 H400 0.929 . S
C404 C406 1.378 . S
C404 C408 1.350 . S
C405 C408 1.463 . S
C405 C410 1.350 . S
C405 N413 1.427 . S
C406 H397 0.930 . S
C406 C404 1.378 . S
C406 C407 1.367 1_455 S
C407 C406 1.367 1_655 S
C407 C409 1.433 . S
C408 C404 1.350 . S
C408 C405 1.463 . S
C408 N412 1.427 . S
C409 H399 0.929 . S
C409 C407 1.433 . S
C409 N412 1.384 1_655 S
C410 H401 0.929 . S
C410 C402 1.378 . S
C410 C405 1.350 . S
C411 H398 0.929 . S
C411 C403 1.433 . S
C411 N413 1.384 . S
N412 C408 1.427 . S
N412 C409 1.384 1_455 S
N413 C405 1.427 . S
N413 C411 1.384 . S
H414 C420 0.931 . S
H415 C424 0.930 . S
H416 C429 0.929 . S
H417 C427 0.929 . S
H418 C422 0.929 . S
H419 C428 0.929 . S
C420 H414 0.931 . S
C420 C421 1.366 1_655 S
C420 C428 1.378 . S
C421 C420 1.366 1_455 S
C421 C429 1.433 . S
C422 H418 0.929 . S
C422 C424 1.378 . S
C422 C426 1.350 . S
C423 C426 1.463 . S
C423 C428 1.350 1_455 S
C423 N431 1.427 . S
C424 H415 0.930 . S
C424 C422 1.378 . S
C424 C425 1.367 . S
C425 C424 1.367 . S
C425 C427 1.433 1_455 S
C426 C422 1.350 . S
C426 C423 1.463 . S
C426 N430 1.427 1_455 S
C427 H417 0.929 . S
C427 C425 1.433 1_655 S
C427 N430 1.384 . S
C428 H419 0.929 . S
C428 C420 1.378 . S
C428 C423 1.350 1_655 S
C429 H416 0.929 . S
C429 C421 1.433 . S
C429 N431 1.384 . S
N430 C426 1.427 1_655 S
N430 C427 1.384 . S
N431 C423 1.427 . S
N431 C429 1.384 . S
H432 C438 0.930 . S
H433 C442 0.930 . S
H434 C447 0.929 . S
H435 C445 0.929 . S
H436 C440 0.929 . S
H437 C446 0.929 . S
C438 H432 0.930 . S
C438 C439 1.367 . S
C438 C446 1.378 . S
C439 C438 1.367 . S
C439 C447 1.433 . S
C440 H436 0.929 . S
C440 C442 1.378 . S
C440 C444 1.350 . S
C441 C444 1.463 . S
C441 C446 1.350 . S
C441 N449 1.427 . S
C442 H433 0.930 . S
C442 C440 1.378 . S
C442 C443 1.367 . S
C443 C442 1.367 . S
C443 C445 1.433 . S
C444 C440 1.350 . S
C444 C441 1.463 . S
C444 N448 1.427 . S
C445 H435 0.929 . S
C445 C443 1.433 . S
C445 N448 1.384 . S
C446 H437 0.929 . S
C446 C438 1.378 . S
C446 C441 1.350 . S
C447 H434 0.929 . S
C447 C439 1.433 . S
C447 N449 1.384 . S
N448 C444 1.427 . S
N448 C445 1.384 . S
N449 C441 1.427 . S
N449 C447 1.384 . S
H450 C456 0.930 . S
H451 C460 0.930 . S
H452 C465 0.929 . S
H453 C463 0.929 . S
H454 C458 0.929 . S
H455 C464 0.929 . S
C456 H450 0.930 . S
C456 C457 1.367 . S
C456 C464 1.378 . S
C457 C456 1.367 . S
C457 C465 1.433 . S
C458 H454 0.929 . S
C458 C460 1.378 . S
C458 C462 1.350 . S
C459 C462 1.463 1_455 S
C459 C464 1.350 . S
C459 N467 1.427 . S
C460 H451 0.930 . S
C460 C458 1.378 . S
C460 C461 1.367 . S
C461 C460 1.367 . S
C461 C463 1.433 . S
C462 C458 1.350 . S
C462 C459 1.463 1_655 S
C462 N466 1.427 . S
C463 H453 0.929 . S
C463 C461 1.433 . S
C463 N466 1.384 . S
C464 H455 0.929 . S
C464 C456 1.378 . S
C464 C459 1.350 . S
C465 H452 0.929 . S
C465 C457 1.433 . S
C465 N467 1.384 . S
N466 C462 1.427 . S
N466 C463 1.384 . S
N467 C459 1.427 . S
N467 C465 1.384 . S
H468 C474 0.930 . S
H469 C478 0.930 . S
H470 C483 0.929 . S
H471 C481 0.929 . S
H472 C476 0.929 . S
H473 C482 0.929 . S
C474 H468 0.930 . S
C474 C475 1.367 . S
C474 C482 1.378 . S
C475 C474 1.367 . S
C475 C483 1.433 . S
C476 H472 0.929 . S
C476 C478 1.378 . S
C476 C480 1.350 1_554 S
C477 C480 1.463 . S
C477 C482 1.350 . S
C477 N485 1.427 . S
C478 H469 0.930 . S
C478 C476 1.378 . S
C478 C479 1.367 . S
C479 C478 1.367 . S
C479 C481 1.433 1_554 S
C480 C476 1.350 1_556 S
C480 C477 1.463 . S
C480 N484 1.427 . S
C481 H471 0.929 . S
C481 C479 1.433 1_556 S
C481 N484 1.384 . S
C482 H473 0.929 . S
C482 C474 1.378 . S
C482 C477 1.350 . S
C483 H470 0.929 . S
C483 C475 1.433 . S
C483 N485 1.384 . S
N484 C480 1.427 . S
N484 C481 1.384 . S
N485 C477 1.427 . S
N485 C483 1.384 . S
H486 C492 0.930 . S
H487 C496 0.930 . S
H488 C501 0.929 . S
H489 C499 0.929 . S
H490 C494 0.929 . S
H491 C500 0.929 . S
C492 H486 0.930 . S
C492 C493 1.367 . S
C492 C500 1.378 . S
C493 C492 1.367 . S
C493 C501 1.433 . S
C494 H490 0.929 . S
C494 C496 1.378 . S
C494 C498 1.350 . S
C495 C498 1.463 . S
C495 C500 1.350 . S
C495 N503 1.427 . S
C496 H487 0.930 . S
C496 C494 1.378 . S
C496 C497 1.367 . S
C497 C496 1.367 . S
C497 C499 1.433 . S
C498 C494 1.350 . S
C498 C495 1.463 . S
C498 N502 1.427 . S
C499 H489 0.929 . S
C499 C497 1.433 . S
C499 N502 1.384 . S
C500 H491 0.929 . S
C500 C492 1.378 . S
C500 C495 1.350 . S
C501 H488 0.929 . S
C501 C493 1.433 . S
C501 N503 1.384 . S
N502 C498 1.427 . S
N502 C499 1.384 . S
N503 C495 1.427 . S
N503 C501 1.384 . S
H504 C510 0.930 . S
H505 C514 0.930 . S
H506 C519 0.929 . S
H507 C517 0.929 . S
H508 C512 0.929 . S
H509 C518 0.929 . S
C510 H504 0.930 . S
C510 C511 1.367 . S
C510 C518 1.378 . S
C511 C510 1.367 . S
C511 C519 1.433 . S
C512 H508 0.929 . S
C512 C514 1.378 . S
C512 C516 1.350 1_565 S
C513 C516 1.463 . S
C513 C518 1.350 . S
C513 N521 1.427 . S
C514 H505 0.930 . S
C514 C512 1.378 . S
C514 C515 1.367 1_565 S
C515 C514 1.367 1_545 S
C515 C517 1.433 . S
C516 C512 1.350 1_545 S
C516 C513 1.463 . S
C516 N520 1.427 . S
C517 H507 0.929 . S
C517 C515 1.433 . S
C517 N520 1.384 . S
C518 H509 0.929 . S
C518 C510 1.378 . S
C518 C513 1.350 . S
C519 H506 0.929 . S
C519 C511 1.433 . S
C519 N521 1.384 . S
N520 C516 1.427 . S
N520 C517 1.384 . S
N521 C513 1.427 . S
N521 C519 1.384 . S
H522 C528 0.930 . S
H523 C532 0.930 . S
H524 C537 0.929 . S
H525 C535 0.929 . S
H526 C530 0.929 . S
H527 C536 0.929 . S
C528 H522 0.930 . S
C528 C529 1.367 . S
C528 C536 1.378 . S
C529 C528 1.367 . S
C529 C537 1.433 . S
C530 H526 0.929 . S
C530 C532 1.378 . S
C530 C534 1.350 . S
C531 C534 1.463 . S
C531 C536 1.350 . S
C531 N539 1.427 . S
C532 H523 0.930 . S
C532 C530 1.378 . S
C532 C533 1.367 . S
C533 C532 1.367 . S
C533 C535 1.433 . S
C534 C530 1.350 . S
C534 C531 1.463 . S
C534 N538 1.427 . S
C535 H525 0.929 . S
C535 C533 1.433 . S
C535 N538 1.384 . S
C536 H527 0.929 . S
C536 C528 1.378 . S
C536 C531 1.350 . S
C537 H524 0.929 . S
C537 C529 1.433 . S
C537 N539 1.384 . S
N538 C534 1.427 . S
N538 C535 1.384 . S
N539 C531 1.427 . S
N539 C537 1.384 . S
H540 C546 0.930 . S
H541 C550 0.930 . S
H542 C555 0.929 . S
H543 C553 0.931 . S
H544 C548 0.929 . S
H545 C554 0.929 . S
C546 H540 0.930 . S
C546 C547 1.367 . S
C546 C554 1.378 . S
C547 C546 1.367 . S
C547 C555 1.433 . S
C548 H544 0.929 . S
C548 C550 1.378 . S
C548 C552 1.350 . S
C549 C552 1.463 . S
C549 C554 1.350 . S
C549 N557 1.427 . S
C550 H541 0.930 . S
C550 C548 1.378 . S
C550 C551 1.319 1_556 S
C551 C550 1.319 1_554 S
C551 C553 1.432 . S
C552 C548 1.350 . S
C552 C549 1.463 . S
C552 N556 1.427 . S
C553 H543 0.931 . S
C553 C551 1.432 . S
C553 N556 1.382 1_554 S
C554 H545 0.929 . S
C554 C546 1.378 . S
C554 C549 1.350 . S
C555 H542 0.929 . S
C555 C547 1.433 . S
C555 N557 1.384 . S
N556 C552 1.427 . S
N556 C553 1.382 1_556 S
N557 C549 1.427 . S
N557 C555 1.384 . S
H558 C564 0.930 . S
H559 C568 0.930 . S
H560 C573 0.929 . S
H561 C571 0.929 . S
H562 C566 0.929 . S
H563 C572 0.929 . S
C564 H558 0.930 . S
C564 C565 1.367 . S
C564 C572 1.378 . S
C565 C564 1.367 . S
C565 C573 1.433 . S
C566 H562 0.929 . S
C566 C568 1.378 . S
C566 C570 1.350 . S
C567 C570 1.463 . S
C567 C572 1.350 . S
C567 N575 1.427 . S
C568 H559 0.930 . S
C568 C566 1.378 . S
C568 C569 1.367 . S
C569 C568 1.367 . S
C569 C571 1.433 . S
C570 C566 1.350 . S
C570 C567 1.463 . S
C570 N574 1.427 . S
C571 H561 0.929 . S
C571 C569 1.433 . S
C571 N574 1.384 . S
C572 H563 0.929 . S
C572 C564 1.378 . S
C572 C567 1.350 . S
C573 H560 0.929 . S
C573 C565 1.433 . S
C573 N575 1.384 . S
N574 C570 1.427 . S
N574 C571 1.384 . S
N575 C567 1.427 . S
N575 C573 1.384 . S
H576 C582 0.930 . S
H577 C586 0.930 . S
H578 C591 0.929 . S
H579 C589 0.929 . S
H580 C584 0.929 . S
H581 C590 0.929 . S
C582 H576 0.930 . S
C582 C583 1.367 . S
C582 C590 1.378 . S
C583 C582 1.367 . S
C583 C591 1.433 . S
C584 H580 0.929 . S
C584 C586 1.378 . S
C584 C588 1.350 . S
C585 C588 1.463 . S
C585 C590 1.350 . S
C585 N593 1.427 . S
C586 H577 0.930 . S
C586 C584 1.378 . S
C586 C587 1.367 . S
C587 C586 1.367 . S
C587 C589 1.433 . S
C588 C584 1.350 . S
C588 C585 1.463 . S
C588 N592 1.427 . S
C589 H579 0.929 . S
C589 C587 1.433 . S
C589 N592 1.384 . S
C590 H581 0.929 . S
C590 C582 1.378 . S
C590 C585 1.350 . S
C591 H578 0.929 . S
C591 C583 1.433 . S
C591 N593 1.384 . S
N592 C588 1.427 . S
N592 C589 1.384 . S
N593 C585 1.427 . S
N593 C591 1.384 . S
H594 C600 0.930 . S
H595 C604 0.930 . S
H596 C609 0.929 . S
H597 C607 0.929 . S
H598 C602 0.929 . S
H599 C608 0.929 . S
C600 H594 0.930 . S
C600 C601 1.367 . S
C600 C608 1.378 . S
C601 C600 1.367 . S
C601 C609 1.433 . S
C602 H598 0.929 . S
C602 C604 1.378 . S
C602 C606 1.350 . S
C603 C606 1.463 . S
C603 C608 1.350 . S
C603 N611 1.427 . S
C604 H595 0.930 . S
C604 C602 1.378 . S
C604 C605 1.367 . S
C605 C604 1.367 . S
C605 C607 1.433 . S
C606 C602 1.350 . S
C606 C603 1.463 . S
C606 N610 1.427 . S
C607 H597 0.929 . S
C607 C605 1.433 . S
C607 N610 1.384 . S
C608 H599 0.929 . S
C608 C600 1.378 . S
C608 C603 1.350 . S
C609 H596 0.929 . S
C609 C601 1.433 . S
C609 N611 1.384 . S
N610 C606 1.427 . S
N610 C607 1.384 . S
N611 C603 1.427 . S
N611 C609 1.384 . S
H612 C618 0.930 . S
H613 C622 0.930 . S
H614 C627 0.929 . S
H615 C625 0.929 . S
H616 C620 0.929 . S
H617 C626 0.929 . S
C618 H612 0.930 . S
C618 C619 1.367 . S
C618 C626 1.378 . S
C619 C618 1.367 . S
C619 C627 1.433 . S
C620 H616 0.929 . S
C620 C622 1.378 . S
C620 C624 1.350 . S
C621 C624 1.463 . S
C621 C626 1.350 . S
C621 N629 1.427 . S
C622 H613 0.930 . S
C622 C620 1.378 . S
C622 C623 1.367 . S
C623 C622 1.367 . S
C623 C625 1.433 . S
C624 C620 1.350 . S
C624 C621 1.463 . S
C624 N628 1.427 . S
C625 H615 0.929 . S
C625 C623 1.433 . S
C625 N628 1.384 . S
C626 H617 0.929 . S
C626 C618 1.378 . S
C626 C621 1.350 . S
C627 H614 0.929 . S
C627 C619 1.433 . S
C627 N629 1.384 . S
N628 C624 1.427 . S
N628 C625 1.384 . S
N629 C621 1.427 . S
N629 C627 1.384 . S
H630 C636 0.930 . S
H631 C640 0.930 . S
H632 C645 0.929 . S
H633 C643 0.929 . S
H634 C638 0.929 . S
H635 C644 0.929 . S
C636 H630 0.930 . S
C636 C637 1.367 . S
C636 C644 1.378 . S
C637 C636 1.367 . S
C637 C645 1.433 . S
C638 H634 0.929 . S
C638 C640 1.378 . S
C638 C642 1.350 . S
C639 C642 1.463 . S
C639 C644 1.350 . S
C639 N647 1.427 . S
C640 H631 0.930 . S
C640 C638 1.378 . S
C640 C641 1.367 . S
C641 C640 1.367 . S
C641 C643 1.433 . S
C642 C638 1.350 . S
C642 C639 1.463 . S
C642 N646 1.427 . S
C643 H633 0.929 . S
C643 C641 1.433 . S
C643 N646 1.384 . S
C644 H635 0.929 . S
C644 C636 1.378 . S
C644 C639 1.350 . S
C645 H632 0.929 . S
C645 C637 1.433 . S
C645 N647 1.384 . S
N646 C642 1.427 . S
N646 C643 1.384 . S
N647 C639 1.427 . S
N647 C645 1.384 . S
H648 C654 0.930 . S
H649 C658 0.930 . S
H650 C663 0.929 . S
H651 C661 0.929 . S
H652 C656 0.929 . S
H653 C662 0.929 . S
C654 H648 0.930 . S
C654 C655 1.367 . S
C654 C662 1.378 . S
C655 C654 1.367 . S
C655 C663 1.433 . S
C656 H652 0.929 . S
C656 C658 1.378 . S
C656 C660 1.350 . S
C657 C660 1.463 . S
C657 C662 1.350 . S
C657 N665 1.427 . S
C658 H649 0.930 . S
C658 C656 1.378 . S
C658 C659 1.367 . S
C659 C658 1.367 . S
C659 C661 1.433 . S
C660 C656 1.350 . S
C660 C657 1.463 . S
C660 N664 1.427 . S
C661 H651 0.929 . S
C661 C659 1.433 . S
C661 N664 1.384 . S
C662 H653 0.929 . S
C662 C654 1.378 . S
C662 C657 1.350 . S
C663 H650 0.929 . S
C663 C655 1.433 . S
C663 N665 1.384 . S
N664 C660 1.427 . S
N664 C661 1.384 . S
N665 C657 1.427 . S
N665 C663 1.384 . S
H666 C672 0.930 . S
H667 C676 0.930 . S
H668 C681 0.929 . S
H669 C679 0.929 . S
H670 C674 0.929 . S
H671 C680 0.929 . S
C672 H666 0.930 . S
C672 C673 1.367 . S
C672 C680 1.378 . S
C673 C672 1.367 . S
C673 C681 1.433 . S
C674 H670 0.929 . S
C674 C676 1.378 . S
C674 C678 1.350 . S
C675 C678 1.463 . S
C675 C680 1.350 . S
C675 N683 1.427 . S
C676 H667 0.930 . S
C676 C674 1.378 . S
C676 C677 1.367 . S
C677 C676 1.367 . S
C677 C679 1.433 . S
C678 C674 1.350 . S
C678 C675 1.463 . S
C678 N682 1.427 . S
C679 H669 0.929 . S
C679 C677 1.433 . S
C679 N682 1.384 . S
C680 H671 0.929 . S
C680 C672 1.378 . S
C680 C675 1.350 . S
C681 H668 0.929 . S
C681 C673 1.433 . S
C681 N683 1.384 . S
N682 C678 1.427 . S
N682 C679 1.384 . S
N683 C675 1.427 . S
N683 C681 1.384 . S
H684 C690 0.930 . S
H685 C694 0.930 . S
H686 C699 0.929 . S
H687 C697 0.929 . S
H688 C692 0.929 . S
H689 C698 0.929 . S
C690 H684 0.930 . S
C690 C691 1.367 . S
C690 C698 1.378 . S
C691 C690 1.367 . S
C691 C699 1.433 . S
C692 H688 0.929 . S
C692 C694 1.378 . S
C692 C696 1.350 . S
C693 C696 1.463 . S
C693 C698 1.350 . S
C693 N701 1.427 . S
C694 H685 0.930 . S
C694 C692 1.378 . S
C694 C695 1.367 . S
C695 C694 1.367 . S
C695 C697 1.433 . S
C696 C692 1.350 . S
C696 C693 1.463 . S
C696 N700 1.427 . S
C697 H687 0.929 . S
C697 C695 1.433 . S
C697 N700 1.384 . S
C698 H689 0.929 . S
C698 C690 1.378 . S
C698 C693 1.350 . S
C699 H686 0.929 . S
C699 C691 1.433 . S
C699 N701 1.384 . S
N700 C696 1.427 . S
N700 C697 1.384 . S
N701 C693 1.427 . S
N701 C699 1.384 . S
H702 C708 0.930 1_455 S
H703 C712 0.930 . S
H704 C717 0.929 . S
H705 C715 0.929 . S
H706 C710 0.929 . S
H707 C716 0.929 . S
C708 H702 0.930 1_655 S
C708 C709 1.367 . S
C708 C716 1.378 . S
C709 C708 1.367 . S
C709 C717 1.433 . S
C710 H706 0.929 . S
C710 C712 1.378 . S
C710 C714 1.350 . S
C711 C714 1.463 . S
C711 C716 1.350 . S
C711 N719 1.427 . S
C712 H703 0.930 . S
C712 C710 1.378 . S
C712 C713 1.367 . S
C713 C712 1.367 . S
C713 C715 1.433 . S
C714 C710 1.350 . S
C714 C711 1.463 . S
C714 N718 1.427 . S
C715 H705 0.929 . S
C715 C713 1.433 . S
C715 N718 1.384 . S
C716 H707 0.929 . S
C716 C708 1.378 . S
C716 C711 1.350 . S
C717 H704 0.929 . S
C717 C709 1.433 . S
C717 N719 1.384 . S
N718 C714 1.427 . S
N718 C715 1.384 . S
N719 C711 1.427 . S
N719 C717 1.384 . S
H720 C726 0.930 . S
H721 C730 0.930 . S
H722 C735 0.929 . S
H723 C733 0.929 . S
H724 C728 0.929 . S
H725 C734 0.929 . S
C726 H720 0.930 . S
C726 C727 1.367 . S
C726 C734 1.378 . S
C727 C726 1.367 . S
C727 C735 1.433 . S
C728 H724 0.929 . S
C728 C730 1.378 . S
C728 C732 1.350 . S
C729 C732 1.463 . S
C729 C734 1.350 . S
C729 N737 1.427 . S
C730 H721 0.930 . S
C730 C728 1.378 . S
C730 C731 1.367 . S
C731 C730 1.367 . S
C731 C733 1.433 . S
C732 C728 1.350 . S
C732 C729 1.463 . S
C732 N736 1.427 . S
C733 H723 0.929 . S
C733 C731 1.433 . S
C733 N736 1.384 . S
C734 H725 0.929 . S
C734 C726 1.378 . S
C734 C729 1.350 . S
C735 H722 0.929 . S
C735 C727 1.433 . S
C735 N737 1.384 . S
N736 C732 1.427 . S
N736 C733 1.384 . S
N737 C729 1.427 . S
N737 C735 1.384 . S
H738 C744 0.930 . S
H739 C748 0.930 1_655 S
H740 C753 0.929 . S
H741 C751 0.929 . S
H742 C746 0.929 . S
H743 C752 0.929 . S
C744 H738 0.930 . S
C744 C745 1.367 . S
C744 C752 1.378 . S
C745 C744 1.367 . S
C745 C753 1.433 . S
C746 H742 0.929 . S
C746 C748 1.378 . S
C746 C750 1.350 . S
C747 C750 1.463 . S
C747 C752 1.350 . S
C747 N755 1.427 . S
C748 H739 0.930 1_455 S
C748 C746 1.378 . S
C748 C749 1.367 . S
C749 C748 1.367 . S
C749 C751 1.433 . S
C750 C746 1.350 . S
C750 C747 1.463 . S
C750 N754 1.427 . S
C751 H741 0.929 . S
C751 C749 1.433 . S
C751 N754 1.384 . S
C752 H743 0.929 . S
C752 C744 1.378 . S
C752 C747 1.350 . S
C753 H740 0.929 . S
C753 C745 1.433 . S
C753 N755 1.384 . S
N754 C750 1.427 . S
N754 C751 1.384 . S
N755 C747 1.427 . S
N755 C753 1.384 . S
H756 C762 0.930 . S
H757 C766 0.930 . S
H758 C771 0.929 . S
H759 C769 0.929 . S
H760 C764 0.929 . S
H761 C770 0.929 . S
C762 H756 0.930 . S
C762 C763 1.367 . S
C762 C770 1.378 . S
C763 C762 1.367 . S
C763 C771 1.433 . S
C764 H760 0.929 . S
C764 C766 1.378 . S
C764 C768 1.350 . S
C765 C768 1.463 . S
C765 C770 1.350 . S
C765 N773 1.427 . S
C766 H757 0.930 . S
C766 C764 1.378 . S
C766 C767 1.367 . S
C767 C766 1.367 . S
C767 C769 1.433 . S
C768 C764 1.350 . S
C768 C765 1.463 . S
C768 N772 1.427 . S
C769 H759 0.929 . S
C769 C767 1.433 . S
C769 N772 1.384 . S
C770 H761 0.929 . S
C770 C762 1.378 . S
C770 C765 1.350 . S
C771 H758 0.929 . S
C771 C763 1.433 . S
C771 N773 1.384 . S
N772 C768 1.427 . S
N772 C769 1.384 . S
N773 C765 1.427 . S
N773 C771 1.384 . S
H774 C780 0.930 . S
H775 C784 0.930 . S
H776 C789 0.929 . S
H777 C787 0.929 . S
H778 C782 0.929 . S
H779 C788 0.929 . S
C780 H774 0.930 . S
C780 C781 1.367 . S
C780 C788 1.378 . S
C781 C780 1.367 . S
C781 C789 1.433 . S
C782 H778 0.929 . S
C782 C784 1.378 . S
C782 C786 1.350 . S
C783 C786 1.463 . S
C783 C788 1.350 . S
C783 N791 1.427 . S
C784 H775 0.930 . S
C784 C782 1.378 . S
C784 C785 1.367 . S
C785 C784 1.367 . S
C785 C787 1.433 . S
C786 C782 1.350 . S
C786 C783 1.463 . S
C786 N790 1.427 . S
C787 H777 0.929 . S
C787 C785 1.433 . S
C787 N790 1.384 . S
C788 H779 0.929 . S
C788 C780 1.378 . S
C788 C783 1.350 . S
C789 H776 0.929 . S
C789 C781 1.433 . S
C789 N791 1.384 . S
N790 C786 1.427 . S
N790 C787 1.384 . S
N791 C783 1.427 . S
N791 C789 1.384 . S
C227 C124 1.319 . S
C223 C5 1.307 . S
C245 C141 1.450 . S
C241 C18 1.475 . S
C263 C155 1.596 . S
C259 C31 1.617 . S
C277 C42 1.437 . S
C281 C113 1.372 . S
C295 C57 1.153 . S
C299 C110 1.126 . S
C313 C70 1.073 . S
C317 C127 1.032 . S
C335 C138 1.447 1_545 S
C331 C81 1.417 . S
C353 C152 1.233 1_545 S
C349 C96 1.263 . S
C367 C29 1.208 . S
C371 C180 1.233 . S
C389 C194 1.440 . S
C385 C44 1.494 . S
C403 C3 1.045 . S
C407 C211 1.034 . S
C425 C166 1.132 . S
C421 C16 1.124 . S
C439 C83 1.396 . S
C443 C169 1.379 . S
C457 C94 1.650 . S
C461 C183 1.582 . S
C479 C197 1.459 . S
C475 C55 1.512 . S
C493 C68 1.305 . S
C497 C208 1.309 . S
C515 C140 1.747 1_545 S
C511 C1 1.724 . S
C533 C154 1.859 . S
C529 C14 1.800 . S
C547 C27 1.728 . S
C551 C112 1.840 . S
C565 C49 1.708 . S
C569 C125 1.608 . S
C583 C53 1.410 . S
C587 C153 1.286 . S
C605 C111 1.203 . S
C601 C66 1.310 . S
C623 C126 1.584 . S
C619 C88 1.604 . S
C641 C139 1.382 . S
C637 C92 1.516 . S
C659 C195 1.384 . S
C655 C36 1.513 . S
C677 C210 1.584 . S
C673 C40 1.613 . S
C691 C10 1.339 . S
C695 C167 1.231 . S
C713 C181 1.285 . S
C709 C23 1.400 1_655 S
C731 C209 1.607 . S
C727 C79 1.638 . S
C745 C101 1.813 . S
C749 C168 1.794 . S
C767 C182 1.847 . S
C763 C62 1.865 . S
C785 C196 1.742 . S
C781 C75 1.767 . S
