# Generated by pormake.
# Topology eea, (3,6)-cn, num edge types: 1
# Building blocks:
#     Node 0, Type 0, BuildingBlock: WUSLED_clean_sbu_0, # of connection points: 3
#     Node 1, Type 0, BuildingBlock: WUSLED_clean_sbu_0, # of connection points: 3
#     Node 2, Type 0, BuildingBlock: WUSLED_clean_sbu_0, # of connection points: 3
#     Node 3, Type 0, BuildingBlock: WUSLED_clean_sbu_0, # of connection points: 3
#     Node 4, Type 0, BuildingBlock: WUSLED_clean_sbu_0, # of connection points: 3
#     Node 5, Type 0, BuildingBlock: WUSLED_clean_sbu_0, # of connection points: 3
#     Node 6, Type 0, BuildingBlock: WUSLED_clean_sbu_0, # of connection points: 3
#     Node 7, Type 0, BuildingBlock: WUSLED_clean_sbu_0, # of connection points: 3
#     Node 8, Type 0, BuildingBlock: WUSLED_clean_sbu_0, # of connection points: 3
#     Node 9, Type 0, BuildingBlock: WUSLED_clean_sbu_0, # of connection points: 3
#     Node 10, Type 0, BuildingBlock: WUSLED_clean_sbu_0, # of connection points: 3
#     Node 11, Type 0, BuildingBlock: WUSLED_clean_sbu_0, # of connection points: 3
#     Node 12, Type 0, BuildingBlock: WUSLED_clean_sbu_0, # of connection points: 3
#     Node 13, Type 0, BuildingBlock: WUSLED_clean_sbu_0, # of connection points: 3
#     Node 14, Type 0, BuildingBlock: WUSLED_clean_sbu_0, # of connection points: 3
#     Node 15, Type 0, BuildingBlock: WUSLED_clean_sbu_0, # of connection points: 3
#     Node 16, Type 0, BuildingBlock: WUSLED_clean_sbu_0, # of connection points: 3
#     Node 17, Type 0, BuildingBlock: WUSLED_clean_sbu_0, # of connection points: 3
#     Node 18, Type 1, BuildingBlock: KUMBUR_clean_sbu_0, # of connection points: 6
#     Node 19, Type 1, BuildingBlock: KUMBUR_clean_sbu_0, # of connection points: 6
#     Node 20, Type 1, BuildingBlock: KUMBUR_clean_sbu_0, # of connection points: 6
#     Node 21, Type 1, BuildingBlock: KUMBUR_clean_sbu_0, # of connection points: 6
#     Node 22, Type 1, BuildingBlock: KUMBUR_clean_sbu_0, # of connection points: 6
#     Node 23, Type 1, BuildingBlock: KUMBUR_clean_sbu_0, # of connection points: 6
#     Node 24, Type 1, BuildingBlock: KUMBUR_clean_sbu_0, # of connection points: 6
#     Node 25, Type 1, BuildingBlock: KUMBUR_clean_sbu_0, # of connection points: 6
#     Node 26, Type 1, BuildingBlock: KUMBUR_clean_sbu_0, # of connection points: 6
#     Edge 27, Type (0, 1), BuildingBlock: EZIPEK_clean_linker_0, # of connection points: 2
#     Edge 28, Type (0, 1), BuildingBlock: EZIPEK_clean_linker_0, # of connection points: 2
#     Edge 29, Type (0, 1), BuildingBlock: EZIPEK_clean_linker_0, # of connection points: 2
#     Edge 30, Type (0, 1), BuildingBlock: EZIPEK_clean_linker_0, # of connection points: 2
#     Edge 31, Type (0, 1), BuildingBlock: EZIPEK_clean_linker_0, # of connection points: 2
#     Edge 32, Type (0, 1), BuildingBlock: EZIPEK_clean_linker_0, # of connection points: 2
#     Edge 33, Type (0, 1), BuildingBlock: EZIPEK_clean_linker_0, # of connection points: 2
#     Edge 34, Type (0, 1), BuildingBlock: EZIPEK_clean_linker_0, # of connection points: 2
#     Edge 35, Type (0, 1), BuildingBlock: EZIPEK_clean_linker_0, # of connection points: 2
#     Edge 36, Type (0, 1), BuildingBlock: EZIPEK_clean_linker_0, # of connection points: 2
#     Edge 37, Type (0, 1), BuildingBlock: EZIPEK_clean_linker_0, # of connection points: 2
#     Edge 38, Type (0, 1), BuildingBlock: EZIPEK_clean_linker_0, # of connection points: 2
#     Edge 39, Type (0, 1), BuildingBlock: EZIPEK_clean_linker_0, # of connection points: 2
#     Edge 40, Type (0, 1), BuildingBlock: EZIPEK_clean_linker_0, # of connection points: 2
#     Edge 41, Type (0, 1), BuildingBlock: EZIPEK_clean_linker_0, # of connection points: 2
#     Edge 42, Type (0, 1), BuildingBlock: EZIPEK_clean_linker_0, # of connection points: 2
#     Edge 43, Type (0, 1), BuildingBlock: EZIPEK_clean_linker_0, # of connection points: 2
#     Edge 44, Type (0, 1), BuildingBlock: EZIPEK_clean_linker_0, # of connection points: 2
#     Edge 45, Type (0, 1), BuildingBlock: EZIPEK_clean_linker_0, # of connection points: 2
#     Edge 46, Type (0, 1), BuildingBlock: EZIPEK_clean_linker_0, # of connection points: 2
#     Edge 47, Type (0, 1), BuildingBlock: EZIPEK_clean_linker_0, # of connection points: 2
#     Edge 48, Type (0, 1), BuildingBlock: EZIPEK_clean_linker_0, # of connection points: 2
#     Edge 49, Type (0, 1), BuildingBlock: EZIPEK_clean_linker_0, # of connection points: 2
#     Edge 50, Type (0, 1), BuildingBlock: EZIPEK_clean_linker_0, # of connection points: 2
#     Edge 51, Type (0, 1), BuildingBlock: EZIPEK_clean_linker_0, # of connection points: 2
#     Edge 52, Type (0, 1), BuildingBlock: EZIPEK_clean_linker_0, # of connection points: 2
#     Edge 53, Type (0, 1), BuildingBlock: EZIPEK_clean_linker_0, # of connection points: 2
#     Edge 54, Type (0, 1), BuildingBlock: EZIPEK_clean_linker_0, # of connection points: 2
#     Edge 55, Type (0, 1), BuildingBlock: EZIPEK_clean_linker_0, # of connection points: 2
#     Edge 56, Type (0, 1), BuildingBlock: EZIPEK_clean_linker_0, # of connection points: 2
#     Edge 57, Type (0, 1), BuildingBlock: EZIPEK_clean_linker_0, # of connection points: 2
#     Edge 58, Type (0, 1), BuildingBlock: EZIPEK_clean_linker_0, # of connection points: 2
#     Edge 59, Type (0, 1), BuildingBlock: EZIPEK_clean_linker_0, # of connection points: 2
#     Edge 60, Type (0, 1), BuildingBlock: EZIPEK_clean_linker_0, # of connection points: 2
#     Edge 61, Type (0, 1), BuildingBlock: EZIPEK_clean_linker_0, # of connection points: 2
#     Edge 62, Type (0, 1), BuildingBlock: EZIPEK_clean_linker_0, # of connection points: 2
#     Edge 63, Type (0, 1), BuildingBlock: EZIPEK_clean_linker_0, # of connection points: 2
#     Edge 64, Type (0, 1), BuildingBlock: EZIPEK_clean_linker_0, # of connection points: 2
#     Edge 65, Type (0, 1), BuildingBlock: EZIPEK_clean_linker_0, # of connection points: 2
#     Edge 66, Type (0, 1), BuildingBlock: EZIPEK_clean_linker_0, # of connection points: 2
#     Edge 67, Type (0, 1), BuildingBlock: EZIPEK_clean_linker_0, # of connection points: 2
#     Edge 68, Type (0, 1), BuildingBlock: EZIPEK_clean_linker_0, # of connection points: 2
#     Edge 69, Type (0, 1), BuildingBlock: EZIPEK_clean_linker_0, # of connection points: 2
#     Edge 70, Type (0, 1), BuildingBlock: EZIPEK_clean_linker_0, # of connection points: 2
#     Edge 71, Type (0, 1), BuildingBlock: EZIPEK_clean_linker_0, # of connection points: 2
#     Edge 72, Type (0, 1), BuildingBlock: EZIPEK_clean_linker_0, # of connection points: 2
#     Edge 73, Type (0, 1), BuildingBlock: EZIPEK_clean_linker_0, # of connection points: 2
#     Edge 74, Type (0, 1), BuildingBlock: EZIPEK_clean_linker_0, # of connection points: 2
#     Edge 75, Type (0, 1), BuildingBlock: EZIPEK_clean_linker_0, # of connection points: 2
#     Edge 76, Type (0, 1), BuildingBlock: EZIPEK_clean_linker_0, # of connection points: 2
#     Edge 77, Type (0, 1), BuildingBlock: EZIPEK_clean_linker_0, # of connection points: 2
#     Edge 78, Type (0, 1), BuildingBlock: EZIPEK_clean_linker_0, # of connection points: 2
#     Edge 79, Type (0, 1), BuildingBlock: EZIPEK_clean_linker_0, # of connection points: 2
#     Edge 80, Type (0, 1), BuildingBlock: EZIPEK_clean_linker_0, # of connection points: 2
# Relax obj value: 0.008
# Max RMSD: 0.089
# Mean RMSD: 0.069
data_MOF--net-eea--node1-WUSLED_clean_sbu_0--node2-KUMBUR_clean_sbu_0--edge1-EZIPEK_clean_linker_0
_symmetry_space_group_name_H-M    P1
_symmetry_Int_Tables_number       1
_symmetry_cell_setting            triclinic
loop_
_symmetry_equiv_pos_as_xyz
'x, y, z'
_cell_length_a     53.221308
_cell_length_b     54.416208
_cell_length_c     75.823338
_cell_angle_alpha  89.914507
_cell_angle_beta   90.248282
_cell_angle_gamma 119.92224
loop_
_atom_site_label
_atom_site_type_symbol
_atom_site_fract_x
_atom_site_fract_y
_atom_site_fract_z
_atom_type_partial_charge
C0 C 0.23008 0.17341 0.39959 0.0
C1 C 0.24646 0.20093 0.40667 0.0
C2 C 0.21996 0.2174 0.38817 0.0
C3 C 0.24151 0.22284 0.40091 0.0
C4 C 0.20371 0.18992 0.38128 0.0
C5 C 0.20878 0.16829 0.38688 0.0
U6 U 0.24942 0.12539 0.42939 0.0
O7 O 0.22546 0.07866 0.43042 0.0
O8 O 0.27009 0.10104 0.4205 0.0
C9 C 0.24679 0.07638 0.4235 0.0
C10 C 0.23486 0.14952 0.40423 0.0
C11 C 0.23873 0.05299 0.41062 0.0
C12 C 0.23921 0.03428 0.38135 0.0
C13 C 0.24525 0.05738 0.39248 0.0
C14 C 0.21946 1.00236 0.40618 0.0
C15 C 0.22627 0.00651 0.38816 0.0
C16 C 0.22562 0.02524 0.41722 0.0
C17 C 0.27318 0.14764 0.47898 0.0
C18 C 0.29 0.12758 0.50187 0.0
C19 C 0.28459 0.16823 0.50844 0.0
C20 C 0.27512 0.16788 0.49118 0.0
C21 C 0.29238 0.14831 0.51392 0.0
C22 C 0.28038 0.12719 0.48447 0.0
C23 C 0.2644 0.1496 0.46071 0.0
O24 O 0.26159 0.15494 0.40688 0.0
O25 O 0.21604 0.13014 0.41494 0.0
O26 O 0.23745 0.13187 0.4561 0.0
O27 O 0.2831 0.15443 0.44804 0.0
H28 H 0.26309 0.20551 0.41647 0.0
H29 H 0.25437 0.24393 0.40638 0.0
H30 H 0.1872 0.18526 0.37137 0.0
H31 H 0.19609 0.14739 0.3811 0.0
H32 H 0.24503 0.03809 0.36754 0.0
H33 H 0.25548 0.07858 0.38702 0.0
H34 H 0.20991 0.9813 0.41183 0.0
H35 H 0.22068 0.02128 0.43114 0.0
H36 H 0.2961 0.11213 0.50584 0.0
H37 H 0.28652 0.18453 0.51744 0.0
H38 H 0.26975 0.18387 0.48724 0.0
H39 H 0.27901 0.11133 0.47528 0.0
C40 C 0.95858 0.17996 0.3973 0.0
C41 C 0.96801 0.20833 0.402 0.0
C42 C 0.01378 0.22441 0.38614 0.0
C43 C 0.9953 0.23038 0.39634 0.0
C44 C 1.00422 0.196 0.38177 0.0
C45 C 0.97701 0.17426 0.38709 0.0
U46 U 0.88981 0.13095 0.42647 0.0
O47 O 0.8443 0.10455 0.41745 0.0
O48 O 0.86799 0.08435 0.42804 0.0
C49 C 0.84351 0.08061 0.42135 0.0
C50 C 0.92948 0.15559 0.40172 0.0
C51 C 0.82683 0.0556 0.40968 0.0
C52 C 0.82213 0.02511 0.38474 0.0
C53 C 0.83814 0.05075 0.39416 0.0
C54 C 0.78332 0.00931 0.40599 0.0
C55 C 0.79471 1.00398 0.39077 0.0
C56 C 0.79916 0.03477 0.41529 0.0
C57 C 0.88714 0.15483 0.47546 0.0
C58 C 0.85512 0.13016 0.50016 0.0
C59 C 0.89559 0.1772 0.50425 0.0
C60 C 0.90283 0.17819 0.48648 0.0
C61 C 0.87326 0.15219 0.51207 0.0
C62 C 0.86249 0.13111 0.48222 0.0
C63 C 0.89798 0.15637 0.45729 0.0
O64 O 0.92884 0.13668 0.41278 0.0
O65 O 0.90754 0.16008 0.40369 0.0
O66 O 0.88372 0.15978 0.4442 0.0
O67 O 0.90802 0.13936 0.45338 0.0
H68 H 0.95435 0.21344 0.40993 0.0
H69 H 1.00223 0.25202 0.40018 0.0
H70 H 0.01795 0.19056 0.37417 0.0
H71 H 0.97026 0.1527 0.38315 0.0
H72 H 0.83131 0.0215 0.37298 0.0
H73 H 0.85945 0.06642 0.38956 0.0
H74 H 0.76231 0.99343 0.41089 0.0
H75 H 0.79002 0.0379 0.42725 0.0
H76 H 0.83501 0.1121 0.50411 0.0
H77 H 0.90809 0.19637 0.51184 0.0
H78 H 0.92116 0.19733 0.48138 0.0
H79 H 0.849 0.11334 0.4737 0.0
C80 C 0.8434 0.7912 0.40079 0.0
C81 C 0.81437 0.77017 0.40394 0.0
C82 C 0.79675 0.79947 0.38985 0.0
C83 C 0.79128 0.7742 0.3984 0.0
C84 C 0.82577 0.82052 0.38718 0.0
C85 C 0.84863 0.81633 0.39239 0.0
U86 U 0.89608 0.7743 0.4287 0.0
O87 O 0.92116 0.75437 0.41944 0.0
O88 O 0.94395 0.79852 0.42858 0.0
C89 C 0.94635 0.7773 0.4223 0.0
C90 C 0.86881 0.78724 0.4044 0.0
C91 C 0.97076 0.78398 0.41006 0.0
C92 C 0.99624 0.79953 0.38187 0.0
C93 C 0.97172 0.79256 0.39242 0.0
C94 C 0.01871 0.78915 0.40637 0.0
C95 C 0.02011 0.79811 0.38885 0.0
C96 C 0.99442 0.78221 0.41679 0.0
C97 C 0.87339 0.75109 0.47871 0.0
C98 C 0.89124 0.73338 0.50243 0.0
C99 C 0.8503 0.74031 0.50754 0.0
C100 C 0.85226 0.7499 0.49024 0.0
C101 C 0.86947 0.73162 0.51375 0.0
C102 C 0.8932 0.74305 0.48495 0.0
C103 C 0.87255 0.75967 0.46026 0.0
O104 O 0.88943 0.80612 0.4146 0.0
O105 O 0.86436 0.76141 0.40681 0.0
O106 O 0.86766 0.74129 0.44762 0.0
O107 O 0.89056 0.78603 0.4557 0.0
H108 H 0.8095 0.75053 0.41039 0.0
H109 H 0.76917 0.75766 0.40083 0.0
H110 H 0.83082 0.84025 0.38077 0.0
H111 H 0.87064 0.83275 0.38957 0.0
H112 H 0.99689 0.80659 0.36843 0.0
H113 H 0.95381 0.7942 0.3869 0.0
H114 H 0.0368 0.78808 0.41214 0.0
H115 H 0.9943 0.77576 0.43033 0.0
H116 H 0.90616 0.72662 0.50698 0.0
H117 H 0.83328 0.73893 0.51598 0.0
H118 H 0.83672 0.75589 0.48571 0.0
H119 H 0.90968 0.74376 0.47629 0.0
C120 C 0.05329 0.2234 0.63004 0.0
C121 C 0.04129 0.23843 0.62182 0.0
C122 C 0.99942 0.21579 0.64147 0.0
C123 C 0.01441 0.23465 0.62756 0.0
C124 C 0.0116 0.20082 0.64939 0.0
C125 C 0.03819 0.20467 0.64379 0.0
U126 U 0.12715 0.23756 0.60667 0.0
O127 O 0.16762 0.25439 0.6223 0.0
O128 O 0.14551 0.20987 0.61255 0.0
C129 C 0.16703 0.22996 0.6216 0.0
C130 C 0.08192 0.22702 0.62575 0.0
C131 C 0.18954 0.22566 0.63001 0.0
C132 C 0.21227 0.22047 0.65659 0.0
C133 C 0.19269 0.22705 0.64844 0.0
C134 C 0.22639 0.21182 0.62794 0.0
C135 C 0.22896 0.21242 0.64642 0.0
C136 C 0.20663 0.21818 0.6198 0.0
C137 C 0.13576 0.26186 0.55519 0.0
C138 C 0.16774 0.28729 0.53082 0.0
C139 C 0.11561 0.26413 0.52684 0.0
C140 C 0.11171 0.25476 0.54432 0.0
C141 C 0.14366 0.28079 0.52004 0.0
C142 C 0.16381 0.27794 0.54832 0.0
C143 C 0.13135 0.25261 0.57369 0.0
O144 O 0.08333 0.20746 0.61638 0.0
O145 O 0.10446 0.25261 0.62406 0.0
O146 O 0.14244 0.27117 0.5866 0.0
O147 O 0.11799 0.2258 0.57838 0.0
H148 H 0.05266 0.25303 0.61117 0.0
H149 H 1.0053 0.24628 0.62118 0.0
H150 H 1.0005 0.18612 0.66006 0.0
H151 H 0.04717 0.19308 0.65039 0.0
H152 H 0.21403 0.22109 0.67084 0.0
H153 H 0.17944 0.23247 0.65654 0.0
H154 H 0.23932 0.20596 0.61986 0.0
H155 H 0.20447 0.217 0.60557 0.0
H156 H 0.18953 0.29997 0.52575 0.0
H157 H 0.09681 0.25897 0.51872 0.0
H158 H 0.08992 0.24239 0.54945 0.0
H159 H 0.18261 0.28334 0.55649 0.0
C160 C 0.7737 0.83221 0.64117 0.0
C161 C 0.78445 0.81996 0.62921 0.0
C162 C 0.78892 0.79181 0.65294 0.0
C163 C 0.79196 0.79991 0.63506 0.0
C164 C 0.7765 0.80275 0.66458 0.0
C165 C 0.76914 0.82283 0.65876 0.0
U166 U 0.75631 0.88059 0.61071 0.0
O167 O 0.73706 0.90682 0.61849 0.0
O168 O 0.78162 0.9271 0.60855 0.0
C169 C 0.76074 0.93078 0.61479 0.0
C170 C 0.7705 0.85708 0.63648 0.0
C171 C 0.76933 0.95534 0.62673 0.0
C172 C 0.7969 0.98571 0.65147 0.0
C173 C 0.7865 0.96022 0.64192 0.0
C174 C 0.77231 1.00112 0.63118 0.0
C175 C 0.79033 0.00661 0.64593 0.0
C176 C 0.76197 0.97581 0.6217 0.0
C177 C 0.73016 0.85498 0.56186 0.0
C178 C 0.72472 0.87945 0.53642 0.0
C179 C 0.7165 0.83203 0.5332 0.0
C180 C 0.72198 0.83129 0.55116 0.0
C181 C 0.7205 0.85707 0.52491 0.0
C182 C 0.73038 0.87876 0.55455 0.0
C183 C 0.73907 0.85387 0.58023 0.0
O184 O 0.78918 0.87526 0.62516 0.0
O185 O 0.74414 0.85295 0.6343 0.0
O186 O 0.72111 0.85083 0.593 0.0
O187 O 0.76639 0.87111 0.58432 0.0
H188 H 0.788 0.82657 0.61554 0.0
H189 H 0.80088 0.79126 0.62573 0.0
H190 H 0.77343 0.79644 0.67831 0.0
H191 H 0.76086 0.8319 0.66823 0.0
H192 H 0.81061 0.98944 0.66291 0.0
H193 H 0.79247 0.94476 0.64608 0.0
H194 H 0.7669 0.01684 0.62669 0.0
H195 H 0.74886 0.97259 0.61003 0.0
H196 H 0.72355 0.89762 0.53201 0.0
H197 H 0.70942 0.81266 0.52583 0.0
H198 H 0.72029 0.81213 0.55666 0.0
H199 H 0.73507 0.89682 0.56279 0.0
C200 C 0.05121 0.83471 0.63221 0.0
C201 C 0.04082 0.80737 0.62508 0.0
C202 C 0.99717 0.78864 0.64339 0.0
C203 C 0.01406 0.78445 0.63073 0.0
C204 C 1.00756 0.81612 0.65009 0.0
C205 C 0.03419 0.83867 0.64468 0.0
U206 U 0.11991 0.88571 0.60368 0.0
O207 O 0.14263 0.93254 0.60358 0.0
O208 O 0.16526 0.91055 0.61301 0.0
C209 C 0.16675 0.93507 0.61003 0.0
C210 C 0.0801 0.85952 0.62811 0.0
C211 C 0.18419 0.95906 0.62226 0.0
C212 C 0.19905 0.98112 0.65138 0.0
C213 C 0.18033 0.95786 0.64059 0.0
C214 C 0.22417 0.00737 0.62554 0.0
C215 C 0.22311 0.00591 0.64423 0.0
C216 C 0.20576 0.98433 0.61491 0.0
C217 C 0.12371 0.86527 0.55416 0.0
C218 C 0.16249 0.88612 0.5324 0.0
C219 C 0.11639 0.84517 0.52467 0.0
C220 C 0.10601 0.84512 0.54156 0.0
C221 C 0.14477 0.86538 0.51998 0.0
C222 C 0.152 0.8861 0.54944 0.0
C223 C 0.11189 0.86254 0.57215 0.0
O224 O 0.1021 0.85526 0.62574 0.0
O225 O 0.08064 0.87901 0.6176 0.0
O226 O 0.1024 0.87979 0.57659 0.0
O227 O 0.12528 0.85759 0.58508 0.0
H228 H 0.05347 0.80367 0.6154 0.0
H229 H 1.00656 0.76352 0.62528 0.0
H230 H 0.99514 0.82008 0.65981 0.0
H231 H 0.04174 0.85939 0.65049 0.0
H232 H 0.19352 0.97893 0.66508 0.0
H233 H 0.16284 0.93902 0.64658 0.0
H234 H 0.23932 0.02654 0.61873 0.0
H235 H 0.20852 0.98635 0.60073 0.0
H236 H 0.18454 0.90179 0.52903 0.0
H237 H 0.1025 0.82884 0.51538 0.0
H238 H 0.08421 0.82882 0.54494 0.0
H239 H 0.16605 0.90186 0.55895 0.0
C240 C 0.89968 0.50735 0.73196 0.0
C241 C 0.9121 0.53332 0.74111 0.0
C242 C 0.89 0.55138 0.72021 0.0
C243 C 0.90734 0.55526 0.73522 0.0
C244 C 0.87789 0.52552 0.71114 0.0
C245 C 0.88272 0.50383 0.71693 0.0
U246 U 0.91774 0.45972 0.76296 0.0
O247 O 0.89362 0.41306 0.76438 0.0
O248 O 0.93836 0.43505 0.75464 0.0
C249 C 0.91489 0.41052 0.75761 0.0
C250 C 0.90385 0.48335 0.73716 0.0
C251 C 0.90665 0.38707 0.74475 0.0
C252 C 0.90837 0.36803 0.71582 0.0
C253 C 0.91489 0.39135 0.72686 0.0
C254 C 0.88471 0.33616 0.74024 0.0
C255 C 0.89316 0.34014 0.72246 0.0
C256 C 0.89143 0.35924 0.7512 0.0
C257 C 0.94077 0.48203 0.81246 0.0
C258 C 0.95688 0.4612 0.83525 0.0
C259 C 0.95204 0.50211 0.84203 0.0
C260 C 0.94283 0.50218 0.82476 0.0
C261 C 0.95944 0.48188 0.8474 0.0
C262 C 0.94752 0.46122 0.81784 0.0
C263 C 0.93236 0.48437 0.79416 0.0
O264 O 0.93045 0.48861 0.74011 0.0
O265 O 0.8848 0.46458 0.74806 0.0
O266 O 0.90544 0.4668 0.78942 0.0
O267 O 0.9512 0.48902 0.78162 0.0
H268 H 0.92527 0.53656 0.75275 0.0
H269 H 0.91675 0.57503 0.74248 0.0
H270 H 0.86443 0.52202 0.6996 0.0
H271 H 0.87304 0.48407 0.70964 0.0
H272 H 0.91547 0.37171 0.70222 0.0
H273 H 0.92677 0.41261 0.72153 0.0
H274 H 0.87337 0.315 0.74578 0.0
H275 H 0.88517 0.35533 0.76495 0.0
H276 H 0.96268 0.4455 0.83914 0.0
H277 H 0.95412 0.51838 0.85113 0.0
H278 H 0.93778 0.51842 0.8209 0.0
H279 H 0.94603 0.44542 0.80857 0.0
C280 C 0.6273 0.51761 0.73065 0.0
C281 C 0.65149 0.53015 0.74206 0.0
C282 C 0.682 0.5611 0.71829 0.0
C283 C 0.6786 0.55169 0.73591 0.0
C284 C 0.65751 0.54962 0.70725 0.0
C285 C 0.63058 0.52811 0.71335 0.0
U286 U 0.56048 0.46513 0.76018 0.0
O287 O 0.51484 0.43843 0.75151 0.0
O288 O 0.53943 0.41847 0.76098 0.0
C289 C 0.51453 0.41458 0.75491 0.0
C290 C 0.59954 0.49155 0.73532 0.0
C291 C 0.49707 0.3896 0.74336 0.0
C292 C 0.49086 0.35869 0.71837 0.0
C293 C 0.50772 0.38421 0.72775 0.0
C294 C 0.45244 0.34412 0.73977 0.0
C295 C 0.46318 0.33825 0.72446 0.0
C296 C 0.46918 0.36943 0.74909 0.0
C297 C 0.55502 0.48694 0.80911 0.0
C298 C 0.53481 0.46124 0.83662 0.0
C299 C 0.55136 0.51147 0.83497 0.0
C300 C 0.55897 0.51172 0.81732 0.0
C301 C 0.53965 0.48639 0.84489 0.0
C302 C 0.54236 0.46148 0.81881 0.0
C303 C 0.56736 0.4896 0.79122 0.0
O304 O 0.60062 0.47374 0.74662 0.0
O305 O 0.57622 0.49383 0.73709 0.0
O306 O 0.55387 0.49362 0.77793 0.0
O307 O 0.57803 0.47312 0.78725 0.0
H308 H 0.64972 0.52265 0.75548 0.0
H309 H 0.69713 0.5604 0.74473 0.0
H310 H 0.65955 0.55647 0.69366 0.0
H311 H 0.61243 0.51879 0.70424 0.0
H312 H 0.4995 0.35472 0.70649 0.0
H313 H 0.52912 0.39939 0.72302 0.0
H314 H 0.43122 0.32881 0.74472 0.0
H315 H 0.46052 0.37299 0.76111 0.0
H316 H 0.52581 0.44166 0.84404 0.0
H317 H 0.55538 0.53111 0.84106 0.0
H318 H 0.56891 0.53165 0.81021 0.0
H319 H 0.53909 0.44204 0.81282 0.0
C320 C 0.51073 0.12652 0.7336 0.0
C321 C 0.48339 0.11081 0.74167 0.0
C322 C 0.46294 0.13219 0.72187 0.0
C323 C 0.45971 0.11369 0.73585 0.0
C324 C 0.49033 0.14807 0.71411 0.0
C325 C 0.51382 0.14524 0.7199 0.0
U326 U 0.56336 0.11035 0.7626 0.0
O327 O 0.58957 0.09178 0.75316 0.0
O328 O 0.61128 0.13554 0.76299 0.0
C329 C 0.61441 0.1149 0.75642 0.0
C330 C 0.53632 0.12335 0.73813 0.0
C331 C 0.63943 0.12243 0.74448 0.0
C332 C 0.66235 0.1298 0.71551 0.0
C333 C 0.63814 0.12423 0.72598 0.0
C334 C 0.6894 0.1324 0.74183 0.0
C335 C 0.68821 0.1338 0.72338 0.0
C336 C 0.66538 0.12677 0.75219 0.0
C337 C 0.54102 0.0857 0.81243 0.0
C338 C 0.55446 0.06206 0.83491 0.0
C339 C 0.52262 0.08025 0.84243 0.0
C340 C 0.52452 0.09002 0.82515 0.0
C341 C 0.53713 0.06578 0.84743 0.0
C342 C 0.55639 0.07193 0.81747 0.0
C343 C 0.53948 0.09424 0.79402 0.0
O344 O 0.55582 0.14205 0.74895 0.0
O345 O 0.53231 0.09766 0.74037 0.0
O346 O 0.53537 0.07639 0.78118 0.0
O347 O 0.55656 0.12089 0.78965 0.0
H348 H 0.48028 0.09625 0.75229 0.0
H349 H 0.43886 0.10145 0.74221 0.0
H350 H 0.49349 0.16261 0.70346 0.0
H351 H 0.53456 0.15755 0.71343 0.0
H352 H 0.66083 0.13063 0.7013 0.0
H353 H 0.61841 0.12094 0.71966 0.0
H354 H 0.70885 0.13507 0.74824 0.0
H355 H 0.66694 0.1253 0.76637 0.0
H356 H 0.56585 0.05093 0.83851 0.0
H357 H 0.50907 0.08325 0.8518 0.0
H358 H 0.51235 0.10039 0.82158 0.0
H359 H 0.56927 0.0683 0.80793 0.0
C360 C 0.72465 0.55678 0.97057 0.0
C361 C 0.70553 0.55971 0.95897 0.0
C362 C 0.67031 0.54819 0.98288 0.0
C363 C 0.67855 0.55545 0.96511 0.0
C364 C 0.68985 0.54608 0.9944 0.0
C365 C 0.71656 0.55032 0.98832 0.0
U366 U 0.79175 0.57071 0.94016 0.0
O367 O 0.83704 0.58838 0.9494 0.0
O368 O 0.81313 0.5447 0.93949 0.0
C369 C 0.83763 0.56494 0.94612 0.0
C370 C 0.75254 0.55881 0.96503 0.0
C371 C 0.855 0.55682 0.95786 0.0
C372 C 0.88102 0.55987 0.98532 0.0
C373 C 0.86164 0.56546 0.97562 0.0
C374 C 0.88706 0.53668 0.95986 0.0
C375 C 0.89409 0.54555 0.97746 0.0
C376 C 0.86787 0.54225 0.95024 0.0
C377 C 0.79452 0.59683 0.89062 0.0
C378 C 0.82776 0.60682 0.866 0.0
C379 C 0.7863 0.61342 0.86246 0.0
C380 C 0.77804 0.60448 0.87983 0.0
C381 C 0.81129 0.61489 0.85534 0.0
C382 C 0.8195 0.59794 0.88358 0.0
C383 C 0.78422 0.58774 0.90894 0.0
O384 O 0.75148 0.54 0.95374 0.0
O385 O 0.77534 0.58409 0.96285 0.0
O386 O 0.79854 0.60523 0.92192 0.0
O387 O 0.7741 0.56098 0.91305 0.0
H388 H 0.71112 0.56468 0.9452 0.0
H389 H 0.66379 0.55703 0.95591 0.0
H390 H 0.68402 0.54029 1.00806 0.0
H391 H 0.73077 0.54785 0.99752 0.0
H392 H 0.88598 0.56688 0.99889 0.0
H393 H 0.85232 0.57691 0.98189 0.0
H394 H 0.89683 0.52574 0.95344 0.0
H395 H 0.86361 0.53571 0.93655 0.0
H396 H 0.84713 0.60775 0.86078 0.0
H397 H 0.77321 0.61945 0.85457 0.0
H398 H 0.75864 0.60366 0.88492 0.0
H399 H 0.83256 0.59207 0.89161 0.0
C400 C 0.43967 0.16464 0.97442 0.0
C401 C 0.45098 0.15322 0.96225 0.0
C402 C 0.45521 0.12414 0.98541 0.0
C403 C 0.45869 0.13317 0.96771 0.0
C404 C 0.44205 0.13409 0.99722 0.0
C405 C 0.43457 0.15427 0.9918 0.0
U406 U 0.42256 0.21362 0.94461 0.0
O407 O 0.40282 0.23936 0.95245 0.0
O408 O 0.44765 0.26022 0.94291 0.0
C409 C 0.42646 0.26351 0.94905 0.0
C410 C 0.43648 0.18965 0.9702 0.0
C411 C 0.43443 0.28773 0.96117 0.0
C412 C 0.45969 0.31694 0.98683 0.0
C413 C 0.45025 0.29192 0.9769 0.0
C414 C 0.43696 0.33325 0.96574 0.0
C415 C 0.45346 0.33801 0.98114 0.0
C416 C 0.42755 0.30841 0.95591 0.0
C417 C 0.39716 0.18889 0.89557 0.0
C418 C 0.39181 0.21382 0.87038 0.0
C419 C 0.38428 0.16674 0.86666 0.0
C420 C 0.38944 0.16554 0.88463 0.0
C421 C 0.38822 0.19193 0.85863 0.0
C422 C 0.39714 0.21268 0.88851 0.0
C423 C 0.40588 0.18744 0.91394 0.0
O424 O 0.45534 0.20829 0.95914 0.0
O425 O 0.41012 0.18548 0.96796 0.0
O426 O 0.38771 0.18406 0.92665 0.0
O427 O 0.4331 0.20474 0.91818 0.0
H428 H 0.45494 0.1606 0.94872 0.0
H429 H 0.46832 0.1254 0.95827 0.0
H430 H 0.43879 0.12718 1.01084 0.0
H431 H 0.42589 0.16272 1.00143 0.0
H432 H 0.47258 0.32028 0.99862 0.0
H433 H 0.45591 0.27631 0.98121 0.0
H434 H 0.43212 0.34923 0.961 0.0
H435 H 0.41555 0.30575 0.94381 0.0
H436 H 0.3904 0.23194 0.86617 0.0
H437 H 0.37761 0.14764 0.85907 0.0
H438 H 0.38789 0.14634 0.88994 0.0
H439 H 0.40141 0.23042 0.89694 0.0
C440 C 0.71708 0.16806 0.96569 0.0
C441 C 0.70533 0.14162 0.95708 0.0
C442 C 0.66259 0.12209 0.97621 0.0
C443 C 0.67831 0.11871 0.96239 0.0
C444 C 0.6744 0.14871 0.98443 0.0
C445 C 0.70125 0.17121 0.97933 0.0
U446 U 0.78566 0.21879 0.93718 0.0
O447 O 0.80864 0.2656 0.93712 0.0
O448 O 0.83118 0.24334 0.94625 0.0
C449 C 0.83283 0.26793 0.94329 0.0
C450 C 0.74598 0.19284 0.96167 0.0
C451 C 0.85092 0.29202 0.95527 0.0
C452 C 0.86369 0.31663 0.98367 0.0
C453 C 0.84486 0.29303 0.97315 0.0
C454 C 0.8935 0.33879 0.95832 0.0
C455 C 0.88999 0.33934 0.97683 0.0
C456 C 0.87497 0.31545 0.94797 0.0
C457 C 0.78946 0.19849 0.8878 0.0
C458 C 0.82869 0.21952 0.86637 0.0
C459 C 0.78254 0.17898 0.85819 0.0
C460 C 0.77188 0.17868 0.87502 0.0
C461 C 0.81107 0.19912 0.85377 0.0
C462 C 0.81792 0.21924 0.88334 0.0
C463 C 0.77736 0.19552 0.90569 0.0
O464 O 0.76789 0.18845 0.95928 0.0
O465 O 0.74657 0.21234 0.95116 0.0
O466 O 0.76803 0.2129 0.91014 0.0
O467 O 0.7906 0.19039 0.91862 0.0
H468 H 0.71707 0.13861 0.94645 0.0
H469 H 0.66969 0.09844 0.95578 0.0
H470 H 0.66288 0.15203 0.99507 0.0
H471 H 0.70985 0.19125 0.98624 0.0
H472 H 0.85647 0.31669 0.99686 0.0
H473 H 0.82545 0.27583 0.97894 0.0
H474 H 0.9104 0.35666 0.95134 0.0
H475 H 0.87941 0.31589 0.934 0.0
H476 H 0.85086 0.23512 0.86319 0.0
H477 H 0.76874 0.16293 0.84872 0.0
H478 H 0.74995 0.16244 0.8782 0.0
H479 H 0.83186 0.23474 0.89302 0.0
C480 C 0.56885 0.84064 0.06463 0.0
C481 C 0.56165 0.8557 0.07674 0.0
C482 C 0.55817 0.8839 0.05271 0.0
C483 C 0.55641 0.87725 0.07079 0.0
C484 C 0.56659 0.86966 0.04083 0.0
C485 C 0.57187 0.84827 0.04675 0.0
U486 U 0.58265 0.7905 0.09564 0.0
O487 O 0.55741 0.74376 0.0966 0.0
O488 O 0.60277 0.76518 0.08796 0.0
C489 C 0.57876 0.74087 0.09031 0.0
C490 C 0.57084 0.81532 0.06962 0.0
C491 C 0.57105 0.71817 0.077 0.0
C492 C 0.57265 0.70108 0.04738 0.0
C493 C 0.57818 0.72354 0.05897 0.0
C494 C 0.55181 0.66788 0.07153 0.0
C495 C 0.55939 0.67296 0.05361 0.0
C496 C 0.5577 0.69013 0.08303 0.0
C497 C 0.60595 0.81357 0.14503 0.0
C498 C 0.61905 0.7914 0.16857 0.0
C499 C 0.61906 0.83524 0.17413 0.0
C500 C 0.61027 0.83526 0.15675 0.0
C501 C 0.62374 0.8135 0.18015 0.0
C502 C 0.61016 0.79141 0.15105 0.0
C503 C 0.59763 0.81555 0.12669 0.0
O504 O 0.59683 0.81893 0.0725 0.0
O505 O 0.55117 0.7972 0.08053 0.0
O506 O 0.57062 0.7982 0.12201 0.0
O507 O 0.61639 0.81956 0.11423 0.0
H508 H 0.55926 0.85028 0.09062 0.0
H509 H 0.55006 0.88811 0.0802 0.0
H510 H 0.56816 0.87448 0.02688 0.0
H511 H 0.57736 0.83693 0.03719 0.0
H512 H 0.57921 0.7057 0.03373 0.0
H513 H 0.58859 0.74503 0.05397 0.0
H514 H 0.54202 0.64655 0.07678 0.0
H515 H 0.55234 0.68543 0.09686 0.0
H516 H 0.62268 0.7745 0.17301 0.0
H517 H 0.62273 0.85253 0.18281 0.0
H518 H 0.60717 0.85253 0.15237 0.0
H519 H 0.60691 0.77443 0.14222 0.0
C520 C 0.29346 0.85062 0.06265 0.0
C521 C 0.3137 0.86972 0.07494 0.0
C522 C 0.3475 0.89583 0.05102 0.0
C523 C 0.34057 0.89221 0.06913 0.0
C524 C 0.32686 0.8772 0.03888 0.0
C525 C 0.30028 0.85487 0.04464 0.0
U526 U 0.22827 0.79829 0.09318 0.0
O527 O 0.18288 0.77021 0.08468 0.0
O528 O 0.20875 0.75176 0.09445 0.0
C529 C 0.1837 0.7469 0.08803 0.0
C530 C 0.266 0.82487 0.06776 0.0
C531 C 0.16781 0.72201 0.07614 0.0
C532 C 0.14849 0.69947 0.04752 0.0
C533 C 0.16592 0.72401 0.05769 0.0
C534 C 0.13522 0.67094 0.074 0.0
C535 C 0.13289 0.67268 0.05565 0.0
C536 C 0.15241 0.69521 0.08406 0.0
C537 C 0.22659 0.81922 0.14299 0.0
C538 C 0.18989 0.80927 0.16539 0.0
C539 C 0.24051 0.83146 0.17377 0.0
C540 C 0.2479 0.83041 0.15625 0.0
C541 C 0.21157 0.82163 0.17847 0.0
C542 C 0.19733 0.80804 0.14774 0.0
C543 C 0.23656 0.82233 0.12445 0.0
O544 O 0.26783 0.80722 0.07883 0.0
O545 O 0.24294 0.82736 0.07029 0.0
O546 O 0.22083 0.825 0.11196 0.0
O547 O 0.24843 0.80728 0.11959 0.0
H548 H 0.30899 0.86696 0.08892 0.0
H549 H 0.35609 0.90648 0.07875 0.0
H550 H 0.33168 0.87957 0.02491 0.0
H551 H 0.28515 0.84038 0.03495 0.0
H552 H 0.14673 0.70143 0.03341 0.0
H553 H 0.1774 0.74444 0.05123 0.0
H554 H 0.1231 0.65072 0.08065 0.0
H555 H 0.15317 0.69308 0.09824 0.0
H556 H 0.1674 0.80148 0.16875 0.0
H557 H 0.25756 0.84114 0.18359 0.0
H558 H 0.27058 0.83933 0.15293 0.0
H559 H 0.18042 0.79921 0.1378 0.0
C560 C 0.1747 0.45688 0.06459 0.0
C561 C 0.14991 0.44757 0.07521 0.0
C562 C 0.12726 0.46335 0.05293 0.0
C563 C 0.12639 0.45079 0.06941 0.0
C564 C 0.15206 0.4726 0.04248 0.0
C565 C 0.17535 0.46937 0.04823 0.0
U566 U 0.22826 0.44254 0.09433 0.0
O567 O 0.25411 0.42316 0.08549 0.0
O568 O 0.27616 0.46776 0.0937 0.0
C569 C 0.27905 0.44651 0.08799 0.0
C570 C 0.20039 0.4541 0.06959 0.0
C571 C 0.30384 0.45265 0.07612 0.0
C572 C 0.33303 0.47202 0.04942 0.0
C573 C 0.30823 0.4658 0.05951 0.0
C574 C 0.34901 0.45184 0.07227 0.0
C575 C 0.35371 0.46509 0.05576 0.0
C576 C 0.3245 0.44575 0.08227 0.0
C577 C 0.20789 0.41984 0.14461 0.0
C578 C 0.21843 0.3935 0.16677 0.0
C579 C 0.1935 0.41859 0.17526 0.0
C580 C 0.19504 0.42784 0.15787 0.0
C581 C 0.20469 0.40095 0.17986 0.0
C582 C 0.22 0.40284 0.14923 0.0
C583 C 0.20544 0.42768 0.12613 0.0
O584 O 0.21982 0.4733 0.08022 0.0
O585 O 0.19662 0.42861 0.07233 0.0
O586 O 0.20079 0.40937 0.11348 0.0
O587 O 0.22226 0.45416 0.12129 0.0
H588 H 0.14874 0.43792 0.08791 0.0
H589 H 0.10762 0.44369 0.07781 0.0
H590 H 0.15343 0.48247 0.02983 0.0
H591 H 0.19412 0.47675 0.03978 0.0
H592 H 0.33623 0.48242 0.03677 0.0
H593 H 0.29275 0.47148 0.05445 0.0
H594 H 0.36466 0.44655 0.07757 0.0
H595 H 0.32184 0.43585 0.09506 0.0
H596 H 0.22724 0.3799 0.17004 0.0
H597 H 0.18275 0.42452 0.18507 0.0
H598 H 0.18531 0.44066 0.15465 0.0
H599 H 0.22998 0.39627 0.13929 0.0
C600 C 0.39267 0.89348 0.30292 0.0
C601 C 0.36877 0.8825 0.29126 0.0
C602 C 0.33777 0.88432 0.31448 0.0
C603 C 0.34157 0.87795 0.29701 0.0
C604 C 0.36205 0.89677 0.32571 0.0
C605 C 0.38904 0.90116 0.32001 0.0
U606 U 0.45926 0.90326 0.27423 0.0
O607 O 0.50491 0.92116 0.28287 0.0
O608 O 0.47971 0.87645 0.27499 0.0
C609 C 0.50487 0.89722 0.28046 0.0
C610 C 0.4204 0.89401 0.29881 0.0
C611 C 0.52343 0.89046 0.29202 0.0
C612 C 0.53515 0.87429 0.31944 0.0
C613 C 0.51647 0.88062 0.30951 0.0
C614 C 0.56772 0.88759 0.29461 0.0
C615 C 0.56105 0.87778 0.31204 0.0
C616 C 0.54922 0.89383 0.2848 0.0
C617 C 0.46022 0.92555 0.22383 0.0
C618 C 0.49589 0.95169 0.20092 0.0
C619 C 0.44474 0.9267 0.19367 0.0
C620 C 0.4382 0.91753 0.21114 0.0
C621 C 0.47355 0.94438 0.18844 0.0
C622 C 0.48929 0.94236 0.21853 0.0
C623 C 0.45119 0.91822 0.2425 0.0
O624 O 0.41916 0.87412 0.28841 0.0
O625 O 0.44383 0.91877 0.29637 0.0
O626 O 0.46641 0.93656 0.25492 0.0
O627 O 0.44041 0.89169 0.24743 0.0
H628 H 0.3708 0.87643 0.27797 0.0
H629 H 0.32323 0.86848 0.28805 0.0
H630 H 0.35975 0.90177 0.33921 0.0
H631 H 0.40692 0.90946 0.32932 0.0
H632 H 0.52948 0.86674 0.33285 0.0
H633 H 0.49673 0.87778 0.31545 0.0
H634 H 0.58739 0.89044 0.28855 0.0
H635 H 0.55511 0.90129 0.27137 0.0
H636 H 0.5183 0.9653 0.19716 0.0
H637 H 0.42717 0.92089 0.18435 0.0
H638 H 0.41565 0.90488 0.21491 0.0
H639 H 0.50673 0.94893 0.22804 0.0
C640 C 0.10821 0.49884 0.30744 0.0
C641 C 0.10244 0.47649 0.29579 0.0
C642 C 0.12053 0.45591 0.31765 0.0
C643 C 0.10848 0.45506 0.30091 0.0
C644 C 0.12542 0.47782 0.32932 0.0
C645 C 0.1193 0.49898 0.32427 0.0
U646 U 0.09028 0.54629 0.27662 0.0
O647 O 0.07266 0.57372 0.2846 0.0
O648 O 0.11647 0.5927 0.27355 0.0
C649 C 0.0965 0.59722 0.28039 0.0
C650 C 0.10503 0.52347 0.30245 0.0
C651 C 0.10662 0.622 0.29233 0.0
C652 C 0.1179 0.64474 0.32131 0.0
C653 C 0.10899 0.62042 0.31075 0.0
C654 C 0.12246 0.67225 0.29517 0.0
C655 C 0.12467 0.67086 0.31354 0.0
C656 C 0.11352 0.64813 0.28473 0.0
C657 C 0.06263 0.52062 0.22828 0.0
C658 C 0.05833 0.54666 0.20338 0.0
C659 C 0.04965 0.49922 0.1992 0.0
C660 C 0.0545 0.49743 0.21714 0.0
C661 C 0.05424 0.52482 0.19145 0.0
C662 C 0.06332 0.54489 0.22147 0.0
C663 C 0.07151 0.51881 0.24651 0.0
O664 O 0.1234 0.54089 0.29073 0.0
O665 O 0.07865 0.51936 0.30043 0.0
O666 O 0.05413 0.51668 0.25942 0.0
O667 O 0.09906 0.53532 0.25034 0.0
H668 H 0.0939 0.47596 0.28271 0.0
H669 H 0.10445 0.43825 0.29172 0.0
H670 H 0.13465 0.47889 0.34225 0.0
H671 H 0.12396 0.51601 0.33343 0.0
H672 H 0.11934 0.64319 0.33548 0.0
H673 H 0.10378 0.60049 0.31694 0.0
H674 H 0.12732 0.69204 0.28892 0.0
H675 H 0.11173 0.64986 0.27059 0.0
H676 H 0.0578 0.5653 0.19937 0.0
H677 H 0.04294 0.48035 0.19135 0.0
H678 H 0.05257 0.47795 0.22225 0.0
H679 H 0.06809 0.56261 0.23006 0.0
C680 C 0.38661 0.50175 0.30302 0.0
C681 C 0.36717 0.48129 0.291 0.0
C682 C 0.33283 0.45623 0.31491 0.0
C683 C 0.34047 0.45863 0.29693 0.0
C684 C 0.35238 0.47661 0.32677 0.0
C685 C 0.37889 0.49899 0.32089 0.0
U686 U 0.45306 0.55275 0.27251 0.0
O687 O 0.47591 0.59956 0.27262 0.0
O688 O 0.49907 0.5775 0.28078 0.0
C689 C 0.50048 0.60207 0.27823 0.0
C690 C 0.41472 0.52681 0.29782 0.0
C691 C 0.51871 0.62593 0.29041 0.0
C692 C 0.52813 0.6524 0.31801 0.0
C693 C 0.51027 0.62833 0.3076 0.0
C694 C 0.56296 0.67165 0.29431 0.0
C695 C 0.55456 0.67445 0.31135 0.0
C696 C 0.54533 0.6477 0.28403 0.0
C697 C 0.45345 0.53081 0.22258 0.0
C698 C 0.49063 0.54748 0.19976 0.0
C699 C 0.44176 0.51021 0.19312 0.0
C700 C 0.4334 0.51175 0.21033 0.0
C701 C 0.47056 0.52753 0.18773 0.0
C702 C 0.48213 0.54915 0.21711 0.0
C703 C 0.44343 0.52917 0.24099 0.0
O704 O 0.43689 0.52298 0.29502 0.0
O705 O 0.41399 0.54534 0.28701 0.0
O706 O 0.43426 0.54655 0.24573 0.0
O707 O 0.45762 0.52449 0.25356 0.0
H708 H 0.37251 0.48289 0.27712 0.0
H709 H 0.32573 0.44308 0.28754 0.0
H710 H 0.34709 0.4752 0.34065 0.0
H711 H 0.39343 0.51443 0.33041 0.0
H712 H 0.52116 0.65407 0.33113 0.0
H713 H 0.48985 0.61189 0.31286 0.0
H714 H 0.58313 0.68823 0.28885 0.0
H715 H 0.55234 0.64639 0.27084 0.0
H716 H 0.51299 0.56107 0.19588 0.0
H717 H 0.42594 0.49463 0.18416 0.0
H718 H 0.41123 0.49735 0.21426 0.0
H719 H 0.498 0.56411 0.2263 0.0
Tb720 Tb 0.50159 0.99055 0.99636 0.0
C721 C 0.56098 0.07957 0.05692 0.0
C722 C 0.60614 0.07979 0.06111 0.0
C723 C 0.60118 0.11909 0.07203 0.0
C724 C 0.57723 0.06651 0.05492 0.0
C725 C 0.5727 0.10607 0.06545 0.0
C726 C 0.61781 0.10587 0.06996 0.0
C727 C 0.52673 0.10404 0.06123 0.0
N728 N 0.53367 0.06636 0.05031 0.0
C729 C 0.51598 0.07757 0.05317 0.0
C730 C 0.55533 0.1185 0.06727 0.0
Tb731 Tb 0.51676 0.02157 0.03931 0.0
N732 N 0.56589 0.04267 0.04495 0.0
C733 C 0.58317 0.03179 0.04007 0.0
C734 C 0.62306 0.06753 0.05709 0.0
C735 C 0.61165 0.04369 0.04625 0.0
H736 H 0.49343 0.06603 0.04918 0.0
H737 H 0.62487 0.03461 0.04246 0.0
H738 H 0.63998 0.11644 0.07473 0.0
H739 H 0.51281 0.11305 0.06301 0.0
H740 H 0.57544 0.01383 0.03138 0.0
H741 H 0.39103 0.97174 0.99211 0.0
H742 H 0.64536 0.07708 0.06153 0.0
H743 H 0.52807 0.95046 0.98231 0.0
H744 H 0.44298 1.00053 0.99494 0.0
H745 H 0.50927 0.90075 0.97304 0.0
H746 H 0.61059 0.13944 0.07862 0.0
H747 H 0.36806 0.91989 0.98855 0.0
H748 H 0.37389 0.8776 0.9837 0.0
H749 H 0.56359 0.13892 0.07363 0.0
H750 H 0.4061 0.8582 0.97816 0.0
N751 N 0.4516 0.96602 0.99332 0.0
C752 C 0.43439 0.97826 0.99314 0.0
C753 C 0.39142 0.93259 0.98974 0.0
C754 C 0.40896 0.92029 0.9886 0.0
C755 C 0.40428 0.9618 0.99162 0.0
C756 C 0.43932 0.93777 0.99037 0.0
H757 H 0.45651 0.86689 0.97349 0.0
N758 N 0.48643 0.94449 0.98865 0.0
C759 C 0.49444 0.90766 0.97737 0.0
C760 C 0.45736 0.92672 0.98769 0.0
C761 C 0.50499 0.93572 0.9827 0.0
C762 C 0.46466 0.88862 0.97764 0.0
C763 C 0.44567 0.89813 0.98259 0.0
O764 O 0.5287 0.99946 0.97443 0.0
O765 O 0.5313 0.02745 1.01195 0.0
O766 O 0.50999 0.05133 0.02258 0.0
O767 O 0.49186 0.02558 0.99674 0.0
O768 O 0.54907 0.01116 0.99574 0.0
O769 O 0.48754 0.99736 0.97149 0.0
O770 O 0.49072 0.01765 0.06126 0.0
O771 O 0.48535 0.98663 0.02318 0.0
O772 O 0.5142 0.9639 1.01202 0.0
O773 O 0.52592 0.98619 0.03928 0.0
O774 O 0.47127 0.00832 0.03862 0.0
O775 O 0.51849 0.99978 0.06191 0.0
C776 C 0.55569 0.03282 1.00564 0.0
C777 C 0.51104 0.9943 0.94518 0.0
C778 C 0.51952 0.00827 0.91414 0.0
C779 C 0.51519 0.01386 0.93168 0.0
C780 C 0.51937 0.98301 0.91026 0.0
C781 C 0.51069 0.9691 0.94089 0.0
C782 C 0.51487 0.96353 0.92355 0.0
C783 C 0.49792 0.04792 1.00667 0.0
C784 C 0.51138 1.00253 0.96371 0.0
C785 C 0.41547 0.88031 0.98179 0.0
C786 C 0.39713 0.89135 0.98492 0.0
C787 C 0.46252 0.98652 0.02861 0.0
C788 C 0.50738 0.01277 0.08942 0.0
C789 C 0.49728 0.99239 0.10309 0.0
C790 C 0.50389 1.00114 0.12088 0.0
C791 C 0.52093 0.03015 0.12473 0.0
C792 C 0.52331 0.04158 0.09388 0.0
C793 C 0.53042 0.05019 0.11132 0.0
C794 C 0.52373 0.96609 0.0285 0.0
C795 C 0.5001 1.00396 0.07076 0.0
H796 H 0.51565 0.03352 0.9348 0.0
H797 H 0.52259 0.97831 0.89686 0.0
H798 H 0.50788 0.95396 0.95092 0.0
H799 H 0.51486 0.94414 0.92041 0.0
H800 H 0.48396 0.97006 0.09998 0.0
H801 H 0.52613 0.03733 0.13828 0.0
H802 H 0.52974 0.05764 0.08404 0.0
H803 H 0.54283 0.07255 0.11448 0.0
Tb804 Tb 0.0255 0.51135 0.99692 0.0
C805 C 0.9301 0.47839 0.05056 0.0
C806 C 0.92249 0.51861 0.04785 0.0
C807 C 0.88413 0.47394 0.05935 0.0
C808 C 0.94022 0.5063 0.04595 0.0
C809 C 0.90209 0.46199 0.05762 0.0
C810 C 0.8943 0.50219 0.05444 0.0
C811 C 0.91262 0.42403 0.06215 0.0
N812 N 0.94809 0.46763 0.04871 0.0
C813 C 0.94026 0.44118 0.05505 0.0
C814 C 0.89331 0.43435 0.0632 0.0
Tb815 Tb 0.99395 0.49853 0.03941 0.0
N816 N 0.9676 0.52148 0.03975 0.0
C817 C 0.97859 0.54938 0.03528 0.0
C818 C 0.93367 0.54706 0.04317 0.0
C819 C 0.96189 0.56251 0.03685 0.0
H820 H 0.95538 0.43339 0.05452 0.0
H821 H 0.97076 0.58445 0.03299 0.0
H822 H 0.88033 0.51123 0.05596 0.0
H823 H 0.90625 0.40293 0.06681 0.0
H824 H 0.99984 0.56148 0.0297 0.0
H825 H 0.04243 0.42084 0.98748 0.0
H826 H 0.9207 0.55724 0.04436 0.0
H827 H 0.07108 0.57862 0.98415 0.0
H828 H 0.01366 0.44362 0.98873 0.0
H829 H 0.12319 0.60898 0.97936 0.0
H830 H 0.86249 0.46166 0.06469 0.0
H831 H 0.09562 0.44882 0.99024 0.0
H832 H 0.14024 0.49626 0.99137 0.0
H833 H 0.87196 0.42107 0.06873 0.0
H834 H 0.1625 0.54792 0.98877 0.0
N835 N 0.04936 0.48564 0.99382 0.0
C836 C 0.03652 0.45698 0.99064 0.0
C837 C 0.08295 0.45935 0.99113 0.0
C838 C 0.09631 0.48877 0.99266 0.0
C839 C 0.05299 0.44354 0.98953 0.0
C840 C 0.07881 0.50154 0.99373 0.0
H841 H 0.15627 0.58988 0.98351 0.0
N842 N 0.07398 0.5422 0.99189 0.0
C843 C 0.11467 0.58711 0.98327 0.0
C844 C 0.09148 0.53072 0.99255 0.0
C845 C 0.08498 0.56961 0.986 0.0
C846 C 0.13324 0.57629 0.98571 0.0
C847 C 0.1217 0.54764 0.98992 0.0
O848 O 0.02384 0.53769 0.97772 0.0
O849 O 0.99605 0.5178 1.01376 0.0
O850 O 0.96322 0.46092 0.02348 0.0
O851 O 0.99175 0.46644 0.99909 0.0
O852 O 0.98207 0.50193 0.98908 0.0
O853 O 0.02412 0.49907 0.96991 0.0
O854 O 1.00851 0.48646 0.06203 0.0
O855 O 0.03018 0.50179 0.02409 0.0
O856 O 0.04851 0.55242 1.01187 0.0
O857 O 0.03055 0.5418 0.04033 0.0
O858 O 1.00771 0.46684 0.03965 0.0
O859 O 1.00035 0.52088 0.06333 0.0
C860 C 0.97485 0.51027 1.00293 0.0
C861 C 0.02284 0.53021 0.94643 0.0
C862 C 1.00777 0.52012 0.91548 0.0
C863 C 0.01006 0.51051 0.93245 0.0
C864 C 0.01889 0.5493 0.91273 0.0
C865 C 0.03424 0.55924 0.94306 0.0
C866 C 0.0323 0.56865 0.92634 0.0
C867 C 0.96737 0.45166 1.00811 0.0
C868 C 0.02292 0.52145 0.96486 0.0
C869 C 0.13924 0.53517 0.99043 0.0
C870 C 0.12656 0.50576 0.99189 0.0
C871 C 0.03034 0.47977 0.02983 0.0
C872 C 0.99828 0.49745 0.09025 0.0
C873 C 0.0177 0.50877 0.10459 0.0
C874 C 1.008 0.4995 0.1219 0.0
C875 C 0.97921 0.47833 0.12471 0.0
C876 C 0.96922 0.47745 0.09357 0.0
C877 C 0.95991 0.46744 0.11059 0.0
C878 C 0.0485 0.55982 0.02864 0.0
C879 C 1.00896 0.50591 0.07205 0.0
H880 H 1.00146 0.48807 0.93481 0.0
H881 H 0.01751 0.55719 0.89984 0.0
H882 H 0.04443 0.5748 0.95346 0.0
H883 H 0.04106 0.59107 0.92396 0.0
H884 H 0.04016 0.52466 0.10233 0.0
H885 H 0.97159 0.47063 0.13791 0.0
H886 H 0.95355 0.46974 0.08316 0.0
H887 H 0.93754 0.45147 0.11286 0.0
Tb888 Tb 0.51959 0.5003 0.03906 0.0
C889 C 0.45513 0.53103 0.98884 0.0
C890 C 0.40766 0.48896 0.98823 0.0
C891 C 0.41188 0.53526 0.98575 0.0
C892 C 0.4381 0.50191 0.99007 0.0
C893 C 0.44218 0.54779 0.98551 0.0
C894 C 0.3946 0.50582 0.98721 0.0
C895 C 0.48955 0.58692 0.97867 0.0
N896 N 0.48433 0.5424 0.98842 0.0
C897 C 0.50144 0.56968 0.98241 0.0
C898 C 0.45988 0.57618 0.98075 0.0
Tb899 Tb 0.50115 0.51181 0.99523 0.0
N900 N 0.45154 0.48628 0.99032 0.0
C901 C 0.43593 0.45812 0.9856 0.0
C902 C 0.39145 0.45965 0.98581 0.0
C903 C 0.40581 0.44439 0.9837 0.0
H904 H 0.52459 0.57857 0.98099 0.0
H905 H 0.39372 0.42201 0.98055 0.0
H906 H 0.37126 0.49621 0.98621 0.0
H907 H 0.50335 0.60859 0.9744 0.0
H908 H 0.44603 0.44563 0.98286 0.0
H909 H 0.62984 0.58897 0.03746 0.0
H910 H 0.3681 0.44896 0.98423 0.0
H911 H 0.49445 0.43641 0.05617 0.0
H912 H 0.5775 0.56622 0.03512 0.0
H913 H 0.51329 0.40438 0.06397 0.0
H914 H 0.4016 0.54791 0.98368 0.0
H915 H 0.65328 0.56034 0.04317 0.0
H916 H 0.64796 0.51269 0.0495 0.0
H917 H 0.4507 0.58961 0.97789 0.0
H918 H 0.61617 0.46203 0.05608 0.0
N919 N 0.56954 0.5243 0.04042 0.0
C920 C 0.58654 0.55307 0.03834 0.0
C921 C 0.62985 0.55007 0.04255 0.0
C922 C 0.61255 0.52086 0.04511 0.0
C923 C 0.61673 0.5663 0.03943 0.0
C924 C 0.58212 0.50856 0.04417 0.0
H925 H 0.56581 0.42134 0.0615 0.0
N926 N 0.53532 0.46981 0.04761 0.0
C927 C 0.52788 0.42556 0.05918 0.0
C928 C 0.56436 0.48022 0.04774 0.0
C929 C 0.51723 0.44359 0.0546 0.0
C930 C 0.55752 0.4352 0.05778 0.0
C931 C 0.5763 0.46316 0.05254 0.0
O932 O 0.49301 0.4864 0.06183 0.0
O933 O 0.48734 0.50306 0.02253 0.0
O934 O 0.51778 0.55299 1.00974 0.0
O935 O 0.52755 0.54362 0.03807 0.0
O936 O 0.47294 0.47061 0.04007 0.0
O937 O 0.53419 0.52406 0.06226 0.0
O938 O 0.52866 0.53602 0.97454 0.0
O939 O 0.53627 0.51854 1.01341 0.0
O940 O 0.51081 0.46232 0.02388 0.0
O941 O 0.48677 0.46643 0.99924 0.0
O942 O 0.53819 0.50751 0.98825 0.0
O943 O 0.49374 0.49295 0.97012 0.0
C944 C 0.4642 0.4824 0.02877 0.0
C945 C 0.51615 0.50204 0.08954 0.0
C946 C 0.50989 0.50581 0.12118 0.0
C947 C 0.50278 0.50818 0.10355 0.0
C948 C 0.52986 0.49653 0.12445 0.0
C949 C 0.53563 0.49244 0.09318 0.0
C950 C 0.54229 0.48955 0.11057 0.0
C951 C 0.52589 0.56078 0.02644 0.0
C952 C 0.51122 0.50774 0.0713 0.0
C953 C 0.60655 0.47487 0.05263 0.0
C954 C 0.62466 0.50371 0.04893 0.0
C955 C 0.55133 0.51271 1.00294 0.0
C956 C 0.51343 0.52199 0.94473 0.0
C957 C 0.5191 0.5077 0.93118 0.0
C958 C 0.51869 0.51507 0.91342 0.0
C959 C 0.51261 0.53672 0.90936 0.0
C960 C 0.50709 0.54333 0.94033 0.0
C961 C 0.50681 0.55071 0.92275 0.0
C962 C 0.49518 0.45191 1.00932 0.0
C963 C 0.51583 0.51519 0.96324 0.0
H964 H 0.48739 0.51525 0.10077 0.0
H965 H 0.53558 0.49433 0.13786 0.0
H966 H 0.54614 0.48773 0.08261 0.0
H967 H 0.55741 0.4822 0.11331 0.0
H968 H 0.52414 0.4912 0.93441 0.0
H969 H 0.51242 0.54283 0.89578 0.0
H970 H 0.50255 0.55449 0.95037 0.0
H971 H 0.50217 0.56741 0.91948 0.0
Tb972 Tb 0.16696 0.32464 0.32921 0.0
C973 C 0.22987 0.41869 0.38032 0.0
C974 C 0.27757 0.42359 0.3793 0.0
C975 C 0.27275 0.46496 0.38472 0.0
C976 C 0.2471 0.40674 0.37791 0.0
C977 C 0.24245 0.44779 0.38435 0.0
C978 C 0.2903 0.45287 0.38216 0.0
C979 C 0.19442 0.44012 0.38962 0.0
N980 N 0.20072 0.40141 0.37989 0.0
C981 C 0.18305 0.41141 0.38571 0.0
C982 C 0.22424 0.45854 0.38858 0.0
Tb983 Tb 0.18393 0.35461 0.37244 0.0
N984 N 0.23396 0.37834 0.37532 0.0
C985 C 0.25036 0.36526 0.37588 0.0
C986 C 0.2943 0.41042 0.37849 0.0
C987 C 0.28055 0.38104 0.37722 0.0
H988 H 0.15989 0.39731 0.38665 0.0
H989 H 0.29319 0.37045 0.37713 0.0
H990 H 0.31364 0.46616 0.38305 0.0
H991 H 0.18017 0.44799 0.3935 0.0
H992 H 0.24094 0.34268 0.375 0.0
H993 H 0.05935 0.31354 0.32653 0.0
H994 H 0.31773 0.42259 0.37948 0.0
H995 H 0.1892 0.27963 0.3173 0.0
H996 H 0.10834 0.33324 0.33762 0.0
H997 H 0.1685 0.23226 0.3041 0.0
H998 H 0.2828 0.48742 0.38757 0.0
H999 H 0.03807 0.27106 0.30752 0.0
H1000 H 0.04229 0.23119 0.29438 0.0
H1001 H 0.23305 0.48076 0.39174 0.0
H1002 H 0.07091 0.20762 0.28983 0.0
N1003 N 0.11768 0.30435 0.32378 0.0
C1004 C 0.10073 0.31564 0.32871 0.0
C1005 C 0.0604 0.28031 0.31185 0.0
C1006 C 0.07686 0.26761 0.30776 0.0
C1007 C 0.07227 0.30417 0.32263 0.0
C1008 C 0.10592 0.28058 0.31366 0.0
H1009 H 0.11741 0.20722 0.2941 0.0
N1010 N 0.14945 0.28005 0.31746 0.0
C1011 C 0.15497 0.24163 0.30622 0.0
C1012 C 0.12206 0.26746 0.31093 0.0
C1013 C 0.16645 0.26818 0.31425 0.0
C1014 C 0.12628 0.22775 0.30041 0.0
C1015 C 0.10959 0.24085 0.30242 0.0
O1016 O 0.19543 0.33258 0.30814 0.0
O1017 O 0.19834 0.36014 0.34533 0.0
O1018 O 0.16969 0.38038 0.35767 0.0
O1019 O 0.15692 0.359 0.32999 0.0
O1020 O 0.21351 0.34052 0.3293 0.0
O1021 O 0.16107 0.34217 0.30554 0.0
O1022 O 0.16275 0.35314 0.396 0.0
O1023 O 0.1524 0.3179 0.35695 0.0
O1024 O 0.17422 0.29423 0.34461 0.0
O1025 O 0.19229 0.31867 0.37109 0.0
O1026 O 0.13693 0.33561 0.374 0.0
O1027 O 0.19501 0.34012 0.39544 0.0
C1028 C 0.2217 0.36195 0.33961 0.0
C1029 C 0.18019 0.33384 0.27903 0.0
C1030 C 0.1867 0.34632 0.24767 0.0
C1031 C 0.18582 0.35373 0.26543 0.0
C1032 C 0.1819 0.31916 0.2437 0.0
C1033 C 0.17519 0.30676 0.27451 0.0
C1034 C 0.17609 0.29951 0.25704 0.0
C1035 C 0.15929 0.37817 0.34151 0.0
C1036 C 0.18302 0.34245 0.29779 0.0
C1037 C 0.08086 0.22806 0.29634 0.0
C1038 C 0.06461 0.24154 0.29886 0.0
C1039 C 0.12869 0.31397 0.36386 0.0
C1040 C 0.18447 0.35318 0.42321 0.0
C1041 C 0.17187 0.33293 0.43669 0.0
C1042 C 0.17739 0.34125 0.45442 0.0
C1043 C 0.19519 0.37013 0.45848 0.0
C1044 C 0.20211 0.38187 0.42741 0.0
C1045 C 0.20737 0.39028 0.44505 0.0
C1046 C 0.18738 0.29778 0.36008 0.0
C1047 C 0.17687 0.34363 0.40504 0.0
H1048 H 0.18992 0.37484 0.26862 0.0
H1049 H 0.18253 0.31313 0.23016 0.0
H1050 H 0.17133 0.29129 0.28443 0.0
H1051 H 0.17251 0.27862 0.25385 0.0
H1052 H 0.15759 0.31077 0.43342 0.0
H1053 H 0.19936 0.37709 0.4721 0.0
H1054 H 0.21147 0.39769 0.41712 0.0
H1055 H 0.22077 0.41249 0.44834 0.0
Tb1056 Tb 0.6915 0.84382 0.33074 0.0
C1057 C 0.59511 0.81249 0.37886 0.0
C1058 C 0.59123 0.85493 0.37907 0.0
C1059 C 0.54774 0.80881 0.38084 0.0
C1060 C 0.60814 0.84161 0.37772 0.0
C1061 C 0.56487 0.79586 0.38126 0.0
C1062 C 0.56092 0.83835 0.37975 0.0
C1063 C 0.5713 0.7559 0.38772 0.0
N1064 N 0.61241 0.80083 0.37969 0.0
C1065 C 0.60117 0.77334 0.38552 0.0
C1066 C 0.55297 0.76704 0.38512 0.0
Tb1067 Tb 0.6609 0.83109 0.37387 0.0
N1068 N 0.63753 0.85693 0.3774 0.0
C1069 C 0.65118 0.88556 0.38068 0.0
C1070 C 0.60527 0.88436 0.38098 0.0
C1071 C 0.63533 0.89957 0.38246 0.0
H1072 H 0.61522 0.76446 0.38737 0.0
H1073 H 0.64644 0.92224 0.38468 0.0
H1074 H 0.54761 0.84823 0.38044 0.0
H1075 H 0.56247 0.73392 0.39145 0.0
H1076 H 0.67432 0.89829 0.38207 0.0
H1077 H 0.70974 0.7541 0.32718 0.0
H1078 H 0.59309 0.89534 0.3822 0.0
H1079 H 0.73316 0.9111 0.31807 0.0
H1080 H 0.68565 0.77927 0.3373 0.0
H1081 H 0.78207 0.94141 0.30618 0.0
H1082 H 0.52443 0.79633 0.38233 0.0
H1083 H 0.75552 0.77944 0.31059 0.0
H1084 H 0.79585 0.8255 0.2994 0.0
H1085 H 0.52986 0.75358 0.38704 0.0
H1086 H 0.81686 0.87688 0.29533 0.0
N1087 N 0.71535 0.81886 0.32549 0.0
C1088 C 0.70466 0.79082 0.32952 0.0
C1089 C 0.74435 0.7906 0.31453 0.0
C1090 C 0.7561 0.81949 0.31109 0.0
C1091 C 0.71865 0.77629 0.32395 0.0
C1092 C 0.74057 0.83301 0.31639 0.0
H1093 H 0.81239 0.92038 0.29839 0.0
N1094 N 0.73682 0.87402 0.31943 0.0
C1095 C 0.7742 0.91912 0.30852 0.0
C1096 C 0.75219 0.86178 0.31385 0.0
C1097 C 0.74671 0.90202 0.3157 0.0
C1098 C 0.79109 0.90714 0.30401 0.0
C1099 C 0.77988 0.87801 0.30623 0.0
O1100 O 0.67718 0.85943 0.31019 0.0
O1101 O 0.65551 0.84004 0.3467 0.0
O1102 O 0.63116 0.79412 0.35809 0.0
O1103 O 0.65688 0.79865 0.33254 0.0
O1104 O 0.67624 0.87432 0.33062 0.0
O1105 O 0.67998 0.82203 0.306 0.0
O1106 O 0.66247 0.80987 0.39659 0.0
O1107 O 0.6983 0.83656 0.35853 0.0
O1108 O 0.72283 0.88133 0.34597 0.0
O1109 O 0.69751 0.87552 0.37216 0.0
O1110 O 0.67968 0.80328 0.37509 0.0
O1111 O 0.67301 0.85355 0.39814 0.0
C1112 C 0.65445 0.86166 0.34108 0.0
C1113 C 0.68375 0.85088 0.28078 0.0
C1114 C 0.67389 0.84608 0.24903 0.0
C1115 C 0.66909 0.83385 0.26603 0.0
C1116 C 0.69425 0.87499 0.24694 0.0
C1117 C 0.70401 0.87972 0.2781 0.0
C1118 C 0.70951 0.89151 0.26133 0.0
C1119 C 0.63475 0.78379 0.34324 0.0
C1120 C 0.67393 0.84028 0.29889 0.0
C1121 C 0.79549 0.86472 0.30108 0.0
C1122 C 0.78348 0.83547 0.30331 0.0
C1123 C 0.70214 0.81712 0.36528 0.0
C1124 C 0.65877 0.82633 0.42489 0.0
C1125 C 0.67844 0.83856 0.43902 0.0
C1126 C 0.66912 0.83069 0.45651 0.0
C1127 C 0.64006 0.81053 0.45973 0.0
C1128 C 0.6297 0.80655 0.42839 0.0
C1129 C 0.62047 0.79865 0.44574 0.0
C1130 C 0.71905 0.89122 0.36113 0.0
C1131 C 0.67007 0.83165 0.4068 0.0
H1132 H 0.65307 0.81169 0.26784 0.0
H1133 H 0.69829 0.88486 0.23405 0.0
H1134 H 0.71445 0.89379 0.289 0.0
H1135 H 0.72495 0.91381 0.25957 0.0
H1136 H 0.7011 0.85348 0.43642 0.0
H1137 H 0.63263 0.8039 0.47309 0.0
H1138 H 0.61428 0.79678 0.41778 0.0
H1139 H 0.59811 0.78298 0.44833 0.0
Tb1140 Tb 0.18689 0.83409 0.37218 0.0
C1141 C 0.12636 0.86714 0.32216 0.0
C1142 C 0.07708 0.82872 0.32577 0.0
C1143 C 0.08606 0.8762 0.3198 0.0
C1144 C 0.10727 0.83899 0.32566 0.0
C1145 C 0.1158 0.88571 0.31817 0.0
C1146 C 0.06672 0.84773 0.32374 0.0
C1147 C 0.16417 0.92057 0.30921 0.0
N1148 N 0.15502 0.87569 0.32098 0.0
C1149 C 0.17371 0.90159 0.31362 0.0
C1150 C 0.13521 0.91283 0.31187 0.0
Tb1151 Tb 0.16798 0.84261 0.32886 0.0
N1152 N 0.11805 0.82115 0.32684 0.0
C1153 C 0.09939 0.79255 0.32516 0.0
C1154 C 0.05816 0.79949 0.32667 0.0
C1155 C 0.0694 0.78129 0.32572 0.0
H1156 H 0.19633 0.90813 0.31182 0.0
H1157 H 0.05499 0.75859 0.32494 0.0
H1158 H 0.04368 0.84031 0.32413 0.0
H1159 H 0.17924 0.94128 0.30398 0.0
H1160 H 0.10686 0.77793 0.32252 0.0
H1161 H 0.29708 0.92372 0.3669 0.0
H1162 H 0.03488 0.79075 0.3268 0.0
H1163 H 0.16232 0.7675 0.386 0.0
H1164 H 0.24519 0.89937 0.36252 0.0
H1165 H 0.18295 0.73883 0.39711 0.0
H1166 H 0.07765 0.89035 0.31725 0.0
H1167 H 0.32064 0.8982 0.37912 0.0
H1168 H 0.31611 0.85304 0.39021 0.0
H1169 H 0.12792 0.92764 0.30857 0.0
H1170 H 0.2854 0.8027 0.39765 0.0
N1171 N 0.23698 0.85993 0.37383 0.0
C1172 C 0.254 0.88777 0.36891 0.0
C1173 C 0.29726 0.88734 0.37778 0.0
C1174 C 0.28021 0.85881 0.38238 0.0
C1175 C 0.28406 0.90182 0.37096 0.0
C1176 C 0.24977 0.84552 0.38031 0.0
H1177 H 0.23604 0.76 0.39999 0.0
N1178 N 0.20344 0.80446 0.38148 0.0
C1179 C 0.19718 0.7607 0.39337 0.0
C1180 C 0.2325 0.81699 0.38428 0.0
C1181 C 0.18563 0.77707 0.38698 0.0
C1182 C 0.22711 0.77275 0.39504 0.0
C1183 C 0.24515 0.80128 0.39075 0.0
O1184 O 0.15706 0.81141 0.39173 0.0
O1185 O 0.14988 0.82472 0.3546 0.0
O1186 O 0.18562 0.88497 0.34311 0.0
O1187 O 0.19667 0.87772 0.37157 0.0
O1188 O 0.15392 0.84488 0.37811 0.0
O1189 O 0.19841 0.84845 0.39878 0.0
O1190 O 0.19431 0.86214 0.30667 0.0
O1191 O 0.20434 0.85188 0.34663 0.0
O1192 O 0.17322 0.79342 0.35767 0.0
O1193 O 0.15333 0.79744 0.33129 0.0
O1194 O 0.2035 0.835 0.3228 0.0
O1195 O 0.15507 0.82163 0.30449 0.0
C1196 C 0.1375 0.83449 0.36464 0.0
C1197 C 0.16706 0.81827 0.4225 0.0
C1198 C 0.15978 0.82649 0.45333 0.0
C1199 C 0.17182 0.83713 0.43657 0.0
C1200 C 0.14381 0.79696 0.45583 0.0
C1201 C 0.15176 0.78892 0.42562 0.0
C1202 C 0.14031 0.77842 0.44219 0.0
C1203 C 0.19475 0.89424 0.35963 0.0
C1204 C 0.1729 0.82881 0.40421 0.0
C1205 C 0.27534 0.81449 0.39281 0.0
C1206 C 0.29281 0.84316 0.38863 0.0
C1207 C 0.21854 0.8441 0.33684 0.0
C1208 C 0.17315 0.8478 0.27821 0.0
C1209 C 0.18453 0.8398 0.26401 0.0
C1210 C 0.17938 0.84495 0.24654 0.0
C1211 C 0.16352 0.85886 0.24353 0.0
C1212 C 0.15686 0.86109 0.27489 0.0
C1213 C 0.15243 0.86692 0.25761 0.0
C1214 C 0.15942 0.78268 0.34252 0.0
C1215 C 0.17773 0.84112 0.29627 0.0
H1216 H 0.18374 0.85983 0.43433 0.0
H1217 H 0.13429 0.7882 0.46854 0.0
H1218 H 0.14748 0.77396 0.41508 0.0
H1219 H 0.12811 0.75576 0.44437 0.0
H1220 H 0.19711 0.82945 0.2665 0.0
H1221 H 0.15976 0.86351 0.2302 0.0
H1222 H 0.14728 0.86667 0.28555 0.0
H1223 H 0.14014 0.87751 0.25512 0.0
Tb1224 Tb 0.83516 0.65824 0.6629 0.0
C1225 C 0.89434 0.7444 0.72439 0.0
C1226 C 0.94002 0.74521 0.72834 0.0
C1227 C 0.9348 0.78431 0.7392 0.0
C1228 C 0.91101 0.73151 0.72219 0.0
C1229 C 0.90628 0.77112 0.73275 0.0
C1230 C 0.95153 0.77129 0.73714 0.0
C1231 C 0.86093 0.77001 0.72805 0.0
N1232 N 0.86716 0.73165 0.71743 0.0
C1233 C 0.8499 0.74346 0.7201 0.0
C1234 C 0.88935 0.78404 0.73425 0.0
Tb1235 Tb 0.85077 0.68675 0.70656 0.0
N1236 N 0.90014 0.70766 0.71209 0.0
C1237 C 0.91804 0.6973 0.70731 0.0
C1238 C 0.95739 0.73344 0.72437 0.0
C1239 C 0.94648 0.70969 0.71356 0.0
H1240 H 0.8272 0.73229 0.71648 0.0
H1241 H 0.96017 0.70113 0.70975 0.0
H1242 H 0.97377 0.78211 0.7418 0.0
H1243 H 0.84728 0.77935 0.72967 0.0
H1244 H 0.91136 0.67983 0.69831 0.0
H1245 H 0.72577 0.64171 0.66469 0.0
H1246 H 0.97972 0.74339 0.7288 0.0
H1247 H 0.86002 0.61623 0.64967 0.0
H1248 H 0.77799 0.66841 0.66862 0.0
H1249 H 0.83993 0.56644 0.64026 0.0
H1250 H 0.94427 0.80483 0.74561 0.0
H1251 H 0.70174 0.59139 0.65572 0.0
H1252 H 0.70613 0.54923 0.64733 0.0
H1253 H 0.89786 0.80463 0.74044 0.0
H1254 H 0.73701 0.52846 0.64132 0.0
N1255 N 0.78532 0.6348 0.66089 0.0
C1256 C 0.7687 0.64714 0.66386 0.0
C1257 C 0.72513 0.60336 0.65703 0.0
C1258 C 0.74201 0.59073 0.65391 0.0
C1259 C 0.73859 0.63174 0.66199 0.0
C1260 C 0.77241 0.6072 0.65596 0.0
H1261 H 0.78681 0.53461 0.63875 0.0
N1262 N 0.81883 0.61192 0.6551 0.0
C1263 C 0.82552 0.57414 0.64409 0.0
C1264 C 0.78972 0.59538 0.65298 0.0
C1265 C 0.83683 0.60219 0.64965 0.0
C1266 C 0.79556 0.55629 0.64319 0.0
C1267 C 0.77724 0.56697 0.64733 0.0
O1268 O 0.86266 0.66855 0.64117 0.0
O1269 O 0.86544 0.69455 0.67909 0.0
O1270 O 0.83462 0.71166 0.69132 0.0
O1271 O 0.82865 0.69483 0.66255 0.0
O1272 O 0.8824 0.67709 0.66308 0.0
O1273 O 0.82045 0.66365 0.63778 0.0
O1274 O 0.82168 0.68395 0.72618 0.0
O1275 O 0.81658 0.65946 0.68793 0.0
O1276 O 0.84382 0.62929 0.67894 0.0
O1277 O 0.86357 0.6543 0.70507 0.0
O1278 O 0.81428 0.64562 0.71281 0.0
O1279 O 0.85574 0.67396 0.73196 0.0
C1280 C 0.88959 0.69905 0.67283 0.0
C1281 C 0.8456 0.66181 0.61188 0.0
C1282 C 0.85412 0.67529 0.58076 0.0
C1283 C 0.84729 0.67984 0.59796 0.0
C1284 C 0.85863 0.65236 0.57763 0.0
C1285 C 0.84987 0.63889 0.60828 0.0
C1286 C 0.85624 0.63417 0.59126 0.0
C1287 C 0.82808 0.71238 0.6743 0.0
C1288 C 0.84484 0.67026 0.63022 0.0
C1289 C 0.747 0.55037 0.64552 0.0
C1290 C 0.72942 0.56221 0.64886 0.0
C1291 C 0.80132 0.63851 0.69806 0.0
C1292 C 0.83341 0.68258 0.75672 0.0
C1293 C 0.83325 0.66441 0.77018 0.0
C1294 C 0.82925 0.66926 0.78799 0.0
C1295 C 0.82631 0.69286 0.79211 0.0
C1296 C 0.83046 0.70594 0.76134 0.0
C1297 C 0.82718 0.71113 0.77892 0.0
C1298 C 0.85698 0.63276 0.69438 0.0
C1299 C 0.83326 0.67492 0.73801 0.0
H1300 H 0.84431 0.69781 0.60058 0.0
H1301 H 0.86382 0.64843 0.5645 0.0
H1302 H 0.84945 0.62523 0.61867 0.0
H1303 H 0.85984 0.61662 0.58869 0.0
H1304 H 0.83537 0.64617 0.76679 0.0
H1305 H 0.82332 0.69715 0.80565 0.0
H1306 H 0.82987 0.71983 0.75141 0.0
H1307 H 0.82478 0.72916 0.78232 0.0
Tb1308 Tb 0.36017 0.17707 0.66321 0.0
C1309 C 0.26549 0.14748 0.71484 0.0
C1310 C 0.25933 0.18827 0.71054 0.0
C1311 C 0.21869 0.14363 0.72033 0.0
C1312 C 0.27681 0.17552 0.71019 0.0
C1313 C 0.2366 0.13148 0.72065 0.0
C1314 C 0.23001 0.17195 0.71519 0.0
C1315 C 0.24636 0.09396 0.72855 0.0
N1316 N 0.28339 0.13646 0.71483 0.0
C1317 C 0.2747 0.1105 0.72229 0.0
C1318 C 0.22701 0.10423 0.72731 0.0
Tb1319 Tb 0.33005 0.16608 0.70619 0.0
N1320 N 0.30532 0.19065 0.70609 0.0
C1321 C 0.31804 0.21922 0.70312 0.0
C1322 C 0.272 0.21715 0.70663 0.0
C1323 C 0.3016 0.23277 0.70313 0.0
H1324 H 0.2896 0.10246 0.72315 0.0
H1325 H 0.3118 0.25523 0.70035 0.0
H1326 H 0.21616 0.18127 0.71536 0.0
H1327 H 0.23937 0.07322 0.7341 0.0
H1328 H 0.34068 0.23183 0.70032 0.0
H1329 H 0.37295 0.08776 0.64316 0.0
H1330 H 0.2593 0.2277 0.70664 0.0
H1331 H 0.40942 0.24538 0.65253 0.0
H1332 H 0.34647 0.11235 0.64836 0.0
H1333 H 0.4619 0.27468 0.65054 0.0
H1334 H 0.1963 0.13156 0.72451 0.0
H1335 H 0.42592 0.11232 0.64751 0.0
H1336 H 0.47177 0.15749 0.65299 0.0
H1337 H 0.20502 0.09133 0.73203 0.0
H1338 H 0.49641 0.2093 0.65526 0.0
N1339 N 0.38285 0.15084 0.65787 0.0
C1340 C 0.36912 0.12361 0.65138 0.0
C1341 C 0.41414 0.1233 0.65041 0.0
C1342 C 0.42864 0.15185 0.65525 0.0
C1343 C 0.38432 0.10942 0.6479 0.0
C1344 C 0.41231 0.16541 0.65856 0.0
H1345 H 0.49295 0.25322 0.65394 0.0
N1346 N 0.40968 0.20718 0.65959 0.0
C1347 C 0.4523 0.25231 0.65345 0.0
C1348 C 0.42621 0.19464 0.65964 0.0
C1349 C 0.4223 0.23533 0.65475 0.0
C1350 C 0.4697 0.24014 0.65546 0.0
C1351 C 0.45669 0.21084 0.65774 0.0
O1352 O 0.36212 0.20552 0.64427 0.0
O1353 O 0.33088 0.18376 0.68022 0.0
O1354 O 0.29873 0.12805 0.69064 0.0
O1355 O 0.32747 0.1317 0.66672 0.0
O1356 O 0.31631 0.16693 0.65581 0.0
O1357 O 0.35452 0.16411 0.63603 0.0
O1358 O 0.3387 0.15061 0.72957 0.0
O1359 O 0.36596 0.1686 0.69064 0.0
O1360 O 0.38171 0.21861 0.67718 0.0
O1361 O 0.36872 0.2089 0.70655 0.0
O1362 O 0.34369 0.13423 0.70652 0.0
O1363 O 0.33951 0.19024 0.72975 0.0
C1364 C 0.30927 0.17543 0.66965 0.0
C1365 C 0.35568 0.19702 0.61299 0.0
C1366 C 0.33992 0.18695 0.58214 0.0
C1367 C 0.3432 0.17743 0.59893 0.0
C1368 C 0.34959 0.21591 0.57966 0.0
C1369 C 0.36553 0.22589 0.60988 0.0
C1370 C 0.36252 0.23519 0.59336 0.0
C1371 C 0.30279 0.11776 0.67562 0.0
C1372 C 0.35678 0.18814 0.63129 0.0
C1373 C 0.47304 0.19717 0.65652 0.0
C1374 C 0.459 0.16767 0.65522 0.0
C1375 C 0.36605 0.1466 0.69648 0.0
C1376 C 0.33149 0.16582 0.75729 0.0
C1377 C 0.35089 0.17617 0.77171 0.0
C1378 C 0.34066 0.16782 0.78906 0.0
C1379 C 0.31123 0.1485 0.79182 0.0
C1380 C 0.3019 0.14777 0.76054 0.0
C1381 C 0.29196 0.13864 0.77762 0.0
C1382 C 0.3849 0.2264 0.69395 0.0
C1383 C 0.34292 0.1721 0.73911 0.0
H1384 H 0.33566 0.15513 0.60106 0.0
H1385 H 0.34744 0.2237 0.5669 0.0
H1386 H 0.37533 0.24142 0.62034 0.0
H1387 H 0.37011 0.25747 0.59119 0.0
H1388 H 0.37381 0.19042 0.76947 0.0
H1389 H 0.30314 0.14143 0.80503 0.0
H1390 H 0.28638 0.14074 0.74999 0.0
H1391 H 0.26917 0.12406 0.77987 0.0
Tb1392 Tb 0.8526 0.16674 0.70546 0.0
C1393 C 0.79038 0.19981 0.6547 0.0
C1394 C 0.74259 0.15835 0.65649 0.0
C1395 C 0.74753 0.20432 0.65044 0.0
C1396 C 0.77307 0.17111 0.65751 0.0
C1397 C 0.77782 0.21648 0.6502 0.0
C1398 C 0.72993 0.1753 0.65373 0.0
C1399 C 0.82568 0.25473 0.64311 0.0
N1400 N 0.81952 0.21079 0.65458 0.0
C1401 C 0.83714 0.23748 0.64792 0.0
C1402 C 0.79594 0.2444 0.64464 0.0
Tb1403 Tb 0.83603 0.18045 0.66227 0.0
N1404 N 0.78614 0.15535 0.65948 0.0
C1405 C 0.76975 0.12633 0.65846 0.0
C1406 C 0.7258 0.12882 0.65719 0.0
C1407 C 0.73951 0.11275 0.65759 0.0
H1408 H 0.86023 0.24568 0.6468 0.0
H1409 H 0.72682 0.08982 0.65736 0.0
H1410 H 0.70657 0.16592 0.65317 0.0
H1411 H 0.83981 0.27601 0.63832 0.0
H1412 H 0.77928 0.11298 0.65857 0.0
H1413 H 0.95902 0.2617 0.71057 0.0
H1414 H 0.70236 0.11822 0.65651 0.0
H1415 H 0.82976 0.10021 0.71858 0.0
H1416 H 0.91055 0.23375 0.69854 0.0
H1417 H 0.85105 0.07255 0.73042 0.0
H1418 H 0.73749 0.2169 0.64734 0.0
H1419 H 0.98066 0.23902 0.72844 0.0
H1420 H 0.97739 0.19433 0.73964 0.0
H1421 H 0.78709 0.25779 0.6409 0.0
H1422 H 0.94955 0.14249 0.74267 0.0
N1423 N 0.90171 0.19479 0.71105 0.0
C1424 C 0.91827 0.2231 0.70705 0.0
C1425 C 0.95852 0.22649 0.72378 0.0
C1426 C 0.94251 0.19734 0.72689 0.0
C1427 C 0.94643 0.23933 0.71364 0.0
C1428 C 0.91363 0.18197 0.72063 0.0
H1429 H 0.90305 0.0968 0.73842 0.0
N1430 N 0.86991 0.1388 0.71685 0.0
C1431 C 0.86461 0.09507 0.72808 0.0
C1432 C 0.89773 0.15285 0.72274 0.0
C1433 C 0.85271 0.11068 0.72093 0.0
C1434 C 0.89387 0.10885 0.73269 0.0
C1435 C 0.91054 0.13824 0.7307 0.0
O1436 O 0.82156 0.15086 0.72547 0.0
O1437 O 0.82084 0.1713 0.68931 0.0
O1438 O 0.8471 0.21961 0.6774 0.0
O1439 O 0.86158 0.21062 0.70424 0.0
O1440 O 0.80632 0.13647 0.70515 0.0
O1441 O 0.86355 0.18599 0.73089 0.0
O1442 O 0.85995 0.19906 0.63924 0.0
O1443 O 0.86721 0.17456 0.67792 0.0
O1444 O 0.84631 0.12945 0.69058 0.0
O1445 O 0.82771 0.13583 0.66409 0.0
O1446 O 0.8831 0.20834 0.66168 0.0
O1447 O 0.82302 0.15695 0.63835 0.0
C1448 C 0.79765 0.14968 0.69487 0.0
C1449 C 0.83513 0.15744 0.75523 0.0
C1450 C 0.82837 0.16285 0.78659 0.0
C1451 C 0.83918 0.17499 0.7699 0.0
C1452 C 0.81475 0.13321 0.78845 0.0
C1453 C 0.82253 0.12803 0.75774 0.0
C1454 C 0.81257 0.11609 0.77425 0.0
C1455 C 0.85778 0.22768 0.69358 0.0
C1456 C 0.83806 0.16887 0.73725 0.0
C1457 C 0.93935 0.1534 0.73664 0.0
C1458 C 0.95513 0.18292 0.73502 0.0
C1459 C 0.89106 0.19425 0.67166 0.0
C1460 C 0.83859 0.18256 0.61103 0.0
C1461 C 0.84646 0.17045 0.59721 0.0
C1462 C 0.84562 0.17818 0.57957 0.0
C1463 C 0.8369 0.19807 0.57589 0.0
C1464 C 0.82925 0.20187 0.607 0.0
C1465 C 0.82861 0.2097 0.58953 0.0
C1466 C 0.83283 0.11982 0.67527 0.0
C1467 C 0.84374 0.17726 0.62938 0.0
H1468 H 0.84924 0.19774 0.76814 0.0
H1469 H 0.80605 0.12326 0.80106 0.0
H1470 H 0.81872 0.11395 0.74677 0.0
H1471 H 0.80225 0.09335 0.77593 0.0
H1472 H 0.8539 0.15562 0.60014 0.0
H1473 H 0.83655 0.20458 0.56242 0.0
H1474 H 0.82284 0.21121 0.61729 0.0
H1475 H 0.8219 0.22504 0.58657 0.0
C1476 C 0.38181 0.94658 0.04175 0.0
C1477 C 0.37653 0.91861 0.04454 0.0
C1478 C 0.42656 0.93355 0.0357 0.0
C1479 C 0.43215 0.96162 0.03204 0.0
N1480 N 0.41389 0.9944 0.03093 0.0
N1481 N 0.39147 0.88393 0.04031 0.0
C1482 C 0.40922 0.96785 0.03484 0.0
C1483 C 0.39806 0.91165 0.04009 0.0
N1484 N 0.36003 0.95235 0.04515 0.0
N1485 N 0.44882 0.92815 0.03715 0.0
H1486 H 0.37179 0.86741 0.04488 0.0
H1487 H 0.40472 0.87706 0.03467 0.0
H1488 H 0.47023 0.94389 0.03658 0.0
H1489 H 0.44637 0.90892 0.04151 0.0
H1490 H 0.36118 0.97176 0.04314 0.0
H1491 H 0.33987 0.93724 0.05005 0.0
H1492 H 0.39986 1.00186 0.0339 0.0
H1493 H 0.43195 0.00947 0.02405 0.0
C1494 C 0.10384 0.494 0.05029 0.0
C1495 C 0.1029 0.46796 0.04673 0.0
C1496 C 0.05479 0.44991 0.03282 0.0
C1497 C 0.05666 0.47689 0.03466 0.0
N1498 N 0.0824 0.52388 0.04733 0.0
N1499 N 0.07977 0.42281 0.03201 0.0
C1500 C 0.08126 0.49884 0.04381 0.0
C1501 C 0.07902 0.44645 0.03726 0.0
N1502 N 0.12573 0.51362 0.06072 0.0
N1503 N 0.0293 0.42697 0.02747 0.0
H1504 H 0.09668 0.41917 0.03532 0.0
H1505 H 0.06491 0.40805 0.02315 0.0
H1506 H 0.01128 0.42829 0.02338 0.0
H1507 H 0.02539 0.40623 0.0281 0.0
H1508 H 0.1266 0.5318 0.06572 0.0
H1509 H 0.14269 0.51099 0.06542 0.0
H1510 H 0.10099 0.54226 0.0513 0.0
H1511 H 0.0644 0.5263 0.04646 0.0
C1512 C 0.53212 0.63484 0.03041 0.0
C1513 C 0.55546 0.64837 0.04256 0.0
C1514 C 0.55619 0.60432 0.0461 0.0
C1515 C 0.53443 0.59058 0.03283 0.0
N1516 N 0.4936 0.59023 0.01905 0.0
N1517 N 0.59566 0.64834 0.05705 0.0
C1518 C 0.52055 0.60538 0.02632 0.0
C1519 C 0.56986 0.63397 0.04827 0.0
N1520 N 0.52104 0.6501 0.02273 0.0
N1521 N 0.55938 0.58909 0.05928 0.0
H1522 H 0.60597 0.67023 0.05908 0.0
H1523 H 0.6079 0.63891 0.06053 0.0
H1524 H 0.5417 0.5701 0.06322 0.0
H1525 H 0.57501 0.59812 0.0692 0.0
H1526 H 0.50651 0.64254 1.01218 0.0
H1527 H 0.52853 0.67131 0.02579 0.0
H1528 H 0.48057 0.59892 0.01599 0.0
H1529 H 0.48264 0.56816 0.01848 0.0
C1530 C 0.9389 0.3852 0.97977 0.0
C1531 C 0.9124 0.36514 0.98761 0.0
C1532 C 0.92037 0.40165 1.00969 0.0
C1533 C 0.9452 0.42267 1.00039 0.0
N1534 N 0.96582 0.43364 0.97096 0.0
N1535 N 0.89341 0.35206 0.01703 0.0
C1536 C 0.95118 0.41427 0.98386 0.0
C1537 C 0.90694 0.3725 1.00456 0.0
N1538 N 0.95401 0.37643 0.96962 0.0
N1539 N 0.90719 0.40919 0.02212 0.0
H1540 H 0.89061 0.33182 0.01532 0.0
H1541 H 0.89069 0.35665 0.03 0.0
H1542 H 0.91275 0.43005 0.02425 0.0
H1543 H 0.8877 0.39456 0.02801 0.0
H1544 H 0.97455 0.39057 0.96469 0.0
H1545 H 0.9473 0.35495 0.9681 0.0
H1546 H 0.96938 0.42768 0.95855 0.0
H1547 H 0.96979 0.4544 0.9716 0.0
C1548 C 0.62002 0.51095 0.9924 0.0
C1549 C 0.64033 0.53996 0.98931 0.0
C1550 C 0.60316 0.55223 0.99779 0.0
C1551 C 0.58347 0.52338 1.00225 0.0
N1552 N 0.57533 0.476 1.00602 0.0
N1553 N 0.65297 0.58884 0.99216 0.0
C1554 C 0.59274 0.50309 1.00031 0.0
C1555 C 0.63241 0.56079 0.99299 0.0
N1556 N 0.62615 0.4906 0.98688 0.0
N1557 N 0.59362 0.57134 0.99735 0.0
H1558 H 0.67431 0.59581 0.98838 0.0
H1559 H 0.64947 0.605 0.99658 0.0
H1560 H 0.57289 0.56634 1.0013 0.0
H1561 H 0.6057 0.59167 0.99214 0.0
H1562 H 0.61099 0.46903 0.98671 0.0
H1563 H 0.64563 0.49531 0.98086 0.0
H1564 H 0.58202 0.46105 1.00707 0.0
H1565 H 0.55506 0.46928 1.01138 0.0
C1566 C 0.49157 0.11567 1.00248 0.0
C1567 C 0.46643 0.10511 0.99151 0.0
C1568 C 0.469 0.06226 0.98614 0.0
C1569 C 0.49055 0.06979 0.99952 0.0
N1570 N 0.5294 0.10838 0.01541 0.0
N1571 N 0.42757 0.06539 0.97631 0.0
C1572 C 0.50363 0.09783 1.00657 0.0
C1573 C 0.45389 0.07738 0.9846 0.0
N1574 N 0.50428 0.14298 1.00851 0.0
N1575 N 0.46585 0.04377 0.97307 0.0
H1576 H 0.41563 0.07576 0.97498 0.0
H1577 H 0.41651 0.04414 0.97247 0.0
H1578 H 0.48211 0.03911 0.97032 0.0
H1579 H 0.45095 0.0384 0.96278 0.0
H1580 H 0.52148 0.15203 0.01737 0.0
H1581 H 0.49741 0.15711 1.00474 0.0
H1582 H 0.54011 0.12794 0.02168 0.0
H1583 H 0.54172 0.09836 0.01516 0.0
C1584 C 0.60804 0.08827 0.97252 0.0
C1585 C 0.63398 0.09842 0.98272 0.0
C1586 C 0.60392 0.0789 1.00873 0.0
C1587 C 0.57926 0.06158 0.99864 0.0
N1588 N 0.55517 0.06093 0.97191 0.0
N1589 N 0.65529 0.09896 1.0111 0.0
C1590 C 0.58053 0.06917 0.98055 0.0
C1591 C 0.63144 0.09127 1.00084 0.0
N1592 N 0.60965 0.09777 0.95564 0.0
N1593 N 0.60081 0.09292 0.02244 0.0
H1594 H 0.67614 0.10787 1.00588 0.0
H1595 H 0.6534 0.0944 0.02458 0.0
H1596 H 0.58066 0.09107 0.0248 0.0
H1597 H 0.61865 0.10941 0.02889 0.0
H1598 H 0.59194 0.09163 0.94732 0.0
H1599 H 0.62912 0.11246 0.9498 0.0
H1600 H 0.5532 0.06413 0.95858 0.0
H1601 H 0.53585 0.05232 0.97888 0.0
C1602 C 0.90516 0.51531 0.99793 0.0
C1603 C 0.9154 0.53979 0.98723 0.0
C1604 C 0.9655 0.5495 0.99225 0.0
C1605 C 0.95488 0.52257 1.00052 0.0
N1606 N 0.91334 0.47817 1.00869 0.0
N1607 N 0.95553 0.57969 0.97322 0.0
C1608 C 0.92435 0.5052 1.0028 0.0
C1609 C 0.94569 0.55684 0.98421 0.0
N1610 N 0.87691 0.50133 1.00325 0.0
N1611 N 0.99458 0.56832 0.99229 0.0
H1612 H 0.94199 0.58658 0.96791 0.0
H1613 H 0.97669 0.59076 0.96852 0.0
H1614 H 1.00943 0.56412 0.99859 0.0
H1615 H 1.00366 0.58913 0.98783 0.0
H1616 H 0.86901 0.48534 1.01273 0.0
H1617 H 0.86198 0.50743 0.99941 0.0
H1618 H 0.89131 0.46323 1.00891 0.0
H1619 H 0.92676 0.4703 1.01213 0.0
C1620 C 0.45332 0.37034 1.00524 0.0
C1621 C 0.46633 0.36638 0.99002 0.0
C1622 C 0.49877 0.41792 0.98788 0.0
C1623 C 0.48656 0.4222 1.00348 0.0
N1624 N 0.45474 0.40173 0.0284 0.0
N1625 N 0.50533 0.38553 0.96907 0.0
C1626 C 0.46475 0.39812 1.01265 0.0
C1627 C 0.49021 0.38995 0.98204 0.0
N1628 N 0.42914 0.34769 1.01213 0.0
N1629 N 0.51829 0.44063 0.9783 0.0
H1630 H 0.49974 0.36539 0.96442 0.0
H1631 H 0.52493 0.40142 0.96404 0.0
H1632 H 0.5274 0.4612 0.98286 0.0
H1633 H 0.5244 0.43917 0.96548 0.0
H1634 H 0.41633 0.3494 0.02183 0.0
H1635 H 0.42072 0.3271 1.00731 0.0
H1636 H 0.44155 0.38516 0.03681 0.0
H1637 H 0.46109 0.4216 0.03364 0.0
C1638 C 0.08194 0.63537 0.04866 0.0
C1639 C 0.11181 0.64632 0.04582 0.0
C1640 C 0.10074 0.60129 0.03139 0.0
C1641 C 0.07053 0.58959 0.03506 0.0
N1642 N 0.0366 0.59397 0.05467 0.0
N1643 N 0.14988 0.64199 0.03203 0.0
C1644 C 0.0621 0.60617 0.04562 0.0
C1645 C 0.12125 0.62995 0.03638 0.0
N1646 N 0.07236 0.65303 0.05446 0.0
N1647 N 0.11033 0.5839 0.02521 0.0
H1648 H 0.16532 0.66239 0.03601 0.0
H1649 H 0.15807 0.63291 0.02339 0.0
H1650 H 0.09653 0.56244 0.02289 0.0
H1651 H 0.13205 0.58967 0.02408 0.0
H1652 H 0.05046 0.64709 0.05483 0.0
H1653 H 0.08633 0.67454 0.05695 0.0
H1654 H 0.03095 0.60502 0.06352 0.0
H1655 H 0.02333 0.57241 0.05616 0.0
C1656 C 0.40748 0.49734 0.05058 0.0
C1657 C 0.3812 0.47263 0.04589 0.0
C1658 C 0.40912 0.45552 0.0292 0.0
C1659 C 0.43556 0.48121 0.03257 0.0
N1660 N 0.45915 0.52693 0.04702 0.0
N1661 N 0.35654 0.43113 0.02768 0.0
C1662 C 0.43437 0.5024 0.04315 0.0
C1663 C 0.38194 0.45282 0.03412 0.0
N1664 N 0.40699 0.51516 0.06311 0.0
N1665 N 0.4099 0.4327 0.02239 0.0
H1666 H 0.33634 0.42828 0.03123 0.0
H1667 H 0.3557 0.41773 0.01761 0.0
H1668 H 0.429 0.43356 0.01833 0.0
H1669 H 0.39182 0.41244 0.02176 0.0
H1670 H 0.42543 0.53115 0.06927 0.0
H1671 H 0.38779 0.51296 0.06821 0.0
H1672 H 0.45964 0.54502 0.05195 0.0
H1673 H 0.47935 0.52926 0.0451 0.0
C1674 C 0.52261 0.89479 0.03732 0.0
C1675 C 0.5495 0.90453 0.04606 0.0
C1676 C 0.55564 0.95208 0.04732 0.0
C1677 C 0.53125 0.9441 0.03573 0.0
N1678 N 0.49099 0.90526 0.02018 0.0
N1679 N 0.59494 0.94395 0.05542 0.0
C1680 C 0.51485 0.91476 0.03069 0.0
C1681 C 0.56714 0.93367 0.04958 0.0
N1682 N 0.50364 0.86626 0.03614 0.0
N1683 N 0.56645 0.97555 0.05778 0.0
H1684 H 0.60399 0.93102 0.05747 0.0
H1685 H 0.6097 0.96562 0.05642 0.0
H1686 H 0.5558 0.98665 0.06022 0.0
H1687 H 0.58314 0.98084 0.06686 0.0
H1688 H 0.48218 0.85761 0.03202 0.0
H1689 H 0.50842 0.851 0.04079 0.0
H1690 H 0.48135 0.88567 1.01384 0.0
H1691 H 0.48081 0.91684 0.01763 0.0
C1692 C 0.0529 0.24925 0.36297 0.0
C1693 C 0.04392 0.24702 0.38083 0.0
C1694 C 0.09428 0.28233 0.38843 0.0
C1695 C 0.1024 0.28598 0.37027 0.0
N1696 N 0.09364 0.25401 0.34682 0.0
N1697 N 0.05926 0.25532 0.41129 0.0
C1698 C 0.08294 0.26464 0.35884 0.0
C1699 C 0.06547 0.26214 0.39386 0.0
N1700 N 0.03302 0.23611 0.34987 0.0
N1701 N 0.11548 0.29516 0.40063 0.0
H1702 H 0.03925 0.23925 0.41571 0.0
H1703 H 0.07434 0.26398 0.42148 0.0
H1704 H 0.13588 0.29869 0.39737 0.0
H1705 H 0.11232 0.29884 0.41368 0.0
H1706 H 0.03909 0.23735 0.33671 0.0
H1707 H 0.01072 0.22603 0.35208 0.0
H1708 H 0.08028 0.23562 0.33965 0.0
H1709 H 0.1159 0.26159 0.34621 0.0
C1710 C 0.75435 0.80754 0.39636 0.0
C1711 C 0.77276 0.80488 0.38388 0.0
C1712 C 0.75428 0.82474 0.36149 0.0
C1713 C 0.73077 0.81981 0.37221 0.0
N1714 N 0.72368 0.82756 0.40216 0.0
N1715 N 0.78795 0.8093 0.35346 0.0
C1716 C 0.7344 0.81631 0.39049 0.0
C1717 C 0.77181 0.81274 0.36609 0.0
N1718 N 0.75686 0.80322 0.41388 0.0
N1719 N 0.76488 0.84688 0.35019 0.0
H1720 H 0.79976 0.79905 0.3559 0.0
H1721 H 0.78751 0.81479 0.34034 0.0
H1722 H 0.7556 0.85977 0.34946 0.0
H1723 H 0.78473 0.85428 0.34382 0.0
H1724 H 0.7419 0.80146 0.42332 0.0
H1725 H 0.77347 0.80047 0.41903 0.0
H1726 H 0.72576 0.82743 0.4158 0.0
H1727 H 0.71805 0.84212 0.39752 0.0
C1728 C 0.19807 0.96758 0.36559 0.0
C1729 C 0.22172 0.98146 0.37737 0.0
C1730 C 0.22701 0.93942 0.37853 0.0
C1731 C 0.20403 0.92472 0.36569 0.0
N1732 N 0.16385 0.9247 0.35057 0.0
N1733 N 0.26519 0.98487 0.38899 0.0
C1734 C 0.18905 0.9392 0.35979 0.0
C1735 C 0.23839 0.96881 0.38155 0.0
N1736 N 0.18439 0.98173 0.35983 0.0
N1737 N 0.23622 0.92575 0.38976 0.0
H1738 H 0.27401 0.00648 0.39154 0.0
H1739 H 0.27976 0.97748 0.39061 0.0
H1740 H 0.22624 0.9042 0.39196 0.0
H1741 H 0.25126 0.93618 0.39981 0.0
H1742 H 0.16958 0.97505 0.34946 0.0
H1743 H 0.18958 1.00171 0.36454 0.0
H1744 H 0.14963 0.9321 0.34787 0.0
H1745 H 0.15508 0.90364 0.34731 0.0
C1746 C 0.59972 0.70568 0.32948 0.0
C1747 C 0.57326 0.70105 0.32178 0.0
C1748 C 0.58413 0.74844 0.33203 0.0
C1749 C 0.61201 0.75426 0.3378 0.0
N1750 N 0.64028 0.73443 0.34899 0.0
N1751 N 0.54125 0.71898 0.31441 0.0
C1752 C 0.61823 0.73177 0.33841 0.0
C1753 C 0.56556 0.72256 0.32293 0.0
N1754 N 0.60749 0.68534 0.3279 0.0
N1755 N 0.57465 0.76687 0.33612 0.0
H1756 H 0.52689 0.70036 0.3078 0.0
H1757 H 0.53642 0.73516 0.31271 0.0
H1758 H 0.58701 0.78529 0.3434 0.0
H1759 H 0.55351 0.76259 0.33399 0.0
H1760 H 0.62804 0.68874 0.33105 0.0
H1761 H 0.59381 0.66538 0.32248 0.0
H1762 H 0.6448 0.71818 0.35134 0.0
H1763 H 0.65192 0.752 0.35715 0.0
C1764 C 0.29351 0.85061 0.3321 0.0
C1765 C 0.30808 0.87555 0.32168 0.0
C1766 C 0.26693 0.88399 0.32591 0.0
C1767 C 0.25108 0.8575 0.33485 0.0
N1768 N 0.24891 0.81481 0.34543 0.0
N1769 N 0.30888 0.91594 0.30819 0.0
C1770 C 0.26449 0.84082 0.33779 0.0
C1771 C 0.29486 0.89231 0.31854 0.0
N1772 N 0.30746 0.83608 0.33654 0.0
N1773 N 0.25526 0.90131 0.32458 0.0
H1774 H 0.32968 0.92316 0.30327 0.0
H1775 H 0.29964 0.92769 0.30366 0.0
H1776 H 0.23519 0.89604 0.32986 0.0
H1777 H 0.26612 0.92181 0.31957 0.0
H1778 H 0.30004 0.82029 0.34611 0.0
H1779 H 0.32756 0.84086 0.33144 0.0
H1780 H 0.25551 0.79978 0.34608 0.0
H1781 H 0.22824 0.8076 0.35042 0.0
C1782 C 0.11389 0.41465 0.3363 0.0
C1783 C 0.1295 0.43488 0.32298 0.0
C1784 C 0.16348 0.41672 0.32098 0.0
C1785 C 0.14963 0.39841 0.33556 0.0
N1786 N 0.11289 0.38169 0.35818 0.0
N1787 N 0.17187 0.45844 0.30459 0.0
C1788 C 0.12531 0.39803 0.3436 0.0
C1789 C 0.15497 0.43672 0.3158 0.0
N1790 N 0.0875 0.41056 0.34149 0.0
N1791 N 0.18463 0.41494 0.31186 0.0
H1792 H 0.16642 0.47343 0.30035 0.0
H1793 H 0.19249 0.46309 0.30064 0.0
H1794 H 0.19271 0.40175 0.31551 0.0
H1795 H 0.1928 0.42506 0.29985 0.0
H1796 H 0.07341 0.39409 0.34968 0.0
H1797 H 0.07841 0.42216 0.33631 0.0
H1798 H 0.09768 0.38325 0.36597 0.0
H1799 H 0.119 0.36768 0.36323 0.0
C1800 C 0.28062 0.43673 0.32411 0.0
C1801 C 0.30456 0.43246 0.32167 0.0
C1802 C 0.27565 0.38411 0.33354 0.0
C1803 C 0.2514 0.38822 0.3364 0.0
N1804 N 0.23524 0.42255 0.33861 0.0
N1805 N 0.32687 0.40412 0.32699 0.0
C1806 C 0.25517 0.41571 0.33292 0.0
C1807 C 0.30258 0.4067 0.32721 0.0
N1808 N 0.28189 0.46076 0.31758 0.0
N1809 N 0.27301 0.35833 0.33702 0.0
H1810 H 0.34665 0.41972 0.32191 0.0
H1811 H 0.32813 0.3875 0.33292 0.0
H1812 H 0.25627 0.3432 0.34465 0.0
H1813 H 0.28727 0.35196 0.33238 0.0
H1814 H 0.264 0.46367 0.31681 0.0
H1815 H 0.30028 0.47687 0.31146 0.0
H1816 H 0.23839 0.44303 0.33845 0.0
H1817 H 0.21703 0.40853 0.34547 0.0
C1818 C 0.60382 0.89254 0.33272 0.0
C1819 C 0.58173 0.8714 0.32206 0.0
C1820 C 0.60551 0.84246 0.32486 0.0
C1821 C 0.6275 0.86327 0.33611 0.0
N1822 N 0.65216 0.91259 0.34473 0.0
N1823 N 0.55865 0.8241 0.31038 0.0
C1824 C 0.62774 0.88946 0.33847 0.0
C1825 C 0.58173 0.84573 0.31894 0.0
N1826 N 0.6018 0.91563 0.33766 0.0
N1827 N 0.60918 0.82148 0.31774 0.0
H1828 H 0.54123 0.82591 0.30559 0.0
H1829 H 0.55546 0.80363 0.30947 0.0
H1830 H 0.62627 0.81838 0.32104 0.0
H1831 H 0.59671 0.80858 0.30736 0.0
H1832 H 0.61509 0.92999 0.34725 0.0
H1833 H 0.58513 0.91903 0.33337 0.0
H1834 H 0.65559 0.93316 0.34417 0.0
H1835 H 0.66983 0.91151 0.34963 0.0
C1836 C 0.11174 0.70443 0.32848 0.0
C1837 C 0.13296 0.69694 0.32424 0.0
C1838 C 0.1711 0.7454 0.33117 0.0
C1839 C 0.15027 0.75247 0.33726 0.0
N1840 N 0.1001 0.73653 0.34343 0.0
N1841 N 0.18283 0.70844 0.32552 0.0
C1842 C 0.12039 0.73121 0.33649 0.0
C1843 C 0.16261 0.71672 0.32719 0.0
N1844 N 0.08335 0.68646 0.32416 0.0
N1845 N 0.19823 0.7664 0.32694 0.0
H1846 H 0.17731 0.68772 0.32224 0.0
H1847 H 0.2045 0.72146 0.32908 0.0
H1848 H 0.20317 0.78742 0.32628 0.0
H1849 H 0.21389 0.76267 0.32138 0.0
H1850 H 0.06746 0.69229 0.32458 0.0
H1851 H 0.07598 0.66618 0.31906 0.0
H1852 H 0.07847 0.72117 0.34528 0.0
H1853 H 0.10569 0.75637 0.34816 0.0
C1854 C 0.76039 0.97251 0.36685 0.0
C1855 C 0.778 0.97567 0.38174 0.0
C1856 C 0.75943 0.924 0.38183 0.0
C1857 C 0.7413 0.92066 0.36714 0.0
N1858 N 0.72753 0.94215 0.34406 0.0
N1859 N 0.79702 0.95552 0.40246 0.0
C1860 C 0.74286 0.94511 0.35912 0.0
C1861 C 0.77821 0.95164 0.38898 0.0
N1862 N 0.75933 0.99561 0.36064 0.0
N1863 N 0.75881 0.90053 0.38878 0.0
H1864 H 0.81114 0.97538 0.40784 0.0
H1865 H 0.79998 0.93959 0.40788 0.0
H1866 H 0.74872 0.88107 0.38228 0.0
H1867 H 0.7681 0.90003 0.40076 0.0
H1868 H 0.74456 0.99463 0.35124 0.0
H1869 H 0.77232 0.01601 0.36564 0.0
H1870 H 0.73021 0.95891 0.33614 0.0
H1871 H 0.71299 0.9225 0.33885 0.0
C1872 C 0.06894 0.83687 0.37814 0.0
C1873 C 0.04774 0.80767 0.37872 0.0
C1874 C 0.0849 0.79575 0.37018 0.0
C1875 C 0.10565 0.82478 0.36738 0.0
N1876 N 0.11794 0.87347 0.37167 0.0
N1877 N 0.03426 0.75959 0.37169 0.0
C1878 C 0.09755 0.84543 0.37195 0.0
C1879 C 0.05531 0.78733 0.37333 0.0
N1880 N 0.06242 0.8563 0.38495 0.0
N1881 N 0.09389 0.77655 0.3726 0.0
H1882 H 0.01243 0.75269 0.37405 0.0
H1883 H 0.03831 0.74426 0.36633 0.0
H1884 H 0.11559 0.78205 0.37212 0.0
H1885 H 0.08011 0.75584 0.37684 0.0
H1886 H 0.07754 0.8775 0.38723 0.0
H1887 H 0.04177 0.85099 0.38929 0.0
H1888 H 0.11316 0.88982 0.37166 0.0
H1889 H 0.13997 0.88043 0.37162 0.0
C1890 C 0.19608 0.24728 0.39135 0.0
C1891 C 0.21408 0.24004 0.38152 0.0
C1892 C 0.21546 0.27117 0.35742 0.0
C1893 C 0.1951 0.27619 0.36655 0.0
N1894 N 0.16104 0.2633 0.3903 0.0
N1895 N 0.23935 0.24325 0.35456 0.0
C1896 C 0.18425 0.26283 0.38308 0.0
C1897 C 0.22325 0.25144 0.36434 0.0
N1898 N 0.19006 0.23915 0.40858 0.0
N1899 N 0.22844 0.2862 0.34255 0.0
H1900 H 0.24744 0.23074 0.35964 0.0
H1901 H 0.24343 0.24759 0.34117 0.0
H1902 H 0.22313 0.30047 0.33704 0.0
H1903 H 0.2459 0.28622 0.33641 0.0
H1904 H 0.17998 0.24666 0.417 0.0
H1905 H 0.19733 0.22682 0.41491 0.0
H1906 H 0.15055 0.25229 0.40168 0.0
H1907 H 0.15001 0.27176 0.38355 0.0
C1908 C 0.7273 0.57092 0.7018 0.0
C1909 C 0.71147 0.58147 0.711 0.0
C1910 C 0.75167 0.63021 0.70613 0.0
C1911 C 0.76894 0.61943 0.69884 0.0
N1912 N 0.77431 0.57871 0.69308 0.0
N1913 N 0.70931 0.62111 0.72327 0.0
C1914 C 0.75695 0.58956 0.69749 0.0
C1915 C 0.72383 0.61116 0.71346 0.0
N1916 N 0.71411 0.54291 0.69723 0.0
N1917 N 0.76199 0.65877 0.70612 0.0
H1918 H 0.68854 0.60794 0.72822 0.0
H1919 H 0.71843 0.64203 0.72752 0.0
H1920 H 0.78213 0.67324 0.70097 0.0
H1921 H 0.74972 0.66802 0.70967 0.0
H1922 H 0.72334 0.53481 0.68858 0.0
H1923 H 0.69301 0.52815 0.70092 0.0
H1924 H 0.76786 0.55726 0.69399 0.0
H1925 H 0.79591 0.5914 0.68958 0.0
C1926 C 0.42047 0.11946 0.70119 0.0
C1927 C 0.43807 0.13578 0.71553 0.0
C1928 C 0.41006 0.16072 0.71682 0.0
C1929 C 0.3926 0.14471 0.70207 0.0
N1930 N 0.37363 0.0999 0.68704 0.0
N1931 N 0.45024 0.1724 0.73706 0.0
C1932 C 0.39575 0.12161 0.6961 0.0
C1933 C 0.43277 0.15632 0.72347 0.0
N1934 N 0.42742 0.10194 0.69223 0.0
N1935 N 0.40328 0.17844 0.72554 0.0
H1936 H 0.46601 0.16886 0.74279 0.0
H1937 H 0.45036 0.19016 0.7422 0.0
H1938 H 0.38909 0.18425 0.72033 0.0
H1939 H 0.41082 0.18678 0.73804 0.0
H1940 H 0.41713 0.09177 0.68054 0.0
H1941 H 0.44487 0.09924 0.69574 0.0
H1942 H 0.37336 0.08107 0.68406 0.0
H1943 H 0.35429 0.09949 0.68401 0.0
C1944 C 0.86463 0.30226 0.6993 0.0
C1945 C 0.88751 0.31455 0.71186 0.0
C1946 C 0.88634 0.26946 0.71479 0.0
C1947 C 0.86572 0.25707 0.70075 0.0
N1948 N 0.8279 0.25967 0.6847 0.0
N1949 N 0.92606 0.3122 0.72693 0.0
C1950 C 0.85324 0.2732 0.69397 0.0
C1951 C 0.90064 0.29901 0.71767 0.0
N1952 N 0.85369 0.31834 0.69259 0.0
N1953 N 0.88838 0.25304 0.72765 0.0
H1954 H 0.937 0.33398 0.7294 0.0
H1955 H 0.93749 0.30192 0.73037 0.0
H1956 H 0.87093 0.23317 0.73044 0.0
H1957 H 0.90295 0.26125 0.73817 0.0
H1958 H 0.83944 0.31233 0.68195 0.0
H1959 H 0.8606 0.33894 0.69687 0.0
H1960 H 0.81612 0.26912 0.68046 0.0
H1961 H 0.81639 0.23783 0.68317 0.0
C1962 C 0.24137 0.03884 0.67218 0.0
C1963 C 0.24603 0.03151 0.65497 0.0
C1964 C 0.28431 0.08088 0.65099 0.0
C1965 C 0.27981 0.08894 0.66799 0.0
N1966 N 0.24238 0.07568 0.68998 0.0
N1967 N 0.2856 0.04359 0.63496 0.0
C1968 C 0.2552 0.06798 0.67742 0.0
C1969 C 0.27176 0.05192 0.64653 0.0
N1970 N 0.22828 0.01843 0.68471 0.0
N1971 N 0.29714 0.10055 0.638 0.0
H1972 H 0.27862 0.02219 0.63275 0.0
H1973 H 0.30554 0.05797 0.6294 0.0
H1974 H 0.30161 0.12136 0.6395 0.0
H1975 H 0.29917 0.09498 0.62513 0.0
H1976 H 0.22562 0.02305 0.69768 0.0
H1977 H 0.22667 0.99867 0.68322 0.0
H1978 H 0.22296 0.06114 0.69599 0.0
H1979 H 0.24795 0.09661 0.69187 0.0
C1980 C 0.96827 0.21545 0.66614 0.0
C1981 C 0.97072 0.2106 0.64806 0.0
C1982 C 0.91739 0.18513 0.64627 0.0
C1983 C 0.91581 0.1906 0.66448 0.0
N1984 N 0.93991 0.18316 0.68815 0.0
N1985 N 0.94659 0.18447 0.62172 0.0
C1986 C 0.94117 0.1994 0.67435 0.0
C1987 C 0.9449 0.1937 0.6382 0.0
N1988 N 0.99209 0.23245 0.67608 0.0
N1989 N 0.89237 0.16955 0.63721 0.0
H1990 H 0.96622 0.19013 0.61558 0.0
H1991 H 0.92873 0.16995 0.61442 0.0
H1992 H 0.87293 0.15851 0.64399 0.0
H1993 H 0.89098 0.16687 0.6236 0.0
H1994 H 0.99033 0.23535 0.68954 0.0
H1995 H 0.01265 0.24467 0.67057 0.0
H1996 H 0.95864 0.1858 0.69442 0.0
H1997 H 0.9207 0.16429 0.69065 0.0
C1998 C 0.82418 0.78149 0.66985 0.0
C1999 C 0.79876 0.77181 0.65928 0.0
C2000 C 0.79676 0.72637 0.6552 0.0
C2001 C 0.81972 0.73389 0.6678 0.0
N2002 N 0.8603 0.77183 0.683 0.0
N2003 N 0.75673 0.73254 0.64615 0.0
C2004 C 0.83458 0.76236 0.67426 0.0
C2005 C 0.78376 0.74346 0.65344 0.0
N2006 N 0.83852 0.80911 0.67538 0.0
N2007 N 0.78899 0.70492 0.64331 0.0
H2008 H 0.74634 0.74437 0.64457 0.0
H2009 H 0.74351 0.71097 0.6435 0.0
H2010 H 0.80068 0.69484 0.64096 0.0
H2011 H 0.77385 0.70052 0.63329 0.0
H2012 H 0.85611 0.81777 0.68397 0.0
H2013 H 0.83252 0.82385 0.67152 0.0
H2014 H 0.87267 0.79192 0.68841 0.0
H2015 H 0.87063 0.75989 0.68389 0.0
C2016 C 0.9434 0.75238 0.6394 0.0
C2017 C 0.96876 0.76502 0.65021 0.0
C2018 C 0.93743 0.74603 0.67594 0.0
C2019 C 0.91369 0.7274 0.66556 0.0
N2020 N 0.89085 0.72818 0.63862 0.0
N2021 N 0.98903 0.76995 0.6795 0.0
C2022 C 0.91565 0.73431 0.64733 0.0
C2023 C 0.96551 0.75993 0.66863 0.0
N2024 N 0.94561 0.75805 0.62175 0.0
N2025 N 0.93232 0.75861 0.68969 0.0
H2026 H 0.01023 0.77974 0.67474 0.0
H2027 H 0.98674 0.7663 0.69307 0.0
H2028 H 0.91134 0.75482 0.6918 0.0
H2029 H 0.94903 0.77579 0.6964 0.0
H2030 H 0.92866 0.74709 0.61288 0.0
H2031 H 0.96488 0.77281 0.61576 0.0
H2032 H 0.88989 0.73426 0.62573 0.0
H2033 H 0.87153 0.72047 0.64549 0.0
C2034 C 0.23813 0.17653 0.66183 0.0
C2035 C 0.24899 0.20423 0.655 0.0
C2036 C 0.29867 0.21467 0.66078 0.0
C2037 C 0.2884 0.18669 0.66741 0.0
N2038 N 0.24783 0.13961 0.67119 0.0
N2039 N 0.28867 0.25177 0.65178 0.0
C2040 C 0.25787 0.16741 0.66736 0.0
C2041 C 0.27897 0.22391 0.65568 0.0
N2042 N 0.2088 0.15887 0.663 0.0
N2043 N 0.32742 0.23177 0.65782 0.0
H2044 H 0.27491 0.25921 0.64771 0.0
H2045 H 0.30984 0.26795 0.65409 0.0
H2046 H 0.34217 0.22582 0.6617 0.0
H2047 H 0.33629 0.25046 0.65053 0.0
H2048 H 0.19912 0.13982 0.6699 0.0
H2049 H 0.19376 0.16411 0.65806 0.0
H2050 H 0.22641 0.1235 0.66984 0.0
H2051 H 0.26173 0.13224 0.67442 0.0
C2052 C 0.78955 0.03839 0.67 0.0
C2053 C 0.80321 0.0349 0.65493 0.0
C2054 C 0.8396 0.08582 0.65579 0.0
C2055 C 0.82432 0.09002 0.66964 0.0
N2056 N 0.78954 0.06913 0.69307 0.0
N2057 N 0.84001 0.05541 0.63254 0.0
C2058 C 0.80068 0.06591 0.67768 0.0
C2059 C 0.82793 0.05868 0.64759 0.0
N2060 N 0.76491 0.01558 0.67636 0.0
N2061 N 0.86667 0.10721 0.65164 0.0
H2062 H 0.83326 0.03571 0.62673 0.0
H2063 H 0.85551 0.07234 0.6252 0.0
H2064 H 0.87718 0.12551 0.65932 0.0
H2065 H 0.88011 0.10546 0.64241 0.0
H2066 H 0.75155 0.01694 0.68581 0.0
H2067 H 0.75668 0.9951 0.67141 0.0
H2068 H 0.77493 0.05248 0.70095 0.0
H2069 H 0.79657 0.08881 0.69871 0.0
C2070 C 0.42746 0.30828 0.70065 0.0
C2071 C 0.44535 0.31037 0.71514 0.0
C2072 C 0.42951 0.2597 0.71171 0.0
C2073 C 0.40794 0.25628 0.69933 0.0
N2074 N 0.38701 0.27845 0.68173 0.0
N2075 N 0.46132 0.28715 0.73574 0.0
C2076 C 0.40737 0.281 0.69357 0.0
C2077 C 0.44568 0.28577 0.72107 0.0
N2078 N 0.42976 0.33243 0.69354 0.0
N2079 N 0.43627 0.23874 0.71342 0.0
H2080 H 0.47443 0.30601 0.74252 0.0
H2081 H 0.4596 0.2692 0.74184 0.0
H2082 H 0.42765 0.22144 0.70484 0.0
H2083 H 0.4531 0.24046 0.72135 0.0
H2084 H 0.42002 0.33289 0.68171 0.0
H2085 H 0.44323 0.35254 0.69882 0.0
H2086 H 0.38227 0.29439 0.67878 0.0
H2087 H 0.374 0.25958 0.6754 0.0
C2088 C 0.73547 0.16499 0.70742 0.0
C2089 C 0.71371 0.13758 0.71269 0.0
C2090 C 0.74404 0.11854 0.70159 0.0
C2091 C 0.76794 0.14653 0.69883 0.0
N2092 N 0.78681 0.19627 0.70513 0.0
N2093 N 0.69828 0.08814 0.71624 0.0
C2094 C 0.76368 0.16983 0.70297 0.0
C2095 C 0.7183 0.11434 0.71013 0.0
N2096 N 0.72975 0.18681 0.70748 0.0
N2097 N 0.74563 0.09568 0.69571 0.0
H2098 H 0.67835 0.08374 0.72144 0.0
H2099 H 0.70216 0.07121 0.71717 0.0
H2100 H 0.76313 0.09784 0.6885 0.0
H2101 H 0.7283 0.07497 0.69589 0.0
H2102 H 0.74384 0.20661 0.70207 0.0
H2103 H 0.70981 0.18425 0.71138 0.0
H2104 H 0.78512 0.21355 0.70946 0.0
H2105 H 0.80768 0.19973 0.70562 0.0
C2106 C 0.86124 0.57648 0.72306 0.0
C2107 C 0.88301 0.57356 0.71419 0.0
C2108 C 0.88672 0.60811 0.69167 0.0
C2109 C 0.86488 0.61112 0.70055 0.0
N2110 N 0.83108 0.59808 0.72456 0.0
N2111 N 0.9183 0.58752 0.69107 0.0
C2112 C 0.85227 0.59539 0.71628 0.0
C2113 C 0.89609 0.58951 0.69867 0.0
N2114 N 0.84806 0.55995 0.73753 0.0
N2115 N 0.89886 0.62347 0.67671 0.0
H2116 H 0.92597 0.57462 0.69611 0.0
H2117 H 0.93032 0.5994 0.68035 0.0
H2118 H 0.89476 0.63923 0.67228 0.0
H2119 H 0.91253 0.62053 0.66833 0.0
H2120 H 0.83042 0.55892 0.74404 0.0
H2121 H 0.85401 0.54596 0.74292 0.0
H2122 H 0.82393 0.59144 0.73734 0.0
H2123 H 0.82014 0.60691 0.71836 0.0
C2124 C 0.46967 0.97556 0.16523 0.0
C2125 C 0.47972 0.95675 0.17024 0.0
C2126 C 0.50261 0.96336 0.14113 0.0
C2127 C 0.49144 0.98119 0.13606 0.0
N2128 N 0.45695 0.9967 0.14119 0.0
N2129 N 0.49986 0.92758 0.16149 0.0
C2130 C 0.4724 0.98463 0.14745 0.0
C2131 C 0.49438 0.94901 0.15771 0.0
N2132 N 0.45906 0.98616 0.17764 0.0
N2133 N 0.52199 0.96105 0.1305 0.0
H2134 H 0.49408 0.91665 0.17345 0.0
H2135 H 0.50781 0.91904 0.15226 0.0
H2136 H 0.52793 0.97069 0.11815 0.0
H2137 H 0.53343 0.95102 0.13436 0.0
H2138 H 0.45432 1.0022 0.17496 0.0
H2139 H 0.45782 0.98111 0.191 0.0
H2140 H 0.44077 0.9975 0.14844 0.0
H2141 H 0.4582 1.00312 0.12808 0.0
C2142 C 0.05728 0.50755 0.16059 0.0
C2143 C 0.05295 0.52656 0.17131 0.0
C2144 C 0.02938 0.53555 0.14627 0.0
C2145 C 0.02748 0.51172 0.13742 0.0
N2146 N 0.04145 0.47596 0.13535 0.0
N2147 N 0.05761 0.57256 0.16712 0.0
C2148 C 0.04245 0.4983 0.14418 0.0
C2149 C 0.0452 0.5448 0.16237 0.0
N2150 N 0.07754 0.50045 0.16548 0.0
N2151 N 0.01594 0.54926 0.13944 0.0
H2152 H 0.07617 0.58191 0.17501 0.0
H2153 H 0.05383 0.58718 0.16047 0.0
H2154 H 1.00531 0.54398 0.12726 0.0
H2155 H 0.01408 0.56478 0.1464 0.0
H2156 H 0.08353 0.48855 0.15762 0.0
H2157 H 0.09077 0.50949 0.17653 0.0
H2158 H 0.04878 0.46306 0.14077 0.0
H2159 H 0.03182 0.46941 0.12295 0.0
C2160 C 0.47743 0.49588 0.1665 0.0
C2161 C 0.47972 0.52253 0.17005 0.0
C2162 C 0.50005 0.53872 0.14038 0.0
C2163 C 0.49583 0.51127 0.13662 0.0
N2164 N 0.47107 0.46165 0.14413 0.0
N2165 N 0.48674 0.56698 0.15877 0.0
C2166 C 0.48138 0.48919 0.14906 0.0
C2167 C 0.48901 0.54328 0.15647 0.0
N2168 N 0.47292 0.47736 0.17993 0.0
N2169 N 0.51569 0.56074 0.12913 0.0
H2170 H 0.47876 0.5709 0.17034 0.0
H2171 H 0.49029 0.58137 0.14869 0.0
H2172 H 0.52448 0.5585 0.1174 0.0
H2173 H 0.52189 0.5817 0.1321 0.0
H2174 H 0.47399 0.45891 0.17818 0.0
H2175 H 0.47128 0.48189 0.19309 0.0
H2176 H 0.45819 0.44454 0.15231 0.0
H2177 H 0.47264 0.45592 0.13122 0.0
C2178 C 1.00256 0.50129 0.86779 0.0
C2179 C 0.97215 0.48441 0.86537 0.0
C2180 C 0.96509 0.48341 0.89747 0.0
C2181 C 0.99551 0.50118 0.89972 0.0
N2182 N 0.04328 0.51844 0.88803 0.0
N2183 N 0.92524 0.45321 0.87775 0.0
C2184 C 0.0142 0.50694 0.88515 0.0
C2185 C 0.95368 0.47322 0.88023 0.0
N2186 N 0.02019 0.51345 0.85357 0.0
N2187 N 0.94704 0.47777 0.91152 0.0
H2188 H 0.91645 0.44581 0.86525 0.0
H2189 H 0.91112 0.44226 0.88803 0.0
H2190 H 0.95466 0.48437 0.9243 0.0
H2191 H 0.92456 0.4677 0.91042 0.0
H2192 H 0.04194 0.52899 0.85472 0.0
H2193 H 0.01265 0.50941 0.84059 0.0
H2194 H 0.05795 0.52122 0.87811 0.0
H2195 H 0.05216 0.52246 0.90073 0.0
C2196 C 0.55829 0.50369 0.87554 0.0
C2197 C 0.53428 0.48755 0.86416 0.0
C2198 C 0.50123 0.48005 0.8887 0.0
C2199 C 0.52482 0.5009 0.89862 0.0
N2200 N 0.57615 0.53219 0.90216 0.0
N2201 N 0.48244 0.46094 0.8597 0.0
C2202 C 0.55355 0.51225 0.89236 0.0
C2203 C 0.50557 0.47534 0.87078 0.0
N2204 N 0.58556 0.51066 0.87022 0.0
N2205 N 0.47467 0.46501 0.89645 0.0
H2206 H 0.48464 0.45723 0.84647 0.0
H2207 H 0.46116 0.45443 0.86329 0.0
H2208 H 0.47115 0.46819 0.90957 0.0
H2209 H 0.45709 0.44769 0.89051 0.0
H2210 H 0.60372 0.52031 0.8784 0.0
H2211 H 0.58958 0.50437 0.85806 0.0
H2212 H 0.59724 0.54399 0.89745 0.0
H2213 H 0.57346 0.53788 0.91485 0.0
C2214 C 0.55452 0.06517 0.87856 0.0
C2215 C 0.53236 0.05304 0.86548 0.0
C2216 C 0.49949 0.01874 0.88729 0.0
C2217 C 0.5229 0.02758 0.89924 0.0
N2218 N 0.57284 0.05942 0.90683 0.0
N2219 N 0.48447 0.01612 0.85689 0.0
C2220 C 0.55043 0.05113 0.89514 0.0
C2221 C 0.5049 0.02941 0.86977 0.0
N2222 N 0.57915 0.09031 0.87522 0.0
N2223 N 0.47198 1.00013 0.8928 0.0
H2224 H 0.4877 0.02276 0.84377 0.0
H2225 H 0.46535 0.997 0.85885 0.0
H2226 H 0.46746 0.99224 0.90565 0.0
H2227 H 0.45355 0.99488 0.88528 0.0
H2228 H 0.5949 0.10175 0.88471 0.0
H2229 H 0.58283 0.10092 0.86321 0.0
H2230 H 0.59426 0.07429 0.90394 0.0
H2231 H 0.57016 0.05036 0.91931 0.0
C2232 C 0.14029 0.31338 0.49778 0.0
C2233 C 0.14801 0.29255 0.50188 0.0
C2234 C 0.17125 0.29973 0.47298 0.0
C2235 C 0.16332 0.32051 0.46901 0.0
N2236 N 0.13098 0.33849 0.47465 0.0
N2237 N 0.16322 0.26011 0.49162 0.0
C2238 C 0.14464 0.32437 0.48044 0.0
C2239 C 0.16098 0.28377 0.48885 0.0
N2240 N 0.1306 0.32414 0.51065 0.0
N2241 N 0.18969 0.29622 0.46217 0.0
H2242 H 0.15572 0.24796 0.50308 0.0
H2243 H 0.1699 0.25105 0.48196 0.0
H2244 H 0.19768 0.30741 0.45044 0.0
H2245 H 0.19864 0.28358 0.46539 0.0
H2246 H 0.12771 0.34151 0.50861 0.0
H2247 H 0.12812 0.3176 0.52377 0.0
H2248 H 0.11508 0.33972 0.48194 0.0
H2249 H 0.13329 0.34618 0.46178 0.0
C2250 C 0.71181 0.87697 0.49565 0.0
C2251 C 0.71783 0.85763 0.50476 0.0
C2252 C 0.7035 0.82776 0.47818 0.0
C2253 C 0.68972 0.8425 0.47162 0.0
N2254 N 0.68336 0.88335 0.47298 0.0
N2255 N 0.73943 0.82892 0.49841 0.0
C2256 C 0.69482 0.86791 0.47995 0.0
C2257 C 0.71975 0.8371 0.49413 0.0
N2258 N 0.72673 0.90504 0.49984 0.0
N2259 N 0.70032 0.80436 0.46953 0.0
H2260 H 0.75394 0.83822 0.5089 0.0
H2261 H 0.74372 0.81585 0.49047 0.0
H2262 H 0.68974 0.79773 0.45738 0.0
H2263 H 0.70691 0.79082 0.47486 0.0
H2264 H 0.72458 0.92043 0.49288 0.0
H2265 H 0.74515 0.91327 0.50786 0.0
H2266 H 0.68395 0.90042 0.4796 0.0
H2267 H 0.67198 0.87813 0.46106 0.0
C2268 C 0.16975 0.84608 0.50117 0.0
C2269 C 0.15606 0.86264 0.50255 0.0
C2270 C 0.15126 0.86226 0.47025 0.0
C2271 C 0.16432 0.84499 0.46903 0.0
N2272 N 0.19524 0.82974 0.48246 0.0
N2273 N 0.14121 0.89307 0.48859 0.0
C2274 C 0.17684 0.84025 0.48426 0.0
C2275 C 0.1495 0.87311 0.48708 0.0
N2276 N 0.17442 0.83443 0.51592 0.0
N2277 N 0.13888 0.86678 0.4557 0.0
H2278 H 0.13946 0.90094 0.50079 0.0
H2279 H 0.13868 0.90359 0.47785 0.0
H2280 H 0.13961 0.85921 0.44322 0.0
H2281 H 0.1264 0.87661 0.45615 0.0
H2282 H 0.18069 0.81911 0.51542 0.0
H2283 H 0.17009 0.83858 0.52863 0.0
H2284 H 0.20681 0.82778 0.49296 0.0
H2285 H 0.20119 0.82583 0.47012 0.0
C2286 C 0.61639 0.8093 0.21303 0.0
C2287 C 0.6351 0.81526 0.19839 0.0
C2288 C 0.6761 0.83004 0.21864 0.0
C2289 C 0.65868 0.82967 0.23285 0.0
N2290 N 0.61187 0.82024 0.24343 0.0
N2291 N 0.68369 0.83456 0.18713 0.0
C2292 C 0.62853 0.81911 0.23014 0.0
C2293 C 0.66519 0.82618 0.20115 0.0
N2294 N 0.58706 0.79452 0.21049 0.0
N2295 N 0.70331 0.83447 0.22194 0.0
H2296 H 0.67665 0.83201 0.17406 0.0
H2297 H 0.70617 0.84606 0.18853 0.0
H2298 H 0.71161 0.83679 0.23471 0.0
H2299 H 0.71629 0.83289 0.21227 0.0
H2300 H 0.5722 0.78712 0.2208 0.0
H2301 H 0.57769 0.78737 0.19808 0.0
H2302 H 0.59061 0.81582 0.24161 0.0
H2303 H 0.61982 0.82755 0.25606 0.0
C2304 C 0.1884 0.80378 0.20844 0.0
C2305 C 0.20473 0.82675 0.19676 0.0
C2306 C 0.21226 0.86016 0.22059 0.0
C2307 C 0.19163 0.83765 0.23105 0.0
N2308 N 0.15902 0.7875 0.23494 0.0
N2309 N 0.22805 0.87713 0.19105 0.0
C2310 C 0.17961 0.8092 0.22509 0.0
C2311 C 0.21574 0.85507 0.2027 0.0
N2312 N 0.18182 0.77697 0.20379 0.0
N2313 N 0.22864 0.88647 0.22785 0.0
H2314 H 0.22986 0.87439 0.1776 0.0
H2315 H 0.23368 0.89781 0.19444 0.0
H2316 H 0.22691 0.89063 0.2411 0.0
H2317 H 0.24593 0.90313 0.22129 0.0
H2318 H 0.17255 0.75981 0.21241 0.0
H2319 H 0.18795 0.77236 0.19174 0.0
H2320 H 0.14715 0.76669 0.23042 0.0
H2321 H 0.15251 0.7906 0.24729 0.0
C2322 C 0.22414 0.39865 0.21008 0.0
C2323 C 0.20033 0.38916 0.1982 0.0
C2324 C 0.16736 0.35986 0.22178 0.0
C2325 C 0.19146 0.36576 0.23259 0.0
N2326 N 0.24309 0.39008 0.23723 0.0
N2327 N 0.14947 0.35771 0.19212 0.0
C2328 C 0.21998 0.38524 0.22688 0.0
C2329 C 0.17191 0.36914 0.20394 0.0
N2330 N 0.25056 0.42083 0.20545 0.0
N2331 N 0.14005 0.34522 0.22864 0.0
H2332 H 0.15193 0.36325 0.17881 0.0
H2333 H 0.12901 0.34082 0.19511 0.0
H2334 H 0.13621 0.33832 0.24172 0.0
H2335 H 0.12165 0.34246 0.222 0.0
H2336 H 0.26804 0.43063 0.21413 0.0
H2337 H 0.25434 0.431 0.19327 0.0
H2338 H 0.26452 0.40131 0.233 0.0
H2339 H 0.24067 0.38157 0.24986 0.0
C2340 C 0.84437 0.65275 0.83367 0.0
C2341 C 0.8199 0.62559 0.83682 0.0
C2342 C 0.80447 0.62356 0.80587 0.0
C2343 C 0.8288 0.65093 0.80293 0.0
N2344 N 0.87654 0.68663 0.81203 0.0
N2345 N 0.78129 0.58202 0.82483 0.0
C2346 C 0.85036 0.6637 0.81619 0.0
C2347 C 0.80154 0.60992 0.82248 0.0
N2348 N 0.86073 0.6691 0.84747 0.0
N2349 N 0.78338 0.61129 0.79325 0.0
H2350 H 0.77884 0.57157 0.8368 0.0
H2351 H 0.76892 0.56864 0.81461 0.0
H2352 H 0.78497 0.62033 0.78089 0.0
H2353 H 0.76358 0.59295 0.79535 0.0
H2354 H 0.87659 0.69033 0.8461 0.0
H2355 H 0.85692 0.66228 0.86053 0.0
H2356 H 0.89411 0.6955 0.8207 0.0
H2357 H 0.8815 0.69478 0.79924 0.0
C2358 C 0.37999 0.21238 0.82946 0.0
C2359 C 0.3863 0.19315 0.83846 0.0
C2360 C 0.37396 0.16445 0.81139 0.0
C2361 C 0.36028 0.17914 0.80464 0.0
N2362 N 0.35189 0.21873 0.80657 0.0
N2363 N 0.40904 0.1654 0.83222 0.0
C2364 C 0.36391 0.20371 0.81342 0.0
C2365 C 0.38925 0.17333 0.82769 0.0
N2366 N 0.39395 0.24026 0.83412 0.0
N2367 N 0.37145 0.1414 0.80264 0.0
H2368 H 0.42296 0.17444 0.84299 0.0
H2369 H 0.41405 0.15289 0.82424 0.0
H2370 H 0.36142 0.13501 0.79032 0.0
H2371 H 0.3779 0.12781 0.80808 0.0
H2372 H 0.39146 0.25558 0.82733 0.0
H2373 H 0.41217 0.24866 0.84232 0.0
H2374 H 0.3513 0.23497 0.8135 0.0
H2375 H 0.34115 0.21388 0.79443 0.0
C2376 C 0.83611 0.18006 0.83487 0.0
C2377 C 0.82258 0.19673 0.83638 0.0
C2378 C 0.81791 0.1969 0.80414 0.0
C2379 C 0.83144 0.18003 0.80272 0.0
N2380 N 0.86269 0.16506 0.81615 0.0
N2381 N 0.80836 0.2278 0.82266 0.0
C2382 C 0.84379 0.17499 0.81794 0.0
C2383 C 0.81631 0.20762 0.82102 0.0
N2384 N 0.84019 0.16769 0.84946 0.0
N2385 N 0.80471 0.20096 0.78984 0.0
H2386 H 0.80668 0.2356 0.83491 0.0
H2387 H 0.8062 0.23864 0.81196 0.0
H2388 H 0.80434 0.19277 0.77739 0.0
H2389 H 0.79211 0.21065 0.79059 0.0
H2390 H 0.84638 0.15232 0.84875 0.0
H2391 H 0.8354 0.17126 0.8622 0.0
H2392 H 0.87396 0.16286 0.82673 0.0
H2393 H 0.86937 0.16197 0.80383 0.0
C2394 C 0.28668 0.13954 0.54674 0.0
C2395 C 0.30513 0.15118 0.5319 0.0
C2396 C 0.34706 0.17466 0.55174 0.0
C2397 C 0.32819 0.16818 0.5663 0.0
N2398 N 0.27977 0.14347 0.57808 0.0
N2399 N 0.35301 0.18131 0.52017 0.0
C2400 C 0.29791 0.14975 0.56401 0.0
C2401 C 0.33546 0.16877 0.53437 0.0
N2402 N 0.25843 0.11908 0.54422 0.0
N2403 N 0.37622 0.18702 0.55465 0.0
H2404 H 0.34552 0.17707 0.50718 0.0
H2405 H 0.37457 0.1973 0.52133 0.0
H2406 H 0.38507 0.19124 0.56736 0.0
H2407 H 0.39109 0.19038 0.54475 0.0
H2408 H 0.24438 0.10784 0.55446 0.0
H2409 H 0.24974 0.11165 0.5317 0.0
H2410 H 0.25727 0.13288 0.577 0.0
H2411 H 0.28733 0.15003 0.59089 0.0
C2412 C 0.89121 0.17144 0.54328 0.0
C2413 C 0.86878 0.15138 0.53212 0.0
C2414 C 0.83398 0.14136 0.55598 0.0
C2415 C 0.85469 0.16637 0.56478 0.0
N2416 N 0.90432 0.20389 0.56796 0.0
N2417 N 0.8283 0.1043 0.5362 0.0
C2418 C 0.88386 0.18077 0.55894 0.0
C2419 C 0.84233 0.1323 0.54058 0.0
N2420 N 0.91933 0.17915 0.53981 0.0
N2421 N 0.80633 0.12627 0.56222 0.0
H2422 H 0.83849 0.09585 0.52861 0.0
H2423 H 0.80986 0.08904 0.5427 0.0
H2424 H 0.79981 0.13145 0.57393 0.0
H2425 H 0.78968 0.10958 0.55521 0.0
H2426 H 0.93656 0.19181 0.54818 0.0
H2427 H 0.92472 0.16983 0.52956 0.0
H2428 H 0.92508 0.21723 0.56311 0.0
H2429 H 0.9 0.21056 0.5799 0.0
C2430 C 0.88259 0.73442 0.54615 0.0
C2431 C 0.86483 0.71862 0.53167 0.0
C2432 C 0.83478 0.67942 0.55166 0.0
C2433 C 0.8553 0.69296 0.56535 0.0
N2434 N 0.89926 0.73345 0.57591 0.0
N2435 N 0.82576 0.67462 0.52025 0.0
C2436 C 0.8792 0.72072 0.56278 0.0
C2437 C 0.84125 0.69078 0.53435 0.0
N2438 N 0.90234 0.76253 0.54404 0.0
N2439 N 0.80892 0.6557 0.55534 0.0
H2440 H 0.82994 0.68194 0.50728 0.0
H2441 H 0.81051 0.65313 0.52124 0.0
H2442 H 0.8034 0.64728 0.56804 0.0
H2443 H 0.7919 0.64625 0.54631 0.0
H2444 H 0.91384 0.776 0.55444 0.0
H2445 H 0.90565 0.77295 0.53198 0.0
H2446 H 0.91875 0.75231 0.57428 0.0
H2447 H 0.89711 0.72424 0.58827 0.0
loop_
_geom_bond_atom_site_label_1
_geom_bond_atom_site_label_2
_geom_bond_distance
_geom_bond_site_symmetry_2
_ccdc_geom_bond_type
C0 C1 1.264 . S
C0 C5 1.479 . S
C0 C10 1.465 . S
C1 C0 1.264 . S
C1 C3 1.339 . S
C1 H28 0.931 . S
C2 C3 1.395 . S
C2 C4 1.320 . S
C3 C1 1.339 . S
C3 C2 1.395 . S
C3 H29 0.929 . S
C4 C2 1.320 . S
C4 C5 1.405 . S
C4 H30 0.930 . S
C5 C0 1.479 . S
C5 C4 1.405 . S
C5 H31 0.931 . S
U6 O7 2.454 . S
U6 O8 2.458 . S
U6 C9 2.984 . S
U6 C10 2.847 . S
U6 C23 2.882 . S
U6 O24 2.441 . S
U6 O25 2.420 . S
U6 O26 2.455 . S
U6 O27 2.449 . S
O7 U6 2.454 . S
O7 C9 1.353 . S
O8 U6 2.458 . S
O8 C9 1.286 . S
C9 U6 2.984 . S
C9 O7 1.353 . S
C9 O8 1.286 . S
C9 C11 1.363 . S
C10 C0 1.465 . S
C10 U6 2.847 . S
C10 O24 1.249 . S
C10 O25 1.202 . S
C11 C9 1.363 . S
C11 C13 1.408 . S
C11 C16 1.342 . S
C12 C13 1.310 . S
C12 C15 1.461 . S
C12 H32 0.932 . S
C13 C11 1.408 . S
C13 C12 1.310 . S
C13 H33 0.930 . S
C14 C15 1.474 . S
C14 C16 1.285 . S
C14 H34 0.929 1_545 S
C15 C12 1.461 . S
C15 C14 1.474 . S
C16 C11 1.342 . S
C16 C14 1.285 . S
C16 H35 0.930 . S
C17 C20 1.424 . S
C17 C22 1.245 . S
C17 C23 1.428 . S
C18 C21 1.260 . S
C18 C22 1.477 . S
C18 H36 0.932 . S
C19 C20 1.384 . S
C19 C21 1.479 . S
C19 H37 0.929 . S
C20 C17 1.424 . S
C20 C19 1.384 . S
C20 H38 0.928 . S
C21 C18 1.260 . S
C21 C19 1.479 . S
C22 C17 1.245 . S
C22 C18 1.477 . S
C22 H39 0.932 . S
C23 U6 2.882 . S
C23 C17 1.428 . S
C23 O26 1.301 . S
C23 O27 1.282 . S
O24 U6 2.441 . S
O24 C10 1.249 . S
O25 U6 2.420 . S
O25 C10 1.202 . S
O26 U6 2.455 . S
O26 C23 1.301 . S
O27 U6 2.449 . S
O27 C23 1.282 . S
H28 C1 0.931 . S
H29 C3 0.929 . S
H30 C4 0.930 . S
H31 C5 0.931 . S
H32 C12 0.932 . S
H33 C13 0.930 . S
H34 C14 0.929 1_565 S
H35 C16 0.930 . S
H36 C18 0.932 . S
H37 C19 0.929 . S
H38 C20 0.928 . S
H39 C22 0.932 . S
C40 C41 1.264 . S
C40 C45 1.479 . S
C40 C50 1.465 . S
C41 C40 1.264 . S
C41 C43 1.339 . S
C41 H68 0.931 . S
C42 C43 1.395 1_455 S
C42 C44 1.320 1_455 S
C43 C41 1.339 . S
C43 C42 1.395 1_655 S
C43 H69 0.929 1_655 S
C44 C42 1.320 1_655 S
C44 C45 1.405 . S
C44 H70 0.930 . S
C45 C40 1.479 . S
C45 C44 1.405 . S
C45 H71 0.931 . S
U46 O47 2.454 . S
U46 O48 2.458 . S
U46 C49 2.984 . S
U46 C50 2.847 . S
U46 C63 2.882 . S
U46 O64 2.441 . S
U46 O65 2.420 . S
U46 O66 2.455 . S
U46 O67 2.449 . S
O47 U46 2.454 . S
O47 C49 1.353 . S
O48 U46 2.458 . S
O48 C49 1.286 . S
C49 U46 2.984 . S
C49 O47 1.353 . S
C49 O48 1.286 . S
C49 C51 1.363 . S
C50 C40 1.465 . S
C50 U46 2.847 . S
C50 O64 1.249 . S
C50 O65 1.202 . S
C51 C49 1.363 . S
C51 C53 1.408 . S
C51 C56 1.342 . S
C52 C53 1.310 . S
C52 C55 1.461 1_545 S
C52 H72 0.932 . S
C53 C51 1.408 . S
C53 C52 1.310 . S
C53 H73 0.930 . S
C54 C55 1.474 1_545 S
C54 C56 1.285 . S
C54 H74 0.929 1_545 S
C55 C52 1.461 1_565 S
C55 C54 1.474 1_565 S
C56 C51 1.342 . S
C56 C54 1.285 . S
C56 H75 0.930 . S
C57 C60 1.424 . S
C57 C62 1.245 . S
C57 C63 1.428 . S
C58 C61 1.260 . S
C58 C62 1.477 . S
C58 H76 0.932 . S
C59 C60 1.384 . S
C59 C61 1.479 . S
C59 H77 0.929 . S
C60 C57 1.424 . S
C60 C59 1.384 . S
C60 H78 0.928 . S
C61 C58 1.260 . S
C61 C59 1.479 . S
C62 C57 1.245 . S
C62 C58 1.477 . S
C62 H79 0.932 . S
C63 U46 2.882 . S
C63 C57 1.428 . S
C63 O66 1.301 . S
C63 O67 1.282 . S
O64 U46 2.441 . S
O64 C50 1.249 . S
O65 U46 2.420 . S
O65 C50 1.202 . S
O66 U46 2.455 . S
O66 C63 1.301 . S
O67 U46 2.449 . S
O67 C63 1.282 . S
H68 C41 0.931 . S
H69 C43 0.929 1_455 S
H70 C44 0.930 . S
H71 C45 0.931 . S
H72 C52 0.932 . S
H73 C53 0.930 . S
H74 C54 0.929 1_565 S
H75 C56 0.930 . S
H76 C58 0.932 . S
H77 C59 0.929 . S
H78 C60 0.928 . S
H79 C62 0.932 . S
C80 C81 1.264 . S
C80 C85 1.479 . S
C80 C90 1.465 . S
C81 C80 1.264 . S
C81 C83 1.339 . S
C81 H108 0.931 . S
C82 C83 1.395 . S
C82 C84 1.320 . S
C83 C81 1.339 . S
C83 C82 1.395 . S
C83 H109 0.929 . S
C84 C82 1.320 . S
C84 C85 1.405 . S
C84 H110 0.930 . S
C85 C80 1.479 . S
C85 C84 1.405 . S
C85 H111 0.931 . S
U86 O87 2.454 . S
U86 O88 2.458 . S
U86 C89 2.984 . S
U86 C90 2.847 . S
U86 C103 2.882 . S
U86 O104 2.441 . S
U86 O105 2.420 . S
U86 O106 2.455 . S
U86 O107 2.449 . S
O87 U86 2.454 . S
O87 C89 1.353 . S
O88 U86 2.458 . S
O88 C89 1.286 . S
C89 U86 2.984 . S
C89 O87 1.353 . S
C89 O88 1.286 . S
C89 C91 1.363 . S
C90 C80 1.465 . S
C90 U86 2.847 . S
C90 O104 1.249 . S
C90 O105 1.202 . S
C91 C89 1.363 . S
C91 C93 1.408 . S
C91 C96 1.342 . S
C92 C93 1.310 . S
C92 C95 1.461 1_655 S
C92 H112 0.932 . S
C93 C91 1.408 . S
C93 C92 1.310 . S
C93 H113 0.930 . S
C94 C95 1.474 . S
C94 C96 1.285 1_455 S
C94 H114 0.929 . S
C95 C92 1.461 1_455 S
C95 C94 1.474 . S
C96 C91 1.342 . S
C96 C94 1.285 1_655 S
C96 H115 0.930 . S
C97 C100 1.424 . S
C97 C102 1.245 . S
C97 C103 1.428 . S
C98 C101 1.260 . S
C98 C102 1.477 . S
C98 H116 0.932 . S
C99 C100 1.384 . S
C99 C101 1.479 . S
C99 H117 0.929 . S
C100 C97 1.424 . S
C100 C99 1.384 . S
C100 H118 0.928 . S
C101 C98 1.260 . S
C101 C99 1.479 . S
C102 C97 1.245 . S
C102 C98 1.477 . S
C102 H119 0.932 . S
C103 U86 2.882 . S
C103 C97 1.428 . S
C103 O106 1.301 . S
C103 O107 1.282 . S
O104 U86 2.441 . S
O104 C90 1.249 . S
O105 U86 2.420 . S
O105 C90 1.202 . S
O106 U86 2.455 . S
O106 C103 1.301 . S
O107 U86 2.449 . S
O107 C103 1.282 . S
H108 C81 0.931 . S
H109 C83 0.929 . S
H110 C84 0.930 . S
H111 C85 0.931 . S
H112 C92 0.932 . S
H113 C93 0.930 . S
H114 C94 0.929 . S
H115 C96 0.930 . S
H116 C98 0.932 . S
H117 C99 0.929 . S
H118 C100 0.928 . S
H119 C102 0.932 . S
C120 C121 1.264 . S
C120 C125 1.479 . S
C120 C130 1.465 . S
C121 C120 1.264 . S
C121 C123 1.335 1_455 S
C121 H148 0.931 . S
C122 C123 1.395 . S
C122 C124 1.320 1_655 S
C123 C121 1.335 1_655 S
C123 C122 1.395 . S
C123 H149 0.932 . S
C124 C122 1.320 1_455 S
C124 C125 1.405 . S
C124 H150 0.930 . S
C125 C120 1.479 . S
C125 C124 1.405 . S
C125 H151 0.931 . S
U126 O127 2.454 . S
U126 O128 2.458 . S
U126 C129 2.984 . S
U126 C130 2.847 . S
U126 C143 2.882 . S
U126 O144 2.441 . S
U126 O145 2.420 . S
U126 O146 2.455 . S
U126 O147 2.449 . S
O127 U126 2.454 . S
O127 C129 1.353 . S
O128 U126 2.458 . S
O128 C129 1.286 . S
C129 U126 2.984 . S
C129 O127 1.353 . S
C129 O128 1.286 . S
C129 C131 1.363 . S
C130 C120 1.465 . S
C130 U126 2.847 . S
C130 O144 1.249 . S
C130 O145 1.202 . S
C131 C129 1.363 . S
C131 C133 1.408 . S
C131 C136 1.342 . S
C132 C133 1.310 . S
C132 C135 1.461 . S
C132 H152 0.932 . S
C133 C131 1.408 . S
C133 C132 1.310 . S
C133 H153 0.930 . S
C134 C135 1.474 . S
C134 C136 1.285 . S
C134 H154 0.929 . S
C135 C132 1.461 . S
C135 C134 1.474 . S
C136 C131 1.342 . S
C136 C134 1.285 . S
C136 H155 0.930 . S
C137 C140 1.424 . S
C137 C142 1.245 . S
C137 C143 1.428 . S
C138 C141 1.260 . S
C138 C142 1.477 . S
C138 H156 0.932 . S
C139 C140 1.384 . S
C139 C141 1.479 . S
C139 H157 0.929 . S
C140 C137 1.424 . S
C140 C139 1.384 . S
C140 H158 0.928 . S
C141 C138 1.260 . S
C141 C139 1.479 . S
C142 C137 1.245 . S
C142 C138 1.477 . S
C142 H159 0.932 . S
C143 U126 2.882 . S
C143 C137 1.428 . S
C143 O146 1.301 . S
C143 O147 1.282 . S
O144 U126 2.441 . S
O144 C130 1.249 . S
O145 U126 2.420 . S
O145 C130 1.202 . S
O146 U126 2.455 . S
O146 C143 1.301 . S
O147 U126 2.449 . S
O147 C143 1.282 . S
H148 C121 0.931 . S
H149 C123 0.932 . S
H150 C124 0.930 . S
H151 C125 0.931 . S
H152 C132 0.932 . S
H153 C133 0.930 . S
H154 C134 0.929 . S
H155 C136 0.930 . S
H156 C138 0.932 . S
H157 C139 0.929 . S
H158 C140 0.928 . S
H159 C142 0.932 . S
C160 C161 1.264 . S
C160 C165 1.479 . S
C160 C170 1.465 . S
C161 C160 1.264 . S
C161 C163 1.339 . S
C161 H188 0.931 . S
C162 C163 1.395 . S
C162 C164 1.320 . S
C163 C161 1.339 . S
C163 C162 1.395 . S
C163 H189 0.929 . S
C164 C162 1.320 . S
C164 C165 1.405 . S
C164 H190 0.930 . S
C165 C160 1.479 . S
C165 C164 1.405 . S
C165 H191 0.931 . S
U166 O167 2.454 . S
U166 O168 2.458 . S
U166 C169 2.984 . S
U166 C170 2.847 . S
U166 C183 2.882 . S
U166 O184 2.441 . S
U166 O185 2.420 . S
U166 O186 2.455 . S
U166 O187 2.449 . S
O167 U166 2.454 . S
O167 C169 1.353 . S
O168 U166 2.458 . S
O168 C169 1.286 . S
C169 U166 2.984 . S
C169 O167 1.353 . S
C169 O168 1.286 . S
C169 C171 1.363 . S
C170 C160 1.465 . S
C170 U166 2.847 . S
C170 O184 1.249 . S
C170 O185 1.202 . S
C171 C169 1.363 . S
C171 C173 1.408 . S
C171 C176 1.342 . S
C172 C173 1.310 . S
C172 C175 1.461 1_565 S
C172 H192 0.932 . S
C173 C171 1.408 . S
C173 C172 1.310 . S
C173 H193 0.930 . S
C174 C175 1.474 1_565 S
C174 C176 1.285 . S
C174 H194 0.929 1_565 S
C175 C172 1.461 1_545 S
C175 C174 1.474 1_545 S
C176 C171 1.342 . S
C176 C174 1.285 . S
C176 H195 0.930 . S
C177 C180 1.424 . S
C177 C182 1.245 . S
C177 C183 1.428 . S
C178 C181 1.260 . S
C178 C182 1.477 . S
C178 H196 0.932 . S
C179 C180 1.384 . S
C179 C181 1.479 . S
C179 H197 0.929 . S
C180 C177 1.424 . S
C180 C179 1.384 . S
C180 H198 0.928 . S
C181 C178 1.260 . S
C181 C179 1.479 . S
C182 C177 1.245 . S
C182 C178 1.477 . S
C182 H199 0.932 . S
C183 U166 2.882 . S
C183 C177 1.428 . S
C183 O186 1.301 . S
C183 O187 1.282 . S
O184 U166 2.441 . S
O184 C170 1.249 . S
O185 U166 2.420 . S
O185 C170 1.202 . S
O186 U166 2.455 . S
O186 C183 1.301 . S
O187 U166 2.449 . S
O187 C183 1.282 . S
H188 C161 0.931 . S
H189 C163 0.929 . S
H190 C164 0.930 . S
H191 C165 0.931 . S
H192 C172 0.932 . S
H193 C173 0.930 . S
H194 C174 0.929 1_545 S
H195 C176 0.930 . S
H196 C178 0.932 . S
H197 C179 0.929 . S
H198 C180 0.928 . S
H199 C182 0.932 . S
C200 C201 1.264 . S
C200 C205 1.479 . S
C200 C210 1.465 . S
C201 C200 1.264 . S
C201 C203 1.339 1_455 S
C201 H228 0.931 . S
C202 C203 1.395 . S
C202 C204 1.320 1_655 S
C203 C201 1.339 1_655 S
C203 C202 1.395 . S
C203 H229 0.929 . S
C204 C202 1.320 1_455 S
C204 C205 1.405 . S
C204 H230 0.930 . S
C205 C200 1.479 . S
C205 C204 1.405 . S
C205 H231 0.931 . S
U206 O207 2.454 . S
U206 O208 2.458 . S
U206 C209 2.984 . S
U206 C210 2.847 . S
U206 C223 2.882 . S
U206 O224 2.441 . S
U206 O225 2.420 . S
U206 O226 2.455 . S
U206 O227 2.449 . S
O207 U206 2.454 . S
O207 C209 1.353 . S
O208 U206 2.458 . S
O208 C209 1.286 . S
C209 U206 2.984 . S
C209 O207 1.353 . S
C209 O208 1.286 . S
C209 C211 1.363 . S
C210 C200 1.465 . S
C210 U206 2.847 . S
C210 O224 1.249 . S
C210 O225 1.202 . S
C211 C209 1.363 . S
C211 C213 1.408 . S
C211 C216 1.342 . S
C212 C213 1.310 . S
C212 C215 1.461 1_565 S
C212 H232 0.932 . S
C213 C211 1.408 . S
C213 C212 1.310 . S
C213 H233 0.930 . S
C214 C215 1.474 1_565 S
C214 C216 1.285 . S
C214 H234 0.929 1_565 S
C215 C212 1.461 1_545 S
C215 C214 1.474 1_545 S
C216 C211 1.342 . S
C216 C214 1.285 . S
C216 H235 0.930 . S
C217 C220 1.424 . S
C217 C222 1.245 . S
C217 C223 1.428 . S
C218 C221 1.260 . S
C218 C222 1.477 . S
C218 H236 0.932 . S
C219 C220 1.384 . S
C219 C221 1.479 . S
C219 H237 0.929 . S
C220 C217 1.424 . S
C220 C219 1.384 . S
C220 H238 0.928 . S
C221 C218 1.260 . S
C221 C219 1.479 . S
C222 C217 1.245 . S
C222 C218 1.477 . S
C222 H239 0.932 . S
C223 U206 2.882 . S
C223 C217 1.428 . S
C223 O226 1.301 . S
C223 O227 1.282 . S
O224 U206 2.441 . S
O224 C210 1.249 . S
O225 U206 2.420 . S
O225 C210 1.202 . S
O226 U206 2.455 . S
O226 C223 1.301 . S
O227 U206 2.449 . S
O227 C223 1.282 . S
H228 C201 0.931 . S
H229 C203 0.929 . S
H230 C204 0.930 . S
H231 C205 0.931 . S
H232 C212 0.932 . S
H233 C213 0.930 . S
H234 C214 0.929 1_545 S
H235 C216 0.930 . S
H236 C218 0.932 . S
H237 C219 0.929 . S
H238 C220 0.928 . S
H239 C222 0.932 . S
C240 C241 1.264 . S
C240 C245 1.479 . S
C240 C250 1.465 . S
C241 C240 1.264 . S
C241 C243 1.339 . S
C241 H268 0.931 . S
C242 C243 1.395 . S
C242 C244 1.320 . S
C243 C241 1.339 . S
C243 C242 1.395 . S
C243 H269 0.929 . S
C244 C242 1.320 . S
C244 C245 1.405 . S
C244 H270 0.930 . S
C245 C240 1.479 . S
C245 C244 1.405 . S
C245 H271 0.931 . S
U246 O247 2.454 . S
U246 O248 2.458 . S
U246 C249 2.984 . S
U246 C250 2.847 . S
U246 C263 2.882 . S
U246 O264 2.441 . S
U246 O265 2.420 . S
U246 O266 2.455 . S
U246 O267 2.449 . S
O247 U246 2.454 . S
O247 C249 1.353 . S
O248 U246 2.458 . S
O248 C249 1.286 . S
C249 U246 2.984 . S
C249 O247 1.353 . S
C249 O248 1.286 . S
C249 C251 1.363 . S
C250 C240 1.465 . S
C250 U246 2.847 . S
C250 O264 1.249 . S
C250 O265 1.202 . S
C251 C249 1.363 . S
C251 C253 1.408 . S
C251 C256 1.342 . S
C252 C253 1.310 . S
C252 C255 1.461 . S
C252 H272 0.932 . S
C253 C251 1.408 . S
C253 C252 1.310 . S
C253 H273 0.930 . S
C254 C255 1.474 . S
C254 C256 1.285 . S
C254 H274 0.929 . S
C255 C252 1.461 . S
C255 C254 1.474 . S
C256 C251 1.342 . S
C256 C254 1.285 . S
C256 H275 0.930 . S
C257 C260 1.424 . S
C257 C262 1.245 . S
C257 C263 1.428 . S
C258 C261 1.260 . S
C258 C262 1.477 . S
C258 H276 0.932 . S
C259 C260 1.384 . S
C259 C261 1.479 . S
C259 H277 0.929 . S
C260 C257 1.424 . S
C260 C259 1.384 . S
C260 H278 0.928 . S
C261 C258 1.260 . S
C261 C259 1.479 . S
C262 C257 1.245 . S
C262 C258 1.477 . S
C262 H279 0.932 . S
C263 U246 2.882 . S
C263 C257 1.428 . S
C263 O266 1.301 . S
C263 O267 1.282 . S
O264 U246 2.441 . S
O264 C250 1.249 . S
O265 U246 2.420 . S
O265 C250 1.202 . S
O266 U246 2.455 . S
O266 C263 1.301 . S
O267 U246 2.449 . S
O267 C263 1.282 . S
H268 C241 0.931 . S
H269 C243 0.929 . S
H270 C244 0.930 . S
H271 C245 0.931 . S
H272 C252 0.932 . S
H273 C253 0.930 . S
H274 C254 0.929 . S
H275 C256 0.930 . S
H276 C258 0.932 . S
H277 C259 0.929 . S
H278 C260 0.928 . S
H279 C262 0.932 . S
C280 C281 1.264 . S
C280 C285 1.479 . S
C280 C290 1.465 . S
C281 C280 1.264 . S
C281 C283 1.339 . S
C281 H308 0.931 . S
C282 C283 1.395 . S
C282 C284 1.320 . S
C283 C281 1.339 . S
C283 C282 1.395 . S
C283 H309 0.929 . S
C284 C282 1.320 . S
C284 C285 1.405 . S
C284 H310 0.930 . S
C285 C280 1.479 . S
C285 C284 1.405 . S
C285 H311 0.931 . S
U286 O287 2.454 . S
U286 O288 2.458 . S
U286 C289 2.984 . S
U286 C290 2.847 . S
U286 C303 2.882 . S
U286 O304 2.441 . S
U286 O305 2.420 . S
U286 O306 2.455 . S
U286 O307 2.449 . S
O287 U286 2.454 . S
O287 C289 1.353 . S
O288 U286 2.458 . S
O288 C289 1.286 . S
C289 U286 2.984 . S
C289 O287 1.353 . S
C289 O288 1.286 . S
C289 C291 1.363 . S
C290 C280 1.465 . S
C290 U286 2.847 . S
C290 O304 1.249 . S
C290 O305 1.202 . S
C291 C289 1.363 . S
C291 C293 1.408 . S
C291 C296 1.342 . S
C292 C293 1.310 . S
C292 C295 1.461 . S
C292 H312 0.932 . S
C293 C291 1.408 . S
C293 C292 1.310 . S
C293 H313 0.930 . S
C294 C295 1.474 . S
C294 C296 1.285 . S
C294 H314 0.929 . S
C295 C292 1.461 . S
C295 C294 1.474 . S
C296 C291 1.342 . S
C296 C294 1.285 . S
C296 H315 0.930 . S
C297 C300 1.424 . S
C297 C302 1.245 . S
C297 C303 1.428 . S
C298 C301 1.260 . S
C298 C302 1.477 . S
C298 H316 0.932 . S
C299 C300 1.384 . S
C299 C301 1.479 . S
C299 H317 0.929 . S
C300 C297 1.424 . S
C300 C299 1.384 . S
C300 H318 0.928 . S
C301 C298 1.260 . S
C301 C299 1.479 . S
C302 C297 1.245 . S
C302 C298 1.477 . S
C302 H319 0.932 . S
C303 U286 2.882 . S
C303 C297 1.428 . S
C303 O306 1.301 . S
C303 O307 1.282 . S
O304 U286 2.441 . S
O304 C290 1.249 . S
O305 U286 2.420 . S
O305 C290 1.202 . S
O306 U286 2.455 . S
O306 C303 1.301 . S
O307 U286 2.449 . S
O307 C303 1.282 . S
H308 C281 0.931 . S
H309 C283 0.929 . S
H310 C284 0.930 . S
H311 C285 0.931 . S
H312 C292 0.932 . S
H313 C293 0.930 . S
H314 C294 0.929 . S
H315 C296 0.930 . S
H316 C298 0.932 . S
H317 C299 0.929 . S
H318 C300 0.928 . S
H319 C302 0.932 . S
C320 C321 1.264 . S
C320 C325 1.479 . S
C320 C330 1.465 . S
C321 C320 1.264 . S
C321 C323 1.339 . S
C321 H348 0.931 . S
C322 C323 1.395 . S
C322 C324 1.320 . S
C323 C321 1.339 . S
C323 C322 1.395 . S
C323 H349 0.929 . S
C324 C322 1.320 . S
C324 C325 1.405 . S
C324 H350 0.930 . S
C325 C320 1.479 . S
C325 C324 1.405 . S
C325 H351 0.931 . S
U326 O327 2.454 . S
U326 O328 2.458 . S
U326 C329 2.984 . S
U326 C330 2.847 . S
U326 C343 2.882 . S
U326 O344 2.441 . S
U326 O345 2.420 . S
U326 O346 2.455 . S
U326 O347 2.449 . S
O327 U326 2.454 . S
O327 C329 1.353 . S
O328 U326 2.458 . S
O328 C329 1.286 . S
C329 U326 2.984 . S
C329 O327 1.353 . S
C329 O328 1.286 . S
C329 C331 1.363 . S
C330 C320 1.465 . S
C330 U326 2.847 . S
C330 O344 1.249 . S
C330 O345 1.202 . S
C331 C329 1.363 . S
C331 C333 1.408 . S
C331 C336 1.342 . S
C332 C333 1.310 . S
C332 C335 1.461 . S
C332 H352 0.932 . S
C333 C331 1.408 . S
C333 C332 1.310 . S
C333 H353 0.930 . S
C334 C335 1.474 . S
C334 C336 1.285 . S
C334 H354 0.929 . S
C335 C332 1.461 . S
C335 C334 1.474 . S
C336 C331 1.342 . S
C336 C334 1.285 . S
C336 H355 0.930 . S
C337 C340 1.424 . S
C337 C342 1.245 . S
C337 C343 1.428 . S
C338 C341 1.260 . S
C338 C342 1.477 . S
C338 H356 0.932 . S
C339 C340 1.384 . S
C339 C341 1.479 . S
C339 H357 0.929 . S
C340 C337 1.424 . S
C340 C339 1.384 . S
C340 H358 0.928 . S
C341 C338 1.260 . S
C341 C339 1.479 . S
C342 C337 1.245 . S
C342 C338 1.477 . S
C342 H359 0.932 . S
C343 U326 2.882 . S
C343 C337 1.428 . S
C343 O346 1.301 . S
C343 O347 1.282 . S
O344 U326 2.441 . S
O344 C330 1.249 . S
O345 U326 2.420 . S
O345 C330 1.202 . S
O346 U326 2.455 . S
O346 C343 1.301 . S
O347 U326 2.449 . S
O347 C343 1.282 . S
H348 C321 0.931 . S
H349 C323 0.929 . S
H350 C324 0.930 . S
H351 C325 0.931 . S
H352 C332 0.932 . S
H353 C333 0.930 . S
H354 C334 0.929 . S
H355 C336 0.930 . S
H356 C338 0.932 . S
H357 C339 0.929 . S
H358 C340 0.928 . S
H359 C342 0.932 . S
C360 C361 1.264 . S
C360 C365 1.479 . S
C360 C370 1.465 . S
C361 C360 1.264 . S
C361 C363 1.339 . S
C361 H388 0.931 . S
C362 C363 1.395 . S
C362 C364 1.320 . S
C363 C361 1.339 . S
C363 C362 1.395 . S
C363 H389 0.929 . S
C364 C362 1.320 . S
C364 C365 1.405 . S
C364 H390 0.930 . S
C365 C360 1.479 . S
C365 C364 1.405 . S
C365 H391 0.931 . S
U366 O367 2.454 . S
U366 O368 2.458 . S
U366 C369 2.984 . S
U366 C370 2.847 . S
U366 C383 2.882 . S
U366 O384 2.441 . S
U366 O385 2.420 . S
U366 O386 2.455 . S
U366 O387 2.449 . S
O367 U366 2.454 . S
O367 C369 1.353 . S
O368 U366 2.458 . S
O368 C369 1.286 . S
C369 U366 2.984 . S
C369 O367 1.353 . S
C369 O368 1.286 . S
C369 C371 1.363 . S
C370 C360 1.465 . S
C370 U366 2.847 . S
C370 O384 1.249 . S
C370 O385 1.202 . S
C371 C369 1.363 . S
C371 C373 1.408 . S
C371 C376 1.342 . S
C372 C373 1.310 . S
C372 C375 1.461 . S
C372 H392 0.932 . S
C373 C371 1.408 . S
C373 C372 1.310 . S
C373 H393 0.930 . S
C374 C375 1.474 . S
C374 C376 1.285 . S
C374 H394 0.929 . S
C375 C372 1.461 . S
C375 C374 1.474 . S
C376 C371 1.342 . S
C376 C374 1.285 . S
C376 H395 0.930 . S
C377 C380 1.424 . S
C377 C382 1.245 . S
C377 C383 1.428 . S
C378 C381 1.260 . S
C378 C382 1.477 . S
C378 H396 0.932 . S
C379 C380 1.384 . S
C379 C381 1.479 . S
C379 H397 0.929 . S
C380 C377 1.424 . S
C380 C379 1.384 . S
C380 H398 0.928 . S
C381 C378 1.260 . S
C381 C379 1.479 . S
C382 C377 1.245 . S
C382 C378 1.477 . S
C382 H399 0.932 . S
C383 U366 2.882 . S
C383 C377 1.428 . S
C383 O386 1.301 . S
C383 O387 1.282 . S
O384 U366 2.441 . S
O384 C370 1.249 . S
O385 U366 2.420 . S
O385 C370 1.202 . S
O386 U366 2.455 . S
O386 C383 1.301 . S
O387 U366 2.449 . S
O387 C383 1.282 . S
H388 C361 0.931 . S
H389 C363 0.929 . S
H390 C364 0.930 . S
H391 C365 0.931 . S
H392 C372 0.932 . S
H393 C373 0.930 . S
H394 C374 0.929 . S
H395 C376 0.930 . S
H396 C378 0.932 . S
H397 C379 0.929 . S
H398 C380 0.928 . S
H399 C382 0.932 . S
C400 C401 1.264 . S
C400 C405 1.479 . S
C400 C410 1.465 . S
C401 C400 1.264 . S
C401 C403 1.339 . S
C401 H428 0.931 . S
C402 C403 1.395 . S
C402 C404 1.320 . S
C403 C401 1.339 . S
C403 C402 1.395 . S
C403 H429 0.929 . S
C404 C402 1.320 . S
C404 C405 1.405 . S
C404 H430 0.930 . S
C405 C400 1.479 . S
C405 C404 1.405 . S
C405 H431 0.931 . S
U406 O407 2.454 . S
U406 O408 2.458 . S
U406 C409 2.984 . S
U406 C410 2.847 . S
U406 C423 2.882 . S
U406 O424 2.441 . S
U406 O425 2.420 . S
U406 O426 2.455 . S
U406 O427 2.449 . S
O407 U406 2.454 . S
O407 C409 1.353 . S
O408 U406 2.458 . S
O408 C409 1.286 . S
C409 U406 2.984 . S
C409 O407 1.353 . S
C409 O408 1.286 . S
C409 C411 1.363 . S
C410 C400 1.465 . S
C410 U406 2.847 . S
C410 O424 1.249 . S
C410 O425 1.202 . S
C411 C409 1.363 . S
C411 C413 1.408 . S
C411 C416 1.342 . S
C412 C413 1.310 . S
C412 C415 1.461 . S
C412 H432 0.932 . S
C413 C411 1.408 . S
C413 C412 1.310 . S
C413 H433 0.930 . S
C414 C415 1.474 . S
C414 C416 1.285 . S
C414 H434 0.929 . S
C415 C412 1.461 . S
C415 C414 1.474 . S
C416 C411 1.342 . S
C416 C414 1.285 . S
C416 H435 0.930 . S
C417 C420 1.424 . S
C417 C422 1.245 . S
C417 C423 1.428 . S
C418 C421 1.260 . S
C418 C422 1.477 . S
C418 H436 0.932 . S
C419 C420 1.384 . S
C419 C421 1.479 . S
C419 H437 0.929 . S
C420 C417 1.424 . S
C420 C419 1.384 . S
C420 H438 0.928 . S
C421 C418 1.260 . S
C421 C419 1.479 . S
C422 C417 1.245 . S
C422 C418 1.477 . S
C422 H439 0.932 . S
C423 U406 2.882 . S
C423 C417 1.428 . S
C423 O426 1.301 . S
C423 O427 1.282 . S
O424 U406 2.441 . S
O424 C410 1.249 . S
O425 U406 2.420 . S
O425 C410 1.202 . S
O426 U406 2.455 . S
O426 C423 1.301 . S
O427 U406 2.449 . S
O427 C423 1.282 . S
H428 C401 0.931 . S
H429 C403 0.929 . S
H430 C404 0.930 . S
H431 C405 0.931 . S
H432 C412 0.932 . S
H433 C413 0.930 . S
H434 C414 0.929 . S
H435 C416 0.930 . S
H436 C418 0.932 . S
H437 C419 0.929 . S
H438 C420 0.928 . S
H439 C422 0.932 . S
C440 C441 1.264 . S
C440 C445 1.479 . S
C440 C450 1.465 . S
C441 C440 1.264 . S
C441 C443 1.339 . S
C441 H468 0.931 . S
C442 C443 1.395 . S
C442 C444 1.320 . S
C443 C441 1.339 . S
C443 C442 1.395 . S
C443 H469 0.929 . S
C444 C442 1.320 . S
C444 C445 1.405 . S
C444 H470 0.930 . S
C445 C440 1.479 . S
C445 C444 1.405 . S
C445 H471 0.931 . S
U446 O447 2.454 . S
U446 O448 2.458 . S
U446 C449 2.984 . S
U446 C450 2.847 . S
U446 C463 2.882 . S
U446 O464 2.441 . S
U446 O465 2.420 . S
U446 O466 2.455 . S
U446 O467 2.449 . S
O447 U446 2.454 . S
O447 C449 1.353 . S
O448 U446 2.458 . S
O448 C449 1.286 . S
C449 U446 2.984 . S
C449 O447 1.353 . S
C449 O448 1.286 . S
C449 C451 1.363 . S
C450 C440 1.465 . S
C450 U446 2.847 . S
C450 O464 1.249 . S
C450 O465 1.202 . S
C451 C449 1.363 . S
C451 C453 1.408 . S
C451 C456 1.342 . S
C452 C453 1.310 . S
C452 C455 1.461 . S
C452 H472 0.932 . S
C453 C451 1.408 . S
C453 C452 1.310 . S
C453 H473 0.930 . S
C454 C455 1.474 . S
C454 C456 1.285 . S
C454 H474 0.929 . S
C455 C452 1.461 . S
C455 C454 1.474 . S
C456 C451 1.342 . S
C456 C454 1.285 . S
C456 H475 0.930 . S
C457 C460 1.424 . S
C457 C462 1.245 . S
C457 C463 1.428 . S
C458 C461 1.260 . S
C458 C462 1.477 . S
C458 H476 0.932 . S
C459 C460 1.384 . S
C459 C461 1.479 . S
C459 H477 0.929 . S
C460 C457 1.424 . S
C460 C459 1.384 . S
C460 H478 0.928 . S
C461 C458 1.260 . S
C461 C459 1.479 . S
C462 C457 1.245 . S
C462 C458 1.477 . S
C462 H479 0.932 . S
C463 U446 2.882 . S
C463 C457 1.428 . S
C463 O466 1.301 . S
C463 O467 1.282 . S
O464 U446 2.441 . S
O464 C450 1.249 . S
O465 U446 2.420 . S
O465 C450 1.202 . S
O466 U446 2.455 . S
O466 C463 1.301 . S
O467 U446 2.449 . S
O467 C463 1.282 . S
H468 C441 0.931 . S
H469 C443 0.929 . S
H470 C444 0.930 . S
H471 C445 0.931 . S
H472 C452 0.932 . S
H473 C453 0.930 . S
H474 C454 0.929 . S
H475 C456 0.930 . S
H476 C458 0.932 . S
H477 C459 0.929 . S
H478 C460 0.928 . S
H479 C462 0.932 . S
C480 C481 1.264 . S
C480 C485 1.479 . S
C480 C490 1.465 . S
C481 C480 1.264 . S
C481 C483 1.339 . S
C481 H508 0.931 . S
C482 C483 1.395 . S
C482 C484 1.320 . S
C483 C481 1.339 . S
C483 C482 1.395 . S
C483 H509 0.929 . S
C484 C482 1.320 . S
C484 C485 1.405 . S
C484 H510 0.930 . S
C485 C480 1.479 . S
C485 C484 1.405 . S
C485 H511 0.931 . S
U486 O487 2.454 . S
U486 O488 2.458 . S
U486 C489 2.984 . S
U486 C490 2.847 . S
U486 C503 2.882 . S
U486 O504 2.441 . S
U486 O505 2.420 . S
U486 O506 2.455 . S
U486 O507 2.449 . S
O487 U486 2.454 . S
O487 C489 1.353 . S
O488 U486 2.458 . S
O488 C489 1.286 . S
C489 U486 2.984 . S
C489 O487 1.353 . S
C489 O488 1.286 . S
C489 C491 1.363 . S
C490 C480 1.465 . S
C490 U486 2.847 . S
C490 O504 1.249 . S
C490 O505 1.202 . S
C491 C489 1.363 . S
C491 C493 1.408 . S
C491 C496 1.342 . S
C492 C493 1.310 . S
C492 C495 1.461 . S
C492 H512 0.932 . S
C493 C491 1.408 . S
C493 C492 1.310 . S
C493 H513 0.930 . S
C494 C495 1.474 . S
C494 C496 1.285 . S
C494 H514 0.929 . S
C495 C492 1.461 . S
C495 C494 1.474 . S
C496 C491 1.342 . S
C496 C494 1.285 . S
C496 H515 0.930 . S
C497 C500 1.424 . S
C497 C502 1.245 . S
C497 C503 1.428 . S
C498 C501 1.260 . S
C498 C502 1.477 . S
C498 H516 0.932 . S
C499 C500 1.384 . S
C499 C501 1.479 . S
C499 H517 0.929 . S
C500 C497 1.424 . S
C500 C499 1.384 . S
C500 H518 0.928 . S
C501 C498 1.260 . S
C501 C499 1.479 . S
C502 C497 1.245 . S
C502 C498 1.477 . S
C502 H519 0.932 . S
C503 U486 2.882 . S
C503 C497 1.428 . S
C503 O506 1.301 . S
C503 O507 1.282 . S
O504 U486 2.441 . S
O504 C490 1.249 . S
O505 U486 2.420 . S
O505 C490 1.202 . S
O506 U486 2.455 . S
O506 C503 1.301 . S
O507 U486 2.449 . S
O507 C503 1.282 . S
H508 C481 0.931 . S
H509 C483 0.929 . S
H510 C484 0.930 . S
H511 C485 0.931 . S
H512 C492 0.932 . S
H513 C493 0.930 . S
H514 C494 0.929 . S
H515 C496 0.930 . S
H516 C498 0.932 . S
H517 C499 0.929 . S
H518 C500 0.928 . S
H519 C502 0.932 . S
C520 C521 1.264 . S
C520 C525 1.479 . S
C520 C530 1.465 . S
C521 C520 1.264 . S
C521 C523 1.339 . S
C521 H548 0.931 . S
C522 C523 1.395 . S
C522 C524 1.320 . S
C523 C521 1.339 . S
C523 C522 1.395 . S
C523 H549 0.929 . S
C524 C522 1.320 . S
C524 C525 1.405 . S
C524 H550 0.930 . S
C525 C520 1.479 . S
C525 C524 1.405 . S
C525 H551 0.931 . S
U526 O527 2.454 . S
U526 O528 2.458 . S
U526 C529 2.984 . S
U526 C530 2.847 . S
U526 C543 2.882 . S
U526 O544 2.441 . S
U526 O545 2.420 . S
U526 O546 2.455 . S
U526 O547 2.449 . S
O527 U526 2.454 . S
O527 C529 1.353 . S
O528 U526 2.458 . S
O528 C529 1.286 . S
C529 U526 2.984 . S
C529 O527 1.353 . S
C529 O528 1.286 . S
C529 C531 1.363 . S
C530 C520 1.465 . S
C530 U526 2.847 . S
C530 O544 1.249 . S
C530 O545 1.202 . S
C531 C529 1.363 . S
C531 C533 1.408 . S
C531 C536 1.342 . S
C532 C533 1.310 . S
C532 C535 1.461 . S
C532 H552 0.932 . S
C533 C531 1.408 . S
C533 C532 1.310 . S
C533 H553 0.930 . S
C534 C535 1.474 . S
C534 C536 1.285 . S
C534 H554 0.929 . S
C535 C532 1.461 . S
C535 C534 1.474 . S
C536 C531 1.342 . S
C536 C534 1.285 . S
C536 H555 0.930 . S
C537 C540 1.424 . S
C537 C542 1.245 . S
C537 C543 1.428 . S
C538 C541 1.260 . S
C538 C542 1.477 . S
C538 H556 0.932 . S
C539 C540 1.384 . S
C539 C541 1.479 . S
C539 H557 0.929 . S
C540 C537 1.424 . S
C540 C539 1.384 . S
C540 H558 0.928 . S
C541 C538 1.260 . S
C541 C539 1.479 . S
C542 C537 1.245 . S
C542 C538 1.477 . S
C542 H559 0.932 . S
C543 U526 2.882 . S
C543 C537 1.428 . S
C543 O546 1.301 . S
C543 O547 1.282 . S
O544 U526 2.441 . S
O544 C530 1.249 . S
O545 U526 2.420 . S
O545 C530 1.202 . S
O546 U526 2.455 . S
O546 C543 1.301 . S
O547 U526 2.449 . S
O547 C543 1.282 . S
H548 C521 0.931 . S
H549 C523 0.929 . S
H550 C524 0.930 . S
H551 C525 0.931 . S
H552 C532 0.932 . S
H553 C533 0.930 . S
H554 C534 0.929 . S
H555 C536 0.930 . S
H556 C538 0.932 . S
H557 C539 0.929 . S
H558 C540 0.928 . S
H559 C542 0.932 . S
C560 C561 1.264 . S
C560 C565 1.479 . S
C560 C570 1.465 . S
C561 C560 1.264 . S
C561 C563 1.339 . S
C561 H588 0.931 . S
C562 C563 1.395 . S
C562 C564 1.320 . S
C563 C561 1.339 . S
C563 C562 1.395 . S
C563 H589 0.929 . S
C564 C562 1.320 . S
C564 C565 1.405 . S
C564 H590 0.930 . S
C565 C560 1.479 . S
C565 C564 1.405 . S
C565 H591 0.931 . S
U566 O567 2.454 . S
U566 O568 2.458 . S
U566 C569 2.984 . S
U566 C570 2.847 . S
U566 C583 2.882 . S
U566 O584 2.441 . S
U566 O585 2.420 . S
U566 O586 2.455 . S
U566 O587 2.449 . S
O567 U566 2.454 . S
O567 C569 1.353 . S
O568 U566 2.458 . S
O568 C569 1.286 . S
C569 U566 2.984 . S
C569 O567 1.353 . S
C569 O568 1.286 . S
C569 C571 1.363 . S
C570 C560 1.465 . S
C570 U566 2.847 . S
C570 O584 1.249 . S
C570 O585 1.202 . S
C571 C569 1.363 . S
C571 C573 1.408 . S
C571 C576 1.342 . S
C572 C573 1.310 . S
C572 C575 1.461 . S
C572 H592 0.932 . S
C573 C571 1.408 . S
C573 C572 1.310 . S
C573 H593 0.930 . S
C574 C575 1.474 . S
C574 C576 1.285 . S
C574 H594 0.929 . S
C575 C572 1.461 . S
C575 C574 1.474 . S
C576 C571 1.342 . S
C576 C574 1.285 . S
C576 H595 0.930 . S
C577 C580 1.424 . S
C577 C582 1.245 . S
C577 C583 1.428 . S
C578 C581 1.260 . S
C578 C582 1.477 . S
C578 H596 0.932 . S
C579 C580 1.384 . S
C579 C581 1.479 . S
C579 H597 0.929 . S
C580 C577 1.424 . S
C580 C579 1.384 . S
C580 H598 0.928 . S
C581 C578 1.260 . S
C581 C579 1.479 . S
C582 C577 1.245 . S
C582 C578 1.477 . S
C582 H599 0.932 . S
C583 U566 2.882 . S
C583 C577 1.428 . S
C583 O586 1.301 . S
C583 O587 1.282 . S
O584 U566 2.441 . S
O584 C570 1.249 . S
O585 U566 2.420 . S
O585 C570 1.202 . S
O586 U566 2.455 . S
O586 C583 1.301 . S
O587 U566 2.449 . S
O587 C583 1.282 . S
H588 C561 0.931 . S
H589 C563 0.929 . S
H590 C564 0.930 . S
H591 C565 0.931 . S
H592 C572 0.932 . S
H593 C573 0.930 . S
H594 C574 0.929 . S
H595 C576 0.930 . S
H596 C578 0.932 . S
H597 C579 0.929 . S
H598 C580 0.928 . S
H599 C582 0.932 . S
C600 C601 1.264 . S
C600 C605 1.479 . S
C600 C610 1.465 . S
C601 C600 1.264 . S
C601 C603 1.339 . S
C601 H628 0.931 . S
C602 C603 1.395 . S
C602 C604 1.320 . S
C603 C601 1.339 . S
C603 C602 1.395 . S
C603 H629 0.929 . S
C604 C602 1.320 . S
C604 C605 1.405 . S
C604 H630 0.930 . S
C605 C600 1.479 . S
C605 C604 1.405 . S
C605 H631 0.931 . S
U606 O607 2.454 . S
U606 O608 2.458 . S
U606 C609 2.984 . S
U606 C610 2.847 . S
U606 C623 2.882 . S
U606 O624 2.441 . S
U606 O625 2.420 . S
U606 O626 2.455 . S
U606 O627 2.449 . S
O607 U606 2.454 . S
O607 C609 1.353 . S
O608 U606 2.458 . S
O608 C609 1.286 . S
C609 U606 2.984 . S
C609 O607 1.353 . S
C609 O608 1.286 . S
C609 C611 1.363 . S
C610 C600 1.465 . S
C610 U606 2.847 . S
C610 O624 1.249 . S
C610 O625 1.202 . S
C611 C609 1.363 . S
C611 C613 1.408 . S
C611 C616 1.342 . S
C612 C613 1.310 . S
C612 C615 1.461 . S
C612 H632 0.932 . S
C613 C611 1.408 . S
C613 C612 1.310 . S
C613 H633 0.930 . S
C614 C615 1.474 . S
C614 C616 1.285 . S
C614 H634 0.929 . S
C615 C612 1.461 . S
C615 C614 1.474 . S
C616 C611 1.342 . S
C616 C614 1.285 . S
C616 H635 0.930 . S
C617 C620 1.424 . S
C617 C622 1.245 . S
C617 C623 1.428 . S
C618 C621 1.260 . S
C618 C622 1.477 . S
C618 H636 0.932 . S
C619 C620 1.384 . S
C619 C621 1.479 . S
C619 H637 0.929 . S
C620 C617 1.424 . S
C620 C619 1.384 . S
C620 H638 0.928 . S
C621 C618 1.260 . S
C621 C619 1.479 . S
C622 C617 1.245 . S
C622 C618 1.477 . S
C622 H639 0.932 . S
C623 U606 2.882 . S
C623 C617 1.428 . S
C623 O626 1.301 . S
C623 O627 1.282 . S
O624 U606 2.441 . S
O624 C610 1.249 . S
O625 U606 2.420 . S
O625 C610 1.202 . S
O626 U606 2.455 . S
O626 C623 1.301 . S
O627 U606 2.449 . S
O627 C623 1.282 . S
H628 C601 0.931 . S
H629 C603 0.929 . S
H630 C604 0.930 . S
H631 C605 0.931 . S
H632 C612 0.932 . S
H633 C613 0.930 . S
H634 C614 0.929 . S
H635 C616 0.930 . S
H636 C618 0.932 . S
H637 C619 0.929 . S
H638 C620 0.928 . S
H639 C622 0.932 . S
C640 C641 1.264 . S
C640 C645 1.479 . S
C640 C650 1.465 . S
C641 C640 1.264 . S
C641 C643 1.339 . S
C641 H668 0.931 . S
C642 C643 1.395 . S
C642 C644 1.320 . S
C643 C641 1.339 . S
C643 C642 1.395 . S
C643 H669 0.929 . S
C644 C642 1.320 . S
C644 C645 1.405 . S
C644 H670 0.930 . S
C645 C640 1.479 . S
C645 C644 1.405 . S
C645 H671 0.931 . S
U646 O647 2.454 . S
U646 O648 2.458 . S
U646 C649 2.984 . S
U646 C650 2.847 . S
U646 C663 2.882 . S
U646 O664 2.441 . S
U646 O665 2.420 . S
U646 O666 2.455 . S
U646 O667 2.449 . S
O647 U646 2.454 . S
O647 C649 1.353 . S
O648 U646 2.458 . S
O648 C649 1.286 . S
C649 U646 2.984 . S
C649 O647 1.353 . S
C649 O648 1.286 . S
C649 C651 1.363 . S
C650 C640 1.465 . S
C650 U646 2.847 . S
C650 O664 1.249 . S
C650 O665 1.202 . S
C651 C649 1.363 . S
C651 C653 1.408 . S
C651 C656 1.342 . S
C652 C653 1.310 . S
C652 C655 1.461 . S
C652 H672 0.932 . S
C653 C651 1.408 . S
C653 C652 1.310 . S
C653 H673 0.930 . S
C654 C655 1.474 . S
C654 C656 1.285 . S
C654 H674 0.929 . S
C655 C652 1.461 . S
C655 C654 1.474 . S
C656 C651 1.342 . S
C656 C654 1.285 . S
C656 H675 0.930 . S
C657 C660 1.424 . S
C657 C662 1.245 . S
C657 C663 1.428 . S
C658 C661 1.260 . S
C658 C662 1.477 . S
C658 H676 0.932 . S
C659 C660 1.384 . S
C659 C661 1.479 . S
C659 H677 0.929 . S
C660 C657 1.424 . S
C660 C659 1.384 . S
C660 H678 0.928 . S
C661 C658 1.260 . S
C661 C659 1.479 . S
C662 C657 1.245 . S
C662 C658 1.477 . S
C662 H679 0.932 . S
C663 U646 2.882 . S
C663 C657 1.428 . S
C663 O666 1.301 . S
C663 O667 1.282 . S
O664 U646 2.441 . S
O664 C650 1.249 . S
O665 U646 2.420 . S
O665 C650 1.202 . S
O666 U646 2.455 . S
O666 C663 1.301 . S
O667 U646 2.449 . S
O667 C663 1.282 . S
H668 C641 0.931 . S
H669 C643 0.929 . S
H670 C644 0.930 . S
H671 C645 0.931 . S
H672 C652 0.932 . S
H673 C653 0.930 . S
H674 C654 0.929 . S
H675 C656 0.930 . S
H676 C658 0.932 . S
H677 C659 0.929 . S
H678 C660 0.928 . S
H679 C662 0.932 . S
C680 C681 1.264 . S
C680 C685 1.479 . S
C680 C690 1.465 . S
C681 C680 1.264 . S
C681 C683 1.339 . S
C681 H708 0.931 . S
C682 C683 1.395 . S
C682 C684 1.320 . S
C683 C681 1.339 . S
C683 C682 1.395 . S
C683 H709 0.929 . S
C684 C682 1.320 . S
C684 C685 1.405 . S
C684 H710 0.930 . S
C685 C680 1.479 . S
C685 C684 1.405 . S
C685 H711 0.931 . S
U686 O687 2.454 . S
U686 O688 2.458 . S
U686 C689 2.984 . S
U686 C690 2.847 . S
U686 C703 2.882 . S
U686 O704 2.441 . S
U686 O705 2.420 . S
U686 O706 2.455 . S
U686 O707 2.449 . S
O687 U686 2.454 . S
O687 C689 1.353 . S
O688 U686 2.458 . S
O688 C689 1.286 . S
C689 U686 2.984 . S
C689 O687 1.353 . S
C689 O688 1.286 . S
C689 C691 1.363 . S
C690 C680 1.465 . S
C690 U686 2.847 . S
C690 O704 1.249 . S
C690 O705 1.202 . S
C691 C689 1.363 . S
C691 C693 1.408 . S
C691 C696 1.342 . S
C692 C693 1.310 . S
C692 C695 1.461 . S
C692 H712 0.932 . S
C693 C691 1.408 . S
C693 C692 1.310 . S
C693 H713 0.930 . S
C694 C695 1.474 . S
C694 C696 1.285 . S
C694 H714 0.929 . S
C695 C692 1.461 . S
C695 C694 1.474 . S
C696 C691 1.342 . S
C696 C694 1.285 . S
C696 H715 0.930 . S
C697 C700 1.424 . S
C697 C702 1.245 . S
C697 C703 1.428 . S
C698 C701 1.260 . S
C698 C702 1.477 . S
C698 H716 0.932 . S
C699 C700 1.384 . S
C699 C701 1.479 . S
C699 H717 0.929 . S
C700 C697 1.424 . S
C700 C699 1.384 . S
C700 H718 0.928 . S
C701 C698 1.260 . S
C701 C699 1.479 . S
C702 C697 1.245 . S
C702 C698 1.477 . S
C702 H719 0.932 . S
C703 U686 2.882 . S
C703 C697 1.428 . S
C703 O706 1.301 . S
C703 O707 1.282 . S
O704 U686 2.441 . S
O704 C690 1.249 . S
O705 U686 2.420 . S
O705 C690 1.202 . S
O706 U686 2.455 . S
O706 C703 1.301 . S
O707 U686 2.449 . S
O707 C703 1.282 . S
H708 C681 0.931 . S
H709 C683 0.929 . S
H710 C684 0.930 . S
H711 C685 0.931 . S
H712 C692 0.932 . S
H713 C693 0.930 . S
H714 C694 0.929 . S
H715 C696 0.930 . S
H716 C698 0.932 . S
H717 C699 0.929 . S
H718 C700 0.928 . S
H719 C702 0.932 . S
Tb720 N751 2.660 . S
Tb720 N758 2.600 . S
Tb720 O764 2.546 . S
Tb720 O765 2.628 1_565 S
Tb720 O767 2.320 1_565 S
Tb720 O768 2.552 1_565 S
Tb720 O769 2.413 . S
Tb720 O771 2.362 1_556 S
Tb720 O772 2.421 . S
Tb720 C784 2.833 . S
C721 C724 1.432 . S
C721 C725 1.414 . S
C721 N728 1.359 . S
C722 C724 1.417 . S
C722 C726 1.432 . S
C722 C734 1.410 . S
C723 C725 1.444 . S
C723 C726 1.317 . S
C723 H746 0.929 . S
C724 C721 1.432 . S
C724 C722 1.417 . S
C724 N732 1.360 . S
C725 C721 1.414 . S
C725 C723 1.444 . S
C725 C730 1.385 . S
C726 C722 1.432 . S
C726 C723 1.317 . S
C726 H738 0.930 . S
C727 C729 1.392 . S
C727 C730 1.370 . S
C727 H739 0.931 . S
N728 C721 1.359 . S
N728 C729 1.327 . S
N728 Tb731 2.600 . S
C729 C727 1.392 . S
C729 N728 1.327 . S
C729 H736 0.930 . S
C730 C725 1.385 . S
C730 C727 1.370 . S
C730 H749 0.930 . S
Tb731 N728 2.600 . S
Tb731 N732 2.660 . S
Tb731 O765 2.332 1_554 S
Tb731 O766 2.421 . S
Tb731 O770 2.546 . S
Tb731 O771 2.610 1_545 S
Tb731 O773 2.320 1_545 S
Tb731 O774 2.552 1_545 S
Tb731 O775 2.413 . S
Tb731 C795 2.833 . S
N732 C724 1.360 . S
N732 Tb731 2.660 . S
N732 C733 1.305 . S
C733 N732 1.305 . S
C733 C735 1.407 . S
C733 H740 0.930 . S
C734 C722 1.410 . S
C734 C735 1.345 . S
C734 H742 0.930 . S
C735 C733 1.407 . S
C735 C734 1.345 . S
C735 H737 0.930 . S
H736 C729 0.930 . S
H737 C735 0.930 . S
H738 C726 0.930 . S
H739 C727 0.931 . S
H740 C733 0.930 . S
H741 C755 0.930 . S
H742 C734 0.930 . S
H743 C761 0.930 . S
H744 C752 0.930 . S
H745 C759 0.931 . S
H746 C723 0.929 . S
H747 C753 0.930 . S
H748 C786 0.930 . S
H749 C730 0.930 . S
H750 C785 0.929 . S
N751 Tb720 2.660 . S
N751 C752 1.305 . S
N751 C756 1.360 . S
C752 H744 0.930 . S
C752 N751 1.305 . S
C752 C755 1.407 . S
C753 H747 0.930 . S
C753 C754 1.410 . S
C753 C755 1.345 . S
C754 C753 1.410 . S
C754 C756 1.417 . S
C754 C786 1.432 . S
C755 H741 0.930 . S
C755 C752 1.407 . S
C755 C753 1.345 . S
C756 N751 1.360 . S
C756 C754 1.417 . S
C756 C760 1.432 . S
H757 C762 0.930 . S
N758 Tb720 2.600 . S
N758 C760 1.359 . S
N758 C761 1.327 . S
C759 H745 0.931 . S
C759 C761 1.392 . S
C759 C762 1.370 . S
C760 C756 1.432 . S
C760 N758 1.359 . S
C760 C763 1.414 . S
C761 H743 0.930 . S
C761 N758 1.327 . S
C761 C759 1.392 . S
C762 H757 0.930 . S
C762 C759 1.370 . S
C762 C763 1.385 . S
C763 C760 1.414 . S
C763 C762 1.385 . S
C763 C785 1.444 . S
O764 Tb720 2.546 . S
O764 C784 1.251 . S
O765 Tb720 2.628 1_545 S
O765 Tb731 2.332 1_556 S
O765 C776 1.307 . S
O766 Tb731 2.421 . S
O766 C783 1.262 1_554 S
O767 Tb720 2.320 1_545 S
O767 C783 1.260 . S
O768 Tb720 2.552 1_545 S
O768 C776 1.243 . S
O769 Tb720 2.413 . S
O769 C784 1.256 . S
O770 Tb731 2.546 . S
O770 C795 1.251 . S
O771 Tb720 2.362 1_554 S
O771 Tb731 2.610 1_565 S
O771 C787 1.283 . S
O772 Tb720 2.421 . S
O772 C794 1.262 1_556 S
O773 Tb731 2.320 1_565 S
O773 C794 1.260 . S
O774 Tb731 2.552 1_565 S
O774 C787 1.243 . S
O775 Tb731 2.413 . S
O775 C795 1.256 . S
C776 O765 1.307 . S
C776 O768 1.243 . S
C777 C779 1.382 1_565 S
C777 C781 1.393 . S
C777 C784 1.500 . S
C778 C779 1.400 . S
C778 C780 1.384 1_545 S
C779 C777 1.382 1_545 S
C779 C778 1.400 . S
C779 H796 0.930 . S
C780 C778 1.384 1_565 S
C780 C782 1.392 . S
C780 H797 0.931 . S
C781 C777 1.393 . S
C781 C782 1.401 . S
C781 H798 0.930 . S
C782 C780 1.392 . S
C782 C781 1.401 . S
C782 H799 0.930 . S
C783 O766 1.262 1_556 S
C783 O767 1.260 . S
C784 Tb720 2.833 . S
C784 O764 1.251 . S
C784 O769 1.256 . S
C784 C777 1.500 . S
C785 H750 0.929 . S
C785 C763 1.444 . S
C785 C786 1.317 . S
C786 H748 0.930 . S
C786 C754 1.432 . S
C786 C785 1.317 . S
C787 O771 1.283 . S
C787 O774 1.243 . S
C788 C789 1.382 1_545 S
C788 C792 1.393 . S
C788 C795 1.500 . S
C789 C788 1.382 1_565 S
C789 C790 1.400 . S
C789 H800 0.930 . S
C790 C789 1.400 . S
C790 C791 1.384 1_565 S
C791 C790 1.384 1_545 S
C791 C793 1.392 . S
C791 H801 0.931 . S
C792 C788 1.393 . S
C792 C793 1.401 . S
C792 H802 0.930 . S
C793 C791 1.392 . S
C793 C792 1.401 . S
C793 H803 0.930 . S
C794 O772 1.262 1_554 S
C794 O773 1.260 . S
C795 Tb731 2.833 . S
C795 O770 1.251 . S
C795 O775 1.256 . S
C795 C788 1.500 . S
H796 C779 0.930 . S
H797 C780 0.931 . S
H798 C781 0.930 . S
H799 C782 0.930 . S
H800 C789 0.930 . S
H801 C791 0.931 . S
H802 C792 0.930 . S
H803 C793 0.930 . S
Tb804 N835 2.660 . S
Tb804 N842 2.600 . S
Tb804 O848 2.546 . S
Tb804 O849 2.637 1_455 S
Tb804 O851 2.320 1_455 S
Tb804 O852 2.552 1_455 S
Tb804 O853 2.413 . S
Tb804 O855 2.362 1_556 S
Tb804 O856 2.421 . S
Tb804 C868 2.833 . S
C805 C808 1.432 . S
C805 C809 1.414 . S
C805 N812 1.359 . S
C806 C808 1.417 . S
C806 C810 1.432 . S
C806 C818 1.410 . S
C807 C809 1.444 . S
C807 C810 1.317 . S
C807 H830 0.929 . S
C808 C805 1.432 . S
C808 C806 1.417 . S
C808 N816 1.360 . S
C809 C805 1.414 . S
C809 C807 1.444 . S
C809 C814 1.385 . S
C810 C806 1.432 . S
C810 C807 1.317 . S
C810 H822 0.930 . S
C811 C813 1.392 . S
C811 C814 1.370 . S
C811 H823 0.931 . S
N812 C805 1.359 . S
N812 C813 1.327 . S
N812 Tb815 2.600 . S
C813 C811 1.392 . S
C813 N812 1.327 . S
C813 H820 0.930 . S
C814 C809 1.385 . S
C814 C811 1.370 . S
C814 H833 0.930 . S
Tb815 N812 2.600 . S
Tb815 N816 2.660 . S
Tb815 O849 2.316 1_554 S
Tb815 O850 2.421 . S
Tb815 O854 2.546 . S
Tb815 O855 2.610 1_655 S
Tb815 O857 2.320 1_655 S
Tb815 O858 2.552 1_655 S
Tb815 O859 2.413 . S
Tb815 C879 2.833 . S
N816 C808 1.360 . S
N816 Tb815 2.660 . S
N816 C817 1.305 . S
C817 N816 1.305 . S
C817 C819 1.407 . S
C817 H824 0.930 . S
C818 C806 1.410 . S
C818 C819 1.345 . S
C818 H826 0.930 . S
C819 C817 1.407 . S
C819 C818 1.345 . S
C819 H821 0.930 . S
H820 C813 0.930 . S
H821 C819 0.930 . S
H822 C810 0.930 . S
H823 C811 0.931 . S
H824 C817 0.930 . S
H825 C839 0.930 . S
H826 C818 0.930 . S
H827 C845 0.930 . S
H828 C836 0.930 . S
H829 C843 0.931 . S
H830 C807 0.929 . S
H831 C837 0.930 . S
H832 C870 0.930 . S
H833 C814 0.930 . S
H834 C869 0.929 . S
N835 Tb804 2.660 . S
N835 C836 1.305 . S
N835 C840 1.360 . S
C836 H828 0.930 . S
C836 N835 1.305 . S
C836 C839 1.407 . S
C837 H831 0.930 . S
C837 C838 1.410 . S
C837 C839 1.345 . S
C838 C837 1.410 . S
C838 C840 1.417 . S
C838 C870 1.432 . S
C839 H825 0.930 . S
C839 C836 1.407 . S
C839 C837 1.345 . S
C840 N835 1.360 . S
C840 C838 1.417 . S
C840 C844 1.432 . S
H841 C846 0.930 . S
N842 Tb804 2.600 . S
N842 C844 1.359 . S
N842 C845 1.327 . S
C843 H829 0.931 . S
C843 C845 1.392 . S
C843 C846 1.370 . S
C844 C840 1.432 . S
C844 N842 1.359 . S
C844 C847 1.414 . S
C845 H827 0.930 . S
C845 N842 1.327 . S
C845 C843 1.392 . S
C846 H841 0.930 . S
C846 C843 1.370 . S
C846 C847 1.385 . S
C847 C844 1.414 . S
C847 C846 1.385 . S
C847 C869 1.444 . S
O848 Tb804 2.546 . S
O848 C868 1.251 . S
O849 Tb804 2.637 1_655 S
O849 Tb815 2.316 1_556 S
O849 C860 1.321 . S
O850 Tb815 2.421 . S
O850 C867 1.262 1_554 S
O851 Tb804 2.320 1_655 S
O851 C867 1.260 . S
O852 Tb804 2.552 1_655 S
O852 C860 1.243 . S
O853 Tb804 2.413 . S
O853 C868 1.256 . S
O854 Tb815 2.546 . S
O854 C879 1.251 . S
O855 Tb804 2.362 1_554 S
O855 Tb815 2.610 1_455 S
O855 C871 1.283 . S
O856 Tb804 2.421 . S
O856 C878 1.262 1_556 S
O857 Tb815 2.320 1_455 S
O857 C878 1.260 . S
O858 Tb815 2.552 1_455 S
O858 C871 1.243 . S
O859 Tb815 2.413 . S
O859 C879 1.256 . S
C860 O849 1.321 . S
C860 O852 1.243 . S
C861 C863 1.382 1_455 S
C861 C865 1.393 . S
C861 C868 1.500 . S
C862 C863 1.400 . S
C862 C864 1.384 1_655 S
C863 C861 1.382 1_655 S
C863 C862 1.400 . S
C863 H880 0.930 . S
C864 C862 1.384 1_455 S
C864 C866 1.392 . S
C864 H881 0.931 . S
C865 C861 1.393 . S
C865 C866 1.401 . S
C865 H882 0.930 . S
C866 C864 1.392 . S
C866 C865 1.401 . S
C866 H883 0.930 . S
C867 O850 1.262 1_556 S
C867 O851 1.260 . S
C868 Tb804 2.833 . S
C868 O848 1.251 . S
C868 O853 1.256 . S
C868 C861 1.500 . S
C869 H834 0.929 . S
C869 C847 1.444 . S
C869 C870 1.317 . S
C870 H832 0.930 . S
C870 C838 1.432 . S
C870 C869 1.317 . S
C871 O855 1.283 . S
C871 O858 1.243 . S
C872 C873 1.382 1_655 S
C872 C876 1.393 . S
C872 C879 1.500 . S
C873 C872 1.382 1_455 S
C873 C874 1.400 . S
C873 H884 0.930 . S
C874 C873 1.400 . S
C874 C875 1.384 1_455 S
C875 C874 1.384 1_655 S
C875 C877 1.392 . S
C875 H885 0.931 . S
C876 C872 1.393 . S
C876 C877 1.401 . S
C876 H886 0.930 . S
C877 C875 1.392 . S
C877 C876 1.401 . S
C877 H887 0.930 . S
C878 O856 1.262 1_554 S
C878 O857 1.260 . S
C879 Tb815 2.833 . S
C879 O854 1.251 . S
C879 O859 1.256 . S
C879 C872 1.500 . S
H880 C863 0.930 . S
H881 C864 0.931 . S
H882 C865 0.930 . S
H883 C866 0.930 . S
H884 C873 0.930 . S
H885 C875 0.931 . S
H886 C876 0.930 . S
H887 C877 0.930 . S
Tb888 N919 2.660 . S
Tb888 N926 2.600 . S
Tb888 O932 2.546 . S
Tb888 O933 2.610 . S
Tb888 O935 2.320 . S
Tb888 O936 2.552 . S
Tb888 O937 2.413 . S
Tb888 O939 2.362 1_554 S
Tb888 O940 2.421 . S
Tb888 C952 2.833 . S
C889 C892 1.432 . S
C889 C893 1.414 . S
C889 N896 1.359 . S
C890 C892 1.417 . S
C890 C894 1.432 . S
C890 C902 1.410 . S
C891 C893 1.444 . S
C891 C894 1.317 . S
C891 H914 0.929 . S
C892 C889 1.432 . S
C892 C890 1.417 . S
C892 N900 1.360 . S
C893 C889 1.414 . S
C893 C891 1.444 . S
C893 C898 1.385 . S
C894 C890 1.432 . S
C894 C891 1.317 . S
C894 H906 0.930 . S
C895 C897 1.392 . S
C895 C898 1.370 . S
C895 H907 0.931 . S
N896 C889 1.359 . S
N896 C897 1.327 . S
N896 Tb899 2.600 . S
C897 C895 1.392 . S
C897 N896 1.327 . S
C897 H904 0.930 . S
C898 C893 1.385 . S
C898 C895 1.370 . S
C898 H917 0.930 . S
Tb899 N896 2.600 . S
Tb899 N900 2.660 . S
Tb899 O933 2.362 1_556 S
Tb899 O934 2.421 . S
Tb899 O938 2.546 . S
Tb899 O939 2.610 . S
Tb899 O941 2.320 . S
Tb899 O942 2.552 . S
Tb899 O943 2.413 . S
Tb899 C963 2.833 . S
N900 C892 1.360 . S
N900 Tb899 2.660 . S
N900 C901 1.305 . S
C901 N900 1.305 . S
C901 C903 1.407 . S
C901 H908 0.930 . S
C902 C890 1.410 . S
C902 C903 1.345 . S
C902 H910 0.930 . S
C903 C901 1.407 . S
C903 C902 1.345 . S
C903 H905 0.930 . S
H904 C897 0.930 . S
H905 C903 0.930 . S
H906 C894 0.930 . S
H907 C895 0.931 . S
H908 C901 0.930 . S
H909 C923 0.930 . S
H910 C902 0.930 . S
H911 C929 0.930 . S
H912 C920 0.930 . S
H913 C927 0.931 . S
H914 C891 0.929 . S
H915 C921 0.930 . S
H916 C954 0.930 . S
H917 C898 0.930 . S
H918 C953 0.929 . S
N919 Tb888 2.660 . S
N919 C920 1.305 . S
N919 C924 1.360 . S
C920 H912 0.930 . S
C920 N919 1.305 . S
C920 C923 1.407 . S
C921 H915 0.930 . S
C921 C922 1.410 . S
C921 C923 1.345 . S
C922 C921 1.410 . S
C922 C924 1.417 . S
C922 C954 1.432 . S
C923 H909 0.930 . S
C923 C920 1.407 . S
C923 C921 1.345 . S
C924 N919 1.360 . S
C924 C922 1.417 . S
C924 C928 1.432 . S
H925 C930 0.930 . S
N926 Tb888 2.600 . S
N926 C928 1.359 . S
N926 C929 1.327 . S
C927 H913 0.931 . S
C927 C929 1.392 . S
C927 C930 1.370 . S
C928 C924 1.432 . S
C928 N926 1.359 . S
C928 C931 1.414 . S
C929 H911 0.930 . S
C929 N926 1.327 . S
C929 C927 1.392 . S
C930 H925 0.930 . S
C930 C927 1.370 . S
C930 C931 1.385 . S
C931 C928 1.414 . S
C931 C930 1.385 . S
C931 C953 1.444 . S
O932 Tb888 2.546 . S
O932 C952 1.251 . S
O933 Tb888 2.610 . S
O933 Tb899 2.362 1_554 S
O933 C944 1.283 . S
O934 Tb899 2.421 . S
O934 C951 1.262 1_556 S
O935 Tb888 2.320 . S
O935 C951 1.260 . S
O936 Tb888 2.552 . S
O936 C944 1.243 . S
O937 Tb888 2.413 . S
O937 C952 1.256 . S
O938 Tb899 2.546 . S
O938 C963 1.251 . S
O939 Tb888 2.362 1_556 S
O939 Tb899 2.610 . S
O939 C955 1.283 . S
O940 Tb888 2.421 . S
O940 C962 1.262 1_554 S
O941 Tb899 2.320 . S
O941 C962 1.260 . S
O942 Tb899 2.552 . S
O942 C955 1.243 . S
O943 Tb899 2.413 . S
O943 C963 1.256 . S
C944 O933 1.283 . S
C944 O936 1.243 . S
C945 C947 1.382 . S
C945 C949 1.393 . S
C945 C952 1.500 . S
C946 C947 1.400 . S
C946 C948 1.384 . S
C947 C945 1.382 . S
C947 C946 1.400 . S
C947 H964 0.930 . S
C948 C946 1.384 . S
C948 C950 1.392 . S
C948 H965 0.931 . S
C949 C945 1.393 . S
C949 C950 1.401 . S
C949 H966 0.930 . S
C950 C948 1.392 . S
C950 C949 1.401 . S
C950 H967 0.930 . S
C951 O934 1.262 1_554 S
C951 O935 1.260 . S
C952 Tb888 2.833 . S
C952 O932 1.251 . S
C952 O937 1.256 . S
C952 C945 1.500 . S
C953 H918 0.929 . S
C953 C931 1.444 . S
C953 C954 1.317 . S
C954 H916 0.930 . S
C954 C922 1.432 . S
C954 C953 1.317 . S
C955 O939 1.283 . S
C955 O942 1.243 . S
C956 C957 1.382 . S
C956 C960 1.393 . S
C956 C963 1.500 . S
C957 C956 1.382 . S
C957 C958 1.400 . S
C957 H968 0.930 . S
C958 C957 1.400 . S
C958 C959 1.384 . S
C959 C958 1.384 . S
C959 C961 1.392 . S
C959 H969 0.931 . S
C960 C956 1.393 . S
C960 C961 1.401 . S
C960 H970 0.930 . S
C961 C959 1.392 . S
C961 C960 1.401 . S
C961 H971 0.930 . S
C962 O940 1.262 1_556 S
C962 O941 1.260 . S
C963 Tb899 2.833 . S
C963 O938 1.251 . S
C963 O943 1.256 . S
C963 C956 1.500 . S
H964 C947 0.930 . S
H965 C948 0.931 . S
H966 C949 0.930 . S
H967 C950 0.930 . S
H968 C957 0.930 . S
H969 C959 0.931 . S
H970 C960 0.930 . S
H971 C961 0.930 . S
Tb972 N1003 2.660 . S
Tb972 N1010 2.600 . S
Tb972 O1016 2.546 . S
Tb972 O1017 2.610 . S
Tb972 O1019 2.320 . S
Tb972 O1020 2.552 . S
Tb972 O1021 2.413 . S
Tb972 O1023 2.362 . S
Tb972 O1024 2.421 . S
Tb972 C1036 2.833 . S
C973 C976 1.432 . S
C973 C977 1.414 . S
C973 N980 1.359 . S
C974 C976 1.417 . S
C974 C978 1.432 . S
C974 C986 1.410 . S
C975 C977 1.444 . S
C975 C978 1.317 . S
C975 H998 0.929 . S
C976 C973 1.432 . S
C976 C974 1.417 . S
C976 N984 1.360 . S
C977 C973 1.414 . S
C977 C975 1.444 . S
C977 C982 1.385 . S
C978 C974 1.432 . S
C978 C975 1.317 . S
C978 H990 0.930 . S
C979 C981 1.392 . S
C979 C982 1.370 . S
C979 H991 0.931 . S
N980 C973 1.359 . S
N980 C981 1.327 . S
N980 Tb983 2.600 . S
C981 C979 1.392 . S
C981 N980 1.327 . S
C981 H988 0.930 . S
C982 C977 1.385 . S
C982 C979 1.370 . S
C982 H1001 0.930 . S
Tb983 N980 2.600 . S
Tb983 N984 2.660 . S
Tb983 O1017 2.362 . S
Tb983 O1018 2.421 . S
Tb983 O1022 2.546 . S
Tb983 O1023 2.610 . S
Tb983 O1025 2.320 . S
Tb983 O1026 2.552 . S
Tb983 O1027 2.413 . S
Tb983 C1047 2.833 . S
N984 C976 1.360 . S
N984 Tb983 2.660 . S
N984 C985 1.305 . S
C985 N984 1.305 . S
C985 C987 1.407 . S
C985 H992 0.930 . S
C986 C974 1.410 . S
C986 C987 1.345 . S
C986 H994 0.930 . S
C987 C985 1.407 . S
C987 C986 1.345 . S
C987 H989 0.930 . S
H988 C981 0.930 . S
H989 C987 0.930 . S
H990 C978 0.930 . S
H991 C979 0.931 . S
H992 C985 0.930 . S
H993 C1007 0.930 . S
H994 C986 0.930 . S
H995 C1013 0.930 . S
H996 C1004 0.930 . S
H997 C1011 0.931 . S
H998 C975 0.929 . S
H999 C1005 0.930 . S
H1000 C1038 0.930 . S
H1001 C982 0.930 . S
H1002 C1037 0.929 . S
N1003 Tb972 2.660 . S
N1003 C1004 1.305 . S
N1003 C1008 1.360 . S
C1004 H996 0.930 . S
C1004 N1003 1.305 . S
C1004 C1007 1.407 . S
C1005 H999 0.930 . S
C1005 C1006 1.410 . S
C1005 C1007 1.345 . S
C1006 C1005 1.410 . S
C1006 C1008 1.417 . S
C1006 C1038 1.432 . S
C1007 H993 0.930 . S
C1007 C1004 1.407 . S
C1007 C1005 1.345 . S
C1008 N1003 1.360 . S
C1008 C1006 1.417 . S
C1008 C1012 1.432 . S
H1009 C1014 0.930 . S
N1010 Tb972 2.600 . S
N1010 C1012 1.359 . S
N1010 C1013 1.327 . S
C1011 H997 0.931 . S
C1011 C1013 1.392 . S
C1011 C1014 1.370 . S
C1012 C1008 1.432 . S
C1012 N1010 1.359 . S
C1012 C1015 1.414 . S
C1013 H995 0.930 . S
C1013 N1010 1.327 . S
C1013 C1011 1.392 . S
C1014 H1009 0.930 . S
C1014 C1011 1.370 . S
C1014 C1015 1.385 . S
C1015 C1012 1.414 . S
C1015 C1014 1.385 . S
C1015 C1037 1.444 . S
O1016 Tb972 2.546 . S
O1016 C1036 1.251 . S
O1017 Tb972 2.610 . S
O1017 Tb983 2.362 . S
O1017 C1028 1.283 . S
O1018 Tb983 2.421 . S
O1018 C1035 1.262 . S
O1019 Tb972 2.320 . S
O1019 C1035 1.260 . S
O1020 Tb972 2.552 . S
O1020 C1028 1.243 . S
O1021 Tb972 2.413 . S
O1021 C1036 1.256 . S
O1022 Tb983 2.546 . S
O1022 C1047 1.251 . S
O1023 Tb972 2.362 . S
O1023 Tb983 2.610 . S
O1023 C1039 1.283 . S
O1024 Tb972 2.421 . S
O1024 C1046 1.262 . S
O1025 Tb983 2.320 . S
O1025 C1046 1.260 . S
O1026 Tb983 2.552 . S
O1026 C1039 1.243 . S
O1027 Tb983 2.413 . S
O1027 C1047 1.256 . S
C1028 O1017 1.283 . S
C1028 O1020 1.243 . S
C1029 C1031 1.382 . S
C1029 C1033 1.393 . S
C1029 C1036 1.500 . S
C1030 C1031 1.400 . S
C1030 C1032 1.384 . S
C1031 C1029 1.382 . S
C1031 C1030 1.400 . S
C1031 H1048 0.930 . S
C1032 C1030 1.384 . S
C1032 C1034 1.392 . S
C1032 H1049 0.931 . S
C1033 C1029 1.393 . S
C1033 C1034 1.401 . S
C1033 H1050 0.930 . S
C1034 C1032 1.392 . S
C1034 C1033 1.401 . S
C1034 H1051 0.930 . S
C1035 O1018 1.262 . S
C1035 O1019 1.260 . S
C1036 Tb972 2.833 . S
C1036 O1016 1.251 . S
C1036 O1021 1.256 . S
C1036 C1029 1.500 . S
C1037 H1002 0.929 . S
C1037 C1015 1.444 . S
C1037 C1038 1.317 . S
C1038 H1000 0.930 . S
C1038 C1006 1.432 . S
C1038 C1037 1.317 . S
C1039 O1023 1.283 . S
C1039 O1026 1.243 . S
C1040 C1041 1.382 . S
C1040 C1044 1.393 . S
C1040 C1047 1.500 . S
C1041 C1040 1.382 . S
C1041 C1042 1.400 . S
C1041 H1052 0.930 . S
C1042 C1041 1.400 . S
C1042 C1043 1.384 . S
C1043 C1042 1.384 . S
C1043 C1045 1.392 . S
C1043 H1053 0.931 . S
C1044 C1040 1.393 . S
C1044 C1045 1.401 . S
C1044 H1054 0.930 . S
C1045 C1043 1.392 . S
C1045 C1044 1.401 . S
C1045 H1055 0.930 . S
C1046 O1024 1.262 . S
C1046 O1025 1.260 . S
C1047 Tb983 2.833 . S
C1047 O1022 1.251 . S
C1047 O1027 1.256 . S
C1047 C1040 1.500 . S
H1048 C1031 0.930 . S
H1049 C1032 0.931 . S
H1050 C1033 0.930 . S
H1051 C1034 0.930 . S
H1052 C1041 0.930 . S
H1053 C1043 0.931 . S
H1054 C1044 0.930 . S
H1055 C1045 0.930 . S
Tb1056 N1087 2.660 . S
Tb1056 N1094 2.600 . S
Tb1056 O1100 2.546 . S
Tb1056 O1101 2.610 . S
Tb1056 O1103 2.320 . S
Tb1056 O1104 2.552 . S
Tb1056 O1105 2.413 . S
Tb1056 O1107 2.362 . S
Tb1056 O1108 2.421 . S
Tb1056 C1120 2.833 . S
C1057 C1060 1.432 . S
C1057 C1061 1.414 . S
C1057 N1064 1.359 . S
C1058 C1060 1.417 . S
C1058 C1062 1.432 . S
C1058 C1070 1.410 . S
C1059 C1061 1.444 . S
C1059 C1062 1.317 . S
C1059 H1082 0.929 . S
C1060 C1057 1.432 . S
C1060 C1058 1.417 . S
C1060 N1068 1.360 . S
C1061 C1057 1.414 . S
C1061 C1059 1.444 . S
C1061 C1066 1.385 . S
C1062 C1058 1.432 . S
C1062 C1059 1.317 . S
C1062 H1074 0.930 . S
C1063 C1065 1.392 . S
C1063 C1066 1.370 . S
C1063 H1075 0.931 . S
N1064 C1057 1.359 . S
N1064 C1065 1.327 . S
N1064 Tb1067 2.600 . S
C1065 C1063 1.392 . S
C1065 N1064 1.327 . S
C1065 H1072 0.930 . S
C1066 C1061 1.385 . S
C1066 C1063 1.370 . S
C1066 H1085 0.930 . S
Tb1067 N1064 2.600 . S
Tb1067 N1068 2.660 . S
Tb1067 O1101 2.362 . S
Tb1067 O1102 2.421 . S
Tb1067 O1106 2.546 . S
Tb1067 O1107 2.610 . S
Tb1067 O1109 2.320 . S
Tb1067 O1110 2.552 . S
Tb1067 O1111 2.413 . S
Tb1067 C1131 2.833 . S
N1068 C1060 1.360 . S
N1068 Tb1067 2.660 . S
N1068 C1069 1.305 . S
C1069 N1068 1.305 . S
C1069 C1071 1.407 . S
C1069 H1076 0.930 . S
C1070 C1058 1.410 . S
C1070 C1071 1.345 . S
C1070 H1078 0.930 . S
C1071 C1069 1.407 . S
C1071 C1070 1.345 . S
C1071 H1073 0.930 . S
H1072 C1065 0.930 . S
H1073 C1071 0.930 . S
H1074 C1062 0.930 . S
H1075 C1063 0.931 . S
H1076 C1069 0.930 . S
H1077 C1091 0.930 . S
H1078 C1070 0.930 . S
H1079 C1097 0.930 . S
H1080 C1088 0.930 . S
H1081 C1095 0.931 . S
H1082 C1059 0.929 . S
H1083 C1089 0.930 . S
H1084 C1122 0.930 . S
H1085 C1066 0.930 . S
H1086 C1121 0.929 . S
N1087 Tb1056 2.660 . S
N1087 C1088 1.305 . S
N1087 C1092 1.360 . S
C1088 H1080 0.930 . S
C1088 N1087 1.305 . S
C1088 C1091 1.407 . S
C1089 H1083 0.930 . S
C1089 C1090 1.410 . S
C1089 C1091 1.345 . S
C1090 C1089 1.410 . S
C1090 C1092 1.417 . S
C1090 C1122 1.432 . S
C1091 H1077 0.930 . S
C1091 C1088 1.407 . S
C1091 C1089 1.345 . S
C1092 N1087 1.360 . S
C1092 C1090 1.417 . S
C1092 C1096 1.432 . S
H1093 C1098 0.930 . S
N1094 Tb1056 2.600 . S
N1094 C1096 1.359 . S
N1094 C1097 1.327 . S
C1095 H1081 0.931 . S
C1095 C1097 1.392 . S
C1095 C1098 1.370 . S
C1096 C1092 1.432 . S
C1096 N1094 1.359 . S
C1096 C1099 1.414 . S
C1097 H1079 0.930 . S
C1097 N1094 1.327 . S
C1097 C1095 1.392 . S
C1098 H1093 0.930 . S
C1098 C1095 1.370 . S
C1098 C1099 1.385 . S
C1099 C1096 1.414 . S
C1099 C1098 1.385 . S
C1099 C1121 1.444 . S
O1100 Tb1056 2.546 . S
O1100 C1120 1.251 . S
O1101 Tb1056 2.610 . S
O1101 Tb1067 2.362 . S
O1101 C1112 1.283 . S
O1102 Tb1067 2.421 . S
O1102 C1119 1.262 . S
O1103 Tb1056 2.320 . S
O1103 C1119 1.260 . S
O1104 Tb1056 2.552 . S
O1104 C1112 1.243 . S
O1105 Tb1056 2.413 . S
O1105 C1120 1.256 . S
O1106 Tb1067 2.546 . S
O1106 C1131 1.251 . S
O1107 Tb1056 2.362 . S
O1107 Tb1067 2.610 . S
O1107 C1123 1.283 . S
O1108 Tb1056 2.421 . S
O1108 C1130 1.262 . S
O1109 Tb1067 2.320 . S
O1109 C1130 1.260 . S
O1110 Tb1067 2.552 . S
O1110 C1123 1.243 . S
O1111 Tb1067 2.413 . S
O1111 C1131 1.256 . S
C1112 O1101 1.283 . S
C1112 O1104 1.243 . S
C1113 C1115 1.382 . S
C1113 C1117 1.393 . S
C1113 C1120 1.500 . S
C1114 C1115 1.400 . S
C1114 C1116 1.384 . S
C1115 C1113 1.382 . S
C1115 C1114 1.400 . S
C1115 H1132 0.930 . S
C1116 C1114 1.384 . S
C1116 C1118 1.392 . S
C1116 H1133 0.931 . S
C1117 C1113 1.393 . S
C1117 C1118 1.401 . S
C1117 H1134 0.930 . S
C1118 C1116 1.392 . S
C1118 C1117 1.401 . S
C1118 H1135 0.930 . S
C1119 O1102 1.262 . S
C1119 O1103 1.260 . S
C1120 Tb1056 2.833 . S
C1120 O1100 1.251 . S
C1120 O1105 1.256 . S
C1120 C1113 1.500 . S
C1121 H1086 0.929 . S
C1121 C1099 1.444 . S
C1121 C1122 1.317 . S
C1122 H1084 0.930 . S
C1122 C1090 1.432 . S
C1122 C1121 1.317 . S
C1123 O1107 1.283 . S
C1123 O1110 1.243 . S
C1124 C1125 1.382 . S
C1124 C1128 1.393 . S
C1124 C1131 1.500 . S
C1125 C1124 1.382 . S
C1125 C1126 1.400 . S
C1125 H1136 0.930 . S
C1126 C1125 1.400 . S
C1126 C1127 1.384 . S
C1127 C1126 1.384 . S
C1127 C1129 1.392 . S
C1127 H1137 0.931 . S
C1128 C1124 1.393 . S
C1128 C1129 1.401 . S
C1128 H1138 0.930 . S
C1129 C1127 1.392 . S
C1129 C1128 1.401 . S
C1129 H1139 0.930 . S
C1130 O1108 1.262 . S
C1130 O1109 1.260 . S
C1131 Tb1067 2.833 . S
C1131 O1106 1.251 . S
C1131 O1111 1.256 . S
C1131 C1124 1.500 . S
H1132 C1115 0.930 . S
H1133 C1116 0.931 . S
H1134 C1117 0.930 . S
H1135 C1118 0.930 . S
H1136 C1125 0.930 . S
H1137 C1127 0.931 . S
H1138 C1128 0.930 . S
H1139 C1129 0.930 . S
Tb1140 N1171 2.660 . S
Tb1140 N1178 2.600 . S
Tb1140 O1184 2.546 . S
Tb1140 O1185 2.610 . S
Tb1140 O1187 2.320 . S
Tb1140 O1188 2.552 . S
Tb1140 O1189 2.413 . S
Tb1140 O1191 2.362 . S
Tb1140 O1192 2.421 . S
Tb1140 C1204 2.833 . S
C1141 C1144 1.432 . S
C1141 C1145 1.414 . S
C1141 N1148 1.359 . S
C1142 C1144 1.417 . S
C1142 C1146 1.432 . S
C1142 C1154 1.410 . S
C1143 C1145 1.444 . S
C1143 C1146 1.317 . S
C1143 H1166 0.929 . S
C1144 C1141 1.432 . S
C1144 C1142 1.417 . S
C1144 N1152 1.360 . S
C1145 C1141 1.414 . S
C1145 C1143 1.444 . S
C1145 C1150 1.385 . S
C1146 C1142 1.432 . S
C1146 C1143 1.317 . S
C1146 H1158 0.930 . S
C1147 C1149 1.392 . S
C1147 C1150 1.370 . S
C1147 H1159 0.931 . S
N1148 C1141 1.359 . S
N1148 C1149 1.327 . S
N1148 Tb1151 2.600 . S
C1149 C1147 1.392 . S
C1149 N1148 1.327 . S
C1149 H1156 0.930 . S
C1150 C1145 1.385 . S
C1150 C1147 1.370 . S
C1150 H1169 0.930 . S
Tb1151 N1148 2.600 . S
Tb1151 N1152 2.660 . S
Tb1151 O1185 2.362 . S
Tb1151 O1186 2.421 . S
Tb1151 O1190 2.546 . S
Tb1151 O1191 2.610 . S
Tb1151 O1193 2.320 . S
Tb1151 O1194 2.552 . S
Tb1151 O1195 2.413 . S
Tb1151 C1215 2.833 . S
N1152 C1144 1.360 . S
N1152 Tb1151 2.660 . S
N1152 C1153 1.305 . S
C1153 N1152 1.305 . S
C1153 C1155 1.407 . S
C1153 H1160 0.930 . S
C1154 C1142 1.410 . S
C1154 C1155 1.345 . S
C1154 H1162 0.930 . S
C1155 C1153 1.407 . S
C1155 C1154 1.345 . S
C1155 H1157 0.930 . S
H1156 C1149 0.930 . S
H1157 C1155 0.930 . S
H1158 C1146 0.930 . S
H1159 C1147 0.931 . S
H1160 C1153 0.930 . S
H1161 C1175 0.930 . S
H1162 C1154 0.930 . S
H1163 C1181 0.930 . S
H1164 C1172 0.930 . S
H1165 C1179 0.931 . S
H1166 C1143 0.929 . S
H1167 C1173 0.930 . S
H1168 C1206 0.930 . S
H1169 C1150 0.930 . S
H1170 C1205 0.929 . S
N1171 Tb1140 2.660 . S
N1171 C1172 1.305 . S
N1171 C1176 1.360 . S
C1172 H1164 0.930 . S
C1172 N1171 1.305 . S
C1172 C1175 1.407 . S
C1173 H1167 0.930 . S
C1173 C1174 1.410 . S
C1173 C1175 1.345 . S
C1174 C1173 1.410 . S
C1174 C1176 1.417 . S
C1174 C1206 1.432 . S
C1175 H1161 0.930 . S
C1175 C1172 1.407 . S
C1175 C1173 1.345 . S
C1176 N1171 1.360 . S
C1176 C1174 1.417 . S
C1176 C1180 1.432 . S
H1177 C1182 0.930 . S
N1178 Tb1140 2.600 . S
N1178 C1180 1.359 . S
N1178 C1181 1.327 . S
C1179 H1165 0.931 . S
C1179 C1181 1.392 . S
C1179 C1182 1.370 . S
C1180 C1176 1.432 . S
C1180 N1178 1.359 . S
C1180 C1183 1.414 . S
C1181 H1163 0.930 . S
C1181 N1178 1.327 . S
C1181 C1179 1.392 . S
C1182 H1177 0.930 . S
C1182 C1179 1.370 . S
C1182 C1183 1.385 . S
C1183 C1180 1.414 . S
C1183 C1182 1.385 . S
C1183 C1205 1.444 . S
O1184 Tb1140 2.546 . S
O1184 C1204 1.251 . S
O1185 Tb1140 2.610 . S
O1185 Tb1151 2.362 . S
O1185 C1196 1.283 . S
O1186 Tb1151 2.421 . S
O1186 C1203 1.262 . S
O1187 Tb1140 2.320 . S
O1187 C1203 1.260 . S
O1188 Tb1140 2.552 . S
O1188 C1196 1.243 . S
O1189 Tb1140 2.413 . S
O1189 C1204 1.256 . S
O1190 Tb1151 2.546 . S
O1190 C1215 1.251 . S
O1191 Tb1140 2.362 . S
O1191 Tb1151 2.610 . S
O1191 C1207 1.283 . S
O1192 Tb1140 2.421 . S
O1192 C1214 1.262 . S
O1193 Tb1151 2.320 . S
O1193 C1214 1.260 . S
O1194 Tb1151 2.552 . S
O1194 C1207 1.243 . S
O1195 Tb1151 2.413 . S
O1195 C1215 1.256 . S
C1196 O1185 1.283 . S
C1196 O1188 1.243 . S
C1197 C1199 1.382 . S
C1197 C1201 1.393 . S
C1197 C1204 1.500 . S
C1198 C1199 1.400 . S
C1198 C1200 1.384 . S
C1199 C1197 1.382 . S
C1199 C1198 1.400 . S
C1199 H1216 0.930 . S
C1200 C1198 1.384 . S
C1200 C1202 1.392 . S
C1200 H1217 0.931 . S
C1201 C1197 1.393 . S
C1201 C1202 1.401 . S
C1201 H1218 0.930 . S
C1202 C1200 1.392 . S
C1202 C1201 1.401 . S
C1202 H1219 0.930 . S
C1203 O1186 1.262 . S
C1203 O1187 1.260 . S
C1204 Tb1140 2.833 . S
C1204 O1184 1.251 . S
C1204 O1189 1.256 . S
C1204 C1197 1.500 . S
C1205 H1170 0.929 . S
C1205 C1183 1.444 . S
C1205 C1206 1.317 . S
C1206 H1168 0.930 . S
C1206 C1174 1.432 . S
C1206 C1205 1.317 . S
C1207 O1191 1.283 . S
C1207 O1194 1.243 . S
C1208 C1209 1.382 . S
C1208 C1212 1.393 . S
C1208 C1215 1.500 . S
C1209 C1208 1.382 . S
C1209 C1210 1.400 . S
C1209 H1220 0.930 . S
C1210 C1209 1.400 . S
C1210 C1211 1.384 . S
C1211 C1210 1.384 . S
C1211 C1213 1.392 . S
C1211 H1221 0.931 . S
C1212 C1208 1.393 . S
C1212 C1213 1.401 . S
C1212 H1222 0.930 . S
C1213 C1211 1.392 . S
C1213 C1212 1.401 . S
C1213 H1223 0.930 . S
C1214 O1192 1.262 . S
C1214 O1193 1.260 . S
C1215 Tb1151 2.833 . S
C1215 O1190 1.251 . S
C1215 O1195 1.256 . S
C1215 C1208 1.500 . S
H1216 C1199 0.930 . S
H1217 C1200 0.931 . S
H1218 C1201 0.930 . S
H1219 C1202 0.930 . S
H1220 C1209 0.930 . S
H1221 C1211 0.931 . S
H1222 C1212 0.930 . S
H1223 C1213 0.930 . S
Tb1224 N1255 2.660 . S
Tb1224 N1262 2.600 . S
Tb1224 O1268 2.546 . S
Tb1224 O1269 2.610 . S
Tb1224 O1271 2.320 . S
Tb1224 O1272 2.552 . S
Tb1224 O1273 2.413 . S
Tb1224 O1275 2.362 . S
Tb1224 O1276 2.421 . S
Tb1224 C1288 2.833 . S
C1225 C1228 1.432 . S
C1225 C1229 1.414 . S
C1225 N1232 1.359 . S
C1226 C1228 1.417 . S
C1226 C1230 1.432 . S
C1226 C1238 1.410 . S
C1227 C1229 1.444 . S
C1227 C1230 1.317 . S
C1227 H1250 0.929 . S
C1228 C1225 1.432 . S
C1228 C1226 1.417 . S
C1228 N1236 1.360 . S
C1229 C1225 1.414 . S
C1229 C1227 1.444 . S
C1229 C1234 1.385 . S
C1230 C1226 1.432 . S
C1230 C1227 1.317 . S
C1230 H1242 0.930 . S
C1231 C1233 1.392 . S
C1231 C1234 1.370 . S
C1231 H1243 0.931 . S
N1232 C1225 1.359 . S
N1232 C1233 1.327 . S
N1232 Tb1235 2.600 . S
C1233 C1231 1.392 . S
C1233 N1232 1.327 . S
C1233 H1240 0.930 . S
C1234 C1229 1.385 . S
C1234 C1231 1.370 . S
C1234 H1253 0.930 . S
Tb1235 N1232 2.600 . S
Tb1235 N1236 2.660 . S
Tb1235 O1269 2.362 . S
Tb1235 O1270 2.421 . S
Tb1235 O1274 2.546 . S
Tb1235 O1275 2.610 . S
Tb1235 O1277 2.320 . S
Tb1235 O1278 2.552 . S
Tb1235 O1279 2.413 . S
Tb1235 C1299 2.833 . S
N1236 C1228 1.360 . S
N1236 Tb1235 2.660 . S
N1236 C1237 1.305 . S
C1237 N1236 1.305 . S
C1237 C1239 1.407 . S
C1237 H1244 0.930 . S
C1238 C1226 1.410 . S
C1238 C1239 1.345 . S
C1238 H1246 0.930 . S
C1239 C1237 1.407 . S
C1239 C1238 1.345 . S
C1239 H1241 0.930 . S
H1240 C1233 0.930 . S
H1241 C1239 0.930 . S
H1242 C1230 0.930 . S
H1243 C1231 0.931 . S
H1244 C1237 0.930 . S
H1245 C1259 0.930 . S
H1246 C1238 0.930 . S
H1247 C1265 0.930 . S
H1248 C1256 0.930 . S
H1249 C1263 0.931 . S
H1250 C1227 0.929 . S
H1251 C1257 0.930 . S
H1252 C1290 0.930 . S
H1253 C1234 0.930 . S
H1254 C1289 0.929 . S
N1255 Tb1224 2.660 . S
N1255 C1256 1.305 . S
N1255 C1260 1.360 . S
C1256 H1248 0.930 . S
C1256 N1255 1.305 . S
C1256 C1259 1.407 . S
C1257 H1251 0.930 . S
C1257 C1258 1.410 . S
C1257 C1259 1.345 . S
C1258 C1257 1.410 . S
C1258 C1260 1.417 . S
C1258 C1290 1.432 . S
C1259 H1245 0.930 . S
C1259 C1256 1.407 . S
C1259 C1257 1.345 . S
C1260 N1255 1.360 . S
C1260 C1258 1.417 . S
C1260 C1264 1.432 . S
H1261 C1266 0.930 . S
N1262 Tb1224 2.600 . S
N1262 C1264 1.359 . S
N1262 C1265 1.327 . S
C1263 H1249 0.931 . S
C1263 C1265 1.392 . S
C1263 C1266 1.370 . S
C1264 C1260 1.432 . S
C1264 N1262 1.359 . S
C1264 C1267 1.414 . S
C1265 H1247 0.930 . S
C1265 N1262 1.327 . S
C1265 C1263 1.392 . S
C1266 H1261 0.930 . S
C1266 C1263 1.370 . S
C1266 C1267 1.385 . S
C1267 C1264 1.414 . S
C1267 C1266 1.385 . S
C1267 C1289 1.444 . S
O1268 Tb1224 2.546 . S
O1268 C1288 1.251 . S
O1269 Tb1224 2.610 . S
O1269 Tb1235 2.362 . S
O1269 C1280 1.283 . S
O1270 Tb1235 2.421 . S
O1270 C1287 1.262 . S
O1271 Tb1224 2.320 . S
O1271 C1287 1.260 . S
O1272 Tb1224 2.552 . S
O1272 C1280 1.243 . S
O1273 Tb1224 2.413 . S
O1273 C1288 1.256 . S
O1274 Tb1235 2.546 . S
O1274 C1299 1.251 . S
O1275 Tb1224 2.362 . S
O1275 Tb1235 2.610 . S
O1275 C1291 1.283 . S
O1276 Tb1224 2.421 . S
O1276 C1298 1.262 . S
O1277 Tb1235 2.320 . S
O1277 C1298 1.260 . S
O1278 Tb1235 2.552 . S
O1278 C1291 1.243 . S
O1279 Tb1235 2.413 . S
O1279 C1299 1.256 . S
C1280 O1269 1.283 . S
C1280 O1272 1.243 . S
C1281 C1283 1.382 . S
C1281 C1285 1.393 . S
C1281 C1288 1.500 . S
C1282 C1283 1.400 . S
C1282 C1284 1.384 . S
C1283 C1281 1.382 . S
C1283 C1282 1.400 . S
C1283 H1300 0.930 . S
C1284 C1282 1.384 . S
C1284 C1286 1.392 . S
C1284 H1301 0.931 . S
C1285 C1281 1.393 . S
C1285 C1286 1.401 . S
C1285 H1302 0.930 . S
C1286 C1284 1.392 . S
C1286 C1285 1.401 . S
C1286 H1303 0.930 . S
C1287 O1270 1.262 . S
C1287 O1271 1.260 . S
C1288 Tb1224 2.833 . S
C1288 O1268 1.251 . S
C1288 O1273 1.256 . S
C1288 C1281 1.500 . S
C1289 H1254 0.929 . S
C1289 C1267 1.444 . S
C1289 C1290 1.317 . S
C1290 H1252 0.930 . S
C1290 C1258 1.432 . S
C1290 C1289 1.317 . S
C1291 O1275 1.283 . S
C1291 O1278 1.243 . S
C1292 C1293 1.382 . S
C1292 C1296 1.393 . S
C1292 C1299 1.500 . S
C1293 C1292 1.382 . S
C1293 C1294 1.400 . S
C1293 H1304 0.930 . S
C1294 C1293 1.400 . S
C1294 C1295 1.384 . S
C1295 C1294 1.384 . S
C1295 C1297 1.392 . S
C1295 H1305 0.931 . S
C1296 C1292 1.393 . S
C1296 C1297 1.401 . S
C1296 H1306 0.930 . S
C1297 C1295 1.392 . S
C1297 C1296 1.401 . S
C1297 H1307 0.930 . S
C1298 O1276 1.262 . S
C1298 O1277 1.260 . S
C1299 Tb1235 2.833 . S
C1299 O1274 1.251 . S
C1299 O1279 1.256 . S
C1299 C1292 1.500 . S
H1300 C1283 0.930 . S
H1301 C1284 0.931 . S
H1302 C1285 0.930 . S
H1303 C1286 0.930 . S
H1304 C1293 0.930 . S
H1305 C1295 0.931 . S
H1306 C1296 0.930 . S
H1307 C1297 0.930 . S
Tb1308 N1339 2.660 . S
Tb1308 N1346 2.600 . S
Tb1308 O1352 2.546 . S
Tb1308 O1353 2.610 . S
Tb1308 O1355 2.320 . S
Tb1308 O1356 2.552 . S
Tb1308 O1357 2.413 . S
Tb1308 O1359 2.362 . S
Tb1308 O1360 2.421 . S
Tb1308 C1372 2.833 . S
C1309 C1312 1.432 . S
C1309 C1313 1.414 . S
C1309 N1316 1.359 . S
C1310 C1312 1.417 . S
C1310 C1314 1.432 . S
C1310 C1322 1.410 . S
C1311 C1313 1.444 . S
C1311 C1314 1.317 . S
C1311 H1334 0.929 . S
C1312 C1309 1.432 . S
C1312 C1310 1.417 . S
C1312 N1320 1.360 . S
C1313 C1309 1.414 . S
C1313 C1311 1.444 . S
C1313 C1318 1.385 . S
C1314 C1310 1.432 . S
C1314 C1311 1.317 . S
C1314 H1326 0.930 . S
C1315 C1317 1.392 . S
C1315 C1318 1.370 . S
C1315 H1327 0.931 . S
N1316 C1309 1.359 . S
N1316 C1317 1.327 . S
N1316 Tb1319 2.600 . S
C1317 C1315 1.392 . S
C1317 N1316 1.327 . S
C1317 H1324 0.930 . S
C1318 C1313 1.385 . S
C1318 C1315 1.370 . S
C1318 H1337 0.930 . S
Tb1319 N1316 2.600 . S
Tb1319 N1320 2.660 . S
Tb1319 O1353 2.362 . S
Tb1319 O1354 2.421 . S
Tb1319 O1358 2.546 . S
Tb1319 O1359 2.610 . S
Tb1319 O1361 2.320 . S
Tb1319 O1362 2.552 . S
Tb1319 O1363 2.413 . S
Tb1319 C1383 2.833 . S
N1320 C1312 1.360 . S
N1320 Tb1319 2.660 . S
N1320 C1321 1.305 . S
C1321 N1320 1.305 . S
C1321 C1323 1.407 . S
C1321 H1328 0.930 . S
C1322 C1310 1.410 . S
C1322 C1323 1.345 . S
C1322 H1330 0.930 . S
C1323 C1321 1.407 . S
C1323 C1322 1.345 . S
C1323 H1325 0.930 . S
H1324 C1317 0.930 . S
H1325 C1323 0.930 . S
H1326 C1314 0.930 . S
H1327 C1315 0.931 . S
H1328 C1321 0.930 . S
H1329 C1343 0.930 . S
H1330 C1322 0.930 . S
H1331 C1349 0.930 . S
H1332 C1340 0.930 . S
H1333 C1347 0.931 . S
H1334 C1311 0.929 . S
H1335 C1341 0.930 . S
H1336 C1374 0.930 . S
H1337 C1318 0.930 . S
H1338 C1373 0.929 . S
N1339 Tb1308 2.660 . S
N1339 C1340 1.305 . S
N1339 C1344 1.360 . S
C1340 H1332 0.930 . S
C1340 N1339 1.305 . S
C1340 C1343 1.407 . S
C1341 H1335 0.930 . S
C1341 C1342 1.410 . S
C1341 C1343 1.345 . S
C1342 C1341 1.410 . S
C1342 C1344 1.417 . S
C1342 C1374 1.432 . S
C1343 H1329 0.930 . S
C1343 C1340 1.407 . S
C1343 C1341 1.345 . S
C1344 N1339 1.360 . S
C1344 C1342 1.417 . S
C1344 C1348 1.432 . S
H1345 C1350 0.930 . S
N1346 Tb1308 2.600 . S
N1346 C1348 1.359 . S
N1346 C1349 1.327 . S
C1347 H1333 0.931 . S
C1347 C1349 1.392 . S
C1347 C1350 1.370 . S
C1348 C1344 1.432 . S
C1348 N1346 1.359 . S
C1348 C1351 1.414 . S
C1349 H1331 0.930 . S
C1349 N1346 1.327 . S
C1349 C1347 1.392 . S
C1350 H1345 0.930 . S
C1350 C1347 1.370 . S
C1350 C1351 1.385 . S
C1351 C1348 1.414 . S
C1351 C1350 1.385 . S
C1351 C1373 1.444 . S
O1352 Tb1308 2.546 . S
O1352 C1372 1.251 . S
O1353 Tb1308 2.610 . S
O1353 Tb1319 2.362 . S
O1353 C1364 1.283 . S
O1354 Tb1319 2.421 . S
O1354 C1371 1.262 . S
O1355 Tb1308 2.320 . S
O1355 C1371 1.260 . S
O1356 Tb1308 2.552 . S
O1356 C1364 1.243 . S
O1357 Tb1308 2.413 . S
O1357 C1372 1.256 . S
O1358 Tb1319 2.546 . S
O1358 C1383 1.251 . S
O1359 Tb1308 2.362 . S
O1359 Tb1319 2.610 . S
O1359 C1375 1.283 . S
O1360 Tb1308 2.421 . S
O1360 C1382 1.262 . S
O1361 Tb1319 2.320 . S
O1361 C1382 1.260 . S
O1362 Tb1319 2.552 . S
O1362 C1375 1.243 . S
O1363 Tb1319 2.413 . S
O1363 C1383 1.256 . S
C1364 O1353 1.283 . S
C1364 O1356 1.243 . S
C1365 C1367 1.382 . S
C1365 C1369 1.393 . S
C1365 C1372 1.500 . S
C1366 C1367 1.400 . S
C1366 C1368 1.384 . S
C1367 C1365 1.382 . S
C1367 C1366 1.400 . S
C1367 H1384 0.930 . S
C1368 C1366 1.384 . S
C1368 C1370 1.392 . S
C1368 H1385 0.931 . S
C1369 C1365 1.393 . S
C1369 C1370 1.401 . S
C1369 H1386 0.930 . S
C1370 C1368 1.392 . S
C1370 C1369 1.401 . S
C1370 H1387 0.930 . S
C1371 O1354 1.262 . S
C1371 O1355 1.260 . S
C1372 Tb1308 2.833 . S
C1372 O1352 1.251 . S
C1372 O1357 1.256 . S
C1372 C1365 1.500 . S
C1373 H1338 0.929 . S
C1373 C1351 1.444 . S
C1373 C1374 1.317 . S
C1374 H1336 0.930 . S
C1374 C1342 1.432 . S
C1374 C1373 1.317 . S
C1375 O1359 1.283 . S
C1375 O1362 1.243 . S
C1376 C1377 1.382 . S
C1376 C1380 1.393 . S
C1376 C1383 1.500 . S
C1377 C1376 1.382 . S
C1377 C1378 1.400 . S
C1377 H1388 0.930 . S
C1378 C1377 1.400 . S
C1378 C1379 1.384 . S
C1379 C1378 1.384 . S
C1379 C1381 1.392 . S
C1379 H1389 0.931 . S
C1380 C1376 1.393 . S
C1380 C1381 1.401 . S
C1380 H1390 0.930 . S
C1381 C1379 1.392 . S
C1381 C1380 1.401 . S
C1381 H1391 0.930 . S
C1382 O1360 1.262 . S
C1382 O1361 1.260 . S
C1383 Tb1319 2.833 . S
C1383 O1358 1.251 . S
C1383 O1363 1.256 . S
C1383 C1376 1.500 . S
H1384 C1367 0.930 . S
H1385 C1368 0.931 . S
H1386 C1369 0.930 . S
H1387 C1370 0.930 . S
H1388 C1377 0.930 . S
H1389 C1379 0.931 . S
H1390 C1380 0.930 . S
H1391 C1381 0.930 . S
Tb1392 N1423 2.660 . S
Tb1392 N1430 2.600 . S
Tb1392 O1436 2.546 . S
Tb1392 O1437 2.610 . S
Tb1392 O1439 2.320 . S
Tb1392 O1440 2.552 . S
Tb1392 O1441 2.413 . S
Tb1392 O1443 2.362 . S
Tb1392 O1444 2.421 . S
Tb1392 C1456 2.833 . S
C1393 C1396 1.432 . S
C1393 C1397 1.414 . S
C1393 N1400 1.359 . S
C1394 C1396 1.417 . S
C1394 C1398 1.432 . S
C1394 C1406 1.410 . S
C1395 C1397 1.444 . S
C1395 C1398 1.317 . S
C1395 H1418 0.929 . S
C1396 C1393 1.432 . S
C1396 C1394 1.417 . S
C1396 N1404 1.360 . S
C1397 C1393 1.414 . S
C1397 C1395 1.444 . S
C1397 C1402 1.385 . S
C1398 C1394 1.432 . S
C1398 C1395 1.317 . S
C1398 H1410 0.930 . S
C1399 C1401 1.392 . S
C1399 C1402 1.370 . S
C1399 H1411 0.931 . S
N1400 C1393 1.359 . S
N1400 C1401 1.327 . S
N1400 Tb1403 2.600 . S
C1401 C1399 1.392 . S
C1401 N1400 1.327 . S
C1401 H1408 0.930 . S
C1402 C1397 1.385 . S
C1402 C1399 1.370 . S
C1402 H1421 0.930 . S
Tb1403 N1400 2.600 . S
Tb1403 N1404 2.660 . S
Tb1403 O1437 2.362 . S
Tb1403 O1438 2.421 . S
Tb1403 O1442 2.546 . S
Tb1403 O1443 2.610 . S
Tb1403 O1445 2.320 . S
Tb1403 O1446 2.552 . S
Tb1403 O1447 2.413 . S
Tb1403 C1467 2.833 . S
N1404 C1396 1.360 . S
N1404 Tb1403 2.660 . S
N1404 C1405 1.305 . S
C1405 N1404 1.305 . S
C1405 C1407 1.407 . S
C1405 H1412 0.930 . S
C1406 C1394 1.410 . S
C1406 C1407 1.345 . S
C1406 H1414 0.930 . S
C1407 C1405 1.407 . S
C1407 C1406 1.345 . S
C1407 H1409 0.930 . S
H1408 C1401 0.930 . S
H1409 C1407 0.930 . S
H1410 C1398 0.930 . S
H1411 C1399 0.931 . S
H1412 C1405 0.930 . S
H1413 C1427 0.930 . S
H1414 C1406 0.930 . S
H1415 C1433 0.930 . S
H1416 C1424 0.930 . S
H1417 C1431 0.931 . S
H1418 C1395 0.929 . S
H1419 C1425 0.930 . S
H1420 C1458 0.930 . S
H1421 C1402 0.930 . S
H1422 C1457 0.929 . S
N1423 Tb1392 2.660 . S
N1423 C1424 1.305 . S
N1423 C1428 1.360 . S
C1424 H1416 0.930 . S
C1424 N1423 1.305 . S
C1424 C1427 1.407 . S
C1425 H1419 0.930 . S
C1425 C1426 1.410 . S
C1425 C1427 1.345 . S
C1426 C1425 1.410 . S
C1426 C1428 1.417 . S
C1426 C1458 1.432 . S
C1427 H1413 0.930 . S
C1427 C1424 1.407 . S
C1427 C1425 1.345 . S
C1428 N1423 1.360 . S
C1428 C1426 1.417 . S
C1428 C1432 1.432 . S
H1429 C1434 0.930 . S
N1430 Tb1392 2.600 . S
N1430 C1432 1.359 . S
N1430 C1433 1.327 . S
C1431 H1417 0.931 . S
C1431 C1433 1.392 . S
C1431 C1434 1.370 . S
C1432 C1428 1.432 . S
C1432 N1430 1.359 . S
C1432 C1435 1.414 . S
C1433 H1415 0.930 . S
C1433 N1430 1.327 . S
C1433 C1431 1.392 . S
C1434 H1429 0.930 . S
C1434 C1431 1.370 . S
C1434 C1435 1.385 . S
C1435 C1432 1.414 . S
C1435 C1434 1.385 . S
C1435 C1457 1.444 . S
O1436 Tb1392 2.546 . S
O1436 C1456 1.251 . S
O1437 Tb1392 2.610 . S
O1437 Tb1403 2.362 . S
O1437 C1448 1.283 . S
O1438 Tb1403 2.421 . S
O1438 C1455 1.262 . S
O1439 Tb1392 2.320 . S
O1439 C1455 1.260 . S
O1440 Tb1392 2.552 . S
O1440 C1448 1.243 . S
O1441 Tb1392 2.413 . S
O1441 C1456 1.256 . S
O1442 Tb1403 2.546 . S
O1442 C1467 1.251 . S
O1443 Tb1392 2.362 . S
O1443 Tb1403 2.610 . S
O1443 C1459 1.283 . S
O1444 Tb1392 2.421 . S
O1444 C1466 1.262 . S
O1445 Tb1403 2.320 . S
O1445 C1466 1.260 . S
O1446 Tb1403 2.552 . S
O1446 C1459 1.243 . S
O1447 Tb1403 2.413 . S
O1447 C1467 1.256 . S
C1448 O1437 1.283 . S
C1448 O1440 1.243 . S
C1449 C1451 1.382 . S
C1449 C1453 1.393 . S
C1449 C1456 1.500 . S
C1450 C1451 1.400 . S
C1450 C1452 1.384 . S
C1451 C1449 1.382 . S
C1451 C1450 1.400 . S
C1451 H1468 0.930 . S
C1452 C1450 1.384 . S
C1452 C1454 1.392 . S
C1452 H1469 0.931 . S
C1453 C1449 1.393 . S
C1453 C1454 1.401 . S
C1453 H1470 0.930 . S
C1454 C1452 1.392 . S
C1454 C1453 1.401 . S
C1454 H1471 0.930 . S
C1455 O1438 1.262 . S
C1455 O1439 1.260 . S
C1456 Tb1392 2.833 . S
C1456 O1436 1.251 . S
C1456 O1441 1.256 . S
C1456 C1449 1.500 . S
C1457 H1422 0.929 . S
C1457 C1435 1.444 . S
C1457 C1458 1.317 . S
C1458 H1420 0.930 . S
C1458 C1426 1.432 . S
C1458 C1457 1.317 . S
C1459 O1443 1.283 . S
C1459 O1446 1.243 . S
C1460 C1461 1.382 . S
C1460 C1464 1.393 . S
C1460 C1467 1.500 . S
C1461 C1460 1.382 . S
C1461 C1462 1.400 . S
C1461 H1472 0.930 . S
C1462 C1461 1.400 . S
C1462 C1463 1.384 . S
C1463 C1462 1.384 . S
C1463 C1465 1.392 . S
C1463 H1473 0.931 . S
C1464 C1460 1.393 . S
C1464 C1465 1.401 . S
C1464 H1474 0.930 . S
C1465 C1463 1.392 . S
C1465 C1464 1.401 . S
C1465 H1475 0.930 . S
C1466 O1444 1.262 . S
C1466 O1445 1.260 . S
C1467 Tb1403 2.833 . S
C1467 O1442 1.251 . S
C1467 O1447 1.256 . S
C1467 C1460 1.500 . S
H1468 C1451 0.930 . S
H1469 C1452 0.931 . S
H1470 C1453 0.930 . S
H1471 C1454 0.930 . S
H1472 C1461 0.930 . S
H1473 C1463 0.931 . S
H1474 C1464 0.930 . S
H1475 C1465 0.930 . S
C1476 C1477 1.363 . S
C1476 C1482 1.379 . S
C1476 N1484 1.356 . S
C1477 C1476 1.363 . S
C1477 C1483 1.363 . S
C1478 C1479 1.363 . S
C1478 C1483 1.379 . S
C1478 N1485 1.356 . S
C1479 C1478 1.363 . S
C1479 C1482 1.363 . S
N1480 C1482 1.356 . S
N1480 H1492 0.984 . S
N1480 H1493 0.985 . S
N1481 C1483 1.356 . S
N1481 H1486 0.984 . S
N1481 H1487 0.985 . S
C1482 C1476 1.379 . S
C1482 C1479 1.363 . S
C1482 N1480 1.356 . S
C1483 C1477 1.363 . S
C1483 C1478 1.379 . S
C1483 N1481 1.356 . S
N1484 C1476 1.356 . S
N1484 H1490 0.984 . S
N1484 H1491 0.984 . S
N1485 C1478 1.356 . S
N1485 H1488 0.984 . S
N1485 H1489 0.985 . S
H1486 N1481 0.984 . S
H1487 N1481 0.985 . S
H1488 N1485 0.984 . S
H1489 N1485 0.985 . S
H1490 N1484 0.984 . S
H1491 N1484 0.984 . S
H1492 N1480 0.984 . S
H1493 N1480 0.985 . S
C1494 C1495 1.363 . S
C1494 C1500 1.379 . S
C1494 N1502 1.356 . S
C1495 C1494 1.363 . S
C1495 C1501 1.363 . S
C1496 C1497 1.363 . S
C1496 C1501 1.379 . S
C1496 N1503 1.356 . S
C1497 C1496 1.363 . S
C1497 C1500 1.363 . S
N1498 C1500 1.356 . S
N1498 H1510 0.984 . S
N1498 H1511 0.985 . S
N1499 C1501 1.356 . S
N1499 H1504 0.984 . S
N1499 H1505 0.985 . S
C1500 C1494 1.379 . S
C1500 C1497 1.363 . S
C1500 N1498 1.356 . S
C1501 C1495 1.363 . S
C1501 C1496 1.379 . S
C1501 N1499 1.356 . S
N1502 C1494 1.356 . S
N1502 H1508 0.984 . S
N1502 H1509 0.984 . S
N1503 C1496 1.356 . S
N1503 H1506 0.984 . S
N1503 H1507 0.985 . S
H1504 N1499 0.984 . S
H1505 N1499 0.985 . S
H1506 N1503 0.984 . S
H1507 N1503 0.985 . S
H1508 N1502 0.984 . S
H1509 N1502 0.984 . S
H1510 N1498 0.984 . S
H1511 N1498 0.985 . S
C1512 C1513 1.363 . S
C1512 C1518 1.379 . S
C1512 N1520 1.356 . S
C1513 C1512 1.363 . S
C1513 C1519 1.363 . S
C1514 C1515 1.363 . S
C1514 C1519 1.379 . S
C1514 N1521 1.356 . S
C1515 C1514 1.363 . S
C1515 C1518 1.363 . S
N1516 C1518 1.343 1_556 S
N1516 H1528 0.998 . S
N1516 H1529 0.984 . S
N1517 C1519 1.356 . S
N1517 H1522 0.984 . S
N1517 H1523 0.985 . S
C1518 C1512 1.379 . S
C1518 C1515 1.363 . S
C1518 N1516 1.343 1_554 S
C1519 C1513 1.363 . S
C1519 C1514 1.379 . S
C1519 N1517 1.356 . S
N1520 C1512 1.356 . S
N1520 H1526 0.975 1_554 S
N1520 H1527 0.984 . S
N1521 C1514 1.356 . S
N1521 H1524 0.984 . S
N1521 H1525 0.985 . S
H1522 N1517 0.984 . S
H1523 N1517 0.985 . S
H1524 N1521 0.984 . S
H1525 N1521 0.985 . S
H1526 N1520 0.975 1_556 S
H1527 N1520 0.984 . S
H1528 N1516 0.998 . S
H1529 N1516 0.984 . S
C1530 C1531 1.363 . S
C1530 C1536 1.379 . S
C1530 N1538 1.356 . S
C1531 C1530 1.363 . S
C1531 C1537 1.363 . S
C1532 C1533 1.363 . S
C1532 C1537 1.379 . S
C1532 N1539 1.356 1_556 S
C1533 C1532 1.363 . S
C1533 C1536 1.363 . S
N1534 C1536 1.356 . S
N1534 H1546 0.984 . S
N1534 H1547 0.985 . S
N1535 C1537 1.356 . S
N1535 H1540 0.984 . S
N1535 H1541 0.985 1_556 S
C1536 C1530 1.379 . S
C1536 C1533 1.363 . S
C1536 N1534 1.356 . S
C1537 C1531 1.363 . S
C1537 C1532 1.379 . S
C1537 N1535 1.356 . S
N1538 C1530 1.356 . S
N1538 H1544 0.984 . S
N1538 H1545 0.984 . S
N1539 C1532 1.356 1_554 S
N1539 H1542 0.984 . S
N1539 H1543 0.985 . S
H1540 N1535 0.984 . S
H1541 N1535 0.985 1_554 S
H1542 N1539 0.984 . S
H1543 N1539 0.985 . S
H1544 N1538 0.984 . S
H1545 N1538 0.984 . S
H1546 N1534 0.984 . S
H1547 N1534 0.985 . S
C1548 C1549 1.363 . S
C1548 C1554 1.379 . S
C1548 N1556 1.356 . S
C1549 C1548 1.363 . S
C1549 C1555 1.363 . S
C1550 C1551 1.363 . S
C1550 C1555 1.379 . S
C1550 N1557 1.356 . S
C1551 C1550 1.363 . S
C1551 C1554 1.363 . S
N1552 C1554 1.356 . S
N1552 H1564 0.984 . S
N1552 H1565 0.985 . S
N1553 C1555 1.356 . S
N1553 H1558 0.984 . S
N1553 H1559 0.985 . S
C1554 C1548 1.379 . S
C1554 C1551 1.363 . S
C1554 N1552 1.356 . S
C1555 C1549 1.363 . S
C1555 C1550 1.379 . S
C1555 N1553 1.356 . S
N1556 C1548 1.356 . S
N1556 H1562 0.984 . S
N1556 H1563 0.984 . S
N1557 C1550 1.356 . S
N1557 H1560 0.984 . S
N1557 H1561 0.985 . S
H1558 N1553 0.984 . S
H1559 N1553 0.985 . S
H1560 N1557 0.984 . S
H1561 N1557 0.985 . S
H1562 N1556 0.984 . S
H1563 N1556 0.984 . S
H1564 N1552 0.984 . S
H1565 N1552 0.985 . S
C1566 C1567 1.363 . S
C1566 C1572 1.379 . S
C1566 N1574 1.356 . S
C1567 C1566 1.363 . S
C1567 C1573 1.363 . S
C1568 C1569 1.363 . S
C1568 C1573 1.379 . S
C1568 N1575 1.356 . S
C1569 C1568 1.363 . S
C1569 C1572 1.363 . S
N1570 C1572 1.356 1_554 S
N1570 H1582 0.984 . S
N1570 H1583 0.985 . S
N1571 C1573 1.356 . S
N1571 H1576 0.984 . S
N1571 H1577 0.985 . S
C1572 C1566 1.379 . S
C1572 C1569 1.363 . S
C1572 N1570 1.356 1_556 S
C1573 C1567 1.363 . S
C1573 C1568 1.379 . S
C1573 N1571 1.356 . S
N1574 C1566 1.356 . S
N1574 H1580 0.984 1_556 S
N1574 H1581 0.984 . S
N1575 C1568 1.356 . S
N1575 H1578 0.984 . S
N1575 H1579 0.985 . S
H1576 N1571 0.984 . S
H1577 N1571 0.985 . S
H1578 N1575 0.984 . S
H1579 N1575 0.985 . S
H1580 N1574 0.984 1_554 S
H1581 N1574 0.984 . S
H1582 N1570 0.984 . S
H1583 N1570 0.985 . S
C1584 C1585 1.363 . S
C1584 C1590 1.379 . S
C1584 N1592 1.356 . S
C1585 C1584 1.363 . S
C1585 C1591 1.363 . S
C1586 C1587 1.363 . S
C1586 C1591 1.379 . S
C1586 N1593 1.356 1_556 S
C1587 C1586 1.363 . S
C1587 C1590 1.363 . S
N1588 C1590 1.356 . S
N1588 H1600 0.984 . S
N1588 H1601 0.985 . S
N1589 C1591 1.356 . S
N1589 H1594 0.984 . S
N1589 H1595 0.985 1_556 S
C1590 C1584 1.379 . S
C1590 C1587 1.363 . S
C1590 N1588 1.356 . S
C1591 C1585 1.363 . S
C1591 C1586 1.379 . S
C1591 N1589 1.356 . S
N1592 C1584 1.356 . S
N1592 H1598 0.984 . S
N1592 H1599 0.984 . S
N1593 C1586 1.356 1_554 S
N1593 H1596 0.984 . S
N1593 H1597 0.985 . S
H1594 N1589 0.984 . S
H1595 N1589 0.985 1_554 S
H1596 N1593 0.984 . S
H1597 N1593 0.985 . S
H1598 N1592 0.984 . S
H1599 N1592 0.984 . S
H1600 N1588 0.984 . S
H1601 N1588 0.985 . S
C1602 C1603 1.363 . S
C1602 C1608 1.379 . S
C1602 N1610 1.356 . S
C1603 C1602 1.363 . S
C1603 C1609 1.363 . S
C1604 C1605 1.363 . S
C1604 C1609 1.379 . S
C1604 N1611 1.356 . S
C1605 C1604 1.363 . S
C1605 C1608 1.363 . S
N1606 C1608 1.356 1_554 S
N1606 H1618 0.984 . S
N1606 H1619 0.985 . S
N1607 C1609 1.356 . S
N1607 H1612 0.984 . S
N1607 H1613 0.985 . S
C1608 C1602 1.379 . S
C1608 C1605 1.363 . S
C1608 N1606 1.356 1_556 S
C1609 C1603 1.363 . S
C1609 C1604 1.379 . S
C1609 N1607 1.356 . S
N1610 C1602 1.356 . S
N1610 H1616 0.984 1_556 S
N1610 H1617 0.984 . S
N1611 C1604 1.356 . S
N1611 H1614 0.984 . S
N1611 H1615 0.985 . S
H1612 N1607 0.984 . S
H1613 N1607 0.985 . S
H1614 N1611 0.984 . S
H1615 N1611 0.985 . S
H1616 N1610 0.984 1_554 S
H1617 N1610 0.984 . S
H1618 N1606 0.984 . S
H1619 N1606 0.985 . S
C1620 C1621 1.363 . S
C1620 C1626 1.379 . S
C1620 N1628 1.356 . S
C1621 C1620 1.363 . S
C1621 C1627 1.363 . S
C1622 C1623 1.363 . S
C1622 C1627 1.379 . S
C1622 N1629 1.356 . S
C1623 C1622 1.363 . S
C1623 C1626 1.363 . S
N1624 C1626 1.356 1_554 S
N1624 H1636 0.984 . S
N1624 H1637 0.985 . S
N1625 C1627 1.356 . S
N1625 H1630 0.984 . S
N1625 H1631 0.985 . S
C1626 C1620 1.379 . S
C1626 C1623 1.363 . S
C1626 N1624 1.356 1_556 S
C1627 C1621 1.363 . S
C1627 C1622 1.379 . S
C1627 N1625 1.356 . S
N1628 C1620 1.356 . S
N1628 H1634 0.984 1_556 S
N1628 H1635 0.984 . S
N1629 C1622 1.356 . S
N1629 H1632 0.984 . S
N1629 H1633 0.985 . S
H1630 N1625 0.984 . S
H1631 N1625 0.985 . S
H1632 N1629 0.984 . S
H1633 N1629 0.985 . S
H1634 N1628 0.984 1_554 S
H1635 N1628 0.984 . S
H1636 N1624 0.984 . S
H1637 N1624 0.985 . S
C1638 C1639 1.363 . S
C1638 C1644 1.379 . S
C1638 N1646 1.356 . S
C1639 C1638 1.363 . S
C1639 C1645 1.363 . S
C1640 C1641 1.363 . S
C1640 C1645 1.379 . S
C1640 N1647 1.356 . S
C1641 C1640 1.363 . S
C1641 C1644 1.363 . S
N1642 C1644 1.356 . S
N1642 H1654 0.984 . S
N1642 H1655 0.985 . S
N1643 C1645 1.356 . S
N1643 H1648 0.984 . S
N1643 H1649 0.985 . S
C1644 C1638 1.379 . S
C1644 C1641 1.363 . S
C1644 N1642 1.356 . S
C1645 C1639 1.363 . S
C1645 C1640 1.379 . S
C1645 N1643 1.356 . S
N1646 C1638 1.356 . S
N1646 H1652 0.984 . S
N1646 H1653 0.984 . S
N1647 C1640 1.356 . S
N1647 H1650 0.984 . S
N1647 H1651 0.985 . S
H1648 N1643 0.984 . S
H1649 N1643 0.985 . S
H1650 N1647 0.984 . S
H1651 N1647 0.985 . S
H1652 N1646 0.984 . S
H1653 N1646 0.984 . S
H1654 N1642 0.984 . S
H1655 N1642 0.985 . S
C1656 C1657 1.363 . S
C1656 C1662 1.379 . S
C1656 N1664 1.356 . S
C1657 C1656 1.363 . S
C1657 C1663 1.363 . S
C1658 C1659 1.363 . S
C1658 C1663 1.379 . S
C1658 N1665 1.356 . S
C1659 C1658 1.363 . S
C1659 C1662 1.363 . S
N1660 C1662 1.356 . S
N1660 H1672 0.984 . S
N1660 H1673 0.985 . S
N1661 C1663 1.356 . S
N1661 H1666 0.984 . S
N1661 H1667 0.985 . S
C1662 C1656 1.379 . S
C1662 C1659 1.363 . S
C1662 N1660 1.356 . S
C1663 C1657 1.363 . S
C1663 C1658 1.379 . S
C1663 N1661 1.356 . S
N1664 C1656 1.356 . S
N1664 H1670 0.984 . S
N1664 H1671 0.984 . S
N1665 C1658 1.356 . S
N1665 H1668 0.985 . S
N1665 H1669 0.985 1_554 S
H1666 N1661 0.984 . S
H1667 N1661 0.985 . S
H1668 N1665 0.985 . S
H1669 N1665 0.985 1_556 S
H1670 N1664 0.984 . S
H1671 N1664 0.984 . S
H1672 N1660 0.984 . S
H1673 N1660 0.985 . S
C1674 C1675 1.363 . S
C1674 C1680 1.379 . S
C1674 N1682 1.356 . S
C1675 C1674 1.363 . S
C1675 C1681 1.363 . S
C1676 C1677 1.363 . S
C1676 C1681 1.379 . S
C1676 N1683 1.356 . S
C1677 C1676 1.363 . S
C1677 C1680 1.363 . S
N1678 C1680 1.356 . S
N1678 H1690 0.984 . S
N1678 H1691 0.985 . S
N1679 C1681 1.356 . S
N1679 H1684 0.984 . S
N1679 H1685 0.985 . S
C1680 C1674 1.379 . S
C1680 C1677 1.363 . S
C1680 N1678 1.356 . S
C1681 C1675 1.363 . S
C1681 C1676 1.379 . S
C1681 N1679 1.356 . S
N1682 C1674 1.356 . S
N1682 H1688 0.984 . S
N1682 H1689 0.984 . S
N1683 C1676 1.356 . S
N1683 H1686 0.984 . S
N1683 H1687 0.985 . S
H1684 N1679 0.984 . S
H1685 N1679 0.985 . S
H1686 N1683 0.984 . S
H1687 N1683 0.985 . S
H1688 N1682 0.984 . S
H1689 N1682 0.984 . S
H1690 N1678 0.984 . S
H1691 N1678 0.985 . S
C1692 C1693 1.363 . S
C1692 C1698 1.379 . S
C1692 N1700 1.356 . S
C1693 C1692 1.363 . S
C1693 C1699 1.363 . S
C1694 C1695 1.363 . S
C1694 C1699 1.379 . S
C1694 N1701 1.356 . S
C1695 C1694 1.363 . S
C1695 C1698 1.363 . S
N1696 C1698 1.356 . S
N1696 H1708 0.984 . S
N1696 H1709 0.985 . S
N1697 C1699 1.356 . S
N1697 H1702 0.984 . S
N1697 H1703 0.985 . S
C1698 C1692 1.379 . S
C1698 C1695 1.363 . S
C1698 N1696 1.356 . S
C1699 C1693 1.363 . S
C1699 C1694 1.379 . S
C1699 N1697 1.356 . S
N1700 C1692 1.356 . S
N1700 H1706 0.984 . S
N1700 H1707 0.954 1_455 S
N1701 C1694 1.356 . S
N1701 H1704 0.984 . S
N1701 H1705 0.985 . S
H1702 N1697 0.984 . S
H1703 N1697 0.985 . S
H1704 N1701 0.984 . S
H1705 N1701 0.985 . S
H1706 N1700 0.984 . S
H1707 N1700 0.954 1_655 S
H1708 N1696 0.984 . S
H1709 N1696 0.985 . S
C1710 C1711 1.363 . S
C1710 C1716 1.379 . S
C1710 N1718 1.356 . S
C1711 C1710 1.363 . S
C1711 C1717 1.363 . S
C1712 C1713 1.363 . S
C1712 C1717 1.379 . S
C1712 N1719 1.356 . S
C1713 C1712 1.363 . S
C1713 C1716 1.363 . S
N1714 C1716 1.356 . S
N1714 H1726 0.984 . S
N1714 H1727 0.985 . S
N1715 C1717 1.356 . S
N1715 H1720 0.984 . S
N1715 H1721 0.985 . S
C1716 C1710 1.379 . S
C1716 C1713 1.363 . S
C1716 N1714 1.356 . S
C1717 C1711 1.363 . S
C1717 C1712 1.379 . S
C1717 N1715 1.356 . S
N1718 C1710 1.356 . S
N1718 H1724 0.984 . S
N1718 H1725 0.984 . S
N1719 C1712 1.356 . S
N1719 H1722 0.984 . S
N1719 H1723 0.985 . S
H1720 N1715 0.984 . S
H1721 N1715 0.985 . S
H1722 N1719 0.984 . S
H1723 N1719 0.985 . S
H1724 N1718 0.984 . S
H1725 N1718 0.984 . S
H1726 N1714 0.984 . S
H1727 N1714 0.985 . S
C1728 C1729 1.363 . S
C1728 C1734 1.379 . S
C1728 N1736 1.356 . S
C1729 C1728 1.363 . S
C1729 C1735 1.363 . S
C1730 C1731 1.363 . S
C1730 C1735 1.379 . S
C1730 N1737 1.356 . S
C1731 C1730 1.363 . S
C1731 C1734 1.363 . S
N1732 C1734 1.356 . S
N1732 H1744 0.984 . S
N1732 H1745 0.985 . S
N1733 C1735 1.356 . S
N1733 H1738 0.984 . S
N1733 H1739 0.985 . S
C1734 C1728 1.379 . S
C1734 C1731 1.363 . S
C1734 N1732 1.356 . S
C1735 C1729 1.363 . S
C1735 C1730 1.379 . S
C1735 N1733 1.356 . S
N1736 C1728 1.356 . S
N1736 H1742 0.984 . S
N1736 H1743 0.984 1_565 S
N1737 C1730 1.356 . S
N1737 H1740 0.984 . S
N1737 H1741 0.985 . S
H1738 N1733 0.984 . S
H1739 N1733 0.985 . S
H1740 N1737 0.984 . S
H1741 N1737 0.985 . S
H1742 N1736 0.984 . S
H1743 N1736 0.984 1_545 S
H1744 N1732 0.984 . S
H1745 N1732 0.985 . S
C1746 C1747 1.363 . S
C1746 C1752 1.379 . S
C1746 N1754 1.356 . S
C1747 C1746 1.363 . S
C1747 C1753 1.363 . S
C1748 C1749 1.363 . S
C1748 C1753 1.379 . S
C1748 N1755 1.356 . S
C1749 C1748 1.363 . S
C1749 C1752 1.363 . S
N1750 C1752 1.356 . S
N1750 H1762 0.984 . S
N1750 H1763 0.985 . S
N1751 C1753 1.356 . S
N1751 H1756 0.984 . S
N1751 H1757 0.985 . S
C1752 C1746 1.379 . S
C1752 C1749 1.363 . S
C1752 N1750 1.356 . S
C1753 C1747 1.363 . S
C1753 C1748 1.379 . S
C1753 N1751 1.356 . S
N1754 C1746 1.356 . S
N1754 H1760 0.984 . S
N1754 H1761 0.984 . S
N1755 C1748 1.356 . S
N1755 H1758 0.984 . S
N1755 H1759 0.985 . S
H1756 N1751 0.984 . S
H1757 N1751 0.985 . S
H1758 N1755 0.984 . S
H1759 N1755 0.985 . S
H1760 N1754 0.984 . S
H1761 N1754 0.984 . S
H1762 N1750 0.984 . S
H1763 N1750 0.985 . S
C1764 C1765 1.363 . S
C1764 C1770 1.379 . S
C1764 N1772 1.356 . S
C1765 C1764 1.363 . S
C1765 C1771 1.363 . S
C1766 C1767 1.363 . S
C1766 C1771 1.379 . S
C1766 N1773 1.356 . S
C1767 C1766 1.363 . S
C1767 C1770 1.363 . S
N1768 C1770 1.356 . S
N1768 H1780 0.984 . S
N1768 H1781 0.985 . S
N1769 C1771 1.356 . S
N1769 H1774 0.984 . S
N1769 H1775 0.985 . S
C1770 C1764 1.379 . S
C1770 C1767 1.363 . S
C1770 N1768 1.356 . S
C1771 C1765 1.363 . S
C1771 C1766 1.379 . S
C1771 N1769 1.356 . S
N1772 C1764 1.356 . S
N1772 H1778 0.984 . S
N1772 H1779 0.984 . S
N1773 C1766 1.356 . S
N1773 H1776 0.984 . S
N1773 H1777 0.985 . S
H1774 N1769 0.984 . S
H1775 N1769 0.985 . S
H1776 N1773 0.984 . S
H1777 N1773 0.985 . S
H1778 N1772 0.984 . S
H1779 N1772 0.984 . S
H1780 N1768 0.984 . S
H1781 N1768 0.985 . S
C1782 C1783 1.363 . S
C1782 C1788 1.379 . S
C1782 N1790 1.356 . S
C1783 C1782 1.363 . S
C1783 C1789 1.363 . S
C1784 C1785 1.363 . S
C1784 C1789 1.379 . S
C1784 N1791 1.356 . S
C1785 C1784 1.363 . S
C1785 C1788 1.363 . S
N1786 C1788 1.356 . S
N1786 H1798 0.984 . S
N1786 H1799 0.985 . S
N1787 C1789 1.356 . S
N1787 H1792 0.984 . S
N1787 H1793 0.985 . S
C1788 C1782 1.379 . S
C1788 C1785 1.363 . S
C1788 N1786 1.356 . S
C1789 C1783 1.363 . S
C1789 C1784 1.379 . S
C1789 N1787 1.356 . S
N1790 C1782 1.356 . S
N1790 H1796 0.984 . S
N1790 H1797 0.984 . S
N1791 C1784 1.356 . S
N1791 H1794 0.984 . S
N1791 H1795 0.985 . S
H1792 N1787 0.984 . S
H1793 N1787 0.985 . S
H1794 N1791 0.984 . S
H1795 N1791 0.985 . S
H1796 N1790 0.984 . S
H1797 N1790 0.984 . S
H1798 N1786 0.984 . S
H1799 N1786 0.985 . S
C1800 C1801 1.363 . S
C1800 C1806 1.379 . S
C1800 N1808 1.356 . S
C1801 C1800 1.363 . S
C1801 C1807 1.363 . S
C1802 C1803 1.363 . S
C1802 C1807 1.379 . S
C1802 N1809 1.356 . S
C1803 C1802 1.363 . S
C1803 C1806 1.363 . S
N1804 C1806 1.356 . S
N1804 H1816 0.984 . S
N1804 H1817 0.985 . S
N1805 C1807 1.356 . S
N1805 H1810 0.984 . S
N1805 H1811 0.985 . S
C1806 C1800 1.379 . S
C1806 C1803 1.363 . S
C1806 N1804 1.356 . S
C1807 C1801 1.363 . S
C1807 C1802 1.379 . S
C1807 N1805 1.356 . S
N1808 C1800 1.356 . S
N1808 H1814 0.984 . S
N1808 H1815 0.984 . S
N1809 C1802 1.356 . S
N1809 H1812 0.984 . S
N1809 H1813 0.985 . S
H1810 N1805 0.984 . S
H1811 N1805 0.985 . S
H1812 N1809 0.984 . S
H1813 N1809 0.985 . S
H1814 N1808 0.984 . S
H1815 N1808 0.984 . S
H1816 N1804 0.984 . S
H1817 N1804 0.985 . S
C1818 C1819 1.363 . S
C1818 C1824 1.379 . S
C1818 N1826 1.356 . S
C1819 C1818 1.363 . S
C1819 C1825 1.363 . S
C1820 C1821 1.363 . S
C1820 C1825 1.379 . S
C1820 N1827 1.356 . S
C1821 C1820 1.363 . S
C1821 C1824 1.363 . S
N1822 C1824 1.356 . S
N1822 H1834 0.984 . S
N1822 H1835 0.985 . S
N1823 C1825 1.356 . S
N1823 H1828 0.984 . S
N1823 H1829 0.985 . S
C1824 C1818 1.379 . S
C1824 C1821 1.363 . S
C1824 N1822 1.356 . S
C1825 C1819 1.363 . S
C1825 C1820 1.379 . S
C1825 N1823 1.356 . S
N1826 C1818 1.356 . S
N1826 H1832 0.984 . S
N1826 H1833 0.984 . S
N1827 C1820 1.356 . S
N1827 H1830 0.984 . S
N1827 H1831 0.985 . S
H1828 N1823 0.984 . S
H1829 N1823 0.985 . S
H1830 N1827 0.984 . S
H1831 N1827 0.985 . S
H1832 N1826 0.984 . S
H1833 N1826 0.984 . S
H1834 N1822 0.984 . S
H1835 N1822 0.985 . S
C1836 C1837 1.363 . S
C1836 C1842 1.379 . S
C1836 N1844 1.356 . S
C1837 C1836 1.363 . S
C1837 C1843 1.363 . S
C1838 C1839 1.363 . S
C1838 C1843 1.379 . S
C1838 N1845 1.356 . S
C1839 C1838 1.363 . S
C1839 C1842 1.363 . S
N1840 C1842 1.356 . S
N1840 H1852 0.984 . S
N1840 H1853 0.985 . S
N1841 C1843 1.356 . S
N1841 H1846 0.984 . S
N1841 H1847 0.985 . S
C1842 C1836 1.379 . S
C1842 C1839 1.363 . S
C1842 N1840 1.356 . S
C1843 C1837 1.363 . S
C1843 C1838 1.379 . S
C1843 N1841 1.356 . S
N1844 C1836 1.356 . S
N1844 H1850 0.984 . S
N1844 H1851 0.984 . S
N1845 C1838 1.356 . S
N1845 H1848 0.984 . S
N1845 H1849 0.985 . S
H1846 N1841 0.984 . S
H1847 N1841 0.985 . S
H1848 N1845 0.984 . S
H1849 N1845 0.985 . S
H1850 N1844 0.984 . S
H1851 N1844 0.984 . S
H1852 N1840 0.984 . S
H1853 N1840 0.985 . S
C1854 C1855 1.363 . S
C1854 C1860 1.379 . S
C1854 N1862 1.356 . S
C1855 C1854 1.363 . S
C1855 C1861 1.363 . S
C1856 C1857 1.363 . S
C1856 C1861 1.379 . S
C1856 N1863 1.356 . S
C1857 C1856 1.363 . S
C1857 C1860 1.363 . S
N1858 C1860 1.356 . S
N1858 H1870 0.984 . S
N1858 H1871 0.985 . S
N1859 C1861 1.356 . S
N1859 H1864 0.984 . S
N1859 H1865 0.985 . S
C1860 C1854 1.379 . S
C1860 C1857 1.363 . S
C1860 N1858 1.356 . S
C1861 C1855 1.363 . S
C1861 C1856 1.379 . S
C1861 N1859 1.356 . S
N1862 C1854 1.356 . S
N1862 H1868 0.984 . S
N1862 H1869 0.984 1_565 S
N1863 C1856 1.356 . S
N1863 H1866 0.984 . S
N1863 H1867 0.985 . S
H1864 N1859 0.984 . S
H1865 N1859 0.985 . S
H1866 N1863 0.984 . S
H1867 N1863 0.985 . S
H1868 N1862 0.984 . S
H1869 N1862 0.984 1_545 S
H1870 N1858 0.984 . S
H1871 N1858 0.985 . S
C1872 C1873 1.363 . S
C1872 C1878 1.379 . S
C1872 N1880 1.356 . S
C1873 C1872 1.363 . S
C1873 C1879 1.363 . S
C1874 C1875 1.363 . S
C1874 C1879 1.379 . S
C1874 N1881 1.356 . S
C1875 C1874 1.363 . S
C1875 C1878 1.363 . S
N1876 C1878 1.356 . S
N1876 H1888 0.984 . S
N1876 H1889 0.985 . S
N1877 C1879 1.356 . S
N1877 H1882 0.984 . S
N1877 H1883 0.985 . S
C1878 C1872 1.379 . S
C1878 C1875 1.363 . S
C1878 N1876 1.356 . S
C1879 C1873 1.363 . S
C1879 C1874 1.379 . S
C1879 N1877 1.356 . S
N1880 C1872 1.356 . S
N1880 H1886 0.984 . S
N1880 H1887 0.984 . S
N1881 C1874 1.356 . S
N1881 H1884 0.984 . S
N1881 H1885 0.985 . S
H1882 N1877 0.984 . S
H1883 N1877 0.985 . S
H1884 N1881 0.984 . S
H1885 N1881 0.985 . S
H1886 N1880 0.984 . S
H1887 N1880 0.984 . S
H1888 N1876 0.984 . S
H1889 N1876 0.985 . S
C1890 C1891 1.363 . S
C1890 C1896 1.379 . S
C1890 N1898 1.356 . S
C1891 C1890 1.363 . S
C1891 C1897 1.363 . S
C1892 C1893 1.363 . S
C1892 C1897 1.379 . S
C1892 N1899 1.356 . S
C1893 C1892 1.363 . S
C1893 C1896 1.363 . S
N1894 C1896 1.356 . S
N1894 H1906 0.984 . S
N1894 H1907 0.985 . S
N1895 C1897 1.356 . S
N1895 H1900 0.984 . S
N1895 H1901 0.985 . S
C1896 C1890 1.379 . S
C1896 C1893 1.363 . S
C1896 N1894 1.356 . S
C1897 C1891 1.363 . S
C1897 C1892 1.379 . S
C1897 N1895 1.356 . S
N1898 C1890 1.356 . S
N1898 H1904 0.984 . S
N1898 H1905 0.984 . S
N1899 C1892 1.356 . S
N1899 H1902 0.984 . S
N1899 H1903 0.985 . S
H1900 N1895 0.984 . S
H1901 N1895 0.985 . S
H1902 N1899 0.984 . S
H1903 N1899 0.985 . S
H1904 N1898 0.984 . S
H1905 N1898 0.984 . S
H1906 N1894 0.984 . S
H1907 N1894 0.985 . S
C1908 C1909 1.363 . S
C1908 C1914 1.379 . S
C1908 N1916 1.356 . S
C1909 C1908 1.363 . S
C1909 C1915 1.363 . S
C1910 C1911 1.363 . S
C1910 C1915 1.379 . S
C1910 N1917 1.356 . S
C1911 C1910 1.363 . S
C1911 C1914 1.363 . S
N1912 C1914 1.356 . S
N1912 H1924 0.984 . S
N1912 H1925 0.985 . S
N1913 C1915 1.356 . S
N1913 H1918 0.984 . S
N1913 H1919 0.985 . S
C1914 C1908 1.379 . S
C1914 C1911 1.363 . S
C1914 N1912 1.356 . S
C1915 C1909 1.363 . S
C1915 C1910 1.379 . S
C1915 N1913 1.356 . S
N1916 C1908 1.356 . S
N1916 H1922 0.984 . S
N1916 H1923 0.984 . S
N1917 C1910 1.356 . S
N1917 H1920 0.984 . S
N1917 H1921 0.985 . S
H1918 N1913 0.984 . S
H1919 N1913 0.985 . S
H1920 N1917 0.984 . S
H1921 N1917 0.985 . S
H1922 N1916 0.984 . S
H1923 N1916 0.984 . S
H1924 N1912 0.984 . S
H1925 N1912 0.985 . S
C1926 C1927 1.363 . S
C1926 C1932 1.379 . S
C1926 N1934 1.356 . S
C1927 C1926 1.363 . S
C1927 C1933 1.363 . S
C1928 C1929 1.363 . S
C1928 C1933 1.379 . S
C1928 N1935 1.356 . S
C1929 C1928 1.363 . S
C1929 C1932 1.363 . S
N1930 C1932 1.356 . S
N1930 H1942 0.984 . S
N1930 H1943 0.985 . S
N1931 C1933 1.356 . S
N1931 H1936 0.984 . S
N1931 H1937 0.985 . S
C1932 C1926 1.379 . S
C1932 C1929 1.363 . S
C1932 N1930 1.356 . S
C1933 C1927 1.363 . S
C1933 C1928 1.379 . S
C1933 N1931 1.356 . S
N1934 C1926 1.356 . S
N1934 H1940 0.984 . S
N1934 H1941 0.984 . S
N1935 C1928 1.356 . S
N1935 H1938 0.984 . S
N1935 H1939 0.985 . S
H1936 N1931 0.984 . S
H1937 N1931 0.985 . S
H1938 N1935 0.984 . S
H1939 N1935 0.985 . S
H1940 N1934 0.984 . S
H1941 N1934 0.984 . S
H1942 N1930 0.984 . S
H1943 N1930 0.985 . S
C1944 C1945 1.363 . S
C1944 C1950 1.379 . S
C1944 N1952 1.356 . S
C1945 C1944 1.363 . S
C1945 C1951 1.363 . S
C1946 C1947 1.363 . S
C1946 C1951 1.379 . S
C1946 N1953 1.356 . S
C1947 C1946 1.363 . S
C1947 C1950 1.363 . S
N1948 C1950 1.356 . S
N1948 H1960 0.984 . S
N1948 H1961 0.985 . S
N1949 C1951 1.356 . S
N1949 H1954 0.984 . S
N1949 H1955 0.985 . S
C1950 C1944 1.379 . S
C1950 C1947 1.363 . S
C1950 N1948 1.356 . S
C1951 C1945 1.363 . S
C1951 C1946 1.379 . S
C1951 N1949 1.356 . S
N1952 C1944 1.356 . S
N1952 H1958 0.984 . S
N1952 H1959 0.984 . S
N1953 C1946 1.356 . S
N1953 H1956 0.984 . S
N1953 H1957 0.985 . S
H1954 N1949 0.984 . S
H1955 N1949 0.985 . S
H1956 N1953 0.984 . S
H1957 N1953 0.985 . S
H1958 N1952 0.984 . S
H1959 N1952 0.984 . S
H1960 N1948 0.984 . S
H1961 N1948 0.985 . S
C1962 C1963 1.363 . S
C1962 C1968 1.379 . S
C1962 N1970 1.356 . S
C1963 C1962 1.363 . S
C1963 C1969 1.363 . S
C1964 C1965 1.363 . S
C1964 C1969 1.379 . S
C1964 N1971 1.356 . S
C1965 C1964 1.363 . S
C1965 C1968 1.363 . S
N1966 C1968 1.356 . S
N1966 H1978 0.984 . S
N1966 H1979 0.985 . S
N1967 C1969 1.356 . S
N1967 H1972 0.984 . S
N1967 H1973 0.985 . S
C1968 C1962 1.379 . S
C1968 C1965 1.363 . S
C1968 N1966 1.356 . S
C1969 C1963 1.363 . S
C1969 C1964 1.379 . S
C1969 N1967 1.356 . S
N1970 C1962 1.356 . S
N1970 H1976 0.984 . S
N1970 H1977 0.984 . S
N1971 C1964 1.356 . S
N1971 H1974 0.984 . S
N1971 H1975 0.985 . S
H1972 N1967 0.984 . S
H1973 N1967 0.985 . S
H1974 N1971 0.984 . S
H1975 N1971 0.985 . S
H1976 N1970 0.984 . S
H1977 N1970 0.984 . S
H1978 N1966 0.984 . S
H1979 N1966 0.985 . S
C1980 C1981 1.363 . S
C1980 C1986 1.379 . S
C1980 N1988 1.356 . S
C1981 C1980 1.363 . S
C1981 C1987 1.363 . S
C1982 C1983 1.363 . S
C1982 C1987 1.379 . S
C1982 N1989 1.356 . S
C1983 C1982 1.363 . S
C1983 C1986 1.363 . S
N1984 C1986 1.356 . S
N1984 H1996 0.984 . S
N1984 H1997 0.985 . S
N1985 C1987 1.356 . S
N1985 H1990 0.984 . S
N1985 H1991 0.985 . S
C1986 C1980 1.379 . S
C1986 C1983 1.363 . S
C1986 N1984 1.356 . S
C1987 C1981 1.363 . S
C1987 C1982 1.379 . S
C1987 N1985 1.356 . S
N1988 C1980 1.356 . S
N1988 H1994 0.984 . S
N1988 H1995 0.960 1_655 S
N1989 C1982 1.356 . S
N1989 H1992 0.984 . S
N1989 H1993 0.985 . S
H1990 N1985 0.984 . S
H1991 N1985 0.985 . S
H1992 N1989 0.984 . S
H1993 N1989 0.985 . S
H1994 N1988 0.984 . S
H1995 N1988 0.960 1_455 S
H1996 N1984 0.984 . S
H1997 N1984 0.985 . S
C1998 C1999 1.363 . S
C1998 C2004 1.379 . S
C1998 N2006 1.356 . S
C1999 C1998 1.363 . S
C1999 C2005 1.363 . S
C2000 C2001 1.363 . S
C2000 C2005 1.379 . S
C2000 N2007 1.356 . S
C2001 C2000 1.363 . S
C2001 C2004 1.363 . S
N2002 C2004 1.356 . S
N2002 H2014 0.984 . S
N2002 H2015 0.985 . S
N2003 C2005 1.356 . S
N2003 H2008 0.984 . S
N2003 H2009 0.985 . S
C2004 C1998 1.379 . S
C2004 C2001 1.363 . S
C2004 N2002 1.356 . S
C2005 C1999 1.363 . S
C2005 C2000 1.379 . S
C2005 N2003 1.356 . S
N2006 C1998 1.356 . S
N2006 H2012 0.984 . S
N2006 H2013 0.984 . S
N2007 C2000 1.356 . S
N2007 H2010 0.984 . S
N2007 H2011 0.985 . S
H2008 N2003 0.984 . S
H2009 N2003 0.985 . S
H2010 N2007 0.984 . S
H2011 N2007 0.985 . S
H2012 N2006 0.984 . S
H2013 N2006 0.984 . S
H2014 N2002 0.984 . S
H2015 N2002 0.985 . S
C2016 C2017 1.363 . S
C2016 C2022 1.379 . S
C2016 N2024 1.356 . S
C2017 C2016 1.363 . S
C2017 C2023 1.363 . S
C2018 C2019 1.363 . S
C2018 C2023 1.379 . S
C2018 N2025 1.356 . S
C2019 C2018 1.363 . S
C2019 C2022 1.363 . S
N2020 C2022 1.356 . S
N2020 H2032 0.984 . S
N2020 H2033 0.985 . S
N2021 C2023 1.356 . S
N2021 H2026 0.984 1_655 S
N2021 H2027 0.985 . S
C2022 C2016 1.379 . S
C2022 C2019 1.363 . S
C2022 N2020 1.356 . S
C2023 C2017 1.363 . S
C2023 C2018 1.379 . S
C2023 N2021 1.356 . S
N2024 C2016 1.356 . S
N2024 H2030 0.984 . S
N2024 H2031 0.984 . S
N2025 C2018 1.356 . S
N2025 H2028 0.984 . S
N2025 H2029 0.985 . S
H2026 N2021 0.984 1_455 S
H2027 N2021 0.985 . S
H2028 N2025 0.984 . S
H2029 N2025 0.985 . S
H2030 N2024 0.984 . S
H2031 N2024 0.984 . S
H2032 N2020 0.984 . S
H2033 N2020 0.985 . S
C2034 C2035 1.363 . S
C2034 C2040 1.379 . S
C2034 N2042 1.356 . S
C2035 C2034 1.363 . S
C2035 C2041 1.363 . S
C2036 C2037 1.363 . S
C2036 C2041 1.379 . S
C2036 N2043 1.356 . S
C2037 C2036 1.363 . S
C2037 C2040 1.363 . S
N2038 C2040 1.356 . S
N2038 H2050 0.984 . S
N2038 H2051 0.985 . S
N2039 C2041 1.356 . S
N2039 H2044 0.984 . S
N2039 H2045 0.985 . S
C2040 C2034 1.379 . S
C2040 C2037 1.363 . S
C2040 N2038 1.356 . S
C2041 C2035 1.363 . S
C2041 C2036 1.379 . S
C2041 N2039 1.356 . S
N2042 C2034 1.356 . S
N2042 H2048 0.984 . S
N2042 H2049 0.984 . S
N2043 C2036 1.356 . S
N2043 H2046 0.984 . S
N2043 H2047 0.985 . S
H2044 N2039 0.984 . S
H2045 N2039 0.985 . S
H2046 N2043 0.984 . S
H2047 N2043 0.985 . S
H2048 N2042 0.984 . S
H2049 N2042 0.984 . S
H2050 N2038 0.984 . S
H2051 N2038 0.985 . S
C2052 C2053 1.363 . S
C2052 C2058 1.379 . S
C2052 N2060 1.356 . S
C2053 C2052 1.363 . S
C2053 C2059 1.363 . S
C2054 C2055 1.363 . S
C2054 C2059 1.379 . S
C2054 N2061 1.356 . S
C2055 C2054 1.363 . S
C2055 C2058 1.363 . S
N2056 C2058 1.356 . S
N2056 H2068 0.984 . S
N2056 H2069 0.985 . S
N2057 C2059 1.356 . S
N2057 H2062 0.984 . S
N2057 H2063 0.985 . S
C2058 C2052 1.379 . S
C2058 C2055 1.363 . S
C2058 N2056 1.356 . S
C2059 C2053 1.363 . S
C2059 C2054 1.379 . S
C2059 N2057 1.356 . S
N2060 C2052 1.356 . S
N2060 H2066 0.984 . S
N2060 H2067 0.984 1_545 S
N2061 C2054 1.356 . S
N2061 H2064 0.984 . S
N2061 H2065 0.985 . S
H2062 N2057 0.984 . S
H2063 N2057 0.985 . S
H2064 N2061 0.984 . S
H2065 N2061 0.985 . S
H2066 N2060 0.984 . S
H2067 N2060 0.984 1_565 S
H2068 N2056 0.984 . S
H2069 N2056 0.985 . S
C2070 C2071 1.363 . S
C2070 C2076 1.379 . S
C2070 N2078 1.356 . S
C2071 C2070 1.363 . S
C2071 C2077 1.363 . S
C2072 C2073 1.363 . S
C2072 C2077 1.379 . S
C2072 N2079 1.356 . S
C2073 C2072 1.363 . S
C2073 C2076 1.363 . S
N2074 C2076 1.356 . S
N2074 H2086 0.984 . S
N2074 H2087 0.985 . S
N2075 C2077 1.356 . S
N2075 H2080 0.984 . S
N2075 H2081 0.985 . S
C2076 C2070 1.379 . S
C2076 C2073 1.363 . S
C2076 N2074 1.356 . S
C2077 C2071 1.363 . S
C2077 C2072 1.379 . S
C2077 N2075 1.356 . S
N2078 C2070 1.356 . S
N2078 H2084 0.984 . S
N2078 H2085 0.984 . S
N2079 C2072 1.356 . S
N2079 H2082 0.984 . S
N2079 H2083 0.985 . S
H2080 N2075 0.984 . S
H2081 N2075 0.985 . S
H2082 N2079 0.984 . S
H2083 N2079 0.985 . S
H2084 N2078 0.984 . S
H2085 N2078 0.984 . S
H2086 N2074 0.984 . S
H2087 N2074 0.985 . S
C2088 C2089 1.363 . S
C2088 C2094 1.379 . S
C2088 N2096 1.356 . S
C2089 C2088 1.363 . S
C2089 C2095 1.363 . S
C2090 C2091 1.363 . S
C2090 C2095 1.379 . S
C2090 N2097 1.356 . S
C2091 C2090 1.363 . S
C2091 C2094 1.363 . S
N2092 C2094 1.356 . S
N2092 H2104 0.984 . S
N2092 H2105 0.985 . S
N2093 C2095 1.356 . S
N2093 H2098 0.984 . S
N2093 H2099 0.985 . S
C2094 C2088 1.379 . S
C2094 C2091 1.363 . S
C2094 N2092 1.356 . S
C2095 C2089 1.363 . S
C2095 C2090 1.379 . S
C2095 N2093 1.356 . S
N2096 C2088 1.356 . S
N2096 H2102 0.984 . S
N2096 H2103 0.984 . S
N2097 C2090 1.356 . S
N2097 H2100 0.984 . S
N2097 H2101 0.985 . S
H2098 N2093 0.984 . S
H2099 N2093 0.985 . S
H2100 N2097 0.984 . S
H2101 N2097 0.985 . S
H2102 N2096 0.984 . S
H2103 N2096 0.984 . S
H2104 N2092 0.984 . S
H2105 N2092 0.985 . S
C2106 C2107 1.363 . S
C2106 C2112 1.379 . S
C2106 N2114 1.356 . S
C2107 C2106 1.363 . S
C2107 C2113 1.363 . S
C2108 C2109 1.363 . S
C2108 C2113 1.379 . S
C2108 N2115 1.356 . S
C2109 C2108 1.363 . S
C2109 C2112 1.363 . S
N2110 C2112 1.356 . S
N2110 H2122 0.984 . S
N2110 H2123 0.985 . S
N2111 C2113 1.356 . S
N2111 H2116 0.984 . S
N2111 H2117 0.985 . S
C2112 C2106 1.379 . S
C2112 C2109 1.363 . S
C2112 N2110 1.356 . S
C2113 C2107 1.363 . S
C2113 C2108 1.379 . S
C2113 N2111 1.356 . S
N2114 C2106 1.356 . S
N2114 H2120 0.984 . S
N2114 H2121 0.984 . S
N2115 C2108 1.356 . S
N2115 H2118 0.984 . S
N2115 H2119 0.985 . S
H2116 N2111 0.984 . S
H2117 N2111 0.985 . S
H2118 N2115 0.984 . S
H2119 N2115 0.985 . S
H2120 N2114 0.984 . S
H2121 N2114 0.984 . S
H2122 N2110 0.984 . S
H2123 N2110 0.985 . S
C2124 C2125 1.363 . S
C2124 C2130 1.379 . S
C2124 N2132 1.356 . S
C2125 C2124 1.363 . S
C2125 C2131 1.363 . S
C2126 C2127 1.363 . S
C2126 C2131 1.379 . S
C2126 N2133 1.356 . S
C2127 C2126 1.363 . S
C2127 C2130 1.363 . S
N2128 C2130 1.356 . S
N2128 H2140 0.984 1_565 S
N2128 H2141 0.987 . S
N2129 C2131 1.356 . S
N2129 H2134 0.984 . S
N2129 H2135 0.985 . S
C2130 C2124 1.379 . S
C2130 C2127 1.363 . S
C2130 N2128 1.356 . S
C2131 C2125 1.363 . S
C2131 C2126 1.379 . S
C2131 N2129 1.356 . S
N2132 C2124 1.356 . S
N2132 H2138 0.984 . S
N2132 H2139 0.984 . S
N2133 C2126 1.356 . S
N2133 H2136 0.984 . S
N2133 H2137 0.985 . S
H2134 N2129 0.984 . S
H2135 N2129 0.985 . S
H2136 N2133 0.984 . S
H2137 N2133 0.985 . S
H2138 N2132 0.984 . S
H2139 N2132 0.984 . S
H2140 N2128 0.984 1_545 S
H2141 N2128 0.987 . S
C2142 C2143 1.363 . S
C2142 C2148 1.379 . S
C2142 N2150 1.356 . S
C2143 C2142 1.363 . S
C2143 C2149 1.363 . S
C2144 C2145 1.363 . S
C2144 C2149 1.379 . S
C2144 N2151 1.356 . S
C2145 C2144 1.363 . S
C2145 C2148 1.363 . S
N2146 C2148 1.356 . S
N2146 H2158 0.984 . S
N2146 H2159 0.985 . S
N2147 C2149 1.356 . S
N2147 H2152 0.984 . S
N2147 H2153 0.985 . S
C2148 C2142 1.379 . S
C2148 C2145 1.363 . S
C2148 N2146 1.356 . S
C2149 C2143 1.363 . S
C2149 C2144 1.379 . S
C2149 N2147 1.356 . S
N2150 C2142 1.356 . S
N2150 H2156 0.984 . S
N2150 H2157 0.984 . S
N2151 C2144 1.356 . S
N2151 H2154 0.984 . S
N2151 H2155 0.985 . S
H2152 N2147 0.984 . S
H2153 N2147 0.985 . S
H2154 N2151 0.984 . S
H2155 N2151 0.985 . S
H2156 N2150 0.984 . S
H2157 N2150 0.984 . S
H2158 N2146 0.984 . S
H2159 N2146 0.985 . S
C2160 C2161 1.363 . S
C2160 C2166 1.379 . S
C2160 N2168 1.356 . S
C2161 C2160 1.363 . S
C2161 C2167 1.363 . S
C2162 C2163 1.363 . S
C2162 C2167 1.379 . S
C2162 N2169 1.356 . S
C2163 C2162 1.363 . S
C2163 C2166 1.363 . S
N2164 C2166 1.356 . S
N2164 H2176 0.984 . S
N2164 H2177 0.985 . S
N2165 C2167 1.356 . S
N2165 H2170 0.984 . S
N2165 H2171 0.985 . S
C2166 C2160 1.379 . S
C2166 C2163 1.363 . S
C2166 N2164 1.356 . S
C2167 C2161 1.363 . S
C2167 C2162 1.379 . S
C2167 N2165 1.356 . S
N2168 C2160 1.356 . S
N2168 H2174 0.984 . S
N2168 H2175 0.984 . S
N2169 C2162 1.356 . S
N2169 H2172 0.984 . S
N2169 H2173 0.985 . S
H2170 N2165 0.984 . S
H2171 N2165 0.985 . S
H2172 N2169 0.984 . S
H2173 N2169 0.985 . S
H2174 N2168 0.984 . S
H2175 N2168 0.984 . S
H2176 N2164 0.984 . S
H2177 N2164 0.985 . S
C2178 C2179 1.363 . S
C2178 C2184 1.379 . S
C2178 N2186 1.356 1_655 S
C2179 C2178 1.363 . S
C2179 C2185 1.363 . S
C2180 C2181 1.363 . S
C2180 C2185 1.379 . S
C2180 N2187 1.356 . S
C2181 C2180 1.363 . S
C2181 C2184 1.363 . S
N2182 C2184 1.356 1_455 S
N2182 H2194 0.984 . S
N2182 H2195 0.985 . S
N2183 C2185 1.356 . S
N2183 H2188 0.984 . S
N2183 H2189 0.985 . S
C2184 C2178 1.379 . S
C2184 C2181 1.363 . S
C2184 N2182 1.356 1_655 S
C2185 C2179 1.363 . S
C2185 C2180 1.379 . S
C2185 N2183 1.356 . S
N2186 C2178 1.356 1_455 S
N2186 H2192 0.984 . S
N2186 H2193 0.984 1_455 S
N2187 C2180 1.356 . S
N2187 H2190 0.984 . S
N2187 H2191 0.985 . S
H2188 N2183 0.984 . S
H2189 N2183 0.985 . S
H2190 N2187 0.984 . S
H2191 N2187 0.985 . S
H2192 N2186 0.984 . S
H2193 N2186 0.984 1_655 S
H2194 N2182 0.984 . S
H2195 N2182 0.985 . S
C2196 C2197 1.363 . S
C2196 C2202 1.379 . S
C2196 N2204 1.356 . S
C2197 C2196 1.363 . S
C2197 C2203 1.363 . S
C2198 C2199 1.363 . S
C2198 C2203 1.379 . S
C2198 N2205 1.356 . S
C2199 C2198 1.363 . S
C2199 C2202 1.363 . S
N2200 C2202 1.356 . S
N2200 H2212 0.984 . S
N2200 H2213 0.985 . S
N2201 C2203 1.356 . S
N2201 H2206 0.984 . S
N2201 H2207 0.985 . S
C2202 C2196 1.379 . S
C2202 C2199 1.363 . S
C2202 N2200 1.356 . S
C2203 C2197 1.363 . S
C2203 C2198 1.379 . S
C2203 N2201 1.356 . S
N2204 C2196 1.356 . S
N2204 H2210 0.984 . S
N2204 H2211 0.984 . S
N2205 C2198 1.356 . S
N2205 H2208 0.984 . S
N2205 H2209 0.985 . S
H2206 N2201 0.984 . S
H2207 N2201 0.985 . S
H2208 N2205 0.984 . S
H2209 N2205 0.985 . S
H2210 N2204 0.984 . S
H2211 N2204 0.984 . S
H2212 N2200 0.984 . S
H2213 N2200 0.985 . S
C2214 C2215 1.363 . S
C2214 C2220 1.379 . S
C2214 N2222 1.356 . S
C2215 C2214 1.363 . S
C2215 C2221 1.363 . S
C2216 C2217 1.363 . S
C2216 C2221 1.379 . S
C2216 N2223 1.356 . S
C2217 C2216 1.363 . S
C2217 C2220 1.363 . S
N2218 C2220 1.356 . S
N2218 H2230 0.984 . S
N2218 H2231 0.985 . S
N2219 C2221 1.356 . S
N2219 H2224 0.984 . S
N2219 H2225 0.985 . S
C2220 C2214 1.379 . S
C2220 C2217 1.363 . S
C2220 N2218 1.356 . S
C2221 C2215 1.363 . S
C2221 C2216 1.379 . S
C2221 N2219 1.356 . S
N2222 C2214 1.356 . S
N2222 H2228 0.984 . S
N2222 H2229 0.984 . S
N2223 C2216 1.356 . S
N2223 H2226 0.984 1_545 S
N2223 H2227 0.985 1_545 S
H2224 N2219 0.984 . S
H2225 N2219 0.985 . S
H2226 N2223 0.984 1_565 S
H2227 N2223 0.985 1_565 S
H2228 N2222 0.984 . S
H2229 N2222 0.984 . S
H2230 N2218 0.984 . S
H2231 N2218 0.985 . S
C2232 C2233 1.363 . S
C2232 C2238 1.379 . S
C2232 N2240 1.356 . S
C2233 C2232 1.363 . S
C2233 C2239 1.363 . S
C2234 C2235 1.363 . S
C2234 C2239 1.379 . S
C2234 N2241 1.356 . S
C2235 C2234 1.363 . S
C2235 C2238 1.363 . S
N2236 C2238 1.356 . S
N2236 H2248 0.984 . S
N2236 H2249 0.985 . S
N2237 C2239 1.356 . S
N2237 H2242 0.984 . S
N2237 H2243 0.985 . S
C2238 C2232 1.379 . S
C2238 C2235 1.363 . S
C2238 N2236 1.356 . S
C2239 C2233 1.363 . S
C2239 C2234 1.379 . S
C2239 N2237 1.356 . S
N2240 C2232 1.356 . S
N2240 H2246 0.984 . S
N2240 H2247 0.984 . S
N2241 C2234 1.356 . S
N2241 H2244 0.984 . S
N2241 H2245 0.985 . S
H2242 N2237 0.984 . S
H2243 N2237 0.985 . S
H2244 N2241 0.984 . S
H2245 N2241 0.985 . S
H2246 N2240 0.984 . S
H2247 N2240 0.984 . S
H2248 N2236 0.984 . S
H2249 N2236 0.985 . S
C2250 C2251 1.363 . S
C2250 C2256 1.379 . S
C2250 N2258 1.356 . S
C2251 C2250 1.363 . S
C2251 C2257 1.363 . S
C2252 C2253 1.363 . S
C2252 C2257 1.379 . S
C2252 N2259 1.356 . S
C2253 C2252 1.363 . S
C2253 C2256 1.363 . S
N2254 C2256 1.356 . S
N2254 H2266 0.984 . S
N2254 H2267 0.985 . S
N2255 C2257 1.356 . S
N2255 H2260 0.984 . S
N2255 H2261 0.985 . S
C2256 C2250 1.379 . S
C2256 C2253 1.363 . S
C2256 N2254 1.356 . S
C2257 C2251 1.363 . S
C2257 C2252 1.379 . S
C2257 N2255 1.356 . S
N2258 C2250 1.356 . S
N2258 H2264 0.984 . S
N2258 H2265 0.984 . S
N2259 C2252 1.356 . S
N2259 H2262 0.984 . S
N2259 H2263 0.985 . S
H2260 N2255 0.984 . S
H2261 N2255 0.985 . S
H2262 N2259 0.984 . S
H2263 N2259 0.985 . S
H2264 N2258 0.984 . S
H2265 N2258 0.984 . S
H2266 N2254 0.984 . S
H2267 N2254 0.985 . S
C2268 C2269 1.363 . S
C2268 C2274 1.379 . S
C2268 N2276 1.356 . S
C2269 C2268 1.363 . S
C2269 C2275 1.363 . S
C2270 C2271 1.363 . S
C2270 C2275 1.379 . S
C2270 N2277 1.356 . S
C2271 C2270 1.363 . S
C2271 C2274 1.363 . S
N2272 C2274 1.356 . S
N2272 H2284 0.984 . S
N2272 H2285 0.985 . S
N2273 C2275 1.356 . S
N2273 H2278 0.984 . S
N2273 H2279 0.985 . S
C2274 C2268 1.379 . S
C2274 C2271 1.363 . S
C2274 N2272 1.356 . S
C2275 C2269 1.363 . S
C2275 C2270 1.379 . S
C2275 N2273 1.356 . S
N2276 C2268 1.356 . S
N2276 H2282 0.984 . S
N2276 H2283 0.984 . S
N2277 C2270 1.356 . S
N2277 H2280 0.984 . S
N2277 H2281 0.985 . S
H2278 N2273 0.984 . S
H2279 N2273 0.985 . S
H2280 N2277 0.984 . S
H2281 N2277 0.985 . S
H2282 N2276 0.984 . S
H2283 N2276 0.984 . S
H2284 N2272 0.984 . S
H2285 N2272 0.985 . S
C2286 C2287 1.363 . S
C2286 C2292 1.379 . S
C2286 N2294 1.356 . S
C2287 C2286 1.363 . S
C2287 C2293 1.363 . S
C2288 C2289 1.363 . S
C2288 C2293 1.379 . S
C2288 N2295 1.356 . S
C2289 C2288 1.363 . S
C2289 C2292 1.363 . S
N2290 C2292 1.356 . S
N2290 H2302 0.984 . S
N2290 H2303 0.985 . S
N2291 C2293 1.356 . S
N2291 H2296 0.984 . S
N2291 H2297 0.985 . S
C2292 C2286 1.379 . S
C2292 C2289 1.363 . S
C2292 N2290 1.356 . S
C2293 C2287 1.363 . S
C2293 C2288 1.379 . S
C2293 N2291 1.356 . S
N2294 C2286 1.356 . S
N2294 H2300 0.984 . S
N2294 H2301 0.984 . S
N2295 C2288 1.356 . S
N2295 H2298 0.984 . S
N2295 H2299 0.985 . S
H2296 N2291 0.984 . S
H2297 N2291 0.985 . S
H2298 N2295 0.984 . S
H2299 N2295 0.985 . S
H2300 N2294 0.984 . S
H2301 N2294 0.984 . S
H2302 N2290 0.984 . S
H2303 N2290 0.985 . S
C2304 C2305 1.363 . S
C2304 C2310 1.379 . S
C2304 N2312 1.356 . S
C2305 C2304 1.363 . S
C2305 C2311 1.363 . S
C2306 C2307 1.363 . S
C2306 C2311 1.379 . S
C2306 N2313 1.356 . S
C2307 C2306 1.363 . S
C2307 C2310 1.363 . S
N2308 C2310 1.356 . S
N2308 H2320 0.984 . S
N2308 H2321 0.985 . S
N2309 C2311 1.356 . S
N2309 H2314 0.984 . S
N2309 H2315 0.985 . S
C2310 C2304 1.379 . S
C2310 C2307 1.363 . S
C2310 N2308 1.356 . S
C2311 C2305 1.363 . S
C2311 C2306 1.379 . S
C2311 N2309 1.356 . S
N2312 C2304 1.356 . S
N2312 H2318 0.984 . S
N2312 H2319 0.984 . S
N2313 C2306 1.356 . S
N2313 H2316 0.984 . S
N2313 H2317 0.985 . S
H2314 N2309 0.984 . S
H2315 N2309 0.985 . S
H2316 N2313 0.984 . S
H2317 N2313 0.985 . S
H2318 N2312 0.984 . S
H2319 N2312 0.984 . S
H2320 N2308 0.984 . S
H2321 N2308 0.985 . S
C2322 C2323 1.363 . S
C2322 C2328 1.379 . S
C2322 N2330 1.356 . S
C2323 C2322 1.363 . S
C2323 C2329 1.363 . S
C2324 C2325 1.363 . S
C2324 C2329 1.379 . S
C2324 N2331 1.356 . S
C2325 C2324 1.363 . S
C2325 C2328 1.363 . S
N2326 C2328 1.356 . S
N2326 H2338 0.984 . S
N2326 H2339 0.985 . S
N2327 C2329 1.356 . S
N2327 H2332 0.984 . S
N2327 H2333 0.985 . S
C2328 C2322 1.379 . S
C2328 C2325 1.363 . S
C2328 N2326 1.356 . S
C2329 C2323 1.363 . S
C2329 C2324 1.379 . S
C2329 N2327 1.356 . S
N2330 C2322 1.356 . S
N2330 H2336 0.984 . S
N2330 H2337 0.984 . S
N2331 C2324 1.356 . S
N2331 H2334 0.984 . S
N2331 H2335 0.985 . S
H2332 N2327 0.984 . S
H2333 N2327 0.985 . S
H2334 N2331 0.984 . S
H2335 N2331 0.985 . S
H2336 N2330 0.984 . S
H2337 N2330 0.984 . S
H2338 N2326 0.984 . S
H2339 N2326 0.985 . S
C2340 C2341 1.363 . S
C2340 C2346 1.379 . S
C2340 N2348 1.356 . S
C2341 C2340 1.363 . S
C2341 C2347 1.363 . S
C2342 C2343 1.363 . S
C2342 C2347 1.379 . S
C2342 N2349 1.356 . S
C2343 C2342 1.363 . S
C2343 C2346 1.363 . S
N2344 C2346 1.356 . S
N2344 H2356 0.984 . S
N2344 H2357 0.985 . S
N2345 C2347 1.356 . S
N2345 H2350 0.984 . S
N2345 H2351 0.985 . S
C2346 C2340 1.379 . S
C2346 C2343 1.363 . S
C2346 N2344 1.356 . S
C2347 C2341 1.363 . S
C2347 C2342 1.379 . S
C2347 N2345 1.356 . S
N2348 C2340 1.356 . S
N2348 H2354 0.984 . S
N2348 H2355 0.984 . S
N2349 C2342 1.356 . S
N2349 H2352 0.984 . S
N2349 H2353 0.985 . S
H2350 N2345 0.984 . S
H2351 N2345 0.985 . S
H2352 N2349 0.984 . S
H2353 N2349 0.985 . S
H2354 N2348 0.984 . S
H2355 N2348 0.984 . S
H2356 N2344 0.984 . S
H2357 N2344 0.985 . S
C2358 C2359 1.363 . S
C2358 C2364 1.379 . S
C2358 N2366 1.356 . S
C2359 C2358 1.363 . S
C2359 C2365 1.363 . S
C2360 C2361 1.363 . S
C2360 C2365 1.379 . S
C2360 N2367 1.356 . S
C2361 C2360 1.363 . S
C2361 C2364 1.363 . S
N2362 C2364 1.356 . S
N2362 H2374 0.984 . S
N2362 H2375 0.985 . S
N2363 C2365 1.356 . S
N2363 H2368 0.984 . S
N2363 H2369 0.985 . S
C2364 C2358 1.379 . S
C2364 C2361 1.363 . S
C2364 N2362 1.356 . S
C2365 C2359 1.363 . S
C2365 C2360 1.379 . S
C2365 N2363 1.356 . S
N2366 C2358 1.356 . S
N2366 H2372 0.984 . S
N2366 H2373 0.984 . S
N2367 C2360 1.356 . S
N2367 H2370 0.984 . S
N2367 H2371 0.985 . S
H2368 N2363 0.984 . S
H2369 N2363 0.985 . S
H2370 N2367 0.984 . S
H2371 N2367 0.985 . S
H2372 N2366 0.984 . S
H2373 N2366 0.984 . S
H2374 N2362 0.984 . S
H2375 N2362 0.985 . S
C2376 C2377 1.363 . S
C2376 C2382 1.379 . S
C2376 N2384 1.356 . S
C2377 C2376 1.363 . S
C2377 C2383 1.363 . S
C2378 C2379 1.363 . S
C2378 C2383 1.379 . S
C2378 N2385 1.356 . S
C2379 C2378 1.363 . S
C2379 C2382 1.363 . S
N2380 C2382 1.356 . S
N2380 H2392 0.984 . S
N2380 H2393 0.985 . S
N2381 C2383 1.356 . S
N2381 H2386 0.984 . S
N2381 H2387 0.985 . S
C2382 C2376 1.379 . S
C2382 C2379 1.363 . S
C2382 N2380 1.356 . S
C2383 C2377 1.363 . S
C2383 C2378 1.379 . S
C2383 N2381 1.356 . S
N2384 C2376 1.356 . S
N2384 H2390 0.984 . S
N2384 H2391 0.984 . S
N2385 C2378 1.356 . S
N2385 H2388 0.984 . S
N2385 H2389 0.985 . S
H2386 N2381 0.984 . S
H2387 N2381 0.985 . S
H2388 N2385 0.984 . S
H2389 N2385 0.985 . S
H2390 N2384 0.984 . S
H2391 N2384 0.984 . S
H2392 N2380 0.984 . S
H2393 N2380 0.985 . S
C2394 C2395 1.363 . S
C2394 C2400 1.379 . S
C2394 N2402 1.356 . S
C2395 C2394 1.363 . S
C2395 C2401 1.363 . S
C2396 C2397 1.363 . S
C2396 C2401 1.379 . S
C2396 N2403 1.356 . S
C2397 C2396 1.363 . S
C2397 C2400 1.363 . S
N2398 C2400 1.356 . S
N2398 H2410 0.984 . S
N2398 H2411 0.985 . S
N2399 C2401 1.356 . S
N2399 H2404 0.984 . S
N2399 H2405 0.985 . S
C2400 C2394 1.379 . S
C2400 C2397 1.363 . S
C2400 N2398 1.356 . S
C2401 C2395 1.363 . S
C2401 C2396 1.379 . S
C2401 N2399 1.356 . S
N2402 C2394 1.356 . S
N2402 H2408 0.984 . S
N2402 H2409 0.984 . S
N2403 C2396 1.356 . S
N2403 H2406 0.984 . S
N2403 H2407 0.985 . S
H2404 N2399 0.984 . S
H2405 N2399 0.985 . S
H2406 N2403 0.984 . S
H2407 N2403 0.985 . S
H2408 N2402 0.984 . S
H2409 N2402 0.984 . S
H2410 N2398 0.984 . S
H2411 N2398 0.985 . S
C2412 C2413 1.363 . S
C2412 C2418 1.379 . S
C2412 N2420 1.356 . S
C2413 C2412 1.363 . S
C2413 C2419 1.363 . S
C2414 C2415 1.363 . S
C2414 C2419 1.379 . S
C2414 N2421 1.356 . S
C2415 C2414 1.363 . S
C2415 C2418 1.363 . S
N2416 C2418 1.356 . S
N2416 H2428 0.984 . S
N2416 H2429 0.985 . S
N2417 C2419 1.356 . S
N2417 H2422 0.984 . S
N2417 H2423 0.985 . S
C2418 C2412 1.379 . S
C2418 C2415 1.363 . S
C2418 N2416 1.356 . S
C2419 C2413 1.363 . S
C2419 C2414 1.379 . S
C2419 N2417 1.356 . S
N2420 C2412 1.356 . S
N2420 H2426 0.984 . S
N2420 H2427 0.984 . S
N2421 C2414 1.356 . S
N2421 H2424 0.984 . S
N2421 H2425 0.985 . S
H2422 N2417 0.984 . S
H2423 N2417 0.985 . S
H2424 N2421 0.984 . S
H2425 N2421 0.985 . S
H2426 N2420 0.984 . S
H2427 N2420 0.984 . S
H2428 N2416 0.984 . S
H2429 N2416 0.985 . S
C2430 C2431 1.363 . S
C2430 C2436 1.379 . S
C2430 N2438 1.356 . S
C2431 C2430 1.363 . S
C2431 C2437 1.363 . S
C2432 C2433 1.363 . S
C2432 C2437 1.379 . S
C2432 N2439 1.356 . S
C2433 C2432 1.363 . S
C2433 C2436 1.363 . S
N2434 C2436 1.356 . S
N2434 H2446 0.984 . S
N2434 H2447 0.985 . S
N2435 C2437 1.356 . S
N2435 H2440 0.984 . S
N2435 H2441 0.985 . S
C2436 C2430 1.379 . S
C2436 C2433 1.363 . S
C2436 N2434 1.356 . S
C2437 C2431 1.363 . S
C2437 C2432 1.379 . S
C2437 N2435 1.356 . S
N2438 C2430 1.356 . S
N2438 H2444 0.984 . S
N2438 H2445 0.984 . S
N2439 C2432 1.356 . S
N2439 H2442 0.984 . S
N2439 H2443 0.985 . S
H2440 N2435 0.984 . S
H2441 N2435 0.985 . S
H2442 N2439 0.984 . S
H2443 N2439 0.985 . S
H2444 N2438 0.984 . S
H2445 N2438 0.984 . S
H2446 N2434 0.984 . S
H2447 N2434 0.985 . S
C1477 C522 1.503 . S
C1479 C787 1.415 . S
C1495 C562 1.487 . S
C1497 C871 1.413 . S
C1513 C495 1.525 . S
C1515 C951 1.470 . S
C1531 C455 1.473 . S
C1533 C867 1.424 . S
C1551 C955 1.350 . S
C1549 C362 1.429 . S
C1567 C402 1.496 . S
C1569 C783 1.414 . S
C1587 C776 1.438 . S
C1585 C442 1.476 . S
C1605 C860 1.397 . S
C1603 C375 1.462 . S
C1621 C415 1.531 . S
C1623 C962 1.469 . S
C1639 C535 1.477 . S
C1641 C878 1.422 . S
C1657 C575 1.405 . S
C1659 C944 1.333 . S
C1677 C794 1.439 . S
C1675 C482 1.458 . S
C1695 C1039 1.415 . S
C1693 C42 1.503 . S
C1711 C82 1.487 . S
C1713 C1123 1.413 . S
C1729 C15 1.526 1_565 S
C1731 C1203 1.471 . S
C1747 C695 1.473 . S
C1749 C1119 1.424 . S
C1765 C602 1.429 . S
C1767 C1207 1.350 . S
C1783 C642 1.496 . S
C1785 C1035 1.414 . S
C1801 C682 1.477 . S
C1803 C1028 1.439 . S
C1819 C615 1.462 . S
C1821 C1112 1.397 . S
C1839 C1214 1.469 . S
C1837 C655 1.531 . S
C1855 C55 1.478 . S
C1857 C1130 1.422 . S
C1875 C1196 1.333 . S
C1873 C95 1.405 . S
C1891 C2 1.458 . S
C1893 C1046 1.439 . S
C1911 C1291 1.415 . S
C1909 C282 1.503 . S
C1927 C322 1.487 . S
C1929 C1375 1.413 . S
C1947 C1455 1.470 . S
C1945 C255 1.525 . S
C1965 C1371 1.424 . S
C1963 C215 1.473 . S
C1983 C1459 1.350 . S
C1981 C122 1.429 . S
C1999 C162 1.496 . S
C2001 C1287 1.414 . S
C2017 C202 1.477 . S
C2019 C1280 1.438 . S
C2035 C135 1.462 . S
C2037 C1364 1.397 . S
C2055 C1466 1.469 . S
C2053 C175 1.531 . S
C2071 C295 1.478 . S
C2073 C1382 1.422 . S
C2089 C335 1.405 . S
C2091 C1448 1.333 . S
C2107 C242 1.458 . S
C2109 C1298 1.438 . S
C2125 C621 1.440 . S
C2127 C790 1.350 . S
C2145 C874 1.357 . S
C2143 C661 1.516 . S
C2161 C701 1.491 . S
C2163 C946 1.362 . S
C2179 C261 1.511 . S
C2181 C862 1.370 . S
C2197 C301 1.479 . S
C2199 C958 1.349 . S
C2217 C778 1.353 . S
C2215 C341 1.441 . S
C2233 C141 1.440 . S
C2235 C1042 1.350 . S
C2251 C181 1.516 . S
C2253 C1126 1.358 . S
C2269 C221 1.491 . S
C2271 C1198 1.362 . S
C2287 C501 1.511 . S
C2289 C1114 1.370 . S
C2307 C1210 1.349 . S
C2305 C541 1.479 . S
C2323 C581 1.441 . S
C2325 C1030 1.352 . S
C2341 C381 1.440 . S
C2343 C1294 1.350 . S
C2359 C421 1.516 . S
C2361 C1378 1.358 . S
C2379 C1450 1.362 . S
C2377 C461 1.491 . S
C2395 C21 1.511 . S
C2397 C1366 1.370 . S
C2413 C61 1.479 . S
C2415 C1462 1.349 . S
C2431 C101 1.441 . S
C2433 C1282 1.353 . S
