# Generated by pormake.
# Topology gar, (4,6)-cn, num edge types: 1
# Building blocks:
#     Node 0, Type 0, BuildingBlock: AZAVOO_clean_sbu_0, # of connection points: 4
#     Node 1, Type 0, BuildingBlock: AZAVOO_clean_sbu_0, # of connection points: 4
#     Node 2, Type 0, BuildingBlock: AZAVOO_clean_sbu_0, # of connection points: 4
#     Node 3, Type 0, BuildingBlock: AZAVOO_clean_sbu_0, # of connection points: 4
#     Node 4, Type 0, BuildingBlock: AZAVOO_clean_sbu_0, # of connection points: 4
#     Node 5, Type 0, BuildingBlock: AZAVOO_clean_sbu_0, # of connection points: 4
#     Node 6, Type 0, BuildingBlock: AZAVOO_clean_sbu_0, # of connection points: 4
#     Node 7, Type 0, BuildingBlock: AZAVOO_clean_sbu_0, # of connection points: 4
#     Node 8, Type 0, BuildingBlock: AZAVOO_clean_sbu_0, # of connection points: 4
#     Node 9, Type 0, BuildingBlock: AZAVOO_clean_sbu_0, # of connection points: 4
#     Node 10, Type 0, BuildingBlock: AZAVOO_clean_sbu_0, # of connection points: 4
#     Node 11, Type 0, BuildingBlock: AZAVOO_clean_sbu_0, # of connection points: 4
#     Node 12, Type 0, BuildingBlock: AZAVOO_clean_sbu_0, # of connection points: 4
#     Node 13, Type 0, BuildingBlock: AZAVOO_clean_sbu_0, # of connection points: 4
#     Node 14, Type 0, BuildingBlock: AZAVOO_clean_sbu_0, # of connection points: 4
#     Node 15, Type 0, BuildingBlock: AZAVOO_clean_sbu_0, # of connection points: 4
#     Node 16, Type 0, BuildingBlock: AZAVOO_clean_sbu_0, # of connection points: 4
#     Node 17, Type 0, BuildingBlock: AZAVOO_clean_sbu_0, # of connection points: 4
#     Node 18, Type 0, BuildingBlock: AZAVOO_clean_sbu_0, # of connection points: 4
#     Node 19, Type 0, BuildingBlock: AZAVOO_clean_sbu_0, # of connection points: 4
#     Node 20, Type 0, BuildingBlock: AZAVOO_clean_sbu_0, # of connection points: 4
#     Node 21, Type 0, BuildingBlock: AZAVOO_clean_sbu_0, # of connection points: 4
#     Node 22, Type 0, BuildingBlock: AZAVOO_clean_sbu_0, # of connection points: 4
#     Node 23, Type 0, BuildingBlock: AZAVOO_clean_sbu_0, # of connection points: 4
#     Node 24, Type 1, BuildingBlock: BETDEL_clean_sbu_0, # of connection points: 6
#     Node 25, Type 1, BuildingBlock: BETDEL_clean_sbu_0, # of connection points: 6
#     Node 26, Type 1, BuildingBlock: BETDEL_clean_sbu_0, # of connection points: 6
#     Node 27, Type 1, BuildingBlock: BETDEL_clean_sbu_0, # of connection points: 6
#     Node 28, Type 1, BuildingBlock: BETDEL_clean_sbu_0, # of connection points: 6
#     Node 29, Type 1, BuildingBlock: BETDEL_clean_sbu_0, # of connection points: 6
#     Node 30, Type 1, BuildingBlock: BETDEL_clean_sbu_0, # of connection points: 6
#     Node 31, Type 1, BuildingBlock: BETDEL_clean_sbu_0, # of connection points: 6
#     Node 32, Type 1, BuildingBlock: BETDEL_clean_sbu_0, # of connection points: 6
#     Node 33, Type 1, BuildingBlock: BETDEL_clean_sbu_0, # of connection points: 6
#     Node 34, Type 1, BuildingBlock: BETDEL_clean_sbu_0, # of connection points: 6
#     Node 35, Type 1, BuildingBlock: BETDEL_clean_sbu_0, # of connection points: 6
#     Node 36, Type 1, BuildingBlock: BETDEL_clean_sbu_0, # of connection points: 6
#     Node 37, Type 1, BuildingBlock: BETDEL_clean_sbu_0, # of connection points: 6
#     Node 38, Type 1, BuildingBlock: BETDEL_clean_sbu_0, # of connection points: 6
#     Node 39, Type 1, BuildingBlock: BETDEL_clean_sbu_0, # of connection points: 6
#     Edge 40, Type (0, 1), BuildingBlock: UVAHIK_clean_linker_0, # of connection points: 2
#     Edge 41, Type (0, 1), BuildingBlock: UVAHIK_clean_linker_0, # of connection points: 2
#     Edge 42, Type (0, 1), BuildingBlock: UVAHIK_clean_linker_0, # of connection points: 2
#     Edge 43, Type (0, 1), BuildingBlock: UVAHIK_clean_linker_0, # of connection points: 2
#     Edge 44, Type (0, 1), BuildingBlock: UVAHIK_clean_linker_0, # of connection points: 2
#     Edge 45, Type (0, 1), BuildingBlock: UVAHIK_clean_linker_0, # of connection points: 2
#     Edge 46, Type (0, 1), BuildingBlock: UVAHIK_clean_linker_0, # of connection points: 2
#     Edge 47, Type (0, 1), BuildingBlock: UVAHIK_clean_linker_0, # of connection points: 2
#     Edge 48, Type (0, 1), BuildingBlock: UVAHIK_clean_linker_0, # of connection points: 2
#     Edge 49, Type (0, 1), BuildingBlock: UVAHIK_clean_linker_0, # of connection points: 2
#     Edge 50, Type (0, 1), BuildingBlock: UVAHIK_clean_linker_0, # of connection points: 2
#     Edge 51, Type (0, 1), BuildingBlock: UVAHIK_clean_linker_0, # of connection points: 2
#     Edge 52, Type (0, 1), BuildingBlock: UVAHIK_clean_linker_0, # of connection points: 2
#     Edge 53, Type (0, 1), BuildingBlock: UVAHIK_clean_linker_0, # of connection points: 2
#     Edge 54, Type (0, 1), BuildingBlock: UVAHIK_clean_linker_0, # of connection points: 2
#     Edge 55, Type (0, 1), BuildingBlock: UVAHIK_clean_linker_0, # of connection points: 2
#     Edge 56, Type (0, 1), BuildingBlock: UVAHIK_clean_linker_0, # of connection points: 2
#     Edge 57, Type (0, 1), BuildingBlock: UVAHIK_clean_linker_0, # of connection points: 2
#     Edge 58, Type (0, 1), BuildingBlock: UVAHIK_clean_linker_0, # of connection points: 2
#     Edge 59, Type (0, 1), BuildingBlock: UVAHIK_clean_linker_0, # of connection points: 2
#     Edge 60, Type (0, 1), BuildingBlock: UVAHIK_clean_linker_0, # of connection points: 2
#     Edge 61, Type (0, 1), BuildingBlock: UVAHIK_clean_linker_0, # of connection points: 2
#     Edge 62, Type (0, 1), BuildingBlock: UVAHIK_clean_linker_0, # of connection points: 2
#     Edge 63, Type (0, 1), BuildingBlock: UVAHIK_clean_linker_0, # of connection points: 2
#     Edge 64, Type (0, 1), BuildingBlock: UVAHIK_clean_linker_0, # of connection points: 2
#     Edge 65, Type (0, 1), BuildingBlock: UVAHIK_clean_linker_0, # of connection points: 2
#     Edge 66, Type (0, 1), BuildingBlock: UVAHIK_clean_linker_0, # of connection points: 2
#     Edge 67, Type (0, 1), BuildingBlock: UVAHIK_clean_linker_0, # of connection points: 2
#     Edge 68, Type (0, 1), BuildingBlock: UVAHIK_clean_linker_0, # of connection points: 2
#     Edge 69, Type (0, 1), BuildingBlock: UVAHIK_clean_linker_0, # of connection points: 2
#     Edge 70, Type (0, 1), BuildingBlock: UVAHIK_clean_linker_0, # of connection points: 2
#     Edge 71, Type (0, 1), BuildingBlock: UVAHIK_clean_linker_0, # of connection points: 2
#     Edge 72, Type (0, 1), BuildingBlock: UVAHIK_clean_linker_0, # of connection points: 2
#     Edge 73, Type (0, 1), BuildingBlock: UVAHIK_clean_linker_0, # of connection points: 2
#     Edge 74, Type (0, 1), BuildingBlock: UVAHIK_clean_linker_0, # of connection points: 2
#     Edge 75, Type (0, 1), BuildingBlock: UVAHIK_clean_linker_0, # of connection points: 2
#     Edge 76, Type (0, 1), BuildingBlock: UVAHIK_clean_linker_0, # of connection points: 2
#     Edge 77, Type (0, 1), BuildingBlock: UVAHIK_clean_linker_0, # of connection points: 2
#     Edge 78, Type (0, 1), BuildingBlock: UVAHIK_clean_linker_0, # of connection points: 2
#     Edge 79, Type (0, 1), BuildingBlock: UVAHIK_clean_linker_0, # of connection points: 2
#     Edge 80, Type (0, 1), BuildingBlock: UVAHIK_clean_linker_0, # of connection points: 2
#     Edge 81, Type (0, 1), BuildingBlock: UVAHIK_clean_linker_0, # of connection points: 2
#     Edge 82, Type (0, 1), BuildingBlock: UVAHIK_clean_linker_0, # of connection points: 2
#     Edge 83, Type (0, 1), BuildingBlock: UVAHIK_clean_linker_0, # of connection points: 2
#     Edge 84, Type (0, 1), BuildingBlock: UVAHIK_clean_linker_0, # of connection points: 2
#     Edge 85, Type (0, 1), BuildingBlock: UVAHIK_clean_linker_0, # of connection points: 2
#     Edge 86, Type (0, 1), BuildingBlock: UVAHIK_clean_linker_0, # of connection points: 2
#     Edge 87, Type (0, 1), BuildingBlock: UVAHIK_clean_linker_0, # of connection points: 2
#     Edge 88, Type (0, 1), BuildingBlock: UVAHIK_clean_linker_0, # of connection points: 2
#     Edge 89, Type (0, 1), BuildingBlock: UVAHIK_clean_linker_0, # of connection points: 2
#     Edge 90, Type (0, 1), BuildingBlock: UVAHIK_clean_linker_0, # of connection points: 2
#     Edge 91, Type (0, 1), BuildingBlock: UVAHIK_clean_linker_0, # of connection points: 2
#     Edge 92, Type (0, 1), BuildingBlock: UVAHIK_clean_linker_0, # of connection points: 2
#     Edge 93, Type (0, 1), BuildingBlock: UVAHIK_clean_linker_0, # of connection points: 2
#     Edge 94, Type (0, 1), BuildingBlock: UVAHIK_clean_linker_0, # of connection points: 2
#     Edge 95, Type (0, 1), BuildingBlock: UVAHIK_clean_linker_0, # of connection points: 2
#     Edge 96, Type (0, 1), BuildingBlock: UVAHIK_clean_linker_0, # of connection points: 2
#     Edge 97, Type (0, 1), BuildingBlock: UVAHIK_clean_linker_0, # of connection points: 2
#     Edge 98, Type (0, 1), BuildingBlock: UVAHIK_clean_linker_0, # of connection points: 2
#     Edge 99, Type (0, 1), BuildingBlock: UVAHIK_clean_linker_0, # of connection points: 2
#     Edge 100, Type (0, 1), BuildingBlock: UVAHIK_clean_linker_0, # of connection points: 2
#     Edge 101, Type (0, 1), BuildingBlock: UVAHIK_clean_linker_0, # of connection points: 2
#     Edge 102, Type (0, 1), BuildingBlock: UVAHIK_clean_linker_0, # of connection points: 2
#     Edge 103, Type (0, 1), BuildingBlock: UVAHIK_clean_linker_0, # of connection points: 2
#     Edge 104, Type (0, 1), BuildingBlock: UVAHIK_clean_linker_0, # of connection points: 2
#     Edge 105, Type (0, 1), BuildingBlock: UVAHIK_clean_linker_0, # of connection points: 2
#     Edge 106, Type (0, 1), BuildingBlock: UVAHIK_clean_linker_0, # of connection points: 2
#     Edge 107, Type (0, 1), BuildingBlock: UVAHIK_clean_linker_0, # of connection points: 2
#     Edge 108, Type (0, 1), BuildingBlock: UVAHIK_clean_linker_0, # of connection points: 2
#     Edge 109, Type (0, 1), BuildingBlock: UVAHIK_clean_linker_0, # of connection points: 2
#     Edge 110, Type (0, 1), BuildingBlock: UVAHIK_clean_linker_0, # of connection points: 2
#     Edge 111, Type (0, 1), BuildingBlock: UVAHIK_clean_linker_0, # of connection points: 2
#     Edge 112, Type (0, 1), BuildingBlock: UVAHIK_clean_linker_0, # of connection points: 2
#     Edge 113, Type (0, 1), BuildingBlock: UVAHIK_clean_linker_0, # of connection points: 2
#     Edge 114, Type (0, 1), BuildingBlock: UVAHIK_clean_linker_0, # of connection points: 2
#     Edge 115, Type (0, 1), BuildingBlock: UVAHIK_clean_linker_0, # of connection points: 2
#     Edge 116, Type (0, 1), BuildingBlock: UVAHIK_clean_linker_0, # of connection points: 2
#     Edge 117, Type (0, 1), BuildingBlock: UVAHIK_clean_linker_0, # of connection points: 2
#     Edge 118, Type (0, 1), BuildingBlock: UVAHIK_clean_linker_0, # of connection points: 2
#     Edge 119, Type (0, 1), BuildingBlock: UVAHIK_clean_linker_0, # of connection points: 2
#     Edge 120, Type (0, 1), BuildingBlock: UVAHIK_clean_linker_0, # of connection points: 2
#     Edge 121, Type (0, 1), BuildingBlock: UVAHIK_clean_linker_0, # of connection points: 2
#     Edge 122, Type (0, 1), BuildingBlock: UVAHIK_clean_linker_0, # of connection points: 2
#     Edge 123, Type (0, 1), BuildingBlock: UVAHIK_clean_linker_0, # of connection points: 2
#     Edge 124, Type (0, 1), BuildingBlock: UVAHIK_clean_linker_0, # of connection points: 2
#     Edge 125, Type (0, 1), BuildingBlock: UVAHIK_clean_linker_0, # of connection points: 2
#     Edge 126, Type (0, 1), BuildingBlock: UVAHIK_clean_linker_0, # of connection points: 2
#     Edge 127, Type (0, 1), BuildingBlock: UVAHIK_clean_linker_0, # of connection points: 2
#     Edge 128, Type (0, 1), BuildingBlock: UVAHIK_clean_linker_0, # of connection points: 2
#     Edge 129, Type (0, 1), BuildingBlock: UVAHIK_clean_linker_0, # of connection points: 2
#     Edge 130, Type (0, 1), BuildingBlock: UVAHIK_clean_linker_0, # of connection points: 2
#     Edge 131, Type (0, 1), BuildingBlock: UVAHIK_clean_linker_0, # of connection points: 2
#     Edge 132, Type (0, 1), BuildingBlock: UVAHIK_clean_linker_0, # of connection points: 2
#     Edge 133, Type (0, 1), BuildingBlock: UVAHIK_clean_linker_0, # of connection points: 2
#     Edge 134, Type (0, 1), BuildingBlock: UVAHIK_clean_linker_0, # of connection points: 2
#     Edge 135, Type (0, 1), BuildingBlock: UVAHIK_clean_linker_0, # of connection points: 2
# Relax obj value: 0.164
# Max RMSD: 0.264
# Mean RMSD: 0.189
data_MOF--net-gar--node1-AZAVOO_clean_sbu_0--node2-BETDEL_clean_sbu_0--edge1-UVAHIK_clean_linker_0
_symmetry_space_group_name_H-M    P1
_symmetry_Int_Tables_number       1
_symmetry_cell_setting            triclinic
loop_
_symmetry_equiv_pos_as_xyz
'x, y, z'
_cell_length_a     71.991276
_cell_length_b     66.713328
_cell_length_c     69.413755
_cell_angle_alpha  97.488225
_cell_angle_beta   92.368689
_cell_angle_gamma 101.3039
loop_
_atom_site_label
_atom_site_type_symbol
_atom_site_fract_x
_atom_site_fract_y
_atom_site_fract_z
_atom_type_partial_charge
Mg0 Mg 0.99478 0.26739 0.37709 0.0
O1 O 0.00195 0.29439 0.40213 0.0
O2 O 0.97707 0.29212 0.42054 0.0
Mg3 Mg 0.95393 0.26481 0.40695 0.0
C4 C 0.99373 0.30092 0.41695 0.0
C5 C 0.03161 0.25676 0.36155 0.0
O6 O 0.02017 0.23854 0.35921 0.0
O7 O -0.00065 0.24492 0.39809 0.0
O8 O 0.97313 0.24272 0.41449 0.0
O9 O 0.98174 0.28649 0.3585 0.0
O10 O 0.96595 0.26738 0.37853 0.0
C11 C 0.98883 0.23729 0.41079 0.0
C12 C 0.96598 0.28037 0.36632 0.0
O13 O 0.0256 0.27233 0.36943 0.0
Mg14 Mg 0.98482 0.79234 0.64676 0.0
O15 O 0.98384 0.76 0.63088 0.0
O16 O 0.95651 0.74887 0.61279 0.0
Mg17 Mg 0.94064 0.77562 0.61608 0.0
C18 C 0.97254 0.74614 0.61928 0.0
C19 C 0.02046 0.79222 0.67247 0.0
O20 O 0.00749 0.79173 0.68526 0.0
O21 O 0.99162 0.80584 0.61905 0.0
O22 O 0.96406 0.79595 0.60107 0.0
O23 O 0.96987 0.77902 0.67078 0.0
O24 O 0.95519 0.78728 0.64524 0.0
C25 C 0.9814 0.80555 0.60353 0.0
C26 C 0.95414 0.77936 0.66124 0.0
O27 O 0.01589 0.79385 0.65496 0.0
Mg28 Mg 0.50285 0.77774 0.89252 0.0
O29 O 0.50782 0.80566 0.91651 0.0
O30 O 0.48069 0.80468 0.93123 0.0
Mg31 Mg 0.45867 0.77674 0.91651 0.0
C32 C 0.49791 0.81318 0.92936 0.0
C33 C 0.53986 0.76506 0.88237 0.0
O34 O 0.52765 0.74737 0.88057 0.0
O35 O 0.504 0.75594 0.91478 0.0
O36 O 0.4759 0.75418 0.92766 0.0
O37 O 0.49336 0.79684 0.87191 0.0
O38 O 0.47413 0.77805 0.88985 0.0
C39 C 0.49182 0.74852 0.92617 0.0
C40 C 0.47648 0.79121 0.87765 0.0
O41 O 0.53432 0.7815 0.88861 0.0
Mg42 Mg 0.49583 0.31517 0.16469 0.0
O43 O 0.50253 0.28338 0.1539 0.0
O44 O 0.47589 0.26479 0.1375 0.0
Mg45 Mg 0.45323 0.2844 0.13683 0.0
C46 C 0.49304 0.26665 0.14419 0.0
C47 C 0.54301 0.3266 0.17165 0.0
O48 O 0.55819 0.34147 0.1747 0.0
O49 O 0.49818 0.32286 0.13426 0.0
O50 O 0.47136 0.30569 0.11758 0.0
O51 O 0.48448 0.30476 0.19206 0.0
O52 O 0.46732 0.30187 0.16439 0.0
C53 C 0.48742 0.31819 0.11864 0.0
C54 C 0.46819 0.29857 0.18224 0.0
O55 O 0.52682 0.33146 0.17159 0.0
Mg56 Mg 0.01588 0.79154 0.15274 0.0
O57 O 0.01476 0.75873 0.13702 0.0
O58 O 0.985 0.74633 0.12447 0.0
Mg59 Mg 0.96735 0.77092 0.13178 0.0
C60 C 0.00215 0.7444 0.12733 0.0
C61 C 0.05581 0.81393 0.16748 0.0
O62 O 0.045 0.82623 0.17504 0.0
O63 O 0.01558 0.80322 0.12344 0.0
O64 O 0.9853 0.79121 0.11211 0.0
O65 O 0.00657 0.78011 0.18046 0.0
O66 O 0.98719 0.78504 0.15688 0.0
C67 C 0.00201 0.80147 0.11047 0.0
C68 C 0.98939 0.77959 0.17378 0.0
O69 O 0.04806 0.7976 0.15619 0.0
Mg70 Mg 0.48179 0.73065 0.36364 0.0
O71 O 0.48152 0.76205 0.38189 0.0
O72 O 0.45393 0.75808 0.39608 0.0
Mg73 Mg 0.43636 0.72574 0.38605 0.0
C74 C 0.46997 0.76902 0.39323 0.0
C75 C 0.5199 0.75404 0.35065 0.0
O76 O 0.5082 0.76495 0.34431 0.0
O77 O 0.48679 0.71743 0.39145 0.0
O78 O 0.45818 0.71277 0.40346 0.0
O79 O 0.46868 0.73998 0.33765 0.0
O80 O 0.45228 0.72458 0.35971 0.0
C81 C 0.47561 0.71122 0.40421 0.0
C82 C 0.45235 0.73321 0.34412 0.0
O83 O 0.51351 0.7395 0.36024 0.0
Mg84 Mg 0.51223 0.3005 0.65235 0.0
O85 O 0.51 0.26613 0.6413 0.0
O86 O 0.47977 0.25275 0.63096 0.0
Mg87 Mg 0.46284 0.27846 0.63518 0.0
C88 C 0.49694 0.25091 0.63389 0.0
C89 C 0.55291 0.32055 0.66649 0.0
O90 O 0.54294 0.33296 0.67553 0.0
O91 O 0.51062 0.30711 0.62106 0.0
O92 O 0.4798 0.29486 0.6123 0.0
O93 O 0.50435 0.29377 0.68206 0.0
O94 O 0.4839 0.29572 0.65811 0.0
C95 C 0.49636 0.30401 0.60867 0.0
C96 C 0.48694 0.29256 0.67574 0.0
O97 O 0.5443 0.30532 0.65435 0.0
Mg98 Mg 0.97795 0.22476 0.8644 0.0
O99 O 0.97843 0.25751 0.88012 0.0
O100 O 0.95094 0.25628 0.89428 0.0
Mg101 Mg 0.93344 0.22343 0.88823 0.0
C102 C 0.96707 0.26619 0.89035 0.0
C103 C 0.01532 0.24769 0.85001 0.0
O104 O 0.00336 0.25881 0.84464 0.0
O105 O 0.98385 0.21444 0.89346 0.0
O106 O 0.95586 0.21227 0.90664 0.0
O107 O 0.96413 0.23188 0.83776 0.0
O108 O 0.94835 0.21897 0.86148 0.0
C109 C 0.97315 0.21018 0.90718 0.0
C110 C 0.94805 0.22636 0.84522 0.0
O111 O 0.00942 0.23296 0.85956 0.0
Mg112 Mg 0.39667 0.0739 0.29924 0.0
O113 O 0.38553 0.03999 0.30244 0.0
O114 O 0.37613 0.03717 0.33235 0.0
Mg115 Mg 0.38119 0.07007 0.34848 0.0
C116 C 0.37848 0.0291 0.31515 0.0
C117 C 0.4067 0.05028 0.26261 0.0
O118 O 0.41282 0.04163 0.27691 0.0
O119 O 0.36623 0.07757 0.29691 0.0
O120 O 0.35767 0.07574 0.32738 0.0
O121 O 0.4255 0.0726 0.30973 0.0
O122 O 0.40367 0.08063 0.32919 0.0
C123 C 0.35395 0.07778 0.30964 0.0
C124 C 0.42044 0.0768 0.32722 0.0
O125 O 0.39771 0.06474 0.26664 0.0
Mg126 Mg 0.28595 0.15206 0.48972 0.0
O127 O 0.28485 0.17201 0.51884 0.0
O128 O 0.31257 0.19428 0.52502 0.0
Mg129 Mg 0.33146 0.18774 0.50003 0.0
C130 C 0.29587 0.1869 0.52965 0.0
C131 C 0.24882 0.12243 0.4789 0.0
O132 O 0.26151 0.11339 0.47024 0.0
O133 O 0.28293 0.17847 0.47328 0.0
O134 O 0.31181 0.19881 0.47816 0.0
O135 O 0.29734 0.12944 0.50477 0.0
O136 O 0.31527 0.15562 0.49338 0.0
C137 C 0.2949 0.19436 0.47017 0.0
C138 C 0.31412 0.13977 0.50246 0.0
O139 O 0.25424 0.14032 0.48853 0.0
Mg140 Mg 0.11469 -0.0002 0.77594 0.0
O141 O 0.13209 0.03214 0.78596 0.0
O142 O 0.14669 0.03327 0.81517 0.0
Mg143 Mg 0.13753 0.00111 0.82427 0.0
C144 C 0.14309 0.04189 0.80046 0.0
C145 C 0.10364 0.02228 0.74198 0.0
O146 O 0.09607 0.03197 0.75636 0.0
O147 O 0.14179 0.98825 0.7698 0.0
O148 O 0.15413 0.98766 0.79977 0.0
O149 O 0.08967 0.00815 0.7905 0.0
O150 O 0.11155 0.99482 0.80463 0.0
C151 C 0.15451 0.98427 0.78123 0.0
C152 C 0.0964 0.0023 0.80595 0.0
O153 O 0.11223 0.00805 0.74534 0.0
Mg154 Mg 0.27497 0.93356 0.0125 0.0
O155 O 0.27485 0.91329 0.98271 0.0
O156 O 0.30068 0.89945 0.98423 0.0
Mg157 Mg 0.3168 0.90999 0.01381 0.0
C158 C 0.28571 0.90184 0.97505 0.0
C159 C 0.237 0.94412 0.02167 0.0
O160 O 0.24667 0.94689 0.03861 0.0
O161 O 0.26516 0.90475 0.02687 0.0
O162 O 0.29162 0.89194 0.0278 0.0
O163 O 0.29285 0.96068 0.00179 0.0
O164 O 0.30437 0.93764 0.0161 0.0
C165 C 0.27426 0.89124 0.03143 0.0
C166 C 0.30748 0.95386 0.00753 0.0
O167 O 0.24454 0.93735 0.00657 0.0
Mg168 Mg 0.26717 0.40067 0.04545 0.0
O169 O 0.26645 0.38089 0.01557 0.0
O170 O 0.29116 0.36515 0.01623 0.0
Mg171 Mg 0.30787 0.37532 0.04561 0.0
C172 C 0.27641 0.36867 0.00752 0.0
C173 C 0.2279 0.41204 0.05204 0.0
O174 O 0.23489 0.41473 0.07019 0.0
O175 O 0.25657 0.37184 0.05934 0.0
O176 O 0.28245 0.35802 0.05988 0.0
O177 O 0.28489 0.42739 0.03468 0.0
O178 O 0.29657 0.40383 0.04823 0.0
C179 C 0.2652 0.35787 0.06366 0.0
C180 C 0.29945 0.41992 0.0394 0.0
O181 O 0.23738 0.40513 0.03861 0.0
Mg182 Mg 0.76915 0.13511 0.98412 0.0
O183 O 0.76714 0.14933 0.0158 0.0
O184 O 0.79706 0.16364 0.02695 0.0
Mg185 Mg 0.81776 0.15681 0.00407 0.0
C186 C 0.77924 0.15969 0.02923 0.0
C187 C 0.72312 0.13517 0.98416 0.0
O188 O 0.70815 0.13845 0.97456 0.0
O189 O 0.77666 0.167 0.97574 0.0
O190 O 0.80711 0.17935 0.98565 0.0
O191 O 0.77146 0.10461 0.9935 0.0
O192 O 0.79575 0.12989 0.99129 0.0
C193 C 0.79161 0.18105 0.97699 0.0
C194 C 0.78959 0.11184 0.99593 0.0
O195 O 0.7384 0.13578 0.97556 0.0
Mg196 Mg 0.11273 0.48844 0.24544 0.0
O197 O 0.12609 0.52315 0.25081 0.0
O198 O 0.14244 0.52991 0.27978 0.0
Mg199 Mg 0.14065 0.4998 0.29231 0.0
C200 C 0.1365 0.53575 0.26428 0.0
C201 C 0.09015 0.47834 0.20565 0.0
O202 O 0.08104 0.46407 0.21516 0.0
O203 O 0.14147 0.48142 0.23768 0.0
O204 O 0.1573 0.48866 0.26701 0.0
O205 O 0.08773 0.49418 0.26184 0.0
O206 O 0.1137 0.48714 0.2751 0.0
C207 C 0.15649 0.48284 0.24866 0.0
C208 C 0.09744 0.49205 0.2773 0.0
O209 O 0.10454 0.49105 0.21412 0.0
Mg210 Mg 0.77273 0.90389 0.5536 0.0
O211 O 0.77043 0.88331 0.52387 0.0
O212 O 0.79381 0.86567 0.52486 0.0
Mg213 Mg 0.81143 0.87571 0.5538 0.0
C214 C 0.77948 0.87001 0.51606 0.0
C215 C 0.73974 0.91923 0.53423 0.0
O216 O 0.75311 0.9239 0.52229 0.0
O217 O 0.76127 0.87597 0.5682 0.0
O218 O 0.78596 0.8604 0.56961 0.0
O219 O 0.79116 0.92944 0.54195 0.0
O220 O 0.80195 0.90532 0.55547 0.0
C221 C 0.76895 0.86166 0.57336 0.0
C222 C 0.80532 0.92114 0.54627 0.0
O223 O 0.74311 0.90986 0.54838 0.0
Mg224 Mg 0.88557 0.05639 0.24705 0.0
O225 O 0.86808 0.02429 0.25029 0.0
O226 O 0.86454 0.02442 0.28222 0.0
Mg227 Mg 0.87756 0.05625 0.29873 0.0
C228 C 0.86209 0.01526 0.26468 0.0
C229 C 0.88741 0.06613 0.20599 0.0
O230 O 0.89243 0.08411 0.21707 0.0
O231 O 0.85913 0.07005 0.25059 0.0
O232 O 0.85595 0.07056 0.28255 0.0
O233 O 0.91179 0.0446 0.25229 0.0
O234 O 0.89707 0.05979 0.27557 0.0
C235 C 0.85058 0.07439 0.26587 0.0
C236 C 0.91003 0.04964 0.27066 0.0
O237 O 0.88121 0.05033 0.21406 0.0
Mg238 Mg 0.27452 0.63833 0.48943 0.0
O239 O 0.27784 0.65739 0.51963 0.0
O240 O 0.30879 0.67054 0.52657 0.0
Mg241 Mg 0.32523 0.65731 0.50207 0.0
C242 C 0.29149 0.66862 0.53084 0.0
C243 C 0.22918 0.63924 0.49456 0.0
O244 O 0.21458 0.64692 0.48938 0.0
O245 O 0.28291 0.66742 0.47607 0.0
O246 O 0.31425 0.67794 0.48177 0.0
O247 O 0.27601 0.60945 0.50249 0.0
O248 O 0.30079 0.63092 0.49422 0.0
C249 C 0.29833 0.67989 0.4742 0.0
C250 C 0.29427 0.61463 0.50188 0.0
O251 O 0.24427 0.64331 0.48577 0.0
Mg252 Mg 0.38676 0.55165 0.74468 0.0
O253 O 0.36536 0.52153 0.74681 0.0
O254 O 0.35934 0.52253 0.77827 0.0
Mg255 Mg 0.37473 0.55318 0.79541 0.0
C256 C 0.35725 0.51334 0.76076 0.0
C257 C 0.38954 0.56227 0.70376 0.0
O258 O 0.39362 0.58025 0.71493 0.0
O259 O 0.36332 0.56997 0.74653 0.0
O260 O 0.35733 0.57117 0.77795 0.0
O261 O 0.41007 0.53591 0.75175 0.0
O262 O 0.39599 0.55381 0.77372 0.0
C263 C 0.35437 0.57591 0.76098 0.0
C264 C 0.40775 0.5418 0.76986 0.0
O265 O 0.38397 0.54619 0.71164 0.0
Mg266 Mg 0.62047 0.98587 0.75905 0.0
O267 O 0.63232 0.02093 0.76204 0.0
O268 O 0.64772 0.03029 0.79147 0.0
Mg269 Mg 0.6471 0.00185 0.80638 0.0
C270 C 0.6419 0.03468 0.77522 0.0
C271 C 0.60191 0.96801 0.7188 0.0
O272 O 0.59639 0.95307 0.72919 0.0
O273 O 0.64988 0.98018 0.75314 0.0
O274 O 0.66518 0.99012 0.78259 0.0
O275 O 0.59465 0.9918 0.77361 0.0
O276 O 0.62076 0.98727 0.7889 0.0
C277 C 0.66485 0.98313 0.76451 0.0
C278 C 0.60423 0.99181 0.78982 0.0
O279 O 0.61278 0.98455 0.72697 0.0
Mg280 Mg 0.78435 0.65106 0.99539 0.0
O281 O 0.78545 0.67002 0.02547 0.0
O282 O 0.81311 0.69256 0.02981 0.0
Mg283 Mg 0.82991 0.68714 0.00288 0.0
C284 C 0.79709 0.68479 0.03577 0.0
C285 C 0.74737 0.62039 0.98827 0.0
O286 O 0.75981 0.61095 0.97958 0.0
O287 O 0.77937 0.67806 0.98061 0.0
O288 O 0.80828 0.69836 0.98347 0.0
O289 O 0.79778 0.62796 0.00775 0.0
O290 O 0.8137 0.65513 0.99617 0.0
C291 C 0.79086 0.69406 0.97697 0.0
C292 C 0.81393 0.63878 0.00414 0.0
O293 O 0.75292 0.63879 0.99673 0.0
Mg294 Mg 0.90369 0.56598 0.76632 0.0
O295 O 0.89203 0.53507 0.77579 0.0
O296 O 0.89133 0.53754 0.80808 0.0
Mg297 Mg 0.90336 0.57179 0.81947 0.0
C298 C 0.88823 0.52695 0.79114 0.0
C299 C 0.89622 0.54356 0.72109 0.0
O300 O 0.88422 0.5349 0.70618 0.0
O301 O 0.87608 0.57554 0.77323 0.0
O302 O 0.87641 0.57966 0.80573 0.0
O303 O 0.93311 0.55964 0.7697 0.0
O304 O 0.91911 0.57574 0.79294 0.0
C305 C 0.86839 0.57995 0.78901 0.0
C306 C 0.93337 0.56789 0.78769 0.0
O307 O 0.8899 0.55209 0.73615 0.0
Mg308 Mg 0.7678 0.41399 0.50837 0.0
O309 O 0.76532 0.39223 0.47912 0.0
O310 O 0.7891 0.37525 0.48067 0.0
Mg311 Mg 0.80667 0.38589 0.50949 0.0
C312 C 0.77451 0.37885 0.47172 0.0
C313 C 0.73248 0.43 0.51807 0.0
O314 O 0.74286 0.43291 0.5346 0.0
O315 O 0.756 0.38647 0.52376 0.0
O316 O 0.78089 0.37101 0.52473 0.0
O317 O 0.78773 0.43932 0.49698 0.0
O318 O 0.79674 0.41504 0.5116 0.0
C319 C 0.76391 0.37218 0.52866 0.0
C320 C 0.80136 0.43116 0.50312 0.0
O321 O 0.73846 0.42104 0.50297 0.0
Mg322 Mg 0.62515 0.49731 0.27822 0.0
O323 O 0.64509 0.52855 0.28709 0.0
O324 O 0.66086 0.52872 0.31546 0.0
Mg325 Mg 0.65061 0.49686 0.32467 0.0
C326 C 0.65715 0.53764 0.301 0.0
C327 C 0.60814 0.49497 0.23621 0.0
O328 O 0.59769 0.47839 0.24151 0.0
O329 O 0.64985 0.48247 0.26972 0.0
O330 O 0.66445 0.4817 0.29863 0.0
O331 O 0.60253 0.50856 0.2944 0.0
O332 O 0.62336 0.49276 0.30721 0.0
C333 C 0.66298 0.47771 0.28003 0.0
C334 C 0.60933 0.50206 0.30945 0.0
O335 O 0.62121 0.50596 0.24808 0.0
Dy336 Dy 0.98058 0.01239 0.01452 0.0
C337 C 0.06175 0.01668 0.0191 0.0
C338 C 0.94362 0.01508 0.01897 0.0
Dy339 Dy 0.02458 0.01962 0.02138 0.0
O340 O 0.95005 0.0074 0.00301 0.0
O341 O 0.95734 0.02109 0.03244 0.0
O342 O 0.98221 0.99661 0.98413 0.0
O343 O 0.00467 0.02014 0.99722 0.0
C344 C -0.00057 0.00658 0.98264 0.0
C345 C 0.00512 0.02594 0.0528 0.0
O346 O 0.02268 0.05079 0.01426 0.0
O347 O 0.99006 0.0471 0.01711 0.0
O348 O 0.05377 0.02108 0.03513 0.0
O349 O 0.04951 0.01434 0.00429 0.0
O350 O 0.02195 0.03675 0.05106 0.0
O351 O 0.00045 0.01188 0.03855 0.0
O352 O 0.983 0.98129 0.02151 0.0
O353 O 0.01521 0.98496 0.01658 0.0
C354 C 0.00708 0.05858 0.01526 0.0
C355 C -0.00155 0.97345 0.01904 0.0
Dy356 Dy 0.25555 0.77882 0.22956 0.0
C357 C 0.26575 0.77819 0.31314 0.0
C358 C 0.24688 0.78562 0.1927 0.0
Dy359 Dy 0.25749 0.78177 0.27526 0.0
O360 O 0.25594 0.77156 0.19702 0.0
O361 O 0.24259 0.79591 0.2085 0.0
O362 O 0.27715 0.75846 0.22683 0.0
O363 O 0.27684 0.77881 0.25245 0.0
C364 C 0.28347 0.76372 0.24499 0.0
C365 C 0.22957 0.79627 0.25868 0.0
O366 O 0.27706 0.81115 0.27238 0.0
O367 O 0.27106 0.81188 0.23917 0.0
O368 O 0.24872 0.77392 0.30463 0.0
O369 O 0.27808 0.78445 0.30101 0.0
O370 O 0.23712 0.80375 0.27615 0.0
O371 O 0.23605 0.78077 0.25225 0.0
O372 O 0.23533 0.74978 0.2337 0.0
O373 O 0.2473 0.74794 0.26496 0.0
C374 C 0.27907 0.82049 0.25669 0.0
C375 C 0.23678 0.73947 0.24867 0.0
Dy376 Dy 0.54005 0.01795 0.5191 0.0
C377 C 0.46242 0.02632 0.50747 0.0
C378 C 0.57461 0.00915 0.52738 0.0
Dy379 Dy 0.49635 0.01597 0.51557 0.0
O380 O 0.57115 0.02076 0.51457 0.0
O381 O 0.55926 0.0026 0.53579 0.0
O382 O 0.54366 0.03909 0.49605 0.0
O383 O 0.51883 0.01639 0.49583 0.0
C384 C 0.52667 0.03147 0.48799 0.0
C385 C 0.50982 0.00248 0.54672 0.0
O386 O 0.49668 0.98639 0.49684 0.0
O387 O 0.52762 0.98449 0.50661 0.0
O388 O 0.46567 0.01551 0.52107 0.0
O389 O 0.47751 0.03089 0.49806 0.0
O390 O 0.49282 0.99486 0.53864 0.0
O391 O 0.51761 0.0176 0.53887 0.0
O392 O 0.53934 0.04779 0.5378 0.0
O393 O 0.50891 0.04944 0.52626 0.0
C394 C 0.51066 0.9761 0.49749 0.0
C395 C 0.52549 0.05806 0.53583 0.0
Dy396 Dy 0.2333 0.27106 0.76117 0.0
C397 C 0.31474 0.28239 0.76507 0.0
C398 C 0.19525 0.2615 0.76559 0.0
Dy399 Dy 0.27634 0.27395 0.76711 0.0
O400 O 0.20378 0.27731 0.75797 0.0
O401 O 0.20744 0.25071 0.77035 0.0
O402 O 0.23836 0.29814 0.74455 0.0
O403 O 0.258 0.29615 0.76719 0.0
C404 C 0.25485 0.30613 0.75362 0.0
C405 C 0.25447 0.2389 0.77453 0.0
O406 O 0.27193 0.29117 0.79556 0.0
O407 O 0.23925 0.27953 0.79389 0.0
O408 O 0.3054 0.26785 0.77373 0.0
O409 O 0.30311 0.29238 0.75761 0.0
O410 O 0.27077 0.24696 0.78388 0.0
O411 O 0.25162 0.24889 0.76091 0.0
O412 O 0.23805 0.25585 0.73155 0.0
O413 O 0.27094 0.26662 0.7346 0.0
C414 C 0.25555 0.28866 0.80384 0.0
C415 C 0.25484 0.25851 0.72393 0.0
Dy416 Dy 0.01801 0.0037 0.46922 0.0
C417 C 0.05065 0.03691 0.54594 0.0
C418 C -2e-05 0.99161 0.43304 0.0
Dy419 Dy 0.0306 0.02397 0.51086 0.0
O420 O 0.01822 0.99548 0.43687 0.0
O421 O 0.9915 0.99394 0.4491 0.0
O422 O 0.04776 -0.00075 0.46496 0.0
O423 O 0.04307 0.02525 0.48316 0.0
C424 C 0.05549 0.01556 0.47709 0.0
C425 C 0.99297 0.01189 0.50352 0.0
O426 O 0.03127 0.05251 0.49707 0.0
O427 O 0.01218 0.03574 0.46973 0.0
O428 O 0.03342 0.03908 0.54204 0.0
O429 O 0.05699 0.02788 0.53061 0.0
O430 O 0.00085 0.02788 0.51596 0.0
O431 O 0.00544 0.00246 0.49709 0.0
O432 O 0.01747 0.97484 0.48218 0.0
O433 O 0.03406 0.99098 0.51132 0.0
C434 C 0.02051 0.05292 0.48122 0.0
C435 C 0.02655 0.97405 0.49898 0.0
Dy436 Dy 0.28078 0.80038 0.75081 0.0
C437 C 0.20412 0.76132 0.72542 0.0
C438 C 0.31567 0.81701 0.76901 0.0
Dy439 Dy 0.2397 0.77744 0.74209 0.0
O440 O 0.31254 0.80917 0.75077 0.0
O441 O 0.29972 0.81593 0.77724 0.0
O442 O 0.28387 0.80238 0.71916 0.0
O443 O 0.26582 0.7767 0.72769 0.0
C444 C 0.27137 0.7855 0.71334 0.0
C445 C 0.24919 0.79341 0.77947 0.0
O446 O 0.25314 0.75035 0.7439 0.0
O447 O 0.28097 0.76936 0.76042 0.0
O448 O 0.20949 0.76121 0.74348 0.0
O449 O 0.2183 0.77 0.71639 0.0
O450 O 0.23669 0.77649 0.77417 0.0
O451 O 0.25455 0.80145 0.76472 0.0
O452 O 0.26838 0.82755 0.74606 0.0
O453 O 0.23879 0.80864 0.73334 0.0
C454 C 0.26934 0.75142 0.75411 0.0
C455 C 0.25134 0.82635 0.73745 0.0
Dy456 Dy 0.53434 0.04509 0.06362 0.0
C457 C 0.55603 0.04901 0.98364 0.0
C458 C 0.51663 0.04221 0.09713 0.0
Dy459 Dy 0.54675 0.05397 0.02112 0.0
O460 O 0.51277 0.02882 0.08146 0.0
O461 O 0.53058 0.05718 0.09472 0.0
O462 O 0.5457 0.01597 0.05909 0.0
O463 O 0.53484 0.02714 0.03502 0.0
C464 C 0.54326 0.01363 0.04019 0.0
C465 C 0.54555 0.08889 0.0453 0.0
O466 O 0.51529 0.04346 0.01594 0.0
O467 O 0.50744 0.04878 0.04818 0.0
O468 O 0.54334 0.05916 0.99006 0.0
O469 O 0.56376 0.04165 0.99774 0.0
O470 O 0.55113 0.08927 0.02773 0.0
O471 O 0.5415 0.07042 0.04782 0.0
O472 O 0.56539 0.05821 0.06979 0.0
O473 O 0.57391 0.05264 0.03754 0.0
C474 C 0.50267 0.04496 0.02917 0.0
C475 C 0.57819 0.05706 0.05665 0.0
Dy476 Dy 0.25142 0.29369 0.26354 0.0
C477 C 0.24377 0.20803 0.27318 0.0
C478 C 0.2503 0.33062 0.25149 0.0
Dy479 Dy 0.24365 0.2461 0.26333 0.0
O480 O 0.26047 0.32828 0.26666 0.0
O481 O 0.24062 0.31288 0.24317 0.0
O482 O 0.26738 0.29906 0.29291 0.0
O483 O 0.24534 0.27303 0.28506 0.0
C484 C 0.25861 0.28155 0.29763 0.0
C485 C 0.23729 0.259 0.22922 0.0
O486 O 0.2162 0.25232 0.27366 0.0
O487 O 0.21988 0.28649 0.26789 0.0
O488 O 0.23534 0.21143 0.25736 0.0
O489 O 0.25222 0.22536 0.28339 0.0
O490 O 0.2279 0.24167 0.23368 0.0
O491 O 0.25032 0.26688 0.24213 0.0
O492 O 0.27918 0.28721 0.25395 0.0
O493 O 0.27541 0.25355 0.26116 0.0
C494 C 0.20938 0.26925 0.27255 0.0
C495 C 0.28608 0.27055 0.25629 0.0
Dy496 Dy 0.51404 0.50897 0.97521 0.0
C497 C 0.54752 0.54004 0.05207 0.0
C498 C 0.49556 0.49644 0.93933 0.0
Dy499 Dy 0.52722 0.52838 0.01703 0.0
O500 O 0.51377 0.49932 0.94301 0.0
O501 O 0.48734 0.50025 0.95533 0.0
O502 O 0.54368 0.50446 0.97037 0.0
O503 O 0.53931 0.5302 0.98916 0.0
C504 C 0.55158 0.52053 0.98269 0.0
C505 C 0.48957 0.51645 0.00997 0.0
O506 O 0.52758 0.55732 0.00417 0.0
O507 O 0.5087 0.54138 0.97635 0.0
O508 O 0.53008 0.54179 0.04869 0.0
O509 O 0.55395 0.53222 0.03622 0.0
O510 O 0.4975 0.53215 0.02272 0.0
O511 O 0.50197 0.50715 0.0032 0.0
O512 O 0.51314 0.47984 0.98798 0.0
O513 O 0.53132 0.49556 0.01632 0.0
C514 C 0.51689 0.55823 0.98843 0.0
C515 C 0.52312 0.4788 0.00416 0.0
Dy516 Dy 0.75397 0.26684 0.256 0.0
C517 C 0.67599 0.23871 0.22363 0.0
C518 C 0.78692 0.28433 0.27752 0.0
Dy519 Dy 0.71139 0.25054 0.24234 0.0
O520 O 0.78436 0.28415 0.25879 0.0
O521 O 0.77149 0.27512 0.28435 0.0
O522 O 0.76285 0.24391 0.23368 0.0
O523 O 0.73811 0.25507 0.22793 0.0
C524 C 0.74796 0.24213 0.22188 0.0
C525 C 0.71957 0.26463 0.28052 0.0
O526 O 0.72129 0.22134 0.2451 0.0
O527 O 0.74592 0.23688 0.268 0.0
O528 O 0.67958 0.24293 0.24232 0.0
O529 O 0.69178 0.24106 0.215 0.0
O530 O 0.70568 0.24926 0.27424 0.0
O531 O 0.72725 0.27174 0.26634 0.0
O532 O 0.74722 0.29551 0.24653 0.0
O533 O 0.71528 0.28321 0.23573 0.0
C534 C 0.73455 0.22016 0.25845 0.0
C535 C 0.73081 0.29815 0.23883 0.0
Dy536 Dy 0.03673 0.52892 0.55744 0.0
C537 C 0.04932 0.52588 0.47533 0.0
C538 C 0.02865 0.53394 0.59561 0.0
Dy539 Dy 0.04156 0.53043 0.51351 0.0
O540 O 0.02395 0.51682 0.58369 0.0
O541 O 0.03771 0.54839 0.58668 0.0
O542 O 0.04762 0.49915 0.5548 0.0
O543 O 0.03241 0.50649 0.53125 0.0
C544 C 0.04168 0.49384 0.53656 0.0
C545 C 0.03442 0.56492 0.53311 0.0
O546 O 0.01028 0.51906 0.51253 0.0
O547 O 0.00697 0.52845 0.5455 0.0
O548 O 0.03892 0.51182 0.48374 0.0
O549 O 0.05565 0.54233 0.48782 0.0
O550 O 0.02954 0.55886 0.51476 0.0
O551 O 0.04458 0.55348 0.53957 0.0
O552 O 0.06819 0.5391 0.55822 0.0
O553 O 0.0706 0.52849 0.5253 0.0
C554 C -0.00039 0.52206 0.52733 0.0
C555 C 0.07831 0.53481 0.54329 0.0
Dy556 Dy 0.74118 0.77273 0.26949 0.0
C557 C 0.82239 0.78323 0.27258 0.0
C558 C 0.70303 0.76386 0.2736 0.0
Dy559 Dy 0.7841 0.77553 0.27578 0.0
O560 O 0.71181 0.77914 0.26544 0.0
O561 O 0.71504 0.75319 0.27911 0.0
O562 O 0.74646 0.79935 0.25234 0.0
O563 O 0.76591 0.79784 0.27531 0.0
C564 C 0.76288 0.8075 0.26146 0.0
C565 C 0.76216 0.74063 0.28344 0.0
O566 O 0.77974 0.79309 0.30413 0.0
O567 O 0.747 0.78171 0.30216 0.0
O568 O 0.81322 0.76936 0.28209 0.0
O569 O 0.81068 0.79313 0.26513 0.0
O570 O 0.77845 0.74876 0.29278 0.0
O571 O 0.75937 0.75044 0.26967 0.0
O572 O 0.74586 0.75666 0.24021 0.0
O573 O 0.7787 0.76758 0.2433 0.0
C574 C 0.76325 0.79082 0.31223 0.0
C575 C 0.76267 0.75915 0.23264 0.0
Dy576 Dy 0.75077 0.27969 0.73675 0.0
C577 C 0.75987 0.28216 0.82071 0.0
C578 C 0.74174 0.28433 0.69934 0.0
Dy579 Dy 0.75175 0.28395 0.78238 0.0
O580 O 0.7507 0.2705 0.7044 0.0
O581 O 0.73784 0.29568 0.7147 0.0
O582 O 0.77365 0.26115 0.7351 0.0
O583 O 0.77212 0.28182 0.76029 0.0
C584 C 0.77964 0.26719 0.75326 0.0
C585 C 0.72271 0.29532 0.76442 0.0
O586 O 0.76841 0.3149 0.77935 0.0
O587 O 0.76476 0.31326 0.74556 0.0
O588 O 0.743 0.27649 0.81185 0.0
O589 O 0.77214 0.28881 0.80866 0.0
O590 O 0.72942 0.30361 0.78198 0.0
O591 O 0.73051 0.28061 0.75872 0.0
O592 O 0.73178 0.25005 0.74129 0.0
O593 O 0.74345 0.24973 0.77298 0.0
C594 C 0.77084 0.32341 0.7632 0.0
C595 C 0.73358 0.24033 0.75658 0.0
Dy596 Dy 0.74934 0.78921 0.76837 0.0
C597 C 0.73952 0.70228 0.77302 0.0
C598 C 0.75052 0.82801 0.75982 0.0
Dy599 Dy 0.73966 0.74137 0.76565 0.0
O600 O 0.76148 0.82334 0.77318 0.0
O601 O 0.73867 0.81161 0.75155 0.0
O602 O 0.76637 0.79216 0.79681 0.0
O603 O 0.7433 0.76734 0.78889 0.0
C604 C 0.7572 0.77463 0.80107 0.0
C605 C 0.73227 0.75672 0.73311 0.0
O606 O 0.71289 0.74823 0.77724 0.0
O607 O 0.7181 0.78316 0.77367 0.0
O608 O 0.73288 0.70691 0.75683 0.0
O609 O 0.74612 0.71898 0.78508 0.0
O610 O 0.72245 0.73938 0.73716 0.0
O611 O 0.74605 0.76336 0.74548 0.0
O612 O 0.77542 0.78152 0.75564 0.0
O613 O 0.77117 0.74756 0.76191 0.0
C614 C 0.70705 0.76595 0.7777 0.0
C615 C 0.78184 0.76434 0.75671 0.0
Dy616 Dy 0.4847 0.51363 0.51178 0.0
C617 C 0.56587 0.51812 0.51744 0.0
C618 C 0.44758 0.51586 0.51581 0.0
Dy619 Dy 0.52885 0.52138 0.52016 0.0
O620 O 0.45474 0.51105 0.49936 0.0
O621 O 0.46065 0.51923 0.52994 0.0
O622 O 0.48758 0.49843 0.48137 0.0
O623 O 0.50944 0.52193 0.49568 0.0
C624 C 0.50489 0.50866 0.4808 0.0
C625 C 0.50844 0.52701 0.55083 0.0
O626 O 0.52676 0.55251 0.51297 0.0
O627 O 0.494 0.54841 0.51518 0.0
O628 O 0.55845 0.52391 0.53348 0.0
O629 O 0.55317 0.51463 0.50292 0.0
O630 O 0.52548 0.53776 0.54989 0.0
O631 O 0.50412 0.5132 0.53631 0.0
O632 O 0.48684 0.48192 0.51706 0.0
O633 O 0.51977 0.4867 0.51624 0.0
C634 C 0.51102 0.56009 0.51369 0.0
C635 C 0.50275 0.47469 0.51656 0.0
Dy636 Dy 0.04437 0.52283 0.99106 0.0
C637 C 0.96712 0.53282 0.98032 0.0
C638 C 0.07763 0.51291 0.00257 0.0
Dy639 Dy 0.0014 0.52283 0.98756 0.0
O640 O 0.07432 0.51904 0.98596 0.0
O641 O 0.06294 0.51247 0.01278 0.0
O642 O 0.049 0.54156 0.96635 0.0
O643 O 0.02319 0.52044 0.96721 0.0
C644 C 0.03185 0.53442 0.95838 0.0
C645 C 0.01432 0.51187 0.02046 0.0
O646 O 0.00054 0.49184 0.97077 0.0
O647 O 0.03074 0.48914 0.98198 0.0
O648 O 0.97027 0.51975 0.99177 0.0
O649 O 0.98261 0.53996 0.97236 0.0
O650 O 0.99716 0.50462 0.01283 0.0
O651 O 0.02259 0.52556 0.0112 0.0
O652 O 0.04541 0.55449 0.00697 0.0
O653 O 0.01465 0.55646 0.99686 0.0
C654 C 0.01375 0.48085 0.97301 0.0
C655 C 0.03172 0.56503 0.00542 0.0
C656 C 0.96842 0.19338 0.93736 0.0
C657 C 0.98064 0.20138 0.92368 0.0
C658 C 0.97495 0.183 0.95163 0.0
C659 C 0.01127 0.15274 0.95915 0.0
H660 H 0.99079 0.15091 0.00984 0.0
C661 C 0.02484 0.09157 0.00559 0.0
C662 C 0.00811 0.08015 0.01168 0.0
C663 C 0.02487 0.11056 -0.00088 0.0
C664 C 0.99669 0.15132 0.99576 0.0
H665 H 0.00967 0.20596 0.91515 0.0
H666 H 0.02112 0.1881 0.94023 0.0
H667 H 0.98475 0.1772 0.99032 0.0
H668 H 0.97871 0.08051 0.01725 0.0
H669 H 0.97874 0.11342 0.00581 0.0
H670 H 0.02263 0.12649 0.96421 0.0
C671 C 0.00636 0.18946 0.93963 0.0
C672 C 0.9932 0.16634 0.98457 0.0
C673 C -0.0002 0.19975 0.92529 0.0
C674 C 0.99181 0.0888 0.01249 0.0
C675 C 0.99186 0.10779 0.00607 0.0
C676 C 0.0148 0.13781 0.97035 0.0
C677 C 0.99389 0.18048 0.95264 0.0
C678 C -0.0 0.16683 0.96589 0.0
C679 C 0.00821 0.11854 -0.0013 0.0
C680 C 0.0071 0.13656 0.98853 0.0
H681 H 0.95358 0.19439 0.9366 0.0
H682 H 0.96489 0.17608 0.96124 0.0
H683 H 0.0165 0.15244 0.94473 0.0
H684 H 0.0377 0.08545 0.00493 0.0
H685 H 0.03776 0.11865 0.9938 0.0
C686 C 0.08762 0.804 0.16688 0.0
C687 C 0.0762 0.8178 0.17392 0.0
C688 C 0.10626 0.80638 0.17464 0.0
C689 C 0.13528 0.827 0.21994 0.0
H690 H 0.17629 0.81382 0.18942 0.0
C691 C 0.20762 0.82086 0.25591 0.0
C692 C 0.21416 0.80314 0.24839 0.0
C693 C 0.19258 0.82669 0.24607 0.0
C694 C 0.16497 0.81754 0.19814 0.0
H695 H 0.07574 0.84555 0.19391 0.0
H696 H 0.10829 0.84968 0.20741 0.0
H697 H 0.14656 0.81684 0.17292 0.0
H698 H 0.21019 0.77761 0.22481 0.0
H699 H 0.18413 0.78766 0.20779 0.0
H700 H 0.15338 0.82693 0.24516 0.0
C701 C 0.10273 0.83689 0.19606 0.0
C702 C 0.14796 0.81926 0.18869 0.0
C703 C 0.08411 0.83456 0.18825 0.0
C704 C 0.20559 0.7915 0.23085 0.0
C705 C 0.19071 0.79733 0.22102 0.0
C706 C 0.15227 0.82522 0.2294 0.0
C707 C 0.11387 0.82258 0.18963 0.0
C708 C 0.13277 0.8235 0.19949 0.0
C709 C 0.18392 0.81491 0.22854 0.0
C710 C 0.1671 0.81991 0.2186 0.0
H711 H 0.08197 0.79095 0.15582 0.0
H712 H 0.11442 0.79498 0.16951 0.0
H713 H 0.12376 0.83007 0.22869 0.0
H714 H 0.21403 0.8301 0.26942 0.0
H715 H 0.18769 0.84036 0.25219 0.0
C716 C 0.46501 0.79647 0.4195 0.0
C717 C 0.47532 0.79033 0.4038 0.0
C718 C 0.46974 0.81647 0.42956 0.0
C719 C 0.47437 0.86228 0.44073 0.0
H720 H 0.52659 0.89172 0.45117 0.0
C721 C 0.49211 0.94809 0.47266 0.0
C722 C 0.50754 0.955 0.48657 0.0
C723 C 0.48898 0.92826 0.46222 0.0
C724 C 0.51194 0.88364 0.44853 0.0
H725 H 0.49884 0.80045 0.38647 0.0
H726 H 0.5068 0.83569 0.40375 0.0
H727 H 0.51977 0.85645 0.43405 0.0
H728 H 0.53189 0.94651 0.50036 0.0
H729 H 0.5261 0.91156 0.4825 0.0
H730 H 0.46648 0.889 0.45577 0.0
C731 C 0.49525 0.82485 0.4085 0.0
C732 C 0.50801 0.86351 0.43847 0.0
C733 C 0.49062 0.80468 0.39851 0.0
C734 C 0.51988 0.94164 0.48971 0.0
C735 C 0.51662 0.92166 0.47938 0.0
C736 C 0.47828 0.88226 0.45088 0.0
C737 C 0.48477 0.83102 0.42408 0.0
C738 C 0.48916 0.85256 0.43448 0.0
C739 C 0.50106 0.91468 0.46556 0.0
C740 C 0.4971 0.89326 0.45488 0.0
H741 H 0.4533 0.78576 0.42418 0.0
H742 H 0.46163 0.82047 0.44177 0.0
H743 H 0.45966 0.8545 0.43767 0.0
H744 H 0.48247 0.95806 0.46964 0.0
H745 H 0.47712 0.92365 0.45139 0.0
C746 C 0.45339 0.29303 0.68251 0.0
C747 C 0.47106 0.2891 0.68849 0.0
C748 C 0.43886 0.29234 0.69517 0.0
C749 C 0.41562 0.26971 0.73218 0.0
H750 H 0.40011 0.32188 0.74649 0.0
C751 C 0.34649 0.27345 0.77028 0.0
C752 C 0.33517 0.28557 0.7622 0.0
C753 C 0.36543 0.27501 0.76582 0.0
C754 C 0.40423 0.30719 0.74264 0.0
H755 H 0.48711 0.28051 0.71214 0.0
H756 H 0.46113 0.27867 0.73424 0.0
H757 H 0.42897 0.3211 0.72938 0.0
H758 H 0.33478 0.30932 0.74377 0.0
H759 H 0.36757 0.31176 0.73558 0.0
H760 H 0.39022 0.25548 0.74405 0.0
C761 C 0.45888 0.28257 0.71978 0.0
C762 C 0.42081 0.30681 0.73303 0.0
C763 C 0.47363 0.28361 0.70717 0.0
C764 C 0.34324 0.29983 0.75022 0.0
C765 C 0.3621 0.30131 0.74566 0.0
C766 C 0.39886 0.27002 0.74159 0.0
C767 C 0.44158 0.28739 0.71394 0.0
C768 C 0.42631 0.28802 0.72728 0.0
C769 C 0.37334 0.28867 0.75313 0.0
C770 C 0.39265 0.28871 0.74634 0.0
H771 H 0.45096 0.29741 0.66828 0.0
H772 H 0.42553 0.29595 0.6904 0.0
H773 H 0.41962 0.25505 0.72768 0.0
H774 H 0.34057 0.2624 0.77966 0.0
H775 H 0.37377 0.26526 0.77201 0.0
C776 C 0.9797 0.81637 0.5703 0.0
C777 C 0.98938 0.81821 0.58865 0.0
C778 C 0.98609 0.83001 0.55719 0.0
C779 C 0.02655 0.87165 0.54814 0.0
H780 H 0.9865 0.89238 0.52306 0.0
C781 C 0.03614 0.95198 0.5227 0.0
C782 C 0.02622 0.95363 0.50529 0.0
C783 C 0.03385 0.93309 0.5299 0.0
C784 C 0.99787 0.88653 0.52967 0.0
H785 H 0.01388 0.83526 0.60723 0.0
H786 H 0.02463 0.85935 0.58473 0.0
H787 H 0.9783 0.86331 0.54095 0.0
H788 H 0.00688 0.93643 0.48127 0.0
H789 H 0.00285 0.90358 0.49393 0.0
H790 H 0.04603 0.89575 0.53755 0.0
C791 C 0.01233 0.84715 0.58021 0.0
C792 C 0.99318 0.86977 0.53991 0.0
C793 C 0.00608 0.83337 0.59321 0.0
C794 C 0.01469 0.93576 0.49476 0.0
C795 C 0.01229 0.91694 0.50204 0.0
C796 C 0.03122 0.88858 0.53805 0.0
C797 C 0.00217 0.84596 0.5622 0.0
C798 C 0.00743 0.8623 0.54955 0.0
C799 C 0.02149 0.91552 0.5199 0.0
C800 C 0.0169 0.89636 0.52895 0.0
H801 H 0.96693 0.80469 0.56622 0.0
H802 H 0.97816 0.82832 0.54327 0.0
H803 H 0.03791 0.86609 0.55509 0.0
H804 H 0.0452 0.96541 0.53113 0.0
H805 H 0.04103 0.93248 0.54377 0.0
C806 C 0.46361 0.81633 0.8599 0.0
C807 C 0.46039 0.79906 0.86987 0.0
C808 C 0.44847 0.8222 0.85041 0.0
C809 C 0.40433 0.7988 0.82414 0.0
H810 H 0.39142 0.85298 0.82926 0.0
C811 C 0.33622 0.83006 0.79958 0.0
C812 C 0.33444 0.82233 0.77964 0.0
C813 C 0.35326 0.83137 0.81051 0.0
C814 C 0.39502 0.83786 0.82767 0.0
H815 H 0.43882 0.77496 0.8785 0.0
H816 H 0.41242 0.78496 0.86146 0.0
H817 H 0.41762 0.84691 0.85023 0.0
H818 H 0.34923 0.8113 0.75514 0.0
H819 H 0.37891 0.81323 0.77437 0.0
H820 H 0.38203 0.78968 0.80155 0.0
C821 C 0.42664 0.79398 0.86116 0.0
C822 C 0.4099 0.8344 0.8396 0.0
C823 C 0.44171 0.78833 0.87092 0.0
C824 C 0.35026 0.81726 0.77051 0.0
C825 C 0.36718 0.81831 0.78148 0.0
C826 C 0.38979 0.80234 0.81201 0.0
C827 C 0.42997 0.81068 0.85051 0.0
C828 C 0.41446 0.81476 0.83804 0.0
C829 C 0.36859 0.82472 0.80166 0.0
C830 C 0.38493 0.82184 0.81375 0.0
H831 H 0.47788 0.82494 0.85895 0.0
H832 H 0.45132 0.83509 0.8422 0.0
H833 H 0.40777 0.78359 0.82258 0.0
H834 H 0.32419 0.8341 0.8069 0.0
H835 H 0.35402 0.83627 0.82608 0.0
C836 C 0.52024 0.25074 0.13324 0.0
C837 C 0.50202 0.24867 0.14015 0.0
C838 C 0.5273 0.23317 0.12644 0.0
C839 C 0.50842 0.17776 0.10737 0.0
H840 H 0.56167 0.1754 0.10502 0.0
C841 C 0.53227 0.1041 0.07502 0.0
C842 C 0.54387 0.1068 0.05943 0.0
C843 C 0.52923 0.12119 0.08746 0.0
C844 C 0.54676 0.17591 0.10566 0.0
H845 H 0.4776 0.22699 0.14717 0.0
H846 H 0.49022 0.19646 0.13657 0.0
H847 H 0.55261 0.20558 0.12331 0.0
H848 H 0.56199 0.12925 0.04495 0.0
H849 H 0.5569 0.15928 0.067 0.0
H850 H 0.50261 0.14801 0.09004 0.0
C851 C 0.49877 0.21144 0.13527 0.0
C852 C 0.54154 0.19321 0.11602 0.0
C853 C 0.49157 0.22892 0.14155 0.0
C854 C 0.55297 0.12682 0.0569 0.0
C855 C 0.55017 0.14393 0.06955 0.0
C856 C 0.51362 0.16041 0.09743 0.0
C857 C 0.51634 0.21323 0.12677 0.0
C858 C 0.52226 0.19444 0.11689 0.0
C859 C 0.53794 0.14127 0.08468 0.0
C860 C 0.53281 0.15936 0.09632 0.0
H861 H 0.52853 0.26588 0.13201 0.0
H862 H 0.54086 0.23529 0.12 0.0
H863 H 0.49347 0.17825 0.10707 0.0
H864 H 0.52494 0.08884 0.07713 0.0
H865 H 0.51973 0.11875 0.09902 0.0
C866 C 0.05745 0.24183 0.34584 0.0
C867 C 0.05062 0.25925 0.35373 0.0
C868 C 0.07488 0.2441 0.33742 0.0
C869 C 0.10879 0.28068 0.3143 0.0
H870 H 0.14284 0.24404 0.32355 0.0
C871 C 0.18431 0.28797 0.28525 0.0
C872 C 0.19011 0.26936 0.27911 0.0
C873 C 0.16706 0.28776 0.29396 0.0
C874 C 0.13339 0.25424 0.32062 0.0
H875 H 0.05687 0.29275 0.35921 0.0
H876 H 0.08741 0.29667 0.3445 0.0
H877 H 0.11369 0.24188 0.34039 0.0
H878 H 0.1818 0.23597 0.27605 0.0
H879 H 0.15175 0.23562 0.29076 0.0
H880 H 0.1285 0.2929 0.29435 0.0
C881 C 0.07916 0.28127 0.34472 0.0
C882 C 0.11671 0.25303 0.33032 0.0
C883 C 0.06174 0.27901 0.35326 0.0
C884 C 0.1779 0.25059 0.28088 0.0
C885 C 0.16071 0.25039 0.28945 0.0
C886 C 0.12551 0.28186 0.30452 0.0
C887 C 0.08587 0.26383 0.33663 0.0
C888 C 0.10411 0.26606 0.32711 0.0
C889 C 0.15531 0.26894 0.29659 0.0
C890 C 0.13787 0.26845 0.30739 0.0
H891 H 0.04924 0.2264 0.34594 0.0
H892 H 0.07956 0.23036 0.33112 0.0
H893 H 0.09926 0.29081 0.3114 0.0
H894 H 0.19342 0.30269 0.28412 0.0
H895 H 0.16332 0.30233 0.29932 0.0
C896 C 0.89153 0.04403 0.17495 0.0
C897 C 0.89343 0.06374 0.18582 0.0
C898 C 0.90097 0.04143 0.15786 0.0
C899 C 0.94481 0.06481 0.13878 0.0
H900 H 0.92656 0.02761 0.0912 0.0
C901 C 0.99438 0.05137 0.07727 0.0
C902 C 0.992 0.03122 0.06742 0.0
C903 C 0.98109 0.05657 0.09017 0.0
C904 C 0.93193 0.0379 0.10449 0.0
H905 H 0.90525 0.09636 0.18627 0.0
H906 H 0.92171 0.09172 0.15656 0.0
H907 H 0.9043 0.0345 0.11569 0.0
H908 H 0.97428 0.00056 0.0635 0.0
H909 H 0.95147 0.00934 0.0865 0.0
H910 H 0.97249 0.06758 0.12824 0.0
C911 C 0.91316 0.0783 0.16141 0.0
C912 C 0.91914 0.04192 0.11843 0.0
C913 C 0.90365 0.08093 0.17839 0.0
C914 C 0.97636 0.01625 0.07091 0.0
C915 C 0.96319 0.02136 0.08392 0.0
C916 C 0.95761 0.06061 0.12501 0.0
C917 C 0.91251 0.05846 0.15141 0.0
C918 C 0.9255 0.05532 0.13576 0.0
C919 C 0.96531 0.04162 0.09365 0.0
C920 C 0.9514 0.04694 0.10776 0.0
H921 H 0.8837 0.03048 0.18022 0.0
H922 H 0.90023 0.02594 0.15042 0.0
H923 H 0.95018 0.07493 0.15218 0.0
H924 H 0.00624 0.06323 0.07465 0.0
H925 H 0.98307 0.07239 0.09718 0.0
C926 C 0.31415 0.70811 0.45603 0.0
C927 C 0.29754 0.69653 0.46221 0.0
C928 C 0.31298 0.72232 0.44311 0.0
C929 C 0.27963 0.7503 0.42067 0.0
H930 H 0.309 0.74362 0.37557 0.0
C931 C 0.25666 0.76662 0.34486 0.0
C932 C 0.27075 0.77475 0.33303 0.0
C933 C 0.2617 0.76166 0.36304 0.0
C934 C 0.30095 0.74602 0.38821 0.0
H935 H 0.26675 0.6917 0.46054 0.0
H936 H 0.26476 0.71611 0.43797 0.0
H937 H 0.31518 0.72715 0.40375 0.0
H938 H 0.30104 0.78489 0.3311 0.0
H939 H 0.30984 0.77634 0.36289 0.0
H940 H 0.26487 0.76849 0.40471 0.0
C941 C 0.27869 0.71441 0.44315 0.0
C942 C 0.30453 0.73661 0.4044 0.0
C943 C 0.27984 0.70021 0.45596 0.0
C944 C 0.2899 0.77855 0.33993 0.0
C945 C 0.29494 0.77358 0.35808 0.0
C946 C 0.27601 0.75968 0.40445 0.0
C947 C 0.2952 0.72531 0.43624 0.0
C948 C 0.29355 0.73817 0.42059 0.0
C949 C 0.28092 0.76473 0.36968 0.0
C950 C 0.28631 0.75718 0.38786 0.0
H951 H 0.32801 0.70572 0.46067 0.0
H952 H 0.32596 0.73067 0.43817 0.0
H953 H 0.27115 0.75207 0.43308 0.0
H954 H 0.24179 0.76353 0.33982 0.0
H955 H 0.25058 0.75464 0.37154 0.0
C956 C 0.58008 0.94934 0.69033 0.0
C957 C 0.59438 0.96623 0.69841 0.0
C958 C 0.57174 0.9486 0.67166 0.0
C959 C 0.57761 0.97172 0.62612 0.0
H960 H 0.5226 0.96267 0.62287 0.0
C961 C 0.53632 0.00623 0.57171 0.0
C962 C 0.51915 0.9946 0.56251 0.0
C963 C 0.54579 -0.00119 0.58626 0.0
C964 C 0.53793 0.9648 0.62338 0.0
H965 H 0.61177 0.9951 0.69292 0.0
H966 H 0.59718 0.99384 0.6604 0.0
H967 H 0.53938 0.95632 0.65199 0.0
H968 H 0.49818 0.96627 0.56137 0.0
H969 H 0.51473 0.95325 0.58722 0.0
H970 H 0.5762 0.98086 0.59777 0.0
C971 C 0.59248 0.98111 0.66844 0.0
C972 C 0.54754 0.96117 0.64005 0.0
C973 C 0.60073 0.98192 0.68714 0.0
C974 C 0.51141 0.9755 0.5683 0.0
C975 C 0.52088 0.96808 0.58302 0.0
C976 C 0.56801 0.9753 0.60944 0.0
C977 C 0.57765 0.96465 0.66066 0.0
C978 C 0.5675 0.96523 0.64182 0.0
C979 C 0.53822 0.97965 0.59205 0.0
C980 C 0.54811 0.97254 0.60819 0.0
H981 H 0.57493 0.93695 0.69863 0.0
H982 H 0.56045 0.93565 0.66594 0.0
H983 H 0.59299 0.97461 0.62697 0.0
H984 H 0.54248 0.02113 0.56767 0.0
H985 H 0.55888 0.00832 0.59325 0.0
C986 C 0.27843 0.34124 0.98 0.0
C987 C 0.27109 0.35853 0.98726 0.0
C988 C 0.27465 0.33243 0.96055 0.0
C989 C 0.27682 0.32687 0.91719 0.0
H990 H 0.22924 0.32344 0.88745 0.0
C991 C 0.27173 0.31053 0.83406 0.0
C992 C 0.25556 0.29693 0.82466 0.0
C993 C 0.27229 0.31782 0.85386 0.0
C994 C 0.24255 0.32412 0.8956 0.0
H995 H 0.2535 0.37975 0.97993 0.0
H996 H 0.24733 0.3647 0.94571 0.0
H997 H 0.23201 0.33541 0.92246 0.0
H998 H 0.22712 0.2806 0.82861 0.0
H999 H 0.22825 0.29305 0.86346 0.0
H1000 H 0.28728 0.31517 0.89061 0.0
C1001 C 0.25574 0.35772 0.95518 0.0
C1002 C 0.24421 0.33119 0.91562 0.0
C1003 C 0.25935 0.36642 0.97477 0.0
C1004 C 0.23978 0.29109 0.83545 0.0
C1005 C 0.2404 0.29829 0.85539 0.0
C1006 C 0.27514 0.31973 0.8973 0.0
C1007 C 0.26365 0.34085 0.94776 0.0
C1008 C 0.26141 0.33274 0.92662 0.0
C1009 C 0.25678 0.31154 0.86486 0.0
C1010 C 0.25807 0.31846 0.88619 0.0
H1011 H 0.28728 0.33458 0.98933 0.0
H1012 H 0.28057 0.31912 0.95547 0.0
H1013 H 0.29038 0.32814 0.92509 0.0
H1014 H 0.28404 0.31558 0.82614 0.0
H1015 H 0.28495 0.32841 0.86057 0.0
C1016 C 0.92764 0.02351 0.28065 0.0
C1017 C 0.92072 0.04169 0.28546 0.0
C1018 C 0.93673 0.01528 0.295 0.0
C1019 C 0.96511 0.02893 0.34026 0.0
H1020 H 0.94381 0.97447 0.35289 0.0
C1021 C 0.00206 0.99343 0.39766 0.0
C1022 C 0.99081 0.98981 0.41339 0.0
C1023 C 0.99381 0.99618 0.37992 0.0
C1024 C 0.94995 0.9896 0.34934 0.0
H1025 H 0.91812 0.06572 0.3088 0.0
H1026 H 0.93469 0.05169 0.33377 0.0
H1027 H 0.9291 0.98748 0.32572 0.0
H1028 H 0.96207 0.98452 0.42258 0.0
H1029 H 0.94754 0.9889 0.39125 0.0
H1030 H 0.98589 0.0312 0.36381 0.0
C1031 C 0.93281 0.04373 0.31897 0.0
C1032 C 0.94162 0.99698 0.33386 0.0
C1033 C 0.92334 0.05171 0.30474 0.0
C1034 C 0.97102 0.98731 0.41064 0.0
C1035 C 0.96273 0.98977 0.39276 0.0
C1036 C 0.97366 0.02141 0.35542 0.0
C1037 C 0.9394 0.02537 0.31423 0.0
C1038 C 0.94898 0.01683 0.32947 0.0
C1039 C 0.97416 0.99502 0.37754 0.0
C1040 C 0.966 0.00181 0.36026 0.0
H1041 H 0.92564 0.0154 0.26591 0.0
H1042 H 0.94178 0.00112 0.29109 0.0
H1043 H 0.97099 0.04428 0.33706 0.0
H1044 H 0.01736 0.99539 0.3994 0.0
H1045 H 0.00286 9e-05 0.3683 0.0
C1046 C 0.29998 0.69794 0.5581 0.0
C1047 C 0.28703 0.68032 0.54905 0.0
C1048 C 0.29554 0.70949 0.57489 0.0
C1049 C 0.26868 0.70604 0.61751 0.0
H1050 H 0.27435 0.76537 0.62011 0.0
C1051 C 0.25612 0.75604 0.68806 0.0
C1052 C 0.2691 0.77484 0.69315 0.0
C1053 C 0.25538 0.7449 0.66944 0.0
C1054 C 0.27287 0.74886 0.61974 0.0
H1055 H 0.25938 0.6608 0.55069 0.0
H1056 H 0.25191 0.68077 0.5805 0.0
H1057 H 0.27935 0.74479 0.58979 0.0
H1058 H 0.29108 0.79711 0.68269 0.0
H1059 H 0.29037 0.77748 0.65056 0.0
H1060 H 0.26322 0.71004 0.64763 0.0
C1061 C 0.26536 0.68569 0.57436 0.0
C1062 C 0.27564 0.73709 0.60233 0.0
C1063 C 0.26964 0.67433 0.55732 0.0
C1064 C 0.28089 0.78267 0.67914 0.0
C1065 C 0.28036 0.77143 0.66063 0.0
C1066 C 0.26623 0.71784 0.63504 0.0
C1067 C 0.27822 0.70346 0.58318 0.0
C1068 C 0.27382 0.71564 0.60115 0.0
C1069 C 0.26781 0.75223 0.6556 0.0
C1070 C 0.26858 0.73946 0.63647 0.0
H1071 H 0.31344 0.70302 0.55203 0.0
H1072 H 0.30575 0.72304 0.58156 0.0
H1073 H 0.26732 0.68951 0.61696 0.0
H1074 H 0.24679 0.74972 0.6986 0.0
H1075 H 0.24526 0.73041 0.666 0.0
C1076 C 0.60697 0.99571 0.82595 0.0
C1077 C 0.59752 0.99877 0.80882 0.0
C1078 C 0.60171 0.00333 0.84408 0.0
C1079 C 0.56295 0.02013 0.8698 0.0
H1080 H 0.60366 0.04516 0.90913 0.0
C1081 C 0.55007 0.05249 0.94872 0.0
C1082 C 0.56063 0.04582 0.9632 0.0
C1083 C 0.55416 0.04896 0.92922 0.0
C1084 C 0.59216 0.03818 0.8983 0.0
H1085 H 0.57473 0.01163 0.79718 0.0
H1086 H 0.56546 0.02505 0.82916 0.0
H1087 H 0.61121 0.03485 0.87587 0.0
H1088 H 0.58371 0.03042 0.9689 0.0
H1089 H 0.59093 0.02432 0.93486 0.0
H1090 H 0.54393 0.02322 0.89245 0.0
C1091 C 0.57697 0.01674 0.82843 0.0
C1092 C 0.59646 0.03227 0.87929 0.0
C1093 C 0.58227 0.00908 0.81018 0.0
C1094 C 0.57541 0.03576 0.95798 0.0
C1095 C 0.5796 0.03238 0.93855 0.0
C1096 C 0.55863 0.02613 0.88887 0.0
C1097 C 0.58688 0.01419 0.84553 0.0
C1098 C 0.58195 0.02267 0.86498 0.0
C1099 C 0.56898 0.0389 0.92398 0.0
C1100 C 0.57325 0.03471 0.90338 0.0
H1101 H 0.61852 0.98746 0.8254 0.0
H1102 H 0.60927 0.00064 0.85701 0.0
H1103 H 0.5515 0.0127 0.85906 0.0
H1104 H 0.53856 0.06027 0.95243 0.0
H1105 H 0.54584 0.05421 0.91827 0.0
C1106 C 0.24165 0.3459 0.08743 0.0
C1107 C 0.25573 0.34191 0.07489 0.0
C1108 C 0.23551 0.33252 0.10086 0.0
C1109 C 0.2557 0.29748 0.12784 0.0
H1110 H 0.20696 0.28873 0.15061 0.0
C1111 C 0.22153 0.25672 0.1958 0.0
C1112 C 0.23592 0.26637 0.21022 0.0
C1113 C 0.22124 0.26341 0.17747 0.0
C1114 C 0.22055 0.29084 0.14421 0.0
H1115 H 0.27284 0.31972 0.06501 0.0
H1116 H 0.26175 0.29611 0.08797 0.0
H1117 H 0.21015 0.30353 0.12003 0.0
H1118 H 0.26096 0.29081 0.21704 0.0
H1119 H 0.26043 0.30239 0.18533 0.0
H1120 H 0.26623 0.2853 0.15207 0.0
C1121 C 0.25593 0.3099 0.08797 0.0
C1122 C 0.22243 0.29943 0.12683 0.0
C1123 C 0.26225 0.32339 0.07478 0.0
C1124 C 0.24971 0.28302 0.20621 0.0
C1125 C 0.24949 0.28959 0.18801 0.0
C1126 C 0.25384 0.28903 0.14512 0.0
C1127 C 0.2432 0.3148 0.1018 0.0
C1128 C 0.24014 0.3032 0.11867 0.0
C1129 C 0.23547 0.27966 0.17335 0.0
C1130 C 0.23641 0.28612 0.15375 0.0
H1131 H 0.23635 0.36005 0.08781 0.0
H1132 H 0.22575 0.33681 0.11135 0.0
H1133 H 0.26962 0.30043 0.12219 0.0
H1134 H 0.21071 0.24387 0.1986 0.0
H1135 H 0.21028 0.25553 0.16638 0.0
C1136 C 0.20884 0.95 0.00207 0.0
C1137 C 0.21849 0.95059 0.02023 0.0
C1138 C 0.1921 0.95764 0.00089 0.0
C1139 C 0.16652 0.99354 0.02865 0.0
H1140 H 0.12293 0.96487 0.99433 0.0
C1141 C 0.09237 0.01325 0.03522 0.0
C1142 C 0.08096 0.01215 0.01808 0.0
C1143 C 0.10977 0.00695 0.03448 0.0
C1144 C 0.13508 0.97324 0.00378 0.0
H1145 H 0.21776 0.95905 0.05142 0.0
H1146 H 0.1886 0.9721 0.04936 0.0
H1147 H 0.15176 0.95078 0.99488 0.0
H1148 H 0.07894 0.00422 0.98668 0.0
H1149 H 0.10949 0.99345 0.98533 0.0
H1150 H 0.14987 0.01591 0.03767 0.0
C1151 C 0.19412 0.96612 0.036 0.0
C1152 C 0.15159 0.96513 0.00411 0.0
C1153 C 0.21078 0.95848 0.03718 0.0
C1154 C 0.08749 0.00521 0.00012 0.0
C1155 C 0.10489 -0.00111 -0.00062 0.0
C1156 C 0.15006 0.00164 0.0283 0.0
C1157 C 0.18471 0.96607 0.01784 0.0
C1158 C 0.16742 0.97506 0.01673 0.0
C1159 C 0.11612 -0.00058 0.01658 0.0
C1160 C 0.13405 0.99148 0.01603 0.0
H1161 H 0.21442 0.94404 0.98874 0.0
H1162 H 0.18523 0.95746 0.98667 0.0
H1163 H 0.17861 0.0018 0.03826 0.0
H1164 H 0.08763 0.01844 0.04927 0.0
H1165 H 0.11794 0.00735 0.04803 0.0
C1166 C 0.72153 0.58928 0.97869 0.0
C1167 C 0.72747 0.60949 0.98851 0.0
C1168 C 0.70281 0.57878 0.97901 0.0
C1169 C 0.66011 0.57782 0.0065 0.0
H1170 H 0.63404 0.54739 0.95833 0.0
C1171 C 0.57907 0.54787 0.99719 0.0
C1172 C 0.57214 0.52877 0.98559 0.0
C1173 C 0.59843 0.55657 -0.00125 0.0
C1174 C 0.64121 0.55553 0.97197 0.0
H1175 H 0.71843 0.63453 0.00639 0.0
H1176 H 0.68561 0.61618 0.00682 0.0
H1177 H 0.66699 0.56518 0.95847 0.0
H1178 H 0.57994 0.50333 0.9672 0.0
H1179 H 0.6139 0.51842 0.9701 0.0
H1180 H 0.63426 0.56824 0.01998 0.0
C1181 C 0.69554 0.60842 -0.00096 0.0
C1182 C 0.66007 0.56577 0.97204 0.0
C1183 C 0.71428 0.61897 -0.00132 0.0
C1184 C 0.58494 0.51816 0.97612 0.0
C1185 C 0.60433 0.52685 0.9777 0.0
C1186 C 0.64124 0.56753 0.00645 0.0
C1187 C 0.68962 0.58823 0.98918 0.0
C1188 C 0.66969 0.5771 0.98927 0.0
C1189 C 0.61124 0.54631 0.98877 0.0
C1190 C 0.63156 0.55636 0.98916 0.0
H1191 H 0.73136 0.58151 0.97077 0.0
H1192 H 0.69871 0.56315 0.97146 0.0
H1193 H 0.66727 0.58619 0.02006 0.0
H1194 H 0.56947 0.55636 0.00466 0.0
H1195 H 0.60326 0.57166 0.00724 0.0
C1196 C 0.66899 0.45144 0.25327 0.0
C1197 C 0.67558 0.46512 0.27039 0.0
C1198 C 0.67935 0.43682 0.24601 0.0
C1199 C 0.71496 0.40948 0.26432 0.0
H1200 H 0.70899 0.382 0.21098 0.0
C1201 C 0.74363 0.33625 0.24362 0.0
C1202 C 0.72917 0.31934 0.23588 0.0
C1203 C 0.7408 0.3564 0.24407 0.0
C1204 C 0.71088 0.38966 0.22588 0.0
H1205 H 0.69899 0.47563 0.29229 0.0
H1206 H 0.71765 0.45094 0.27905 0.0
H1207 H 0.69823 0.41448 0.21884 0.0
H1208 H 0.70106 0.31046 0.22101 0.0
H1209 H 0.69623 0.34577 0.22168 0.0
H1210 H 0.72753 0.38463 0.27132 0.0
C1211 C 0.70404 0.45074 0.2717 0.0
C1212 C 0.70462 0.40819 0.23046 0.0
C1213 C 0.69344 0.46503 0.27923 0.0
C1214 C 0.71242 0.32311 0.22722 0.0
C1215 C 0.70969 0.34333 0.22748 0.0
C1216 C 0.72151 0.39124 0.25968 0.0
C1217 C 0.69675 0.43583 0.25549 0.0
C1218 C 0.70607 0.41803 0.24986 0.0
C1219 C 0.72358 0.36008 0.23657 0.0
C1220 C 0.7191 0.38088 0.24054 0.0
H1221 H 0.65522 0.4511 0.24618 0.0
H1222 H 0.67308 0.42555 0.23366 0.0
H1223 H 0.71601 0.41619 0.27948 0.0
H1224 H 0.75677 0.33396 0.25033 0.0
H1225 H 0.75178 0.36909 0.25102 0.0
C1226 C 0.8267 0.45985 0.49501 0.0
C1227 C 0.82155 0.4407 0.5018 0.0
C1228 C 0.84574 0.47014 0.4964 0.0
C1229 C 0.88876 0.48411 0.49381 0.0
H1230 H 0.91706 0.48188 0.54201 0.0
C1231 C 0.97051 0.50765 0.50498 0.0
C1232 C 0.9787 0.51677 0.52359 0.0
C1233 C 0.95087 0.50081 0.5018 0.0
C1234 C 0.90933 0.48293 0.52858 0.0
H1235 H 0.8325 0.41695 0.51453 0.0
H1236 H 0.8655 0.43453 0.51647 0.0
H1237 H 0.88387 0.46474 0.53685 0.0
H1238 H 0.97254 0.52687 0.55321 0.0
H1239 H 0.93826 0.51516 0.54759 0.0
H1240 H 0.9143 0.50253 0.48567 0.0
C1241 C 0.85485 0.44186 0.51049 0.0
C1242 C 0.89035 0.47282 0.52549 0.0
C1243 C 0.8359 0.43165 0.50916 0.0
C1244 C 0.96674 0.51971 0.53874 0.0
C1245 C 0.94708 0.51292 0.53554 0.0
C1246 C 0.90781 0.49427 0.49691 0.0
C1247 C 0.85995 0.46146 0.50463 0.0
C1248 C 0.87991 0.47302 0.50797 0.0
C1249 C 0.93895 0.50298 0.51714 0.0
C1250 C 0.91836 0.49361 0.51426 0.0
H1251 H 0.81597 0.46726 0.48931 0.0
H1252 H 0.84921 0.48525 0.49179 0.0
H1253 H 0.8811 0.48454 0.48016 0.0
H1254 H 0.97928 0.50515 0.49294 0.0
H1255 H 0.94512 0.49304 0.4875 0.0
C1256 C 0.33235 0.0902 0.28698 0.0
C1257 C 0.33504 0.08135 0.30388 0.0
C1258 C 0.31517 0.09581 0.28263 0.0
C1259 C 0.27689 0.1047 0.27357 0.0
H1260 H 0.25943 0.13362 0.31918 0.0
C1261 C 0.23707 0.16954 0.26554 0.0
C1262 C 0.24514 0.18763 0.27816 0.0
C1263 C 0.24062 0.15048 0.26926 0.0
C1264 C 0.26403 0.12552 0.30627 0.0
H1265 H 0.32129 0.06972 0.32857 0.0
H1266 H 0.29103 0.07898 0.32069 0.0
H1267 H 0.28057 0.11014 0.32323 0.0
H1268 H 0.2621 0.20003 0.30514 0.0
H1269 H 0.26882 0.16721 0.31134 0.0
H1270 H 0.26204 0.12186 0.25672 0.0
C1271 C 0.30242 0.08223 0.31112 0.0
C1272 C 0.27598 0.11176 0.30857 0.0
C1273 C 0.31975 0.0769 0.31563 0.0
C1274 C 0.25581 0.18629 0.29511 0.0
C1275 C 0.25944 0.16736 0.29877 0.0
C1276 C 0.26524 0.11878 0.27129 0.0
C1277 C 0.30013 0.09242 0.29493 0.0
C1278 C 0.28345 0.10211 0.29228 0.0
C1279 C 0.25237 0.14928 0.28561 0.0
C1280 C 0.25962 0.13025 0.28769 0.0
H1281 H 0.34384 0.09378 0.27759 0.0
H1282 H 0.31417 0.10393 0.27023 0.0
H1283 H 0.28183 0.09696 0.26067 0.0
H1284 H 0.22862 0.17021 0.25245 0.0
H1285 H 0.23474 0.13682 0.25898 0.0
C1286 C 0.34836 0.13874 0.49948 0.0
C1287 C 0.33114 0.13189 0.50767 0.0
C1288 C 0.36326 0.12828 0.50094 0.0
C1289 C 0.38224 0.09097 0.52657 0.0
H1290 H 0.40007 0.07378 0.47629 0.0
C1291 C 0.43062 0.03153 0.5176 0.0
C1292 C 0.44568 0.03569 0.50557 0.0
C1293 C 0.41613 0.04276 0.51772 0.0
C1294 C 0.39546 0.07864 0.49049 0.0
H1295 H 0.31655 0.10986 0.52517 0.0
H1296 H 0.34272 0.09183 0.52798 0.0
H1297 H 0.37742 0.09657 0.4786 0.0
H1298 H 0.45721 0.05425 0.48378 0.0
H1299 H 0.43228 0.07411 0.48426 0.0
H1300 H 0.40049 0.07335 0.53856 0.0
C1301 C 0.34461 0.10513 0.52028 0.0
C1302 C 0.3825 0.09172 0.4918 0.0
C1303 C 0.32963 0.11543 0.51863 0.0
C1304 C 0.44568 0.05066 0.49313 0.0
C1305 C 0.43133 0.062 0.49337 0.0
C1306 C 0.3954 0.07806 0.52531 0.0
C1307 C 0.36128 0.11099 0.51084 0.0
C1308 C 0.37577 0.098 0.50984 0.0
C1309 C 0.41656 0.05847 0.50594 0.0
C1310 C 0.40214 0.0717 0.50723 0.0
H1311 H 0.34996 0.1514 0.49096 0.0
H1312 H 0.3761 0.13326 0.49375 0.0
H1313 H 0.37728 0.09565 0.54066 0.0
H1314 H 0.43032 0.02002 0.52731 0.0
H1315 H 0.40476 0.03933 0.52727 0.0
C1316 C 0.68171 0.56925 0.31427 0.0
C1317 C 0.66717 0.55913 0.30015 0.0
C1318 C 0.69138 0.58936 0.31311 0.0
C1319 C 0.70221 0.62639 0.27791 0.0
H1320 H 0.7163 0.6668 0.32424 0.0
C1321 C 0.73445 0.7116 0.27349 0.0
C1322 C 0.75021 0.72081 0.28642 0.0
C1323 C 0.72364 0.69236 0.27578 0.0
C1324 C 0.71258 0.65562 0.3112 0.0
H1325 H 0.65117 0.56243 0.27394 0.0
H1326 H 0.6678 0.59746 0.27211 0.0
H1327 H 0.69876 0.63218 0.3271 0.0
H1328 H 0.76684 0.71748 0.31211 0.0
H1329 H 0.74802 0.68374 0.31607 0.0
H1330 H 0.71602 0.64978 0.26201 0.0
C1331 C 0.67199 0.58975 0.28388 0.0
C1332 C 0.70257 0.63579 0.31283 0.0
C1333 C 0.66237 0.56967 0.285 0.0
C1334 C 0.75476 0.71068 0.30192 0.0
C1335 C 0.74392 0.69144 0.30425 0.0
C1336 C 0.71216 0.6462 0.27628 0.0
C1337 C 0.68669 0.59979 0.29783 0.0
C1338 C 0.69727 0.62093 0.2962 0.0
C1339 C 0.72837 0.68196 0.29107 0.0
C1340 C 0.71747 0.66104 0.29289 0.0
H1341 H 0.68581 0.56159 0.32611 0.0
H1342 H 0.70277 0.59657 0.32397 0.0
H1343 H 0.69867 0.61522 0.26485 0.0
H1344 H 0.73062 0.71912 0.26142 0.0
H1345 H 0.71159 0.68559 0.26555 0.0
C1346 C 0.87605 0.49311 0.77018 0.0
C1347 C 0.87864 0.50493 0.78879 0.0
C1348 C 0.86524 0.47307 0.76728 0.0
C1349 C 0.84498 0.42923 0.7923 0.0
H1350 H 0.8081 0.41545 0.74779 0.0
C1351 C 0.78598 0.35658 0.78374 0.0
C1352 C 0.78196 0.34479 0.76518 0.0
C1353 C 0.79779 0.37607 0.78618 0.0
C1354 C 0.81848 0.41896 0.76013 0.0
H1355 H 0.87249 0.50456 0.81909 0.0
H1356 H 0.85351 0.46944 0.81398 0.0
H1357 H 0.8295 0.44916 0.75324 0.0
H1358 H 0.78678 0.34453 0.73452 0.0
H1359 H 0.80763 0.37868 0.73883 0.0
H1360 H 0.83397 0.39905 0.79922 0.0
C1361 C 0.85996 0.47576 0.80166 0.0
C1362 C 0.83074 0.43826 0.76326 0.0
C1363 C 0.8708 0.49589 0.80459 0.0
C1364 C 0.78957 0.35324 0.749 0.0
C1365 C 0.80148 0.37281 0.75147 0.0
C1366 C 0.83275 0.40991 0.78915 0.0
C1367 C 0.85676 0.46432 0.7829 0.0
C1368 C 0.84406 0.44363 0.77942 0.0
C1369 C 0.80595 0.38428 0.77015 0.0
C1370 C 0.81927 0.40461 0.7731 0.0
H1371 H 0.88204 0.49947 0.75768 0.0
H1372 H 0.86335 0.46449 0.75273 0.0
H1373 H 0.85527 0.43282 0.80472 0.0
H1374 H 0.78018 0.35068 0.79651 0.0
H1375 H 0.80057 0.38471 0.80069 0.0
C1376 C 0.99234 0.80833 0.07734 0.0
C1377 C 0.00498 0.81347 0.09403 0.0
C1378 C 0.99303 0.82166 0.06333 0.0
C1379 C 0.98652 0.85943 0.04681 0.0
H1380 H 0.03162 0.89904 0.03878 0.0
C1381 C 0.98332 0.9408 0.03102 0.0
C1382 C 0.99759 0.9515 0.02084 0.0
C1383 C 0.98397 0.92096 0.03498 0.0
C1384 C 0.01886 0.88791 0.04045 0.0
H1385 H 0.02902 0.83592 0.10853 0.0
H1386 H 0.02979 0.8595 0.08463 0.0
H1387 H 0.0348 0.86883 0.05366 0.0
H1388 H 0.02295 0.94932 0.00556 0.0
H1389 H 0.02373 0.91441 0.01186 0.0
H1390 H 0.9706 0.87835 0.03336 0.0
C1391 C 0.01959 0.84501 0.08198 0.0
C1392 C 0.02069 0.87069 0.04929 0.0
C1393 C 0.0191 0.83152 0.09581 0.0
C1394 C 0.01189 0.94153 0.01369 0.0
C1395 C 0.01239 0.92156 0.01739 0.0
C1396 C 0.98471 0.87647 0.03771 0.0
C1397 C 0.00615 0.84059 0.06589 0.0
C1398 C 0.00452 0.85665 0.05326 0.0
C1399 C -0.00124 0.91125 0.02859 0.0
C1400 C 0.0008 0.89135 0.03509 0.0
H1401 H 0.98147 0.79435 0.07543 0.0
H1402 H 0.98279 0.81746 0.05087 0.0
H1403 H 0.97368 0.84909 0.0497 0.0
H1404 H 0.97217 0.94813 0.03679 0.0
H1405 H 0.97337 0.9137 0.0439 0.0
C1406 C 0.93033 0.23594 0.81731 0.0
C1407 C 0.93028 0.22959 0.83582 0.0
C1408 C 0.91371 0.23924 0.80833 0.0
C1409 C 0.86122 0.22822 0.81036 0.0
H1410 H 0.86483 0.27322 0.77961 0.0
C1411 C 0.79655 0.25863 0.78212 0.0
C1412 C 0.79621 0.26157 0.7625 0.0
C1413 C 0.81258 0.25391 0.79106 0.0
C1414 C 0.86365 0.26052 0.78805 0.0
H1415 H 0.91261 0.22145 0.8593 0.0
H1416 H 0.8838 0.22802 0.84405 0.0
H1417 H 0.89347 0.26698 0.79562 0.0
H1418 H 0.81184 0.26132 0.73651 0.0
H1419 H 0.84012 0.25337 0.75222 0.0
H1420 H 0.83122 0.22227 0.80312 0.0
C1421 C 0.8966 0.23004 0.83625 0.0
C1422 C 0.88006 0.25685 0.79716 0.0
C1423 C 0.9132 0.22647 0.84511 0.0
C1424 C 0.8119 0.25924 0.75174 0.0
C1425 C 0.82804 0.25482 0.76072 0.0
C1426 C 0.84477 0.23209 0.80144 0.0
C1427 C 0.89665 0.23652 0.81775 0.0
C1428 C 0.87908 0.24057 0.80833 0.0
C1429 C 0.82856 0.25225 0.78049 0.0
C1430 C 0.84588 0.24819 0.79012 0.0
H1431 H 0.94322 0.23827 0.80964 0.0
H1432 H 0.91423 0.24376 0.7939 0.0
H1433 H 0.85994 0.21536 0.81858 0.0
H1434 H 0.78431 0.25963 0.79042 0.0
H1435 H 0.81261 0.25193 0.80631 0.0
C1436 C 0.48793 0.21262 0.62437 0.0
C1437 C 0.50199 0.23077 0.6273 0.0
C1438 C 0.49222 0.19391 0.61633 0.0
C1439 C 0.5321 0.16765 0.60251 0.0
H1440 H 0.49292 0.1335 0.5658 0.0
C1441 C 0.53665 0.08571 0.56429 0.0
C1442 C 0.52752 0.07942 0.5456 0.0
C1443 C 0.53546 0.10484 0.57472 0.0
C1444 C 0.50417 0.14294 0.57578 0.0
H1445 H 0.53177 0.2434 0.6247 0.0
H1446 H 0.53914 0.2109 0.61001 0.0
H1447 H 0.48703 0.16498 0.58361 0.0
H1448 H 0.5114 0.08866 0.52248 0.0
H1449 H 0.5101 0.12225 0.5401 0.0
H1450 H 0.5495 0.14582 0.59389 0.0
C1451 C 0.52486 0.21097 0.61432 0.0
C1452 C 0.50063 0.16088 0.58635 0.0
C1453 C 0.52062 0.22966 0.62267 0.0
C1454 C 0.51834 0.09305 0.53699 0.0
C1455 C 0.51744 0.11222 0.5472 0.0
C1456 C 0.53572 0.14971 0.59173 0.0
C1457 C 0.51061 0.19293 0.61065 0.0
C1458 C 0.5145 0.1735 0.59989 0.0
C1459 C 0.52533 0.11806 0.56647 0.0
C1460 C 0.52182 0.13719 0.57813 0.0
H1461 H 0.47349 0.21292 0.62804 0.0
H1462 H 0.48098 0.18025 0.61428 0.0
H1463 H 0.54307 0.17687 0.61294 0.0
H1464 H 0.54373 0.07538 0.57127 0.0
H1465 H 0.54166 0.10877 0.58953 0.0
C1466 C 0.54619 0.77165 0.33241 0.0
C1467 C 0.53955 0.75671 0.3444 0.0
C1468 C 0.56394 0.77267 0.32474 0.0
C1469 C 0.59869 0.7402 0.31208 0.0
H1470 H 0.6326 0.79227 0.30858 0.0
C1471 C 0.67584 0.74573 0.29004 0.0
C1472 C 0.68314 0.76109 0.27878 0.0
C1473 C 0.65781 0.7447 0.29706 0.0
C1474 C 0.62317 0.7776 0.30918 0.0
H1475 H 0.54669 0.73169 0.35838 0.0
H1476 H 0.57772 0.73362 0.34512 0.0
H1477 H 0.60269 0.79219 0.32385 0.0
H1478 H 0.67717 0.78688 0.26532 0.0
H1479 H 0.64551 0.78488 0.27729 0.0
H1480 H 0.61913 0.7256 0.2974 0.0
C1481 C 0.56906 0.74431 0.3414 0.0
C1482 C 0.60606 0.77757 0.318 0.0
C1483 C 0.55134 0.74332 0.34912 0.0
C1484 C 0.67186 0.77491 0.27402 0.0
C1485 C 0.65382 0.77387 0.28102 0.0
C1486 C 0.61578 0.74023 0.30323 0.0
C1487 C 0.57542 0.75876 0.32886 0.0
C1488 C 0.59367 0.75887 0.31961 0.0
C1489 C 0.64674 0.759 0.29294 0.0
C1490 C 0.62824 0.75893 0.30172 0.0
H1491 H 0.53747 0.7822 0.32849 0.0
H1492 H 0.56839 0.7839 0.31503 0.0
H1493 H 0.58929 0.72554 0.31278 0.0
H1494 H 0.6843 0.73494 0.29398 0.0
H1495 H 0.65288 0.73317 0.30634 0.0
C1496 C 0.98324 0.21287 0.43545 0.0
C1497 C 0.99434 0.22087 0.42093 0.0
C1498 C 0.98727 0.19618 0.44386 0.0
C1499 C 0.02384 0.16527 0.45068 0.0
H1500 H 0.98016 0.12193 0.45472 0.0
C1501 C 0.00555 0.07354 0.45977 0.0
C1502 C 0.01813 0.073 0.47564 0.0
C1503 C 0.00326 0.09234 0.45427 0.0
C1504 C 0.99251 0.13386 0.45363 0.0
H1505 H 0.01892 0.21806 0.40449 0.0
H1506 H 0.02585 0.18874 0.41912 0.0
H1507 H 0.97556 0.15364 0.4432 0.0
H1508 H 0.03828 0.09186 0.49812 0.0
H1509 H 0.03422 0.12481 0.48848 0.0
H1510 H 0.04079 0.14512 0.46074 0.0
C1511 C 0.01408 0.19553 0.42405 0.0
C1512 C 0.98987 0.15214 0.44724 0.0
C1513 C 0.01005 0.21227 0.4156 0.0
C1514 C 0.02844 0.09174 0.48585 0.0
C1515 C 0.02621 0.1106 0.48027 0.0
C1516 C 0.02648 0.14695 0.45718 0.0
C1517 C 0.00249 0.18704 0.43798 0.0
C1518 C 0.00549 0.16801 0.44556 0.0
C1519 C 0.01353 0.11108 0.46446 0.0
C1520 C 0.01084 0.13097 0.45853 0.0
H1521 H 0.97115 0.21922 0.4401 0.0
H1522 H 0.97828 0.19025 0.45483 0.0
H1523 H 0.03614 0.17728 0.44966 0.0
H1524 H 0.9974 0.05943 0.45152 0.0
H1525 H 0.99358 0.09219 0.44186 0.0
C1526 C 0.55963 0.2998 0.15717 0.0
C1527 C 0.54548 0.30508 0.16894 0.0
C1528 C 0.56627 0.28175 0.15866 0.0
C1529 C 0.57533 0.25518 0.19852 0.0
H1530 H 0.60262 0.22663 0.16054 0.0
C1531 C 0.64092 0.22843 0.22448 0.0
C1532 C 0.65677 0.23441 0.2139 0.0
C1533 C 0.62262 0.22752 0.21644 0.0
C1534 C 0.59506 0.23441 0.17135 0.0
H1535 H 0.52599 0.29506 0.19031 0.0
H1536 H 0.5376 0.26329 0.19298 0.0
H1537 H 0.57639 0.2417 0.14958 0.0
H1538 H 0.66603 0.24275 0.18623 0.0
H1539 H 0.63421 0.2422 0.17245 0.0
H1540 H 0.59466 0.24955 0.2202 0.0
C1541 C 0.54355 0.27308 0.18256 0.0
C1542 C 0.57995 0.24291 0.16506 0.0
C1543 C 0.53683 0.29117 0.18098 0.0
C1544 C 0.65399 0.23814 0.19468 0.0
C1545 C 0.63569 0.23763 0.18675 0.0
C1546 C 0.59043 0.24683 0.20478 0.0
C1547 C 0.55909 0.26882 0.17223 0.0
C1548 C 0.57057 0.2543 0.17856 0.0
C1549 C 0.61981 0.23308 0.19782 0.0
C1550 C 0.60111 0.23722 0.19124 0.0
H1551 H 0.56654 0.3104 0.14784 0.0
H1552 H 0.57832 0.27908 0.15058 0.0
H1553 H 0.56861 0.26403 0.20934 0.0
H1554 H 0.64271 0.22517 0.23925 0.0
H1555 H 0.61073 0.2234 0.22521 0.0
C1556 C 0.49608 0.84101 0.95676 0.0
C1557 C 0.50621 0.83305 0.9417 0.0
C1558 C 0.50317 0.86039 0.96752 0.0
C1559 C 0.53482 0.91005 0.96452 0.0
H1560 H 0.52905 0.91948 0.02005 0.0
C1561 C 0.55169 0.97892 0.0354 0.0
C1562 C 0.54449 0.99443 0.02757 0.0
C1563 C 0.55036 0.95955 0.02441 0.0
C1564 C 0.53103 0.91711 0.00461 0.0
H1565 H 0.53199 0.83917 0.92643 0.0
H1566 H 0.54438 0.87304 0.94532 0.0
H1567 H 0.52045 0.88457 0.00255 0.0
H1568 H 0.53136 0.00241 0.00174 0.0
H1569 H 0.52883 0.96846 0.98254 0.0
H1570 H 0.5453 0.94269 0.96661 0.0
C1571 C 0.53086 0.86428 0.94865 0.0
C1572 C 0.52589 0.89711 0.99453 0.0
C1573 C 0.52381 0.8448 0.93793 0.0
C1574 C 0.53696 0.99066 0.00815 0.0
C1575 C 0.5356 0.97125 0.99714 0.0
C1576 C 0.53993 0.93011 0.97461 0.0
C1577 C 0.52054 0.87234 0.96346 0.0
C1578 C 0.52746 0.89338 0.97434 0.0
C1579 C 0.54178 0.95529 0.00535 0.0
C1580 C 0.53789 0.93389 0.99474 0.0
H1581 H 0.48247 0.83243 0.96008 0.0
H1582 H 0.49476 0.86627 0.97868 0.0
H1583 H 0.53607 0.90769 0.94893 0.0
H1584 H 0.55775 0.9815 0.05028 0.0
H1585 H 0.55562 0.94772 0.03102 0.0
C1586 C 0.93506 0.76573 0.68766 0.0
C1587 C 0.93569 0.77179 0.66901 0.0
C1588 C 0.91781 0.76128 0.69624 0.0
C1589 C 0.87089 0.7748 0.69403 0.0
H1590 H 0.85957 0.73573 0.73081 0.0
C1591 C 0.81327 0.78143 0.74693 0.0
C1592 C 0.8006 0.76321 0.74936 0.0
C1593 C 0.82988 0.78056 0.73753 0.0
C1594 C 0.86246 0.74658 0.72045 0.0
H1595 H 0.91859 0.77657 0.64421 0.0
H1596 H 0.88844 0.76825 0.65895 0.0
H1597 H 0.88736 0.73572 0.71173 0.0
H1598 H 0.79582 0.72975 0.74471 0.0
H1599 H 0.82481 0.72824 0.72798 0.0
H1600 H 0.84596 0.78549 0.70244 0.0
C1601 C 0.90134 0.76747 0.66716 0.0
C1602 C 0.87844 0.7467 0.70964 0.0
C1603 C 0.91861 0.7721 0.65865 0.0
C1604 C 0.80534 0.74407 0.74307 0.0
C1605 C 0.82195 0.7432 0.7335 0.0
C1606 C 0.85494 0.77463 0.70474 0.0
C1607 C 0.90081 0.76265 0.68629 0.0
C1608 C 0.88296 0.76099 0.69649 0.0
C1609 C 0.83412 0.76146 0.73018 0.0
C1610 C 0.85071 0.76078 0.71831 0.0
H1611 H 0.94798 0.76531 0.69603 0.0
H1612 H 0.91797 0.75781 0.71105 0.0
H1613 H 0.87405 0.78622 0.68426 0.0
H1614 H 0.81016 0.79643 0.75187 0.0
H1615 H 0.83924 0.79492 0.73569 0.0
C1616 C 0.07199 0.01445 0.82668 0.0
C1617 C 0.0871 0.00402 0.82448 0.0
C1618 C 0.06261 0.01503 0.84393 0.0
C1619 C 0.05236 0.9865 0.88522 0.0
H1620 H 0.04066 0.03738 0.9107 0.0
C1621 C 0.00323 0.98982 0.94909 0.0
C1622 C 0.00978 0.00545 0.96481 0.0
C1623 C 0.01273 0.98939 0.93192 0.0
C1624 C 0.0439 0.02308 0.90376 0.0
H1625 H 0.10434 0.98616 0.83867 0.0
H1626 H 0.08797 0.98719 0.86869 0.0
H1627 H 0.05738 0.03757 0.88075 0.0
H1628 H 0.03138 0.03275 0.97511 0.0
H1629 H 0.04792 0.03199 0.94514 0.0
H1630 H 0.03895 0.97202 0.90826 0.0
C1631 C 0.08333 0.99483 0.85706 0.0
C1632 C 0.05331 0.02316 0.88656 0.0
C1633 C 0.09279 0.9944 0.83993 0.0
C1634 C 0.02604 0.0205 0.96319 0.0
C1635 C 0.03543 0.02017 0.94601 0.0
C1636 C 0.04279 0.98637 0.90231 0.0
C1637 C 0.06806 0.00501 0.85919 0.0
C1638 C 0.05774 0.0049 0.8772 0.0
C1639 C 0.0288 0.00469 0.93016 0.0
C1640 C 0.03858 0.00469 0.91181 0.0
H1641 H 0.06728 0.02199 0.81502 0.0
H1642 H 0.05082 0.0229 0.84516 0.0
H1643 H 0.05544 0.97216 0.87818 0.0
H1644 H 0.99071 0.97805 0.95001 0.0
H1645 H 0.00727 0.97734 0.91987 0.0
C1646 C 0.75883 0.33792 0.54037 0.0
C1647 C 0.75402 0.35736 0.54074 0.0
C1648 C 0.75246 0.32534 0.55428 0.0
C1649 C 0.75314 0.31282 0.5941 0.0
H1650 H 0.70663 0.3109 0.62065 0.0
C1651 C 0.72911 0.30398 0.6754 0.0
C1652 C 0.73785 0.28771 0.67917 0.0
C1653 C 0.72722 0.30857 0.65643 0.0
C1654 C 0.71967 0.31129 0.61334 0.0
H1655 H 0.73767 0.37829 0.555 0.0
H1656 H 0.72705 0.35664 0.57979 0.0
H1657 H 0.7097 0.32567 0.59017 0.0
H1658 H 0.7504 0.26268 0.66611 0.0
H1659 H 0.74699 0.27058 0.63292 0.0
H1660 H 0.76338 0.29906 0.61738 0.0
C1661 C 0.73545 0.35088 0.56855 0.0
C1662 C 0.72144 0.31976 0.59591 0.0
C1663 C 0.74158 0.36335 0.55439 0.0
C1664 C 0.74378 0.27543 0.66359 0.0
C1665 C 0.74187 0.28 0.64462 0.0
C1666 C 0.75135 0.30432 0.61139 0.0
C1667 C 0.74146 0.3321 0.56911 0.0
C1668 C 0.73835 0.32094 0.58627 0.0
C1669 C 0.73403 0.29695 0.64091 0.0
C1670 C 0.73475 0.30378 0.6214 0.0
H1671 H 0.76815 0.33278 0.52979 0.0
H1672 H 0.7569 0.3107 0.55393 0.0
H1673 H 0.76655 0.31388 0.58739 0.0
H1674 H 0.72433 0.31361 0.68719 0.0
H1675 H 0.72127 0.32183 0.65409 0.0
C1676 C 0.42814 0.08021 0.36324 0.0
C1677 C 0.43317 0.07568 0.34406 0.0
C1678 C 0.44011 0.07821 0.37896 0.0
C1679 C 0.47563 0.04875 0.39033 0.0
H1680 H 0.48674 0.08718 0.43832 0.0
C1681 C 0.50169 0.02564 0.46117 0.0
C1682 C 0.51771 0.03856 0.47149 0.0
C1683 C 0.49274 0.032 0.44561 0.0
C1684 C 0.48387 0.07647 0.4249 0.0
H1685 H 0.45502 0.06638 0.32631 0.0
H1686 H 0.47574 0.06289 0.35365 0.0
H1687 H 0.46844 0.09568 0.41094 0.0
H1688 H 0.5369 0.0683 0.47397 0.0
H1689 H 0.52095 0.07964 0.44651 0.0
H1690 H 0.49067 0.02938 0.40427 0.0
C1691 C 0.46249 0.06774 0.35655 0.0
C1692 C 0.4733 0.08121 0.40937 0.0
C1693 C 0.45061 0.06977 0.34091 0.0
C1694 C 0.52461 0.05806 0.4661 0.0
C1695 C 0.51546 0.06457 0.45056 0.0
C1696 C 0.48599 0.04395 0.40584 0.0
C1697 C 0.45723 0.0716 0.3757 0.0
C1698 C 0.46901 0.0673 0.392 0.0
C1699 C 0.49955 0.05146 0.44013 0.0
C1700 C 0.49001 0.05764 0.42331 0.0
H1701 H 0.41488 0.085 0.36612 0.0
H1702 H 0.43569 0.08116 0.39361 0.0
H1703 H 0.47236 0.03765 0.37719 0.0
H1704 H 0.49608 0.01052 0.46506 0.0
H1705 H 0.48036 0.02173 0.43792 0.0
C1706 C 0.80534 0.7075 0.06796 0.0
C1707 C 0.79205 0.69278 0.05542 0.0
C1708 C 0.80092 0.71439 0.08677 0.0
C1709 C 0.76128 0.71875 0.118 0.0
H1710 H 0.79991 0.72286 0.15973 0.0
C1711 C 0.74894 0.73861 0.20032 0.0
C1712 C 0.76417 0.75181 0.21178 0.0
C1713 C 0.75118 0.73099 0.18092 0.0
C1714 C 0.78902 0.72202 0.14824 0.0
H1715 H 0.76348 0.67415 0.05277 0.0
H1716 H 0.75583 0.68624 0.08564 0.0
H1717 H 0.80606 0.71072 0.1265 0.0
H1718 H 0.79341 0.76809 0.21153 0.0
H1719 H 0.79712 0.75518 0.17797 0.0
H1720 H 0.74431 0.7303 0.13985 0.0
C1721 C 0.76964 0.69245 0.08084 0.0
C1722 C 0.79256 0.71505 0.12918 0.0
C1723 C 0.77409 0.68546 0.06204 0.0
C1724 C 0.78143 0.75769 0.20327 0.0
C1725 C 0.78362 0.75019 0.184 0.0
C1726 C 0.75775 0.72583 0.13713 0.0
C1727 C 0.78309 0.70681 0.09349 0.0
C1728 C 0.77885 0.71357 0.1138 0.0
C1729 C 0.76867 0.73648 0.17265 0.0
C1730 C 0.7717 0.72782 0.15244 0.0
H1731 H 0.81927 0.71356 0.06337 0.0
H1732 H 0.8115 0.72571 0.09607 0.0
H1733 H 0.75046 0.71785 0.10642 0.0
H1734 H 0.73546 0.7338 0.20645 0.0
H1735 H 0.73939 0.7204 0.17258 0.0
C1736 C 0.08899 0.03982 0.71734 0.0
C1737 C 0.10172 0.02742 0.72202 0.0
C1738 C 0.08644 0.04377 0.69823 0.0
C1739 C 0.09254 0.02211 0.6477 0.0
H1740 H 0.08068 0.0736 0.63576 0.0
C1741 C 0.07753 0.03465 0.56882 0.0
C1742 C 0.06042 0.04115 0.56553 0.0
C1743 C 0.08541 0.03595 0.58777 0.0
C1744 C 0.08399 0.05915 0.63891 0.0
H1745 H 0.1224 0.01018 0.71053 0.0
H1746 H 0.11833 0.01748 0.67733 0.0
H1747 H 0.0894 0.07015 0.66939 0.0
H1748 H 0.03867 0.05517 0.57921 0.0
H1749 H 0.05249 0.05753 0.61238 0.0
H1750 H 0.08699 0.01108 0.61728 0.0
C1751 C 0.1099 0.02371 0.68828 0.0
C1752 C 0.08891 0.05713 0.65815 0.0
C1753 C 0.1123 0.01959 0.70734 0.0
C1754 C 0.05187 0.05003 0.58139 0.0
C1755 C 0.05983 0.05147 0.60034 0.0
C1756 C 0.0878 0.02421 0.62848 0.0
C1757 C 0.09671 0.03557 0.68341 0.0
C1758 C 0.09296 0.03846 0.66282 0.0
C1759 C 0.07639 0.04391 0.60375 0.0
C1760 C 0.08321 0.04263 0.62391 0.0
H1761 H 0.08061 0.04606 0.72834 0.0
H1762 H 0.07597 0.05272 0.695 0.0
H1763 H 0.0952 0.00738 0.65075 0.0
H1764 H 0.08443 0.02781 0.55681 0.0
H1765 H 0.09832 0.03024 0.58998 0.0
C1766 C 0.75176 0.36919 0.44179 0.0
C1767 C 0.76795 0.3665 0.4524 0.0
C1768 C 0.74567 0.35713 0.42372 0.0
C1769 C 0.76363 0.32608 0.38342 0.0
H1770 H 0.71037 0.30403 0.36806 0.0
C1771 C 0.71505 0.26685 0.31646 0.0
C1772 C 0.72428 0.27475 0.30081 0.0
C1773 C 0.71972 0.27715 0.33552 0.0
C1774 C 0.7253 0.30992 0.37225 0.0
H1775 H 0.79025 0.34874 0.45233 0.0
H1776 H 0.7796 0.32784 0.42116 0.0
H1777 H 0.71962 0.32395 0.40041 0.0
H1778 H 0.74524 0.29976 0.29269 0.0
H1779 H 0.75338 0.31748 0.32561 0.0
H1780 H 0.76941 0.31201 0.35547 0.0
C1781 C 0.77174 0.33943 0.4266 0.0
C1782 C 0.73058 0.32154 0.39066 0.0
C1783 C 0.7778 0.35142 0.44457 0.0
C1784 C 0.73809 0.29309 0.30449 0.0
C1785 C 0.74279 0.30325 0.32339 0.0
C1786 C 0.75837 0.31455 0.3651 0.0
C1787 C 0.75568 0.34219 0.41589 0.0
C1788 C 0.74982 0.3298 0.39642 0.0
C1789 C 0.73375 0.29541 0.33916 0.0
C1790 C 0.73916 0.30649 0.3592 0.0
H1791 H 0.7438 0.38061 0.44739 0.0
H1792 H 0.73333 0.35976 0.41573 0.0
H1793 H 0.77856 0.33238 0.38729 0.0
H1794 H 0.70429 0.25277 0.31398 0.0
H1795 H 0.71257 0.2707 0.34742 0.0
C1796 C 0.42394 0.03016 0.23947 0.0
C1797 C 0.41327 0.04562 0.24299 0.0
C1798 C 0.43339 0.02812 0.22245 0.0
C1799 C 0.46411 0.04207 0.1958 0.0
H1800 H 0.44337 0.04037 0.14303 0.0
C1801 C 0.51034 0.05619 0.13082 0.0
C1802 C 0.50518 0.04153 0.11412 0.0
C1803 C 0.49861 0.0561 0.14637 0.0
C1804 C 0.44929 0.04081 0.15772 0.0
H1805 H 0.40278 0.06992 0.23073 0.0
H1806 H 0.41925 0.06614 0.20071 0.0
H1807 H 0.42231 0.04019 0.16992 0.0
H1808 H 0.48397 0.01523 0.10044 0.0
H1809 H 0.46343 0.01522 0.12752 0.0
H1810 H 0.49109 0.0429 0.18372 0.0
C1811 C 0.42037 0.05577 0.2113 0.0
C1812 C 0.4373 0.04079 0.17303 0.0
C1813 C 0.41098 0.05793 0.22845 0.0
C1814 C 0.48828 0.02668 0.11321 0.0
C1815 C 0.47646 0.02676 0.1286 0.0
C1816 C 0.47612 0.04237 0.18056 0.0
C1817 C 0.43221 0.04136 0.20855 0.0
C1818 C 0.44462 0.04127 0.19217 0.0
C1819 C 0.48147 0.04152 0.14525 0.0
C1820 C 0.4688 0.04165 0.1614 0.0
H1821 H 0.42577 0.02022 0.25026 0.0
H1822 H 0.44217 0.01664 0.22046 0.0
H1823 H 0.47012 0.04271 0.2105 0.0
H1824 H 0.52328 0.06783 0.13178 0.0
H1825 H 0.5027 0.06769 0.15907 0.0
C1826 C 0.79715 0.72333 0.95725 0.0
C1827 C 0.78449 0.70646 0.96272 0.0
C1828 C 0.79238 0.73264 0.94135 0.0
C1829 C 0.76351 0.71879 0.89534 0.0
H1830 H 0.77696 0.77727 0.89163 0.0
C1831 C 0.74597 0.75135 0.82539 0.0
C1832 C 0.75973 0.76717 0.81986 0.0
C1833 C 0.74798 0.74478 0.84351 0.0
C1834 C 0.7733 0.76087 0.89239 0.0
H1835 H 0.75626 0.68724 0.95663 0.0
H1836 H 0.74798 0.70357 0.92899 0.0
H1837 H 0.78153 0.76525 0.92292 0.0
H1838 H 0.78643 0.78842 0.82871 0.0
H1839 H 0.79021 0.77666 0.86026 0.0
H1840 H 0.75576 0.71424 0.86481 0.0
C1841 C 0.76172 0.70933 0.93682 0.0
C1842 C 0.77583 0.75402 0.91033 0.0
C1843 C 0.76645 0.70006 0.95275 0.0
C1844 C 0.7756 0.77622 0.83268 0.0
C1845 C 0.77767 0.76959 0.85079 0.0
C1846 C 0.76108 0.72561 0.87742 0.0
C1847 C 0.77487 0.72526 0.93057 0.0
C1848 C 0.77104 0.73289 0.91196 0.0
C1849 C 0.76384 0.75384 0.85645 0.0
C1850 C 0.76603 0.74671 0.87568 0.0
H1851 H 0.81113 0.72875 0.96465 0.0
H1852 H 0.80283 0.74486 0.93686 0.0
H1853 H 0.76005 0.70236 0.89605 0.0
H1854 H 0.73348 0.74426 0.81585 0.0
H1855 H 0.73694 0.73281 0.8475 0.0
C1856 C 0.79633 0.07982 0.00789 0.0
C1857 C 0.80285 0.0999 0.00355 0.0
C1858 C 0.80924 0.06812 0.01363 0.0
C1859 C 0.84098 0.04336 0.01048 0.0
H1860 H 0.88682 0.06985 0.04249 0.0
C1861 C 0.9115 0.01563 0.00439 0.0
C1862 C 0.92432 0.01908 0.02082 0.0
C1863 C 0.89424 0.02218 0.00555 0.0
C1864 C 0.87398 0.062 0.03383 0.0
H1865 H 0.82803 0.12348 0.00207 0.0
H1866 H 0.8503 0.10332 0.01207 0.0
H1867 H 0.86109 0.08826 0.03955 0.0
H1868 H 0.92875 0.03075 0.05164 0.0
H1869 H 0.89844 0.04186 0.05379 0.0
H1870 H 0.85403 0.01719 0.00452 0.0
C1871 C 0.83526 0.09662 0.01134 0.0
C1872 C 0.8593 0.07268 0.03196 0.0
C1873 C 0.82244 0.1082 0.00552 0.0
C1874 C 0.91915 0.02807 0.03871 0.0
C1875 C 0.90184 0.03452 0.0399 0.0
C1876 C 0.85568 0.03263 0.01236 0.0
C1877 C 0.82887 0.07637 0.01526 0.0
C1878 C 0.8429 0.06374 0.01978 0.0
C1879 C 0.88943 0.03221 0.0232 0.0
C1880 C 0.87259 0.04207 0.0236 0.0
H1881 H 0.78132 0.07297 0.00649 0.0
H1882 H 0.80388 0.05258 0.01664 0.0
H1883 H 0.82855 0.03605 0.00094 0.0
H1884 H 0.91518 0.00874 0.99043 0.0
H1885 H 0.88516 0.02035 0.99234 0.0
C1886 C 0.33224 0.41727 0.0303 0.0
C1887 C 0.31851 0.42926 0.03414 0.0
C1888 C 0.35024 0.42633 0.02529 0.0
C1889 C 0.37744 0.47452 0.00954 0.0
H1890 H 0.42067 0.45418 0.02846 0.0
C1891 C 0.45608 0.51844 0.01632 0.0
C1892 C 0.46922 0.50704 0.00873 0.0
C1893 C 0.43706 0.50887 0.01688 0.0
C1894 C 0.40869 0.45986 0.02294 0.0
H1895 H 0.3127 0.46007 0.0358 0.0
H1896 H 0.34433 0.47613 0.02806 0.0
H1897 H 0.3888 0.43762 0.03502 0.0
H1898 H 0.47282 0.47698 0.99516 0.0
H1899 H 0.43964 0.46015 0.99666 0.0
H1900 H 0.39772 0.49748 0.99836 0.0
C1901 C 0.34115 0.45961 0.02822 0.0
C1902 C 0.39039 0.45033 0.02659 0.0
C1903 C 0.32304 0.45045 0.03282 0.0
C1904 C 0.46296 0.48611 0.00112 0.0
C1905 C 0.44405 0.47647 0.00202 0.0
C1906 C 0.3958 0.48431 0.00623 0.0
C1907 C 0.35502 0.44768 0.02439 0.0
C1908 C 0.37449 0.45753 0.01997 0.0
C1909 C 0.43103 0.4877 0.01016 0.0
C1910 C 0.41154 0.47704 0.01292 0.0
H1911 H 0.32902 0.40084 0.03079 0.0
H1912 H 0.36035 0.41651 0.02199 0.0
H1913 H 0.36557 0.48027 0.00386 0.0
H1914 H 0.4606 0.53462 0.0222 0.0
H1915 H 0.42724 0.51778 0.0233 0.0
C1916 C 0.34082 0.59935 0.7414 0.0
C1917 C 0.34142 0.59027 0.75853 0.0
C1918 C 0.33065 0.615 0.74015 0.0
C1919 C 0.32223 0.65791 0.74911 0.0
H1920 H 0.27266 0.65822 0.76888 0.0
C1921 C 0.29416 0.73271 0.76439 0.0
C1922 C 0.27564 0.73207 0.75674 0.0
C1923 C 0.30086 0.71451 0.76491 0.0
C1924 C 0.28647 0.65828 0.76324 0.0
H1925 H 0.33078 0.58963 0.78732 0.0
H1926 H 0.31306 0.61691 0.78507 0.0
H1927 H 0.28588 0.62695 0.76769 0.0
H1928 H 0.24932 0.71171 0.74449 0.0
H1929 H 0.26105 0.6799 0.74555 0.0
H1930 H 0.32294 0.68918 0.74474 0.0
C1931 C 0.32047 0.61193 0.77264 0.0
C1932 C 0.29406 0.64046 0.76265 0.0
C1933 C 0.33073 0.59637 0.77394 0.0
C1934 C 0.26369 0.71276 0.75041 0.0
C1935 C 0.27037 0.69453 0.75107 0.0
C1936 C 0.31474 0.67572 0.74986 0.0
C1937 C 0.32076 0.62179 0.75594 0.0
C1938 C 0.31205 0.64014 0.75562 0.0
C1939 C 0.28915 0.69526 0.75794 0.0
C1940 C 0.29684 0.67615 0.75704 0.0
H1941 H 0.3488 0.59497 0.7292 0.0
H1942 H 0.33088 0.62213 0.72698 0.0
H1943 H 0.33623 0.65821 0.74385 0.0
H1944 H 0.30374 0.74729 0.76947 0.0
H1945 H 0.31531 0.7155 0.77057 0.0
C1946 C 0.2302 0.60526 0.50509 0.0
C1947 C 0.22703 0.62538 0.50945 0.0
C1948 C 0.22164 0.58982 0.51562 0.0
C1949 C 0.1894 0.57917 0.5557 0.0
H1950 H 0.15733 0.54317 0.51382 0.0
C1951 C 0.10932 0.55464 0.55933 0.0
C1952 C 0.09908 0.53783 0.5464 0.0
C1953 C 0.12914 0.55953 0.55975 0.0
C1954 C 0.16628 0.55247 0.52595 0.0
H1955 H 0.21475 0.64594 0.52947 0.0
H1956 H 0.20001 0.61925 0.54793 0.0
H1957 H 0.18763 0.56247 0.50697 0.0
H1958 H 0.10135 0.51161 0.52536 0.0
H1959 H 0.13592 0.51935 0.52684 0.0
H1960 H 0.16751 0.56975 0.57453 0.0
C1961 C 0.20898 0.61515 0.53653 0.0
C1962 C 0.18383 0.56362 0.52196 0.0
C1963 C 0.21734 0.63047 0.5259 0.0
C1964 C 0.10897 0.52492 0.53517 0.0
C1965 C 0.12879 0.52945 0.53598 0.0
C1966 C 0.17187 0.56775 0.55978 0.0
C1967 C 0.2099 0.59441 0.53061 0.0
C1968 C 0.1951 0.57797 0.53653 0.0
C1969 C 0.13913 0.54741 0.54754 0.0
C1970 C 0.1596 0.55515 0.5447 0.0
H1971 H 0.23746 0.60099 0.4923 0.0
H1972 H 0.22272 0.57399 0.51085 0.0
H1973 H 0.19791 0.58994 0.56727 0.0
H1974 H 0.10197 0.56482 0.56814 0.0
H1975 H 0.13643 0.57359 0.56871 0.0
C1976 C 0.69967 0.98402 0.76754 0.0
C1977 C 0.68196 0.97656 0.75716 0.0
C1978 C 0.71504 0.97479 0.76311 0.0
C1979 C 0.73011 0.93272 0.73002 0.0
H1980 H 0.74707 0.91812 0.77909 0.0
C1981 C 0.73833 0.85189 0.74026 0.0
C1982 C 0.75097 0.84888 0.75502 0.0
C1983 C 0.73725 0.87179 0.73693 0.0
C1984 C 0.74305 0.92235 0.7652 0.0
H1985 H 0.66695 0.95509 0.73274 0.0
H1986 H 0.69347 0.93844 0.7255 0.0
H1987 H 0.73182 0.94724 0.77917 0.0
H1988 H 0.77345 0.864 0.77686 0.0
H1989 H 0.77159 0.89897 0.77104 0.0
H1990 H 0.74024 0.90667 0.71623 0.0
C1991 C 0.69571 0.95162 0.73684 0.0
C1992 C 0.73426 0.93917 0.76523 0.0
C1993 C 0.6804 0.96106 0.74109 0.0
C1994 C 0.76339 0.86599 0.76556 0.0
C1995 C 0.76235 0.88596 0.76221 0.0
C1996 C 0.7389 0.91581 0.73 0.0
C1997 C 0.7129 0.9577 0.74845 0.0
C1998 C 0.7268 0.94391 0.74772 0.0
C1999 C 0.74883 0.88908 0.74829 0.0
C2000 C 0.74456 0.90984 0.74767 0.0
H2001 H 0.70139 0.9963 0.77973 0.0
H2002 H 0.72825 0.98018 0.772 0.0
H2003 H 0.72488 0.93626 0.71627 0.0
H2004 H 0.72873 0.83889 0.73178 0.0
H2005 H 0.72651 0.87361 0.72627 0.0
C2006 C 0.71926 0.93967 0.51858 0.0
C2007 C 0.72189 0.92687 0.53258 0.0
C2008 C 0.70325 0.94854 0.51821 0.0
C2009 C 0.65476 0.94407 0.53453 0.0
H2010 H 0.66261 0.00226 0.5293 0.0
C2011 C 0.59449 0.98905 0.54402 0.0
C2012 C 0.59256 0.00219 0.53017 0.0
C2013 C 0.61072 0.98063 0.54528 0.0
C2014 C 0.66015 0.98597 0.5306 0.0
H2015 H 0.70945 0.91276 0.55676 0.0
H2016 H 0.68148 0.92825 0.55608 0.0
H2017 H 0.68957 0.9851 0.52862 0.0
H2018 H 0.60615 0.01742 0.5072 0.0
H2019 H 0.63443 0.00254 0.5092 0.0
H2020 H 0.62533 0.94485 0.53633 0.0
C2021 C 0.6918 0.93138 0.54537 0.0
C2022 C 0.67559 0.97613 0.53018 0.0
C2023 C 0.70785 0.92257 0.54579 0.0
C2024 C 0.60736 0.00736 0.51805 0.0
C2025 C 0.62356 -0.00111 0.51926 0.0
C2026 C 0.63931 0.95388 0.53489 0.0
C2027 C 0.68948 0.94472 0.53178 0.0
C2028 C 0.67304 0.95507 0.53209 0.0
C2029 C 0.62528 0.98515 0.53266 0.0
C2030 C 0.64183 0.97494 0.5329 0.0
H2031 H 0.72978 0.94324 0.50815 0.0
H2032 H 0.70168 0.9585 0.50736 0.0
H2033 H 0.65234 0.92777 0.53583 0.0
H2034 H 0.58329 0.98492 0.55361 0.0
H2035 H 0.61177 0.97039 0.55599 0.0
C2036 C 0.34416 0.47993 0.77238 0.0
C2037 C 0.34635 0.49182 0.75701 0.0
C2038 C 0.33504 0.45923 0.76898 0.0
C2039 C 0.29922 0.42188 0.73942 0.0
H2040 H 0.32594 0.38161 0.75679 0.0
C2041 C 0.26277 0.33585 0.73484 0.0
C2042 C 0.26666 0.32608 0.75082 0.0
C2043 C 0.2735 0.35525 0.73276 0.0
C2044 C 0.31818 0.39264 0.75202 0.0
H2045 H 0.3403 0.49139 0.72607 0.0
H2046 H 0.32361 0.45505 0.72028 0.0
H2047 H 0.34232 0.41751 0.75867 0.0
H2048 H 0.2849 0.32863 0.77702 0.0
H2049 H 0.30312 0.36263 0.77388 0.0
H2050 H 0.27473 0.39743 0.73382 0.0
C2051 C 0.32929 0.4619 0.73487 0.0
C2052 C 0.32763 0.41315 0.75297 0.0
C2053 C 0.33883 0.48261 0.73819 0.0
C2054 C 0.28163 0.33581 0.76451 0.0
C2055 C 0.29219 0.35526 0.76259 0.0
C2056 C 0.28962 0.4014 0.73877 0.0
C2057 C 0.32759 0.45002 0.75022 0.0
C2058 C 0.31815 0.42799 0.747 0.0
C2059 C 0.28821 0.36534 0.74676 0.0
C2060 C 0.29888 0.38659 0.74545 0.0
H2061 H 0.3499 0.48648 0.78702 0.0
H2062 H 0.33373 0.45039 0.78107 0.0
H2063 H 0.29161 0.43314 0.73486 0.0
H2064 H 0.25138 0.32856 0.72399 0.0
H2065 H 0.27022 0.36235 0.72022 0.0
C2066 C 0.15312 0.57194 0.27681 0.0
C2067 C 0.14286 0.55764 0.26153 0.0
C2068 C 0.16052 0.59219 0.27398 0.0
C2069 C 0.17651 0.62331 0.23572 0.0
H2070 H 0.17862 0.66867 0.27735 0.0
C2071 C 0.21346 0.70855 0.23144 0.0
C2072 C 0.2252 0.71841 0.24805 0.0
C2073 C 0.20166 0.68919 0.23158 0.0
C2074 C 0.17818 0.65615 0.26561 0.0
H2075 H 0.13187 0.55367 0.23138 0.0
H2076 H 0.14478 0.58923 0.22648 0.0
H2077 H 0.16008 0.63467 0.28042 0.0
H2078 H 0.23402 0.71536 0.27767 0.0
H2079 H 0.21357 0.68185 0.27784 0.0
H2080 H 0.1949 0.64488 0.22108 0.0
C2081 C 0.14722 0.5846 0.24061 0.0
C2082 C 0.16757 0.63668 0.26736 0.0
C2083 C 0.13973 0.56428 0.24346 0.0
C2084 C 0.22513 0.70833 0.26462 0.0
C2085 C 0.21329 0.68915 0.2648 0.0
C2086 C 0.18709 0.64287 0.23393 0.0
C2087 C 0.15786 0.59871 0.2558 0.0
C2088 C 0.16702 0.6199 0.25268 0.0
C2089 C 0.20127 0.67948 0.24839 0.0
C2090 C 0.18842 0.65933 0.24911 0.0
H2091 H 0.15581 0.56742 0.29093 0.0
H2092 H 0.16888 0.60256 0.28591 0.0
H2093 H 0.17649 0.61067 0.22422 0.0
H2094 H 0.21317 0.71588 0.21843 0.0
H2095 H 0.19253 0.68206 0.21873 0.0
C2096 C 0.47055 0.69278 0.4334 0.0
C2097 C 0.48288 0.70133 0.42007 0.0
C2098 C 0.47704 0.68216 0.44748 0.0
C2099 C 0.51372 0.65252 0.45561 0.0
H2100 H 0.49353 0.65157 0.5065 0.0
C2101 C 0.52845 0.59297 0.50351 0.0
C2102 C 0.51187 0.58157 0.50992 0.0
C2103 C 0.5282 0.61169 0.4966 0.0
C2104 C 0.49934 0.65172 0.49236 0.0
H2105 H 0.512 0.70624 0.41175 0.0
H2106 H 0.52333 0.68783 0.43645 0.0
H2107 H 0.48697 0.67714 0.48636 0.0
H2108 H 0.48248 0.58176 0.51564 0.0
H2109 H 0.48201 0.61419 0.50345 0.0
H2110 H 0.52551 0.6267 0.46124 0.0
C2111 C 0.50855 0.68908 0.43578 0.0
C2112 C 0.49555 0.66632 0.48081 0.0
C2113 C 0.50205 0.69968 0.42165 0.0
C2114 C 0.49546 0.59004 0.51064 0.0
C2115 C 0.49523 0.60875 0.50378 0.0
C2116 C 0.51753 0.63797 0.46715 0.0
C2117 C 0.49604 0.67987 0.44862 0.0
C2118 C 0.50227 0.6665 0.46208 0.0
C2119 C 0.51139 0.61942 0.49605 0.0
C2120 C 0.50995 0.63704 0.48543 0.0
H2121 H 0.45571 0.69379 0.43266 0.0
H2122 H 0.46695 0.67502 0.45696 0.0
H2123 H 0.51891 0.65202 0.44117 0.0
H2124 H 0.54139 0.58699 0.50289 0.0
H2125 H 0.54096 0.61973 0.49102 0.0
C2126 C 0.58339 0.30799 0.66424 0.0
C2127 C 0.5731 0.32227 0.67276 0.0
C2128 C 0.6014 0.30752 0.67222 0.0
C2129 C 0.64113 0.33561 0.70739 0.0
H2130 H 0.64638 0.28019 0.71427 0.0
C2131 C 0.69886 0.31746 0.75992 0.0
C2132 C 0.70705 0.30066 0.75315 0.0
C2133 C 0.68362 0.32179 0.7491 0.0
C2134 C 0.6453 0.29576 0.71225 0.0
H2135 H 0.57417 0.34822 0.69546 0.0
H2136 H 0.60548 0.3472 0.7095 0.0
H2137 H 0.61852 0.28518 0.69612 0.0
H2138 H 0.70602 0.2754 0.72978 0.0
H2139 H 0.67996 0.28319 0.71081 0.0
H2140 H 0.66795 0.34611 0.72387 0.0
C2141 C 0.59969 0.33644 0.69662 0.0
C2142 C 0.62933 0.29862 0.70178 0.0
C2143 C 0.58169 0.33695 0.68861 0.0
C2144 C 0.70001 0.28849 0.73535 0.0
C2145 C 0.68496 0.29286 0.72454 0.0
C2146 C 0.6572 0.33274 0.7179 0.0
C2147 C 0.60945 0.32128 0.68889 0.0
C2148 C 0.62705 0.31855 0.69921 0.0
C2149 C 0.67638 0.30933 0.7314 0.0
C2150 C 0.65944 0.31275 0.7204 0.0
H2151 H 0.57726 0.29663 0.65188 0.0
H2152 H 0.60876 0.29593 0.66569 0.0
H2153 H 0.63978 0.35116 0.70559 0.0
H2154 H 0.70407 0.32706 0.77362 0.0
H2155 H 0.67719 0.3345 0.75482 0.0
C2156 C 0.95884 0.29938 0.90482 0.0
C2157 C 0.97266 0.28842 0.89812 0.0
C2158 C 0.96396 0.32016 0.91273 0.0
C2159 C 0.003 0.36642 0.91644 0.0
H2160 H 0.97548 0.38587 0.95955 0.0
C2161 C 0.0245 0.44794 0.96188 0.0
C2162 C 0.00969 0.45876 0.96465 0.0
C2163 C 0.02061 0.42712 0.95376 0.0
C2164 C 0.98321 0.38066 0.94745 0.0
H2165 H 0.00272 0.29077 0.89437 0.0
H2166 H 0.01179 0.32699 0.90875 0.0
H2167 H 0.96784 0.34959 0.94554 0.0
H2168 H 0.97918 0.45617 0.96123 0.0
H2169 H 0.97241 0.41976 0.94736 0.0
H2170 H 0.01863 0.39761 0.91879 0.0
C2171 C 0.9969 0.31961 0.90751 0.0
C2172 C 0.97879 0.35989 0.93933 0.0
C2173 C 0.99173 0.29881 0.89934 0.0
C2174 C 0.99091 0.4483 0.95925 0.0
C2175 C 0.98701 0.42743 0.9514 0.0
C2176 C 0.00758 0.38718 0.92475 0.0
C2177 C 0.98308 0.33052 0.91444 0.0
C2178 C 0.98844 0.35252 0.92354 0.0
C2179 C 0.00182 0.41666 0.94854 0.0
C2180 C 0.99757 0.39453 0.94019 0.0
H2181 H 0.94398 0.29192 0.90387 0.0
H2182 H 0.95285 0.32814 0.91742 0.0
H2183 H 0.01058 0.3614 0.90416 0.0
H2184 H 0.03913 0.45558 0.96583 0.0
H2185 H 0.03227 0.41912 0.9518 0.0
C2186 C 0.97523 0.77009 0.20466 0.0
C2187 C 0.97303 0.77545 0.18587 0.0
C2188 C 0.96044 0.76977 0.2172 0.0
C2189 C 0.92436 0.79722 0.22959 0.0
H2190 H 0.89322 0.74921 0.24639 0.0
C2191 C 0.84979 0.7978 0.25451 0.0
C2192 C 0.84239 0.78505 0.26806 0.0
C2193 C 0.8678 0.7974 0.24798 0.0
C2194 C 0.90204 0.76287 0.24226 0.0
H2195 H 0.95328 0.78367 0.16521 0.0
H2196 H 0.92779 0.78342 0.18718 0.0
H2197 H 0.92091 0.74535 0.22799 0.0
H2198 H 0.84826 0.76269 0.28626 0.0
H2199 H 0.88005 0.76237 0.27525 0.0
H2200 H 0.90574 0.81486 0.24363 0.0
C2201 C 0.9409 0.77943 0.19212 0.0
C2202 C 0.9178 0.76058 0.23166 0.0
C2203 C 0.95548 0.77945 0.17955 0.0
C2204 C 0.85366 0.77263 0.27573 0.0
C2205 C 0.87178 0.77233 0.26931 0.0
C2206 C 0.90884 0.79958 0.24039 0.0
C2207 C 0.94343 0.77509 0.21114 0.0
C2208 C 0.92868 0.77766 0.2248 0.0
C2209 C 0.87889 0.78436 0.255 0.0
C2210 C 0.89709 0.78234 0.24631 0.0
H2211 H 0.98859 0.76695 0.20994 0.0
H2212 H 0.96258 0.76636 0.23186 0.0
H2213 H 0.93274 0.81061 0.22451 0.0
H2214 H 0.84135 0.80745 0.2483 0.0
H2215 H 0.87261 0.80663 0.23675 0.0
C2216 C 0.48034 0.32997 0.08663 0.0
C2217 C 0.49344 0.32891 0.10187 0.0
C2218 C 0.48564 0.34293 0.07258 0.0
C2219 C 0.51824 0.3913 0.06974 0.0
H2220 H 0.50363 0.38093 0.01441 0.0
C2221 C 0.53742 0.45611 0.02366 0.0
C2222 C 0.52308 0.45847 0.01036 0.0
C2223 C 0.53598 0.43789 0.03186 0.0
C2224 C 0.50772 0.38409 0.02986 0.0
H2225 H 0.52282 0.33911 0.11327 0.0
H2226 H 0.53195 0.36149 0.08885 0.0
H2227 H 0.49657 0.35277 0.03409 0.0
H2228 H 0.49641 0.44334 0.99446 0.0
H2229 H 0.49348 0.41182 0.0093 0.0
H2230 H 0.52858 0.42261 0.06603 0.0
C2231 C 0.51751 0.35271 0.08797 0.0
C2232 C 0.50371 0.36796 0.04108 0.0
C2233 C 0.51225 0.33986 0.10195 0.0
C2234 C 0.50773 0.44188 0.00462 0.0
C2235 C 0.5061 0.42377 0.01309 0.0
C2236 C 0.52206 0.40738 0.05864 0.0
C2237 C 0.50411 0.35497 0.07358 0.0
C2238 C 0.50893 0.37146 0.06115 0.0
C2239 C 0.51993 0.4218 0.02727 0.0
C2240 C 0.51683 0.40406 0.03856 0.0
H2241 H 0.46576 0.32168 0.08612 0.0
H2242 H 0.475 0.34442 0.06165 0.0
H2243 H 0.52206 0.39459 0.08526 0.0
H2244 H 0.54953 0.46857 0.02814 0.0
H2245 H 0.54719 0.4367 0.04228 0.0
C2246 C 0.9473 0.29661 0.34381 0.0
C2247 C 0.94848 0.28733 0.36075 0.0
C2248 C 0.93005 0.30071 0.33707 0.0
C2249 C 0.87863 0.28235 0.34053 0.0
H2250 H 0.87402 0.32687 0.31103 0.0
C2251 C 0.80615 0.28979 0.30904 0.0
C2252 C 0.80523 0.29129 0.28906 0.0
C2253 C 0.82368 0.29334 0.3196 0.0
C2254 C 0.87514 0.31438 0.31925 0.0
H2255 H 0.93276 0.27641 0.3846 0.0
H2256 H 0.90297 0.28426 0.37334 0.0
H2257 H 0.90481 0.32595 0.32684 0.0
H2258 H 0.82171 0.29892 0.26465 0.0
H2259 H 0.85249 0.3051 0.28314 0.0
H2260 H 0.8491 0.27068 0.33286 0.0
C2261 C 0.91517 0.28772 0.36484 0.0
C2262 C 0.89276 0.31379 0.32826 0.0
C2263 C 0.93233 0.28334 0.3714 0.0
C2264 C 0.82207 0.29764 0.28005 0.0
C2265 C 0.83966 0.30124 0.29065 0.0
C2266 C 0.86107 0.28305 0.33172 0.0
C2267 C 0.91364 0.29584 0.34725 0.0
C2268 C 0.89475 0.29763 0.33885 0.0
C2269 C 0.84063 0.29849 0.31039 0.0
C2270 C 0.85914 0.29894 0.32083 0.0
H2271 H 0.9595 0.29984 0.33524 0.0
H2272 H 0.92941 0.3068 0.32339 0.0
H2273 H 0.87964 0.26937 0.34812 0.0
H2274 H 0.79335 0.2851 0.31639 0.0
H2275 H 0.82399 0.29143 0.33487 0.0
C2276 C 0.99778 0.72586 0.61222 0.0
C2277 C 0.97843 0.72644 0.61301 0.0
C2278 C 0.00345 0.70741 0.60576 0.0
C2279 C 0.98457 0.65526 0.57788 0.0
H2280 H 0.03375 0.64583 0.59477 0.0
C2281 C 0.03406 0.5892 0.56403 0.0
C2282 C 0.02869 0.58288 0.54418 0.0
C2283 C 0.02752 0.60573 0.57424 0.0
C2284 C 0.01983 0.64799 0.59009 0.0
H2285 H 0.94986 0.70807 0.60849 0.0
H2286 H 0.95969 0.67565 0.59819 0.0
H2287 H 0.02257 0.67565 0.61027 0.0
H2288 H 0.01309 0.58947 0.51916 0.0
H2289 H 0.00266 0.6187 0.53642 0.0
H2290 H 0.98136 0.62714 0.55843 0.0
C2291 C 0.97056 0.68954 0.60174 0.0
C2292 C 0.01353 0.66536 0.59877 0.0
C2293 C 0.96487 0.70811 0.60775 0.0
C2294 C 0.01727 0.59379 0.53455 0.0
C2295 C 0.01107 0.61046 0.54456 0.0
C2296 C 0.99068 0.63772 0.56953 0.0
C2297 C 0.98993 0.68896 0.60035 0.0
C2298 C 0.99598 0.6695 0.59247 0.0
C2299 C 0.01579 0.61649 0.56462 0.0
C2300 C 0.00862 0.63411 0.5751 0.0
H2301 H 0.00855 0.7398 0.61609 0.0
H2302 H 0.01846 0.70783 0.60455 0.0
H2303 H 0.97108 0.65786 0.57239 0.0
H2304 H 0.04325 0.5814 0.57166 0.0
H2305 H 0.03147 0.60988 0.58967 0.0
C2306 C 0.5642 0.74787 0.86639 0.0
C2307 C 0.55857 0.7661 0.87414 0.0
C2308 C 0.58048 0.74876 0.85605 0.0
C2309 C 0.62476 0.78298 0.84585 0.0
H2310 H 0.61935 0.74494 0.7977 0.0
C2311 C 0.68362 0.78615 0.79167 0.0
C2312 C 0.68839 0.76701 0.78539 0.0
C2313 C 0.6671 0.78703 0.80137 0.0
C2314 C 0.6211 0.75559 0.81114 0.0
H2315 H 0.56616 0.79957 0.87804 0.0
H2316 H 0.59456 0.80109 0.85987 0.0
H2317 H 0.59272 0.74433 0.8183 0.0
H2318 H 0.67906 0.73378 0.78347 0.0
H2319 H 0.65038 0.73535 0.80033 0.0
H2320 H 0.65323 0.79412 0.83868 0.0
C2321 C 0.5864 0.78613 0.86184 0.0
C2322 C 0.6059 0.75519 0.82299 0.0
C2323 C 0.57011 0.78524 0.87222 0.0
C2324 C 0.67586 0.74879 0.78818 0.0
C2325 C 0.65935 0.74967 0.79776 0.0
C2326 C 0.64 0.78339 0.83397 0.0
C2327 C 0.59147 0.76788 0.85322 0.0
C2328 C 0.60762 0.7687 0.84058 0.0
C2329 C 0.65499 0.76879 0.80482 0.0
C2330 C 0.63838 0.76954 0.8166 0.0
H2331 H 0.55572 0.73288 0.86777 0.0
H2332 H 0.58428 0.73444 0.84996 0.0
H2333 H 0.62655 0.7935 0.85937 0.0
H2334 H 0.69297 0.80048 0.78974 0.0
H2335 H 0.66395 0.80197 0.80644 0.0
C2336 C 0.39417 0.54095 0.67247 0.0
C2337 C 0.39567 0.56044 0.68362 0.0
C2338 C 0.40359 0.53893 0.65531 0.0
C2339 C 0.44694 0.56376 0.63647 0.0
H2340 H 0.42929 0.52675 0.58863 0.0
C2341 C 0.49699 0.55197 0.57513 0.0
C2342 C 0.49502 0.53188 0.56526 0.0
C2343 C 0.48349 0.55679 0.58791 0.0
C2344 C 0.43449 0.537 0.60198 0.0
H2345 H 0.40675 0.59328 0.68455 0.0
H2346 H 0.42322 0.58968 0.65472 0.0
H2347 H 0.40684 0.53284 0.61314 0.0
H2348 H 0.47788 0.50093 0.56119 0.0
H2349 H 0.45468 0.50906 0.58402 0.0
H2350 H 0.47467 0.56727 0.62597 0.0
C2351 C 0.41498 0.57597 0.6594 0.0
C2352 C 0.42159 0.54056 0.61593 0.0
C2353 C 0.40547 0.57801 0.67644 0.0
C2354 C 0.47961 0.51659 0.56861 0.0
C2355 C 0.46622 0.52132 0.58151 0.0
C2356 C 0.45985 0.56002 0.62268 0.0
C2357 C 0.41472 0.55635 0.64908 0.0
C2358 C 0.42774 0.55385 0.63337 0.0
C2359 C 0.46792 0.54152 0.59127 0.0
C2360 C 0.45386 0.54642 0.60535 0.0
H2361 H 0.38665 0.52712 0.67754 0.0
H2362 H 0.40317 0.52361 0.64765 0.0
H2363 H 0.45216 0.5738 0.64995 0.0
H2364 H 0.50869 0.56406 0.57261 0.0
H2365 H 0.48514 0.57256 0.59495 0.0
C2366 C 0.80763 0.21221 0.96274 0.0
C2367 C 0.79092 0.19927 0.96711 0.0
C2368 C 0.80669 0.22766 0.9511 0.0
C2369 C 0.77329 0.25574 0.92873 0.0
H2370 H 0.80453 0.25203 0.88476 0.0
C2371 C 0.75086 0.27096 0.85256 0.0
C2372 C 0.76484 0.27965 0.8409 0.0
C2373 C 0.75595 0.26672 0.87102 0.0
C2374 C 0.79597 0.25367 0.89711 0.0
H2375 H 0.76012 0.1934 0.96392 0.0
H2376 H 0.75852 0.21999 0.9436 0.0
H2377 H 0.81057 0.2351 0.91264 0.0
H2378 H 0.79494 0.29162 0.83955 0.0
H2379 H 0.80384 0.28428 0.87183 0.0
H2380 H 0.75812 0.2735 0.91269 0.0
C2381 C 0.77235 0.21838 0.94916 0.0
C2382 C 0.79947 0.24398 0.91314 0.0
C2383 C 0.77329 0.20294 0.96066 0.0
C2384 C 0.78389 0.28482 0.84826 0.0
C2385 C 0.78899 0.28056 0.86668 0.0
C2386 C 0.76977 0.2654 0.91267 0.0
C2387 C 0.78903 0.23054 0.94378 0.0
C2388 C 0.78776 0.2443 0.92883 0.0
C2389 C 0.77512 0.27106 0.8781 0.0
C2390 C 0.78069 0.26389 0.89642 0.0
H2391 H 0.82143 0.20985 0.96758 0.0
H2392 H 0.81978 0.23694 0.94734 0.0
H2393 H 0.76423 0.25655 0.94076 0.0
H2394 H 0.73607 0.26684 0.84719 0.0
H2395 H 0.74495 0.25915 0.87934 0.0
C2396 C 0.06672 0.46677 0.17674 0.0
C2397 C 0.08313 0.48029 0.1858 0.0
C2398 C 0.05952 0.46929 0.1584 0.0
C2399 C 0.05975 0.5089 0.12617 0.0
H2400 H 0.04008 0.4623 0.08628 0.0
C2401 C 0.03888 0.51991 0.04816 0.0
C2402 C 0.0221 0.50733 0.03899 0.0
C2403 C 0.04634 0.51592 0.06578 0.0
C2404 C 0.04533 0.47543 0.09736 0.0
H2405 H 0.10513 0.50671 0.18248 0.0
H2406 H 0.09264 0.51097 0.15044 0.0
H2407 H 0.05347 0.45642 0.11749 0.0
H2408 H -0.00017 0.48081 0.04097 0.0
H2409 H 0.01275 0.47393 0.07209 0.0
H2410 H 0.0516 0.52792 0.10617 0.0
C2411 C 0.08519 0.49862 0.15764 0.0
C2412 C 0.05301 0.47207 0.11521 0.0
C2413 C 0.0924 0.4961 0.17595 0.0
C2414 C 0.01284 0.49069 0.04776 0.0
C2415 C 0.02029 0.48669 0.06547 0.0
C2416 C 0.05208 0.51225 0.10838 0.0
C2417 C 0.06855 0.48539 0.14876 0.0
C2418 C 0.06038 0.48879 0.12977 0.0
C2419 C 0.03709 0.49934 0.07471 0.0
C2420 C 0.04487 0.49558 0.09373 0.0
H2421 H 0.05924 0.45443 0.18394 0.0
H2422 H 0.04659 0.45896 0.15201 0.0
H2423 H 0.06495 0.52207 0.13724 0.0
H2424 H 0.04623 0.53297 0.04178 0.0
H2425 H 0.05942 0.52579 0.07238 0.0
C2426 C 0.76346 0.86879 0.48294 0.0
C2427 C 0.77399 0.85993 0.4958 0.0
C2428 C 0.76027 0.86039 0.46324 0.0
C2429 C 0.74943 0.83472 0.42306 0.0
H2430 H 0.79242 0.81618 0.40015 0.0
C2431 C 0.74661 0.79434 0.34324 0.0
C2432 C 0.76299 0.7992 0.33302 0.0
C2433 C 0.74677 0.8017 0.36309 0.0
C2434 C 0.78032 0.82146 0.40624 0.0
H2435 H 0.78825 0.83452 0.49837 0.0
H2436 H 0.78225 0.81962 0.46431 0.0
H2437 H 0.79437 0.82882 0.43467 0.0
H2438 H 0.79215 0.81623 0.33548 0.0
H2439 H 0.7923 0.82931 0.36981 0.0
H2440 H 0.73567 0.82794 0.3943 0.0
C2441 C 0.77701 0.83343 0.46921 0.0
C2442 C 0.78132 0.82841 0.42615 0.0
C2443 C 0.78036 0.84192 0.48878 0.0
C2444 C 0.77935 0.81196 0.34294 0.0
C2445 C 0.77947 0.8194 0.36269 0.0
C2446 C 0.74845 0.8278 0.40304 0.0
C2447 C 0.7674 0.84288 0.45606 0.0
C2448 C 0.76591 0.83513 0.43485 0.0
C2449 C 0.76329 0.81414 0.37309 0.0
C2450 C 0.76395 0.82119 0.39438 0.0
H2451 H 0.75838 0.8827 0.48791 0.0
H2452 H 0.75291 0.86813 0.4535 0.0
H2453 H 0.73724 0.83964 0.42931 0.0
H2454 H 0.73378 0.78452 0.33602 0.0
H2455 H 0.73411 0.79721 0.37069 0.0
C2456 C 0.42337 0.51505 0.78195 0.0
C2457 C 0.41708 0.53375 0.78559 0.0
C2458 C 0.43194 0.50737 0.79706 0.0
C2459 C 0.46125 0.52321 0.84102 0.0
H2460 H 0.43781 0.47279 0.86023 0.0
C2461 C 0.46649 0.49131 0.91694 0.0
C2462 C 0.48621 0.49313 0.91963 0.0
C2463 C 0.45812 0.49176 0.89851 0.0
C2464 C 0.44455 0.48676 0.85483 0.0
H2465 H 0.41485 0.55917 0.80768 0.0
H2466 H 0.43048 0.54607 0.83394 0.0
H2467 H 0.42308 0.48318 0.8315 0.0
H2468 H 0.51251 0.49542 0.90516 0.0
H2469 H 0.49791 0.49661 0.87304 0.0
H2470 H 0.48258 0.52704 0.8643 0.0
C2471 C 0.4285 0.53727 0.81948 0.0
C2472 C 0.43621 0.49264 0.83847 0.0
C2473 C 0.41957 0.54471 0.80451 0.0
C2474 C 0.49727 0.49408 0.90347 0.0
C2475 C 0.48896 0.4948 0.88513 0.0
C2476 C 0.46978 0.51715 0.85707 0.0
C2477 C 0.43469 0.51856 0.81586 0.0
C2478 C 0.44434 0.51111 0.83175 0.0
C2479 C 0.46942 0.49428 0.88264 0.0
C2480 C 0.46134 0.49908 0.86432 0.0
H2481 H 0.42148 0.50625 0.76749 0.0
H2482 H 0.43669 0.49291 0.79405 0.0
H2483 H 0.46769 0.53753 0.836 0.0
H2484 H 0.45767 0.49051 0.92921 0.0
H2485 H 0.44303 0.49146 0.89694 0.0
C2486 C 0.75459 0.15888 0.05398 0.0
C2487 C 0.77269 0.1672 0.04828 0.0
C2488 C 0.74913 0.16527 0.07257 0.0
C2489 C 0.73871 0.18972 0.11011 0.0
H2490 H 0.77825 0.19815 0.15171 0.0
C2491 C 0.73546 0.23498 0.18692 0.0
C2492 C 0.74531 0.22944 0.20261 0.0
C2493 C 0.73577 0.22465 0.16806 0.0
C2494 C 0.76689 0.19557 0.1404 0.0
H2495 H 0.79887 0.18945 0.05727 0.0
H2496 H 0.78932 0.20073 0.08931 0.0
H2497 H 0.7847 0.18567 0.11887 0.0
H2498 H 0.76152 0.20768 0.21147 0.0
H2499 H 0.76147 0.18916 0.17883 0.0
H2500 H 0.72084 0.19951 0.13192 0.0
C2501 C 0.77948 0.1889 0.0797 0.0
C2502 C 0.77071 0.18871 0.12145 0.0
C2503 C 0.78494 0.18248 0.06127 0.0
C2504 C 0.75415 0.21248 0.19949 0.0
C2505 C 0.75419 0.20196 0.18078 0.0
C2506 C 0.73483 0.19658 0.1292 0.0
C2507 C 0.76169 0.1801 0.08575 0.0
C2508 C 0.75682 0.18605 0.10601 0.0
C2509 C 0.74571 0.20846 0.1647 0.0
C2510 C 0.74897 0.19977 0.14455 0.0
H2511 H 0.74488 0.14702 0.04433 0.0
H2512 H 0.73534 0.15814 0.07681 0.0
H2513 H 0.72771 0.18784 0.0985 0.0
H2514 H 0.72848 0.24801 0.18905 0.0
H2515 H 0.72913 0.23011 0.15603 0.0
C2516 C 0.10115 0.4921 0.31313 0.0
C2517 C 0.09092 0.49638 0.29701 0.0
C2518 C 0.09561 0.49662 0.3319 0.0
C2519 C 0.05529 0.50468 0.35993 0.0
H2520 H 0.0947 0.53048 0.40036 0.0
C2521 C 0.04494 0.50554 0.44211 0.0
C2522 C 0.05299 0.52375 0.45457 0.0
C2523 C 0.04844 0.50356 0.42238 0.0
C2524 C 0.08349 0.52348 0.38923 0.0
H2525 H 0.06648 0.50822 0.28789 0.0
H2526 H 0.05666 0.51606 0.32098 0.0
H2527 H 0.10282 0.52486 0.36665 0.0
H2528 H 0.07073 0.55427 0.45632 0.0
H2529 H 0.0769 0.55083 0.42184 0.0
H2530 H 0.03598 0.50319 0.38264 0.0
C2531 C 0.06905 0.50927 0.31894 0.0
C2532 C 0.08818 0.52009 0.36996 0.0
C2533 C 0.07469 0.50484 0.30005 0.0
C2534 C 0.06445 0.54002 0.44701 0.0
C2535 C 0.06801 0.53803 0.42731 0.0
C2536 C 0.05061 0.50798 0.37928 0.0
C2537 C 0.07962 0.50541 0.33504 0.0
C2538 C 0.07419 0.51041 0.35516 0.0
C2539 C 0.06012 0.51974 0.41481 0.0
C2540 C 0.06472 0.51722 0.39414 0.0
H2541 H 0.11346 0.48515 0.3113 0.0
H2542 H 0.10377 0.49305 0.344 0.0
H2543 H 0.04425 0.4971 0.34881 0.0
H2544 H 0.03602 0.49278 0.44762 0.0
H2545 H 0.04237 0.48919 0.41314 0.0
C2546 C 0.74155 0.8506 0.59342 0.0
C2547 C 0.75837 0.84696 0.58529 0.0
C2548 C 0.73296 0.83832 0.60674 0.0
C2549 C 0.7323 0.78978 0.62766 0.0
H2550 H 0.72592 0.82282 0.67628 0.0
C2551 C 0.74256 0.78399 0.71245 0.0
C2552 C 0.72999 0.76578 0.71511 0.0
C2553 C 0.74106 0.79273 0.69546 0.0
C2554 C 0.72734 0.81337 0.6627 0.0
H2555 H 0.77856 0.82662 0.58373 0.0
H2556 H 0.76357 0.80527 0.60695 0.0
H2557 H 0.73194 0.83936 0.64719 0.0
H2558 H 0.70618 0.74215 0.70193 0.0
H2559 H 0.704 0.7572 0.67154 0.0
H2560 H 0.72857 0.76394 0.64359 0.0
C2561 C 0.75703 0.81761 0.60302 0.0
C2562 C 0.73067 0.82279 0.64603 0.0
C2563 C 0.76571 0.82997 0.58984 0.0
C2564 C 0.71595 0.75629 0.70028 0.0
C2565 C 0.71471 0.76485 0.68297 0.0
C2566 C 0.72874 0.7803 0.64434 0.0
C2567 C 0.74089 0.82202 0.61204 0.0
C2568 C 0.73384 0.81123 0.6285 0.0
C2569 C 0.72723 0.78322 0.68051 0.0
C2570 C 0.72691 0.79217 0.66214 0.0
H2571 H 0.73544 0.86348 0.59017 0.0
H2572 H 0.72044 0.84196 0.61335 0.0
H2573 H 0.73455 0.78049 0.61429 0.0
H2574 H 0.7538 0.79141 0.7234 0.0
H2575 H 0.75112 0.80667 0.69378 0.0
C2576 C 0.70497 0.43802 0.49908 0.0
C2577 C 0.71507 0.43863 0.51699 0.0
C2578 C 0.68931 0.44751 0.49815 0.0
C2579 C 0.66797 0.48774 0.52554 0.0
H2580 H 0.62226 0.46119 0.49339 0.0
C2581 C 0.59651 0.51414 0.53322 0.0
C2582 C 0.5848 0.51289 0.51626 0.0
C2583 C 0.61333 0.50664 0.53235 0.0
C2584 C 0.63503 0.46898 0.50221 0.0
H2585 H 0.71627 0.44919 0.54804 0.0
H2586 H 0.68892 0.4654 0.54643 0.0
H2587 H 0.64941 0.44435 0.49367 0.0
H2588 H 0.58178 0.50367 0.48499 0.0
H2589 H 0.61128 0.49083 0.48341 0.0
H2590 H 0.65352 0.51226 0.53426 0.0
C2591 C 0.6933 0.45798 0.53304 0.0
C2592 C 0.65058 0.4593 0.50239 0.0
C2593 C 0.70891 0.44852 0.53397 0.0
C2594 C 0.59055 0.50477 0.49831 0.0
C2595 C 0.60735 0.49727 0.49743 0.0
C2596 C 0.65243 0.49742 0.52537 0.0
C2597 C 0.68343 0.45781 0.5151 0.0
C2598 C 0.66716 0.46846 0.51421 0.0
C2599 C 0.61875 0.49773 0.51449 0.0
C2600 C 0.6357 0.48807 0.51384 0.0
H2601 H 0.70939 0.43057 0.48573 0.0
H2602 H 0.68208 0.4472 0.48408 0.0
H2603 H 0.68066 0.49541 0.53453 0.0
H2604 H 0.59235 0.52025 0.54726 0.0
H2605 H 0.62169 0.50708 0.54579 0.0
C2606 C 0.2156 0.12008 0.48917 0.0
C2607 C 0.2289 0.11133 0.47847 0.0
C2608 C 0.19705 0.10901 0.48953 0.0
C2609 C 0.16194 0.06564 0.46279 0.0
H2610 H 0.13818 0.06588 0.51194 0.0
C2611 C 0.08887 0.01452 0.46942 0.0
C2612 C 0.07596 0.02442 0.47952 0.0
C2613 C 0.10805 0.02402 0.47031 0.0
C2614 C 0.14459 0.06577 0.4981 0.0
H2615 H 0.23312 0.08425 0.45953 0.0
H2616 H 0.20081 0.06496 0.46024 0.0
H2617 H 0.1705 0.08534 0.51093 0.0
H2618 H 0.0729 0.05152 0.49908 0.0
H2619 H 0.1063 0.06818 0.50054 0.0
H2620 H 0.13601 0.04627 0.44991 0.0
C2621 C 0.20467 0.08041 0.46823 0.0
C2622 C 0.16306 0.07695 0.4975 0.0
C2623 C 0.2232 0.09145 0.4679 0.0
C2624 C 0.08259 0.04357 0.49112 0.0
C2625 C 0.10174 0.05306 0.49204 0.0
C2626 C 0.14348 0.05448 0.46338 0.0
C2627 C 0.19144 0.08901 0.47916 0.0
C2628 C 0.17188 0.07707 0.47983 0.0
C2629 C 0.11461 0.04355 0.48137 0.0
C2630 C 0.13457 0.05451 0.48102 0.0
H2631 H 0.21956 0.13539 0.49744 0.0
H2632 H 0.18708 0.11614 0.49786 0.0
H2633 H 0.16829 0.06565 0.44891 0.0
H2634 H 0.0841 -0.00032 0.46046 0.0
H2635 H 0.11771 0.01619 0.46218 0.0
C2636 C 0.18152 0.96625 0.78504 0.0
C2637 C 0.16946 0.97407 0.77286 0.0
C2638 C 0.19412 0.95451 0.77716 0.0
C2639 C 0.19948 0.92084 0.73232 0.0
H2640 H 0.24538 0.91692 0.76151 0.0
C2641 C 0.25813 0.86469 0.73745 0.0
C2642 C 0.24519 0.84566 0.73438 0.0
C2643 C 0.25175 0.88316 0.73726 0.0
C2644 C 0.23286 0.918 0.75283 0.0
H2645 H 0.16208 0.97678 0.7428 0.0
H2646 H 0.18442 0.95661 0.72904 0.0
H2647 H 0.23012 0.94578 0.77062 0.0
H2648 H 0.21554 0.83104 0.72757 0.0
H2649 H 0.2044 0.86301 0.72788 0.0
H2650 H 0.20228 0.8931 0.71447 0.0
C2651 C 0.18378 0.95915 0.74471 0.0
C2652 C 0.22392 0.93444 0.75828 0.0
C2653 C 0.17103 0.9708 0.75261 0.0
C2654 C 0.22592 0.84542 0.73002 0.0
C2655 C 0.21952 0.86385 0.73004 0.0
C2656 C 0.20856 0.90454 0.72671 0.0
C2657 C 0.19515 0.95043 0.75687 0.0
C2658 C 0.20667 0.93556 0.74864 0.0
C2659 C 0.23227 0.88299 0.73419 0.0
C2660 C 0.22491 0.90242 0.73742 0.0
H2661 H 0.18073 0.96844 0.8007 0.0
H2662 H 0.20238 0.9478 0.78701 0.0
H2663 H 0.18621 0.92113 0.72454 0.0
H2664 H 0.27313 0.8654 0.74061 0.0
H2665 H 0.26203 0.8976 0.7401 0.0
C2666 C 0.34258 0.95584 0.00979 0.0
C2667 C 0.32704 0.96431 0.0045 0.0
C2668 C 0.36112 0.96628 0.00821 0.0
C2669 C 0.3894 0.01793 0.01032 0.0
H2670 H 0.42837 0.9888 0.99204 0.0
C2671 C 0.47612 0.03168 0.00336 0.0
C2672 C 0.48225 0.04048 0.02266 0.0
C2673 C 0.45676 0.02501 0.99787 0.0
C2674 C 0.41764 0.99728 0.99691 0.0
H2675 H 0.3188 0.99037 0.99322 0.0
H2676 H 0.35138 0.00884 0.9908 0.0
H2677 H 0.3951 0.97123 0.98764 0.0
H2678 H 0.47279 0.05028 0.05101 0.0
H2679 H 0.43909 0.03866 0.04139 0.0
H2680 H 0.41204 0.04376 0.0202 0.0
C2681 C 0.34908 0.99399 0.99602 0.0
C2682 C 0.39862 0.98715 0.99454 0.0
C2683 C 0.33047 0.98338 0.99735 0.0
C2684 C 0.46858 0.04347 0.03605 0.0
C2685 C 0.44924 0.03694 0.03051 0.0
C2686 C 0.40847 0.02802 0.01286 0.0
C2687 C 0.36458 0.98557 0.00156 0.0
C2688 C 0.38435 0.99721 0.00161 0.0
C2689 C 0.44314 0.02718 0.0115 0.0
C2690 C 0.42281 0.01764 0.00655 0.0
H2691 H 0.34055 0.94136 0.01558 0.0
H2692 H 0.37278 0.95956 0.01288 0.0
H2693 H 0.3787 0.02601 0.01601 0.0
H2694 H 0.48626 0.0292 0.99265 0.0
H2695 H 0.45245 0.01772 0.98306 0.0
C2696 C 0.83813 0.58024 0.7702 0.0
C2697 C 0.84949 0.58539 0.78778 0.0
C2698 C 0.82069 0.58623 0.76862 0.0
C2699 C 0.78519 0.60906 0.79716 0.0
H2700 H 0.77874 0.63396 0.75054 0.0
C2701 C 0.75137 0.67912 0.79366 0.0
C2702 C 0.7427 0.68177 0.77596 0.0
C2703 C 0.75838 0.66129 0.79521 0.0
C2704 C 0.77993 0.62661 0.76343 0.0
H2705 H 0.85116 0.60015 0.81772 0.0
H2706 H 0.82107 0.61136 0.81476 0.0
H2707 H 0.80328 0.61414 0.75297 0.0
H2708 H 0.73276 0.66721 0.74662 0.0
H2709 H 0.74502 0.63592 0.74933 0.0
H2710 H 0.76245 0.62279 0.80801 0.0
C2711 C 0.82539 0.60225 0.8023 0.0
C2712 C 0.79409 0.61522 0.76485 0.0
C2713 C 0.84274 0.59601 0.80396 0.0
C2714 C 0.73956 0.66557 0.76038 0.0
C2715 C 0.74661 0.64772 0.76191 0.0
C2716 C 0.77105 0.62058 0.79577 0.0
C2717 C 0.81433 0.59777 0.78449 0.0
C2718 C 0.79729 0.60686 0.78196 0.0
C2719 C 0.75687 0.64586 0.77905 0.0
C2720 C 0.7687 0.63002 0.77912 0.0
H2721 H 0.84277 0.5717 0.75757 0.0
H2722 H 0.81236 0.58217 0.75481 0.0
H2723 H 0.78705 0.60246 0.81038 0.0
H2724 H 0.75384 0.69137 0.80593 0.0
H2725 H 0.76631 0.66041 0.80858 0.0
C2726 C 0.84813 0.64031 0.99829 0.0
C2727 C 0.83161 0.631 0.00641 0.0
C2728 C 0.86359 0.63056 0.99669 0.0
C2729 C 0.88507 0.58937 0.01325 0.0
H2730 H 0.90294 0.58429 0.96121 0.0
C2731 C 0.93456 0.53396 0.99053 0.0
C2732 C 0.94998 0.54169 0.98004 0.0
C2733 C 0.91971 0.54451 0.99317 0.0
C2734 C 0.89827 0.58574 0.97587 0.0
H2735 H 0.81889 0.60504 0.0206 0.0
H2736 H 0.84596 0.58813 0.01794 0.0
H2737 H 0.87927 0.60514 0.96899 0.0
H2738 H 0.96166 0.56588 0.96333 0.0
H2739 H 0.93588 0.58447 0.96811 0.0
H2740 H 0.90413 0.5701 0.02021 0.0
C2741 C 0.84692 0.60288 0.01273 0.0
C2742 C 0.88476 0.59773 0.98034 0.0
C2743 C 0.8314 0.61256 0.01422 0.0
C2744 C 0.94987 0.55955 0.9714 0.0
C2745 C 0.93508 0.57017 0.97414 0.0
C2746 C 0.89868 0.57747 0.00882 0.0
C2747 C 0.86288 0.61143 0.00332 0.0
C2748 C 0.87798 0.59962 -0.00094 0.0
C2749 C 0.92007 0.56306 0.98548 0.0
C2750 C 0.90537 0.57544 0.99004 0.0
H2751 H 0.84877 0.65455 0.99219 0.0
H2752 H 0.87587 0.63766 0.98969 0.0
H2753 H 0.88019 0.59068 0.02783 0.0
H2754 H 0.9343 0.52017 0.99729 0.0
H2755 H 0.90815 0.53836 0.0016 0.0
C2756 C 0.14785 0.07365 0.78411 0.0
C2757 C 0.15262 0.06353 0.79959 0.0
C2758 C 0.15772 0.09346 0.78235 0.0
C2759 C 0.19009 0.13967 0.80914 0.0
H2760 H 0.20418 0.14931 0.75729 0.0
C2761 C 0.24576 0.21031 0.79442 0.0
C2762 C 0.24188 0.21974 0.7782 0.0
C2763 C 0.23403 0.1919 0.7977 0.0
C2764 C 0.20015 0.14698 0.77183 0.0
H2765 H 0.1712 0.06663 0.8257 0.0
H2766 H 0.1886 0.10115 0.82247 0.0
H2767 H 0.1851 0.11616 0.76201 0.0
H2768 H 0.22272 0.21757 0.75276 0.0
H2769 H 0.2021 0.18555 0.75857 0.0
H2770 H 0.2054 0.17049 0.81894 0.0
C2771 C 0.17707 0.0938 0.8118 0.0
C2772 C 0.1892 0.12797 0.77454 0.0
C2773 C 0.16714 0.07397 0.8136 0.0
C2774 C 0.22601 0.21061 0.7654 0.0
C2775 C 0.21429 0.19221 0.76866 0.0
C2776 C 0.20109 0.15871 0.80643 0.0
C2777 C 0.17266 0.10364 0.79598 0.0
C2778 C 0.18403 0.12407 0.79322 0.0
C2779 C 0.21824 0.18257 0.78477 0.0
C2780 C 0.20626 0.16255 0.78773 0.0
H2781 H 0.13663 0.06618 0.77313 0.0
H2782 H 0.15372 0.10076 0.7702 0.0
H2783 H 0.18617 0.13724 0.82368 0.0
H2784 H 0.25793 0.21706 0.80451 0.0
H2785 H 0.23757 0.18475 0.81012 0.0
C2786 C 0.37542 0.99694 0.2911 0.0
C2787 C 0.37121 0.00671 0.30913 0.0
C2788 C 0.36704 0.97631 0.28453 0.0
C2789 C 0.3408 0.92875 0.30136 0.0
H2790 H 0.32416 0.91289 0.24666 0.0
C2791 C 0.30775 0.84484 0.27237 0.0
C2792 C 0.29179 0.84095 0.25912 0.0
C2793 C 0.31892 0.8646 0.27674 0.0
C2794 C 0.32859 0.9171 0.262 0.0
H2795 H 0.35509 0.00233 0.33451 0.0
H2796 H 0.34021 0.96663 0.32293 0.0
H2797 H 0.34061 0.94824 0.25833 0.0
H2798 H 0.27532 0.85433 0.23937 0.0
H2799 H 0.2945 0.88937 0.24755 0.0
H2800 H 0.32802 0.89807 0.30531 0.0
C2801 C 0.35028 0.97471 0.31399 0.0
C2802 C 0.33827 0.93731 0.26866 0.0
C2803 C 0.35879 0.99525 0.32063 0.0
C2804 C 0.28761 0.85701 0.24963 0.0
C2805 C 0.29864 0.87701 0.25429 0.0
C2806 C 0.33099 0.90869 0.29476 0.0
C2807 C 0.35414 0.96502 0.29577 0.0
C2808 C 0.34444 0.94339 0.28845 0.0
C2809 C 0.31416 0.88111 0.26828 0.0
C2810 C 0.32478 0.90255 0.27499 0.0
H2811 H 0.385 0.00529 0.28189 0.0
H2812 H 0.37063 0.96925 0.27061 0.0
H2813 H 0.34553 0.93276 0.31663 0.0
H2814 H 0.31148 0.8326 0.27963 0.0
H2815 H 0.33111 0.86698 0.28707 0.0
C2816 C 0.48255 0.31097 0.57714 0.0
C2817 C 0.49833 0.31353 0.59055 0.0
C2818 C 0.48294 0.32333 0.56236 0.0
C2819 C 0.51316 0.36218 0.53735 0.0
H2820 H 0.47109 0.39047 0.54313 0.0
C2821 C 0.51828 0.44572 0.52322 0.0
C2822 C 0.5018 0.45259 0.51791 0.0
C2823 C 0.51724 0.42535 0.52648 0.0
C2824 C 0.4827 0.38248 0.54081 0.0
H2825 H 0.52756 0.3296 0.59763 0.0
H2826 H 0.52815 0.35124 0.57189 0.0
H2827 H 0.47081 0.35965 0.55814 0.0
H2828 H 0.47152 0.44314 0.5105 0.0
H2829 H 0.46975 0.40737 0.51564 0.0
H2830 H 0.52526 0.38539 0.52035 0.0
C2831 C 0.51549 0.33968 0.57284 0.0
C2832 C 0.48255 0.36476 0.54949 0.0
C2833 C 0.5151 0.32733 0.58768 0.0
C2834 C 0.48442 0.43838 0.51487 0.0
C2835 C 0.48341 0.41789 0.51788 0.0
C2836 C 0.51322 0.37982 0.52844 0.0
C2837 C 0.49912 0.33843 0.56063 0.0
C2838 C 0.49802 0.3548 0.54836 0.0
C2839 C 0.49972 0.41127 0.52428 0.0
C2840 C 0.49828 0.39059 0.53062 0.0
H2841 H 0.46948 0.30025 0.5787 0.0
H2842 H 0.47022 0.32182 0.55293 0.0
H2843 H 0.52518 0.35466 0.53611 0.0
H2844 H 0.53192 0.45627 0.52569 0.0
H2845 H 0.53006 0.42099 0.53168 0.0
C2846 C 0.41711 0.7312 0.34234 0.0
C2847 C 0.43463 0.73565 0.334 0.0
C2848 C 0.40043 0.73329 0.33244 0.0
C2849 C 0.38342 0.75763 0.29164 0.0
H2850 H 0.33616 0.71925 0.29551 0.0
C2851 C 0.31576 0.75572 0.24355 0.0
C2852 C 0.29965 0.7571 0.25392 0.0
C2853 C 0.33195 0.75167 0.25283 0.0
C2854 C 0.34927 0.73008 0.29436 0.0
H2855 H 0.44835 0.74541 0.30858 0.0
H2856 H 0.41933 0.74837 0.29109 0.0
H2857 H 0.36516 0.71532 0.31284 0.0
H2858 H 0.287 0.75365 0.28128 0.0
H2859 H 0.31532 0.74658 0.29765 0.0
H2860 H 0.36751 0.7721 0.27285 0.0
C2861 C 0.41844 0.74389 0.30552 0.0
C2862 C 0.36587 0.72795 0.30437 0.0
C2863 C 0.43511 0.74207 0.31552 0.0
C2864 C 0.29953 0.75329 0.27329 0.0
C2865 C 0.3156 0.74896 0.28251 0.0
C2866 C 0.3669 0.75957 0.28144 0.0
C2867 C 0.40087 0.7396 0.31386 0.0
C2868 C 0.38316 0.74175 0.30319 0.0
C2869 C 0.3321 0.74856 0.27248 0.0
C2870 C 0.34967 0.74587 0.28275 0.0
H2871 H 0.41623 0.72618 0.35653 0.0
H2872 H 0.38723 0.73015 0.33947 0.0
H2873 H 0.39634 0.76882 0.29069 0.0
H2874 H 0.31608 0.75856 0.22854 0.0
H2875 H 0.34444 0.7512 0.24472 0.0
C2876 C 0.0264 0.72631 0.11196 0.0
C2877 C 0.00779 0.72564 0.1176 0.0
C2878 C 0.03099 0.70941 0.10034 0.0
C2879 C 0.00733 0.66291 0.06623 0.0
H2880 H 0.05709 0.64897 0.06839 0.0
C2881 C 0.02391 0.60003 0.00941 0.0
C2882 C 0.03416 0.58613 0.01603 0.0
C2883 C 0.02321 0.61851 0.02112 0.0
C2884 C 0.04307 0.65253 0.06766 0.0
H2885 H 0.97974 0.70629 0.11666 0.0
H2886 H 0.98788 0.67655 0.09729 0.0
H2887 H 0.05043 0.67681 0.09176 0.0
H2888 H 0.05239 0.58095 0.03971 0.0
H2889 H 0.05062 0.61282 0.06054 0.0
H2890 H -0.00045 0.6381 0.04292 0.0
C2891 C -0.0012 0.69037 0.10104 0.0
C2892 C 0.0393 0.6687 0.08095 0.0
C2893 C 0.99415 0.70736 0.11233 0.0
C2894 C 0.04453 0.59152 0.03417 0.0
C2895 C 0.04351 0.60983 0.04611 0.0
C2896 C 0.01099 0.64664 0.05317 0.0
C2897 C 0.01712 0.69136 0.09436 0.0
C2898 C 0.02134 0.67406 0.08045 0.0
C2899 C 0.03233 0.62327 0.03998 0.0
C2900 C 0.02891 0.64121 0.05363 0.0
H2901 H 0.0372 0.74024 0.11571 0.0
H2902 H 0.0452 0.71087 0.0954 0.0
H2903 H 0.99345 0.66678 0.06502 0.0
H2904 H 0.01592 0.59631 0.99539 0.0
H2905 H 0.01499 0.62874 0.01558 0.0
C2906 C 0.04652 0.23681 0.84623 0.0
C2907 C 0.03461 0.25052 0.84283 0.0
C2908 C 0.06387 0.23811 0.83769 0.0
C2909 C 0.09984 0.27265 0.81431 0.0
H2910 H 0.11218 0.22143 0.79045 0.0
C2911 C 0.16402 0.27232 0.76757 0.0
C2912 C 0.17548 0.25827 0.77116 0.0
C2913 C 0.1462 0.27083 0.77516 0.0
C2914 C 0.10902 0.23585 0.79718 0.0
H2915 H 0.0319 0.27685 0.82837 0.0
H2916 H 0.06217 0.27911 0.81347 0.0
H2917 H 0.08298 0.22059 0.80721 0.0
H2918 H 0.17713 0.23119 0.78481 0.0
H2919 H 0.14611 0.22863 0.7982 0.0
H2920 H 0.12593 0.28792 0.80444 0.0
C2921 C 0.05812 0.26738 0.82279 0.0
C2922 C 0.09232 0.23537 0.80682 0.0
C2923 C 0.04074 0.26604 0.83128 0.0
C2924 C 0.16853 0.24219 0.78178 0.0
C2925 C 0.15073 0.2407 0.78939 0.0
C2926 C 0.11656 0.27313 0.80471 0.0
C2927 C 0.06972 0.2532 0.82561 0.0
C2928 C 0.08757 0.25376 0.81554 0.0
C2929 C 0.13952 0.25526 0.78651 0.0
C2930 C 0.12137 0.25473 0.79606 0.0
H2931 H 0.04226 0.22471 0.85511 0.0
H2932 H 0.07266 0.22719 0.84041 0.0
H2933 H 0.09668 0.28706 0.82107 0.0
H2934 H 0.16906 0.28484 0.75939 0.0
H2935 H 0.13777 0.28205 0.77238 0.0
C2936 C 0.48194 0.7219 0.94822 0.0
C2937 C 0.49561 0.73161 0.93669 0.0
C2938 C 0.48459 0.70446 0.9563 0.0
C2939 C 0.48737 0.65994 0.95815 0.0
H2940 H 0.53656 0.65331 0.97818 0.0
C2941 C 0.50327 0.58023 0.96726 0.0
C2942 C 0.51437 0.57867 0.98392 0.0
C2943 C 0.50089 0.59951 0.963 0.0
C2944 C 0.52268 0.65497 0.97281 0.0
H2945 H 0.52321 0.73103 0.92537 0.0
H2946 H 0.5277 0.70057 0.93931 0.0
H2947 H 0.53286 0.68658 0.96929 0.0
H2948 H 0.5316 0.59621 0.00925 0.0
H2949 H 0.52732 0.62981 0.00186 0.0
H2950 H 0.47716 0.62839 0.96173 0.0
C2951 C 0.515 0.70653 0.94223 0.0
C2952 C 0.52061 0.67398 0.96754 0.0
C2953 C 0.51236 0.72397 0.93415 0.0
C2954 C 0.52301 0.59684 0.99625 0.0
C2955 C 0.52063 0.61612 0.99198 0.0
C2956 C 0.48945 0.64095 0.96339 0.0
C2957 C 0.50097 0.69632 0.95307 0.0
C2958 C 0.50297 0.67663 0.95997 0.0
C2959 C 0.50955 0.61768 0.9753 0.0
C2960 C 0.50717 0.63817 0.97058 0.0
H2961 H 0.46893 0.72742 0.9506 0.0
H2962 H 0.47366 0.69715 0.96486 0.0
H2963 H 0.47363 0.66137 0.95216 0.0
H2964 H 0.49644 0.56658 0.95741 0.0
H2965 H 0.49249 0.60019 0.94988 0.0
C2966 C 0.05325 0.78851 0.66421 0.0
C2967 C 0.03933 0.78828 0.67783 0.0
C2968 C 0.07052 0.78313 0.66886 0.0
C2969 C 0.10154 0.77766 0.71073 0.0
H2970 H 0.12429 0.74478 0.6717 0.0
C2971 C 0.16967 0.75109 0.72996 0.0
C2972 C 0.18422 0.75673 0.71768 0.0
C2973 C 0.15089 0.75106 0.72414 0.0
C2974 C 0.11807 0.75395 0.68271 0.0
H2975 H 0.03266 0.78244 0.70705 0.0
H2976 H 0.0626 0.77279 0.71503 0.0
H2977 H 0.09382 0.75375 0.66373 0.0
H2978 H 0.19057 0.76504 0.68917 0.0
H2979 H 0.15769 0.76497 0.67896 0.0
H2980 H 0.12578 0.77798 0.72966 0.0
C2981 C 0.06033 0.77741 0.70087 0.0
C2982 C 0.10071 0.7592 0.67814 0.0
C2983 C 0.04314 0.7829 0.69628 0.0
C2984 C 0.17957 0.76069 0.69891 0.0
C2985 C 0.16076 0.76059 0.69305 0.0
C2986 C 0.11878 0.7723 0.71532 0.0
C2987 C 0.07417 0.77732 0.68717 0.0
C2988 C 0.09235 0.77127 0.69206 0.0
C2989 C 0.14637 0.75659 0.70594 0.0
C2990 C 0.12729 0.76053 0.70133 0.0
H2991 H 0.05074 0.79263 0.64988 0.0
H2992 H 0.08103 0.78358 0.65811 0.0
H2993 H 0.09567 0.78726 0.72168 0.0
H2994 H 0.1729 0.74785 0.74448 0.0
H2995 H 0.13999 0.74758 0.73422 0.0
C2996 C 0.99551 0.32581 0.4476 0.0
C2997 C 0.00363 0.31942 0.43037 0.0
C2998 C 0.00429 0.34369 0.4599 0.0
C2999 C 0.0359 0.39342 0.45872 0.0
H3000 H 0.03353 0.39823 0.51483 0.0
C3001 C 0.05202 0.45982 0.5316 0.0
C3002 C 0.04248 0.47413 0.52458 0.0
C3003 C 0.0516 0.44068 0.52034 0.0
C3004 C 0.03463 0.39709 0.49923 0.0
H3005 H 0.02773 0.32659 0.41288 0.0
H3006 H 0.04305 0.35794 0.43441 0.0
H3007 H 0.02502 0.36425 0.49512 0.0
H3008 H 0.02508 0.47974 0.50041 0.0
H3009 H 0.02459 0.44676 0.48078 0.0
H3010 H 0.04504 0.4263 0.46278 0.0
C3011 C 0.02979 0.34909 0.43829 0.0
C3012 C 0.02956 0.37767 0.48792 0.0
C3013 C 0.02103 0.33111 0.42598 0.0
C3014 C 0.03288 0.4692 0.50604 0.0
C3015 C 0.03262 0.45027 0.49477 0.0
C3016 C 0.04091 0.41283 0.47002 0.0
C3017 C 0.02141 0.35568 0.45528 0.0
C3018 C 0.02959 0.3757 0.4675 0.0
C3019 C 0.04179 0.4357 0.50184 0.0
C3020 C 0.03976 0.41493 0.49033 0.0
H3021 H 0.98217 0.31717 0.4515 0.0
H3022 H 0.99731 0.34849 0.47272 0.0
H3023 H 0.03601 0.39246 0.44303 0.0
H3024 H 0.0595 0.46327 0.54588 0.0
H3025 H 0.05881 0.42973 0.52614 0.0
C3026 C 0.45144 0.28896 0.21168 0.0
C3027 C 0.451 0.28932 0.19146 0.0
C3028 C 0.43463 0.28306 0.22078 0.0
C3029 C 0.38371 0.25778 0.21174 0.0
H3030 H 0.37668 0.29734 0.25559 0.0
C3031 C 0.31287 0.25206 0.24952 0.0
C3032 C 0.30606 0.27054 0.25198 0.0
C3033 C 0.33145 0.25206 0.24433 0.0
C3034 C 0.37847 0.2861 0.24342 0.0
H3035 H 0.43266 0.28271 0.16485 0.0
H3036 H 0.40351 0.27235 0.18065 0.0
H3037 H 0.40766 0.3002 0.24202 0.0
H3038 H 0.31365 0.3036 0.25149 0.0
H3039 H 0.34596 0.30357 0.24253 0.0
H3040 H 0.35428 0.24418 0.21271 0.0
C3041 C 0.41681 0.27655 0.18949 0.0
C3042 C 0.39625 0.28761 0.23577 0.0
C3043 C 0.43355 0.28258 0.18043 0.0
C3044 C 0.31839 0.28907 0.24965 0.0
C3045 C 0.33697 0.28909 0.24466 0.0
C3046 C 0.36594 0.25619 0.21949 0.0
C3047 C 0.41708 0.27725 0.20982 0.0
C3048 C 0.39896 0.27377 0.21955 0.0
C3049 C 0.34366 0.27057 0.24173 0.0
C3050 C 0.36302 0.27065 0.23511 0.0
H3051 H 0.46465 0.29402 0.2206 0.0
H3052 H 0.43531 0.28355 0.23645 0.0
H3053 H 0.38541 0.2468 0.19933 0.0
H3054 H 0.30374 0.23751 0.25121 0.0
H3055 H 0.33627 0.23758 0.24228 0.0
C3056 C 0.6062 0.49469 0.34372 0.0
C3057 C 0.60089 0.5047 0.3284 0.0
C3058 C 0.59691 0.49559 0.36099 0.0
C3059 C 0.56709 0.52498 0.39021 0.0
H3060 H 0.55014 0.47364 0.41086 0.0
C3061 C 0.5331 0.52258 0.46353 0.0
C3062 C 0.5166 0.50745 0.46398 0.0
C3063 C 0.54409 0.52205 0.44748 0.0
C3064 C 0.55472 0.48806 0.4052 0.0
H3065 H 0.5821 0.52402 0.31937 0.0
H3066 H 0.56596 0.52565 0.34954 0.0
H3067 H 0.56851 0.47378 0.38202 0.0
H3068 H 0.49868 0.47981 0.44821 0.0
H3069 H 0.51793 0.47889 0.41991 0.0
H3070 H 0.55307 0.53922 0.41317 0.0
C3071 C 0.57733 0.51715 0.34822 0.0
C3072 C 0.56541 0.48819 0.38885 0.0
C3073 C 0.58653 0.51615 0.33092 0.0
C3074 C 0.51135 0.49163 0.44818 0.0
C3075 C 0.52242 0.49106 0.43209 0.0
C3076 C 0.55652 0.52487 0.40661 0.0
C3077 C 0.58223 0.50662 0.36331 0.0
C3078 C 0.5716 0.50664 0.38113 0.0
C3079 C 0.5388 0.50638 0.43153 0.0
C3080 C 0.55016 0.5064 0.41423 0.0
H3081 H 0.6172 0.48572 0.34221 0.0
H3082 H 0.60113 0.48753 0.37249 0.0
H3083 H 0.57177 0.53944 0.38465 0.0
H3084 H 0.53744 0.53501 0.4755 0.0
H3085 H 0.55675 0.53391 0.44757 0.0
C3086 C 0.25137 0.87878 0.05561 0.0
C3087 C 0.26519 0.87507 0.04265 0.0
C3088 C 0.24542 0.86498 0.06875 0.0
C3089 C 0.2642 0.82654 0.09318 0.0
H3090 H 0.21524 0.81823 0.11545 0.0
C3091 C 0.25129 0.78052 0.15707 0.0
C3092 C 0.24381 0.79072 0.17296 0.0
C3093 C 0.25051 0.78715 0.13883 0.0
C3094 C 0.22896 0.8204 0.10932 0.0
H3095 H 0.28222 0.85312 0.03191 0.0
H3096 H 0.27131 0.82869 0.05418 0.0
H3097 H 0.21973 0.83627 0.08694 0.0
H3098 H 0.22859 0.81493 0.18212 0.0
H3099 H 0.22734 0.82664 0.15027 0.0
H3100 H 0.27358 0.81111 0.11567 0.0
C3101 C 0.26562 0.84262 0.05485 0.0
C3102 C 0.23156 0.83077 0.09304 0.0
C3103 C 0.27179 0.85655 0.04199 0.0
C3104 C 0.23456 0.80688 0.17009 0.0
C3105 C 0.23373 0.81348 0.15183 0.0
C3106 C 0.26157 0.8161 0.1093 0.0
C3107 C 0.25298 0.84706 0.06895 0.0
C3108 C 0.24932 0.83424 0.08495 0.0
C3109 C 0.24218 0.80406 0.13615 0.0
C3110 C 0.24403 0.81318 0.11775 0.0
H3111 H 0.24606 0.89296 0.05646 0.0
H3112 H 0.23575 0.86899 0.07945 0.0
H3113 H 0.27821 0.82932 0.08772 0.0
H3114 H 0.25838 0.76792 0.15889 0.0
H3115 H 0.2569 0.7794 0.12694 0.0
C3116 C 0.96018 0.55227 0.79916 0.0
C3117 C 0.94826 0.56653 0.80248 0.0
C3118 C 0.97282 0.54979 0.81415 0.0
C3119 C 0.99582 0.5743 0.86272 0.0
H3120 H 0.99322 0.51797 0.87257 0.0
C3121 C 0.03554 0.55372 0.92966 0.0
C3122 C 0.02466 0.539 0.93958 0.0
C3123 C 0.02875 0.55744 0.91154 0.0
C3124 C 0.99412 0.53379 0.86999 0.0
H3125 H 0.94096 0.59014 0.82368 0.0
H3126 H 0.96283 0.5858 0.84965 0.0
H3127 H 0.97751 0.52445 0.84287 0.0
H3128 H -0.00187 0.51676 0.9385 0.0
H3129 H 0.98626 0.52332 0.90706 0.0
H3130 H 0.01177 0.58365 0.89026 0.0
C3131 C 0.96253 0.57655 0.83557 0.0
C3132 C 0.98532 0.53749 0.85286 0.0
C3133 C 0.94984 0.57889 0.82071 0.0
C3134 C 0.00686 0.52816 0.93115 0.0
C3135 C 0.00013 0.53179 0.91306 0.0
C3136 C 0.00469 0.5706 0.87983 0.0
C3137 C 0.97391 0.56171 0.83261 0.0
C3138 C 0.98566 0.5578 0.84927 0.0
C3139 C 0.01102 0.54639 0.90299 0.0
C3140 C 0.00352 0.55031 0.88388 0.0
H3141 H 0.95928 0.54256 0.78523 0.0
H3142 H 0.98153 0.53833 0.81141 0.0
H3143 H 0.99649 0.59012 0.86026 0.0
H3144 H 0.04932 0.56228 0.93586 0.0
H3145 H 0.03747 0.56875 0.9041 0.0
C3146 C 0.30133 0.21115 0.56113 0.0
C3147 C 0.28923 0.19549 0.54834 0.0
C3148 C 0.29531 0.21872 0.57903 0.0
C3149 C 0.26079 0.20465 0.61534 0.0
H3150 H 0.27631 0.26266 0.63616 0.0
C3151 C 0.24081 0.2393 0.69122 0.0
C3152 C 0.25615 0.25209 0.70285 0.0
C3153 C 0.24267 0.23295 0.67144 0.0
C3154 C 0.27189 0.24641 0.63056 0.0
H3155 H 0.26111 0.1758 0.54429 0.0
H3156 H 0.2506 0.18918 0.57543 0.0
H3157 H 0.28366 0.25063 0.60322 0.0
H3158 H 0.28532 0.26859 0.70269 0.0
H3159 H 0.28848 0.25759 0.66851 0.0
H3160 H 0.24925 0.20046 0.64287 0.0
C3161 C 0.26484 0.1954 0.57171 0.0
C3162 C 0.27615 0.23949 0.61171 0.0
C3163 C 0.27086 0.1878 0.55379 0.0
C3164 C 0.27321 0.25866 0.69423 0.0
C3165 C 0.275 0.2525 0.67454 0.0
C3166 C 0.25647 0.21159 0.63421 0.0
C3167 C 0.27703 0.21087 0.58459 0.0
C3168 C 0.27101 0.21846 0.604 0.0
C3169 C 0.25982 0.23951 0.66292 0.0
C3170 C 0.26234 0.23248 0.64217 0.0
H3171 H 0.31558 0.21741 0.55747 0.0
H3172 H 0.30519 0.23042 0.58872 0.0
H3173 H 0.25676 0.18831 0.60994 0.0
H3174 H 0.22748 0.23396 0.69743 0.0
H3175 H 0.2307 0.22299 0.6628 0.0
C3176 C 0.58931 0.48955 0.20421 0.0
C3177 C 0.60394 0.50154 0.21726 0.0
C3178 C 0.58461 0.49631 0.1868 0.0
C3179 C 0.60259 0.53192 0.15223 0.0
H3180 H 0.54912 0.52392 0.13615 0.0
C3181 C 0.57421 0.53573 0.0741 0.0
C3182 C 0.55712 0.54251 0.07161 0.0
C3183 C 0.58154 0.53443 0.09274 0.0
C3184 C 0.56411 0.5266 0.14055 0.0
H3185 H 0.62538 0.52986 0.22209 0.0
H3186 H 0.61703 0.54173 0.19174 0.0
H3187 H 0.55854 0.5137 0.16683 0.0
H3188 H 0.53504 0.55479 0.0865 0.0
H3189 H 0.54804 0.55297 0.11912 0.0
H3190 H 0.6081 0.54494 0.1259 0.0
C3191 C 0.60931 0.52702 0.19491 0.0
C3192 C 0.56951 0.52042 0.158 0.0
C3193 C 0.61403 0.52024 0.21234 0.0
C3194 C 0.54818 0.54936 0.08806 0.0
C3195 C 0.55555 0.54816 0.1067 0.0
C3196 C 0.59717 0.53813 0.13472 0.0
C3197 C 0.5944 0.51524 0.18206 0.0
C3198 C 0.5888 0.52273 0.16391 0.0
C3199 C 0.57193 0.53998 0.10921 0.0
C3200 C 0.57786 0.53532 0.12859 0.0
H3201 H 0.58133 0.47501 0.20751 0.0
H3202 H 0.57328 0.48669 0.17702 0.0
H3203 H 0.61758 0.53383 0.15635 0.0
H3204 H 0.58137 0.53036 0.06162 0.0
H3205 H 0.5941 0.52794 0.09413 0.0
C3206 C 0.26432 0.89178 0.94416 0.0
C3207 C 0.28109 0.89091 0.95488 0.0
C3208 C 0.2603 0.88136 0.92512 0.0
C3209 C 0.25099 0.84763 0.88948 0.0
H3210 H 0.29227 0.84973 0.85511 0.0
C3211 C 0.24512 0.795 0.81523 0.0
C3212 C 0.25289 0.80431 0.79957 0.0
C3213 C 0.24815 0.80573 0.83417 0.0
C3214 C 0.28055 0.84909 0.86447 0.0
H3215 H 0.30669 0.8782 0.9539 0.0
H3216 H 0.29962 0.86015 0.92099 0.0
H3217 H 0.29796 0.86874 0.88792 0.0
H3218 H 0.26977 0.83214 0.79133 0.0
H3219 H 0.27516 0.85079 0.82432 0.0
H3220 H 0.23354 0.82809 0.86586 0.0
C3221 C 0.28968 0.86905 0.92716 0.0
C3222 C 0.28386 0.85983 0.88333 0.0
C3223 C 0.29366 0.87934 0.94613 0.0
C3224 C 0.26381 0.82447 0.80317 0.0
C3225 C 0.2669 0.83515 0.82207 0.0
C3226 C 0.24769 0.8368 0.87058 0.0
C3227 C 0.27302 0.86999 0.91639 0.0
C3228 C 0.26915 0.85915 0.8961 0.0
C3229 C 0.25908 0.82594 0.83779 0.0
C3230 C 0.26246 0.83738 0.85788 0.0
H3231 H 0.25432 0.90052 0.95045 0.0
H3232 H 0.24738 0.88247 0.91711 0.0
H3233 H 0.23941 0.84669 0.89902 0.0
H3234 H 0.23664 0.77946 0.81283 0.0
H3235 H 0.24212 0.79812 0.84601 0.0
C3236 C 0.92192 0.52608 0.70984 0.0
C3237 C 0.9165 0.54349 0.71971 0.0
C3238 C 0.94055 0.52706 0.70471 0.0
C3239 C 0.97686 0.56413 0.68807 0.0
H3240 H 0.00256 0.518 0.68176 0.0
C3241 C 0.02751 0.55633 0.62718 0.0
C3242 C 0.0232 0.53679 0.61584 0.0
C3243 C 0.02059 0.55929 0.64566 0.0
C3244 C 0.99564 0.5311 0.68348 0.0
H3245 H 0.92629 0.57525 0.73296 0.0
H3246 H 0.95904 0.57718 0.72358 0.0
H3247 H 0.97884 0.51924 0.70581 0.0
H3248 H 0.0092 0.50483 0.61512 0.0
H3249 H 0.99681 0.50996 0.64702 0.0
H3250 H 0.99241 0.5752 0.66475 0.0
C3251 C 0.94891 0.5627 0.72006 0.0
C3252 C 0.98216 0.53185 0.69733 0.0
C3253 C 0.93025 0.56158 0.72548 0.0
C3254 C 0.01268 0.52007 0.62357 0.0
C3255 C 0.00576 0.523 0.64197 0.0
C3256 C 0.99023 0.56331 0.67414 0.0
C3257 C 0.95404 0.54563 0.70904 0.0
C3258 C 0.97197 0.54785 0.69906 0.0
C3259 C 0.00924 0.54274 0.65307 0.0
C3260 C -0.00095 0.54624 0.67101 0.0
H3261 H 0.9115 0.51198 0.70522 0.0
H3262 H 0.94396 0.51374 0.69601 0.0
H3263 H 0.96913 0.57658 0.68895 0.0
H3264 H 0.03571 0.56946 0.62155 0.0
H3265 H 0.02367 0.57464 0.65391 0.0
C3266 C 0.30273 0.22353 0.45041 0.0
C3267 C 0.28959 0.20672 0.45533 0.0
C3268 C 0.29862 0.23331 0.43457 0.0
C3269 C 0.27038 0.22168 0.38803 0.0
H3270 H 0.28239 0.28082 0.38735 0.0
C3271 C 0.24899 0.25739 0.32161 0.0
C3272 C 0.26196 0.27397 0.31621 0.0
C3273 C 0.25207 0.25005 0.33915 0.0
C3274 C 0.27917 0.26425 0.38724 0.0
H3275 H 0.26134 0.18785 0.44809 0.0
H3276 H 0.25425 0.20493 0.42058 0.0
H3277 H 0.28793 0.26703 0.41755 0.0
H3278 H 0.28826 0.29599 0.32481 0.0
H3279 H 0.29392 0.28294 0.3554 0.0
H3280 H 0.262 0.21871 0.35775 0.0
C3281 C 0.26783 0.21032 0.42881 0.0
C3282 C 0.28228 0.25639 0.40456 0.0
C3283 C 0.27188 0.20063 0.44466 0.0
C3284 C 0.27803 0.2832 0.32869 0.0
C3285 C 0.28119 0.2758 0.34624 0.0
C3286 C 0.2674 0.2295 0.37073 0.0
C3287 C 0.28133 0.22641 0.42329 0.0
C3288 C 0.27782 0.23502 0.40513 0.0
C3289 C 0.26826 0.25908 0.35165 0.0
C3290 C 0.27167 0.25088 0.37012 0.0
H3291 H 0.31648 0.22869 0.45832 0.0
H3292 H 0.30932 0.24565 0.43063 0.0
H3293 H 0.26718 0.2051 0.38792 0.0
H3294 H 0.23635 0.25013 0.31233 0.0
H3295 H 0.24164 0.23741 0.34299 0.0
C3296 C 0.30042 0.58181 0.51262 0.0
C3297 C 0.30724 0.60219 0.50919 0.0
C3298 C 0.3131 0.56944 0.51741 0.0
C3299 C 0.34483 0.54463 0.51115 0.0
H3300 H 0.39035 0.56801 0.54479 0.0
C3301 C 0.41587 0.51852 0.50155 0.0
C3302 C 0.42824 0.51969 0.518 0.0
C3303 C 0.39855 0.52482 0.50347 0.0
C3304 C 0.37759 0.56101 0.53562 0.0
H3305 H 0.33269 0.6257 0.50887 0.0
H3306 H 0.35456 0.60446 0.51738 0.0
H3307 H 0.36461 0.58676 0.54402 0.0
H3308 H 0.43183 0.52717 0.54944 0.0
H3309 H 0.40149 0.53798 0.55284 0.0
H3310 H 0.35809 0.51912 0.50234 0.0
C3311 C 0.33947 0.59797 0.51644 0.0
C3312 C 0.36291 0.57187 0.53505 0.0
C3313 C 0.32688 0.61016 0.51143 0.0
C3314 C 0.42258 0.52623 0.5365 0.0
C3315 C 0.40526 0.53251 0.53843 0.0
C3316 C 0.35958 0.53376 0.51166 0.0
C3317 C 0.33279 0.57737 0.51916 0.0
C3318 C 0.34664 0.56412 0.52237 0.0
C3319 C 0.39326 0.53241 0.52188 0.0
C3320 C 0.37636 0.54212 0.52349 0.0
H3321 H 0.28535 0.57519 0.51095 0.0
H3322 H 0.30756 0.55362 0.51948 0.0
H3323 H 0.3325 0.5383 0.50116 0.0
H3324 H 0.41992 0.51354 0.48712 0.0
H3325 H 0.38978 0.52476 0.49039 0.0
C3326 C 0.82907 0.94988 0.53671 0.0
C3327 C 0.82432 0.92924 0.53999 0.0
C3328 C 0.8469 0.95786 0.53063 0.0
C3329 C 0.89563 0.94736 0.52759 0.0
H3330 H 0.90105 0.99066 0.4947 0.0
C3331 C 0.96676 0.9808 0.4972 0.0
C3332 C 0.97274 0.00215 0.50306 0.0
C3333 C 0.94806 0.97106 0.49923 0.0
C3334 C 0.89968 0.97854 0.50384 0.0
H3335 H 0.83432 0.90058 0.53902 0.0
H3336 H 0.86522 0.91418 0.52768 0.0
H3337 H 0.86948 0.97454 0.50288 0.0
H3338 H 0.96382 0.03026 0.51455 0.0
H3339 H 0.93087 0.01325 0.51755 0.0
H3340 H 0.92591 0.95121 0.52809 0.0
C3341 C 0.85544 0.92449 0.53042 0.0
C3342 C 0.88164 0.9694 0.50869 0.0
C3343 C 0.83768 0.91662 0.53688 0.0
C3344 C 0.95952 0.01377 0.50998 0.0
C3345 C 0.94072 0.00408 0.51164 0.0
C3346 C 0.91361 0.95624 0.52241 0.0
C3347 C 0.86032 0.94526 0.52728 0.0
C3348 C 0.87939 0.95394 0.52094 0.0
C3349 C 0.93499 0.98259 0.50674 0.0
C3350 C 0.9158 0.97211 0.51075 0.0
H3351 H 0.81908 0.96002 0.53914 0.0
H3352 H 0.85022 0.97403 0.52887 0.0
H3353 H 0.89458 0.9358 0.53729 0.0
H3354 H 0.97669 0.97148 0.49182 0.0
H3355 H 0.94389 0.95447 0.49527 0.0
C3356 C 0.82847 0.09524 0.28136 0.0
C3357 C 0.83431 0.0848 0.2645 0.0
C3358 C 0.81381 0.10603 0.28015 0.0
C3359 C 0.78855 0.13019 0.2449 0.0
H3360 H 0.75701 0.1382 0.28809 0.0
C3361 C 0.73518 0.18386 0.24468 0.0
C3362 C 0.73907 0.19988 0.26049 0.0
C3363 C 0.74288 0.16623 0.24496 0.0
C3364 C 0.76564 0.13596 0.27588 0.0
H3365 H 0.82881 0.0768 0.23322 0.0
H3366 H 0.80274 0.09507 0.23116 0.0
H3367 H 0.77786 0.11342 0.28828 0.0
H3368 H 0.75286 0.20941 0.2895 0.0
H3369 H 0.76592 0.17833 0.29016 0.0
H3370 H 0.77627 0.15278 0.23257 0.0
C3371 C 0.80987 0.09544 0.24528 0.0
C3372 C 0.7777 0.1219 0.27602 0.0
C3373 C 0.82477 0.08488 0.24645 0.0
C3374 C 0.74965 0.1973 0.27712 0.0
C3375 C 0.75706 0.1795 0.27753 0.0
C3376 C 0.77627 0.14397 0.24463 0.0
C3377 C 0.80437 0.10642 0.26209 0.0
C3378 C 0.78973 0.11927 0.26079 0.0
C3379 C 0.75429 0.16415 0.26119 0.0
C3380 C 0.76506 0.14735 0.26033 0.0
H3381 H 0.8356 0.09561 0.29549 0.0
H3382 H 0.81033 0.11462 0.29338 0.0
H3383 H 0.79775 0.12888 0.23304 0.0
H3384 H 0.72721 0.1855 0.23159 0.0
H3385 H 0.7405 0.15456 0.23222 0.0
C3386 C 0.72676 0.11215 0.00897 0.0
C3387 C 0.72125 0.12995 0.00401 0.0
C3388 C 0.71928 0.10326 0.02491 0.0
C3389 C 0.68659 0.10863 0.06497 0.0
H3390 H 0.65836 0.05656 0.03765 0.0
C3391 C 0.60724 0.08244 0.06987 0.0
C3392 C 0.5984 0.06197 0.06308 0.0
C3393 C 0.62704 0.08828 0.07114 0.0
C3394 C 0.66629 0.07066 0.04606 0.0
H3395 H 0.70575 0.1539 0.01288 0.0
H3396 H 0.69291 0.13869 0.04071 0.0
H3397 H 0.68757 0.07268 0.02555 0.0
H3398 H 0.60282 0.03112 0.05408 0.0
H3399 H 0.63742 0.04088 0.05756 0.0
H3400 H 0.66473 0.10699 0.08503 0.0
C3401 C 0.70288 0.13143 0.03249 0.0
C3402 C 0.68322 0.07997 0.03902 0.0
C3403 C 0.71012 0.14011 0.01645 0.0
C3404 C 0.60948 0.04703 0.05931 0.0
C3405 C 0.62928 0.05273 0.06111 0.0
C3406 C 0.66973 0.09913 0.07224 0.0
C3407 C 0.70633 0.11219 0.03609 0.0
C3408 C 0.69292 0.09964 0.04767 0.0
C3409 C 0.63834 0.07364 0.06591 0.0
C3410 C 0.65872 0.08065 0.06213 0.0
H3411 H 0.73512 0.10394 -0.00058 0.0
H3412 H 0.72226 0.08848 0.02743 0.0
H3413 H 0.69394 0.12369 0.07209 0.0
H3414 H 0.59884 0.09421 0.07264 0.0
H3415 H 0.63328 0.10455 0.07469 0.0
C3416 C 0.19117 0.48342 0.2499 0.0
C3417 C 0.17301 0.47558 0.24062 0.0
C3418 C 0.20608 0.47338 0.24569 0.0
C3419 C 0.21953 0.42849 0.21538 0.0
H3420 H 0.23906 0.41901 0.26556 0.0
C3421 C 0.2355 0.35114 0.23014 0.0
C3422 C 0.24876 0.35052 0.24532 0.0
C3423 C 0.23222 0.37003 0.22575 0.0
C3424 C 0.23429 0.42177 0.25133 0.0
H3425 H 0.15661 0.45243 0.2183 0.0
H3426 H 0.18244 0.43437 0.21142 0.0
H3427 H 0.22258 0.44695 0.26386 0.0
H3428 H 0.27016 0.36893 0.26676 0.0
H3429 H 0.26471 0.40206 0.2589 0.0
H3430 H 0.2305 0.40239 0.20307 0.0
C3431 C 0.18534 0.44847 0.2217 0.0
C3432 C 0.22478 0.43791 0.25033 0.0
C3433 C 0.17047 0.45875 0.22569 0.0
C3434 C 0.25965 0.36905 0.25517 0.0
C3435 C 0.2565 0.38798 0.25067 0.0
C3436 C 0.22914 0.4123 0.21637 0.0
C3437 C 0.20301 0.45505 0.23243 0.0
C3438 C 0.21664 0.44099 0.23246 0.0
C3439 C 0.24226 0.38867 0.23639 0.0
C3440 C 0.23595 0.40827 0.23448 0.0
H3441 H 0.19358 0.49664 0.26122 0.0
H3442 H 0.21967 0.47916 0.25382 0.0
H3443 H 0.21367 0.43066 0.20136 0.0
H3444 H 0.22701 0.33703 0.22222 0.0
H3445 H 0.221 0.36991 0.21483 0.0
C3446 C 0.20004 0.42753 0.06162 0.0
C3447 C 0.21078 0.41992 0.04697 0.0
C3448 C 0.18521 0.43716 0.05691 0.0
C3449 C 0.17035 0.46643 0.02031 0.0
H3450 H 0.12107 0.45492 0.04159 0.0
C3451 C 0.10721 0.50032 0.99449 0.0
C3452 C 0.09446 0.50507 0.00826 0.0
C3453 C 0.12184 0.49054 -0.0005 0.0
C3454 C 0.13486 0.45858 0.03576 0.0
H3455 H 0.21392 0.41573 0.0158 0.0
H3456 H 0.18813 0.43263 0.00767 0.0
H3457 H 0.14511 0.43569 0.04976 0.0
H3458 H 0.08737 0.50433 0.03823 0.0
H3459 H 0.11327 0.48799 0.04722 0.0
H3460 H 0.16034 0.48958 0.00661 0.0
C3461 C 0.19129 0.43127 0.02278 0.0
C3462 C 0.14857 0.44746 0.04038 0.0
C3463 C 0.20596 0.42147 0.02745 0.0
C3464 C 0.09699 0.5007 0.02731 0.0
C3465 C 0.11171 0.49116 0.03239 0.0
C3466 C 0.15672 0.4777 0.01585 0.0
C3467 C 0.181 0.43952 0.03749 0.0
C3468 C 0.1664 0.45122 0.03262 0.0
C3469 C 0.12407 0.48553 0.01844 0.0
C3470 C 0.13878 0.47388 0.02348 0.0
H3471 H 0.20339 0.42654 0.07678 0.0
H3472 H 0.1775 0.44344 0.06852 0.0
H3473 H 0.18411 0.46984 0.01437 0.0
H3474 H 0.10545 0.50343 0.97966 0.0
H3475 H 0.13097 0.48626 0.98833 0.0
C3476 C 0.8528 0.98118 0.27646 0.0
C3477 C 0.85277 0.99318 0.26124 0.0
C3478 C 0.84435 0.96026 0.27345 0.0
C3479 C 0.80693 0.92261 0.24549 0.0
H3480 H 0.83413 0.88269 0.26276 0.0
C3481 C 0.77074 0.83678 0.24216 0.0
C3482 C 0.77475 0.82729 0.2583 0.0
C3483 C 0.78146 0.85606 0.23974 0.0
C3484 C 0.82625 0.89363 0.25802 0.0
H3485 H 0.84375 0.99265 0.23095 0.0
H3486 H 0.82838 0.95592 0.22586 0.0
H3487 H 0.85047 0.91851 0.26382 0.0
H3488 H 0.79322 0.83019 0.28438 0.0
H3489 H 0.81149 0.86402 0.2806 0.0
H3490 H 0.78243 0.89814 0.24064 0.0
C3491 C 0.8352 0.96284 0.24003 0.0
C3492 C 0.83567 0.9141 0.25851 0.0
C3493 C 0.844 0.98378 0.24293 0.0
C3494 C 0.78986 0.83717 0.27177 0.0
C3495 C 0.80043 0.85651 0.26949 0.0
C3496 C 0.7974 0.90217 0.24525 0.0
C3497 C 0.83542 0.95091 0.25525 0.0
C3498 C 0.826 0.92884 0.25258 0.0
C3499 C 0.79628 0.86631 0.25352 0.0
C3500 C 0.80685 0.88751 0.25188 0.0
H3501 H 0.85954 0.98791 0.2907 0.0
H3502 H 0.84454 0.95143 0.28547 0.0
H3503 H 0.79914 0.93375 0.24099 0.0
H3504 H 0.75924 0.82936 0.23147 0.0
H3505 H 0.77805 0.86296 0.2271 0.0
C3506 C 0.64495 0.06163 0.75266 0.0
C3507 C 0.64725 0.05634 0.77146 0.0
C3508 C 0.65151 0.08192 0.74911 0.0
C3509 C 0.66701 0.13561 0.77427 0.0
H3510 H 0.69815 0.14376 0.73055 0.0
C3511 C 0.72222 0.20957 0.77317 0.0
C3512 C 0.72297 0.21888 0.7561 0.0
C3513 C 0.71114 0.18996 0.77328 0.0
C3514 C 0.68926 0.14173 0.74265 0.0
H3515 H 0.65765 0.06842 0.80136 0.0
H3516 H 0.6691 0.10345 0.79516 0.0
H3517 H 0.68097 0.10906 0.7339 0.0
H3518 H 0.71308 0.21456 0.72559 0.0
H3519 H 0.69383 0.18001 0.72579 0.0
H3520 H 0.67581 0.1681 0.7834 0.0
C3521 C 0.66212 0.09207 0.78316 0.0
C3522 C 0.67938 0.1219 0.74455 0.0
C3523 C 0.65568 0.07188 0.78669 0.0
C3524 C 0.71278 0.20785 0.73899 0.0
C3525 C 0.70179 0.18807 0.73907 0.0
C3526 C 0.67694 0.15534 0.77244 0.0
C3527 C 0.66032 0.0973 0.76432 0.0
C3528 C 0.66855 0.11856 0.76067 0.0
C3529 C 0.70065 0.1791 0.75632 0.0
C3530 C 0.68855 0.15852 0.7569 0.0
H3531 H 0.63852 0.05002 0.7406 0.0
H3532 H 0.6498 0.08554 0.73446 0.0
H3533 H 0.65846 0.13361 0.78663 0.0
H3534 H 0.72991 0.21756 0.78661 0.0
H3535 H 0.7108 0.18326 0.78669 0.0
loop_
_geom_bond_atom_site_label_1
_geom_bond_atom_site_label_2
_geom_bond_distance
_geom_bond_site_symmetry_2
_ccdc_geom_bond_type
Mg0 O1 2.028 . S
Mg0 O7 1.986 . S
Mg0 O9 2.114 1_455 S
Mg0 O10 2.251 1_455 S
Mg0 O13 2.010 . S
O1 Mg0 2.028 . S
O1 C4 1.250 . S
O2 Mg3 2.028 . S
O2 C4 1.248 1_655 S
Mg3 O2 2.028 . S
Mg3 O8 2.032 . S
Mg3 O10 2.079 . S
C4 O1 1.250 . S
C4 O2 1.248 1_455 S
C5 O6 1.264 . S
C5 O13 1.249 . S
O6 C5 1.264 . S
O7 Mg0 1.986 . S
O7 C11 1.246 . S
O8 Mg3 2.032 . S
O8 C11 1.259 1_655 S
O9 Mg0 2.114 1_655 S
O9 C12 1.252 . S
O10 Mg0 2.251 1_655 S
O10 Mg3 2.079 . S
O10 C12 1.273 . S
C11 O7 1.246 . S
C11 O8 1.259 1_455 S
C12 O9 1.252 . S
C12 O10 1.273 . S
O13 Mg0 2.010 . S
O13 C5 1.249 . S
Mg14 O15 2.028 . S
Mg14 O21 1.986 . S
Mg14 O23 2.114 1_455 S
Mg14 O24 2.251 1_455 S
Mg14 O27 2.010 . S
O15 Mg14 2.028 . S
O15 C18 1.250 . S
O16 Mg17 2.028 . S
O16 C18 1.248 1_655 S
Mg17 O16 2.028 . S
Mg17 O22 2.032 . S
Mg17 O24 2.079 . S
C18 O15 1.250 . S
C18 O16 1.248 1_455 S
C19 O20 1.264 . S
C19 O27 1.249 . S
O20 C19 1.264 . S
O21 Mg14 1.986 . S
O21 C25 1.246 . S
O22 Mg17 2.032 . S
O22 C25 1.259 1_655 S
O23 Mg14 2.114 1_655 S
O23 C26 1.252 . S
O24 Mg14 2.251 1_655 S
O24 Mg17 2.079 . S
O24 C26 1.273 . S
C25 O21 1.246 . S
C25 O22 1.259 1_455 S
C26 O23 1.252 . S
C26 O24 1.273 . S
O27 Mg14 2.010 . S
O27 C19 1.249 . S
Mg28 O29 2.028 . S
Mg28 O35 1.986 . S
Mg28 O37 2.114 . S
Mg28 O38 2.251 . S
Mg28 O41 2.010 . S
O29 Mg28 2.028 . S
O29 C32 1.250 . S
O30 Mg31 2.028 . S
O30 C32 1.248 . S
Mg31 O30 2.028 . S
Mg31 O36 2.032 . S
Mg31 O38 2.079 . S
C32 O29 1.250 . S
C32 O30 1.248 . S
C33 O34 1.264 . S
C33 O41 1.249 . S
O34 C33 1.264 . S
O35 Mg28 1.986 . S
O35 C39 1.246 . S
O36 Mg31 2.032 . S
O36 C39 1.259 . S
O37 Mg28 2.114 . S
O37 C40 1.252 . S
O38 Mg28 2.251 . S
O38 Mg31 2.079 . S
O38 C40 1.273 . S
C39 O35 1.246 . S
C39 O36 1.259 . S
C40 O37 1.252 . S
C40 O38 1.273 . S
O41 Mg28 2.010 . S
O41 C33 1.249 . S
Mg42 O43 2.028 . S
Mg42 O49 1.986 . S
Mg42 O51 2.114 . S
Mg42 O52 2.251 . S
Mg42 O55 2.010 . S
O43 Mg42 2.028 . S
O43 C46 1.250 . S
O44 Mg45 2.028 . S
O44 C46 1.248 . S
Mg45 O44 2.028 . S
Mg45 O50 2.032 . S
Mg45 O52 2.079 . S
C46 O43 1.250 . S
C46 O44 1.248 . S
C47 O48 1.264 . S
C47 O55 1.249 . S
O48 C47 1.264 . S
O49 Mg42 1.986 . S
O49 C53 1.246 . S
O50 Mg45 2.032 . S
O50 C53 1.259 . S
O51 Mg42 2.114 . S
O51 C54 1.252 . S
O52 Mg42 2.251 . S
O52 Mg45 2.079 . S
O52 C54 1.273 . S
C53 O49 1.246 . S
C53 O50 1.259 . S
C54 O51 1.252 . S
C54 O52 1.273 . S
O55 Mg42 2.010 . S
O55 C47 1.249 . S
Mg56 O57 2.028 . S
Mg56 O63 1.986 . S
Mg56 O65 2.114 . S
Mg56 O66 2.251 1_455 S
Mg56 O69 2.010 . S
O57 Mg56 2.028 . S
O57 C60 1.250 . S
O58 Mg59 2.001 1_455 S
O58 C60 1.283 . S
Mg59 O58 2.001 1_655 S
Mg59 O64 2.032 1_655 S
Mg59 O66 2.079 . S
C60 O57 1.250 . S
C60 O58 1.283 . S
C61 O62 1.264 . S
C61 O69 1.249 . S
O62 C61 1.264 . S
O63 Mg56 1.986 . S
O63 C67 1.246 . S
O64 Mg59 2.032 1_455 S
O64 C67 1.259 . S
O65 Mg56 2.114 . S
O65 C68 1.252 1_455 S
O66 Mg56 2.251 1_655 S
O66 Mg59 2.079 . S
O66 C68 1.273 . S
C67 O63 1.246 . S
C67 O64 1.259 . S
C68 O65 1.252 1_655 S
C68 O66 1.273 . S
O69 Mg56 2.010 . S
O69 C61 1.249 . S
Mg70 O71 2.028 . S
Mg70 O77 1.986 . S
Mg70 O79 2.114 . S
Mg70 O80 2.251 . S
Mg70 O83 2.010 . S
O71 Mg70 2.028 . S
O71 C74 1.250 . S
O72 Mg73 2.028 . S
O72 C74 1.248 . S
Mg73 O72 2.028 . S
Mg73 O78 2.032 . S
Mg73 O80 2.079 . S
C74 O71 1.250 . S
C74 O72 1.248 . S
C75 O76 1.264 . S
C75 O83 1.249 . S
O76 C75 1.264 . S
O77 Mg70 1.986 . S
O77 C81 1.246 . S
O78 Mg73 2.032 . S
O78 C81 1.259 . S
O79 Mg70 2.114 . S
O79 C82 1.252 . S
O80 Mg70 2.251 . S
O80 Mg73 2.079 . S
O80 C82 1.273 . S
C81 O77 1.246 . S
C81 O78 1.259 . S
C82 O79 1.252 . S
C82 O80 1.273 . S
O83 Mg70 2.010 . S
O83 C75 1.249 . S
Mg84 O85 2.028 . S
Mg84 O91 1.986 . S
Mg84 O93 2.114 . S
Mg84 O94 2.251 . S
Mg84 O97 2.010 . S
O85 Mg84 2.028 . S
O85 C88 1.250 . S
O86 Mg87 2.028 . S
O86 C88 1.248 . S
Mg87 O86 2.028 . S
Mg87 O92 2.032 . S
Mg87 O94 2.079 . S
C88 O85 1.250 . S
C88 O86 1.248 . S
C89 O90 1.264 . S
C89 O97 1.249 . S
O90 C89 1.264 . S
O91 Mg84 1.986 . S
O91 C95 1.246 . S
O92 Mg87 2.032 . S
O92 C95 1.259 . S
O93 Mg84 2.114 . S
O93 C96 1.252 . S
O94 Mg84 2.251 . S
O94 Mg87 2.079 . S
O94 C96 1.273 . S
C95 O91 1.246 . S
C95 O92 1.259 . S
C96 O93 1.252 . S
C96 O94 1.273 . S
O97 Mg84 2.010 . S
O97 C89 1.249 . S
Mg98 O99 2.028 . S
Mg98 O105 1.986 . S
Mg98 O107 2.114 1_455 S
Mg98 O108 2.251 1_455 S
Mg98 O111 2.010 . S
O99 Mg98 2.028 . S
O99 C102 1.250 . S
O100 Mg101 2.028 . S
O100 C102 1.248 1_655 S
Mg101 O100 2.028 . S
Mg101 O106 2.032 . S
Mg101 O108 2.079 . S
C102 O99 1.250 . S
C102 O100 1.248 1_455 S
C103 O104 1.264 . S
C103 O111 1.249 . S
O104 C103 1.264 . S
O105 Mg98 1.986 . S
O105 C109 1.246 1_455 S
O106 Mg101 2.032 . S
O106 C109 1.259 . S
O107 Mg98 2.114 1_655 S
O107 C110 1.252 . S
O108 Mg98 2.251 1_655 S
O108 Mg101 2.079 . S
O108 C110 1.273 . S
C109 O105 1.246 1_655 S
C109 O106 1.259 . S
C110 O107 1.252 . S
C110 O108 1.273 . S
O111 Mg98 2.010 . S
O111 C103 1.249 . S
Mg112 O113 2.028 . S
Mg112 O119 1.986 . S
Mg112 O121 2.114 . S
Mg112 O122 2.251 . S
Mg112 O125 2.010 . S
O113 Mg112 2.028 . S
O113 C116 1.250 1_545 S
O114 Mg115 2.028 . S
O114 C116 1.248 1_545 S
Mg115 O114 2.028 . S
Mg115 O120 2.032 . S
Mg115 O122 2.079 . S
C116 O113 1.250 1_565 S
C116 O114 1.248 1_565 S
C117 O118 1.264 . S
C117 O125 1.249 . S
O118 C117 1.264 . S
O119 Mg112 1.986 . S
O119 C123 1.246 . S
O120 Mg115 2.032 . S
O120 C123 1.259 . S
O121 Mg112 2.114 . S
O121 C124 1.252 . S
O122 Mg112 2.251 . S
O122 Mg115 2.079 . S
O122 C124 1.273 . S
C123 O119 1.246 . S
C123 O120 1.259 . S
C124 O121 1.252 . S
C124 O122 1.273 . S
O125 Mg112 2.010 . S
O125 C117 1.249 . S
Mg126 O127 2.028 . S
Mg126 O133 1.986 . S
Mg126 O135 2.114 . S
Mg126 O136 2.251 . S
Mg126 O139 2.010 . S
O127 Mg126 2.028 . S
O127 C130 1.250 . S
O128 Mg129 2.028 . S
O128 C130 1.248 . S
Mg129 O128 2.028 . S
Mg129 O134 2.032 . S
Mg129 O136 2.079 . S
C130 O127 1.250 . S
C130 O128 1.248 . S
C131 O132 1.264 . S
C131 O139 1.249 . S
O132 C131 1.264 . S
O133 Mg126 1.986 . S
O133 C137 1.246 . S
O134 Mg129 2.032 . S
O134 C137 1.259 . S
O135 Mg126 2.114 . S
O135 C138 1.252 . S
O136 Mg126 2.251 . S
O136 Mg129 2.079 . S
O136 C138 1.273 . S
C137 O133 1.246 . S
C137 O134 1.259 . S
C138 O135 1.252 . S
C138 O136 1.273 . S
O139 Mg126 2.010 . S
O139 C131 1.249 . S
Mg140 O141 2.028 1_565 S
Mg140 O147 1.986 . S
Mg140 O149 2.114 1_565 S
Mg140 O150 2.251 . S
Mg140 O153 2.010 . S
O141 Mg140 2.028 1_545 S
O141 C144 1.250 . S
O142 Mg143 2.028 . S
O142 C144 1.248 . S
Mg143 O142 2.028 . S
Mg143 O148 2.032 1_545 S
Mg143 O150 2.079 1_545 S
C144 O141 1.250 . S
C144 O142 1.248 . S
C145 O146 1.264 . S
C145 O153 1.249 . S
O146 C145 1.264 . S
O147 Mg140 1.986 . S
O147 C151 1.246 . S
O148 Mg143 2.032 1_565 S
O148 C151 1.259 . S
O149 Mg140 2.114 1_545 S
O149 C152 1.252 . S
O150 Mg140 2.251 . S
O150 Mg143 2.079 1_565 S
O150 C152 1.273 1_565 S
C151 O147 1.246 . S
C151 O148 1.259 . S
C152 O149 1.252 . S
C152 O150 1.273 1_545 S
O153 Mg140 2.010 . S
O153 C145 1.249 . S
Mg154 O155 2.028 . S
Mg154 O161 1.986 . S
Mg154 O163 2.114 . S
Mg154 O164 2.251 . S
Mg154 O167 2.010 . S
O155 Mg154 2.028 . S
O155 C158 1.250 . S
O156 Mg157 2.028 . S
O156 C158 1.248 . S
Mg157 O156 2.028 . S
Mg157 O162 2.032 . S
Mg157 O164 2.079 . S
C158 O155 1.250 . S
C158 O156 1.248 . S
C159 O160 1.264 . S
C159 O167 1.249 . S
O160 C159 1.264 . S
O161 Mg154 1.986 . S
O161 C165 1.246 . S
O162 Mg157 2.032 . S
O162 C165 1.259 . S
O163 Mg154 2.114 . S
O163 C166 1.252 . S
O164 Mg154 2.251 . S
O164 Mg157 2.079 . S
O164 C166 1.273 . S
C165 O161 1.246 . S
C165 O162 1.259 . S
C166 O163 1.252 . S
C166 O164 1.273 . S
O167 Mg154 2.010 . S
O167 C159 1.249 . S
Mg168 O169 2.028 1_554 S
Mg168 O175 1.986 . S
Mg168 O177 2.114 . S
Mg168 O178 2.251 . S
Mg168 O181 2.010 . S
O169 Mg168 2.028 1_556 S
O169 C172 1.250 . S
O170 Mg171 2.028 1_556 S
O170 C172 1.248 . S
Mg171 O170 2.028 1_554 S
Mg171 O176 2.032 . S
Mg171 O178 2.079 . S
C172 O169 1.250 . S
C172 O170 1.248 . S
C173 O174 1.264 . S
C173 O181 1.249 . S
O174 C173 1.264 . S
O175 Mg168 1.986 . S
O175 C179 1.246 . S
O176 Mg171 2.032 . S
O176 C179 1.259 . S
O177 Mg168 2.114 . S
O177 C180 1.252 . S
O178 Mg168 2.251 . S
O178 Mg171 2.079 . S
O178 C180 1.273 . S
C179 O175 1.246 . S
C179 O176 1.259 . S
C180 O177 1.252 . S
C180 O178 1.273 . S
O181 Mg168 2.010 . S
O181 C173 1.249 . S
Mg182 O183 2.028 1_556 S
Mg182 O189 1.986 . S
Mg182 O191 2.114 1_556 S
Mg182 O192 2.251 . S
Mg182 O195 2.010 . S
O183 Mg182 2.028 1_554 S
O183 C186 1.250 . S
O184 Mg185 2.028 . S
O184 C186 1.248 . S
Mg185 O184 2.028 . S
Mg185 O190 2.032 1_554 S
Mg185 O192 2.079 1_554 S
C186 O183 1.250 . S
C186 O184 1.248 . S
C187 O188 1.264 . S
C187 O195 1.249 . S
O188 C187 1.264 . S
O189 Mg182 1.986 . S
O189 C193 1.246 . S
O190 Mg185 2.032 1_556 S
O190 C193 1.259 . S
O191 Mg182 2.114 1_554 S
O191 C194 1.269 . S
O192 Mg182 2.251 . S
O192 Mg185 2.079 1_556 S
O192 C194 1.251 1_556 S
C193 O189 1.246 . S
C193 O190 1.259 . S
C194 O191 1.269 . S
C194 O192 1.251 1_554 S
O195 Mg182 2.010 . S
O195 C187 1.249 . S
Mg196 O197 2.028 . S
Mg196 O203 1.986 . S
Mg196 O205 2.114 . S
Mg196 O206 2.251 . S
Mg196 O209 2.010 . S
O197 Mg196 2.028 . S
O197 C200 1.250 . S
O198 Mg199 2.028 . S
O198 C200 1.248 . S
Mg199 O198 2.028 . S
Mg199 O204 2.032 . S
Mg199 O206 2.079 . S
C200 O197 1.250 . S
C200 O198 1.248 . S
C201 O202 1.264 . S
C201 O209 1.249 . S
O202 C201 1.264 . S
O203 Mg196 1.986 . S
O203 C207 1.246 . S
O204 Mg199 2.032 . S
O204 C207 1.259 . S
O205 Mg196 2.114 . S
O205 C208 1.252 . S
O206 Mg196 2.251 . S
O206 Mg199 2.079 . S
O206 C208 1.273 . S
C207 O203 1.246 . S
C207 O204 1.259 . S
C208 O205 1.252 . S
C208 O206 1.273 . S
O209 Mg196 2.010 . S
O209 C201 1.249 . S
Mg210 O211 2.028 . S
Mg210 O217 1.986 . S
Mg210 O219 2.114 . S
Mg210 O220 2.251 . S
Mg210 O223 2.010 . S
O211 Mg210 2.028 . S
O211 C214 1.250 . S
O212 Mg213 2.028 . S
O212 C214 1.248 . S
Mg213 O212 2.028 . S
Mg213 O218 2.032 . S
Mg213 O220 2.079 . S
C214 O211 1.250 . S
C214 O212 1.248 . S
C215 O216 1.264 . S
C215 O223 1.249 . S
O216 C215 1.264 . S
O217 Mg210 1.986 . S
O217 C221 1.246 . S
O218 Mg213 2.032 . S
O218 C221 1.259 . S
O219 Mg210 2.114 . S
O219 C222 1.252 . S
O220 Mg210 2.251 . S
O220 Mg213 2.079 . S
O220 C222 1.273 . S
C221 O217 1.246 . S
C221 O218 1.259 . S
C222 O219 1.252 . S
C222 O220 1.273 . S
O223 Mg210 2.010 . S
O223 C215 1.249 . S
Mg224 O225 2.028 . S
Mg224 O231 1.986 . S
Mg224 O233 2.114 . S
Mg224 O234 2.251 . S
Mg224 O237 2.010 . S
O225 Mg224 2.028 . S
O225 C228 1.250 . S
O226 Mg227 2.028 . S
O226 C228 1.248 . S
Mg227 O226 2.028 . S
Mg227 O232 2.032 . S
Mg227 O234 2.079 . S
C228 O225 1.250 . S
C228 O226 1.248 . S
C229 O230 1.264 . S
C229 O237 1.249 . S
O230 C229 1.264 . S
O231 Mg224 1.986 . S
O231 C235 1.246 . S
O232 Mg227 2.032 . S
O232 C235 1.259 . S
O233 Mg224 2.114 . S
O233 C236 1.252 . S
O234 Mg224 2.251 . S
O234 Mg227 2.079 . S
O234 C236 1.273 . S
C235 O231 1.246 . S
C235 O232 1.259 . S
C236 O233 1.252 . S
C236 O234 1.273 . S
O237 Mg224 2.010 . S
O237 C229 1.249 . S
Mg238 O239 2.028 . S
Mg238 O245 1.986 . S
Mg238 O247 2.114 . S
Mg238 O248 2.251 . S
Mg238 O251 2.010 . S
O239 Mg238 2.028 . S
O239 C242 1.250 . S
O240 Mg241 2.028 . S
O240 C242 1.248 . S
Mg241 O240 2.028 . S
Mg241 O246 2.032 . S
Mg241 O248 2.079 . S
C242 O239 1.250 . S
C242 O240 1.248 . S
C243 O244 1.264 . S
C243 O251 1.249 . S
O244 C243 1.264 . S
O245 Mg238 1.986 . S
O245 C249 1.246 . S
O246 Mg241 2.032 . S
O246 C249 1.259 . S
O247 Mg238 2.114 . S
O247 C250 1.252 . S
O248 Mg238 2.251 . S
O248 Mg241 2.079 . S
O248 C250 1.273 . S
C249 O245 1.246 . S
C249 O246 1.259 . S
C250 O247 1.252 . S
C250 O248 1.273 . S
O251 Mg238 2.010 . S
O251 C243 1.249 . S
Mg252 O253 2.028 . S
Mg252 O259 1.986 . S
Mg252 O261 2.114 . S
Mg252 O262 2.251 . S
Mg252 O265 2.010 . S
O253 Mg252 2.028 . S
O253 C256 1.250 . S
O254 Mg255 2.028 . S
O254 C256 1.248 . S
Mg255 O254 2.028 . S
Mg255 O260 2.032 . S
Mg255 O262 2.079 . S
C256 O253 1.250 . S
C256 O254 1.248 . S
C257 O258 1.264 . S
C257 O265 1.249 . S
O258 C257 1.264 . S
O259 Mg252 1.986 . S
O259 C263 1.246 . S
O260 Mg255 2.032 . S
O260 C263 1.259 . S
O261 Mg252 2.114 . S
O261 C264 1.252 . S
O262 Mg252 2.251 . S
O262 Mg255 2.079 . S
O262 C264 1.273 . S
C263 O259 1.246 . S
C263 O260 1.259 . S
C264 O261 1.252 . S
C264 O262 1.273 . S
O265 Mg252 2.010 . S
O265 C257 1.249 . S
Mg266 O267 2.028 . S
Mg266 O273 1.982 1_545 S
Mg266 O275 2.114 . S
Mg266 O276 2.251 . S
Mg266 O279 2.010 . S
O267 Mg266 2.028 . S
O267 C270 1.250 . S
O268 Mg269 2.028 . S
O268 C270 1.248 . S
Mg269 O268 2.028 . S
Mg269 O274 2.032 . S
Mg269 O276 2.079 . S
C270 O267 1.250 . S
C270 O268 1.248 . S
C271 O272 1.269 . S
C271 O279 1.249 . S
O272 C271 1.269 . S
O273 Mg266 1.982 1_565 S
O273 C277 1.248 . S
O274 Mg269 2.032 . S
O274 C277 1.259 1_545 S
O275 Mg266 2.114 . S
O275 C278 1.252 . S
O276 Mg266 2.251 . S
O276 Mg269 2.079 . S
O276 C278 1.273 . S
C277 O273 1.248 . S
C277 O274 1.259 1_565 S
C278 O275 1.252 . S
C278 O276 1.273 . S
O279 Mg266 2.010 . S
O279 C271 1.249 . S
Mg280 O281 2.028 . S
Mg280 O287 1.986 1_554 S
Mg280 O289 2.114 . S
Mg280 O290 2.251 . S
Mg280 O293 2.010 . S
O281 Mg280 2.028 . S
O281 C284 1.250 . S
O282 Mg283 2.028 . S
O282 C284 1.248 . S
Mg283 O282 2.028 . S
Mg283 O288 2.032 1_554 S
Mg283 O290 2.079 . S
C284 O281 1.250 . S
C284 O282 1.248 . S
C285 O286 1.264 1_554 S
C285 O293 1.249 . S
O286 C285 1.264 1_556 S
O287 Mg280 1.986 1_556 S
O287 C291 1.246 . S
O288 Mg283 2.032 1_556 S
O288 C291 1.259 . S
O289 Mg280 2.114 . S
O289 C292 1.252 . S
O290 Mg280 2.251 . S
O290 Mg283 2.079 . S
O290 C292 1.273 . S
C291 O287 1.246 . S
C291 O288 1.259 . S
C292 O289 1.252 . S
C292 O290 1.273 . S
O293 Mg280 2.010 . S
O293 C285 1.249 . S
Mg294 O295 2.028 . S
Mg294 O301 1.986 . S
Mg294 O303 2.114 . S
Mg294 O304 2.251 . S
Mg294 O307 2.010 . S
O295 Mg294 2.028 . S
O295 C298 1.250 . S
O296 Mg297 2.028 . S
O296 C298 1.248 . S
Mg297 O296 2.028 . S
Mg297 O302 2.032 . S
Mg297 O304 2.079 . S
C298 O295 1.250 . S
C298 O296 1.248 . S
C299 O300 1.264 . S
C299 O307 1.249 . S
O300 C299 1.264 . S
O301 Mg294 1.986 . S
O301 C305 1.246 . S
O302 Mg297 2.032 . S
O302 C305 1.259 . S
O303 Mg294 2.114 . S
O303 C306 1.252 . S
O304 Mg294 2.251 . S
O304 Mg297 2.079 . S
O304 C306 1.273 . S
C305 O301 1.246 . S
C305 O302 1.259 . S
C306 O303 1.252 . S
C306 O304 1.273 . S
O307 Mg294 2.010 . S
O307 C299 1.249 . S
Mg308 O309 2.028 . S
Mg308 O315 1.986 . S
Mg308 O317 2.114 . S
Mg308 O318 2.251 . S
Mg308 O321 2.010 . S
O309 Mg308 2.028 . S
O309 C312 1.250 . S
O310 Mg311 2.028 . S
O310 C312 1.248 . S
Mg311 O310 2.028 . S
Mg311 O316 2.032 . S
Mg311 O318 2.079 . S
C312 O309 1.250 . S
C312 O310 1.248 . S
C313 O314 1.264 . S
C313 O321 1.249 . S
O314 C313 1.264 . S
O315 Mg308 1.986 . S
O315 C319 1.246 . S
O316 Mg311 2.032 . S
O316 C319 1.259 . S
O317 Mg308 2.114 . S
O317 C320 1.252 . S
O318 Mg308 2.251 . S
O318 Mg311 2.079 . S
O318 C320 1.273 . S
C319 O315 1.246 . S
C319 O316 1.259 . S
C320 O317 1.252 . S
C320 O318 1.273 . S
O321 Mg308 2.010 . S
O321 C313 1.249 . S
Mg322 O323 2.028 . S
Mg322 O329 1.986 . S
Mg322 O331 2.114 . S
Mg322 O332 2.251 . S
Mg322 O335 2.010 . S
O323 Mg322 2.028 . S
O323 C326 1.250 . S
O324 Mg325 2.028 . S
O324 C326 1.248 . S
Mg325 O324 2.028 . S
Mg325 O330 2.032 . S
Mg325 O332 2.079 . S
C326 O323 1.250 . S
C326 O324 1.248 . S
C327 O328 1.264 . S
C327 O335 1.249 . S
O328 C327 1.264 . S
O329 Mg322 1.986 . S
O329 C333 1.246 . S
O330 Mg325 2.032 . S
O330 C333 1.259 . S
O331 Mg322 2.114 . S
O331 C334 1.252 . S
O332 Mg322 2.251 . S
O332 Mg325 2.079 . S
O332 C334 1.273 . S
C333 O329 1.246 . S
C333 O330 1.259 . S
C334 O331 1.252 . S
C334 O332 1.273 . S
O335 Mg322 2.010 . S
O335 C327 1.249 . S
Dy336 O340 2.375 1_554 S
Dy336 O341 2.499 . S
Dy336 O342 2.369 1_554 S
Dy336 O343 2.655 1_654 S
Dy336 O347 2.313 1_554 S
Dy336 O351 2.337 1_655 S
Dy336 O352 2.367 1_545 S
C337 O348 1.185 . S
C337 O349 1.355 . S
C338 O340 1.185 . S
C338 O341 1.355 1_556 S
Dy339 O343 2.310 1_554 S
Dy339 O346 2.351 . S
Dy339 O348 2.398 . S
Dy339 O349 2.491 . S
Dy339 O350 2.403 . S
Dy339 O351 2.672 . S
Dy339 O353 2.312 1_545 S
O340 Dy336 2.375 1_556 S
O340 C338 1.185 . S
O341 Dy336 2.499 . S
O341 C338 1.355 1_554 S
O342 Dy336 2.369 1_556 S
O342 C344 1.254 1_655 S
O343 Dy336 2.655 1_456 S
O343 Dy339 2.310 1_556 S
O343 C344 1.268 . S
C344 O342 1.254 1_455 S
C344 O343 1.268 . S
C345 O350 1.254 . S
C345 O351 1.270 . S
O346 Dy339 2.351 . S
O346 C354 1.249 . S
O347 Dy336 2.313 1_556 S
O347 C354 1.267 1_656 S
O348 C337 1.185 . S
O348 Dy339 2.398 . S
O349 C337 1.355 . S
O349 Dy339 2.491 . S
O350 Dy339 2.403 . S
O350 C345 1.254 . S
O351 Dy336 2.337 1_455 S
O351 Dy339 2.672 . S
O351 C345 1.270 . S
O352 Dy336 2.367 1_565 S
O352 C355 1.249 1_655 S
O353 Dy339 2.312 1_565 S
O353 C355 1.276 . S
C354 O346 1.249 . S
C354 O347 1.267 1_454 S
C355 O352 1.249 1_455 S
C355 O353 1.276 . S
Dy356 O360 2.398 . S
Dy356 O361 2.491 . S
Dy356 O362 2.403 . S
Dy356 O363 2.664 . S
Dy356 O367 2.326 . S
Dy356 O371 2.310 . S
Dy356 O372 2.351 . S
C357 O368 1.185 . S
C357 O369 1.355 . S
C358 O360 1.185 . S
C358 O361 1.355 . S
Dy359 O363 2.310 . S
Dy359 O366 2.351 . S
Dy359 O368 2.398 . S
Dy359 O369 2.491 . S
Dy359 O370 2.403 . S
Dy359 O371 2.664 . S
Dy359 O373 2.326 . S
O360 Dy356 2.398 . S
O360 C358 1.185 . S
O361 Dy356 2.491 . S
O361 C358 1.355 . S
O362 Dy356 2.403 . S
O362 C364 1.254 . S
O363 Dy356 2.664 . S
O363 Dy359 2.310 . S
O363 C364 1.268 . S
C364 O362 1.254 . S
C364 O363 1.268 . S
C365 O370 1.254 . S
C365 O371 1.268 . S
O366 Dy359 2.351 . S
O366 C374 1.249 . S
O367 Dy356 2.326 . S
O367 C374 1.267 . S
O368 C357 1.185 . S
O368 Dy359 2.398 . S
O369 C357 1.355 . S
O369 Dy359 2.491 . S
O370 Dy359 2.403 . S
O370 C365 1.254 . S
O371 Dy356 2.310 . S
O371 Dy359 2.664 . S
O371 C365 1.268 . S
O372 Dy356 2.351 . S
O372 C375 1.249 . S
O373 Dy359 2.326 . S
O373 C375 1.267 . S
C374 O366 1.249 . S
C374 O367 1.267 . S
C375 O372 1.249 . S
C375 O373 1.267 . S
Dy376 O380 2.398 . S
Dy376 O381 2.491 . S
Dy376 O382 2.403 . S
Dy376 O383 2.664 . S
Dy376 O387 2.326 1_545 S
Dy376 O391 2.310 . S
Dy376 O392 2.351 . S
C377 O388 1.185 . S
C377 O389 1.355 . S
C378 O380 1.185 . S
C378 O381 1.355 . S
Dy379 O383 2.310 . S
Dy379 O386 2.351 1_545 S
Dy379 O388 2.398 . S
Dy379 O389 2.491 . S
Dy379 O390 2.403 . S
Dy379 O391 2.664 . S
Dy379 O393 2.326 . S
O380 Dy376 2.398 . S
O380 C378 1.185 . S
O381 Dy376 2.491 . S
O381 C378 1.355 . S
O382 Dy376 2.403 . S
O382 C384 1.254 . S
O383 Dy376 2.664 . S
O383 Dy379 2.310 . S
O383 C384 1.268 . S
C384 O382 1.254 . S
C384 O383 1.268 . S
C385 O390 1.254 . S
C385 O391 1.268 . S
O386 Dy379 2.351 1_565 S
O386 C394 1.249 . S
O387 Dy376 2.326 1_565 S
O387 C394 1.267 . S
O388 C377 1.185 . S
O388 Dy379 2.398 . S
O389 C377 1.355 . S
O389 Dy379 2.491 . S
O390 Dy379 2.403 . S
O390 C385 1.254 . S
O391 Dy376 2.310 . S
O391 Dy379 2.664 . S
O391 C385 1.268 . S
O392 Dy376 2.351 . S
O392 C395 1.249 . S
O393 Dy379 2.326 . S
O393 C395 1.267 . S
C394 O386 1.249 . S
C394 O387 1.267 . S
C395 O392 1.249 . S
C395 O393 1.267 . S
Dy396 O400 2.398 . S
Dy396 O401 2.491 . S
Dy396 O402 2.403 . S
Dy396 O403 2.664 . S
Dy396 O407 2.326 . S
Dy396 O411 2.310 . S
Dy396 O412 2.351 . S
C397 O408 1.185 . S
C397 O409 1.355 . S
C398 O400 1.185 . S
C398 O401 1.355 . S
Dy399 O403 2.310 . S
Dy399 O406 2.351 . S
Dy399 O408 2.398 . S
Dy399 O409 2.491 . S
Dy399 O410 2.403 . S
Dy399 O411 2.664 . S
Dy399 O413 2.326 . S
O400 Dy396 2.398 . S
O400 C398 1.185 . S
O401 Dy396 2.491 . S
O401 C398 1.355 . S
O402 Dy396 2.403 . S
O402 C404 1.254 . S
O403 Dy396 2.664 . S
O403 Dy399 2.310 . S
O403 C404 1.268 . S
C404 O402 1.254 . S
C404 O403 1.268 . S
C405 O410 1.254 . S
C405 O411 1.268 . S
O406 Dy399 2.351 . S
O406 C414 1.249 . S
O407 Dy396 2.326 . S
O407 C414 1.267 . S
O408 C397 1.185 . S
O408 Dy399 2.398 . S
O409 C397 1.355 . S
O409 Dy399 2.491 . S
O410 Dy399 2.403 . S
O410 C405 1.254 . S
O411 Dy396 2.310 . S
O411 Dy399 2.664 . S
O411 C405 1.268 . S
O412 Dy396 2.351 . S
O412 C415 1.249 . S
O413 Dy399 2.326 . S
O413 C415 1.267 . S
C414 O406 1.249 . S
C414 O407 1.267 . S
C415 O412 1.249 . S
C415 O413 1.267 . S
Dy416 O420 2.398 . S
Dy416 O421 2.491 1_455 S
Dy416 O422 2.403 . S
Dy416 O423 2.664 . S
Dy416 O427 2.326 . S
Dy416 O431 2.310 1_455 S
Dy416 O432 2.351 1_545 S
C417 O428 1.185 . S
C417 O429 1.355 . S
C418 O420 1.185 1_655 S
C418 O421 1.355 . S
Dy419 O423 2.310 . S
Dy419 O426 2.351 . S
Dy419 O428 2.398 . S
Dy419 O429 2.491 . S
Dy419 O430 2.403 1_455 S
Dy419 O431 2.664 1_455 S
Dy419 O433 2.326 . S
O420 Dy416 2.398 . S
O420 C418 1.185 1_455 S
O421 Dy416 2.491 1_655 S
O421 C418 1.355 . S
O422 Dy416 2.403 . S
O422 C424 1.254 . S
O423 Dy416 2.664 . S
O423 Dy419 2.310 . S
O423 C424 1.268 . S
C424 O422 1.254 . S
C424 O423 1.268 . S
C425 O430 1.254 . S
C425 O431 1.268 . S
O426 Dy419 2.351 . S
O426 C434 1.249 . S
O427 Dy416 2.326 . S
O427 C434 1.267 . S
O428 C417 1.185 . S
O428 Dy419 2.398 . S
O429 C417 1.355 . S
O429 Dy419 2.491 . S
O430 Dy419 2.403 1_655 S
O430 C425 1.254 . S
O431 Dy416 2.310 1_655 S
O431 Dy419 2.664 1_655 S
O431 C425 1.268 . S
O432 Dy416 2.351 1_565 S
O432 C435 1.249 . S
O433 Dy419 2.326 . S
O433 C435 1.267 1_545 S
C434 O426 1.249 . S
C434 O427 1.267 . S
C435 O432 1.249 . S
C435 O433 1.267 1_565 S
Dy436 O440 2.398 . S
Dy436 O441 2.491 . S
Dy436 O442 2.403 . S
Dy436 O443 2.664 . S
Dy436 O447 2.326 . S
Dy436 O451 2.310 . S
Dy436 O452 2.351 . S
C437 O448 1.185 . S
C437 O449 1.355 . S
C438 O440 1.185 . S
C438 O441 1.355 . S
Dy439 O443 2.310 . S
Dy439 O446 2.351 . S
Dy439 O448 2.398 . S
Dy439 O449 2.491 . S
Dy439 O450 2.403 . S
Dy439 O451 2.664 . S
Dy439 O453 2.326 . S
O440 Dy436 2.398 . S
O440 C438 1.185 . S
O441 Dy436 2.491 . S
O441 C438 1.355 . S
O442 Dy436 2.403 . S
O442 C444 1.254 . S
O443 Dy436 2.664 . S
O443 Dy439 2.310 . S
O443 C444 1.268 . S
C444 O442 1.254 . S
C444 O443 1.268 . S
C445 O450 1.254 . S
C445 O451 1.268 . S
O446 Dy439 2.351 . S
O446 C454 1.249 . S
O447 Dy436 2.326 . S
O447 C454 1.267 . S
O448 C437 1.185 . S
O448 Dy439 2.398 . S
O449 C437 1.355 . S
O449 Dy439 2.491 . S
O450 Dy439 2.403 . S
O450 C445 1.254 . S
O451 Dy436 2.310 . S
O451 Dy439 2.664 . S
O451 C445 1.268 . S
O452 Dy436 2.351 . S
O452 C455 1.249 . S
O453 Dy439 2.326 . S
O453 C455 1.267 . S
C454 O446 1.249 . S
C454 O447 1.267 . S
C455 O452 1.249 . S
C455 O453 1.267 . S
Dy456 O460 2.398 1_545 S
Dy456 O461 2.491 . S
Dy456 O462 2.403 1_545 S
Dy456 O463 2.664 . S
Dy456 O467 2.326 . S
Dy456 O471 2.310 . S
Dy456 O472 2.351 . S
C457 O468 1.185 . S
C457 O469 1.355 . S
C458 O460 1.185 1_545 S
C458 O461 1.355 . S
Dy459 O463 2.310 1_556 S
Dy459 O466 2.351 . S
Dy459 O468 2.398 . S
Dy459 O469 2.491 . S
Dy459 O470 2.403 1_556 S
Dy459 O471 2.664 1_556 S
Dy459 O473 2.324 1_556 S
O460 Dy456 2.398 1_565 S
O460 C458 1.185 1_565 S
O461 Dy456 2.491 . S
O461 C458 1.355 . S
O462 Dy456 2.403 1_565 S
O462 C464 1.254 . S
O463 Dy456 2.664 . S
O463 Dy459 2.310 1_554 S
O463 C464 1.268 1_545 S
C464 O462 1.254 . S
C464 O463 1.268 1_565 S
C465 O470 1.254 . S
C465 O471 1.268 . S
O466 Dy459 2.351 . S
O466 C474 1.249 1_556 S
O467 Dy456 2.326 . S
O467 C474 1.267 . S
O468 C457 1.185 . S
O468 Dy459 2.398 . S
O469 C457 1.355 . S
O469 Dy459 2.491 . S
O470 Dy459 2.403 1_554 S
O470 C465 1.254 . S
O471 Dy456 2.310 . S
O471 Dy459 2.664 1_554 S
O471 C465 1.268 . S
O472 Dy456 2.351 . S
O472 C475 1.249 . S
O473 Dy459 2.324 1_554 S
O473 C475 1.273 . S
C474 O466 1.249 1_554 S
C474 O467 1.267 . S
C475 O472 1.249 . S
C475 O473 1.273 . S
Dy476 O480 2.398 . S
Dy476 O481 2.491 . S
Dy476 O482 2.403 . S
Dy476 O483 2.664 . S
Dy476 O487 2.326 . S
Dy476 O491 2.310 . S
Dy476 O492 2.351 . S
C477 O488 1.185 . S
C477 O489 1.355 . S
C478 O480 1.185 . S
C478 O481 1.355 . S
Dy479 O483 2.310 . S
Dy479 O486 2.351 . S
Dy479 O488 2.398 . S
Dy479 O489 2.491 . S
Dy479 O490 2.403 . S
Dy479 O491 2.664 . S
Dy479 O493 2.326 . S
O480 Dy476 2.398 . S
O480 C478 1.185 . S
O481 Dy476 2.491 . S
O481 C478 1.355 . S
O482 Dy476 2.403 . S
O482 C484 1.254 . S
O483 Dy476 2.664 . S
O483 Dy479 2.310 . S
O483 C484 1.268 . S
C484 O482 1.254 . S
C484 O483 1.268 . S
C485 O490 1.254 . S
C485 O491 1.268 . S
O486 Dy479 2.351 . S
O486 C494 1.249 . S
O487 Dy476 2.326 . S
O487 C494 1.267 . S
O488 C477 1.185 . S
O488 Dy479 2.398 . S
O489 C477 1.355 . S
O489 Dy479 2.491 . S
O490 Dy479 2.403 . S
O490 C485 1.254 . S
O491 Dy476 2.310 . S
O491 Dy479 2.664 . S
O491 C485 1.268 . S
O492 Dy476 2.351 . S
O492 C495 1.249 . S
O493 Dy479 2.326 . S
O493 C495 1.267 . S
C494 O486 1.249 . S
C494 O487 1.267 . S
C495 O492 1.249 . S
C495 O493 1.267 . S
Dy496 O500 2.398 . S
Dy496 O501 2.491 . S
Dy496 O502 2.403 . S
Dy496 O503 2.664 1_556 S
Dy496 O507 2.326 . S
Dy496 O511 2.310 1_556 S
Dy496 O512 2.351 1_556 S
C497 O508 1.185 . S
C497 O509 1.355 . S
C498 O500 1.185 . S
C498 O501 1.355 . S
Dy499 O503 2.310 . S
Dy499 O506 2.351 . S
Dy499 O508 2.398 . S
Dy499 O509 2.491 . S
Dy499 O510 2.403 . S
Dy499 O511 2.664 . S
Dy499 O513 2.326 . S
O500 Dy496 2.398 . S
O500 C498 1.185 . S
O501 Dy496 2.491 . S
O501 C498 1.355 . S
O502 Dy496 2.403 . S
O502 C504 1.254 1_556 S
O503 Dy496 2.664 1_554 S
O503 Dy499 2.310 . S
O503 C504 1.268 . S
C504 O502 1.254 1_554 S
C504 O503 1.268 . S
C505 O510 1.254 . S
C505 O511 1.268 . S
O506 Dy499 2.351 . S
O506 C514 1.249 . S
O507 Dy496 2.326 . S
O507 C514 1.267 1_556 S
O508 C497 1.185 . S
O508 Dy499 2.398 . S
O509 C497 1.355 . S
O509 Dy499 2.491 . S
O510 Dy499 2.403 . S
O510 C505 1.254 . S
O511 Dy496 2.310 1_554 S
O511 Dy499 2.664 . S
O511 C505 1.268 . S
O512 Dy496 2.351 1_554 S
O512 C515 1.249 . S
O513 Dy499 2.326 . S
O513 C515 1.267 . S
C514 O506 1.249 . S
C514 O507 1.267 1_554 S
C515 O512 1.249 . S
C515 O513 1.267 . S
Dy516 O520 2.398 . S
Dy516 O521 2.491 . S
Dy516 O522 2.403 . S
Dy516 O523 2.664 . S
Dy516 O527 2.326 . S
Dy516 O531 2.310 . S
Dy516 O532 2.351 . S
C517 O528 1.185 . S
C517 O529 1.355 . S
C518 O520 1.185 . S
C518 O521 1.355 . S
Dy519 O523 2.310 . S
Dy519 O526 2.351 . S
Dy519 O528 2.398 . S
Dy519 O529 2.491 . S
Dy519 O530 2.403 . S
Dy519 O531 2.664 . S
Dy519 O533 2.326 . S
O520 Dy516 2.398 . S
O520 C518 1.185 . S
O521 Dy516 2.491 . S
O521 C518 1.355 . S
O522 Dy516 2.403 . S
O522 C524 1.254 . S
O523 Dy516 2.664 . S
O523 Dy519 2.310 . S
O523 C524 1.268 . S
C524 O522 1.254 . S
C524 O523 1.268 . S
C525 O530 1.254 . S
C525 O531 1.268 . S
O526 Dy519 2.351 . S
O526 C534 1.249 . S
O527 Dy516 2.326 . S
O527 C534 1.267 . S
O528 C517 1.185 . S
O528 Dy519 2.398 . S
O529 C517 1.355 . S
O529 Dy519 2.491 . S
O530 Dy519 2.403 . S
O530 C525 1.254 . S
O531 Dy516 2.310 . S
O531 Dy519 2.664 . S
O531 C525 1.268 . S
O532 Dy516 2.351 . S
O532 C535 1.249 . S
O533 Dy519 2.326 . S
O533 C535 1.267 . S
C534 O526 1.249 . S
C534 O527 1.267 . S
C535 O532 1.249 . S
C535 O533 1.267 . S
Dy536 O540 2.403 . S
Dy536 O541 2.491 1_455 S
Dy536 O542 2.403 . S
Dy536 O543 2.664 . S
Dy536 O547 2.326 1_455 S
Dy536 O551 2.310 . S
Dy536 O552 2.351 . S
C537 O548 1.185 . S
C537 O549 1.355 . S
C538 O540 1.175 1_655 S
C538 O541 1.355 . S
Dy539 O543 2.310 . S
Dy539 O546 2.351 1_455 S
Dy539 O548 2.398 . S
Dy539 O549 2.491 . S
Dy539 O550 2.403 . S
Dy539 O551 2.664 . S
Dy539 O553 2.326 . S
O540 Dy536 2.403 . S
O540 C538 1.175 1_455 S
O541 Dy536 2.491 1_655 S
O541 C538 1.355 . S
O542 Dy536 2.403 . S
O542 C544 1.254 . S
O543 Dy536 2.664 . S
O543 Dy539 2.310 . S
O543 C544 1.268 . S
C544 O542 1.254 . S
C544 O543 1.268 . S
C545 O550 1.254 . S
C545 O551 1.268 . S
O546 Dy539 2.351 1_655 S
O546 C554 1.249 . S
O547 Dy536 2.326 1_655 S
O547 C554 1.267 . S
O548 C537 1.185 . S
O548 Dy539 2.398 . S
O549 C537 1.355 . S
O549 Dy539 2.491 . S
O550 Dy539 2.403 . S
O550 C545 1.254 . S
O551 Dy536 2.310 . S
O551 Dy539 2.664 . S
O551 C545 1.268 . S
O552 Dy536 2.351 . S
O552 C555 1.249 . S
O553 Dy539 2.326 . S
O553 C555 1.267 . S
C554 O546 1.249 . S
C554 O547 1.267 . S
C555 O552 1.249 . S
C555 O553 1.267 . S
Dy556 O560 2.398 . S
Dy556 O561 2.491 . S
Dy556 O562 2.403 . S
Dy556 O563 2.664 . S
Dy556 O567 2.326 . S
Dy556 O571 2.310 . S
Dy556 O572 2.351 . S
C557 O568 1.185 . S
C557 O569 1.355 . S
C558 O560 1.185 . S
C558 O561 1.355 . S
Dy559 O563 2.310 . S
Dy559 O566 2.351 . S
Dy559 O568 2.398 . S
Dy559 O569 2.491 . S
Dy559 O570 2.403 . S
Dy559 O571 2.664 . S
Dy559 O573 2.326 . S
O560 Dy556 2.398 . S
O560 C558 1.185 . S
O561 Dy556 2.491 . S
O561 C558 1.355 . S
O562 Dy556 2.403 . S
O562 C564 1.254 . S
O563 Dy556 2.664 . S
O563 Dy559 2.310 . S
O563 C564 1.268 . S
C564 O562 1.254 . S
C564 O563 1.268 . S
C565 O570 1.254 . S
C565 O571 1.268 . S
O566 Dy559 2.351 . S
O566 C574 1.249 . S
O567 Dy556 2.326 . S
O567 C574 1.267 . S
O568 C557 1.185 . S
O568 Dy559 2.398 . S
O569 C557 1.355 . S
O569 Dy559 2.491 . S
O570 Dy559 2.403 . S
O570 C565 1.254 . S
O571 Dy556 2.310 . S
O571 Dy559 2.664 . S
O571 C565 1.268 . S
O572 Dy556 2.351 . S
O572 C575 1.249 . S
O573 Dy559 2.326 . S
O573 C575 1.267 . S
C574 O566 1.249 . S
C574 O567 1.267 . S
C575 O572 1.249 . S
C575 O573 1.267 . S
Dy576 O580 2.398 . S
Dy576 O581 2.491 . S
Dy576 O582 2.403 . S
Dy576 O583 2.664 . S
Dy576 O587 2.326 . S
Dy576 O591 2.310 . S
Dy576 O592 2.351 . S
C577 O588 1.185 . S
C577 O589 1.355 . S
C578 O580 1.185 . S
C578 O581 1.355 . S
Dy579 O583 2.310 . S
Dy579 O586 2.351 . S
Dy579 O588 2.398 . S
Dy579 O589 2.491 . S
Dy579 O590 2.403 . S
Dy579 O591 2.664 . S
Dy579 O593 2.326 . S
O580 Dy576 2.398 . S
O580 C578 1.185 . S
O581 Dy576 2.491 . S
O581 C578 1.355 . S
O582 Dy576 2.403 . S
O582 C584 1.254 . S
O583 Dy576 2.664 . S
O583 Dy579 2.310 . S
O583 C584 1.268 . S
C584 O582 1.254 . S
C584 O583 1.268 . S
C585 O590 1.254 . S
C585 O591 1.268 . S
O586 Dy579 2.351 . S
O586 C594 1.249 . S
O587 Dy576 2.326 . S
O587 C594 1.267 . S
O588 C577 1.185 . S
O588 Dy579 2.398 . S
O589 C577 1.355 . S
O589 Dy579 2.491 . S
O590 Dy579 2.403 . S
O590 C585 1.254 . S
O591 Dy576 2.310 . S
O591 Dy579 2.664 . S
O591 C585 1.268 . S
O592 Dy576 2.351 . S
O592 C595 1.249 . S
O593 Dy579 2.326 . S
O593 C595 1.267 . S
C594 O586 1.249 . S
C594 O587 1.267 . S
C595 O592 1.249 . S
C595 O593 1.267 . S
Dy596 O600 2.398 . S
Dy596 O601 2.491 . S
Dy596 O602 2.403 . S
Dy596 O603 2.664 . S
Dy596 O607 2.326 . S
Dy596 O611 2.310 . S
Dy596 O612 2.351 . S
C597 O608 1.185 . S
C597 O609 1.355 . S
C598 O600 1.185 . S
C598 O601 1.355 . S
Dy599 O603 2.310 . S
Dy599 O606 2.351 . S
Dy599 O608 2.398 . S
Dy599 O609 2.491 . S
Dy599 O610 2.403 . S
Dy599 O611 2.664 . S
Dy599 O613 2.326 . S
O600 Dy596 2.398 . S
O600 C598 1.185 . S
O601 Dy596 2.491 . S
O601 C598 1.355 . S
O602 Dy596 2.403 . S
O602 C604 1.254 . S
O603 Dy596 2.664 . S
O603 Dy599 2.310 . S
O603 C604 1.268 . S
C604 O602 1.254 . S
C604 O603 1.268 . S
C605 O610 1.254 . S
C605 O611 1.268 . S
O606 Dy599 2.351 . S
O606 C614 1.249 . S
O607 Dy596 2.326 . S
O607 C614 1.267 . S
O608 C597 1.185 . S
O608 Dy599 2.398 . S
O609 C597 1.355 . S
O609 Dy599 2.491 . S
O610 Dy599 2.403 . S
O610 C605 1.254 . S
O611 Dy596 2.310 . S
O611 Dy599 2.664 . S
O611 C605 1.268 . S
O612 Dy596 2.351 . S
O612 C615 1.249 . S
O613 Dy599 2.326 . S
O613 C615 1.267 . S
C614 O606 1.249 . S
C614 O607 1.267 . S
C615 O612 1.249 . S
C615 O613 1.267 . S
Dy616 O620 2.398 . S
Dy616 O621 2.491 . S
Dy616 O622 2.403 . S
Dy616 O623 2.664 . S
Dy616 O627 2.326 . S
Dy616 O631 2.310 . S
Dy616 O632 2.351 . S
C617 O628 1.185 . S
C617 O629 1.355 . S
C618 O620 1.185 . S
C618 O621 1.355 . S
Dy619 O623 2.310 . S
Dy619 O626 2.351 . S
Dy619 O628 2.398 . S
Dy619 O629 2.491 . S
Dy619 O630 2.403 . S
Dy619 O631 2.664 . S
Dy619 O633 2.326 . S
O620 Dy616 2.398 . S
O620 C618 1.185 . S
O621 Dy616 2.491 . S
O621 C618 1.355 . S
O622 Dy616 2.403 . S
O622 C624 1.254 . S
O623 Dy616 2.664 . S
O623 Dy619 2.310 . S
O623 C624 1.268 . S
C624 O622 1.254 . S
C624 O623 1.268 . S
C625 O630 1.254 . S
C625 O631 1.268 . S
O626 Dy619 2.351 . S
O626 C634 1.249 . S
O627 Dy616 2.326 . S
O627 C634 1.267 . S
O628 C617 1.185 . S
O628 Dy619 2.398 . S
O629 C617 1.355 . S
O629 Dy619 2.491 . S
O630 Dy619 2.403 . S
O630 C625 1.254 . S
O631 Dy616 2.310 . S
O631 Dy619 2.664 . S
O631 C625 1.268 . S
O632 Dy616 2.351 . S
O632 C635 1.249 . S
O633 Dy619 2.326 . S
O633 C635 1.267 . S
C634 O626 1.249 . S
C634 O627 1.267 . S
C635 O632 1.249 . S
C635 O633 1.267 . S
Dy636 O640 2.398 1_554 S
Dy636 O641 2.491 . S
Dy636 O642 2.403 1_554 S
Dy636 O643 2.697 1_554 S
Dy636 O647 2.326 1_554 S
Dy636 O651 2.310 . S
Dy636 O652 2.351 . S
C637 O648 1.185 . S
C637 O649 1.355 . S
C638 O640 1.185 . S
C638 O641 1.355 1_556 S
Dy639 O643 2.291 1_654 S
Dy639 O646 2.351 . S
Dy639 O648 2.398 . S
Dy639 O649 2.491 . S
Dy639 O650 2.403 . S
Dy639 O651 2.664 1_655 S
Dy639 O653 2.332 . S
O640 Dy636 2.398 1_556 S
O640 C638 1.185 . S
O641 Dy636 2.491 . S
O641 C638 1.355 1_554 S
O642 Dy636 2.403 1_556 S
O642 C644 1.254 . S
O643 Dy636 2.697 1_556 S
O643 Dy639 2.291 1_456 S
O643 C644 1.280 . S
C644 O642 1.254 . S
C644 O643 1.280 . S
C645 O650 1.254 1_455 S
C645 O651 1.268 . S
O646 Dy639 2.351 . S
O646 C654 1.275 1_655 S
O647 Dy636 2.326 1_556 S
O647 C654 1.240 1_556 S
O648 C637 1.185 . S
O648 Dy639 2.398 . S
O649 C637 1.355 . S
O649 Dy639 2.491 . S
O650 Dy639 2.403 . S
O650 C645 1.254 1_655 S
O651 Dy636 2.310 . S
O651 Dy639 2.664 1_455 S
O651 C645 1.268 . S
O652 Dy636 2.351 . S
O652 C655 1.249 . S
O653 Dy639 2.332 . S
O653 C655 1.255 1_655 S
C654 O646 1.275 1_455 S
C654 O647 1.240 1_554 S
C655 O652 1.249 . S
C655 O653 1.255 1_455 S
C656 C657 1.356 . S
C656 C658 1.327 . S
C656 H681 0.950 . S
C657 C656 1.356 . S
C657 C673 1.339 1_655 S
C658 C656 1.327 . S
C658 C677 1.429 1_655 S
C658 H682 0.950 . S
C659 C676 1.574 . S
C659 C678 1.368 . S
C659 H683 0.949 . S
H660 C664 0.949 . S
C661 C662 1.377 . S
C661 C663 1.327 . S
C661 H684 0.950 . S
C662 C661 1.377 . S
C662 C674 1.338 1_456 S
C663 C661 1.327 . S
C663 C679 1.429 . S
C663 H685 0.950 . S
C664 H660 0.949 . S
C664 C672 1.574 . S
C664 C680 1.368 1_655 S
H665 C673 0.950 . S
H666 C671 0.950 . S
H667 C672 0.949 . S
H668 C674 0.950 . S
H669 C675 0.952 . S
H670 C676 0.949 . S
C671 H666 0.950 . S
C671 C673 1.327 . S
C671 C677 1.429 . S
C672 C664 1.574 . S
C672 H667 0.949 . S
C672 C678 1.368 1_655 S
C673 C657 1.339 1_455 S
C673 H665 0.950 . S
C673 C671 1.327 . S
C674 C662 1.338 1_654 S
C674 H668 0.950 . S
C674 C675 1.330 . S
C675 H669 0.952 . S
C675 C674 1.330 . S
C675 C679 1.424 1_654 S
C676 C659 1.574 . S
C676 H670 0.949 . S
C676 C680 1.368 . S
C677 C658 1.429 1_455 S
C677 C671 1.429 . S
C677 C678 1.523 . S
C678 C659 1.368 . S
C678 C672 1.368 1_455 S
C678 C677 1.523 . S
C679 C663 1.429 . S
C679 C675 1.424 1_456 S
C679 C680 1.523 . S
C680 C664 1.368 1_455 S
C680 C676 1.368 . S
C680 C679 1.523 . S
H681 C656 0.950 . S
H682 C658 0.950 . S
H683 C659 0.949 . S
H684 C661 0.950 . S
H685 C663 0.950 . S
C686 C687 1.349 . S
C686 C688 1.327 . S
C686 H711 0.950 . S
C687 C686 1.349 . S
C687 C703 1.349 . S
C688 C686 1.327 . S
C688 C707 1.429 . S
C688 H712 0.950 . S
C689 C706 1.574 . S
C689 C708 1.368 . S
C689 H713 0.949 . S
H690 C694 0.949 . S
C691 C692 1.349 . S
C691 C693 1.327 . S
C691 H714 0.950 . S
C692 C691 1.349 . S
C692 C704 1.349 . S
C693 C691 1.327 . S
C693 C709 1.429 . S
C693 H715 0.950 . S
C694 H690 0.949 . S
C694 C702 1.574 . S
C694 C710 1.368 . S
H695 C703 0.950 . S
H696 C701 0.950 . S
H697 C702 0.949 . S
H698 C704 0.950 . S
H699 C705 0.950 . S
H700 C706 0.949 . S
C701 H696 0.950 . S
C701 C703 1.327 . S
C701 C707 1.429 . S
C702 C694 1.574 . S
C702 H697 0.949 . S
C702 C708 1.368 . S
C703 C687 1.349 . S
C703 H695 0.950 . S
C703 C701 1.327 . S
C704 C692 1.349 . S
C704 H698 0.950 . S
C704 C705 1.327 . S
C705 H699 0.950 . S
C705 C704 1.327 . S
C705 C709 1.429 . S
C706 C689 1.574 . S
C706 H700 0.949 . S
C706 C710 1.368 . S
C707 C688 1.429 . S
C707 C701 1.429 . S
C707 C708 1.523 . S
C708 C689 1.368 . S
C708 C702 1.368 . S
C708 C707 1.523 . S
C709 C693 1.429 . S
C709 C705 1.429 . S
C709 C710 1.523 . S
C710 C694 1.368 . S
C710 C706 1.368 . S
C710 C709 1.523 . S
H711 C686 0.950 . S
H712 C688 0.950 . S
H713 C689 0.949 . S
H714 C691 0.950 . S
H715 C693 0.950 . S
C716 C717 1.349 . S
C716 C718 1.327 . S
C716 H741 0.950 . S
C717 C716 1.349 . S
C717 C733 1.349 . S
C718 C716 1.327 . S
C718 C737 1.429 . S
C718 H742 0.950 . S
C719 C736 1.574 . S
C719 C738 1.368 . S
C719 H743 0.949 . S
H720 C724 0.949 . S
C721 C722 1.349 . S
C721 C723 1.327 . S
C721 H744 0.950 . S
C722 C721 1.349 . S
C722 C734 1.349 . S
C723 C721 1.327 . S
C723 C739 1.429 . S
C723 H745 0.950 . S
C724 H720 0.949 . S
C724 C732 1.574 . S
C724 C740 1.368 . S
H725 C733 0.950 . S
H726 C731 0.950 . S
H727 C732 0.949 . S
H728 C734 0.950 . S
H729 C735 0.950 . S
H730 C736 0.949 . S
C731 H726 0.950 . S
C731 C733 1.327 . S
C731 C737 1.429 . S
C732 C724 1.574 . S
C732 H727 0.949 . S
C732 C738 1.368 . S
C733 C717 1.349 . S
C733 H725 0.950 . S
C733 C731 1.327 . S
C734 C722 1.349 . S
C734 H728 0.950 . S
C734 C735 1.327 . S
C735 H729 0.950 . S
C735 C734 1.327 . S
C735 C739 1.429 . S
C736 C719 1.574 . S
C736 H730 0.949 . S
C736 C740 1.368 . S
C737 C718 1.429 . S
C737 C731 1.429 . S
C737 C738 1.523 . S
C738 C719 1.368 . S
C738 C732 1.368 . S
C738 C737 1.523 . S
C739 C723 1.429 . S
C739 C735 1.429 . S
C739 C740 1.523 . S
C740 C724 1.368 . S
C740 C736 1.368 . S
C740 C739 1.523 . S
H741 C716 0.950 . S
H742 C718 0.950 . S
H743 C719 0.949 . S
H744 C721 0.950 . S
H745 C723 0.950 . S
C746 C747 1.349 . S
C746 C748 1.327 . S
C746 H771 0.950 . S
C747 C746 1.349 . S
C747 C763 1.349 . S
C748 C746 1.327 . S
C748 C767 1.429 . S
C748 H772 0.950 . S
C749 C766 1.574 . S
C749 C768 1.368 . S
C749 H773 0.949 . S
H750 C754 0.949 . S
C751 C752 1.349 . S
C751 C753 1.327 . S
C751 H774 0.950 . S
C752 C751 1.349 . S
C752 C764 1.349 . S
C753 C751 1.327 . S
C753 C769 1.429 . S
C753 H775 0.950 . S
C754 H750 0.949 . S
C754 C762 1.574 . S
C754 C770 1.368 . S
H755 C763 0.950 . S
H756 C761 0.950 . S
H757 C762 0.949 . S
H758 C764 0.950 . S
H759 C765 0.950 . S
H760 C766 0.949 . S
C761 H756 0.950 . S
C761 C763 1.327 . S
C761 C767 1.429 . S
C762 C754 1.574 . S
C762 H757 0.949 . S
C762 C768 1.368 . S
C763 C747 1.349 . S
C763 H755 0.950 . S
C763 C761 1.327 . S
C764 C752 1.349 . S
C764 H758 0.950 . S
C764 C765 1.327 . S
C765 H759 0.950 . S
C765 C764 1.327 . S
C765 C769 1.429 . S
C766 C749 1.574 . S
C766 H760 0.949 . S
C766 C770 1.368 . S
C767 C748 1.429 . S
C767 C761 1.429 . S
C767 C768 1.523 . S
C768 C749 1.368 . S
C768 C762 1.368 . S
C768 C767 1.523 . S
C769 C753 1.429 . S
C769 C765 1.429 . S
C769 C770 1.523 . S
C770 C754 1.368 . S
C770 C766 1.368 . S
C770 C769 1.523 . S
H771 C746 0.950 . S
H772 C748 0.950 . S
H773 C749 0.949 . S
H774 C751 0.950 . S
H775 C753 0.950 . S
C776 C777 1.349 . S
C776 C778 1.327 . S
C776 H801 0.950 1_455 S
C777 C776 1.349 . S
C777 C793 1.349 . S
C778 C776 1.327 . S
C778 C797 1.429 . S
C778 H802 0.950 1_455 S
C779 C796 1.574 . S
C779 C798 1.368 . S
C779 H803 0.949 . S
H780 C784 0.949 1_655 S
C781 C782 1.349 . S
C781 C783 1.327 . S
C781 H804 0.950 . S
C782 C781 1.349 . S
C782 C794 1.349 . S
C783 C781 1.327 . S
C783 C799 1.429 . S
C783 H805 0.950 . S
C784 H780 0.949 1_455 S
C784 C792 1.574 . S
C784 C800 1.368 . S
H785 C793 0.950 . S
H786 C791 0.950 . S
H787 C792 0.949 1_655 S
H788 C794 0.937 1_655 S
H789 C795 0.950 1_655 S
H790 C796 0.949 . S
C791 H786 0.950 . S
C791 C793 1.327 . S
C791 C797 1.429 . S
C792 C784 1.574 . S
C792 H787 0.949 1_455 S
C792 C798 1.368 . S
C793 C777 1.349 . S
C793 H785 0.950 . S
C793 C791 1.327 . S
C794 C782 1.349 . S
C794 H788 0.937 1_455 S
C794 C795 1.327 . S
C795 H789 0.950 1_455 S
C795 C794 1.327 . S
C795 C799 1.429 . S
C796 C779 1.574 . S
C796 H790 0.949 . S
C796 C800 1.368 . S
C797 C778 1.429 . S
C797 C791 1.429 . S
C797 C798 1.523 . S
C798 C779 1.368 . S
C798 C792 1.368 . S
C798 C797 1.523 . S
C799 C783 1.429 . S
C799 C795 1.429 . S
C799 C800 1.523 . S
C800 C784 1.368 . S
C800 C796 1.368 . S
C800 C799 1.523 . S
H801 C776 0.950 1_655 S
H802 C778 0.950 1_655 S
H803 C779 0.949 . S
H804 C781 0.950 . S
H805 C783 0.950 . S
C806 C807 1.349 . S
C806 C808 1.327 . S
C806 H831 0.950 . S
C807 C806 1.349 . S
C807 C823 1.349 . S
C808 C806 1.327 . S
C808 C827 1.429 . S
C808 H832 0.950 . S
C809 C826 1.574 . S
C809 C828 1.368 . S
C809 H833 0.949 . S
H810 C814 0.949 . S
C811 C812 1.349 . S
C811 C813 1.327 . S
C811 H834 0.950 . S
C812 C811 1.349 . S
C812 C824 1.349 . S
C813 C811 1.327 . S
C813 C829 1.429 . S
C813 H835 0.950 . S
C814 H810 0.949 . S
C814 C822 1.574 . S
C814 C830 1.368 . S
H815 C823 0.950 . S
H816 C821 0.950 . S
H817 C822 0.949 . S
H818 C824 0.950 . S
H819 C825 0.950 . S
H820 C826 0.949 . S
C821 H816 0.950 . S
C821 C823 1.327 . S
C821 C827 1.429 . S
C822 C814 1.574 . S
C822 H817 0.949 . S
C822 C828 1.368 . S
C823 C807 1.349 . S
C823 H815 0.950 . S
C823 C821 1.327 . S
C824 C812 1.349 . S
C824 H818 0.950 . S
C824 C825 1.327 . S
C825 H819 0.950 . S
C825 C824 1.327 . S
C825 C829 1.429 . S
C826 C809 1.574 . S
C826 H820 0.949 . S
C826 C830 1.368 . S
C827 C808 1.429 . S
C827 C821 1.429 . S
C827 C828 1.523 . S
C828 C809 1.368 . S
C828 C822 1.368 . S
C828 C827 1.523 . S
C829 C813 1.429 . S
C829 C825 1.429 . S
C829 C830 1.523 . S
C830 C814 1.368 . S
C830 C826 1.368 . S
C830 C829 1.523 . S
H831 C806 0.950 . S
H832 C808 0.950 . S
H833 C809 0.949 . S
H834 C811 0.950 . S
H835 C813 0.950 . S
C836 C837 1.349 . S
C836 C838 1.327 . S
C836 H861 0.950 . S
C837 C836 1.349 . S
C837 C853 1.349 . S
C838 C836 1.327 . S
C838 C857 1.429 . S
C838 H862 0.950 . S
C839 C856 1.574 . S
C839 C858 1.368 . S
C839 H863 0.949 . S
H840 C844 0.949 . S
C841 C842 1.349 . S
C841 C843 1.327 . S
C841 H864 0.950 . S
C842 C841 1.349 . S
C842 C854 1.349 . S
C843 C841 1.327 . S
C843 C859 1.429 . S
C843 H865 0.950 . S
C844 H840 0.949 . S
C844 C852 1.574 . S
C844 C860 1.368 . S
H845 C853 0.950 . S
H846 C851 0.950 . S
H847 C852 0.949 . S
H848 C854 0.950 . S
H849 C855 0.950 . S
H850 C856 0.949 . S
C851 H846 0.950 . S
C851 C853 1.327 . S
C851 C857 1.429 . S
C852 C844 1.574 . S
C852 H847 0.949 . S
C852 C858 1.368 . S
C853 C837 1.349 . S
C853 H845 0.950 . S
C853 C851 1.327 . S
C854 C842 1.349 . S
C854 H848 0.950 . S
C854 C855 1.327 . S
C855 H849 0.950 . S
C855 C854 1.327 . S
C855 C859 1.429 . S
C856 C839 1.574 . S
C856 H850 0.949 . S
C856 C860 1.368 . S
C857 C838 1.429 . S
C857 C851 1.429 . S
C857 C858 1.523 . S
C858 C839 1.368 . S
C858 C852 1.368 . S
C858 C857 1.523 . S
C859 C843 1.429 . S
C859 C855 1.429 . S
C859 C860 1.523 . S
C860 C844 1.368 . S
C860 C856 1.368 . S
C860 C859 1.523 . S
H861 C836 0.950 . S
H862 C838 0.950 . S
H863 C839 0.949 . S
H864 C841 0.950 . S
H865 C843 0.950 . S
C866 C867 1.349 . S
C866 C868 1.327 . S
C866 H891 0.950 . S
C867 C866 1.349 . S
C867 C883 1.349 . S
C868 C866 1.327 . S
C868 C887 1.429 . S
C868 H892 0.950 . S
C869 C886 1.574 . S
C869 C888 1.368 . S
C869 H893 0.949 . S
H870 C874 0.949 . S
C871 C872 1.349 . S
C871 C873 1.327 . S
C871 H894 0.950 . S
C872 C871 1.349 . S
C872 C884 1.349 . S
C873 C871 1.327 . S
C873 C889 1.429 . S
C873 H895 0.950 . S
C874 H870 0.949 . S
C874 C882 1.574 . S
C874 C890 1.368 . S
H875 C883 0.950 . S
H876 C881 0.950 . S
H877 C882 0.949 . S
H878 C884 0.950 . S
H879 C885 0.950 . S
H880 C886 0.949 . S
C881 H876 0.950 . S
C881 C883 1.327 . S
C881 C887 1.429 . S
C882 C874 1.574 . S
C882 H877 0.949 . S
C882 C888 1.368 . S
C883 C867 1.349 . S
C883 H875 0.950 . S
C883 C881 1.327 . S
C884 C872 1.349 . S
C884 H878 0.950 . S
C884 C885 1.327 . S
C885 H879 0.950 . S
C885 C884 1.327 . S
C885 C889 1.429 . S
C886 C869 1.574 . S
C886 H880 0.949 . S
C886 C890 1.368 . S
C887 C868 1.429 . S
C887 C881 1.429 . S
C887 C888 1.523 . S
C888 C869 1.368 . S
C888 C882 1.368 . S
C888 C887 1.523 . S
C889 C873 1.429 . S
C889 C885 1.429 . S
C889 C890 1.523 . S
C890 C874 1.368 . S
C890 C886 1.368 . S
C890 C889 1.523 . S
H891 C866 0.950 . S
H892 C868 0.950 . S
H893 C869 0.949 . S
H894 C871 0.950 . S
H895 C873 0.950 . S
C896 C897 1.349 . S
C896 C898 1.327 . S
C896 H921 0.950 . S
C897 C896 1.349 . S
C897 C913 1.349 . S
C898 C896 1.327 . S
C898 C917 1.429 . S
C898 H922 0.950 . S
C899 C916 1.574 . S
C899 C918 1.368 . S
C899 H923 0.949 . S
H900 C904 0.949 . S
C901 C902 1.343 1_455 S
C901 C903 1.299 1_455 S
C901 H924 0.987 . S
C902 C901 1.343 1_655 S
C902 C914 1.349 . S
C903 C901 1.299 1_655 S
C903 C919 1.429 . S
C903 H925 0.950 . S
C904 H900 0.949 . S
C904 C912 1.574 . S
C904 C920 1.368 . S
H905 C913 0.950 . S
H906 C911 0.950 . S
H907 C912 0.949 . S
H908 C914 0.950 . S
H909 C915 0.950 . S
H910 C916 0.949 . S
C911 H906 0.950 . S
C911 C913 1.327 . S
C911 C917 1.429 . S
C912 C904 1.574 . S
C912 H907 0.949 . S
C912 C918 1.368 . S
C913 C897 1.349 . S
C913 H905 0.950 . S
C913 C911 1.327 . S
C914 C902 1.349 . S
C914 H908 0.950 . S
C914 C915 1.327 . S
C915 H909 0.950 . S
C915 C914 1.327 . S
C915 C919 1.429 . S
C916 C899 1.574 . S
C916 H910 0.949 . S
C916 C920 1.368 . S
C917 C898 1.429 . S
C917 C911 1.429 . S
C917 C918 1.523 . S
C918 C899 1.368 . S
C918 C912 1.368 . S
C918 C917 1.523 . S
C919 C903 1.429 . S
C919 C915 1.429 . S
C919 C920 1.523 . S
C920 C904 1.368 . S
C920 C916 1.368 . S
C920 C919 1.523 . S
H921 C896 0.950 . S
H922 C898 0.950 . S
H923 C899 0.949 . S
H924 C901 0.987 . S
H925 C903 0.950 . S
C926 C927 1.349 . S
C926 C928 1.327 . S
C926 H951 0.950 . S
C927 C926 1.349 . S
C927 C943 1.349 . S
C928 C926 1.327 . S
C928 C947 1.429 . S
C928 H952 0.950 . S
C929 C946 1.574 . S
C929 C948 1.368 . S
C929 H953 0.949 . S
H930 C934 0.949 . S
C931 C932 1.349 . S
C931 C933 1.327 . S
C931 H954 0.950 . S
C932 C931 1.349 . S
C932 C944 1.349 . S
C933 C931 1.327 . S
C933 C949 1.429 . S
C933 H955 0.950 . S
C934 H930 0.949 . S
C934 C942 1.574 . S
C934 C950 1.368 . S
H935 C943 0.950 . S
H936 C941 0.950 . S
H937 C942 0.949 . S
H938 C944 0.950 . S
H939 C945 0.950 . S
H940 C946 0.949 . S
C941 H936 0.950 . S
C941 C943 1.327 . S
C941 C947 1.429 . S
C942 C934 1.574 . S
C942 H937 0.949 . S
C942 C948 1.368 . S
C943 C927 1.349 . S
C943 H935 0.950 . S
C943 C941 1.327 . S
C944 C932 1.349 . S
C944 H938 0.950 . S
C944 C945 1.327 . S
C945 H939 0.950 . S
C945 C944 1.327 . S
C945 C949 1.429 . S
C946 C929 1.574 . S
C946 H940 0.949 . S
C946 C950 1.368 . S
C947 C928 1.429 . S
C947 C941 1.429 . S
C947 C948 1.523 . S
C948 C929 1.368 . S
C948 C942 1.368 . S
C948 C947 1.523 . S
C949 C933 1.429 . S
C949 C945 1.429 . S
C949 C950 1.523 . S
C950 C934 1.368 . S
C950 C946 1.368 . S
C950 C949 1.523 . S
H951 C926 0.950 . S
H952 C928 0.950 . S
H953 C929 0.949 . S
H954 C931 0.950 . S
H955 C933 0.950 . S
C956 C957 1.349 . S
C956 C958 1.327 . S
C956 H981 0.950 1_545 S
C957 C956 1.349 . S
C957 C973 1.349 . S
C958 C956 1.327 . S
C958 C977 1.429 . S
C958 H982 0.950 1_545 S
C959 C976 1.574 . S
C959 C978 1.368 . S
C959 H983 0.949 . S
H960 C964 0.949 1_565 S
C961 C962 1.349 . S
C961 C963 1.327 . S
C961 H984 0.950 . S
C962 C961 1.349 . S
C962 C974 1.349 . S
C963 C961 1.327 . S
C963 C979 1.429 . S
C963 H985 0.950 . S
C964 H960 0.949 1_545 S
C964 C972 1.574 . S
C964 C980 1.368 . S
H965 C973 0.950 . S
H966 C971 0.950 . S
H967 C972 0.949 1_565 S
H968 C974 0.950 1_565 S
H969 C975 0.950 1_565 S
H970 C976 0.949 . S
C971 H966 0.950 . S
C971 C973 1.327 . S
C971 C977 1.429 . S
C972 C964 1.574 . S
C972 H967 0.949 1_545 S
C972 C978 1.368 . S
C973 C957 1.349 . S
C973 H965 0.950 . S
C973 C971 1.327 . S
C974 C962 1.349 . S
C974 H968 0.950 1_545 S
C974 C975 1.327 . S
C975 H969 0.950 1_545 S
C975 C974 1.327 . S
C975 C979 1.429 . S
C976 C959 1.574 . S
C976 H970 0.949 . S
C976 C980 1.368 . S
C977 C958 1.429 . S
C977 C971 1.429 . S
C977 C978 1.523 . S
C978 C959 1.368 . S
C978 C972 1.368 . S
C978 C977 1.523 . S
C979 C963 1.429 . S
C979 C975 1.429 . S
C979 C980 1.523 . S
C980 C964 1.368 . S
C980 C976 1.368 . S
C980 C979 1.523 . S
H981 C956 0.950 1_565 S
H982 C958 0.950 1_565 S
H983 C959 0.949 . S
H984 C961 0.950 . S
H985 C963 0.950 . S
C986 C987 1.349 . S
C986 C988 1.327 . S
C986 H1011 0.950 . S
C987 C986 1.349 . S
C987 C1003 1.349 . S
C988 C986 1.327 . S
C988 C1007 1.429 . S
C988 H1012 0.950 . S
C989 C1006 1.574 . S
C989 C1008 1.368 . S
C989 H1013 0.949 . S
H990 C994 0.949 . S
C991 C992 1.349 . S
C991 C993 1.327 . S
C991 H1014 0.950 . S
C992 C991 1.349 . S
C992 C1004 1.349 . S
C993 C991 1.327 . S
C993 C1009 1.429 . S
C993 H1015 0.950 . S
C994 H990 0.949 . S
C994 C1002 1.574 . S
C994 C1010 1.368 . S
H995 C1003 0.950 . S
H996 C1001 0.950 . S
H997 C1002 0.949 . S
H998 C1004 0.950 . S
H999 C1005 0.950 . S
H1000 C1006 0.949 . S
C1001 H996 0.950 . S
C1001 C1003 1.327 . S
C1001 C1007 1.429 . S
C1002 C994 1.574 . S
C1002 H997 0.949 . S
C1002 C1008 1.368 . S
C1003 C987 1.349 . S
C1003 H995 0.950 . S
C1003 C1001 1.327 . S
C1004 C992 1.349 . S
C1004 H998 0.950 . S
C1004 C1005 1.327 . S
C1005 H999 0.950 . S
C1005 C1004 1.327 . S
C1005 C1009 1.429 . S
C1006 C989 1.574 . S
C1006 H1000 0.949 . S
C1006 C1010 1.368 . S
C1007 C988 1.429 . S
C1007 C1001 1.429 . S
C1007 C1008 1.523 . S
C1008 C989 1.368 . S
C1008 C1002 1.368 . S
C1008 C1007 1.523 . S
C1009 C993 1.429 . S
C1009 C1005 1.429 . S
C1009 C1010 1.523 . S
C1010 C994 1.368 . S
C1010 C1006 1.368 . S
C1010 C1009 1.523 . S
H1011 C986 0.950 . S
H1012 C988 0.950 . S
H1013 C989 0.949 . S
H1014 C991 0.950 . S
H1015 C993 0.950 . S
C1016 C1017 1.349 . S
C1016 C1018 1.327 . S
C1016 H1041 0.950 . S
C1017 C1016 1.349 . S
C1017 C1033 1.349 . S
C1018 C1016 1.327 . S
C1018 C1037 1.429 . S
C1018 H1042 0.950 . S
C1019 C1036 1.574 . S
C1019 C1038 1.368 . S
C1019 H1043 0.949 . S
H1020 C1024 0.949 . S
C1021 C1022 1.374 . S
C1021 C1023 1.347 . S
C1021 H1044 0.906 1_655 S
C1022 C1021 1.374 . S
C1022 C1034 1.349 . S
C1023 C1021 1.347 . S
C1023 C1039 1.429 . S
C1023 H1045 0.955 . S
C1024 H1020 0.949 . S
C1024 C1032 1.574 . S
C1024 C1040 1.368 . S
H1025 C1033 0.950 . S
H1026 C1031 0.950 . S
H1027 C1032 0.949 . S
H1028 C1034 0.950 . S
H1029 C1035 0.950 . S
H1030 C1036 0.949 . S
C1031 H1026 0.950 . S
C1031 C1033 1.327 . S
C1031 C1037 1.429 . S
C1032 C1024 1.574 . S
C1032 H1027 0.949 . S
C1032 C1038 1.368 . S
C1033 C1017 1.349 . S
C1033 H1025 0.950 . S
C1033 C1031 1.327 . S
C1034 C1022 1.349 . S
C1034 H1028 0.950 . S
C1034 C1035 1.327 . S
C1035 H1029 0.950 . S
C1035 C1034 1.327 . S
C1035 C1039 1.429 . S
C1036 C1019 1.574 . S
C1036 H1030 0.949 . S
C1036 C1040 1.368 . S
C1037 C1018 1.429 . S
C1037 C1031 1.429 . S
C1037 C1038 1.523 . S
C1038 C1019 1.368 . S
C1038 C1032 1.368 . S
C1038 C1037 1.523 . S
C1039 C1023 1.429 . S
C1039 C1035 1.429 . S
C1039 C1040 1.523 . S
C1040 C1024 1.368 . S
C1040 C1036 1.368 . S
C1040 C1039 1.523 . S
H1041 C1016 0.950 . S
H1042 C1018 0.950 . S
H1043 C1019 0.949 . S
H1044 C1021 0.906 1_455 S
H1045 C1023 0.955 . S
C1046 C1047 1.349 . S
C1046 C1048 1.327 . S
C1046 H1071 0.950 . S
C1047 C1046 1.349 . S
C1047 C1063 1.349 . S
C1048 C1046 1.327 . S
C1048 C1067 1.429 . S
C1048 H1072 0.950 . S
C1049 C1066 1.574 . S
C1049 C1068 1.368 . S
C1049 H1073 0.949 . S
H1050 C1054 0.949 . S
C1051 C1052 1.349 . S
C1051 C1053 1.327 . S
C1051 H1074 0.950 . S
C1052 C1051 1.349 . S
C1052 C1064 1.349 . S
C1053 C1051 1.327 . S
C1053 C1069 1.429 . S
C1053 H1075 0.950 . S
C1054 H1050 0.949 . S
C1054 C1062 1.574 . S
C1054 C1070 1.368 . S
H1055 C1063 0.950 . S
H1056 C1061 0.950 . S
H1057 C1062 0.949 . S
H1058 C1064 0.950 . S
H1059 C1065 0.950 . S
H1060 C1066 0.949 . S
C1061 H1056 0.950 . S
C1061 C1063 1.327 . S
C1061 C1067 1.429 . S
C1062 C1054 1.574 . S
C1062 H1057 0.949 . S
C1062 C1068 1.368 . S
C1063 C1047 1.349 . S
C1063 H1055 0.950 . S
C1063 C1061 1.327 . S
C1064 C1052 1.349 . S
C1064 H1058 0.950 . S
C1064 C1065 1.327 . S
C1065 H1059 0.950 . S
C1065 C1064 1.327 . S
C1065 C1069 1.429 . S
C1066 C1049 1.574 . S
C1066 H1060 0.949 . S
C1066 C1070 1.368 . S
C1067 C1048 1.429 . S
C1067 C1061 1.429 . S
C1067 C1068 1.523 . S
C1068 C1049 1.368 . S
C1068 C1062 1.368 . S
C1068 C1067 1.523 . S
C1069 C1053 1.429 . S
C1069 C1065 1.429 . S
C1069 C1070 1.523 . S
C1070 C1054 1.368 . S
C1070 C1066 1.368 . S
C1070 C1069 1.523 . S
H1071 C1046 0.950 . S
H1072 C1048 0.950 . S
H1073 C1049 0.949 . S
H1074 C1051 0.950 . S
H1075 C1053 0.950 . S
C1076 C1077 1.349 . S
C1076 C1078 1.327 . S
C1076 H1101 0.950 . S
C1077 C1076 1.349 . S
C1077 C1093 1.349 . S
C1078 C1076 1.327 . S
C1078 C1097 1.429 . S
C1078 H1102 0.950 . S
C1079 C1096 1.574 . S
C1079 C1098 1.368 . S
C1079 H1103 0.949 . S
H1080 C1084 0.949 . S
C1081 C1082 1.349 . S
C1081 C1083 1.327 . S
C1081 H1104 0.950 . S
C1082 C1081 1.349 . S
C1082 C1094 1.349 . S
C1083 C1081 1.327 . S
C1083 C1099 1.429 . S
C1083 H1105 0.950 . S
C1084 H1080 0.949 . S
C1084 C1092 1.574 . S
C1084 C1100 1.368 . S
H1085 C1093 0.950 . S
H1086 C1091 0.950 . S
H1087 C1092 0.949 . S
H1088 C1094 0.950 . S
H1089 C1095 0.950 . S
H1090 C1096 0.949 . S
C1091 H1086 0.950 . S
C1091 C1093 1.327 . S
C1091 C1097 1.429 . S
C1092 C1084 1.574 . S
C1092 H1087 0.949 . S
C1092 C1098 1.368 . S
C1093 C1077 1.349 . S
C1093 H1085 0.950 . S
C1093 C1091 1.327 . S
C1094 C1082 1.349 . S
C1094 H1088 0.950 . S
C1094 C1095 1.327 . S
C1095 H1089 0.950 . S
C1095 C1094 1.327 . S
C1095 C1099 1.429 . S
C1096 C1079 1.574 . S
C1096 H1090 0.949 . S
C1096 C1100 1.368 . S
C1097 C1078 1.429 . S
C1097 C1091 1.429 . S
C1097 C1098 1.523 . S
C1098 C1079 1.368 . S
C1098 C1092 1.368 . S
C1098 C1097 1.523 . S
C1099 C1083 1.429 . S
C1099 C1095 1.429 . S
C1099 C1100 1.523 . S
C1100 C1084 1.368 . S
C1100 C1096 1.368 . S
C1100 C1099 1.523 . S
H1101 C1076 0.950 . S
H1102 C1078 0.950 . S
H1103 C1079 0.949 . S
H1104 C1081 0.950 . S
H1105 C1083 0.950 . S
C1106 C1107 1.349 . S
C1106 C1108 1.327 . S
C1106 H1131 0.950 . S
C1107 C1106 1.349 . S
C1107 C1123 1.349 . S
C1108 C1106 1.327 . S
C1108 C1127 1.429 . S
C1108 H1132 0.950 . S
C1109 C1126 1.574 . S
C1109 C1128 1.368 . S
C1109 H1133 0.949 . S
H1110 C1114 0.949 . S
C1111 C1112 1.349 . S
C1111 C1113 1.327 . S
C1111 H1134 0.950 . S
C1112 C1111 1.349 . S
C1112 C1124 1.349 . S
C1113 C1111 1.327 . S
C1113 C1129 1.429 . S
C1113 H1135 0.950 . S
C1114 H1110 0.949 . S
C1114 C1122 1.574 . S
C1114 C1130 1.368 . S
H1115 C1123 0.950 . S
H1116 C1121 0.950 . S
H1117 C1122 0.949 . S
H1118 C1124 0.950 . S
H1119 C1125 0.950 . S
H1120 C1126 0.949 . S
C1121 H1116 0.950 . S
C1121 C1123 1.327 . S
C1121 C1127 1.429 . S
C1122 C1114 1.574 . S
C1122 H1117 0.949 . S
C1122 C1128 1.368 . S
C1123 C1107 1.349 . S
C1123 H1115 0.950 . S
C1123 C1121 1.327 . S
C1124 C1112 1.349 . S
C1124 H1118 0.950 . S
C1124 C1125 1.327 . S
C1125 H1119 0.950 . S
C1125 C1124 1.327 . S
C1125 C1129 1.429 . S
C1126 C1109 1.574 . S
C1126 H1120 0.949 . S
C1126 C1130 1.368 . S
C1127 C1108 1.429 . S
C1127 C1121 1.429 . S
C1127 C1128 1.523 . S
C1128 C1109 1.368 . S
C1128 C1122 1.368 . S
C1128 C1127 1.523 . S
C1129 C1113 1.429 . S
C1129 C1125 1.429 . S
C1129 C1130 1.523 . S
C1130 C1114 1.368 . S
C1130 C1126 1.368 . S
C1130 C1129 1.523 . S
H1131 C1106 0.950 . S
H1132 C1108 0.950 . S
H1133 C1109 0.949 . S
H1134 C1111 0.950 . S
H1135 C1113 0.950 . S
C1136 C1137 1.349 . S
C1136 C1138 1.327 . S
C1136 H1161 0.950 . S
C1137 C1136 1.349 . S
C1137 C1153 1.349 . S
C1138 C1136 1.327 . S
C1138 C1157 1.429 . S
C1138 H1162 0.950 . S
C1139 C1156 1.574 . S
C1139 C1158 1.368 . S
C1139 H1163 0.949 . S
H1140 C1144 0.949 . S
C1141 C1142 1.355 . S
C1141 C1143 1.353 . S
C1141 H1164 0.950 . S
C1142 C1141 1.355 . S
C1142 C1154 1.319 1_545 S
C1143 C1141 1.353 . S
C1143 C1159 1.398 1_545 S
C1143 H1165 0.957 . S
C1144 H1140 0.949 . S
C1144 C1152 1.574 . S
C1144 C1160 1.368 . S
H1145 C1153 0.950 . S
H1146 C1151 0.950 . S
H1147 C1152 0.949 . S
H1148 C1154 0.950 . S
H1149 C1155 0.950 . S
H1150 C1156 0.949 . S
C1151 H1146 0.950 . S
C1151 C1153 1.327 . S
C1151 C1157 1.429 . S
C1152 C1144 1.574 . S
C1152 H1147 0.949 . S
C1152 C1158 1.368 . S
C1153 C1137 1.349 . S
C1153 H1145 0.950 . S
C1153 C1151 1.327 . S
C1154 C1142 1.319 1_565 S
C1154 H1148 0.950 . S
C1154 C1155 1.327 . S
C1155 H1149 0.950 . S
C1155 C1154 1.327 . S
C1155 C1159 1.429 . S
C1156 C1139 1.574 . S
C1156 H1150 0.949 . S
C1156 C1160 1.368 . S
C1157 C1138 1.429 . S
C1157 C1151 1.429 . S
C1157 C1158 1.523 . S
C1158 C1139 1.368 . S
C1158 C1152 1.368 . S
C1158 C1157 1.523 . S
C1159 C1143 1.398 1_565 S
C1159 C1155 1.429 . S
C1159 C1160 1.523 . S
C1160 C1144 1.368 . S
C1160 C1156 1.368 . S
C1160 C1159 1.523 . S
H1161 C1136 0.950 . S
H1162 C1138 0.950 . S
H1163 C1139 0.949 . S
H1164 C1141 0.950 . S
H1165 C1143 0.957 . S
C1166 C1167 1.347 . S
C1166 C1168 1.329 1_554 S
C1166 H1191 0.952 1_554 S
C1167 C1166 1.347 . S
C1167 C1183 1.349 . S
C1168 C1166 1.329 1_556 S
C1168 C1187 1.412 1_556 S
C1168 H1192 0.965 . S
C1169 C1186 1.574 . S
C1169 C1188 1.368 . S
C1169 H1193 0.949 . S
H1170 C1174 0.949 . S
C1171 C1172 1.349 . S
C1171 C1173 1.327 . S
C1171 H1194 0.950 . S
C1172 C1171 1.349 . S
C1172 C1184 1.349 1_554 S
C1173 C1171 1.327 . S
C1173 C1189 1.429 . S
C1173 H1195 0.950 . S
C1174 H1170 0.949 . S
C1174 C1182 1.574 . S
C1174 C1190 1.368 1_556 S
H1175 C1183 0.950 . S
H1176 C1181 0.950 . S
H1177 C1182 0.949 . S
H1178 C1184 0.950 . S
H1179 C1185 0.950 . S
H1180 C1186 0.949 . S
C1181 H1176 0.950 . S
C1181 C1183 1.327 . S
C1181 C1187 1.429 . S
C1182 C1174 1.574 . S
C1182 H1177 0.949 . S
C1182 C1188 1.368 1_556 S
C1183 C1167 1.349 . S
C1183 H1175 0.950 . S
C1183 C1181 1.327 . S
C1184 C1172 1.349 1_556 S
C1184 H1178 0.950 . S
C1184 C1185 1.327 . S
C1185 H1179 0.950 . S
C1185 C1184 1.327 . S
C1185 C1189 1.429 1_556 S
C1186 C1169 1.574 . S
C1186 H1180 0.949 . S
C1186 C1190 1.368 . S
C1187 C1168 1.412 1_554 S
C1187 C1181 1.429 . S
C1187 C1188 1.523 . S
C1188 C1169 1.368 . S
C1188 C1182 1.368 1_554 S
C1188 C1187 1.523 . S
C1189 C1173 1.429 . S
C1189 C1185 1.429 1_554 S
C1189 C1190 1.523 . S
C1190 C1174 1.368 1_554 S
C1190 C1186 1.368 . S
C1190 C1189 1.523 . S
H1191 C1166 0.952 1_556 S
H1192 C1168 0.965 . S
H1193 C1169 0.949 . S
H1194 C1171 0.950 . S
H1195 C1173 0.950 . S
C1196 C1197 1.349 . S
C1196 C1198 1.327 . S
C1196 H1221 0.950 . S
C1197 C1196 1.349 . S
C1197 C1213 1.349 . S
C1198 C1196 1.327 . S
C1198 C1217 1.429 . S
C1198 H1222 0.950 . S
C1199 C1216 1.574 . S
C1199 C1218 1.368 . S
C1199 H1223 0.949 . S
H1200 C1204 0.949 . S
C1201 C1202 1.349 . S
C1201 C1203 1.327 . S
C1201 H1224 0.950 . S
C1202 C1201 1.349 . S
C1202 C1214 1.349 . S
C1203 C1201 1.327 . S
C1203 C1219 1.429 . S
C1203 H1225 0.950 . S
C1204 H1200 0.949 . S
C1204 C1212 1.574 . S
C1204 C1220 1.368 . S
H1205 C1213 0.950 . S
H1206 C1211 0.950 . S
H1207 C1212 0.949 . S
H1208 C1214 0.950 . S
H1209 C1215 0.950 . S
H1210 C1216 0.949 . S
C1211 H1206 0.950 . S
C1211 C1213 1.327 . S
C1211 C1217 1.429 . S
C1212 C1204 1.574 . S
C1212 H1207 0.949 . S
C1212 C1218 1.368 . S
C1213 C1197 1.349 . S
C1213 H1205 0.950 . S
C1213 C1211 1.327 . S
C1214 C1202 1.349 . S
C1214 H1208 0.950 . S
C1214 C1215 1.327 . S
C1215 H1209 0.950 . S
C1215 C1214 1.327 . S
C1215 C1219 1.429 . S
C1216 C1199 1.574 . S
C1216 H1210 0.949 . S
C1216 C1220 1.368 . S
C1217 C1198 1.429 . S
C1217 C1211 1.429 . S
C1217 C1218 1.523 . S
C1218 C1199 1.368 . S
C1218 C1212 1.368 . S
C1218 C1217 1.523 . S
C1219 C1203 1.429 . S
C1219 C1215 1.429 . S
C1219 C1220 1.523 . S
C1220 C1204 1.368 . S
C1220 C1216 1.368 . S
C1220 C1219 1.523 . S
H1221 C1196 0.950 . S
H1222 C1198 0.950 . S
H1223 C1199 0.949 . S
H1224 C1201 0.950 . S
H1225 C1203 0.950 . S
C1226 C1227 1.349 . S
C1226 C1228 1.327 . S
C1226 H1251 0.950 . S
C1227 C1226 1.349 . S
C1227 C1243 1.349 . S
C1228 C1226 1.327 . S
C1228 C1247 1.429 . S
C1228 H1252 0.950 . S
C1229 C1246 1.574 . S
C1229 C1248 1.368 . S
C1229 H1253 0.949 . S
H1230 C1234 0.949 . S
C1231 C1232 1.349 . S
C1231 C1233 1.327 . S
C1231 H1254 0.950 . S
C1232 C1231 1.349 . S
C1232 C1244 1.349 . S
C1233 C1231 1.327 . S
C1233 C1249 1.429 . S
C1233 H1255 0.950 . S
C1234 H1230 0.949 . S
C1234 C1242 1.574 . S
C1234 C1250 1.368 . S
H1235 C1243 0.950 . S
H1236 C1241 0.950 . S
H1237 C1242 0.949 . S
H1238 C1244 0.950 . S
H1239 C1245 0.950 . S
H1240 C1246 0.949 . S
C1241 H1236 0.950 . S
C1241 C1243 1.327 . S
C1241 C1247 1.429 . S
C1242 C1234 1.574 . S
C1242 H1237 0.949 . S
C1242 C1248 1.368 . S
C1243 C1227 1.349 . S
C1243 H1235 0.950 . S
C1243 C1241 1.327 . S
C1244 C1232 1.349 . S
C1244 H1238 0.950 . S
C1244 C1245 1.327 . S
C1245 H1239 0.950 . S
C1245 C1244 1.327 . S
C1245 C1249 1.429 . S
C1246 C1229 1.574 . S
C1246 H1240 0.949 . S
C1246 C1250 1.368 . S
C1247 C1228 1.429 . S
C1247 C1241 1.429 . S
C1247 C1248 1.523 . S
C1248 C1229 1.368 . S
C1248 C1242 1.368 . S
C1248 C1247 1.523 . S
C1249 C1233 1.429 . S
C1249 C1245 1.429 . S
C1249 C1250 1.523 . S
C1250 C1234 1.368 . S
C1250 C1246 1.368 . S
C1250 C1249 1.523 . S
H1251 C1226 0.950 . S
H1252 C1228 0.950 . S
H1253 C1229 0.949 . S
H1254 C1231 0.950 . S
H1255 C1233 0.950 . S
C1256 C1257 1.349 . S
C1256 C1258 1.327 . S
C1256 H1281 0.950 . S
C1257 C1256 1.349 . S
C1257 C1273 1.349 . S
C1258 C1256 1.327 . S
C1258 C1277 1.429 . S
C1258 H1282 0.950 . S
C1259 C1276 1.574 . S
C1259 C1278 1.368 . S
C1259 H1283 0.949 . S
H1260 C1264 0.949 . S
C1261 C1262 1.349 . S
C1261 C1263 1.327 . S
C1261 H1284 0.950 . S
C1262 C1261 1.349 . S
C1262 C1274 1.349 . S
C1263 C1261 1.327 . S
C1263 C1279 1.429 . S
C1263 H1285 0.950 . S
C1264 H1260 0.949 . S
C1264 C1272 1.574 . S
C1264 C1280 1.368 . S
H1265 C1273 0.950 . S
H1266 C1271 0.950 . S
H1267 C1272 0.949 . S
H1268 C1274 0.950 . S
H1269 C1275 0.950 . S
H1270 C1276 0.949 . S
C1271 H1266 0.950 . S
C1271 C1273 1.327 . S
C1271 C1277 1.429 . S
C1272 C1264 1.574 . S
C1272 H1267 0.949 . S
C1272 C1278 1.368 . S
C1273 C1257 1.349 . S
C1273 H1265 0.950 . S
C1273 C1271 1.327 . S
C1274 C1262 1.349 . S
C1274 H1268 0.950 . S
C1274 C1275 1.327 . S
C1275 H1269 0.950 . S
C1275 C1274 1.327 . S
C1275 C1279 1.429 . S
C1276 C1259 1.574 . S
C1276 H1270 0.949 . S
C1276 C1280 1.368 . S
C1277 C1258 1.429 . S
C1277 C1271 1.429 . S
C1277 C1278 1.523 . S
C1278 C1259 1.368 . S
C1278 C1272 1.368 . S
C1278 C1277 1.523 . S
C1279 C1263 1.429 . S
C1279 C1275 1.429 . S
C1279 C1280 1.523 . S
C1280 C1264 1.368 . S
C1280 C1276 1.368 . S
C1280 C1279 1.523 . S
H1281 C1256 0.950 . S
H1282 C1258 0.950 . S
H1283 C1259 0.949 . S
H1284 C1261 0.950 . S
H1285 C1263 0.950 . S
C1286 C1287 1.349 . S
C1286 C1288 1.327 . S
C1286 H1311 0.950 . S
C1287 C1286 1.349 . S
C1287 C1303 1.349 . S
C1288 C1286 1.327 . S
C1288 C1307 1.429 . S
C1288 H1312 0.950 . S
C1289 C1306 1.574 . S
C1289 C1308 1.368 . S
C1289 H1313 0.949 . S
H1290 C1294 0.949 . S
C1291 C1292 1.349 . S
C1291 C1293 1.327 . S
C1291 H1314 0.950 . S
C1292 C1291 1.349 . S
C1292 C1304 1.349 . S
C1293 C1291 1.327 . S
C1293 C1309 1.429 . S
C1293 H1315 0.950 . S
C1294 H1290 0.949 . S
C1294 C1302 1.574 . S
C1294 C1310 1.368 . S
H1295 C1303 0.950 . S
H1296 C1301 0.950 . S
H1297 C1302 0.949 . S
H1298 C1304 0.950 . S
H1299 C1305 0.950 . S
H1300 C1306 0.949 . S
C1301 H1296 0.950 . S
C1301 C1303 1.327 . S
C1301 C1307 1.429 . S
C1302 C1294 1.574 . S
C1302 H1297 0.949 . S
C1302 C1308 1.368 . S
C1303 C1287 1.349 . S
C1303 H1295 0.950 . S
C1303 C1301 1.327 . S
C1304 C1292 1.349 . S
C1304 H1298 0.950 . S
C1304 C1305 1.327 . S
C1305 H1299 0.950 . S
C1305 C1304 1.327 . S
C1305 C1309 1.429 . S
C1306 C1289 1.574 . S
C1306 H1300 0.949 . S
C1306 C1310 1.368 . S
C1307 C1288 1.429 . S
C1307 C1301 1.429 . S
C1307 C1308 1.523 . S
C1308 C1289 1.368 . S
C1308 C1302 1.368 . S
C1308 C1307 1.523 . S
C1309 C1293 1.429 . S
C1309 C1305 1.429 . S
C1309 C1310 1.523 . S
C1310 C1294 1.368 . S
C1310 C1306 1.368 . S
C1310 C1309 1.523 . S
H1311 C1286 0.950 . S
H1312 C1288 0.950 . S
H1313 C1289 0.949 . S
H1314 C1291 0.950 . S
H1315 C1293 0.950 . S
C1316 C1317 1.349 . S
C1316 C1318 1.327 . S
C1316 H1341 0.950 . S
C1317 C1316 1.349 . S
C1317 C1333 1.349 . S
C1318 C1316 1.327 . S
C1318 C1337 1.429 . S
C1318 H1342 0.950 . S
C1319 C1336 1.574 . S
C1319 C1338 1.368 . S
C1319 H1343 0.949 . S
H1320 C1324 0.949 . S
C1321 C1322 1.349 . S
C1321 C1323 1.327 . S
C1321 H1344 0.950 . S
C1322 C1321 1.349 . S
C1322 C1334 1.349 . S
C1323 C1321 1.327 . S
C1323 C1339 1.429 . S
C1323 H1345 0.950 . S
C1324 H1320 0.949 . S
C1324 C1332 1.574 . S
C1324 C1340 1.368 . S
H1325 C1333 0.950 . S
H1326 C1331 0.950 . S
H1327 C1332 0.949 . S
H1328 C1334 0.950 . S
H1329 C1335 0.950 . S
H1330 C1336 0.949 . S
C1331 H1326 0.950 . S
C1331 C1333 1.327 . S
C1331 C1337 1.429 . S
C1332 C1324 1.574 . S
C1332 H1327 0.949 . S
C1332 C1338 1.368 . S
C1333 C1317 1.349 . S
C1333 H1325 0.950 . S
C1333 C1331 1.327 . S
C1334 C1322 1.349 . S
C1334 H1328 0.950 . S
C1334 C1335 1.327 . S
C1335 H1329 0.950 . S
C1335 C1334 1.327 . S
C1335 C1339 1.429 . S
C1336 C1319 1.574 . S
C1336 H1330 0.949 . S
C1336 C1340 1.368 . S
C1337 C1318 1.429 . S
C1337 C1331 1.429 . S
C1337 C1338 1.523 . S
C1338 C1319 1.368 . S
C1338 C1332 1.368 . S
C1338 C1337 1.523 . S
C1339 C1323 1.429 . S
C1339 C1335 1.429 . S
C1339 C1340 1.523 . S
C1340 C1324 1.368 . S
C1340 C1336 1.368 . S
C1340 C1339 1.523 . S
H1341 C1316 0.950 . S
H1342 C1318 0.950 . S
H1343 C1319 0.949 . S
H1344 C1321 0.950 . S
H1345 C1323 0.950 . S
C1346 C1347 1.349 . S
C1346 C1348 1.327 . S
C1346 H1371 0.950 . S
C1347 C1346 1.349 . S
C1347 C1363 1.349 . S
C1348 C1346 1.327 . S
C1348 C1367 1.429 . S
C1348 H1372 0.950 . S
C1349 C1366 1.574 . S
C1349 C1368 1.368 . S
C1349 H1373 0.949 . S
H1350 C1354 0.949 . S
C1351 C1352 1.349 . S
C1351 C1353 1.327 . S
C1351 H1374 0.950 . S
C1352 C1351 1.349 . S
C1352 C1364 1.349 . S
C1353 C1351 1.327 . S
C1353 C1369 1.429 . S
C1353 H1375 0.950 . S
C1354 H1350 0.949 . S
C1354 C1362 1.574 . S
C1354 C1370 1.368 . S
H1355 C1363 0.950 . S
H1356 C1361 0.950 . S
H1357 C1362 0.949 . S
H1358 C1364 0.950 . S
H1359 C1365 0.950 . S
H1360 C1366 0.949 . S
C1361 H1356 0.950 . S
C1361 C1363 1.327 . S
C1361 C1367 1.429 . S
C1362 C1354 1.574 . S
C1362 H1357 0.949 . S
C1362 C1368 1.368 . S
C1363 C1347 1.349 . S
C1363 H1355 0.950 . S
C1363 C1361 1.327 . S
C1364 C1352 1.349 . S
C1364 H1358 0.950 . S
C1364 C1365 1.327 . S
C1365 H1359 0.950 . S
C1365 C1364 1.327 . S
C1365 C1369 1.429 . S
C1366 C1349 1.574 . S
C1366 H1360 0.949 . S
C1366 C1370 1.368 . S
C1367 C1348 1.429 . S
C1367 C1361 1.429 . S
C1367 C1368 1.523 . S
C1368 C1349 1.368 . S
C1368 C1362 1.368 . S
C1368 C1367 1.523 . S
C1369 C1353 1.429 . S
C1369 C1365 1.429 . S
C1369 C1370 1.523 . S
C1370 C1354 1.368 . S
C1370 C1366 1.368 . S
C1370 C1369 1.523 . S
H1371 C1346 0.950 . S
H1372 C1348 0.950 . S
H1373 C1349 0.949 . S
H1374 C1351 0.950 . S
H1375 C1353 0.950 . S
C1376 C1377 1.349 . S
C1376 C1378 1.327 . S
C1376 H1401 0.950 . S
C1377 C1376 1.349 . S
C1377 C1393 1.349 . S
C1378 C1376 1.327 . S
C1378 C1397 1.429 . S
C1378 H1402 0.950 . S
C1379 C1396 1.574 . S
C1379 C1398 1.368 . S
C1379 H1403 0.949 1_455 S
H1380 C1384 0.949 . S
C1381 C1382 1.349 1_655 S
C1381 C1383 1.328 . S
C1381 H1404 0.950 . S
C1382 C1381 1.349 1_455 S
C1382 C1394 1.349 . S
C1383 C1381 1.328 . S
C1383 C1399 1.424 1_655 S
C1383 H1405 0.953 . S
C1384 H1380 0.949 . S
C1384 C1392 1.574 . S
C1384 C1400 1.368 . S
H1385 C1393 0.950 . S
H1386 C1391 0.950 1_655 S
H1387 C1392 0.949 . S
H1388 C1394 0.950 . S
H1389 C1395 0.950 . S
H1390 C1396 0.949 1_655 S
C1391 H1386 0.950 1_455 S
C1391 C1393 1.327 . S
C1391 C1397 1.429 . S
C1392 C1384 1.574 . S
C1392 H1387 0.949 . S
C1392 C1398 1.368 . S
C1393 C1377 1.349 . S
C1393 H1385 0.950 . S
C1393 C1391 1.327 . S
C1394 C1382 1.349 . S
C1394 H1388 0.950 . S
C1394 C1395 1.327 . S
C1395 H1389 0.950 . S
C1395 C1394 1.327 . S
C1395 C1399 1.429 . S
C1396 C1379 1.574 . S
C1396 H1390 0.949 1_455 S
C1396 C1400 1.368 . S
C1397 C1378 1.429 . S
C1397 C1391 1.429 . S
C1397 C1398 1.523 . S
C1398 C1379 1.368 . S
C1398 C1392 1.368 . S
C1398 C1397 1.523 . S
C1399 C1383 1.424 1_455 S
C1399 C1395 1.429 . S
C1399 C1400 1.523 . S
C1400 C1384 1.368 . S
C1400 C1396 1.368 . S
C1400 C1399 1.523 . S
H1401 C1376 0.950 . S
H1402 C1378 0.950 . S
H1403 C1379 0.949 1_655 S
H1404 C1381 0.950 . S
H1405 C1383 0.953 . S
C1406 C1407 1.349 . S
C1406 C1408 1.327 . S
C1406 H1431 0.950 . S
C1407 C1406 1.349 . S
C1407 C1423 1.349 . S
C1408 C1406 1.327 . S
C1408 C1427 1.429 . S
C1408 H1432 0.950 . S
C1409 C1426 1.574 . S
C1409 C1428 1.368 . S
C1409 H1433 0.949 . S
H1410 C1414 0.949 . S
C1411 C1412 1.349 . S
C1411 C1413 1.327 . S
C1411 H1434 0.950 . S
C1412 C1411 1.349 . S
C1412 C1424 1.349 . S
C1413 C1411 1.327 . S
C1413 C1429 1.429 . S
C1413 H1435 0.950 . S
C1414 H1410 0.949 . S
C1414 C1422 1.574 . S
C1414 C1430 1.368 . S
H1415 C1423 0.950 . S
H1416 C1421 0.950 . S
H1417 C1422 0.949 . S
H1418 C1424 0.950 . S
H1419 C1425 0.950 . S
H1420 C1426 0.949 . S
C1421 H1416 0.950 . S
C1421 C1423 1.327 . S
C1421 C1427 1.429 . S
C1422 C1414 1.574 . S
C1422 H1417 0.949 . S
C1422 C1428 1.368 . S
C1423 C1407 1.349 . S
C1423 H1415 0.950 . S
C1423 C1421 1.327 . S
C1424 C1412 1.349 . S
C1424 H1418 0.950 . S
C1424 C1425 1.327 . S
C1425 H1419 0.950 . S
C1425 C1424 1.327 . S
C1425 C1429 1.429 . S
C1426 C1409 1.574 . S
C1426 H1420 0.949 . S
C1426 C1430 1.368 . S
C1427 C1408 1.429 . S
C1427 C1421 1.429 . S
C1427 C1428 1.523 . S
C1428 C1409 1.368 . S
C1428 C1422 1.368 . S
C1428 C1427 1.523 . S
C1429 C1413 1.429 . S
C1429 C1425 1.429 . S
C1429 C1430 1.523 . S
C1430 C1414 1.368 . S
C1430 C1426 1.368 . S
C1430 C1429 1.523 . S
H1431 C1406 0.950 . S
H1432 C1408 0.950 . S
H1433 C1409 0.949 . S
H1434 C1411 0.950 . S
H1435 C1413 0.950 . S
C1436 C1437 1.349 . S
C1436 C1438 1.327 . S
C1436 H1461 0.950 . S
C1437 C1436 1.349 . S
C1437 C1453 1.349 . S
C1438 C1436 1.327 . S
C1438 C1457 1.429 . S
C1438 H1462 0.950 . S
C1439 C1456 1.574 . S
C1439 C1458 1.368 . S
C1439 H1463 0.949 . S
H1440 C1444 0.949 . S
C1441 C1442 1.349 . S
C1441 C1443 1.327 . S
C1441 H1464 0.950 . S
C1442 C1441 1.349 . S
C1442 C1454 1.349 . S
C1443 C1441 1.327 . S
C1443 C1459 1.429 . S
C1443 H1465 0.950 . S
C1444 H1440 0.949 . S
C1444 C1452 1.574 . S
C1444 C1460 1.368 . S
H1445 C1453 0.950 . S
H1446 C1451 0.950 . S
H1447 C1452 0.949 . S
H1448 C1454 0.950 . S
H1449 C1455 0.950 . S
H1450 C1456 0.949 . S
C1451 H1446 0.950 . S
C1451 C1453 1.327 . S
C1451 C1457 1.429 . S
C1452 C1444 1.574 . S
C1452 H1447 0.949 . S
C1452 C1458 1.368 . S
C1453 C1437 1.349 . S
C1453 H1445 0.950 . S
C1453 C1451 1.327 . S
C1454 C1442 1.349 . S
C1454 H1448 0.950 . S
C1454 C1455 1.327 . S
C1455 H1449 0.950 . S
C1455 C1454 1.327 . S
C1455 C1459 1.429 . S
C1456 C1439 1.574 . S
C1456 H1450 0.949 . S
C1456 C1460 1.368 . S
C1457 C1438 1.429 . S
C1457 C1451 1.429 . S
C1457 C1458 1.523 . S
C1458 C1439 1.368 . S
C1458 C1452 1.368 . S
C1458 C1457 1.523 . S
C1459 C1443 1.429 . S
C1459 C1455 1.429 . S
C1459 C1460 1.523 . S
C1460 C1444 1.368 . S
C1460 C1456 1.368 . S
C1460 C1459 1.523 . S
H1461 C1436 0.950 . S
H1462 C1438 0.950 . S
H1463 C1439 0.949 . S
H1464 C1441 0.950 . S
H1465 C1443 0.950 . S
C1466 C1467 1.349 . S
C1466 C1468 1.327 . S
C1466 H1491 0.950 . S
C1467 C1466 1.349 . S
C1467 C1483 1.349 . S
C1468 C1466 1.327 . S
C1468 C1487 1.429 . S
C1468 H1492 0.950 . S
C1469 C1486 1.574 . S
C1469 C1488 1.368 . S
C1469 H1493 0.949 . S
H1470 C1474 0.949 . S
C1471 C1472 1.349 . S
C1471 C1473 1.327 . S
C1471 H1494 0.950 . S
C1472 C1471 1.349 . S
C1472 C1484 1.349 . S
C1473 C1471 1.327 . S
C1473 C1489 1.429 . S
C1473 H1495 0.950 . S
C1474 H1470 0.949 . S
C1474 C1482 1.574 . S
C1474 C1490 1.368 . S
H1475 C1483 0.950 . S
H1476 C1481 0.950 . S
H1477 C1482 0.949 . S
H1478 C1484 0.950 . S
H1479 C1485 0.950 . S
H1480 C1486 0.949 . S
C1481 H1476 0.950 . S
C1481 C1483 1.327 . S
C1481 C1487 1.429 . S
C1482 C1474 1.574 . S
C1482 H1477 0.949 . S
C1482 C1488 1.368 . S
C1483 C1467 1.349 . S
C1483 H1475 0.950 . S
C1483 C1481 1.327 . S
C1484 C1472 1.349 . S
C1484 H1478 0.950 . S
C1484 C1485 1.327 . S
C1485 H1479 0.950 . S
C1485 C1484 1.327 . S
C1485 C1489 1.429 . S
C1486 C1469 1.574 . S
C1486 H1480 0.949 . S
C1486 C1490 1.368 . S
C1487 C1468 1.429 . S
C1487 C1481 1.429 . S
C1487 C1488 1.523 . S
C1488 C1469 1.368 . S
C1488 C1482 1.368 . S
C1488 C1487 1.523 . S
C1489 C1473 1.429 . S
C1489 C1485 1.429 . S
C1489 C1490 1.523 . S
C1490 C1474 1.368 . S
C1490 C1486 1.368 . S
C1490 C1489 1.523 . S
H1491 C1466 0.950 . S
H1492 C1468 0.950 . S
H1493 C1469 0.949 . S
H1494 C1471 0.950 . S
H1495 C1473 0.950 . S
C1496 C1497 1.376 . S
C1496 C1498 1.336 1_455 S
C1496 H1521 0.922 1_455 S
C1497 C1496 1.376 . S
C1497 C1513 1.349 . S
C1498 C1496 1.336 1_655 S
C1498 C1517 1.396 1_655 S
C1498 H1522 0.983 . S
C1499 C1516 1.574 . S
C1499 C1518 1.368 . S
C1499 H1523 0.949 . S
H1500 C1504 0.949 . S
C1501 C1502 1.349 1_455 S
C1501 C1503 1.327 . S
C1501 H1524 0.950 . S
C1502 C1501 1.349 1_655 S
C1502 C1514 1.349 . S
C1503 C1501 1.327 . S
C1503 C1519 1.447 . S
C1503 H1525 0.950 . S
C1504 H1500 0.949 . S
C1504 C1512 1.574 . S
C1504 C1520 1.368 1_655 S
H1505 C1513 0.950 . S
H1506 C1511 0.950 . S
H1507 C1512 0.949 . S
H1508 C1514 0.950 . S
H1509 C1515 0.950 . S
H1510 C1516 0.949 . S
C1511 H1506 0.950 . S
C1511 C1513 1.327 . S
C1511 C1517 1.429 . S
C1512 C1504 1.574 . S
C1512 H1507 0.949 . S
C1512 C1518 1.368 1_655 S
C1513 C1497 1.349 . S
C1513 H1505 0.950 . S
C1513 C1511 1.327 . S
C1514 C1502 1.349 . S
C1514 H1508 0.950 . S
C1514 C1515 1.327 . S
C1515 H1509 0.950 . S
C1515 C1514 1.327 . S
C1515 C1519 1.413 1_655 S
C1516 C1499 1.574 . S
C1516 H1510 0.949 . S
C1516 C1520 1.368 . S
C1517 C1498 1.396 1_455 S
C1517 C1511 1.429 . S
C1517 C1518 1.523 . S
C1518 C1499 1.368 . S
C1518 C1512 1.368 1_455 S
C1518 C1517 1.523 . S
C1519 C1503 1.447 . S
C1519 C1515 1.413 1_455 S
C1519 C1520 1.521 . S
C1520 C1504 1.368 1_455 S
C1520 C1516 1.368 . S
C1520 C1519 1.521 . S
H1521 C1496 0.922 1_655 S
H1522 C1498 0.983 . S
H1523 C1499 0.949 . S
H1524 C1501 0.950 . S
H1525 C1503 0.950 . S
C1526 C1527 1.349 . S
C1526 C1528 1.327 . S
C1526 H1551 0.950 . S
C1527 C1526 1.349 . S
C1527 C1543 1.349 . S
C1528 C1526 1.327 . S
C1528 C1547 1.429 . S
C1528 H1552 0.950 . S
C1529 C1546 1.574 . S
C1529 C1548 1.368 . S
C1529 H1553 0.949 . S
H1530 C1534 0.949 . S
C1531 C1532 1.349 . S
C1531 C1533 1.327 . S
C1531 H1554 0.950 . S
C1532 C1531 1.349 . S
C1532 C1544 1.349 . S
C1533 C1531 1.327 . S
C1533 C1549 1.429 . S
C1533 H1555 0.950 . S
C1534 H1530 0.949 . S
C1534 C1542 1.574 . S
C1534 C1550 1.368 . S
H1535 C1543 0.950 . S
H1536 C1541 0.950 . S
H1537 C1542 0.949 . S
H1538 C1544 0.950 . S
H1539 C1545 0.950 . S
H1540 C1546 0.949 . S
C1541 H1536 0.950 . S
C1541 C1543 1.327 . S
C1541 C1547 1.429 . S
C1542 C1534 1.574 . S
C1542 H1537 0.949 . S
C1542 C1548 1.368 . S
C1543 C1527 1.349 . S
C1543 H1535 0.950 . S
C1543 C1541 1.327 . S
C1544 C1532 1.349 . S
C1544 H1538 0.950 . S
C1544 C1545 1.327 . S
C1545 H1539 0.950 . S
C1545 C1544 1.327 . S
C1545 C1549 1.429 . S
C1546 C1529 1.574 . S
C1546 H1540 0.949 . S
C1546 C1550 1.368 . S
C1547 C1528 1.429 . S
C1547 C1541 1.429 . S
C1547 C1548 1.523 . S
C1548 C1529 1.368 . S
C1548 C1542 1.368 . S
C1548 C1547 1.523 . S
C1549 C1533 1.429 . S
C1549 C1545 1.429 . S
C1549 C1550 1.523 . S
C1550 C1534 1.368 . S
C1550 C1546 1.368 . S
C1550 C1549 1.523 . S
H1551 C1526 0.950 . S
H1552 C1528 0.950 . S
H1553 C1529 0.949 . S
H1554 C1531 0.950 . S
H1555 C1533 0.950 . S
C1556 C1557 1.349 . S
C1556 C1558 1.327 . S
C1556 H1581 0.950 . S
C1557 C1556 1.349 . S
C1557 C1573 1.349 . S
C1558 C1556 1.327 . S
C1558 C1577 1.429 . S
C1558 H1582 0.950 . S
C1559 C1576 1.574 . S
C1559 C1578 1.368 . S
C1559 H1583 0.949 . S
H1560 C1564 0.949 . S
C1561 C1562 1.349 . S
C1561 C1563 1.327 . S
C1561 H1584 0.950 1_556 S
C1562 C1561 1.349 . S
C1562 C1574 1.349 . S
C1563 C1561 1.327 . S
C1563 C1579 1.429 . S
C1563 H1585 0.950 . S
C1564 H1560 0.949 . S
C1564 C1572 1.574 . S
C1564 C1580 1.368 . S
H1565 C1573 0.950 . S
H1566 C1571 0.950 . S
H1567 C1572 0.949 . S
H1568 C1574 0.950 . S
H1569 C1575 0.950 . S
H1570 C1576 0.949 . S
C1571 H1566 0.950 . S
C1571 C1573 1.327 . S
C1571 C1577 1.429 . S
C1572 C1564 1.574 . S
C1572 H1567 0.949 . S
C1572 C1578 1.368 . S
C1573 C1557 1.349 . S
C1573 H1565 0.950 . S
C1573 C1571 1.327 . S
C1574 C1562 1.349 . S
C1574 H1568 0.950 . S
C1574 C1575 1.327 . S
C1575 H1569 0.950 . S
C1575 C1574 1.327 . S
C1575 C1579 1.429 . S
C1576 C1559 1.574 . S
C1576 H1570 0.949 . S
C1576 C1580 1.368 . S
C1577 C1558 1.429 . S
C1577 C1571 1.429 . S
C1577 C1578 1.523 . S
C1578 C1559 1.368 . S
C1578 C1572 1.368 . S
C1578 C1577 1.523 . S
C1579 C1563 1.429 . S
C1579 C1575 1.429 . S
C1579 C1580 1.523 . S
C1580 C1564 1.368 . S
C1580 C1576 1.368 . S
C1580 C1579 1.523 . S
H1581 C1556 0.950 . S
H1582 C1558 0.950 . S
H1583 C1559 0.949 . S
H1584 C1561 0.950 1_554 S
H1585 C1563 0.950 . S
C1586 C1587 1.349 . S
C1586 C1588 1.327 . S
C1586 H1611 0.950 . S
C1587 C1586 1.349 . S
C1587 C1603 1.349 . S
C1588 C1586 1.327 . S
C1588 C1607 1.429 . S
C1588 H1612 0.950 . S
C1589 C1606 1.574 . S
C1589 C1608 1.368 . S
C1589 H1613 0.949 . S
H1590 C1594 0.949 . S
C1591 C1592 1.349 . S
C1591 C1593 1.327 . S
C1591 H1614 0.950 . S
C1592 C1591 1.349 . S
C1592 C1604 1.349 . S
C1593 C1591 1.327 . S
C1593 C1609 1.429 . S
C1593 H1615 0.950 . S
C1594 H1590 0.949 . S
C1594 C1602 1.574 . S
C1594 C1610 1.368 . S
H1595 C1603 0.950 . S
H1596 C1601 0.950 . S
H1597 C1602 0.949 . S
H1598 C1604 0.950 . S
H1599 C1605 0.950 . S
H1600 C1606 0.949 . S
C1601 H1596 0.950 . S
C1601 C1603 1.327 . S
C1601 C1607 1.429 . S
C1602 C1594 1.574 . S
C1602 H1597 0.949 . S
C1602 C1608 1.368 . S
C1603 C1587 1.349 . S
C1603 H1595 0.950 . S
C1603 C1601 1.327 . S
C1604 C1592 1.349 . S
C1604 H1598 0.950 . S
C1604 C1605 1.327 . S
C1605 H1599 0.950 . S
C1605 C1604 1.327 . S
C1605 C1609 1.429 . S
C1606 C1589 1.574 . S
C1606 H1600 0.949 . S
C1606 C1610 1.368 . S
C1607 C1588 1.429 . S
C1607 C1601 1.429 . S
C1607 C1608 1.523 . S
C1608 C1589 1.368 . S
C1608 C1602 1.368 . S
C1608 C1607 1.523 . S
C1609 C1593 1.429 . S
C1609 C1605 1.429 . S
C1609 C1610 1.523 . S
C1610 C1594 1.368 . S
C1610 C1606 1.368 . S
C1610 C1609 1.523 . S
H1611 C1586 0.950 . S
H1612 C1588 0.950 . S
H1613 C1589 0.949 . S
H1614 C1591 0.950 . S
H1615 C1593 0.950 . S
C1616 C1617 1.349 . S
C1616 C1618 1.327 . S
C1616 H1641 0.950 . S
C1617 C1616 1.349 . S
C1617 C1633 1.349 1_545 S
C1618 C1616 1.327 . S
C1618 C1637 1.429 . S
C1618 H1642 0.950 . S
C1619 C1636 1.574 . S
C1619 C1638 1.368 1_565 S
C1619 H1643 0.949 . S
H1620 C1624 0.949 . S
C1621 C1622 1.349 1_565 S
C1621 C1623 1.327 . S
C1621 H1644 0.950 . S
C1622 C1621 1.349 1_545 S
C1622 C1634 1.349 . S
C1623 C1621 1.327 . S
C1623 C1639 1.429 1_565 S
C1623 H1645 0.950 . S
C1624 H1620 0.949 . S
C1624 C1632 1.574 . S
C1624 C1640 1.368 . S
H1625 C1633 0.950 . S
H1626 C1631 0.950 . S
H1627 C1632 0.949 . S
H1628 C1634 0.950 . S
H1629 C1635 0.950 . S
H1630 C1636 0.949 . S
C1631 H1626 0.950 . S
C1631 C1633 1.327 . S
C1631 C1637 1.429 1_565 S
C1632 C1624 1.574 . S
C1632 H1627 0.949 . S
C1632 C1638 1.368 . S
C1633 C1617 1.349 1_565 S
C1633 H1625 0.950 . S
C1633 C1631 1.327 . S
C1634 C1622 1.349 . S
C1634 H1628 0.950 . S
C1634 C1635 1.327 . S
C1635 H1629 0.950 . S
C1635 C1634 1.327 . S
C1635 C1639 1.429 . S
C1636 C1619 1.574 . S
C1636 H1630 0.949 . S
C1636 C1640 1.368 1_565 S
C1637 C1618 1.429 . S
C1637 C1631 1.429 1_545 S
C1637 C1638 1.523 . S
C1638 C1619 1.368 1_545 S
C1638 C1632 1.368 . S
C1638 C1637 1.523 . S
C1639 C1623 1.429 1_545 S
C1639 C1635 1.429 . S
C1639 C1640 1.523 . S
C1640 C1624 1.368 . S
C1640 C1636 1.368 1_545 S
C1640 C1639 1.523 . S
H1641 C1616 0.950 . S
H1642 C1618 0.950 . S
H1643 C1619 0.949 . S
H1644 C1621 0.950 . S
H1645 C1623 0.950 . S
C1646 C1647 1.349 . S
C1646 C1648 1.327 . S
C1646 H1671 0.950 . S
C1647 C1646 1.349 . S
C1647 C1663 1.349 . S
C1648 C1646 1.327 . S
C1648 C1667 1.429 . S
C1648 H1672 0.950 . S
C1649 C1666 1.574 . S
C1649 C1668 1.368 . S
C1649 H1673 0.949 . S
H1650 C1654 0.949 . S
C1651 C1652 1.349 . S
C1651 C1653 1.327 . S
C1651 H1674 0.950 . S
C1652 C1651 1.349 . S
C1652 C1664 1.349 . S
C1653 C1651 1.327 . S
C1653 C1669 1.429 . S
C1653 H1675 0.950 . S
C1654 H1650 0.949 . S
C1654 C1662 1.574 . S
C1654 C1670 1.368 . S
H1655 C1663 0.950 . S
H1656 C1661 0.950 . S
H1657 C1662 0.949 . S
H1658 C1664 0.950 . S
H1659 C1665 0.950 . S
H1660 C1666 0.949 . S
C1661 H1656 0.950 . S
C1661 C1663 1.327 . S
C1661 C1667 1.429 . S
C1662 C1654 1.574 . S
C1662 H1657 0.949 . S
C1662 C1668 1.368 . S
C1663 C1647 1.349 . S
C1663 H1655 0.950 . S
C1663 C1661 1.327 . S
C1664 C1652 1.349 . S
C1664 H1658 0.950 . S
C1664 C1665 1.327 . S
C1665 H1659 0.950 . S
C1665 C1664 1.327 . S
C1665 C1669 1.429 . S
C1666 C1649 1.574 . S
C1666 H1660 0.949 . S
C1666 C1670 1.368 . S
C1667 C1648 1.429 . S
C1667 C1661 1.429 . S
C1667 C1668 1.523 . S
C1668 C1649 1.368 . S
C1668 C1662 1.368 . S
C1668 C1667 1.523 . S
C1669 C1653 1.429 . S
C1669 C1665 1.429 . S
C1669 C1670 1.523 . S
C1670 C1654 1.368 . S
C1670 C1666 1.368 . S
C1670 C1669 1.523 . S
H1671 C1646 0.950 . S
H1672 C1648 0.950 . S
H1673 C1649 0.949 . S
H1674 C1651 0.950 . S
H1675 C1653 0.950 . S
C1676 C1677 1.349 . S
C1676 C1678 1.327 . S
C1676 H1701 0.950 . S
C1677 C1676 1.349 . S
C1677 C1693 1.349 . S
C1678 C1676 1.327 . S
C1678 C1697 1.429 . S
C1678 H1702 0.950 . S
C1679 C1696 1.574 . S
C1679 C1698 1.368 . S
C1679 H1703 0.949 . S
H1680 C1684 0.949 . S
C1681 C1682 1.349 . S
C1681 C1683 1.327 . S
C1681 H1704 0.950 . S
C1682 C1681 1.349 . S
C1682 C1694 1.349 . S
C1683 C1681 1.327 . S
C1683 C1699 1.429 . S
C1683 H1705 0.950 . S
C1684 H1680 0.949 . S
C1684 C1692 1.574 . S
C1684 C1700 1.368 . S
H1685 C1693 0.950 . S
H1686 C1691 0.950 . S
H1687 C1692 0.949 . S
H1688 C1694 0.950 . S
H1689 C1695 0.950 . S
H1690 C1696 0.949 . S
C1691 H1686 0.950 . S
C1691 C1693 1.327 . S
C1691 C1697 1.429 . S
C1692 C1684 1.574 . S
C1692 H1687 0.949 . S
C1692 C1698 1.368 . S
C1693 C1677 1.349 . S
C1693 H1685 0.950 . S
C1693 C1691 1.327 . S
C1694 C1682 1.349 . S
C1694 H1688 0.950 . S
C1694 C1695 1.327 . S
C1695 H1689 0.950 . S
C1695 C1694 1.327 . S
C1695 C1699 1.429 . S
C1696 C1679 1.574 . S
C1696 H1690 0.949 . S
C1696 C1700 1.368 . S
C1697 C1678 1.429 . S
C1697 C1691 1.429 . S
C1697 C1698 1.523 . S
C1698 C1679 1.368 . S
C1698 C1692 1.368 . S
C1698 C1697 1.523 . S
C1699 C1683 1.429 . S
C1699 C1695 1.429 . S
C1699 C1700 1.523 . S
C1700 C1684 1.368 . S
C1700 C1696 1.368 . S
C1700 C1699 1.523 . S
H1701 C1676 0.950 . S
H1702 C1678 0.950 . S
H1703 C1679 0.949 . S
H1704 C1681 0.950 . S
H1705 C1683 0.950 . S
C1706 C1707 1.349 . S
C1706 C1708 1.327 . S
C1706 H1731 0.950 . S
C1707 C1706 1.349 . S
C1707 C1723 1.349 . S
C1708 C1706 1.327 . S
C1708 C1727 1.429 . S
C1708 H1732 0.950 . S
C1709 C1726 1.574 . S
C1709 C1728 1.368 . S
C1709 H1733 0.949 . S
H1710 C1714 0.949 . S
C1711 C1712 1.349 . S
C1711 C1713 1.327 . S
C1711 H1734 0.950 . S
C1712 C1711 1.349 . S
C1712 C1724 1.349 . S
C1713 C1711 1.327 . S
C1713 C1729 1.429 . S
C1713 H1735 0.950 . S
C1714 H1710 0.949 . S
C1714 C1722 1.574 . S
C1714 C1730 1.368 . S
H1715 C1723 0.950 . S
H1716 C1721 0.950 . S
H1717 C1722 0.949 . S
H1718 C1724 0.950 . S
H1719 C1725 0.950 . S
H1720 C1726 0.949 . S
C1721 H1716 0.950 . S
C1721 C1723 1.327 . S
C1721 C1727 1.429 . S
C1722 C1714 1.574 . S
C1722 H1717 0.949 . S
C1722 C1728 1.368 . S
C1723 C1707 1.349 . S
C1723 H1715 0.950 . S
C1723 C1721 1.327 . S
C1724 C1712 1.349 . S
C1724 H1718 0.950 . S
C1724 C1725 1.327 . S
C1725 H1719 0.950 . S
C1725 C1724 1.327 . S
C1725 C1729 1.429 . S
C1726 C1709 1.574 . S
C1726 H1720 0.949 . S
C1726 C1730 1.368 . S
C1727 C1708 1.429 . S
C1727 C1721 1.429 . S
C1727 C1728 1.523 . S
C1728 C1709 1.368 . S
C1728 C1722 1.368 . S
C1728 C1727 1.523 . S
C1729 C1713 1.429 . S
C1729 C1725 1.429 . S
C1729 C1730 1.523 . S
C1730 C1714 1.368 . S
C1730 C1726 1.368 . S
C1730 C1729 1.523 . S
H1731 C1706 0.950 . S
H1732 C1708 0.950 . S
H1733 C1709 0.949 . S
H1734 C1711 0.950 . S
H1735 C1713 0.950 . S
C1736 C1737 1.349 . S
C1736 C1738 1.327 . S
C1736 H1761 0.950 . S
C1737 C1736 1.349 . S
C1737 C1753 1.349 1_565 S
C1738 C1736 1.327 . S
C1738 C1757 1.429 1_565 S
C1738 H1762 0.950 . S
C1739 C1756 1.574 . S
C1739 C1758 1.368 . S
C1739 H1763 0.949 . S
H1740 C1744 0.949 . S
C1741 C1742 1.349 . S
C1741 C1743 1.327 . S
C1741 H1764 0.950 . S
C1742 C1741 1.349 . S
C1742 C1754 1.349 . S
C1743 C1741 1.327 . S
C1743 C1759 1.429 . S
C1743 H1765 0.950 . S
C1744 H1740 0.949 . S
C1744 C1752 1.574 . S
C1744 C1760 1.368 1_565 S
H1745 C1753 0.950 . S
H1746 C1751 0.950 . S
H1747 C1752 0.949 . S
H1748 C1754 0.959 . S
H1749 C1755 0.950 1_565 S
H1750 C1756 0.949 . S
C1751 H1746 0.950 . S
C1751 C1753 1.327 . S
C1751 C1757 1.429 . S
C1752 C1744 1.574 . S
C1752 H1747 0.949 . S
C1752 C1758 1.368 1_565 S
C1753 C1737 1.349 1_545 S
C1753 H1745 0.950 . S
C1753 C1751 1.327 . S
C1754 C1742 1.349 . S
C1754 H1748 0.959 . S
C1754 C1755 1.327 . S
C1755 H1749 0.950 1_545 S
C1755 C1754 1.327 . S
C1755 C1759 1.429 . S
C1756 C1739 1.574 . S
C1756 H1750 0.949 . S
C1756 C1760 1.368 . S
C1757 C1738 1.429 1_545 S
C1757 C1751 1.429 . S
C1757 C1758 1.523 . S
C1758 C1739 1.368 . S
C1758 C1752 1.368 1_545 S
C1758 C1757 1.523 . S
C1759 C1743 1.429 . S
C1759 C1755 1.429 . S
C1759 C1760 1.523 . S
C1760 C1744 1.368 1_545 S
C1760 C1756 1.368 . S
C1760 C1759 1.523 . S
H1761 C1736 0.950 . S
H1762 C1738 0.950 . S
H1763 C1739 0.949 . S
H1764 C1741 0.950 . S
H1765 C1743 0.950 . S
C1766 C1767 1.349 . S
C1766 C1768 1.327 . S
C1766 H1791 0.950 . S
C1767 C1766 1.349 . S
C1767 C1783 1.349 . S
C1768 C1766 1.327 . S
C1768 C1787 1.429 . S
C1768 H1792 0.950 . S
C1769 C1786 1.574 . S
C1769 C1788 1.368 . S
C1769 H1793 0.949 . S
H1770 C1774 0.949 . S
C1771 C1772 1.349 . S
C1771 C1773 1.327 . S
C1771 H1794 0.950 . S
C1772 C1771 1.349 . S
C1772 C1784 1.349 . S
C1773 C1771 1.327 . S
C1773 C1789 1.429 . S
C1773 H1795 0.950 . S
C1774 H1770 0.949 . S
C1774 C1782 1.574 . S
C1774 C1790 1.368 . S
H1775 C1783 0.950 . S
H1776 C1781 0.950 . S
H1777 C1782 0.949 . S
H1778 C1784 0.950 . S
H1779 C1785 0.950 . S
H1780 C1786 0.949 . S
C1781 H1776 0.950 . S
C1781 C1783 1.327 . S
C1781 C1787 1.429 . S
C1782 C1774 1.574 . S
C1782 H1777 0.949 . S
C1782 C1788 1.368 . S
C1783 C1767 1.349 . S
C1783 H1775 0.950 . S
C1783 C1781 1.327 . S
C1784 C1772 1.349 . S
C1784 H1778 0.950 . S
C1784 C1785 1.327 . S
C1785 H1779 0.950 . S
C1785 C1784 1.327 . S
C1785 C1789 1.429 . S
C1786 C1769 1.574 . S
C1786 H1780 0.949 . S
C1786 C1790 1.368 . S
C1787 C1768 1.429 . S
C1787 C1781 1.429 . S
C1787 C1788 1.523 . S
C1788 C1769 1.368 . S
C1788 C1782 1.368 . S
C1788 C1787 1.523 . S
C1789 C1773 1.429 . S
C1789 C1785 1.429 . S
C1789 C1790 1.523 . S
C1790 C1774 1.368 . S
C1790 C1786 1.368 . S
C1790 C1789 1.523 . S
H1791 C1766 0.950 . S
H1792 C1768 0.950 . S
H1793 C1769 0.949 . S
H1794 C1771 0.950 . S
H1795 C1773 0.950 . S
C1796 C1797 1.349 . S
C1796 C1798 1.327 . S
C1796 H1821 0.950 1_545 S
C1797 C1796 1.349 . S
C1797 C1813 1.349 . S
C1798 C1796 1.327 . S
C1798 C1817 1.429 . S
C1798 H1822 0.950 1_545 S
C1799 C1816 1.574 . S
C1799 C1818 1.368 . S
C1799 H1823 0.949 . S
H1800 C1804 0.949 . S
C1801 C1802 1.349 . S
C1801 C1803 1.327 . S
C1801 H1824 0.950 . S
C1802 C1801 1.349 . S
C1802 C1814 1.349 1_545 S
C1803 C1801 1.327 . S
C1803 C1819 1.429 . S
C1803 H1825 0.950 . S
C1804 H1800 0.949 . S
C1804 C1812 1.574 . S
C1804 C1820 1.368 1_565 S
H1805 C1813 0.950 . S
H1806 C1811 0.950 . S
H1807 C1812 0.949 . S
H1808 C1814 0.950 . S
H1809 C1815 0.950 . S
H1810 C1816 0.949 . S
C1811 H1806 0.950 . S
C1811 C1813 1.327 . S
C1811 C1817 1.429 . S
C1812 C1804 1.574 . S
C1812 H1807 0.949 . S
C1812 C1818 1.368 1_565 S
C1813 C1797 1.349 . S
C1813 H1805 0.950 . S
C1813 C1811 1.327 . S
C1814 C1802 1.349 1_565 S
C1814 H1808 0.950 . S
C1814 C1815 1.327 . S
C1815 H1809 0.950 . S
C1815 C1814 1.327 . S
C1815 C1819 1.429 1_565 S
C1816 C1799 1.574 . S
C1816 H1810 0.949 . S
C1816 C1820 1.368 . S
C1817 C1798 1.429 . S
C1817 C1811 1.429 . S
C1817 C1818 1.523 . S
C1818 C1799 1.368 . S
C1818 C1812 1.368 1_545 S
C1818 C1817 1.523 . S
C1819 C1803 1.429 . S
C1819 C1815 1.429 1_545 S
C1819 C1820 1.523 . S
C1820 C1804 1.368 1_545 S
C1820 C1816 1.368 . S
C1820 C1819 1.523 . S
H1821 C1796 0.950 1_565 S
H1822 C1798 0.950 1_565 S
H1823 C1799 0.949 . S
H1824 C1801 0.950 . S
H1825 C1803 0.950 . S
C1826 C1827 1.349 . S
C1826 C1828 1.327 . S
C1826 H1851 0.950 . S
C1827 C1826 1.349 . S
C1827 C1843 1.349 . S
C1828 C1826 1.327 . S
C1828 C1847 1.429 . S
C1828 H1852 0.950 . S
C1829 C1846 1.574 . S
C1829 C1848 1.368 . S
C1829 H1853 0.949 . S
H1830 C1834 0.949 . S
C1831 C1832 1.349 . S
C1831 C1833 1.327 . S
C1831 H1854 0.950 . S
C1832 C1831 1.349 . S
C1832 C1844 1.349 . S
C1833 C1831 1.327 . S
C1833 C1849 1.429 . S
C1833 H1855 0.950 . S
C1834 H1830 0.949 . S
C1834 C1842 1.574 . S
C1834 C1850 1.368 . S
H1835 C1843 0.950 . S
H1836 C1841 0.950 . S
H1837 C1842 0.949 . S
H1838 C1844 0.950 . S
H1839 C1845 0.950 . S
H1840 C1846 0.949 . S
C1841 H1836 0.950 . S
C1841 C1843 1.327 . S
C1841 C1847 1.429 . S
C1842 C1834 1.574 . S
C1842 H1837 0.949 . S
C1842 C1848 1.368 . S
C1843 C1827 1.349 . S
C1843 H1835 0.950 . S
C1843 C1841 1.327 . S
C1844 C1832 1.349 . S
C1844 H1838 0.950 . S
C1844 C1845 1.327 . S
C1845 H1839 0.950 . S
C1845 C1844 1.327 . S
C1845 C1849 1.429 . S
C1846 C1829 1.574 . S
C1846 H1840 0.949 . S
C1846 C1850 1.368 . S
C1847 C1828 1.429 . S
C1847 C1841 1.429 . S
C1847 C1848 1.523 . S
C1848 C1829 1.368 . S
C1848 C1842 1.368 . S
C1848 C1847 1.523 . S
C1849 C1833 1.429 . S
C1849 C1845 1.429 . S
C1849 C1850 1.523 . S
C1850 C1834 1.368 . S
C1850 C1846 1.368 . S
C1850 C1849 1.523 . S
H1851 C1826 0.950 . S
H1852 C1828 0.950 . S
H1853 C1829 0.949 . S
H1854 C1831 0.950 . S
H1855 C1833 0.950 . S
C1856 C1857 1.370 . S
C1856 C1858 1.327 . S
C1856 H1881 0.950 . S
C1857 C1856 1.370 . S
C1857 C1873 1.327 1_554 S
C1858 C1856 1.327 . S
C1858 C1877 1.429 1_554 S
C1858 H1882 0.950 . S
C1859 C1876 1.574 . S
C1859 C1878 1.368 . S
C1859 H1883 0.949 . S
H1860 C1864 0.949 . S
C1861 C1862 1.349 . S
C1861 C1863 1.327 . S
C1861 H1884 0.950 . S
C1862 C1861 1.349 . S
C1862 C1874 1.349 1_556 S
C1863 C1861 1.327 . S
C1863 C1879 1.429 . S
C1863 H1885 0.950 . S
C1864 H1860 0.949 . S
C1864 C1872 1.574 . S
C1864 C1880 1.368 1_554 S
H1865 C1873 0.950 . S
H1866 C1871 0.950 . S
H1867 C1872 0.949 . S
H1868 C1874 0.950 . S
H1869 C1875 0.950 . S
H1870 C1876 0.949 . S
C1871 H1866 0.950 . S
C1871 C1873 1.327 . S
C1871 C1877 1.429 . S
C1872 C1864 1.574 . S
C1872 H1867 0.949 . S
C1872 C1878 1.368 1_554 S
C1873 C1857 1.327 1_556 S
C1873 H1865 0.950 . S
C1873 C1871 1.327 . S
C1874 C1862 1.349 1_554 S
C1874 H1868 0.950 . S
C1874 C1875 1.327 . S
C1875 H1869 0.950 . S
C1875 C1874 1.327 . S
C1875 C1879 1.429 1_554 S
C1876 C1859 1.574 . S
C1876 H1870 0.949 . S
C1876 C1880 1.368 . S
C1877 C1858 1.429 1_556 S
C1877 C1871 1.429 . S
C1877 C1878 1.523 . S
C1878 C1859 1.368 . S
C1878 C1872 1.368 1_556 S
C1878 C1877 1.523 . S
C1879 C1863 1.429 . S
C1879 C1875 1.429 1_556 S
C1879 C1880 1.523 . S
C1880 C1864 1.368 1_556 S
C1880 C1876 1.368 . S
C1880 C1879 1.523 . S
H1881 C1856 0.950 . S
H1882 C1858 0.950 . S
H1883 C1859 0.949 . S
H1884 C1861 0.950 . S
H1885 C1863 0.950 . S
C1886 C1887 1.349 . S
C1886 C1888 1.327 . S
C1886 H1911 0.950 . S
C1887 C1886 1.349 . S
C1887 C1903 1.349 . S
C1888 C1886 1.327 . S
C1888 C1907 1.429 . S
C1888 H1912 0.950 . S
C1889 C1906 1.574 . S
C1889 C1908 1.368 . S
C1889 H1913 0.949 1_554 S
H1890 C1894 0.949 . S
C1891 C1892 1.349 . S
C1891 C1893 1.327 . S
C1891 H1914 0.950 1_554 S
C1892 C1891 1.349 . S
C1892 C1904 1.349 . S
C1893 C1891 1.327 . S
C1893 C1909 1.429 . S
C1893 H1915 0.950 1_554 S
C1894 H1890 0.949 . S
C1894 C1902 1.574 . S
C1894 C1910 1.368 . S
H1895 C1903 0.950 1_556 S
H1896 C1901 0.950 1_556 S
H1897 C1902 0.949 . S
H1898 C1904 0.950 . S
H1899 C1905 0.950 . S
H1900 C1906 0.949 1_556 S
C1901 H1896 0.950 1_554 S
C1901 C1903 1.327 . S
C1901 C1907 1.429 . S
C1902 C1894 1.574 . S
C1902 H1897 0.949 . S
C1902 C1908 1.368 . S
C1903 C1887 1.349 . S
C1903 H1895 0.950 1_554 S
C1903 C1901 1.327 . S
C1904 C1892 1.349 . S
C1904 H1898 0.950 . S
C1904 C1905 1.327 . S
C1905 H1899 0.950 . S
C1905 C1904 1.327 . S
C1905 C1909 1.429 . S
C1906 C1889 1.574 . S
C1906 H1900 0.949 1_554 S
C1906 C1910 1.368 . S
C1907 C1888 1.429 . S
C1907 C1901 1.429 . S
C1907 C1908 1.523 . S
C1908 C1889 1.368 . S
C1908 C1902 1.368 . S
C1908 C1907 1.523 . S
C1909 C1893 1.429 . S
C1909 C1905 1.429 . S
C1909 C1910 1.523 . S
C1910 C1894 1.368 . S
C1910 C1906 1.368 . S
C1910 C1909 1.523 . S
H1911 C1886 0.950 . S
H1912 C1888 0.950 . S
H1913 C1889 0.949 1_556 S
H1914 C1891 0.950 1_556 S
H1915 C1893 0.950 1_556 S
C1916 C1917 1.349 . S
C1916 C1918 1.327 . S
C1916 H1941 0.950 . S
C1917 C1916 1.349 . S
C1917 C1933 1.349 . S
C1918 C1916 1.327 . S
C1918 C1937 1.429 . S
C1918 H1942 0.950 . S
C1919 C1936 1.574 . S
C1919 C1938 1.368 . S
C1919 H1943 0.949 . S
H1920 C1924 0.949 . S
C1921 C1922 1.349 . S
C1921 C1923 1.327 . S
C1921 H1944 0.950 . S
C1922 C1921 1.349 . S
C1922 C1934 1.349 . S
C1923 C1921 1.327 . S
C1923 C1939 1.429 . S
C1923 H1945 0.950 . S
C1924 H1920 0.949 . S
C1924 C1932 1.574 . S
C1924 C1940 1.368 . S
H1925 C1933 0.950 . S
H1926 C1931 0.950 . S
H1927 C1932 0.949 . S
H1928 C1934 0.950 . S
H1929 C1935 0.950 . S
H1930 C1936 0.949 . S
C1931 H1926 0.950 . S
C1931 C1933 1.327 . S
C1931 C1937 1.429 . S
C1932 C1924 1.574 . S
C1932 H1927 0.949 . S
C1932 C1938 1.368 . S
C1933 C1917 1.349 . S
C1933 H1925 0.950 . S
C1933 C1931 1.327 . S
C1934 C1922 1.349 . S
C1934 H1928 0.950 . S
C1934 C1935 1.327 . S
C1935 H1929 0.950 . S
C1935 C1934 1.327 . S
C1935 C1939 1.429 . S
C1936 C1919 1.574 . S
C1936 H1930 0.949 . S
C1936 C1940 1.368 . S
C1937 C1918 1.429 . S
C1937 C1931 1.429 . S
C1937 C1938 1.523 . S
C1938 C1919 1.368 . S
C1938 C1932 1.368 . S
C1938 C1937 1.523 . S
C1939 C1923 1.429 . S
C1939 C1935 1.429 . S
C1939 C1940 1.523 . S
C1940 C1924 1.368 . S
C1940 C1936 1.368 . S
C1940 C1939 1.523 . S
H1941 C1916 0.950 . S
H1942 C1918 0.950 . S
H1943 C1919 0.949 . S
H1944 C1921 0.950 . S
H1945 C1923 0.950 . S
C1946 C1947 1.349 . S
C1946 C1948 1.327 . S
C1946 H1971 0.950 . S
C1947 C1946 1.349 . S
C1947 C1963 1.349 . S
C1948 C1946 1.327 . S
C1948 C1967 1.429 . S
C1948 H1972 0.950 . S
C1949 C1966 1.574 . S
C1949 C1968 1.368 . S
C1949 H1973 0.949 . S
H1950 C1954 0.949 . S
C1951 C1952 1.349 . S
C1951 C1953 1.327 . S
C1951 H1974 0.950 . S
C1952 C1951 1.349 . S
C1952 C1964 1.349 . S
C1953 C1951 1.327 . S
C1953 C1969 1.429 . S
C1953 H1975 0.950 . S
C1954 H1950 0.949 . S
C1954 C1962 1.574 . S
C1954 C1970 1.368 . S
H1955 C1963 0.950 . S
H1956 C1961 0.950 . S
H1957 C1962 0.949 . S
H1958 C1964 0.950 . S
H1959 C1965 0.950 . S
H1960 C1966 0.949 . S
C1961 H1956 0.950 . S
C1961 C1963 1.327 . S
C1961 C1967 1.429 . S
C1962 C1954 1.574 . S
C1962 H1957 0.949 . S
C1962 C1968 1.368 . S
C1963 C1947 1.349 . S
C1963 H1955 0.950 . S
C1963 C1961 1.327 . S
C1964 C1952 1.349 . S
C1964 H1958 0.950 . S
C1964 C1965 1.327 . S
C1965 H1959 0.950 . S
C1965 C1964 1.327 . S
C1965 C1969 1.429 . S
C1966 C1949 1.574 . S
C1966 H1960 0.949 . S
C1966 C1970 1.368 . S
C1967 C1948 1.429 . S
C1967 C1961 1.429 . S
C1967 C1968 1.523 . S
C1968 C1949 1.368 . S
C1968 C1962 1.368 . S
C1968 C1967 1.523 . S
C1969 C1953 1.429 . S
C1969 C1965 1.429 . S
C1969 C1970 1.523 . S
C1970 C1954 1.368 . S
C1970 C1966 1.368 . S
C1970 C1969 1.523 . S
H1971 C1946 0.950 . S
H1972 C1948 0.950 . S
H1973 C1949 0.949 . S
H1974 C1951 0.950 . S
H1975 C1953 0.950 . S
C1976 C1977 1.349 . S
C1976 C1978 1.327 . S
C1976 H2001 0.950 . S
C1977 C1976 1.349 . S
C1977 C1993 1.349 . S
C1978 C1976 1.327 . S
C1978 C1997 1.429 . S
C1978 H2002 0.950 . S
C1979 C1996 1.574 . S
C1979 C1998 1.368 . S
C1979 H2003 0.949 . S
H1980 C1984 0.949 . S
C1981 C1982 1.349 . S
C1981 C1983 1.327 . S
C1981 H2004 0.950 . S
C1982 C1981 1.349 . S
C1982 C1994 1.349 . S
C1983 C1981 1.327 . S
C1983 C1999 1.429 . S
C1983 H2005 0.950 . S
C1984 H1980 0.949 . S
C1984 C1992 1.574 . S
C1984 C2000 1.368 . S
H1985 C1993 0.950 . S
H1986 C1991 0.950 . S
H1987 C1992 0.949 . S
H1988 C1994 0.950 . S
H1989 C1995 0.950 . S
H1990 C1996 0.949 . S
C1991 H1986 0.950 . S
C1991 C1993 1.327 . S
C1991 C1997 1.429 . S
C1992 C1984 1.574 . S
C1992 H1987 0.949 . S
C1992 C1998 1.368 . S
C1993 C1977 1.349 . S
C1993 H1985 0.950 . S
C1993 C1991 1.327 . S
C1994 C1982 1.349 . S
C1994 H1988 0.950 . S
C1994 C1995 1.327 . S
C1995 H1989 0.950 . S
C1995 C1994 1.327 . S
C1995 C1999 1.429 . S
C1996 C1979 1.574 . S
C1996 H1990 0.949 . S
C1996 C2000 1.368 . S
C1997 C1978 1.429 . S
C1997 C1991 1.429 . S
C1997 C1998 1.523 . S
C1998 C1979 1.368 . S
C1998 C1992 1.368 . S
C1998 C1997 1.523 . S
C1999 C1983 1.429 . S
C1999 C1995 1.429 . S
C1999 C2000 1.523 . S
C2000 C1984 1.368 . S
C2000 C1996 1.368 . S
C2000 C1999 1.523 . S
H2001 C1976 0.950 . S
H2002 C1978 0.950 . S
H2003 C1979 0.949 . S
H2004 C1981 0.950 . S
H2005 C1983 0.950 . S
C2006 C2007 1.349 . S
C2006 C2008 1.327 . S
C2006 H2031 0.950 . S
C2007 C2006 1.349 . S
C2007 C2023 1.349 . S
C2008 C2006 1.327 . S
C2008 C2027 1.429 . S
C2008 H2032 0.950 . S
C2009 C2026 1.574 . S
C2009 C2028 1.368 . S
C2009 H2033 0.949 . S
H2010 C2014 0.949 . S
C2011 C2012 1.349 . S
C2011 C2013 1.327 . S
C2011 H2034 0.950 . S
C2012 C2011 1.349 . S
C2012 C2024 1.349 1_565 S
C2013 C2011 1.327 . S
C2013 C2029 1.429 . S
C2013 H2035 0.950 . S
C2014 H2010 0.949 . S
C2014 C2022 1.574 . S
C2014 C2030 1.368 . S
H2015 C2023 0.950 . S
H2016 C2021 0.950 . S
H2017 C2022 0.949 . S
H2018 C2024 0.950 . S
H2019 C2025 0.950 1_545 S
H2020 C2026 0.949 . S
C2021 H2016 0.950 . S
C2021 C2023 1.327 . S
C2021 C2027 1.429 . S
C2022 C2014 1.574 . S
C2022 H2017 0.949 . S
C2022 C2028 1.368 . S
C2023 C2007 1.349 . S
C2023 H2015 0.950 . S
C2023 C2021 1.327 . S
C2024 C2012 1.349 1_545 S
C2024 H2018 0.950 . S
C2024 C2025 1.327 1_545 S
C2025 H2019 0.950 1_565 S
C2025 C2024 1.327 1_565 S
C2025 C2029 1.429 . S
C2026 C2009 1.574 . S
C2026 H2020 0.949 . S
C2026 C2030 1.368 . S
C2027 C2008 1.429 . S
C2027 C2021 1.429 . S
C2027 C2028 1.523 . S
C2028 C2009 1.368 . S
C2028 C2022 1.368 . S
C2028 C2027 1.523 . S
C2029 C2013 1.429 . S
C2029 C2025 1.429 . S
C2029 C2030 1.523 . S
C2030 C2014 1.368 . S
C2030 C2026 1.368 . S
C2030 C2029 1.523 . S
H2031 C2006 0.950 . S
H2032 C2008 0.950 . S
H2033 C2009 0.949 . S
H2034 C2011 0.950 . S
H2035 C2013 0.950 . S
C2036 C2037 1.349 . S
C2036 C2038 1.327 . S
C2036 H2061 0.950 . S
C2037 C2036 1.349 . S
C2037 C2053 1.349 . S
C2038 C2036 1.327 . S
C2038 C2057 1.429 . S
C2038 H2062 0.950 . S
C2039 C2056 1.574 . S
C2039 C2058 1.368 . S
C2039 H2063 0.949 . S
H2040 C2044 0.949 . S
C2041 C2042 1.349 . S
C2041 C2043 1.327 . S
C2041 H2064 0.950 . S
C2042 C2041 1.349 . S
C2042 C2054 1.349 . S
C2043 C2041 1.327 . S
C2043 C2059 1.429 . S
C2043 H2065 0.950 . S
C2044 H2040 0.949 . S
C2044 C2052 1.574 . S
C2044 C2060 1.368 . S
H2045 C2053 0.950 . S
H2046 C2051 0.950 . S
H2047 C2052 0.949 . S
H2048 C2054 0.950 . S
H2049 C2055 0.950 . S
H2050 C2056 0.949 . S
C2051 H2046 0.950 . S
C2051 C2053 1.327 . S
C2051 C2057 1.429 . S
C2052 C2044 1.574 . S
C2052 H2047 0.949 . S
C2052 C2058 1.368 . S
C2053 C2037 1.349 . S
C2053 H2045 0.950 . S
C2053 C2051 1.327 . S
C2054 C2042 1.349 . S
C2054 H2048 0.950 . S
C2054 C2055 1.327 . S
C2055 H2049 0.950 . S
C2055 C2054 1.327 . S
C2055 C2059 1.429 . S
C2056 C2039 1.574 . S
C2056 H2050 0.949 . S
C2056 C2060 1.368 . S
C2057 C2038 1.429 . S
C2057 C2051 1.429 . S
C2057 C2058 1.523 . S
C2058 C2039 1.368 . S
C2058 C2052 1.368 . S
C2058 C2057 1.523 . S
C2059 C2043 1.429 . S
C2059 C2055 1.429 . S
C2059 C2060 1.523 . S
C2060 C2044 1.368 . S
C2060 C2056 1.368 . S
C2060 C2059 1.523 . S
H2061 C2036 0.950 . S
H2062 C2038 0.950 . S
H2063 C2039 0.949 . S
H2064 C2041 0.950 . S
H2065 C2043 0.950 . S
C2066 C2067 1.349 . S
C2066 C2068 1.327 . S
C2066 H2091 0.950 . S
C2067 C2066 1.349 . S
C2067 C2083 1.349 . S
C2068 C2066 1.327 . S
C2068 C2087 1.429 . S
C2068 H2092 0.950 . S
C2069 C2086 1.574 . S
C2069 C2088 1.368 . S
C2069 H2093 0.949 . S
H2070 C2074 0.949 . S
C2071 C2072 1.349 . S
C2071 C2073 1.327 . S
C2071 H2094 0.950 . S
C2072 C2071 1.349 . S
C2072 C2084 1.349 . S
C2073 C2071 1.327 . S
C2073 C2089 1.429 . S
C2073 H2095 0.950 . S
C2074 H2070 0.949 . S
C2074 C2082 1.574 . S
C2074 C2090 1.368 . S
H2075 C2083 0.950 . S
H2076 C2081 0.950 . S
H2077 C2082 0.949 . S
H2078 C2084 0.950 . S
H2079 C2085 0.950 . S
H2080 C2086 0.949 . S
C2081 H2076 0.950 . S
C2081 C2083 1.327 . S
C2081 C2087 1.429 . S
C2082 C2074 1.574 . S
C2082 H2077 0.949 . S
C2082 C2088 1.368 . S
C2083 C2067 1.349 . S
C2083 H2075 0.950 . S
C2083 C2081 1.327 . S
C2084 C2072 1.349 . S
C2084 H2078 0.950 . S
C2084 C2085 1.327 . S
C2085 H2079 0.950 . S
C2085 C2084 1.327 . S
C2085 C2089 1.429 . S
C2086 C2069 1.574 . S
C2086 H2080 0.949 . S
C2086 C2090 1.368 . S
C2087 C2068 1.429 . S
C2087 C2081 1.429 . S
C2087 C2088 1.523 . S
C2088 C2069 1.368 . S
C2088 C2082 1.368 . S
C2088 C2087 1.523 . S
C2089 C2073 1.429 . S
C2089 C2085 1.429 . S
C2089 C2090 1.523 . S
C2090 C2074 1.368 . S
C2090 C2086 1.368 . S
C2090 C2089 1.523 . S
H2091 C2066 0.950 . S
H2092 C2068 0.950 . S
H2093 C2069 0.949 . S
H2094 C2071 0.950 . S
H2095 C2073 0.950 . S
C2096 C2097 1.349 . S
C2096 C2098 1.327 . S
C2096 H2121 0.950 . S
C2097 C2096 1.349 . S
C2097 C2113 1.349 . S
C2098 C2096 1.327 . S
C2098 C2117 1.429 . S
C2098 H2122 0.950 . S
C2099 C2116 1.574 . S
C2099 C2118 1.368 . S
C2099 H2123 0.949 . S
H2100 C2104 0.949 . S
C2101 C2102 1.349 . S
C2101 C2103 1.327 . S
C2101 H2124 0.950 . S
C2102 C2101 1.349 . S
C2102 C2114 1.349 . S
C2103 C2101 1.327 . S
C2103 C2119 1.429 . S
C2103 H2125 0.950 . S
C2104 H2100 0.949 . S
C2104 C2112 1.574 . S
C2104 C2120 1.368 . S
H2105 C2113 0.950 . S
H2106 C2111 0.950 . S
H2107 C2112 0.949 . S
H2108 C2114 0.950 . S
H2109 C2115 0.950 . S
H2110 C2116 0.949 . S
C2111 H2106 0.950 . S
C2111 C2113 1.327 . S
C2111 C2117 1.429 . S
C2112 C2104 1.574 . S
C2112 H2107 0.949 . S
C2112 C2118 1.368 . S
C2113 C2097 1.349 . S
C2113 H2105 0.950 . S
C2113 C2111 1.327 . S
C2114 C2102 1.349 . S
C2114 H2108 0.950 . S
C2114 C2115 1.327 . S
C2115 H2109 0.950 . S
C2115 C2114 1.327 . S
C2115 C2119 1.429 . S
C2116 C2099 1.574 . S
C2116 H2110 0.949 . S
C2116 C2120 1.368 . S
C2117 C2098 1.429 . S
C2117 C2111 1.429 . S
C2117 C2118 1.523 . S
C2118 C2099 1.368 . S
C2118 C2112 1.368 . S
C2118 C2117 1.523 . S
C2119 C2103 1.429 . S
C2119 C2115 1.429 . S
C2119 C2120 1.523 . S
C2120 C2104 1.368 . S
C2120 C2116 1.368 . S
C2120 C2119 1.523 . S
H2121 C2096 0.950 . S
H2122 C2098 0.950 . S
H2123 C2099 0.949 . S
H2124 C2101 0.950 . S
H2125 C2103 0.950 . S
C2126 C2127 1.349 . S
C2126 C2128 1.327 . S
C2126 H2151 0.950 . S
C2127 C2126 1.349 . S
C2127 C2143 1.349 . S
C2128 C2126 1.327 . S
C2128 C2147 1.429 . S
C2128 H2152 0.950 . S
C2129 C2146 1.574 . S
C2129 C2148 1.368 . S
C2129 H2153 0.949 . S
H2130 C2134 0.949 . S
C2131 C2132 1.349 . S
C2131 C2133 1.327 . S
C2131 H2154 0.950 . S
C2132 C2131 1.349 . S
C2132 C2144 1.349 . S
C2133 C2131 1.327 . S
C2133 C2149 1.429 . S
C2133 H2155 0.950 . S
C2134 H2130 0.949 . S
C2134 C2142 1.574 . S
C2134 C2150 1.368 . S
H2135 C2143 0.950 . S
H2136 C2141 0.950 . S
H2137 C2142 0.949 . S
H2138 C2144 0.950 . S
H2139 C2145 0.950 . S
H2140 C2146 0.949 . S
C2141 H2136 0.950 . S
C2141 C2143 1.327 . S
C2141 C2147 1.429 . S
C2142 C2134 1.574 . S
C2142 H2137 0.949 . S
C2142 C2148 1.368 . S
C2143 C2127 1.349 . S
C2143 H2135 0.950 . S
C2143 C2141 1.327 . S
C2144 C2132 1.349 . S
C2144 H2138 0.950 . S
C2144 C2145 1.327 . S
C2145 H2139 0.950 . S
C2145 C2144 1.327 . S
C2145 C2149 1.429 . S
C2146 C2129 1.574 . S
C2146 H2140 0.949 . S
C2146 C2150 1.368 . S
C2147 C2128 1.429 . S
C2147 C2141 1.429 . S
C2147 C2148 1.523 . S
C2148 C2129 1.368 . S
C2148 C2142 1.368 . S
C2148 C2147 1.523 . S
C2149 C2133 1.429 . S
C2149 C2145 1.429 . S
C2149 C2150 1.523 . S
C2150 C2134 1.368 . S
C2150 C2146 1.368 . S
C2150 C2149 1.523 . S
H2151 C2126 0.950 . S
H2152 C2128 0.950 . S
H2153 C2129 0.949 . S
H2154 C2131 0.950 . S
H2155 C2133 0.950 . S
C2156 C2157 1.349 1_655 S
C2156 C2158 1.327 . S
C2156 H2181 0.950 . S
C2157 C2156 1.349 1_455 S
C2157 C2173 1.349 . S
C2158 C2156 1.327 . S
C2158 C2177 1.429 1_655 S
C2158 H2182 0.950 . S
C2159 C2176 1.574 . S
C2159 C2178 1.368 . S
C2159 H2183 0.949 . S
H2160 C2164 0.949 . S
C2161 C2162 1.349 1_556 S
C2161 C2163 1.327 . S
C2161 H2184 0.950 . S
C2162 C2161 1.349 1_554 S
C2162 C2174 1.349 1_454 S
C2163 C2161 1.327 . S
C2163 C2179 1.429 . S
C2163 H2185 0.950 . S
C2164 H2160 0.949 . S
C2164 C2172 1.574 . S
C2164 C2180 1.368 1_655 S
H2165 C2173 0.950 . S
H2166 C2171 0.950 . S
H2167 C2172 0.949 . S
H2168 C2174 0.947 1_554 S
H2169 C2175 0.950 . S
H2170 C2176 0.949 . S
C2171 H2166 0.950 . S
C2171 C2173 1.327 . S
C2171 C2177 1.429 . S
C2172 C2164 1.574 . S
C2172 H2167 0.949 . S
C2172 C2178 1.368 1_655 S
C2173 C2157 1.349 . S
C2173 H2165 0.950 . S
C2173 C2171 1.327 . S
C2174 C2162 1.349 1_656 S
C2174 H2168 0.947 1_556 S
C2174 C2175 1.327 . S
C2175 H2169 0.950 . S
C2175 C2174 1.327 . S
C2175 C2179 1.429 1_655 S
C2176 C2159 1.574 . S
C2176 H2170 0.949 . S
C2176 C2180 1.368 . S
C2177 C2158 1.429 1_455 S
C2177 C2171 1.429 . S
C2177 C2178 1.523 . S
C2178 C2159 1.368 . S
C2178 C2172 1.368 1_455 S
C2178 C2177 1.523 . S
C2179 C2163 1.429 . S
C2179 C2175 1.429 1_455 S
C2179 C2180 1.523 . S
C2180 C2164 1.368 1_455 S
C2180 C2176 1.368 . S
C2180 C2179 1.523 . S
H2181 C2156 0.950 . S
H2182 C2158 0.950 . S
H2183 C2159 0.949 . S
H2184 C2161 0.950 . S
H2185 C2163 0.950 . S
C2186 C2187 1.349 . S
C2186 C2188 1.327 . S
C2186 H2211 0.950 . S
C2187 C2186 1.349 . S
C2187 C2203 1.349 . S
C2188 C2186 1.327 . S
C2188 C2207 1.429 . S
C2188 H2212 0.950 . S
C2189 C2206 1.574 . S
C2189 C2208 1.368 . S
C2189 H2213 0.949 . S
H2190 C2194 0.949 . S
C2191 C2192 1.349 . S
C2191 C2193 1.327 . S
C2191 H2214 0.950 . S
C2192 C2191 1.349 . S
C2192 C2204 1.349 . S
C2193 C2191 1.327 . S
C2193 C2209 1.429 . S
C2193 H2215 0.950 . S
C2194 H2190 0.949 . S
C2194 C2202 1.574 . S
C2194 C2210 1.368 . S
H2195 C2203 0.950 . S
H2196 C2201 0.950 . S
H2197 C2202 0.949 . S
H2198 C2204 0.950 . S
H2199 C2205 0.950 . S
H2200 C2206 0.949 . S
C2201 H2196 0.950 . S
C2201 C2203 1.327 . S
C2201 C2207 1.429 . S
C2202 C2194 1.574 . S
C2202 H2197 0.949 . S
C2202 C2208 1.368 . S
C2203 C2187 1.349 . S
C2203 H2195 0.950 . S
C2203 C2201 1.327 . S
C2204 C2192 1.349 . S
C2204 H2198 0.950 . S
C2204 C2205 1.327 . S
C2205 H2199 0.950 . S
C2205 C2204 1.327 . S
C2205 C2209 1.429 . S
C2206 C2189 1.574 . S
C2206 H2200 0.949 . S
C2206 C2210 1.368 . S
C2207 C2188 1.429 . S
C2207 C2201 1.429 . S
C2207 C2208 1.523 . S
C2208 C2189 1.368 . S
C2208 C2202 1.368 . S
C2208 C2207 1.523 . S
C2209 C2193 1.429 . S
C2209 C2205 1.429 . S
C2209 C2210 1.523 . S
C2210 C2194 1.368 . S
C2210 C2206 1.368 . S
C2210 C2209 1.523 . S
H2211 C2186 0.950 . S
H2212 C2188 0.950 . S
H2213 C2189 0.949 . S
H2214 C2191 0.950 . S
H2215 C2193 0.950 . S
C2216 C2217 1.349 . S
C2216 C2218 1.327 . S
C2216 H2241 0.950 . S
C2217 C2216 1.349 . S
C2217 C2233 1.349 . S
C2218 C2216 1.327 . S
C2218 C2237 1.429 . S
C2218 H2242 0.950 . S
C2219 C2236 1.574 . S
C2219 C2238 1.368 . S
C2219 H2243 0.949 . S
H2220 C2224 0.949 . S
C2221 C2222 1.349 . S
C2221 C2223 1.327 . S
C2221 H2244 0.950 . S
C2222 C2221 1.349 . S
C2222 C2234 1.349 . S
C2223 C2221 1.327 . S
C2223 C2239 1.429 . S
C2223 H2245 0.950 . S
C2224 H2220 0.949 . S
C2224 C2232 1.574 . S
C2224 C2240 1.368 . S
H2225 C2233 0.950 . S
H2226 C2231 0.950 . S
H2227 C2232 0.949 . S
H2228 C2234 0.950 . S
H2229 C2235 0.950 . S
H2230 C2236 0.949 . S
C2231 H2226 0.950 . S
C2231 C2233 1.327 . S
C2231 C2237 1.429 . S
C2232 C2224 1.574 . S
C2232 H2227 0.949 . S
C2232 C2238 1.368 . S
C2233 C2217 1.349 . S
C2233 H2225 0.950 . S
C2233 C2231 1.327 . S
C2234 C2222 1.349 . S
C2234 H2228 0.950 . S
C2234 C2235 1.327 . S
C2235 H2229 0.950 . S
C2235 C2234 1.327 . S
C2235 C2239 1.429 . S
C2236 C2219 1.574 . S
C2236 H2230 0.949 . S
C2236 C2240 1.368 . S
C2237 C2218 1.429 . S
C2237 C2231 1.429 . S
C2237 C2238 1.523 . S
C2238 C2219 1.368 . S
C2238 C2232 1.368 . S
C2238 C2237 1.523 . S
C2239 C2223 1.429 . S
C2239 C2235 1.429 . S
C2239 C2240 1.523 . S
C2240 C2224 1.368 . S
C2240 C2236 1.368 . S
C2240 C2239 1.523 . S
H2241 C2216 0.950 . S
H2242 C2218 0.950 . S
H2243 C2219 0.949 . S
H2244 C2221 0.950 . S
H2245 C2223 0.950 . S
C2246 C2247 1.349 . S
C2246 C2248 1.327 . S
C2246 H2271 0.950 . S
C2247 C2246 1.349 . S
C2247 C2263 1.349 . S
C2248 C2246 1.327 . S
C2248 C2267 1.429 . S
C2248 H2272 0.950 . S
C2249 C2266 1.574 . S
C2249 C2268 1.368 . S
C2249 H2273 0.949 . S
H2250 C2254 0.949 . S
C2251 C2252 1.349 . S
C2251 C2253 1.327 . S
C2251 H2274 0.950 . S
C2252 C2251 1.349 . S
C2252 C2264 1.349 . S
C2253 C2251 1.327 . S
C2253 C2269 1.429 . S
C2253 H2275 0.950 . S
C2254 H2250 0.949 . S
C2254 C2262 1.574 . S
C2254 C2270 1.368 . S
H2255 C2263 0.950 . S
H2256 C2261 0.950 . S
H2257 C2262 0.949 . S
H2258 C2264 0.950 . S
H2259 C2265 0.950 . S
H2260 C2266 0.949 . S
C2261 H2256 0.950 . S
C2261 C2263 1.327 . S
C2261 C2267 1.429 . S
C2262 C2254 1.574 . S
C2262 H2257 0.949 . S
C2262 C2268 1.368 . S
C2263 C2247 1.349 . S
C2263 H2255 0.950 . S
C2263 C2261 1.327 . S
C2264 C2252 1.349 . S
C2264 H2258 0.950 . S
C2264 C2265 1.327 . S
C2265 H2259 0.950 . S
C2265 C2264 1.327 . S
C2265 C2269 1.429 . S
C2266 C2249 1.574 . S
C2266 H2260 0.949 . S
C2266 C2270 1.368 . S
C2267 C2248 1.429 . S
C2267 C2261 1.429 . S
C2267 C2268 1.523 . S
C2268 C2249 1.368 . S
C2268 C2262 1.368 . S
C2268 C2267 1.523 . S
C2269 C2253 1.429 . S
C2269 C2265 1.429 . S
C2269 C2270 1.523 . S
C2270 C2254 1.368 . S
C2270 C2266 1.368 . S
C2270 C2269 1.523 . S
H2271 C2246 0.950 . S
H2272 C2248 0.950 . S
H2273 C2249 0.949 . S
H2274 C2251 0.950 . S
H2275 C2253 0.950 . S
C2276 C2277 1.349 . S
C2276 C2278 1.327 . S
C2276 H2301 0.950 . S
C2277 C2276 1.349 . S
C2277 C2293 1.349 1_455 S
C2278 C2276 1.327 . S
C2278 C2297 1.429 . S
C2278 H2302 0.950 . S
C2279 C2296 1.574 . S
C2279 C2298 1.368 1_655 S
C2279 H2303 0.949 . S
H2280 C2284 0.949 . S
C2281 C2282 1.349 1_655 S
C2281 C2283 1.327 . S
C2281 H2304 0.950 . S
C2282 C2281 1.349 1_455 S
C2282 C2294 1.349 . S
C2283 C2281 1.327 . S
C2283 C2299 1.429 1_655 S
C2283 H2305 0.950 . S
C2284 H2280 0.949 . S
C2284 C2292 1.574 . S
C2284 C2300 1.368 . S
H2285 C2293 0.950 . S
H2286 C2291 0.950 . S
H2287 C2292 0.949 . S
H2288 C2294 0.950 . S
H2289 C2295 0.950 . S
H2290 C2296 0.949 . S
C2291 H2286 0.950 . S
C2291 C2293 1.327 . S
C2291 C2297 1.429 1_655 S
C2292 C2284 1.574 . S
C2292 H2287 0.949 . S
C2292 C2298 1.368 . S
C2293 C2277 1.349 1_655 S
C2293 H2285 0.950 . S
C2293 C2291 1.327 . S
C2294 C2282 1.349 . S
C2294 H2288 0.950 . S
C2294 C2295 1.327 . S
C2295 H2289 0.950 . S
C2295 C2294 1.327 . S
C2295 C2299 1.429 . S
C2296 C2279 1.574 . S
C2296 H2290 0.949 . S
C2296 C2300 1.368 1_655 S
C2297 C2278 1.429 . S
C2297 C2291 1.429 1_455 S
C2297 C2298 1.523 . S
C2298 C2279 1.368 1_455 S
C2298 C2292 1.368 . S
C2298 C2297 1.523 . S
C2299 C2283 1.429 1_455 S
C2299 C2295 1.429 . S
C2299 C2300 1.523 . S
C2300 C2284 1.368 . S
C2300 C2296 1.368 1_455 S
C2300 C2299 1.523 . S
H2301 C2276 0.950 . S
H2302 C2278 0.950 . S
H2303 C2279 0.949 . S
H2304 C2281 0.950 . S
H2305 C2283 0.950 . S
C2306 C2307 1.349 . S
C2306 C2308 1.327 . S
C2306 H2331 0.950 . S
C2307 C2306 1.349 . S
C2307 C2323 1.349 . S
C2308 C2306 1.327 . S
C2308 C2327 1.429 . S
C2308 H2332 0.950 . S
C2309 C2326 1.574 . S
C2309 C2328 1.368 . S
C2309 H2333 0.949 . S
H2310 C2314 0.949 . S
C2311 C2312 1.349 . S
C2311 C2313 1.327 . S
C2311 H2334 0.950 . S
C2312 C2311 1.349 . S
C2312 C2324 1.349 . S
C2313 C2311 1.327 . S
C2313 C2329 1.429 . S
C2313 H2335 0.950 . S
C2314 H2310 0.949 . S
C2314 C2322 1.574 . S
C2314 C2330 1.368 . S
H2315 C2323 0.950 . S
H2316 C2321 0.950 . S
H2317 C2322 0.949 . S
H2318 C2324 0.950 . S
H2319 C2325 0.950 . S
H2320 C2326 0.949 . S
C2321 H2316 0.950 . S
C2321 C2323 1.327 . S
C2321 C2327 1.429 . S
C2322 C2314 1.574 . S
C2322 H2317 0.949 . S
C2322 C2328 1.368 . S
C2323 C2307 1.349 . S
C2323 H2315 0.950 . S
C2323 C2321 1.327 . S
C2324 C2312 1.349 . S
C2324 H2318 0.950 . S
C2324 C2325 1.327 . S
C2325 H2319 0.950 . S
C2325 C2324 1.327 . S
C2325 C2329 1.429 . S
C2326 C2309 1.574 . S
C2326 H2320 0.949 . S
C2326 C2330 1.368 . S
C2327 C2308 1.429 . S
C2327 C2321 1.429 . S
C2327 C2328 1.523 . S
C2328 C2309 1.368 . S
C2328 C2322 1.368 . S
C2328 C2327 1.523 . S
C2329 C2313 1.429 . S
C2329 C2325 1.429 . S
C2329 C2330 1.523 . S
C2330 C2314 1.368 . S
C2330 C2326 1.368 . S
C2330 C2329 1.523 . S
H2331 C2306 0.950 . S
H2332 C2308 0.950 . S
H2333 C2309 0.949 . S
H2334 C2311 0.950 . S
H2335 C2313 0.950 . S
C2336 C2337 1.349 . S
C2336 C2338 1.327 . S
C2336 H2361 0.950 . S
C2337 C2336 1.349 . S
C2337 C2353 1.349 . S
C2338 C2336 1.327 . S
C2338 C2357 1.429 . S
C2338 H2362 0.950 . S
C2339 C2356 1.574 . S
C2339 C2358 1.368 . S
C2339 H2363 0.949 . S
H2340 C2344 0.949 . S
C2341 C2342 1.349 . S
C2341 C2343 1.327 . S
C2341 H2364 0.950 . S
C2342 C2341 1.349 . S
C2342 C2354 1.349 . S
C2343 C2341 1.327 . S
C2343 C2359 1.429 . S
C2343 H2365 0.950 . S
C2344 H2340 0.949 . S
C2344 C2352 1.574 . S
C2344 C2360 1.368 . S
H2345 C2353 0.950 . S
H2346 C2351 0.950 . S
H2347 C2352 0.949 . S
H2348 C2354 0.950 . S
H2349 C2355 0.950 . S
H2350 C2356 0.949 . S
C2351 H2346 0.950 . S
C2351 C2353 1.327 . S
C2351 C2357 1.429 . S
C2352 C2344 1.574 . S
C2352 H2347 0.949 . S
C2352 C2358 1.368 . S
C2353 C2337 1.349 . S
C2353 H2345 0.950 . S
C2353 C2351 1.327 . S
C2354 C2342 1.349 . S
C2354 H2348 0.950 . S
C2354 C2355 1.327 . S
C2355 H2349 0.950 . S
C2355 C2354 1.327 . S
C2355 C2359 1.429 . S
C2356 C2339 1.574 . S
C2356 H2350 0.949 . S
C2356 C2360 1.368 . S
C2357 C2338 1.429 . S
C2357 C2351 1.429 . S
C2357 C2358 1.523 . S
C2358 C2339 1.368 . S
C2358 C2352 1.368 . S
C2358 C2357 1.523 . S
C2359 C2343 1.429 . S
C2359 C2355 1.429 . S
C2359 C2360 1.523 . S
C2360 C2344 1.368 . S
C2360 C2356 1.368 . S
C2360 C2359 1.523 . S
H2361 C2336 0.950 . S
H2362 C2338 0.950 . S
H2363 C2339 0.949 . S
H2364 C2341 0.950 . S
H2365 C2343 0.950 . S
C2366 C2367 1.349 . S
C2366 C2368 1.327 . S
C2366 H2391 0.950 . S
C2367 C2366 1.349 . S
C2367 C2383 1.349 . S
C2368 C2366 1.327 . S
C2368 C2387 1.429 . S
C2368 H2392 0.950 . S
C2369 C2386 1.574 . S
C2369 C2388 1.368 . S
C2369 H2393 0.949 . S
H2370 C2374 0.949 . S
C2371 C2372 1.349 . S
C2371 C2373 1.327 . S
C2371 H2394 0.950 . S
C2372 C2371 1.349 . S
C2372 C2384 1.349 . S
C2373 C2371 1.327 . S
C2373 C2389 1.429 . S
C2373 H2395 0.950 . S
C2374 H2370 0.949 . S
C2374 C2382 1.574 . S
C2374 C2390 1.368 . S
H2375 C2383 0.950 . S
H2376 C2381 0.950 . S
H2377 C2382 0.949 . S
H2378 C2384 0.950 . S
H2379 C2385 0.950 . S
H2380 C2386 0.949 . S
C2381 H2376 0.950 . S
C2381 C2383 1.327 . S
C2381 C2387 1.429 . S
C2382 C2374 1.574 . S
C2382 H2377 0.949 . S
C2382 C2388 1.368 . S
C2383 C2367 1.349 . S
C2383 H2375 0.950 . S
C2383 C2381 1.327 . S
C2384 C2372 1.349 . S
C2384 H2378 0.950 . S
C2384 C2385 1.327 . S
C2385 H2379 0.950 . S
C2385 C2384 1.327 . S
C2385 C2389 1.429 . S
C2386 C2369 1.574 . S
C2386 H2380 0.949 . S
C2386 C2390 1.368 . S
C2387 C2368 1.429 . S
C2387 C2381 1.429 . S
C2387 C2388 1.523 . S
C2388 C2369 1.368 . S
C2388 C2382 1.368 . S
C2388 C2387 1.523 . S
C2389 C2373 1.429 . S
C2389 C2385 1.429 . S
C2389 C2390 1.523 . S
C2390 C2374 1.368 . S
C2390 C2386 1.368 . S
C2390 C2389 1.523 . S
H2391 C2366 0.950 . S
H2392 C2368 0.950 . S
H2393 C2369 0.949 . S
H2394 C2371 0.950 . S
H2395 C2373 0.950 . S
C2396 C2397 1.349 . S
C2396 C2398 1.327 . S
C2396 H2421 0.950 . S
C2397 C2396 1.349 . S
C2397 C2413 1.349 . S
C2398 C2396 1.327 . S
C2398 C2417 1.429 . S
C2398 H2422 0.950 . S
C2399 C2416 1.574 . S
C2399 C2418 1.368 . S
C2399 H2423 0.949 . S
H2400 C2404 0.949 . S
C2401 C2402 1.349 . S
C2401 C2403 1.327 . S
C2401 H2424 0.950 . S
C2402 C2401 1.349 . S
C2402 C2414 1.349 . S
C2403 C2401 1.327 . S
C2403 C2419 1.429 . S
C2403 H2425 0.950 . S
C2404 H2400 0.949 . S
C2404 C2412 1.574 . S
C2404 C2420 1.368 . S
H2405 C2413 0.950 . S
H2406 C2411 0.950 . S
H2407 C2412 0.949 . S
H2408 C2414 0.950 . S
H2409 C2415 0.950 . S
H2410 C2416 0.949 . S
C2411 H2406 0.950 . S
C2411 C2413 1.327 . S
C2411 C2417 1.429 . S
C2412 C2404 1.574 . S
C2412 H2407 0.949 . S
C2412 C2418 1.368 . S
C2413 C2397 1.349 . S
C2413 H2405 0.950 . S
C2413 C2411 1.327 . S
C2414 C2402 1.349 . S
C2414 H2408 0.950 . S
C2414 C2415 1.327 . S
C2415 H2409 0.950 . S
C2415 C2414 1.327 . S
C2415 C2419 1.429 . S
C2416 C2399 1.574 . S
C2416 H2410 0.949 . S
C2416 C2420 1.368 . S
C2417 C2398 1.429 . S
C2417 C2411 1.429 . S
C2417 C2418 1.523 . S
C2418 C2399 1.368 . S
C2418 C2412 1.368 . S
C2418 C2417 1.523 . S
C2419 C2403 1.429 . S
C2419 C2415 1.429 . S
C2419 C2420 1.523 . S
C2420 C2404 1.368 . S
C2420 C2416 1.368 . S
C2420 C2419 1.523 . S
H2421 C2396 0.950 . S
H2422 C2398 0.950 . S
H2423 C2399 0.949 . S
H2424 C2401 0.950 . S
H2425 C2403 0.950 . S
C2426 C2427 1.349 . S
C2426 C2428 1.327 . S
C2426 H2451 0.950 . S
C2427 C2426 1.349 . S
C2427 C2443 1.349 . S
C2428 C2426 1.327 . S
C2428 C2447 1.429 . S
C2428 H2452 0.950 . S
C2429 C2446 1.574 . S
C2429 C2448 1.368 . S
C2429 H2453 0.949 . S
H2430 C2434 0.949 . S
C2431 C2432 1.349 . S
C2431 C2433 1.327 . S
C2431 H2454 0.950 . S
C2432 C2431 1.349 . S
C2432 C2444 1.349 . S
C2433 C2431 1.327 . S
C2433 C2449 1.429 . S
C2433 H2455 0.950 . S
C2434 H2430 0.949 . S
C2434 C2442 1.574 . S
C2434 C2450 1.368 . S
H2435 C2443 0.950 . S
H2436 C2441 0.950 . S
H2437 C2442 0.949 . S
H2438 C2444 0.950 . S
H2439 C2445 0.950 . S
H2440 C2446 0.949 . S
C2441 H2436 0.950 . S
C2441 C2443 1.327 . S
C2441 C2447 1.429 . S
C2442 C2434 1.574 . S
C2442 H2437 0.949 . S
C2442 C2448 1.368 . S
C2443 C2427 1.349 . S
C2443 H2435 0.950 . S
C2443 C2441 1.327 . S
C2444 C2432 1.349 . S
C2444 H2438 0.950 . S
C2444 C2445 1.327 . S
C2445 H2439 0.950 . S
C2445 C2444 1.327 . S
C2445 C2449 1.429 . S
C2446 C2429 1.574 . S
C2446 H2440 0.949 . S
C2446 C2450 1.368 . S
C2447 C2428 1.429 . S
C2447 C2441 1.429 . S
C2447 C2448 1.523 . S
C2448 C2429 1.368 . S
C2448 C2442 1.368 . S
C2448 C2447 1.523 . S
C2449 C2433 1.429 . S
C2449 C2445 1.429 . S
C2449 C2450 1.523 . S
C2450 C2434 1.368 . S
C2450 C2446 1.368 . S
C2450 C2449 1.523 . S
H2451 C2426 0.950 . S
H2452 C2428 0.950 . S
H2453 C2429 0.949 . S
H2454 C2431 0.950 . S
H2455 C2433 0.950 . S
C2456 C2457 1.349 . S
C2456 C2458 1.327 . S
C2456 H2481 0.950 . S
C2457 C2456 1.349 . S
C2457 C2473 1.349 . S
C2458 C2456 1.327 . S
C2458 C2477 1.429 . S
C2458 H2482 0.950 . S
C2459 C2476 1.574 . S
C2459 C2478 1.368 . S
C2459 H2483 0.949 . S
H2460 C2464 0.949 . S
C2461 C2462 1.349 . S
C2461 C2463 1.327 . S
C2461 H2484 0.950 . S
C2462 C2461 1.349 . S
C2462 C2474 1.349 . S
C2463 C2461 1.327 . S
C2463 C2479 1.429 . S
C2463 H2485 0.950 . S
C2464 H2460 0.949 . S
C2464 C2472 1.574 . S
C2464 C2480 1.368 . S
H2465 C2473 0.950 . S
H2466 C2471 0.950 . S
H2467 C2472 0.949 . S
H2468 C2474 0.950 . S
H2469 C2475 0.950 . S
H2470 C2476 0.949 . S
C2471 H2466 0.950 . S
C2471 C2473 1.327 . S
C2471 C2477 1.429 . S
C2472 C2464 1.574 . S
C2472 H2467 0.949 . S
C2472 C2478 1.368 . S
C2473 C2457 1.349 . S
C2473 H2465 0.950 . S
C2473 C2471 1.327 . S
C2474 C2462 1.349 . S
C2474 H2468 0.950 . S
C2474 C2475 1.327 . S
C2475 H2469 0.950 . S
C2475 C2474 1.327 . S
C2475 C2479 1.429 . S
C2476 C2459 1.574 . S
C2476 H2470 0.949 . S
C2476 C2480 1.368 . S
C2477 C2458 1.429 . S
C2477 C2471 1.429 . S
C2477 C2478 1.523 . S
C2478 C2459 1.368 . S
C2478 C2472 1.368 . S
C2478 C2477 1.523 . S
C2479 C2463 1.429 . S
C2479 C2475 1.429 . S
C2479 C2480 1.523 . S
C2480 C2464 1.368 . S
C2480 C2476 1.368 . S
C2480 C2479 1.523 . S
H2481 C2456 0.950 . S
H2482 C2458 0.950 . S
H2483 C2459 0.949 . S
H2484 C2461 0.950 . S
H2485 C2463 0.950 . S
C2486 C2487 1.349 . S
C2486 C2488 1.327 . S
C2486 H2511 0.950 . S
C2487 C2486 1.349 . S
C2487 C2503 1.349 . S
C2488 C2486 1.327 . S
C2488 C2507 1.429 . S
C2488 H2512 0.950 . S
C2489 C2506 1.574 . S
C2489 C2508 1.368 . S
C2489 H2513 0.949 . S
H2490 C2494 0.949 . S
C2491 C2492 1.349 . S
C2491 C2493 1.327 . S
C2491 H2514 0.950 . S
C2492 C2491 1.349 . S
C2492 C2504 1.349 . S
C2493 C2491 1.327 . S
C2493 C2509 1.429 . S
C2493 H2515 0.950 . S
C2494 H2490 0.949 . S
C2494 C2502 1.574 . S
C2494 C2510 1.368 . S
H2495 C2503 0.950 . S
H2496 C2501 0.950 . S
H2497 C2502 0.949 . S
H2498 C2504 0.950 . S
H2499 C2505 0.950 . S
H2500 C2506 0.949 . S
C2501 H2496 0.950 . S
C2501 C2503 1.327 . S
C2501 C2507 1.429 . S
C2502 C2494 1.574 . S
C2502 H2497 0.949 . S
C2502 C2508 1.368 . S
C2503 C2487 1.349 . S
C2503 H2495 0.950 . S
C2503 C2501 1.327 . S
C2504 C2492 1.349 . S
C2504 H2498 0.950 . S
C2504 C2505 1.327 . S
C2505 H2499 0.950 . S
C2505 C2504 1.327 . S
C2505 C2509 1.429 . S
C2506 C2489 1.574 . S
C2506 H2500 0.949 . S
C2506 C2510 1.368 . S
C2507 C2488 1.429 . S
C2507 C2501 1.429 . S
C2507 C2508 1.523 . S
C2508 C2489 1.368 . S
C2508 C2502 1.368 . S
C2508 C2507 1.523 . S
C2509 C2493 1.429 . S
C2509 C2505 1.429 . S
C2509 C2510 1.523 . S
C2510 C2494 1.368 . S
C2510 C2506 1.368 . S
C2510 C2509 1.523 . S
H2511 C2486 0.950 . S
H2512 C2488 0.950 . S
H2513 C2489 0.949 . S
H2514 C2491 0.950 . S
H2515 C2493 0.950 . S
C2516 C2517 1.349 . S
C2516 C2518 1.327 . S
C2516 H2541 0.950 . S
C2517 C2516 1.349 . S
C2517 C2533 1.349 . S
C2518 C2516 1.327 . S
C2518 C2537 1.429 . S
C2518 H2542 0.950 . S
C2519 C2536 1.574 . S
C2519 C2538 1.368 . S
C2519 H2543 0.949 . S
H2520 C2524 0.949 . S
C2521 C2522 1.349 . S
C2521 C2523 1.327 . S
C2521 H2544 0.950 . S
C2522 C2521 1.349 . S
C2522 C2534 1.349 . S
C2523 C2521 1.327 . S
C2523 C2539 1.429 . S
C2523 H2545 0.950 . S
C2524 H2520 0.949 . S
C2524 C2532 1.574 . S
C2524 C2540 1.368 . S
H2525 C2533 0.950 . S
H2526 C2531 0.950 . S
H2527 C2532 0.949 . S
H2528 C2534 0.950 . S
H2529 C2535 0.950 . S
H2530 C2536 0.949 . S
C2531 H2526 0.950 . S
C2531 C2533 1.327 . S
C2531 C2537 1.429 . S
C2532 C2524 1.574 . S
C2532 H2527 0.949 . S
C2532 C2538 1.368 . S
C2533 C2517 1.349 . S
C2533 H2525 0.950 . S
C2533 C2531 1.327 . S
C2534 C2522 1.349 . S
C2534 H2528 0.950 . S
C2534 C2535 1.327 . S
C2535 H2529 0.950 . S
C2535 C2534 1.327 . S
C2535 C2539 1.429 . S
C2536 C2519 1.574 . S
C2536 H2530 0.949 . S
C2536 C2540 1.368 . S
C2537 C2518 1.429 . S
C2537 C2531 1.429 . S
C2537 C2538 1.523 . S
C2538 C2519 1.368 . S
C2538 C2532 1.368 . S
C2538 C2537 1.523 . S
C2539 C2523 1.429 . S
C2539 C2535 1.429 . S
C2539 C2540 1.523 . S
C2540 C2524 1.368 . S
C2540 C2536 1.368 . S
C2540 C2539 1.523 . S
H2541 C2516 0.950 . S
H2542 C2518 0.950 . S
H2543 C2519 0.949 . S
H2544 C2521 0.950 . S
H2545 C2523 0.950 . S
C2546 C2547 1.349 . S
C2546 C2548 1.327 . S
C2546 H2571 0.950 . S
C2547 C2546 1.349 . S
C2547 C2563 1.349 . S
C2548 C2546 1.327 . S
C2548 C2567 1.429 . S
C2548 H2572 0.950 . S
C2549 C2566 1.574 . S
C2549 C2568 1.368 . S
C2549 H2573 0.949 . S
H2550 C2554 0.949 . S
C2551 C2552 1.349 . S
C2551 C2553 1.327 . S
C2551 H2574 0.950 . S
C2552 C2551 1.349 . S
C2552 C2564 1.349 . S
C2553 C2551 1.327 . S
C2553 C2569 1.429 . S
C2553 H2575 0.950 . S
C2554 H2550 0.949 . S
C2554 C2562 1.574 . S
C2554 C2570 1.368 . S
H2555 C2563 0.950 . S
H2556 C2561 0.950 . S
H2557 C2562 0.949 . S
H2558 C2564 0.950 . S
H2559 C2565 0.950 . S
H2560 C2566 0.949 . S
C2561 H2556 0.950 . S
C2561 C2563 1.327 . S
C2561 C2567 1.429 . S
C2562 C2554 1.574 . S
C2562 H2557 0.949 . S
C2562 C2568 1.368 . S
C2563 C2547 1.349 . S
C2563 H2555 0.950 . S
C2563 C2561 1.327 . S
C2564 C2552 1.349 . S
C2564 H2558 0.950 . S
C2564 C2565 1.327 . S
C2565 H2559 0.950 . S
C2565 C2564 1.327 . S
C2565 C2569 1.429 . S
C2566 C2549 1.574 . S
C2566 H2560 0.949 . S
C2566 C2570 1.368 . S
C2567 C2548 1.429 . S
C2567 C2561 1.429 . S
C2567 C2568 1.523 . S
C2568 C2549 1.368 . S
C2568 C2562 1.368 . S
C2568 C2567 1.523 . S
C2569 C2553 1.429 . S
C2569 C2565 1.429 . S
C2569 C2570 1.523 . S
C2570 C2554 1.368 . S
C2570 C2566 1.368 . S
C2570 C2569 1.523 . S
H2571 C2546 0.950 . S
H2572 C2548 0.950 . S
H2573 C2549 0.949 . S
H2574 C2551 0.950 . S
H2575 C2553 0.950 . S
C2576 C2577 1.349 . S
C2576 C2578 1.327 . S
C2576 H2601 0.950 . S
C2577 C2576 1.349 . S
C2577 C2593 1.349 . S
C2578 C2576 1.327 . S
C2578 C2597 1.429 . S
C2578 H2602 0.950 . S
C2579 C2596 1.574 . S
C2579 C2598 1.368 . S
C2579 H2603 0.949 . S
H2580 C2584 0.949 . S
C2581 C2582 1.349 . S
C2581 C2583 1.327 . S
C2581 H2604 0.950 . S
C2582 C2581 1.349 . S
C2582 C2594 1.349 . S
C2583 C2581 1.327 . S
C2583 C2599 1.429 . S
C2583 H2605 0.950 . S
C2584 H2580 0.949 . S
C2584 C2592 1.574 . S
C2584 C2600 1.368 . S
H2585 C2593 0.950 . S
H2586 C2591 0.950 . S
H2587 C2592 0.949 . S
H2588 C2594 0.950 . S
H2589 C2595 0.950 . S
H2590 C2596 0.949 . S
C2591 H2586 0.950 . S
C2591 C2593 1.327 . S
C2591 C2597 1.429 . S
C2592 C2584 1.574 . S
C2592 H2587 0.949 . S
C2592 C2598 1.368 . S
C2593 C2577 1.349 . S
C2593 H2585 0.950 . S
C2593 C2591 1.327 . S
C2594 C2582 1.349 . S
C2594 H2588 0.950 . S
C2594 C2595 1.327 . S
C2595 H2589 0.950 . S
C2595 C2594 1.327 . S
C2595 C2599 1.429 . S
C2596 C2579 1.574 . S
C2596 H2590 0.949 . S
C2596 C2600 1.368 . S
C2597 C2578 1.429 . S
C2597 C2591 1.429 . S
C2597 C2598 1.523 . S
C2598 C2579 1.368 . S
C2598 C2592 1.368 . S
C2598 C2597 1.523 . S
C2599 C2583 1.429 . S
C2599 C2595 1.429 . S
C2599 C2600 1.523 . S
C2600 C2584 1.368 . S
C2600 C2596 1.368 . S
C2600 C2599 1.523 . S
H2601 C2576 0.950 . S
H2602 C2578 0.950 . S
H2603 C2579 0.949 . S
H2604 C2581 0.950 . S
H2605 C2583 0.950 . S
C2606 C2607 1.349 . S
C2606 C2608 1.327 . S
C2606 H2631 0.950 . S
C2607 C2606 1.349 . S
C2607 C2623 1.349 . S
C2608 C2606 1.327 . S
C2608 C2627 1.429 . S
C2608 H2632 0.950 . S
C2609 C2626 1.574 . S
C2609 C2628 1.368 . S
C2609 H2633 0.949 . S
H2610 C2614 0.949 . S
C2611 C2612 1.349 . S
C2611 C2613 1.327 . S
C2611 H2634 0.950 . S
C2612 C2611 1.349 . S
C2612 C2624 1.349 . S
C2613 C2611 1.327 . S
C2613 C2629 1.429 . S
C2613 H2635 0.950 . S
C2614 H2610 0.949 . S
C2614 C2622 1.574 . S
C2614 C2630 1.368 . S
H2615 C2623 0.950 . S
H2616 C2621 0.950 . S
H2617 C2622 0.949 . S
H2618 C2624 0.950 . S
H2619 C2625 0.950 . S
H2620 C2626 0.949 . S
C2621 H2616 0.950 . S
C2621 C2623 1.327 . S
C2621 C2627 1.429 . S
C2622 C2614 1.574 . S
C2622 H2617 0.949 . S
C2622 C2628 1.368 . S
C2623 C2607 1.349 . S
C2623 H2615 0.950 . S
C2623 C2621 1.327 . S
C2624 C2612 1.349 . S
C2624 H2618 0.950 . S
C2624 C2625 1.327 . S
C2625 H2619 0.950 . S
C2625 C2624 1.327 . S
C2625 C2629 1.429 . S
C2626 C2609 1.574 . S
C2626 H2620 0.949 . S
C2626 C2630 1.368 . S
C2627 C2608 1.429 . S
C2627 C2621 1.429 . S
C2627 C2628 1.523 . S
C2628 C2609 1.368 . S
C2628 C2622 1.368 . S
C2628 C2627 1.523 . S
C2629 C2613 1.429 . S
C2629 C2625 1.429 . S
C2629 C2630 1.523 . S
C2630 C2614 1.368 . S
C2630 C2626 1.368 . S
C2630 C2629 1.523 . S
H2631 C2606 0.950 . S
H2632 C2608 0.950 . S
H2633 C2609 0.949 . S
H2634 C2611 0.950 . S
H2635 C2613 0.950 . S
C2636 C2637 1.349 . S
C2636 C2638 1.327 . S
C2636 H2661 0.950 . S
C2637 C2636 1.349 . S
C2637 C2653 1.349 . S
C2638 C2636 1.327 . S
C2638 C2657 1.429 . S
C2638 H2662 0.950 . S
C2639 C2656 1.574 . S
C2639 C2658 1.368 . S
C2639 H2663 0.949 . S
H2640 C2644 0.949 . S
C2641 C2642 1.349 . S
C2641 C2643 1.327 . S
C2641 H2664 0.950 . S
C2642 C2641 1.349 . S
C2642 C2654 1.349 . S
C2643 C2641 1.327 . S
C2643 C2659 1.429 . S
C2643 H2665 0.950 . S
C2644 H2640 0.949 . S
C2644 C2652 1.574 . S
C2644 C2660 1.368 . S
H2645 C2653 0.950 . S
H2646 C2651 0.950 . S
H2647 C2652 0.949 . S
H2648 C2654 0.950 . S
H2649 C2655 0.950 . S
H2650 C2656 0.949 . S
C2651 H2646 0.950 . S
C2651 C2653 1.327 . S
C2651 C2657 1.429 . S
C2652 C2644 1.574 . S
C2652 H2647 0.949 . S
C2652 C2658 1.368 . S
C2653 C2637 1.349 . S
C2653 H2645 0.950 . S
C2653 C2651 1.327 . S
C2654 C2642 1.349 . S
C2654 H2648 0.950 . S
C2654 C2655 1.327 . S
C2655 H2649 0.950 . S
C2655 C2654 1.327 . S
C2655 C2659 1.429 . S
C2656 C2639 1.574 . S
C2656 H2650 0.949 . S
C2656 C2660 1.368 . S
C2657 C2638 1.429 . S
C2657 C2651 1.429 . S
C2657 C2658 1.523 . S
C2658 C2639 1.368 . S
C2658 C2652 1.368 . S
C2658 C2657 1.523 . S
C2659 C2643 1.429 . S
C2659 C2655 1.429 . S
C2659 C2660 1.523 . S
C2660 C2644 1.368 . S
C2660 C2656 1.368 . S
C2660 C2659 1.523 . S
H2661 C2636 0.950 . S
H2662 C2638 0.950 . S
H2663 C2639 0.949 . S
H2664 C2641 0.950 . S
H2665 C2643 0.950 . S
C2666 C2667 1.349 . S
C2666 C2668 1.327 . S
C2666 H2691 0.950 . S
C2667 C2666 1.349 . S
C2667 C2683 1.349 . S
C2668 C2666 1.327 . S
C2668 C2687 1.429 . S
C2668 H2692 0.950 . S
C2669 C2686 1.574 . S
C2669 C2688 1.368 . S
C2669 H2693 0.949 . S
H2670 C2674 0.949 . S
C2671 C2672 1.349 . S
C2671 C2673 1.327 . S
C2671 H2694 0.950 1_554 S
C2672 C2671 1.349 . S
C2672 C2684 1.349 1_545 S
C2673 C2671 1.327 . S
C2673 C2689 1.429 1_545 S
C2673 H2695 0.950 1_554 S
C2674 H2670 0.949 . S
C2674 C2682 1.574 . S
C2674 C2690 1.368 . S
H2675 C2683 0.950 . S
H2676 C2681 0.950 . S
H2677 C2682 0.949 . S
H2678 C2684 0.950 . S
H2679 C2685 0.950 . S
H2680 C2686 0.949 1_556 S
C2681 H2676 0.950 . S
C2681 C2683 1.327 . S
C2681 C2687 1.429 . S
C2682 C2674 1.574 . S
C2682 H2677 0.949 . S
C2682 C2688 1.368 . S
C2683 C2667 1.349 . S
C2683 H2675 0.950 . S
C2683 C2681 1.327 . S
C2684 C2672 1.349 1_565 S
C2684 H2678 0.950 . S
C2684 C2685 1.327 . S
C2685 H2679 0.950 . S
C2685 C2684 1.327 . S
C2685 C2689 1.429 . S
C2686 C2669 1.574 . S
C2686 H2680 0.949 1_554 S
C2686 C2690 1.368 . S
C2687 C2668 1.429 . S
C2687 C2681 1.429 . S
C2687 C2688 1.523 . S
C2688 C2669 1.368 . S
C2688 C2682 1.368 . S
C2688 C2687 1.523 . S
C2689 C2673 1.429 1_565 S
C2689 C2685 1.429 . S
C2689 C2690 1.523 . S
C2690 C2674 1.368 . S
C2690 C2686 1.368 . S
C2690 C2689 1.523 . S
H2691 C2666 0.950 . S
H2692 C2668 0.950 . S
H2693 C2669 0.949 . S
H2694 C2671 0.950 1_556 S
H2695 C2673 0.950 1_556 S
C2696 C2697 1.349 . S
C2696 C2698 1.327 . S
C2696 H2721 0.950 . S
C2697 C2696 1.349 . S
C2697 C2713 1.349 . S
C2698 C2696 1.327 . S
C2698 C2717 1.429 . S
C2698 H2722 0.950 . S
C2699 C2716 1.574 . S
C2699 C2718 1.368 . S
C2699 H2723 0.949 . S
H2700 C2704 0.949 . S
C2701 C2702 1.349 . S
C2701 C2703 1.327 . S
C2701 H2724 0.950 . S
C2702 C2701 1.349 . S
C2702 C2714 1.349 . S
C2703 C2701 1.327 . S
C2703 C2719 1.429 . S
C2703 H2725 0.950 . S
C2704 H2700 0.949 . S
C2704 C2712 1.574 . S
C2704 C2720 1.368 . S
H2705 C2713 0.950 . S
H2706 C2711 0.950 . S
H2707 C2712 0.949 . S
H2708 C2714 0.950 . S
H2709 C2715 0.950 . S
H2710 C2716 0.949 . S
C2711 H2706 0.950 . S
C2711 C2713 1.327 . S
C2711 C2717 1.429 . S
C2712 C2704 1.574 . S
C2712 H2707 0.949 . S
C2712 C2718 1.368 . S
C2713 C2697 1.349 . S
C2713 H2705 0.950 . S
C2713 C2711 1.327 . S
C2714 C2702 1.349 . S
C2714 H2708 0.950 . S
C2714 C2715 1.327 . S
C2715 H2709 0.950 . S
C2715 C2714 1.327 . S
C2715 C2719 1.429 . S
C2716 C2699 1.574 . S
C2716 H2710 0.949 . S
C2716 C2720 1.368 . S
C2717 C2698 1.429 . S
C2717 C2711 1.429 . S
C2717 C2718 1.523 . S
C2718 C2699 1.368 . S
C2718 C2712 1.368 . S
C2718 C2717 1.523 . S
C2719 C2703 1.429 . S
C2719 C2715 1.429 . S
C2719 C2720 1.523 . S
C2720 C2704 1.368 . S
C2720 C2716 1.368 . S
C2720 C2719 1.523 . S
H2721 C2696 0.950 . S
H2722 C2698 0.950 . S
H2723 C2699 0.949 . S
H2724 C2701 0.950 . S
H2725 C2703 0.950 . S
C2726 C2727 1.349 . S
C2726 C2728 1.327 . S
C2726 H2751 0.950 1_554 S
C2727 C2726 1.349 . S
C2727 C2743 1.349 . S
C2728 C2726 1.327 . S
C2728 C2747 1.429 . S
C2728 H2752 0.950 1_554 S
C2729 C2746 1.574 . S
C2729 C2748 1.368 . S
C2729 H2753 0.949 . S
H2730 C2734 0.943 1_556 S
C2731 C2732 1.349 . S
C2731 C2733 1.327 . S
C2731 H2754 0.950 . S
C2732 C2731 1.349 . S
C2732 C2744 1.349 . S
C2733 C2731 1.327 . S
C2733 C2749 1.429 . S
C2733 H2755 0.950 . S
C2734 H2730 0.943 1_554 S
C2734 C2742 1.574 . S
C2734 C2750 1.368 . S
H2735 C2743 0.950 . S
H2736 C2741 0.950 . S
H2737 C2742 0.949 1_556 S
H2738 C2744 0.950 . S
H2739 C2745 0.950 . S
H2740 C2746 0.949 . S
C2741 H2736 0.950 . S
C2741 C2743 1.327 . S
C2741 C2747 1.429 . S
C2742 C2734 1.574 . S
C2742 H2737 0.949 1_554 S
C2742 C2748 1.368 . S
C2743 C2727 1.349 . S
C2743 H2735 0.950 . S
C2743 C2741 1.327 . S
C2744 C2732 1.349 . S
C2744 H2738 0.950 . S
C2744 C2745 1.327 . S
C2745 H2739 0.950 . S
C2745 C2744 1.327 . S
C2745 C2749 1.429 . S
C2746 C2729 1.574 . S
C2746 H2740 0.949 . S
C2746 C2750 1.368 . S
C2747 C2728 1.429 . S
C2747 C2741 1.429 . S
C2747 C2748 1.523 . S
C2748 C2729 1.368 . S
C2748 C2742 1.368 . S
C2748 C2747 1.523 . S
C2749 C2733 1.429 . S
C2749 C2745 1.429 . S
C2749 C2750 1.523 . S
C2750 C2734 1.368 . S
C2750 C2746 1.368 . S
C2750 C2749 1.523 . S
H2751 C2726 0.950 1_556 S
H2752 C2728 0.950 1_556 S
H2753 C2729 0.949 . S
H2754 C2731 0.950 . S
H2755 C2733 0.950 . S
C2756 C2757 1.349 . S
C2756 C2758 1.327 . S
C2756 H2781 0.950 . S
C2757 C2756 1.349 . S
C2757 C2773 1.349 . S
C2758 C2756 1.327 . S
C2758 C2777 1.429 . S
C2758 H2782 0.950 . S
C2759 C2776 1.574 . S
C2759 C2778 1.368 . S
C2759 H2783 0.949 . S
H2760 C2764 0.949 . S
C2761 C2762 1.349 . S
C2761 C2763 1.327 . S
C2761 H2784 0.950 . S
C2762 C2761 1.349 . S
C2762 C2774 1.349 . S
C2763 C2761 1.327 . S
C2763 C2779 1.429 . S
C2763 H2785 0.950 . S
C2764 H2760 0.949 . S
C2764 C2772 1.574 . S
C2764 C2780 1.368 . S
H2765 C2773 0.950 . S
H2766 C2771 0.950 . S
H2767 C2772 0.949 . S
H2768 C2774 0.950 . S
H2769 C2775 0.950 . S
H2770 C2776 0.949 . S
C2771 H2766 0.950 . S
C2771 C2773 1.327 . S
C2771 C2777 1.429 . S
C2772 C2764 1.574 . S
C2772 H2767 0.949 . S
C2772 C2778 1.368 . S
C2773 C2757 1.349 . S
C2773 H2765 0.950 . S
C2773 C2771 1.327 . S
C2774 C2762 1.349 . S
C2774 H2768 0.950 . S
C2774 C2775 1.327 . S
C2775 H2769 0.950 . S
C2775 C2774 1.327 . S
C2775 C2779 1.429 . S
C2776 C2759 1.574 . S
C2776 H2770 0.949 . S
C2776 C2780 1.368 . S
C2777 C2758 1.429 . S
C2777 C2771 1.429 . S
C2777 C2778 1.523 . S
C2778 C2759 1.368 . S
C2778 C2772 1.368 . S
C2778 C2777 1.523 . S
C2779 C2763 1.429 . S
C2779 C2775 1.429 . S
C2779 C2780 1.523 . S
C2780 C2764 1.368 . S
C2780 C2776 1.368 . S
C2780 C2779 1.523 . S
H2781 C2756 0.950 . S
H2782 C2758 0.950 . S
H2783 C2759 0.949 . S
H2784 C2761 0.950 . S
H2785 C2763 0.950 . S
C2786 C2787 1.349 . S
C2786 C2788 1.327 . S
C2786 H2811 0.950 . S
C2787 C2786 1.349 . S
C2787 C2803 1.349 . S
C2788 C2786 1.327 . S
C2788 C2807 1.429 . S
C2788 H2812 0.950 . S
C2789 C2806 1.574 . S
C2789 C2808 1.368 . S
C2789 H2813 0.949 . S
H2790 C2794 0.949 . S
C2791 C2792 1.349 . S
C2791 C2793 1.327 . S
C2791 H2814 0.950 . S
C2792 C2791 1.349 . S
C2792 C2804 1.349 . S
C2793 C2791 1.327 . S
C2793 C2809 1.429 . S
C2793 H2815 0.950 . S
C2794 H2790 0.949 . S
C2794 C2802 1.574 . S
C2794 C2810 1.368 . S
H2795 C2803 0.950 . S
H2796 C2801 0.950 . S
H2797 C2802 0.949 . S
H2798 C2804 0.950 . S
H2799 C2805 0.950 . S
H2800 C2806 0.949 . S
C2801 H2796 0.950 . S
C2801 C2803 1.327 . S
C2801 C2807 1.429 . S
C2802 C2794 1.574 . S
C2802 H2797 0.949 . S
C2802 C2808 1.368 . S
C2803 C2787 1.349 . S
C2803 H2795 0.950 . S
C2803 C2801 1.327 . S
C2804 C2792 1.349 . S
C2804 H2798 0.950 . S
C2804 C2805 1.327 . S
C2805 H2799 0.950 . S
C2805 C2804 1.327 . S
C2805 C2809 1.429 . S
C2806 C2789 1.574 . S
C2806 H2800 0.949 . S
C2806 C2810 1.368 . S
C2807 C2788 1.429 . S
C2807 C2801 1.429 . S
C2807 C2808 1.523 . S
C2808 C2789 1.368 . S
C2808 C2802 1.368 . S
C2808 C2807 1.523 . S
C2809 C2793 1.429 . S
C2809 C2805 1.429 . S
C2809 C2810 1.523 . S
C2810 C2794 1.368 . S
C2810 C2806 1.368 . S
C2810 C2809 1.523 . S
H2811 C2786 0.950 . S
H2812 C2788 0.950 . S
H2813 C2789 0.949 . S
H2814 C2791 0.950 . S
H2815 C2793 0.950 . S
C2816 C2817 1.349 . S
C2816 C2818 1.327 . S
C2816 H2841 0.950 . S
C2817 C2816 1.349 . S
C2817 C2833 1.349 . S
C2818 C2816 1.327 . S
C2818 C2837 1.429 . S
C2818 H2842 0.950 . S
C2819 C2836 1.574 . S
C2819 C2838 1.368 . S
C2819 H2843 0.949 . S
H2820 C2824 0.949 . S
C2821 C2822 1.349 . S
C2821 C2823 1.327 . S
C2821 H2844 0.950 . S
C2822 C2821 1.349 . S
C2822 C2834 1.349 . S
C2823 C2821 1.327 . S
C2823 C2839 1.429 . S
C2823 H2845 0.950 . S
C2824 H2820 0.949 . S
C2824 C2832 1.574 . S
C2824 C2840 1.368 . S
H2825 C2833 0.950 . S
H2826 C2831 0.950 . S
H2827 C2832 0.949 . S
H2828 C2834 0.950 . S
H2829 C2835 0.950 . S
H2830 C2836 0.949 . S
C2831 H2826 0.950 . S
C2831 C2833 1.327 . S
C2831 C2837 1.429 . S
C2832 C2824 1.574 . S
C2832 H2827 0.949 . S
C2832 C2838 1.368 . S
C2833 C2817 1.349 . S
C2833 H2825 0.950 . S
C2833 C2831 1.327 . S
C2834 C2822 1.349 . S
C2834 H2828 0.950 . S
C2834 C2835 1.327 . S
C2835 H2829 0.950 . S
C2835 C2834 1.327 . S
C2835 C2839 1.429 . S
C2836 C2819 1.574 . S
C2836 H2830 0.949 . S
C2836 C2840 1.368 . S
C2837 C2818 1.429 . S
C2837 C2831 1.429 . S
C2837 C2838 1.523 . S
C2838 C2819 1.368 . S
C2838 C2832 1.368 . S
C2838 C2837 1.523 . S
C2839 C2823 1.429 . S
C2839 C2835 1.429 . S
C2839 C2840 1.523 . S
C2840 C2824 1.368 . S
C2840 C2836 1.368 . S
C2840 C2839 1.523 . S
H2841 C2816 0.950 . S
H2842 C2818 0.950 . S
H2843 C2819 0.949 . S
H2844 C2821 0.950 . S
H2845 C2823 0.950 . S
C2846 C2847 1.349 . S
C2846 C2848 1.327 . S
C2846 H2871 0.950 . S
C2847 C2846 1.349 . S
C2847 C2863 1.349 . S
C2848 C2846 1.327 . S
C2848 C2867 1.429 . S
C2848 H2872 0.950 . S
C2849 C2866 1.574 . S
C2849 C2868 1.368 . S
C2849 H2873 0.949 . S
H2850 C2854 0.949 . S
C2851 C2852 1.349 . S
C2851 C2853 1.327 . S
C2851 H2874 0.950 . S
C2852 C2851 1.349 . S
C2852 C2864 1.349 . S
C2853 C2851 1.327 . S
C2853 C2869 1.429 . S
C2853 H2875 0.950 . S
C2854 H2850 0.949 . S
C2854 C2862 1.574 . S
C2854 C2870 1.368 . S
H2855 C2863 0.950 . S
H2856 C2861 0.950 . S
H2857 C2862 0.949 . S
H2858 C2864 0.950 . S
H2859 C2865 0.950 . S
H2860 C2866 0.949 . S
C2861 H2856 0.950 . S
C2861 C2863 1.327 . S
C2861 C2867 1.429 . S
C2862 C2854 1.574 . S
C2862 H2857 0.949 . S
C2862 C2868 1.368 . S
C2863 C2847 1.349 . S
C2863 H2855 0.950 . S
C2863 C2861 1.327 . S
C2864 C2852 1.349 . S
C2864 H2858 0.950 . S
C2864 C2865 1.327 . S
C2865 H2859 0.950 . S
C2865 C2864 1.327 . S
C2865 C2869 1.429 . S
C2866 C2849 1.574 . S
C2866 H2860 0.949 . S
C2866 C2870 1.368 . S
C2867 C2848 1.429 . S
C2867 C2861 1.429 . S
C2867 C2868 1.523 . S
C2868 C2849 1.368 . S
C2868 C2862 1.368 . S
C2868 C2867 1.523 . S
C2869 C2853 1.429 . S
C2869 C2865 1.429 . S
C2869 C2870 1.523 . S
C2870 C2854 1.368 . S
C2870 C2866 1.368 . S
C2870 C2869 1.523 . S
H2871 C2846 0.950 . S
H2872 C2848 0.950 . S
H2873 C2849 0.949 . S
H2874 C2851 0.950 . S
H2875 C2853 0.950 . S
C2876 C2877 1.349 . S
C2876 C2878 1.327 . S
C2876 H2901 0.950 . S
C2877 C2876 1.349 . S
C2877 C2893 1.349 . S
C2878 C2876 1.327 . S
C2878 C2897 1.429 . S
C2878 H2902 0.950 . S
C2879 C2896 1.574 . S
C2879 C2898 1.368 1_655 S
C2879 H2903 0.949 . S
H2880 C2884 0.949 . S
C2881 C2882 1.349 1_655 S
C2881 C2883 1.327 . S
C2881 H2904 0.950 . S
C2882 C2881 1.349 1_455 S
C2882 C2894 1.349 . S
C2883 C2881 1.327 . S
C2883 C2899 1.429 1_655 S
C2883 H2905 0.950 . S
C2884 H2880 0.949 . S
C2884 C2892 1.574 . S
C2884 C2900 1.368 . S
H2885 C2893 0.950 1_655 S
H2886 C2891 0.901 1_655 S
H2887 C2892 0.949 . S
H2888 C2894 0.950 . S
H2889 C2895 0.950 . S
H2890 C2896 0.949 . S
C2891 H2886 0.901 1_455 S
C2891 C2893 1.319 . S
C2891 C2897 1.487 . S
C2892 C2884 1.574 . S
C2892 H2887 0.949 . S
C2892 C2898 1.368 . S
C2893 C2877 1.349 . S
C2893 H2885 0.950 1_455 S
C2893 C2891 1.319 . S
C2894 C2882 1.349 . S
C2894 H2888 0.950 . S
C2894 C2895 1.327 . S
C2895 H2889 0.950 . S
C2895 C2894 1.327 . S
C2895 C2899 1.429 . S
C2896 C2879 1.574 . S
C2896 H2890 0.949 . S
C2896 C2900 1.368 1_655 S
C2897 C2878 1.429 . S
C2897 C2891 1.487 . S
C2897 C2898 1.523 . S
C2898 C2879 1.368 1_455 S
C2898 C2892 1.368 . S
C2898 C2897 1.523 . S
C2899 C2883 1.429 1_455 S
C2899 C2895 1.429 . S
C2899 C2900 1.523 . S
C2900 C2884 1.368 . S
C2900 C2896 1.368 1_455 S
C2900 C2899 1.523 . S
H2901 C2876 0.950 . S
H2902 C2878 0.950 . S
H2903 C2879 0.949 . S
H2904 C2881 0.950 . S
H2905 C2883 0.950 . S
C2906 C2907 1.349 . S
C2906 C2908 1.327 . S
C2906 H2931 0.950 . S
C2907 C2906 1.349 . S
C2907 C2923 1.349 . S
C2908 C2906 1.327 . S
C2908 C2927 1.429 . S
C2908 H2932 0.950 . S
C2909 C2926 1.574 . S
C2909 C2928 1.368 . S
C2909 H2933 0.949 . S
H2910 C2914 0.949 . S
C2911 C2912 1.349 . S
C2911 C2913 1.327 . S
C2911 H2934 0.950 . S
C2912 C2911 1.349 . S
C2912 C2924 1.349 . S
C2913 C2911 1.327 . S
C2913 C2929 1.429 . S
C2913 H2935 0.950 . S
C2914 H2910 0.949 . S
C2914 C2922 1.574 . S
C2914 C2930 1.368 . S
H2915 C2923 0.950 . S
H2916 C2921 0.950 . S
H2917 C2922 0.949 . S
H2918 C2924 0.950 . S
H2919 C2925 0.950 . S
H2920 C2926 0.949 . S
C2921 H2916 0.950 . S
C2921 C2923 1.327 . S
C2921 C2927 1.429 . S
C2922 C2914 1.574 . S
C2922 H2917 0.949 . S
C2922 C2928 1.368 . S
C2923 C2907 1.349 . S
C2923 H2915 0.950 . S
C2923 C2921 1.327 . S
C2924 C2912 1.349 . S
C2924 H2918 0.950 . S
C2924 C2925 1.327 . S
C2925 H2919 0.950 . S
C2925 C2924 1.327 . S
C2925 C2929 1.429 . S
C2926 C2909 1.574 . S
C2926 H2920 0.949 . S
C2926 C2930 1.368 . S
C2927 C2908 1.429 . S
C2927 C2921 1.429 . S
C2927 C2928 1.523 . S
C2928 C2909 1.368 . S
C2928 C2922 1.368 . S
C2928 C2927 1.523 . S
C2929 C2913 1.429 . S
C2929 C2925 1.429 . S
C2929 C2930 1.523 . S
C2930 C2914 1.368 . S
C2930 C2926 1.368 . S
C2930 C2929 1.523 . S
H2931 C2906 0.950 . S
H2932 C2908 0.950 . S
H2933 C2909 0.949 . S
H2934 C2911 0.950 . S
H2935 C2913 0.950 . S
C2936 C2937 1.349 . S
C2936 C2938 1.327 . S
C2936 H2961 0.950 . S
C2937 C2936 1.349 . S
C2937 C2953 1.349 . S
C2938 C2936 1.327 . S
C2938 C2957 1.429 . S
C2938 H2962 0.950 . S
C2939 C2956 1.574 . S
C2939 C2958 1.368 . S
C2939 H2963 0.949 . S
H2940 C2944 0.949 . S
C2941 C2942 1.349 . S
C2941 C2943 1.327 . S
C2941 H2964 0.950 . S
C2942 C2941 1.349 . S
C2942 C2954 1.349 1_556 S
C2943 C2941 1.327 . S
C2943 C2959 1.429 . S
C2943 H2965 0.950 . S
C2944 H2940 0.949 . S
C2944 C2952 1.574 . S
C2944 C2960 1.368 . S
H2945 C2953 0.950 . S
H2946 C2951 0.950 . S
H2947 C2952 0.949 . S
H2948 C2954 0.950 . S
H2949 C2955 0.950 1_554 S
H2950 C2956 0.949 . S
C2951 H2946 0.950 . S
C2951 C2953 1.327 . S
C2951 C2957 1.429 . S
C2952 C2944 1.574 . S
C2952 H2947 0.949 . S
C2952 C2958 1.368 . S
C2953 C2937 1.349 . S
C2953 H2945 0.950 . S
C2953 C2951 1.327 . S
C2954 C2942 1.349 1_554 S
C2954 H2948 0.950 . S
C2954 C2955 1.327 1_554 S
C2955 H2949 0.950 1_556 S
C2955 C2954 1.327 1_556 S
C2955 C2959 1.429 . S
C2956 C2939 1.574 . S
C2956 H2950 0.949 . S
C2956 C2960 1.368 . S
C2957 C2938 1.429 . S
C2957 C2951 1.429 . S
C2957 C2958 1.523 . S
C2958 C2939 1.368 . S
C2958 C2952 1.368 . S
C2958 C2957 1.523 . S
C2959 C2943 1.429 . S
C2959 C2955 1.429 . S
C2959 C2960 1.523 . S
C2960 C2944 1.368 . S
C2960 C2956 1.368 . S
C2960 C2959 1.523 . S
H2961 C2936 0.950 . S
H2962 C2938 0.950 . S
H2963 C2939 0.949 . S
H2964 C2941 0.950 . S
H2965 C2943 0.950 . S
C2966 C2967 1.349 . S
C2966 C2968 1.327 . S
C2966 H2991 0.950 . S
C2967 C2966 1.349 . S
C2967 C2983 1.349 . S
C2968 C2966 1.327 . S
C2968 C2987 1.429 . S
C2968 H2992 0.950 . S
C2969 C2986 1.574 . S
C2969 C2988 1.368 . S
C2969 H2993 0.949 . S
H2970 C2974 0.949 . S
C2971 C2972 1.349 . S
C2971 C2973 1.327 . S
C2971 H2994 0.950 . S
C2972 C2971 1.349 . S
C2972 C2984 1.349 . S
C2973 C2971 1.327 . S
C2973 C2989 1.429 . S
C2973 H2995 0.950 . S
C2974 H2970 0.949 . S
C2974 C2982 1.574 . S
C2974 C2990 1.368 . S
H2975 C2983 0.950 . S
H2976 C2981 0.950 . S
H2977 C2982 0.949 . S
H2978 C2984 0.950 . S
H2979 C2985 0.950 . S
H2980 C2986 0.949 . S
C2981 H2976 0.950 . S
C2981 C2983 1.327 . S
C2981 C2987 1.429 . S
C2982 C2974 1.574 . S
C2982 H2977 0.949 . S
C2982 C2988 1.368 . S
C2983 C2967 1.349 . S
C2983 H2975 0.950 . S
C2983 C2981 1.327 . S
C2984 C2972 1.349 . S
C2984 H2978 0.950 . S
C2984 C2985 1.327 . S
C2985 H2979 0.950 . S
C2985 C2984 1.327 . S
C2985 C2989 1.429 . S
C2986 C2969 1.574 . S
C2986 H2980 0.949 . S
C2986 C2990 1.368 . S
C2987 C2968 1.429 . S
C2987 C2981 1.429 . S
C2987 C2988 1.523 . S
C2988 C2969 1.368 . S
C2988 C2982 1.368 . S
C2988 C2987 1.523 . S
C2989 C2973 1.429 . S
C2989 C2985 1.429 . S
C2989 C2990 1.523 . S
C2990 C2974 1.368 . S
C2990 C2986 1.368 . S
C2990 C2989 1.523 . S
H2991 C2966 0.950 . S
H2992 C2968 0.950 . S
H2993 C2969 0.949 . S
H2994 C2971 0.950 . S
H2995 C2973 0.950 . S
C2996 C2997 1.349 . S
C2996 C2998 1.327 . S
C2996 H3021 0.950 1_455 S
C2997 C2996 1.349 . S
C2997 C3013 1.349 . S
C2998 C2996 1.327 . S
C2998 C3017 1.429 . S
C2998 H3022 0.950 1_455 S
C2999 C3016 1.574 . S
C2999 C3018 1.368 . S
C2999 H3023 0.949 . S
H3000 C3004 0.966 . S
C3001 C3002 1.349 . S
C3001 C3003 1.327 . S
C3001 H3024 0.950 . S
C3002 C3001 1.349 . S
C3002 C3014 1.336 1_455 S
C3003 C3001 1.327 . S
C3003 C3019 1.429 . S
C3003 H3025 0.950 . S
C3004 H3000 0.966 . S
C3004 C3012 1.569 1_655 S
C3004 C3020 1.353 1_655 S
H3005 C3013 0.950 . S
H3006 C3011 0.950 . S
H3007 C3012 0.947 1_655 S
H3008 C3014 0.966 . S
H3009 C3015 0.963 . S
H3010 C3016 0.949 . S
C3011 H3006 0.950 . S
C3011 C3013 1.327 . S
C3011 C3017 1.429 . S
C3012 C3004 1.569 1_455 S
C3012 H3007 0.947 1_455 S
C3012 C3018 1.371 . S
C3013 C2997 1.349 . S
C3013 H3005 0.950 . S
C3013 C3011 1.327 . S
C3014 C3002 1.336 1_655 S
C3014 H3008 0.966 . S
C3014 C3015 1.327 . S
C3015 H3009 0.963 . S
C3015 C3014 1.327 . S
C3015 C3019 1.412 1_655 S
C3016 C2999 1.574 . S
C3016 H3010 0.949 . S
C3016 C3020 1.368 . S
C3017 C2998 1.429 . S
C3017 C3011 1.429 . S
C3017 C3018 1.523 . S
C3018 C2999 1.368 . S
C3018 C3012 1.371 . S
C3018 C3017 1.523 . S
C3019 C3003 1.429 . S
C3019 C3015 1.412 1_455 S
C3019 C3020 1.523 . S
C3020 C3004 1.353 1_455 S
C3020 C3016 1.368 . S
C3020 C3019 1.523 . S
H3021 C2996 0.950 1_655 S
H3022 C2998 0.950 1_655 S
H3023 C2999 0.949 . S
H3024 C3001 0.950 . S
H3025 C3003 0.950 . S
C3026 C3027 1.349 . S
C3026 C3028 1.327 . S
C3026 H3051 0.950 . S
C3027 C3026 1.349 . S
C3027 C3043 1.349 . S
C3028 C3026 1.327 . S
C3028 C3047 1.429 . S
C3028 H3052 0.950 . S
C3029 C3046 1.574 . S
C3029 C3048 1.368 . S
C3029 H3053 0.949 . S
H3030 C3034 0.949 . S
C3031 C3032 1.349 . S
C3031 C3033 1.327 . S
C3031 H3054 0.950 . S
C3032 C3031 1.349 . S
C3032 C3044 1.349 . S
C3033 C3031 1.327 . S
C3033 C3049 1.429 . S
C3033 H3055 0.950 . S
C3034 H3030 0.949 . S
C3034 C3042 1.574 . S
C3034 C3050 1.368 . S
H3035 C3043 0.950 . S
H3036 C3041 0.950 . S
H3037 C3042 0.949 . S
H3038 C3044 0.950 . S
H3039 C3045 0.950 . S
H3040 C3046 0.949 . S
C3041 H3036 0.950 . S
C3041 C3043 1.327 . S
C3041 C3047 1.429 . S
C3042 C3034 1.574 . S
C3042 H3037 0.949 . S
C3042 C3048 1.368 . S
C3043 C3027 1.349 . S
C3043 H3035 0.950 . S
C3043 C3041 1.327 . S
C3044 C3032 1.349 . S
C3044 H3038 0.950 . S
C3044 C3045 1.327 . S
C3045 H3039 0.950 . S
C3045 C3044 1.327 . S
C3045 C3049 1.429 . S
C3046 C3029 1.574 . S
C3046 H3040 0.949 . S
C3046 C3050 1.368 . S
C3047 C3028 1.429 . S
C3047 C3041 1.429 . S
C3047 C3048 1.523 . S
C3048 C3029 1.368 . S
C3048 C3042 1.368 . S
C3048 C3047 1.523 . S
C3049 C3033 1.429 . S
C3049 C3045 1.429 . S
C3049 C3050 1.523 . S
C3050 C3034 1.368 . S
C3050 C3046 1.368 . S
C3050 C3049 1.523 . S
H3051 C3026 0.950 . S
H3052 C3028 0.950 . S
H3053 C3029 0.949 . S
H3054 C3031 0.950 . S
H3055 C3033 0.950 . S
C3056 C3057 1.349 . S
C3056 C3058 1.327 . S
C3056 H3081 0.950 . S
C3057 C3056 1.349 . S
C3057 C3073 1.349 . S
C3058 C3056 1.327 . S
C3058 C3077 1.429 . S
C3058 H3082 0.950 . S
C3059 C3076 1.574 . S
C3059 C3078 1.368 . S
C3059 H3083 0.949 . S
H3060 C3064 0.949 . S
C3061 C3062 1.349 . S
C3061 C3063 1.327 . S
C3061 H3084 0.950 . S
C3062 C3061 1.349 . S
C3062 C3074 1.349 . S
C3063 C3061 1.327 . S
C3063 C3079 1.429 . S
C3063 H3085 0.950 . S
C3064 H3060 0.949 . S
C3064 C3072 1.574 . S
C3064 C3080 1.368 . S
H3065 C3073 0.950 . S
H3066 C3071 0.950 . S
H3067 C3072 0.949 . S
H3068 C3074 0.950 . S
H3069 C3075 0.950 . S
H3070 C3076 0.949 . S
C3071 H3066 0.950 . S
C3071 C3073 1.327 . S
C3071 C3077 1.429 . S
C3072 C3064 1.574 . S
C3072 H3067 0.949 . S
C3072 C3078 1.368 . S
C3073 C3057 1.349 . S
C3073 H3065 0.950 . S
C3073 C3071 1.327 . S
C3074 C3062 1.349 . S
C3074 H3068 0.950 . S
C3074 C3075 1.327 . S
C3075 H3069 0.950 . S
C3075 C3074 1.327 . S
C3075 C3079 1.429 . S
C3076 C3059 1.574 . S
C3076 H3070 0.949 . S
C3076 C3080 1.368 . S
C3077 C3058 1.429 . S
C3077 C3071 1.429 . S
C3077 C3078 1.523 . S
C3078 C3059 1.368 . S
C3078 C3072 1.368 . S
C3078 C3077 1.523 . S
C3079 C3063 1.429 . S
C3079 C3075 1.429 . S
C3079 C3080 1.523 . S
C3080 C3064 1.368 . S
C3080 C3076 1.368 . S
C3080 C3079 1.523 . S
H3081 C3056 0.950 . S
H3082 C3058 0.950 . S
H3083 C3059 0.949 . S
H3084 C3061 0.950 . S
H3085 C3063 0.950 . S
C3086 C3087 1.349 . S
C3086 C3088 1.327 . S
C3086 H3111 0.950 . S
C3087 C3086 1.349 . S
C3087 C3103 1.349 . S
C3088 C3086 1.327 . S
C3088 C3107 1.429 . S
C3088 H3112 0.950 . S
C3089 C3106 1.574 . S
C3089 C3108 1.368 . S
C3089 H3113 0.949 . S
H3090 C3094 0.949 . S
C3091 C3092 1.349 . S
C3091 C3093 1.327 . S
C3091 H3114 0.950 . S
C3092 C3091 1.349 . S
C3092 C3104 1.349 . S
C3093 C3091 1.327 . S
C3093 C3109 1.429 . S
C3093 H3115 0.950 . S
C3094 H3090 0.949 . S
C3094 C3102 1.574 . S
C3094 C3110 1.368 . S
H3095 C3103 0.950 . S
H3096 C3101 0.950 . S
H3097 C3102 0.949 . S
H3098 C3104 0.950 . S
H3099 C3105 0.950 . S
H3100 C3106 0.949 . S
C3101 H3096 0.950 . S
C3101 C3103 1.327 . S
C3101 C3107 1.429 . S
C3102 C3094 1.574 . S
C3102 H3097 0.949 . S
C3102 C3108 1.368 . S
C3103 C3087 1.349 . S
C3103 H3095 0.950 . S
C3103 C3101 1.327 . S
C3104 C3092 1.349 . S
C3104 H3098 0.950 . S
C3104 C3105 1.327 . S
C3105 H3099 0.950 . S
C3105 C3104 1.327 . S
C3105 C3109 1.429 . S
C3106 C3089 1.574 . S
C3106 H3100 0.949 . S
C3106 C3110 1.368 . S
C3107 C3088 1.429 . S
C3107 C3101 1.429 . S
C3107 C3108 1.523 . S
C3108 C3089 1.368 . S
C3108 C3102 1.368 . S
C3108 C3107 1.523 . S
C3109 C3093 1.429 . S
C3109 C3105 1.429 . S
C3109 C3110 1.523 . S
C3110 C3094 1.368 . S
C3110 C3106 1.368 . S
C3110 C3109 1.523 . S
H3111 C3086 0.950 . S
H3112 C3088 0.950 . S
H3113 C3089 0.949 . S
H3114 C3091 0.950 . S
H3115 C3093 0.950 . S
C3116 C3117 1.349 . S
C3116 C3118 1.327 . S
C3116 H3141 0.950 . S
C3117 C3116 1.349 . S
C3117 C3133 1.349 . S
C3118 C3116 1.327 . S
C3118 C3137 1.429 . S
C3118 H3142 0.950 . S
C3119 C3136 1.574 . S
C3119 C3138 1.368 . S
C3119 H3143 0.949 . S
H3120 C3124 0.949 . S
C3121 C3122 1.349 . S
C3121 C3123 1.327 . S
C3121 H3144 0.950 . S
C3122 C3121 1.349 . S
C3122 C3134 1.349 . S
C3123 C3121 1.327 . S
C3123 C3139 1.429 . S
C3123 H3145 0.950 . S
C3124 H3120 0.949 . S
C3124 C3132 1.574 . S
C3124 C3140 1.368 . S
H3125 C3133 0.950 . S
H3126 C3131 0.950 . S
H3127 C3132 0.949 . S
H3128 C3134 0.950 . S
H3129 C3135 0.950 . S
H3130 C3136 0.949 . S
C3131 H3126 0.950 . S
C3131 C3133 1.327 . S
C3131 C3137 1.429 . S
C3132 C3124 1.574 . S
C3132 H3127 0.949 . S
C3132 C3138 1.368 . S
C3133 C3117 1.349 . S
C3133 H3125 0.950 . S
C3133 C3131 1.327 . S
C3134 C3122 1.349 . S
C3134 H3128 0.950 . S
C3134 C3135 1.327 . S
C3135 H3129 0.950 . S
C3135 C3134 1.327 . S
C3135 C3139 1.429 . S
C3136 C3119 1.574 . S
C3136 H3130 0.949 . S
C3136 C3140 1.368 . S
C3137 C3118 1.429 . S
C3137 C3131 1.429 . S
C3137 C3138 1.523 . S
C3138 C3119 1.368 . S
C3138 C3132 1.368 . S
C3138 C3137 1.523 . S
C3139 C3123 1.429 . S
C3139 C3135 1.429 . S
C3139 C3140 1.523 . S
C3140 C3124 1.368 . S
C3140 C3136 1.368 . S
C3140 C3139 1.523 . S
H3141 C3116 0.950 . S
H3142 C3118 0.950 . S
H3143 C3119 0.949 . S
H3144 C3121 0.950 . S
H3145 C3123 0.950 . S
C3146 C3147 1.349 . S
C3146 C3148 1.327 . S
C3146 H3171 0.950 . S
C3147 C3146 1.349 . S
C3147 C3163 1.349 . S
C3148 C3146 1.327 . S
C3148 C3167 1.429 . S
C3148 H3172 0.950 . S
C3149 C3166 1.574 . S
C3149 C3168 1.368 . S
C3149 H3173 0.949 . S
H3150 C3154 0.949 . S
C3151 C3152 1.349 . S
C3151 C3153 1.327 . S
C3151 H3174 0.950 . S
C3152 C3151 1.349 . S
C3152 C3164 1.349 . S
C3153 C3151 1.327 . S
C3153 C3169 1.429 . S
C3153 H3175 0.950 . S
C3154 H3150 0.949 . S
C3154 C3162 1.574 . S
C3154 C3170 1.368 . S
H3155 C3163 0.950 . S
H3156 C3161 0.950 . S
H3157 C3162 0.949 . S
H3158 C3164 0.950 . S
H3159 C3165 0.950 . S
H3160 C3166 0.949 . S
C3161 H3156 0.950 . S
C3161 C3163 1.327 . S
C3161 C3167 1.429 . S
C3162 C3154 1.574 . S
C3162 H3157 0.949 . S
C3162 C3168 1.368 . S
C3163 C3147 1.349 . S
C3163 H3155 0.950 . S
C3163 C3161 1.327 . S
C3164 C3152 1.349 . S
C3164 H3158 0.950 . S
C3164 C3165 1.327 . S
C3165 H3159 0.950 . S
C3165 C3164 1.327 . S
C3165 C3169 1.429 . S
C3166 C3149 1.574 . S
C3166 H3160 0.949 . S
C3166 C3170 1.368 . S
C3167 C3148 1.429 . S
C3167 C3161 1.429 . S
C3167 C3168 1.523 . S
C3168 C3149 1.368 . S
C3168 C3162 1.368 . S
C3168 C3167 1.523 . S
C3169 C3153 1.429 . S
C3169 C3165 1.429 . S
C3169 C3170 1.523 . S
C3170 C3154 1.368 . S
C3170 C3166 1.368 . S
C3170 C3169 1.523 . S
H3171 C3146 0.950 . S
H3172 C3148 0.950 . S
H3173 C3149 0.949 . S
H3174 C3151 0.950 . S
H3175 C3153 0.950 . S
C3176 C3177 1.349 . S
C3176 C3178 1.327 . S
C3176 H3201 0.950 . S
C3177 C3176 1.349 . S
C3177 C3193 1.349 . S
C3178 C3176 1.327 . S
C3178 C3197 1.429 . S
C3178 H3202 0.950 . S
C3179 C3196 1.574 . S
C3179 C3198 1.368 . S
C3179 H3203 0.949 . S
H3180 C3184 0.949 . S
C3181 C3182 1.349 . S
C3181 C3183 1.327 . S
C3181 H3204 0.950 . S
C3182 C3181 1.349 . S
C3182 C3194 1.349 . S
C3183 C3181 1.327 . S
C3183 C3199 1.429 . S
C3183 H3205 0.950 . S
C3184 H3180 0.949 . S
C3184 C3192 1.574 . S
C3184 C3200 1.368 . S
H3185 C3193 0.950 . S
H3186 C3191 0.950 . S
H3187 C3192 0.949 . S
H3188 C3194 0.950 . S
H3189 C3195 0.950 . S
H3190 C3196 0.949 . S
C3191 H3186 0.950 . S
C3191 C3193 1.327 . S
C3191 C3197 1.429 . S
C3192 C3184 1.574 . S
C3192 H3187 0.949 . S
C3192 C3198 1.368 . S
C3193 C3177 1.349 . S
C3193 H3185 0.950 . S
C3193 C3191 1.327 . S
C3194 C3182 1.349 . S
C3194 H3188 0.950 . S
C3194 C3195 1.327 . S
C3195 H3189 0.950 . S
C3195 C3194 1.327 . S
C3195 C3199 1.429 . S
C3196 C3179 1.574 . S
C3196 H3190 0.949 . S
C3196 C3200 1.368 . S
C3197 C3178 1.429 . S
C3197 C3191 1.429 . S
C3197 C3198 1.523 . S
C3198 C3179 1.368 . S
C3198 C3192 1.368 . S
C3198 C3197 1.523 . S
C3199 C3183 1.429 . S
C3199 C3195 1.429 . S
C3199 C3200 1.523 . S
C3200 C3184 1.368 . S
C3200 C3196 1.368 . S
C3200 C3199 1.523 . S
H3201 C3176 0.950 . S
H3202 C3178 0.950 . S
H3203 C3179 0.949 . S
H3204 C3181 0.950 . S
H3205 C3183 0.950 . S
C3206 C3207 1.349 . S
C3206 C3208 1.327 . S
C3206 H3231 0.950 . S
C3207 C3206 1.349 . S
C3207 C3223 1.349 . S
C3208 C3206 1.327 . S
C3208 C3227 1.429 . S
C3208 H3232 0.950 . S
C3209 C3226 1.574 . S
C3209 C3228 1.368 . S
C3209 H3233 0.949 . S
H3210 C3214 0.949 . S
C3211 C3212 1.349 . S
C3211 C3213 1.327 . S
C3211 H3234 0.950 . S
C3212 C3211 1.349 . S
C3212 C3224 1.349 . S
C3213 C3211 1.327 . S
C3213 C3229 1.429 . S
C3213 H3235 0.950 . S
C3214 H3210 0.949 . S
C3214 C3222 1.574 . S
C3214 C3230 1.368 . S
H3215 C3223 0.950 . S
H3216 C3221 0.950 . S
H3217 C3222 0.949 . S
H3218 C3224 0.950 . S
H3219 C3225 0.950 . S
H3220 C3226 0.949 . S
C3221 H3216 0.950 . S
C3221 C3223 1.327 . S
C3221 C3227 1.429 . S
C3222 C3214 1.574 . S
C3222 H3217 0.949 . S
C3222 C3228 1.368 . S
C3223 C3207 1.349 . S
C3223 H3215 0.950 . S
C3223 C3221 1.327 . S
C3224 C3212 1.349 . S
C3224 H3218 0.950 . S
C3224 C3225 1.327 . S
C3225 H3219 0.950 . S
C3225 C3224 1.327 . S
C3225 C3229 1.429 . S
C3226 C3209 1.574 . S
C3226 H3220 0.949 . S
C3226 C3230 1.368 . S
C3227 C3208 1.429 . S
C3227 C3221 1.429 . S
C3227 C3228 1.523 . S
C3228 C3209 1.368 . S
C3228 C3222 1.368 . S
C3228 C3227 1.523 . S
C3229 C3213 1.429 . S
C3229 C3225 1.429 . S
C3229 C3230 1.523 . S
C3230 C3214 1.368 . S
C3230 C3226 1.368 . S
C3230 C3229 1.523 . S
H3231 C3206 0.950 . S
H3232 C3208 0.950 . S
H3233 C3209 0.949 . S
H3234 C3211 0.950 . S
H3235 C3213 0.950 . S
C3236 C3237 1.349 . S
C3236 C3238 1.327 . S
C3236 H3261 0.950 . S
C3237 C3236 1.349 . S
C3237 C3253 1.349 . S
C3238 C3236 1.327 . S
C3238 C3257 1.429 . S
C3238 H3262 0.950 . S
C3239 C3256 1.574 . S
C3239 C3258 1.368 . S
C3239 H3263 0.949 . S
H3240 C3244 0.949 . S
C3241 C3242 1.349 . S
C3241 C3243 1.327 . S
C3241 H3264 0.950 1_655 S
C3242 C3241 1.349 . S
C3242 C3254 1.349 . S
C3243 C3241 1.327 . S
C3243 C3259 1.429 . S
C3243 H3265 0.950 . S
C3244 H3240 0.949 . S
C3244 C3252 1.574 . S
C3244 C3260 1.368 . S
H3245 C3253 0.950 . S
H3246 C3251 0.950 . S
H3247 C3252 0.949 . S
H3248 C3254 0.950 . S
H3249 C3255 0.950 . S
H3250 C3256 0.949 . S
C3251 H3246 0.950 . S
C3251 C3253 1.327 . S
C3251 C3257 1.429 . S
C3252 C3244 1.574 . S
C3252 H3247 0.949 . S
C3252 C3258 1.368 . S
C3253 C3237 1.349 . S
C3253 H3245 0.950 . S
C3253 C3251 1.327 . S
C3254 C3242 1.349 . S
C3254 H3248 0.950 . S
C3254 C3255 1.327 . S
C3255 H3249 0.950 . S
C3255 C3254 1.327 . S
C3255 C3259 1.429 . S
C3256 C3239 1.574 . S
C3256 H3250 0.949 . S
C3256 C3260 1.368 . S
C3257 C3238 1.429 . S
C3257 C3251 1.429 . S
C3257 C3258 1.523 . S
C3258 C3239 1.368 . S
C3258 C3252 1.368 . S
C3258 C3257 1.523 . S
C3259 C3243 1.429 . S
C3259 C3255 1.429 . S
C3259 C3260 1.523 . S
C3260 C3244 1.368 . S
C3260 C3256 1.368 . S
C3260 C3259 1.523 . S
H3261 C3236 0.950 . S
H3262 C3238 0.950 . S
H3263 C3239 0.949 . S
H3264 C3241 0.950 1_455 S
H3265 C3243 0.950 . S
C3266 C3267 1.349 . S
C3266 C3268 1.327 . S
C3266 H3291 0.950 . S
C3267 C3266 1.349 . S
C3267 C3283 1.349 . S
C3268 C3266 1.327 . S
C3268 C3287 1.429 . S
C3268 H3292 0.950 . S
C3269 C3286 1.574 . S
C3269 C3288 1.368 . S
C3269 H3293 0.949 . S
H3270 C3274 0.949 . S
C3271 C3272 1.349 . S
C3271 C3273 1.327 . S
C3271 H3294 0.950 . S
C3272 C3271 1.349 . S
C3272 C3284 1.349 . S
C3273 C3271 1.327 . S
C3273 C3289 1.429 . S
C3273 H3295 0.950 . S
C3274 H3270 0.949 . S
C3274 C3282 1.574 . S
C3274 C3290 1.368 . S
H3275 C3283 0.950 . S
H3276 C3281 0.950 . S
H3277 C3282 0.949 . S
H3278 C3284 0.950 . S
H3279 C3285 0.950 . S
H3280 C3286 0.949 . S
C3281 H3276 0.950 . S
C3281 C3283 1.327 . S
C3281 C3287 1.429 . S
C3282 C3274 1.574 . S
C3282 H3277 0.949 . S
C3282 C3288 1.368 . S
C3283 C3267 1.349 . S
C3283 H3275 0.950 . S
C3283 C3281 1.327 . S
C3284 C3272 1.349 . S
C3284 H3278 0.950 . S
C3284 C3285 1.327 . S
C3285 H3279 0.950 . S
C3285 C3284 1.327 . S
C3285 C3289 1.429 . S
C3286 C3269 1.574 . S
C3286 H3280 0.949 . S
C3286 C3290 1.368 . S
C3287 C3268 1.429 . S
C3287 C3281 1.429 . S
C3287 C3288 1.523 . S
C3288 C3269 1.368 . S
C3288 C3282 1.368 . S
C3288 C3287 1.523 . S
C3289 C3273 1.429 . S
C3289 C3285 1.429 . S
C3289 C3290 1.523 . S
C3290 C3274 1.368 . S
C3290 C3286 1.368 . S
C3290 C3289 1.523 . S
H3291 C3266 0.950 . S
H3292 C3268 0.950 . S
H3293 C3269 0.949 . S
H3294 C3271 0.950 . S
H3295 C3273 0.950 . S
C3296 C3297 1.349 . S
C3296 C3298 1.327 . S
C3296 H3321 0.950 . S
C3297 C3296 1.349 . S
C3297 C3313 1.349 . S
C3298 C3296 1.327 . S
C3298 C3317 1.429 . S
C3298 H3322 0.950 . S
C3299 C3316 1.574 . S
C3299 C3318 1.368 . S
C3299 H3323 0.949 . S
H3300 C3304 0.949 . S
C3301 C3302 1.349 . S
C3301 C3303 1.327 . S
C3301 H3324 0.950 . S
C3302 C3301 1.349 . S
C3302 C3314 1.349 . S
C3303 C3301 1.327 . S
C3303 C3319 1.429 . S
C3303 H3325 0.950 . S
C3304 H3300 0.949 . S
C3304 C3312 1.574 . S
C3304 C3320 1.368 . S
H3305 C3313 0.950 . S
H3306 C3311 0.950 . S
H3307 C3312 0.949 . S
H3308 C3314 0.950 . S
H3309 C3315 0.950 . S
H3310 C3316 0.949 . S
C3311 H3306 0.950 . S
C3311 C3313 1.327 . S
C3311 C3317 1.429 . S
C3312 C3304 1.574 . S
C3312 H3307 0.949 . S
C3312 C3318 1.368 . S
C3313 C3297 1.349 . S
C3313 H3305 0.950 . S
C3313 C3311 1.327 . S
C3314 C3302 1.349 . S
C3314 H3308 0.950 . S
C3314 C3315 1.327 . S
C3315 H3309 0.950 . S
C3315 C3314 1.327 . S
C3315 C3319 1.429 . S
C3316 C3299 1.574 . S
C3316 H3310 0.949 . S
C3316 C3320 1.368 . S
C3317 C3298 1.429 . S
C3317 C3311 1.429 . S
C3317 C3318 1.523 . S
C3318 C3299 1.368 . S
C3318 C3312 1.368 . S
C3318 C3317 1.523 . S
C3319 C3303 1.429 . S
C3319 C3315 1.429 . S
C3319 C3320 1.523 . S
C3320 C3304 1.368 . S
C3320 C3316 1.368 . S
C3320 C3319 1.523 . S
H3321 C3296 0.950 . S
H3322 C3298 0.950 . S
H3323 C3299 0.949 . S
H3324 C3301 0.950 . S
H3325 C3303 0.950 . S
C3326 C3327 1.349 . S
C3326 C3328 1.327 . S
C3326 H3351 0.950 . S
C3327 C3326 1.349 . S
C3327 C3343 1.349 . S
C3328 C3326 1.327 . S
C3328 C3347 1.429 . S
C3328 H3352 0.950 . S
C3329 C3346 1.574 . S
C3329 C3348 1.368 . S
C3329 H3353 0.949 . S
H3330 C3334 0.949 . S
C3331 C3332 1.349 1_565 S
C3331 C3333 1.327 . S
C3331 H3354 0.950 . S
C3332 C3331 1.349 1_545 S
C3332 C3344 1.349 . S
C3333 C3331 1.327 . S
C3333 C3349 1.429 . S
C3333 H3355 0.950 . S
C3334 H3330 0.949 . S
C3334 C3342 1.574 . S
C3334 C3350 1.368 . S
H3335 C3343 0.950 . S
H3336 C3341 0.950 . S
H3337 C3342 0.949 . S
H3338 C3344 0.950 . S
H3339 C3345 0.950 . S
H3340 C3346 0.949 . S
C3341 H3336 0.950 . S
C3341 C3343 1.327 . S
C3341 C3347 1.429 . S
C3342 C3334 1.574 . S
C3342 H3337 0.949 . S
C3342 C3348 1.368 . S
C3343 C3327 1.349 . S
C3343 H3335 0.950 . S
C3343 C3341 1.327 . S
C3344 C3332 1.349 . S
C3344 H3338 0.950 . S
C3344 C3345 1.327 . S
C3345 H3339 0.950 . S
C3345 C3344 1.327 . S
C3345 C3349 1.429 1_545 S
C3346 C3329 1.574 . S
C3346 H3340 0.949 . S
C3346 C3350 1.368 . S
C3347 C3328 1.429 . S
C3347 C3341 1.429 . S
C3347 C3348 1.523 . S
C3348 C3329 1.368 . S
C3348 C3342 1.368 . S
C3348 C3347 1.523 . S
C3349 C3333 1.429 . S
C3349 C3345 1.429 1_565 S
C3349 C3350 1.523 . S
C3350 C3334 1.368 . S
C3350 C3346 1.368 . S
C3350 C3349 1.523 . S
H3351 C3326 0.950 . S
H3352 C3328 0.950 . S
H3353 C3329 0.949 . S
H3354 C3331 0.950 . S
H3355 C3333 0.950 . S
C3356 C3357 1.349 . S
C3356 C3358 1.327 . S
C3356 H3381 0.950 . S
C3357 C3356 1.349 . S
C3357 C3373 1.349 . S
C3358 C3356 1.327 . S
C3358 C3377 1.429 . S
C3358 H3382 0.950 . S
C3359 C3376 1.574 . S
C3359 C3378 1.368 . S
C3359 H3383 0.949 . S
H3360 C3364 0.949 . S
C3361 C3362 1.349 . S
C3361 C3363 1.327 . S
C3361 H3384 0.950 . S
C3362 C3361 1.349 . S
C3362 C3374 1.349 . S
C3363 C3361 1.327 . S
C3363 C3379 1.429 . S
C3363 H3385 0.950 . S
C3364 H3360 0.949 . S
C3364 C3372 1.574 . S
C3364 C3380 1.368 . S
H3365 C3373 0.950 . S
H3366 C3371 0.950 . S
H3367 C3372 0.949 . S
H3368 C3374 0.950 . S
H3369 C3375 0.950 . S
H3370 C3376 0.949 . S
C3371 H3366 0.950 . S
C3371 C3373 1.327 . S
C3371 C3377 1.429 . S
C3372 C3364 1.574 . S
C3372 H3367 0.949 . S
C3372 C3378 1.368 . S
C3373 C3357 1.349 . S
C3373 H3365 0.950 . S
C3373 C3371 1.327 . S
C3374 C3362 1.349 . S
C3374 H3368 0.950 . S
C3374 C3375 1.327 . S
C3375 H3369 0.950 . S
C3375 C3374 1.327 . S
C3375 C3379 1.429 . S
C3376 C3359 1.574 . S
C3376 H3370 0.949 . S
C3376 C3380 1.368 . S
C3377 C3358 1.429 . S
C3377 C3371 1.429 . S
C3377 C3378 1.523 . S
C3378 C3359 1.368 . S
C3378 C3372 1.368 . S
C3378 C3377 1.523 . S
C3379 C3363 1.429 . S
C3379 C3375 1.429 . S
C3379 C3380 1.523 . S
C3380 C3364 1.368 . S
C3380 C3376 1.368 . S
C3380 C3379 1.523 . S
H3381 C3356 0.950 . S
H3382 C3358 0.950 . S
H3383 C3359 0.949 . S
H3384 C3361 0.950 . S
H3385 C3363 0.950 . S
C3386 C3387 1.354 . S
C3386 C3388 1.327 . S
C3386 H3411 0.950 . S
C3387 C3386 1.354 . S
C3387 C3403 1.342 1_556 S
C3388 C3386 1.327 . S
C3388 C3407 1.429 1_556 S
C3388 H3412 0.950 . S
C3389 C3406 1.574 . S
C3389 C3408 1.368 . S
C3389 H3413 0.949 . S
H3390 C3394 0.949 . S
C3391 C3392 1.349 . S
C3391 C3393 1.327 . S
C3391 H3414 0.950 . S
C3392 C3391 1.349 . S
C3392 C3404 1.317 1_554 S
C3393 C3391 1.327 . S
C3393 C3409 1.429 . S
C3393 H3415 0.950 . S
C3394 H3390 0.949 . S
C3394 C3402 1.574 . S
C3394 C3410 1.368 1_556 S
H3395 C3403 0.950 . S
H3396 C3401 0.950 . S
H3397 C3402 0.949 . S
H3398 C3404 0.974 . S
H3399 C3405 0.950 . S
H3400 C3406 0.949 . S
C3401 H3396 0.950 . S
C3401 C3403 1.327 . S
C3401 C3407 1.429 . S
C3402 C3394 1.574 . S
C3402 H3397 0.949 . S
C3402 C3408 1.368 1_556 S
C3403 C3387 1.342 1_554 S
C3403 H3395 0.950 . S
C3403 C3401 1.327 . S
C3404 C3392 1.317 1_556 S
C3404 H3398 0.974 . S
C3404 C3405 1.339 . S
C3405 H3399 0.950 . S
C3405 C3404 1.339 . S
C3405 C3409 1.429 1_556 S
C3406 C3389 1.574 . S
C3406 H3400 0.949 . S
C3406 C3410 1.368 . S
C3407 C3388 1.429 1_554 S
C3407 C3401 1.429 . S
C3407 C3408 1.523 . S
C3408 C3389 1.368 . S
C3408 C3402 1.368 1_554 S
C3408 C3407 1.523 . S
C3409 C3393 1.429 . S
C3409 C3405 1.429 1_554 S
C3409 C3410 1.523 . S
C3410 C3394 1.368 1_554 S
C3410 C3406 1.368 . S
C3410 C3409 1.523 . S
H3411 C3386 0.950 . S
H3412 C3388 0.950 . S
H3413 C3389 0.949 . S
H3414 C3391 0.950 . S
H3415 C3393 0.950 . S
C3416 C3417 1.349 . S
C3416 C3418 1.327 . S
C3416 H3441 0.950 . S
C3417 C3416 1.349 . S
C3417 C3433 1.349 . S
C3418 C3416 1.327 . S
C3418 C3437 1.429 . S
C3418 H3442 0.950 . S
C3419 C3436 1.574 . S
C3419 C3438 1.368 . S
C3419 H3443 0.949 . S
H3420 C3424 0.949 . S
C3421 C3422 1.349 . S
C3421 C3423 1.327 . S
C3421 H3444 0.950 . S
C3422 C3421 1.349 . S
C3422 C3434 1.349 . S
C3423 C3421 1.327 . S
C3423 C3439 1.429 . S
C3423 H3445 0.950 . S
C3424 H3420 0.949 . S
C3424 C3432 1.574 . S
C3424 C3440 1.368 . S
H3425 C3433 0.950 . S
H3426 C3431 0.950 . S
H3427 C3432 0.949 . S
H3428 C3434 0.950 . S
H3429 C3435 0.950 . S
H3430 C3436 0.949 . S
C3431 H3426 0.950 . S
C3431 C3433 1.327 . S
C3431 C3437 1.429 . S
C3432 C3424 1.574 . S
C3432 H3427 0.949 . S
C3432 C3438 1.368 . S
C3433 C3417 1.349 . S
C3433 H3425 0.950 . S
C3433 C3431 1.327 . S
C3434 C3422 1.349 . S
C3434 H3428 0.950 . S
C3434 C3435 1.327 . S
C3435 H3429 0.950 . S
C3435 C3434 1.327 . S
C3435 C3439 1.429 . S
C3436 C3419 1.574 . S
C3436 H3430 0.949 . S
C3436 C3440 1.368 . S
C3437 C3418 1.429 . S
C3437 C3431 1.429 . S
C3437 C3438 1.523 . S
C3438 C3419 1.368 . S
C3438 C3432 1.368 . S
C3438 C3437 1.523 . S
C3439 C3423 1.429 . S
C3439 C3435 1.429 . S
C3439 C3440 1.523 . S
C3440 C3424 1.368 . S
C3440 C3436 1.368 . S
C3440 C3439 1.523 . S
H3441 C3416 0.950 . S
H3442 C3418 0.950 . S
H3443 C3419 0.949 . S
H3444 C3421 0.950 . S
H3445 C3423 0.950 . S
C3446 C3447 1.349 . S
C3446 C3448 1.327 . S
C3446 H3471 0.950 . S
C3447 C3446 1.349 . S
C3447 C3463 1.349 1_554 S
C3448 C3446 1.327 . S
C3448 C3467 1.429 . S
C3448 H3472 0.950 . S
C3449 C3466 1.574 . S
C3449 C3468 1.368 1_556 S
C3449 H3473 0.949 . S
H3450 C3454 0.949 . S
C3451 C3452 1.349 . S
C3451 C3453 1.327 . S
C3451 H3474 0.950 . S
C3452 C3451 1.349 . S
C3452 C3464 1.349 1_556 S
C3453 C3451 1.327 . S
C3453 C3469 1.422 1_556 S
C3453 H3475 0.950 . S
C3454 H3450 0.949 . S
C3454 C3462 1.574 . S
C3454 C3470 1.368 . S
H3455 C3463 0.950 . S
H3456 C3461 0.950 . S
H3457 C3462 0.949 . S
H3458 C3464 0.950 . S
H3459 C3465 0.950 . S
H3460 C3466 0.949 . S
C3461 H3456 0.950 . S
C3461 C3463 1.327 . S
C3461 C3467 1.429 1_556 S
C3462 C3454 1.574 . S
C3462 H3457 0.949 . S
C3462 C3468 1.368 . S
C3463 C3447 1.349 1_556 S
C3463 H3455 0.950 . S
C3463 C3461 1.327 . S
C3464 C3452 1.349 1_554 S
C3464 H3458 0.950 . S
C3464 C3465 1.327 . S
C3465 H3459 0.950 . S
C3465 C3464 1.327 . S
C3465 C3469 1.433 . S
C3466 C3449 1.574 . S
C3466 H3460 0.949 . S
C3466 C3470 1.368 1_556 S
C3467 C3448 1.429 . S
C3467 C3461 1.429 1_554 S
C3467 C3468 1.523 . S
C3468 C3449 1.368 1_554 S
C3468 C3462 1.368 . S
C3468 C3467 1.523 . S
C3469 C3453 1.422 1_554 S
C3469 C3465 1.433 . S
C3469 C3470 1.524 . S
C3470 C3454 1.368 . S
C3470 C3466 1.368 1_554 S
C3470 C3469 1.524 . S
H3471 C3446 0.950 . S
H3472 C3448 0.950 . S
H3473 C3449 0.949 . S
H3474 C3451 0.950 . S
H3475 C3453 0.950 . S
C3476 C3477 1.349 . S
C3476 C3478 1.327 . S
C3476 H3501 0.950 1_565 S
C3477 C3476 1.349 . S
C3477 C3493 1.349 . S
C3478 C3476 1.327 . S
C3478 C3497 1.429 . S
C3478 H3502 0.950 . S
C3479 C3496 1.574 . S
C3479 C3498 1.368 . S
C3479 H3503 0.949 . S
H3480 C3484 0.949 . S
C3481 C3482 1.349 . S
C3481 C3483 1.327 . S
C3481 H3504 0.950 . S
C3482 C3481 1.349 . S
C3482 C3494 1.349 . S
C3483 C3481 1.327 . S
C3483 C3499 1.429 . S
C3483 H3505 0.950 . S
C3484 H3480 0.949 . S
C3484 C3492 1.574 . S
C3484 C3500 1.368 . S
H3485 C3493 0.950 . S
H3486 C3491 0.950 . S
H3487 C3492 0.949 . S
H3488 C3494 0.950 . S
H3489 C3495 0.950 . S
H3490 C3496 0.949 . S
C3491 H3486 0.950 . S
C3491 C3493 1.327 . S
C3491 C3497 1.429 . S
C3492 C3484 1.574 . S
C3492 H3487 0.949 . S
C3492 C3498 1.368 . S
C3493 C3477 1.349 . S
C3493 H3485 0.950 . S
C3493 C3491 1.327 . S
C3494 C3482 1.349 . S
C3494 H3488 0.950 . S
C3494 C3495 1.327 . S
C3495 H3489 0.950 . S
C3495 C3494 1.327 . S
C3495 C3499 1.429 . S
C3496 C3479 1.574 . S
C3496 H3490 0.949 . S
C3496 C3500 1.368 . S
C3497 C3478 1.429 . S
C3497 C3491 1.429 . S
C3497 C3498 1.523 . S
C3498 C3479 1.368 . S
C3498 C3492 1.368 . S
C3498 C3497 1.523 . S
C3499 C3483 1.429 . S
C3499 C3495 1.429 . S
C3499 C3500 1.523 . S
C3500 C3484 1.368 . S
C3500 C3496 1.368 . S
C3500 C3499 1.523 . S
H3501 C3476 0.950 1_545 S
H3502 C3478 0.950 . S
H3503 C3479 0.949 . S
H3504 C3481 0.950 . S
H3505 C3483 0.950 . S
C3506 C3507 1.349 . S
C3506 C3508 1.327 . S
C3506 H3531 0.950 . S
C3507 C3506 1.349 . S
C3507 C3523 1.349 . S
C3508 C3506 1.327 . S
C3508 C3527 1.429 . S
C3508 H3532 0.950 . S
C3509 C3526 1.574 . S
C3509 C3528 1.368 . S
C3509 H3533 0.949 . S
H3510 C3514 0.949 . S
C3511 C3512 1.349 . S
C3511 C3513 1.327 . S
C3511 H3534 0.950 . S
C3512 C3511 1.349 . S
C3512 C3524 1.349 . S
C3513 C3511 1.327 . S
C3513 C3529 1.429 . S
C3513 H3535 0.950 . S
C3514 H3510 0.949 . S
C3514 C3522 1.574 . S
C3514 C3530 1.368 . S
H3515 C3523 0.950 . S
H3516 C3521 0.950 . S
H3517 C3522 0.949 . S
H3518 C3524 0.950 . S
H3519 C3525 0.950 . S
H3520 C3526 0.949 . S
C3521 H3516 0.950 . S
C3521 C3523 1.327 . S
C3521 C3527 1.429 . S
C3522 C3514 1.574 . S
C3522 H3517 0.949 . S
C3522 C3528 1.368 . S
C3523 C3507 1.349 . S
C3523 H3515 0.950 . S
C3523 C3521 1.327 . S
C3524 C3512 1.349 . S
C3524 H3518 0.950 . S
C3524 C3525 1.327 . S
C3525 H3519 0.950 . S
C3525 C3524 1.327 . S
C3525 C3529 1.429 . S
C3526 C3509 1.574 . S
C3526 H3520 0.949 . S
C3526 C3530 1.368 . S
C3527 C3508 1.429 . S
C3527 C3521 1.429 . S
C3527 C3528 1.523 . S
C3528 C3509 1.368 . S
C3528 C3522 1.368 . S
C3528 C3527 1.523 . S
C3529 C3513 1.429 . S
C3529 C3525 1.429 . S
C3529 C3530 1.523 . S
C3530 C3514 1.368 . S
C3530 C3526 1.368 . S
C3530 C3529 1.523 . S
H3531 C3506 0.950 . S
H3532 C3508 0.950 . S
H3533 C3509 0.949 . S
H3534 C3511 0.950 . S
H3535 C3513 0.950 . S
C657 C109 1.386 . S
C662 C354 1.342 1_556 S
C687 C61 1.281 . S
C692 C365 1.476 . S
C717 C74 0.797 . S
C722 C394 0.799 . S
C752 C397 1.444 . S
C747 C96 1.456 . S
C777 C25 1.452 . S
C782 C435 1.428 . S
C812 C438 0.730 . S
C807 C40 0.731 . S
C842 C465 1.439 . S
C837 C46 1.437 . S
C867 C5 1.316 . S
C872 C494 1.530 . S
C902 C345 1.324 1_655 S
C897 C229 1.144 . S
C927 C249 0.623 . S
C932 C357 0.633 . S
C962 C385 1.438 . S
C957 C271 1.258 . S
C992 C414 1.028 . S
C987 C172 1.003 . S
C1017 C236 0.789 . S
C1022 C418 0.790 . S
C1052 C444 1.788 . S
C1047 C242 1.792 . S
C1082 C457 0.512 . S
C1077 C278 0.492 . S
C1112 C485 1.567 . S
C1107 C179 1.559 . S
C1142 C337 1.488 . S
C1137 C159 1.242 . S
C1167 C285 1.418 . S
C1172 C504 1.631 . S
C1202 C535 1.302 . S
C1197 C333 1.335 . S
C1232 C554 0.758 . S
C1227 C320 0.759 . S
C1257 C123 1.216 . S
C1262 C477 1.201 . S
C1287 C138 1.426 . S
C1292 C377 1.411 . S
C1317 C326 1.646 . S
C1322 C565 1.644 . S
C1352 C594 0.809 . S
C1347 C298 0.806 . S
C1382 C355 1.336 . S
C1377 C67 1.344 . S
C1412 C584 1.428 . S
C1407 C110 1.434 . S
C1437 C88 0.801 . S
C1442 C395 0.799 . S
C1467 C75 1.149 . S
C1472 C558 1.354 . S
C1502 C434 1.366 1_655 S
C1497 C11 1.399 . S
C1527 C47 0.730 . S
C1532 C517 0.716 . S
C1562 C464 1.337 1_556 S
C1557 C32 1.302 . S
C1592 C615 1.543 . S
C1587 C26 1.594 . S
C1622 C344 1.440 . S
C1617 C152 1.450 . S
C1652 C578 0.646 . S
C1647 C319 0.648 . S
C1677 C124 1.434 . S
C1682 C384 1.423 . S
C1707 C284 1.033 . S
C1712 C575 1.027 . S
C1737 C145 0.755 . S
C1742 C417 0.755 . S
C1772 C525 1.682 . S
C1767 C312 1.665 . S
C1797 C117 0.652 . S
C1802 C458 0.382 . S
C1827 C291 1.475 . S
C1832 C604 1.470 . S
C1857 C194 1.506 . S
C1862 C338 1.487 . S
C1887 C180 1.626 . S
C1892 C505 1.604 . S
C1917 C263 1.219 . S
C1922 C454 1.195 . S
C1947 C243 0.706 . S
C1952 C555 0.670 . S
C1982 C598 1.222 . S
C1977 C277 1.213 . S
C2007 C215 1.186 . S
C2012 C378 1.380 1_565 S
C2042 C404 1.544 . S
C2037 C256 1.516 . S
C2072 C375 0.858 . S
C2067 C200 0.866 . S
C2097 C81 1.381 . S
C2102 C634 1.352 . S
C2132 C585 1.476 . S
C2127 C89 1.281 . S
C2157 C102 0.797 . S
C2162 C654 0.805 . S
C2187 C68 1.456 . S
C2192 C557 1.444 . S
C2217 C53 1.452 . S
C2222 C515 1.428 . S
C2252 C518 0.730 . S
C2247 C12 0.731 . S
C2282 C545 1.439 . S
C2277 C18 1.438 . S
C2312 C614 1.530 . S
C2307 C33 1.316 . S
C2342 C625 1.324 . S
C2337 C257 1.144 . S
C2367 C193 0.623 . S
C2372 C577 0.633 . S
C2402 C645 1.438 . S
C2397 C201 1.259 . S
C2432 C574 1.028 . S
C2427 C214 1.003 . S
C2462 C498 0.790 . S
C2457 C264 0.789 . S
C2487 C186 1.792 . S
C2492 C524 1.788 . S
C2522 C537 0.512 . S
C2517 C208 0.493 . S
C2547 C221 1.559 . S
C2552 C605 1.567 . S
C2582 C617 1.458 . S
C2577 C313 1.242 . S
C2607 C131 1.418 . S
C2612 C424 1.631 . S
C2642 C455 1.303 . S
C2637 C151 1.341 . S
C2672 C474 0.758 . S
C2667 C166 0.759 . S
C2702 C597 1.201 . S
C2697 C305 1.216 . S
C2727 C292 1.426 . S
C2732 C637 1.411 . S
C2762 C405 1.644 . S
C2757 C144 1.639 . S
C2792 C374 0.809 . S
C2787 C116 0.806 . S
C2817 C95 1.344 . S
C2822 C635 1.336 . S
C2852 C364 1.428 . S
C2847 C82 1.434 . S
C2877 C60 0.801 . S
C2882 C655 0.799 . S
C2907 C103 1.149 . S
C2912 C398 1.354 . S
C2937 C39 1.399 . S
C2942 C514 1.366 1_556 S
C2972 C437 0.716 . S
C2967 C19 0.730 . S
C2997 C4 1.302 . S
C3002 C544 1.336 . S
C3027 C54 1.594 . S
C3032 C495 1.543 . S
C3062 C624 1.440 . S
C3057 C334 1.450 . S
C3087 C165 0.648 . S
C3092 C358 0.646 . S
C3122 C644 1.423 1_655 S
C3117 C306 1.434 . S
C3147 C130 1.033 . S
C3152 C415 1.027 . S
C3177 C327 0.755 . S
C3182 C497 0.758 . S
C3212 C445 1.682 . S
C3207 C158 1.665 1_556 S
C3237 C299 0.652 . S
C3242 C538 0.382 . S
C3272 C484 1.470 . S
C3267 C137 1.475 . S
C3302 C618 1.487 . S
C3297 C250 1.506 . S
C3332 C425 1.604 . S
C3327 C222 1.626 . S
C3357 C235 1.219 . S
C3362 C534 1.195 . S
C3392 C475 0.670 . S
C3387 C187 0.716 . S
C3417 C207 1.213 . S
C3422 C478 1.222 . S
C3447 C173 1.187 . S
C3452 C638 1.380 . S
C3482 C564 1.544 . S
C3477 C228 1.516 1_565 S
C3512 C595 0.858 . S
C3507 C270 0.866 . S
